
###############################################################################
#
# This file contains modified crystal structure data generated from the
# MOF subset of the Cambridge Structural Database (CSD) v543 
# hosted by the Cambridge Crystallographic Data Centre (CCDC).
#
# This work is licensed under the Creative Commons
# Attribution-NonCommercial-ShareAlike 4.0 International License.
# To view a copy of this license, visit
# http://creativecommons.org/licenses/by-nc-sa/4.0/
# or send a letter to
# Creative Commons, PO Box 1866, Mountain View, CA 94042, USA.
#
# CIF created using the CSD Python API on 29 September 2022
# The structure has been converted into the P1 space group
# The structure has a 3D framework
# The original CSD entry TANBIV is in the triclinic crystal system
# The framework has been calculated to contain at least 10.0% void space
# The void calculation uses a probe of radius 1.32A, grid spacing 0.4
# The framework is charged, counterions have been retained in the structure
#
###############################################################################

data_TANBIV
_chemical_formula_moiety         '(C72 H60 Co2 Eu4 N18 O54)n'
_symmetry_cell_setting           triclinic
_symmetry_space_group_name_H-M   'P 1'
_symmetry_Int_Tables_number      1
_space_group_name_Hall           'P 1'
loop_
_symmetry_equiv_pos_site_id
_symmetry_equiv_pos_as_xyz
1 x,y,z
_cell_length_a                   11.1668(11)
_cell_length_b                   12.4554(12)
_cell_length_c                   22.2593(15)
_cell_angle_alpha                101.9860(10)
_cell_angle_beta                 103.319(2)
_cell_angle_gamma                95.5480(10)
_cell_volume                     2912.86
loop_
_atom_site_label
_atom_site_type_symbol
_atom_site_fract_x
_atom_site_fract_y
_atom_site_fract_z
C27 C 0.0704(5) 0.0977(4) 0.3812(3)
C35 C 0.1935(5) 0.1708(4) 0.4173(3)
O9 O 0.2866(3) 0.1257(3) 0.42811(18)
O10 O 0.1954(3) 0.2728(3) 0.43839(16)
Eu4 Eu 0.30130(2) 0.44646(2) 0.451399(12)
Eu8 Eu 0.04045(2) 0.36846(2) 0.050600(12)
C26 C 0.0663(6) 0.9931(5) 0.3466(3)
H14 H 0.1377 0.9599 0.3484
C13 C 0.7173(5) 0.1087(4) 0.1974(3)
H7 H 0.6833 0.1522 0.2265
C14 C 0.7617(4) 0.1526(4) 0.1567(3)
H8 H 0.7597 0.2275 0.1580
C15 C 0.8125(5) 0.0893(4) 0.1110(2)
C23 C 0.8658(6) 0.1416(5) 0.0680(3)
C28 C 0.9558(4) 0.1459(4) 0.3861(2)
H15 H 0.9580 0.2147 0.4128
C29 C 0.8474(4) 0.0832(4) 0.3492(2)
C30 C 0.7249(4) 0.1148(5) 0.3501(2)
C31 C 0.7037(5) 0.2045(5) 0.3889(3)
H16 H 0.7700 0.2533 0.4180
C32 C 0.5778(5) 0.2251(5) 0.3855(3)
C33 C 0.4833(5) 0.1523(4) 0.3386(2)
H17 H 0.4017 0.1660 0.3345
C34 C 0.5051(5) 0.0623(5) 0.2988(3)
H18 H 0.4400 0.0157 0.2676
C36 C 0.5447(5) 0.3223(5) 0.4277(3)
N6 N 0.6253(4) 0.0416(3) 0.30555(19)
O5 O 0.9084(3) 0.2441(3) 0.08138(17)
O6 O 0.8711(4) 0.0764(3) 0.01695(18)
O11 O 0.6365(3) 0.3774(3) 0.47096(17)
O12 O 0.4450(3) 0.3536(3) 0.41301(16)
Eu5 Eu 0.69870(2) 0.55354(2) 0.548601(12)
C1 C 0.6988(5) 0.8272(4) 0.3712(3)
H1 H 0.7747 0.8736 0.3884
C2 C 0.6541(6) 0.7589(5) 0.4087(3)
H2 H 0.6978 0.7638 0.4504
C3 C 0.5457(5) 0.6870(4) 0.3814(2)
C4 C 0.4773(5) 0.6884(4) 0.3168(2)
H3 H 0.4032 0.6402 0.2970
C5 C 0.5222(5) 0.7597(4) 0.2862(2)
C6 C 0.4644(5) 0.7684(4) 0.2213(2)
C7 C 0.3583(5) 0.6940(4) 0.1794(3)
H4 H 0.3238 0.6349 0.1926
C8 C 0.3050(5) 0.7095(4) 0.1177(2)
C9 C 0.3537(5) 0.7998(5) 0.1037(2)
H5 H 0.3154 0.8183 0.0663
C10 C 0.4614(5) 0.8678(4) 0.1441(3)
H6 H 0.4978 0.9253 0.1303
C11 C 0.4937(5) 0.6097(4) 0.4158(2)
C12 C 0.1946(5) 0.6312(5) 0.0742(3)
C16 C 0.8184(5) 0.9812(4) 0.1101(2)
H9 H 0.8518 0.9380 0.0805
C17 C 0.7736(5) 0.9353(4) 0.1544(3)
C18 C 0.7705(5) 0.8178(4) 0.1560(3)
C19 C 0.8160(5) 0.7395(5) 0.1159(3)
H10 H 0.8419 0.7580 0.0821
C20 C 0.8225(5) 0.6350(4) 0.1263(3)
C21 C 0.7934(5) 0.6111(4) 0.1774(3)
H11 H 0.8014 0.5425 0.1870
C22 C 0.7505(4) 0.6934(4) 0.2154(2)
H12 H 0.7293 0.6744 0.2503
C24 C 0.8785(5) 0.5602(4) 0.0843(2)
C25 C 0.9505(4) 0.9375(4) 0.3083(2)
H13 H 0.9467 0.8696 0.2804
Co1 Co 0.67778(6) 0.91394(5) 0.25723(3)
N1 N 0.6314(4) 0.8259(4) 0.3093(2)
N2 N 0.5147(4) 0.8536(3) 0.2025(2)
N3 N 0.7212(4) 0.9935(3) 0.19702(19)
N4 N 0.7356(4) 0.7924(3) 0.20962(19)
N5 N 0.8445(4) 0.9791(4) 0.3105(2)
O1 O 0.5700(3) 0.5904(3) 0.46235(17)
O2 O 0.3790(3) 0.5675(3) 0.39925(17)
O3 O 0.1599(3) 0.5489(3) 0.09087(17)
O4 O 0.1440(3) 0.6593(3) 0.02801(17)
O7 O 0.9045(3) 0.5841(3) 0.03714(16)
O8 O 0.9085(3) 0.4722(3) 0.10335(17)
O13 O 0.7988(4) 0.6335(3) 0.66283(17)
H19 H 0.7429 0.6746 0.6820
H20 H 0.8740 0.6825 0.6673
O14 O 0.8681(4) 0.4588(3) 0.5845(2)
H21 H 0.8390 0.3984 0.6009
H22 H 0.9311 0.5102 0.6177
O15 O 0.8267(4) 0.5446(3) 0.47357(19)
H23 H 0.8821 0.6136 0.4837
H24 H 0.7739 0.5324 0.4311
O16 O 0.1199(4) 0.3713(3) 0.16279(18)
H25 H 0.0514 0.3559 0.1806
H26 H 0.1661 0.4434 0.1852
O17 O 0.2463(3) 0.3227(3) 0.0696(2)
H27 H 0.2566 0.2762 0.0314
H28 H 0.3058 0.3895 0.0822
O19 O 0.6210(3) 0.4325(3) 0.60075(17)
O24 O 0.8046(3) 0.7272(3) 0.56161(16)
O26 O 0.5550(3) 0.6464(3) 0.58699(16)
O18 O 0.0212(4) 0.1899(3) 0.97476(19)
Eu9 Eu 0.95955(2) 0.63154(2) 0.949400(12)
O22 O 0.0955(3) 0.4159(3) 0.96286(16)
H29 H 0.9820 0.1994 0.9349
H30 H 0.9830 0.1381 0.9774
O20 O 0.8560(3) 0.3407(3) 0.97199(17)
H29_2 H 0.0180 0.8006 0.0651
H30_2 H 0.0170 0.8619 0.0226
O21 O 0.0916(3) 0.7559(3) 0.91862(17)
O23 O 0.0915(3) 0.5278(3) 0.89665(17)
O18_2 O 0.9788(4) 0.8101(3) 0.02524(19)
C1_2 C 0.3012(5) 0.1728(4) 0.6288(3)
H1_2 H 0.2253 0.1264 0.6116
C2_2 C 0.3459(6) 0.2411(5) 0.5913(3)
H2_2 H 0.3022 0.2362 0.5496
C3_2 C 0.4543(5) 0.3130(4) 0.6186(2)
C4_2 C 0.5227(5) 0.3116(4) 0.6832(2)
H3_2 H 0.5968 0.3598 0.7030
C5_2 C 0.4778(5) 0.2403(4) 0.7138(2)
C6_2 C 0.5356(5) 0.2316(4) 0.7787(2)
C7_2 C 0.6417(5) 0.3060(4) 0.8206(3)
H4_2 H 0.6762 0.3651 0.8074
C8_2 C 0.6950(5) 0.2905(4) 0.8823(2)
C9_2 C 0.6463(5) 0.2002(5) 0.8963(2)
H5_2 H 0.6846 0.1817 0.9337
C10_2 C 0.5386(5) 0.1322(4) 0.8559(3)
H6_2 H 0.5022 0.0747 0.8697
C11_2 C 0.5063(5) 0.3903(4) 0.5842(2)
C12_2 C 0.8054(5) 0.3688(5) 0.9258(3)
C16_2 C 0.1816(5) 0.0188(4) 0.8899(2)
H9_2 H 0.1482 0.0620 0.9195
C17_2 C 0.2264(5) 0.0647(4) 0.8456(3)
C18_2 C 0.2295(5) 0.1822(4) 0.8440(3)
C19_2 C 0.1840(5) 0.2605(5) 0.8841(3)
H10_2 H 0.1581 0.2420 0.9179
C20_2 C 0.1775(5) 0.3650(4) 0.8737(3)
C21_2 C 0.2066(5) 0.3889(4) 0.8226(3)
H11_2 H 0.1986 0.4575 0.8130
C22_2 C 0.2495(4) 0.3066(4) 0.7846(2)
H12_2 H 0.2707 0.3256 0.7497
C24_2 C 0.1215(5) 0.4398(4) 0.9157(2)
C25_2 C 0.0495(4) 0.0625(4) 0.6917(2)
H13_2 H 0.0533 0.1304 0.7196
Co1_2 Co 0.32222(6) 0.08606(5) 0.74277(3)
N1_2 N 0.3686(4) 0.1741(4) 0.6907(2)
N2_2 N 0.4853(4) 0.1464(3) 0.7975(2)
N3_2 N 0.2788(4) 0.0065(3) 0.80298(19)
N4_2 N 0.2644(4) 0.2076(3) 0.79038(19)
N5_2 N 0.1555(4) 0.0209(4) 0.6895(2)
O1_2 O 0.4300(3) 0.4096(3) 0.53765(17)
O3_2 O 0.8401(3) 0.4511(3) 0.90913(17)
O13_2 O 0.2012(4) 0.3665(3) 0.33717(17)
H19_2 H 0.2571 0.3254 0.3180
H20_2 H 0.1260 0.3175 0.3327
O14_2 O 0.1319(4) 0.5412(3) 0.4155(2)
H21_2 H 0.1610 0.6016 0.3991
H22_2 H 0.0689 0.4898 0.3823
O15_2 O 0.1733(4) 0.4554(3) 0.52643(19)
H23_2 H 0.1179 0.3864 0.5163
H24_2 H 0.2261 0.4676 0.5689
O16_2 O 0.8801(4) 0.6287(3) 0.83721(18)
H25_2 H 0.9486 0.6441 0.8194
H26_2 H 0.8339 0.5566 0.8148
O17_2 O 0.7537(3) 0.6773(3) 0.9304(2)
H27_2 H 0.7434 0.7238 0.9686
H28_2 H 0.6942 0.6105 0.9178
O25 O 0.3635(3) 0.6226(3) 0.52904(17)
C13_2 C 0.2827(5) 0.8913(4) 0.8026(3)
H7_2 H 0.3167 0.8478 0.7735
C14_2 C 0.2383(4) 0.8474(4) 0.8433(3)
H8_2 H 0.2403 0.7725 0.8420
C15_2 C 0.1875(5) 0.9107(4) 0.8890(2)
C23_2 C 0.1342(6) 0.8584(5) 0.9320(3)
C28_2 C 0.0442(4) 0.8541(4) 0.6139(2)
H15_2 H 0.0420 0.7853 0.5872
C29_2 C 0.1526(4) 0.9168(4) 0.6508(2)
C30_2 C 0.2751(4) 0.8852(5) 0.6499(2)
C31_2 C 0.2963(5) 0.7955(5) 0.6111(3)
H16_2 H 0.2300 0.7467 0.5820
C32_2 C 0.4222(5) 0.7749(5) 0.6145(3)
C33_2 C 0.5167(5) 0.8477(4) 0.6614(2)
H17_2 H 0.5983 0.8340 0.6655
C34_2 C 0.4949(5) 0.9377(5) 0.7012(3)
H18_2 H 0.5600 0.9843 0.7324
C36_2 C 0.4553(5) 0.6777(5) 0.5723(3)
N6_2 N 0.3747(4) 0.9584(3) 0.69445(19)
O6_2 O 0.1289(4) 0.9236(3) 0.98305(18)
C26_2 C 0.9337(6) 0.0069(5) 0.6534(3)
H14_2 H 0.8623 0.0401 0.6516
C27_2 C 0.9296(5) 0.9023(4) 0.6188(3)
C35_2 C 0.8065(5) 0.8292(4) 0.5827(3)
O9_2 O 0.7134(3) 0.8743(3) 0.57189(18)
O27 O 0.0983(4) 0.0522(3) 0.2031(2)
N7 N 0.1377(5) 0.9639(4) 0.2003(2)
O28 O 0.0907(4) 0.8830(4) 0.1557(2)
O29 O 0.2245(4) 0.9535(3) 0.24147(18)
N7_2 N 0.8623(5) 0.0361(4) 0.7997(2)
O28_2 O 0.9093(4) 0.1170(4) 0.8443(2)
O29_2 O 0.7755(4) 0.0465(3) 0.75853(18)
O27_2 O 0.9017(4) 0.9478(3) 0.7969(2)
N8 N 0.8757(6) 0.3944(4) 0.2911(2)
O30 O 0.9616(4) 0.3765(4) 0.26508(19)
O31 O 0.7877(4) 0.4291(3) 0.26143(18)
O32 O 0.8749(4) 0.3707(4) 0.3416(2)
N8_2 N 0.1243(6) 0.6056(4) 0.7089(2)
O30_2 O 0.0384(4) 0.6235(4) 0.73492(19)
O31_2 O 0.2123(4) 0.5709(3) 0.73857(18)
O32_2 O 0.1251(4) 0.6293(4) 0.6584(2)
N9 N 0.7883(4) 0.1514(4) 0.5386(2)
O33 O 0.6836(4) 0.1029(3) 0.5225(2)
O34 O 0.8104(3) 0.2519(3) 0.56206(19)
O35 O 0.8759(4) 0.1011(3) 0.53123(17)
N9_2 N 0.2117(4) 0.8486(4) 0.4614(2)
O33_2 O 0.3164(4) 0.8971(3) 0.4775(2)
O34_2 O 0.1896(3) 0.7481(3) 0.43794(19)
O35_2 O 0.1241(4) 0.8989(3) 0.46877(17)
loop_
_geom_bond_atom_site_label_1
_geom_bond_atom_site_label_2
_geom_bond_site_symmetry_1
_geom_bond_site_symmetry_2
C35 C27 1_555 1_555
O9 C35 1_555 1_555
O10 C35 1_555 1_555
Eu4 O10 1_555 1_555
H14 C26 1_555 1_555
C13 H7 1_555 1_555
C14 C13 1_555 1_555
H8 C14 1_555 1_555
C15 C14 1_555 1_555
C23 C15 1_555 1_555
H15 C28 1_555 1_555
C29 C28 1_555 1_555
C30 C29 1_555 1_555
C31 C30 1_555 1_555
H16 C31 1_555 1_555
C32 C31 1_555 1_555
C33 C32 1_555 1_555
H17 C33 1_555 1_555
C34 C33 1_555 1_555
H18 C34 1_555 1_555
C36 C32 1_555 1_555
N6 C30 1_555 1_555
O5 C23 1_555 1_555
O6 C23 1_555 1_555
O11 C36 1_555 1_555
O12 C36 1_555 1_555
Eu5 O11 1_555 1_555
Eu4 O12 1_555 1_555
C34 N6 1_555 1_555
C1 H1 1_555 1_555
C2 C1 1_555 1_555
H2 C2 1_555 1_555
C3 C2 1_555 1_555
C4 C3 1_555 1_555
H3 C4 1_555 1_555
C5 C4 1_555 1_555
C6 C5 1_555 1_555
C7 C6 1_555 1_555
H4 C7 1_555 1_555
C8 C7 1_555 1_555
C9 C8 1_555 1_555
H5 C9 1_555 1_555
C10 C9 1_555 1_555
H6 C10 1_555 1_555
C11 C3 1_555 1_555
C12 C8 1_555 1_555
H9 C16 1_555 1_555
C17 C16 1_555 1_555
C18 C17 1_555 1_555
C19 C18 1_555 1_555
H10 C19 1_555 1_555
C20 C19 1_555 1_555
C21 C20 1_555 1_555
H11 C21 1_555 1_555
C22 C21 1_555 1_555
H12 C22 1_555 1_555
C24 C20 1_555 1_555
C25 H13 1_555 1_555
Co1 N1 1_555 1_555
Eu5 O1 1_555 1_555
Eu8 O3 1_555 1_555
N1 C1 1_555 1_555
N2 C6 1_555 1_555
N4 C18 1_555 1_555
N5 C25 1_555 1_555
O1 C11 1_555 1_555
O2 C11 1_555 1_555
O3 C12 1_555 1_555
O4 C12 1_555 1_555
O7 C24 1_555 1_555
O8 C24 1_555 1_555
O13 Eu5 1_555 1_555
H19 O13 1_555 1_555
H20 O13 1_555 1_555
O14 Eu5 1_555 1_555
H21 O14 1_555 1_555
H22 O14 1_555 1_555
O15 Eu5 1_555 1_555
H23 O15 1_555 1_555
H24 O15 1_555 1_555
O16 Eu8 1_555 1_555
H25 O16 1_555 1_555
H26 O16 1_555 1_555
O17 Eu8 1_555 1_555
H27 O17 1_555 1_555
H28 O17 1_555 1_555
Eu4 O2 1_555 1_555
O19 Eu5 1_555 1_555
O24 Eu5 1_555 1_555
O26 Eu5 1_555 1_555
C5 N1 1_555 1_555
C10 N2 1_555 1_555
C17 N3 1_555 1_555
C22 N4 1_555 1_555
Co1 N2 1_555 1_555
Co1 N3 1_555 1_555
Co1 N4 1_555 1_555
Co1 N5 1_555 1_555
C1_2 H1_2 1_555 1_555
C2_2 C1_2 1_555 1_555
H2_2 C2_2 1_555 1_555
C3_2 C2_2 1_555 1_555
C4_2 C3_2 1_555 1_555
H3_2 C4_2 1_555 1_555
C5_2 C4_2 1_555 1_555
C6_2 C5_2 1_555 1_555
C7_2 C6_2 1_555 1_555
H4_2 C7_2 1_555 1_555
C8_2 C7_2 1_555 1_555
C9_2 C8_2 1_555 1_555
H5_2 C9_2 1_555 1_555
C10_2 C9_2 1_555 1_555
H6_2 C10_2 1_555 1_555
C11_2 C3_2 1_555 1_555
C12_2 C8_2 1_555 1_555
H9_2 C16_2 1_555 1_555
C17_2 C16_2 1_555 1_555
C18_2 C17_2 1_555 1_555
C19_2 C18_2 1_555 1_555
H10_2 C19_2 1_555 1_555
C20_2 C19_2 1_555 1_555
C21_2 C20_2 1_555 1_555
H11_2 C21_2 1_555 1_555
C22_2 C21_2 1_555 1_555
H12_2 C22_2 1_555 1_555
C24_2 C20_2 1_555 1_555
C25_2 H13_2 1_555 1_555
Co1_2 N1_2 1_555 1_555
Eu4 O1_2 1_555 1_555
Eu9 O3_2 1_555 1_555
N1_2 C1_2 1_555 1_555
N2_2 C6_2 1_555 1_555
N4_2 C18_2 1_555 1_555
N5_2 C25_2 1_555 1_555
O1_2 C11_2 1_555 1_555
O19 C11_2 1_555 1_555
O3_2 C12_2 1_555 1_555
O20 C12_2 1_555 1_555
O22 C24_2 1_555 1_555
O23 C24_2 1_555 1_555
O13_2 Eu4 1_555 1_555
H19_2 O13_2 1_555 1_555
H20_2 O13_2 1_555 1_555
O14_2 Eu4 1_555 1_555
H21_2 O14_2 1_555 1_555
H22_2 O14_2 1_555 1_555
O15_2 Eu4 1_555 1_555
H23_2 O15_2 1_555 1_555
H24_2 O15_2 1_555 1_555
O16_2 Eu9 1_555 1_555
H25_2 O16_2 1_555 1_555
H26_2 O16_2 1_555 1_555
O17_2 Eu9 1_555 1_555
H27_2 O17_2 1_555 1_555
H28_2 O17_2 1_555 1_555
O25 Eu4 1_555 1_555
C5_2 N1_2 1_555 1_555
C10_2 N2_2 1_555 1_555
C17_2 N3_2 1_555 1_555
C22_2 N4_2 1_555 1_555
Co1_2 N2_2 1_555 1_555
Co1_2 N3_2 1_555 1_555
Co1_2 N4_2 1_555 1_555
Co1_2 N5_2 1_555 1_555
C13_2 H7_2 1_555 1_555
C14_2 C13_2 1_555 1_555
H8_2 C14_2 1_555 1_555
C15_2 C14_2 1_555 1_555
C23_2 C15_2 1_555 1_555
H15_2 C28_2 1_555 1_555
C29_2 C28_2 1_555 1_555
C30_2 C29_2 1_555 1_555
C31_2 C30_2 1_555 1_555
H16_2 C31_2 1_555 1_555
C32_2 C31_2 1_555 1_555
C33_2 C32_2 1_555 1_555
H17_2 C33_2 1_555 1_555
C34_2 C33_2 1_555 1_555
H18_2 C34_2 1_555 1_555
C36_2 C32_2 1_555 1_555
N6_2 C30_2 1_555 1_555
O21 C23_2 1_555 1_555
O6_2 C23_2 1_555 1_555
O25 C36_2 1_555 1_555
O26 C36_2 1_555 1_555
C34_2 N6_2 1_555 1_555
H14_2 C26_2 1_555 1_555
C35_2 C27_2 1_555 1_555
O9_2 C35_2 1_555 1_555
O24 C35_2 1_555 1_555
O28 N7 1_555 1_555
O29 N7 1_555 1_555
O28_2 N7_2 1_555 1_555
O29_2 N7_2 1_555 1_555
N8 O30 1_555 1_555
O31 N8 1_555 1_555
O32 N8 1_555 1_555
N8_2 O30_2 1_555 1_555
O31_2 N8_2 1_555 1_555
O32_2 N8_2 1_555 1_555
N9 O33 1_555 1_555
O34 N9 1_555 1_555
O35 N9 1_555 1_555
N9_2 O33_2 1_555 1_555
O34_2 N9_2 1_555 1_555
O35_2 N9_2 1_555 1_555

#END
