
###############################################################################
#
# This file contains modified crystal structure data generated from the
# MOF subset of the Cambridge Structural Database (CSD) v543 
# hosted by the Cambridge Crystallographic Data Centre (CCDC).
#
# This work is licensed under the Creative Commons
# Attribution-NonCommercial-ShareAlike 4.0 International License.
# To view a copy of this license, visit
# http://creativecommons.org/licenses/by-nc-sa/4.0/
# or send a letter to
# Creative Commons, PO Box 1866, Mountain View, CA 94042, USA.
#
# CIF created using the CSD Python API on 29 September 2022
# The structure has been converted into the P1 space group
# The structure has a 3D framework
# The original CSD entry TANBAN is in the triclinic crystal system
# The framework has been calculated to contain at least 10.0% void space
# The void calculation uses a probe of radius 1.32A, grid spacing 0.4
# The framework is charged, counterions have been retained in the structure
#
###############################################################################

data_TANBAN
_chemical_formula_moiety         '(C72 H60 Co2 La4 N18 O54)n'
_symmetry_cell_setting           triclinic
_symmetry_space_group_name_H-M   'P 1'
_symmetry_Int_Tables_number      1
_space_group_name_Hall           'P 1'
loop_
_symmetry_equiv_pos_site_id
_symmetry_equiv_pos_as_xyz
1 x,y,z
_cell_length_a                   11.0396(13)
_cell_length_b                   12.5110(16)
_cell_length_c                   22.498(2)
_cell_angle_alpha                101.492(2)
_cell_angle_beta                 102.416(3)
_cell_angle_gamma                95.975(2)
_cell_volume                     2938.58
loop_
_atom_site_label
_atom_site_type_symbol
_atom_site_fract_x
_atom_site_fract_y
_atom_site_fract_z
C27 C 0.0724(5) 0.0964(5) 0.3825(3)
C35 C 0.1937(6) 0.1701(5) 0.4181(3)
O9 O 0.2872(4) 0.1251(3) 0.42820(18)
O10 O 0.1947(3) 0.2723(3) 0.43854(17)
La6 La 0.30098(3) 0.44627(2) 0.451909(14)
La8 La 0.04026(3) 0.36712(3) 0.050167(15)
C26 C 0.0668(6) 0.9924(5) 0.3470(3)
H14 H 0.1386 0.9593 0.3482
C13 C 0.7167(5) 0.1078(5) 0.1974(3)
H7 H 0.6816 0.1504 0.2260
C14 C 0.7621(5) 0.1528(5) 0.1570(3)
H8 H 0.7617 0.2277 0.1586
C15 C 0.8116(5) 0.0887(4) 0.1109(2)
C23 C 0.8651(6) 0.1401(5) 0.0673(3)
C28 C 0.9566(5) 0.1446(4) 0.3862(2)
H15 H 0.9579 0.2126 0.4123
C29 C 0.8476(5) 0.0826(4) 0.3486(2)
C30 C 0.7248(4) 0.1134(5) 0.3494(2)
C31 C 0.7027(5) 0.2051(5) 0.3883(3)
H16 H 0.7690 0.2540 0.4165
C32 C 0.5779(5) 0.2239(4) 0.3848(2)
C33 C 0.4828(5) 0.1531(4) 0.3373(2)
H17 H 0.4011 0.1689 0.3317
C34 C 0.5055(5) 0.0633(5) 0.2999(2)
H18 H 0.4396 0.0166 0.2701
C36 C 0.5419(5) 0.3219(5) 0.4258(3)
N6 N 0.6248(4) 0.0409(3) 0.30551(19)
O5 O 0.9073(4) 0.2449(3) 0.08175(19)
O6 O 0.8708(4) 0.0760(3) 0.01689(18)
O11 O 0.6361(4) 0.3774(3) 0.47008(18)
O12 O 0.4440(4) 0.3525(3) 0.41294(16)
La3 La 0.69902(3) 0.55373(2) 0.548091(14)
C1 C 0.6975(5) 0.8276(4) 0.3710(3)
H1 H 0.7740 0.8739 0.3878
C2 C 0.6509(6) 0.7598(5) 0.4094(3)
H2 H 0.6922 0.7661 0.4509
C3 C 0.5449(5) 0.6876(4) 0.3819(3)
C4 C 0.4778(6) 0.6892(5) 0.3164(2)
H3 H 0.4036 0.6409 0.2972
C5 C 0.5226(5) 0.7587(4) 0.2850(2)
C6 C 0.4653(6) 0.7666(4) 0.2214(2)
C7 C 0.3589(5) 0.6922(5) 0.1797(3)
H4 H 0.3229 0.6324 0.1921
C8 C 0.3079(5) 0.7112(5) 0.1180(3)
C9 C 0.3560(6) 0.7985(5) 0.1040(3)
H5 H 0.3191 0.8161 0.0667
C10 C 0.4645(5) 0.8686(4) 0.1446(3)
H6 H 0.5018 0.9270 0.1315
C11 C 0.4930(6) 0.6081(4) 0.4153(2)
C12 C 0.1953(6) 0.6313(5) 0.0748(3)
C16 C 0.8175(5) 0.9791(5) 0.1086(3)
H9 H 0.8499 0.9363 0.0788
C17 C 0.7716(5) 0.9349(4) 0.1540(2)
C18 C 0.7701(5) 0.8176(5) 0.1556(3)
C19 C 0.8145(5) 0.7364(5) 0.1149(3)
H10 H 0.8384 0.7538 0.0804
C20 C 0.8222(5) 0.6349(4) 0.1257(3)
C21 C 0.7942(5) 0.6118(4) 0.1774(3)
H11 H 0.8024 0.5436 0.1870
C22 C 0.7527(5) 0.6935(4) 0.2158(2)
H12 H 0.7348 0.6750 0.2514
C24 C 0.8800(5) 0.5594(4) 0.0848(2)
C25 C 0.9516(5) 0.9373(4) 0.3092(2)
H13 H 0.9485 0.8699 0.2821
Co1 Co 0.67800(7) 0.91333(6) 0.25739(3)
N1 N 0.6331(4) 0.8265(4) 0.3102(2)
N2 N 0.5153(4) 0.8517(4) 0.2031(2)
N3 N 0.7209(4) 0.9937(3) 0.19762(19)
N4 N 0.7352(4) 0.7917(4) 0.2097(2)
N5 N 0.8443(4) 0.9789(4) 0.3109(2)
O1 O 0.5678(4) 0.5897(3) 0.46225(18)
O2 O 0.3771(4) 0.5681(3) 0.39910(18)
O3 O 0.1614(4) 0.5483(3) 0.09116(18)
O4 O 0.1450(4) 0.6588(3) 0.02800(17)
O7 O 0.9058(3) 0.5835(3) 0.03737(17)
O8 O 0.9078(4) 0.4708(3) 0.10333(18)
O13 O 0.7984(4) 0.6340(3) 0.66249(18)
H19 H 0.7425 0.6751 0.6816
H20 H 0.8736 0.6829 0.6669
O14 O 0.8679(4) 0.4595(3) 0.5846(2)
H21 H 0.8388 0.3992 0.6010
H22 H 0.9308 0.5110 0.6178
O15 O 0.8254(4) 0.5463(3) 0.47358(19)
H23 H 0.8808 0.6153 0.4837
H24 H 0.7726 0.5341 0.4311
O16 O 0.1195(4) 0.3709(3) 0.16290(18)
H25 H 0.0510 0.3554 0.1807
H26 H 0.1657 0.4429 0.1853
O17 O 0.2456(4) 0.3235(4) 0.0693(2)
H27 H 0.2559 0.2770 0.0310
H28 H 0.3051 0.3903 0.0818
O19 O 0.6229(4) 0.4319(3) 0.60090(18)
O24 O 0.8053(3) 0.7277(3) 0.56146(17)
O26 O 0.5560(4) 0.6475(3) 0.58706(16)
O18 O 0.0211(4) 0.1895(3) 0.97411(19)
La9 La 0.95974(3) 0.63288(3) 0.949833(15)
O22 O 0.0942(3) 0.4165(3) 0.96263(17)
H29 H 0.9820 0.1990 0.9342
H30 H 0.9829 0.1377 0.9768
O20 O 0.8550(4) 0.3412(3) 0.97200(17)
H29_2 H 0.0180 0.8010 0.0658
H30_2 H 0.0171 0.8623 0.0232
O21 O 0.0927(4) 0.7551(3) 0.91825(19)
O23 O 0.0922(4) 0.5292(3) 0.89667(18)
O18_2 O 0.9789(4) 0.8105(3) 0.02589(19)
C1_2 C 0.3025(5) 0.1724(4) 0.6290(3)
H1_2 H 0.2260 0.1261 0.6122
C2_2 C 0.3491(6) 0.2402(5) 0.5906(3)
H2_2 H 0.3078 0.2339 0.5491
C3_2 C 0.4551(5) 0.3124(4) 0.6181(3)
C4_2 C 0.5222(6) 0.3108(5) 0.6836(2)
H3_2 H 0.5964 0.3591 0.7028
C5_2 C 0.4774(5) 0.2413(4) 0.7150(2)
C6_2 C 0.5347(6) 0.2334(4) 0.7786(2)
C7_2 C 0.6411(5) 0.3078(5) 0.8203(3)
H4_2 H 0.6771 0.3676 0.8079
C8_2 C 0.6921(5) 0.2888(5) 0.8820(3)
C9_2 C 0.6440(6) 0.2015(5) 0.8960(3)
H5_2 H 0.6809 0.1839 0.9333
C10_2 C 0.5355(5) 0.1314(4) 0.8554(3)
H6_2 H 0.4982 0.0730 0.8685
C11_2 C 0.5070(6) 0.3919(4) 0.5847(2)
C12_2 C 0.8047(6) 0.3687(5) 0.9252(3)
C16_2 C 0.1825(5) 0.0209(5) 0.8914(3)
H9_2 H 0.1501 0.0637 0.9212
C17_2 C 0.2284(5) 0.0651(4) 0.8460(2)
C18_2 C 0.2299(5) 0.1824(5) 0.8444(3)
C19_2 C 0.1855(5) 0.2636(5) 0.8851(3)
H10_2 H 0.1616 0.2462 0.9196
C20_2 C 0.1778(5) 0.3651(4) 0.8743(3)
C21_2 C 0.2058(5) 0.3882(4) 0.8226(3)
H11_2 H 0.1976 0.4564 0.8130
C22_2 C 0.2473(5) 0.3065(4) 0.7842(2)
H12_2 H 0.2652 0.3250 0.7486
C24_2 C 0.1200(5) 0.4406(4) 0.9152(2)
C25_2 C 0.0484(5) 0.0627(4) 0.6908(2)
H13_2 H 0.0515 0.1301 0.7179
Co1_2 Co 0.32200(7) 0.08667(6) 0.74261(3)
N1_2 N 0.3669(4) 0.1735(4) 0.6898(2)
N2_2 N 0.4847(4) 0.1483(4) 0.7969(2)
N3_2 N 0.2791(4) 0.0063(3) 0.80238(19)
N4_2 N 0.2648(4) 0.2083(4) 0.7903(2)
N5_2 N 0.1557(4) 0.0211(4) 0.6891(2)
O1_2 O 0.4322(4) 0.4103(3) 0.53775(18)
O3_2 O 0.8386(4) 0.4517(3) 0.90884(18)
O13_2 O 0.2016(4) 0.3660(3) 0.33751(18)
H19_2 H 0.2575 0.3249 0.3184
H20_2 H 0.1264 0.3171 0.3331
O14_2 O 0.1321(4) 0.5405(3) 0.4154(2)
H21_2 H 0.1612 0.6008 0.3990
H22_2 H 0.0692 0.4890 0.3822
O15_2 O 0.1746(4) 0.4537(3) 0.52642(19)
H23_2 H 0.1192 0.3847 0.5163
H24_2 H 0.2274 0.4659 0.5689
O16_2 O 0.8805(4) 0.6291(3) 0.83710(18)
H25_2 H 0.9490 0.6446 0.8193
H26_2 H 0.8343 0.5571 0.8147
O17_2 O 0.7544(4) 0.6765(4) 0.9307(2)
H27_2 H 0.7441 0.7230 0.9690
H28_2 H 0.6949 0.6097 0.9182
O25 O 0.3639(4) 0.6226(3) 0.52992(18)
C13_2 C 0.2833(5) 0.8922(5) 0.8026(3)
H7_2 H 0.3184 0.8496 0.7740
C14_2 C 0.2379(5) 0.8472(5) 0.8430(3)
H8_2 H 0.2383 0.7723 0.8414
C15_2 C 0.1884(5) 0.9113(4) 0.8891(2)
C23_2 C 0.1349(6) 0.8599(5) 0.9327(3)
C28_2 C 0.0434(5) 0.8554(4) 0.6138(2)
H15_2 H 0.0421 0.7874 0.5877
C29_2 C 0.1524(5) 0.9174(4) 0.6514(2)
C30_2 C 0.2752(4) 0.8866(5) 0.6506(2)
C31_2 C 0.2973(5) 0.7949(5) 0.6117(3)
H16_2 H 0.2310 0.7460 0.5835
C32_2 C 0.4221(5) 0.7761(4) 0.6152(2)
C33_2 C 0.5172(5) 0.8469(4) 0.6627(2)
H17_2 H 0.5989 0.8311 0.6683
C34_2 C 0.4945(5) 0.9367(5) 0.7001(2)
H18_2 H 0.5604 0.9834 0.7299
C36_2 C 0.4581(5) 0.6781(5) 0.5742(3)
N6_2 N 0.3752(4) 0.9591(3) 0.69449(19)
O6_2 O 0.1292(4) 0.9240(3) 0.98311(18)
C26_2 C 0.9332(6) 0.0076(5) 0.6530(3)
H14_2 H 0.8614 0.0407 0.6518
C27_2 C 0.9276(5) 0.9036(5) 0.6175(3)
C35_2 C 0.8063(6) 0.8299(5) 0.5819(3)
O9_2 O 0.7128(4) 0.8749(3) 0.57180(18)
O27 O 0.0981(4) 0.0528(3) 0.2030(2)
N7 N 0.1385(5) 0.9654(5) 0.2009(3)
O28 O 0.0912(5) 0.8829(4) 0.1559(2)
O29 O 0.2248(4) 0.9546(3) 0.24166(19)
N7_2 N 0.8615(5) 0.0346(5) 0.7991(3)
O28_2 O 0.9088(5) 0.1171(4) 0.8441(2)
O29_2 O 0.7752(4) 0.0454(3) 0.75834(19)
O27_2 O 0.9019(4) 0.9472(3) 0.7970(2)
N8 N 0.8765(6) 0.3947(5) 0.2912(2)
O30 O 0.9615(4) 0.3772(4) 0.26488(19)
O31 O 0.7881(4) 0.4287(4) 0.26155(18)
O32 O 0.8746(4) 0.3713(4) 0.3414(2)
N8_2 N 0.1235(6) 0.6053(5) 0.7088(2)
O30_2 O 0.0385(4) 0.6228(4) 0.73512(19)
O31_2 O 0.2119(4) 0.5713(4) 0.73845(18)
O32_2 O 0.1254(4) 0.6287(4) 0.6586(2)
N9 N 0.7878(5) 0.1518(5) 0.5384(2)
O33 O 0.6842(4) 0.1039(4) 0.5228(2)
O34 O 0.8103(4) 0.2521(3) 0.56253(18)
O35 O 0.8767(4) 0.1012(3) 0.53159(18)
N9_2 N 0.2122(5) 0.8482(5) 0.4616(2)
O33_2 O 0.3158(4) 0.8961(4) 0.4772(2)
O34_2 O 0.1897(4) 0.7479(3) 0.43747(18)
O35_2 O 0.1233(4) 0.8988(3) 0.46841(18)
loop_
_geom_bond_atom_site_label_1
_geom_bond_atom_site_label_2
_geom_bond_site_symmetry_1
_geom_bond_site_symmetry_2
C35 C27 1_555 1_555
O9 C35 1_555 1_555
O10 C35 1_555 1_555
La6 O10 1_555 1_555
H14 C26 1_555 1_555
C13 H7 1_555 1_555
C14 C13 1_555 1_555
H8 C14 1_555 1_555
C15 C14 1_555 1_555
C23 C15 1_555 1_555
H15 C28 1_555 1_555
C29 C28 1_555 1_555
C30 C29 1_555 1_555
C31 C30 1_555 1_555
H16 C31 1_555 1_555
C32 C31 1_555 1_555
C33 C32 1_555 1_555
H17 C33 1_555 1_555
C34 C33 1_555 1_555
H18 C34 1_555 1_555
C36 C32 1_555 1_555
N6 C30 1_555 1_555
O5 C23 1_555 1_555
O6 C23 1_555 1_555
O11 C36 1_555 1_555
O12 C36 1_555 1_555
La3 O11 1_555 1_555
La6 O12 1_555 1_555
C34 N6 1_555 1_555
C1 H1 1_555 1_555
C2 C1 1_555 1_555
H2 C2 1_555 1_555
C3 C2 1_555 1_555
C4 C3 1_555 1_555
H3 C4 1_555 1_555
C5 C4 1_555 1_555
C6 C5 1_555 1_555
C7 C6 1_555 1_555
H4 C7 1_555 1_555
C8 C7 1_555 1_555
C9 C8 1_555 1_555
H5 C9 1_555 1_555
C10 C9 1_555 1_555
H6 C10 1_555 1_555
C11 C3 1_555 1_555
C12 C8 1_555 1_555
H9 C16 1_555 1_555
C17 C16 1_555 1_555
C18 C17 1_555 1_555
C19 C18 1_555 1_555
H10 C19 1_555 1_555
C20 C19 1_555 1_555
C21 C20 1_555 1_555
H11 C21 1_555 1_555
C22 C21 1_555 1_555
H12 C22 1_555 1_555
C24 C20 1_555 1_555
C25 H13 1_555 1_555
Co1 N1 1_555 1_555
La3 O1 1_555 1_555
La8 O3 1_555 1_555
N1 C1 1_555 1_555
N2 C6 1_555 1_555
N4 C18 1_555 1_555
N5 C25 1_555 1_555
O1 C11 1_555 1_555
O2 C11 1_555 1_555
O3 C12 1_555 1_555
O4 C12 1_555 1_555
O7 C24 1_555 1_555
O8 C24 1_555 1_555
O13 La3 1_555 1_555
H19 O13 1_555 1_555
H20 O13 1_555 1_555
O14 La3 1_555 1_555
H21 O14 1_555 1_555
H22 O14 1_555 1_555
O15 La3 1_555 1_555
H23 O15 1_555 1_555
H24 O15 1_555 1_555
O16 La8 1_555 1_555
H25 O16 1_555 1_555
H26 O16 1_555 1_555
O17 La8 1_555 1_555
H27 O17 1_555 1_555
H28 O17 1_555 1_555
La6 O2 1_555 1_555
O19 La3 1_555 1_555
O24 La3 1_555 1_555
O26 La3 1_555 1_555
C5 N1 1_555 1_555
C10 N2 1_555 1_555
C17 N3 1_555 1_555
C22 N4 1_555 1_555
Co1 N2 1_555 1_555
Co1 N3 1_555 1_555
Co1 N4 1_555 1_555
Co1 N5 1_555 1_555
C1_2 H1_2 1_555 1_555
C2_2 C1_2 1_555 1_555
H2_2 C2_2 1_555 1_555
C3_2 C2_2 1_555 1_555
C4_2 C3_2 1_555 1_555
H3_2 C4_2 1_555 1_555
C5_2 C4_2 1_555 1_555
C6_2 C5_2 1_555 1_555
C7_2 C6_2 1_555 1_555
H4_2 C7_2 1_555 1_555
C8_2 C7_2 1_555 1_555
C9_2 C8_2 1_555 1_555
H5_2 C9_2 1_555 1_555
C10_2 C9_2 1_555 1_555
H6_2 C10_2 1_555 1_555
C11_2 C3_2 1_555 1_555
C12_2 C8_2 1_555 1_555
H9_2 C16_2 1_555 1_555
C17_2 C16_2 1_555 1_555
C18_2 C17_2 1_555 1_555
C19_2 C18_2 1_555 1_555
H10_2 C19_2 1_555 1_555
C20_2 C19_2 1_555 1_555
C21_2 C20_2 1_555 1_555
H11_2 C21_2 1_555 1_555
C22_2 C21_2 1_555 1_555
H12_2 C22_2 1_555 1_555
C24_2 C20_2 1_555 1_555
C25_2 H13_2 1_555 1_555
Co1_2 N1_2 1_555 1_555
La6 O1_2 1_555 1_555
La9 O3_2 1_555 1_555
N1_2 C1_2 1_555 1_555
N2_2 C6_2 1_555 1_555
N4_2 C18_2 1_555 1_555
N5_2 C25_2 1_555 1_555
O1_2 C11_2 1_555 1_555
O19 C11_2 1_555 1_555
O3_2 C12_2 1_555 1_555
O20 C12_2 1_555 1_555
O22 C24_2 1_555 1_555
O23 C24_2 1_555 1_555
O13_2 La6 1_555 1_555
H19_2 O13_2 1_555 1_555
H20_2 O13_2 1_555 1_555
O14_2 La6 1_555 1_555
H21_2 O14_2 1_555 1_555
H22_2 O14_2 1_555 1_555
O15_2 La6 1_555 1_555
H23_2 O15_2 1_555 1_555
H24_2 O15_2 1_555 1_555
O16_2 La9 1_555 1_555
H25_2 O16_2 1_555 1_555
H26_2 O16_2 1_555 1_555
O17_2 La9 1_555 1_555
H27_2 O17_2 1_555 1_555
H28_2 O17_2 1_555 1_555
O25 La6 1_555 1_555
C5_2 N1_2 1_555 1_555
C10_2 N2_2 1_555 1_555
C17_2 N3_2 1_555 1_555
C22_2 N4_2 1_555 1_555
Co1_2 N2_2 1_555 1_555
Co1_2 N3_2 1_555 1_555
Co1_2 N4_2 1_555 1_555
Co1_2 N5_2 1_555 1_555
C13_2 H7_2 1_555 1_555
C14_2 C13_2 1_555 1_555
H8_2 C14_2 1_555 1_555
C15_2 C14_2 1_555 1_555
C23_2 C15_2 1_555 1_555
H15_2 C28_2 1_555 1_555
C29_2 C28_2 1_555 1_555
C30_2 C29_2 1_555 1_555
C31_2 C30_2 1_555 1_555
H16_2 C31_2 1_555 1_555
C32_2 C31_2 1_555 1_555
C33_2 C32_2 1_555 1_555
H17_2 C33_2 1_555 1_555
C34_2 C33_2 1_555 1_555
H18_2 C34_2 1_555 1_555
C36_2 C32_2 1_555 1_555
N6_2 C30_2 1_555 1_555
O21 C23_2 1_555 1_555
O6_2 C23_2 1_555 1_555
O25 C36_2 1_555 1_555
O26 C36_2 1_555 1_555
C34_2 N6_2 1_555 1_555
H14_2 C26_2 1_555 1_555
C35_2 C27_2 1_555 1_555
O9_2 C35_2 1_555 1_555
O24 C35_2 1_555 1_555
O28 N7 1_555 1_555
O29 N7 1_555 1_555
O28_2 N7_2 1_555 1_555
O29_2 N7_2 1_555 1_555
N8 O30 1_555 1_555
O31 N8 1_555 1_555
O32 N8 1_555 1_555
N8_2 O30_2 1_555 1_555
O31_2 N8_2 1_555 1_555
O32_2 N8_2 1_555 1_555
N9 O33 1_555 1_555
O34 N9 1_555 1_555
O35 N9 1_555 1_555
N9_2 O33_2 1_555 1_555
O34_2 N9_2 1_555 1_555
O35_2 N9_2 1_555 1_555

#END
