
###############################################################################
#
# This file contains modified crystal structure data generated from the
# MOF subset of the Cambridge Structural Database (CSD) v543 
# hosted by the Cambridge Crystallographic Data Centre (CCDC).
#
# This work is licensed under the Creative Commons
# Attribution-NonCommercial-ShareAlike 4.0 International License.
# To view a copy of this license, visit
# http://creativecommons.org/licenses/by-nc-sa/4.0/
# or send a letter to
# Creative Commons, PO Box 1866, Mountain View, CA 94042, USA.
#
# CIF created using the CSD Python API on 29 September 2022
# The structure has been converted into the P1 space group
# The structure has a 3D framework
# The original CSD entry TANBER is in the triclinic crystal system
# The framework has been calculated to contain at least 10.0% void space
# The void calculation uses a probe of radius 1.32A, grid spacing 0.4
# The framework is charged, counterions have been retained in the structure
#
###############################################################################

data_TANBER
_chemical_formula_moiety         '(C72 H60 Co2 N18 O54 Sm4)n'
_symmetry_cell_setting           triclinic
_symmetry_space_group_name_H-M   'P 1'
_symmetry_Int_Tables_number      1
_space_group_name_Hall           'P 1'
loop_
_symmetry_equiv_pos_site_id
_symmetry_equiv_pos_as_xyz
1 x,y,z
_cell_length_a                   11.2397(8)
_cell_length_b                   12.4964(9)
_cell_length_c                   22.3020(16)
_cell_angle_alpha                102.1140(10)
_cell_angle_beta                 103.410(2)
_cell_angle_gamma                95.5970(10)
_cell_volume                     2943.78
loop_
_atom_site_label
_atom_site_type_symbol
_atom_site_fract_x
_atom_site_fract_y
_atom_site_fract_z
C27 C 0.0709(4) 0.0969(4) 0.3819(2)
C35 C 0.1926(4) 0.1710(4) 0.4176(2)
O9 O 0.2866(3) 0.1260(3) 0.42873(14)
O10 O 0.1951(3) 0.2735(2) 0.43871(14)
Sm6 Sm 0.30133(2) 0.446586(17) 0.451221(10)
Sm8 Sm 0.04029(2) 0.368468(18) 0.050589(10)
C26 C 0.0656(4) 0.9928(4) 0.3469(2)
H14 H 0.1367 0.9599 0.3487
C13 C 0.7168(4) 0.1080(3) 0.1971(2)
H7 H 0.6812 0.1509 0.2254
C14 C 0.7622(4) 0.1524(4) 0.15716(19)
H8 H 0.7614 0.2274 0.1592
C15 C 0.8125(4) 0.0898(3) 0.1111(2)
C23 C 0.8668(4) 0.1429(4) 0.0682(2)
C28 C 0.9562(4) 0.1455(4) 0.38622(19)
H15 H 0.9582 0.2142 0.4128
C29 C 0.8470(4) 0.0820(3) 0.3483(2)
C30 C 0.7242(4) 0.1145(4) 0.35023(19)
C31 C 0.7017(4) 0.2021(4) 0.3891(2)
H16 H 0.7676 0.2498 0.4189
C32 C 0.5775(4) 0.2248(3) 0.38592(18)
C33 C 0.4826(4) 0.1533(4) 0.3390(2)
H17 H 0.4018 0.1677 0.3345
C34 C 0.5045(4) 0.0625(4) 0.2993(2)
H18 H 0.4394 0.0154 0.2686
C36 C 0.5423(4) 0.3208(4) 0.4280(2)
N6 N 0.6237(3) 0.0416(3) 0.30531(15)
O5 O 0.9084(3) 0.2449(2) 0.08176(14)
O6 O 0.8714(3) 0.0764(3) 0.01641(15)
O11 O 0.6364(3) 0.3767(2) 0.47075(14)
O12 O 0.4443(3) 0.3533(2) 0.41319(13)
Sm3 Sm 0.69867(2) 0.553414(17) 0.548779(10)
C1 C 0.6990(4) 0.8268(4) 0.3710(2)
H1 H 0.7756 0.8717 0.3885
C2 C 0.6520(5) 0.7595(4) 0.4082(2)
H2 H 0.6944 0.7659 0.4502
C3 C 0.5465(4) 0.6875(3) 0.38188(19)
C4 C 0.4793(4) 0.6893(3) 0.31740(18)
H3 H 0.4055 0.6412 0.2977
C5 C 0.5226(4) 0.7593(3) 0.28625(19)
C6 C 0.4661(4) 0.7685(3) 0.22139(19)
C7 C 0.3603(4) 0.6932(4) 0.1793(2)
H4 H 0.3268 0.6334 0.1920
C8 C 0.3070(4) 0.7100(4) 0.1185(2)
C9 C 0.3567(4) 0.8005(4) 0.1049(2)
H5 H 0.3184 0.8186 0.0675
C10 C 0.4624(4) 0.8685(4) 0.1440(2)
H6 H 0.4982 0.9260 0.1303
C11 C 0.4950(4) 0.6077(3) 0.41475(19)
C12 C 0.1946(4) 0.6314(4) 0.0751(2)
C16 C 0.8173(4) 0.9805(4) 0.1096(2)
H9 H 0.8489 0.9370 0.0795
C17 C 0.7733(4) 0.9349(3) 0.1544(2)
C18 C 0.7706(4) 0.8179(3) 0.1562(2)
C19 C 0.8164(4) 0.7396(4) 0.1150(2)
H10 H 0.8426 0.7583 0.0814
C20 C 0.8216(4) 0.6353(4) 0.1255(2)
C21 C 0.7938(4) 0.6103(3) 0.1772(2)
H11 H 0.8022 0.5420 0.1868
C22 C 0.7519(4) 0.6934(3) 0.21525(19)
H12 H 0.7322 0.6747 0.2504
C24 C 0.8783(4) 0.5605(3) 0.08440(18)
C25 C 0.9522(4) 0.9367(3) 0.3083(2)
H13 H 0.9489 0.8690 0.2804
Co1 Co 0.67802(5) 0.91368(4) 0.25714(3)
N1 N 0.6329(4) 0.8266(3) 0.30963(16)
N2 N 0.5157(3) 0.8528(3) 0.20256(17)
N3 N 0.7218(3) 0.9925(3) 0.19720(16)
N4 N 0.7357(3) 0.7930(3) 0.20992(17)
N5 N 0.8446(3) 0.9791(3) 0.31040(16)
O1 O 0.5703(3) 0.5899(3) 0.46191(13)
O2 O 0.3804(3) 0.5679(2) 0.39940(14)
O3 O 0.1607(3) 0.5489(2) 0.09138(14)
O4 O 0.1444(3) 0.6594(3) 0.02854(14)
O7 O 0.9047(3) 0.5843(2) 0.03698(13)
O8 O 0.9089(3) 0.4729(2) 0.10363(14)
O13 O 0.7982(3) 0.6335(3) 0.66243(14)
H19 H 0.7423 0.6745 0.6816
H20 H 0.8733 0.6824 0.6669
O14 O 0.8682(3) 0.4601(3) 0.58543(14)
H21 H 0.8390 0.3997 0.6018
H22 H 0.9311 0.5115 0.6186
O15 O 0.8267(3) 0.5459(3) 0.47363(15)
H23 H 0.8820 0.6149 0.4838
H24 H 0.7739 0.5337 0.4312
O16 O 0.1195(3) 0.3719(3) 0.16284(14)
H25 H 0.0510 0.3564 0.1807
H26 H 0.1657 0.4440 0.1853
O17 O 0.2458(3) 0.3224(3) 0.06944(16)
H27 H 0.2562 0.2759 0.0312
H28 H 0.3053 0.3893 0.0820
O19 O 0.6196(3) 0.4321(2) 0.60060(14)
O24 O 0.8049(3) 0.7265(2) 0.56129(14)
O26 O 0.5557(3) 0.6467(2) 0.58681(13)
O18 O 0.0206(3) 0.1898(3) 0.97423(16)
O22 O 0.0953(3) 0.4157(2) 0.96302(13)
Sm9 Sm 0.95971(2) 0.631532(18) 0.949411(10)
H29 H 0.9814 0.1993 0.9343
H30 H 0.9824 0.1380 0.9769
O20 O 0.8556(3) 0.3406(3) 0.97146(14)
H29_2 H 0.0186 0.8007 0.0657
H30_2 H 0.0176 0.8620 0.0231
O21 O 0.0916(3) 0.7551(2) 0.91824(14)
O23 O 0.0911(3) 0.5271(2) 0.89637(14)
O18_2 O 0.9794(3) 0.8102(3) 0.02577(16)
C1_2 C 0.3010(4) 0.1732(4) 0.6290(2)
H1_2 H 0.2244 0.1283 0.6115
C2_2 C 0.3480(5) 0.2405(4) 0.5918(2)
H2_2 H 0.3056 0.2341 0.5498
C3_2 C 0.4535(4) 0.3125(3) 0.61812(19)
C4_2 C 0.5207(4) 0.3107(3) 0.68260(18)
H3_2 H 0.5945 0.3588 0.7023
C5_2 C 0.4774(4) 0.2407(3) 0.71375(19)
C6_2 C 0.5339(4) 0.2315(3) 0.77861(19)
C7_2 C 0.6397(4) 0.3068(4) 0.8207(2)
H4_2 H 0.6732 0.3666 0.8080
C8_2 C 0.6930(4) 0.2900(4) 0.8815(2)
C9_2 C 0.6433(4) 0.1995(4) 0.8951(2)
H5_2 H 0.6816 0.1814 0.9325
C10_2 C 0.5376(4) 0.1315(4) 0.8560(2)
H6_2 H 0.5018 0.0740 0.8697
C11_2 C 0.5050(4) 0.3923(3) 0.58525(19)
C12_2 C 0.8054(4) 0.3686(4) 0.9249(2)
C16_2 C 0.1827(4) 0.0195(4) 0.8904(2)
H9_2 H 0.1511 0.0630 0.9205
C17_2 C 0.2267(4) 0.0651(3) 0.8456(2)
C18_2 C 0.2294(4) 0.1821(3) 0.8438(2)
C19_2 C 0.1836(4) 0.2604(4) 0.8850(2)
H10_2 H 0.1574 0.2417 0.9186
C20_2 C 0.1784(4) 0.3647(4) 0.8745(2)
C21_2 C 0.2062(4) 0.3897(3) 0.8228(2)
H11_2 H 0.1978 0.4580 0.8132
C22_2 C 0.2481(4) 0.3066(3) 0.78475(19)
H12_2 H 0.2678 0.3253 0.7496
C24_2 C 0.1217(4) 0.4395(3) 0.91560(18)
C25_2 C 0.0478(4) 0.0633(3) 0.6917(2)
H13_2 H 0.0511 0.1310 0.7196
Co1_2 Co 0.32198(5) 0.08632(4) 0.74286(3)
N1_2 N 0.3671(4) 0.1734(3) 0.69037(16)
N2_2 N 0.4843(3) 0.1472(3) 0.79744(17)
N3_2 N 0.2782(3) 0.0075(3) 0.80280(16)
N4_2 N 0.2643(3) 0.2070(3) 0.79008(17)
N5_2 N 0.1554(3) 0.0209(3) 0.68960(16)
O1_2 O 0.4297(3) 0.4101(3) 0.53809(13)
O3_2 O 0.8393(3) 0.4511(2) 0.90862(14)
O13_2 O 0.2018(3) 0.3665(3) 0.33757(14)
H19_2 H 0.2577 0.3255 0.3184
H20_2 H 0.1267 0.3176 0.3331
O14_2 O 0.1318(3) 0.5399(3) 0.41457(14)
H21_2 H 0.1610 0.6003 0.3982
H22_2 H 0.0689 0.4885 0.3814
O15_2 O 0.1733(3) 0.4541(3) 0.52637(15)
H23_2 H 0.1180 0.3851 0.5162
H24_2 H 0.2261 0.4663 0.5688
O16_2 O 0.8805(3) 0.6281(3) 0.83716(14)
H25_2 H 0.9490 0.6436 0.8193
H26_2 H 0.8343 0.5560 0.8147
O17_2 O 0.7542(3) 0.6776(3) 0.93056(16)
H27_2 H 0.7438 0.7241 0.9688
H28_2 H 0.6947 0.6107 0.9180
O25 O 0.3636(3) 0.6233(2) 0.52925(14)
C13_2 C 0.2832(4) 0.8920(3) 0.8029(2)
H7_2 H 0.3188 0.8491 0.7746
C14_2 C 0.2378(4) 0.8476(4) 0.84284(19)
H8_2 H 0.2386 0.7726 0.8408
C15_2 C 0.1875(4) 0.9102(3) 0.8889(2)
C23_2 C 0.1332(4) 0.8571(4) 0.9318(2)
C28_2 C 0.0438(4) 0.8545(4) 0.61378(19)
H15_2 H 0.0418 0.7858 0.5872
C29_2 C 0.1530(4) 0.9180(3) 0.6517(2)
C30_2 C 0.2758(4) 0.8855(4) 0.64977(19)
C31_2 C 0.2983(4) 0.7979(4) 0.6109(2)
H16_2 H 0.2324 0.7502 0.5811
C32_2 C 0.4225(4) 0.7752(3) 0.61408(18)
C33_2 C 0.5174(4) 0.8467(4) 0.6610(2)
H17_2 H 0.5982 0.8323 0.6655
C34_2 C 0.4955(4) 0.9375(4) 0.7007(2)
H18_2 H 0.5606 0.9846 0.7314
C36_2 C 0.4577(4) 0.6792(4) 0.5720(2)
N6_2 N 0.3763(3) 0.9584(3) 0.69469(15)
O6_2 O 0.1286(3) 0.9236(3) 0.98359(15)
C26_2 C 0.9344(4) 0.0072(4) 0.6531(2)
H14_2 H 0.8633 0.0401 0.6513
C27_2 C 0.9291(4) 0.9031(4) 0.6181(2)
C35_2 C 0.8074(4) 0.8290(4) 0.5824(2)
O9_2 O 0.7134(3) 0.8740(3) 0.57127(14)
O27 O 0.0978(3) 0.0517(3) 0.20283(16)
N7 N 0.1385(4) 0.9639(3) 0.20082(19)
O28 O 0.0906(3) 0.8828(3) 0.15580(17)
O29 O 0.2248(3) 0.9541(3) 0.24208(15)
N7_2 N 0.8615(4) 0.0361(3) 0.79918(19)
O28_2 O 0.9094(3) 0.1172(3) 0.84420(17)
O29_2 O 0.7752(3) 0.0459(3) 0.75792(15)
O27_2 O 0.9022(3) 0.9483(3) 0.79717(16)
N8 N 0.8762(4) 0.3953(4) 0.2908(2)
O30 O 0.9619(3) 0.3765(3) 0.26503(15)
O31 O 0.7880(3) 0.4287(3) 0.26147(14)
O32 O 0.8744(3) 0.3712(3) 0.34147(16)
N8_2 N 0.1238(4) 0.6047(4) 0.7092(2)
O30_2 O 0.0381(3) 0.6235(3) 0.73497(15)
O31_2 O 0.2120(3) 0.5713(3) 0.73853(14)
O32_2 O 0.1256(3) 0.6288(3) 0.65853(16)
N9 N 0.7879(4) 0.1507(4) 0.53857(19)
O33 O 0.6828(3) 0.1033(3) 0.52279(16)
O34 O 0.8108(3) 0.2519(3) 0.56228(15)
O35 O 0.8761(3) 0.1015(3) 0.53161(14)
N9_2 N 0.2121(4) 0.8493(4) 0.46143(19)
O33_2 O 0.3172(3) 0.8967(3) 0.47721(16)
O34_2 O 0.1892(3) 0.7481(3) 0.43772(15)
O35_2 O 0.1239(3) 0.8985(3) 0.46839(14)
loop_
_geom_bond_atom_site_label_1
_geom_bond_atom_site_label_2
_geom_bond_site_symmetry_1
_geom_bond_site_symmetry_2
C35 C27 1_555 1_555
O9 C35 1_555 1_555
O10 C35 1_555 1_555
Sm6 O10 1_555 1_555
H14 C26 1_555 1_555
C13 H7 1_555 1_555
C14 C13 1_555 1_555
H8 C14 1_555 1_555
C15 C14 1_555 1_555
C23 C15 1_555 1_555
H15 C28 1_555 1_555
C29 C28 1_555 1_555
C30 C29 1_555 1_555
C31 C30 1_555 1_555
H16 C31 1_555 1_555
C32 C31 1_555 1_555
C33 C32 1_555 1_555
H17 C33 1_555 1_555
C34 C33 1_555 1_555
H18 C34 1_555 1_555
C36 C32 1_555 1_555
N6 C30 1_555 1_555
O5 C23 1_555 1_555
O6 C23 1_555 1_555
O11 C36 1_555 1_555
O12 C36 1_555 1_555
Sm3 O11 1_555 1_555
Sm6 O12 1_555 1_555
C34 N6 1_555 1_555
C1 H1 1_555 1_555
C2 C1 1_555 1_555
H2 C2 1_555 1_555
C3 C2 1_555 1_555
C4 C3 1_555 1_555
H3 C4 1_555 1_555
C5 C4 1_555 1_555
C6 C5 1_555 1_555
C7 C6 1_555 1_555
H4 C7 1_555 1_555
C8 C7 1_555 1_555
C9 C8 1_555 1_555
H5 C9 1_555 1_555
C10 C9 1_555 1_555
H6 C10 1_555 1_555
C11 C3 1_555 1_555
C12 C8 1_555 1_555
H9 C16 1_555 1_555
C17 C16 1_555 1_555
C18 C17 1_555 1_555
C19 C18 1_555 1_555
H10 C19 1_555 1_555
C20 C19 1_555 1_555
C21 C20 1_555 1_555
H11 C21 1_555 1_555
C22 C21 1_555 1_555
H12 C22 1_555 1_555
C24 C20 1_555 1_555
C25 H13 1_555 1_555
Co1 N1 1_555 1_555
N1 C1 1_555 1_555
N2 C6 1_555 1_555
N4 C18 1_555 1_555
N5 C25 1_555 1_555
O1 C11 1_555 1_555
O2 C11 1_555 1_555
O3 C12 1_555 1_555
O4 C12 1_555 1_555
O7 C24 1_555 1_555
O8 C24 1_555 1_555
O13 H19 1_555 1_555
H20 O13 1_555 1_555
O14 H21 1_555 1_555
H22 O14 1_555 1_555
O15 H23 1_555 1_555
H24 O15 1_555 1_555
O16 H25 1_555 1_555
H26 O16 1_555 1_555
O17 H27 1_555 1_555
H28 O17 1_555 1_555
Sm3 O1 1_555 1_555
Sm8 O3 1_555 1_555
O19 Sm3 1_555 1_555
O24 Sm3 1_555 1_555
O26 Sm3 1_555 1_555
Sm6 O2 1_555 1_555
C5 N1 1_555 1_555
C10 N2 1_555 1_555
C17 N3 1_555 1_555
C22 N4 1_555 1_555
Co1 N2 1_555 1_555
Co1 N3 1_555 1_555
Co1 N4 1_555 1_555
Co1 N5 1_555 1_555
O13 Sm3 1_555 1_555
O14 Sm3 1_555 1_555
O15 Sm3 1_555 1_555
O16 Sm8 1_555 1_555
O17 Sm8 1_555 1_555
C1_2 H1_2 1_555 1_555
C2_2 C1_2 1_555 1_555
H2_2 C2_2 1_555 1_555
C3_2 C2_2 1_555 1_555
C4_2 C3_2 1_555 1_555
H3_2 C4_2 1_555 1_555
C5_2 C4_2 1_555 1_555
C6_2 C5_2 1_555 1_555
C7_2 C6_2 1_555 1_555
H4_2 C7_2 1_555 1_555
C8_2 C7_2 1_555 1_555
C9_2 C8_2 1_555 1_555
H5_2 C9_2 1_555 1_555
C10_2 C9_2 1_555 1_555
H6_2 C10_2 1_555 1_555
C11_2 C3_2 1_555 1_555
C12_2 C8_2 1_555 1_555
H9_2 C16_2 1_555 1_555
C17_2 C16_2 1_555 1_555
C18_2 C17_2 1_555 1_555
C19_2 C18_2 1_555 1_555
H10_2 C19_2 1_555 1_555
C20_2 C19_2 1_555 1_555
C21_2 C20_2 1_555 1_555
H11_2 C21_2 1_555 1_555
C22_2 C21_2 1_555 1_555
H12_2 C22_2 1_555 1_555
C24_2 C20_2 1_555 1_555
C25_2 H13_2 1_555 1_555
Co1_2 N1_2 1_555 1_555
N1_2 C1_2 1_555 1_555
N2_2 C6_2 1_555 1_555
N4_2 C18_2 1_555 1_555
N5_2 C25_2 1_555 1_555
O1_2 C11_2 1_555 1_555
O19 C11_2 1_555 1_555
O3_2 C12_2 1_555 1_555
O20 C12_2 1_555 1_555
O22 C24_2 1_555 1_555
O23 C24_2 1_555 1_555
O13_2 H19_2 1_555 1_555
H20_2 O13_2 1_555 1_555
O14_2 H21_2 1_555 1_555
H22_2 O14_2 1_555 1_555
O15_2 H23_2 1_555 1_555
H24_2 O15_2 1_555 1_555
O16_2 H25_2 1_555 1_555
H26_2 O16_2 1_555 1_555
O17_2 H27_2 1_555 1_555
H28_2 O17_2 1_555 1_555
Sm6 O1_2 1_555 1_555
Sm9 O3_2 1_555 1_555
O25 Sm6 1_555 1_555
C5_2 N1_2 1_555 1_555
C10_2 N2_2 1_555 1_555
C17_2 N3_2 1_555 1_555
C22_2 N4_2 1_555 1_555
Co1_2 N2_2 1_555 1_555
Co1_2 N3_2 1_555 1_555
Co1_2 N4_2 1_555 1_555
Co1_2 N5_2 1_555 1_555
O13_2 Sm6 1_555 1_555
O14_2 Sm6 1_555 1_555
O15_2 Sm6 1_555 1_555
O16_2 Sm9 1_555 1_555
O17_2 Sm9 1_555 1_555
C13_2 H7_2 1_555 1_555
C14_2 C13_2 1_555 1_555
H8_2 C14_2 1_555 1_555
C15_2 C14_2 1_555 1_555
C23_2 C15_2 1_555 1_555
H15_2 C28_2 1_555 1_555
C29_2 C28_2 1_555 1_555
C30_2 C29_2 1_555 1_555
C31_2 C30_2 1_555 1_555
H16_2 C31_2 1_555 1_555
C32_2 C31_2 1_555 1_555
C33_2 C32_2 1_555 1_555
H17_2 C33_2 1_555 1_555
C34_2 C33_2 1_555 1_555
H18_2 C34_2 1_555 1_555
C36_2 C32_2 1_555 1_555
N6_2 C30_2 1_555 1_555
O21 C23_2 1_555 1_555
O6_2 C23_2 1_555 1_555
O25 C36_2 1_555 1_555
O26 C36_2 1_555 1_555
C34_2 N6_2 1_555 1_555
H14_2 C26_2 1_555 1_555
C35_2 C27_2 1_555 1_555
O9_2 C35_2 1_555 1_555
O24 C35_2 1_555 1_555
O28 N7 1_555 1_555
O29 N7 1_555 1_555
O28_2 N7_2 1_555 1_555
O29_2 N7_2 1_555 1_555
N8 O30 1_555 1_555
O31 N8 1_555 1_555
O32 N8 1_555 1_555
N8_2 O30_2 1_555 1_555
O31_2 N8_2 1_555 1_555
O32_2 N8_2 1_555 1_555
N9 O33 1_555 1_555
O34 N9 1_555 1_555
O35 N9 1_555 1_555
N9_2 O33_2 1_555 1_555
O34_2 N9_2 1_555 1_555
O35_2 N9_2 1_555 1_555

#END
