
###############################################################################
#
# This file contains modified crystal structure data generated from the
# MOF subset of the Cambridge Structural Database (CSD) v543 
# hosted by the Cambridge Crystallographic Data Centre (CCDC).
#
# This work is licensed under the Creative Commons
# Attribution-NonCommercial-ShareAlike 4.0 International License.
# To view a copy of this license, visit
# http://creativecommons.org/licenses/by-nc-sa/4.0/
# or send a letter to
# Creative Commons, PO Box 1866, Mountain View, CA 94042, USA.
#
# CIF created using the CSD Python API on 29 September 2022
# The structure has been converted into the P1 space group
# The structure has a 3D framework
# The original CSD entry TAPBIZ is in the triclinic crystal system
# The framework has been calculated to contain at least 10.0% void space
# The void calculation uses a probe of radius 1.32A, grid spacing 0.4
# The framework is charged, counterions have been retained in the structure
#
###############################################################################

data_TAPBIZ
_chemical_formula_moiety         '(C112 H60 N6 O50 Tm6 4-)n'
_symmetry_cell_setting           triclinic
_symmetry_space_group_name_H-M   'P 1'
_symmetry_Int_Tables_number      1
_space_group_name_Hall           'P 1'
loop_
_symmetry_equiv_pos_site_id
_symmetry_equiv_pos_as_xyz
1 x,y,z
_cell_length_a                   9.2560(8)
_cell_length_b                   15.8648(15)
_cell_length_c                   28.250(3)
_cell_angle_alpha                96.574(4)
_cell_angle_beta                 90.095(3)
_cell_angle_gamma                104.682(3)
_cell_volume                     3984.49
loop_
_atom_site_label
_atom_site_type_symbol
_atom_site_fract_x
_atom_site_fract_y
_atom_site_fract_z
Tm8 Tm 0.59694(4) 0.00545(2) 0.24509(2)
C1 C 0.4322(7) 0.6144(4) 0.2866(2)
C2 C 0.5262(6) 0.6864(4) 0.3214(2)
C3 C 0.6063(8) 0.7636(4) 0.3038(2)
H1 H 0.601144 0.768697 0.271459
C4 C 0.6929(9) 0.8320(5) 0.3346(3)
C5 C 0.7012(10) 0.8241(5) 0.3832(3)
H2 H 0.759530 0.869843 0.403982
C6 C 0.6220(8) 0.7479(4) 0.4004(2)
H3 H 0.628225 0.742935 0.432739
C7 C 0.5330(7) 0.6784(4) 0.3700(2)
C8 C 0.7840(13) 0.9142(6) 0.3171(4)
C9 C 0.3805(7) 0.6011(4) 0.43255(19)
H4 H 0.366265 0.654443 0.446227
C10 C 0.4620(7) 0.5967(4) 0.3910(2)
C11 C 0.4304(6) 0.4484(4) 0.38995(18)
C12 C 0.3456(7) 0.4463(4) 0.4312(2)
H5 H 0.306452 0.393750 0.443612
C13 C 0.3212(6) 0.5246(4) 0.45304(19)
C14 C 0.4803(6) 0.3699(4) 0.3703(2)
C15 C 0.4836(6) 0.3440(4) 0.3207(2)
C16 C 0.5581(7) 0.2810(4) 0.3054(2)
H6 H 0.564749 0.265405 0.272932
C17 C 0.6235(7) 0.2404(4) 0.3378(2)
C18 C 0.6121(8) 0.2623(4) 0.3856(2)
H7 H 0.652626 0.233912 0.407217
C19 C 0.5401(7) 0.3269(4) 0.4022(2)
H8 H 0.532304 0.341050 0.434832
C20 C 0.7179(8) 0.1770(5) 0.3214(2)
C21 C 0.2408(6) 0.5272(4) 0.49886(19)
C22 C 0.2459(6) 0.4669(4) 0.53035(19)
H9 H 0.296772 0.423924 0.522358
C23 C 0.1757(7) 0.4702(4) 0.5737(2)
H10 H 0.180144 0.429526 0.594568
C24 C 0.0993(6) 0.5333(4) 0.58613(19)
C25 C 0.0904(7) 0.5924(4) 0.5542(2)
H11 H 0.036371 0.633900 0.561732
C26 C 0.1612(7) 0.5897(4) 0.5112(2)
H12 H 0.155731 0.630117 0.490294
C27 C 0.0265(6) 0.5385(4) 0.6328(2)
C28 C 0.4026(6) 0.3803(4) 0.28552(19)
C42 C 0.1018(6) 0.6233(4) 0.1348(2)
C43 C 0.2101(7) 0.6743(4) 0.1088(2)
H18 H 0.209383 0.661328 0.075821
C44 C 0.3198(8) 0.7447(4) 0.1312(2)
H19 H 0.392205 0.777831 0.113316
C45 C 0.3211(7) 0.7652(4) 0.1800(2)
C46 C 0.2155(6) 0.7140(4) 0.2064(2)
H20 H 0.218717 0.726699 0.239433
C47 C 0.1064(6) 0.6450(4) 0.18491(19)
C49 C 0.4293(8) 0.8463(5) 0.2038(3)
O1 O 0.1752(4) 0.4433(3) 0.20179(14)
H25 H 0.107724 0.452097 0.183088
H26 H 0.174865 0.389085 0.193468
N1 N 0.4878(5) 0.5220(3) 0.37023(15)
O2 O 0.2707(4) 0.3846(3) 0.29448(14)
O3 O 0.4660(5) 0.4018(3) 0.24813(14)
O4 O 0.3051(5) 0.5765(3) 0.29921(15)
O5 O 0.4875(5) 0.5975(3) 0.24685(14)
O6 O 0.7401(7) 0.9323(4) 0.2763(2)
O7 O 0.8971(10) 0.9591(5) 0.3412(3)
O8 O 0.8026(7) 0.1636(4) 0.3528(2)
O9 O 0.7003(5) 0.1420(3) 0.27964(16)
O11 O 0.0316(5) 0.4796(3) 0.66028(14)
O14 O 0.0199(4) 0.5623(3) 0.24893(13)
O20 O 0.4009(6) 0.8766(3) 0.24381(19)
O21 O 0.5451(6) 0.8814(4) 0.1832(2)
Tm1 Tm 0.10688(3) 0.46225(2) 0.28084(2)
O31 O 0.0392(5) 0.4045(3) 0.35404(15)
Tm5 Tm 0.62818(3) 0.51042(2) 0.21695(2)
C29 C 0.8324(6) 0.3621(4) 0.2065(2)
C30 C 0.8598(6) 0.2952(3) 0.1683(2)
C31 C 0.8809(6) 0.3117(4) 0.12075(19)
C32 C 0.9015(8) 0.2436(4) 0.0871(2)
H13 H 0.920617 0.254603 0.055777
C33 C 0.8943(8) 0.1615(4) 0.0992(2)
H14 H 0.906838 0.117315 0.076150
C34 C 0.8676(7) 0.1443(4) 0.1466(2)
C35 C 0.8532(7) 0.2116(4) 0.1812(2)
H15 H 0.839189 0.200972 0.212754
C36 C 0.8516(8) 0.0516(4) 0.1596(2)
C37 C 0.8888(6) 0.3986(4) 0.10406(19)
C38 C 0.8069(6) 0.3997(4) 0.0632(2)
H16 H 0.745920 0.347863 0.047804
C39 C 0.8171(6) 0.4798(4) 0.0452(2)
C40 C 0.9128(6) 0.5533(4) 0.06956(19)
H17 H 0.924603 0.607729 0.058690
C41 C 0.9916(6) 0.5463(4) 0.11030(19)
C48 C 0.9869(6) 0.5976(3) 0.21486(19)
C50 C 0.7338(6) 0.4841(4) 0.0011(2)
H21 H 0.562803 0.378043 0.005268
N2 N 0.9796(5) 0.4685(3) 0.12757(16)
O10 O 0.9608(5) 0.5955(3) 0.64596(15)
O12 O 0.8994(5) 0.3703(3) 0.24684(14)
O13 O 0.7447(5) 0.4066(3) 0.19705(15)
O15 O 0.8534(4) 0.5987(3) 0.20483(14)
O16 O 0.7967(5) 0.0372(3) 0.19965(16)
O22 O 0.7104(4) 0.5382(3) 0.29696(13)
H27 H 0.676176 0.579682 0.311617
H28 H 0.806335 0.559376 0.298939
O23 O 0.5085(10) 0.0005(5) 0.3251(3)
O24 O 0.3740(8) 0.0495(5) 0.2713(3)
O25 O 0.4948(8) 0.0719(6) 0.1870(2)
H29 H 0.426904 0.114474 0.191888
H30 H 0.507163 0.064908 0.150584
N3 N 0.3874(16) 0.0305(7) 0.3138(5)
O26 O 0.2846(18) 0.0388(11) 0.3442(5)
O32 O 0.9684(5) 0.5204(3) 0.33972(14)
O33 O 0.6084(5) 0.5709(3) 0.14501(14)
O34 O 0.4428(4) 0.4497(3) 0.15642(13)
Tm4 Tm 0.89312(3) 0.53775(2) 0.71916(2)
C51 C 0.6018(7) 0.4221(4) 0.9863(2)
C52 C 0.5270(6) 0.4239(4) 0.9445(2)
H22 H 0.438881 0.381387 0.935578
C53 C 0.5826(6) 0.4889(4) 0.91545(19)
C54 C 0.7122(6) 0.5537(4) 0.9299(2)
H23 H 0.748305 0.599088 0.911485
C55 C 0.7872(6) 0.5502(4) 0.9721(2)
H24 H 0.875010 0.592888 0.981209
C56 C 0.5063(6) 0.4893(4) 0.8691(2)
O18 O 0.3916(5) 0.4291(3) 0.85499(14)
O19 O 0.5572(4) 0.5503(3) 0.84358(13)
Tm6 Tm 0.37182(3) 0.48958(2) 0.78305(2)
O17 O 0.8986(8) 0.9999(3) 0.1324(2)
O17_2 O 0.1014(8) 0.0001(3) 0.8676(2)
O29 O 0.2599(7) 0.0677(4) 0.7237(2)
O35 O 0.5991(6) 0.1234(3) 0.75619(19)
O36 O 0.4549(6) 0.1186(4) 0.8168(2)
C51_2 C 0.3982(7) 0.5779(4) 0.0137(2)
C52_2 C 0.4730(6) 0.5761(4) 0.0555(2)
H22_2 H 0.561119 0.618613 0.064422
C53_2 C 0.4174(6) 0.5111(4) 0.08455(19)
C54_2 C 0.2878(6) 0.4463(4) 0.0701(2)
H23_2 H 0.251695 0.400912 0.088515
C55_2 C 0.2128(6) 0.4498(4) 0.0279(2)
H24_2 H 0.124990 0.407112 0.018791
C56_2 C 0.4937(6) 0.5107(4) 0.1309(2)
C29_2 C 0.1676(6) 0.6379(4) 0.7935(2)
C30_2 C 0.1402(6) 0.7048(3) 0.8317(2)
C31_2 C 0.1191(6) 0.6883(4) 0.87925(19)
C32_2 C 0.0985(8) 0.7564(4) 0.9129(2)
H13_2 H 0.079383 0.745397 0.944223
C33_2 C 0.1057(8) 0.8385(4) 0.9008(2)
H14_2 H 0.093162 0.882685 0.923850
C34_2 C 0.1324(7) 0.8557(4) 0.8534(2)
C35_2 C 0.1468(7) 0.7884(4) 0.8188(2)
H15_2 H 0.160811 0.799028 0.787246
C36_2 C 0.1484(8) 0.9484(4) 0.8404(2)
C37_2 C 0.1112(6) 0.6014(4) 0.89594(19)
C38_2 C 0.1931(6) 0.6003(4) 0.9368(2)
H16_2 H 0.254080 0.652137 0.952196
C39_2 C 0.1829(6) 0.5202(4) 0.9548(2)
C40_2 C 0.0872(6) 0.4467(4) 0.93044(19)
H17_2 H 0.075397 0.392271 0.941310
C41_2 C 0.0084(6) 0.4537(4) 0.88970(19)
C48_2 C 0.0131(6) 0.4024(3) 0.78514(19)
C50_2 C 0.2662(6) 0.5159(4) 0.9989(2)
H21_2 H 0.437197 0.621957 0.994732
N2_2 N 0.0204(5) 0.5315(3) 0.87243(16)
O12_2 O 0.1006(5) 0.6297(3) 0.75316(14)
O13_2 O 0.2553(5) 0.5934(3) 0.80295(15)
O15_2 O 0.1466(4) 0.4013(3) 0.79517(14)
O16_2 O 0.2033(5) 0.9628(3) 0.80035(16)
O22_2 O 0.2896(4) 0.4618(3) 0.70304(13)
H27_2 H 0.323824 0.420318 0.688383
H28_2 H 0.193665 0.440624 0.701061
O23_2 O 0.4915(10) 0.9995(5) 0.6749(3)
Tm3 Tm 0.40306(4) 0.99455(2) 0.75491(2)
O24_2 O 0.6260(8) 0.9505(5) 0.7287(3)
O25_2 O 0.5052(8) 0.9281(6) 0.8130(2)
H29_2 H 0.573096 0.885526 0.808112
H30_2 H 0.492837 0.935092 0.849416
N3_2 N 0.6126(16) 0.9695(7) 0.6862(5)
O26_2 O 0.7154(18) 0.9612(11) 0.6558(5)
O27 O 0.5340(5) 0.5982(3) 0.75187(14)
O28 O 0.5125(5) 0.4025(3) 0.75315(14)
O30 O 0.2997(5) 0.8580(3) 0.72036(16)
C1_2 C 0.5678(7) 0.3856(4) 0.7134(2)
C2_2 C 0.4738(6) 0.3136(4) 0.6786(2)
C3_2 C 0.3937(8) 0.2364(4) 0.6962(2)
H1_2 H 0.398856 0.231303 0.728541
C4_2 C 0.3071(9) 0.1680(5) 0.6654(3)
C5_2 C 0.2988(10) 0.1759(5) 0.6168(3)
H2_2 H 0.240470 0.130157 0.596018
C6_2 C 0.3780(8) 0.2521(4) 0.5996(2)
H3_2 H 0.371775 0.257065 0.567261
C7_2 C 0.4670(7) 0.3216(4) 0.6300(2)
C8_2 C 0.2160(13) 0.0858(6) 0.6829(4)
C9_2 C 0.6195(7) 0.3989(4) 0.56745(19)
H4_2 H 0.633735 0.345557 0.553773
C10_2 C 0.5380(7) 0.4033(4) 0.6090(2)
C11_2 C 0.5696(6) 0.5516(4) 0.61005(18)
C12_2 C 0.6544(7) 0.5537(4) 0.5688(2)
H5_2 H 0.693548 0.606250 0.556388
C13_2 C 0.6788(6) 0.4754(4) 0.54696(19)
C14_2 C 0.5197(6) 0.6301(4) 0.6297(2)
C15_2 C 0.5164(6) 0.6560(4) 0.6793(2)
C16_2 C 0.4419(7) 0.7190(4) 0.6946(2)
H6_2 H 0.435251 0.734595 0.727068
C17_2 C 0.3765(7) 0.7596(4) 0.6622(2)
C18_2 C 0.3879(8) 0.7377(4) 0.6144(2)
H7_2 H 0.347374 0.766088 0.592783
C19_2 C 0.4599(7) 0.6731(4) 0.5978(2)
H8_2 H 0.467696 0.658950 0.565168
C20_2 C 0.2821(8) 0.8230(5) 0.6786(2)
C21_2 C 0.7592(6) 0.4728(4) 0.50114(19)
C22_2 C 0.7541(6) 0.5331(4) 0.46965(19)
H9_2 H 0.703228 0.576076 0.477642
C23_2 C 0.8243(7) 0.5298(4) 0.4263(2)
H10_2 H 0.819856 0.570474 0.405432
C24_2 C 0.9007(6) 0.4667(4) 0.41387(19)
C25_2 C 0.9096(7) 0.4076(4) 0.4458(2)
H11_2 H 0.963629 0.366100 0.438268
C26_2 C 0.8388(7) 0.4103(4) 0.4888(2)
H12_2 H 0.844269 0.369883 0.509706
C27_2 C 0.9735(6) 0.4615(4) 0.3672(2)
C28_2 C 0.5974(6) 0.6197(4) 0.71448(19)
C42_2 C 0.8982(6) 0.3767(4) 0.8652(2)
C43_2 C 0.7899(7) 0.3257(4) 0.8912(2)
H18_2 H 0.790617 0.338672 0.924179
C44_2 C 0.6802(8) 0.2553(4) 0.8688(2)
H19_2 H 0.607795 0.222169 0.886684
C45_2 C 0.6789(7) 0.2348(4) 0.8200(2)
C46_2 C 0.7845(6) 0.2860(4) 0.7936(2)
H20_2 H 0.781283 0.273301 0.760567
C47_2 C 0.8936(6) 0.3550(4) 0.81509(19)
C49_2 C 0.5707(8) 0.1537(5) 0.7962(3)
O1_2 O 0.8248(4) 0.5567(3) 0.79821(14)
H25_2 H 0.892276 0.547903 0.816912
H26_2 H 0.825135 0.610915 0.806532
N1_2 N 0.5122(5) 0.4780(3) 0.62977(15)
O2_2 O 0.7293(4) 0.6154(3) 0.70552(14)
O4_2 O 0.6949(5) 0.4235(3) 0.70079(15)
O7_2 O 0.1029(10) 0.0409(5) 0.6588(3)
O8_2 O 0.1974(7) 0.8364(4) 0.6472(2)
O14_2 O 0.9801(4) 0.4377(3) 0.75107(13)
loop_
_geom_bond_atom_site_label_1
_geom_bond_atom_site_label_2
_geom_bond_site_symmetry_1
_geom_bond_site_symmetry_2
C1 C2 1_555 1_555
C2 C3 1_555 1_555
C3 H1 1_555 1_555
C4 C3 1_555 1_555
C5 C4 1_555 1_555
H2 C5 1_555 1_555
C6 C5 1_555 1_555
H3 C6 1_555 1_555
C7 C2 1_555 1_555
C8 C4 1_555 1_555
C9 H4 1_555 1_555
C10 C7 1_555 1_555
C11 C12 1_555 1_555
C12 H5 1_555 1_555
C13 C9 1_555 1_555
C14 C11 1_555 1_555
C15 C14 1_555 1_555
C16 C15 1_555 1_555
H6 C16 1_555 1_555
C17 C16 1_555 1_555
C18 C17 1_555 1_555
H7 C18 1_555 1_555
C19 C14 1_555 1_555
H8 C19 1_555 1_555
C20 C17 1_555 1_555
C21 C13 1_555 1_555
C22 C21 1_555 1_555
H9 C22 1_555 1_555
C23 C22 1_555 1_555
H10 C23 1_555 1_555
C24 C23 1_555 1_555
C25 C24 1_555 1_555
H11 C25 1_555 1_555
C26 C21 1_555 1_555
H12 C26 1_555 1_555
C27 C24 1_555 1_555
C28 C15 1_555 1_555
C43 C42 1_555 1_555
H18 C43 1_555 1_555
C44 C43 1_555 1_555
H19 C44 1_555 1_555
C45 C44 1_555 1_555
C46 C45 1_555 1_555
H20 C46 1_555 1_555
C47 C42 1_555 1_555
C49 C45 1_555 1_555
O1 H25 1_555 1_555
H26 O1 1_555 1_555
N1 C10 1_555 1_555
O2 C28 1_555 1_555
O3 C28 1_555 1_555
O4 C1 1_555 1_555
O5 C1 1_555 1_555
O6 C8 1_555 1_555
O7 C8 1_555 1_555
O8 C20 1_555 1_555
O9 C20 1_555 1_555
O11 C27 1_555 1_555
O20 C49 1_555 1_555
O21 C49 1_555 1_555
Tm1 O1 1_555 1_555
O31 Tm1 1_555 1_555
Tm5 O3 1_555 1_555
Tm8 O9 1_555 1_555
C6 C7 1_555 1_555
C9 C10 1_555 1_555
C11 N1 1_555 1_555
C12 C13 1_555 1_555
C18 C19 1_555 1_555
C25 C26 1_555 1_555
C46 C47 1_555 1_555
O2 Tm1 1_555 1_555
O4 Tm1 1_555 1_555
O5 Tm5 1_555 1_555
O14 Tm1 1_555 1_555
C29 C30 1_555 1_555
C30 C31 1_555 1_555
C31 C32 1_555 1_555
C32 H13 1_555 1_555
C33 C32 1_555 1_555
H14 C33 1_555 1_555
C34 C33 1_555 1_555
C35 C30 1_555 1_555
H15 C35 1_555 1_555
C36 C34 1_555 1_555
C37 C31 1_555 1_555
C38 C37 1_555 1_555
H16 C38 1_555 1_555
C39 C38 1_555 1_555
C40 C39 1_555 1_555
H17 C40 1_555 1_555
C41 C40 1_555 1_555
C50 C39 1_555 1_555
N2 C37 1_555 1_555
O12 C29 1_555 1_555
O13 C29 1_555 1_555
O15 C48 1_555 1_555
O16 C36 1_555 1_555
O22 H27 1_555 1_555
H28 O22 1_555 1_555
O23 Tm8 1_555 1_555
Tm5 O13 1_555 1_555
Tm8 O16 1_555 1_555
O24 Tm8 1_555 1_555
O25 Tm8 1_555 1_555
H29 O25 1_555 1_555
H30 O25 1_555 1_555
N3 O23 1_555 1_555
O26 N3 1_555 1_555
O33 Tm5 1_555 1_555
O34 Tm5 1_555 1_555
Tm4 O10 1_555 1_555
C34 C35 1_555 1_555
C41 N2 1_555 1_555
O15 Tm5 1_555 1_555
O22 Tm5 1_555 1_555
O24 N3 1_555 1_555
C52 C51 1_555 1_555
H22 C52 1_555 1_555
C53 C52 1_555 1_555
C54 C53 1_555 1_555
H23 C54 1_555 1_555
H24 C55 1_555 1_555
C56 C53 1_555 1_555
O18 C56 1_555 1_555
O19 C56 1_555 1_555
Tm6 O18 1_555 1_555
C54 C55 1_555 1_555
O19 Tm6 1_555 1_555
C52_2 C51_2 1_555 1_555
H22_2 C52_2 1_555 1_555
C53_2 C52_2 1_555 1_555
C54_2 C53_2 1_555 1_555
H23_2 C54_2 1_555 1_555
H24_2 C55_2 1_555 1_555
C56_2 C53_2 1_555 1_555
O33 C56_2 1_555 1_555
O34 C56_2 1_555 1_555
C54_2 C55_2 1_555 1_555
C29_2 C30_2 1_555 1_555
C30_2 C31_2 1_555 1_555
C31_2 C32_2 1_555 1_555
C32_2 H13_2 1_555 1_555
C33_2 C32_2 1_555 1_555
H14_2 C33_2 1_555 1_555
C34_2 C33_2 1_555 1_555
C35_2 C30_2 1_555 1_555
H15_2 C35_2 1_555 1_555
C36_2 C34_2 1_555 1_555
C37_2 C31_2 1_555 1_555
C38_2 C37_2 1_555 1_555
H16_2 C38_2 1_555 1_555
C39_2 C38_2 1_555 1_555
C40_2 C39_2 1_555 1_555
H17_2 C40_2 1_555 1_555
C41_2 C40_2 1_555 1_555
C50_2 C39_2 1_555 1_555
N2_2 C37_2 1_555 1_555
O12_2 C29_2 1_555 1_555
O13_2 C29_2 1_555 1_555
O15_2 C48_2 1_555 1_555
O16_2 C36_2 1_555 1_555
O22_2 H27_2 1_555 1_555
H28_2 O22_2 1_555 1_555
O23_2 Tm3 1_555 1_555
Tm6 O13_2 1_555 1_555
Tm3 O16_2 1_555 1_555
O24_2 Tm3 1_555 1_555
O25_2 Tm3 1_555 1_555
H29_2 O25_2 1_555 1_555
H30_2 O25_2 1_555 1_555
N3_2 O23_2 1_555 1_555
O26_2 N3_2 1_555 1_555
O27 Tm6 1_555 1_555
O28 Tm6 1_555 1_555
O30 Tm3 1_555 1_555
C34_2 C35_2 1_555 1_555
C41_2 N2_2 1_555 1_555
O15_2 Tm6 1_555 1_555
O22_2 Tm6 1_555 1_555
O24_2 N3_2 1_555 1_555
C1_2 C2_2 1_555 1_555
C2_2 C3_2 1_555 1_555
C3_2 H1_2 1_555 1_555
C4_2 C3_2 1_555 1_555
C5_2 C4_2 1_555 1_555
H2_2 C5_2 1_555 1_555
C6_2 C5_2 1_555 1_555
H3_2 C6_2 1_555 1_555
C7_2 C2_2 1_555 1_555
C8_2 C4_2 1_555 1_555
C9_2 H4_2 1_555 1_555
C10_2 C7_2 1_555 1_555
C11_2 C12_2 1_555 1_555
C12_2 H5_2 1_555 1_555
C13_2 C9_2 1_555 1_555
C14_2 C11_2 1_555 1_555
C15_2 C14_2 1_555 1_555
C16_2 C15_2 1_555 1_555
H6_2 C16_2 1_555 1_555
C17_2 C16_2 1_555 1_555
C18_2 C17_2 1_555 1_555
H7_2 C18_2 1_555 1_555
C19_2 C14_2 1_555 1_555
H8_2 C19_2 1_555 1_555
C20_2 C17_2 1_555 1_555
C21_2 C13_2 1_555 1_555
C22_2 C21_2 1_555 1_555
H9_2 C22_2 1_555 1_555
C23_2 C22_2 1_555 1_555
H10_2 C23_2 1_555 1_555
C24_2 C23_2 1_555 1_555
C25_2 C24_2 1_555 1_555
H11_2 C25_2 1_555 1_555
C26_2 C21_2 1_555 1_555
H12_2 C26_2 1_555 1_555
C27_2 C24_2 1_555 1_555
C28_2 C15_2 1_555 1_555
C43_2 C42_2 1_555 1_555
H18_2 C43_2 1_555 1_555
C44_2 C43_2 1_555 1_555
H19_2 C44_2 1_555 1_555
C45_2 C44_2 1_555 1_555
C46_2 C45_2 1_555 1_555
H20_2 C46_2 1_555 1_555
C47_2 C42_2 1_555 1_555
C49_2 C45_2 1_555 1_555
O1_2 H25_2 1_555 1_555
H26_2 O1_2 1_555 1_555
N1_2 C10_2 1_555 1_555
O2_2 C28_2 1_555 1_555
O27 C28_2 1_555 1_555
O4_2 C1_2 1_555 1_555
O28 C1_2 1_555 1_555
O29 C8_2 1_555 1_555
O7_2 C8_2 1_555 1_555
O8_2 C20_2 1_555 1_555
O30 C20_2 1_555 1_555
O32 C27_2 1_555 1_555
O35 C49_2 1_555 1_555
O36 C49_2 1_555 1_555
Tm4 O1_2 1_555 1_555
C6_2 C7_2 1_555 1_555
C9_2 C10_2 1_555 1_555
C11_2 N1_2 1_555 1_555
C12_2 C13_2 1_555 1_555
C18_2 C19_2 1_555 1_555
C25_2 C26_2 1_555 1_555
C46_2 C47_2 1_555 1_555
O2_2 Tm4 1_555 1_555
O4_2 Tm4 1_555 1_555
O14_2 Tm4 1_555 1_555

#END
