
###############################################################################
#
# This file contains modified crystal structure data generated from the
# MOF subset of the Cambridge Structural Database (CSD) v543 
# hosted by the Cambridge Crystallographic Data Centre (CCDC).
#
# This work is licensed under the Creative Commons
# Attribution-NonCommercial-ShareAlike 4.0 International License.
# To view a copy of this license, visit
# http://creativecommons.org/licenses/by-nc-sa/4.0/
# or send a letter to
# Creative Commons, PO Box 1866, Mountain View, CA 94042, USA.
#
# CIF created using the CSD Python API on 29 September 2022
# The structure has been converted into the P1 space group
# The structure has a 3D framework
# The original CSD entry TATLEJ is in the orthorhombic crystal system
# The original CSD entry TATLEJ is in a Sohncke space group
# The framework has been calculated to contain at least 10.0% void space
# The void calculation uses a probe of radius 1.32A, grid spacing 0.4
#
###############################################################################

data_TATLEJ
_chemical_formula_moiety         '(C120 H84 Cu4 N12 O20)n'
_symmetry_cell_setting           triclinic
_symmetry_space_group_name_H-M   'P 1'
_symmetry_Int_Tables_number      1
_space_group_name_Hall           'P 1'
loop_
_symmetry_equiv_pos_site_id
_symmetry_equiv_pos_as_xyz
1 x,y,z
_cell_length_a                   6.2826(5)
_cell_length_b                   19.2790(19)
_cell_length_c                   25.324(2)
_cell_angle_alpha                90
_cell_angle_beta                 90
_cell_angle_gamma                90
_cell_volume                     3067.3
loop_
_atom_site_label
_atom_site_type_symbol
_atom_site_fract_x
_atom_site_fract_y
_atom_site_fract_z
O2 O 0.0403(7) 0.0978(2) 0.21914(18)
O3 O 0.1707(6) 0.3370(2) 0.28395(14)
H18 H 0.0607 0.2235 0.2425
C29 C 0.0121(7) 0.3576(2) 0.25990(16)
Cu3 Cu 0.11667(8) 0.48719(3) 0.296997(18)
O6 O 0.0525(5) 0.92047(16) 0.24035(11)
N4 N 0.0134(6) 0.9633(2) 0.13258(14)
O1 O 0.7582(5) 0.07381(15) 0.17263(11)
O4 O 0.9475(5) 0.42047(16) 0.25965(11)
N2 N 0.3431(6) 0.0529(2) 0.44006(13)
N3 N 0.4866(6) 0.0367(2) 0.63258(14)
C2 C 0.6175(7) 0.0127(3) 0.35719(15)
H3 H 0.6658 0.0072 0.3917
C3 C 0.4186(7) 0.0411(2) 0.34754(16)
C4 C 0.3534(7) 0.0444(3) 0.29513(18)
H4 H 0.2182 0.0608 0.2868
C5 C 0.4877(8) 0.0237(3) 0.25593(17)
H5 H 0.4405 0.0267 0.2212
C6 C 0.2810(7) 0.0677(2) 0.39113(16)
C7 C 0.1003(7) 0.1075(2) 0.38074(16)
H6 H 0.0633 0.1164 0.3458
C9 C 0.0440(7) 0.1177(3) 0.47189(17)
C10 C 0.2246(7) 0.0780(2) 0.47927(16)
C11 C 0.3016(8) 0.0687(3) 0.62774(19)
H8 H 0.2300 0.0820 0.6582
C12 C 0.2103(8) 0.0830(3) 0.57984(17)
H9 H 0.0801 0.1059 0.5782
C13 C 0.3126(8) 0.0635(3) 0.53414(17)
C14 C 0.5062(9) 0.0311(3) 0.53951(18)
H10 H 0.5822 0.0179 0.5096
C15 C 0.5872(8) 0.0181(3) 0.58856(17)
C22 C 0.8791(8) 0.1170(2) 0.19558(18)
C23 C 0.8189(7) 0.1921(2) 0.19566(18)
C24 C 0.6363(9) 0.2153(2) 0.16914(18)
H16 H 0.5538 0.1837 0.1503
C25 C 0.5774(8) 0.2836(2) 0.17046(18)
C26 C 0.7011(7) 0.3299(2) 0.19998(19)
H17 H 0.6620 0.3764 0.2014
C27 C 0.8807(7) 0.3080(2) 0.22711(15)
C28 C 0.9399(7) 0.2387(2) 0.22468(17)
C30 C 0.3813(10) 0.3081(3) 0.1424(2)
H19 H 0.3011 0.2688 0.1303
H20 H 0.4212 0.3362 0.1127
H21 H 0.2960 0.3350 0.1662
Cu2 Cu 0.61667(8) 0.01281(3) 0.703003(18)
Cu1 Cu 0.88333(8) 0.98719(3) 0.203003(18)
N1 N 0.6839(6) 0.99925(19) 0.26466(13)
C1 C 0.7433(7) 0.9926(2) 0.31514(16)
H2 H 0.8761 0.9735 0.3223
H11 H 0.7175 0.9955 0.5913
H7 H 0.5324 0.8662 0.0009
C11_2 C 0.1984(8) 0.9313(3) 0.12774(19)
H8_2 H 0.2700 0.9180 0.1582
C12_2 C 0.2897(8) 0.9170(3) 0.07984(17)
H9_2 H 0.4199 0.8941 0.0782
C13_2 C 0.1874(8) 0.9365(3) 0.03414(17)
N1_2 N 0.8161(6) 0.00075(19) 0.76466(13)
C1_2 C 0.7567(7) 0.0074(2) 0.81514(16)
H2_2 H 0.6239 0.0265 0.8223
O6_2 O 0.4475(5) 0.07953(16) 0.74035(11)
C14_2 C 0.9938(9) 0.9689(3) 0.03951(18)
H10_2 H 0.9178 0.9821 0.0096
C15_2 C 0.9128(8) 0.9819(3) 0.08856(17)
O1_2 O 0.7418(5) 0.92619(15) 0.67263(11)
O2_2 O 0.4597(7) 0.9022(2) 0.71914(18)
O3_2 O 0.3293(6) 0.6630(2) 0.78395(14)
O4_2 O 0.5525(5) 0.57953(16) 0.75965(11)
C2_2 C 0.8825(7) 0.9873(3) 0.85719(15)
H3_2 H 0.8342 0.9928 0.8917
C22_2 C 0.6209(8) 0.8830(2) 0.69558(18)
C23_2 C 0.6811(7) 0.8079(2) 0.69566(18)
C24_2 C 0.8637(9) 0.7847(2) 0.66914(18)
H16_2 H 0.9462 0.8163 0.6503
C25_2 C 0.9226(8) 0.7164(2) 0.67046(18)
C26_2 C 0.7989(7) 0.6701(2) 0.69998(19)
H17_2 H 0.8380 0.6236 0.7014
C27_2 C 0.6193(7) 0.6920(2) 0.72711(15)
C28_2 C 0.5601(7) 0.7613(2) 0.72468(17)
H18_2 H 0.4393 0.7765 0.7425
C29_2 C 0.4879(7) 0.6424(2) 0.75990(16)
Cu3_2 Cu 0.38333(8) 0.51281(3) 0.796997(18)
O1_3 O 0.2418(5) 0.57381(15) 0.32737(11)
N1_3 N 0.3161(6) 0.49925(19) 0.23534(13)
N2_2 N 0.6569(6) 0.5529(2) 0.05994(13)
C1_3 C 0.2567(7) 0.4926(2) 0.18486(16)
H2_3 H 0.1239 0.4735 0.1777
C2_3 C 0.3825(7) 0.5127(3) 0.14281(15)
H3_3 H 0.3342 0.5072 0.1083
C3_2 C 0.5814(7) 0.5411(2) 0.15246(16)
C4_2 C 0.6466(7) 0.5444(3) 0.20487(18)
H4_2 H 0.7818 0.5608 0.2132
C5_2 C 0.5123(8) 0.5237(3) 0.24407(17)
H5_2 H 0.5595 0.5267 0.2788
C6_2 C 0.7190(7) 0.5677(2) 0.10887(16)
C7_2 C 0.8997(7) 0.6075(2) 0.11926(16)
H6_2 H 0.9367 0.6164 0.1542
C9_2 C 0.9560(7) 0.6177(3) 0.02811(17)
C10_2 C 0.7754(7) 0.5780(2) 0.02073(16)
C22_3 C 0.1209(8) 0.6170(2) 0.30442(18)
C23_3 C 0.1811(7) 0.6921(2) 0.30434(18)
C24_3 C 0.3637(9) 0.7153(2) 0.33086(18)
H16_3 H 0.4462 0.6837 0.3497
C25_3 C 0.4226(8) 0.7836(2) 0.32954(18)
C26_3 C 0.2989(7) 0.8299(2) 0.30002(19)
H17_3 H 0.3380 0.8764 0.2986
C27_3 C 0.1193(7) 0.8080(2) 0.27289(15)
C28_3 C 0.0601(7) 0.7387(2) 0.27532(17)
C30_2 C 0.6187(10) 0.8081(3) 0.3576(2)
H19_2 H 0.6989 0.7688 0.3697
H20_2 H 0.5788 0.8362 0.3873
H21_2 H 0.7040 0.8350 0.3338
N3_2 N 0.5134(6) 0.5367(2) 0.86742(14)
C11_3 C 0.6984(8) 0.5687(3) 0.87226(19)
H8_3 H 0.7700 0.5820 0.8418
C12_3 C 0.7897(8) 0.5830(3) 0.92016(17)
H9_3 H 0.9199 0.6059 0.9218
C13_3 C 0.6874(8) 0.5635(3) 0.96586(17)
C14_3 C 0.4938(9) 0.5311(3) 0.96049(18)
H10_3 H 0.4178 0.5179 0.9904
C15_3 C 0.4128(8) 0.5181(3) 0.91144(17)
H11_2 H 0.2825 0.4955 0.9087
O2_3 O 0.9597(7) 0.5978(2) 0.28086(18)
O3_3 O 0.8293(6) 0.8370(2) 0.21605(14)
H18_3 H 0.9393 0.7235 0.2575
C29_3 C 0.9879(7) 0.8576(2) 0.24010(16)
N4_2 N 0.9866(6) 0.4633(2) 0.36742(14)
O1_4 O 0.2582(5) 0.42619(15) 0.82737(11)
O2_4 O 0.5403(7) 0.4022(2) 0.78086(18)
O3_4 O 0.6707(6) 0.1630(2) 0.71605(14)
N1_4 N 0.1839(6) 0.50075(19) 0.73534(13)
C1_4 C 0.2433(7) 0.5074(2) 0.68486(16)
H2_4 H 0.3761 0.5265 0.6777
C2_4 C 0.1175(7) 0.4873(3) 0.64281(15)
H3_4 H 0.1658 0.4928 0.6083
C14_4 C 0.0062(9) 0.4689(3) 0.46049(18)
H10_4 H 0.0822 0.4821 0.4904
C15_4 C 0.0872(8) 0.4819(3) 0.41144(17)
H11_3 H 0.2175 0.5045 0.4087
C22_4 C 0.3791(8) 0.3830(2) 0.80442(18)
C23_4 C 0.3189(7) 0.3079(2) 0.80434(18)
C24_4 C 0.1363(9) 0.2847(2) 0.83086(18)
H16_4 H 0.0538 0.3163 0.8497
C25_4 C 0.0774(8) 0.2164(2) 0.82954(18)
C26_4 C 0.2011(7) 0.1701(2) 0.80002(19)
H17_4 H 0.1620 0.1236 0.7986
C27_4 C 0.3807(7) 0.1920(2) 0.77289(15)
C28_4 C 0.4399(7) 0.2613(2) 0.77532(17)
H18_4 H 0.5607 0.2765 0.7575
C29_4 C 0.5121(7) 0.1424(2) 0.74010(16)
N2_3 N 0.8431(6) 0.4471(2) 0.55994(13)
C3_3 C 0.9186(7) 0.4589(2) 0.65246(16)
C4_3 C 0.8534(7) 0.4556(3) 0.70487(18)
H4_3 H 0.7182 0.4392 0.7132
C5_3 C 0.9877(8) 0.4763(3) 0.74407(17)
H5_3 H 0.9405 0.4733 0.7788
C6_3 C 0.7810(7) 0.4323(2) 0.60887(16)
C7_3 C 0.6003(7) 0.3925(2) 0.61926(16)
H6_3 H 0.5633 0.3836 0.6542
C8 C 0.4757(7) 0.3661(2) 0.57957(16)
C9_3 C 0.5440(7) 0.3823(3) 0.52811(17)
H7_2 H 0.4676 0.3662 0.4991
C10_3 C 0.7246(7) 0.4220(2) 0.52073(16)
C11_4 C 0.8016(8) 0.4313(3) 0.37226(19)
H8_4 H 0.7300 0.4180 0.3418
C12_4 C 0.7103(8) 0.4170(3) 0.42016(17)
H9_4 H 0.5801 0.3941 0.4218
C13_4 C 0.8126(8) 0.4365(3) 0.46586(17)
C16 C 0.2866(7) 0.3230(3) 0.58920(17)
C17 C 0.1361(7) 0.3097(2) 0.55078(16)
H12 H 0.1535 0.3293 0.5175
C20 C 0.0699(8) 0.2527(3) 0.6486(2)
H14 H 0.0459 0.2346 0.6821
C21 C 0.2492(8) 0.2932(3) 0.63897(19)
H15 H 0.3464 0.3007 0.6661
C30_3 C 0.8813(10) 0.1919(3) 0.8576(2)
H19_3 H 0.8011 0.2312 0.8697
H20_3 H 0.9212 0.1638 0.8873
H21_3 H 0.7960 0.1650 0.8338
O5 O 0.2540(6) 0.3025(2) 0.38559(16)
H1 H 0.1782 0.2874 0.3619
C8_2 C 0.9757(7) 0.1339(2) 0.42043(16)
H7_3 H 0.9676 0.1338 0.5009
C16_2 C 0.7866(7) 0.1770(3) 0.41080(17)
C17_2 C 0.6361(7) 0.1903(2) 0.44922(16)
H12_2 H 0.6535 0.1707 0.4825
C18 C 0.4597(7) 0.2320(3) 0.44002(19)
H13 H 0.3627 0.2405 0.4670
C19 C 0.4292(7) 0.2603(3) 0.3914(2)
C20_2 C 0.5699(8) 0.2473(3) 0.3514(2)
H14_2 H 0.5459 0.2654 0.3179
C21_2 C 0.7492(8) 0.2068(3) 0.36103(19)
H15_2 H 0.8464 0.1993 0.3339
O5_2 O 0.2460(6) 0.6975(2) 0.88559(16)
H1_2 H 0.3218 0.7126 0.8619
C18_2 C 0.0403(7) 0.7680(3) 0.94002(19)
H13_2 H 0.1373 0.7595 0.9670
C19_2 C 0.0708(7) 0.7397(3) 0.8914(2)
N2_4 N 0.1569(6) 0.9471(2) 0.94006(13)
C3_4 C 0.0814(7) 0.9589(2) 0.84754(16)
C4_4 C 0.1466(7) 0.9556(3) 0.79513(18)
H4_4 H 0.2818 0.9392 0.7868
C5_4 C 0.0123(8) 0.9763(3) 0.75593(17)
H5_4 H 0.0595 0.9733 0.7212
C6_4 C 0.2190(7) 0.9323(2) 0.89113(16)
C7_4 C 0.3997(7) 0.8925(2) 0.88074(16)
H6_4 H 0.4367 0.8836 0.8458
C8_3 C 0.5243(7) 0.8661(2) 0.92043(16)
C9_4 C 0.4560(7) 0.8823(3) 0.97189(17)
C10_4 C 0.2754(7) 0.9220(2) 0.97927(16)
C16_3 C 0.7134(7) 0.8230(3) 0.91080(17)
C17_3 C 0.8639(7) 0.8097(2) 0.94922(16)
H12_3 H 0.8465 0.8293 0.9825
C20_3 C 0.9301(8) 0.7527(3) 0.8514(2)
H14_3 H 0.9541 0.7346 0.8179
C21_3 C 0.7508(8) 0.7932(3) 0.86103(19)
H15_3 H 0.6536 0.8007 0.8339
C30_4 C 0.1187(10) 0.6919(3) 0.6424(2)
H19_4 H 0.1989 0.7312 0.6303
H20_4 H 0.0788 0.6638 0.6127
H21_4 H 0.2040 0.6650 0.6662
H11_4 H 0.7825 0.0045 0.0913
O5_3 O 0.7460(6) 0.8025(2) 0.11441(16)
H1_3 H 0.8218 0.7874 0.1381
C8_4 C 0.0243(7) 0.6339(2) 0.07957(16)
C16_4 C 0.2134(7) 0.6770(3) 0.08920(17)
C17_4 C 0.3639(7) 0.6903(2) 0.05078(16)
H12_4 H 0.3465 0.6707 0.0175
C18_3 C 0.5403(7) 0.7320(3) 0.05998(19)
H13_3 H 0.6373 0.7405 0.0330
C19_3 C 0.5708(7) 0.7603(3) 0.1086(2)
C20_4 C 0.4301(8) 0.7473(3) 0.1486(2)
H14_4 H 0.4541 0.7654 0.1821
C21_4 C 0.2508(8) 0.7068(3) 0.13897(19)
H15_4 H 0.1536 0.6993 0.1661
H7_4 H 0.0324 0.6338 0.9991
O5_4 O 0.7540(6) 0.1975(2) 0.61441(16)
H1_4 H 0.6782 0.2126 0.6381
C18_4 C 0.9597(7) 0.2680(3) 0.55998(19)
H13_4 H 0.8627 0.2595 0.5330
C19_4 C 0.9292(7) 0.2397(3) 0.6086(2)
loop_
_geom_bond_atom_site_label_1
_geom_bond_atom_site_label_2
_geom_bond_site_symmetry_1
_geom_bond_site_symmetry_2
O3 C29 1_555 1_555
O1 C22 1_555 1_555
N2 C6 1_555 1_555
N3 C11 1_555 1_555
H3 C2 1_555 1_555
C3 C2 1_555 1_555
C4 C3 1_555 1_555
H4 C4 1_555 1_555
H5 C5 1_555 1_555
C6 C3 1_555 1_555
C7 C6 1_555 1_555
H6 C7 1_555 1_555
C10 N2 1_555 1_555
C11 H8 1_555 1_555
C12 C11 1_555 1_555
H9 C12 1_555 1_555
C13 C10 1_555 1_555
C14 C13 1_555 1_555
H10 C14 1_555 1_555
C15 N3 1_555 1_555
C23 C22 1_555 1_555
C24 C23 1_555 1_555
H16 C24 1_555 1_555
C25 C24 1_555 1_555
C26 C25 1_555 1_555
H17 C26 1_555 1_555
C27 C26 1_555 1_555
C28 C23 1_555 1_555
C30 C25 1_555 1_555
H19 C30 1_555 1_555
H20 C30 1_555 1_555
H21 C30 1_555 1_555
Cu2 N3 1_555 1_555
C4 C5 1_555 1_555
C9 C10 1_555 1_555
C12 C13 1_555 1_555
C14 C15 1_555 1_555
C27 C28 1_555 1_555
N1 Cu1 1_555 1_555
C1 N1 1_555 1_555
H2 C1 1_555 1_555
N4 C11_2 1_555 1_555
C11_2 H8_2 1_555 1_555
C12_2 C11_2 1_555 1_555
H9_2 C12_2 1_555 1_555
C12_2 C13_2 1_555 1_555
N1_2 Cu2 1_555 1_555
C1_2 N1_2 1_555 1_555
H2_2 C1_2 1_555 1_555
O6_2 Cu2 1_555 1_555
H10_2 C14_2 1_555 1_555
C14_2 C15_2 1_555 1_555
O1_2 C22_2 1_555 1_555
O3_2 C29_2 1_555 1_555
O4_2 C29_2 1_555 1_555
H3_2 C2_2 1_555 1_555
C22_2 O2_2 1_555 1_555
C23_2 C22_2 1_555 1_555
C24_2 C23_2 1_555 1_555
H16_2 C24_2 1_555 1_555
C25_2 C24_2 1_555 1_555
C26_2 C25_2 1_555 1_555
H17_2 C26_2 1_555 1_555
C27_2 C26_2 1_555 1_555
C28_2 C23_2 1_555 1_555
H18_2 C28_2 1_555 1_555
C29_2 C27_2 1_555 1_555
Cu3_2 O4_2 1_555 1_555
C27_2 C28_2 1_555 1_555
Cu3 O1_3 1_555 1_555
O1_3 C22_3 1_555 1_555
N1_3 Cu3 1_555 1_555
N2_2 C6_2 1_555 1_555
C1_3 N1_3 1_555 1_555
H2_3 C1_3 1_555 1_555
C2_3 C1_3 1_555 1_555
H3_3 C2_3 1_555 1_555
C3_2 C2_3 1_555 1_555
C4_2 C3_2 1_555 1_555
H4_2 C4_2 1_555 1_555
C5_2 N1_3 1_555 1_555
H5_2 C5_2 1_555 1_555
C6_2 C3_2 1_555 1_555
C7_2 C6_2 1_555 1_555
H6_2 C7_2 1_555 1_555
C10_2 N2_2 1_555 1_555
C23_3 C22_3 1_555 1_555
C24_3 C23_3 1_555 1_555
H16_3 C24_3 1_555 1_555
C25_3 C24_3 1_555 1_555
C26_3 C25_3 1_555 1_555
H17_3 C26_3 1_555 1_555
C27_3 C26_3 1_555 1_555
C28_3 C23_3 1_555 1_555
C30_2 C25_3 1_555 1_555
H19_2 C30_2 1_555 1_555
H20_2 C30_2 1_555 1_555
H21_2 C30_2 1_555 1_555
C4_2 C5_2 1_555 1_555
C9_2 C10_2 1_555 1_555
C27_3 C28_3 1_555 1_555
N3_2 C11_3 1_555 1_555
C11_3 H8_3 1_555 1_555
C12_3 C11_3 1_555 1_555
H9_3 C12_3 1_555 1_555
C14_3 C13_3 1_555 1_555
H10_3 C14_3 1_555 1_555
C15_3 N3_2 1_555 1_555
H11_2 C15_3 1_555 1_555
Cu3_2 N3_2 1_555 1_555
C12_3 C13_3 1_555 1_555
C14_3 C15_3 1_555 1_555
O3_3 C29_3 1_555 1_555
Cu3_2 O1_4 1_555 1_555
O1_4 C22_4 1_555 1_555
O2_4 Cu3_2 1_555 1_555
O3_4 C29_4 1_555 1_555
O6_2 C29_4 1_555 1_555
N1_4 Cu3_2 1_555 1_555
C1_4 N1_4 1_555 1_555
H2_4 C1_4 1_555 1_555
C2_4 C1_4 1_555 1_555
H3_4 C2_4 1_555 1_555
H10_4 C14_4 1_555 1_555
H11_3 C15_4 1_555 1_555
C22_4 O2_4 1_555 1_555
C23_4 C22_4 1_555 1_555
C24_4 C23_4 1_555 1_555
H16_4 C24_4 1_555 1_555
C25_4 C24_4 1_555 1_555
C26_4 C25_4 1_555 1_555
H17_4 C26_4 1_555 1_555
C27_4 C26_4 1_555 1_555
C28_4 C23_4 1_555 1_555
H18_4 C28_4 1_555 1_555
C29_4 C27_4 1_555 1_555
C14_4 C15_4 1_555 1_555
C27_4 C28_4 1_555 1_555
N2_3 C6_3 1_555 1_555
N4_2 C11_4 1_555 1_555
C4_3 C3_3 1_555 1_555
H4_3 C4_3 1_555 1_555
H5_3 C5_3 1_555 1_555
C6_3 C3_3 1_555 1_555
C7_3 C6_3 1_555 1_555
H6_3 C7_3 1_555 1_555
C8 C7_3 1_555 1_555
C9_3 C8 1_555 1_555
H7_2 C9_3 1_555 1_555
C10_3 N2_3 1_555 1_555
C11_4 H8_4 1_555 1_555
C12_4 C11_4 1_555 1_555
H9_4 C12_4 1_555 1_555
C13_4 C10_3 1_555 1_555
C16 C8 1_555 1_555
C17 C16 1_555 1_555
H12 C17 1_555 1_555
H14 C20 1_555 1_555
C21 C16 1_555 1_555
H15 C21 1_555 1_555
H19_3 C30_3 1_555 1_555
H20_3 C30_3 1_555 1_555
H21_3 C30_3 1_555 1_555
C4_3 C5_3 1_555 1_555
C9_3 C10_3 1_555 1_555
C12_4 C13_4 1_555 1_555
C20 C21 1_555 1_555
O5 H1 1_555 1_555
C16_2 C8_2 1_555 1_555
C17_2 C16_2 1_555 1_555
H12_2 C17_2 1_555 1_555
C18 C17_2 1_555 1_555
H13 C18 1_555 1_555
C19 O5 1_555 1_555
C20_2 C19 1_555 1_555
H14_2 C20_2 1_555 1_555
C21_2 C16_2 1_555 1_555
H15_2 C21_2 1_555 1_555
C18 C19 1_555 1_555
C20_2 C21_2 1_555 1_555
O5_2 H1_2 1_555 1_555
H13_2 C18_2 1_555 1_555
C19_2 O5_2 1_555 1_555
C18_2 C19_2 1_555 1_555
N2_4 C6_4 1_555 1_555
C4_4 C3_4 1_555 1_555
H4_4 C4_4 1_555 1_555
H5_4 C5_4 1_555 1_555
C6_4 C3_4 1_555 1_555
C7_4 C6_4 1_555 1_555
H6_4 C7_4 1_555 1_555
C8_3 C7_4 1_555 1_555
C9_4 C8_3 1_555 1_555
C10_4 N2_4 1_555 1_555
C16_3 C8_3 1_555 1_555
C17_3 C16_3 1_555 1_555
H12_3 C17_3 1_555 1_555
H14_3 C20_3 1_555 1_555
C21_3 C16_3 1_555 1_555
H15_3 C21_3 1_555 1_555
H19_4 C30_4 1_555 1_555
H20_4 C30_4 1_555 1_555
H21_4 C30_4 1_555 1_555
C4_4 C5_4 1_555 1_555
C9_4 C10_4 1_555 1_555
C20_3 C21_3 1_555 1_555
O5_3 H1_3 1_555 1_555
C16_4 C8_4 1_555 1_555
C17_4 C16_4 1_555 1_555
H12_4 C17_4 1_555 1_555
C18_3 C17_4 1_555 1_555
H13_3 C18_3 1_555 1_555
C19_3 O5_3 1_555 1_555
C20_4 C19_3 1_555 1_555
H14_4 C20_4 1_555 1_555
C21_4 C16_4 1_555 1_555
H15_4 C21_4 1_555 1_555
C18_3 C19_3 1_555 1_555
C20_4 C21_4 1_555 1_555
O5_4 H1_4 1_555 1_555
H13_4 C18_4 1_555 1_555
C19_4 O5_4 1_555 1_555
C18_4 C19_4 1_555 1_555

#END
