
###############################################################################
#
# This file contains modified crystal structure data generated from the
# MOF subset of the Cambridge Structural Database (CSD) v543 
# hosted by the Cambridge Crystallographic Data Centre (CCDC).
#
# This work is licensed under the Creative Commons
# Attribution-NonCommercial-ShareAlike 4.0 International License.
# To view a copy of this license, visit
# http://creativecommons.org/licenses/by-nc-sa/4.0/
# or send a letter to
# Creative Commons, PO Box 1866, Mountain View, CA 94042, USA.
#
# CIF created using the CSD Python API on 29 September 2022
# The structure has been converted into the P1 space group
# The structure has a 3D framework
# The original CSD entry TATSIS01 is in the monoclinic crystal system
# The original CSD entry TATSIS01 is in a Sohncke space group
# The framework has been calculated to contain at least 10.0% void space
# The void calculation uses a probe of radius 1.32A, grid spacing 0.4
#
###############################################################################

data_TATSIS01
_chemical_formula_moiety         '(C48 H34 Co4 N8 O14)n'
_symmetry_cell_setting           triclinic
_symmetry_space_group_name_H-M   'P 1'
_symmetry_Int_Tables_number      1
_space_group_name_Hall           'P 1'
loop_
_symmetry_equiv_pos_site_id
_symmetry_equiv_pos_as_xyz
1 x,y,z
_cell_length_a                   9.810(2)
_cell_length_b                   12.753(3)
_cell_length_c                   10.917(2)
_cell_angle_alpha                90
_cell_angle_beta                 100.63(3)
_cell_angle_gamma                90
_cell_volume                     1342.35
loop_
_atom_site_label
_atom_site_type_symbol
_atom_site_fract_x
_atom_site_fract_y
_atom_site_fract_z
C1 C 0.1360(6) 0.5148(6) 0.6775(6)
H1 H 0.1326 0.5238 0.7614
N1 N 0.1395(5) 0.4168(5) 0.6326(5)
C2 C 0.1458(6) 0.4044(6) 0.5141(6)
H2 H 0.1468 0.3368 0.4822
O1 O 0.2665(5) 0.6926(5) 0.3571(5)
O6 O 0.0498(5) 0.7458(5) 0.3769(5)
C4 C 0.1536(7) 0.6822(6) 0.3979(6)
C8 C 0.1478(7) 0.5902(7) 0.4789(7)
C14 C 0.1372(6) 0.6022(6) 0.6037(6)
H9 H 0.1310 0.6688 0.6369
C16 C 0.1510(6) 0.4894(6) 0.4348(5)
H11 H 0.1566 0.4779 0.3518
Co3 Co 0.37664(9) 0.78334(11) 0.24877(9)
Co8 Co 0.12734(9) 0.28184(11) 0.74959(9)
O2 O 0.0183(4) 0.3751(5) 0.8557(4)
N3 N 0.6112(6) 0.1437(5) 0.8533(5)
C9 C 0.4814(6) 0.0283(6) 0.9629(5)
H4 H 0.3969 0.0101 0.9840
C11 C 0.7240(6) 0.0851(6) 0.8971(5)
H6 H 0.8079 0.1040 0.8751
C21 C 0.4892(5) 0.1129(6) 0.8866(5)
H15 H 0.4088 0.1507 0.8565
Co6 Co 0.62336(9) 0.28334(11) 0.75123(9)
N2 N 0.6412(5) 0.4241(5) 0.6460(5)
C3 C 0.5299(6) 0.4842(6) 0.6086(6)
H3 H 0.4474 0.4665 0.6340
Co2 Co 0.87266(9) 0.78184(11) 0.25041(9)
O4 O 0.7686(4) 0.6885(5) 0.3564(4)
O5 O 0.4788(5) 0.8692(5) 0.1339(4)
C5 C 0.6587(7) 0.6829(7) 0.4044(6)
O7 O 0.5546(5) 0.7487(4) 0.3780(4)
C6 C 0.5991(6) 0.9700(6) 0.0088(6)
C7 C 0.6548(7) 0.5965(7) 0.4926(7)
O8 O 0.6943(4) 0.8267(5) 0.1259(4)
H5 H 0.8021 0.9592 0.0000
N4 N 0.8849(6) 0.6474(5) 0.1356(6)
C12 C 0.8900(6) 0.5478(6) 0.1794(6)
H7 H 0.8899 0.5373 0.2637
C15 C 0.8849(6) 0.6583(6) 0.0113(5)
C17 C 0.7702(5) 0.5353(6) 0.5347(5)
H12 H 0.8547 0.5508 0.5118
C18 C 0.7583(6) 0.4499(6) 0.6122(6)
H13 H 0.8367 0.4097 0.6410
C19 C 0.8953(6) 0.4604(5) 0.1037(5)
H14 H 0.8988 0.3935 0.1379
C22 C 0.5314(6) 0.5717(6) 0.5337(6)
H16 H 0.4526 0.6130 0.5113
C24 C 0.5914(6) 0.8784(6) 0.1004(6)
N5 N 0.8605(5) 0.9168(5) 0.3674(5)
N6 N 0.3588(5) 0.9241(5) 0.3540(5)
O10 O 0.9817(4) 0.8751(5) 0.1443(4)
O11 O 0.1880(4) 0.8164(5) 0.1225(4)
N7 N 0.3888(6) 0.6437(5) 0.1467(5)
O3 O 0.8120(4) 0.3164(5) 0.8775(4)
C10 C 0.7219(6) 0.9980(6) 0.9733(5)
H5_2 H 0.8021 0.9592 1.0000
C13 C 0.8915(7) 0.5746(6) 0.9315(6)
H8 H 0.8933 0.5858 0.8476
H10 H 0.8802 0.7257 0.9782
C20 C 0.8954(6) 0.4731(6) 0.9799(6)
C23 C 0.9081(6) 0.3768(6) 0.8946(5)
C9_2 C 0.5186(6) 0.5283(6) 0.0371(5)
H4_2 H 0.6031 0.5101 0.0160
C10_2 C 0.2781(6) 0.4980(6) 0.0267(5)
H5_3 H 0.1979 0.4592 0.0000
C11_2 C 0.2760(6) 0.5851(6) 0.1029(5)
H6_2 H 0.1921 0.6040 0.1249
C13_2 C 0.1085(7) 0.0746(6) 0.0685(6)
H8_2 H 0.1067 0.0858 0.1524
H10_2 H 0.1198 0.2257 0.0218
C21_2 C 0.5108(5) 0.6129(6) 0.1134(5)
H15_2 H 0.5912 0.6507 0.1435
O4_2 O 0.2314(4) 0.1885(5) 0.6436(4)
O5_2 O 0.5212(5) 0.3692(5) 0.8661(4)
C5_2 C 0.3413(7) 0.1829(7) 0.5956(6)
O7_2 O 0.4454(5) 0.2487(4) 0.6220(4)
C6_2 C 0.4009(6) 0.4700(6) 0.9912(6)
C7_2 C 0.3452(7) 0.0965(7) 0.5074(7)
O8_2 O 0.3057(4) 0.3267(5) 0.8741(4)
H5_4 H 0.1979 0.4592 1.0000
N4_2 N 0.1151(6) 0.1474(5) 0.8644(6)
C12_2 C 0.1100(6) 0.0478(6) 0.8206(6)
H7_2 H 0.1101 0.0373 0.7363
C15_2 C 0.1151(6) 0.1583(6) 0.9887(5)
C17_2 C 0.2298(5) 0.0353(6) 0.4653(5)
H12_2 H 0.1453 0.0508 0.4882
C22_2 C 0.4686(6) 0.0717(6) 0.4663(6)
H16_2 H 0.5474 0.1130 0.4887
C24_2 C 0.4086(6) 0.3784(6) 0.8996(6)
O9 O 0.7335(5) 0.1926(5) 0.6429(5)
C20_2 C 0.1046(6) 0.9731(6) 0.0201(6)
C23_2 C 0.0919(6) 0.8768(6) 0.1054(5)
C3_2 C 0.4701(6) 0.9842(6) 0.3914(6)
H3_2 H 0.5526 0.9665 0.3660
C18_2 C 0.2417(6) 0.9499(6) 0.3878(6)
H13_2 H 0.1633 0.9097 0.3590
C19_2 C 0.1047(6) 0.9604(5) 0.8963(5)
H14_2 H 0.1012 0.8935 0.8621
C1_2 C 0.8640(6) 0.0148(6) 0.3225(6)
H1_2 H 0.8674 0.0238 0.2386
O6_2 O 0.9502(5) 0.2458(5) 0.6231(5)
C4_2 C 0.8464(7) 0.1822(6) 0.6021(6)
C8_2 C 0.8522(7) 0.0902(7) 0.5211(7)
C14_2 C 0.8628(6) 0.1022(6) 0.3963(6)
H9_2 H 0.8690 0.1688 0.3631
C2_2 C 0.8542(6) 0.9044(6) 0.4859(6)
H2_2 H 0.8532 0.8368 0.5178
C16_2 C 0.8490(6) 0.9894(6) 0.5652(5)
H11_2 H 0.8434 0.9779 0.6482
loop_
_geom_bond_atom_site_label_1
_geom_bond_atom_site_label_2
_geom_bond_site_symmetry_1
_geom_bond_site_symmetry_2
C1 H1 1_555 1_555
N1 C1 1_555 1_555
C2 N1 1_555 1_555
H2 C2 1_555 1_555
O1 C4 1_555 1_555
C4 O6 1_555 1_555
C8 C4 1_555 1_555
C14 C1 1_555 1_555
H9 C14 1_555 1_555
C16 C2 1_555 1_555
H11 C16 1_555 1_555
Co3 O1 1_555 1_555
Co8 N1 1_555 1_555
C8 C14 1_555 1_555
C8 C16 1_555 1_555
Co8 O2 1_555 1_555
N3 C11 1_555 1_555
C9 H4 1_555 1_555
H6 C11 1_555 1_555
C21 N3 1_555 1_555
H15 C21 1_555 1_555
Co6 N3 1_555 1_555
C9 C21 1_555 1_555
N2 C3 1_555 1_555
C3 H3 1_555 1_555
Co3 O5 1_555 1_555
Co2 O4 1_555 1_555
O4 C5 1_555 1_555
O5 C24 1_555 1_555
C5 O7 1_555 1_555
O7 Co3 1_555 1_555
C7 C5 1_555 1_555
O8 Co2 1_555 1_555
N4 Co2 1_555 1_555
C12 N4 1_555 1_555
H7 C12 1_555 1_555
C15 N4 1_555 1_555
C17 C7 1_555 1_555
H12 C17 1_555 1_555
C18 N2 1_555 1_555
H13 C18 1_555 1_555
C19 C12 1_555 1_555
H14 C19 1_555 1_555
C22 C3 1_555 1_555
H16 C22 1_555 1_555
C24 C6 1_555 1_555
N5 Co2 1_555 1_555
N6 Co3 1_555 1_555
O10 Co2 1_555 1_555
O11 Co3 1_555 1_555
N7 Co3 1_555 1_555
Co6 N2 1_555 1_555
C7 C22 1_555 1_555
O8 C24 1_555 1_555
C17 C18 1_555 1_555
O3 C23 1_555 1_555
H5_2 C10 1_555 1_555
C13 H8 1_555 1_555
C20 C13 1_555 1_555
C23 C20 1_555 1_555
Co6 O3 1_555 1_555
N7 C11_2 1_555 1_555
C9_2 H4_2 1_555 1_555
H5_3 C10_2 1_555 1_555
C11_2 C10_2 1_555 1_555
H6_2 C11_2 1_555 1_555
C13_2 H8_2 1_555 1_555
C21_2 N7 1_555 1_555
H15_2 C21_2 1_555 1_555
C9_2 C21_2 1_555 1_555
Co6 O5_2 1_555 1_555
Co8 O4_2 1_555 1_555
O4_2 C5_2 1_555 1_555
O5_2 C24_2 1_555 1_555
C5_2 O7_2 1_555 1_555
O7_2 Co6 1_555 1_555
C7_2 C5_2 1_555 1_555
O8_2 Co8 1_555 1_555
N4_2 Co8 1_555 1_555
C12_2 N4_2 1_555 1_555
H7_2 C12_2 1_555 1_555
C15_2 N4_2 1_555 1_555
C17_2 C7_2 1_555 1_555
H12_2 C17_2 1_555 1_555
H16_2 C22_2 1_555 1_555
C24_2 C6_2 1_555 1_555
O9 Co6 1_555 1_555
C7_2 C22_2 1_555 1_555
O8_2 C24_2 1_555 1_555
O11 C23_2 1_555 1_555
C23_2 C20_2 1_555 1_555
N6 C3_2 1_555 1_555
C3_2 H3_2 1_555 1_555
C18_2 N6 1_555 1_555
H13_2 C18_2 1_555 1_555
H14_2 C19_2 1_555 1_555
C1_2 H1_2 1_555 1_555
O9 C4_2 1_555 1_555
C4_2 O6_2 1_555 1_555
C8_2 C4_2 1_555 1_555
C14_2 C1_2 1_555 1_555
H9_2 C14_2 1_555 1_555
C8_2 C14_2 1_555 1_555
C2_2 N5 1_555 1_555
H2_2 C2_2 1_555 1_555
C16_2 C2_2 1_555 1_555
H11_2 C16_2 1_555 1_555

#END
