
###############################################################################
#
# This file contains modified crystal structure data generated from the
# MOF subset of the Cambridge Structural Database (CSD) v543 
# hosted by the Cambridge Crystallographic Data Centre (CCDC).
#
# This work is licensed under the Creative Commons
# Attribution-NonCommercial-ShareAlike 4.0 International License.
# To view a copy of this license, visit
# http://creativecommons.org/licenses/by-nc-sa/4.0/
# or send a letter to
# Creative Commons, PO Box 1866, Mountain View, CA 94042, USA.
#
# CIF created using the CSD Python API on 29 September 2022
# The structure has been converted into the P1 space group
# The structure has a 3D framework
# The original CSD entry TATTUH is in the orthorhombic crystal system
# The framework has been calculated to contain at least 10.0% void space
# The void calculation uses a probe of radius 1.32A, grid spacing 0.4
# The framework is charged, counterions have been retained in the structure
#
###############################################################################

data_TATTUH
_chemical_formula_moiety         '(C118 H48 F14 O32 U6 6-)n'
_symmetry_cell_setting           triclinic
_symmetry_space_group_name_H-M   'P 1'
_symmetry_Int_Tables_number      1
_space_group_name_Hall           'P 1'
loop_
_symmetry_equiv_pos_site_id
_symmetry_equiv_pos_as_xyz
1 x,y,z
_cell_length_a                   13.270(2)
_cell_length_b                   11.016(2)
_cell_length_c                   30.050(3)
_cell_angle_alpha                90
_cell_angle_beta                 90
_cell_angle_gamma                90
_cell_volume                     4392.78
loop_
_atom_site_label
_atom_site_type_symbol
_atom_site_fract_x
_atom_site_fract_y
_atom_site_fract_z
H4 H 0.023007 0.391572 0.006774
U1 U 0.250000 0.500000 0.88241(2)
C1 C 0.1175(10) 0.3480(11) 0.9308(3)
O1 O 0.3478(8) 0.3914(8) 0.8816(2)
O2 O 0.1255(7) 0.3324(8) 0.8887(2)
C2 C 0.0440(9) 0.2756(9) 0.9546(3)
C3 C 0.0128(8) 0.1641(10) 0.9385(3)
H1 H 0.038784 0.135202 0.911778
O3 O 0.1685(7) 0.4225(9) 0.9506(2)
C9 C 0.0023(10) 0.3176(12) 0.9950(3)
O8 O 0.1522(8) 0.6086(8) 0.8816(2)
O9 O 0.3745(7) 0.6676(8) 0.8887(2)
O10 O 0.3315(7) 0.5775(9) 0.9506(2)
O11 O 0.3034(5) 0.5761(7) 0.80874(18)
O12 O 0.1966(5) 0.4239(7) 0.80874(18)
F1 F 0.8945(4) 0.1165(6) 0.09532(15)
C4 C 0.8231(7) 0.0689(9) 0.0256(3)
C5 C 0.9313(9) 0.2498(11) 0.0167(3)
H2 H 0.902927 0.280188 0.042731
C6 C 0.9011(7) 0.1394(10) 0.0016(3)
C7 C 0.750000 0.000000 0.0057(5)
O4 O 0.6966(5) 0.0761(7) 0.30874(18)
C10 C 0.8219(6) 0.0628(9) 0.0725(3)
C11 C 0.750000 0.000000 0.0964(5)
C12 C 0.750000 0.000000 0.1456(4)
C13 C 0.7130(9) 0.1020(11) 0.1692(3)
H5 H 0.691346 0.170974 0.154107
C14 C 0.7099(10) 0.0964(11) 0.2157(3)
H6 H 0.679780 0.159607 0.231302
C15 C 0.750000 0.000000 0.2391(4)
C16 C 0.750000 0.000000 0.2885(5)
U3 U 0.750000 0.000000 0.38241(2)
F2 F 0.750000 1.000000 0.9601(3)
C17 C 0.3825(10) 0.6520(11) 0.9308(3)
C18 C 0.4560(9) 0.7244(9) 0.9546(3)
C19 C 0.4872(8) 0.8359(10) 0.9385(3)
H7 H 0.461216 0.864798 0.911778
C23 C 0.5565(8) 0.9045(10) 0.9617(3)
H9 H 0.575395 0.980348 0.950996
C24 C 0.4977(10) 0.6824(12) 0.9950(3)
F1_2 F 0.1055(4) 0.6165(6) 0.59532(15)
F2_2 F 0.250000 0.500000 0.4601(3)
C4_2 C 0.1769(7) 0.5689(9) 0.5256(3)
C5_2 C 0.0687(9) 0.7498(11) 0.5167(3)
H2_2 H 0.097073 0.780188 0.542731
C6_2 C 0.0989(7) 0.6394(10) 0.5016(3)
C7_2 C 0.250000 0.500000 0.5057(5)
C8 C 0.0565(8) 0.5955(10) 0.4617(3)
H3 H 0.075395 0.519652 0.450996
C10_2 C 0.1781(6) 0.5628(9) 0.5725(3)
C11_2 C 0.250000 0.500000 0.5964(5)
C12_2 C 0.250000 0.500000 0.6456(4)
C13_2 C 0.2870(9) 0.6020(11) 0.6692(3)
H5_2 H 0.308654 0.670974 0.654107
C14_2 C 0.2901(10) 0.5964(11) 0.7157(3)
H6_2 H 0.320220 0.659607 0.731302
C15_2 C 0.250000 0.500000 0.7391(4)
C16_2 C 0.250000 0.500000 0.7885(5)
C17_2 C 0.6175(10) 0.1520(11) 0.4308(3)
F3 F 0.3945(4) 0.3835(6) 0.59532(15)
O5 O 0.6255(7) 0.1676(8) 0.3887(2)
C18_2 C 0.5440(9) 0.2244(9) 0.4546(3)
C19_2 C 0.5128(8) 0.3359(10) 0.4385(3)
H7_2 H 0.538784 0.364798 0.411778
O6 O 0.6685(7) 0.0775(9) 0.4506(2)
C20 C 0.3231(7) 0.4311(9) 0.5256(3)
C21 C 0.4313(9) 0.2502(11) 0.5167(3)
H8 H 0.402927 0.219812 0.542731
C22 C 0.4011(7) 0.3606(10) 0.5016(3)
C23_2 C 0.4435(8) 0.4045(10) 0.4617(3)
H9_2 H 0.424605 0.480348 0.450996
C24_2 C 0.5023(10) 0.1824(12) 0.4950(3)
H10 H 0.523007 0.108428 0.506774
C25 C 0.3219(6) 0.4372(9) 0.5725(3)
C26 C 0.2130(9) 0.3980(11) 0.6692(3)
H11 H 0.191346 0.329026 0.654107
C27 C 0.2099(10) 0.4036(11) 0.7157(3)
H12 H 0.179780 0.340393 0.731302
O8_2 O 0.8478(8) 0.1086(8) 0.3816(2)
F2_3 F 0.750000 0.000000 0.9601(3)
C8_2 C 0.9435(8) 0.0955(10) 0.9617(3)
H3_2 H 0.924605 0.019652 0.950996
C7_3 C 0.750000 1.000000 0.0057(5)
C11_3 C 0.750000 1.000000 0.0964(5)
C12_3 C 0.750000 1.000000 0.1456(4)
C15_3 C 0.750000 1.000000 0.2391(4)
C16_3 C 0.750000 1.000000 0.2885(5)
F3_2 F 0.6055(4) 0.8835(6) 0.09532(15)
C20_2 C 0.6769(7) 0.9311(9) 0.0256(3)
C21_2 C 0.5687(9) 0.7502(11) 0.0167(3)
H8_2 H 0.597073 0.719812 0.042731
C22_2 C 0.5989(7) 0.8606(10) 0.0016(3)
O7 O 0.8034(5) 0.9239(7) 0.30874(18)
H10_2 H 0.476993 0.608428 0.006774
C25_2 C 0.6781(6) 0.9372(9) 0.0725(3)
C26_2 C 0.7870(9) 0.8980(11) 0.1692(3)
H11_2 H 0.808654 0.829026 0.154107
C27_2 C 0.7901(10) 0.9036(11) 0.2157(3)
H12_2 H 0.820220 0.840393 0.231302
U3_2 U 0.750000 1.000000 0.38241(2)
C1_2 C 0.8825(10) 0.8480(11) 0.4308(3)
O1_2 O 0.6522(8) 0.8914(8) 0.3816(2)
O2_2 O 0.8745(7) 0.8324(8) 0.3887(2)
C2_2 C 0.9560(9) 0.7756(9) 0.4546(3)
C3_2 C 0.9872(8) 0.6641(10) 0.4385(3)
H1_2 H 0.961216 0.635202 0.411778
O3_2 O 0.8315(7) 0.9225(9) 0.4506(2)
C9_2 C 0.9977(10) 0.8176(12) 0.4950(3)
H4_2 H 0.976993 0.891572 0.506774
U1_2 U 0.250000 -0.000000 0.61759(2)
C1_3 C 0.1175(10) 0.1520(11) 0.5692(3)
O1_3 O 0.3478(8) 0.1086(8) 0.6184(2)
O2_3 O 0.1255(7) 0.1676(8) 0.6113(2)
C2_3 C 0.0440(9) 0.2244(9) 0.5454(3)
C3_3 C 0.0128(8) 0.3359(10) 0.5615(3)
H1_3 H 0.038784 0.364798 0.588222
O3_3 O 0.1685(7) 0.0775(9) 0.5494(2)
C9_3 C 0.0023(10) 0.1824(12) 0.5050(3)
H4_3 H 0.023007 0.108428 0.493226
O12_2 O 0.1966(5) 0.0761(7) 0.69126(18)
C7_4 C 0.250000 0.000000 0.9943(5)
C11_4 C 0.250000 0.000000 0.9036(5)
C12_4 C 0.250000 0.000000 0.8544(4)
C15_4 C 0.250000 0.000000 0.7609(4)
C16_4 C 0.250000 0.000000 0.7115(5)
F3_3 F 0.3945(4) 0.1165(6) 0.90468(15)
C20_3 C 0.3231(7) 0.0689(9) 0.9744(3)
C21_3 C 0.4313(9) 0.2498(11) 0.9833(3)
H8_3 H 0.402927 0.280188 0.957269
C22_3 C 0.4011(7) 0.1394(10) 0.9984(3)
H10_3 H 0.523007 0.391572 0.993226
C25_3 C 0.3219(6) 0.0628(9) 0.9275(3)
C26_3 C 0.2130(9) 0.1020(11) 0.8308(3)
H11_3 H 0.191346 0.170974 0.845893
C27_3 C 0.2099(10) 0.0964(11) 0.7843(3)
H12_3 H 0.179780 0.159607 0.768698
U1_3 U 0.250000 1.000000 0.61759(2)
O8_3 O 0.1522(8) 0.8914(8) 0.6184(2)
O9_2 O 0.3745(7) 0.8324(8) 0.6113(2)
O10_2 O 0.3315(7) 0.9225(9) 0.5494(2)
O11_2 O 0.3034(5) 0.9239(7) 0.69126(18)
F1_3 F 0.8945(4) 0.3835(6) 0.40468(15)
F2_4 F 0.750000 0.500000 0.5399(3)
C4_3 C 0.8231(7) 0.4311(9) 0.4744(3)
C5_3 C 0.9313(9) 0.2502(11) 0.4833(3)
H2_3 H 0.902927 0.219812 0.457269
C6_3 C 0.9011(7) 0.3606(10) 0.4984(3)
C7_5 C 0.750000 0.500000 0.4943(5)
C8_3 C 0.9435(8) 0.4045(10) 0.5383(3)
H3_3 H 0.924605 0.480348 0.549004
O4_2 O 0.6966(5) 0.4239(7) 0.19126(18)
C10_3 C 0.8219(6) 0.4372(9) 0.4275(3)
C11_5 C 0.750000 0.500000 0.4036(5)
C12_5 C 0.750000 0.500000 0.3544(4)
C13_3 C 0.7130(9) 0.3980(11) 0.3308(3)
H5_3 H 0.691346 0.329026 0.345893
C14_3 C 0.7099(10) 0.4036(11) 0.2843(3)
H6_3 H 0.679780 0.340393 0.268698
C15_5 C 0.750000 0.500000 0.2609(4)
C16_5 C 0.750000 0.500000 0.2115(5)
C17_3 C 0.3825(10) 0.8480(11) 0.5692(3)
F3_4 F 0.6055(4) 0.6165(6) 0.40468(15)
C18_3 C 0.4560(9) 0.7756(9) 0.5454(3)
C19_3 C 0.4872(8) 0.6641(10) 0.5615(3)
H7_3 H 0.461216 0.635202 0.588222
C20_4 C 0.6769(7) 0.5689(9) 0.4744(3)
C21_4 C 0.5687(9) 0.7498(11) 0.4833(3)
H8_4 H 0.597073 0.780188 0.457269
C22_4 C 0.5989(7) 0.6394(10) 0.4984(3)
C23_3 C 0.5565(8) 0.5955(10) 0.5383(3)
H9_3 H 0.575395 0.519652 0.549004
O7_2 O 0.8034(5) 0.5761(7) 0.19126(18)
C24_3 C 0.4977(10) 0.8176(12) 0.5050(3)
H10_4 H 0.476993 0.891572 0.493226
C25_4 C 0.6781(6) 0.5628(9) 0.4275(3)
C26_4 C 0.7870(9) 0.6020(11) 0.3308(3)
H11_4 H 0.808654 0.670974 0.345893
C27_4 C 0.7901(10) 0.5964(11) 0.2843(3)
H12_4 H 0.820220 0.659607 0.268698
U3_3 U 0.750000 0.500000 0.11759(2)
F2_5 F 0.250000 0.000000 0.0399(3)
C17_4 C 0.6175(10) 0.3480(11) 0.0692(3)
O5_2 O 0.6255(7) 0.3324(8) 0.1113(2)
C18_4 C 0.5440(9) 0.2756(9) 0.0454(3)
C19_4 C 0.5128(8) 0.1641(10) 0.0615(3)
H7_4 H 0.538784 0.135202 0.088222
O6_2 O 0.6685(7) 0.4225(9) 0.0494(2)
C23_4 C 0.4435(8) 0.0955(10) 0.0383(3)
H9_4 H 0.424605 0.019652 0.049004
C24_4 C 0.5023(10) 0.3176(12) 0.0050(3)
F1_4 F 0.1055(4) 0.8835(6) 0.90468(15)
C4_4 C 0.1769(7) 0.9311(9) 0.9744(3)
C5_4 C 0.0687(9) 0.7502(11) 0.9833(3)
H2_4 H 0.097073 0.719812 0.957269
C6_4 C 0.0989(7) 0.8606(10) 0.9984(3)
C7_6 C 0.250000 1.000000 0.9943(5)
C10_4 C 0.1781(6) 0.9372(9) 0.9275(3)
C11_6 C 0.250000 1.000000 0.9036(5)
C12_6 C 0.250000 1.000000 0.8544(4)
C13_4 C 0.2870(9) 0.8980(11) 0.8308(3)
H5_4 H 0.308654 0.829026 0.845893
C14_4 C 0.2901(10) 0.9036(11) 0.7843(3)
H6_4 H 0.320220 0.840393 0.768698
C15_6 C 0.250000 1.000000 0.7609(4)
C16_6 C 0.250000 1.000000 0.7115(5)
C1_4 C 0.8825(10) 0.6520(11) 0.0692(3)
O1_4 O 0.6522(8) 0.6086(8) 0.1184(2)
O2_4 O 0.8745(7) 0.6676(8) 0.1113(2)
C2_4 C 0.9560(9) 0.7244(9) 0.0454(3)
C3_4 C 0.9872(8) 0.8359(10) 0.0615(3)
H1_4 H 0.961216 0.864798 0.088222
O3_4 O 0.8315(7) 0.5775(9) 0.0494(2)
C9_4 C 0.9977(10) 0.6824(12) 0.0050(3)
O8_4 O 0.8478(8) 0.3914(8) 0.1184(2)
F2_6 F 0.250000 1.000000 0.0399(3)
C8_4 C 0.0565(8) 0.9045(10) 0.0383(3)
H3_4 H 0.075395 0.980348 0.049004
H4_4 H 0.976993 0.608428 0.993226
loop_
_geom_bond_atom_site_label_1
_geom_bond_atom_site_label_2
_geom_bond_site_symmetry_1
_geom_bond_site_symmetry_2
U1 O1 1_555 1_555
C1 O2 1_555 1_555
O2 U1 1_555 1_555
C2 C1 1_555 1_555
C3 C2 1_555 1_555
H1 C3 1_555 1_555
O3 U1 1_555 1_555
C9 C2 1_555 1_555
O8 U1 1_555 1_555
O9 U1 1_555 1_555
O10 U1 1_555 1_555
O11 U1 1_555 1_555
O12 U1 1_555 1_555
C1 O3 1_555 1_555
F1 C10 1_555 1_555
C4 C6 1_555 1_555
C5 H2 1_555 1_555
C6 C5 1_555 1_555
C7 C4 1_555 1_555
O4 C16 1_555 1_555
C10 C4 1_555 1_555
C11 C10 1_555 1_555
C12 C11 1_555 1_555
C13 C12 1_555 1_555
H5 C13 1_555 1_555
C14 C13 1_555 1_555
H6 C14 1_555 1_555
C15 C14 1_555 1_555
C16 C15 1_555 1_555
U3 O4 1_555 1_555
C17 O9 1_555 1_555
C18 C17 1_555 1_555
C19 C18 1_555 1_555
H7 C19 1_555 1_555
O10 C17 1_555 1_555
C23 C19 1_555 1_555
H9 C23 1_555 1_555
C24 C18 1_555 1_555
F1_2 C10_2 1_555 1_555
F2_2 C7_2 1_555 1_555
C4_2 C6_2 1_555 1_555
C5_2 H2_2 1_555 1_555
C6_2 C5_2 1_555 1_555
C7_2 C4_2 1_555 1_555
H3 C8 1_555 1_555
O11 C16_2 1_555 1_555
C10_2 C4_2 1_555 1_555
C11_2 C10_2 1_555 1_555
C12_2 C11_2 1_555 1_555
C13_2 C12_2 1_555 1_555
H5_2 C13_2 1_555 1_555
C14_2 C13_2 1_555 1_555
H6_2 C14_2 1_555 1_555
C15_2 C14_2 1_555 1_555
C16_2 C15_2 1_555 1_555
C17_2 O5 1_555 1_555
F3 C25 1_555 1_555
O5 U3 1_555 1_555
C18_2 C17_2 1_555 1_555
C19_2 C18_2 1_555 1_555
H7_2 C19_2 1_555 1_555
O6 C17_2 1_555 1_555
C20 C7_2 1_555 1_555
C21 H8 1_555 1_555
C22 C20 1_555 1_555
C23_2 C19_2 1_555 1_555
H9_2 C23_2 1_555 1_555
O12 C16_2 1_555 1_555
C24_2 C18_2 1_555 1_555
H10 C24_2 1_555 1_555
C25 C11_2 1_555 1_555
C26 C12_2 1_555 1_555
H11 C26 1_555 1_555
C27 C15_2 1_555 1_555
H12 C27 1_555 1_555
U3 O6 1_555 1_555
C6_2 C8 1_555 1_555
C20 C25 1_555 1_555
C21 C22 1_555 1_555
C21 C24_2 1_555 1_555
C22 C23_2 1_555 1_555
C26 C27 1_555 1_555
O8_2 U3 1_555 1_555
H3_2 C8_2 1_555 1_555
C12_3 C11_3 1_555 1_555
C16_3 C15_3 1_555 1_555
F3_2 C25_2 1_555 1_555
C20_2 C7_3 1_555 1_555
C21_2 H8_2 1_555 1_555
C22_2 C20_2 1_555 1_555
O7 C16_3 1_555 1_555
C25_2 C11_3 1_555 1_555
C26_2 C12_3 1_555 1_555
H11_2 C26_2 1_555 1_555
C27_2 C15_3 1_555 1_555
H12_2 C27_2 1_555 1_555
C20_2 C25_2 1_555 1_555
C21_2 C22_2 1_555 1_555
O7 U3_2 1_555 1_555
C26_2 C27_2 1_555 1_555
U3_2 O1_2 1_555 1_555
C1_2 O2_2 1_555 1_555
O2_2 U3_2 1_555 1_555
C2_2 C1_2 1_555 1_555
C3_2 C2_2 1_555 1_555
H1_2 C3_2 1_555 1_555
O3_2 U3_2 1_555 1_555
C9_2 C2_2 1_555 1_555
H4_2 C9_2 1_555 1_555
C1_2 O3_2 1_555 1_555
U1_2 O1_3 1_555 1_555
C1_3 O2_3 1_555 1_555
O2_3 U1_2 1_555 1_555
C2_3 C1_3 1_555 1_555
C3_3 C2_3 1_555 1_555
H1_3 C3_3 1_555 1_555
O3_3 U1_2 1_555 1_555
C9_3 C2_3 1_555 1_555
H4_3 C9_3 1_555 1_555
O12_2 U1_2 1_555 1_555
C1_3 O3_3 1_555 1_555
C12_4 C11_4 1_555 1_555
C16_4 C15_4 1_555 1_555
F3_3 C25_3 1_555 1_555
C20_3 C7_4 1_555 1_555
C21_3 H8_3 1_555 1_555
C22_3 C20_3 1_555 1_555
O12_2 C16_4 1_555 1_555
C25_3 C11_4 1_555 1_555
C26_3 C12_4 1_555 1_555
H11_3 C26_3 1_555 1_555
C27_3 C15_4 1_555 1_555
H12_3 C27_3 1_555 1_555
C20_3 C25_3 1_555 1_555
C21_3 C22_3 1_555 1_555
C26_3 C27_3 1_555 1_555
O8_3 U1_3 1_555 1_555
O9_2 U1_3 1_555 1_555
O10_2 U1_3 1_555 1_555
O11_2 U1_3 1_555 1_555
F1_3 C10_3 1_555 1_555
F2_4 C7_5 1_555 1_555
C4_3 C6_3 1_555 1_555
C5_3 H2_3 1_555 1_555
C6_3 C5_3 1_555 1_555
C7_5 C4_3 1_555 1_555
H3_3 C8_3 1_555 1_555
O4_2 C16_5 1_555 1_555
C10_3 C4_3 1_555 1_555
C11_5 C10_3 1_555 1_555
C12_5 C11_5 1_555 1_555
C13_3 C12_5 1_555 1_555
H5_3 C13_3 1_555 1_555
C14_3 C13_3 1_555 1_555
H6_3 C14_3 1_555 1_555
C15_5 C14_3 1_555 1_555
C16_5 C15_5 1_555 1_555
C17_3 O9_2 1_555 1_555
F3_4 C25_4 1_555 1_555
C18_3 C17_3 1_555 1_555
C19_3 C18_3 1_555 1_555
H7_3 C19_3 1_555 1_555
O10_2 C17_3 1_555 1_555
C20_4 C7_5 1_555 1_555
C21_4 H8_4 1_555 1_555
C22_4 C20_4 1_555 1_555
C23_3 C19_3 1_555 1_555
H9_3 C23_3 1_555 1_555
O7_2 C16_5 1_555 1_555
C24_3 C18_3 1_555 1_555
H10_4 C24_3 1_555 1_555
C25_4 C11_5 1_555 1_555
C26_4 C12_5 1_555 1_555
H11_4 C26_4 1_555 1_555
C27_4 C15_5 1_555 1_555
H12_4 C27_4 1_555 1_555
U3_3 O4_2 1_555 1_555
C6_3 C8_3 1_555 1_555
C20_4 C25_4 1_555 1_555
C21_4 C22_4 1_555 1_555
C21_4 C24_3 1_555 1_555
C22_4 C23_3 1_555 1_555
O7_2 U3_3 1_555 1_555
C26_4 C27_4 1_555 1_555
C17_4 O5_2 1_555 1_555
O5_2 U3_3 1_555 1_555
C18_4 C17_4 1_555 1_555
C19_4 C18_4 1_555 1_555
H7_4 C19_4 1_555 1_555
O6_2 C17_4 1_555 1_555
C23_4 C19_4 1_555 1_555
H9_4 C23_4 1_555 1_555
C24_4 C18_4 1_555 1_555
U3_3 O6_2 1_555 1_555
F1_4 C10_4 1_555 1_555
C4_4 C6_4 1_555 1_555
C5_4 H2_4 1_555 1_555
C6_4 C5_4 1_555 1_555
C7_6 C4_4 1_555 1_555
O11_2 C16_6 1_555 1_555
C10_4 C4_4 1_555 1_555
C11_6 C10_4 1_555 1_555
C12_6 C11_6 1_555 1_555
C13_4 C12_6 1_555 1_555
H5_4 C13_4 1_555 1_555
C14_4 C13_4 1_555 1_555
H6_4 C14_4 1_555 1_555
C15_6 C14_4 1_555 1_555
C16_6 C15_6 1_555 1_555
U3_3 O1_4 1_555 1_555
C1_4 O2_4 1_555 1_555
O2_4 U3_3 1_555 1_555
C2_4 C1_4 1_555 1_555
C3_4 C2_4 1_555 1_555
H1_4 C3_4 1_555 1_555
O3_4 U3_3 1_555 1_555
C9_4 C2_4 1_555 1_555
O8_4 U3_3 1_555 1_555
C1_4 O3_4 1_555 1_555
H3_4 C8_4 1_555 1_555

#END
