
###############################################################################
#
# This file contains modified crystal structure data generated from the
# MOF subset of the Cambridge Structural Database (CSD) v543 
# hosted by the Cambridge Crystallographic Data Centre (CCDC).
#
# This work is licensed under the Creative Commons
# Attribution-NonCommercial-ShareAlike 4.0 International License.
# To view a copy of this license, visit
# http://creativecommons.org/licenses/by-nc-sa/4.0/
# or send a letter to
# Creative Commons, PO Box 1866, Mountain View, CA 94042, USA.
#
# CIF created using the CSD Python API on 29 September 2022
# The structure has been converted into the P1 space group
# The structure has a 3D framework
# The original CSD entry TATTOB is in the orthorhombic crystal system
# The framework has been calculated to contain at least 10.0% void space
# The void calculation uses a probe of radius 1.32A, grid spacing 0.4
# The framework is charged, counterions have been retained in the structure
#
###############################################################################

data_TATTOB
_chemical_formula_moiety         '(C118 H48 F14 O32 U6 6-)n'
_symmetry_cell_setting           triclinic
_symmetry_space_group_name_H-M   'P 1'
_symmetry_Int_Tables_number      1
_space_group_name_Hall           'P 1'
loop_
_symmetry_equiv_pos_site_id
_symmetry_equiv_pos_as_xyz
1 x,y,z
_cell_length_a                   12.9279(5)
_cell_length_b                   11.5597(4)
_cell_length_c                   30.0092(11)
_cell_angle_alpha                90
_cell_angle_beta                 90
_cell_angle_gamma                90
_cell_volume                     4484.65
loop_
_atom_site_label
_atom_site_type_symbol
_atom_site_fract_x
_atom_site_fract_y
_atom_site_fract_z
F1 F 0.3914(4) 0.1249(5) 0.09234(15)
H1 H 0.513737 0.390758 0.002081
C7 C 0.4223(8) 0.2529(8) 0.0134(3)
H4 H 0.389318 0.283409 0.038277
C8 C 0.3231(6) 0.0703(7) 0.0231(2)
C9 C 0.250000 0.000000 0.0017(4)
C10 C 0.3200(5) 0.0640(7) 0.0693(2)
C11 C 0.250000 0.000000 0.0938(3)
C12 C 0.250000 -0.000000 0.1438(3)
C13 C 0.2282(7) 0.1020(7) 0.1665(3)
H5 H 0.214736 0.170202 0.151095
C14 C 0.2270(8) 0.0994(7) 0.2129(3)
H6 H 0.210217 0.166372 0.228463
C15 C 0.250000 0.000000 0.2362(3)
C16 C 0.250000 0.000000 0.2865(4)
O7 O 0.2012(6) 0.0786(6) 0.30703(18)
U3 U 0.250000 -0.000000 0.38069(2)
C17 C 0.1182(8) 0.1515(8) 0.4291(3)
O5 O 0.1687(7) 0.0757(7) 0.4494(2)
C18 C 0.0423(7) 0.2225(8) 0.4527(3)
H7 H 0.013737 0.109242 0.502081
C21 C 0.0176(6) 0.3316(8) 0.4377(3)
H8 H 0.048069 0.359406 0.411805
O6 O 0.1311(6) 0.1665(6) 0.3868(2)
O1 O 0.3534(6) 0.0983(7) 0.3803(3)
U1 U 0.750000 0.500000 0.88069(2)
O1_2 O 0.6466(6) 0.5983(7) 0.8803(3)
C1 C 0.6182(8) 0.3485(8) 0.9291(3)
F2 F 0.250000 0.000000 0.9569(2)
O2 O 0.6687(7) 0.4243(7) 0.9494(2)
C2 C 0.5423(7) 0.2775(8) 0.9527(3)
C3 C 0.3976(6) 0.1418(7) 0.9989(2)
C4 C 0.4957(10) 0.3183(9) 0.9911(3)
C5 C 0.5176(6) 0.1684(8) 0.9377(3)
H2 H 0.548069 0.140594 0.911805
O3 O 0.6311(6) 0.3335(6) 0.8868(2)
C6 C 0.4482(6) 0.0998(7) 0.9606(3)
H3 H 0.434683 0.025165 0.950585
O8 O 0.8534(6) 0.4017(7) 0.8803(3)
O9 O 0.8313(7) 0.5757(7) 0.9494(2)
O10 O 0.8689(6) 0.6665(6) 0.8868(2)
O11 O 0.7012(6) 0.4214(6) 0.80703(18)
O12 O 0.7988(6) 0.5786(6) 0.80703(18)
O4 O 0.2988(6) 0.9214(6) 0.30703(18)
C9_2 C 0.250000 1.000000 0.0017(4)
C11_2 C 0.250000 1.000000 0.0938(3)
C12_2 C 0.250000 1.000000 0.1438(3)
C15_2 C 0.250000 1.000000 0.2362(3)
C16_2 C 0.250000 1.000000 0.2865(4)
F3 F 0.1086(4) 0.8751(5) 0.09234(15)
C23 C 0.0777(8) 0.7471(8) 0.0134(3)
H10 H 0.110682 0.716591 0.038277
C24 C 0.1769(6) 0.9297(7) 0.0231(2)
C25 C 0.1800(5) 0.9360(7) 0.0693(2)
C26 C 0.2718(7) 0.8980(7) 0.1665(3)
H11 H 0.285264 0.829798 0.151095
C27 C 0.2730(8) 0.9006(7) 0.2129(3)
H12 H 0.289783 0.833628 0.228463
U3_2 U 0.250000 1.000000 0.38069(2)
C17_2 C 0.8818(8) 0.6515(8) 0.9291(3)
C18_2 C 0.9577(7) 0.7225(8) 0.9527(3)
C21_2 C 0.9824(6) 0.8316(8) 0.9377(3)
H8_2 H 0.951931 0.859406 0.911805
C1_2 C 0.3818(8) 0.8485(8) 0.4291(3)
F1_2 F 0.6086(4) 0.6249(5) 0.59234(15)
F2_2 F 0.750000 0.500000 0.4569(2)
O2_2 O 0.3313(7) 0.9243(7) 0.4494(2)
C2_2 C 0.4577(7) 0.7775(8) 0.4527(3)
C3_2 C 0.6024(6) 0.6418(7) 0.4989(2)
C4_2 C 0.5043(10) 0.8183(9) 0.4911(3)
H1_2 H 0.486263 0.890758 0.502081
C5_2 C 0.4824(6) 0.6684(8) 0.4377(3)
H2_2 H 0.451931 0.640594 0.411805
O3_2 O 0.3689(6) 0.8335(6) 0.3868(2)
C6_2 C 0.5518(6) 0.5998(7) 0.4606(3)
H3_2 H 0.565317 0.525165 0.450585
C7_2 C 0.5777(8) 0.7529(8) 0.5134(3)
H4_2 H 0.610682 0.783409 0.538277
C8_2 C 0.6769(6) 0.5703(7) 0.5231(2)
C9_3 C 0.750000 0.500000 0.5017(4)
C10_2 C 0.6800(5) 0.5640(7) 0.5693(2)
C11_3 C 0.750000 0.500000 0.5938(3)
C12_3 C 0.750000 0.500000 0.6438(3)
C13_2 C 0.7718(7) 0.6020(7) 0.6665(3)
H5_2 H 0.785264 0.670202 0.651095
C14_2 C 0.7730(8) 0.5994(7) 0.7129(3)
H6_2 H 0.789783 0.666372 0.728463
C15_3 C 0.750000 0.500000 0.7362(3)
C16_3 C 0.750000 0.500000 0.7865(4)
F3_2 F 0.8914(4) 0.3751(5) 0.59234(15)
C19 C 0.8976(6) 0.3582(7) 0.4989(2)
C20 C 0.9957(10) 0.1817(9) 0.4911(3)
C22 C 0.9482(6) 0.4002(7) 0.4606(3)
H9 H 0.934683 0.474835 0.450585
C23_2 C 0.9223(8) 0.2471(8) 0.5134(3)
H10_2 H 0.889318 0.216591 0.538277
C24_2 C 0.8231(6) 0.4297(7) 0.5231(2)
C25_2 C 0.8200(5) 0.4360(7) 0.5693(2)
C26_2 C 0.7282(7) 0.3980(7) 0.6665(3)
H11_2 H 0.714736 0.329798 0.651095
C27_2 C 0.7270(8) 0.4006(7) 0.7129(3)
H12_2 H 0.710217 0.333628 0.728463
O8_2 O 0.1466(6) 0.9017(7) 0.3803(3)
F2_3 F 0.250000 1.000000 0.9569(2)
C19_2 C 0.1024(6) 0.8582(7) 0.9989(2)
C20_2 C 0.0043(10) 0.6817(9) 0.9911(3)
C22_2 C 0.0518(6) 0.9002(7) 0.9606(3)
H9_2 H 0.065317 0.974835 0.950585
H7_2 H 0.986263 0.609242 0.002081
U1_2 U 0.750000 -0.000000 0.61931(2)
C1_3 C 0.6182(8) 0.1515(8) 0.5709(3)
F1_3 F 0.3914(4) 0.3751(5) 0.40766(15)
F2_4 F 0.250000 0.500000 0.5431(2)
O2_3 O 0.6687(7) 0.0757(7) 0.5506(2)
C2_3 C 0.5423(7) 0.2225(8) 0.5473(3)
C3_3 C 0.3976(6) 0.3582(7) 0.5011(2)
C4_3 C 0.4957(10) 0.1817(9) 0.5089(3)
H1_3 H 0.513737 0.109242 0.497919
C5_3 C 0.5176(6) 0.3316(8) 0.5623(3)
H2_3 H 0.548069 0.359406 0.588195
O3_3 O 0.6311(6) 0.1665(6) 0.6132(2)
C6_3 C 0.4482(6) 0.4002(7) 0.5394(3)
H3_3 H 0.434683 0.474835 0.549415
O4_2 O 0.2988(6) 0.5786(6) 0.19297(18)
C7_3 C 0.4223(8) 0.2471(8) 0.4866(3)
H4_3 H 0.389318 0.216591 0.461723
C8_3 C 0.3231(6) 0.4297(7) 0.4769(2)
C9_4 C 0.250000 0.500000 0.4983(4)
C10_3 C 0.3200(5) 0.4360(7) 0.4307(2)
C11_4 C 0.250000 0.500000 0.4062(3)
C12_4 C 0.250000 0.500000 0.3562(3)
C13_3 C 0.2282(7) 0.3980(7) 0.3335(3)
H5_3 H 0.214736 0.329798 0.348905
C14_3 C 0.2270(8) 0.4006(7) 0.2871(3)
H6_3 H 0.210217 0.333628 0.271537
C15_4 C 0.250000 0.500000 0.2638(3)
C16_4 C 0.250000 0.500000 0.2135(4)
F3_3 F 0.1086(4) 0.6249(5) 0.40766(15)
C19_3 C 0.1024(6) 0.6418(7) 0.5011(2)
C20_3 C 0.0043(10) 0.8183(9) 0.5089(3)
C22_3 C 0.0518(6) 0.5998(7) 0.5394(3)
H9_3 H 0.065317 0.525165 0.549415
O7_2 O 0.2012(6) 0.4214(6) 0.19297(18)
C23_3 C 0.0777(8) 0.7529(8) 0.4866(3)
H10_3 H 0.110682 0.783409 0.461723
C24_3 C 0.1769(6) 0.5703(7) 0.4769(2)
C25_3 C 0.1800(5) 0.5640(7) 0.4307(2)
C26_3 C 0.2718(7) 0.6020(7) 0.3335(3)
H11_3 H 0.285264 0.670202 0.348905
C27_3 C 0.2730(8) 0.5994(7) 0.2871(3)
H12_3 H 0.289783 0.666372 0.271537
O8_3 O 0.8534(6) 0.0983(7) 0.6197(3)
U3_3 U 0.250000 0.500000 0.11931(2)
O11_2 O 0.7012(6) 0.0786(6) 0.69297(18)
C17_3 C 0.1182(8) 0.3485(8) 0.0709(3)
O5_2 O 0.1687(7) 0.4243(7) 0.0506(2)
C18_3 C 0.0423(7) 0.2775(8) 0.0473(3)
C21_3 C 0.0176(6) 0.1684(8) 0.0623(3)
H8_3 H 0.048069 0.140594 0.088195
O6_2 O 0.1311(6) 0.3335(6) 0.1132(2)
C9_5 C 0.750000 0.000000 0.9983(4)
C11_5 C 0.750000 0.000000 0.9062(3)
C12_5 C 0.750000 -0.000000 0.8562(3)
C15_5 C 0.750000 0.000000 0.7638(3)
C16_5 C 0.750000 0.000000 0.7135(4)
F3_4 F 0.8914(4) 0.1249(5) 0.90766(15)
C23_4 C 0.9223(8) 0.2529(8) 0.9866(3)
H10_4 H 0.889318 0.283409 0.961723
C24_4 C 0.8231(6) 0.0703(7) 0.9769(2)
C25_4 C 0.8200(5) 0.0640(7) 0.9307(2)
C26_4 C 0.7282(7) 0.1020(7) 0.8335(3)
H11_4 H 0.714736 0.170202 0.848905
C27_4 C 0.7270(8) 0.0994(7) 0.7871(3)
H12_4 H 0.710217 0.166372 0.771537
O1_3 O 0.3534(6) 0.4017(7) 0.1197(3)
C1_4 C 0.3818(8) 0.6515(8) 0.0709(3)
F2_5 F 0.750000 1.000000 0.0431(2)
O2_4 O 0.3313(7) 0.5757(7) 0.0506(2)
C2_4 C 0.4577(7) 0.7225(8) 0.0473(3)
C3_4 C 0.6024(6) 0.8582(7) 0.0011(2)
C4_4 C 0.5043(10) 0.6817(9) 0.0089(3)
C5_4 C 0.4824(6) 0.8316(8) 0.0623(3)
H2_4 H 0.451931 0.859406 0.088195
O3_4 O 0.3689(6) 0.6665(6) 0.1132(2)
C6_4 C 0.5518(6) 0.9002(7) 0.0394(3)
H3_4 H 0.565317 0.974835 0.049415
O8_4 O 0.1466(6) 0.5983(7) 0.1197(3)
U1_3 U 0.750000 1.000000 0.61931(2)
O1_4 O 0.6466(6) 0.9017(7) 0.6197(3)
O9_2 O 0.8313(7) 0.9243(7) 0.5506(2)
O10_2 O 0.8689(6) 0.8335(6) 0.6132(2)
O12_2 O 0.7988(6) 0.9214(6) 0.69297(18)
C17_4 C 0.8818(8) 0.8485(8) 0.5709(3)
C18_4 C 0.9577(7) 0.7775(8) 0.5473(3)
H7_3 H 0.986263 0.890758 0.497919
C21_4 C 0.9824(6) 0.6684(8) 0.5623(3)
H8_4 H 0.951931 0.640594 0.588195
F1_4 F 0.6086(4) 0.8751(5) 0.90766(15)
H1_4 H 0.486263 0.609242 0.997919
C7_4 C 0.5777(8) 0.7471(8) 0.9866(3)
H4_4 H 0.610682 0.716591 0.961723
C8_4 C 0.6769(6) 0.9297(7) 0.9769(2)
C9_6 C 0.750000 1.000000 0.9983(4)
C10_4 C 0.6800(5) 0.9360(7) 0.9307(2)
C11_6 C 0.750000 1.000000 0.9062(3)
C12_6 C 0.750000 1.000000 0.8562(3)
C13_4 C 0.7718(7) 0.8980(7) 0.8335(3)
H5_4 H 0.785264 0.829798 0.848905
C14_4 C 0.7730(8) 0.9006(7) 0.7871(3)
H6_4 H 0.789783 0.833628 0.771537
C15_6 C 0.750000 1.000000 0.7638(3)
C16_6 C 0.750000 1.000000 0.7135(4)
H7_4 H 0.013737 0.390758 0.997919
F2_6 F 0.750000 0.000000 0.0431(2)
C19_4 C 0.8976(6) 0.1418(7) 0.0011(2)
C20_4 C 0.9957(10) 0.3183(9) 0.0089(3)
C22_4 C 0.9482(6) 0.0998(7) 0.0394(3)
H9_4 H 0.934683 0.025165 0.049415
loop_
_geom_bond_atom_site_label_1
_geom_bond_atom_site_label_2
_geom_bond_site_symmetry_1
_geom_bond_site_symmetry_2
F1 C10 1_555 1_555
H4 C7 1_555 1_555
C9 C8 1_555 1_555
C10 C8 1_555 1_555
C11 C10 1_555 1_555
C12 C11 1_555 1_555
C13 C12 1_555 1_555
H5 C13 1_555 1_555
C14 C13 1_555 1_555
H6 C14 1_555 1_555
C15 C14 1_555 1_555
C16 C15 1_555 1_555
O7 C16 1_555 1_555
O7 U3 1_555 1_555
C17 O5 1_555 1_555
O5 U3 1_555 1_555
C18 C17 1_555 1_555
C21 C18 1_555 1_555
H8 C21 1_555 1_555
O6 C17 1_555 1_555
U3 O6 1_555 1_555
U3 O1 1_555 1_555
U1 O1_2 1_555 1_555
C1 O2 1_555 1_555
O2 U1 1_555 1_555
C2 C1 1_555 1_555
C3 C6 1_555 1_555
C4 C2 1_555 1_555
C5 C2 1_555 1_555
H2 C5 1_555 1_555
O3 U1 1_555 1_555
C6 C5 1_555 1_555
H3 C6 1_555 1_555
O8 U1 1_555 1_555
O9 U1 1_555 1_555
O10 U1 1_555 1_555
O11 U1 1_555 1_555
O12 U1 1_555 1_555
C1 O3 1_555 1_555
O4 C16_2 1_555 1_555
C12_2 C11_2 1_555 1_555
C16_2 C15_2 1_555 1_555
F3 C25 1_555 1_555
H10 C23 1_555 1_555
C24 C9_2 1_555 1_555
C25 C11_2 1_555 1_555
C26 C12_2 1_555 1_555
H11 C26 1_555 1_555
C27 C15_2 1_555 1_555
H12 C27 1_555 1_555
U3_2 O4 1_555 1_555
C24 C25 1_555 1_555
C26 C27 1_555 1_555
C17_2 O9 1_555 1_555
C18_2 C17_2 1_555 1_555
C21_2 C18_2 1_555 1_555
H8_2 C21_2 1_555 1_555
O10 C17_2 1_555 1_555
C1_2 O2_2 1_555 1_555
F1_2 C10_2 1_555 1_555
F2_2 C9_3 1_555 1_555
O2_2 U3_2 1_555 1_555
C2_2 C1_2 1_555 1_555
C3_2 C6_2 1_555 1_555
C4_2 C2_2 1_555 1_555
H1_2 C4_2 1_555 1_555
C5_2 C2_2 1_555 1_555
H2_2 C5_2 1_555 1_555
O3_2 U3_2 1_555 1_555
C6_2 C5_2 1_555 1_555
H3_2 C6_2 1_555 1_555
O11 C16_3 1_555 1_555
C7_2 C3_2 1_555 1_555
H4_2 C7_2 1_555 1_555
C8_2 C3_2 1_555 1_555
C9_3 C8_2 1_555 1_555
C10_2 C8_2 1_555 1_555
C11_3 C10_2 1_555 1_555
C12_3 C11_3 1_555 1_555
C13_2 C12_3 1_555 1_555
H5_2 C13_2 1_555 1_555
C14_2 C13_2 1_555 1_555
H6_2 C14_2 1_555 1_555
C15_3 C14_2 1_555 1_555
C16_3 C15_3 1_555 1_555
F3_2 C25_2 1_555 1_555
C19 C22 1_555 1_555
H9 C22 1_555 1_555
O12 C16_3 1_555 1_555
C23_2 C19 1_555 1_555
H10_2 C23_2 1_555 1_555
C24_2 C9_3 1_555 1_555
C25_2 C11_3 1_555 1_555
C26_2 C12_3 1_555 1_555
H11_2 C26_2 1_555 1_555
C27_2 C15_3 1_555 1_555
H12_2 C27_2 1_555 1_555
O8_2 U3_2 1_555 1_555
C1_2 O3_2 1_555 1_555
C4_2 C7_2 1_555 1_555
C19 C24_2 1_555 1_555
C20 C23_2 1_555 1_555
C24_2 C25_2 1_555 1_555
C26_2 C27_2 1_555 1_555
C19_2 C22_2 1_555 1_555
H9_2 C22_2 1_555 1_555
C1_3 O2_3 1_555 1_555
F1_3 C10_3 1_555 1_555
F2_4 C9_4 1_555 1_555
O2_3 U1_2 1_555 1_555
C2_3 C1_3 1_555 1_555
C3_3 C6_3 1_555 1_555
C4_3 C2_3 1_555 1_555
H1_3 C4_3 1_555 1_555
C5_3 C2_3 1_555 1_555
H2_3 C5_3 1_555 1_555
O3_3 U1_2 1_555 1_555
C6_3 C5_3 1_555 1_555
H3_3 C6_3 1_555 1_555
O4_2 C16_4 1_555 1_555
C7_3 C3_3 1_555 1_555
H4_3 C7_3 1_555 1_555
C8_3 C3_3 1_555 1_555
C9_4 C8_3 1_555 1_555
C10_3 C8_3 1_555 1_555
C11_4 C10_3 1_555 1_555
C12_4 C11_4 1_555 1_555
C13_3 C12_4 1_555 1_555
H5_3 C13_3 1_555 1_555
C14_3 C13_3 1_555 1_555
H6_3 C14_3 1_555 1_555
C15_4 C14_3 1_555 1_555
C16_4 C15_4 1_555 1_555
F3_3 C25_3 1_555 1_555
C19_3 C22_3 1_555 1_555
H9_3 C22_3 1_555 1_555
O7_2 C16_4 1_555 1_555
C23_3 C19_3 1_555 1_555
H10_3 C23_3 1_555 1_555
C24_3 C9_4 1_555 1_555
C25_3 C11_4 1_555 1_555
C26_3 C12_4 1_555 1_555
H11_3 C26_3 1_555 1_555
C27_3 C15_4 1_555 1_555
H12_3 C27_3 1_555 1_555
O8_3 U1_2 1_555 1_555
U3_3 O4_2 1_555 1_555
O11_2 U1_2 1_555 1_555
C1_3 O3_3 1_555 1_555
C4_3 C7_3 1_555 1_555
C19_3 C24_3 1_555 1_555
C20_3 C23_3 1_555 1_555
O7_2 U3_3 1_555 1_555
C24_3 C25_3 1_555 1_555
C26_3 C27_3 1_555 1_555
C17_3 O5_2 1_555 1_555
O5_2 U3_3 1_555 1_555
C18_3 C17_3 1_555 1_555
C21_3 C18_3 1_555 1_555
H8_3 C21_3 1_555 1_555
O6_2 C17_3 1_555 1_555
U3_3 O6_2 1_555 1_555
O11_2 C16_5 1_555 1_555
C12_5 C11_5 1_555 1_555
C16_5 C15_5 1_555 1_555
F3_4 C25_4 1_555 1_555
H10_4 C23_4 1_555 1_555
C24_4 C9_5 1_555 1_555
C25_4 C11_5 1_555 1_555
C26_4 C12_5 1_555 1_555
H11_4 C26_4 1_555 1_555
C27_4 C15_5 1_555 1_555
H12_4 C27_4 1_555 1_555
C24_4 C25_4 1_555 1_555
C26_4 C27_4 1_555 1_555
U3_3 O1_3 1_555 1_555
C1_4 O2_4 1_555 1_555
O2_4 U3_3 1_555 1_555
C2_4 C1_4 1_555 1_555
C3_4 C6_4 1_555 1_555
C4_4 C2_4 1_555 1_555
C5_4 C2_4 1_555 1_555
H2_4 C5_4 1_555 1_555
O3_4 U3_3 1_555 1_555
C6_4 C5_4 1_555 1_555
H3_4 C6_4 1_555 1_555
O8_4 U3_3 1_555 1_555
C1_4 O3_4 1_555 1_555
U1_3 O1_4 1_555 1_555
O9_2 U1_3 1_555 1_555
O10_2 U1_3 1_555 1_555
O12_2 U1_3 1_555 1_555
C17_4 O9_2 1_555 1_555
C18_4 C17_4 1_555 1_555
C21_4 C18_4 1_555 1_555
H8_4 C21_4 1_555 1_555
O10_2 C17_4 1_555 1_555
F1_4 C10_4 1_555 1_555
H4_4 C7_4 1_555 1_555
C9_6 C8_4 1_555 1_555
C10_4 C8_4 1_555 1_555
C11_6 C10_4 1_555 1_555
C12_6 C11_6 1_555 1_555
C13_4 C12_6 1_555 1_555
H5_4 C13_4 1_555 1_555
C14_4 C13_4 1_555 1_555
H6_4 C14_4 1_555 1_555
C15_6 C14_4 1_555 1_555
C16_6 C15_6 1_555 1_555
O12_2 C16_6 1_555 1_555
C19_4 C22_4 1_555 1_555
H9_4 C22_4 1_555 1_555

#END
