
###############################################################################
#
# This file contains modified crystal structure data generated from the
# MOF subset of the Cambridge Structural Database (CSD) v543 
# hosted by the Cambridge Crystallographic Data Centre (CCDC).
#
# This work is licensed under the Creative Commons
# Attribution-NonCommercial-ShareAlike 4.0 International License.
# To view a copy of this license, visit
# http://creativecommons.org/licenses/by-nc-sa/4.0/
# or send a letter to
# Creative Commons, PO Box 1866, Mountain View, CA 94042, USA.
#
# CIF created using the CSD Python API on 29 September 2022
# The structure has been converted into the P1 space group
# The structure has a 3D framework
# The original CSD entry TATWAQ is in the orthorhombic crystal system
# The framework has been calculated to contain at least 10.0% void space
# The void calculation uses a probe of radius 1.32A, grid spacing 0.4
# The framework is charged, counterions have been retained in the structure
#
###############################################################################

data_TATWAQ
_chemical_formula_moiety         '(C118 H48 F14 O32 U6 6-)n'
_symmetry_cell_setting           triclinic
_symmetry_space_group_name_H-M   'P 1'
_symmetry_Int_Tables_number      1
_space_group_name_Hall           'P 1'
loop_
_symmetry_equiv_pos_site_id
_symmetry_equiv_pos_as_xyz
1 x,y,z
_cell_length_a                   12.9023(5)
_cell_length_b                   11.5845(4)
_cell_length_c                   30.0008(10)
_cell_angle_alpha                90
_cell_angle_beta                 90
_cell_angle_gamma                90
_cell_volume                     4484.12
loop_
_atom_site_label
_atom_site_type_symbol
_atom_site_fract_x
_atom_site_fract_y
_atom_site_fract_z
U1 U 0.750000 0.000000 0.61928(2)
O8 O 0.6461(5) 0.0948(5) 0.62020(17)
O9 O 0.8299(5) 0.0762(5) 0.55088(14)
O10 O 0.8692(4) 0.1656(4) 0.61273(13)
O11 O 0.7979(4) 0.0777(4) 0.69291(12)
C17 C 0.8802(6) 0.1519(6) 0.5710(2)
C18 C 0.9564(5) 0.2239(6) 0.54708(18)
C19 C 0.9821(5) 0.3311(5) 0.56223(18)
H7 H 0.952307 0.358594 0.588383
H10 H 0.982815 0.111410 0.496403
C9 C 0.750000 0.000000 0.9980(3)
C11 C 0.750000 0.000000 0.9059(3)
C12 C 0.750000 0.000000 0.8561(2)
C13 C 0.7722(5) 0.1007(6) 0.83319(19)
H5 H 0.786119 0.168504 0.848669
C14 C 0.7737(6) 0.0997(6) 0.78707(19)
H6 H 0.790784 0.166676 0.771623
C15 C 0.750000 -0.000000 0.7636(3)
C16 C 0.750000 0.000000 0.7142(3)
C22 C 0.5771(6) 0.2518(7) 0.9863(2)
H9 H 0.611407 0.282032 0.961715
H10_2 H 0.482815 0.388590 0.996403
C24 C 0.6776(4) 0.0697(5) 0.97686(16)
C25 C 0.6813(4) 0.0650(5) 0.93036(16)
F3 F 0.6086(3) 0.1244(3) 0.90738(10)
U1_2 U 0.750000 1.000000 0.61928(2)
O1 O 0.8539(5) 0.9052(5) 0.62020(17)
O2 O 0.6701(5) 0.9238(5) 0.55088(14)
O3 O 0.6308(4) 0.8344(4) 0.61273(13)
O4 O 0.2979(4) 0.4223(4) 0.19291(12)
C1 C 0.6198(6) 0.8481(6) 0.5710(2)
C2 C 0.5436(5) 0.7761(6) 0.54708(18)
C3 C 0.5179(5) 0.6689(5) 0.56223(18)
H1 H 0.547693 0.641406 0.588383
C4 C 0.4482(5) 0.6003(5) 0.53932(18)
H2 H 0.434143 0.526065 0.549512
C5 C 0.3989(5) 0.6408(5) 0.50130(17)
C6 C 0.4229(6) 0.7518(7) 0.4863(2)
H3 H 0.388593 0.782032 0.461715
C7 C 0.4976(7) 0.8173(7) 0.5079(2)
H4 H 0.517185 0.888590 0.496403
C8 C 0.3224(4) 0.5697(5) 0.47686(16)
C9_2 C 0.250000 0.500000 0.4980(3)
C10 C 0.3187(4) 0.5650(5) 0.43036(16)
C11_2 C 0.250000 0.500000 0.4059(3)
C12_2 C 0.250000 0.500000 0.3561(2)
C13_2 C 0.2722(5) 0.3993(6) 0.33319(19)
H5_2 H 0.286119 0.331496 0.348669
C14_2 C 0.2737(6) 0.4003(6) 0.28707(19)
H6_2 H 0.290784 0.333324 0.271623
C15_2 C 0.250000 0.500000 0.2636(3)
C16_2 C 0.250000 0.500000 0.2142(3)
F1 F 0.3914(3) 0.6244(3) 0.40738(10)
F2 F 0.250000 0.500000 0.54303(16)
O7 O 0.2021(4) 0.5777(4) 0.19291(12)
C20 C 0.0518(5) 0.3997(5) 0.53932(18)
H8 H 0.065857 0.473935 0.549512
C21 C 0.1011(5) 0.3592(5) 0.50130(17)
C22_2 C 0.0771(6) 0.2482(7) 0.4863(2)
H9_2 H 0.111407 0.217968 0.461715
C23 C 0.0024(7) 0.1827(7) 0.5079(2)
C24_2 C 0.1776(4) 0.4303(5) 0.47686(16)
C25_2 C 0.1813(4) 0.4350(5) 0.43036(16)
C26 C 0.2278(5) 0.6007(6) 0.33319(19)
H11 H 0.213881 0.668504 0.348669
C27 C 0.2263(6) 0.5997(6) 0.28707(19)
H12 H 0.209216 0.666676 0.271623
F3_2 F 0.1086(3) 0.3756(3) 0.40738(10)
U3 U 0.250000 0.500000 0.11928(2)
O12 O 0.7021(4) 0.9223(4) 0.69291(12)
O1_2 O 0.3539(5) 0.5948(5) 0.12020(17)
O2_2 O 0.1701(5) 0.5762(5) 0.05088(14)
O3_2 O 0.1308(4) 0.6656(4) 0.11273(13)
C1_2 C 0.1198(6) 0.6519(6) 0.0710(2)
C2_2 C 0.0436(5) 0.7239(6) 0.04708(18)
C3_2 C 0.0179(5) 0.8311(5) 0.06223(18)
H1_2 H 0.047693 0.858594 0.088383
O8_2 O 0.1461(5) 0.4052(5) 0.12020(17)
O9_2 O 0.3299(5) 0.4238(5) 0.05088(14)
O10_2 O 0.3692(4) 0.3344(4) 0.11273(13)
F2_2 F 0.750000 0.000000 0.04303(16)
C17_2 C 0.3802(6) 0.3481(6) 0.0710(2)
C18_2 C 0.4564(5) 0.2761(6) 0.04708(18)
C19_2 C 0.4821(5) 0.1689(5) 0.06223(18)
H7_2 H 0.452307 0.141406 0.088383
C20_2 C 0.5518(5) 0.1003(5) 0.03932(18)
H8_2 H 0.565857 0.026065 0.049512
C21_2 C 0.6011(5) 0.1408(5) 0.00130(17)
C23_2 C 0.5024(7) 0.3173(7) 0.0079(2)
C6_2 C 0.9229(6) 0.7482(7) 0.9863(2)
H3_2 H 0.888593 0.717968 0.961715
C8_2 C 0.8224(4) 0.9303(5) 0.97686(16)
C9_3 C 0.750000 1.000000 0.9980(3)
C10_2 C 0.8187(4) 0.9350(5) 0.93036(16)
C11_3 C 0.750000 1.000000 0.9059(3)
C12_3 C 0.750000 1.000000 0.8561(2)
C15_3 C 0.750000 1.000000 0.7636(3)
C16_3 C 0.750000 1.000000 0.7142(3)
F1_2 F 0.8914(3) 0.8756(3) 0.90738(10)
C26_2 C 0.7278(5) 0.8993(6) 0.83319(19)
H11_2 H 0.713881 0.831496 0.848669
C27_2 C 0.7263(6) 0.9003(6) 0.78707(19)
H12_2 H 0.709216 0.833324 0.771623
C6_3 C 0.0771(6) 0.2518(7) 0.0137(2)
H3_3 H 0.111407 0.282032 0.038285
C8_3 C 0.1776(4) 0.0697(5) 0.02314(16)
C9_4 C 0.250000 0.000000 0.0020(3)
C10_3 C 0.1813(4) 0.0650(5) 0.06964(16)
C11_4 C 0.250000 0.000000 0.0941(3)
C12_4 C 0.250000 0.000000 0.1439(2)
C15_4 C 0.250000 0.000000 0.2364(3)
C16_4 C 0.250000 -0.000000 0.2858(3)
F1_3 F 0.1086(3) 0.1244(3) 0.09262(10)
O7_2 O 0.2979(4) 0.0777(4) 0.30709(12)
C26_3 C 0.2722(5) 0.1007(6) 0.16681(19)
H11_3 H 0.286119 0.168504 0.151331
C27_3 C 0.2737(6) 0.0997(6) 0.21293(19)
H12_3 H 0.290784 0.166676 0.228377
U3_2 U 0.250000 0.000000 0.38072(2)
F2_3 F 0.250000 1.000000 0.95697(16)
O5 O 0.6701(5) 0.5762(5) 0.94912(14)
O6 O 0.6308(4) 0.6656(4) 0.88727(13)
C17_3 C 0.6198(6) 0.6519(6) 0.9290(2)
C18_3 C 0.5436(5) 0.7239(6) 0.95292(18)
C19_3 C 0.5179(5) 0.8311(5) 0.93777(18)
H7_3 H 0.547693 0.858594 0.911617
C20_3 C 0.4482(5) 0.8997(5) 0.96068(18)
H8_3 H 0.434143 0.973935 0.950488
C21_3 C 0.3989(5) 0.8592(5) 0.99870(17)
C23_3 C 0.4976(7) 0.6827(7) 0.9921(2)
U2 U 0.750000 0.500000 0.88072(2)
O1_3 O 0.6461(5) 0.4052(5) 0.87980(17)
O2_3 O 0.8299(5) 0.4238(5) 0.94912(14)
O3_3 O 0.8692(4) 0.3344(4) 0.88727(13)
C1_3 C 0.8802(6) 0.3481(6) 0.9290(2)
C2_3 C 0.9564(5) 0.2761(6) 0.95292(18)
C3_3 C 0.9821(5) 0.1689(5) 0.93777(18)
H1_3 H 0.952307 0.141406 0.911617
O8_3 O 0.8539(5) 0.5948(5) 0.87980(17)
O11_2 O 0.7021(4) 0.5777(4) 0.80709(12)
O12_2 O 0.7979(4) 0.4223(4) 0.80709(12)
O1_4 O 0.1461(5) 0.0948(5) 0.37980(17)
O2_4 O 0.3299(5) 0.0762(5) 0.44912(14)
O3_4 O 0.3692(4) 0.1656(4) 0.38727(13)
C1_4 C 0.3802(6) 0.1519(6) 0.4290(2)
C2_4 C 0.4564(5) 0.2239(6) 0.45292(18)
C3_4 C 0.4821(5) 0.3311(5) 0.43777(18)
H1_4 H 0.452307 0.358594 0.411617
C4_2 C 0.5518(5) 0.3997(5) 0.46068(18)
H2_2 H 0.565857 0.473935 0.450488
C5_2 C 0.6011(5) 0.3592(5) 0.49870(17)
C6_4 C 0.5771(6) 0.2482(7) 0.5137(2)
H3_4 H 0.611407 0.217968 0.538285
C7_2 C 0.5024(7) 0.1827(7) 0.4921(2)
H4_2 H 0.482815 0.111410 0.503597
C8_4 C 0.6776(4) 0.4303(5) 0.52314(16)
C9_5 C 0.750000 0.500000 0.5020(3)
C10_4 C 0.6813(4) 0.4350(5) 0.56964(16)
C11_5 C 0.750000 0.500000 0.5941(3)
C12_5 C 0.750000 0.500000 0.6439(2)
C13_3 C 0.7278(5) 0.6007(6) 0.66681(19)
H5_3 H 0.713881 0.668504 0.651331
C14_3 C 0.7263(6) 0.5997(6) 0.71293(19)
H6_3 H 0.709216 0.666676 0.728377
C15_5 C 0.750000 0.500000 0.7364(3)
C16_5 C 0.750000 0.500000 0.7858(3)
F1_4 F 0.6086(3) 0.3756(3) 0.59262(10)
F2_4 F 0.750000 0.500000 0.45697(16)
C20_4 C 0.9482(5) 0.6003(5) 0.46068(18)
H8_4 H 0.934143 0.526065 0.450488
C21_4 C 0.8989(5) 0.6408(5) 0.49870(17)
C22_3 C 0.9229(6) 0.7518(7) 0.5137(2)
H9_3 H 0.888593 0.782032 0.538285
C23_4 C 0.9976(7) 0.8173(7) 0.4921(2)
C24_3 C 0.8224(4) 0.5697(5) 0.52314(16)
C25_3 C 0.8187(4) 0.5650(5) 0.56964(16)
C26_4 C 0.7722(5) 0.3993(6) 0.66681(19)
H11_4 H 0.786119 0.331496 0.651331
C27_4 C 0.7737(6) 0.4003(6) 0.71293(19)
H12_4 H 0.790784 0.333324 0.728377
F3_3 F 0.8914(3) 0.6244(3) 0.59262(10)
C4_3 C 0.0518(5) 0.1003(5) 0.96068(18)
H2_3 H 0.065857 0.026065 0.950488
C5_3 C 0.1011(5) 0.1408(5) 0.99870(17)
C7_3 C 0.0024(7) 0.3173(7) 0.9921(2)
F2_5 F 0.250000 0.000000 0.95697(16)
O4_2 O 0.2021(4) 0.9223(4) 0.30709(12)
C9_6 C 0.250000 1.000000 0.0020(3)
C11_6 C 0.250000 1.000000 0.0941(3)
C12_6 C 0.250000 1.000000 0.1439(2)
C13_4 C 0.2278(5) 0.8993(6) 0.16681(19)
H5_4 H 0.213881 0.831496 0.151331
C14_4 C 0.2263(6) 0.9003(6) 0.21293(19)
H6_4 H 0.209216 0.833324 0.228377
C15_6 C 0.250000 1.000000 0.2364(3)
C16_6 C 0.250000 1.000000 0.2858(3)
C22_4 C 0.4229(6) 0.7482(7) 0.0137(2)
H9_4 H 0.388593 0.717968 0.038285
H10_3 H 0.517185 0.611410 0.003597
C24_4 C 0.3224(4) 0.9303(5) 0.02314(16)
C25_4 C 0.3187(4) 0.9350(5) 0.06964(16)
F3_4 F 0.3914(3) 0.8756(3) 0.09262(10)
U3_3 U 0.250000 1.000000 0.38072(2)
O5_2 O 0.1701(5) 0.9238(5) 0.44912(14)
O6_2 O 0.1308(4) 0.8344(4) 0.38727(13)
C17_4 C 0.1198(6) 0.8481(6) 0.4290(2)
C18_4 C 0.0436(5) 0.7761(6) 0.45292(18)
C19_4 C 0.0179(5) 0.6689(5) 0.43777(18)
H7_4 H 0.047693 0.641406 0.411617
H10_4 H 0.017185 0.888590 0.503597
O8_4 O 0.3539(5) 0.9052(5) 0.37980(17)
H4_3 H 0.982815 0.388590 0.003597
H4_4 H 0.017185 0.611410 0.996403
C4_4 C 0.9482(5) 0.8997(5) 0.03932(18)
H2_4 H 0.934143 0.973935 0.049512
C5_4 C 0.8989(5) 0.8592(5) 0.00130(17)
C7_4 C 0.9976(7) 0.6827(7) 0.0079(2)
F2_6 F 0.750000 1.000000 0.04303(16)
loop_
_geom_bond_atom_site_label_1
_geom_bond_atom_site_label_2
_geom_bond_site_symmetry_1
_geom_bond_site_symmetry_2
O8 U1 1_555 1_555
O9 U1 1_555 1_555
O10 U1 1_555 1_555
O11 U1 1_555 1_555
O9 C17 1_555 1_555
O10 C17 1_555 1_555
C17 C18 1_555 1_555
C18 C19 1_555 1_555
C19 H7 1_555 1_555
O11 C16 1_555 1_555
C12 C11 1_555 1_555
C13 C12 1_555 1_555
H5 C13 1_555 1_555
C14 C13 1_555 1_555
H6 C14 1_555 1_555
C15 C14 1_555 1_555
C16 C15 1_555 1_555
H9 C22 1_555 1_555
C24 C9 1_555 1_555
C25 C11 1_555 1_555
F3 C25 1_555 1_555
C24 C25 1_555 1_555
U1_2 O1 1_555 1_555
O2 U1_2 1_555 1_555
O3 U1_2 1_555 1_555
O4 C16_2 1_555 1_555
C1 O2 1_555 1_555
C2 C1 1_555 1_555
C3 C2 1_555 1_555
H1 C3 1_555 1_555
C4 C3 1_555 1_555
H2 C4 1_555 1_555
C5 C4 1_555 1_555
C6 C5 1_555 1_555
H3 C6 1_555 1_555
C7 C2 1_555 1_555
H4 C7 1_555 1_555
C8 C5 1_555 1_555
C9_2 C8 1_555 1_555
C10 C8 1_555 1_555
C11_2 C10 1_555 1_555
C12_2 C11_2 1_555 1_555
C13_2 C12_2 1_555 1_555
H5_2 C13_2 1_555 1_555
C14_2 C13_2 1_555 1_555
H6_2 C14_2 1_555 1_555
C15_2 C14_2 1_555 1_555
C16_2 C15_2 1_555 1_555
F1 C10 1_555 1_555
F2 C9_2 1_555 1_555
O7 C16_2 1_555 1_555
H8 C20 1_555 1_555
C21 C20 1_555 1_555
C22_2 C21 1_555 1_555
H9_2 C22_2 1_555 1_555
C24_2 C9_2 1_555 1_555
C25_2 C11_2 1_555 1_555
C26 C12_2 1_555 1_555
H11 C26 1_555 1_555
C27 C15_2 1_555 1_555
H12 C27 1_555 1_555
F3_2 C25_2 1_555 1_555
U3 O4 1_555 1_555
O12 U1_2 1_555 1_555
O3 C1 1_555 1_555
C6 C7 1_555 1_555
O7 U3 1_555 1_555
C21 C24_2 1_555 1_555
C22_2 C23 1_555 1_555
C24_2 C25_2 1_555 1_555
C26 C27 1_555 1_555
U3 O1_2 1_555 1_555
O2_2 U3 1_555 1_555
O3_2 U3 1_555 1_555
C1_2 O2_2 1_555 1_555
C2_2 C1_2 1_555 1_555
C3_2 C2_2 1_555 1_555
H1_2 C3_2 1_555 1_555
O8_2 U3 1_555 1_555
O9_2 U3 1_555 1_555
O10_2 U3 1_555 1_555
O3_2 C1_2 1_555 1_555
O9_2 C17_2 1_555 1_555
O10_2 C17_2 1_555 1_555
C17_2 C18_2 1_555 1_555
C18_2 C19_2 1_555 1_555
C19_2 H7_2 1_555 1_555
C20_2 C19_2 1_555 1_555
H8_2 C20_2 1_555 1_555
C21_2 C20_2 1_555 1_555
C23_2 C18_2 1_555 1_555
H3_2 C6_2 1_555 1_555
C9_3 C8_2 1_555 1_555
C10_2 C8_2 1_555 1_555
C11_3 C10_2 1_555 1_555
C12_3 C11_3 1_555 1_555
C16_3 C15_3 1_555 1_555
F1_2 C10_2 1_555 1_555
O12 C16_3 1_555 1_555
C26_2 C12_3 1_555 1_555
H11_2 C26_2 1_555 1_555
C27_2 C15_3 1_555 1_555
H12_2 C27_2 1_555 1_555
C26_2 C27_2 1_555 1_555
H3_3 C6_3 1_555 1_555
C9_4 C8_3 1_555 1_555
C10_3 C8_3 1_555 1_555
C11_4 C10_3 1_555 1_555
C12_4 C11_4 1_555 1_555
C16_4 C15_4 1_555 1_555
F1_3 C10_3 1_555 1_555
O7_2 C16_4 1_555 1_555
C26_3 C12_4 1_555 1_555
H11_3 C26_3 1_555 1_555
C27_3 C15_4 1_555 1_555
H12_3 C27_3 1_555 1_555
O7_2 U3_2 1_555 1_555
C26_3 C27_3 1_555 1_555
O5 C17_3 1_555 1_555
O6 C17_3 1_555 1_555
C17_3 C18_3 1_555 1_555
C18_3 C19_3 1_555 1_555
C19_3 H7_3 1_555 1_555
C20_3 C19_3 1_555 1_555
H8_3 C20_3 1_555 1_555
C21_3 C20_3 1_555 1_555
C23_3 C18_3 1_555 1_555
U2 O5 1_555 1_555
O6 U2 1_555 1_555
U2 O1_3 1_555 1_555
O2_3 U2 1_555 1_555
O3_3 U2 1_555 1_555
C1_3 O2_3 1_555 1_555
C2_3 C1_3 1_555 1_555
C3_3 C2_3 1_555 1_555
H1_3 C3_3 1_555 1_555
O8_3 U2 1_555 1_555
O11_2 U2 1_555 1_555
O12_2 U2 1_555 1_555
O3_3 C1_3 1_555 1_555
U3_2 O1_4 1_555 1_555
O2_4 U3_2 1_555 1_555
O3_4 U3_2 1_555 1_555
O11_2 C16_5 1_555 1_555
C1_4 O2_4 1_555 1_555
C2_4 C1_4 1_555 1_555
C3_4 C2_4 1_555 1_555
H1_4 C3_4 1_555 1_555
C4_2 C3_4 1_555 1_555
H2_2 C4_2 1_555 1_555
C5_2 C4_2 1_555 1_555
C6_4 C5_2 1_555 1_555
H3_4 C6_4 1_555 1_555
C7_2 C2_4 1_555 1_555
H4_2 C7_2 1_555 1_555
C8_4 C5_2 1_555 1_555
C9_5 C8_4 1_555 1_555
C10_4 C8_4 1_555 1_555
C11_5 C10_4 1_555 1_555
C12_5 C11_5 1_555 1_555
C13_3 C12_5 1_555 1_555
H5_3 C13_3 1_555 1_555
C14_3 C13_3 1_555 1_555
H6_3 C14_3 1_555 1_555
C15_5 C14_3 1_555 1_555
C16_5 C15_5 1_555 1_555
F1_4 C10_4 1_555 1_555
F2_4 C9_5 1_555 1_555
O12_2 C16_5 1_555 1_555
H8_4 C20_4 1_555 1_555
C21_4 C20_4 1_555 1_555
C22_3 C21_4 1_555 1_555
H9_3 C22_3 1_555 1_555
C24_3 C9_5 1_555 1_555
C25_3 C11_5 1_555 1_555
C26_4 C12_5 1_555 1_555
H11_4 C26_4 1_555 1_555
C27_4 C15_5 1_555 1_555
H12_4 C27_4 1_555 1_555
F3_3 C25_3 1_555 1_555
O3_4 C1_4 1_555 1_555
C6_4 C7_2 1_555 1_555
C21_4 C24_3 1_555 1_555
C22_3 C23_4 1_555 1_555
C24_3 C25_3 1_555 1_555
C26_4 C27_4 1_555 1_555
H2_3 C4_3 1_555 1_555
C5_3 C4_3 1_555 1_555
O4_2 C16_6 1_555 1_555
C12_6 C11_6 1_555 1_555
C13_4 C12_6 1_555 1_555
H5_4 C13_4 1_555 1_555
C14_4 C13_4 1_555 1_555
H6_4 C14_4 1_555 1_555
C15_6 C14_4 1_555 1_555
C16_6 C15_6 1_555 1_555
H9_4 C22_4 1_555 1_555
C24_4 C9_6 1_555 1_555
C25_4 C11_6 1_555 1_555
F3_4 C25_4 1_555 1_555
U3_3 O4_2 1_555 1_555
C24_4 C25_4 1_555 1_555
O5_2 C17_4 1_555 1_555
O6_2 C17_4 1_555 1_555
C17_4 C18_4 1_555 1_555
C18_4 C19_4 1_555 1_555
C19_4 H7_4 1_555 1_555
U3_3 O5_2 1_555 1_555
O6_2 U3_3 1_555 1_555
O8_4 U3_3 1_555 1_555
H2_4 C4_4 1_555 1_555
C5_4 C4_4 1_555 1_555

#END
