
###############################################################################
#
# This file contains modified crystal structure data generated from the
# MOF subset of the Cambridge Structural Database (CSD) v543 
# hosted by the Cambridge Crystallographic Data Centre (CCDC).
#
# This work is licensed under the Creative Commons
# Attribution-NonCommercial-ShareAlike 4.0 International License.
# To view a copy of this license, visit
# http://creativecommons.org/licenses/by-nc-sa/4.0/
# or send a letter to
# Creative Commons, PO Box 1866, Mountain View, CA 94042, USA.
#
# CIF created using the CSD Python API on 29 September 2022
# The structure has been converted into the P1 space group
# The structure has a 3D framework
# The original CSD entry TAVBAW is in the monoclinic crystal system
# The framework has been calculated to contain at least 10.0% void space
# The void calculation uses a probe of radius 1.32A, grid spacing 0.4
#
###############################################################################

data_TAVBAW
_chemical_formula_moiety         '(C100 H72 Cd2 N16 O24 S4)n'
_symmetry_cell_setting           triclinic
_symmetry_space_group_name_H-M   'P 1'
_symmetry_Int_Tables_number      1
_space_group_name_Hall           'P 1'
loop_
_symmetry_equiv_pos_site_id
_symmetry_equiv_pos_as_xyz
1 x,y,z
_cell_length_a                   10.8309(7)
_cell_length_b                   24.9357(16)
_cell_length_c                   10.3484(7)
_cell_angle_alpha                90
_cell_angle_beta                 90.2380(10)
_cell_angle_gamma                90
_cell_volume                     2794.83
loop_
_atom_site_label
_atom_site_type_symbol
_atom_site_fract_x
_atom_site_fract_y
_atom_site_fract_z
C23 C 0.0462(4) 0.62288(16) 0.6931(4)
H16 H 0.0946 0.5995 0.7416
C24 C 0.0789(5) 0.67555(17) 0.6877(5)
H17 H 0.1472 0.6878 0.7338
C25 C 0.0103(4) 0.71068(16) 0.6137(4)
H18 H 0.0327 0.7466 0.6073
O7 O 0.2515(2) 0.03294(9) 0.03426(19)
Cd1 Cd 0.11695(2) 0.01595(2) 0.86681(2)
O8 O 0.1134(2) 0.01166(10) 0.6342(2)
O9 O 0.2854(2) 0.03784(11) 0.72583(19)
N5 N 0.0532(3) 0.10347(11) 0.8691(2)
C21 C 0.0925(4) 0.19126(14) 0.9507(3)
C22 C 0.1215(3) 0.13782(14) 0.9381(3)
H15 H 0.1919 0.1250 0.9795
O1 O 0.0885(2) 0.00955(10) 0.1462(2)
C1 C 0.1970(3) 0.02536(11) 0.1405(3)
C2 C 0.2671(3) 0.03692(12) 0.2633(3)
C3 C 0.2138(3) 0.02679(12) 0.3829(3)
H2 H 0.1342 0.0129 0.3873
C4 C 0.2794(3) 0.03743(13) 0.4958(3)
C5 C 0.3980(3) 0.05822(13) 0.4880(3)
H4 H 0.4417 0.0651 0.5637
C6 C 0.4530(3) 0.06896(13) 0.3702(3)
C7 C 0.3859(3) 0.05825(13) 0.2590(3)
H5 H 0.4211 0.0655 0.1791
C8 C 0.2235(3) 0.02830(12) 0.6264(3)
C9 C 0.5806(3) 0.09249(18) 0.3655(3)
H6 H 0.6117 0.0969 0.4518
H7 H 0.5777 0.1267 0.3231
H8 H 0.6341 0.0689 0.3184
S1 S 0.58695(12) 0.72668(4) 0.19652(12)
N2 N 0.4014(3) 0.84300(12) 0.0292(3)
H1 H 0.4485 0.8689 0.0534
N3 N 0.8354(3) 0.72622(12) 0.4730(3)
H3 H 0.8335 0.7596 0.4940
N4 N 0.9468(3) 0.60347(11) 0.6309(2)
O5 O 0.3781(4) 0.75305(13) 0.0350(5)
O6 O 0.7719(4) 0.66472(11) 0.3276(3)
C15 C 0.4318(4) 0.79345(17) 0.0708(5)
C16 C 0.5338(4) 0.78978(15) 0.1645(4)
C17 C 0.5953(5) 0.82733(16) 0.2347(4)
H13 H 0.5797 0.8639 0.2287
C18 C 0.6845(5) 0.80530(16) 0.3169(4)
H14 H 0.7342 0.8254 0.3721
C19 C 0.6900(4) 0.75108(15) 0.3066(4)
C20 C 0.7694(4) 0.71040(15) 0.3692(4)
C21_2 C 0.9075(4) 0.69126(14) 0.5493(3)
C22_2 C 0.8785(3) 0.63782(14) 0.5619(3)
H15_2 H 0.8081 0.6250 0.5205
Cd2 Cd 0.88305(2) 0.51595(2) 0.63319(2)
S1_2 S 0.41305(12) 0.22668(4) 0.30348(12)
N1 N 0.8348(3) 0.42641(11) 0.6189(2)
N2_2 N 0.5986(3) 0.34300(12) 0.4708(3)
H1_2 H 0.5515 0.3689 0.4466
N3_2 N 0.1646(3) 0.22622(12) 0.0270(3)
H3_2 H 0.1665 0.2596 0.0060
O5_2 O 0.6219(4) 0.25305(13) 0.4650(5)
O6_2 O 0.2281(4) 0.16472(11) 0.1724(3)
C10 C 0.8974(4) 0.39073(15) 0.6902(3)
H9 H 0.9664 0.4020 0.7366
C11 C 0.8622(4) 0.33815(17) 0.6966(4)
H10 H 0.9071 0.3143 0.7475
C12 C 0.7612(4) 0.32025(16) 0.6285(4)
H11 H 0.7349 0.2849 0.6351
C13 C 0.6996(3) 0.35630(14) 0.5498(3)
C14 C 0.7386(3) 0.40913(13) 0.5505(3)
H12 H 0.6952 0.4338 0.5006
C15_2 C 0.5682(4) 0.29345(17) 0.4292(5)
C16_2 C 0.4662(4) 0.28978(15) 0.3355(4)
C17_2 C 0.4047(5) 0.32733(16) 0.2653(4)
H13_2 H 0.4203 0.3639 0.2713
C18_2 C 0.3155(5) 0.30530(16) 0.1831(4)
H14_2 H 0.2658 0.3254 0.1279
C19_2 C 0.3100(4) 0.25108(15) 0.1934(4)
C20_2 C 0.2306(4) 0.21040(15) 0.1308(4)
O7_2 O 0.7485(2) 0.53294(9) 0.46574(19)
O8_2 O 0.8866(2) 0.51166(10) 0.8658(2)
O9_2 O 0.7146(2) 0.53784(11) 0.77417(19)
O1_2 O 0.9115(2) 0.50955(10) 0.3538(2)
C1_2 C 0.8030(3) 0.52536(11) 0.3595(3)
C2_2 C 0.7329(3) 0.53692(12) 0.2367(3)
C3_2 C 0.7862(3) 0.52679(12) 0.1171(3)
H2_2 H 0.8658 0.5129 0.1127
C4_2 C 0.7206(3) 0.53743(13) 0.0042(3)
C5_2 C 0.6020(3) 0.55822(13) 0.0120(3)
C6_2 C 0.5470(3) 0.56896(13) 0.1298(3)
C7_2 C 0.6141(3) 0.55825(13) 0.2410(3)
H5_2 H 0.5789 0.5655 0.3209
C9_2 C 0.4194(3) 0.59249(18) 0.1345(3)
H6_2 H 0.3883 0.5969 0.0482
H7_2 H 0.4223 0.6267 0.1769
H8_2 H 0.3659 0.5689 0.1816
H4_2 H 0.5583 0.5651 0.9363
C8_2 C 0.7765(3) 0.52830(12) 0.8736(3)
N1_2 N 0.1652(3) 0.92641(11) 0.8811(2)
C10_2 C 0.1026(4) 0.89073(15) 0.8098(3)
H9_2 H 0.0336 0.9020 0.7634
C11_2 C 0.1378(4) 0.83815(17) 0.8034(4)
H10_2 H 0.0929 0.8143 0.7525
C12_2 C 0.2388(4) 0.82025(16) 0.8715(4)
H11_2 H 0.2651 0.7849 0.8649
C13_2 C 0.3004(3) 0.85630(14) 0.9502(3)
C14_2 C 0.2614(3) 0.90913(13) 0.9495(3)
H12_2 H 0.3048 0.9338 0.9994
Cd4 Cd 0.88305(2) 0.98405(2) 0.13319(2)
O1_3 O 0.9115(2) 0.99045(10) 0.8538(2)
C1_3 C 0.8030(3) 0.97464(11) 0.8595(3)
O2 O 0.7485(2) 0.96706(9) 0.96574(19)
C2_3 C 0.7329(3) 0.96308(12) 0.7367(3)
O3 O 0.8866(2) 0.98834(10) 0.3658(2)
C3_3 C 0.7862(3) 0.97321(12) 0.6171(3)
H2_3 H 0.8658 0.9871 0.6127
O4 O 0.7146(2) 0.96216(11) 0.27417(19)
C4_3 C 0.7206(3) 0.96257(13) 0.5042(3)
C5_3 C 0.6020(3) 0.94178(13) 0.5120(3)
H4_3 H 0.5583 0.9349 0.4363
C6_3 C 0.5470(3) 0.93104(13) 0.6298(3)
C7_3 C 0.6141(3) 0.94175(13) 0.7410(3)
H5_3 H 0.5789 0.9345 0.8209
C8_3 C 0.7765(3) 0.97170(12) 0.3736(3)
C9_3 C 0.4194(3) 0.90751(18) 0.6345(3)
H6_3 H 0.3883 0.9031 0.5482
H7_3 H 0.4223 0.8733 0.6769
H8_3 H 0.3659 0.9311 0.6816
N5_2 N 0.9468(3) 0.89653(11) 0.1309(2)
C21_3 C 0.9075(4) 0.80874(14) 0.0493(3)
C22_3 C 0.8785(3) 0.86218(14) 0.0619(3)
H15_3 H 0.8081 0.8750 0.0205
O3_2 O 0.1134(2) 0.48834(10) 0.1342(2)
O4_2 O 0.2854(2) 0.46216(11) 0.22583(19)
H4_4 H 0.4417 0.4349 0.0637
C8_4 C 0.2235(3) 0.47170(12) 0.1264(3)
Cd3 Cd 0.11695(2) 0.48405(2) 0.36681(2)
O1_4 O 0.0885(2) 0.49045(10) 0.6462(2)
C1_4 C 0.1970(3) 0.47464(11) 0.6405(3)
O2_2 O 0.2515(2) 0.46706(9) 0.53426(19)
C2_4 C 0.2671(3) 0.46308(12) 0.7633(3)
C3_4 C 0.2138(3) 0.47321(12) 0.8829(3)
H2_4 H 0.1342 0.4871 0.8873
C4_4 C 0.2794(3) 0.46257(13) 0.9958(3)
C5_4 C 0.3980(3) 0.44178(13) 0.9880(3)
C6_4 C 0.4530(3) 0.43104(13) 0.8702(3)
C7_4 C 0.3859(3) 0.44175(13) 0.7590(3)
H5_4 H 0.4211 0.4345 0.6791
C9_4 C 0.5806(3) 0.40751(18) 0.8655(3)
H6_4 H 0.6117 0.4031 0.9518
H7_4 H 0.5777 0.3733 0.8231
H8_4 H 0.6341 0.4311 0.8184
S1_3 S 0.41305(12) 0.27332(4) 0.80348(12)
N2_3 N 0.5986(3) 0.15700(12) 0.9708(3)
H1_3 H 0.5515 0.1311 0.9466
N3_3 N 0.1646(3) 0.27378(12) 0.5270(3)
H3_3 H 0.1665 0.2404 0.5060
N4_2 N 0.0532(3) 0.39653(11) 0.3691(2)
O5_3 O 0.6219(4) 0.24695(13) 0.9650(5)
O6_3 O 0.2281(4) 0.33528(11) 0.6724(3)
C15_3 C 0.5682(4) 0.20655(17) 0.9292(5)
C16_3 C 0.4662(4) 0.21022(15) 0.8355(4)
C17_3 C 0.4047(5) 0.17267(16) 0.7653(4)
H13_3 H 0.4203 0.1361 0.7713
C18_3 C 0.3155(5) 0.19470(16) 0.6831(4)
H14_3 H 0.2658 0.1746 0.6279
C19_3 C 0.3100(4) 0.24892(15) 0.6934(4)
C20_3 C 0.2306(4) 0.28960(15) 0.6308(4)
C21_4 C 0.0925(4) 0.30874(14) 0.4507(3)
C22_4 C 0.1215(3) 0.36218(14) 0.4381(3)
H15_4 H 0.1919 0.3750 0.4795
S1_4 S 0.58695(12) 0.77332(4) 0.69652(12)
N1_3 N 0.1652(3) 0.57359(11) 0.3811(2)
N2_4 N 0.4014(3) 0.65700(12) 0.5292(3)
H1_4 H 0.4485 0.6311 0.5534
N3_4 N 0.8354(3) 0.77378(12) 0.9730(3)
H3_4 H 0.8335 0.7404 0.9940
O5_4 O 0.3781(4) 0.74695(13) 0.5350(5)
O6_4 O 0.7719(4) 0.83528(11) 0.8276(3)
C10_3 C 0.1026(4) 0.60927(15) 0.3098(3)
H9_3 H 0.0336 0.5980 0.2634
C11_3 C 0.1378(4) 0.66185(17) 0.3034(4)
H10_3 H 0.0929 0.6857 0.2525
C12_3 C 0.2388(4) 0.67975(16) 0.3715(4)
H11_3 H 0.2651 0.7151 0.3649
C13_3 C 0.3004(3) 0.64370(14) 0.4502(3)
C14_3 C 0.2614(3) 0.59087(13) 0.4495(3)
H12_3 H 0.3048 0.5662 0.4994
C15_4 C 0.4318(4) 0.70655(17) 0.5708(5)
C16_4 C 0.5338(4) 0.71022(15) 0.6645(4)
C17_4 C 0.5953(5) 0.67267(16) 0.7347(4)
H13_4 H 0.5797 0.6361 0.7287
C18_4 C 0.6845(5) 0.69470(16) 0.8169(4)
H14_4 H 0.7342 0.6746 0.8721
C19_4 C 0.6900(4) 0.74892(15) 0.8066(4)
C20_4 C 0.7694(4) 0.78960(15) 0.8692(4)
C23_2 C 0.9538(4) 0.12288(16) 0.8069(4)
H16_2 H 0.9054 0.0995 0.7584
C24_2 C 0.9211(5) 0.17555(17) 0.8123(5)
H17_2 H 0.8528 0.1878 0.7662
C25_2 C 0.9897(4) 0.21068(16) 0.8863(4)
H18_2 H 0.9673 0.2466 0.8927
N1_4 N 0.8348(3) 0.07359(11) 0.1189(2)
C10_4 C 0.8974(4) 0.10927(15) 0.1902(3)
H9_4 H 0.9664 0.0980 0.2366
C11_4 C 0.8622(4) 0.16185(17) 0.1966(4)
H10_4 H 0.9071 0.1857 0.2475
C12_4 C 0.7612(4) 0.17975(16) 0.1285(4)
H11_4 H 0.7349 0.2151 0.1351
C13_4 C 0.6996(3) 0.14370(14) 0.0498(3)
C14_4 C 0.7386(3) 0.09087(13) 0.0505(3)
H12_4 H 0.6952 0.0662 0.0006
C23_3 C 0.9538(4) 0.37712(16) 0.3069(4)
H16_3 H 0.9054 0.4005 0.2584
C24_3 C 0.9211(5) 0.32445(17) 0.3123(5)
H17_3 H 0.8528 0.3122 0.2662
C25_3 C 0.9897(4) 0.28932(16) 0.3863(4)
H18_3 H 0.9673 0.2534 0.3927
C23_4 C 0.0462(4) 0.87712(16) 0.1931(4)
H16_4 H 0.0946 0.9005 0.2416
C24_4 C 0.0789(5) 0.82445(17) 0.1877(5)
H17_4 H 0.1472 0.8122 0.2338
C25_4 C 0.0103(4) 0.78932(16) 0.1137(4)
H18_4 H 0.0327 0.7534 0.1073
loop_
_geom_bond_atom_site_label_1
_geom_bond_atom_site_label_2
_geom_bond_site_symmetry_1
_geom_bond_site_symmetry_2
H16 C23 1_555 1_555
C24 C23 1_555 1_555
H17 C24 1_555 1_555
H18 C25 1_555 1_555
C24 C25 1_555 1_555
O8 Cd1 1_555 1_555
O9 Cd1 1_555 1_555
N5 Cd1 1_555 1_555
N5 C22 1_555 1_555
C22 C21 1_555 1_555
H15 C22 1_555 1_555
C1 O1 1_555 1_555
O7 C1 1_555 1_555
C2 C1 1_555 1_555
O8 C8 1_555 1_555
C3 C2 1_555 1_555
H2 C3 1_555 1_555
O9 C8 1_555 1_555
C4 C3 1_555 1_555
C5 C4 1_555 1_555
H4 C5 1_555 1_555
C6 C5 1_555 1_555
C7 C2 1_555 1_555
H5 C7 1_555 1_555
C8 C4 1_555 1_555
C9 C6 1_555 1_555
H6 C9 1_555 1_555
H7 C9 1_555 1_555
H8 C9 1_555 1_555
C6 C7 1_555 1_555
S1 C16 1_555 1_555
N2 H1 1_555 1_555
N3 H3 1_555 1_555
N4 C22_2 1_555 1_555
O5 C15 1_555 1_555
O6 C20 1_555 1_555
C15 N2 1_555 1_555
C16 C15 1_555 1_555
C17 C16 1_555 1_555
H13 C17 1_555 1_555
C18 C17 1_555 1_555
H14 C18 1_555 1_555
C19 S1 1_555 1_555
C20 N3 1_555 1_555
C21_2 N3 1_555 1_555
C22_2 C21_2 1_555 1_555
H15_2 C22_2 1_555 1_555
Cd2 N4 1_555 1_555
C18 C19 1_555 1_555
C19 C20 1_555 1_555
Cd2 N1 1_555 1_555
S1_2 C16_2 1_555 1_555
N1 C10 1_555 1_555
N2_2 H1_2 1_555 1_555
N3_2 H3_2 1_555 1_555
O5_2 C15_2 1_555 1_555
O6_2 C20_2 1_555 1_555
C10 H9 1_555 1_555
C11 C10 1_555 1_555
H10 C11 1_555 1_555
C12 C11 1_555 1_555
H11 C12 1_555 1_555
C13 N2_2 1_555 1_555
C14 N1 1_555 1_555
H12 C14 1_555 1_555
C15_2 N2_2 1_555 1_555
C16_2 C15_2 1_555 1_555
C17_2 C16_2 1_555 1_555
H13_2 C17_2 1_555 1_555
C18_2 C17_2 1_555 1_555
H14_2 C18_2 1_555 1_555
C19_2 S1_2 1_555 1_555
C20_2 N3_2 1_555 1_555
O7_2 Cd2 1_555 1_555
O8_2 Cd2 1_555 1_555
O9_2 Cd2 1_555 1_555
C12 C13 1_555 1_555
C13 C14 1_555 1_555
C18_2 C19_2 1_555 1_555
C19_2 C20_2 1_555 1_555
C1_2 O1_2 1_555 1_555
O7_2 C1_2 1_555 1_555
C2_2 C1_2 1_555 1_555
C3_2 C2_2 1_555 1_555
H2_2 C3_2 1_555 1_555
C4_2 C3_2 1_555 1_555
C5_2 C4_2 1_555 1_555
C6_2 C5_2 1_555 1_555
C7_2 C2_2 1_555 1_555
H5_2 C7_2 1_555 1_555
C9_2 C6_2 1_555 1_555
H6_2 C9_2 1_555 1_555
H7_2 C9_2 1_555 1_555
H8_2 C9_2 1_555 1_555
C6_2 C7_2 1_555 1_555
O8_2 C8_2 1_555 1_555
O9_2 C8_2 1_555 1_555
N1_2 C10_2 1_555 1_555
C10_2 H9_2 1_555 1_555
C11_2 C10_2 1_555 1_555
H10_2 C11_2 1_555 1_555
C12_2 C11_2 1_555 1_555
H11_2 C12_2 1_555 1_555
C14_2 N1_2 1_555 1_555
H12_2 C14_2 1_555 1_555
C12_2 C13_2 1_555 1_555
C13_2 C14_2 1_555 1_555
C1_3 O1_3 1_555 1_555
O2 C1_3 1_555 1_555
C2_3 C1_3 1_555 1_555
O3 C8_3 1_555 1_555
C3_3 C2_3 1_555 1_555
H2_3 C3_3 1_555 1_555
O4 C8_3 1_555 1_555
C4_3 C3_3 1_555 1_555
C5_3 C4_3 1_555 1_555
H4_3 C5_3 1_555 1_555
C6_3 C5_3 1_555 1_555
C7_3 C2_3 1_555 1_555
H5_3 C7_3 1_555 1_555
C8_3 C4_3 1_555 1_555
C9_3 C6_3 1_555 1_555
H6_3 C9_3 1_555 1_555
H7_3 C9_3 1_555 1_555
H8_3 C9_3 1_555 1_555
Cd4 O3 1_555 1_555
O4 Cd4 1_555 1_555
C6_3 C7_3 1_555 1_555
N5_2 Cd4 1_555 1_555
N5_2 C22_3 1_555 1_555
C22_3 C21_3 1_555 1_555
H15_3 C22_3 1_555 1_555
O3_2 C8_4 1_555 1_555
O4_2 C8_4 1_555 1_555
Cd3 O3_2 1_555 1_555
O4_2 Cd3 1_555 1_555
C1_4 O1_4 1_555 1_555
O2_2 C1_4 1_555 1_555
C2_4 C1_4 1_555 1_555
C3_4 C2_4 1_555 1_555
H2_4 C3_4 1_555 1_555
C4_4 C3_4 1_555 1_555
C5_4 C4_4 1_555 1_555
C6_4 C5_4 1_555 1_555
C7_4 C2_4 1_555 1_555
H5_4 C7_4 1_555 1_555
C9_4 C6_4 1_555 1_555
H6_4 C9_4 1_555 1_555
H7_4 C9_4 1_555 1_555
H8_4 C9_4 1_555 1_555
Cd3 O2_2 1_555 1_555
C6_4 C7_4 1_555 1_555
S1_3 C16_3 1_555 1_555
N2_3 H1_3 1_555 1_555
N3_3 H3_3 1_555 1_555
N4_2 C22_4 1_555 1_555
O5_3 C15_3 1_555 1_555
O6_3 C20_3 1_555 1_555
C15_3 N2_3 1_555 1_555
C16_3 C15_3 1_555 1_555
C17_3 C16_3 1_555 1_555
H13_3 C17_3 1_555 1_555
C18_3 C17_3 1_555 1_555
H14_3 C18_3 1_555 1_555
C19_3 S1_3 1_555 1_555
C20_3 N3_3 1_555 1_555
C21_4 N3_3 1_555 1_555
C22_4 C21_4 1_555 1_555
H15_4 C22_4 1_555 1_555
Cd3 N4_2 1_555 1_555
C18_3 C19_3 1_555 1_555
C19_3 C20_3 1_555 1_555
Cd3 N1_3 1_555 1_555
S1_4 C16_4 1_555 1_555
N1_3 C10_3 1_555 1_555
N2_4 H1_4 1_555 1_555
N3_4 H3_4 1_555 1_555
O5_4 C15_4 1_555 1_555
O6_4 C20_4 1_555 1_555
C10_3 H9_3 1_555 1_555
C11_3 C10_3 1_555 1_555
H10_3 C11_3 1_555 1_555
C12_3 C11_3 1_555 1_555
H11_3 C12_3 1_555 1_555
C13_3 N2_4 1_555 1_555
C14_3 N1_3 1_555 1_555
H12_3 C14_3 1_555 1_555
C15_4 N2_4 1_555 1_555
C16_4 C15_4 1_555 1_555
C17_4 C16_4 1_555 1_555
H13_4 C17_4 1_555 1_555
C18_4 C17_4 1_555 1_555
H14_4 C18_4 1_555 1_555
C19_4 S1_4 1_555 1_555
C20_4 N3_4 1_555 1_555
C12_3 C13_3 1_555 1_555
C13_3 C14_3 1_555 1_555
C18_4 C19_4 1_555 1_555
C19_4 C20_4 1_555 1_555
H16_2 C23_2 1_555 1_555
C24_2 C23_2 1_555 1_555
H17_2 C24_2 1_555 1_555
H18_2 C25_2 1_555 1_555
C24_2 C25_2 1_555 1_555
N1_4 C10_4 1_555 1_555
C10_4 H9_4 1_555 1_555
C11_4 C10_4 1_555 1_555
H10_4 C11_4 1_555 1_555
C12_4 C11_4 1_555 1_555
H11_4 C12_4 1_555 1_555
C14_4 N1_4 1_555 1_555
H12_4 C14_4 1_555 1_555
C12_4 C13_4 1_555 1_555
C13_4 C14_4 1_555 1_555
H16_3 C23_3 1_555 1_555
C24_3 C23_3 1_555 1_555
H17_3 C24_3 1_555 1_555
H18_3 C25_3 1_555 1_555
C24_3 C25_3 1_555 1_555
H16_4 C23_4 1_555 1_555
C24_4 C23_4 1_555 1_555
H17_4 C24_4 1_555 1_555
H18_4 C25_4 1_555 1_555
C24_4 C25_4 1_555 1_555

#END
