
###############################################################################
#
# This file contains modified crystal structure data generated from the
# MOF subset of the Cambridge Structural Database (CSD) v543 
# hosted by the Cambridge Crystallographic Data Centre (CCDC).
#
# This work is licensed under the Creative Commons
# Attribution-NonCommercial-ShareAlike 4.0 International License.
# To view a copy of this license, visit
# http://creativecommons.org/licenses/by-nc-sa/4.0/
# or send a letter to
# Creative Commons, PO Box 1866, Mountain View, CA 94042, USA.
#
# CIF created using the CSD Python API on 29 September 2022
# The structure has been converted into the P1 space group
# The structure has a 3D framework
# The original CSD entry TAVCIF is in the monoclinic crystal system
# The framework has been calculated to contain at least 10.0% void space
# The void calculation uses a probe of radius 1.32A, grid spacing 0.4
#
###############################################################################

data_TAVCIF
_chemical_formula_moiety         '(C104 H80 N24 O24 Zn4)n'
_symmetry_cell_setting           triclinic
_symmetry_space_group_name_H-M   'P 1'
_symmetry_Int_Tables_number      1
_space_group_name_Hall           'P 1'
loop_
_symmetry_equiv_pos_site_id
_symmetry_equiv_pos_as_xyz
1 x,y,z
_cell_length_a                   11.6025(15)
_cell_length_b                   16.398(2)
_cell_length_c                   16.796(2)
_cell_angle_alpha                90
_cell_angle_beta                 109.300(5)
_cell_angle_gamma                90
_cell_volume                     3015.98
loop_
_atom_site_label
_atom_site_type_symbol
_atom_site_fract_x
_atom_site_fract_y
_atom_site_fract_z
Zn3 Zn 0.33270(4) 0.00914(3) 0.72535(3)
N2 N 0.7214(3) 0.2790(2) 0.8599(2)
H1 H 0.7327 0.3079 0.8197
N3 N 0.8932(3) 0.3454(2) 0.9366(2)
H3 H 0.8926 0.3591 0.8865
C10 C 0.6283(3) 0.2227(2) 0.8350(3)
C11 C 0.7985(4) 0.2957(3) 0.9398(3)
C22 C 0.5616(4) 0.2170(3) 0.7514(3)
H16 H 0.5782 0.2527 0.7127
C23 C 0.4705(4) 0.1598(3) 0.7230(3)
H17 H 0.4253 0.1584 0.6651
C24 C 0.5016(4) 0.1163(3) 0.8594(3)
H18 H 0.4769 0.0831 0.8964
C25 C 0.5944(4) 0.1725(3) 0.8934(3)
H19 H 0.6330 0.1774 0.9520
N6 N 0.4435(3) 0.1067(2) 0.7731(2)
N1 N 0.1867(3) 0.0553(2) 0.6293(2)
C1 C 0.0808(4) 0.0822(3) 0.4839(3)
H2 H 0.0772 0.0760 0.4275
C6 C 0.1765(3) 0.0502(2) 0.5479(3)
H7 H 0.2384 0.0231 0.5338
C26 C 0.0971(4) 0.0954(3) 0.6472(3)
H20 H 0.1019 0.0996 0.7041
H13 H 0.1121 0.9430 0.0446
O3 O 0.1740(3) 0.88602(19) 0.73312(18)
C12 C 0.1521(4) 0.9424(3) 0.9367(3)
H10 H 0.2169 0.9799 0.9547
C13 C 0.1896(4) 0.9285(3) 0.7973(3)
C16 C 0.1200(3) 0.9089(2) 0.8563(3)
C18 C 0.0890(4) 0.9206(3) 0.9900(3)
C21 C 0.0206(4) 0.8555(2) 0.8299(3)
O6 O 0.2622(3) 0.98899(18) 0.8166(2)
O2 O 0.7673(3) 0.7281(2) 0.44408(19)
N4 N 0.8257(3) 0.7278(2) 0.5891(2)
H4 H 0.8810 0.7083 0.6336
N5 N 0.9378(3) 0.6573(2) 0.5241(2)
H5 H 0.9722 0.6383 0.5748
C2 C 0.4781(4) 0.9301(3) 0.6687(4)
C3 C 0.7358(3) 0.7771(3) 0.6039(3)
O4 O 0.4262(3) 0.9855(3) 0.6178(2)
O5 O 0.4579(3) 0.91930(19) 0.7368(2)
C4 C 0.6560(4) 0.8265(3) 0.5430(3)
H6 H 0.6570 0.8265 0.4873
C5 C 0.5696(4) 0.8766(3) 0.6471(3)
C7 C 0.5740(4) 0.8764(3) 0.5663(3)
H8 H 0.5206 0.9104 0.5255
C8 C 0.9913(3) 0.6343(3) 0.4645(3)
C9 C 0.6490(4) 0.8266(3) 0.7069(3)
H9 H 0.6470 0.8259 0.7624
C15 C 0.9557(4) 0.6647(2) 0.3823(3)
H12 H 0.8872 0.6990 0.3628
C17 C 0.8369(4) 0.7066(3) 0.5128(3)
C20 C 0.7310(4) 0.7779(3) 0.6855(3)
H14 H 0.7847 0.7445 0.7268
H15 H 0.9977 0.6671 0.2754
Zn1 Zn 0.33270(4) 0.49086(3) 0.22535(3)
N1_2 N 0.1867(3) 0.4447(2) 0.1293(2)
N4_2 N 0.8257(3) 0.7722(2) 0.0891(2)
H4_2 H 0.8810 0.7917 0.1336
N5_2 N 0.9378(3) 0.8427(2) 0.0241(2)
H5_2 H 0.9722 0.8617 0.0748
C2_2 C 0.4781(4) 0.5699(3) 0.1687(4)
C3_2 C 0.7358(3) 0.7229(3) 0.1039(3)
O4_2 O 0.4262(3) 0.5145(3) 0.1178(2)
O5_2 O 0.4579(3) 0.58070(19) 0.2368(2)
C4_2 C 0.6560(4) 0.6735(3) 0.0430(3)
C5_2 C 0.5696(4) 0.6234(3) 0.1471(3)
C6_2 C 0.1765(3) 0.4498(2) 0.0479(3)
H7_2 H 0.2384 0.4769 0.0338
C7_2 C 0.5740(4) 0.6236(3) 0.0663(3)
H8_2 H 0.5206 0.5896 0.0255
C9_2 C 0.6490(4) 0.6734(3) 0.2069(3)
H9_2 H 0.6470 0.6741 0.2624
C17_2 C 0.8369(4) 0.7934(3) 0.0128(3)
C20_2 C 0.7310(4) 0.7221(3) 0.1855(3)
H14_2 H 0.7847 0.7555 0.2268
C26_2 C 0.0971(4) 0.4046(3) 0.1472(3)
H20_2 H 0.1019 0.4004 0.2041
O7 O 0.2622(3) 0.51101(18) 0.3166(2)
N7 N 0.4435(3) 0.3933(2) 0.2731(2)
O3_2 O 0.1740(3) 0.61398(19) 0.23312(18)
C12_2 C 0.1521(4) 0.5576(3) 0.4367(3)
H10_2 H 0.2169 0.5201 0.4547
C13_2 C 0.1896(4) 0.5715(3) 0.2973(3)
C16_2 C 0.1200(3) 0.5911(2) 0.3563(3)
C18_2 C 0.0890(4) 0.5794(3) 0.4900(3)
H13_2 H 0.1121 0.5570 0.5446
C21_2 C 0.0206(4) 0.6445(2) 0.3299(3)
N2_2 N 0.7214(3) 0.2210(2) 0.3599(2)
H1_2 H 0.7327 0.1921 0.3197
O1 O 0.7854(3) 0.2282(2) 0.5055(2)
N3_2 N 0.8932(3) 0.1546(2) 0.4366(2)
H3_2 H 0.8926 0.1409 0.3865
C10_2 C 0.6283(3) 0.2773(2) 0.3350(3)
C11_2 C 0.7985(4) 0.2043(3) 0.4398(3)
C14 C 0.9990(4) 0.1304(3) 0.5871(3)
H11 H 0.9395 0.1584 0.6031
C19 C 0.9885(3) 0.1241(3) 0.5031(3)
C22_2 C 0.5616(4) 0.2830(3) 0.2514(3)
H16_2 H 0.5782 0.2473 0.2127
C23_2 C 0.4705(4) 0.3402(3) 0.2230(3)
H17_2 H 0.4253 0.3416 0.1651
C24_2 C 0.5016(4) 0.3837(3) 0.3594(3)
H18_2 H 0.4769 0.4169 0.3964
C25_2 C 0.5944(4) 0.3275(3) 0.3934(3)
H19_2 H 0.6330 0.3226 0.4520
C1_2 C 0.0808(4) 0.4178(3) 0.9839(3)
H2_2 H 0.0772 0.4240 0.9275
O2_2 O 0.7673(3) 0.7719(2) 0.94408(19)
H6_2 H 0.6570 0.6735 0.9873
C8_2 C 0.9913(3) 0.8657(3) 0.9645(3)
C15_2 C 0.9557(4) 0.8353(2) 0.8823(3)
H12_2 H 0.8872 0.8010 0.8628
H15_2 H 0.9977 0.8329 0.7754
O1_2 O 0.7854(3) 0.2718(2) 0.0055(2)
C14_2 C 0.9990(4) 0.3696(3) 0.0871(3)
H11_2 H 0.9395 0.3416 0.1031
C19_2 C 0.9885(3) 0.3759(3) 0.0031(3)
N2_3 N 0.2786(3) 0.7790(2) 0.6401(2)
H1_3 H 0.2673 0.8079 0.6803
O1_3 O 0.2146(3) 0.7718(2) 0.4945(2)
N3_3 N 0.1068(3) 0.8454(2) 0.5634(2)
H3_3 H 0.1074 0.8591 0.6135
C10_3 C 0.3717(3) 0.7227(2) 0.6650(3)
C11_3 C 0.2015(4) 0.7957(3) 0.5602(3)
C14_3 C 0.0010(4) 0.8696(3) 0.4129(3)
H11_3 H 0.0605 0.8416 0.3969
C19_3 C 0.0115(3) 0.8759(3) 0.4969(3)
C22_3 C 0.4384(4) 0.7170(3) 0.7486(3)
H16_3 H 0.4218 0.7527 0.7873
C23_3 C 0.5295(4) 0.6598(3) 0.7770(3)
H17_3 H 0.5747 0.6584 0.8349
C24_3 C 0.4984(4) 0.6163(3) 0.6406(3)
H18_3 H 0.5231 0.5831 0.6036
C25_3 C 0.4056(4) 0.6725(3) 0.6066(3)
H19_3 H 0.3670 0.6774 0.5480
N6_2 N 0.5565(3) 0.6067(2) 0.7269(2)
Zn2 Zn 0.66730(4) 0.50914(3) 0.77465(3)
O3_3 O 0.8260(3) 0.38602(19) 0.76688(18)
C12_3 C 0.8479(4) 0.4424(3) 0.5633(3)
H10_3 H 0.7831 0.4799 0.5453
C13_3 C 0.8104(4) 0.4285(3) 0.7027(3)
C16_3 C 0.8800(3) 0.4089(2) 0.6437(3)
C18_3 C 0.9110(4) 0.4206(3) 0.5100(3)
H13_3 H 0.8879 0.4430 0.4554
C21_3 C 0.9794(4) 0.3555(2) 0.6701(3)
O6_2 O 0.7378(3) 0.48899(18) 0.6834(2)
N1_3 N 0.8133(3) 0.5553(2) 0.8707(2)
N4_3 N 0.1743(3) 0.2278(2) 0.9109(2)
H4_3 H 0.1190 0.2083 0.8664
N5_3 N 0.0622(3) 0.1573(2) 0.9759(2)
H5_3 H 0.0278 0.1383 0.9252
C2_3 C 0.5219(4) 0.4301(3) 0.8313(4)
C3_3 C 0.2642(3) 0.2771(3) 0.8961(3)
O4_3 O 0.5738(3) 0.4855(3) 0.8822(2)
O5_3 O 0.5421(3) 0.41930(19) 0.7632(2)
C4_3 C 0.3440(4) 0.3265(3) 0.9570(3)
C5_3 C 0.4304(4) 0.3766(3) 0.8529(3)
C6_3 C 0.8235(3) 0.5502(2) 0.9521(3)
H7_3 H 0.7616 0.5231 0.9662
C7_3 C 0.4260(4) 0.3764(3) 0.9337(3)
H8_3 H 0.4794 0.4104 0.9745
C9_3 C 0.3510(4) 0.3266(3) 0.7931(3)
H9_3 H 0.3530 0.3259 0.7376
C17_3 C 0.1631(4) 0.2066(3) 0.9872(3)
C20_3 C 0.2690(4) 0.2779(3) 0.8145(3)
H14_3 H 0.2153 0.2445 0.7732
C26_3 C 0.9029(4) 0.5954(3) 0.8528(3)
H20_3 H 0.8981 0.5996 0.7959
O2_3 O 0.2327(3) 0.2719(2) 0.55592(19)
N4_4 N 0.1743(3) 0.2722(2) 0.4109(2)
H4_4 H 0.1190 0.2917 0.3664
N5_4 N 0.0622(3) 0.3427(2) 0.4759(2)
H5_4 H 0.0278 0.3617 0.4252
C2_4 C 0.5219(4) 0.0699(3) 0.3313(4)
C3_4 C 0.2642(3) 0.2229(3) 0.3961(3)
O4_4 O 0.5738(3) 0.0145(3) 0.3822(2)
O5_4 O 0.5421(3) 0.08070(19) 0.2632(2)
C4_4 C 0.3440(4) 0.1735(3) 0.4570(3)
H6_3 H 0.3430 0.1735 0.5127
C5_4 C 0.4304(4) 0.1234(3) 0.3529(3)
C7_4 C 0.4260(4) 0.1236(3) 0.4337(3)
H8_4 H 0.4794 0.0896 0.4745
C8_3 C 0.0087(3) 0.3657(3) 0.5355(3)
C9_4 C 0.3510(4) 0.1734(3) 0.2931(3)
H9_4 H 0.3530 0.1741 0.2376
C15_3 C 0.0443(4) 0.3353(2) 0.6177(3)
H12_3 H 0.1128 0.3010 0.6372
C17_4 C 0.1631(4) 0.2934(3) 0.4872(3)
C20_4 C 0.2690(4) 0.2221(3) 0.3145(3)
H14_4 H 0.2153 0.2555 0.2732
H15_3 H 0.0023 0.3329 0.7246
O7_2 O 0.7378(3) 0.01101(18) 0.1834(2)
O3_4 O 0.8260(3) 0.11398(19) 0.26688(18)
C12_4 C 0.8479(4) 0.0576(3) 0.0633(3)
H10_4 H 0.7831 0.0201 0.0453
C13_4 C 0.8104(4) 0.0715(3) 0.2027(3)
C16_4 C 0.8800(3) 0.0911(2) 0.1437(3)
C18_4 C 0.9110(4) 0.0794(3) 0.0100(3)
C21_4 C 0.9794(4) 0.1445(2) 0.1701(3)
Zn1_2 Zn 0.66730(4) 0.99086(3) 0.27465(3)
N1_4 N 0.8133(3) 0.9447(2) 0.3707(2)
C1_3 C 0.9192(4) 0.9178(3) 0.5161(3)
H2_3 H 0.9228 0.9240 0.5725
C6_4 C 0.8235(3) 0.9498(2) 0.4521(3)
H7_4 H 0.7616 0.9769 0.4662
C26_4 C 0.9029(4) 0.9046(3) 0.3528(3)
H20_4 H 0.8981 0.9004 0.2959
N7_2 N 0.5565(3) 0.8933(2) 0.2269(2)
N2_4 N 0.2786(3) 0.7210(2) 0.1401(2)
H1_4 H 0.2673 0.6921 0.1803
N3_4 N 0.1068(3) 0.6546(2) 0.0634(2)
H3_4 H 0.1074 0.6409 0.1135
C10_4 C 0.3717(3) 0.7773(2) 0.1650(3)
C11_4 C 0.2015(4) 0.7043(3) 0.0602(3)
C22_4 C 0.4384(4) 0.7830(3) 0.2486(3)
H16_4 H 0.4218 0.7473 0.2873
C23_4 C 0.5295(4) 0.8402(3) 0.2770(3)
H17_4 H 0.5747 0.8416 0.3349
C24_4 C 0.4984(4) 0.8837(3) 0.1406(3)
H18_4 H 0.5231 0.9169 0.1036
C25_4 C 0.4056(4) 0.8275(3) 0.1066(3)
H19_4 H 0.3670 0.8226 0.0480
O1_4 O 0.2146(3) 0.7282(2) 0.9945(2)
C14_4 C 0.0010(4) 0.6304(3) 0.9129(3)
H11_4 H 0.0605 0.6584 0.8969
C19_4 C 0.0115(3) 0.6241(3) 0.9969(3)
C1_4 C 0.9192(4) 0.5822(3) 0.0161(3)
H2_4 H 0.9228 0.5760 0.0725
O2_4 O 0.2327(3) 0.2281(2) 0.05592(19)
H6_4 H 0.3430 0.3265 0.0127
C8_4 C 0.0087(3) 0.1343(3) 0.0355(3)
C15_4 C 0.0443(4) 0.1647(2) 0.1177(3)
H12_4 H 0.1128 0.1990 0.1372
H15_4 H 0.0023 0.1671 0.2246
H13_4 H 0.8879 0.0570 0.9554
loop_
_geom_bond_atom_site_label_1
_geom_bond_atom_site_label_2
_geom_bond_site_symmetry_1
_geom_bond_site_symmetry_2
N2 H1 1_555 1_555
N3 H3 1_555 1_555
C10 N2 1_555 1_555
C11 N2 1_555 1_555
C22 C10 1_555 1_555
H16 C22 1_555 1_555
C23 C22 1_555 1_555
H17 C23 1_555 1_555
C24 H18 1_555 1_555
C25 C10 1_555 1_555
H19 C25 1_555 1_555
N6 C23 1_555 1_555
Zn3 N6 1_555 1_555
N3 C11 1_555 1_555
C24 C25 1_555 1_555
C24 N6 1_555 1_555
Zn3 N1 1_555 1_555
N1 C6 1_555 1_555
C1 H2 1_555 1_555
C6 C1 1_555 1_555
H7 C6 1_555 1_555
C26 N1 1_555 1_555
H20 C26 1_555 1_555
O3 C13 1_555 1_555
C12 H10 1_555 1_555
C13 C16 1_555 1_555
C16 C12 1_555 1_555
O6 C13 1_555 1_555
C12 C18 1_555 1_555
C16 C21 1_555 1_555
O2 C17 1_555 1_555
N4 H4 1_555 1_555
N5 H5 1_555 1_555
C2 O4 1_555 1_555
C3 N4 1_555 1_555
C4 C3 1_555 1_555
H6 C4 1_555 1_555
C5 C2 1_555 1_555
C7 C4 1_555 1_555
H8 C7 1_555 1_555
C8 N5 1_555 1_555
C9 C5 1_555 1_555
H9 C9 1_555 1_555
C15 C8 1_555 1_555
H12 C15 1_555 1_555
C17 N4 1_555 1_555
C20 C3 1_555 1_555
H14 C20 1_555 1_555
N5 C17 1_555 1_555
C2 O5 1_555 1_555
C5 C7 1_555 1_555
C9 C20 1_555 1_555
Zn1 N1_2 1_555 1_555
N1_2 C6_2 1_555 1_555
N4_2 H4_2 1_555 1_555
N5_2 H5_2 1_555 1_555
C2_2 O4_2 1_555 1_555
C3_2 N4_2 1_555 1_555
O4_2 Zn1 1_555 1_555
O5_2 Zn1 1_555 1_555
C4_2 C3_2 1_555 1_555
C5_2 C2_2 1_555 1_555
H7_2 C6_2 1_555 1_555
C7_2 C4_2 1_555 1_555
H8_2 C7_2 1_555 1_555
C9_2 C5_2 1_555 1_555
H9_2 C9_2 1_555 1_555
C17_2 N4_2 1_555 1_555
C20_2 C3_2 1_555 1_555
H14_2 C20_2 1_555 1_555
C26_2 N1_2 1_555 1_555
H20_2 C26_2 1_555 1_555
O7 Zn1 1_555 1_555
N7 Zn1 1_555 1_555
N5_2 C17_2 1_555 1_555
C2_2 O5_2 1_555 1_555
C5_2 C7_2 1_555 1_555
C9_2 C20_2 1_555 1_555
O3_2 C13_2 1_555 1_555
C12_2 H10_2 1_555 1_555
C13_2 C16_2 1_555 1_555
C16_2 C12_2 1_555 1_555
H13_2 C18_2 1_555 1_555
O7 C13_2 1_555 1_555
C12_2 C18_2 1_555 1_555
C16_2 C21_2 1_555 1_555
N2_2 H1_2 1_555 1_555
O1 C11_2 1_555 1_555
N3_2 H3_2 1_555 1_555
C10_2 N2_2 1_555 1_555
C11_2 N2_2 1_555 1_555
C14 H11 1_555 1_555
C22_2 C10_2 1_555 1_555
H16_2 C22_2 1_555 1_555
C23_2 C22_2 1_555 1_555
H17_2 C23_2 1_555 1_555
C24_2 H18_2 1_555 1_555
C25_2 C10_2 1_555 1_555
H19_2 C25_2 1_555 1_555
N7 C23_2 1_555 1_555
N3_2 C11_2 1_555 1_555
N3_2 C19 1_555 1_555
C14 C19 1_555 1_555
C24_2 C25_2 1_555 1_555
C24_2 N7 1_555 1_555
C1_2 H2_2 1_555 1_555
C15_2 C8_2 1_555 1_555
H12_2 C15_2 1_555 1_555
C14_2 H11_2 1_555 1_555
C14_2 C19_2 1_555 1_555
N2_3 H1_3 1_555 1_555
O1_3 C11_3 1_555 1_555
N3_3 H3_3 1_555 1_555
C10_3 N2_3 1_555 1_555
C11_3 N2_3 1_555 1_555
C14_3 H11_3 1_555 1_555
C22_3 C10_3 1_555 1_555
H16_3 C22_3 1_555 1_555
C23_3 C22_3 1_555 1_555
H17_3 C23_3 1_555 1_555
C24_3 H18_3 1_555 1_555
C25_3 C10_3 1_555 1_555
H19_3 C25_3 1_555 1_555
N6_2 C23_3 1_555 1_555
Zn2 N6_2 1_555 1_555
N3_3 C11_3 1_555 1_555
N3_3 C19_3 1_555 1_555
C14_3 C19_3 1_555 1_555
C24_3 C25_3 1_555 1_555
C24_3 N6_2 1_555 1_555
O3_3 C13_3 1_555 1_555
C12_3 H10_3 1_555 1_555
C13_3 C16_3 1_555 1_555
C16_3 C12_3 1_555 1_555
H13_3 C18_3 1_555 1_555
O6_2 C13_3 1_555 1_555
Zn2 O6_2 1_555 1_555
C12_3 C18_3 1_555 1_555
C16_3 C21_3 1_555 1_555
Zn2 N1_3 1_555 1_555
N1_3 C6_3 1_555 1_555
N4_3 H4_3 1_555 1_555
N5_3 H5_3 1_555 1_555
C2_3 O4_3 1_555 1_555
C3_3 N4_3 1_555 1_555
O4_3 Zn2 1_555 1_555
O5_3 Zn2 1_555 1_555
C4_3 C3_3 1_555 1_555
C5_3 C2_3 1_555 1_555
H7_3 C6_3 1_555 1_555
C7_3 C4_3 1_555 1_555
H8_3 C7_3 1_555 1_555
C9_3 C5_3 1_555 1_555
H9_3 C9_3 1_555 1_555
C17_3 N4_3 1_555 1_555
C20_3 C3_3 1_555 1_555
H14_3 C20_3 1_555 1_555
C26_3 N1_3 1_555 1_555
H20_3 C26_3 1_555 1_555
N5_3 C17_3 1_555 1_555
C2_3 O5_3 1_555 1_555
C5_3 C7_3 1_555 1_555
C9_3 C20_3 1_555 1_555
O2_3 C17_4 1_555 1_555
N4_4 H4_4 1_555 1_555
N5_4 H5_4 1_555 1_555
C2_4 O4_4 1_555 1_555
C3_4 N4_4 1_555 1_555
C4_4 C3_4 1_555 1_555
H6_3 C4_4 1_555 1_555
C5_4 C2_4 1_555 1_555
C7_4 C4_4 1_555 1_555
H8_4 C7_4 1_555 1_555
C8_3 N5_4 1_555 1_555
C9_4 C5_4 1_555 1_555
H9_4 C9_4 1_555 1_555
C15_3 C8_3 1_555 1_555
H12_3 C15_3 1_555 1_555
C17_4 N4_4 1_555 1_555
C20_4 C3_4 1_555 1_555
H14_4 C20_4 1_555 1_555
N5_4 C17_4 1_555 1_555
C2_4 O5_4 1_555 1_555
C5_4 C7_4 1_555 1_555
C9_4 C20_4 1_555 1_555
O3_4 C13_4 1_555 1_555
C12_4 H10_4 1_555 1_555
C13_4 C16_4 1_555 1_555
C16_4 C12_4 1_555 1_555
O7_2 C13_4 1_555 1_555
C12_4 C18_4 1_555 1_555
C16_4 C21_4 1_555 1_555
Zn1_2 N1_4 1_555 1_555
N1_4 C6_4 1_555 1_555
C1_3 H2_3 1_555 1_555
C6_4 C1_3 1_555 1_555
H7_4 C6_4 1_555 1_555
C26_4 N1_4 1_555 1_555
H20_4 C26_4 1_555 1_555
N7_2 Zn1_2 1_555 1_555
N2_4 H1_4 1_555 1_555
N3_4 H3_4 1_555 1_555
C10_4 N2_4 1_555 1_555
C11_4 N2_4 1_555 1_555
C22_4 C10_4 1_555 1_555
H16_4 C22_4 1_555 1_555
C23_4 C22_4 1_555 1_555
H17_4 C23_4 1_555 1_555
C24_4 H18_4 1_555 1_555
C25_4 C10_4 1_555 1_555
H19_4 C25_4 1_555 1_555
N7_2 C23_4 1_555 1_555
N3_4 C11_4 1_555 1_555
C24_4 C25_4 1_555 1_555
C24_4 N7_2 1_555 1_555
C14_4 H11_4 1_555 1_555
C14_4 C19_4 1_555 1_555
C1_4 H2_4 1_555 1_555
C15_4 C8_4 1_555 1_555
H12_4 C15_4 1_555 1_555

#END
