
###############################################################################
#
# This file contains modified crystal structure data generated from the
# MOF subset of the Cambridge Structural Database (CSD) v543 
# hosted by the Cambridge Crystallographic Data Centre (CCDC).
#
# This work is licensed under the Creative Commons
# Attribution-NonCommercial-ShareAlike 4.0 International License.
# To view a copy of this license, visit
# http://creativecommons.org/licenses/by-nc-sa/4.0/
# or send a letter to
# Creative Commons, PO Box 1866, Mountain View, CA 94042, USA.
#
# CIF created using the CSD Python API on 29 September 2022
# The structure has been converted into the P1 space group
# The structure has a 3D framework
# The original CSD entry TAVHOR is in the triclinic crystal system
# The framework has been calculated to contain at least 10.0% void space
# The void calculation uses a probe of radius 1.32A, grid spacing 0.4
#
###############################################################################

data_TAVHOR
_chemical_formula_moiety         '(C50 H56 Ca4 N12 O32)n'
_symmetry_cell_setting           triclinic
_symmetry_space_group_name_H-M   'P 1'
_symmetry_Int_Tables_number      1
_space_group_name_Hall           'P 1'
loop_
_symmetry_equiv_pos_site_id
_symmetry_equiv_pos_as_xyz
1 x,y,z
_cell_length_a                   10.628(2)
_cell_length_b                   13.310(3)
_cell_length_c                   13.741(3)
_cell_angle_alpha                79.741(6)
_cell_angle_beta                 73.155(6)
_cell_angle_gamma                71.586(5)
_cell_volume                     1757.09
loop_
_atom_site_label
_atom_site_type_symbol
_atom_site_fract_x
_atom_site_fract_y
_atom_site_fract_z
_atom_site_U_iso_or_equiv
_atom_site_thermal_displace_type
O34 O 0.1552(5) 0.0181(3) 0.3598(4) 0.0307 Uani
C15 C 0.1021(6) 0.9452(4) 0.0517(5) 0.0258 Uani
C18 C 0.2080(6) 0.8860(4) 0.1097(5) 0.0248 Uani
H20 H 0.0486 0.5296 0.3604 0.0560 Uiso
O8 O 0.0183(5) 0.7302(4) 0.3349(4) 0.0393 Uani
O9 O 0.1779(5) 0.8917(3) 0.2033(3) 0.0297 Uani
O10 O 0.3236(5) 0.8332(3) 0.0593(3) 0.0280 Uani
Ca1 Ca 0.07192(13) 0.87202(9) 0.37336(10) 0.0257 Uani
O39 O 0.2580(5) 0.7489(3) 0.4262(4) 0.0317 Uani
Ca10 Ca 0.40449(13) 0.65079(9) 0.11879(10) 0.0251 Uani
C17 C 0.1197(7) 0.9277(4) 0.9498(5) 0.0257 Uani
O11 O 0.2344(5) 0.8596(3) 0.8968(4) 0.0309 Uani
H25 H 0.2885 0.8314 0.9344 0.0460 Uiso
C27 C 0.0177(7) 0.9823(4) 0.8993(5) 0.0263 Uani
H29 H 0.0295 0.9701 0.8307 0.0320 Uiso
C9 C 0.7417(7) 0.0366(5) 0.3868(6) 0.0338 Uani
C10 C 0.5446(7) 0.1314(5) 0.4965(6) 0.0364 Uani
H3 H 0.5386 0.1940 0.5290 0.0440 Uiso
H4 H 0.4731 0.0975 0.5380 0.0440 Uiso
C11 C 0.5322(8) 0.1624(6) 0.3842(6) 0.0378 Uani
H5 H 0.4477 0.1522 0.3760 0.0450 Uiso
H6 H 0.5329 0.2372 0.3617 0.0450 Uiso
C16 C 0.9823(7) 0.0177(4) 0.1007(5) 0.0263 Uani
H11 H 0.9705 0.0299 0.1693 0.0320 Uiso
N1 N 0.6802(7) 0.0564(5) 0.4828(5) 0.0456 Uani
H17 H 0.7182 0.0268 0.5338 0.0540 Uiso
N2 N 0.6531(7) 0.0894(6) 0.3284(5) 0.0492 Uani
H18 H 0.6676 0.0801 0.2638 0.0590 Uiso
C28 C 0.8803(7) 0.0723(4) 0.0502(5) 0.0257 Uani
O19 O 0.7656(5) 0.1404(3) 0.1032(4) 0.0309 Uani
H30 H 0.7115 0.1686 0.0656 0.0460 Uiso
Ca9 Ca 0.92808(13) 0.12798(9) 0.62664(10) 0.0257 Uani
C26 C 0.8979(6) 0.0548(4) 0.9483(5) 0.0258 Uani
C29 C 0.7920(6) 0.1140(4) 0.8903(5) 0.0248 Uani
O17 O 0.8221(5) 0.1083(3) 0.7967(3) 0.0297 Uani
O18 O 0.6764(5) 0.1668(3) 0.9407(3) 0.0280 Uani
Ca12 Ca 0.59551(13) 0.34921(9) 0.88121(10) 0.0251 Uani
C19 C 0.6541(8) 0.7467(5) 0.1199(6) 0.0366 Uani
C20 C 0.6456(9) 0.9213(6) 0.1280(9) 0.0609 Uani
H12 H 0.6008 0.9532 0.1936 0.0730 Uiso
H13 H 0.6475 0.9787 0.0713 0.0730 Uiso
C21 C 0.7902(9) 0.8489(5) 0.1275(7) 0.0444 Uani
H14 H 0.8576 0.8642 0.0642 0.0530 Uiso
H15 H 0.8194 0.8568 0.1873 0.0530 Uiso
C22 C 0.4207(6) 0.5818(4) 0.4436(5) 0.0250 Uani
C23 C 0.5200(6) 0.4966(5) 0.3966(5) 0.0282 Uani
H16 H 0.5341 0.4938 0.3255 0.0330 Uiso
C24 C 0.6000(6) 0.4148(5) 0.4507(5) 0.0256 Uani
C25 C 0.3398(6) 0.6675(5) 0.3807(5) 0.0280 Uani
N5 N 0.5772(7) 0.8491(4) 0.1144(6) 0.0446 Uani
H21 H 0.4947 0.8693 0.1037 0.0540 Uiso
N6 N 0.7742(8) 0.7429(5) 0.1328(8) 0.0629 Uani
H22 H 0.8370 0.6834 0.1433 0.0750 Uiso
O12 O 0.6182(5) 0.6669(3) 0.1134(4) 0.0326 Uani
O13 O 0.3524(5) 0.6575(4) 0.2906(4) 0.0337 Uani
O15 O 0.6975(5) 0.3345(3) 0.3987(4) 0.0310 Uani
H26 H 0.7383 0.2906 0.4393 0.0470 Uiso
O16 O 0.1727(5) 0.6561(4) 0.1426(4) 0.0338 Uani
H27 H 0.118(9) 0.624(7) 0.130(7) 0.0500 Uiso
H28 H 0.130(9) 0.683(7) 0.195(7) 0.0400 Uiso
C30 C 0.5793(6) 0.4182(4) 0.5564(5) 0.0250 Uani
C31 C 0.4800(6) 0.5034(5) 0.6034(5) 0.0282 Uani
H31 H 0.4659 0.5062 0.6745 0.0330 Uiso
C32 C 0.4000(6) 0.5852(5) 0.5493(5) 0.0256 Uani
C33 C 0.6602(6) 0.3325(5) 0.6193(5) 0.0280 Uani
O20 O 0.6476(5) 0.3425(4) 0.7094(4) 0.0337 Uani
O21 O 0.7420(5) 0.2511(3) 0.5738(4) 0.0317 Uani
O22 O 0.3025(5) 0.6655(3) 0.6013(4) 0.0310 Uani
H32 H 0.2617 0.7094 0.5607 0.0470 Uiso
C34 C 0.2029(7) 0.1847(5) 0.3121(5) 0.0269 Uani
C35 C 0.1876(7) 0.2832(5) 0.3440(5) 0.0278 Uani
H33 H 0.1212 0.3056 0.4050 0.0330 Uiso
C36 C 0.2678(6) 0.3486(4) 0.2879(5) 0.0260 Uani
C37 C 0.3639(6) 0.3170(4) 0.1978(5) 0.0240 Uani
C38 C 0.3773(7) 0.2197(5) 0.1646(5) 0.0291 Uani
H34 H 0.4415 0.1985 0.1023 0.0350 Uiso
C39 C 0.2984(7) 0.1537(4) 0.2210(5) 0.0268 Uani
C40 C 0.1192(7) 0.1149(4) 0.3802(5) 0.0280 Uani
C41 C 0.4532(7) 0.3864(5) 0.1347(5) 0.0271 Uani
C45 C 0.0667(7) 0.3238(5) 0.6339(5) 0.0322 Uani
C46 C 0.2730(8) 0.3641(7) 0.5851(8) 0.0526 Uani
H39 H 0.3231 0.3547 0.6380 0.0630 Uiso
H40 H 0.3380 0.3630 0.5168 0.0630 Uiso
C47 C 0.1554(8) 0.4672(6) 0.5931(6) 0.0422 Uani
H41 H 0.1587 0.5102 0.5262 0.0500 Uiso
H42 H 0.1578 0.5105 0.6437 0.0500 Uiso
N9 N 0.2028(7) 0.2829(5) 0.6015(6) 0.0451 Uani
H49 H 0.2440 0.2156 0.5916 0.0540 Uiso
N10 N 0.0359(7) 0.4286(5) 0.6261(6) 0.0469 Uani
O23 O 0.0264(5) 0.1515(4) 0.4541(4) 0.0341 Uani
O25 O 0.2511(5) 0.4402(3) 0.3279(4) 0.0318 Uani
H53 H 0.3069 0.4722 0.2900 0.0480 Uiso
O26 O 0.3186(5) 0.0599(4) 0.1829(4) 0.0352 Uani
H54 H 0.2660 0.0262 0.2227 0.0520 Uiso
O27 O 0.5336(5) 0.3570(3) 0.0530(4) 0.0317 Uani
O28 O 0.4405(5) 0.4705(3) 0.1721(3) 0.0294 Uani
O29 O 0.1424(6) 0.0222(5) 0.6447(4) 0.0511 Uani
C1 C 0.7971(7) 0.8153(5) 0.6879(5) 0.0269 Uani
C2 C 0.8124(7) 0.7168(5) 0.6560(5) 0.0278 Uani
H1 H 0.8788 0.6944 0.5950 0.0330 Uiso
C3 C 0.7322(6) 0.6514(4) 0.7121(5) 0.0260 Uani
C4 C 0.6361(6) 0.6830(4) 0.8022(5) 0.0240 Uani
C5 C 0.6227(7) 0.7803(5) 0.8354(5) 0.0291 Uani
H2 H 0.5585 0.8015 0.8977 0.0350 Uiso
C6 C 0.7016(7) 0.8463(4) 0.7790(5) 0.0268 Uani
C7 C 0.8808(7) 0.8851(4) 0.6198(5) 0.0280 Uani
C8 C 0.5468(7) 0.6136(5) 0.8653(5) 0.0271 Uani
C12 C 0.9333(7) 0.6762(5) 0.3661(5) 0.0322 Uani
C13 C 0.7270(8) 0.6359(7) 0.4149(8) 0.0526 Uani
H7 H 0.6769 0.6453 0.3620 0.0630 Uiso
H8 H 0.6620 0.6370 0.4832 0.0630 Uiso
C14 C 0.8446(8) 0.5328(6) 0.4069(6) 0.0422 Uani
H9 H 0.8413 0.4898 0.4738 0.0500 Uiso
H10 H 0.8422 0.4895 0.3563 0.0500 Uiso
N3 N 0.7972(7) 0.7171(5) 0.3985(6) 0.0451 Uani
H19 H 0.7560 0.7844 0.4084 0.0540 Uiso
N4 N 0.9641(7) 0.5714(5) 0.3739(6) 0.0469 Uani
O1 O 0.9736(5) 0.8485(4) 0.5459(4) 0.0341 Uani
O2 O 0.8448(5) 0.9819(3) 0.6402(4) 0.0307 Uani
O3 O 0.7489(5) 0.5598(3) 0.6721(4) 0.0318 Uani
H23 H 0.6931 0.5278 0.7100 0.0480 Uiso
O4 O 0.6814(5) 0.9401(4) 0.8171(4) 0.0352 Uani
H24 H 0.7340 0.9738 0.7773 0.0520 Uiso
O5 O 0.4664(5) 0.6430(3) 0.9470(4) 0.0317 Uani
O6 O 0.5595(5) 0.5295(3) 0.8279(3) 0.0294 Uani
O7 O 0.8576(6) 0.9778(5) 0.3553(4) 0.0511 Uani
C48 C 0.3459(8) 0.2533(5) 0.8801(6) 0.0366 Uani
C49 C 0.3544(9) 0.0787(6) 0.8720(9) 0.0609 Uani
H43 H 0.3992 0.0468 0.8064 0.0730 Uiso
H44 H 0.3525 0.0213 0.9287 0.0730 Uiso
C50 C 0.2098(9) 0.1511(5) 0.8725(7) 0.0444 Uani
H45 H 0.1424 0.1358 0.9358 0.0530 Uiso
H46 H 0.1806 0.1432 0.8127 0.0530 Uiso
N11 N 0.4228(7) 0.1509(4) 0.8856(6) 0.0446 Uani
H51 H 0.5053 0.1307 0.8963 0.0540 Uiso
N12 N 0.2258(8) 0.2571(5) 0.8672(8) 0.0629 Uani
H52 H 0.1630 0.3166 0.8567 0.0750 Uiso
O31 O 0.3818(5) 0.3331(3) 0.8866(4) 0.0326 Uani
O32 O 0.8273(5) 0.3439(4) 0.8574(4) 0.0338 Uani
H55 H 0.882(9) 0.376(7) 0.870(7) 0.0500 Uiso
H56 H 0.870(9) 0.317(7) 0.805(7) 0.0400 Uiso
C42 C 0.2583(7) 0.9634(5) 0.6132(6) 0.0338 Uani
C43 C 0.4554(7) 0.8686(5) 0.5035(6) 0.0364 Uani
H35 H 0.4614 0.8060 0.4710 0.0440 Uiso
H36 H 0.5269 0.9025 0.4620 0.0440 Uiso
C44 C 0.4678(8) 0.8376(6) 0.6158(6) 0.0378 Uani
H37 H 0.5523 0.8478 0.6240 0.0450 Uiso
H38 H 0.4671 0.7628 0.6383 0.0450 Uiso
N7 N 0.3198(7) 0.9436(5) 0.5172(5) 0.0456 Uani
H47 H 0.2818 0.9732 0.4662 0.0540 Uiso
N8 N 0.3469(7) 0.9106(6) 0.6716(5) 0.0492 Uani
H48 H 0.3324 0.9199 0.7362 0.0590 Uiso
H50 H 0.9514 0.4704 0.6396 0.0560 Uiso
O30 O 0.9817(5) 0.2698(4) 0.6651(4) 0.0393 Uani
loop_
_atom_site_aniso_label
_atom_site_aniso_U_11
_atom_site_aniso_U_22
_atom_site_aniso_U_33
_atom_site_aniso_U_23
_atom_site_aniso_U_13
_atom_site_aniso_U_12
O34 0.043 0.0185 0.031 0.0083 -0.01 -0.0141
C15 0.03 0.021 0.024 0.004 -0.007 -0.007
C18 0.029 0.019 0.025 0.006 -0.007 -0.009
O8 0.046 0.032 0.042 -0.004 -0.004 -0.02
O9 0.036 0.03 0.02 0.0087 -0.0089 -0.0093
O10 0.032 0.0212 0.028 0.0075 -0.011 -0.0058
Ca1 0.0317 0.0198 0.0238 0.0064 -0.0082 -0.0081
O39 0.036 0.022 0.032 0.0071 -0.015 -0.0005
Ca10 0.0321 0.0193 0.022 0.0066 -0.0079 -0.0081
C17 0.032 0.02 0.023 0.007 -0.006 -0.01
O11 0.032 0.031 0.026 0.0045 -0.011 -0.0041
C27 0.035 0.018 0.025 0.005 -0.011 -0.007
C9 0.034 0.03 0.034 0.006 -0.013 -0.005
C10 0.036 0.034 0.034 0.003 -0.011 -0.004
C11 0.037 0.033 0.04 0.004 -0.013 -0.006
C16 0.035 0.018 0.025 0.005 -0.011 -0.007
N1 0.044 0.049 0.032 0 -0.015 0.006
N2 0.049 0.057 0.029 0.005 -0.018 0.005
C28 0.032 0.02 0.023 0.007 -0.006 -0.01
O19 0.032 0.031 0.026 0.0045 -0.011 -0.0041
Ca9 0.0317 0.0198 0.0238 0.0064 -0.0082 -0.0081
C26 0.03 0.021 0.024 0.004 -0.007 -0.007
C29 0.029 0.019 0.025 0.006 -0.007 -0.009
O17 0.036 0.03 0.02 0.0087 -0.0089 -0.0093
O18 0.032 0.0212 0.028 0.0075 -0.011 -0.0058
Ca12 0.0321 0.0193 0.022 0.0066 -0.0079 -0.0081
C19 0.041 0.027 0.04 0.009 -0.013 -0.011
C20 0.046 0.032 0.107 0.015 -0.03 -0.016
C21 0.053 0.029 0.054 0.01 -0.02 -0.017
C22 0.031 0.022 0.021 0.006 -0.008 -0.009
C23 0.03 0.028 0.023 0.004 -0.003 -0.01
C24 0.026 0.022 0.024 0.004 -0.008 -0.002
C25 0.027 0.024 0.031 0.003 -0.009 -0.006
N5 0.039 0.024 0.068 0.003 -0.018 -0.005
N6 0.051 0.023 0.125 0.008 -0.046 -0.011
O12 0.035 0.021 0.043 0.0006 -0.014 -0.0078
O13 0.047 0.029 0.021 0.0032 -0.013 -0.004
O15 0.036 0.024 0.025 0.0031 -0.009 0.0007
O16 0.033 0.028 0.038 -0.001 -0.006 -0.009
C30 0.031 0.022 0.021 0.006 -0.008 -0.009
C31 0.03 0.028 0.023 0.004 -0.003 -0.01
C32 0.026 0.022 0.024 0.004 -0.008 -0.002
C33 0.027 0.024 0.031 0.003 -0.009 -0.006
O20 0.047 0.029 0.021 0.0032 -0.013 -0.004
O21 0.036 0.022 0.032 0.0071 -0.015 -0.0005
O22 0.036 0.024 0.025 0.0031 -0.009 0.0007
C34 0.033 0.022 0.024 0.011 -0.011 -0.009
C35 0.033 0.026 0.02 0.005 -0.008 -0.005
C36 0.029 0.019 0.028 0.003 -0.008 -0.006
C37 0.028 0.018 0.022 0.007 -0.005 -0.007
C38 0.034 0.026 0.023 0.006 -0.005 -0.009
C39 0.033 0.02 0.024 0.007 -0.009 -0.006
C40 0.041 0.019 0.026 0.009 -0.015 -0.011
C41 0.036 0.026 0.02 0.007 -0.011 -0.011
C45 0.04 0.031 0.024 0.002 -0.004 -0.014
C46 0.038 0.056 0.063 0.019 -0.012 -0.026
C47 0.047 0.038 0.043 0.006 -0.006 -0.024
N9 0.038 0.032 0.06 0.007 -0.011 -0.01
N10 0.038 0.031 0.066 -0.002 -0.001 -0.014
O23 0.041 0.031 0.025 0.0054 -0.002 -0.013
O25 0.044 0.0205 0.029 0.0011 -0.003 -0.0138
O26 0.043 0.031 0.029 -0.0037 0.004 -0.018
O27 0.044 0.025 0.023 0.0054 -0.005 -0.0126
O28 0.038 0.0209 0.026 0.0043 -0.005 -0.0101
O29 0.038 0.058 0.042 -0.002 -0.012 0.008
C1 0.033 0.022 0.024 0.011 -0.011 -0.009
C2 0.033 0.026 0.02 0.005 -0.008 -0.005
C3 0.029 0.019 0.028 0.003 -0.008 -0.006
C4 0.028 0.018 0.022 0.007 -0.005 -0.007
C5 0.034 0.026 0.023 0.006 -0.005 -0.009
C6 0.033 0.02 0.024 0.007 -0.009 -0.006
C7 0.041 0.019 0.026 0.009 -0.015 -0.011
C8 0.036 0.026 0.02 0.007 -0.011 -0.011
C12 0.04 0.031 0.024 0.002 -0.004 -0.014
C13 0.038 0.056 0.063 0.019 -0.012 -0.026
C14 0.047 0.038 0.043 0.006 -0.006 -0.024
N3 0.038 0.032 0.06 0.007 -0.011 -0.01
N4 0.038 0.031 0.066 -0.002 -0.001 -0.014
O1 0.041 0.031 0.025 0.0054 -0.002 -0.013
O2 0.043 0.0185 0.031 0.0083 -0.01 -0.0141
O3 0.044 0.0205 0.029 0.0011 -0.003 -0.0138
O4 0.043 0.031 0.029 -0.0037 0.004 -0.018
O5 0.044 0.025 0.023 0.0054 -0.005 -0.0126
O6 0.038 0.0209 0.026 0.0043 -0.005 -0.0101
O7 0.038 0.058 0.042 -0.002 -0.012 0.008
C48 0.041 0.027 0.04 0.009 -0.013 -0.011
C49 0.046 0.032 0.107 0.015 -0.03 -0.016
C50 0.053 0.029 0.054 0.01 -0.02 -0.017
N11 0.039 0.024 0.068 0.003 -0.018 -0.005
N12 0.051 0.023 0.125 0.008 -0.046 -0.011
O31 0.035 0.021 0.043 0.0006 -0.014 -0.0078
O32 0.033 0.028 0.038 -0.001 -0.006 -0.009
C42 0.034 0.03 0.034 0.006 -0.013 -0.005
C43 0.036 0.034 0.034 0.003 -0.011 -0.004
C44 0.037 0.033 0.04 0.004 -0.013 -0.006
N7 0.044 0.049 0.032 0 -0.015 0.006
N8 0.049 0.057 0.029 0.005 -0.018 0.005
O30 0.046 0.032 0.042 -0.004 -0.004 -0.02
loop_
_geom_bond_atom_site_label_1
_geom_bond_atom_site_label_2
_geom_bond_site_symmetry_1
_geom_bond_site_symmetry_2
C18 C15 1_555 1_555
O9 C18 1_555 1_555
O10 C18 1_555 1_555
O39 Ca1 1_555 1_555
Ca10 O10 1_555 1_555
O8 Ca1 1_555 1_555
O9 Ca1 1_555 1_555
O11 C17 1_555 1_555
H25 O11 1_555 1_555
C27 C17 1_555 1_555
H29 C27 1_555 1_555
C9 N1 1_555 1_555
C10 H3 1_555 1_555
H4 C10 1_555 1_555
C11 C10 1_555 1_555
H5 C11 1_555 1_555
H6 C11 1_555 1_555
C16 H11 1_555 1_555
N1 C10 1_555 1_555
H17 N1 1_555 1_555
N2 C9 1_555 1_555
H18 N2 1_555 1_555
C28 C16 1_555 1_555
O19 C28 1_555 1_555
H30 O19 1_555 1_555
C11 N2 1_555 1_555
C29 C26 1_555 1_555
O17 C29 1_555 1_555
O18 C29 1_555 1_555
Ca9 O17 1_555 1_555
Ca12 O18 1_555 1_555
C19 N5 1_555 1_555
C20 H12 1_555 1_555
H13 C20 1_555 1_555
C21 C20 1_555 1_555
H14 C21 1_555 1_555
H15 C21 1_555 1_555
C22 C23 1_555 1_555
C23 H16 1_555 1_555
C24 C23 1_555 1_555
C25 C22 1_555 1_555
N5 C20 1_555 1_555
H21 N5 1_555 1_555
N6 C19 1_555 1_555
H22 N6 1_555 1_555
O12 C19 1_555 1_555
O13 C25 1_555 1_555
O39 C25 1_555 1_555
O15 C24 1_555 1_555
H26 O15 1_555 1_555
O16 Ca10 1_555 1_555
H27 O16 1_555 1_555
H28 O16 1_555 1_555
C30 C24 1_555 1_555
C31 C30 1_555 1_555
H31 C31 1_555 1_555
C32 C22 1_555 1_555
C33 C30 1_555 1_555
O20 C33 1_555 1_555
O21 C33 1_555 1_555
O22 C32 1_555 1_555
H32 O22 1_555 1_555
C34 C35 1_555 1_555
C35 H33 1_555 1_555
C36 C35 1_555 1_555
C37 C36 1_555 1_555
C38 C37 1_555 1_555
H34 C38 1_555 1_555
C39 C34 1_555 1_555
C40 C34 1_555 1_555
C41 C37 1_555 1_555
C45 N9 1_555 1_555
C46 H39 1_555 1_555
H40 C46 1_555 1_555
C47 C46 1_555 1_555
H41 C47 1_555 1_555
H42 C47 1_555 1_555
N9 C46 1_555 1_555
H49 N9 1_555 1_555
N10 C45 1_555 1_555
O23 C40 1_555 1_555
O34 C40 1_555 1_555
O25 C36 1_555 1_555
H53 O25 1_555 1_555
O26 C39 1_555 1_555
H54 O26 1_555 1_555
O27 C41 1_555 1_555
O28 Ca10 1_555 1_555
Ca9 O21 1_555 1_555
Ca12 O20 1_555 1_555
C21 N6 1_555 1_555
O12 Ca10 1_555 1_555
O13 Ca10 1_555 1_555
C31 C32 1_555 1_555
C38 C39 1_555 1_555
C41 O28 1_555 1_555
C47 N10 1_555 1_555
C1 C2 1_555 1_555
C2 H1 1_555 1_555
C3 C2 1_555 1_555
C4 C3 1_555 1_555
C5 C4 1_555 1_555
H2 C5 1_555 1_555
C6 C1 1_555 1_555
C7 C1 1_555 1_555
C8 C4 1_555 1_555
C12 N3 1_555 1_555
C13 H7 1_555 1_555
H8 C13 1_555 1_555
C14 C13 1_555 1_555
H9 C14 1_555 1_555
H10 C14 1_555 1_555
N3 C13 1_555 1_555
H19 N3 1_555 1_555
N4 C12 1_555 1_555
O1 C7 1_555 1_555
O2 C7 1_555 1_555
O3 C3 1_555 1_555
H23 O3 1_555 1_555
O4 C6 1_555 1_555
H24 O4 1_555 1_555
O5 C8 1_555 1_555
O6 C8 1_555 1_555
C48 N11 1_555 1_555
C49 H43 1_555 1_555
H44 C49 1_555 1_555
C50 C49 1_555 1_555
H45 C50 1_555 1_555
H46 C50 1_555 1_555
N11 C49 1_555 1_555
H51 N11 1_555 1_555
N12 C48 1_555 1_555
H52 N12 1_555 1_555
O31 C48 1_555 1_555
O32 Ca12 1_555 1_555
Ca12 O6 1_555 1_555
H55 O32 1_555 1_555
H56 O32 1_555 1_555
C5 C6 1_555 1_555
C14 N4 1_555 1_555
C50 N12 1_555 1_555
O31 Ca12 1_555 1_555
C42 N7 1_555 1_555
C43 H35 1_555 1_555
H36 C43 1_555 1_555
C44 C43 1_555 1_555
H37 C44 1_555 1_555
H38 C44 1_555 1_555
N7 C43 1_555 1_555
H47 N7 1_555 1_555
N8 C42 1_555 1_555
H48 N8 1_555 1_555
C44 N8 1_555 1_555
O30 Ca9 1_555 1_555

#END
