
###############################################################################
#
# This file contains modified crystal structure data generated from the
# MOF subset of the Cambridge Structural Database (CSD) v543 
# hosted by the Cambridge Crystallographic Data Centre (CCDC).
#
# This work is licensed under the Creative Commons
# Attribution-NonCommercial-ShareAlike 4.0 International License.
# To view a copy of this license, visit
# http://creativecommons.org/licenses/by-nc-sa/4.0/
# or send a letter to
# Creative Commons, PO Box 1866, Mountain View, CA 94042, USA.
#
# CIF created using the CSD Python API on 29 September 2022
# The structure has been converted into the P1 space group
# The structure has a 3D framework
# The original CSD entry TAXLIQ is in the triclinic crystal system
# The framework has been calculated to contain at least 10.0% void space
# The void calculation uses a probe of radius 1.32A, grid spacing 0.4
# H atom positions have been added when not included in the experimental data
#
###############################################################################

data_TAXLIQ
_chemical_formula_moiety         '(C112 H56 N8 O44 Zn8)n'
_symmetry_cell_setting           triclinic
_symmetry_space_group_name_H-M   'P 1'
_symmetry_Int_Tables_number      1
_space_group_name_Hall           'P 1'
loop_
_symmetry_equiv_pos_site_id
_symmetry_equiv_pos_as_xyz
1 x,y,z
_cell_length_a                   17.8807(10)
_cell_length_b                   17.8994(10)
_cell_length_c                   18.0421(11)
_cell_angle_alpha                72.369(4)
_cell_angle_beta                 72.042(4)
_cell_angle_gamma                88.087(4)
_cell_volume                     5223.62
loop_
_atom_site_label
_atom_site_type_symbol
_atom_site_fract_x
_atom_site_fract_y
_atom_site_fract_z
O27 O 0.0052(3) 0.5921(4) 0.2659(4)
O12 O 0.0142(3) 0.3593(3) 0.8532(4)
O14 O 0.0333(3) 0.8574(3) 0.7331(4)
C56 C 0.0077(5) 0.8149(5) 0.8044(6)
O22 O 0.0542(3) 0.7869(3) 0.8448(3)
Zn6 Zn 0.15360(4) 0.84534(4) 0.74955(5)
Zn8 Zn 0.11642(5) 0.39544(5) 0.74817(5)
Zn1 Zn 0.84640(4) 0.15466(4) 0.25045(5)
Zn2 Zn 0.88358(5) 0.60456(5) 0.25183(5)
O2 O 0.8415(3) 0.4959(3) 0.3225(3)
Zn3 Zn 0.39758(4) 0.11088(5) 0.24685(5)
Zn4 Zn 0.43731(5) 0.55883(5) 0.24833(5)
O4 O 0.4116(3) 0.4477(3) 0.3212(4)
N1 N 0.8074(3) 0.6264(3) 0.1837(4)
N2 N 0.8167(3) 0.2336(3) 0.3161(4)
C1 C 0.8290(4) 0.6725(4) 0.1040(5)
H1 H 0.8802 0.6955 0.0805
C2 C 0.5829(5) 0.3098(5) 0.7047(6)
C3 C 0.7893(4) 0.2342(4) 0.1082(4)
H2 H 0.8403 0.2574 0.0869
O5 O 0.5718(4) 0.5489(4) 0.2937(4)
C4 C 0.7671(4) 0.2128(4) 0.3934(5)
H3 H 0.7451 0.1615 0.4160
C5 C 0.7772(4) 0.3400(4) 0.4047(4)
H4 H 0.7648 0.3758 0.4341
C6 C 0.6779(4) 0.6111(4) 0.1750(5)
C7 C 0.6610(4) 0.2835(4) 0.5729(5)
H5 H 0.6697 0.3374 0.5473
C8 C 0.7406(4) 0.2537(4) 0.0584(5)
C9 C 0.5925(5) 0.5781(5) 0.2190(6)
O6 O 0.8972(4) 0.4664(3) 0.2083(4)
C12 C 0.6011(4) 0.1739(5) 0.6914(5)
H6 H 0.5691 0.1542 0.7455
C13 C 0.6790(4) 0.1518(4) 0.5673(5)
H7 H 0.7009 0.1169 0.5387
C14 C 0.7463(4) 0.2618(4) 0.4418(4)
O7 O 0.5407(5) 0.2804(4) 0.7754(4)
C15 C 0.2328(4) 0.2378(4) 0.5754(5)
H8 H 0.2425 0.2918 0.5506
C16 C 0.2035(4) 0.0780(4) 0.6519(5)
C17 C 0.3879(4) 0.3177(4) 0.3217(5)
C18 C 0.7032(4) 0.6541(4) 0.0925(5)
H9 H 0.6688 0.6606 0.0617
C19 C 0.3118(4) 0.2156(4) 0.4424(5)
C20 C 0.2475(4) 0.1051(4) 0.5705(5)
H10 H 0.2658 0.0696 0.5416
C21 C 0.6936(4) 0.2325(4) 0.5275(5)
C22 C 0.6157(4) 0.2557(4) 0.6557(5)
C23 C 0.6627(4) 0.2207(4) 0.0954(5)
H11 H 0.6266 0.2318 0.0665
C24 C 0.4191(5) 0.4021(5) 0.2760(6)
C25 C 0.8261(4) 0.3638(4) 0.3246(5)
C26 C 0.3453(4) 0.2934(4) 0.4049(5)
H12 H 0.3390 0.3281 0.4353
C27 C 0.3298(4) 0.1665(4) 0.3938(5)
H13 H 0.3100 0.1144 0.4175
C28 C 0.5542(5) 0.1366(5) 0.2174(6)
C29 C 0.7801(4) 0.6875(4) 0.0559(4)
C30 C 0.6406(4) 0.1718(4) 0.1749(5)
O8 O 0.5375(3) 0.0947(4) 0.2893(4)
C31 C 0.7309(4) 0.5980(4) 0.2174(5)
H14 H 0.7138 0.5681 0.2723
C32 C 0.8587(5) 0.4485(5) 0.2819(6)
C33 C 0.2650(4) 0.1867(4) 0.5304(4)
O9 O 0.4484(4) 0.4219(3) 0.2021(4)
C34 C 0.4023(4) 0.2642(4) 0.2809(5)
H15 H 0.4336 0.2803 0.2264
C35 C 0.6935(4) 0.1545(4) 0.2159(5)
H16 H 0.6776 0.1199 0.2689
C37 C 0.6325(4) 0.1223(4) 0.6491(5)
C40 C 0.8450(4) 0.3095(4) 0.2841(5)
H18 H 0.8796 0.3256 0.2309
C45 C 0.1708(4) 0.1307(4) 0.6944(5)
H19 H 0.1383 0.1125 0.7484
C46 C 0.6204(5) 0.0345(5) 0.6906(6)
C48 C 0.1531(5) 0.2667(5) 0.7047(6)
O13 O 0.1649(3) 0.3398(3) 0.6654(3)
C50 C 0.1870(4) 0.2090(5) 0.6560(5)
O15 O 0.5894(4) 0.0098(3) 0.7665(4)
O17 O 0.6000(3) 0.3811(3) 0.6710(3)
O18 O 0.1133(4) 0.2409(4) 0.7767(4)
N3 N 0.7677(3) 0.1850(3) 0.1836(3)
O21 O 0.5482(3) 0.5840(3) 0.1760(4)
N4 N 0.3740(3) 0.1893(3) 0.3147(4)
O24 O 0.5070(3) 0.1537(3) 0.1765(3)
O25 O 0.3415(3) 0.1601(3) 0.1652(3)
O26 O 0.7866(3) 0.0553(3) 0.3462(3)
Zn12 Zn 0.56269(5) 0.44117(5) 0.75167(5)
O28 O 0.8587(3) 0.0349(3) 0.2336(4)
O29 O 0.9858(3) 0.6407(3) 0.1468(4)
O30 O 0.8351(3) 0.6602(3) 0.3346(3)
O31 O 0.9667(3) 0.1426(3) 0.2669(4)
O33 O 0.4000(3) 0.6189(3) 0.3290(3)
O34 O 0.3611(3) 0.0090(3) 0.3541(4)
O35 O 0.9458(3) 0.2131(3) 0.1552(3)
O36 O 0.3780(3) 0.5956(3) 0.1680(4)
H26 H 0.0587684 0.257756 0.783435
H28 H 0.570851 0.243479 0.806798
O1 O 0.6585(3) 0.8399(3) 0.8348(3)
C10 C 0.9701(5) 0.3784(5) 0.8106(6)
O10 O 0.9948(3) 0.4079(4) 0.7341(4)
C36 C 0.7881(4) 0.8164(4) 0.8435(5)
C38 C 0.8923(4) 0.7513(4) 0.9292(5)
H17 H 0.9275 0.7297 0.9573
C39 C 0.7705(4) 0.3057(4) 0.9735(5)
C41 C 0.8808(4) 0.3654(5) 0.8517(5)
C42 C 0.6956(5) 0.4205(5) 0.7989(6)
C43 C 0.7309(5) 0.8523(5) 0.7950(6)
C44 C 0.8100(4) 0.7362(4) 0.9692(5)
C47 C 0.7589(4) 0.7702(4) 0.9254(5)
H20 H 0.7047 0.7620 0.9510
C49 C 0.8523(4) 0.3186(4) 0.9322(5)
H21 H 0.8875 0.2952 0.9596
C51 C 0.7485(5) 0.3857(4) 0.8474(5)
C52 C 0.8297(5) 0.3985(5) 0.8095(5)
H22 H 0.8494 0.4298 0.7552
C53 C 0.8691(4) 0.8304(4) 0.8042(5)
H23 H 0.8884 0.8606 0.7495
C54 C 0.7195(4) 0.3400(4) 0.9286(5)
H24 H 0.6653 0.3317 0.9539
C55 C 0.9207(4) 0.7987(4) 0.8477(5)
O16 O 0.7243(4) 0.4639(5) 0.7270(4)
O19 O 0.7581(4) 0.8919(4) 0.7240(4)
O23 O 0.6220(3) 0.4044(3) 0.8320(4)
Zn10 Zn 0.60242(4) 0.88912(5) 0.75315(5)
H25 H 0.760286 0.434074 0.694043
H27 H 0.741699 0.946446 0.717601
O3 O 0.2134(3) 0.9447(3) 0.6538(3)
C11 C 0.1846(5) 0.9916(4) 0.6941(5)
O11 O 0.1413(3) 0.9651(3) 0.7664(4)
O20 O 0.6389(3) 0.9910(3) 0.6459(4)
O32 O 0.4106(4) 0.9902(3) 0.2335(4)
C11_2 C 0.8154(5) 0.0084(4) 0.3059(5)
C10_2 C 0.0299(5) 0.6216(5) 0.1894(6)
C36_2 C 0.2119(4) 0.1836(4) 0.1565(5)
C38_2 C 0.1077(4) 0.2487(4) 0.0708(5)
H17_2 H 0.0725 0.2703 0.0427
C39_2 C 0.2295(4) 0.6943(4) 0.0265(5)
C41_2 C 0.1192(4) 0.6346(5) 0.1483(5)
C42_2 C 0.3044(5) 0.5795(5) 0.2011(6)
C43_2 C 0.2691(5) 0.1477(5) 0.2050(6)
C44_2 C 0.1900(4) 0.2638(4) 0.0308(5)
C47_2 C 0.2411(4) 0.2298(4) 0.0746(5)
H20_2 H 0.2953 0.2380 0.0490
C49_2 C 0.1477(4) 0.6814(4) 0.0678(5)
H21_2 H 0.1125 0.7048 0.0404
C51_2 C 0.2515(5) 0.6143(4) 0.1526(5)
C52_2 C 0.1703(5) 0.6015(5) 0.1905(5)
H22_2 H 0.1506 0.5702 0.2448
C53_2 C 0.1309(4) 0.1696(4) 0.1958(5)
H23_2 H 0.1116 0.1394 0.2505
C54_2 C 0.2805(4) 0.6600(4) 0.0714(5)
H24_2 H 0.3347 0.6683 0.0461
C55_2 C 0.0793(4) 0.2013(4) 0.1523(5)
O16_2 O 0.2757(4) 0.5361(5) 0.2730(4)
O19_2 O 0.2419(4) 0.1081(4) 0.2760(4)
H25_2 H 0.239714 0.565926 0.305957
H27_2 H 0.258301 0.0535542 0.282399
O2_2 O 0.1585(3) 0.5041(3) 0.6775(3)
O4_2 O 0.5884(3) 0.5523(3) 0.6788(4)
N1_2 N 0.1926(3) 0.3736(3) 0.8163(4)
N2_2 N 0.1833(3) 0.7664(3) 0.6839(4)
C1_2 C 0.1710(4) 0.3275(4) 0.8960(5)
H1_2 H 0.1198 0.3045 0.9195
C2_2 C 0.4171(5) 0.6902(5) 0.2953(6)
C3_2 C 0.2107(4) 0.7658(4) 0.8918(4)
H2_2 H 0.1597 0.7426 0.9131
O5_2 O 0.4282(4) 0.4511(4) 0.7063(4)
C4_2 C 0.2329(4) 0.7872(4) 0.6066(5)
H3_2 H 0.2549 0.8385 0.5840
C5_2 C 0.2228(4) 0.6600(4) 0.5953(4)
H4_2 H 0.2352 0.6242 0.5659
C6_2 C 0.3221(4) 0.3889(4) 0.8250(5)
C7_2 C 0.3390(4) 0.7165(4) 0.4271(5)
H5_2 H 0.3303 0.6626 0.4527
C8_2 C 0.2594(4) 0.7463(4) 0.9416(5)
C9_2 C 0.4075(5) 0.4219(5) 0.7810(6)
O6_2 O 0.1028(4) 0.5336(3) 0.7917(4)
C12_2 C 0.3989(4) 0.8261(5) 0.3086(5)
H6_2 H 0.4309 0.8458 0.2545
C13_2 C 0.3210(4) 0.8482(4) 0.4327(5)
H7_2 H 0.2991 0.8831 0.4613
C14_2 C 0.2537(4) 0.7382(4) 0.5582(4)
O7_2 O 0.4593(5) 0.7196(4) 0.2246(4)
C15_2 C 0.7672(4) 0.7622(4) 0.4246(5)
H8_2 H 0.7575 0.7082 0.4494
C16_2 C 0.7965(4) 0.9220(4) 0.3481(5)
C17_2 C 0.6121(4) 0.6823(4) 0.6783(5)
C18_2 C 0.2968(4) 0.3459(4) 0.9075(5)
H9_2 H 0.3312 0.3394 0.9383
C19_2 C 0.6882(4) 0.7844(4) 0.5576(5)
C20_2 C 0.7525(4) 0.8949(4) 0.4295(5)
H10_2 H 0.7342 0.9304 0.4584
C21_2 C 0.3064(4) 0.7675(4) 0.4725(5)
C22_2 C 0.3843(4) 0.7443(4) 0.3443(5)
C23_2 C 0.3373(4) 0.7793(4) 0.9046(5)
H11_2 H 0.3734 0.7682 0.9335
C24_2 C 0.5809(5) 0.5979(5) 0.7240(6)
C25_2 C 0.1739(4) 0.6362(4) 0.6754(5)
C26_2 C 0.6547(4) 0.7066(4) 0.5951(5)
H12_2 H 0.6610 0.6719 0.5647
C27_2 C 0.6702(4) 0.8335(4) 0.6062(5)
H13_2 H 0.6900 0.8856 0.5825
C28_2 C 0.4458(5) 0.8634(5) 0.7826(6)
C29_2 C 0.2199(4) 0.3125(4) 0.9441(4)
C30_2 C 0.3594(4) 0.8282(4) 0.8251(5)
O8_2 O 0.4625(3) 0.9053(4) 0.7107(4)
C31_2 C 0.2691(4) 0.4020(4) 0.7826(5)
H14_2 H 0.2862 0.4319 0.7277
C32_2 C 0.1413(5) 0.5515(5) 0.7181(6)
C33_2 C 0.7350(4) 0.8133(4) 0.4696(4)
O9_2 O 0.5516(4) 0.5781(3) 0.7979(4)
C34_2 C 0.5977(4) 0.7358(4) 0.7191(5)
H15_2 H 0.5664 0.7197 0.7736
C35_2 C 0.3065(4) 0.8455(4) 0.7841(5)
H16_2 H 0.3224 0.8801 0.7311
C37_2 C 0.3675(4) 0.8777(4) 0.3509(5)
C40_2 C 0.1550(4) 0.6905(4) 0.7159(5)
H18_2 H 0.1204 0.6744 0.7691
C45_2 C 0.8292(4) 0.8693(4) 0.3056(5)
H19_2 H 0.8617 0.8875 0.2516
C46_2 C 0.3796(5) 0.9655(5) 0.3094(6)
C48_2 C 0.8469(5) 0.7333(5) 0.2953(6)
C50_2 C 0.8130(4) 0.7910(5) 0.3440(5)
O18_2 O 0.8867(4) 0.7591(4) 0.2233(4)
N3_2 N 0.2323(3) 0.8150(3) 0.8164(3)
O21_2 O 0.4518(3) 0.4160(3) 0.8240(4)
N4_2 N 0.6260(3) 0.8107(3) 0.6853(4)
O24_2 O 0.4930(3) 0.8463(3) 0.8235(3)
H26_2 H 0.941232 0.742244 0.216565
H28_2 H 0.429149 0.756521 0.193202
C56_2 C 0.9923(5) 0.1851(5) 0.1956(6)
loop_
_geom_bond_atom_site_label_1
_geom_bond_atom_site_label_2
_geom_bond_site_symmetry_1
_geom_bond_site_symmetry_2
O14 C56 1_555 1_555
O22 C56 1_555 1_555
Zn6 O14 1_555 1_555
Zn8 O12 1_555 1_555
O22 Zn6 1_555 1_555
Zn1 N2 1_555 1_555
Zn2 O2 1_555 1_555
O2 C32 1_555 1_555
Zn3 N4 1_555 1_555
Zn4 O4 1_555 1_555
O4 C24 1_555 1_555
N1 Zn2 1_555 1_555
N2 C4 1_555 1_555
C1 N1 1_555 1_555
H1 C1 1_555 1_555
C2 O7 1_555 1_555
C3 H2 1_555 1_555
O5 C9 1_555 1_555
C4 H3 1_555 1_555
C5 H4 1_555 1_555
C6 C9 1_555 1_555
C7 H5 1_555 1_555
C8 C3 1_555 1_555
C9 O21 1_555 1_555
O6 C32 1_555 1_555
C12 H6 1_555 1_555
C13 H7 1_555 1_555
C14 C4 1_555 1_555
C15 H8 1_555 1_555
C16 C20 1_555 1_555
C17 C24 1_555 1_555
C18 C6 1_555 1_555
H9 C18 1_555 1_555
C19 C26 1_555 1_555
C20 H10 1_555 1_555
C21 C7 1_555 1_555
C22 C2 1_555 1_555
C23 C8 1_555 1_555
H11 C23 1_555 1_555
C24 O9 1_555 1_555
C25 C5 1_555 1_555
C26 C17 1_555 1_555
H12 C26 1_555 1_555
C27 C19 1_555 1_555
H13 C27 1_555 1_555
C28 C30 1_555 1_555
C29 C1 1_555 1_555
C30 C23 1_555 1_555
O8 C28 1_555 1_555
C31 N1 1_555 1_555
H14 C31 1_555 1_555
C32 C25 1_555 1_555
C33 C15 1_555 1_555
C34 C17 1_555 1_555
H15 C34 1_555 1_555
C35 C30 1_555 1_555
H16 C35 1_555 1_555
C37 C12 1_555 1_555
C40 N2 1_555 1_555
H18 C40 1_555 1_555
C45 C16 1_555 1_555
H19 C45 1_555 1_555
C46 C37 1_555 1_555
C48 O13 1_555 1_555
O13 Zn8 1_555 1_555
C50 C15 1_555 1_555
O15 C46 1_555 1_555
O17 C2 1_555 1_555
O18 C48 1_555 1_555
N3 Zn1 1_555 1_555
O21 Zn4 1_555 1_555
N4 C27 1_555 1_555
O24 Zn3 1_555 1_555
O25 Zn3 1_555 1_555
O26 Zn1 1_555 1_555
Zn12 O17 1_555 1_555
O28 Zn1 1_555 1_555
O29 Zn2 1_555 1_555
O30 Zn2 1_555 1_555
O31 Zn1 1_555 1_555
O33 Zn4 1_555 1_555
O34 Zn3 1_555 1_555
O35 Zn1 1_555 1_555
O36 Zn4 1_555 1_555
C3 N3 1_555 1_555
C5 C14 1_555 1_555
C6 C31 1_555 1_555
C7 C22 1_555 1_555
C12 C22 1_555 1_555
C13 C21 1_555 1_555
C13 C37 1_555 1_555
C14 C21 1_555 1_555
C18 C29 1_555 1_555
C19 C33 1_555 1_555
C20 C33 1_555 1_555
C25 C40 1_555 1_555
C28 O24 1_555 1_555
C34 N4 1_555 1_555
C35 N3 1_555 1_555
C45 C50 1_555 1_555
C48 C50 1_555 1_555
O18 H26 1_555 1_555
O7 H28 1_555 1_555
O1 C43 1_555 1_555
C10 O10 1_555 1_555
C36 C43 1_555 1_555
C38 H17 1_555 1_555
C41 C10 1_555 1_555
C42 C51 1_555 1_555
C43 O19 1_555 1_555
C47 C36 1_555 1_555
H20 C47 1_555 1_555
C49 C39 1_555 1_555
H21 C49 1_555 1_555
C51 C52 1_555 1_555
C52 C41 1_555 1_555
H22 C52 1_555 1_555
C53 C36 1_555 1_555
H23 C53 1_555 1_555
C54 C39 1_555 1_555
H24 C54 1_555 1_555
C55 C38 1_555 1_555
O16 C42 1_555 1_555
O23 C42 1_555 1_555
Zn10 O1 1_555 1_555
Zn12 O23 1_555 1_555
C38 C44 1_555 1_555
C41 C49 1_555 1_555
C44 C47 1_555 1_555
C51 C54 1_555 1_555
C53 C55 1_555 1_555
O16 H25 1_555 1_555
O19 H27 1_555 1_555
O3 C11 1_555 1_555
O11 C11 1_555 1_555
Zn6 O3 1_555 1_555
O11 Zn6 1_555 1_555
O20 Zn10 1_555 1_555
O26 C11_2 1_555 1_555
O28 C11_2 1_555 1_555
O25 C43_2 1_555 1_555
C10_2 O27 1_555 1_555
C36_2 C43_2 1_555 1_555
C38_2 H17_2 1_555 1_555
C41_2 C10_2 1_555 1_555
C42_2 C51_2 1_555 1_555
C43_2 O19_2 1_555 1_555
C47_2 C36_2 1_555 1_555
H20_2 C47_2 1_555 1_555
C49_2 C39_2 1_555 1_555
H21_2 C49_2 1_555 1_555
C51_2 C52_2 1_555 1_555
C52_2 C41_2 1_555 1_555
H22_2 C52_2 1_555 1_555
C53_2 C36_2 1_555 1_555
H23_2 C53_2 1_555 1_555
C54_2 C39_2 1_555 1_555
H24_2 C54_2 1_555 1_555
C55_2 C38_2 1_555 1_555
O16_2 C42_2 1_555 1_555
O36 C42_2 1_555 1_555
C38_2 C44_2 1_555 1_555
C41_2 C49_2 1_555 1_555
C44_2 C47_2 1_555 1_555
C51_2 C54_2 1_555 1_555
C53_2 C55_2 1_555 1_555
O16_2 H25_2 1_555 1_555
O19_2 H27_2 1_555 1_555
Zn6 N2_2 1_555 1_555
Zn8 O2_2 1_555 1_555
O2_2 C32_2 1_555 1_555
Zn10 N4_2 1_555 1_555
Zn12 O4_2 1_555 1_555
O4_2 C24_2 1_555 1_555
N1_2 Zn8 1_555 1_555
N2_2 C4_2 1_555 1_555
C1_2 N1_2 1_555 1_555
H1_2 C1_2 1_555 1_555
C2_2 O7_2 1_555 1_555
C3_2 H2_2 1_555 1_555
O5_2 C9_2 1_555 1_555
C4_2 H3_2 1_555 1_555
C5_2 H4_2 1_555 1_555
C6_2 C9_2 1_555 1_555
C7_2 H5_2 1_555 1_555
C8_2 C3_2 1_555 1_555
C9_2 O21_2 1_555 1_555
O6_2 C32_2 1_555 1_555
C12_2 H6_2 1_555 1_555
C13_2 H7_2 1_555 1_555
C14_2 C4_2 1_555 1_555
C15_2 H8_2 1_555 1_555
C16_2 C20_2 1_555 1_555
C17_2 C24_2 1_555 1_555
C18_2 C6_2 1_555 1_555
H9_2 C18_2 1_555 1_555
C19_2 C26_2 1_555 1_555
C20_2 H10_2 1_555 1_555
C21_2 C7_2 1_555 1_555
C22_2 C2_2 1_555 1_555
C23_2 C8_2 1_555 1_555
H11_2 C23_2 1_555 1_555
C24_2 O9_2 1_555 1_555
C25_2 C5_2 1_555 1_555
C26_2 C17_2 1_555 1_555
H12_2 C26_2 1_555 1_555
C27_2 C19_2 1_555 1_555
H13_2 C27_2 1_555 1_555
C28_2 C30_2 1_555 1_555
C29_2 C1_2 1_555 1_555
C30_2 C23_2 1_555 1_555
O8_2 C28_2 1_555 1_555
C31_2 N1_2 1_555 1_555
H14_2 C31_2 1_555 1_555
C32_2 C25_2 1_555 1_555
C33_2 C15_2 1_555 1_555
C34_2 C17_2 1_555 1_555
H15_2 C34_2 1_555 1_555
C35_2 C30_2 1_555 1_555
H16_2 C35_2 1_555 1_555
C37_2 C12_2 1_555 1_555
C40_2 N2_2 1_555 1_555
H18_2 C40_2 1_555 1_555
C45_2 C16_2 1_555 1_555
H19_2 C45_2 1_555 1_555
C46_2 C37_2 1_555 1_555
C48_2 O30 1_555 1_555
C50_2 C15_2 1_555 1_555
O32 C46_2 1_555 1_555
O33 C2_2 1_555 1_555
O18_2 C48_2 1_555 1_555
N3_2 Zn6 1_555 1_555
O21_2 Zn12 1_555 1_555
N4_2 C27_2 1_555 1_555
O24_2 Zn10 1_555 1_555
C3_2 N3_2 1_555 1_555
C5_2 C14_2 1_555 1_555
C6_2 C31_2 1_555 1_555
C7_2 C22_2 1_555 1_555
C12_2 C22_2 1_555 1_555
C13_2 C21_2 1_555 1_555
C13_2 C37_2 1_555 1_555
C14_2 C21_2 1_555 1_555
C18_2 C29_2 1_555 1_555
C19_2 C33_2 1_555 1_555
C20_2 C33_2 1_555 1_555
C25_2 C40_2 1_555 1_555
C28_2 O24_2 1_555 1_555
C34_2 N4_2 1_555 1_555
C35_2 N3_2 1_555 1_555
C45_2 C50_2 1_555 1_555
C48_2 C50_2 1_555 1_555
O18_2 H26_2 1_555 1_555
O7_2 H28_2 1_555 1_555
O31 C56_2 1_555 1_555
O35 C56_2 1_555 1_555

#END
