
###############################################################################
#
# This file contains modified crystal structure data generated from the
# MOF subset of the Cambridge Structural Database (CSD) v543 
# hosted by the Cambridge Crystallographic Data Centre (CCDC).
#
# This work is licensed under the Creative Commons
# Attribution-NonCommercial-ShareAlike 4.0 International License.
# To view a copy of this license, visit
# http://creativecommons.org/licenses/by-nc-sa/4.0/
# or send a letter to
# Creative Commons, PO Box 1866, Mountain View, CA 94042, USA.
#
# CIF created using the CSD Python API on 29 September 2022
# The structure has been converted into the P1 space group
# The structure has a 3D framework
# The original CSD entry TAYRET is in the triclinic crystal system
# The framework has been calculated to contain at least 10.0% void space
# The void calculation uses a probe of radius 1.32A, grid spacing 0.4
#
###############################################################################

data_TAYRET
_chemical_formula_moiety         '(C128 H90 Co4 N8 O16)n'
_symmetry_cell_setting           triclinic
_symmetry_space_group_name_H-M   'P 1'
_symmetry_Int_Tables_number      1
_space_group_name_Hall           'P 1'
loop_
_symmetry_equiv_pos_site_id
_symmetry_equiv_pos_as_xyz
1 x,y,z
_cell_length_a                   12.2506(10)
_cell_length_b                   16.3861(14)
_cell_length_c                   20.1664(16)
_cell_angle_alpha                104.984(4)
_cell_angle_beta                 91.435(4)
_cell_angle_gamma                109.528(4)
_cell_volume                     3657.88
loop_
_atom_site_label
_atom_site_type_symbol
_atom_site_fract_x
_atom_site_fract_y
_atom_site_fract_z
Co4 Co 0.07984(2) 0.89058(2) 0.67492(2)
O1 O 0.12684(14) 0.03556(11) 0.69198(9)
O3 O 0.71634(13) 0.54353(11) 0.66373(9)
O4 O 0.85507(14) 0.48615(11) 0.65415(9)
C41 C 0.3194(2) 0.13274(17) 0.68874(14)
C42 C 0.2859(2) 0.20960(18) 0.70249(17)
H33 H 0.2092 0.2046 0.7130
C43 C 0.3638(2) 0.29120(19) 0.70071(17)
H34 H 0.3413 0.3428 0.7107
C44 C 0.4766(2) 0.29897(18) 0.68414(14)
C45 C 0.5581(2) 0.38276(18) 0.67988(14)
H35 H 0.5360 0.4345 0.6889
C46 C 0.6650(2) 0.38940(17) 0.66338(14)
C47 C 0.6992(2) 0.31180(18) 0.64918(15)
H36 H 0.7753 0.3166 0.6375
C48 C 0.6223(2) 0.23092(18) 0.65238(15)
H37 H 0.6449 0.1794 0.6426
C49 C 0.5102(2) 0.22333(17) 0.66999(14)
C50 C 0.4285(2) 0.13971(17) 0.67351(14)
H38 H 0.4508 0.0881 0.6651
C51 C 0.2316(2) 0.04269(17) 0.68884(13)
C52 C 0.7505(2) 0.47832(17) 0.65994(13)
Co7 Co 0.89938(2) 0.63096(2) 0.66985(2)
O2 O 0.26427(13) 0.97721(11) 0.68502(9)
O5 O 0.07183(12) 0.64736(10) 0.67412(8)
O6 O 0.12808(12) 0.78202(11) 0.65510(8)
O7 O 0.90767(12) 0.87495(11) 0.67166(8)
O8 O 0.85149(13) 0.73988(11) 0.68985(9)
N1 N 0.06525(17) 0.87387(13) 0.56568(11)
C3 C 0.0644(2) 0.87121(17) 0.42556(13)
C4 C 0.1467(3) 0.8536(2) 0.46064(15)
H3 H 0.2076 0.8401 0.4372
C5 C 0.1438(3) 0.8549(2) 0.52816(14)
H4 H 0.2027 0.8411 0.5496
C6 C 0.0647(2) 0.87511(19) 0.35435(14)
H5 H 0.0095 0.8972 0.3385
C7 C 0.1310(3) 0.8522(2) 0.31018(15)
H6 H 0.1854 0.8296 0.3262
C8 C 0.1334(3) 0.8564(2) 0.23875(15)
C9 C 0.0575(2) 0.8833(2) 0.20657(14)
H7 H 0.0000 0.9005 0.2314
C10 C 0.0626(3) 0.8858(2) 0.13976(15)
H8 H 0.0075 0.9040 0.1191
C11 C 0.1439(3) 0.8632(2) 0.10101(15)
C12 C 0.2207(4) 0.8359(3) 0.13276(18)
H9 H 0.2789 0.8199 0.1080
C13 C 0.2144(4) 0.8316(3) 0.19991(17)
H10 H 0.2673 0.8110 0.2201
C14 C 0.1526(3) 0.8665(2) 0.02910(15)
H11 H 0.2150 0.8525 0.0078
H12 H 0.0198 0.9001 0.0134
H19 H 0.0276 0.5824 0.4303
H20 H 0.0218 0.5814 0.5429
H22 H 0.0061 0.5775 0.3208
C32 C 0.0458(3) 0.5947(3) 0.13088(18)
H25 H 0.1048 0.5803 0.1060
C33 C 0.0413(3) 0.5900(3) 0.19741(17)
H26 H 0.0975 0.5726 0.2177
H27 H 0.0341 0.6103 0.0059
C53 C 0.27103(19) 0.71927(16) 0.66958(13)
C54 C 0.2962(2) 0.64120(19) 0.66734(18)
H39 H 0.2341 0.5862 0.6640
C55 C 0.4080(2) 0.64299(18) 0.66980(19)
H40 H 0.4224 0.5890 0.6677
C56 C 0.50259(19) 0.72291(16) 0.67536(14)
C57 C 0.61914(19) 0.72646(16) 0.67701(14)
H41 H 0.6356 0.6734 0.6758
C58 C 0.70913(19) 0.80467(16) 0.68027(13)
C59 C 0.6852(2) 0.88392(17) 0.68414(15)
H42 H 0.7472 0.9388 0.6872
C60 C 0.5737(2) 0.88203(17) 0.68352(16)
H43 H 0.5594 0.9365 0.6873
C61 C 0.47839(19) 0.80191(16) 0.67739(13)
C62 C 0.36169(19) 0.79824(16) 0.67416(12)
H44 H 0.3454 0.8513 0.6752
C63 C 0.14909(19) 0.71691(16) 0.66662(11)
C64 C 0.83081(19) 0.80586(17) 0.68033(12)
N5 N 0.09099(16) 0.89981(13) 0.78303(10)
C15 C 0.0824(3) 0.88694(19) 0.99183(14)
C16 C 0.0896(2) 0.89172(18) 0.92081(14)
C17 C 0.0059(2) 0.9122(2) 0.88802(14)
C18 C 0.0097(2) 0.91509(19) 0.82139(14)
C19 C 0.1729(2) 0.88085(19) 0.81428(14)
H15 H 0.2332 0.8699 0.7887
C20 C 0.1751(3) 0.8763(2) 0.88107(15)
H16 H 0.2358 0.8624 0.9004
H31 H 0.0525 0.6183 0.7880
H32 H 0.0568 0.6205 0.9015
N3 N 0.88883(16) 0.62070(13) 0.56199(10)
C1 C 0.9836(3) 0.8890(3) 0.53218(17)
H1 H 0.9228 0.9008 0.5568
C2 C 0.9808(3) 0.8887(3) 0.46459(17)
H2 H 0.9195 0.9010 0.4441
H7_2 H 1.0000 0.9005 0.2314
C21 C 0.8096(2) 0.6422(2) 0.53027(15)
H17 H 0.7505 0.6554 0.5557
C22 C 0.8087(3) 0.6462(3) 0.46390(15)
H18 H 0.7518 0.6643 0.4450
C23 C 0.8906(2) 0.62399(18) 0.42332(14)
C24 C 0.9699(2) 0.59920(17) 0.45519(13)
C25 C 0.9655(2) 0.59875(17) 0.52254(13)
C26 C 0.8908(2) 0.62917(19) 0.35195(14)
H21 H 0.8380 0.6541 0.3373
C27 C 0.9546(2) 0.60360(18) 0.30629(13)
C28 C 0.9567(2) 0.61008(18) 0.23627(14)
C29 C 0.8781(3) 0.6336(2) 0.20328(15)
H23 H 0.8176 0.6464 0.2276
C30 C 0.8824(3) 0.6396(2) 0.13679(16)
H24 H 0.8263 0.6576 0.1169
C31 C 0.9653(3) 0.6204(2) 0.09861(15)
C34 C 0.9732(3) 0.6259(2) 0.02790(16)
H28 H 0.8473 0.6678 0.0135
N6 N 0.91273(17) 0.64843(14) 0.77960(11)
H13 H 0.9452 0.9244 0.9124
H14 H 0.9501 0.9290 0.8009
C35 C 0.9063(3) 0.6497(2) 0.99126(15)
C36 C 0.9133(3) 0.6513(2) 0.91923(15)
C37 C 0.8305(3) 0.6707(2) 0.88500(17)
H29 H 0.7704 0.6850 0.9088
C38 C 0.8339(3) 0.6694(2) 0.81704(15)
H30 H 0.7764 0.6845 0.7955
C39 C 0.9929(3) 0.6319(2) 0.81280(15)
C40 C 0.9959(3) 0.6329(3) 0.88081(17)
N4 N 0.08727(17) 0.35157(14) 0.22040(11)
H13_2 H 0.0548 0.0756 0.0876
H14_2 H 0.0499 0.0710 0.1991
C35_2 C 0.0937(3) 0.3503(2) 0.00874(15)
C36_2 C 0.0867(3) 0.3487(2) 0.08077(15)
C37_2 C 0.1695(3) 0.3293(2) 0.11500(17)
H29_2 H 0.2296 0.3150 0.0912
C38_2 C 0.1661(3) 0.3306(2) 0.18296(15)
H30_2 H 0.2236 0.3155 0.2045
C39_2 C 0.0071(3) 0.3681(2) 0.18720(15)
C40_2 C 0.0041(3) 0.3671(3) 0.11919(17)
Co5 Co 0.10062(2) 0.36904(2) 0.33015(2)
N3_2 N 0.11117(16) 0.37930(13) 0.43801(10)
C1_2 C 0.0164(3) 0.1110(3) 0.46782(17)
H1_2 H 0.0772 0.0992 0.4432
C2_2 C 0.0192(3) 0.1113(3) 0.53541(17)
H2_2 H 0.0805 0.0990 0.5559
H7_3 H -0.0000 0.0995 0.7686
C21_2 C 0.1904(2) 0.3578(2) 0.46973(15)
H17_2 H 0.2495 0.3446 0.4443
C22_2 C 0.1913(3) 0.3538(3) 0.53610(15)
H18_2 H 0.2482 0.3357 0.5550
C23_2 C 0.1094(2) 0.37601(18) 0.57668(14)
C24_2 C 0.0301(2) 0.40080(17) 0.54481(13)
C25_2 C 0.0345(2) 0.40125(17) 0.47746(13)
C26_2 C 0.1092(2) 0.37083(19) 0.64805(14)
H21_2 H 0.1620 0.3459 0.6627
C27_2 C 0.0454(2) 0.39640(18) 0.69371(13)
C28_2 C 0.0433(2) 0.38992(18) 0.76373(14)
C29_2 C 0.1219(3) 0.3664(2) 0.79672(15)
H23_2 H 0.1824 0.3536 0.7724
C30_2 C 0.1176(3) 0.3604(2) 0.86321(16)
H24_2 H 0.1737 0.3424 0.8831
C31_2 C 0.0347(3) 0.3796(2) 0.90139(15)
C34_2 C 0.0268(3) 0.3741(2) 0.97210(16)
H28_2 H 0.1527 0.3322 0.9865
O9 O 0.28366(13) 0.45647(11) 0.33627(9)
O10 O 0.14493(14) 0.51385(11) 0.34585(9)
O11 O 0.09233(12) 0.12505(11) 0.32834(8)
O12 O 0.14851(13) 0.26012(11) 0.31015(9)
N2 N 0.90901(16) 0.10019(13) 0.21697(10)
C15_2 C 0.9176(3) 0.11306(19) 0.00817(14)
C16_2 C 0.9104(2) 0.10828(18) 0.07919(14)
C17_2 C 0.9941(2) 0.0878(2) 0.11198(14)
C18_2 C 0.9903(2) 0.08491(19) 0.17861(14)
C19_2 C 0.8271(2) 0.11915(19) 0.18572(14)
H15_2 H 0.7668 0.1301 0.2113
C20_2 C 0.8249(3) 0.1237(2) 0.11893(15)
H16_2 H 0.7642 0.1376 0.0996
H31_2 H 0.9475 0.3817 0.2120
H32_2 H 0.9432 0.3795 0.0985
Co3 Co 0.92016(2) 0.10942(2) 0.32508(2)
O2_2 O 0.73573(13) 0.02279(11) 0.31498(9)
O5_2 O 0.92817(12) 0.35264(10) 0.32588(8)
O6_2 O 0.87192(12) 0.21798(11) 0.34490(8)
N1_2 N 0.93475(17) 0.12613(13) 0.43432(11)
C3_2 C 0.9356(2) 0.12879(17) 0.57444(13)
C4_2 C 0.8533(3) 0.1464(2) 0.53936(15)
H3_2 H 0.7924 0.1599 0.5628
C5_2 C 0.8562(3) 0.1451(2) 0.47184(14)
H4_2 H 0.7973 0.1589 0.4504
C6_2 C 0.9353(2) 0.12489(19) 0.64565(14)
H5_2 H 0.9905 0.1028 0.6615
C7_2 C 0.8690(3) 0.1478(2) 0.68982(15)
H6_2 H 0.8146 0.1704 0.6738
C8_2 C 0.8666(3) 0.1436(2) 0.76125(15)
C9_2 C 0.9425(2) 0.1167(2) 0.79343(14)
H7_4 H 1.0000 0.0995 0.7686
C10_2 C 0.9374(3) 0.1142(2) 0.86024(15)
H8_2 H 0.9925 0.0960 0.8809
C11_2 C 0.8561(3) 0.1368(2) 0.89899(15)
C12_2 C 0.7793(4) 0.1641(3) 0.86724(18)
H9_2 H 0.7211 0.1801 0.8920
C13_2 C 0.7856(4) 0.1684(3) 0.80009(17)
H10_2 H 0.7327 0.1890 0.7799
C14_2 C 0.8474(3) 0.1335(2) 0.97090(15)
H11_2 H 0.7850 0.1475 0.9922
H12_2 H 0.9802 0.0999 0.9866
H19_2 H 0.9724 0.4176 0.5697
H20_2 H 0.9782 0.4186 0.4571
H22_2 H 0.9939 0.4225 0.6792
C32_2 C 0.9542(3) 0.4053(3) 0.86912(18)
H25_2 H 0.8952 0.4197 0.8940
C33_2 C 0.9587(3) 0.4100(3) 0.80259(17)
H26_2 H 0.9025 0.4274 0.7823
H27_2 H 0.9659 0.3897 0.9941
C53_2 C 0.72897(19) 0.28073(16) 0.33042(13)
C54_2 C 0.7038(2) 0.35880(19) 0.33266(18)
H39_2 H 0.7659 0.4138 0.3360
C55_2 C 0.5920(2) 0.35701(18) 0.33020(19)
H40_2 H 0.5776 0.4110 0.3323
C56_2 C 0.49741(19) 0.27709(16) 0.32464(14)
C57_2 C 0.38086(19) 0.27354(16) 0.32299(14)
H41_2 H 0.3644 0.3266 0.3242
C58_2 C 0.29087(19) 0.19533(16) 0.31973(13)
C59_2 C 0.3148(2) 0.11608(17) 0.31586(15)
H42_2 H 0.2528 0.0612 0.3128
C60_2 C 0.4263(2) 0.11797(17) 0.31648(16)
H43_2 H 0.4406 0.0635 0.3127
C61_2 C 0.52161(19) 0.19809(16) 0.32261(13)
C62_2 C 0.63831(19) 0.20176(16) 0.32584(12)
H44_2 H 0.6546 0.1487 0.3248
C63_2 C 0.85091(19) 0.28309(16) 0.33338(11)
C64_2 C 0.16919(19) 0.19414(17) 0.31967(12)
O1_2 O 0.87316(14) 0.96444(11) 0.30802(9)
C41_2 C 0.6806(2) 0.86726(17) 0.31126(14)
C42_2 C 0.7141(2) 0.79040(18) 0.29751(17)
H33_2 H 0.7908 0.7954 0.2870
C43_2 C 0.6362(2) 0.70880(19) 0.29929(17)
H34_2 H 0.6587 0.6572 0.2893
C44_2 C 0.5234(2) 0.70103(18) 0.31586(14)
C45_2 C 0.4419(2) 0.61724(18) 0.32012(14)
H35_2 H 0.4640 0.5655 0.3111
C46_2 C 0.3350(2) 0.61060(17) 0.33662(14)
C47_2 C 0.3008(2) 0.68820(18) 0.35082(15)
H36_2 H 0.2247 0.6834 0.3625
C48_2 C 0.3777(2) 0.76908(18) 0.34762(15)
H37_2 H 0.3551 0.8206 0.3574
C49_2 C 0.4898(2) 0.77667(17) 0.33001(14)
C50_2 C 0.5715(2) 0.86029(17) 0.32649(14)
H38_2 H 0.5492 0.9119 0.3349
C51_2 C 0.7684(2) 0.95731(17) 0.31116(13)
C52_2 C 0.2495(2) 0.52168(17) 0.34006(13)
loop_
_geom_bond_atom_site_label_1
_geom_bond_atom_site_label_2
_geom_bond_site_symmetry_1
_geom_bond_site_symmetry_2
O1 C51 1_555 1_555
O3 C52 1_555 1_555
O4 C52 1_555 1_555
C41 C42 1_555 1_555
C42 H33 1_555 1_555
C43 C42 1_555 1_555
H34 C43 1_555 1_555
C44 C43 1_555 1_555
C45 C44 1_555 1_555
H35 C45 1_555 1_555
C46 C45 1_555 1_555
C47 C46 1_555 1_555
H36 C47 1_555 1_555
C48 C47 1_555 1_555
H37 C48 1_555 1_555
C49 C44 1_555 1_555
C50 C41 1_555 1_555
H38 C50 1_555 1_555
C52 C46 1_555 1_555
Co7 O3 1_555 1_555
O4 Co7 1_555 1_555
C41 C51 1_555 1_555
C48 C49 1_555 1_555
C49 C50 1_555 1_555
O2 Co4 1_555 1_555
O5 C63 1_555 1_555
O6 Co4 1_555 1_555
O7 C64 1_555 1_555
O8 C64 1_555 1_555
N1 Co4 1_555 1_555
C4 C3 1_555 1_555
H3 C4 1_555 1_555
C5 N1 1_555 1_555
H4 C5 1_555 1_555
C6 C3 1_555 1_555
H5 C6 1_555 1_555
C7 C6 1_555 1_555
H6 C7 1_555 1_555
C8 C7 1_555 1_555
C9 C8 1_555 1_555
H7 C9 1_555 1_555
C10 C9 1_555 1_555
H8 C10 1_555 1_555
C11 C10 1_555 1_555
C12 C11 1_555 1_555
H9 C12 1_555 1_555
C13 C8 1_555 1_555
H10 C13 1_555 1_555
C14 C11 1_555 1_555
H11 C14 1_555 1_555
H25 C32 1_555 1_555
H26 C33 1_555 1_555
C53 C54 1_555 1_555
C54 H39 1_555 1_555
C55 C54 1_555 1_555
H40 C55 1_555 1_555
C56 C55 1_555 1_555
C57 C56 1_555 1_555
H41 C57 1_555 1_555
C58 C57 1_555 1_555
C59 C58 1_555 1_555
H42 C59 1_555 1_555
C60 C59 1_555 1_555
H43 C60 1_555 1_555
C61 C56 1_555 1_555
C62 C53 1_555 1_555
H44 C62 1_555 1_555
C63 O6 1_555 1_555
C64 C58 1_555 1_555
Co7 O8 1_555 1_555
N5 Co4 1_555 1_555
C4 C5 1_555 1_555
C12 C13 1_555 1_555
C32 C33 1_555 1_555
C53 C63 1_555 1_555
C60 C61 1_555 1_555
C61 C62 1_555 1_555
N5 C18 1_555 1_555
C16 C15 1_555 1_555
C17 C16 1_555 1_555
C18 C17 1_555 1_555
C19 N5 1_555 1_555
H15 C19 1_555 1_555
C20 C16 1_555 1_555
H16 C20 1_555 1_555
C19 C20 1_555 1_555
N3 Co7 1_555 1_555
H1 C1 1_555 1_555
C2 C1 1_555 1_555
H2 C2 1_555 1_555
C21 N3 1_555 1_555
H17 C21 1_555 1_555
C22 C21 1_555 1_555
H18 C22 1_555 1_555
C23 C22 1_555 1_555
C24 C23 1_555 1_555
C25 N3 1_555 1_555
C26 C23 1_555 1_555
H21 C26 1_555 1_555
C27 C26 1_555 1_555
C28 C27 1_555 1_555
C29 C28 1_555 1_555
H23 C29 1_555 1_555
C30 C29 1_555 1_555
H24 C30 1_555 1_555
C31 C30 1_555 1_555
C34 C31 1_555 1_555
N6 Co7 1_555 1_555
C24 C25 1_555 1_555
N6 C38 1_555 1_555
C36 C35 1_555 1_555
C37 C36 1_555 1_555
H29 C37 1_555 1_555
C38 C37 1_555 1_555
H30 C38 1_555 1_555
C39 N6 1_555 1_555
C40 C36 1_555 1_555
C39 C40 1_555 1_555
N4 C38_2 1_555 1_555
C36_2 C35_2 1_555 1_555
C37_2 C36_2 1_555 1_555
H29_2 C37_2 1_555 1_555
C38_2 C37_2 1_555 1_555
H30_2 C38_2 1_555 1_555
C39_2 N4 1_555 1_555
C40_2 C36_2 1_555 1_555
Co5 N4 1_555 1_555
C39_2 C40_2 1_555 1_555
N3_2 Co5 1_555 1_555
H1_2 C1_2 1_555 1_555
C2_2 C1_2 1_555 1_555
H2_2 C2_2 1_555 1_555
C21_2 N3_2 1_555 1_555
H17_2 C21_2 1_555 1_555
C22_2 C21_2 1_555 1_555
H18_2 C22_2 1_555 1_555
C23_2 C22_2 1_555 1_555
C24_2 C23_2 1_555 1_555
C25_2 N3_2 1_555 1_555
C26_2 C23_2 1_555 1_555
H21_2 C26_2 1_555 1_555
C27_2 C26_2 1_555 1_555
C28_2 C27_2 1_555 1_555
C29_2 C28_2 1_555 1_555
H23_2 C29_2 1_555 1_555
C30_2 C29_2 1_555 1_555
H24_2 C30_2 1_555 1_555
C31_2 C30_2 1_555 1_555
C34_2 C31_2 1_555 1_555
O9 Co5 1_555 1_555
O10 Co5 1_555 1_555
O12 Co5 1_555 1_555
C24_2 C25_2 1_555 1_555
N2 C18_2 1_555 1_555
C16_2 C15_2 1_555 1_555
C17_2 C16_2 1_555 1_555
C18_2 C17_2 1_555 1_555
C19_2 N2 1_555 1_555
H15_2 C19_2 1_555 1_555
C20_2 C16_2 1_555 1_555
H16_2 C20_2 1_555 1_555
Co3 N2 1_555 1_555
C19_2 C20_2 1_555 1_555
O2_2 Co3 1_555 1_555
O5_2 C63_2 1_555 1_555
O6_2 Co3 1_555 1_555
O11 C64_2 1_555 1_555
O12 C64_2 1_555 1_555
N1_2 Co3 1_555 1_555
C4_2 C3_2 1_555 1_555
H3_2 C4_2 1_555 1_555
C5_2 N1_2 1_555 1_555
H4_2 C5_2 1_555 1_555
C6_2 C3_2 1_555 1_555
H5_2 C6_2 1_555 1_555
C7_2 C6_2 1_555 1_555
H6_2 C7_2 1_555 1_555
C8_2 C7_2 1_555 1_555
C9_2 C8_2 1_555 1_555
H7_4 C9_2 1_555 1_555
C10_2 C9_2 1_555 1_555
H8_2 C10_2 1_555 1_555
C11_2 C10_2 1_555 1_555
C12_2 C11_2 1_555 1_555
H9_2 C12_2 1_555 1_555
C13_2 C8_2 1_555 1_555
H10_2 C13_2 1_555 1_555
C14_2 C11_2 1_555 1_555
H11_2 C14_2 1_555 1_555
H25_2 C32_2 1_555 1_555
H26_2 C33_2 1_555 1_555
C53_2 C54_2 1_555 1_555
C54_2 H39_2 1_555 1_555
C55_2 C54_2 1_555 1_555
H40_2 C55_2 1_555 1_555
C56_2 C55_2 1_555 1_555
C57_2 C56_2 1_555 1_555
H41_2 C57_2 1_555 1_555
C58_2 C57_2 1_555 1_555
C59_2 C58_2 1_555 1_555
H42_2 C59_2 1_555 1_555
C60_2 C59_2 1_555 1_555
H43_2 C60_2 1_555 1_555
C61_2 C56_2 1_555 1_555
C62_2 C53_2 1_555 1_555
H44_2 C62_2 1_555 1_555
C63_2 O6_2 1_555 1_555
C64_2 C58_2 1_555 1_555
C4_2 C5_2 1_555 1_555
C12_2 C13_2 1_555 1_555
C32_2 C33_2 1_555 1_555
C53_2 C63_2 1_555 1_555
C60_2 C61_2 1_555 1_555
C61_2 C62_2 1_555 1_555
O1_2 C51_2 1_555 1_555
O9 C52_2 1_555 1_555
O10 C52_2 1_555 1_555
C41_2 C42_2 1_555 1_555
C42_2 H33_2 1_555 1_555
C43_2 C42_2 1_555 1_555
H34_2 C43_2 1_555 1_555
C44_2 C43_2 1_555 1_555
C45_2 C44_2 1_555 1_555
H35_2 C45_2 1_555 1_555
C46_2 C45_2 1_555 1_555
C47_2 C46_2 1_555 1_555
H36_2 C47_2 1_555 1_555
C48_2 C47_2 1_555 1_555
H37_2 C48_2 1_555 1_555
C49_2 C44_2 1_555 1_555
C50_2 C41_2 1_555 1_555
H38_2 C50_2 1_555 1_555
C52_2 C46_2 1_555 1_555
C41_2 C51_2 1_555 1_555
C48_2 C49_2 1_555 1_555
C49_2 C50_2 1_555 1_555

#END
