
###############################################################################
#
# This file contains modified crystal structure data generated from the
# MOF subset of the Cambridge Structural Database (CSD) v543 
# hosted by the Cambridge Crystallographic Data Centre (CCDC).
#
# This work is licensed under the Creative Commons
# Attribution-NonCommercial-ShareAlike 4.0 International License.
# To view a copy of this license, visit
# http://creativecommons.org/licenses/by-nc-sa/4.0/
# or send a letter to
# Creative Commons, PO Box 1866, Mountain View, CA 94042, USA.
#
# CIF created using the CSD Python API on 29 September 2022
# The structure has been converted into the P1 space group
# The structure has a 3D framework
# The original CSD entry TAZBOP is in the orthorhombic crystal system
# The original CSD entry TAZBOP is in a Sohncke space group
# The framework has been calculated to contain at least 10.0% void space
# The void calculation uses a probe of radius 1.32A, grid spacing 0.4
# The framework is charged, counterions have been retained in the structure
# H atom positions have been added when not included in the experimental data
#
###############################################################################

data_TAZBOP
_chemical_formula_moiety         '(C122 H90 B18 Fe13 N34 8+)n'
_symmetry_cell_setting           triclinic
_symmetry_space_group_name_H-M   'P 1'
_symmetry_Int_Tables_number      1
_space_group_name_Hall           'P 1'
loop_
_symmetry_equiv_pos_site_id
_symmetry_equiv_pos_as_xyz
1 x,y,z
_cell_length_a                   10.7010(7)
_cell_length_b                   15.5677(9)
_cell_length_c                   18.8482(9)
_cell_angle_alpha                90
_cell_angle_beta                 90
_cell_angle_gamma                90
_cell_volume                     3139.92
loop_
_atom_site_label
_atom_site_type_symbol
_atom_site_fract_x
_atom_site_fract_y
_atom_site_fract_z
Fe1 Fe 0.000000 0.500000 0.000000
N1 N 0.000000 0.6309(2) 0.000000
N2 N 0.1416(3) 0.4925(3) 0.07920(13)
C1 C 0.000000 0.7050(3) 0.000000
C2 C 0.2357(5) 0.5487(3) 0.0816(2)
H1 H 0.233510 0.597321 0.051206
C3 C 0.3355(6) 0.5386(4) 0.1265(4)
H2 H 0.402637 0.578494 0.125304
C4 C 0.3386(5) 0.4699(3) 0.1737(3)
H3 H 0.403978 0.465051 0.207559
C5 C 0.2456(3) 0.4094(2) 0.17059(18)
C6 C 0.1482(4) 0.4243(2) 0.12354(17)
H4 H 0.081670 0.383904 0.122416
C7 C 0.2486(3) 0.3286(2) 0.21309(18)
C8 C 0.250000 0.250000 0.1766(3)
H5 H 0.250002 0.249999 0.126228
B1 B 0.000000 0.8055(5) 0.000000
N3 N 0.3584(3) 0.4925(3) 0.42080(13)
C9 C 0.2643(5) 0.5487(3) 0.4184(2)
H6 H 0.266490 0.597321 0.448794
C10 C 0.1645(6) 0.5386(4) 0.3735(4)
H7 H 0.097363 0.578494 0.374696
C11 C 0.1614(5) 0.4699(3) 0.3263(3)
H8 H 0.096022 0.465051 0.292441
C12 C 0.2544(3) 0.4094(2) 0.32941(18)
C13 C 0.3518(4) 0.4243(2) 0.37646(17)
H9 H 0.418330 0.383904 0.377584
C14 C 0.2514(3) 0.3286(2) 0.28691(18)
C15 C 0.250000 0.250000 0.3234(3)
H10 H 0.250002 0.250001 0.373772
N4 N 0.3584(3) 0.0075(3) 0.07920(13)
C18 C 0.1614(5) 0.0301(3) 0.1737(3)
H13 H 0.096022 0.034949 0.207559
C19 C 0.2544(3) 0.0906(2) 0.17059(18)
C20 C 0.3518(4) 0.0757(2) 0.12354(17)
H14 H 0.418330 0.116096 0.122416
C21 C 0.2514(3) 0.1714(2) 0.21309(18)
N5 N 0.1416(3) 0.0075(3) 0.42080(13)
C24 C 0.3386(5) 0.0301(3) 0.3263(3)
H17 H 0.403978 0.034949 0.292441
C25 C 0.2456(3) 0.0906(2) 0.32941(18)
C26 C 0.1482(4) 0.0757(2) 0.37646(17)
H18 H 0.081670 0.116096 0.377584
C27 C 0.2486(3) 0.1714(2) 0.28691(18)
N6 N 0.000000 0.3691(2) 0.000000
C28 C -0.000000 0.2950(3) 0.000000
B2 B 0.000000 0.1945(5) 0.000000
Fe2 Fe 0.000000 0.000000 0.500000
Fe3 Fe 0.500000 0.500000 0.500000
Fe4 Fe 0.500000 0.000000 0.000000
H19 H -2.49578e-15 0.830873 -8.18088e-16
H20 H -5.96449e-15 0.169127 1.95509e-15
Fe1_2 Fe 0.000000 0.500000 1.000000
N1_2 N -0.000000 0.6309(2) 1.000000
C1_2 C -0.000000 0.7050(3) 1.000000
B1_2 B 0.000000 0.8055(5) 1.000000
N6_2 N 0.000000 0.3691(2) 1.000000
C28_2 C -0.000000 0.2950(3) 1.000000
B2_2 B 0.000000 0.1945(5) 1.000000
Fe4_2 Fe 0.500000 0.000000 1.000000
N9 N 0.1416(3) 0.5075(3) 0.92080(13)
H19_2 H -2.49578e-15 0.830873 1
H20_2 H -5.96449e-15 0.169127 1
C16 C 0.2643(5) 0.9513(3) 0.0816(2)
H11 H 0.266490 0.902679 0.051206
C17 C 0.1645(6) 0.9614(4) 0.1265(4)
H12 H 0.097363 0.921506 0.125304
C22 C 0.2357(5) 0.9513(3) 0.4184(2)
H15 H 0.233510 0.902679 0.448794
C23 C 0.3355(6) 0.9614(4) 0.3735(4)
H16 H 0.402637 0.921506 0.374696
Fe2_2 Fe 0.000000 1.000000 0.500000
Fe4_3 Fe 0.500000 1.000000 0.000000
Fe4_4 Fe 0.500000 1.000000 1.000000
Fe1_3 Fe 1.000000 0.500000 0.000000
N1_3 N 1.000000 0.6309(2) 0.000000
C1_3 C 1.000000 0.7050(3) 0.000000
B1_3 B 1.000000 0.8055(5) 0.000000
N6_3 N 1.000000 0.3691(2) 0.000000
C28_3 C 1.000000 0.2950(3) 0.000000
B2_3 B 1.000000 0.1945(5) 0.000000
Fe2_3 Fe 1.000000 0.000000 0.500000
N7 N 0.8584(3) 0.5075(3) 0.07920(13)
H19_3 H 1 0.830873 -8.18088e-16
H20_3 H 1 0.169127 1.95509e-15
Fe1_4 Fe 1.000000 0.500000 1.000000
N1_4 N 1.000000 0.6309(2) 1.000000
C1_4 C 1.000000 0.7050(3) 1.000000
B1_4 B 1.000000 0.8055(5) 1.000000
N6_4 N 1.000000 0.3691(2) 1.000000
C28_4 C 1.000000 0.2950(3) 1.000000
B2_4 B 1.000000 0.1945(5) 1.000000
N8 N 0.8584(3) 0.4925(3) 0.92080(13)
H19_4 H 1 0.830873 1
H20_4 H 1 0.169127 1
Fe2_4 Fe 1.000000 1.000000 0.500000
C16_2 C 0.7357(5) 0.0487(3) 0.0816(2)
H11_2 H 0.733510 0.097321 0.051206
C17_2 C 0.8355(6) 0.0386(4) 0.1265(4)
H12_2 H 0.902637 0.078494 0.125304
C22_2 C 0.7643(5) 0.0487(3) 0.4184(2)
H15_2 H 0.766490 0.097321 0.448794
C23_2 C 0.6645(6) 0.0386(4) 0.3735(4)
H16_2 H 0.597363 0.078494 0.374696
C2_2 C 0.7643(5) 0.4513(3) 0.0816(2)
H1_2 H 0.766490 0.402679 0.051206
C3_2 C 0.6645(6) 0.4614(4) 0.1265(4)
H2_2 H 0.597363 0.421506 0.125304
C4_2 C 0.6614(5) 0.5301(3) 0.1737(3)
H3_2 H 0.596022 0.534949 0.207559
C5_2 C 0.7544(3) 0.5906(2) 0.17059(18)
C6_2 C 0.8518(4) 0.5757(2) 0.12354(17)
H4_2 H 0.918330 0.616096 0.122416
C7_2 C 0.7514(3) 0.6714(2) 0.21309(18)
C8_2 C 0.750000 0.750000 0.1766(3)
H5_2 H 0.749998 0.750001 0.126228
N3_2 N 0.6416(3) 0.5075(3) 0.42080(13)
C9_2 C 0.7357(5) 0.4513(3) 0.4184(2)
H6_2 H 0.733510 0.402679 0.448794
C10_2 C 0.8355(6) 0.4614(4) 0.3735(4)
H7_2 H 0.902637 0.421506 0.374696
C11_2 C 0.8386(5) 0.5301(3) 0.3263(3)
H8_2 H 0.903978 0.534949 0.292441
C12_2 C 0.7456(3) 0.5906(2) 0.32941(18)
C13_2 C 0.6482(4) 0.5757(2) 0.37646(17)
H9_2 H 0.581670 0.616096 0.377584
C14_2 C 0.7486(3) 0.6714(2) 0.28691(18)
C15_2 C 0.750000 0.750000 0.3234(3)
H10_2 H 0.749998 0.749999 0.373772
N4_2 N 0.6416(3) 0.9925(3) 0.07920(13)
C18_2 C 0.8386(5) 0.9699(3) 0.1737(3)
H13_2 H 0.903978 0.965051 0.207559
C19_2 C 0.7456(3) 0.9094(2) 0.17059(18)
C20_2 C 0.6482(4) 0.9243(2) 0.12354(17)
H14_2 H 0.581670 0.883904 0.122416
C21_2 C 0.7486(3) 0.8286(2) 0.21309(18)
N5_2 N 0.8584(3) 0.9925(3) 0.42080(13)
C24_2 C 0.6614(5) 0.9699(3) 0.3263(3)
H17_2 H 0.596022 0.965051 0.292441
C25_2 C 0.7544(3) 0.9094(2) 0.32941(18)
C26_2 C 0.8518(4) 0.9243(2) 0.37646(17)
H18_2 H 0.918330 0.883904 0.377584
C27_2 C 0.7514(3) 0.8286(2) 0.28691(18)
C2_3 C 0.7643(5) 0.5487(3) 0.9184(2)
H1_3 H 0.766490 0.597321 0.948794
C3_3 C 0.6645(6) 0.5386(4) 0.8735(4)
H2_3 H 0.597363 0.578494 0.874696
C4_3 C 0.6614(5) 0.4699(3) 0.8263(3)
H3_3 H 0.596022 0.465051 0.792441
C5_3 C 0.7544(3) 0.4094(2) 0.82941(18)
C6_3 C 0.8518(4) 0.4243(2) 0.87646(17)
H4_3 H 0.918330 0.383904 0.877584
C7_3 C 0.7514(3) 0.3286(2) 0.78691(18)
C8_3 C 0.750000 0.250000 0.8234(3)
H5_3 H 0.749998 0.249999 0.873772
N3_3 N 0.6416(3) 0.4925(3) 0.57920(13)
C9_3 C 0.7357(5) 0.5487(3) 0.5816(2)
H6_3 H 0.733510 0.597321 0.551206
C10_3 C 0.8355(6) 0.5386(4) 0.6265(4)
H7_3 H 0.902637 0.578494 0.625304
C11_3 C 0.8386(5) 0.4699(3) 0.6737(3)
H8_3 H 0.903978 0.465051 0.707559
C12_3 C 0.7456(3) 0.4094(2) 0.67059(18)
C13_3 C 0.6482(4) 0.4243(2) 0.62354(17)
H9_3 H 0.581670 0.383904 0.622416
C14_3 C 0.7486(3) 0.3286(2) 0.71309(18)
C15_3 C 0.750000 0.250000 0.6766(3)
H10_3 H 0.749998 0.250001 0.626228
N4_3 N 0.6416(3) 0.0075(3) 0.92080(13)
C18_3 C 0.8386(5) 0.0301(3) 0.8263(3)
H13_3 H 0.903978 0.034949 0.792441
C19_3 C 0.7456(3) 0.0906(2) 0.82941(18)
C20_3 C 0.6482(4) 0.0757(2) 0.87646(17)
H14_3 H 0.581670 0.116096 0.877584
C21_3 C 0.7486(3) 0.1714(2) 0.78691(18)
N5_3 N 0.8584(3) 0.0075(3) 0.57920(13)
C24_3 C 0.6614(5) 0.0301(3) 0.6737(3)
H17_3 H 0.596022 0.034949 0.707559
C25_3 C 0.7544(3) 0.0906(2) 0.67059(18)
C26_3 C 0.8518(4) 0.0757(2) 0.62354(17)
H18_3 H 0.918330 0.116096 0.622416
C27_3 C 0.7514(3) 0.1714(2) 0.71309(18)
C16_3 C 0.7357(5) 0.9513(3) 0.9184(2)
H11_3 H 0.733510 0.902679 0.948794
C17_3 C 0.8355(6) 0.9614(4) 0.8735(4)
H12_3 H 0.902637 0.921506 0.874696
C22_3 C 0.7643(5) 0.9513(3) 0.5816(2)
H15_3 H 0.766490 0.902679 0.551206
C23_3 C 0.6645(6) 0.9614(4) 0.6265(4)
H16_3 H 0.597363 0.921506 0.625304
C16_4 C 0.2643(5) 0.0487(3) 0.9184(2)
H11_4 H 0.266490 0.097321 0.948794
C17_4 C 0.1645(6) 0.0386(4) 0.8735(4)
H12_4 H 0.097363 0.078494 0.874696
C22_4 C 0.2357(5) 0.0487(3) 0.5816(2)
H15_4 H 0.233510 0.097321 0.551206
C23_4 C 0.3355(6) 0.0386(4) 0.6265(4)
H16_4 H 0.402637 0.078494 0.625304
C2_4 C 0.2357(5) 0.4513(3) 0.9184(2)
H1_4 H 0.233510 0.402679 0.948794
C3_4 C 0.3355(6) 0.4614(4) 0.8735(4)
H2_4 H 0.402637 0.421506 0.874696
C4_4 C 0.3386(5) 0.5301(3) 0.8263(3)
H3_4 H 0.403978 0.534949 0.792441
C5_4 C 0.2456(3) 0.5906(2) 0.82941(18)
C6_4 C 0.1482(4) 0.5757(2) 0.87646(17)
H4_4 H 0.081670 0.616096 0.877584
C7_4 C 0.2486(3) 0.6714(2) 0.78691(18)
C8_4 C 0.250000 0.750000 0.8234(3)
H5_4 H 0.250002 0.750001 0.873772
N3_4 N 0.3584(3) 0.5075(3) 0.57920(13)
C9_4 C 0.2643(5) 0.4513(3) 0.5816(2)
H6_4 H 0.266490 0.402679 0.551206
C10_4 C 0.1645(6) 0.4614(4) 0.6265(4)
H7_4 H 0.097363 0.421506 0.625304
C11_4 C 0.1614(5) 0.5301(3) 0.6737(3)
H8_4 H 0.096022 0.534949 0.707559
C12_4 C 0.2544(3) 0.5906(2) 0.67059(18)
C13_4 C 0.3518(4) 0.5757(2) 0.62354(17)
H9_4 H 0.418330 0.616096 0.622416
C14_4 C 0.2514(3) 0.6714(2) 0.71309(18)
C15_4 C 0.250000 0.750000 0.6766(3)
H10_4 H 0.250002 0.749999 0.626228
N4_4 N 0.3584(3) 0.9925(3) 0.92080(13)
C18_4 C 0.1614(5) 0.9699(3) 0.8263(3)
H13_4 H 0.096022 0.965051 0.792441
C19_4 C 0.2544(3) 0.9094(2) 0.82941(18)
C20_4 C 0.3518(4) 0.9243(2) 0.87646(17)
H14_4 H 0.418330 0.883904 0.877584
C21_4 C 0.2514(3) 0.8286(2) 0.78691(18)
N5_4 N 0.1416(3) 0.9925(3) 0.57920(13)
C24_4 C 0.3386(5) 0.9699(3) 0.6737(3)
H17_4 H 0.403978 0.965051 0.707559
C25_4 C 0.2456(3) 0.9094(2) 0.67059(18)
C26_4 C 0.1482(4) 0.9243(2) 0.62354(17)
H18_4 H 0.081670 0.883904 0.622416
C27_4 C 0.2486(3) 0.8286(2) 0.71309(18)
N1_5 N 0.000000 0.1309(2) 0.500000
C1_5 C 0.000000 0.2050(3) 0.500000
B1_5 B 0.000000 0.3055(5) 0.500000
H19_5 H -2.49578e-15 0.330873 0.5
N6_5 N 0.000000 0.8691(2) 0.500000
C28_5 C -0.000000 0.7950(3) 0.500000
B2_5 B 0.000000 0.6945(5) 0.500000
H20_5 H -5.96449e-15 0.669127 0.5
N1_6 N 1.000000 0.1309(2) 0.500000
C1_6 C 1.000000 0.2050(3) 0.500000
B1_6 B 1.000000 0.3055(5) 0.500000
H19_6 H 1 0.330873 0.5
N6_6 N 1.000000 0.8691(2) 0.500000
C28_6 C 1.000000 0.7950(3) 0.500000
B2_6 B 1.000000 0.6945(5) 0.500000
H20_6 H 1 0.669127 0.5
N1_7 N 0.500000 0.6309(2) 0.500000
C1_7 C 0.500000 0.7050(3) 0.500000
B1_7 B 0.500000 0.8055(5) 0.500000
N6_7 N 0.500000 0.3691(2) 0.500000
C28_7 C 0.500000 0.2950(3) 0.500000
B2_7 B 0.500000 0.1945(5) 0.500000
H19_7 H 0.5 0.830873 0.5
H20_7 H 0.5 0.169127 0.5
N1_8 N 0.500000 0.1309(2) 0.000000
C1_8 C 0.500000 0.2050(3) 0.000000
B1_8 B 0.500000 0.3055(5) 0.000000
H19_8 H 0.5 0.330873 -8.18088e-16
N1_9 N 0.500000 0.1309(2) 1.000000
C1_9 C 0.500000 0.2050(3) 1.000000
B1_9 B 0.500000 0.3055(5) 1.000000
H19_9 H 0.5 0.330873 1
N6_8 N 0.500000 0.8691(2) 0.000000
C28_8 C 0.500000 0.7950(3) 0.000000
B2_8 B 0.500000 0.6945(5) 0.000000
H20_8 H 0.5 0.669127 1.95509e-15
N6_9 N 0.500000 0.8691(2) 1.000000
C28_9 C 0.500000 0.7950(3) 1.000000
B2_9 B 0.500000 0.6945(5) 1.000000
H20_9 H 0.5 0.669127 1
loop_
_geom_bond_atom_site_label_1
_geom_bond_atom_site_label_2
_geom_bond_site_symmetry_1
_geom_bond_site_symmetry_2
Fe1 N1 1_555 1_555
N1 C1 1_555 1_555
N2 Fe1 1_555 1_555
C1 B1 1_555 1_555
C2 N2 1_555 1_555
H1 C2 1_555 1_555
C3 C2 1_555 1_555
H2 C3 1_555 1_555
C4 C3 1_555 1_555
H3 C4 1_555 1_555
C5 C4 1_555 1_555
C6 N2 1_555 1_555
H4 C6 1_555 1_555
C7 C5 1_555 1_555
C8 C7 1_555 1_555
H5 C8 1_555 1_555
N3 C9 1_555 1_555
C9 H6 1_555 1_555
C10 C9 1_555 1_555
H7 C10 1_555 1_555
C11 C10 1_555 1_555
H8 C11 1_555 1_555
C12 C11 1_555 1_555
C13 N3 1_555 1_555
H9 C13 1_555 1_555
C14 C7 1_555 1_555
C15 C14 1_555 1_555
H10 C15 1_555 1_555
H13 C18 1_555 1_555
C19 C18 1_555 1_555
C20 N4 1_555 1_555
H14 C20 1_555 1_555
C21 C8 1_555 1_555
H17 C24 1_555 1_555
C25 C24 1_555 1_555
C26 N5 1_555 1_555
H18 C26 1_555 1_555
C27 C15 1_555 1_555
N6 Fe1 1_555 1_555
C28 N6 1_555 1_555
B2 C28 1_555 1_555
Fe2 N5 1_555 1_555
Fe3 N3 1_555 1_555
Fe4 N4 1_555 1_555
C5 C6 1_555 1_555
C12 C13 1_555 1_555
C12 C14 1_555 1_555
C19 C20 1_555 1_555
C19 C21 1_555 1_555
C21 C27 1_555 1_555
C25 C26 1_555 1_555
C25 C27 1_555 1_555
B1 H19 1_555 1_555
B2 H20 1_555 1_555
Fe1_2 N1_2 1_555 1_555
N1_2 C1_2 1_555 1_555
C1_2 B1_2 1_555 1_555
N6_2 Fe1_2 1_555 1_555
C28_2 N6_2 1_555 1_555
B2_2 C28_2 1_555 1_555
N9 Fe1_2 1_555 1_555
B1_2 H19_2 1_555 1_555
B2_2 H20_2 1_555 1_555
C16 H11 1_555 1_555
C17 C16 1_555 1_555
H12 C17 1_555 1_555
C22 H15 1_555 1_555
C23 C22 1_555 1_555
H16 C23 1_555 1_555
Fe1_3 N1_3 1_555 1_555
N1_3 C1_3 1_555 1_555
C1_3 B1_3 1_555 1_555
N6_3 Fe1_3 1_555 1_555
C28_3 N6_3 1_555 1_555
B2_3 C28_3 1_555 1_555
N7 Fe1_3 1_555 1_555
B1_3 H19_3 1_555 1_555
B2_3 H20_3 1_555 1_555
Fe1_4 N1_4 1_555 1_555
N1_4 C1_4 1_555 1_555
C1_4 B1_4 1_555 1_555
N6_4 Fe1_4 1_555 1_555
C28_4 N6_4 1_555 1_555
B2_4 C28_4 1_555 1_555
N8 Fe1_4 1_555 1_555
B1_4 H19_4 1_555 1_555
B2_4 H20_4 1_555 1_555
C16_2 H11_2 1_555 1_555
C17_2 C16_2 1_555 1_555
H12_2 C17_2 1_555 1_555
C22_2 H15_2 1_555 1_555
C23_2 C22_2 1_555 1_555
H16_2 C23_2 1_555 1_555
C2_2 N7 1_555 1_555
H1_2 C2_2 1_555 1_555
C3_2 C2_2 1_555 1_555
H2_2 C3_2 1_555 1_555
C4_2 C3_2 1_555 1_555
H3_2 C4_2 1_555 1_555
C5_2 C4_2 1_555 1_555
C6_2 N7 1_555 1_555
H4_2 C6_2 1_555 1_555
C7_2 C5_2 1_555 1_555
C8_2 C7_2 1_555 1_555
H5_2 C8_2 1_555 1_555
N3_2 C9_2 1_555 1_555
C9_2 H6_2 1_555 1_555
C10_2 C9_2 1_555 1_555
H7_2 C10_2 1_555 1_555
C11_2 C10_2 1_555 1_555
H8_2 C11_2 1_555 1_555
C12_2 C11_2 1_555 1_555
C13_2 N3_2 1_555 1_555
H9_2 C13_2 1_555 1_555
C14_2 C7_2 1_555 1_555
C15_2 C14_2 1_555 1_555
H10_2 C15_2 1_555 1_555
H13_2 C18_2 1_555 1_555
C19_2 C18_2 1_555 1_555
C20_2 N4_2 1_555 1_555
H14_2 C20_2 1_555 1_555
C21_2 C8_2 1_555 1_555
H17_2 C24_2 1_555 1_555
C25_2 C24_2 1_555 1_555
C26_2 N5_2 1_555 1_555
H18_2 C26_2 1_555 1_555
C27_2 C15_2 1_555 1_555
Fe2_4 N5_2 1_555 1_555
Fe3 N3_2 1_555 1_555
Fe4_3 N4_2 1_555 1_555
C5_2 C6_2 1_555 1_555
C12_2 C13_2 1_555 1_555
C12_2 C14_2 1_555 1_555
C19_2 C20_2 1_555 1_555
C19_2 C21_2 1_555 1_555
C21_2 C27_2 1_555 1_555
C25_2 C26_2 1_555 1_555
C25_2 C27_2 1_555 1_555
C2_3 N8 1_555 1_555
H1_3 C2_3 1_555 1_555
C3_3 C2_3 1_555 1_555
H2_3 C3_3 1_555 1_555
C4_3 C3_3 1_555 1_555
H3_3 C4_3 1_555 1_555
C5_3 C4_3 1_555 1_555
C6_3 N8 1_555 1_555
H4_3 C6_3 1_555 1_555
C7_3 C5_3 1_555 1_555
C8_3 C7_3 1_555 1_555
H5_3 C8_3 1_555 1_555
N3_3 C9_3 1_555 1_555
C9_3 H6_3 1_555 1_555
C10_3 C9_3 1_555 1_555
H7_3 C10_3 1_555 1_555
C11_3 C10_3 1_555 1_555
H8_3 C11_3 1_555 1_555
C12_3 C11_3 1_555 1_555
C13_3 N3_3 1_555 1_555
H9_3 C13_3 1_555 1_555
C14_3 C7_3 1_555 1_555
C15_3 C14_3 1_555 1_555
H10_3 C15_3 1_555 1_555
H13_3 C18_3 1_555 1_555
C19_3 C18_3 1_555 1_555
C20_3 N4_3 1_555 1_555
H14_3 C20_3 1_555 1_555
C21_3 C8_3 1_555 1_555
H17_3 C24_3 1_555 1_555
C25_3 C24_3 1_555 1_555
C26_3 N5_3 1_555 1_555
H18_3 C26_3 1_555 1_555
C27_3 C15_3 1_555 1_555
Fe2_3 N5_3 1_555 1_555
Fe3 N3_3 1_555 1_555
Fe4_2 N4_3 1_555 1_555
C5_3 C6_3 1_555 1_555
C12_3 C13_3 1_555 1_555
C12_3 C14_3 1_555 1_555
C19_3 C20_3 1_555 1_555
C19_3 C21_3 1_555 1_555
C21_3 C27_3 1_555 1_555
C25_3 C26_3 1_555 1_555
C25_3 C27_3 1_555 1_555
C16_3 H11_3 1_555 1_555
C17_3 C16_3 1_555 1_555
H12_3 C17_3 1_555 1_555
C22_3 H15_3 1_555 1_555
C23_3 C22_3 1_555 1_555
H16_3 C23_3 1_555 1_555
C16_4 H11_4 1_555 1_555
C17_4 C16_4 1_555 1_555
H12_4 C17_4 1_555 1_555
C22_4 H15_4 1_555 1_555
C23_4 C22_4 1_555 1_555
H16_4 C23_4 1_555 1_555
C2_4 N9 1_555 1_555
H1_4 C2_4 1_555 1_555
C3_4 C2_4 1_555 1_555
H2_4 C3_4 1_555 1_555
C4_4 C3_4 1_555 1_555
H3_4 C4_4 1_555 1_555
C5_4 C4_4 1_555 1_555
C6_4 N9 1_555 1_555
H4_4 C6_4 1_555 1_555
C7_4 C5_4 1_555 1_555
C8_4 C7_4 1_555 1_555
H5_4 C8_4 1_555 1_555
N3_4 C9_4 1_555 1_555
C9_4 H6_4 1_555 1_555
C10_4 C9_4 1_555 1_555
H7_4 C10_4 1_555 1_555
C11_4 C10_4 1_555 1_555
H8_4 C11_4 1_555 1_555
C12_4 C11_4 1_555 1_555
C13_4 N3_4 1_555 1_555
H9_4 C13_4 1_555 1_555
C14_4 C7_4 1_555 1_555
C15_4 C14_4 1_555 1_555
H10_4 C15_4 1_555 1_555
H13_4 C18_4 1_555 1_555
C19_4 C18_4 1_555 1_555
C20_4 N4_4 1_555 1_555
H14_4 C20_4 1_555 1_555
C21_4 C8_4 1_555 1_555
H17_4 C24_4 1_555 1_555
C25_4 C24_4 1_555 1_555
C26_4 N5_4 1_555 1_555
H18_4 C26_4 1_555 1_555
C27_4 C15_4 1_555 1_555
Fe2_2 N5_4 1_555 1_555
Fe3 N3_4 1_555 1_555
Fe4_4 N4_4 1_555 1_555
C5_4 C6_4 1_555 1_555
C12_4 C13_4 1_555 1_555
C12_4 C14_4 1_555 1_555
C19_4 C20_4 1_555 1_555
C19_4 C21_4 1_555 1_555
C21_4 C27_4 1_555 1_555
C25_4 C26_4 1_555 1_555
C25_4 C27_4 1_555 1_555
Fe2 N1_5 1_555 1_555
N1_5 C1_5 1_555 1_555
C1_5 B1_5 1_555 1_555
B1_5 H19_5 1_555 1_555
N6_5 Fe2_2 1_555 1_555
C28_5 N6_5 1_555 1_555
B2_5 C28_5 1_555 1_555
B2_5 H20_5 1_555 1_555
Fe2_3 N1_6 1_555 1_555
N1_6 C1_6 1_555 1_555
C1_6 B1_6 1_555 1_555
B1_6 H19_6 1_555 1_555
N6_6 Fe2_4 1_555 1_555
C28_6 N6_6 1_555 1_555
B2_6 C28_6 1_555 1_555
B2_6 H20_6 1_555 1_555
Fe3 N1_7 1_555 1_555
N1_7 C1_7 1_555 1_555
C1_7 B1_7 1_555 1_555
N6_7 Fe3 1_555 1_555
C28_7 N6_7 1_555 1_555
B2_7 C28_7 1_555 1_555
B1_7 H19_7 1_555 1_555
B2_7 H20_7 1_555 1_555
Fe4 N1_8 1_555 1_555
N1_8 C1_8 1_555 1_555
C1_8 B1_8 1_555 1_555
B1_8 H19_8 1_555 1_555
Fe4_2 N1_9 1_555 1_555
N1_9 C1_9 1_555 1_555
C1_9 B1_9 1_555 1_555
B1_9 H19_9 1_555 1_555
N6_8 Fe4_3 1_555 1_555
C28_8 N6_8 1_555 1_555
B2_8 C28_8 1_555 1_555
B2_8 H20_8 1_555 1_555
N6_9 Fe4_4 1_555 1_555
C28_9 N6_9 1_555 1_555
B2_9 C28_9 1_555 1_555
B2_9 H20_9 1_555 1_555

#END
