
###############################################################################
#
# This file contains modified crystal structure data generated from the
# MOF subset of the Cambridge Structural Database (CSD) v543 
# hosted by the Cambridge Crystallographic Data Centre (CCDC).
#
# This work is licensed under the Creative Commons
# Attribution-NonCommercial-ShareAlike 4.0 International License.
# To view a copy of this license, visit
# http://creativecommons.org/licenses/by-nc-sa/4.0/
# or send a letter to
# Creative Commons, PO Box 1866, Mountain View, CA 94042, USA.
#
# CIF created using the CSD Python API on 29 September 2022
# The structure has been converted into the P1 space group
# The structure has a 3D framework
# The original CSD entry TAZBOP01 is in the orthorhombic crystal system
# The original CSD entry TAZBOP01 is in a Sohncke space group
# The framework has been calculated to contain at least 10.0% void space
# The void calculation uses a probe of radius 1.32A, grid spacing 0.4
# The framework is charged, counterions have been retained in the structure
# H atom positions have been added when not included in the experimental data
#
###############################################################################

data_TAZBOP01
_chemical_formula_moiety         '(C122 H90 B18 Fe13 N34 8+)n'
_symmetry_cell_setting           triclinic
_symmetry_space_group_name_H-M   'P 1'
_symmetry_Int_Tables_number      1
_space_group_name_Hall           'P 1'
loop_
_symmetry_equiv_pos_site_id
_symmetry_equiv_pos_as_xyz
1 x,y,z
_cell_length_a                   11.012(4)
_cell_length_b                   15.769(5)
_cell_length_c                   18.997(6)
_cell_angle_alpha                90
_cell_angle_beta                 90
_cell_angle_gamma                90
_cell_volume                     3298.8
loop_
_atom_site_label
_atom_site_type_symbol
_atom_site_fract_x
_atom_site_fract_y
_atom_site_fract_z
Fe1 Fe 0.000000 0.500000 0.000000
N1 N 0.000000 0.63467(18) 0.000000
N2 N 0.1453(2) 0.4914(2) 0.08169(11)
C1 C 0.000000 0.7064(2) 0.000000
C2 C 0.2380(3) 0.5455(2) 0.08428(18)
H1 H 0.236432 0.592987 0.054374
C3 C 0.3358(4) 0.5355(3) 0.1284(3)
H2 H 0.399762 0.575009 0.127852
C4 C 0.3393(3) 0.4669(2) 0.1737(2)
H3 H 0.403496 0.460710 0.205894
C5 C 0.2469(3) 0.40726(15) 0.17090(13)
C6 C 0.1523(3) 0.42296(17) 0.12464(14)
H4 H 0.088519 0.383400 0.122919
C7 C 0.2489(2) 0.32725(15) 0.21312(13)
C8 C 0.250000 0.250000 0.17701(18)
H5 H 0.250002 0.250001 0.127524
B1 B 0.000000 0.8078(8) 0.000000
N3 N 0.3547(2) 0.4914(2) 0.41831(11)
C9 C 0.2620(3) 0.5455(2) 0.41572(18)
H6 H 0.263568 0.592987 0.445626
C10 C 0.1642(4) 0.5355(3) 0.3716(3)
H7 H 0.100238 0.575009 0.372148
C11 C 0.1607(3) 0.4669(2) 0.3263(2)
H8 H 0.096504 0.460710 0.294106
C12 C 0.2531(3) 0.40726(15) 0.32910(13)
C13 C 0.3477(3) 0.42296(17) 0.37536(14)
H9 H 0.411481 0.383400 0.377081
C14 C 0.2511(2) 0.32725(15) 0.28688(13)
C15 C 0.250000 0.250000 0.32299(18)
H10 H 0.250002 0.249999 0.372476
N4 N 0.3547(2) 0.0086(2) 0.08169(11)
C18 C 0.1607(3) 0.0331(2) 0.1737(2)
H13 H 0.096504 0.039290 0.205894
C19 C 0.2531(3) 0.09274(15) 0.17090(13)
C20 C 0.3477(3) 0.07704(17) 0.12464(14)
H14 H 0.411481 0.116600 0.122919
C21 C 0.2511(2) 0.17275(15) 0.21312(13)
N5 N 0.1453(2) 0.0086(2) 0.41831(11)
C24 C 0.3393(3) 0.0331(2) 0.3263(2)
H17 H 0.403496 0.039290 0.294106
C25 C 0.2469(3) 0.09274(15) 0.32910(13)
C26 C 0.1523(3) 0.07704(17) 0.37536(14)
H18 H 0.088519 0.116600 0.377081
C27 C 0.2489(2) 0.17275(15) 0.28688(13)
N6 N 0.000000 0.36533(18) 0.000000
C28 C 0.000000 0.2936(2) 0.000000
B2 B 0.000000 0.1922(8) 0.000000
Fe2 Fe -0.000000 0.000000 0.500000
Fe3 Fe 0.500000 0.500000 0.500000
Fe4 Fe 0.500000 0.000000 0.000000
H19 H -2.44216e-15 0.832849 -8.17326e-16
H20 H -5.87583e-15 0.167151 1.96648e-15
Fe1_2 Fe 0.000000 0.500000 1.000000
N1_2 N -0.000000 0.63467(18) 1.000000
C1_2 C -0.000000 0.7064(2) 1.000000
B1_2 B -0.000000 0.8078(8) 1.000000
N6_2 N 0.000000 0.36533(18) 1.000000
C28_2 C 0.000000 0.2936(2) 1.000000
B2_2 B -0.000000 0.1922(8) 1.000000
Fe4_2 Fe 0.500000 0.000000 1.000000
N9 N 0.1453(2) 0.5086(2) 0.91831(11)
H19_2 H -2.44216e-15 0.832849 1
H20_2 H -5.87583e-15 0.167151 1
C16 C 0.2620(3) 0.9545(2) 0.08428(18)
H11 H 0.263568 0.907013 0.054374
C17 C 0.1642(4) 0.9645(3) 0.1284(3)
H12 H 0.100238 0.924991 0.127852
C22 C 0.2380(3) 0.9545(2) 0.41572(18)
H15 H 0.236432 0.907013 0.445626
C23 C 0.3358(4) 0.9645(3) 0.3716(3)
H16 H 0.399762 0.924991 0.372148
Fe2_2 Fe 0.000000 1.000000 0.500000
Fe4_3 Fe 0.500000 1.000000 0.000000
Fe4_4 Fe 0.500000 1.000000 1.000000
Fe1_3 Fe 1.000000 0.500000 0.000000
N1_3 N 1.000000 0.63467(18) 0.000000
C1_3 C 1.000000 0.7064(2) 0.000000
B1_3 B 1.000000 0.8078(8) 0.000000
N6_3 N 1.000000 0.36533(18) 0.000000
C28_3 C 1.000000 0.2936(2) 0.000000
B2_3 B 1.000000 0.1922(8) 0.000000
Fe2_3 Fe 1.000000 0.000000 0.500000
N7 N 0.8547(2) 0.5086(2) 0.08169(11)
H19_3 H 1 0.832849 -8.17326e-16
H20_3 H 1 0.167151 1.96648e-15
Fe1_4 Fe 1.000000 0.500000 1.000000
N1_4 N 1.000000 0.63467(18) 1.000000
C1_4 C 1.000000 0.7064(2) 1.000000
B1_4 B 1.000000 0.8078(8) 1.000000
N6_4 N 1.000000 0.36533(18) 1.000000
C28_4 C 1.000000 0.2936(2) 1.000000
B2_4 B 1.000000 0.1922(8) 1.000000
N8 N 0.8547(2) 0.4914(2) 0.91831(11)
H19_4 H 1 0.832849 1
H20_4 H 1 0.167151 1
Fe2_4 Fe 1.000000 1.000000 0.500000
C16_2 C 0.7380(3) 0.0455(2) 0.08428(18)
H11_2 H 0.736432 0.092987 0.054374
C17_2 C 0.8358(4) 0.0355(3) 0.1284(3)
H12_2 H 0.899762 0.075009 0.127852
C22_2 C 0.7620(3) 0.0455(2) 0.41572(18)
H15_2 H 0.763568 0.092987 0.445626
C23_2 C 0.6642(4) 0.0355(3) 0.3716(3)
H16_2 H 0.600238 0.075009 0.372148
C2_2 C 0.7620(3) 0.4545(2) 0.08428(18)
H1_2 H 0.763568 0.407013 0.054374
C3_2 C 0.6642(4) 0.4645(3) 0.1284(3)
H2_2 H 0.600238 0.424991 0.127852
C4_2 C 0.6607(3) 0.5331(2) 0.1737(2)
H3_2 H 0.596504 0.539290 0.205894
C5_2 C 0.7531(3) 0.59274(15) 0.17090(13)
C6_2 C 0.8477(3) 0.57704(17) 0.12464(14)
H4_2 H 0.911481 0.616600 0.122919
C7_2 C 0.7511(2) 0.67275(15) 0.21312(13)
C8_2 C 0.750000 0.750000 0.17701(18)
H5_2 H 0.749998 0.749999 0.127524
N3_2 N 0.6453(2) 0.5086(2) 0.41831(11)
C9_2 C 0.7380(3) 0.4545(2) 0.41572(18)
H6_2 H 0.736432 0.407013 0.445626
C10_2 C 0.8358(4) 0.4645(3) 0.3716(3)
H7_2 H 0.899762 0.424991 0.372148
C11_2 C 0.8393(3) 0.5331(2) 0.3263(2)
H8_2 H 0.903496 0.539290 0.294106
C12_2 C 0.7469(3) 0.59274(15) 0.32910(13)
C13_2 C 0.6523(3) 0.57704(17) 0.37536(14)
H9_2 H 0.588519 0.616600 0.377081
C14_2 C 0.7489(2) 0.67275(15) 0.28688(13)
C15_2 C 0.750000 0.750000 0.32299(18)
H10_2 H 0.749998 0.750001 0.372476
N4_2 N 0.6453(2) 0.9914(2) 0.08169(11)
C18_2 C 0.8393(3) 0.9669(2) 0.1737(2)
H13_2 H 0.903496 0.960710 0.205894
C19_2 C 0.7469(3) 0.90726(15) 0.17090(13)
C20_2 C 0.6523(3) 0.92296(17) 0.12464(14)
H14_2 H 0.588519 0.883400 0.122919
C21_2 C 0.7489(2) 0.82725(15) 0.21312(13)
N5_2 N 0.8547(2) 0.9914(2) 0.41831(11)
C24_2 C 0.6607(3) 0.9669(2) 0.3263(2)
H17_2 H 0.596504 0.960710 0.294106
C25_2 C 0.7531(3) 0.90726(15) 0.32910(13)
C26_2 C 0.8477(3) 0.92296(17) 0.37536(14)
H18_2 H 0.911481 0.883400 0.377081
C27_2 C 0.7511(2) 0.82725(15) 0.28688(13)
C2_3 C 0.7620(3) 0.5455(2) 0.91572(18)
H1_3 H 0.763568 0.592987 0.945626
C3_3 C 0.6642(4) 0.5355(3) 0.8716(3)
H2_3 H 0.600238 0.575009 0.872148
C4_3 C 0.6607(3) 0.4669(2) 0.8263(2)
H3_3 H 0.596504 0.460710 0.794106
C5_3 C 0.7531(3) 0.40726(15) 0.82910(13)
C6_3 C 0.8477(3) 0.42296(17) 0.87536(14)
H4_3 H 0.911481 0.383400 0.877081
C7_3 C 0.7511(2) 0.32725(15) 0.78688(13)
C8_3 C 0.750000 0.250000 0.82299(18)
H5_3 H 0.749998 0.250001 0.872476
N3_3 N 0.6453(2) 0.4914(2) 0.58169(11)
C9_3 C 0.7380(3) 0.5455(2) 0.58428(18)
H6_3 H 0.736432 0.592987 0.554374
C10_3 C 0.8358(4) 0.5355(3) 0.6284(3)
H7_3 H 0.899762 0.575009 0.627852
C11_3 C 0.8393(3) 0.4669(2) 0.6737(2)
H8_3 H 0.903496 0.460710 0.705894
C12_3 C 0.7469(3) 0.40726(15) 0.67090(13)
C13_3 C 0.6523(3) 0.42296(17) 0.62464(14)
H9_3 H 0.588519 0.383400 0.622919
C14_3 C 0.7489(2) 0.32725(15) 0.71312(13)
C15_3 C 0.750000 0.250000 0.67701(18)
H10_3 H 0.749998 0.249999 0.627524
N4_3 N 0.6453(2) 0.0086(2) 0.91831(11)
C18_3 C 0.8393(3) 0.0331(2) 0.8263(2)
H13_3 H 0.903496 0.039290 0.794106
C19_3 C 0.7469(3) 0.09274(15) 0.82910(13)
C20_3 C 0.6523(3) 0.07704(17) 0.87536(14)
H14_3 H 0.588519 0.116600 0.877081
C21_3 C 0.7489(2) 0.17275(15) 0.78688(13)
N5_3 N 0.8547(2) 0.0086(2) 0.58169(11)
C24_3 C 0.6607(3) 0.0331(2) 0.6737(2)
H17_3 H 0.596504 0.039290 0.705894
C25_3 C 0.7531(3) 0.09274(15) 0.67090(13)
C26_3 C 0.8477(3) 0.07704(17) 0.62464(14)
H18_3 H 0.911481 0.116600 0.622919
C27_3 C 0.7511(2) 0.17275(15) 0.71312(13)
C16_3 C 0.7380(3) 0.9545(2) 0.91572(18)
H11_3 H 0.736432 0.907013 0.945626
C17_3 C 0.8358(4) 0.9645(3) 0.8716(3)
H12_3 H 0.899762 0.924991 0.872148
C22_3 C 0.7620(3) 0.9545(2) 0.58428(18)
H15_3 H 0.763568 0.907013 0.554374
C23_3 C 0.6642(4) 0.9645(3) 0.6284(3)
H16_3 H 0.600238 0.924991 0.627852
C16_4 C 0.2620(3) 0.0455(2) 0.91572(18)
H11_4 H 0.263568 0.092987 0.945626
C17_4 C 0.1642(4) 0.0355(3) 0.8716(3)
H12_4 H 0.100238 0.075009 0.872148
C22_4 C 0.2380(3) 0.0455(2) 0.58428(18)
H15_4 H 0.236432 0.092987 0.554374
C23_4 C 0.3358(4) 0.0355(3) 0.6284(3)
H16_4 H 0.399762 0.075009 0.627852
C2_4 C 0.2380(3) 0.4545(2) 0.91572(18)
H1_4 H 0.236432 0.407013 0.945626
C3_4 C 0.3358(4) 0.4645(3) 0.8716(3)
H2_4 H 0.399762 0.424991 0.872148
C4_4 C 0.3393(3) 0.5331(2) 0.8263(2)
H3_4 H 0.403496 0.539290 0.794106
C5_4 C 0.2469(3) 0.59274(15) 0.82910(13)
C6_4 C 0.1523(3) 0.57704(17) 0.87536(14)
H4_4 H 0.088519 0.616600 0.877081
C7_4 C 0.2489(2) 0.67275(15) 0.78688(13)
C8_4 C 0.250000 0.750000 0.82299(18)
H5_4 H 0.250002 0.749999 0.872476
N3_4 N 0.3547(2) 0.5086(2) 0.58169(11)
C9_4 C 0.2620(3) 0.4545(2) 0.58428(18)
H6_4 H 0.263568 0.407013 0.554374
C10_4 C 0.1642(4) 0.4645(3) 0.6284(3)
H7_4 H 0.100238 0.424991 0.627852
C11_4 C 0.1607(3) 0.5331(2) 0.6737(2)
H8_4 H 0.096504 0.539290 0.705894
C12_4 C 0.2531(3) 0.59274(15) 0.67090(13)
C13_4 C 0.3477(3) 0.57704(17) 0.62464(14)
H9_4 H 0.411481 0.616600 0.622919
C14_4 C 0.2511(2) 0.67275(15) 0.71312(13)
C15_4 C 0.250000 0.750000 0.67701(18)
H10_4 H 0.250002 0.750001 0.627524
N4_4 N 0.3547(2) 0.9914(2) 0.91831(11)
C18_4 C 0.1607(3) 0.9669(2) 0.8263(2)
H13_4 H 0.096504 0.960710 0.794106
C19_4 C 0.2531(3) 0.90726(15) 0.82910(13)
C20_4 C 0.3477(3) 0.92296(17) 0.87536(14)
H14_4 H 0.411481 0.883400 0.877081
C21_4 C 0.2511(2) 0.82725(15) 0.78688(13)
N5_4 N 0.1453(2) 0.9914(2) 0.58169(11)
C24_4 C 0.3393(3) 0.9669(2) 0.6737(2)
H17_4 H 0.403496 0.960710 0.705894
C25_4 C 0.2469(3) 0.90726(15) 0.67090(13)
C26_4 C 0.1523(3) 0.92296(17) 0.62464(14)
H18_4 H 0.088519 0.883400 0.622919
C27_4 C 0.2489(2) 0.82725(15) 0.71312(13)
N1_5 N -0.000000 0.13467(18) 0.500000
C1_5 C 0.000000 0.2064(2) 0.500000
B1_5 B 0.000000 0.3078(8) 0.500000
H19_5 H -2.44216e-15 0.332849 0.5
N6_5 N -0.000000 0.86533(18) 0.500000
C28_5 C -0.000000 0.7936(2) 0.500000
B2_5 B 0.000000 0.6922(8) 0.500000
H20_5 H -5.87583e-15 0.667151 0.5
N1_6 N 1.000000 0.13467(18) 0.500000
C1_6 C 1.000000 0.2064(2) 0.500000
B1_6 B 1.000000 0.3078(8) 0.500000
H19_6 H 1 0.332849 0.5
N6_6 N 1.000000 0.86533(18) 0.500000
C28_6 C 1.000000 0.7936(2) 0.500000
B2_6 B 1.000000 0.6922(8) 0.500000
H20_6 H 1 0.667151 0.5
N1_7 N 0.500000 0.63467(18) 0.500000
C1_7 C 0.500000 0.7064(2) 0.500000
B1_7 B 0.500000 0.8078(8) 0.500000
N6_7 N 0.500000 0.36533(18) 0.500000
C28_7 C 0.500000 0.2936(2) 0.500000
B2_7 B 0.500000 0.1922(8) 0.500000
H19_7 H 0.5 0.832849 0.5
H20_7 H 0.5 0.167151 0.5
N1_8 N 0.500000 0.13467(18) 0.000000
C1_8 C 0.500000 0.2064(2) 0.000000
B1_8 B 0.500000 0.3078(8) 0.000000
H19_8 H 0.5 0.332849 -8.17326e-16
N1_9 N 0.500000 0.13467(18) 1.000000
C1_9 C 0.500000 0.2064(2) 1.000000
B1_9 B 0.500000 0.3078(8) 1.000000
H19_9 H 0.5 0.332849 1
N6_8 N 0.500000 0.86533(18) 0.000000
C28_8 C 0.500000 0.7936(2) 0.000000
B2_8 B 0.500000 0.6922(8) 0.000000
H20_8 H 0.5 0.667151 1.96648e-15
N6_9 N 0.500000 0.86533(18) 1.000000
C28_9 C 0.500000 0.7936(2) 1.000000
B2_9 B 0.500000 0.6922(8) 1.000000
H20_9 H 0.5 0.667151 1
loop_
_geom_bond_atom_site_label_1
_geom_bond_atom_site_label_2
_geom_bond_site_symmetry_1
_geom_bond_site_symmetry_2
Fe1 N1 1_555 1_555
N1 C1 1_555 1_555
N2 Fe1 1_555 1_555
C1 B1 1_555 1_555
C2 N2 1_555 1_555
H1 C2 1_555 1_555
C3 C2 1_555 1_555
H2 C3 1_555 1_555
C4 C3 1_555 1_555
H3 C4 1_555 1_555
C5 C4 1_555 1_555
C6 N2 1_555 1_555
H4 C6 1_555 1_555
C7 C5 1_555 1_555
C8 C7 1_555 1_555
H5 C8 1_555 1_555
N3 C9 1_555 1_555
C9 H6 1_555 1_555
C10 C9 1_555 1_555
H7 C10 1_555 1_555
C11 C10 1_555 1_555
H8 C11 1_555 1_555
C12 C11 1_555 1_555
C13 N3 1_555 1_555
H9 C13 1_555 1_555
C14 C7 1_555 1_555
C15 C14 1_555 1_555
H10 C15 1_555 1_555
H13 C18 1_555 1_555
C19 C18 1_555 1_555
C20 N4 1_555 1_555
H14 C20 1_555 1_555
C21 C8 1_555 1_555
H17 C24 1_555 1_555
C25 C24 1_555 1_555
C26 N5 1_555 1_555
H18 C26 1_555 1_555
C27 C15 1_555 1_555
N6 Fe1 1_555 1_555
C28 N6 1_555 1_555
B2 C28 1_555 1_555
Fe2 N5 1_555 1_555
Fe3 N3 1_555 1_555
Fe4 N4 1_555 1_555
C5 C6 1_555 1_555
C12 C13 1_555 1_555
C12 C14 1_555 1_555
C19 C20 1_555 1_555
C19 C21 1_555 1_555
C21 C27 1_555 1_555
C25 C26 1_555 1_555
C25 C27 1_555 1_555
B1 H19 1_555 1_555
B2 H20 1_555 1_555
Fe1_2 N1_2 1_555 1_555
N1_2 C1_2 1_555 1_555
C1_2 B1_2 1_555 1_555
N6_2 Fe1_2 1_555 1_555
C28_2 N6_2 1_555 1_555
B2_2 C28_2 1_555 1_555
N9 Fe1_2 1_555 1_555
B1_2 H19_2 1_555 1_555
B2_2 H20_2 1_555 1_555
C16 H11 1_555 1_555
C17 C16 1_555 1_555
H12 C17 1_555 1_555
C22 H15 1_555 1_555
C23 C22 1_555 1_555
H16 C23 1_555 1_555
Fe1_3 N1_3 1_555 1_555
N1_3 C1_3 1_555 1_555
C1_3 B1_3 1_555 1_555
N6_3 Fe1_3 1_555 1_555
C28_3 N6_3 1_555 1_555
B2_3 C28_3 1_555 1_555
N7 Fe1_3 1_555 1_555
B1_3 H19_3 1_555 1_555
B2_3 H20_3 1_555 1_555
Fe1_4 N1_4 1_555 1_555
N1_4 C1_4 1_555 1_555
C1_4 B1_4 1_555 1_555
N6_4 Fe1_4 1_555 1_555
C28_4 N6_4 1_555 1_555
B2_4 C28_4 1_555 1_555
N8 Fe1_4 1_555 1_555
B1_4 H19_4 1_555 1_555
B2_4 H20_4 1_555 1_555
C16_2 H11_2 1_555 1_555
C17_2 C16_2 1_555 1_555
H12_2 C17_2 1_555 1_555
C22_2 H15_2 1_555 1_555
C23_2 C22_2 1_555 1_555
H16_2 C23_2 1_555 1_555
C2_2 N7 1_555 1_555
H1_2 C2_2 1_555 1_555
C3_2 C2_2 1_555 1_555
H2_2 C3_2 1_555 1_555
C4_2 C3_2 1_555 1_555
H3_2 C4_2 1_555 1_555
C5_2 C4_2 1_555 1_555
C6_2 N7 1_555 1_555
H4_2 C6_2 1_555 1_555
C7_2 C5_2 1_555 1_555
C8_2 C7_2 1_555 1_555
H5_2 C8_2 1_555 1_555
N3_2 C9_2 1_555 1_555
C9_2 H6_2 1_555 1_555
C10_2 C9_2 1_555 1_555
H7_2 C10_2 1_555 1_555
C11_2 C10_2 1_555 1_555
H8_2 C11_2 1_555 1_555
C12_2 C11_2 1_555 1_555
C13_2 N3_2 1_555 1_555
H9_2 C13_2 1_555 1_555
C14_2 C7_2 1_555 1_555
C15_2 C14_2 1_555 1_555
H10_2 C15_2 1_555 1_555
H13_2 C18_2 1_555 1_555
C19_2 C18_2 1_555 1_555
C20_2 N4_2 1_555 1_555
H14_2 C20_2 1_555 1_555
C21_2 C8_2 1_555 1_555
H17_2 C24_2 1_555 1_555
C25_2 C24_2 1_555 1_555
C26_2 N5_2 1_555 1_555
H18_2 C26_2 1_555 1_555
C27_2 C15_2 1_555 1_555
Fe2_4 N5_2 1_555 1_555
Fe3 N3_2 1_555 1_555
Fe4_3 N4_2 1_555 1_555
C5_2 C6_2 1_555 1_555
C12_2 C13_2 1_555 1_555
C12_2 C14_2 1_555 1_555
C19_2 C20_2 1_555 1_555
C19_2 C21_2 1_555 1_555
C21_2 C27_2 1_555 1_555
C25_2 C26_2 1_555 1_555
C25_2 C27_2 1_555 1_555
C2_3 N8 1_555 1_555
H1_3 C2_3 1_555 1_555
C3_3 C2_3 1_555 1_555
H2_3 C3_3 1_555 1_555
C4_3 C3_3 1_555 1_555
H3_3 C4_3 1_555 1_555
C5_3 C4_3 1_555 1_555
C6_3 N8 1_555 1_555
H4_3 C6_3 1_555 1_555
C7_3 C5_3 1_555 1_555
C8_3 C7_3 1_555 1_555
H5_3 C8_3 1_555 1_555
N3_3 C9_3 1_555 1_555
C9_3 H6_3 1_555 1_555
C10_3 C9_3 1_555 1_555
H7_3 C10_3 1_555 1_555
C11_3 C10_3 1_555 1_555
H8_3 C11_3 1_555 1_555
C12_3 C11_3 1_555 1_555
C13_3 N3_3 1_555 1_555
H9_3 C13_3 1_555 1_555
C14_3 C7_3 1_555 1_555
C15_3 C14_3 1_555 1_555
H10_3 C15_3 1_555 1_555
H13_3 C18_3 1_555 1_555
C19_3 C18_3 1_555 1_555
C20_3 N4_3 1_555 1_555
H14_3 C20_3 1_555 1_555
C21_3 C8_3 1_555 1_555
H17_3 C24_3 1_555 1_555
C25_3 C24_3 1_555 1_555
C26_3 N5_3 1_555 1_555
H18_3 C26_3 1_555 1_555
C27_3 C15_3 1_555 1_555
Fe2_3 N5_3 1_555 1_555
Fe3 N3_3 1_555 1_555
Fe4_2 N4_3 1_555 1_555
C5_3 C6_3 1_555 1_555
C12_3 C13_3 1_555 1_555
C12_3 C14_3 1_555 1_555
C19_3 C20_3 1_555 1_555
C19_3 C21_3 1_555 1_555
C21_3 C27_3 1_555 1_555
C25_3 C26_3 1_555 1_555
C25_3 C27_3 1_555 1_555
C16_3 H11_3 1_555 1_555
C17_3 C16_3 1_555 1_555
H12_3 C17_3 1_555 1_555
C22_3 H15_3 1_555 1_555
C23_3 C22_3 1_555 1_555
H16_3 C23_3 1_555 1_555
C16_4 H11_4 1_555 1_555
C17_4 C16_4 1_555 1_555
H12_4 C17_4 1_555 1_555
C22_4 H15_4 1_555 1_555
C23_4 C22_4 1_555 1_555
H16_4 C23_4 1_555 1_555
C2_4 N9 1_555 1_555
H1_4 C2_4 1_555 1_555
C3_4 C2_4 1_555 1_555
H2_4 C3_4 1_555 1_555
C4_4 C3_4 1_555 1_555
H3_4 C4_4 1_555 1_555
C5_4 C4_4 1_555 1_555
C6_4 N9 1_555 1_555
H4_4 C6_4 1_555 1_555
C7_4 C5_4 1_555 1_555
C8_4 C7_4 1_555 1_555
H5_4 C8_4 1_555 1_555
N3_4 C9_4 1_555 1_555
C9_4 H6_4 1_555 1_555
C10_4 C9_4 1_555 1_555
H7_4 C10_4 1_555 1_555
C11_4 C10_4 1_555 1_555
H8_4 C11_4 1_555 1_555
C12_4 C11_4 1_555 1_555
C13_4 N3_4 1_555 1_555
H9_4 C13_4 1_555 1_555
C14_4 C7_4 1_555 1_555
C15_4 C14_4 1_555 1_555
H10_4 C15_4 1_555 1_555
H13_4 C18_4 1_555 1_555
C19_4 C18_4 1_555 1_555
C20_4 N4_4 1_555 1_555
H14_4 C20_4 1_555 1_555
C21_4 C8_4 1_555 1_555
H17_4 C24_4 1_555 1_555
C25_4 C24_4 1_555 1_555
C26_4 N5_4 1_555 1_555
H18_4 C26_4 1_555 1_555
C27_4 C15_4 1_555 1_555
Fe2_2 N5_4 1_555 1_555
Fe3 N3_4 1_555 1_555
Fe4_4 N4_4 1_555 1_555
C5_4 C6_4 1_555 1_555
C12_4 C13_4 1_555 1_555
C12_4 C14_4 1_555 1_555
C19_4 C20_4 1_555 1_555
C19_4 C21_4 1_555 1_555
C21_4 C27_4 1_555 1_555
C25_4 C26_4 1_555 1_555
C25_4 C27_4 1_555 1_555
Fe2 N1_5 1_555 1_555
N1_5 C1_5 1_555 1_555
C1_5 B1_5 1_555 1_555
B1_5 H19_5 1_555 1_555
N6_5 Fe2_2 1_555 1_555
C28_5 N6_5 1_555 1_555
B2_5 C28_5 1_555 1_555
B2_5 H20_5 1_555 1_555
Fe2_3 N1_6 1_555 1_555
N1_6 C1_6 1_555 1_555
C1_6 B1_6 1_555 1_555
B1_6 H19_6 1_555 1_555
N6_6 Fe2_4 1_555 1_555
C28_6 N6_6 1_555 1_555
B2_6 C28_6 1_555 1_555
B2_6 H20_6 1_555 1_555
Fe3 N1_7 1_555 1_555
N1_7 C1_7 1_555 1_555
C1_7 B1_7 1_555 1_555
N6_7 Fe3 1_555 1_555
C28_7 N6_7 1_555 1_555
B2_7 C28_7 1_555 1_555
B1_7 H19_7 1_555 1_555
B2_7 H20_7 1_555 1_555
Fe4 N1_8 1_555 1_555
N1_8 C1_8 1_555 1_555
C1_8 B1_8 1_555 1_555
B1_8 H19_8 1_555 1_555
Fe4_2 N1_9 1_555 1_555
N1_9 C1_9 1_555 1_555
C1_9 B1_9 1_555 1_555
B1_9 H19_9 1_555 1_555
N6_8 Fe4_3 1_555 1_555
C28_8 N6_8 1_555 1_555
B2_8 C28_8 1_555 1_555
B2_8 H20_8 1_555 1_555
N6_9 Fe4_4 1_555 1_555
C28_9 N6_9 1_555 1_555
B2_9 C28_9 1_555 1_555
B2_9 H20_9 1_555 1_555

#END
