
###############################################################################
#
# This file contains modified crystal structure data generated from the
# MOF subset of the Cambridge Structural Database (CSD) v543 
# hosted by the Cambridge Crystallographic Data Centre (CCDC).
#
# This work is licensed under the Creative Commons
# Attribution-NonCommercial-ShareAlike 4.0 International License.
# To view a copy of this license, visit
# http://creativecommons.org/licenses/by-nc-sa/4.0/
# or send a letter to
# Creative Commons, PO Box 1866, Mountain View, CA 94042, USA.
#
# CIF created using the CSD Python API on 29 September 2022
# The structure has been converted into the P1 space group
# The structure has a 3D framework
# The original CSD entry TAZFOT is in the monoclinic crystal system
# The framework has been calculated to contain at least 10.0% void space
# The void calculation uses a probe of radius 1.32A, grid spacing 0.4
#
###############################################################################

data_TAZFOT
_chemical_formula_moiety         '(C112 H88 Co4 N16 O20)n'
_symmetry_cell_setting           triclinic
_symmetry_space_group_name_H-M   'P 1'
_symmetry_Int_Tables_number      1
_space_group_name_Hall           'P 1'
loop_
_symmetry_equiv_pos_site_id
_symmetry_equiv_pos_as_xyz
1 x,y,z
_cell_length_a                   9.3570(19)
_cell_length_b                   12.087(2)
_cell_length_c                   26.531(5)
_cell_angle_alpha                90
_cell_angle_beta                 92.12(3)
_cell_angle_gamma                90
_cell_volume                     2998.55
loop_
_atom_site_label
_atom_site_type_symbol
_atom_site_fract_x
_atom_site_fract_y
_atom_site_fract_z
Co1 Co 0.69724(16) 0.46073(12) 0.54876(5)
O1 O 0.5052(8) 0.5283(8) 0.5612(3)
O2 O 0.2875(9) 0.5580(7) 0.5271(3)
O3 O 0.1960(10) 0.7141(10) 0.7518(3)
O4 O 0.6029(9) 0.8990(7) 0.9294(3)
O5 O 0.7187(10) 0.9655(8) 0.8655(3)
N1 N 0.6032(10) 0.3028(8) 0.5575(4)
N2 N 0.2454(11) 0.0030(9) 0.5406(4)
C1 C 0.3779(13) 0.5580(9) 0.5636(4)
C2 C 0.3234(12) 0.5915(10) 0.6145(4)
C3 C 0.4192(13) 0.5833(12) 0.6569(5)
H1 H 0.510710 0.550202 0.654090
C4 C 0.3758(14) 0.6250(12) 0.7032(5)
H2 H 0.438359 0.621693 0.732166
C5 C 0.2432(15) 0.6705(12) 0.7063(5)
C6 C 0.1472(13) 0.6769(11) 0.6656(5)
H3 H 0.055298 0.709115 0.668640
C7 C 0.1905(14) 0.6342(11) 0.6196(5)
H4 H 0.125422 0.635002 0.591292
C8 C 0.2967(14) 0.7674(12) 0.7835(5)
C9 C 0.3933(15) 0.8438(13) 0.7641(5)
H5 H 0.389617 0.860665 0.729066
C10 C 0.4939(16) 0.8947(13) 0.7959(5)
H6 H 0.562077 0.944203 0.782807
C11 C 0.4939(14) 0.8722(11) 0.8476(5)
C12 C 0.3913(15) 0.8045(11) 0.8667(5)
H7 H 0.387399 0.794166 0.902118
C13 C 0.2925(13) 0.7506(11) 0.8343(5)
H8 H 0.222833 0.702653 0.847595
C14 C 0.6120(14) 0.9159(11) 0.8825(5)
C15 C 0.4783(14) 0.2856(11) 0.5322(5)
H9 H 0.440645 0.344163 0.511840
C16 C 0.4023(14) 0.1899(10) 0.5336(5)
H10 H 0.314783 0.183739 0.514455
C17 C 0.4504(13) 0.1016(10) 0.5624(5)
C18 C 0.5810(14) 0.1163(11) 0.5895(6)
H11 H 0.620720 0.058642 0.609942
C19 C 0.6508(13) 0.2178(10) 0.5857(5)
H12 H 0.738456 0.227113 0.604429
H18 H 0.037934 0.083086 0.573215
Co3 Co 0.80276(16) 0.96073(12) 0.95124(5)
Co4 Co 0.30276(16) 0.53927(12) 0.45124(5)
O6 O 0.7125(9) 0.4420(7) 0.4729(3)
O7 O 0.8971(9) 0.3990(7) 0.5706(3)
O8 O 0.7813(10) 0.4655(8) 0.6345(3)
N5 N 0.7878(9) 0.6205(7) 0.5452(3)
C24 C 0.9468(12) 0.8165(10) 0.5513(5)
C25 C 0.8340(14) 0.7986(10) 0.5826(5)
H19 H 0.808100 0.853626 0.606111
C26 C 0.7587(13) 0.6992(10) 0.5793(5)
H20 H 0.684085 0.686574 0.601874
C27 C 0.8961(12) 0.6395(10) 0.5140(4)
H21 H 0.917246 0.584581 0.489769
C28 C 0.9772(12) 0.7344(10) 0.5157(4)
Co4_2 Co 0.19724(16) 0.03927(12) 0.04876(5)
N2_2 N 0.2546(11) 0.5030(9) 0.9594(4)
N3 N 0.3395(11) 0.4098(8) 0.9613(4)
N4 N 0.7122(9) 0.1205(7) 0.9548(3)
C15_2 C 0.0217(14) 0.7856(11) 0.9678(5)
H9_2 H 0.059355 0.844163 0.988160
C16_2 C 0.0977(14) 0.6899(10) 0.9664(5)
H10_2 H 0.185217 0.683739 0.985545
C17_2 C 0.0496(13) 0.6016(10) 0.9376(5)
C20 C 0.1341(13) 0.4983(10) 0.9361(5)
C21 C 0.0773(17) 0.3974(11) 0.9086(7)
H13 H 0.074702 0.411297 0.872208
H15 H 0.139699 0.334090 0.916375
C22 C 0.4634(13) 0.4182(10) 0.9430(5)
C23 C 0.5173(16) 0.5182(11) 0.9169(6)
H16 H 0.506871 0.507858 0.880312
H17 H 0.618450 0.529550 0.926428
H18_2 H 0.462066 0.583086 0.926785
C24_2 C 0.5532(12) 0.3165(10) 0.9487(5)
C25_2 C 0.6660(14) 0.2986(10) 0.9174(5)
H19_2 H 0.691900 0.353626 0.893889
C26_2 C 0.7413(13) 0.1992(10) 0.9207(5)
H20_2 H 0.815915 0.186574 0.898126
C27_2 C 0.6039(12) 0.1395(10) 0.9860(4)
C28_2 C 0.5228(12) 0.2344(10) 0.9843(4)
O1_2 O 0.9948(8) 0.0283(8) 0.9388(3)
H1_2 H 0.989290 0.050202 0.845910
H6_2 H 0.937923 0.444203 0.717193
C14_2 C 0.8880(14) 0.4159(11) 0.6175(5)
N1_2 N 0.8968(10) 0.8028(8) 0.9425(4)
C18_2 C 0.9190(14) 0.6163(11) 0.9105(6)
H11_2 H 0.879280 0.558642 0.890058
C19_2 C 0.8492(13) 0.7178(10) 0.9143(5)
H12_2 H 0.761544 0.727113 0.895571
H14 H 0.980454 0.381275 0.919432
N4_2 N 0.2122(9) 0.3795(7) 0.4548(3)
C24_3 C 0.0532(12) 0.1835(10) 0.4487(5)
C25_3 C 0.1660(14) 0.2014(10) 0.4174(5)
H19_3 H 0.191900 0.146374 0.393889
C26_3 C 0.2413(13) 0.3008(10) 0.4207(5)
H20_3 H 0.315915 0.313426 0.398126
C27_3 C 0.1039(12) 0.3605(10) 0.4860(4)
H21_2 H 0.082754 0.415419 0.510231
C28_3 C 0.0228(12) 0.2656(10) 0.4843(4)
O1_3 O 0.4948(8) 0.4717(8) 0.4388(3)
O3_2 O 0.8040(10) 0.2859(10) 0.2482(3)
O4_2 O 0.3971(9) 0.1010(7) 0.0706(3)
O5_2 O 0.2813(10) 0.0345(8) 0.1345(3)
N1_3 N 0.3968(10) 0.6972(8) 0.4425(4)
N2_3 N 0.7546(11) 0.9970(9) 0.4594(4)
C1_2 C 0.6221(13) 0.4420(9) 0.4364(4)
C2_2 C 0.6766(12) 0.4085(10) 0.3855(4)
C3_2 C 0.5808(13) 0.4167(12) 0.3431(5)
H1_3 H 0.489290 0.449798 0.345910
C4_2 C 0.6242(14) 0.3750(12) 0.2968(5)
H2_2 H 0.561641 0.378307 0.267834
C5_2 C 0.7568(15) 0.3295(12) 0.2937(5)
C6_2 C 0.8528(13) 0.3231(11) 0.3344(5)
H3_2 H 0.944702 0.290885 0.331360
C7_2 C 0.8095(14) 0.3658(11) 0.3804(5)
H4_2 H 0.874578 0.364998 0.408708
C8_2 C 0.7033(14) 0.2326(12) 0.2165(5)
C9_2 C 0.6067(15) 0.1562(13) 0.2359(5)
H5_2 H 0.610383 0.139335 0.270934
C10_2 C 0.5061(16) 0.1053(13) 0.2041(5)
H6_3 H 0.437923 0.055797 0.217193
C11_2 C 0.5061(14) 0.1278(11) 0.1524(5)
C12_2 C 0.6087(15) 0.1955(11) 0.1333(5)
H7_2 H 0.612601 0.205834 0.097882
C13_2 C 0.7075(13) 0.2494(11) 0.1657(5)
H8_2 H 0.777167 0.297347 0.152405
C14_3 C 0.3880(14) 0.0841(11) 0.1175(5)
C15_3 C 0.5217(14) 0.7144(11) 0.4678(5)
H9_3 H 0.559355 0.655837 0.488160
C16_3 C 0.5977(14) 0.8101(10) 0.4664(5)
H10_3 H 0.685217 0.816261 0.485545
C17_3 C 0.5496(13) 0.8984(10) 0.4376(5)
C18_3 C 0.4190(14) 0.8837(11) 0.4105(6)
H11_3 H 0.379280 0.941358 0.390058
C19_3 C 0.3492(13) 0.7822(10) 0.4143(5)
H12_3 H 0.261544 0.772887 0.395571
H18_3 H 0.962066 0.916914 0.426785
O7_2 O 0.1029(9) 0.6010(7) 0.4294(3)
O8_2 O 0.2187(10) 0.5345(8) 0.3655(3)
N1_4 N 0.1032(10) 0.1972(8) 0.0575(4)
C18_4 C 0.0810(14) 0.3837(11) 0.0895(6)
H11_4 H 0.120720 0.441358 0.109942
C19_4 C 0.1508(13) 0.2822(10) 0.0857(5)
H12_4 H 0.238456 0.272887 0.104429
H14_2 H 0.019546 0.618725 0.080568
O1_4 O 0.0052(8) 0.9717(8) 0.0612(3)
H1_4 H 0.010710 0.949798 0.154090
H6_4 H 0.062077 0.555797 0.282807
C14_4 C 0.1120(14) 0.5841(11) 0.3825(5)
N5_2 N 0.2878(9) 0.8795(7) 0.0452(3)
N2_4 N 0.7454(11) 0.4970(9) 0.0406(4)
N3_2 N 0.6605(11) 0.5902(8) 0.0387(4)
C15_4 C 0.9783(14) 0.2144(11) 0.0322(5)
H9_4 H 0.940645 0.155837 0.011840
C16_4 C 0.9023(14) 0.3101(10) 0.0336(5)
H10_4 H 0.814783 0.316261 0.014455
C17_4 C 0.9504(13) 0.3984(10) 0.0624(5)
C20_2 C 0.8659(13) 0.5017(10) 0.0639(5)
C21_2 C 0.9227(17) 0.6026(11) 0.0914(7)
H13_2 H 0.925298 0.588703 0.127792
H15_2 H 0.860301 0.665910 0.083625
C22_2 C 0.5366(13) 0.5818(10) 0.0570(5)
C23_2 C 0.4827(16) 0.4818(11) 0.0831(6)
H16_2 H 0.493129 0.492142 0.119688
H17_2 H 0.381550 0.470450 0.073572
H18_4 H 0.537934 0.416914 0.073215
C24_4 C 0.4468(12) 0.6835(10) 0.0513(5)
C25_4 C 0.3340(14) 0.7014(10) 0.0826(5)
H19_4 H 0.308100 0.646374 0.106111
C26_4 C 0.2587(13) 0.8008(10) 0.0793(5)
H20_4 H 0.184085 0.813426 0.101874
C27_4 C 0.3961(12) 0.8605(10) 0.0140(4)
C28_4 C 0.4772(12) 0.7656(10) 0.0157(4)
N3_3 N 0.1605(11) 0.9098(8) 0.5387(4)
C20_3 C 0.3659(13) 0.9983(10) 0.5639(5)
C21_3 C 0.4227(17) 0.8974(11) 0.5914(7)
H13_3 H 0.425298 0.911297 0.627792
H14_3 H 0.519546 0.881275 0.580568
H15_3 H 0.360301 0.834090 0.583625
C22_3 C 0.0366(13) 0.9182(10) 0.5570(5)
H22 H 0.052638 0.744435 0.493077
C23_3 C 0.9827(16) 0.0182(11) 0.5831(6)
H16_3 H 0.993129 0.007858 0.619688
H17_3 H 0.881550 0.029550 0.573572
O2_2 O 0.2125(9) 0.0580(7) 0.9729(3)
O3_3 O 0.3040(10) 0.2141(10) 0.7482(3)
C1_3 C 0.1221(13) 0.0580(9) 0.9364(4)
C2_3 C 0.1766(12) 0.0915(10) 0.8855(4)
C3_3 C 0.0808(13) 0.0833(12) 0.8431(5)
C4_3 C 0.1242(14) 0.1250(12) 0.7968(5)
H2_3 H 0.061641 0.121693 0.767834
C5_3 C 0.2568(15) 0.1705(12) 0.7937(5)
C6_3 C 0.3528(13) 0.1769(11) 0.8344(5)
H3_3 H 0.444702 0.209115 0.831360
C7_3 C 0.3095(14) 0.1342(11) 0.8804(5)
H4_3 H 0.374578 0.135002 0.908708
C8_3 C 0.2033(14) 0.2674(12) 0.7165(5)
C9_3 C 0.1067(15) 0.3438(13) 0.7359(5)
H5_3 H 0.110383 0.360665 0.770934
C10_3 C 0.0061(16) 0.3947(13) 0.7041(5)
C11_3 C 0.0061(14) 0.3722(11) 0.6524(5)
C12_3 C 0.1087(15) 0.3045(11) 0.6333(5)
H7_3 H 0.112601 0.294166 0.597882
C13_3 C 0.2075(13) 0.2506(11) 0.6657(5)
H8_3 H 0.277167 0.202653 0.652405
H21_3 H 0.582754 0.084581 0.010231
H22_2 H 0.447362 0.244435 0.006923
O6_2 O 0.7875(9) 0.9420(7) 0.0271(3)
O3_4 O 0.6960(10) 0.7859(10) 0.2518(3)
C1_4 C 0.8779(13) 0.9420(9) 0.0636(4)
C2_4 C 0.8234(12) 0.9085(10) 0.1145(4)
C3_4 C 0.9192(13) 0.9167(12) 0.1569(5)
C4_4 C 0.8758(14) 0.8750(12) 0.2032(5)
H2_4 H 0.938359 0.878307 0.232166
C5_4 C 0.7432(15) 0.8295(12) 0.2063(5)
C6_4 C 0.6472(13) 0.8231(11) 0.1656(5)
H3_4 H 0.555298 0.790885 0.168640
C7_4 C 0.6905(14) 0.8658(11) 0.1196(5)
H4_4 H 0.625422 0.864998 0.091292
C8_4 C 0.7967(14) 0.7326(12) 0.2835(5)
C9_4 C 0.8933(15) 0.6562(13) 0.2641(5)
H5_4 H 0.889617 0.639335 0.229066
C10_4 C 0.9939(16) 0.6053(13) 0.2959(5)
C11_4 C 0.9939(14) 0.6278(11) 0.3476(5)
C12_4 C 0.8913(15) 0.6955(11) 0.3667(5)
H7_4 H 0.887399 0.705834 0.402118
C13_4 C 0.7925(13) 0.7494(11) 0.3343(5)
H8_4 H 0.722833 0.797347 0.347595
C23_4 C 0.0173(16) 0.9818(11) 0.4169(6)
H16_4 H 0.006871 0.992142 0.380312
H17_4 H 0.118450 0.970450 0.426428
N3_4 N 0.8395(11) 0.0902(8) 0.4613(4)
C20_4 C 0.6341(13) 0.0017(10) 0.4361(5)
C21_4 C 0.5773(17) 0.1026(11) 0.4086(7)
H13_4 H 0.574702 0.088703 0.372208
H14_4 H 0.480454 0.118725 0.419432
H15_4 H 0.639699 0.165910 0.416375
C22_4 C 0.9634(13) 0.0818(10) 0.4430(5)
H22_3 H 0.947362 0.255565 0.506923
H21_4 H 0.417246 0.915419 0.989769
H22_4 H 0.552638 0.755565 0.993077
loop_
_geom_bond_atom_site_label_1
_geom_bond_atom_site_label_2
_geom_bond_site_symmetry_1
_geom_bond_site_symmetry_2
Co1 O1 1_555 1_555
O1 C1 1_555 1_555
O2 C1 1_555 1_555
O3 C5 1_555 1_555
O4 C14 1_555 1_555
O5 C14 1_555 1_555
N1 Co1 1_555 1_555
C1 C2 1_555 1_555
C2 C3 1_555 1_555
C3 H1 1_555 1_555
C4 C3 1_555 1_555
H2 C4 1_555 1_555
C5 C4 1_555 1_555
C6 C5 1_555 1_555
H3 C6 1_555 1_555
C7 C2 1_555 1_555
H4 C7 1_555 1_555
C8 O3 1_555 1_555
C9 C8 1_555 1_555
H5 C9 1_555 1_555
C10 C9 1_555 1_555
H6 C10 1_555 1_555
C11 C10 1_555 1_555
C12 C11 1_555 1_555
H7 C12 1_555 1_555
C13 C8 1_555 1_555
H8 C13 1_555 1_555
C14 C11 1_555 1_555
C15 N1 1_555 1_555
H9 C15 1_555 1_555
C16 C15 1_555 1_555
H10 C16 1_555 1_555
C17 C16 1_555 1_555
C18 C17 1_555 1_555
H11 C18 1_555 1_555
C19 N1 1_555 1_555
H12 C19 1_555 1_555
Co3 O4 1_555 1_555
Co4 O2 1_555 1_555
O6 Co1 1_555 1_555
O7 Co1 1_555 1_555
O8 Co1 1_555 1_555
N5 Co1 1_555 1_555
O5 Co3 1_555 1_555
C6 C7 1_555 1_555
C12 C13 1_555 1_555
C18 C19 1_555 1_555
N5 C26 1_555 1_555
C25 C24 1_555 1_555
H19 C25 1_555 1_555
C26 C25 1_555 1_555
H20 C26 1_555 1_555
C27 N5 1_555 1_555
H21 C27 1_555 1_555
C28 C24 1_555 1_555
C27 C28 1_555 1_555
N2_2 N3 1_555 1_555
N3 C22 1_555 1_555
N4 C26_2 1_555 1_555
H9_2 C15_2 1_555 1_555
C16_2 C15_2 1_555 1_555
H10_2 C16_2 1_555 1_555
C17_2 C16_2 1_555 1_555
C20 N2_2 1_555 1_555
C21 C20 1_555 1_555
H13 C21 1_555 1_555
H15 C21 1_555 1_555
C22 C23 1_555 1_555
C23 H16 1_555 1_555
H17 C23 1_555 1_555
H18_2 C23 1_555 1_555
C24_2 C22 1_555 1_555
C25_2 C24_2 1_555 1_555
H19_2 C25_2 1_555 1_555
C26_2 C25_2 1_555 1_555
H20_2 C26_2 1_555 1_555
C27_2 N4 1_555 1_555
C28_2 C24_2 1_555 1_555
C17_2 C20 1_555 1_555
C27_2 C28_2 1_555 1_555
O7 C14_2 1_555 1_555
O8 C14_2 1_555 1_555
N1_2 Co3 1_555 1_555
H11_2 C18_2 1_555 1_555
C19_2 N1_2 1_555 1_555
H12_2 C19_2 1_555 1_555
C18_2 C19_2 1_555 1_555
N4_2 C26_3 1_555 1_555
C25_3 C24_3 1_555 1_555
H19_3 C25_3 1_555 1_555
C26_3 C25_3 1_555 1_555
H20_3 C26_3 1_555 1_555
C27_3 N4_2 1_555 1_555
H21_2 C27_3 1_555 1_555
C28_3 C24_3 1_555 1_555
Co4 N4_2 1_555 1_555
C27_3 C28_3 1_555 1_555
Co4 O1_3 1_555 1_555
O1_3 C1_2 1_555 1_555
O6 C1_2 1_555 1_555
O3_2 C5_2 1_555 1_555
O4_2 C14_3 1_555 1_555
O5_2 C14_3 1_555 1_555
N1_3 Co4 1_555 1_555
C1_2 C2_2 1_555 1_555
C2_2 C3_2 1_555 1_555
C3_2 H1_3 1_555 1_555
C4_2 C3_2 1_555 1_555
H2_2 C4_2 1_555 1_555
C5_2 C4_2 1_555 1_555
C6_2 C5_2 1_555 1_555
H3_2 C6_2 1_555 1_555
C7_2 C2_2 1_555 1_555
H4_2 C7_2 1_555 1_555
C8_2 O3_2 1_555 1_555
C9_2 C8_2 1_555 1_555
H5_2 C9_2 1_555 1_555
C10_2 C9_2 1_555 1_555
H6_3 C10_2 1_555 1_555
C11_2 C10_2 1_555 1_555
C12_2 C11_2 1_555 1_555
H7_2 C12_2 1_555 1_555
C13_2 C8_2 1_555 1_555
H8_2 C13_2 1_555 1_555
C14_3 C11_2 1_555 1_555
C15_3 N1_3 1_555 1_555
H9_3 C15_3 1_555 1_555
C16_3 C15_3 1_555 1_555
H10_3 C16_3 1_555 1_555
C17_3 C16_3 1_555 1_555
C18_3 C17_3 1_555 1_555
H11_3 C18_3 1_555 1_555
C19_3 N1_3 1_555 1_555
H12_3 C19_3 1_555 1_555
Co4_2 O4_2 1_555 1_555
O7_2 Co4 1_555 1_555
O8_2 Co4 1_555 1_555
O5_2 Co4_2 1_555 1_555
C6_2 C7_2 1_555 1_555
C12_2 C13_2 1_555 1_555
C18_3 C19_3 1_555 1_555
N1_4 Co4_2 1_555 1_555
H11_4 C18_4 1_555 1_555
C19_4 N1_4 1_555 1_555
H12_4 C19_4 1_555 1_555
C18_4 C19_4 1_555 1_555
O7_2 C14_4 1_555 1_555
O8_2 C14_4 1_555 1_555
N2_4 N3_2 1_555 1_555
N3_2 C22_2 1_555 1_555
N5_2 C26_4 1_555 1_555
H9_4 C15_4 1_555 1_555
C16_4 C15_4 1_555 1_555
H10_4 C16_4 1_555 1_555
C17_4 C16_4 1_555 1_555
C20_2 N2_4 1_555 1_555
C21_2 C20_2 1_555 1_555
H13_2 C21_2 1_555 1_555
H15_2 C21_2 1_555 1_555
C22_2 C23_2 1_555 1_555
C23_2 H16_2 1_555 1_555
H17_2 C23_2 1_555 1_555
H18_4 C23_2 1_555 1_555
C24_4 C22_2 1_555 1_555
C25_4 C24_4 1_555 1_555
H19_4 C25_4 1_555 1_555
C26_4 C25_4 1_555 1_555
H20_4 C26_4 1_555 1_555
C27_4 N5_2 1_555 1_555
C28_4 C24_4 1_555 1_555
C17_4 C20_2 1_555 1_555
C27_4 C28_4 1_555 1_555
N3_3 C22_3 1_555 1_555
C21_3 C20_3 1_555 1_555
H13_3 C21_3 1_555 1_555
H14_3 C21_3 1_555 1_555
H15_3 C21_3 1_555 1_555
C23_3 H16_3 1_555 1_555
H17_3 C23_3 1_555 1_555
O2_2 C1_3 1_555 1_555
O3_3 C5_3 1_555 1_555
C1_3 C2_3 1_555 1_555
C2_3 C3_3 1_555 1_555
C4_3 C3_3 1_555 1_555
H2_3 C4_3 1_555 1_555
C5_3 C4_3 1_555 1_555
C6_3 C5_3 1_555 1_555
H3_3 C6_3 1_555 1_555
C7_3 C2_3 1_555 1_555
H4_3 C7_3 1_555 1_555
C8_3 O3_3 1_555 1_555
C9_3 C8_3 1_555 1_555
H5_3 C9_3 1_555 1_555
C10_3 C9_3 1_555 1_555
C11_3 C10_3 1_555 1_555
C12_3 C11_3 1_555 1_555
H7_3 C12_3 1_555 1_555
C13_3 C8_3 1_555 1_555
H8_3 C13_3 1_555 1_555
C6_3 C7_3 1_555 1_555
C12_3 C13_3 1_555 1_555
O6_2 C1_4 1_555 1_555
O3_4 C5_4 1_555 1_555
C1_4 C2_4 1_555 1_555
C2_4 C3_4 1_555 1_555
C4_4 C3_4 1_555 1_555
H2_4 C4_4 1_555 1_555
C5_4 C4_4 1_555 1_555
C6_4 C5_4 1_555 1_555
H3_4 C6_4 1_555 1_555
C7_4 C2_4 1_555 1_555
H4_4 C7_4 1_555 1_555
C8_4 O3_4 1_555 1_555
C9_4 C8_4 1_555 1_555
H5_4 C9_4 1_555 1_555
C10_4 C9_4 1_555 1_555
C11_4 C10_4 1_555 1_555
C12_4 C11_4 1_555 1_555
H7_4 C12_4 1_555 1_555
C13_4 C8_4 1_555 1_555
H8_4 C13_4 1_555 1_555
C6_4 C7_4 1_555 1_555
C12_4 C13_4 1_555 1_555
C23_4 H16_4 1_555 1_555
H17_4 C23_4 1_555 1_555
N3_4 C22_4 1_555 1_555
C21_4 C20_4 1_555 1_555
H13_4 C21_4 1_555 1_555
H14_4 C21_4 1_555 1_555
H15_4 C21_4 1_555 1_555

#END
