
###############################################################################
#
# This file contains modified crystal structure data generated from the
# MOF subset of the Cambridge Structural Database (CSD) v543 
# hosted by the Cambridge Crystallographic Data Centre (CCDC).
#
# This work is licensed under the Creative Commons
# Attribution-NonCommercial-ShareAlike 4.0 International License.
# To view a copy of this license, visit
# http://creativecommons.org/licenses/by-nc-sa/4.0/
# or send a letter to
# Creative Commons, PO Box 1866, Mountain View, CA 94042, USA.
#
# CIF created using the CSD Python API on 29 September 2022
# The structure has been converted into the P1 space group
# The structure has a 3D framework
# The original CSD entry TEBDEM is in the monoclinic crystal system
# The framework has been calculated to contain at least 10.0% void space
# The void calculation uses a probe of radius 1.32A, grid spacing 0.4
#
###############################################################################

data_TEBDEM
_chemical_formula_moiety         '(C40 H16 Mn4 N24 O16)n'
_symmetry_cell_setting           triclinic
_symmetry_space_group_name_H-M   'P 1'
_symmetry_Int_Tables_number      1
_space_group_name_Hall           'P 1'
loop_
_symmetry_equiv_pos_site_id
_symmetry_equiv_pos_as_xyz
1 x,y,z
_cell_length_a                   11.1143(6)
_cell_length_b                   10.0580(5)
_cell_length_c                   13.9476(8)
_cell_angle_alpha                90
_cell_angle_beta                 91.649(5)
_cell_angle_gamma                90
_cell_volume                     1558.52
loop_
_atom_site_label
_atom_site_type_symbol
_atom_site_fract_x
_atom_site_fract_y
_atom_site_fract_z
O2 O 0.70574(19) 0.3964(2) 0.06952(15)
C3 C 0.6127(3) 0.4449(3) 0.0327(2)
C7 C 0.0502(3) 0.3771(3) 0.0358(2)
C9 C 0.1650(3) 0.2341(3) 0.1502(2)
H3 H 0.1990 0.3006 0.1886
C10 C 0.1133(4) 0.0499(3) 0.0920(3)
N4 N 0.0972(2) 0.2550(2) 0.07216(17)
N5 N 0.0622(4) 0.1364(3) 0.0340(2)
N6 N 0.1775(2) 0.1048(2) 0.16582(17)
O5 O 0.57853(19) 0.5514(2) 0.18216(15)
C11 C 0.4244(3) 0.5742(3) 0.0632(2)
C12 C 0.5349(3) 0.5291(3) 0.0992(2)
C14 C 0.3592(3) 0.7726(3) 0.1543(2)
H5 H 0.4225 0.8289 0.1398
C15 C 0.2005(3) 0.6951(4) 0.2072(3)
H6 H 0.1285 0.6892 0.2393
N7 N 0.3484(2) 0.6487(2) 0.12418(18)
N8 N 0.2447(3) 0.5949(3) 0.1574(3)
N9 N 0.2680(2) 0.8057(3) 0.20767(16)
Mn5 Mn 0.76172(4) 0.48932(4) 0.21007(3)
Mn7 Mn 0.23828(4) 0.98932(4) 0.28993(3)
Mn1 Mn 0.23828(4) 0.51068(4) 0.78993(3)
O1 O 0.42147(19) 0.4486(2) 0.81784(15)
C1 C 0.5756(3) 0.4258(3) 0.9368(2)
C2 C 0.4651(3) 0.4709(3) 0.9008(2)
C4 C 0.6408(3) 0.2274(3) 0.8457(2)
H1 H 0.5775 0.1711 0.8602
C5 C 0.7995(3) 0.3049(4) 0.7928(3)
H2 H 0.8715 0.3108 0.7607
N1 N 0.6516(2) 0.3513(2) 0.87582(18)
N2 N 0.7553(3) 0.4051(3) 0.8426(3)
N3 N 0.7320(2) 0.1943(3) 0.79233(16)
O4 O 0.1616(2) 0.3680(2) 0.89416(14)
C8 C 0.0864(3) 0.4236(3) 0.9463(2)
O6 O 0.29426(19) 0.6036(2) 0.93048(15)
C13 C 0.3873(3) 0.5551(3) 0.9673(2)
O7 O 0.06470(18) 0.5932(2) 0.82857(14)
C16 C 0.0317(3) 0.5550(3) 0.9090(2)
Mn4 Mn 0.76172(4) 0.01068(4) 0.71007(3)
N13 N 0.2680(2) 0.6943(3) 0.70767(16)
N16 N 0.1775(2) 0.3952(2) 0.66582(17)
H4 H 0.1062 0.9585 0.0833
H8 H 0.8938 0.0415 0.9167
O3 O 0.93530(18) 0.4068(2) 0.17143(14)
C6 C 0.9683(3) 0.4450(3) 0.0910(2)
O8 O 0.8384(2) 0.6320(2) 0.10584(14)
C18 C 0.9136(3) 0.5764(3) 0.0537(2)
N14 N 0.7320(2) 0.3057(3) 0.29233(16)
N15 N 0.8225(2) 0.6048(2) 0.33418(17)
C17 C 0.9498(3) 0.6229(3) 0.9642(2)
C19 C 0.8350(3) 0.7659(3) 0.8498(2)
H7 H 0.8010 0.6994 0.8114
C20 C 0.8867(4) 0.9501(3) 0.9080(3)
N10 N 0.9028(2) 0.7450(2) 0.92784(17)
N11 N 0.9378(4) 0.8636(3) 0.9660(2)
N12 N 0.8225(2) 0.8952(2) 0.83418(17)
O8_2 O 0.1616(2) 0.1320(2) 0.39416(14)
C17_2 C 0.0502(3) 0.1229(3) 0.5358(2)
C18_2 C 0.0864(3) 0.0764(3) 0.4463(2)
C19_2 C 0.1650(3) 0.2659(3) 0.6502(2)
H7_2 H 0.1990 0.1994 0.6886
C20_2 C 0.1133(4) 0.4501(3) 0.5920(3)
H8_2 H 0.1062 0.5415 0.5833
N10_2 N 0.0972(2) 0.2450(2) 0.57216(17)
N11_2 N 0.0622(4) 0.3636(3) 0.5340(2)
O9 O 0.42147(19) 0.0514(2) 0.31784(15)
O3_2 O 0.06470(18) 0.9068(2) 0.32857(14)
C6_2 C 0.0317(3) 0.9450(3) 0.4090(2)
O10 O 0.29426(19) 0.8964(2) 0.43048(15)
O6_2 O 0.70574(19) 0.1036(2) 0.56952(15)
C11_2 C 0.5756(3) 0.0742(3) 0.4368(2)
C12_2 C 0.4651(3) 0.0291(3) 0.4008(2)
C13_2 C 0.6127(3) 0.0551(3) 0.5327(2)
C14_2 C 0.6408(3) 0.2726(3) 0.3457(2)
H5_2 H 0.5775 0.3289 0.3602
C15_2 C 0.7995(3) 0.1951(4) 0.2928(3)
H6_2 H 0.8715 0.1892 0.2607
N7_2 N 0.6516(2) 0.1487(2) 0.37582(18)
N8_2 N 0.7553(3) 0.0949(3) 0.3426(3)
O7_2 O 0.93530(18) 0.0932(2) 0.67143(14)
C16_2 C 0.9683(3) 0.0550(3) 0.5910(2)
O1_2 O 0.57853(19) 0.9486(2) 0.68216(15)
C1_2 C 0.4244(3) 0.9258(3) 0.5632(2)
C2_2 C 0.5349(3) 0.9709(3) 0.5992(2)
C3_2 C 0.3873(3) 0.9449(3) 0.4673(2)
C4_2 C 0.3592(3) 0.7274(3) 0.6543(2)
H1_2 H 0.4225 0.6711 0.6398
C5_2 C 0.2005(3) 0.8049(4) 0.7072(3)
H2_2 H 0.1285 0.8108 0.7393
N1_2 N 0.3484(2) 0.8513(2) 0.62418(18)
N2_2 N 0.2447(3) 0.9051(3) 0.6574(3)
O4_2 O 0.8384(2) 0.8680(2) 0.60584(14)
C7_2 C 0.9498(3) 0.8771(3) 0.4642(2)
C8_2 C 0.9136(3) 0.9236(3) 0.5537(2)
C9_2 C 0.8350(3) 0.7341(3) 0.3498(2)
H3_2 H 0.8010 0.8006 0.3114
C10_2 C 0.8867(4) 0.5499(3) 0.4080(3)
H4_2 H 0.8938 0.4585 0.4167
N4_2 N 0.9028(2) 0.7550(2) 0.42784(17)
N5_2 N 0.9378(4) 0.6364(3) 0.4660(2)
loop_
_geom_bond_atom_site_label_1
_geom_bond_atom_site_label_2
_geom_bond_site_symmetry_1
_geom_bond_site_symmetry_2
O2 C3 1_555 1_555
C9 H3 1_555 1_555
N4 C7 1_555 1_555
N5 C10 1_555 1_555
N6 C9 1_555 1_555
O5 C12 1_555 1_555
C11 C12 1_555 1_555
C12 C3 1_555 1_555
C14 H5 1_555 1_555
C15 H6 1_555 1_555
N7 C11 1_555 1_555
N8 C15 1_555 1_555
N9 C14 1_555 1_555
Mn5 O2 1_555 1_555
Mn7 N9 1_555 1_555
C9 N4 1_555 1_555
C10 N6 1_555 1_555
N4 N5 1_555 1_555
O5 Mn5 1_555 1_555
C14 N7 1_555 1_555
C15 N9 1_555 1_555
N7 N8 1_555 1_555
Mn1 O1 1_555 1_555
O1 C2 1_555 1_555
C1 C2 1_555 1_555
C2 C13 1_555 1_555
C4 H1 1_555 1_555
C5 H2 1_555 1_555
N1 C1 1_555 1_555
N2 C5 1_555 1_555
N3 C4 1_555 1_555
O4 Mn1 1_555 1_555
C8 O4 1_555 1_555
O6 Mn1 1_555 1_555
C13 O6 1_555 1_555
O7 Mn1 1_555 1_555
C16 C8 1_555 1_555
Mn4 N3 1_555 1_555
N13 Mn1 1_555 1_555
N16 Mn1 1_555 1_555
C4 N1 1_555 1_555
C5 N3 1_555 1_555
N1 N2 1_555 1_555
O7 C16 1_555 1_555
O3 C6 1_555 1_555
O8 C18 1_555 1_555
C18 C6 1_555 1_555
Mn5 O3 1_555 1_555
N14 Mn5 1_555 1_555
N15 Mn5 1_555 1_555
O8 Mn5 1_555 1_555
C19 H7 1_555 1_555
N10 C17 1_555 1_555
N11 C20 1_555 1_555
N12 C19 1_555 1_555
C19 N10 1_555 1_555
C20 N12 1_555 1_555
N10 N11 1_555 1_555
O8_2 C18_2 1_555 1_555
C19_2 H7_2 1_555 1_555
C20_2 H8_2 1_555 1_555
N10_2 C17_2 1_555 1_555
N11_2 C20_2 1_555 1_555
N16 C19_2 1_555 1_555
C17_2 C18_2 1_555 1_555
C19_2 N10_2 1_555 1_555
C20_2 N16 1_555 1_555
N10_2 N11_2 1_555 1_555
O3_2 C6_2 1_555 1_555
Mn7 O3_2 1_555 1_555
O10 Mn7 1_555 1_555
O9 C12_2 1_555 1_555
O6_2 Mn4 1_555 1_555
C11_2 C12_2 1_555 1_555
C13_2 O6_2 1_555 1_555
C14_2 H5_2 1_555 1_555
C15_2 H6_2 1_555 1_555
N7_2 C11_2 1_555 1_555
N8_2 C15_2 1_555 1_555
N14 C14_2 1_555 1_555
O7_2 Mn4 1_555 1_555
C11_2 C13_2 1_555 1_555
C14_2 N7_2 1_555 1_555
C15_2 N14 1_555 1_555
N7_2 N8_2 1_555 1_555
O7_2 C16_2 1_555 1_555
O1_2 C2_2 1_555 1_555
O10 C3_2 1_555 1_555
C1_2 C2_2 1_555 1_555
C3_2 C1_2 1_555 1_555
C4_2 H1_2 1_555 1_555
C5_2 H2_2 1_555 1_555
N1_2 C1_2 1_555 1_555
N2_2 C5_2 1_555 1_555
N13 C4_2 1_555 1_555
C7_2 C8_2 1_555 1_555
C8_2 O4_2 1_555 1_555
C9_2 H3_2 1_555 1_555
C10_2 H4_2 1_555 1_555
N4_2 C7_2 1_555 1_555
N5_2 C10_2 1_555 1_555
N15 C9_2 1_555 1_555
C4_2 N1_2 1_555 1_555
C5_2 N13 1_555 1_555
N1_2 N2_2 1_555 1_555
C9_2 N4_2 1_555 1_555
C10_2 N15 1_555 1_555
N4_2 N5_2 1_555 1_555

#END
