
###############################################################################
#
# This file contains modified crystal structure data generated from the
# MOF subset of the Cambridge Structural Database (CSD) v543 
# hosted by the Cambridge Crystallographic Data Centre (CCDC).
#
# This work is licensed under the Creative Commons
# Attribution-NonCommercial-ShareAlike 4.0 International License.
# To view a copy of this license, visit
# http://creativecommons.org/licenses/by-nc-sa/4.0/
# or send a letter to
# Creative Commons, PO Box 1866, Mountain View, CA 94042, USA.
#
# CIF created using the CSD Python API on 29 September 2022
# The structure has been converted into the P1 space group
# The structure has a 3D framework
# The original CSD entry TEBDIQ is in the triclinic crystal system
# The framework has been calculated to contain at least 10.0% void space
# The void calculation uses a probe of radius 1.32A, grid spacing 0.4
#
###############################################################################

data_TEBDIQ
_chemical_formula_moiety         '(C40 H28 Cl4 N8 O8 Zn2)n'
_symmetry_cell_setting           triclinic
_symmetry_space_group_name_H-M   'P 1'
_symmetry_Int_Tables_number      1
_space_group_name_Hall           'P 1'
loop_
_symmetry_equiv_pos_site_id
_symmetry_equiv_pos_as_xyz
1 x,y,z
_cell_length_a                   9.5064(10)
_cell_length_b                   10.1265(13)
_cell_length_c                   13.1676(15)
_cell_angle_alpha                106.664(11)
_cell_angle_beta                 109.835(10)
_cell_angle_gamma                94.359(10)
_cell_volume                     1121
loop_
_atom_site_label
_atom_site_type_symbol
_atom_site_fract_x
_atom_site_fract_y
_atom_site_fract_z
_atom_site_U_iso_or_equiv
_atom_site_thermal_displace_type
N7 N 0.5820(3) 0.2337(3) 0.7188(3) 0.0279 Uani
N8 N 0.4005(4) 0.1285(4) 0.5497(3) 0.0349 Uani
C34 C 0.4836(4) 0.1169(4) 0.6511(3) 0.0299 Uani
H22 H 0.4728 0.0366 0.6708 0.0360 Uiso
C35 C 0.5596(6) 0.3252(5) 0.6570(4) 0.0485 Uani
H23 H 0.6137 0.4165 0.6828 0.0580 Uiso
C36 C 0.4484(6) 0.2621(6) 0.5545(4) 0.0548 Uani
H24 H 0.4106 0.3013 0.4973 0.0660 Uiso
C37 C 0.2773(4) 0.0192(5) 0.4557(3) 0.0394 Uani
H25 H 0.2577 0.0401 0.3852 0.0470 Uiso
C38 C 0.1326(4) 0.0089(4) 0.4783(3) 0.0322 Uani
C40 C 0.0242(5) 0.0884(4) 0.4416(3) 0.0345 Uani
H28 H 0.0408 0.1478 0.4028 0.0420 Uiso
Zn5 Zn 0.75821(5) 0.26276(4) 0.87510(3) 0.0220 Uani
O2 O 0.5956(3) 0.2534(3) 0.9559(2) 0.0273 Uani
C3 C 0.5468(4) 0.3649(4) 0.9792(3) 0.0244 Uani
Cl3 Cl 0.66356(11) 0.75772(9) 0.96289(8) 0.0333 Uani
O5 O 0.7367(3) 0.4731(3) 0.9326(2) 0.0261 Uani
C21 C 0.6257(4) 0.4917(3) 0.9626(3) 0.0228 Uani
C22 C 0.5720(4) 0.6168(3) 0.9818(3) 0.0251 Uani
O7 O 0.0849(3) 0.7509(2) 0.96757(19) 0.0241 Uani
C26 C 0.0422(4) 0.8641(3) 0.9766(3) 0.0214 Uani
O8 O 0.7698(3) 0.0478(2) 0.83336(19) 0.0243 Uani
C24 C 0.8772(4) 0.0183(3) 0.9061(3) 0.0208 Uani
N2 N 0.9111(3) 0.5669(3) 0.2220(2) 0.0261 Uani
C8 C 0.9737(4) 0.7722(4) 0.2110(3) 0.0270 Uani
H2 H 0.9775 0.8657 0.2153 0.0320 Uiso
C9 C 0.8809(4) 0.7003(4) 0.2435(3) 0.0305 Uani
H3 H 0.8108 0.7344 0.2742 0.0370 Uiso
C10 C 0.8516(4) 0.4558(4) 0.2557(3) 0.0298 Uani
H4 H 0.8666 0.3663 0.2130 0.0360 Uiso
H5 H 0.7429 0.4510 0.2364 0.0360 Uiso
C11 C 0.9291(4) 0.4811(4) 0.3830(3) 0.0265 Uani
C12 C 0.8463(4) 0.4441(4) 0.4428(3) 0.0325 Uani
H6 H 0.7425 0.4068 0.4050 0.0390 Uiso
C13 C 0.9162(5) 0.4620(4) 0.5581(3) 0.0348 Uani
H7 H 0.8591 0.4357 0.5966 0.0420 Uiso
N5 N 0.9376(3) 0.3147(3) 0.8297(2) 0.0246 Uani
C27 C 0.9802(4) 0.4373(4) 0.8224(3) 0.0254 Uani
H15 H 0.9403 0.5167 0.8451 0.0300 Uiso
C19 C 0.1080(5) 0.9219(4) 0.5367(3) 0.0359 Uani
H13 H 0.1807 0.8699 0.5617 0.0430 Uiso
H26 H 0.3096 0.9293 0.4455 0.0470 Uiso
Cl4 Cl 0.83931(10) 0.75899(8) 0.75773(6) 0.0274 Uani
C25 C 0.9270(4) 0.8922(3) 0.8890(3) 0.0219 Uani
Cl2 Cl 0.16069(10) 0.24101(8) 0.24227(6) 0.0274 Uani
C5 C 0.0730(4) 0.1078(3) 0.1110(3) 0.0219 Uani
H12 H 0.6904 0.0707 0.5545 0.0470 Uiso
C39 C 0.8920(5) 0.0781(4) 0.4633(3) 0.0359 Uani
H27 H 0.8193 0.1301 0.4383 0.0430 Uiso
Zn1 Zn 0.24179(5) 0.73724(4) 0.12490(3) 0.0220 Uani
Cl1 Cl 0.33644(11) 0.24228(9) 0.03711(8) 0.0333 Uani
O1 O 0.2633(3) 0.5269(3) 0.0674(2) 0.0261 Uani
O4 O 0.2302(3) 0.9522(2) 0.16664(19) 0.0243 Uani
C1 C 0.3743(4) 0.5083(3) 0.0374(3) 0.0228 Uani
C2 C 0.4280(4) 0.3832(3) 0.0182(3) 0.0251 Uani
C4 C 0.1228(4) 0.9817(3) 0.0939(3) 0.0208 Uani
N1 N 0.0624(3) 0.6853(3) 0.1703(2) 0.0246 Uani
C7 C 0.0198(4) 0.5627(4) 0.1776(3) 0.0254 Uani
H1 H 0.0597 0.4833 0.1549 0.0300 Uiso
N3 N 0.4180(3) 0.7663(3) 0.2812(3) 0.0279 Uani
N4 N 0.5995(4) 0.8715(4) 0.4503(3) 0.0349 Uani
C14 C 0.5164(4) 0.8831(4) 0.3489(3) 0.0299 Uani
H8 H 0.5272 0.9634 0.3292 0.0360 Uiso
C15 C 0.4404(6) 0.6748(5) 0.3430(4) 0.0485 Uani
H9 H 0.3863 0.5835 0.3172 0.0580 Uiso
C16 C 0.5516(6) 0.7379(6) 0.4455(4) 0.0548 Uani
H10 H 0.5894 0.6987 0.5027 0.0660 Uiso
C17 C 0.7227(4) 0.9808(5) 0.5443(3) 0.0394 Uani
H11 H 0.7423 0.9599 0.6148 0.0470 Uiso
C18 C 0.8674(4) 0.9911(4) 0.5217(3) 0.0322 Uani
C20 C 0.9758(5) 0.9116(4) 0.5584(3) 0.0345 Uani
H14 H 0.9592 0.8522 0.5972 0.0420 Uiso
O6 O 0.4044(3) 0.7466(3) 0.0441(2) 0.0273 Uani
C23 C 0.4532(4) 0.6351(4) 0.0208(3) 0.0244 Uani
N6 N 0.0889(3) 0.4331(3) 0.7780(2) 0.0261 Uani
C28 C 0.0263(4) 0.2278(4) 0.7890(3) 0.0270 Uani
H16 H 0.0225 0.1343 0.7847 0.0320 Uiso
C29 C 0.1191(4) 0.2997(4) 0.7565(3) 0.0305 Uani
H17 H 0.1892 0.2656 0.7258 0.0370 Uiso
C30 C 0.1484(4) 0.5442(4) 0.7443(3) 0.0298 Uani
H18 H 0.1334 0.6337 0.7870 0.0360 Uiso
H19 H 0.2571 0.5490 0.7636 0.0360 Uiso
C31 C 0.0709(4) 0.5189(4) 0.6170(3) 0.0265 Uani
C32 C 0.1537(4) 0.5559(4) 0.5572(3) 0.0325 Uani
H20 H 0.2575 0.5932 0.5950 0.0390 Uiso
C33 C 0.0838(5) 0.5380(4) 0.4419(3) 0.0348 Uani
H21 H 0.1409 0.5643 0.4034 0.0420 Uiso
O3 O 0.9151(3) 0.2491(2) 0.03243(19) 0.0241 Uani
C6 C 0.9578(4) 0.1359(3) 0.0234(3) 0.0214 Uani
loop_
_atom_site_aniso_label
_atom_site_aniso_U_11
_atom_site_aniso_U_22
_atom_site_aniso_U_33
_atom_site_aniso_U_23
_atom_site_aniso_U_13
_atom_site_aniso_U_12
N7 0.0262 0.0323 0.0248 0.01 0.0082 0.0088
N8 0.0268 0.05 0.0247 0.0109 0.0074 0.007
C34 0.0258 0.0375 0.0248 0.0079 0.0094 0.0067
C35 0.048 0.044 0.046 0.026 0.001 0.003
C36 0.049 0.065 0.042 0.033 -0.003 -0.001
C37 0.0279 0.056 0.0264 0.0025 0.0105 0.006
C38 0.026 0.04 0.0227 0.0004 0.0082 0.0056
C40 0.0321 0.041 0.0274 0.0092 0.0092 0.0078
Zn5 0.0252 0.021 0.0203 0.00566 0.00924 0.00898
O2 0.0312 0.0249 0.032 0.0108 0.0169 0.0119
C3 0.0277 0.0238 0.0197 0.0053 0.0078 0.007
Cl3 0.0396 0.0262 0.0451 0.0155 0.0254 0.0101
O5 0.0269 0.0237 0.0308 0.0067 0.0156 0.0089
C21 0.0223 0.0245 0.0197 0.005 0.0073 0.0058
C22 0.0308 0.0214 0.0238 0.0062 0.0125 0.0044
O7 0.0293 0.0218 0.02 0.0045 0.009 0.0101
C26 0.0257 0.0195 0.0185 0.0022 0.0115 0.0032
O8 0.0269 0.0214 0.0213 0.0054 0.0058 0.0074
C24 0.0208 0.021 0.0193 0.0048 0.0079 0.0028
N2 0.0292 0.0292 0.0179 0.0047 0.0094 0.0044
C8 0.0315 0.0259 0.025 0.0054 0.0137 0.0109
C9 0.035 0.0317 0.026 0.0062 0.0149 0.0114
C10 0.0354 0.0307 0.02 0.0047 0.0108 0.0007
C11 0.033 0.0241 0.0198 0.0033 0.0108 0.0029
C12 0.0295 0.0378 0.0248 0.0072 0.0081 -0.0014
C13 0.033 0.045 0.0261 0.0104 0.0139 -0.0021
N5 0.0271 0.0244 0.0207 0.0049 0.0087 0.0073
C27 0.0296 0.0234 0.022 0.0046 0.0105 0.0069
C19 0.0303 0.041 0.029 0.0055 0.0062 0.0117
Cl4 0.035 0.0211 0.0184 0.0008 0.0053 0.0063
C25 0.0268 0.0197 0.0171 0.0038 0.0081 0.0031
Cl2 0.035 0.0211 0.0184 0.0008 0.0053 0.0063
C5 0.0268 0.0197 0.0171 0.0038 0.0081 0.0031
C39 0.0303 0.041 0.029 0.0055 0.0062 0.0117
Zn1 0.0252 0.021 0.0203 0.00566 0.00924 0.00898
Cl1 0.0396 0.0262 0.0451 0.0155 0.0254 0.0101
O1 0.0269 0.0237 0.0308 0.0067 0.0156 0.0089
O4 0.0269 0.0214 0.0213 0.0054 0.0058 0.0074
C1 0.0223 0.0245 0.0197 0.005 0.0073 0.0058
C2 0.0308 0.0214 0.0238 0.0062 0.0125 0.0044
C4 0.0208 0.021 0.0193 0.0048 0.0079 0.0028
N1 0.0271 0.0244 0.0207 0.0049 0.0087 0.0073
C7 0.0296 0.0234 0.022 0.0046 0.0105 0.0069
N3 0.0262 0.0323 0.0248 0.01 0.0082 0.0088
N4 0.0268 0.05 0.0247 0.0109 0.0074 0.007
C14 0.0258 0.0375 0.0248 0.0079 0.0094 0.0067
C15 0.048 0.044 0.046 0.026 0.001 0.003
C16 0.049 0.065 0.042 0.033 -0.003 -0.001
C17 0.0279 0.056 0.0264 0.0025 0.0105 0.006
C18 0.026 0.04 0.0227 0.0004 0.0082 0.0056
C20 0.0321 0.041 0.0274 0.0092 0.0092 0.0078
O6 0.0312 0.0249 0.032 0.0108 0.0169 0.0119
C23 0.0277 0.0238 0.0197 0.0053 0.0078 0.007
N6 0.0292 0.0292 0.0179 0.0047 0.0094 0.0044
C28 0.0315 0.0259 0.025 0.0054 0.0137 0.0109
C29 0.035 0.0317 0.026 0.0062 0.0149 0.0114
C30 0.0354 0.0307 0.02 0.0047 0.0108 0.0007
C31 0.033 0.0241 0.0198 0.0033 0.0108 0.0029
C32 0.0295 0.0378 0.0248 0.0072 0.0081 -0.0014
C33 0.033 0.045 0.0261 0.0104 0.0139 -0.0021
O3 0.0293 0.0218 0.02 0.0045 0.009 0.0101
C6 0.0257 0.0195 0.0185 0.0022 0.0115 0.0032
loop_
_geom_bond_atom_site_label_1
_geom_bond_atom_site_label_2
_geom_bond_site_symmetry_1
_geom_bond_site_symmetry_2
N7 C34 1_555 1_555
N8 C34 1_555 1_555
C34 H22 1_555 1_555
C35 N7 1_555 1_555
H23 C35 1_555 1_555
C36 N8 1_555 1_555
H24 C36 1_555 1_555
C37 N8 1_555 1_555
H25 C37 1_555 1_555
C40 C38 1_555 1_555
H28 C40 1_555 1_555
Zn5 N7 1_555 1_555
C35 C36 1_555 1_555
C37 C38 1_555 1_555
O2 C3 1_555 1_555
C3 C21 1_555 1_555
Cl3 C22 1_555 1_555
O5 C21 1_555 1_555
C21 C22 1_555 1_555
Zn5 O2 1_555 1_555
O5 Zn5 1_555 1_555
O7 C26 1_555 1_555
O8 C24 1_555 1_555
O8 Zn5 1_555 1_555
H2 C8 1_555 1_555
C9 N2 1_555 1_555
H3 C9 1_555 1_555
C10 N2 1_555 1_555
H4 C10 1_555 1_555
H5 C10 1_555 1_555
C11 C10 1_555 1_555
C12 C11 1_555 1_555
H6 C12 1_555 1_555
C13 C12 1_555 1_555
H7 C13 1_555 1_555
N5 C27 1_555 1_555
C27 H15 1_555 1_555
Zn5 N5 1_555 1_555
C8 C9 1_555 1_555
C19 H13 1_555 1_555
Cl4 C25 1_555 1_555
Cl2 C5 1_555 1_555
H27 C39 1_555 1_555
Zn1 O1 1_555 1_555
Cl1 C2 1_555 1_555
O1 C1 1_555 1_555
O4 Zn1 1_555 1_555
C1 C2 1_555 1_555
C4 O4 1_555 1_555
N1 Zn1 1_555 1_555
C7 N1 1_555 1_555
H1 C7 1_555 1_555
N3 Zn1 1_555 1_555
N4 C14 1_555 1_555
C14 N3 1_555 1_555
H8 C14 1_555 1_555
C15 N3 1_555 1_555
H9 C15 1_555 1_555
C16 N4 1_555 1_555
H10 C16 1_555 1_555
C17 N4 1_555 1_555
H11 C17 1_555 1_555
C18 C17 1_555 1_555
C20 C18 1_555 1_555
H14 C20 1_555 1_555
O6 Zn1 1_555 1_555
C23 C1 1_555 1_555
H16 C28 1_555 1_555
C29 N6 1_555 1_555
H17 C29 1_555 1_555
C30 N6 1_555 1_555
H18 C30 1_555 1_555
H19 C30 1_555 1_555
C32 C31 1_555 1_555
H20 C32 1_555 1_555
H21 C33 1_555 1_555
C15 C16 1_555 1_555
O6 C23 1_555 1_555
C28 C29 1_555 1_555
C30 C31 1_555 1_555
C32 C33 1_555 1_555
O3 C6 1_555 1_555

#END
