
###############################################################################
#
# This file contains modified crystal structure data generated from the
# MOF subset of the Cambridge Structural Database (CSD) v543 
# hosted by the Cambridge Crystallographic Data Centre (CCDC).
#
# This work is licensed under the Creative Commons
# Attribution-NonCommercial-ShareAlike 4.0 International License.
# To view a copy of this license, visit
# http://creativecommons.org/licenses/by-nc-sa/4.0/
# or send a letter to
# Creative Commons, PO Box 1866, Mountain View, CA 94042, USA.
#
# CIF created using the CSD Python API on 29 September 2022
# The structure has been converted into the P1 space group
# The structure has a 3D framework
# The original CSD entry TECDUE is in the monoclinic crystal system
# The framework has been calculated to contain at least 10.0% void space
# The void calculation uses a probe of radius 1.32A, grid spacing 0.4
#
###############################################################################

data_TECDUE
_chemical_formula_moiety         '(C144 H80 Co8 N16 O24)n'
_symmetry_cell_setting           triclinic
_symmetry_space_group_name_H-M   'P 1'
_symmetry_Int_Tables_number      1
_space_group_name_Hall           'P 1'
loop_
_symmetry_equiv_pos_site_id
_symmetry_equiv_pos_as_xyz
1 x,y,z
_cell_length_a                   24.676(3)
_cell_length_b                   24.192(3)
_cell_length_c                   10.5081(14)
_cell_angle_alpha                90
_cell_angle_beta                 109.576(5)
_cell_angle_gamma                90
_cell_volume                     5910.35
loop_
_atom_site_label
_atom_site_type_symbol
_atom_site_fract_x
_atom_site_fract_y
_atom_site_fract_z
Co4 Co -0.000000 0.42056(2) 0.250000
Co7 Co 0.000000 0.500000 0.500000
Co9 Co -0.000000 0.500000 0.000000
Co9_2 Co -0.000000 0.500000 1.000000
Co2 Co 0.500000 0.000000 0.500000
Co5 Co 0.500000 0.000000 0.000000
O11 O 0.44187(10) 0.03196(10) 0.6130(3)
O12 O 0.43286(11) 0.00117(15) 0.3053(3)
O14 O 0.51998(14) 0.08263(13) 0.4664(3)
Co5_2 Co 0.500000 0.000000 1.000000
Co1 Co 0.500000 0.92056(2) 0.250000
Co2_2 Co 0.500000 1.000000 0.500000
O1 O 0.05813(10) 0.46804(10) 0.3870(3)
O2 O 0.06714(11) 0.50117(15) 0.1947(3)
O3 O 0.48002(14) 0.91737(13) 0.5336(3)
O4 O 0.46107(11) 0.86982(11) 0.3374(3)
N1 N 0.3566(2) 0.7061(2) 0.7933(4)
N2 N 0.2889(2) 0.6325(2) 0.7674(4)
C1 C 0.13320(14) 0.53292(16) 0.4014(4)
C2 C 0.20627(19) 0.5998(2) 0.4091(4)
H1 H 0.224964 0.622594 0.362869
C3 C 0.36949(17) 0.75426(18) 0.6054(4)
C4 C 0.42760(15) 0.83391(16) 0.5074(4)
C5 C 0.39575(19) 0.79265(19) 0.4220(4)
H2 H 0.394390 0.791443 0.330567
C6 C 0.08302(14) 0.49903(16) 0.3219(4)
C7 C 0.2709(2) 0.6383(2) 0.6333(4)
C8 C 0.42950(16) 0.83552(19) 0.6421(4)
H3 H 0.450138 0.864018 0.700531
C9 C 0.22498(18) 0.60033(19) 0.5520(4)
C10 C 0.29537(17) 0.67925(19) 0.5746(4)
H4 H 0.282150 0.684427 0.479512
C11 C 0.3386(2) 0.7116(2) 0.6567(4)
C12 C 0.15239(16) 0.53179(18) 0.5415(4)
H5 H 0.134355 0.507922 0.587026
C13 C 0.36615(18) 0.75350(19) 0.4686(4)
H6 H 0.343671 0.726238 0.409014
C14 C 0.19757(18) 0.56512(19) 0.6157(4)
H7 H 0.210036 0.563903 0.711548
C15 C 0.40111(18) 0.79532(19) 0.6895(4)
H8 H 0.403405 0.795950 0.781588
C16 C 0.45888(15) 0.87771(16) 0.4566(4)
C17 C 0.3306(3) 0.6660(3) 0.8389(6)
H9 H 0.343502 0.660897 0.934018
C18 C 0.16153(18) 0.5668(2) 0.3368(4)
H10 H 0.149593 0.566952 0.240983
O5 O 0.94187(10) 0.46804(10) 0.1130(3)
O6 O 0.93286(11) 0.50117(15) 0.3053(3)
O8 O 0.53893(11) 0.86982(11) 0.1626(3)
C19 C 0.86680(14) 0.53292(16) 0.0986(4)
C20 C 0.79373(19) 0.5998(2) 0.0909(4)
H11 H 0.775036 0.622594 0.137131
C23 C 0.60425(19) 0.79265(19) 0.0780(4)
H12 H 0.605610 0.791443 0.169433
C24 C 0.91698(14) 0.49903(16) 0.1781(4)
H14 H 0.717850 0.684427 0.020488
C31 C 0.63385(18) 0.75350(19) 0.0314(4)
H16 H 0.656329 0.726238 0.090986
C34 C 0.54112(15) 0.87771(16) 0.0434(4)
C36 C 0.83847(18) 0.5668(2) 0.1632(4)
H20 H 0.850407 0.566952 0.259017
Co4_2 Co 1.000000 0.42056(2) 0.250000
Co5_3 Co 0.500000 1.000000 0.000000
Co7_2 Co 1.000000 0.500000 0.500000
Co9_3 Co 1.000000 0.500000 0.000000
O9 O 0.55813(10) 0.96804(10) 0.3870(3)
O10 O 0.44187(10) 0.96804(10) 0.1130(3)
O13 O 0.56714(11) 0.99883(15) 0.6947(3)
O7 O 0.51998(14) 0.91737(13) 0.9664(3)
N3 N 0.6434(2) 0.7061(2) 0.7067(4)
N4 N 0.7111(2) 0.6325(2) 0.7326(4)
C21 C 0.63051(17) 0.75426(18) 0.8946(4)
C22 C 0.57240(15) 0.83391(16) 0.9926(4)
C25 C 0.7291(2) 0.6383(2) 0.8667(4)
C26 C 0.57050(16) 0.83552(19) 0.8579(4)
H13 H 0.549862 0.864018 0.799469
C27 C 0.77502(18) 0.60033(19) 0.9480(4)
C28 C 0.70463(17) 0.67925(19) 0.9254(4)
C29 C 0.6614(2) 0.7116(2) 0.8433(4)
C30 C 0.84761(16) 0.53179(18) 0.9585(4)
H15 H 0.865645 0.507922 0.912974
C32 C 0.80243(18) 0.56512(19) 0.8843(4)
H17 H 0.789964 0.563903 0.788452
C33 C 0.59889(18) 0.79532(19) 0.8105(4)
H18 H 0.596595 0.795950 0.718412
C35 C 0.6694(3) 0.6660(3) 0.6611(6)
H19 H 0.656498 0.660897 0.565982
Co5_4 Co 0.500000 1.000000 1.000000
Co9_4 Co 1.000000 0.500000 1.000000
O12_2 O 0.56714(11) 0.00117(15) 0.1947(3)
O14_2 O 0.48002(14) 0.08263(13) 0.0336(3)
O11_2 O 0.55813(10) 0.03196(10) 0.8870(3)
O13_2 O 0.43286(11) 0.99883(15) 0.8053(3)
O8_2 O 0.03893(11) 0.36982(11) 0.1626(3)
C19_2 C 0.36680(14) 0.03292(16) 0.0986(4)
C20_2 C 0.29373(19) 0.0998(2) 0.0909(4)
H11_2 H 0.275036 0.122594 0.137131
C23_2 C 0.10425(19) 0.29265(19) 0.0780(4)
H12_2 H 0.105610 0.291443 0.169433
H14_2 H 0.217850 0.184427 0.020488
C31_2 C 0.13385(18) 0.25350(19) 0.0314(4)
H16_2 H 0.156329 0.226238 0.090986
C34_2 C 0.04112(15) 0.37771(16) 0.0434(4)
C36_2 C 0.33847(18) 0.0668(2) 0.1632(4)
H20_2 H 0.350407 0.066952 0.259017
O13_3 O 0.06714(11) 0.49883(15) 0.6947(3)
O14_3 O 0.01998(14) 0.58263(13) 0.4664(3)
O7_2 O 0.01998(14) 0.41737(13) 0.9664(3)
N3_2 N 0.1434(2) 0.2061(2) 0.7067(4)
N4_2 N 0.2111(2) 0.1325(2) 0.7326(4)
C21_2 C 0.13051(17) 0.25426(18) 0.8946(4)
C22_2 C 0.07240(15) 0.33391(16) 0.9926(4)
C25_2 C 0.2291(2) 0.1383(2) 0.8667(4)
C26_2 C 0.07050(16) 0.33552(19) 0.8579(4)
H13_2 H 0.049862 0.364018 0.799469
C27_2 C 0.27502(18) 0.10033(19) 0.9480(4)
C28_2 C 0.20463(17) 0.17925(19) 0.9254(4)
C29_2 C 0.1614(2) 0.2116(2) 0.8433(4)
C30_2 C 0.34761(16) 0.03179(18) 0.9585(4)
H15_2 H 0.365645 0.007922 0.912974
C32_2 C 0.30243(18) 0.06512(19) 0.8843(4)
H17_2 H 0.289964 0.063903 0.788452
C33_2 C 0.09889(18) 0.29532(19) 0.8105(4)
H18_2 H 0.096595 0.295950 0.718412
C35_2 C 0.1694(3) 0.1660(3) 0.6611(6)
H19_2 H 0.156498 0.160897 0.565982
C24_2 C 0.41698(14) 0.99903(16) 0.1781(4)
O3_2 O 0.98002(14) 0.41737(13) 0.5336(3)
O4_2 O 0.96107(11) 0.36982(11) 0.3374(3)
N1_2 N 0.8566(2) 0.2061(2) 0.7933(4)
N2_2 N 0.7889(2) 0.1325(2) 0.7674(4)
C1_2 C 0.63320(14) 0.03292(16) 0.4014(4)
C2_2 C 0.70627(19) 0.0998(2) 0.4091(4)
H1_2 H 0.724964 0.122594 0.362869
C3_2 C 0.86949(17) 0.25426(18) 0.6054(4)
C4_2 C 0.92760(15) 0.33391(16) 0.5074(4)
C5_2 C 0.89575(19) 0.29265(19) 0.4220(4)
H2_2 H 0.894390 0.291443 0.330567
C7_2 C 0.7709(2) 0.1383(2) 0.6333(4)
C8_2 C 0.92950(16) 0.33552(19) 0.6421(4)
H3_2 H 0.950138 0.364018 0.700531
C9_2 C 0.72498(18) 0.10033(19) 0.5520(4)
C10_2 C 0.79537(17) 0.17925(19) 0.5746(4)
H4_2 H 0.782150 0.184427 0.479512
C11_2 C 0.8386(2) 0.2116(2) 0.6567(4)
C12_2 C 0.65239(16) 0.03179(18) 0.5415(4)
H5_2 H 0.634355 0.007922 0.587026
C13_2 C 0.86615(18) 0.25350(19) 0.4686(4)
H6_2 H 0.843671 0.226238 0.409014
C14_2 C 0.69757(18) 0.06512(19) 0.6157(4)
H7_2 H 0.710036 0.063903 0.711548
C15_2 C 0.90111(18) 0.29532(19) 0.6895(4)
H8_2 H 0.903405 0.295950 0.781588
C16_2 C 0.95888(15) 0.37771(16) 0.4566(4)
C17_2 C 0.8306(3) 0.1660(3) 0.8389(6)
H9_2 H 0.843502 0.160897 0.934018
C18_2 C 0.66153(18) 0.0668(2) 0.3368(4)
H10_2 H 0.649593 0.066952 0.240983
O11_3 O 0.94187(10) 0.53196(10) 0.6130(3)
C6_2 C 0.58302(14) 0.99903(16) 0.3219(4)
O11_4 O 0.05813(10) 0.53196(10) 0.8870(3)
O14_4 O 0.98002(14) 0.58263(13) 0.0336(3)
O13_4 O 0.93286(11) 0.49883(15) 0.8053(3)
Co3 Co 0.000000 0.57944(2) 0.750000
N3_3 N 0.3566(2) 0.2939(2) 0.2933(4)
N4_3 N 0.2889(2) 0.3675(2) 0.2674(4)
C21_3 C 0.36949(17) 0.24574(18) 0.1054(4)
C22_3 C 0.42760(15) 0.16609(16) 0.0074(4)
C25_3 C 0.2709(2) 0.3617(2) 0.1333(4)
C26_3 C 0.42950(16) 0.16448(19) 0.1421(4)
H13_3 H 0.450138 0.135982 0.200531
C27_3 C 0.22498(18) 0.39967(19) 0.0520(4)
C28_3 C 0.29537(17) 0.32075(19) 0.0746(4)
C29_3 C 0.3386(2) 0.2884(2) 0.1567(4)
C30_3 C 0.15239(16) 0.46821(18) 0.0415(4)
H15_3 H 0.134355 0.492078 0.087026
C32_3 C 0.19757(18) 0.43488(19) 0.1157(4)
H17_3 H 0.210036 0.436097 0.211548
C33_3 C 0.40111(18) 0.20468(19) 0.1895(4)
H18_3 H 0.403405 0.204050 0.281588
C35_3 C 0.3306(3) 0.3340(3) 0.3389(6)
H19_3 H 0.343502 0.339103 0.434018
Co1_2 Co 0.500000 0.07944(2) 0.750000
O4_3 O 0.53893(11) 0.13018(11) 0.6626(3)
N1_3 N 0.6434(2) 0.2939(2) 0.2067(4)
N2_3 N 0.7111(2) 0.3675(2) 0.2326(4)
C1_3 C 0.86680(14) 0.46708(16) 0.5986(4)
C2_3 C 0.79373(19) 0.4002(2) 0.5909(4)
H1_3 H 0.775036 0.377406 0.637131
C3_3 C 0.63051(17) 0.24574(18) 0.3946(4)
C4_3 C 0.57240(15) 0.16609(16) 0.4926(4)
C5_3 C 0.60425(19) 0.20735(19) 0.5780(4)
H2_3 H 0.605610 0.208557 0.669433
C6_3 C 0.91698(14) 0.50097(16) 0.6781(4)
C7_3 C 0.7291(2) 0.3617(2) 0.3667(4)
C8_3 C 0.57050(16) 0.16448(19) 0.3579(4)
H3_3 H 0.549862 0.135982 0.299469
C9_3 C 0.77502(18) 0.39967(19) 0.4480(4)
C10_3 C 0.70463(17) 0.32075(19) 0.4254(4)
H4_3 H 0.717850 0.315573 0.520488
C11_3 C 0.6614(2) 0.2884(2) 0.3433(4)
C12_3 C 0.84761(16) 0.46821(18) 0.4585(4)
H5_3 H 0.865645 0.492078 0.412974
C13_3 C 0.63385(18) 0.24650(19) 0.5314(4)
H6_3 H 0.656329 0.273762 0.590986
C14_3 C 0.80243(18) 0.43488(19) 0.3843(4)
H7_3 H 0.789964 0.436097 0.288452
C15_3 C 0.59889(18) 0.20468(19) 0.3105(4)
H8_3 H 0.596595 0.204050 0.218412
C16_3 C 0.54112(15) 0.12229(16) 0.5434(4)
C17_3 C 0.6694(3) 0.3340(3) 0.1611(6)
H9_3 H 0.656498 0.339103 0.065982
C18_3 C 0.83847(18) 0.4332(2) 0.6632(4)
H10_3 H 0.850407 0.433048 0.759017
O8_3 O 0.46107(11) 0.13018(11) 0.8374(3)
C19_3 C 0.13320(14) 0.46708(16) 0.9014(4)
C20_3 C 0.20627(19) 0.4002(2) 0.9091(4)
H11_3 H 0.224964 0.377406 0.862869
C23_3 C 0.39575(19) 0.20735(19) 0.9220(4)
H12_3 H 0.394390 0.208557 0.830567
C24_3 C 0.08302(14) 0.50097(16) 0.8219(4)
H14_3 H 0.282150 0.315573 0.979512
C31_3 C 0.36615(18) 0.24650(19) 0.9686(4)
H16_3 H 0.343671 0.273762 0.909014
C34_3 C 0.45888(15) 0.12229(16) 0.9566(4)
C36_3 C 0.16153(18) 0.4332(2) 0.8368(4)
H20_3 H 0.149593 0.433048 0.740983
Co3_2 Co 1.000000 0.57944(2) 0.750000
C6_4 C 0.41698(14) 0.00097(16) 0.6781(4)
O4_4 O 0.03893(11) 0.63018(11) 0.6626(3)
N1_4 N 0.1434(2) 0.7939(2) 0.2067(4)
N2_4 N 0.2111(2) 0.8675(2) 0.2326(4)
C1_4 C 0.36680(14) 0.96708(16) 0.5986(4)
C2_4 C 0.29373(19) 0.9002(2) 0.5909(4)
H1_4 H 0.275036 0.877406 0.637131
C3_4 C 0.13051(17) 0.74574(18) 0.3946(4)
C4_4 C 0.07240(15) 0.66609(16) 0.4926(4)
C5_4 C 0.10425(19) 0.70735(19) 0.5780(4)
H2_4 H 0.105610 0.708557 0.669433
C7_4 C 0.2291(2) 0.8617(2) 0.3667(4)
C8_4 C 0.07050(16) 0.66448(19) 0.3579(4)
H3_4 H 0.049862 0.635982 0.299469
C9_4 C 0.27502(18) 0.89967(19) 0.4480(4)
C10_4 C 0.20463(17) 0.82075(19) 0.4254(4)
H4_4 H 0.217850 0.815573 0.520488
C11_4 C 0.1614(2) 0.7884(2) 0.3433(4)
C12_4 C 0.34761(16) 0.96821(18) 0.4585(4)
H5_4 H 0.365645 0.992078 0.412974
C13_4 C 0.13385(18) 0.74650(19) 0.5314(4)
H6_4 H 0.156329 0.773762 0.590986
C14_4 C 0.30243(18) 0.93488(19) 0.3843(4)
H7_4 H 0.289964 0.936097 0.288452
C15_4 C 0.09889(18) 0.70468(19) 0.3105(4)
H8_4 H 0.096595 0.704050 0.218412
C16_4 C 0.04112(15) 0.62229(16) 0.5434(4)
C17_4 C 0.1694(3) 0.8340(3) 0.1611(6)
H9_4 H 0.156498 0.839103 0.065982
C18_4 C 0.33847(18) 0.9332(2) 0.6632(4)
H10_4 H 0.350407 0.933048 0.759017
C24_4 C 0.58302(14) 0.00097(16) 0.8219(4)
N3_4 N 0.8566(2) 0.7939(2) 0.2933(4)
N4_4 N 0.7889(2) 0.8675(2) 0.2674(4)
C21_4 C 0.86949(17) 0.74574(18) 0.1054(4)
C22_4 C 0.92760(15) 0.66609(16) 0.0074(4)
C25_4 C 0.7709(2) 0.8617(2) 0.1333(4)
C26_4 C 0.92950(16) 0.66448(19) 0.1421(4)
H13_4 H 0.950138 0.635982 0.200531
C27_4 C 0.72498(18) 0.89967(19) 0.0520(4)
C28_4 C 0.79537(17) 0.82075(19) 0.0746(4)
C29_4 C 0.8386(2) 0.7884(2) 0.1567(4)
C30_4 C 0.65239(16) 0.96821(18) 0.0415(4)
H15_4 H 0.634355 0.992078 0.087026
C32_4 C 0.69757(18) 0.93488(19) 0.1157(4)
H17_4 H 0.710036 0.936097 0.211548
C33_4 C 0.90111(18) 0.70468(19) 0.1895(4)
H18_4 H 0.903405 0.704050 0.281588
C35_4 C 0.8306(3) 0.8340(3) 0.3389(6)
H19_4 H 0.843502 0.839103 0.434018
O8_4 O 0.96107(11) 0.63018(11) 0.8374(3)
C19_4 C 0.63320(14) 0.96708(16) 0.9014(4)
C20_4 C 0.70627(19) 0.9002(2) 0.9091(4)
H11_4 H 0.724964 0.877406 0.862869
C23_4 C 0.89575(19) 0.70735(19) 0.9220(4)
H12_4 H 0.894390 0.708557 0.830567
H14_4 H 0.782150 0.815573 0.979512
C31_4 C 0.86615(18) 0.74650(19) 0.9686(4)
H16_4 H 0.843671 0.773762 0.909014
C34_4 C 0.95888(15) 0.62229(16) 0.9566(4)
C36_4 C 0.66153(18) 0.9332(2) 0.8368(4)
H20_4 H 0.649593 0.933048 0.740983
loop_
_geom_bond_atom_site_label_1
_geom_bond_atom_site_label_2
_geom_bond_site_symmetry_1
_geom_bond_site_symmetry_2
O11 Co2 1_555 1_555
O12 Co2 1_555 1_555
O14 Co2 1_555 1_555
Co1 O4 1_555 1_555
Co2_2 O3 1_555 1_555
O1 C6 1_555 1_555
O2 C6 1_555 1_555
O3 C16 1_555 1_555
O4 C16 1_555 1_555
N1 C11 1_555 1_555
N2 C7 1_555 1_555
C1 C6 1_555 1_555
C2 H1 1_555 1_555
C3 C11 1_555 1_555
C4 C5 1_555 1_555
C5 H2 1_555 1_555
C7 C9 1_555 1_555
C8 C4 1_555 1_555
H3 C8 1_555 1_555
C9 C2 1_555 1_555
C10 C7 1_555 1_555
H4 C10 1_555 1_555
C11 C10 1_555 1_555
C12 C1 1_555 1_555
H5 C12 1_555 1_555
C13 C3 1_555 1_555
H6 C13 1_555 1_555
C14 C9 1_555 1_555
H7 C14 1_555 1_555
C15 C3 1_555 1_555
H8 C15 1_555 1_555
C16 C4 1_555 1_555
C17 N1 1_555 1_555
H9 C17 1_555 1_555
C18 C1 1_555 1_555
H10 C18 1_555 1_555
O5 C24 1_555 1_555
O6 C24 1_555 1_555
O8 Co1 1_555 1_555
C19 C24 1_555 1_555
C20 H11 1_555 1_555
C23 H12 1_555 1_555
H16 C31 1_555 1_555
C34 O8 1_555 1_555
C36 C19 1_555 1_555
H20 C36 1_555 1_555
Co4 O1 1_555 1_555
Co4_2 O5 1_555 1_555
Co7 O1 1_555 1_555
Co7_2 O6 1_555 1_555
Co9 O2 1_555 1_555
Co9_3 O5 1_555 1_555
O9 Co1 1_555 1_555
O10 Co1 1_555 1_555
O13 Co2_2 1_555 1_555
Co2_2 O9 1_555 1_555
N2 C17 1_555 1_555
C2 C18 1_555 1_555
C5 C13 1_555 1_555
C8 C15 1_555 1_555
C12 C14 1_555 1_555
C20 C36 1_555 1_555
C23 C31 1_555 1_555
Co5_3 O10 1_555 1_555
N3 C29 1_555 1_555
N4 C25 1_555 1_555
C21 C29 1_555 1_555
C25 C27 1_555 1_555
C26 C22 1_555 1_555
H13 C26 1_555 1_555
C28 C25 1_555 1_555
C29 C28 1_555 1_555
H15 C30 1_555 1_555
C32 C27 1_555 1_555
H17 C32 1_555 1_555
C33 C21 1_555 1_555
H18 C33 1_555 1_555
C35 N3 1_555 1_555
H19 C35 1_555 1_555
Co5_4 O7 1_555 1_555
N4 C35 1_555 1_555
C26 C33 1_555 1_555
C30 C32 1_555 1_555
O12_2 Co5 1_555 1_555
O14_2 Co5 1_555 1_555
O11_2 Co5_2 1_555 1_555
O13_2 Co5_4 1_555 1_555
O8_2 Co4 1_555 1_555
C20_2 H11_2 1_555 1_555
C23_2 H12_2 1_555 1_555
H16_2 C31_2 1_555 1_555
C34_2 O8_2 1_555 1_555
C36_2 C19_2 1_555 1_555
H20_2 C36_2 1_555 1_555
O13_3 Co7 1_555 1_555
O14_3 Co7 1_555 1_555
C20_2 C36_2 1_555 1_555
C23_2 C31_2 1_555 1_555
N3_2 C29_2 1_555 1_555
N4_2 C25_2 1_555 1_555
C21_2 C29_2 1_555 1_555
C25_2 C27_2 1_555 1_555
C26_2 C22_2 1_555 1_555
H13_2 C26_2 1_555 1_555
C28_2 C25_2 1_555 1_555
C29_2 C28_2 1_555 1_555
H15_2 C30_2 1_555 1_555
C32_2 C27_2 1_555 1_555
H17_2 C32_2 1_555 1_555
C33_2 C21_2 1_555 1_555
H18_2 C33_2 1_555 1_555
C35_2 N3_2 1_555 1_555
H19_2 C35_2 1_555 1_555
Co9_2 O7_2 1_555 1_555
N4_2 C35_2 1_555 1_555
C26_2 C33_2 1_555 1_555
C30_2 C32_2 1_555 1_555
O10 C24_2 1_555 1_555
Co4_2 O4_2 1_555 1_555
Co7_2 O3_2 1_555 1_555
O3_2 C16_2 1_555 1_555
O4_2 C16_2 1_555 1_555
N1_2 C11_2 1_555 1_555
N2_2 C7_2 1_555 1_555
C2_2 H1_2 1_555 1_555
C3_2 C11_2 1_555 1_555
C4_2 C5_2 1_555 1_555
C5_2 H2_2 1_555 1_555
C7_2 C9_2 1_555 1_555
C8_2 C4_2 1_555 1_555
H3_2 C8_2 1_555 1_555
C9_2 C2_2 1_555 1_555
C10_2 C7_2 1_555 1_555
H4_2 C10_2 1_555 1_555
C11_2 C10_2 1_555 1_555
C12_2 C1_2 1_555 1_555
H5_2 C12_2 1_555 1_555
C13_2 C3_2 1_555 1_555
H6_2 C13_2 1_555 1_555
C14_2 C9_2 1_555 1_555
H7_2 C14_2 1_555 1_555
C15_2 C3_2 1_555 1_555
H8_2 C15_2 1_555 1_555
C16_2 C4_2 1_555 1_555
C17_2 N1_2 1_555 1_555
H9_2 C17_2 1_555 1_555
C18_2 C1_2 1_555 1_555
H10_2 C18_2 1_555 1_555
O11_3 Co7_2 1_555 1_555
N2_2 C17_2 1_555 1_555
C2_2 C18_2 1_555 1_555
C5_2 C13_2 1_555 1_555
C8_2 C15_2 1_555 1_555
C12_2 C14_2 1_555 1_555
O9 C6_2 1_555 1_555
O11_4 Co9_2 1_555 1_555
O14_4 Co9_3 1_555 1_555
O13_4 Co9_4 1_555 1_555
N3_3 C29_3 1_555 1_555
N4_3 C25_3 1_555 1_555
C21_3 C29_3 1_555 1_555
C25_3 C27_3 1_555 1_555
C26_3 C22_3 1_555 1_555
H13_3 C26_3 1_555 1_555
C28_3 C25_3 1_555 1_555
C29_3 C28_3 1_555 1_555
H15_3 C30_3 1_555 1_555
C32_3 C27_3 1_555 1_555
H17_3 C32_3 1_555 1_555
C33_3 C21_3 1_555 1_555
H18_3 C33_3 1_555 1_555
C35_3 N3_3 1_555 1_555
H19_3 C35_3 1_555 1_555
N4_3 C35_3 1_555 1_555
C26_3 C33_3 1_555 1_555
C30_3 C32_3 1_555 1_555
Co1_2 O4_3 1_555 1_555
O11_3 C6_3 1_555 1_555
O13_4 C6_3 1_555 1_555
O14 C16_3 1_555 1_555
O4_3 C16_3 1_555 1_555
N1_3 C11_3 1_555 1_555
N2_3 C7_3 1_555 1_555
C1_3 C6_3 1_555 1_555
C2_3 H1_3 1_555 1_555
C3_3 C11_3 1_555 1_555
C4_3 C5_3 1_555 1_555
C5_3 H2_3 1_555 1_555
C7_3 C9_3 1_555 1_555
C8_3 C4_3 1_555 1_555
H3_3 C8_3 1_555 1_555
C9_3 C2_3 1_555 1_555
C10_3 C7_3 1_555 1_555
H4_3 C10_3 1_555 1_555
C11_3 C10_3 1_555 1_555
C12_3 C1_3 1_555 1_555
H5_3 C12_3 1_555 1_555
C13_3 C3_3 1_555 1_555
H6_3 C13_3 1_555 1_555
C14_3 C9_3 1_555 1_555
H7_3 C14_3 1_555 1_555
C15_3 C3_3 1_555 1_555
H8_3 C15_3 1_555 1_555
C16_3 C4_3 1_555 1_555
C17_3 N1_3 1_555 1_555
H9_3 C17_3 1_555 1_555
C18_3 C1_3 1_555 1_555
H10_3 C18_3 1_555 1_555
O11_4 C24_3 1_555 1_555
O13_3 C24_3 1_555 1_555
O8_3 Co1_2 1_555 1_555
C19_3 C24_3 1_555 1_555
C20_3 H11_3 1_555 1_555
C23_3 H12_3 1_555 1_555
H16_3 C31_3 1_555 1_555
C34_3 O8_3 1_555 1_555
C36_3 C19_3 1_555 1_555
H20_3 C36_3 1_555 1_555
Co3_2 O11_3 1_555 1_555
Co3 O11_4 1_555 1_555
O11 Co1_2 1_555 1_555
O11_2 Co1_2 1_555 1_555
N2_3 C17_3 1_555 1_555
C2_3 C18_3 1_555 1_555
C5_3 C13_3 1_555 1_555
C8_3 C15_3 1_555 1_555
C12_3 C14_3 1_555 1_555
C20_3 C36_3 1_555 1_555
C23_3 C31_3 1_555 1_555
O11 C6_4 1_555 1_555
Co3 O4_4 1_555 1_555
O14_3 C16_4 1_555 1_555
O4_4 C16_4 1_555 1_555
N1_4 C11_4 1_555 1_555
N2_4 C7_4 1_555 1_555
C2_4 H1_4 1_555 1_555
C3_4 C11_4 1_555 1_555
C4_4 C5_4 1_555 1_555
C5_4 H2_4 1_555 1_555
C7_4 C9_4 1_555 1_555
C8_4 C4_4 1_555 1_555
H3_4 C8_4 1_555 1_555
C9_4 C2_4 1_555 1_555
C10_4 C7_4 1_555 1_555
H4_4 C10_4 1_555 1_555
C11_4 C10_4 1_555 1_555
C12_4 C1_4 1_555 1_555
H5_4 C12_4 1_555 1_555
C13_4 C3_4 1_555 1_555
H6_4 C13_4 1_555 1_555
C14_4 C9_4 1_555 1_555
H7_4 C14_4 1_555 1_555
C15_4 C3_4 1_555 1_555
H8_4 C15_4 1_555 1_555
C16_4 C4_4 1_555 1_555
C17_4 N1_4 1_555 1_555
H9_4 C17_4 1_555 1_555
C18_4 C1_4 1_555 1_555
H10_4 C18_4 1_555 1_555
N2_4 C17_4 1_555 1_555
C2_4 C18_4 1_555 1_555
C5_4 C13_4 1_555 1_555
C8_4 C15_4 1_555 1_555
C12_4 C14_4 1_555 1_555
O11_2 C24_4 1_555 1_555
N3_4 C29_4 1_555 1_555
N4_4 C25_4 1_555 1_555
C21_4 C29_4 1_555 1_555
C25_4 C27_4 1_555 1_555
C26_4 C22_4 1_555 1_555
H13_4 C26_4 1_555 1_555
C28_4 C25_4 1_555 1_555
C29_4 C28_4 1_555 1_555
H15_4 C30_4 1_555 1_555
C32_4 C27_4 1_555 1_555
H17_4 C32_4 1_555 1_555
C33_4 C21_4 1_555 1_555
H18_4 C33_4 1_555 1_555
C35_4 N3_4 1_555 1_555
H19_4 C35_4 1_555 1_555
N4_4 C35_4 1_555 1_555
C26_4 C33_4 1_555 1_555
C30_4 C32_4 1_555 1_555
O8_4 Co3_2 1_555 1_555
C20_4 H11_4 1_555 1_555
C23_4 H12_4 1_555 1_555
H16_4 C31_4 1_555 1_555
C34_4 O8_4 1_555 1_555
C36_4 C19_4 1_555 1_555
H20_4 C36_4 1_555 1_555
C20_4 C36_4 1_555 1_555
C23_4 C31_4 1_555 1_555

#END
