
###############################################################################
#
# This file contains modified crystal structure data generated from the
# MOF subset of the Cambridge Structural Database (CSD) v543 
# hosted by the Cambridge Crystallographic Data Centre (CCDC).
#
# This work is licensed under the Creative Commons
# Attribution-NonCommercial-ShareAlike 4.0 International License.
# To view a copy of this license, visit
# http://creativecommons.org/licenses/by-nc-sa/4.0/
# or send a letter to
# Creative Commons, PO Box 1866, Mountain View, CA 94042, USA.
#
# CIF created using the CSD Python API on 29 September 2022
# The structure has been converted into the P1 space group
# The structure has a 3D framework
# The original CSD entry TECVEE is in the monoclinic crystal system
# The framework has been calculated to contain at least 10.0% void space
# The void calculation uses a probe of radius 1.32A, grid spacing 0.4
#
###############################################################################

data_TECVEE
_chemical_formula_moiety         '(C88 H88 Ca10 O60 S8)n'
_symmetry_cell_setting           triclinic
_symmetry_space_group_name_H-M   'P 1'
_symmetry_Int_Tables_number      1
_space_group_name_Hall           'P 1'
loop_
_symmetry_equiv_pos_site_id
_symmetry_equiv_pos_as_xyz
1 x,y,z
_cell_length_a                   15.547(3)
_cell_length_b                   13.6128(19)
_cell_length_c                   18.981(4)
_cell_angle_alpha                90
_cell_angle_beta                 101.88(2)
_cell_angle_gamma                90
_cell_volume                     3931.06
loop_
_atom_site_label
_atom_site_type_symbol
_atom_site_fract_x
_atom_site_fract_y
_atom_site_fract_z
Ca3 Ca -0.0000 0.19807(8) 0.2500
O9 O 0.0718(2) 0.0788(2) 0.19698(16)
O20 O 0.0911(2) 0.2677(3) 0.1079(2)
O23 O 0.1569(3) 0.1347(3) 0.0050(2)
C12 C 0.1223(3) 0.0067(3) 0.1935(2)
Ca5 Ca 0.03544(5) 0.11221(6) 0.06595(4)
O15 O 0.0660(2) 0.0189(3) 0.95426(17)
Ca1 Ca 0.5000 0.69807(8) 0.2500
S1 S 0.32437(8) 0.71107(12) 0.08782(7)
O1 O 0.5718(2) 0.5788(2) 0.19698(16)
O2 O 0.5660(2) 0.4811(3) 0.45426(17)
O3 O 0.4152(2) 0.6802(3) 0.12915(17)
O4 O 0.9089(2) 0.2677(3) 0.3921(2)
O5 O 0.6569(3) 0.3653(3) 0.5050(2)
O6 O 0.6363(2) 0.4763(3) 0.13441(17)
O7 O 0.9049(3) 0.3125(3) 0.2782(2)
C1 C 0.6223(3) 0.5067(3) 0.1935(2)
C2 C 0.7468(3) 0.4108(4) 0.2687(3)
H1 H 0.7726 0.4085 0.2286
C3 C 0.8747(3) 0.3111(4) 0.3354(3)
C4 C 0.6707(3) 0.4192(4) 0.3887(3)
C5 C 0.7895(3) 0.3665(4) 0.3319(3)
C6 C 0.6669(3) 0.4586(3) 0.2632(2)
C7 C 0.7509(4) 0.3691(4) 0.3924(3)
H2 H 0.7781 0.3380 0.4348
C8 C 0.2521(4) 0.6933(6) 0.1482(4)
H3 H 0.2441 0.6243 0.1548
H4 H 0.1963 0.7232 0.1287
H5 H 0.2769 0.7230 0.1938
C9 C 0.6294(3) 0.4634(4) 0.3244(3)
H6 H 0.5764 0.4963 0.3220
C10 C 0.6289(3) 0.4222(4) 0.4539(3)
C11 C 0.3289(7) 0.8404(8) 0.0877(6)
H7 H 0.3571 0.8633 0.1347
H8 H 0.2704 0.8665 0.0755
H9 H 0.3618 0.8620 0.0530
Ca2 Ca 0.53544(5) 0.61221(6) 0.06595(4)
Ca3_2 Ca 1.0000 0.19807(8) 0.2500
S2 S 0.67563(8) 0.71107(12) 0.41218(7)
O10 O 0.4282(2) 0.5788(2) 0.30302(16)
O11 O 0.0660(2) 0.9811(3) 0.45426(17)
O12 O 0.4340(2) 0.4811(3) 0.04574(17)
O16 O 0.5848(2) 0.6802(3) 0.37085(17)
O18 O 0.4089(2) 0.7677(3) 0.3921(2)
O19 O 0.5911(2) 0.7677(3) 0.1079(2)
O21 O 0.1569(3) 0.8653(3) 0.5050(2)
O22 O 0.6569(3) 0.6347(3) 0.0050(2)
O24 O 0.1363(2) 0.9763(3) 0.13441(17)
O25 O 0.4049(3) 0.8125(3) 0.2782(2)
O26 O 0.5951(3) 0.8125(3) 0.2218(2)
C13 C 0.2468(3) 0.9108(4) 0.2687(3)
H12 H 0.2726 0.9085 0.2286
C14 C 0.3747(3) 0.8111(4) 0.3354(3)
C15 C 0.1707(3) 0.9192(4) 0.3887(3)
C16 C 0.2895(3) 0.8665(4) 0.3319(3)
C17 C 0.1669(3) 0.9586(3) 0.2632(2)
C18 C 0.2509(4) 0.8691(4) 0.3924(3)
H13 H 0.2781 0.8380 0.4348
C19 C 0.7479(4) 0.6933(6) 0.3518(4)
H14 H 0.7559 0.6243 0.3452
H15 H 0.8037 0.7232 0.3713
H16 H 0.7231 0.7230 0.3062
C20 C 0.1294(3) 0.9634(4) 0.3244(3)
H17 H 0.0764 0.9963 0.3220
C21 C 0.1289(3) 0.9222(4) 0.4539(3)
C22 C 0.6711(7) 0.8404(8) 0.4123(6)
H18 H 0.6429 0.8633 0.3653
H19 H 0.7296 0.8665 0.4245
H20 H 0.6382 0.8620 0.4470
Ca6 Ca 0.46456(5) 0.61221(6) 0.43405(4)
Ca7 Ca 0.53544(5) 0.38779(6) 0.56595(4)
Ca8 Ca 0.96456(5) 0.11221(6) 0.43405(4)
Ca10 Ca 0.03544(5) 0.88779(6) 0.56595(4)
O8 O 0.4368(3) 0.6858(3) 0.9634(2)
H10 H 0.4601 0.7409 0.9476
H11 H 0.4246 0.6439 0.9254
O13 O 0.5660(2) 0.5189(3) 0.95426(17)
O17 O 0.9152(2) 0.1802(3) 0.12915(17)
O27 O 0.9368(3) 0.1858(3) 0.9634(2)
H21 H 0.9601 0.2409 0.9476
H22 H 0.9246 0.1439 0.9254
O14 O 0.9340(2) 0.9811(3) 0.04574(17)
O17_2 O 0.0848(2) 0.1802(3) 0.37085(17)
O27_2 O 0.0632(3) 0.1858(3) 0.5366(2)
H21_2 H 0.0399 0.2409 0.5524
H22_2 H 0.0754 0.1439 0.5746
O9_2 O 0.9282(2) 0.0788(2) 0.30302(16)
O15_2 O 0.9340(2) 0.0189(3) 0.54574(17)
O23_2 O 0.8431(3) 0.1347(3) 0.4950(2)
C12_2 C 0.8777(3) 0.0067(3) 0.3065(2)
O6_2 O 0.3637(2) 0.4763(3) 0.36559(17)
O7_2 O 0.0951(3) 0.3125(3) 0.2218(2)
C1_2 C 0.3777(3) 0.5067(3) 0.3065(2)
C2_2 C 0.2532(3) 0.4108(4) 0.2313(3)
H1_2 H 0.2274 0.4085 0.2714
C3_2 C 0.1253(3) 0.3111(4) 0.1646(3)
C4_2 C 0.3293(3) 0.4192(4) 0.1113(3)
C5_2 C 0.2105(3) 0.3665(4) 0.1681(3)
C6_2 C 0.3331(3) 0.4586(3) 0.2368(2)
C7_2 C 0.2491(4) 0.3691(4) 0.1076(3)
H2_2 H 0.2219 0.3380 0.0652
C9_2 C 0.3706(3) 0.4634(4) 0.1756(3)
H6_2 H 0.4236 0.4963 0.1780
C10_2 C 0.3711(3) 0.4222(4) 0.0461(3)
O8_2 O 0.5632(3) 0.6858(3) 0.5366(2)
H10_2 H 0.5399 0.7409 0.5524
H11_2 H 0.5754 0.6439 0.5746
O13_2 O 0.4340(2) 0.5189(3) 0.54574(17)
O22_2 O 0.3431(3) 0.6347(3) 0.4950(2)
O24_2 O 0.8637(2) 0.9763(3) 0.36559(17)
C13_2 C 0.7532(3) 0.9108(4) 0.2313(3)
H12_2 H 0.7274 0.9085 0.2714
C14_2 C 0.6253(3) 0.8111(4) 0.1646(3)
C15_2 C 0.8293(3) 0.9192(4) 0.1113(3)
C16_2 C 0.7105(3) 0.8665(4) 0.1681(3)
C17_2 C 0.8331(3) 0.9586(3) 0.2368(2)
C18_2 C 0.7491(4) 0.8691(4) 0.1076(3)
H13_2 H 0.7219 0.8380 0.0652
C20_2 C 0.8706(3) 0.9634(4) 0.1756(3)
H17_2 H 0.9236 0.9963 0.1780
C21_2 C 0.8711(3) 0.9222(4) 0.0461(3)
O5_2 O 0.3431(3) 0.3653(3) 0.9950(2)
O21_2 O 0.8431(3) 0.8653(3) 0.9950(2)
Ca7_2 Ca 0.46456(5) 0.38779(6) 0.93405(4)
Ca10_2 Ca 0.96456(5) 0.88779(6) 0.93405(4)
S2_2 S 0.17563(8) 0.21107(12) 0.41218(7)
C19_2 C 0.2479(4) 0.1933(6) 0.3518(4)
H14_2 H 0.2559 0.1243 0.3452
H15_2 H 0.3037 0.2232 0.3713
H16_2 H 0.2231 0.2230 0.3062
C22_2 C 0.1711(7) 0.3404(8) 0.4123(6)
H18_2 H 0.1429 0.3633 0.3653
H19_2 H 0.2296 0.3665 0.4245
H20_2 H 0.1382 0.3620 0.4470
S1_2 S 0.82437(8) 0.21107(12) 0.08782(7)
C8_2 C 0.7521(4) 0.1933(6) 0.1482(4)
H3_2 H 0.7441 0.1243 0.1548
H4_2 H 0.6963 0.2232 0.1287
H5_2 H 0.7769 0.2230 0.1938
C11_2 C 0.8289(7) 0.3404(8) 0.0877(6)
H7_2 H 0.8571 0.3633 0.1347
H8_2 H 0.7704 0.3665 0.0755
H9_2 H 0.8618 0.3620 0.0530
O27_3 O 0.0632(3) 0.8142(3) 0.0366(2)
H21_3 H 0.0399 0.7591 0.0524
H22_3 H 0.0754 0.8561 0.0746
Ca4 Ca -0.0000 0.80193(8) 0.7500
O17_3 O 0.0848(2) 0.8198(3) 0.87085(17)
O8_3 O 0.5632(3) 0.3142(3) 0.0366(2)
H10_3 H 0.5399 0.2591 0.0524
H11_3 H 0.5754 0.3561 0.0746
Ca1_2 Ca 0.5000 0.30193(8) 0.7500
S1_3 S 0.67563(8) 0.28893(12) 0.91218(7)
O1_2 O 0.4282(2) 0.4212(2) 0.80302(16)
O3_2 O 0.5848(2) 0.3198(3) 0.87085(17)
O4_2 O 0.0911(2) 0.7323(3) 0.6079(2)
O6_3 O 0.3637(2) 0.5237(3) 0.86559(17)
O7_3 O 0.0951(3) 0.6875(3) 0.7218(2)
C1_3 C 0.3777(3) 0.4933(3) 0.8065(2)
C2_3 C 0.2532(3) 0.5892(4) 0.7313(3)
H1_3 H 0.2274 0.5915 0.7714
C3_3 C 0.1253(3) 0.6889(4) 0.6646(3)
C4_3 C 0.3293(3) 0.5808(4) 0.6113(3)
C5_3 C 0.2105(3) 0.6335(4) 0.6681(3)
C6_3 C 0.3331(3) 0.5414(3) 0.7368(2)
C7_3 C 0.2491(4) 0.6309(4) 0.6076(3)
H2_3 H 0.2219 0.6620 0.5652
C8_3 C 0.7479(4) 0.3067(6) 0.8518(4)
H3_3 H 0.7559 0.3757 0.8452
H4_3 H 0.8037 0.2768 0.8713
H5_3 H 0.7231 0.2770 0.8062
C9_3 C 0.3706(3) 0.5366(4) 0.6756(3)
H6_3 H 0.4236 0.5037 0.6780
C10_3 C 0.3711(3) 0.5778(4) 0.5461(3)
C11_3 C 0.6711(7) 0.1596(8) 0.9123(6)
H7_3 H 0.6429 0.1367 0.8653
H8_3 H 0.7296 0.1335 0.9245
H9_3 H 0.6382 0.1380 0.9470
S2_3 S 0.32437(8) 0.28893(12) 0.58782(7)
O10_2 O 0.5718(2) 0.4212(2) 0.69698(16)
O16_2 O 0.4152(2) 0.3198(3) 0.62915(17)
O18_2 O 0.5911(2) 0.2323(3) 0.6079(2)
O19_2 O 0.4089(2) 0.2323(3) 0.8921(2)
O24_3 O 0.8637(2) 0.0237(3) 0.86559(17)
O25_2 O 0.5951(3) 0.1875(3) 0.7218(2)
O26_2 O 0.4049(3) 0.1875(3) 0.7782(2)
C13_3 C 0.7532(3) 0.0892(4) 0.7313(3)
H12_3 H 0.7274 0.0915 0.7714
C14_3 C 0.6253(3) 0.1889(4) 0.6646(3)
C15_3 C 0.8293(3) 0.0808(4) 0.6113(3)
C16_3 C 0.7105(3) 0.1335(4) 0.6681(3)
C17_3 C 0.8331(3) 0.0414(3) 0.7368(2)
C18_3 C 0.7491(4) 0.1309(4) 0.6076(3)
H13_3 H 0.7219 0.1620 0.5652
C19_3 C 0.2521(4) 0.3067(6) 0.6482(4)
H14_3 H 0.2441 0.3757 0.6548
H15_3 H 0.1963 0.2768 0.6287
H16_3 H 0.2769 0.2770 0.6938
C20_3 C 0.8706(3) 0.0366(4) 0.6756(3)
H17_3 H 0.9236 0.0037 0.6780
C21_3 C 0.8711(3) 0.0778(4) 0.5461(3)
C22_3 C 0.3289(7) 0.1596(8) 0.5877(6)
H18_3 H 0.3571 0.1367 0.6347
H19_3 H 0.2704 0.1335 0.5755
H20_3 H 0.3618 0.1380 0.5530
Ca4_2 Ca 1.0000 0.80193(8) 0.7500
O9_3 O 0.9282(2) 0.9212(2) 0.80302(16)
O20_2 O 0.9089(2) 0.7323(3) 0.8921(2)
C12_3 C 0.8777(3) 0.9933(3) 0.8065(2)
O6_4 O 0.6363(2) 0.5237(3) 0.63441(17)
O7_4 O 0.9049(3) 0.6875(3) 0.7782(2)
C1_4 C 0.6223(3) 0.4933(3) 0.6935(2)
C2_4 C 0.7468(3) 0.5892(4) 0.7687(3)
H1_4 H 0.7726 0.5915 0.7286
C3_4 C 0.8747(3) 0.6889(4) 0.8354(3)
C4_4 C 0.6707(3) 0.5808(4) 0.8887(3)
C5_4 C 0.7895(3) 0.6335(4) 0.8319(3)
C6_4 C 0.6669(3) 0.5414(3) 0.7632(2)
C7_4 C 0.7509(4) 0.6309(4) 0.8924(3)
H2_4 H 0.7781 0.6620 0.9348
C9_4 C 0.6294(3) 0.5366(4) 0.8244(3)
H6_4 H 0.5764 0.5037 0.8220
C10_4 C 0.6289(3) 0.5778(4) 0.9539(3)
O8_4 O 0.4368(3) 0.3142(3) 0.4634(2)
H10_4 H 0.4601 0.2591 0.4476
H11_4 H 0.4246 0.3561 0.4254
O24_4 O 0.1363(2) 0.0237(3) 0.63441(17)
C13_4 C 0.2468(3) 0.0892(4) 0.7687(3)
H12_4 H 0.2726 0.0915 0.7286
C14_4 C 0.3747(3) 0.1889(4) 0.8354(3)
C15_4 C 0.1707(3) 0.0808(4) 0.8887(3)
C16_4 C 0.2895(3) 0.1335(4) 0.8319(3)
C17_4 C 0.1669(3) 0.0414(3) 0.7632(2)
C18_4 C 0.2509(4) 0.1309(4) 0.8924(3)
H13_4 H 0.2781 0.1620 0.9348
C20_4 C 0.1294(3) 0.0366(4) 0.8244(3)
H17_4 H 0.0764 0.0037 0.8220
C21_4 C 0.1289(3) 0.0778(4) 0.9539(3)
O9_4 O 0.0718(2) 0.9212(2) 0.69698(16)
C12_4 C 0.1223(3) 0.9933(3) 0.6935(2)
O17_4 O 0.9152(2) 0.8198(3) 0.62915(17)
O27_4 O 0.9368(3) 0.8142(3) 0.4634(2)
H21_4 H 0.9601 0.7591 0.4476
H22_4 H 0.9246 0.8561 0.4254
S1_4 S 0.17563(8) 0.78893(12) 0.91218(7)
C8_4 C 0.2479(4) 0.8067(6) 0.8518(4)
H3_4 H 0.2559 0.8757 0.8452
H4_4 H 0.3037 0.7768 0.8713
H5_4 H 0.2231 0.7770 0.8062
C11_4 C 0.1711(7) 0.6596(8) 0.9123(6)
H7_4 H 0.1429 0.6367 0.8653
H8_4 H 0.2296 0.6335 0.9245
H9_4 H 0.1382 0.6380 0.9470
S2_4 S 0.82437(8) 0.78893(12) 0.58782(7)
C19_4 C 0.7521(4) 0.8067(6) 0.6482(4)
H14_4 H 0.7441 0.8757 0.6548
H15_4 H 0.6963 0.7768 0.6287
H16_4 H 0.7769 0.7770 0.6938
C22_4 C 0.8289(7) 0.6596(8) 0.5877(6)
H18_4 H 0.8571 0.6367 0.6347
H19_4 H 0.7704 0.6335 0.5755
H20_4 H 0.8618 0.6380 0.5530
loop_
_geom_bond_atom_site_label_1
_geom_bond_atom_site_label_2
_geom_bond_site_symmetry_1
_geom_bond_site_symmetry_2
Ca3 O9 1_555 1_555
O9 C12 1_555 1_555
O20 Ca5 1_555 1_555
O23 Ca5 1_555 1_555
Ca5 O9 1_555 1_555
Ca1 O1 1_555 1_555
S1 O3 1_555 1_555
O1 C1 1_555 1_555
O2 C10 1_555 1_555
O3 Ca1 1_555 1_555
O4 C3 1_555 1_555
O5 C10 1_555 1_555
O6 C1 1_555 1_555
O7 C3 1_555 1_555
C1 C6 1_555 1_555
C2 H1 1_555 1_555
C3 C5 1_555 1_555
C4 C7 1_555 1_555
C5 C2 1_555 1_555
C6 C2 1_555 1_555
C7 C5 1_555 1_555
H2 C7 1_555 1_555
C8 S1 1_555 1_555
H3 C8 1_555 1_555
H4 C8 1_555 1_555
H5 C8 1_555 1_555
C9 C4 1_555 1_555
H6 C9 1_555 1_555
C10 C4 1_555 1_555
C11 S1 1_555 1_555
H7 C11 1_555 1_555
H8 C11 1_555 1_555
H9 C11 1_555 1_555
Ca2 O1 1_555 1_555
Ca3_2 O7 1_555 1_555
S2 O16 1_555 1_555
O10 Ca1 1_555 1_555
O11 C21 1_555 1_555
O12 Ca2 1_555 1_555
O16 Ca1 1_555 1_555
O18 C14 1_555 1_555
O19 Ca2 1_555 1_555
O21 C21 1_555 1_555
O22 Ca2 1_555 1_555
O25 Ca1 1_555 1_555
O26 Ca1 1_555 1_555
C13 H12 1_555 1_555
C14 O25 1_555 1_555
C15 C18 1_555 1_555
C16 C13 1_555 1_555
C17 C13 1_555 1_555
C18 C16 1_555 1_555
H13 C18 1_555 1_555
C19 S2 1_555 1_555
H14 C19 1_555 1_555
H15 C19 1_555 1_555
H16 C19 1_555 1_555
C20 C15 1_555 1_555
H17 C20 1_555 1_555
C21 C15 1_555 1_555
C22 S2 1_555 1_555
H18 C22 1_555 1_555
H19 C22 1_555 1_555
H20 C22 1_555 1_555
Ca6 O2 1_555 1_555
Ca7 O2 1_555 1_555
Ca8 O4 1_555 1_555
Ca10 O11 1_555 1_555
O3 Ca2 1_555 1_555
O5 Ca7 1_555 1_555
O6 Ca2 1_555 1_555
C6 C9 1_555 1_555
O10 Ca6 1_555 1_555
O16 Ca6 1_555 1_555
O18 Ca6 1_555 1_555
O21 Ca10 1_555 1_555
C14 C16 1_555 1_555
C17 C20 1_555 1_555
H10 O8 1_555 1_555
H11 O8 1_555 1_555
O17 Ca3_2 1_555 1_555
H21 O27 1_555 1_555
H22 O27 1_555 1_555
O17_2 Ca3 1_555 1_555
H21_2 O27_2 1_555 1_555
H22_2 O27_2 1_555 1_555
Ca3_2 O9_2 1_555 1_555
O9_2 C12_2 1_555 1_555
O15_2 Ca8 1_555 1_555
O23_2 Ca8 1_555 1_555
Ca8 O9_2 1_555 1_555
O10 C1_2 1_555 1_555
O12 C10_2 1_555 1_555
O20 C3_2 1_555 1_555
O6_2 C1_2 1_555 1_555
O7_2 C3_2 1_555 1_555
C1_2 C6_2 1_555 1_555
C2_2 H1_2 1_555 1_555
C3_2 C5_2 1_555 1_555
C4_2 C7_2 1_555 1_555
C5_2 C2_2 1_555 1_555
C6_2 C2_2 1_555 1_555
C7_2 C5_2 1_555 1_555
H2_2 C7_2 1_555 1_555
C9_2 C4_2 1_555 1_555
H6_2 C9_2 1_555 1_555
C10_2 C4_2 1_555 1_555
O8_2 Ca6 1_555 1_555
H10_2 O8_2 1_555 1_555
H11_2 O8_2 1_555 1_555
Ca3 O7_2 1_555 1_555
O14 C21_2 1_555 1_555
O13_2 Ca6 1_555 1_555
O19 C14_2 1_555 1_555
O22_2 Ca6 1_555 1_555
C13_2 H12_2 1_555 1_555
C14_2 O26 1_555 1_555
C15_2 C18_2 1_555 1_555
C16_2 C13_2 1_555 1_555
C17_2 C13_2 1_555 1_555
C18_2 C16_2 1_555 1_555
H13_2 C18_2 1_555 1_555
C20_2 C15_2 1_555 1_555
H17_2 C20_2 1_555 1_555
C21_2 C15_2 1_555 1_555
O6_2 Ca6 1_555 1_555
C6_2 C9_2 1_555 1_555
C14_2 C16_2 1_555 1_555
C17_2 C20_2 1_555 1_555
O5_2 Ca7_2 1_555 1_555
O21_2 Ca10_2 1_555 1_555
S2_2 O17_2 1_555 1_555
C19_2 S2_2 1_555 1_555
H14_2 C19_2 1_555 1_555
H15_2 C19_2 1_555 1_555
H16_2 C19_2 1_555 1_555
C22_2 S2_2 1_555 1_555
H18_2 C22_2 1_555 1_555
H19_2 C22_2 1_555 1_555
H20_2 C22_2 1_555 1_555
S1_2 O17 1_555 1_555
C8_2 S1_2 1_555 1_555
H3_2 C8_2 1_555 1_555
H4_2 C8_2 1_555 1_555
H5_2 C8_2 1_555 1_555
C11_2 S1_2 1_555 1_555
H7_2 C11_2 1_555 1_555
H8_2 C11_2 1_555 1_555
H9_2 C11_2 1_555 1_555
H21_3 O27_3 1_555 1_555
H22_3 O27_3 1_555 1_555
O17_3 Ca4 1_555 1_555
H10_3 O8_3 1_555 1_555
H11_3 O8_3 1_555 1_555
Ca1_2 O1_2 1_555 1_555
S1_3 O3_2 1_555 1_555
O1_2 C1_3 1_555 1_555
O13_2 C10_3 1_555 1_555
O3_2 Ca1_2 1_555 1_555
O4_2 C3_3 1_555 1_555
O22_2 C10_3 1_555 1_555
O6_3 C1_3 1_555 1_555
O7_3 C3_3 1_555 1_555
C1_3 C6_3 1_555 1_555
C2_3 H1_3 1_555 1_555
C3_3 C5_3 1_555 1_555
C4_3 C7_3 1_555 1_555
C5_3 C2_3 1_555 1_555
C6_3 C2_3 1_555 1_555
C7_3 C5_3 1_555 1_555
H2_3 C7_3 1_555 1_555
C8_3 S1_3 1_555 1_555
H3_3 C8_3 1_555 1_555
H4_3 C8_3 1_555 1_555
H5_3 C8_3 1_555 1_555
C9_3 C4_3 1_555 1_555
H6_3 C9_3 1_555 1_555
C10_3 C4_3 1_555 1_555
C11_3 S1_3 1_555 1_555
H7_3 C11_3 1_555 1_555
H8_3 C11_3 1_555 1_555
H9_3 C11_3 1_555 1_555
Ca7_2 O1_2 1_555 1_555
Ca4 O7_3 1_555 1_555
S2_3 O16_2 1_555 1_555
O10_2 Ca1_2 1_555 1_555
O15_2 C21_3 1_555 1_555
O13 Ca7_2 1_555 1_555
O16_2 Ca1_2 1_555 1_555
O18_2 C14_3 1_555 1_555
O19_2 Ca7_2 1_555 1_555
O23_2 C21_3 1_555 1_555
O25_2 Ca1_2 1_555 1_555
O26_2 Ca1_2 1_555 1_555
C13_3 H12_3 1_555 1_555
C14_3 O25_2 1_555 1_555
C15_3 C18_3 1_555 1_555
C16_3 C13_3 1_555 1_555
C17_3 C13_3 1_555 1_555
C18_3 C16_3 1_555 1_555
H13_3 C18_3 1_555 1_555
C19_3 S2_3 1_555 1_555
H14_3 C19_3 1_555 1_555
H15_3 C19_3 1_555 1_555
H16_3 C19_3 1_555 1_555
C20_3 C15_3 1_555 1_555
H17_3 C20_3 1_555 1_555
C21_3 C15_3 1_555 1_555
C22_3 S2_3 1_555 1_555
H18_3 C22_3 1_555 1_555
H19_3 C22_3 1_555 1_555
H20_3 C22_3 1_555 1_555
Ca7 O13_2 1_555 1_555
Ca10 O4_2 1_555 1_555
O3_2 Ca7_2 1_555 1_555
O6_3 Ca7_2 1_555 1_555
C6_3 C9_3 1_555 1_555
O10_2 Ca7 1_555 1_555
O16_2 Ca7 1_555 1_555
O18_2 Ca7 1_555 1_555
C14_3 C16_3 1_555 1_555
C17_3 C20_3 1_555 1_555
Ca4_2 O9_3 1_555 1_555
O9_3 C12_3 1_555 1_555
O20_2 Ca10_2 1_555 1_555
Ca10_2 O9_3 1_555 1_555
O10_2 C1_4 1_555 1_555
O13 C10_4 1_555 1_555
O20_2 C3_4 1_555 1_555
O6_4 C1_4 1_555 1_555
O7_4 C3_4 1_555 1_555
C1_4 C6_4 1_555 1_555
C2_4 H1_4 1_555 1_555
C3_4 C5_4 1_555 1_555
C4_4 C7_4 1_555 1_555
C5_4 C2_4 1_555 1_555
C6_4 C2_4 1_555 1_555
C7_4 C5_4 1_555 1_555
H2_4 C7_4 1_555 1_555
C9_4 C4_4 1_555 1_555
H6_4 C9_4 1_555 1_555
C10_4 C4_4 1_555 1_555
O8_4 Ca7 1_555 1_555
H10_4 O8_4 1_555 1_555
H11_4 O8_4 1_555 1_555
Ca4_2 O7_4 1_555 1_555
O15 C21_4 1_555 1_555
O19_2 C14_4 1_555 1_555
C13_4 H12_4 1_555 1_555
C14_4 O26_2 1_555 1_555
C15_4 C18_4 1_555 1_555
C16_4 C13_4 1_555 1_555
C17_4 C13_4 1_555 1_555
C18_4 C16_4 1_555 1_555
H13_4 C18_4 1_555 1_555
C20_4 C15_4 1_555 1_555
H17_4 C20_4 1_555 1_555
C21_4 C15_4 1_555 1_555
O6_4 Ca7 1_555 1_555
C6_4 C9_4 1_555 1_555
C14_4 C16_4 1_555 1_555
C17_4 C20_4 1_555 1_555
Ca4 O9_4 1_555 1_555
O9_4 C12_4 1_555 1_555
Ca10 O9_4 1_555 1_555
O17_4 Ca4_2 1_555 1_555
H21_4 O27_4 1_555 1_555
H22_4 O27_4 1_555 1_555
S1_4 O17_3 1_555 1_555
C8_4 S1_4 1_555 1_555
H3_4 C8_4 1_555 1_555
H4_4 C8_4 1_555 1_555
H5_4 C8_4 1_555 1_555
C11_4 S1_4 1_555 1_555
H7_4 C11_4 1_555 1_555
H8_4 C11_4 1_555 1_555
H9_4 C11_4 1_555 1_555
S2_4 O17_4 1_555 1_555
C19_4 S2_4 1_555 1_555
H14_4 C19_4 1_555 1_555
H15_4 C19_4 1_555 1_555
H16_4 C19_4 1_555 1_555
C22_4 S2_4 1_555 1_555
H18_4 C22_4 1_555 1_555
H19_4 C22_4 1_555 1_555
H20_4 C22_4 1_555 1_555

#END
