
###############################################################################
#
# This file contains modified crystal structure data generated from the
# MOF subset of the Cambridge Structural Database (CSD) v543 
# hosted by the Cambridge Crystallographic Data Centre (CCDC).
#
# This work is licensed under the Creative Commons
# Attribution-NonCommercial-ShareAlike 4.0 International License.
# To view a copy of this license, visit
# http://creativecommons.org/licenses/by-nc-sa/4.0/
# or send a letter to
# Creative Commons, PO Box 1866, Mountain View, CA 94042, USA.
#
# CIF created using the CSD Python API on 29 September 2022
# The structure has been converted into the P1 space group
# The structure has a 3D framework
# The original CSD entry TEDMEX is in the monoclinic crystal system
# The framework has been calculated to contain at least 10.0% void space
# The void calculation uses a probe of radius 1.32A, grid spacing 0.4
#
###############################################################################

data_TEDMEX
_chemical_formula_moiety         '(C96 H72 Mn8 N96 O12)n'
_symmetry_cell_setting           triclinic
_symmetry_space_group_name_H-M   'P 1'
_symmetry_Int_Tables_number      1
_space_group_name_Hall           'P 1'
loop_
_symmetry_equiv_pos_site_id
_symmetry_equiv_pos_as_xyz
1 x,y,z
_cell_length_a                   17.066(10)
_cell_length_b                   15.375(9)
_cell_length_c                   20.269(9)
_cell_angle_alpha                90
_cell_angle_beta                 125.71(3)
_cell_angle_gamma                90
_cell_volume                     4318.43
loop_
_atom_site_label
_atom_site_type_symbol
_atom_site_fract_x
_atom_site_fract_y
_atom_site_fract_z
Mn4 Mn 0.08195(5) 0.30866(5) 0.84668(4)
N12 N 0.0465(3) 0.9553(2) 0.2055(2)
N13 N 0.0695(3) 0.9245(2) 0.2785(2)
N16 N 0.1080(3) 0.9165(4) 0.5076(3)
N24 N 0.4481(3) 0.9706(3) 0.7684(3)
C12 C 0.0726(3) 0.9947(3) 0.3183(3)
C13 C 0.0911(3) 0.9924(3) 0.3986(3)
C14 C 0.0932(4) 0.9163(4) 0.4354(3)
H12 H 0.0840 0.8636 0.4093
C15 C 0.1167(4) 0.9937(5) 0.5403(3)
H13 H 0.1241 0.9966 0.5895
C22 C 0.5366(4) 0.9915(3) 0.7911(4)
H16 H 0.5898 0.9633 0.8354
H17 H 0.3148 0.9976 0.6882
Mn5 Mn 0.03519(4) 0.90304(4) 0.09614(4)
N10 N 0.0207(3) 0.6123(2) 0.4815(2)
N11 N 0.0012(3) 0.6778(3) 0.3742(3)
C9 C 0.0251(4) 0.6848(3) 0.4508(3)
H11 H 0.0430 0.7373 0.4789
Mn6 Mn 0.03519(4) 0.59696(4) 0.59614(4)
N28 N 0.0939(2) 0.7731(2) 0.1641(2)
N29 N 0.0619(3) 0.6994(3) 0.1786(3)
N30 N 0.2016(3) 0.9048(3) 0.1644(2)
N26 N 0.0207(3) 0.8877(2) 0.9815(2)
Mn1 Mn 0.47820(5) 0.72026(5) 0.85284(5)
O1 O 0.5478(2) 0.7846(2) 0.8054(2)
H1 H 0.5148 0.8281 0.7765
H2 H 0.6025 0.8011 0.8467
O2 O 0.4144(2) 0.8403(2) 0.8491(2)
H3 H 0.3545 0.8330 0.8271
H4 H 0.4220 0.8774 0.8222
N3 N 0.7252(3) 0.8378(3) 0.9387(2)
N6 N 0.6106(2) 0.7139(3) 0.9773(2)
N7 N 0.4376(3) 0.6446(3) 0.9318(3)
N16_2 N 0.8920(3) 0.4165(4) 0.9924(3)
N17 N 0.0939(2) 0.7269(2) 0.6641(2)
N18 N 0.0619(3) 0.8006(3) 0.6786(3)
N19 N 0.2220(3) 0.8106(3) 0.7503(3)
N20 N 0.2016(3) 0.5952(3) 0.6644(2)
N21 N 0.2707(3) 0.5414(3) 0.6728(3)
N22 N 0.3411(2) 0.6628(2) 0.7460(2)
N23 N 0.5222(3) 0.5957(3) 0.8144(3)
N24_2 N 0.5519(3) 0.4706(3) 0.7316(3)
C1 C 0.8066(3) 0.8783(4) 0.9580(3)
H7 H 0.8071 0.9198 0.9249
C7 C 0.3437(4) 0.5710(4) 0.9640(4)
H9 H 0.2829 0.5507 0.9459
C8 C 0.3524(4) 0.6143(4) 0.9116(4)
H10 H 0.2975 0.6240 0.8592
C15_2 C 0.8833(4) 0.4937(5) 0.9597(3)
H13_2 H 0.8759 0.4966 0.9105
C16 C 0.8847(4) 0.5699(4) 0.9959(3)
H14 H 0.8769 0.6224 0.9700
C17 C 0.1388(4) 0.8467(4) 0.7288(4)
H15 H 0.1361 0.9006 0.7482
C18 C 0.1907(3) 0.7358(3) 0.7093(3)
C19 C 0.2459(3) 0.6658(3) 0.7077(3)
C20 C 0.3530(3) 0.5836(3) 0.7226(3)
C21 C 0.4494(3) 0.5541(3) 0.7500(3)
C22_2 C 0.4634(4) 0.4915(3) 0.7089(4)
H16_2 H 0.4102 0.4633 0.6646
C23 C 0.6227(4) 0.5110(4) 0.7944(4)
H17_2 H 0.6852 0.4976 0.8118
C24 C 0.6110(4) 0.5726(4) 0.8367(4)
H18 H 0.6651 0.5989 0.8817
Mn4_2 Mn 0.91805(5) 0.80866(5) 0.65332(4)
N11_2 N 0.0012(3) 0.8222(3) 0.8742(3)
C9_2 C 0.0251(4) 0.8152(3) 0.9508(3)
H11_2 H 0.0430 0.7627 0.9789
N25 N 0.0050(3) 0.4500(2) 0.5758(2)
N27 N 0.0465(3) 0.5447(2) 0.7055(2)
Mn1_2 Mn 0.47820(5) 0.77974(5) 0.35284(5)
O1_2 O 0.5478(2) 0.7154(2) 0.3054(2)
H1_2 H 0.5148 0.6719 0.2765
H2_2 H 0.6025 0.6989 0.3467
O2_2 O 0.4144(2) 0.6597(2) 0.3491(2)
H3_2 H 0.3545 0.6670 0.3271
H4_2 H 0.4220 0.6226 0.3222
O3 O 0.9547(2) 0.7212(2) 0.7504(2)
H5 H 0.9841 0.7519 0.7933
H6 H 0.9877 0.6778 0.7537
N1 N 0.8539(3) 0.7092(2) 0.5567(2)
N2 N 0.8856(3) 0.6469(3) 0.5287(2)
N3_2 N 0.7252(3) 0.6622(3) 0.4387(2)
N4 N 0.7564(3) 0.8145(3) 0.5902(3)
N5 N 0.6909(3) 0.8583(3) 0.5961(3)
N6_2 N 0.6106(2) 0.7861(3) 0.4773(2)
N7_2 N 0.4376(3) 0.8554(3) 0.4318(3)
N8 N 0.4179(4) 0.9449(4) 0.5414(3)
N9 N 0.9950(3) 0.9500(2) 0.9242(2)
N14 N 0.9437(2) 0.9299(2) 0.7227(2)
N15 N 0.8970(3) 0.9293(3) 0.5677(2)
N19_2 N 0.2220(3) 0.6894(3) 0.2503(3)
N21_2 N 0.2707(3) 0.9586(3) 0.1728(3)
N22_2 N 0.3411(2) 0.8372(2) 0.2460(2)
N23_2 N 0.5222(3) 0.9043(3) 0.3144(3)
C1_2 C 0.8066(3) 0.6217(4) 0.4580(3)
H7_2 H 0.8071 0.5802 0.4249
C2 C 0.7596(3) 0.7153(3) 0.5024(3)
C3 C 0.7073(3) 0.7729(3) 0.5201(3)
C4 C 0.6048(4) 0.8404(3) 0.5271(3)
C5 C 0.5133(3) 0.8711(3) 0.5074(3)
C6 C 0.5031(4) 0.9147(4) 0.5615(4)
H8 H 0.5577 0.9235 0.6142
C7_2 C 0.3437(4) 0.9290(4) 0.4640(4)
H9_2 H 0.2829 0.9493 0.4459
C8_2 C 0.3524(4) 0.8857(4) 0.4116(4)
H10_2 H 0.2975 0.8760 0.3592
C10 C 0.9854(3) 0.9089(3) 0.8620(3)
C11 C 0.9593(3) 0.9587(3) 0.7915(3)
C16_2 C 0.8847(4) 0.9301(4) 0.4959(3)
H14_2 H 0.8769 0.8776 0.4700
C17_2 C 0.1388(4) 0.6533(4) 0.2288(4)
H15_2 H 0.1361 0.5994 0.2482
C18_2 C 0.1907(3) 0.7642(3) 0.2093(3)
C19_2 C 0.2459(3) 0.8342(3) 0.2077(3)
C20_2 C 0.3530(3) 0.9164(3) 0.2226(3)
C21_2 C 0.4494(3) 0.9459(3) 0.2500(3)
C23_2 C 0.6227(4) 0.9890(4) 0.2944(4)
C24_2 C 0.6110(4) 0.9274(4) 0.3367(4)
H18_2 H 0.6651 0.9011 0.3817
O3_2 O 0.0453(2) 0.2212(2) 0.7496(2)
H5_2 H 0.0159 0.2519 0.7067
H6_2 H 0.0123 0.1778 0.7463
N1_2 N 0.1461(3) 0.2092(2) 0.9433(2)
N2_2 N 0.1144(3) 0.1469(3) 0.9713(2)
N4_2 N 0.2436(3) 0.3145(3) 0.9098(3)
N5_2 N 0.3091(3) 0.3583(3) 0.9039(3)
N8_2 N 0.5821(4) 0.4449(4) 0.9586(3)
N13_2 N 0.0695(3) 0.5755(2) 0.7785(2)
N14_2 N 0.0563(2) 0.4299(2) 0.7773(2)
N15_2 N 0.1030(3) 0.4293(3) 0.9323(2)
C2_2 C 0.2404(3) 0.2153(3) 0.9976(3)
C3_2 C 0.2927(3) 0.2729(3) 0.9799(3)
C4_2 C 0.3952(4) 0.3404(3) 0.9729(3)
C5_2 C 0.4867(3) 0.3711(3) 0.9926(3)
C6_2 C 0.4969(4) 0.4147(4) 0.9385(4)
H8_2 H 0.4423 0.4235 0.8858
C10_2 C 0.0146(3) 0.4089(3) 0.6380(3)
C11_2 C 0.0407(3) 0.4587(3) 0.7085(3)
C12_2 C 0.0726(3) 0.5053(3) 0.8183(3)
C13_2 C 0.0911(3) 0.5076(3) 0.8986(3)
C14_2 C 0.0932(4) 0.5837(4) 0.9354(3)
H12_2 H 0.0840 0.6364 0.9093
Mn1_3 Mn 0.52180(5) 0.22026(5) 0.64716(5)
Mn2 Mn 0.08195(5) 0.19134(5) 0.34668(4)
O1_3 O 0.4522(2) 0.2846(2) 0.6946(2)
H1_3 H 0.4852 0.3281 0.7235
H2_3 H 0.3975 0.3011 0.6533
O2_3 O 0.5856(2) 0.3403(2) 0.6509(2)
H3_3 H 0.6455 0.3330 0.6729
H4_3 H 0.5780 0.3774 0.6778
O3_3 O 0.0453(2) 0.2788(2) 0.2496(2)
H5_3 H 0.0159 0.2481 0.2067
H6_3 H 0.0123 0.3222 0.2463
N1_3 N 0.1461(3) 0.2908(2) 0.4433(2)
N2_3 N 0.1144(3) 0.3531(3) 0.4713(2)
N3_3 N 0.2748(3) 0.3378(3) 0.5613(2)
N4_3 N 0.2436(3) 0.1855(3) 0.4098(3)
N5_3 N 0.3091(3) 0.1417(3) 0.4039(3)
N6_3 N 0.3894(2) 0.2139(3) 0.5227(2)
N7_3 N 0.5624(3) 0.1446(3) 0.5682(3)
N8_3 N 0.5821(4) 0.0551(4) 0.4586(3)
N9_2 N 0.0050(3) 0.0500(2) 0.0758(2)
N14_3 N 0.0563(2) 0.0701(2) 0.2773(2)
N15_3 N 0.1030(3) 0.0707(3) 0.4323(2)
N17_2 N 0.9061(2) 0.2269(2) 0.8359(2)
N18_2 N 0.9381(3) 0.3006(3) 0.8214(3)
N19_3 N 0.7780(3) 0.3106(3) 0.7497(3)
N20_2 N 0.7984(3) 0.0952(3) 0.8356(2)
N21_3 N 0.7293(3) 0.0414(3) 0.8272(3)
N22_3 N 0.6589(2) 0.1628(2) 0.7540(2)
N23_3 N 0.4778(3) 0.0957(3) 0.6856(3)
C1_3 C 0.1934(3) 0.3783(4) 0.5420(3)
H7_3 H 0.1929 0.4198 0.5751
C2_3 C 0.2404(3) 0.2847(3) 0.4976(3)
C3_3 C 0.2927(3) 0.2271(3) 0.4799(3)
C4_3 C 0.3952(4) 0.1596(3) 0.4729(3)
C5_3 C 0.4867(3) 0.1289(3) 0.4926(3)
C6_3 C 0.4969(4) 0.0853(4) 0.4385(4)
H8_3 H 0.4423 0.0765 0.3858
C7_3 C 0.6563(4) 0.0710(4) 0.5360(4)
H9_3 H 0.7171 0.0507 0.5541
C8_3 C 0.6476(4) 0.1143(4) 0.5884(4)
H10_3 H 0.7025 0.1240 0.6408
C10_3 C 0.0146(3) 0.0911(3) 0.1380(3)
C11_3 C 0.0407(3) 0.0413(3) 0.2085(3)
C16_3 C 0.1153(4) 0.0699(4) 0.5041(3)
H14_3 H 0.1231 0.1224 0.5300
C17_3 C 0.8612(4) 0.3467(4) 0.7712(4)
H15_3 H 0.8639 0.4006 0.7518
C18_3 C 0.8093(3) 0.2358(3) 0.7907(3)
C19_3 C 0.7541(3) 0.1658(3) 0.7923(3)
C20_3 C 0.6470(3) 0.0836(3) 0.7774(3)
C21_3 C 0.5506(3) 0.0541(3) 0.7500(3)
C23_3 C 0.3773(4) 0.0110(4) 0.7056(4)
C24_3 C 0.3890(4) 0.0726(4) 0.6633(4)
H18_3 H 0.3349 0.0989 0.6183
Mn7 Mn 0.96481(4) 0.09696(4) 0.90386(4)
Mn3 Mn 0.96481(4) 0.40304(4) 0.40386(4)
N10_2 N 0.9793(3) 0.1123(2) 0.0185(2)
N11_3 N 0.9988(3) 0.1778(3) 0.1258(3)
C9_3 C 0.9749(4) 0.1848(3) 0.0492(3)
H11_3 H 0.9570 0.2373 0.0211
N25_2 N 0.9950(3) 0.5500(2) 0.4242(2)
N26_2 N 0.9793(3) 0.3877(2) 0.5185(2)
N27_2 N 0.9535(3) 0.4553(2) 0.2945(2)
N28_2 N 0.9061(2) 0.2731(2) 0.3359(2)
N29_2 N 0.9381(3) 0.1994(3) 0.3214(3)
N30_2 N 0.7984(3) 0.4048(3) 0.3356(2)
Mn2_2 Mn 0.91805(5) 0.69134(5) 0.15332(4)
O3_4 O 0.9547(2) 0.7788(2) 0.2504(2)
H5_4 H 0.9841 0.7481 0.2933
H6_4 H 0.9877 0.8222 0.2537
N1_4 N 0.8539(3) 0.7908(2) 0.0567(2)
N2_4 N 0.8856(3) 0.8531(3) 0.0287(2)
N4_4 N 0.7564(3) 0.6855(3) 0.0902(3)
N5_4 N 0.6909(3) 0.6417(3) 0.0961(3)
N8_4 N 0.4179(4) 0.5551(4) 0.0414(3)
N13_3 N 0.9305(3) 0.4245(2) 0.2215(2)
N14_4 N 0.9437(2) 0.5701(2) 0.2227(2)
N15_4 N 0.8970(3) 0.5707(3) 0.0677(2)
C2_4 C 0.7596(3) 0.7847(3) 0.0024(3)
C3_4 C 0.7073(3) 0.7271(3) 0.0201(3)
C4_4 C 0.6048(4) 0.6596(3) 0.0271(3)
C5_4 C 0.5133(3) 0.6289(3) 0.0074(3)
C6_4 C 0.5031(4) 0.5853(4) 0.0615(4)
H8_4 H 0.5577 0.5765 0.1142
C10_4 C 0.9854(3) 0.5911(3) 0.3620(3)
C11_4 C 0.9593(3) 0.5413(3) 0.2915(3)
C12_3 C 0.9274(3) 0.4947(3) 0.1817(3)
C13_3 C 0.9089(3) 0.4924(3) 0.1014(3)
C14_3 C 0.9068(4) 0.4163(4) 0.0646(3)
H12_3 H 0.9160 0.3636 0.0907
N12_2 N 0.9535(3) 0.0447(2) 0.7945(2)
N13_4 N 0.9305(3) 0.0755(2) 0.7215(2)
N16_3 N 0.8920(3) 0.0835(4) 0.4924(3)
N24_3 N 0.5519(3) 0.0294(3) 0.2316(3)
C12_4 C 0.9274(3) 0.0053(3) 0.6817(3)
C13_4 C 0.9089(3) 0.0076(3) 0.6014(3)
C14_4 C 0.9068(4) 0.0837(4) 0.5646(3)
H12_4 H 0.9160 0.1364 0.5907
C15_3 C 0.8833(4) 0.0063(5) 0.4597(3)
H13_3 H 0.8759 0.0034 0.4105
C22_3 C 0.4634(4) 0.0085(3) 0.2089(4)
H16_3 H 0.4102 0.0367 0.1646
H17_3 H 0.6852 0.0024 0.3118
Mn1_4 Mn 0.52180(5) 0.27974(5) 0.14716(5)
O1_4 O 0.4522(2) 0.2154(2) 0.1946(2)
H1_4 H 0.4852 0.1719 0.2235
H2_4 H 0.3975 0.1989 0.1533
O2_4 O 0.5856(2) 0.1597(2) 0.1509(2)
H3_4 H 0.6455 0.1670 0.1729
H4_4 H 0.5780 0.1226 0.1778
N3_4 N 0.2748(3) 0.1622(3) 0.0613(2)
N6_4 N 0.3894(2) 0.2861(3) 0.0227(2)
N7_4 N 0.5624(3) 0.3554(3) 0.0682(3)
N16_4 N 0.1080(3) 0.5835(4) 0.0076(3)
N19_4 N 0.7780(3) 0.1894(3) 0.2497(3)
N21_4 N 0.7293(3) 0.4586(3) 0.3272(3)
N22_4 N 0.6589(2) 0.3372(2) 0.2540(2)
N23_4 N 0.4778(3) 0.4043(3) 0.1856(3)
N24_4 N 0.4481(3) 0.5294(3) 0.2684(3)
C1_4 C 0.1934(3) 0.1217(4) 0.0420(3)
H7_4 H 0.1929 0.0802 0.0751
C7_4 C 0.6563(4) 0.4290(4) 0.0360(4)
H9_4 H 0.7171 0.4493 0.0541
C8_4 C 0.6476(4) 0.3857(4) 0.0884(4)
H10_4 H 0.7025 0.3760 0.1408
C15_4 C 0.1167(4) 0.5063(5) 0.0403(3)
H13_4 H 0.1241 0.5034 0.0895
C16_4 C 0.1153(4) 0.4301(4) 0.0041(3)
H14_4 H 0.1231 0.3776 0.0300
C17_4 C 0.8612(4) 0.1533(4) 0.2712(4)
H15_4 H 0.8639 0.0994 0.2518
C18_4 C 0.8093(3) 0.2642(3) 0.2907(3)
C19_4 C 0.7541(3) 0.3342(3) 0.2923(3)
C20_4 C 0.6470(3) 0.4164(3) 0.2774(3)
C21_4 C 0.5506(3) 0.4459(3) 0.2500(3)
C22_4 C 0.5366(4) 0.5085(3) 0.2911(4)
H16_4 H 0.5898 0.5367 0.3354
C23_4 C 0.3773(4) 0.4890(4) 0.2056(4)
H17_4 H 0.3148 0.5024 0.1882
C24_4 C 0.3890(4) 0.4274(4) 0.1633(4)
H18_4 H 0.3349 0.4011 0.1183
N11_4 N 0.9988(3) 0.3222(3) 0.6258(3)
C9_4 C 0.9749(4) 0.3152(3) 0.5492(3)
H11_4 H 0.9570 0.2627 0.5211
loop_
_geom_bond_atom_site_label_1
_geom_bond_atom_site_label_2
_geom_bond_site_symmetry_1
_geom_bond_site_symmetry_2
N12 N13 1_555 1_555
N13 C12 1_555 1_555
N16 C14 1_555 1_555
N24 C22 1_555 1_555
C14 C13 1_555 1_555
H12 C14 1_555 1_555
C15 N16 1_555 1_555
H13 C15 1_555 1_555
H16 C22 1_555 1_555
N12 Mn5 1_555 1_555
C12 C13 1_555 1_555
N10 C9 1_555 1_555
N11 C9 1_555 1_555
C9 H11 1_555 1_555
Mn6 N10 1_555 1_555
N28 Mn5 1_555 1_555
N30 Mn5 1_555 1_555
N28 N29 1_555 1_555
Mn1 O1 1_555 1_555
O1 H1 1_555 1_555
H2 O1 1_555 1_555
O2 Mn1 1_555 1_555
H3 O2 1_555 1_555
H4 O2 1_555 1_555
N3 C1 1_555 1_555
N6 Mn1 1_555 1_555
N7 Mn1 1_555 1_555
N17 N18 1_555 1_555
N18 C17 1_555 1_555
N19 C17 1_555 1_555
N20 N21 1_555 1_555
N21 C20 1_555 1_555
N22 Mn1 1_555 1_555
N23 Mn1 1_555 1_555
N24_2 C22_2 1_555 1_555
H7 C1 1_555 1_555
H9 C7 1_555 1_555
C8 N7 1_555 1_555
H10 C8 1_555 1_555
C15_2 N16_2 1_555 1_555
H13_2 C15_2 1_555 1_555
H14 C16 1_555 1_555
C17 H15 1_555 1_555
C18 N17 1_555 1_555
C19 N20 1_555 1_555
C20 N22 1_555 1_555
C21 N23 1_555 1_555
C22_2 C21 1_555 1_555
H16_2 C22_2 1_555 1_555
C23 N24_2 1_555 1_555
H17_2 C23 1_555 1_555
C24 N23 1_555 1_555
H18 C24 1_555 1_555
Mn6 N17 1_555 1_555
N19 C18 1_555 1_555
N20 Mn6 1_555 1_555
N22 C19 1_555 1_555
C7 C8 1_555 1_555
C15_2 C16 1_555 1_555
C18 C19 1_555 1_555
C20 C21 1_555 1_555
C23 C24 1_555 1_555
N26 C9_2 1_555 1_555
N11_2 C9_2 1_555 1_555
C9_2 H11_2 1_555 1_555
N25 Mn6 1_555 1_555
N27 Mn6 1_555 1_555
Mn1_2 O1_2 1_555 1_555
Mn4_2 O3 1_555 1_555
O1_2 H1_2 1_555 1_555
H2_2 O1_2 1_555 1_555
O2_2 Mn1_2 1_555 1_555
H3_2 O2_2 1_555 1_555
H4_2 O2_2 1_555 1_555
O3 H5 1_555 1_555
H6 O3 1_555 1_555
N1 Mn4_2 1_555 1_555
N2 N1 1_555 1_555
N3_2 C1_2 1_555 1_555
N4 Mn4_2 1_555 1_555
N5 N4 1_555 1_555
N6_2 Mn1_2 1_555 1_555
N7_2 Mn1_2 1_555 1_555
N8 C6 1_555 1_555
N14 Mn4_2 1_555 1_555
N15 Mn4_2 1_555 1_555
N29 C17_2 1_555 1_555
N19_2 C17_2 1_555 1_555
N30 N21_2 1_555 1_555
N21_2 C20_2 1_555 1_555
N22_2 Mn1_2 1_555 1_555
N23_2 Mn1_2 1_555 1_555
C1_2 N2 1_555 1_555
H7_2 C1_2 1_555 1_555
C2 N1 1_555 1_555
C3 N4 1_555 1_555
C4 N5 1_555 1_555
C5 N7_2 1_555 1_555
C6 C5 1_555 1_555
H8 C6 1_555 1_555
C7_2 N8 1_555 1_555
H9_2 C7_2 1_555 1_555
C8_2 N7_2 1_555 1_555
H10_2 C8_2 1_555 1_555
C10 N9 1_555 1_555
C16_2 N15 1_555 1_555
H14_2 C16_2 1_555 1_555
C17_2 H15_2 1_555 1_555
C18_2 N28 1_555 1_555
C19_2 N30 1_555 1_555
C20_2 N22_2 1_555 1_555
C21_2 N23_2 1_555 1_555
C24_2 N23_2 1_555 1_555
H18_2 C24_2 1_555 1_555
N3_2 C2 1_555 1_555
N6_2 C3 1_555 1_555
N6_2 C4 1_555 1_555
N14 C11 1_555 1_555
N19_2 C18_2 1_555 1_555
N22_2 C19_2 1_555 1_555
C2 C3 1_555 1_555
C4 C5 1_555 1_555
C7_2 C8_2 1_555 1_555
C10 C11 1_555 1_555
C18_2 C19_2 1_555 1_555
C20_2 C21_2 1_555 1_555
C23_2 C24_2 1_555 1_555
Mn4 O3_2 1_555 1_555
O3_2 H5_2 1_555 1_555
H6_2 O3_2 1_555 1_555
N1_2 Mn4 1_555 1_555
N2_2 N1_2 1_555 1_555
N4_2 Mn4 1_555 1_555
N5_2 N4_2 1_555 1_555
N8_2 C6_2 1_555 1_555
N27 N13_2 1_555 1_555
N13_2 C12_2 1_555 1_555
N14_2 Mn4 1_555 1_555
N15_2 Mn4 1_555 1_555
C2_2 N1_2 1_555 1_555
C3_2 N4_2 1_555 1_555
C4_2 N5_2 1_555 1_555
C6_2 C5_2 1_555 1_555
H8_2 C6_2 1_555 1_555
C10_2 N25 1_555 1_555
C11_2 N27 1_555 1_555
C12_2 N14_2 1_555 1_555
C13_2 N15_2 1_555 1_555
C14_2 C13_2 1_555 1_555
H12_2 C14_2 1_555 1_555
N14_2 C11_2 1_555 1_555
C2_2 C3_2 1_555 1_555
C4_2 C5_2 1_555 1_555
C10_2 C11_2 1_555 1_555
C12_2 C13_2 1_555 1_555
Mn1_3 O1_3 1_555 1_555
Mn2 O3_3 1_555 1_555
O1_3 H1_3 1_555 1_555
H2_3 O1_3 1_555 1_555
O2_3 Mn1_3 1_555 1_555
H3_3 O2_3 1_555 1_555
H4_3 O2_3 1_555 1_555
O3_3 H5_3 1_555 1_555
H6_3 O3_3 1_555 1_555
N1_3 Mn2 1_555 1_555
N2_3 N1_3 1_555 1_555
N3_3 C1_3 1_555 1_555
N4_3 Mn2 1_555 1_555
N5_3 N4_3 1_555 1_555
N6_3 Mn1_3 1_555 1_555
N7_3 Mn1_3 1_555 1_555
N8_3 C6_3 1_555 1_555
N14_3 Mn2 1_555 1_555
N15_3 Mn2 1_555 1_555
N17_2 N18_2 1_555 1_555
N18_2 C17_3 1_555 1_555
N19_3 C17_3 1_555 1_555
N20_2 N21_3 1_555 1_555
N21_3 C20_3 1_555 1_555
N22_3 Mn1_3 1_555 1_555
N23_3 Mn1_3 1_555 1_555
C1_3 N2_3 1_555 1_555
H7_3 C1_3 1_555 1_555
C2_3 N1_3 1_555 1_555
C3_3 N4_3 1_555 1_555
C4_3 N5_3 1_555 1_555
C5_3 N7_3 1_555 1_555
C6_3 C5_3 1_555 1_555
H8_3 C6_3 1_555 1_555
C7_3 N8_3 1_555 1_555
H9_3 C7_3 1_555 1_555
C8_3 N7_3 1_555 1_555
H10_3 C8_3 1_555 1_555
C10_3 N9_2 1_555 1_555
C16_3 N15_3 1_555 1_555
H14_3 C16_3 1_555 1_555
C17_3 H15_3 1_555 1_555
C18_3 N17_2 1_555 1_555
C19_3 N20_2 1_555 1_555
C20_3 N22_3 1_555 1_555
C21_3 N23_3 1_555 1_555
C24_3 N23_3 1_555 1_555
H18_3 C24_3 1_555 1_555
Mn7 N17_2 1_555 1_555
N3_3 C2_3 1_555 1_555
N6_3 C3_3 1_555 1_555
N6_3 C4_3 1_555 1_555
N14_3 C11_3 1_555 1_555
N19_3 C18_3 1_555 1_555
N20_2 Mn7 1_555 1_555
N22_3 C19_3 1_555 1_555
C2_3 C3_3 1_555 1_555
C4_3 C5_3 1_555 1_555
C7_3 C8_3 1_555 1_555
C10_3 C11_3 1_555 1_555
C18_3 C19_3 1_555 1_555
C20_3 C21_3 1_555 1_555
C23_3 C24_3 1_555 1_555
N10_2 C9_3 1_555 1_555
N11_3 C9_3 1_555 1_555
C9_3 H11_3 1_555 1_555
N25_2 Mn3 1_555 1_555
N26_2 Mn3 1_555 1_555
N27_2 Mn3 1_555 1_555
N28_2 Mn3 1_555 1_555
N30_2 Mn3 1_555 1_555
N28_2 N29_2 1_555 1_555
Mn2_2 O3_4 1_555 1_555
O3_4 H5_4 1_555 1_555
H6_4 O3_4 1_555 1_555
N1_4 Mn2_2 1_555 1_555
N2_4 N1_4 1_555 1_555
N4_4 Mn2_2 1_555 1_555
N5_4 N4_4 1_555 1_555
N8_4 C6_4 1_555 1_555
N27_2 N13_3 1_555 1_555
N13_3 C12_3 1_555 1_555
N14_4 Mn2_2 1_555 1_555
N15_4 Mn2_2 1_555 1_555
C2_4 N1_4 1_555 1_555
C3_4 N4_4 1_555 1_555
C4_4 N5_4 1_555 1_555
C6_4 C5_4 1_555 1_555
H8_4 C6_4 1_555 1_555
C10_4 N25_2 1_555 1_555
C11_4 N27_2 1_555 1_555
C12_3 N14_4 1_555 1_555
C13_3 N15_4 1_555 1_555
C14_3 C13_3 1_555 1_555
H12_3 C14_3 1_555 1_555
N14_4 C11_4 1_555 1_555
C2_4 C3_4 1_555 1_555
C4_4 C5_4 1_555 1_555
C10_4 C11_4 1_555 1_555
C12_3 C13_3 1_555 1_555
N12_2 N13_4 1_555 1_555
N13_4 C12_4 1_555 1_555
N16_3 C14_4 1_555 1_555
N24_3 C22_3 1_555 1_555
C14_4 C13_4 1_555 1_555
H12_4 C14_4 1_555 1_555
C15_3 N16_3 1_555 1_555
H13_3 C15_3 1_555 1_555
H16_3 C22_3 1_555 1_555
N12_2 Mn7 1_555 1_555
C12_4 C13_4 1_555 1_555
Mn1_4 O1_4 1_555 1_555
O1_4 H1_4 1_555 1_555
H2_4 O1_4 1_555 1_555
O2_4 Mn1_4 1_555 1_555
H3_4 O2_4 1_555 1_555
H4_4 O2_4 1_555 1_555
N3_4 C1_4 1_555 1_555
N6_4 Mn1_4 1_555 1_555
N7_4 Mn1_4 1_555 1_555
N29_2 C17_4 1_555 1_555
N19_4 C17_4 1_555 1_555
N30_2 N21_4 1_555 1_555
N21_4 C20_4 1_555 1_555
N22_4 Mn1_4 1_555 1_555
N23_4 Mn1_4 1_555 1_555
N24_4 C22_4 1_555 1_555
H7_4 C1_4 1_555 1_555
H9_4 C7_4 1_555 1_555
C8_4 N7_4 1_555 1_555
H10_4 C8_4 1_555 1_555
C15_4 N16_4 1_555 1_555
H13_4 C15_4 1_555 1_555
H14_4 C16_4 1_555 1_555
C17_4 H15_4 1_555 1_555
C18_4 N28_2 1_555 1_555
C19_4 N30_2 1_555 1_555
C20_4 N22_4 1_555 1_555
C21_4 N23_4 1_555 1_555
C22_4 C21_4 1_555 1_555
H16_4 C22_4 1_555 1_555
C23_4 N24_4 1_555 1_555
H17_4 C23_4 1_555 1_555
C24_4 N23_4 1_555 1_555
H18_4 C24_4 1_555 1_555
N19_4 C18_4 1_555 1_555
N22_4 C19_4 1_555 1_555
C7_4 C8_4 1_555 1_555
C15_4 C16_4 1_555 1_555
C18_4 C19_4 1_555 1_555
C20_4 C21_4 1_555 1_555
C23_4 C24_4 1_555 1_555
N26_2 C9_4 1_555 1_555
N11_4 C9_4 1_555 1_555
C9_4 H11_4 1_555 1_555

#END
