
###############################################################################
#
# This file contains modified crystal structure data generated from the
# MOF subset of the Cambridge Structural Database (CSD) v543 
# hosted by the Cambridge Crystallographic Data Centre (CCDC).
#
# This work is licensed under the Creative Commons
# Attribution-NonCommercial-ShareAlike 4.0 International License.
# To view a copy of this license, visit
# http://creativecommons.org/licenses/by-nc-sa/4.0/
# or send a letter to
# Creative Commons, PO Box 1866, Mountain View, CA 94042, USA.
#
# CIF created using the CSD Python API on 29 September 2022
# The structure has been converted into the P1 space group
# The structure has a 3D framework
# The original CSD entry TEDSIG is in the monoclinic crystal system
# The framework has been calculated to contain at least 10.0% void space
# The void calculation uses a probe of radius 1.32A, grid spacing 0.4
# H atom positions have been added when not included in the experimental data
#
###############################################################################

data_TEDSIG
_chemical_formula_moiety         '(C64 H64 N8 O24 Zn4)n'
_symmetry_cell_setting           triclinic
_symmetry_space_group_name_H-M   'P 1'
_symmetry_Int_Tables_number      1
_space_group_name_Hall           'P 1'
loop_
_symmetry_equiv_pos_site_id
_symmetry_equiv_pos_as_xyz
1 x,y,z
_cell_length_a                   10.1841(11)
_cell_length_b                   12.0386(13)
_cell_length_c                   18.830(2)
_cell_angle_alpha                90
_cell_angle_beta                 99.159(2)
_cell_angle_gamma                90
_cell_volume                     2279.17
loop_
_atom_site_label
_atom_site_type_symbol
_atom_site_fract_x
_atom_site_fract_y
_atom_site_fract_z
O3 O 0.37485(19) 0.64647(18) 0.07317(9)
O5 O 0.2307(3) 0.7843(2) 0.07162(10)
C11 C 0.2956(3) 0.7191(2) 0.04173(13)
Zn5 Zn 0.37939(3) 0.60079(2) 0.173540(13)
O6 O 0.94875(19) 0.87707(17) 0.83850(10)
Zn4 Zn 0.87939(3) 0.89921(2) 0.673540(13)
N3 N 0.7014(2) 0.91477(16) 0.70502(11)
O11 O 0.87485(19) 0.85353(18) 0.57317(9)
N4 N 0.5563(2) 0.96144(19) 0.77440(11)
C24 C 0.6726(2) 0.9894(2) 0.75261(13)
C26 C 0.5427(3) 0.9695(3) 0.90413(15)
H18 H 0.6380 0.9810 0.9160
H19 H 0.5265 0.8901 0.9031
C28 C 0.6012(2) 0.8369(2) 0.69716(14)
H20 H 0.5959 0.7752 0.6672
C31 C 0.5120(3) 0.8645(3) 0.73982(16)
H25 H 0.4352 0.8255 0.7449
O9 O 0.99404(17) 0.19185(15) 0.26309(8)
C1 C 0.9252(3) 0.9199(2) 0.30800(14)
O2 O 0.50596(17) 0.69185(15) 0.23691(8)
C2 C 0.5229(2) 0.6764(2) 0.30580(12)
C3 C 0.7274(2) 0.7967(2) 0.31127(12)
H1 H 0.7088 0.8034 0.2615
O4 O 0.8929(2) 0.93105(19) 0.24205(10)
C4 C 0.8614(2) 0.8457(2) 0.42382(13)
H2 H 0.9325 0.8845 0.4495
C5 C 0.7796(2) 0.7820(2) 0.46025(12)
C6 C 0.8373(2) 0.8516(2) 0.34887(12)
C7 C 0.6449(2) 0.7321(2) 0.34671(12)
C9 C 0.6739(2) 0.7236(2) 0.42119(12)
H3 H 0.6218 0.6782 0.4454
O15 O 0.7307(3) 0.7157(2) 0.57162(10)
C27 C 0.7956(3) 0.7809(2) 0.54173(13)
O16 O 0.44875(19) 0.62293(17) 0.33850(10)
H30 H 0.443434 0.545016 0.320965
O1 O 0.47245(17) 0.46229(15) 0.15449(9)
C1_2 C 0.5748(3) 0.4199(2) 0.19200(14)
C2_2 C 0.9771(2) 0.1764(2) 0.19420(12)
N1 N 0.2014(2) 0.58523(16) 0.20502(11)
C3_2 C 0.7726(2) 0.2967(2) 0.18873(12)
H1_2 H 0.7912 0.3034 0.2385
O4_2 O 0.6071(2) 0.43105(19) 0.25795(10)
C4_2 C 0.6386(2) 0.3457(2) 0.07618(13)
H2_2 H 0.5675 0.3845 0.0505
N2 N 0.0563(2) 0.53856(19) 0.27440(11)
C5_2 C 0.7204(2) 0.2820(2) 0.03975(12)
C6_2 C 0.6627(2) 0.3516(2) 0.15113(12)
C7_2 C 0.8551(2) 0.2321(2) 0.15329(12)
C8 C 0.1726(2) 0.5106(2) 0.25261(13)
C9_2 C 0.8261(2) 0.2236(2) 0.07881(12)
H3_2 H 0.8782 0.1782 0.0546
C10 C 0.0427(3) 0.5305(3) 0.40413(15)
H4 H 0.1380 0.5190 0.4160
H5 H 0.0265 0.6099 0.4031
C12 C 0.1012(2) 0.6631(2) 0.19716(14)
H6 H 0.0959 0.7248 0.1672
H10 H 0.0148 0.4042 0.3306
C15 C 0.0120(3) 0.6355(3) 0.23982(16)
C16 C 0.2516(3) 0.4112(2) 0.27630(17)
H12 H 0.3408 0.4209 0.2670
H13 H 0.2530 0.4003 0.3269
H14 H 0.2125 0.3475 0.2505
C29 C 0.0256(3) 0.5221(3) 0.53736(14)
H21 H 0.0121 0.6019 0.5376
H22 H 0.1205 0.5084 0.5485
C30 C 0.0056(3) 0.5171(3) 0.66951(14)
H23 H 0.1015 0.5089 0.6806
H25_2 H 0.0648 0.3255 0.7551
H29 H 0.620736 0.511054 0.269693
H30_2 H 0.943434 0.954984 0.820965
O7 O 0.52755(17) 0.53771(15) 0.84551(9)
C17 C 0.4252(3) 0.5801(2) 0.80800(14)
O10 O 0.00596(17) 0.80815(15) 0.73691(8)
C18 C 0.0229(2) 0.8236(2) 0.80580(12)
Zn3 Zn 0.62061(3) 0.39921(2) 0.826460(13)
C19 C 0.2274(2) 0.7033(2) 0.81127(12)
H15 H 0.2088 0.6966 0.7615
O14 O 0.3929(2) 0.56895(19) 0.74205(10)
C20 C 0.3614(2) 0.6543(2) 0.92382(13)
H16 H 0.4325 0.6155 0.9495
C21 C 0.2796(2) 0.7180(2) 0.96025(12)
C22 C 0.3373(2) 0.6484(2) 0.84887(12)
C23 C 0.1449(2) 0.7679(2) 0.84671(12)
C25 C 0.1739(2) 0.7764(2) 0.92119(12)
H17 H 0.1218 0.8218 0.9454
H29_2 H 0.379264 0.488946 0.730307
Zn1 Zn 0.12061(3) 0.10079(2) 0.326460(13)
N1_2 N 0.2986(2) 0.08523(16) 0.29498(11)
N2_2 N 0.4437(2) 0.03856(19) 0.22560(11)
C8_2 C 0.3274(2) 0.0106(2) 0.24739(13)
C10_2 C 0.4573(3) 0.0305(3) 0.09587(15)
H4_2 H 0.3620 0.0190 0.0840
H5_2 H 0.4735 0.1099 0.0969
C12_2 C 0.3988(2) 0.1631(2) 0.30284(14)
H6_2 H 0.4041 0.2248 0.3328
C15_2 C 0.4880(3) 0.1355(3) 0.26018(16)
H11 H 0.5648 0.1745 0.2551
O12 O 0.12515(19) 0.14647(18) 0.42683(9)
O16_2 O 0.05125(19) 0.12293(17) 0.16150(10)
H30_3 H 0.0565664 0.0450163 0.179035
O13 O 0.62515(19) 0.35353(18) 0.92683(9)
O15_2 O 0.7693(3) 0.2157(2) 0.92838(10)
C27_2 C 0.7044(3) 0.2809(2) 0.95827(13)
O5_2 O 0.2693(3) 0.2843(2) 0.42838(10)
C11_2 C 0.2044(3) 0.2191(2) 0.45827(13)
C13 C 0.9744(3) 0.4779(3) 0.46264(14)
H7 H 0.9879 0.3981 0.4624
H8 H 0.8795 0.4916 0.4515
C14 C 0.9944(3) 0.4829(3) 0.33049(14)
H9 H 0.8985 0.4911 0.3194
H11_2 H 0.9352 0.6745 0.2449
O6_2 O 0.55125(19) 0.37707(17) 0.66150(10)
C17_2 C 0.0748(3) 0.0801(2) 0.69200(14)
O10_2 O 0.49404(17) 0.30815(15) 0.76309(8)
C18_2 C 0.4771(2) 0.3236(2) 0.69420(12)
N3_2 N 0.7986(2) 0.41477(16) 0.79498(11)
C19_2 C 0.2726(2) 0.2033(2) 0.68873(12)
H15_2 H 0.2912 0.1966 0.7385
O14_2 O 0.1071(2) 0.06895(19) 0.75795(10)
C20_2 C 0.1386(2) 0.1543(2) 0.57618(13)
H16_2 H 0.0675 0.1155 0.5505
N4_2 N 0.9437(2) 0.46144(19) 0.72560(11)
C21_2 C 0.2204(2) 0.2180(2) 0.53975(12)
C22_2 C 0.1627(2) 0.1484(2) 0.65113(12)
C23_2 C 0.3551(2) 0.2679(2) 0.65329(12)
C24_2 C 0.8274(2) 0.4894(2) 0.74739(13)
C25_2 C 0.3261(2) 0.2764(2) 0.57881(12)
H17_2 H 0.3782 0.3218 0.5546
C26_2 C 0.9573(3) 0.4695(3) 0.59587(15)
H18_2 H 0.8620 0.4810 0.5840
H19_2 H 0.9735 0.3901 0.5969
C28_2 C 0.8988(2) 0.3369(2) 0.80284(14)
H20_2 H 0.9041 0.2752 0.8328
H24 H 0.9852 0.5958 0.6694
C31_2 C 0.9880(3) 0.3645(3) 0.76018(16)
C32 C 0.7484(3) 0.5888(2) 0.72370(17)
H26 H 0.6592 0.5791 0.7330
H27 H 0.7470 0.5997 0.6731
H28 H 0.7875 0.6525 0.7495
H30_4 H 0.556566 0.454984 0.679035
O8 O 0.97245(17) 0.03771(15) 0.65449(9)
C29_2 C 0.4744(3) 0.0221(3) 0.96264(14)
H21_2 H 0.4879 0.1019 0.9624
H22_2 H 0.3795 0.0084 0.9515
C30_2 C 0.4944(3) 0.0171(3) 0.83049(14)
H23_2 H 0.3985 0.0089 0.8194
H24_2 H 0.5148 0.0958 0.8306
C32_2 C 0.7516(3) 0.0888(2) 0.77630(17)
H26_2 H 0.8408 0.0791 0.7670
H27_2 H 0.7530 0.0997 0.8269
H28_2 H 0.7125 0.1525 0.7505
O1_2 O 0.02755(17) 0.96229(15) 0.34551(9)
C13_2 C 0.5256(3) 0.9779(3) 0.03736(14)
H7_2 H 0.5121 0.8981 0.0376
H8_2 H 0.6205 0.9916 0.0485
C14_2 C 0.5056(3) 0.9829(3) 0.16951(14)
H9_2 H 0.6015 0.9911 0.1806
H10_2 H 0.4852 0.9042 0.1694
C16_2 C 0.2484(3) 0.9112(2) 0.22370(17)
H12_2 H 0.1592 0.9209 0.2330
H13_2 H 0.2470 0.9003 0.1731
H14_2 H 0.2875 0.8475 0.2495
H29_3 H 0.120736 0.988946 0.769693
H29_4 H 0.879264 0.0110545 0.230307
loop_
_geom_bond_atom_site_label_1
_geom_bond_atom_site_label_2
_geom_bond_site_symmetry_1
_geom_bond_site_symmetry_2
O3 C11 1_555 1_555
O5 C11 1_555 1_555
Zn5 O3 1_555 1_555
N3 Zn4 1_555 1_555
O11 Zn4 1_555 1_555
N4 C24 1_555 1_555
C24 N3 1_555 1_555
C26 H18 1_555 1_555
H19 C26 1_555 1_555
C28 N3 1_555 1_555
H20 C28 1_555 1_555
C31 N4 1_555 1_555
H25 C31 1_555 1_555
C28 C31 1_555 1_555
C1 O4 1_555 1_555
O2 C2 1_555 1_555
C2 C7 1_555 1_555
C3 H1 1_555 1_555
C4 H2 1_555 1_555
C5 C4 1_555 1_555
C6 C1 1_555 1_555
C7 C3 1_555 1_555
C9 C5 1_555 1_555
H3 C9 1_555 1_555
Zn5 O2 1_555 1_555
O11 C27 1_555 1_555
O15 C27 1_555 1_555
C27 C5 1_555 1_555
O16 C2 1_555 1_555
C3 C6 1_555 1_555
C4 C6 1_555 1_555
C7 C9 1_555 1_555
O16 H30 1_555 1_555
O1 C1_2 1_555 1_555
C1_2 O4_2 1_555 1_555
O9 C2_2 1_555 1_555
C2_2 C7_2 1_555 1_555
Zn5 O1 1_555 1_555
N1 Zn5 1_555 1_555
C3_2 H1_2 1_555 1_555
C4_2 H2_2 1_555 1_555
N2 C8 1_555 1_555
C5_2 C4_2 1_555 1_555
C6_2 C1_2 1_555 1_555
C7_2 C3_2 1_555 1_555
C8 N1 1_555 1_555
C9_2 C5_2 1_555 1_555
H3_2 C9_2 1_555 1_555
C10 H4 1_555 1_555
H5 C10 1_555 1_555
C12 N1 1_555 1_555
H6 C12 1_555 1_555
C15 N2 1_555 1_555
C16 C8 1_555 1_555
H12 C16 1_555 1_555
H13 C16 1_555 1_555
H14 C16 1_555 1_555
H21 C29 1_555 1_555
H22 C29 1_555 1_555
H23 C30 1_555 1_555
C3_2 C6_2 1_555 1_555
C4_2 C6_2 1_555 1_555
C7_2 C9_2 1_555 1_555
C12 C15 1_555 1_555
O4_2 H29 1_555 1_555
O6 H30_2 1_555 1_555
O7 C17 1_555 1_555
C17 O14 1_555 1_555
O10 C18 1_555 1_555
C18 C23 1_555 1_555
Zn3 O7 1_555 1_555
C19 H15 1_555 1_555
C20 H16 1_555 1_555
C21 C20 1_555 1_555
C22 C17 1_555 1_555
C23 C19 1_555 1_555
C25 C21 1_555 1_555
H17 C25 1_555 1_555
C19 C22 1_555 1_555
C20 C22 1_555 1_555
C23 C25 1_555 1_555
O14 H29_2 1_555 1_555
N1_2 Zn1 1_555 1_555
N2_2 C8_2 1_555 1_555
C8_2 N1_2 1_555 1_555
C10_2 H4_2 1_555 1_555
H5_2 C10_2 1_555 1_555
C12_2 N1_2 1_555 1_555
H6_2 C12_2 1_555 1_555
C15_2 N2_2 1_555 1_555
H11 C15_2 1_555 1_555
O12 Zn1 1_555 1_555
C12_2 C15_2 1_555 1_555
O16_2 H30_3 1_555 1_555
Zn3 O13 1_555 1_555
O13 C27_2 1_555 1_555
O15_2 C27_2 1_555 1_555
O12 C11_2 1_555 1_555
O5_2 C11_2 1_555 1_555
C11_2 C21_2 1_555 1_555
H7 C13 1_555 1_555
H8 C13 1_555 1_555
H9 C14 1_555 1_555
O6_2 C18_2 1_555 1_555
C17_2 O14_2 1_555 1_555
O10_2 C18_2 1_555 1_555
C18_2 C23_2 1_555 1_555
Zn3 O10_2 1_555 1_555
N3_2 Zn3 1_555 1_555
C19_2 H15_2 1_555 1_555
C20_2 H16_2 1_555 1_555
N4_2 C24_2 1_555 1_555
C21_2 C20_2 1_555 1_555
C22_2 C17_2 1_555 1_555
C23_2 C19_2 1_555 1_555
C24_2 N3_2 1_555 1_555
C25_2 C21_2 1_555 1_555
H17_2 C25_2 1_555 1_555
C26_2 H18_2 1_555 1_555
H19_2 C26_2 1_555 1_555
C28_2 N3_2 1_555 1_555
H20_2 C28_2 1_555 1_555
C31_2 N4_2 1_555 1_555
C32 C24_2 1_555 1_555
H26 C32 1_555 1_555
H27 C32 1_555 1_555
H28 C32 1_555 1_555
C19_2 C22_2 1_555 1_555
C20_2 C22_2 1_555 1_555
C23_2 C25_2 1_555 1_555
C28_2 C31_2 1_555 1_555
O6_2 H30_4 1_555 1_555
H21_2 C29_2 1_555 1_555
H22_2 C29_2 1_555 1_555
H23_2 C30_2 1_555 1_555
H24_2 C30_2 1_555 1_555
H26_2 C32_2 1_555 1_555
H27_2 C32_2 1_555 1_555
H28_2 C32_2 1_555 1_555
H7_2 C13_2 1_555 1_555
H8_2 C13_2 1_555 1_555
H9_2 C14_2 1_555 1_555
H10_2 C14_2 1_555 1_555
H12_2 C16_2 1_555 1_555
H13_2 C16_2 1_555 1_555
H14_2 C16_2 1_555 1_555

#END
