
###############################################################################
#
# This file contains modified crystal structure data generated from the
# MOF subset of the Cambridge Structural Database (CSD) v543 
# hosted by the Cambridge Crystallographic Data Centre (CCDC).
#
# This work is licensed under the Creative Commons
# Attribution-NonCommercial-ShareAlike 4.0 International License.
# To view a copy of this license, visit
# http://creativecommons.org/licenses/by-nc-sa/4.0/
# or send a letter to
# Creative Commons, PO Box 1866, Mountain View, CA 94042, USA.
#
# CIF created using the CSD Python API on 29 September 2022
# The structure has been converted into the P1 space group
# The structure has a 3D framework
# The original CSD entry TEFNUR is in the tetragonal crystal system
# The original CSD entry TEFNUR is in a Sohncke space group
# The framework has been calculated to contain at least 10.0% void space
# The void calculation uses a probe of radius 1.32A, grid spacing 0.4
#
###############################################################################

data_TEFNUR
_chemical_formula_moiety         '(C96 H64 Co8 N32)n'
_symmetry_cell_setting           triclinic
_symmetry_space_group_name_H-M   'P 1'
_symmetry_Int_Tables_number      1
_space_group_name_Hall           'P 1'
loop_
_symmetry_equiv_pos_site_id
_symmetry_equiv_pos_as_xyz
1 x,y,z
_cell_length_a                   16.2017(14)
_cell_length_b                   16.2017(14)
_cell_length_c                   12.3386(11)
_cell_angle_alpha                90
_cell_angle_beta                 90
_cell_angle_gamma                90
_cell_volume                     3238.82
loop_
_atom_site_label
_atom_site_type_symbol
_atom_site_fract_x
_atom_site_fract_y
_atom_site_fract_z
H1 H 0.397571 0.256929 0.007402
N3 N 0.7337(5) 0.6143(5) 0.2389(6)
N4 N 0.7600(6) 0.6450(5) 0.1427(6)
C7 C 0.6840(7) 0.5333(7) 0.1102(8)
C8 C 0.7322(8) 0.5961(8) 0.0661(8)
C9 C 0.6896(9) 0.5486(8) 0.2200(9)
H6 H 0.665098 0.516279 0.273349
C10 C 0.6352(9) 0.4698(9) 0.0534(10)
C11 C 0.5846(10) 0.4189(10) 0.1080(11)
H7 H 0.586020 0.418974 0.183347
C12 C 0.5320(11) 0.3677(11) 0.0566(10)
H8 H 0.496730 0.334191 0.096691
Co2 Co 0.82203(14) 0.750000 0.125000
Co3 Co 0.750000 0.67797(14) 0.375000
N5 N 0.2663(5) 0.1143(5) 0.0111(6)
Co1 Co 0.250000 0.17797(14) 0.875000
N1 N 0.3857(5) 0.2663(5) 0.7611(6)
N2 N 0.3550(5) 0.2400(6) 0.8573(6)
C1 C 0.4667(7) 0.3160(7) 0.8898(8)
C2 C 0.4039(8) 0.2678(8) 0.9339(8)
C3 C 0.4514(8) 0.3104(9) 0.7800(9)
H2 H 0.483721 0.334902 0.726651
C4 C 0.5302(9) 0.3648(9) 0.9466(10)
C5 C 0.5811(10) 0.4154(10) 0.8920(11)
H3 H 0.581026 0.413980 0.816653
C6 C 0.6323(11) 0.4680(11) 0.9434(10)
H4 H 0.665809 0.503270 0.903309
H5 H 0.743071 0.602429 0.992598
Co4 Co 0.32203(14) 0.250000 0.625000
N6 N 0.2337(5) 0.1143(5) 0.7389(6)
N7 N 0.1450(5) 0.2400(6) 0.8927(6)
Co1_2 Co 0.250000 0.32203(14) 0.375000
N1_2 N 0.1143(5) 0.2337(5) 0.2611(6)
N2_2 N 0.1450(5) 0.2600(6) 0.3573(6)
C1_2 C 0.0333(7) 0.1840(7) 0.3898(8)
C2_2 C 0.0961(8) 0.2322(8) 0.4339(8)
H1_2 H 0.102429 0.243071 0.507402
C3_2 C 0.0486(8) 0.1896(9) 0.2800(9)
H2_2 H 0.016279 0.165098 0.226651
H8_2 H 0.003270 0.165809 0.596691
Co4_2 Co 0.17797(14) 0.250000 0.125000
N5_2 N 0.2337(5) 0.3857(5) 0.5111(6)
N6_2 N 0.2663(5) 0.3857(5) 0.2389(6)
N7_2 N 0.3550(5) 0.2600(6) 0.3927(6)
H4_2 H 0.834191 0.996730 0.403309
N3_2 N 0.7663(5) 0.8857(5) 0.7389(6)
N4_2 N 0.7400(6) 0.8550(5) 0.6427(6)
C7_2 C 0.8160(7) 0.9667(7) 0.6102(8)
C8_2 C 0.7678(8) 0.9039(8) 0.5661(8)
H5_2 H 0.756929 0.897571 0.492598
C9_2 C 0.8104(9) 0.9514(8) 0.7200(9)
H6_2 H 0.834902 0.983721 0.773349
Co2_2 Co 0.67797(14) 0.750000 0.625000
Co3_2 Co 0.750000 0.82203(14) 0.875000
C4_2 C 0.6352(9) 0.0302(9) 0.1966(10)
C5_2 C 0.5846(10) 0.0811(10) 0.1420(11)
H3_2 H 0.586020 0.081026 0.066653
C6_2 C 0.5320(11) 0.1323(11) 0.1934(10)
H4_3 H 0.496730 0.165809 0.153309
N3_3 N 0.3857(5) 0.2337(5) 0.4889(6)
C7_3 C 0.4667(7) 0.1840(7) 0.3602(8)
C8_3 C 0.4039(8) 0.2322(8) 0.3161(8)
H5_3 H 0.397571 0.243071 0.242598
C9_3 C 0.4514(8) 0.1896(9) 0.4700(9)
H6_3 H 0.483721 0.165098 0.523349
C10_2 C 0.5302(9) 0.1352(9) 0.3034(10)
C11_2 C 0.5811(10) 0.0846(10) 0.3580(11)
H7_2 H 0.581026 0.086020 0.433347
C12_2 C 0.6323(11) 0.0320(11) 0.3066(10)
N1_3 N 0.7337(5) 0.8857(5) 0.0111(6)
N2_3 N 0.7600(6) 0.8550(5) 0.1073(6)
C1_3 C 0.6840(7) 0.9667(7) 0.1398(8)
C2_3 C 0.7322(8) 0.9039(8) 0.1839(8)
H1_3 H 0.743071 0.897571 0.257402
C3_3 C 0.6896(9) 0.9514(8) 0.0300(9)
H8_3 H 0.665809 0.996730 0.346691
N5_3 N 0.8857(5) 0.7663(5) 0.2611(6)
H2_3 H 0.665098 0.983721 0.976651
N6_3 N 0.8857(5) 0.7337(5) 0.9889(6)
H6_4 H 0.016279 0.334902 0.023349
H4_4 H 0.003270 0.334191 0.653309
N3_4 N 0.1143(5) 0.2663(5) 0.9889(6)
C7_4 C 0.0333(7) 0.3160(7) 0.8602(8)
C8_4 C 0.0961(8) 0.2678(8) 0.8161(8)
H5_4 H 0.102429 0.256929 0.742598
C9_4 C 0.0486(8) 0.3104(9) 0.9700(9)
N1_4 N 0.7663(5) 0.6143(5) 0.5111(6)
N2_4 N 0.7400(6) 0.6450(5) 0.6073(6)
C1_4 C 0.8160(7) 0.5333(7) 0.6398(8)
C2_4 C 0.7678(8) 0.5961(8) 0.6839(8)
H1_4 H 0.756929 0.602429 0.757402
C3_4 C 0.8104(9) 0.5486(8) 0.5300(9)
H2_4 H 0.834902 0.516279 0.476651
C4_3 C 0.8648(9) 0.4698(9) 0.6966(10)
C5_3 C 0.9154(10) 0.4189(10) 0.6420(11)
H3_3 H 0.913980 0.418974 0.566653
C6_3 C 0.9680(11) 0.3677(11) 0.6934(10)
C10_3 C 0.9698(9) 0.3648(9) 0.8034(10)
C11_3 C 0.9189(10) 0.4154(10) 0.8580(11)
H7_3 H 0.918974 0.413980 0.933347
C12_3 C 0.8677(11) 0.4680(11) 0.8066(10)
H8_4 H 0.834191 0.503270 0.846691
N5_4 N 0.6143(5) 0.7337(5) 0.7611(6)
N6_4 N 0.6143(5) 0.7663(5) 0.4889(6)
H4_5 H 0.165809 0.003270 0.403309
N4_3 N 0.2600(6) 0.1450(5) 0.6427(6)
C7_5 C 0.1840(7) 0.0333(7) 0.6102(8)
C8_5 C 0.2322(8) 0.0961(8) 0.5661(8)
H5_5 H 0.243071 0.102429 0.492598
C9_5 C 0.1896(9) 0.0486(8) 0.7200(9)
H6_5 H 0.165098 0.016279 0.773349
N2_5 N 0.8550(5) 0.7400(6) 0.3573(6)
C1_5 C 0.9667(7) 0.8160(7) 0.3898(8)
C2_5 C 0.9039(8) 0.7678(8) 0.4339(8)
H1_5 H 0.897571 0.756929 0.507402
C3_5 C 0.9514(8) 0.8104(9) 0.2800(9)
H2_5 H 0.983721 0.834902 0.226651
H8_5 H 0.996730 0.834191 0.596691
N7_3 N 0.6450(5) 0.7400(6) 0.3927(6)
H1_6 H 0.602429 0.743071 0.007402
N4_4 N 0.2400(6) 0.3550(5) 0.1427(6)
C7_6 C 0.3160(7) 0.4667(7) 0.1102(8)
C8_6 C 0.2678(8) 0.4039(8) 0.0661(8)
C9_6 C 0.3104(9) 0.4514(8) 0.2200(9)
H6_6 H 0.334902 0.483721 0.273349
C10_4 C 0.3648(9) 0.5302(9) 0.0534(10)
C11_4 C 0.4154(10) 0.5811(10) 0.1080(11)
H7_4 H 0.413980 0.581026 0.183347
C12_4 C 0.4680(11) 0.6323(11) 0.0566(10)
H8_6 H 0.503270 0.665809 0.096691
N2_6 N 0.6450(5) 0.7600(6) 0.8573(6)
C1_6 C 0.5333(7) 0.6840(7) 0.8898(8)
C2_6 C 0.5961(8) 0.7322(8) 0.9339(8)
C3_6 C 0.5486(8) 0.6896(9) 0.7800(9)
H2_6 H 0.516279 0.665098 0.726651
C4_4 C 0.4698(9) 0.6352(9) 0.9466(10)
C5_4 C 0.4189(10) 0.5846(10) 0.8920(11)
H3_4 H 0.418974 0.586020 0.816653
C6_4 C 0.3677(11) 0.5320(11) 0.9434(10)
H4_6 H 0.334191 0.496730 0.903309
H5_6 H 0.256929 0.397571 0.992598
N7_4 N 0.8550(5) 0.7600(6) 0.8927(6)
N2_7 N 0.2600(6) 0.3550(5) 0.6073(6)
C1_7 C 0.1840(7) 0.4667(7) 0.6398(8)
C2_7 C 0.2322(8) 0.4039(8) 0.6839(8)
H1_7 H 0.243071 0.397571 0.757402
C3_7 C 0.1896(9) 0.4514(8) 0.5300(9)
H2_7 H 0.165098 0.483721 0.476651
C4_5 C 0.1352(9) 0.5302(9) 0.6966(10)
C5_5 C 0.0846(10) 0.5811(10) 0.6420(11)
H3_5 H 0.086020 0.581026 0.566653
C6_5 C 0.0320(11) 0.6323(11) 0.6934(10)
C10_5 C 0.0302(9) 0.6352(9) 0.8034(10)
C11_5 C 0.0811(10) 0.5846(10) 0.8580(11)
H7_5 H 0.081026 0.586020 0.933347
C12_5 C 0.1323(11) 0.5320(11) 0.8066(10)
H8_7 H 0.165809 0.496730 0.846691
H6_7 H 0.983721 0.665098 0.023349
H4_7 H 0.996730 0.665809 0.653309
C7_7 C 0.9667(7) 0.6840(7) 0.8602(8)
C8_7 C 0.9039(8) 0.7322(8) 0.8161(8)
H5_7 H 0.897571 0.743071 0.742598
C9_7 C 0.9514(8) 0.6896(9) 0.9700(9)
N2_8 N 0.2400(6) 0.1450(5) 0.1073(6)
C1_8 C 0.3160(7) 0.0333(7) 0.1398(8)
C2_8 C 0.2678(8) 0.0961(8) 0.1839(8)
H1_8 H 0.256929 0.102429 0.257402
C3_8 C 0.3104(9) 0.0486(8) 0.0300(9)
H8_8 H 0.334191 0.003270 0.346691
H2_8 H 0.334902 0.016279 0.976651
C4_6 C 0.3648(9) 0.9698(9) 0.1966(10)
C5_6 C 0.4154(10) 0.9189(10) 0.1420(11)
H3_6 H 0.413980 0.918974 0.066653
C6_6 C 0.4680(11) 0.8677(11) 0.1934(10)
H4_8 H 0.503270 0.834191 0.153309
C7_8 C 0.5333(7) 0.8160(7) 0.3602(8)
C8_8 C 0.5961(8) 0.7678(8) 0.3161(8)
H5_8 H 0.602429 0.756929 0.242598
C9_8 C 0.5486(8) 0.8104(9) 0.4700(9)
H6_8 H 0.516279 0.834902 0.523349
C10_6 C 0.4698(9) 0.8648(9) 0.3034(10)
C11_6 C 0.4189(10) 0.9154(10) 0.3580(11)
H7_6 H 0.418974 0.913980 0.433347
C12_6 C 0.3677(11) 0.9680(11) 0.3066(10)
C4_7 C 0.9698(9) 0.1352(9) 0.4466(10)
C5_7 C 0.9189(10) 0.0846(10) 0.3920(11)
H3_7 H 0.918974 0.086020 0.316653
C6_7 C 0.8677(11) 0.0320(11) 0.4434(10)
C10_7 C 0.8648(9) 0.0302(9) 0.5534(10)
C11_7 C 0.9154(10) 0.0811(10) 0.6080(11)
H7_7 H 0.913980 0.081026 0.683347
C12_7 C 0.9680(11) 0.1323(11) 0.5566(10)
C4_8 C 0.0302(9) 0.8648(9) 0.4466(10)
C5_8 C 0.0811(10) 0.9154(10) 0.3920(11)
H3_8 H 0.081026 0.913980 0.316653
C6_8 C 0.1323(11) 0.9680(11) 0.4434(10)
C10_8 C 0.1352(9) 0.9698(9) 0.5534(10)
C11_8 C 0.0846(10) 0.9189(10) 0.6080(11)
H7_8 H 0.086020 0.918974 0.683347
C12_8 C 0.0320(11) 0.8677(11) 0.5566(10)
loop_
_geom_bond_atom_site_label_1
_geom_bond_atom_site_label_2
_geom_bond_site_symmetry_1
_geom_bond_site_symmetry_2
N3 N4 1_555 1_555
N4 C8 1_555 1_555
C7 C8 1_555 1_555
C9 N3 1_555 1_555
H6 C9 1_555 1_555
C11 C10 1_555 1_555
H7 C11 1_555 1_555
H8 C12 1_555 1_555
Co2 N4 1_555 1_555
Co3 N3 1_555 1_555
C7 C9 1_555 1_555
C7 C10 1_555 1_555
C11 C12 1_555 1_555
Co1 N2 1_555 1_555
N1 N2 1_555 1_555
N2 C2 1_555 1_555
C1 C2 1_555 1_555
C3 N1 1_555 1_555
H2 C3 1_555 1_555
C4 C1 1_555 1_555
C5 C4 1_555 1_555
H3 C5 1_555 1_555
C6 C5 1_555 1_555
H4 C6 1_555 1_555
Co4 N1 1_555 1_555
N6 Co1 1_555 1_555
N7 Co1 1_555 1_555
C1 C3 1_555 1_555
Co1_2 N2_2 1_555 1_555
N1_2 N2_2 1_555 1_555
N2_2 C2_2 1_555 1_555
C1_2 C2_2 1_555 1_555
C2_2 H1_2 1_555 1_555
C3_2 N1_2 1_555 1_555
H2_2 C3_2 1_555 1_555
Co4_2 N1_2 1_555 1_555
N5_2 Co1_2 1_555 1_555
N6_2 Co1_2 1_555 1_555
N7_2 Co1_2 1_555 1_555
C1_2 C3_2 1_555 1_555
N3_2 N4_2 1_555 1_555
N4_2 C8_2 1_555 1_555
C7_2 C8_2 1_555 1_555
C8_2 H5_2 1_555 1_555
C9_2 N3_2 1_555 1_555
H6_2 C9_2 1_555 1_555
Co2_2 N4_2 1_555 1_555
Co3_2 N3_2 1_555 1_555
C7_2 C9_2 1_555 1_555
C5_2 C4_2 1_555 1_555
H3_2 C5_2 1_555 1_555
C6_2 C5_2 1_555 1_555
H4_3 C6_2 1_555 1_555
N3_3 N7_2 1_555 1_555
N7_2 C8_3 1_555 1_555
C7_3 C8_3 1_555 1_555
C8_3 H5_3 1_555 1_555
C9_3 N3_3 1_555 1_555
H6_3 C9_3 1_555 1_555
C10_2 C6_2 1_555 1_555
C11_2 C10_2 1_555 1_555
H7_2 C11_2 1_555 1_555
C12_2 C4_2 1_555 1_555
Co4 N3_3 1_555 1_555
C7_3 C9_3 1_555 1_555
C7_3 C10_2 1_555 1_555
C11_2 C12_2 1_555 1_555
Co2 N2_3 1_555 1_555
N1_3 N2_3 1_555 1_555
N2_3 C2_3 1_555 1_555
C1_3 C2_3 1_555 1_555
C2_3 H1_3 1_555 1_555
C3_3 N1_3 1_555 1_555
N5_3 Co2 1_555 1_555
C1_3 C3_3 1_555 1_555
N3_4 N7 1_555 1_555
N7 C8_4 1_555 1_555
C7_4 C8_4 1_555 1_555
C8_4 H5_4 1_555 1_555
C9_4 N3_4 1_555 1_555
C7_4 C9_4 1_555 1_555
Co2_2 N2_4 1_555 1_555
N1_4 N2_4 1_555 1_555
N2_4 C2_4 1_555 1_555
C1_4 C2_4 1_555 1_555
C2_4 H1_4 1_555 1_555
C3_4 N1_4 1_555 1_555
H2_4 C3_4 1_555 1_555
C4_3 C1_4 1_555 1_555
C5_3 C4_3 1_555 1_555
H3_3 C5_3 1_555 1_555
C6_3 C5_3 1_555 1_555
C10_3 C6_3 1_555 1_555
C11_3 C10_3 1_555 1_555
H7_3 C11_3 1_555 1_555
C12_3 C4_3 1_555 1_555
H8_4 C12_3 1_555 1_555
Co3 N1_4 1_555 1_555
N5_4 Co2_2 1_555 1_555
N6_4 Co2_2 1_555 1_555
C1_4 C3_4 1_555 1_555
C11_3 C12_3 1_555 1_555
N6 N4_3 1_555 1_555
N4_3 C8_5 1_555 1_555
C7_5 C8_5 1_555 1_555
C8_5 H5_5 1_555 1_555
C9_5 N6 1_555 1_555
H6_5 C9_5 1_555 1_555
Co4 N4_3 1_555 1_555
C7_5 C9_5 1_555 1_555
Co3 N2_5 1_555 1_555
N5_3 N2_5 1_555 1_555
N2_5 C2_5 1_555 1_555
C1_5 C2_5 1_555 1_555
C2_5 H1_5 1_555 1_555
C3_5 N5_3 1_555 1_555
H2_5 C3_5 1_555 1_555
N7_3 Co3 1_555 1_555
C1_5 C3_5 1_555 1_555
N6_2 N4_4 1_555 1_555
N4_4 C8_6 1_555 1_555
C7_6 C8_6 1_555 1_555
C9_6 N6_2 1_555 1_555
H6_6 C9_6 1_555 1_555
C11_4 C10_4 1_555 1_555
H7_4 C11_4 1_555 1_555
H8_6 C12_4 1_555 1_555
Co4_2 N4_4 1_555 1_555
C7_6 C9_6 1_555 1_555
C7_6 C10_4 1_555 1_555
C11_4 C12_4 1_555 1_555
Co3_2 N2_6 1_555 1_555
N5_4 N2_6 1_555 1_555
N2_6 C2_6 1_555 1_555
C1_6 C2_6 1_555 1_555
C3_6 N5_4 1_555 1_555
H2_6 C3_6 1_555 1_555
C4_4 C1_6 1_555 1_555
C5_4 C4_4 1_555 1_555
H3_4 C5_4 1_555 1_555
C6_4 C5_4 1_555 1_555
H4_6 C6_4 1_555 1_555
N7_4 Co3_2 1_555 1_555
C1_6 C3_6 1_555 1_555
Co4 N2_7 1_555 1_555
N5_2 N2_7 1_555 1_555
N2_7 C2_7 1_555 1_555
C1_7 C2_7 1_555 1_555
C2_7 H1_7 1_555 1_555
C3_7 N5_2 1_555 1_555
H2_7 C3_7 1_555 1_555
C4_5 C1_7 1_555 1_555
C5_5 C4_5 1_555 1_555
H3_5 C5_5 1_555 1_555
C6_5 C5_5 1_555 1_555
C10_5 C6_5 1_555 1_555
C11_5 C10_5 1_555 1_555
H7_5 C11_5 1_555 1_555
C12_5 C4_5 1_555 1_555
H8_7 C12_5 1_555 1_555
C1_7 C3_7 1_555 1_555
C11_5 C12_5 1_555 1_555
N6_3 N7_4 1_555 1_555
N7_4 C8_7 1_555 1_555
C7_7 C8_7 1_555 1_555
C8_7 H5_7 1_555 1_555
C9_7 N6_3 1_555 1_555
C7_7 C9_7 1_555 1_555
Co4_2 N2_8 1_555 1_555
N5 N2_8 1_555 1_555
N2_8 C2_8 1_555 1_555
C1_8 C2_8 1_555 1_555
C2_8 H1_8 1_555 1_555
C3_8 N5 1_555 1_555
C1_8 C3_8 1_555 1_555
C5_6 C4_6 1_555 1_555
H3_6 C5_6 1_555 1_555
C6_6 C5_6 1_555 1_555
H4_8 C6_6 1_555 1_555
N6_4 N7_3 1_555 1_555
N7_3 C8_8 1_555 1_555
C7_8 C8_8 1_555 1_555
C8_8 H5_8 1_555 1_555
C9_8 N6_4 1_555 1_555
H6_8 C9_8 1_555 1_555
C10_6 C6_6 1_555 1_555
C11_6 C10_6 1_555 1_555
H7_6 C11_6 1_555 1_555
C12_6 C4_6 1_555 1_555
C7_8 C9_8 1_555 1_555
C7_8 C10_6 1_555 1_555
C11_6 C12_6 1_555 1_555
C5_7 C4_7 1_555 1_555
H3_7 C5_7 1_555 1_555
C6_7 C5_7 1_555 1_555
C10_7 C6_7 1_555 1_555
C11_7 C10_7 1_555 1_555
H7_7 C11_7 1_555 1_555
C12_7 C4_7 1_555 1_555
C11_7 C12_7 1_555 1_555
C5_8 C4_8 1_555 1_555
H3_8 C5_8 1_555 1_555
C6_8 C5_8 1_555 1_555
C10_8 C6_8 1_555 1_555
C11_8 C10_8 1_555 1_555
H7_8 C11_8 1_555 1_555
C12_8 C4_8 1_555 1_555
C11_8 C12_8 1_555 1_555

#END
