
###############################################################################
#
# This file contains modified crystal structure data generated from the
# MOF subset of the Cambridge Structural Database (CSD) v543 
# hosted by the Cambridge Crystallographic Data Centre (CCDC).
#
# This work is licensed under the Creative Commons
# Attribution-NonCommercial-ShareAlike 4.0 International License.
# To view a copy of this license, visit
# http://creativecommons.org/licenses/by-nc-sa/4.0/
# or send a letter to
# Creative Commons, PO Box 1866, Mountain View, CA 94042, USA.
#
# CIF created using the CSD Python API on 29 September 2022
# The structure has been converted into the P1 space group
# The structure has a 3D framework
# The original CSD entry TEFNOL is in the tetragonal crystal system
# The original CSD entry TEFNOL is in a Sohncke space group
# The framework has been calculated to contain at least 10.0% void space
# The void calculation uses a probe of radius 1.32A, grid spacing 0.4
#
###############################################################################

data_TEFNOL
_chemical_formula_moiety         '(C96 H64 Co4 N32)n'
_symmetry_cell_setting           triclinic
_symmetry_space_group_name_H-M   'P 1'
_symmetry_Int_Tables_number      1
_space_group_name_Hall           'P 1'
loop_
_symmetry_equiv_pos_site_id
_symmetry_equiv_pos_as_xyz
1 x,y,z
_cell_length_a                   16.3606(5)
_cell_length_b                   16.3606(5)
_cell_length_c                   12.4068(6)
_cell_angle_alpha                90
_cell_angle_beta                 90
_cell_angle_gamma                90
_cell_volume                     3320.92
loop_
_atom_site_label
_atom_site_type_symbol
_atom_site_fract_x
_atom_site_fract_y
_atom_site_fract_z
N3 N 0.73388(18) 0.11618(17) 0.0096(2)
N4 N 0.75983(17) 0.14686(15) 0.10687(19)
C7 C 0.7307(2) 0.0979(2) 0.1839(3)
H5 H 0.740781 0.104327 0.257180
C8 C 0.6883(3) 0.0502(2) 0.0307(3)
C9 C 0.6831(2) 0.0357(2) 0.1393(3)
H8 H 0.665030 0.003121 0.347190
Co4 Co 0.82127(4) 0.250000 0.125000
H6 H 0.663359 0.018214 0.978308
Co3 Co 0.750000 0.17873(4) 0.875000
Co1 Co 0.250000 0.67873(4) 0.375000
N1 N 0.38382(17) 0.76612(18) 0.4904(2)
N2 N 0.35314(15) 0.74017(17) 0.39313(19)
C1 C 0.4021(2) 0.7693(2) 0.3161(3)
H1 H 0.395673 0.759219 0.242820
C2 C 0.4498(2) 0.8117(3) 0.4693(3)
H2 H 0.481786 0.836641 0.521692
C3 C 0.4643(2) 0.8169(2) 0.3607(3)
C4 C 0.5262(3) 0.8661(2) 0.3043(3)
C5 C 0.5786(3) 0.9169(3) 0.3593(4)
H3 H 0.578755 0.915664 0.434274
C6 C 0.5304(3) 0.8691(3) 0.1932(3)
H4 H 0.496879 0.834970 0.152810
C10 C 0.6339(2) 0.9738(3) 0.1957(3)
C11 C 0.5831(3) 0.9214(3) 0.1407(4)
H7 H 0.584336 0.921245 0.065726
C12 C 0.6309(3) 0.9696(3) 0.3068(3)
Co2 Co 0.32127(4) 0.750000 0.625000
N5 N 0.26612(18) 0.61618(17) 0.2404(2)
N6 N 0.23388(18) 0.61618(17) 0.5096(2)
N7 N 0.14686(15) 0.74017(17) 0.35687(19)
H2_2 H 0.018214 0.663359 0.021692
Co2_2 Co 0.17873(4) 0.750000 0.125000
N6_2 N 0.26612(18) 0.88382(17) 0.0096(2)
Co1_2 Co 0.250000 0.82127(4) 0.875000
N1_2 N 0.11618(17) 0.73388(18) 0.9904(2)
N2_2 N 0.14686(15) 0.75983(17) 0.89313(19)
C1_2 C 0.0979(2) 0.7307(2) 0.8161(3)
H1_2 H 0.104327 0.740781 0.742820
C2_2 C 0.0502(2) 0.6883(3) 0.9693(3)
C3_2 C 0.0357(2) 0.6831(2) 0.8607(3)
H4_2 H 0.003121 0.665030 0.652810
N5_2 N 0.23388(18) 0.88382(17) 0.7404(2)
N7_2 N 0.35314(15) 0.75983(17) 0.85687(19)
C4_2 C 0.9738(3) 0.6339(2) 0.8043(3)
C5_2 C 0.9214(3) 0.5831(3) 0.8593(4)
H3_2 H 0.921245 0.584336 0.934274
C6_2 C 0.9696(3) 0.6309(3) 0.6932(3)
N3_2 N 0.76612(18) 0.38382(17) 0.5096(2)
N4_2 N 0.74017(17) 0.35314(15) 0.60687(19)
C7_2 C 0.7693(2) 0.4021(2) 0.6839(3)
H5_2 H 0.759219 0.395673 0.757180
C8_2 C 0.8117(3) 0.4498(2) 0.5307(3)
H6_2 H 0.836641 0.481786 0.478308
C9_2 C 0.8169(2) 0.4643(2) 0.6393(3)
C10_2 C 0.8661(2) 0.5262(3) 0.6957(3)
C11_2 C 0.9169(3) 0.5786(3) 0.6407(4)
H7_2 H 0.915664 0.578755 0.565726
C12_2 C 0.8691(3) 0.5304(3) 0.8068(3)
H8_2 H 0.834970 0.496879 0.847190
Co3_2 Co 0.750000 0.32127(4) 0.375000
Co4_2 Co 0.67873(4) 0.250000 0.625000
N2_3 N 0.25983(17) 0.85314(15) 0.64313(19)
C1_3 C 0.2307(2) 0.9021(2) 0.5661(3)
H1_3 H 0.240781 0.895673 0.492820
C2_3 C 0.1883(3) 0.9498(2) 0.7193(3)
H2_3 H 0.163359 0.981786 0.771692
C3_3 C 0.1831(2) 0.9643(2) 0.6107(3)
H4_3 H 0.165030 0.996879 0.402810
N6_3 N 0.38382(17) 0.73388(18) 0.7596(2)
N7_3 N 0.25983(17) 0.64686(15) 0.60687(19)
N3_3 N 0.88382(17) 0.23388(18) 0.2596(2)
N4_3 N 0.85314(15) 0.25983(17) 0.35687(19)
C7_3 C 0.9021(2) 0.2307(2) 0.4339(3)
H5_3 H 0.895673 0.240781 0.507180
C8_3 C 0.9498(2) 0.1883(3) 0.2807(3)
H6_3 H 0.981786 0.163359 0.228308
C9_3 C 0.9643(2) 0.1831(2) 0.3893(3)
H8_3 H 0.996879 0.165030 0.597190
N2_4 N 0.24017(17) 0.64686(15) 0.14313(19)
C1_4 C 0.2693(2) 0.5979(2) 0.0661(3)
C2_4 C 0.3117(3) 0.5502(2) 0.2193(3)
H2_4 H 0.336641 0.518214 0.271692
C3_4 C 0.3169(2) 0.5357(2) 0.1107(3)
C4_3 C 0.3661(2) 0.4738(3) 0.0543(3)
C5_3 C 0.4169(3) 0.4214(3) 0.1093(4)
H3_3 H 0.415664 0.421245 0.184274
H5_4 H 0.604327 0.259219 0.007180
C12_3 C 0.4696(3) 0.3691(3) 0.0568(3)
H8_4 H 0.503121 0.334970 0.097190
N6_4 N 0.11618(17) 0.76612(18) 0.2596(2)
N7_4 N 0.24017(17) 0.85314(15) 0.10687(19)
H1_4 H 0.259219 0.604327 0.992820
C6_3 C 0.3691(3) 0.4696(3) 0.9432(3)
H4_4 H 0.334970 0.503121 0.902810
N3_4 N 0.61618(17) 0.26612(18) 0.7596(2)
N4_4 N 0.64686(15) 0.24017(17) 0.85687(19)
C7_4 C 0.5979(2) 0.2693(2) 0.9339(3)
C8_4 C 0.5502(2) 0.3117(3) 0.7807(3)
H6_4 H 0.518214 0.336641 0.728308
C9_4 C 0.5357(2) 0.3169(2) 0.8893(3)
C10_3 C 0.4738(3) 0.3661(2) 0.9457(3)
C11_3 C 0.4214(3) 0.4169(3) 0.8907(4)
H7_3 H 0.421245 0.415664 0.815726
C1_5 C 0.0979(2) 0.7693(2) 0.4339(3)
H1_5 H 0.104327 0.759219 0.507180
C2_5 C 0.0502(2) 0.8117(3) 0.2807(3)
H2_5 H 0.018214 0.836641 0.228308
C3_5 C 0.0357(2) 0.8169(2) 0.3893(3)
H4_5 H 0.003121 0.834970 0.597190
N3_5 N 0.76612(18) 0.11618(17) 0.7404(2)
N4_5 N 0.74017(17) 0.14686(15) 0.64313(19)
C7_5 C 0.7693(2) 0.0979(2) 0.5661(3)
H5_5 H 0.759219 0.104327 0.492820
C8_5 C 0.8117(3) 0.0502(2) 0.7193(3)
H6_5 H 0.836641 0.018214 0.771692
C9_5 C 0.8169(2) 0.0357(2) 0.6107(3)
H8_5 H 0.834970 0.003121 0.402810
H1_6 H 0.395673 0.740781 0.007180
C6_4 C 0.5304(3) 0.6309(3) 0.0568(3)
H4_6 H 0.496879 0.665030 0.097190
N3_6 N 0.73388(18) 0.38382(17) 0.2404(2)
N4_6 N 0.75983(17) 0.35314(15) 0.14313(19)
C7_6 C 0.7307(2) 0.4021(2) 0.0661(3)
C8_6 C 0.6883(3) 0.4498(2) 0.2193(3)
H6_6 H 0.663359 0.481786 0.271692
C9_6 C 0.6831(2) 0.4643(2) 0.1107(3)
C10_4 C 0.6339(2) 0.5262(3) 0.0543(3)
C11_4 C 0.5831(3) 0.5786(3) 0.1093(4)
H7_4 H 0.584336 0.578755 0.184274
C1_6 C 0.4021(2) 0.7307(2) 0.9339(3)
C2_6 C 0.4498(2) 0.6883(3) 0.7807(3)
H2_6 H 0.481786 0.663359 0.728308
C3_6 C 0.4643(2) 0.6831(2) 0.8893(3)
C4_4 C 0.5262(3) 0.6339(2) 0.9457(3)
C5_4 C 0.5786(3) 0.5831(3) 0.8907(4)
H3_4 H 0.578755 0.584336 0.815726
H5_6 H 0.740781 0.395673 0.992820
C12_4 C 0.6309(3) 0.5304(3) 0.9432(3)
H8_6 H 0.665030 0.496879 0.902810
C4_5 C 0.3661(2) 0.0262(3) 0.1957(3)
C5_5 C 0.4169(3) 0.0786(3) 0.1407(4)
H3_5 H 0.415664 0.078755 0.065726
C6_5 C 0.3691(3) 0.0304(3) 0.3068(3)
N3_7 N 0.61618(17) 0.23388(18) 0.4904(2)
N4_7 N 0.64686(15) 0.25983(17) 0.39313(19)
C7_7 C 0.5979(2) 0.2307(2) 0.3161(3)
H5_7 H 0.604327 0.240781 0.242820
C8_7 C 0.5502(2) 0.1883(3) 0.4693(3)
H6_7 H 0.518214 0.163359 0.521692
C9_7 C 0.5357(2) 0.1831(2) 0.3607(3)
C10_5 C 0.4738(3) 0.1339(2) 0.3043(3)
C11_5 C 0.4214(3) 0.0831(3) 0.3593(4)
H7_5 H 0.421245 0.084336 0.434274
C12_5 C 0.4696(3) 0.1309(3) 0.1932(3)
H8_7 H 0.503121 0.165030 0.152810
C1_7 C 0.2693(2) 0.9021(2) 0.1839(3)
H1_7 H 0.259219 0.895673 0.257180
C2_7 C 0.3117(3) 0.9498(2) 0.0307(3)
C3_7 C 0.3169(2) 0.9643(2) 0.1393(3)
H4_7 H 0.334970 0.996879 0.347190
H2_7 H 0.336641 0.981786 0.978308
C1_8 C 0.2307(2) 0.5979(2) 0.6839(3)
H1_8 H 0.240781 0.604327 0.757180
C2_8 C 0.1883(3) 0.5502(2) 0.5307(3)
H2_8 H 0.163359 0.518214 0.478308
C3_8 C 0.1831(2) 0.5357(2) 0.6393(3)
C4_6 C 0.1339(2) 0.4738(3) 0.6957(3)
C5_6 C 0.0831(3) 0.4214(3) 0.6407(4)
H3_6 H 0.084336 0.421245 0.565726
C6_6 C 0.1309(3) 0.4696(3) 0.8068(3)
H4_8 H 0.165030 0.503121 0.847190
C10_6 C 0.0262(3) 0.3661(2) 0.8043(3)
C11_6 C 0.0786(3) 0.4169(3) 0.8593(4)
H7_6 H 0.078755 0.415664 0.934274
C12_6 C 0.0304(3) 0.3691(3) 0.6932(3)
H6_8 H 0.981786 0.336641 0.021692
N3_8 N 0.88382(17) 0.26612(18) 0.9904(2)
N4_8 N 0.85314(15) 0.24017(17) 0.89313(19)
C7_8 C 0.9021(2) 0.2693(2) 0.8161(3)
H5_8 H 0.895673 0.259219 0.742820
C8_8 C 0.9498(2) 0.3117(3) 0.9693(3)
C9_8 C 0.9643(2) 0.3169(2) 0.8607(3)
H8_8 H 0.996879 0.334970 0.652810
C4_7 C 0.1339(2) 0.0262(3) 0.5543(3)
C5_7 C 0.0831(3) 0.0786(3) 0.6093(4)
H3_7 H 0.084336 0.078755 0.684274
C6_7 C 0.1309(3) 0.0304(3) 0.4432(3)
C10_7 C 0.0262(3) 0.1339(2) 0.4457(3)
C11_7 C 0.0786(3) 0.0831(3) 0.3907(4)
H7_7 H 0.078755 0.084336 0.315726
C12_7 C 0.0304(3) 0.1309(3) 0.5568(3)
C4_8 C 0.9738(3) 0.8661(2) 0.4457(3)
C5_8 C 0.9214(3) 0.9169(3) 0.3907(4)
H3_8 H 0.921245 0.915664 0.315726
C6_8 C 0.9696(3) 0.8691(3) 0.5568(3)
C10_8 C 0.8661(2) 0.9738(3) 0.5543(3)
C11_8 C 0.9169(3) 0.9214(3) 0.6093(4)
H7_8 H 0.915664 0.921245 0.684274
C12_8 C 0.8691(3) 0.9696(3) 0.4432(3)
loop_
_geom_bond_atom_site_label_1
_geom_bond_atom_site_label_2
_geom_bond_site_symmetry_1
_geom_bond_site_symmetry_2
N3 N4 1_555 1_555
N4 C7 1_555 1_555
C7 H5 1_555 1_555
C8 N3 1_555 1_555
C9 C7 1_555 1_555
Co4 N4 1_555 1_555
C8 C9 1_555 1_555
Co1 N2 1_555 1_555
N1 N2 1_555 1_555
N2 C1 1_555 1_555
C1 H1 1_555 1_555
C2 N1 1_555 1_555
H2 C2 1_555 1_555
C3 C1 1_555 1_555
C4 C3 1_555 1_555
C5 C4 1_555 1_555
H3 C5 1_555 1_555
C6 C4 1_555 1_555
H4 C6 1_555 1_555
C11 C6 1_555 1_555
H7 C11 1_555 1_555
C12 C5 1_555 1_555
Co2 N1 1_555 1_555
N5 Co1 1_555 1_555
N6 Co1 1_555 1_555
N7 Co1 1_555 1_555
C2 C3 1_555 1_555
C10 C11 1_555 1_555
C10 C12 1_555 1_555
Co1_2 N2_2 1_555 1_555
N1_2 N2_2 1_555 1_555
N2_2 C1_2 1_555 1_555
C1_2 H1_2 1_555 1_555
C2_2 N1_2 1_555 1_555
C3_2 C1_2 1_555 1_555
N5_2 Co1_2 1_555 1_555
N7_2 Co1_2 1_555 1_555
C2_2 C3_2 1_555 1_555
C5_2 C4_2 1_555 1_555
H3_2 C5_2 1_555 1_555
C6_2 C4_2 1_555 1_555
N3_2 N4_2 1_555 1_555
N4_2 C7_2 1_555 1_555
C7_2 H5_2 1_555 1_555
C8_2 N3_2 1_555 1_555
H6_2 C8_2 1_555 1_555
C9_2 C7_2 1_555 1_555
C10_2 C9_2 1_555 1_555
C11_2 C6_2 1_555 1_555
H7_2 C11_2 1_555 1_555
C12_2 C5_2 1_555 1_555
H8_2 C12_2 1_555 1_555
Co3_2 N3_2 1_555 1_555
Co4_2 N4_2 1_555 1_555
C8_2 C9_2 1_555 1_555
C10_2 C11_2 1_555 1_555
C10_2 C12_2 1_555 1_555
Co2 N2_3 1_555 1_555
N5_2 N2_3 1_555 1_555
N2_3 C1_3 1_555 1_555
C1_3 H1_3 1_555 1_555
C2_3 N5_2 1_555 1_555
H2_3 C2_3 1_555 1_555
C3_3 C1_3 1_555 1_555
N6_3 Co2 1_555 1_555
N7_3 Co2 1_555 1_555
C2_3 C3_3 1_555 1_555
N3_3 N4_3 1_555 1_555
N4_3 C7_3 1_555 1_555
C7_3 H5_3 1_555 1_555
C8_3 N3_3 1_555 1_555
H6_3 C8_3 1_555 1_555
C9_3 C7_3 1_555 1_555
Co4 N3_3 1_555 1_555
Co3_2 N4_3 1_555 1_555
C8_3 C9_3 1_555 1_555
Co2_2 N2_4 1_555 1_555
N5 N2_4 1_555 1_555
N2_4 C1_4 1_555 1_555
C2_4 N5 1_555 1_555
H2_4 C2_4 1_555 1_555
C3_4 C1_4 1_555 1_555
C4_3 C3_4 1_555 1_555
C5_3 C4_3 1_555 1_555
H3_3 C5_3 1_555 1_555
C12_3 C5_3 1_555 1_555
H8_4 C12_3 1_555 1_555
N6_4 Co2_2 1_555 1_555
N7_4 Co2_2 1_555 1_555
C2_4 C3_4 1_555 1_555
H4_4 C6_3 1_555 1_555
N3_4 N4_4 1_555 1_555
N4_4 C7_4 1_555 1_555
C8_4 N3_4 1_555 1_555
H6_4 C8_4 1_555 1_555
C9_4 C7_4 1_555 1_555
C10_3 C9_4 1_555 1_555
C11_3 C6_3 1_555 1_555
H7_3 C11_3 1_555 1_555
Co4_2 N3_4 1_555 1_555
Co3 N4_4 1_555 1_555
C8_4 C9_4 1_555 1_555
C10_3 C11_3 1_555 1_555
N6_4 N7 1_555 1_555
N7 C1_5 1_555 1_555
C1_5 H1_5 1_555 1_555
C2_5 N6_4 1_555 1_555
H2_5 C2_5 1_555 1_555
C3_5 C1_5 1_555 1_555
C2_5 C3_5 1_555 1_555
N3_5 N4_5 1_555 1_555
N4_5 C7_5 1_555 1_555
C7_5 H5_5 1_555 1_555
C8_5 N3_5 1_555 1_555
H6_5 C8_5 1_555 1_555
C9_5 C7_5 1_555 1_555
Co3 N3_5 1_555 1_555
Co4_2 N4_5 1_555 1_555
C8_5 C9_5 1_555 1_555
H4_6 C6_4 1_555 1_555
N3_6 N4_6 1_555 1_555
N4_6 C7_6 1_555 1_555
C8_6 N3_6 1_555 1_555
H6_6 C8_6 1_555 1_555
C9_6 C7_6 1_555 1_555
C10_4 C9_6 1_555 1_555
C11_4 C6_4 1_555 1_555
H7_4 C11_4 1_555 1_555
Co3_2 N3_6 1_555 1_555
Co4 N4_6 1_555 1_555
C8_6 C9_6 1_555 1_555
C10_4 C11_4 1_555 1_555
N6_3 N7_2 1_555 1_555
N7_2 C1_6 1_555 1_555
C2_6 N6_3 1_555 1_555
H2_6 C2_6 1_555 1_555
C3_6 C1_6 1_555 1_555
C4_4 C3_6 1_555 1_555
C5_4 C4_4 1_555 1_555
H3_4 C5_4 1_555 1_555
C12_4 C5_4 1_555 1_555
H8_6 C12_4 1_555 1_555
C2_6 C3_6 1_555 1_555
C5_5 C4_5 1_555 1_555
H3_5 C5_5 1_555 1_555
C6_5 C4_5 1_555 1_555
N3_7 N4_7 1_555 1_555
N4_7 C7_7 1_555 1_555
C7_7 H5_7 1_555 1_555
C8_7 N3_7 1_555 1_555
H6_7 C8_7 1_555 1_555
C9_7 C7_7 1_555 1_555
C10_5 C9_7 1_555 1_555
C11_5 C6_5 1_555 1_555
H7_5 C11_5 1_555 1_555
C12_5 C5_5 1_555 1_555
H8_7 C12_5 1_555 1_555
Co4_2 N3_7 1_555 1_555
Co3_2 N4_7 1_555 1_555
C8_7 C9_7 1_555 1_555
C10_5 C11_5 1_555 1_555
C10_5 C12_5 1_555 1_555
N6_2 N7_4 1_555 1_555
N7_4 C1_7 1_555 1_555
C1_7 H1_7 1_555 1_555
C2_7 N6_2 1_555 1_555
C3_7 C1_7 1_555 1_555
C2_7 C3_7 1_555 1_555
N6 N7_3 1_555 1_555
N7_3 C1_8 1_555 1_555
C1_8 H1_8 1_555 1_555
C2_8 N6 1_555 1_555
H2_8 C2_8 1_555 1_555
C3_8 C1_8 1_555 1_555
C4_6 C3_8 1_555 1_555
C5_6 C4_6 1_555 1_555
H3_6 C5_6 1_555 1_555
C6_6 C4_6 1_555 1_555
H4_8 C6_6 1_555 1_555
C11_6 C6_6 1_555 1_555
H7_6 C11_6 1_555 1_555
C12_6 C5_6 1_555 1_555
C2_8 C3_8 1_555 1_555
C10_6 C11_6 1_555 1_555
C10_6 C12_6 1_555 1_555
N3_8 N4_8 1_555 1_555
N4_8 C7_8 1_555 1_555
C7_8 H5_8 1_555 1_555
C8_8 N3_8 1_555 1_555
C9_8 C7_8 1_555 1_555
Co3 N4_8 1_555 1_555
C8_8 C9_8 1_555 1_555
C5_7 C4_7 1_555 1_555
H3_7 C5_7 1_555 1_555
C6_7 C4_7 1_555 1_555
C11_7 C6_7 1_555 1_555
H7_7 C11_7 1_555 1_555
C12_7 C5_7 1_555 1_555
C10_7 C11_7 1_555 1_555
C10_7 C12_7 1_555 1_555
C5_8 C4_8 1_555 1_555
H3_8 C5_8 1_555 1_555
C6_8 C4_8 1_555 1_555
C11_8 C6_8 1_555 1_555
H7_8 C11_8 1_555 1_555
C12_8 C5_8 1_555 1_555
C10_8 C11_8 1_555 1_555
C10_8 C12_8 1_555 1_555

#END
