
###############################################################################
#
# This file contains modified crystal structure data generated from the
# MOF subset of the Cambridge Structural Database (CSD) v543 
# hosted by the Cambridge Crystallographic Data Centre (CCDC).
#
# This work is licensed under the Creative Commons
# Attribution-NonCommercial-ShareAlike 4.0 International License.
# To view a copy of this license, visit
# http://creativecommons.org/licenses/by-nc-sa/4.0/
# or send a letter to
# Creative Commons, PO Box 1866, Mountain View, CA 94042, USA.
#
# CIF created using the CSD Python API on 29 September 2022
# The structure has been converted into the P1 space group
# The structure has a 3D framework
# The original CSD entry TEJGIA01 is in the monoclinic crystal system
# The framework has been calculated to contain at least 10.0% void space
# The void calculation uses a probe of radius 1.32A, grid spacing 0.4
#
###############################################################################

data_TEJGIA01
_chemical_formula_moiety         '(C56 H56 N16 O58 Sm8)n'
_symmetry_cell_setting           triclinic
_symmetry_space_group_name_H-M   'P 1'
_symmetry_Int_Tables_number      1
_space_group_name_Hall           'P 1'
loop_
_symmetry_equiv_pos_site_id
_symmetry_equiv_pos_as_xyz
1 x,y,z
_cell_length_a                   10.2750(5)
_cell_length_b                   11.2876(6)
_cell_length_c                   22.2272(11)
_cell_angle_alpha                90
_cell_angle_beta                 97.3210(10)
_cell_angle_gamma                90
_cell_volume                     2556.9
loop_
_atom_site_label
_atom_site_type_symbol
_atom_site_fract_x
_atom_site_fract_y
_atom_site_fract_z
O8 O 0.1245(4) 0.0859(4) 0.05441(19)
N4 N 0.0334(4) 0.1300(4) 0.1599(2)
H8 H 0.1188 0.1196 0.1630
C10 C 0.0056(5) 0.1157(5) 0.0486(2)
C12 C 0.0254(6) 0.1547(6) 0.2708(3)
H13 H 0.1190 0.1603 0.2720
H14 H 0.0037 0.0845 0.2918
Sm6 Sm 0.26069(2) 0.91319(2) 0.064171(10)
Sm1 Sm 0.60973(2) 0.186864(19) 0.225967(10)
Sm2 Sm 0.23931(2) 0.41319(2) 0.435829(10)
O1 O 0.0705(4) 0.5603(4) 0.25099(17)
O2 O 0.1844(4) 0.5139(4) 0.33958(17)
O3 O 0.3752(5) 0.3355(5) 0.36941(19)
O4 O 0.5234(3) 0.2565(4) 0.31821(16)
O5 O 0.5978(3) 0.1775(3) 0.11606(15)
O6 O 0.6797(4) 0.1252(4) 0.03294(17)
O9 O 0.7298(4) 0.0554(3) 0.30107(16)
O13 O 0.0136(5) 0.3583(5) 0.4030(2)
O14 O 0.2227(7) 0.1939(5) 0.4414(3)
H3 H 0.181(9) 0.186(9) 0.471(3)
H4 H 0.284(7) 0.144(7) 0.443(4)
O15 O 0.1078(4) 0.5804(4) 0.4659(2)
H5 H 0.088(7) 0.590(7) 0.5010(11)
H6 H 0.050(5) 0.611(7) 0.441(2)
N1 N 0.2193(5) 0.4294(4) 0.1859(2)
H7 H 0.1564 0.4689 0.1640
N2 N 0.3905(4) 0.3133(4) 0.20905(19)
N3 N 0.8370(4) 0.1603(4) 0.18569(18)
C1 C 0.1577(5) 0.5047(4) 0.2828(2)
C2 C 0.2403(5) 0.4266(4) 0.2480(2)
C3 C 0.3474(5) 0.3527(5) 0.2619(2)
C4 C 0.4191(5) 0.3124(5) 0.3200(2)
C5 C 0.3110(5) 0.3615(5) 0.1636(2)
C6 C 0.3168(7) 0.3468(7) 0.0970(3)
H9 H 0.3977 0.3791 0.0869
H10 H 0.2444 0.3878 0.0746
H11 H 0.3120 0.2642 0.0868
C7 C 0.6942(5) 0.1509(4) 0.0878(2)
C8 C 0.8267(5) 0.1478(4) 0.1238(2)
C9 C 0.9492(5) 0.1295(5) 0.1068(2)
C11 C 0.9640(5) 0.1489(5) 0.2068(2)
H12 H 0.9934 0.2231 0.2899
O16 O 0.4295(4) 0.0603(4) 0.24901(17)
O17 O 0.1797(4) 0.3748(4) 0.53294(17)
O18 O 0.4393(4) 0.3628(4) 0.49949(17)
O19 O 0.3755(4) 0.5859(4) 0.44559(19)
O20 O 0.6568(4) 0.3868(3) 0.18420(17)
O21 O 0.7684(4) 0.3049(3) 0.29130(16)
O7 O 0.9393(4) 0.1372(4) 0.99949(17)
Sm5 Sm 0.73931(2) 0.08681(2) 0.935829(10)
O10 O 0.8432(4) 0.8868(3) 0.31580(17)
O11 O 0.6326(4) 0.9794(3) 0.18913(16)
O12 O 0.7316(4) 0.8049(3) 0.20870(16)
C13 C 0.7644(5) 0.9542(4) 0.2856(2)
C14 C 0.7045(4) 0.9087(4) 0.2220(2)
Sm4 Sm 0.89027(2) 0.686864(19) 0.274033(10)
H1 H 0.962(7) 0.398(6) 0.378(4)
H2 H 0.983(8) 0.290(3) 0.406(4)
O2_2 O 0.3156(4) 0.0139(4) 0.16042(17)
O15_2 O 0.3922(4) 0.0804(4) 0.0341(2)
H6_2 H 0.450(5) 0.111(7) 0.059(2)
C1_2 C 0.3423(5) 0.0047(4) 0.2172(2)
O3_2 O 0.1248(5) 0.8355(5) 0.13059(19)
O13_2 O 0.4864(5) 0.8583(5) 0.0970(2)
H1_2 H 0.538(7) 0.898(6) 0.122(4)
H2_2 H 0.517(8) 0.790(3) 0.094(4)
O14_2 O 0.2773(7) 0.6939(5) 0.0586(3)
H3_2 H 0.319(9) 0.686(9) 0.029(3)
H4_2 H 0.216(7) 0.644(7) 0.057(4)
N1_2 N 0.2807(5) 0.9294(4) 0.3141(2)
H7_2 H 0.3436 0.9689 0.3360
N2_2 N 0.1095(4) 0.8133(4) 0.29095(19)
C2_2 C 0.2597(5) 0.9266(4) 0.2520(2)
C3_2 C 0.1526(5) 0.8527(5) 0.2381(2)
C4_2 C 0.0809(5) 0.8124(5) 0.1800(2)
C5_2 C 0.1890(5) 0.8615(5) 0.3364(2)
C6_2 C 0.1832(7) 0.8468(7) 0.4030(3)
H9_2 H 0.1023 0.8791 0.4131
H10_2 H 0.2556 0.8878 0.4254
H11_2 H 0.1880 0.7642 0.4132
O18_2 O 0.0607(4) 0.8628(4) 0.00051(17)
O17_2 O 0.3203(4) 0.8748(4) 0.96706(17)
O4_2 O 0.9766(3) 0.7565(4) 0.18179(16)
O5_2 O 0.9022(3) 0.6775(3) 0.38394(15)
O6_2 O 0.8203(4) 0.6252(4) 0.46706(17)
O7_2 O 0.5607(4) 0.6372(4) 0.50051(17)
O9_2 O 0.7702(4) 0.5554(3) 0.19893(16)
O11_2 O 0.8674(4) 0.4794(3) 0.31087(16)
N3_2 N 0.6630(4) 0.6603(4) 0.31431(18)
N4_2 N 0.4666(4) 0.6300(4) 0.3401(2)
H8_2 H 0.3812 0.6196 0.3370
C7_2 C 0.8058(5) 0.6509(4) 0.4122(2)
C8_2 C 0.6733(5) 0.6478(4) 0.3762(2)
C9_2 C 0.5508(5) 0.6295(5) 0.3932(2)
C10_2 C 0.4944(5) 0.6157(5) 0.4514(2)
C11_2 C 0.5360(5) 0.6489(5) 0.2932(2)
C12_2 C 0.4746(6) 0.6547(6) 0.2292(3)
H12_2 H 0.5066 0.7231 0.2101
H13_2 H 0.3810 0.6603 0.2280
H14_2 H 0.4963 0.5845 0.2082
C13_2 C 0.7356(5) 0.4542(4) 0.2144(2)
C14_2 C 0.7955(4) 0.4087(4) 0.2780(2)
Sm5_2 Sm 0.76069(2) 0.58681(2) 0.564171(10)
H1_3 H 0.038(7) 0.602(6) 0.622(4)
H2_3 H 0.017(8) 0.710(3) 0.594(4)
Sm3 Sm 0.10973(2) 0.313136(19) 0.725967(10)
O10_2 O 0.1568(4) 0.1132(3) 0.68420(17)
O11_3 O 0.3674(4) 0.0206(3) 0.81087(16)
O12_2 O 0.2684(4) 0.1951(3) 0.79130(16)
C13_3 C 0.2356(5) 0.0458(4) 0.7144(2)
C14_3 C 0.2955(4) 0.0913(4) 0.7780(2)
Sm1_2 Sm 0.39027(2) 0.813136(19) 0.774033(10)
O1_2 O 0.9295(4) 0.4397(4) 0.74901(17)
O2_3 O 0.8156(4) 0.4861(4) 0.66042(17)
O3_3 O 0.6248(5) 0.6645(5) 0.63059(19)
O4_3 O 0.4766(3) 0.7435(4) 0.68179(16)
O5_3 O 0.4022(3) 0.8225(3) 0.88394(15)
O9_3 O 0.2702(4) 0.9446(3) 0.69893(16)
O13_3 O 0.9864(5) 0.6417(5) 0.5970(2)
O14_3 O 0.7773(7) 0.8061(5) 0.5586(3)
H3_3 H 0.819(9) 0.814(9) 0.529(3)
H4_3 H 0.716(7) 0.856(7) 0.557(4)
O15_3 O 0.8922(4) 0.4196(4) 0.5341(2)
H5_2 H 0.912(7) 0.410(7) 0.4990(11)
H6_3 H 0.950(5) 0.389(7) 0.559(2)
N1_3 N 0.7807(5) 0.5706(4) 0.8141(2)
H7_3 H 0.8436 0.5311 0.8360
N2_3 N 0.6095(4) 0.6867(4) 0.79095(19)
N3_3 N 0.1630(4) 0.8397(4) 0.81431(18)
C1_3 C 0.8423(5) 0.4953(4) 0.7172(2)
C2_3 C 0.7597(5) 0.5734(4) 0.7520(2)
C3_3 C 0.6526(5) 0.6473(5) 0.7381(2)
C4_3 C 0.5809(5) 0.6876(5) 0.6800(2)
C5_3 C 0.6890(5) 0.6385(5) 0.8364(2)
C6_3 C 0.6832(7) 0.6532(7) 0.9030(3)
H9_3 H 0.6023 0.6209 0.9131
H10_3 H 0.7556 0.6122 0.9254
H11_3 H 0.6880 0.7358 0.9132
C7_3 C 0.3058(5) 0.8491(4) 0.9122(2)
C8_3 C 0.1733(5) 0.8522(4) 0.8762(2)
C9_3 C 0.0508(5) 0.8705(5) 0.8932(2)
C11_3 C 0.0360(5) 0.8511(5) 0.7932(2)
H12_3 H 0.0066 0.7769 0.7101
O16_2 O 0.5705(4) 0.9397(4) 0.75099(17)
O19_2 O 0.6245(4) 0.4141(4) 0.55441(19)
O20_2 O 0.3432(4) 0.6132(3) 0.81580(17)
O21_2 O 0.2316(4) 0.6951(3) 0.70870(16)
O8_2 O 0.8755(4) 0.9141(4) 0.94559(19)
N4_3 N 0.9666(4) 0.8700(4) 0.8401(2)
H8_3 H 0.8812 0.8804 0.8370
C10_3 C 0.9944(5) 0.8843(5) 0.9514(2)
C12_3 C 0.9746(6) 0.8453(6) 0.7292(3)
H13_3 H 0.8810 0.8397 0.7280
H14_3 H 0.9963 0.9155 0.7082
O4_4 O 0.0234(3) 0.2435(4) 0.81821(16)
O5_4 O 0.0978(3) 0.3225(3) 0.61606(15)
O9_4 O 0.2298(4) 0.4446(3) 0.80107(16)
O11_4 O 0.1326(4) 0.5206(3) 0.68913(16)
N3_4 N 0.3370(4) 0.3397(4) 0.68569(18)
N4_4 N 0.5334(4) 0.3700(4) 0.6599(2)
H8_4 H 0.6188 0.3804 0.6630
C7_4 C 0.1942(5) 0.3491(4) 0.5878(2)
C8_4 C 0.3267(5) 0.3522(4) 0.6238(2)
C9_4 C 0.4492(5) 0.3705(5) 0.6068(2)
C10_4 C 0.5056(5) 0.3843(5) 0.5486(2)
C11_4 C 0.4640(5) 0.3511(5) 0.7068(2)
C12_4 C 0.5254(6) 0.3453(6) 0.7708(3)
H12_4 H 0.4934 0.2769 0.7899
H13_4 H 0.6190 0.3397 0.7720
H14_4 H 0.5037 0.4155 0.7918
C13_4 C 0.2644(5) 0.5458(4) 0.7856(2)
C14_4 C 0.2045(4) 0.5913(4) 0.7220(2)
O3_4 O 0.8752(5) 0.1645(5) 0.86941(19)
O13_4 O 0.5136(5) 0.1417(5) 0.9030(2)
H1_4 H 0.462(7) 0.102(6) 0.878(4)
H2_4 H 0.483(8) 0.210(3) 0.906(4)
O14_4 O 0.7227(7) 0.3061(5) 0.9414(3)
H3_4 H 0.681(9) 0.314(9) 0.971(3)
H4_4 H 0.784(7) 0.356(7) 0.943(4)
N1_4 N 0.7193(5) 0.0706(4) 0.6859(2)
H7_4 H 0.6564 0.0311 0.6640
N2_4 N 0.8905(4) 0.1867(4) 0.70905(19)
C2_4 C 0.7403(5) 0.0734(4) 0.7480(2)
C3_4 C 0.8474(5) 0.1473(5) 0.7619(2)
C4_4 C 0.9191(5) 0.1876(5) 0.8200(2)
C5_4 C 0.8110(5) 0.1385(5) 0.6636(2)
C6_4 C 0.8168(7) 0.1532(7) 0.5970(3)
H9_4 H 0.8977 0.1209 0.5869
H10_4 H 0.7444 0.1122 0.5746
H11_4 H 0.8120 0.2358 0.5868
O2_4 O 0.6844(4) 0.9861(4) 0.83958(17)
O15_4 O 0.6078(4) 0.9196(4) 0.9659(2)
H6_4 H 0.550(5) 0.889(7) 0.941(2)
C1_4 C 0.6577(5) 0.9953(4) 0.7828(2)
H5_3 H 0.412(7) 0.090(7) 0.9990(11)
H5_4 H 0.588(7) 0.910(7) 0.0010(11)
loop_
_geom_bond_atom_site_label_1
_geom_bond_atom_site_label_2
_geom_bond_site_symmetry_1
_geom_bond_site_symmetry_2
O8 C10 1_555 1_555
N4 H8 1_555 1_555
H13 C12 1_555 1_555
H14 C12 1_555 1_555
Sm1 O4 1_555 1_555
Sm2 O2 1_555 1_555
O1 C1 1_555 1_555
O2 C1 1_555 1_555
O3 Sm2 1_555 1_555
O4 C4 1_555 1_555
O5 Sm1 1_555 1_555
O6 C7 1_555 1_555
O9 Sm1 1_555 1_555
O13 Sm2 1_555 1_555
O14 Sm2 1_555 1_555
H3 O14 1_555 1_555
H4 O14 1_555 1_555
O15 Sm2 1_555 1_555
H5 O15 1_555 1_555
H6 O15 1_555 1_555
N1 H7 1_555 1_555
N2 Sm1 1_555 1_555
N3 Sm1 1_555 1_555
C1 C2 1_555 1_555
C2 N1 1_555 1_555
C3 N2 1_555 1_555
C4 O3 1_555 1_555
C5 N1 1_555 1_555
C6 C5 1_555 1_555
H9 C6 1_555 1_555
H10 C6 1_555 1_555
H11 C6 1_555 1_555
C7 O5 1_555 1_555
C8 N3 1_555 1_555
C11 N3 1_555 1_555
O16 Sm1 1_555 1_555
O17 Sm2 1_555 1_555
O18 Sm2 1_555 1_555
O19 Sm2 1_555 1_555
O20 Sm1 1_555 1_555
O21 Sm1 1_555 1_555
N2 C5 1_555 1_555
C2 C3 1_555 1_555
C3 C4 1_555 1_555
C7 C8 1_555 1_555
C8 C9 1_555 1_555
O7 Sm5 1_555 1_555
O10 C13 1_555 1_555
O12 C14 1_555 1_555
C14 O11 1_555 1_555
Sm4 O10 1_555 1_555
O12 Sm4 1_555 1_555
C13 C14 1_555 1_555
O16 C1_2 1_555 1_555
O2_2 C1_2 1_555 1_555
H6_2 O15_2 1_555 1_555
O3_2 Sm6 1_555 1_555
O13_2 Sm6 1_555 1_555
H1_2 O13_2 1_555 1_555
H2_2 O13_2 1_555 1_555
O14_2 Sm6 1_555 1_555
H3_2 O14_2 1_555 1_555
H4_2 O14_2 1_555 1_555
N1_2 H7_2 1_555 1_555
C2_2 N1_2 1_555 1_555
C3_2 N2_2 1_555 1_555
C4_2 O3_2 1_555 1_555
C5_2 N1_2 1_555 1_555
C6_2 C5_2 1_555 1_555
H9_2 C6_2 1_555 1_555
H10_2 C6_2 1_555 1_555
H11_2 C6_2 1_555 1_555
O18_2 Sm6 1_555 1_555
N2_2 C5_2 1_555 1_555
C2_2 C3_2 1_555 1_555
C3_2 C4_2 1_555 1_555
Sm4 O4_2 1_555 1_555
O5_2 Sm4 1_555 1_555
O6_2 C7_2 1_555 1_555
O7_2 C10_2 1_555 1_555
O19 C10_2 1_555 1_555
O9_2 Sm4 1_555 1_555
O20 C13_2 1_555 1_555
O11_2 Sm4 1_555 1_555
O21 C14_2 1_555 1_555
N3_2 Sm4 1_555 1_555
N4_2 H8_2 1_555 1_555
C7_2 O5_2 1_555 1_555
C8_2 N3_2 1_555 1_555
C9_2 N4_2 1_555 1_555
C10_2 C9_2 1_555 1_555
C11_2 N3_2 1_555 1_555
C12_2 C11_2 1_555 1_555
H12_2 C12_2 1_555 1_555
H13_2 C12_2 1_555 1_555
H14_2 C12_2 1_555 1_555
C13_2 O9_2 1_555 1_555
C14_2 O11_2 1_555 1_555
Sm5_2 O6_2 1_555 1_555
O7_2 Sm5_2 1_555 1_555
N4_2 C11_2 1_555 1_555
C7_2 C8_2 1_555 1_555
C8_2 C9_2 1_555 1_555
C13_2 C14_2 1_555 1_555
O10_2 C13_3 1_555 1_555
O12_2 C14_3 1_555 1_555
C14_3 O11_3 1_555 1_555
Sm3 O10_2 1_555 1_555
O12_2 Sm3 1_555 1_555
C13_3 C14_3 1_555 1_555
Sm1_2 O4_3 1_555 1_555
Sm5_2 O2_3 1_555 1_555
O1_2 C1_3 1_555 1_555
O2_3 C1_3 1_555 1_555
O3_3 Sm5_2 1_555 1_555
O4_3 C4_3 1_555 1_555
O5_3 Sm1_2 1_555 1_555
O17_2 C7_3 1_555 1_555
O9_3 Sm1_2 1_555 1_555
O13_3 Sm5_2 1_555 1_555
O14_3 Sm5_2 1_555 1_555
H3_3 O14_3 1_555 1_555
H4_3 O14_3 1_555 1_555
O15_3 Sm5_2 1_555 1_555
H5_2 O15_3 1_555 1_555
H6_3 O15_3 1_555 1_555
N1_3 H7_3 1_555 1_555
N2_3 Sm1_2 1_555 1_555
N3_3 Sm1_2 1_555 1_555
C1_3 C2_3 1_555 1_555
C2_3 N1_3 1_555 1_555
C3_3 N2_3 1_555 1_555
C4_3 O3_3 1_555 1_555
C5_3 N1_3 1_555 1_555
C6_3 C5_3 1_555 1_555
H9_3 C6_3 1_555 1_555
H10_3 C6_3 1_555 1_555
H11_3 C6_3 1_555 1_555
C7_3 O5_3 1_555 1_555
C8_3 N3_3 1_555 1_555
C11_3 N3_3 1_555 1_555
O16_2 Sm1_2 1_555 1_555
O19_2 Sm5_2 1_555 1_555
O20_2 Sm1_2 1_555 1_555
O21_2 Sm1_2 1_555 1_555
N2_3 C5_3 1_555 1_555
C2_3 C3_3 1_555 1_555
C3_3 C4_3 1_555 1_555
C7_3 C8_3 1_555 1_555
C8_3 C9_3 1_555 1_555
O8_2 C10_3 1_555 1_555
N4_3 H8_3 1_555 1_555
H13_3 C12_3 1_555 1_555
H14_3 C12_3 1_555 1_555
Sm3 O4_4 1_555 1_555
O5_4 Sm3 1_555 1_555
O17 C7_4 1_555 1_555
O18 C10_4 1_555 1_555
O19_2 C10_4 1_555 1_555
O9_4 Sm3 1_555 1_555
O20_2 C13_4 1_555 1_555
O11_4 Sm3 1_555 1_555
O21_2 C14_4 1_555 1_555
N3_4 Sm3 1_555 1_555
N4_4 H8_4 1_555 1_555
C7_4 O5_4 1_555 1_555
C8_4 N3_4 1_555 1_555
C9_4 N4_4 1_555 1_555
C10_4 C9_4 1_555 1_555
C11_4 N3_4 1_555 1_555
C12_4 C11_4 1_555 1_555
H12_4 C12_4 1_555 1_555
H13_4 C12_4 1_555 1_555
H14_4 C12_4 1_555 1_555
C13_4 O9_4 1_555 1_555
C14_4 O11_4 1_555 1_555
N4_4 C11_4 1_555 1_555
C7_4 C8_4 1_555 1_555
C8_4 C9_4 1_555 1_555
C13_4 C14_4 1_555 1_555
O3_4 Sm5 1_555 1_555
O13_4 Sm5 1_555 1_555
H1_4 O13_4 1_555 1_555
H2_4 O13_4 1_555 1_555
O14_4 Sm5 1_555 1_555
H3_4 O14_4 1_555 1_555
H4_4 O14_4 1_555 1_555
N1_4 H7_4 1_555 1_555
C2_4 N1_4 1_555 1_555
C3_4 N2_4 1_555 1_555
C4_4 O3_4 1_555 1_555
C5_4 N1_4 1_555 1_555
C6_4 C5_4 1_555 1_555
H9_4 C6_4 1_555 1_555
H10_4 C6_4 1_555 1_555
H11_4 C6_4 1_555 1_555
N2_4 C5_4 1_555 1_555
C2_4 C3_4 1_555 1_555
C3_4 C4_4 1_555 1_555
O16_2 C1_4 1_555 1_555
O2_4 C1_4 1_555 1_555
H6_4 O15_4 1_555 1_555

#END
