
###############################################################################
#
# This file contains modified crystal structure data generated from the
# MOF subset of the Cambridge Structural Database (CSD) v543 
# hosted by the Cambridge Crystallographic Data Centre (CCDC).
#
# This work is licensed under the Creative Commons
# Attribution-NonCommercial-ShareAlike 4.0 International License.
# To view a copy of this license, visit
# http://creativecommons.org/licenses/by-nc-sa/4.0/
# or send a letter to
# Creative Commons, PO Box 1866, Mountain View, CA 94042, USA.
#
# CIF created using the CSD Python API on 29 September 2022
# The structure has been converted into the P1 space group
# The structure has a 3D framework
# The original CSD entry TEJGAS is in the monoclinic crystal system
# The framework has been calculated to contain at least 10.0% void space
# The void calculation uses a probe of radius 1.32A, grid spacing 0.4
# H atom positions have been added when not included in the experimental data
#
###############################################################################

data_TEJGAS
_chemical_formula_moiety         '(C56 H56 Eu8 N16 O52)n'
_symmetry_cell_setting           triclinic
_symmetry_space_group_name_H-M   'P 1'
_symmetry_Int_Tables_number      1
_space_group_name_Hall           'P 1'
loop_
_symmetry_equiv_pos_site_id
_symmetry_equiv_pos_as_xyz
1 x,y,z
_cell_length_a                   10.2064(2)
_cell_length_b                   11.2487(2)
_cell_length_c                   23.2345(4)
_cell_angle_alpha                90
_cell_angle_beta                 108.636(1)
_cell_angle_gamma                90
_cell_volume                     2527.66
loop_
_atom_site_label
_atom_site_type_symbol
_atom_site_fract_x
_atom_site_fract_y
_atom_site_fract_z
Eu1 Eu 0.11424(2) 0.186380(18) 0.725080(9)
O1 O 0.6812(4) 0.5599(3) 0.75140(16)
O2 O 0.6545(4) 0.5110(3) 0.83989(15)
O3 O 0.4909(4) 0.3356(4) 0.86897(17)
O4 O 0.2925(3) 0.2537(3) 0.81716(14)
O8 O 0.0182(3) 0.1771(3) 0.61569(14)
O10 O 0.0710(4) 0.0562(3) 0.80032(15)
N1 N 0.4668(4) 0.4300(4) 0.68554(19)
N2 N 0.3159(4) 0.3136(3) 0.70868(18)
C1 C 0.3512(5) 0.3619(5) 0.6638(2)
C2 C 0.5073(5) 0.4264(4) 0.7486(2)
C3 C 0.4133(5) 0.3527(4) 0.7614(2)
C4 C 0.2780(7) 0.3478(6) 0.5971(2)
H2 H 0.3261 0.3921 0.5747
H3 H 0.1852 0.3771 0.5875
H4 H 0.2760 0.2653 0.5863
C5 C 0.6247(4) 0.5030(4) 0.7837(2)
C6 C 0.3994(5) 0.3124(4) 0.8201(2)
Eu3 Eu 0.88576(2) 0.686380(18) 0.774920(9)
Eu5 Eu 0.69451(2) 0.41030(2) 0.935620(10)
O16 O 0.3188(4) 0.0599(3) 0.74860(16)
O20 O 0.0248(4) 0.3861(3) 0.68353(15)
O21 O 0.0215(4) 0.3037(3) 0.79122(15)
H10 H 0.514833 0.475306 0.660228
Eu2 Eu 0.69451(2) 0.08970(2) 0.435620(10)
O5 O 0.4254(4) 0.0855(3) 0.55427(17)
O6 O 0.5564(4) 0.1362(4) 0.49823(16)
O7 O 0.8512(3) 0.1320(4) 0.53143(15)
O13 O 0.7066(5) 0.3104(4) 0.4412(2)
O14 O 0.8835(5) 0.1491(4) 0.4000(2)
N3 N 0.6235(4) 0.1297(4) 0.65915(19)
H1 H 0.533(6) 0.095(5) 0.664(3)
N4 N 0.8478(4) 0.1603(4) 0.68546(17)
C7 C 0.7417(5) 0.1488(4) 0.7059(2)
C8 C 0.6547(5) 0.1299(4) 0.6057(2)
C9 C 0.7958(5) 0.1494(4) 0.6230(2)
C10 C 0.7440(5) 0.1544(5) 0.7702(2)
H5 H 0.6520 0.1432 0.7719
H6 H 0.7782 0.2306 0.7870
H7 H 0.8032 0.0930 0.7932
C11 C 0.5401(5) 0.1149(4) 0.5478(2)
C12 C 0.8925(4) 0.1542(4) 0.5868(2)
O18 O 0.4909(4) 0.1644(4) 0.36897(17)
H8 H 0.747767 0.335416 0.484211
H9 H 0.764844 0.339933 0.417214
H11 H 0.969621 0.156055 0.435114
H12 H 0.896545 0.0885162 0.371224
O9 O 0.9752(4) 0.8861(3) 0.81647(15)
O11 O 0.9785(4) 0.8037(3) 0.70878(15)
O15 O 0.8620(4) 0.9260(3) 0.46606(18)
Eu6 Eu 0.30549(2) 0.91030(2) 0.564380(10)
O17 O 0.6545(4) 0.9890(3) 0.33989(15)
O19 O 0.5746(4) 0.9145(3) 0.44573(17)
H13 H 0.812529 0.850947 0.468183
H14 H 0.911388 0.917354 0.435758
Eu2_2 Eu 0.30549(2) 0.58970(2) 0.064380(10)
O6_2 O 0.4436(4) 0.6362(4) 0.00177(16)
O13_2 O 0.2934(5) 0.8104(4) 0.0588(2)
O14_2 O 0.1165(5) 0.6491(4) 0.1000(2)
O15_2 O 0.1380(4) 0.4260(3) 0.03394(18)
O17_2 O 0.3455(4) 0.4890(3) 0.16011(15)
O18_2 O 0.5091(4) 0.6644(4) 0.13103(17)
O19_2 O 0.4254(4) 0.4145(3) 0.05427(17)
H8_2 H 0.252233 0.835416 0.015789
H9_2 H 0.235156 0.839933 0.0827856
H11_2 H 0.0303788 0.656055 0.0648856
H12_2 H 0.103455 0.588516 0.128776
H13_2 H 0.187471 0.350947 0.0318169
H14_2 H 0.0886119 0.417354 0.0642419
O5_2 O 0.5746(4) 0.5855(3) 0.94573(17)
O7_2 O 0.1488(3) 0.6320(4) 0.96857(15)
N3_2 N 0.3765(4) 0.6297(4) 0.84085(19)
H1_2 H 0.467(6) 0.595(5) 0.836(3)
N4_2 N 0.1522(4) 0.6603(4) 0.81454(17)
C7_2 C 0.2583(5) 0.6488(4) 0.7941(2)
C8_2 C 0.3453(5) 0.6299(4) 0.8943(2)
C9_2 C 0.2042(5) 0.6494(4) 0.8770(2)
C10_2 C 0.2560(5) 0.6544(5) 0.7298(2)
H5_2 H 0.3480 0.6432 0.7281
H6_2 H 0.2218 0.7306 0.7130
H7_2 H 0.1968 0.5930 0.7068
C11_2 C 0.4599(5) 0.6149(4) 0.9522(2)
C12_2 C 0.1075(4) 0.6542(4) 0.9132(2)
O2_2 O 0.3455(4) 0.0110(3) 0.66011(15)
C5_2 C 0.3753(4) 0.0030(4) 0.7163(2)
O3_2 O 0.5091(4) 0.8356(4) 0.63103(17)
O4_2 O 0.7075(3) 0.7537(3) 0.68284(14)
O8_2 O 0.9818(3) 0.6771(3) 0.88431(14)
O10_2 O 0.9290(4) 0.5562(3) 0.69968(15)
O12 O 0.9447(4) 0.4788(3) 0.81139(15)
N1_2 N 0.5332(4) 0.9300(4) 0.81446(19)
N2_2 N 0.6841(4) 0.8136(3) 0.79132(18)
C1_2 C 0.6488(5) 0.8619(5) 0.8362(2)
C2_2 C 0.4927(5) 0.9264(4) 0.7514(2)
C3_2 C 0.5867(5) 0.8527(4) 0.7386(2)
C4_2 C 0.7220(7) 0.8478(6) 0.9029(2)
H2_2 H 0.6739 0.8921 0.9253
H3_2 H 0.8148 0.8771 0.9125
H4_2 H 0.7240 0.7653 0.9137
C6_2 C 0.6006(5) 0.8124(4) 0.6799(2)
C13 C 0.9779(5) 0.4544(4) 0.7149(2)
C14 C 0.9820(4) 0.4083(4) 0.7781(2)
H10_2 H 0.485167 0.975306 0.839772
O9_2 O 0.0248(4) 0.1139(3) 0.18353(15)
O11_2 O 0.0215(4) 0.1963(3) 0.29122(15)
O15_3 O 0.1380(4) 0.0740(3) 0.53394(18)
Eu4 Eu 0.11424(2) 0.313620(18) 0.225080(9)
H13_3 H 0.187471 0.149053 0.531817
H14_3 H 0.0886119 0.082646 0.564242
O6_3 O 0.4436(4) 0.8638(4) 0.50177(16)
O7_3 O 0.1488(3) 0.8680(4) 0.46857(15)
O13_3 O 0.2934(5) 0.6896(4) 0.5588(2)
O14_3 O 0.1165(5) 0.8509(4) 0.6000(2)
N3_3 N 0.3765(4) 0.8703(4) 0.34085(19)
H1_3 H 0.467(6) 0.905(5) 0.336(3)
N4_3 N 0.1522(4) 0.8397(4) 0.31454(17)
C7_3 C 0.2583(5) 0.8512(4) 0.2941(2)
C8_3 C 0.3453(5) 0.8701(4) 0.3943(2)
C9_3 C 0.2042(5) 0.8506(4) 0.3770(2)
C10_3 C 0.2560(5) 0.8456(5) 0.2298(2)
H5_3 H 0.3480 0.8568 0.2281
H6_3 H 0.2218 0.7694 0.2130
H7_3 H 0.1968 0.9070 0.2068
C11_3 C 0.4599(5) 0.8851(4) 0.4522(2)
C12_3 C 0.1075(4) 0.8458(4) 0.4132(2)
H8_3 H 0.252233 0.664584 0.515789
H9_3 H 0.235156 0.660067 0.582786
H11_3 H 0.0303788 0.843945 0.564886
H12_3 H 0.103455 0.911484 0.628776
Eu1_2 Eu 0.88576(2) 0.813620(18) 0.274920(9)
O1_2 O 0.3188(4) 0.4401(3) 0.24860(16)
O4_3 O 0.7075(3) 0.7463(3) 0.18284(14)
O8_3 O 0.9818(3) 0.8229(3) 0.38431(14)
O10_3 O 0.9290(4) 0.9438(3) 0.19968(15)
N1_3 N 0.5332(4) 0.5700(4) 0.31446(19)
N2_3 N 0.6841(4) 0.6864(3) 0.29132(18)
C1_3 C 0.6488(5) 0.6381(5) 0.3362(2)
C2_3 C 0.4927(5) 0.5736(4) 0.2514(2)
C3_3 C 0.5867(5) 0.6473(4) 0.2386(2)
C4_3 C 0.7220(7) 0.6522(6) 0.4029(2)
H2_3 H 0.6739 0.6079 0.4253
H3_3 H 0.8148 0.6229 0.4125
H4_3 H 0.7240 0.7347 0.4137
C5_3 C 0.3753(4) 0.4970(4) 0.2163(2)
C6_3 C 0.6006(5) 0.6876(4) 0.1799(2)
O16_2 O 0.6812(4) 0.9401(3) 0.25140(16)
O20_2 O 0.9752(4) 0.6139(3) 0.31647(15)
O21_2 O 0.9785(4) 0.6963(3) 0.20878(15)
H10_3 H 0.485167 0.524694 0.339772
O4_4 O 0.2925(3) 0.2463(3) 0.31716(14)
O8_4 O 0.0182(3) 0.3229(3) 0.11569(14)
O10_4 O 0.0710(4) 0.4438(3) 0.30032(15)
O12_2 O 0.0553(4) 0.5212(3) 0.18861(15)
N1_4 N 0.4668(4) 0.0700(4) 0.18554(19)
N2_4 N 0.3159(4) 0.1864(3) 0.20868(18)
C1_4 C 0.3512(5) 0.1381(5) 0.1638(2)
C2_4 C 0.5073(5) 0.0736(4) 0.2486(2)
C3_4 C 0.4133(5) 0.1473(4) 0.2614(2)
C4_4 C 0.2780(7) 0.1522(6) 0.0971(2)
H2_4 H 0.3261 0.1079 0.0747
H3_4 H 0.1852 0.1229 0.0875
H4_4 H 0.2760 0.2347 0.0863
C6_4 C 0.3994(5) 0.1876(4) 0.3201(2)
C13_2 C 0.0221(5) 0.5456(4) 0.2851(2)
C14_2 C 0.0180(4) 0.5917(4) 0.2219(2)
H10_4 H 0.514833 0.0246939 0.160228
C5_4 C 0.6247(4) 0.9970(4) 0.2837(2)
O7_4 O 0.8512(3) 0.3680(4) 0.03143(15)
N3_4 N 0.6235(4) 0.3703(4) 0.15915(19)
H1_4 H 0.533(6) 0.405(5) 0.164(3)
N4_4 N 0.8478(4) 0.3397(4) 0.18546(17)
C7_4 C 0.7417(5) 0.3512(4) 0.2059(2)
C8_4 C 0.6547(5) 0.3701(4) 0.1057(2)
C9_4 C 0.7958(5) 0.3506(4) 0.1230(2)
C10_4 C 0.7440(5) 0.3456(5) 0.2702(2)
H5_4 H 0.6520 0.3568 0.2719
H6_4 H 0.7782 0.2694 0.2870
H7_4 H 0.8032 0.4070 0.2932
C11_4 C 0.5401(5) 0.3851(4) 0.0478(2)
C12_4 C 0.8925(4) 0.3458(4) 0.0868(2)
O6_4 O 0.5564(4) 0.3638(4) 0.99823(16)
O13_4 O 0.7066(5) 0.1896(4) 0.9412(2)
O14_4 O 0.8835(5) 0.3509(4) 0.9000(2)
O15_4 O 0.8620(4) 0.5740(3) 0.96606(18)
H8_4 H 0.747767 0.164584 0.984211
H9_4 H 0.764844 0.160067 0.917214
H11_4 H 0.969621 0.343945 0.935114
H12_4 H 0.896545 0.411484 0.871224
H13_4 H 0.812529 0.649053 0.968183
H14_4 H 0.911388 0.582646 0.935758
O12_3 O 0.0553(4) 0.9788(3) 0.68861(15)
C13_3 C 0.0221(5) 0.9544(4) 0.7851(2)
C14_3 C 0.0180(4) 0.9083(4) 0.7219(2)
O12_4 O 0.9447(4) 0.0212(3) 0.31139(15)
C13_4 C 0.9779(5) 0.0456(4) 0.2149(2)
C14_4 C 0.9820(4) 0.0917(4) 0.2781(2)
loop_
_geom_bond_atom_site_label_1
_geom_bond_atom_site_label_2
_geom_bond_site_symmetry_1
_geom_bond_site_symmetry_2
Eu1 O4 1_555 1_555
O1 C5 1_555 1_555
O2 C5 1_555 1_555
O3 C6 1_555 1_555
O4 C6 1_555 1_555
O8 Eu1 1_555 1_555
O10 Eu1 1_555 1_555
N1 C1 1_555 1_555
N2 Eu1 1_555 1_555
C1 N2 1_555 1_555
C2 N1 1_555 1_555
C3 N2 1_555 1_555
C4 C1 1_555 1_555
H2 C4 1_555 1_555
H3 C4 1_555 1_555
H4 C4 1_555 1_555
C5 C2 1_555 1_555
C6 C3 1_555 1_555
Eu3 O1 1_555 1_555
Eu5 O2 1_555 1_555
O16 Eu1 1_555 1_555
O20 Eu1 1_555 1_555
O21 Eu1 1_555 1_555
O3 Eu5 1_555 1_555
C2 C3 1_555 1_555
N1 H10 1_555 1_555
Eu2 O6 1_555 1_555
O5 C11 1_555 1_555
O6 C11 1_555 1_555
O7 Eu2 1_555 1_555
O13 Eu2 1_555 1_555
O14 Eu2 1_555 1_555
N3 H1 1_555 1_555
C7 N3 1_555 1_555
C8 N3 1_555 1_555
C9 N4 1_555 1_555
C10 C7 1_555 1_555
H5 C10 1_555 1_555
H6 C10 1_555 1_555
H7 C10 1_555 1_555
C11 C8 1_555 1_555
C12 O7 1_555 1_555
O18 Eu2 1_555 1_555
N4 C7 1_555 1_555
C8 C9 1_555 1_555
C9 C12 1_555 1_555
O13 H8 1_555 1_555
O13 H9 1_555 1_555
O14 H11 1_555 1_555
O14 H12 1_555 1_555
Eu3 O9 1_555 1_555
O11 Eu3 1_555 1_555
O15 H13 1_555 1_555
O15 H14 1_555 1_555
Eu2_2 O6_2 1_555 1_555
O13_2 Eu2_2 1_555 1_555
O14_2 Eu2_2 1_555 1_555
O15_2 Eu2_2 1_555 1_555
O17_2 Eu2_2 1_555 1_555
O18_2 Eu2_2 1_555 1_555
O19_2 Eu2_2 1_555 1_555
O13_2 H8_2 1_555 1_555
O13_2 H9_2 1_555 1_555
O14_2 H11_2 1_555 1_555
O14_2 H12_2 1_555 1_555
O15_2 H13_2 1_555 1_555
O15_2 H14_2 1_555 1_555
O5_2 C11_2 1_555 1_555
N3_2 H1_2 1_555 1_555
C7_2 N3_2 1_555 1_555
C8_2 N3_2 1_555 1_555
C9_2 N4_2 1_555 1_555
C10_2 C7_2 1_555 1_555
H5_2 C10_2 1_555 1_555
H6_2 C10_2 1_555 1_555
H7_2 C10_2 1_555 1_555
C11_2 C8_2 1_555 1_555
C12_2 O7_2 1_555 1_555
Eu5 O5_2 1_555 1_555
N4_2 C7_2 1_555 1_555
C8_2 C9_2 1_555 1_555
C9_2 C12_2 1_555 1_555
O16 C5_2 1_555 1_555
O2_2 C5_2 1_555 1_555
Eu3 O4_2 1_555 1_555
O3_2 C6_2 1_555 1_555
O4_2 C6_2 1_555 1_555
O8_2 Eu3 1_555 1_555
O10_2 Eu3 1_555 1_555
O12 Eu3 1_555 1_555
N1_2 C1_2 1_555 1_555
N2_2 Eu3 1_555 1_555
C1_2 N2_2 1_555 1_555
C2_2 N1_2 1_555 1_555
C3_2 N2_2 1_555 1_555
C4_2 C1_2 1_555 1_555
H2_2 C4_2 1_555 1_555
H3_2 C4_2 1_555 1_555
H4_2 C4_2 1_555 1_555
C6_2 C3_2 1_555 1_555
C13 O10_2 1_555 1_555
C14 O12 1_555 1_555
O3_2 Eu6 1_555 1_555
C2_2 C3_2 1_555 1_555
C13 C14 1_555 1_555
N1_2 H10_2 1_555 1_555
Eu4 O9_2 1_555 1_555
O11_2 Eu4 1_555 1_555
O15_3 H13_3 1_555 1_555
O15_3 H14_3 1_555 1_555
Eu6 O6_3 1_555 1_555
O19 C11_3 1_555 1_555
O6_3 C11_3 1_555 1_555
O7_3 Eu6 1_555 1_555
O13_3 Eu6 1_555 1_555
O14_3 Eu6 1_555 1_555
N3_3 H1_3 1_555 1_555
C7_3 N3_3 1_555 1_555
C8_3 N3_3 1_555 1_555
C9_3 N4_3 1_555 1_555
C10_3 C7_3 1_555 1_555
H5_3 C10_3 1_555 1_555
H6_3 C10_3 1_555 1_555
H7_3 C10_3 1_555 1_555
C11_3 C8_3 1_555 1_555
C12_3 O7_3 1_555 1_555
N4_3 C7_3 1_555 1_555
C8_3 C9_3 1_555 1_555
C9_3 C12_3 1_555 1_555
O13_3 H8_3 1_555 1_555
O13_3 H9_3 1_555 1_555
O14_3 H11_3 1_555 1_555
O14_3 H12_3 1_555 1_555
Eu1_2 O4_3 1_555 1_555
O1_2 C5_3 1_555 1_555
O17_2 C5_3 1_555 1_555
O18_2 C6_3 1_555 1_555
O4_3 C6_3 1_555 1_555
O8_3 Eu1_2 1_555 1_555
O10_3 Eu1_2 1_555 1_555
N1_3 C1_3 1_555 1_555
N2_3 Eu1_2 1_555 1_555
C1_3 N2_3 1_555 1_555
C2_3 N1_3 1_555 1_555
C3_3 N2_3 1_555 1_555
C4_3 C1_3 1_555 1_555
H2_3 C4_3 1_555 1_555
H3_3 C4_3 1_555 1_555
H4_3 C4_3 1_555 1_555
C5_3 C2_3 1_555 1_555
C6_3 C3_3 1_555 1_555
Eu4 O1_2 1_555 1_555
O16_2 Eu1_2 1_555 1_555
O20_2 Eu1_2 1_555 1_555
O21_2 Eu1_2 1_555 1_555
C2_3 C3_3 1_555 1_555
N1_3 H10_3 1_555 1_555
Eu4 O4_4 1_555 1_555
O18 C6_4 1_555 1_555
O4_4 C6_4 1_555 1_555
O8_4 Eu4 1_555 1_555
O10_4 Eu4 1_555 1_555
O12_2 Eu4 1_555 1_555
N1_4 C1_4 1_555 1_555
N2_4 Eu4 1_555 1_555
C1_4 N2_4 1_555 1_555
C2_4 N1_4 1_555 1_555
C3_4 N2_4 1_555 1_555
C4_4 C1_4 1_555 1_555
H2_4 C4_4 1_555 1_555
H3_4 C4_4 1_555 1_555
H4_4 C4_4 1_555 1_555
C6_4 C3_4 1_555 1_555
C13_2 O10_4 1_555 1_555
C14_2 O12_2 1_555 1_555
C2_4 C3_4 1_555 1_555
C13_2 C14_2 1_555 1_555
N1_4 H10_4 1_555 1_555
O16_2 C5_4 1_555 1_555
O17 C5_4 1_555 1_555
O19_2 C11_4 1_555 1_555
N3_4 H1_4 1_555 1_555
C7_4 N3_4 1_555 1_555
C8_4 N3_4 1_555 1_555
C9_4 N4_4 1_555 1_555
C10_4 C7_4 1_555 1_555
H5_4 C10_4 1_555 1_555
H6_4 C10_4 1_555 1_555
H7_4 C10_4 1_555 1_555
C11_4 C8_4 1_555 1_555
C12_4 O7_4 1_555 1_555
N4_4 C7_4 1_555 1_555
C8_4 C9_4 1_555 1_555
C9_4 C12_4 1_555 1_555
Eu5 O6_4 1_555 1_555
O13_4 Eu5 1_555 1_555
O14_4 Eu5 1_555 1_555
O15_4 Eu5 1_555 1_555
O13_4 H8_4 1_555 1_555
O13_4 H9_4 1_555 1_555
O14_4 H11_4 1_555 1_555
O14_4 H12_4 1_555 1_555
O15_4 H13_4 1_555 1_555
O15_4 H14_4 1_555 1_555
C14_3 O12_3 1_555 1_555
C13_3 C14_3 1_555 1_555
C14_4 O12_4 1_555 1_555
C13_4 C14_4 1_555 1_555

#END
