
###############################################################################
#
# This file contains modified crystal structure data generated from the
# MOF subset of the Cambridge Structural Database (CSD) v543 
# hosted by the Cambridge Crystallographic Data Centre (CCDC).
#
# This work is licensed under the Creative Commons
# Attribution-NonCommercial-ShareAlike 4.0 International License.
# To view a copy of this license, visit
# http://creativecommons.org/licenses/by-nc-sa/4.0/
# or send a letter to
# Creative Commons, PO Box 1866, Mountain View, CA 94042, USA.
#
# CIF created using the CSD Python API on 29 September 2022
# The structure has been converted into the P1 space group
# The structure has a 3D framework
# The original CSD entry TELTOW is in the monoclinic crystal system
# The framework has been calculated to contain at least 10.0% void space
# The void calculation uses a probe of radius 1.32A, grid spacing 0.4
#
###############################################################################

data_TELTOW
_chemical_formula_moiety         '(C120 H112 Cd8 N32 O32)n'
_symmetry_cell_setting           triclinic
_symmetry_space_group_name_H-M   'P 1'
_symmetry_Int_Tables_number      1
_space_group_name_Hall           'P 1'
loop_
_symmetry_equiv_pos_site_id
_symmetry_equiv_pos_as_xyz
1 x,y,z
_cell_length_a                   14.304(5)
_cell_length_b                   11.610(5)
_cell_length_c                   24.471(5)
_cell_angle_alpha                90
_cell_angle_beta                 106.443(5)
_cell_angle_gamma                90
_cell_volume                     3897.68
loop_
_atom_site_label
_atom_site_type_symbol
_atom_site_fract_x
_atom_site_fract_y
_atom_site_fract_z
H1 H 0.208649 0.069957 0.090051
O1 O 0.0062(2) 0.1812(3) 0.69748(13)
C10 C 0.1331(3) 0.0112(4) 0.66731(19)
H8 H 0.162096 0.080076 0.687523
C11 C 0.0329(3) 0.1171(4) 0.90128(18)
H9 H 0.065644 0.159013 0.933378
C13 C 0.0298(4) 0.0397(5) 0.63108(18)
C14 C 0.0270(7) 0.1119(8) 0.5805(3)
H12 H 0.065001 0.075923 0.558566
H14 H 0.053491 0.186635 0.592764
N2 N 0.2785(2) 0.8189(3) 0.14062(12)
C1 C 0.1699(3) 0.9262(4) 0.04260(15)
C2 C 0.2143(3) 0.9901(4) 0.09032(16)
C4 C 0.1792(3) 0.8077(4) 0.04403(17)
H2 H 0.149234 0.762981 0.012385
C6 C 0.2674(3) 0.9326(4) 0.13871(16)
H4 H 0.296579 0.975235 0.171232
C7 C 0.2344(3) 0.7578(4) 0.09379(16)
H5 H 0.241424 0.678141 0.095036
Cd2 Cd 0.36236(2) 0.72120(2) 0.22297(2)
N3 N 0.1180(3) 0.9909(3) 0.99351(14)
N4 N 0.0791(3) 0.9315(3) 0.95156(14)
C3 C 0.0309(3) 0.9985(3) 0.90250(15)
H7 H 0.171740 0.988975 0.642241
C15 C 0.1379(3) 0.9165(3) 0.70982(14)
O3 O 0.0670(2) 0.8964(2) 0.72836(12)
O4 O 0.2136(2) 0.8560(3) 0.72570(13)
Cd3 Cd 0.13764(2) 0.72120(2) 0.77703(2)
Cd4 Cd 0.36236(2) 0.77880(2) 0.72297(2)
Cd1 Cd 0.86236(2) 0.22120(2) 0.72297(2)
O2 O 0.8832(2) 0.0677(3) 0.65866(13)
N1 N 0.9351(2) 0.1157(3) 0.80453(12)
C8 C 0.9693(3) 0.0981(3) 0.66520(16)
C9 C 0.9348(3) 0.0020(4) 0.80607(16)
C12 C 0.9855(3) 0.1715(4) 0.85161(18)
H10 H 0.988416 0.251429 0.850429
H13 H 0.960821 0.119876 0.557388
N5 N 0.7785(2) 0.3189(3) 0.64062(12)
O5 O 0.9330(2) 0.3964(2) 0.77164(12)
O6 O 0.7864(2) 0.3560(3) 0.77430(13)
O7 O 0.7136(2) 0.1440(3) 0.72570(13)
Cd1_2 Cd 0.63764(2) 0.22120(2) 0.27703(2)
O1_2 O 0.4938(2) 0.1812(3) 0.30252(13)
O2_2 O 0.6168(2) 0.0677(3) 0.34134(13)
N1_2 N 0.5649(2) 0.1157(3) 0.19547(12)
C8_2 C 0.5307(3) 0.0981(3) 0.33480(16)
C9_2 C 0.5652(3) 0.0020(4) 0.19393(16)
C10_2 C 0.3669(3) 0.0112(4) 0.33269(19)
H8_2 H 0.337904 0.080076 0.312477
C11_2 C 0.4671(3) 0.1171(4) 0.09872(18)
H9_2 H 0.434356 0.159013 0.066622
C12_2 C 0.5145(3) 0.1715(4) 0.14839(18)
H10_2 H 0.511584 0.251429 0.149571
C13_2 C 0.4702(4) 0.0397(5) 0.36892(18)
C14_2 C 0.4730(7) 0.1119(8) 0.4195(3)
H12_2 H 0.434999 0.075923 0.441434
H13_2 H 0.539179 0.119876 0.442612
H14_2 H 0.446509 0.186635 0.407236
N5_2 N 0.7215(2) 0.3189(3) 0.35938(12)
O5_2 O 0.5670(2) 0.3964(2) 0.22836(12)
O6_2 O 0.7136(2) 0.3560(3) 0.22570(13)
O7_2 O 0.7864(2) 0.1440(3) 0.27430(13)
N3_2 N 0.3820(3) 0.9909(3) 0.00649(14)
N4_2 N 0.4209(3) 0.9315(3) 0.04844(14)
C3_2 C 0.4691(3) 0.9985(3) 0.09750(15)
C5 C 0.5190(3) 0.9388(4) 0.14576(17)
H3 H 0.521560 0.858794 0.145949
H6 H 0.597926 0.962309 0.226789
H7_2 H 0.328260 0.988975 0.357759
H11 H 0.502305 0.966564 0.383005
C15_2 C 0.3621(3) 0.9165(3) 0.29018(14)
O3_2 O 0.4330(2) 0.8964(2) 0.27164(12)
O4_2 O 0.2864(2) 0.8560(3) 0.27430(13)
Cd4_2 Cd 0.13764(2) 0.77880(2) 0.27703(2)
N2_2 N 0.2215(2) 0.8189(3) 0.85938(12)
C1_2 C 0.3301(3) 0.9262(4) 0.95740(15)
C2_2 C 0.2857(3) 0.9901(4) 0.90968(16)
C4_2 C 0.3208(3) 0.8077(4) 0.95597(17)
H2_2 H 0.350766 0.762981 0.987615
C6_2 C 0.2326(3) 0.9326(4) 0.86129(16)
H4_2 H 0.203421 0.975235 0.828768
C7_2 C 0.2656(3) 0.7578(4) 0.90621(16)
H5_2 H 0.258576 0.678141 0.904964
O1_3 O 0.5062(2) 0.6812(3) 0.19748(13)
O2_3 O 0.3832(2) 0.5677(3) 0.15866(13)
N1_3 N 0.4351(2) 0.6157(3) 0.30453(12)
N3_3 N 0.6180(3) 0.4909(3) 0.49351(14)
N4_3 N 0.5791(3) 0.4315(3) 0.45156(14)
C1_3 C 0.6699(3) 0.4262(4) 0.54260(15)
C2_3 C 0.7143(3) 0.4901(4) 0.59032(16)
H1_2 H 0.708649 0.569957 0.590051
C3_3 C 0.5309(3) 0.4985(3) 0.40250(15)
C4_3 C 0.6792(3) 0.3077(4) 0.54403(17)
H2_3 H 0.649234 0.262981 0.512385
C5_2 C 0.4810(3) 0.4388(4) 0.35424(17)
H3_2 H 0.478440 0.358794 0.354051
C6_3 C 0.7674(3) 0.4326(4) 0.63871(16)
H4_3 H 0.796579 0.475235 0.671232
C7_3 C 0.7344(3) 0.2578(4) 0.59379(16)
H5_3 H 0.741424 0.178141 0.595036
C8_3 C 0.4693(3) 0.5981(3) 0.16520(16)
C9_3 C 0.4348(3) 0.5020(4) 0.30607(16)
H6_2 H 0.402074 0.462309 0.273211
C10_3 C 0.6331(3) 0.5112(4) 0.16731(19)
H7_3 H 0.671740 0.488975 0.142241
H8_3 H 0.662096 0.580076 0.187523
C11_3 C 0.5329(3) 0.6171(4) 0.40128(18)
H9_3 H 0.565644 0.659013 0.433378
C12_3 C 0.4855(3) 0.6715(4) 0.35161(18)
H10_3 H 0.488416 0.751429 0.350429
C13_3 C 0.5298(4) 0.5397(5) 0.13108(18)
H11_2 H 0.497695 0.466564 0.116995
C14_3 C 0.5270(7) 0.6119(8) 0.0805(3)
H12_3 H 0.565001 0.575923 0.058566
H13_3 H 0.460821 0.619876 0.057388
H14_3 H 0.553491 0.686635 0.092764
C15_3 C 0.6379(3) 0.4165(3) 0.20982(14)
Cd4_3 Cd 0.86236(2) 0.27880(2) 0.22297(2)
O7_3 O 0.2136(2) 0.6440(3) 0.22570(13)
O2_4 O 0.1168(2) 0.5677(3) 0.84134(13)
N1_4 N 0.0649(2) 0.6157(3) 0.69547(12)
C5_3 C 0.0190(3) 0.4388(4) 0.64576(17)
H3_3 H 0.021560 0.358794 0.645949
C8_4 C 0.0307(3) 0.5981(3) 0.83480(16)
C9_4 C 0.0652(3) 0.5020(4) 0.69393(16)
H6_3 H 0.097926 0.462309 0.726789
C12_4 C 0.0145(3) 0.6715(4) 0.64839(18)
H10_4 H 0.011584 0.751429 0.649571
H11_3 H 0.002305 0.466564 0.883005
H13_4 H 0.039179 0.619876 0.942612
O7_4 O 0.2864(2) 0.6440(3) 0.77430(13)
O1_4 O 0.9938(2) 0.6812(3) 0.80252(13)
N3_4 N 0.8820(3) 0.4909(3) 0.50649(14)
N4_4 N 0.9209(3) 0.4315(3) 0.54844(14)
C1_4 C 0.8301(3) 0.4262(4) 0.45740(15)
C2_4 C 0.7857(3) 0.4901(4) 0.40968(16)
H1_3 H 0.791351 0.569957 0.409949
C3_4 C 0.9691(3) 0.4985(3) 0.59750(15)
C4_4 C 0.8208(3) 0.3077(4) 0.45597(17)
H2_4 H 0.850766 0.262981 0.487615
C6_4 C 0.7326(3) 0.4326(4) 0.36129(16)
H4_4 H 0.703421 0.475235 0.328768
C7_4 C 0.7656(3) 0.2578(4) 0.40621(16)
H5_4 H 0.758576 0.178141 0.404964
C10_4 C 0.8669(3) 0.5112(4) 0.83269(19)
H7_4 H 0.828260 0.488975 0.857759
H8_4 H 0.837904 0.580076 0.812477
C11_4 C 0.9671(3) 0.6171(4) 0.59872(18)
H9_4 H 0.934356 0.659013 0.566622
C13_4 C 0.9702(4) 0.5397(5) 0.86892(18)
C14_4 C 0.9730(7) 0.6119(8) 0.9195(3)
H12_4 H 0.934999 0.575923 0.941434
H14_4 H 0.946509 0.686635 0.907236
C15_4 C 0.8621(3) 0.4165(3) 0.79018(14)
Cd4_4 Cd 0.63764(2) 0.27880(2) 0.77703(2)
O2_5 O 0.1168(2) 0.9323(3) 0.34134(13)
N1_5 N 0.0649(2) 0.8843(3) 0.19547(12)
C8_5 C 0.0307(3) 0.9019(3) 0.33480(16)
C9_5 C 0.0652(3) 0.9980(4) 0.19393(16)
C12_5 C 0.0145(3) 0.8285(4) 0.14839(18)
H10_5 H 0.011584 0.748571 0.149571
H13_5 H 0.039179 0.880124 0.442612
N5_3 N 0.2215(2) 0.6811(3) 0.35938(12)
O5_3 O 0.0670(2) 0.6036(2) 0.22836(12)
N3_5 N 0.8820(3) 0.0091(3) 0.00649(14)
N4_5 N 0.9209(3) 0.0685(3) 0.04844(14)
C3_5 C 0.9691(3) 0.0015(3) 0.09750(15)
H7_5 H 0.828260 0.011025 0.357759
C15_5 C 0.8621(3) 0.0835(3) 0.29018(14)
O3_3 O 0.9330(2) 0.1036(2) 0.27164(12)
N2_3 N 0.7215(2) 0.1811(3) 0.85938(12)
C1_5 C 0.8301(3) 0.0738(4) 0.95740(15)
C2_5 C 0.7857(3) 0.0099(4) 0.90968(16)
C4_5 C 0.8208(3) 0.1923(4) 0.95597(17)
H2_5 H 0.850766 0.237019 0.987615
C6_5 C 0.7326(3) 0.0674(4) 0.86129(16)
H4_5 H 0.703421 0.024765 0.828768
C7_5 C 0.7656(3) 0.2422(4) 0.90621(16)
H5_5 H 0.758576 0.321859 0.904964
N2_4 N 0.7785(2) 0.1811(3) 0.14062(12)
C1_6 C 0.6699(3) 0.0738(4) 0.04260(15)
C2_6 C 0.7143(3) 0.0099(4) 0.09032(16)
C4_6 C 0.6792(3) 0.1923(4) 0.04403(17)
H2_6 H 0.649234 0.237019 0.012385
C6_6 C 0.7674(3) 0.0674(4) 0.13871(16)
H4_6 H 0.796579 0.024765 0.171232
C7_6 C 0.7344(3) 0.2422(4) 0.09379(16)
H5_6 H 0.741424 0.321859 0.095036
N3_6 N 0.6180(3) 0.0091(3) 0.99351(14)
N4_6 N 0.5791(3) 0.0685(3) 0.95156(14)
C3_6 C 0.5309(3) 0.0015(3) 0.90250(15)
C5_4 C 0.4810(3) 0.0612(4) 0.85424(17)
H3_4 H 0.478440 0.141206 0.854051
H6_4 H 0.402074 0.037691 0.773211
H7_6 H 0.671740 0.011025 0.642241
H11_4 H 0.497695 0.033436 0.616995
C15_6 C 0.6379(3) 0.0835(3) 0.70982(14)
O3_4 O 0.5670(2) 0.1036(2) 0.72836(12)
O1_5 O 0.5062(2) 0.8188(3) 0.69748(13)
O2_6 O 0.3832(2) 0.9323(3) 0.65866(13)
N1_6 N 0.4351(2) 0.8843(3) 0.80453(12)
C8_6 C 0.4693(3) 0.9019(3) 0.66520(16)
C9_6 C 0.4348(3) 0.9980(4) 0.80607(16)
C10_5 C 0.6331(3) 0.9888(4) 0.66731(19)
H8_5 H 0.662096 0.919924 0.687523
C11_5 C 0.5329(3) 0.8829(4) 0.90128(18)
H9_5 H 0.565644 0.840987 0.933378
C12_6 C 0.4855(3) 0.8285(4) 0.85161(18)
H10_6 H 0.488416 0.748571 0.850429
C13_5 C 0.5298(4) 0.9603(5) 0.63108(18)
C14_5 C 0.5270(7) 0.8881(8) 0.5805(3)
H12_5 H 0.565001 0.924077 0.558566
H13_6 H 0.460821 0.880124 0.557388
H14_5 H 0.553491 0.813365 0.592764
N5_4 N 0.2785(2) 0.6811(3) 0.64062(12)
O5_4 O 0.4330(2) 0.6036(2) 0.77164(12)
O1_6 O 0.4938(2) 0.3188(3) 0.80252(13)
O2_7 O 0.6168(2) 0.4323(3) 0.84134(13)
N1_7 N 0.5649(2) 0.3843(3) 0.69547(12)
N3_7 N 0.3820(3) 0.5091(3) 0.50649(14)
N4_7 N 0.4209(3) 0.5685(3) 0.54844(14)
C1_7 C 0.3301(3) 0.5738(4) 0.45740(15)
C2_7 C 0.2857(3) 0.5099(4) 0.40968(16)
H1_4 H 0.291351 0.430043 0.409949
C3_7 C 0.4691(3) 0.5015(3) 0.59750(15)
C4_7 C 0.3208(3) 0.6923(4) 0.45597(17)
H2_7 H 0.350766 0.737019 0.487615
C5_5 C 0.5190(3) 0.5612(4) 0.64576(17)
H3_5 H 0.521560 0.641206 0.645949
C6_7 C 0.2326(3) 0.5674(4) 0.36129(16)
H4_7 H 0.203421 0.524765 0.328768
C7_7 C 0.2656(3) 0.7422(4) 0.40621(16)
H5_7 H 0.258576 0.821859 0.404964
C8_7 C 0.5307(3) 0.4019(3) 0.83480(16)
C9_7 C 0.5652(3) 0.4980(4) 0.69393(16)
H6_5 H 0.597926 0.537691 0.726789
C10_6 C 0.3669(3) 0.4888(4) 0.83269(19)
H7_7 H 0.328260 0.511025 0.857759
H8_6 H 0.337904 0.419924 0.812477
C11_6 C 0.4671(3) 0.3829(4) 0.59872(18)
H9_6 H 0.434356 0.340987 0.566622
C12_7 C 0.5145(3) 0.3285(4) 0.64839(18)
H10_7 H 0.511584 0.248571 0.649571
C13_6 C 0.4702(4) 0.4603(5) 0.86892(18)
H11_5 H 0.502305 0.533436 0.883005
C14_6 C 0.4730(7) 0.3881(8) 0.9195(3)
H12_6 H 0.434999 0.424077 0.941434
H13_7 H 0.539179 0.380124 0.942612
H14_6 H 0.446509 0.313365 0.907236
C15_7 C 0.3621(3) 0.5835(3) 0.79018(14)
O1_7 O 0.0062(2) 0.3188(3) 0.19748(13)
N3_8 N 0.1180(3) 0.5091(3) 0.49351(14)
N4_8 N 0.0791(3) 0.5685(3) 0.45156(14)
C1_8 C 0.1699(3) 0.5738(4) 0.54260(15)
C2_8 C 0.2143(3) 0.5099(4) 0.59032(16)
H1_5 H 0.208649 0.430043 0.590051
C3_8 C 0.0309(3) 0.5015(3) 0.40250(15)
C4_8 C 0.1792(3) 0.6923(4) 0.54403(17)
H2_8 H 0.149234 0.737019 0.512385
C6_8 C 0.2674(3) 0.5674(4) 0.63871(16)
H4_8 H 0.296579 0.524765 0.671232
C7_8 C 0.2344(3) 0.7422(4) 0.59379(16)
H5_8 H 0.241424 0.821859 0.595036
C10_7 C 0.1331(3) 0.4888(4) 0.16731(19)
H7_8 H 0.171740 0.511025 0.142241
H8_7 H 0.162096 0.419924 0.187523
C11_7 C 0.0329(3) 0.3829(4) 0.40128(18)
H9_7 H 0.065644 0.340987 0.433378
C13_7 C 0.0298(4) 0.4603(5) 0.13108(18)
C14_7 C 0.0270(7) 0.3881(8) 0.0805(3)
H12_7 H 0.065001 0.424077 0.058566
H14_7 H 0.053491 0.313365 0.092764
C15_8 C 0.1379(3) 0.5835(3) 0.20982(14)
O2_8 O 0.8832(2) 0.4323(3) 0.15866(13)
N1_8 N 0.9351(2) 0.3843(3) 0.30453(12)
C5_6 C 0.9810(3) 0.5612(4) 0.35424(17)
H3_6 H 0.978440 0.641206 0.354051
C8_8 C 0.9693(3) 0.4019(3) 0.16520(16)
C9_8 C 0.9348(3) 0.4980(4) 0.30607(16)
H6_6 H 0.902074 0.537691 0.273211
C12_8 C 0.9855(3) 0.3285(4) 0.35161(18)
H10_8 H 0.988416 0.248571 0.350429
H11_6 H 0.997695 0.533436 0.116995
H13_8 H 0.960821 0.380124 0.057388
C5_7 C 0.9810(3) 0.9388(4) 0.85424(17)
H3_7 H 0.978440 0.858794 0.854051
H6_7 H 0.902074 0.962309 0.773211
H11_7 H 0.997695 0.966564 0.616995
H1_6 H 0.291351 0.069957 0.909949
C5_8 C 0.0190(3) 0.0612(4) 0.14576(17)
H3_8 H 0.021560 0.141206 0.145949
H6_8 H 0.097926 0.037691 0.226789
H11_8 H 0.002305 0.033436 0.383005
O1_8 O 0.9938(2) 0.8188(3) 0.30252(13)
C10_8 C 0.8669(3) 0.9888(4) 0.33269(19)
H8_8 H 0.837904 0.919924 0.312477
C11_8 C 0.9671(3) 0.8829(4) 0.09872(18)
H9_8 H 0.934356 0.840987 0.066622
C13_8 C 0.9702(4) 0.9603(5) 0.36892(18)
C14_8 C 0.9730(7) 0.8881(8) 0.4195(3)
H12_8 H 0.934999 0.924077 0.441434
H14_8 H 0.946509 0.813365 0.407236
H1_7 H 0.791351 0.930043 0.909949
H1_8 H 0.708649 0.930043 0.090051
loop_
_geom_bond_atom_site_label_1
_geom_bond_atom_site_label_2
_geom_bond_site_symmetry_1
_geom_bond_site_symmetry_2
H8 C10 1_555 1_555
H9 C11 1_555 1_555
C14 C13 1_555 1_555
H12 C14 1_555 1_555
H14 C14 1_555 1_555
C10 C13 1_555 1_555
N2 C6 1_555 1_555
C2 C1 1_555 1_555
C4 C1 1_555 1_555
H2 C4 1_555 1_555
C6 C2 1_555 1_555
H4 C6 1_555 1_555
C7 N2 1_555 1_555
H5 C7 1_555 1_555
Cd2 N2 1_555 1_555
C4 C7 1_555 1_555
N3 N4 1_555 1_555
N4 C3 1_555 1_555
O3 C15 1_555 1_555
O4 C15 1_555 1_555
Cd3 O3 1_555 1_555
Cd4 O4 1_555 1_555
O4 Cd3 1_555 1_555
O2 Cd1 1_555 1_555
N1 Cd1 1_555 1_555
C8 O2 1_555 1_555
C9 N1 1_555 1_555
C12 N1 1_555 1_555
H10 C12 1_555 1_555
N5 Cd1 1_555 1_555
O5 Cd1 1_555 1_555
O6 Cd1 1_555 1_555
O7 Cd1 1_555 1_555
Cd1_2 O1_2 1_555 1_555
O1_2 C8_2 1_555 1_555
O2_2 Cd1_2 1_555 1_555
N1_2 Cd1_2 1_555 1_555
C8_2 O2_2 1_555 1_555
C9_2 N1_2 1_555 1_555
H8_2 C10_2 1_555 1_555
H9_2 C11_2 1_555 1_555
C12_2 N1_2 1_555 1_555
H10_2 C12_2 1_555 1_555
C13_2 C8_2 1_555 1_555
C14_2 C13_2 1_555 1_555
H12_2 C14_2 1_555 1_555
H13_2 C14_2 1_555 1_555
H14_2 C14_2 1_555 1_555
N5_2 Cd1_2 1_555 1_555
O5_2 Cd1_2 1_555 1_555
O6_2 Cd1_2 1_555 1_555
O7_2 Cd1_2 1_555 1_555
C10_2 C13_2 1_555 1_555
C11_2 C12_2 1_555 1_555
N3_2 N4_2 1_555 1_555
N4_2 C3_2 1_555 1_555
C3_2 C5 1_555 1_555
C5 H3 1_555 1_555
O3_2 C15_2 1_555 1_555
O4_2 C15_2 1_555 1_555
Cd2 O3_2 1_555 1_555
Cd4_2 O4_2 1_555 1_555
O4_2 Cd2 1_555 1_555
N2_2 C6_2 1_555 1_555
C2_2 C1_2 1_555 1_555
C4_2 C1_2 1_555 1_555
H2_2 C4_2 1_555 1_555
C6_2 C2_2 1_555 1_555
H4_2 C6_2 1_555 1_555
C7_2 N2_2 1_555 1_555
H5_2 C7_2 1_555 1_555
Cd3 N2_2 1_555 1_555
C4_2 C7_2 1_555 1_555
Cd2 O1_3 1_555 1_555
O1_3 C8_3 1_555 1_555
O2_3 Cd2 1_555 1_555
N1_3 Cd2 1_555 1_555
N5 C6_3 1_555 1_555
N3_3 N4_3 1_555 1_555
N4_3 C3_3 1_555 1_555
C1_3 N3_3 1_555 1_555
C2_3 C1_3 1_555 1_555
H1_2 C2_3 1_555 1_555
C3_3 C5_2 1_555 1_555
C4_3 C1_3 1_555 1_555
H2_3 C4_3 1_555 1_555
C5_2 H3_2 1_555 1_555
C6_3 C2_3 1_555 1_555
H4_3 C6_3 1_555 1_555
C7_3 N5 1_555 1_555
H5_3 C7_3 1_555 1_555
C8_3 O2_3 1_555 1_555
C9_3 N1_3 1_555 1_555
H6_2 C9_3 1_555 1_555
C10_3 H7_3 1_555 1_555
H8_3 C10_3 1_555 1_555
C11_3 C3_3 1_555 1_555
H9_3 C11_3 1_555 1_555
C12_3 N1_3 1_555 1_555
H10_3 C12_3 1_555 1_555
C13_3 C8_3 1_555 1_555
H11_2 C13_3 1_555 1_555
C14_3 C13_3 1_555 1_555
H12_3 C14_3 1_555 1_555
H13_3 C14_3 1_555 1_555
H14_3 C14_3 1_555 1_555
C15_3 C10_3 1_555 1_555
O5_2 C15_3 1_555 1_555
O6_2 C15_3 1_555 1_555
Cd4_3 O6_2 1_555 1_555
O7_3 Cd2 1_555 1_555
C4_3 C7_3 1_555 1_555
C5_2 C9_3 1_555 1_555
C10_3 C13_3 1_555 1_555
C11_3 C12_3 1_555 1_555
O2_4 Cd3 1_555 1_555
N1_4 Cd3 1_555 1_555
C5_3 H3_3 1_555 1_555
C8_4 O2_4 1_555 1_555
C9_4 N1_4 1_555 1_555
H6_3 C9_4 1_555 1_555
C12_4 N1_4 1_555 1_555
H10_4 C12_4 1_555 1_555
O7_4 Cd3 1_555 1_555
C5_3 C9_4 1_555 1_555
N5_2 C6_4 1_555 1_555
N3_4 N4_4 1_555 1_555
N4_4 C3_4 1_555 1_555
C1_4 N3_4 1_555 1_555
C2_4 C1_4 1_555 1_555
H1_3 C2_4 1_555 1_555
C4_4 C1_4 1_555 1_555
H2_4 C4_4 1_555 1_555
C6_4 C2_4 1_555 1_555
H4_4 C6_4 1_555 1_555
C7_4 N5_2 1_555 1_555
H5_4 C7_4 1_555 1_555
C10_4 H7_4 1_555 1_555
H8_4 C10_4 1_555 1_555
C11_4 C3_4 1_555 1_555
H9_4 C11_4 1_555 1_555
C14_4 C13_4 1_555 1_555
H12_4 C14_4 1_555 1_555
H14_4 C14_4 1_555 1_555
C15_4 C10_4 1_555 1_555
O5 C15_4 1_555 1_555
O6 C15_4 1_555 1_555
Cd4_4 O6 1_555 1_555
C4_4 C7_4 1_555 1_555
C10_4 C13_4 1_555 1_555
O2_5 Cd4_2 1_555 1_555
N1_5 Cd4_2 1_555 1_555
C8_5 O2_5 1_555 1_555
C9_5 N1_5 1_555 1_555
C12_5 N1_5 1_555 1_555
H10_5 C12_5 1_555 1_555
N5_3 Cd4_2 1_555 1_555
O5_3 Cd4_2 1_555 1_555
O7_3 Cd4_2 1_555 1_555
N3_5 N4_5 1_555 1_555
N4_5 C3_5 1_555 1_555
O3_3 C15_5 1_555 1_555
O7_2 C15_5 1_555 1_555
Cd4_3 O3_3 1_555 1_555
O7_2 Cd4_3 1_555 1_555
N2_3 C6_5 1_555 1_555
C2_5 C1_5 1_555 1_555
C4_5 C1_5 1_555 1_555
H2_5 C4_5 1_555 1_555
C6_5 C2_5 1_555 1_555
H4_5 C6_5 1_555 1_555
C7_5 N2_3 1_555 1_555
H5_5 C7_5 1_555 1_555
Cd4_4 N2_3 1_555 1_555
C4_5 C7_5 1_555 1_555
N2_4 C6_6 1_555 1_555
C2_6 C1_6 1_555 1_555
C4_6 C1_6 1_555 1_555
H2_6 C4_6 1_555 1_555
C6_6 C2_6 1_555 1_555
H4_6 C6_6 1_555 1_555
C7_6 N2_4 1_555 1_555
H5_6 C7_6 1_555 1_555
Cd4_3 N2_4 1_555 1_555
C4_6 C7_6 1_555 1_555
N3_6 N4_6 1_555 1_555
N4_6 C3_6 1_555 1_555
C3_6 C5_4 1_555 1_555
C5_4 H3_4 1_555 1_555
O3_4 C15_6 1_555 1_555
O7 C15_6 1_555 1_555
Cd4_4 O3_4 1_555 1_555
O7 Cd4_4 1_555 1_555
Cd4 O1_5 1_555 1_555
O1_5 C8_6 1_555 1_555
O2_6 Cd4 1_555 1_555
N1_6 Cd4 1_555 1_555
C8_6 O2_6 1_555 1_555
C9_6 N1_6 1_555 1_555
H8_5 C10_5 1_555 1_555
H9_5 C11_5 1_555 1_555
C12_6 N1_6 1_555 1_555
H10_6 C12_6 1_555 1_555
C13_5 C8_6 1_555 1_555
C14_5 C13_5 1_555 1_555
H12_5 C14_5 1_555 1_555
H13_6 C14_5 1_555 1_555
H14_5 C14_5 1_555 1_555
N5_4 Cd4 1_555 1_555
O5_4 Cd4 1_555 1_555
O7_4 Cd4 1_555 1_555
C10_5 C13_5 1_555 1_555
C11_5 C12_6 1_555 1_555
Cd4_4 O1_6 1_555 1_555
O1_6 C8_7 1_555 1_555
O2_7 Cd4_4 1_555 1_555
N1_7 Cd4_4 1_555 1_555
N5_3 C6_7 1_555 1_555
N3_7 N4_7 1_555 1_555
N4_7 C3_7 1_555 1_555
C1_7 N3_7 1_555 1_555
C2_7 C1_7 1_555 1_555
H1_4 C2_7 1_555 1_555
C3_7 C5_5 1_555 1_555
C4_7 C1_7 1_555 1_555
H2_7 C4_7 1_555 1_555
C5_5 H3_5 1_555 1_555
C6_7 C2_7 1_555 1_555
H4_7 C6_7 1_555 1_555
C7_7 N5_3 1_555 1_555
H5_7 C7_7 1_555 1_555
C8_7 O2_7 1_555 1_555
C9_7 N1_7 1_555 1_555
H6_5 C9_7 1_555 1_555
C10_6 H7_7 1_555 1_555
H8_6 C10_6 1_555 1_555
C11_6 C3_7 1_555 1_555
H9_6 C11_6 1_555 1_555
C12_7 N1_7 1_555 1_555
H10_7 C12_7 1_555 1_555
C13_6 C8_7 1_555 1_555
H11_5 C13_6 1_555 1_555
C14_6 C13_6 1_555 1_555
H12_6 C14_6 1_555 1_555
H13_7 C14_6 1_555 1_555
H14_6 C14_6 1_555 1_555
C15_7 C10_6 1_555 1_555
O5_4 C15_7 1_555 1_555
O7_4 C15_7 1_555 1_555
C4_7 C7_7 1_555 1_555
C5_5 C9_7 1_555 1_555
C10_6 C13_6 1_555 1_555
C11_6 C12_7 1_555 1_555
N5_4 C6_8 1_555 1_555
N3_8 N4_8 1_555 1_555
N4_8 C3_8 1_555 1_555
C1_8 N3_8 1_555 1_555
C2_8 C1_8 1_555 1_555
H1_5 C2_8 1_555 1_555
C4_8 C1_8 1_555 1_555
H2_8 C4_8 1_555 1_555
C6_8 C2_8 1_555 1_555
H4_8 C6_8 1_555 1_555
C7_8 N5_4 1_555 1_555
H5_8 C7_8 1_555 1_555
C10_7 H7_8 1_555 1_555
H8_7 C10_7 1_555 1_555
C11_7 C3_8 1_555 1_555
H9_7 C11_7 1_555 1_555
C14_7 C13_7 1_555 1_555
H12_7 C14_7 1_555 1_555
H14_7 C14_7 1_555 1_555
C15_8 C10_7 1_555 1_555
O5_3 C15_8 1_555 1_555
O7_3 C15_8 1_555 1_555
C4_8 C7_8 1_555 1_555
C10_7 C13_7 1_555 1_555
O2_8 Cd4_3 1_555 1_555
N1_8 Cd4_3 1_555 1_555
C5_6 H3_6 1_555 1_555
C8_8 O2_8 1_555 1_555
C9_8 N1_8 1_555 1_555
H6_6 C9_8 1_555 1_555
C12_8 N1_8 1_555 1_555
H10_8 C12_8 1_555 1_555
C5_6 C9_8 1_555 1_555
C5_7 H3_7 1_555 1_555
C5_8 H3_8 1_555 1_555
H8_8 C10_8 1_555 1_555
H9_8 C11_8 1_555 1_555
C14_8 C13_8 1_555 1_555
H12_8 C14_8 1_555 1_555
H14_8 C14_8 1_555 1_555
C10_8 C13_8 1_555 1_555

#END
