
###############################################################################
#
# This file contains modified crystal structure data generated from the
# MOF subset of the Cambridge Structural Database (CSD) v543 
# hosted by the Cambridge Crystallographic Data Centre (CCDC).
#
# This work is licensed under the Creative Commons
# Attribution-NonCommercial-ShareAlike 4.0 International License.
# To view a copy of this license, visit
# http://creativecommons.org/licenses/by-nc-sa/4.0/
# or send a letter to
# Creative Commons, PO Box 1866, Mountain View, CA 94042, USA.
#
# CIF created using the CSD Python API on 29 September 2022
# The structure has been converted into the P1 space group
# The structure has a 3D framework
# The original CSD entry TEPREO is in the triclinic crystal system
# The framework has been calculated to contain at least 10.0% void space
# The void calculation uses a probe of radius 1.32A, grid spacing 0.4
# H atom positions have been added when not included in the experimental data
#
###############################################################################

data_TEPREO
_chemical_formula_moiety         '(C60 H56 Ca3 N12 O14)n'
_symmetry_cell_setting           triclinic
_symmetry_space_group_name_H-M   'P 1'
_symmetry_Int_Tables_number      1
_space_group_name_Hall           'P 1'
loop_
_symmetry_equiv_pos_site_id
_symmetry_equiv_pos_as_xyz
1 x,y,z
_cell_length_a                   12.1251(8)
_cell_length_b                   12.7328(9)
_cell_length_c                   13.3485(9)
_cell_angle_alpha                86.8770(10)
_cell_angle_beta                 71.1660(10)
_cell_angle_gamma                83.0870(10)
_cell_volume                     1936.04
loop_
_atom_site_label
_atom_site_type_symbol
_atom_site_fract_x
_atom_site_fract_y
_atom_site_fract_z
Ca5 Ca 0.0000 0.5000 0.5000
C36 C 0.0466(7) 0.3673(5) 0.1827(5)
H31 H 0.0583 0.2978 0.2053
C37 C 0.0105(5) 0.4889(4) 0.0510(4)
C38 C 0.0155(8) 0.5682(5) 0.1151(5)
H32 H 0.0073 0.6383 0.0927
C39 C 0.0296(6) 0.3866(5) 0.0875(5)
H33 H 0.0307 0.3299 0.0459
C40 C 0.0323(8) 0.5463(5) 0.2106(6)
H34 H 0.0335 0.6013 0.2532
N8 N 0.0470(5) 0.4451(4) 0.2437(4)
O9 O 0.0625(5) 0.4239(4) 0.3367(3)
C2 C 0.0219(5) 0.9446(5) 0.4909(4)
N3 N 0.1018(5) 0.7296(4) 0.4573(5)
O1 O 0.1360(4) 0.6272(4) 0.4418(4)
C10 C 0.0330(6) 0.8930(5) 0.3961(5)
H7 H 0.0134 0.9319 0.3421
C11 C 0.0707(6) 0.7905(5) 0.3820(5)
H8 H 0.0758 0.7598 0.3188
C18 C 0.0580(6) 0.8794(5) 0.5653(5)
H14 H 0.0547 0.9084 0.6288
C20 C 0.0980(6) 0.7749(6) 0.5480(5)
H16 H 0.1226 0.7346 0.5986
O16 O 0.1413(4) 0.3806(3) 0.5389(3)
N10 N 0.1952(4) 0.2840(4) 0.5175(4)
C44 C 0.2254(6) 0.2260(5) 0.5945(5)
H37 H 0.2130 0.2559 0.6598
C45 C 0.2191(6) 0.2433(5) 0.4218(4)
H38 H 0.2005 0.2845 0.3685
C47 C 0.2968(5) 0.0759(4) 0.4788(4)
C48 C 0.2703(6) 0.1422(5) 0.4012(5)
H40 H 0.2883 0.1166 0.3332
C50 C 0.2742(6) 0.1234(5) 0.5762(5)
H42 H 0.2928 0.0840 0.6304
C1 C 0.6581(5) 0.0871(5) 0.6302(4)
H1 H 0.6886 0.0497 0.6789
N1 N 0.5724(5) 0.2489(4) 0.5789(4)
C3 C 0.6567(5) 0.0354(4) 0.5414(4)
C5 C 0.6159(6) 0.1916(5) 0.6478(5)
H3 H 0.6174 0.2233 0.7085
C8 C 0.5709(6) 0.2027(5) 0.4910(5)
H6 H 0.5423 0.2427 0.4425
C16 C 0.6107(6) 0.0978(5) 0.4714(5)
H12 H 0.6070 0.0677 0.4108
O4 O 0.5333(5) 0.3489(3) 0.5972(4)
Ca2 Ca 0.5000 0.5000 0.5000
N5 N 0.5626(5) 0.6035(4) 0.7090(4)
C22 C 0.6453(5) 0.6053(5) 0.9956(5)
C24 C 0.6235(7) 0.5178(5) 0.7372(6)
H19 H 0.6465 0.4585 0.6946
C25 C 0.6513(7) 0.5185(5) 0.8291(6)
H20 H 0.6941 0.4593 0.8474
O6 O 0.5358(5) 0.6035(4) 0.6210(4)
C26 C 0.5290(6) 0.6899(5) 0.7699(5)
H21 H 0.4871 0.7486 0.7498
C27 C 0.6172(5) 0.6052(5) 0.8954(5)
C29 C 0.5564(5) 0.6914(5) 0.8609(5)
H23 H 0.5336 0.7521 0.9014
O7 O 0.7012(5) 0.4645(5) 0.4151(5)
H25 H 0.7312 0.4224 0.4534
H26 H 0.7334 0.5210 0.4117
C31 C 0.9781(5) 0.0554(5) 0.5091(4)
N7 N 0.8982(5) 0.2704(4) 0.5427(5)
O8 O 0.8640(4) 0.3728(4) 0.5582(4)
C32 C 0.9670(6) 0.1070(5) 0.6039(5)
H27 H 0.9866 0.0681 0.6579
C33 C 0.9293(6) 0.2095(5) 0.6180(5)
H28 H 0.9242 0.2402 0.6812
C34 C 0.9420(6) 0.1206(5) 0.4347(5)
H29 H 0.9453 0.0916 0.3712
C35 C 0.9020(6) 0.2251(6) 0.4520(5)
H30 H 0.8774 0.2654 0.4014
C41 C 0.3419(5) 0.9129(5) 0.3698(4)
H35 H 0.3114 0.9503 0.3211
N9 N 0.4276(5) 0.7511(4) 0.4211(4)
C42 C 0.3433(5) 0.9646(4) 0.4586(4)
C43 C 0.3841(6) 0.8084(5) 0.3522(5)
H36 H 0.3826 0.7767 0.2915
C46 C 0.4291(6) 0.7973(5) 0.5090(5)
H39 H 0.4577 0.7573 0.5575
C49 C 0.3893(6) 0.9022(5) 0.5286(5)
H41 H 0.3930 0.9323 0.5892
O11 O 0.4667(5) 0.6511(3) 0.4028(4)
N11 N 0.4374(5) 0.3965(4) 0.2910(4)
C52 C 0.3547(5) 0.3947(5) 0.0044(5)
C54 C 0.3765(7) 0.4822(5) 0.2628(6)
H45 H 0.3535 0.5415 0.3054
C55 C 0.3487(7) 0.4815(5) 0.1709(6)
H46 H 0.3059 0.5407 0.1526
O13 O 0.4642(5) 0.3965(4) 0.3790(4)
C56 C 0.4710(6) 0.3101(5) 0.2301(5)
H47 H 0.5129 0.2514 0.2502
C57 C 0.3828(5) 0.3948(5) 0.1046(5)
C59 C 0.4436(5) 0.3086(5) 0.1391(5)
H49 H 0.4664 0.2479 0.0986
O14 O 0.2988(5) 0.5355(5) 0.5849(5)
H51 H 0.2688 0.5776 0.5466
H52 H 0.2666 0.4790 0.5883
Ca5_2 Ca 1.0000 0.5000 0.5000
N2 N 0.8048(4) 0.7160(4) 0.4825(4)
C4 C 0.9534(7) 0.6327(5) 0.8173(5)
H2 H 0.9417 0.7022 0.7947
C6 C 0.7746(6) 0.7740(5) 0.4055(5)
H4 H 0.7870 0.7441 0.3402
C7 C 0.7809(6) 0.7567(5) 0.5782(4)
H5 H 0.7995 0.7155 0.6315
C9 C 0.7032(5) 0.9241(4) 0.5212(4)
C12 C 0.9895(5) 0.5111(4) 0.9490(4)
C13 C 0.9845(8) 0.4318(5) 0.8849(5)
H9 H 0.9927 0.3617 0.9073
C14 C 0.9704(6) 0.6134(5) 0.9125(5)
H10 H 0.9693 0.6701 0.9541
C15 C 0.7297(6) 0.8578(5) 0.5988(5)
H11 H 0.7117 0.8834 0.6668
C17 C 0.9677(8) 0.4537(5) 0.7894(6)
H13 H 0.9665 0.3987 0.7468
N4 N 0.9530(5) 0.5549(4) 0.7563(4)
O2 O 0.8587(4) 0.6194(3) 0.4611(3)
O3 O 0.9375(5) 0.5761(4) 0.6633(3)
C19 C 0.7258(6) 0.8766(5) 0.4238(5)
H15 H 0.7072 0.9160 0.3696
C21 C 0.6466(6) 0.6971(5) 0.0447(5)
H17 H 0.6264 0.7617 0.0157
N6 N 0.7080(6) 0.6043(5) 0.1770(5)
O5 O 0.7460(6) 0.6053(5) 0.2582(5)
C23 C 0.6762(7) 0.6960(6) 0.1337(6)
H18 H 0.6745 0.7595 0.1657
C28 C 0.7029(7) 0.5113(5) 0.1356(5)
H22 H 0.7200 0.4478 0.1681
C30 C 0.6725(6) 0.5111(5) 0.0454(5)
H24 H 0.6699 0.4468 0.0167
H53 H 0.68415 0.641989 0.317899
H54 H 0.817168 0.643186 0.238212
C51 C 0.3534(6) 0.3029(5) 0.9553(5)
H43 H 0.3736 0.2383 0.9843
N12 N 0.2920(6) 0.3957(5) 0.8230(5)
O12 O 0.2540(6) 0.3947(5) 0.7418(5)
C53 C 0.3238(7) 0.3040(6) 0.8663(6)
H44 H 0.3255 0.2405 0.8343
C58 C 0.2971(7) 0.4887(5) 0.8644(5)
H48 H 0.2800 0.5522 0.8319
C60 C 0.3275(6) 0.4889(5) 0.9546(5)
H50 H 0.3301 0.5532 0.9833
H54_2 H 0.182832 0.356814 0.761788
H53_2 H 0.31585 0.358011 0.682101
loop_
_geom_bond_atom_site_label_1
_geom_bond_atom_site_label_2
_geom_bond_site_symmetry_1
_geom_bond_site_symmetry_2
C36 H31 1_555 1_555
C38 C37 1_555 1_555
H32 C38 1_555 1_555
C39 C36 1_555 1_555
H33 C39 1_555 1_555
C40 C38 1_555 1_555
H34 C40 1_555 1_555
N8 C36 1_555 1_555
O9 N8 1_555 1_555
Ca5 O9 1_555 1_555
C37 C39 1_555 1_555
C40 N8 1_555 1_555
Ca5 O1 1_555 1_555
C2 C10 1_555 1_555
N3 O1 1_555 1_555
C10 H7 1_555 1_555
C11 N3 1_555 1_555
H8 C11 1_555 1_555
C18 C2 1_555 1_555
H14 C18 1_555 1_555
C20 N3 1_555 1_555
H16 C20 1_555 1_555
O16 Ca5 1_555 1_555
C10 C11 1_555 1_555
C18 C20 1_555 1_555
N10 C44 1_555 1_555
C44 H37 1_555 1_555
C45 N10 1_555 1_555
H38 C45 1_555 1_555
C48 C45 1_555 1_555
H40 C48 1_555 1_555
O16 N10 1_555 1_555
C50 C44 1_555 1_555
H42 C50 1_555 1_555
C47 C48 1_555 1_555
C47 C50 1_555 1_555
C1 H1 1_555 1_555
N1 C5 1_555 1_555
C3 C1 1_555 1_555
C5 C1 1_555 1_555
H3 C5 1_555 1_555
C8 N1 1_555 1_555
H6 C8 1_555 1_555
C16 C3 1_555 1_555
H12 C16 1_555 1_555
O4 N1 1_555 1_555
Ca2 O4 1_555 1_555
N5 C24 1_555 1_555
C24 H19 1_555 1_555
C25 C24 1_555 1_555
H20 C25 1_555 1_555
O6 Ca2 1_555 1_555
C26 N5 1_555 1_555
H21 C26 1_555 1_555
C27 C22 1_555 1_555
C29 C26 1_555 1_555
H23 C29 1_555 1_555
O7 Ca2 1_555 1_555
H25 O7 1_555 1_555
H26 O7 1_555 1_555
N7 O8 1_555 1_555
O8 Ca5_2 1_555 1_555
C32 C31 1_555 1_555
H27 C32 1_555 1_555
C33 N7 1_555 1_555
H28 C33 1_555 1_555
C34 C31 1_555 1_555
H29 C34 1_555 1_555
C35 N7 1_555 1_555
H30 C35 1_555 1_555
C41 H35 1_555 1_555
N9 C43 1_555 1_555
C42 C41 1_555 1_555
C43 C41 1_555 1_555
H36 C43 1_555 1_555
C46 N9 1_555 1_555
H39 C46 1_555 1_555
C49 C42 1_555 1_555
H41 C49 1_555 1_555
O11 Ca2 1_555 1_555
N11 C54 1_555 1_555
C54 H45 1_555 1_555
C55 C54 1_555 1_555
H46 C55 1_555 1_555
O13 Ca2 1_555 1_555
C56 N11 1_555 1_555
H47 C56 1_555 1_555
C57 C52 1_555 1_555
C59 C56 1_555 1_555
H49 C59 1_555 1_555
O14 Ca2 1_555 1_555
H51 O14 1_555 1_555
H52 O14 1_555 1_555
C8 C16 1_555 1_555
N5 O6 1_555 1_555
C25 C27 1_555 1_555
C27 C29 1_555 1_555
C32 C33 1_555 1_555
C34 C35 1_555 1_555
N9 O11 1_555 1_555
C46 C49 1_555 1_555
N11 O13 1_555 1_555
C55 C57 1_555 1_555
C57 C59 1_555 1_555
N2 C6 1_555 1_555
C4 H2 1_555 1_555
C6 H4 1_555 1_555
C7 N2 1_555 1_555
H5 C7 1_555 1_555
C12 C13 1_555 1_555
C13 H9 1_555 1_555
C14 C4 1_555 1_555
H10 C14 1_555 1_555
C15 C7 1_555 1_555
H11 C15 1_555 1_555
C17 C13 1_555 1_555
H13 C17 1_555 1_555
N4 C4 1_555 1_555
O2 Ca5_2 1_555 1_555
O3 Ca5_2 1_555 1_555
C19 C6 1_555 1_555
H15 C19 1_555 1_555
N2 O2 1_555 1_555
C9 C15 1_555 1_555
C9 C19 1_555 1_555
C12 C14 1_555 1_555
C17 N4 1_555 1_555
N4 O3 1_555 1_555
C21 H17 1_555 1_555
N6 O5 1_555 1_555
C23 C21 1_555 1_555
H18 C23 1_555 1_555
C28 N6 1_555 1_555
H22 C28 1_555 1_555
H24 C30 1_555 1_555
N6 C23 1_555 1_555
C28 C30 1_555 1_555
O5 H53 1_555 1_555
O5 H54 1_555 1_555
C51 H43 1_555 1_555
N12 O12 1_555 1_555
C53 C51 1_555 1_555
H44 C53 1_555 1_555
C58 N12 1_555 1_555
H48 C58 1_555 1_555
H50 C60 1_555 1_555
N12 C53 1_555 1_555
C58 C60 1_555 1_555
O12 H54_2 1_555 1_555
O12 H53_2 1_555 1_555

#END
