
###############################################################################
#
# This file contains modified crystal structure data generated from the
# MOF subset of the Cambridge Structural Database (CSD) v543 
# hosted by the Cambridge Crystallographic Data Centre (CCDC).
#
# This work is licensed under the Creative Commons
# Attribution-NonCommercial-ShareAlike 4.0 International License.
# To view a copy of this license, visit
# http://creativecommons.org/licenses/by-nc-sa/4.0/
# or send a letter to
# Creative Commons, PO Box 1866, Mountain View, CA 94042, USA.
#
# CIF created using the CSD Python API on 29 September 2022
# The structure has been converted into the P1 space group
# The structure has a 3D framework
# The original CSD entry TERSUH is in the triclinic crystal system
# The framework has been calculated to contain at least 10.0% void space
# The void calculation uses a probe of radius 1.32A, grid spacing 0.4
#
###############################################################################

data_TERSUH
_chemical_formula_moiety         '(C42 H34 N6 Ni6 O12)n'
_symmetry_cell_setting           triclinic
_symmetry_space_group_name_H-M   'P 1'
_symmetry_Int_Tables_number      1
_space_group_name_Hall           'P 1'
loop_
_symmetry_equiv_pos_site_id
_symmetry_equiv_pos_as_xyz
1 x,y,z
_cell_length_a                   10.550(4)
_cell_length_b                   10.656(4)
_cell_length_c                   11.989(5)
_cell_angle_alpha                101.939(6)
_cell_angle_beta                 108.282(7)
_cell_angle_gamma                100.868(7)
_cell_volume                     1204.6
loop_
_atom_site_label
_atom_site_type_symbol
_atom_site_fract_x
_atom_site_fract_y
_atom_site_fract_z
Ni6 Ni 0.5000 0.0000 0.0000
Ni6_2 Ni 0.5000 0.0000 1.0000
H13 H 0.0279 0.5561 0.1220
C25 C 0.1786(14) 0.7405(12) 0.0603(12)
H20 H 0.1494 0.7451 0.1263
C26 C 0.2799(16) 0.8455(13) 0.0616(13)
H21 H 0.3148 0.9215 0.1283
Ni6_3 Ni 0.5000 1.0000 0.0000
C22 C 0.2742(17) 0.7347(15) 0.8749(14)
H18 H 0.3072 0.7333 0.8114
C23 C 0.1702(16) 0.6244(14) 0.8638(13)
H19 H 0.1360 0.5513 0.7945
C24 C 0.1193(13) 0.6248(12) 0.9556(12)
C27 C 0.0173(15) 0.5098(14) 0.9525(14)
N4 N 0.3288(10) 0.8429(9) 0.9738(10)
C39 C 0.0101(17) 0.0938(17) 0.7861(16)
H28 H 0.0809 0.1653 0.7931
H29 H 0.1291 0.0141 0.9066
Ni6_4 Ni 0.5000 1.0000 1.0000
Ni1 Ni 0.5000 0.0000 0.5000
O5 O 0.6558(9) 0.0494(8) 0.4273(8)
H14 H 0.6762 0.1307 0.4706
H34 H 0.2951 0.0050 0.5663
N7 N 0.3702(10) 0.0736(9) 0.3706(9)
O13 O 0.5717(8) 0.1858(7) 0.6282(7)
C1 C 0.3570(12) 0.7066(9) 0.3728(9)
C2 C 0.3569(11) 0.5806(9) 0.2875(9)
C3 C 0.3923(15) 0.5865(11) 0.1859(11)
H1 H 0.4185 0.6684 0.1720
C4 C 0.3888(13) 0.4713(11) 0.1058(11)
H2 H 0.4002 0.4755 0.0327
C5 C 0.3684(11) 0.3468(10) 0.1316(10)
C6 C 0.3396(12) 0.3466(10) 0.2373(11)
C7 C 0.3289(13) 0.4596(11) 0.3111(11)
H3 H 0.3026 0.4536 0.3773
C8 C 0.3816(11) 0.2321(9) 0.0418(9)
C9 C 0.4159(12) 0.1883(11) 0.3510(11)
H4 H 0.5074 0.2402 0.3886
C10 C 0.2277(13) 0.0326(11) 0.3008(10)
C14 C 0.0628(16) 0.1167(15) 0.1655(15)
H8 H 0.0424 0.1827 0.1285
C15 C 0.1911(12) 0.1247(11) 0.2383(10)
C16 C 0.7258(17) 0.2653(15) 0.1251(14)
H9 H 0.6928 0.2667 0.1886
C17 C 0.8298(16) 0.3756(14) 0.1362(13)
H10 H 0.8640 0.4487 0.2055
C18 C 0.8807(13) 0.3752(12) 0.0444(12)
C21 C 0.9827(15) 0.4902(14) 0.0475(14)
N1 N 0.3153(10) 0.2224(9) 0.2701(8)
N3 N 0.6712(10) 0.1571(9) 0.0262(10)
Ni1_2 Ni 0.5000 1.0000 0.5000
O1 O 0.4283(8) 0.8142(7) 0.3718(7)
O2 O 0.2814(10) 0.6945(8) 0.4348(9)
O3 O 0.4207(8) 0.1404(7) 0.0848(7)
H15 H 0.7049 0.9950 0.4337
H17 H 0.6248 0.0058 0.2494
O12 O 0.3442(9) 0.9506(8) 0.5727(8)
H33 H 0.3238 0.8693 0.5294
N8 N 0.6298(10) 0.9264(9) 0.6294(9)
C19 C 0.8214(14) 0.2595(12) 0.9397(12)
H11 H 0.8506 0.2549 0.8737
C20 C 0.7201(16) 0.1545(13) 0.9384(13)
H12 H 0.6852 0.0785 0.8717
O4 O 0.3597(13) 0.2391(10) 0.9349(9)
H22 H 0.9721 0.4439 0.8780
C38 C 0.8766(14) 0.0782(12) 0.7132(12)
H27 H 0.8550 0.1414 0.6727
O11 O 0.3888(12) 0.0133(10) 0.8266(8)
H31 H 0.3792 0.0867 0.8621
C11 C 0.1234(14) 0.9218(12) 0.2868(12)
H5 H 0.1450 0.8586 0.3273
O6 O 0.6112(12) 0.9867(10) 0.1734(8)
H16 H 0.6208 0.9133 0.1379
O10 O 0.6403(13) 0.7609(10) 0.0651(9)
C28 C 0.6430(12) 0.2934(9) 0.6272(9)
C29 C 0.6431(11) 0.4194(9) 0.7125(9)
C30 C 0.6077(15) 0.4135(11) 0.8141(11)
H23 H 0.5815 0.3316 0.8280
C31 C 0.6112(13) 0.5287(11) 0.8942(11)
H24 H 0.5998 0.5245 0.9673
C32 C 0.6316(11) 0.6532(10) 0.8684(10)
C33 C 0.6604(12) 0.6534(10) 0.7627(11)
C34 C 0.6711(13) 0.5404(11) 0.6889(11)
H25 H 0.6974 0.5464 0.6227
C35 C 0.6184(11) 0.7679(9) 0.9582(9)
C36 C 0.5841(12) 0.8117(11) 0.6490(11)
H26 H 0.4926 0.7598 0.6114
C37 C 0.7723(13) 0.9674(11) 0.6992(10)
C41 C 0.9372(16) 0.8833(15) 0.8345(15)
H30 H 0.9576 0.8173 0.8715
C42 C 0.8089(12) 0.8753(11) 0.7617(10)
N5 N 0.6847(10) 0.7776(9) 0.7299(8)
O8 O 0.7186(10) 0.3055(8) 0.5652(9)
O9 O 0.5793(8) 0.8596(7) 0.9152(7)
H32 H 0.3752 0.9942 0.7506
C12 C 0.9899(17) 0.9062(17) 0.2139(16)
H6 H 0.9191 0.8347 0.2069
H7 H 0.8709 0.9859 0.0934
C40 C 0.0395(17) 0.9992(18) 0.8512(18)
C13 C 0.9605(17) 0.0008(18) 0.1488(18)
loop_
_geom_bond_atom_site_label_1
_geom_bond_atom_site_label_2
_geom_bond_site_symmetry_1
_geom_bond_site_symmetry_2
H20 C25 1_555 1_555
C26 C25 1_555 1_555
H21 C26 1_555 1_555
C22 H18 1_555 1_555
C23 C22 1_555 1_555
H19 C23 1_555 1_555
C24 C23 1_555 1_555
N4 C22 1_555 1_555
H28 C39 1_555 1_555
Ni6_4 N4 1_555 1_555
C24 C27 1_555 1_555
O5 Ni1 1_555 1_555
H14 O5 1_555 1_555
N7 Ni1 1_555 1_555
O13 Ni1 1_555 1_555
C1 C2 1_555 1_555
C2 C3 1_555 1_555
C3 H1 1_555 1_555
C4 C3 1_555 1_555
H2 C4 1_555 1_555
C5 C4 1_555 1_555
C6 C5 1_555 1_555
C7 C2 1_555 1_555
H3 C7 1_555 1_555
C8 C5 1_555 1_555
C9 H4 1_555 1_555
H8 C14 1_555 1_555
C15 C10 1_555 1_555
C16 H9 1_555 1_555
C17 C16 1_555 1_555
H10 C17 1_555 1_555
C18 C17 1_555 1_555
C21 C18 1_555 1_555
N1 C6 1_555 1_555
N7 C9 1_555 1_555
N3 C16 1_555 1_555
Ni1_2 O1 1_555 1_555
Ni6 N3 1_555 1_555
O1 C1 1_555 1_555
O2 C1 1_555 1_555
O3 C8 1_555 1_555
O12 Ni1_2 1_555 1_555
H33 O12 1_555 1_555
N8 Ni1_2 1_555 1_555
C6 C7 1_555 1_555
C9 N1 1_555 1_555
C10 N7 1_555 1_555
C14 C15 1_555 1_555
C15 N1 1_555 1_555
Ni6 O3 1_555 1_555
H11 C19 1_555 1_555
C20 C19 1_555 1_555
H12 C20 1_555 1_555
C38 H27 1_555 1_555
O11 Ni6_2 1_555 1_555
H31 O11 1_555 1_555
C11 H5 1_555 1_555
O6 Ni6_3 1_555 1_555
H16 O6 1_555 1_555
C28 C29 1_555 1_555
C29 C30 1_555 1_555
C30 H23 1_555 1_555
C31 C30 1_555 1_555
H24 C31 1_555 1_555
C32 C31 1_555 1_555
C33 C32 1_555 1_555
C34 C29 1_555 1_555
H25 C34 1_555 1_555
C35 C32 1_555 1_555
C36 H26 1_555 1_555
H30 C41 1_555 1_555
C42 C37 1_555 1_555
N5 C33 1_555 1_555
N8 C36 1_555 1_555
O13 C28 1_555 1_555
O8 C28 1_555 1_555
O9 Ni6_4 1_555 1_555
C33 C34 1_555 1_555
C35 O9 1_555 1_555
C36 N5 1_555 1_555
C37 N8 1_555 1_555
C41 C42 1_555 1_555
C42 N5 1_555 1_555
H6 C12 1_555 1_555

#END
