
###############################################################################
#
# This file contains modified crystal structure data generated from the
# MOF subset of the Cambridge Structural Database (CSD) v543 
# hosted by the Cambridge Crystallographic Data Centre (CCDC).
#
# This work is licensed under the Creative Commons
# Attribution-NonCommercial-ShareAlike 4.0 International License.
# To view a copy of this license, visit
# http://creativecommons.org/licenses/by-nc-sa/4.0/
# or send a letter to
# Creative Commons, PO Box 1866, Mountain View, CA 94042, USA.
#
# CIF created using the CSD Python API on 29 September 2022
# The structure has been converted into the P1 space group
# The structure has a 3D framework
# The original CSD entry TERTAO is in the triclinic crystal system
# The framework has been calculated to contain at least 10.0% void space
# The void calculation uses a probe of radius 1.32A, grid spacing 0.4
#
###############################################################################

data_TERTAO
_chemical_formula_moiety         '(C42 H36 N6 Ni5 O12)n'
_symmetry_cell_setting           triclinic
_symmetry_space_group_name_H-M   'P 1'
_symmetry_Int_Tables_number      1
_space_group_name_Hall           'P 1'
loop_
_symmetry_equiv_pos_site_id
_symmetry_equiv_pos_as_xyz
1 x,y,z
_cell_length_a                   10.4757(3)
_cell_length_b                   10.6077(3)
_cell_length_c                   11.9257(3)
_cell_angle_alpha                101.762(2)
_cell_angle_beta                 107.742(2)
_cell_angle_gamma                100.345(2)
_cell_volume                     1193.46
loop_
_atom_site_label
_atom_site_type_symbol
_atom_site_fract_x
_atom_site_fract_y
_atom_site_fract_z
C12 C 0.0080(3) 0.0900(3) 0.2839(3)
H6 H 0.0794 0.1647 0.2929
H7 H 0.1343 0.0086 0.3997
C13 C 0.0412(3) 0.9957(3) 0.3478(3)
C11 C 0.8739(3) 0.0766(3) 0.2083(3)
H5 H 0.8524 0.1412 0.1659
Ni2 Ni 0.5000 -0.0000 0.5000
H18 H 0.612(5) 0.012(5) 0.741(4)
O12 O 0.3937(3) 0.0141(2) 0.3284(2)
H35 H 0.3649 0.0832 0.3352
N8 N 0.6667(2) 0.1583(2) 0.5262(2)
Ni3 Ni 0.5000 0.0000 0.0000
O14 O 0.4126(2) 0.13683(18) 0.58068(17)
Ni3_2 Ni 0.5000 -0.0000 1.0000
C1 C 0.6404(3) 0.2909(3) 0.1275(2)
C2 C 0.6397(3) 0.4167(2) 0.2130(2)
C3 C 0.6077(3) 0.4121(3) 0.3173(3)
H1 H 0.5835 0.3289 0.3338
C4 C 0.6109(3) 0.5282(3) 0.3971(2)
H2 H 0.5958 0.5240 0.4709
C5 C 0.6358(3) 0.6517(3) 0.3723(2)
C6 C 0.6622(3) 0.6536(2) 0.2644(2)
C7 C 0.6686(3) 0.5389(3) 0.1880(2)
H3 H 0.6929 0.5440 0.1182
C8 C 0.6261(3) 0.7703(3) 0.4615(2)
C9 C 0.5835(3) 0.8120(3) 0.1495(2)
H4 H 0.4891 0.7619 0.1149
C10 C 0.7709(3) 0.9653(3) 0.1960(3)
C14 C 0.9411(3) 0.8844(3) 0.3368(3)
H8 H 0.9630 0.8201 0.3794
C15 C 0.8068(3) 0.8721(3) 0.2599(3)
C16 C 0.2867(3) 0.7325(3) 0.3778(3)
H9 H 0.3257 0.7304 0.3155
C17 C 0.1844(4) 0.6229(3) 0.3659(3)
H10 H 0.1559 0.5469 0.2974
C18 C 0.1236(3) 0.6241(3) 0.4537(3)
C19 C 0.1685(3) 0.7378(3) 0.5497(3)
H11 H 0.1283 0.7440 0.6114
C20 C 0.2723(3) 0.8433(3) 0.5562(3)
H12 H 0.3013 0.9209 0.6233
C21 C 0.0163(4) 0.5011(4) 0.4437(4)
H14 H 0.0497 0.4217 0.4205
N1 N 0.6844(2) 0.7745(2) 0.2273(2)
N2 N 0.6290(2) 0.9244(2) 0.1268(2)
N3 N 0.3333(2) 0.8417(2) 0.4738(2)
Ni2_2 Ni 0.5000 1.0000 0.5000
O1 O 0.5660(2) 0.18376(18) 0.12780(17)
O2 O 0.7139(2) 0.30128(19) 0.0622(2)
O3 O 0.6513(2) 0.7638(2) 0.56857(19)
O4 O 0.5874(2) 0.86317(18) 0.41932(17)
O6 O 0.6063(3) 0.9859(2) 0.6716(2)
H16 H 0.6351 0.9168 0.6648
H23 H 0.0707 0.5067 0.6235
H33 H 0.2911 0.0009 0.0609
H36 H 0.388(5) 0.988(5) 0.259(4)
Ni3_3 Ni 0.5000 1.0000 0.0000
O5 O 0.6552(2) 0.0489(2) 0.92709(19)
H17 H 0.697(5) 0.129(5) 0.964(4)
C28 C 0.3596(3) 0.7091(3) 0.8725(2)
C29 C 0.3603(3) 0.5833(2) 0.7870(2)
C30 C 0.3923(3) 0.5879(3) 0.6827(3)
H25 H 0.4165 0.6711 0.6662
C31 C 0.3891(3) 0.4718(3) 0.6029(2)
H26 H 0.4042 0.4760 0.5291
C32 C 0.3642(3) 0.3483(3) 0.6277(2)
C33 C 0.3378(3) 0.3464(2) 0.7356(2)
C34 C 0.3314(3) 0.4611(3) 0.8120(2)
H27 H 0.3071 0.4560 0.8818
C35 C 0.3739(3) 0.2297(3) 0.5385(2)
C36 C 0.4165(3) 0.1880(3) 0.8505(2)
H28 H 0.5109 0.2381 0.8851
C37 C 0.2291(3) 0.0347(3) 0.8040(3)
C41 C 0.0589(3) 0.1156(3) 0.6632(3)
H32 H 0.0370 0.1799 0.6206
C42 C 0.1932(3) 0.1279(3) 0.7401(3)
N5 N 0.3156(2) 0.2255(2) 0.7727(2)
N6 N 0.3710(2) 0.0756(2) 0.8732(2)
O7 O 0.4340(2) 0.81624(18) 0.87220(17)
O8 O 0.2861(2) 0.69872(19) 0.9378(2)
O9 O 0.3487(2) 0.2362(2) 0.43143(19)
Ni3_4 Ni 0.5000 1.0000 1.0000
O11 O 0.3448(2) 0.9511(2) 0.07291(19)
H34 H 0.303(5) 0.871(5) 0.036(4)
H15 H 0.7089 0.9991 0.9391
C38 C 0.1261(3) 0.9234(3) 0.7917(3)
H29 H 0.1476 0.8588 0.8341
H13 H 0.9293 0.4933 0.3765
C22 C 0.7133(3) 0.2675(3) 0.6222(3)
H19 H 0.6743 0.2696 0.6845
C23 C 0.8156(4) 0.3771(3) 0.6341(3)
H20 H 0.8441 0.4531 0.7026
C24 C 0.8764(3) 0.3759(3) 0.5463(3)
C25 C 0.8315(3) 0.2622(3) 0.4503(3)
H21 H 0.8717 0.2560 0.3886
C26 C 0.7277(3) 0.1567(3) 0.4438(3)
H22 H 0.6987 0.0791 0.3767
C27 C 0.9837(4) 0.4989(4) 0.5563(4)
H24 H 0.9503 0.5783 0.5795
C40 C 0.9588(3) 0.0043(3) 0.6522(3)
C39 C 0.9920(3) 0.9100(3) 0.7161(3)
H30 H 0.9206 0.8353 0.7071
H31 H 0.8657 0.9914 0.6003
loop_
_geom_bond_atom_site_label_1
_geom_bond_atom_site_label_2
_geom_bond_site_symmetry_1
_geom_bond_site_symmetry_2
H6 C12 1_555 1_555
C11 H5 1_555 1_555
O12 Ni2 1_555 1_555
H35 O12 1_555 1_555
N8 Ni2 1_555 1_555
O14 Ni2 1_555 1_555
C1 C2 1_555 1_555
C2 C3 1_555 1_555
C3 H1 1_555 1_555
C4 C3 1_555 1_555
H2 C4 1_555 1_555
C5 C4 1_555 1_555
C6 C5 1_555 1_555
C7 C2 1_555 1_555
H3 C7 1_555 1_555
C8 C5 1_555 1_555
C9 H4 1_555 1_555
H8 C14 1_555 1_555
C15 C10 1_555 1_555
C16 H9 1_555 1_555
C17 C16 1_555 1_555
H10 C17 1_555 1_555
C18 C17 1_555 1_555
C19 C18 1_555 1_555
H11 C19 1_555 1_555
C20 C19 1_555 1_555
H12 C20 1_555 1_555
C21 C18 1_555 1_555
H14 C21 1_555 1_555
N1 C6 1_555 1_555
N2 C9 1_555 1_555
N3 C16 1_555 1_555
Ni3 O1 1_555 1_555
Ni2_2 N3 1_555 1_555
O1 C1 1_555 1_555
O2 C1 1_555 1_555
O3 C8 1_555 1_555
O4 C8 1_555 1_555
O6 Ni2_2 1_555 1_555
H16 O6 1_555 1_555
Ni3_3 N2 1_555 1_555
C6 C7 1_555 1_555
C9 N1 1_555 1_555
C10 N2 1_555 1_555
C14 C15 1_555 1_555
C15 N1 1_555 1_555
C20 N3 1_555 1_555
Ni2_2 O4 1_555 1_555
O5 Ni3_2 1_555 1_555
H17 O5 1_555 1_555
C28 C29 1_555 1_555
C29 C30 1_555 1_555
C30 H25 1_555 1_555
C31 C30 1_555 1_555
H26 C31 1_555 1_555
C32 C31 1_555 1_555
C33 C32 1_555 1_555
C34 C29 1_555 1_555
H27 C34 1_555 1_555
C35 C32 1_555 1_555
C36 H28 1_555 1_555
H32 C41 1_555 1_555
C42 C37 1_555 1_555
N5 C33 1_555 1_555
N6 Ni3_2 1_555 1_555
O7 C28 1_555 1_555
O8 C28 1_555 1_555
O9 C35 1_555 1_555
O14 C35 1_555 1_555
C33 C34 1_555 1_555
C36 N5 1_555 1_555
C36 N6 1_555 1_555
C37 N6 1_555 1_555
C41 C42 1_555 1_555
C42 N5 1_555 1_555
O7 Ni3_4 1_555 1_555
O11 Ni3_3 1_555 1_555
H34 O11 1_555 1_555
C38 H29 1_555 1_555
C22 H19 1_555 1_555
C23 C22 1_555 1_555
H20 C23 1_555 1_555
C24 C23 1_555 1_555
C25 C24 1_555 1_555
H21 C25 1_555 1_555
C26 C25 1_555 1_555
H22 C26 1_555 1_555
H24 C27 1_555 1_555
N8 C22 1_555 1_555
C24 C27 1_555 1_555
C26 N8 1_555 1_555
H30 C39 1_555 1_555

#END
