
###############################################################################
#
# This file contains modified crystal structure data generated from the
# MOF subset of the Cambridge Structural Database (CSD) v543 
# hosted by the Cambridge Crystallographic Data Centre (CCDC).
#
# This work is licensed under the Creative Commons
# Attribution-NonCommercial-ShareAlike 4.0 International License.
# To view a copy of this license, visit
# http://creativecommons.org/licenses/by-nc-sa/4.0/
# or send a letter to
# Creative Commons, PO Box 1866, Mountain View, CA 94042, USA.
#
# CIF created using the CSD Python API on 29 September 2022
# The structure has been converted into the P1 space group
# The structure has a 3D framework
# The original CSD entry TETGEH is in the orthorhombic crystal system
# The framework has been calculated to contain at least 10.0% void space
# The void calculation uses a probe of radius 1.32A, grid spacing 0.4
#
###############################################################################

data_TETGEH
_chemical_formula_moiety         '(C100 H60 N48 Ni6 O32)n'
_symmetry_cell_setting           triclinic
_symmetry_space_group_name_H-M   'P 1'
_symmetry_Int_Tables_number      1
_space_group_name_Hall           'P 1'
loop_
_symmetry_equiv_pos_site_id
_symmetry_equiv_pos_as_xyz
1 x,y,z
_cell_length_a                   7.2862(13)
_cell_length_b                   20.206(3)
_cell_length_c                   24.765(4)
_cell_angle_alpha                90
_cell_angle_beta                 90
_cell_angle_gamma                90
_cell_volume                     3646.03
loop_
_atom_site_label
_atom_site_type_symbol
_atom_site_fract_x
_atom_site_fract_y
_atom_site_fract_z
Ni5 Ni 0.0000 0.0000 0.5000
Ni2 Ni 0.0000 0.5000 0.5000
Ni5_2 Ni 0.0000 1.0000 0.5000
Ni5_3 Ni 1.0000 0.0000 0.5000
O1 O 0.0584(4) 0.63938(11) 0.42773(10)
O2 O 0.1652(3) 0.58394(9) 0.49895(9)
O3 O 0.1013(5) 0.29110(14) 0.39299(12)
N1 N 0.5663(4) 0.63475(12) 0.47521(11)
N2 N 0.5250(4) 0.59408(15) 0.43376(13)
N3 N 0.7628(4) 0.55444(12) 0.48098(11)
N4 N 0.0812(4) 0.42168(13) 0.34536(11)
N5 N 0.2110(5) 0.47003(15) 0.34324(12)
N6 N 0.0505(4) 0.47622(13) 0.41960(11)
C1 C 0.1570(5) 0.63360(16) 0.46830(14)
C2 C 0.2728(5) 0.69280(14) 0.48469(13)
C3 C 0.1817(6) 0.7500 0.5000
H2 H 0.0540 0.7500 0.5000
C4 C 0.4624(4) 0.69361(15) 0.48666(14)
C5 C 0.5589(7) 0.7500 0.5000
H3 H 0.6866 0.7500 0.5000
C6 C 0.6488(6) 0.54683(18) 0.43990(16)
H4 H 0.6553 0.5106 0.4168
C7 C 0.7075(5) 0.60988(14) 0.50264(15)
H5 H 0.7595 0.6293 0.5330
C8 C 0.0203(7) 0.2744(2) 0.35186(17)
C9 C 0.0163(5) 0.31340(17) 0.29962(14)
C11 C 0.0552(5) 0.38124(17) 0.29787(14)
C12 C 0.0720(8) 0.4150(2) 0.2500
H7 H 0.0946 0.4603 0.2500
C13 C 0.1866(5) 0.49987(18) 0.38912(14)
H8 H 0.2590 0.5353 0.4000
O5 O 0.0584(4) 0.86062(11) 0.57227(10)
O6 O 0.1652(3) 0.91606(9) 0.50105(9)
N7 N 0.5663(4) 0.86525(12) 0.52479(11)
N8 N 0.5250(4) 0.90592(15) 0.56624(13)
N9 N 0.7628(4) 0.94556(12) 0.51902(11)
C15 C 0.1570(5) 0.86640(16) 0.53170(14)
C16 C 0.2728(5) 0.80720(14) 0.51531(13)
C17 C 0.4624(4) 0.80639(15) 0.51334(14)
C18 C 0.6488(6) 0.95317(18) 0.56010(16)
H10 H 0.6553 0.9894 0.5832
C19 C 0.7075(5) 0.89012(14) 0.49736(15)
H11 H 0.7595 0.8707 0.4670
O7 O 0.1013(5) 0.29110(14) 0.10701(12)
N10 N 0.0812(4) 0.42168(13) 0.15464(11)
N11 N 0.2110(5) 0.47003(15) 0.15676(12)
N12 N 0.0505(4) 0.47622(13) 0.08040(11)
C20 C 0.0203(7) 0.2744(2) 0.14814(17)
C21 C 0.0163(5) 0.31340(17) 0.20038(14)
C22 C 0.0552(5) 0.38124(17) 0.20213(14)
C23 C 0.1866(5) 0.49987(18) 0.11088(14)
H13 H 0.2590 0.5353 0.1000
Ni2_2 Ni 1.0000 0.5000 0.5000
Ni3 Ni 0.0000 0.5000 0.0000
Ni5_4 Ni 1.0000 1.0000 0.5000
N14 N 0.2372(4) 0.44556(12) 0.51902(11)
Ni3_2 Ni 0.0000 0.5000 1.0000
O4 O 0.9331(5) 0.21764(15) 0.34752(13)
H1 H 0.9402 0.1981 0.3765
C10 C 0.9959(8) 0.2824(3) 0.2500
H6 H 0.9665 0.2376 0.2500
C14 C 0.9837(6) 0.42594(17) 0.39046(13)
H9 H 0.8862 0.3987 0.4001
O8 O 0.9331(5) 0.21764(15) 0.15248(13)
H12 H 0.9402 0.1981 0.1235
C24 C 0.9837(6) 0.42594(17) 0.10954(13)
H14 H 0.8862 0.3987 0.0999
Ni3_3 Ni 1.0000 0.5000 0.0000
O9 O 0.8348(3) 0.41606(9) 0.50105(9)
N15 N 0.9495(4) 0.52378(13) 0.58040(11)
Ni3_4 Ni 1.0000 0.5000 1.0000
Ni4 Ni -0.0000 0.0000 0.0000
O9_2 O 0.1652(3) 0.58394(9) 0.00105(9)
O4_2 O 0.0669(5) 0.78236(15) 0.84752(13)
H1_2 H 0.0598 0.8019 0.8765
C10_2 C 0.0041(8) 0.7176(3) 0.7500
H6_2 H 0.0335 0.7624 0.7500
C14_2 C 0.0163(6) 0.57406(17) 0.89046(13)
H9_2 H 0.1138 0.6013 0.9001
O8_2 O 0.0669(5) 0.78236(15) 0.65248(13)
H12_2 H 0.0598 0.8019 0.6235
C24_2 C 0.0163(6) 0.57406(17) 0.60954(13)
H14_2 H 0.1138 0.6013 0.5999
Ni4_2 Ni -0.0000 0.0000 1.0000
N13 N 0.2372(4) 0.44556(12) 0.98098(11)
Ni4_3 Ni -0.0000 1.0000 0.0000
Ni4_4 Ni 0.0000 1.0000 1.0000
C3_2 C 0.8183(6) 0.2500 0.0000
H2_2 H 0.9460 0.2500 0.0000
C5_2 C 0.4411(7) 0.2500 0.0000
H3_2 H 0.3134 0.2500 0.0000
C7_2 C 0.2925(5) 0.39012(14) 0.00264(15)
H5_2 H 0.2405 0.3707 0.0330
O5_2 O 0.9416(4) 0.13938(11) 0.07227(10)
O6_2 O 0.8348(3) 0.08394(9) 0.00105(9)
N7_2 N 0.4337(4) 0.13475(12) 0.02479(11)
N8_2 N 0.4750(4) 0.09408(15) 0.06624(13)
N9_2 N 0.2372(4) 0.05444(12) 0.01902(11)
C15_2 C 0.8430(5) 0.13360(16) 0.03170(14)
C16_2 C 0.7272(5) 0.19280(14) 0.01531(13)
C17_2 C 0.5376(4) 0.19361(15) 0.01334(14)
C18_2 C 0.3512(6) 0.04683(18) 0.06010(16)
H10_2 H 0.3447 0.0106 0.0832
Ni4_5 Ni 1.0000 0.0000 0.0000
N14_2 N 0.7628(4) 0.55444(12) 0.01902(11)
O1_2 O 0.9416(4) 0.36062(11) 0.92773(10)
O2_2 O 0.8348(3) 0.41606(9) 0.99895(9)
O3_2 O 0.8987(5) 0.70890(14) 0.89299(12)
N1_2 N 0.4337(4) 0.36525(12) 0.97521(11)
N2_2 N 0.4750(4) 0.40592(15) 0.93376(13)
N4_2 N 0.9188(4) 0.57832(13) 0.84536(11)
N5_2 N 0.7890(5) 0.52997(15) 0.84324(12)
N6_2 N 0.9495(4) 0.52378(13) 0.91960(11)
C1_2 C 0.8430(5) 0.36640(16) 0.96830(14)
C2_2 C 0.7272(5) 0.30720(14) 0.98469(13)
C3_3 C 0.8183(6) 0.2500 1.0000
H2_3 H 0.9460 0.2500 1.0000
C4_2 C 0.5376(4) 0.30639(15) 0.98666(14)
C5_3 C 0.4411(7) 0.2500 1.0000
H3_3 H 0.3134 0.2500 1.0000
C6_2 C 0.3512(6) 0.45317(18) 0.93990(16)
H4_2 H 0.3447 0.4894 0.9168
C8_2 C 0.9797(7) 0.7256(2) 0.85186(17)
C9_2 C 0.9837(5) 0.68660(17) 0.79962(14)
C11_2 C 0.9448(5) 0.61876(17) 0.79787(14)
C12_2 C 0.9280(8) 0.5850(2) 0.7500
H7_2 H 0.9054 0.5397 0.7500
C13_2 C 0.8134(5) 0.50013(18) 0.88912(14)
H8_2 H 0.7410 0.4647 0.9000
C19_2 C 0.2925(5) 0.10988(14) 0.99736(15)
H11_2 H 0.2405 0.1293 0.9670
O7_2 O 0.8987(5) 0.70890(14) 0.60701(12)
N10_2 N 0.9188(4) 0.57832(13) 0.65464(11)
N11_2 N 0.7890(5) 0.52997(15) 0.65676(12)
C20_2 C 0.9797(7) 0.7256(2) 0.64814(17)
C21_2 C 0.9837(5) 0.68660(17) 0.70038(14)
C22_2 C 0.9448(5) 0.61876(17) 0.70213(14)
C23_2 C 0.8134(5) 0.50013(18) 0.61088(14)
H13_2 H 0.7410 0.4647 0.6000
Ni4_6 Ni 1.0000 0.0000 1.0000
Ni4_7 Ni 1.0000 1.0000 0.0000
Ni4_8 Ni 1.0000 1.0000 1.0000
N15_2 N 0.0505(4) 0.02378(13) 0.91960(11)
O4_3 O 0.0669(5) 0.71764(15) 0.15248(13)
H1_3 H 0.0598 0.6981 0.1235
C10_3 C 0.0041(8) 0.7824(3) 0.2500
H6_3 H 0.0335 0.7376 0.2500
C14_3 C 0.0163(6) 0.92594(17) 0.10954(13)
H9_3 H 0.1138 0.8987 0.0999
O8_3 O 0.0669(5) 0.71764(15) 0.34752(13)
H12_3 H 0.0598 0.6981 0.3765
C24_3 C 0.0163(6) 0.92594(17) 0.39046(13)
H14_3 H 0.1138 0.8987 0.4001
O9_3 O 0.1652(3) 0.91606(9) 0.99895(9)
H8_3 H 0.7410 0.0353 0.1000
H13_3 H 0.7410 0.0353 0.4000
O3_3 O 0.8987(5) 0.79110(14) 0.10701(12)
N4_3 N 0.9188(4) 0.92168(13) 0.15464(11)
N5_3 N 0.7890(5) 0.97003(15) 0.15676(12)
N6_3 N 0.9495(4) 0.97622(13) 0.08040(11)
C8_3 C 0.9797(7) 0.7744(2) 0.14814(17)
C9_3 C 0.9837(5) 0.81340(17) 0.20038(14)
C11_3 C 0.9448(5) 0.88124(17) 0.20213(14)
C12_3 C 0.9280(8) 0.9150(2) 0.2500
H7_3 H 0.9054 0.9603 0.2500
C13_3 C 0.8134(5) 0.99987(18) 0.11088(14)
O7_3 O 0.8987(5) 0.79110(14) 0.39299(12)
N10_3 N 0.9188(4) 0.92168(13) 0.34536(11)
N11_3 N 0.7890(5) 0.97003(15) 0.34324(12)
N12_2 N 0.9495(4) 0.97622(13) 0.41960(11)
C20_3 C 0.9797(7) 0.7744(2) 0.35186(17)
C21_3 C 0.9837(5) 0.81340(17) 0.29962(14)
C22_3 C 0.9448(5) 0.88124(17) 0.29787(14)
C23_3 C 0.8134(5) 0.99987(18) 0.38912(14)
N14_3 N 0.7628(4) 0.94556(12) 0.98098(11)
O3_4 O 0.1013(5) 0.20890(14) 0.60701(12)
N4_4 N 0.0812(4) 0.07832(13) 0.65464(11)
N5_4 N 0.2110(5) 0.02997(15) 0.65676(12)
N6_4 N 0.0505(4) 0.02378(13) 0.58040(11)
C8_4 C 0.0203(7) 0.2256(2) 0.64814(17)
C9_4 C 0.0163(5) 0.18660(17) 0.70038(14)
C11_4 C 0.0552(5) 0.11876(17) 0.70213(14)
C12_4 C 0.0720(8) 0.0850(2) 0.7500
H7_4 H 0.0946 0.0397 0.7500
C13_4 C 0.1866(5) 0.00013(18) 0.61088(14)
O7_4 O 0.1013(5) 0.20890(14) 0.89299(12)
N10_4 N 0.0812(4) 0.07832(13) 0.84536(11)
N11_4 N 0.2110(5) 0.02997(15) 0.84324(12)
C20_4 C 0.0203(7) 0.2256(2) 0.85186(17)
C21_4 C 0.0163(5) 0.18660(17) 0.79962(14)
C22_4 C 0.0552(5) 0.11876(17) 0.79787(14)
C23_4 C 0.1866(5) 0.00013(18) 0.88912(14)
N14_4 N 0.2372(4) 0.05444(12) 0.48098(11)
H8_4 H 0.2590 0.9647 0.6000
H13_4 H 0.2590 0.9647 0.9000
O4_4 O 0.9331(5) 0.28236(15) 0.65248(13)
H1_4 H 0.9402 0.3019 0.6235
C10_4 C 0.9959(8) 0.2176(3) 0.7500
H6_4 H 0.9665 0.2624 0.7500
C14_4 C 0.9837(6) 0.07406(17) 0.60954(13)
H9_4 H 0.8862 0.1013 0.5999
O8_4 O 0.9331(5) 0.28236(15) 0.84752(13)
H12_4 H 0.9402 0.3019 0.8765
C24_4 C 0.9837(6) 0.07406(17) 0.89046(13)
H14_4 H 0.8862 0.1013 0.9001
O9_4 O 0.8348(3) 0.08394(9) 0.49895(9)
O1_3 O 0.9416(4) 0.36062(11) 0.57227(10)
N1_3 N 0.4337(4) 0.36525(12) 0.52479(11)
N2_3 N 0.4750(4) 0.40592(15) 0.56624(13)
C1_3 C 0.8430(5) 0.36640(16) 0.53170(14)
C2_3 C 0.7272(5) 0.30720(14) 0.51531(13)
C3_4 C 0.8183(6) 0.2500 0.5000
H2_4 H 0.9460 0.2500 0.5000
C4_3 C 0.5376(4) 0.30639(15) 0.51334(14)
C5_4 C 0.4411(7) 0.2500 0.5000
H3_4 H 0.3134 0.2500 0.5000
C6_3 C 0.3512(6) 0.45317(18) 0.56010(16)
H4_3 H 0.3447 0.4894 0.5832
C7_3 C 0.2925(5) 0.39012(14) 0.49736(15)
H5_3 H 0.2405 0.3707 0.4670
O5_3 O 0.9416(4) 0.13938(11) 0.42773(10)
N7_3 N 0.4337(4) 0.13475(12) 0.47521(11)
N8_3 N 0.4750(4) 0.09408(15) 0.43376(13)
C15_3 C 0.8430(5) 0.13360(16) 0.46830(14)
C16_3 C 0.7272(5) 0.19280(14) 0.48469(13)
C17_3 C 0.5376(4) 0.19361(15) 0.48666(14)
C18_3 C 0.3512(6) 0.04683(18) 0.43990(16)
H10_3 H 0.3447 0.0106 0.4168
C19_3 C 0.2925(5) 0.10988(14) 0.50264(15)
H11_3 H 0.2405 0.1293 0.5330
O1_4 O 0.0584(4) 0.63938(11) 0.07227(10)
N1_4 N 0.5663(4) 0.63475(12) 0.02479(11)
N2_4 N 0.5250(4) 0.59408(15) 0.06624(13)
C1_4 C 0.1570(5) 0.63360(16) 0.03170(14)
C2_4 C 0.2728(5) 0.69280(14) 0.01531(13)
C3_5 C 0.1817(6) 0.7500 0.0000
H2_5 H 0.0540 0.7500 0.0000
C4_4 C 0.4624(4) 0.69361(15) 0.01334(14)
C5_5 C 0.5589(7) 0.7500 0.0000
H3_5 H 0.6866 0.7500 0.0000
C6_4 C 0.6488(6) 0.54683(18) 0.06010(16)
H4_4 H 0.6553 0.5106 0.0832
C19_4 C 0.7075(5) 0.89012(14) 0.00264(15)
H11_4 H 0.7595 0.8707 0.0330
C3_6 C 0.1817(6) 0.7500 1.0000
H2_6 H 0.0540 0.7500 1.0000
C5_6 C 0.5589(7) 0.7500 1.0000
H3_6 H 0.6866 0.7500 1.0000
C7_4 C 0.7075(5) 0.60988(14) 0.99736(15)
H5_4 H 0.7595 0.6293 0.9670
O5_4 O 0.0584(4) 0.86062(11) 0.92773(10)
N7_4 N 0.5663(4) 0.86525(12) 0.97521(11)
N8_4 N 0.5250(4) 0.90592(15) 0.93376(13)
C15_4 C 0.1570(5) 0.86640(16) 0.96830(14)
C16_4 C 0.2728(5) 0.80720(14) 0.98469(13)
C17_4 C 0.4624(4) 0.80639(15) 0.98666(14)
C18_4 C 0.6488(6) 0.95317(18) 0.93990(16)
H10_4 H 0.6553 0.9894 0.9168
loop_
_geom_bond_atom_site_label_1
_geom_bond_atom_site_label_2
_geom_bond_site_symmetry_1
_geom_bond_site_symmetry_2
Ni2 O2 1_555 1_555
O1 C1 1_555 1_555
O2 C1 1_555 1_555
O3 C8 1_555 1_555
N1 N2 1_555 1_555
N2 C6 1_555 1_555
N3 C6 1_555 1_555
N4 N5 1_555 1_555
N5 C13 1_555 1_555
N6 Ni2 1_555 1_555
C1 C2 1_555 1_555
C2 C3 1_555 1_555
C3 H2 1_555 1_555
C4 N1 1_555 1_555
C5 C4 1_555 1_555
H3 C5 1_555 1_555
C6 H4 1_555 1_555
C7 N1 1_555 1_555
H5 C7 1_555 1_555
C9 C8 1_555 1_555
C11 N4 1_555 1_555
C12 C11 1_555 1_555
H7 C12 1_555 1_555
C13 N6 1_555 1_555
H8 C13 1_555 1_555
O5 C15 1_555 1_555
O6 C15 1_555 1_555
N7 N8 1_555 1_555
N8 C18 1_555 1_555
N9 C18 1_555 1_555
C15 C16 1_555 1_555
C16 C3 1_555 1_555
C17 C5 1_555 1_555
C18 H10 1_555 1_555
C19 N7 1_555 1_555
H11 C19 1_555 1_555
O7 C20 1_555 1_555
N10 N11 1_555 1_555
N11 C23 1_555 1_555
N12 C23 1_555 1_555
C22 C12 1_555 1_555
C23 H13 1_555 1_555
Ni2_2 N3 1_555 1_555
Ni3 N12 1_555 1_555
Ni5_2 O6 1_555 1_555
Ni5_4 N9 1_555 1_555
N14 Ni2 1_555 1_555
N3 C7 1_555 1_555
C2 C4 1_555 1_555
C9 C11 1_555 1_555
N7 C17 1_555 1_555
N9 C19 1_555 1_555
C16 C17 1_555 1_555
N10 C22 1_555 1_555
C20 C21 1_555 1_555
C21 C22 1_555 1_555
O4 H1 1_555 1_555
H6 C10 1_555 1_555
H9 C14 1_555 1_555
O8 H12 1_555 1_555
H14 C24 1_555 1_555
O9 Ni2_2 1_555 1_555
N15 Ni2_2 1_555 1_555
O9_2 Ni3 1_555 1_555
O4_2 H1_2 1_555 1_555
H6_2 C10_2 1_555 1_555
H9_2 C14_2 1_555 1_555
O8_2 H12_2 1_555 1_555
H14_2 C24_2 1_555 1_555
N13 Ni3_2 1_555 1_555
C3_2 H2_2 1_555 1_555
H3_2 C5_2 1_555 1_555
H5_2 C7_2 1_555 1_555
O5_2 C15_2 1_555 1_555
O6_2 C15_2 1_555 1_555
N7_2 N8_2 1_555 1_555
N8_2 C18_2 1_555 1_555
N9_2 C18_2 1_555 1_555
C15_2 C16_2 1_555 1_555
C16_2 C3_2 1_555 1_555
C17_2 C5_2 1_555 1_555
C18_2 H10_2 1_555 1_555
Ni4_5 O6_2 1_555 1_555
Ni4 N9_2 1_555 1_555
N14_2 Ni3_3 1_555 1_555
N7_2 C17_2 1_555 1_555
C16_2 C17_2 1_555 1_555
Ni3_4 O2_2 1_555 1_555
O1_2 C1_2 1_555 1_555
O2_2 C1_2 1_555 1_555
O3_2 C8_2 1_555 1_555
N1_2 N2_2 1_555 1_555
N2_2 C6_2 1_555 1_555
N13 C6_2 1_555 1_555
N4_2 N5_2 1_555 1_555
N5_2 C13_2 1_555 1_555
N6_2 Ni3_4 1_555 1_555
C1_2 C2_2 1_555 1_555
C2_2 C3_3 1_555 1_555
C3_3 H2_3 1_555 1_555
C4_2 N1_2 1_555 1_555
C5_3 C4_2 1_555 1_555
H3_3 C5_3 1_555 1_555
C6_2 H4_2 1_555 1_555
C9_2 C8_2 1_555 1_555
C11_2 N4_2 1_555 1_555
C12_2 C11_2 1_555 1_555
H7_2 C12_2 1_555 1_555
C13_2 N6_2 1_555 1_555
H8_2 C13_2 1_555 1_555
H11_2 C19_2 1_555 1_555
O7_2 C20_2 1_555 1_555
N10_2 N11_2 1_555 1_555
N11_2 C23_2 1_555 1_555
N15 C23_2 1_555 1_555
C22_2 C12_2 1_555 1_555
C23_2 H13_2 1_555 1_555
C2_2 C4_2 1_555 1_555
C9_2 C11_2 1_555 1_555
N10_2 C22_2 1_555 1_555
C20_2 C21_2 1_555 1_555
C21_2 C22_2 1_555 1_555
N15_2 Ni4_2 1_555 1_555
O4_3 H1_3 1_555 1_555
H6_3 C10_3 1_555 1_555
H9_3 C14_3 1_555 1_555
O8_3 H12_3 1_555 1_555
H14_3 C24_3 1_555 1_555
O9_3 Ni4_4 1_555 1_555
O3_3 C8_3 1_555 1_555
N4_3 N5_3 1_555 1_555
N5_3 C13_3 1_555 1_555
N6_3 Ni4_7 1_555 1_555
C9_3 C8_3 1_555 1_555
C11_3 N4_3 1_555 1_555
C12_3 C11_3 1_555 1_555
H7_3 C12_3 1_555 1_555
C13_3 N6_3 1_555 1_555
O7_3 C20_3 1_555 1_555
N10_3 N11_3 1_555 1_555
N11_3 C23_3 1_555 1_555
N12_2 C23_3 1_555 1_555
C22_3 C12_3 1_555 1_555
Ni5_4 N12_2 1_555 1_555
C9_3 C11_3 1_555 1_555
N10_3 C22_3 1_555 1_555
C20_3 C21_3 1_555 1_555
C21_3 C22_3 1_555 1_555
N14_3 Ni4_8 1_555 1_555
O3_4 C8_4 1_555 1_555
N4_4 N5_4 1_555 1_555
N5_4 C13_4 1_555 1_555
N6_4 Ni5 1_555 1_555
C9_4 C8_4 1_555 1_555
C11_4 N4_4 1_555 1_555
C12_4 C11_4 1_555 1_555
H7_4 C12_4 1_555 1_555
C13_4 N6_4 1_555 1_555
O7_4 C20_4 1_555 1_555
N10_4 N11_4 1_555 1_555
N11_4 C23_4 1_555 1_555
N15_2 C23_4 1_555 1_555
C22_4 C12_4 1_555 1_555
N14_4 Ni5 1_555 1_555
C9_4 C11_4 1_555 1_555
N10_4 C22_4 1_555 1_555
C20_4 C21_4 1_555 1_555
C21_4 C22_4 1_555 1_555
O4_4 H1_4 1_555 1_555
H6_4 C10_4 1_555 1_555
H9_4 C14_4 1_555 1_555
O8_4 H12_4 1_555 1_555
H14_4 C24_4 1_555 1_555
O9_4 Ni5_3 1_555 1_555
O1_3 C1_3 1_555 1_555
O9 C1_3 1_555 1_555
N1_3 N2_3 1_555 1_555
N2_3 C6_3 1_555 1_555
N14 C6_3 1_555 1_555
C1_3 C2_3 1_555 1_555
C2_3 C3_4 1_555 1_555
C3_4 H2_4 1_555 1_555
C4_3 N1_3 1_555 1_555
C5_4 C4_3 1_555 1_555
H3_4 C5_4 1_555 1_555
C6_3 H4_3 1_555 1_555
C7_3 N1_3 1_555 1_555
H5_3 C7_3 1_555 1_555
O5_3 C15_3 1_555 1_555
O9_4 C15_3 1_555 1_555
N7_3 N8_3 1_555 1_555
N8_3 C18_3 1_555 1_555
N14_4 C18_3 1_555 1_555
C15_3 C16_3 1_555 1_555
C16_3 C3_4 1_555 1_555
C17_3 C5_4 1_555 1_555
C18_3 H10_3 1_555 1_555
C19_3 N7_3 1_555 1_555
H11_3 C19_3 1_555 1_555
N14 C7_3 1_555 1_555
C2_3 C4_3 1_555 1_555
N7_3 C17_3 1_555 1_555
N14_4 C19_3 1_555 1_555
C16_3 C17_3 1_555 1_555
O1_4 C1_4 1_555 1_555
O9_2 C1_4 1_555 1_555
N1_4 N2_4 1_555 1_555
N2_4 C6_4 1_555 1_555
N14_2 C6_4 1_555 1_555
C1_4 C2_4 1_555 1_555
C2_4 C3_5 1_555 1_555
C3_5 H2_5 1_555 1_555
C4_4 N1_4 1_555 1_555
C5_5 C4_4 1_555 1_555
H3_5 C5_5 1_555 1_555
C6_4 H4_4 1_555 1_555
H11_4 C19_4 1_555 1_555
C2_4 C4_4 1_555 1_555
C3_6 H2_6 1_555 1_555
H3_6 C5_6 1_555 1_555
H5_4 C7_4 1_555 1_555
O5_4 C15_4 1_555 1_555
O9_3 C15_4 1_555 1_555
N7_4 N8_4 1_555 1_555
N8_4 C18_4 1_555 1_555
N14_3 C18_4 1_555 1_555
C15_4 C16_4 1_555 1_555
C16_4 C3_6 1_555 1_555
C17_4 C5_6 1_555 1_555
C18_4 H10_4 1_555 1_555
N7_4 C17_4 1_555 1_555
C16_4 C17_4 1_555 1_555

#END
