
###############################################################################
#
# This file contains modified crystal structure data generated from the
# MOF subset of the Cambridge Structural Database (CSD) v543 
# hosted by the Cambridge Crystallographic Data Centre (CCDC).
#
# This work is licensed under the Creative Commons
# Attribution-NonCommercial-ShareAlike 4.0 International License.
# To view a copy of this license, visit
# http://creativecommons.org/licenses/by-nc-sa/4.0/
# or send a letter to
# Creative Commons, PO Box 1866, Mountain View, CA 94042, USA.
#
# CIF created using the CSD Python API on 29 September 2022
# The structure has been converted into the P1 space group
# The structure has a 3D framework
# The original CSD entry TEVCAB is in the monoclinic crystal system
# The framework has been calculated to contain at least 10.0% void space
# The void calculation uses a probe of radius 1.32A, grid spacing 0.4
#
###############################################################################

data_TEVCAB
_chemical_formula_moiety         '(C24 Fe12 N96 O24)n'
_symmetry_cell_setting           triclinic
_symmetry_space_group_name_H-M   'P 1'
_symmetry_Int_Tables_number      1
_space_group_name_Hall           'P 1'
loop_
_symmetry_equiv_pos_site_id
_symmetry_equiv_pos_as_xyz
1 x,y,z
_cell_length_a                   13.906(5)
_cell_length_b                   24.203(10)
_cell_length_c                   8.562(3)
_cell_angle_alpha                90
_cell_angle_beta                 96.601(9)
_cell_angle_gamma                90
_cell_volume                     2862.58
loop_
_atom_site_label
_atom_site_type_symbol
_atom_site_fract_x
_atom_site_fract_y
_atom_site_fract_z
N9 N 0.0612(15) 0.7710(6) 0.453(3)
N10 N 0.0282(15) 0.7673(10) 0.588(2)
O3 O 0.1527(12) 0.7829(10) 0.442(2)
C4 C 0.004(2) 0.7620(12) 0.164(3)
N16 N 0.0820(15) 0.7518(11) 0.097(2)
Fe6 Fe 0.26675(6) 0.73175(4) 0.25339(10)
Fe11 Fe 0.23325(6) 0.76825(4) 0.74661(10)
N15 N 0.0661(15) 0.7547(10) 0.943(2)
Fe1 Fe 0.5000 0.00949(5) 0.2500
O10 O 0.6030(17) 0.0298(7) 0.554(2)
O9 O 0.3970(17) 0.0298(7) 0.946(2)
C1 C 0.638(2) 0.8864(10) 0.323(3)
C2 C 0.646(2) 0.8790(10) 0.154(3)
N1 N 0.6859(17) 0.8583(8) 0.444(2)
N2 N 0.6621(18) 0.8723(8) 0.579(2)
N3 N 0.6072(18) 0.9162(8) 0.547(2)
N4 N 0.5914(17) 0.9244(9) 0.389(2)
N5 N 0.6254(17) 0.9135(8) 0.046(2)
N8 N 0.6631(18) 0.8288(8) 0.089(2)
O1 O 0.7459(14) 0.8144(7) 0.4353(17)
O2 O 0.6030(17) 0.9702(7) 0.054(2)
Fe2 Fe 0.73325(6) 0.73175(4) 0.24661(10)
C3 C 0.996(2) 0.7620(12) 0.336(3)
N11 N 0.9339(15) 0.7547(10) 0.557(2)
N12 N 0.9180(15) 0.7518(11) 0.403(2)
N13 N 0.9388(15) 0.7710(6) 0.047(3)
O4 O 0.8473(12) 0.7829(10) 0.058(2)
C5 C 0.362(2) 0.8864(10) 0.177(3)
C6 C 0.354(2) 0.8790(10) 0.346(3)
N17 N 0.3141(17) 0.8583(8) 0.056(2)
N20 N 0.4086(17) 0.9244(9) 0.111(2)
N21 N 0.3746(17) 0.9135(8) 0.454(2)
N22 N 0.3572(18) 0.8954(8) 0.594(2)
N23 N 0.3349(17) 0.8423(9) 0.567(2)
N24 N 0.3369(18) 0.8288(8) 0.411(2)
O5 O 0.2541(14) 0.8144(7) 0.0647(17)
O6 O 0.3970(17) 0.9702(7) 0.446(2)
N25 N 0.8349(17) 0.6577(9) 0.067(2)
N26 N 0.1651(17) 0.6577(9) 0.433(2)
O7 O 0.7541(14) 0.6856(7) 0.5647(17)
Fe5 Fe 0.5000 0.99051(5) 0.7500
Fe8 Fe 0.76675(6) 0.76825(4) 0.75339(10)
O12 O 0.3473(12) 0.7171(10) 0.558(2)
N6 N 0.6428(18) 0.8954(8) 0.906(2)
N7 N 0.6651(17) 0.8423(9) 0.933(2)
N14 N 0.9718(15) 0.7673(10) 0.912(2)
N18 N 0.3379(18) 0.8723(8) 0.921(2)
N19 N 0.3928(18) 0.9162(8) 0.953(2)
O8 O 0.2459(14) 0.6856(7) 0.9353(17)
O13 O 0.6527(12) 0.7171(10) 0.942(2)
C1_2 C 0.138(2) 0.3864(10) 0.323(3)
C2_2 C 0.146(2) 0.3790(10) 0.154(3)
N1_2 N 0.1859(17) 0.3583(8) 0.444(2)
N2_2 N 0.1621(18) 0.3723(8) 0.579(2)
N3_2 N 0.1072(18) 0.4162(8) 0.547(2)
N4_2 N 0.0914(17) 0.4244(9) 0.389(2)
N5_2 N 0.1254(17) 0.4135(8) 0.046(2)
N8_2 N 0.1631(18) 0.3288(8) 0.089(2)
O1_2 O 0.2459(14) 0.3144(7) 0.4353(17)
O2_2 O 0.1030(17) 0.4702(7) 0.054(2)
Fe1_2 Fe -0.0000 0.50949(5) 0.2500
Fe2_2 Fe 0.23325(6) 0.23175(4) 0.24661(10)
C3_2 C 0.496(2) 0.2620(12) 0.336(3)
N9_2 N 0.5612(15) 0.2710(6) 0.453(3)
N10_2 N 0.5282(15) 0.2673(10) 0.588(2)
N11_2 N 0.4339(15) 0.2547(10) 0.557(2)
N12_2 N 0.4180(15) 0.2518(11) 0.403(2)
O3_2 O 0.6527(12) 0.2829(10) 0.442(2)
C4_2 C 0.504(2) 0.2620(12) 0.164(3)
N13_2 N 0.4388(15) 0.2710(6) 0.047(3)
N16_2 N 0.5820(15) 0.2518(11) 0.097(2)
O4_2 O 0.3473(12) 0.2829(10) 0.058(2)
N25_2 N 0.3349(17) 0.1577(9) 0.067(2)
O7_2 O 0.2541(14) 0.1856(7) 0.5647(17)
O10_2 O 0.1030(17) 0.5298(7) 0.554(2)
Fe5_2 Fe -0.0000 0.49051(5) 0.7500
Fe6_2 Fe 0.76675(6) 0.23175(4) 0.25339(10)
Fe8_2 Fe 0.26675(6) 0.26825(4) 0.75339(10)
Fe11_2 Fe 0.73325(6) 0.26825(4) 0.74661(10)
N6_2 N 0.1428(18) 0.3954(8) 0.906(2)
N7_2 N 0.1651(17) 0.3423(9) 0.933(2)
N14_2 N 0.4718(15) 0.2673(10) 0.912(2)
N15_2 N 0.5661(15) 0.2547(10) 0.943(2)
O13_2 O 0.1527(12) 0.2171(10) 0.942(2)
Fe1_3 Fe 1.0000 0.50949(5) 0.2500
C5_2 C 0.862(2) 0.3864(10) 0.177(3)
C6_2 C 0.854(2) 0.3790(10) 0.346(3)
N17_2 N 0.8141(17) 0.3583(8) 0.056(2)
N20_2 N 0.9086(17) 0.4244(9) 0.111(2)
N21_2 N 0.8746(17) 0.4135(8) 0.454(2)
N22_2 N 0.8572(18) 0.3954(8) 0.594(2)
N23_2 N 0.8349(17) 0.3423(9) 0.567(2)
N24_2 N 0.8369(18) 0.3288(8) 0.411(2)
O5_2 O 0.7541(14) 0.3144(7) 0.0647(17)
O6_2 O 0.8970(17) 0.4702(7) 0.446(2)
N26_2 N 0.6651(17) 0.1577(9) 0.433(2)
Fe5_3 Fe 1.0000 0.49051(5) 0.7500
O12_2 O 0.8473(12) 0.2171(10) 0.558(2)
N18_2 N 0.8379(18) 0.3723(8) 0.921(2)
N19_2 N 0.8928(18) 0.4162(8) 0.953(2)
O8_2 O 0.7459(14) 0.1856(7) 0.9353(17)
O9_2 O 0.8970(17) 0.5298(7) 0.946(2)
N6_3 N 0.3572(18) 0.1046(8) 0.094(2)
N14_3 N 0.0282(15) 0.2327(10) 0.088(2)
N18_3 N 0.6621(18) 0.1277(8) 0.079(2)
N19_3 N 0.6072(18) 0.0838(8) 0.047(2)
C1_3 C 0.362(2) 0.1136(10) 0.677(3)
C2_3 C 0.354(2) 0.1210(10) 0.846(3)
N1_3 N 0.3141(17) 0.1417(8) 0.556(2)
N2_3 N 0.3379(18) 0.1277(8) 0.421(2)
N3_3 N 0.3928(18) 0.0838(8) 0.453(2)
N4_3 N 0.4086(17) 0.0756(9) 0.611(2)
N5_3 N 0.3746(17) 0.0865(8) 0.954(2)
N8_3 N 0.3369(18) 0.1712(8) 0.911(2)
C3_3 C 0.004(2) 0.2380(12) 0.664(3)
N11_3 N 0.0661(15) 0.2453(10) 0.443(2)
N12_3 N 0.0820(15) 0.2482(11) 0.597(2)
N13_3 N 0.0612(15) 0.2290(6) 0.953(3)
C5_3 C 0.638(2) 0.1136(10) 0.823(3)
C6_3 C 0.646(2) 0.1210(10) 0.654(3)
N17_3 N 0.6859(17) 0.1417(8) 0.944(2)
N20_3 N 0.5914(17) 0.0756(9) 0.889(2)
N21_3 N 0.6254(17) 0.0865(8) 0.546(2)
N22_3 N 0.6428(18) 0.1046(8) 0.406(2)
N24_3 N 0.6631(18) 0.1712(8) 0.589(2)
N27 N 0.9180(15) 0.2482(11) 0.903(2)
N15_3 N 0.9339(15) 0.2453(10) 0.057(2)
N9_3 N 0.9388(15) 0.2290(6) 0.547(3)
N10_3 N 0.9718(15) 0.2327(10) 0.412(2)
C4_3 C 0.996(2) 0.2380(12) 0.836(3)
N18_4 N 0.1621(18) 0.6277(8) 0.079(2)
N19_4 N 0.1072(18) 0.5838(8) 0.047(2)
C5_4 C 0.138(2) 0.6136(10) 0.823(3)
C6_4 C 0.146(2) 0.6210(10) 0.654(3)
N17_4 N 0.1859(17) 0.6417(8) 0.944(2)
N20_4 N 0.0914(17) 0.5756(9) 0.889(2)
N21_4 N 0.1254(17) 0.5865(8) 0.546(2)
N22_4 N 0.1428(18) 0.6046(8) 0.406(2)
N24_4 N 0.1631(18) 0.6712(8) 0.589(2)
N27_2 N 0.4180(15) 0.7482(11) 0.903(2)
N6_4 N 0.8572(18) 0.6046(8) 0.094(2)
N14_4 N 0.5282(15) 0.7327(10) 0.088(2)
N15_4 N 0.4339(15) 0.7453(10) 0.057(2)
C1_4 C 0.862(2) 0.6136(10) 0.677(3)
C2_4 C 0.854(2) 0.6210(10) 0.846(3)
N1_4 N 0.8141(17) 0.6417(8) 0.556(2)
N2_4 N 0.8379(18) 0.6277(8) 0.421(2)
N3_4 N 0.8928(18) 0.5838(8) 0.453(2)
N4_4 N 0.9086(17) 0.5756(9) 0.611(2)
N5_4 N 0.8746(17) 0.5865(8) 0.954(2)
N8_4 N 0.8369(18) 0.6712(8) 0.911(2)
C3_4 C 0.504(2) 0.7380(12) 0.664(3)
N9_4 N 0.4388(15) 0.7290(6) 0.547(3)
N10_4 N 0.4718(15) 0.7327(10) 0.412(2)
N11_4 N 0.5661(15) 0.7453(10) 0.443(2)
N12_4 N 0.5820(15) 0.7482(11) 0.597(2)
C4_4 C 0.496(2) 0.7380(12) 0.836(3)
N13_4 N 0.5612(15) 0.7290(6) 0.953(3)
loop_
_geom_bond_atom_site_label_1
_geom_bond_atom_site_label_2
_geom_bond_site_symmetry_1
_geom_bond_site_symmetry_2
N9 N10 1_555 1_555
O3 N9 1_555 1_555
N16 C4 1_555 1_555
Fe6 O3 1_555 1_555
Fe11 O3 1_555 1_555
N16 Fe6 1_555 1_555
O10 Fe1 1_555 1_555
C1 C2 1_555 1_555
C2 N5 1_555 1_555
N1 C1 1_555 1_555
N2 N1 1_555 1_555
N3 N2 1_555 1_555
N4 C1 1_555 1_555
N8 C2 1_555 1_555
O1 N1 1_555 1_555
O2 N5 1_555 1_555
Fe2 N8 1_555 1_555
N11 N12 1_555 1_555
N12 Fe2 1_555 1_555
O4 Fe2 1_555 1_555
C5 C6 1_555 1_555
C6 N21 1_555 1_555
N17 C5 1_555 1_555
N21 N22 1_555 1_555
N22 N23 1_555 1_555
N23 N24 1_555 1_555
N24 C6 1_555 1_555
O5 N17 1_555 1_555
Fe6 N24 1_555 1_555
N25 Fe2 1_555 1_555
N26 Fe6 1_555 1_555
O7 Fe2 1_555 1_555
Fe5 O6 1_555 1_555
Fe8 O1 1_555 1_555
Fe11 N23 1_555 1_555
O12 Fe6 1_555 1_555
N3 N4 1_555 1_555
O1 Fe2 1_555 1_555
C3 N12 1_555 1_555
N13 O4 1_555 1_555
C5 N20 1_555 1_555
N21 O6 1_555 1_555
O5 Fe6 1_555 1_555
O7 Fe8 1_555 1_555
Fe11 O12 1_555 1_555
N6 N7 1_555 1_555
N19 N18 1_555 1_555
Fe8 N7 1_555 1_555
O8 Fe11 1_555 1_555
Fe8 O13 1_555 1_555
C1_2 C2_2 1_555 1_555
C2_2 N5_2 1_555 1_555
N1_2 C1_2 1_555 1_555
N2_2 N1_2 1_555 1_555
N3_2 N2_2 1_555 1_555
N4_2 C1_2 1_555 1_555
N8_2 C2_2 1_555 1_555
O1_2 N1_2 1_555 1_555
O2_2 N5_2 1_555 1_555
Fe1_2 N4_2 1_555 1_555
Fe2_2 N8_2 1_555 1_555
C3_2 N9_2 1_555 1_555
N9_2 N10_2 1_555 1_555
N10_2 N11_2 1_555 1_555
N11_2 N12_2 1_555 1_555
N12_2 Fe2_2 1_555 1_555
O3_2 N9_2 1_555 1_555
C4_2 C3_2 1_555 1_555
N13_2 C4_2 1_555 1_555
N16_2 C4_2 1_555 1_555
O4_2 Fe2_2 1_555 1_555
N25_2 Fe2_2 1_555 1_555
O7_2 Fe2_2 1_555 1_555
O10_2 Fe1_2 1_555 1_555
Fe6_2 O3_2 1_555 1_555
Fe8_2 O1_2 1_555 1_555
Fe11_2 O3_2 1_555 1_555
N3_2 N4_2 1_555 1_555
O1_2 Fe2_2 1_555 1_555
O2_2 Fe1_2 1_555 1_555
C3_2 N12_2 1_555 1_555
N13_2 O4_2 1_555 1_555
N16_2 Fe6_2 1_555 1_555
O7_2 Fe8_2 1_555 1_555
O10_2 Fe5_2 1_555 1_555
N6_2 N7_2 1_555 1_555
N15_2 N14_2 1_555 1_555
Fe8_2 N7_2 1_555 1_555
Fe8_2 O13_2 1_555 1_555
C5_2 C6_2 1_555 1_555
C6_2 N21_2 1_555 1_555
N17_2 C5_2 1_555 1_555
N20_2 Fe1_3 1_555 1_555
N21_2 N22_2 1_555 1_555
N22_2 N23_2 1_555 1_555
N23_2 N24_2 1_555 1_555
N24_2 C6_2 1_555 1_555
O5_2 N17_2 1_555 1_555
O6_2 Fe1_3 1_555 1_555
Fe6_2 N24_2 1_555 1_555
N26_2 Fe6_2 1_555 1_555
Fe5_3 O6_2 1_555 1_555
Fe11_2 N23_2 1_555 1_555
O12_2 Fe6_2 1_555 1_555
C5_2 N20_2 1_555 1_555
N21_2 O6_2 1_555 1_555
O5_2 Fe6_2 1_555 1_555
Fe11_2 O12_2 1_555 1_555
N19_2 N18_2 1_555 1_555
O8_2 Fe11_2 1_555 1_555
O9_2 Fe5_3 1_555 1_555
N6_3 N25_2 1_555 1_555
N19_3 N18_3 1_555 1_555
C1_3 C2_3 1_555 1_555
C2_3 N5_3 1_555 1_555
N1_3 C1_3 1_555 1_555
N2_3 N1_3 1_555 1_555
N3_3 N2_3 1_555 1_555
N4_3 C1_3 1_555 1_555
N8_3 C2_3 1_555 1_555
O7_2 N1_3 1_555 1_555
O9 N5_3 1_555 1_555
Fe8_2 N8_3 1_555 1_555
N11_3 N12_3 1_555 1_555
N12_3 Fe8_2 1_555 1_555
C5_3 C6_3 1_555 1_555
C6_3 N21_3 1_555 1_555
N17_3 C5_3 1_555 1_555
N21_3 N22_3 1_555 1_555
N22_3 N26_2 1_555 1_555
N26_2 N24_3 1_555 1_555
N24_3 C6_3 1_555 1_555
O8_2 N17_3 1_555 1_555
Fe11_2 N24_3 1_555 1_555
N27 Fe11_2 1_555 1_555
N3_3 N4_3 1_555 1_555
C3_3 N12_3 1_555 1_555
N13_3 O13_2 1_555 1_555
C5_3 N20_3 1_555 1_555
N21_3 O10 1_555 1_555
N9_3 N10_3 1_555 1_555
O12_2 N9_3 1_555 1_555
N27 C4_3 1_555 1_555
N19_4 N18_4 1_555 1_555
C5_4 C6_4 1_555 1_555
C6_4 N21_4 1_555 1_555
N17_4 C5_4 1_555 1_555
N20_4 Fe5_2 1_555 1_555
N21_4 N22_4 1_555 1_555
N22_4 N26 1_555 1_555
N26 N24_4 1_555 1_555
N24_4 C6_4 1_555 1_555
O8 N17_4 1_555 1_555
Fe11 N24_4 1_555 1_555
N27_2 Fe11 1_555 1_555
C5_4 N20_4 1_555 1_555
N21_4 O10_2 1_555 1_555
N6_4 N25 1_555 1_555
N15_4 N14_4 1_555 1_555
C1_4 C2_4 1_555 1_555
C2_4 N5_4 1_555 1_555
N1_4 C1_4 1_555 1_555
N2_4 N1_4 1_555 1_555
N3_4 N2_4 1_555 1_555
N4_4 C1_4 1_555 1_555
N8_4 C2_4 1_555 1_555
O7 N1_4 1_555 1_555
O9_2 N5_4 1_555 1_555
Fe5_3 N4_4 1_555 1_555
Fe8 N8_4 1_555 1_555
C3_4 N9_4 1_555 1_555
N9_4 N10_4 1_555 1_555
N10_4 N11_4 1_555 1_555
N11_4 N12_4 1_555 1_555
N12_4 Fe8 1_555 1_555
O12 N9_4 1_555 1_555
C4_4 C3_4 1_555 1_555
N13_4 C4_4 1_555 1_555
N27_2 C4_4 1_555 1_555
N3_4 N4_4 1_555 1_555
C3_4 N12_4 1_555 1_555
N13_4 O13 1_555 1_555

#END
