
###############################################################################
#
# This file contains modified crystal structure data generated from the
# MOF subset of the Cambridge Structural Database (CSD) v543 
# hosted by the Cambridge Crystallographic Data Centre (CCDC).
#
# This work is licensed under the Creative Commons
# Attribution-NonCommercial-ShareAlike 4.0 International License.
# To view a copy of this license, visit
# http://creativecommons.org/licenses/by-nc-sa/4.0/
# or send a letter to
# Creative Commons, PO Box 1866, Mountain View, CA 94042, USA.
#
# CIF created using the CSD Python API on 29 September 2022
# The structure has been converted into the P1 space group
# The structure has a 3D framework
# The original CSD entry TEVPUI is in the orthorhombic crystal system
# The framework has been calculated to contain at least 10.0% void space
# The void calculation uses a probe of radius 1.32A, grid spacing 0.4
#
###############################################################################

data_TEVPUI
_chemical_formula_moiety         '(C96 H64 Co4 N16 O32)n'
_symmetry_cell_setting           triclinic
_symmetry_space_group_name_H-M   'P 1'
_symmetry_Int_Tables_number      1
_space_group_name_Hall           'P 1'
loop_
_symmetry_equiv_pos_site_id
_symmetry_equiv_pos_as_xyz
1 x,y,z
_cell_length_a                   12.9362(19)
_cell_length_b                   14.560(2)
_cell_length_c                   20.181(3)
_cell_angle_alpha                90
_cell_angle_beta                 90
_cell_angle_gamma                90
_cell_volume                     3801.11
loop_
_atom_site_label
_atom_site_type_symbol
_atom_site_fract_x
_atom_site_fract_y
_atom_site_fract_z
C1 C 0.1173(3) 0.0163(3) 0.30324(19)
O1 O 0.0364(2) 0.0415(2) 0.33266(15)
O2 O 0.1458(2) 0.0422(2) 0.24709(14)
Co2 Co 0.06718(4) 0.13907(3) 0.19354(2)
O7 O 0.0433(2) 0.2316(2) 0.33513(14)
C2 C 0.1829(3) 0.9470(3) 0.33899(19)
C3 C 0.1756(3) 0.9394(3) 0.4068(2)
H1 H 0.1307 0.9776 0.4299
C4 C 0.2347(3) 0.8751(3) 0.44118(19)
C5 C 0.3030(3) 0.8200(3) 0.4075(2)
H2 H 0.3449 0.7792 0.4306
C6 C 0.3096(3) 0.8253(3) 0.33928(19)
C7 C 0.2494(3) 0.8886(2) 0.30430(19)
H3 H 0.2535 0.8918 0.2584
C8 C 0.3801(3) 0.7613(3) 0.30289(19)
C9 C 0.0312(4) 0.8586(4) 0.5212(2)
H4 H 0.0003 0.8010 0.5331
H5 H 0.0338 0.8639 0.4738
C10 C 0.1371(3) 0.8632(3) 0.54824(19)
C11 C 0.2661(3) 0.8640(3) 0.6156(2)
H7 H 0.3036 0.8637 0.6549
C12 C 0.3084(3) 0.8684(3) 0.5547(2)
H8 H 0.3783 0.8707 0.5441
N1 N 0.2262(2) 0.8690(2) 0.51149(15)
N2 N 0.1612(2) 0.8599(2) 0.61201(15)
O3 O 0.3583(2) 0.7406(2) 0.24469(14)
O4 O 0.4567(2) 0.7316(2) 0.33513(14)
Co3 Co 0.06718(4) 0.86093(3) 0.69354(2)
Co4 Co 0.43282(4) 0.63907(3) 0.19354(2)
Co5 Co 0.56718(4) 0.63907(3) 0.30646(2)
Co1 Co 0.93282(4) 0.13907(3) 0.30646(2)
N3 N 0.8388(2) 0.1401(2) 0.38799(15)
O5 O 0.8542(2) 0.0422(2) 0.25291(14)
O6 O 0.8583(2) 0.2406(2) 0.25531(14)
C9_2 C 0.4688(4) 0.6414(4) 0.0212(2)
H4_2 H 0.4997 0.6990 0.0331
H6 H 0.5092 0.5920 0.0390
C10_2 C 0.3629(3) 0.6368(3) 0.04824(19)
C11_2 C 0.2339(3) 0.6360(3) 0.1156(2)
H7_2 H 0.1964 0.6363 0.1549
C12_2 C 0.1916(3) 0.6316(3) 0.0547(2)
H8_2 H 0.1217 0.6293 0.0441
N1_2 N 0.2738(2) 0.6310(2) 0.01149(15)
N2_2 N 0.3388(2) 0.6401(2) 0.11201(15)
C1_2 C 0.3827(3) 0.4837(3) 0.80324(19)
C2_2 C 0.3171(3) 0.5530(3) 0.83899(19)
C3_2 C 0.3244(3) 0.5606(3) 0.9068(2)
H1_2 H 0.3693 0.5224 0.9299
C4_2 C 0.2653(3) 0.6249(3) 0.94118(19)
C5_2 C 0.1970(3) 0.6800(3) 0.9075(2)
H2_2 H 0.1551 0.7208 0.9306
C6_2 C 0.1904(3) 0.6747(3) 0.83928(19)
C7_2 C 0.2506(3) 0.6114(2) 0.80430(19)
H3_2 H 0.2465 0.6082 0.7584
C8_2 C 0.1199(3) 0.7387(3) 0.80289(19)
H5_2 H 0.4662 0.6361 0.9738
Co1_2 Co 0.56718(4) 0.36093(3) 0.80646(2)
O1_2 O 0.4636(2) 0.4585(2) 0.83266(15)
O2_2 O 0.3542(2) 0.4578(2) 0.74709(14)
O3_2 O 0.1417(2) 0.7594(2) 0.74469(14)
O4_2 O 0.0433(2) 0.7684(2) 0.83513(14)
Co2_2 Co 0.43282(4) 0.36093(3) 0.69354(2)
N3_2 N 0.6612(2) 0.3599(2) 0.88799(15)
O5_2 O 0.6458(2) 0.4578(2) 0.75291(14)
O6_2 O 0.6417(2) 0.2594(2) 0.75531(14)
O7_2 O 0.4567(2) 0.2684(2) 0.83513(14)
Co5_2 Co 0.93282(4) 0.86093(3) 0.80646(2)
N3_3 N 0.1612(2) 0.1401(2) 0.11201(15)
O6_3 O 0.1417(2) 0.2406(2) 0.24469(14)
C1_3 C 0.8827(3) 0.0163(3) 0.19676(19)
O1_3 O 0.9636(2) 0.0415(2) 0.16734(15)
O7_3 O 0.9567(2) 0.2316(2) 0.16487(14)
C2_3 C 0.8171(3) 0.9470(3) 0.16101(19)
C3_3 C 0.8244(3) 0.9394(3) 0.0932(2)
H1_3 H 0.8693 0.9776 0.0701
C4_3 C 0.7653(3) 0.8751(3) 0.05882(19)
C5_3 C 0.6970(3) 0.8200(3) 0.0925(2)
H2_3 H 0.6551 0.7792 0.0694
C6_3 C 0.6904(3) 0.8253(3) 0.16072(19)
C7_3 C 0.7506(3) 0.8886(2) 0.19570(19)
H3_3 H 0.7465 0.8918 0.2416
C8_3 C 0.6199(3) 0.7613(3) 0.19711(19)
H5_3 H 0.9662 0.8639 0.0262
O3_3 O 0.6417(2) 0.7406(2) 0.25531(14)
O4_3 O 0.5433(2) 0.7316(2) 0.16487(14)
C9_3 C 0.9688(4) 0.8586(4) 0.9788(2)
H4_3 H 0.9997 0.8010 0.9669
C10_3 C 0.8629(3) 0.8632(3) 0.95176(19)
C11_3 C 0.7339(3) 0.8640(3) 0.8844(2)
H7_3 H 0.6964 0.8637 0.8451
C12_3 C 0.6916(3) 0.8684(3) 0.9453(2)
H8_3 H 0.6217 0.8707 0.9559
N1_3 N 0.7738(2) 0.8690(2) 0.98851(15)
N2_3 N 0.8388(2) 0.8599(2) 0.88799(15)
C1_4 C 0.6173(3) 0.4837(3) 0.69676(19)
C2_4 C 0.6829(3) 0.5530(3) 0.66101(19)
C3_4 C 0.6756(3) 0.5606(3) 0.5932(2)
H1_4 H 0.6307 0.5224 0.5701
C4_4 C 0.7347(3) 0.6249(3) 0.55882(19)
C5_4 C 0.8030(3) 0.6800(3) 0.5925(2)
H2_4 H 0.8449 0.7208 0.5694
C6_4 C 0.8096(3) 0.6747(3) 0.66072(19)
C7_4 C 0.7494(3) 0.6114(2) 0.69570(19)
H3_4 H 0.7535 0.6082 0.7416
C8_4 C 0.8801(3) 0.7387(3) 0.69711(19)
C9_4 C 0.5312(4) 0.6414(4) 0.4788(2)
H4_4 H 0.5003 0.6990 0.4669
H5_4 H 0.5338 0.6361 0.5262
H6_2 H 0.4908 0.5920 0.4610
C10_4 C 0.6371(3) 0.6368(3) 0.45176(19)
C11_4 C 0.7661(3) 0.6360(3) 0.3844(2)
H7_4 H 0.8036 0.6363 0.3451
C12_4 C 0.8084(3) 0.6316(3) 0.4453(2)
H8_4 H 0.8783 0.6293 0.4559
N1_4 N 0.7262(2) 0.6310(2) 0.48851(15)
N2_4 N 0.6612(2) 0.6401(2) 0.38799(15)
O1_4 O 0.5364(2) 0.4585(2) 0.66734(15)
O3_4 O 0.8583(2) 0.7594(2) 0.75531(14)
O4_4 O 0.9567(2) 0.7684(2) 0.66487(14)
N3_4 N 0.3388(2) 0.3599(2) 0.61201(15)
O6_4 O 0.3583(2) 0.2594(2) 0.74469(14)
O7_4 O 0.5433(2) 0.2684(2) 0.66487(14)
O5_3 O 0.1458(2) 0.9578(2) 0.74709(14)
C2_5 C 0.8171(3) 0.0530(3) 0.66101(19)
C3_5 C 0.8244(3) 0.0606(3) 0.5932(2)
H1_5 H 0.8693 0.0224 0.5701
C4_5 C 0.7653(3) 0.1249(3) 0.55882(19)
C5_5 C 0.6970(3) 0.1800(3) 0.5925(2)
H2_5 H 0.6551 0.2208 0.5694
C6_5 C 0.6904(3) 0.1747(3) 0.66072(19)
C7_5 C 0.7506(3) 0.1114(2) 0.69570(19)
H3_5 H 0.7465 0.1082 0.7416
C8_5 C 0.6199(3) 0.2387(3) 0.69711(19)
C9_5 C 0.9688(4) 0.1414(4) 0.4788(2)
H4_5 H 0.9997 0.1990 0.4669
H5_5 H 0.9662 0.1361 0.5262
C10_5 C 0.8629(3) 0.1368(3) 0.45176(19)
C11_5 C 0.7339(3) 0.1360(3) 0.3844(2)
H7_5 H 0.6964 0.1363 0.3451
C12_5 C 0.6916(3) 0.1316(3) 0.4453(2)
H8_5 H 0.6217 0.1293 0.4559
N1_5 N 0.7738(2) 0.1310(2) 0.48851(15)
C1_5 C 0.8827(3) 0.9837(3) 0.69676(19)
O1_5 O 0.9636(2) 0.9585(2) 0.66734(15)
O2_3 O 0.8542(2) 0.9578(2) 0.75291(14)
C1_6 C 0.6173(3) 0.5163(3) 0.19676(19)
C2_6 C 0.6829(3) 0.4470(3) 0.16101(19)
C3_6 C 0.6756(3) 0.4394(3) 0.0932(2)
H1_6 H 0.6307 0.4776 0.0701
C4_6 C 0.7347(3) 0.3751(3) 0.05882(19)
C5_6 C 0.8030(3) 0.3200(3) 0.0925(2)
H2_6 H 0.8449 0.2792 0.0694
C6_6 C 0.8096(3) 0.3253(3) 0.16072(19)
C7_6 C 0.7494(3) 0.3886(2) 0.19570(19)
H3_6 H 0.7535 0.3918 0.2416
C8_6 C 0.8801(3) 0.2613(3) 0.19711(19)
H5_6 H 0.5338 0.3639 0.0262
O1_6 O 0.5364(2) 0.5415(2) 0.16734(15)
O2_4 O 0.6458(2) 0.5422(2) 0.25291(14)
O5_4 O 0.3542(2) 0.5422(2) 0.24709(14)
C9_6 C 0.5312(4) 0.3586(4) 0.9788(2)
H4_6 H 0.5003 0.3010 0.9669
H6_3 H 0.4908 0.4080 0.9610
C10_6 C 0.6371(3) 0.3632(3) 0.95176(19)
C11_6 C 0.7661(3) 0.3640(3) 0.8844(2)
H7_6 H 0.8036 0.3637 0.8451
C12_6 C 0.8084(3) 0.3684(3) 0.9453(2)
H8_6 H 0.8783 0.3707 0.9559
N1_6 N 0.7262(2) 0.3690(2) 0.98851(15)
C9_7 C 0.0312(4) 0.1414(4) 0.0212(2)
H4_7 H 0.0003 0.1990 0.0331
C10_7 C 0.1371(3) 0.1368(3) 0.04824(19)
C11_7 C 0.2661(3) 0.1360(3) 0.1156(2)
H7_7 H 0.3036 0.1363 0.1549
C12_7 C 0.3084(3) 0.1316(3) 0.0547(2)
H8_7 H 0.3783 0.1293 0.0441
N1_7 N 0.2262(2) 0.1310(2) 0.01149(15)
C2_7 C 0.1829(3) 0.0530(3) 0.83899(19)
C3_7 C 0.1756(3) 0.0606(3) 0.9068(2)
H1_7 H 0.1307 0.0224 0.9299
C4_7 C 0.2347(3) 0.1249(3) 0.94118(19)
C5_7 C 0.3030(3) 0.1800(3) 0.9075(2)
H2_7 H 0.3449 0.2208 0.9306
C6_7 C 0.3096(3) 0.1747(3) 0.83928(19)
C7_7 C 0.2494(3) 0.1114(2) 0.80430(19)
H3_7 H 0.2535 0.1082 0.7584
C8_7 C 0.3801(3) 0.2387(3) 0.80289(19)
H5_7 H 0.0338 0.1361 0.9738
C1_7 C 0.1173(3) 0.9837(3) 0.80324(19)
O1_7 O 0.0364(2) 0.9585(2) 0.83266(15)
C1_8 C 0.3827(3) 0.5163(3) 0.30324(19)
C2_8 C 0.3171(3) 0.4470(3) 0.33899(19)
C3_8 C 0.3244(3) 0.4394(3) 0.4068(2)
H1_8 H 0.3693 0.4776 0.4299
C4_8 C 0.2653(3) 0.3751(3) 0.44118(19)
C5_8 C 0.1970(3) 0.3200(3) 0.4075(2)
H2_8 H 0.1551 0.2792 0.4306
C6_8 C 0.1904(3) 0.3253(3) 0.33928(19)
C7_8 C 0.2506(3) 0.3886(2) 0.30430(19)
H3_8 H 0.2465 0.3918 0.2584
C8_8 C 0.1199(3) 0.2613(3) 0.30289(19)
C9_8 C 0.4688(4) 0.3586(4) 0.5212(2)
H4_8 H 0.4997 0.3010 0.5331
H5_8 H 0.4662 0.3639 0.4738
H6_4 H 0.5092 0.4080 0.5390
C10_8 C 0.3629(3) 0.3632(3) 0.54824(19)
C11_8 C 0.2339(3) 0.3640(3) 0.6156(2)
H7_8 H 0.1964 0.3637 0.6549
C12_8 C 0.1916(3) 0.3684(3) 0.5547(2)
H8_8 H 0.1217 0.3707 0.5441
N1_8 N 0.2738(2) 0.3690(2) 0.51149(15)
O1_8 O 0.4636(2) 0.5415(2) 0.33266(15)
H6_5 H 0.9908 0.9080 0.5390
H6_6 H 0.0092 0.9080 0.9610
H6_7 H 0.0092 0.0920 0.4610
H6_8 H 0.9908 0.0920 0.0390
loop_
_geom_bond_atom_site_label_1
_geom_bond_atom_site_label_2
_geom_bond_site_symmetry_1
_geom_bond_site_symmetry_2
O1 C1 1_555 1_555
O2 C1 1_555 1_555
O2 Co2 1_555 1_555
C2 C3 1_555 1_555
C3 H1 1_555 1_555
C4 C3 1_555 1_555
C5 C4 1_555 1_555
H2 C5 1_555 1_555
C6 C5 1_555 1_555
C7 C2 1_555 1_555
H3 C7 1_555 1_555
C8 C6 1_555 1_555
C9 H4 1_555 1_555
H5 C9 1_555 1_555
C10 C9 1_555 1_555
C11 H7 1_555 1_555
C12 C11 1_555 1_555
H8 C12 1_555 1_555
N1 C4 1_555 1_555
N2 C10 1_555 1_555
O3 C8 1_555 1_555
O4 C8 1_555 1_555
Co3 N2 1_555 1_555
Co4 O3 1_555 1_555
Co5 O4 1_555 1_555
C6 C7 1_555 1_555
C10 N1 1_555 1_555
C11 N2 1_555 1_555
C12 N1 1_555 1_555
Co4 Co5 1_555 1_555
N3 Co1 1_555 1_555
O5 Co1 1_555 1_555
O6 Co1 1_555 1_555
C9_2 H4_2 1_555 1_555
H6 C9_2 1_555 1_555
C10_2 C9_2 1_555 1_555
C11_2 H7_2 1_555 1_555
C12_2 C11_2 1_555 1_555
H8_2 C12_2 1_555 1_555
N2_2 C10_2 1_555 1_555
Co4 N2_2 1_555 1_555
C10_2 N1_2 1_555 1_555
C11_2 N2_2 1_555 1_555
C12_2 N1_2 1_555 1_555
C1_2 C2_2 1_555 1_555
C2_2 C3_2 1_555 1_555
C3_2 H1_2 1_555 1_555
C4_2 C3_2 1_555 1_555
C5_2 C4_2 1_555 1_555
H2_2 C5_2 1_555 1_555
C6_2 C5_2 1_555 1_555
C7_2 C2_2 1_555 1_555
H3_2 C7_2 1_555 1_555
C8_2 C6_2 1_555 1_555
Co1_2 O1_2 1_555 1_555
O1_2 C1_2 1_555 1_555
O2_2 C1_2 1_555 1_555
O3_2 C8_2 1_555 1_555
O4_2 C8_2 1_555 1_555
Co2_2 Co1_2 1_555 1_555
Co3 O3_2 1_555 1_555
N3_2 Co1_2 1_555 1_555
O5_2 Co1_2 1_555 1_555
O6_2 Co1_2 1_555 1_555
O7_2 Co1_2 1_555 1_555
C6_2 C7_2 1_555 1_555
O2_2 Co2_2 1_555 1_555
N3_3 Co2 1_555 1_555
O6_3 Co2 1_555 1_555
O1_3 C1_3 1_555 1_555
O5 C1_3 1_555 1_555
C2_3 C3_3 1_555 1_555
C3_3 H1_3 1_555 1_555
C4_3 C3_3 1_555 1_555
C5_3 C4_3 1_555 1_555
H2_3 C5_3 1_555 1_555
C6_3 C5_3 1_555 1_555
C7_3 C2_3 1_555 1_555
H3_3 C7_3 1_555 1_555
C8_3 C6_3 1_555 1_555
O3_3 C8_3 1_555 1_555
O4_3 C8_3 1_555 1_555
Co5 O3_3 1_555 1_555
Co4 O4_3 1_555 1_555
C6_3 C7_3 1_555 1_555
C9_3 H4_3 1_555 1_555
C10_3 C9_3 1_555 1_555
C11_3 H7_3 1_555 1_555
C12_3 C11_3 1_555 1_555
H8_3 C12_3 1_555 1_555
N2_3 C10_3 1_555 1_555
Co5_2 N2_3 1_555 1_555
C10_3 N1_3 1_555 1_555
C11_3 N2_3 1_555 1_555
C12_3 N1_3 1_555 1_555
C1_4 C2_4 1_555 1_555
C2_4 C3_4 1_555 1_555
C3_4 H1_4 1_555 1_555
C4_4 C3_4 1_555 1_555
C5_4 C4_4 1_555 1_555
H2_4 C5_4 1_555 1_555
C6_4 C5_4 1_555 1_555
C7_4 C2_4 1_555 1_555
H3_4 C7_4 1_555 1_555
C8_4 C6_4 1_555 1_555
C9_4 H4_4 1_555 1_555
H5_4 C9_4 1_555 1_555
H6_2 C9_4 1_555 1_555
C10_4 C9_4 1_555 1_555
C11_4 H7_4 1_555 1_555
C12_4 C11_4 1_555 1_555
H8_4 C12_4 1_555 1_555
Co2_2 O1_4 1_555 1_555
N1_4 C4_4 1_555 1_555
N2_4 C10_4 1_555 1_555
O1_4 C1_4 1_555 1_555
O5_2 C1_4 1_555 1_555
O3_4 C8_4 1_555 1_555
O4_4 C8_4 1_555 1_555
Co5 N2_4 1_555 1_555
Co5_2 O3_4 1_555 1_555
N3_4 Co2_2 1_555 1_555
O6_4 Co2_2 1_555 1_555
O7_4 Co2_2 1_555 1_555
C6_4 C7_4 1_555 1_555
C10_4 N1_4 1_555 1_555
C11_4 N2_4 1_555 1_555
C12_4 N1_4 1_555 1_555
O5_3 Co3 1_555 1_555
C2_5 C3_5 1_555 1_555
C3_5 H1_5 1_555 1_555
C4_5 C3_5 1_555 1_555
C5_5 C4_5 1_555 1_555
H2_5 C5_5 1_555 1_555
C6_5 C5_5 1_555 1_555
C7_5 C2_5 1_555 1_555
H3_5 C7_5 1_555 1_555
C8_5 C6_5 1_555 1_555
C9_5 H4_5 1_555 1_555
H5_5 C9_5 1_555 1_555
C10_5 C9_5 1_555 1_555
C11_5 H7_5 1_555 1_555
C12_5 C11_5 1_555 1_555
H8_5 C12_5 1_555 1_555
N1_5 C4_5 1_555 1_555
N3 C10_5 1_555 1_555
O6_2 C8_5 1_555 1_555
O7_4 C8_5 1_555 1_555
C6_5 C7_5 1_555 1_555
C10_5 N1_5 1_555 1_555
C11_5 N3 1_555 1_555
C12_5 N1_5 1_555 1_555
O1_5 C1_5 1_555 1_555
O2_3 C1_5 1_555 1_555
O2_3 Co5_2 1_555 1_555
C1_6 C2_6 1_555 1_555
C2_6 C3_6 1_555 1_555
C3_6 H1_6 1_555 1_555
C4_6 C3_6 1_555 1_555
C5_6 C4_6 1_555 1_555
H2_6 C5_6 1_555 1_555
C6_6 C5_6 1_555 1_555
C7_6 C2_6 1_555 1_555
H3_6 C7_6 1_555 1_555
C8_6 C6_6 1_555 1_555
Co4 O1_6 1_555 1_555
O1_6 C1_6 1_555 1_555
O2_4 C1_6 1_555 1_555
O6 C8_6 1_555 1_555
O7_3 C8_6 1_555 1_555
O5_4 Co4 1_555 1_555
C6_6 C7_6 1_555 1_555
O2_4 Co5 1_555 1_555
C9_6 H4_6 1_555 1_555
H6_3 C9_6 1_555 1_555
C10_6 C9_6 1_555 1_555
C11_6 H7_6 1_555 1_555
C12_6 C11_6 1_555 1_555
H8_6 C12_6 1_555 1_555
N3_2 C10_6 1_555 1_555
C10_6 N1_6 1_555 1_555
C11_6 N3_2 1_555 1_555
C12_6 N1_6 1_555 1_555
C9_7 H4_7 1_555 1_555
C10_7 C9_7 1_555 1_555
C11_7 H7_7 1_555 1_555
C12_7 C11_7 1_555 1_555
H8_7 C12_7 1_555 1_555
N3_3 C10_7 1_555 1_555
C10_7 N1_7 1_555 1_555
C11_7 N3_3 1_555 1_555
C12_7 N1_7 1_555 1_555
C2_7 C3_7 1_555 1_555
C3_7 H1_7 1_555 1_555
C4_7 C3_7 1_555 1_555
C5_7 C4_7 1_555 1_555
H2_7 C5_7 1_555 1_555
C6_7 C5_7 1_555 1_555
C7_7 C2_7 1_555 1_555
H3_7 C7_7 1_555 1_555
C8_7 C6_7 1_555 1_555
O6_4 C8_7 1_555 1_555
O7_2 C8_7 1_555 1_555
C6_7 C7_7 1_555 1_555
O1_7 C1_7 1_555 1_555
O5_3 C1_7 1_555 1_555
C1_8 C2_8 1_555 1_555
C2_8 C3_8 1_555 1_555
C3_8 H1_8 1_555 1_555
C4_8 C3_8 1_555 1_555
C5_8 C4_8 1_555 1_555
H2_8 C5_8 1_555 1_555
C6_8 C5_8 1_555 1_555
C7_8 C2_8 1_555 1_555
H3_8 C7_8 1_555 1_555
C8_8 C6_8 1_555 1_555
C9_8 H4_8 1_555 1_555
H5_8 C9_8 1_555 1_555
H6_4 C9_8 1_555 1_555
C10_8 C9_8 1_555 1_555
C11_8 H7_8 1_555 1_555
C12_8 C11_8 1_555 1_555
H8_8 C12_8 1_555 1_555
Co5 O1_8 1_555 1_555
N1_8 C4_8 1_555 1_555
N3_4 C10_8 1_555 1_555
O1_8 C1_8 1_555 1_555
O5_4 C1_8 1_555 1_555
O6_3 C8_8 1_555 1_555
O7 C8_8 1_555 1_555
C6_8 C7_8 1_555 1_555
C10_8 N1_8 1_555 1_555
C11_8 N3_4 1_555 1_555
C12_8 N1_8 1_555 1_555

#END
