
###############################################################################
#
# This file contains modified crystal structure data generated from the
# MOF subset of the Cambridge Structural Database (CSD) v543 
# hosted by the Cambridge Crystallographic Data Centre (CCDC).
#
# This work is licensed under the Creative Commons
# Attribution-NonCommercial-ShareAlike 4.0 International License.
# To view a copy of this license, visit
# http://creativecommons.org/licenses/by-nc-sa/4.0/
# or send a letter to
# Creative Commons, PO Box 1866, Mountain View, CA 94042, USA.
#
# CIF created using the CSD Python API on 29 September 2022
# The structure has been converted into the P1 space group
# The structure has a 3D framework
# The original CSD entry TEVQAP is in the monoclinic crystal system
# The framework has been calculated to contain at least 10.0% void space
# The void calculation uses a probe of radius 1.32A, grid spacing 0.4
#
###############################################################################

data_TEVQAP
_chemical_formula_moiety         '(C48 H32 N8 O16)n'
_symmetry_cell_setting           triclinic
_symmetry_space_group_name_H-M   'P 1'
_symmetry_Int_Tables_number      1
_space_group_name_Hall           'P 1'
loop_
_symmetry_equiv_pos_site_id
_symmetry_equiv_pos_as_xyz
1 x,y,z
_cell_length_a                   10.9005(10)
_cell_length_b                   11.3760(12)
_cell_length_c                   14.8416(15)
_cell_angle_alpha                90
_cell_angle_beta                 109.352(3)
_cell_angle_gamma                90
_cell_volume                     1736.44
loop_
_atom_site_label
_atom_site_type_symbol
_atom_site_fract_x
_atom_site_fract_y
_atom_site_fract_z
C1 C 0.1280(5) 0.1110(5) 0.1529(4)
C2 C 0.2044(5) 0.1807(5) 0.2395(4)
C3 C 0.1390(5) 0.2511(5) 0.2837(4)
H1 H 0.0486 0.2543 0.2604
C4 C 0.2069(5) 0.3167(5) 0.3623(4)
C5 C 0.3422(5) 0.3154(5) 0.3943(4)
H2 H 0.3891 0.3621 0.4456
C6 C 0.4054(5) 0.2443(5) 0.3491(4)
C7 C 0.3389(5) 0.1765(5) 0.2722(4)
H3 H 0.3832 0.1286 0.2426
C8 C 0.1337(5) 0.3903(5) 0.4128(4)
C9 C 0.6264(5) 0.3318(5) 0.4110(4)
H4 H 0.6002 0.4094 0.4119
C10 C 0.7470(6) 0.1771(5) 0.4237(5)
C11 C 0.6212(6) 0.1415(6) 0.3902(6)
H5 H 0.5915 0.0651 0.3745
N1 N 0.5465(4) 0.2401(4) 0.3837(4)
N2 N 0.7497(4) 0.2952(4) 0.4370(3)
O1 O 0.0210(4) 0.1505(4) 0.1038(3)
O2 O 0.1805(4) 0.0194(4) 0.1364(3)
O3 O 0.0259(4) 0.3522(4) 0.4112(3)
O4 O 0.1861(3) 0.4824(3) 0.4525(3)
C12 C 0.8812(3) 0.1000(3) 0.4516(3)
H6 H 0.8977 0.0648 0.5132
H7 H 0.9524 0.1506 0.4531
H8 H 0.8723 0.0396 0.4047
Co2 Co 0.09801(6) 0.58964(6) 0.52270(5)
Co5 Co 0.90199(6) 0.41036(6) 0.47730(5)
O6 O 0.0259(4) 0.1478(4) 0.9112(3)
Co3 Co 0.09801(6) 0.91036(6) 0.02270(5)
Co1 Co 0.90199(6) 0.08964(6) 0.97730(5)
N3 N 0.7497(4) 0.2048(4) 0.9370(3)
O7 O 0.8139(3) 0.9824(3) 0.0475(3)
O5 O 0.8195(4) 0.9806(4) 0.8636(3)
N3_2 N 0.2503(4) 0.7048(4) 0.5630(3)
O5_2 O 0.1805(4) 0.4806(4) 0.6364(3)
C1_2 C 0.8720(5) 0.6110(5) 0.3471(4)
C2_2 C 0.7956(5) 0.6807(5) 0.2605(4)
C3_2 C 0.8610(5) 0.7511(5) 0.2163(4)
H1_2 H 0.9514 0.7543 0.2396
C4_2 C 0.7931(5) 0.8167(5) 0.1377(4)
C5_2 C 0.6578(5) 0.8154(5) 0.1057(4)
H2_2 H 0.6109 0.8621 0.0544
C6_2 C 0.5946(5) 0.7443(5) 0.1509(4)
C7_2 C 0.6611(5) 0.6765(5) 0.2278(4)
H3_2 H 0.6168 0.6286 0.2574
C8_2 C 0.8663(5) 0.8903(5) 0.0872(4)
C9_2 C 0.3736(5) 0.8318(5) 0.0890(4)
H4_2 H 0.3998 0.9094 0.0881
C10_2 C 0.2530(6) 0.6771(5) 0.0763(5)
C11_2 C 0.3788(6) 0.6415(6) 0.1098(6)
H5_2 H 0.4085 0.5651 0.1255
N1_2 N 0.4535(4) 0.7401(4) 0.1163(4)
N2_2 N 0.2503(4) 0.7952(4) 0.0630(3)
O1_2 O 0.9790(4) 0.6505(4) 0.3962(3)
O2_2 O 0.8195(4) 0.5194(4) 0.3636(3)
O3_2 O 0.9741(4) 0.8522(4) 0.0888(3)
C12_2 C 0.1188(3) 0.6000(3) 0.0484(3)
H7_2 H 0.0476 0.6506 0.0469
H8_2 H 0.1277 0.5396 0.0953
O6_2 O 0.9741(4) 0.6478(4) 0.5888(3)
O7_2 O 0.1861(3) 0.0176(3) 0.9525(3)
C1_3 C 0.8720(5) 0.8890(5) 0.8471(4)
C2_3 C 0.7956(5) 0.8193(5) 0.7605(4)
C3_3 C 0.8610(5) 0.7489(5) 0.7163(4)
H1_3 H 0.9514 0.7457 0.7396
C4_3 C 0.7931(5) 0.6833(5) 0.6377(4)
C5_3 C 0.6578(5) 0.6846(5) 0.6057(4)
H2_3 H 0.6109 0.6379 0.5544
C6_3 C 0.5946(5) 0.7557(5) 0.6509(4)
C7_3 C 0.6611(5) 0.8235(5) 0.7278(4)
H3_3 H 0.6168 0.8714 0.7574
C8_3 C 0.8663(5) 0.6097(5) 0.5872(4)
C9_3 C 0.3736(5) 0.6682(5) 0.5890(4)
H4_3 H 0.3998 0.5906 0.5881
C10_3 C 0.2530(6) 0.8229(5) 0.5763(5)
C11_3 C 0.3788(6) 0.8585(6) 0.6098(6)
H5_3 H 0.4085 0.9349 0.6255
N1_3 N 0.4535(4) 0.7599(4) 0.6163(4)
O1_3 O 0.9790(4) 0.8495(4) 0.8962(3)
O4_2 O 0.8139(3) 0.5176(3) 0.5475(3)
C12_3 C 0.1188(3) 0.9000(3) 0.5484(3)
H6_2 H 0.1023 0.9352 0.4868
H7_3 H 0.0476 0.8494 0.5469
H8_3 H 0.1277 0.9604 0.5953
C1_4 C 0.1280(5) 0.3890(5) 0.6529(4)
C2_4 C 0.2044(5) 0.3193(5) 0.7395(4)
C3_4 C 0.1390(5) 0.2489(5) 0.7837(4)
H1_4 H 0.0486 0.2457 0.7604
C4_4 C 0.2069(5) 0.1833(5) 0.8623(4)
C5_4 C 0.3422(5) 0.1846(5) 0.8943(4)
H2_4 H 0.3891 0.1379 0.9456
C6_4 C 0.4054(5) 0.2557(5) 0.8491(4)
C7_4 C 0.3389(5) 0.3235(5) 0.7722(4)
H3_4 H 0.3832 0.3714 0.7426
C8_4 C 0.1337(5) 0.1097(5) 0.9128(4)
C9_4 C 0.6264(5) 0.1682(5) 0.9110(4)
H4_4 H 0.6002 0.0906 0.9119
C10_4 C 0.7470(6) 0.3229(5) 0.9237(5)
C11_4 C 0.6212(6) 0.3585(6) 0.8902(6)
H5_4 H 0.5915 0.4349 0.8745
N1_4 N 0.5465(4) 0.2599(4) 0.8837(4)
O1_4 O 0.0210(4) 0.3495(4) 0.6038(3)
C12_4 C 0.8812(3) 0.4000(3) 0.9516(3)
H7_4 H 0.9524 0.3494 0.9531
H8_4 H 0.8723 0.4604 0.9047
H6_3 H 0.1023 0.5648 0.9868
H6_4 H 0.8977 0.4352 0.0132
loop_
_geom_bond_atom_site_label_1
_geom_bond_atom_site_label_2
_geom_bond_site_symmetry_1
_geom_bond_site_symmetry_2
C1 C2 1_555 1_555
C2 C3 1_555 1_555
C3 H1 1_555 1_555
C4 C3 1_555 1_555
C5 C4 1_555 1_555
H2 C5 1_555 1_555
C6 C5 1_555 1_555
C7 C2 1_555 1_555
H3 C7 1_555 1_555
C8 C4 1_555 1_555
C9 H4 1_555 1_555
C10 C11 1_555 1_555
C11 H5 1_555 1_555
N1 C6 1_555 1_555
N2 C9 1_555 1_555
O1 C1 1_555 1_555
O2 C1 1_555 1_555
O3 C8 1_555 1_555
O4 C8 1_555 1_555
C12 C10 1_555 1_555
H6 C12 1_555 1_555
H7 C12 1_555 1_555
H8 C12 1_555 1_555
Co2 O4 1_555 1_555
Co5 N2 1_555 1_555
C6 C7 1_555 1_555
C9 N1 1_555 1_555
C10 N2 1_555 1_555
C11 N1 1_555 1_555
N3 Co1 1_555 1_555
N3_2 Co2 1_555 1_555
O5_2 Co2 1_555 1_555
C1_2 C2_2 1_555 1_555
C2_2 C3_2 1_555 1_555
C3_2 H1_2 1_555 1_555
C4_2 C3_2 1_555 1_555
C5_2 C4_2 1_555 1_555
H2_2 C5_2 1_555 1_555
C6_2 C5_2 1_555 1_555
C7_2 C2_2 1_555 1_555
H3_2 C7_2 1_555 1_555
C8_2 C4_2 1_555 1_555
C9_2 H4_2 1_555 1_555
C10_2 C11_2 1_555 1_555
C11_2 H5_2 1_555 1_555
N1_2 C6_2 1_555 1_555
N2_2 C9_2 1_555 1_555
O1_2 C1_2 1_555 1_555
O2_2 C1_2 1_555 1_555
O3_2 C8_2 1_555 1_555
O7 C8_2 1_555 1_555
C12_2 C10_2 1_555 1_555
H7_2 C12_2 1_555 1_555
H8_2 C12_2 1_555 1_555
Co3 N2_2 1_555 1_555
C6_2 C7_2 1_555 1_555
C9_2 N1_2 1_555 1_555
C10_2 N2_2 1_555 1_555
C11_2 N1_2 1_555 1_555
O2_2 Co5 1_555 1_555
C1_3 C2_3 1_555 1_555
C2_3 C3_3 1_555 1_555
C3_3 H1_3 1_555 1_555
C4_3 C3_3 1_555 1_555
C5_3 C4_3 1_555 1_555
H2_3 C5_3 1_555 1_555
C6_3 C5_3 1_555 1_555
C7_3 C2_3 1_555 1_555
H3_3 C7_3 1_555 1_555
C8_3 C4_3 1_555 1_555
C9_3 H4_3 1_555 1_555
C10_3 C11_3 1_555 1_555
C11_3 H5_3 1_555 1_555
N1_3 C6_3 1_555 1_555
N3_2 C9_3 1_555 1_555
O1_3 C1_3 1_555 1_555
O5 C1_3 1_555 1_555
O6_2 C8_3 1_555 1_555
O4_2 C8_3 1_555 1_555
C12_3 C10_3 1_555 1_555
H6_2 C12_3 1_555 1_555
H7_3 C12_3 1_555 1_555
H8_3 C12_3 1_555 1_555
Co5 O4_2 1_555 1_555
C6_3 C7_3 1_555 1_555
C9_3 N1_3 1_555 1_555
C10_3 N3_2 1_555 1_555
C11_3 N1_3 1_555 1_555
C1_4 C2_4 1_555 1_555
C2_4 C3_4 1_555 1_555
C3_4 H1_4 1_555 1_555
C4_4 C3_4 1_555 1_555
C5_4 C4_4 1_555 1_555
H2_4 C5_4 1_555 1_555
C6_4 C5_4 1_555 1_555
C7_4 C2_4 1_555 1_555
H3_4 C7_4 1_555 1_555
C8_4 C4_4 1_555 1_555
C9_4 H4_4 1_555 1_555
C10_4 C11_4 1_555 1_555
C11_4 H5_4 1_555 1_555
N1_4 C6_4 1_555 1_555
N3 C9_4 1_555 1_555
O1_4 C1_4 1_555 1_555
O5_2 C1_4 1_555 1_555
O6 C8_4 1_555 1_555
O7_2 C8_4 1_555 1_555
C12_4 C10_4 1_555 1_555
H7_4 C12_4 1_555 1_555
H8_4 C12_4 1_555 1_555
C6_4 C7_4 1_555 1_555
C9_4 N1_4 1_555 1_555
C10_4 N3 1_555 1_555
C11_4 N1_4 1_555 1_555

#END
