
###############################################################################
#
# This file contains modified crystal structure data generated from the
# MOF subset of the Cambridge Structural Database (CSD) v543 
# hosted by the Cambridge Crystallographic Data Centre (CCDC).
#
# This work is licensed under the Creative Commons
# Attribution-NonCommercial-ShareAlike 4.0 International License.
# To view a copy of this license, visit
# http://creativecommons.org/licenses/by-nc-sa/4.0/
# or send a letter to
# Creative Commons, PO Box 1866, Mountain View, CA 94042, USA.
#
# CIF created using the CSD Python API on 29 September 2022
# The structure has been converted into the P1 space group
# The structure has a 3D framework
# The original CSD entry TEVZEA is in the monoclinic crystal system
# The framework has been calculated to contain at least 10.0% void space
# The void calculation uses a probe of radius 1.32A, grid spacing 0.4
#
###############################################################################

data_TEVZEA
_chemical_formula_moiety         '(C24 H24 O48 Zn21)n'
_symmetry_cell_setting           triclinic
_symmetry_space_group_name_H-M   'P 1'
_symmetry_Int_Tables_number      1
_space_group_name_Hall           'P 1'
loop_
_symmetry_equiv_pos_site_id
_symmetry_equiv_pos_as_xyz
1 x,y,z
_cell_length_a                   11.2177(2)
_cell_length_b                   9.7505(2)
_cell_length_c                   18.0328(4)
_cell_angle_alpha                90
_cell_angle_beta                 127.1670(10)
_cell_angle_gamma                90
_cell_volume                     1571.76
loop_
_atom_site_label
_atom_site_type_symbol
_atom_site_fract_x
_atom_site_fract_y
_atom_site_fract_z
Zn13 Zn -0.0000 0.0000 0.0000
Zn13_2 Zn -0.0000 0.0000 1.0000
Zn13_3 Zn -0.0000 1.0000 0.0000
Zn14 Zn 0.0000 0.5000 0.5000
Zn13_4 Zn -0.0000 1.0000 1.0000
Zn1 Zn 0.37514(4) 0.08105(4) 0.13186(2)
Zn3 Zn 0.5000 0.0000 0.0000
O1 O 0.4326(2) 0.2050(2) 0.24491(14)
O2 O 0.5567(2) 0.0688(2) 0.37100(15)
O4 O 0.6859(3) 0.0094(2) 0.14169(15)
O5 O 0.4562(2) 0.2594(2) 0.10900(14)
O11 O 0.1607(2) 0.1587(2) 0.05672(15)
O12 O 0.1986(2) 0.3850(2) 0.08618(15)
C1 C 0.5000(3) 0.1790(4) 0.3313(2)
H1 H 0.5070 0.2521 0.3686
C3 C 0.4679(4) 0.2921(4) 0.0447(2)
H3 H 0.4740 0.3869 0.0354
C6 C 0.1181(4) 0.2831(4) 0.0449(2)
Zn9 Zn 0.42540(4) 0.39678(4) 0.18520(2)
Zn13_5 Zn 1.0000 0.0000 0.0000
O28 O 0.8816(2) 0.1232(2) 0.03014(15)
C11 C 0.7693(4) 0.1126(4) 0.0267(2)
H11 H 0.7623 0.1721 0.0656
Zn3_2 Zn 0.5000 0.0000 1.0000
O6 O 0.4719(2) 0.2101(2) 0.99389(15)
H6 H 0.0141 0.2998 0.9999
Zn8 Zn 0.42540(4) 0.10322(4) 0.68520(2)
Zn13_6 Zn 1.0000 0.0000 1.0000
O15 O 0.4326(2) 0.2950(2) 0.74491(14)
O18 O 0.4076(2) 0.0005(2) 0.77904(15)
O22 O 0.4562(2) 0.2406(2) 0.60900(14)
O25 O 0.6552(2) 0.0795(2) 0.80314(14)
O27 O 0.6604(2) 0.0287(2) 0.97545(15)
O34 O 0.1986(2) 0.1150(2) 0.58618(15)
C8 C 0.3028(4) 0.0055(4) 0.7867(2)
H8 H 0.2052 0.0225 0.7313
Zn2 Zn 0.57460(4) 0.89678(4) 0.31480(2)
Zn3_3 Zn 0.5000 1.0000 0.0000
O3 O 0.5924(2) 0.9995(2) 0.22096(15)
O7 O 0.3448(2) 0.9205(2) 0.19686(14)
O8 O 0.0992(2) 0.9061(2) 0.12759(15)
O9 O 0.3396(2) 0.9713(2) 0.02455(15)
C2 C 0.6972(4) 0.9945(4) 0.2133(2)
H2 H 0.7948 0.9775 0.2687
C4 C 0.2313(4) 0.8804(4) 0.1913(2)
H4 H 0.2504 0.8256 0.2410
Zn6 Zn 0.62486(4) 0.58105(4) 0.36814(2)
Zn13_7 Zn 1.0000 1.0000 0.0000
Zn14_2 Zn 1.0000 0.5000 0.5000
O13 O 0.5674(2) 0.7050(2) 0.25509(14)
O16 O 0.4433(2) 0.5688(2) 0.12900(15)
O21 O 0.5438(2) 0.7594(2) 0.39100(14)
O23 O 0.5281(2) 0.7899(2) 0.00611(15)
O30 O 0.8393(2) 0.6587(2) 0.44328(15)
O33 O 0.8014(2) 0.8850(2) 0.41382(15)
C7 C 0.5000(3) 0.6790(4) 0.1687(2)
H7 H 0.4930 0.7521 0.1314
C12 C 0.8819(4) 0.7831(4) 0.4551(2)
H12 H 0.9859 0.7998 0.5001
Zn3_4 Zn 0.5000 1.0000 1.0000
O10 O 0.1184(2) 0.8768(2) 0.96986(15)
C5 C 0.2307(4) 0.8874(4) 0.9733(2)
H5 H 0.2377 0.8279 0.9344
Zn5 Zn 0.62486(4) 0.91895(4) 0.86814(2)
Zn10 Zn 0.57460(4) 0.60322(4) 0.81480(2)
Zn13_8 Zn 1.0000 1.0000 1.0000
O14 O 0.5674(2) 0.7950(2) 0.75509(14)
O17 O 0.4433(2) 0.9312(2) 0.62900(15)
O19 O 0.3141(3) 0.9906(2) 0.85831(15)
O20 O 0.5438(2) 0.7406(2) 0.89100(14)
O32 O 0.8393(2) 0.8413(2) 0.94328(15)
C9 C 0.5321(4) 0.7079(4) 0.9553(2)
H9 H 0.5260 0.6131 0.9646
O26 O 0.9008(2) 0.0939(2) 0.87241(15)
C10 C 0.7687(4) 0.1196(4) 0.8087(2)
H10 H 0.7496 0.1744 0.7590
Zn7 Zn 0.37514(4) 0.41895(4) 0.63186(2)
O24 O 0.3448(2) 0.5795(2) 0.69686(14)
O26_2 O 0.0992(2) 0.5939(2) 0.62759(15)
O29 O 0.1184(2) 0.6232(2) 0.46986(15)
O31 O 0.1607(2) 0.3413(2) 0.55672(15)
C10_2 C 0.2313(4) 0.6196(4) 0.6913(2)
H10_2 H 0.2504 0.6744 0.7410
Zn3_5 Zn 0.5000 0.5000 0.5000
O3_2 O 0.4076(2) 0.4995(2) 0.27904(15)
O4_2 O 0.3141(3) 0.5094(2) 0.35831(15)
O6_2 O 0.5281(2) 0.7101(2) 0.50611(15)
O7_2 O 0.6552(2) 0.4205(2) 0.30314(14)
O8_2 O 0.9008(2) 0.4061(2) 0.37241(15)
O9_2 O 0.6604(2) 0.4713(2) 0.47545(15)
O10_2 O 0.8816(2) 0.3768(2) 0.53014(15)
C2_2 C 0.3028(4) 0.4945(4) 0.2867(2)
H2_2 H 0.2052 0.4775 0.2313
C3_2 C 0.5321(4) 0.7921(4) 0.4553(2)
H3_2 H 0.5260 0.8869 0.4646
C4_2 C 0.7687(4) 0.3804(4) 0.3087(2)
H4_2 H 0.7496 0.3256 0.2590
C5_2 C 0.7693(4) 0.3874(4) 0.5267(2)
H5_2 H 0.7623 0.3279 0.5656
O17_2 O 0.5567(2) 0.4312(2) 0.87100(15)
O18_2 O 0.5924(2) 0.5005(2) 0.72096(15)
O19_2 O 0.6859(3) 0.4906(2) 0.64169(15)
O23_2 O 0.4719(2) 0.2899(2) 0.49389(15)
O27_2 O 0.3396(2) 0.5287(2) 0.52455(15)
O34_2 O 0.8014(2) 0.6150(2) 0.91382(15)
C8_2 C 0.6972(4) 0.5055(4) 0.7133(2)
H8_2 H 0.7948 0.5225 0.7687
C9_2 C 0.4679(4) 0.2079(4) 0.5447(2)
H9_2 H 0.4740 0.1131 0.5354
C11_2 C 0.2307(4) 0.6126(4) 0.4733(2)
H11_2 H 0.2377 0.6721 0.4344
C7_2 C 0.5000(3) 0.3210(4) 0.8313(2)
H7_2 H 0.5070 0.2479 0.8686
C12_2 C 0.1181(4) 0.2169(4) 0.5449(2)
H12_2 H 0.0141 0.2002 0.4999
H6_2 H 0.9859 0.7002 0.0001
C1_2 C 0.5000(3) 0.8210(4) 0.6687(2)
H1_2 H 0.4930 0.7479 0.6314
C6_2 C 0.8819(4) 0.7169(4) 0.9551(2)
loop_
_geom_bond_atom_site_label_1
_geom_bond_atom_site_label_2
_geom_bond_site_symmetry_1
_geom_bond_site_symmetry_2
Zn1 O1 1_555 1_555
Zn3 O4 1_555 1_555
O1 C1 1_555 1_555
O2 C1 1_555 1_555
O5 Zn1 1_555 1_555
O11 Zn1 1_555 1_555
O12 C6 1_555 1_555
C1 H1 1_555 1_555
C3 O5 1_555 1_555
H3 C3 1_555 1_555
C6 O11 1_555 1_555
Zn9 O1 1_555 1_555
Zn13_5 O28 1_555 1_555
O28 C11 1_555 1_555
H11 C11 1_555 1_555
Zn13 O11 1_555 1_555
O5 Zn9 1_555 1_555
O12 Zn9 1_555 1_555
O6 Zn3_2 1_555 1_555
Zn8 O15 1_555 1_555
O22 Zn8 1_555 1_555
O27 Zn3_2 1_555 1_555
O34 Zn8 1_555 1_555
C8 O18 1_555 1_555
H8 C8 1_555 1_555
Zn8 O18 1_555 1_555
Zn8 O25 1_555 1_555
Zn13_3 O8 1_555 1_555
O8 C4 1_555 1_555
C2 O3 1_555 1_555
H2 C2 1_555 1_555
C4 O7 1_555 1_555
H4 C4 1_555 1_555
Zn6 O13 1_555 1_555
Zn9 O16 1_555 1_555
Zn14_2 O30 1_555 1_555
O13 Zn2 1_555 1_555
O16 C7 1_555 1_555
O21 Zn2 1_555 1_555
O23 Zn3_3 1_555 1_555
O30 Zn6 1_555 1_555
O33 Zn2 1_555 1_555
C7 O13 1_555 1_555
H7 C7 1_555 1_555
C12 O30 1_555 1_555
H12 C12 1_555 1_555
Zn2 O3 1_555 1_555
Zn2 O7 1_555 1_555
Zn3_3 O9 1_555 1_555
Zn6 O21 1_555 1_555
O33 C12 1_555 1_555
O10 Zn13_4 1_555 1_555
H5 C5 1_555 1_555
Zn5 O14 1_555 1_555
Zn10 O14 1_555 1_555
O19 Zn3_4 1_555 1_555
O20 Zn5 1_555 1_555
O32 Zn5 1_555 1_555
C9 O20 1_555 1_555
H9 C9 1_555 1_555
O10 C5 1_555 1_555
Zn10 O20 1_555 1_555
Zn13_8 O32 1_555 1_555
O25 C10 1_555 1_555
O26 Zn13_6 1_555 1_555
C10 O26 1_555 1_555
H10 C10 1_555 1_555
Zn7 O24 1_555 1_555
Zn10 O24 1_555 1_555
O24 C10_2 1_555 1_555
O26_2 Zn14 1_555 1_555
O29 Zn14 1_555 1_555
O31 Zn14 1_555 1_555
C10_2 O26_2 1_555 1_555
H10_2 C10_2 1_555 1_555
Zn7 O31 1_555 1_555
Zn3_5 O4_2 1_555 1_555
Zn14_2 O8_2 1_555 1_555
O3_2 Zn6 1_555 1_555
O4_2 C2_2 1_555 1_555
O6_2 Zn3_5 1_555 1_555
O7_2 Zn6 1_555 1_555
O8_2 C4_2 1_555 1_555
O9_2 Zn6 1_555 1_555
O10_2 Zn14_2 1_555 1_555
C2_2 O3_2 1_555 1_555
H2_2 C2_2 1_555 1_555
C3_2 O21 1_555 1_555
H3_2 C3_2 1_555 1_555
C4_2 O7_2 1_555 1_555
H4_2 C4_2 1_555 1_555
C5_2 O9_2 1_555 1_555
H5_2 C5_2 1_555 1_555
Zn7 O15 1_555 1_555
O17_2 Zn10 1_555 1_555
O18_2 Zn7 1_555 1_555
O19_2 Zn3_5 1_555 1_555
O22 Zn7 1_555 1_555
O23_2 Zn3_5 1_555 1_555
O27_2 Zn3_5 1_555 1_555
O29 C11_2 1_555 1_555
O34_2 Zn10 1_555 1_555
C8_2 O18_2 1_555 1_555
H8_2 C8_2 1_555 1_555
C9_2 O22 1_555 1_555
H9_2 C9_2 1_555 1_555
C11_2 O27_2 1_555 1_555
H11_2 C11_2 1_555 1_555
Zn9 O3_2 1_555 1_555
Zn9 O7_2 1_555 1_555
Zn3_5 O9_2 1_555 1_555
O6_2 C3_2 1_555 1_555
O10_2 C5_2 1_555 1_555
Zn7 O27_2 1_555 1_555
Zn10 O18_2 1_555 1_555
O19_2 C8_2 1_555 1_555
O23_2 C9_2 1_555 1_555
O17_2 C7_2 1_555 1_555
C7_2 O15 1_555 1_555
H7_2 C7_2 1_555 1_555
C12_2 O31 1_555 1_555
H12_2 C12_2 1_555 1_555
O34 C12_2 1_555 1_555
O14 C1_2 1_555 1_555
O17 C1_2 1_555 1_555
O34_2 C6_2 1_555 1_555
C1_2 H1_2 1_555 1_555
C6_2 O32 1_555 1_555

#END
