
###############################################################################
#
# This file contains modified crystal structure data generated from the
# MOF subset of the Cambridge Structural Database (CSD) v543 
# hosted by the Cambridge Crystallographic Data Centre (CCDC).
#
# This work is licensed under the Creative Commons
# Attribution-NonCommercial-ShareAlike 4.0 International License.
# To view a copy of this license, visit
# http://creativecommons.org/licenses/by-nc-sa/4.0/
# or send a letter to
# Creative Commons, PO Box 1866, Mountain View, CA 94042, USA.
#
# CIF created using the CSD Python API on 29 September 2022
# The structure has been converted into the P1 space group
# The structure has a 3D framework
# The original CSD entry TEWSUM is in the hexagonal crystal system
# The original CSD entry TEWSUM is in a Sohncke space group
# The framework has been calculated to contain at least 10.0% void space
# The void calculation uses a probe of radius 1.32A, grid spacing 0.4
# H atom positions have been added when not included in the experimental data
#
###############################################################################

data_TEWSUM
_chemical_formula_moiety         '(C72 H96 Ca2 Cu12 N12 O38 S12)n'
_symmetry_cell_setting           triclinic
_symmetry_space_group_name_H-M   'P 1'
_symmetry_Int_Tables_number      1
_space_group_name_Hall           'P 1'
loop_
_symmetry_equiv_pos_site_id
_symmetry_equiv_pos_as_xyz
1 x,y,z
_cell_length_a                   18.7510(3)
_cell_length_b                   18.7510(3)
_cell_length_c                   13.6077(5)
_cell_angle_alpha                90
_cell_angle_beta                 90
_cell_angle_gamma                120
_cell_volume                     4143.47
loop_
_atom_site_label
_atom_site_type_symbol
_atom_site_fract_x
_atom_site_fract_y
_atom_site_fract_z
O16 O 0.2367(8) 0.5611(6) 0.2152(9)
O18 O 0.0208(8) 0.5749(6) 0.2256(9)
N6 N 0.0943(13) 0.4929(9) 0.3149(9)
C26 C 0.2316(12) 0.5063(9) 0.2848(12)
C27 C 0.1478(12) 0.4550(9) 0.3337(11)
H31 H 0.1597 0.4626 0.4058
C30 C 0.0189(11) 0.4742(7) 0.3550(9)
O20 O 0.2941(11) 0.4941(9) 0.3054(10)
C31 C 0.1064(21) 0.3617(13) 0.3174(19)
H33 H 0.1420 0.3413 0.3439
H34 H 0.0535 0.3339 0.3536
S5 S 0.152(4) 0.349(3) 0.101(4)
C32 C 0.091(4) 0.341(3) 0.212(2)
H35 H 0.0604 0.3687 0.1913
H36 H 0.0490 0.2813 0.2132
C35 C 0.081(9) 0.279(6) 0.005(8)
H43 H 0.0254 0.2466 0.0329
Cu8 Cu 0.41961(9) 0.55607(10) 0.20968(12)
Cu12 Cu 0.13646(13) 0.58039(9) 0.20968(12)
Ca4 Ca 0.3333 0.6667 0.0796(5)
Cu1 Cu 0.58039(9) 0.44393(10) 0.70968(12)
Cu2 Cu 0.58371(9) 0.44707(9) 0.44997(10)
Ca1 Ca 0.6667 0.3333 0.5796(5)
O1 O 0.6417(4) 0.4654(4) 0.5823(10)
O2 O 0.4389(6) 0.6756(6) 0.2152(9)
N1 N 0.5626(6) 0.3253(6) 0.4491(10)
O3 O 0.5754(8) 0.5571(7) 0.4286(9)
O4 O 0.4251(6) 0.4459(6) 0.2256(9)
N2 N 0.5071(9) 0.6014(9) 0.3149(9)
O5 O 0.5023(8) 0.4056(8) 0.3375(12)
C1 C 0.5079(13) 0.2742(13) 0.3813(16)
C2 C 0.4937(9) 0.7253(8) 0.2848(12)
C3 C 0.5450(9) 0.6928(8) 0.3337(11)
H1 H 0.5374 0.6971 0.4058
C4 C 0.4663(12) 0.3139(10) 0.2935(12)
H2 H 0.4047 0.2825 0.2939
C5 C 0.4797(12) 0.4576(13) 0.2985(18)
C6 C 0.5258(7) 0.5447(8) 0.3550(9)
O6 O 0.5059(9) 0.8000(7) 0.3054(10)
O7 O 0.4850(8) 0.1976(7) 0.3698(9)
C7 C 0.6383(13) 0.7447(16) 0.3174(19)
H3 H 0.6587 0.8007 0.3439
H4 H 0.6661 0.7196 0.3536
S1 S 0.651(3) 0.803(3) 0.101(4)
S2 S 0.5963(14) 0.2417(15) 0.0362(18)
C8 C 0.659(3) 0.750(3) 0.212(2)
H5 H 0.6313 0.6917 0.1913
H6 H 0.7187 0.7677 0.2132
C9 C 0.502(3) 0.307(3) 0.192(2)
H7 H 0.4638 0.3097 0.1441
H8 H 0.5536 0.3602 0.1863
C10 C 0.524(2) 0.245(2) 0.143(3)
H9 H 0.4691 0.1996 0.1241
H10 H 0.5404 0.2244 0.2004
C11 C 0.721(6) 0.802(7) 0.005(8)
H13 H 0.7534 0.7788 0.0329
Cu3 Cu 0.55607(10) 0.13646(13) 0.70968(12)
Cu4 Cu 0.55293(9) 0.13664(13) 0.44997(10)
O8 O 0.5346(4) 0.1763(6) 0.5823(10)
N3 N 0.6747(6) 0.2373(8) 0.4491(10)
O10 O 0.4429(7) 0.0183(11) 0.4286(9)
O12 O 0.5944(8) 0.0967(11) 0.3375(12)
C13 C 0.7258(13) 0.2337(18) 0.3813(16)
C16 C 0.6861(10) 0.1524(16) 0.2935(12)
H17 H 0.7175 0.1222 0.2939
C17 C 0.5424(13) 0.0221(18) 0.2985(18)
O14 O 0.8024(7) 0.2874(11) 0.3698(9)
S4 S 0.7583(15) 0.3546(21) 0.0362(18)
C21 C 0.693(3) 0.195(4) 0.192(2)
H22 H 0.6903 0.1541 0.1441
H23 H 0.6398 0.1934 0.1863
C22 C 0.755(2) 0.279(3) 0.143(3)
H24 H 0.8004 0.2695 0.1241
H25 H 0.7756 0.3160 0.2004
Cu5 Cu 0.86354(13) 0.41961(9) 0.70968(12)
Cu6 Cu 0.86336(13) 0.41629(9) 0.44997(10)
O15 O 0.8237(6) 0.3583(4) 0.5823(10)
N5 N 0.7627(8) 0.4374(6) 0.4491(10)
O17 O 0.9817(11) 0.4246(8) 0.4286(9)
O19 O 0.9033(11) 0.4977(8) 0.3375(12)
C25 C 0.7663(18) 0.4921(13) 0.3813(16)
C28 C 0.8476(16) 0.5337(12) 0.2935(12)
H32 H 0.8778 0.5953 0.2939
C29 C 0.9779(18) 0.5203(12) 0.2985(18)
O21 O 0.7126(11) 0.5150(8) 0.3698(9)
S6 S 0.6454(21) 0.4037(14) 0.0362(18)
C33 C 0.805(4) 0.498(3) 0.192(2)
H37 H 0.8459 0.5362 0.1441
H38 H 0.8066 0.4464 0.1863
C34 C 0.721(3) 0.476(2) 0.143(3)
H39 H 0.7305 0.5309 0.1241
H40 H 0.6840 0.4596 0.2004
Cu10 Cu 0.44393(10) 0.86354(13) 0.20968(12)
O22 O 0.5611(6) 0.3244(6) 0.7152(9)
O23 O 0.6756(6) 0.2367(8) 0.7152(9)
O24 O 0.7633(8) 0.4389(6) 0.7152(9)
O25 O 0.5749(6) 0.5541(6) 0.7256(9)
O26 O 0.4459(6) 0.0208(8) 0.7256(9)
O27 O 0.9792(8) 0.4251(6) 0.7256(9)
N7 N 0.4929(9) 0.3986(9) 0.8149(9)
N8 N 0.6014(9) 0.0943(13) 0.8149(9)
N9 N 0.9057(13) 0.5071(9) 0.8149(9)
O28 O 0.4941(9) 0.2000(7) 0.8054(10)
O29 O 0.8000(7) 0.2941(11) 0.8054(10)
O30 O 0.7059(11) 0.5059(9) 0.8054(10)
O9 O 0.3244(6) 0.7633(8) 0.2152(9)
O11 O 0.5541(6) 0.9792(8) 0.2256(9)
N4 N 0.3986(9) 0.9057(13) 0.3149(9)
C14 C 0.2747(8) 0.7684(12) 0.2848(12)
C15 C 0.3072(8) 0.8522(12) 0.3337(11)
H16 H 0.3029 0.8403 0.4058
C18 C 0.4553(8) 0.9811(11) 0.3550(9)
O13 O 0.2000(7) 0.7059(11) 0.3054(10)
C19 C 0.2553(16) 0.8936(21) 0.3174(19)
H18 H 0.1993 0.8580 0.3439
H19 H 0.2804 0.9465 0.3536
S3 S 0.197(3) 0.848(4) 0.101(4)
C20 C 0.250(3) 0.909(4) 0.212(2)
H20 H 0.3083 0.9396 0.1913
H21 H 0.2323 0.9510 0.2132
C23 C 0.198(7) 0.919(9) 0.005(8)
H28 H 0.2212 0.9746 0.0329
C14_2 C 0.7253(8) 0.2316(12) 0.7848(12)
C15_2 C 0.6928(8) 0.1478(12) 0.8337(11)
H16_2 H 0.6971 0.1597 0.9058
C18_2 C 0.5447(8) 0.0189(11) 0.8550(9)
C19_2 C 0.7447(16) 0.1064(21) 0.8174(19)
H18_2 H 0.8007 0.1420 0.8439
H19_2 H 0.7196 0.0535 0.8536
S3_2 S 0.803(3) 0.152(4) 0.601(4)
C20_2 C 0.750(3) 0.091(4) 0.712(2)
H20_2 H 0.6917 0.0604 0.6913
H21_2 H 0.7677 0.0490 0.7132
C23_2 C 0.802(7) 0.081(9) 0.505(8)
H26 H 0.8589 0.0999 0.4837
H27 H 0.7692 0.0801 0.4493
H28_2 H 0.7788 0.0254 0.5329
O1_2 O 0.3583(4) 0.5346(4) 0.0823(10)
O8_2 O 0.4654(4) 0.8237(6) 0.0823(10)
O15_2 O 0.1763(6) 0.6417(4) 0.0823(10)
Cu2_2 Cu 0.41629(9) 0.55293(9) 0.94997(10)
N1_2 N 0.4374(6) 0.6747(6) 0.9491(10)
O3_2 O 0.4246(8) 0.4429(7) 0.9286(9)
O5_2 O 0.4977(8) 0.5944(8) 0.8375(12)
C1_2 C 0.4921(13) 0.7258(13) 0.8813(16)
C2_2 C 0.5063(9) 0.2747(8) 0.7848(12)
C3_2 C 0.4550(9) 0.3072(8) 0.8337(11)
H1_2 H 0.4626 0.3029 0.9058
C4_2 C 0.5337(12) 0.6861(10) 0.7935(12)
H2_2 H 0.5953 0.7175 0.7939
C5_2 C 0.5203(12) 0.5424(13) 0.7985(18)
C6_2 C 0.4742(7) 0.4553(8) 0.8550(9)
O7_2 O 0.5150(8) 0.8024(7) 0.8698(9)
C7_2 C 0.3617(13) 0.2553(16) 0.8174(19)
H3_2 H 0.3413 0.1993 0.8439
H4_2 H 0.3339 0.2804 0.8536
S1_2 S 0.349(3) 0.197(3) 0.601(4)
S2_2 S 0.4037(14) 0.7583(15) 0.5362(18)
C8_2 C 0.341(3) 0.250(3) 0.712(2)
H5_2 H 0.3687 0.3083 0.6913
H6_2 H 0.2813 0.2323 0.7132
C9_2 C 0.498(3) 0.693(3) 0.692(2)
H7_2 H 0.5362 0.6903 0.6441
H8_2 H 0.4464 0.6398 0.6863
C10_2 C 0.476(2) 0.755(2) 0.643(3)
H9_2 H 0.5309 0.8004 0.6241
H10_2 H 0.4596 0.7756 0.7004
C11_2 C 0.279(6) 0.198(7) 0.505(8)
H11 H 0.2410 0.1411 0.4837
H12 H 0.3109 0.2308 0.4493
H13_2 H 0.2466 0.2212 0.5329
C12 C 0.458(12) 0.750(14) 0.424(11)
H14 H 0.4437 0.6926 0.4146
H15 H 0.5174 0.7847 0.4320
Cu4_2 Cu 0.44707(9) 0.86336(13) 0.94997(10)
N3_2 N 0.3253(6) 0.7627(8) 0.9491(10)
O10_2 O 0.5571(7) 0.9817(11) 0.9286(9)
O12_2 O 0.4056(8) 0.9033(11) 0.8375(12)
C13_2 C 0.2742(13) 0.7663(18) 0.8813(16)
C16_2 C 0.3139(10) 0.8476(16) 0.7935(12)
H17_2 H 0.2825 0.8778 0.7939
C17_2 C 0.4576(13) 0.9779(18) 0.7985(18)
O14_2 O 0.1976(7) 0.7126(11) 0.8698(9)
S4_2 S 0.2417(15) 0.6454(21) 0.5362(18)
C21_2 C 0.307(3) 0.805(4) 0.692(2)
H22_2 H 0.3097 0.8459 0.6441
H23_2 H 0.3602 0.8066 0.6863
C22_2 C 0.245(2) 0.721(3) 0.643(3)
H24_2 H 0.1996 0.7305 0.6241
H25_2 H 0.2244 0.6840 0.7004
C24 C 0.250(14) 0.708(18) 0.424(11)
H29 H 0.3074 0.7511 0.4146
H30 H 0.2153 0.7327 0.4320
Cu6_2 Cu 0.13664(13) 0.58371(9) 0.94997(10)
N5_2 N 0.2373(8) 0.5626(6) 0.9491(10)
O17_2 O 0.0183(11) 0.5754(8) 0.9286(9)
O19_2 O 0.0967(11) 0.5023(8) 0.8375(12)
C25_2 C 0.2337(18) 0.5079(13) 0.8813(16)
C28_2 C 0.1524(16) 0.4663(12) 0.7935(12)
H32_2 H 0.1222 0.4047 0.7939
C29_2 C 0.0221(18) 0.4797(12) 0.7985(18)
O21_2 O 0.2874(11) 0.4850(8) 0.8698(9)
S6_2 S 0.3546(21) 0.5963(14) 0.5362(18)
C33_2 C 0.195(4) 0.502(3) 0.692(2)
H37_2 H 0.1541 0.4638 0.6441
H38_2 H 0.1934 0.5536 0.6863
C34_2 C 0.279(3) 0.524(2) 0.643(3)
H39_2 H 0.2695 0.4691 0.6241
H40_2 H 0.3160 0.5404 0.7004
C36 C 0.292(18) 0.542(12) 0.424(11)
H44 H 0.2489 0.5563 0.4146
H45 H 0.2673 0.4826 0.4320
H46 H 0.438398 0.770512 0.359871
H47 H 0.229488 0.667886 0.359871
H48 H 0.332114 0.561602 0.359871
C26_2 C 0.7684(12) 0.4937(9) 0.7848(12)
C27_2 C 0.8522(12) 0.5450(9) 0.8337(11)
H31_2 H 0.8403 0.5374 0.9058
C30_2 C 0.9811(11) 0.5258(7) 0.8550(9)
C31_2 C 0.8936(21) 0.6383(13) 0.8174(19)
H33_2 H 0.8580 0.6587 0.8439
H34_2 H 0.9465 0.6661 0.8536
S5_2 S 0.848(4) 0.651(3) 0.601(4)
C32_2 C 0.909(4) 0.659(3) 0.712(2)
H35_2 H 0.9396 0.6313 0.6913
H36_2 H 0.9510 0.7187 0.7132
C35_2 C 0.919(9) 0.721(6) 0.505(8)
H41 H 0.9001 0.7590 0.4837
H42 H 0.9199 0.6891 0.4493
H43_2 H 0.9746 0.7534 0.5329
H41_2 H 0.0999 0.2410 0.9837
H42_2 H 0.0801 0.3109 0.9493
H11_2 H 0.7590 0.8589 0.9837
H12_2 H 0.6891 0.7692 0.9493
C12_2 C 0.542(12) 0.250(14) 0.924(11)
H14_2 H 0.5563 0.3074 0.9146
H15_2 H 0.4826 0.2153 0.9320
C24_2 C 0.750(14) 0.292(18) 0.924(11)
H29_2 H 0.6926 0.2489 0.9146
H30_2 H 0.7847 0.2673 0.9320
C36_2 C 0.708(18) 0.458(12) 0.924(11)
H44_2 H 0.7511 0.4437 0.9146
H45_2 H 0.7327 0.5174 0.9320
H46_2 H 0.561602 0.229488 0.859871
H47_2 H 0.770512 0.332114 0.859871
H48_2 H 0.667886 0.438398 0.859871
H26_2 H 0.1411 0.9001 0.9837
H27_2 H 0.2308 0.9199 0.9493
loop_
_geom_bond_atom_site_label_1
_geom_bond_atom_site_label_2
_geom_bond_site_symmetry_1
_geom_bond_site_symmetry_2
O16 C26 1_555 1_555
N6 C27 1_555 1_555
C26 C27 1_555 1_555
C27 H31 1_555 1_555
O20 C26 1_555 1_555
C31 C27 1_555 1_555
H33 C31 1_555 1_555
H34 C31 1_555 1_555
S5 C32 1_555 1_555
C32 C31 1_555 1_555
H35 C32 1_555 1_555
H36 C32 1_555 1_555
C35 S5 1_555 1_555
H43 C35 1_555 1_555
Cu8 O20 1_555 1_555
Cu12 O16 1_555 1_555
Ca4 O16 1_555 1_555
O18 Cu12 1_555 1_555
N6 C30 1_555 1_555
N6 Cu12 1_555 1_555
Cu1 O1 1_555 1_555
Cu2 O1 1_555 1_555
Ca1 O1 1_555 1_555
O2 C2 1_555 1_555
N1 Cu2 1_555 1_555
O3 Cu2 1_555 1_555
O4 C5 1_555 1_555
N2 C3 1_555 1_555
O5 Cu2 1_555 1_555
C1 N1 1_555 1_555
C2 C3 1_555 1_555
C3 H1 1_555 1_555
C4 O5 1_555 1_555
H2 C4 1_555 1_555
C5 O5 1_555 1_555
C6 O3 1_555 1_555
O6 C2 1_555 1_555
O7 C1 1_555 1_555
C7 C3 1_555 1_555
H3 C7 1_555 1_555
H4 C7 1_555 1_555
S1 C8 1_555 1_555
S2 C10 1_555 1_555
C8 C7 1_555 1_555
H5 C8 1_555 1_555
H6 C8 1_555 1_555
C9 C4 1_555 1_555
H7 C9 1_555 1_555
H8 C9 1_555 1_555
C10 C9 1_555 1_555
H9 C10 1_555 1_555
H10 C10 1_555 1_555
C11 S1 1_555 1_555
H13 C11 1_555 1_555
Cu3 O8 1_555 1_555
Cu4 O7 1_555 1_555
O8 Ca1 1_555 1_555
N3 Ca1 1_555 1_555
O10 Cu4 1_555 1_555
O12 Cu4 1_555 1_555
C13 N3 1_555 1_555
C16 O12 1_555 1_555
H17 C16 1_555 1_555
C17 O12 1_555 1_555
O14 C13 1_555 1_555
S4 C22 1_555 1_555
C21 C16 1_555 1_555
H22 C21 1_555 1_555
H23 C21 1_555 1_555
C22 C21 1_555 1_555
H24 C22 1_555 1_555
H25 C22 1_555 1_555
Cu5 O15 1_555 1_555
Cu6 O14 1_555 1_555
O15 Ca1 1_555 1_555
N5 Ca1 1_555 1_555
O17 Cu6 1_555 1_555
O19 Cu6 1_555 1_555
C25 N5 1_555 1_555
C28 O19 1_555 1_555
H32 C28 1_555 1_555
C29 O19 1_555 1_555
O21 Cu2 1_555 1_555
S6 C34 1_555 1_555
C33 C28 1_555 1_555
H37 C33 1_555 1_555
H38 C33 1_555 1_555
C34 C33 1_555 1_555
H39 C34 1_555 1_555
H40 C34 1_555 1_555
Cu8 O2 1_555 1_555
Cu10 O6 1_555 1_555
Ca4 O2 1_555 1_555
O22 Cu1 1_555 1_555
O23 Ca1 1_555 1_555
O24 Ca1 1_555 1_555
O25 Cu1 1_555 1_555
O26 Cu3 1_555 1_555
O27 Cu5 1_555 1_555
N7 Cu1 1_555 1_555
N8 Cu3 1_555 1_555
N9 Cu5 1_555 1_555
O28 Cu3 1_555 1_555
O29 Cu5 1_555 1_555
O30 Cu1 1_555 1_555
Ca1 N1 1_555 1_555
Ca1 O22 1_555 1_555
O4 Cu8 1_555 1_555
N2 C6 1_555 1_555
N2 Cu8 1_555 1_555
C1 C4 1_555 1_555
C5 C6 1_555 1_555
Cu3 O23 1_555 1_555
Cu4 O8 1_555 1_555
Cu4 N3 1_555 1_555
C13 C16 1_555 1_555
Cu5 O24 1_555 1_555
Cu6 O15 1_555 1_555
Cu6 N5 1_555 1_555
C25 C28 1_555 1_555
C25 O21 1_555 1_555
O9 C14 1_555 1_555
N4 C15 1_555 1_555
C14 C15 1_555 1_555
C15 H16 1_555 1_555
O13 C14 1_555 1_555
C19 C15 1_555 1_555
H18 C19 1_555 1_555
H19 C19 1_555 1_555
S3 C20 1_555 1_555
C20 C19 1_555 1_555
H20 C20 1_555 1_555
H21 C20 1_555 1_555
C23 S3 1_555 1_555
H28 C23 1_555 1_555
Cu10 O9 1_555 1_555
Cu12 O13 1_555 1_555
Ca4 O9 1_555 1_555
O11 Cu10 1_555 1_555
N4 C18 1_555 1_555
N4 Cu10 1_555 1_555
O23 C14_2 1_555 1_555
N8 C15_2 1_555 1_555
C14_2 C15_2 1_555 1_555
C15_2 H16_2 1_555 1_555
O29 C14_2 1_555 1_555
C19_2 C15_2 1_555 1_555
H18_2 C19_2 1_555 1_555
H19_2 C19_2 1_555 1_555
S3_2 C20_2 1_555 1_555
C20_2 C19_2 1_555 1_555
H20_2 C20_2 1_555 1_555
H21_2 C20_2 1_555 1_555
C23_2 S3_2 1_555 1_555
H26 C23_2 1_555 1_555
H27 C23_2 1_555 1_555
H28_2 C23_2 1_555 1_555
N8 C18_2 1_555 1_555
Cu8 O1_2 1_555 1_555
Ca4 O1_2 1_555 1_555
Cu10 O8_2 1_555 1_555
O8_2 Ca4 1_555 1_555
Cu12 O15_2 1_555 1_555
O15_2 Ca4 1_555 1_555
O22 C2_2 1_555 1_555
N1_2 Cu2_2 1_555 1_555
O3_2 Cu2_2 1_555 1_555
O25 C5_2 1_555 1_555
N7 C3_2 1_555 1_555
O5_2 Cu2_2 1_555 1_555
C1_2 N1_2 1_555 1_555
C2_2 C3_2 1_555 1_555
C3_2 H1_2 1_555 1_555
C4_2 O5_2 1_555 1_555
H2_2 C4_2 1_555 1_555
C5_2 O5_2 1_555 1_555
C6_2 O3_2 1_555 1_555
O28 C2_2 1_555 1_555
O7_2 C1_2 1_555 1_555
C7_2 C3_2 1_555 1_555
H3_2 C7_2 1_555 1_555
H4_2 C7_2 1_555 1_555
S1_2 C8_2 1_555 1_555
S2_2 C10_2 1_555 1_555
C8_2 C7_2 1_555 1_555
H5_2 C8_2 1_555 1_555
H6_2 C8_2 1_555 1_555
C9_2 C4_2 1_555 1_555
H7_2 C9_2 1_555 1_555
H8_2 C9_2 1_555 1_555
C10_2 C9_2 1_555 1_555
H9_2 C10_2 1_555 1_555
H10_2 C10_2 1_555 1_555
C11_2 S1_2 1_555 1_555
H11 C11_2 1_555 1_555
H12 C11_2 1_555 1_555
H13_2 C11_2 1_555 1_555
C12 S2_2 1_555 1_555
H14 C12 1_555 1_555
H15 C12 1_555 1_555
Cu4_2 O7_2 1_555 1_555
O10_2 Cu4_2 1_555 1_555
O12_2 Cu4_2 1_555 1_555
C13_2 N3_2 1_555 1_555
C16_2 O12_2 1_555 1_555
H17_2 C16_2 1_555 1_555
C17_2 O12_2 1_555 1_555
O14_2 C13_2 1_555 1_555
S4_2 C22_2 1_555 1_555
C21_2 C16_2 1_555 1_555
H22_2 C21_2 1_555 1_555
H23_2 C21_2 1_555 1_555
C22_2 C21_2 1_555 1_555
H24_2 C22_2 1_555 1_555
H25_2 C22_2 1_555 1_555
C24 S4_2 1_555 1_555
H29 C24 1_555 1_555
H30 C24 1_555 1_555
Cu6_2 O14_2 1_555 1_555
O17_2 Cu6_2 1_555 1_555
O19_2 Cu6_2 1_555 1_555
C25_2 N5_2 1_555 1_555
C28_2 O19_2 1_555 1_555
H32_2 C28_2 1_555 1_555
C29_2 O19_2 1_555 1_555
O21_2 Cu2_2 1_555 1_555
S6_2 C34_2 1_555 1_555
C33_2 C28_2 1_555 1_555
H37_2 C33_2 1_555 1_555
H38_2 C33_2 1_555 1_555
C34_2 C33_2 1_555 1_555
H39_2 C34_2 1_555 1_555
H40_2 C34_2 1_555 1_555
C36 S6_2 1_555 1_555
H44 C36 1_555 1_555
H45 C36 1_555 1_555
N7 C6_2 1_555 1_555
C1_2 C4_2 1_555 1_555
C5_2 C6_2 1_555 1_555
Cu4_2 N3_2 1_555 1_555
C13_2 C16_2 1_555 1_555
Cu6_2 N5_2 1_555 1_555
C25_2 C28_2 1_555 1_555
C25_2 O21_2 1_555 1_555
C12 H46 1_555 1_555
C24 H47 1_555 1_555
C36 H48 1_555 1_555
O24 C26_2 1_555 1_555
N9 C27_2 1_555 1_555
C26_2 C27_2 1_555 1_555
C27_2 H31_2 1_555 1_555
O30 C26_2 1_555 1_555
C31_2 C27_2 1_555 1_555
H33_2 C31_2 1_555 1_555
H34_2 C31_2 1_555 1_555
S5_2 C32_2 1_555 1_555
C32_2 C31_2 1_555 1_555
H35_2 C32_2 1_555 1_555
H36_2 C32_2 1_555 1_555
C35_2 S5_2 1_555 1_555
H41 C35_2 1_555 1_555
H42 C35_2 1_555 1_555
H43_2 C35_2 1_555 1_555
N9 C30_2 1_555 1_555
H14_2 C12_2 1_555 1_555
H15_2 C12_2 1_555 1_555
H29_2 C24_2 1_555 1_555
H30_2 C24_2 1_555 1_555
H44_2 C36_2 1_555 1_555
H45_2 C36_2 1_555 1_555
C12_2 H46_2 1_555 1_555
C24_2 H47_2 1_555 1_555
C36_2 H48_2 1_555 1_555

#END
