
###############################################################################
#
# This file contains modified crystal structure data generated from the
# MOF subset of the Cambridge Structural Database (CSD) v543 
# hosted by the Cambridge Crystallographic Data Centre (CCDC).
#
# This work is licensed under the Creative Commons
# Attribution-NonCommercial-ShareAlike 4.0 International License.
# To view a copy of this license, visit
# http://creativecommons.org/licenses/by-nc-sa/4.0/
# or send a letter to
# Creative Commons, PO Box 1866, Mountain View, CA 94042, USA.
#
# CIF created using the CSD Python API on 29 September 2022
# The structure has been converted into the P1 space group
# The structure has a 3D framework
# The original CSD entry TEWTAT is in the hexagonal crystal system
# The original CSD entry TEWTAT is in a Sohncke space group
# The framework has been calculated to contain at least 10.0% void space
# The void calculation uses a probe of radius 1.32A, grid spacing 0.4
#
###############################################################################

data_TEWTAT
_chemical_formula_moiety         '(C72 H96 Ca2 Cu9 N12 O38 S12)n'
_symmetry_cell_setting           triclinic
_symmetry_space_group_name_H-M   'P 1'
_symmetry_Int_Tables_number      1
_space_group_name_Hall           'P 1'
loop_
_symmetry_equiv_pos_site_id
_symmetry_equiv_pos_as_xyz
1 x,y,z
_cell_length_a                   17.4806(4)
_cell_length_b                   17.4806(4)
_cell_length_c                   13.2938(9)
_cell_angle_alpha                90
_cell_angle_beta                 90
_cell_angle_gamma                120
_cell_volume                     3517.97
loop_
_atom_site_label
_atom_site_type_symbol
_atom_site_fract_x
_atom_site_fract_y
_atom_site_fract_z
Cu1 Cu 0.13273(11) 0.55812(11) 0.64167(13)
Cu2 Cu 0.13376(11) 0.55234(11) 0.39052(13)
Ca1 Ca 0.3333 0.6667 0.5197(6)
O1 O 0.1716(5) 0.5340(5) 0.5230(10)
N1 N 0.0955(8) 0.6032(9) 0.7474(12)
O2 O 0.2377(6) 0.6790(6) 0.6456(10)
O5 O 0.0127(7) 0.4467(7) 0.6656(8)
O6 O 0.2951(8) 0.8065(7) 0.7335(12)
C3 C 0.2351(10) 0.7306(10) 0.7146(10)
C4 C 0.1507(17) 0.6987(14) 0.786(2)
H2 H 0.1650 0.7026 0.8589
C5 C 0.0214(10) 0.5472(10) 0.7900(12)
C7 C 0.1089(14) 0.7514(13) 0.757(3)
H3 H 0.0529 0.7280 0.7946
H4 H 0.1481 0.8127 0.7800
C8 C 0.090(4) 0.755(4) 0.654(3)
H5 H 0.1267 0.8205 0.6502
H6 H 0.0300 0.7460 0.6678
C9 C 0.037(3) 0.627(3) 0.516(4)
H8 H 0.0786 0.6138 0.5518
H9 H 0.0347 0.6103 0.4450
S1 S 0.074(4) 0.741(3) 0.525(4)
Cu9 Cu 0.42539(16) 0.86727(11) 0.64167(13)
O22 O 0.4660(5) 0.6376(7) 0.5230(10)
O23 O 0.3624(7) 0.8284(5) 0.5230(10)
N7 N 0.0954(11) 0.5954(10) 0.2799(10)
O24 O 0.3210(6) 0.5587(8) 0.6456(10)
O25 O 0.4413(8) 0.7623(6) 0.6456(10)
O27 O 0.1967(9) 0.4875(16) 0.3124(13)
O29 O 0.0175(6) 0.4420(8) 0.3719(11)
O33 O 0.1935(7) 0.4886(11) 0.7335(12)
O35 O 0.2348(6) 0.6754(7) 0.3901(10)
O37 O 0.3246(7) 0.5594(9) 0.3901(10)
O39 O 0.4406(9) 0.7652(6) 0.3901(10)
Ca4 Ca 0.6667 0.3333 0.0197(6)
N2 N 0.9046(11) 0.4046(10) 0.7799(10)
O3 O 0.7092(13) 0.1967(9) 0.8124(13)
O4 O 0.9825(6) 0.5580(8) 0.8719(11)
O7 O 0.7652(6) 0.3246(7) 0.8901(10)
C1 C 0.7697(14) 0.2788(12) 0.826(2)
C2 C 0.8457(10) 0.3112(11) 0.7569(14)
H1 H 0.8757 0.2753 0.7584
C6 C 0.9782(10) 0.4573(11) 0.7348(15)
H7 H 0.9784 0.5926 0.5459
C10 C 0.8032(19) 0.313(2) 0.640(2)
H10 H 0.8126 0.3738 0.6309
H11 H 0.8405 0.3060 0.5894
C11 C 0.712(4) 0.253(9) 0.613(4)
H12 H 0.6737 0.2772 0.6302
H13 H 0.6899 0.1952 0.6476
C12 C 0.758(2) 0.167(2) 0.489(3)
H14 H 0.7602 0.1541 0.5607
H15 H 0.8178 0.1942 0.4609
H16 H 0.7199 0.1112 0.4534
S2 S 0.7153(12) 0.2392(11) 0.4756(13)
Cu3 Cu 0.44188(11) 0.57461(16) 0.64167(13)
Cu4 Cu 0.44766(11) 0.58142(16) 0.39052(13)
N3 N 0.3968(9) 0.4923(12) 0.7474(12)
N4 N 0.5954(10) 0.5000(15) 0.7799(10)
O10 O 0.8033(9) 0.5125(16) 0.8124(13)
O11 O 0.4420(8) 0.4245(10) 0.8719(11)
O12 O 0.5533(7) 0.5660(10) 0.6656(8)
O14 O 0.6754(7) 0.4406(9) 0.8901(10)
C13 C 0.7212(12) 0.4909(18) 0.826(2)
C14 C 0.6888(11) 0.5345(15) 0.7569(14)
H17 H 0.7247 0.6004 0.7584
C15 C 0.2694(10) 0.5045(14) 0.7146(10)
C16 C 0.3013(14) 0.4520(22) 0.786(2)
H18 H 0.2974 0.4624 0.8589
C17 C 0.4528(10) 0.4742(14) 0.7900(12)
C18 C 0.5427(11) 0.5209(15) 0.7348(15)
C19 C 0.2486(13) 0.3575(19) 0.757(3)
H19 H 0.2720 0.3249 0.7946
H20 H 0.1873 0.3354 0.7800
C20 C 0.245(4) 0.335(6) 0.654(3)
H21 H 0.1795 0.3062 0.6502
H22 H 0.2540 0.2840 0.6678
C21 C 0.373(3) 0.410(4) 0.516(4)
H23 H 0.4074 0.3858 0.5459
H24 H 0.3862 0.4648 0.5518
H25 H 0.3897 0.4244 0.4450
S3 S 0.259(3) 0.333(5) 0.525(4)
C22 C 0.687(2) 0.4902(28) 0.640(2)
H26 H 0.6262 0.4388 0.6309
H27 H 0.6940 0.5345 0.5894
C23 C 0.747(9) 0.459(10) 0.613(4)
H28 H 0.7228 0.3965 0.6302
H29 H 0.8048 0.4947 0.6476
C24 C 0.833(2) 0.591(3) 0.489(3)
H30 H 0.8459 0.6061 0.5607
H31 H 0.8058 0.6236 0.4609
H32 H 0.8888 0.6087 0.4534
S4 S 0.7608(11) 0.4761(16) 0.4756(13)
N6 N 0.5000(15) 0.0954(11) 0.7799(10)
O17 O 0.4875(16) 0.2908(13) 0.8124(13)
O18 O 0.5755(10) 0.0175(6) 0.8719(11)
O21 O 0.5594(9) 0.2348(6) 0.8901(10)
C25 C 0.5091(18) 0.2303(14) 0.826(2)
C26 C 0.4655(15) 0.1543(10) 0.7569(14)
H33 H 0.3996 0.1243 0.7584
C30 C 0.4791(15) 0.0218(10) 0.7348(15)
H39 H 0.6142 0.0216 0.5459
C34 C 0.5098(28) 0.1968(19) 0.640(2)
H42 H 0.5612 0.1874 0.6309
H43 H 0.4655 0.1595 0.5894
C35 C 0.541(10) 0.288(4) 0.613(4)
H44 H 0.6035 0.3263 0.6302
H45 H 0.5053 0.3101 0.6476
C36 C 0.409(3) 0.242(2) 0.489(3)
H46 H 0.3939 0.2398 0.5607
H47 H 0.3764 0.1822 0.4609
H48 H 0.3913 0.2801 0.4534
S6 S 0.5239(16) 0.2847(12) 0.4756(13)
Cu10 Cu 0.86624(11) 0.44766(11) 0.89052(13)
Cu11 Cu 0.55234(11) 0.41858(16) 0.89052(13)
Cu12 Cu 0.58142(16) 0.13376(11) 0.89052(13)
N8 N 0.4046(10) 0.5000(15) 0.2799(10)
O28 O 0.5125(16) 0.7092(13) 0.3124(13)
O30 O 0.5580(8) 0.5755(10) 0.3719(11)
O34 O 0.5114(11) 0.7049(8) 0.7335(12)
Cu6 Cu 0.41858(16) 0.86624(11) 0.39052(13)
N5 N 0.5077(12) 0.9045(8) 0.7474(12)
O19 O 0.4340(10) 0.9873(7) 0.6656(8)
C27 C 0.4955(14) 0.7649(10) 0.7146(10)
C28 C 0.5480(22) 0.8493(17) 0.786(2)
H34 H 0.5376 0.8350 0.8589
C29 C 0.5258(14) 0.9786(10) 0.7900(12)
C31 C 0.6425(19) 0.8911(14) 0.757(3)
H35 H 0.6751 0.9471 0.7946
H36 H 0.6646 0.8519 0.7800
C32 C 0.665(6) 0.910(4) 0.654(3)
H37 H 0.6938 0.8733 0.6502
H38 H 0.7160 0.9700 0.6678
C33 C 0.590(4) 0.963(3) 0.516(4)
H40 H 0.5352 0.9214 0.5518
H41 H 0.5756 0.9653 0.4450
S5 S 0.667(5) 0.926(4) 0.525(4)
N9 N 0.5000(15) 0.9046(11) 0.2799(10)
O26 O 0.2908(13) 0.8033(9) 0.3124(13)
O31 O 0.4245(10) 0.9825(6) 0.3719(11)
Cu5 Cu 0.57461(16) 0.13273(11) 0.14167(13)
O15 O 0.6376(7) 0.1716(5) 0.0230(10)
N5_2 N 0.4923(12) 0.0955(8) 0.2474(12)
O16 O 0.5587(8) 0.2377(6) 0.1456(10)
O19_2 O 0.5660(10) 0.0127(7) 0.1656(8)
O20 O 0.4886(11) 0.2951(8) 0.2335(12)
C27_2 C 0.5045(14) 0.2351(10) 0.2146(10)
C28_2 C 0.4520(22) 0.1507(17) 0.286(2)
H34_2 H 0.4624 0.1650 0.3589
C29_2 C 0.4742(14) 0.0214(10) 0.2900(12)
C31_2 C 0.3575(19) 0.1089(14) 0.257(3)
H35_2 H 0.3249 0.0529 0.2946
H36_2 H 0.3354 0.1481 0.2800
C32_2 C 0.335(6) 0.090(4) 0.154(3)
H37_2 H 0.3062 0.1267 0.1502
H38_2 H 0.2840 0.0300 0.1678
C33_2 C 0.410(4) 0.037(3) 0.016(4)
H40_2 H 0.4648 0.0786 0.0518
S5_2 S 0.333(5) 0.074(4) 0.025(4)
Cu8 Cu 0.55812(11) 0.42539(16) 0.14167(13)
O32 O 0.7049(8) 0.1935(7) 0.2335(12)
H41_2 H 0.4244 0.0347 0.9450
C1_2 C 0.2303(14) 0.7212(12) 0.326(2)
C2_2 C 0.1543(10) 0.6888(11) 0.2569(14)
H1_2 H 0.1243 0.7247 0.2584
C6_2 C 0.0218(10) 0.5427(11) 0.2348(15)
H7_2 H 0.0216 0.4074 0.0459
C10_2 C 0.1968(19) 0.687(2) 0.140(2)
H10_2 H 0.1874 0.6262 0.1309
H11_2 H 0.1595 0.6940 0.0894
C11_2 C 0.288(4) 0.747(9) 0.113(4)
H12_2 H 0.3263 0.7228 0.1302
H13_2 H 0.3101 0.8048 0.1476
H14_2 H 0.2398 0.8459 0.0607
O8 O 0.5340(5) 0.3624(7) 0.0230(10)
N3_2 N 0.6032(9) 0.5077(12) 0.2474(12)
O9 O 0.6790(6) 0.4413(8) 0.1456(10)
O12_2 O 0.4467(7) 0.4340(10) 0.1656(8)
O13 O 0.8065(7) 0.5114(11) 0.2335(12)
C13_2 C 0.2788(12) 0.5091(18) 0.326(2)
C14_2 C 0.3112(11) 0.4655(15) 0.2569(14)
H17_2 H 0.2753 0.3996 0.2584
C15_2 C 0.7306(10) 0.4955(14) 0.2146(10)
C16_2 C 0.6987(14) 0.5480(22) 0.286(2)
H18_2 H 0.7026 0.5376 0.3589
C17_2 C 0.5472(10) 0.5258(14) 0.2900(12)
C18_2 C 0.4573(11) 0.4791(15) 0.2348(15)
C19_2 C 0.7514(13) 0.6425(19) 0.257(3)
H19_2 H 0.7280 0.6751 0.2946
H20_2 H 0.8127 0.6646 0.2800
C20_2 C 0.755(4) 0.665(6) 0.154(3)
H21_2 H 0.8205 0.6938 0.1502
H22_2 H 0.7460 0.7160 0.1678
C21_2 C 0.627(3) 0.590(4) 0.016(4)
H23_2 H 0.5926 0.6142 0.0459
H24_2 H 0.6138 0.5352 0.0518
S3_2 S 0.741(3) 0.667(5) 0.025(4)
C22_2 C 0.313(2) 0.5098(28) 0.140(2)
H26_2 H 0.3738 0.5612 0.1309
H27_2 H 0.3060 0.4655 0.0894
C23_2 C 0.253(9) 0.541(10) 0.113(4)
H28_2 H 0.2772 0.6035 0.1302
H29_2 H 0.1952 0.5053 0.1476
H30_2 H 0.1541 0.3939 0.0607
C25_2 C 0.4909(18) 0.7697(14) 0.326(2)
C26_2 C 0.5345(15) 0.8457(10) 0.2569(14)
H33_2 H 0.6004 0.8757 0.2584
C30_2 C 0.5209(15) 0.9782(10) 0.2348(15)
H39_2 H 0.3858 0.9784 0.0459
C34_2 C 0.4902(28) 0.8032(19) 0.140(2)
H42_2 H 0.4388 0.8126 0.1309
H43_2 H 0.5345 0.8405 0.0894
C35_2 C 0.459(10) 0.712(4) 0.113(4)
H44_2 H 0.3965 0.6737 0.1302
H45_2 H 0.4947 0.6899 0.1476
H46_2 H 0.6061 0.7602 0.0607
Cu7 Cu 0.86727(11) 0.44188(11) 0.14167(13)
C12_2 C 0.242(2) 0.833(2) 0.989(3)
H15_2 H 0.1822 0.8058 0.9609
H16_2 H 0.2801 0.8888 0.9534
S2_2 S 0.2847(12) 0.7608(11) 0.9756(13)
H25_2 H 0.6103 0.5756 0.9450
C24_2 C 0.167(2) 0.409(3) 0.989(3)
H31_2 H 0.1942 0.3764 0.9609
H32_2 H 0.1112 0.3913 0.9534
S4_2 S 0.2392(11) 0.5239(16) 0.9756(13)
C36_2 C 0.591(3) 0.758(2) 0.989(3)
H47_2 H 0.6236 0.8178 0.9609
H48_2 H 0.6087 0.7199 0.9534
S6_2 S 0.4761(16) 0.7153(12) 0.9756(13)
O1_2 O 0.8284(5) 0.4660(5) 0.0230(10)
N1_2 N 0.9045(8) 0.3968(9) 0.2474(12)
O2_2 O 0.7623(6) 0.3210(6) 0.1456(10)
O5_2 O 0.9873(7) 0.5533(7) 0.1656(8)
C3_2 C 0.7649(10) 0.2694(10) 0.2146(10)
C4_2 C 0.8493(17) 0.3013(14) 0.286(2)
H2_2 H 0.8350 0.2974 0.3589
C5_2 C 0.9786(10) 0.4528(10) 0.2900(12)
C7_2 C 0.8911(14) 0.2486(13) 0.257(3)
H3_2 H 0.9471 0.2720 0.2946
H4_2 H 0.8519 0.1873 0.2800
C8_2 C 0.910(4) 0.245(4) 0.154(3)
H5_2 H 0.8733 0.1795 0.1502
H6_2 H 0.9700 0.2540 0.1678
C9_2 C 0.963(3) 0.373(3) 0.016(4)
H8_2 H 0.9214 0.3862 0.0518
S1_2 S 0.926(4) 0.259(3) 0.025(4)
H9_2 H 0.9653 0.3897 0.9450
loop_
_geom_bond_atom_site_label_1
_geom_bond_atom_site_label_2
_geom_bond_site_symmetry_1
_geom_bond_site_symmetry_2
Cu1 O1 1_555 1_555
Cu2 O1 1_555 1_555
Ca1 O1 1_555 1_555
N1 Cu1 1_555 1_555
O2 Cu1 1_555 1_555
O5 Cu1 1_555 1_555
O6 C3 1_555 1_555
C3 O2 1_555 1_555
C4 N1 1_555 1_555
H2 C4 1_555 1_555
C5 N1 1_555 1_555
C7 C4 1_555 1_555
H3 C7 1_555 1_555
H4 C7 1_555 1_555
C8 C7 1_555 1_555
H5 C8 1_555 1_555
H6 C8 1_555 1_555
H8 C9 1_555 1_555
H9 C9 1_555 1_555
S1 C8 1_555 1_555
Cu9 O6 1_555 1_555
O22 Ca1 1_555 1_555
O23 Ca1 1_555 1_555
N7 Cu2 1_555 1_555
O24 Ca1 1_555 1_555
O25 Ca1 1_555 1_555
O27 Cu2 1_555 1_555
O29 Cu2 1_555 1_555
O33 Cu1 1_555 1_555
O35 Cu2 1_555 1_555
O37 Ca1 1_555 1_555
O39 Ca1 1_555 1_555
Ca1 O2 1_555 1_555
Ca1 O35 1_555 1_555
C3 C4 1_555 1_555
C9 S1 1_555 1_555
Cu9 O23 1_555 1_555
Cu9 O25 1_555 1_555
N2 C2 1_555 1_555
O3 C1 1_555 1_555
O7 C1 1_555 1_555
C1 C2 1_555 1_555
C2 H1 1_555 1_555
C6 N2 1_555 1_555
C10 C2 1_555 1_555
H10 C10 1_555 1_555
H11 C10 1_555 1_555
C11 C10 1_555 1_555
H12 C11 1_555 1_555
H13 C11 1_555 1_555
C12 H14 1_555 1_555
H15 C12 1_555 1_555
H16 C12 1_555 1_555
S2 C11 1_555 1_555
Cu3 O22 1_555 1_555
Cu4 O22 1_555 1_555
N3 Cu3 1_555 1_555
N4 C14 1_555 1_555
O24 Cu3 1_555 1_555
O10 C13 1_555 1_555
O11 C17 1_555 1_555
O12 Cu3 1_555 1_555
O33 C15 1_555 1_555
O14 C13 1_555 1_555
C13 C14 1_555 1_555
C14 H17 1_555 1_555
C15 O24 1_555 1_555
C16 N3 1_555 1_555
H18 C16 1_555 1_555
C17 N3 1_555 1_555
C18 N4 1_555 1_555
C19 C16 1_555 1_555
H19 C19 1_555 1_555
H20 C19 1_555 1_555
C20 C19 1_555 1_555
H21 C20 1_555 1_555
H22 C20 1_555 1_555
C21 H23 1_555 1_555
H24 C21 1_555 1_555
H25 C21 1_555 1_555
S3 C20 1_555 1_555
C22 C14 1_555 1_555
H26 C22 1_555 1_555
H27 C22 1_555 1_555
C23 C22 1_555 1_555
H28 C23 1_555 1_555
H29 C23 1_555 1_555
C24 H30 1_555 1_555
H31 C24 1_555 1_555
H32 C24 1_555 1_555
S4 C23 1_555 1_555
N6 C26 1_555 1_555
O17 C25 1_555 1_555
O21 C25 1_555 1_555
C25 C26 1_555 1_555
C26 H33 1_555 1_555
C30 N6 1_555 1_555
C34 C26 1_555 1_555
H42 C34 1_555 1_555
H43 C34 1_555 1_555
C35 C34 1_555 1_555
H44 C35 1_555 1_555
H45 C35 1_555 1_555
C36 H46 1_555 1_555
H47 C36 1_555 1_555
H48 C36 1_555 1_555
S6 C35 1_555 1_555
Cu10 N2 1_555 1_555
Cu11 N4 1_555 1_555
Cu12 O3 1_555 1_555
N8 Cu4 1_555 1_555
O28 Cu4 1_555 1_555
O30 Cu4 1_555 1_555
O34 Cu3 1_555 1_555
O37 Cu4 1_555 1_555
O4 Cu10 1_555 1_555
O7 Cu10 1_555 1_555
C12 S2 1_555 1_555
O10 Cu10 1_555 1_555
O11 Cu11 1_555 1_555
O12 C18 1_555 1_555
O14 Cu11 1_555 1_555
C15 C16 1_555 1_555
C17 C18 1_555 1_555
C21 S3 1_555 1_555
C24 S4 1_555 1_555
N6 Cu12 1_555 1_555
O17 Cu11 1_555 1_555
O18 Cu12 1_555 1_555
O21 Cu12 1_555 1_555
C36 S6 1_555 1_555
Cu6 O23 1_555 1_555
N5 Cu9 1_555 1_555
O19 Cu9 1_555 1_555
O34 C27 1_555 1_555
C27 O25 1_555 1_555
C28 N5 1_555 1_555
H34 C28 1_555 1_555
C29 N5 1_555 1_555
C31 C28 1_555 1_555
H35 C31 1_555 1_555
H36 C31 1_555 1_555
C32 C31 1_555 1_555
H37 C32 1_555 1_555
H38 C32 1_555 1_555
H40 C33 1_555 1_555
H41 C33 1_555 1_555
S5 C32 1_555 1_555
N9 Cu6 1_555 1_555
O26 Cu6 1_555 1_555
O31 Cu6 1_555 1_555
O39 Cu6 1_555 1_555
C27 C28 1_555 1_555
C33 S5 1_555 1_555
Cu5 O15 1_555 1_555
O15 Ca4 1_555 1_555
N5_2 Cu5 1_555 1_555
O16 Cu5 1_555 1_555
O19_2 Cu5 1_555 1_555
O20 C27_2 1_555 1_555
C27_2 O16 1_555 1_555
C28_2 N5_2 1_555 1_555
H34_2 C28_2 1_555 1_555
C29_2 N5_2 1_555 1_555
C31_2 C28_2 1_555 1_555
H35_2 C31_2 1_555 1_555
H36_2 C31_2 1_555 1_555
C32_2 C31_2 1_555 1_555
H37_2 C32_2 1_555 1_555
H38_2 C32_2 1_555 1_555
H40_2 C33_2 1_555 1_555
S5_2 C32_2 1_555 1_555
Cu8 O20 1_555 1_555
Ca4 O16 1_555 1_555
O32 Cu5 1_555 1_555
C27_2 C28_2 1_555 1_555
C33_2 S5_2 1_555 1_555
N7 C2_2 1_555 1_555
O26 C1_2 1_555 1_555
O35 C1_2 1_555 1_555
C1_2 C2_2 1_555 1_555
C2_2 H1_2 1_555 1_555
C6_2 N7 1_555 1_555
C10_2 C2_2 1_555 1_555
H10_2 C10_2 1_555 1_555
H11_2 C10_2 1_555 1_555
C11_2 C10_2 1_555 1_555
H12_2 C11_2 1_555 1_555
H13_2 C11_2 1_555 1_555
Cu8 O8 1_555 1_555
O8 Ca4 1_555 1_555
N3_2 Cu8 1_555 1_555
N8 C14_2 1_555 1_555
O9 Cu8 1_555 1_555
O27 C13_2 1_555 1_555
O30 C17_2 1_555 1_555
O12_2 Cu8 1_555 1_555
O13 C15_2 1_555 1_555
O37 C13_2 1_555 1_555
C13_2 C14_2 1_555 1_555
C14_2 H17_2 1_555 1_555
C15_2 O9 1_555 1_555
C16_2 N3_2 1_555 1_555
H18_2 C16_2 1_555 1_555
C17_2 N3_2 1_555 1_555
C18_2 N8 1_555 1_555
C19_2 C16_2 1_555 1_555
H19_2 C19_2 1_555 1_555
H20_2 C19_2 1_555 1_555
C20_2 C19_2 1_555 1_555
H21_2 C20_2 1_555 1_555
H22_2 C20_2 1_555 1_555
C21_2 H23_2 1_555 1_555
H24_2 C21_2 1_555 1_555
S3_2 C20_2 1_555 1_555
C22_2 C14_2 1_555 1_555
H26_2 C22_2 1_555 1_555
H27_2 C22_2 1_555 1_555
C23_2 C22_2 1_555 1_555
H28_2 C23_2 1_555 1_555
H29_2 C23_2 1_555 1_555
N9 C26_2 1_555 1_555
O28 C25_2 1_555 1_555
O39 C25_2 1_555 1_555
C25_2 C26_2 1_555 1_555
C26_2 H33_2 1_555 1_555
C30_2 N9 1_555 1_555
C34_2 C26_2 1_555 1_555
H42_2 C34_2 1_555 1_555
H43_2 C34_2 1_555 1_555
C35_2 C34_2 1_555 1_555
H44_2 C35_2 1_555 1_555
H45_2 C35_2 1_555 1_555
Cu7 O13 1_555 1_555
Ca4 O9 1_555 1_555
O12_2 C18_2 1_555 1_555
C15_2 C16_2 1_555 1_555
C17_2 C18_2 1_555 1_555
C21_2 S3_2 1_555 1_555
H15_2 C12_2 1_555 1_555
H16_2 C12_2 1_555 1_555
H31_2 C24_2 1_555 1_555
H32_2 C24_2 1_555 1_555
H47_2 C36_2 1_555 1_555
H48_2 C36_2 1_555 1_555
C12_2 S2_2 1_555 1_555
C24_2 S4_2 1_555 1_555
C36_2 S6_2 1_555 1_555
Cu7 O1_2 1_555 1_555
Ca4 O1_2 1_555 1_555
N1_2 Cu7 1_555 1_555
O2_2 Cu7 1_555 1_555
O5_2 Cu7 1_555 1_555
O32 C3_2 1_555 1_555
C3_2 O2_2 1_555 1_555
C4_2 N1_2 1_555 1_555
H2_2 C4_2 1_555 1_555
C5_2 N1_2 1_555 1_555
C7_2 C4_2 1_555 1_555
H3_2 C7_2 1_555 1_555
H4_2 C7_2 1_555 1_555
C8_2 C7_2 1_555 1_555
H5_2 C8_2 1_555 1_555
H6_2 C8_2 1_555 1_555
H8_2 C9_2 1_555 1_555
S1_2 C8_2 1_555 1_555
Ca4 O2_2 1_555 1_555
C3_2 C4_2 1_555 1_555
C9_2 S1_2 1_555 1_555

#END
