
###############################################################################
#
# This file contains modified crystal structure data generated from the
# MOF subset of the Cambridge Structural Database (CSD) v543 
# hosted by the Cambridge Crystallographic Data Centre (CCDC).
#
# This work is licensed under the Creative Commons
# Attribution-NonCommercial-ShareAlike 4.0 International License.
# To view a copy of this license, visit
# http://creativecommons.org/licenses/by-nc-sa/4.0/
# or send a letter to
# Creative Commons, PO Box 1866, Mountain View, CA 94042, USA.
#
# CIF created using the CSD Python API on 29 September 2022
# The structure has been converted into the P1 space group
# The structure has a 3D framework
# The original CSD entry TEXVOK is in the hexagonal crystal system
# The original CSD entry TEXVOK is in a Sohncke space group
# The framework has been calculated to contain at least 10.0% void space
# The void calculation uses a probe of radius 1.32A, grid spacing 0.4
#
###############################################################################

data_TEXVOK
_chemical_formula_moiety         '(C48 H48 Ca2 Cu12 N12 O56)n'
_symmetry_cell_setting           triclinic
_symmetry_space_group_name_H-M   'P 1'
_symmetry_Int_Tables_number      1
_space_group_name_Hall           'P 1'
loop_
_symmetry_equiv_pos_site_id
_symmetry_equiv_pos_as_xyz
1 x,y,z
_cell_length_a                   17.8904(16)
_cell_length_b                   17.8904(16)
_cell_length_c                   12.7999(13)
_cell_angle_alpha                90
_cell_angle_beta                 90
_cell_angle_gamma                120
_cell_volume                     3547.95
loop_
_atom_site_label
_atom_site_type_symbol
_atom_site_fract_x
_atom_site_fract_y
_atom_site_fract_z
N2 N 0.0998(4) 0.5926(4) 0.3124(5)
O5 O 0.0194(3) 0.4451(3) 0.2076(5)
O6 O 0.2380(3) 0.6753(3) 0.2007(4)
O7 O 0.2909(6) 0.7977(4) 0.2938(6)
C3 C 0.0221(4) 0.5400(5) 0.3459(6)
C4 C 0.2341(5) 0.7209(5) 0.2775(7)
C5 C 0.1571(6) 0.6785(5) 0.3501(8)
H2 H 0.1265 0.7123 0.3497
C8 C 0.1892(7) 0.6764(7) 0.4660(7)
H5 H 0.2296 0.7365 0.4876
H6 H 0.1386 0.6537 0.5131
O9 O 0.2278(10) 0.6303(10) 0.4811(12)
H8 H 0.2673 0.6550 0.5255
Ca4 Ca 0.3333 0.6667 0.0644(3)
Cu8 Cu 0.13704(5) 0.55406(5) 0.19397(5)
Cu12 Cu 0.41702(7) 0.86296(5) 0.19397(5)
Ca1 Ca 0.6667 0.3333 0.5644(3)
Cu1 Cu 0.86369(5) 0.44178(5) 0.43630(5)
Cu2 Cu 0.86296(5) 0.44594(5) 0.69397(5)
N1 N 0.9036(4) 0.4011(5) 0.3222(6)
O1 O 0.82154(18) 0.46356(19) 0.5634(5)
O2 O 0.9802(3) 0.5500(3) 0.4195(5)
O3 O 0.7613(3) 0.3224(3) 0.4276(4)
O4 O 0.7032(6) 0.2017(4) 0.3339(6)
C1 C 0.7624(5) 0.2755(5) 0.3550(7)
C2 C 0.8452(6) 0.3126(6) 0.2843(10)
H1 H 0.8300 0.3131 0.2092
C6 C 0.9791(5) 0.4549(5) 0.2848(7)
C7 C 0.8883(7) 0.2536(6) 0.3009(14)
H3 H 0.8467 0.1939 0.2786
H4 H 0.9396 0.2753 0.2552
O8 O 0.9141(7) 0.2515(6) 0.4072(14)
H7 H 0.9002 0.2006 0.4233
O10 O 0.9427(6) 0.3849(6) 0.5670(13)
Cu3 Cu 0.55822(5) 0.42191(7) 0.43630(5)
Cu4 Cu 0.55406(5) 0.41702(7) 0.69397(5)
N3 N 0.5989(5) 0.5025(6) 0.3222(6)
N4 N 0.4074(4) 0.5072(6) 0.3124(5)
O11 O 0.53644(19) 0.35798(26) 0.5634(5)
O12 O 0.4500(3) 0.4302(4) 0.4195(5)
O13 O 0.6776(3) 0.4389(4) 0.4276(4)
O14 O 0.7983(4) 0.5015(7) 0.3339(6)
O15 O 0.5549(3) 0.5743(4) 0.2076(5)
O16 O 0.3247(3) 0.5627(4) 0.2007(4)
O17 O 0.2023(4) 0.4932(7) 0.2938(6)
C9 C 0.7245(5) 0.4869(7) 0.3550(7)
C10 C 0.6874(6) 0.5326(8) 0.2843(10)
H9 H 0.6869 0.5169 0.2092
C11 C 0.4600(5) 0.4821(6) 0.3459(6)
C12 C 0.2791(5) 0.5132(7) 0.2775(7)
C13 C 0.3215(5) 0.4786(8) 0.3501(8)
H10 H 0.2877 0.4142 0.3497
C14 C 0.5451(5) 0.5242(7) 0.2848(7)
C15 C 0.7464(6) 0.6347(9) 0.3009(14)
H11 H 0.8061 0.6528 0.2786
H12 H 0.7247 0.6643 0.2552
C16 C 0.3236(7) 0.5128(10) 0.4660(7)
H13 H 0.2635 0.4931 0.4876
H14 H 0.3463 0.4849 0.5131
O18 O 0.7485(6) 0.6626(9) 0.4072(14)
H15 H 0.7994 0.6996 0.4233
O19 O 0.3697(10) 0.5975(14) 0.4811(12)
H16 H 0.3450 0.6123 0.5255
O20 O 0.6151(6) 0.5578(8) 0.5670(13)
Cu5 Cu 0.57809(7) 0.13631(5) 0.43630(5)
Cu6 Cu 0.58298(7) 0.13704(5) 0.69397(5)
N5 N 0.4975(6) 0.0964(4) 0.3222(6)
O21 O 0.64202(26) 0.17846(18) 0.5634(5)
O22 O 0.5698(4) 0.0198(3) 0.4195(5)
O23 O 0.5611(4) 0.2387(3) 0.4276(4)
O24 O 0.4985(7) 0.2968(6) 0.3339(6)
C17 C 0.5131(7) 0.2376(5) 0.3550(7)
C18 C 0.4674(8) 0.1548(6) 0.2843(10)
H17 H 0.4831 0.1700 0.2092
C22 C 0.4758(7) 0.0209(5) 0.2848(7)
C23 C 0.3653(9) 0.1117(7) 0.3009(14)
H19 H 0.3472 0.1533 0.2786
H20 H 0.3357 0.0604 0.2552
O28 O 0.3374(9) 0.0859(7) 0.4072(14)
H23 H 0.3004 0.0998 0.4233
O30 O 0.4422(8) 0.0573(6) 0.5670(13)
Cu10 Cu 0.44594(5) 0.58298(7) 0.19397(5)
N7 N 0.9002(4) 0.4074(4) 0.8124(5)
N8 N 0.5926(4) 0.4928(6) 0.8124(5)
N9 N 0.5072(6) 0.0998(4) 0.8124(5)
O31 O 0.9806(3) 0.5549(3) 0.7076(5)
O32 O 0.4451(3) 0.4257(4) 0.7076(5)
O33 O 0.5743(4) 0.0194(3) 0.7076(5)
O34 O 0.7620(3) 0.3247(3) 0.7007(4)
O35 O 0.6753(3) 0.4373(4) 0.7007(4)
O36 O 0.5627(4) 0.2380(3) 0.7007(4)
O37 O 0.7091(6) 0.2023(4) 0.7938(6)
O38 O 0.7977(4) 0.5068(7) 0.7938(6)
O39 O 0.4932(7) 0.2909(6) 0.7938(6)
N6 N 0.4928(6) 0.9002(4) 0.3124(5)
O25 O 0.4257(4) 0.9806(3) 0.2076(5)
O26 O 0.4373(4) 0.7620(3) 0.2007(4)
O27 O 0.5068(7) 0.7091(6) 0.2938(6)
C19 C 0.5179(6) 0.9779(4) 0.3459(6)
C20 C 0.4868(7) 0.7659(5) 0.2775(7)
C21 C 0.5214(8) 0.8429(6) 0.3501(8)
H18 H 0.5858 0.8735 0.3497
C24 C 0.4872(10) 0.8108(7) 0.4660(7)
H21 H 0.5069 0.7704 0.4876
H22 H 0.5151 0.8614 0.5131
O29 O 0.4025(14) 0.7722(10) 0.4811(12)
H24 H 0.3877 0.7327 0.5255
C19_2 C 0.4821(6) 0.0221(4) 0.8459(6)
C20_2 C 0.5132(7) 0.2341(5) 0.7775(7)
C21_2 C 0.4786(8) 0.1571(6) 0.8501(8)
H18_2 H 0.4142 0.1265 0.8497
C24_2 C 0.5128(10) 0.1892(7) 0.9660(7)
H21_2 H 0.4931 0.2296 0.9876
O29_2 O 0.5975(14) 0.2278(10) 0.9811(12)
O1_2 O 0.17846(18) 0.53644(19) 0.0634(5)
O10_2 O 0.0573(6) 0.6151(6) 0.0670(13)
O11_2 O 0.46356(19) 0.64202(26) 0.0634(5)
H14_2 H 0.6537 0.5151 0.0131
H16_2 H 0.6550 0.3877 0.0255
O20_2 O 0.3849(6) 0.4422(8) 0.0670(13)
O21_2 O 0.35798(26) 0.82154(18) 0.0634(5)
O30_2 O 0.5578(8) 0.9427(6) 0.0670(13)
Cu1_2 Cu 0.13631(5) 0.55822(5) 0.93630(5)
N1_2 N 0.0964(4) 0.5989(5) 0.8222(6)
O2_2 O 0.0198(3) 0.4500(3) 0.9195(5)
O3_2 O 0.2387(3) 0.6776(3) 0.9276(4)
O4_2 O 0.2968(6) 0.7983(4) 0.8339(6)
C1_2 C 0.2376(5) 0.7245(5) 0.8550(7)
C2_2 C 0.1548(6) 0.6874(6) 0.7843(10)
H1_2 H 0.1700 0.6869 0.7092
C6_2 C 0.0209(5) 0.5451(5) 0.7848(7)
C7_2 C 0.1117(7) 0.7464(6) 0.8009(14)
H3_2 H 0.1533 0.8061 0.7786
H4_2 H 0.0604 0.7247 0.7552
O8_2 O 0.0859(7) 0.7485(6) 0.9072(14)
H7_2 H 0.0998 0.7994 0.9233
Cu3_2 Cu 0.44178(5) 0.57809(7) 0.93630(5)
N3_2 N 0.4011(5) 0.4975(6) 0.8222(6)
O12_2 O 0.5500(3) 0.5698(4) 0.9195(5)
O13_2 O 0.3224(3) 0.5611(4) 0.9276(4)
O14_2 O 0.2017(4) 0.4985(7) 0.8339(6)
C9_2 C 0.2755(5) 0.5131(7) 0.8550(7)
C10_2 C 0.3126(6) 0.4674(8) 0.7843(10)
H9_2 H 0.3131 0.4831 0.7092
C11_2 C 0.5400(5) 0.5179(6) 0.8459(6)
C12_2 C 0.7209(5) 0.4868(7) 0.7775(7)
C13_2 C 0.6785(5) 0.5214(8) 0.8501(8)
H10_2 H 0.7123 0.5858 0.8497
C14_2 C 0.4549(5) 0.4758(7) 0.7848(7)
C15_2 C 0.2536(6) 0.3653(9) 0.8009(14)
H11_2 H 0.1939 0.3472 0.7786
H12_2 H 0.2753 0.3357 0.7552
C16_2 C 0.6764(7) 0.4872(10) 0.9660(7)
H13_2 H 0.7365 0.5069 0.9876
O18_2 O 0.2515(6) 0.3374(9) 0.9072(14)
H15_2 H 0.2006 0.3004 0.9233
O19_2 O 0.6303(10) 0.4025(14) 0.9811(12)
Cu5_2 Cu 0.42191(7) 0.86369(5) 0.93630(5)
N5_2 N 0.5025(6) 0.9036(4) 0.8222(6)
O22_2 O 0.4302(4) 0.9802(3) 0.9195(5)
O23_2 O 0.4389(4) 0.7613(3) 0.9276(4)
O24_2 O 0.5015(7) 0.7032(6) 0.8339(6)
C17_2 C 0.4869(7) 0.7624(5) 0.8550(7)
C18_2 C 0.5326(8) 0.8452(6) 0.7843(10)
H17_2 H 0.5169 0.8300 0.7092
C22_2 C 0.5242(7) 0.9791(5) 0.7848(7)
C23_2 C 0.6347(9) 0.8883(7) 0.8009(14)
H19_2 H 0.6528 0.8467 0.7786
H20_2 H 0.6643 0.9396 0.7552
O28_2 O 0.6626(9) 0.9141(7) 0.9072(14)
H23_2 H 0.6996 0.9002 0.9233
C3_2 C 0.9779(4) 0.4600(5) 0.8459(6)
C4_2 C 0.7659(5) 0.2791(5) 0.7775(7)
C5_2 C 0.8429(6) 0.3215(5) 0.8501(8)
H2_2 H 0.8735 0.2877 0.8497
C8_2 C 0.8108(7) 0.3236(7) 0.9660(7)
H5_2 H 0.7704 0.2635 0.9876
O9_2 O 0.7722(10) 0.3697(10) 0.9811(12)
H22_2 H 0.4849 0.1386 0.0131
H24_2 H 0.6123 0.2673 0.0255
H6_2 H 0.8614 0.3463 0.0131
H8_2 H 0.7327 0.3450 0.0255
loop_
_geom_bond_atom_site_label_1
_geom_bond_atom_site_label_2
_geom_bond_site_symmetry_1
_geom_bond_site_symmetry_2
N2 C3 1_555 1_555
O6 C4 1_555 1_555
O7 C4 1_555 1_555
C4 C5 1_555 1_555
C5 N2 1_555 1_555
H2 C5 1_555 1_555
C8 C5 1_555 1_555
H5 C8 1_555 1_555
H6 C8 1_555 1_555
O9 C8 1_555 1_555
H8 O9 1_555 1_555
Ca4 O6 1_555 1_555
Cu8 N2 1_555 1_555
Cu12 O7 1_555 1_555
O5 Cu8 1_555 1_555
O6 Cu8 1_555 1_555
Ca1 O1 1_555 1_555
Cu1 N1 1_555 1_555
Cu2 O1 1_555 1_555
N1 C2 1_555 1_555
O1 Cu1 1_555 1_555
O2 Cu1 1_555 1_555
O3 Ca1 1_555 1_555
O4 C1 1_555 1_555
C1 O3 1_555 1_555
C2 C1 1_555 1_555
H1 C2 1_555 1_555
C6 N1 1_555 1_555
C7 C2 1_555 1_555
H3 C7 1_555 1_555
H4 C7 1_555 1_555
O8 C7 1_555 1_555
H7 O8 1_555 1_555
O10 Cu1 1_555 1_555
Cu3 N3 1_555 1_555
Cu4 O11 1_555 1_555
N3 C10 1_555 1_555
N4 C11 1_555 1_555
O11 Ca1 1_555 1_555
O12 Cu3 1_555 1_555
O13 Ca1 1_555 1_555
O14 Cu1 1_555 1_555
O15 C14 1_555 1_555
O16 C12 1_555 1_555
O17 C12 1_555 1_555
C9 O13 1_555 1_555
C10 C9 1_555 1_555
H9 C10 1_555 1_555
C11 O12 1_555 1_555
C12 C13 1_555 1_555
C13 N4 1_555 1_555
H10 C13 1_555 1_555
C14 N3 1_555 1_555
C15 C10 1_555 1_555
H11 C15 1_555 1_555
H12 C15 1_555 1_555
C16 C13 1_555 1_555
H13 C16 1_555 1_555
H14 C16 1_555 1_555
O18 C15 1_555 1_555
H15 O18 1_555 1_555
O19 C16 1_555 1_555
H16 O19 1_555 1_555
O20 Cu3 1_555 1_555
Cu5 O4 1_555 1_555
Cu6 O21 1_555 1_555
N5 Cu5 1_555 1_555
O21 Ca1 1_555 1_555
O22 Cu5 1_555 1_555
O23 Ca1 1_555 1_555
O24 Cu3 1_555 1_555
C17 O23 1_555 1_555
C18 N5 1_555 1_555
H17 C18 1_555 1_555
C22 N5 1_555 1_555
C23 C18 1_555 1_555
H19 C23 1_555 1_555
H20 C23 1_555 1_555
O28 C23 1_555 1_555
H23 O28 1_555 1_555
O30 Cu5 1_555 1_555
Ca4 O16 1_555 1_555
Cu8 O17 1_555 1_555
Cu10 N4 1_555 1_555
N7 Cu2 1_555 1_555
N8 Cu4 1_555 1_555
N9 Cu6 1_555 1_555
O31 Cu2 1_555 1_555
O32 Cu4 1_555 1_555
O33 Cu6 1_555 1_555
O34 Ca1 1_555 1_555
O35 Ca1 1_555 1_555
O36 Ca1 1_555 1_555
O37 Cu6 1_555 1_555
O38 Cu2 1_555 1_555
O39 Cu4 1_555 1_555
Cu1 O3 1_555 1_555
Cu2 O10 1_555 1_555
Cu2 O34 1_555 1_555
Cu3 O11 1_555 1_555
Cu3 O13 1_555 1_555
Cu4 O20 1_555 1_555
Cu4 O35 1_555 1_555
O14 C9 1_555 1_555
O15 Cu10 1_555 1_555
O16 Cu10 1_555 1_555
C11 C14 1_555 1_555
Cu5 O21 1_555 1_555
Cu5 O23 1_555 1_555
Cu6 O30 1_555 1_555
Cu6 O36 1_555 1_555
O24 C17 1_555 1_555
C17 C18 1_555 1_555
N6 C19 1_555 1_555
O26 C20 1_555 1_555
O27 C20 1_555 1_555
C20 C21 1_555 1_555
C21 N6 1_555 1_555
H18 C21 1_555 1_555
C24 C21 1_555 1_555
H21 C24 1_555 1_555
H22 C24 1_555 1_555
O29 C24 1_555 1_555
H24 O29 1_555 1_555
Ca4 O26 1_555 1_555
Cu10 O27 1_555 1_555
Cu12 N6 1_555 1_555
O25 Cu12 1_555 1_555
O26 Cu12 1_555 1_555
N9 C19_2 1_555 1_555
O36 C20_2 1_555 1_555
O39 C20_2 1_555 1_555
C20_2 C21_2 1_555 1_555
C21_2 N9 1_555 1_555
H18_2 C21_2 1_555 1_555
C24_2 C21_2 1_555 1_555
H21_2 C24_2 1_555 1_555
O29_2 C24_2 1_555 1_555
Ca4 O1_2 1_555 1_555
Cu8 O1_2 1_555 1_555
Cu10 O11_2 1_555 1_555
O11_2 Ca4 1_555 1_555
Cu12 O21_2 1_555 1_555
O21_2 Ca4 1_555 1_555
Cu8 O10_2 1_555 1_555
Cu10 O20_2 1_555 1_555
Cu12 O30_2 1_555 1_555
Cu1_2 N1_2 1_555 1_555
N1_2 C2_2 1_555 1_555
O2_2 Cu1_2 1_555 1_555
O4_2 C1_2 1_555 1_555
C1_2 O3_2 1_555 1_555
C2_2 C1_2 1_555 1_555
H1_2 C2_2 1_555 1_555
C6_2 N1_2 1_555 1_555
C7_2 C2_2 1_555 1_555
H3_2 C7_2 1_555 1_555
H4_2 C7_2 1_555 1_555
O8_2 C7_2 1_555 1_555
H7_2 O8_2 1_555 1_555
Cu3_2 N3_2 1_555 1_555
N3_2 C10_2 1_555 1_555
N8 C11_2 1_555 1_555
O12_2 Cu3_2 1_555 1_555
O14_2 Cu1_2 1_555 1_555
O32 C14_2 1_555 1_555
O35 C12_2 1_555 1_555
O38 C12_2 1_555 1_555
C9_2 O13_2 1_555 1_555
C10_2 C9_2 1_555 1_555
H9_2 C10_2 1_555 1_555
C11_2 O12_2 1_555 1_555
C12_2 C13_2 1_555 1_555
C13_2 N8 1_555 1_555
H10_2 C13_2 1_555 1_555
C14_2 N3_2 1_555 1_555
C15_2 C10_2 1_555 1_555
H11_2 C15_2 1_555 1_555
H12_2 C15_2 1_555 1_555
C16_2 C13_2 1_555 1_555
H13_2 C16_2 1_555 1_555
O18_2 C15_2 1_555 1_555
H15_2 O18_2 1_555 1_555
O19_2 C16_2 1_555 1_555
Cu5_2 O4_2 1_555 1_555
N5_2 Cu5_2 1_555 1_555
O22_2 Cu5_2 1_555 1_555
O24_2 Cu3_2 1_555 1_555
C17_2 O23_2 1_555 1_555
C18_2 N5_2 1_555 1_555
H17_2 C18_2 1_555 1_555
C22_2 N5_2 1_555 1_555
C23_2 C18_2 1_555 1_555
H19_2 C23_2 1_555 1_555
H20_2 C23_2 1_555 1_555
O28_2 C23_2 1_555 1_555
H23_2 O28_2 1_555 1_555
Cu1_2 O3_2 1_555 1_555
Cu3_2 O13_2 1_555 1_555
O14_2 C9_2 1_555 1_555
C11_2 C14_2 1_555 1_555
Cu5_2 O23_2 1_555 1_555
O24_2 C17_2 1_555 1_555
C17_2 C18_2 1_555 1_555
N7 C3_2 1_555 1_555
O34 C4_2 1_555 1_555
O37 C4_2 1_555 1_555
C4_2 C5_2 1_555 1_555
C5_2 N7 1_555 1_555
H2_2 C5_2 1_555 1_555
C8_2 C5_2 1_555 1_555
H5_2 C8_2 1_555 1_555
O9_2 C8_2 1_555 1_555

#END
