
###############################################################################
#
# This file contains modified crystal structure data generated from the
# MOF subset of the Cambridge Structural Database (CSD) v543 
# hosted by the Cambridge Crystallographic Data Centre (CCDC).
#
# This work is licensed under the Creative Commons
# Attribution-NonCommercial-ShareAlike 4.0 International License.
# To view a copy of this license, visit
# http://creativecommons.org/licenses/by-nc-sa/4.0/
# or send a letter to
# Creative Commons, PO Box 1866, Mountain View, CA 94042, USA.
#
# CIF created using the CSD Python API on 29 September 2022
# The structure has been converted into the P1 space group
# The structure has a 3D framework
# The original CSD entry TEXWAX is in the hexagonal crystal system
# The original CSD entry TEXWAX is in a Sohncke space group
# The framework has been calculated to contain at least 10.0% void space
# The void calculation uses a probe of radius 1.32A, grid spacing 0.4
# H atom positions have been added when not included in the experimental data
#
###############################################################################

data_TEXWAX
_chemical_formula_moiety         '(C48 H60 Ca2 Cu9 N12 O56)n'
_symmetry_cell_setting           triclinic
_symmetry_space_group_name_H-M   'P 1'
_symmetry_Int_Tables_number      1
_space_group_name_Hall           'P 1'
loop_
_symmetry_equiv_pos_site_id
_symmetry_equiv_pos_as_xyz
1 x,y,z
_cell_length_a                   17.9035(9)
_cell_length_b                   17.9035(9)
_cell_length_c                   12.6421(7)
_cell_angle_alpha                90
_cell_angle_beta                 90
_cell_angle_gamma                120
_cell_volume                     3509.34
loop_
_atom_site_label
_atom_site_type_symbol
_atom_site_fract_x
_atom_site_fract_y
_atom_site_fract_z
N6 N 0.5891(6) 0.0986(4) 0.3157(5)
O22 O 0.6741(4) 0.2377(3) 0.4288(4)
O23 O 0.4435(4) 0.0211(3) 0.4219(4)
O24 O 0.7968(7) 0.2877(4) 0.3372(5)
C17 C 0.7206(6) 0.2333(4) 0.3516(6)
C19 C 0.6770(6) 0.1576(4) 0.2764(6)
H17 H 0.7109 0.1275 0.2677
C22 C 0.5383(6) 0.0226(4) 0.2844(6)
C23 C 0.6676(16) 0.1991(8) 0.1625(7)
H19 H 0.6291 0.2233 0.1730
H20 H 0.7250 0.2469 0.1414
O28 O 0.6348(22) 0.1378(9) 0.081(2)
H21 H 0.6485 0.1000 0.0913
Cu8 Cu 0.86159(4) 0.41415(4) 0.43443(5)
Cu12 Cu 0.55256(6) 0.13841(4) 0.43443(5)
Ca4 Ca 0.6667 0.3333 0.5668(2)
Cu2 Cu 0.13743(4) 0.57840(5) 0.19646(5)
Ca1 Ca 0.3333 0.6667 0.0668(2)
O1 O 0.1790(2) 0.6426(2) 0.0680(4)
N1 N 0.0975(4) 0.4964(4) 0.3104(5)
O5 O 0.2392(3) 0.5611(3) 0.2037(4)
O6 O 0.2973(4) 0.4986(5) 0.2995(5)
O7 O 0.0209(3) 0.5698(3) 0.2103(4)
C2 C 0.0198(4) 0.4727(4) 0.3468(5)
C4 C 0.2381(4) 0.5133(5) 0.2766(6)
C5 C 0.1525(6) 0.4644(7) 0.3457(8)
H2 H 0.1671 0.4793 0.4220
C8 C 0.1142(7) 0.3658(8) 0.3304(15)
H6 H 0.1565 0.3496 0.3559
H7 H 0.0617 0.3347 0.3743
O9 O 0.0933(12) 0.3391(8) 0.2255(18)
H8 H 0.1387 0.3552 0.1906
O10 O 0.0587(9) 0.4343(11) 0.0541(14)
Cu4 Cu 0.42160(5) 0.55903(6) 0.19646(5)
O11 O 0.3574(2) 0.5364(3) 0.0680(4)
N3 N 0.5036(4) 0.6011(6) 0.3104(5)
N4 N 0.5095(4) 0.4109(6) 0.3157(5)
O12 O 0.5636(3) 0.3259(4) 0.4288(4)
O13 O 0.5776(3) 0.5565(4) 0.4219(4)
O14 O 0.4909(6) 0.2032(7) 0.3372(5)
O15 O 0.4389(3) 0.6781(4) 0.2037(4)
O16 O 0.5014(5) 0.7987(6) 0.2995(5)
O17 O 0.4302(3) 0.4511(4) 0.2103(4)
C9 C 0.5127(4) 0.2794(6) 0.3516(6)
C10 C 0.5273(4) 0.5471(6) 0.3468(5)
C11 C 0.4806(5) 0.3230(6) 0.2764(6)
H9 H 0.4166 0.2891 0.2677
C12 C 0.4867(5) 0.7248(6) 0.2766(6)
C13 C 0.5356(7) 0.6881(9) 0.3457(8)
H10 H 0.5207 0.6878 0.4220
C14 C 0.4843(4) 0.4617(6) 0.2844(6)
C15 C 0.5315(14) 0.3324(16) 0.1625(7)
H11 H 0.5942 0.3709 0.1730
H12 H 0.5219 0.2750 0.1414
O18 O 0.503(2) 0.3652(22) 0.081(2)
H13 H 0.4515 0.3515 0.0913
C16 C 0.6342(8) 0.7484(11) 0.3304(15)
H14 H 0.6504 0.8069 0.3559
H15 H 0.6653 0.7270 0.3743
O19 O 0.6609(8) 0.7542(14) 0.2255(18)
H16 H 0.6448 0.7835 0.1906
O20 O 0.5657(11) 0.6244(14) 0.0541(14)
Cu6 Cu 0.44097(6) 0.86257(4) 0.19646(5)
O21 O 0.4636(3) 0.8210(2) 0.0680(4)
N5 N 0.3989(6) 0.9025(4) 0.3104(5)
O25 O 0.3219(4) 0.7608(3) 0.2037(4)
O26 O 0.2013(6) 0.7027(4) 0.2995(5)
O27 O 0.5489(4) 0.9791(3) 0.2103(4)
C18 C 0.4529(6) 0.9802(4) 0.3468(5)
C20 C 0.2752(6) 0.7619(4) 0.2766(6)
C21 C 0.3119(9) 0.8475(6) 0.3457(8)
H18 H 0.3122 0.8329 0.4220
C24 C 0.2516(11) 0.8858(7) 0.3304(15)
H22 H 0.1931 0.8435 0.3559
H23 H 0.2730 0.9383 0.3743
O29 O 0.2458(14) 0.9067(12) 0.2255(18)
H24 H 0.2165 0.8613 0.1906
O30 O 0.3756(14) 0.9413(9) 0.0541(14)
Cu10 Cu 0.58585(4) 0.44744(6) 0.43443(5)
H25 H 0.0176355 0.43692 0.104678
H26 H 0.0269988 0.384042 0.00631197
H27 H 0.56308 0.580715 0.104678
H28 H 0.615958 0.642957 0.00631197
H29 H 0.419285 0.982364 0.104678
H30 H 0.357043 0.973001 0.00631197
Cu1 Cu 0.13841(4) 0.58585(4) 0.93443(5)
Cu3 Cu 0.41415(4) 0.55256(6) 0.93443(5)
Cu5 Cu 0.44744(6) 0.86159(4) 0.93443(5)
N7 N 0.0986(4) 0.5095(4) 0.8157(5)
N8 N 0.4905(4) 0.5891(6) 0.8157(5)
N9 N 0.4109(6) 0.9014(4) 0.8157(5)
O31 O 0.2377(3) 0.5636(3) 0.9288(4)
O32 O 0.4364(3) 0.6741(4) 0.9288(4)
O33 O 0.3259(4) 0.7623(3) 0.9288(4)
O34 O 0.0211(3) 0.5776(3) 0.9219(4)
O35 O 0.4224(3) 0.4435(4) 0.9219(4)
O36 O 0.5565(4) 0.9789(3) 0.9219(4)
O37 O 0.2877(4) 0.4909(6) 0.8372(5)
O38 O 0.5091(6) 0.7968(7) 0.8372(5)
O39 O 0.2032(7) 0.7123(4) 0.8372(5)
N2 N 0.9014(4) 0.4905(4) 0.3157(5)
O2 O 0.7623(3) 0.4364(3) 0.4288(4)
O3 O 0.9789(3) 0.4224(3) 0.4219(4)
O4 O 0.7123(4) 0.5091(6) 0.3372(5)
C1 C 0.7667(4) 0.4873(4) 0.3516(6)
C3 C 0.8424(4) 0.5194(5) 0.2764(6)
H1 H 0.8725 0.5834 0.2677
C6 C 0.9774(4) 0.5157(4) 0.2844(6)
C7 C 0.8009(8) 0.4685(14) 0.1625(7)
H3 H 0.7767 0.4058 0.1730
H4 H 0.7531 0.4781 0.1414
O8 O 0.8622(9) 0.497(2) 0.081(2)
H5 H 0.9000 0.5485 0.0913
C1_2 C 0.2333(4) 0.5127(4) 0.8516(6)
C3_2 C 0.1576(4) 0.4806(5) 0.7764(6)
H1_2 H 0.1275 0.4166 0.7677
C6_2 C 0.0226(4) 0.4843(4) 0.7844(6)
C7_2 C 0.1991(8) 0.5315(14) 0.6625(7)
H3_2 H 0.2233 0.5942 0.6730
H4_2 H 0.2469 0.5219 0.6414
O8_2 O 0.1378(9) 0.503(2) 0.581(2)
H5_2 H 0.1000 0.4515 0.5913
Cu2_2 Cu 0.86257(4) 0.42160(5) 0.69646(5)
O1_2 O 0.8210(2) 0.3574(2) 0.5680(4)
N1_2 N 0.9025(4) 0.5036(4) 0.8104(5)
O5_2 O 0.7608(3) 0.4389(3) 0.7037(4)
O6_2 O 0.7027(4) 0.5014(5) 0.7995(5)
O7_2 O 0.9791(3) 0.4302(3) 0.7103(4)
C2_2 C 0.9802(4) 0.5273(4) 0.8468(5)
C4_2 C 0.7619(4) 0.4867(5) 0.7766(6)
C5_2 C 0.8475(6) 0.5356(7) 0.8457(8)
H2_2 H 0.8329 0.5207 0.9220
C8_2 C 0.8858(7) 0.6342(8) 0.8304(15)
H6_2 H 0.8435 0.6504 0.8559
H7_2 H 0.9383 0.6653 0.8743
O9_2 O 0.9067(12) 0.6609(8) 0.7255(18)
H8_2 H 0.8613 0.6448 0.6906
O10_2 O 0.9413(9) 0.5657(11) 0.5541(14)
Cu4_2 Cu 0.57840(5) 0.44097(6) 0.69646(5)
O11_2 O 0.6426(2) 0.4636(3) 0.5680(4)
N3_2 N 0.4964(4) 0.3989(6) 0.8104(5)
O15_2 O 0.5611(3) 0.3219(4) 0.7037(4)
O16_2 O 0.4986(5) 0.2013(6) 0.7995(5)
O17_2 O 0.5698(3) 0.5489(4) 0.7103(4)
C9_2 C 0.4873(4) 0.7206(6) 0.8516(6)
C10_2 C 0.4727(4) 0.4529(6) 0.8468(5)
C11_2 C 0.5194(5) 0.6770(6) 0.7764(6)
H9_2 H 0.5834 0.7109 0.7677
C12_2 C 0.5133(5) 0.2752(6) 0.7766(6)
C13_2 C 0.4644(7) 0.3119(9) 0.8457(8)
H10_2 H 0.4793 0.3122 0.9220
C14_2 C 0.5157(4) 0.5383(6) 0.7844(6)
C15_2 C 0.4685(14) 0.6676(16) 0.6625(7)
H11_2 H 0.4058 0.6291 0.6730
H12_2 H 0.4781 0.7250 0.6414
O18_2 O 0.497(2) 0.6348(22) 0.581(2)
H13_2 H 0.5485 0.6485 0.5913
C16_2 C 0.3658(8) 0.2516(11) 0.8304(15)
H14_2 H 0.3496 0.1931 0.8559
H15_2 H 0.3347 0.2730 0.8743
O19_2 O 0.3391(8) 0.2458(14) 0.7255(18)
H16_2 H 0.3552 0.2165 0.6906
O20_2 O 0.4343(11) 0.3756(14) 0.5541(14)
Cu6_2 Cu 0.55903(6) 0.13743(4) 0.69646(5)
O21_2 O 0.5364(3) 0.1790(2) 0.5680(4)
N5_2 N 0.6011(6) 0.0975(4) 0.8104(5)
O25_2 O 0.6781(4) 0.2392(3) 0.7037(4)
O26_2 O 0.7987(6) 0.2973(4) 0.7995(5)
O27_2 O 0.4511(4) 0.0209(3) 0.7103(4)
C18_2 C 0.5471(6) 0.0198(4) 0.8468(5)
C20_2 C 0.7248(6) 0.2381(4) 0.7766(6)
C21_2 C 0.6881(9) 0.1525(6) 0.8457(8)
H18_2 H 0.6878 0.1671 0.9220
C24_2 C 0.7484(11) 0.1142(7) 0.8304(15)
H22_2 H 0.8069 0.1565 0.8559
H23_2 H 0.7270 0.0617 0.8743
O29_2 O 0.7542(14) 0.0933(12) 0.7255(18)
H24_2 H 0.7835 0.1387 0.6906
O30_2 O 0.6244(14) 0.0587(9) 0.5541(14)
H25_2 H 0.982364 0.56308 0.604678
H26_2 H 0.973001 0.615958 0.506312
H27_2 H 0.43692 0.419285 0.604678
H28_2 H 0.384042 0.357043 0.506312
H29_2 H 0.580715 0.0176355 0.604678
H30_2 H 0.642957 0.0269988 0.506312
C17_2 C 0.2794(6) 0.7667(4) 0.8516(6)
C19_2 C 0.3230(6) 0.8424(4) 0.7764(6)
H17_2 H 0.2891 0.8725 0.7677
C22_2 C 0.4617(6) 0.9774(4) 0.7844(6)
C23_2 C 0.3324(16) 0.8009(8) 0.6625(7)
H19_2 H 0.3709 0.7767 0.6730
H20_2 H 0.2750 0.7531 0.6414
O28_2 O 0.3652(22) 0.8622(9) 0.581(2)
H21_2 H 0.3515 0.9000 0.5913
loop_
_geom_bond_atom_site_label_1
_geom_bond_atom_site_label_2
_geom_bond_site_symmetry_1
_geom_bond_site_symmetry_2
N6 C19 1_555 1_555
O22 C17 1_555 1_555
O24 C17 1_555 1_555
C17 C19 1_555 1_555
C19 H17 1_555 1_555
C22 N6 1_555 1_555
C23 C19 1_555 1_555
H19 C23 1_555 1_555
H20 C23 1_555 1_555
O28 C23 1_555 1_555
H21 O28 1_555 1_555
Cu8 O24 1_555 1_555
Cu12 N6 1_555 1_555
Ca4 O22 1_555 1_555
O22 Cu12 1_555 1_555
O23 Cu12 1_555 1_555
Cu2 O1 1_555 1_555
Ca1 O1 1_555 1_555
N1 Cu2 1_555 1_555
O5 Cu2 1_555 1_555
O6 C4 1_555 1_555
O7 Cu2 1_555 1_555
C2 N1 1_555 1_555
C4 O5 1_555 1_555
C5 N1 1_555 1_555
H2 C5 1_555 1_555
C8 C5 1_555 1_555
H6 C8 1_555 1_555
H7 C8 1_555 1_555
O9 C8 1_555 1_555
H8 O9 1_555 1_555
Cu4 O6 1_555 1_555
O11 Ca1 1_555 1_555
N3 Cu4 1_555 1_555
N4 C11 1_555 1_555
O12 C9 1_555 1_555
O13 C10 1_555 1_555
O14 C9 1_555 1_555
O15 Ca1 1_555 1_555
O16 C12 1_555 1_555
O17 Cu4 1_555 1_555
C9 C11 1_555 1_555
C10 N3 1_555 1_555
C11 H9 1_555 1_555
C12 O15 1_555 1_555
C13 N3 1_555 1_555
H10 C13 1_555 1_555
C14 N4 1_555 1_555
C15 C11 1_555 1_555
H11 C15 1_555 1_555
H12 C15 1_555 1_555
O18 C15 1_555 1_555
H13 O18 1_555 1_555
C16 C13 1_555 1_555
H14 C16 1_555 1_555
H15 C16 1_555 1_555
O19 C16 1_555 1_555
H16 O19 1_555 1_555
Cu6 O16 1_555 1_555
O21 Ca1 1_555 1_555
N5 Cu6 1_555 1_555
O25 Ca1 1_555 1_555
O26 Cu2 1_555 1_555
O27 Cu6 1_555 1_555
C18 N5 1_555 1_555
C20 O25 1_555 1_555
C21 N5 1_555 1_555
H18 C21 1_555 1_555
C24 C21 1_555 1_555
H22 C24 1_555 1_555
H23 C24 1_555 1_555
O29 C24 1_555 1_555
H24 O29 1_555 1_555
Cu10 N4 1_555 1_555
Cu12 O14 1_555 1_555
Ca4 O12 1_555 1_555
Ca1 O5 1_555 1_555
C4 C5 1_555 1_555
Cu4 O11 1_555 1_555
Cu4 O15 1_555 1_555
O12 Cu10 1_555 1_555
O13 Cu10 1_555 1_555
O17 C14 1_555 1_555
C10 C14 1_555 1_555
C12 C13 1_555 1_555
Cu6 O21 1_555 1_555
Cu6 O25 1_555 1_555
O26 C20 1_555 1_555
C20 C21 1_555 1_555
O10 H25 1_555 1_555
O10 H26 1_555 1_555
O20 H27 1_555 1_555
O20 H28 1_555 1_555
O30 H29 1_555 1_555
O30 H30 1_555 1_555
N7 Cu1 1_555 1_555
N8 Cu3 1_555 1_555
N9 Cu5 1_555 1_555
O31 Cu1 1_555 1_555
O34 Cu1 1_555 1_555
O35 Cu3 1_555 1_555
O36 Cu5 1_555 1_555
O37 Cu3 1_555 1_555
O38 Cu5 1_555 1_555
O39 Cu1 1_555 1_555
Cu3 O32 1_555 1_555
Cu5 O33 1_555 1_555
N2 C3 1_555 1_555
O2 C1 1_555 1_555
O4 C1 1_555 1_555
C1 C3 1_555 1_555
C3 H1 1_555 1_555
C6 N2 1_555 1_555
C7 C3 1_555 1_555
H3 C7 1_555 1_555
H4 C7 1_555 1_555
O8 C7 1_555 1_555
H5 O8 1_555 1_555
Cu8 N2 1_555 1_555
Cu10 O4 1_555 1_555
Ca4 O2 1_555 1_555
O2 Cu8 1_555 1_555
O3 Cu8 1_555 1_555
N7 C3_2 1_555 1_555
O31 C1_2 1_555 1_555
O37 C1_2 1_555 1_555
C1_2 C3_2 1_555 1_555
C3_2 H1_2 1_555 1_555
C6_2 N7 1_555 1_555
C7_2 C3_2 1_555 1_555
H3_2 C7_2 1_555 1_555
H4_2 C7_2 1_555 1_555
O8_2 C7_2 1_555 1_555
H5_2 O8_2 1_555 1_555
Cu8 O1_2 1_555 1_555
Cu2_2 O1_2 1_555 1_555
Ca4 O1_2 1_555 1_555
N1_2 Cu2_2 1_555 1_555
O5_2 Cu2_2 1_555 1_555
O6_2 C4_2 1_555 1_555
O7_2 Cu2_2 1_555 1_555
C2_2 N1_2 1_555 1_555
C4_2 O5_2 1_555 1_555
C5_2 N1_2 1_555 1_555
H2_2 C5_2 1_555 1_555
C8_2 C5_2 1_555 1_555
H6_2 C8_2 1_555 1_555
H7_2 C8_2 1_555 1_555
O9_2 C8_2 1_555 1_555
H8_2 O9_2 1_555 1_555
O10_2 Cu8 1_555 1_555
Cu10 O11_2 1_555 1_555
Cu4_2 O6_2 1_555 1_555
O11_2 Ca4 1_555 1_555
N3_2 Cu4_2 1_555 1_555
N8 C11_2 1_555 1_555
O32 C9_2 1_555 1_555
O35 C10_2 1_555 1_555
O38 C9_2 1_555 1_555
O15_2 Ca4 1_555 1_555
O16_2 C12_2 1_555 1_555
O17_2 Cu4_2 1_555 1_555
C9_2 C11_2 1_555 1_555
C10_2 N3_2 1_555 1_555
C11_2 H9_2 1_555 1_555
C12_2 O15_2 1_555 1_555
C13_2 N3_2 1_555 1_555
H10_2 C13_2 1_555 1_555
C14_2 N8 1_555 1_555
C15_2 C11_2 1_555 1_555
H11_2 C15_2 1_555 1_555
H12_2 C15_2 1_555 1_555
O18_2 C15_2 1_555 1_555
H13_2 O18_2 1_555 1_555
C16_2 C13_2 1_555 1_555
H14_2 C16_2 1_555 1_555
H15_2 C16_2 1_555 1_555
O19_2 C16_2 1_555 1_555
H16_2 O19_2 1_555 1_555
O20_2 Cu10 1_555 1_555
Cu12 O21_2 1_555 1_555
Cu6_2 O16_2 1_555 1_555
O21_2 Ca4 1_555 1_555
N5_2 Cu6_2 1_555 1_555
O25_2 Ca4 1_555 1_555
O26_2 Cu2_2 1_555 1_555
O27_2 Cu6_2 1_555 1_555
C18_2 N5_2 1_555 1_555
C20_2 O25_2 1_555 1_555
C21_2 N5_2 1_555 1_555
H18_2 C21_2 1_555 1_555
C24_2 C21_2 1_555 1_555
H22_2 C24_2 1_555 1_555
H23_2 C24_2 1_555 1_555
O29_2 C24_2 1_555 1_555
H24_2 O29_2 1_555 1_555
O30_2 Cu12 1_555 1_555
Ca4 O5_2 1_555 1_555
C4_2 C5_2 1_555 1_555
Cu4_2 O11_2 1_555 1_555
Cu4_2 O15_2 1_555 1_555
O17_2 C14_2 1_555 1_555
C10_2 C14_2 1_555 1_555
C12_2 C13_2 1_555 1_555
Cu6_2 O21_2 1_555 1_555
Cu6_2 O25_2 1_555 1_555
O26_2 C20_2 1_555 1_555
C20_2 C21_2 1_555 1_555
O10_2 H25_2 1_555 1_555
O10_2 H26_2 1_555 1_555
O20_2 H27_2 1_555 1_555
O20_2 H28_2 1_555 1_555
O30_2 H29_2 1_555 1_555
O30_2 H30_2 1_555 1_555
N9 C19_2 1_555 1_555
O33 C17_2 1_555 1_555
O39 C17_2 1_555 1_555
C17_2 C19_2 1_555 1_555
C19_2 H17_2 1_555 1_555
C22_2 N9 1_555 1_555
C23_2 C19_2 1_555 1_555
H19_2 C23_2 1_555 1_555
H20_2 C23_2 1_555 1_555
O28_2 C23_2 1_555 1_555
H21_2 O28_2 1_555 1_555

#END
