####################################################################### 
# 
# This file contains crystal structure data downloaded from the 
# Cambridge Structural Database (CSD) hosted by the Cambridge 
# Crystallographic Data Centre (CCDC).
# 
# Full information about CCDC data access policies and citation 
# guidelines are available at http://www.ccdc.cam.ac.uk/access/V1 
# 
# Audit and citation data items may have been added by the CCDC. 
# Please retain this information to preserve the provenance of 
# this file and to allow appropriate attribution of the data. 
# 
#######################################################################

data_freds
_audit_block_doi                 10.5517/ccpjlrj
_database_code_depnum_ccdc_archive 'CCDC 641568'
loop_
_citation_id
_citation_doi
_citation_year
1 10.1021/ja068819l 2007
_audit_update_record             
;
2007-03-23 deposited with the CCDC.	2024-07-13 downloaded from the CCDC.
;
_symmetry_cell_setting           monoclinic
_symmetry_space_group_name_H-M   'C 2'
_symmetry_Int_Tables_number      5
loop_
_symmetry_equiv_pos_site_id
_symmetry_equiv_pos_as_xyz
1 x,y,z
2 1/2+x,1/2+y,z
3 -x,y,-z
4 1/2-x,1/2+y,-z
_cell_length_a                   21.197
_cell_length_b                   22.066
_cell_length_c                   15.314
_cell_angle_alpha                90
_cell_angle_beta                 92.97
_cell_angle_gamma                90
_cell_volume                     7153.24
loop_
_atom_site_label
_atom_site_type_symbol
_atom_site_fract_x
_atom_site_fract_y
_atom_site_fract_z
Au1 Au 0.0801488 0.454096 0.0137967
Au2 Au 0.2967 0.451694 0.232516
Au3 Au 0.390676 0.517996 0.392845
Cl1 Cl 0 0.381495 0
Cl2' Cl 0.379315 0.520897 0.241605
P1 P 0.162088 0.517906 0.0224931
P2 P 0.219203 0.38281 0.215189
P3 P 0.403193 0.52212 0.538397
C1 C 0.18838 0.547816 0.139013
C2 C 0.229406 0.5959 0.13097
H2A' H 0.240899 0.610311 0.0774836
C3 C 0.252419 0.621414 0.208977
H3A' H 0.280205 0.653998 0.208977
C4 C 0.233209 0.597712 0.286984
C5 C 0.256776 0.623907 0.371006
H5A' H 0.2847 0.6564 0.370875
C6 C 0.2392 0.602018 0.446005
H6A' H 0.254575 0.619012 0.498903
C7 C 0.195987 0.551396 0.446005
H7A' H 0.182798 0.535217 0.498314
C8 C 0.175097 0.52842 0.367998
H8A' H 0.147317 0.495926 0.368194
C9 C 0.190013 0.547091 0.295026
C10 C 0.165303 0.519809 0.198123
C11 C 0.120079 0.465607 0.2112
C12 C 0.0579921 0.487995 0.216169
C13 C 0.040988 0.551985 0.209304
H13A' H 0.0698844 0.582394 0.20113
C14 C -0.0199996 0.562001 0.215908
H14A' H -0.0320021 0.602924 0.211592
C15 C -0.0719803 0.520987 0.228724
H15A' H -0.114108 0.532589 0.232516
C16 C -0.0519912 0.459988 0.234674
H16A' H -0.0825835 0.430395 0.242913
C17 C 0.00820103 0.440501 0.229508
C18 C 0.0304847 0.381314 0.235001
H18A' H 0.000602444 0.351222 0.243305
C19 C 0.0926013 0.362416 0.229574
H19A' H 0.10221 0.321402 0.234216
C20 C 0.142603 0.405514 0.216823
C21 C 0.229717 0.484687 -0.0209892
C22 C 0.222477 0.445712 -0.0910187
H22A' H 0.181484 0.437011 -0.1124
C23 C 0.269999 0.419609 -0.13097
H23A' H 0.261215 0.393822 -0.177918
C24 C 0.327987 0.430712 -0.102985
H24A' H 0.361212 0.412403 -0.130382
C25 C 0.340792 0.468689 -0.0330204
H25A' H 0.382397 0.476121 -0.014189
C26 C 0.291319 0.496696 0.00902341
H26A' H 0.29969 0.522483 0.0562982
C27 C 0.142489 0.587516 -0.0374014
C28 C 0.176719 0.608317 -0.101023
H28A' H 0.210788 0.585612 -0.118481
C29 C 0.162895 0.663515 -0.143982
H29A' H 0.187885 0.676613 -0.188511
C30 C 0.113314 0.697822 -0.119985
H30A' H 0.1039 0.734394 -0.148428
C31 C 0.0780023 0.677021 -0.0549905
H31A' H 0.043494 0.699907 -0.0379245
C32 C 0.0927806 0.621006 -0.013012
H32A' H 0.0683021 0.607728 0.0313204
C33 C 0.223413 0.342022 0.112008
C34 C 0.286404 0.33178 0.0819953
H34A' H 0.321717 0.346192 0.114231
C35 C 0.292978 0.301689 0.00797721
H35A' H 0.332712 0.2948 -0.0119004
C36 C 0.237 0.279392 -0.0419785
H36A H 0.241495 0.258182 -0.0933726
C37 C 0.177999 0.290495 -0.0100042
H37A' H 0.141398 0.276808 -0.0400822
C38 C 0.173385 0.321584 0.0659755
H38A' H 0.133608 0.328789 0.0872263
C39 C 0.223182 0.324801 0.303984
C40 C 0.219189 0.345014 0.388987
H40A' H 0.215794 0.386798 0.399122
C41 C 0.220184 0.306991 0.456009
H41A' H 0.217491 0.321221 0.512699
C42 C 0.225199 0.245992 0.439989
H42A' H 0.225972 0.218709 0.485891
C43 C 0.229308 0.225009 0.353024
H43A' H 0.232684 0.183723 0.342366
C44 C 0.228284 0.265297 0.283976
H44A' H 0.230908 0.2522 0.226697
C45 C 0.456996 0.465018 0.588221
C46 C 0.450801 0.459127 0.684994
H46A' H 0.421887 0.483418 0.712914
C47 C 0.4874 0.418294 0.733969
H47A' H 0.483714 0.414488 0.794387
C48 C 0.529301 0.383716 0.690029
C49 C 0.569976 0.339213 0.736977
H49A' H 0.566693 0.335089 0.796806
C50 C 0.608975 0.305994 0.699968
H50A' H 0.633087 0.279301 0.734165
C51 C 0.618992 0.307988 0.606988
H51A' H 0.648683 0.282881 0.582206
C52 C 0.580601 0.351494 0.552978
H52A' H 0.584905 0.354621 0.492691
C53 C 0.535872 0.388701 0.596983
C54 C 0.494885 0.433793 0.548008
C55 C 0.333576 0.509295 0.589268
C56 C 0.306094 0.549085 0.64792
H56A' H 0.326491 0.585521 0.660997
C57 C 0.248811 0.536305 0.688002
H57A' H 0.232095 0.563814 0.726711
C58 C 0.217483 0.480699 0.668974
H58A' H 0.179777 0.471 0.693887
C59 C 0.243214 0.442993 0.613984
H59A' H 0.222305 0.406919 0.601103
C60 C 0.299095 0.454006 0.572986
H60A' H 0.314316 0.425319 0.534669
C61 C 0.433075 0.597803 0.572986
C62 C 0.412712 0.645796 0.522965
H62A' H 0.387183 0.640403 0.47229
C63 C 0.432903 0.705707 0.551997
H63A' H 0.421011 0.740603 0.521592
C64 C 0.47287 0.708019 0.633012
H64A' H 0.486301 0.745724 0.652824
C65 C 0.489902 0.665011 0.675971
H65A' H 0.515405 0.67199 0.725926
C66 C 0.473608 0.604691 0.654001
H66A' H 0.487194 0.57179 0.688067
Au1' Au -0.0801488 0.454096 -0.0137967
Au2' Au -0.2967 0.451694 -0.232516
Au3' Au -0.390676 0.517996 -0.392845
Cl2 Cl -0.379315 0.520897 -0.241605
P1' P -0.162088 0.517906 -0.0224931
P2' P -0.219203 0.38281 -0.215189
P3' P -0.403193 0.52212 -0.538397
C1' C -0.18838 0.547816 -0.139013
C2' C -0.229406 0.5959 -0.13097
H2A H -0.240899 0.610311 -0.0774836
C3' C -0.252419 0.621414 -0.208977
H3A H -0.280205 0.653998 -0.208977
C4' C -0.233209 0.597712 -0.286984
C5' C -0.256776 0.623907 -0.371006
H5A H -0.2847 0.6564 -0.370875
C6' C -0.2392 0.602018 -0.446005
H6A H -0.254575 0.619012 -0.498903
C7' C -0.195987 0.551396 -0.446005
H7A H -0.182798 0.535217 -0.498314
C8' C -0.175097 0.52842 -0.367998
H8A H -0.147317 0.495926 -0.368194
C9' C -0.190013 0.547091 -0.295026
C10' C -0.165303 0.519809 -0.198123
C11' C -0.120079 0.465607 -0.2112
C12' C -0.0579921 0.487995 -0.216169
C13' C -0.040988 0.551985 -0.209304
H13A H -0.0698844 0.582394 -0.20113
C14' C 0.0199996 0.562001 -0.215908
H14A H 0.0320021 0.602924 -0.211592
C15' C 0.0719803 0.520987 -0.228724
H15A H 0.114108 0.532589 -0.232516
C16' C 0.0519912 0.459988 -0.234674
H16A H 0.0825835 0.430395 -0.242913
C17' C -0.00820103 0.440501 -0.229508
C18' C -0.0304847 0.381314 -0.235001
H18A H -0.000602444 0.351222 -0.243305
C19' C -0.0926013 0.362416 -0.229574
H19A H -0.10221 0.321402 -0.234216
C20' C -0.142603 0.405514 -0.216823
C21' C -0.229717 0.484687 0.0209892
C22' C -0.222477 0.445712 0.0910187
H22A H -0.181484 0.437011 0.1124
C23' C -0.269999 0.419609 0.13097
H23A H -0.261215 0.393822 0.177918
C24' C -0.327987 0.430712 0.102985
H24A H -0.361212 0.412403 0.130382
C25' C -0.340792 0.468689 0.0330204
H25A H -0.382397 0.476121 0.014189
C26' C -0.291319 0.496696 -0.00902341
H26A H -0.29969 0.522483 -0.0562982
C27' C -0.142489 0.587516 0.0374014
C28' C -0.176719 0.608317 0.101023
H28A H -0.210788 0.585612 0.118481
C29' C -0.162895 0.663515 0.143982
H29A H -0.187885 0.676613 0.188511
C30' C -0.113314 0.697822 0.119985
H30A H -0.1039 0.734394 0.148428
C31' C -0.0780023 0.677021 0.0549905
H31A H -0.043494 0.699907 0.0379245
C32' C -0.0927806 0.621006 0.013012
H32A H -0.0683021 0.607728 -0.0313204
C33' C -0.223413 0.342022 -0.112008
C34' C -0.286404 0.33178 -0.0819953
H34A H -0.321717 0.346192 -0.114231
C35' C -0.292978 0.301689 -0.00797721
H35A H -0.332712 0.2948 0.0119004
C36' C -0.237 0.279392 0.0419785
H36' C -0.177999 0.290495 0.0100042
H37A H -0.141398 0.276808 0.0400822
C38' C -0.173385 0.321584 -0.0659755
H38A H -0.133608 0.328789 -0.0872263
C39' C -0.223182 0.324801 -0.303984
C40' C -0.219189 0.345014 -0.388987
H40A H -0.215794 0.386798 -0.399122
C41' C -0.220184 0.306991 -0.456009
H41A H -0.217491 0.321221 -0.512699
C42' C -0.225199 0.245992 -0.439989
H42A H -0.225972 0.218709 -0.485891
C43' C -0.229308 0.225009 -0.353024
H43A H -0.232684 0.183723 -0.342366
C44' C -0.228284 0.265297 -0.283976
H44A H -0.230908 0.2522 -0.226697
C45' C -0.456996 0.465018 -0.588221
C46' C -0.450801 0.459127 -0.684994
H46A H -0.421887 0.483418 -0.712914
C47' C -0.4874 0.418294 -0.733969
H47A H -0.483714 0.414488 -0.794387
C48' C -0.529301 0.383716 -0.690029
C49' C -0.569976 0.339213 -0.736977
H49A H -0.566693 0.335089 -0.796806
C50' C -0.608975 0.305994 -0.699968
H50A H -0.633087 0.279301 -0.734165
C51' C -0.618992 0.307988 -0.606988
H51A H -0.648683 0.282881 -0.582206
C52' C -0.580601 0.351494 -0.552978
H52A H -0.584905 0.354621 -0.492691
C53' C -0.535872 0.388701 -0.596983
C54' C -0.494885 0.433793 -0.548008
C55' C -0.333576 0.509295 -0.589268
C56' C -0.306094 0.549085 -0.64792
H56A H -0.326491 0.585521 -0.660997
C57' C -0.248811 0.536305 -0.688002
H57A H -0.232095 0.563814 -0.726711
C58' C -0.217483 0.480699 -0.668974
H58A H -0.179777 0.471 -0.693887
C59' C -0.243214 0.442993 -0.613984
H59A H -0.222305 0.406919 -0.601103
C60' C -0.299095 0.454006 -0.572986
H60A H -0.314316 0.425319 -0.534669
C61' C -0.433075 0.597803 -0.572986
C62' C -0.412712 0.645796 -0.522965
H62A H -0.387183 0.640403 -0.47229
C63' C -0.432903 0.705707 -0.551997
H63A H -0.421011 0.740603 -0.521592
C64' C -0.47287 0.708019 -0.633012
H64A H -0.486301 0.745724 -0.652824
C65' C -0.489902 0.665011 -0.675971
H65A H -0.515405 0.67199 -0.725926
C66' C -0.473608 0.604691 -0.654001
H66A H -0.487194 0.57179 -0.688067
C54'' C -0.505073 0.433793 -0.45202
C54''' C 0.505073 0.433793 0.45202

#END
