
###############################################################################
#
# This file contains modified crystal structure data generated from the
# MOF subset of the Cambridge Structural Database (CSD) v543 
# hosted by the Cambridge Crystallographic Data Centre (CCDC).
#
# This work is licensed under the Creative Commons
# Attribution-NonCommercial-ShareAlike 4.0 International License.
# To view a copy of this license, visit
# http://creativecommons.org/licenses/by-nc-sa/4.0/
# or send a letter to
# Creative Commons, PO Box 1866, Mountain View, CA 94042, USA.
#
# CIF created using the CSD Python API on 29 September 2022
# The structure has been converted into the P1 space group
# The structure has a 3D framework
# The original CSD entry TIBJOG is in the triclinic crystal system
# The framework has been calculated to contain at least 10.0% void space
# The void calculation uses a probe of radius 1.32A, grid spacing 0.4
#
###############################################################################

data_TIBJOG
_chemical_formula_moiety         '(C74 H36 Co2 N12 O28 U4)n'
_symmetry_cell_setting           triclinic
_symmetry_space_group_name_H-M   'P 1'
_symmetry_Int_Tables_number      1
_space_group_name_Hall           'P 1'
loop_
_symmetry_equiv_pos_site_id
_symmetry_equiv_pos_as_xyz
1 x,y,z
_cell_length_a                   11.3944(3)
_cell_length_b                   12.3861(3)
_cell_length_c                   17.2365(5)
_cell_angle_alpha                79.1770(10)
_cell_angle_beta                 81.6320(10)
_cell_angle_gamma                76.7690(10)
_cell_volume                     2312.51
loop_
_atom_site_label
_atom_site_type_symbol
_atom_site_fract_x
_atom_site_fract_y
_atom_site_fract_z
O34 O 0.0300(4) 0.1562(3) 0.8075(2)
C28 C 0.0522(5) 0.0080(4) 0.7323(3)
O14 O 0.0597(3) 0.6777(3) 0.0827(2)
U9 U 0.13988(2) 0.67390(2) 0.19837(2)
U1 U 0.86012(2) 0.32610(2) 0.80163(2)
N1 N 0.2625(4) 0.6517(3) 0.5866(2)
O1 O 0.2583(3) 0.6173(3) 0.3081(2)
O2 O 0.7568(4) 0.2477(3) 0.8582(2)
U2 U 0.5000 0.0000 0.5000
Co1 Co 0.19072(6) 0.63259(6) 0.69609(4)
O3 O 0.4722(3) 0.1283(3) 0.5853(2)
O4 O 0.7463(3) 0.4922(3) 0.8356(2)
O5 O 0.4185(4) 0.0659(3) 0.7131(2)
O6 O 0.6205(4) 0.0582(3) 0.4434(2)
N2 N 0.1173(3) 0.6101(3) 0.8056(2)
N3 N 0.2352(3) 0.4752(3) 0.6865(2)
N4 N 0.0362(4) 0.6631(3) 0.6550(2)
O8 O 0.3899(4) 0.7324(4) 0.2942(2)
N5 N 0.3378(4) 0.6096(3) 0.7445(2)
N6 N 0.1497(4) 0.7916(3) 0.7037(2)
C1 C 0.2906(5) 0.7573(4) 0.4573(3)
H1 H 0.2951 0.8276 0.4248
C2 C 0.2943(4) 0.5559(4) 0.5545(3)
C3 C 0.3126(4) 0.6606(4) 0.4235(3)
C4 C 0.1547(4) 0.6174(4) 0.9376(3)
H2 H 0.2103 0.6174 0.9736
H3 H 0.0350 0.5204 0.6199
C6 C 0.3227(4) 0.5948(4) 0.8255(3)
C7 C 0.2620(5) 0.7510(4) 0.5385(3)
H4 H 0.2417 0.8182 0.5609
C9 C 0.0000(4) 0.6135(4) 0.8312(3)
C11 C 0.3241(5) 0.6708(4) 0.3337(3)
C12 C 0.3182(4) 0.5576(4) 0.4734(3)
H8 H 0.3381 0.4895 0.4521
C13 C 0.4497(4) 0.6039(4) 0.7068(3)
H9 H 0.4598 0.6169 0.6504
C14 C 0.2293(4) 0.3883(4) 0.7457(3)
H10 H 0.1870 0.4021 0.7957
O11 O 0.6371(4) 0.5513(4) 0.9428(2)
C15 C 0.0326(5) 0.6289(4) 0.9626(3)
C16 C 0.3476(4) 0.2578(4) 0.6635(3)
C17 C 0.2940(4) 0.4542(4) 0.6141(3)
C18 C 0.1954(4) 0.6058(4) 0.8594(3)
C19 C 0.2832(5) 0.2791(4) 0.7356(3)
H11 H 0.2761 0.2189 0.7780
C21 C 0.1707(5) 0.9587(4) 0.7447(3)
H12 H 0.2199 0.9980 0.7640
C22 C 0.0339(5) 0.8404(4) 0.6893(3)
C23 C 0.2169(5) 0.8505(4) 0.7284(3)
H13 H 0.2994 0.8173 0.7352
C24 C 0.3507(5) 0.3465(4) 0.6015(3)
H14 H 0.3912 0.3336 0.5508
C25 C 0.5373(4) 0.5618(4) 0.8296(3)
O13 O 0.9652(3) 0.4033(3) 0.7461(2)
C30 C 0.4175(5) 0.1397(4) 0.6552(3)
C31 C 0.5512(5) 0.5798(4) 0.7473(3)
H16 H 0.6297 0.5756 0.7189
C32 C 0.4209(4) 0.5705(4) 0.8690(3)
H17 H 0.4089 0.5599 0.9254
C35 C 0.6470(5) 0.5323(4) 0.8750(3)
O21 O 0.3765(3) 0.3059(3) 0.4260(2)
C41 C 0.0121(4) 0.4071(4) 0.3741(3)
C44 C 0.0458(4) 0.3776(4) 0.0906(3)
H23 H 0.1293 0.3759 0.0735
C45 C 0.0000(4) 0.3865(4) 0.1688(3)
H24 H 0.0534 0.3903 0.2052
C46 C 0.1287(5) 0.3776(4) 0.3960(3)
H25 H 0.1619 0.4303 0.4149
C56 C 0.0303(4) 0.2302(4) 0.3405(3)
C63 C 0.1967(5) 0.2710(4) 0.3901(3)
C65 C 0.0176(5) 0.0505(4) 0.2976(3)
H33 H 0.0983 0.0167 0.3087
O29 O 0.3623(4) 0.1282(3) 0.4267(2)
C69 C 0.1453(5) 0.1957(4) 0.3626(3)
H36 H 0.1895 0.1214 0.3592
C72 C 0.3230(5) 0.2352(4) 0.4161(3)
O32 O 0.7417(3) 0.3827(3) 0.6919(2)
O36 O 0.9076(3) 0.1793(3) 0.7155(2)
O39 O 0.9403(3) 0.3223(3) 0.9173(2)
U2_2 U 0.5000 1.0000 0.5000
O26 O 0.0924(3) 0.8207(3) 0.2845(2)
C62 C 0.0055(5) 0.8776(4) 0.2478(3)
O30 O 0.3795(4) 0.9418(3) 0.5566(2)
O33 O 0.5278(3) 0.8717(3) 0.4147(2)
O40 O 0.6377(4) 0.8718(3) 0.5733(2)
C26 C 0.9945(5) 0.1224(4) 0.7522(3)
O7 O 0.6235(3) 0.6941(3) 0.5740(2)
C5 C 0.9879(4) 0.5929(4) 0.6259(3)
C8 C 0.9542(4) 0.6224(4) 0.9094(3)
H5 H 0.8707 0.6241 0.9265
C9_2 C 1.0000(4) 0.6135(4) 0.8312(3)
H6 H 0.9466 0.6097 0.7948
C10 C 0.8713(5) 0.6224(4) 0.6040(3)
H7 H 0.8381 0.5697 0.5851
C20 C 0.9697(4) 0.7698(4) 0.6595(3)
C27 C 0.8033(5) 0.7290(4) 0.6099(3)
C29 C 0.9824(5) 0.9495(4) 0.7024(3)
H15 H 0.9017 0.9833 0.6913
C33 C 0.8547(5) 0.8043(4) 0.6374(3)
H18 H 0.8105 0.8786 0.6408
C36 C 0.6770(5) 0.7648(4) 0.5839(3)
N7 N 0.7375(4) 0.3483(3) 0.4134(2)
O17 O 0.2432(4) 0.7523(3) 0.1418(2)
Co2 Co 0.80928(6) 0.36741(6) 0.30391(4)
O19 O 0.2537(3) 0.5078(3) 0.1644(2)
O20 O 0.5815(4) 0.9341(3) 0.2869(2)
N8 N 0.8827(3) 0.3899(3) 0.1944(2)
N9 N 0.7648(3) 0.5248(3) 0.3135(2)
N10 N 0.9638(4) 0.3369(3) 0.3450(2)
O22 O 0.6101(4) 0.2676(4) 0.7058(2)
N11 N 0.6622(4) 0.3904(3) 0.2555(2)
N12 N 0.8503(4) 0.2084(3) 0.2963(2)
C37 C 0.7094(5) 0.2427(4) 0.5427(3)
H19 H 0.7049 0.1724 0.5752
C38 C 0.7057(4) 0.4441(4) 0.4455(3)
C39 C 0.6874(4) 0.3394(4) 0.5765(3)
C40 C 0.8453(4) 0.3826(4) 0.0624(3)
H20 H 0.7897 0.3826 0.0264
H21 H 0.9650 0.4796 0.3801
C42 C 0.6773(4) 0.4052(4) 0.1745(3)
C43 C 0.7380(5) 0.2490(4) 0.4615(3)
H22 H 0.7583 0.1818 0.4391
C45_2 C 1.0000(4) 0.3865(4) 0.1688(3)
C47 C 0.6759(5) 0.3292(4) 0.6663(3)
C48 C 0.6818(4) 0.4424(4) 0.5266(3)
H26 H 0.6619 0.5105 0.5479
C49 C 0.5503(4) 0.3961(4) 0.2932(3)
H27 H 0.5402 0.3831 0.3496
C50 C 0.7707(4) 0.6117(4) 0.2543(3)
H28 H 0.8130 0.5979 0.2043
O25 O 0.3629(4) 0.4487(4) 0.0572(2)
C51 C 0.9674(5) 0.3711(4) 0.0374(3)
C52 C 0.6524(4) 0.7422(4) 0.3365(3)
C53 C 0.7060(4) 0.5458(4) 0.3859(3)
C54 C 0.8046(4) 0.3942(4) 0.1406(3)
C55 C 0.7168(5) 0.7209(4) 0.2644(3)
H29 H 0.7239 0.7811 0.2220
C57 C 0.8293(5) 0.0413(4) 0.2553(3)
H30 H 0.7801 0.0020 0.2360
C58 C 0.9661(5) 0.1596(4) 0.3107(3)
C59 C 0.7831(5) 0.1495(4) 0.2716(3)
H31 H 0.7006 0.1827 0.2648
C60 C 0.6493(5) 0.6535(4) 0.3985(3)
H32 H 0.6088 0.6664 0.4492
C61 C 0.4627(4) 0.4382(4) 0.1704(3)
O27 O 0.0348(3) 0.5967(3) 0.2539(2)
C66 C 0.5825(5) 0.8603(4) 0.3448(3)
C67 C 0.4488(5) 0.4202(4) 0.2527(3)
H34 H 0.3703 0.4244 0.2811
C68 C 0.5791(4) 0.4295(4) 0.1310(3)
H35 H 0.5911 0.4401 0.0746
C71 C 0.3530(5) 0.4677(4) 0.1250(3)
O23 O 0.1215(3) 0.3531(3) 0.9291(2)
C70 C 0.0167(5) 0.3476(4) 0.9537(3)
O9 O 0.8785(3) 0.6469(3) 0.0709(2)
C34 C 0.9833(5) 0.6524(4) 0.0463(3)
O24 O 0.9700(4) 0.8438(3) 0.1925(2)
C64 C 0.9478(5) 0.9920(4) 0.2677(3)
loop_
_geom_bond_atom_site_label_1
_geom_bond_atom_site_label_2
_geom_bond_site_symmetry_1
_geom_bond_site_symmetry_2
U9 O14 1_555 1_555
U1 O2 1_555 1_555
N1 Co1 1_555 1_555
O1 C11 1_555 1_555
U2 O3 1_555 1_555
Co1 N2 1_555 1_555
O3 C30 1_555 1_555
O4 U1 1_555 1_555
O5 C30 1_555 1_555
O6 U2 1_555 1_555
N2 C9 1_555 1_555
N3 Co1 1_555 1_555
N4 Co1 1_555 1_555
O8 C11 1_555 1_555
N5 Co1 1_555 1_555
N6 Co1 1_555 1_555
C1 H1 1_555 1_555
C2 N1 1_555 1_555
C3 C1 1_555 1_555
C4 H2 1_555 1_555
C6 N5 1_555 1_555
C7 N1 1_555 1_555
H4 C7 1_555 1_555
C11 C3 1_555 1_555
C12 C2 1_555 1_555
H8 C12 1_555 1_555
C13 N5 1_555 1_555
H9 C13 1_555 1_555
C14 N3 1_555 1_555
H10 C14 1_555 1_555
O11 C35 1_555 1_555
C15 C4 1_555 1_555
C16 C19 1_555 1_555
C17 N3 1_555 1_555
C18 N2 1_555 1_555
C19 C14 1_555 1_555
H11 C19 1_555 1_555
C21 H12 1_555 1_555
C22 N6 1_555 1_555
C23 N6 1_555 1_555
H13 C23 1_555 1_555
C24 C16 1_555 1_555
H14 C24 1_555 1_555
C25 C31 1_555 1_555
O13 U1 1_555 1_555
C30 C16 1_555 1_555
C31 C13 1_555 1_555
H16 C31 1_555 1_555
C32 C6 1_555 1_555
H17 C32 1_555 1_555
C35 O4 1_555 1_555
O21 C72 1_555 1_555
C44 H23 1_555 1_555
C45 C44 1_555 1_555
H24 C45 1_555 1_555
C46 C41 1_555 1_555
H25 C46 1_555 1_555
C63 C46 1_555 1_555
H33 C65 1_555 1_555
O29 U2 1_555 1_555
C69 C56 1_555 1_555
H36 C69 1_555 1_555
C72 C63 1_555 1_555
U9 O1 1_555 1_555
O32 U1 1_555 1_555
O36 U1 1_555 1_555
O39 U1 1_555 1_555
C1 C7 1_555 1_555
C2 C17 1_555 1_555
C3 C12 1_555 1_555
C4 C18 1_555 1_555
C6 C18 1_555 1_555
C17 C24 1_555 1_555
C21 C23 1_555 1_555
C25 C32 1_555 1_555
C25 C35 1_555 1_555
C63 C69 1_555 1_555
O29 C72 1_555 1_555
O26 C62 1_555 1_555
O30 U2_2 1_555 1_555
O33 U2_2 1_555 1_555
O40 U2_2 1_555 1_555
O26 U9 1_555 1_555
O36 C26 1_555 1_555
O7 C36 1_555 1_555
C8 H5 1_555 1_555
C9_2 C8 1_555 1_555
H6 C9_2 1_555 1_555
C10 C5 1_555 1_555
H7 C10 1_555 1_555
C27 C10 1_555 1_555
H15 C29 1_555 1_555
O40 C36 1_555 1_555
C33 C20 1_555 1_555
H18 C33 1_555 1_555
C36 C27 1_555 1_555
U9 O17 1_555 1_555
N7 Co2 1_555 1_555
O32 C47 1_555 1_555
Co2 N8 1_555 1_555
O33 C66 1_555 1_555
O19 U9 1_555 1_555
O20 C66 1_555 1_555
N8 C45_2 1_555 1_555
N9 Co2 1_555 1_555
N10 Co2 1_555 1_555
O22 C47 1_555 1_555
N11 Co2 1_555 1_555
N12 Co2 1_555 1_555
C37 H19 1_555 1_555
C38 N7 1_555 1_555
C39 C37 1_555 1_555
C40 H20 1_555 1_555
C42 N11 1_555 1_555
C43 N7 1_555 1_555
H22 C43 1_555 1_555
C47 C39 1_555 1_555
C48 C38 1_555 1_555
H26 C48 1_555 1_555
C49 N11 1_555 1_555
H27 C49 1_555 1_555
C50 N9 1_555 1_555
H28 C50 1_555 1_555
O25 C71 1_555 1_555
C51 C40 1_555 1_555
C52 C55 1_555 1_555
C53 N9 1_555 1_555
C54 N8 1_555 1_555
C55 C50 1_555 1_555
H29 C55 1_555 1_555
C57 H30 1_555 1_555
C58 N12 1_555 1_555
C59 N12 1_555 1_555
H31 C59 1_555 1_555
C60 C52 1_555 1_555
H32 C60 1_555 1_555
C61 C67 1_555 1_555
O27 U9 1_555 1_555
C66 C52 1_555 1_555
C67 C49 1_555 1_555
H34 C67 1_555 1_555
C68 C42 1_555 1_555
H35 C68 1_555 1_555
C71 O19 1_555 1_555
C27 C33 1_555 1_555
C37 C43 1_555 1_555
C38 C53 1_555 1_555
C39 C48 1_555 1_555
C40 C54 1_555 1_555
C42 C54 1_555 1_555
C53 C60 1_555 1_555
C57 C59 1_555 1_555
C61 C68 1_555 1_555
C61 C71 1_555 1_555
O23 C70 1_555 1_555
O9 C34 1_555 1_555

#END
