
###############################################################################
#
# This file contains modified crystal structure data generated from the
# MOF subset of the Cambridge Structural Database (CSD) v543 
# hosted by the Cambridge Crystallographic Data Centre (CCDC).
#
# This work is licensed under the Creative Commons
# Attribution-NonCommercial-ShareAlike 4.0 International License.
# To view a copy of this license, visit
# http://creativecommons.org/licenses/by-nc-sa/4.0/
# or send a letter to
# Creative Commons, PO Box 1866, Mountain View, CA 94042, USA.
#
# CIF created using the CSD Python API on 29 September 2022
# The structure has been converted into the P1 space group
# The structure has a 3D framework
# The original CSD entry TIDLEZ is in the orthorhombic crystal system
# The framework has been calculated to contain at least 10.0% void space
# The void calculation uses a probe of radius 1.32A, grid spacing 0.4
# The framework is charged, counterions have been retained in the structure
#
###############################################################################

data_TIDLEZ
_chemical_formula_moiety         '(C24 H32 Cd8 Cl4 N24 8+)n'
_symmetry_cell_setting           triclinic
_symmetry_space_group_name_H-M   'P 1'
_symmetry_Int_Tables_number      1
_space_group_name_Hall           'P 1'
loop_
_symmetry_equiv_pos_site_id
_symmetry_equiv_pos_as_xyz
1 x,y,z
_cell_length_a                   18.9120(18)
_cell_length_b                   7.5956(8)
_cell_length_c                   13.8924(14)
_cell_angle_alpha                90
_cell_angle_beta                 90
_cell_angle_gamma                90
_cell_volume                     1995.62
loop_
_atom_site_label
_atom_site_type_symbol
_atom_site_fract_x
_atom_site_fract_y
_atom_site_fract_z
Cd2 Cd -0.0000 0.0000 0.0000
Cd4 Cd -0.0000 0.5000 0.0000
Cd2_2 Cd -0.0000 0.0000 1.0000
Cd4_2 Cd -0.0000 0.5000 1.0000
Cd2_3 Cd -0.0000 1.0000 0.0000
Cd2_4 Cd -0.0000 1.0000 1.0000
Cd1 Cd 0.5000 0.5000 0.5000
Cl1 Cl 0.50925(12) 0.2500 0.62795(16)
N1 N 0.6503(4) 0.2500 0.2893(5)
N2 N 0.5751(2) 0.3413(7) 0.3973(3)
N3 N 0.8301(4) 0.2500 0.1785(5)
N4 N 0.9085(3) 0.3414(7) 0.0748(4)
C1 C 0.7027(5) 0.2500 0.2110(7)
H1 H 0.6963 0.3546 0.1706
C2 C 0.7765(5) 0.2500 0.2537(7)
H2 H 0.7826 0.3544 0.2944
C3 C 0.6198(3) 0.3896(9) 0.3319(4)
H3 H 0.6297 0.5074 0.3162
C4 C 0.8616(3) 0.3917(8) 0.1377(5)
H4 H 0.8512 0.5095 0.1527
N5 N 0.5751(2) 0.1587(7) 0.3973(3)
N6 N 0.9085(3) 0.1586(7) 0.0748(4)
H5 H 0.6963 0.1454 0.1706
H6 H 0.7826 0.1456 0.2944
C5 C 0.6198(3) 0.1104(9) 0.3319(4)
C6 C 0.8616(3) 0.1083(8) 0.1377(5)
Cd2_5 Cd 1.0000 0.0000 0.0000
Cd3 Cd 0.5000 0.0000 0.5000
Cd4_3 Cd 1.0000 0.5000 0.0000
Cl2 Cl 0.49075(12) 0.7500 0.37205(16)
N7 N 0.4249(2) 0.6587(7) 0.6027(3)
N8 N 0.5915(3) 0.6586(7) 0.5748(4)
N9 N 0.4085(3) 0.3414(7) 0.4252(4)
Cd2_6 Cd 1.0000 0.0000 1.0000
Cd4_4 Cd 1.0000 0.5000 1.0000
H7 H 0.6297 0.9926 0.3162
H8 H 0.8512 0.9905 0.1527
Cd2_7 Cd 1.0000 1.0000 0.0000
Cd3_2 Cd 0.5000 1.0000 0.5000
Cd2_8 Cd 1.0000 1.0000 1.0000
N7_2 N 0.0751(2) 0.3413(7) 0.1027(3)
Cl2_2 Cl 0.00925(12) 0.2500 0.87205(16)
N9_2 N 0.0915(3) 0.6586(7) 0.9252(4)
H7_2 H 0.8703 0.0074 0.8162
H8_2 H 0.6488 0.0095 0.6527
Cl1_2 Cl 0.99075(12) 0.7500 0.12795(16)
N1_2 N 0.8497(4) 0.7500 0.7893(5)
N2_2 N 0.9249(2) 0.6587(7) 0.8973(3)
N3_2 N 0.6699(4) 0.7500 0.6785(5)
C1_2 C 0.7973(5) 0.7500 0.7110(7)
H1_2 H 0.8037 0.6454 0.6706
C2_2 C 0.7235(5) 0.7500 0.7537(7)
H2_2 H 0.7174 0.6456 0.7944
C3_2 C 0.8802(3) 0.6104(9) 0.8319(4)
H3_2 H 0.8703 0.4926 0.8162
C4_2 C 0.6384(3) 0.6083(8) 0.6377(5)
H4_2 H 0.6488 0.4905 0.6527
N5_2 N 0.9249(2) 0.8413(7) 0.8973(3)
N6_2 N 0.5915(3) 0.8414(7) 0.5748(4)
H5_2 H 0.8037 0.8546 0.6706
H6_2 H 0.7174 0.8544 0.7944
C5_2 C 0.8802(3) 0.8896(9) 0.8319(4)
C6_2 C 0.6384(3) 0.8917(8) 0.6377(5)
N1_3 N 0.1503(4) 0.2500 0.2107(5)
N2_3 N 0.0751(2) 0.1587(7) 0.1027(3)
N3_3 N 0.3301(4) 0.2500 0.3215(5)
N4_2 N 0.4085(3) 0.1586(7) 0.4252(4)
C1_3 C 0.2027(5) 0.2500 0.2890(7)
H1_3 H 0.1963 0.1454 0.3294
C2_3 C 0.2765(5) 0.2500 0.2463(7)
H2_3 H 0.2826 0.1456 0.2056
C3_3 C 0.1198(3) 0.1104(9) 0.1681(4)
C4_3 C 0.3616(3) 0.1083(8) 0.3623(5)
H5_3 H 0.1963 0.3546 0.3294
H6_3 H 0.2826 0.3544 0.2056
C5_3 C 0.1198(3) 0.3896(9) 0.1681(4)
H7_3 H 0.1297 0.5074 0.1838
C6_3 C 0.3616(3) 0.3917(8) 0.3623(5)
H8_3 H 0.3512 0.5095 0.3473
H3_3 H 0.1297 0.9926 0.1838
H4_3 H 0.3512 0.9905 0.3473
N8_2 N 0.0915(3) 0.8414(7) 0.9252(4)
H3_4 H 0.3703 0.0074 0.6838
H4_4 H 0.1488 0.0095 0.8473
N1_4 N 0.3497(4) 0.7500 0.7107(5)
N2_4 N 0.4249(2) 0.8413(7) 0.6027(3)
N3_4 N 0.1699(4) 0.7500 0.8215(5)
C1_4 C 0.2973(5) 0.7500 0.7890(7)
H1_4 H 0.3037 0.8546 0.8294
C2_4 C 0.2235(5) 0.7500 0.7463(7)
H2_4 H 0.2174 0.8544 0.7056
C3_4 C 0.3802(3) 0.8896(9) 0.6681(4)
C4_4 C 0.1384(3) 0.8917(8) 0.8623(5)
H5_4 H 0.3037 0.6454 0.8294
H6_4 H 0.2174 0.6456 0.7056
C5_4 C 0.3802(3) 0.6104(9) 0.6681(4)
H7_4 H 0.3703 0.4926 0.6838
C6_4 C 0.1384(3) 0.6083(8) 0.8623(5)
H8_4 H 0.1488 0.4905 0.8473
loop_
_geom_bond_atom_site_label_1
_geom_bond_atom_site_label_2
_geom_bond_site_symmetry_1
_geom_bond_site_symmetry_2
Cd1 Cl1 1_555 1_555
Cl1 Cd3 1_555 1_555
N1 C1 1_555 1_555
N2 Cd1 1_555 1_555
N3 C2 1_555 1_555
N4 C4 1_555 1_555
C1 H1 1_555 1_555
C2 C1 1_555 1_555
H2 C2 1_555 1_555
C3 N1 1_555 1_555
H3 C3 1_555 1_555
C4 N3 1_555 1_555
H4 C4 1_555 1_555
N5 N2 1_555 1_555
N6 N4 1_555 1_555
H5 C1 1_555 1_555
H6 C2 1_555 1_555
C5 N1 1_555 1_555
C6 N3 1_555 1_555
Cd2_5 N6 1_555 1_555
Cd3 N5 1_555 1_555
Cd4_3 N4 1_555 1_555
Cl2 Cd1 1_555 1_555
N7 Cd1 1_555 1_555
N8 Cd1 1_555 1_555
N9 Cd1 1_555 1_555
N2 C3 1_555 1_555
N5 C5 1_555 1_555
N6 C6 1_555 1_555
N7_2 Cd4 1_555 1_555
Cl2_2 Cd4_2 1_555 1_555
N9_2 Cd4_2 1_555 1_555
Cd4_3 Cl1_2 1_555 1_555
Cl1_2 Cd2_7 1_555 1_555
N1_2 C1_2 1_555 1_555
N2_2 Cd4_4 1_555 1_555
N3_2 C2_2 1_555 1_555
N8 C4_2 1_555 1_555
C1_2 H1_2 1_555 1_555
C2_2 C1_2 1_555 1_555
H2_2 C2_2 1_555 1_555
C3_2 N1_2 1_555 1_555
H3_2 C3_2 1_555 1_555
C4_2 N3_2 1_555 1_555
H4_2 C4_2 1_555 1_555
N5_2 N2_2 1_555 1_555
N6_2 N8 1_555 1_555
H5_2 C1_2 1_555 1_555
H6_2 C2_2 1_555 1_555
C5_2 N1_2 1_555 1_555
C6_2 N3_2 1_555 1_555
Cd3_2 N6_2 1_555 1_555
Cd2_8 N5_2 1_555 1_555
N2_2 C3_2 1_555 1_555
N5_2 C5_2 1_555 1_555
N6_2 C6_2 1_555 1_555
N1_3 C1_3 1_555 1_555
N2_3 Cd2 1_555 1_555
N3_3 C2_3 1_555 1_555
N4_2 C4_3 1_555 1_555
C1_3 H1_3 1_555 1_555
C2_3 C1_3 1_555 1_555
H2_3 C2_3 1_555 1_555
C3_3 N1_3 1_555 1_555
C4_3 N3_3 1_555 1_555
N7_2 N2_3 1_555 1_555
N9 N4_2 1_555 1_555
H5_3 C1_3 1_555 1_555
H6_3 C2_3 1_555 1_555
C5_3 N1_3 1_555 1_555
H7_3 C5_3 1_555 1_555
C6_3 N3_3 1_555 1_555
H8_3 C6_3 1_555 1_555
Cd3 N4_2 1_555 1_555
N2_3 C3_3 1_555 1_555
N7_2 C5_3 1_555 1_555
N9 C6_3 1_555 1_555
Cd2_2 Cl2_2 1_555 1_555
N8_2 Cd2_4 1_555 1_555
Cd3_2 Cl2 1_555 1_555
N1_4 C1_4 1_555 1_555
N2_4 Cd3_2 1_555 1_555
N3_4 C2_4 1_555 1_555
N8_2 C4_4 1_555 1_555
C1_4 H1_4 1_555 1_555
C2_4 C1_4 1_555 1_555
H2_4 C2_4 1_555 1_555
C3_4 N1_4 1_555 1_555
C4_4 N3_4 1_555 1_555
N7 N2_4 1_555 1_555
N9_2 N8_2 1_555 1_555
H5_4 C1_4 1_555 1_555
H6_4 C2_4 1_555 1_555
C5_4 N1_4 1_555 1_555
H7_4 C5_4 1_555 1_555
C6_4 N3_4 1_555 1_555
H8_4 C6_4 1_555 1_555
N2_4 C3_4 1_555 1_555
N7 C5_4 1_555 1_555
N9_2 C6_4 1_555 1_555

#END
