
###############################################################################
#
# This file contains modified crystal structure data generated from the
# MOF subset of the Cambridge Structural Database (CSD) v543 
# hosted by the Cambridge Crystallographic Data Centre (CCDC).
#
# This work is licensed under the Creative Commons
# Attribution-NonCommercial-ShareAlike 4.0 International License.
# To view a copy of this license, visit
# http://creativecommons.org/licenses/by-nc-sa/4.0/
# or send a letter to
# Creative Commons, PO Box 1866, Mountain View, CA 94042, USA.
#
# CIF created using the CSD Python API on 29 September 2022
# The structure has been converted into the P1 space group
# The structure has a 3D framework
# The original CSD entry TIGDOD is in the monoclinic crystal system
# The framework has been calculated to contain at least 10.0% void space
# The void calculation uses a probe of radius 1.32A, grid spacing 0.4
#
###############################################################################

data_TIGDOD
_chemical_formula_moiety         '(C64 H48 N8 O16 Zn3)n'
_symmetry_cell_setting           triclinic
_symmetry_space_group_name_H-M   'P 1'
_symmetry_Int_Tables_number      1
_space_group_name_Hall           'P 1'
loop_
_symmetry_equiv_pos_site_id
_symmetry_equiv_pos_as_xyz
1 x,y,z
_cell_length_a                   8.8488(8)
_cell_length_b                   21.5285(19)
_cell_length_c                   13.5042(11)
_cell_angle_alpha                90
_cell_angle_beta                 97.144(4)
_cell_angle_gamma                90
_cell_volume                     2552.6
loop_
_atom_site_label
_atom_site_type_symbol
_atom_site_fract_x
_atom_site_fract_y
_atom_site_fract_z
Zn3 Zn -0.0000 0.852382(6) 0.7500
H10 H 0.0035 0.9728 0.8608
H5 H 0.8902 0.4540 0.9809
H6 H 0.1670 0.7015 0.9526
O3 O 0.10470(8) 0.79341(3) 0.84479(5)
O5 O 0.21011(10) 0.87775(4) 0.92097(6)
C15 C 0.18907(11) 0.82080(4) 0.91584(7)
C16 C 0.26287(11) 0.77999(5) 0.99690(7)
H3 H 0.8450 0.9686 0.4496
C6 C 0.56892(11) 0.99164(5) 0.49058(8)
H5_2 H 0.6098 0.9540 0.5191
N2 N 0.14390(8) 0.90528(4) 0.68136(6)
C9 C 0.28693(11) 0.88594(5) 0.67539(8)
H7 H 0.3217 0.8491 0.7096
C10 C 0.38538(11) 0.91751(5) 0.62157(8)
H8 H 0.4852 0.9020 0.6184
C11 C 0.33737(10) 0.97252(5) 0.57150(7)
C12 C 0.19073(11) 0.99348(5) 0.58083(8)
C13 C 0.09708(11) 0.95855(5) 0.63489(8)
Zn1 Zn 0.0000 0.147618(6) 0.2500
N1 N 0.14390(8) 0.09472(4) 0.18136(6)
C1 C 0.28693(11) 0.11406(5) 0.17539(8)
H1 H 0.3217 0.1509 0.2096
C2 C 0.38538(11) 0.08249(5) 0.12157(8)
H2 H 0.4852 0.0980 0.1184
C3 C 0.33737(10) 0.02748(5) 0.07150(7)
C4 C 0.19073(11) 0.00652(5) 0.08083(8)
C5 C 0.09708(11) 0.04145(5) 0.13489(8)
O4 O 0.10470(8) 0.20659(3) 0.34479(5)
H11 H 0.6098 0.0460 0.0191
H6_2 H 0.6670 0.2015 0.9526
Zn2 Zn 0.5000 0.352382(6) 0.7500
O3_2 O 0.60470(8) 0.29341(3) 0.84479(5)
O5_2 O 0.71011(10) 0.37775(4) 0.92097(6)
C15_2 C 0.68907(11) 0.32080(4) 0.91584(7)
C16_2 C 0.76287(11) 0.27999(5) 0.99690(7)
N2_2 N 0.35610(8) 0.40528(4) 0.81864(6)
C9_2 C 0.21307(11) 0.38594(5) 0.82461(8)
H7_2 H 0.1783 0.3491 0.7904
C10_2 C 0.11462(11) 0.41751(5) 0.87843(8)
H8_2 H 0.0148 0.4020 0.8816
C11_2 C 0.16263(10) 0.47252(5) 0.92850(7)
C12_2 C 0.30927(11) 0.49348(5) 0.91917(8)
H9 H 0.3450 0.5314 0.9496
C13_2 C 0.40292(11) 0.45855(5) 0.86511(8)
H10_2 H 0.5035 0.4728 0.8608
C14 C 0.06892(11) 0.50836(5) 0.99058(8)
O2 O 0.21011(10) 0.12225(4) 0.42097(6)
H4 H 0.0035 0.0272 0.3608
C7 C 0.18907(11) 0.17920(4) 0.41584(7)
C8 C 0.26287(11) 0.22001(5) 0.49690(7)
H6_3 H 0.3330 0.2015 0.5474
O3_3 O 0.39530(8) 0.29341(3) 0.65521(5)
O5_3 O 0.28989(10) 0.37775(4) 0.57903(6)
C15_3 C 0.31093(11) 0.32080(4) 0.58416(7)
C16_3 C 0.23713(11) 0.27999(5) 0.50310(7)
H12 H 0.1670 0.2985 0.4526
N2_3 N 0.64390(8) 0.40528(4) 0.68136(6)
C9_3 C 0.78693(11) 0.38594(5) 0.67539(8)
H7_3 H 0.8217 0.3491 0.7096
C10_3 C 0.88538(11) 0.41751(5) 0.62157(8)
H8_3 H 0.9852 0.4020 0.6184
C11_3 C 0.83737(10) 0.47252(5) 0.57150(7)
C12_3 C 0.69073(11) 0.49348(5) 0.58083(8)
H9_2 H 0.6550 0.5314 0.5504
C13_3 C 0.59708(11) 0.45855(5) 0.63489(8)
H10_3 H 0.4965 0.4728 0.6392
C14_2 C 0.93108(11) 0.50836(5) 0.50942(8)
H11_2 H 0.8902 0.5460 0.4809
H9_3 H 0.8450 0.0314 0.9496
C14_3 C 0.56892(11) 0.00836(5) 0.99058(8)
H3_2 H 0.1550 0.9686 0.0504
C6_2 C 0.43108(11) 0.99164(5) 0.00942(8)
H5_3 H 0.3902 0.9540 0.9809
Zn3_2 Zn 1.0000 0.852382(6) 0.7500
N2_4 N 0.85610(8) 0.90528(4) 0.81864(6)
C9_4 C 0.71307(11) 0.88594(5) 0.82461(8)
H7_4 H 0.6783 0.8491 0.7904
C10_4 C 0.61462(11) 0.91751(5) 0.87843(8)
H8_4 H 0.5148 0.9020 0.8816
C11_4 C 0.66263(10) 0.97252(5) 0.92850(7)
C12_4 C 0.80927(11) 0.99348(5) 0.91917(8)
C13_4 C 0.90292(11) 0.95855(5) 0.86511(8)
Zn1_2 Zn 0.5000 0.647618(6) 0.2500
O1 O 0.39530(8) 0.70659(3) 0.15521(5)
O2_2 O 0.28989(10) 0.62225(4) 0.07903(6)
N1_2 N 0.64390(8) 0.59472(4) 0.18136(6)
C1_2 C 0.78693(11) 0.61406(5) 0.17539(8)
H1_2 H 0.8217 0.6509 0.2096
C2_2 C 0.88538(11) 0.58249(5) 0.12157(8)
H2_2 H 0.9852 0.5980 0.1184
C3_2 C 0.83737(10) 0.52748(5) 0.07150(7)
C4_2 C 0.69073(11) 0.50652(5) 0.08083(8)
H3_3 H 0.6550 0.4686 0.0504
C5_2 C 0.59708(11) 0.54145(5) 0.13489(8)
H4_2 H 0.4965 0.5272 0.1392
C6_3 C 0.93108(11) 0.49164(5) 0.00942(8)
C7_2 C 0.31093(11) 0.67920(4) 0.08416(7)
C8_2 C 0.23713(11) 0.72001(5) 0.00310(7)
O4_2 O 0.60470(8) 0.70659(3) 0.34479(5)
N3 N 0.35610(8) 0.59472(4) 0.31864(6)
H12_2 H 0.3330 0.7985 0.0474
H10_4 H 0.9965 0.9728 0.6392
O2_3 O 0.71011(10) 0.62225(4) 0.42097(6)
C1_3 C 0.21307(11) 0.61406(5) 0.32461(8)
H1_3 H 0.1783 0.6509 0.2904
C2_3 C 0.11462(11) 0.58249(5) 0.37843(8)
H2_3 H 0.0148 0.5980 0.3816
C3_3 C 0.16263(10) 0.52748(5) 0.42850(7)
C4_3 C 0.30927(11) 0.50652(5) 0.41917(8)
H3_4 H 0.3450 0.4686 0.4496
C5_3 C 0.40292(11) 0.54145(5) 0.36511(8)
H4_3 H 0.5035 0.5272 0.3608
C6_4 C 0.06892(11) 0.49164(5) 0.49058(8)
H5_4 H 0.1098 0.4540 0.5191
C7_3 C 0.68907(11) 0.67920(4) 0.41584(7)
C8_3 C 0.76287(11) 0.72001(5) 0.49690(7)
H6_4 H 0.8330 0.7015 0.5474
O3_4 O 0.89530(8) 0.79341(3) 0.65521(5)
O5_4 O 0.78989(10) 0.87775(4) 0.57903(6)
C15_4 C 0.81093(11) 0.82080(4) 0.58416(7)
C16_4 C 0.73713(11) 0.77999(5) 0.50310(7)
H12_3 H 0.6670 0.7985 0.4526
Zn1_3 Zn 1.0000 0.147618(6) 0.2500
O1_2 O 0.89530(8) 0.20659(3) 0.15521(5)
O2_4 O 0.78989(10) 0.12225(4) 0.07903(6)
H4_4 H 0.9965 0.0272 0.1392
C7_4 C 0.81093(11) 0.17920(4) 0.08416(7)
C8_4 C 0.73713(11) 0.22001(5) 0.00310(7)
N3_2 N 0.85610(8) 0.09472(4) 0.31864(6)
H12_4 H 0.8330 0.2985 0.0474
H11_3 H 0.1098 0.5460 0.0191
C1_4 C 0.71307(11) 0.11406(5) 0.32461(8)
H1_4 H 0.6783 0.1509 0.2904
C2_4 C 0.61462(11) 0.08249(5) 0.37843(8)
H2_4 H 0.5148 0.0980 0.3816
C3_4 C 0.66263(10) 0.02748(5) 0.42850(7)
C4_4 C 0.80927(11) 0.00652(5) 0.41917(8)
C5_4 C 0.90292(11) 0.04145(5) 0.36511(8)
H9_4 H 0.1550 0.0314 0.5504
C14_4 C 0.43108(11) 0.00836(5) 0.50942(8)
H11_4 H 0.3902 0.0460 0.4809
loop_
_geom_bond_atom_site_label_1
_geom_bond_atom_site_label_2
_geom_bond_site_symmetry_1
_geom_bond_site_symmetry_2
Zn3 O3 1_555 1_555
O3 C15 1_555 1_555
O5 C15 1_555 1_555
C15 C16 1_555 1_555
H5_2 C6 1_555 1_555
Zn3 N2 1_555 1_555
N2 C9 1_555 1_555
C9 H7 1_555 1_555
C10 C9 1_555 1_555
H8 C10 1_555 1_555
C11 C10 1_555 1_555
C12 C11 1_555 1_555
C13 N2 1_555 1_555
C12 C13 1_555 1_555
N1 Zn1 1_555 1_555
C1 N1 1_555 1_555
H1 C1 1_555 1_555
C2 C1 1_555 1_555
H2 C2 1_555 1_555
C3 C2 1_555 1_555
C4 C3 1_555 1_555
C5 N1 1_555 1_555
O4 Zn1 1_555 1_555
C4 C5 1_555 1_555
Zn2 O3_2 1_555 1_555
O3_2 C15_2 1_555 1_555
O5_2 C15_2 1_555 1_555
C15_2 C16_2 1_555 1_555
Zn2 N2_2 1_555 1_555
N2_2 C9_2 1_555 1_555
C9_2 H7_2 1_555 1_555
C10_2 C9_2 1_555 1_555
H8_2 C10_2 1_555 1_555
C11_2 C10_2 1_555 1_555
C12_2 C11_2 1_555 1_555
H9 C12_2 1_555 1_555
C13_2 N2_2 1_555 1_555
H10_2 C13_2 1_555 1_555
C11_2 C14 1_555 1_555
C12_2 C13_2 1_555 1_555
O4 C7 1_555 1_555
O2 C7 1_555 1_555
C7 C8 1_555 1_555
C8 H6_3 1_555 1_555
Zn2 O3_3 1_555 1_555
O3_3 C15_3 1_555 1_555
O5_3 C15_3 1_555 1_555
C15_3 C16_3 1_555 1_555
C16_3 C8 1_555 1_555
H12 C16_3 1_555 1_555
Zn2 N2_3 1_555 1_555
N2_3 C9_3 1_555 1_555
C9_3 H7_3 1_555 1_555
C10_3 C9_3 1_555 1_555
H8_3 C10_3 1_555 1_555
C11_3 C10_3 1_555 1_555
C12_3 C11_3 1_555 1_555
H9_2 C12_3 1_555 1_555
C13_3 N2_3 1_555 1_555
H10_3 C13_3 1_555 1_555
H11_2 C14_2 1_555 1_555
C11_3 C14_2 1_555 1_555
C12_3 C13_3 1_555 1_555
Zn3_2 N2_4 1_555 1_555
N2_4 C9_4 1_555 1_555
C9_4 H7_4 1_555 1_555
C10_4 C9_4 1_555 1_555
H8_4 C10_4 1_555 1_555
C11_4 C10_4 1_555 1_555
C12_4 C11_4 1_555 1_555
C13_4 N2_4 1_555 1_555
C12_4 C13_4 1_555 1_555
Zn1_2 O1 1_555 1_555
O1 C7_2 1_555 1_555
O2_2 C7_2 1_555 1_555
N1_2 Zn1_2 1_555 1_555
C1_2 N1_2 1_555 1_555
H1_2 C1_2 1_555 1_555
C2_2 C1_2 1_555 1_555
H2_2 C2_2 1_555 1_555
C3_2 C2_2 1_555 1_555
C4_2 C3_2 1_555 1_555
H3_3 C4_2 1_555 1_555
C5_2 N1_2 1_555 1_555
H4_2 C5_2 1_555 1_555
C6_3 C3_2 1_555 1_555
C7_2 C8_2 1_555 1_555
O4_2 Zn1_2 1_555 1_555
N3 Zn1_2 1_555 1_555
C4_2 C5_2 1_555 1_555
O4_2 C7_3 1_555 1_555
O2_3 C7_3 1_555 1_555
C1_3 N3 1_555 1_555
H1_3 C1_3 1_555 1_555
C2_3 C1_3 1_555 1_555
H2_3 C2_3 1_555 1_555
C3_3 C2_3 1_555 1_555
C4_3 C3_3 1_555 1_555
H3_4 C4_3 1_555 1_555
C5_3 N3 1_555 1_555
H4_3 C5_3 1_555 1_555
C6_4 C3_3 1_555 1_555
H5_4 C6_4 1_555 1_555
C7_3 C8_3 1_555 1_555
C8_3 H6_4 1_555 1_555
Zn3_2 O3_4 1_555 1_555
O3_4 C15_4 1_555 1_555
O5_4 C15_4 1_555 1_555
C15_4 C16_4 1_555 1_555
C16_4 C8_3 1_555 1_555
H12_3 C16_4 1_555 1_555
C4_3 C5_3 1_555 1_555
Zn1_3 O1_2 1_555 1_555
O1_2 C7_4 1_555 1_555
O2_4 C7_4 1_555 1_555
C7_4 C8_4 1_555 1_555
N3_2 Zn1_3 1_555 1_555
C1_4 N3_2 1_555 1_555
H1_4 C1_4 1_555 1_555
C2_4 C1_4 1_555 1_555
H2_4 C2_4 1_555 1_555
C3_4 C2_4 1_555 1_555
C4_4 C3_4 1_555 1_555
C5_4 N3_2 1_555 1_555
H11_4 C14_4 1_555 1_555
C4_4 C5_4 1_555 1_555

#END
