
###############################################################################
#
# This file contains modified crystal structure data generated from the
# MOF subset of the Cambridge Structural Database (CSD) v543 
# hosted by the Cambridge Crystallographic Data Centre (CCDC).
#
# This work is licensed under the Creative Commons
# Attribution-NonCommercial-ShareAlike 4.0 International License.
# To view a copy of this license, visit
# http://creativecommons.org/licenses/by-nc-sa/4.0/
# or send a letter to
# Creative Commons, PO Box 1866, Mountain View, CA 94042, USA.
#
# CIF created using the CSD Python API on 29 September 2022
# The structure has been converted into the P1 space group
# The structure has a 3D framework
# The original CSD entry TIHTUC is in the triclinic crystal system
# The framework has been calculated to contain at least 10.0% void space
# The void calculation uses a probe of radius 1.32A, grid spacing 0.4
# H atom positions have been added when not included in the experimental data
# Generated hydrogen atom positions removed from atoms on special positions
#
###############################################################################

data_TIHTUC
_chemical_formula_moiety         '(C90 H84 N6 Nd4 O48)n'
_symmetry_cell_setting           triclinic
_symmetry_space_group_name_H-M   'P 1'
_symmetry_Int_Tables_number      1
_space_group_name_Hall           'P 1'
loop_
_symmetry_equiv_pos_site_id
_symmetry_equiv_pos_as_xyz
1 x,y,z
_cell_length_a                   10.2605(9)
_cell_length_b                   12.9996(15)
_cell_length_c                   19.8518(17)
_cell_angle_alpha                88.684(6)
_cell_angle_beta                 82.492(5)
_cell_angle_gamma                73.636(5)
_cell_volume                     2518.57
loop_
_atom_site_label
_atom_site_type_symbol
_atom_site_fract_x
_atom_site_fract_y
_atom_site_fract_z
_atom_site_U_iso_or_equiv
_atom_site_thermal_displace_type
O2 O 0.0521(9) 0.6731(8) 0.1614(5) 0.0260 Uani
O22 O 0.0415(9) 0.6211(9) 0.0583(5) 0.0341 Uani
Nd8 Nd 0.28397(7) 0.62082(7) 0.08939(4) 0.0187 Uani
O3 O 0.4962(9) 0.4780(8) 0.0929(4) 0.0199 Uani
O4 O 0.6953(9) 0.4325(8) 0.0259(5) 0.0276 Uani
O9 O 0.2783(9) 0.8641(9) 0.6350(4) 0.0292 Uani
O10 O 0.6928(9) 0.7604(9) 0.8475(5) 0.0360 Uani
O11 O 0.5690(10) 0.5442(9) 0.6820(4) 0.0342 Uani
O13 O 0.5367(9) 0.8708(8) 0.9199(5) 0.0263 Uani
N1 N 0.6400(11) 0.6084(10) 0.3089(5) 0.0255 Uani
O18 O 0.0520(9) 0.8254(8) 0.9270(4) 0.0227 Uani
O20 O 0.4665(10) 0.7520(8) 0.2843(4) 0.0307 Uani
N2 N 0.4242(11) 0.7030(10) 0.6590(5) 0.0225 Uani
O23 O 0.7906(11) 0.4525(9) 0.3312(5) 0.0406 Uani
C1 C 0.0812(16) 0.7977(14) 0.8637(8) 0.0334 Uani
C2 C 0.3959(13) 0.7532(12) 0.5401(6) 0.0177 Uani
C3 C 0.5504(13) 0.6428(12) 0.4472(6) 0.0212 Uani
C5 C 0.5226(14) 0.6941(13) 0.3278(7) 0.0235 Uani
C6 C 0.4788(14) 0.7118(12) 0.4012(7) 0.0219 Uani
C8 C 0.6209(15) 0.4752(11) 0.0794(7) 0.0136 Uani
C9 C 0.6948(14) 0.5937(12) 0.2375(7) 0.0232 Uani
C11 C 0.3274(14) 0.8194(13) 0.4940(7) 0.0262 Uani
H3 H 0.254040 0.878095 0.508924 0.0310 Uiso
C13 C 0.5047(14) 0.6630(13) 0.5202(7) 0.0226 Uani
C15 C 0.6883(14) 0.5222(12) 0.1269(7) 0.0237 Uani
C16 C 0.4609(14) 0.7807(13) 0.8331(7) 0.0251 Uani
C17 C 0.8044(13) 0.5536(12) 0.1037(7) 0.0218 Uani
H4 H 0.842638 0.539706 0.058553 0.0260 Uiso
C18 C 0.3911(13) 0.7321(12) 0.7323(7) 0.0221 Uani
C19 C 0.5733(14) 0.5880(13) 0.5652(7) 0.0239 Uani
C21 C 0.8663(14) 0.6056(12) 0.1457(7) 0.0227 Uani
C22 C 0.6293(14) 0.5440(12) 0.1952(7) 0.0238 Uani
H5 H 0.549570 0.526060 0.211812 0.0280 Uiso
C23 C 0.6593(14) 0.5514(12) 0.4261(6) 0.0229 Uani
C24 C 0.2616(13) 0.7458(12) 0.7636(6) 0.0210 Uani
H6 H 0.195575 0.732770 0.739699 0.0260 Uiso
C25 C 0.7015(15) 0.5308(14) 0.3538(7) 0.0242 Uani
C26 C 0.3584(14) 0.7796(14) 0.6135(7) 0.0209 Uani
C27 C 0.7229(14) 0.4833(13) 0.4737(7) 0.0257 Uani
H7 H 0.796905 0.424750 0.459513 0.0310 Uiso
C28 C 0.4949(14) 0.7449(12) 0.7661(7) 0.0237 Uani
H8 H 0.584555 0.730035 0.744741 0.0290 Uiso
C29 C 0.3675(14) 0.7990(13) 0.4235(7) 0.0257 Uani
H9 H 0.319792 0.843544 0.392172 0.0310 Uiso
C30 C 0.3288(13) 0.7975(12) 0.8641(7) 0.0227 Uani
H10 H 0.307133 0.822268 0.908948 0.0280 Uiso
C31 C 0.6775(14) 0.5012(13) 0.5431(7) 0.0273 Uani
H11 H 0.719379 0.452862 0.574436 0.0330 Uiso
C33 C 0.2271(13) 0.7790(12) 0.8311(6) 0.0214 Uani
C42 C 0.5669(15) 0.8070(14) 0.8696(8) 0.0280 Uani
C43 C 0.9947(14) 0.6373(13) 0.1216(8) 0.0234 Uani
C44 C 0.5277(14) 0.6090(13) 0.6389(7) 0.0234 Uani
C45 C 0.8095(14) 0.6253(12) 0.2141(7) 0.0234 Uani
H15 H 0.848872 0.659310 0.243157 0.0280 Uiso
Nd10 Nd 0.79184(7) 0.87580(7) 0.91090(4) 0.0187 Uani
H33 H 0.44688 0.389224 0.000191157 . .
H43 H 0.0054604 0.658136 0.952022 . .
O1 O 0.9918(9) 0.7895(9) 0.8270(4) 0.0271 Uani
O5 O 0.6874(9) 0.9794(8) 0.8135(4) 0.0258 Uani
O26 O 0.9088(12) 0.6673(9) 0.9450(5) 0.0501 Uani
O38 O 0.1789(8) 0.7962(8) 0.0408(4) 0.0245 Uani
O44 O 0.3635(10) 0.7485(8) 0.1558(5) 0.0380 Uani
O46 O 0.4839(8) 0.6757(8) 0.0204(4) 0.0237 Uani
O50 O 0.2823(11) 0.5781(11) 0.2155(5) 0.0589 Uani
O51 O 0.2424(12) 0.4423(11) 0.0996(7) 0.0720 Uani
H60 H 0.526784 0.712197 0.0509107 . .
H59 H 0.55115 0.274721 0.0161086 . .
Nd12 Nd 0.20816(7) 0.12420(7) 0.08910(4) 0.0187 Uani
Nd1 Nd 0.71603(7) 0.37918(7) 0.91061(4) 0.0187 Uani
O6 O 0.8211(8) 0.2038(8) 0.9592(4) 0.0245 Uani
O15 O 0.6365(10) 0.2515(8) 0.8442(5) 0.0380 Uani
O19 O 0.5161(8) 0.3243(8) 0.9796(4) 0.0237 Uani
O24 O 0.7177(11) 0.4219(11) 0.7845(5) 0.0589 Uani
O25 O 0.7576(12) 0.5577(11) 0.9004(7) 0.0720 Uani
O54 O 0.9479(9) 0.3269(8) 0.8386(5) 0.0260 Uani
O56 O 0.5038(9) 0.5220(8) 0.9071(4) 0.0199 Uani
O64 O 0.9585(9) 0.3789(9) 0.9417(5) 0.0341 Uani
H34 H 0.473216 0.287803 0.949089 . .
O33 O 0.0082(9) 0.2105(9) 0.1730(4) 0.0271 Uani
O37 O 0.3126(9) 0.0206(8) 0.1865(4) 0.0258 Uani
O52 O 0.0912(12) 0.3327(9) 0.0550(5) 0.0501 Uani
O58 O 0.3072(9) 0.2396(9) 0.1525(5) 0.0360 Uani
O60 O 0.4633(9) 0.1292(8) 0.0801(5) 0.0263 Uani
O36 O 0.3047(9) 0.5675(8) 0.9741(5) 0.0276 Uani
O40 O 0.7217(9) 0.1359(9) 0.3650(4) 0.0292 Uani
O42 O 0.4310(10) 0.4558(9) 0.3180(4) 0.0342 Uani
N5 N 0.3600(11) 0.3916(10) 0.6911(5) 0.0255 Uani
O45 O 0.9480(9) 0.1746(8) 0.0730(4) 0.0227 Uani
O47 O 0.5335(10) 0.2480(8) 0.7157(4) 0.0307 Uani
N6 N 0.5758(11) 0.2970(10) 0.3410(5) 0.0225 Uani
O49 O 0.2094(11) 0.5475(9) 0.6688(5) 0.0406 Uani
C61 C 0.9188(16) 0.2023(14) 0.1363(8) 0.0334 Uani
C62 C 0.6041(13) 0.2468(12) 0.4599(6) 0.0177 Uani
C63 C 0.4496(13) 0.3572(12) 0.5528(6) 0.0212 Uani
C64 C 0.4774(14) 0.3059(13) 0.6722(7) 0.0235 Uani
C65 C 0.5212(14) 0.2882(12) 0.5988(7) 0.0219 Uani
C66 C 0.3791(15) 0.5248(11) 0.9206(7) 0.0136 Uani
C67 C 0.3052(14) 0.4063(12) 0.7625(7) 0.0232 Uani
C68 C 0.6726(14) 0.1806(13) 0.5060(7) 0.0262 Uani
H21 H 0.745960 0.121905 0.491076 0.0310 Uiso
C69 C 0.4953(14) 0.3370(13) 0.4798(7) 0.0226 Uani
C70 C 0.3117(14) 0.4778(12) 0.8731(7) 0.0237 Uani
C71 C 0.5391(14) 0.2193(13) 0.1669(7) 0.0251 Uani
C72 C 0.1956(13) 0.4464(12) 0.8963(7) 0.0218 Uani
H22 H 0.157362 0.460294 0.941447 0.0260 Uiso
C73 C 0.6089(13) 0.2679(12) 0.2677(7) 0.0221 Uani
C74 C 0.4267(14) 0.4120(13) 0.4348(7) 0.0239 Uani
C75 C 0.1337(14) 0.3944(12) 0.8543(7) 0.0227 Uani
C76 C 0.3707(14) 0.4560(12) 0.8048(7) 0.0238 Uani
H23 H 0.450430 0.473940 0.788188 0.0280 Uiso
C77 C 0.3407(14) 0.4486(12) 0.5739(6) 0.0229 Uani
C78 C 0.7384(13) 0.2542(12) 0.2364(6) 0.0210 Uani
H24 H 0.804425 0.267230 0.260301 0.0260 Uiso
C79 C 0.2985(15) 0.4692(14) 0.6462(7) 0.0242 Uani
C80 C 0.6416(14) 0.2204(14) 0.3865(7) 0.0209 Uani
C81 C 0.2771(14) 0.5167(13) 0.5263(7) 0.0257 Uani
H25 H 0.203095 0.575250 0.540487 0.0310 Uiso
C82 C 0.5051(14) 0.2551(12) 0.2339(7) 0.0237 Uani
H26 H 0.415445 0.269965 0.255259 0.0290 Uiso
C83 C 0.6325(14) 0.2010(13) 0.5765(7) 0.0257 Uani
H27 H 0.680208 0.156456 0.607828 0.0310 Uiso
C84 C 0.6712(13) 0.2025(12) 0.1359(7) 0.0227 Uani
H28 H 0.692867 0.177732 0.091052 0.0280 Uiso
C85 C 0.3225(14) 0.4988(13) 0.4569(7) 0.0273 Uani
H29 H 0.280621 0.547138 0.425564 0.0330 Uiso
C86 C 0.7729(13) 0.2210(12) 0.1689(6) 0.0214 Uani
C87 C 0.4331(15) 0.1930(14) 0.1304(8) 0.0280 Uani
C88 C 0.0053(14) 0.3627(13) 0.8784(8) 0.0234 Uani
C89 C 0.4723(14) 0.3910(13) 0.3611(7) 0.0234 Uani
C90 C 0.1905(14) 0.3747(12) 0.7859(7) 0.0234 Uani
H30 H 0.151128 0.340690 0.756843 0.0280 Uiso
H59_2 H 0.44885 0.725279 0.983891 . .
H33_2 H 0.55312 0.610776 0.999809 . .
H43_2 H 0.99454 0.341864 0.0479781 . .
O17 O 0.1010(9) 0.9798(7) 0.1248(5) 0.0189 Uani
O21 O 0.1114(12) 0.9468(12) 0.2360(6) 0.0612 Uani
C35 C 0.0512(16) 0.9546(12) 0.1850(9) 0.0306 Uani
O39 O 0.3538(10) 0.9522(8) 0.0330(5) 0.0325 Uani
H36 H 0.404177 0.972166 0.169577 . .
O14 O 0.4522(9) 0.0620(8) 0.2949(4) 0.0275 Uani
C38 C 0.5132(14) 0.0152(13) 0.3413(7) 0.0222 Uani
C40 C 0.4580(14) 0.0452(13) 0.4124(7) 0.0240 Uani
O27 O 0.2466(9) 0.1554(9) 0.9740(5) 0.0333 Uani
O28 O 0.2100(10) 0.2129(9) 0.6370(5) 0.0349 Uani
O30 O 0.4275(10) 0.1795(8) 0.9079(4) 0.0253 Uani
N4 N 0.3665(11) 0.0667(10) 0.6709(5) 0.0226 Uani
C46 C 0.1662(14) 0.0552(12) 0.7462(7) 0.0231 Uani
H16 H 0.133933 0.035248 0.708303 0.0280 Uiso
C47 C 0.2989(14) 0.1628(13) 0.4970(7) 0.0248 Uani
H17 H 0.225319 0.223435 0.507392 0.0300 Uiso
C48 C 0.2674(14) 0.1154(12) 0.8577(6) 0.0205 Uani
C49 C 0.3590(13) 0.1020(13) 0.5493(6) 0.0226 Uani
C50 C 0.4749(13) 0.0161(13) 0.5336(7) 0.0222 Uani
C51 C 0.0891(14) 0.0624(12) 0.8090(7) 0.0210 Uani
C52 C 0.3037(15) 0.1344(14) 0.6206(7) 0.0218 Uani
C53 C 0.3476(14) 0.1340(14) 0.4298(7) 0.0283 Uani
H18 H 0.305231 0.175227 0.395651 0.0340 Uiso
C55 C 0.3440(14) 0.1077(12) 0.7936(6) 0.0219 Uani
H19 H 0.428284 0.122432 0.787386 0.0260 Uiso
C56 C 0.1435(14) 0.0885(11) 0.8658(7) 0.0200 Uani
H20 H 0.096569 0.087870 0.909115 0.0240 Uiso
C58 C 0.3200(16) 0.1532(12) 0.9174(7) 0.0224 Uani
C60 C 0.2895(14) 0.0771(12) 0.7391(7) 0.0233 Uani
H40 H 0.57246 0.033093 7.52165e-05 . .
O7 O 0.6462(10) 0.0478(8) 0.9670(5) 0.0325 Uani
O62 O 0.8990(9) 0.0202(7) 0.8752(5) 0.0189 Uani
H36_2 H 0.595823 0.0278338 0.830423 . .
O32 O 0.8886(12) 0.0532(12) 0.7640(6) 0.0612 Uani
C54 C 0.9488(16) 0.0454(12) 0.8150(9) 0.0306 Uani
O8 O 0.7534(9) 0.8446(9) 0.0260(5) 0.0333 Uani
O12 O 0.7900(10) 0.7871(9) 0.3630(5) 0.0349 Uani
O16 O 0.5725(10) 0.8205(8) 0.0921(4) 0.0253 Uani
N3 N 0.6335(11) 0.9333(10) 0.3291(5) 0.0226 Uani
C4 C 0.8338(14) 0.9448(12) 0.2538(7) 0.0231 Uani
H1 H 0.866067 0.964752 0.291697 0.0280 Uiso
C7 C 0.7011(14) 0.8372(13) 0.5030(7) 0.0248 Uani
H2 H 0.774681 0.776565 0.492608 0.0300 Uiso
C10 C 0.7326(14) 0.8846(12) 0.1423(6) 0.0205 Uani
C12 C 0.6410(13) 0.8980(13) 0.4507(6) 0.0226 Uani
C14 C 0.5251(13) 0.9839(13) 0.4664(7) 0.0222 Uani
C20 C 0.9109(14) 0.9376(12) 0.1910(7) 0.0210 Uani
C32 C 0.6963(15) 0.8656(14) 0.3794(7) 0.0218 Uani
C34 C 0.6524(14) 0.8660(14) 0.5702(7) 0.0283 Uani
H12 H 0.694769 0.824773 0.604349 0.0340 Uiso
C36 C 0.6560(14) 0.8923(12) 0.2064(6) 0.0219 Uani
H13 H 0.571716 0.877568 0.212614 0.0260 Uiso
C37 C 0.8565(14) 0.9115(11) 0.1342(7) 0.0200 Uani
H14 H 0.903431 0.912130 0.090885 0.0240 Uiso
C39 C 0.6800(16) 0.8468(12) 0.0826(7) 0.0224 Uani
C41 C 0.7105(14) 0.9229(12) 0.2609(7) 0.0233 Uani
O29 O 0.5478(9) 0.9380(8) 0.7051(4) 0.0275 Uani
C57 C 0.4868(14) 0.9848(13) 0.6587(7) 0.0222 Uani
C59 C 0.5420(14) 0.9548(13) 0.5876(7) 0.0240 Uani
H40_2 H 0.42754 0.966907 0.999925 . .
loop_
_atom_site_aniso_label
_atom_site_aniso_U_11
_atom_site_aniso_U_22
_atom_site_aniso_U_33
_atom_site_aniso_U_23
_atom_site_aniso_U_13
_atom_site_aniso_U_12
O2 0.015 0.028 0.034 0 -0.013 0
O22 0.025 0.045 0.035 -0.002 0.001 -0.016
Nd8 0.0149 0.0216 0.0166 -0.0007 -0.0004 -0.0009
O3 0.013 0.028 0.019 -0.005 0.012 -0.012
O4 0.02 0.039 0.018 -0.013 0 0.001
O9 0.025 0.045 0.016 -0.005 0 -0.008
O10 0.01 0.042 0.045 -0.002 0.007 0.006
O11 0.035 0.045 0.011 -0.001 0.005 0.004
O13 0.015 0.036 0.021 -0.018 -0.001 0.005
N1 0.019 0.042 0.014 -0.008 -0.003 -0.005
O18 0.022 0.034 0.008 -0.005 -0.004 0
O20 0.038 0.041 0.008 -0.012 0.006 -0.006
N2 0.017 0.04 0.011 -0.001 0.005 -0.012
O23 0.039 0.048 0.025 -0.005 -0.004 0.004
C1 0.021 0.041 0.027 -0.001 0.003 0.007
C2 0.009 0.033 0.012 0.008 -0.006 -0.006
C3 0.019 0.036 0.012 -0.006 -0.004 -0.012
C5 0.018 0.038 0.016 -0.007 -0.004 -0.009
C6 0.018 0.036 0.015 -0.006 -0.005 -0.011
C8 0.023 0.008 0.01 -0.003 -0.003 -0.004
C9 0.02 0.03 0.015 0.001 -0.004 0.001
C11 0.02 0.038 0.019 -0.007 -0.003 -0.005
C13 0.02 0.037 0.013 -0.004 -0.003 -0.011
C15 0.02 0.031 0.017 -0.001 -0.003 -0.002
C16 0.015 0.04 0.015 0.003 -0.001 0
C17 0.02 0.029 0.015 -0.001 -0.003 -0.004
C18 0.013 0.036 0.015 0.002 0.002 -0.005
C19 0.021 0.038 0.013 -0.004 -0.003 -0.008
C21 0.022 0.029 0.015 -0.002 -0.001 -0.004
C22 0.019 0.031 0.017 0.003 -0.003 0
C23 0.018 0.038 0.013 -0.006 -0.002 -0.008
C24 0.014 0.035 0.013 0.001 -0.002 -0.005
C25 0.018 0.04 0.014 -0.008 -0.003 -0.006
C26 0.016 0.04 0.01 -0.004 0.005 -0.016
C27 0.02 0.038 0.017 -0.008 0 -0.005
C28 0.014 0.039 0.015 0 0 -0.003
C29 0.02 0.039 0.018 -0.006 -0.006 -0.006
C30 0.016 0.038 0.01 0.002 -0.002 -0.001
C31 0.023 0.039 0.017 -0.006 -0.002 -0.004
C33 0.017 0.036 0.009 0.002 -0.004 -0.003
C42 0.015 0.045 0.029 0.01 -0.004 -0.017
C43 0.014 0.038 0.015 0 0.005 -0.005
C44 0.021 0.038 0.011 -0.003 0.001 -0.009
C45 0.021 0.029 0.016 0 -0.003 0
Nd10 0.0143 0.0264 0.0123 -0.0028 0.0014 -0.0021
O1 0.017 0.05 0.016 0.004 -0.003 -0.012
O5 0.02 0.031 0.026 0.003 -0.005 -0.006
O26 0.087 0.024 0.032 0.003 -0.003 -0.006
O38 0.004 0.047 0.02 0.005 0 -0.004
O44 0.046 0.033 0.029 0.006 -0.016 0.003
O46 0.015 0.029 0.019 0.003 0.011 0.001
O50 0.038 0.096 0.035 0.027 -0.01 -0.006
O51 0.056 0.053 0.111 0.003 -0.033 -0.012
Nd12 0.0143 0.0264 0.0123 -0.0028 0.0014 -0.0021
Nd1 0.0149 0.0216 0.0166 -0.0007 -0.0004 -0.0009
O6 0.004 0.047 0.02 0.005 0 -0.004
O15 0.046 0.033 0.029 0.006 -0.016 0.003
O19 0.015 0.029 0.019 0.003 0.011 0.001
O24 0.038 0.096 0.035 0.027 -0.01 -0.006
O25 0.056 0.053 0.111 0.003 -0.033 -0.012
O54 0.015 0.028 0.034 0 -0.013 0
O56 0.013 0.028 0.019 -0.005 0.012 -0.012
O64 0.025 0.045 0.035 -0.002 0.001 -0.016
O33 0.017 0.05 0.016 0.004 -0.003 -0.012
O37 0.02 0.031 0.026 0.003 -0.005 -0.006
O52 0.087 0.024 0.032 0.003 -0.003 -0.006
O58 0.01 0.042 0.045 -0.002 0.007 0.006
O60 0.015 0.036 0.021 -0.018 -0.001 0.005
O36 0.02 0.039 0.018 -0.013 0 0.001
O40 0.025 0.045 0.016 -0.005 0 -0.008
O42 0.035 0.045 0.011 -0.001 0.005 0.004
N5 0.019 0.042 0.014 -0.008 -0.003 -0.005
O45 0.022 0.034 0.008 -0.005 -0.004 0
O47 0.038 0.041 0.008 -0.012 0.006 -0.006
N6 0.017 0.04 0.011 -0.001 0.005 -0.012
O49 0.039 0.048 0.025 -0.005 -0.004 0.004
C61 0.021 0.041 0.027 -0.001 0.003 0.007
C62 0.009 0.033 0.012 0.008 -0.006 -0.006
C63 0.019 0.036 0.012 -0.006 -0.004 -0.012
C64 0.018 0.038 0.016 -0.007 -0.004 -0.009
C65 0.018 0.036 0.015 -0.006 -0.005 -0.011
C66 0.023 0.008 0.01 -0.003 -0.003 -0.004
C67 0.02 0.03 0.015 0.001 -0.004 0.001
C68 0.02 0.038 0.019 -0.007 -0.003 -0.005
C69 0.02 0.037 0.013 -0.004 -0.003 -0.011
C70 0.02 0.031 0.017 -0.001 -0.003 -0.002
C71 0.015 0.04 0.015 0.003 -0.001 0
C72 0.02 0.029 0.015 -0.001 -0.003 -0.004
C73 0.013 0.036 0.015 0.002 0.002 -0.005
C74 0.021 0.038 0.013 -0.004 -0.003 -0.008
C75 0.022 0.029 0.015 -0.002 -0.001 -0.004
C76 0.019 0.031 0.017 0.003 -0.003 0
C77 0.018 0.038 0.013 -0.006 -0.002 -0.008
C78 0.014 0.035 0.013 0.001 -0.002 -0.005
C79 0.018 0.04 0.014 -0.008 -0.003 -0.006
C80 0.016 0.04 0.01 -0.004 0.005 -0.016
C81 0.02 0.038 0.017 -0.008 0 -0.005
C82 0.014 0.039 0.015 0 0 -0.003
C83 0.02 0.039 0.018 -0.006 -0.006 -0.006
C84 0.016 0.038 0.01 0.002 -0.002 -0.001
C85 0.023 0.039 0.017 -0.006 -0.002 -0.004
C86 0.017 0.036 0.009 0.002 -0.004 -0.003
C87 0.015 0.045 0.029 0.01 -0.004 -0.017
C88 0.014 0.038 0.015 0 0.005 -0.005
C89 0.021 0.038 0.011 -0.003 0.001 -0.009
C90 0.021 0.029 0.016 0 -0.003 0
O17 0.018 0.012 0.026 -0.006 -0.004 -0.002
O21 0.053 0.12 0.021 0.016 -0.021 -0.035
C35 0.035 0.021 0.029 -0.004 0.015 -0.005
O39 0.034 0.027 0.03 -0.01 0.007 -0.002
O14 0.024 0.04 0.016 -0.004 0 -0.006
C38 0.015 0.042 0.01 -0.002 0.008 -0.013
C40 0.016 0.043 0.014 -0.004 0.004 -0.012
O27 0.027 0.048 0.018 0.001 0.001 -0.001
O28 0.04 0.042 0.018 -0.005 0.009 -0.009
O30 0.018 0.045 0.017 -0.004 0 -0.016
N4 0.014 0.043 0.011 -0.002 0.007 -0.012
C46 0.025 0.028 0.015 0 -0.005 -0.004
C47 0.013 0.049 0.015 -0.003 -0.006 -0.011
C48 0.022 0.025 0.012 0.001 -0.001 -0.003
C49 0.014 0.043 0.013 -0.005 0.002 -0.013
C50 0.014 0.042 0.013 -0.006 0.002 -0.013
C51 0.024 0.024 0.014 0.002 -0.001 -0.006
C52 0.013 0.042 0.013 -0.004 0.004 -0.014
C53 0.015 0.054 0.017 -0.002 -0.005 -0.01
C55 0.022 0.028 0.014 -0.001 -0.005 -0.003
C56 0.023 0.022 0.013 0.002 0.002 -0.005
C58 0.015 0.029 0.012 -0.001 0.001 0.011
C60 0.025 0.029 0.015 -0.002 -0.005 -0.005
O7 0.034 0.027 0.03 -0.01 0.007 -0.002
O62 0.018 0.012 0.026 -0.006 -0.004 -0.002
O32 0.053 0.12 0.021 0.016 -0.021 -0.035
C54 0.035 0.021 0.029 -0.004 0.015 -0.005
O8 0.027 0.048 0.018 0.001 0.001 -0.001
O12 0.04 0.042 0.018 -0.005 0.009 -0.009
O16 0.018 0.045 0.017 -0.004 0 -0.016
N3 0.014 0.043 0.011 -0.002 0.007 -0.012
C4 0.025 0.028 0.015 0 -0.005 -0.004
C7 0.013 0.049 0.015 -0.003 -0.006 -0.011
C10 0.022 0.025 0.012 0.001 -0.001 -0.003
C12 0.014 0.043 0.013 -0.005 0.002 -0.013
C14 0.014 0.042 0.013 -0.006 0.002 -0.013
C20 0.024 0.024 0.014 0.002 -0.001 -0.006
C32 0.013 0.042 0.013 -0.004 0.004 -0.014
C34 0.015 0.054 0.017 -0.002 -0.005 -0.01
C36 0.022 0.028 0.014 -0.001 -0.005 -0.003
C37 0.023 0.022 0.013 0.002 0.002 -0.005
C39 0.015 0.029 0.012 -0.001 0.001 0.011
C41 0.025 0.029 0.015 -0.002 -0.005 -0.005
O29 0.024 0.04 0.016 -0.004 0 -0.006
C57 0.015 0.042 0.01 -0.002 0.008 -0.013
C59 0.016 0.043 0.014 -0.004 0.004 -0.012
loop_
_geom_bond_atom_site_label_1
_geom_bond_atom_site_label_2
_geom_bond_site_symmetry_1
_geom_bond_site_symmetry_2
Nd8 O2 1_555 1_555
O22 Nd8 1_555 1_555
O3 C8 1_555 1_555
O4 C8 1_555 1_555
O9 C26 1_555 1_555
O10 C42 1_555 1_555
O11 C44 1_555 1_555
O13 C42 1_555 1_555
N1 C5 1_555 1_555
O20 C5 1_555 1_555
N2 C18 1_555 1_555
O23 C25 1_555 1_555
C1 O18 1_555 1_555
C2 C11 1_555 1_555
C3 C6 1_555 1_555
C5 C6 1_555 1_555
C6 C29 1_555 1_555
C8 C15 1_555 1_555
C9 N1 1_555 1_555
C11 H3 1_555 1_555
C13 C2 1_555 1_555
C15 C17 1_555 1_555
C16 C28 1_555 1_555
C17 H4 1_555 1_555
C18 C24 1_555 1_555
C19 C13 1_555 1_555
C21 C17 1_555 1_555
C22 C9 1_555 1_555
H5 C22 1_555 1_555
C23 C3 1_555 1_555
C24 H6 1_555 1_555
C25 N1 1_555 1_555
C26 N2 1_555 1_555
C27 C23 1_555 1_555
H7 C27 1_555 1_555
C28 C18 1_555 1_555
H8 C28 1_555 1_555
C29 C11 1_555 1_555
H9 C29 1_555 1_555
C30 C16 1_555 1_555
H10 C30 1_555 1_555
C31 C19 1_555 1_555
H11 C31 1_555 1_555
C33 C1 1_555 1_555
C42 C16 1_555 1_555
C43 C21 1_555 1_555
C44 N2 1_555 1_555
C45 C9 1_555 1_555
H15 C45 1_555 1_555
Nd8 O3 1_555 1_555
Nd10 O10 1_555 1_555
O13 Nd10 1_555 1_555
C2 C26 1_555 1_555
C3 C13 1_555 1_555
C15 C22 1_555 1_555
C19 C44 1_555 1_555
C21 C45 1_555 1_555
C23 C25 1_555 1_555
C24 C33 1_555 1_555
C27 C31 1_555 1_555
C30 C33 1_555 1_555
Nd10 O1 1_555 1_555
O5 Nd10 1_555 1_555
O26 Nd10 1_555 1_555
O38 Nd8 1_555 1_555
O44 Nd8 1_555 1_555
O46 Nd8 1_555 1_555
O50 Nd8 1_555 1_555
O51 Nd8 1_555 1_555
O46 H60 1_555 1_555
O6 Nd1 1_555 1_555
O15 Nd1 1_555 1_555
O19 Nd1 1_555 1_555
O24 Nd1 1_555 1_555
O25 Nd1 1_555 1_555
O54 Nd1 1_555 1_555
O56 Nd1 1_555 1_555
O64 Nd1 1_555 1_555
O19 H34 1_555 1_555
O33 Nd12 1_555 1_555
O37 Nd12 1_555 1_555
O52 Nd12 1_555 1_555
O58 Nd12 1_555 1_555
O60 Nd12 1_555 1_555
O56 C66 1_555 1_555
O36 C66 1_555 1_555
O40 C80 1_555 1_555
O58 C87 1_555 1_555
O42 C89 1_555 1_555
O60 C87 1_555 1_555
N5 C64 1_555 1_555
O47 C64 1_555 1_555
N6 C73 1_555 1_555
O49 C79 1_555 1_555
C62 C68 1_555 1_555
C63 C65 1_555 1_555
C64 C65 1_555 1_555
C65 C83 1_555 1_555
C66 C70 1_555 1_555
C67 N5 1_555 1_555
C68 H21 1_555 1_555
C69 C62 1_555 1_555
C70 C72 1_555 1_555
C71 C82 1_555 1_555
C72 H22 1_555 1_555
C73 C78 1_555 1_555
C74 C69 1_555 1_555
C75 C72 1_555 1_555
C76 C67 1_555 1_555
H23 C76 1_555 1_555
C77 C63 1_555 1_555
C78 H24 1_555 1_555
C79 N5 1_555 1_555
C80 N6 1_555 1_555
C81 C77 1_555 1_555
H25 C81 1_555 1_555
C82 C73 1_555 1_555
H26 C82 1_555 1_555
C83 C68 1_555 1_555
H27 C83 1_555 1_555
C84 C71 1_555 1_555
H28 C84 1_555 1_555
C85 C74 1_555 1_555
H29 C85 1_555 1_555
C86 C61 1_555 1_555
C87 C71 1_555 1_555
C88 C75 1_555 1_555
C89 N6 1_555 1_555
C90 C67 1_555 1_555
H30 C90 1_555 1_555
O45 C61 1_555 1_555
C62 C80 1_555 1_555
C63 C69 1_555 1_555
C70 C76 1_555 1_555
C74 C89 1_555 1_555
C75 C90 1_555 1_555
C77 C79 1_555 1_555
C78 C86 1_555 1_555
C81 C85 1_555 1_555
C84 C86 1_555 1_555
O17 C35 1_555 1_555
O21 C35 1_555 1_555
O14 C38 1_555 1_555
O27 C58 1_555 1_555
O28 C52 1_555 1_555
O30 C58 1_555 1_555
N4 C52 1_555 1_555
C46 H16 1_555 1_555
C47 H17 1_555 1_555
C48 C55 1_555 1_555
C49 C47 1_555 1_555
C51 C46 1_555 1_555
C52 C49 1_555 1_555
C53 C40 1_555 1_555
H18 C53 1_555 1_555
C55 H19 1_555 1_555
C56 C48 1_555 1_555
H20 C56 1_555 1_555
C58 C48 1_555 1_555
C60 N4 1_555 1_555
C38 C40 1_555 1_555
C46 C60 1_555 1_555
C47 C53 1_555 1_555
C49 C50 1_555 1_555
C51 C56 1_555 1_555
C55 C60 1_555 1_555
O62 C54 1_555 1_555
O32 C54 1_555 1_555
O12 C32 1_555 1_555
O16 C39 1_555 1_555
N3 C32 1_555 1_555
C4 H1 1_555 1_555
C7 H2 1_555 1_555
C10 C36 1_555 1_555
C12 C7 1_555 1_555
C14 C12 1_555 1_555
C20 C4 1_555 1_555
C32 C12 1_555 1_555
C34 C7 1_555 1_555
H12 C34 1_555 1_555
C36 H13 1_555 1_555
C37 C10 1_555 1_555
H14 C37 1_555 1_555
C39 O8 1_555 1_555
C41 N3 1_555 1_555
O29 C57 1_555 1_555
C59 C34 1_555 1_555
C4 C41 1_555 1_555
C10 C39 1_555 1_555
C20 C37 1_555 1_555
C36 C41 1_555 1_555
C57 C59 1_555 1_555

#END
