
###############################################################################
#
# This file contains modified crystal structure data generated from the
# MOF subset of the Cambridge Structural Database (CSD) v543 
# hosted by the Cambridge Crystallographic Data Centre (CCDC).
#
# This work is licensed under the Creative Commons
# Attribution-NonCommercial-ShareAlike 4.0 International License.
# To view a copy of this license, visit
# http://creativecommons.org/licenses/by-nc-sa/4.0/
# or send a letter to
# Creative Commons, PO Box 1866, Mountain View, CA 94042, USA.
#
# CIF created using the CSD Python API on 29 September 2022
# The structure has been converted into the P1 space group
# The structure has a 3D framework
# The original CSD entry TIKTAL is in the tetragonal crystal system
# The original CSD entry TIKTAL is in a Sohncke space group
# The framework has been calculated to contain at least 10.0% void space
# The void calculation uses a probe of radius 1.32A, grid spacing 0.4
#
###############################################################################

data_TIKTAL
_chemical_formula_moiety         '(C84 H42 O37 V10)n'
_symmetry_cell_setting           triclinic
_symmetry_space_group_name_H-M   'P 1'
_symmetry_Int_Tables_number      1
_space_group_name_Hall           'P 1'
loop_
_symmetry_equiv_pos_site_id
_symmetry_equiv_pos_as_xyz
1 x,y,z
_cell_length_a                   15.1477(3)
_cell_length_b                   15.1477(3)
_cell_length_c                   12.0664(3)
_cell_angle_alpha                90
_cell_angle_beta                 90
_cell_angle_gamma                90
_cell_volume                     2768.67
loop_
_atom_site_label
_atom_site_type_symbol
_atom_site_fract_x
_atom_site_fract_y
_atom_site_fract_z
O4 O 0.6177(8) 0.3822(7) 0.3942(5)
O5 O 0.7138(5) 0.4053(8) 0.2495(6)
C6 C 0.6389(4) 0.4120(5) 0.2984(4)
C7 C 0.5693(1) 0.4594(2) 0.2375(3)
C8 C 0.5000 0.5000 0.2957(4)
C9 C 0.5693(1) 0.4594(2) 0.1211(2)
C10 C 0.5000 0.5000 0.0629(2)
H4 H 0.5000 0.5000 0.3827(8)
H5 H 0.6211(5) 0.4290(4) 0.0775(4)
O8 O 0.3823(8) 0.6178(7) 0.3942(5)
O9 O 0.2862(5) 0.5947(8) 0.2495(6)
C14 C 0.3611(4) 0.5880(5) 0.2984(4)
C15 C 0.4307(1) 0.5406(2) 0.2375(3)
C16 C 0.4307(1) 0.5406(2) 0.1211(2)
H7 H 0.3789(5) 0.5710(4) 0.0775(4)
V3 V 0.6890 0.3110 0.5000
V5 V 0.8110 0.3110 0.2500
V6 V 0.1890 0.6890 0.2500
V8 V 0.3110 0.6890 0.5000
O1 O 0.7582(4) 0.2500 0.6250
O2 O 0.6178(7) 0.3823(8) 0.6058(5)
O3 O 0.5947(8) 0.2862(5) 0.7505(6)
C1 C 0.5880(5) 0.3611(4) 0.7016(4)
C2 C 0.5406(2) 0.4307(1) 0.7625(3)
C3 C 0.5000 0.5000 0.7043(4)
C4 C 0.5406(2) 0.4307(1) 0.8789(2)
C5 C 0.5000 0.5000 0.9371(2)
H1 H 0.8176(9) 0.2500 0.6250
H2 H 0.5000 0.5000 0.6173(8)
H3 H 0.5710(4) 0.3789(5) 0.9225(4)
O6 O 0.3822(7) 0.6177(8) 0.6058(5)
O7 O 0.4053(8) 0.7138(5) 0.7505(6)
C11 C 0.4120(5) 0.6389(4) 0.7016(4)
C12 C 0.4594(2) 0.5693(1) 0.7625(3)
C13 C 0.4594(2) 0.5693(1) 0.8789(2)
H6 H 0.4290(4) 0.6211(5) 0.9225(4)
V2 V 0.6890 0.1890 0.7500
O10 O 0.7500 0.2418(4) 0.3750
H8 H 0.7500 0.1824(9) 0.3750
V9 V 0.3110 0.8110 0.7500
O11 O 0.7500 0.2582(4) 0.8750
O12 O 0.6177(8) 0.1178(7) 0.8558(5)
O13 O 0.6178(7) 0.1177(8) 0.6442(5)
O15 O 0.7862(5) 0.4053(8) 0.5005(6)
O16 O 0.5947(8) 0.2138(5) 0.4995(6)
O17 O 0.7862(5) 0.0947(8) 0.7495(6)
O3_2 O 0.7138(5) 0.0947(8) 0.0005(6)
C2_2 C 0.5693(1) 0.0406(2) 0.0125(3)
C4_2 C 0.5693(1) 0.0406(2) 0.1289(2)
C5_2 C 0.5000 0.0000 0.1871(2)
H3_2 H 0.6211(5) 0.0710(4) 0.1725(4)
C6_2 C 0.5880(5) 0.1389(4) 0.5484(4)
C7_2 C 0.5406(2) 0.0693(1) 0.4875(3)
C8_2 C 0.5000 0.0000 0.5457(4)
C9_2 C 0.5406(2) 0.0693(1) 0.3711(2)
C10_2 C 0.5000 0.0000 0.3129(2)
H4_2 H 0.5000 0.0000 0.6327(8)
H5_2 H 0.5710(4) 0.1211(5) 0.3275(4)
V2_2 V 0.8110 0.1890 -0.0000
O11_2 O 0.7418(4) 0.2500 0.1250
O12_2 O 0.8822(7) 0.1177(8) 0.1058(5)
C1_2 C 0.6389(4) 0.0880(5) 0.9516(4)
C3_2 C 0.5000 0.0000 0.9543(4)
H1_2 H 0.7500 0.3176(9) 0.8750
H2_2 H 0.5000 0.0000 0.8673(8)
V2_3 V 0.8110 0.1890 1.0000
O13_2 O 0.8823(8) 0.1178(7) 0.8942(5)
O17_2 O 0.9053(8) 0.2862(5) 0.9995(6)
C5_3 C 0.5000 1.0000 0.1871(2)
C8_3 C 0.5000 1.0000 0.5457(4)
C10_3 C 0.5000 1.0000 0.3129(2)
H4_3 H 0.5000 1.0000 0.6327(8)
O7_2 O 0.2862(5) 0.9053(8) 0.0005(6)
C12_2 C 0.4307(1) 0.9594(2) 0.0125(3)
C13_2 C 0.4307(1) 0.9594(2) 0.1289(2)
H6_2 H 0.3789(5) 0.9290(4) 0.1725(4)
O8_2 O 0.3822(7) 0.8823(8) 0.6442(5)
O9_2 O 0.4053(8) 0.7862(5) 0.4995(6)
C14_2 C 0.4120(5) 0.8611(4) 0.5484(4)
C15_2 C 0.4594(2) 0.9307(1) 0.4875(3)
C16_2 C 0.4594(2) 0.9307(1) 0.3711(2)
H7_2 H 0.4290(4) 0.8789(5) 0.3275(4)
V9_2 V 0.1890 0.8110 -0.0000
C3_3 C 0.5000 1.0000 0.9543(4)
H2_3 H 0.5000 1.0000 0.8673(8)
O6_2 O 0.3823(8) 0.8822(7) 0.8558(5)
C11_2 C 0.3611(4) 0.9120(5) 0.9516(4)
V9_3 V 0.1890 0.8110 1.0000
C3_4 C -0.0000 1.0000 0.2043(4)
C5_4 C -0.0000 1.0000 0.4371(2)
H2_4 H -0.0000 1.0000 0.1173(8)
C8_4 C 0.0000 1.0000 0.7957(4)
C10_4 C -0.0000 1.0000 0.5629(2)
H4_4 H 0.0000 1.0000 0.8827(8)
O6_3 O 0.1178(7) 0.8823(8) 0.1058(5)
O7_3 O 0.0947(8) 0.7862(5) 0.2505(6)
C11_3 C 0.0880(5) 0.8611(4) 0.2016(4)
C12_3 C 0.0406(2) 0.9307(1) 0.2625(3)
C13_3 C 0.0406(2) 0.9307(1) 0.3789(2)
H6_3 H 0.0710(4) 0.8789(5) 0.4225(4)
O8_3 O 0.1177(8) 0.8822(7) 0.8942(5)
O9_3 O 0.2138(5) 0.9053(8) 0.7495(6)
C14_3 C 0.1389(4) 0.9120(5) 0.7984(4)
C15_3 C 0.0693(1) 0.9594(2) 0.7375(3)
C16_3 C 0.0693(1) 0.9594(2) 0.6211(2)
H7_3 H 0.1211(5) 0.9290(4) 0.5775(4)
O3_3 O 0.9053(8) 0.2138(5) 0.2505(6)
C1_3 C 0.9120(5) 0.1389(4) 0.2016(4)
C2_3 C 0.9594(2) 0.0693(1) 0.2625(3)
C3_5 C 1.0000 -0.0000 0.2043(4)
C4_3 C 0.9594(2) 0.0693(1) 0.3789(2)
C5_5 C 1.0000 -0.0000 0.4371(2)
H1_3 H 0.6824(9) 0.2500 0.1250
H2_5 H 1.0000 -0.0000 0.1173(8)
H3_3 H 0.9290(4) 0.1211(5) 0.4225(4)
C6_3 C 0.8611(4) 0.0880(5) 0.7984(4)
C7_3 C 0.9307(1) 0.0406(2) 0.7375(3)
C8_5 C 1.0000 0.0000 0.7957(4)
C9_3 C 0.9307(1) 0.0406(2) 0.6211(2)
C10_5 C 1.0000 -0.0000 0.5629(2)
H4_5 H 1.0000 0.0000 0.8827(8)
H5_3 H 0.8789(5) 0.0710(4) 0.5775(4)
O12_3 O 0.8823(8) 0.3822(7) 0.3558(5)
O13_3 O 0.8822(7) 0.3823(8) 0.1442(5)
C8_6 C -0.0000 0.5000 0.0457(4)
H4_6 H 0.0000 0.5000 0.1327(8)
O8_4 O 0.1178(7) 0.6177(8) 0.1442(5)
C14_4 C 0.0880(5) 0.6389(4) 0.0484(4)
C3_6 C 0.0000 0.5000 0.4543(4)
C5_6 C 0.0000 0.5000 0.6871(2)
H2_6 H 0.0000 0.5000 0.3673(8)
C10_6 C 0.0000 0.5000 0.8129(2)
O6_4 O 0.1177(8) 0.6178(7) 0.3558(5)
O7_4 O 0.2138(5) 0.5947(8) 0.5005(6)
C11_4 C 0.1389(4) 0.5880(5) 0.4516(4)
C12_4 C 0.0693(1) 0.5406(2) 0.5125(3)
C13_4 C 0.0693(1) 0.5406(2) 0.6289(2)
H6_4 H 0.1211(5) 0.5710(4) 0.6725(4)
O9_4 O 0.0947(8) 0.7138(5) 0.9995(6)
C15_4 C 0.0406(2) 0.5693(1) 0.9875(3)
C16_4 C 0.0406(2) 0.5693(1) 0.8711(2)
H7_4 H 0.0710(4) 0.6211(5) 0.8275(4)
C6_4 C 0.9120(5) 0.3611(4) 0.0484(4)
C8_7 C 1.0000 0.5000 0.0457(4)
H4_7 H 1.0000 0.5000 0.1327(8)
C1_4 C 0.8611(4) 0.4120(5) 0.4516(4)
C2_4 C 0.9307(1) 0.4594(2) 0.5125(3)
C3_7 C 1.0000 0.5000 0.4543(4)
C4_4 C 0.9307(1) 0.4594(2) 0.6289(2)
C5_7 C 1.0000 0.5000 0.6871(2)
H2_7 H 1.0000 0.5000 0.3673(8)
H3_4 H 0.8789(5) 0.4290(4) 0.6725(4)
C7_4 C 0.9594(2) 0.4307(1) 0.9875(3)
C9_4 C 0.9594(2) 0.4307(1) 0.8711(2)
C10_7 C 1.0000 0.5000 0.8129(2)
H5_4 H 0.9290(4) 0.3789(5) 0.8275(4)
O1_2 O 0.2582(4) 0.7500 0.1250
H1_4 H 0.3176(9) 0.7500 0.1250
O11_3 O 0.2500 0.7582(4) 0.3750
O10_2 O 0.2500 0.7418(4) 0.8750
H8_2 H 0.2500 0.6824(9) 0.8750
H1_5 H 0.2500 0.8176(9) 0.3750
O11_4 O 0.2418(4) 0.7500 0.6250
H1_6 H 0.1824(9) 0.7500 0.6250
C3_8 C -0.0000 -0.0000 0.2043(4)
C5_8 C -0.0000 -0.0000 0.4371(2)
H2_8 H -0.0000 -0.0000 0.1173(8)
C8_8 C 0.0000 0.0000 0.7957(4)
C10_8 C -0.0000 -0.0000 0.5629(2)
H4_8 H 0.0000 0.0000 0.8827(8)
C3_9 C 1.0000 1.0000 0.2043(4)
C5_9 C 1.0000 1.0000 0.4371(2)
H2_9 H 1.0000 1.0000 0.1173(8)
C8_9 C 1.0000 1.0000 0.7957(4)
C10_9 C 1.0000 1.0000 0.5629(2)
H4_9 H 1.0000 1.0000 0.8827(8)
loop_
_geom_bond_atom_site_label_1
_geom_bond_atom_site_label_2
_geom_bond_site_symmetry_1
_geom_bond_site_symmetry_2
O4 C6 1_555 1_555
O5 C6 1_555 1_555
C6 C7 1_555 1_555
C7 C8 1_555 1_555
C8 H4 1_555 1_555
C9 C7 1_555 1_555
H5 C9 1_555 1_555
O8 C14 1_555 1_555
O9 C14 1_555 1_555
C14 C15 1_555 1_555
C15 C8 1_555 1_555
C16 C10 1_555 1_555
H7 C16 1_555 1_555
V3 O4 1_555 1_555
V5 O5 1_555 1_555
V6 O9 1_555 1_555
V8 O8 1_555 1_555
C9 C10 1_555 1_555
C15 C16 1_555 1_555
V3 O1 1_555 1_555
O1 H1 1_555 1_555
O2 V3 1_555 1_555
O3 C1 1_555 1_555
C1 O2 1_555 1_555
C2 C1 1_555 1_555
C3 C2 1_555 1_555
C4 C2 1_555 1_555
C5 C4 1_555 1_555
H2 C3 1_555 1_555
H3 C4 1_555 1_555
O6 C11 1_555 1_555
O7 C11 1_555 1_555
C11 C12 1_555 1_555
C12 C3 1_555 1_555
C13 C5 1_555 1_555
H6 C13 1_555 1_555
V2 O1 1_555 1_555
O10 V3 1_555 1_555
H8 O10 1_555 1_555
V5 O10 1_555 1_555
V8 O6 1_555 1_555
V9 O7 1_555 1_555
O11 V2 1_555 1_555
O12 V2 1_555 1_555
O13 V2 1_555 1_555
O15 V3 1_555 1_555
O16 V3 1_555 1_555
O17 V2 1_555 1_555
O3 V2 1_555 1_555
C12 C13 1_555 1_555
C4_2 C2_2 1_555 1_555
C5_2 C4_2 1_555 1_555
H3_2 C4_2 1_555 1_555
O13 C6_2 1_555 1_555
O16 C6_2 1_555 1_555
C6_2 C7_2 1_555 1_555
C7_2 C8_2 1_555 1_555
C8_2 H4_2 1_555 1_555
C9_2 C7_2 1_555 1_555
C10_2 C5_2 1_555 1_555
H5_2 C9_2 1_555 1_555
O11_2 V2_2 1_555 1_555
O12_2 V2_2 1_555 1_555
O3_2 V2_2 1_555 1_555
C9_2 C10_2 1_555 1_555
O11 H1_2 1_555 1_555
C1_2 O12 1_555 1_555
H2_2 C3_2 1_555 1_555
V2_3 O11 1_555 1_555
O13_2 V2_3 1_555 1_555
O17_2 V2_3 1_555 1_555
C8_3 H4_3 1_555 1_555
C10_3 C5_3 1_555 1_555
C13_2 C5_3 1_555 1_555
H6_2 C13_2 1_555 1_555
O8_2 C14_2 1_555 1_555
O9_2 C14_2 1_555 1_555
C14_2 C15_2 1_555 1_555
C15_2 C8_3 1_555 1_555
C16_2 C10_3 1_555 1_555
H7_2 C16_2 1_555 1_555
V8 O9_2 1_555 1_555
V9 O8_2 1_555 1_555
V9_2 O7_2 1_555 1_555
C12_2 C13_2 1_555 1_555
C15_2 C16_2 1_555 1_555
H2_3 C3_3 1_555 1_555
O6_2 C11_2 1_555 1_555
V9 O6_2 1_555 1_555
H2_4 C3_4 1_555 1_555
C8_4 H4_4 1_555 1_555
C10_4 C5_4 1_555 1_555
O6_3 C11_3 1_555 1_555
O7_3 C11_3 1_555 1_555
C11_3 C12_3 1_555 1_555
C12_3 C3_4 1_555 1_555
C13_3 C5_4 1_555 1_555
H6_3 C13_3 1_555 1_555
O8_3 C14_3 1_555 1_555
O9_3 C14_3 1_555 1_555
C14_3 C15_3 1_555 1_555
C15_3 C8_4 1_555 1_555
C16_3 C10_4 1_555 1_555
H7_3 C16_3 1_555 1_555
V9 O9_3 1_555 1_555
V9_2 O6_3 1_555 1_555
V9_3 O8_3 1_555 1_555
V6 O7_3 1_555 1_555
C12_3 C13_3 1_555 1_555
C15_3 C16_3 1_555 1_555
O11_2 H1_3 1_555 1_555
O3_3 C1_3 1_555 1_555
C1_3 O12_2 1_555 1_555
C2_3 C1_3 1_555 1_555
C3_5 C2_3 1_555 1_555
C4_3 C2_3 1_555 1_555
C5_5 C4_3 1_555 1_555
H2_5 C3_5 1_555 1_555
H3_3 C4_3 1_555 1_555
O13_2 C6_3 1_555 1_555
O17 C6_3 1_555 1_555
C6_3 C7_3 1_555 1_555
C7_3 C8_5 1_555 1_555
C8_5 H4_5 1_555 1_555
C9_3 C7_3 1_555 1_555
C10_5 C5_5 1_555 1_555
H5_3 C9_3 1_555 1_555
V5 O11_2 1_555 1_555
O12_3 V5 1_555 1_555
O13_3 V5 1_555 1_555
O3_3 V5 1_555 1_555
C9_3 C10_5 1_555 1_555
C8_6 H4_6 1_555 1_555
O8_4 C14_4 1_555 1_555
V6 O8_4 1_555 1_555
H2_6 C3_6 1_555 1_555
C10_6 C5_6 1_555 1_555
O6_4 C11_4 1_555 1_555
O7_4 C11_4 1_555 1_555
C11_4 C12_4 1_555 1_555
C12_4 C3_6 1_555 1_555
C13_4 C5_6 1_555 1_555
H6_4 C13_4 1_555 1_555
C16_4 C10_6 1_555 1_555
H7_4 C16_4 1_555 1_555
V9_3 O9_4 1_555 1_555
V6 O6_4 1_555 1_555
V8 O7_4 1_555 1_555
C12_4 C13_4 1_555 1_555
C15_4 C16_4 1_555 1_555
O13_3 C6_4 1_555 1_555
C8_7 H4_7 1_555 1_555
O15 C1_4 1_555 1_555
C1_4 O12_3 1_555 1_555
C2_4 C1_4 1_555 1_555
C3_7 C2_4 1_555 1_555
C4_4 C2_4 1_555 1_555
C5_7 C4_4 1_555 1_555
H2_7 C3_7 1_555 1_555
H3_4 C4_4 1_555 1_555
C9_4 C7_4 1_555 1_555
C10_7 C5_7 1_555 1_555
H5_4 C9_4 1_555 1_555
C9_4 C10_7 1_555 1_555
V9_2 O1_2 1_555 1_555
O1_2 H1_4 1_555 1_555
V6 O1_2 1_555 1_555
O11_3 V6 1_555 1_555
O10_2 V9_3 1_555 1_555
H8_2 O10_2 1_555 1_555
V9 O10_2 1_555 1_555
O11_3 H1_5 1_555 1_555
V8 O11_3 1_555 1_555
O11_4 V8 1_555 1_555
O11_4 H1_6 1_555 1_555
V9 O11_4 1_555 1_555
H2_8 C3_8 1_555 1_555
C8_8 H4_8 1_555 1_555
C10_8 C5_8 1_555 1_555
H2_9 C3_9 1_555 1_555
C8_9 H4_9 1_555 1_555
C10_9 C5_9 1_555 1_555

#END
