
###############################################################################
#
# This file contains modified crystal structure data generated from the
# MOF subset of the Cambridge Structural Database (CSD) v543 
# hosted by the Cambridge Crystallographic Data Centre (CCDC).
#
# This work is licensed under the Creative Commons
# Attribution-NonCommercial-ShareAlike 4.0 International License.
# To view a copy of this license, visit
# http://creativecommons.org/licenses/by-nc-sa/4.0/
# or send a letter to
# Creative Commons, PO Box 1866, Mountain View, CA 94042, USA.
#
# CIF created using the CSD Python API on 29 September 2022
# The structure has been converted into the P1 space group
# The structure has a 3D framework
# The original CSD entry TILDIC01 is in the monoclinic crystal system
# The framework has been calculated to contain at least 10.0% void space
# The void calculation uses a probe of radius 1.32A, grid spacing 0.4
#
###############################################################################

data_TILDIC01
_chemical_formula_moiety         '(C62 H88 O56 Tb8)n'
_symmetry_cell_setting           triclinic
_symmetry_space_group_name_H-M   'P 1'
_symmetry_Int_Tables_number      1
_space_group_name_Hall           'P 1'
loop_
_symmetry_equiv_pos_site_id
_symmetry_equiv_pos_as_xyz
1 x,y,z
_cell_length_a                   7.9368(2)
_cell_length_b                   14.9436(3)
_cell_length_c                   19.6279(4)
_cell_angle_alpha                90
_cell_angle_beta                 94.485(2)
_cell_angle_gamma                90
_cell_volume                     2320.83
loop_
_atom_site_label
_atom_site_type_symbol
_atom_site_fract_x
_atom_site_fract_y
_atom_site_fract_z
O13 O 0.3841(4) 0.35489(19) 0.05991(18)
H15 H 0.331528 0.305062 0.056172
H16 H 0.385265 0.373181 0.101156
Tb6 Tb 0.75642(2) 0.53722(2) 0.01225(2)
Tb8 Tb 0.25642(2) 0.03722(2) 0.01225(2)
O16 O 0.4949(4) 0.54482(18) 0.0612(2)
O18 O 0.2362(4) 0.5467(2) 0.0915(2)
C5 C -0.000000 0.3664(4) 0.750000
H8 H 0.012037 0.266732 0.678822
O8 O 0.1672(4) 0.3228(2) 0.92808(16)
O9 O 0.1469(4) 0.44634(19) 0.86923(19)
C9 C 0.1289(5) 0.3628(3) 0.8722(2)
H12 H 0.088182 0.404603 0.734553
C10 C 0.0727(5) 0.3096(3) 0.8095(2)
H14 H 0.168541 0.276260 0.795030
Tb2 Tb 0.24358(2) 0.46278(2) 0.98775(2)
O10 O 0.5051(4) 0.45518(18) 0.9388(2)
O11 O 0.7638(4) 0.4533(2) 0.9085(2)
O12 O 0.5119(4) 0.07824(18) 0.96682(16)
O14 O 0.7673(4) 0.11377(18) 0.94210(19)
C11 C 0.6142(5) 0.4269(2) 0.8994(2)
C12 C 0.6142(5) 0.1348(3) 0.9446(2)
C13 C 0.5485(6) 0.2250(3) 0.9223(3)
H17 H 0.556978 0.264816 0.961388
H18 H 0.429775 0.219360 0.907030
C14 C 0.5688(5) 0.3598(3) 0.8443(2)
H19 H 0.614695 0.378569 0.802229
H20 H 0.446832 0.356322 0.836164
C15 C 0.6399(7) 0.2671(3) 0.8656(3)
H21 H 0.631065 0.227812 0.826111
H22 H 0.758773 0.273097 0.880540
O20 O 0.0119(4) 0.57824(18) 0.96682(16)
O21 O 0.0119(4) 0.42176(18) 0.46682(16)
O24 O 0.2673(4) 0.61377(18) 0.94210(19)
Tb4 Tb 0.74358(2) 0.96278(2) 0.98775(2)
O22 O 0.9881(4) 0.42176(18) 0.03318(16)
Tb1 Tb 0.75642(2) 0.46278(2) 0.51225(2)
O1 O 0.8328(4) 0.3228(2) 0.57192(16)
O2 O 0.4949(4) 0.45518(18) 0.5612(2)
O3 O 0.8531(4) 0.44634(19) 0.63077(19)
O4 O 0.2362(4) 0.4533(2) 0.5915(2)
O5 O 0.4881(4) 0.07824(18) 0.53318(16)
O6 O 0.6159(4) 0.35489(19) 0.44009(18)
H1 H 0.668472 0.305062 0.443828
H2 H 0.614735 0.373181 0.398844
O7 O 0.2327(4) 0.11377(18) 0.55790(19)
C1 C 0.3858(5) 0.4269(2) 0.6006(2)
C2 C 0.3858(5) 0.1348(3) 0.5554(2)
C3 C 0.8711(5) 0.3628(3) 0.6278(2)
C4 C 0.4515(6) 0.2250(3) 0.5777(3)
H3 H 0.443022 0.264816 0.538612
H4 H 0.570225 0.219360 0.592970
C5_2 C 1.000000 0.3664(4) 0.750000
H5 H 0.911818 0.404603 0.765447
C6 C 0.4312(5) 0.3598(3) 0.6557(2)
H6 H 0.385305 0.378569 0.697771
H7 H 0.553168 0.356322 0.663836
C7 C 0.9273(5) 0.3096(3) 0.6905(2)
H9 H 0.831459 0.276260 0.704970
C8 C 0.3601(7) 0.2671(3) 0.6344(3)
H10 H 0.368935 0.227812 0.673889
H11 H 0.241227 0.273097 0.619460
H13 H 0.987963 0.266732 0.821178
Tb5 Tb 0.24358(2) 0.53722(2) 0.48775(2)
Tb7 Tb 0.74358(2) 0.03722(2) 0.48775(2)
O15 O 0.5051(4) 0.54482(18) 0.4388(2)
O17 O 0.7638(4) 0.5467(2) 0.4085(2)
O19 O 0.9881(4) 0.57824(18) 0.53318(16)
O23 O 0.7327(4) 0.61377(18) 0.55790(19)
Tb3 Tb 0.25642(2) 0.96278(2) 0.51225(2)
O10_2 O 0.0051(4) 0.95518(18) 0.9388(2)
O11_2 O 0.2638(4) 0.9533(2) 0.9085(2)
C11_2 C 0.1142(5) 0.9269(2) 0.8994(2)
C12_2 C 0.1142(5) 0.6348(3) 0.9446(2)
C13_2 C 0.0485(6) 0.7250(3) 0.9223(3)
H17_2 H 0.056978 0.764816 0.961388
C14_2 C 0.0688(5) 0.8598(3) 0.8443(2)
H19_2 H 0.114695 0.878569 0.802229
C15_2 C 0.1399(7) 0.7671(3) 0.8656(3)
H21_2 H 0.131065 0.727812 0.826111
H22_2 H 0.258773 0.773097 0.880540
O16_2 O 0.9949(4) 0.04482(18) 0.0612(2)
O18_2 O 0.7362(4) 0.0467(2) 0.0915(2)
O15_2 O 0.0051(4) 0.04482(18) 0.4388(2)
O17_2 O 0.2638(4) 0.0467(2) 0.4085(2)
O13_2 O 0.8841(4) 0.85489(19) 0.05991(18)
H15_2 H 0.831528 0.805062 0.056172
H16_2 H 0.885265 0.873181 0.101156
O22_2 O 0.4881(4) 0.92176(18) 0.03318(16)
O1_2 O 0.3328(4) 0.8228(2) 0.57192(16)
O3_2 O 0.3531(4) 0.94634(19) 0.63077(19)
O6_2 O 0.1159(4) 0.85489(19) 0.44009(18)
H1_2 H 0.168472 0.805062 0.443828
H2_2 H 0.114735 0.873181 0.398844
C3_2 C 0.3711(5) 0.8628(3) 0.6278(2)
H4_2 H 0.070225 0.719360 0.592970
C5_3 C 0.500000 0.8664(4) 0.750000
H5_2 H 0.411818 0.904603 0.765447
H7_2 H 0.053168 0.856322 0.663836
C7_2 C 0.4273(5) 0.8096(3) 0.6905(2)
H8_2 H 0.512037 0.766732 0.678822
H9_2 H 0.331459 0.776260 0.704970
O8_2 O 0.6672(4) 0.8228(2) 0.92808(16)
O9_2 O 0.6469(4) 0.94634(19) 0.86923(19)
C9_2 C 0.6289(5) 0.8628(3) 0.8722(2)
H12_2 H 0.588182 0.904603 0.734553
C10_2 C 0.5727(5) 0.8096(3) 0.8095(2)
H13_2 H 0.487963 0.766732 0.821178
H14_2 H 0.668541 0.776260 0.795030
H18_2 H 0.929775 0.719360 0.907030
H20_2 H 0.946832 0.856322 0.836164
O21_2 O 0.5119(4) 0.92176(18) 0.46682(16)
O2_2 O 0.9949(4) 0.95518(18) 0.5612(2)
O4_2 O 0.7362(4) 0.9533(2) 0.5915(2)
C1_2 C 0.8858(5) 0.9269(2) 0.6006(2)
C2_2 C 0.8858(5) 0.6348(3) 0.5554(2)
C4_2 C 0.9515(6) 0.7250(3) 0.5777(3)
H3_2 H 0.943022 0.764816 0.538612
C6_2 C 0.9312(5) 0.8598(3) 0.6557(2)
H6_2 H 0.885305 0.878569 0.697771
C8_2 C 0.8601(7) 0.7671(3) 0.6344(3)
H10_2 H 0.868935 0.727812 0.673889
H11_2 H 0.741227 0.773097 0.619460
O1_3 O 0.1672(4) 0.6772(2) 0.42808(16)
O3_3 O 0.1469(4) 0.55366(19) 0.36923(19)
O6_3 O 0.3841(4) 0.64511(19) 0.55991(18)
H1_3 H 0.331528 0.694938 0.556172
H2_3 H 0.385265 0.626819 0.601156
O7_2 O 0.7673(4) 0.88623(18) 0.44210(19)
C1_3 C 0.6142(5) 0.5731(2) 0.3994(2)
C2_3 C 0.6142(5) 0.8652(3) 0.4446(2)
C3_3 C 0.1289(5) 0.6372(3) 0.3722(2)
C4_3 C 0.5485(6) 0.7750(3) 0.4223(3)
H3_3 H 0.556978 0.735184 0.461388
H4_3 H 0.429775 0.780640 0.407030
C5_4 C -0.000000 0.6336(4) 0.250000
H5_3 H 0.088182 0.595397 0.234553
C6_3 C 0.5688(5) 0.6402(3) 0.3443(2)
H6_3 H 0.614695 0.621431 0.302229
H7_3 H 0.446832 0.643678 0.336164
C7_3 C 0.0727(5) 0.6904(3) 0.3095(2)
H9_3 H 0.168541 0.723740 0.295030
C8_3 C 0.6399(7) 0.7329(3) 0.3656(3)
H10_3 H 0.631065 0.772188 0.326111
H11_3 H 0.758773 0.726903 0.380540
H13_3 H 0.012037 0.733268 0.178822
O23_2 O 0.2673(4) 0.38623(18) 0.44210(19)
C5_5 C 1.000000 0.6336(4) 0.250000
H8_3 H 0.987963 0.733268 0.321178
O8_3 O 0.8328(4) 0.6772(2) 0.07192(16)
O9_3 O 0.8531(4) 0.55366(19) 0.13077(19)
C9_3 C 0.8711(5) 0.6372(3) 0.1278(2)
H12_3 H 0.911818 0.595397 0.265447
C10_3 C 0.9273(5) 0.6904(3) 0.1905(2)
H14_3 H 0.831459 0.723740 0.204970
O14_2 O 0.2327(4) 0.88623(18) 0.05790(19)
C11_3 C 0.3858(5) 0.5731(2) 0.1006(2)
C12_3 C 0.3858(5) 0.8652(3) 0.0554(2)
C13_3 C 0.4515(6) 0.7750(3) 0.0777(3)
H17_3 H 0.443022 0.735184 0.038612
H18_3 H 0.570225 0.780640 0.092970
C14_3 C 0.4312(5) 0.6402(3) 0.1557(2)
H19_3 H 0.385305 0.621431 0.197771
H20_3 H 0.553168 0.643678 0.163836
C15_3 C 0.3601(7) 0.7329(3) 0.1344(3)
H21_3 H 0.368935 0.772188 0.173889
H22_3 H 0.241227 0.726903 0.119460
O24_2 O 0.7327(4) 0.38623(18) 0.05790(19)
O13_3 O 0.6159(4) 0.64511(19) 0.94009(18)
H15_3 H 0.668472 0.694938 0.943828
H16_3 H 0.614735 0.626819 0.898844
C1_4 C 0.1142(5) 0.0731(2) 0.3994(2)
C2_4 C 0.1142(5) 0.3652(3) 0.4446(2)
C4_4 C 0.0485(6) 0.2750(3) 0.4223(3)
H3_4 H 0.056978 0.235184 0.461388
C6_4 C 0.0688(5) 0.1402(3) 0.3443(2)
H6_4 H 0.114695 0.121431 0.302229
C8_4 C 0.1399(7) 0.2329(3) 0.3656(3)
H10_4 H 0.131065 0.272188 0.326111
H11_4 H 0.258773 0.226903 0.380540
O1_4 O 0.6672(4) 0.1772(2) 0.42808(16)
O3_4 O 0.6469(4) 0.05366(19) 0.36923(19)
O6_4 O 0.8841(4) 0.14511(19) 0.55991(18)
H1_4 H 0.831528 0.194938 0.556172
H2_4 H 0.885265 0.126819 0.601156
C3_4 C 0.6289(5) 0.1372(3) 0.3722(2)
H4_4 H 0.929775 0.280640 0.407030
C5_6 C 0.500000 0.1336(4) 0.250000
H5_4 H 0.588182 0.095397 0.234553
H7_4 H 0.946832 0.143678 0.336164
C7_4 C 0.5727(5) 0.1904(3) 0.3095(2)
H8_4 H 0.487963 0.233268 0.321178
H9_4 H 0.668541 0.223740 0.295030
O8_4 O 0.3328(4) 0.1772(2) 0.07192(16)
O9_4 O 0.3531(4) 0.05366(19) 0.13077(19)
C9_4 C 0.3711(5) 0.1372(3) 0.1278(2)
H12_4 H 0.411818 0.095397 0.265447
C10_4 C 0.4273(5) 0.1904(3) 0.1905(2)
H13_4 H 0.512037 0.233268 0.178822
H14_4 H 0.331459 0.223740 0.204970
H18_4 H 0.070225 0.280640 0.092970
H20_4 H 0.053168 0.143678 0.163836
O13_4 O 0.1159(4) 0.14511(19) 0.94009(18)
H15_4 H 0.168472 0.194938 0.943828
H16_4 H 0.114735 0.126819 0.898844
C11_4 C 0.8858(5) 0.0731(2) 0.1006(2)
C12_4 C 0.8858(5) 0.3652(3) 0.0554(2)
C13_4 C 0.9515(6) 0.2750(3) 0.0777(3)
H17_4 H 0.943022 0.235184 0.038612
C14_4 C 0.9312(5) 0.1402(3) 0.1557(2)
H19_4 H 0.885305 0.121431 0.197771
C15_4 C 0.8601(7) 0.2329(3) 0.1344(3)
H21_4 H 0.868935 0.272188 0.173889
H22_4 H 0.741227 0.226903 0.119460
loop_
_geom_bond_atom_site_label_1
_geom_bond_atom_site_label_2
_geom_bond_site_symmetry_1
_geom_bond_site_symmetry_2
H15 O13 1_555 1_555
H16 O13 1_555 1_555
Tb6 O16 1_555 1_555
O8 C9 1_555 1_555
O9 C9 1_555 1_555
C9 C10 1_555 1_555
H12 C5 1_555 1_555
C10 C5 1_555 1_555
H14 C10 1_555 1_555
Tb2 O8 1_555 1_555
O10 Tb2 1_555 1_555
O11 C11 1_555 1_555
O12 C12 1_555 1_555
O14 C12 1_555 1_555
C11 O10 1_555 1_555
C12 C13 1_555 1_555
C13 H17 1_555 1_555
H18 C13 1_555 1_555
C14 C11 1_555 1_555
H19 C14 1_555 1_555
H20 C14 1_555 1_555
C15 C13 1_555 1_555
H21 C15 1_555 1_555
H22 C15 1_555 1_555
O20 Tb2 1_555 1_555
O24 Tb2 1_555 1_555
O9 Tb2 1_555 1_555
C14 C15 1_555 1_555
Tb1 O1 1_555 1_555
O1 C3 1_555 1_555
O2 Tb1 1_555 1_555
O3 Tb1 1_555 1_555
O4 C1 1_555 1_555
O5 C2 1_555 1_555
O6 Tb1 1_555 1_555
H1 O6 1_555 1_555
H2 O6 1_555 1_555
O7 C2 1_555 1_555
C1 O2 1_555 1_555
C2 C4 1_555 1_555
C3 O3 1_555 1_555
C4 H3 1_555 1_555
H4 C4 1_555 1_555
C5_2 H5 1_555 1_555
C6 C1 1_555 1_555
H6 C6 1_555 1_555
H7 C6 1_555 1_555
C7 C3 1_555 1_555
H9 C7 1_555 1_555
C8 C4 1_555 1_555
H10 C8 1_555 1_555
H11 C8 1_555 1_555
Tb5 O2 1_555 1_555
Tb7 O5 1_555 1_555
O15 Tb1 1_555 1_555
O17 Tb1 1_555 1_555
O19 Tb1 1_555 1_555
O23 Tb1 1_555 1_555
O4 Tb5 1_555 1_555
C5_2 C7 1_555 1_555
C6 C8 1_555 1_555
Tb5 O15 1_555 1_555
O11_2 C11_2 1_555 1_555
O20 C12_2 1_555 1_555
O24 C12_2 1_555 1_555
C11_2 O10_2 1_555 1_555
C12_2 C13_2 1_555 1_555
C13_2 H17_2 1_555 1_555
C14_2 C11_2 1_555 1_555
H19_2 C14_2 1_555 1_555
C15_2 C13_2 1_555 1_555
H21_2 C15_2 1_555 1_555
H22_2 C15_2 1_555 1_555
C14_2 C15_2 1_555 1_555
H15_2 O13_2 1_555 1_555
H16_2 O13_2 1_555 1_555
Tb3 O1_2 1_555 1_555
O1_2 C3_2 1_555 1_555
O3_2 Tb3 1_555 1_555
O6_2 Tb3 1_555 1_555
H1_2 O6_2 1_555 1_555
H2_2 O6_2 1_555 1_555
C3_2 O3_2 1_555 1_555
C5_3 H5_2 1_555 1_555
C7_2 C3_2 1_555 1_555
H8_2 C7_2 1_555 1_555
H9_2 C7_2 1_555 1_555
O8_2 C9_2 1_555 1_555
O9_2 C9_2 1_555 1_555
C9_2 C10_2 1_555 1_555
H12_2 C5_3 1_555 1_555
C10_2 C5_3 1_555 1_555
H13_2 C10_2 1_555 1_555
H14_2 C10_2 1_555 1_555
Tb4 O8_2 1_555 1_555
O21_2 Tb3 1_555 1_555
C5_3 C7_2 1_555 1_555
O9_2 Tb4 1_555 1_555
O4_2 C1_2 1_555 1_555
O19 C2_2 1_555 1_555
O23 C2_2 1_555 1_555
C1_2 O2_2 1_555 1_555
C2_2 C4_2 1_555 1_555
C4_2 H3_2 1_555 1_555
C6_2 C1_2 1_555 1_555
H6_2 C6_2 1_555 1_555
C8_2 C4_2 1_555 1_555
H10_2 C8_2 1_555 1_555
H11_2 C8_2 1_555 1_555
C6_2 C8_2 1_555 1_555
Tb5 O1_3 1_555 1_555
O1_3 C3_3 1_555 1_555
O3_3 Tb5 1_555 1_555
O17 C1_3 1_555 1_555
O21_2 C2_3 1_555 1_555
O6_3 Tb5 1_555 1_555
H1_3 O6_3 1_555 1_555
H2_3 O6_3 1_555 1_555
O7_2 C2_3 1_555 1_555
C1_3 O15 1_555 1_555
C2_3 C4_3 1_555 1_555
C3_3 O3_3 1_555 1_555
C4_3 H3_3 1_555 1_555
H4_3 C4_3 1_555 1_555
C5_4 H5_3 1_555 1_555
C6_3 C1_3 1_555 1_555
H6_3 C6_3 1_555 1_555
H7_3 C6_3 1_555 1_555
C7_3 C3_3 1_555 1_555
H9_3 C7_3 1_555 1_555
C8_3 C4_3 1_555 1_555
H10_3 C8_3 1_555 1_555
H11_3 C8_3 1_555 1_555
O21 Tb5 1_555 1_555
O23_2 Tb5 1_555 1_555
C5_4 C7_3 1_555 1_555
C6_3 C8_3 1_555 1_555
O8_3 C9_3 1_555 1_555
O9_3 C9_3 1_555 1_555
C9_3 C10_3 1_555 1_555
H12_3 C5_5 1_555 1_555
C10_3 C5_5 1_555 1_555
H14_3 C10_3 1_555 1_555
Tb6 O8_3 1_555 1_555
O18 C11_3 1_555 1_555
O22_2 C12_3 1_555 1_555
O14_2 C12_3 1_555 1_555
C11_3 O16 1_555 1_555
C12_3 C13_3 1_555 1_555
C13_3 H17_3 1_555 1_555
H18_3 C13_3 1_555 1_555
C14_3 C11_3 1_555 1_555
H19_3 C14_3 1_555 1_555
H20_3 C14_3 1_555 1_555
C15_3 C13_3 1_555 1_555
H21_3 C15_3 1_555 1_555
H22_3 C15_3 1_555 1_555
O22 Tb6 1_555 1_555
O24_2 Tb6 1_555 1_555
O9_3 Tb6 1_555 1_555
C14_3 C15_3 1_555 1_555
H15_3 O13_3 1_555 1_555
H16_3 O13_3 1_555 1_555
O17_2 C1_4 1_555 1_555
O21 C2_4 1_555 1_555
O23_2 C2_4 1_555 1_555
C1_4 O15_2 1_555 1_555
C2_4 C4_4 1_555 1_555
C4_4 H3_4 1_555 1_555
C6_4 C1_4 1_555 1_555
H6_4 C6_4 1_555 1_555
C8_4 C4_4 1_555 1_555
H10_4 C8_4 1_555 1_555
H11_4 C8_4 1_555 1_555
C6_4 C8_4 1_555 1_555
Tb7 O1_4 1_555 1_555
O1_4 C3_4 1_555 1_555
O3_4 Tb7 1_555 1_555
O6_4 Tb7 1_555 1_555
H1_4 O6_4 1_555 1_555
H2_4 O6_4 1_555 1_555
C3_4 O3_4 1_555 1_555
C5_6 H5_4 1_555 1_555
C7_4 C3_4 1_555 1_555
H8_4 C7_4 1_555 1_555
H9_4 C7_4 1_555 1_555
O8_4 C9_4 1_555 1_555
O9_4 C9_4 1_555 1_555
C9_4 C10_4 1_555 1_555
H12_4 C5_6 1_555 1_555
C10_4 C5_6 1_555 1_555
H13_4 C10_4 1_555 1_555
H14_4 C10_4 1_555 1_555
Tb8 O8_4 1_555 1_555
C5_6 C7_4 1_555 1_555
O9_4 Tb8 1_555 1_555
H15_4 O13_4 1_555 1_555
H16_4 O13_4 1_555 1_555
O18_2 C11_4 1_555 1_555
O22 C12_4 1_555 1_555
O24_2 C12_4 1_555 1_555
C11_4 O16_2 1_555 1_555
C12_4 C13_4 1_555 1_555
C13_4 H17_4 1_555 1_555
C14_4 C11_4 1_555 1_555
H19_4 C14_4 1_555 1_555
C15_4 C13_4 1_555 1_555
H21_4 C15_4 1_555 1_555
H22_4 C15_4 1_555 1_555
C14_4 C15_4 1_555 1_555

#END
