
###############################################################################
#
# This file contains modified crystal structure data generated from the
# MOF subset of the Cambridge Structural Database (CSD) v543 
# hosted by the Cambridge Crystallographic Data Centre (CCDC).
#
# This work is licensed under the Creative Commons
# Attribution-NonCommercial-ShareAlike 4.0 International License.
# To view a copy of this license, visit
# http://creativecommons.org/licenses/by-nc-sa/4.0/
# or send a letter to
# Creative Commons, PO Box 1866, Mountain View, CA 94042, USA.
#
# CIF created using the CSD Python API on 29 September 2022
# The structure has been converted into the P1 space group
# The structure has a 3D framework
# The original CSD entry TILFEC is in the monoclinic crystal system
# The framework has been calculated to contain at least 10.0% void space
# The void calculation uses a probe of radius 1.32A, grid spacing 0.4
#
###############################################################################

data_TILFEC
_chemical_formula_moiety         '(C144 H112 Co9 N8 O16)n'
_symmetry_cell_setting           triclinic
_symmetry_space_group_name_H-M   'P 1'
_symmetry_Int_Tables_number      1
_space_group_name_Hall           'P 1'
loop_
_symmetry_equiv_pos_site_id
_symmetry_equiv_pos_as_xyz
1 x,y,z
_cell_length_a                   23.367(6)
_cell_length_b                   23.544(6)
_cell_length_c                   7.6321(17)
_cell_angle_alpha                90
_cell_angle_beta                 91.166(17)
_cell_angle_gamma                90
_cell_volume                     4197.95
loop_
_atom_site_label
_atom_site_type_symbol
_atom_site_fract_x
_atom_site_fract_y
_atom_site_fract_z
Co5 Co 0.0000 0.0000 0.0000
Co5_2 Co 0.0000 0.0000 1.0000
C19 C 0.1369(2) 0.1081(2) 0.8153(7)
H15 H 0.1291 0.1338 0.9131
H16 H 0.1348 0.1294 0.7049
H17 H 0.1752 0.0918 0.8308
C20 C 0.09293(18) 0.0609(2) 0.8107(6)
C21 C 0.09389(19) 0.0208(2) 0.6765(6)
O3 O 0.05840(13) 0.06038(12) 0.9411(4)
C24 C 0.1393(2) 0.0269(2) 0.5405(6)
C26 C 0.2344(2) 0.0056(2) 0.4385(6)
C27 C 0.2271(2) 0.0440(2) 0.2999(6)
C28 C 0.1752(2) 0.0731(2) 0.2827(6)
H23 H 0.1696 0.0996 0.1900
C29 C 0.1317(2) 0.0636(2) 0.4002(6)
H24 H 0.0961 0.0826 0.3841
C30 C 0.2720(2) 0.0508(2) 0.1693(6)
C31 C 0.3077(2) 0.0533(2) 0.0641(7)
H25 H 0.4194 0.0415 0.0985
Co2 Co 0.0000 0.5000 0.5000
N6 N 0.06923(16) 0.56160(17) 0.5621(5)
O9 O 0.05840(13) 0.43962(12) 0.4411(4)
O10 O 0.00888(12) 0.53075(13) 0.2530(4)
C55 C 0.1369(2) 0.3919(2) 0.3153(7)
H43 H 0.1291 0.3662 0.4131
H44 H 0.1348 0.3706 0.2049
H45 H 0.1752 0.4082 0.3308
C56 C 0.09293(18) 0.4391(2) 0.3107(6)
C57 C 0.09389(19) 0.4792(2) 0.1765(6)
C58 C 0.05209(19) 0.5240(2) 0.1555(6)
C59 C 0.0574(2) 0.5663(2) 0.0117(6)
H46 H 0.0810 0.5983 0.0526
C60 C 0.1393(2) 0.4731(2) 0.0405(6)
C61 C 0.19053(19) 0.5022(2) 0.0577(6)
H49 H 0.1960 0.5280 0.1523
Co1 Co 0.5000 1.0000 0.5000
C37 C 0.36018(19) 0.9077(2) 0.2558(6)
H29 H 0.3722 0.8737 0.1923
H30 H 0.3239 0.9001 0.3134
H31 H 0.3552 0.9392 0.1732
C38 C 0.40525(19) 0.9230(2) 0.3921(6)
C39 C 0.41035(19) 0.89188(19) 0.5493(6)
C40 C 0.45581(19) 0.89720(19) 0.6750(6)
C41 C 0.4569(2) 0.8609(2) 0.8374(6)
H32 H 0.4936 0.8659 0.9000
H33 H 0.4257 0.8722 0.9136
H34 H 0.4523 0.8209 0.8044
O5 O 0.43784(12) 0.96428(12) 0.3504(4)
O6 O 0.49735(13) 0.93181(13) 0.6605(4)
C42 C 0.36512(19) 0.84746(19) 0.5815(5)
C43 C 0.3122(2) 0.8603(2) 0.6505(6)
H35 H 0.3047 0.8981 0.6872
C44 C 0.2707(2) 0.8198(2) 0.6668(7)
H36 H 0.2351 0.8297 0.7164
C45 C 0.2799(2) 0.7643(2) 0.6120(6)
C46 C 0.3319(2) 0.7506(2) 0.5447(6)
H37 H 0.3387 0.7128 0.5076
C47 C 0.3754(2) 0.7911(2) 0.5292(6)
H38 H 0.4114 0.7806 0.4838
C48 C 0.2364(2) 0.7216(2) 0.6185(6)
C49 C 0.1992(2) 0.6860(2) 0.6168(7)
C50 C 0.1549(2) 0.6435(2) 0.5996(6)
C51 C 0.0968(2) 0.6589(2) 0.5871(8)
H39 H 0.0854 0.6976 0.5927
C52 C 0.0569(2) 0.6164(2) 0.5664(7)
H40 H 0.0179 0.6271 0.5545
C53 C 0.1243(2) 0.5476(2) 0.5757(6)
H41 H 0.1342 0.5085 0.5716
C54 C 0.1682(2) 0.5868(2) 0.5956(6)
H42 H 0.2068 0.5747 0.6063
C68 C 0.6485(2) 0.9487(2) 0.0680(6)
C69 C 0.5920(2) 0.9571(2) 0.0216(6)
C70 C 0.55177(19) 0.9634(2) 0.1523(6)
H54 H 0.5127 0.9678 0.1178
N4 N 0.56509(15) 0.96349(16) 0.3242(5)
C71 C 0.6199(2) 0.9541(2) 0.3675(6)
H55 H 0.6303 0.9528 0.4884
C72 C 0.6622(2) 0.9461(2) 0.2470(7)
H56 H 0.7005 0.9389 0.2851
Co5_3 Co 0.0000 1.0000 0.0000
Co1_2 Co 0.5000 0.5000 0.0000
C3 C 0.41035(19) 0.60812(19) 0.0493(6)
C4 C 0.45581(19) 0.60280(19) 0.1750(6)
C5 C 0.4569(2) 0.6391(2) 0.3374(6)
H4 H 0.4936 0.6341 0.4000
H5 H 0.4257 0.6278 0.4136
H6 H 0.4523 0.6791 0.3044
O2 O 0.49735(13) 0.56819(13) 0.1605(4)
C6 C 0.36512(19) 0.65254(19) 0.0815(5)
C7 C 0.3122(2) 0.6397(2) 0.1505(6)
H7 H 0.3047 0.6019 0.1872
C8 C 0.2707(2) 0.6802(2) 0.1668(7)
H8 H 0.2351 0.6703 0.2164
C9 C 0.2799(2) 0.7357(2) 0.1120(6)
C10 C 0.3319(2) 0.7494(2) 0.0447(6)
H9 H 0.3387 0.7872 0.0076
C11 C 0.3754(2) 0.7089(2) 0.0292(6)
C12 C 0.2364(2) 0.7784(2) 0.1185(6)
C13 C 0.1992(2) 0.8140(2) 0.1168(7)
C14 C 0.1549(2) 0.8565(2) 0.0996(6)
C15 C 0.0968(2) 0.8411(2) 0.0871(8)
H11 H 0.0854 0.8024 0.0927
C16 C 0.0569(2) 0.8836(2) 0.0664(7)
H12 H 0.0179 0.8729 0.0545
N1 N 0.06923(16) 0.93840(17) 0.0621(5)
C17 C 0.1243(2) 0.9524(2) 0.0757(6)
H13 H 0.1342 0.9915 0.0716
C18 C 0.1682(2) 0.9132(2) 0.0956(6)
H14 H 0.2068 0.9253 0.1063
C37_2 C 0.63982(19) 0.4077(2) 0.2442(6)
H29_2 H 0.6278 0.3737 0.3077
H30_2 H 0.6761 0.4001 0.1866
H31_2 H 0.6448 0.4392 0.3268
C38_2 C 0.59475(19) 0.4230(2) 0.1079(6)
O5_2 O 0.56216(12) 0.46428(12) 0.1496(4)
H38_2 H 0.5886 0.2806 0.0162
H47 H 0.0754 0.5484 0.9109
H48 H 0.0192 0.5802 0.9770
C62 C 0.2344(2) 0.4944(2) 0.9385(6)
H50 H 0.2691 0.5152 0.9514
C63 C 0.2271(2) 0.4560(2) 0.7999(6)
C64 C 0.1752(2) 0.4269(2) 0.7827(6)
H51 H 0.1696 0.4004 0.6900
C65 C 0.1317(2) 0.4364(2) 0.9002(6)
H52 H 0.0961 0.4174 0.8841
C66 C 0.2720(2) 0.4492(2) 0.6693(6)
C67 C 0.3077(2) 0.4467(2) 0.5641(7)
C68_2 C 0.3515(2) 0.4487(2) 0.4320(6)
C69_2 C 0.4080(2) 0.4571(2) 0.4784(6)
H53 H 0.4194 0.4585 0.5985
C70_2 C 0.44823(19) 0.4634(2) 0.3477(6)
H54_2 H 0.4873 0.4678 0.3822
N4_2 N 0.43491(15) 0.46349(16) 0.1758(5)
C71_2 C 0.3801(2) 0.4541(2) 0.1325(6)
H55_2 H 0.3697 0.4528 0.0116
C72_2 C 0.3378(2) 0.4461(2) 0.2530(7)
H56_2 H 0.2995 0.4389 0.2149
Co5_4 Co 1.0000 0.0000 0.0000
C58_2 C 0.94791(19) 0.0240(2) 0.3445(6)
C59_2 C 0.9426(2) 0.0663(2) 0.4883(6)
H46_2 H 0.9190 0.0983 0.4474
H47_2 H 0.9246 0.0484 0.5891
H48_2 H 0.9808 0.0802 0.5230
O8 O 0.99112(12) 0.03075(13) 0.2470(4)
C61_2 C 0.80947(19) 0.0022(2) 0.4423(6)
H49_2 H 0.8040 0.0280 0.3477
H50_2 H 0.7309 0.0152 0.5486
Co5_5 Co 0.0000 1.0000 1.0000
Co1_3 Co 0.5000 0.5000 1.0000
C1 C 0.36018(19) 0.5923(2) 0.7558(6)
H1 H 0.3722 0.6263 0.6923
H2 H 0.3239 0.5999 0.8134
H3 H 0.3552 0.5608 0.6732
C2 C 0.40525(19) 0.5770(2) 0.8921(6)
O1 O 0.43784(12) 0.53572(12) 0.8504(4)
H10 H 0.4114 0.7194 0.9838
H19 H 0.9246 0.4516 0.0891
H20 H 0.9808 0.4198 0.0230
C26_2 C 0.7656(2) 0.5056(2) 0.0615(6)
H22 H 0.7309 0.4848 0.0486
C27_2 C 0.7729(2) 0.5440(2) 0.2001(6)
C28_2 C 0.8248(2) 0.5731(2) 0.2173(6)
H23_2 H 0.8304 0.5996 0.3100
C29_2 C 0.8683(2) 0.5636(2) 0.0998(6)
H24_2 H 0.9039 0.5826 0.1159
C30_2 C 0.7280(2) 0.5508(2) 0.3307(6)
C31_2 C 0.6923(2) 0.5533(2) 0.4359(7)
C32 C 0.6485(2) 0.5513(2) 0.5680(6)
C33 C 0.5920(2) 0.5429(2) 0.5216(6)
H25_2 H 0.5806 0.5415 0.4015
C34 C 0.55177(19) 0.5366(2) 0.6523(6)
H26 H 0.5127 0.5322 0.6178
N2 N 0.56509(15) 0.53651(16) 0.8242(5)
C35 C 0.6199(2) 0.5459(2) 0.8675(6)
H27 H 0.6303 0.5472 0.9884
C36 C 0.6622(2) 0.5539(2) 0.7470(7)
H28 H 0.7005 0.5611 0.7851
C39_2 C 0.58965(19) 0.39188(19) 0.9507(6)
C40_2 C 0.54419(19) 0.39720(19) 0.8250(6)
C41_2 C 0.5431(2) 0.3609(2) 0.6626(6)
H32_2 H 0.5064 0.3659 0.6000
H33_2 H 0.5743 0.3722 0.5864
H34_2 H 0.5477 0.3209 0.6956
O6_2 O 0.50265(13) 0.43181(13) 0.8395(4)
C42_2 C 0.63488(19) 0.34746(19) 0.9185(5)
C43_2 C 0.6878(2) 0.3603(2) 0.8495(6)
H35_2 H 0.6953 0.3981 0.8128
C44_2 C 0.7293(2) 0.3198(2) 0.8332(7)
H36_2 H 0.7649 0.3297 0.7836
C45_2 C 0.7201(2) 0.2643(2) 0.8880(6)
C46_2 C 0.6681(2) 0.2506(2) 0.9553(6)
H37_2 H 0.6613 0.2128 0.9924
C47_2 C 0.6246(2) 0.2911(2) 0.9708(6)
C48_2 C 0.7636(2) 0.2216(2) 0.8815(6)
C49_2 C 0.8008(2) 0.1860(2) 0.8832(7)
C50_2 C 0.8451(2) 0.1435(2) 0.9004(6)
C51_2 C 0.9032(2) 0.1589(2) 0.9129(8)
H39_2 H 0.9146 0.1976 0.9073
C52_2 C 0.9431(2) 0.1164(2) 0.9336(7)
H40_2 H 0.9821 0.1271 0.9455
N3 N 0.93077(16) 0.06160(17) 0.9379(5)
C53_2 C 0.8757(2) 0.0476(2) 0.9243(6)
H41_2 H 0.8658 0.0085 0.9284
C54_2 C 0.8318(2) 0.0868(2) 0.9044(6)
H42_2 H 0.7932 0.0747 0.8937
Co5_6 Co 1.0000 0.0000 1.0000
C22 C 0.05209(19) 0.9760(2) 0.6555(6)
C23 C 0.0574(2) 0.9337(2) 0.5117(6)
H18 H 0.0810 0.9017 0.5526
H19_2 H 0.0754 0.9516 0.4109
H20_2 H 0.0192 0.9198 0.4770
O4 O 0.00888(12) 0.96925(13) 0.7530(4)
C25 C 0.19053(19) 0.9978(2) 0.5577(6)
H21 H 0.1960 0.9720 0.6523
H22_2 H 0.2691 0.9848 0.4514
Co2_2 Co 1.0000 0.5000 0.5000
C19_2 C 0.8631(2) 0.6081(2) 0.6847(7)
H15_2 H 0.8709 0.6338 0.5869
H16_2 H 0.8652 0.6294 0.7951
H17_2 H 0.8248 0.5918 0.6692
C20_2 C 0.90707(18) 0.5609(2) 0.6893(6)
C21_2 C 0.90611(19) 0.5208(2) 0.8235(6)
C22_2 C 0.94791(19) 0.4760(2) 0.8445(6)
C23_2 C 0.9426(2) 0.4337(2) 0.9883(6)
H18_2 H 0.9190 0.4017 0.9474
O3_2 O 0.94160(13) 0.56038(12) 0.5589(4)
O4_2 O 0.99112(12) 0.46925(13) 0.7470(4)
C24_2 C 0.8607(2) 0.5269(2) 0.9595(6)
C25_2 C 0.80947(19) 0.4978(2) 0.9423(6)
H21_2 H 0.8040 0.4720 0.8477
N5 N 0.93077(16) 0.43840(17) 0.4379(5)
Co1_4 Co 0.5000 -0.0000 0.5000
C1_2 C 0.63982(19) 0.0923(2) 0.7442(6)
H1_2 H 0.6278 0.1263 0.8077
H2_2 H 0.6761 0.0999 0.6866
H3_2 H 0.6448 0.0608 0.8268
C2_2 C 0.59475(19) 0.0770(2) 0.6079(6)
C3_2 C 0.58965(19) 0.10812(19) 0.4507(6)
C4_2 C 0.54419(19) 0.10280(19) 0.3250(6)
C5_2 C 0.5431(2) 0.1391(2) 0.1626(6)
H4_2 H 0.5064 0.1341 0.1000
H5_2 H 0.5743 0.1278 0.0864
H6_2 H 0.5477 0.1791 0.1956
O1_2 O 0.56216(12) 0.03572(12) 0.6496(4)
O2_2 O 0.50265(13) 0.06819(13) 0.3395(4)
C6_2 C 0.63488(19) 0.15254(19) 0.4185(5)
C7_2 C 0.6878(2) 0.1397(2) 0.3495(6)
H7_2 H 0.6953 0.1019 0.3128
C8_2 C 0.7293(2) 0.1802(2) 0.3332(7)
H8_2 H 0.7649 0.1703 0.2836
C9_2 C 0.7201(2) 0.2357(2) 0.3880(6)
C10_2 C 0.6681(2) 0.2494(2) 0.4553(6)
H9_2 H 0.6613 0.2872 0.4924
C11_2 C 0.6246(2) 0.2089(2) 0.4708(6)
H10_2 H 0.5886 0.2194 0.5162
C12_2 C 0.7636(2) 0.2784(2) 0.3815(6)
C13_2 C 0.8008(2) 0.3140(2) 0.3832(7)
C14_2 C 0.8451(2) 0.3565(2) 0.4004(6)
C15_2 C 0.9032(2) 0.3411(2) 0.4129(8)
H11_2 H 0.9146 0.3024 0.4073
C16_2 C 0.9431(2) 0.3836(2) 0.4336(7)
H12_2 H 0.9821 0.3729 0.4455
C17_2 C 0.8757(2) 0.4524(2) 0.4243(6)
H13_2 H 0.8658 0.4915 0.4284
C18_2 C 0.8318(2) 0.4132(2) 0.4044(6)
H14_2 H 0.7932 0.4253 0.3937
C32_2 C 0.3515(2) 0.0513(2) 0.9320(6)
C33_2 C 0.4080(2) 0.0429(2) 0.9784(6)
C34_2 C 0.44823(19) 0.0366(2) 0.8477(6)
H26_2 H 0.4873 0.0322 0.8822
N2_2 N 0.43491(15) 0.03651(16) 0.6758(5)
C35_2 C 0.3801(2) 0.0459(2) 0.6325(6)
H27_2 H 0.3697 0.0472 0.5116
C36_2 C 0.3378(2) 0.0539(2) 0.7530(7)
H28_2 H 0.2995 0.0611 0.7149
Co5_7 Co 1.0000 1.0000 0.0000
C55_2 C 0.8631(2) 0.8919(2) 0.1847(7)
H43_2 H 0.8709 0.8662 0.0869
H44_2 H 0.8652 0.8706 0.2951
H45_2 H 0.8248 0.9082 0.1692
C56_2 C 0.90707(18) 0.9391(2) 0.1893(6)
C57_2 C 0.90611(19) 0.9792(2) 0.3235(6)
O7 O 0.94160(13) 0.93962(12) 0.0589(4)
C60_2 C 0.8607(2) 0.9731(2) 0.4595(6)
C62_2 C 0.7656(2) 0.9944(2) 0.5615(6)
C63_2 C 0.7729(2) 0.9560(2) 0.7001(6)
C64_2 C 0.8248(2) 0.9269(2) 0.7173(6)
H51_2 H 0.8304 0.9004 0.8100
C65_2 C 0.8683(2) 0.9364(2) 0.5998(6)
H52_2 H 0.9039 0.9174 0.6159
C66_2 C 0.7280(2) 0.9492(2) 0.8307(6)
C67_2 C 0.6923(2) 0.9467(2) 0.9359(7)
H53_2 H 0.5806 0.9585 0.9015
Co5_8 Co 1.0000 1.0000 1.0000
loop_
_geom_bond_atom_site_label_1
_geom_bond_atom_site_label_2
_geom_bond_site_symmetry_1
_geom_bond_site_symmetry_2
Co5_2 O3 1_555 1_555
C19 H15 1_555 1_555
H16 C19 1_555 1_555
H17 C19 1_555 1_555
C20 C19 1_555 1_555
C21 C20 1_555 1_555
O3 C20 1_555 1_555
C24 C21 1_555 1_555
C27 C26 1_555 1_555
C28 C27 1_555 1_555
H23 C28 1_555 1_555
C29 C24 1_555 1_555
H24 C29 1_555 1_555
C30 C27 1_555 1_555
C31 C30 1_555 1_555
C28 C29 1_555 1_555
N6 Co2 1_555 1_555
O9 Co2 1_555 1_555
O10 Co2 1_555 1_555
C55 H43 1_555 1_555
H44 C55 1_555 1_555
H45 C55 1_555 1_555
C56 C55 1_555 1_555
C57 C56 1_555 1_555
C58 C57 1_555 1_555
C59 C58 1_555 1_555
H46 C59 1_555 1_555
O9 C56 1_555 1_555
O10 C58 1_555 1_555
C60 C57 1_555 1_555
C61 C60 1_555 1_555
H49 C61 1_555 1_555
C37 H29 1_555 1_555
H30 C37 1_555 1_555
H31 C37 1_555 1_555
C38 C37 1_555 1_555
C39 C38 1_555 1_555
C40 C39 1_555 1_555
C41 C40 1_555 1_555
H32 C41 1_555 1_555
H33 C41 1_555 1_555
H34 C41 1_555 1_555
O5 Co1 1_555 1_555
O6 Co1 1_555 1_555
C42 C39 1_555 1_555
C43 C42 1_555 1_555
H35 C43 1_555 1_555
C44 C43 1_555 1_555
H36 C44 1_555 1_555
C45 C44 1_555 1_555
C46 C45 1_555 1_555
H37 C46 1_555 1_555
C47 C42 1_555 1_555
H38 C47 1_555 1_555
C48 C45 1_555 1_555
C49 C48 1_555 1_555
C50 C49 1_555 1_555
C51 C50 1_555 1_555
H39 C51 1_555 1_555
C52 C51 1_555 1_555
H40 C52 1_555 1_555
N6 C52 1_555 1_555
C53 N6 1_555 1_555
H41 C53 1_555 1_555
C54 C50 1_555 1_555
H42 C54 1_555 1_555
C69 C68 1_555 1_555
C70 C69 1_555 1_555
H54 C70 1_555 1_555
N4 Co1 1_555 1_555
C71 N4 1_555 1_555
H55 C71 1_555 1_555
C72 C68 1_555 1_555
H56 C72 1_555 1_555
C38 O5 1_555 1_555
C40 O6 1_555 1_555
C46 C47 1_555 1_555
C53 C54 1_555 1_555
C70 N4 1_555 1_555
C71 C72 1_555 1_555
C4 C3 1_555 1_555
C5 C4 1_555 1_555
H4 C5 1_555 1_555
H5 C5 1_555 1_555
H6 C5 1_555 1_555
O2 Co1_2 1_555 1_555
C6 C3 1_555 1_555
C7 C6 1_555 1_555
H7 C7 1_555 1_555
C8 C7 1_555 1_555
H8 C8 1_555 1_555
C9 C8 1_555 1_555
C10 C9 1_555 1_555
H9 C10 1_555 1_555
C11 C6 1_555 1_555
C12 C9 1_555 1_555
C13 C12 1_555 1_555
C14 C13 1_555 1_555
C15 C14 1_555 1_555
H11 C15 1_555 1_555
C16 C15 1_555 1_555
H12 C16 1_555 1_555
N1 C16 1_555 1_555
C17 N1 1_555 1_555
H13 C17 1_555 1_555
C18 C14 1_555 1_555
H14 C18 1_555 1_555
C37_2 H29_2 1_555 1_555
H30_2 C37_2 1_555 1_555
H31_2 C37_2 1_555 1_555
C38_2 C37_2 1_555 1_555
O5_2 Co1_2 1_555 1_555
H50 C62 1_555 1_555
C63 C62 1_555 1_555
C64 C63 1_555 1_555
H51 C64 1_555 1_555
H52 C65 1_555 1_555
C66 C63 1_555 1_555
C67 C66 1_555 1_555
C68_2 C67 1_555 1_555
C69_2 C68_2 1_555 1_555
H53 C69_2 1_555 1_555
C70_2 C69_2 1_555 1_555
H54_2 C70_2 1_555 1_555
N4_2 Co1_2 1_555 1_555
C71_2 N4_2 1_555 1_555
H55_2 C71_2 1_555 1_555
C72_2 C68_2 1_555 1_555
H56_2 C72_2 1_555 1_555
Co5_3 N1 1_555 1_555
C4 O2 1_555 1_555
C10 C11 1_555 1_555
C17 C18 1_555 1_555
C38_2 O5_2 1_555 1_555
C64 C65 1_555 1_555
C70_2 N4_2 1_555 1_555
C71_2 C72_2 1_555 1_555
C59_2 C58_2 1_555 1_555
H46_2 C59_2 1_555 1_555
H47_2 C59_2 1_555 1_555
H48_2 C59_2 1_555 1_555
O8 C58_2 1_555 1_555
H49_2 C61_2 1_555 1_555
O8 Co5_4 1_555 1_555
Co1_3 O1 1_555 1_555
C1 H1 1_555 1_555
H2 C1 1_555 1_555
H3 C1 1_555 1_555
C2 C1 1_555 1_555
O1 C2 1_555 1_555
H22 C26_2 1_555 1_555
C27_2 C26_2 1_555 1_555
C28_2 C27_2 1_555 1_555
H23_2 C28_2 1_555 1_555
H24_2 C29_2 1_555 1_555
C30_2 C27_2 1_555 1_555
C31_2 C30_2 1_555 1_555
C32 C31_2 1_555 1_555
C33 C32 1_555 1_555
H25_2 C33 1_555 1_555
C34 C33 1_555 1_555
H26 C34 1_555 1_555
N2 Co1_3 1_555 1_555
C35 N2 1_555 1_555
H27 C35 1_555 1_555
C36 C32 1_555 1_555
H28 C36 1_555 1_555
C40_2 C39_2 1_555 1_555
C41_2 C40_2 1_555 1_555
H32_2 C41_2 1_555 1_555
H33_2 C41_2 1_555 1_555
H34_2 C41_2 1_555 1_555
O6_2 Co1_3 1_555 1_555
C42_2 C39_2 1_555 1_555
C43_2 C42_2 1_555 1_555
H35_2 C43_2 1_555 1_555
C44_2 C43_2 1_555 1_555
H36_2 C44_2 1_555 1_555
C45_2 C44_2 1_555 1_555
C46_2 C45_2 1_555 1_555
H37_2 C46_2 1_555 1_555
C47_2 C42_2 1_555 1_555
C48_2 C45_2 1_555 1_555
C49_2 C48_2 1_555 1_555
C50_2 C49_2 1_555 1_555
C51_2 C50_2 1_555 1_555
H39_2 C51_2 1_555 1_555
C52_2 C51_2 1_555 1_555
H40_2 C52_2 1_555 1_555
N3 C52_2 1_555 1_555
C53_2 N3 1_555 1_555
H41_2 C53_2 1_555 1_555
C54_2 C50_2 1_555 1_555
H42_2 C54_2 1_555 1_555
Co5_6 N3 1_555 1_555
C28_2 C29_2 1_555 1_555
C34 N2 1_555 1_555
C35 C36 1_555 1_555
C40_2 O6_2 1_555 1_555
C46_2 C47_2 1_555 1_555
C53_2 C54_2 1_555 1_555
C23 C22 1_555 1_555
H18 C23 1_555 1_555
H19_2 C23 1_555 1_555
H20_2 C23 1_555 1_555
O4 Co5_5 1_555 1_555
H21 C25 1_555 1_555
C22 O4 1_555 1_555
Co2_2 O3_2 1_555 1_555
C19_2 H15_2 1_555 1_555
H16_2 C19_2 1_555 1_555
H17_2 C19_2 1_555 1_555
C20_2 C19_2 1_555 1_555
C21_2 C20_2 1_555 1_555
C22_2 C21_2 1_555 1_555
C23_2 C22_2 1_555 1_555
H18_2 C23_2 1_555 1_555
O3_2 C20_2 1_555 1_555
O4_2 Co2_2 1_555 1_555
C24_2 C21_2 1_555 1_555
C25_2 C24_2 1_555 1_555
H21_2 C25_2 1_555 1_555
N5 Co2_2 1_555 1_555
C22_2 O4_2 1_555 1_555
Co1_4 O1_2 1_555 1_555
C1_2 H1_2 1_555 1_555
H2_2 C1_2 1_555 1_555
H3_2 C1_2 1_555 1_555
C2_2 C1_2 1_555 1_555
C3_2 C2_2 1_555 1_555
C4_2 C3_2 1_555 1_555
C5_2 C4_2 1_555 1_555
H4_2 C5_2 1_555 1_555
H5_2 C5_2 1_555 1_555
H6_2 C5_2 1_555 1_555
O1_2 C2_2 1_555 1_555
O2_2 Co1_4 1_555 1_555
C6_2 C3_2 1_555 1_555
C7_2 C6_2 1_555 1_555
H7_2 C7_2 1_555 1_555
C8_2 C7_2 1_555 1_555
H8_2 C8_2 1_555 1_555
C9_2 C8_2 1_555 1_555
C10_2 C9_2 1_555 1_555
H9_2 C10_2 1_555 1_555
C11_2 C6_2 1_555 1_555
H10_2 C11_2 1_555 1_555
C12_2 C9_2 1_555 1_555
C13_2 C12_2 1_555 1_555
C14_2 C13_2 1_555 1_555
C15_2 C14_2 1_555 1_555
H11_2 C15_2 1_555 1_555
C16_2 C15_2 1_555 1_555
H12_2 C16_2 1_555 1_555
N5 C16_2 1_555 1_555
C17_2 N5 1_555 1_555
H13_2 C17_2 1_555 1_555
C18_2 C14_2 1_555 1_555
H14_2 C18_2 1_555 1_555
C33_2 C32_2 1_555 1_555
C34_2 C33_2 1_555 1_555
H26_2 C34_2 1_555 1_555
N2_2 Co1_4 1_555 1_555
C35_2 N2_2 1_555 1_555
H27_2 C35_2 1_555 1_555
C36_2 C32_2 1_555 1_555
H28_2 C36_2 1_555 1_555
C4_2 O2_2 1_555 1_555
C10_2 C11_2 1_555 1_555
C17_2 C18_2 1_555 1_555
C34_2 N2_2 1_555 1_555
C35_2 C36_2 1_555 1_555
C55_2 H43_2 1_555 1_555
H44_2 C55_2 1_555 1_555
H45_2 C55_2 1_555 1_555
C56_2 C55_2 1_555 1_555
C57_2 C56_2 1_555 1_555
O7 C56_2 1_555 1_555
C60_2 C57_2 1_555 1_555
C63_2 C62_2 1_555 1_555
C64_2 C63_2 1_555 1_555
H51_2 C64_2 1_555 1_555
C65_2 C60_2 1_555 1_555
H52_2 C65_2 1_555 1_555
C66_2 C63_2 1_555 1_555
C67_2 C66_2 1_555 1_555
Co5_7 O7 1_555 1_555
C64_2 C65_2 1_555 1_555

#END
