
###############################################################################
#
# This file contains modified crystal structure data generated from the
# MOF subset of the Cambridge Structural Database (CSD) v543 
# hosted by the Cambridge Crystallographic Data Centre (CCDC).
#
# This work is licensed under the Creative Commons
# Attribution-NonCommercial-ShareAlike 4.0 International License.
# To view a copy of this license, visit
# http://creativecommons.org/licenses/by-nc-sa/4.0/
# or send a letter to
# Creative Commons, PO Box 1866, Mountain View, CA 94042, USA.
#
# CIF created using the CSD Python API on 29 September 2022
# The structure has been converted into the P1 space group
# The structure has a 3D framework
# The original CSD entry TIPRIT is in the rhombohedral crystal system
# The framework has been calculated to contain at least 10.0% void space
# The void calculation uses a probe of radius 1.32A, grid spacing 0.4
#
###############################################################################

data_TIPRIT
_chemical_formula_moiety         '(C36 H36 Fe11 O52)n'
_symmetry_cell_setting           triclinic
_symmetry_space_group_name_H-M   'P 1'
_symmetry_Int_Tables_number      1
_space_group_name_Hall           'P 1'
loop_
_symmetry_equiv_pos_site_id
_symmetry_equiv_pos_as_xyz
1 x,y,z
_cell_length_a                   11.4395(19)
_cell_length_b                   11.4395(19)
_cell_length_c                   14.504(3)
_cell_angle_alpha                90
_cell_angle_beta                 90
_cell_angle_gamma                120
_cell_volume                     1643.74
loop_
_atom_site_label
_atom_site_type_symbol
_atom_site_fract_x
_atom_site_fract_y
_atom_site_fract_z
Fe2 Fe 0.50000 -0.00000 0.50000
O10 O 0.4607(6) 0.1491(4) 0.55139(25)
O11 O 0.6223(6) 0.0127(4) 0.6158(3)
O12 O 0.6552(6) 0.1568(4) 0.4259(3)
H5 H 0.678 0.118 0.375
H6 H 0.724 0.224 0.464
Fe7 Fe 0.33333 0.16667 0.16667
Fe1 Fe -0.00000 0.50000 0.50000
O1 O 0.1491(4) 0.6884(4) 0.44861(25)
O2 O 0.0127(4) 0.3904(5) 0.3842(3)
C1 C 0.1578(6) 0.7675(6) 0.3857(4)
C2 C 0.0984(6) 0.3601(6) 0.3571(4)
C3 C 0.2617(8) 0.9016(6) 0.3571(4)
O4 O 0.3777(6) 0.9873(4) 0.3842(3)
Fe2_2 Fe 0.50000 1.00000 0.50000
O5 O 0.5393(6) 0.8509(4) 0.44861(25)
Fe3 Fe 0.50000 0.50000 0.50000
O6 O 0.3116(4) 0.4607(6) 0.44861(25)
C4 C 0.2325(6) 0.3903(8) 0.3857(4)
O9 O 0.1568(4) 0.5016(4) 0.5741(3)
H3 H 0.118 0.440 0.625
H4 H 0.224 0.500 0.536
C5 C 0.1008(6) 0.2764(8) 0.2810(4)
C6 C 0.2349(6) 0.3066(6) 0.3096(4)
O13 O 0.3448(6) 0.8432(4) 0.5741(3)
C7 C 0.1755(6) 0.8992(6) 0.2810(4)
C8 C 0.0716(8) 0.7651(6) 0.3096(4)
O14 O 0.3206(4) 0.2763(5) 0.2825(3)
O15 O 0.0217(4) 0.2060(6) 0.21806(25)
O17 O 0.1842(4) 0.9783(4) 0.21806(25)
H7 H 0.322 0.882 0.625
H8 H 0.276 0.776 0.536
Fe1_2 Fe 1.00000 0.50000 0.50000
O3 O 0.8432(4) 0.4984(4) 0.4259(3)
H1 H 0.882 0.560 0.375
H2 H 0.776 0.500 0.464
O7 O 0.8509(4) 0.3116(4) 0.55139(25)
O8 O 0.9873(4) 0.6096(5) 0.6158(3)
O16 O 0.9556(6) 0.6794(4) 0.2825(3)
Fe5 Fe 0.83333 0.16667 0.16667
Fe6 Fe 0.83333 0.66667 0.16667
O14_2 O 0.7237(5) 0.0444(6) 0.2825(3)
O2_2 O 0.6096(5) 0.6223(6) 0.3842(3)
O3_2 O 0.5016(4) 0.3448(6) 0.4259(3)
C2_2 C 0.6399(6) 0.7383(8) 0.3571(4)
H1_2 H 0.440 0.322 0.375
H2_2 H 0.500 0.276 0.464
C4_2 C 0.6097(8) 0.8422(10) 0.3857(4)
O7_2 O 0.6884(4) 0.5393(6) 0.55139(25)
O8_2 O 0.3904(5) 0.3777(6) 0.6158(3)
O9_2 O 0.4984(4) 0.6552(6) 0.5741(3)
H3_2 H 0.560 0.678 0.625
H4_2 H 0.500 0.724 0.536
C5_2 C 0.7236(8) 0.8245(10) 0.2810(4)
C6_2 C 0.6934(6) 0.9284(8) 0.3096(4)
O15_2 O 0.7940(6) 0.8158(7) 0.21806(25)
H5_2 H 0.011333 0.784667 0.041667
H6_2 H 0.057333 0.890667 0.130667
O1_2 O 0.4824(4) 0.3551(4) 0.11528(25)
O2_3 O 0.3460(4) 0.0571(5) 0.0509(3)
O3_3 O 0.1765(4) 0.1651(4) 0.0926(3)
C1_2 C 0.4911(6) 0.4342(6) 0.0524(4)
C2_3 C 0.4317(6) 0.0268(6) 0.0238(4)
H1_3 H 0.215333 0.226667 0.041667
H2_3 H 0.109333 0.166667 0.130667
C3_2 C 0.5950(8) 0.5683(6) 0.0238(4)
O4_2 O 0.7110(6) 0.6540(4) 0.0509(3)
O5_2 O 0.8726(6) 0.5176(4) 0.11528(25)
O6_2 O 0.6449(4) 0.1274(6) 0.11528(25)
C4_3 C 0.5658(6) 0.0570(8) 0.0524(4)
O9_3 O 0.4901(4) 0.1683(4) 0.2408(3)
H3_3 H 0.451333 0.106667 0.291667
H4_3 H 0.557333 0.166667 0.202667
O12_2 O 0.9885(6) 0.8235(4) 0.0926(3)
O13_2 O 0.6781(6) 0.5099(4) 0.2408(3)
H7_2 H 0.655333 0.548667 0.291667
H8_2 H 0.609333 0.442667 0.202667
C7_2 C 0.5089(6) 0.5658(6) 0.9476(4)
C8_2 C 0.4050(8) 0.4317(6) 0.9762(4)
O16_2 O 0.2890(6) 0.3460(4) 0.9491(3)
O17_2 O 0.5176(4) 0.6449(4) 0.88472(25)
Fe6_2 Fe 0.16667 0.33333 0.83333
Fe7_2 Fe 0.66667 0.83333 0.83333
C5_3 C 0.4342(6) 0.9430(8) 0.9476(4)
C6_3 C 0.5683(6) 0.9732(6) 0.9762(4)
O14_3 O 0.6540(4) 0.9429(5) 0.9491(3)
O15_3 O 0.3551(4) 0.8726(6) 0.88472(25)
Fe5_2 Fe 0.16667 0.83333 0.83333
C5_4 C 0.0570(8) 0.4911(10) 0.9476(4)
C6_4 C 0.0268(6) 0.5950(8) 0.9762(4)
O14_4 O 0.0571(5) 0.7110(6) 0.9491(3)
O15_4 O 0.1274(6) 0.4824(7) 0.88472(25)
O2_4 O 0.9429(5) 0.2890(6) 0.0509(3)
O3_4 O 0.8349(4) 0.0115(6) 0.0926(3)
C2_4 C 0.9732(6) 0.4050(8) 0.0238(4)
C4_4 C 0.9430(8) 0.5089(10) 0.0524(4)
O9_4 O 0.8317(4) 0.3219(6) 0.2408(3)
H3_4 H 0.893333 0.344667 0.291667
H4_4 H 0.833333 0.390667 0.202667
H1_4 H 0.773333 0.988667 0.041667
H2_4 H 0.833333 0.942667 0.130667
O4_3 O 0.0444(6) 0.3206(4) 0.7175(3)
O5_3 O 0.2060(6) 0.1842(4) 0.78194(25)
O12_3 O 0.3219(6) 0.4901(4) 0.7592(3)
O13_3 O 0.0115(6) 0.1765(4) 0.9074(3)
H5_3 H 0.344667 0.451333 0.708333
H6_3 H 0.390667 0.557333 0.797333
O1_3 O 0.8158(4) 0.0217(4) 0.78194(25)
C1_3 C 0.8245(6) 0.1008(6) 0.7190(4)
C3_3 C 0.9284(8) 0.2349(6) 0.6904(4)
C7_3 C 0.8422(6) 0.2325(6) 0.6143(4)
C8_3 C 0.7383(8) 0.0984(6) 0.6429(4)
H7_3 H 0.988667 0.215333 0.958333
H8_3 H 0.942667 0.109333 0.869333
O2_5 O 0.6794(4) 0.7237(5) 0.7175(3)
O3_5 O 0.5099(4) 0.8317(4) 0.7592(3)
C2_5 C 0.7651(6) 0.6934(6) 0.6904(4)
H1_5 H 0.548667 0.893333 0.708333
H2_5 H 0.442667 0.833333 0.797333
O6_3 O 0.9783(4) 0.7940(6) 0.78194(25)
C4_5 C 0.8992(6) 0.7236(8) 0.7190(4)
O9_5 O 0.8235(4) 0.8349(4) 0.9074(3)
H3_5 H 0.784667 0.773333 0.958333
H4_5 H 0.890667 0.833333 0.869333
C5_5 C 0.7675(6) 0.6097(8) 0.6143(4)
C6_5 C 0.9016(6) 0.6399(6) 0.6429(4)
C2_6 C 0.3066(6) 0.0716(8) 0.6904(4)
C4_6 C 0.2764(8) 0.1755(10) 0.7190(4)
H3_6 H 0.226667 0.011333 0.958333
H4_6 H 0.166667 0.057333 0.869333
C5_6 C 0.3903(8) 0.1578(10) 0.6143(4)
C6_6 C 0.3601(6) 0.2617(8) 0.6429(4)
O2_6 O 0.2763(5) 0.9556(6) 0.7175(3)
O3_6 O 0.1683(4) 0.6781(6) 0.7592(3)
H1_6 H 0.106667 0.655333 0.708333
H2_6 H 0.166667 0.609333 0.797333
O9_6 O 0.1651(4) 0.9885(6) 0.9074(3)
loop_
_geom_bond_atom_site_label_1
_geom_bond_atom_site_label_2
_geom_bond_site_symmetry_1
_geom_bond_site_symmetry_2
O10 Fe2 1_555 1_555
O11 Fe2 1_555 1_555
O12 Fe2 1_555 1_555
H5 O12 1_555 1_555
H6 O12 1_555 1_555
Fe1 O1 1_555 1_555
O1 C1 1_555 1_555
O2 Fe1 1_555 1_555
C1 C3 1_555 1_555
C2 O2 1_555 1_555
C3 O4 1_555 1_555
O4 Fe2_2 1_555 1_555
Fe2_2 O5 1_555 1_555
Fe3 O6 1_555 1_555
O6 C4 1_555 1_555
C4 C2 1_555 1_555
O9 Fe1 1_555 1_555
H3 O9 1_555 1_555
H4 O9 1_555 1_555
C5 C2 1_555 1_555
C6 C4 1_555 1_555
O13 Fe2_2 1_555 1_555
C7 C3 1_555 1_555
C8 C1 1_555 1_555
O14 C6 1_555 1_555
O15 C5 1_555 1_555
O17 C7 1_555 1_555
H7 O13 1_555 1_555
H8 O13 1_555 1_555
Fe7 O14 1_555 1_555
C5 C6 1_555 1_555
C7 C8 1_555 1_555
O3 Fe1_2 1_555 1_555
H1 O3 1_555 1_555
H2 O3 1_555 1_555
O7 Fe1_2 1_555 1_555
O8 Fe1_2 1_555 1_555
Fe6 O16 1_555 1_555
Fe5 O14_2 1_555 1_555
O2_2 Fe3 1_555 1_555
O3_2 Fe3 1_555 1_555
C2_2 O2_2 1_555 1_555
H1_2 O3_2 1_555 1_555
H2_2 O3_2 1_555 1_555
O5 C4_2 1_555 1_555
C4_2 C2_2 1_555 1_555
O7_2 Fe3 1_555 1_555
O8_2 Fe3 1_555 1_555
O9_2 Fe3 1_555 1_555
H3_2 O9_2 1_555 1_555
H4_2 O9_2 1_555 1_555
C5_2 C2_2 1_555 1_555
C6_2 C4_2 1_555 1_555
O15_2 C5_2 1_555 1_555
Fe6 O15_2 1_555 1_555
C5_2 C6_2 1_555 1_555
Fe7 O1_2 1_555 1_555
O1_2 C1_2 1_555 1_555
O2_3 Fe7 1_555 1_555
O3_3 Fe7 1_555 1_555
C1_2 C3_2 1_555 1_555
C2_3 O2_3 1_555 1_555
H1_3 O3_3 1_555 1_555
H2_3 O3_3 1_555 1_555
C3_2 O4_2 1_555 1_555
O4_2 Fe6 1_555 1_555
Fe6 O5_2 1_555 1_555
Fe5 O6_2 1_555 1_555
O6_2 C4_3 1_555 1_555
C4_3 C2_3 1_555 1_555
O9_3 Fe7 1_555 1_555
H3_3 O9_3 1_555 1_555
H4_3 O9_3 1_555 1_555
O12_2 Fe6 1_555 1_555
O13_2 Fe6 1_555 1_555
H7_2 O13_2 1_555 1_555
H8_2 O13_2 1_555 1_555
O16_2 C8_2 1_555 1_555
O17_2 C7_2 1_555 1_555
Fe6_2 O16_2 1_555 1_555
Fe7_2 O17_2 1_555 1_555
C7_2 C8_2 1_555 1_555
O14_3 C6_3 1_555 1_555
O15_3 C5_3 1_555 1_555
Fe7_2 O14_3 1_555 1_555
Fe5_2 O15_3 1_555 1_555
C5_3 C6_3 1_555 1_555
O14_4 C6_4 1_555 1_555
O15_4 C5_4 1_555 1_555
Fe5_2 O14_4 1_555 1_555
Fe6_2 O15_4 1_555 1_555
C5_4 C6_4 1_555 1_555
O2_4 Fe5 1_555 1_555
O3_4 Fe5 1_555 1_555
C2_4 O2_4 1_555 1_555
O5_2 C4_4 1_555 1_555
C4_4 C2_4 1_555 1_555
O9_4 Fe5 1_555 1_555
H3_4 O9_4 1_555 1_555
H4_4 O9_4 1_555 1_555
O4_3 Fe6_2 1_555 1_555
Fe6_2 O5_3 1_555 1_555
O12_3 Fe6_2 1_555 1_555
O13_3 Fe6_2 1_555 1_555
H5_3 O12_3 1_555 1_555
H6_3 O12_3 1_555 1_555
O1_3 C1_3 1_555 1_555
C1_3 C3_3 1_555 1_555
C7_3 C3_3 1_555 1_555
C8_3 C1_3 1_555 1_555
O11 C8_3 1_555 1_555
O7 C7_3 1_555 1_555
C7_3 C8_3 1_555 1_555
O2_5 Fe7_2 1_555 1_555
O3_5 Fe7_2 1_555 1_555
C2_5 O2_5 1_555 1_555
H1_5 O3_5 1_555 1_555
H2_5 O3_5 1_555 1_555
O6_3 C4_5 1_555 1_555
C4_5 C2_5 1_555 1_555
O9_5 Fe7_2 1_555 1_555
H3_5 O9_5 1_555 1_555
H4_5 O9_5 1_555 1_555
C5_5 C2_5 1_555 1_555
C6_5 C4_5 1_555 1_555
O8 C6_5 1_555 1_555
O7_2 C5_5 1_555 1_555
C5_5 C6_5 1_555 1_555
O5_3 C4_6 1_555 1_555
C4_6 C2_6 1_555 1_555
C5_6 C2_6 1_555 1_555
C6_6 C4_6 1_555 1_555
O8_2 C6_6 1_555 1_555
O10 C5_6 1_555 1_555
C5_6 C6_6 1_555 1_555
O2_6 Fe5_2 1_555 1_555
O3_6 Fe5_2 1_555 1_555
H1_6 O3_6 1_555 1_555
H2_6 O3_6 1_555 1_555
O9_6 Fe5_2 1_555 1_555

#END
