
###############################################################################
#
# This file contains modified crystal structure data generated from the
# MOF subset of the Cambridge Structural Database (CSD) v543 
# hosted by the Cambridge Crystallographic Data Centre (CCDC).
#
# This work is licensed under the Creative Commons
# Attribution-NonCommercial-ShareAlike 4.0 International License.
# To view a copy of this license, visit
# http://creativecommons.org/licenses/by-nc-sa/4.0/
# or send a letter to
# Creative Commons, PO Box 1866, Mountain View, CA 94042, USA.
#
# CIF created using the CSD Python API on 29 September 2022
# The structure has been converted into the P1 space group
# The structure has a 3D framework
# The original CSD entry TIRLIQ is in the monoclinic crystal system
# The framework has been calculated to contain at least 10.0% void space
# The void calculation uses a probe of radius 1.32A, grid spacing 0.4
#
###############################################################################

data_TIRLIQ
_chemical_formula_moiety         '(C136 H88 N8 O46 Zn12)n'
_symmetry_cell_setting           triclinic
_symmetry_space_group_name_H-M   'P 1'
_symmetry_Int_Tables_number      1
_space_group_name_Hall           'P 1'
loop_
_symmetry_equiv_pos_site_id
_symmetry_equiv_pos_as_xyz
1 x,y,z
_cell_length_a                   17.142(3)
_cell_length_b                   21.544(4)
_cell_length_c                   11.805(2)
_cell_angle_alpha                90
_cell_angle_beta                 106.441(3)
_cell_angle_gamma                90
_cell_volume                     4181.41
loop_
_atom_site_label
_atom_site_type_symbol
_atom_site_fract_x
_atom_site_fract_y
_atom_site_fract_z
Zn1 Zn 0.27275(4) 0.42794(3) 0.17676(6)
Zn2 Zn 0.17148(4) 0.37960(4) 0.35976(7)
O1 O 0.0790(3) 0.3926(2) 0.2171(4)
O2 O 0.1551(2) 0.4171(2) 0.0965(4)
O5 O 0.3933(3) 0.4388(2) 0.2613(4)
O6 O 0.4564(3) 0.5194(2) 0.2110(4)
O7 O 0.7563(3) 0.5456(2) 0.6625(4)
O8 O 0.7267(3) 0.5796(3) 0.4823(5)
O10 O 0.2909(3) 0.4067(2) 0.0165(4)
N1 N 0.1070(4) 0.3511(3) 0.4683(5)
C1 C 0.1421(6) 0.3243(8) 0.5688(11)
H1 H 0.1984 0.3202 0.5909
C2 C 0.0997(9) 0.3013(9) 0.6457(13)
H2 H 0.1279 0.2823 0.7162
C3 C 0.0226(10) 0.3063(11) 0.6191(16)
C5 C 0.0296(7) 0.3607(10) 0.4419(13)
H5 H 0.0043 0.3826 0.3734
C11 C 0.0882(4) 0.4076(3) 0.1178(6)
C12 C 0.0135(4) 0.4159(3) 0.0162(6)
C19 C 0.4527(4) 0.4739(3) 0.2772(5)
C20 C 0.5230(4) 0.4612(3) 0.3806(5)
C21 C 0.5257(4) 0.4082(3) 0.4485(6)
H15 H 0.4845 0.3788 0.4259
C22 C 0.5895(5) 0.3987(3) 0.5502(7)
H16 H 0.5913 0.3627 0.5943
C23 C 0.6501(4) 0.4426(3) 0.5857(6)
H17 H 0.6917 0.4370 0.6552
C24 C 0.6488(4) 0.4943(3) 0.5186(5)
C25 C 0.5862(4) 0.5039(3) 0.4160(5)
H18 H 0.5864 0.5391 0.3706
C26 C 0.7131(4) 0.5434(3) 0.5553(6)
Zn5 Zn 0.72725(4) 0.57206(3) 0.82324(6)
Zn7 Zn 0.82852(4) 0.62040(4) 0.64024(7)
Zn9 Zn 0.36568(4) 0.53252(3) 0.06487(6)
O13 O 0.2684(3) 0.5303(2) 0.1251(4)
O15 O 0.2437(3) 0.4544(2) 0.3375(4)
O16 O 0.2733(3) 0.4204(3) 0.5177(5)
O18 O 0.2274(3) 0.3018(2) 0.3481(5)
O19 O 0.2936(3) 0.3368(2) 0.2242(5)
O9 O 0.3776(3) 0.4671(2) 0.9579(4)
O11 O 0.2274(3) 0.1982(2) 0.8481(5)
O12 O 0.2936(3) 0.1632(2) 0.7242(5)
C13 C 0.0213(4) 0.4208(4) 0.9037(6)
H11 H 0.0723 0.4159 0.8917
C27 C 0.3378(4) 0.4171(3) 0.9565(5)
C28 C 0.3483(4) 0.3669(3) 0.8730(6)
C29 C 0.3997(4) 0.3779(3) 0.8014(6)
H19 H 0.4279 0.4152 0.8065
C30 C 0.4075(5) 0.3321(3) 0.7225(7)
H20 H 0.4391 0.3392 0.6715
C31 C 0.3683(5) 0.2759(3) 0.7201(7)
H21 H 0.3754 0.2450 0.6689
C32 C 0.3184(4) 0.2644(3) 0.7928(6)
C33 C 0.3088(4) 0.3110(3) 0.8685(5)
H22 H 0.2751 0.3044 0.9169
C34 C 0.2760(4) 0.2038(3) 0.7865(6)
Zn6 Zn 0.27275(4) 0.07206(3) 0.67676(6)
Zn8 Zn 0.17148(4) 0.12040(4) 0.85976(7)
O3 O 0.7764(3) 0.4287(3) 0.0537(5)
H3 H 0.9943 0.2889 0.6677
C4 C 0.9804(9) 0.3382(11) 0.5160(17)
H4 H 0.9245 0.3447 0.4963
C8 C 0.5334(7) 0.2864(5) 0.0751(12)
H8 H 0.5137 0.2509 0.1026
C9 C 0.5199(6) 0.3433(5) 0.1164(9)
H9 H 0.4895 0.3478 0.1697
C10 C 0.5528(5) 0.3933(4) 0.0764(7)
H10 H 0.5457 0.4322 0.1064
C17 C 0.9378(4) 0.4220(3) 0.0345(5)
H14 H 0.9320 0.4174 0.1100
O17 O 0.6224(3) 0.5329(2) 0.0421(4)
Zn3 Zn 0.63432(4) 0.46748(3) 0.93513(6)
O4 O 0.7316(3) 0.4697(2) 0.8749(4)
N2 N 0.5949(3) 0.3900(3) 0.9963(5)
C6 C 0.6042(6) 0.3333(4) 0.9573(9)
H6 H 0.6324 0.3295 0.9010
C7 C 0.5757(8) 0.2816(4) 0.9933(12)
H7 H 0.5845 0.2431 0.9634
C14 C 0.9557(5) 0.4329(4) 0.8096(7)
H12 H 0.9621 0.4367 0.7343
C15 C 0.8801(4) 0.4394(4) 0.8262(6)
H13 H 0.8351 0.4469 0.7620
C16 C 0.8707(4) 0.4348(3) 0.9404(6)
C18 C 0.7887(4) 0.4442(3) 0.9603(6)
O14 O 0.5436(3) 0.4806(2) 0.7890(4)
O17_2 O 0.3776(3) 0.0329(2) 0.4579(4)
O7_2 O 0.2437(3) 0.0456(2) 0.8375(4)
C26_2 C 0.2869(4) 0.0434(3) 0.9447(6)
Zn1_2 Zn 0.72725(4) 0.92794(3) 0.32324(6)
Zn2_2 Zn 0.82852(4) 0.87960(4) 0.14024(7)
O1_2 O 0.9210(3) 0.8926(2) 0.2829(4)
O2_2 O 0.8449(2) 0.9171(2) 0.4035(4)
O5_2 O 0.6067(3) 0.9388(2) 0.2387(4)
O9_2 O 0.6224(3) 0.9671(2) 0.5421(4)
O10_2 O 0.7091(3) 0.9067(2) 0.4835(4)
O11_2 O 0.7726(3) 0.6982(2) 0.6519(5)
O12_2 O 0.7064(3) 0.6632(2) 0.7758(5)
N1_2 N 0.8930(4) 0.8511(3) 0.0317(5)
C5_2 C 0.9704(7) 0.8607(10) 0.0581(13)
H5_2 H 0.9957 0.8826 0.1266
C11_2 C 0.9118(4) 0.9076(3) 0.3822(6)
C12_2 C 0.9865(4) 0.9159(3) 0.4838(6)
C13_2 C 0.9787(4) 0.9208(4) 0.5963(6)
H11_2 H 0.9277 0.9159 0.6083
C19_2 C 0.5473(4) 0.9739(3) 0.2228(5)
C20_2 C 0.4770(4) 0.9612(3) 0.1194(5)
C21_2 C 0.4743(4) 0.9082(3) 0.0515(6)
H15_2 H 0.5155 0.8788 0.0741
C27_2 C 0.6622(4) 0.9171(3) 0.5435(5)
C28_2 C 0.6517(4) 0.8669(3) 0.6270(6)
C29_2 C 0.6003(4) 0.8779(3) 0.6986(6)
H19_2 H 0.5721 0.9152 0.6935
C30_2 C 0.5925(5) 0.8321(3) 0.7775(7)
H20_2 H 0.5609 0.8392 0.8285
C31_2 C 0.6317(5) 0.7759(3) 0.7799(7)
H21_2 H 0.6246 0.7450 0.8311
C32_2 C 0.6816(4) 0.7644(3) 0.7072(6)
C33_2 C 0.6912(4) 0.8110(3) 0.6315(5)
H22_2 H 0.7249 0.8044 0.5831
C34_2 C 0.7240(4) 0.7038(3) 0.7135(6)
O15_2 O 0.7563(3) 0.9544(2) 0.1625(4)
O18_2 O 0.7726(3) 0.8018(2) 0.1519(5)
O19_2 O 0.7064(3) 0.8368(2) 0.2758(5)
N2_2 N 0.4051(3) 0.6100(3) 0.0037(5)
C6_2 C 0.3958(6) 0.6667(4) 0.0427(9)
H6_2 H 0.3676 0.6705 0.0990
C7_2 C 0.4243(8) 0.7184(4) 0.0067(12)
H7_2 H 0.4155 0.7569 0.0366
C14_2 C 0.0443(5) 0.5671(4) 0.1904(7)
H12_2 H 0.0379 0.5633 0.2657
C15_2 C 0.1199(4) 0.5606(4) 0.1738(6)
H13_2 H 0.1649 0.5531 0.2380
C16_2 C 0.1293(4) 0.5652(3) 0.0596(6)
C18_2 C 0.2113(4) 0.5558(3) 0.0397(6)
O3_2 O 0.2236(3) 0.5713(3) 0.9463(5)
H3_2 H 0.0057 0.7111 0.3323
C4_2 C 0.0196(9) 0.6618(11) 0.4840(17)
H4_2 H 0.0755 0.6553 0.5037
C8_2 C 0.4666(7) 0.7136(5) 0.9249(12)
H8_2 H 0.4863 0.7491 0.8974
C9_2 C 0.4801(6) 0.6567(5) 0.8836(9)
H9_2 H 0.5105 0.6522 0.8303
C10_2 C 0.4472(5) 0.6067(4) 0.9236(7)
H10_2 H 0.4543 0.5678 0.8936
C17_2 C 0.0622(4) 0.5780(3) 0.9655(5)
H14_2 H 0.0680 0.5826 0.8900
C13_3 C 0.9787(4) 0.5792(4) 0.0963(6)
H11_3 H 0.9277 0.5841 0.1083
C27_3 C 0.6622(4) 0.5829(3) 0.0435(5)
C28_3 C 0.6517(4) 0.6331(3) 0.1270(6)
C29_3 C 0.6003(4) 0.6221(3) 0.1986(6)
H19_3 H 0.5721 0.5848 0.1935
C30_3 C 0.5925(5) 0.6679(3) 0.2775(7)
H20_3 H 0.5609 0.6608 0.3285
C31_3 C 0.6317(5) 0.7241(3) 0.2799(7)
H21_3 H 0.6246 0.7550 0.3311
C32_3 C 0.6816(4) 0.7356(3) 0.2072(6)
C33_3 C 0.6912(4) 0.6890(3) 0.1315(5)
H22_3 H 0.7249 0.6956 0.0831
C34_3 C 0.7240(4) 0.7962(3) 0.2135(6)
O1_3 O 0.9210(3) 0.6074(2) 0.7829(4)
O2_3 O 0.8449(2) 0.5829(2) 0.9035(4)
O5_3 O 0.6067(3) 0.5612(2) 0.7387(4)
O10_3 O 0.7091(3) 0.5933(2) 0.9835(4)
N1_3 N 0.8930(4) 0.6489(3) 0.5317(5)
C1_2 C 0.8579(6) 0.6757(8) 0.4312(11)
H1_2 H 0.8016 0.6798 0.4091
C2_2 C 0.9003(9) 0.6987(9) 0.3543(13)
H2_2 H 0.8721 0.7177 0.2838
C3_2 C 0.9774(10) 0.6937(11) 0.3809(16)
C5_3 C 0.9704(7) 0.6393(10) 0.5581(13)
H5_3 H 0.9957 0.6174 0.6266
C11_3 C 0.9118(4) 0.5924(3) 0.8822(6)
C12_3 C 0.9865(4) 0.5841(3) 0.9838(6)
C19_3 C 0.5473(4) 0.5261(3) 0.7228(5)
C20_3 C 0.4770(4) 0.5388(3) 0.6194(5)
C21_3 C 0.4743(4) 0.5918(3) 0.5515(6)
H15_3 H 0.5155 0.6212 0.5741
C22_2 C 0.4105(5) 0.6013(3) 0.4498(7)
H16_2 H 0.4087 0.6373 0.4057
C23_2 C 0.3499(4) 0.5574(3) 0.4143(6)
H17_2 H 0.3083 0.5630 0.3448
C24_2 C 0.3512(4) 0.5057(3) 0.4814(5)
C25_2 C 0.4138(4) 0.4961(3) 0.5840(5)
H18_2 H 0.4136 0.4609 0.6294
C26_3 C 0.2869(4) 0.4566(3) 0.4447(6)
O1_4 O 0.0790(3) 0.1074(2) 0.7171(4)
O2_4 O 0.1551(2) 0.0829(2) 0.5965(4)
O5_4 O 0.3933(3) 0.0612(2) 0.7613(4)
O10_4 O 0.2909(3) 0.0933(2) 0.5165(4)
N1_4 N 0.1070(4) 0.1489(3) 0.9683(5)
C5_4 C 0.0296(7) 0.1393(10) 0.9419(13)
H5_4 H 0.0043 0.1174 0.8734
C11_4 C 0.0882(4) 0.0924(3) 0.6178(6)
C12_4 C 0.0135(4) 0.0841(3) 0.5162(6)
C13_4 C 0.0213(4) 0.0792(4) 0.4037(6)
H11_4 H 0.0723 0.0841 0.3917
C19_4 C 0.4527(4) 0.0261(3) 0.7772(5)
C20_4 C 0.5230(4) 0.0388(3) 0.8806(5)
C21_4 C 0.5257(4) 0.0918(3) 0.9485(6)
H15_4 H 0.4845 0.1212 0.9259
C27_4 C 0.3378(4) 0.0829(3) 0.4565(5)
C28_4 C 0.3483(4) 0.1331(3) 0.3730(6)
C29_4 C 0.3997(4) 0.1221(3) 0.3014(6)
H19_4 H 0.4279 0.0848 0.3065
C30_4 C 0.4075(5) 0.1679(3) 0.2225(7)
H20_4 H 0.4391 0.1608 0.1715
C31_4 C 0.3683(5) 0.2241(3) 0.2201(7)
H21_4 H 0.3754 0.2550 0.1689
C32_4 C 0.3184(4) 0.2356(3) 0.2928(6)
C33_4 C 0.3088(4) 0.1890(3) 0.3685(5)
H22_4 H 0.2751 0.1956 0.4169
C34_4 C 0.2760(4) 0.2962(3) 0.2865(6)
C26_4 C 0.7131(4) 0.9566(3) 0.0553(6)
Zn3_2 Zn 0.36568(4) 0.96748(3) 0.56487(6)
O3_3 O 0.2236(3) 0.9287(3) 0.4463(5)
O4_2 O 0.2684(3) 0.9697(2) 0.6251(4)
N2_3 N 0.4051(3) 0.8900(3) 0.5037(5)
H4_3 H 0.0755 0.8447 0.0037
C6_3 C 0.3958(6) 0.8333(4) 0.5427(9)
H6_3 H 0.3676 0.8295 0.5990
C7_3 C 0.4243(8) 0.7816(4) 0.5067(12)
H7_3 H 0.4155 0.7431 0.5366
C8_3 C 0.4666(7) 0.7864(5) 0.4249(12)
H8_3 H 0.4863 0.7509 0.3974
C9_3 C 0.4801(6) 0.8433(5) 0.3836(9)
H9_3 H 0.5105 0.8478 0.3303
C10_3 C 0.4472(5) 0.8933(4) 0.4236(7)
H10_3 H 0.4543 0.9322 0.3936
C14_3 C 0.0443(5) 0.9329(4) 0.6904(7)
H12_3 H 0.0379 0.9367 0.7657
C15_3 C 0.1199(4) 0.9394(4) 0.6738(6)
H13_3 H 0.1649 0.9469 0.7380
C16_3 C 0.1293(4) 0.9348(3) 0.5596(6)
C17_3 C 0.0622(4) 0.9220(3) 0.4655(5)
H14_3 H 0.0680 0.9174 0.3900
C18_3 C 0.2113(4) 0.9442(3) 0.5397(6)
O14_2 O 0.4564(3) 0.9806(2) 0.7110(4)
C1_3 C 0.8579(6) 0.8243(8) 0.9312(11)
H1_3 H 0.8016 0.8202 0.9091
C2_3 C 0.9003(9) 0.8013(9) 0.8543(13)
H2_3 H 0.8721 0.7823 0.7838
C3_3 C 0.9774(10) 0.8063(11) 0.8809(16)
C22_3 C 0.4105(5) 0.8987(3) 0.9498(7)
H16_3 H 0.4087 0.8627 0.9057
C23_3 C 0.3499(4) 0.9426(3) 0.9143(6)
H17_3 H 0.3083 0.9370 0.8448
C24_3 C 0.3512(4) 0.9943(3) 0.9814(5)
O16_2 O 0.7267(3) 0.9204(3) 0.9823(5)
C25_3 C 0.5862(4) 0.9961(3) 0.9160(5)
H18_3 H 0.5864 0.9609 0.8706
H3_3 H 0.0057 0.7889 0.8323
C4_3 C 0.0196(9) 0.8382(11) 0.9840(17)
O6_2 O 0.5436(3) 0.0194(2) 0.2890(4)
O8_2 O 0.2733(3) 0.0796(3) 0.0177(5)
C25_4 C 0.4138(4) 0.0039(3) 0.0840(5)
H18_4 H 0.4136 0.0391 0.1294
Zn9_2 Zn 0.63432(4) 0.03252(3) 0.43513(6)
O13_2 O 0.7316(3) 0.0303(2) 0.3749(4)
C1_4 C 0.1421(6) 0.1757(8) 0.0688(11)
H1_4 H 0.1984 0.1798 0.0909
C2_4 C 0.0997(9) 0.1987(9) 0.1457(13)
H2_4 H 0.1279 0.2177 0.2162
C3_4 C 0.0226(10) 0.1937(11) 0.1191(16)
C22_4 C 0.5895(5) 0.1013(3) 0.0502(7)
H16_4 H 0.5913 0.1373 0.0943
C23_4 C 0.6501(4) 0.0574(3) 0.0857(6)
H17_4 H 0.6917 0.0630 0.1552
C24_4 C 0.6488(4) 0.0057(3) 0.0186(5)
O3_4 O 0.7764(3) 0.0713(3) 0.5537(5)
N2_4 N 0.5949(3) 0.1100(3) 0.4963(5)
H4_4 H 0.9245 0.1553 0.9963
C6_4 C 0.6042(6) 0.1667(4) 0.4573(9)
H6_4 H 0.6324 0.1705 0.4010
C7_4 C 0.5757(8) 0.2184(4) 0.4933(12)
H7_4 H 0.5845 0.2569 0.4634
C8_4 C 0.5334(7) 0.2136(5) 0.5751(12)
H8_4 H 0.5137 0.2491 0.6026
C9_4 C 0.5199(6) 0.1567(5) 0.6164(9)
H9_4 H 0.4895 0.1522 0.6697
C10_4 C 0.5528(5) 0.1067(4) 0.5764(7)
H10_4 H 0.5457 0.0678 0.6064
C14_4 C 0.9557(5) 0.0671(4) 0.3096(7)
H12_4 H 0.9621 0.0633 0.2343
C15_4 C 0.8801(4) 0.0606(4) 0.3262(6)
H13_4 H 0.8351 0.0531 0.2620
C16_4 C 0.8707(4) 0.0652(3) 0.4404(6)
C17_4 C 0.9378(4) 0.0780(3) 0.5345(5)
H14_4 H 0.9320 0.0826 0.6100
C18_4 C 0.7887(4) 0.0558(3) 0.4603(6)
H3_4 H 0.9943 0.2111 0.1677
C4_4 C 0.9804(9) 0.1618(11) 0.0160(17)
loop_
_geom_bond_atom_site_label_1
_geom_bond_atom_site_label_2
_geom_bond_site_symmetry_1
_geom_bond_site_symmetry_2
Zn1 O2 1_555 1_555
Zn2 O1 1_555 1_555
O1 C11 1_555 1_555
O2 C11 1_555 1_555
O5 Zn1 1_555 1_555
O6 C19 1_555 1_555
O7 C26 1_555 1_555
O8 C26 1_555 1_555
O10 Zn1 1_555 1_555
N1 Zn2 1_555 1_555
C1 N1 1_555 1_555
H1 C1 1_555 1_555
C2 C1 1_555 1_555
H2 C2 1_555 1_555
C3 C2 1_555 1_555
C5 N1 1_555 1_555
H5 C5 1_555 1_555
C11 C12 1_555 1_555
C19 O5 1_555 1_555
C20 C19 1_555 1_555
C21 C20 1_555 1_555
H15 C21 1_555 1_555
C22 C21 1_555 1_555
H16 C22 1_555 1_555
C23 C22 1_555 1_555
H17 C23 1_555 1_555
C24 C23 1_555 1_555
C25 C20 1_555 1_555
H18 C25 1_555 1_555
C26 C24 1_555 1_555
Zn5 O7 1_555 1_555
Zn7 O7 1_555 1_555
Zn9 O6 1_555 1_555
O13 Zn1 1_555 1_555
O15 Zn1 1_555 1_555
O16 Zn2 1_555 1_555
O18 Zn2 1_555 1_555
O19 Zn1 1_555 1_555
Zn2 O15 1_555 1_555
O8 Zn7 1_555 1_555
C24 C25 1_555 1_555
Zn9 O13 1_555 1_555
O9 C27 1_555 1_555
O11 C34 1_555 1_555
O12 C34 1_555 1_555
C13 H11 1_555 1_555
C28 C27 1_555 1_555
C29 C28 1_555 1_555
H19 C29 1_555 1_555
C30 C29 1_555 1_555
H20 C30 1_555 1_555
C31 C30 1_555 1_555
H21 C31 1_555 1_555
C32 C31 1_555 1_555
C33 C28 1_555 1_555
H22 C33 1_555 1_555
C34 C32 1_555 1_555
Zn6 O12 1_555 1_555
Zn8 O11 1_555 1_555
C32 C33 1_555 1_555
H4 C4 1_555 1_555
H8 C8 1_555 1_555
C9 C8 1_555 1_555
H9 C9 1_555 1_555
H10 C10 1_555 1_555
H14 C17 1_555 1_555
C9 C10 1_555 1_555
Zn3 O4 1_555 1_555
O4 C18 1_555 1_555
N2 Zn3 1_555 1_555
C6 N2 1_555 1_555
H6 C6 1_555 1_555
C7 C6 1_555 1_555
H7 C7 1_555 1_555
H12 C14 1_555 1_555
C15 C14 1_555 1_555
H13 C15 1_555 1_555
C16 C15 1_555 1_555
C18 C16 1_555 1_555
Zn5 O4 1_555 1_555
O14 Zn3 1_555 1_555
O7_2 C26_2 1_555 1_555
Zn6 O7_2 1_555 1_555
Zn8 O7_2 1_555 1_555
Zn1_2 O2_2 1_555 1_555
Zn2_2 O1_2 1_555 1_555
O1_2 C11_2 1_555 1_555
O2_2 C11_2 1_555 1_555
O5_2 Zn1_2 1_555 1_555
O9_2 C27_2 1_555 1_555
O10_2 Zn1_2 1_555 1_555
O11_2 C34_2 1_555 1_555
O12_2 C34_2 1_555 1_555
N1_2 Zn2_2 1_555 1_555
C5_2 N1_2 1_555 1_555
H5_2 C5_2 1_555 1_555
C11_2 C12_2 1_555 1_555
C12_2 C13_2 1_555 1_555
C13_2 H11_2 1_555 1_555
C19_2 O5_2 1_555 1_555
C20_2 C19_2 1_555 1_555
C21_2 C20_2 1_555 1_555
H15_2 C21_2 1_555 1_555
C27_2 O10_2 1_555 1_555
C28_2 C27_2 1_555 1_555
C29_2 C28_2 1_555 1_555
H19_2 C29_2 1_555 1_555
C30_2 C29_2 1_555 1_555
H20_2 C30_2 1_555 1_555
C31_2 C30_2 1_555 1_555
H21_2 C31_2 1_555 1_555
C32_2 C31_2 1_555 1_555
C33_2 C28_2 1_555 1_555
H22_2 C33_2 1_555 1_555
C34_2 C32_2 1_555 1_555
Zn5 O12_2 1_555 1_555
Zn7 O11_2 1_555 1_555
O15_2 Zn1_2 1_555 1_555
O18_2 Zn2_2 1_555 1_555
O19_2 Zn1_2 1_555 1_555
Zn2_2 O15_2 1_555 1_555
C32_2 C33_2 1_555 1_555
O13 C18_2 1_555 1_555
N2_2 Zn9 1_555 1_555
C6_2 N2_2 1_555 1_555
H6_2 C6_2 1_555 1_555
C7_2 C6_2 1_555 1_555
H7_2 C7_2 1_555 1_555
H12_2 C14_2 1_555 1_555
C15_2 C14_2 1_555 1_555
H13_2 C15_2 1_555 1_555
C16_2 C15_2 1_555 1_555
C18_2 C16_2 1_555 1_555
H4_2 C4_2 1_555 1_555
H8_2 C8_2 1_555 1_555
C9_2 C8_2 1_555 1_555
H9_2 C9_2 1_555 1_555
H10_2 C10_2 1_555 1_555
H14_2 C17_2 1_555 1_555
C9_2 C10_2 1_555 1_555
O17 C27_3 1_555 1_555
O18_2 C34_3 1_555 1_555
O19_2 C34_3 1_555 1_555
C13_3 H11_3 1_555 1_555
C28_3 C27_3 1_555 1_555
C29_3 C28_3 1_555 1_555
H19_3 C29_3 1_555 1_555
C30_3 C29_3 1_555 1_555
H20_3 C30_3 1_555 1_555
C31_3 C30_3 1_555 1_555
H21_3 C31_3 1_555 1_555
C32_3 C31_3 1_555 1_555
C33_3 C28_3 1_555 1_555
H22_3 C33_3 1_555 1_555
C34_3 C32_3 1_555 1_555
C32_3 C33_3 1_555 1_555
Zn5 O2_3 1_555 1_555
Zn7 O1_3 1_555 1_555
O1_3 C11_3 1_555 1_555
O2_3 C11_3 1_555 1_555
O5_3 Zn5 1_555 1_555
O14 C19_3 1_555 1_555
O15 C26_3 1_555 1_555
O16 C26_3 1_555 1_555
O10_3 Zn5 1_555 1_555
N1_3 Zn7 1_555 1_555
C1_2 N1_3 1_555 1_555
H1_2 C1_2 1_555 1_555
C2_2 C1_2 1_555 1_555
H2_2 C2_2 1_555 1_555
C3_2 C2_2 1_555 1_555
C5_3 N1_3 1_555 1_555
H5_3 C5_3 1_555 1_555
C11_3 C12_3 1_555 1_555
C19_3 O5_3 1_555 1_555
C20_3 C19_3 1_555 1_555
C21_3 C20_3 1_555 1_555
H15_3 C21_3 1_555 1_555
C22_2 C21_3 1_555 1_555
H16_2 C22_2 1_555 1_555
C23_2 C22_2 1_555 1_555
H17_2 C23_2 1_555 1_555
C24_2 C23_2 1_555 1_555
C25_2 C20_3 1_555 1_555
H18_2 C25_2 1_555 1_555
C26_3 C24_2 1_555 1_555
C24_2 C25_2 1_555 1_555
Zn6 O2_4 1_555 1_555
Zn8 O1_4 1_555 1_555
O1_4 C11_4 1_555 1_555
O2_4 C11_4 1_555 1_555
O5_4 Zn6 1_555 1_555
O17_2 C27_4 1_555 1_555
O10_4 Zn6 1_555 1_555
O18 C34_4 1_555 1_555
O19 C34_4 1_555 1_555
N1_4 Zn8 1_555 1_555
C5_4 N1_4 1_555 1_555
H5_4 C5_4 1_555 1_555
C11_4 C12_4 1_555 1_555
C12_4 C13_4 1_555 1_555
C13_4 H11_4 1_555 1_555
C19_4 O5_4 1_555 1_555
C20_4 C19_4 1_555 1_555
C21_4 C20_4 1_555 1_555
H15_4 C21_4 1_555 1_555
C27_4 O10_4 1_555 1_555
C28_4 C27_4 1_555 1_555
C29_4 C28_4 1_555 1_555
H19_4 C29_4 1_555 1_555
C30_4 C29_4 1_555 1_555
H20_4 C30_4 1_555 1_555
C31_4 C30_4 1_555 1_555
H21_4 C31_4 1_555 1_555
C32_4 C31_4 1_555 1_555
C33_4 C28_4 1_555 1_555
H22_4 C33_4 1_555 1_555
C34_4 C32_4 1_555 1_555
C32_4 C33_4 1_555 1_555
O15_2 C26_4 1_555 1_555
Zn3_2 O4_2 1_555 1_555
O3_3 C18_3 1_555 1_555
O4_2 C18_3 1_555 1_555
N2_3 Zn3_2 1_555 1_555
C6_3 N2_3 1_555 1_555
H6_3 C6_3 1_555 1_555
C7_3 C6_3 1_555 1_555
H7_3 C7_3 1_555 1_555
C8_3 C7_3 1_555 1_555
H8_3 C8_3 1_555 1_555
C9_3 C8_3 1_555 1_555
H9_3 C9_3 1_555 1_555
C10_3 N2_3 1_555 1_555
H10_3 C10_3 1_555 1_555
H12_3 C14_3 1_555 1_555
C15_3 C14_3 1_555 1_555
H13_3 C15_3 1_555 1_555
C16_3 C15_3 1_555 1_555
H14_3 C17_3 1_555 1_555
C18_3 C16_3 1_555 1_555
O14_2 Zn3_2 1_555 1_555
C9_3 C10_3 1_555 1_555
C16_3 C17_3 1_555 1_555
H1_3 C1_3 1_555 1_555
C2_3 C1_3 1_555 1_555
H2_3 C2_3 1_555 1_555
C3_3 C2_3 1_555 1_555
H16_3 C22_3 1_555 1_555
C23_3 C22_3 1_555 1_555
H17_3 C23_3 1_555 1_555
C24_3 C23_3 1_555 1_555
H18_3 C25_3 1_555 1_555
H18_4 C25_4 1_555 1_555
Zn9_2 O6_2 1_555 1_555
Zn9_2 O13_2 1_555 1_555
H1_4 C1_4 1_555 1_555
C2_4 C1_4 1_555 1_555
H2_4 C2_4 1_555 1_555
C3_4 C2_4 1_555 1_555
H16_4 C22_4 1_555 1_555
C23_4 C22_4 1_555 1_555
H17_4 C23_4 1_555 1_555
C24_4 C23_4 1_555 1_555
O3_4 C18_4 1_555 1_555
O13_2 C18_4 1_555 1_555
N2_4 Zn9_2 1_555 1_555
C6_4 N2_4 1_555 1_555
H6_4 C6_4 1_555 1_555
C7_4 C6_4 1_555 1_555
H7_4 C7_4 1_555 1_555
C8_4 C7_4 1_555 1_555
H8_4 C8_4 1_555 1_555
C9_4 C8_4 1_555 1_555
H9_4 C9_4 1_555 1_555
C10_4 N2_4 1_555 1_555
H10_4 C10_4 1_555 1_555
H12_4 C14_4 1_555 1_555
C15_4 C14_4 1_555 1_555
H13_4 C15_4 1_555 1_555
C16_4 C15_4 1_555 1_555
H14_4 C17_4 1_555 1_555
C18_4 C16_4 1_555 1_555
C9_4 C10_4 1_555 1_555
C16_4 C17_4 1_555 1_555

#END
