
###############################################################################
#
# This file contains modified crystal structure data generated from the
# MOF subset of the Cambridge Structural Database (CSD) v543 
# hosted by the Cambridge Crystallographic Data Centre (CCDC).
#
# This work is licensed under the Creative Commons
# Attribution-NonCommercial-ShareAlike 4.0 International License.
# To view a copy of this license, visit
# http://creativecommons.org/licenses/by-nc-sa/4.0/
# or send a letter to
# Creative Commons, PO Box 1866, Mountain View, CA 94042, USA.
#
# CIF created using the CSD Python API on 29 September 2022
# The structure has been converted into the P1 space group
# The structure has a 3D framework
# The original CSD entry TISLIR is in the monoclinic crystal system
# The framework has been calculated to contain at least 10.0% void space
# The void calculation uses a probe of radius 1.32A, grid spacing 0.4
# H atom positions have been added when not included in the experimental data
# Generated hydrogen atom positions removed from atoms on special positions
#
###############################################################################

data_TISLIR
_chemical_formula_moiety         '(C32 H48 Cd18 Cl4 N36 O9)n'
_symmetry_cell_setting           triclinic
_symmetry_space_group_name_H-M   'P 1'
_symmetry_Int_Tables_number      1
_space_group_name_Hall           'P 1'
loop_
_symmetry_equiv_pos_site_id
_symmetry_equiv_pos_as_xyz
1 x,y,z
_cell_length_a                   8.5173(5)
_cell_length_b                   22.4055(14)
_cell_length_c                   9.7615(5)
_cell_angle_alpha                90
_cell_angle_beta                 92.285(2)
_cell_angle_gamma                90
_cell_volume                     1861.35
loop_
_atom_site_label
_atom_site_type_symbol
_atom_site_fract_x
_atom_site_fract_y
_atom_site_fract_z
Cd1 Cd 0.35750(3) 0.652180(12) 0.01774(3)
O1 O 0.8458(4) 0.63159(18) 0.0847(4)
O2 O 0.6046(3) 0.60311(14) 0.0353(3)
O3 O 0.1084(4) 0.69666(17) 0.0382(4)
Cd8 Cd 0.35750(3) 0.847820(12) 0.51774(3)
Cd13 Cd 0.67018(3) 0.602074(13) 0.27427(3)
C12 C 0.5557(6) 0.73462(19) 0.3938(5)
H9 H 0.6181 0.7327 0.4740
C13 C 0.3885(6) 0.7621(2) 0.2445(5)
H10 H 0.3099 0.7836 0.1976
N10 N 0.4462(5) 0.77676(16) 0.3700(4)
N16 N 0.3017(4) 0.58494(17) 0.1926(4)
N21 N 0.5660(4) 0.69650(16) 0.2928(4)
N25 N 0.4551(5) 0.71392(16) 0.1946(4)
H17 H 0.0450861 0.672421 0.100851
Cd3 Cd -0.0000 0.5000 0.5000
C1 C 0.1673(5) 0.5635(2) 0.2351(5)
H1 H 0.0727 0.5661 0.1845
C2 C 0.1693(5) 0.5852(2) 0.7455(5)
C3 C 0.3213(7) 0.5297(2) 0.8588(6)
C4 C 0.5557(6) 0.76538(19) 0.8938(5)
H2 H 0.6181 0.7673 0.9740
C5 C 0.3885(6) 0.7379(2) 0.7445(5)
H3 H 0.3099 0.7164 0.6976
C6 C 0.3346(5) 0.5438(2) 0.3904(5)
H4 H 0.3817 0.5300 0.4720
C7 C 0.7675(8) 0.6227(4) 0.8479(6)
H5 H 0.8733 0.6358 0.8351
H6 H 0.6954 0.6505 0.8049
H7 H 0.7523 0.5840 0.8076
C8 C 0.7389(6) 0.6195(2) 0.9983(5)
N1 N 0.4462(5) 0.72324(16) 0.8700(4)
N2 N 0.2711(5) 0.58601(16) 0.8526(4)
N3 N 0.1816(4) 0.53771(17) 0.3580(4)
N4 N 0.1566(4) 0.53201(15) 0.6869(4)
N6 N 0.4124(4) 0.57165(17) 0.2937(4)
N7 N 0.5660(4) 0.80350(16) 0.7928(4)
N8 N 0.2558(5) 0.49555(17) 0.7611(4)
N9 N 0.4551(5) 0.78608(16) 0.6946(4)
Cd10 Cd 0.32982(3) 0.397926(13) 0.72573(3)
Cd12 Cd 0.67018(3) 0.897926(13) 0.77427(3)
Cl2 Cl 0.15904(14) 0.39220(5) 0.50857(12)
N20 N 0.5876(4) 0.42835(17) 0.7063(4)
N23 N 0.4340(4) 0.30350(16) 0.7072(4)
O5 O 0.1542(4) 0.36841(18) 0.9153(4)
O8 O 0.3954(3) 0.39689(14) 0.9647(3)
H15 H 0.10333 0.62422 0.709793
H16 H 0.0537796 0.698664 0.946526
H18 H 0.40692 0.513422 0.935789
Cd3_2 Cd 1.0000 0.5000 0.5000
Cl1 Cl 0.84096(14) 0.60780(5) 0.49143(12)
Cd7 Cd 0.64250(3) 0.347820(12) 0.98226(3)
C9 C 0.8327(5) 0.4365(2) 0.7649(5)
H8 H 0.9273 0.4339 0.8155
C10 C 0.8307(5) 0.4148(2) 0.2545(5)
C11 C 0.6787(7) 0.4703(2) 0.1412(6)
C14 C 0.6654(5) 0.4562(2) 0.6096(5)
H11 H 0.6183 0.4700 0.5280
N11 N 0.5538(5) 0.27676(16) 0.1300(4)
N12 N 0.7289(5) 0.41399(16) 0.1474(4)
N13 N 0.8184(4) 0.46229(17) 0.6420(4)
N14 N 0.8434(4) 0.46799(15) 0.3131(4)
N15 N 0.6983(4) 0.41506(17) 0.8074(4)
N24 N 0.7442(5) 0.50445(17) 0.2389(4)
H19 H 0.59308 0.486578 0.0642112
H20 H 0.89667 0.37578 0.290207
N26 N 0.5449(5) 0.28608(16) 0.8054(4)
O9 O 0.8916(4) 0.30334(17) 0.9618(4)
H21 H 0.87849 0.262388 0.924167
H22 H 0.954914 0.327579 0.899149
Cd2 Cd 0.32982(3) 0.102074(13) 0.22573(3)
Cd3_3 Cd 0.0000 0.0000 0.0000
Cl1_2 Cl 0.15904(14) 0.10780(5) 0.00857(12)
Cd9 Cd 0.64250(3) 0.152180(12) 0.48226(3)
C15 C 0.2325(8) 0.1227(4) 0.6521(6)
H12 H 0.1267 0.1358 0.6649
H13 H 0.3046 0.1505 0.6951
H14 H 0.2477 0.0840 0.6924
C16 C 0.2611(6) 0.1195(2) 0.5017(5)
N19 N 0.5876(4) 0.07165(17) 0.2063(4)
N22 N 0.4340(4) 0.19650(16) 0.2072(4)
N24_2 N 0.2558(5) 0.00445(17) 0.2611(4)
O4 O 0.1542(4) 0.13159(18) 0.4153(4)
O6 O 0.3954(3) 0.10311(14) 0.4647(3)
Cd3_4 Cd 0.0000 1.0000 0.0000
C10_2 C 0.1693(5) 0.9148(2) 0.2455(5)
C11_2 C 0.3213(7) 0.9703(2) 0.3588(6)
N12_2 N 0.2711(5) 0.91399(16) 0.3526(4)
N14_2 N 0.1566(4) 0.96799(15) 0.1869(4)
N17 N 0.3017(4) 0.91506(17) 0.6926(4)
O7 O 0.6046(3) 0.89689(14) 0.5353(3)
O9_2 O 0.1084(4) 0.80334(17) 0.5382(4)
H19_2 H 0.40692 0.986578 0.435789
H20_2 H 0.10333 0.87578 0.209793
Cd3_5 Cd 0.0000 1.0000 1.0000
C9_2 C 0.1673(5) 0.9365(2) 0.7351(5)
H8_2 H 0.0727 0.9339 0.6845
C14_2 C 0.3346(5) 0.9562(2) 0.8904(5)
H11_2 H 0.3817 0.9700 0.9720
N13_2 N 0.1816(4) 0.96229(17) 0.8580(4)
N18 N 0.4124(4) 0.92835(17) 0.7937(4)
Cd3_6 Cd 1.0000 0.0000 0.0000
C1_2 C 0.8327(5) 0.0635(2) 0.2649(5)
H1_2 H 0.9273 0.0661 0.3155
C6_2 C 0.6654(5) 0.0438(2) 0.1096(5)
H4_2 H 0.6183 0.0300 0.0280
N3_2 N 0.8184(4) 0.03771(17) 0.1420(4)
N5 N 0.6983(4) 0.08494(17) 0.3074(4)
Cd3_7 Cd 1.0000 0.0000 1.0000
C2_2 C 0.8307(5) 0.0852(2) 0.7545(5)
C3_2 C 0.6787(7) 0.0297(2) 0.6412(6)
C4_2 C 0.4443(6) 0.26538(19) 0.6062(5)
H2_2 H 0.3819 0.2673 0.5260
C5_2 C 0.6115(6) 0.2379(2) 0.7555(5)
H3_2 H 0.6901 0.2164 0.8024
N1_2 N 0.5538(5) 0.22324(16) 0.6300(4)
N2_2 N 0.7289(5) 0.08601(16) 0.6474(4)
N4_2 N 0.8434(4) 0.03201(15) 0.8131(4)
O3_2 O 0.8916(4) 0.19666(17) 0.4618(4)
C12_2 C 0.4443(6) 0.23462(19) 0.1062(5)
H9_2 H 0.3819 0.2327 0.0260
C13_2 C 0.6115(6) 0.2621(2) 0.2555(5)
H10_2 H 0.6901 0.2836 0.3024
N25_2 N 0.5449(5) 0.21392(16) 0.3054(4)
H15_2 H 0.89667 0.12422 0.790207
H18_2 H 0.59308 0.013422 0.564211
Cd3_8 Cd 1.0000 1.0000 1.0000
N8_2 N 0.7442(5) 0.99555(17) 0.7389(4)
Cl2_2 Cl 0.84096(14) 0.89220(5) 0.99143(12)
O5_2 O 0.8458(4) 0.86841(18) 0.5847(4)
C15_2 C 0.2325(8) 0.3773(4) 0.1521(6)
H12_2 H 0.1267 0.3642 0.1649
H13_2 H 0.3046 0.3495 0.1951
H14_2 H 0.2477 0.4160 0.1924
C16_2 C 0.2611(6) 0.3805(2) 0.0017(5)
H21_2 H 0.12151 0.737612 0.0758331
H16_2 H 0.94622 0.301336 0.0534739
C7_2 C 0.7675(8) 0.8773(4) 0.3479(6)
H5_2 H 0.8733 0.8642 0.3351
H6_2 H 0.6954 0.8495 0.3049
H7_2 H 0.7523 0.9160 0.3076
C8_2 C 0.7389(6) 0.8805(2) 0.4983(5)
Cd3_9 Cd 0.0000 0.0000 1.0000
Cd3_10 Cd 1.0000 1.0000 0.0000
loop_
_geom_bond_atom_site_label_1
_geom_bond_atom_site_label_2
_geom_bond_site_symmetry_1
_geom_bond_site_symmetry_2
O2 Cd1 1_555 1_555
O3 Cd1 1_555 1_555
Cd8 N10 1_555 1_555
Cd13 O1 1_555 1_555
C12 H9 1_555 1_555
C13 H10 1_555 1_555
N10 C12 1_555 1_555
N16 Cd1 1_555 1_555
N21 Cd13 1_555 1_555
N25 Cd1 1_555 1_555
O2 Cd13 1_555 1_555
C12 N21 1_555 1_555
C13 N10 1_555 1_555
C13 N25 1_555 1_555
N21 N25 1_555 1_555
O3 H17 1_555 1_555
C1 H1 1_555 1_555
C2 N2 1_555 1_555
C3 N2 1_555 1_555
C4 H2 1_555 1_555
C5 H3 1_555 1_555
C6 H4 1_555 1_555
C7 H5 1_555 1_555
H6 C7 1_555 1_555
H7 C7 1_555 1_555
C8 C7 1_555 1_555
N1 C4 1_555 1_555
N3 Cd3 1_555 1_555
N4 Cd3 1_555 1_555
N16 C1 1_555 1_555
N6 C6 1_555 1_555
N7 C4 1_555 1_555
N8 C3 1_555 1_555
N9 C5 1_555 1_555
Cd8 N9 1_555 1_555
Cd10 N8 1_555 1_555
Cd13 N6 1_555 1_555
Cd12 N7 1_555 1_555
Cl2 Cd3 1_555 1_555
N20 Cd10 1_555 1_555
N23 Cd10 1_555 1_555
O5 Cd10 1_555 1_555
O8 Cd10 1_555 1_555
C1 N3 1_555 1_555
C2 N4 1_555 1_555
C5 N1 1_555 1_555
C6 N3 1_555 1_555
N4 N8 1_555 1_555
N16 N6 1_555 1_555
N7 N9 1_555 1_555
Cd10 Cl2 1_555 1_555
C2 H15 1_555 1_555
C3 H18 1_555 1_555
Cd13 Cl1 1_555 1_555
Cd3_2 Cl1 1_555 1_555
Cd7 N15 1_555 1_555
C9 H8 1_555 1_555
C10 N12 1_555 1_555
C11 N12 1_555 1_555
C14 H11 1_555 1_555
N13 Cd3_2 1_555 1_555
N14 Cd3_2 1_555 1_555
N15 C9 1_555 1_555
N20 C14 1_555 1_555
N24 Cd13 1_555 1_555
C9 N13 1_555 1_555
C10 N14 1_555 1_555
C11 N24 1_555 1_555
C14 N13 1_555 1_555
N14 N24 1_555 1_555
N15 N20 1_555 1_555
C11 H19 1_555 1_555
C10 H20 1_555 1_555
N26 Cd7 1_555 1_555
O8 Cd7 1_555 1_555
O9 Cd7 1_555 1_555
O9 H21 1_555 1_555
O9 H22 1_555 1_555
Cd2 Cl1_2 1_555 1_555
Cd3_3 Cl1_2 1_555 1_555
Cd9 O6 1_555 1_555
C15 H12 1_555 1_555
H13 C15 1_555 1_555
H14 C15 1_555 1_555
C16 C15 1_555 1_555
N19 Cd2 1_555 1_555
N22 Cd2 1_555 1_555
N24_2 Cd2 1_555 1_555
O4 Cd2 1_555 1_555
O6 Cd2 1_555 1_555
C16 O4 1_555 1_555
C16 O6 1_555 1_555
C10_2 N12_2 1_555 1_555
C11_2 N12_2 1_555 1_555
N12_2 Cd8 1_555 1_555
N14_2 Cd3_4 1_555 1_555
N17 Cd8 1_555 1_555
O7 Cd8 1_555 1_555
O9_2 Cd8 1_555 1_555
C10_2 N14_2 1_555 1_555
C11_2 H19_2 1_555 1_555
C10_2 H20_2 1_555 1_555
Cd12 N18 1_555 1_555
C9_2 H8_2 1_555 1_555
C14_2 H11_2 1_555 1_555
N13_2 Cd3_5 1_555 1_555
N17 C9_2 1_555 1_555
N18 C14_2 1_555 1_555
C9_2 N13_2 1_555 1_555
C14_2 N13_2 1_555 1_555
N17 N18 1_555 1_555
C1_2 H1_2 1_555 1_555
C6_2 H4_2 1_555 1_555
N3_2 Cd3_6 1_555 1_555
N5 C1_2 1_555 1_555
N19 C6_2 1_555 1_555
Cd9 N5 1_555 1_555
C1_2 N3_2 1_555 1_555
C6_2 N3_2 1_555 1_555
N5 N19 1_555 1_555
Cd9 N1_2 1_555 1_555
C2_2 N2_2 1_555 1_555
C3_2 N2_2 1_555 1_555
C4_2 H2_2 1_555 1_555
C5_2 H3_2 1_555 1_555
N1_2 C4_2 1_555 1_555
N2_2 Cd9 1_555 1_555
N4_2 Cd3_7 1_555 1_555
N23 C4_2 1_555 1_555
N26 C5_2 1_555 1_555
O3_2 Cd9 1_555 1_555
C12_2 H9_2 1_555 1_555
C13_2 H10_2 1_555 1_555
N11 C12_2 1_555 1_555
N25_2 Cd9 1_555 1_555
C2_2 N4_2 1_555 1_555
C5_2 N1_2 1_555 1_555
N23 N26 1_555 1_555
C12_2 N22 1_555 1_555
C13_2 N11 1_555 1_555
C13_2 N25_2 1_555 1_555
N22 N25_2 1_555 1_555
C2_2 H15_2 1_555 1_555
C3_2 H18_2 1_555 1_555
Cd12 N8_2 1_555 1_555
Cl2_2 Cd3_8 1_555 1_555
O5_2 Cd12 1_555 1_555
O7 Cd12 1_555 1_555
Cd12 Cl2_2 1_555 1_555
C15_2 H12_2 1_555 1_555
H13_2 C15_2 1_555 1_555
H14_2 C15_2 1_555 1_555
C16_2 C15_2 1_555 1_555
O3 H21_2 1_555 1_555
C7_2 H5_2 1_555 1_555
H6_2 C7_2 1_555 1_555
H7_2 C7_2 1_555 1_555
C8_2 C7_2 1_555 1_555
O5_2 C8_2 1_555 1_555
C8_2 O7 1_555 1_555

#END
