
###############################################################################
#
# This file contains modified crystal structure data generated from the
# MOF subset of the Cambridge Structural Database (CSD) v543 
# hosted by the Cambridge Crystallographic Data Centre (CCDC).
#
# This work is licensed under the Creative Commons
# Attribution-NonCommercial-ShareAlike 4.0 International License.
# To view a copy of this license, visit
# http://creativecommons.org/licenses/by-nc-sa/4.0/
# or send a letter to
# Creative Commons, PO Box 1866, Mountain View, CA 94042, USA.
#
# CIF created using the CSD Python API on 29 September 2022
# The structure has been converted into the P1 space group
# The structure has a 3D framework
# The original CSD entry TISZUT is in the monoclinic crystal system
# The framework has been calculated to contain at least 10.0% void space
# The void calculation uses a probe of radius 1.32A, grid spacing 0.4
#
###############################################################################

data_TISZUT
_chemical_formula_moiety         '(C100 H80 Co8 O46 P16)n'
_symmetry_cell_setting           triclinic
_symmetry_space_group_name_H-M   'P 1'
_symmetry_Int_Tables_number      1
_space_group_name_Hall           'P 1'
loop_
_symmetry_equiv_pos_site_id
_symmetry_equiv_pos_as_xyz
1 x,y,z
_cell_length_a                   12.776(2)
_cell_length_b                   16.835(3)
_cell_length_c                   19.684(3)
_cell_angle_alpha                90
_cell_angle_beta                 90.849(8)
_cell_angle_gamma                90
_cell_volume                     4233.25
loop_
_atom_site_label
_atom_site_type_symbol
_atom_site_fract_x
_atom_site_fract_y
_atom_site_fract_z
C1 C 0.2423(6) 0.5034(4) 0.4379(4)
C2 C 0.3180(6) 0.5012(4) 0.3819(4)
C3 C 0.3935(6) 0.4504(5) 0.3709(4)
H1 H 0.4051 0.4112 0.4034
C4 C 0.4557(7) 0.4506(5) 0.3160(4)
H2 H 0.5077 0.4123 0.3117
C5 C 0.4421(6) 0.5071(4) 0.2670(4)
C6 C 0.3670(6) 0.5607(5) 0.2750(4)
H3 H 0.3583 0.5991 0.2414
C7 C 0.3047(6) 0.5631(5) 0.3267(4)
H4 H 0.2531 0.6019 0.3297
C8 C 0.1397(6) 0.4998(4) 0.4037(4)
C9 C 0.1101(6) 0.4445(5) 0.3594(4)
H5 H 0.1527 0.4000 0.3556
C10 C 0.0231(7) 0.4473(5) 0.3193(4)
H6 H 0.0090 0.4058 0.2894
C13 C 0.0599(6) 0.5658(4) 0.4092(4)
H8 H 0.0689 0.6056 0.4415
C14 C 0.2622(6) 0.5745(5) 0.4826(3)
C15 C 0.3371(6) 0.6275(5) 0.4789(4)
H9 H 0.3787 0.6274 0.4405
C16 C 0.3573(7) 0.6816(5) 0.5271(4)
H10 H 0.4106 0.7184 0.5208
C17 C 0.3011(6) 0.6836(4) 0.5854(4)
C18 C 0.2185(6) 0.6326(5) 0.5905(4)
H11 H 0.1770 0.6358 0.6289
C19 C 0.1950(6) 0.5801(5) 0.5449(3)
H12 H 0.1379 0.5464 0.5504
C20 C 0.2569(5) 0.4333(5) 0.4830(4)
C21 C 0.1923(7) 0.3738(5) 0.4960(4)
H13 H 0.1288 0.3719 0.4723
C22 C 0.2133(7) 0.3154(5) 0.5417(4)
H14 H 0.1646 0.2752 0.5484
C23 C 0.3056(6) 0.3150(5) 0.5780(4)
C24 C 0.3747(7) 0.3736(5) 0.5664(4)
H15 H 0.4379 0.3729 0.5904
C25 C 0.3581(6) 0.4311(5) 0.5238(4)
H16 H 0.4080 0.4706 0.5183
Co1 Co 0.69943(8) 0.37343(6) 0.22018(5)
Co2 Co 0.67799(9) 0.64605(6) 0.23988(5)
O1 O 0.4288(5) 0.1928(3) 0.6081(3)
H17 H 0.4103 0.1712 0.5726
O2 O 0.2445(4) 0.1898(3) 0.6449(3)
O3 O 0.3790(4) 0.2786(3) 0.6983(3)
O4 O 0.5853(4) 0.4380(3) 0.1915(3)
O5 O 0.4431(4) 0.5092(3) 0.1348(3)
H18 H 0.4705 0.4894 0.1014
O6 O 0.5745(4) 0.5859(3) 0.1932(3)
O10 O 0.3608(4) 0.6933(3) 0.7125(3)
O11 O 0.4222(5) 0.7974(3) 0.6361(3)
H20 H 0.4724 0.7876 0.6612
O12 O 0.2429(5) 0.7973(3) 0.6686(3)
P1 P 0.33606(17) 0.24037(12) 0.63720(11)
P2 P 0.52100(16) 0.50914(11) 0.19411(10)
P3 P 0.33034(17) 0.74508(12) 0.65532(10)
Co4 Co 0.30057(8) 0.62657(6) 0.77982(5)
Co5 Co 0.19943(8) 0.12657(6) 0.72018(5)
Co7 Co 0.32201(9) 0.35395(6) 0.76012(5)
Co8 Co 0.17799(9) 0.85395(6) 0.73988(5)
O13 O 0.7445(4) 0.3102(3) 0.1449(3)
O14 O 0.6210(4) 0.7214(3) 0.3017(3)
O15 O 0.8129(5) 0.4381(3) 0.2515(3)
O16 O 0.7796(4) 0.5803(3) 0.2861(3)
O17 O 0.6392(4) 0.3067(3) 0.2875(3)
O18 O 0.7429(5) 0.7027(3) 0.1686(3)
C11 C 0.9558(6) 0.5102(4) 0.3220(4)
C12 C 0.9773(6) 0.5668(5) 0.3680(4)
H7 H 0.9312 0.6094 0.3711
O9 O 0.9037(5) 0.5455(4) 0.1966(3)
H19 H 0.8896 0.5923 0.1898
P4 P 0.85251(17) 0.51775(13) 0.26343(11)
C1_2 C 0.2577(6) 0.0034(4) 0.0621(4)
C2_2 C 0.1820(6) 0.0012(4) 0.1181(4)
C5_2 C 0.0579(6) 0.0071(4) 0.2330(4)
C6_2 C 0.1330(6) 0.0607(5) 0.2250(4)
H3_2 H 0.1417 0.0991 0.2586
C7_2 C 0.1953(6) 0.0631(5) 0.1733(4)
H4_2 H 0.2469 0.1019 0.1703
C11_2 C 0.5442(6) 0.0102(4) 0.1780(4)
C12_2 C 0.5227(6) 0.0668(5) 0.1320(4)
H7_2 H 0.5688 0.1094 0.1289
C13_2 C 0.4401(6) 0.0658(4) 0.0908(4)
H8_2 H 0.4311 0.1056 0.0585
C14_2 C 0.2378(6) 0.0745(5) 0.0174(3)
C15_2 C 0.1629(6) 0.1275(5) 0.0211(4)
H9_2 H 0.1213 0.1274 0.0595
O5_2 O 0.0569(4) 0.0092(3) 0.3652(3)
O8 O 0.7204(4) 0.0803(3) 0.2139(3)
O9_2 O 0.5963(5) 0.0455(4) 0.3034(3)
H19_2 H 0.6104 0.0923 0.3102
P4_2 P 0.64749(17) 0.01775(13) 0.23657(11)
Co6 Co 0.82201(9) 0.14605(6) 0.26012(5)
C16_2 C 0.1427(7) 0.1816(5) 0.9729(4)
H10_2 H 0.0894 0.2184 0.9792
C17_2 C 0.1989(6) 0.1836(4) 0.9146(4)
C18_2 C 0.2815(6) 0.1326(5) 0.9095(4)
H11_2 H 0.3230 0.1358 0.8711
C19_2 C 0.3050(6) 0.0801(5) 0.9551(3)
H12_2 H 0.3621 0.0464 0.9496
O10_2 O 0.1392(4) 0.1933(3) 0.7875(3)
O11_2 O 0.0778(5) 0.2974(3) 0.8639(3)
H20_2 H 0.0276 0.2876 0.8388
O12_2 O 0.2571(5) 0.2973(3) 0.8314(3)
P3_2 P 0.16966(17) 0.24508(12) 0.84468(10)
C3_2 C 0.1065(6) 0.9504(5) 0.1291(4)
H1_2 H 0.0949 0.9112 0.0966
C4_2 C 0.0443(7) 0.9506(5) 0.1840(4)
C8_2 C 0.3603(6) 0.9998(4) 0.0963(4)
C9_2 C 0.3899(6) 0.9445(5) 0.1406(4)
H5_2 H 0.3473 0.9000 0.1444
C10_2 C 0.4769(7) 0.9473(5) 0.1807(4)
H6_2 H 0.4910 0.9058 0.2106
C20_2 C 0.2431(5) 0.9333(5) 0.0170(4)
C21_2 C 0.3077(7) 0.8738(5) 0.0040(4)
H13_2 H 0.3712 0.8719 0.0277
H18_2 H 0.0295 0.9894 0.3986
O7 O 0.6871(5) 0.9381(3) 0.2485(3)
Co3 Co 0.80057(8) 0.87343(6) 0.27982(5)
C22_2 C 0.2867(7) 0.8154(5) 0.9583(4)
H14_2 H 0.3354 0.7752 0.9516
C23_2 C 0.1944(6) 0.8150(5) 0.9220(4)
C24_2 C 0.1253(7) 0.8736(5) 0.9336(4)
H15_2 H 0.0621 0.8729 0.9096
C25_2 C 0.1419(6) 0.9311(5) 0.9762(4)
H16_2 H 0.0920 0.9706 0.9817
O1_2 O 0.0712(5) 0.6928(3) 0.8919(3)
H17_2 H 0.0897 0.6712 0.9274
O2_2 O 0.2555(4) 0.6898(3) 0.8551(3)
O3_2 O 0.1210(4) 0.7786(3) 0.8017(3)
P1_2 P 0.16394(17) 0.74037(12) 0.86280(11)
O6_2 O 0.9255(4) 0.0859(3) 0.3068(3)
P2_2 P 0.97900(16) 0.00914(11) 0.30589(10)
O14_2 O 0.8790(4) 0.2214(3) 0.1983(3)
O18_2 O 0.7571(5) 0.2027(3) 0.3314(3)
H2_2 H 0.9923 0.9123 0.1883
O4_2 O 0.9147(4) 0.9380(3) 0.3085(3)
O13_2 O 0.7555(4) 0.8102(3) 0.3551(3)
O17_2 O 0.8608(4) 0.8067(3) 0.2125(3)
C11_3 C 0.0442(6) 0.4898(4) 0.6780(4)
C12_3 C 0.0227(6) 0.4332(5) 0.6320(4)
H7_3 H 0.0688 0.3906 0.6289
O7_2 O 0.1871(5) 0.5619(3) 0.7485(3)
O8_2 O 0.2204(4) 0.4197(3) 0.7139(3)
O9_3 O 0.0963(5) 0.4545(4) 0.8034(3)
H19_3 H 0.1104 0.4077 0.8102
P4_3 P 0.14749(17) 0.48225(13) 0.73657(11)
C1_3 C 0.7577(6) 0.4966(4) 0.5621(4)
C2_3 C 0.6820(6) 0.4988(4) 0.6181(4)
C3_3 C 0.6065(6) 0.5496(5) 0.6291(4)
H1_3 H 0.5949 0.5888 0.5966
C4_3 C 0.5443(7) 0.5494(5) 0.6840(4)
H2_3 H 0.4923 0.5877 0.6883
C5_3 C 0.5579(6) 0.4929(4) 0.7330(4)
C6_3 C 0.6330(6) 0.4393(5) 0.7250(4)
H3_3 H 0.6417 0.4009 0.7586
C7_3 C 0.6953(6) 0.4369(5) 0.6733(4)
H4_3 H 0.7469 0.3981 0.6703
C8_3 C 0.8603(6) 0.5002(4) 0.5963(4)
C9_3 C 0.8899(6) 0.5555(5) 0.6406(4)
H5_3 H 0.8473 0.6000 0.6444
C10_3 C 0.9769(7) 0.5527(5) 0.6807(4)
H6_3 H 0.9910 0.5942 0.7106
C13_3 C 0.9401(6) 0.4342(4) 0.5908(4)
H8_3 H 0.9311 0.3944 0.5585
C14_3 C 0.7378(6) 0.4255(5) 0.5174(3)
C15_3 C 0.6629(6) 0.3725(5) 0.5211(4)
H9_3 H 0.6213 0.3726 0.5595
C16_3 C 0.6427(7) 0.3184(5) 0.4729(4)
H10_3 H 0.5894 0.2816 0.4792
C17_3 C 0.6989(6) 0.3164(4) 0.4146(4)
C18_3 C 0.7815(6) 0.3674(5) 0.4095(4)
H11_3 H 0.8230 0.3642 0.3711
C19_3 C 0.8050(6) 0.4199(5) 0.4551(3)
H12_3 H 0.8621 0.4536 0.4496
C20_3 C 0.7431(5) 0.5667(5) 0.5170(4)
C21_3 C 0.8077(7) 0.6262(5) 0.5040(4)
H13_3 H 0.8712 0.6281 0.5277
C22_3 C 0.7867(7) 0.6846(5) 0.4583(4)
H14_3 H 0.8354 0.7248 0.4516
C23_3 C 0.6944(6) 0.6850(5) 0.4220(4)
C24_3 C 0.6253(7) 0.6264(5) 0.4336(4)
H15_3 H 0.5621 0.6271 0.4096
C25_3 C 0.6419(6) 0.5689(5) 0.4762(4)
H16_3 H 0.5920 0.5294 0.4817
O1_3 O 0.5712(5) 0.8072(3) 0.3919(3)
H17_3 H 0.5897 0.8288 0.4274
O4_3 O 0.4147(4) 0.5620(3) 0.8085(3)
O5_3 O 0.5569(4) 0.4908(3) 0.8652(3)
H18_3 H 0.5295 0.5106 0.8986
O6_3 O 0.4255(4) 0.4141(3) 0.8068(3)
O11_3 O 0.5778(5) 0.2026(3) 0.3639(3)
H20_3 H 0.5276 0.2124 0.3388
P1_3 P 0.66394(17) 0.75963(12) 0.36280(11)
P2_3 P 0.47900(16) 0.49086(11) 0.80589(10)
P3_3 P 0.66966(17) 0.25492(12) 0.34468(10)
H2_4 H 0.0077 0.0877 0.8117
O4_4 O 0.0853(4) 0.0620(3) 0.6915(3)
O15_2 O 0.3129(5) 0.0619(3) 0.7515(3)
O6_4 O 0.0745(4) 0.9141(3) 0.6932(3)
P2_4 P 0.02100(16) 0.99086(11) 0.69411(10)
O16_2 O 0.2796(4) 0.9197(3) 0.7861(3)
C22_4 C 0.7133(7) 0.1846(5) 0.0417(4)
H14_4 H 0.6646 0.2248 0.0484
C23_4 C 0.8056(6) 0.1850(5) 0.0780(4)
C24_4 C 0.8747(7) 0.1264(5) 0.0664(4)
H15_4 H 0.9379 0.1271 0.0904
C25_4 C 0.8581(6) 0.0689(5) 0.0238(4)
H16_4 H 0.9080 0.0294 0.0183
O1_4 O 0.9288(5) 0.3072(3) 0.1081(3)
H17_4 H 0.9103 0.3288 0.0726
P1_4 P 0.83606(17) 0.25963(12) 0.13720(11)
C3_4 C 0.8935(6) 0.0496(5) 0.8709(4)
H1_4 H 0.9051 0.0888 0.9034
C4_4 C 0.9557(7) 0.0494(5) 0.8160(4)
C8_4 C 0.6397(6) 0.0002(4) 0.9037(4)
C9_4 C 0.6101(6) 0.0555(5) 0.8594(4)
H5_4 H 0.6527 0.1000 0.8556
C10_4 C 0.5231(7) 0.0527(5) 0.8193(4)
H6_4 H 0.5090 0.0942 0.7894
C20_4 C 0.7569(5) 0.0667(5) 0.9830(4)
C21_4 C 0.6923(7) 0.1262(5) 0.9960(4)
H13_4 H 0.6288 0.1281 0.9723
H18_4 H 0.9705 0.0106 0.6014
C16_4 C 0.8573(7) 0.8184(5) 0.0271(4)
H10_4 H 0.9106 0.7816 0.0208
C17_4 C 0.8011(6) 0.8164(4) 0.0854(4)
C18_4 C 0.7185(6) 0.8674(5) 0.0905(4)
H11_4 H 0.6770 0.8642 0.1289
C19_4 C 0.6950(6) 0.9199(5) 0.0449(3)
H12_4 H 0.6379 0.9536 0.0504
O11_4 O 0.9222(5) 0.7026(3) 0.1361(3)
H20_4 H 0.9724 0.7124 0.1612
P3_4 P 0.83034(17) 0.75492(12) 0.15532(10)
C1_4 C 0.7423(6) 0.9966(4) 0.9379(4)
C2_4 C 0.8180(6) 0.9988(4) 0.8819(4)
C5_4 C 0.9421(6) 0.9929(4) 0.7670(4)
C6_4 C 0.8670(6) 0.9393(5) 0.7750(4)
H3_4 H 0.8583 0.9009 0.7414
C7_4 C 0.8047(6) 0.9369(5) 0.8267(4)
H4_4 H 0.7531 0.8981 0.8297
C11_4 C 0.4558(6) 0.9898(4) 0.8220(4)
C12_4 C 0.4773(6) 0.9332(5) 0.8680(4)
H7_4 H 0.4312 0.8906 0.8711
C13_4 C 0.5599(6) 0.9342(4) 0.9092(4)
H8_4 H 0.5689 0.8944 0.9415
C14_4 C 0.7622(6) 0.9255(5) 0.9826(3)
C15_4 C 0.8371(6) 0.8725(5) 0.9789(4)
H9_4 H 0.8787 0.8726 0.9405
O5_4 O 0.9431(4) 0.9908(3) 0.6348(3)
O9_4 O 0.4037(5) 0.9545(4) 0.6966(3)
H19_4 H 0.3896 0.9077 0.6898
P4_4 P 0.35251(17) 0.98225(13) 0.76343(11)
loop_
_geom_bond_atom_site_label_1
_geom_bond_atom_site_label_2
_geom_bond_site_symmetry_1
_geom_bond_site_symmetry_2
C1 C2 1_555 1_555
C2 C3 1_555 1_555
C3 H1 1_555 1_555
C4 C3 1_555 1_555
H2 C4 1_555 1_555
C5 C4 1_555 1_555
C6 C5 1_555 1_555
H3 C6 1_555 1_555
C7 C2 1_555 1_555
H4 C7 1_555 1_555
C8 C1 1_555 1_555
C9 C8 1_555 1_555
H5 C9 1_555 1_555
C10 C9 1_555 1_555
H6 C10 1_555 1_555
C13 C8 1_555 1_555
H8 C13 1_555 1_555
C14 C1 1_555 1_555
C15 C14 1_555 1_555
H9 C15 1_555 1_555
C16 C15 1_555 1_555
H10 C16 1_555 1_555
C17 C16 1_555 1_555
C18 C17 1_555 1_555
H11 C18 1_555 1_555
C19 C14 1_555 1_555
H12 C19 1_555 1_555
C20 C1 1_555 1_555
C21 C20 1_555 1_555
H13 C21 1_555 1_555
C22 C21 1_555 1_555
H14 C22 1_555 1_555
C23 C22 1_555 1_555
C24 C23 1_555 1_555
H15 C24 1_555 1_555
C25 C20 1_555 1_555
H16 C25 1_555 1_555
Co1 O4 1_555 1_555
Co2 O6 1_555 1_555
O1 H17 1_555 1_555
O2 P1 1_555 1_555
O3 P1 1_555 1_555
O4 P2 1_555 1_555
O5 H18 1_555 1_555
O6 P2 1_555 1_555
O10 P3 1_555 1_555
O11 H20 1_555 1_555
O12 P3 1_555 1_555
P1 C23 1_555 1_555
P2 C5 1_555 1_555
P3 C17 1_555 1_555
Co4 O10 1_555 1_555
Co5 O2 1_555 1_555
Co7 O3 1_555 1_555
Co8 O12 1_555 1_555
O13 Co1 1_555 1_555
O14 Co2 1_555 1_555
O15 Co1 1_555 1_555
O16 Co2 1_555 1_555
O17 Co1 1_555 1_555
O18 Co2 1_555 1_555
C6 C7 1_555 1_555
C18 C19 1_555 1_555
C24 C25 1_555 1_555
O1 P1 1_555 1_555
O5 P2 1_555 1_555
O11 P3 1_555 1_555
C12 C11 1_555 1_555
H7 C12 1_555 1_555
O15 P4 1_555 1_555
O16 P4 1_555 1_555
O9 H19 1_555 1_555
P4 C11 1_555 1_555
O9 P4 1_555 1_555
C1_2 C2_2 1_555 1_555
C6_2 C5_2 1_555 1_555
H3_2 C6_2 1_555 1_555
C7_2 C2_2 1_555 1_555
H4_2 C7_2 1_555 1_555
C12_2 C11_2 1_555 1_555
H7_2 C12_2 1_555 1_555
H8_2 C13_2 1_555 1_555
C14_2 C1_2 1_555 1_555
C15_2 C14_2 1_555 1_555
H9_2 C15_2 1_555 1_555
O8 P4_2 1_555 1_555
O9_2 H19_2 1_555 1_555
P4_2 C11_2 1_555 1_555
Co6 O8 1_555 1_555
C6_2 C7_2 1_555 1_555
C12_2 C13_2 1_555 1_555
O9_2 P4_2 1_555 1_555
H10_2 C16_2 1_555 1_555
C17_2 C16_2 1_555 1_555
C18_2 C17_2 1_555 1_555
H11_2 C18_2 1_555 1_555
H12_2 C19_2 1_555 1_555
O10_2 P3_2 1_555 1_555
O11_2 H20_2 1_555 1_555
O12_2 P3_2 1_555 1_555
P3_2 C17_2 1_555 1_555
Co5 O10_2 1_555 1_555
Co7 O12_2 1_555 1_555
C18_2 C19_2 1_555 1_555
O11_2 P3_2 1_555 1_555
C3_2 H1_2 1_555 1_555
C4_2 C3_2 1_555 1_555
C9_2 C8_2 1_555 1_555
H5_2 C9_2 1_555 1_555
C10_2 C9_2 1_555 1_555
H6_2 C10_2 1_555 1_555
C21_2 C20_2 1_555 1_555
H13_2 C21_2 1_555 1_555
Co3 O7 1_555 1_555
H14_2 C22_2 1_555 1_555
C23_2 C22_2 1_555 1_555
C24_2 C23_2 1_555 1_555
H15_2 C24_2 1_555 1_555
H16_2 C25_2 1_555 1_555
O1_2 H17_2 1_555 1_555
O2_2 P1_2 1_555 1_555
O3_2 P1_2 1_555 1_555
P1_2 C23_2 1_555 1_555
Co4 O2_2 1_555 1_555
Co8 O3_2 1_555 1_555
C24_2 C25_2 1_555 1_555
O1_2 P1_2 1_555 1_555
Co6 O6_2 1_555 1_555
O6_2 P2_2 1_555 1_555
O14_2 Co6 1_555 1_555
O18_2 Co6 1_555 1_555
Co3 O4_2 1_555 1_555
O13_2 Co3 1_555 1_555
O17_2 Co3 1_555 1_555
C12_3 C11_3 1_555 1_555
H7_3 C12_3 1_555 1_555
O7_2 P4_3 1_555 1_555
O8_2 P4_3 1_555 1_555
O9_3 H19_3 1_555 1_555
P4_3 C11_3 1_555 1_555
Co4 O7_2 1_555 1_555
Co7 O8_2 1_555 1_555
O9_3 P4_3 1_555 1_555
C1_3 C2_3 1_555 1_555
C2_3 C3_3 1_555 1_555
C3_3 H1_3 1_555 1_555
C4_3 C3_3 1_555 1_555
H2_3 C4_3 1_555 1_555
C5_3 C4_3 1_555 1_555
C6_3 C5_3 1_555 1_555
H3_3 C6_3 1_555 1_555
C7_3 C2_3 1_555 1_555
H4_3 C7_3 1_555 1_555
C8_3 C1_3 1_555 1_555
C9_3 C8_3 1_555 1_555
H5_3 C9_3 1_555 1_555
C10_3 C9_3 1_555 1_555
H6_3 C10_3 1_555 1_555
C13_3 C8_3 1_555 1_555
H8_3 C13_3 1_555 1_555
C14_3 C1_3 1_555 1_555
C15_3 C14_3 1_555 1_555
H9_3 C15_3 1_555 1_555
C16_3 C15_3 1_555 1_555
H10_3 C16_3 1_555 1_555
C17_3 C16_3 1_555 1_555
C18_3 C17_3 1_555 1_555
H11_3 C18_3 1_555 1_555
C19_3 C14_3 1_555 1_555
H12_3 C19_3 1_555 1_555
C20_3 C1_3 1_555 1_555
C21_3 C20_3 1_555 1_555
H13_3 C21_3 1_555 1_555
C22_3 C21_3 1_555 1_555
H14_3 C22_3 1_555 1_555
C23_3 C22_3 1_555 1_555
C24_3 C23_3 1_555 1_555
H15_3 C24_3 1_555 1_555
C25_3 C20_3 1_555 1_555
H16_3 C25_3 1_555 1_555
Co4 O4_3 1_555 1_555
Co7 O6_3 1_555 1_555
O1_3 H17_3 1_555 1_555
O13_2 P1_3 1_555 1_555
O14 P1_3 1_555 1_555
O4_3 P2_3 1_555 1_555
O5_3 H18_3 1_555 1_555
O6_3 P2_3 1_555 1_555
O17 P3_3 1_555 1_555
O11_3 H20_3 1_555 1_555
O18_2 P3_3 1_555 1_555
P1_3 C23_3 1_555 1_555
P2_3 C5_3 1_555 1_555
P3_3 C17_3 1_555 1_555
C6_3 C7_3 1_555 1_555
C18_3 C19_3 1_555 1_555
C24_3 C25_3 1_555 1_555
O1_3 P1_3 1_555 1_555
O5_3 P2_3 1_555 1_555
O11_3 P3_3 1_555 1_555
Co5 O4_4 1_555 1_555
O15_2 Co5 1_555 1_555
Co8 O6_4 1_555 1_555
O6_4 P2_4 1_555 1_555
O16_2 Co8 1_555 1_555
H14_4 C22_4 1_555 1_555
C23_4 C22_4 1_555 1_555
C24_4 C23_4 1_555 1_555
H15_4 C24_4 1_555 1_555
H16_4 C25_4 1_555 1_555
O1_4 H17_4 1_555 1_555
O13 P1_4 1_555 1_555
O14_2 P1_4 1_555 1_555
P1_4 C23_4 1_555 1_555
C24_4 C25_4 1_555 1_555
O1_4 P1_4 1_555 1_555
C3_4 H1_4 1_555 1_555
C4_4 C3_4 1_555 1_555
C9_4 C8_4 1_555 1_555
H5_4 C9_4 1_555 1_555
C10_4 C9_4 1_555 1_555
H6_4 C10_4 1_555 1_555
C21_4 C20_4 1_555 1_555
H13_4 C21_4 1_555 1_555
H10_4 C16_4 1_555 1_555
C17_4 C16_4 1_555 1_555
C18_4 C17_4 1_555 1_555
H11_4 C18_4 1_555 1_555
H12_4 C19_4 1_555 1_555
O17_2 P3_4 1_555 1_555
O11_4 H20_4 1_555 1_555
O18 P3_4 1_555 1_555
P3_4 C17_4 1_555 1_555
C18_4 C19_4 1_555 1_555
O11_4 P3_4 1_555 1_555
C1_4 C2_4 1_555 1_555
C6_4 C5_4 1_555 1_555
H3_4 C6_4 1_555 1_555
C7_4 C2_4 1_555 1_555
H4_4 C7_4 1_555 1_555
C12_4 C11_4 1_555 1_555
H7_4 C12_4 1_555 1_555
H8_4 C13_4 1_555 1_555
C14_4 C1_4 1_555 1_555
C15_4 C14_4 1_555 1_555
H9_4 C15_4 1_555 1_555
O16_2 P4_4 1_555 1_555
O9_4 H19_4 1_555 1_555
P4_4 C11_4 1_555 1_555
C6_4 C7_4 1_555 1_555
C12_4 C13_4 1_555 1_555
O9_4 P4_4 1_555 1_555

#END
