
###############################################################################
#
# This file contains modified crystal structure data generated from the
# MOF subset of the Cambridge Structural Database (CSD) v543 
# hosted by the Cambridge Crystallographic Data Centre (CCDC).
#
# This work is licensed under the Creative Commons
# Attribution-NonCommercial-ShareAlike 4.0 International License.
# To view a copy of this license, visit
# http://creativecommons.org/licenses/by-nc-sa/4.0/
# or send a letter to
# Creative Commons, PO Box 1866, Mountain View, CA 94042, USA.
#
# CIF created using the CSD Python API on 29 September 2022
# The structure has been converted into the P1 space group
# The structure has a 3D framework
# The original CSD entry TITTEY is in the monoclinic crystal system
# The framework has been calculated to contain at least 10.0% void space
# The void calculation uses a probe of radius 1.32A, grid spacing 0.4
#
###############################################################################

data_TITTEY
_chemical_formula_moiety         '(C44 H28 Co4 N24 O8)n'
_symmetry_cell_setting           triclinic
_symmetry_space_group_name_H-M   'P 1'
_symmetry_Int_Tables_number      1
_space_group_name_Hall           'P 1'
loop_
_symmetry_equiv_pos_site_id
_symmetry_equiv_pos_as_xyz
1 x,y,z
_cell_length_a                   10.6493(9)
_cell_length_b                   14.9679(13)
_cell_length_c                   12.6966(13)
_cell_angle_alpha                90
_cell_angle_beta                 104.300(9)
_cell_angle_gamma                90
_cell_volume                     1961.1
loop_
_atom_site_label
_atom_site_type_symbol
_atom_site_fract_x
_atom_site_fract_y
_atom_site_fract_z
Co5 Co 0.5000 0.0000 0.5000
Co1 Co 0.0000 0.5000 0.0000
N4 N 0.1680(3) 0.85826(18) 0.3246(2)
N5 N 0.2321(3) 0.8583(2) 0.2435(3)
N6 N 0.3393(3) 0.93957(18) 0.3874(2)
C5 C 0.0548(3) 0.8052(2) 0.3178(3)
C6 C 0.0412(3) 0.7257(2) 0.2599(3)
H4 H 0.1002 0.7100 0.2200
C9 C 0.2340(3) 0.9066(2) 0.4088(3)
H6 H 0.2089 0.9157 0.4732
C10 C 0.3334(3) 0.9087(2) 0.2860(3)
H7 H 0.3963 0.9221 0.2491
Co5_2 Co 0.5000 1.0000 0.5000
N15 N 0.1607(3) 0.43957(18) 0.1126(2)
Co1_2 Co 0.0000 0.5000 1.0000
O3 O 0.0410(2) 0.41864(15) 0.8836(2)
O4 O 0.1094(3) 0.48461(16) 0.7494(2)
N7 N 0.2407(2) 0.19260(17) 0.5826(2)
N8 N 0.3262(3) 0.25184(18) 0.5560(3)
N9 N 0.3814(3) 0.10938(17) 0.5304(2)
C12 C 0.4078(3) 0.1987(2) 0.5246(3)
H8 H 0.4779 0.2198 0.5004
C13 C 0.2770(3) 0.1086(2) 0.5669(3)
H9 H 0.2340 0.0574 0.5801
C14 C 0.1411(3) 0.2223(2) 0.6309(3)
C15 C 0.0352(3) 0.1673(2) 0.6275(3)
H10 H 0.0253 0.1136 0.5896
C18 C 0.0616(3) 0.3295(2) 0.7373(3)
C19 C 0.1529(3) 0.3044(2) 0.6822(3)
H12 H 0.2213 0.3422 0.6797
C22 C 0.0734(3) 0.4192(2) 0.7956(3)
N14 N 0.1186(3) 0.60938(17) 0.9696(2)
Co1_3 Co 1.0000 0.5000 0.0000
O1 O 0.9590(2) 0.58136(15) 0.1164(2)
O2 O 0.8906(3) 0.51539(16) 0.2506(2)
N1 N 0.7593(2) 0.80740(17) 0.4174(2)
N2 N 0.6738(3) 0.74816(18) 0.4440(3)
N3 N 0.6186(3) 0.89062(17) 0.4696(2)
C1 C 0.5922(3) 0.8013(2) 0.4754(3)
H1 H 0.5221 0.7802 0.4996
C2 C 0.7230(3) 0.8914(2) 0.4331(3)
H2 H 0.7660 0.9426 0.4199
C3 C 0.8589(3) 0.7777(2) 0.3691(3)
C4 C 0.9648(3) 0.8327(2) 0.3725(3)
H3 H 0.9747 0.8864 0.4104
C7 C 0.9384(3) 0.6705(2) 0.2627(3)
C8 C 0.8471(3) 0.6956(2) 0.3178(3)
H5 H 0.7787 0.6578 0.3203
C11 C 0.9266(3) 0.5808(2) 0.2044(3)
N13 N 0.8814(3) 0.39062(17) 0.0304(2)
Co1_4 Co 1.0000 0.5000 1.0000
N10 N 0.8320(3) 0.14174(18) 0.6754(2)
N11 N 0.7679(3) 0.1417(2) 0.7565(3)
N12 N 0.6607(3) 0.06043(18) 0.6126(2)
C16 C 0.9452(3) 0.1948(2) 0.6822(3)
C17 C 0.9588(3) 0.2743(2) 0.7401(3)
H11 H 0.8998 0.2900 0.7800
C20 C 0.7660(3) 0.0934(2) 0.5912(3)
H13 H 0.7911 0.0843 0.5268
C21 C 0.6666(3) 0.0913(2) 0.7140(3)
H14 H 0.6037 0.0779 0.7509
N16 N 0.8393(3) 0.56043(18) 0.8874(2)
O1_2 O 0.5410(2) 0.08136(15) 0.3836(2)
O2_2 O 0.6094(3) 0.01539(16) 0.2494(2)
N1_2 N 0.7407(2) 0.30740(17) 0.0826(2)
N2_2 N 0.8262(3) 0.24816(18) 0.0560(3)
N4_2 N 0.3320(3) 0.35826(18) 0.1754(2)
N5_2 N 0.2679(3) 0.3583(2) 0.2565(3)
C1_2 C 0.9078(3) 0.3013(2) 0.0246(3)
H1_2 H 0.9779 0.2802 0.0004
C2_2 C 0.7770(3) 0.3914(2) 0.0669(3)
H2_2 H 0.7340 0.4426 0.0801
C3_2 C 0.6411(3) 0.2777(2) 0.1309(3)
C4_2 C 0.5352(3) 0.3327(2) 0.1275(3)
H3_2 H 0.5253 0.3864 0.0896
C5_2 C 0.4452(3) 0.3052(2) 0.1822(3)
C6_2 C 0.4588(3) 0.2257(2) 0.2401(3)
H4_2 H 0.3998 0.2100 0.2800
C7_2 C 0.5616(3) 0.1705(2) 0.2373(3)
C8_2 C 0.6529(3) 0.1956(2) 0.1822(3)
H5_2 H 0.7213 0.1578 0.1797
C9_2 C 0.2660(3) 0.4066(2) 0.0912(3)
H6_2 H 0.2911 0.4157 0.0268
C10_2 C 0.1666(3) 0.4087(2) 0.2140(3)
H7_2 H 0.1037 0.4221 0.2509
C11_2 C 0.5734(3) 0.0808(2) 0.2956(3)
O3_2 O 0.4590(2) 0.91864(15) 0.6164(2)
O4_2 O 0.3906(3) 0.98461(16) 0.7506(2)
N7_2 N 0.2593(2) 0.69260(17) 0.9174(2)
N8_2 N 0.1738(3) 0.75184(18) 0.9440(3)
N10_2 N 0.6680(3) 0.64174(18) 0.8246(2)
N11_2 N 0.7321(3) 0.6417(2) 0.7435(3)
C12_2 C 0.0922(3) 0.6987(2) 0.9754(3)
H8_2 H 0.0221 0.7198 0.9996
C13_2 C 0.2230(3) 0.6086(2) 0.9331(3)
H9_2 H 0.2660 0.5574 0.9199
C14_2 C 0.3589(3) 0.7223(2) 0.8691(3)
C15_2 C 0.4648(3) 0.6673(2) 0.8725(3)
H10_2 H 0.4747 0.6136 0.9104
C16_2 C 0.5548(3) 0.6948(2) 0.8178(3)
C17_2 C 0.5412(3) 0.7743(2) 0.7599(3)
H11_2 H 0.6002 0.7900 0.7200
C18_2 C 0.4384(3) 0.8295(2) 0.7627(3)
C19_2 C 0.3471(3) 0.8044(2) 0.8178(3)
H12_2 H 0.2787 0.8422 0.8203
C20_2 C 0.7340(3) 0.5934(2) 0.9088(3)
H13_2 H 0.7089 0.5843 0.9732
C21_2 C 0.8334(3) 0.5913(2) 0.7860(3)
H14_2 H 0.8963 0.5779 0.7491
C22_2 C 0.4266(3) 0.9192(2) 0.7044(3)
loop_
_geom_bond_atom_site_label_1
_geom_bond_atom_site_label_2
_geom_bond_site_symmetry_1
_geom_bond_site_symmetry_2
N4 N5 1_555 1_555
N5 C10 1_555 1_555
N6 C9 1_555 1_555
C5 N4 1_555 1_555
C6 C5 1_555 1_555
H4 C6 1_555 1_555
C9 N4 1_555 1_555
H6 C9 1_555 1_555
C10 N6 1_555 1_555
H7 C10 1_555 1_555
Co5_2 N6 1_555 1_555
N15 Co1 1_555 1_555
O3 Co1_2 1_555 1_555
O4 C22 1_555 1_555
N7 N8 1_555 1_555
N8 C12 1_555 1_555
N9 C12 1_555 1_555
C12 H8 1_555 1_555
C13 N7 1_555 1_555
H9 C13 1_555 1_555
C14 N7 1_555 1_555
C15 C14 1_555 1_555
H10 C15 1_555 1_555
C19 C14 1_555 1_555
H12 C19 1_555 1_555
C22 O3 1_555 1_555
Co5 N9 1_555 1_555
N14 Co1_2 1_555 1_555
N9 C13 1_555 1_555
C18 C19 1_555 1_555
C18 C22 1_555 1_555
Co1_3 O1 1_555 1_555
O1 C11 1_555 1_555
O2 C11 1_555 1_555
N1 N2 1_555 1_555
N2 C1 1_555 1_555
N3 C1 1_555 1_555
C1 H1 1_555 1_555
C2 N1 1_555 1_555
H2 C2 1_555 1_555
C3 N1 1_555 1_555
C4 C3 1_555 1_555
H3 C4 1_555 1_555
C8 C3 1_555 1_555
H5 C8 1_555 1_555
C11 C7 1_555 1_555
Co5_2 N3 1_555 1_555
N13 Co1_3 1_555 1_555
N3 C2 1_555 1_555
C7 C8 1_555 1_555
N10 N11 1_555 1_555
N11 C21 1_555 1_555
N12 C20 1_555 1_555
C16 N10 1_555 1_555
C17 C16 1_555 1_555
H11 C17 1_555 1_555
C20 N10 1_555 1_555
H13 C20 1_555 1_555
C21 N12 1_555 1_555
H14 C21 1_555 1_555
Co5 N12 1_555 1_555
N16 Co1_4 1_555 1_555
Co5 O1_2 1_555 1_555
O1_2 C11_2 1_555 1_555
O2_2 C11_2 1_555 1_555
N1_2 N2_2 1_555 1_555
N2_2 C1_2 1_555 1_555
N13 C1_2 1_555 1_555
N4_2 N5_2 1_555 1_555
N5_2 C10_2 1_555 1_555
N15 C9_2 1_555 1_555
C1_2 H1_2 1_555 1_555
C2_2 N1_2 1_555 1_555
H2_2 C2_2 1_555 1_555
C3_2 N1_2 1_555 1_555
C4_2 C3_2 1_555 1_555
H3_2 C4_2 1_555 1_555
C5_2 N4_2 1_555 1_555
C6_2 C5_2 1_555 1_555
H4_2 C6_2 1_555 1_555
C7_2 C6_2 1_555 1_555
C8_2 C3_2 1_555 1_555
H5_2 C8_2 1_555 1_555
C9_2 N4_2 1_555 1_555
H6_2 C9_2 1_555 1_555
C10_2 N15 1_555 1_555
H7_2 C10_2 1_555 1_555
C11_2 C7_2 1_555 1_555
N13 C2_2 1_555 1_555
C4_2 C5_2 1_555 1_555
C7_2 C8_2 1_555 1_555
O3_2 Co5_2 1_555 1_555
O4_2 C22_2 1_555 1_555
N7_2 N8_2 1_555 1_555
N8_2 C12_2 1_555 1_555
N14 C12_2 1_555 1_555
N10_2 N11_2 1_555 1_555
N11_2 C21_2 1_555 1_555
N16 C20_2 1_555 1_555
C12_2 H8_2 1_555 1_555
C13_2 N7_2 1_555 1_555
H9_2 C13_2 1_555 1_555
C14_2 N7_2 1_555 1_555
C15_2 C14_2 1_555 1_555
H10_2 C15_2 1_555 1_555
C16_2 N10_2 1_555 1_555
C17_2 C16_2 1_555 1_555
H11_2 C17_2 1_555 1_555
C18_2 C17_2 1_555 1_555
C19_2 C14_2 1_555 1_555
H12_2 C19_2 1_555 1_555
C20_2 N10_2 1_555 1_555
H13_2 C20_2 1_555 1_555
C21_2 N16 1_555 1_555
H14_2 C21_2 1_555 1_555
C22_2 O3_2 1_555 1_555
N14 C13_2 1_555 1_555
C15_2 C16_2 1_555 1_555
C18_2 C19_2 1_555 1_555
C18_2 C22_2 1_555 1_555

#END
