
###############################################################################
#
# This file contains modified crystal structure data generated from the
# MOF subset of the Cambridge Structural Database (CSD) v543 
# hosted by the Cambridge Crystallographic Data Centre (CCDC).
#
# This work is licensed under the Creative Commons
# Attribution-NonCommercial-ShareAlike 4.0 International License.
# To view a copy of this license, visit
# http://creativecommons.org/licenses/by-nc-sa/4.0/
# or send a letter to
# Creative Commons, PO Box 1866, Mountain View, CA 94042, USA.
#
# CIF created using the CSD Python API on 29 September 2022
# The structure has been converted into the P1 space group
# The structure has a 3D framework
# The original CSD entry TIXKUI is in the trigonal crystal system
# The original CSD entry TIXKUI is in a Sohncke space group
# The framework has been calculated to contain at least 10.0% void space
# The void calculation uses a probe of radius 1.32A, grid spacing 0.4
#
###############################################################################

data_TIXKUI
_chemical_formula_moiety         '(C126 H84 Co6 N12 O30)n'
_symmetry_cell_setting           triclinic
_symmetry_space_group_name_H-M   'P 1'
_symmetry_Int_Tables_number      1
_space_group_name_Hall           'P 1'
loop_
_symmetry_equiv_pos_site_id
_symmetry_equiv_pos_as_xyz
1 x,y,z
_cell_length_a                   16.6260(14)
_cell_length_b                   16.6260(14)
_cell_length_c                   23.983(2)
_cell_angle_alpha                90
_cell_angle_beta                 90
_cell_angle_gamma                120
_cell_volume                     5741.29
loop_
_atom_site_label
_atom_site_type_symbol
_atom_site_fract_x
_atom_site_fract_y
_atom_site_fract_z
C1 C 0.46822(16) 0.42142(15) 0.08010(9)
C2 C 0.52084(17) 0.44894(16) 0.13452(10)
C3 C 0.55511(18) 0.39502(17) 0.15691(10)
H1 H 0.5490 0.3446 0.1367
C4 C 0.59780(18) 0.41413(17) 0.20821(10)
C5 C 0.60683(19) 0.49027(19) 0.23667(11)
H2 H 0.6348 0.5036 0.2716
C6 C 0.53065(18) 0.52382(16) 0.16463(9)
H3 H 0.5065 0.5596 0.1507
C7 C 0.57673(18) 0.54662(25) 0.21602(10)
C8 C 0.58727(19) 0.62860(26) 0.24722(10)
C9 C 0.6036(2) 0.70904(27) 0.22202(11)
H4 H 0.6104 0.7149 0.1835
C10 C 0.61005(19) 0.78177(25) 0.25347(11)
H5 H 0.6220 0.8359 0.2350
C11 C 0.5860(2) 0.70114(28) 0.33292(11)
H6 H 0.5799 0.6973 0.3715
C12 C 0.5797(2) 0.6266(3) 0.30516(11)
H7 H 0.5704 0.5744 0.3248
C13 C 0.6592(2) 0.28057(28) 0.30982(11)
H8 H 0.6608 0.2747 0.3483
C14 C 0.6326(2) 0.3410(3) 0.28945(12)
H9 H 0.6167 0.3742 0.3139
C15 C 0.62938(18) 0.35252(25) 0.23228(10)
C16 C 0.6553(2) 0.29992(27) 0.19991(10)
H10 H 0.6560 0.3049 0.1612
C17 C 0.6796(2) 0.24147(27) 0.22404(11)
H11 H 0.6951 0.2065 0.2008
N1 N 0.60015(14) 0.77854(19) 0.30839(8)
N2 N 0.68256(13) 0.23077(18) 0.27877(8)
O1 O 0.41117(12) 0.44869(12) 0.07371(7)
O2 O 0.48464(11) 0.37345(11) 0.04753(6)
O5 O 0.29203(12) 0.29203(12) 0.0000
H14 H 0.2608 0.2531 0.0289
Co2 Co 0.29857(2) 0.41897(2) 0.023166(12)
Co3 Co 0.70143(2) 0.12040(3) 0.310167(12)
Co7 Co 0.58103(2) 0.87960(3) 0.356499(12)
N6 N 0.39985(14) 0.17839(24) 0.02494(8)
N8 N 0.31744(13) 0.54821(22) 0.05456(8)
O10 O 0.20372(12) 0.34899(11) 0.08698(7)
Co1 Co 0.41897(2) 0.29857(2) 0.976834(12)
C18 C 0.2653(2) 0.1695(2) 0.89895(11)
C19 C 0.22415(19) 0.08256(19) 0.86406(12)
C20 C 0.1320(2) 0.0409(3) 0.84861(17)
H12 H 0.0969 0.0680 0.8588
C21 C 0.27215(19) 0.0407(2) 0.84846(12)
H13 H 0.3344 0.0675 0.8584
O3 O 0.21414(14) 0.20050(17) 0.91205(10)
O4 O 0.34899(11) 0.20372(12) 0.91302(7)
O5_2 O 0.29203(12) 0.29203(12) 1.0000
H17 H 0.2531 0.2608 0.9711
C26 C 0.42142(15) 0.46822(16) 0.91990(9)
C27 C 0.44894(16) 0.52084(17) 0.86548(10)
C28 C 0.39502(17) 0.55511(18) 0.84309(10)
H18 H 0.3446 0.5490 0.8633
C29 C 0.41413(17) 0.59780(18) 0.79179(10)
C30 C 0.49027(19) 0.60683(19) 0.76333(11)
H19 H 0.5036 0.6348 0.7284
C31 C 0.52382(16) 0.53065(18) 0.83537(9)
H20 H 0.5596 0.5065 0.8493
C32 C 0.54662(25) 0.57673(18) 0.78398(10)
C33 C 0.62860(26) 0.58727(19) 0.75278(10)
C34 C 0.70904(27) 0.6036(2) 0.77798(11)
H21 H 0.7149 0.6104 0.8165
C35 C 0.78177(25) 0.61005(19) 0.74653(11)
H22 H 0.8359 0.6220 0.7650
C36 C 0.70114(28) 0.5860(2) 0.66708(11)
H23 H 0.6973 0.5799 0.6285
C37 C 0.6266(3) 0.5797(2) 0.69484(11)
H24 H 0.5744 0.5704 0.6752
C38 C 0.28057(28) 0.6592(2) 0.69018(11)
H25 H 0.2747 0.6608 0.6517
C39 C 0.3410(3) 0.6326(2) 0.71055(12)
H26 H 0.3742 0.6167 0.6861
C40 C 0.35252(25) 0.62938(18) 0.76772(10)
C41 C 0.29992(27) 0.6553(2) 0.80009(10)
H27 H 0.3049 0.6560 0.8388
C42 C 0.24147(27) 0.6796(2) 0.77596(11)
H28 H 0.2065 0.6951 0.7992
N3 N 0.77854(19) 0.60015(14) 0.69161(8)
N4 N 0.23077(18) 0.68256(13) 0.72123(8)
O8 O 0.44869(12) 0.41117(12) 0.92629(7)
O9 O 0.37345(11) 0.48464(11) 0.95247(6)
Co4 Co 0.87960(3) 0.58103(2) 0.643501(12)
Co6 Co 0.12040(3) 0.70143(2) 0.689833(12)
N5 N 0.17839(24) 0.39985(14) 0.97506(8)
N7 N 0.54821(22) 0.31744(13) 0.94544(8)
C22 C 0.0958(3) 0.8305(2) 0.76772(11)
C23 C 0.14159(27) 0.91744(19) 0.80261(12)
C24 C 0.0911(4) 0.9591(3) 0.81806(17)
H15 H 0.0289 0.9320 0.8079
C25 C 0.23145(28) 0.9593(2) 0.81821(12)
H16 H 0.2669 0.9325 0.8083
O6 O 0.01364(22) 0.79950(17) 0.75462(10)
O7 O 0.14527(16) 0.79628(12) 0.75365(7)
C22_2 C 0.1695(2) 0.2653(4) 0.10105(11)
C23_2 C 0.08256(19) 0.22415(33) 0.13594(12)
C24_2 C 0.0409(3) 0.1320(5) 0.15139(17)
H15_2 H 0.0680 0.0969 0.1412
C25_2 C 0.0407(2) 0.27215(34) 0.15154(12)
H16_2 H 0.0675 0.3344 0.1416
O6_2 O 0.20050(17) 0.21414(28) 0.08795(10)
C1_2 C 0.57858(15) 0.04680(22) 0.41343(9)
C2_2 C 0.55106(16) 0.07190(23) 0.46785(10)
C3_2 C 0.60498(17) 0.16009(25) 0.49024(10)
H1_2 H 0.6554 0.2044 0.4700
C4_2 C 0.58587(17) 0.18367(25) 0.54154(10)
C5_2 C 0.50973(19) 0.11656(27) 0.57000(11)
H2_2 H 0.4964 0.1312 0.6049
C6_2 C 0.47618(16) 0.00683(24) 0.49796(9)
C7_2 C 0.45338(25) 0.03011(31) 0.54935(10)
C13_2 C 0.71943(28) 0.37863(34) 0.64315(11)
H8_2 H 0.7253 0.3861 0.6816
C14_2 C 0.6590(3) 0.2916(4) 0.62278(12)
H9_2 H 0.6258 0.2425 0.6472
C15_2 C 0.64748(25) 0.27686(31) 0.56561(10)
C16_2 C 0.70008(27) 0.35538(34) 0.53324(10)
H10_2 H 0.6951 0.3511 0.4945
C17_2 C 0.75853(27) 0.43813(34) 0.55737(11)
H11_2 H 0.7935 0.4886 0.5341
C18_2 C 0.8305(2) 0.0958(3) 0.23228(11)
C19_2 C 0.91744(19) 0.14159(27) 0.19739(12)
C20_2 C 0.9591(3) 0.0911(4) 0.18194(17)
H12_2 H 0.9320 0.0289 0.1921
C21_2 C 0.9593(2) 0.23145(28) 0.18179(12)
H13_2 H 0.9325 0.2669 0.1917
N2_2 N 0.76923(18) 0.45179(22) 0.61210(8)
O2_2 O 0.62655(11) 0.11119(16) 0.38086(6)
O3_2 O 0.79950(17) 0.01364(22) 0.24538(10)
O4_2 O 0.79628(12) 0.14527(16) 0.24635(7)
O5_3 O 0.70797(12) 0.00000(17) 0.3333
H14_2 H 0.7469 0.0077 0.3622
H20_2 H 0.4935 0.0531 0.1826
C33_2 C 0.41273(19) 0.04133(32) 0.08611(10)
C34_2 C 0.3964(2) 0.10544(34) 0.11131(11)
H21_2 H 0.3896 0.1045 0.1498
C35_2 C 0.38995(19) 0.17172(31) 0.07986(11)
H22_2 H 0.3780 0.2139 0.0983
C36_2 C 0.4140(2) 0.11514(34) 0.00041(11)
C37_2 C 0.4203(2) 0.0469(4) 0.02817(11)
H24_2 H 0.4296 0.0040 0.0085
O8_2 O 0.58883(12) 0.03752(17) 0.25962(7)
N6_2 N 0.82161(24) 0.22146(28) 0.35828(8)
H23_2 H 0.4201 0.1174 0.9618
H3_2 H 0.4404 0.9469 0.4840
C8_2 C 0.37140(26) 0.95867(32) 0.58055(10)
C9_2 C 0.29096(27) 0.89456(34) 0.55535(11)
H4_2 H 0.2851 0.8955 0.5168
C10_2 C 0.21823(25) 0.82828(31) 0.58680(11)
H5_2 H 0.1641 0.7861 0.5683
C11_2 C 0.29886(28) 0.88486(34) 0.66625(11)
H6_2 H 0.3027 0.8826 0.7048
C12_2 C 0.3734(3) 0.9531(4) 0.63849(11)
H7_2 H 0.4256 0.9960 0.6581
N1_2 N 0.22146(19) 0.82161(24) 0.64172(8)
O1_2 O 0.55131(12) 0.96248(17) 0.40704(7)
O5_4 O 0.70797(12) 1.00000(17) 0.3333
H17_2 H 0.7392 0.9923 0.3044
C26_2 C 0.53178(16) 0.95320(22) 0.25323(9)
C27_2 C 0.47916(17) 0.92810(23) 0.19881(10)
C28_2 C 0.44489(18) 0.83991(25) 0.17642(10)
H18_2 H 0.4510 0.7956 0.1966
C29_2 C 0.40220(18) 0.81633(25) 0.12512(10)
C30_2 C 0.39317(19) 0.88344(27) 0.09666(11)
H19_2 H 0.3652 0.8688 0.0617
C31_2 C 0.46935(18) 0.99317(24) 0.16870(9)
C32_2 C 0.42327(18) 0.96989(31) 0.11731(10)
C38_2 C 0.3408(2) 0.62137(34) 0.02351(11)
C39_2 C 0.3674(2) 0.7084(4) 0.04388(12)
H26_2 H 0.3833 0.7575 0.0194
C40_2 C 0.37062(18) 0.72314(31) 0.10105(10)
C41_2 C 0.3447(2) 0.64462(34) 0.13342(10)
H27_2 H 0.3440 0.6489 0.1721
C42_2 C 0.3204(2) 0.56187(34) 0.10929(11)
H28_2 H 0.3049 0.5114 0.1325
O9_2 O 0.51536(11) 0.88881(16) 0.28580(6)
N8_2 N 0.45179(22) 0.76923(26) 0.38790(8)
O10_2 O 0.65101(11) 0.85473(16) 0.42031(7)
H6_3 H 0.1174 0.4201 0.0382
H3_3 H 0.0531 0.4935 0.8174
C8_3 C 0.04133(32) 0.41273(19) 0.91389(10)
C9_3 C 0.10544(34) 0.3964(2) 0.88869(11)
H4_3 H 0.1045 0.3896 0.8502
C10_3 C 0.17172(31) 0.38995(19) 0.92014(11)
H5_3 H 0.2139 0.3780 0.9017
C11_3 C 0.11514(34) 0.4140(2) 0.99959(11)
C12_3 C 0.0469(4) 0.4203(2) 0.97183(11)
H7_3 H 0.0040 0.4296 0.9915
O1_3 O 0.03752(17) 0.58883(12) 0.74038(7)
O5_5 O -0.00000(17) 0.70797(12) 0.6667
H17_3 H 0.0077 0.7469 0.6378
C26_3 C 0.04680(22) 0.57858(15) 0.58657(9)
C27_3 C 0.07190(23) 0.55106(16) 0.53215(10)
C28_3 C 0.16009(25) 0.60498(17) 0.50976(10)
H18_3 H 0.2044 0.6554 0.5300
C29_3 C 0.18367(25) 0.58587(17) 0.45846(10)
C30_3 C 0.11656(27) 0.50973(19) 0.43000(11)
H19_3 H 0.1312 0.4964 0.3951
C31_3 C 0.00683(24) 0.47618(16) 0.50204(9)
C32_3 C 0.03011(31) 0.45338(25) 0.45065(10)
C38_3 C 0.37863(34) 0.71943(28) 0.35685(11)
H25_2 H 0.3861 0.7253 0.3184
C39_3 C 0.2916(4) 0.6590(3) 0.37722(12)
H26_3 H 0.2425 0.6258 0.3528
C40_3 C 0.27686(31) 0.64748(25) 0.43439(10)
C41_3 C 0.35538(34) 0.70008(27) 0.46676(10)
H27_3 H 0.3511 0.6951 0.5055
C42_3 C 0.43813(34) 0.75853(27) 0.44263(11)
H28_3 H 0.4886 0.7935 0.4659
O9_3 O 0.11119(16) 0.62655(11) 0.61914(6)
C1_3 C 0.95320(22) 0.53178(16) 0.74677(9)
C2_3 C 0.92810(23) 0.47916(17) 0.80119(10)
C3_3 C 0.83991(25) 0.44489(18) 0.82358(10)
H1_3 H 0.7956 0.4510 0.8034
C4_3 C 0.81633(25) 0.40220(18) 0.87488(10)
C5_3 C 0.88344(27) 0.39317(19) 0.90334(11)
H2_3 H 0.8688 0.3652 0.9383
C6_3 C 0.99317(24) 0.46935(18) 0.83130(9)
C7_3 C 0.96989(31) 0.42327(18) 0.88269(10)
C13_3 C 0.62137(34) 0.3408(2) 0.97649(11)
C14_3 C 0.7084(4) 0.3674(2) 0.95612(12)
H9_3 H 0.7575 0.3833 0.9806
C15_3 C 0.72314(31) 0.37062(18) 0.89895(10)
C16_3 C 0.64462(34) 0.3447(2) 0.86658(10)
H10_3 H 0.6489 0.3440 0.8279
C17_3 C 0.56187(34) 0.3204(2) 0.89071(11)
H11_3 H 0.5114 0.3049 0.8675
C18_3 C 0.9042(3) 0.7347(2) 0.56562(11)
C19_3 C 0.85841(27) 0.77585(19) 0.53073(12)
C20_3 C 0.9089(4) 0.8680(2) 0.51528(17)
H12_3 H 0.9711 0.9031 0.5255
C21_3 C 0.76855(28) 0.72785(19) 0.51513(12)
H13_3 H 0.7331 0.6656 0.5251
O2_3 O 0.88881(16) 0.51536(11) 0.71420(6)
O3_3 O 0.98636(22) 0.78586(14) 0.57872(10)
O4_3 O 0.85473(16) 0.65101(11) 0.57969(7)
O5_6 O 1.00000(17) 0.70797(12) 0.6667
H14_3 H 0.9923 0.7392 0.6956
C22_3 C 0.7347(4) 0.9042(3) 0.43438(11)
C23_3 C 0.77585(33) 0.85841(27) 0.46927(12)
C24_3 C 0.8680(5) 0.9089(4) 0.48472(17)
H15_3 H 0.9031 0.9711 0.4745
C25_3 C 0.72785(34) 0.76855(28) 0.48487(12)
H16_3 H 0.6656 0.7331 0.4749
O6_3 O 0.78586(28) 0.98636(22) 0.42128(10)
H20_3 H 0.9469 0.4404 0.5160
C33_3 C 0.95867(32) 0.37140(26) 0.41945(10)
C34_3 C 0.89456(34) 0.29096(27) 0.44465(11)
H21_3 H 0.8955 0.2851 0.4832
C35_3 C 0.82828(31) 0.21823(25) 0.41320(11)
H22_3 H 0.7861 0.1641 0.4317
C36_3 C 0.88486(34) 0.29886(28) 0.33375(11)
H23_3 H 0.8826 0.3027 0.2952
C37_3 C 0.9531(4) 0.3734(3) 0.36151(11)
H24_3 H 0.9960 0.4256 0.3419
O8_3 O 0.96248(17) 0.55131(12) 0.59296(7)
H25_3 H 0.3392 0.6139 0.9850
H8_3 H 0.6139 0.3392 0.0150
loop_
_geom_bond_atom_site_label_1
_geom_bond_atom_site_label_2
_geom_bond_site_symmetry_1
_geom_bond_site_symmetry_2
C1 C2 1_555 1_555
C2 C3 1_555 1_555
C3 H1 1_555 1_555
C4 C3 1_555 1_555
C5 C4 1_555 1_555
H2 C5 1_555 1_555
C6 C2 1_555 1_555
H3 C6 1_555 1_555
C7 C5 1_555 1_555
C8 C7 1_555 1_555
C9 C8 1_555 1_555
H4 C9 1_555 1_555
C10 C9 1_555 1_555
H5 C10 1_555 1_555
C11 H6 1_555 1_555
C12 C8 1_555 1_555
H7 C12 1_555 1_555
C13 H8 1_555 1_555
C14 C13 1_555 1_555
H9 C14 1_555 1_555
C15 C4 1_555 1_555
C16 C15 1_555 1_555
H10 C16 1_555 1_555
C17 C16 1_555 1_555
H11 C17 1_555 1_555
N1 C10 1_555 1_555
N2 C13 1_555 1_555
O1 C1 1_555 1_555
O2 C1 1_555 1_555
H14 O5 1_555 1_555
Co2 O1 1_555 1_555
Co3 N2 1_555 1_555
Co7 N1 1_555 1_555
N8 Co2 1_555 1_555
O10 Co2 1_555 1_555
C6 C7 1_555 1_555
C11 C12 1_555 1_555
C11 N1 1_555 1_555
C14 C15 1_555 1_555
C17 N2 1_555 1_555
O5 Co2 1_555 1_555
C18 C19 1_555 1_555
C19 C20 1_555 1_555
C20 H12 1_555 1_555
C21 C19 1_555 1_555
H13 C21 1_555 1_555
O3 C18 1_555 1_555
O4 Co1 1_555 1_555
O5_2 Co1 1_555 1_555
H17 O5_2 1_555 1_555
C26 C27 1_555 1_555
C27 C28 1_555 1_555
C28 H18 1_555 1_555
C29 C28 1_555 1_555
C30 C29 1_555 1_555
H19 C30 1_555 1_555
C31 C27 1_555 1_555
H20 C31 1_555 1_555
C32 C30 1_555 1_555
C33 C32 1_555 1_555
C34 C33 1_555 1_555
H21 C34 1_555 1_555
C35 C34 1_555 1_555
H22 C35 1_555 1_555
C36 H23 1_555 1_555
C37 C33 1_555 1_555
H24 C37 1_555 1_555
C38 H25 1_555 1_555
C39 C38 1_555 1_555
H26 C39 1_555 1_555
C40 C29 1_555 1_555
C41 C40 1_555 1_555
H27 C41 1_555 1_555
C42 C41 1_555 1_555
H28 C42 1_555 1_555
N3 C35 1_555 1_555
N4 C38 1_555 1_555
O8 Co1 1_555 1_555
Co4 N3 1_555 1_555
Co6 N4 1_555 1_555
N7 Co1 1_555 1_555
C18 O4 1_555 1_555
C26 O8 1_555 1_555
C26 O9 1_555 1_555
C31 C32 1_555 1_555
C36 C37 1_555 1_555
C36 N3 1_555 1_555
C39 C40 1_555 1_555
C42 N4 1_555 1_555
C22 C23 1_555 1_555
C23 C24 1_555 1_555
H15 C24 1_555 1_555
H16 C25 1_555 1_555
O6 C22 1_555 1_555
O7 C22 1_555 1_555
Co6 O7 1_555 1_555
C23 C25 1_555 1_555
C22_2 C23_2 1_555 1_555
C23_2 C24_2 1_555 1_555
H15_2 C24_2 1_555 1_555
H16_2 C25_2 1_555 1_555
O6_2 C22_2 1_555 1_555
O10 C22_2 1_555 1_555
C23_2 C25_2 1_555 1_555
Co3 O2_2 1_555 1_555
C1_2 C2_2 1_555 1_555
C2_2 C3_2 1_555 1_555
C3_2 H1_2 1_555 1_555
C4_2 C3_2 1_555 1_555
C5_2 C4_2 1_555 1_555
H2_2 C5_2 1_555 1_555
C6_2 C2_2 1_555 1_555
C7_2 C5_2 1_555 1_555
C13_2 H8_2 1_555 1_555
C14_2 C13_2 1_555 1_555
H9_2 C14_2 1_555 1_555
C15_2 C4_2 1_555 1_555
C16_2 C15_2 1_555 1_555
H10_2 C16_2 1_555 1_555
C17_2 C16_2 1_555 1_555
H11_2 C17_2 1_555 1_555
C18_2 C19_2 1_555 1_555
C19_2 C20_2 1_555 1_555
C20_2 H12_2 1_555 1_555
C21_2 C19_2 1_555 1_555
H13_2 C21_2 1_555 1_555
N2_2 C13_2 1_555 1_555
O2_2 C1_2 1_555 1_555
O3_2 C18_2 1_555 1_555
O4_2 Co3 1_555 1_555
O5_3 Co3 1_555 1_555
H14_2 O5_3 1_555 1_555
C34_2 C33_2 1_555 1_555
H21_2 C34_2 1_555 1_555
C35_2 C34_2 1_555 1_555
H22_2 C35_2 1_555 1_555
C37_2 C33_2 1_555 1_555
H24_2 C37_2 1_555 1_555
N6 C35_2 1_555 1_555
O8_2 Co3 1_555 1_555
Co4 N2_2 1_555 1_555
N6_2 Co3 1_555 1_555
C6_2 C7_2 1_555 1_555
C14_2 C15_2 1_555 1_555
C17_2 N2_2 1_555 1_555
C18_2 O4_2 1_555 1_555
C36_2 C37_2 1_555 1_555
C36_2 N6 1_555 1_555
C9_2 C8_2 1_555 1_555
H4_2 C9_2 1_555 1_555
C10_2 C9_2 1_555 1_555
H5_2 C10_2 1_555 1_555
C11_2 H6_2 1_555 1_555
C12_2 C8_2 1_555 1_555
H7_2 C12_2 1_555 1_555
N1_2 C10_2 1_555 1_555
H17_2 O5_4 1_555 1_555
Co7 O1_2 1_555 1_555
C26_2 C27_2 1_555 1_555
C27_2 C28_2 1_555 1_555
C28_2 H18_2 1_555 1_555
C29_2 C28_2 1_555 1_555
C30_2 C29_2 1_555 1_555
H19_2 C30_2 1_555 1_555
C31_2 C27_2 1_555 1_555
C32_2 C30_2 1_555 1_555
C39_2 C38_2 1_555 1_555
H26_2 C39_2 1_555 1_555
C40_2 C29_2 1_555 1_555
C41_2 C40_2 1_555 1_555
H27_2 C41_2 1_555 1_555
C42_2 C41_2 1_555 1_555
H28_2 C42_2 1_555 1_555
N8 C38_2 1_555 1_555
O9_2 Co7 1_555 1_555
Co6 N1_2 1_555 1_555
N8_2 Co7 1_555 1_555
O10_2 Co7 1_555 1_555
C11_2 C12_2 1_555 1_555
C11_2 N1_2 1_555 1_555
O5_4 Co7 1_555 1_555
C26_2 O9_2 1_555 1_555
C31_2 C32_2 1_555 1_555
C39_2 C40_2 1_555 1_555
C42_2 N8 1_555 1_555
C9_3 C8_3 1_555 1_555
H4_3 C9_3 1_555 1_555
C10_3 C9_3 1_555 1_555
H5_3 C10_3 1_555 1_555
C12_3 C8_3 1_555 1_555
H7_3 C12_3 1_555 1_555
N5 C10_3 1_555 1_555
H17_3 O5_5 1_555 1_555
Co6 O1_3 1_555 1_555
C26_3 C27_3 1_555 1_555
C27_3 C28_3 1_555 1_555
C28_3 H18_3 1_555 1_555
C29_3 C28_3 1_555 1_555
C30_3 C29_3 1_555 1_555
H19_3 C30_3 1_555 1_555
C31_3 C27_3 1_555 1_555
C32_3 C30_3 1_555 1_555
C38_3 H25_2 1_555 1_555
C39_3 C38_3 1_555 1_555
H26_3 C39_3 1_555 1_555
C40_3 C29_3 1_555 1_555
C41_3 C40_3 1_555 1_555
H27_3 C41_3 1_555 1_555
C42_3 C41_3 1_555 1_555
H28_3 C42_3 1_555 1_555
N8_2 C38_3 1_555 1_555
O9_3 Co6 1_555 1_555
C11_3 C12_3 1_555 1_555
C11_3 N5 1_555 1_555
O5_5 Co6 1_555 1_555
C26_3 O9_3 1_555 1_555
C31_3 C32_3 1_555 1_555
C39_3 C40_3 1_555 1_555
C42_3 N8_2 1_555 1_555
Co4 O2_3 1_555 1_555
C1_3 C2_3 1_555 1_555
C2_3 C3_3 1_555 1_555
C3_3 H1_3 1_555 1_555
C4_3 C3_3 1_555 1_555
C5_3 C4_3 1_555 1_555
H2_3 C5_3 1_555 1_555
C6_3 C2_3 1_555 1_555
C7_3 C5_3 1_555 1_555
C14_3 C13_3 1_555 1_555
H9_3 C14_3 1_555 1_555
C15_3 C4_3 1_555 1_555
C16_3 C15_3 1_555 1_555
H10_3 C16_3 1_555 1_555
C17_3 C16_3 1_555 1_555
H11_3 C17_3 1_555 1_555
C18_3 C19_3 1_555 1_555
C19_3 C20_3 1_555 1_555
C20_3 H12_3 1_555 1_555
C21_3 C19_3 1_555 1_555
H13_3 C21_3 1_555 1_555
N7 C13_3 1_555 1_555
O2_3 C1_3 1_555 1_555
O3_3 C18_3 1_555 1_555
O4_3 Co4 1_555 1_555
O5_6 Co4 1_555 1_555
H14_3 O5_6 1_555 1_555
C22_3 C23_3 1_555 1_555
C23_3 C24_3 1_555 1_555
C24_3 C20_3 1_555 1_555
H15_3 C24_3 1_555 1_555
C25_3 C21_3 1_555 1_555
H16_3 C25_3 1_555 1_555
O6_3 C22_3 1_555 1_555
O10_2 C22_3 1_555 1_555
C34_3 C33_3 1_555 1_555
H21_3 C34_3 1_555 1_555
C35_3 C34_3 1_555 1_555
H22_3 C35_3 1_555 1_555
C36_3 H23_3 1_555 1_555
C37_3 C33_3 1_555 1_555
H24_3 C37_3 1_555 1_555
N6_2 C35_3 1_555 1_555
O8_3 Co4 1_555 1_555
C6_3 C7_3 1_555 1_555
C14_3 C15_3 1_555 1_555
C17_3 N7 1_555 1_555
C18_3 O4_3 1_555 1_555
C23_3 C25_3 1_555 1_555
C36_3 C37_3 1_555 1_555
C36_3 N6_2 1_555 1_555

#END
