
###############################################################################
#
# This file contains modified crystal structure data generated from the
# MOF subset of the Cambridge Structural Database (CSD) v543 
# hosted by the Cambridge Crystallographic Data Centre (CCDC).
#
# This work is licensed under the Creative Commons
# Attribution-NonCommercial-ShareAlike 4.0 International License.
# To view a copy of this license, visit
# http://creativecommons.org/licenses/by-nc-sa/4.0/
# or send a letter to
# Creative Commons, PO Box 1866, Mountain View, CA 94042, USA.
#
# CIF created using the CSD Python API on 29 September 2022
# The structure has been converted into the P1 space group
# The structure has a 3D framework
# The original CSD entry TIZVIH01 is in the monoclinic crystal system
# The framework has been calculated to contain at least 10.0% void space
# The void calculation uses a probe of radius 1.32A, grid spacing 0.4
# The framework is charged, counterions have been retained in the structure
#
###############################################################################

data_TIZVIH01
_chemical_formula_moiety         '(C80 H64 Cl4 Cu4 N14 O16)n'
_symmetry_cell_setting           triclinic
_symmetry_space_group_name_H-M   'P 1'
_symmetry_Int_Tables_number      1
_space_group_name_Hall           'P 1'
loop_
_symmetry_equiv_pos_site_id
_symmetry_equiv_pos_as_xyz
1 x,y,z
_cell_length_a                   9.590(7)
_cell_length_b                   27.429(3)
_cell_length_c                   13.416(4)
_cell_angle_alpha                90
_cell_angle_beta                 105.80(3)
_cell_angle_gamma                90
_cell_volume                     3395.67
loop_
_atom_site_label
_atom_site_type_symbol
_atom_site_fract_x
_atom_site_fract_y
_atom_site_fract_z
C12 C 0.019(1) 0.2196(4) 0.0330(9)
C13 C 0.003(1) 0.2701(5) 0.0478(10)
C19 C 0.065(2) 0.3578(5) 0.014(1)
H13 H 0.1523 0.3707 0.0390
N4 N 0.265(1) 0.3431(4) 0.8267(8)
C14 C 0.067(1) 0.3037(5) 0.9968(9)
C15 C 0.152(1) 0.2836(4) 0.9356(9)
C16 C 0.162(1) 0.2357(5) 0.9194(9)
C17 C 0.091(2) 0.2011(5) 0.968(1)
C18 C 0.222(1) 0.3179(5) 0.8762(10)
C20 C 0.109(2) 0.1474(5) 0.951(1)
H10 H 0.2187 0.2203 0.8704
H12 H 0.0194 0.3719 0.9423
H14 H 0.0576 0.1280 0.9819
H15 H 0.2085 0.1390 0.9656
H16 H 0.0707 0.1422 0.8729
Cu3 Cu 0.3236 0.38553(3) 0.7254
Cu1 Cu 0.8236 0.11447(3) 0.2254
N1 N 0.6580(8) 0.0756(3) 0.1419(8)
N3 N 0.895(1) 0.1599(4) 0.1291(8)
C1 C 0.565(1) 0.0544(4) 0.096(1)
C2 C 0.444(1) 0.0265(4) 0.0343(9)
C11 C 0.949(1) 0.1867(4) 0.0870(9)
H9 H 0.9401 0.2816 0.0968
H11 H 0.9971 0.3654 0.0518
N5 N 0.993(1) 0.0741(4) 0.3019(8)
N6 N 0.765(1) 0.1569(4) 0.3267(8)
N2 N 0.493(1) 0.4259(4) 0.8019(8)
C3 C 0.862(1) 0.5455(5) 0.939(1)
C4 C 0.743(1) 0.5209(4) 0.874(1)
C5 C 0.712(1) 0.4758(5) 0.914(1)
C8 C 0.592(1) 0.4488(4) 0.8531(9)
C9 C 0.660(1) 0.5381(5) 0.7720(10)
H1 H 0.8900 0.5752 0.9192
H3 H 0.7004 0.5696 0.7623
H4 H 0.5640 0.5414 0.7712
H5 H 0.6742 0.5164 0.7218
N1_2 N 0.1580(8) 0.4244(3) 0.6419(8)
N3_2 N 0.395(1) 0.3401(4) 0.6291(8)
C1_2 C 0.065(1) 0.4456(4) 0.596(1)
C11_2 C 0.449(1) 0.3133(4) 0.5870(9)
C12_2 C 0.519(1) 0.2804(4) 0.5330(9)
C13_2 C 0.503(1) 0.2299(5) 0.5478(10)
C14_2 C 0.567(1) 0.1963(5) 0.4968(9)
C15_2 C 0.652(1) 0.2164(4) 0.4356(9)
C16_2 C 0.662(1) 0.2643(5) 0.4194(9)
C17_2 C 0.591(2) 0.2989(5) 0.468(1)
C18_2 C 0.722(1) 0.1821(5) 0.3762(10)
C19_2 C 0.565(2) 0.1422(5) 0.514(1)
C20_2 C 0.609(2) 0.3526(5) 0.451(1)
H6 H 0.0904 0.5429 0.6721
H9_2 H 0.4401 0.2184 0.5968
H10_2 H 0.7187 0.2797 0.3704
H11_2 H 0.4971 0.1346 0.5518
H12_2 H 0.5194 0.1281 0.4423
H13_2 H 0.6523 0.1293 0.5390
H14_2 H 0.5576 0.3720 0.4819
H15_2 H 0.7085 0.3610 0.4656
H16_2 H 0.5707 0.3578 0.3729
C3_2 C 0.362(1) 0.0455(5) 0.939(1)
C4_2 C 0.243(1) 0.0209(4) 0.874(1)
C9_2 C 0.160(1) 0.0381(5) 0.7720(10)
H1_2 H 0.3900 0.0752 0.9192
H3_2 H 0.2004 0.0696 0.7623
H4_2 H 0.0640 0.0414 0.7712
H5_2 H 0.1742 0.0164 0.7218
C6 C 0.286(1) 0.9581(4) 0.0125(9)
C7 C 0.402(1) 0.9837(4) 0.0715(8)
C10 C 0.486(1) 0.9630(5) 0.177(1)
H2 H 0.2466 0.9364 0.0336
H6_2 H 0.5904 0.9571 0.1721
H7 H 0.4992 0.9873 0.2294
H8 H 0.4541 0.9343 0.1946
C5_2 C 0.212(1) 0.9758(5) 0.914(1)
C8_2 C 0.092(1) 0.9488(4) 0.8531(9)
N2_2 N 0.993(1) 0.9259(4) 0.8019(8)
Cu2 Cu 0.8236 0.88553(3) 0.7254
N1_3 N 0.6580(8) 0.9244(3) 0.6419(8)
N3_3 N 0.895(1) 0.8401(4) 0.6291(8)
C1_3 C 0.565(1) 0.9456(4) 0.596(1)
C2_2 C 0.444(1) 0.9735(4) 0.5343(9)
C3_3 C 0.362(1) 0.9545(5) 0.439(1)
C4_3 C 0.243(1) 0.9791(4) 0.374(1)
C9_3 C 0.160(1) 0.9619(5) 0.2720(10)
C11_3 C 0.949(1) 0.8133(4) 0.5870(9)
H1_3 H 0.3900 0.9248 0.4192
H3_3 H 0.2004 0.9304 0.2623
H4_3 H 0.0640 0.9586 0.2712
H5_3 H 0.1742 0.9836 0.2218
H9_3 H 0.9401 0.7184 0.5968
H11_3 H 0.9971 0.6346 0.5518
N6_2 N 0.765(1) 0.8431(4) 0.8267(8)
C14_3 C 0.567(1) 0.8037(5) 0.9968(9)
C15_3 C 0.652(1) 0.7836(4) 0.9356(9)
C16_3 C 0.662(1) 0.7357(5) 0.9194(9)
C17_3 C 0.591(2) 0.7011(5) 0.968(1)
C18_3 C 0.722(1) 0.8179(5) 0.8762(10)
C20_3 C 0.609(2) 0.6474(5) 0.951(1)
H10_3 H 0.7187 0.7203 0.8704
H12_3 H 0.5194 0.8719 0.9423
H14_3 H 0.5576 0.6280 0.9819
H15_3 H 0.7085 0.6390 0.9656
H16_3 H 0.5707 0.6422 0.8729
N4_2 N 0.265(1) 0.6569(4) 0.3267(8)
C12_3 C 0.019(1) 0.7804(4) 0.5330(9)
C13_3 C 0.003(1) 0.7299(5) 0.5478(10)
C14_4 C 0.067(1) 0.6963(5) 0.4968(9)
C15_4 C 0.152(1) 0.7164(4) 0.4356(9)
C16_4 C 0.162(1) 0.7643(5) 0.4194(9)
C17_4 C 0.091(2) 0.7989(5) 0.468(1)
C18_4 C 0.222(1) 0.6821(5) 0.3762(10)
C19_3 C 0.065(2) 0.6422(5) 0.514(1)
C20_4 C 0.109(2) 0.8526(5) 0.451(1)
H10_4 H 0.2187 0.7797 0.3704
H12_4 H 0.0194 0.6281 0.4423
H13_3 H 0.1523 0.6293 0.5390
H14_4 H 0.0576 0.8720 0.4819
H15_4 H 0.2085 0.8610 0.4656
H16_4 H 0.0707 0.8578 0.3729
Cu3_2 Cu 0.3236 0.61447(3) 0.2254
N1_4 N 0.1580(8) 0.5756(3) 0.1419(8)
N3_4 N 0.395(1) 0.6599(4) 0.1291(8)
C1_4 C 0.065(1) 0.5544(4) 0.096(1)
C11_4 C 0.449(1) 0.6867(4) 0.0870(9)
C12_4 C 0.519(1) 0.7196(4) 0.0330(9)
C13_4 C 0.503(1) 0.7701(5) 0.0478(10)
C19_4 C 0.565(2) 0.8578(5) 0.014(1)
H6_3 H 0.0904 0.4571 0.1721
H9_4 H 0.4401 0.7816 0.0968
H11_4 H 0.4971 0.8654 0.0518
H13_4 H 0.6523 0.8707 0.0390
N5_2 N 0.493(1) 0.5741(4) 0.3019(8)
C2_3 C 0.944(1) 0.4735(4) 0.5343(9)
C3_4 C 0.862(1) 0.4545(5) 0.439(1)
C4_4 C 0.743(1) 0.4791(4) 0.374(1)
C5_3 C 0.712(1) 0.5242(5) 0.414(1)
C6_2 C 0.786(1) 0.5419(4) 0.5125(9)
C7_2 C 0.902(1) 0.5163(4) 0.5715(8)
C8_3 C 0.592(1) 0.5512(4) 0.3531(9)
C9_4 C 0.660(1) 0.4619(5) 0.2720(10)
C10_2 C 0.986(1) 0.5370(5) 0.677(1)
H1_4 H 0.8900 0.4248 0.4192
H2_2 H 0.7466 0.5636 0.5336
H3_4 H 0.7004 0.4304 0.2623
H4_4 H 0.5640 0.4586 0.2712
H5_4 H 0.6742 0.4836 0.2218
H7_2 H 0.9992 0.5127 0.7294
H8_2 H 0.9541 0.5657 0.6946
C5_4 C 0.212(1) 0.0242(5) 0.414(1)
C6_3 C 0.286(1) 0.0419(4) 0.5125(9)
C7_3 C 0.402(1) 0.0163(4) 0.5715(8)
C8_4 C 0.092(1) 0.0512(4) 0.3531(9)
C10_3 C 0.486(1) 0.0370(5) 0.677(1)
H2_3 H 0.2466 0.0636 0.5336
H6_4 H 0.5904 0.0429 0.6721
H7_3 H 0.4992 0.0127 0.7294
H8_3 H 0.4541 0.0657 0.6946
C2_4 C 0.944(1) 0.5265(4) 0.0343(9)
C6_4 C 0.786(1) 0.4581(4) 0.0125(9)
C7_4 C 0.902(1) 0.4837(4) 0.0715(8)
C10_4 C 0.986(1) 0.4630(5) 0.177(1)
H2_4 H 0.7466 0.4364 0.0336
H7_4 H 0.9992 0.4873 0.2294
H8_4 H 0.9541 0.4343 0.1946
Cl1 Cl 0.4654(4) 0.1730(1) 0.8090(3)
O1 O 0.444(1) 0.2236(4) 0.7957(8)
O2 O 0.450(1) 0.1595(5) 0.908(1)
O3 O 0.348(2) 0.1495(5) 0.737(2)
O4 O 0.588(1) 0.1580(4) 0.7851(9)
Cl1_2 Cl 0.4654(4) 0.8270(1) 0.3090(3)
O1_2 O 0.444(1) 0.7764(4) 0.2957(8)
O2_2 O 0.450(1) 0.8405(5) 0.408(1)
O3_2 O 0.348(2) 0.8505(5) 0.237(2)
O4_2 O 0.588(1) 0.8420(4) 0.2851(9)
O4_3 O 0.088(1) 0.6580(4) 0.7851(9)
Cl1_3 Cl 0.9654(4) 0.6730(1) 0.8090(3)
O1_3 O 0.944(1) 0.7236(4) 0.7957(8)
O2_3 O 0.950(1) 0.6595(5) 0.908(1)
O3_3 O 0.848(2) 0.6495(5) 0.737(2)
O4_4 O 0.088(1) 0.3420(4) 0.2851(9)
Cl1_4 Cl 0.9654(4) 0.3270(1) 0.3090(3)
O1_4 O 0.944(1) 0.2764(4) 0.2957(8)
O2_4 O 0.950(1) 0.3405(5) 0.408(1)
O3_4 O 0.848(2) 0.3505(5) 0.237(2)
loop_
_geom_bond_atom_site_label_1
_geom_bond_atom_site_label_2
_geom_bond_site_symmetry_1
_geom_bond_site_symmetry_2
C13 C12 1_555 1_555
H13 C19 1_555 1_555
N4 C18 1_555 1_555
C15 C14 1_555 1_555
C16 C15 1_555 1_555
C18 C15 1_555 1_555
C20 C17 1_555 1_555
H10 C16 1_555 1_555
H14 C20 1_555 1_555
H15 C20 1_555 1_555
H16 C20 1_555 1_555
Cu3 N4 1_555 1_555
C16 C17 1_555 1_555
Cu1 N1 1_555 1_555
N1 C1 1_555 1_555
N3 Cu1 1_555 1_555
C1 C2 1_555 1_555
C11 N3 1_555 1_555
N5 Cu1 1_555 1_555
N6 Cu1 1_555 1_555
N2 C8 1_555 1_555
C3 C4 1_555 1_555
C4 C5 1_555 1_555
C8 C5 1_555 1_555
C9 C4 1_555 1_555
H1 C3 1_555 1_555
H3 C9 1_555 1_555
H4 C9 1_555 1_555
H5 C9 1_555 1_555
Cu3 N2 1_555 1_555
Cu3 N1_2 1_555 1_555
N1_2 C1_2 1_555 1_555
N3_2 Cu3 1_555 1_555
N6 C18_2 1_555 1_555
C11_2 N3_2 1_555 1_555
C12_2 C11_2 1_555 1_555
C13_2 C12_2 1_555 1_555
C14_2 C13_2 1_555 1_555
C15_2 C14_2 1_555 1_555
C16_2 C15_2 1_555 1_555
C17_2 C12_2 1_555 1_555
C18_2 C15_2 1_555 1_555
C19_2 C14_2 1_555 1_555
C20_2 C17_2 1_555 1_555
H9_2 C13_2 1_555 1_555
H10_2 C16_2 1_555 1_555
H11_2 C19_2 1_555 1_555
H12_2 C19_2 1_555 1_555
H13_2 C19_2 1_555 1_555
H14_2 C20_2 1_555 1_555
H15_2 C20_2 1_555 1_555
H16_2 C20_2 1_555 1_555
C16_2 C17_2 1_555 1_555
C3_2 C4_2 1_555 1_555
C9_2 C4_2 1_555 1_555
H1_2 C3_2 1_555 1_555
H3_2 C9_2 1_555 1_555
H4_2 C9_2 1_555 1_555
H5_2 C9_2 1_555 1_555
C6 C7 1_555 1_555
C10 C7 1_555 1_555
H2 C6 1_555 1_555
H6_2 C10 1_555 1_555
H7 C10 1_555 1_555
H8 C10 1_555 1_555
C8_2 C5_2 1_555 1_555
Cu2 N2_2 1_555 1_555
Cu2 N1_3 1_555 1_555
N1_3 C1_3 1_555 1_555
N3_3 Cu2 1_555 1_555
C1_3 C2_2 1_555 1_555
C2_2 C3_3 1_555 1_555
C3_3 C4_3 1_555 1_555
C9_3 C4_3 1_555 1_555
C11_3 N3_3 1_555 1_555
H1_3 C3_3 1_555 1_555
H3_3 C9_3 1_555 1_555
H4_3 C9_3 1_555 1_555
H5_3 C9_3 1_555 1_555
N6_2 Cu2 1_555 1_555
N6_2 C18_3 1_555 1_555
C15_3 C14_3 1_555 1_555
C16_3 C15_3 1_555 1_555
C18_3 C15_3 1_555 1_555
C20_3 C17_3 1_555 1_555
H10_3 C16_3 1_555 1_555
H14_3 C20_3 1_555 1_555
H15_3 C20_3 1_555 1_555
H16_3 C20_3 1_555 1_555
C16_3 C17_3 1_555 1_555
N4_2 C18_4 1_555 1_555
C13_3 C12_3 1_555 1_555
C14_4 C13_3 1_555 1_555
C15_4 C14_4 1_555 1_555
C16_4 C15_4 1_555 1_555
C17_4 C12_3 1_555 1_555
C18_4 C15_4 1_555 1_555
C19_3 C14_4 1_555 1_555
C20_4 C17_4 1_555 1_555
H10_4 C16_4 1_555 1_555
H12_4 C19_3 1_555 1_555
H13_3 C19_3 1_555 1_555
H14_4 C20_4 1_555 1_555
H15_4 C20_4 1_555 1_555
H16_4 C20_4 1_555 1_555
Cu3_2 N4_2 1_555 1_555
C16_4 C17_4 1_555 1_555
Cu3_2 N1_4 1_555 1_555
N1_4 C1_4 1_555 1_555
N3_4 Cu3_2 1_555 1_555
C11_4 N3_4 1_555 1_555
C12_4 C11_4 1_555 1_555
C13_4 C12_4 1_555 1_555
H9_4 C13_4 1_555 1_555
H11_4 C19_4 1_555 1_555
H13_4 C19_4 1_555 1_555
N5_2 Cu3_2 1_555 1_555
N5_2 C8_3 1_555 1_555
C2_3 C3_4 1_555 1_555
C3_4 C4_4 1_555 1_555
C4_4 C5_3 1_555 1_555
C5_3 C6_2 1_555 1_555
C6_2 C7_2 1_555 1_555
C7_2 C2_3 1_555 1_555
C8_3 C5_3 1_555 1_555
C9_4 C4_4 1_555 1_555
C10_2 C7_2 1_555 1_555
H1_4 C3_4 1_555 1_555
H2_2 C6_2 1_555 1_555
H3_4 C9_4 1_555 1_555
H4_4 C9_4 1_555 1_555
H5_4 C9_4 1_555 1_555
H7_2 C10_2 1_555 1_555
H8_2 C10_2 1_555 1_555
C5_4 C6_3 1_555 1_555
C6_3 C7_3 1_555 1_555
C8_4 C5_4 1_555 1_555
C10_3 C7_3 1_555 1_555
H2_3 C6_3 1_555 1_555
H6_4 C10_3 1_555 1_555
H7_3 C10_3 1_555 1_555
H8_3 C10_3 1_555 1_555
C6_4 C7_4 1_555 1_555
C7_4 C2_4 1_555 1_555
C10_4 C7_4 1_555 1_555
H2_4 C6_4 1_555 1_555
H7_4 C10_4 1_555 1_555
H8_4 C10_4 1_555 1_555
Cl1 O1 1_555 1_555
O2 Cl1 1_555 1_555
O3 Cl1 1_555 1_555
O4 Cl1 1_555 1_555
Cl1_2 O1_2 1_555 1_555
O2_2 Cl1_2 1_555 1_555
O3_2 Cl1_2 1_555 1_555
O4_2 Cl1_2 1_555 1_555
Cl1_3 O1_3 1_555 1_555
O2_3 Cl1_3 1_555 1_555
O3_3 Cl1_3 1_555 1_555
Cl1_4 O1_4 1_555 1_555
O2_4 Cl1_4 1_555 1_555
O3_4 Cl1_4 1_555 1_555

#END
