
###############################################################################
#
# This file contains modified crystal structure data generated from the
# MOF subset of the Cambridge Structural Database (CSD) v543 
# hosted by the Cambridge Crystallographic Data Centre (CCDC).
#
# This work is licensed under the Creative Commons
# Attribution-NonCommercial-ShareAlike 4.0 International License.
# To view a copy of this license, visit
# http://creativecommons.org/licenses/by-nc-sa/4.0/
# or send a letter to
# Creative Commons, PO Box 1866, Mountain View, CA 94042, USA.
#
# CIF created using the CSD Python API on 29 September 2022
# The structure has been converted into the P1 space group
# The structure has a 3D framework
# The original CSD entry TOBKEC is in the monoclinic crystal system
# The framework has been calculated to contain at least 10.0% void space
# The void calculation uses a probe of radius 1.32A, grid spacing 0.4
#
###############################################################################

data_TOBKEC
_chemical_formula_moiety         '(C68 H56 Dy4 N4 O28)n'
_symmetry_cell_setting           triclinic
_symmetry_space_group_name_H-M   'P 1'
_symmetry_Int_Tables_number      1
_space_group_name_Hall           'P 1'
loop_
_symmetry_equiv_pos_site_id
_symmetry_equiv_pos_as_xyz
1 x,y,z
_cell_length_a                   6.3462(11)
_cell_length_b                   16.580(3)
_cell_length_c                   24.018(4)
_cell_angle_alpha                90
_cell_angle_beta                 90.683(2)
_cell_angle_gamma                90
_cell_volume                     2526.99
loop_
_atom_site_label
_atom_site_type_symbol
_atom_site_fract_x
_atom_site_fract_y
_atom_site_fract_z
Dy1 Dy 0.26239(6) 0.06217(3) 0.023206(17)
O7 O 0.0290(11) 0.1680(4) 0.0045(3)
O9 O 0.6272(9) 0.0508(4) 0.0294(3)
O12 O 0.3661(10) 0.1367(4) 0.0936(3)
C15 C 0.0196(18) 0.2229(7) 0.9702(5)
H7 H 0.1349 0.2279 0.9456
O10 O 0.3907(9) 0.1168(4) 0.9403(3)
O11 O 0.3229(10) 0.9536(4) 0.0847(3)
C1 C 0.2328(15) 0.9441(6) 0.9322(5)
C2 C 0.2732(15) 0.8991(6) 0.8812(4)
C3 C 0.4711(15) 0.8615(6) 0.8713(4)
C4 C 0.4939(15) 0.8178(7) 0.8208(4)
H1 H 0.6249 0.7925 0.8134
C5 C 0.3326(15) 0.8110(7) 0.7823(4)
C6 C 0.1398(15) 0.8503(7) 0.7924(5)
H2 H 0.0281 0.8470 0.7658
C7 C 0.1137(14) 0.8928(6) 0.8404(4)
C8 C 0.3593(15) 0.7615(7) 0.7313(4)
C9 C 0.1949(15) 0.7133(6) 0.7113(4)
H4 H 0.0616 0.7157 0.7288
C10 C 0.2225(14) 0.6624(6) 0.6667(4)
C11 C 0.4175(14) 0.6596(6) 0.6386(4)
C12 C 0.5777(15) 0.7095(7) 0.6582(4)
H5 H 0.7097 0.7089 0.6399
C13 C 0.5509(16) 0.7601(7) 0.7035(5)
H6 H 0.6633 0.7939 0.7156
C14 C 0.4517(14) 0.6044(6) 0.5912(4)
O1 O 0.0594(9) 0.9810(4) 0.9403(3)
O2 O 0.3728(9) 0.9492(4) 0.9706(3)
O3 O 0.6093(9) 0.6168(4) 0.5597(3)
O4 O 0.3229(10) 0.5464(4) 0.5847(3)
O5 O 0.6339(10) 0.8633(4) 0.9064(3)
O6 O 0.0558(10) 0.6151(5) 0.6513(3)
H14 H 0.0943 0.5820 0.6270
Dy2 Dy 0.73761(6) 0.56217(3) 0.476794(17)
Dy4 Dy 0.73761(6) 0.93783(3) 0.976794(17)
Dy5 Dy 0.26239(6) 0.43783(3) 0.523206(17)
H11 H 0.6952 0.2272 0.0262
H13 H 0.6658 0.3224 0.0185
O8 O 0.9406(9) 0.0190(4) 0.0597(3)
H3 H 0.9830 0.9191 0.8464
H3_2 H 0.0170 0.4191 0.6536
C16 C 0.131(2) 0.8372(7) 0.5782(5)
H8 H 0.0008 0.8350 0.5995
H9 H 0.1429 0.8900 0.5601
H10 H 0.2523 0.8292 0.6034
C17 C 0.3184(16) 0.7709(8) 0.5011(5)
H11_2 H 0.3048 0.7272 0.4738
H12 H 0.4425 0.7614 0.5248
H13_2 H 0.3342 0.8224 0.4815
N1 N 0.1290(14) 0.7736(6) 0.5356(4)
O8_2 O 0.0594(9) 0.5190(4) 0.4403(3)
C1_2 C 0.7672(15) 0.4441(6) 0.5678(5)
C2_2 C 0.7268(15) 0.3991(6) 0.6188(4)
C3_2 C 0.5289(15) 0.3615(6) 0.6287(4)
C4_2 C 0.5061(15) 0.3178(7) 0.6792(4)
H1_2 H 0.3751 0.2925 0.6866
C5_2 C 0.6674(15) 0.3110(7) 0.7177(4)
C6_2 C 0.8602(15) 0.3503(7) 0.7076(5)
H2_2 H 0.9719 0.3470 0.7342
C7_2 C 0.8863(14) 0.3928(6) 0.6596(4)
C8_2 C 0.6407(15) 0.2615(7) 0.7687(4)
C9_2 C 0.8051(15) 0.2133(6) 0.7887(4)
H4_2 H 0.9384 0.2157 0.7712
C10_2 C 0.7775(14) 0.1624(6) 0.8333(4)
C11_2 C 0.5825(14) 0.1596(6) 0.8614(4)
C12_2 C 0.4223(15) 0.2095(7) 0.8418(4)
H5_2 H 0.2903 0.2089 0.8601
C13_2 C 0.4491(16) 0.2601(7) 0.7965(5)
H6_2 H 0.3367 0.2939 0.7844
C14_2 C 0.5483(14) 0.1044(6) 0.9088(4)
C15_2 C 0.9804(18) 0.7229(7) 0.5298(5)
H7_2 H 0.8651 0.7279 0.5544
O1_2 O 0.9406(9) 0.4810(4) 0.5597(3)
O2_2 O 0.6272(9) 0.4492(4) 0.5294(3)
O4_2 O 0.6771(10) 0.0464(4) 0.9153(3)
O5_2 O 0.3661(10) 0.3633(4) 0.5936(3)
O6_2 O 0.9442(10) 0.1151(5) 0.8487(3)
H14_2 H 0.9057 0.0820 0.8730
O7_2 O 0.9710(11) 0.6680(4) 0.4955(3)
O9_2 O 0.3728(9) 0.5508(4) 0.4706(3)
O11_2 O 0.6771(10) 0.4536(4) 0.4153(3)
O12_2 O 0.6339(10) 0.6367(4) 0.4064(3)
H3_3 H 0.0170 0.0809 0.1536
H11_3 H 0.3048 0.7728 0.9738
H13_3 H 0.3342 0.6776 0.9815
C1_3 C 0.7672(15) 0.0559(6) 0.0678(5)
C2_3 C 0.7268(15) 0.1009(6) 0.1188(4)
C3_3 C 0.5289(15) 0.1385(6) 0.1287(4)
C4_3 C 0.5061(15) 0.1822(7) 0.1792(4)
H1_3 H 0.3751 0.2075 0.1866
C5_3 C 0.6674(15) 0.1890(7) 0.2177(4)
C6_3 C 0.8602(15) 0.1497(7) 0.2076(5)
H2_3 H 0.9719 0.1530 0.2342
C7_3 C 0.8863(14) 0.1072(6) 0.1596(4)
C8_3 C 0.6407(15) 0.2385(7) 0.2687(4)
C9_3 C 0.8051(15) 0.2867(6) 0.2887(4)
H4_3 H 0.9384 0.2843 0.2712
C10_3 C 0.7775(14) 0.3376(6) 0.3333(4)
C11_3 C 0.5825(14) 0.3404(6) 0.3614(4)
C12_3 C 0.4223(15) 0.2905(7) 0.3418(4)
H5_3 H 0.2903 0.2911 0.3601
C13_3 C 0.4491(16) 0.2399(7) 0.2965(5)
H6_3 H 0.3367 0.2061 0.2844
C14_3 C 0.5483(14) 0.3956(6) 0.4088(4)
O3_2 O 0.3907(9) 0.3832(4) 0.4403(3)
O6_3 O 0.9442(10) 0.3849(5) 0.3487(3)
H14_3 H 0.9057 0.4180 0.3730
C15_3 C 0.9804(18) 0.7771(7) 0.0298(5)
H7_3 H 0.8651 0.7721 0.0544
O10_2 O 0.6093(9) 0.8832(4) 0.0597(3)
O7_3 O 0.9710(11) 0.8320(4) 0.9955(3)
C1_4 C 0.2328(15) 0.5559(6) 0.4322(5)
C2_4 C 0.2732(15) 0.6009(6) 0.3812(4)
C3_4 C 0.4711(15) 0.6385(6) 0.3713(4)
C4_4 C 0.4939(15) 0.6822(7) 0.3208(4)
H1_4 H 0.6249 0.7075 0.3134
C5_4 C 0.3326(15) 0.6890(7) 0.2823(4)
C6_4 C 0.1398(15) 0.6497(7) 0.2924(5)
H2_4 H 0.0281 0.6530 0.2658
C7_4 C 0.1137(14) 0.6072(6) 0.3404(4)
C8_4 C 0.3593(15) 0.7385(7) 0.2313(4)
C9_4 C 0.1949(15) 0.7867(6) 0.2113(4)
H4_4 H 0.0616 0.7843 0.2288
C10_4 C 0.2225(14) 0.8376(6) 0.1667(4)
C11_4 C 0.4175(14) 0.8404(6) 0.1386(4)
C12_4 C 0.5777(15) 0.7905(7) 0.1582(4)
H5_4 H 0.7097 0.7911 0.1399
C13_4 C 0.5509(16) 0.7399(7) 0.2035(5)
H6_4 H 0.6633 0.7061 0.2156
C14_4 C 0.4517(14) 0.8956(6) 0.0912(4)
C15_4 C 0.0196(18) 0.2771(7) 0.4702(5)
H7_4 H 0.1349 0.2721 0.4456
O6_4 O 0.0558(10) 0.8849(5) 0.1513(3)
H14_4 H 0.0943 0.9180 0.1270
O7_4 O 0.0290(11) 0.3320(4) 0.5045(3)
H3_4 H 0.9830 0.5809 0.3464
C16_2 C 0.869(2) 0.1628(7) 0.4218(5)
H8_2 H 0.9992 0.1650 0.4005
H9_2 H 0.8571 0.1100 0.4399
H10_2 H 0.7477 0.1708 0.3966
C17_2 C 0.6816(16) 0.2291(8) 0.4989(5)
H11_4 H 0.6952 0.2728 0.5262
H12_2 H 0.5575 0.2386 0.4752
H13_4 H 0.6658 0.1776 0.5185
N1_2 N 0.8710(14) 0.2264(6) 0.4644(4)
C16_3 C 0.869(2) 0.3372(7) 0.9218(5)
H8_3 H 0.9992 0.3350 0.9005
H9_3 H 0.8571 0.3900 0.9399
H10_3 H 0.7477 0.3292 0.8966
C17_3 C 0.6816(16) 0.2709(8) 0.9989(5)
H12_3 H 0.5575 0.2614 0.9752
N1_3 N 0.8710(14) 0.2736(6) 0.9644(4)
C16_4 C 0.131(2) 0.6628(7) 0.0782(5)
H8_4 H 0.0008 0.6650 0.0995
H9_4 H 0.1429 0.6100 0.0601
H10_4 H 0.2523 0.6708 0.1034
C17_4 C 0.3184(16) 0.7291(8) 0.0011(5)
H12_4 H 0.4425 0.7386 0.0248
N1_4 N 0.1290(14) 0.7264(6) 0.0356(4)
loop_
_geom_bond_atom_site_label_1
_geom_bond_atom_site_label_2
_geom_bond_site_symmetry_1
_geom_bond_site_symmetry_2
O7 Dy1 1_555 1_555
O9 Dy1 1_555 1_555
O12 Dy1 1_555 1_555
C15 H7 1_555 1_555
C1 C2 1_555 1_555
C2 C3 1_555 1_555
C3 C4 1_555 1_555
C4 H1 1_555 1_555
C5 C4 1_555 1_555
C6 C5 1_555 1_555
H2 C6 1_555 1_555
C7 C2 1_555 1_555
C8 C5 1_555 1_555
C9 C8 1_555 1_555
H4 C9 1_555 1_555
C10 C9 1_555 1_555
C11 C10 1_555 1_555
C12 C11 1_555 1_555
H5 C12 1_555 1_555
C13 C8 1_555 1_555
H6 C13 1_555 1_555
C14 C11 1_555 1_555
O1 C1 1_555 1_555
O3 C14 1_555 1_555
O4 C14 1_555 1_555
O5 C3 1_555 1_555
O6 C10 1_555 1_555
H14 O6 1_555 1_555
Dy2 O3 1_555 1_555
Dy4 O2 1_555 1_555
Dy5 O4 1_555 1_555
C1 O2 1_555 1_555
C6 C7 1_555 1_555
C12 C13 1_555 1_555
O5 Dy4 1_555 1_555
C16 H8 1_555 1_555
H9 C16 1_555 1_555
H10 C16 1_555 1_555
C17 H11_2 1_555 1_555
H12 C17 1_555 1_555
H13_2 C17 1_555 1_555
C16 N1 1_555 1_555
C17 N1 1_555 1_555
Dy5 O8_2 1_555 1_555
Dy2 O1_2 1_555 1_555
C1_2 C2_2 1_555 1_555
C2_2 C3_2 1_555 1_555
C3_2 C4_2 1_555 1_555
C4_2 H1_2 1_555 1_555
C5_2 C4_2 1_555 1_555
C6_2 C5_2 1_555 1_555
H2_2 C6_2 1_555 1_555
C7_2 C2_2 1_555 1_555
C8_2 C5_2 1_555 1_555
C9_2 C8_2 1_555 1_555
H4_2 C9_2 1_555 1_555
C10_2 C9_2 1_555 1_555
C11_2 C10_2 1_555 1_555
C12_2 C11_2 1_555 1_555
H5_2 C12_2 1_555 1_555
C13_2 C8_2 1_555 1_555
H6_2 C13_2 1_555 1_555
C14_2 C11_2 1_555 1_555
C15_2 H7_2 1_555 1_555
O1_2 C1_2 1_555 1_555
O2_2 Dy2 1_555 1_555
O10 C14_2 1_555 1_555
O4_2 C14_2 1_555 1_555
O5_2 C3_2 1_555 1_555
O6_2 C10_2 1_555 1_555
H14_2 O6_2 1_555 1_555
O7_2 Dy2 1_555 1_555
Dy5 O2_2 1_555 1_555
O9_2 Dy2 1_555 1_555
O11_2 Dy2 1_555 1_555
O12_2 Dy2 1_555 1_555
C1_2 O2_2 1_555 1_555
C6_2 C7_2 1_555 1_555
C12_2 C13_2 1_555 1_555
C15_2 O7_2 1_555 1_555
O5_2 Dy5 1_555 1_555
Dy5 O9_2 1_555 1_555
C1_3 C2_3 1_555 1_555
C2_3 C3_3 1_555 1_555
C3_3 C4_3 1_555 1_555
C4_3 H1_3 1_555 1_555
C5_3 C4_3 1_555 1_555
C6_3 C5_3 1_555 1_555
H2_3 C6_3 1_555 1_555
C7_3 C2_3 1_555 1_555
C8_3 C5_3 1_555 1_555
C9_3 C8_3 1_555 1_555
H4_3 C9_3 1_555 1_555
C10_3 C9_3 1_555 1_555
C11_3 C10_3 1_555 1_555
C12_3 C11_3 1_555 1_555
H5_3 C12_3 1_555 1_555
C13_3 C8_3 1_555 1_555
H6_3 C13_3 1_555 1_555
C14_3 C11_3 1_555 1_555
O8 C1_3 1_555 1_555
O3_2 C14_3 1_555 1_555
O11_2 C14_3 1_555 1_555
O12 C3_3 1_555 1_555
O6_3 C10_3 1_555 1_555
H14_3 O6_3 1_555 1_555
Dy5 O3_2 1_555 1_555
C1_3 O9 1_555 1_555
C6_3 C7_3 1_555 1_555
C12_3 C13_3 1_555 1_555
C15_3 H7_3 1_555 1_555
O7_3 Dy4 1_555 1_555
C1_4 C2_4 1_555 1_555
C2_4 C3_4 1_555 1_555
C3_4 C4_4 1_555 1_555
C4_4 H1_4 1_555 1_555
C5_4 C4_4 1_555 1_555
C6_4 C5_4 1_555 1_555
H2_4 C6_4 1_555 1_555
C7_4 C2_4 1_555 1_555
C8_4 C5_4 1_555 1_555
C9_4 C8_4 1_555 1_555
H4_4 C9_4 1_555 1_555
C10_4 C9_4 1_555 1_555
C11_4 C10_4 1_555 1_555
C12_4 C11_4 1_555 1_555
H5_4 C12_4 1_555 1_555
C13_4 C8_4 1_555 1_555
H6_4 C13_4 1_555 1_555
C14_4 C11_4 1_555 1_555
C15_4 H7_4 1_555 1_555
O8_2 C1_4 1_555 1_555
O10_2 C14_4 1_555 1_555
O11 C14_4 1_555 1_555
O12_2 C3_4 1_555 1_555
O6_4 C10_4 1_555 1_555
H14_4 O6_4 1_555 1_555
O7_4 Dy5 1_555 1_555
C1_4 O9_2 1_555 1_555
C6_4 C7_4 1_555 1_555
C12_4 C13_4 1_555 1_555
C15_4 O7_4 1_555 1_555
C16_2 H8_2 1_555 1_555
H9_2 C16_2 1_555 1_555
H10_2 C16_2 1_555 1_555
C17_2 H11_4 1_555 1_555
H12_2 C17_2 1_555 1_555
H13_4 C17_2 1_555 1_555
C16_2 N1_2 1_555 1_555
C17_2 N1_2 1_555 1_555
C16_3 H8_3 1_555 1_555
H9_3 C16_3 1_555 1_555
H10_3 C16_3 1_555 1_555
H12_3 C17_3 1_555 1_555
C16_3 N1_3 1_555 1_555
C17_3 N1_3 1_555 1_555
C16_4 H8_4 1_555 1_555
H9_4 C16_4 1_555 1_555
H10_4 C16_4 1_555 1_555
H12_4 C17_4 1_555 1_555
C16_4 N1_4 1_555 1_555
C17_4 N1_4 1_555 1_555

#END
