
###############################################################################
#
# This file contains modified crystal structure data generated from the
# MOF subset of the Cambridge Structural Database (CSD) v543 
# hosted by the Cambridge Crystallographic Data Centre (CCDC).
#
# This work is licensed under the Creative Commons
# Attribution-NonCommercial-ShareAlike 4.0 International License.
# To view a copy of this license, visit
# http://creativecommons.org/licenses/by-nc-sa/4.0/
# or send a letter to
# Creative Commons, PO Box 1866, Mountain View, CA 94042, USA.
#
# CIF created using the CSD Python API on 29 September 2022
# The structure has been converted into the P1 space group
# The structure has a 3D framework
# The original CSD entry TOCKAA is in the monoclinic crystal system
# The framework has been calculated to contain at least 10.0% void space
# The void calculation uses a probe of radius 1.32A, grid spacing 0.4
#
###############################################################################

data_TOCKAA
_chemical_formula_moiety         '(C104 H64 Cd6 N24 O32)n'
_symmetry_cell_setting           triclinic
_symmetry_space_group_name_H-M   'P 1'
_symmetry_Int_Tables_number      1
_space_group_name_Hall           'P 1'
loop_
_symmetry_equiv_pos_site_id
_symmetry_equiv_pos_as_xyz
1 x,y,z
_cell_length_a                   14.180(13)
_cell_length_b                   12.569(10)
_cell_length_c                   18.655(16)
_cell_angle_alpha                90
_cell_angle_beta                 117.083(7)
_cell_angle_gamma                90
_cell_volume                     2960.27
loop_
_atom_site_label
_atom_site_type_symbol
_atom_site_fract_x
_atom_site_fract_y
_atom_site_fract_z
N9 N 0.07227(19) 0.15583(19) 0.12076(14)
N10 N 0.07051(19) 0.2902(2) 0.19685(15)
C34 C 0.1741(3) 0.2658(3) 0.21561(18)
H23 H 0.2332 0.3007 0.2542
C35 C 0.1771(2) 0.1846(3) 0.17030(18)
H24 H 0.2373 0.1535 0.1716
C36 C 0.0354(2) 0.0762(3) 0.05936(17)
C38 C 0.0141(2) 0.2228(3) 0.14118(18)
Cd4 Cd 0.0000 0.40690(2) 0.2500
C3 C 0.0936(3) 0.0147(3) 0.56844(18)
H2 H 0.1568 0.0244 0.6150
C18 C 0.0590(3) 0.0919(2) 0.50896(19)
H15 H 0.0944(9) 0.1532(7) 0.5055(11)
H25 H 0.0595 0.2208 0.3825
C1 C 0.2708(3) 0.5862(2) 0.3998(2)
O1 O 0.88305(17) 0.9618(2) 0.67087(17)
C4 C 0.7036(2) 0.9242(3) 0.63059(19)
O2 O 0.12591(18) 0.54012(19) 0.27519(15)
C7 C 0.1777(2) 0.5146(3) 0.34755(18)
O4 O 0.15437(17) 0.4376(2) 0.37673(13)
C11 C 0.5268(3) 0.7928(3) 0.5497(2)
C14 C 0.2899(3) 0.6778(3) 0.3720(2)
H8 H 0.2473 0.6965 0.3186
C15 C 0.6989(3) 0.8548(3) 0.5741(3)
H9 H 0.7567 0.8495 0.5634
C16 C 0.8040(2) 0.9878(3) 0.68068(18)
C17 C 0.4349(2) 0.7203(3) 0.5016(2)
C19 C 0.4187(3) 0.6207(4) 0.5277(2)
O5 O 0.3707(3) 0.8274(5) 0.5999(3)
C20 C 0.6173(3) 0.9329(3) 0.6475(2)
H10 H 0.6178 0.9805 0.6858
C22 C 0.5304(2) 0.8669(3) 0.6042(2)
C23 C 0.3718(3) 0.7460(4) 0.4206(2)
H12 H 0.3843 0.8083 0.3993
C24 C 0.3349(3) 0.5559(3) 0.4795(2)
H13 H 0.3215 0.4933 0.4998
N5 N 0.4859(3) 0.5827(4) 0.6097(2)
N6 N 0.4420(3) 0.8741(4) 0.6249(3)
C25 C 0.6123(3) 0.7918(4) 0.5316(2)
H14 H 0.6104 0.7482 0.4907
O6 O 0.4366(3) 0.9513(5) 0.6576(3)
O7 O 0.5601(4) 0.6293(4) 0.6540(2)
O8 O 0.4725(5) 0.4958(5) 0.6308(3)
C33 C 0.0936(3) 0.9853(3) 0.06844(18)
H22 H 0.1568 0.9756 0.1150
C37 C 0.0590(3) 0.9081(2) 0.00896(19)
H26 H 0.0944(9) 0.8468(7) 0.0055(11)
Cd1 Cd 0.0000 0.59310(2) 0.7500
H11 H 0.0595 0.7792 0.8825
N14 N 0.07051(19) 0.7098(2) 0.69685(15)
O17 O 0.12591(18) 0.45988(19) 0.77519(15)
O18 O 0.15437(17) 0.5624(2) 0.87673(13)
C39 C 0.2708(3) 0.4138(2) 0.8998(2)
C41 C 0.1777(2) 0.4854(3) 0.84755(18)
C43 C 0.2899(3) 0.3222(3) 0.8720(2)
H27 H 0.2473 0.3035 0.8186
C50 C 0.3718(3) 0.2540(4) 0.9206(2)
H30 H 0.3843 0.1917 0.8993
C51 C 0.3349(3) 0.4441(3) 0.9795(2)
H31 H 0.3215 0.5067 0.9998
H32 H 0.6104 0.2518 0.9907
N2 N 0.07227(19) 0.84417(19) 0.62076(14)
C5 C 0.1741(3) 0.7342(3) 0.71561(18)
H3 H 0.2332 0.6993 0.7542
C9 C 0.1771(2) 0.8154(3) 0.67030(18)
H5 H 0.2373 0.8465 0.6716
C10 C 0.0354(2) 0.9238(3) 0.55936(17)
C21 C 0.0141(2) 0.7772(3) 0.64118(18)
H25_2 H 0.9405 0.2208 0.1175
Cd4_2 Cd 1.0000 0.40690(2) 0.2500
N9_2 N 0.92773(19) 0.15583(19) 0.37924(14)
N10_2 N 0.92949(19) 0.2902(2) 0.30315(15)
C34_2 C 0.8259(3) 0.2658(3) 0.28439(18)
H23_2 H 0.7668 0.3007 0.2458
C35_2 C 0.8229(2) 0.1846(3) 0.32970(18)
H24_2 H 0.7627 0.1535 0.3284
C36_2 C 0.9646(2) 0.0762(3) 0.44064(17)
C38_2 C 0.9859(2) 0.2228(3) 0.35882(18)
C39_2 C 0.7292(3) 0.5862(2) 0.1002(2)
O10 O 0.87409(18) 0.54012(19) 0.22481(15)
C41_2 C 0.8223(2) 0.5146(3) 0.15245(18)
O12 O 0.84563(17) 0.4376(2) 0.12327(13)
C43_2 C 0.7101(3) 0.6778(3) 0.1280(2)
H27_2 H 0.7527 0.6965 0.1814
C50_2 C 0.6282(3) 0.7460(4) 0.0794(2)
H30_2 H 0.6157 0.8083 0.1007
C51_2 C 0.6651(3) 0.5559(3) 0.0205(2)
H31_2 H 0.6785 0.4933 0.0002
H32_2 H 0.3896 0.7482 0.0093
C3_2 C 0.9064(3) 0.0147(3) 0.93156(18)
H2_2 H 0.8432 0.0244 0.8850
C18_2 C 0.9410(3) 0.0919(2) 0.99104(19)
H15_2 H 0.9056(9) 0.1532(7) 0.9945(11)
Cd1_2 Cd 1.0000 0.59310(2) 0.7500
N2_2 N 0.92773(19) 0.84417(19) 0.87924(14)
C1_2 C 0.7292(3) 0.4138(2) 0.6002(2)
O1_2 O 0.11695(17) 0.0382(2) 0.32913(17)
N4 N 0.92949(19) 0.7098(2) 0.80315(15)
C4_2 C 0.2964(2) 0.0758(3) 0.36941(19)
C5_2 C 0.8259(3) 0.7342(3) 0.78439(18)
H3_2 H 0.7668 0.6993 0.7458
O2_2 O 0.87409(18) 0.45988(19) 0.72481(15)
C7_2 C 0.8223(2) 0.4854(3) 0.65245(18)
O4_2 O 0.84563(17) 0.5624(2) 0.62327(13)
C9_2 C 0.8229(2) 0.8154(3) 0.82970(18)
H5_2 H 0.7627 0.8465 0.8284
C10_2 C 0.9646(2) 0.9238(3) 0.94064(17)
C11_2 C 0.4732(3) 0.2072(3) 0.4503(2)
C14_2 C 0.7101(3) 0.3222(3) 0.6280(2)
H8_2 H 0.7527 0.3035 0.6814
C15_2 C 0.3011(3) 0.1452(3) 0.4259(3)
H9_2 H 0.2433 0.1505 0.4366
C16_2 C 0.1960(2) 0.0122(3) 0.31932(18)
C17_2 C 0.5651(2) 0.2797(3) 0.4984(2)
C19_2 C 0.5813(3) 0.3793(4) 0.4723(2)
O5_2 O 0.6293(3) 0.1726(5) 0.4001(3)
C20_2 C 0.3827(3) 0.0671(3) 0.3525(2)
H10_2 H 0.3822 0.0195 0.3142
C21_2 C 0.9859(2) 0.7772(3) 0.85882(18)
C22_2 C 0.4696(2) 0.1331(3) 0.3958(2)
C23_2 C 0.6282(3) 0.2540(4) 0.5794(2)
H12_2 H 0.6157 0.1917 0.6007
C24_2 C 0.6651(3) 0.4441(3) 0.5205(2)
H13_2 H 0.6785 0.5067 0.5002
N5_2 N 0.5141(3) 0.4173(4) 0.3903(2)
N6_2 N 0.5580(3) 0.1259(4) 0.3751(3)
C25_2 C 0.3877(3) 0.2082(4) 0.4684(2)
H14_2 H 0.3896 0.2518 0.5093
O6_2 O 0.5634(3) 0.0487(5) 0.3424(3)
O7_2 O 0.4399(4) 0.3707(4) 0.3460(2)
O8_2 O 0.5275(5) 0.5042(5) 0.3692(3)
H11_2 H 0.9405 0.7792 0.6175
C33_2 C 0.9064(3) 0.9853(3) 0.43156(18)
H22_2 H 0.8432 0.9756 0.3850
C37_2 C 0.9410(3) 0.9081(2) 0.49104(19)
H26_2 H 0.9056(9) 0.8468(7) 0.4945(11)
Cd2 Cd -0.0000 0.91701(2) 0.2500
N1 N 0.05582(19) 0.6788(2) 0.43719(14)
N3 N 0.0481(2) 0.8083(2) 0.35604(14)
C2 C 0.1415(2) 0.7475(3) 0.48110(19)
H1 H 0.1924 0.7406 0.5344
O3 O 0.19603(16) 0.9402(2) 0.27408(14)
C6 C 0.0281(2) 0.5864(2) 0.46784(17)
C8 C 0.0057(2) 0.7196(3) 0.36211(17)
C12 C 0.0953(3) 0.5492(4) 0.5430(2)
H6 H 0.1603 0.5823 0.5726
C13 C 0.1333(3) 0.8259(3) 0.42845(19)
H7 H 0.1794 0.8833 0.4402
C26 C 0.0676(3) 0.4629(3) 0.5753(2)
H16 H 0.1290(8) 0.4244(11) 0.6070(15)
H18 H 0.0522 0.3121 0.6801
Cd5 Cd 0.0000 0.08299(2) 0.7500
H4 H 0.0522 0.6879 0.1801
H17 H 0.1924 0.2594 0.0344
C30 C 0.0953(3) 0.4508(4) 0.0430(2)
H19 H 0.1603 0.4177 0.0726
C32 C 0.0676(3) 0.5371(3) 0.0753(2)
H21 H 0.1290(8) 0.5756(11) 0.1070(15)
N7 N 0.05582(19) 0.3212(2) 0.93719(14)
N8 N 0.0481(2) 0.1917(2) 0.85604(14)
C27 C 0.1415(2) 0.2525(3) 0.98110(19)
C28 C 0.0281(2) 0.4136(2) 0.96784(17)
C29 C 0.0057(2) 0.2804(3) 0.86211(17)
C31 C 0.1333(3) 0.1741(3) 0.92845(19)
H20 H 0.1794 0.1167 0.9402
O11 O 0.19603(16) 0.0598(2) 0.77408(14)
O9 O 0.88305(17) 0.0382(2) 0.17087(17)
C40 C 0.7036(2) 0.0758(3) 0.13059(19)
C42 C 0.5268(3) 0.2072(3) 0.0497(2)
C44 C 0.6989(3) 0.1452(3) 0.0741(3)
H28 H 0.7567 0.1505 0.0634
C45 C 0.8040(2) 0.0122(3) 0.18068(18)
C46 C 0.4349(2) 0.2797(3) 0.0016(2)
C47 C 0.4187(3) 0.3793(4) 0.0277(2)
O13 O 0.3707(3) 0.1726(5) 0.0999(3)
C48 C 0.6173(3) 0.0671(3) 0.1475(2)
H29 H 0.6178 0.0195 0.1858
C49 C 0.5304(2) 0.1331(3) 0.1042(2)
N11 N 0.4859(3) 0.4173(4) 0.1097(2)
N12 N 0.4420(3) 0.1259(4) 0.1249(3)
C52 C 0.6123(3) 0.2082(4) 0.0316(2)
O14 O 0.4366(3) 0.0487(5) 0.1576(3)
O15 O 0.5601(4) 0.3707(4) 0.1540(2)
O16 O 0.4725(5) 0.5042(5) 0.1308(3)
Cd2_2 Cd 1.0000 0.91701(2) 0.2500
H4_2 H 0.9478 0.6879 0.3199
N7_2 N 0.94418(19) 0.3212(2) 0.56281(14)
N8_2 N 0.9519(2) 0.1917(2) 0.64396(14)
C27_2 C 0.8585(2) 0.2525(3) 0.51890(19)
H17_2 H 0.8076 0.2594 0.4656
C28_2 C 0.9719(2) 0.4136(2) 0.53216(17)
C29_2 C 0.9943(2) 0.2804(3) 0.63789(17)
C30_2 C 0.9047(3) 0.4508(4) 0.4570(2)
H19_2 H 0.8397 0.4177 0.4274
C31_2 C 0.8667(3) 0.1741(3) 0.57155(19)
H20_2 H 0.8206 0.1167 0.5598
C32_2 C 0.9324(3) 0.5371(3) 0.4247(2)
H21_2 H 0.8710(8) 0.5756(11) 0.3930(15)
O11_2 O 0.80397(16) 0.9402(2) 0.22592(14)
Cd5_2 Cd 1.0000 0.08299(2) 0.7500
N13 N 0.9519(2) 0.8083(2) 0.14396(14)
N1_2 N 0.94418(19) 0.6788(2) 0.06281(14)
C2_2 C 0.8585(2) 0.7475(3) 0.01890(19)
C6_2 C 0.9719(2) 0.5864(2) 0.03216(17)
C8_2 C 0.9943(2) 0.7196(3) 0.13789(17)
C13_2 C 0.8667(3) 0.8259(3) 0.07155(19)
H7_2 H 0.8206 0.8833 0.0598
H1_2 H 0.8076 0.7406 0.9656
C12_2 C 0.9047(3) 0.5492(4) 0.9570(2)
H6_2 H 0.8397 0.5823 0.9274
C26_2 C 0.9324(3) 0.4629(3) 0.9247(2)
H16_2 H 0.8710(8) 0.4244(11) 0.8930(15)
H18_2 H 0.9478 0.3121 0.8199
O3_2 O 0.80397(16) 0.0598(2) 0.72592(14)
O9_2 O 0.11695(17) 0.9618(2) 0.82913(17)
C40_2 C 0.2964(2) 0.9242(3) 0.86941(19)
C42_2 C 0.4732(3) 0.7928(3) 0.9503(2)
C44_2 C 0.3011(3) 0.8548(3) 0.9259(3)
H28_2 H 0.2433 0.8495 0.9366
C45_2 C 0.1960(2) 0.9878(3) 0.81932(18)
C46_2 C 0.5651(2) 0.7203(3) 0.9984(2)
C47_2 C 0.5813(3) 0.6207(4) 0.9723(2)
O13_2 O 0.6293(3) 0.8274(5) 0.9001(3)
C48_2 C 0.3827(3) 0.9329(3) 0.8525(2)
H29_2 H 0.3822 0.9805 0.8142
C49_2 C 0.4696(2) 0.8669(3) 0.8958(2)
N11_2 N 0.5141(3) 0.5827(4) 0.8903(2)
N12_2 N 0.5580(3) 0.8741(4) 0.8751(3)
C52_2 C 0.3877(3) 0.7918(4) 0.9684(2)
O14_2 O 0.5634(3) 0.9513(5) 0.8424(3)
O15_2 O 0.4399(4) 0.6293(4) 0.8460(2)
O16_2 O 0.5275(5) 0.4958(5) 0.8692(3)
loop_
_geom_bond_atom_site_label_1
_geom_bond_atom_site_label_2
_geom_bond_site_symmetry_1
_geom_bond_site_symmetry_2
N9 C35 1_555 1_555
N10 C34 1_555 1_555
C34 H23 1_555 1_555
C35 C34 1_555 1_555
H24 C35 1_555 1_555
C38 N9 1_555 1_555
Cd4 N10 1_555 1_555
N9 C36 1_555 1_555
N10 C38 1_555 1_555
C3 H2 1_555 1_555
C18 C3 1_555 1_555
H15 C18 1_555 1_555
C1 C7 1_555 1_555
O1 C16 1_555 1_555
C4 C15 1_555 1_555
O2 Cd4 1_555 1_555
C7 O2 1_555 1_555
O4 Cd4 1_555 1_555
C11 C17 1_555 1_555
C14 C1 1_555 1_555
H8 C14 1_555 1_555
C15 H9 1_555 1_555
C16 C4 1_555 1_555
C17 C19 1_555 1_555
C19 C24 1_555 1_555
O5 N6 1_555 1_555
C20 C4 1_555 1_555
H10 C20 1_555 1_555
C22 C11 1_555 1_555
C23 C14 1_555 1_555
H12 C23 1_555 1_555
C24 C1 1_555 1_555
H13 C24 1_555 1_555
N5 C19 1_555 1_555
N6 C22 1_555 1_555
C25 C11 1_555 1_555
H14 C25 1_555 1_555
O6 N6 1_555 1_555
O7 N5 1_555 1_555
O8 N5 1_555 1_555
C7 O4 1_555 1_555
C15 C25 1_555 1_555
C17 C23 1_555 1_555
C20 C22 1_555 1_555
C33 H22 1_555 1_555
H26 C37 1_555 1_555
C33 C37 1_555 1_555
N14 Cd1 1_555 1_555
O17 Cd1 1_555 1_555
O18 Cd1 1_555 1_555
C39 C41 1_555 1_555
O17 C41 1_555 1_555
C41 O18 1_555 1_555
C43 C39 1_555 1_555
H27 C43 1_555 1_555
C50 C43 1_555 1_555
H30 C50 1_555 1_555
C51 C39 1_555 1_555
H31 C51 1_555 1_555
N2 C9 1_555 1_555
N14 C5 1_555 1_555
C5 H3 1_555 1_555
C9 C5 1_555 1_555
H5 C9 1_555 1_555
C10 N2 1_555 1_555
C21 N2 1_555 1_555
N14 C21 1_555 1_555
N9_2 C35_2 1_555 1_555
N10_2 C34_2 1_555 1_555
C34_2 H23_2 1_555 1_555
C35_2 C34_2 1_555 1_555
H24_2 C35_2 1_555 1_555
C38_2 N9_2 1_555 1_555
Cd4_2 N10_2 1_555 1_555
N9_2 C36_2 1_555 1_555
N10_2 C38_2 1_555 1_555
C39_2 C41_2 1_555 1_555
O10 C41_2 1_555 1_555
C41_2 O12 1_555 1_555
O12 Cd4_2 1_555 1_555
C43_2 C39_2 1_555 1_555
H27_2 C43_2 1_555 1_555
C50_2 C43_2 1_555 1_555
H30_2 C50_2 1_555 1_555
C51_2 C39_2 1_555 1_555
H31_2 C51_2 1_555 1_555
Cd4_2 O10 1_555 1_555
C3_2 H2_2 1_555 1_555
C18_2 C3_2 1_555 1_555
H15_2 C18_2 1_555 1_555
Cd1_2 N4 1_555 1_555
N2_2 C9_2 1_555 1_555
C1_2 C7_2 1_555 1_555
O1_2 C16_2 1_555 1_555
N4 C5_2 1_555 1_555
C4_2 C15_2 1_555 1_555
C5_2 H3_2 1_555 1_555
O2_2 Cd1_2 1_555 1_555
C7_2 O2_2 1_555 1_555
O4_2 Cd1_2 1_555 1_555
C9_2 C5_2 1_555 1_555
H5_2 C9_2 1_555 1_555
C10_2 N2_2 1_555 1_555
C11_2 C17_2 1_555 1_555
C14_2 C1_2 1_555 1_555
H8_2 C14_2 1_555 1_555
C15_2 H9_2 1_555 1_555
C16_2 C4_2 1_555 1_555
C17_2 C19_2 1_555 1_555
C19_2 C24_2 1_555 1_555
O5_2 N6_2 1_555 1_555
C20_2 C4_2 1_555 1_555
H10_2 C20_2 1_555 1_555
C21_2 N2_2 1_555 1_555
C22_2 C11_2 1_555 1_555
C23_2 C14_2 1_555 1_555
H12_2 C23_2 1_555 1_555
C24_2 C1_2 1_555 1_555
H13_2 C24_2 1_555 1_555
N5_2 C19_2 1_555 1_555
N6_2 C22_2 1_555 1_555
C25_2 C11_2 1_555 1_555
H14_2 C25_2 1_555 1_555
O6_2 N6_2 1_555 1_555
O7_2 N5_2 1_555 1_555
O8_2 N5_2 1_555 1_555
N4 C21_2 1_555 1_555
C7_2 O4_2 1_555 1_555
C15_2 C25_2 1_555 1_555
C17_2 C23_2 1_555 1_555
C20_2 C22_2 1_555 1_555
C33_2 H22_2 1_555 1_555
H26_2 C37_2 1_555 1_555
C33_2 C37_2 1_555 1_555
N1 C2 1_555 1_555
N3 Cd2 1_555 1_555
C2 H1 1_555 1_555
O3 Cd2 1_555 1_555
C6 N1 1_555 1_555
C8 N1 1_555 1_555
C12 C6 1_555 1_555
H6 C12 1_555 1_555
C13 N3 1_555 1_555
H7 C13 1_555 1_555
C26 C12 1_555 1_555
H16 C26 1_555 1_555
N3 C8 1_555 1_555
C2 C13 1_555 1_555
H19 C30 1_555 1_555
H21 C32 1_555 1_555
C30 C32 1_555 1_555
N7 C27 1_555 1_555
N8 C29 1_555 1_555
C29 N7 1_555 1_555
C31 N8 1_555 1_555
H20 C31 1_555 1_555
Cd5 N8 1_555 1_555
N7 C28 1_555 1_555
C27 C31 1_555 1_555
O11 Cd5 1_555 1_555
C40 C44 1_555 1_555
C42 C46 1_555 1_555
C44 H28 1_555 1_555
C45 O9 1_555 1_555
C46 C47 1_555 1_555
O13 N12 1_555 1_555
C48 C40 1_555 1_555
H29 C48 1_555 1_555
C49 C42 1_555 1_555
N11 C47 1_555 1_555
N12 C49 1_555 1_555
C52 C42 1_555 1_555
O14 N12 1_555 1_555
O15 N11 1_555 1_555
O16 N11 1_555 1_555
C40 C45 1_555 1_555
C44 C52 1_555 1_555
C48 C49 1_555 1_555
N7_2 C27_2 1_555 1_555
N8_2 C29_2 1_555 1_555
C27_2 H17_2 1_555 1_555
C29_2 N7_2 1_555 1_555
C30_2 C28_2 1_555 1_555
H19_2 C30_2 1_555 1_555
C31_2 N8_2 1_555 1_555
H20_2 C31_2 1_555 1_555
H21_2 C32_2 1_555 1_555
O11_2 Cd2_2 1_555 1_555
Cd5_2 N8_2 1_555 1_555
N13 Cd2_2 1_555 1_555
N7_2 C28_2 1_555 1_555
C27_2 C31_2 1_555 1_555
C30_2 C32_2 1_555 1_555
N1_2 C2_2 1_555 1_555
C6_2 N1_2 1_555 1_555
C8_2 N1_2 1_555 1_555
C13_2 N13 1_555 1_555
H7_2 C13_2 1_555 1_555
N13 C8_2 1_555 1_555
C2_2 C13_2 1_555 1_555
H6_2 C12_2 1_555 1_555
C26_2 C12_2 1_555 1_555
H16_2 C26_2 1_555 1_555
O3_2 Cd5_2 1_555 1_555
C40_2 C44_2 1_555 1_555
C42_2 C46_2 1_555 1_555
C44_2 H28_2 1_555 1_555
C45_2 O9_2 1_555 1_555
C46_2 C47_2 1_555 1_555
O13_2 N12_2 1_555 1_555
C48_2 C40_2 1_555 1_555
H29_2 C48_2 1_555 1_555
C49_2 C42_2 1_555 1_555
N11_2 C47_2 1_555 1_555
N12_2 C49_2 1_555 1_555
C52_2 C42_2 1_555 1_555
O14_2 N12_2 1_555 1_555
O15_2 N11_2 1_555 1_555
O16_2 N11_2 1_555 1_555
C40_2 C45_2 1_555 1_555
C44_2 C52_2 1_555 1_555
C48_2 C49_2 1_555 1_555

#END
