
###############################################################################
#
# This file contains modified crystal structure data generated from the
# MOF subset of the Cambridge Structural Database (CSD) v543 
# hosted by the Cambridge Crystallographic Data Centre (CCDC).
#
# This work is licensed under the Creative Commons
# Attribution-NonCommercial-ShareAlike 4.0 International License.
# To view a copy of this license, visit
# http://creativecommons.org/licenses/by-nc-sa/4.0/
# or send a letter to
# Creative Commons, PO Box 1866, Mountain View, CA 94042, USA.
#
# CIF created using the CSD Python API on 29 September 2022
# The structure has been converted into the P1 space group
# The structure has a 3D framework
# The original CSD entry TOCNUX is in the triclinic crystal system
# The framework has been calculated to contain at least 10.0% void space
# The void calculation uses a probe of radius 1.32A, grid spacing 0.4
# H atom positions have been added when not included in the experimental data
# Generated hydrogen atom positions removed from atoms on special positions
#
###############################################################################

data_TOCNUX
_chemical_formula_moiety         '(C36 H56 Cr10 Cu4 Mo12 N12 O50)n'
_symmetry_cell_setting           triclinic
_symmetry_space_group_name_H-M   'P 1'
_symmetry_Int_Tables_number      1
_space_group_name_Hall           'P 1'
loop_
_symmetry_equiv_pos_site_id
_symmetry_equiv_pos_as_xyz
1 x,y,z
_cell_length_a                   12.980(5)
_cell_length_b                   13.542(5)
_cell_length_c                   15.452(5)
_cell_angle_alpha                83.793(5)
_cell_angle_beta                 67.491(5)
_cell_angle_gamma                76.314(5)
_cell_volume                     2437.46
loop_
_atom_site_label
_atom_site_type_symbol
_atom_site_fract_x
_atom_site_fract_y
_atom_site_fract_z
H24 H 0.4982 0.0284 0.6989
H25 H 0.6826 0.0364 0.6058
Cr1 Cr 0.0000 0.0000 0.0000
Cr2 Cr 0.0000 0.5000 0.0000
O19 O 0.1381(9) 0.5000(8) 0.0251(8)
O28 O 0.411(3) 0.416(5) 0.102(3)
Cu2 Cu 0.5000 0.5000 0.0000
O55 O 0.433(2) 0.608(4) 0.088(3)
Mo17 Mo 0.07170(11) 0.61624(10) 0.13807(9)
O63 O 0.6521(11) 0.4317(10) 0.0679(12)
O69 O 0.1201(10) 0.6874(8) 0.0210(8)
Mo1 Mo 0.15357(11) 0.49240(10) 0.76966(9)
Cu1 Cu 0.16832(16) 0.23645(15) 0.68847(12)
Cr1_2 Cr 0.0000 0.0000 1.0000
N1 N 0.4925(12) 0.1955(12) 0.4976(11)
C1 C 0.542(2) 0.3920(17) 0.4128(18)
H1 H 0.5652 0.4344 0.3569
H2 H 0.4653 0.3844 0.4241
Mo2 Mo 0.23072(11) 0.08911(11) 0.87100(9)
Cr2_2 Cr 0.0000 0.5000 1.0000
N2 N 0.4071(12) 0.2302(11) 0.5760(10)
C2 C 0.2945(18) 0.0640(17) 0.4892(15)
H3 H 0.2192 0.0620 0.5263
N3 N 0.3217(11) 0.1908(11) 0.5826(10)
C3 C 0.082(2) 0.4313(18) 0.3860(16)
H4 H 0.0406 0.4325 0.3483
N4 N 0.1006(12) 0.2938(10) 0.5941(10)
C4 C 0.029(3) 0.1194(19) 0.4176(18)
H5 H 0.0923 0.1305 0.4317
H6 H 0.0613 0.0836 0.3589
Mo5 Mo 0.23007(12) 0.60530(11) 0.91009(9)
N5 N 0.0173(14) 0.2597(12) 0.5850(12)
C5 C 0.467(2) 0.010(2) 0.3553(18)
N6 N 0.0001(15) 0.3021(11) 0.5112(12)
C6 C 0.2166(17) 0.4213(15) 0.4986(13)
H8 H 0.2608 0.4174 0.5346
C7 C 0.3529(15) 0.1260(13) 0.5106(11)
C8 C 0.228(2) 0.4863(19) 0.4215(16)
H9 H 0.2807 0.5275 0.4049
C9 C 0.1363(15) 0.3626(13) 0.5191(11)
O10 O 0.2364(10) 0.1802(10) 0.7817(9)
C10 C 0.0697(18) 0.3685(16) 0.4650(14)
O11 O 0.3583(12) 0.0564(9) 0.8726(9)
O12 O 0.0162(10) 0.2807(10) 0.7909(9)
C12 C 0.4675(15) 0.1277(12) 0.4540(12)
O13 O 0.2220(10) 0.3829(9) 0.7057(8)
C13 C 0.160(2) 0.4910(19) 0.3677(16)
H12 H 0.1681 0.5370 0.3175
O14 O 0.3479(11) 0.5683(10) 0.9321(12)
C14 C 0.3534(19) 0.0060(17) 0.4108(15)
O15 O 0.0616(9) 0.5940(8) 0.8964(8)
H15 H 0.0057 0.2545 0.3527
O16 O 0.0767(9) 0.3922(8) 0.9054(7)
C16 C 0.539(2) 0.4457(15) 0.4940(19)
H16 H 0.6155 0.4505 0.4848
H17 H 0.5103 0.4060 0.5509
C17 C 0.6204(19) 0.2893(15) 0.3946(15)
H18 H 0.6152 0.2599 0.3422
H19 H 0.6982 0.2978 0.3762
O17 O 0.5963(11) 0.2165(10) 0.4761(11)
C18 C 0.5276(18) 0.0636(15) 0.3751(14)
H20 H 0.6046 0.0599 0.3396
O18 O 0.1151(11) 0.0803(10) 0.6945(8)
O20 O 0.2628(9) 0.4971(9) 0.8241(8)
O21 O 0.2475(12) 0.7093(11) 0.8387(10)
O24 O 0.1716(12) 0.5889(10) 0.6891(9)
O27 O 0.567(2) 0.392(4) 0.912(3)
Cu2_2 Cu 0.5000 0.5000 1.0000
N7 N 0.5075(12) 0.8045(12) 0.5024(11)
C19 C 0.458(2) 0.6080(17) 0.5872(18)
H21 H 0.4348 0.5656 0.6431
H22 H 0.5347 0.6156 0.5759
N8 N 0.5929(12) 0.7698(11) 0.4240(10)
C20 C 0.7055(18) 0.9360(17) 0.5108(15)
H23 H 0.7808 0.9380 0.4737
N9 N 0.6783(11) 0.8092(11) 0.4174(10)
C21 C 0.533(2) 0.990(2) 0.6447(18)
C22 C 0.6471(15) 0.8740(13) 0.4894(11)
C23 C 0.5325(15) 0.8723(12) 0.5460(12)
C24 C 0.6466(19) 0.9940(17) 0.5892(15)
C25 C 0.461(2) 0.5543(15) 0.5060(19)
H26 H 0.3845 0.5495 0.5152
H27 H 0.4897 0.5940 0.4491
C26 C 0.3796(19) 0.7107(15) 0.6054(15)
H28 H 0.3848 0.7401 0.6578
H29 H 0.3018 0.7022 0.6238
O29 O 0.4037(11) 0.7835(10) 0.5239(11)
C27 C 0.4724(18) 0.9364(15) 0.6249(14)
H30 H 0.3954 0.9401 0.6604
O33 O 0.0534(10) 0.0256(9) 0.1932(8)
O34 O 0.2520(14) 0.0871(11) 0.0984(10)
Mo12 Mo 0.12010(12) 0.12197(10) 0.09991(9)
O35 O 0.0600(12) 0.2356(9) 0.1578(9)
O54 O 0.0424(9) 0.0893(8) 0.8906(8)
O56 O 0.589(3) 0.584(5) 0.898(3)
Cu4 Cu 0.83168(16) 0.76355(15) 0.31153(12)
O62 O 0.1511(10) 0.1825(9) 0.9751(7)
Cr1_3 Cr 0.0000 1.0000 0.0000
Cr1_4 Cr 0.0000 1.0000 1.0000
O2 O 0.0518(9) 0.8895(8) 0.9083(8)
Mo3 Mo 0.10756(12) 0.97604(11) 0.76846(9)
H7 H 0.5018 0.9716 0.3011
O8 O 0.1670(12) 0.8741(10) 0.6970(9)
O9 O 0.2340(10) 0.9756(9) 0.8062(8)
H13 H 0.3174 0.9636 0.3942
C34 C 0.036(2) 0.9479(19) 0.505(2)
H36 H 0.0661 0.9131 0.4460
H37 H 0.1005 0.9573 0.5181
C36 C 0.040(3) 0.7815(19) 0.594(2)
H39 H 0.1033 0.7923 0.6090
O30 O 0.0872(17) 0.7173(13) 0.5104(15)
O50 O 0.1897(12) 0.5872(10) 0.1554(10)
O53 O 0.0031(10) 0.5111(9) 0.2102(8)
O60 O 0.1547(10) 0.9971(8) 0.9978(8)
Cr1_5 Cr 1.0000 0.0000 0.0000
Cr2_3 Cr 1.0000 0.5000 0.0000
O3 O 0.8453(10) 0.0029(8) 0.0022(8)
O58 O 0.9482(9) 0.1105(8) 0.0917(8)
Mo15 Mo 0.89244(12) 0.02396(11) 0.23154(9)
Mo19 Mo 0.76993(12) 0.39470(11) 0.08991(9)
O64 O 0.9384(9) 0.4060(8) 0.1036(8)
O65 O 0.9233(9) 0.6078(8) 0.0946(7)
Cr1_6 Cr 1.0000 0.0000 1.0000
Cr2_4 Cr 1.0000 0.5000 1.0000
Mo4 Mo 0.92830(11) 0.38376(10) 0.86193(9)
C11 C 0.964(2) 0.0521(19) 0.495(2)
H10 H 0.9339 0.0869 0.5540
H11 H 0.8995 0.0427 0.4819
C15 C 0.960(3) 0.2185(19) 0.406(2)
H14 H 0.8967 0.2077 0.3910
O22 O 0.8103(12) 0.4128(10) 0.8446(10)
O23 O 0.8799(10) 0.3126(8) 0.9790(8)
O25 O 0.9969(10) 0.4889(9) 0.7898(8)
O26 O 0.9128(17) 0.2827(13) 0.4896(15)
O37 O 0.8330(12) 0.1259(10) 0.3030(9)
O38 O 0.7660(10) 0.0244(9) 0.1938(8)
O67 O 0.8619(9) 0.5000(8) 0.9749(8)
Cr1_7 Cr 1.0000 1.0000 0.0000
O1 O 0.9576(9) 0.9107(8) 0.1094(8)
O7 O 0.8489(10) 0.8175(9) 0.0249(7)
Mo14 Mo 0.76928(11) 0.91089(11) 0.12900(9)
Cr1_8 Cr 1.0000 1.0000 1.0000
O4 O 0.9466(10) 0.9744(9) 0.8068(8)
O5 O 0.7480(14) 0.9129(11) 0.9016(10)
Mo6 Mo 0.87990(12) 0.87803(10) 0.90009(9)
O6 O 0.9400(12) 0.7644(9) 0.8422(9)
C28 C 0.918(2) 0.5687(18) 0.6140(16)
H31 H 0.9594 0.5675 0.6517
N10 N 0.8994(12) 0.7062(10) 0.4059(10)
C29 C 0.971(3) 0.8806(19) 0.5824(18)
H32 H 0.9077 0.8695 0.5683
H33 H 0.9387 0.9164 0.6411
N11 N 0.9827(14) 0.7403(12) 0.4150(12)
N12 N 0.9999(15) 0.6979(11) 0.4888(12)
C30 C 0.7834(17) 0.5787(15) 0.5014(13)
H34 H 0.7392 0.5826 0.4654
C31 C 0.772(2) 0.5137(19) 0.5785(16)
H35 H 0.7193 0.4725 0.5951
C32 C 0.8637(15) 0.6374(13) 0.4809(11)
C33 C 0.9303(18) 0.6315(16) 0.5350(14)
C35 C 0.840(2) 0.5090(19) 0.6323(16)
H38 H 0.8319 0.4630 0.6825
H40 H 0.9943 0.7455 0.6473
Mo7 Mo 0.84643(11) 0.50760(10) 0.23034(9)
O39 O 0.7636(10) 0.8198(10) 0.2183(9)
O40 O 0.6417(12) 0.9436(9) 0.1274(9)
O41 O 0.9838(10) 0.7193(10) 0.2091(9)
O42 O 0.7780(10) 0.6171(9) 0.2943(8)
O46 O 0.8849(11) 0.9197(10) 0.3055(8)
O48 O 0.7372(9) 0.5029(9) 0.1759(8)
O49 O 0.7525(12) 0.2907(11) 0.1613(10)
O52 O 0.8284(12) 0.4111(10) 0.3109(9)
loop_
_geom_bond_atom_site_label_1
_geom_bond_atom_site_label_2
_geom_bond_site_symmetry_1
_geom_bond_site_symmetry_2
O19 Cr2 1_555 1_555
O28 Cu2 1_555 1_555
Cu2 O55 1_555 1_555
Mo17 O19 1_555 1_555
O63 Cu2 1_555 1_555
Mo17 O69 1_555 1_555
Mo1 O13 1_555 1_555
Cu1 N3 1_555 1_555
N1 N2 1_555 1_555
C1 H1 1_555 1_555
H2 C1 1_555 1_555
Cr2_2 O15 1_555 1_555
N2 N3 1_555 1_555
C2 H3 1_555 1_555
N3 C7 1_555 1_555
C3 H4 1_555 1_555
N4 Cu1 1_555 1_555
C4 H5 1_555 1_555
H6 C4 1_555 1_555
Mo5 O14 1_555 1_555
N5 N4 1_555 1_555
N6 N5 1_555 1_555
C6 H8 1_555 1_555
C7 C2 1_555 1_555
C8 C6 1_555 1_555
H9 C8 1_555 1_555
C9 N4 1_555 1_555
O10 Cu1 1_555 1_555
C10 C3 1_555 1_555
O11 Mo2 1_555 1_555
O12 Cu1 1_555 1_555
C12 N1 1_555 1_555
O13 Cu1 1_555 1_555
C13 C3 1_555 1_555
H12 C13 1_555 1_555
O14 Cu2_2 1_555 1_555
C14 C2 1_555 1_555
O15 Mo1 1_555 1_555
O16 Mo1 1_555 1_555
C16 C1 1_555 1_555
H16 C16 1_555 1_555
H17 C16 1_555 1_555
C17 C1 1_555 1_555
H18 C17 1_555 1_555
H19 C17 1_555 1_555
O17 N1 1_555 1_555
C18 C5 1_555 1_555
H20 C18 1_555 1_555
O18 Cu1 1_555 1_555
O20 Mo1 1_555 1_555
O21 Mo5 1_555 1_555
O24 Mo1 1_555 1_555
O27 Cu2_2 1_555 1_555
N7 N8 1_555 1_555
C19 H21 1_555 1_555
H22 C19 1_555 1_555
N8 N9 1_555 1_555
C20 H23 1_555 1_555
N9 C22 1_555 1_555
C22 C20 1_555 1_555
C23 N7 1_555 1_555
C24 C20 1_555 1_555
C25 C16 1_555 1_555
H26 C25 1_555 1_555
H27 C25 1_555 1_555
C26 C19 1_555 1_555
H28 C26 1_555 1_555
H29 C26 1_555 1_555
O29 N7 1_555 1_555
C27 C21 1_555 1_555
H30 C27 1_555 1_555
O33 Mo12 1_555 1_555
O34 Mo12 1_555 1_555
O35 Mo12 1_555 1_555
O54 Cr1_2 1_555 1_555
O56 Cu2_2 1_555 1_555
Cu4 N9 1_555 1_555
O62 Mo2 1_555 1_555
Mo2 O10 1_555 1_555
Mo2 O54 1_555 1_555
Cr2_2 O16 1_555 1_555
Mo5 O15 1_555 1_555
Mo5 O20 1_555 1_555
C5 C14 1_555 1_555
N6 C10 1_555 1_555
C6 C9 1_555 1_555
C7 C12 1_555 1_555
C8 C13 1_555 1_555
C9 C10 1_555 1_555
C12 C18 1_555 1_555
C17 O17 1_555 1_555
C19 C25 1_555 1_555
C21 C24 1_555 1_555
C22 C23 1_555 1_555
C23 C27 1_555 1_555
C26 O29 1_555 1_555
O2 Cr1_4 1_555 1_555
Mo3 O2 1_555 1_555
O8 Mo3 1_555 1_555
O9 Mo3 1_555 1_555
H36 C34 1_555 1_555
H37 C34 1_555 1_555
H39 C36 1_555 1_555
O50 Mo17 1_555 1_555
O60 Cr1_4 1_555 1_555
C36 O30 1_555 1_555
Mo17 O53 1_555 1_555
O3 Cr1_5 1_555 1_555
O58 Cr1_5 1_555 1_555
O64 Cr2_3 1_555 1_555
O65 Cr2_3 1_555 1_555
O58 Mo15 1_555 1_555
Mo19 O64 1_555 1_555
H10 C11 1_555 1_555
H11 C11 1_555 1_555
H14 C15 1_555 1_555
O22 Mo4 1_555 1_555
O23 Mo4 1_555 1_555
O37 Mo15 1_555 1_555
O38 Mo15 1_555 1_555
O67 Cr2_4 1_555 1_555
Mo4 O25 1_555 1_555
Mo4 O67 1_555 1_555
C15 O26 1_555 1_555
Cr1_7 O1 1_555 1_555
O1 Mo14 1_555 1_555
O7 Mo14 1_555 1_555
O5 Mo6 1_555 1_555
O6 Mo6 1_555 1_555
C28 H31 1_555 1_555
N10 N11 1_555 1_555
C29 H32 1_555 1_555
H33 C29 1_555 1_555
N11 N12 1_555 1_555
N12 C33 1_555 1_555
C30 H34 1_555 1_555
C31 C30 1_555 1_555
H35 C31 1_555 1_555
C32 N10 1_555 1_555
C33 C28 1_555 1_555
C35 C28 1_555 1_555
H38 C35 1_555 1_555
Mo7 O42 1_555 1_555
Cu4 N10 1_555 1_555
Mo19 O63 1_555 1_555
O39 Cu4 1_555 1_555
O40 Mo14 1_555 1_555
O41 Cu4 1_555 1_555
O42 Cu4 1_555 1_555
O64 Mo7 1_555 1_555
O65 Mo7 1_555 1_555
O46 Cu4 1_555 1_555
O48 Mo7 1_555 1_555
O49 Mo19 1_555 1_555
O52 Mo7 1_555 1_555
O4 Mo6 1_555 1_555
C30 C32 1_555 1_555
C31 C35 1_555 1_555
C32 C33 1_555 1_555
Mo14 O39 1_555 1_555
Mo19 O48 1_555 1_555

#END
