
###############################################################################
#
# This file contains modified crystal structure data generated from the
# MOF subset of the Cambridge Structural Database (CSD) v543 
# hosted by the Cambridge Crystallographic Data Centre (CCDC).
#
# This work is licensed under the Creative Commons
# Attribution-NonCommercial-ShareAlike 4.0 International License.
# To view a copy of this license, visit
# http://creativecommons.org/licenses/by-nc-sa/4.0/
# or send a letter to
# Creative Commons, PO Box 1866, Mountain View, CA 94042, USA.
#
# CIF created using the CSD Python API on 29 September 2022
# The structure has been converted into the P1 space group
# The structure has a 3D framework
# The original CSD entry TODLAC is in the orthorhombic crystal system
# The original CSD entry TODLAC is in a Sohncke space group
# The framework has been calculated to contain at least 10.0% void space
# The void calculation uses a probe of radius 1.32A, grid spacing 0.4
#
###############################################################################

data_TODLAC
_chemical_formula_moiety         '(C56 H60 N4 O32 Zn8)n'
_symmetry_cell_setting           triclinic
_symmetry_space_group_name_H-M   'P 1'
_symmetry_Int_Tables_number      1
_space_group_name_Hall           'P 1'
loop_
_symmetry_equiv_pos_site_id
_symmetry_equiv_pos_as_xyz
1 x,y,z
_cell_length_a                   10.31945(9)
_cell_length_b                   11.96133(10)
_cell_length_c                   20.28922(17)
_cell_angle_alpha                90
_cell_angle_beta                 90
_cell_angle_gamma                90
_cell_volume                     2504.39
loop_
_atom_site_label
_atom_site_type_symbol
_atom_site_fract_x
_atom_site_fract_y
_atom_site_fract_z
H9 H 0.437192 0.166817 0.013804
H11 H 0.565576 0.413903 0.003590
H12 H 0.424575 0.358386 0.006260
C5 C 0.2318(4) 0.0159(3) 0.68073(18)
C6 C 0.3498(5) 0.0297(5) 0.7124(2)
H3 H 0.423196 0.054551 0.688228
C7 C 0.3607(5) 0.0077(6) 0.7784(2)
H4 H 0.441319 0.019788 0.799861
C8 C 0.2182(4) 0.0444(3) 0.60894(18)
O3 O 0.1104(3) 0.0255(2) 0.58234(13)
O4 O 0.3170(3) 0.0839(3) 0.58164(14)
O8 O 0.5546(3) 0.0724(2) 0.98306(18)
C12 C 0.5160(6) 0.1624(4) 0.9898(4)
N1 N 0.5603(7) 0.2582(4) 0.9706(4)
C13 C 0.5041(11) 0.3657(6) 0.9802(6)
H10 H 0.483369 0.398918 0.937294
C14 C 0.6662(12) 0.2573(8) 0.9208(7)
H13 H 0.723920 0.321090 0.928455
H14 H 0.628908 0.262653 0.876501
H15 H 0.715628 0.187644 0.924671
Zn3 Zn 0.03796(3) 0.08088(2) 0.49768(2)
Zn5 Zn 0.35385(3) 0.17154(2) 0.50034(2)
Zn2 Zn 0.14615(3) 0.82846(2) 0.00034(2)
O5 O 0.34349(18) 0.77476(16) 0.00255(16)
O9 O 0.3896(3) 0.9745(2) 0.08234(13)
O10 O 0.1830(3) 0.9161(3) 0.08164(14)
O12 O 0.62234(19) 0.83521(17) 0.00578(15)
Zn1 Zn 0.46204(3) 0.91912(2) 0.99768(2)
O1 O 0.3825(3) 0.9470(3) 0.90980(14)
O2 O 0.1705(3) 0.9091(3) 0.91589(13)
C1 C 0.2705(4) 0.9392(4) 0.88616(19)
C2 C 0.2564(5) 0.9681(4) 0.81448(18)
C3 C 0.1385(5) 0.9589(6) 0.7838(2)
H1 H 0.064977 0.935637 0.808361
C4 C 0.1252(5) 0.9833(6) 0.7170(2)
H2 H 0.042763 0.977439 0.696402
O6 O 0.4614(2) 0.6215(2) 0.98792(17)
O7 O 0.12234(19) 0.66479(17) 0.99422(15)
C9 C 0.3569(3) 0.6723(3) 0.98942(17)
C10 C 0.2347(3) 0.6060(3) 0.97365(19)
H5 H 0.238354 0.532942 0.997487
C11 C 0.2309(4) 0.5835(4) 0.9000(2)
H6 H 0.153237 0.539950 0.889288
H7 H 0.308245 0.541415 0.887047
H8 H 0.228618 0.654708 0.876084
Zn6 Zn 0.64615(3) 0.67154(2) 0.99966(2)
Zn4 Zn 0.96204(3) 0.58088(2) 0.00232(2)
O11 O 0.9614(2) 0.8785(2) 0.01208(17)
O1_2 O 0.1175(3) 0.0530(3) 0.40980(14)
O2_2 O 0.3295(3) 0.0909(3) 0.41589(13)
C1_2 C 0.2295(4) 0.0608(4) 0.38616(19)
C2_2 C 0.2436(5) 0.0319(4) 0.31448(18)
C3_2 C 0.3615(5) 0.0411(6) 0.2838(2)
H1_2 H 0.435023 0.064363 0.308361
C4_2 C 0.3748(5) 0.0167(6) 0.2170(2)
H2_2 H 0.457237 0.022561 0.196402
O5_2 O 0.15651(18) 0.22524(16) 0.50255(16)
O6_2 O 0.0386(2) 0.3785(2) 0.48792(17)
O7_2 O 0.37766(19) 0.33521(17) 0.49422(15)
C9_2 C 0.1431(3) 0.3277(3) 0.48942(17)
C10_2 C 0.2653(3) 0.3940(3) 0.47365(19)
H5_2 H 0.261646 0.467058 0.497487
C11_2 C 0.2691(4) 0.4165(4) 0.4000(2)
H6_2 H 0.346763 0.460050 0.389288
H7_2 H 0.191755 0.458585 0.387047
H8_2 H 0.271382 0.345292 0.376084
Zn4_2 Zn 0.53796(3) 0.41912(2) 0.50232(2)
O11_2 O 0.5386(2) 0.1215(2) 0.51208(17)
C5_2 C 0.2682(4) 0.9841(3) 0.18073(18)
C6_2 C 0.1502(5) 0.9703(5) 0.2124(2)
H3_2 H 0.076804 0.945449 0.188228
C7_2 C 0.1393(5) 0.9923(6) 0.2784(2)
H4_2 H 0.058681 0.980212 0.299861
C8_2 C 0.2818(4) 0.9556(3) 0.10894(18)
H9_2 H 0.062808 0.833183 0.513804
H10_2 H 0.016631 0.601082 0.437294
H12_2 H 0.075425 0.641614 0.506260
Zn6_2 Zn 0.85385(3) 0.32846(2) 0.49966(2)
O12_2 O 0.87766(19) 0.16479(17) 0.50578(15)
O1_3 O 0.6175(3) 0.4470(3) 0.59020(14)
O2_3 O 0.8295(3) 0.4091(3) 0.58411(13)
C1_3 C 0.7295(4) 0.4392(4) 0.61384(19)
C2_3 C 0.7436(5) 0.4681(4) 0.68552(18)
C3_3 C 0.8615(5) 0.4589(6) 0.7162(2)
H1_3 H 0.935023 0.435637 0.691639
C4_3 C 0.8748(5) 0.4833(6) 0.7830(2)
H2_3 H 0.957237 0.477439 0.803598
C5_3 C 0.7682(4) 0.5159(3) 0.81927(18)
C6_3 C 0.6502(5) 0.5297(5) 0.7876(2)
H3_3 H 0.576804 0.554551 0.811772
C7_3 C 0.6393(5) 0.5077(6) 0.7216(2)
H4_3 H 0.558681 0.519788 0.700139
C8_3 C 0.7818(4) 0.5444(3) 0.89106(18)
O3_2 O 0.8896(3) 0.5255(2) 0.91766(13)
O4_2 O 0.6830(3) 0.5839(3) 0.91836(14)
O5_3 O 0.65651(18) 0.27476(16) 0.49745(16)
C9_3 C 0.6431(3) 0.1723(3) 0.51058(17)
C10_3 C 0.7653(3) 0.1060(3) 0.52635(19)
H5_3 H 0.761646 0.032942 0.502513
C11_3 C 0.7691(4) 0.0835(4) 0.6000(2)
H6_3 H 0.846763 0.039950 0.610712
H7_3 H 0.691755 0.041415 0.612953
H8_3 H 0.771382 0.154708 0.623916
O8_2 O 0.4454(3) 0.5724(2) 0.51694(18)
C12_2 C 0.4840(6) 0.6624(4) 0.5102(4)
H9_3 H 0.562808 0.666817 0.486196
N1_2 N 0.4397(7) 0.7582(4) 0.5294(4)
C13_2 C 0.4959(11) 0.8657(6) 0.5198(6)
H10_3 H 0.516631 0.898918 0.562706
H11_2 H 0.434424 0.913903 0.496410
H12_3 H 0.575425 0.858386 0.493740
C14_2 C 0.3338(12) 0.7573(8) 0.5792(7)
H13_2 H 0.276080 0.821090 0.571545
H14_2 H 0.371092 0.762653 0.623499
H15_2 H 0.284372 0.687644 0.575329
O9_2 O 0.6104(3) 0.4745(2) 0.41766(13)
O10_2 O 0.8170(3) 0.4161(3) 0.41836(14)
O8_3 O 0.0546(3) 0.4276(2) 0.01694(18)
C12_3 C 0.0160(6) 0.3376(4) 0.0102(4)
N1_3 N 0.0603(7) 0.2418(4) 0.0294(4)
C13_3 C 0.0041(11) 0.1343(6) 0.0198(6)
C14_3 C 0.1662(12) 0.2427(8) 0.0792(7)
H13_3 H 0.223920 0.178910 0.071545
H14_3 H 0.128908 0.237347 0.123499
H15_3 H 0.215628 0.312356 0.075329
H11_3 H 0.065576 0.086097 0.996410
O1_4 O 0.8825(3) 0.5530(3) 0.09020(14)
O2_4 O 0.6705(3) 0.5909(3) 0.08411(13)
C1_4 C 0.7705(4) 0.5608(4) 0.11384(19)
C2_4 C 0.7564(5) 0.5319(4) 0.18552(18)
C3_4 C 0.6385(5) 0.5411(6) 0.2162(2)
H1_4 H 0.564977 0.564363 0.191639
C4_4 C 0.6252(5) 0.5167(6) 0.2830(2)
H2_4 H 0.542763 0.522561 0.303598
C5_4 C 0.7318(4) 0.4841(3) 0.31927(18)
C6_4 C 0.8498(5) 0.4703(5) 0.2876(2)
H3_4 H 0.923196 0.445449 0.311772
C7_4 C 0.8607(5) 0.4923(6) 0.2216(2)
H4_4 H 0.941319 0.480212 0.200139
C8_4 C 0.7182(4) 0.4556(3) 0.39106(18)
C9_4 C 0.8569(3) 0.8277(3) 0.01058(17)
C10_4 C 0.7347(3) 0.8940(3) 0.02635(19)
H5_4 H 0.738354 0.967058 0.002513
C11_4 C 0.7309(4) 0.9165(4) 0.1000(2)
H6_4 H 0.653237 0.960050 0.110712
H7_4 H 0.808245 0.958585 0.112953
H8_4 H 0.728618 0.845292 0.123916
H10_4 H 0.983369 0.101082 0.062706
O5_4 O 0.84349(18) 0.72524(16) 0.99745(16)
H9_4 H 0.937192 0.333183 0.986196
H12_4 H 0.924575 0.141614 0.993740
O8_4 O 0.9454(3) 0.9276(2) 0.48306(18)
C12_4 C 0.9840(6) 0.8376(4) 0.4898(4)
N1_4 N 0.9397(7) 0.7418(4) 0.4706(4)
C13_4 C 0.9959(11) 0.6343(6) 0.4802(6)
H11_4 H 0.934424 0.586097 0.503590
C14_4 C 0.8338(12) 0.7427(8) 0.4208(7)
H13_4 H 0.776080 0.678910 0.428455
H14_4 H 0.871092 0.737347 0.376501
H15_4 H 0.784372 0.812356 0.424671
loop_
_geom_bond_atom_site_label_1
_geom_bond_atom_site_label_2
_geom_bond_site_symmetry_1
_geom_bond_site_symmetry_2
C6 C5 1_555 1_555
H3 C6 1_555 1_555
H4 C7 1_555 1_555
C8 C5 1_555 1_555
O3 C8 1_555 1_555
O4 C8 1_555 1_555
C12 O8 1_555 1_555
N1 C12 1_555 1_555
C13 N1 1_555 1_555
H10 C13 1_555 1_555
C14 N1 1_555 1_555
H13 C14 1_555 1_555
H14 C14 1_555 1_555
H15 C14 1_555 1_555
Zn3 O3 1_555 1_555
Zn5 O4 1_555 1_555
C6 C7 1_555 1_555
O10 Zn2 1_555 1_555
Zn2 O5 1_555 1_555
Zn1 O1 1_555 1_555
O1 C1 1_555 1_555
O2 C1 1_555 1_555
C1 C2 1_555 1_555
C2 C3 1_555 1_555
C3 H1 1_555 1_555
C4 C3 1_555 1_555
H2 C4 1_555 1_555
O6 C9 1_555 1_555
C10 O7 1_555 1_555
H5 C10 1_555 1_555
C11 C10 1_555 1_555
H6 C11 1_555 1_555
H7 C11 1_555 1_555
H8 C11 1_555 1_555
Zn6 O6 1_555 1_555
C9 C10 1_555 1_555
Zn3 O1_2 1_555 1_555
Zn5 O2_2 1_555 1_555
O1_2 C1_2 1_555 1_555
O2_2 C1_2 1_555 1_555
C1_2 C2_2 1_555 1_555
C2_2 C3_2 1_555 1_555
C3_2 H1_2 1_555 1_555
C4_2 C3_2 1_555 1_555
H2_2 C4_2 1_555 1_555
O5_2 Zn3 1_555 1_555
O6_2 C9_2 1_555 1_555
O7_2 Zn5 1_555 1_555
C9_2 O5_2 1_555 1_555
C10_2 O7_2 1_555 1_555
H5_2 C10_2 1_555 1_555
C11_2 C10_2 1_555 1_555
H6_2 C11_2 1_555 1_555
H7_2 C11_2 1_555 1_555
H8_2 C11_2 1_555 1_555
Zn4_2 O7_2 1_555 1_555
O11_2 Zn5 1_555 1_555
Zn5 O5_2 1_555 1_555
C9_2 C10_2 1_555 1_555
C6_2 C5_2 1_555 1_555
H3_2 C6_2 1_555 1_555
H4_2 C7_2 1_555 1_555
C8_2 C5_2 1_555 1_555
O9 C8_2 1_555 1_555
O10 C8_2 1_555 1_555
C6_2 C7_2 1_555 1_555
Zn6_2 O12_2 1_555 1_555
Zn4_2 O1_3 1_555 1_555
Zn6_2 O2_3 1_555 1_555
O1_3 C1_3 1_555 1_555
O2_3 C1_3 1_555 1_555
C1_3 C2_3 1_555 1_555
C2_3 C3_3 1_555 1_555
C3_3 H1_3 1_555 1_555
C4_3 C3_3 1_555 1_555
H2_3 C4_3 1_555 1_555
C5_3 C4_3 1_555 1_555
C6_3 C5_3 1_555 1_555
H3_3 C6_3 1_555 1_555
C7_3 C2_3 1_555 1_555
H4_3 C7_3 1_555 1_555
C8_3 C5_3 1_555 1_555
O3_2 C8_3 1_555 1_555
O4_2 C8_3 1_555 1_555
O5_3 Zn4_2 1_555 1_555
O11_2 C9_3 1_555 1_555
C9_3 O5_3 1_555 1_555
C10_3 O12_2 1_555 1_555
H5_3 C10_3 1_555 1_555
C11_3 C10_3 1_555 1_555
H6_3 C11_3 1_555 1_555
H7_3 C11_3 1_555 1_555
H8_3 C11_3 1_555 1_555
O8_2 Zn4_2 1_555 1_555
C12_2 O8_2 1_555 1_555
H9_3 C12_2 1_555 1_555
N1_2 C12_2 1_555 1_555
C13_2 N1_2 1_555 1_555
H10_3 C13_2 1_555 1_555
H11_2 C13_2 1_555 1_555
H12_3 C13_2 1_555 1_555
C14_2 N1_2 1_555 1_555
H13_2 C14_2 1_555 1_555
H14_2 C14_2 1_555 1_555
H15_2 C14_2 1_555 1_555
Zn6 O4_2 1_555 1_555
O9_2 Zn4_2 1_555 1_555
O10_2 Zn6_2 1_555 1_555
Zn6_2 O5_3 1_555 1_555
C6_3 C7_3 1_555 1_555
C9_3 C10_3 1_555 1_555
C12_3 O8_3 1_555 1_555
N1_3 C12_3 1_555 1_555
C13_3 N1_3 1_555 1_555
C14_3 N1_3 1_555 1_555
H13_3 C14_3 1_555 1_555
H14_3 C14_3 1_555 1_555
H15_3 C14_3 1_555 1_555
Zn4 O1_4 1_555 1_555
O1_4 C1_4 1_555 1_555
O2_4 C1_4 1_555 1_555
C1_4 C2_4 1_555 1_555
C2_4 C3_4 1_555 1_555
C3_4 H1_4 1_555 1_555
C4_4 C3_4 1_555 1_555
H2_4 C4_4 1_555 1_555
C5_4 C4_4 1_555 1_555
C6_4 C5_4 1_555 1_555
H3_4 C6_4 1_555 1_555
C7_4 C2_4 1_555 1_555
H4_4 C7_4 1_555 1_555
C8_4 C5_4 1_555 1_555
O9_2 C8_4 1_555 1_555
O10_2 C8_4 1_555 1_555
O11 C9_4 1_555 1_555
C10_4 O12 1_555 1_555
H5_4 C10_4 1_555 1_555
C11_4 C10_4 1_555 1_555
H6_4 C11_4 1_555 1_555
H7_4 C11_4 1_555 1_555
H8_4 C11_4 1_555 1_555
C6_4 C7_4 1_555 1_555
C9_4 C10_4 1_555 1_555
Zn6 O5_4 1_555 1_555
C12_4 O8_4 1_555 1_555
N1_4 C12_4 1_555 1_555
C13_4 N1_4 1_555 1_555
H11_4 C13_4 1_555 1_555
C14_4 N1_4 1_555 1_555
H13_4 C14_4 1_555 1_555
H14_4 C14_4 1_555 1_555
H15_4 C14_4 1_555 1_555

#END
