
###############################################################################
#
# This file contains modified crystal structure data generated from the
# MOF subset of the Cambridge Structural Database (CSD) v543 
# hosted by the Cambridge Crystallographic Data Centre (CCDC).
#
# This work is licensed under the Creative Commons
# Attribution-NonCommercial-ShareAlike 4.0 International License.
# To view a copy of this license, visit
# http://creativecommons.org/licenses/by-nc-sa/4.0/
# or send a letter to
# Creative Commons, PO Box 1866, Mountain View, CA 94042, USA.
#
# CIF created using the CSD Python API on 29 September 2022
# The structure has been converted into the P1 space group
# The structure has a 3D framework
# The original CSD entry TOFFUS is in the orthorhombic crystal system
# The framework has been calculated to contain at least 10.0% void space
# The void calculation uses a probe of radius 1.32A, grid spacing 0.4
#
###############################################################################

data_TOFFUS
_chemical_formula_moiety         '(C100 H64 N16 O40 Zn6)n'
_symmetry_cell_setting           triclinic
_symmetry_space_group_name_H-M   'P 1'
_symmetry_Int_Tables_number      1
_space_group_name_Hall           'P 1'
loop_
_symmetry_equiv_pos_site_id
_symmetry_equiv_pos_as_xyz
1 x,y,z
_cell_length_a                   8.3132(8)
_cell_length_b                   16.9781(16)
_cell_length_c                   19.4427(18)
_cell_angle_alpha                90
_cell_angle_beta                 90
_cell_angle_gamma                90
_cell_volume                     2744.19
loop_
_atom_site_label
_atom_site_type_symbol
_atom_site_fract_x
_atom_site_fract_y
_atom_site_fract_z
Zn1 Zn 0.32819(3) 0.37068(2) 0.48571(2)
O1 O 0.5729(2) 0.38812(11) 0.47240(10)
H1 H 0.6022 0.4299 0.4936
H2 H 0.6142 0.3762 0.4358
N1 N 0.0651(3) 0.35218(12) 0.51347(11)
H3 H 0.0304 0.2558 0.4607
C4 C 0.0058(3) 0.39352(14) 0.56627(12)
H5 H 0.0486 0.4444 0.5752
O6 O 0.2676(2) 0.39365(10) 0.38393(9)
O7 O 0.2696(2) 0.49894(10) 0.44944(8)
O8 O 0.3478(2) 0.40638(11) 0.58252(8)
N3 N 0.3765(2) 0.24843(11) 0.46361(10)
Zn4 Zn 0.82819(3) 0.37068(2) 0.01429(2)
O2 O 0.7324(2) 0.60635(10) 0.61607(9)
O3 O 0.7304(2) 0.50106(10) 0.55056(8)
O4 O 0.8478(2) 0.40638(11) 0.91748(8)
O5 O 0.9156(3) 0.29622(11) 0.86283(10)
N2 N 0.8765(2) 0.25157(11) 0.53639(10)
C1 C 0.9940(3) 0.28398(14) 0.49999(12)
C2 C 0.8259(3) 0.29155(14) 0.59186(12)
H4 H 0.7470 0.2683 0.6207
C3 C 0.8844(3) 0.36514(14) 0.60850(11)
C5 C 0.8345(3) 0.40769(14) 0.67207(11)
C6 C 0.7717(3) 0.48429(14) 0.67265(12)
C7 C 0.7429(3) 0.53230(15) 0.60865(12)
C8 C 0.7340(3) 0.51913(14) 0.73536(12)
H6 H 0.6852 0.5697 0.7359
C9 C 0.7658(3) 0.48196(15) 0.79649(12)
H7 H 0.7425 0.5077 0.8387
C10 C 0.8320(3) 0.40676(14) 0.79693(12)
C11 C 0.8692(3) 0.36568(15) 0.86367(12)
C12 C 0.8629(3) 0.37011(14) 0.73433(12)
H8 H 0.9045 0.3180 0.7342
Zn2 Zn 0.82819(3) 0.12932(2) 0.51429(2)
Zn3 Zn 0.67181(3) 0.62932(2) 0.51429(2)
O2_2 O 0.7676(2) 0.39365(10) 0.11607(9)
O3_2 O 0.7696(2) 0.49894(10) 0.05056(8)
O4_2 O 0.6522(2) 0.59362(11) 0.41748(8)
O5_2 O 0.5844(3) 0.70378(11) 0.36283(10)
N1_2 N 0.4349(3) 0.64782(12) 0.01347(11)
N2_2 N 0.6235(2) 0.74843(11) 0.03639(10)
C1_2 C 0.5060(3) 0.71602(14) -0.00001(12)
C2_2 C 0.6741(3) 0.70845(14) 0.09186(12)
H4_2 H 0.7530 0.7317 0.1207
C3_2 C 0.6156(3) 0.63486(14) 0.10850(11)
C4_2 C 0.4942(3) 0.60648(14) 0.06627(12)
H5_2 H 0.4514 0.5556 0.0752
C5_2 C 0.6655(3) 0.59231(14) 0.17207(11)
C6_2 C 0.7283(3) 0.51571(14) 0.17265(12)
C7_2 C 0.7571(3) 0.46770(15) 0.10865(12)
C8_2 C 0.7660(3) 0.48087(14) 0.23536(12)
H6_2 H 0.8148 0.4303 0.2359
C9_2 C 0.7342(3) 0.51804(15) 0.29649(12)
H7_2 H 0.7575 0.4923 0.3387
C10_2 C 0.6680(3) 0.59324(14) 0.29693(12)
C11_2 C 0.6308(3) 0.63432(15) 0.36367(12)
C12_2 C 0.6371(3) 0.62989(14) 0.23433(12)
H8_2 H 0.5955 0.6820 0.2342
Zn2_2 Zn 0.67181(3) 0.87068(2) 0.01429(2)
O8_2 O 0.1522(2) 0.59362(11) 0.08252(8)
Zn1_2 Zn 0.17181(3) 0.62932(2) 0.98571(2)
C1_3 C 0.5060(3) 0.71602(14) 0.99999(12)
H3_2 H 0.4696 0.7442 0.9607
O6_2 O 0.2324(2) 0.60635(10) 0.88393(9)
O7_2 O 0.2304(2) 0.50106(10) 0.94944(8)
N3_2 N 0.1235(2) 0.75157(11) 0.96361(10)
O2_3 O 0.2676(2) 0.10635(10) 0.88393(9)
O3_3 O 0.2696(2) 0.00106(10) 0.94944(8)
C7_3 C 0.2571(3) 0.03230(15) 0.89135(12)
C8_3 C 0.2660(3) 0.01913(14) 0.76464(12)
H6_3 H 0.3148 0.0697 0.7641
H7_3 H 0.2575 0.0077 0.6613
Zn3_2 Zn 0.32819(3) 0.12932(2) 0.98571(2)
O4_3 O 0.1522(2) 0.90638(11) 0.58252(8)
O5_3 O 0.0844(3) 0.79622(11) 0.63717(10)
C1_4 C 0.0060(3) 0.78398(14) 1.00001(12)
C2_3 C 0.1741(3) 0.79155(14) 0.90814(12)
H4_3 H 0.2530 0.7683 0.8793
C3_3 C 0.1156(3) 0.86514(14) 0.89150(11)
C5_3 C 0.1655(3) 0.90769(14) 0.82793(11)
C6_3 C 0.2283(3) 0.98429(14) 0.82735(12)
C9_3 C 0.2342(3) 0.98196(15) 0.70351(12)
C10_3 C 0.1680(3) 0.90676(14) 0.70307(12)
C11_3 C 0.1308(3) 0.86568(15) 0.63633(12)
C12_3 C 0.1371(3) 0.87011(14) 0.76567(12)
H8_3 H 0.0955 0.8180 0.7658
Zn4_2 Zn 0.17181(3) 0.87068(2) 0.48571(2)
O1_2 O 0.4271(2) 0.88812(11) 0.02760(10)
H1_2 H 0.3978 0.9299 0.0064
H2_2 H 0.3858 0.8762 0.0642
H3_3 H 0.9696 0.7558 0.0393
O6_3 O 0.7324(2) 0.89365(10) 0.11607(9)
O7_3 O 0.7304(2) 0.99894(10) 0.05056(8)
N1_3 N 0.9349(3) 0.85218(12) 0.98653(11)
C4_3 C 0.9942(3) 0.89352(14) 0.93373(12)
H5_3 H 0.9514 0.9444 0.9248
O8_3 O 0.6522(2) 0.90638(11) 0.91748(8)
O4_4 O 0.3478(2) 0.09362(11) 0.08252(8)
O5_4 O 0.4156(3) 0.20378(11) 0.13717(10)
N1_4 N 0.5651(3) 0.14782(12) 0.48653(11)
C1_5 C 0.4940(3) 0.21602(14) 0.50001(12)
H3_4 H 0.5304 0.2442 0.5393
C2_4 C 0.3259(3) 0.20845(14) 0.40814(12)
H4_4 H 0.2470 0.2317 0.3793
C3_4 C 0.3844(3) 0.13486(14) 0.39150(11)
C4_4 C 0.5058(3) 0.10648(14) 0.43373(12)
H5_4 H 0.5486 0.0556 0.4248
C5_4 C 0.3345(3) 0.09231(14) 0.32793(11)
C6_4 C 0.2717(3) 0.01571(14) 0.32735(12)
C9_4 C 0.2658(3) 0.01804(15) 0.20351(12)
C10_4 C 0.3320(3) 0.09324(14) 0.20307(12)
C11_4 C 0.3692(3) 0.13432(15) 0.13633(12)
C12_4 C 0.3629(3) 0.12989(14) 0.26567(12)
H8_4 H 0.4045 0.1820 0.2658
O6_4 O 0.7676(2) 0.10635(10) 0.61607(9)
O7_4 O 0.7696(2) 0.00106(10) 0.55056(8)
O8_4 O 0.8478(2) 0.09362(11) 0.41748(8)
O2_4 O 0.2324(2) 0.89365(10) 0.38393(9)
O3_4 O 0.2304(2) 0.99894(10) 0.44944(8)
C7_4 C 0.2429(3) 0.96770(15) 0.39135(12)
C8_4 C 0.2340(3) 0.98087(14) 0.26464(12)
H6_4 H 0.1852 0.9303 0.2641
H7_4 H 0.2425 0.9923 0.1613
O5_5 O 0.0844(3) 0.70378(11) 0.13717(10)
N2_3 N 0.1235(2) 0.74843(11) 0.46361(10)
C1_6 C 0.0060(3) 0.71602(14) 0.50001(12)
C2_5 C 0.1741(3) 0.70845(14) 0.40814(12)
H4_5 H 0.2530 0.7317 0.3793
C3_5 C 0.1156(3) 0.63486(14) 0.39150(11)
C5_5 C 0.1655(3) 0.59231(14) 0.32793(11)
C6_5 C 0.2283(3) 0.51571(14) 0.32735(12)
C7_5 C 0.2571(3) 0.46770(15) 0.39135(12)
C8_5 C 0.2660(3) 0.48087(14) 0.26464(12)
H6_5 H 0.3148 0.4303 0.2641
C9_5 C 0.2342(3) 0.51804(15) 0.20351(12)
H7_5 H 0.2575 0.4923 0.1613
C10_5 C 0.1680(3) 0.59324(14) 0.20307(12)
C11_5 C 0.1308(3) 0.63432(15) 0.13633(12)
C12_5 C 0.1371(3) 0.62989(14) 0.26567(12)
H8_5 H 0.0955 0.6820 0.2658
O1_3 O 0.4271(2) 0.61188(11) 0.52760(10)
H1_3 H 0.3978 0.5701 0.5064
H2_3 H 0.3858 0.6238 0.5642
N1_5 N 0.9349(3) 0.64782(12) 0.48653(11)
H3_5 H 0.9696 0.7442 0.5393
C4_5 C 0.9942(3) 0.60648(14) 0.43373(12)
H5_5 H 0.9514 0.5556 0.4248
N3_3 N 0.6235(2) 0.75157(11) 0.53639(10)
C1_7 C 0.4940(3) 0.28398(14) 0.00001(12)
H3_6 H 0.5304 0.2558 0.0393
N3_4 N 0.8765(2) 0.24843(11) 0.03639(10)
O5_6 O 0.4156(3) 0.29622(11) 0.63717(10)
N1_6 N 0.5651(3) 0.35218(12) 0.98653(11)
N2_4 N 0.3765(2) 0.25157(11) 0.96361(10)
C1_8 C 0.4940(3) 0.28398(14) 1.00001(12)
C2_6 C 0.3259(3) 0.29155(14) 0.90814(12)
H4_6 H 0.2470 0.2683 0.8793
C3_6 C 0.3844(3) 0.36514(14) 0.89150(11)
C4_6 C 0.5058(3) 0.39352(14) 0.93373(12)
H5_6 H 0.5486 0.4444 0.9248
C5_6 C 0.3345(3) 0.40769(14) 0.82793(11)
C6_6 C 0.2717(3) 0.48429(14) 0.82735(12)
C7_6 C 0.2429(3) 0.53230(15) 0.89135(12)
C8_6 C 0.2340(3) 0.51913(14) 0.76464(12)
H6_6 H 0.1852 0.5697 0.7641
C9_6 C 0.2658(3) 0.48196(15) 0.70351(12)
H7_6 H 0.2425 0.5077 0.6613
C10_6 C 0.3320(3) 0.40676(14) 0.70307(12)
C11_6 C 0.3692(3) 0.36568(15) 0.63633(12)
C12_6 C 0.3629(3) 0.37011(14) 0.76567(12)
H8_6 H 0.4045 0.3180 0.7658
N1_7 N 0.0651(3) 0.14782(12) 0.01347(11)
C4_7 C 0.0058(3) 0.10648(14) 0.06627(12)
H5_7 H 0.0486 0.0556 0.0752
O1_4 O 0.5729(2) 0.11188(11) 0.97240(10)
H1_4 H 0.6022 0.0701 0.9936
H2_4 H 0.6142 0.1238 0.9358
H3_7 H 0.0304 0.2442 0.9607
O5_7 O 0.9156(3) 0.20378(11) 0.36283(10)
C1_9 C 0.9940(3) 0.21602(14) -0.00001(12)
C2_7 C 0.8259(3) 0.20845(14) 0.09186(12)
H4_7 H 0.7470 0.2317 0.1207
C3_7 C 0.8844(3) 0.13486(14) 0.10850(11)
C5_7 C 0.8345(3) 0.09231(14) 0.17207(11)
C6_7 C 0.7717(3) 0.01571(14) 0.17265(12)
C9_7 C 0.7658(3) 0.01804(15) 0.29649(12)
C10_7 C 0.8320(3) 0.09324(14) 0.29693(12)
C11_7 C 0.8692(3) 0.13432(15) 0.36367(12)
C12_7 C 0.8629(3) 0.12989(14) 0.23433(12)
H8_7 H 0.9045 0.1820 0.2342
C7_7 C 0.7429(3) 0.96770(15) 0.10865(12)
C8_7 C 0.7340(3) 0.98087(14) 0.23536(12)
H6_7 H 0.6852 0.9303 0.2359
H7_7 H 0.7425 0.9923 0.3387
C7_8 C 0.7571(3) 0.03230(15) 0.60865(12)
C8_8 C 0.7660(3) 0.01913(14) 0.73536(12)
H6_8 H 0.8148 0.0697 0.7359
H7_8 H 0.7575 0.0077 0.8387
O5_8 O 0.5844(3) 0.79622(11) 0.86283(10)
N1_8 N 0.4349(3) 0.85218(12) 0.51347(11)
C1_10 C 0.5060(3) 0.78398(14) 0.49999(12)
H3_8 H 0.4696 0.7558 0.4607
C2_8 C 0.6741(3) 0.79155(14) 0.59186(12)
H4_8 H 0.7530 0.7683 0.6207
C3_8 C 0.6156(3) 0.86514(14) 0.60850(11)
C4_8 C 0.4942(3) 0.89352(14) 0.56627(12)
H5_8 H 0.4514 0.9444 0.5752
C5_8 C 0.6655(3) 0.90769(14) 0.67207(11)
C6_8 C 0.7283(3) 0.98429(14) 0.67265(12)
C9_8 C 0.7342(3) 0.98196(15) 0.79649(12)
C10_8 C 0.6680(3) 0.90676(14) 0.79693(12)
C11_8 C 0.6308(3) 0.86568(15) 0.86367(12)
C12_8 C 0.6371(3) 0.87011(14) 0.73433(12)
H8_8 H 0.5955 0.8180 0.7342
O1_5 O 0.9271(2) 0.61188(11) 0.97240(10)
H1_5 H 0.8978 0.5701 0.9936
H2_5 H 0.8858 0.6238 0.9358
C1_11 C 0.0060(3) 0.78398(14) 0.00001(12)
O1_6 O 0.0729(2) 0.11188(11) 0.52760(10)
H1_6 H 0.1022 0.0701 0.5064
H2_6 H 0.1142 0.1238 0.5642
O1_7 O 0.0729(2) 0.38812(11) 0.02760(10)
H1_7 H 0.1022 0.4299 0.0064
H2_7 H 0.1142 0.3762 0.0642
C1_12 C 0.9940(3) 0.21602(14) 0.99999(12)
O1_8 O 0.9271(2) 0.88812(11) 0.47240(10)
H1_8 H 0.8978 0.9299 0.4936
H2_8 H 0.8858 0.8762 0.4358
loop_
_geom_bond_atom_site_label_1
_geom_bond_atom_site_label_2
_geom_bond_site_symmetry_1
_geom_bond_site_symmetry_2
Zn1 O1 1_555 1_555
O1 H1 1_555 1_555
H2 O1 1_555 1_555
N1 Zn1 1_555 1_555
C4 N1 1_555 1_555
H5 C4 1_555 1_555
O6 Zn1 1_555 1_555
O7 Zn1 1_555 1_555
O8 Zn1 1_555 1_555
N3 Zn1 1_555 1_555
O2 C7 1_555 1_555
O3 C7 1_555 1_555
O4 C11 1_555 1_555
O5 C11 1_555 1_555
N2 C1 1_555 1_555
C2 N2 1_555 1_555
H4 C2 1_555 1_555
C3 C2 1_555 1_555
C5 C3 1_555 1_555
C6 C5 1_555 1_555
C7 C6 1_555 1_555
C8 C6 1_555 1_555
H6 C8 1_555 1_555
C9 C8 1_555 1_555
H7 C9 1_555 1_555
C10 C9 1_555 1_555
C11 C10 1_555 1_555
C12 C5 1_555 1_555
H8 C12 1_555 1_555
Zn2 N2 1_555 1_555
Zn3 O2 1_555 1_555
O3 Zn3 1_555 1_555
C10 C12 1_555 1_555
O2_2 C7_2 1_555 1_555
O3_2 C7_2 1_555 1_555
O4_2 C11_2 1_555 1_555
O5_2 C11_2 1_555 1_555
N2_2 C1_2 1_555 1_555
C1_2 N1_2 1_555 1_555
C2_2 N2_2 1_555 1_555
H4_2 C2_2 1_555 1_555
C3_2 C2_2 1_555 1_555
C4_2 N1_2 1_555 1_555
H5_2 C4_2 1_555 1_555
C5_2 C3_2 1_555 1_555
C6_2 C5_2 1_555 1_555
C7_2 C6_2 1_555 1_555
C8_2 C6_2 1_555 1_555
H6_2 C8_2 1_555 1_555
C9_2 C8_2 1_555 1_555
H7_2 C9_2 1_555 1_555
C10_2 C9_2 1_555 1_555
C11_2 C10_2 1_555 1_555
C12_2 C5_2 1_555 1_555
H8_2 C12_2 1_555 1_555
Zn2_2 N2_2 1_555 1_555
Zn4 O2_2 1_555 1_555
Zn3 O4_2 1_555 1_555
O3_2 Zn4 1_555 1_555
C3_2 C4_2 1_555 1_555
C10_2 C12_2 1_555 1_555
H3_2 C1_3 1_555 1_555
O6_2 Zn1_2 1_555 1_555
O7_2 Zn1_2 1_555 1_555
N3_2 Zn1_2 1_555 1_555
O2_3 C7_3 1_555 1_555
O3_3 C7_3 1_555 1_555
H6_3 C8_3 1_555 1_555
Zn3_2 O2_3 1_555 1_555
O3_3 Zn3_2 1_555 1_555
O4_3 C11_3 1_555 1_555
O5_3 C11_3 1_555 1_555
N3_2 C1_4 1_555 1_555
C2_3 N3_2 1_555 1_555
H4_3 C2_3 1_555 1_555
C3_3 C2_3 1_555 1_555
C5_3 C3_3 1_555 1_555
C6_3 C5_3 1_555 1_555
C10_3 C9_3 1_555 1_555
C11_3 C10_3 1_555 1_555
C12_3 C5_3 1_555 1_555
H8_3 C12_3 1_555 1_555
Zn4_2 O4_3 1_555 1_555
C10_3 C12_3 1_555 1_555
Zn2_2 O1_2 1_555 1_555
O1_2 H1_2 1_555 1_555
H2_2 O1_2 1_555 1_555
O6_3 Zn2_2 1_555 1_555
O7_3 Zn2_2 1_555 1_555
C4_3 N1_3 1_555 1_555
H5_3 C4_3 1_555 1_555
O4_4 C11_4 1_555 1_555
O5_4 C11_4 1_555 1_555
N1_4 Zn2 1_555 1_555
N3 C1_5 1_555 1_555
C1_5 N1_4 1_555 1_555
H3_4 C1_5 1_555 1_555
C2_4 N3 1_555 1_555
H4_4 C2_4 1_555 1_555
C3_4 C2_4 1_555 1_555
C4_4 N1_4 1_555 1_555
H5_4 C4_4 1_555 1_555
C5_4 C3_4 1_555 1_555
C6_4 C5_4 1_555 1_555
C10_4 C9_4 1_555 1_555
C11_4 C10_4 1_555 1_555
C12_4 C5_4 1_555 1_555
H8_4 C12_4 1_555 1_555
O6_4 Zn2 1_555 1_555
O7_4 Zn2 1_555 1_555
O8_4 Zn2 1_555 1_555
C3_4 C4_4 1_555 1_555
C10_4 C12_4 1_555 1_555
O2_4 C7_4 1_555 1_555
O3_4 C7_4 1_555 1_555
H6_4 C8_4 1_555 1_555
Zn4_2 O2_4 1_555 1_555
O3_4 Zn4_2 1_555 1_555
O6 C7_5 1_555 1_555
O7 C7_5 1_555 1_555
O8_2 C11_5 1_555 1_555
O5_5 C11_5 1_555 1_555
N2_3 C1_6 1_555 1_555
C2_5 N2_3 1_555 1_555
H4_5 C2_5 1_555 1_555
C3_5 C2_5 1_555 1_555
C5_5 C3_5 1_555 1_555
C6_5 C5_5 1_555 1_555
C7_5 C6_5 1_555 1_555
C8_5 C6_5 1_555 1_555
H6_5 C8_5 1_555 1_555
C9_5 C8_5 1_555 1_555
H7_5 C9_5 1_555 1_555
C10_5 C9_5 1_555 1_555
C11_5 C10_5 1_555 1_555
C12_5 C5_5 1_555 1_555
H8_5 C12_5 1_555 1_555
Zn4_2 N2_3 1_555 1_555
C10_5 C12_5 1_555 1_555
Zn3 O1_3 1_555 1_555
O1_3 H1_3 1_555 1_555
H2_3 O1_3 1_555 1_555
N1_5 Zn3 1_555 1_555
C4_5 N1_5 1_555 1_555
H5_5 C4_5 1_555 1_555
N3_3 Zn3 1_555 1_555
H3_6 C1_7 1_555 1_555
N3_4 Zn4 1_555 1_555
O6_2 C7_6 1_555 1_555
O7_2 C7_6 1_555 1_555
O8 C11_6 1_555 1_555
O5_6 C11_6 1_555 1_555
N2_4 C1_8 1_555 1_555
C1_8 N1_6 1_555 1_555
C2_6 N2_4 1_555 1_555
H4_6 C2_6 1_555 1_555
C3_6 C2_6 1_555 1_555
C4_6 N1_6 1_555 1_555
H5_6 C4_6 1_555 1_555
C5_6 C3_6 1_555 1_555
C6_6 C5_6 1_555 1_555
C7_6 C6_6 1_555 1_555
C8_6 C6_6 1_555 1_555
H6_6 C8_6 1_555 1_555
C9_6 C8_6 1_555 1_555
H7_6 C9_6 1_555 1_555
C10_6 C9_6 1_555 1_555
C11_6 C10_6 1_555 1_555
C12_6 C5_6 1_555 1_555
H8_6 C12_6 1_555 1_555
Zn3_2 N2_4 1_555 1_555
C3_6 C4_6 1_555 1_555
C10_6 C12_6 1_555 1_555
C4_7 N1_7 1_555 1_555
H5_7 C4_7 1_555 1_555
Zn3_2 O1_4 1_555 1_555
O1_4 H1_4 1_555 1_555
H2_4 O1_4 1_555 1_555
O8_4 C11_7 1_555 1_555
O5_7 C11_7 1_555 1_555
N3_4 C1_9 1_555 1_555
C2_7 N3_4 1_555 1_555
H4_7 C2_7 1_555 1_555
C3_7 C2_7 1_555 1_555
C5_7 C3_7 1_555 1_555
C6_7 C5_7 1_555 1_555
C10_7 C9_7 1_555 1_555
C11_7 C10_7 1_555 1_555
C12_7 C5_7 1_555 1_555
H8_7 C12_7 1_555 1_555
C10_7 C12_7 1_555 1_555
O6_3 C7_7 1_555 1_555
O7_3 C7_7 1_555 1_555
H6_7 C8_7 1_555 1_555
O6_4 C7_8 1_555 1_555
O7_4 C7_8 1_555 1_555
H6_8 C8_8 1_555 1_555
O8_3 C11_8 1_555 1_555
O5_8 C11_8 1_555 1_555
N1_8 Zn4_2 1_555 1_555
N3_3 C1_10 1_555 1_555
C1_10 N1_8 1_555 1_555
H3_8 C1_10 1_555 1_555
C2_8 N3_3 1_555 1_555
H4_8 C2_8 1_555 1_555
C3_8 C2_8 1_555 1_555
C4_8 N1_8 1_555 1_555
H5_8 C4_8 1_555 1_555
C5_8 C3_8 1_555 1_555
C6_8 C5_8 1_555 1_555
C10_8 C9_8 1_555 1_555
C11_8 C10_8 1_555 1_555
C12_8 C5_8 1_555 1_555
H8_8 C12_8 1_555 1_555
C3_8 C4_8 1_555 1_555
C10_8 C12_8 1_555 1_555
O1_5 H1_5 1_555 1_555
H2_5 O1_5 1_555 1_555
O1_6 H1_6 1_555 1_555
H2_6 O1_6 1_555 1_555
O1_7 H1_7 1_555 1_555
H2_7 O1_7 1_555 1_555
O1_8 H1_8 1_555 1_555
H2_8 O1_8 1_555 1_555

#END
