
###############################################################################
#
# This file contains modified crystal structure data generated from the
# MOF subset of the Cambridge Structural Database (CSD) v543 
# hosted by the Cambridge Crystallographic Data Centre (CCDC).
#
# This work is licensed under the Creative Commons
# Attribution-NonCommercial-ShareAlike 4.0 International License.
# To view a copy of this license, visit
# http://creativecommons.org/licenses/by-nc-sa/4.0/
# or send a letter to
# Creative Commons, PO Box 1866, Mountain View, CA 94042, USA.
#
# CIF created using the CSD Python API on 29 September 2022
# The structure has been converted into the P1 space group
# The structure has a 3D framework
# The original CSD entry TOHYUM01 is in the monoclinic crystal system
# The framework has been calculated to contain at least 10.0% void space
# The void calculation uses a probe of radius 1.32A, grid spacing 0.4
#
###############################################################################

data_TOHYUM01
_chemical_formula_moiety         '(C112 H92 N4 O60 Zn14)n'
_symmetry_cell_setting           triclinic
_symmetry_space_group_name_H-M   'P 1'
_symmetry_Int_Tables_number      1
_space_group_name_Hall           'P 1'
loop_
_symmetry_equiv_pos_site_id
_symmetry_equiv_pos_as_xyz
1 x,y,z
_cell_length_a                   19.9165(8)
_cell_length_b                   11.0762(4)
_cell_length_c                   19.3873(8)
_cell_angle_alpha                90
_cell_angle_beta                 108.4430(10)
_cell_angle_gamma                90
_cell_volume                     4057.16
loop_
_atom_site_label
_atom_site_type_symbol
_atom_site_fract_x
_atom_site_fract_y
_atom_site_fract_z
O8 O 0.29093(17) 0.0269(2) 0.34387(16)
Zn6 Zn 0.31021(2) 0.21305(3) 0.36483(2)
Zn8 Zn 0.31308(2) 0.06677(3) 0.50521(2)
Zn1 Zn 0.446134(19) 0.20894(4) 0.498988(19)
Zn3 Zn 0.30989(2) 0.35309(3) 0.50652(2)
O1 O 0.47001(15) 0.1095(2) 0.42592(13)
O2 O 0.39215(14) 0.1865(2) 0.32673(14)
O5 O 0.31071(15) 0.3994(2) 0.35201(15)
O6 O 0.27269(14) 0.4829(2) 0.43721(15)
O7 O 0.30458(17) 0.9246(2) 0.44511(15)
O9 O 0.41587(17) 0.4506(3) 0.51921(19)
O10 O 0.50447(15) 0.3510(2) 0.49996(16)
O11 O 0.71963(14) 0.5885(2) 0.51615(16)
O12 O 0.71206(15) 0.7882(2) 0.50466(18)
O13 O 0.34453(12) 0.21075(18) 0.47047(12)
O14 O 0.20677(14) 0.2333(2) 0.31660(16)
H1 H 0.1859 0.1735 0.3242
H2 H 0.1986 0.2424 0.2711
O15 O 0.34471(18) 0.3635(3) 0.61349(16)
N1 N 0.4068(2) 0.4228(4) 0.7242(2)
C1 C 0.4815(2) 0.0581(3) 0.3138(2)
C2 C 0.44854(19) 0.0367(3) 0.24096(19)
H3 H 0.4027 0.0645 0.2188
C6 C 0.5488(2) 0.0165(4) 0.3458(2)
H6 H 0.5708 0.0293 0.3952
C7 C 0.4442(2) 0.1227(3) 0.35862(19)
C9 C 0.27241(19) 0.6008(3) 0.3364(2)
C10 C 0.2845(2) 0.7083(3) 0.3734(2)
H7 H 0.2977 0.7084 0.4239
C11 C 0.27737(19) 0.8164(3) 0.3364(2)
C12 C 0.2569(2) 0.8152(3) 0.2621(2)
H8 H 0.2521 0.8876 0.2367
C13 C 0.2433(3) 0.7085(3) 0.2248(2)
H9 H 0.2278 0.7089 0.1742
C14 C 0.2525(2) 0.6002(3) 0.2620(2)
H10 H 0.2451 0.5274 0.2367
C15 C 0.2860(2) 0.4847(3) 0.3778(2)
C16 C 0.2923(2) 0.9333(3) 0.3775(2)
C17 C 0.5080(2) 0.5631(4) 0.4986(2)
C18 C 0.5778(2) 0.5684(3) 0.5026(2)
H11 H 0.6041 0.4977 0.5076
C19 C 0.6093(2) 0.6788(3) 0.4992(2)
C20 C 0.5700(2) 0.7806(4) 0.4892(3)
H12 H 0.5907 0.8541 0.4845
C21 C 0.5001(3) 0.7776(4) 0.4859(4)
H13 H 0.4741 0.8488 0.4806
C22 C 0.4688(2) 0.6686(4) 0.4905(3)
H14 H 0.4215 0.6656 0.4881
C23 C 0.4725(2) 0.4465(4) 0.5063(2)
C24 C 0.6869(2) 0.6858(4) 0.5065(2)
C25 C 0.3674(2) 0.4431(4) 0.6586(3)
C26 C 0.3488(3) 0.5714(5) 0.6367(4)
H15 H 0.3174 0.5738 0.5876
H16 H 0.3911 0.6157 0.6399
H17 H 0.3259 0.6070 0.6685
C27 C 0.4309(3) 0.5099(6) 0.7823(3)
H18 H 0.4357 0.5875 0.7623
H19 H 0.4758 0.4850 0.8151
H20 H 0.3971 0.5151 0.8082
C28 C 0.4256(4) 0.2978(6) 0.7462(4)
H21 H 0.4127 0.2469 0.7039
H22 H 0.4007 0.2723 0.7787
H23 H 0.4756 0.2922 0.7703
Zn7 Zn 0.80989(2) 0.85309(3) 0.50652(2)
Zn10 Zn 0.81308(2) 0.56677(3) 0.50521(2)
O16 O 0.38271(14) 0.0220(3) 0.59778(14)
O17 O 0.47833(14) 0.1186(3) 0.59089(14)
O20 O 0.21963(14) 0.0885(2) 0.51615(16)
O21 O 0.21206(15) 0.2882(2) 0.50466(18)
O3 O 0.38271(14) 0.9780(3) 0.09778(14)
O4 O 0.47833(14) 0.8814(3) 0.09089(14)
C3 C 0.48278(19) 0.9750(3) 0.2009(2)
C4 C 0.5512(2) 0.9345(4) 0.2333(2)
H4 H 0.5747 0.8930 0.2060
C5 C 0.5845(2) 0.9560(4) 0.3060(2)
H5 H 0.6307 0.9298 0.3282
C8 C 0.4451(2) 0.9429(3) 0.1233(2)
Zn9 Zn 0.31308(2) 0.93323(3) 0.00521(2)
Zn5 Zn 0.446134(19) 0.79106(4) 0.998988(19)
C3_2 C 0.48278(19) 0.0250(3) 0.7009(2)
C4_2 C 0.5512(2) 0.0655(4) 0.7333(2)
H4_2 H 0.5747 0.1070 0.7060
C5_2 C 0.5845(2) 0.0440(4) 0.8060(2)
H5_2 H 0.6307 0.0702 0.8282
C8_2 C 0.4451(2) 0.0571(3) 0.6233(2)
O18 O 0.30458(17) 0.0754(2) 0.94511(15)
Zn3_2 Zn 0.30989(2) 0.64691(3) 0.00652(2)
O9_2 O 0.41587(17) 0.5494(3) 0.01921(19)
O10_2 O 0.50447(15) 0.6490(2) -0.00004(16)
O11_2 O 0.71963(14) 0.4115(2) 0.01615(16)
O12_2 O 0.71206(15) 0.2118(2) 0.00466(18)
O15_2 O 0.34471(18) 0.6365(3) 0.11349(16)
N1_2 N 0.4068(2) 0.5772(4) 0.2242(2)
C18_2 C 0.5778(2) 0.4316(3) 0.0026(2)
H11_2 H 0.6041 0.5023 0.0076
C23_2 C 0.4725(2) 0.5535(4) 0.0063(2)
C24_2 C 0.6869(2) 0.3142(4) 0.0065(2)
C25_2 C 0.3674(2) 0.5569(4) 0.1586(3)
C26_2 C 0.3488(3) 0.4286(5) 0.1367(4)
H15_2 H 0.3174 0.4262 0.0876
H16_2 H 0.3911 0.3843 0.1399
H17_2 H 0.3259 0.3930 0.1685
C27_2 C 0.4309(3) 0.4901(6) 0.2823(3)
H18_2 H 0.4357 0.4125 0.2623
H19_2 H 0.4758 0.5150 0.3151
H20_2 H 0.3971 0.4849 0.3082
C28_2 C 0.4256(4) 0.7022(6) 0.2462(4)
H21_2 H 0.4127 0.7531 0.2039
H22_2 H 0.4007 0.7277 0.2787
H23_2 H 0.4756 0.7078 0.2703
Zn7_2 Zn 0.80989(2) 0.14691(3) 0.00652(2)
Zn10_2 Zn 0.81308(2) 0.43323(3) 0.00521(2)
O20_2 O 0.21963(14) 0.9115(2) 0.01615(16)
O21_2 O 0.21206(15) 0.7118(2) 0.00466(18)
Zn2 Zn 0.31021(2) 0.78695(3) 0.86483(2)
O1_2 O 0.47001(15) 0.8905(2) 0.92592(13)
O2_2 O 0.39215(14) 0.8135(2) 0.82673(14)
O5_2 O 0.31071(15) 0.6006(2) 0.85201(15)
O6_2 O 0.27269(14) 0.5171(2) 0.93721(15)
O10_3 O 0.50447(15) 0.6490(2) 0.99996(16)
O13_2 O 0.34453(12) 0.78925(18) 0.97047(12)
O14_2 O 0.20677(14) 0.7667(2) 0.81660(16)
H1_2 H 0.1859 0.8265 0.8242
H2_2 H 0.1986 0.7576 0.7711
C1_2 C 0.4815(2) 0.9419(3) 0.8138(2)
C2_2 C 0.44854(19) 0.9633(3) 0.74096(19)
H3_2 H 0.4027 0.9355 0.7188
C6_2 C 0.5488(2) 0.9835(4) 0.8458(2)
H6_2 H 0.5708 0.9707 0.8952
C7_2 C 0.4442(2) 0.8773(3) 0.85862(19)
C9_2 C 0.27241(19) 0.3992(3) 0.8364(2)
C10_2 C 0.2845(2) 0.2917(3) 0.8734(2)
H7_2 H 0.2977 0.2916 0.9239
C11_2 C 0.27737(19) 0.1836(3) 0.8364(2)
C12_2 C 0.2569(2) 0.1848(3) 0.7621(2)
H8_2 H 0.2521 0.1124 0.7367
C13_2 C 0.2433(3) 0.2915(3) 0.7248(2)
H9_2 H 0.2278 0.2911 0.6742
C14_2 C 0.2525(2) 0.3998(3) 0.7620(2)
H10_2 H 0.2451 0.4726 0.7367
C15_2 C 0.2860(2) 0.5153(3) 0.8778(2)
C16_2 C 0.2923(2) 0.0667(3) 0.8775(2)
C17_2 C 0.5080(2) 0.4369(4) 0.9986(2)
C19_2 C 0.6093(2) 0.3212(3) 0.9992(2)
C20_2 C 0.5700(2) 0.2194(4) 0.9892(3)
H12_2 H 0.5907 0.1459 0.9845
C21_2 C 0.5001(3) 0.2224(4) 0.9859(4)
H13_2 H 0.4741 0.1512 0.9806
C22_2 C 0.4688(2) 0.3314(4) 0.9905(3)
H14_2 H 0.4215 0.3344 0.9881
O19 O 0.29093(17) 0.9731(2) 0.84387(16)
C17_3 C 0.0080(2) 0.0631(4) 0.4986(2)
C18_3 C 0.0778(2) 0.0684(3) 0.5026(2)
C19_3 C 0.1093(2) 0.1788(3) 0.4992(2)
C20_3 C 0.0700(2) 0.2806(4) 0.4892(3)
H12_3 H 0.0907 0.3541 0.4845
C21_3 C 0.0001(3) 0.2776(4) 0.4859(4)
C24_3 C 0.1869(2) 0.1858(4) 0.5065(2)
O7_2 O 0.80458(17) 0.4246(2) 0.44511(15)
O8_2 O 0.79093(17) 0.5269(2) 0.34387(16)
C9_3 C 0.77241(19) 0.1008(3) 0.3364(2)
C10_3 C 0.7845(2) 0.2083(3) 0.3734(2)
H7_3 H 0.7977 0.2084 0.4239
C11_3 C 0.77737(19) 0.3164(3) 0.3364(2)
C12_3 C 0.7569(2) 0.3152(3) 0.2621(2)
H8_3 H 0.7521 0.3876 0.2367
C13_3 C 0.7433(3) 0.2085(3) 0.2248(2)
H9_3 H 0.7278 0.2089 0.1742
C14_3 C 0.7525(2) 0.1002(3) 0.2620(2)
H10_3 H 0.7451 0.0274 0.2367
C16_3 C 0.7923(2) 0.4333(3) 0.3775(2)
H13_3 H 0.9741 0.3488 0.4806
C22_3 C 0.9688(2) 0.1686(4) 0.4905(3)
H14_3 H 0.9215 0.1656 0.4881
C26_3 C 0.8488(3) 0.0714(5) 0.6367(4)
H15_3 H 0.8174 0.0738 0.5876
H16_3 H 0.8911 0.1157 0.6399
H17_3 H 0.8259 0.1070 0.6685
C27_3 C 0.9309(3) 0.0099(6) 0.7823(3)
H18_3 H 0.9357 0.0875 0.7623
H20_3 H 0.8971 0.0151 0.8082
Zn6_2 Zn 0.81021(2) 0.71305(3) 0.36483(2)
Zn1_2 Zn 0.946134(19) 0.70894(4) 0.498988(19)
O1_3 O 0.97001(15) 0.6095(2) 0.42592(13)
O2_3 O 0.89215(14) 0.6865(2) 0.32673(14)
O3_2 O 0.88271(14) 0.4780(3) 0.09778(14)
O4_2 O 0.97833(14) 0.3814(3) 0.09089(14)
O5_3 O 0.81071(15) 0.8994(2) 0.35201(15)
O6_3 O 0.77269(14) 0.9829(2) 0.43721(15)
O9_3 O 0.91587(17) 0.9506(3) 0.51921(19)
O13_3 O 0.84453(12) 0.71075(18) 0.47047(12)
O14_3 O 0.70677(14) 0.7333(2) 0.31660(16)
H1_3 H 0.6859 0.6735 0.3242
H2_3 H 0.6986 0.7424 0.2711
O15_3 O 0.84471(18) 0.8635(3) 0.61349(16)
N1_3 N 0.9068(2) 0.9228(4) 0.7242(2)
C1_3 C 0.9815(2) 0.5581(3) 0.3138(2)
C2_3 C 0.94854(19) 0.5367(3) 0.24096(19)
H3_3 H 0.9027 0.5645 0.2188
C3_3 C 0.98278(19) 0.4750(3) 0.2009(2)
C7_3 C 0.9442(2) 0.6227(3) 0.35862(19)
C8_3 C 0.9451(2) 0.4429(3) 0.1233(2)
C15_3 C 0.7860(2) 0.9847(3) 0.3778(2)
C23_3 C 0.9725(2) 0.9465(4) 0.5063(2)
C25_3 C 0.8674(2) 0.9431(4) 0.6586(3)
H19_3 H 0.9758 0.9850 0.8151
C28_3 C 0.9256(4) 0.7978(6) 0.7462(4)
H21_3 H 0.9127 0.7469 0.7039
H22_3 H 0.9007 0.7723 0.7787
H23_3 H 0.9756 0.7922 0.7703
O16_2 O 0.88271(14) 0.5220(3) 0.59778(14)
O17_2 O 0.97833(14) 0.6186(3) 0.59089(14)
Zn5_2 Zn 0.946134(19) 0.29106(4) 0.998988(19)
C18_4 C 0.0778(2) 0.9316(3) 0.0026(2)
C24_4 C 0.1869(2) 0.8142(4) 0.0065(2)
O9_4 O 0.91587(17) 0.0494(3) 0.01921(19)
O15_4 O 0.84471(18) 0.1365(3) 0.11349(16)
N1_4 N 0.9068(2) 0.0772(4) 0.2242(2)
C23_4 C 0.9725(2) 0.0535(4) 0.0063(2)
C25_4 C 0.8674(2) 0.0569(4) 0.1586(3)
H19_4 H 0.9758 0.0150 0.3151
C28_4 C 0.9256(4) 0.2022(6) 0.2462(4)
H21_4 H 0.9127 0.2531 0.2039
H22_4 H 0.9007 0.2277 0.2787
H23_4 H 0.9756 0.2078 0.2703
Zn2_2 Zn 0.81021(2) 0.28695(3) 0.86483(2)
O1_4 O 0.97001(15) 0.3905(2) 0.92592(13)
O2_4 O 0.89215(14) 0.3135(2) 0.82673(14)
O5_4 O 0.81071(15) 0.1006(2) 0.85201(15)
O6_4 O 0.77269(14) 0.0171(2) 0.93721(15)
O13_4 O 0.84453(12) 0.28925(18) 0.97047(12)
O14_4 O 0.70677(14) 0.2667(2) 0.81660(16)
H1_4 H 0.6859 0.3265 0.8242
H2_4 H 0.6986 0.2576 0.7711
C1_4 C 0.9815(2) 0.4419(3) 0.8138(2)
C2_4 C 0.94854(19) 0.4633(3) 0.74096(19)
H3_4 H 0.9027 0.4355 0.7188
C3_4 C 0.98278(19) 0.5250(3) 0.7009(2)
C7_4 C 0.9442(2) 0.3773(3) 0.85862(19)
C8_4 C 0.9451(2) 0.5571(3) 0.6233(2)
C15_4 C 0.7860(2) 0.0153(3) 0.8778(2)
O18_2 O 0.80458(17) 0.5754(2) 0.94511(15)
O19_2 O 0.79093(17) 0.4731(2) 0.84387(16)
C26_4 C 0.8488(3) 0.9286(5) 0.1367(4)
H15_4 H 0.8174 0.9262 0.0876
H16_4 H 0.8911 0.8843 0.1399
H17_4 H 0.8259 0.8930 0.1685
C27_4 C 0.9309(3) 0.9901(6) 0.2823(3)
H18_4 H 0.9357 0.9125 0.2623
H20_4 H 0.8971 0.9849 0.3082
C9_4 C 0.77241(19) 0.8992(3) 0.8364(2)
C10_4 C 0.7845(2) 0.7917(3) 0.8734(2)
H7_4 H 0.7977 0.7916 0.9239
C11_4 C 0.77737(19) 0.6836(3) 0.8364(2)
C12_4 C 0.7569(2) 0.6848(3) 0.7621(2)
H8_4 H 0.7521 0.6124 0.7367
C13_4 C 0.7433(3) 0.7915(3) 0.7248(2)
H9_4 H 0.7278 0.7911 0.6742
C14_4 C 0.7525(2) 0.8998(3) 0.7620(2)
H10_4 H 0.7451 0.9726 0.7367
C16_4 C 0.7923(2) 0.5667(3) 0.8775(2)
H13_4 H 0.9741 0.6512 0.9806
C22_4 C 0.9688(2) 0.8314(4) 0.9905(3)
H14_4 H 0.9215 0.8344 0.9881
O10_4 O 0.00447(15) 0.8510(2) 0.49996(16)
C4_3 C 0.0512(2) 0.4345(4) 0.2333(2)
H4_3 H 0.0747 0.3930 0.2060
C5_3 C 0.0845(2) 0.4560(4) 0.3060(2)
H5_3 H 0.1307 0.4298 0.3282
C6_3 C 0.0488(2) 0.5165(4) 0.3458(2)
H6_3 H 0.0708 0.5293 0.3952
H11_3 H 0.1041 0.9977 0.5076
O10_5 O 0.00447(15) 0.1490(2) -0.00004(16)
H11_4 H 0.1041 0.0023 0.0076
O10_6 O 0.00447(15) 0.1490(2) 0.99996(16)
C4_4 C 0.0512(2) 0.5655(4) 0.7333(2)
H4_4 H 0.0747 0.6070 0.7060
C5_4 C 0.0845(2) 0.5440(4) 0.8060(2)
H5_4 H 0.1307 0.5702 0.8282
C6_4 C 0.0488(2) 0.4835(4) 0.8458(2)
H6_4 H 0.0708 0.4707 0.8952
C17_4 C 0.0080(2) 0.9369(4) 0.9986(2)
C19_4 C 0.1093(2) 0.8212(3) 0.9992(2)
C20_4 C 0.0700(2) 0.7194(4) 0.9892(3)
H12_4 H 0.0907 0.6459 0.9845
C21_4 C 0.0001(3) 0.7224(4) 0.9859(4)
loop_
_geom_bond_atom_site_label_1
_geom_bond_atom_site_label_2
_geom_bond_site_symmetry_1
_geom_bond_site_symmetry_2
Zn6 O8 1_555 1_555
Zn1 O1 1_555 1_555
Zn6 O2 1_555 1_555
Zn3 O6 1_555 1_555
Zn8 O13 1_555 1_555
O1 C7 1_555 1_555
O2 C7 1_555 1_555
O5 Zn6 1_555 1_555
O6 C15 1_555 1_555
O7 C16 1_555 1_555
O9 Zn3 1_555 1_555
O10 Zn1 1_555 1_555
O11 C24 1_555 1_555
O12 C24 1_555 1_555
O13 Zn1 1_555 1_555
O14 Zn6 1_555 1_555
H1 O14 1_555 1_555
H2 O14 1_555 1_555
O15 Zn3 1_555 1_555
N1 C25 1_555 1_555
C1 C2 1_555 1_555
C2 H3 1_555 1_555
C6 C1 1_555 1_555
H6 C6 1_555 1_555
C7 C1 1_555 1_555
C9 C10 1_555 1_555
C10 H7 1_555 1_555
C11 C10 1_555 1_555
C12 C11 1_555 1_555
H8 C12 1_555 1_555
C13 C12 1_555 1_555
H9 C13 1_555 1_555
C14 C9 1_555 1_555
H10 C14 1_555 1_555
C15 O5 1_555 1_555
C16 C11 1_555 1_555
C17 C18 1_555 1_555
C18 H11 1_555 1_555
C19 C18 1_555 1_555
C20 C19 1_555 1_555
H12 C20 1_555 1_555
C21 C20 1_555 1_555
H13 C21 1_555 1_555
C22 C17 1_555 1_555
H14 C22 1_555 1_555
C23 O9 1_555 1_555
C24 C19 1_555 1_555
C25 O15 1_555 1_555
C26 C25 1_555 1_555
H15 C26 1_555 1_555
H16 C26 1_555 1_555
H17 C26 1_555 1_555
C27 N1 1_555 1_555
H18 C27 1_555 1_555
H19 C27 1_555 1_555
H20 C27 1_555 1_555
C28 N1 1_555 1_555
H21 C28 1_555 1_555
H22 C28 1_555 1_555
H23 C28 1_555 1_555
Zn7 O12 1_555 1_555
Zn10 O11 1_555 1_555
O16 Zn8 1_555 1_555
O17 Zn1 1_555 1_555
O20 Zn8 1_555 1_555
O21 Zn3 1_555 1_555
Zn6 O13 1_555 1_555
Zn3 O13 1_555 1_555
O10 C23 1_555 1_555
C9 C15 1_555 1_555
C13 C14 1_555 1_555
C17 C23 1_555 1_555
C21 C22 1_555 1_555
O3 C8 1_555 1_555
O4 C8 1_555 1_555
C4 C3 1_555 1_555
H4 C4 1_555 1_555
C5 C4 1_555 1_555
H5 C5 1_555 1_555
C8 C3 1_555 1_555
Zn9 O3 1_555 1_555
O16 C8_2 1_555 1_555
O17 C8_2 1_555 1_555
C4_2 C3_2 1_555 1_555
H4_2 C4_2 1_555 1_555
C5_2 C4_2 1_555 1_555
H5_2 C5_2 1_555 1_555
C8_2 C3_2 1_555 1_555
O9_2 Zn3_2 1_555 1_555
O11_2 C24_2 1_555 1_555
O12_2 C24_2 1_555 1_555
O15_2 Zn3_2 1_555 1_555
N1_2 C25_2 1_555 1_555
C18_2 H11_2 1_555 1_555
C23_2 O9_2 1_555 1_555
C25_2 O15_2 1_555 1_555
C26_2 C25_2 1_555 1_555
H15_2 C26_2 1_555 1_555
H16_2 C26_2 1_555 1_555
H17_2 C26_2 1_555 1_555
C27_2 N1_2 1_555 1_555
H18_2 C27_2 1_555 1_555
H19_2 C27_2 1_555 1_555
H20_2 C27_2 1_555 1_555
C28_2 N1_2 1_555 1_555
H21_2 C28_2 1_555 1_555
H22_2 C28_2 1_555 1_555
H23_2 C28_2 1_555 1_555
Zn7_2 O12_2 1_555 1_555
Zn10_2 O11_2 1_555 1_555
O20_2 Zn9 1_555 1_555
O21_2 Zn3_2 1_555 1_555
O10_2 C23_2 1_555 1_555
Zn5 O1_2 1_555 1_555
Zn2 O2_2 1_555 1_555
O1_2 C7_2 1_555 1_555
O2_2 C7_2 1_555 1_555
O5_2 Zn2 1_555 1_555
O6_2 C15_2 1_555 1_555
O18 C16_2 1_555 1_555
O10_3 Zn5 1_555 1_555
O13_2 Zn5 1_555 1_555
O14_2 Zn2 1_555 1_555
H1_2 O14_2 1_555 1_555
H2_2 O14_2 1_555 1_555
C1_2 C2_2 1_555 1_555
C2_2 H3_2 1_555 1_555
C6_2 C1_2 1_555 1_555
H6_2 C6_2 1_555 1_555
C7_2 C1_2 1_555 1_555
C9_2 C10_2 1_555 1_555
C10_2 H7_2 1_555 1_555
C11_2 C10_2 1_555 1_555
C12_2 C11_2 1_555 1_555
H8_2 C12_2 1_555 1_555
C13_2 C12_2 1_555 1_555
H9_2 C13_2 1_555 1_555
C14_2 C9_2 1_555 1_555
H10_2 C14_2 1_555 1_555
C15_2 O5_2 1_555 1_555
C16_2 C11_2 1_555 1_555
C20_2 C19_2 1_555 1_555
H12_2 C20_2 1_555 1_555
C21_2 C20_2 1_555 1_555
H13_2 C21_2 1_555 1_555
C22_2 C17_2 1_555 1_555
H14_2 C22_2 1_555 1_555
O19 Zn2 1_555 1_555
Zn2 O13_2 1_555 1_555
C9_2 C15_2 1_555 1_555
C13_2 C14_2 1_555 1_555
C21_2 C22_2 1_555 1_555
O20 C24_3 1_555 1_555
O21 C24_3 1_555 1_555
C17_3 C18_3 1_555 1_555
C19_3 C18_3 1_555 1_555
C20_3 C19_3 1_555 1_555
H12_3 C20_3 1_555 1_555
C21_3 C20_3 1_555 1_555
C24_3 C19_3 1_555 1_555
O7_2 C16_3 1_555 1_555
O8_2 C16_3 1_555 1_555
C9_3 C10_3 1_555 1_555
C10_3 H7_3 1_555 1_555
C11_3 C10_3 1_555 1_555
C12_3 C11_3 1_555 1_555
H8_3 C12_3 1_555 1_555
C13_3 C12_3 1_555 1_555
H9_3 C13_3 1_555 1_555
C14_3 C9_3 1_555 1_555
H10_3 C14_3 1_555 1_555
C16_3 C11_3 1_555 1_555
H14_3 C22_3 1_555 1_555
H15_3 C26_3 1_555 1_555
H16_3 C26_3 1_555 1_555
H17_3 C26_3 1_555 1_555
H18_3 C27_3 1_555 1_555
H20_3 C27_3 1_555 1_555
Zn6_2 O8_2 1_555 1_555
Zn10 O7_2 1_555 1_555
C13_3 C14_3 1_555 1_555
Zn1_2 O1_3 1_555 1_555
Zn6_2 O2_3 1_555 1_555
Zn7 O6_3 1_555 1_555
Zn10 O13_3 1_555 1_555
O1_3 C7_3 1_555 1_555
O2_3 C7_3 1_555 1_555
O3_2 C8_3 1_555 1_555
O4_2 C8_3 1_555 1_555
O5_3 Zn6_2 1_555 1_555
O6_3 C15_3 1_555 1_555
O9_3 Zn7 1_555 1_555
O13_3 Zn1_2 1_555 1_555
O14_3 Zn6_2 1_555 1_555
H1_3 O14_3 1_555 1_555
H2_3 O14_3 1_555 1_555
O15_3 Zn7 1_555 1_555
N1_3 C25_3 1_555 1_555
C1_3 C2_3 1_555 1_555
C2_3 H3_3 1_555 1_555
C3_3 C2_3 1_555 1_555
C7_3 C1_3 1_555 1_555
C8_3 C3_3 1_555 1_555
C15_3 O5_3 1_555 1_555
C23_3 O9_3 1_555 1_555
C25_3 O15_3 1_555 1_555
C28_3 N1_3 1_555 1_555
H21_3 C28_3 1_555 1_555
H22_3 C28_3 1_555 1_555
H23_3 C28_3 1_555 1_555
Zn10_2 O3_2 1_555 1_555
O16_2 Zn10 1_555 1_555
O17_2 Zn1_2 1_555 1_555
Zn6_2 O13_3 1_555 1_555
Zn7 O13_3 1_555 1_555
O20_2 C24_4 1_555 1_555
O21_2 C24_4 1_555 1_555
O9_4 Zn7_2 1_555 1_555
O15_4 Zn7_2 1_555 1_555
N1_4 C25_4 1_555 1_555
C23_4 O9_4 1_555 1_555
C25_4 O15_4 1_555 1_555
C28_4 N1_4 1_555 1_555
H21_4 C28_4 1_555 1_555
H22_4 C28_4 1_555 1_555
H23_4 C28_4 1_555 1_555
Zn5_2 O1_4 1_555 1_555
Zn2_2 O2_4 1_555 1_555
O1_4 C7_4 1_555 1_555
O2_4 C7_4 1_555 1_555
O16_2 C8_4 1_555 1_555
O17_2 C8_4 1_555 1_555
O5_4 Zn2_2 1_555 1_555
O6_4 C15_4 1_555 1_555
O13_4 Zn5_2 1_555 1_555
O14_4 Zn2_2 1_555 1_555
H1_4 O14_4 1_555 1_555
H2_4 O14_4 1_555 1_555
C1_4 C2_4 1_555 1_555
C2_4 H3_4 1_555 1_555
C3_4 C2_4 1_555 1_555
C7_4 C1_4 1_555 1_555
C8_4 C3_4 1_555 1_555
C15_4 O5_4 1_555 1_555
O19_2 Zn2_2 1_555 1_555
Zn2_2 O13_4 1_555 1_555
H15_4 C26_4 1_555 1_555
H16_4 C26_4 1_555 1_555
H17_4 C26_4 1_555 1_555
H18_4 C27_4 1_555 1_555
H20_4 C27_4 1_555 1_555
O18_2 C16_4 1_555 1_555
O19_2 C16_4 1_555 1_555
C9_4 C10_4 1_555 1_555
C10_4 H7_4 1_555 1_555
C11_4 C10_4 1_555 1_555
C12_4 C11_4 1_555 1_555
H8_4 C12_4 1_555 1_555
C13_4 C12_4 1_555 1_555
H9_4 C13_4 1_555 1_555
C14_4 C9_4 1_555 1_555
H10_4 C14_4 1_555 1_555
C16_4 C11_4 1_555 1_555
H14_4 C22_4 1_555 1_555
C13_4 C14_4 1_555 1_555
H4_3 C4_3 1_555 1_555
C5_3 C4_3 1_555 1_555
H5_3 C5_3 1_555 1_555
H6_3 C6_3 1_555 1_555
C5_3 C6_3 1_555 1_555
H4_4 C4_4 1_555 1_555
C5_4 C4_4 1_555 1_555
H5_4 C5_4 1_555 1_555
H6_4 C6_4 1_555 1_555
C5_4 C6_4 1_555 1_555
C20_4 C19_4 1_555 1_555
H12_4 C20_4 1_555 1_555
C21_4 C20_4 1_555 1_555

#END
