
###############################################################################
#
# This file contains modified crystal structure data generated from the
# MOF subset of the Cambridge Structural Database (CSD) v543 
# hosted by the Cambridge Crystallographic Data Centre (CCDC).
#
# This work is licensed under the Creative Commons
# Attribution-NonCommercial-ShareAlike 4.0 International License.
# To view a copy of this license, visit
# http://creativecommons.org/licenses/by-nc-sa/4.0/
# or send a letter to
# Creative Commons, PO Box 1866, Mountain View, CA 94042, USA.
#
# CIF created using the CSD Python API on 29 September 2022
# The structure has been converted into the P1 space group
# The structure has a 3D framework
# The original CSD entry TOJGEH is in the triclinic crystal system
# The framework has been calculated to contain at least 10.0% void space
# The void calculation uses a probe of radius 1.32A, grid spacing 0.4
#
###############################################################################

data_TOJGEH
_chemical_formula_moiety         '(C54 H42 Cd3 N26 O15)n'
_symmetry_cell_setting           triclinic
_symmetry_space_group_name_H-M   'P 1'
_symmetry_Int_Tables_number      1
_space_group_name_Hall           'P 1'
loop_
_symmetry_equiv_pos_site_id
_symmetry_equiv_pos_as_xyz
1 x,y,z
_cell_length_a                   9.5831(4)
_cell_length_b                   11.0185(4)
_cell_length_c                   18.1438(7)
_cell_angle_alpha                80.8790(10)
_cell_angle_beta                 83.2000(10)
_cell_angle_gamma                68.2550(10)
_cell_volume                     1753.28
loop_
_atom_site_label
_atom_site_type_symbol
_atom_site_fract_x
_atom_site_fract_y
_atom_site_fract_z
C26 C 0.2364(4) 0.4028(3) 0.0470(2)
H20 H 0.1792 0.3811 0.0884
C27 C 0.1970(4) 0.5329(3) 0.0182(2)
H21 H 0.1155 0.5967 0.0398
N1 N 0.3512(3) 0.3056(2) 0.01957(15)
Cd4 Cd 0.41041(2) 0.09278(2) 0.08793(2)
O2 O 0.6297(2) 0.0093(2) 0.01874(12)
N15 N 0.1558(3) 0.1243(2) 0.07956(14)
O10 O 0.4796(2) 0.1948(2) 0.17135(13)
C4 C 0.1054(4) 0.0493(3) 0.65108(18)
C6 C 0.1490(4) 0.1689(3) 0.63152(19)
H5 H 0.1043 0.2279 0.6693
H6 H 0.2575 0.1423 0.6312
C9 C 0.3679(3) 0.2461(3) 0.21401(17)
C10 C 0.3748(3) 0.3434(3) 0.26101(16)
C11 C 0.3039(4) 0.4751(3) 0.34161(18)
H7 H 0.2491 0.5262 0.3788
C12 C 0.1638(4) 0.2118(3) 0.4903(2)
H8 H 0.2565 0.1465 0.4809
C13 C 0.5237(4) 0.5500(3) 0.32405(18)
H9 H 0.6303 0.4976 0.3195
H10 H 0.4995 0.5724 0.3748
C14 C 0.4932(3) 0.6750(3) 0.27051(16)
C15 C 0.3613(4) 0.7357(3) 0.23453(19)
H11 H 0.2865 0.6993 0.2423
C16 C 0.3411(4) 0.8502(3) 0.18726(19)
H12 H 0.2512 0.8903 0.1638
C17 C 0.5999(3) 0.7330(3) 0.25692(17)
H13 H 0.6901 0.6952 0.2803
C18 C 0.5719(4) 0.8477(3) 0.20841(18)
H14 H 0.6452 0.8857 0.1997
C19 C 0.7621(3) 0.9661(3) 0.04225(17)
Cd2 Cd 0.04302(3) 0.35777(2) 0.30396(2)
N5 N 0.4449(3) 0.9068(2) 0.17329(14)
N6 N 0.4381(3) 0.4713(2) 0.31116(14)
N7 N 0.4866(3) 0.3868(2) 0.25834(14)
N8 N 0.2606(3) 0.3957(3) 0.31110(14)
N10 N 0.0764(3) 0.2919(3) 0.43871(15)
N11 N 0.0993(3) 0.2382(3) 0.55851(15)
O1 O 0.7959(2) 0.9790(2) 0.10273(12)
O4 O 0.2468(2) 0.2250(2) 0.22105(13)
O6 O 0.0047(3) 0.5389(3) 0.20509(17)
C1 C 0.0709(5) 0.0573(4) 0.3452(3)
H1 H 0.1665 0.0519 0.3544
C20 C 0.1191(3) 0.1062(3) 0.01324(16)
C21 C 0.0245(3) 0.1915(3) 0.11193(17)
H15 H 0.0107 0.2199 0.1588
C22 C 0.2440(3) 0.7092(3) 0.92175(18)
H16 H 0.3027 0.7479 0.9437
H17 H 0.2725 0.7110 0.8686
C23 C 0.2801(3) 0.5680(3) 0.95676(17)
C24 C 0.3988(3) 0.4682(3) 0.92829(18)
H18 H 0.4576 0.4873 0.8868
C25 C 0.4310(4) 0.3398(3) 0.96091(18)
H19 H 0.5126 0.2742 0.9408
N2 N 0.0842(3) 0.7876(2) 0.93269(14)
N3 N 0.0264(3) 0.8414(2) 0.99696(13)
C20_2 C 0.8809(3) 0.8938(3) 0.98676(16)
C21_2 C 0.9755(3) 0.8085(3) 0.88807(17)
H15_2 H 0.9893 0.7801 0.8412
N4 N 0.8442(3) 0.8757(2) 0.92044(14)
Cd5 Cd 0.58959(2) 0.90722(2) 0.91207(2)
O9 O 0.3703(2) 0.9907(2) 0.98126(12)
C1_2 C 0.9291(5) 0.9427(4) 0.6548(3)
H1_2 H 0.8335 0.9481 0.6456
Cd6 Cd 0.95698(3) 0.64223(2) 0.69604(2)
C4_2 C 0.8946(4) 0.9507(3) 0.34892(18)
C6_2 C 0.8510(4) 0.8311(3) 0.36848(19)
H5_2 H 0.8957 0.7721 0.3307
H6_2 H 0.7425 0.8577 0.3688
C9_2 C 0.6321(3) 0.7539(3) 0.78599(17)
C10_2 C 0.6252(3) 0.6566(3) 0.73899(16)
C11_2 C 0.6961(4) 0.5249(3) 0.65839(18)
H7_2 H 0.7509 0.4738 0.6212
C12_2 C 0.8362(4) 0.7882(3) 0.5097(2)
H8_2 H 0.7435 0.8535 0.5191
C13_2 C 0.4763(4) 0.4500(3) 0.67595(18)
H9_2 H 0.3697 0.5024 0.6805
H10_2 H 0.5005 0.4276 0.6252
C14_2 C 0.5068(3) 0.3250(3) 0.72949(16)
C15_2 C 0.6387(4) 0.2643(3) 0.76547(19)
H11_2 H 0.7135 0.3007 0.7577
C16_2 C 0.6589(4) 0.1498(3) 0.81274(19)
H12_2 H 0.7488 0.1097 0.8362
C17_2 C 0.4001(3) 0.2670(3) 0.74308(17)
H13_2 H 0.3099 0.3048 0.7197
C18_2 C 0.4281(4) 0.1523(3) 0.79159(18)
H14_2 H 0.3548 0.1143 0.8003
C19_2 C 0.2379(3) 0.0339(3) 0.95775(17)
N5_2 N 0.5551(3) 0.0932(2) 0.82671(14)
N6_2 N 0.5619(3) 0.5287(2) 0.68884(14)
N7_2 N 0.5134(3) 0.6132(2) 0.74166(14)
N8_2 N 0.7394(3) 0.6043(3) 0.68890(14)
N10_2 N 0.9236(3) 0.7081(3) 0.56129(15)
N11_2 N 0.9007(3) 0.7618(3) 0.44149(15)
O1_2 O 0.2041(2) 0.0210(2) 0.89727(12)
O3 O 0.5204(2) 0.8052(2) 0.82865(13)
O4_2 O 0.7532(2) 0.7750(2) 0.77895(13)
O6_2 O 0.9953(3) 0.4611(3) 0.79491(17)
N14 N 0.6488(3) 0.6944(2) 0.98043(15)
C26_2 C 0.7636(4) 0.5972(3) 0.9530(2)
H20_2 H 0.8208 0.6189 0.9116
C27_2 C 0.8030(4) 0.4671(3) 0.9818(2)
H21_2 H 0.8845 0.4033 0.9602
C2 C 0.1570(4) 0.8245(3) 0.6983(2)
H2 H 0.2248 0.7452 0.7194
C3 C 0.2017(4) 0.9322(3) 0.6838(2)
H3 H 0.2961 0.9252 0.6961
N13 N 0.0247(3) 0.8274(3) 0.68392(15)
C5 C 0.0353(4) 0.9465(4) 0.3623(2)
H4 H 0.1058 0.8683 0.3830
C7 C 0.0429(3) 0.6312(3) 0.52184(18)
C8 C 0.1684(4) 0.5214(3) 0.55900(19)
N9 N 0.0966(4) 0.4750(3) 0.82633(19)
N12 N 0.0351(3) 0.6610(3) 0.44809(15)
O5 O 0.1331(3) 0.5681(3) 0.79525(14)
O7 O 0.1527(2) 0.5011(2) 0.62867(13)
O8 O 0.2772(3) 0.4586(3) 0.51830(14)
C5_2 C 0.9647(4) 0.0535(4) 0.6377(2)
H4_2 H 0.8942 0.1317 0.6170
C7_2 C 0.9571(3) 0.3688(3) 0.47816(18)
C8_2 C 0.8316(4) 0.4786(3) 0.44100(19)
N9_2 N 0.9034(4) 0.5250(3) 0.17367(19)
N12_2 N 0.9649(3) 0.3390(3) 0.55191(15)
O5_2 O 0.8669(3) 0.4319(3) 0.20475(14)
O7_2 O 0.8473(2) 0.4989(2) 0.37133(13)
O8_2 O 0.7228(3) 0.5414(3) 0.48170(14)
N16 N 0.9753(3) 0.1726(3) 0.31608(15)
C2_2 C 0.8430(4) 0.1755(3) 0.3017(2)
H2_2 H 0.7752 0.2548 0.2806
C3_2 C 0.7983(4) 0.0678(3) 0.3162(2)
H3_2 H 0.7039 0.0748 0.3039
C22_2 C 0.7560(3) 0.2908(3) 0.07825(18)
H16_2 H 0.6973 0.2521 0.0563
H17_2 H 0.7275 0.2890 0.1314
C23_2 C 0.7199(3) 0.4320(3) 0.04324(17)
C24_2 C 0.6012(3) 0.5318(3) 0.07171(18)
H18_2 H 0.5424 0.5127 0.1132
C25_2 C 0.5690(4) 0.6602(3) 0.03909(18)
H19_2 H 0.4874 0.7258 0.0592
N2_2 N 0.9158(3) 0.2124(2) 0.06731(14)
N3_2 N 0.9736(3) 0.1586(2) 0.00304(13)
loop_
_geom_bond_atom_site_label_1
_geom_bond_atom_site_label_2
_geom_bond_site_symmetry_1
_geom_bond_site_symmetry_2
C26 H20 1_555 1_555
H21 C27 1_555 1_555
Cd4 N1 1_555 1_555
C26 C27 1_555 1_555
C26 N1 1_555 1_555
N15 Cd4 1_555 1_555
O10 Cd4 1_555 1_555
Cd4 O2 1_555 1_555
C6 C4 1_555 1_555
H5 C6 1_555 1_555
H6 C6 1_555 1_555
C9 C10 1_555 1_555
C10 N7 1_555 1_555
C11 H7 1_555 1_555
C12 H8 1_555 1_555
C13 H9 1_555 1_555
H10 C13 1_555 1_555
C14 C13 1_555 1_555
C15 C14 1_555 1_555
H11 C15 1_555 1_555
C16 C15 1_555 1_555
H12 C16 1_555 1_555
C17 C14 1_555 1_555
H13 C17 1_555 1_555
C18 C17 1_555 1_555
H14 C18 1_555 1_555
Cd2 N8 1_555 1_555
N5 C16 1_555 1_555
N6 C11 1_555 1_555
N7 N6 1_555 1_555
N8 C10 1_555 1_555
N11 C6 1_555 1_555
O1 C19 1_555 1_555
O10 C9 1_555 1_555
O4 C9 1_555 1_555
O6 Cd2 1_555 1_555
C11 N8 1_555 1_555
C12 N10 1_555 1_555
C12 N11 1_555 1_555
C13 N6 1_555 1_555
C18 N5 1_555 1_555
Cd2 N10 1_555 1_555
Cd2 O4 1_555 1_555
C1 H1 1_555 1_555
C21 H15 1_555 1_555
N15 C20 1_555 1_555
C21 N15 1_555 1_555
C22 H16 1_555 1_555
H17 C22 1_555 1_555
C23 C22 1_555 1_555
C24 C23 1_555 1_555
H18 C24 1_555 1_555
C25 C24 1_555 1_555
H19 C25 1_555 1_555
N3 N2 1_555 1_555
C22 N2 1_555 1_555
C21_2 H15_2 1_555 1_555
N4 C20_2 1_555 1_555
Cd5 N4 1_555 1_555
C21_2 N4 1_555 1_555
Cd5 O9 1_555 1_555
C1_2 H1_2 1_555 1_555
C6_2 C4_2 1_555 1_555
H5_2 C6_2 1_555 1_555
H6_2 C6_2 1_555 1_555
C9_2 C10_2 1_555 1_555
C10_2 N7_2 1_555 1_555
C11_2 H7_2 1_555 1_555
C12_2 H8_2 1_555 1_555
C13_2 H9_2 1_555 1_555
H10_2 C13_2 1_555 1_555
C14_2 C13_2 1_555 1_555
C15_2 C14_2 1_555 1_555
H11_2 C15_2 1_555 1_555
C16_2 C15_2 1_555 1_555
H12_2 C16_2 1_555 1_555
C17_2 C14_2 1_555 1_555
H13_2 C17_2 1_555 1_555
C18_2 C17_2 1_555 1_555
H14_2 C18_2 1_555 1_555
Cd6 N8_2 1_555 1_555
N5_2 C16_2 1_555 1_555
N6_2 C11_2 1_555 1_555
N7_2 N6_2 1_555 1_555
N8_2 C10_2 1_555 1_555
N11_2 C6_2 1_555 1_555
O1_2 C19_2 1_555 1_555
O3 C9_2 1_555 1_555
O4_2 C9_2 1_555 1_555
O6_2 Cd6 1_555 1_555
Cd5 O3 1_555 1_555
C11_2 N8_2 1_555 1_555
C12_2 N10_2 1_555 1_555
C12_2 N11_2 1_555 1_555
C13_2 N6_2 1_555 1_555
C18_2 N5_2 1_555 1_555
Cd6 N10_2 1_555 1_555
Cd6 O4_2 1_555 1_555
N14 Cd5 1_555 1_555
C26_2 H20_2 1_555 1_555
H21_2 C27_2 1_555 1_555
C26_2 C27_2 1_555 1_555
C26_2 N14 1_555 1_555
C2 H2 1_555 1_555
C3 C2 1_555 1_555
H3 C3 1_555 1_555
C2 N13 1_555 1_555
H4 C5 1_555 1_555
C7 C8 1_555 1_555
C8 O7 1_555 1_555
N9 O5 1_555 1_555
N12 C7 1_555 1_555
O8 C8 1_555 1_555
H4_2 C5_2 1_555 1_555
C7_2 C8_2 1_555 1_555
C8_2 O7_2 1_555 1_555
N9_2 O5_2 1_555 1_555
N12_2 C7_2 1_555 1_555
O8_2 C8_2 1_555 1_555
C2_2 H2_2 1_555 1_555
C3_2 C2_2 1_555 1_555
H3_2 C3_2 1_555 1_555
C2_2 N16 1_555 1_555
C22_2 H16_2 1_555 1_555
H17_2 C22_2 1_555 1_555
C23_2 C22_2 1_555 1_555
C24_2 C23_2 1_555 1_555
H18_2 C24_2 1_555 1_555
C25_2 C24_2 1_555 1_555
H19_2 C25_2 1_555 1_555
N3_2 N2_2 1_555 1_555
C22_2 N2_2 1_555 1_555

#END
