
###############################################################################
#
# This file contains modified crystal structure data generated from the
# MOF subset of the Cambridge Structural Database (CSD) v543 
# hosted by the Cambridge Crystallographic Data Centre (CCDC).
#
# This work is licensed under the Creative Commons
# Attribution-NonCommercial-ShareAlike 4.0 International License.
# To view a copy of this license, visit
# http://creativecommons.org/licenses/by-nc-sa/4.0/
# or send a letter to
# Creative Commons, PO Box 1866, Mountain View, CA 94042, USA.
#
# CIF created using the CSD Python API on 29 September 2022
# The structure has been converted into the P1 space group
# The structure has a 3D framework
# The original CSD entry TOJPOZ is in the monoclinic crystal system
# The framework has been calculated to contain at least 10.0% void space
# The void calculation uses a probe of radius 1.32A, grid spacing 0.4
#
###############################################################################

data_TOJPOZ
_chemical_formula_moiety         '(C88 H56 N24 O54 Sm8)n'
_symmetry_cell_setting           triclinic
_symmetry_space_group_name_H-M   'P 1'
_symmetry_Int_Tables_number      1
_space_group_name_Hall           'P 1'
loop_
_symmetry_equiv_pos_site_id
_symmetry_equiv_pos_as_xyz
1 x,y,z
_cell_length_a                   28.162(12)
_cell_length_b                   7.011(3)
_cell_length_c                   16.602(7)
_cell_angle_alpha                90
_cell_angle_beta                 125.162(4)
_cell_angle_gamma                90
_cell_volume                     2679.82
loop_
_atom_site_label
_atom_site_type_symbol
_atom_site_fract_x
_atom_site_fract_y
_atom_site_fract_z
Sm5 Sm 0.21041(2) 0.11244(8) 0.36275(4)
Sm1 Sm 0.28959(2) 0.61244(8) 0.13725(4)
O1 O 0.2116(3) 0.3928(11) 0.0292(6)
O2 O 0.2050(3) 0.7843(11) 0.0064(5)
O3 O 0.2345(3) 0.6955(14) 0.1982(6)
O4 O 0.2967(3) 0.9189(10) 0.1497(5)
O7 O 0.1907(4) 0.8461(12) 0.2548(6)
C3 C 0.1909(5) 0.7651(16) 0.1872(8)
H1 H 0.2794 0.9810 0.0959
H2 H 0.3077 0.9984 0.1959
C5 C 0.1342(4) 0.7543(15) 0.0896(7)
N3 N 0.0842(4) 0.7550(13) 0.0854(6)
H3 H 0.0821 0.7549 0.1351
O9 O 0.3198(3) 0.3443(11) 0.0809(6)
C12 C 0.2810(5) 0.2349(15) 0.0134(8)
O18 O 0.3769(3) 0.7045(13) 0.1410(5)
N8 N 0.3776(4) 0.7020(16) 0.3250(7)
O19 O 0.3093(4) 0.3461(12) 0.2452(6)
O5 O 0.1802(3) 0.1557(11) 0.9191(6)
O6 O 0.1231(3) 0.7955(13) 0.8590(5)
C1 C 0.2190(5) 0.2651(15) 0.9866(8)
C2 C 0.1501(5) 0.7756(15) 0.9516(8)
C4 C 0.1167(5) 0.7577(15) 0.9932(7)
N2 N 0.0565(4) 0.7588(13) 0.9317(7)
C6 C 0.0392(5) 0.7560(14) 0.9904(7)
O8 O 0.2884(3) 0.1072(11) 0.9708(6)
Sm7 Sm 0.21041(2) 0.88756(8) 0.86275(4)
O16 O 0.2950(3) 0.7157(11) 0.9936(5)
O20 O 0.1907(4) 0.1539(12) 0.7548(6)
N4 N 0.6224(4) 0.7020(16) 0.1750(7)
C13 C 0.3499(5) 0.7244(15) 0.0484(8)
C15 C 0.3833(5) 0.7423(15) 0.0068(7)
N5 N 0.4435(4) 0.7412(13) 0.0683(7)
C17 C 0.4608(5) 0.7440(14) 0.0096(7)
C18 C 0.5215(5) 0.7430(15) 0.0417(8)
C20 C 0.5658(5) 0.7084(18) 0.1405(8)
C21 C 0.5947(5) 0.7671(19) 0.0120(9)
H12 H 0.5558 0.6891 0.1845
C22 C 0.6359(5) 0.7392(17) 0.1118(8)
H14 H 0.6750 0.7468 0.1359
Sm4 Sm 0.71041(2) 0.61244(8) 0.36275(4)
O11 O 0.2655(3) 0.8045(14) 0.8018(6)
O12 O 0.2033(3) 0.5811(10) 0.8503(5)
O14 O 0.3093(4) 0.6539(12) 0.7452(6)
C14 C 0.3091(5) 0.7349(16) 0.8128(8)
H8 H 0.2206 0.5190 0.9041
H9 H 0.1923 0.5016 0.8041
C16 C 0.3658(4) 0.7457(15) 0.9104(7)
N6 N 0.4158(4) 0.7450(13) 0.9146(6)
H10 H 0.4179 0.7451 0.8649
C19 C 0.5376(5) 0.7681(19) 0.9781(9)
H11 H 0.5091 0.7859 0.9113
H13 H 0.6056 0.7847 0.9692
Sm6 Sm 0.28959(2) 0.38756(8) 0.63725(4)
N7 N 0.1224(4) 0.7980(16) 0.6750(7)
N1 N 0.8776(4) 0.7980(16) 0.8250(7)
C7 C 0.9785(5) 0.7570(15) 0.9583(8)
C9 C 0.9342(5) 0.7916(18) 0.8595(8)
C10 C 0.9053(5) 0.7329(19) 0.9880(9)
H5 H 0.9442 0.8109 0.8155
C11 C 0.8641(5) 0.7608(17) 0.8882(8)
H7 H 0.8250 0.7532 0.8641
Sm8 Sm 0.78959(2) 0.88756(8) 0.63725(4)
C7_2 C 0.0215(5) 0.7570(15) 0.5417(8)
C8 C 0.0376(5) 0.7319(19) 0.4781(9)
C9_2 C 0.0658(5) 0.7916(18) 0.6405(8)
H4 H 0.0091 0.7141 0.4113
C10_2 C 0.0947(5) 0.7329(19) 0.5120(9)
H5_2 H 0.0558 0.8109 0.6845
H6 H 0.1056 0.7153 0.4692
C11_2 C 0.1359(5) 0.7608(17) 0.6118(8)
H7_2 H 0.1750 0.7532 0.6359
Sm5_2 Sm 0.78959(2) 0.11244(8) 0.13725(4)
O1_2 O 0.7884(3) 0.3928(11) 0.4708(6)
O2_2 O 0.7950(3) 0.7843(11) 0.4936(5)
O3_2 O 0.7655(3) 0.6955(14) 0.3018(6)
O4_2 O 0.7033(3) 0.9189(10) 0.3503(5)
O5_2 O 0.8198(3) 0.1557(11) 0.5809(6)
O6_2 O 0.8769(3) 0.7955(13) 0.6410(5)
O7_2 O 0.8093(4) 0.8461(12) 0.2452(6)
C1_2 C 0.7810(5) 0.2651(15) 0.5134(8)
C2_2 C 0.8499(5) 0.7756(15) 0.5484(8)
C3_2 C 0.8091(5) 0.7651(16) 0.3128(8)
H1_2 H 0.7206 0.9810 0.4041
H2_2 H 0.6923 0.9984 0.3041
C4_2 C 0.8833(5) 0.7577(15) 0.5068(7)
C5_2 C 0.8658(4) 0.7543(15) 0.4104(7)
N2_2 N 0.9435(4) 0.7588(13) 0.5683(7)
N3_2 N 0.9158(4) 0.7550(13) 0.4146(6)
C6_2 C 0.9608(5) 0.7560(14) 0.5096(7)
H3_2 H 0.9179 0.7549 0.3649
O8_2 O 0.7116(3) 0.1072(11) 0.5292(6)
O9_2 O 0.6802(3) 0.3443(11) 0.4191(6)
C12_2 C 0.7190(5) 0.2349(15) 0.4866(8)
O16_2 O 0.7050(3) 0.7157(11) 0.5064(5)
O18_2 O 0.6231(3) 0.7045(13) 0.3590(5)
O19_2 O 0.6907(4) 0.3461(12) 0.2548(6)
O20_2 O 0.8093(4) 0.1539(12) 0.7452(6)
O11_2 O 0.7345(3) 0.8045(14) 0.6982(6)
O12_2 O 0.7967(3) 0.5811(10) 0.6497(5)
O14_2 O 0.6907(4) 0.6539(12) 0.7548(6)
C13_2 C 0.6501(5) 0.7244(15) 0.4516(8)
C14_2 C 0.6909(5) 0.7349(16) 0.6872(8)
H8_2 H 0.7794 0.5190 0.5959
H9_2 H 0.8077 0.5016 0.6959
C15_2 C 0.6167(5) 0.7423(15) 0.4932(7)
C16_2 C 0.6342(4) 0.7457(15) 0.5896(7)
N5_2 N 0.5565(4) 0.7412(13) 0.4317(7)
N6_2 N 0.5842(4) 0.7450(13) 0.5854(6)
C17_2 C 0.5392(5) 0.7440(14) 0.4904(7)
H10_2 H 0.5821 0.7451 0.6351
C18_2 C 0.4785(5) 0.7430(15) 0.4583(8)
C19_2 C 0.4624(5) 0.7681(19) 0.5219(9)
C20_2 C 0.4342(5) 0.7084(18) 0.3595(8)
H11_2 H 0.4909 0.7859 0.5887
C21_2 C 0.4053(5) 0.7671(19) 0.4880(9)
H12_2 H 0.4442 0.6891 0.3155
H13_2 H 0.3944 0.7847 0.5308
C22_2 C 0.3641(5) 0.7392(17) 0.3882(8)
H14_2 H 0.3250 0.7468 0.3641
Sm6_2 Sm 0.71041(2) 0.38756(8) 0.86275(4)
N4_2 N 0.1224(4) 0.2020(16) 0.1750(7)
C18_3 C 0.0215(5) 0.2430(15) 0.0417(8)
C20_3 C 0.0658(5) 0.2084(18) 0.1405(8)
C21_3 C 0.0947(5) 0.2671(19) 0.0120(9)
H12_3 H 0.0558 0.1891 0.1845
C22_3 C 0.1359(5) 0.2392(17) 0.1118(8)
H14_3 H 0.1750 0.2468 0.1359
O2_3 O 0.7050(3) 0.2843(11) 0.0064(5)
O3_3 O 0.7345(3) 0.1955(14) 0.1982(6)
O4_3 O 0.7967(3) 0.4189(10) 0.1497(5)
C3_3 C 0.6909(5) 0.2651(16) 0.1872(8)
H1_3 H 0.7794 0.4810 0.0959
H2_3 H 0.8077 0.4984 0.1959
C5_3 C 0.6342(4) 0.2543(15) 0.0896(7)
N3_3 N 0.5842(4) 0.2550(13) 0.0854(6)
H3_3 H 0.5821 0.2549 0.1351
C8_2 C 0.4624(5) 0.2319(19) 0.0219(9)
H4_2 H 0.4909 0.2141 0.0887
H6_2 H 0.3944 0.2153 0.0308
O18_3 O 0.8769(3) 0.2045(13) 0.1410(5)
N8_2 N 0.8776(4) 0.2020(16) 0.3250(7)
O6_3 O 0.6231(3) 0.2955(13) 0.8590(5)
N1_2 N 0.3776(4) 0.2980(16) 0.8250(7)
C2_3 C 0.6501(5) 0.2756(15) 0.9516(8)
C4_3 C 0.6167(5) 0.2577(15) 0.9932(7)
N2_3 N 0.5565(4) 0.2588(13) 0.9317(7)
C6_3 C 0.5392(5) 0.2560(14) 0.9904(7)
C7_3 C 0.4785(5) 0.2570(15) 0.9583(8)
C9_3 C 0.4342(5) 0.2916(18) 0.8595(8)
C10_3 C 0.4053(5) 0.2329(19) 0.9880(9)
H5_3 H 0.4442 0.3109 0.8155
C11_3 C 0.3641(5) 0.2608(17) 0.8882(8)
H7_3 H 0.3250 0.2532 0.8641
O16_3 O 0.7950(3) 0.2157(11) 0.9936(5)
O1_3 O 0.7116(3) 0.8928(11) 0.0292(6)
O9_3 O 0.8198(3) 0.8443(11) 0.0809(6)
C12_3 C 0.7810(5) 0.7349(15) 0.0134(8)
C13_3 C 0.8499(5) 0.2244(15) 0.0484(8)
C15_3 C 0.8833(5) 0.2423(15) 0.0068(7)
N5_3 N 0.9435(4) 0.2412(13) 0.0683(7)
C17_3 C 0.9608(5) 0.2440(14) 0.0096(7)
O5_3 O 0.6802(3) 0.6557(11) 0.9191(6)
C1_3 C 0.7190(5) 0.7651(15) 0.9866(8)
O8_3 O 0.7884(3) 0.6072(11) 0.9708(6)
O11_3 O 0.7655(3) 0.3045(14) 0.8018(6)
O12_3 O 0.7033(3) 0.0811(10) 0.8503(5)
C14_3 C 0.8091(5) 0.2349(16) 0.8128(8)
H8_3 H 0.7206 0.0190 0.9041
H9_3 H 0.6923 0.0016 0.8041
C16_3 C 0.8658(4) 0.2457(15) 0.9104(7)
N6_3 N 0.9158(4) 0.2450(13) 0.9146(6)
H10_3 H 0.9179 0.2451 0.8649
N7_2 N 0.6224(4) 0.2980(16) 0.6750(7)
O2_4 O 0.2950(3) 0.2843(11) 0.4936(5)
O3_4 O 0.2655(3) 0.1955(14) 0.3018(6)
O4_4 O 0.2033(3) 0.4189(10) 0.3503(5)
O6_4 O 0.3769(3) 0.2955(13) 0.6410(5)
C2_4 C 0.3499(5) 0.2756(15) 0.5484(8)
C3_4 C 0.3091(5) 0.2651(16) 0.3128(8)
H1_4 H 0.2206 0.4810 0.4041
H2_4 H 0.1923 0.4984 0.3041
C4_4 C 0.3833(5) 0.2577(15) 0.5068(7)
C5_4 C 0.3658(4) 0.2543(15) 0.4104(7)
N2_4 N 0.4435(4) 0.2588(13) 0.5683(7)
N3_4 N 0.4158(4) 0.2550(13) 0.4146(6)
C6_4 C 0.4608(5) 0.2560(14) 0.5096(7)
H3_4 H 0.4179 0.2549 0.3649
C7_4 C 0.5215(5) 0.2570(15) 0.5417(8)
C8_3 C 0.5376(5) 0.2319(19) 0.4781(9)
C9_4 C 0.5658(5) 0.2916(18) 0.6405(8)
H4_3 H 0.5091 0.2141 0.4113
C10_4 C 0.5947(5) 0.2329(19) 0.5120(9)
H5_4 H 0.5558 0.3109 0.6845
H6_3 H 0.6056 0.2153 0.4692
C11_4 C 0.6359(5) 0.2608(17) 0.6118(8)
H7_4 H 0.6750 0.2532 0.6359
O16_4 O 0.2050(3) 0.2157(11) 0.5064(5)
O18_4 O 0.1231(3) 0.2045(13) 0.3590(5)
O1_4 O 0.2884(3) 0.8928(11) 0.4708(6)
O5_4 O 0.3198(3) 0.6557(11) 0.5809(6)
C1_4 C 0.2810(5) 0.7651(15) 0.5134(8)
O8_4 O 0.2116(3) 0.6072(11) 0.5292(6)
O9_4 O 0.1802(3) 0.8443(11) 0.4191(6)
C12_4 C 0.2190(5) 0.7349(15) 0.4866(8)
O11_4 O 0.2345(3) 0.3045(14) 0.6982(6)
O12_4 O 0.2967(3) 0.0811(10) 0.6497(5)
C13_4 C 0.1501(5) 0.2244(15) 0.4516(8)
C14_4 C 0.1909(5) 0.2349(16) 0.6872(8)
H8_4 H 0.2794 0.0190 0.5959
H9_4 H 0.3077 0.0016 0.6959
C15_4 C 0.1167(5) 0.2423(15) 0.4932(7)
C16_4 C 0.1342(4) 0.2457(15) 0.5896(7)
N5_4 N 0.0565(4) 0.2412(13) 0.4317(7)
N6_4 N 0.0842(4) 0.2450(13) 0.5854(6)
C17_4 C 0.0392(5) 0.2440(14) 0.4904(7)
H10_4 H 0.0821 0.2451 0.6351
C18_4 C 0.9785(5) 0.2430(15) 0.4583(8)
C19_3 C 0.9624(5) 0.2681(19) 0.5219(9)
C20_4 C 0.9342(5) 0.2084(18) 0.3595(8)
H11_3 H 0.9909 0.2859 0.5887
C21_4 C 0.9053(5) 0.2671(19) 0.4880(9)
H12_4 H 0.9442 0.1891 0.3155
H13_3 H 0.8944 0.2847 0.5308
C22_4 C 0.8641(5) 0.2392(17) 0.3882(8)
H14_4 H 0.8250 0.2468 0.3641
C8_4 C 0.9624(5) 0.7319(19) 0.0219(9)
H4_4 H 0.9909 0.7141 0.0887
H6_4 H 0.8944 0.7153 0.0308
C19_4 C 0.0376(5) 0.2681(19) 0.9781(9)
H11_4 H 0.0091 0.2859 0.9113
H13_4 H 0.1056 0.2847 0.9692
loop_
_geom_bond_atom_site_label_1
_geom_bond_atom_site_label_2
_geom_bond_site_symmetry_1
_geom_bond_site_symmetry_2
Sm1 O1 1_555 1_555
O2 Sm1 1_555 1_555
O3 Sm1 1_555 1_555
O4 Sm1 1_555 1_555
O7 C3 1_555 1_555
C3 O3 1_555 1_555
H1 O4 1_555 1_555
H2 O4 1_555 1_555
C5 C3 1_555 1_555
N3 C5 1_555 1_555
H3 N3 1_555 1_555
O9 Sm1 1_555 1_555
C12 O9 1_555 1_555
O18 Sm1 1_555 1_555
N8 Sm1 1_555 1_555
O19 Sm1 1_555 1_555
O5 C1 1_555 1_555
O6 C2 1_555 1_555
C4 C2 1_555 1_555
N2 C4 1_555 1_555
C6 N2 1_555 1_555
O6 Sm7 1_555 1_555
Sm7 O16 1_555 1_555
O18 C13 1_555 1_555
N4 C20 1_555 1_555
C15 C13 1_555 1_555
N5 C15 1_555 1_555
C17 N5 1_555 1_555
C18 C17 1_555 1_555
C20 C18 1_555 1_555
H12 C20 1_555 1_555
C22 N4 1_555 1_555
H14 C22 1_555 1_555
Sm4 N4 1_555 1_555
C21 C22 1_555 1_555
O11 Sm7 1_555 1_555
O12 Sm7 1_555 1_555
O14 C14 1_555 1_555
C14 O11 1_555 1_555
H8 O12 1_555 1_555
H9 O12 1_555 1_555
C16 C14 1_555 1_555
N6 C16 1_555 1_555
H10 N6 1_555 1_555
H11 C19 1_555 1_555
Sm6 O14 1_555 1_555
N7 Sm7 1_555 1_555
N1 C9 1_555 1_555
C9 C7 1_555 1_555
H5 C9 1_555 1_555
C11 N1 1_555 1_555
H7 C11 1_555 1_555
Sm8 N1 1_555 1_555
C10 C11 1_555 1_555
N7 C9_2 1_555 1_555
C8 C7_2 1_555 1_555
C9_2 C7_2 1_555 1_555
H4 C8 1_555 1_555
C10_2 C8 1_555 1_555
H5_2 C9_2 1_555 1_555
H6 C10_2 1_555 1_555
C11_2 N7 1_555 1_555
H7_2 C11_2 1_555 1_555
C10_2 C11_2 1_555 1_555
Sm4 O1_2 1_555 1_555
O1_2 C1_2 1_555 1_555
O2_2 Sm4 1_555 1_555
O3_2 Sm4 1_555 1_555
O4_2 Sm4 1_555 1_555
O5_2 C1_2 1_555 1_555
O6_2 C2_2 1_555 1_555
O7_2 C3_2 1_555 1_555
C1_2 C12_2 1_555 1_555
C2_2 O2_2 1_555 1_555
C3_2 O3_2 1_555 1_555
H1_2 O4_2 1_555 1_555
H2_2 O4_2 1_555 1_555
C4_2 C2_2 1_555 1_555
C5_2 C3_2 1_555 1_555
N2_2 C4_2 1_555 1_555
N3_2 C5_2 1_555 1_555
C6_2 N2_2 1_555 1_555
H3_2 N3_2 1_555 1_555
O8_2 C12_2 1_555 1_555
O9_2 Sm4 1_555 1_555
C12_2 O9_2 1_555 1_555
Sm8 O2_2 1_555 1_555
O16_2 Sm4 1_555 1_555
O18_2 Sm4 1_555 1_555
O19_2 Sm4 1_555 1_555
O6_2 Sm8 1_555 1_555
C4_2 C5_2 1_555 1_555
N3_2 C6_2 1_555 1_555
Sm8 O16_2 1_555 1_555
O11_2 Sm8 1_555 1_555
O12_2 Sm8 1_555 1_555
O18_2 C13_2 1_555 1_555
N8 C20_2 1_555 1_555
O14_2 C14_2 1_555 1_555
C13_2 O16_2 1_555 1_555
C14_2 O11_2 1_555 1_555
H8_2 O12_2 1_555 1_555
H9_2 O12_2 1_555 1_555
C15_2 C13_2 1_555 1_555
C16_2 C14_2 1_555 1_555
N5_2 C15_2 1_555 1_555
N6_2 C16_2 1_555 1_555
C17_2 N5_2 1_555 1_555
H10_2 N6_2 1_555 1_555
C18_2 C17_2 1_555 1_555
C19_2 C18_2 1_555 1_555
C20_2 C18_2 1_555 1_555
H11_2 C19_2 1_555 1_555
C21_2 C19_2 1_555 1_555
H12_2 C20_2 1_555 1_555
H13_2 C21_2 1_555 1_555
C22_2 N8 1_555 1_555
H14_2 C22_2 1_555 1_555
Sm6_2 O14_2 1_555 1_555
C15_2 C16_2 1_555 1_555
N6_2 C17_2 1_555 1_555
C21_2 C22_2 1_555 1_555
N4_2 C20_3 1_555 1_555
C20_3 C18_3 1_555 1_555
H12_3 C20_3 1_555 1_555
C22_3 N4_2 1_555 1_555
H14_3 C22_3 1_555 1_555
Sm5 N4_2 1_555 1_555
C21_3 C22_3 1_555 1_555
O2_3 Sm5_2 1_555 1_555
O3_3 Sm5_2 1_555 1_555
O4_3 Sm5_2 1_555 1_555
O19_2 C3_3 1_555 1_555
C3_3 O3_3 1_555 1_555
H1_3 O4_3 1_555 1_555
H2_3 O4_3 1_555 1_555
C5_3 C3_3 1_555 1_555
N3_3 C5_3 1_555 1_555
H3_3 N3_3 1_555 1_555
H4_2 C8_2 1_555 1_555
O18_3 Sm5_2 1_555 1_555
N8_2 Sm5_2 1_555 1_555
O6_3 C2_3 1_555 1_555
N1_2 C9_3 1_555 1_555
C4_3 C2_3 1_555 1_555
N2_3 C4_3 1_555 1_555
C6_3 N2_3 1_555 1_555
C7_3 C6_3 1_555 1_555
C9_3 C7_3 1_555 1_555
H5_3 C9_3 1_555 1_555
C11_3 N1_2 1_555 1_555
H7_3 C11_3 1_555 1_555
Sm6 N1_2 1_555 1_555
O6_3 Sm6_2 1_555 1_555
C10_3 C11_3 1_555 1_555
Sm6_2 O16_3 1_555 1_555
C12_3 O9_3 1_555 1_555
O18_3 C13_3 1_555 1_555
C15_3 C13_3 1_555 1_555
N5_3 C15_3 1_555 1_555
C17_3 N5_3 1_555 1_555
O5_3 C1_3 1_555 1_555
Sm6_2 O5_3 1_555 1_555
O11_3 Sm6_2 1_555 1_555
O12_3 Sm6_2 1_555 1_555
O20_2 C14_3 1_555 1_555
C14_3 O11_3 1_555 1_555
H8_3 O12_3 1_555 1_555
H9_3 O12_3 1_555 1_555
C16_3 C14_3 1_555 1_555
N6_3 C16_3 1_555 1_555
H10_3 N6_3 1_555 1_555
N7_2 Sm6_2 1_555 1_555
O8_3 Sm6_2 1_555 1_555
O2_4 Sm5 1_555 1_555
O3_4 Sm5 1_555 1_555
O4_4 Sm5 1_555 1_555
O6_4 C2_4 1_555 1_555
N7_2 C9_4 1_555 1_555
O19 C3_4 1_555 1_555
C2_4 O2_4 1_555 1_555
C3_4 O3_4 1_555 1_555
H1_4 O4_4 1_555 1_555
H2_4 O4_4 1_555 1_555
C4_4 C2_4 1_555 1_555
C5_4 C3_4 1_555 1_555
N2_4 C4_4 1_555 1_555
N3_4 C5_4 1_555 1_555
C6_4 N2_4 1_555 1_555
H3_4 N3_4 1_555 1_555
C7_4 C6_4 1_555 1_555
C8_3 C7_4 1_555 1_555
C9_4 C7_4 1_555 1_555
H4_3 C8_3 1_555 1_555
C10_4 C8_3 1_555 1_555
H5_4 C9_4 1_555 1_555
H6_3 C10_4 1_555 1_555
C11_4 N7_2 1_555 1_555
H7_4 C11_4 1_555 1_555
Sm6 O2_4 1_555 1_555
O16_4 Sm5 1_555 1_555
O18_4 Sm5 1_555 1_555
O6_4 Sm6 1_555 1_555
C4_4 C5_4 1_555 1_555
N3_4 C6_4 1_555 1_555
C10_4 C11_4 1_555 1_555
Sm6 O16_4 1_555 1_555
O1_4 C1_4 1_555 1_555
O5_4 C1_4 1_555 1_555
C1_4 C12_4 1_555 1_555
O8_4 C12_4 1_555 1_555
C12_4 O9_4 1_555 1_555
Sm6 O5_4 1_555 1_555
O11_4 Sm6 1_555 1_555
O12_4 Sm6 1_555 1_555
O18_4 C13_4 1_555 1_555
O20 C14_4 1_555 1_555
C13_4 O16_4 1_555 1_555
C14_4 O11_4 1_555 1_555
H8_4 O12_4 1_555 1_555
H9_4 O12_4 1_555 1_555
C15_4 C13_4 1_555 1_555
C16_4 C14_4 1_555 1_555
N5_4 C15_4 1_555 1_555
N6_4 C16_4 1_555 1_555
C17_4 N5_4 1_555 1_555
H10_4 N6_4 1_555 1_555
O8_4 Sm6 1_555 1_555
C15_4 C16_4 1_555 1_555
N6_4 C17_4 1_555 1_555
N8_2 C20_4 1_555 1_555
C19_3 C18_4 1_555 1_555
C20_4 C18_4 1_555 1_555
H11_3 C19_3 1_555 1_555
C21_4 C19_3 1_555 1_555
H12_4 C20_4 1_555 1_555
H13_3 C21_4 1_555 1_555
C22_4 N8_2 1_555 1_555
H14_4 C22_4 1_555 1_555
C21_4 C22_4 1_555 1_555
H4_4 C8_4 1_555 1_555
H11_4 C19_4 1_555 1_555

#END
