
###############################################################################
#
# This file contains modified crystal structure data generated from the
# MOF subset of the Cambridge Structural Database (CSD) v543 
# hosted by the Cambridge Crystallographic Data Centre (CCDC).
#
# This work is licensed under the Creative Commons
# Attribution-NonCommercial-ShareAlike 4.0 International License.
# To view a copy of this license, visit
# http://creativecommons.org/licenses/by-nc-sa/4.0/
# or send a letter to
# Creative Commons, PO Box 1866, Mountain View, CA 94042, USA.
#
# CIF created using the CSD Python API on 29 September 2022
# The structure has been converted into the P1 space group
# The structure has a 3D framework
# The original CSD entry TORJOB is in the orthorhombic crystal system
# The framework has been calculated to contain at least 10.0% void space
# The void calculation uses a probe of radius 1.32A, grid spacing 0.4
#
###############################################################################

data_TORJOB
_chemical_formula_moiety         '(C96 H80 Eu4 N4 O38)n'
_symmetry_cell_setting           triclinic
_symmetry_space_group_name_H-M   'P 1'
_symmetry_Int_Tables_number      1
_space_group_name_Hall           'P 1'
loop_
_symmetry_equiv_pos_site_id
_symmetry_equiv_pos_as_xyz
1 x,y,z
_cell_length_a                   10.959(2)
_cell_length_b                   16.565(3)
_cell_length_c                   19.750(4)
_cell_angle_alpha                90
_cell_angle_beta                 90
_cell_angle_gamma                90
_cell_volume                     3585.33
loop_
_atom_site_label
_atom_site_type_symbol
_atom_site_fract_x
_atom_site_fract_y
_atom_site_fract_z
N1 N 0.4182(10) 0.2500 0.0284(5)
O3 O 0.3428(11) 0.2500 0.1497(5)
H1 H 0.3493 0.2500 0.1910
O4 O 0.1476(13) 0.2500 0.1741(6)
C4 C 0.0777(13) 0.2500 0.0388(7)
H3 H 0.0169 0.2500 0.0716
C5 C 0.1997(13) 0.2500 0.0584(7)
C6 C 0.2908(12) 0.2500 0.0089(7)
C8 C 0.2269(16) 0.2500 0.1330(7)
C9 C 0.4827(9) 0.1761(6) 0.0043(5)
H5 H 0.5693 0.1814 0.0134
C10 C 0.4352(9) 0.1006(6) 0.0385(5)
C11 C 0.4823(11) 0.0764(7) 0.1001(6)
H7 H 0.5417 0.1079 0.1210
C12 C 0.4430(10) 0.0068(6) 0.1312(6)
C15 C 0.3461(10) 0.0536(6) 0.0084(5)
O8 O 0.3642(7) 0.6439(5) 0.1863(4)
O9 O 0.2228(8) 0.6547(5) 0.1096(4)
C17 C 0.4827(9) 0.3239(6) 0.0043(5)
H13 H 0.5693 0.3186 0.0134
C18 C 0.4352(9) 0.3994(6) 0.0385(5)
C19 C 0.4823(11) 0.4236(7) 0.1001(6)
H15 H 0.5417 0.3921 0.1210
C20 C 0.4430(10) 0.4932(6) 0.1312(6)
H16 H 0.4760 0.5081 0.1728
C21 C 0.3538(9) 0.5421(6) 0.1009(5)
C22 C 0.3058(9) 0.5173(6) 0.0391(6)
H17 H 0.2461 0.5484 0.0181
C23 C 0.3461(10) 0.4464(6) 0.0084(5)
C24 C 0.3126(9) 0.6177(6) 0.1336(5)
Eu3 Eu 0.20744(6) 0.7500 0.20399(3)
Eu1 Eu 0.29256(6) 0.2500 0.70399(3)
O1 O 0.1861(9) 0.2500 0.8054(4)
C1 C 0.1024(12) 0.2500 0.8471(6)
C2 C 0.1346(12) 0.2500 0.9221(6)
C3 C 0.0459(13) 0.2500 0.9708(8)
C7 C 0.2557(12) 0.2500 0.9401(6)
H4 H 0.3153 0.2500 0.9065
H6 H 0.4721 0.1710 0.9557
H10 H 0.3127 0.0694 0.9672
O7 O 0.3912(7) 0.1438(5) 0.7673(5)
H11 H 0.4522 0.1652 0.7872
H12 H 0.3562 0.1141 0.7966
H14 H 0.4721 0.3290 0.9557
H18 H 0.3127 0.4306 0.9672
O10 O 0.3912(7) 0.3562(5) 0.7673(5)
H19 H 0.4522 0.3348 0.7872
H20 H 0.3562 0.3859 0.7966
O11 O 0.4924(10) 0.2500 0.6672(6)
O12 O 0.1358(7) 0.1439(5) 0.6863(4)
O13 O 0.1358(7) 0.3561(5) 0.6863(4)
O14 O 0.2772(8) 0.1547(5) 0.6096(4)
O15 O 0.2772(8) 0.3453(5) 0.6096(4)
O5 O 0.3642(7) 0.8561(5) 0.1863(4)
O6 O 0.2228(8) 0.8453(5) 0.1096(4)
H8 H 0.4760 0.9919 0.1728
C13 C 0.3538(9) 0.9579(6) 0.1009(5)
C14 C 0.3058(9) 0.9827(6) 0.0391(6)
H9 H 0.2461 0.9516 0.0181
C16 C 0.3126(9) 0.8823(6) 0.1336(5)
O2 O 0.9924(10) 0.2500 0.8328(6)
H2 H 0.9641 0.2500 0.9583
Eu4 Eu 0.79256(6) 0.2500 0.79601(3)
H8_2 H 0.0240 0.0081 0.6728
C13_2 C 0.1462(9) 0.0421(6) 0.6009(5)
C14_2 C 0.1942(9) 0.0173(6) 0.5391(6)
H9_2 H 0.2539 0.0484 0.5181
C16_2 C 0.1874(9) 0.1177(6) 0.6336(5)
N1_2 N 0.0818(10) 0.7500 0.5284(5)
O1_2 O 0.3139(9) 0.7500 0.3054(4)
O2_2 O 0.5076(10) 0.7500 0.3328(6)
O3_2 O 0.1572(11) 0.7500 0.6497(5)
H1_2 H 0.1507 0.7500 0.6910
O4_2 O 0.3524(13) 0.7500 0.6741(6)
C1_2 C 0.3976(12) 0.7500 0.3471(6)
C2_2 C 0.3654(12) 0.7500 0.4221(6)
C3_2 C 0.4541(13) 0.7500 0.4708(8)
H2_2 H 0.5359 0.7500 0.4583
C4_2 C 0.4223(13) 0.7500 0.5388(7)
H3_2 H 0.4831 0.7500 0.5716
C5_2 C 0.3003(13) 0.7500 0.5584(7)
C6_2 C 0.2092(12) 0.7500 0.5089(7)
C7_2 C 0.2443(12) 0.7500 0.4401(6)
H4_2 H 0.1847 0.7500 0.4065
C8_2 C 0.2731(16) 0.7500 0.6330(7)
C9_2 C 0.0173(9) 0.8239(6) 0.5043(5)
H6_2 H 0.0279 0.8290 0.4557
C10_2 C 0.0648(9) 0.8994(6) 0.5385(5)
C11_2 C 0.0177(11) 0.9236(7) 0.6001(6)
C12_2 C 0.0570(10) 0.9932(6) 0.6312(6)
C15_2 C 0.1539(10) 0.9464(6) 0.5084(5)
H10_2 H 0.1873 0.9306 0.4672
O7_2 O 0.1088(7) 0.8562(5) 0.2673(5)
H11_2 H 0.0478 0.8348 0.2872
H12_2 H 0.1438 0.8859 0.2966
C17_2 C 0.0173(9) 0.6761(6) 0.5043(5)
H14_2 H 0.0279 0.6710 0.4557
C18_2 C 0.0648(9) 0.6006(6) 0.5385(5)
C19_2 C 0.0177(11) 0.5764(7) 0.6001(6)
C20_2 C 0.0570(10) 0.5068(6) 0.6312(6)
H16_2 H 0.0240 0.4919 0.6728
C21_2 C 0.1462(9) 0.4579(6) 0.6009(5)
C22_2 C 0.1942(9) 0.4827(6) 0.5391(6)
H17_2 H 0.2539 0.4516 0.5181
C23_2 C 0.1539(10) 0.5536(6) 0.5084(5)
H18_2 H 0.1873 0.5694 0.4672
C24_2 C 0.1874(9) 0.3823(6) 0.6336(5)
O10_2 O 0.1088(7) 0.6438(5) 0.2673(5)
H19_2 H 0.0478 0.6652 0.2872
H20_2 H 0.1438 0.6141 0.2966
Eu4_2 Eu 0.70744(6) 0.7500 0.29601(3)
O11_2 O 0.0076(10) 0.7500 0.1672(6)
H2_3 H 0.0359 0.7500 0.0417
O8_2 O 0.6358(7) 0.1439(5) 0.8137(4)
O9_2 O 0.7772(8) 0.1547(5) 0.8904(4)
H16_3 H 0.5240 0.0081 0.8272
C21_3 C 0.6462(9) 0.0421(6) 0.8991(5)
C22_3 C 0.6942(9) 0.0173(6) 0.9609(6)
H17_3 H 0.7539 0.0484 0.9819
C24_3 C 0.6874(9) 0.1177(6) 0.8664(5)
O1_3 O 0.8139(9) 0.7500 0.1946(4)
C1_3 C 0.8976(12) 0.7500 0.1529(6)
C2_3 C 0.8654(12) 0.7500 0.0779(6)
C3_3 C 0.9541(13) 0.7500 0.0292(8)
C7_3 C 0.7443(12) 0.7500 0.0599(6)
H4_3 H 0.6847 0.7500 0.0935
H6_3 H 0.5279 0.6710 0.0443
H10_3 H 0.6873 0.5694 0.0328
O7_3 O 0.6088(7) 0.6438(5) 0.2327(5)
H11_3 H 0.5478 0.6652 0.2128
H12_3 H 0.6438 0.6141 0.2034
H14_3 H 0.5279 0.8290 0.0443
H18_3 H 0.6873 0.9306 0.0328
O10_3 O 0.6088(7) 0.8562(5) 0.2327(5)
H19_3 H 0.5478 0.8348 0.2128
H20_3 H 0.6438 0.8859 0.2034
O12_2 O 0.8642(7) 0.6439(5) 0.3137(4)
O13_2 O 0.8642(7) 0.8561(5) 0.3137(4)
O14_2 O 0.7228(8) 0.6547(5) 0.3904(4)
O15_2 O 0.7228(8) 0.8453(5) 0.3904(4)
N1_3 N 0.5818(10) 0.7500 0.9716(5)
O3_3 O 0.6572(11) 0.7500 0.8503(5)
H1_3 H 0.6507 0.7500 0.8090
O4_3 O 0.8524(13) 0.7500 0.8259(6)
O5_2 O 0.6358(7) 0.3561(5) 0.8137(4)
O6_2 O 0.7772(8) 0.3453(5) 0.8904(4)
C4_3 C 0.9223(13) 0.7500 0.9612(7)
H3_3 H 0.9831 0.7500 0.9284
C5_3 C 0.8003(13) 0.7500 0.9416(7)
C6_3 C 0.7092(12) 0.7500 0.9911(7)
C8_3 C 0.7731(16) 0.7500 0.8670(7)
C9_3 C 0.5173(9) 0.6761(6) 0.9957(5)
H5_2 H 0.4307 0.6814 0.9866
C10_3 C 0.5648(9) 0.6006(6) 0.9615(5)
C11_3 C 0.5177(11) 0.5764(7) 0.8999(6)
H7_2 H 0.4583 0.6079 0.8790
C12_3 C 0.5570(10) 0.5068(6) 0.8688(6)
H8_3 H 0.5240 0.4919 0.8272
C13_3 C 0.6462(9) 0.4579(6) 0.8991(5)
C14_3 C 0.6942(9) 0.4827(6) 0.9609(6)
H9_3 H 0.7539 0.4516 0.9819
C15_3 C 0.6539(10) 0.5536(6) 0.9916(5)
C16_3 C 0.6874(9) 0.3823(6) 0.8664(5)
C17_3 C 0.5173(9) 0.8239(6) 0.9957(5)
H13_2 H 0.4307 0.8186 0.9866
C18_3 C 0.5648(9) 0.8994(6) 0.9615(5)
C19_3 C 0.5177(11) 0.9236(7) 0.8999(6)
H15_2 H 0.4583 0.8921 0.8790
C20_3 C 0.5570(10) 0.9932(6) 0.8688(6)
C23_3 C 0.6539(10) 0.9464(6) 0.9916(5)
N1_4 N 0.9182(10) 0.2500 0.4716(5)
O1_4 O 0.6861(9) 0.2500 0.6946(4)
O3_4 O 0.8428(11) 0.2500 0.3503(5)
H1_4 H 0.8493 0.2500 0.3090
O4_4 O 0.6476(13) 0.2500 0.3259(6)
C1_4 C 0.6024(12) 0.2500 0.6529(6)
C2_4 C 0.6346(12) 0.2500 0.5779(6)
C3_4 C 0.5459(13) 0.2500 0.5292(8)
H2_4 H 0.4641 0.2500 0.5417
C4_4 C 0.5777(13) 0.2500 0.4612(7)
H3_4 H 0.5169 0.2500 0.4284
C5_4 C 0.6997(13) 0.2500 0.4416(7)
C6_4 C 0.7908(12) 0.2500 0.4911(7)
C7_4 C 0.7557(12) 0.2500 0.5599(6)
H4_4 H 0.8153 0.2500 0.5935
C8_4 C 0.7269(16) 0.2500 0.3670(7)
C9_4 C 0.9827(9) 0.3239(6) 0.4957(5)
H6_4 H 0.9721 0.3290 0.5443
C10_4 C 0.9352(9) 0.3994(6) 0.4615(5)
C11_4 C 0.9823(11) 0.4236(7) 0.3999(6)
C12_4 C 0.9430(10) 0.4932(6) 0.3688(6)
H8_4 H 0.9760 0.5081 0.3272
C13_4 C 0.8538(9) 0.5421(6) 0.3991(5)
C14_4 C 0.8058(9) 0.5173(6) 0.4609(6)
H9_4 H 0.7461 0.5484 0.4819
C15_4 C 0.8461(10) 0.4464(6) 0.4916(5)
H10_4 H 0.8127 0.4306 0.5328
C16_4 C 0.8126(9) 0.6177(6) 0.3664(5)
O7_4 O 0.8912(7) 0.3562(5) 0.7327(5)
H11_4 H 0.9522 0.3348 0.7128
H12_4 H 0.8562 0.3859 0.7034
C17_4 C 0.9827(9) 0.1761(6) 0.4957(5)
H14_4 H 0.9721 0.1710 0.5443
C18_4 C 0.9352(9) 0.1006(6) 0.4615(5)
C19_4 C 0.9823(11) 0.0764(7) 0.3999(6)
C20_4 C 0.9430(10) 0.0068(6) 0.3688(6)
C23_4 C 0.8461(10) 0.0536(6) 0.4916(5)
H18_4 H 0.8127 0.0694 0.5328
O10_4 O 0.8912(7) 0.1438(5) 0.7327(5)
H19_4 H 0.9522 0.1652 0.7128
H20_4 H 0.8562 0.1141 0.7034
H16_4 H 0.9760 0.9919 0.3272
C21_4 C 0.8538(9) 0.9579(6) 0.3991(5)
C22_4 C 0.8058(9) 0.9827(6) 0.4609(6)
H17_4 H 0.7461 0.9516 0.4819
C24_4 C 0.8126(9) 0.8823(6) 0.3664(5)
H5_3 H 0.9307 0.8186 0.5134
H7_3 H 0.9583 0.8921 0.6210
H13_3 H 0.9307 0.6814 0.5134
H15_3 H 0.9583 0.6079 0.6210
H5_4 H 0.0693 0.3186 0.4866
H7_4 H 0.0417 0.3921 0.3790
H13_4 H 0.0693 0.1814 0.4866
H15_4 H 0.0417 0.1079 0.3790
loop_
_geom_bond_atom_site_label_1
_geom_bond_atom_site_label_2
_geom_bond_site_symmetry_1
_geom_bond_site_symmetry_2
N1 C6 1_555 1_555
O3 H1 1_555 1_555
O4 C8 1_555 1_555
H3 C4 1_555 1_555
C5 C4 1_555 1_555
C6 C5 1_555 1_555
C8 O3 1_555 1_555
C9 N1 1_555 1_555
H5 C9 1_555 1_555
C10 C9 1_555 1_555
C11 C10 1_555 1_555
H7 C11 1_555 1_555
C12 C11 1_555 1_555
C15 C10 1_555 1_555
O8 C24 1_555 1_555
O9 C24 1_555 1_555
C17 N1 1_555 1_555
H13 C17 1_555 1_555
C18 C17 1_555 1_555
C19 C18 1_555 1_555
H15 C19 1_555 1_555
C20 C19 1_555 1_555
H16 C20 1_555 1_555
C21 C20 1_555 1_555
C22 C21 1_555 1_555
H17 C22 1_555 1_555
C23 C18 1_555 1_555
C24 C21 1_555 1_555
Eu3 O8 1_555 1_555
C5 C8 1_555 1_555
O9 Eu3 1_555 1_555
C22 C23 1_555 1_555
Eu1 O1 1_555 1_555
O1 C1 1_555 1_555
C1 C2 1_555 1_555
C2 C3 1_555 1_555
C7 C2 1_555 1_555
H4 C7 1_555 1_555
O7 Eu1 1_555 1_555
H11 O7 1_555 1_555
H12 O7 1_555 1_555
O10 Eu1 1_555 1_555
H19 O10 1_555 1_555
H20 O10 1_555 1_555
O11 Eu1 1_555 1_555
O12 Eu1 1_555 1_555
O13 Eu1 1_555 1_555
O14 Eu1 1_555 1_555
O15 Eu1 1_555 1_555
O5 C16 1_555 1_555
O6 C16 1_555 1_555
C14 C13 1_555 1_555
H9 C14 1_555 1_555
C16 C13 1_555 1_555
Eu3 O5 1_555 1_555
O6 Eu3 1_555 1_555
Eu4 O2 1_555 1_555
O12 C16_2 1_555 1_555
O14 C16_2 1_555 1_555
C14_2 C13_2 1_555 1_555
H9_2 C14_2 1_555 1_555
C16_2 C13_2 1_555 1_555
N1_2 C6_2 1_555 1_555
Eu3 O1_2 1_555 1_555
O1_2 C1_2 1_555 1_555
O2_2 C1_2 1_555 1_555
O3_2 H1_2 1_555 1_555
O4_2 C8_2 1_555 1_555
C1_2 C2_2 1_555 1_555
C2_2 C3_2 1_555 1_555
C3_2 H2_2 1_555 1_555
C4_2 C3_2 1_555 1_555
H3_2 C4_2 1_555 1_555
C5_2 C4_2 1_555 1_555
C6_2 C5_2 1_555 1_555
C7_2 C2_2 1_555 1_555
H4_2 C7_2 1_555 1_555
C8_2 O3_2 1_555 1_555
C9_2 N1_2 1_555 1_555
H6_2 C9_2 1_555 1_555
C10_2 C9_2 1_555 1_555
C11_2 C10_2 1_555 1_555
C12_2 C11_2 1_555 1_555
C15_2 C10_2 1_555 1_555
H10_2 C15_2 1_555 1_555
O7_2 Eu3 1_555 1_555
H11_2 O7_2 1_555 1_555
H12_2 O7_2 1_555 1_555
O13 C24_2 1_555 1_555
O15 C24_2 1_555 1_555
C17_2 N1_2 1_555 1_555
H14_2 C17_2 1_555 1_555
C18_2 C17_2 1_555 1_555
C19_2 C18_2 1_555 1_555
C20_2 C19_2 1_555 1_555
H16_2 C20_2 1_555 1_555
C21_2 C20_2 1_555 1_555
C22_2 C21_2 1_555 1_555
H17_2 C22_2 1_555 1_555
C23_2 C18_2 1_555 1_555
H18_2 C23_2 1_555 1_555
C24_2 C21_2 1_555 1_555
O10_2 Eu3 1_555 1_555
H19_2 O10_2 1_555 1_555
H20_2 O10_2 1_555 1_555
Eu4_2 O2_2 1_555 1_555
O11_2 Eu3 1_555 1_555
C5_2 C8_2 1_555 1_555
C6_2 C7_2 1_555 1_555
C22_2 C23_2 1_555 1_555
O8_2 C24_3 1_555 1_555
O9_2 C24_3 1_555 1_555
C22_3 C21_3 1_555 1_555
H17_3 C22_3 1_555 1_555
C24_3 C21_3 1_555 1_555
Eu4 O8_2 1_555 1_555
O9_2 Eu4 1_555 1_555
Eu4_2 O1_3 1_555 1_555
O1_3 C1_3 1_555 1_555
C1_3 C2_3 1_555 1_555
C2_3 C3_3 1_555 1_555
C7_3 C2_3 1_555 1_555
H4_3 C7_3 1_555 1_555
O7_3 Eu4_2 1_555 1_555
H11_3 O7_3 1_555 1_555
H12_3 O7_3 1_555 1_555
O10_3 Eu4_2 1_555 1_555
H19_3 O10_3 1_555 1_555
H20_3 O10_3 1_555 1_555
O12_2 Eu4_2 1_555 1_555
O13_2 Eu4_2 1_555 1_555
O14_2 Eu4_2 1_555 1_555
O15_2 Eu4_2 1_555 1_555
N1_3 C6_3 1_555 1_555
O3_3 H1_3 1_555 1_555
O4_3 C8_3 1_555 1_555
O5_2 C16_3 1_555 1_555
O6_2 C16_3 1_555 1_555
H3_3 C4_3 1_555 1_555
C5_3 C4_3 1_555 1_555
C6_3 C5_3 1_555 1_555
C8_3 O3_3 1_555 1_555
C9_3 N1_3 1_555 1_555
H5_2 C9_3 1_555 1_555
C10_3 C9_3 1_555 1_555
C11_3 C10_3 1_555 1_555
H7_2 C11_3 1_555 1_555
C12_3 C11_3 1_555 1_555
H8_3 C12_3 1_555 1_555
C13_3 C12_3 1_555 1_555
C14_3 C13_3 1_555 1_555
H9_3 C14_3 1_555 1_555
C15_3 C10_3 1_555 1_555
C16_3 C13_3 1_555 1_555
C17_3 N1_3 1_555 1_555
H13_2 C17_3 1_555 1_555
C18_3 C17_3 1_555 1_555
C19_3 C18_3 1_555 1_555
H15_2 C19_3 1_555 1_555
C20_3 C19_3 1_555 1_555
C23_3 C18_3 1_555 1_555
Eu4 O5_2 1_555 1_555
O6_2 Eu4 1_555 1_555
C5_3 C8_3 1_555 1_555
C14_3 C15_3 1_555 1_555
N1_4 C6_4 1_555 1_555
Eu4 O1_4 1_555 1_555
O1_4 C1_4 1_555 1_555
O11 C1_4 1_555 1_555
O3_4 H1_4 1_555 1_555
O4_4 C8_4 1_555 1_555
O12_2 C16_4 1_555 1_555
O14_2 C16_4 1_555 1_555
C1_4 C2_4 1_555 1_555
C2_4 C3_4 1_555 1_555
C3_4 H2_4 1_555 1_555
C4_4 C3_4 1_555 1_555
H3_4 C4_4 1_555 1_555
C5_4 C4_4 1_555 1_555
C6_4 C5_4 1_555 1_555
C7_4 C2_4 1_555 1_555
H4_4 C7_4 1_555 1_555
C8_4 O3_4 1_555 1_555
C9_4 N1_4 1_555 1_555
H6_4 C9_4 1_555 1_555
C10_4 C9_4 1_555 1_555
C11_4 C10_4 1_555 1_555
C12_4 C11_4 1_555 1_555
H8_4 C12_4 1_555 1_555
C13_4 C12_4 1_555 1_555
C14_4 C13_4 1_555 1_555
H9_4 C14_4 1_555 1_555
C15_4 C10_4 1_555 1_555
H10_4 C15_4 1_555 1_555
C16_4 C13_4 1_555 1_555
O7_4 Eu4 1_555 1_555
H11_4 O7_4 1_555 1_555
H12_4 O7_4 1_555 1_555
C17_4 N1_4 1_555 1_555
H14_4 C17_4 1_555 1_555
C18_4 C17_4 1_555 1_555
C19_4 C18_4 1_555 1_555
C20_4 C19_4 1_555 1_555
C23_4 C18_4 1_555 1_555
H18_4 C23_4 1_555 1_555
O10_4 Eu4 1_555 1_555
H19_4 O10_4 1_555 1_555
H20_4 O10_4 1_555 1_555
C5_4 C8_4 1_555 1_555
C6_4 C7_4 1_555 1_555
C14_4 C15_4 1_555 1_555
O13_2 C24_4 1_555 1_555
O15_2 C24_4 1_555 1_555
C22_4 C21_4 1_555 1_555
H17_4 C22_4 1_555 1_555
C24_4 C21_4 1_555 1_555

#END
