
###############################################################################
#
# This file contains modified crystal structure data generated from the
# MOF subset of the Cambridge Structural Database (CSD) v543 
# hosted by the Cambridge Crystallographic Data Centre (CCDC).
#
# This work is licensed under the Creative Commons
# Attribution-NonCommercial-ShareAlike 4.0 International License.
# To view a copy of this license, visit
# http://creativecommons.org/licenses/by-nc-sa/4.0/
# or send a letter to
# Creative Commons, PO Box 1866, Mountain View, CA 94042, USA.
#
# CIF created using the CSD Python API on 29 September 2022
# The structure has been converted into the P1 space group
# The structure has a 3D framework
# The original CSD entry TOSMUM is in the monoclinic crystal system
# The framework has been calculated to contain at least 10.0% void space
# The void calculation uses a probe of radius 1.32A, grid spacing 0.4
#
###############################################################################

data_TOSMUM
_chemical_formula_moiety         '(C72 H32 O40 Pb4)n'
_symmetry_cell_setting           triclinic
_symmetry_space_group_name_H-M   'P 1'
_symmetry_Int_Tables_number      1
_space_group_name_Hall           'P 1'
loop_
_symmetry_equiv_pos_site_id
_symmetry_equiv_pos_as_xyz
1 x,y,z
_cell_length_a                   17.239(2)
_cell_length_b                   7.0225(8)
_cell_length_c                   19.911(2)
_cell_angle_alpha                90
_cell_angle_beta                 104.735(10)
_cell_angle_gamma                90
_cell_volume                     2331.17
loop_
_atom_site_label
_atom_site_type_symbol
_atom_site_fract_x
_atom_site_fract_y
_atom_site_fract_z
Pb1 Pb 0.199081(18) 0.43650(4) 0.195961(15)
O1 O 0.2098(3) 0.5556(8) 0.5655(3)
O2 O 0.3101(4) 0.4614(9) 0.6514(3)
O3 O 0.2638(4) 0.5780(8) 0.3207(3)
O4 O 0.3143(3) 0.3022(8) 0.3019(3)
O5 O 0.5650(3) 0.1699(9) 0.4947(3)
H1 H 0.6091 0.1259 0.5140
O6 O 0.5569(3) 0.2012(10) 0.6048(3)
C1 C 0.3271(4) 0.4388(11) 0.5371(4)
C2 C 0.2962(5) 0.4673(10) 0.4654(4)
H2 H 0.2467 0.5260 0.4489
C3 C 0.3393(5) 0.4084(10) 0.4194(4)
C4 C 0.4138(4) 0.3195(11) 0.4438(4)
H3 H 0.4413 0.2735 0.4127
C5 C 0.4461(4) 0.3006(11) 0.5140(4)
C6 C 0.4027(5) 0.3576(10) 0.5605(4)
H4 H 0.4245 0.3412 0.6079
C7 C 0.2790(5) 0.4903(11) 0.5874(4)
C8 C 0.3033(5) 0.4313(11) 0.3427(4)
C9 C 0.5271(5) 0.2185(11) 0.5420(4)
Pb3 Pb 0.300919(18) 0.93650(4) 0.304039(15)
Pb4 Pb 0.199081(18) 0.56350(4) 0.695961(15)
Pb5 Pb 0.699081(18) 0.06350(4) 0.695961(15)
O7 O 0.2098(3) 0.4444(8) 0.0655(3)
O8 O 0.3101(4) 0.5386(9) 0.1514(3)
O9 O 0.2362(4) 0.0780(8) 0.1793(3)
O10 O 0.1857(3) 0.8022(8) 0.1981(3)
O11 O 0.0569(3) 0.2988(10) 0.1048(3)
Pb1_2 Pb 0.800919(18) 0.43650(4) 0.304039(15)
O3_2 O 0.7362(4) 0.5780(8) 0.1793(3)
O4_2 O 0.6857(3) 0.3022(8) 0.1981(3)
O5_2 O 0.4350(3) 0.1699(9) 0.0053(3)
C2_2 C 0.7038(5) 0.4673(10) 0.0346(4)
H2_2 H 0.7533 0.5260 0.0511
C3_2 C 0.6607(5) 0.4084(10) 0.0806(4)
C4_2 C 0.5862(4) 0.3195(11) 0.0562(4)
H3_2 H 0.5587 0.2735 0.0873
C8_2 C 0.6967(5) 0.4313(11) 0.1573(4)
Pb3_2 Pb 0.699081(18) 0.93650(4) 0.195961(15)
O7_2 O 0.7902(3) 0.4444(8) 0.4345(3)
O8_2 O 0.6899(4) 0.5386(9) 0.3486(3)
O9_2 O 0.7638(4) 0.0780(8) 0.3207(3)
O10_2 O 0.8143(3) 0.8022(8) 0.3019(3)
O11_2 O 0.9431(3) 0.2988(10) 0.3952(3)
O1_2 O 0.7902(3) 0.5556(8) 0.9345(3)
O2_2 O 0.6899(4) 0.4614(9) 0.8486(3)
H1_2 H 0.3909 0.1259 0.9860
O6_2 O 0.4431(3) 0.2012(10) 0.8952(3)
C1_2 C 0.6729(4) 0.4388(11) 0.9629(4)
C5_2 C 0.5539(4) 0.3006(11) 0.9860(4)
C6_2 C 0.5973(5) 0.3576(10) 0.9395(4)
H4_2 H 0.5755 0.3412 0.8921
C7_2 C 0.7210(5) 0.4903(11) 0.9126(4)
C9_2 C 0.4729(5) 0.2185(11) 0.9580(4)
Pb4_2 Pb 0.800919(18) 0.56350(4) 0.804039(15)
Pb5_2 Pb 0.300919(18) 0.06350(4) 0.804039(15)
O5_3 O 0.0650(3) 0.6699(9) 0.4947(3)
H1_3 H 0.1091 0.6259 0.5140
O6_3 O 0.0569(3) 0.7012(10) 0.6048(3)
C9_3 C 0.0271(5) 0.7185(11) 0.5420(4)
O1_3 O 0.7098(3) 0.0556(8) 0.5655(3)
H2_3 H 0.7467 0.0260 0.4489
O8_3 O 0.8101(4) 0.0386(9) 0.1514(3)
O2_3 O 0.8101(4) 0.9614(9) 0.6514(3)
C1_3 C 0.8271(4) 0.9388(11) 0.5371(4)
C2_3 C 0.7962(5) 0.9673(10) 0.4654(4)
C3_3 C 0.8393(5) 0.9084(10) 0.4194(4)
C4_3 C 0.9138(4) 0.8195(11) 0.4438(4)
H3_3 H 0.9413 0.7735 0.4127
C5_3 C 0.9461(4) 0.8006(11) 0.5140(4)
C6_3 C 0.9027(5) 0.8576(10) 0.5605(4)
H4_3 H 0.9245 0.8412 0.6079
C7_3 C 0.7790(5) 0.9903(11) 0.5874(4)
C8_3 C 0.8033(5) 0.9313(11) 0.3427(4)
O7_3 O 0.7098(3) 0.9444(8) 0.0655(3)
O11_3 O 0.5569(3) 0.7988(10) 0.1048(3)
H2_4 H 0.2533 0.0260 0.0511
O8_4 O 0.1899(4) 0.0386(9) 0.3486(3)
O1_4 O 0.2902(3) 0.0556(8) 0.9345(3)
C2_4 C 0.2038(5) 0.9673(10) 0.0346(4)
C3_4 C 0.1607(5) 0.9084(10) 0.0806(4)
C4_4 C 0.0862(4) 0.8195(11) 0.0562(4)
H3_4 H 0.0587 0.7735 0.0873
C8_4 C 0.1967(5) 0.9313(11) 0.1573(4)
O7_4 O 0.2902(3) 0.9444(8) 0.4345(3)
O11_4 O 0.4431(3) 0.7988(10) 0.3952(3)
O2_4 O 0.1899(4) 0.9614(9) 0.8486(3)
C1_4 C 0.1729(4) 0.9388(11) 0.9629(4)
C5_4 C 0.0539(4) 0.8006(11) 0.9860(4)
C6_4 C 0.0973(5) 0.8576(10) 0.9395(4)
H4_4 H 0.0755 0.8412 0.8921
C7_4 C 0.2210(5) 0.9903(11) 0.9126(4)
H1_4 H 0.8909 0.6259 0.9860
O6_4 O 0.9431(3) 0.7012(10) 0.8952(3)
C9_4 C 0.9729(5) 0.7185(11) 0.9580(4)
O3_3 O 0.7362(4) 0.4220(8) 0.6793(3)
O4_3 O 0.6857(3) 0.6978(8) 0.6981(3)
O5_4 O 0.4350(3) 0.8301(9) 0.5053(3)
H1_5 H 0.3909 0.8741 0.4860
C1_5 C 0.6729(4) 0.5612(11) 0.4629(4)
C2_5 C 0.7038(5) 0.5327(10) 0.5346(4)
H2_5 H 0.7533 0.4740 0.5511
C3_5 C 0.6607(5) 0.5916(10) 0.5806(4)
C4_5 C 0.5862(4) 0.6805(11) 0.5562(4)
H3_5 H 0.5587 0.7265 0.5873
C5_5 C 0.5539(4) 0.6994(11) 0.4860(4)
C6_5 C 0.5973(5) 0.6424(10) 0.4395(4)
H4_5 H 0.5755 0.6588 0.3921
C7_5 C 0.7210(5) 0.5097(11) 0.4126(4)
C8_5 C 0.6967(5) 0.5687(11) 0.6573(4)
C9_5 C 0.4729(5) 0.7815(11) 0.4580(4)
O9_3 O 0.7638(4) 0.9220(8) 0.8207(3)
O10_3 O 0.8143(3) 0.1978(8) 0.8019(3)
H1_6 H 0.6091 0.8741 0.0140
C1_6 C 0.3271(4) 0.5612(11) 0.0371(4)
C5_6 C 0.4461(4) 0.6994(11) 0.0140(4)
C6_6 C 0.4027(5) 0.6424(10) 0.0605(4)
H4_6 H 0.4245 0.6588 0.1079
C7_6 C 0.2790(5) 0.5097(11) 0.0874(4)
C9_6 C 0.5271(5) 0.7815(11) 0.0420(4)
O3_4 O 0.2638(4) 0.4220(8) 0.8207(3)
O4_4 O 0.3143(3) 0.6978(8) 0.8019(3)
O5_5 O 0.5650(3) 0.8301(9) 0.9947(3)
C2_6 C 0.2962(5) 0.5327(10) 0.9654(4)
H2_6 H 0.2467 0.4740 0.9489
C3_6 C 0.3393(5) 0.5916(10) 0.9194(4)
C4_6 C 0.4138(4) 0.6805(11) 0.9438(4)
H3_6 H 0.4413 0.7265 0.9127
C8_6 C 0.3033(5) 0.5687(11) 0.8427(4)
O9_4 O 0.2362(4) 0.9220(8) 0.6793(3)
O10_4 O 0.1857(3) 0.1978(8) 0.6981(3)
C1_7 C 0.1729(4) 0.0612(11) 0.4629(4)
C2_7 C 0.2038(5) 0.0327(10) 0.5346(4)
C3_7 C 0.1607(5) 0.0916(10) 0.5806(4)
C4_7 C 0.0862(4) 0.1805(11) 0.5562(4)
H3_7 H 0.0587 0.2265 0.5873
C5_7 C 0.0539(4) 0.1994(11) 0.4860(4)
C6_7 C 0.0973(5) 0.1424(10) 0.4395(4)
H4_7 H 0.0755 0.1588 0.3921
C7_7 C 0.2210(5) 0.0097(11) 0.4126(4)
C8_7 C 0.1967(5) 0.0687(11) 0.6573(4)
H2_7 H 0.2533 0.9740 0.5511
O5_6 O 0.9350(3) 0.3301(9) 0.5053(3)
H1_7 H 0.8909 0.3741 0.4860
C9_7 C 0.9729(5) 0.2815(11) 0.4580(4)
H1_8 H 0.1091 0.3741 0.0140
C9_8 C 0.0271(5) 0.2815(11) 0.0420(4)
C1_8 C 0.8271(4) 0.0612(11) 0.0371(4)
C5_8 C 0.9461(4) 0.1994(11) 0.0140(4)
C6_8 C 0.9027(5) 0.1424(10) 0.0605(4)
H4_8 H 0.9245 0.1588 0.1079
C7_8 C 0.7790(5) 0.0097(11) 0.0874(4)
C2_8 C 0.7962(5) 0.0327(10) 0.9654(4)
C3_8 C 0.8393(5) 0.0916(10) 0.9194(4)
C4_8 C 0.9138(4) 0.1805(11) 0.9438(4)
H3_8 H 0.9413 0.2265 0.9127
C8_8 C 0.8033(5) 0.0687(11) 0.8427(4)
H2_8 H 0.7467 0.9740 0.9489
O5_7 O 0.9350(3) 0.6699(9) 0.0053(3)
O5_8 O 0.0650(3) 0.3301(9) 0.9947(3)
loop_
_geom_bond_atom_site_label_1
_geom_bond_atom_site_label_2
_geom_bond_site_symmetry_1
_geom_bond_site_symmetry_2
Pb1 O3 1_555 1_555
O1 C7 1_555 1_555
O2 C7 1_555 1_555
O3 C8 1_555 1_555
O4 Pb1 1_555 1_555
O5 H1 1_555 1_555
O6 C9 1_555 1_555
C1 C2 1_555 1_555
C2 H2 1_555 1_555
C3 C2 1_555 1_555
C4 C3 1_555 1_555
H3 C4 1_555 1_555
C5 C4 1_555 1_555
C6 C1 1_555 1_555
H4 C6 1_555 1_555
C7 C1 1_555 1_555
C8 O4 1_555 1_555
C9 O5 1_555 1_555
Pb3 O3 1_555 1_555
Pb4 O1 1_555 1_555
Pb5 O6 1_555 1_555
O7 Pb1 1_555 1_555
O8 Pb1 1_555 1_555
O9 Pb1 1_555 1_555
O10 Pb1 1_555 1_555
O11 Pb1 1_555 1_555
O2 Pb4 1_555 1_555
C3 C8 1_555 1_555
C5 C6 1_555 1_555
C5 C9 1_555 1_555
Pb3 O10 1_555 1_555
Pb1_2 O3_2 1_555 1_555
O3_2 C8_2 1_555 1_555
O4_2 Pb1_2 1_555 1_555
C2_2 H2_2 1_555 1_555
C3_2 C2_2 1_555 1_555
C4_2 C3_2 1_555 1_555
H3_2 C4_2 1_555 1_555
C8_2 O4_2 1_555 1_555
Pb3_2 O3_2 1_555 1_555
O7_2 Pb1_2 1_555 1_555
O8_2 Pb1_2 1_555 1_555
O9_2 Pb1_2 1_555 1_555
O10_2 Pb1_2 1_555 1_555
O11_2 Pb1_2 1_555 1_555
C3_2 C8_2 1_555 1_555
Pb3_2 O10_2 1_555 1_555
O1_2 C7_2 1_555 1_555
O2_2 C7_2 1_555 1_555
O6_2 C9_2 1_555 1_555
C6_2 C1_2 1_555 1_555
H4_2 C6_2 1_555 1_555
C7_2 C1_2 1_555 1_555
Pb4_2 O1_2 1_555 1_555
Pb5_2 O6_2 1_555 1_555
O2_2 Pb4_2 1_555 1_555
C5_2 C6_2 1_555 1_555
C5_2 C9_2 1_555 1_555
O5_3 H1_3 1_555 1_555
O6_3 C9_3 1_555 1_555
C9_3 O5_3 1_555 1_555
Pb4 O6_3 1_555 1_555
Pb5 O1_3 1_555 1_555
O2_3 C7_3 1_555 1_555
C1_3 C2_3 1_555 1_555
C3_3 C2_3 1_555 1_555
C4_3 C3_3 1_555 1_555
H3_3 C4_3 1_555 1_555
C5_3 C4_3 1_555 1_555
C6_3 C1_3 1_555 1_555
H4_3 C6_3 1_555 1_555
C7_3 C1_3 1_555 1_555
C8_3 O10_2 1_555 1_555
O7_3 Pb3_2 1_555 1_555
O11_3 Pb3_2 1_555 1_555
C3_3 C8_3 1_555 1_555
C5_3 C6_3 1_555 1_555
Pb5_2 O1_4 1_555 1_555
C3_4 C2_4 1_555 1_555
C4_4 C3_4 1_555 1_555
H3_4 C4_4 1_555 1_555
C8_4 O10 1_555 1_555
O7_4 Pb3 1_555 1_555
O11_4 Pb3 1_555 1_555
C3_4 C8_4 1_555 1_555
O2_4 C7_4 1_555 1_555
C6_4 C1_4 1_555 1_555
H4_4 C6_4 1_555 1_555
C7_4 C1_4 1_555 1_555
C5_4 C6_4 1_555 1_555
O6_4 C9_4 1_555 1_555
Pb4_2 O6_4 1_555 1_555
Pb4_2 O3_3 1_555 1_555
O7_2 C7_5 1_555 1_555
O8_2 C7_5 1_555 1_555
O3_3 C8_5 1_555 1_555
O4_3 Pb4_2 1_555 1_555
O5_4 H1_5 1_555 1_555
O11_4 C9_5 1_555 1_555
C1_5 C2_5 1_555 1_555
C2_5 H2_5 1_555 1_555
C3_5 C2_5 1_555 1_555
C4_5 C3_5 1_555 1_555
H3_5 C4_5 1_555 1_555
C5_5 C4_5 1_555 1_555
C6_5 C1_5 1_555 1_555
H4_5 C6_5 1_555 1_555
C7_5 C1_5 1_555 1_555
C8_5 O4_3 1_555 1_555
C9_5 O5_4 1_555 1_555
Pb5 O3_3 1_555 1_555
O9_3 Pb4_2 1_555 1_555
O10_3 Pb4_2 1_555 1_555
C3_5 C8_5 1_555 1_555
C5_5 C6_5 1_555 1_555
C5_5 C9_5 1_555 1_555
Pb5 O10_3 1_555 1_555
O7 C7_6 1_555 1_555
O8 C7_6 1_555 1_555
O11_3 C9_6 1_555 1_555
C6_6 C1_6 1_555 1_555
H4_6 C6_6 1_555 1_555
C7_6 C1_6 1_555 1_555
C5_6 C6_6 1_555 1_555
C5_6 C9_6 1_555 1_555
Pb4 O3_4 1_555 1_555
O3_4 C8_6 1_555 1_555
O4_4 Pb4 1_555 1_555
C2_6 H2_6 1_555 1_555
C3_6 C2_6 1_555 1_555
C4_6 C3_6 1_555 1_555
H3_6 C4_6 1_555 1_555
C8_6 O4_4 1_555 1_555
Pb5_2 O3_4 1_555 1_555
O9_4 Pb4 1_555 1_555
O10_4 Pb4 1_555 1_555
C3_6 C8_6 1_555 1_555
Pb5_2 O10_4 1_555 1_555
O8_4 C7_7 1_555 1_555
C1_7 C2_7 1_555 1_555
C3_7 C2_7 1_555 1_555
C4_7 C3_7 1_555 1_555
H3_7 C4_7 1_555 1_555
C5_7 C4_7 1_555 1_555
C6_7 C1_7 1_555 1_555
H4_7 C6_7 1_555 1_555
C7_7 C1_7 1_555 1_555
C8_7 O10_4 1_555 1_555
C3_7 C8_7 1_555 1_555
C5_7 C6_7 1_555 1_555
O5_6 H1_7 1_555 1_555
O11_2 C9_7 1_555 1_555
C9_7 O5_6 1_555 1_555
O11 C9_8 1_555 1_555
O8_3 C7_8 1_555 1_555
C6_8 C1_8 1_555 1_555
H4_8 C6_8 1_555 1_555
C7_8 C1_8 1_555 1_555
C5_8 C6_8 1_555 1_555
C3_8 C2_8 1_555 1_555
C4_8 C3_8 1_555 1_555
H3_8 C4_8 1_555 1_555
C8_8 O10_3 1_555 1_555
C3_8 C8_8 1_555 1_555

#END
