
###############################################################################
#
# This file contains modified crystal structure data generated from the
# MOF subset of the Cambridge Structural Database (CSD) v543 
# hosted by the Cambridge Crystallographic Data Centre (CCDC).
#
# This work is licensed under the Creative Commons
# Attribution-NonCommercial-ShareAlike 4.0 International License.
# To view a copy of this license, visit
# http://creativecommons.org/licenses/by-nc-sa/4.0/
# or send a letter to
# Creative Commons, PO Box 1866, Mountain View, CA 94042, USA.
#
# CIF created using the CSD Python API on 29 September 2022
# The structure has been converted into the P1 space group
# The structure has a 3D framework
# The original CSD entry TOTGOB is in the monoclinic crystal system
# The framework has been calculated to contain at least 10.0% void space
# The void calculation uses a probe of radius 1.32A, grid spacing 0.4
#
###############################################################################

data_TOTGOB
_chemical_formula_moiety         '(C40 H40 Dy4 O30)n'
_symmetry_cell_setting           triclinic
_symmetry_space_group_name_H-M   'P 1'
_symmetry_Int_Tables_number      1
_space_group_name_Hall           'P 1'
loop_
_symmetry_equiv_pos_site_id
_symmetry_equiv_pos_as_xyz
1 x,y,z
_cell_length_a                   17.0078(7)
_cell_length_b                   9.9040(5)
_cell_length_c                   9.0636(4)
_cell_angle_alpha                90
_cell_angle_beta                 103.111(5)
_cell_angle_gamma                90
_cell_volume                     1486.92
loop_
_atom_site_label
_atom_site_type_symbol
_atom_site_fract_x
_atom_site_fract_y
_atom_site_fract_z
O4 O 0.3217(7) 0.0315(11) 0.0369(11)
H2 H 0.298377 0.044902 0.109864
O12 O 0.6453(5) 0.5998(10) 0.1703(10)
O13 O 0.3305(5) 0.3063(10) 0.0994(11)
O14 O 0.4053(6) 0.3946(13) 0.3048(11)
C15 C 0.4459(7) 0.4383(14) 0.0759(15)
C16 C 0.5752(7) 0.5545(14) 0.0839(16)
C17 C 0.3932(7) 0.3767(14) 0.1656(14)
C18 C 0.5190(8) 0.4931(16) 0.1543(14)
H13 H 0.531204 0.488573 0.259503
Dy5 Dy 0.71222(4) 0.79004(7) 0.14435(8)
Dy7 Dy 0.28778(4) 0.29004(7) 0.35565(8)
Dy1 Dy 0.28778(4) 0.20996(7) 0.85565(8)
O1 O 0.1728(5) 0.2990(10) 0.4546(12)
O2 O 0.3547(5) 0.4002(10) 0.8297(10)
O3 O 0.6695(5) 0.6937(10) 0.9006(11)
O5 O 0.1850(5) 0.3299(11) 0.7032(11)
O6 O 0.5947(6) 0.6054(13) 0.6952(11)
O7 O 0.2238(8) 0.0225(12) 0.7236(13)
O8 O 0.0570(8) 0.4193(17) 0.7959(13)
H3 H 0.088584 0.355844 0.801761
C1 C 0.5541(7) 0.5617(14) 0.9241(15)
C2 C 0.1478(7) 0.3424(13) 0.5637(13)
C3 C 0.0318(8) 0.4572(15) 0.6494(15)
C4 C 0.0711(7) 0.4222(14) 0.5346(14)
C5 C 0.4248(7) 0.4455(14) 0.9161(16)
C6 C 0.6068(7) 0.6233(14) 0.8344(14)
C8 C 0.4810(8) 0.5069(16) 0.8457(14)
H5 H 0.468796 0.511427 0.740497
H10 H 0.157345 0.009840 0.586856
C14 C 0.0381(8) 0.4646(16) 0.3853(15)
H12 H 0.063281 0.440003 0.308397
Dy4 Dy 0.71222(4) 0.70996(7) 0.64435(8)
O18 O 0.1728(5) 0.2010(10) 0.9546(12)
O21 O 0.3305(5) 0.1937(10) 0.5994(11)
O23 O 0.4053(6) 0.1054(13) 0.8048(11)
C7 C 0.9619(8) 0.5354(16) 0.6147(15)
H4 H 0.936719 0.559997 0.691603
O9 O 0.8272(5) 0.7010(10) 0.5454(12)
O10 O 0.8150(5) 0.6701(11) 0.2968(11)
O11 O 0.9430(8) 0.5807(17) 0.2041(13)
H11 H 0.911416 0.644156 0.198239
C11 C 0.8522(7) 0.6576(13) 0.4363(13)
C12 C 0.9682(8) 0.5428(15) 0.3506(15)
C13 C 0.9289(7) 0.5778(14) 0.4654(14)
O16 O 0.7762(8) 0.9775(12) 0.2764(13)
H20 H 0.842655 0.990160 0.413144
O17 O 0.8272(5) 0.7990(10) 0.0454(12)
O22 O 0.6695(5) 0.8063(10) 0.4006(11)
O24 O 0.5947(6) 0.8946(13) 0.1952(11)
O15 O 0.6783(7) 0.9685(11) 0.9631(11)
H15 H 0.701623 0.955098 0.890136
O10_2 O 0.1850(5) 0.1701(11) 0.2032(11)
O11_2 O 0.0570(8) 0.0807(17) 0.2959(13)
H11_2 H 0.088584 0.144156 0.301761
C11_2 C 0.1478(7) 0.1576(13) 0.0637(13)
C12_2 C 0.0318(8) 0.0428(15) 0.1494(15)
C13_2 C 0.0711(7) 0.0778(14) 0.0346(14)
O15_2 O 0.3217(7) 0.4685(11) 0.5369(11)
H14 H 0.301600 0.542851 0.497313
H15_2 H 0.298377 0.455098 0.609864
O16_2 O 0.2238(8) 0.4775(12) 0.2236(13)
C19 C 0.178(2) 0.649(4) 0.050(4)
H16 H 0.207169 0.727828 0.091357
H18 H 0.121171 0.662506 0.043809
C20 C 0.203(3) 0.547(5) 0.135(5)
H19 H 0.243810 0.522920 0.080750
H20_2 H 0.157345 0.490160 0.086856
O19 O 0.3547(5) 0.0998(10) 0.3297(10)
C7_2 C 0.0381(8) 0.0354(16) 0.8853(15)
H4_2 H 0.063281 0.059997 0.808397
H17 H 0.186032 0.632483 0.949810
C1_2 C 0.4459(7) 0.0617(14) 0.5759(15)
C6_2 C 0.3932(7) 0.1233(14) 0.6656(14)
C8_2 C 0.5190(8) 0.0069(16) 0.6543(14)
H5_2 H 0.531204 0.011427 0.759503
C16_2 C 0.4248(7) 0.0545(14) 0.4161(16)
H7 H 0.813968 0.367517 0.050190
C14_2 C 0.9619(8) 0.9646(16) 0.1147(15)
H12_2 H 0.936719 0.940003 0.191603
O2_2 O 0.6453(5) 0.9002(10) 0.6703(10)
O4_2 O 0.6783(7) 0.5315(11) 0.4631(11)
H1 H 0.698400 0.457149 0.502687
H2_2 H 0.701623 0.544902 0.390136
O5_2 O 0.8150(5) 0.8299(11) 0.7968(11)
O7_2 O 0.7762(8) 0.5225(12) 0.7764(13)
O8_2 O 0.9430(8) 0.9193(17) 0.7041(13)
H3_2 H 0.911416 0.855844 0.698239
C2_2 C 0.8522(7) 0.8424(13) 0.9363(13)
C3_2 C 0.9682(8) 0.9572(15) 0.8506(15)
C4_2 C 0.9289(7) 0.9222(14) 0.9654(14)
C5_2 C 0.5752(7) 0.9455(14) 0.5839(16)
C9 C 0.822(2) 0.351(4) 0.950(4)
H6 H 0.792831 0.272172 0.908643
H8 H 0.878829 0.337494 0.956191
C10 C 0.797(3) 0.453(5) 0.865(5)
H9 H 0.756190 0.477080 0.919250
H10_2 H 0.842655 0.509840 0.913144
C15_2 C 0.5541(7) 0.9383(14) 0.4241(15)
C17_2 C 0.6068(7) 0.8767(14) 0.3344(14)
C18_2 C 0.4810(8) 0.9931(16) 0.3457(14)
H13_2 H 0.468796 0.988573 0.240497
H1_2 H 0.301600 0.957149 0.997313
C9_2 C 0.178(2) 0.851(4) 0.550(4)
H6_2 H 0.207169 0.772172 0.591357
H7_2 H 0.186032 0.867517 0.449810
H8_2 H 0.121171 0.837494 0.543809
C10_2 C 0.203(3) 0.953(5) 0.635(5)
H9_2 H 0.243810 0.977080 0.580750
H14_2 H 0.698400 0.042851 0.002687
C19_2 C 0.822(2) 0.149(4) 0.450(4)
H16_2 H 0.792831 0.227828 0.408643
H17_2 H 0.813968 0.132483 0.550190
H18_2 H 0.878829 0.162506 0.456191
C20_2 C 0.797(3) 0.047(5) 0.365(5)
H19_2 H 0.756190 0.022920 0.419250
loop_
_geom_bond_atom_site_label_1
_geom_bond_atom_site_label_2
_geom_bond_site_symmetry_1
_geom_bond_site_symmetry_2
H2 O4 1_555 1_555
O12 C16 1_555 1_555
O14 C17 1_555 1_555
C17 O13 1_555 1_555
C18 C15 1_555 1_555
H13 C18 1_555 1_555
Dy7 O13 1_555 1_555
O12 Dy5 1_555 1_555
O14 Dy7 1_555 1_555
C15 C17 1_555 1_555
C16 C18 1_555 1_555
Dy1 O2 1_555 1_555
O1 C2 1_555 1_555
O2 C5 1_555 1_555
O3 C6 1_555 1_555
O5 Dy1 1_555 1_555
O6 C6 1_555 1_555
O7 Dy1 1_555 1_555
O8 H3 1_555 1_555
C1 C6 1_555 1_555
C2 O5 1_555 1_555
C3 O8 1_555 1_555
C4 C2 1_555 1_555
C5 C8 1_555 1_555
C8 C1 1_555 1_555
H5 C8 1_555 1_555
C14 C4 1_555 1_555
H12 C14 1_555 1_555
Dy4 O3 1_555 1_555
Dy7 O1 1_555 1_555
O18 Dy1 1_555 1_555
O21 Dy1 1_555 1_555
O23 Dy1 1_555 1_555
O6 Dy4 1_555 1_555
C3 C4 1_555 1_555
Dy7 O21 1_555 1_555
H4 C7 1_555 1_555
O9 C11 1_555 1_555
O10 C11 1_555 1_555
O11 H11 1_555 1_555
C11 C13 1_555 1_555
C12 O11 1_555 1_555
C13 C7 1_555 1_555
Dy5 O10 1_555 1_555
O16 Dy5 1_555 1_555
Dy4 O9 1_555 1_555
O17 Dy5 1_555 1_555
O22 Dy5 1_555 1_555
O24 Dy5 1_555 1_555
C12 C13 1_555 1_555
Dy4 O22 1_555 1_555
H15 O15 1_555 1_555
O10_2 C11_2 1_555 1_555
O11_2 H11_2 1_555 1_555
C11_2 C13_2 1_555 1_555
C12_2 O11_2 1_555 1_555
Dy7 O10_2 1_555 1_555
O15_2 Dy7 1_555 1_555
H14 O15_2 1_555 1_555
H15_2 O15_2 1_555 1_555
O16_2 Dy7 1_555 1_555
C19 H16 1_555 1_555
H18 C19 1_555 1_555
C20 O16_2 1_555 1_555
H19 C20 1_555 1_555
H20_2 C20 1_555 1_555
O19 Dy7 1_555 1_555
C12_2 C13_2 1_555 1_555
C19 C20 1_555 1_555
H4_2 C7_2 1_555 1_555
O21 C6_2 1_555 1_555
O23 C6_2 1_555 1_555
C1_2 C6_2 1_555 1_555
C8_2 C1_2 1_555 1_555
H5_2 C8_2 1_555 1_555
O19 C16_2 1_555 1_555
C16_2 C1_2 1_555 1_555
H12_2 C14_2 1_555 1_555
Dy4 O2_2 1_555 1_555
O2_2 C5_2 1_555 1_555
O4_2 Dy4 1_555 1_555
H1 O4_2 1_555 1_555
H2_2 O4_2 1_555 1_555
O5_2 Dy4 1_555 1_555
O7_2 Dy4 1_555 1_555
O8_2 H3_2 1_555 1_555
C2_2 O5_2 1_555 1_555
C3_2 O8_2 1_555 1_555
C4_2 C2_2 1_555 1_555
C9 H6 1_555 1_555
H8 C9 1_555 1_555
C10 O7_2 1_555 1_555
H9 C10 1_555 1_555
H10_2 C10 1_555 1_555
O24 C17_2 1_555 1_555
C15_2 C5_2 1_555 1_555
C17_2 O22 1_555 1_555
C18_2 C15_2 1_555 1_555
H13_2 C18_2 1_555 1_555
C3_2 C4_2 1_555 1_555
C9 C10 1_555 1_555
C15_2 C17_2 1_555 1_555
C9_2 H6_2 1_555 1_555
H7_2 C9_2 1_555 1_555
H8_2 C9_2 1_555 1_555
H9_2 C10_2 1_555 1_555
C9_2 C10_2 1_555 1_555
C19_2 H16_2 1_555 1_555
H17_2 C19_2 1_555 1_555
H18_2 C19_2 1_555 1_555
H19_2 C20_2 1_555 1_555
C19_2 C20_2 1_555 1_555

#END
