
###############################################################################
#
# This file contains modified crystal structure data generated from the
# MOF subset of the Cambridge Structural Database (CSD) v543 
# hosted by the Cambridge Crystallographic Data Centre (CCDC).
#
# This work is licensed under the Creative Commons
# Attribution-NonCommercial-ShareAlike 4.0 International License.
# To view a copy of this license, visit
# http://creativecommons.org/licenses/by-nc-sa/4.0/
# or send a letter to
# Creative Commons, PO Box 1866, Mountain View, CA 94042, USA.
#
# CIF created using the CSD Python API on 29 September 2022
# The structure has been converted into the P1 space group
# The structure has a 3D framework
# The original CSD entry TOWSEG is in the monoclinic crystal system
# The framework has been calculated to contain at least 10.0% void space
# The void calculation uses a probe of radius 1.32A, grid spacing 0.4
#
###############################################################################

data_TOWSEG
_chemical_formula_moiety         '(C64 H40 Co4 N8 O20)n'
_symmetry_cell_setting           triclinic
_symmetry_space_group_name_H-M   'P 1'
_symmetry_Int_Tables_number      1
_space_group_name_Hall           'P 1'
loop_
_symmetry_equiv_pos_site_id
_symmetry_equiv_pos_as_xyz
1 x,y,z
_cell_length_a                   13.632(15)
_cell_length_b                   14.044(15)
_cell_length_c                   16.037(17)
_cell_angle_alpha                90
_cell_angle_beta                 107.90(3)
_cell_angle_gamma                90
_cell_volume                     2921.63
loop_
_atom_site_label
_atom_site_type_symbol
_atom_site_fract_x
_atom_site_fract_y
_atom_site_fract_z
Co1 Co 0.42821(5) 0.05442(5) 0.47281(6)
N2 N 0.3076(4) 0.1154(4) 0.4283(4)
C9 C 0.2349(5) 0.0618(5) 0.4024(5)
C10 C 0.1523(5) 0.0972(6) 0.3694(5)
H6 H 0.095222 0.058188 0.346455
C11 C 0.1393(5) 0.1972(5) 0.3645(5)
C12 C 0.2158(5) 0.2533(6) 0.3871(6)
H7 H 0.211252 0.318943 0.379041
C13 C 0.2964(5) 0.2103(5) 0.4207(5)
H8 H 0.355575 0.246862 0.443261
C14 C 0.0542(5) 0.2413(6) 0.3318(6)
H9 H 0.052085 0.305592 0.317530
O6 O 0.4856(3) 0.1347(3) 0.5980(3)
O9 O 0.4860(3) 0.1327(3) 0.3878(3)
H5 H 0.242914 0.996088 0.407893
O7 O 0.3924(3) 0.9545(3) 0.3602(3)
O8 O 0.3941(3) 0.9563(3) 0.5630(3)
O1 O 0.4856(3) 0.3653(3) 0.0980(3)
O2 O 0.6076(3) 0.4545(3) 0.1398(3)
O3 O 0.6059(3) 0.0437(3) 0.4370(3)
N1 N 0.8314(5) 0.1962(6) 0.3192(7)
H1 H 0.853745 0.148453 0.353355
C1 C 0.6095(5) 0.3098(5) 0.2261(6)
C2 C 0.5651(4) 0.2485(4) 0.2711(4)
H2 H 0.493538 0.252348 0.254721
C3 C 0.6092(5) 0.1787(5) 0.3397(5)
C4 C 0.6956(6) 0.1621(7) 0.3507(8)
H3 H 0.731260 0.116146 0.390260
C5 C 0.7426(6) 0.2169(7) 0.2997(7)
C6 C 0.7008(6) 0.2952(7) 0.2380(8)
H4 H 0.740218 0.330118 0.210709
C7 C 0.5640(4) 0.3825(4) 0.1520(4)
C8 C 0.5633(4) 0.1141(4) 0.3904(4)
O5 O 0.8799(5) 0.3223(5) 0.2504(8)
C15 C 0.9810(5) 0.1974(6) 0.3210(8)
H10 H 0.982993 0.132537 0.333108
C16 C 0.8941(6) 0.2435(7) 0.2905(7)
Co3 Co 0.57179(5) 0.55442(5) 0.02719(6)
Co5 Co 0.42821(5) 0.44558(5) 0.97281(6)
Co4 Co 0.57179(5) 0.94558(5) 0.52719(6)
O1_2 O 0.5144(3) 0.8653(3) 0.4020(3)
O3_2 O 0.3941(3) 0.5437(3) 0.0630(3)
O4 O 0.5140(3) 0.6327(3) 0.1122(3)
N1_2 N 0.1686(5) 0.6962(6) 0.1808(7)
H1_2 H 0.146255 0.648453 0.146645
C1_2 C 0.3905(5) 0.8098(5) 0.2739(6)
C2_2 C 0.4349(4) 0.7485(4) 0.2289(4)
H2_2 H 0.506462 0.752348 0.245279
C3_2 C 0.3908(5) 0.6787(5) 0.1603(5)
C4_2 C 0.3044(6) 0.6621(7) 0.1493(8)
H3_2 H 0.268740 0.616146 0.109740
C5_2 C 0.2574(6) 0.7169(7) 0.2003(7)
C6_2 C 0.2992(6) 0.7952(7) 0.2620(8)
H4_2 H 0.259782 0.830118 0.289291
C7_2 C 0.4360(4) 0.8825(4) 0.3480(4)
C8_2 C 0.4367(4) 0.6141(4) 0.1096(4)
O5_2 O 0.1201(5) 0.8223(5) 0.2496(8)
C15_2 C 0.0190(5) 0.6974(6) 0.1790(8)
H10_2 H 0.017007 0.632537 0.166892
C16_2 C 0.1059(6) 0.7435(7) 0.2095(7)
N2_2 N 0.6924(4) 0.6154(4) 0.0717(4)
C9_2 C 0.7651(5) 0.5618(5) 0.0976(5)
H5_2 H 0.757086 0.496088 0.092107
C10_2 C 0.8477(5) 0.5972(6) 0.1306(5)
H6_2 H 0.904778 0.558188 0.153545
C11_2 C 0.8607(5) 0.6972(5) 0.1355(5)
C12_2 C 0.7842(5) 0.7533(6) 0.1129(6)
H7_2 H 0.788748 0.818943 0.120959
C13_2 C 0.7036(5) 0.7103(5) 0.0793(5)
H8_2 H 0.644425 0.746862 0.056739
C14_2 C 0.9458(5) 0.7413(6) 0.1682(6)
H9_2 H 0.947915 0.805592 0.182470
O6_2 O 0.5144(3) 0.6347(3) 0.9020(3)
O8_2 O 0.6059(3) 0.4563(3) 0.9370(3)
O2_2 O 0.3924(3) 0.5455(3) 0.8602(3)
O4_2 O 0.5140(3) 0.8673(3) 0.6122(3)
N1_3 N 0.1686(5) 0.8038(6) 0.6808(7)
H1_3 H 0.146255 0.851547 0.646645
C1_3 C 0.3905(5) 0.6902(5) 0.7739(6)
C2_3 C 0.4349(4) 0.7515(4) 0.7289(4)
H2_3 H 0.506462 0.747652 0.745279
C3_3 C 0.3908(5) 0.8213(5) 0.6603(5)
C4_3 C 0.3044(6) 0.8379(7) 0.6493(8)
H3_3 H 0.268740 0.883854 0.609740
C5_3 C 0.2574(6) 0.7831(7) 0.7003(7)
C6_3 C 0.2992(6) 0.7048(7) 0.7620(8)
H4_3 H 0.259782 0.669882 0.789291
C7_3 C 0.4360(4) 0.6175(4) 0.8480(4)
C8_3 C 0.4367(4) 0.8859(4) 0.6096(4)
O5_3 O 0.1201(5) 0.6777(5) 0.7496(8)
C15_3 C 0.0190(5) 0.8026(6) 0.6790(8)
H10_3 H 0.017007 0.867463 0.666892
C16_3 C 0.1059(6) 0.7565(7) 0.7095(7)
H5_3 H 0.757086 0.003912 0.592107
O7_2 O 0.6076(3) 0.0455(3) 0.6398(3)
N2_3 N 0.6924(4) 0.8846(4) 0.5717(4)
C9_3 C 0.7651(5) 0.9382(5) 0.5976(5)
C10_3 C 0.8477(5) 0.9028(6) 0.6306(5)
H6_3 H 0.904778 0.941812 0.653545
C11_3 C 0.8607(5) 0.8028(5) 0.6355(5)
C12_3 C 0.7842(5) 0.7467(6) 0.6129(6)
H7_3 H 0.788748 0.681057 0.620959
C13_3 C 0.7036(5) 0.7897(5) 0.5793(5)
H8_3 H 0.644425 0.753138 0.556739
C14_3 C 0.9458(5) 0.7587(6) 0.6682(6)
H9_3 H 0.947915 0.694408 0.682470
N2_4 N 0.3076(4) 0.3846(4) 0.9283(4)
C9_4 C 0.2349(5) 0.4382(5) 0.9024(5)
H5_4 H 0.242914 0.503912 0.907893
C10_4 C 0.1523(5) 0.4028(6) 0.8694(5)
H6_4 H 0.095222 0.441812 0.846455
C11_4 C 0.1393(5) 0.3028(5) 0.8645(5)
C12_4 C 0.2158(5) 0.2467(6) 0.8871(6)
H7_4 H 0.211252 0.181057 0.879041
C13_4 C 0.2964(5) 0.2897(5) 0.9207(5)
H8_4 H 0.355575 0.253138 0.943261
C14_4 C 0.0542(5) 0.2587(6) 0.8318(6)
H9_4 H 0.052085 0.194408 0.817530
O9_2 O 0.4860(3) 0.3673(3) 0.8878(3)
N1_4 N 0.8314(5) 0.3038(6) 0.8192(7)
H1_4 H 0.853745 0.351547 0.853355
C1_4 C 0.6095(5) 0.1902(5) 0.7261(6)
C2_4 C 0.5651(4) 0.2515(4) 0.7711(4)
H2_4 H 0.493538 0.247652 0.754721
C3_4 C 0.6092(5) 0.3213(5) 0.8397(5)
C4_4 C 0.6956(6) 0.3379(7) 0.8507(8)
H3_4 H 0.731260 0.383854 0.890260
C5_4 C 0.7426(6) 0.2831(7) 0.7997(7)
C6_4 C 0.7008(6) 0.2048(7) 0.7380(8)
H4_4 H 0.740218 0.169882 0.710709
C7_4 C 0.5640(4) 0.1175(4) 0.6520(4)
C8_4 C 0.5633(4) 0.3859(4) 0.8904(4)
O5_4 O 0.8799(5) 0.1777(5) 0.7504(8)
C15_4 C 0.9810(5) 0.3026(6) 0.8210(8)
H10_4 H 0.982993 0.367463 0.833108
C16_4 C 0.8941(6) 0.2565(7) 0.7905(7)
loop_
_geom_bond_atom_site_label_1
_geom_bond_atom_site_label_2
_geom_bond_site_symmetry_1
_geom_bond_site_symmetry_2
Co1 N2 1_555 1_555
N2 C9 1_555 1_555
C10 C9 1_555 1_555
H6 C10 1_555 1_555
C11 C10 1_555 1_555
C12 C11 1_555 1_555
H7 C12 1_555 1_555
C13 N2 1_555 1_555
H8 C13 1_555 1_555
C14 C11 1_555 1_555
H9 C14 1_555 1_555
O6 Co1 1_555 1_555
O9 Co1 1_555 1_555
C12 C13 1_555 1_555
O1 C7 1_555 1_555
O2 C7 1_555 1_555
O3 C8 1_555 1_555
O9 C8 1_555 1_555
N1 H1 1_555 1_555
C1 C2 1_555 1_555
C2 H2 1_555 1_555
C3 C2 1_555 1_555
C4 C3 1_555 1_555
H3 C4 1_555 1_555
C5 N1 1_555 1_555
C6 C1 1_555 1_555
H4 C6 1_555 1_555
C7 C1 1_555 1_555
C8 C3 1_555 1_555
O5 C16 1_555 1_555
H10 C15 1_555 1_555
C16 N1 1_555 1_555
Co3 O2 1_555 1_555
C4 C5 1_555 1_555
C5 C6 1_555 1_555
C15 C16 1_555 1_555
O1_2 C7_2 1_555 1_555
O7 C7_2 1_555 1_555
O3_2 C8_2 1_555 1_555
O4 C8_2 1_555 1_555
N1_2 H1_2 1_555 1_555
C1_2 C2_2 1_555 1_555
C2_2 H2_2 1_555 1_555
C3_2 C2_2 1_555 1_555
C4_2 C3_2 1_555 1_555
H3_2 C4_2 1_555 1_555
C5_2 N1_2 1_555 1_555
C6_2 C1_2 1_555 1_555
H4_2 C6_2 1_555 1_555
C7_2 C1_2 1_555 1_555
C8_2 C3_2 1_555 1_555
O5_2 C16_2 1_555 1_555
H10_2 C15_2 1_555 1_555
C16_2 N1_2 1_555 1_555
Co3 O4 1_555 1_555
Co4 O1_2 1_555 1_555
C4_2 C5_2 1_555 1_555
C5_2 C6_2 1_555 1_555
C15_2 C16_2 1_555 1_555
Co3 N2_2 1_555 1_555
N2_2 C9_2 1_555 1_555
C9_2 H5_2 1_555 1_555
C10_2 C9_2 1_555 1_555
H6_2 C10_2 1_555 1_555
C11_2 C10_2 1_555 1_555
C12_2 C11_2 1_555 1_555
H7_2 C12_2 1_555 1_555
C13_2 N2_2 1_555 1_555
H8_2 C13_2 1_555 1_555
C14_2 C11_2 1_555 1_555
H9_2 C14_2 1_555 1_555
C12_2 C13_2 1_555 1_555
O6_2 C7_3 1_555 1_555
O2_2 C7_3 1_555 1_555
O8 C8_3 1_555 1_555
O4_2 C8_3 1_555 1_555
N1_3 H1_3 1_555 1_555
C1_3 C2_3 1_555 1_555
C2_3 H2_3 1_555 1_555
C3_3 C2_3 1_555 1_555
C4_3 C3_3 1_555 1_555
H3_3 C4_3 1_555 1_555
C5_3 N1_3 1_555 1_555
C6_3 C1_3 1_555 1_555
H4_3 C6_3 1_555 1_555
C7_3 C1_3 1_555 1_555
C8_3 C3_3 1_555 1_555
O5_3 C16_3 1_555 1_555
H10_3 C15_3 1_555 1_555
C16_3 N1_3 1_555 1_555
Co4 O4_2 1_555 1_555
Co5 O2_2 1_555 1_555
C4_3 C5_3 1_555 1_555
C5_3 C6_3 1_555 1_555
C15_3 C16_3 1_555 1_555
Co4 N2_3 1_555 1_555
N2_3 C9_3 1_555 1_555
C10_3 C9_3 1_555 1_555
H6_3 C10_3 1_555 1_555
C11_3 C10_3 1_555 1_555
C12_3 C11_3 1_555 1_555
H7_3 C12_3 1_555 1_555
C13_3 N2_3 1_555 1_555
H8_3 C13_3 1_555 1_555
C14_3 C11_3 1_555 1_555
H9_3 C14_3 1_555 1_555
C12_3 C13_3 1_555 1_555
Co5 N2_4 1_555 1_555
N2_4 C9_4 1_555 1_555
C9_4 H5_4 1_555 1_555
C10_4 C9_4 1_555 1_555
H6_4 C10_4 1_555 1_555
C11_4 C10_4 1_555 1_555
C12_4 C11_4 1_555 1_555
H7_4 C12_4 1_555 1_555
C13_4 N2_4 1_555 1_555
H8_4 C13_4 1_555 1_555
C14_4 C11_4 1_555 1_555
H9_4 C14_4 1_555 1_555
O9_2 Co5 1_555 1_555
C12_4 C13_4 1_555 1_555
O6 C7_4 1_555 1_555
O7_2 C7_4 1_555 1_555
O8_2 C8_4 1_555 1_555
O9_2 C8_4 1_555 1_555
N1_4 H1_4 1_555 1_555
C1_4 C2_4 1_555 1_555
C2_4 H2_4 1_555 1_555
C3_4 C2_4 1_555 1_555
C4_4 C3_4 1_555 1_555
H3_4 C4_4 1_555 1_555
C5_4 N1_4 1_555 1_555
C6_4 C1_4 1_555 1_555
H4_4 C6_4 1_555 1_555
C7_4 C1_4 1_555 1_555
C8_4 C3_4 1_555 1_555
O5_4 C16_4 1_555 1_555
H10_4 C15_4 1_555 1_555
C16_4 N1_4 1_555 1_555
C4_4 C5_4 1_555 1_555
C5_4 C6_4 1_555 1_555
C15_4 C16_4 1_555 1_555

#END
