
###############################################################################
#
# This file contains modified crystal structure data generated from the
# MOF subset of the Cambridge Structural Database (CSD) v543 
# hosted by the Cambridge Crystallographic Data Centre (CCDC).
#
# This work is licensed under the Creative Commons
# Attribution-NonCommercial-ShareAlike 4.0 International License.
# To view a copy of this license, visit
# http://creativecommons.org/licenses/by-nc-sa/4.0/
# or send a letter to
# Creative Commons, PO Box 1866, Mountain View, CA 94042, USA.
#
# CIF created using the CSD Python API on 29 September 2022
# The structure has been converted into the P1 space group
# The structure has a 3D framework
# The original CSD entry TOYHIB is in the hexagonal crystal system
# The framework has been calculated to contain at least 10.0% void space
# The void calculation uses a probe of radius 1.32A, grid spacing 0.4
#
###############################################################################

data_TOYHIB
_chemical_formula_moiety         '(C138 H74 O35 Ti12)n'
_symmetry_cell_setting           triclinic
_symmetry_space_group_name_H-M   'P 1'
_symmetry_Int_Tables_number      1
_space_group_name_Hall           'P 1'
loop_
_symmetry_equiv_pos_site_id
_symmetry_equiv_pos_as_xyz
1 x,y,z
_cell_length_a                   20.1600
_cell_length_b                   20.1600
_cell_length_c                   11.7580
_cell_angle_alpha                90
_cell_angle_beta                 90
_cell_angle_gamma                120
_cell_volume                     4138.52
loop_
_atom_site_label
_atom_site_type_symbol
_atom_site_fract_x
_atom_site_fract_y
_atom_site_fract_z
O10 O 0.00000 0.08460 0.42703
Ti3 Ti 0.00000 0.10312 0.60487
O14 O 0.07111 0.21902 0.56938
O16 O 0.06166 0.14373 0.75000
O19 O 0.08460 0.08460 0.57297
O22 O 0.00000 0.91540 0.57297
Ti4 Ti 0.10312 0.10312 0.39513
Ti7 Ti 0.00000 0.89688 0.39513
O21 O 0.91540 0.00000 0.57297
Ti6 Ti 0.89688 0.00000 0.39513
O1 O 0.21902 0.14791 0.43062
C1 C 0.45935 0.27628 0.43504
C2 C 0.37962 0.23613 0.43415
H1 H 0.49067 0.32762 0.38279
H2 H 0.34745 0.25529 0.38233
O2 O 0.14373 0.08207 0.25000
H3 H 0.17401 0.05689 0.25000
C3 C 0.50071 0.25036 0.50000
C4 C 0.33894 0.16947 0.50000
C5 C 0.25324 0.12662 0.50000
C6 C 0.58557 0.29278 0.50000
C7 C 0.62667 0.37333 0.50000
H4 H 0.59539 0.40461 0.50000
O4 O 0.85209 0.07111 0.43062
C8 C 0.72372 0.18307 0.43504
C9 C 0.76387 0.14349 0.43415
H5 H 0.67238 0.16305 0.38279
H6 H 0.74471 0.09216 0.38233
C10 C 0.74964 0.25035 0.50000
C11 C 0.83053 0.16947 0.50000
C12 C 0.87338 0.12662 0.50000
C13 C 0.70722 0.29279 0.50000
C14 C 0.62667 0.25334 0.50000
H7 H 0.59539 0.19078 0.50000
O5 O 0.92889 0.78098 0.43062
C15 C 0.81693 0.54065 0.43504
C16 C 0.85651 0.62038 0.43415
H8 H 0.83695 0.50933 0.38279
H9 H 0.90784 0.65255 0.38233
C17 C 0.74965 0.49929 0.50000
C18 C 0.83053 0.66106 0.50000
C19 C 0.87338 0.74676 0.50000
C20 C 0.70721 0.41443 0.50000
C21 C 0.74666 0.37333 0.50000
H10 H 0.80922 0.40461 0.50000
O6 O 0.85209 0.78098 0.56938
C22 C 0.72372 0.54065 0.56496
C23 C 0.76387 0.62038 0.56585
H11 H 0.67238 0.50933 0.61721
H12 H 0.74471 0.65255 0.61767
O7 O 0.92889 0.14791 0.56938
C24 C 0.81693 0.27628 0.56496
C25 C 0.85651 0.23613 0.56585
H13 H 0.83695 0.32762 0.61721
H14 H 0.90784 0.25529 0.61767
O8 O 0.21902 0.07111 0.56938
C26 C 0.45935 0.18307 0.56496
C27 C 0.37962 0.14349 0.56585
H15 H 0.49067 0.16305 0.61721
H16 H 0.34745 0.09216 0.61767
O9 O 0.91540 0.91540 0.42703
Ti2 Ti 0.89688 0.89688 0.60487
O10_2 O 1.00000 0.08460 0.42703
Ti3_2 Ti 1.00000 0.10312 0.60487
O11 O 0.08207 0.14373 0.25000
H17 H 0.05689 0.17401 0.25000
O12 O 0.85627 0.91793 0.75000
H18 H 0.82599 0.94311 0.75000
O13 O 0.78098 0.85209 0.56938
O15 O 0.14791 0.21902 0.43062
O17 O 0.91793 0.85627 0.75000
O18 O 0.93834 0.08207 0.75000
O21_2 O 0.91540 1.00000 0.57297
O22_2 O 1.00000 0.91540 0.57297
O24 O 0.08460 0.00000 0.42703
Ti6_2 Ti 0.89688 1.00000 0.39513
Ti7_2 Ti 1.00000 0.89688 0.39513
Ti8 Ti 0.89688 0.89688 0.89513
Ti9 Ti 0.10312 0.10312 0.10487
Ti11 Ti 0.10312 0.00000 0.60487
O24_2 O 0.08460 1.00000 0.42703
Ti11_2 Ti 0.10312 1.00000 0.60487
O2_2 O 0.91793 0.06166 0.25000
H3_2 H 0.94311 0.11712 0.25000
O17_2 O 0.14373 0.06166 0.75000
Ti8_2 Ti 0.10312 0.00000 0.89513
Ti9_2 Ti 0.89688 -0.00000 0.10487
O11_2 O 0.85627 0.93834 0.25000
H17_2 H 0.82599 0.88288 0.25000
O12_2 O 0.08207 0.93834 0.75000
H18_2 H 0.05689 0.88288 0.75000
O13_2 O 0.14791 0.92889 0.56938
O15_2 O 0.78098 0.92889 0.43062
Ti8_3 Ti 0.10312 1.00000 0.89513
Ti9_3 Ti 0.89688 1.00000 0.10487
O11_3 O 0.06166 0.91793 0.25000
H17_3 H 0.11712 0.94311 0.25000
H18_3 H 0.11712 0.17401 0.75000
O15_3 O 0.07111 0.85209 0.43062
Ti8_4 Ti 0.00000 0.10312 0.89513
Ti9_4 Ti 0.00000 0.89688 0.10487
O2_3 O 0.93834 0.85627 0.25000
H3_3 H 0.88288 0.82599 0.25000
Ti8_5 Ti 1.00000 0.10312 0.89513
Ti9_5 Ti 1.00000 0.89688 0.10487
O23 O 0.00000 0.91540 0.92703
O20 O 0.08460 0.00000 0.07297
O24_3 O 0.91540 0.00000 0.92703
O3 O 0.91540 0.91540 0.07297
C3_2 C 0.49929 0.74964 0.00000
C4_2 C 0.66106 0.83053 0.00000
C5_2 C 0.74676 0.87338 0.00000
C6_2 C 0.41443 0.70722 0.00000
C7_2 C 0.37333 0.62667 0.00000
H4_2 H 0.40461 0.59539 0.00000
C10_2 C 0.25036 0.74965 0.00000
C11_2 C 0.16947 0.83053 0.00000
C12_2 C 0.12662 0.87338 0.00000
C13_2 C 0.29278 0.70721 0.00000
C14_2 C 0.37333 0.74666 0.00000
H7_2 H 0.40461 0.80922 0.00000
C17_2 C 0.25035 0.50071 0.00000
C18_2 C 0.16947 0.33894 0.00000
C19_2 C 0.12662 0.25324 0.00000
C20_2 C 0.29279 0.58557 0.00000
C21_2 C 0.25334 0.62667 0.00000
H10_2 H 0.19078 0.59539 0.00000
O6_2 O 0.14791 0.21902 0.06938
C22_2 C 0.27628 0.45935 0.06496
C23_2 C 0.23613 0.37962 0.06585
H11_2 H 0.32762 0.49067 0.11721
H12_2 H 0.25529 0.34745 0.11767
O7_2 O 0.07111 0.85209 0.06938
C24_2 C 0.18307 0.72372 0.06496
C25_2 C 0.14349 0.76387 0.06585
H13_2 H 0.16305 0.67238 0.11721
H14_2 H 0.09216 0.74471 0.11767
O8_2 O 0.78098 0.92889 0.06938
C26_2 C 0.54065 0.81693 0.06496
C27_2 C 0.62038 0.85651 0.06585
H15_2 H 0.50933 0.83695 0.11721
H16_2 H 0.65255 0.90784 0.11767
O13_3 O 0.21902 0.14791 0.06938
O20_2 O 0.08460 1.00000 0.07297
O22_3 O 0.00000 0.08460 0.07297
O1_2 O 0.78098 0.85209 0.93062
C1_2 C 0.54065 0.72372 0.93504
C2_2 C 0.62038 0.76387 0.93415
H1_2 H 0.50933 0.67238 0.88279
H2_2 H 0.65255 0.74471 0.88233
C3_3 C 0.49929 0.74964 1.00000
C4_3 C 0.66106 0.83053 1.00000
C5_3 C 0.74676 0.87338 1.00000
C6_3 C 0.41443 0.70722 1.00000
C7_3 C 0.37333 0.62667 1.00000
H4_3 H 0.40461 0.59539 1.00000
O4_2 O 0.14791 0.92889 0.93062
C8_2 C 0.27628 0.81693 0.93504
C9_2 C 0.23613 0.85651 0.93415
H5_2 H 0.32762 0.83695 0.88279
H6_2 H 0.25529 0.90784 0.88233
C10_3 C 0.25036 0.74965 1.00000
C11_3 C 0.16947 0.83053 1.00000
C12_3 C 0.12662 0.87338 1.00000
C13_3 C 0.29278 0.70721 1.00000
C14_3 C 0.37333 0.74666 1.00000
H7_3 H 0.40461 0.80922 1.00000
O5_2 O 0.07111 0.21902 0.93062
C15_2 C 0.18307 0.45935 0.93504
C16_2 C 0.14349 0.37962 0.93415
H8_2 H 0.16305 0.49067 0.88279
H9_2 H 0.09216 0.34745 0.88233
C17_3 C 0.25035 0.50071 1.00000
C18_3 C 0.16947 0.33894 1.00000
C19_3 C 0.12662 0.25324 1.00000
C20_3 C 0.29279 0.58557 1.00000
C21_3 C 0.25334 0.62667 1.00000
H10_3 H 0.19078 0.59539 1.00000
O9_2 O 0.08460 0.08460 0.92703
H17_4 H 0.94311 0.82599 0.75000
O15_4 O 0.85209 0.78098 0.93062
O23_2 O 1.00000 0.91540 0.92703
O24_4 O 0.91540 1.00000 0.92703
O14_2 O 0.92889 0.78098 0.06938
O22_4 O 1.00000 0.08460 0.07297
O13_4 O 0.85209 0.07111 0.06938
H17_5 H 0.17401 0.11712 0.75000
O15_5 O 0.21902 0.07111 0.93062
H17_6 H 0.88288 0.05689 0.75000
O15_6 O 0.92889 0.14791 0.93062
C1_3 C 0.54065 0.72372 0.56496
C2_3 C 0.62038 0.76387 0.56585
H1_3 H 0.50933 0.67238 0.61721
H2_3 H 0.65255 0.74471 0.61767
C3_4 C 0.49929 0.74964 0.50000
C4_4 C 0.66106 0.83053 0.50000
C5_4 C 0.74676 0.87338 0.50000
C6_4 C 0.41443 0.70722 0.50000
C7_4 C 0.37333 0.62667 0.50000
H4_4 H 0.40461 0.59539 0.50000
C8_3 C 0.27628 0.81693 0.56496
C9_3 C 0.23613 0.85651 0.56585
H5_3 H 0.32762 0.83695 0.61721
H6_3 H 0.25529 0.90784 0.61767
C10_4 C 0.25036 0.74965 0.50000
C11_4 C 0.16947 0.83053 0.50000
C12_4 C 0.12662 0.87338 0.50000
C13_4 C 0.29278 0.70721 0.50000
C14_4 C 0.37333 0.74666 0.50000
H7_4 H 0.40461 0.80922 0.50000
C15_3 C 0.18307 0.45935 0.56496
C16_3 C 0.14349 0.37962 0.56585
H8_3 H 0.16305 0.49067 0.61721
H9_3 H 0.09216 0.34745 0.61767
C17_4 C 0.25035 0.50071 0.50000
C18_4 C 0.16947 0.33894 0.50000
C19_4 C 0.12662 0.25324 0.50000
C20_4 C 0.29279 0.58557 0.50000
C21_4 C 0.25334 0.62667 0.50000
H10_4 H 0.19078 0.59539 0.50000
C22_3 C 0.27628 0.45935 0.43504
C23_3 C 0.23613 0.37962 0.43415
H11_3 H 0.32762 0.49067 0.38279
H12_3 H 0.25529 0.34745 0.38233
C24_3 C 0.18307 0.72372 0.43504
C25_3 C 0.14349 0.76387 0.43415
H13_3 H 0.16305 0.67238 0.38279
H14_3 H 0.09216 0.74471 0.38233
C26_3 C 0.54065 0.81693 0.43504
C27_3 C 0.62038 0.85651 0.43415
H15_3 H 0.50933 0.83695 0.38279
H16_3 H 0.65255 0.90784 0.38233
C1_4 C 0.45935 0.27628 0.06496
C2_4 C 0.37962 0.23613 0.06585
H1_4 H 0.49067 0.32762 0.11721
H2_4 H 0.34745 0.25529 0.11767
C3_5 C 0.50071 0.25036 -0.00000
C4_5 C 0.33894 0.16947 -0.00000
C5_5 C 0.25324 0.12662 -0.00000
C6_5 C 0.58557 0.29278 -0.00000
C7_5 C 0.62667 0.37333 -0.00000
H4_5 H 0.59539 0.40461 -0.00000
C8_4 C 0.72372 0.18307 0.06496
C9_4 C 0.76387 0.14349 0.06585
H5_4 H 0.67238 0.16305 0.11721
H6_4 H 0.74471 0.09216 0.11767
C10_5 C 0.74964 0.25035 -0.00000
C11_5 C 0.83053 0.16947 -0.00000
C12_5 C 0.87338 0.12662 -0.00000
C13_5 C 0.70722 0.29279 -0.00000
C14_5 C 0.62667 0.25334 -0.00000
H7_5 H 0.59539 0.19078 -0.00000
C15_4 C 0.81693 0.54065 0.06496
C16_4 C 0.85651 0.62038 0.06585
H8_4 H 0.83695 0.50933 0.11721
H9_4 H 0.90784 0.65255 0.11767
C17_5 C 0.74965 0.49929 -0.00000
C18_5 C 0.83053 0.66106 -0.00000
C19_5 C 0.87338 0.74676 -0.00000
C20_5 C 0.70721 0.41443 -0.00000
C21_5 C 0.74666 0.37333 -0.00000
H10_5 H 0.80922 0.40461 -0.00000
C3_6 C 0.50071 0.25036 1.00000
C4_6 C 0.33894 0.16947 1.00000
C5_6 C 0.25324 0.12662 1.00000
C6_6 C 0.58557 0.29278 1.00000
C7_6 C 0.62667 0.37333 1.00000
H4_6 H 0.59539 0.40461 1.00000
C10_6 C 0.74964 0.25035 1.00000
C11_6 C 0.83053 0.16947 1.00000
C12_6 C 0.87338 0.12662 1.00000
C13_6 C 0.70722 0.29279 1.00000
C14_6 C 0.62667 0.25334 1.00000
H7_6 H 0.59539 0.19078 1.00000
C17_6 C 0.74965 0.49929 1.00000
C18_6 C 0.83053 0.66106 1.00000
C19_6 C 0.87338 0.74676 1.00000
C20_6 C 0.70721 0.41443 1.00000
C21_6 C 0.74666 0.37333 1.00000
H10_6 H 0.80922 0.40461 1.00000
C22_4 C 0.72372 0.54065 0.93504
C23_4 C 0.76387 0.62038 0.93415
H11_4 H 0.67238 0.50933 0.88279
H12_4 H 0.74471 0.65255 0.88233
C24_4 C 0.81693 0.27628 0.93504
C25_4 C 0.85651 0.23613 0.93415
H13_4 H 0.83695 0.32762 0.88279
H14_4 H 0.90784 0.25529 0.88233
C26_4 C 0.45935 0.18307 0.93504
C27_4 C 0.37962 0.14349 0.93415
H15_4 H 0.49067 0.16305 0.88279
H16_4 H 0.34745 0.09216 0.88233
loop_
_geom_bond_atom_site_label_1
_geom_bond_atom_site_label_2
_geom_bond_site_symmetry_1
_geom_bond_site_symmetry_2
O10 Ti3 1_555 1_555
O14 Ti3 1_555 1_555
O16 Ti3 1_555 1_555
O19 Ti3 1_555 1_555
Ti4 O10 1_555 1_555
O19 Ti4 1_555 1_555
O22 Ti7 1_555 1_555
O21 Ti6 1_555 1_555
O1 C5 1_555 1_555
C1 C2 1_555 1_555
C2 H2 1_555 1_555
H1 C1 1_555 1_555
O2 H3 1_555 1_555
C3 C1 1_555 1_555
C4 C2 1_555 1_555
C5 C4 1_555 1_555
C6 C3 1_555 1_555
C7 C6 1_555 1_555
H4 C7 1_555 1_555
Ti4 O1 1_555 1_555
O4 C12 1_555 1_555
C8 C9 1_555 1_555
C9 H6 1_555 1_555
H5 C8 1_555 1_555
C10 C8 1_555 1_555
C11 C9 1_555 1_555
C12 C11 1_555 1_555
C13 C10 1_555 1_555
C14 C6 1_555 1_555
H7 C14 1_555 1_555
O5 C19 1_555 1_555
C15 C16 1_555 1_555
C16 H9 1_555 1_555
H8 C15 1_555 1_555
C17 C15 1_555 1_555
C18 C16 1_555 1_555
C19 C18 1_555 1_555
C20 C7 1_555 1_555
C21 C13 1_555 1_555
H10 C21 1_555 1_555
O6 C19 1_555 1_555
C22 C17 1_555 1_555
C23 C18 1_555 1_555
H11 C22 1_555 1_555
H12 C23 1_555 1_555
O7 C12 1_555 1_555
C24 C10 1_555 1_555
C25 C11 1_555 1_555
H13 C24 1_555 1_555
H14 C25 1_555 1_555
O8 C5 1_555 1_555
C26 C3 1_555 1_555
C27 C4 1_555 1_555
H15 C26 1_555 1_555
H16 C27 1_555 1_555
O9 Ti2 1_555 1_555
Ti2 O6 1_555 1_555
O10_2 Ti3_2 1_555 1_555
Ti3_2 O7 1_555 1_555
O11 Ti4 1_555 1_555
H17 O11 1_555 1_555
O12 Ti2 1_555 1_555
H18 O12 1_555 1_555
O13 Ti2 1_555 1_555
O15 Ti4 1_555 1_555
O17 Ti2 1_555 1_555
O18 Ti3_2 1_555 1_555
O21 Ti3_2 1_555 1_555
O21_2 Ti2 1_555 1_555
O22_2 Ti2 1_555 1_555
O24 Ti4 1_555 1_555
Ti6 O4 1_555 1_555
Ti6_2 O9 1_555 1_555
Ti7_2 O5 1_555 1_555
Ti8 O12 1_555 1_555
Ti9 O2 1_555 1_555
Ti11 O19 1_555 1_555
O2 Ti4 1_555 1_555
C13 C14 1_555 1_555
C17 C20 1_555 1_555
C20 C21 1_555 1_555
C22 C23 1_555 1_555
C24 C25 1_555 1_555
O8 Ti11 1_555 1_555
C26 C27 1_555 1_555
O9 Ti7_2 1_555 1_555
O10_2 Ti6 1_555 1_555
O11 Ti9 1_555 1_555
O17 Ti8 1_555 1_555
O21_2 Ti6_2 1_555 1_555
O22_2 Ti7_2 1_555 1_555
O24 Ti11 1_555 1_555
O24_2 Ti11_2 1_555 1_555
O2_2 H3_2 1_555 1_555
O17_2 Ti11 1_555 1_555
Ti9_2 O2_2 1_555 1_555
O2_2 Ti6 1_555 1_555
O17_2 Ti8_2 1_555 1_555
O11_2 Ti6_2 1_555 1_555
H17_2 O11_2 1_555 1_555
O12_2 Ti11_2 1_555 1_555
H18_2 O12_2 1_555 1_555
O13_2 Ti11_2 1_555 1_555
O15_2 Ti6_2 1_555 1_555
O22 Ti11_2 1_555 1_555
Ti7 O24_2 1_555 1_555
Ti8_3 O12_2 1_555 1_555
O11_2 Ti9_3 1_555 1_555
O11_3 Ti7 1_555 1_555
H17_3 O11_3 1_555 1_555
H18_3 O16 1_555 1_555
O15_3 Ti7 1_555 1_555
Ti8_4 O16 1_555 1_555
O11_3 Ti9_4 1_555 1_555
O2_3 H3_3 1_555 1_555
Ti9_5 O2_3 1_555 1_555
O2_3 Ti7_2 1_555 1_555
O18 Ti8_5 1_555 1_555
C5_2 C4_2 1_555 1_555
C6_2 C3_2 1_555 1_555
C7_2 C6_2 1_555 1_555
H4_2 C7_2 1_555 1_555
C12_2 C11_2 1_555 1_555
C13_2 C10_2 1_555 1_555
C14_2 C6_2 1_555 1_555
H7_2 C14_2 1_555 1_555
C19_2 C18_2 1_555 1_555
C20_2 C7_2 1_555 1_555
C21_2 C13_2 1_555 1_555
H10_2 C21_2 1_555 1_555
O6_2 C19_2 1_555 1_555
C22_2 C17_2 1_555 1_555
C23_2 C18_2 1_555 1_555
H11_2 C22_2 1_555 1_555
H12_2 C23_2 1_555 1_555
O7_2 C12_2 1_555 1_555
C24_2 C10_2 1_555 1_555
C25_2 C11_2 1_555 1_555
H13_2 C24_2 1_555 1_555
H14_2 C25_2 1_555 1_555
O8_2 C5_2 1_555 1_555
C26_2 C3_2 1_555 1_555
C27_2 C4_2 1_555 1_555
H15_2 C26_2 1_555 1_555
H16_2 C27_2 1_555 1_555
Ti9 O6_2 1_555 1_555
Ti9_4 O7_2 1_555 1_555
O13_3 Ti9 1_555 1_555
O20_2 Ti9_4 1_555 1_555
O20 Ti9 1_555 1_555
O22_3 Ti9 1_555 1_555
Ti9_5 O3 1_555 1_555
Ti9_3 O3 1_555 1_555
C13_2 C14_2 1_555 1_555
C17_2 C20_2 1_555 1_555
C20_2 C21_2 1_555 1_555
C22_2 C23_2 1_555 1_555
C24_2 C25_2 1_555 1_555
O8_2 Ti9_3 1_555 1_555
C26_2 C27_2 1_555 1_555
O1_2 C5_3 1_555 1_555
C1_2 C2_2 1_555 1_555
C2_2 H2_2 1_555 1_555
H1_2 C1_2 1_555 1_555
C3_3 C1_2 1_555 1_555
C4_3 C2_2 1_555 1_555
C5_3 C4_3 1_555 1_555
C6_3 C3_3 1_555 1_555
C7_3 C6_3 1_555 1_555
H4_3 C7_3 1_555 1_555
Ti8 O1_2 1_555 1_555
O4_2 C12_3 1_555 1_555
C8_2 C9_2 1_555 1_555
C9_2 H6_2 1_555 1_555
H5_2 C8_2 1_555 1_555
C10_3 C8_2 1_555 1_555
C11_3 C9_2 1_555 1_555
C12_3 C11_3 1_555 1_555
C13_3 C10_3 1_555 1_555
C14_3 C6_3 1_555 1_555
H7_3 C14_3 1_555 1_555
O5_2 C19_3 1_555 1_555
C15_2 C16_2 1_555 1_555
C16_2 H9_2 1_555 1_555
H8_2 C15_2 1_555 1_555
C17_3 C15_2 1_555 1_555
C18_3 C16_2 1_555 1_555
C19_3 C18_3 1_555 1_555
C20_3 C7_3 1_555 1_555
C21_3 C13_3 1_555 1_555
H10_3 C21_3 1_555 1_555
H17_4 O17 1_555 1_555
O15_4 Ti8 1_555 1_555
O23_2 Ti8 1_555 1_555
O24_4 Ti8 1_555 1_555
Ti8_3 O4_2 1_555 1_555
Ti8_2 O9_2 1_555 1_555
Ti8_4 O5_2 1_555 1_555
C13_3 C14_3 1_555 1_555
C17_3 C20_3 1_555 1_555
C20_3 C21_3 1_555 1_555
O9_2 Ti8_4 1_555 1_555
O23 Ti8_3 1_555 1_555
O14_2 Ti9_5 1_555 1_555
O13_4 Ti9_2 1_555 1_555
O22_4 Ti9_2 1_555 1_555
H17_5 O17_2 1_555 1_555
O15_5 Ti8_2 1_555 1_555
Ti8_5 O24_3 1_555 1_555
H17_6 O18 1_555 1_555
O15_6 Ti8_5 1_555 1_555
O13 C5_4 1_555 1_555
C1_3 C2_3 1_555 1_555
C2_3 H2_3 1_555 1_555
H1_3 C1_3 1_555 1_555
C3_4 C1_3 1_555 1_555
C4_4 C2_3 1_555 1_555
C5_4 C4_4 1_555 1_555
C6_4 C3_4 1_555 1_555
C7_4 C6_4 1_555 1_555
H4_4 C7_4 1_555 1_555
O13_2 C12_4 1_555 1_555
C8_3 C9_3 1_555 1_555
C9_3 H6_3 1_555 1_555
H5_3 C8_3 1_555 1_555
C10_4 C8_3 1_555 1_555
C11_4 C9_3 1_555 1_555
C12_4 C11_4 1_555 1_555
C13_4 C10_4 1_555 1_555
C14_4 C6_4 1_555 1_555
H7_4 C14_4 1_555 1_555
O14 C19_4 1_555 1_555
C15_3 C16_3 1_555 1_555
C16_3 H9_3 1_555 1_555
H8_3 C15_3 1_555 1_555
C17_4 C15_3 1_555 1_555
C18_4 C16_3 1_555 1_555
C19_4 C18_4 1_555 1_555
C20_4 C7_4 1_555 1_555
C21_4 C13_4 1_555 1_555
H10_4 C21_4 1_555 1_555
O15 C19_4 1_555 1_555
C22_3 C17_4 1_555 1_555
C23_3 C18_4 1_555 1_555
H11_3 C22_3 1_555 1_555
H12_3 C23_3 1_555 1_555
O15_3 C12_4 1_555 1_555
C24_3 C10_4 1_555 1_555
C25_3 C11_4 1_555 1_555
H13_3 C24_3 1_555 1_555
H14_3 C25_3 1_555 1_555
O15_2 C5_4 1_555 1_555
C26_3 C3_4 1_555 1_555
C27_3 C4_4 1_555 1_555
H15_3 C26_3 1_555 1_555
H16_3 C27_3 1_555 1_555
C13_4 C14_4 1_555 1_555
C17_4 C20_4 1_555 1_555
C20_4 C21_4 1_555 1_555
C22_3 C23_3 1_555 1_555
C24_3 C25_3 1_555 1_555
C26_3 C27_3 1_555 1_555
O13_3 C5_5 1_555 1_555
C1_4 C2_4 1_555 1_555
C2_4 H2_4 1_555 1_555
H1_4 C1_4 1_555 1_555
C3_5 C1_4 1_555 1_555
C4_5 C2_4 1_555 1_555
C5_5 C4_5 1_555 1_555
C6_5 C3_5 1_555 1_555
C7_5 C6_5 1_555 1_555
H4_5 C7_5 1_555 1_555
O13_4 C12_5 1_555 1_555
C8_4 C9_4 1_555 1_555
C9_4 H6_4 1_555 1_555
H5_4 C8_4 1_555 1_555
C10_5 C8_4 1_555 1_555
C11_5 C9_4 1_555 1_555
C12_5 C11_5 1_555 1_555
C13_5 C10_5 1_555 1_555
C14_5 C6_5 1_555 1_555
H7_5 C14_5 1_555 1_555
O14_2 C19_5 1_555 1_555
C15_4 C16_4 1_555 1_555
C16_4 H9_4 1_555 1_555
H8_4 C15_4 1_555 1_555
C17_5 C15_4 1_555 1_555
C18_5 C16_4 1_555 1_555
C19_5 C18_5 1_555 1_555
C20_5 C7_5 1_555 1_555
C21_5 C13_5 1_555 1_555
H10_5 C21_5 1_555 1_555
C13_5 C14_5 1_555 1_555
C17_5 C20_5 1_555 1_555
C20_5 C21_5 1_555 1_555
C5_6 C4_6 1_555 1_555
C6_6 C3_6 1_555 1_555
C7_6 C6_6 1_555 1_555
H4_6 C7_6 1_555 1_555
C12_6 C11_6 1_555 1_555
C13_6 C10_6 1_555 1_555
C14_6 C6_6 1_555 1_555
H7_6 C14_6 1_555 1_555
C19_6 C18_6 1_555 1_555
C20_6 C7_6 1_555 1_555
C21_6 C13_6 1_555 1_555
H10_6 C21_6 1_555 1_555
O15_4 C19_6 1_555 1_555
C22_4 C17_6 1_555 1_555
C23_4 C18_6 1_555 1_555
H11_4 C22_4 1_555 1_555
H12_4 C23_4 1_555 1_555
O15_6 C12_6 1_555 1_555
C24_4 C10_6 1_555 1_555
C25_4 C11_6 1_555 1_555
H13_4 C24_4 1_555 1_555
H14_4 C25_4 1_555 1_555
O15_5 C5_6 1_555 1_555
C26_4 C3_6 1_555 1_555
C27_4 C4_6 1_555 1_555
H15_4 C26_4 1_555 1_555
H16_4 C27_4 1_555 1_555
C13_6 C14_6 1_555 1_555
C17_6 C20_6 1_555 1_555
C20_6 C21_6 1_555 1_555
C22_4 C23_4 1_555 1_555
C24_4 C25_4 1_555 1_555
C26_4 C27_4 1_555 1_555

#END
