
###############################################################################
#
# This file contains modified crystal structure data generated from the
# MOF subset of the Cambridge Structural Database (CSD) v543 
# hosted by the Cambridge Crystallographic Data Centre (CCDC).
#
# This work is licensed under the Creative Commons
# Attribution-NonCommercial-ShareAlike 4.0 International License.
# To view a copy of this license, visit
# http://creativecommons.org/licenses/by-nc-sa/4.0/
# or send a letter to
# Creative Commons, PO Box 1866, Mountain View, CA 94042, USA.
#
# CIF created using the CSD Python API on 29 September 2022
# The structure has been converted into the P1 space group
# The structure has a 3D framework
# The original CSD entry TOYHEX is in the hexagonal crystal system
# The framework has been calculated to contain at least 10.0% void space
# The void calculation uses a probe of radius 1.32A, grid spacing 0.4
#
###############################################################################

data_TOYHEX
_chemical_formula_moiety         '(C102 H56 N6 O35 Ti12)n'
_symmetry_cell_setting           triclinic
_symmetry_space_group_name_H-M   'P 1'
_symmetry_Int_Tables_number      1
_space_group_name_Hall           'P 1'
loop_
_symmetry_equiv_pos_site_id
_symmetry_equiv_pos_as_xyz
1 x,y,z
_cell_length_a                   17.2730
_cell_length_b                   17.2730
_cell_length_c                   11.7580
_cell_angle_alpha                90
_cell_angle_beta                 90
_cell_angle_gamma                120
_cell_volume                     3038.08
loop_
_atom_site_label
_atom_site_type_symbol
_atom_site_fract_x
_atom_site_fract_y
_atom_site_fract_z
_atom_site_U_iso_or_equiv
_atom_site_thermal_displace_type
O10 O -0.00000 0.09921 0.42704 0.0000 Uiso
Ti3 Ti -0.00000 0.11677 0.60594 0.0000 Uiso
O14 O 0.08107 0.25120 0.57020 0.0000 Uiso
O16 O 0.07198 0.16725 0.75000 0.0000 Uiso
O19 O 0.09921 0.09921 0.57296 0.0000 Uiso
O22 O -0.00000 0.90079 0.57296 0.0000 Uiso
Ti4 Ti 0.11677 0.11677 0.39406 0.0000 Uiso
Ti7 Ti 0.00000 0.88323 0.39406 0.0000 Uiso
O21 O 0.90079 0.00000 0.57296 0.0000 Uiso
Ti6 Ti 0.88323 0.00000 0.39406 0.0000 Uiso
O1 O 0.25120 0.17013 0.42980 0.0000 Uiso
C1 C 0.52699 0.31724 0.43219 0.0000 Uiso
C2 C 0.43445 0.27058 0.43205 0.0000 Uiso
H1 H 0.56492 0.37702 0.38034 0.0000 Uiso
H2 H 0.39595 0.29118 0.37929 0.0000 Uiso
O2 O 0.16725 0.09527 0.25000 0.0000 Uiso
H3 H 0.20151 0.06480 0.25000 0.0000 Uiso
C3 C 0.57298 0.28649 0.50000 0.0000 Uiso
C4 C 0.38841 0.19421 0.50000 0.0000 Uiso
C5 C 0.28976 0.14488 0.50000 0.0000 Uiso
N1 N 0.66667 0.33333 0.50000 0.0000 Uiso
O4 O 0.82987 0.08107 0.42980 0.0000 Uiso
C6 C 0.68276 0.20975 0.43219 0.0000 Uiso
C7 C 0.72942 0.16387 0.43205 0.0000 Uiso
H4 H 0.62298 0.18790 0.38034 0.0000 Uiso
H5 H 0.70882 0.10477 0.37929 0.0000 Uiso
C8 C 0.71351 0.28649 0.50000 0.0000 Uiso
C9 C 0.80579 0.19420 0.50000 0.0000 Uiso
C10 C 0.85512 0.14488 0.50000 0.0000 Uiso
O5 O 0.91893 0.74880 0.42980 0.0000 Uiso
C11 C 0.79025 0.47301 0.43219 0.0000 Uiso
C12 C 0.83613 0.56555 0.43205 0.0000 Uiso
H6 H 0.81210 0.43508 0.38034 0.0000 Uiso
H7 H 0.89523 0.60405 0.37929 0.0000 Uiso
C13 C 0.71351 0.42702 0.50000 0.0000 Uiso
C14 C 0.80580 0.61159 0.50000 0.0000 Uiso
C15 C 0.85512 0.71024 0.50000 0.0000 Uiso
O6 O 0.82987 0.74880 0.57020 0.0000 Uiso
C16 C 0.68276 0.47301 0.56781 0.0000 Uiso
C17 C 0.72942 0.56555 0.56795 0.0000 Uiso
H8 H 0.62298 0.43508 0.61966 0.0000 Uiso
H9 H 0.70882 0.60405 0.62071 0.0000 Uiso
O7 O 0.91893 0.17013 0.57020 0.0000 Uiso
C18 C 0.79025 0.31724 0.56781 0.0000 Uiso
C19 C 0.83613 0.27058 0.56795 0.0000 Uiso
H10 H 0.81210 0.37702 0.61966 0.0000 Uiso
H11 H 0.89523 0.29118 0.62071 0.0000 Uiso
O8 O 0.25120 0.08107 0.57020 0.0000 Uiso
C20 C 0.52699 0.20975 0.56781 0.0000 Uiso
C21 C 0.43445 0.16387 0.56795 0.0000 Uiso
H12 H 0.56492 0.18790 0.61966 0.0000 Uiso
H13 H 0.39595 0.10477 0.62071 0.0000 Uiso
O9 O 0.90079 0.90079 0.42704 0.0000 Uiso
Ti2 Ti 0.88323 0.88323 0.60594 0.0000 Uiso
O10_2 O 1.00000 0.09921 0.42704 0.0000 Uiso
Ti3_2 Ti 1.00000 0.11677 0.60594 0.0000 Uiso
O11 O 0.09527 0.16725 0.25000 0.0000 Uiso
H14 H 0.06480 0.20151 0.25000 0.0000 Uiso
O12 O 0.83275 0.90473 0.75000 0.0000 Uiso
H15 H 0.79849 0.93520 0.75000 0.0000 Uiso
O13 O 0.74880 0.82987 0.57020 0.0000 Uiso
O15 O 0.17013 0.25120 0.42980 0.0000 Uiso
O17 O 0.90473 0.83275 0.75000 0.0000 Uiso
O18 O 0.92802 0.09527 0.75000 0.0000 Uiso
O21_2 O 0.90079 1.00000 0.57296 0.0000 Uiso
O22_2 O 1.00000 0.90079 0.57296 0.0000 Uiso
O24 O 0.09921 0.00000 0.42704 0.0000 Uiso
Ti6_2 Ti 0.88323 1.00000 0.39406 0.0000 Uiso
Ti7_2 Ti 1.00000 0.88323 0.39406 0.0000 Uiso
Ti8 Ti 0.88323 0.88323 0.89406 0.0000 Uiso
Ti9 Ti 0.11677 0.11677 0.10594 0.0000 Uiso
Ti11 Ti 0.11677 0.00000 0.60594 0.0000 Uiso
O24_2 O 0.09921 1.00000 0.42704 0.0000 Uiso
Ti11_2 Ti 0.11677 1.00000 0.60594 0.0000 Uiso
O2_2 O 0.90473 0.07198 0.25000 0.0000 Uiso
H3_2 H 0.93520 0.13671 0.25000 0.0000 Uiso
O17_2 O 0.16725 0.07198 0.75000 0.0000 Uiso
Ti8_2 Ti 0.11677 0.00000 0.89406 0.0000 Uiso
Ti9_2 Ti 0.88323 0.00000 0.10594 0.0000 Uiso
O11_2 O 0.83275 0.92802 0.25000 0.0000 Uiso
H14_2 H 0.79849 0.86329 0.25000 0.0000 Uiso
O12_2 O 0.09527 0.92802 0.75000 0.0000 Uiso
H15_2 H 0.06480 0.86329 0.75000 0.0000 Uiso
O13_2 O 0.17013 0.91893 0.57020 0.0000 Uiso
O15_2 O 0.74880 0.91893 0.42980 0.0000 Uiso
Ti8_3 Ti 0.11677 1.00000 0.89406 0.0000 Uiso
Ti9_3 Ti 0.88323 1.00000 0.10594 0.0000 Uiso
O11_3 O 0.07198 0.90473 0.25000 0.0000 Uiso
H14_3 H 0.13671 0.93520 0.25000 0.0000 Uiso
H15_3 H 0.13671 0.20151 0.75000 0.0000 Uiso
O15_3 O 0.08107 0.82987 0.42980 0.0000 Uiso
Ti8_4 Ti 0.00000 0.11677 0.89406 0.0000 Uiso
Ti9_4 Ti -0.00000 0.88323 0.10594 0.0000 Uiso
O2_3 O 0.92802 0.83275 0.25000 0.0000 Uiso
H3_3 H 0.86329 0.79849 0.25000 0.0000 Uiso
Ti8_5 Ti 1.00000 0.11677 0.89406 0.0000 Uiso
Ti9_5 Ti 1.00000 0.88323 0.10594 0.0000 Uiso
O23 O -0.00000 0.90079 0.92704 0.0000 Uiso
O20 O 0.09921 -0.00000 0.07296 0.0000 Uiso
O24_3 O 0.90079 0.00000 0.92704 0.0000 Uiso
O3 O 0.90079 0.90079 0.07296 0.0000 Uiso
C3_2 C 0.42702 0.71351 0.00000 0.0000 Uiso
C4_2 C 0.61159 0.80579 0.00000 0.0000 Uiso
C5_2 C 0.71024 0.85512 0.00000 0.0000 Uiso
N1_2 N 0.33333 0.66667 0.00000 0.0000 Uiso
C8_2 C 0.28649 0.71351 0.00000 0.0000 Uiso
C9_2 C 0.19421 0.80580 0.00000 0.0000 Uiso
C10_2 C 0.14488 0.85512 0.00000 0.0000 Uiso
C13_2 C 0.28649 0.57298 0.00000 0.0000 Uiso
C14_2 C 0.19420 0.38841 0.00000 0.0000 Uiso
C15_2 C 0.14488 0.28976 0.00000 0.0000 Uiso
O6_2 O 0.17013 0.25120 0.07020 0.0000 Uiso
C16_2 C 0.31724 0.52699 0.06781 0.0000 Uiso
C17_2 C 0.27058 0.43445 0.06795 0.0000 Uiso
H8_2 H 0.37702 0.56492 0.11966 0.0000 Uiso
H9_2 H 0.29118 0.39595 0.12071 0.0000 Uiso
O7_2 O 0.08107 0.82987 0.07020 0.0000 Uiso
C18_2 C 0.20975 0.68276 0.06781 0.0000 Uiso
C19_2 C 0.16387 0.72942 0.06795 0.0000 Uiso
H10_2 H 0.18790 0.62298 0.11966 0.0000 Uiso
H11_2 H 0.10477 0.70882 0.12071 0.0000 Uiso
O8_2 O 0.74880 0.91893 0.07020 0.0000 Uiso
C20_2 C 0.47301 0.79025 0.06781 0.0000 Uiso
C21_2 C 0.56555 0.83613 0.06795 0.0000 Uiso
H12_2 H 0.43508 0.81210 0.11966 0.0000 Uiso
H13_2 H 0.60405 0.89523 0.12071 0.0000 Uiso
O13_3 O 0.25120 0.17013 0.07020 0.0000 Uiso
O20_2 O 0.09921 1.00000 0.07296 0.0000 Uiso
O22_3 O -0.00000 0.09921 0.07296 0.0000 Uiso
O1_2 O 0.74880 0.82987 0.92980 0.0000 Uiso
C1_2 C 0.47301 0.68276 0.93219 0.0000 Uiso
C2_2 C 0.56555 0.72942 0.93205 0.0000 Uiso
H1_2 H 0.43508 0.62298 0.88034 0.0000 Uiso
H2_2 H 0.60405 0.70882 0.87929 0.0000 Uiso
C3_3 C 0.42702 0.71351 1.00000 0.0000 Uiso
C4_3 C 0.61159 0.80579 1.00000 0.0000 Uiso
C5_3 C 0.71024 0.85512 1.00000 0.0000 Uiso
N1_3 N 0.33333 0.66667 1.00000 0.0000 Uiso
O4_2 O 0.17013 0.91893 0.92980 0.0000 Uiso
C6_2 C 0.31724 0.79025 0.93219 0.0000 Uiso
C7_2 C 0.27058 0.83613 0.93205 0.0000 Uiso
H4_2 H 0.37702 0.81210 0.88034 0.0000 Uiso
H5_2 H 0.29118 0.89523 0.87929 0.0000 Uiso
C8_3 C 0.28649 0.71351 1.00000 0.0000 Uiso
C9_3 C 0.19421 0.80580 1.00000 0.0000 Uiso
C10_3 C 0.14488 0.85512 1.00000 0.0000 Uiso
O5_2 O 0.08107 0.25120 0.92980 0.0000 Uiso
C11_2 C 0.20975 0.52699 0.93219 0.0000 Uiso
C12_2 C 0.16387 0.43445 0.93205 0.0000 Uiso
H6_2 H 0.18790 0.56492 0.88034 0.0000 Uiso
H7_2 H 0.10477 0.39595 0.87929 0.0000 Uiso
C13_3 C 0.28649 0.57298 1.00000 0.0000 Uiso
C14_3 C 0.19420 0.38841 1.00000 0.0000 Uiso
C15_3 C 0.14488 0.28976 1.00000 0.0000 Uiso
O9_2 O 0.09921 0.09921 0.92704 0.0000 Uiso
H14_4 H 0.93520 0.79849 0.75000 0.0000 Uiso
O15_4 O 0.82987 0.74880 0.92980 0.0000 Uiso
O23_2 O 1.00000 0.90079 0.92704 0.0000 Uiso
O24_4 O 0.90079 1.00000 0.92704 0.0000 Uiso
O14_2 O 0.91893 0.74880 0.07020 0.0000 Uiso
O22_4 O 1.00000 0.09921 0.07296 0.0000 Uiso
O13_4 O 0.82987 0.08107 0.07020 0.0000 Uiso
H14_5 H 0.20151 0.13671 0.75000 0.0000 Uiso
O15_5 O 0.25120 0.08107 0.92980 0.0000 Uiso
H14_6 H 0.86329 0.06480 0.75000 0.0000 Uiso
O15_6 O 0.91893 0.17013 0.92980 0.0000 Uiso
C1_3 C 0.47301 0.68276 0.56781 0.0000 Uiso
C2_3 C 0.56555 0.72942 0.56795 0.0000 Uiso
H1_3 H 0.43508 0.62298 0.61966 0.0000 Uiso
H2_3 H 0.60405 0.70882 0.62071 0.0000 Uiso
C3_4 C 0.42702 0.71351 0.50000 0.0000 Uiso
C4_4 C 0.61159 0.80579 0.50000 0.0000 Uiso
C5_4 C 0.71024 0.85512 0.50000 0.0000 Uiso
N1_4 N 0.33333 0.66667 0.50000 0.0000 Uiso
C6_3 C 0.31724 0.79025 0.56781 0.0000 Uiso
C7_3 C 0.27058 0.83613 0.56795 0.0000 Uiso
H4_3 H 0.37702 0.81210 0.61966 0.0000 Uiso
H5_3 H 0.29118 0.89523 0.62071 0.0000 Uiso
C8_4 C 0.28649 0.71351 0.50000 0.0000 Uiso
C9_4 C 0.19421 0.80580 0.50000 0.0000 Uiso
C10_4 C 0.14488 0.85512 0.50000 0.0000 Uiso
C11_3 C 0.20975 0.52699 0.56781 0.0000 Uiso
C12_3 C 0.16387 0.43445 0.56795 0.0000 Uiso
H6_3 H 0.18790 0.56492 0.61966 0.0000 Uiso
H7_3 H 0.10477 0.39595 0.62071 0.0000 Uiso
C13_4 C 0.28649 0.57298 0.50000 0.0000 Uiso
C14_4 C 0.19420 0.38841 0.50000 0.0000 Uiso
C15_4 C 0.14488 0.28976 0.50000 0.0000 Uiso
C16_3 C 0.31724 0.52699 0.43219 0.0000 Uiso
C17_3 C 0.27058 0.43445 0.43205 0.0000 Uiso
H8_3 H 0.37702 0.56492 0.38034 0.0000 Uiso
H9_3 H 0.29118 0.39595 0.37929 0.0000 Uiso
C18_3 C 0.20975 0.68276 0.43219 0.0000 Uiso
C19_3 C 0.16387 0.72942 0.43205 0.0000 Uiso
H10_3 H 0.18790 0.62298 0.38034 0.0000 Uiso
H11_3 H 0.10477 0.70882 0.37929 0.0000 Uiso
C20_3 C 0.47301 0.79025 0.43219 0.0000 Uiso
C21_3 C 0.56555 0.83613 0.43205 0.0000 Uiso
H12_3 H 0.43508 0.81210 0.38034 0.0000 Uiso
H13_3 H 0.60405 0.89523 0.37929 0.0000 Uiso
C1_4 C 0.52699 0.31724 0.06781 0.0000 Uiso
C2_4 C 0.43445 0.27058 0.06795 0.0000 Uiso
H1_4 H 0.56492 0.37702 0.11966 0.0000 Uiso
H2_4 H 0.39595 0.29118 0.12071 0.0000 Uiso
C3_5 C 0.57298 0.28649 0.00000 0.0000 Uiso
C4_5 C 0.38841 0.19421 0.00000 0.0000 Uiso
C5_5 C 0.28976 0.14488 0.00000 0.0000 Uiso
N1_5 N 0.66667 0.33333 0.00000 0.0000 Uiso
C6_4 C 0.68276 0.20975 0.06781 0.0000 Uiso
C7_4 C 0.72942 0.16387 0.06795 0.0000 Uiso
H4_4 H 0.62298 0.18790 0.11966 0.0000 Uiso
H5_4 H 0.70882 0.10477 0.12071 0.0000 Uiso
C8_5 C 0.71351 0.28649 0.00000 0.0000 Uiso
C9_5 C 0.80579 0.19420 0.00000 0.0000 Uiso
C10_5 C 0.85512 0.14488 0.00000 0.0000 Uiso
C11_4 C 0.79025 0.47301 0.06781 0.0000 Uiso
C12_4 C 0.83613 0.56555 0.06795 0.0000 Uiso
H6_4 H 0.81210 0.43508 0.11966 0.0000 Uiso
H7_4 H 0.89523 0.60405 0.12071 0.0000 Uiso
C13_5 C 0.71351 0.42702 0.00000 0.0000 Uiso
C14_5 C 0.80580 0.61159 0.00000 0.0000 Uiso
C15_5 C 0.85512 0.71024 0.00000 0.0000 Uiso
C3_6 C 0.57298 0.28649 1.00000 0.0000 Uiso
C4_6 C 0.38841 0.19421 1.00000 0.0000 Uiso
C5_6 C 0.28976 0.14488 1.00000 0.0000 Uiso
N1_6 N 0.66667 0.33333 1.00000 0.0000 Uiso
C8_6 C 0.71351 0.28649 1.00000 0.0000 Uiso
C9_6 C 0.80579 0.19420 1.00000 0.0000 Uiso
C10_6 C 0.85512 0.14488 1.00000 0.0000 Uiso
C13_6 C 0.71351 0.42702 1.00000 0.0000 Uiso
C14_6 C 0.80580 0.61159 1.00000 0.0000 Uiso
C15_6 C 0.85512 0.71024 1.00000 0.0000 Uiso
C16_4 C 0.68276 0.47301 0.93219 0.0000 Uiso
C17_4 C 0.72942 0.56555 0.93205 0.0000 Uiso
H8_4 H 0.62298 0.43508 0.88034 0.0000 Uiso
H9_4 H 0.70882 0.60405 0.87929 0.0000 Uiso
C18_4 C 0.79025 0.31724 0.93219 0.0000 Uiso
C19_4 C 0.83613 0.27058 0.93205 0.0000 Uiso
H10_4 H 0.81210 0.37702 0.88034 0.0000 Uiso
H11_4 H 0.89523 0.29118 0.87929 0.0000 Uiso
C20_4 C 0.52699 0.20975 0.93219 0.0000 Uiso
C21_4 C 0.43445 0.16387 0.93205 0.0000 Uiso
H12_4 H 0.56492 0.18790 0.88034 0.0000 Uiso
H13_4 H 0.39595 0.10477 0.87929 0.0000 Uiso
loop_
_geom_bond_atom_site_label_1
_geom_bond_atom_site_label_2
_geom_bond_site_symmetry_1
_geom_bond_site_symmetry_2
O10 Ti3 1_555 1_555
O14 Ti3 1_555 1_555
O16 Ti3 1_555 1_555
O19 Ti3 1_555 1_555
Ti4 O10 1_555 1_555
O19 Ti4 1_555 1_555
O22 Ti7 1_555 1_555
O21 Ti6 1_555 1_555
O1 C5 1_555 1_555
C1 C2 1_555 1_555
C2 H2 1_555 1_555
H1 C1 1_555 1_555
O2 H3 1_555 1_555
C3 C1 1_555 1_555
C4 C2 1_555 1_555
C5 C4 1_555 1_555
Ti4 O1 1_555 1_555
N1 C3 1_555 1_555
O4 C10 1_555 1_555
C6 C7 1_555 1_555
C7 H5 1_555 1_555
H4 C6 1_555 1_555
C8 N1 1_555 1_555
C9 C7 1_555 1_555
C10 C9 1_555 1_555
O5 C15 1_555 1_555
C11 C12 1_555 1_555
C12 H7 1_555 1_555
H6 C11 1_555 1_555
C13 N1 1_555 1_555
C14 C12 1_555 1_555
C15 C14 1_555 1_555
O6 C15 1_555 1_555
C16 C13 1_555 1_555
C17 C14 1_555 1_555
H8 C16 1_555 1_555
H9 C17 1_555 1_555
O7 C10 1_555 1_555
C18 C8 1_555 1_555
C19 C9 1_555 1_555
H10 C18 1_555 1_555
H11 C19 1_555 1_555
O8 C5 1_555 1_555
C20 C3 1_555 1_555
C21 C4 1_555 1_555
H12 C20 1_555 1_555
H13 C21 1_555 1_555
O9 Ti2 1_555 1_555
Ti2 O6 1_555 1_555
O10_2 Ti3_2 1_555 1_555
Ti3_2 O7 1_555 1_555
O11 Ti4 1_555 1_555
H14 O11 1_555 1_555
O12 Ti2 1_555 1_555
H15 O12 1_555 1_555
O13 Ti2 1_555 1_555
O15 Ti4 1_555 1_555
O17 Ti2 1_555 1_555
O18 Ti3_2 1_555 1_555
O21 Ti3_2 1_555 1_555
O21_2 Ti2 1_555 1_555
O22_2 Ti2 1_555 1_555
O24 Ti4 1_555 1_555
Ti6 O4 1_555 1_555
Ti6_2 O9 1_555 1_555
Ti7_2 O5 1_555 1_555
Ti8 O12 1_555 1_555
Ti9 O2 1_555 1_555
Ti11 O19 1_555 1_555
O2 Ti4 1_555 1_555
C6 C8 1_555 1_555
C11 C13 1_555 1_555
C16 C17 1_555 1_555
C18 C19 1_555 1_555
O8 Ti11 1_555 1_555
C20 C21 1_555 1_555
O9 Ti7_2 1_555 1_555
O10_2 Ti6 1_555 1_555
O11 Ti9 1_555 1_555
O17 Ti8 1_555 1_555
O21_2 Ti6_2 1_555 1_555
O22_2 Ti7_2 1_555 1_555
O24 Ti11 1_555 1_555
O24_2 Ti11_2 1_555 1_555
O2_2 H3_2 1_555 1_555
O17_2 Ti11 1_555 1_555
Ti9_2 O2_2 1_555 1_555
O2_2 Ti6 1_555 1_555
O17_2 Ti8_2 1_555 1_555
O11_2 Ti6_2 1_555 1_555
H14_2 O11_2 1_555 1_555
O12_2 Ti11_2 1_555 1_555
H15_2 O12_2 1_555 1_555
O13_2 Ti11_2 1_555 1_555
O15_2 Ti6_2 1_555 1_555
O22 Ti11_2 1_555 1_555
Ti7 O24_2 1_555 1_555
Ti8_3 O12_2 1_555 1_555
O11_2 Ti9_3 1_555 1_555
O11_3 Ti7 1_555 1_555
H14_3 O11_3 1_555 1_555
H15_3 O16 1_555 1_555
O15_3 Ti7 1_555 1_555
Ti8_4 O16 1_555 1_555
O11_3 Ti9_4 1_555 1_555
O2_3 H3_3 1_555 1_555
Ti9_5 O2_3 1_555 1_555
O2_3 Ti7_2 1_555 1_555
O18 Ti8_5 1_555 1_555
C5_2 C4_2 1_555 1_555
N1_2 C3_2 1_555 1_555
C8_2 N1_2 1_555 1_555
C10_2 C9_2 1_555 1_555
C13_2 N1_2 1_555 1_555
C15_2 C14_2 1_555 1_555
O6_2 C15_2 1_555 1_555
C16_2 C13_2 1_555 1_555
C17_2 C14_2 1_555 1_555
H8_2 C16_2 1_555 1_555
H9_2 C17_2 1_555 1_555
O7_2 C10_2 1_555 1_555
C18_2 C8_2 1_555 1_555
C19_2 C9_2 1_555 1_555
H10_2 C18_2 1_555 1_555
H11_2 C19_2 1_555 1_555
O8_2 C5_2 1_555 1_555
C20_2 C3_2 1_555 1_555
C21_2 C4_2 1_555 1_555
H12_2 C20_2 1_555 1_555
H13_2 C21_2 1_555 1_555
Ti9 O6_2 1_555 1_555
Ti9_4 O7_2 1_555 1_555
O13_3 Ti9 1_555 1_555
O20_2 Ti9_4 1_555 1_555
O20 Ti9 1_555 1_555
O22_3 Ti9 1_555 1_555
Ti9_5 O3 1_555 1_555
Ti9_3 O3 1_555 1_555
C16_2 C17_2 1_555 1_555
C18_2 C19_2 1_555 1_555
O8_2 Ti9_3 1_555 1_555
C20_2 C21_2 1_555 1_555
O1_2 C5_3 1_555 1_555
C1_2 C2_2 1_555 1_555
C2_2 H2_2 1_555 1_555
H1_2 C1_2 1_555 1_555
C3_3 C1_2 1_555 1_555
C4_3 C2_2 1_555 1_555
C5_3 C4_3 1_555 1_555
Ti8 O1_2 1_555 1_555
N1_3 C3_3 1_555 1_555
O4_2 C10_3 1_555 1_555
C6_2 C7_2 1_555 1_555
C7_2 H5_2 1_555 1_555
H4_2 C6_2 1_555 1_555
C8_3 N1_3 1_555 1_555
C9_3 C7_2 1_555 1_555
C10_3 C9_3 1_555 1_555
O5_2 C15_3 1_555 1_555
C11_2 C12_2 1_555 1_555
C12_2 H7_2 1_555 1_555
H6_2 C11_2 1_555 1_555
C13_3 N1_3 1_555 1_555
C14_3 C12_2 1_555 1_555
C15_3 C14_3 1_555 1_555
H14_4 O17 1_555 1_555
O15_4 Ti8 1_555 1_555
O23_2 Ti8 1_555 1_555
O24_4 Ti8 1_555 1_555
Ti8_3 O4_2 1_555 1_555
Ti8_2 O9_2 1_555 1_555
Ti8_4 O5_2 1_555 1_555
C6_2 C8_3 1_555 1_555
C11_2 C13_3 1_555 1_555
O9_2 Ti8_4 1_555 1_555
O23 Ti8_3 1_555 1_555
O14_2 Ti9_5 1_555 1_555
O13_4 Ti9_2 1_555 1_555
O22_4 Ti9_2 1_555 1_555
H14_5 O17_2 1_555 1_555
O15_5 Ti8_2 1_555 1_555
Ti8_5 O24_3 1_555 1_555
H14_6 O18 1_555 1_555
O15_6 Ti8_5 1_555 1_555
O13 C5_4 1_555 1_555
C1_3 C2_3 1_555 1_555
C2_3 H2_3 1_555 1_555
H1_3 C1_3 1_555 1_555
C3_4 C1_3 1_555 1_555
C4_4 C2_3 1_555 1_555
C5_4 C4_4 1_555 1_555
N1_4 C3_4 1_555 1_555
O13_2 C10_4 1_555 1_555
C6_3 C7_3 1_555 1_555
C7_3 H5_3 1_555 1_555
H4_3 C6_3 1_555 1_555
C8_4 N1_4 1_555 1_555
C9_4 C7_3 1_555 1_555
C10_4 C9_4 1_555 1_555
O14 C15_4 1_555 1_555
C11_3 C12_3 1_555 1_555
C12_3 H7_3 1_555 1_555
H6_3 C11_3 1_555 1_555
C13_4 N1_4 1_555 1_555
C14_4 C12_3 1_555 1_555
C15_4 C14_4 1_555 1_555
O15 C15_4 1_555 1_555
C16_3 C13_4 1_555 1_555
C17_3 C14_4 1_555 1_555
H8_3 C16_3 1_555 1_555
H9_3 C17_3 1_555 1_555
O15_3 C10_4 1_555 1_555
C18_3 C8_4 1_555 1_555
C19_3 C9_4 1_555 1_555
H10_3 C18_3 1_555 1_555
H11_3 C19_3 1_555 1_555
O15_2 C5_4 1_555 1_555
C20_3 C3_4 1_555 1_555
C21_3 C4_4 1_555 1_555
H12_3 C20_3 1_555 1_555
H13_3 C21_3 1_555 1_555
C6_3 C8_4 1_555 1_555
C11_3 C13_4 1_555 1_555
C16_3 C17_3 1_555 1_555
C18_3 C19_3 1_555 1_555
C20_3 C21_3 1_555 1_555
O13_3 C5_5 1_555 1_555
C1_4 C2_4 1_555 1_555
C2_4 H2_4 1_555 1_555
H1_4 C1_4 1_555 1_555
C3_5 C1_4 1_555 1_555
C4_5 C2_4 1_555 1_555
C5_5 C4_5 1_555 1_555
N1_5 C3_5 1_555 1_555
O13_4 C10_5 1_555 1_555
C6_4 C7_4 1_555 1_555
C7_4 H5_4 1_555 1_555
H4_4 C6_4 1_555 1_555
C8_5 N1_5 1_555 1_555
C9_5 C7_4 1_555 1_555
C10_5 C9_5 1_555 1_555
O14_2 C15_5 1_555 1_555
C11_4 C12_4 1_555 1_555
C12_4 H7_4 1_555 1_555
H6_4 C11_4 1_555 1_555
C13_5 N1_5 1_555 1_555
C14_5 C12_4 1_555 1_555
C15_5 C14_5 1_555 1_555
C6_4 C8_5 1_555 1_555
C11_4 C13_5 1_555 1_555
C5_6 C4_6 1_555 1_555
N1_6 C3_6 1_555 1_555
C8_6 N1_6 1_555 1_555
C10_6 C9_6 1_555 1_555
C13_6 N1_6 1_555 1_555
C15_6 C14_6 1_555 1_555
O15_4 C15_6 1_555 1_555
C16_4 C13_6 1_555 1_555
C17_4 C14_6 1_555 1_555
H8_4 C16_4 1_555 1_555
H9_4 C17_4 1_555 1_555
O15_6 C10_6 1_555 1_555
C18_4 C8_6 1_555 1_555
C19_4 C9_6 1_555 1_555
H10_4 C18_4 1_555 1_555
H11_4 C19_4 1_555 1_555
O15_5 C5_6 1_555 1_555
C20_4 C3_6 1_555 1_555
C21_4 C4_6 1_555 1_555
H12_4 C20_4 1_555 1_555
H13_4 C21_4 1_555 1_555
C16_4 C17_4 1_555 1_555
C18_4 C19_4 1_555 1_555
C20_4 C21_4 1_555 1_555

#END
