
###############################################################################
#
# This file contains modified crystal structure data generated from the
# MOF subset of the Cambridge Structural Database (CSD) v543 
# hosted by the Cambridge Crystallographic Data Centre (CCDC).
#
# This work is licensed under the Creative Commons
# Attribution-NonCommercial-ShareAlike 4.0 International License.
# To view a copy of this license, visit
# http://creativecommons.org/licenses/by-nc-sa/4.0/
# or send a letter to
# Creative Commons, PO Box 1866, Mountain View, CA 94042, USA.
#
# CIF created using the CSD Python API on 29 September 2022
# The structure has been converted into the P1 space group
# The structure has a 3D framework
# The original CSD entry TOYWOW is in the monoclinic crystal system
# The framework has been calculated to contain at least 10.0% void space
# The void calculation uses a probe of radius 1.32A, grid spacing 0.4
#
###############################################################################

data_TOYWOW
_chemical_formula_moiety         '(C156 H72 Cu10 F12 N12 O48)n'
_symmetry_cell_setting           triclinic
_symmetry_space_group_name_H-M   'P 1'
_symmetry_Int_Tables_number      1
_space_group_name_Hall           'P 1'
loop_
_symmetry_equiv_pos_site_id
_symmetry_equiv_pos_as_xyz
1 x,y,z
_cell_length_a                   30.5374(17)
_cell_length_b                   10.6563(5)
_cell_length_c                   15.2254(9)
_cell_angle_alpha                90
_cell_angle_beta                 99.622(5)
_cell_angle_gamma                90
_cell_volume                     4884.88
loop_
_atom_site_label
_atom_site_type_symbol
_atom_site_fract_x
_atom_site_fract_y
_atom_site_fract_z
Cu4 Cu 0.03137(18) 0.4148(5) 0.5178(4)
Cu5 Cu 0.03137(18) 0.0852(5) 0.0178(4)
O14 O 0.0077(9) 0.830(3) 0.083(2)
O19 O 0.0057(9) 0.863(3) 0.8944(17)
F1 F 0.9342(10) 0.079(3) 0.474(2)
H11 H 0.852501 0.022215 0.456885
Cu11 Cu 0.69810(18) 0.0849(5) 0.6838(4)
Cu2 Cu 0.63536(17) 0.5853(5) 0.1493(3)
Cu3 Cu 0.69810(18) 0.4151(5) 0.1838(4)
O1 O 0.6727(9) 0.860(2) 0.5631(17)
O2 O 0.9923(9) 0.330(3) 0.417(2)
O3 O 0.9374(10) 0.473(3) 0.392(2)
O5 O 0.7276(8) 0.998(3) 0.5950(19)
O6 O 0.6591(9) 0.173(3) 0.5852(18)
N1 N 0.4083(9) 0.249(3) 0.378(2)
O7 O 0.6032(9) 0.030(3) 0.564(2)
O8 O 0.9943(9) 0.137(3) 0.1056(17)
N2 N 0.9249(11) 0.744(3) 0.460(2)
O9 O 0.6744(10) 0.670(3) 0.2478(17)
O10 O 0.6596(11) 0.365(3) 0.2700(19)
C1 C 0.8034(13) 0.812(4) 0.433(3)
C2 C 0.8863(13) 0.266(4) 0.303(2)
H1 H 0.870180 0.305314 0.342034
C3 C 0.8522(12) 0.834(4) 0.441(3)
C4 C 0.5549(15) 0.375(4) 0.347(2)
H2 H 0.540627 0.432236 0.305766
C5 C 0.9580(13) 0.092(4) 0.114(2)
O11 O 0.6057(10) 0.502(3) 0.2366(19)
C6 C 0.7081(10) 0.912(4) 0.551(2)
C7 C 0.6217(13) 0.134(4) 0.547(3)
N3 N 0.7421(11) 0.257(4) 0.214(3)
C8 C 0.9338(12) 0.150(4) 0.181(2)
C9 C 0.9559(12) 0.368(4) 0.378(3)
C10 C 0.5312(13) 0.317(3) 0.402(2)
C11 C 0.9546(12) 0.226(4) 0.2487(19)
H3 H 0.985150 0.238223 0.254057
C12 C 0.8809(13) 0.731(4) 0.447(2)
H4 H 0.868846 0.650559 0.441422
C13 C 0.9317(12) 0.288(4) 0.311(3)
C14 C 0.5514(12) 0.233(4) 0.461(3)
H5 H 0.535011 0.188763 0.497238
C15 C 0.7127(13) 0.775(4) 0.423(2)
H6 H 0.683490 0.753268 0.426204
O12 O 0.7301(8) 0.540(3) 0.2726(17)
C16 C 0.9422(13) 0.863(4) 0.464(3)
H7 H 0.972810 0.874630 0.471446
C17 C 0.8154(11) 0.166(4) 0.226(3)
C18 C 0.7805(13) 0.731(4) 0.368(2)
H8 H 0.795888 0.687642 0.329277
C19 C 0.6000(14) 0.351(4) 0.349(3)
C20 C 0.6217(14) 0.277(4) 0.421(3)
H9 H 0.652567 0.274417 0.433204
C21 C 0.7970(15) 0.044(5) 0.218(4)
C22 C 0.8704(15) 0.953(4) 0.452(4)
C23 C 0.7856(14) 0.267(4) 0.225(4)
H12 H 0.797569 0.347570 0.232552
C24 C 0.8875(12) 0.121(4) 0.177(3)
H13 H 0.873468 0.061531 0.137122
C25 C 0.7339(14) 0.716(4) 0.361(3)
C26 C 0.9147(15) 0.966(5) 0.457(4)
C27 C 0.7797(12) 0.873(4) 0.491(3)
H14 H 0.794631 0.920403 0.538043
C28 C 0.7508(16) 0.030(5) 0.206(4)
C29 C 0.8642(13) 0.183(4) 0.236(3)
C30 C 0.4819(15) 0.334(4) 0.389(2)
C31 C 0.6196(15) 0.411(4) 0.278(2)
C32 C 0.5980(12) 0.213(4) 0.469(2)
C33 C 0.7253(15) 0.134(5) 0.202(4)
H15 H 0.694614 0.124229 0.191453
C34 C 0.7129(16) 0.630(5) 0.289(3)
C35 C 0.7340(11) 0.864(4) 0.479(3)
C36 C 0.4633(13) 0.454(4) 0.386(3)
H16 H 0.480811 0.526308 0.392323
F3 F 0.3981(8) 0.580(2) 0.375(2)
C37 C 0.3914(15) 0.358(4) 0.372(3)
H17 H 0.360797 0.367110 0.367073
C38 C 0.4165(16) 0.461(4) 0.373(4)
C39 C 0.4536(11) 0.237(4) 0.3855(19)
H18 H 0.465493 0.156690 0.388767
Cu6 Cu 0.96863(18) 0.5852(5) 0.4822(4)
Cu7 Cu 0.36464(17) 0.0853(5) 0.3507(3)
Cu9 Cu 0.63536(17) 0.9147(5) 0.6493(3)
O13 O 0.6727(9) 0.640(2) 0.0631(17)
O16 O 0.7276(8) 0.502(3) 0.0950(19)
O17 O 0.6591(9) 0.327(3) 0.0852(18)
N4 N 0.5917(9) 0.749(3) 0.122(2)
O18 O 0.6032(9) 0.470(3) 0.064(2)
O15 O 0.9374(10) 0.027(3) 0.892(2)
O4 O 0.9397(10) 0.993(3) 0.0725(19)
F2 F 0.7316(11) 0.922(3) 0.186(4)
H10 H 0.815344 0.973869 0.220777
Cu1 Cu 0.96863(18) 0.9148(5) 0.9822(4)
N5 N 0.9249(11) 0.756(3) 0.960(2)
F1_2 F 0.0658(10) 0.579(3) 0.026(2)
N2_2 N 0.0751(11) 0.244(3) 0.040(2)
O9_2 O 0.3256(10) 0.170(3) 0.2522(17)
C1_2 C 0.1966(13) 0.312(4) 0.067(3)
C3_2 C 0.1478(12) 0.334(4) 0.059(3)
O11_2 O 0.3943(10) 0.002(3) 0.2634(19)
C12_2 C 0.1191(13) 0.231(4) 0.053(2)
H4_2 H 0.131154 0.150559 0.058578
C15_2 C 0.2873(13) 0.275(4) 0.077(2)
H6_2 H 0.316510 0.253268 0.073796
O12_2 O 0.2699(8) 0.040(3) 0.2274(17)
C16_2 C 0.0578(13) 0.363(4) 0.036(3)
H7_2 H 0.027190 0.374630 0.028554
C18_2 C 0.2195(13) 0.231(4) 0.132(2)
H8_2 H 0.204112 0.187642 0.170723
C22_2 C 0.1296(15) 0.453(4) 0.048(4)
H11_2 H 0.147499 0.522215 0.043115
C25_2 C 0.2661(14) 0.216(4) 0.139(3)
C26_2 C 0.0853(15) 0.466(5) 0.043(4)
C27_2 C 0.2203(12) 0.373(4) 0.009(3)
C34_2 C 0.2871(16) 0.130(5) 0.211(3)
C35_2 C 0.2660(11) 0.364(4) 0.021(3)
H16_2 H 0.519189 0.026308 0.107677
F3_2 F 0.6019(8) 0.080(2) 0.125(2)
O13_2 O 0.3273(9) 0.140(2) 0.4369(17)
O16_2 O 0.2724(8) 0.002(3) 0.4050(19)
O1_2 O 0.3273(9) 0.360(2) 0.9369(17)
O5_2 O 0.2724(8) 0.498(3) 0.9050(19)
C6_2 C 0.2919(10) 0.412(4) 0.949(2)
H14_2 H 0.205369 0.420403 0.961957
Cu9_2 Cu 0.36464(17) 0.4147(5) 0.8507(3)
Cu11_2 Cu 0.30190(18) 0.5849(5) 0.8162(4)
Cu3_2 Cu 0.30190(18) 0.9151(5) 0.3162(4)
O3_2 O 0.0626(10) 0.973(3) 0.108(2)
O4_2 O 0.0603(10) 0.493(3) 0.4275(19)
O8_2 O 0.0057(9) 0.637(3) 0.3944(17)
O10_2 O 0.3404(11) 0.865(3) 0.2300(19)
C2_2 C 0.1137(13) 0.766(4) 0.197(2)
H1_2 H 0.129820 0.805314 0.157966
C4_2 C 0.4451(15) 0.875(4) 0.153(2)
H2_2 H 0.459373 0.932236 0.194234
C5_2 C 0.0420(13) 0.592(4) 0.386(2)
N3_2 N 0.2579(11) 0.757(4) 0.286(3)
C8_2 C 0.0662(12) 0.650(4) 0.319(2)
C9_2 C 0.0441(12) 0.868(4) 0.122(3)
C10_2 C 0.4688(13) 0.817(3) 0.098(2)
C11_2 C 0.0454(12) 0.726(4) 0.2513(19)
H3_2 H 0.014850 0.738223 0.245943
F2_2 F 0.2684(11) 0.422(3) 0.314(4)
C13_2 C 0.0683(12) 0.788(4) 0.189(3)
C14_2 C 0.4486(12) 0.733(4) 0.039(3)
H5_2 H 0.464989 0.688763 0.002762
C17_2 C 0.1846(11) 0.666(4) 0.274(3)
C19_2 C 0.4000(14) 0.851(4) 0.151(3)
C20_2 C 0.3783(14) 0.777(4) 0.079(3)
H9_2 H 0.347433 0.774417 0.066796
C21_2 C 0.2030(15) 0.544(5) 0.282(4)
H10_2 H 0.184656 0.473869 0.279223
C23_2 C 0.2144(14) 0.767(4) 0.275(4)
H12_2 H 0.202431 0.847570 0.267448
C24_2 C 0.1125(12) 0.621(4) 0.323(3)
H13_2 H 0.126532 0.561531 0.362878
C28_2 C 0.2492(16) 0.530(5) 0.294(4)
C29_2 C 0.1358(13) 0.683(4) 0.264(3)
C30_2 C 0.5181(15) 0.834(4) 0.111(2)
C31_2 C 0.3804(15) 0.911(4) 0.222(2)
C32_2 C 0.4020(12) 0.713(4) 0.031(2)
C33_2 C 0.2747(15) 0.634(5) 0.298(4)
H15_2 H 0.305386 0.624229 0.308547
C36_2 C 0.5367(13) 0.954(4) 0.114(3)
C37_2 C 0.6086(15) 0.858(4) 0.128(3)
H17_2 H 0.639203 0.867110 0.132927
C38_2 C 0.5835(16) 0.961(4) 0.127(4)
C39_2 C 0.5464(11) 0.737(4) 0.1145(19)
H18_2 H 0.534507 0.656690 0.111233
O15_2 O 0.0626(10) 0.527(3) 0.608(2)
O17_2 O 0.3409(9) 0.827(3) 0.4148(18)
O18_2 O 0.3968(9) 0.970(3) 0.436(2)
N5_2 N 0.0751(11) 0.256(3) 0.540(2)
O6_2 O 0.3409(9) 0.673(3) 0.9148(18)
O7_2 O 0.3968(9) 0.530(3) 0.936(2)
C7_2 C 0.3783(13) 0.634(4) 0.953(3)
O19_2 O 0.9943(9) 0.363(3) 0.6056(17)
O4_3 O 0.0603(10) 0.007(3) 0.9275(19)
F2_3 F 0.2684(11) 0.078(3) 0.814(4)
H10_3 H 0.184656 0.026131 0.779223
O2_2 O 0.0077(9) 0.670(3) 0.583(2)
N1_2 N 0.5917(9) 0.751(3) 0.622(2)
O9_3 O 0.3256(10) 0.330(3) 0.7522(17)
O10_3 O 0.3404(11) 0.635(3) 0.7300(19)
C1_3 C 0.1966(13) 0.188(4) 0.567(3)
C2_3 C 0.1137(13) 0.734(4) 0.697(2)
H1_3 H 0.129820 0.694686 0.657966
C3_3 C 0.1478(12) 0.166(4) 0.559(3)
C4_3 C 0.4451(15) 0.625(4) 0.653(2)
H2_3 H 0.459373 0.567764 0.694234
C5_3 C 0.0420(13) 0.908(4) 0.886(2)
O11_3 O 0.3943(10) 0.498(3) 0.7634(19)
C6_3 C 0.2919(10) 0.088(4) 0.449(2)
C7_3 C 0.3783(13) 0.866(4) 0.453(3)
N3_3 N 0.2579(11) 0.743(4) 0.786(3)
C8_3 C 0.0662(12) 0.850(4) 0.819(2)
C9_3 C 0.0441(12) 0.632(4) 0.622(3)
C10_3 C 0.4688(13) 0.683(3) 0.598(2)
C11_3 C 0.0454(12) 0.774(4) 0.7513(19)
H3_3 H 0.014850 0.761777 0.745943
C12_3 C 0.1191(13) 0.269(4) 0.553(2)
H4_3 H 0.131154 0.349441 0.558578
C13_3 C 0.0683(12) 0.712(4) 0.689(3)
C14_3 C 0.4486(12) 0.767(4) 0.539(3)
H5_3 H 0.464989 0.811237 0.502762
C15_3 C 0.2873(13) 0.225(4) 0.577(2)
H6_3 H 0.316510 0.246732 0.573796
O12_3 O 0.2699(8) 0.460(3) 0.7274(17)
C16_3 C 0.0578(13) 0.137(4) 0.536(3)
H7_3 H 0.027190 0.125370 0.528554
C17_3 C 0.1846(11) 0.834(4) 0.774(3)
C18_3 C 0.2195(13) 0.269(4) 0.632(2)
H8_3 H 0.204112 0.312358 0.670723
C19_3 C 0.4000(14) 0.649(4) 0.651(3)
C20_3 C 0.3783(14) 0.723(4) 0.579(3)
H9_3 H 0.347433 0.725583 0.566796
C21_3 C 0.2030(15) 0.956(5) 0.782(4)
C22_3 C 0.1296(15) 0.047(4) 0.548(4)
C23_3 C 0.2144(14) 0.733(4) 0.775(4)
H12_3 H 0.202431 0.652430 0.767448
C24_3 C 0.1125(12) 0.879(4) 0.823(3)
H13_3 H 0.126532 0.938469 0.862878
C25_3 C 0.2661(14) 0.284(4) 0.639(3)
C26_3 C 0.0853(15) 0.034(5) 0.543(4)
C27_3 C 0.2203(12) 0.127(4) 0.509(3)
H14_3 H 0.205369 0.079597 0.461957
C28_3 C 0.2492(16) 0.970(5) 0.794(4)
C29_3 C 0.1358(13) 0.817(4) 0.764(3)
C30_3 C 0.5181(15) 0.666(4) 0.611(2)
C31_3 C 0.3804(15) 0.589(4) 0.722(2)
C32_3 C 0.4020(12) 0.787(4) 0.531(2)
C33_3 C 0.2747(15) 0.866(5) 0.798(4)
H15_3 H 0.305386 0.875771 0.808547
C34_3 C 0.2871(16) 0.370(5) 0.711(3)
C35_3 C 0.2660(11) 0.136(4) 0.521(3)
C36_3 C 0.5367(13) 0.546(4) 0.614(3)
H16_3 H 0.519189 0.473692 0.607677
F3_3 F 0.6019(8) 0.420(2) 0.625(2)
C37_3 C 0.6086(15) 0.642(4) 0.628(3)
H17_3 H 0.639203 0.632890 0.632927
C38_3 C 0.5835(16) 0.539(4) 0.627(4)
C39_3 C 0.5464(11) 0.763(4) 0.6145(19)
H18_3 H 0.534507 0.843310 0.611233
N4_2 N 0.4083(9) 0.251(3) 0.878(2)
F1_3 F 0.0658(10) 0.921(3) 0.526(2)
H11_3 H 0.147499 0.977785 0.543115
O14_2 O 0.9923(9) 0.170(3) 0.917(2)
C7_4 C 0.6217(13) 0.366(4) 0.047(3)
O4_4 O 0.9397(10) 0.507(3) 0.5725(19)
O10_4 O 0.6596(11) 0.135(3) 0.7700(19)
C2_4 C 0.8863(13) 0.234(4) 0.803(2)
H1_4 H 0.870180 0.194686 0.842034
C4_4 C 0.5549(15) 0.125(4) 0.847(2)
H2_4 H 0.540627 0.067764 0.805766
C5_4 C 0.9580(13) 0.408(4) 0.614(2)
N3_4 N 0.7421(11) 0.243(4) 0.714(3)
C8_4 C 0.9338(12) 0.350(4) 0.681(2)
C9_4 C 0.9559(12) 0.132(4) 0.878(3)
C10_4 C 0.5312(13) 0.183(3) 0.902(2)
C11_4 C 0.9546(12) 0.274(4) 0.7487(19)
H3_4 H 0.985150 0.261777 0.754057
F2_4 F 0.7316(11) 0.578(3) 0.686(4)
C13_4 C 0.9317(12) 0.212(4) 0.811(3)
C14_4 C 0.5514(12) 0.267(4) 0.961(3)
H5_4 H 0.535011 0.311237 0.997238
C17_4 C 0.8154(11) 0.334(4) 0.726(3)
C19_4 C 0.6000(14) 0.149(4) 0.849(3)
C20_4 C 0.6217(14) 0.223(4) 0.921(3)
H9_4 H 0.652567 0.225583 0.933204
C21_4 C 0.7970(15) 0.456(5) 0.718(4)
H10_4 H 0.815344 0.526131 0.720777
C23_4 C 0.7856(14) 0.233(4) 0.725(4)
H12_4 H 0.797569 0.152430 0.732552
C24_4 C 0.8875(12) 0.379(4) 0.677(3)
H13_4 H 0.873468 0.438469 0.637122
C28_4 C 0.7508(16) 0.470(5) 0.706(4)
C29_4 C 0.8642(13) 0.317(4) 0.736(3)
C30_4 C 0.4819(15) 0.166(4) 0.889(2)
C31_4 C 0.6196(15) 0.089(4) 0.778(2)
C32_4 C 0.5980(12) 0.287(4) 0.969(2)
C33_4 C 0.7253(15) 0.366(5) 0.702(4)
H15_4 H 0.694614 0.375771 0.691453
C36_4 C 0.4633(13) 0.046(4) 0.886(3)
C37_4 C 0.3914(15) 0.142(4) 0.872(3)
H17_4 H 0.360797 0.132890 0.867073
C38_4 C 0.4165(16) 0.039(4) 0.873(4)
C39_4 C 0.4536(11) 0.263(4) 0.8855(19)
H18_4 H 0.465493 0.343310 0.888767
C6_4 C 0.7081(10) 0.588(4) 0.051(2)
H14_4 H 0.794631 0.579597 0.038043
F1_4 F 0.9342(10) 0.421(3) 0.974(2)
O9_4 O 0.6744(10) 0.830(3) 0.7478(17)
C1_4 C 0.8034(13) 0.688(4) 0.933(3)
C3_4 C 0.8522(12) 0.666(4) 0.941(3)
O11_4 O 0.6057(10) 0.998(3) 0.7366(19)
C12_4 C 0.8809(13) 0.769(4) 0.947(2)
H4_4 H 0.868846 0.849441 0.941422
C15_4 C 0.7127(13) 0.725(4) 0.923(2)
H6_4 H 0.683490 0.746732 0.926204
O12_4 O 0.7301(8) 0.960(3) 0.7726(17)
C16_4 C 0.9422(13) 0.637(4) 0.964(3)
H7_4 H 0.972810 0.625370 0.971446
C18_4 C 0.7805(13) 0.769(4) 0.868(2)
H8_4 H 0.795888 0.812358 0.829277
C22_4 C 0.8704(15) 0.547(4) 0.952(4)
H11_4 H 0.852501 0.477785 0.956885
C25_4 C 0.7339(14) 0.784(4) 0.861(3)
C26_4 C 0.9147(15) 0.534(5) 0.957(4)
C27_4 C 0.7797(12) 0.627(4) 0.991(3)
C34_4 C 0.7129(16) 0.870(5) 0.789(3)
C35_4 C 0.7340(11) 0.636(4) 0.979(3)
H16_4 H 0.480811 0.973692 0.892323
F3_4 F 0.3981(8) 0.920(2) 0.875(2)
loop_
_geom_bond_atom_site_label_1
_geom_bond_atom_site_label_2
_geom_bond_site_symmetry_1
_geom_bond_site_symmetry_2
Cu2 Cu3 1_555 1_555
Cu3 O10 1_555 1_555
O1 C6 1_555 1_555
O2 C9 1_555 1_555
O3 C9 1_555 1_555
O5 C6 1_555 1_555
O6 C7 1_555 1_555
N1 C37 1_555 1_555
O7 C7 1_555 1_555
O8 C5 1_555 1_555
N2 C12 1_555 1_555
O9 Cu2 1_555 1_555
O10 C31 1_555 1_555
C1 C3 1_555 1_555
C2 H1 1_555 1_555
C3 C12 1_555 1_555
C4 H2 1_555 1_555
C5 C8 1_555 1_555
O11 Cu2 1_555 1_555
C6 C35 1_555 1_555
C7 C32 1_555 1_555
N3 Cu3 1_555 1_555
C8 C11 1_555 1_555
C9 C13 1_555 1_555
C10 C4 1_555 1_555
C11 H3 1_555 1_555
C12 H4 1_555 1_555
C13 C2 1_555 1_555
C14 C10 1_555 1_555
H5 C14 1_555 1_555
C15 H6 1_555 1_555
O12 Cu3 1_555 1_555
C16 N2 1_555 1_555
H7 C16 1_555 1_555
C17 C21 1_555 1_555
C18 C1 1_555 1_555
H8 C18 1_555 1_555
C19 C4 1_555 1_555
C20 C19 1_555 1_555
H9 C20 1_555 1_555
C22 C3 1_555 1_555
C23 N3 1_555 1_555
H12 C23 1_555 1_555
C24 C8 1_555 1_555
H13 C24 1_555 1_555
C25 C15 1_555 1_555
C26 C16 1_555 1_555
C27 C1 1_555 1_555
H14 C27 1_555 1_555
C28 C21 1_555 1_555
C29 C2 1_555 1_555
C30 C10 1_555 1_555
C31 O11 1_555 1_555
C32 C14 1_555 1_555
C33 N3 1_555 1_555
H15 C33 1_555 1_555
C34 O9 1_555 1_555
C35 C15 1_555 1_555
C36 C30 1_555 1_555
H16 C36 1_555 1_555
F3 C38 1_555 1_555
C37 H17 1_555 1_555
C38 C36 1_555 1_555
C39 N1 1_555 1_555
H18 C39 1_555 1_555
Cu6 O3 1_555 1_555
Cu7 N1 1_555 1_555
Cu9 O1 1_555 1_555
Cu11 O6 1_555 1_555
O13 Cu2 1_555 1_555
O16 Cu3 1_555 1_555
O17 Cu3 1_555 1_555
N4 Cu2 1_555 1_555
O18 Cu2 1_555 1_555
N2 Cu6 1_555 1_555
C11 C13 1_555 1_555
O12 C34 1_555 1_555
C17 C23 1_555 1_555
C17 C29 1_555 1_555
C18 C25 1_555 1_555
C19 C31 1_555 1_555
C20 C32 1_555 1_555
C22 C26 1_555 1_555
C24 C29 1_555 1_555
C25 C34 1_555 1_555
C27 C35 1_555 1_555
C28 C33 1_555 1_555
C30 C39 1_555 1_555
C37 C38 1_555 1_555
N5 Cu1 1_555 1_555
F1_2 C26_2 1_555 1_555
N2_2 C12_2 1_555 1_555
O9_2 Cu7 1_555 1_555
C1_2 C3_2 1_555 1_555
C3_2 C12_2 1_555 1_555
O11_2 Cu7 1_555 1_555
C12_2 H4_2 1_555 1_555
C15_2 H6_2 1_555 1_555
C16_2 N2_2 1_555 1_555
H7_2 C16_2 1_555 1_555
C18_2 C1_2 1_555 1_555
H8_2 C18_2 1_555 1_555
C22_2 C3_2 1_555 1_555
H11_2 C22_2 1_555 1_555
C25_2 C15_2 1_555 1_555
C26_2 C16_2 1_555 1_555
C27_2 C1_2 1_555 1_555
C34_2 O9_2 1_555 1_555
C35_2 C15_2 1_555 1_555
O13_2 Cu7 1_555 1_555
N2_2 Cu5 1_555 1_555
O12_2 C34_2 1_555 1_555
C18_2 C25_2 1_555 1_555
C22_2 C26_2 1_555 1_555
C25_2 C34_2 1_555 1_555
C27_2 C35_2 1_555 1_555
O1_2 C6_2 1_555 1_555
O5_2 C6_2 1_555 1_555
Cu9_2 O1_2 1_555 1_555
Cu11_2 O5_2 1_555 1_555
Cu9_2 Cu11_2 1_555 1_555
Cu4 O4_2 1_555 1_555
Cu3_2 O10_2 1_555 1_555
O14 C9_2 1_555 1_555
O3_2 C9_2 1_555 1_555
O4_2 C5_2 1_555 1_555
N4 C37_2 1_555 1_555
O8_2 C5_2 1_555 1_555
O10_2 C31_2 1_555 1_555
C2_2 H1_2 1_555 1_555
C4_2 H2_2 1_555 1_555
C5_2 C8_2 1_555 1_555
N3_2 Cu3_2 1_555 1_555
C8_2 C11_2 1_555 1_555
C9_2 C13_2 1_555 1_555
C10_2 C4_2 1_555 1_555
C11_2 H3_2 1_555 1_555
F2_2 C28_2 1_555 1_555
C13_2 C2_2 1_555 1_555
C14_2 C10_2 1_555 1_555
H5_2 C14_2 1_555 1_555
C17_2 C21_2 1_555 1_555
C19_2 C4_2 1_555 1_555
C20_2 C19_2 1_555 1_555
H9_2 C20_2 1_555 1_555
C21_2 H10_2 1_555 1_555
C23_2 N3_2 1_555 1_555
H12_2 C23_2 1_555 1_555
C24_2 C8_2 1_555 1_555
H13_2 C24_2 1_555 1_555
C28_2 C21_2 1_555 1_555
C29_2 C2_2 1_555 1_555
C30_2 C10_2 1_555 1_555
C32_2 C14_2 1_555 1_555
C33_2 N3_2 1_555 1_555
H15_2 C33_2 1_555 1_555
C36_2 C30_2 1_555 1_555
C37_2 H17_2 1_555 1_555
C38_2 C36_2 1_555 1_555
C39_2 N4 1_555 1_555
H18_2 C39_2 1_555 1_555
O15_2 Cu4 1_555 1_555
O17_2 Cu3_2 1_555 1_555
N5_2 Cu4 1_555 1_555
C11_2 C13_2 1_555 1_555
C17_2 C23_2 1_555 1_555
C17_2 C29_2 1_555 1_555
C19_2 C31_2 1_555 1_555
C20_2 C32_2 1_555 1_555
C24_2 C29_2 1_555 1_555
C28_2 C33_2 1_555 1_555
C30_2 C39_2 1_555 1_555
C37_2 C38_2 1_555 1_555
O6_2 C7_2 1_555 1_555
O7_2 C7_2 1_555 1_555
Cu9_2 O7_2 1_555 1_555
Cu11_2 O6_2 1_555 1_555
Cu11_2 O10_3 1_555 1_555
O13_2 C6_3 1_555 1_555
O2_2 C9_3 1_555 1_555
O15_2 C9_3 1_555 1_555
O16_2 C6_3 1_555 1_555
O17_2 C7_3 1_555 1_555
N1_2 C37_3 1_555 1_555
O18_2 C7_3 1_555 1_555
O19 C5_3 1_555 1_555
N5_2 C12_3 1_555 1_555
O9_3 Cu9_2 1_555 1_555
O10_3 C31_3 1_555 1_555
C1_3 C3_3 1_555 1_555
C2_3 H1_3 1_555 1_555
C3_3 C12_3 1_555 1_555
C4_3 H2_3 1_555 1_555
C5_3 C8_3 1_555 1_555
O11_3 Cu9_2 1_555 1_555
C6_3 C35_3 1_555 1_555
C7_3 C32_3 1_555 1_555
N3_3 Cu11_2 1_555 1_555
C8_3 C11_3 1_555 1_555
C9_3 C13_3 1_555 1_555
C10_3 C4_3 1_555 1_555
C11_3 H3_3 1_555 1_555
C12_3 H4_3 1_555 1_555
C13_3 C2_3 1_555 1_555
C14_3 C10_3 1_555 1_555
H5_3 C14_3 1_555 1_555
C15_3 H6_3 1_555 1_555
O12_3 Cu11_2 1_555 1_555
C16_3 N5_2 1_555 1_555
H7_3 C16_3 1_555 1_555
C17_3 C21_3 1_555 1_555
C18_3 C1_3 1_555 1_555
H8_3 C18_3 1_555 1_555
C19_3 C4_3 1_555 1_555
C20_3 C19_3 1_555 1_555
H9_3 C20_3 1_555 1_555
C22_3 C3_3 1_555 1_555
C23_3 N3_3 1_555 1_555
H12_3 C23_3 1_555 1_555
C24_3 C8_3 1_555 1_555
H13_3 C24_3 1_555 1_555
C25_3 C15_3 1_555 1_555
C26_3 C16_3 1_555 1_555
C27_3 C1_3 1_555 1_555
H14_3 C27_3 1_555 1_555
C28_3 C21_3 1_555 1_555
C29_3 C2_3 1_555 1_555
C30_3 C10_3 1_555 1_555
C31_3 O11_3 1_555 1_555
C32_3 C14_3 1_555 1_555
C33_3 N3_3 1_555 1_555
H15_3 C33_3 1_555 1_555
C34_3 O9_3 1_555 1_555
C35_3 C15_3 1_555 1_555
C36_3 C30_3 1_555 1_555
H16_3 C36_3 1_555 1_555
F3_3 C38_3 1_555 1_555
C37_3 H17_3 1_555 1_555
C38_3 C36_3 1_555 1_555
C39_3 N1_2 1_555 1_555
H18_3 C39_3 1_555 1_555
Cu9 N1_2 1_555 1_555
N4_2 Cu9_2 1_555 1_555
C11_3 C13_3 1_555 1_555
O12_3 C34_3 1_555 1_555
C17_3 C23_3 1_555 1_555
C17_3 C29_3 1_555 1_555
C18_3 C25_3 1_555 1_555
C19_3 C31_3 1_555 1_555
C20_3 C32_3 1_555 1_555
C22_3 C26_3 1_555 1_555
C24_3 C29_3 1_555 1_555
C25_3 C34_3 1_555 1_555
C27_3 C35_3 1_555 1_555
C28_3 C33_3 1_555 1_555
C30_3 C39_3 1_555 1_555
C37_3 C38_3 1_555 1_555
O17 C7_4 1_555 1_555
O18 C7_4 1_555 1_555
Cu6 O4_4 1_555 1_555
Cu11 O10_4 1_555 1_555
O14_2 C9_4 1_555 1_555
O15 C9_4 1_555 1_555
O4_4 C5_4 1_555 1_555
N4_2 C37_4 1_555 1_555
O19_2 C5_4 1_555 1_555
O10_4 C31_4 1_555 1_555
C2_4 H1_4 1_555 1_555
C4_4 H2_4 1_555 1_555
C5_4 C8_4 1_555 1_555
N3_4 Cu11 1_555 1_555
C8_4 C11_4 1_555 1_555
C9_4 C13_4 1_555 1_555
C10_4 C4_4 1_555 1_555
C11_4 H3_4 1_555 1_555
F2_4 C28_4 1_555 1_555
C13_4 C2_4 1_555 1_555
C14_4 C10_4 1_555 1_555
H5_4 C14_4 1_555 1_555
C17_4 C21_4 1_555 1_555
C19_4 C4_4 1_555 1_555
C20_4 C19_4 1_555 1_555
H9_4 C20_4 1_555 1_555
C21_4 H10_4 1_555 1_555
C23_4 N3_4 1_555 1_555
H12_4 C23_4 1_555 1_555
C24_4 C8_4 1_555 1_555
H13_4 C24_4 1_555 1_555
C28_4 C21_4 1_555 1_555
C29_4 C2_4 1_555 1_555
C30_4 C10_4 1_555 1_555
C32_4 C14_4 1_555 1_555
C33_4 N3_4 1_555 1_555
H15_4 C33_4 1_555 1_555
C36_4 C30_4 1_555 1_555
C37_4 H17_4 1_555 1_555
C38_4 C36_4 1_555 1_555
C39_4 N4_2 1_555 1_555
H18_4 C39_4 1_555 1_555
C11_4 C13_4 1_555 1_555
C17_4 C23_4 1_555 1_555
C17_4 C29_4 1_555 1_555
C19_4 C31_4 1_555 1_555
C20_4 C32_4 1_555 1_555
C24_4 C29_4 1_555 1_555
C28_4 C33_4 1_555 1_555
C30_4 C39_4 1_555 1_555
C37_4 C38_4 1_555 1_555
O13 C6_4 1_555 1_555
O16 C6_4 1_555 1_555
F1_4 C26_4 1_555 1_555
N5 C12_4 1_555 1_555
O9_4 Cu9 1_555 1_555
C1_4 C3_4 1_555 1_555
C3_4 C12_4 1_555 1_555
O11_4 Cu9 1_555 1_555
C12_4 H4_4 1_555 1_555
C15_4 H6_4 1_555 1_555
C16_4 N5 1_555 1_555
H7_4 C16_4 1_555 1_555
C18_4 C1_4 1_555 1_555
H8_4 C18_4 1_555 1_555
C22_4 C3_4 1_555 1_555
H11_4 C22_4 1_555 1_555
C25_4 C15_4 1_555 1_555
C26_4 C16_4 1_555 1_555
C27_4 C1_4 1_555 1_555
C34_4 O9_4 1_555 1_555
C35_4 C15_4 1_555 1_555
O12_4 C34_4 1_555 1_555
C18_4 C25_4 1_555 1_555
C22_4 C26_4 1_555 1_555
C25_4 C34_4 1_555 1_555
C27_4 C35_4 1_555 1_555

#END
