
###############################################################################
#
# This file contains modified crystal structure data generated from the
# MOF subset of the Cambridge Structural Database (CSD) v543 
# hosted by the Cambridge Crystallographic Data Centre (CCDC).
#
# This work is licensed under the Creative Commons
# Attribution-NonCommercial-ShareAlike 4.0 International License.
# To view a copy of this license, visit
# http://creativecommons.org/licenses/by-nc-sa/4.0/
# or send a letter to
# Creative Commons, PO Box 1866, Mountain View, CA 94042, USA.
#
# CIF created using the CSD Python API on 29 September 2022
# The structure has been converted into the P1 space group
# The structure has a 3D framework
# The original CSD entry TOYWEM is in the monoclinic crystal system
# The framework has been calculated to contain at least 10.0% void space
# The void calculation uses a probe of radius 1.32A, grid spacing 0.4
#
###############################################################################

data_TOYWEM
_chemical_formula_moiety         '(C52 H24 F4 N4 O14)n'
_symmetry_cell_setting           triclinic
_symmetry_space_group_name_H-M   'P 1'
_symmetry_Int_Tables_number      1
_space_group_name_Hall           'P 1'
loop_
_symmetry_equiv_pos_site_id
_symmetry_equiv_pos_as_xyz
1 x,y,z
_cell_length_a                   10.4862(2)
_cell_length_b                   10.5374(3)
_cell_length_c                   15.0449(4)
_cell_angle_alpha                90
_cell_angle_beta                 106.838(3)
_cell_angle_gamma                90
_cell_volume                     1591.15
loop_
_atom_site_label
_atom_site_type_symbol
_atom_site_fract_x
_atom_site_fract_y
_atom_site_fract_z
O5 O 0.02281(18) 0.1395(2) 0.61203(13)
O7 O 0.02972(18) 0.1699(2) 0.42759(15)
Cu2 Cu 0.09212(3) 0.58839(4) 0.01130(2)
Cu4 Cu 0.09212(3) 0.91161(4) 0.51130(2)
Cu1 Cu 0.90788(3) 0.08839(4) 0.48870(2)
O6 O 0.81724(18) 0.0063(2) 0.37076(13)
N2 N 0.7785(2) 0.2528(2) 0.46608(16)
O1 O 0.97719(18) 0.6395(2) 0.88797(13)
O2 O 0.81724(18) 0.4937(2) 0.87076(13)
O3 O 0.97028(18) 0.8301(2) 0.57241(15)
O4 O 0.80732(18) 0.9745(2) 0.54675(15)
N1 N 0.2215(2) 0.7472(2) 0.53392(16)
F1 F 0.1961(2) 0.4116(2) 0.5512(2)
C1 C 0.8688(3) 0.5887(3) 0.84508(18)
C2 C 0.8606(3) 0.8713(3) 0.57765(18)
C3 C 0.7882(3) 0.7875(3) 0.62752(19)
C4 C 0.8592(3) 0.7270(3) 0.70843(19)
H1 H 0.950459 0.740151 0.732116
C5 C 0.4408(3) 0.6612(3) 0.5967(2)
C6 C 0.5870(3) 0.6840(3) 0.6355(2)
C7 C 0.6511(3) 0.7682(3) 0.5921(2)
H2 H 0.602744 0.811901 0.539419
C8 C 0.7947(3) 0.6474(3) 0.75387(19)
C9 C 0.6593(3) 0.6239(3) 0.7169(2)
H3 H 0.616732 0.567838 0.746680
C10 C 0.3538(3) 0.7609(3) 0.56705(19)
H4 H 0.388992 0.842390 0.570213
C11 C 0.1708(3) 0.6307(3) 0.5287(3)
H5 H 0.079256 0.619121 0.505028
C12 C 0.3872(3) 0.5408(3) 0.5920(3)
H6 H 0.441292 0.470202 0.611445
C13 C 0.2512(3) 0.5288(3) 0.5575(3)
Cu5 Cu 0.90788(3) 0.41161(4) 0.98870(2)
O6_2 O 0.18276(18) 0.5063(2) 0.12924(13)
N2_2 N 0.2215(2) 0.7528(2) 0.03392(16)
O3_2 O 0.02972(18) 0.3301(2) 0.92759(15)
O4_2 O 0.19268(18) 0.4745(2) 0.95325(15)
N1_2 N 0.7785(2) 0.2472(2) 0.96608(16)
C1_2 C 0.1312(3) 0.0887(3) 0.65492(18)
C2_2 C 0.1394(3) 0.3713(3) 0.92235(18)
C3_2 C 0.2118(3) 0.2875(3) 0.87248(19)
C4_2 C 0.1408(3) 0.2270(3) 0.79157(19)
H1_2 H 0.049541 0.240151 0.767884
C5_2 C 0.5592(3) 0.1612(3) 0.9033(2)
C6_2 C 0.4130(3) 0.1840(3) 0.8645(2)
C7_2 C 0.3489(3) 0.2682(3) 0.9079(2)
H2_2 H 0.397256 0.311901 0.960581
C8_2 C 0.2053(3) 0.1474(3) 0.74613(19)
C9_2 C 0.3407(3) 0.1239(3) 0.7831(2)
H3_2 H 0.383268 0.067838 0.753320
C10_2 C 0.6462(3) 0.2609(3) 0.93295(19)
H4_2 H 0.611008 0.342390 0.929787
C11_2 C 0.8292(3) 0.1307(3) 0.9713(3)
H5_2 H 0.920744 0.119121 0.994972
C12_2 C 0.6128(3) 0.0408(3) 0.9080(3)
C13_2 C 0.7488(3) 0.0288(3) 0.9425(3)
O2_2 O 0.18276(18) 0.9937(2) 0.62924(13)
F1_2 F 0.8039(2) 0.9116(2) 0.9488(2)
H6_2 H 0.558708 0.970202 0.888555
O7_2 O 0.97028(18) 0.6699(2) 0.07241(15)
O1_2 O 0.02281(18) 0.3605(2) 0.11203(13)
O4_3 O 0.19268(18) 0.0255(2) 0.45325(15)
F1_3 F 0.8039(2) 0.5884(2) 0.4488(2)
C1_3 C 0.1312(3) 0.4113(3) 0.15492(18)
C2_3 C 0.1394(3) 0.1287(3) 0.42235(18)
C3_3 C 0.2118(3) 0.2125(3) 0.37248(19)
C4_3 C 0.1408(3) 0.2730(3) 0.29157(19)
H1_3 H 0.049541 0.259849 0.267884
C5_3 C 0.5592(3) 0.3388(3) 0.4033(2)
C6_3 C 0.4130(3) 0.3160(3) 0.3645(2)
C7_3 C 0.3489(3) 0.2318(3) 0.4079(2)
H2_3 H 0.397256 0.188099 0.460581
C8_3 C 0.2053(3) 0.3526(3) 0.24613(19)
C9_3 C 0.3407(3) 0.3761(3) 0.2831(2)
H3_3 H 0.383268 0.432162 0.253320
C10_3 C 0.6462(3) 0.2391(3) 0.43295(19)
H4_3 H 0.611008 0.157610 0.429787
C11_3 C 0.8292(3) 0.3693(3) 0.4713(3)
H5_3 H 0.920744 0.380879 0.494972
C12_3 C 0.6128(3) 0.4592(3) 0.4080(3)
H6_3 H 0.558708 0.529798 0.388555
C13_3 C 0.7488(3) 0.4712(3) 0.4425(3)
O5_2 O 0.97719(18) 0.8605(2) 0.38797(13)
F1_4 F 0.1961(2) 0.0884(2) 0.0512(2)
H6_4 H 0.441292 0.029798 0.111445
O4_4 O 0.80732(18) 0.5255(2) 0.04675(15)
C1_4 C 0.8688(3) 0.9113(3) 0.34508(18)
C2_4 C 0.8606(3) 0.6287(3) 0.07765(18)
C3_4 C 0.7882(3) 0.7125(3) 0.12752(19)
C4_4 C 0.8592(3) 0.7730(3) 0.20843(19)
H1_4 H 0.950459 0.759849 0.232116
C5_4 C 0.4408(3) 0.8388(3) 0.0967(2)
C6_4 C 0.5870(3) 0.8160(3) 0.1355(2)
C7_4 C 0.6511(3) 0.7318(3) 0.0921(2)
H2_4 H 0.602744 0.688099 0.039419
C8_4 C 0.7947(3) 0.8526(3) 0.25387(19)
C9_4 C 0.6593(3) 0.8761(3) 0.2169(2)
H3_4 H 0.616732 0.932162 0.246680
C10_4 C 0.3538(3) 0.7391(3) 0.06705(19)
H4_4 H 0.388992 0.657610 0.070213
C11_4 C 0.1708(3) 0.8693(3) 0.0287(3)
H5_4 H 0.079256 0.880879 0.005028
C12_4 C 0.3872(3) 0.9592(3) 0.0920(3)
C13_4 C 0.2512(3) 0.9712(3) 0.0575(3)
loop_
_geom_bond_atom_site_label_1
_geom_bond_atom_site_label_2
_geom_bond_site_symmetry_1
_geom_bond_site_symmetry_2
O6 Cu1 1_555 1_555
N2 Cu1 1_555 1_555
O1 C1 1_555 1_555
O2 C1 1_555 1_555
O3 C2 1_555 1_555
O4 C2 1_555 1_555
N1 C10 1_555 1_555
F1 C13 1_555 1_555
C1 C8 1_555 1_555
C2 C3 1_555 1_555
C3 C4 1_555 1_555
C4 H1 1_555 1_555
C5 C6 1_555 1_555
C6 C7 1_555 1_555
C7 C3 1_555 1_555
H2 C7 1_555 1_555
C8 C4 1_555 1_555
C9 C6 1_555 1_555
H3 C9 1_555 1_555
C10 C5 1_555 1_555
H4 C10 1_555 1_555
C11 N1 1_555 1_555
H5 C11 1_555 1_555
C12 C5 1_555 1_555
H6 C12 1_555 1_555
C13 C11 1_555 1_555
Cu4 N1 1_555 1_555
Cu5 O2 1_555 1_555
C8 C9 1_555 1_555
C12 C13 1_555 1_555
O6_2 Cu2 1_555 1_555
N2_2 Cu2 1_555 1_555
O5 C1_2 1_555 1_555
O3_2 C2_2 1_555 1_555
O4_2 C2_2 1_555 1_555
N1_2 C10_2 1_555 1_555
C1_2 C8_2 1_555 1_555
C2_2 C3_2 1_555 1_555
C3_2 C4_2 1_555 1_555
C4_2 H1_2 1_555 1_555
C5_2 C6_2 1_555 1_555
C6_2 C7_2 1_555 1_555
C7_2 C3_2 1_555 1_555
H2_2 C7_2 1_555 1_555
C8_2 C4_2 1_555 1_555
C9_2 C6_2 1_555 1_555
H3_2 C9_2 1_555 1_555
C10_2 C5_2 1_555 1_555
H4_2 C10_2 1_555 1_555
C11_2 N1_2 1_555 1_555
H5_2 C11_2 1_555 1_555
C12_2 C5_2 1_555 1_555
C13_2 C11_2 1_555 1_555
Cu5 N1_2 1_555 1_555
C8_2 C9_2 1_555 1_555
C12_2 C13_2 1_555 1_555
Cu4 O2_2 1_555 1_555
O1_2 C1_3 1_555 1_555
O6_2 C1_3 1_555 1_555
O7 C2_3 1_555 1_555
O4_3 C2_3 1_555 1_555
N2 C10_3 1_555 1_555
F1_3 C13_3 1_555 1_555
C1_3 C8_3 1_555 1_555
C2_3 C3_3 1_555 1_555
C3_3 C4_3 1_555 1_555
C4_3 H1_3 1_555 1_555
C5_3 C6_3 1_555 1_555
C6_3 C7_3 1_555 1_555
C7_3 C3_3 1_555 1_555
H2_3 C7_3 1_555 1_555
C8_3 C4_3 1_555 1_555
C9_3 C6_3 1_555 1_555
H3_3 C9_3 1_555 1_555
C10_3 C5_3 1_555 1_555
H4_3 C10_3 1_555 1_555
C11_3 N2 1_555 1_555
H5_3 C11_3 1_555 1_555
C12_3 C5_3 1_555 1_555
H6_3 C12_3 1_555 1_555
C13_3 C11_3 1_555 1_555
C8_3 C9_3 1_555 1_555
C12_3 C13_3 1_555 1_555
O5_2 C1_4 1_555 1_555
O7_2 C2_4 1_555 1_555
O4_4 C2_4 1_555 1_555
N2_2 C10_4 1_555 1_555
C1_4 C8_4 1_555 1_555
C2_4 C3_4 1_555 1_555
C3_4 C4_4 1_555 1_555
C4_4 H1_4 1_555 1_555
C5_4 C6_4 1_555 1_555
C6_4 C7_4 1_555 1_555
C7_4 C3_4 1_555 1_555
H2_4 C7_4 1_555 1_555
C8_4 C4_4 1_555 1_555
C9_4 C6_4 1_555 1_555
H3_4 C9_4 1_555 1_555
C10_4 C5_4 1_555 1_555
H4_4 C10_4 1_555 1_555
C11_4 N2_2 1_555 1_555
H5_4 C11_4 1_555 1_555
C12_4 C5_4 1_555 1_555
C13_4 C11_4 1_555 1_555
C8_4 C9_4 1_555 1_555
C12_4 C13_4 1_555 1_555

#END
