
###############################################################################
#
# This file contains modified crystal structure data generated from the
# MOF subset of the Cambridge Structural Database (CSD) v543 
# hosted by the Cambridge Crystallographic Data Centre (CCDC).
#
# This work is licensed under the Creative Commons
# Attribution-NonCommercial-ShareAlike 4.0 International License.
# To view a copy of this license, visit
# http://creativecommons.org/licenses/by-nc-sa/4.0/
# or send a letter to
# Creative Commons, PO Box 1866, Mountain View, CA 94042, USA.
#
# CIF created using the CSD Python API on 29 September 2022
# The structure has been converted into the P1 space group
# The structure has a 3D framework
# The original CSD entry TOYWAI is in the monoclinic crystal system
# The framework has been calculated to contain at least 10.0% void space
# The void calculation uses a probe of radius 1.32A, grid spacing 0.4
#
###############################################################################

data_TOYWAI
_chemical_formula_moiety         '(C52 H24 Cu2 F4 N4 O14)n'
_symmetry_cell_setting           triclinic
_symmetry_space_group_name_H-M   'P 1'
_symmetry_Int_Tables_number      1
_space_group_name_Hall           'P 1'
loop_
_symmetry_equiv_pos_site_id
_symmetry_equiv_pos_as_xyz
1 x,y,z
_cell_length_a                   10.551(2)
_cell_length_b                   11.001(2)
_cell_length_c                   14.830(3)
_cell_angle_alpha                90
_cell_angle_beta                 108.79(3)
_cell_angle_gamma                90
_cell_volume                     1629.6
loop_
_atom_site_label
_atom_site_type_symbol
_atom_site_fract_x
_atom_site_fract_y
_atom_site_fract_z
H5 H 0.427482 0.646305 0.024414
C9 C 0.0627(4) 0.6638(4) 0.9254(3)
C10 C 0.1223(5) 0.5508(4) 0.9391(4)
H4 H 0.072105 0.479804 0.923923
C11 C 0.2605(5) 0.5481(5) 0.9766(4)
C12 C 0.3349(5) 0.6520(5) 0.9979(4)
C13 C 0.1442(4) 0.7656(4) 0.9479(3)
H6 H 0.103478 0.841650 0.938920
F1 F 0.3235(3) 0.4398(3) 0.9903(3)
N1 N 0.2781(4) 0.7611(4) 0.9818(3)
Cu4 Cu 0.40444(5) 0.91807(5) 0.98662(4)
Cu1 Cu 0.59556(5) 0.08193(5) 0.01338(4)
O5 O 0.4781(3) 0.1706(3) 0.0726(2)
O7 O 0.6882(3) 0.0098(3) 0.1382(2)
N2 N 0.7219(4) 0.2389(4) 0.0182(3)
O6 O 0.4762(3) 0.1260(3) 0.8844(2)
O1 O 0.6915(3) 0.9627(3) 0.9600(2)
O2 O 0.5219(3) 0.8294(3) 0.9274(2)
O3 O 0.5238(3) 0.6260(3) 0.6156(2)
O4 O 0.6882(3) 0.4902(3) 0.6382(2)
C1 C 0.6346(4) 0.8638(4) 0.9269(3)
C2 C 0.7090(4) 0.7804(4) 0.8811(3)
C3 C 0.6415(4) 0.7199(4) 0.7981(3)
H1 H 0.550577 0.734143 0.769074
C4 C 0.7070(4) 0.6381(4) 0.7571(3)
C5 C 0.6344(4) 0.5793(5) 0.6637(3)
C6 C 0.8426(4) 0.6156(4) 0.8019(3)
H2 H 0.885859 0.557004 0.777192
C7 C 0.9137(4) 0.6794(4) 0.8827(3)
C8 C 0.8461(4) 0.7620(4) 0.9226(3)
H3 H 0.892988 0.804860 0.977155
Cu2 Cu 0.40444(5) 0.58193(5) 0.48662(4)
Cu5 Cu 0.59556(5) 0.41807(5) 0.51338(4)
O1_2 O 0.3085(3) 0.4627(3) 0.5400(2)
O2_2 O 0.4781(3) 0.3294(3) 0.5726(2)
C1_2 C 0.3654(4) 0.3638(4) 0.5731(3)
C2_2 C 0.2910(4) 0.2804(4) 0.6189(3)
C3_2 C 0.3585(4) 0.2199(4) 0.7019(3)
H1_2 H 0.449423 0.234143 0.730926
C4_2 C 0.2930(4) 0.1381(4) 0.7429(3)
C5_2 C 0.3656(4) 0.0793(5) 0.8363(3)
C6_2 C 0.1574(4) 0.1156(4) 0.6981(3)
H2_2 H 0.114141 0.057004 0.722808
C7_2 C 0.0863(4) 0.1794(4) 0.6173(3)
C8_2 C 0.1539(4) 0.2620(4) 0.5774(3)
H3_2 H 0.107012 0.304860 0.522845
O5_2 O 0.5219(3) 0.6706(3) 0.4274(2)
O7_2 O 0.3118(3) 0.5098(3) 0.3618(2)
N2_2 N 0.2781(4) 0.7389(4) 0.4818(3)
O4_2 O 0.3118(3) 0.9902(3) 0.8618(2)
C9_2 C 0.9373(4) 0.1638(4) 0.5746(3)
C10_2 C 0.8777(5) 0.0508(4) 0.5609(4)
C11_2 C 0.7395(5) 0.0481(5) 0.5234(4)
C12_2 C 0.6651(5) 0.1520(5) 0.5021(4)
H5_2 H 0.572518 0.146305 0.475586
C13_2 C 0.8558(4) 0.2656(4) 0.5521(3)
H6_2 H 0.896522 0.341650 0.561080
N1_2 N 0.7219(4) 0.2611(4) 0.5182(3)
O1_3 O 0.3085(3) 0.0373(3) 0.0400(2)
O3_2 O 0.4762(3) 0.3740(3) 0.3844(2)
C1_3 C 0.3654(4) 0.1362(4) 0.0731(3)
C2_3 C 0.2910(4) 0.2196(4) 0.1189(3)
C3_3 C 0.3585(4) 0.2801(4) 0.2019(3)
H1_3 H 0.449423 0.265857 0.230926
C4_3 C 0.2930(4) 0.3619(4) 0.2429(3)
C5_3 C 0.3656(4) 0.4207(5) 0.3363(3)
C6_3 C 0.1574(4) 0.3844(4) 0.1981(3)
H2_3 H 0.114141 0.442996 0.222808
C7_3 C 0.0863(4) 0.3206(4) 0.1173(3)
C8_3 C 0.1539(4) 0.2380(4) 0.0774(3)
H3_3 H 0.107012 0.195140 0.022845
O6_2 O 0.5238(3) 0.8740(3) 0.1156(2)
C9_3 C 0.9373(4) 0.3362(4) 0.0746(3)
C10_3 C 0.8777(5) 0.4492(4) 0.0609(4)
H4_2 H 0.927895 0.520196 0.076077
C11_3 C 0.7395(5) 0.4519(5) 0.0234(4)
C12_3 C 0.6651(5) 0.3480(5) 0.0021(4)
C13_3 C 0.8558(4) 0.2344(4) 0.0521(3)
H6_3 H 0.896522 0.158350 0.061080
F1_2 F 0.6765(3) 0.5602(3) 0.0097(3)
C9_4 C 0.0627(4) 0.8362(4) 0.4254(3)
C10_4 C 0.1223(5) 0.9492(4) 0.4391(4)
C11_4 C 0.2605(5) 0.9519(5) 0.4766(4)
C12_4 C 0.3349(5) 0.8480(5) 0.4979(4)
H5_3 H 0.427482 0.853695 0.524414
C13_4 C 0.1442(4) 0.7344(4) 0.4479(3)
H6_4 H 0.103478 0.658350 0.438920
O1_4 O 0.6915(3) 0.5373(3) 0.4600(2)
C1_4 C 0.6346(4) 0.6362(4) 0.4269(3)
C2_4 C 0.7090(4) 0.7196(4) 0.3811(3)
C3_4 C 0.6415(4) 0.7801(4) 0.2981(3)
H1_4 H 0.550577 0.765857 0.269074
C4_4 C 0.7070(4) 0.8619(4) 0.2571(3)
C5_4 C 0.6344(4) 0.9207(5) 0.1637(3)
C6_4 C 0.8426(4) 0.8844(4) 0.3019(3)
H2_4 H 0.885859 0.942996 0.277192
C7_4 C 0.9137(4) 0.8206(4) 0.3827(3)
C8_4 C 0.8461(4) 0.7380(4) 0.4226(3)
H3_4 H 0.892988 0.695140 0.477155
H4_3 H 0.927895 0.979804 0.576077
F1_3 F 0.6765(3) 0.9398(3) 0.5097(3)
H5_4 H 0.572518 0.353695 0.975586
H4_4 H 0.072105 0.020196 0.423923
F1_4 F 0.3235(3) 0.0602(3) 0.4903(3)
loop_
_geom_bond_atom_site_label_1
_geom_bond_atom_site_label_2
_geom_bond_site_symmetry_1
_geom_bond_site_symmetry_2
C10 C9 1_555 1_555
H4 C10 1_555 1_555
C11 C10 1_555 1_555
C12 C11 1_555 1_555
C13 C9 1_555 1_555
H6 C13 1_555 1_555
F1 C11 1_555 1_555
N1 C12 1_555 1_555
Cu4 N1 1_555 1_555
C13 N1 1_555 1_555
O5 Cu1 1_555 1_555
O7 Cu1 1_555 1_555
N2 Cu1 1_555 1_555
O1 C1 1_555 1_555
O2 C1 1_555 1_555
O3 C5 1_555 1_555
O4 C5 1_555 1_555
C1 C2 1_555 1_555
C2 C3 1_555 1_555
C3 H1 1_555 1_555
C4 C3 1_555 1_555
C5 C4 1_555 1_555
C6 C4 1_555 1_555
H2 C6 1_555 1_555
C7 C6 1_555 1_555
C8 C2 1_555 1_555
H3 C8 1_555 1_555
Cu2 O3 1_555 1_555
Cu5 O4 1_555 1_555
O2 Cu4 1_555 1_555
C7 C8 1_555 1_555
Cu2 Cu5 1_555 1_555
Cu2 O1_2 1_555 1_555
O1_2 C1_2 1_555 1_555
O2_2 C1_2 1_555 1_555
O6 C5_2 1_555 1_555
C1_2 C2_2 1_555 1_555
C2_2 C3_2 1_555 1_555
C3_2 H1_2 1_555 1_555
C4_2 C3_2 1_555 1_555
C5_2 C4_2 1_555 1_555
C6_2 C4_2 1_555 1_555
H2_2 C6_2 1_555 1_555
C7_2 C6_2 1_555 1_555
C8_2 C2_2 1_555 1_555
H3_2 C8_2 1_555 1_555
O5_2 Cu2 1_555 1_555
O7_2 Cu2 1_555 1_555
N2_2 Cu2 1_555 1_555
O2_2 Cu5 1_555 1_555
C7_2 C8_2 1_555 1_555
Cu4 O4_2 1_555 1_555
C10_2 C9_2 1_555 1_555
C11_2 C10_2 1_555 1_555
C12_2 C11_2 1_555 1_555
H5_2 C12_2 1_555 1_555
C13_2 C9_2 1_555 1_555
H6_2 C13_2 1_555 1_555
N1_2 C12_2 1_555 1_555
Cu5 N1_2 1_555 1_555
C13_2 N1_2 1_555 1_555
O1_3 C1_3 1_555 1_555
O5 C1_3 1_555 1_555
O3_2 C5_3 1_555 1_555
O7_2 C5_3 1_555 1_555
C1_3 C2_3 1_555 1_555
C2_3 C3_3 1_555 1_555
C3_3 H1_3 1_555 1_555
C4_3 C3_3 1_555 1_555
C5_3 C4_3 1_555 1_555
C6_3 C4_3 1_555 1_555
H2_3 C6_3 1_555 1_555
C7_3 C6_3 1_555 1_555
C8_3 C2_3 1_555 1_555
H3_3 C8_3 1_555 1_555
Cu5 O3_2 1_555 1_555
C7_3 C8_3 1_555 1_555
C10_3 C9_3 1_555 1_555
H4_2 C10_3 1_555 1_555
C11_3 C10_3 1_555 1_555
C12_3 C11_3 1_555 1_555
C13_3 C9_3 1_555 1_555
H6_3 C13_3 1_555 1_555
F1_2 C11_3 1_555 1_555
N2 C12_3 1_555 1_555
C13_3 N2 1_555 1_555
C10_4 C9_4 1_555 1_555
C11_4 C10_4 1_555 1_555
C12_4 C11_4 1_555 1_555
H5_3 C12_4 1_555 1_555
C13_4 C9_4 1_555 1_555
H6_4 C13_4 1_555 1_555
N2_2 C12_4 1_555 1_555
C13_4 N2_2 1_555 1_555
Cu5 O1_4 1_555 1_555
O1_4 C1_4 1_555 1_555
O5_2 C1_4 1_555 1_555
O6_2 C5_4 1_555 1_555
C1_4 C2_4 1_555 1_555
C2_4 C3_4 1_555 1_555
C3_4 H1_4 1_555 1_555
C4_4 C3_4 1_555 1_555
C5_4 C4_4 1_555 1_555
C6_4 C4_4 1_555 1_555
H2_4 C6_4 1_555 1_555
C7_4 C6_4 1_555 1_555
C8_4 C2_4 1_555 1_555
H3_4 C8_4 1_555 1_555
C7_4 C8_4 1_555 1_555

#END
