
###############################################################################
#
# This file contains modified crystal structure data generated from the
# MOF subset of the Cambridge Structural Database (CSD) v543 
# hosted by the Cambridge Crystallographic Data Centre (CCDC).
#
# This work is licensed under the Creative Commons
# Attribution-NonCommercial-ShareAlike 4.0 International License.
# To view a copy of this license, visit
# http://creativecommons.org/licenses/by-nc-sa/4.0/
# or send a letter to
# Creative Commons, PO Box 1866, Mountain View, CA 94042, USA.
#
# CIF created using the CSD Python API on 29 September 2022
# The structure has been converted into the P1 space group
# The structure has a 3D framework
# The original CSD entry TOYWIQ is in the monoclinic crystal system
# The framework has been calculated to contain at least 10.0% void space
# The void calculation uses a probe of radius 1.32A, grid spacing 0.4
#
###############################################################################

data_TOYWIQ
_chemical_formula_moiety         '(C52 H24 F4 N4 O14)n'
_symmetry_cell_setting           triclinic
_symmetry_space_group_name_H-M   'P 1'
_symmetry_Int_Tables_number      1
_space_group_name_Hall           'P 1'
loop_
_symmetry_equiv_pos_site_id
_symmetry_equiv_pos_as_xyz
1 x,y,z
_cell_length_a                   10.4890(3)
_cell_length_b                   10.4486(4)
_cell_length_c                   15.1078(7)
_cell_angle_alpha                90
_cell_angle_beta                 106.787(4)
_cell_angle_gamma                90
_cell_volume                     1585.19
loop_
_atom_site_label
_atom_site_type_symbol
_atom_site_fract_x
_atom_site_fract_y
_atom_site_fract_z
O1 O 0.0239(4) 0.3593(5) 0.1122(3)
O2 O 0.1833(4) 0.5072(5) 0.1299(3)
O3 O 0.1930(4) 0.0238(5) 0.4537(3)
O4 O 0.0306(4) 0.1706(5) 0.4274(3)
N1 N 0.7786(4) 0.2553(5) 0.4657(4)
F1 F 0.8030(5) 0.5936(5) 0.4470(6)
C1 C 0.1401(5) 0.1282(7) 0.4219(4)
C2 C 0.1317(6) 0.4110(6) 0.1547(4)
C3 C 0.3500(5) 0.2321(6) 0.4077(5)
H1 H 0.398752 0.188593 0.460245
C4 C 0.2059(5) 0.3526(6) 0.2448(4)
C5 C 0.2118(5) 0.2125(7) 0.3721(5)
C6 C 0.5592(5) 0.3411(6) 0.4021(5)
C7 C 0.1424(5) 0.2719(7) 0.2908(5)
H2 H 0.051456 0.257287 0.266614
C8 C 0.6470(5) 0.2402(6) 0.4318(5)
H3 H 0.612504 0.157755 0.427908
C9 C 0.3430(5) 0.3768(6) 0.2824(5)
H4 H 0.386131 0.432664 0.252663
C10 C 0.4130(5) 0.3176(6) 0.3631(5)
C11 C 0.6115(6) 0.4634(7) 0.4065(6)
H5 H 0.556769 0.533871 0.386167
C12 C 0.8289(6) 0.3736(7) 0.4703(6)
H6 H 0.920494 0.385329 0.492978
C13 C 0.7484(6) 0.4773(7) 0.4424(7)
Cu4 Cu 0.90838(7) 0.08987(7) 0.48875(5)
Cu5 Cu 0.09162(7) 0.58987(7) 0.01125(5)
Cu1 Cu 0.09162(7) 0.91013(7) 0.51125(5)
O6 O 0.1833(4) 0.9928(5) 0.6299(3)
N2 N 0.2214(4) 0.7447(5) 0.5343(4)
Cu2 Cu 0.90838(7) 0.41013(7) 0.98875(5)
O5 O 0.9761(4) 0.8593(5) 0.3878(3)
O7 O 0.9694(4) 0.8294(5) 0.5726(3)
O7_2 O 0.0306(4) 0.3294(5) 0.9274(3)
O2_2 O 0.8167(4) 0.0072(5) 0.3701(3)
F1_2 F 0.1970(5) 0.0936(5) 0.0530(6)
H5_2 H 0.443231 0.033871 0.113833
O3_2 O 0.8070(4) 0.5238(5) 0.0463(3)
O4_2 O 0.9694(4) 0.6706(5) 0.0726(3)
N1_2 N 0.2214(4) 0.7553(5) 0.0343(4)
C1_2 C 0.8599(5) 0.6282(7) 0.0781(4)
C2_2 C 0.8683(6) 0.9110(6) 0.3453(4)
C3_2 C 0.6500(5) 0.7321(6) 0.0923(5)
H1_2 H 0.601248 0.688593 0.039755
C4_2 C 0.7941(5) 0.8526(6) 0.2552(4)
C5_2 C 0.7882(5) 0.7125(7) 0.1279(5)
C6_2 C 0.4408(5) 0.8411(6) 0.0979(5)
C7_2 C 0.8576(5) 0.7719(7) 0.2092(5)
H2_2 H 0.948544 0.757287 0.233386
C8_2 C 0.3530(5) 0.7402(6) 0.0682(5)
H3_2 H 0.387496 0.657755 0.072092
C9_2 C 0.6570(5) 0.8768(6) 0.2176(5)
H4_2 H 0.613869 0.932664 0.247337
C10_2 C 0.5870(5) 0.8176(6) 0.1369(5)
C11_2 C 0.3885(6) 0.9634(7) 0.0935(6)
C12_2 C 0.1711(6) 0.8736(7) 0.0297(6)
H6_2 H 0.079506 0.885329 0.007022
C13_2 C 0.2516(6) 0.9773(7) 0.0576(7)
O6_2 O 0.8167(4) 0.4928(5) 0.8701(3)
N2_2 N 0.7786(4) 0.2447(5) 0.9657(4)
O5_2 O 0.0239(4) 0.1407(5) 0.6122(3)
O1_2 O 0.9761(4) 0.6407(5) 0.8878(3)
O3_3 O 0.8070(4) 0.9762(5) 0.5463(3)
F1_3 F 0.1970(5) 0.4064(5) 0.5530(6)
C1_3 C 0.8599(5) 0.8718(7) 0.5781(4)
C2_3 C 0.8683(6) 0.5890(6) 0.8453(4)
C3_3 C 0.6500(5) 0.7679(6) 0.5923(5)
H1_3 H 0.601248 0.811407 0.539755
C4_3 C 0.7941(5) 0.6474(6) 0.7552(4)
C5_3 C 0.7882(5) 0.7875(7) 0.6279(5)
C6_3 C 0.4408(5) 0.6589(6) 0.5979(5)
C7_3 C 0.8576(5) 0.7281(7) 0.7092(5)
H2_3 H 0.948544 0.742713 0.733386
C8_3 C 0.3530(5) 0.7598(6) 0.5682(5)
H3_3 H 0.387496 0.842245 0.572092
C9_3 C 0.6570(5) 0.6232(6) 0.7176(5)
H4_3 H 0.613869 0.567336 0.747337
C10_3 C 0.5870(5) 0.6824(6) 0.6369(5)
C11_3 C 0.3885(6) 0.5366(7) 0.5935(6)
H5_3 H 0.443231 0.466129 0.613833
C12_3 C 0.1711(6) 0.6264(7) 0.5297(6)
H6_3 H 0.079506 0.614671 0.507022
C13_3 C 0.2516(6) 0.5227(7) 0.5576(7)
O3_4 O 0.1930(4) 0.4762(5) 0.9537(3)
C1_4 C 0.1401(5) 0.3718(7) 0.9219(4)
C2_4 C 0.1317(6) 0.0890(6) 0.6547(4)
C3_4 C 0.3500(5) 0.2679(6) 0.9077(5)
H1_4 H 0.398752 0.311407 0.960245
C4_4 C 0.2059(5) 0.1474(6) 0.7448(4)
C5_4 C 0.2118(5) 0.2875(7) 0.8721(5)
C6_4 C 0.5592(5) 0.1589(6) 0.9021(5)
C7_4 C 0.1424(5) 0.2281(7) 0.7908(5)
H2_4 H 0.051456 0.242713 0.766614
C8_4 C 0.6470(5) 0.2598(6) 0.9318(5)
H3_4 H 0.612504 0.342245 0.927908
C9_4 C 0.3430(5) 0.1232(6) 0.7824(5)
H4_4 H 0.386131 0.067336 0.752663
C10_4 C 0.4130(5) 0.1824(6) 0.8631(5)
C11_4 C 0.6115(6) 0.0366(7) 0.9065(6)
C12_4 C 0.8289(6) 0.1264(7) 0.9703(6)
H6_4 H 0.920494 0.114671 0.992978
C13_4 C 0.7484(6) 0.0227(7) 0.9424(7)
F1_4 F 0.8030(5) 0.9064(5) 0.9470(6)
H5_4 H 0.556769 0.966129 0.886167
loop_
_geom_bond_atom_site_label_1
_geom_bond_atom_site_label_2
_geom_bond_site_symmetry_1
_geom_bond_site_symmetry_2
O1 C2 1_555 1_555
O2 C2 1_555 1_555
O3 C1 1_555 1_555
O4 C1 1_555 1_555
N1 C8 1_555 1_555
F1 C13 1_555 1_555
C1 C5 1_555 1_555
C2 C4 1_555 1_555
C3 H1 1_555 1_555
C4 C7 1_555 1_555
C5 C3 1_555 1_555
C6 C8 1_555 1_555
C7 C5 1_555 1_555
H2 C7 1_555 1_555
C8 H3 1_555 1_555
C9 C4 1_555 1_555
H4 C9 1_555 1_555
C10 C3 1_555 1_555
C11 C6 1_555 1_555
H5 C11 1_555 1_555
C12 N1 1_555 1_555
H6 C12 1_555 1_555
C13 C11 1_555 1_555
Cu4 N1 1_555 1_555
Cu5 O2 1_555 1_555
C6 C10 1_555 1_555
C9 C10 1_555 1_555
C12 C13 1_555 1_555
O6 Cu1 1_555 1_555
N2 Cu1 1_555 1_555
Cu4 O2_2 1_555 1_555
O5 C2_2 1_555 1_555
O3_2 C1_2 1_555 1_555
O4_2 C1_2 1_555 1_555
N1_2 C8_2 1_555 1_555
C1_2 C5_2 1_555 1_555
C2_2 C4_2 1_555 1_555
C3_2 H1_2 1_555 1_555
C4_2 C7_2 1_555 1_555
C5_2 C3_2 1_555 1_555
C6_2 C8_2 1_555 1_555
C7_2 C5_2 1_555 1_555
H2_2 C7_2 1_555 1_555
C8_2 H3_2 1_555 1_555
C9_2 C4_2 1_555 1_555
H4_2 C9_2 1_555 1_555
C10_2 C3_2 1_555 1_555
C11_2 C6_2 1_555 1_555
C12_2 N1_2 1_555 1_555
H6_2 C12_2 1_555 1_555
C13_2 C11_2 1_555 1_555
Cu5 N1_2 1_555 1_555
C6_2 C10_2 1_555 1_555
C9_2 C10_2 1_555 1_555
C12_2 C13_2 1_555 1_555
O6_2 Cu2 1_555 1_555
N2_2 Cu2 1_555 1_555
O1_2 C2_3 1_555 1_555
O6_2 C2_3 1_555 1_555
O3_3 C1_3 1_555 1_555
O7 C1_3 1_555 1_555
N2 C8_3 1_555 1_555
F1_3 C13_3 1_555 1_555
C1_3 C5_3 1_555 1_555
C2_3 C4_3 1_555 1_555
C3_3 H1_3 1_555 1_555
C4_3 C7_3 1_555 1_555
C5_3 C3_3 1_555 1_555
C6_3 C8_3 1_555 1_555
C7_3 C5_3 1_555 1_555
H2_3 C7_3 1_555 1_555
C8_3 H3_3 1_555 1_555
C9_3 C4_3 1_555 1_555
H4_3 C9_3 1_555 1_555
C10_3 C3_3 1_555 1_555
C11_3 C6_3 1_555 1_555
H5_3 C11_3 1_555 1_555
C12_3 N2 1_555 1_555
H6_3 C12_3 1_555 1_555
C13_3 C11_3 1_555 1_555
C6_3 C10_3 1_555 1_555
C9_3 C10_3 1_555 1_555
C12_3 C13_3 1_555 1_555
O5_2 C2_4 1_555 1_555
O3_4 C1_4 1_555 1_555
O7_2 C1_4 1_555 1_555
N2_2 C8_4 1_555 1_555
C1_4 C5_4 1_555 1_555
C2_4 C4_4 1_555 1_555
C3_4 H1_4 1_555 1_555
C4_4 C7_4 1_555 1_555
C5_4 C3_4 1_555 1_555
C6_4 C8_4 1_555 1_555
C7_4 C5_4 1_555 1_555
H2_4 C7_4 1_555 1_555
C8_4 H3_4 1_555 1_555
C9_4 C4_4 1_555 1_555
H4_4 C9_4 1_555 1_555
C10_4 C3_4 1_555 1_555
C11_4 C6_4 1_555 1_555
C12_4 N2_2 1_555 1_555
H6_4 C12_4 1_555 1_555
C13_4 C11_4 1_555 1_555
C6_4 C10_4 1_555 1_555
C9_4 C10_4 1_555 1_555
C12_4 C13_4 1_555 1_555

#END
