
###############################################################################
#
# This file contains modified crystal structure data generated from the
# MOF subset of the Cambridge Structural Database (CSD) v543 
# hosted by the Cambridge Crystallographic Data Centre (CCDC).
#
# This work is licensed under the Creative Commons
# Attribution-NonCommercial-ShareAlike 4.0 International License.
# To view a copy of this license, visit
# http://creativecommons.org/licenses/by-nc-sa/4.0/
# or send a letter to
# Creative Commons, PO Box 1866, Mountain View, CA 94042, USA.
#
# CIF created using the CSD Python API on 29 September 2022
# The structure has been converted into the P1 space group
# The structure has a 3D framework
# The original CSD entry TOYWUC is in the monoclinic crystal system
# The framework has been calculated to contain at least 10.0% void space
# The void calculation uses a probe of radius 1.32A, grid spacing 0.4
#
###############################################################################

data_TOYWUC
_chemical_formula_moiety         '(C52 H24 F4 N4 O14)n'
_symmetry_cell_setting           triclinic
_symmetry_space_group_name_H-M   'P 1'
_symmetry_Int_Tables_number      1
_space_group_name_Hall           'P 1'
loop_
_symmetry_equiv_pos_site_id
_symmetry_equiv_pos_as_xyz
1 x,y,z
_cell_length_a                   10.5570(8)
_cell_length_b                   11.4035(9)
_cell_length_c                   14.3239(12)
_cell_angle_alpha                90
_cell_angle_beta                 108.725(9)
_cell_angle_gamma                90
_cell_volume                     1633.14
loop_
_atom_site_label
_atom_site_type_symbol
_atom_site_fract_x
_atom_site_fract_y
_atom_site_fract_z
Cu5 Cu 0.09600(6) 0.42173(6) 0.01250(5)
Cu1 Cu 0.09600(6) 0.07827(6) 0.51250(5)
O7 O 0.1857(3) 0.0105(3) 0.6435(2)
N2 N 0.2197(4) 0.2322(4) 0.5233(3)
O5 O 0.1942(3) 0.9628(3) 0.4601(3)
O1 O 0.9748(3) 0.1662(3) 0.5664(3)
O2 O 0.8058(3) 0.0372(3) 0.5399(3)
F1 F 0.1733(3) 0.5423(3) 0.5072(3)
O3 O 0.9821(3) 0.3816(3) 0.8773(3)
O4 O 0.8143(3) 0.5105(3) 0.8565(2)
C1 C 0.8617(4) 0.1346(4) 0.5687(4)
C2 C 0.7893(4) 0.2198(4) 0.6126(4)
C3 C 0.7946(5) 0.3637(4) 0.7364(4)
C4 C 0.8602(4) 0.2861(5) 0.6933(4)
H1 H 0.952702 0.278585 0.718897
C5 C 0.6500(4) 0.2309(4) 0.5744(4)
H2 H 0.601726 0.184027 0.521928
C6 C 0.6567(5) 0.3786(5) 0.6968(4)
H3 H 0.613028 0.432409 0.724610
C7 C 0.5837(4) 0.3116(5) 0.6144(4)
C8 C 0.8693(5) 0.4245(4) 0.8299(4)
C9 C 0.4360(4) 0.3248(5) 0.5746(4)
C10 C 0.3745(5) 0.4341(5) 0.5581(4)
H4 H 0.424948 0.502626 0.569750
C11 C 0.3530(4) 0.2262(4) 0.5554(4)
H5 H 0.392755 0.152479 0.565468
C12 C 0.2357(5) 0.4381(5) 0.5239(5)
C13 C 0.1616(5) 0.3373(5) 0.5064(4)
H6 H 0.068830 0.342148 0.482185
Cu3 Cu 0.90400(6) 0.57827(6) 0.98750(5)
O6 O 0.9821(3) 0.1184(3) 0.3773(3)
Cu4 Cu 0.90400(6) 0.92173(6) 0.48750(5)
F1_2 F 0.8267(3) 0.0423(3) 0.9928(3)
H4_2 H 0.575052 0.002626 0.930250
H6_2 H 0.931170 0.842148 0.017815
O6_2 O 0.0179(3) 0.6184(3) 0.1227(3)
O1_2 O 0.0252(3) 0.6662(3) 0.9336(3)
O2_2 O 0.1942(3) 0.5372(3) 0.9601(3)
O3_2 O 0.0179(3) 0.8816(3) 0.6227(3)
N1 N 0.7803(4) 0.7322(4) 0.9767(3)
C1_2 C 0.1383(4) 0.6346(4) 0.9313(4)
C2_2 C 0.2107(4) 0.7198(4) 0.8874(4)
C3_2 C 0.2054(5) 0.8637(4) 0.7636(4)
C4_2 C 0.1398(4) 0.7861(5) 0.8067(4)
H1_2 H 0.047298 0.778585 0.781103
C5_2 C 0.3500(4) 0.7309(4) 0.9256(4)
H2_2 H 0.398274 0.684027 0.978072
C6_2 C 0.3433(5) 0.8786(5) 0.8032(4)
H3_2 H 0.386972 0.932409 0.775390
C7_2 C 0.4163(4) 0.8116(5) 0.8856(4)
C8_2 C 0.1307(5) 0.9245(4) 0.6701(4)
C9_2 C 0.5640(4) 0.8248(5) 0.9254(4)
C10_2 C 0.6255(5) 0.9341(5) 0.9419(4)
C11_2 C 0.6470(4) 0.7262(4) 0.9446(4)
H5_2 H 0.607245 0.652479 0.934532
C12_2 C 0.7643(5) 0.9381(5) 0.9761(5)
C13_2 C 0.8384(5) 0.8373(5) 0.9936(4)
O5_2 O 0.8058(3) 0.4628(3) 0.0399(3)
O1_3 O 0.0252(3) 0.8338(3) 0.4336(3)
F1_3 F 0.8267(3) 0.4577(3) 0.4928(3)
O4_2 O 0.1857(3) 0.4895(3) 0.1435(2)
N1_2 N 0.7803(4) 0.7678(4) 0.4767(3)
C1_3 C 0.1383(4) 0.8654(4) 0.4313(4)
C2_3 C 0.2107(4) 0.7802(4) 0.3874(4)
C3_3 C 0.2054(5) 0.6363(4) 0.2636(4)
C4_3 C 0.1398(4) 0.7139(5) 0.3067(4)
H1_3 H 0.047298 0.721415 0.281103
C5_3 C 0.3500(4) 0.7691(4) 0.4256(4)
H2_3 H 0.398274 0.815973 0.478072
C6_3 C 0.3433(5) 0.6214(5) 0.3032(4)
H3_3 H 0.386972 0.567591 0.275390
C7_3 C 0.4163(4) 0.6884(5) 0.3856(4)
C8_3 C 0.1307(5) 0.5755(4) 0.1701(4)
C9_3 C 0.5640(4) 0.6752(5) 0.4254(4)
C10_3 C 0.6255(5) 0.5659(5) 0.4419(4)
H4_3 H 0.575052 0.497374 0.430250
C11_3 C 0.6470(4) 0.7738(4) 0.4446(4)
H5_3 H 0.607245 0.847521 0.434532
C12_3 C 0.7643(5) 0.5619(5) 0.4761(5)
C13_3 C 0.8384(5) 0.6627(5) 0.4936(4)
H6_3 H 0.931170 0.657852 0.517815
O7_2 O 0.8143(3) 0.9895(3) 0.3565(2)
N2_2 N 0.2197(4) 0.2678(4) 0.0233(3)
O1_4 O 0.9748(3) 0.3338(3) 0.0664(3)
C1_4 C 0.8617(4) 0.3654(4) 0.0687(4)
C2_4 C 0.7893(4) 0.2802(4) 0.1126(4)
C3_4 C 0.7946(5) 0.1363(4) 0.2364(4)
C4_4 C 0.8602(4) 0.2139(5) 0.1933(4)
H1_4 H 0.952702 0.221415 0.218897
C5_4 C 0.6500(4) 0.2691(4) 0.0744(4)
H2_4 H 0.601726 0.315973 0.021928
C6_4 C 0.6567(5) 0.1214(5) 0.1968(4)
H3_4 H 0.613028 0.067591 0.224610
C7_4 C 0.5837(4) 0.1884(5) 0.1144(4)
C8_4 C 0.8693(5) 0.0755(4) 0.3299(4)
C9_4 C 0.4360(4) 0.1752(5) 0.0746(4)
C10_4 C 0.3745(5) 0.0659(5) 0.0581(4)
C11_4 C 0.3530(4) 0.2738(4) 0.0554(4)
H5_4 H 0.392755 0.347521 0.065468
C12_4 C 0.2357(5) 0.0619(5) 0.0239(5)
C13_4 C 0.1616(5) 0.1627(5) 0.0064(4)
H6_4 H 0.068830 0.157852 0.982185
F1_4 F 0.1733(3) 0.9577(3) 0.0072(3)
H4_4 H 0.424948 0.997374 0.069750
loop_
_geom_bond_atom_site_label_1
_geom_bond_atom_site_label_2
_geom_bond_site_symmetry_1
_geom_bond_site_symmetry_2
O7 Cu1 1_555 1_555
N2 Cu1 1_555 1_555
O1 C1 1_555 1_555
O2 C1 1_555 1_555
F1 C12 1_555 1_555
O3 C8 1_555 1_555
O4 C8 1_555 1_555
N2 C11 1_555 1_555
C1 C2 1_555 1_555
C2 C4 1_555 1_555
C3 C4 1_555 1_555
C4 H1 1_555 1_555
C5 C2 1_555 1_555
H2 C5 1_555 1_555
C6 C3 1_555 1_555
H3 C6 1_555 1_555
C7 C5 1_555 1_555
C8 C3 1_555 1_555
C9 C7 1_555 1_555
C10 C9 1_555 1_555
H4 C10 1_555 1_555
C11 C9 1_555 1_555
H5 C11 1_555 1_555
C12 C10 1_555 1_555
C13 N2 1_555 1_555
H6 C13 1_555 1_555
Cu3 O4 1_555 1_555
C6 C7 1_555 1_555
C12 C13 1_555 1_555
O1_2 C1_2 1_555 1_555
O2_2 C1_2 1_555 1_555
O3_2 C8_2 1_555 1_555
N1 C11_2 1_555 1_555
C1_2 C2_2 1_555 1_555
C2_2 C4_2 1_555 1_555
C3_2 C4_2 1_555 1_555
C4_2 H1_2 1_555 1_555
C5_2 C2_2 1_555 1_555
H2_2 C5_2 1_555 1_555
C6_2 C3_2 1_555 1_555
H3_2 C6_2 1_555 1_555
C7_2 C5_2 1_555 1_555
C8_2 C3_2 1_555 1_555
C9_2 C7_2 1_555 1_555
C10_2 C9_2 1_555 1_555
C11_2 C9_2 1_555 1_555
H5_2 C11_2 1_555 1_555
C12_2 C10_2 1_555 1_555
C13_2 N1 1_555 1_555
Cu3 N1 1_555 1_555
C6_2 C7_2 1_555 1_555
C12_2 C13_2 1_555 1_555
O1_3 C1_3 1_555 1_555
O5 C1_3 1_555 1_555
F1_3 C12_3 1_555 1_555
O6_2 C8_3 1_555 1_555
O4_2 C8_3 1_555 1_555
N1_2 C11_3 1_555 1_555
C1_3 C2_3 1_555 1_555
C2_3 C4_3 1_555 1_555
C3_3 C4_3 1_555 1_555
C4_3 H1_3 1_555 1_555
C5_3 C2_3 1_555 1_555
H2_3 C5_3 1_555 1_555
C6_3 C3_3 1_555 1_555
H3_3 C6_3 1_555 1_555
C7_3 C5_3 1_555 1_555
C8_3 C3_3 1_555 1_555
C9_3 C7_3 1_555 1_555
C10_3 C9_3 1_555 1_555
H4_3 C10_3 1_555 1_555
C11_3 C9_3 1_555 1_555
H5_3 C11_3 1_555 1_555
C12_3 C10_3 1_555 1_555
C13_3 N1_2 1_555 1_555
H6_3 C13_3 1_555 1_555
Cu4 N1_2 1_555 1_555
Cu5 O4_2 1_555 1_555
C6_3 C7_3 1_555 1_555
C12_3 C13_3 1_555 1_555
O7_2 Cu4 1_555 1_555
N2_2 Cu5 1_555 1_555
O1_4 C1_4 1_555 1_555
O5_2 C1_4 1_555 1_555
O6 C8_4 1_555 1_555
N2_2 C11_4 1_555 1_555
C1_4 C2_4 1_555 1_555
C2_4 C4_4 1_555 1_555
C3_4 C4_4 1_555 1_555
C4_4 H1_4 1_555 1_555
C5_4 C2_4 1_555 1_555
H2_4 C5_4 1_555 1_555
C6_4 C3_4 1_555 1_555
H3_4 C6_4 1_555 1_555
C7_4 C5_4 1_555 1_555
C8_4 C3_4 1_555 1_555
C9_4 C7_4 1_555 1_555
C10_4 C9_4 1_555 1_555
C11_4 C9_4 1_555 1_555
H5_4 C11_4 1_555 1_555
C12_4 C10_4 1_555 1_555
C13_4 N2_2 1_555 1_555
C6_4 C7_4 1_555 1_555
C12_4 C13_4 1_555 1_555

#END
