
###############################################################################
#
# This file contains modified crystal structure data generated from the
# MOF subset of the Cambridge Structural Database (CSD) v543 
# hosted by the Cambridge Crystallographic Data Centre (CCDC).
#
# This work is licensed under the Creative Commons
# Attribution-NonCommercial-ShareAlike 4.0 International License.
# To view a copy of this license, visit
# http://creativecommons.org/licenses/by-nc-sa/4.0/
# or send a letter to
# Creative Commons, PO Box 1866, Mountain View, CA 94042, USA.
#
# CIF created using the CSD Python API on 29 September 2022
# The structure has been converted into the P1 space group
# The structure has a 3D framework
# The original CSD entry TOYXEN is in the monoclinic crystal system
# The framework has been calculated to contain at least 10.0% void space
# The void calculation uses a probe of radius 1.32A, grid spacing 0.4
#
###############################################################################

data_TOYXEN
_chemical_formula_moiety         '(C52 H24 Cu2 F4 N4 O14)n'
_symmetry_cell_setting           triclinic
_symmetry_space_group_name_H-M   'P 1'
_symmetry_Int_Tables_number      1
_space_group_name_Hall           'P 1'
loop_
_symmetry_equiv_pos_site_id
_symmetry_equiv_pos_as_xyz
1 x,y,z
_cell_length_a                   10.5629(2)
_cell_length_b                   11.3332(2)
_cell_length_c                   14.6254(3)
_cell_angle_alpha                90
_cell_angle_beta                 108.254(2)
_cell_angle_gamma                90
_cell_volume                     1662.72
loop_
_atom_site_label
_atom_site_type_symbol
_atom_site_fract_x
_atom_site_fract_y
_atom_site_fract_z
F1 F 0.8155(2) 0.0458(2) 0.4857(2)
O4 O 0.1847(2) 0.0014(2) 0.13789(18)
H6 H 0.566376 0.002800 0.421206
Cu5 Cu 0.09657(5) 0.07887(5) 0.01381(3)
Cu1 Cu 0.09657(5) 0.42113(5) 0.51381(3)
O1 O 0.0216(2) 0.6637(2) 0.42659(18)
O2 O 0.0171(2) 0.8718(2) 0.11586(18)
O3 O 0.1915(2) 0.5345(2) 0.45707(19)
N1 N 0.7749(3) 0.7327(3) 0.4706(2)
C1 C 0.1346(3) 0.6308(3) 0.4247(2)
C2 C 0.1291(3) 0.9149(3) 0.1629(3)
C3 C 0.4112(3) 0.8089(3) 0.3771(3)
C4 C 0.2026(3) 0.8541(3) 0.2553(2)
C5 C 0.3390(3) 0.8728(4) 0.2963(3)
H1 H 0.382048 0.928228 0.269556
C6 C 0.3449(3) 0.7269(3) 0.4174(3)
H2 H 0.392808 0.681521 0.469755
C7 C 0.5582(3) 0.8235(4) 0.4173(3)
C8 C 0.8316(4) 0.8398(4) 0.4859(3)
H3 H 0.923988 0.846319 0.508511
C9 C 0.2069(3) 0.7132(3) 0.3792(3)
C10 C 0.1363(3) 0.7770(3) 0.2979(3)
H4 H 0.044469 0.767819 0.272215
C11 C 0.6420(3) 0.7255(3) 0.4380(3)
H5 H 0.603245 0.650943 0.428502
C12 C 0.7550(4) 0.9394(4) 0.4687(3)
C13 C 0.6175(4) 0.9344(4) 0.4336(3)
Cu4 Cu 0.90343(5) 0.57887(5) 0.48619(3)
O7 O 0.1847(2) 0.4986(2) 0.63789(18)
N2 N 0.2251(3) 0.2673(3) 0.5294(2)
O5 O 0.9784(2) 0.3363(2) 0.57341(18)
O6 O 0.9829(2) 0.3718(2) 0.38414(18)
Cu2 Cu 0.90343(5) 0.92113(5) 0.98619(3)
O5_2 O 0.0216(2) 0.8363(2) 0.92659(18)
O1_2 O 0.9784(2) 0.1637(2) 0.07341(18)
O3_2 O 0.8085(2) 0.0345(2) 0.04293(19)
F1_2 F 0.1845(2) 0.5458(2) 0.0143(2)
O4_2 O 0.8153(2) 0.5014(2) 0.36211(18)
N1_2 N 0.2251(3) 0.2327(3) 0.0294(2)
C1_2 C 0.8654(3) 0.1308(3) 0.0753(2)
C2_2 C 0.8709(3) 0.4149(3) 0.3371(3)
C3_2 C 0.5888(3) 0.3089(3) 0.1229(3)
C4_2 C 0.7974(3) 0.3541(3) 0.2447(2)
C5_2 C 0.6610(3) 0.3728(4) 0.2037(3)
H1_2 H 0.617952 0.428228 0.230444
C6_2 C 0.6551(3) 0.2269(3) 0.0826(3)
H2_2 H 0.607192 0.181521 0.030245
C7_2 C 0.4418(3) 0.3235(4) 0.0827(3)
C8_2 C 0.1684(4) 0.3398(4) 0.0141(3)
C9_2 C 0.7931(3) 0.2132(3) 0.1208(3)
C10_2 C 0.8637(3) 0.2770(3) 0.2021(3)
H4_2 H 0.955531 0.267819 0.227785
C11_2 C 0.3580(3) 0.2255(3) 0.0620(3)
H5_2 H 0.396755 0.150943 0.071498
C12_2 C 0.2450(4) 0.4394(4) 0.0313(3)
C13_2 C 0.3825(4) 0.4344(4) 0.0664(3)
H6_2 H 0.433624 0.502800 0.078794
O7_2 O 0.8153(2) 0.9986(2) 0.86211(18)
N2_2 N 0.7749(3) 0.7673(3) 0.9706(2)
O6_2 O 0.0171(2) 0.6282(2) 0.61586(18)
O2_2 O 0.9829(2) 0.1282(2) 0.88414(18)
O3_3 O 0.8085(2) 0.4655(2) 0.54293(19)
C1_3 C 0.8654(3) 0.3692(3) 0.5753(2)
C2_3 C 0.8709(3) 0.0851(3) 0.8371(3)
C3_3 C 0.5888(3) 0.1911(3) 0.6229(3)
C4_3 C 0.7974(3) 0.1459(3) 0.7447(2)
C5_3 C 0.6610(3) 0.1272(4) 0.7037(3)
H1_3 H 0.617952 0.071772 0.730444
C6_3 C 0.6551(3) 0.2731(3) 0.5826(3)
H2_3 H 0.607192 0.318479 0.530245
C7_3 C 0.4418(3) 0.1765(4) 0.5827(3)
C8_3 C 0.1684(4) 0.1602(4) 0.5141(3)
H3_2 H 0.076012 0.153681 0.491489
C9_3 C 0.7931(3) 0.2868(3) 0.6208(3)
C10_3 C 0.8637(3) 0.2230(3) 0.7021(3)
H4_3 H 0.955531 0.232181 0.727785
C11_3 C 0.3580(3) 0.2745(3) 0.5620(3)
H5_3 H 0.396755 0.349057 0.571498
C12_3 C 0.2450(4) 0.0606(4) 0.5313(3)
C13_3 C 0.3825(4) 0.0656(4) 0.5664(3)
F1_3 F 0.1845(2) 0.9542(2) 0.5143(2)
H6_3 H 0.433624 0.997200 0.578794
O3_4 O 0.1915(2) 0.9655(2) 0.95707(19)
F1_4 F 0.8155(2) 0.4542(2) 0.9857(2)
C1_4 C 0.1346(3) 0.8692(3) 0.9247(2)
C2_4 C 0.1291(3) 0.5851(3) 0.6629(3)
C3_4 C 0.4112(3) 0.6911(3) 0.8771(3)
C4_4 C 0.2026(3) 0.6459(3) 0.7553(2)
C5_4 C 0.3390(3) 0.6272(4) 0.7963(3)
H1_4 H 0.382048 0.571772 0.769556
C6_4 C 0.3449(3) 0.7731(3) 0.9174(3)
H2_4 H 0.392808 0.818479 0.969755
C7_4 C 0.5582(3) 0.6765(4) 0.9173(3)
C8_4 C 0.8316(4) 0.6602(4) 0.9859(3)
C9_4 C 0.2069(3) 0.7868(3) 0.8792(3)
C10_4 C 0.1363(3) 0.7230(3) 0.7979(3)
H4_4 H 0.044469 0.732181 0.772215
C11_4 C 0.6420(3) 0.7745(3) 0.9380(3)
H5_4 H 0.603245 0.849057 0.928502
C12_4 C 0.7550(4) 0.5606(4) 0.9687(3)
C13_4 C 0.6175(4) 0.5656(4) 0.9336(3)
H6_4 H 0.566376 0.497200 0.921206
H3_3 H 0.076012 0.346319 0.991489
H3_4 H 0.923988 0.653681 0.008511
loop_
_geom_bond_atom_site_label_1
_geom_bond_atom_site_label_2
_geom_bond_site_symmetry_1
_geom_bond_site_symmetry_2
Cu5 O4 1_555 1_555
Cu1 O3 1_555 1_555
O1 C1 1_555 1_555
O2 C2 1_555 1_555
O3 C1 1_555 1_555
N1 C8 1_555 1_555
C1 C9 1_555 1_555
C2 C4 1_555 1_555
C3 C5 1_555 1_555
C4 C5 1_555 1_555
C5 H1 1_555 1_555
C6 C3 1_555 1_555
H2 C6 1_555 1_555
C7 C3 1_555 1_555
C8 H3 1_555 1_555
C9 C6 1_555 1_555
C10 C4 1_555 1_555
H4 C10 1_555 1_555
C11 N1 1_555 1_555
H5 C11 1_555 1_555
C12 C8 1_555 1_555
C13 C7 1_555 1_555
Cu4 N1 1_555 1_555
O7 Cu1 1_555 1_555
N2 Cu1 1_555 1_555
C7 C11 1_555 1_555
C9 C10 1_555 1_555
C12 C13 1_555 1_555
O1_2 C1_2 1_555 1_555
O6 C2_2 1_555 1_555
O3_2 C1_2 1_555 1_555
F1_2 C12_2 1_555 1_555
O4_2 C2_2 1_555 1_555
N1_2 C8_2 1_555 1_555
C1_2 C9_2 1_555 1_555
C2_2 C4_2 1_555 1_555
C3_2 C5_2 1_555 1_555
C4_2 C5_2 1_555 1_555
C5_2 H1_2 1_555 1_555
C6_2 C3_2 1_555 1_555
H2_2 C6_2 1_555 1_555
C7_2 C3_2 1_555 1_555
C9_2 C6_2 1_555 1_555
C10_2 C4_2 1_555 1_555
H4_2 C10_2 1_555 1_555
C11_2 N1_2 1_555 1_555
H5_2 C11_2 1_555 1_555
C12_2 C8_2 1_555 1_555
C13_2 C7_2 1_555 1_555
H6_2 C13_2 1_555 1_555
Cu5 N1_2 1_555 1_555
Cu4 O4_2 1_555 1_555
C7_2 C11_2 1_555 1_555
C9_2 C10_2 1_555 1_555
C12_2 C13_2 1_555 1_555
O7_2 Cu2 1_555 1_555
N2_2 Cu2 1_555 1_555
Cu4 O3_3 1_555 1_555
O5 C1_3 1_555 1_555
O2_2 C2_3 1_555 1_555
O3_3 C1_3 1_555 1_555
N2 C8_3 1_555 1_555
C1_3 C9_3 1_555 1_555
C2_3 C4_3 1_555 1_555
C3_3 C5_3 1_555 1_555
C4_3 C5_3 1_555 1_555
C5_3 H1_3 1_555 1_555
C6_3 C3_3 1_555 1_555
H2_3 C6_3 1_555 1_555
C7_3 C3_3 1_555 1_555
C8_3 H3_2 1_555 1_555
C9_3 C6_3 1_555 1_555
C10_3 C4_3 1_555 1_555
H4_3 C10_3 1_555 1_555
C11_3 N2 1_555 1_555
H5_3 C11_3 1_555 1_555
C12_3 C8_3 1_555 1_555
C13_3 C7_3 1_555 1_555
C7_3 C11_3 1_555 1_555
C9_3 C10_3 1_555 1_555
C12_3 C13_3 1_555 1_555
O5_2 C1_4 1_555 1_555
O6_2 C2_4 1_555 1_555
O3_4 C1_4 1_555 1_555
F1_4 C12_4 1_555 1_555
O7 C2_4 1_555 1_555
N2_2 C8_4 1_555 1_555
C1_4 C9_4 1_555 1_555
C2_4 C4_4 1_555 1_555
C3_4 C5_4 1_555 1_555
C4_4 C5_4 1_555 1_555
C5_4 H1_4 1_555 1_555
C6_4 C3_4 1_555 1_555
H2_4 C6_4 1_555 1_555
C7_4 C3_4 1_555 1_555
C9_4 C6_4 1_555 1_555
C10_4 C4_4 1_555 1_555
H4_4 C10_4 1_555 1_555
C11_4 N2_2 1_555 1_555
H5_4 C11_4 1_555 1_555
C12_4 C8_4 1_555 1_555
C13_4 C7_4 1_555 1_555
H6_4 C13_4 1_555 1_555
C7_4 C11_4 1_555 1_555
C9_4 C10_4 1_555 1_555
C12_4 C13_4 1_555 1_555

#END
