
###############################################################################
#
# This file contains modified crystal structure data generated from the
# MOF subset of the Cambridge Structural Database (CSD) v543 
# hosted by the Cambridge Crystallographic Data Centre (CCDC).
#
# This work is licensed under the Creative Commons
# Attribution-NonCommercial-ShareAlike 4.0 International License.
# To view a copy of this license, visit
# http://creativecommons.org/licenses/by-nc-sa/4.0/
# or send a letter to
# Creative Commons, PO Box 1866, Mountain View, CA 94042, USA.
#
# CIF created using the CSD Python API on 29 September 2022
# The structure has been converted into the P1 space group
# The structure has a 3D framework
# The original CSD entry TOYXAJ is in the monoclinic crystal system
# The framework has been calculated to contain at least 10.0% void space
# The void calculation uses a probe of radius 1.32A, grid spacing 0.4
#
###############################################################################

data_TOYXAJ
_chemical_formula_moiety         '(C52 H24 Cu4 F4 N4 O16)n'
_symmetry_cell_setting           triclinic
_symmetry_space_group_name_H-M   'P 1'
_symmetry_Int_Tables_number      1
_space_group_name_Hall           'P 1'
loop_
_symmetry_equiv_pos_site_id
_symmetry_equiv_pos_as_xyz
1 x,y,z
_cell_length_a                   10.488(2)
_cell_length_b                   10.412(2)
_cell_length_c                   15.057(3)
_cell_angle_alpha                90
_cell_angle_beta                 107.13(3)
_cell_angle_gamma                90
_cell_volume                     1571.3
loop_
_atom_site_label
_atom_site_type_symbol
_atom_site_fract_x
_atom_site_fract_y
_atom_site_fract_z
C3 C 0.1143(5) 0.4666(6) 0.4108(4)
H1 H 0.060221 0.538085 0.391171
C7 C 0.0602(5) 0.3444(6) 0.4069(4)
F1 F 0.3075(4) 0.5953(3) 0.4496(4)
C9 C 0.1475(5) 0.2418(6) 0.4358(4)
H4 H 0.112092 0.159411 0.432143
C10 C 0.3318(5) 0.3742(6) 0.4736(4)
H5 H 0.423655 0.385350 0.496799
C11 C 0.2511(6) 0.4782(6) 0.4449(5)
N1 N 0.2796(4) 0.2558(5) 0.4687(3)
Cu3 Cu 0.40819(6) 0.08948(6) 0.48936(4)
O1 O 0.5299(4) 0.1737(4) 0.4303(3)
Cu1 Cu 0.59181(6) 0.58948(6) 0.01064(4)
C1 C 0.6315(5) 0.4161(5) 0.1569(4)
C2 C 0.7060(5) 0.3583(6) 0.2489(4)
C4 C 0.9138(5) 0.3215(6) 0.3685(4)
C5 C 0.8494(5) 0.2369(6) 0.4111(4)
H2 H 0.897915 0.192378 0.463816
C6 C 0.8416(5) 0.3819(6) 0.2868(4)
H3 H 0.884385 0.438608 0.257238
C8 C 0.7122(5) 0.2175(6) 0.3760(4)
O2 O 0.5227(4) 0.3631(4) 0.1140(3)
O3 O 0.6839(4) 0.5105(4) 0.1304(3)
O4 O 0.6942(4) 0.0270(4) 0.4553(3)
C12 C 0.6402(5) 0.1322(6) 0.4244(4)
C13 C 0.6416(5) 0.2783(6) 0.2938(4)
H6 H 0.550344 0.264482 0.269371
O5 O 0.4701(4) 0.6737(4) 0.0697(3)
N2 N 0.7204(4) 0.7558(5) 0.0313(3)
Cu4 Cu 0.40819(6) 0.41052(6) 0.98936(4)
O6 O 0.4773(4) 0.6369(4) 0.8860(3)
O7 O 0.6942(4) 0.4730(4) 0.9553(3)
Cu5 Cu 0.59181(6) 0.91052(6) 0.51064(4)
O3_2 O 0.3161(4) 0.0105(4) 0.3696(3)
O6_2 O 0.5227(4) 0.1369(4) 0.6140(3)
C1_2 C 0.3685(5) 0.9161(5) 0.3431(4)
C2_2 C 0.2940(5) 0.8583(6) 0.2511(4)
C4_2 C 0.0862(5) 0.8215(6) 0.1315(4)
C5_2 C 0.1506(5) 0.7369(6) 0.0889(4)
H2_2 H 0.102085 0.692378 0.036184
C6_2 C 0.1584(5) 0.8819(6) 0.2132(4)
H3_2 H 0.115615 0.938608 0.242762
C8_2 C 0.2878(5) 0.7175(6) 0.1240(4)
O2_2 O 0.4773(4) 0.8631(4) 0.3860(3)
O4_2 O 0.3058(4) 0.5270(4) 0.0447(3)
C12_2 C 0.3598(5) 0.6322(6) 0.0756(4)
C13_2 C 0.3584(5) 0.7783(6) 0.2062(4)
H6_2 H 0.449656 0.764482 0.230629
O7_2 O 0.3058(4) 0.9730(4) 0.5447(3)
C3_2 C 0.8857(5) 0.9666(6) 0.0892(4)
C7_2 C 0.9398(5) 0.8444(6) 0.0931(4)
C9_2 C 0.8525(5) 0.7418(6) 0.0642(4)
H4_2 H 0.887908 0.659411 0.067857
C10_2 C 0.6682(5) 0.8742(6) 0.0264(4)
H5_2 H 0.576345 0.885350 0.003201
C11_2 C 0.7489(6) 0.9782(6) 0.0551(5)
O1_2 O 0.4701(4) 0.8263(4) 0.5697(3)
C1_3 C 0.3685(5) 0.5839(5) 0.8431(4)
C2_3 C 0.2940(5) 0.6417(6) 0.7511(4)
C4_3 C 0.0862(5) 0.6785(6) 0.6315(4)
C5_3 C 0.1506(5) 0.7631(6) 0.5889(4)
H2_3 H 0.102085 0.807622 0.536184
C6_3 C 0.1584(5) 0.6181(6) 0.7132(4)
H3_3 H 0.115615 0.561392 0.742762
C8_3 C 0.2878(5) 0.7825(6) 0.6240(4)
O3_3 O 0.3161(4) 0.4895(4) 0.8696(3)
C12_3 C 0.3598(5) 0.8678(6) 0.5756(4)
C13_3 C 0.3584(5) 0.7217(6) 0.7062(4)
H6_3 H 0.449656 0.735518 0.730629
O5_2 O 0.5299(4) 0.3263(4) 0.9303(3)
N2_2 N 0.2796(4) 0.2442(5) 0.9687(3)
C3_3 C 0.8857(5) 0.5334(6) 0.5892(4)
H1_2 H 0.939779 0.461915 0.608829
C7_3 C 0.9398(5) 0.6556(6) 0.5931(4)
F1_2 F 0.6925(4) 0.4047(3) 0.5504(4)
C9_3 C 0.8525(5) 0.7582(6) 0.5642(4)
H4_3 H 0.887908 0.840589 0.567857
C10_3 C 0.6682(5) 0.6258(6) 0.5264(4)
H5_3 H 0.576345 0.614650 0.503201
C11_3 C 0.7489(6) 0.5218(6) 0.5551(5)
N1_2 N 0.7204(4) 0.7442(5) 0.5313(3)
C3_4 C 0.1143(5) 0.0334(6) 0.9108(4)
C7_4 C 0.0602(5) 0.1556(6) 0.9069(4)
C9_4 C 0.1475(5) 0.2582(6) 0.9358(4)
H4_4 H 0.112092 0.340589 0.932143
C10_4 C 0.3318(5) 0.1258(6) 0.9736(4)
H5_4 H 0.423655 0.114650 0.996799
C11_4 C 0.2511(6) 0.0218(6) 0.9449(5)
C1_4 C 0.6315(5) 0.0839(5) 0.6569(4)
C2_4 C 0.7060(5) 0.1417(6) 0.7489(4)
C4_4 C 0.9138(5) 0.1785(6) 0.8685(4)
C5_4 C 0.8494(5) 0.2631(6) 0.9111(4)
H2_4 H 0.897915 0.307622 0.963816
C6_4 C 0.8416(5) 0.1181(6) 0.7868(4)
H3_4 H 0.884385 0.061392 0.757238
C8_4 C 0.7122(5) 0.2825(6) 0.8760(4)
C12_4 C 0.6402(5) 0.3678(6) 0.9244(4)
C13_4 C 0.6416(5) 0.2217(6) 0.7938(4)
H6_4 H 0.550344 0.235518 0.769371
O3_4 O 0.6839(4) 0.9895(4) 0.6304(3)
H1_3 H 0.939779 0.038085 0.108829
F1_3 F 0.6925(4) 0.0953(3) 0.0504(4)
H1_4 H 0.060221 0.961915 0.891171
F1_4 F 0.3075(4) 0.9047(3) 0.9496(4)
loop_
_geom_bond_atom_site_label_1
_geom_bond_atom_site_label_2
_geom_bond_site_symmetry_1
_geom_bond_site_symmetry_2
C3 H1 1_555 1_555
C7 C3 1_555 1_555
F1 C11 1_555 1_555
C9 C7 1_555 1_555
H4 C9 1_555 1_555
C10 H5 1_555 1_555
C11 C3 1_555 1_555
N1 C9 1_555 1_555
Cu3 N1 1_555 1_555
C10 C11 1_555 1_555
C10 N1 1_555 1_555
O1 C12 1_555 1_555
Cu1 O3 1_555 1_555
C1 C2 1_555 1_555
C2 C6 1_555 1_555
C4 C5 1_555 1_555
C5 H2 1_555 1_555
C6 C4 1_555 1_555
H3 C6 1_555 1_555
C8 C5 1_555 1_555
O2 C1 1_555 1_555
O3 C1 1_555 1_555
O4 C12 1_555 1_555
C12 C8 1_555 1_555
C13 C2 1_555 1_555
H6 C13 1_555 1_555
O5 Cu1 1_555 1_555
Cu3 O1 1_555 1_555
N2 Cu1 1_555 1_555
C8 C13 1_555 1_555
Cu3 O3_2 1_555 1_555
O6_2 Cu3 1_555 1_555
O5 C12_2 1_555 1_555
C1_2 C2_2 1_555 1_555
C2_2 C6_2 1_555 1_555
C4_2 C5_2 1_555 1_555
C5_2 H2_2 1_555 1_555
C6_2 C4_2 1_555 1_555
H3_2 C6_2 1_555 1_555
C8_2 C5_2 1_555 1_555
O2_2 C1_2 1_555 1_555
O4_2 C12_2 1_555 1_555
C12_2 C8_2 1_555 1_555
C13_2 C2_2 1_555 1_555
H6_2 C13_2 1_555 1_555
C8_2 C13_2 1_555 1_555
O2_2 Cu5 1_555 1_555
C7_2 C3_2 1_555 1_555
C9_2 C7_2 1_555 1_555
H4_2 C9_2 1_555 1_555
C10_2 H5_2 1_555 1_555
C11_2 C3_2 1_555 1_555
N2 C9_2 1_555 1_555
C10_2 C11_2 1_555 1_555
C10_2 N2 1_555 1_555
O1_2 C12_3 1_555 1_555
Cu4 O3_3 1_555 1_555
C1_3 C2_3 1_555 1_555
C2_3 C6_3 1_555 1_555
C4_3 C5_3 1_555 1_555
C5_3 H2_3 1_555 1_555
C6_3 C4_3 1_555 1_555
H3_3 C6_3 1_555 1_555
C8_3 C5_3 1_555 1_555
O6 C1_3 1_555 1_555
O3_3 C1_3 1_555 1_555
O7_2 C12_3 1_555 1_555
C12_3 C8_3 1_555 1_555
C13_3 C2_3 1_555 1_555
H6_3 C13_3 1_555 1_555
O5_2 Cu4 1_555 1_555
Cu5 O1_2 1_555 1_555
N2_2 Cu4 1_555 1_555
C8_3 C13_3 1_555 1_555
C3_3 H1_2 1_555 1_555
C7_3 C3_3 1_555 1_555
F1_2 C11_3 1_555 1_555
C9_3 C7_3 1_555 1_555
H4_3 C9_3 1_555 1_555
C10_3 H5_3 1_555 1_555
C11_3 C3_3 1_555 1_555
N1_2 C9_3 1_555 1_555
Cu5 N1_2 1_555 1_555
C10_3 C11_3 1_555 1_555
C10_3 N1_2 1_555 1_555
C7_4 C3_4 1_555 1_555
C9_4 C7_4 1_555 1_555
H4_4 C9_4 1_555 1_555
C10_4 H5_4 1_555 1_555
C11_4 C3_4 1_555 1_555
N2_2 C9_4 1_555 1_555
C10_4 C11_4 1_555 1_555
C10_4 N2_2 1_555 1_555
O5_2 C12_4 1_555 1_555
C1_4 C2_4 1_555 1_555
C2_4 C6_4 1_555 1_555
C4_4 C5_4 1_555 1_555
C5_4 H2_4 1_555 1_555
C6_4 C4_4 1_555 1_555
H3_4 C6_4 1_555 1_555
C8_4 C5_4 1_555 1_555
O6_2 C1_4 1_555 1_555
O7 C12_4 1_555 1_555
C12_4 C8_4 1_555 1_555
C13_4 C2_4 1_555 1_555
H6_4 C13_4 1_555 1_555
C8_4 C13_4 1_555 1_555
Cu5 O3_4 1_555 1_555

#END
