
###############################################################################
#
# This file contains modified crystal structure data generated from the
# MOF subset of the Cambridge Structural Database (CSD) v543 
# hosted by the Cambridge Crystallographic Data Centre (CCDC).
#
# This work is licensed under the Creative Commons
# Attribution-NonCommercial-ShareAlike 4.0 International License.
# To view a copy of this license, visit
# http://creativecommons.org/licenses/by-nc-sa/4.0/
# or send a letter to
# Creative Commons, PO Box 1866, Mountain View, CA 94042, USA.
#
# CIF created using the CSD Python API on 29 September 2022
# The structure has been converted into the P1 space group
# The structure has a 3D framework
# The original CSD entry TUBCEA is in the triclinic crystal system
# The framework has been calculated to contain at least 10.0% void space
# The void calculation uses a probe of radius 1.32A, grid spacing 0.4
#
###############################################################################

data_TUBCEA
_chemical_formula_moiety         '(C44 H28 Cd7 N10 O17)n'
_symmetry_cell_setting           triclinic
_symmetry_space_group_name_H-M   'P 1'
_symmetry_Int_Tables_number      1
_space_group_name_Hall           'P 1'
loop_
_symmetry_equiv_pos_site_id
_symmetry_equiv_pos_as_xyz
1 x,y,z
_cell_length_a                   10.102(4)
_cell_length_b                   10.769(5)
_cell_length_c                   16.709(7)
_cell_angle_alpha                108.150(5)
_cell_angle_beta                 106.995(5)
_cell_angle_gamma                110.535(4)
_cell_volume                     1443.49
loop_
_atom_site_label
_atom_site_type_symbol
_atom_site_fract_x
_atom_site_fract_y
_atom_site_fract_z
Cd3 Cd 0.50013(8) 0.03976(8) 0.40275(5)
O5 O 0.3711(7) 0.0332(7) 0.4968(5)
O6 O 0.2254(7) 0.0130(7) 0.3613(5)
C15 C 0.2415(11) 0.0166(10) 0.4387(8)
C16 C 0.1172(10) 0.0076(10) 0.4710(7)
C17 C 0.1537(12) 0.0587(11) 0.5654(8)
H9 H 0.2581 0.1010 0.6097
O9 O 0.6480(8) 0.2845(7) 0.5007(5)
H13 H 0.7224 0.2790 0.5403
H14 H 0.6150 0.3620 0.4977
C26 C 0.0369(11) 0.0485(11) 0.5961(7)
H16 H 0.0616 0.0784 0.6595
N12 N 0.1417(9) 0.1140(9) 0.1909(6)
O21 O 0.4367(7) 0.0734(7) 0.2647(5)
O23 O 0.6490(8) 0.0504(8) 0.3200(5)
H7 H 0.2700 0.0142 0.8128
Cd11 Cd 0.84393(8) 0.09792(7) 0.82085(5)
Cd1 Cd 0.0000 0.5000 0.0000
Cd2 Cd 0.15607(8) 0.90208(7) 0.17915(5)
N1 N 0.1611(9) 0.5870(8) 0.1658(6)
N2 N 0.2330(9) 0.7381(9) 0.2154(6)
N3 N 0.3256(9) 0.7822(8) 0.3034(6)
N4 N 0.3189(9) 0.6627(9) 0.3141(6)
C1 C 0.2175(11) 0.5444(10) 0.2296(7)
C2 C 0.1796(11) 0.3921(11) 0.2141(7)
C3 C 0.1650(11) 0.3475(12) 0.2819(8)
H1 H 0.1680 0.4109 0.3358
C4 C 0.1458(11) 0.2064(11) 0.2684(8)
H2 H 0.1357 0.1760 0.3136
C5 C 0.1519(11) 0.1547(11) 0.1256(8)
H3 H 0.1485 0.0890 0.0724
C6 C 0.1672(10) 0.2892(11) 0.1325(7)
H4 H 0.1694 0.3123 0.0835
O2 O 0.1994(7) 0.8891(7) 0.0526(5)
C7 C 0.2238(10) 0.7961(11) 0.0020(7)
Cd16 Cd 0.49987(8) 0.96024(8) 0.59725(5)
O26 O 0.6289(7) 0.9668(7) 0.5032(5)
Cd1_2 Cd 0.0000 0.5000 1.0000
O1 O 0.2002(7) 0.6725(7) 0.9992(5)
C8 C 0.2861(10) 0.8350(10) 0.9351(7)
C9 C 0.3798(11) 0.7793(11) 0.9089(7)
H5 H 0.4058 0.7191 0.9326
C10 C 0.4349(11) 0.8134(11) 0.8474(8)
H6 H 0.4999 0.7782 0.8311
C11 C 0.3932(10) 0.8991(11) 0.8109(7)
C12 C 0.3000(11) 0.9570(11) 0.8379(7)
C13 C 0.2529(11) 0.9263(11) 0.9042(7)
H8 H 0.1981 0.9700 0.9268
C14 C 0.4392(11) 0.9304(10) 0.7391(7)
O3 O 0.5633(7) 0.9266(7) 0.7353(5)
O4 O 0.3510(8) 0.9496(8) 0.6800(5)
O28 O 0.0790(7) 0.3330(7) 0.9468(5)
Cd1_3 Cd 1.0000 0.5000 0.0000
C18 C 0.9631(11) 0.9515(11) 0.4039(7)
H10 H 0.9384 0.9216 0.3405
O7 O 0.9210(7) 0.6670(7) 0.0532(5)
O8 O 0.9019(7) 0.8022(7) 0.1762(5)
C19 C 0.8404(11) 0.6929(10) 0.0971(7)
C20 C 0.6626(10) 0.5883(10) 0.0470(7)
C21 C 0.5719(11) 0.6108(11) 0.0900(7)
H11 H 0.6206 0.6867 0.1515
O10 O 0.7746(7) 0.9870(7) 0.6387(5)
C23 C 0.7585(11) 0.9834(10) 0.5613(8)
C24 C 0.8828(10) 0.9924(10) 0.5290(7)
C25 C 0.8463(12) 0.9413(11) 0.4346(8)
H15 H 0.7419 0.8990 0.3903
C30 C 0.4061(11) 0.5220(10) 0.0435(7)
H18 H 0.3450 0.5378 0.0736
O19 O 0.7998(7) 0.3275(7) 0.0008(5)
Cd1_4 Cd 1.0000 0.5000 1.0000
C22 C 0.5939(11) 0.4780(10) 0.9565(7)
H12 H 0.6550 0.4622 0.9264
O13 O 0.0981(7) 0.1978(7) 0.8238(5)
C27 C 0.1596(11) 0.3071(10) 0.9029(7)
C28 C 0.3374(10) 0.4117(10) 0.9530(7)
C29 C 0.4281(11) 0.3892(11) 0.9100(7)
H17 H 0.3794 0.3133 0.8485
N11 N 0.8389(9) 0.4130(8) 0.8342(6)
C38 C 0.7139(10) 0.1650(10) 0.0649(7)
C39 C 0.6202(11) 0.2207(11) 0.0911(7)
H23 H 0.5942 0.2809 0.0674
C40 C 0.5651(11) 0.1866(11) 0.1526(8)
H24 H 0.5001 0.2218 0.1689
C41 C 0.6068(10) 0.1009(11) 0.1891(7)
C42 C 0.7000(11) 0.0430(11) 0.1621(7)
C43 C 0.7471(11) 0.0737(11) 0.0958(7)
H26 H 0.8019 0.0300 0.0732
C44 C 0.5608(11) 0.0696(10) 0.2609(7)
N7 N 0.7670(9) 0.2619(9) 0.7846(6)
N8 N 0.6744(9) 0.2178(8) 0.6966(6)
N9 N 0.6811(9) 0.3373(9) 0.6859(6)
C31 C 0.7825(11) 0.4556(10) 0.7704(7)
C32 C 0.8204(11) 0.6079(11) 0.7859(7)
C33 C 0.8350(11) 0.6525(12) 0.7181(8)
H19 H 0.8320 0.5891 0.6642
C34 C 0.8542(11) 0.7936(11) 0.7316(8)
H20 H 0.8643 0.8240 0.6864
N10 N 0.8583(9) 0.8860(9) 0.8091(6)
C35 C 0.8481(11) 0.8453(11) 0.8744(8)
H21 H 0.8515 0.9110 0.9276
C36 C 0.8328(10) 0.7108(11) 0.8675(7)
H22 H 0.8306 0.6877 0.9165
O15 O 0.8006(7) 0.1109(7) 0.9474(5)
C37 C 0.7762(10) 0.2039(11) 0.9980(7)
H25 H 0.7300 0.9858 0.1872
O18 O 0.3520(8) 0.7155(7) 0.4993(5)
H27 H 0.2776 0.7210 0.4597
H28 H 0.3850 0.6380 0.5023
loop_
_geom_bond_atom_site_label_1
_geom_bond_atom_site_label_2
_geom_bond_site_symmetry_1
_geom_bond_site_symmetry_2
O5 Cd3 1_555 1_555
C15 O5 1_555 1_555
C16 C15 1_555 1_555
C17 C16 1_555 1_555
H9 C17 1_555 1_555
O9 Cd3 1_555 1_555
H13 O9 1_555 1_555
H14 O9 1_555 1_555
C26 C17 1_555 1_555
H16 C26 1_555 1_555
O23 Cd3 1_555 1_555
Cd3 O6 1_555 1_555
Cd3 O21 1_555 1_555
O6 C15 1_555 1_555
Cd1 N1 1_555 1_555
Cd2 N2 1_555 1_555
N1 N2 1_555 1_555
N2 N3 1_555 1_555
N3 N4 1_555 1_555
N4 C1 1_555 1_555
C1 N1 1_555 1_555
C2 C1 1_555 1_555
C3 C2 1_555 1_555
H1 C3 1_555 1_555
C4 C3 1_555 1_555
H2 C4 1_555 1_555
N12 C4 1_555 1_555
C5 N12 1_555 1_555
H3 C5 1_555 1_555
C6 C2 1_555 1_555
H4 C6 1_555 1_555
O2 Cd2 1_555 1_555
C5 C6 1_555 1_555
O2 C7 1_555 1_555
Cd16 O26 1_555 1_555
O1 Cd1_2 1_555 1_555
C9 C8 1_555 1_555
H5 C9 1_555 1_555
C10 C9 1_555 1_555
H6 C10 1_555 1_555
C11 C10 1_555 1_555
C12 C11 1_555 1_555
C13 C8 1_555 1_555
H8 C13 1_555 1_555
C14 C11 1_555 1_555
O3 C14 1_555 1_555
O4 C14 1_555 1_555
Cd16 O3 1_555 1_555
O28 Cd1_2 1_555 1_555
C12 C13 1_555 1_555
O4 Cd16 1_555 1_555
H10 C18 1_555 1_555
O7 Cd1_3 1_555 1_555
C19 O7 1_555 1_555
C20 C19 1_555 1_555
C21 C20 1_555 1_555
H11 C21 1_555 1_555
O10 C23 1_555 1_555
C23 C24 1_555 1_555
C24 C25 1_555 1_555
C25 C18 1_555 1_555
H15 C25 1_555 1_555
O26 C23 1_555 1_555
C30 C21 1_555 1_555
H18 C30 1_555 1_555
Cd16 O10 1_555 1_555
O19 Cd1_3 1_555 1_555
O8 C19 1_555 1_555
H12 C22 1_555 1_555
O28 C27 1_555 1_555
O13 C27 1_555 1_555
C27 C28 1_555 1_555
C28 C29 1_555 1_555
C29 C22 1_555 1_555
H17 C29 1_555 1_555
N11 Cd1_4 1_555 1_555
C39 C38 1_555 1_555
H23 C39 1_555 1_555
C40 C39 1_555 1_555
H24 C40 1_555 1_555
C41 C40 1_555 1_555
C42 C41 1_555 1_555
C43 C38 1_555 1_555
H26 C43 1_555 1_555
C44 C41 1_555 1_555
O21 C44 1_555 1_555
O23 C44 1_555 1_555
C42 C43 1_555 1_555
N11 N7 1_555 1_555
N7 Cd11 1_555 1_555
N8 N7 1_555 1_555
N9 N8 1_555 1_555
C31 N11 1_555 1_555
C32 C31 1_555 1_555
C33 C32 1_555 1_555
H19 C33 1_555 1_555
C34 C33 1_555 1_555
H20 C34 1_555 1_555
N10 C34 1_555 1_555
C35 N10 1_555 1_555
H21 C35 1_555 1_555
C36 C32 1_555 1_555
H22 C36 1_555 1_555
O15 Cd11 1_555 1_555
C37 O15 1_555 1_555
N9 C31 1_555 1_555
C35 C36 1_555 1_555
O18 Cd16 1_555 1_555
H27 O18 1_555 1_555
H28 O18 1_555 1_555

#END
