
###############################################################################
#
# This file contains modified crystal structure data generated from the
# MOF subset of the Cambridge Structural Database (CSD) v543 
# hosted by the Cambridge Crystallographic Data Centre (CCDC).
#
# This work is licensed under the Creative Commons
# Attribution-NonCommercial-ShareAlike 4.0 International License.
# To view a copy of this license, visit
# http://creativecommons.org/licenses/by-nc-sa/4.0/
# or send a letter to
# Creative Commons, PO Box 1866, Mountain View, CA 94042, USA.
#
# CIF created using the CSD Python API on 29 September 2022
# The structure has been converted into the P1 space group
# The structure has a 3D framework
# The original CSD entry TUDKAF is in the cubic crystal system
# The framework has been calculated to contain at least 10.0% void space
# The void calculation uses a probe of radius 1.32A, grid spacing 0.4
#
###############################################################################

data_TUDKAF
_chemical_formula_moiety         '(C96 H120 N48 Zn18)n'
_symmetry_cell_setting           triclinic
_symmetry_space_group_name_H-M   'P 1'
_symmetry_Int_Tables_number      1
_space_group_name_Hall           'P 1'
loop_
_symmetry_equiv_pos_site_id
_symmetry_equiv_pos_as_xyz
1 x,y,z
_cell_length_a                   17.093(5)
_cell_length_b                   17.093(5)
_cell_length_c                   17.093(5)
_cell_angle_alpha                90
_cell_angle_beta                 90
_cell_angle_gamma                90
_cell_volume                     4994.07
loop_
_atom_site_label
_atom_site_type_symbol
_atom_site_fract_x
_atom_site_fract_y
_atom_site_fract_z
C1 C 0.3773(4) 0.0088(6) 0.6227(4)
C3 C 0.4088(6) 0.0841(6) 0.5912(6)
Zn1 Zn 0.5000 0.0000 0.7500
H2 H 0.4480 0.0739 0.5520
H3 H 0.3670 0.1137 0.5682
C6 C 0.6339(5) 0.0964(5) 0.6889(5)
C7 C 0.6889(5) 0.0964(5) 0.6339(5)
N3 N 0.5906(3) 0.0292(4) 0.6832(3)
N4 N 0.6832(3) 0.0292(4) 0.5906(3)
N5 N 0.4708(4) 0.0906(3) 0.8168(3)
Zn2 Zn 0.2500 -0.0000 0.5000
Zn3 Zn 0.7500 -0.0000 0.5000
H5 H 0.6261 0.1359 0.7255
H6 H 0.7255 0.1359 0.6261
H8 H 0.4318 0.1137 0.6330
C2 C 0.3661(5) 0.9036(5) 0.6889(5)
N1 N 0.4094(3) 0.9708(4) 0.6832(3)
Zn1_2 Zn 0.5000 1.0000 0.7500
H1 H 0.3739 0.8641 0.7255
C4 C 0.6227(4) 0.9912(6) 0.6227(4)
C5 C 0.3111(5) 0.9036(5) 0.6339(5)
C8 C 0.5912(6) 0.9159(6) 0.5912(6)
N2 N 0.3168(3) 0.9708(4) 0.5906(3)
N6 N 0.5292(4) 0.9094(3) 0.8168(3)
Zn2_2 Zn 0.2500 1.0000 0.5000
Zn3_2 Zn 0.7500 1.0000 0.5000
H4 H 0.2745 0.8641 0.6261
H7 H 0.5520 0.9261 0.5520
H9 H 0.6330 0.8863 0.5682
H10 H 0.5682 0.8863 0.6330
Zn1_3 Zn -0.0000 0.5000 0.2500
C4_2 C 0.1227(4) 0.4912(6) 0.1227(4)
C6_2 C 0.1339(5) 0.5964(5) 0.1889(5)
C7_2 C 0.1889(5) 0.5964(5) 0.1339(5)
C8_2 C 0.0912(6) 0.4159(6) 0.0912(6)
N3_2 N 0.0906(3) 0.5292(4) 0.1832(3)
N4_2 N 0.1832(3) 0.5292(4) 0.0906(3)
N6_2 N 0.0292(4) 0.4094(3) 0.3168(3)
Zn3_3 Zn 0.2500 0.5000 -0.0000
H5_2 H 0.1261 0.6359 0.2255
H6_2 H 0.2255 0.6359 0.1261
H7_2 H 0.0520 0.4261 0.0520
H9_2 H 0.1330 0.3863 0.0682
H10_2 H 0.0682 0.3863 0.1330
Zn3_4 Zn 0.2500 0.5000 1.0000
C1_2 C 0.8773(4) 0.5088(6) 0.1227(4)
C2_2 C 0.8661(5) 0.4036(5) 0.1889(5)
C3_2 C 0.9088(6) 0.5841(6) 0.0912(6)
N1_2 N 0.9094(3) 0.4708(4) 0.1832(3)
Zn1_4 Zn 1.0000 0.5000 0.2500
H1_2 H 0.8739 0.3641 0.2255
H2_2 H 0.9480 0.5739 0.0520
H3_2 H 0.8670 0.6137 0.0682
C5_2 C 0.8111(5) 0.4036(5) 0.1339(5)
N2_2 N 0.8168(3) 0.4708(4) 0.0906(3)
N5_2 N 0.9708(4) 0.5906(3) 0.3168(3)
Zn2_3 Zn 0.7500 0.5000 -0.0000
H4_2 H 0.7745 0.3641 0.1261
H8_2 H 0.9318 0.6137 0.1330
Zn2_4 Zn 0.7500 0.5000 1.0000
C1_3 C 0.0088(6) 0.6227(4) 0.3773(4)
C3_3 C 0.0841(6) 0.5912(6) 0.4088(6)
Zn1_5 Zn 0.0000 0.7500 0.5000
H2_3 H 0.0739 0.5520 0.4480
H3_3 H 0.1137 0.5682 0.3670
C6_3 C 0.0964(5) 0.6889(5) 0.6339(5)
C7_3 C 0.0964(5) 0.6339(5) 0.6889(5)
N3_3 N 0.0292(4) 0.6832(3) 0.5906(3)
N4_3 N 0.0292(4) 0.5906(3) 0.6832(3)
N5_3 N 0.0906(3) 0.8168(3) 0.4708(4)
Zn3_5 Zn 0.0000 0.5000 0.7500
H5_3 H 0.1359 0.7255 0.6261
H6_3 H 0.1359 0.6261 0.7255
H8_3 H 0.1137 0.6330 0.4318
C2_3 C 0.9036(5) 0.6889(5) 0.3661(5)
N1_3 N 0.9708(4) 0.6832(3) 0.4094(3)
Zn1_6 Zn 1.0000 0.7500 0.5000
H1_3 H 0.8641 0.7255 0.3739
C4_3 C 0.9912(6) 0.6227(4) 0.6227(4)
C5_3 C 0.9036(5) 0.6339(5) 0.3111(5)
C8_3 C 0.9159(6) 0.5912(6) 0.5912(6)
N6_3 N 0.9094(3) 0.8168(3) 0.5292(4)
Zn3_6 Zn 1.0000 0.5000 0.7500
H4_3 H 0.8641 0.6261 0.2745
H7_3 H 0.9261 0.5520 0.5520
H9_3 H 0.8863 0.5682 0.6330
H10_3 H 0.8863 0.6330 0.5682
Zn1_7 Zn 0.5000 0.2500 -0.0000
C4_4 C 0.4912(6) 0.1227(4) 0.1227(4)
C6_4 C 0.5964(5) 0.1889(5) 0.1339(5)
C7_4 C 0.5964(5) 0.1339(5) 0.1889(5)
C8_4 C 0.4159(6) 0.0912(6) 0.0912(6)
N3_4 N 0.5292(4) 0.1832(3) 0.0906(3)
N4_4 N 0.5292(4) 0.0906(3) 0.1832(3)
N6_4 N 0.4094(3) 0.3168(3) 0.0292(4)
Zn3_7 Zn 0.5000 -0.0000 0.2500
H5_4 H 0.6359 0.2255 0.1261
H6_4 H 0.6359 0.1261 0.2255
H7_4 H 0.4261 0.0520 0.0520
H9_4 H 0.3863 0.0682 0.1330
H10_4 H 0.3863 0.1330 0.0682
C1_4 C 0.5088(6) 0.1227(4) 0.8773(4)
C2_4 C 0.4036(5) 0.1889(5) 0.8661(5)
C3_4 C 0.5841(6) 0.0912(6) 0.9088(6)
N1_4 N 0.4708(4) 0.1832(3) 0.9094(3)
Zn1_8 Zn 0.5000 0.2500 1.0000
H1_4 H 0.3641 0.2255 0.8739
H2_4 H 0.5739 0.0520 0.9480
H3_4 H 0.6137 0.0682 0.8670
C5_4 C 0.4036(5) 0.1339(5) 0.8111(5)
N5_4 N 0.5906(3) 0.3168(3) 0.9708(4)
H4_4 H 0.3641 0.1261 0.7745
H8_4 H 0.6137 0.1330 0.9318
Zn3_8 Zn 0.5000 1.0000 0.2500
C1_5 C 0.6227(4) 0.3773(4) 0.0088(6)
C3_5 C 0.5912(6) 0.4088(6) 0.0841(6)
H2_5 H 0.5520 0.4480 0.0739
H3_5 H 0.5682 0.3670 0.1137
C6_5 C 0.6889(5) 0.6339(5) 0.0964(5)
C7_5 C 0.6339(5) 0.6889(5) 0.0964(5)
N3_5 N 0.6832(3) 0.5906(3) 0.0292(4)
N4_5 N 0.5906(3) 0.6832(3) 0.0292(4)
Zn3_9 Zn 0.5000 0.7500 -0.0000
H5_5 H 0.7255 0.6261 0.1359
H6_5 H 0.6261 0.7255 0.1359
H8_5 H 0.6330 0.4318 0.1137
C2_5 C 0.6889(5) 0.3661(5) 0.9036(5)
N1_5 N 0.6832(3) 0.4094(3) 0.9708(4)
H1_5 H 0.7255 0.3739 0.8641
C4_5 C 0.6227(4) 0.6227(4) 0.9912(6)
C5_5 C 0.6339(5) 0.3111(5) 0.9036(5)
C8_5 C 0.5912(6) 0.5912(6) 0.9159(6)
N6_5 N 0.8168(3) 0.5292(4) 0.9094(3)
Zn3_10 Zn 0.5000 0.7500 1.0000
H4_5 H 0.6261 0.2745 0.8641
H7_5 H 0.5520 0.5520 0.9261
H9_5 H 0.5682 0.6330 0.8863
H10_5 H 0.6330 0.5682 0.8863
C4_6 C 0.1227(4) 0.1227(4) 0.4912(6)
C6_6 C 0.1889(5) 0.1339(5) 0.5964(5)
C7_6 C 0.1339(5) 0.1889(5) 0.5964(5)
C8_6 C 0.0912(6) 0.0912(6) 0.4159(6)
N3_6 N 0.1832(3) 0.0906(3) 0.5292(4)
N4_6 N 0.0906(3) 0.1832(3) 0.5292(4)
N6_6 N 0.3168(3) 0.0292(4) 0.4094(3)
Zn3_11 Zn -0.0000 0.2500 0.5000
H5_6 H 0.2255 0.1261 0.6359
H6_6 H 0.1261 0.2255 0.6359
H7_6 H 0.0520 0.0520 0.4261
H9_6 H 0.0682 0.1330 0.3863
H10_6 H 0.1330 0.0682 0.3863
C1_6 C 0.1227(4) 0.8773(4) 0.5088(6)
C2_6 C 0.1889(5) 0.8661(5) 0.4036(5)
C3_6 C 0.0912(6) 0.9088(6) 0.5841(6)
N1_6 N 0.1832(3) 0.9094(3) 0.4708(4)
H1_6 H 0.2255 0.8739 0.3641
H2_6 H 0.0520 0.9480 0.5739
H3_6 H 0.0682 0.8670 0.6137
C5_6 C 0.1339(5) 0.8111(5) 0.4036(5)
H4_6 H 0.1261 0.7745 0.3641
H8_6 H 0.1330 0.9318 0.6137
Zn3_12 Zn 1.0000 0.2500 0.5000
C6_7 C 0.0964(5) 0.3661(5) 0.3111(5)
C7_7 C 0.0964(5) 0.3111(5) 0.3661(5)
N4_7 N 0.0292(4) 0.3168(3) 0.4094(3)
H5_7 H 0.1359 0.3739 0.2745
H6_7 H 0.1359 0.2745 0.3739
C4_7 C 0.9912(6) 0.3773(4) 0.3773(4)
C8_7 C 0.9159(6) 0.4088(6) 0.4088(6)
H7_7 H 0.9261 0.4480 0.4480
H9_7 H 0.8863 0.3670 0.4318
H10_7 H 0.8863 0.4318 0.3670
C4_8 C 0.4912(6) 0.8773(4) 0.8773(4)
C6_8 C 0.5964(5) 0.8661(5) 0.8111(5)
C7_8 C 0.5964(5) 0.8111(5) 0.8661(5)
C8_8 C 0.4159(6) 0.9088(6) 0.9088(6)
N4_8 N 0.5292(4) 0.8168(3) 0.9094(3)
H5_8 H 0.6359 0.8739 0.7745
H6_8 H 0.6359 0.7745 0.8739
H7_8 H 0.4261 0.9480 0.9480
H9_8 H 0.3863 0.8670 0.9318
H10_8 H 0.3863 0.9318 0.8670
C4_9 C 0.6227(4) 0.0088(6) 0.3773(4)
C8_9 C 0.5912(6) 0.0841(6) 0.4088(6)
N6_7 N 0.8168(3) 0.0906(3) 0.4708(4)
H7_9 H 0.5520 0.0739 0.4480
H9_9 H 0.5682 0.1137 0.3670
H10_9 H 0.6330 0.1137 0.4318
C6_9 C 0.6889(5) 0.9036(5) 0.3661(5)
C7_9 C 0.6339(5) 0.9036(5) 0.3111(5)
N3_7 N 0.6832(3) 0.9708(4) 0.4094(3)
N4_9 N 0.5906(3) 0.9708(4) 0.3168(3)
N5_5 N 0.8168(3) 0.9094(3) 0.5292(4)
H5_9 H 0.7255 0.8641 0.3739
H6_9 H 0.6261 0.8641 0.2745
N5_6 N 0.3168(3) 0.4094(3) 0.0292(4)
C4_10 C 0.1227(4) 0.5088(6) 0.8773(4)
C6_10 C 0.1889(5) 0.4036(5) 0.8661(5)
C7_10 C 0.1339(5) 0.4036(5) 0.8111(5)
C8_10 C 0.0912(6) 0.5841(6) 0.9088(6)
N3_8 N 0.1832(3) 0.4708(4) 0.9094(3)
N4_10 N 0.0906(3) 0.4708(4) 0.8168(3)
N6_8 N 0.3168(3) 0.5906(3) 0.9708(4)
H5_10 H 0.2255 0.3641 0.8739
H6_10 H 0.1261 0.3641 0.7745
H7_10 H 0.0520 0.5739 0.9480
H9_10 H 0.0682 0.6137 0.8670
H10_10 H 0.1330 0.6137 0.9318
C2_7 C 0.3661(5) 0.3111(5) 0.0964(5)
H1_7 H 0.3739 0.2745 0.1359
C5_7 C 0.3111(5) 0.3661(5) 0.0964(5)
H4_7 H 0.2745 0.3739 0.1359
C1_7 C 0.3773(4) 0.3773(4) 0.9912(6)
C3_7 C 0.4088(6) 0.4088(6) 0.9159(6)
H2_7 H 0.4480 0.4480 0.9261
H3_7 H 0.3670 0.4318 0.8863
H8_7 H 0.4318 0.3670 0.8863
C1_8 C 0.8773(4) 0.8773(4) 0.4912(6)
C2_8 C 0.8661(5) 0.8111(5) 0.5964(5)
C3_8 C 0.9088(6) 0.9088(6) 0.4159(6)
H1_8 H 0.8739 0.7745 0.6359
H2_8 H 0.9480 0.9480 0.4261
H3_8 H 0.8670 0.9318 0.3863
C5_8 C 0.8111(5) 0.8661(5) 0.5964(5)
H4_8 H 0.7745 0.8739 0.6359
H8_8 H 0.9318 0.8670 0.3863
C4_11 C 0.3773(4) 0.6227(4) 0.0088(6)
C8_11 C 0.4088(6) 0.5912(6) 0.0841(6)
H7_11 H 0.4480 0.5520 0.0739
H9_11 H 0.4318 0.6330 0.1137
H10_11 H 0.3670 0.5682 0.1137
C6_11 C 0.3111(5) 0.6339(5) 0.9036(5)
C7_11 C 0.3661(5) 0.6889(5) 0.9036(5)
N4_11 N 0.4094(3) 0.6832(3) 0.9708(4)
H5_11 H 0.2745 0.6261 0.8641
H6_11 H 0.3739 0.7255 0.8641
C4_12 C 0.8773(4) 0.1227(4) 0.5088(6)
C6_12 C 0.8111(5) 0.1339(5) 0.4036(5)
C7_12 C 0.8661(5) 0.1889(5) 0.4036(5)
C8_12 C 0.9088(6) 0.0912(6) 0.5841(6)
N4_12 N 0.9094(3) 0.1832(3) 0.4708(4)
H5_12 H 0.7745 0.1261 0.3641
H6_12 H 0.8739 0.2255 0.3641
H7_12 H 0.9480 0.0520 0.5739
H9_12 H 0.9318 0.1330 0.6137
H10_12 H 0.8670 0.0682 0.6137
C6_13 C 0.3661(5) 0.0964(5) 0.3111(5)
C7_13 C 0.3111(5) 0.0964(5) 0.3661(5)
N3_9 N 0.4094(3) 0.0292(4) 0.3168(3)
H5_13 H 0.3739 0.1359 0.2745
H6_13 H 0.2745 0.1359 0.3739
C4_13 C 0.3773(4) 0.9912(6) 0.3773(4)
C8_13 C 0.4088(6) 0.9159(6) 0.4088(6)
N6_9 N 0.4708(4) 0.9094(3) 0.1832(3)
H7_13 H 0.4480 0.9261 0.4480
H9_13 H 0.3670 0.8863 0.4318
H10_13 H 0.4318 0.8863 0.3670
C4_14 C 0.8773(4) 0.4912(6) 0.8773(4)
C6_14 C 0.8661(5) 0.5964(5) 0.8111(5)
C7_14 C 0.8111(5) 0.5964(5) 0.8661(5)
C8_14 C 0.9088(6) 0.4159(6) 0.9088(6)
N3_10 N 0.9094(3) 0.5292(4) 0.8168(3)
N6_10 N 0.9708(4) 0.4094(3) 0.6832(3)
H5_14 H 0.8739 0.6359 0.7745
H6_14 H 0.7745 0.6359 0.8739
H7_14 H 0.9480 0.4261 0.9480
H9_14 H 0.8670 0.3863 0.9318
H10_14 H 0.9318 0.3863 0.8670
C4_15 C 0.0088(6) 0.3773(4) 0.6227(4)
C8_15 C 0.0841(6) 0.4088(6) 0.5912(6)
H7_15 H 0.0739 0.4480 0.5520
H9_15 H 0.1137 0.4318 0.6330
H10_15 H 0.1137 0.3670 0.5682
C6_15 C 0.9036(5) 0.3111(5) 0.6339(5)
C7_15 C 0.9036(5) 0.3661(5) 0.6889(5)
N3_11 N 0.9708(4) 0.3168(3) 0.5906(3)
H5_15 H 0.8641 0.2745 0.6261
H6_15 H 0.8641 0.3739 0.7255
C4_16 C 0.5088(6) 0.8773(4) 0.1227(4)
C6_16 C 0.4036(5) 0.8111(5) 0.1339(5)
C7_16 C 0.4036(5) 0.8661(5) 0.1889(5)
C8_16 C 0.5841(6) 0.9088(6) 0.0912(6)
N3_12 N 0.4708(4) 0.8168(3) 0.0906(3)
H5_16 H 0.3641 0.7745 0.1261
H6_16 H 0.3641 0.8739 0.2255
H7_16 H 0.5739 0.9480 0.0520
H9_16 H 0.6137 0.9318 0.1330
H10_16 H 0.6137 0.8670 0.0682
loop_
_geom_bond_atom_site_label_1
_geom_bond_atom_site_label_2
_geom_bond_site_symmetry_1
_geom_bond_site_symmetry_2
C1 C3 1_555 1_555
C3 H2 1_555 1_555
H3 C3 1_555 1_555
C6 C7 1_555 1_555
C7 N4 1_555 1_555
N3 Zn1 1_555 1_555
N5 Zn1 1_555 1_555
Zn3 N4 1_555 1_555
H5 C6 1_555 1_555
H6 C7 1_555 1_555
H8 C3 1_555 1_555
C6 N3 1_555 1_555
C2 N1 1_555 1_555
Zn1_2 N1 1_555 1_555
H1 C2 1_555 1_555
C4 C8 1_555 1_555
C5 C2 1_555 1_555
C8 H7 1_555 1_555
N6 Zn1_2 1_555 1_555
Zn2_2 N2 1_555 1_555
H4 C5 1_555 1_555
H9 C8 1_555 1_555
H10 C8 1_555 1_555
C5 N2 1_555 1_555
C4_2 C8_2 1_555 1_555
C6_2 C7_2 1_555 1_555
C7_2 N4_2 1_555 1_555
C8_2 H7_2 1_555 1_555
N3_2 Zn1_3 1_555 1_555
N4_2 C4_2 1_555 1_555
N6_2 Zn1_3 1_555 1_555
Zn3_3 N4_2 1_555 1_555
H5_2 C6_2 1_555 1_555
H6_2 C7_2 1_555 1_555
H9_2 C8_2 1_555 1_555
H10_2 C8_2 1_555 1_555
C4_2 N3_2 1_555 1_555
C6_2 N3_2 1_555 1_555
C1_2 C3_2 1_555 1_555
C2_2 N1_2 1_555 1_555
C3_2 H2_2 1_555 1_555
N1_2 C1_2 1_555 1_555
Zn1_4 N1_2 1_555 1_555
H1_2 C2_2 1_555 1_555
H3_2 C3_2 1_555 1_555
C5_2 C2_2 1_555 1_555
N2_2 C1_2 1_555 1_555
N5_2 Zn1_4 1_555 1_555
Zn2_3 N2_2 1_555 1_555
H4_2 C5_2 1_555 1_555
H8_2 C3_2 1_555 1_555
C5_2 N2_2 1_555 1_555
C1_3 C3_3 1_555 1_555
C3_3 H2_3 1_555 1_555
H3_3 C3_3 1_555 1_555
C6_3 C7_3 1_555 1_555
C7_3 N4_3 1_555 1_555
N3_3 Zn1_5 1_555 1_555
N5_3 Zn1_5 1_555 1_555
Zn3_5 N4_3 1_555 1_555
H5_3 C6_3 1_555 1_555
H6_3 C7_3 1_555 1_555
H8_3 C3_3 1_555 1_555
C6_3 N3_3 1_555 1_555
C2_3 N1_3 1_555 1_555
Zn1_6 N1_3 1_555 1_555
H1_3 C2_3 1_555 1_555
C4_3 C8_3 1_555 1_555
C5_3 C2_3 1_555 1_555
C8_3 H7_3 1_555 1_555
N6_3 Zn1_6 1_555 1_555
H4_3 C5_3 1_555 1_555
H9_3 C8_3 1_555 1_555
H10_3 C8_3 1_555 1_555
C5_3 N5_2 1_555 1_555
C4_4 C8_4 1_555 1_555
C6_4 C7_4 1_555 1_555
C7_4 N4_4 1_555 1_555
C8_4 H7_4 1_555 1_555
N3_4 Zn1_7 1_555 1_555
N4_4 C4_4 1_555 1_555
N6_4 Zn1_7 1_555 1_555
Zn3_7 N4_4 1_555 1_555
H5_4 C6_4 1_555 1_555
H6_4 C7_4 1_555 1_555
H9_4 C8_4 1_555 1_555
H10_4 C8_4 1_555 1_555
C4_4 N3_4 1_555 1_555
C6_4 N3_4 1_555 1_555
C1_4 C3_4 1_555 1_555
C2_4 N1_4 1_555 1_555
C3_4 H2_4 1_555 1_555
N1_4 C1_4 1_555 1_555
Zn1_8 N1_4 1_555 1_555
H1_4 C2_4 1_555 1_555
H3_4 C3_4 1_555 1_555
C5_4 C2_4 1_555 1_555
N5 C1_4 1_555 1_555
N5_4 Zn1_8 1_555 1_555
H4_4 C5_4 1_555 1_555
H8_4 C3_4 1_555 1_555
C5_4 N5 1_555 1_555
C1_5 C3_5 1_555 1_555
C3_5 H2_5 1_555 1_555
H3_5 C3_5 1_555 1_555
C6_5 C7_5 1_555 1_555
C7_5 N4_5 1_555 1_555
N3_5 Zn2_3 1_555 1_555
Zn3_9 N4_5 1_555 1_555
H5_5 C6_5 1_555 1_555
H6_5 C7_5 1_555 1_555
H8_5 C3_5 1_555 1_555
C6_5 N3_5 1_555 1_555
C2_5 N1_5 1_555 1_555
Zn2_4 N1_5 1_555 1_555
H1_5 C2_5 1_555 1_555
C4_5 C8_5 1_555 1_555
C5_5 C2_5 1_555 1_555
C8_5 H7_5 1_555 1_555
N6_5 Zn2_4 1_555 1_555
H4_5 C5_5 1_555 1_555
H9_5 C8_5 1_555 1_555
H10_5 C8_5 1_555 1_555
C5_5 N5_4 1_555 1_555
C4_6 C8_6 1_555 1_555
C6_6 C7_6 1_555 1_555
C7_6 N4_6 1_555 1_555
C8_6 H7_6 1_555 1_555
N3_6 Zn2 1_555 1_555
N4_6 C4_6 1_555 1_555
N6_6 Zn2 1_555 1_555
Zn3_11 N4_6 1_555 1_555
H5_6 C6_6 1_555 1_555
H6_6 C7_6 1_555 1_555
H9_6 C8_6 1_555 1_555
H10_6 C8_6 1_555 1_555
C4_6 N3_6 1_555 1_555
C6_6 N3_6 1_555 1_555
C1_6 C3_6 1_555 1_555
C2_6 N1_6 1_555 1_555
C3_6 H2_6 1_555 1_555
N1_6 C1_6 1_555 1_555
Zn2_2 N1_6 1_555 1_555
H1_6 C2_6 1_555 1_555
H3_6 C3_6 1_555 1_555
C5_6 C2_6 1_555 1_555
N5_3 C1_6 1_555 1_555
H4_6 C5_6 1_555 1_555
H8_6 C3_6 1_555 1_555
C5_6 N5_3 1_555 1_555
C6_7 C7_7 1_555 1_555
C7_7 N4_7 1_555 1_555
Zn3_11 N4_7 1_555 1_555
H5_7 C6_7 1_555 1_555
H6_7 C7_7 1_555 1_555
C6_7 N6_2 1_555 1_555
C4_7 C8_7 1_555 1_555
C8_7 H7_7 1_555 1_555
H9_7 C8_7 1_555 1_555
H10_7 C8_7 1_555 1_555
C4_8 C8_8 1_555 1_555
C6_8 C7_8 1_555 1_555
C7_8 N4_8 1_555 1_555
C8_8 H7_8 1_555 1_555
N4_8 C4_8 1_555 1_555
Zn3_10 N4_8 1_555 1_555
H5_8 C6_8 1_555 1_555
H6_8 C7_8 1_555 1_555
H9_8 C8_8 1_555 1_555
H10_8 C8_8 1_555 1_555
C4_8 N6 1_555 1_555
C6_8 N6 1_555 1_555
C4_9 C8_9 1_555 1_555
C8_9 H7_9 1_555 1_555
N6_7 Zn3 1_555 1_555
H9_9 C8_9 1_555 1_555
H10_9 C8_9 1_555 1_555
C6_9 C7_9 1_555 1_555
C7_9 N4_9 1_555 1_555
N3_7 Zn3_2 1_555 1_555
N5_5 Zn3_2 1_555 1_555
Zn3_8 N4_9 1_555 1_555
H5_9 C6_9 1_555 1_555
H6_9 C7_9 1_555 1_555
C6_9 N3_7 1_555 1_555
N5_6 Zn3_3 1_555 1_555
C4_10 C8_10 1_555 1_555
C6_10 C7_10 1_555 1_555
C7_10 N4_10 1_555 1_555
C8_10 H7_10 1_555 1_555
N3_8 Zn3_4 1_555 1_555
N4_10 C4_10 1_555 1_555
N6_8 Zn3_4 1_555 1_555
Zn3_5 N4_10 1_555 1_555
H5_10 C6_10 1_555 1_555
H6_10 C7_10 1_555 1_555
H9_10 C8_10 1_555 1_555
H10_10 C8_10 1_555 1_555
C4_10 N3_8 1_555 1_555
C6_10 N3_8 1_555 1_555
C2_7 N6_4 1_555 1_555
H1_7 C2_7 1_555 1_555
C5_7 C2_7 1_555 1_555
H4_7 C5_7 1_555 1_555
C5_7 N5_6 1_555 1_555
C1_7 C3_7 1_555 1_555
C3_7 H2_7 1_555 1_555
H3_7 C3_7 1_555 1_555
H8_7 C3_7 1_555 1_555
C1_8 C3_8 1_555 1_555
C2_8 N6_3 1_555 1_555
C3_8 H2_8 1_555 1_555
N6_3 C1_8 1_555 1_555
H1_8 C2_8 1_555 1_555
H3_8 C3_8 1_555 1_555
C5_8 C2_8 1_555 1_555
N5_5 C1_8 1_555 1_555
H4_8 C5_8 1_555 1_555
H8_8 C3_8 1_555 1_555
C5_8 N5_5 1_555 1_555
C4_11 C8_11 1_555 1_555
C8_11 H7_11 1_555 1_555
H9_11 C8_11 1_555 1_555
H10_11 C8_11 1_555 1_555
C6_11 C7_11 1_555 1_555
C7_11 N4_11 1_555 1_555
Zn3_10 N4_11 1_555 1_555
H5_11 C6_11 1_555 1_555
H6_11 C7_11 1_555 1_555
C6_11 N6_8 1_555 1_555
C4_12 C8_12 1_555 1_555
C6_12 C7_12 1_555 1_555
C7_12 N4_12 1_555 1_555
C8_12 H7_12 1_555 1_555
N4_12 C4_12 1_555 1_555
Zn3_12 N4_12 1_555 1_555
H5_12 C6_12 1_555 1_555
H6_12 C7_12 1_555 1_555
H9_12 C8_12 1_555 1_555
H10_12 C8_12 1_555 1_555
C4_12 N6_7 1_555 1_555
C6_12 N6_7 1_555 1_555
C6_13 C7_13 1_555 1_555
C7_13 N6_6 1_555 1_555
N3_9 Zn3_7 1_555 1_555
H5_13 C6_13 1_555 1_555
H6_13 C7_13 1_555 1_555
C6_13 N3_9 1_555 1_555
C4_13 C8_13 1_555 1_555
C8_13 H7_13 1_555 1_555
N6_9 Zn3_8 1_555 1_555
H9_13 C8_13 1_555 1_555
H10_13 C8_13 1_555 1_555
C4_14 C8_14 1_555 1_555
C6_14 C7_14 1_555 1_555
C7_14 N6_5 1_555 1_555
C8_14 H7_14 1_555 1_555
N3_10 Zn3_6 1_555 1_555
N6_5 C4_14 1_555 1_555
N6_10 Zn3_6 1_555 1_555
H5_14 C6_14 1_555 1_555
H6_14 C7_14 1_555 1_555
H9_14 C8_14 1_555 1_555
H10_14 C8_14 1_555 1_555
C4_14 N3_10 1_555 1_555
C6_14 N3_10 1_555 1_555
C4_15 C8_15 1_555 1_555
C8_15 H7_15 1_555 1_555
H9_15 C8_15 1_555 1_555
H10_15 C8_15 1_555 1_555
C6_15 C7_15 1_555 1_555
C7_15 N6_10 1_555 1_555
N3_11 Zn3_12 1_555 1_555
H5_15 C6_15 1_555 1_555
H6_15 C7_15 1_555 1_555
C6_15 N3_11 1_555 1_555
C4_16 C8_16 1_555 1_555
C6_16 C7_16 1_555 1_555
C7_16 N6_9 1_555 1_555
C8_16 H7_16 1_555 1_555
N3_12 Zn3_9 1_555 1_555
N6_9 C4_16 1_555 1_555
H5_16 C6_16 1_555 1_555
H6_16 C7_16 1_555 1_555
H9_16 C8_16 1_555 1_555
H10_16 C8_16 1_555 1_555
C4_16 N3_12 1_555 1_555
C6_16 N3_12 1_555 1_555

#END
