
###############################################################################
#
# This file contains modified crystal structure data generated from the
# MOF subset of the Cambridge Structural Database (CSD) v543 
# hosted by the Cambridge Crystallographic Data Centre (CCDC).
#
# This work is licensed under the Creative Commons
# Attribution-NonCommercial-ShareAlike 4.0 International License.
# To view a copy of this license, visit
# http://creativecommons.org/licenses/by-nc-sa/4.0/
# or send a letter to
# Creative Commons, PO Box 1866, Mountain View, CA 94042, USA.
#
# CIF created using the CSD Python API on 29 September 2022
# The structure has been converted into the P1 space group
# The structure has a 3D framework
# The original CSD entry TUDTAQ is in the monoclinic crystal system
# The framework has been calculated to contain at least 10.0% void space
# The void calculation uses a probe of radius 1.32A, grid spacing 0.4
#
###############################################################################

data_TUDTAQ
_chemical_formula_moiety         '(C116 H76 Co4 N12 O14)n'
_symmetry_cell_setting           triclinic
_symmetry_space_group_name_H-M   'P 1'
_symmetry_Int_Tables_number      1
_space_group_name_Hall           'P 1'
loop_
_symmetry_equiv_pos_site_id
_symmetry_equiv_pos_as_xyz
1 x,y,z
_cell_length_a                   9.2673(4)
_cell_length_b                   22.6873(9)
_cell_length_c                   13.9052(6)
_cell_angle_alpha                90
_cell_angle_beta                 97.3110(10)
_cell_angle_gamma                90
_cell_volume                     2899.8
loop_
_atom_site_label
_atom_site_type_symbol
_atom_site_fract_x
_atom_site_fract_y
_atom_site_fract_z
O3 O 0.34925(15) 0.14606(6) 0.61083(11)
O4 O 0.23213(15) 0.07360(6) 0.67126(11)
N3 N 0.0095(3) 0.19950(11) 0.8209(2)
C8 C 0.1322(3) 0.22655(11) 0.6570(2)
H5 H 0.175666 0.236648 0.602608
C9 C 0.0435(3) 0.26645(11) 0.6965(2)
H6 H 0.022699 0.302668 0.666544
C11 C 0.0930(3) 0.15989(11) 0.7799(2)
H7 H 0.107982 0.123004 0.808596
C12 C 0.1558(2) 0.17168(9) 0.69873(18)
C13 C 0.2507(2) 0.12752(9) 0.65766(15)
Co3 Co 0.41618(3) 0.05636(2) 0.58918(2)
N2 N 0.27199(17) 0.05640(7) 0.45578(12)
C21 C 0.0519(2) 0.07837(11) 0.09750(16)
H13 H 0.143236 0.095924 0.102554
C22 C 0.0057(2) 0.05140(10) 0.17886(15)
C25 C 0.1624(2) 0.01791(9) 0.43671(15)
C26 C 0.0743(2) 0.01438(9) 0.34931(15)
C27 C 0.0967(2) 0.05284(9) 0.27401(15)
C28 C 0.2088(2) 0.09398(10) 0.29535(16)
H18 H 0.227655 0.121345 0.248733
C29 C 0.2909(2) 0.09414(9) 0.38446(15)
H19 H 0.364301 0.122171 0.396152
N1 N 0.55528(17) 0.05501(7) 0.72409(12)
C14 C 0.6547(3) 0.09670(10) 0.74859(16)
H8 H 0.665315 0.126420 0.703956
C15 C 0.7424(3) 0.09822(11) 0.83604(17)
H9 H 0.808741 0.128794 0.849587
C16 C 0.7321(2) 0.05381(10) 0.90478(16)
C17 C 0.6281(2) 0.01038(10) 0.87872(15)
C18 C 0.5442(2) 0.01299(9) 0.79064(15)
C19 C 0.8264(2) 0.05291(10) 0.99851(16)
H12 H 0.995763 0.097745 0.957036
O5 O 0.58940(14) 0.08781(6) 0.52802(10)
O1 O 0.60159(14) 0.03175(6) 0.39715(10)
C1 C 0.63153(19) 0.07684(8) 0.44790(14)
C2 C 0.7237(2) 0.12224(9) 0.40666(17)
C3 C 0.8054(3) 0.16253(13) 0.4623(2)
H1 H 0.803571 0.162718 0.529049
C4 C 0.8905(3) 0.20297(14) 0.4217(2)
H2 H 0.946596 0.229531 0.461346
C5 C 0.8933(3) 0.20445(10) 0.3247(2)
C6 C 0.8059(3) 0.16640(12) 0.2666(2)
H3 H 0.803610 0.168279 0.199611
C7 C 0.7222(3) 0.12576(12) 0.3066(2)
H4 H 0.663582 0.100199 0.266551
C10 C 0.9860(3) 0.24742(10) 0.2799(2)
H10 H 0.384117 0.020337 0.078773
H11 H 0.525330 0.016301 0.224173
O2 O 0.58940(14) 0.41219(6) 0.02802(10)
H1_2 H 0.803571 0.337282 0.029049
Co4 Co 0.41618(3) 0.44364(2) 0.08918(2)
N4 N 0.72801(17) 0.55640(7) 0.04422(12)
C21_2 C 0.9481(2) 0.57837(11) 0.40250(16)
H13_2 H 0.856764 0.595924 0.397446
C22_2 C 0.9943(2) 0.55140(10) 0.32114(15)
C25_2 C 0.8376(2) 0.51791(9) 0.06329(15)
H16 H 0.855252 0.491914 0.014406
C26_2 C 0.9257(2) 0.51438(9) 0.15069(15)
H17 H 0.999808 0.486527 0.159587
C27_2 C 0.9033(2) 0.55284(9) 0.22599(15)
C28_2 C 0.7912(2) 0.59398(10) 0.20465(16)
H18_2 H 0.772345 0.621345 0.251267
C29_2 C 0.7091(2) 0.59414(9) 0.11554(15)
H19_2 H 0.635699 0.622171 0.103848
O1_2 O 0.39841(14) 0.53175(6) 0.10285(10)
N1_2 N 0.55528(17) 0.44499(7) 0.22409(12)
C1_2 C 0.36847(19) 0.57684(8) 0.05210(14)
C2_2 C 0.2763(2) 0.62224(9) 0.09334(17)
C3_2 C 0.1946(3) 0.66253(13) 0.0377(2)
C4_2 C 0.1095(3) 0.70297(14) 0.0783(2)
H2_2 H 0.053404 0.729531 0.038654
C5_2 C 0.1067(3) 0.70445(10) 0.1753(2)
C6_2 C 0.1941(3) 0.66640(12) 0.2334(2)
H3_2 H 0.196390 0.668279 0.300389
C7_2 C 0.2778(3) 0.62576(12) 0.1934(2)
H4_2 H 0.336418 0.600199 0.233449
C10_2 C 0.0140(3) 0.74742(10) 0.2201(2)
C14_2 C 0.6547(3) 0.40330(10) 0.24859(16)
H8_2 H 0.665315 0.373580 0.203956
C15_2 C 0.7424(3) 0.40178(11) 0.33604(17)
H9_2 H 0.808741 0.371206 0.349587
C16_2 C 0.7321(2) 0.44619(10) 0.40478(16)
C17_2 C 0.6281(2) 0.48962(10) 0.37872(15)
H10_2 H 0.615883 0.520337 0.421227
C18_2 C 0.5442(2) 0.48701(9) 0.29064(15)
H11_2 H 0.474670 0.516301 0.275827
C19_2 C 0.8264(2) 0.44709(10) 0.49851(16)
C20 C 0.9632(2) 0.42083(11) 0.50988(16)
H12_2 H 0.995763 0.402255 0.457036
C23 C 0.8698(2) 0.47635(10) 0.66734(16)
H14 H 0.838028 0.495716 0.719719
C24 C 0.7823(2) 0.47538(11) 0.57940(16)
H15 H 0.692108 0.493905 0.573686
O6 O 0.34925(15) 0.35394(6) 0.11083(11)
O7 O 0.23213(15) 0.42640(6) 0.17126(11)
N3_2 N 0.0095(3) 0.30050(11) 0.3209(2)
C8_2 C 0.1322(3) 0.27345(11) 0.1570(2)
H5_2 H 0.175666 0.263352 0.102608
C9_2 C 0.0435(3) 0.23355(11) 0.1965(2)
H6_2 H 0.022699 0.197332 0.166544
C11_2 C 0.0930(3) 0.34011(11) 0.2799(2)
H7_2 H 0.107982 0.376996 0.308596
C12_2 C 0.1558(2) 0.32832(9) 0.19873(18)
C13_2 C 0.2507(2) 0.37248(9) 0.15766(15)
Co1 Co 0.58382(3) 0.55636(2) 0.91082(2)
O1_3 O 0.60159(14) 0.46825(6) 0.89715(10)
N1_3 N 0.44472(17) 0.55501(7) 0.77591(12)
C1_3 C 0.63153(19) 0.42316(8) 0.94790(14)
C2_3 C 0.7237(2) 0.37776(9) 0.90666(17)
C3_3 C 0.8054(3) 0.33747(13) 0.9623(2)
C4_3 C 0.8905(3) 0.29703(14) 0.9217(2)
H2_3 H 0.946596 0.270469 0.961346
C5_3 C 0.8933(3) 0.29555(10) 0.8247(2)
C6_3 C 0.8059(3) 0.33360(12) 0.7666(2)
H3_3 H 0.803610 0.331721 0.699611
C7_3 C 0.7222(3) 0.37424(12) 0.8066(2)
H4_3 H 0.663582 0.399801 0.766551
C10_3 C 0.9860(3) 0.25258(10) 0.7799(2)
C14_3 C 0.3453(3) 0.59670(10) 0.75141(16)
H8_3 H 0.334685 0.626420 0.796044
C15_3 C 0.2576(3) 0.59822(11) 0.66396(17)
H9_3 H 0.191259 0.628794 0.650413
C16_3 C 0.2679(2) 0.55381(10) 0.59522(16)
C17_3 C 0.3719(2) 0.51038(10) 0.62128(15)
H10_3 H 0.384117 0.479663 0.578773
C18_3 C 0.4558(2) 0.51299(9) 0.70936(15)
H11_3 H 0.525330 0.483699 0.724173
C19_3 C 0.1736(2) 0.55291(10) 0.50149(16)
C20_2 C 0.0368(2) 0.57917(11) 0.49012(16)
H12_3 H 0.004237 0.597745 0.542964
C23_2 C 0.1302(2) 0.52365(10) 0.33266(16)
H14_2 H 0.161972 0.504284 0.280281
C24_2 C 0.2177(2) 0.52462(11) 0.42060(16)
H15_2 H 0.307892 0.506095 0.426314
O5_2 O 0.41060(14) 0.58781(6) 0.97198(10)
O6_2 O 0.65075(15) 0.64606(6) 0.88917(11)
O7_2 O 0.76787(15) 0.57360(6) 0.82874(11)
N3_3 N 0.9905(3) 0.69950(11) 0.6791(2)
C8_3 C 0.8678(3) 0.72655(11) 0.8430(2)
H5_3 H 0.824334 0.736648 0.897392
C9_3 C 0.9565(3) 0.76645(11) 0.8035(2)
H6_3 H 0.977301 0.802668 0.833456
C11_3 C 0.9070(3) 0.65989(11) 0.7201(2)
H7_3 H 0.892018 0.623004 0.691404
C12_3 C 0.8442(2) 0.67168(9) 0.80127(18)
C13_3 C 0.7493(2) 0.62752(9) 0.84234(15)
N2_2 N 0.27199(17) 0.44360(7) 0.95578(12)
C21_3 C 0.0519(2) 0.42163(11) 0.59750(16)
H13_3 H 0.143236 0.404076 0.602554
C22_3 C 0.0057(2) 0.44860(10) 0.67886(15)
C25_3 C 0.1624(2) 0.48209(9) 0.93671(15)
H16_2 H 0.144748 0.508086 0.985594
C26_3 C 0.0743(2) 0.48562(9) 0.84931(15)
H17_2 H 0.000192 0.513473 0.840413
C27_3 C 0.0967(2) 0.44716(9) 0.77401(15)
C28_3 C 0.2088(2) 0.40602(10) 0.79535(16)
H18_3 H 0.227655 0.378655 0.748733
C29_3 C 0.2909(2) 0.40586(9) 0.88446(15)
H19_3 H 0.364301 0.377829 0.896152
H1_3 H 0.196429 0.662718 0.970951
H16_3 H 0.144748 0.991914 0.485594
H17_3 H 0.000192 0.986527 0.340413
C20_3 C 0.9632(2) 0.07917(11) 0.00988(16)
C23_3 C 0.8698(2) 0.02365(10) 0.16734(16)
H14_3 H 0.838028 0.004284 0.219719
C24_3 C 0.7823(2) 0.02462(11) 0.07940(16)
H15_3 H 0.692108 0.006095 0.073686
O1_4 O 0.39841(14) 0.96825(6) 0.60285(10)
O2_2 O 0.41060(14) 0.91219(6) 0.47198(10)
C1_4 C 0.36847(19) 0.92316(8) 0.55210(14)
C2_4 C 0.2763(2) 0.87776(9) 0.59334(17)
C3_4 C 0.1946(3) 0.83747(13) 0.5377(2)
H1_4 H 0.196429 0.837282 0.470951
C4_4 C 0.1095(3) 0.79703(14) 0.5783(2)
H2_4 H 0.053404 0.770469 0.538654
C5_4 C 0.1067(3) 0.79555(10) 0.6753(2)
C6_4 C 0.1941(3) 0.83360(12) 0.7334(2)
H3_4 H 0.196390 0.831721 0.800389
C7_4 C 0.2778(3) 0.87424(12) 0.6934(2)
H4_4 H 0.336418 0.899801 0.733449
C10_4 C 0.0140(3) 0.75258(10) 0.7201(2)
H10_4 H 0.615883 0.979663 0.921227
H11_4 H 0.474670 0.983699 0.775827
Co4_2 Co 0.58382(3) 0.94364(2) 0.41082(2)
O3_2 O 0.65075(15) 0.85394(6) 0.38917(11)
O4_2 O 0.76787(15) 0.92640(6) 0.32874(11)
N3_4 N 0.9905(3) 0.80050(11) 0.1791(2)
C8_4 C 0.8678(3) 0.77345(11) 0.3430(2)
H5_4 H 0.824334 0.763352 0.397392
C9_4 C 0.9565(3) 0.73355(11) 0.3035(2)
H6_4 H 0.977301 0.697332 0.333456
C11_4 C 0.9070(3) 0.84011(11) 0.2201(2)
H7_4 H 0.892018 0.876996 0.191404
C12_4 C 0.8442(2) 0.82832(9) 0.30127(18)
C13_4 C 0.7493(2) 0.87248(9) 0.34234(15)
N1_4 N 0.44472(17) 0.94499(7) 0.27591(12)
C14_4 C 0.3453(3) 0.90330(10) 0.25141(16)
H8_4 H 0.334685 0.873580 0.296044
C15_4 C 0.2576(3) 0.90178(11) 0.16396(17)
H9_4 H 0.191259 0.871206 0.150413
C16_4 C 0.2679(2) 0.94619(10) 0.09522(16)
C17_4 C 0.3719(2) 0.98962(10) 0.12128(15)
C18_4 C 0.4558(2) 0.98701(9) 0.20936(15)
C19_4 C 0.1736(2) 0.94709(10) 0.00149(16)
H12_4 H 0.004237 0.902255 0.042964
N4_2 N 0.72801(17) 0.94360(7) 0.54422(12)
C21_4 C 0.9481(2) 0.92163(11) 0.90250(16)
H13_4 H 0.856764 0.904076 0.897446
C22_4 C 0.9943(2) 0.94860(10) 0.82114(15)
C25_4 C 0.8376(2) 0.98209(9) 0.56329(15)
C26_4 C 0.9257(2) 0.98562(9) 0.65069(15)
C27_4 C 0.9033(2) 0.94716(9) 0.72599(15)
C28_4 C 0.7912(2) 0.90602(10) 0.70465(16)
H18_4 H 0.772345 0.878655 0.751267
C29_4 C 0.7091(2) 0.90586(9) 0.61554(15)
H19_4 H 0.635699 0.877829 0.603848
C20_4 C 0.0368(2) 0.92083(11) 0.99012(16)
C23_4 C 0.1302(2) 0.97635(10) 0.83266(16)
H14_4 H 0.161972 0.995716 0.780281
C24_4 C 0.2177(2) 0.97538(11) 0.92060(16)
H15_4 H 0.307892 0.993905 0.926314
H16_4 H 0.855252 0.008086 0.514406
H17_4 H 0.999808 0.013473 0.659587
loop_
_geom_bond_atom_site_label_1
_geom_bond_atom_site_label_2
_geom_bond_site_symmetry_1
_geom_bond_site_symmetry_2
O3 C13 1_555 1_555
O4 C13 1_555 1_555
C8 H5 1_555 1_555
C9 C8 1_555 1_555
H6 C9 1_555 1_555
C11 N3 1_555 1_555
H7 C11 1_555 1_555
C12 C8 1_555 1_555
C13 C12 1_555 1_555
Co3 O3 1_555 1_555
O4 Co3 1_555 1_555
C11 C12 1_555 1_555
N2 C25 1_555 1_555
H13 C21 1_555 1_555
C22 C21 1_555 1_555
C26 C25 1_555 1_555
C27 C22 1_555 1_555
C28 C27 1_555 1_555
H18 C28 1_555 1_555
C29 N2 1_555 1_555
H19 C29 1_555 1_555
Co3 N2 1_555 1_555
C26 C27 1_555 1_555
C28 C29 1_555 1_555
N1 Co3 1_555 1_555
C14 N1 1_555 1_555
H8 C14 1_555 1_555
C15 C14 1_555 1_555
H9 C15 1_555 1_555
C16 C15 1_555 1_555
C17 C16 1_555 1_555
C18 N1 1_555 1_555
C19 C16 1_555 1_555
O5 Co3 1_555 1_555
C17 C18 1_555 1_555
O1 C1 1_555 1_555
O5 C1 1_555 1_555
C1 C2 1_555 1_555
C2 C3 1_555 1_555
C3 H1 1_555 1_555
C4 C3 1_555 1_555
H2 C4 1_555 1_555
C5 C4 1_555 1_555
C6 C5 1_555 1_555
H3 C6 1_555 1_555
C7 C2 1_555 1_555
H4 C7 1_555 1_555
C10 C5 1_555 1_555
C6 C7 1_555 1_555
Co4 O2 1_555 1_555
N4 C25_2 1_555 1_555
H13_2 C21_2 1_555 1_555
C22_2 C21_2 1_555 1_555
C25_2 H16 1_555 1_555
C26_2 C25_2 1_555 1_555
H17 C26_2 1_555 1_555
C27_2 C22_2 1_555 1_555
C28_2 C27_2 1_555 1_555
H18_2 C28_2 1_555 1_555
C29_2 N4 1_555 1_555
H19_2 C29_2 1_555 1_555
C26_2 C27_2 1_555 1_555
C28_2 C29_2 1_555 1_555
Co4 O1_2 1_555 1_555
O1_2 C1_2 1_555 1_555
N1_2 Co4 1_555 1_555
C1_2 C2_2 1_555 1_555
C2_2 C3_2 1_555 1_555
C4_2 C3_2 1_555 1_555
H2_2 C4_2 1_555 1_555
C5_2 C4_2 1_555 1_555
C6_2 C5_2 1_555 1_555
H3_2 C6_2 1_555 1_555
C7_2 C2_2 1_555 1_555
H4_2 C7_2 1_555 1_555
C10_2 C5_2 1_555 1_555
C14_2 N1_2 1_555 1_555
H8_2 C14_2 1_555 1_555
C15_2 C14_2 1_555 1_555
H9_2 C15_2 1_555 1_555
C16_2 C15_2 1_555 1_555
C17_2 C16_2 1_555 1_555
H10_2 C17_2 1_555 1_555
C18_2 N1_2 1_555 1_555
H11_2 C18_2 1_555 1_555
C19_2 C16_2 1_555 1_555
C20 C19_2 1_555 1_555
H12_2 C20 1_555 1_555
H14 C23 1_555 1_555
C24 C19_2 1_555 1_555
H15 C24 1_555 1_555
O6 Co4 1_555 1_555
O7 Co4 1_555 1_555
C6_2 C7_2 1_555 1_555
C17_2 C18_2 1_555 1_555
C23 C24 1_555 1_555
O6 C13_2 1_555 1_555
O7 C13_2 1_555 1_555
C8_2 H5_2 1_555 1_555
C9_2 C8_2 1_555 1_555
H6_2 C9_2 1_555 1_555
C11_2 N3_2 1_555 1_555
H7_2 C11_2 1_555 1_555
C12_2 C8_2 1_555 1_555
C13_2 C12_2 1_555 1_555
C11_2 C12_2 1_555 1_555
Co1 O1_3 1_555 1_555
O1_3 C1_3 1_555 1_555
N1_3 Co1 1_555 1_555
C1_3 C2_3 1_555 1_555
C2_3 C3_3 1_555 1_555
C4_3 C3_3 1_555 1_555
H2_3 C4_3 1_555 1_555
C5_3 C4_3 1_555 1_555
C6_3 C5_3 1_555 1_555
H3_3 C6_3 1_555 1_555
C7_3 C2_3 1_555 1_555
H4_3 C7_3 1_555 1_555
C10_3 C5_3 1_555 1_555
C14_3 N1_3 1_555 1_555
H8_3 C14_3 1_555 1_555
C15_3 C14_3 1_555 1_555
H9_3 C15_3 1_555 1_555
C16_3 C15_3 1_555 1_555
C17_3 C16_3 1_555 1_555
H10_3 C17_3 1_555 1_555
C18_3 N1_3 1_555 1_555
H11_3 C18_3 1_555 1_555
C19_3 C16_3 1_555 1_555
C20_2 C19_3 1_555 1_555
H12_3 C20_2 1_555 1_555
H14_2 C23_2 1_555 1_555
C24_2 C19_3 1_555 1_555
H15_2 C24_2 1_555 1_555
O5_2 Co1 1_555 1_555
O6_2 Co1 1_555 1_555
O7_2 Co1 1_555 1_555
C6_3 C7_3 1_555 1_555
C17_3 C18_3 1_555 1_555
C23_2 C24_2 1_555 1_555
O6_2 C13_3 1_555 1_555
O7_2 C13_3 1_555 1_555
C8_3 H5_3 1_555 1_555
C9_3 C8_3 1_555 1_555
H6_3 C9_3 1_555 1_555
C11_3 N3_3 1_555 1_555
H7_3 C11_3 1_555 1_555
C12_3 C8_3 1_555 1_555
C13_3 C12_3 1_555 1_555
C11_3 C12_3 1_555 1_555
N2_2 C25_3 1_555 1_555
H13_3 C21_3 1_555 1_555
C22_3 C21_3 1_555 1_555
C25_3 H16_2 1_555 1_555
C26_3 C25_3 1_555 1_555
H17_2 C26_3 1_555 1_555
C27_3 C22_3 1_555 1_555
C28_3 C27_3 1_555 1_555
H18_3 C28_3 1_555 1_555
C29_3 N2_2 1_555 1_555
H19_3 C29_3 1_555 1_555
C26_3 C27_3 1_555 1_555
C28_3 C29_3 1_555 1_555
H14_3 C23_3 1_555 1_555
H15_3 C24_3 1_555 1_555
C23_3 C24_3 1_555 1_555
O1_4 C1_4 1_555 1_555
O2_2 C1_4 1_555 1_555
C1_4 C2_4 1_555 1_555
C2_4 C3_4 1_555 1_555
C3_4 H1_4 1_555 1_555
C4_4 C3_4 1_555 1_555
H2_4 C4_4 1_555 1_555
C5_4 C4_4 1_555 1_555
C6_4 C5_4 1_555 1_555
H3_4 C6_4 1_555 1_555
C7_4 C2_4 1_555 1_555
H4_4 C7_4 1_555 1_555
C10_4 C5_4 1_555 1_555
Co4_2 O2_2 1_555 1_555
C6_4 C7_4 1_555 1_555
O3_2 C13_4 1_555 1_555
O4_2 C13_4 1_555 1_555
C8_4 H5_4 1_555 1_555
C9_4 C8_4 1_555 1_555
H6_4 C9_4 1_555 1_555
C11_4 N3_4 1_555 1_555
H7_4 C11_4 1_555 1_555
C12_4 C8_4 1_555 1_555
C13_4 C12_4 1_555 1_555
Co4_2 O3_2 1_555 1_555
O4_2 Co4_2 1_555 1_555
C11_4 C12_4 1_555 1_555
N1_4 Co4_2 1_555 1_555
C14_4 N1_4 1_555 1_555
H8_4 C14_4 1_555 1_555
C15_4 C14_4 1_555 1_555
H9_4 C15_4 1_555 1_555
C16_4 C15_4 1_555 1_555
C17_4 C16_4 1_555 1_555
C18_4 N1_4 1_555 1_555
C19_4 C16_4 1_555 1_555
N4_2 Co4_2 1_555 1_555
C17_4 C18_4 1_555 1_555
N4_2 C25_4 1_555 1_555
H13_4 C21_4 1_555 1_555
C22_4 C21_4 1_555 1_555
C26_4 C25_4 1_555 1_555
C27_4 C22_4 1_555 1_555
C28_4 C27_4 1_555 1_555
H18_4 C28_4 1_555 1_555
C29_4 N4_2 1_555 1_555
H19_4 C29_4 1_555 1_555
C26_4 C27_4 1_555 1_555
C28_4 C29_4 1_555 1_555
H14_4 C23_4 1_555 1_555
H15_4 C24_4 1_555 1_555
C23_4 C24_4 1_555 1_555

#END
