
###############################################################################
#
# This file contains modified crystal structure data generated from the
# MOF subset of the Cambridge Structural Database (CSD) v543 
# hosted by the Cambridge Crystallographic Data Centre (CCDC).
#
# This work is licensed under the Creative Commons
# Attribution-NonCommercial-ShareAlike 4.0 International License.
# To view a copy of this license, visit
# http://creativecommons.org/licenses/by-nc-sa/4.0/
# or send a letter to
# Creative Commons, PO Box 1866, Mountain View, CA 94042, USA.
#
# CIF created using the CSD Python API on 29 September 2022
# The structure has been converted into the P1 space group
# The structure has a 3D framework
# The original CSD entry TUJMIX is in the monoclinic crystal system
# The framework has been calculated to contain at least 10.0% void space
# The void calculation uses a probe of radius 1.32A, grid spacing 0.4
#
###############################################################################

data_TUJMIX
_chemical_formula_moiety         '(C120 H80 Cd12 Eu4 N32 O42)n'
_symmetry_cell_setting           triclinic
_symmetry_space_group_name_H-M   'P 1'
_symmetry_Int_Tables_number      1
_space_group_name_Hall           'P 1'
loop_
_symmetry_equiv_pos_site_id
_symmetry_equiv_pos_as_xyz
1 x,y,z
_cell_length_a                   12.26180(10)
_cell_length_b                   15.0430(2)
_cell_length_c                   20.2124(2)
_cell_angle_alpha                90
_cell_angle_beta                 93.2250(10)
_cell_angle_gamma                90
_cell_volume                     3722.36
loop_
_atom_site_label
_atom_site_type_symbol
_atom_site_fract_x
_atom_site_fract_y
_atom_site_fract_z
Cd5 Cd -0.0000 0.5000 0.5000
O6 O 0.1050(3) 0.1279(3) 0.7894(2)
N3 N 0.8235(4) 0.4482(3) 0.4933(2)
N4 N 0.7512(3) 0.4472(3) 0.5417(2)
C1 C 0.0720(4) 0.2815(4) 0.7016(3)
H1 H 0.0099 0.2696 0.7244
N7 N 0.7818(4) 0.4075(4) 0.4412(3)
C2 C 0.0814(4) 0.3609(3) 0.6668(3)
C3 C 0.2641(4) 0.3204(4) 0.6386(3)
C4 C 0.1780(4) 0.3806(4) 0.6362(3)
H2 H 0.1847 0.4343 0.6141
N8 N 0.6815(4) 0.3783(4) 0.4528(3)
C6 C 0.6651(4) 0.4026(4) 0.5151(3)
C9 C 0.5628(4) 0.3809(4) 0.5471(3)
C10 C 0.2514(4) 0.2399(4) 0.6699(3)
H4 H 0.3072 0.1980 0.6698
O8 O 0.1903(5) 0.0664(3) 0.7062(3)
C12 C 0.3679(4) 0.3415(4) 0.6063(3)
C14 C 0.1569(4) 0.2204(4) 0.7014(3)
C22 C 0.5657(5) 0.3461(5) 0.6109(3)
H7 H 0.6324 0.3362 0.6340
C23 C 0.3675(5) 0.3743(5) 0.5422(4)
H8 H 0.3011 0.3840 0.5188
C24 C 0.4639(5) 0.3931(5) 0.5123(3)
H9 H 0.4619 0.4137 0.4688
C25 C 0.1480(5) 0.1319(4) 0.7349(3)
C27 C 0.4697(5) 0.3261(5) 0.6396(3)
H13 H 0.4723 0.3020 0.6820
H19 H 0.0445 0.4221 0.8427
Cd3 Cd 0.18993(3) 0.45586(2) 0.37263(2)
Eu2 Eu 0.20319(3) 0.58926(2) 0.20985(2)
O12 O 0.0159(3) 0.5177(2) 0.38504(18)
O13 O 0.6692(3) 0.0298(3) 0.2120(2)
O16 O 0.0911(3) 0.5844(3) 0.3025(2)
N9 N 0.1361(3) 0.3339(3) 0.4395(2)
N10 N 0.0578(4) 0.3594(3) 0.4806(2)
N13 N 0.0678(5) 0.2189(3) 0.4899(3)
N14 N 0.0179(5) 0.2910(3) 0.5100(3)
C37 C 0.1386(4) 0.2453(3) 0.4463(3)
C38 C 0.4673(5) 0.0025(4) 0.2695(3)
H23 H 0.5007 0.0576 0.2757
C41 C 0.0137(4) 0.5770(3) 0.3398(3)
C46 C 0.2062(5) 0.1821(4) 0.4112(3)
C51 C 0.3179(5) 0.0525(4) 0.3407(3)
O20 O 0.2798(10) 0.5490(5) 0.1105(4)
H30 H 0.3323 0.5832 0.0826
H31 H 0.2676 0.4927 0.0830
C56 C 0.2574(6) 0.0285(4) 0.3951(4)
C58 C 0.2706(7) 0.2037(4) 0.3624(4)
H34 H 0.2779 0.2633 0.3511
O21 O 0.1188(7) 0.7084(5) 0.1456(4)
H35 H 0.1161 0.7722 0.1581
H36 H 0.0786 0.7060 0.1017
C59 C 0.2033(7) 0.0916(4) 0.4304(4)
H37 H 0.1649 0.0747 0.4668
C60 C 0.3270(7) 0.1401(4) 0.3281(4)
H38 H 0.3724 0.1586 0.2954
O22 O 0.0258(8) 0.5445(7) 0.1587(6)
H40 H 0.0065 0.4886 0.1342
Cd5_2 Cd 1.0000 0.5000 0.5000
Cd6 Cd 0.81007(3) 0.54414(2) 0.62737(2)
Cd8 Cd 0.18993(3) 0.04414(2) 0.87263(2)
Eu8 Eu 0.79681(3) 0.08926(2) 0.29015(2)
O24 O 0.3308(3) 0.5298(3) 0.2880(2)
O26 O 0.2380(3) 0.7251(3) 0.2747(2)
O28 O 0.3537(3) 0.4079(3) 0.3479(2)
O30 O 0.1050(3) 0.3721(3) 0.2894(2)
N18 N 0.1765(4) 0.5518(3) 0.5067(2)
N20 N 0.2488(3) 0.5528(3) 0.4583(2)
O32 O 0.3546(4) 0.6941(3) 0.2004(3)
O34 O 0.1903(5) 0.4336(3) 0.2062(3)
O15 O 0.6463(3) 0.9079(3) 0.1521(2)
C35 C 0.6167(4) 0.9606(4) 0.1958(3)
C43 C 0.3716(5) 0.9834(4) 0.3004(3)
C45 C 0.5134(4) 0.9391(4) 0.2293(3)
C47 C 0.3184(5) 0.7472(4) 0.2418(3)
C48 C 0.3246(5) 0.8993(4) 0.2914(3)
H25 H 0.2611 0.8858 0.3124
C49 C 0.3703(4) 0.8358(4) 0.2520(3)
C50 C 0.4652(4) 0.8571(4) 0.2193(3)
H26 H 0.4952 0.8160 0.1912
H32 H 0.2538 0.9691 0.4074
Cd11 Cd 0.81007(3) 0.95586(2) 0.12737(2)
Eu5 Eu 0.20319(3) 0.91074(2) 0.70985(2)
O3 O 0.7620(3) 0.2749(3) 0.7253(2)
O4 O 0.3537(3) 0.0921(3) 0.8479(2)
O7 O 0.6454(4) 0.3059(3) 0.7996(3)
C5 C 0.3833(4) 0.0394(4) 0.8042(3)
C13 C 0.6284(5) 0.0166(4) 0.6996(3)
C15 C 0.4866(4) 0.0609(4) 0.7707(3)
C17 C 0.6816(5) 0.2528(4) 0.7582(3)
C18 C 0.6754(5) 0.1007(4) 0.7086(3)
H5 H 0.7389 0.1142 0.6876
C19 C 0.6297(4) 0.1642(4) 0.7480(3)
C20 C 0.5348(4) 0.1429(4) 0.7807(3)
H6 H 0.5048 0.1840 0.8088
H12 H 0.7462 0.0309 0.5926
Eu3 Eu 0.79681(3) 0.41074(2) 0.79015(2)
O1 O 0.9841(3) 0.4823(2) 0.61496(18)
O2 O 0.3308(3) 0.9702(3) 0.7880(2)
O5 O 0.9089(3) 0.4156(3) 0.6975(2)
N1 N 0.8639(3) 0.6661(3) 0.5605(2)
N2 N 0.9422(4) 0.6406(3) 0.5194(2)
N5 N 0.9322(5) 0.7811(3) 0.5101(3)
N6 N 0.9821(5) 0.7090(3) 0.4900(3)
C7 C 0.8614(4) 0.7547(3) 0.5537(3)
C8 C 0.5327(5) 0.9975(4) 0.7305(3)
H3 H 0.4993 0.9424 0.7243
C11 C 0.9863(4) 0.4230(3) 0.6602(3)
C16 C 0.7938(5) 0.8179(4) 0.5888(3)
C21 C 0.6821(5) 0.9475(4) 0.6593(3)
O9 O 0.7202(10) 0.4510(5) 0.8895(4)
H10 H 0.6677 0.4168 0.9174
H11 H 0.7324 0.5073 0.9170
C26 C 0.7426(6) 0.9715(4) 0.6049(4)
C28 C 0.7294(7) 0.7963(4) 0.6376(4)
H14 H 0.7221 0.7367 0.6489
O10 O 0.8812(7) 0.2916(5) 0.8544(4)
H15 H 0.8839 0.2278 0.8419
H16 H 0.9214 0.2940 0.8983
C29 C 0.7967(7) 0.9084(4) 0.5696(4)
H17 H 0.8351 0.9253 0.5332
C30 C 0.6730(7) 0.8599(4) 0.6719(4)
H18 H 0.6276 0.8414 0.7046
O11 O 0.9742(8) 0.4555(7) 0.8413(6)
H20 H 0.9935 0.5114 0.8658
O17 O 0.8950(3) 0.8721(3) 0.2106(2)
C31 C 0.9280(4) 0.7185(4) 0.2984(3)
H21 H 0.9901 0.7304 0.2756
N15 N 0.2182(4) 0.5925(4) 0.5588(3)
C32 C 0.9186(4) 0.6391(3) 0.3332(3)
C33 C 0.7359(4) 0.6796(4) 0.3614(3)
C34 C 0.8220(4) 0.6194(4) 0.3638(3)
H22 H 0.8153 0.5657 0.3859
N16 N 0.3185(4) 0.6217(4) 0.5472(3)
C36 C 0.3349(4) 0.5974(4) 0.4849(3)
C39 C 0.4372(4) 0.6191(4) 0.4529(3)
C40 C 0.7486(4) 0.7601(4) 0.3301(3)
H24 H 0.6928 0.8020 0.3302
O19 O 0.8097(5) 0.9336(3) 0.2938(3)
C42 C 0.6321(4) 0.6585(4) 0.3937(3)
C44 C 0.8431(4) 0.7796(4) 0.2986(3)
C52 C 0.4343(5) 0.6539(5) 0.3891(3)
H27 H 0.3676 0.6638 0.3660
C53 C 0.6325(5) 0.6257(5) 0.4578(4)
H28 H 0.6989 0.6160 0.4812
C54 C 0.5361(5) 0.6069(5) 0.4877(3)
H29 H 0.5381 0.5863 0.5312
C55 C 0.8520(5) 0.8681(4) 0.2651(3)
C57 C 0.5303(5) 0.6739(5) 0.3604(3)
H33 H 0.5277 0.6980 0.3180
H39 H 0.9555 0.5779 0.1573
O23 O 0.6692(3) 0.4702(3) 0.7120(2)
O27 O 0.6463(3) 0.5921(3) 0.6521(2)
O29 O 0.8950(3) 0.6279(3) 0.7106(2)
O33 O 0.8097(5) 0.5664(3) 0.7938(3)
Cd4 Cd 0.0000 -0.0000 0.0000
Cd4_2 Cd 0.0000 -0.0000 1.0000
Cd4_3 Cd 0.0000 1.0000 0.0000
Cd4_4 Cd 0.0000 1.0000 1.0000
N6_2 N 0.0179(5) 0.2090(3) 0.0100(3)
N12 N 0.7512(3) 0.0528(3) 0.0417(2)
C31_2 C 0.0720(4) 0.2185(4) 0.2016(3)
H21_2 H 0.0099 0.2304 0.2244
C32_2 C 0.0814(4) 0.1391(3) 0.1668(3)
C33_2 C 0.2641(4) 0.1796(4) 0.1386(3)
C34_2 C 0.1780(4) 0.1194(4) 0.1362(3)
H22_2 H 0.1847 0.0657 0.1141
C36_2 C 0.6651(4) 0.0974(4) 0.0151(3)
C39_2 C 0.5628(4) 0.1191(4) 0.0471(3)
C40_2 C 0.2514(4) 0.2601(4) 0.1699(3)
H24_2 H 0.3072 0.3020 0.1698
C42_2 C 0.3679(4) 0.1585(4) 0.1063(3)
C44_2 C 0.1569(4) 0.2796(4) 0.2014(3)
C52_2 C 0.5657(5) 0.1539(5) 0.1109(3)
H27_2 H 0.6324 0.1638 0.1340
C53_2 C 0.3675(5) 0.1257(5) 0.0422(4)
H28_2 H 0.3011 0.1160 0.0188
C54_2 C 0.4639(5) 0.1069(5) 0.0123(3)
C55_2 C 0.1480(5) 0.3681(4) 0.2349(3)
C57_2 C 0.4697(5) 0.1739(5) 0.1396(3)
H33_2 H 0.4723 0.1980 0.1820
H39_2 H 0.0445 0.0779 0.3427
Cd4_5 Cd 1.0000 -0.0000 0.0000
O3_2 O 0.2380(3) 0.7749(3) 0.7747(2)
N1_2 N 0.1361(3) 0.1661(3) 0.9395(2)
N2_2 N 0.0578(4) 0.1406(3) 0.9806(2)
O7_2 O 0.3546(4) 0.8059(3) 0.7004(3)
N5_2 N 0.0678(5) 0.2811(3) 0.9899(3)
C5_2 C 0.6167(4) 0.5394(4) 0.6958(3)
C7_2 C 0.1386(4) 0.2547(3) 0.9463(3)
C8_2 C 0.4673(5) 0.4975(4) 0.7695(3)
H3_2 H 0.5007 0.4424 0.7757
C13_2 C 0.3716(5) 0.5166(4) 0.8004(3)
C15_2 C 0.5134(4) 0.5609(4) 0.7293(3)
C16_2 C 0.2062(5) 0.3179(4) 0.9112(3)
C17_2 C 0.3184(5) 0.7528(4) 0.7418(3)
C18_2 C 0.3246(5) 0.6007(4) 0.7914(3)
H5_2 H 0.2611 0.6142 0.8124
C19_2 C 0.3703(4) 0.6642(4) 0.7520(3)
C20_2 C 0.4652(4) 0.6429(4) 0.7193(3)
H6_2 H 0.4952 0.6840 0.6912
C21_2 C 0.3179(5) 0.4475(4) 0.8407(3)
H11_2 H 0.2676 0.0073 0.5830
C26_2 C 0.2574(6) 0.4715(4) 0.8951(4)
H12_2 H 0.2538 0.5309 0.9074
C28_2 C 0.2706(7) 0.2963(4) 0.8624(4)
H14_2 H 0.2779 0.2367 0.8511
C29_2 C 0.2033(7) 0.4084(4) 0.9304(4)
H17_2 H 0.1649 0.4253 0.9668
C30_2 C 0.3270(7) 0.3599(4) 0.8281(4)
H18_2 H 0.3724 0.3414 0.7954
H20_2 H 0.0065 0.0114 0.6342
N11 N 0.8235(4) 0.0518(3) 0.9933(2)
N15_2 N 0.7818(4) 0.0925(4) 0.9412(3)
N16_2 N 0.6815(4) 0.1217(4) 0.9528(3)
H29_2 H 0.4619 0.0863 0.9688
Cd4_6 Cd 1.0000 -0.0000 1.0000
Cd4_7 Cd 1.0000 1.0000 0.0000
N17 N 0.1765(4) 0.9482(3) 0.0067(2)
O1_2 O 0.0159(3) 0.9823(2) 0.88504(18)
O5_2 O 0.0911(3) 0.9156(3) 0.8025(2)
C11_2 C 0.0137(4) 0.9230(3) 0.8398(3)
O9_2 O 0.2798(10) 0.9510(5) 0.6105(4)
H10_2 H 0.3323 0.9168 0.5826
O10_2 O 0.1188(7) 0.7916(5) 0.6456(4)
H15_2 H 0.1161 0.7278 0.6581
H16_2 H 0.0786 0.7940 0.6017
O11_2 O 0.0258(8) 0.9555(7) 0.6587(6)
Cd4_8 Cd 1.0000 1.0000 1.0000
N19 N 0.2488(3) 0.9472(3) 0.9583(2)
O12_2 O 0.9841(3) 0.0177(2) 0.11496(18)
O16_2 O 0.9089(3) 0.0844(3) 0.1975(2)
C41_2 C 0.9863(4) 0.0770(3) 0.1602(3)
O20_2 O 0.7202(10) 0.0490(5) 0.3895(4)
H30_2 H 0.6677 0.0832 0.4174
O21_2 O 0.8812(7) 0.2084(5) 0.3544(4)
H35_2 H 0.8839 0.2722 0.3419
H36_2 H 0.9214 0.2060 0.3983
O22_2 O 0.9742(8) 0.0445(7) 0.3413(6)
O26_2 O 0.7620(3) 0.2251(3) 0.2253(2)
O32_2 O 0.6454(4) 0.1941(3) 0.2996(3)
N7_2 N 0.2182(4) 0.9075(4) 0.0588(3)
N8_2 N 0.3185(4) 0.8783(4) 0.0472(3)
H9_2 H 0.5381 0.9137 0.0312
N9_2 N 0.8639(3) 0.8339(3) 0.0605(2)
N10_2 N 0.9422(4) 0.8594(3) 0.0194(2)
N13_2 N 0.9322(5) 0.7189(3) 0.0101(3)
C35_2 C 0.3833(4) 0.4606(4) 0.3042(3)
C37_2 C 0.8614(4) 0.7453(3) 0.0537(3)
C38_2 C 0.5327(5) 0.5025(4) 0.2305(3)
H23_2 H 0.4993 0.5576 0.2243
C43_2 C 0.6284(5) 0.4834(4) 0.1996(3)
C45_2 C 0.4866(4) 0.4391(4) 0.2707(3)
C46_2 C 0.7938(5) 0.6821(4) 0.0888(3)
C47_2 C 0.6816(5) 0.2472(4) 0.2582(3)
C48_2 C 0.6754(5) 0.3993(4) 0.2086(3)
H25_2 H 0.7389 0.3858 0.1876
C49_2 C 0.6297(4) 0.3358(4) 0.2480(3)
C50_2 C 0.5348(4) 0.3571(4) 0.2807(3)
H26_2 H 0.5048 0.3160 0.3088
C51_2 C 0.6821(5) 0.5525(4) 0.1593(3)
H31_2 H 0.7324 0.9927 0.4170
C56_2 C 0.7426(6) 0.5285(4) 0.1049(4)
H32_2 H 0.7462 0.4691 0.0926
C58_2 C 0.7294(7) 0.7037(4) 0.1376(4)
H34_2 H 0.7221 0.7633 0.1489
C59_2 C 0.7967(7) 0.5916(4) 0.0696(4)
H37_2 H 0.8351 0.5747 0.0332
C60_2 C 0.6730(7) 0.6401(4) 0.1719(4)
H38_2 H 0.6276 0.6586 0.2046
H40_2 H 0.9935 0.9886 0.3658
C1_2 C 0.9280(4) 0.7815(4) 0.7984(3)
H1_2 H 0.9901 0.7696 0.7756
C2_2 C 0.9186(4) 0.8609(3) 0.8332(3)
C3_2 C 0.7359(4) 0.8204(4) 0.8614(3)
C4_2 C 0.8220(4) 0.8806(4) 0.8638(3)
H2_2 H 0.8153 0.9343 0.8859
C6_2 C 0.3349(4) 0.9026(4) 0.9849(3)
C9_2 C 0.4372(4) 0.8809(4) 0.9529(3)
C10_2 C 0.7486(4) 0.7399(4) 0.8301(3)
H4_2 H 0.6928 0.6980 0.8302
C12_2 C 0.6321(4) 0.8415(4) 0.8937(3)
C14_2 C 0.8431(4) 0.7204(4) 0.7986(3)
C22_2 C 0.4343(5) 0.8461(5) 0.8891(3)
H7_2 H 0.3676 0.8362 0.8660
C23_2 C 0.6325(5) 0.8743(5) 0.9578(4)
H8_2 H 0.6989 0.8840 0.9812
C24_2 C 0.5361(5) 0.8931(5) 0.9877(3)
C25_2 C 0.8520(5) 0.6319(4) 0.7651(3)
C27_2 C 0.5303(5) 0.8261(5) 0.8604(3)
H13_2 H 0.5277 0.8020 0.8180
H19_2 H 0.9555 0.9221 0.6573
N14_2 N 0.9821(5) 0.7910(3) 0.9900(3)
loop_
_geom_bond_atom_site_label_1
_geom_bond_atom_site_label_2
_geom_bond_site_symmetry_1
_geom_bond_site_symmetry_2
O6 C25 1_555 1_555
N3 N4 1_555 1_555
N4 C6 1_555 1_555
C1 H1 1_555 1_555
N7 N3 1_555 1_555
C2 C1 1_555 1_555
C3 C4 1_555 1_555
C4 C2 1_555 1_555
H2 C4 1_555 1_555
N8 N7 1_555 1_555
C6 N8 1_555 1_555
C9 C6 1_555 1_555
C10 C3 1_555 1_555
H4 C10 1_555 1_555
O8 C25 1_555 1_555
C12 C3 1_555 1_555
C14 C1 1_555 1_555
C22 C9 1_555 1_555
H7 C22 1_555 1_555
C23 C12 1_555 1_555
H8 C23 1_555 1_555
C24 C9 1_555 1_555
H9 C24 1_555 1_555
C25 C14 1_555 1_555
C27 C12 1_555 1_555
H13 C27 1_555 1_555
Cd3 O12 1_555 1_555
Eu2 O16 1_555 1_555
O12 Cd5 1_555 1_555
O16 Cd3 1_555 1_555
N9 Cd3 1_555 1_555
N10 Cd5 1_555 1_555
N13 N14 1_555 1_555
N14 N10 1_555 1_555
C37 N9 1_555 1_555
C38 H23 1_555 1_555
C41 O12 1_555 1_555
C46 C37 1_555 1_555
O20 Eu2 1_555 1_555
H30 O20 1_555 1_555
H31 O20 1_555 1_555
C56 C51 1_555 1_555
C58 C46 1_555 1_555
H34 C58 1_555 1_555
O21 Eu2 1_555 1_555
H35 O21 1_555 1_555
H36 O21 1_555 1_555
C59 C46 1_555 1_555
H37 C59 1_555 1_555
C60 C51 1_555 1_555
H38 C60 1_555 1_555
O22 Eu2 1_555 1_555
H40 O22 1_555 1_555
Cd5_2 N3 1_555 1_555
Cd6 N4 1_555 1_555
Cd8 O6 1_555 1_555
Eu8 O13 1_555 1_555
O24 Cd3 1_555 1_555
O26 Eu2 1_555 1_555
O28 Cd3 1_555 1_555
O30 Cd3 1_555 1_555
N18 Cd5 1_555 1_555
N20 Cd3 1_555 1_555
O32 Eu2 1_555 1_555
O34 Eu2 1_555 1_555
C10 C14 1_555 1_555
C22 C27 1_555 1_555
C23 C24 1_555 1_555
Eu2 O24 1_555 1_555
O16 C41 1_555 1_555
N9 N10 1_555 1_555
N13 C37 1_555 1_555
C56 C59 1_555 1_555
C58 C60 1_555 1_555
N18 N20 1_555 1_555
O26 C47 1_555 1_555
O15 C35 1_555 1_555
O32 C47 1_555 1_555
C35 C45 1_555 1_555
C47 C49 1_555 1_555
C48 C43 1_555 1_555
H25 C48 1_555 1_555
C49 C48 1_555 1_555
C50 C45 1_555 1_555
H26 C50 1_555 1_555
O15 Cd11 1_555 1_555
C49 C50 1_555 1_555
O3 C17 1_555 1_555
O4 C5 1_555 1_555
O7 C17 1_555 1_555
C5 C15 1_555 1_555
C17 C19 1_555 1_555
C18 C13 1_555 1_555
H5 C18 1_555 1_555
C19 C18 1_555 1_555
C20 C15 1_555 1_555
H6 C20 1_555 1_555
Eu3 O3 1_555 1_555
O4 Cd8 1_555 1_555
O7 Eu3 1_555 1_555
C19 C20 1_555 1_555
Cd5_2 O1 1_555 1_555
Cd6 O1 1_555 1_555
Eu3 O5 1_555 1_555
O1 C11 1_555 1_555
O5 Cd6 1_555 1_555
N1 Cd6 1_555 1_555
N2 Cd5_2 1_555 1_555
N5 N6 1_555 1_555
N6 N2 1_555 1_555
C7 N1 1_555 1_555
C8 H3 1_555 1_555
C11 O5 1_555 1_555
C16 C7 1_555 1_555
O9 Eu3 1_555 1_555
H10 O9 1_555 1_555
H11 O9 1_555 1_555
C26 C21 1_555 1_555
C28 C16 1_555 1_555
H14 C28 1_555 1_555
O10 Eu3 1_555 1_555
H15 O10 1_555 1_555
H16 O10 1_555 1_555
C29 C16 1_555 1_555
H17 C29 1_555 1_555
C30 C21 1_555 1_555
H18 C30 1_555 1_555
O11 Eu3 1_555 1_555
H20 O11 1_555 1_555
O17 C55 1_555 1_555
N20 C36 1_555 1_555
C31 H21 1_555 1_555
N15 N18 1_555 1_555
C32 C31 1_555 1_555
C33 C34 1_555 1_555
C34 C32 1_555 1_555
H22 C34 1_555 1_555
N16 N15 1_555 1_555
C36 N16 1_555 1_555
C39 C36 1_555 1_555
C40 C33 1_555 1_555
H24 C40 1_555 1_555
O19 C55 1_555 1_555
C42 C33 1_555 1_555
C44 C31 1_555 1_555
C52 C39 1_555 1_555
H27 C52 1_555 1_555
C53 C42 1_555 1_555
H28 C53 1_555 1_555
C54 C39 1_555 1_555
H29 C54 1_555 1_555
C55 C44 1_555 1_555
C57 C42 1_555 1_555
H33 C57 1_555 1_555
Cd11 O17 1_555 1_555
Eu5 O2 1_555 1_555
O23 Cd6 1_555 1_555
O27 Cd6 1_555 1_555
O29 Cd6 1_555 1_555
O33 Eu3 1_555 1_555
Eu3 O23 1_555 1_555
N1 N2 1_555 1_555
N5 C7 1_555 1_555
C26 C29 1_555 1_555
C28 C30 1_555 1_555
C40 C44 1_555 1_555
C52 C57 1_555 1_555
C53 C54 1_555 1_555
O30 C55_2 1_555 1_555
N12 C36_2 1_555 1_555
C31_2 H21_2 1_555 1_555
C32_2 C31_2 1_555 1_555
C33_2 C34_2 1_555 1_555
C34_2 C32_2 1_555 1_555
H22_2 C34_2 1_555 1_555
C39_2 C36_2 1_555 1_555
C40_2 C33_2 1_555 1_555
H24_2 C40_2 1_555 1_555
O34 C55_2 1_555 1_555
C42_2 C33_2 1_555 1_555
C44_2 C31_2 1_555 1_555
C52_2 C39_2 1_555 1_555
H27_2 C52_2 1_555 1_555
C53_2 C42_2 1_555 1_555
H28_2 C53_2 1_555 1_555
C54_2 C39_2 1_555 1_555
C55_2 C44_2 1_555 1_555
C57_2 C42_2 1_555 1_555
H33_2 C57_2 1_555 1_555
C40_2 C44_2 1_555 1_555
C52_2 C57_2 1_555 1_555
C53_2 C54_2 1_555 1_555
O23 C5_2 1_555 1_555
O3_2 C17_2 1_555 1_555
O27 C5_2 1_555 1_555
N1_2 Cd8 1_555 1_555
N2_2 Cd4_2 1_555 1_555
O7_2 C17_2 1_555 1_555
C5_2 C15_2 1_555 1_555
C7_2 N1_2 1_555 1_555
C8_2 H3_2 1_555 1_555
C13_2 C8_2 1_555 1_555
C15_2 C8_2 1_555 1_555
C16_2 C7_2 1_555 1_555
C17_2 C19_2 1_555 1_555
C18_2 C13_2 1_555 1_555
H5_2 C18_2 1_555 1_555
C19_2 C18_2 1_555 1_555
C20_2 C15_2 1_555 1_555
H6_2 C20_2 1_555 1_555
C21_2 C13_2 1_555 1_555
C26_2 C21_2 1_555 1_555
H12_2 C26_2 1_555 1_555
C28_2 C16_2 1_555 1_555
H14_2 C28_2 1_555 1_555
C29_2 C16_2 1_555 1_555
H17_2 C29_2 1_555 1_555
C30_2 C21_2 1_555 1_555
H18_2 C30_2 1_555 1_555
N15_2 N11 1_555 1_555
N16_2 N15_2 1_555 1_555
Cd4_6 N11 1_555 1_555
Eu5 O3_2 1_555 1_555
N1_2 N2_2 1_555 1_555
O7_2 Eu5 1_555 1_555
N5_2 C7_2 1_555 1_555
C19_2 C20_2 1_555 1_555
C26_2 C29_2 1_555 1_555
C28_2 C30_2 1_555 1_555
N17 Cd4_3 1_555 1_555
Cd4_4 O1_2 1_555 1_555
Eu5 O5_2 1_555 1_555
O1_2 C11_2 1_555 1_555
C11_2 O5_2 1_555 1_555
O9_2 Eu5 1_555 1_555
H10_2 O9_2 1_555 1_555
O10_2 Eu5 1_555 1_555
H15_2 O10_2 1_555 1_555
H16_2 O10_2 1_555 1_555
O11_2 Eu5 1_555 1_555
Eu8 O16_2 1_555 1_555
O12_2 Cd4_5 1_555 1_555
C41_2 O12_2 1_555 1_555
O20_2 Eu8 1_555 1_555
H30_2 O20_2 1_555 1_555
O21_2 Eu8 1_555 1_555
H35_2 O21_2 1_555 1_555
H36_2 O21_2 1_555 1_555
O22_2 Eu8 1_555 1_555
O26_2 Eu8 1_555 1_555
O32_2 Eu8 1_555 1_555
O16_2 C41_2 1_555 1_555
N7_2 N17 1_555 1_555
N8_2 N7_2 1_555 1_555
O24 C35_2 1_555 1_555
O26_2 C47_2 1_555 1_555
O28 C35_2 1_555 1_555
N9_2 Cd11 1_555 1_555
N10_2 Cd4_7 1_555 1_555
O32_2 C47_2 1_555 1_555
C35_2 C45_2 1_555 1_555
C37_2 N9_2 1_555 1_555
C38_2 H23_2 1_555 1_555
C43_2 C38_2 1_555 1_555
C45_2 C38_2 1_555 1_555
C46_2 C37_2 1_555 1_555
C47_2 C49_2 1_555 1_555
C48_2 C43_2 1_555 1_555
H25_2 C48_2 1_555 1_555
C49_2 C48_2 1_555 1_555
C50_2 C45_2 1_555 1_555
H26_2 C50_2 1_555 1_555
C51_2 C43_2 1_555 1_555
C56_2 C51_2 1_555 1_555
H32_2 C56_2 1_555 1_555
C58_2 C46_2 1_555 1_555
H34_2 C58_2 1_555 1_555
C59_2 C46_2 1_555 1_555
H37_2 C59_2 1_555 1_555
C60_2 C51_2 1_555 1_555
H38_2 C60_2 1_555 1_555
N9_2 N10_2 1_555 1_555
N13_2 C37_2 1_555 1_555
C49_2 C50_2 1_555 1_555
C56_2 C59_2 1_555 1_555
C58_2 C60_2 1_555 1_555
O29 C25_2 1_555 1_555
N19 C6_2 1_555 1_555
C1_2 H1_2 1_555 1_555
C2_2 C1_2 1_555 1_555
C3_2 C4_2 1_555 1_555
C4_2 C2_2 1_555 1_555
H2_2 C4_2 1_555 1_555
C9_2 C6_2 1_555 1_555
C10_2 C3_2 1_555 1_555
H4_2 C10_2 1_555 1_555
O33 C25_2 1_555 1_555
C12_2 C3_2 1_555 1_555
C14_2 C1_2 1_555 1_555
C22_2 C9_2 1_555 1_555
H7_2 C22_2 1_555 1_555
C23_2 C12_2 1_555 1_555
H8_2 C23_2 1_555 1_555
C24_2 C9_2 1_555 1_555
C25_2 C14_2 1_555 1_555
C27_2 C12_2 1_555 1_555
H13_2 C27_2 1_555 1_555
C10_2 C14_2 1_555 1_555
C22_2 C27_2 1_555 1_555
C23_2 C24_2 1_555 1_555

#END
