
###############################################################################
#
# This file contains modified crystal structure data generated from the
# MOF subset of the Cambridge Structural Database (CSD) v543 
# hosted by the Cambridge Crystallographic Data Centre (CCDC).
#
# This work is licensed under the Creative Commons
# Attribution-NonCommercial-ShareAlike 4.0 International License.
# To view a copy of this license, visit
# http://creativecommons.org/licenses/by-nc-sa/4.0/
# or send a letter to
# Creative Commons, PO Box 1866, Mountain View, CA 94042, USA.
#
# CIF created using the CSD Python API on 29 September 2022
# The structure has been converted into the P1 space group
# The structure has a 3D framework
# The original CSD entry TULNOG01 is in the triclinic crystal system
# The original CSD entry TULNOG01 is in a Sohncke space group
# The framework has been calculated to contain at least 10.0% void space
# The void calculation uses a probe of radius 1.32A, grid spacing 0.4
# H atom positions have been added when not included in the experimental data
#
###############################################################################

data_TULNOG01
_chemical_formula_moiety         '(C33 H22 N5 O12 Tb2)n'
_symmetry_cell_setting           triclinic
_symmetry_space_group_name_H-M   'P 1'
_symmetry_Int_Tables_number      1
_space_group_name_Hall           'P 1'
loop_
_symmetry_equiv_pos_site_id
_symmetry_equiv_pos_as_xyz
1 x,y,z
_cell_length_a                   9.5266(14)
_cell_length_b                   11.5135(18)
_cell_length_c                   11.6248(16)
_cell_angle_alpha                85.994(4)
_cell_angle_beta                 70.409(4)
_cell_angle_gamma                78.478(5)
_cell_volume                     1177.03
loop_
_atom_site_label
_atom_site_type_symbol
_atom_site_fract_x
_atom_site_fract_y
_atom_site_fract_z
_atom_site_U_iso_or_equiv
_atom_site_thermal_displace_type
C29 C 0.0073(12) 0.2379(8) 0.2400(7) 0.0811 Uani
H14 H 0.0213 0.1682 0.2836 0.0970 Uiso
N6 N 0.1132(14) 0.2786(12) 0.1369(10) 0.1302 Uani
C31 C 0.0449(12) 0.3687(11) 0.0968(7) 0.0999 Uani
H16 H 0.0858 0.4055 0.0226 0.1200 Uiso
C5 C 0.0268(9) 0.8942(9) 0.7375(10) 0.0398 Uani
H2 H 0.0911 0.9407 0.6855 0.0470 Uiso
N2 N 0.0652(10) 0.8164(8) 0.8059(8) 0.0370 Uani
Tb4 Tb 0.33997(2) 0.77203(2) 0.80810(2) 0.0181 Uani
C3 C 0.7217(14) 0.3070(11) 0.6106(12) 0.0330 Uani
O10 O 0.7720(9) 0.3421(6) 0.6804(7) 0.0397 Uani
O13 O 0.6592(9) 0.3714(6) 0.5400(6) 0.0360 Uani
C21 C 0.6376(12) 0.1257(10) 0.5448(10) 0.0227 Uani
H10 H 0.5867 0.1733 0.4977 0.0270 Uiso
C22 C 0.7956(11) 0.1001(7) 0.6778(10) 0.0244 Uani
H11 H 0.8455 0.1311 0.7215 0.0290 Uiso
C23 C 0.7190(12) 0.1755(9) 0.6046(10) 0.0255 Uani
C30 C 0.6346(12) 0.0099(9) 0.5565(10) 0.0253 Uani
Tb7 Tb 0.72923(2) 0.54409(2) 0.62044(2) 0.0162 Uani
O7 O 0.8523(5) 0.5343(5) 0.3959(4) 0.0339 Uani
O8 O 0.6152(6) 0.6234(5) 0.4707(4) 0.0312 Uani
O14 O 0.1819(6) 0.8170(6) 0.0061(5) 0.0475 Uani
C13 C 0.7270(6) 0.5787(4) 0.3822(4) 0.0261 Uani
C14 C 0.7051(6) 0.5816(5) 0.2600(4) 0.0295 Uani
C15 C 0.6476(6) 0.6016(5) 0.0372(4) 0.0266 Uani
C16 C 0.7612(6) 0.5135(5) 0.0533(4) 0.0343 Uani
C17 C 0.7902(6) 0.5034(5) 0.1646(4) 0.0330 Uani
C18 C 0.5612(8) 0.6788(6) 0.1317(6) 0.0424 Uani
H8 H 0.4833 0.7371 0.1215 0.0510 Uiso
C19 C 0.5903(9) 0.6696(6) 0.2420(6) 0.0433 Uani
H9 H 0.5324 0.7228 0.3045 0.0520 Uiso
N5 N 0.9047(6) 0.4046(5) 0.1757(5) 0.0472 Uani
C26 C 0.8837(10) 0.3200(7) 0.2614(6) 0.0573 Uani
H13 H 0.7947 0.3194 0.3267 0.0690 Uiso
H21 H 0.1797 0.900428 0.0244283 . .
H22 H 0.0778077 0.806614 0.0148474 . .
O1 O 0.5977(7) 0.7610(5) 0.6747(5) 0.0247 Uani
C1 C 0.2727(12) 0.3340(10) 0.7437(11) 0.0268 Uani
O2 O 0.8329(8) 0.7272(5) 0.5747(6) 0.0322 Uani
O3 O 0.2363(8) 0.5806(6) 0.8670(7) 0.0365 Uani
N1 N 0.1909(9) 0.4111(7) 0.6727(7) 0.0290 Uani
O5 O 0.4687(7) 0.5580(5) 0.7264(4) 0.0229 Uani
C2 C 0.3530(12) 0.1463(9) 0.8131(9) 0.0231 Uani
O6 O 0.7103(8) 0.5612(7) 0.8258(6) 0.0347 Uani
C4 C 0.4320(15) 0.1893(11) 0.8689(11) 0.0350 Uani
H1 H 0.4858 0.1379 0.9114 0.0420 Uiso
C6 C 0.2461(14) 0.4818(11) 0.5758(11) 0.0524 Uani
H3 H 0.3464 0.4907 0.5393 0.0630 Uiso
C7 C 0.9454(11) 0.7711(9) 0.8738(9) 0.0355 Uani
H4 H 0.9451 0.7149 0.9353 0.0430 Uiso
C8 C 0.2728(13) 0.2204(10) 0.7523(10) 0.0322 Uani
H5 H 0.2158 0.1892 0.7154 0.0380 Uiso
C9 C 0.3557(12) 0.5154(10) 0.7992(10) 0.0254 Uani
C10 C 0.3588(14) 0.3847(11) 0.7999(10) 0.0290 Uiso
C11 C 0.4364(15) 0.3163(10) 0.8651(11) 0.0320 Uani
H6 H 0.4898 0.3475 0.9055 0.0380 Uiso
O11 O 0.3500(8) 0.7648(7) 0.5957(6) 0.0358 Uani
O12 O 0.4917(6) 0.6810(5) 0.9238(4) 0.0308 Uani
C12 C 0.6141(6) 0.6131(4) 0.9187(4) 0.0240 Uani
H7 H 0.8185 0.4607 0.9904 0.0410 Uiso
N4 N 0.8736(8) 0.9031(7) 0.7487(6) 0.0261 Uani
C20 C 0.7927(11) 0.9736(9) 0.6815(9) 0.0202 Uani
C24 C 0.8229(10) 0.8203(8) 0.8390(8) 0.0281 Uani
H12 H 0.7261 0.8024 0.8691 0.0340 Uiso
C25 C 0.3594(12) 0.0154(9) 0.8178(9) 0.0189 Uani
C27 C 0.7191(11) 0.7966(7) 0.6250(9) 0.0184 Uani
C28 C 0.7159(10) 0.9285(7) 0.6212(9) 0.0163 Uani
H15 H 0.5757 0.9802 0.5203 0.0310 Uiso
C32 C 0.0463(11) 0.4185(8) 0.6929(8) 0.0320 Uani
C33 C 0.1282(15) 0.5351(13) 0.5444(12) 0.0623 Uani
H18 H 0.1327 0.5932 0.4842 0.0750 Uiso
O15 O 0.4270(8) 0.9424(6) 0.8724(6) 0.0327 Uani
N8 N 0.9941(9) 0.4934(8) 0.6128(7) 0.0339 Uani
O18 O 0.2879(9) 0.9768(6) 0.7544(7) 0.0369 Uani
H19 H 0.417123 0.690276 0.557482 . .
H20 H 0.246339 0.767387 0.592995 . .
H17 H 0.9851 0.3774 0.7549 0.0380 Uiso
loop_
_atom_site_aniso_label
_atom_site_aniso_U_11
_atom_site_aniso_U_22
_atom_site_aniso_U_33
_atom_site_aniso_U_23
_atom_site_aniso_U_13
_atom_site_aniso_U_12
C29 0.098 0.068 0.046 0.001 -0.019 0.047
N6 0.113 0.144 0.087 -0.01 -0.023 0.068
C31 0.089 0.132 0.032 -0.003 -0.011 0.071
C5 0.015 0.041 0.067 0.01 -0.017 -0.011
N2 0.029 0.037 0.054 0.008 -0.027 -0.006
Tb4 0.02186 0.01271 0.0218 0.0012 -0.01018 -0.00296
C3 0.028 0.017 0.047 -0.001 -0.003 -0.004
O10 0.049 0.012 0.068 0.005 -0.033 -0.006
O13 0.061 0.014 0.034 0.0069 -0.02 -0.004
C21 0.028 0.018 0.03 -0.004 -0.018 -0.006
C22 0.026 0.002 0.045 -0.001 -0.012 -0.001
C23 0.027 0.015 0.035 0.004 -0.012 -0.003
C30 0.028 0.019 0.034 0.007 -0.02 -0.001
Tb7 0.02304 0.01174 0.01637 0.00119 -0.01028 -0.00298
O7 0.032 0.048 0.0238 -0.0035 -0.0131 -0.0045
O8 0.035 0.035 0.019 0.0001 -0.0116 0.0083
O14 0.04 0.063 0.035 -0.014 -0.004 -0.009
C13 0.037 0.026 0.0168 0.0007 -0.0131 -0.0024
C14 0.035 0.034 0.02 -0.0013 -0.0131 0
C15 0.029 0.032 0.021 0.0007 -0.0135 -0.0015
C16 0.038 0.042 0.019 -0.0077 -0.0118 0.008
C17 0.037 0.038 0.023 -0.0008 -0.016 0.006
C18 0.06 0.037 0.032 -0.004 -0.03 0.014
C19 0.061 0.039 0.026 -0.008 -0.021 0.014
N5 0.047 0.057 0.029 0 -0.016 0.016
C26 0.077 0.049 0.035 0.003 -0.019 0.013
O1 0.032 0.018 0.022 -0.0015 -0.0027 -0.01
C1 0.022 0.018 0.049 -0.002 -0.021 -0.006
O2 0.03 0.01 0.05 0.002 -0.005 -0.004
O3 0.028 0.021 0.048 0 0 0.002
N1 0.034 0.019 0.045 0.014 -0.029 -0.007
O5 0.029 0.019 0.021 0.0033 -0.0048 -0.012
C2 0.029 0.01 0.03 0.001 -0.007 -0.008
O6 0.045 0.041 0.023 0 -0.022 0
C4 0.047 0.02 0.038 0.012 -0.02 0
C6 0.042 0.061 0.062 0.024 -0.021 -0.029
C7 0.031 0.032 0.046 0.02 -0.017 -0.011
C8 0.032 0.039 0.035 0.003 -0.019 -0.015
C9 0.021 0.028 0.028 -0.004 -0.011 0
C11 0.045 0.013 0.047 0 -0.023 -0.012
O11 0.037 0.039 0.029 -0.006 -0.017 0.011
O12 0.035 0.033 0.027 -0.0007 -0.018 0.0013
C12 0.033 0.023 0.023 0.0053 -0.018 -0.0075
N4 0.021 0.024 0.035 -0.004 -0.008 -0.009
C20 0.023 0.011 0.025 0.006 -0.007 -0.003
C24 0.028 0.027 0.037 0.013 -0.02 -0.011
C25 0.023 0.009 0.028 0 -0.01 -0.008
C27 0.03 0.002 0.027 0.005 -0.012 -0.009
C28 0.017 0.0022 0.028 0.0008 -0.0052 -0.0024
C32 0.041 0.024 0.033 0.016 -0.019 -0.004
C33 0.051 0.081 0.068 0.045 -0.036 -0.029
O15 0.044 0.019 0.038 -0.002 -0.018 -0.004
N8 0.029 0.033 0.044 0.022 -0.02 -0.009
O18 0.049 0.022 0.057 0.002 -0.036 -0.014
loop_
_geom_bond_atom_site_label_1
_geom_bond_atom_site_label_2
_geom_bond_site_symmetry_1
_geom_bond_site_symmetry_2
H14 C29 1_555 1_555
N6 C29 1_555 1_555
H16 C31 1_555 1_555
N6 C31 1_555 1_555
C5 H2 1_555 1_555
N2 C5 1_555 1_555
Tb4 N2 1_555 1_555
C3 O10 1_555 1_555
O10 Tb7 1_555 1_555
O13 C3 1_555 1_555
C21 H10 1_555 1_555
H11 C22 1_555 1_555
C23 C3 1_555 1_555
C30 C21 1_555 1_555
Tb7 O13 1_555 1_555
C21 C23 1_555 1_555
C22 C23 1_555 1_555
O7 C13 1_555 1_555
O8 C13 1_555 1_555
C13 C14 1_555 1_555
C14 C17 1_555 1_555
C16 C15 1_555 1_555
C17 C16 1_555 1_555
C18 C15 1_555 1_555
H8 C18 1_555 1_555
C19 C14 1_555 1_555
H9 C19 1_555 1_555
N5 C17 1_555 1_555
C26 N5 1_555 1_555
H13 C26 1_555 1_555
Tb7 O7 1_555 1_555
O8 Tb7 1_555 1_555
C18 C19 1_555 1_555
O14 H21 1_555 1_555
O14 H22 1_555 1_555
Tb4 O1 1_555 1_555
Tb7 O1 1_555 1_555
O1 C27 1_555 1_555
C1 N1 1_555 1_555
O2 Tb7 1_555 1_555
O3 Tb4 1_555 1_555
N1 C6 1_555 1_555
O5 Tb4 1_555 1_555
C2 C4 1_555 1_555
O6 Tb7 1_555 1_555
C4 H1 1_555 1_555
C6 H3 1_555 1_555
C7 H4 1_555 1_555
C8 C1 1_555 1_555
H5 C8 1_555 1_555
C9 O3 1_555 1_555
C10 C1 1_555 1_555
C11 C4 1_555 1_555
H6 C11 1_555 1_555
O11 Tb4 1_555 1_555
O12 Tb4 1_555 1_555
C12 O6 1_555 1_555
C20 N4 1_555 1_555
C24 C7 1_555 1_555
H12 C24 1_555 1_555
C25 C2 1_555 1_555
C27 O2 1_555 1_555
C28 C20 1_555 1_555
C32 N1 1_555 1_555
C33 C6 1_555 1_555
H18 C33 1_555 1_555
O15 Tb4 1_555 1_555
N8 Tb7 1_555 1_555
O18 Tb4 1_555 1_555
Tb7 O5 1_555 1_555
O5 C9 1_555 1_555
C2 C8 1_555 1_555
C9 C10 1_555 1_555
C10 C11 1_555 1_555
O12 C12 1_555 1_555
N4 C24 1_555 1_555
C27 C28 1_555 1_555
O11 H19 1_555 1_555
O11 H20 1_555 1_555

#END
