
###############################################################################
#
# This file contains modified crystal structure data generated from the
# MOF subset of the Cambridge Structural Database (CSD) v543 
# hosted by the Cambridge Crystallographic Data Centre (CCDC).
#
# This work is licensed under the Creative Commons
# Attribution-NonCommercial-ShareAlike 4.0 International License.
# To view a copy of this license, visit
# http://creativecommons.org/licenses/by-nc-sa/4.0/
# or send a letter to
# Creative Commons, PO Box 1866, Mountain View, CA 94042, USA.
#
# CIF created using the CSD Python API on 29 September 2022
# The structure has been converted into the P1 space group
# The structure has a 3D framework
# The original CSD entry TULNIZ is in the monoclinic crystal system
# The framework has been calculated to contain at least 10.0% void space
# The void calculation uses a probe of radius 1.32A, grid spacing 0.4
# The framework is charged, counterions have been retained in the structure
# H atom positions have been added when not included in the experimental data
#
###############################################################################

data_TULNIZ
_chemical_formula_moiety         '(C68 H64 Co4 N16 O18 S4)n'
_symmetry_cell_setting           triclinic
_symmetry_space_group_name_H-M   'P 1'
_symmetry_Int_Tables_number      1
_space_group_name_Hall           'P 1'
loop_
_symmetry_equiv_pos_site_id
_symmetry_equiv_pos_as_xyz
1 x,y,z
_cell_length_a                   14.944(3)
_cell_length_b                   16.940(3)
_cell_length_c                   10.384(2)
_cell_angle_alpha                90
_cell_angle_beta                 123.74(3)
_cell_angle_gamma                90
_cell_volume                     2185.96
loop_
_atom_site_label
_atom_site_type_symbol
_atom_site_fract_x
_atom_site_fract_y
_atom_site_fract_z
O5 O 0.3317(2) 0.76317(15) 0.0572(3)
O6 O 0.18549(18) 0.59753(12) 0.0145(2)
Co2 Co 0.15470(3) 0.54820(2) 0.17146(3)
Co1 Co 0.15470(3) 0.45180(2) 0.67146(3)
O1 O 0.14317(18) 0.49604(13) 0.8527(2)
O2 O 0.3241(2) 0.43575(17) 0.8388(3)
N2 N 0.1994(2) 0.57668(15) 0.6870(3)
O3 O 0.18549(18) 0.40247(12) 0.5145(2)
N3 N 0.1115(2) 0.33807(16) 0.7028(3)
C1 C 0.1742(2) 0.56537(18) 0.8982(3)
S1 S 0.23794(7) 0.63992(5) 0.60764(10)
C4 C 0.2018(2) 0.61408(17) 0.8031(3)
N4 N 0.2571(2) 0.71612(15) 0.7182(3)
C7 C 0.2335(2) 0.69454(18) 0.8189(4)
C9 C 0.2416(3) 0.75506(19) 0.9348(4)
O4 O 0.1585(2) 0.79226(16) 0.8941(3)
H15 H 0.335163 0.398889 0.920809
H16 H 0.357734 0.413497 0.786903
O1_2 O 0.14317(18) 0.50396(13) 0.3527(2)
O2_2 O 0.3241(2) 0.56425(17) 0.3388(3)
N2_2 N 0.1994(2) 0.42332(15) 0.1870(3)
N3_2 N 0.1115(2) 0.66193(16) 0.2028(3)
C1_2 C 0.1742(2) 0.43463(18) 0.3982(3)
S1_2 S 0.23794(7) 0.36008(5) 0.10764(10)
C4_2 C 0.2018(2) 0.38592(17) 0.3031(3)
N4_2 N 0.2571(2) 0.28388(15) 0.2182(3)
C7_2 C 0.2335(2) 0.30546(18) 0.3189(4)
C9_2 C 0.2416(3) 0.24494(19) 0.4348(4)
O4_2 O 0.1585(2) 0.20774(16) 0.3941(3)
O5_2 O 0.3317(2) 0.23683(15) 0.5572(3)
H15_2 H 0.335163 0.601111 0.420809
H16_2 H 0.357734 0.586503 0.286903
C12 C 0.0696(3) 0.11150(19) 0.8532(4)
H8 H 0.2297 0.0835 0.9821
H9 H 0.0517 0.0705 0.7774
H10 H 0.0124 0.1140 0.8709
C13 C 0.0784(3) 0.18981(19) 0.7915(4)
C14 C 0.0172(2) 0.2554(2) 0.7770(4)
C15 C 0.1534(3) 0.2011(2) 0.7544(5)
C16 C 0.0358(3) 0.3272(2) 0.7333(4)
H12 H 0.1948 0.1588 0.7590
C17 C 0.1672(3) 0.27413(19) 0.7110(4)
H14 H 0.2177 0.2795 0.6859
C2 C 0.4340(3) 0.9625(2) 0.9799(4)
C5 C 0.3310(3) 0.9476(2) 0.8534(4)
H3 H 0.2949 0.9025 0.8517
C8 C 0.2811(3) 0.99912(19) 0.7295(4)
C10 C 0.1708(3) 0.9818(2) 0.5852(4)
H5 H 0.1196 0.9736 0.6136
C11 C 0.1749(3) 0.9087(2) 0.5036(4)
C12_2 C 0.0696(3) 0.88850(19) 0.3532(4)
H7 H 0.1966 0.8641 0.5734
H8_2 H 0.2297 0.9165 0.4821
H9_2 H 0.0517 0.9295 0.2774
H10_2 H 0.0124 0.8860 0.3709
C13_2 C 0.0784(3) 0.81019(19) 0.2915(4)
C14_2 C 0.0172(2) 0.7446(2) 0.2770(4)
C15_2 C 0.1534(3) 0.7989(2) 0.2544(5)
C16_2 C 0.0358(3) 0.6728(2) 0.2333(4)
H12_2 H 0.1948 0.8412 0.2590
C17_2 C 0.1672(3) 0.72587(19) 0.2110(4)
H14_2 H 0.2177 0.7205 0.1859
N1 N 0.9909(2) 0.47405(16) 0.4898(3)
C2_2 C 0.9340(3) 0.5375(2) 0.4799(4)
C3 C 0.9406(3) 0.42296(19) 0.3708(4)
C5_2 C 0.8310(3) 0.5524(2) 0.3534(4)
H1 H 0.9652 0.5732 0.5617
C6 C 0.8387(3) 0.43427(19) 0.2404(4)
H2 H 0.9769 0.3770 0.3770
H3_2 H 0.7949 0.5975 0.3517
C8_2 C 0.7811(3) 0.50088(19) 0.2295(4)
H4 H 0.8089 0.3975 0.1604
C10_2 C 0.6708(3) 0.5182(2) 0.0852(4)
H5_2 H 0.6196 0.5264 0.1136
H6 H 0.6467 0.4733 0.0155
C11_2 C 0.6749(3) 0.5913(2) 0.0036(4)
H7_2 H 0.6966 0.6359 0.0734
C12_3 C 0.5696(3) 0.61150(19) 0.8532(4)
H8_3 H 0.7297 0.5835 0.9821
H9_3 H 0.5517 0.5705 0.7774
H10_3 H 0.5124 0.6140 0.8709
C13_3 C 0.5784(3) 0.68981(19) 0.7915(4)
C14_3 C 0.5172(2) 0.7554(2) 0.7770(4)
C15_3 C 0.6534(3) 0.7011(2) 0.7544(5)
H11 H 0.4639 0.7508 0.7969
C16_3 C 0.5358(3) 0.8272(2) 0.7333(4)
H12_3 H 0.6948 0.6588 0.7590
C17_3 C 0.6672(3) 0.77413(19) 0.7110(4)
H13 H 0.4939 0.8701 0.7244
H14_3 H 0.7177 0.7795 0.6859
N5 N 0.6115(2) 0.83807(16) 0.7028(3)
Co3 Co 0.65470(3) 0.95180(2) 0.67146(3)
O1_3 O 0.64317(18) 0.99604(13) 0.8527(2)
N1_2 N 0.4909(2) 0.97405(16) 0.4898(3)
O2_3 O 0.8241(2) 0.93575(17) 0.8388(3)
O3_2 O 0.68549(18) 0.90247(12) 0.5145(2)
C3_2 C 0.4406(3) 0.92296(19) 0.3708(4)
C6_2 C 0.3387(3) 0.93427(19) 0.2404(4)
H2_2 H 0.4769 0.8770 0.3770
H4_2 H 0.3089 0.8975 0.1604
H6_2 H 0.1467 0.9733 0.0155
H15_3 H 0.835163 0.898889 0.920809
H16_3 H 0.857734 0.913497 0.786903
N2_3 N 0.6994(2) 0.92332(15) 0.1870(3)
C1_3 C 0.6742(2) 0.93463(18) 0.3982(3)
S1_3 S 0.73794(7) 0.86008(5) 0.10764(10)
C4_3 C 0.7018(2) 0.88592(17) 0.3031(3)
H1_2 H 0.4652 0.9268 0.0617
N4_3 N 0.7571(2) 0.78388(15) 0.2182(3)
C7_3 C 0.7335(2) 0.80546(18) 0.3189(4)
C9_3 C 0.7416(3) 0.74494(19) 0.4348(4)
O4_3 O 0.6585(2) 0.70774(16) 0.3941(3)
O5_3 O 0.8317(2) 0.73683(15) 0.5572(3)
H1_3 H 0.9652 0.4268 0.0617
N1_3 N 0.9909(2) 0.52595(16) 0.9898(3)
C2_3 C 0.9340(3) 0.4625(2) 0.9799(4)
C3_3 C 0.9406(3) 0.57704(19) 0.8708(4)
C5_3 C 0.8310(3) 0.4476(2) 0.8534(4)
C6_3 C 0.8387(3) 0.56573(19) 0.7404(4)
H2_3 H 0.9769 0.6230 0.8770
H3_3 H 0.7949 0.4025 0.8517
C8_3 C 0.7811(3) 0.49912(19) 0.7295(4)
H4_3 H 0.8089 0.6025 0.6604
C10_3 C 0.6708(3) 0.4818(2) 0.5852(4)
H5_3 H 0.6196 0.4736 0.6136
H6_3 H 0.6467 0.5267 0.5155
C11_3 C 0.6749(3) 0.4087(2) 0.5036(4)
C12_4 C 0.5696(3) 0.38850(19) 0.3532(4)
H7_3 H 0.6966 0.3641 0.5734
H8_4 H 0.7297 0.4165 0.4821
H9_4 H 0.5517 0.4295 0.2774
H10_4 H 0.5124 0.3860 0.3709
C13_4 C 0.5784(3) 0.31019(19) 0.2915(4)
C14_4 C 0.5172(2) 0.2446(2) 0.2770(4)
C15_4 C 0.6534(3) 0.2989(2) 0.2544(5)
H11_2 H 0.4639 0.2492 0.2969
C16_4 C 0.5358(3) 0.1728(2) 0.2333(4)
H12_4 H 0.6948 0.3412 0.2590
C17_4 C 0.6672(3) 0.22587(19) 0.2110(4)
H13_2 H 0.4939 0.1299 0.2244
H14_4 H 0.7177 0.2205 0.1859
N5_2 N 0.6115(2) 0.16193(16) 0.2028(3)
Co3_2 Co 0.65470(3) 0.04820(2) 0.17146(3)
O5_4 O 0.8317(2) 0.26317(15) 0.0572(3)
O6_2 O 0.68549(18) 0.09753(12) 0.0145(2)
O1_4 O 0.64317(18) 0.00396(13) 0.3527(2)
O2_4 O 0.8241(2) 0.06425(17) 0.3388(3)
H15_4 H 0.835163 0.101111 0.420809
H16_4 H 0.857734 0.0865034 0.286903
N2_4 N 0.6994(2) 0.07668(15) 0.6870(3)
C1_4 C 0.6742(2) 0.06537(18) 0.8982(3)
C2_4 C 0.4340(3) 0.0375(2) 0.4799(4)
S1_4 S 0.73794(7) 0.13992(5) 0.60764(10)
C4_4 C 0.7018(2) 0.11408(17) 0.8031(3)
C5_4 C 0.3310(3) 0.0524(2) 0.3534(4)
H1_4 H 0.4652 0.0732 0.5617
N4_4 N 0.7571(2) 0.21612(15) 0.7182(3)
C7_4 C 0.7335(2) 0.19454(18) 0.8189(4)
H3_4 H 0.2949 0.0975 0.3517
C8_4 C 0.2811(3) 0.00088(19) 0.2295(4)
C9_4 C 0.7416(3) 0.25506(19) 0.9348(4)
C10_4 C 0.1708(3) 0.0182(2) 0.0852(4)
O4_4 O 0.6585(2) 0.29226(16) 0.8941(3)
H5_4 H 0.1196 0.0264 0.1136
C11_4 C 0.1749(3) 0.0913(2) 0.0036(4)
H7_4 H 0.1966 0.1359 0.0734
H11_3 H 0.9639 0.2508 0.7969
H13_3 H 0.9939 0.3701 0.7244
N1_4 N 0.4909(2) 0.02595(16) 0.9898(3)
C3_4 C 0.4406(3) 0.07704(19) 0.8708(4)
C6_4 C 0.3387(3) 0.06573(19) 0.7404(4)
H2_4 H 0.4769 0.1230 0.8770
H4_4 H 0.3089 0.1025 0.6604
H6_4 H 0.1467 0.0267 0.5155
H11_4 H 0.9639 0.7492 0.2969
H13_4 H 0.9939 0.6299 0.2244
loop_
_geom_bond_atom_site_label_1
_geom_bond_atom_site_label_2
_geom_bond_site_symmetry_1
_geom_bond_site_symmetry_2
Co2 O6 1_555 1_555
Co1 O1 1_555 1_555
O1 C1 1_555 1_555
O2 Co1 1_555 1_555
N2 Co1 1_555 1_555
O3 Co1 1_555 1_555
N3 Co1 1_555 1_555
C1 C4 1_555 1_555
S1 N2 1_555 1_555
C4 N2 1_555 1_555
N4 S1 1_555 1_555
C7 C4 1_555 1_555
C9 C7 1_555 1_555
O4 C9 1_555 1_555
N4 C7 1_555 1_555
O2 H15 1_555 1_555
O2 H16 1_555 1_555
Co2 O1_2 1_555 1_555
O1_2 C1_2 1_555 1_555
O2_2 Co2 1_555 1_555
N2_2 Co2 1_555 1_555
N3_2 Co2 1_555 1_555
C1_2 C4_2 1_555 1_555
S1_2 N2_2 1_555 1_555
C4_2 N2_2 1_555 1_555
N4_2 S1_2 1_555 1_555
C7_2 C4_2 1_555 1_555
C9_2 C7_2 1_555 1_555
O4_2 C9_2 1_555 1_555
O5_2 C9_2 1_555 1_555
O3 C1_2 1_555 1_555
N4_2 C7_2 1_555 1_555
O2_2 H15_2 1_555 1_555
O2_2 H16_2 1_555 1_555
H9 C12 1_555 1_555
H10 C12 1_555 1_555
C13 C12 1_555 1_555
C14 C13 1_555 1_555
C15 C13 1_555 1_555
C16 C14 1_555 1_555
H12 C15 1_555 1_555
C17 C15 1_555 1_555
H14 C17 1_555 1_555
N3 C16 1_555 1_555
C17 N3 1_555 1_555
C5 C2 1_555 1_555
H3 C5 1_555 1_555
C8 C5 1_555 1_555
C10 C8 1_555 1_555
H5 C10 1_555 1_555
C11 C10 1_555 1_555
C12_2 C11 1_555 1_555
H7 C11 1_555 1_555
H8_2 C11 1_555 1_555
H9_2 C12_2 1_555 1_555
H10_2 C12_2 1_555 1_555
C13_2 C12_2 1_555 1_555
C14_2 C13_2 1_555 1_555
C15_2 C13_2 1_555 1_555
C16_2 C14_2 1_555 1_555
H12_2 C15_2 1_555 1_555
C17_2 C15_2 1_555 1_555
H14_2 C17_2 1_555 1_555
N3_2 C16_2 1_555 1_555
C17_2 N3_2 1_555 1_555
C2_2 N1 1_555 1_555
C3 N1 1_555 1_555
C5_2 C2_2 1_555 1_555
H1 C2_2 1_555 1_555
C6 C3 1_555 1_555
H2 C3 1_555 1_555
H3_2 C5_2 1_555 1_555
C8_2 C5_2 1_555 1_555
H4 C6 1_555 1_555
C10_2 C8_2 1_555 1_555
H5_2 C10_2 1_555 1_555
H6 C10_2 1_555 1_555
C11_2 C10_2 1_555 1_555
H7_2 C11_2 1_555 1_555
C6 C8_2 1_555 1_555
H9_3 C12_3 1_555 1_555
H10_3 C12_3 1_555 1_555
C13_3 C12_3 1_555 1_555
C14_3 C13_3 1_555 1_555
C15_3 C13_3 1_555 1_555
H11 C14_3 1_555 1_555
C16_3 C14_3 1_555 1_555
H12_3 C15_3 1_555 1_555
C17_3 C15_3 1_555 1_555
H13 C16_3 1_555 1_555
H14_3 C17_3 1_555 1_555
N5 C16_3 1_555 1_555
Co3 N5 1_555 1_555
C17_3 N5 1_555 1_555
Co3 O1_3 1_555 1_555
N1_2 Co3 1_555 1_555
O2_3 Co3 1_555 1_555
O3_2 Co3 1_555 1_555
C3_2 N1_2 1_555 1_555
C6_2 C3_2 1_555 1_555
H2_2 C3_2 1_555 1_555
H4_2 C6_2 1_555 1_555
O2_3 H15_3 1_555 1_555
O2_3 H16_3 1_555 1_555
C1_3 C4_3 1_555 1_555
S1_3 N2_3 1_555 1_555
C4_3 N2_3 1_555 1_555
N4_3 S1_3 1_555 1_555
C7_3 C4_3 1_555 1_555
C9_3 C7_3 1_555 1_555
O4_3 C9_3 1_555 1_555
O5_3 C9_3 1_555 1_555
O3_2 C1_3 1_555 1_555
N4_3 C7_3 1_555 1_555
C2_3 N1_3 1_555 1_555
C3_3 N1_3 1_555 1_555
C5_3 C2_3 1_555 1_555
C6_3 C3_3 1_555 1_555
H2_3 C3_3 1_555 1_555
H3_3 C5_3 1_555 1_555
C8_3 C5_3 1_555 1_555
H4_3 C6_3 1_555 1_555
C10_3 C8_3 1_555 1_555
H5_3 C10_3 1_555 1_555
H6_3 C10_3 1_555 1_555
C11_3 C10_3 1_555 1_555
C12_4 C11_3 1_555 1_555
H7_3 C11_3 1_555 1_555
H8_4 C11_3 1_555 1_555
H9_4 C12_4 1_555 1_555
H10_4 C12_4 1_555 1_555
C13_4 C12_4 1_555 1_555
C14_4 C13_4 1_555 1_555
C15_4 C13_4 1_555 1_555
H11_2 C14_4 1_555 1_555
C16_4 C14_4 1_555 1_555
H12_4 C15_4 1_555 1_555
C17_4 C15_4 1_555 1_555
H13_2 C16_4 1_555 1_555
H14_4 C17_4 1_555 1_555
N5_2 C16_4 1_555 1_555
Co3_2 N5_2 1_555 1_555
C6_3 C8_3 1_555 1_555
C17_4 N5_2 1_555 1_555
Co3_2 O6_2 1_555 1_555
Co3_2 O1_4 1_555 1_555
O2_4 Co3_2 1_555 1_555
O2_4 H15_4 1_555 1_555
O2_4 H16_4 1_555 1_555
C1_4 C4_4 1_555 1_555
S1_4 N2_4 1_555 1_555
C4_4 N2_4 1_555 1_555
C5_4 C2_4 1_555 1_555
H1_4 C2_4 1_555 1_555
N4_4 S1_4 1_555 1_555
C7_4 C4_4 1_555 1_555
H3_4 C5_4 1_555 1_555
C8_4 C5_4 1_555 1_555
C9_4 C7_4 1_555 1_555
C10_4 C8_4 1_555 1_555
O4_4 C9_4 1_555 1_555
H5_4 C10_4 1_555 1_555
C11_4 C10_4 1_555 1_555
H7_4 C11_4 1_555 1_555
N4_4 C7_4 1_555 1_555
C3_4 N1_4 1_555 1_555
C6_4 C3_4 1_555 1_555
H2_4 C3_4 1_555 1_555
H4_4 C6_4 1_555 1_555

#END
