
###############################################################################
#
# This file contains modified crystal structure data generated from the
# MOF subset of the Cambridge Structural Database (CSD) v543 
# hosted by the Cambridge Crystallographic Data Centre (CCDC).
#
# This work is licensed under the Creative Commons
# Attribution-NonCommercial-ShareAlike 4.0 International License.
# To view a copy of this license, visit
# http://creativecommons.org/licenses/by-nc-sa/4.0/
# or send a letter to
# Creative Commons, PO Box 1866, Mountain View, CA 94042, USA.
#
# CIF created using the CSD Python API on 29 September 2022
# The structure has been converted into the P1 space group
# The structure has a 3D framework
# The original CSD entry TULPUO is in the monoclinic crystal system
# The framework has been calculated to contain at least 10.0% void space
# The void calculation uses a probe of radius 1.32A, grid spacing 0.4
#
###############################################################################

data_TULPUO
_chemical_formula_moiety         '(C24 H24 Mg18 O45)n'
_symmetry_cell_setting           triclinic
_symmetry_space_group_name_H-M   'P 1'
_symmetry_Int_Tables_number      1
_space_group_name_Hall           'P 1'
loop_
_symmetry_equiv_pos_site_id
_symmetry_equiv_pos_as_xyz
1 x,y,z
_cell_length_a                   11.350(2)
_cell_length_b                   9.864(2)
_cell_length_c                   14.566(3)
_cell_angle_alpha                90
_cell_angle_beta                 91.40(3)
_cell_angle_gamma                90
_cell_volume                     1630.27
loop_
_atom_site_label
_atom_site_type_symbol
_atom_site_fract_x
_atom_site_fract_y
_atom_site_fract_z
Mg9 Mg 0.000000 0.000000 0.500000
Mg9_2 Mg 0.000000 1.000000 0.500000
Mg1 Mg 0.500000 0.500000 0.000000
Mg2 Mg 0.74363(5) 0.07805(6) 0.36519(4)
Mg3 Mg 0.500000 0.000000 0.500000
Mg4 Mg 0.73952(5) 0.38744(6) 0.30942(4)
O1 O 0.80776(10) 0.69922(12) 0.24687(8)
O2 O 0.63112(10) 0.49277(12) 0.21980(9)
O3 O 0.65707(10) 0.75507(12) 0.11166(8)
O6 O 0.60149(10) 0.15110(12) 0.43722(8)
O7 O 0.81404(11) 0.55590(12) 0.36611(9)
O8 O 0.61103(11) 0.37251(12) 0.40277(9)
O11 O 0.51931(11) 0.70724(13) 0.00360(9)
O12 O 0.46269(11) 0.49846(13) 0.13750(9)
C1 C 0.82948(14) 0.66877(17) 0.33065(12)
H1 H 0.860155 0.738535 0.369320
C2 C 0.56902(15) 0.27519(17) 0.44433(12)
H2 H 0.507141 0.293995 0.485194
C3 C 0.51974(14) 0.48254(18) 0.20976(12)
H3 H 0.476654 0.460627 0.262848
C6 C 0.57822(15) 0.78710(18) 0.05091(12)
H6 H 0.563893 0.881023 0.041497
O15 O 0.18312(10) 0.02573(12) 0.52499(8)
O16 O 0.34916(10) 0.08257(12) 0.69624(8)
O20 O 0.35031(11) 0.10520(13) 0.46667(9)
O21 O 0.51674(11) 0.10752(13) 0.62024(9)
C10 C 0.45071(15) 0.13293(18) 0.68412(12)
H10 H 0.478548 0.196430 0.728632
C11 C 0.24196(15) 0.09991(18) 0.47046(12)
H11 H 0.198145 0.156063 0.429086
Mg9_3 Mg 1.000000 0.000000 0.500000
Mg10 Mg 0.75637(5) 0.57805(6) 0.13481(4)
Mg14 Mg 0.76048(5) 0.88744(6) 0.19058(4)
Mg17 Mg 0.23952(5) 0.11256(6) 0.80942(4)
O25 O 0.69224(10) 0.19922(12) 0.25313(8)
O28 O 0.13112(10) 0.00723(12) 0.71980(9)
O29 O 0.84293(10) 0.25507(12) 0.38834(8)
O31 O 0.68312(10) 0.47427(12) 0.02499(8)
O33 O 0.84916(10) 0.41743(12) 0.19624(8)
Mg1_2 Mg 0.500000 0.500000 1.000000
O23 O 0.34293(10) 0.24493(12) 0.88834(8)
O24 O 0.48069(11) 0.29276(13) 0.99640(9)
C12 C 0.42178(15) 0.21290(18) 0.94909(12)
H12 H 0.436107 0.118977 0.958503
Mg12 Mg 0.24363(5) 0.42195(6) 0.86519(4)
O32 O 0.31688(10) 0.52573(12) 0.97501(8)
O35 O 0.53731(11) 0.50154(13) 0.86250(9)
Mg3_2 Mg 0.500000 1.000000 0.500000
O4 O 0.81688(10) 0.97427(12) 0.47501(8)
O5 O 0.65084(10) 0.91743(12) 0.30376(8)
O9 O 0.64969(11) 0.89480(13) 0.53333(9)
O10 O 0.48326(11) 0.89248(13) 0.37976(9)
C4 C 0.54929(15) 0.86707(18) 0.31588(12)
H4 H 0.521452 0.803570 0.271368
C5 C 0.75804(15) 0.90009(18) 0.52954(12)
H5 H 0.801855 0.843937 0.570914
Mg5 Mg 0.25637(5) 0.92195(6) 0.63481(4)
Mg6 Mg 0.26048(5) 0.61256(6) 0.69058(4)
O13 O 0.19224(10) 0.30078(12) 0.75313(8)
O14 O 0.36888(10) 0.50723(12) 0.78020(9)
O17 O 0.39851(10) 0.84890(12) 0.56278(8)
O18 O 0.18596(11) 0.44410(12) 0.63389(9)
O19 O 0.38897(11) 0.62749(12) 0.59723(9)
C7 C 0.17052(14) 0.33123(17) 0.66935(12)
H7 H 0.139845 0.261465 0.630680
C8 C 0.43098(15) 0.72481(17) 0.55567(12)
H8 H 0.492859 0.706005 0.514806
C9 C 0.48026(14) 0.51746(18) 0.79024(12)
H9 H 0.523346 0.539373 0.737152
Mg9_4 Mg 1.000000 1.000000 0.500000
O26 O 0.30776(10) 0.80078(12) 0.74687(8)
O27 O 0.86888(10) 0.99277(12) 0.28020(9)
O30 O 0.15707(10) 0.74493(12) 0.61166(8)
O34 O 0.15084(10) 0.58257(12) 0.80376(8)
Mg3_3 Mg -0.000000 0.500000 0.000000
O10_2 O 0.01674(11) 0.39248(13) 0.12024(9)
O12_2 O 0.03731(11) 0.99846(13) 0.36250(9)
H3_2 H 0.023346 0.960627 0.237152
O20_2 O 0.14969(11) 0.60520(13) 0.03333(9)
C11_2 C 0.25804(15) 0.59991(18) 0.02954(12)
H11_2 H 0.301855 0.656063 0.070914
O24_2 O 0.01931(11) 0.79276(13) 0.50360(9)
C12_2 C 0.07822(15) 0.71290(18) 0.55091(12)
H12_2 H 0.063893 0.618977 0.541497
Mg3_4 Mg -0.000000 0.500000 1.000000
O17_2 O 0.10149(10) 0.34890(12) 0.93722(8)
O19_2 O 0.11103(11) 0.12749(12) 0.90277(9)
C8_2 C 0.06902(15) 0.22481(17) 0.94433(12)
H8_2 H 0.007141 0.206005 0.985194
C9_2 C 0.01974(14) 0.01746(18) 0.70976(12)
C10_2 C 0.04929(15) 0.63293(18) 0.81588(12)
H10_2 H 0.021452 0.696430 0.771368
O18_2 O 0.31404(11) 0.94410(12) 0.86611(9)
C7_2 C 0.32948(14) 0.83123(17) 0.83065(12)
H7_2 H 0.360155 0.761465 0.869320
O7_2 O 0.68596(11) 0.05590(12) 0.13389(9)
O11_2 O 0.98069(11) 0.20724(13) 0.49640(9)
C1_2 C 0.67052(14) 0.16877(17) 0.16935(12)
H1_2 H 0.639845 0.238535 0.130680
C6_2 C 0.92178(15) 0.28710(18) 0.44909(12)
H6_2 H 0.936107 0.381023 0.458503
O35_2 O 0.96269(11) 0.00154(13) 0.63750(9)
Mg3_5 Mg 1.000000 0.500000 0.000000
O6_2 O 0.89851(10) 0.65110(12) 0.06278(8)
O8_2 O 0.88897(11) 0.87251(12) 0.09723(9)
C2_2 C 0.93098(15) 0.77519(17) 0.05567(12)
H2_2 H 0.992859 0.793995 0.014806
C3_2 C 0.98026(14) 0.98254(18) 0.29024(12)
C4_2 C 0.95071(15) 0.36707(18) 0.18412(12)
H4_2 H 0.978548 0.303570 0.228632
Mg3_6 Mg 1.000000 0.500000 1.000000
O9_2 O 0.85031(11) 0.39480(13) 0.96667(9)
C5_2 C 0.74196(15) 0.40009(18) 0.97046(12)
H5_2 H 0.698145 0.343937 0.929086
O21_2 O 0.98326(11) 0.60752(13) 0.87976(9)
H9_2 H 0.976654 0.039373 0.762848
loop_
_geom_bond_atom_site_label_1
_geom_bond_atom_site_label_2
_geom_bond_site_symmetry_1
_geom_bond_site_symmetry_2
Mg1 O11 1_555 1_555
Mg3 O6 1_555 1_555
Mg4 O2 1_555 1_555
O1 C1 1_555 1_555
O2 C3 1_555 1_555
O3 C6 1_555 1_555
O6 Mg2 1_555 1_555
O7 Mg4 1_555 1_555
O8 Mg4 1_555 1_555
O11 C6 1_555 1_555
O12 Mg1 1_555 1_555
C1 O7 1_555 1_555
H1 C1 1_555 1_555
C2 O6 1_555 1_555
H2 C2 1_555 1_555
C3 O12 1_555 1_555
H3 C3 1_555 1_555
C6 H6 1_555 1_555
O15 C11 1_555 1_555
O20 Mg3 1_555 1_555
O21 Mg3 1_555 1_555
C10 O16 1_555 1_555
H10 C10 1_555 1_555
C11 O20 1_555 1_555
H11 C11 1_555 1_555
Mg9 O15 1_555 1_555
Mg10 O1 1_555 1_555
Mg14 O1 1_555 1_555
Mg17 O16 1_555 1_555
O25 Mg2 1_555 1_555
O29 Mg2 1_555 1_555
O31 Mg1 1_555 1_555
O33 Mg4 1_555 1_555
Mg4 O25 1_555 1_555
Mg4 O29 1_555 1_555
O2 Mg10 1_555 1_555
O3 Mg10 1_555 1_555
O3 Mg14 1_555 1_555
O8 C2 1_555 1_555
O21 C10 1_555 1_555
Mg10 O31 1_555 1_555
Mg10 O33 1_555 1_555
Mg17 O28 1_555 1_555
O23 C12 1_555 1_555
O24 Mg1_2 1_555 1_555
C12 O24 1_555 1_555
H12 C12 1_555 1_555
Mg12 O23 1_555 1_555
Mg17 O23 1_555 1_555
O32 Mg1_2 1_555 1_555
O35 Mg1_2 1_555 1_555
Mg12 O32 1_555 1_555
O4 C5 1_555 1_555
O9 Mg3_2 1_555 1_555
O10 Mg3_2 1_555 1_555
C4 O5 1_555 1_555
H4 C4 1_555 1_555
C5 O9 1_555 1_555
H5 C5 1_555 1_555
Mg6 O14 1_555 1_555
O13 C7 1_555 1_555
O14 C9 1_555 1_555
O17 Mg3_2 1_555 1_555
O18 Mg6 1_555 1_555
O19 Mg6 1_555 1_555
O35 C9 1_555 1_555
C7 O18 1_555 1_555
H7 C7 1_555 1_555
C8 O17 1_555 1_555
H8 C8 1_555 1_555
C9 H9 1_555 1_555
Mg9_4 O4 1_555 1_555
Mg12 O13 1_555 1_555
Mg14 O5 1_555 1_555
Mg17 O13 1_555 1_555
O26 Mg5 1_555 1_555
O30 Mg5 1_555 1_555
O34 Mg6 1_555 1_555
O10 C4 1_555 1_555
Mg5 O17 1_555 1_555
Mg6 O26 1_555 1_555
Mg6 O30 1_555 1_555
O14 Mg12 1_555 1_555
O19 C8 1_555 1_555
Mg12 O34 1_555 1_555
Mg14 O27 1_555 1_555
O10_2 Mg3_3 1_555 1_555
O12_2 Mg9_2 1_555 1_555
O20_2 Mg3_3 1_555 1_555
C11_2 O20_2 1_555 1_555
H11_2 C11_2 1_555 1_555
O30 C12_2 1_555 1_555
O24_2 Mg9_2 1_555 1_555
C12_2 O24_2 1_555 1_555
H12_2 C12_2 1_555 1_555
O28 C9_2 1_555 1_555
O17_2 Mg3_4 1_555 1_555
O19_2 Mg17 1_555 1_555
C8_2 O17_2 1_555 1_555
H8_2 C8_2 1_555 1_555
C10_2 O34 1_555 1_555
H10_2 C10_2 1_555 1_555
Mg12 O17_2 1_555 1_555
O19_2 C8_2 1_555 1_555
O26 C7_2 1_555 1_555
C7_2 O18_2 1_555 1_555
H7_2 C7_2 1_555 1_555
Mg9_3 O11_2 1_555 1_555
O25 C1_2 1_555 1_555
O29 C6_2 1_555 1_555
O11_2 C6_2 1_555 1_555
C1_2 O7_2 1_555 1_555
H1_2 C1_2 1_555 1_555
C6_2 H6_2 1_555 1_555
O35_2 Mg9_3 1_555 1_555
Mg3_5 O6_2 1_555 1_555
O27 C3_2 1_555 1_555
O6_2 Mg10 1_555 1_555
O8_2 Mg14 1_555 1_555
C2_2 O6_2 1_555 1_555
H2_2 C2_2 1_555 1_555
C4_2 O33 1_555 1_555
H4_2 C4_2 1_555 1_555
O8_2 C2_2 1_555 1_555
O9_2 Mg3_6 1_555 1_555
C5_2 O9_2 1_555 1_555
H5_2 C5_2 1_555 1_555
O21_2 Mg3_6 1_555 1_555

#END
