
###############################################################################
#
# This file contains modified crystal structure data generated from the
# MOF subset of the Cambridge Structural Database (CSD) v543 
# hosted by the Cambridge Crystallographic Data Centre (CCDC).
#
# This work is licensed under the Creative Commons
# Attribution-NonCommercial-ShareAlike 4.0 International License.
# To view a copy of this license, visit
# http://creativecommons.org/licenses/by-nc-sa/4.0/
# or send a letter to
# Creative Commons, PO Box 1866, Mountain View, CA 94042, USA.
#
# CIF created using the CSD Python API on 29 September 2022
# The structure has been converted into the P1 space group
# The structure has a 3D framework
# The original CSD entry TULQEZ is in the monoclinic crystal system
# The framework has been calculated to contain at least 10.0% void space
# The void calculation uses a probe of radius 1.32A, grid spacing 0.4
#
###############################################################################

data_TULQEZ
_chemical_formula_moiety         '(C24 H24 Co17 O45)n'
_symmetry_cell_setting           triclinic
_symmetry_space_group_name_H-M   'P 1'
_symmetry_Int_Tables_number      1
_space_group_name_Hall           'P 1'
loop_
_symmetry_equiv_pos_site_id
_symmetry_equiv_pos_as_xyz
1 x,y,z
_cell_length_a                   11.269(2)
_cell_length_b                   9.848(2)
_cell_length_c                   14.466(3)
_cell_angle_alpha                90
_cell_angle_beta                 91.16(3)
_cell_angle_gamma                90
_cell_volume                     1605.07
loop_
_atom_site_label
_atom_site_type_symbol
_atom_site_fract_x
_atom_site_fract_y
_atom_site_fract_z
Co15 Co 0.000000 -0.000000 0.500000
Co15_2 Co 0.000000 1.000000 0.500000
Co4 Co 0.500000 0.500000 -0.000000
O9 O 0.48142(10) 0.70868(11) 0.00289(7)
O30 O 0.68434(9) 0.52787(10) 0.02361(7)
O35 O 0.45746(10) 0.49372(12) 0.14002(8)
Co1 Co 0.25532(2) 0.07826(2) 0.63314(2)
Co2 Co 0.25966(2) 0.38845(2) 0.68945(2)
Co3 Co 0.500000 -0.000000 0.500000
Co4_2 Co 0.500000 0.500000 1.000000
O1 O 0.19102(9) 0.69917(10) 0.75483(7)
O2 O 0.64996(9) 0.08448(10) 0.30488(7)
O4 O 0.34687(9) 0.75580(10) 0.89117(7)
O5 O 0.37066(9) 0.49415(10) 0.78067(7)
O6 O 0.18284(10) 0.55865(10) 0.63239(7)
O7 O 0.39676(9) 0.15376(10) 0.56030(7)
O8 O 0.38666(10) 0.37722(10) 0.59140(7)
O10 O 0.47635(10) 0.10507(12) 0.37668(8)
O12 O 0.54254(10) 0.50628(12) 0.85998(8)
C1 C 0.16926(13) 0.67104(14) 0.67019(10)
H1 H 0.139827 0.742741 0.632255
C2 C 0.42814(12) 0.27788(14) 0.55008(10)
H2 H 0.488693 0.295556 0.506949
C3 C 0.54541(13) 0.13034(15) 0.31341(10)
H3 H 0.517259 0.190246 0.266397
C5 C 0.42307(13) 0.78829(14) 0.95381(10)
H5 H 0.436243 0.882504 0.963706
C6 C 0.48364(12) 0.48715(14) 0.78846(10)
H6 H 0.525980 0.465258 0.734328
O15 O 0.81566(9) 0.02787(10) 0.47639(7)
O21 O 0.64849(9) 0.11589(11) 0.53301(8)
C10 C 0.75743(12) 0.10716(14) 0.52938(10)
H10 H 0.802518 0.164475 0.569559
O23 O 0.15313(9) 0.25580(10) 0.60883(7)
O24 O 0.01858(10) 0.20868(11) 0.49711(7)
C12 C 0.07693(13) 0.28829(14) 0.54619(10)
H12 H 0.063757 0.382504 0.536294
Co7 Co 0.24468(2) 0.57826(2) 0.86686(2)
Co10 Co 0.24034(2) 0.88845(2) 0.81055(2)
Co12 Co 0.75966(2) 0.11155(2) 0.18945(2)
Co15_3 Co 1.000000 -0.000000 0.500000
O25 O 0.30898(9) 0.19917(10) 0.74517(7)
O28 O 0.14996(9) 0.41552(10) 0.80488(7)
O29 O 0.31566(9) 0.47213(10) 0.97639(7)
O33 O 0.87066(9) 0.00585(10) 0.28067(7)
O34 O 0.51858(10) 0.29132(11) 0.99711(7)
Co3_2 Co 0.500000 1.000000 0.500000
O3 O 0.18434(9) 0.97213(10) 0.52361(7)
O11 O 0.35151(9) 0.88411(11) 0.46699(8)
C4 C 0.24257(12) 0.89284(14) 0.47062(10)
H4 H 0.197482 0.835525 0.430441
Co5 Co 0.74468(2) 0.92174(2) 0.36686(2)
Co6 Co 0.74034(2) 0.61155(2) 0.31055(2)
O13 O 0.80898(9) 0.30083(10) 0.24517(7)
O14 O 0.35004(9) 0.91552(10) 0.69512(7)
O16 O 0.62934(9) 0.50585(10) 0.21933(7)
O17 O 0.81716(10) 0.44135(10) 0.36761(7)
O18 O 0.60324(9) 0.84624(10) 0.43970(7)
O19 O 0.61334(10) 0.62278(10) 0.40860(7)
O20 O 0.52365(10) 0.89493(12) 0.62332(8)
C7 C 0.83074(13) 0.32896(14) 0.32981(10)
H7 H 0.860173 0.257259 0.367745
C8 C 0.57186(12) 0.72212(14) 0.44992(10)
H8 H 0.511307 0.704444 0.493051
C9 C 0.45459(13) 0.86966(15) 0.68659(10)
H9 H 0.482741 0.809754 0.733603
C11 C 0.51636(12) 0.51285(14) 0.21154(10)
H11 H 0.474020 0.534742 0.265672
Co8 Co 0.75532(2) 0.42174(2) 0.13314(2)
Co15_4 Co 1.000000 1.000000 0.500000
O26 O 0.69102(9) 0.80083(10) 0.25483(7)
O27 O 0.85004(9) 0.58448(10) 0.19512(7)
O31 O 0.84687(9) 0.74420(10) 0.39117(7)
O32 O 0.12934(9) 0.99415(10) 0.71933(7)
O6_2 O 0.31716(10) 0.05865(10) 0.86761(7)
C1_2 C 0.33074(13) 0.17104(14) 0.82981(10)
H1_2 H 0.360173 0.242741 0.867745
Co3_3 Co -0.000000 0.500000 0.000000
O10_2 O 0.02365(10) 0.60507(12) 0.12332(8)
O11_2 O 0.14849(9) 0.38411(11) 0.03301(8)
C4_2 C 0.25743(12) 0.39284(14) 0.02938(10)
H4_2 H 0.302518 0.335525 0.069559
H11_2 H 0.025980 0.034742 0.234328
Co3_4 Co -0.000000 0.500000 1.000000
O7_2 O 0.10324(9) 0.65376(10) 0.93970(7)
O8_2 O 0.11334(10) 0.87722(10) 0.90860(7)
C2_2 C 0.07186(12) 0.77788(14) 0.94992(10)
H2_2 H 0.011307 0.795556 0.993051
C6_2 C 0.01636(12) 0.98715(14) 0.71154(10)
C9_2 C 0.04541(13) 0.36966(15) 0.81341(10)
H9_2 H 0.017259 0.309754 0.766397
O35_2 O 0.04254(10) 0.99372(12) 0.35998(8)
O12_2 O 0.95746(10) 0.00628(12) 0.64002(8)
Co3_5 Co 1.000000 0.500000 0.000000
C3_2 C 0.95459(13) 0.63034(15) 0.18659(10)
H3_2 H 0.982741 0.690246 0.233603
O18_2 O 0.89676(9) 0.34624(10) 0.06030(7)
O19_2 O 0.88666(10) 0.12278(10) 0.09140(7)
C8_2 C 0.92814(12) 0.22212(14) 0.05008(10)
H8_2 H 0.988693 0.204444 0.006949
C11_2 C 0.98364(12) 0.01285(14) 0.28846(10)
O31_2 O 0.65313(9) 0.24420(10) 0.10883(7)
Co3_6 Co 1.000000 0.500000 1.000000
H6_2 H 0.974020 0.965258 0.765672
O20_2 O 0.97635(10) 0.39493(12) 0.87668(8)
O21_2 O 0.85151(9) 0.61589(11) 0.96699(8)
C10_2 C 0.74257(12) 0.60716(14) 0.97062(10)
H10_2 H 0.697482 0.664475 0.930441
O34_2 O 0.98142(10) 0.79132(11) 0.50289(7)
O17_2 O 0.68284(10) 0.94135(10) 0.13239(7)
C7_2 C 0.66926(13) 0.82896(14) 0.17019(10)
H7_2 H 0.639827 0.757259 0.132255
C5_2 C 0.57693(13) 0.21171(14) 0.04619(10)
H5_2 H 0.563757 0.117496 0.036294
C12_2 C 0.92307(13) 0.71171(14) 0.45381(10)
H12_2 H 0.936243 0.617496 0.463706
loop_
_geom_bond_atom_site_label_1
_geom_bond_atom_site_label_2
_geom_bond_site_symmetry_1
_geom_bond_site_symmetry_2
Co4 O9 1_555 1_555
O30 Co4 1_555 1_555
O35 Co4 1_555 1_555
Co2 O5 1_555 1_555
Co3 O7 1_555 1_555
O1 C1 1_555 1_555
O2 C3 1_555 1_555
O4 C5 1_555 1_555
O5 C6 1_555 1_555
O6 Co2 1_555 1_555
O7 Co1 1_555 1_555
O8 Co2 1_555 1_555
O10 Co3 1_555 1_555
O12 Co4_2 1_555 1_555
C1 O6 1_555 1_555
H1 C1 1_555 1_555
C2 O7 1_555 1_555
H2 C2 1_555 1_555
C3 O10 1_555 1_555
H3 C3 1_555 1_555
C5 H5 1_555 1_555
C6 O12 1_555 1_555
H6 C6 1_555 1_555
O21 Co3 1_555 1_555
C10 O15 1_555 1_555
H10 C10 1_555 1_555
O23 Co1 1_555 1_555
O24 C12 1_555 1_555
C12 O23 1_555 1_555
H12 C12 1_555 1_555
Co7 O1 1_555 1_555
Co10 O1 1_555 1_555
Co12 O2 1_555 1_555
Co15_3 O15 1_555 1_555
O25 Co1 1_555 1_555
O28 Co2 1_555 1_555
O29 Co4_2 1_555 1_555
O34 Co4_2 1_555 1_555
Co2 O23 1_555 1_555
Co2 O25 1_555 1_555
O4 Co7 1_555 1_555
O4 Co10 1_555 1_555
O5 Co7 1_555 1_555
O8 C2 1_555 1_555
O21 C10 1_555 1_555
O24 Co15 1_555 1_555
Co7 O28 1_555 1_555
Co7 O29 1_555 1_555
Co12 O33 1_555 1_555
O3 C4 1_555 1_555
O11 Co3_2 1_555 1_555
C4 O11 1_555 1_555
H4 C4 1_555 1_555
Co6 O16 1_555 1_555
O13 C7 1_555 1_555
O16 C11 1_555 1_555
O17 Co6 1_555 1_555
O18 Co3_2 1_555 1_555
O19 Co6 1_555 1_555
O20 Co3_2 1_555 1_555
O35 C11 1_555 1_555
C7 O17 1_555 1_555
H7 C7 1_555 1_555
C8 O18 1_555 1_555
H8 C8 1_555 1_555
C9 O14 1_555 1_555
H9 C9 1_555 1_555
C11 H11 1_555 1_555
Co8 O13 1_555 1_555
Co10 O14 1_555 1_555
Co12 O13 1_555 1_555
Co15_2 O3 1_555 1_555
O26 Co5 1_555 1_555
O27 Co6 1_555 1_555
O31 Co5 1_555 1_555
Co5 O18 1_555 1_555
Co6 O26 1_555 1_555
Co6 O31 1_555 1_555
O16 Co8 1_555 1_555
O19 C8 1_555 1_555
O20 C9 1_555 1_555
Co8 O27 1_555 1_555
Co10 O32 1_555 1_555
O25 C1_2 1_555 1_555
C1_2 O6_2 1_555 1_555
H1_2 C1_2 1_555 1_555
O10_2 Co3_3 1_555 1_555
O11_2 Co3_3 1_555 1_555
C4_2 O11_2 1_555 1_555
H4_2 C4_2 1_555 1_555
Co3_4 O7_2 1_555 1_555
O32 C6_2 1_555 1_555
O7_2 Co7 1_555 1_555
O8_2 Co10 1_555 1_555
C2_2 O7_2 1_555 1_555
H2_2 C2_2 1_555 1_555
C9_2 O28 1_555 1_555
H9_2 C9_2 1_555 1_555
O35_2 Co15_2 1_555 1_555
O8_2 C2_2 1_555 1_555
O12_2 Co15_3 1_555 1_555
O27 C3_2 1_555 1_555
H3_2 C3_2 1_555 1_555
O30 Co8 1_555 1_555
O33 C11_2 1_555 1_555
O18_2 Co3_5 1_555 1_555
O19_2 Co12 1_555 1_555
C8_2 O18_2 1_555 1_555
H8_2 C8_2 1_555 1_555
O31_2 Co8 1_555 1_555
Co8 O18_2 1_555 1_555
Co12 O31_2 1_555 1_555
O19_2 C8_2 1_555 1_555
O20_2 Co3_6 1_555 1_555
O21_2 Co3_6 1_555 1_555
H10_2 C10_2 1_555 1_555
O34_2 Co15_4 1_555 1_555
O21_2 C10_2 1_555 1_555
O26 C7_2 1_555 1_555
C7_2 O17_2 1_555 1_555
H7_2 C7_2 1_555 1_555
O31_2 C5_2 1_555 1_555
C5_2 H5_2 1_555 1_555
O34_2 C12_2 1_555 1_555
C12_2 O31 1_555 1_555
H12_2 C12_2 1_555 1_555

#END
