
###############################################################################
#
# This file contains modified crystal structure data generated from the
# MOF subset of the Cambridge Structural Database (CSD) v543 
# hosted by the Cambridge Crystallographic Data Centre (CCDC).
#
# This work is licensed under the Creative Commons
# Attribution-NonCommercial-ShareAlike 4.0 International License.
# To view a copy of this license, visit
# http://creativecommons.org/licenses/by-nc-sa/4.0/
# or send a letter to
# Creative Commons, PO Box 1866, Mountain View, CA 94042, USA.
#
# CIF created using the CSD Python API on 29 September 2022
# The structure has been converted into the P1 space group
# The structure has a 3D framework
# The original CSD entry TUMDAI is in the monoclinic crystal system
# The framework has been calculated to contain at least 10.0% void space
# The void calculation uses a probe of radius 1.32A, grid spacing 0.4
#
###############################################################################

data_TUMDAI
_chemical_formula_moiety         '(C60 H36 N18 O16 Zn2)n'
_symmetry_cell_setting           triclinic
_symmetry_space_group_name_H-M   'P 1'
_symmetry_Int_Tables_number      1
_space_group_name_Hall           'P 1'
loop_
_symmetry_equiv_pos_site_id
_symmetry_equiv_pos_as_xyz
1 x,y,z
_cell_length_a                   9.8187(9)
_cell_length_b                   17.6398(15)
_cell_length_c                   12.0712(13)
_cell_angle_alpha                90
_cell_angle_beta                 97.582(8)
_cell_angle_gamma                90
_cell_volume                     2072.45
loop_
_atom_site_label
_atom_site_type_symbol
_atom_site_fract_x
_atom_site_fract_y
_atom_site_fract_z
Zn3 Zn 0.04872(4) 0.04668(2) 0.15640(3)
C1 C 0.3242(4) 0.0833(2) 0.1858(3)
C2 C 0.8353(4) 0.1294(2) 0.2176(3)
C3 C 0.5788(4) 0.1081(2) 0.2028(3)
H1 H 0.5895 0.0613 0.1659
C4 C 0.4493(4) 0.1308(2) 0.2241(3)
C5 C 0.6930(4) 0.1535(2) 0.2355(3)
C6 C 0.4337(4) 0.1991(2) 0.2796(3)
H2 H 0.3461 0.2143 0.2970
C7 C 0.6768(4) 0.2230(2) 0.2875(3)
H3 H 0.7534 0.2553 0.3080
C8 C 0.5472(4) 0.2439(2) 0.3086(3)
C9 C 0.6174(6) 0.2669(2) 0.5569(4)
H4 H 0.7164 0.2619 0.5545
H5 H 0.5719 0.2186 0.5356
H6 H 0.6012 0.2805 0.6328
C10 C 0.5610(4) 0.3270(2) 0.4779(3)
C11 C 0.4854(4) 0.3827(2) 0.3207(3)
C12 C 0.4412(4) 0.4025(2) 0.2035(3)
C13 C 0.3829(5) 0.3730(3) 0.0221(4)
C15 C 0.3572(5) 0.4975(2) 0.0869(3)
H9 H 0.3305 0.5489 0.0739
N1 N 0.5311(3) 0.31504(17) 0.3648(3)
N2 N 0.5342(3) 0.39778(17) 0.5004(2)
N3 N 0.4859(3) 0.43318(17) 0.4008(2)
N4 N 0.4106(3) 0.47612(18) 0.1896(3)
N5 N 0.4319(4) 0.3495(2) 0.1255(3)
O1 O 0.3334(3) 0.02942(17) 0.1205(3)
O2 O 0.2143(3) 0.10366(15) 0.2210(2)
O3 O 0.8509(3) 0.06312(16) 0.1814(2)
O4 O 0.9323(3) 0.1729(2) 0.2417(4)
Zn1 Zn 0.45128(4) 0.54668(2) 0.34360(3)
N6 N 0.4658(3) 0.60222(17) 0.4996(2)
O5 O 0.2857(3) 0.60366(15) 0.2790(2)
O6 O 0.6491(3) 0.56312(16) 0.3186(2)
Zn4 Zn 0.54872(4) 0.45332(2) 0.65640(3)
H9_2 H 0.1695 0.0489 0.4261
N6_2 N 0.0342(3) 0.10222(17) 0.0004(2)
C1_2 C 0.1758(4) 0.5833(2) 0.3142(3)
C4_2 C 0.0507(4) 0.6308(2) 0.2759(3)
C6_2 C 0.0663(4) 0.6991(2) 0.2204(3)
H2_2 H 0.1539 0.7143 0.2030
C11_2 C 0.0146(4) 0.8827(2) 0.1793(3)
C12_2 C 0.0588(4) 0.9025(2) 0.2965(3)
C13_2 C 0.1171(5) 0.8730(3) 0.4779(4)
H7 H 0.1226 0.8376 0.5376
C14 C 0.1600(5) 0.9465(3) 0.5008(4)
H8 H 0.1995 0.9615 0.5736
C15_2 C 0.1428(5) 0.9975(2) 0.4131(3)
N3_2 N 0.0141(3) 0.93318(17) 0.0992(2)
N4_2 N 0.0894(3) 0.97612(18) 0.3104(3)
N5_2 N 0.0681(4) 0.8495(2) 0.3745(3)
O1_2 O 0.1666(3) 0.52942(17) 0.3795(3)
C2_2 C 0.6647(4) 0.6294(2) 0.2824(3)
C3_2 C 0.9212(4) 0.6081(2) 0.2972(3)
H1_2 H 0.9105 0.5613 0.3341
C5_2 C 0.8070(4) 0.6535(2) 0.2645(3)
C7_2 C 0.8232(4) 0.7230(2) 0.2125(3)
H3_2 H 0.7466 0.7553 0.1920
C8_2 C 0.9528(4) 0.7439(2) 0.1914(3)
C10_2 C 0.9390(4) 0.8270(2) 0.0221(3)
N1_2 N 0.9689(3) 0.81504(17) 0.1352(3)
O4_2 O 0.5677(3) 0.6729(2) 0.2583(4)
C9_2 C 0.8826(6) 0.7669(2) 0.9431(4)
H4_2 H 0.7836 0.7619 0.9455
H5_2 H 0.9281 0.7186 0.9644
H6_2 H 0.8988 0.7805 0.8672
N2_2 N 0.9658(3) 0.89778(17) 0.9996(2)
Zn4_2 Zn 0.95128(4) 0.95332(2) 0.84360(3)
C1_3 C 0.6758(4) 0.9167(2) 0.8142(3)
C2_3 C 0.1647(4) 0.8706(2) 0.7824(3)
C3_3 C 0.4212(4) 0.8919(2) 0.7972(3)
H1_3 H 0.4105 0.9387 0.8341
C4_3 C 0.5507(4) 0.8692(2) 0.7759(3)
C5_3 C 0.3070(4) 0.8465(2) 0.7645(3)
C6_3 C 0.5663(4) 0.8009(2) 0.7204(3)
H2_3 H 0.6539 0.7857 0.7030
C7_3 C 0.3232(4) 0.7770(2) 0.7125(3)
H3_3 H 0.2466 0.7447 0.6920
C8_3 C 0.4528(4) 0.7561(2) 0.6914(3)
C9_3 C 0.3826(6) 0.7331(2) 0.4431(4)
H4_3 H 0.2836 0.7381 0.4455
H5_3 H 0.4281 0.7814 0.4644
H6_3 H 0.3988 0.7195 0.3672
C10_3 C 0.4390(4) 0.6730(2) 0.5221(3)
C11_3 C 0.5146(4) 0.6173(2) 0.6793(3)
C12_3 C 0.5588(4) 0.5975(2) 0.7965(3)
C13_3 C 0.6171(5) 0.6270(3) 0.9779(4)
C15_3 C 0.6428(5) 0.5025(2) 0.9131(3)
H9_3 H 0.6695 0.4511 0.9261
N1_3 N 0.4689(3) 0.68496(17) 0.6352(3)
N3_3 N 0.5141(3) 0.56682(17) 0.5992(2)
N4_3 N 0.5894(3) 0.52388(18) 0.8104(3)
N5_3 N 0.5681(4) 0.6505(2) 0.8745(3)
O1_3 O 0.6666(3) 0.97058(17) 0.8795(3)
O2_2 O 0.7857(3) 0.89634(15) 0.7790(2)
O3_2 O 0.1491(3) 0.93688(16) 0.8186(2)
O4_3 O 0.0677(3) 0.8271(2) 0.7583(4)
O5_2 O 0.7143(3) 0.39634(15) 0.7210(2)
O6_2 O 0.3509(3) 0.43688(16) 0.6814(2)
C9_4 C 0.1174(6) 0.2331(2) 0.0569(4)
H4_4 H 0.2164 0.2381 0.0545
H5_4 H 0.0719 0.2814 0.0356
H6_4 H 0.1012 0.2195 0.1328
C2_4 C 0.3353(4) 0.3706(2) 0.7176(3)
C3_4 C 0.0788(4) 0.3919(2) 0.7028(3)
H1_4 H 0.0895 0.4387 0.6659
C5_4 C 0.1930(4) 0.3465(2) 0.7355(3)
C7_4 C 0.1768(4) 0.2770(2) 0.7875(3)
H3_4 H 0.2534 0.2447 0.8080
C8_4 C 0.0472(4) 0.2561(2) 0.8086(3)
C10_4 C 0.0610(4) 0.1730(2) 0.9779(3)
N1_4 N 0.0311(3) 0.18496(17) 0.8648(3)
O4_4 O 0.4323(3) 0.3271(2) 0.7417(4)
C1_4 C 0.8242(4) 0.4167(2) 0.6858(3)
C4_4 C 0.9493(4) 0.3692(2) 0.7241(3)
C6_4 C 0.9337(4) 0.3009(2) 0.7796(3)
H2_4 H 0.8461 0.2857 0.7970
C11_4 C 0.9854(4) 0.1173(2) 0.8207(3)
C12_4 C 0.9412(4) 0.0975(2) 0.7035(3)
C13_4 C 0.8829(5) 0.1270(3) 0.5221(4)
H7_2 H 0.8774 0.1624 0.4624
C14_2 C 0.8400(5) 0.0535(3) 0.4992(4)
H8_2 H 0.8005 0.0385 0.4264
C15_4 C 0.8572(5) 0.0025(2) 0.5869(3)
N3_4 N 0.9859(3) 0.06682(17) 0.9008(2)
N4_4 N 0.9106(3) 0.02388(18) 0.6896(3)
N5_4 N 0.9319(4) 0.1505(2) 0.6255(3)
O1_4 O 0.8334(3) 0.47058(17) 0.6205(3)
H9_4 H 0.8305 0.9511 0.5739
H7_3 H 0.3774 0.3376 0.9624
C14_3 C 0.3400(5) 0.4465(3) 0.9992(4)
H8_3 H 0.3005 0.4615 0.9264
H7_4 H 0.6226 0.6624 0.0376
C14_4 C 0.6600(5) 0.5535(3) 0.0008(4)
H8_4 H 0.6995 0.5385 0.0736
loop_
_geom_bond_atom_site_label_1
_geom_bond_atom_site_label_2
_geom_bond_site_symmetry_1
_geom_bond_site_symmetry_2
C1 C4 1_555 1_555
C2 C5 1_555 1_555
C3 H1 1_555 1_555
C4 C3 1_555 1_555
C5 C3 1_555 1_555
C6 C4 1_555 1_555
H2 C6 1_555 1_555
C7 C5 1_555 1_555
H3 C7 1_555 1_555
C8 C6 1_555 1_555
C9 H4 1_555 1_555
H5 C9 1_555 1_555
H6 C9 1_555 1_555
C10 C9 1_555 1_555
C11 C12 1_555 1_555
C12 N4 1_555 1_555
H9 C15 1_555 1_555
N1 C8 1_555 1_555
N2 C10 1_555 1_555
N3 C11 1_555 1_555
N4 C15 1_555 1_555
N5 C12 1_555 1_555
O1 C1 1_555 1_555
O2 C1 1_555 1_555
O3 C2 1_555 1_555
O4 C2 1_555 1_555
Zn1 N3 1_555 1_555
N6 Zn1 1_555 1_555
O5 Zn1 1_555 1_555
O6 Zn1 1_555 1_555
Zn3 O2 1_555 1_555
Zn4 N2 1_555 1_555
C7 C8 1_555 1_555
C10 N1 1_555 1_555
C11 N1 1_555 1_555
C13 N5 1_555 1_555
N2 N3 1_555 1_555
N4 Zn1 1_555 1_555
N6_2 Zn3 1_555 1_555
C1_2 C4_2 1_555 1_555
C6_2 C4_2 1_555 1_555
H2_2 C6_2 1_555 1_555
C11_2 C12_2 1_555 1_555
C12_2 N4_2 1_555 1_555
C13_2 H7 1_555 1_555
C14 C13_2 1_555 1_555
H8 C14 1_555 1_555
C15_2 C14 1_555 1_555
N3_2 C11_2 1_555 1_555
N4_2 C15_2 1_555 1_555
N5_2 C12_2 1_555 1_555
O1_2 C1_2 1_555 1_555
O5 C1_2 1_555 1_555
C13_2 N5_2 1_555 1_555
C2_2 C5_2 1_555 1_555
C3_2 H1_2 1_555 1_555
C5_2 C3_2 1_555 1_555
C7_2 C5_2 1_555 1_555
H3_2 C7_2 1_555 1_555
N1_2 C8_2 1_555 1_555
O6 C2_2 1_555 1_555
O4_2 C2_2 1_555 1_555
C7_2 C8_2 1_555 1_555
C10_2 N1_2 1_555 1_555
C9_2 H4_2 1_555 1_555
H5_2 C9_2 1_555 1_555
H6_2 C9_2 1_555 1_555
Zn4_2 N2_2 1_555 1_555
C1_3 C4_3 1_555 1_555
C2_3 C5_3 1_555 1_555
C3_3 H1_3 1_555 1_555
C4_3 C3_3 1_555 1_555
C5_3 C3_3 1_555 1_555
C6_3 C4_3 1_555 1_555
H2_3 C6_3 1_555 1_555
C7_3 C5_3 1_555 1_555
H3_3 C7_3 1_555 1_555
C8_3 C6_3 1_555 1_555
C9_3 H4_3 1_555 1_555
H5_3 C9_3 1_555 1_555
H6_3 C9_3 1_555 1_555
C10_3 C9_3 1_555 1_555
C11_3 C12_3 1_555 1_555
C12_3 N4_3 1_555 1_555
H9_3 C15_3 1_555 1_555
N1_3 C8_3 1_555 1_555
N6 C10_3 1_555 1_555
N3_3 C11_3 1_555 1_555
N4_3 C15_3 1_555 1_555
N5_3 C12_3 1_555 1_555
O1_3 C1_3 1_555 1_555
O2_2 C1_3 1_555 1_555
O3_2 C2_3 1_555 1_555
O4_3 C2_3 1_555 1_555
Zn4 N3_3 1_555 1_555
O5_2 Zn4 1_555 1_555
O6_2 Zn4 1_555 1_555
Zn4_2 O2_2 1_555 1_555
C7_3 C8_3 1_555 1_555
C10_3 N1_3 1_555 1_555
C11_3 N1_3 1_555 1_555
C13_3 N5_3 1_555 1_555
N6 N3_3 1_555 1_555
N4_3 Zn4 1_555 1_555
C9_4 H4_4 1_555 1_555
H5_4 C9_4 1_555 1_555
H6_4 C9_4 1_555 1_555
C2_4 C5_4 1_555 1_555
C3_4 H1_4 1_555 1_555
C5_4 C3_4 1_555 1_555
C7_4 C5_4 1_555 1_555
H3_4 C7_4 1_555 1_555
N1_4 C8_4 1_555 1_555
O6_2 C2_4 1_555 1_555
O4_4 C2_4 1_555 1_555
C7_4 C8_4 1_555 1_555
C10_4 N1_4 1_555 1_555
C1_4 C4_4 1_555 1_555
C6_4 C4_4 1_555 1_555
H2_4 C6_4 1_555 1_555
C11_4 C12_4 1_555 1_555
C12_4 N4_4 1_555 1_555
C13_4 H7_2 1_555 1_555
C14_2 C13_4 1_555 1_555
H8_2 C14_2 1_555 1_555
C15_4 C14_2 1_555 1_555
N3_4 C11_4 1_555 1_555
N4_4 C15_4 1_555 1_555
N5_4 C12_4 1_555 1_555
O1_4 C1_4 1_555 1_555
O5_2 C1_4 1_555 1_555
C13_4 N5_4 1_555 1_555
H8_3 C14_3 1_555 1_555
H8_4 C14_4 1_555 1_555

#END
