
###############################################################################
#
# This file contains modified crystal structure data generated from the
# MOF subset of the Cambridge Structural Database (CSD) v543 
# hosted by the Cambridge Crystallographic Data Centre (CCDC).
#
# This work is licensed under the Creative Commons
# Attribution-NonCommercial-ShareAlike 4.0 International License.
# To view a copy of this license, visit
# http://creativecommons.org/licenses/by-nc-sa/4.0/
# or send a letter to
# Creative Commons, PO Box 1866, Mountain View, CA 94042, USA.
#
# CIF created using the CSD Python API on 29 September 2022
# The structure has been converted into the P1 space group
# The structure has a 3D framework
# The original CSD entry TUMRUQ is in the monoclinic crystal system
# The framework has been calculated to contain at least 10.0% void space
# The void calculation uses a probe of radius 1.32A, grid spacing 0.4
#
###############################################################################

data_TUMRUQ
_chemical_formula_moiety         '(C60 H36 Cu2 N18 O16)n'
_symmetry_cell_setting           triclinic
_symmetry_space_group_name_H-M   'P 1'
_symmetry_Int_Tables_number      1
_space_group_name_Hall           'P 1'
loop_
_symmetry_equiv_pos_site_id
_symmetry_equiv_pos_as_xyz
1 x,y,z
_cell_length_a                   9.9602(9)
_cell_length_b                   17.0086(12)
_cell_length_c                   12.2279(14)
_cell_angle_alpha                90
_cell_angle_beta                 96.947(8)
_cell_angle_gamma                90
_cell_volume                     2056.31
loop_
_atom_site_label
_atom_site_type_symbol
_atom_site_fract_x
_atom_site_fract_y
_atom_site_fract_z
Cu3 Cu 0.04444(4) 0.04850(3) 0.15860(4)
C1 C 0.3349(4) 0.0574(2) 0.2174(4)
C2 C 0.8331(3) 0.1170(2) 0.2386(3)
C3 C 0.5830(3) 0.0883(2) 0.2339(4)
H1 H 0.5970 0.0386 0.2014
C4 C 0.4536(3) 0.1109(2) 0.2536(3)
C5 C 0.6930(3) 0.1394(2) 0.2624(3)
C6 C 0.4320(3) 0.1824(2) 0.3018(3)
H2 H 0.3433 0.1979 0.3138
C7 C 0.6724(3) 0.2111(2) 0.3116(3)
H3 H 0.7458 0.2460 0.3309
C8 C 0.5417(3) 0.2311(2) 0.3325(3)
C9 C 0.5928(4) 0.2557(2) 0.5803(4)
H4 H 0.6917 0.2565 0.5946
H5 H 0.5627 0.2039 0.5519
H6 H 0.5544 0.2662 0.6490
C10 C 0.5469(3) 0.3166(2) 0.4983(3)
C11 C 0.4801(3) 0.3760(2) 0.3431(3)
C12 C 0.4424(3) 0.3972(2) 0.2269(3)
C13 C 0.3845(4) 0.3671(3) 0.0476(4)
C14 C 0.3583(4) 0.4449(3) 0.0235(4)
C15 C 0.3822(4) 0.4984(3) 0.1078(3)
H9 H 0.3669 0.5527 0.0931
N1 N 0.5205(3) 0.30412(18) 0.3875(3)
N2 N 0.5221(3) 0.39128(18) 0.5194(3)
N3 N 0.4795(3) 0.42836(18) 0.4209(3)
N4 N 0.4268(3) 0.47502(19) 0.2107(3)
N5 N 0.4244(3) 0.3419(2) 0.1511(3)
O2 O 0.2241(2) 0.09235(17) 0.1929(3)
O3 O 0.8438(2) 0.05952(15) 0.1723(2)
O4 O 0.9320(2) 0.15455(17) 0.2837(2)
Cu1 Cu 0.45556(4) 0.54850(3) 0.34140(4)
N6 N 0.4779(3) 0.60872(18) 0.4806(3)
O5 O 0.2759(2) 0.59235(17) 0.3071(3)
O6 O 0.6562(2) 0.55952(15) 0.3277(2)
O7 O 0.5680(2) 0.65455(17) 0.2163(2)
Cu4 Cu 0.54444(4) 0.45150(3) 0.65860(4)
H9_2 H 0.1331 0.0527 0.4069
N6_2 N 0.0221(3) 0.10872(18) 0.0194(3)
C1_2 C 0.1651(4) 0.5574(2) 0.2826(4)
C4_2 C 0.0464(3) 0.6109(2) 0.2464(3)
C6_2 C 0.0680(3) 0.6824(2) 0.1982(3)
H2_2 H 0.1567 0.6979 0.1862
C11_2 C 0.0199(3) 0.8760(2) 0.1569(3)
C12_2 C 0.0576(3) 0.8972(2) 0.2731(3)
C13_2 C 0.1155(4) 0.8671(3) 0.4524(4)
H7 H 0.1257 0.8298 0.5106
C14_2 C 0.1417(4) 0.9449(3) 0.4765(4)
H8 H 0.1752 0.9612 0.5490
C15_2 C 0.1178(4) 0.9984(3) 0.3922(3)
N3_2 N 0.0205(3) 0.92836(18) 0.0791(3)
N4_2 N 0.0732(3) 0.97502(19) 0.2893(3)
N5_2 N 0.0756(3) 0.8419(2) 0.3489(3)
O1 O 0.1478(3) 0.4850(2) 0.2842(4)
C2_2 C 0.6669(3) 0.6170(2) 0.2614(3)
C3_2 C 0.9170(3) 0.5883(2) 0.2661(4)
H1_2 H 0.9030 0.5386 0.2986
C5_2 C 0.8070(3) 0.6394(2) 0.2376(3)
C7_2 C 0.8276(3) 0.7111(2) 0.1884(3)
H3_2 H 0.7542 0.7460 0.1691
C8_2 C 0.9583(3) 0.7311(2) 0.1675(3)
C10_2 C 0.9531(3) 0.8166(2) 0.0017(3)
N1_2 N 0.9795(3) 0.80412(18) 0.1125(3)
C9_2 C 0.9072(4) 0.7557(2) 0.9197(4)
H4_2 H 0.8083 0.7565 0.9054
H5_2 H 0.9373 0.7039 0.9481
H6_2 H 0.9456 0.7662 0.8510
N2_2 N 0.9779(3) 0.89128(18) 0.9806(3)
Cu4_2 Cu 0.95556(4) 0.95150(3) 0.84140(4)
C1_3 C 0.6651(4) 0.9426(2) 0.7826(4)
C2_3 C 0.1669(3) 0.8830(2) 0.7614(3)
C3_3 C 0.4170(3) 0.9117(2) 0.7661(4)
H1_3 H 0.4030 0.9614 0.7986
C4_3 C 0.5464(3) 0.8891(2) 0.7464(3)
C5_3 C 0.3070(3) 0.8606(2) 0.7376(3)
C6_3 C 0.5680(3) 0.8176(2) 0.6982(3)
H2_3 H 0.6567 0.8021 0.6862
C7_3 C 0.3276(3) 0.7889(2) 0.6884(3)
H3_3 H 0.2542 0.7540 0.6691
C8_3 C 0.4583(3) 0.7689(2) 0.6675(3)
C9_3 C 0.4072(4) 0.7443(2) 0.4197(4)
H4_3 H 0.3083 0.7435 0.4054
H5_3 H 0.4373 0.7961 0.4481
H6_3 H 0.4456 0.7338 0.3510
C10_3 C 0.4531(3) 0.6834(2) 0.5017(3)
C11_3 C 0.5199(3) 0.6240(2) 0.6569(3)
C12_3 C 0.5576(3) 0.6028(2) 0.7731(3)
C13_3 C 0.6155(4) 0.6329(3) 0.9524(4)
C14_3 C 0.6417(4) 0.5551(3) 0.9765(4)
C15_3 C 0.6178(4) 0.5016(3) 0.8922(3)
H9_3 H 0.6331 0.4473 0.9069
N1_3 N 0.4795(3) 0.69588(18) 0.6125(3)
N3_3 N 0.5205(3) 0.57164(18) 0.5791(3)
N4_3 N 0.5732(3) 0.52498(19) 0.7893(3)
N5_3 N 0.5756(3) 0.6581(2) 0.8489(3)
O2_2 O 0.7759(2) 0.90765(17) 0.8071(3)
O3_2 O 0.1562(2) 0.94048(15) 0.8277(2)
O4_2 O 0.0680(2) 0.84545(17) 0.7163(2)
O5_2 O 0.7241(2) 0.40765(17) 0.6929(3)
O6_2 O 0.3438(2) 0.44048(15) 0.6723(2)
O7_2 O 0.4320(2) 0.34545(17) 0.7837(2)
C9_4 C 0.0928(4) 0.2443(2) 0.0803(4)
H4_4 H 0.1917 0.2435 0.0946
H5_4 H 0.0627 0.2961 0.0519
H6_4 H 0.0544 0.2338 0.1490
C2_4 C 0.3331(3) 0.3830(2) 0.7386(3)
C3_4 C 0.0830(3) 0.4117(2) 0.7339(4)
H1_4 H 0.0970 0.4614 0.7014
C5_4 C 0.1930(3) 0.3606(2) 0.7624(3)
C7_4 C 0.1724(3) 0.2889(2) 0.8116(3)
H3_4 H 0.2458 0.2540 0.8309
C8_4 C 0.0417(3) 0.2689(2) 0.8325(3)
C10_4 C 0.0469(3) 0.1834(2) 0.9983(3)
N1_4 N 0.0205(3) 0.19588(18) 0.8875(3)
C1_4 C 0.8349(4) 0.4426(2) 0.7174(4)
C4_4 C 0.9536(3) 0.3891(2) 0.7536(3)
C6_4 C 0.9320(3) 0.3176(2) 0.8018(3)
H2_4 H 0.8433 0.3021 0.8138
C11_4 C 0.9801(3) 0.1240(2) 0.8431(3)
C12_4 C 0.9424(3) 0.1028(2) 0.7269(3)
C13_4 C 0.8845(4) 0.1329(3) 0.5476(4)
H7_2 H 0.8743 0.1702 0.4894
C14_4 C 0.8583(4) 0.0551(3) 0.5235(4)
H8_2 H 0.8248 0.0388 0.4510
C15_4 C 0.8822(4) 0.0016(3) 0.6078(3)
N3_4 N 0.9795(3) 0.07164(18) 0.9209(3)
N4_4 N 0.9268(3) 0.02498(19) 0.7107(3)
N5_4 N 0.9244(3) 0.1581(2) 0.6511(3)
O1_2 O 0.8522(3) 0.5150(2) 0.7158(4)
H9_4 H 0.8669 0.9473 0.5931
H7_3 H 0.3743 0.3298 0.9894
H8_3 H 0.3248 0.4612 0.9510
O1_3 O 0.3522(3) 0.9850(2) 0.2158(4)
O1_4 O 0.6478(3) 0.0150(2) 0.7842(4)
H7_4 H 0.6257 0.6702 0.0106
H8_4 H 0.6752 0.5388 0.0490
loop_
_geom_bond_atom_site_label_1
_geom_bond_atom_site_label_2
_geom_bond_site_symmetry_1
_geom_bond_site_symmetry_2
C1 C4 1_555 1_555
C2 C5 1_555 1_555
C3 H1 1_555 1_555
C4 C3 1_555 1_555
C5 C3 1_555 1_555
C6 C4 1_555 1_555
H2 C6 1_555 1_555
C7 C5 1_555 1_555
H3 C7 1_555 1_555
C8 C6 1_555 1_555
C9 H4 1_555 1_555
H5 C9 1_555 1_555
H6 C9 1_555 1_555
C10 C9 1_555 1_555
C11 C12 1_555 1_555
C12 N4 1_555 1_555
C14 C13 1_555 1_555
C15 C14 1_555 1_555
H9 C15 1_555 1_555
N1 C8 1_555 1_555
N2 C10 1_555 1_555
N3 C11 1_555 1_555
N4 C15 1_555 1_555
N5 C12 1_555 1_555
O2 C1 1_555 1_555
O3 C2 1_555 1_555
O4 C2 1_555 1_555
Cu1 N3 1_555 1_555
N6 Cu1 1_555 1_555
O5 Cu1 1_555 1_555
O6 Cu1 1_555 1_555
O7 Cu1 1_555 1_555
Cu3 O2 1_555 1_555
Cu4 N2 1_555 1_555
C7 C8 1_555 1_555
C10 N1 1_555 1_555
C11 N1 1_555 1_555
C13 N5 1_555 1_555
N2 N3 1_555 1_555
N4 Cu1 1_555 1_555
N6_2 Cu3 1_555 1_555
C1_2 C4_2 1_555 1_555
C6_2 C4_2 1_555 1_555
H2_2 C6_2 1_555 1_555
C11_2 C12_2 1_555 1_555
C12_2 N4_2 1_555 1_555
C13_2 H7 1_555 1_555
C14_2 C13_2 1_555 1_555
H8 C14_2 1_555 1_555
C15_2 C14_2 1_555 1_555
N3_2 C11_2 1_555 1_555
N4_2 C15_2 1_555 1_555
N5_2 C12_2 1_555 1_555
O1 C1_2 1_555 1_555
O5 C1_2 1_555 1_555
C13_2 N5_2 1_555 1_555
C2_2 C5_2 1_555 1_555
C3_2 H1_2 1_555 1_555
C5_2 C3_2 1_555 1_555
C7_2 C5_2 1_555 1_555
H3_2 C7_2 1_555 1_555
N1_2 C8_2 1_555 1_555
O6 C2_2 1_555 1_555
O7 C2_2 1_555 1_555
C7_2 C8_2 1_555 1_555
C10_2 N1_2 1_555 1_555
C9_2 H4_2 1_555 1_555
H5_2 C9_2 1_555 1_555
H6_2 C9_2 1_555 1_555
Cu4_2 N2_2 1_555 1_555
C1_3 C4_3 1_555 1_555
C2_3 C5_3 1_555 1_555
C3_3 H1_3 1_555 1_555
C4_3 C3_3 1_555 1_555
C5_3 C3_3 1_555 1_555
C6_3 C4_3 1_555 1_555
H2_3 C6_3 1_555 1_555
C7_3 C5_3 1_555 1_555
H3_3 C7_3 1_555 1_555
C8_3 C6_3 1_555 1_555
C9_3 H4_3 1_555 1_555
H5_3 C9_3 1_555 1_555
H6_3 C9_3 1_555 1_555
C10_3 C9_3 1_555 1_555
C11_3 C12_3 1_555 1_555
C12_3 N4_3 1_555 1_555
C14_3 C13_3 1_555 1_555
C15_3 C14_3 1_555 1_555
H9_3 C15_3 1_555 1_555
N1_3 C8_3 1_555 1_555
N6 C10_3 1_555 1_555
N3_3 C11_3 1_555 1_555
N4_3 C15_3 1_555 1_555
N5_3 C12_3 1_555 1_555
O2_2 C1_3 1_555 1_555
O3_2 C2_3 1_555 1_555
O4_2 C2_3 1_555 1_555
Cu4 N3_3 1_555 1_555
O5_2 Cu4 1_555 1_555
O6_2 Cu4 1_555 1_555
O7_2 Cu4 1_555 1_555
Cu4_2 O2_2 1_555 1_555
C7_3 C8_3 1_555 1_555
C10_3 N1_3 1_555 1_555
C11_3 N1_3 1_555 1_555
C13_3 N5_3 1_555 1_555
N6 N3_3 1_555 1_555
N4_3 Cu4 1_555 1_555
C9_4 H4_4 1_555 1_555
H5_4 C9_4 1_555 1_555
H6_4 C9_4 1_555 1_555
C2_4 C5_4 1_555 1_555
C3_4 H1_4 1_555 1_555
C5_4 C3_4 1_555 1_555
C7_4 C5_4 1_555 1_555
H3_4 C7_4 1_555 1_555
N1_4 C8_4 1_555 1_555
O6_2 C2_4 1_555 1_555
O7_2 C2_4 1_555 1_555
C7_4 C8_4 1_555 1_555
C10_4 N1_4 1_555 1_555
C1_4 C4_4 1_555 1_555
C6_4 C4_4 1_555 1_555
H2_4 C6_4 1_555 1_555
C11_4 C12_4 1_555 1_555
C12_4 N4_4 1_555 1_555
C13_4 H7_2 1_555 1_555
C14_4 C13_4 1_555 1_555
H8_2 C14_4 1_555 1_555
C15_4 C14_4 1_555 1_555
N3_4 C11_4 1_555 1_555
N4_4 C15_4 1_555 1_555
N5_4 C12_4 1_555 1_555
O1_2 C1_4 1_555 1_555
O5_2 C1_4 1_555 1_555
C13_4 N5_4 1_555 1_555

#END
