
###############################################################################
#
# This file contains modified crystal structure data generated from the
# MOF subset of the Cambridge Structural Database (CSD) v543 
# hosted by the Cambridge Crystallographic Data Centre (CCDC).
#
# This work is licensed under the Creative Commons
# Attribution-NonCommercial-ShareAlike 4.0 International License.
# To view a copy of this license, visit
# http://creativecommons.org/licenses/by-nc-sa/4.0/
# or send a letter to
# Creative Commons, PO Box 1866, Mountain View, CA 94042, USA.
#
# CIF created using the CSD Python API on 29 September 2022
# The structure has been converted into the P1 space group
# The structure has a 3D framework
# The original CSD entry TUPDIT04 is in the orthorhombic crystal system
# The framework has been calculated to contain at least 10.0% void space
# The void calculation uses a probe of radius 1.32A, grid spacing 0.4
#
###############################################################################

data_TUPDIT04
_chemical_formula_moiety         '(C72 H48 Cu6 N24 O16)n'
_symmetry_cell_setting           triclinic
_symmetry_space_group_name_H-M   'P 1'
_symmetry_Int_Tables_number      1
_space_group_name_Hall           'P 1'
loop_
_symmetry_equiv_pos_site_id
_symmetry_equiv_pos_as_xyz
1 x,y,z
_cell_length_a                   12.6868(9)
_cell_length_b                   9.9923(6)
_cell_length_c                   17.6153(7)
_cell_angle_alpha                90
_cell_angle_beta                 90
_cell_angle_gamma                90
_cell_volume                     2233.1
loop_
_atom_site_label
_atom_site_type_symbol
_atom_site_fract_x
_atom_site_fract_y
_atom_site_fract_z
N4 N 0.0325(3) 0.5517(4) 0.66631(17)
N6 N 0.1354(2) 0.4969(3) 0.75912(16)
H7 H 0.0013 0.8884 0.5060
C13 C 0.0225(3) 0.7391(4) 0.5813(2)
H8 H 0.0804 0.7764 0.6059
C17 C 0.0440(4) 0.4275(6) 0.7605(3)
H11 H 0.0289 0.3638 0.7974
C18 C 0.1247(3) 0.5739(4) 0.69853(18)
H12 H 0.1747 0.6347 0.6812
Cu3 Cu 0.2500 0.5000 0.83611(3)
Cu1 Cu 0.7500 0.0000 0.33611(3)
O1 O 0.6473(2) 0.0512(2) 0.41516(12)
O2 O 0.7244(2) 0.2367(3) 0.37826(15)
N1 N 0.4675(3) 0.4483(4) 0.66631(17)
N2 N 0.5211(4) 0.5430(5) 0.7063(3)
N3 N 0.3646(2) 0.5031(3) 0.75912(16)
C1 C 0.6640(3) 0.1756(4) 0.42127(18)
C2 C 0.6092(3) 0.2487(4) 0.48448(19)
C3 C 0.5248(3) 0.1943(4) 0.5213(2)
H1 H 0.4987 0.1116 0.5060
C4 C 0.4775(3) 0.2609(4) 0.5813(2)
H2 H 0.4196 0.2236 0.6059
C5 C 0.5161(3) 0.3807(4) 0.60384(19)
C6 C 0.6000(4) 0.4373(5) 0.5671(3)
H3 H 0.6264 0.5196 0.5827
C7 C 0.6444(4) 0.3710(4) 0.5070(3)
H4 H 0.7001 0.4106 0.4810
C8 C 0.4560(4) 0.5725(6) 0.7605(3)
H5 H 0.4711 0.6362 0.7974
C9 C 0.3753(3) 0.4261(4) 0.69853(18)
H6 H 0.3253 0.3653 0.6812
N8 N 0.6354(2) 0.0031(3) 0.25912(16)
N5 N 0.4789(4) 0.0430(5) 0.2063(3)
H9 H 0.3736 0.0196 0.0827
C17_2 C 0.5440(4) 0.0725(6) 0.2605(3)
H11_2 H 0.5289 0.1362 0.2974
O1_2 O 0.1473(2) 0.4488(2) 0.91516(12)
O2_2 O 0.2244(2) 0.2633(3) 0.87826(15)
C1_2 C 0.1640(3) 0.3244(4) 0.92127(18)
C2_2 C 0.1092(3) 0.2513(4) 0.98448(19)
H4_2 H 0.2001 0.0894 0.9810
O3 O 0.3527(2) 0.5512(2) 0.91516(12)
O4 O 0.2756(2) 0.7367(3) 0.87826(15)
C10 C 0.3360(3) 0.6756(4) 0.92127(18)
C11 C 0.3908(3) 0.7487(4) 0.98448(19)
H10 H 0.2999 0.9106 0.9810
N1_2 N 0.9675(3) 0.0517(4) 0.16631(17)
H1_2 H 0.9987 0.3884 0.0060
C4_2 C 0.9775(3) 0.2391(4) 0.0813(2)
H2_2 H 0.9196 0.2764 0.1059
C9_2 C 0.8753(3) 0.0739(4) 0.19853(18)
H6_2 H 0.8253 0.1347 0.1812
Cu1_2 Cu 0.7500 1.0000 0.33611(3)
O3_2 O 0.8527(2) 0.9488(2) 0.41516(12)
O4_2 O 0.7756(2) 0.7633(3) 0.37826(15)
N5_2 N 0.9789(4) 0.4570(5) 0.7063(3)
C10_2 C 0.8360(3) 0.8244(4) 0.42127(18)
C11_2 C 0.8908(3) 0.7513(4) 0.48448(19)
C12 C 0.9752(3) 0.8057(4) 0.5213(2)
C14 C 0.9839(3) 0.6193(4) 0.60384(19)
C15 C 0.9000(4) 0.5627(5) 0.5671(3)
H9_2 H 0.8736 0.4804 0.5827
C16 C 0.8556(4) 0.6290(4) 0.5070(3)
H10_2 H 0.7999 0.5894 0.4810
N7 N 0.8646(2) 0.9969(3) 0.25912(16)
C3_2 C 0.0248(3) 0.3057(4) 0.0213(2)
C5_2 C 0.0161(3) 0.1193(4) 0.10384(19)
C6_2 C 0.1000(4) 0.0627(5) 0.0671(3)
C7_2 C 0.1444(4) 0.1290(4) 0.0070(3)
N4_2 N 0.5325(3) 0.9483(4) 0.16631(17)
C12_2 C 0.4752(3) 0.6943(4) 0.0213(2)
H7_2 H 0.5013 0.6116 0.0060
C13_2 C 0.5225(3) 0.7609(4) 0.0813(2)
H8_2 H 0.5804 0.7236 0.1059
C14_2 C 0.4839(3) 0.8807(4) 0.10384(19)
C15_2 C 0.4000(4) 0.9373(5) 0.0671(3)
C16_2 C 0.3556(4) 0.8710(4) 0.0070(3)
C18_2 C 0.6247(3) 0.9261(4) 0.19853(18)
H12_2 H 0.6747 0.8653 0.1812
C8_2 C 0.9560(4) 0.9275(6) 0.2605(3)
H5_2 H 0.9711 0.8638 0.2974
N3_2 N 0.1354(2) 0.0031(3) 0.74088(16)
C8_3 C 0.0440(4) 0.0725(6) 0.7395(3)
H5_3 H 0.0289 0.1362 0.7026
Cu2 Cu 0.2500 0.0000 0.66389(3)
C3_3 C 0.9752(3) 0.6943(4) 0.9787(2)
C5_3 C 0.9839(3) 0.8807(4) 0.89616(19)
C6_3 C 0.9000(4) 0.9373(5) 0.9329(3)
C7_3 C 0.8556(4) 0.8710(4) 0.9930(3)
N4_3 N 0.4675(3) 0.0517(4) 0.83369(17)
C12_3 C 0.5248(3) 0.3057(4) 0.9787(2)
H7_3 H 0.4987 0.3884 0.9940
C13_3 C 0.4775(3) 0.2391(4) 0.9187(2)
H8_3 H 0.4196 0.2764 0.8941
C14_3 C 0.5161(3) 0.1193(4) 0.89616(19)
C15_3 C 0.6000(4) 0.0627(5) 0.9329(3)
C16_3 C 0.6444(4) 0.1290(4) 0.9930(3)
C18_3 C 0.3753(3) 0.0739(4) 0.80147(18)
H12_3 H 0.3253 0.1347 0.8188
O3_3 O 0.1473(2) 0.0512(2) 0.58484(12)
O4_3 O 0.2244(2) 0.2367(3) 0.62174(15)
N5_3 N 0.0211(4) 0.5430(5) 0.2937(3)
C10_3 C 0.1640(3) 0.1756(4) 0.57873(18)
C11_3 C 0.1092(3) 0.2487(4) 0.51552(19)
C12_4 C 0.0248(3) 0.1943(4) 0.4787(2)
C14_4 C 0.0161(3) 0.3807(4) 0.39616(19)
C15_4 C 0.1000(4) 0.4373(5) 0.4329(3)
H9_3 H 0.1264 0.5196 0.4173
C16_4 C 0.1444(4) 0.3710(4) 0.4930(3)
H10_3 H 0.2001 0.4106 0.5190
N1_3 N 0.0325(3) 0.9483(4) 0.83369(17)
H1_3 H 0.0013 0.6116 0.9940
C4_3 C 0.0225(3) 0.7609(4) 0.9187(2)
H2_3 H 0.0804 0.7236 0.8941
C9_3 C 0.1247(3) 0.9261(4) 0.80147(18)
H6_3 H 0.1747 0.8653 0.8188
Cu2_2 Cu 0.2500 1.0000 0.66389(3)
Cu1_3 Cu 0.7500 0.5000 0.16389(3)
O1_3 O 0.8527(2) 0.5512(2) 0.08484(12)
O2_3 O 0.7756(2) 0.7367(3) 0.12174(15)
C1_3 C 0.8360(3) 0.6756(4) 0.07873(18)
C2_3 C 0.8908(3) 0.7487(4) 0.01552(19)
H4_3 H 0.7999 0.9106 0.0190
O3_4 O 0.6473(2) 0.4488(2) 0.08484(12)
O4_4 O 0.7244(2) 0.2633(3) 0.12174(15)
C10_4 C 0.6640(3) 0.3244(4) 0.07873(18)
C11_4 C 0.6092(3) 0.2513(4) 0.01552(19)
H10_4 H 0.7001 0.0894 0.0190
N7_2 N 0.6354(2) 0.4969(3) 0.24088(16)
N8_2 N 0.8646(2) 0.5031(3) 0.24088(16)
N5_4 N 0.5211(4) 0.9570(5) 0.7937(3)
N6_2 N 0.3646(2) 0.9969(3) 0.74088(16)
H9_4 H 0.6264 0.9804 0.9173
C17_3 C 0.4560(4) 0.9275(6) 0.7395(3)
H11_3 H 0.4711 0.8638 0.7026
O1_4 O 0.3527(2) 0.9488(2) 0.58484(12)
O2_4 O 0.2756(2) 0.7633(3) 0.62174(15)
N1_4 N 0.5325(3) 0.5517(4) 0.33369(17)
N2_2 N 0.4789(4) 0.4570(5) 0.2937(3)
C1_4 C 0.3360(3) 0.8244(4) 0.57873(18)
C2_4 C 0.3908(3) 0.7513(4) 0.51552(19)
C3_4 C 0.4752(3) 0.8057(4) 0.4787(2)
H1_4 H 0.5013 0.8884 0.4940
C4_4 C 0.5225(3) 0.7391(4) 0.4187(2)
H2_4 H 0.5804 0.7764 0.3941
C5_4 C 0.4839(3) 0.6193(4) 0.39616(19)
C6_4 C 0.4000(4) 0.5627(5) 0.4329(3)
H3_2 H 0.3736 0.4804 0.4173
C7_4 C 0.3556(4) 0.6290(4) 0.4930(3)
H4_4 H 0.2999 0.5894 0.5190
C8_4 C 0.5440(4) 0.4275(6) 0.2395(3)
H5_4 H 0.5289 0.3638 0.2026
C9_4 C 0.6247(3) 0.5739(4) 0.30147(18)
H6_4 H 0.6747 0.6347 0.3188
N4_4 N 0.9675(3) 0.4483(4) 0.33369(17)
H7_4 H 0.9987 0.1116 0.4940
C13_4 C 0.9775(3) 0.2609(4) 0.4187(2)
H8_4 H 0.9196 0.2236 0.3941
C17_4 C 0.9560(4) 0.5725(6) 0.2395(3)
H11_4 H 0.9711 0.6362 0.2026
C18_4 C 0.8753(3) 0.4261(4) 0.30147(18)
H12_4 H 0.8253 0.3653 0.3188
N2_3 N 0.9789(4) 0.0430(5) 0.7937(3)
H3_3 H 0.8736 0.0196 0.9173
N2_4 N 0.0211(4) 0.9570(5) 0.2063(3)
H3_4 H 0.1264 0.9804 0.0827
loop_
_geom_bond_atom_site_label_1
_geom_bond_atom_site_label_2
_geom_bond_site_symmetry_1
_geom_bond_site_symmetry_2
N6 C17 1_555 1_555
H8 C13 1_555 1_555
C17 H11 1_555 1_555
C18 N4 1_555 1_555
H12 C18 1_555 1_555
Cu3 N6 1_555 1_555
N6 C18 1_555 1_555
Cu1 O1 1_555 1_555
O1 C1 1_555 1_555
O2 Cu1 1_555 1_555
N1 N2 1_555 1_555
N2 C8 1_555 1_555
N3 C8 1_555 1_555
C1 O2 1_555 1_555
C2 C1 1_555 1_555
C3 C2 1_555 1_555
H1 C3 1_555 1_555
C4 C3 1_555 1_555
H2 C4 1_555 1_555
C5 N1 1_555 1_555
C6 C5 1_555 1_555
H3 C6 1_555 1_555
C7 C2 1_555 1_555
H4 C7 1_555 1_555
C8 H5 1_555 1_555
C9 N1 1_555 1_555
H6 C9 1_555 1_555
Cu3 N3 1_555 1_555
N8 Cu1 1_555 1_555
N3 C9 1_555 1_555
C4 C5 1_555 1_555
C6 C7 1_555 1_555
N5 C17_2 1_555 1_555
N8 C17_2 1_555 1_555
C17_2 H11_2 1_555 1_555
Cu3 O1_2 1_555 1_555
O1_2 C1_2 1_555 1_555
O2_2 Cu3 1_555 1_555
C1_2 O2_2 1_555 1_555
C2_2 C1_2 1_555 1_555
O3 Cu3 1_555 1_555
O4 Cu3 1_555 1_555
C10 O3 1_555 1_555
C11 C10 1_555 1_555
O4 C10 1_555 1_555
H2_2 C4_2 1_555 1_555
C9_2 N1_2 1_555 1_555
H6_2 C9_2 1_555 1_555
O3_2 Cu1_2 1_555 1_555
O4_2 Cu1_2 1_555 1_555
C10_2 O3_2 1_555 1_555
C11_2 C10_2 1_555 1_555
C12 C11_2 1_555 1_555
C15 C14 1_555 1_555
H9_2 C15 1_555 1_555
C16 C11_2 1_555 1_555
H10_2 C16 1_555 1_555
N7 Cu1_2 1_555 1_555
O4_2 C10_2 1_555 1_555
C15 C16 1_555 1_555
C6_2 C5_2 1_555 1_555
H7_2 C12_2 1_555 1_555
C13_2 C12_2 1_555 1_555
H8_2 C13_2 1_555 1_555
C14_2 N4_2 1_555 1_555
C15_2 C14_2 1_555 1_555
C18_2 N4_2 1_555 1_555
H12_2 C18_2 1_555 1_555
C6_2 C7_2 1_555 1_555
C13_2 C14_2 1_555 1_555
C15_2 C16_2 1_555 1_555
N7 C8_2 1_555 1_555
C8_2 H5_2 1_555 1_555
N3_2 C8_3 1_555 1_555
C8_3 H5_3 1_555 1_555
Cu2 N3_2 1_555 1_555
C6_3 C5_3 1_555 1_555
H7_3 C12_3 1_555 1_555
C13_3 C12_3 1_555 1_555
H8_3 C13_3 1_555 1_555
C14_3 N4_3 1_555 1_555
C15_3 C14_3 1_555 1_555
C18_3 N4_3 1_555 1_555
H12_3 C18_3 1_555 1_555
C6_3 C7_3 1_555 1_555
C13_3 C14_3 1_555 1_555
C15_3 C16_3 1_555 1_555
O3_3 Cu2 1_555 1_555
O4_3 Cu2 1_555 1_555
C10_3 O3_3 1_555 1_555
C11_3 C10_3 1_555 1_555
C12_4 C11_3 1_555 1_555
C15_4 C14_4 1_555 1_555
H9_3 C15_4 1_555 1_555
C16_4 C11_3 1_555 1_555
H10_3 C16_4 1_555 1_555
O4_3 C10_3 1_555 1_555
C15_4 C16_4 1_555 1_555
H2_3 C4_3 1_555 1_555
C9_3 N1_3 1_555 1_555
H6_3 C9_3 1_555 1_555
Cu1_3 O1_3 1_555 1_555
O1_3 C1_3 1_555 1_555
O2_3 Cu1_3 1_555 1_555
C1_3 O2_3 1_555 1_555
C2_3 C1_3 1_555 1_555
O3_4 Cu1_3 1_555 1_555
O4_4 Cu1_3 1_555 1_555
C10_4 O3_4 1_555 1_555
C11_4 C10_4 1_555 1_555
N7_2 Cu1_3 1_555 1_555
N8_2 Cu1_3 1_555 1_555
O4_4 C10_4 1_555 1_555
N5_4 C17_3 1_555 1_555
N6_2 C17_3 1_555 1_555
C17_3 H11_3 1_555 1_555
Cu2_2 N6_2 1_555 1_555
Cu2_2 O1_4 1_555 1_555
O1_4 C1_4 1_555 1_555
O2_4 Cu2_2 1_555 1_555
N1_4 N2_2 1_555 1_555
N2_2 C8_4 1_555 1_555
N7_2 C8_4 1_555 1_555
C1_4 O2_4 1_555 1_555
C2_4 C1_4 1_555 1_555
C3_4 C2_4 1_555 1_555
H1_4 C3_4 1_555 1_555
C4_4 C3_4 1_555 1_555
H2_4 C4_4 1_555 1_555
C5_4 N1_4 1_555 1_555
C6_4 C5_4 1_555 1_555
H3_2 C6_4 1_555 1_555
C7_4 C2_4 1_555 1_555
H4_4 C7_4 1_555 1_555
C8_4 H5_4 1_555 1_555
C9_4 N1_4 1_555 1_555
H6_4 C9_4 1_555 1_555
N7_2 C9_4 1_555 1_555
C4_4 C5_4 1_555 1_555
C6_4 C7_4 1_555 1_555
N8_2 C17_4 1_555 1_555
H8_4 C13_4 1_555 1_555
C17_4 H11_4 1_555 1_555
C18_4 N4_4 1_555 1_555
H12_4 C18_4 1_555 1_555
N8_2 C18_4 1_555 1_555

#END
