
###############################################################################
#
# This file contains modified crystal structure data generated from the
# MOF subset of the Cambridge Structural Database (CSD) v543 
# hosted by the Cambridge Crystallographic Data Centre (CCDC).
#
# This work is licensed under the Creative Commons
# Attribution-NonCommercial-ShareAlike 4.0 International License.
# To view a copy of this license, visit
# http://creativecommons.org/licenses/by-nc-sa/4.0/
# or send a letter to
# Creative Commons, PO Box 1866, Mountain View, CA 94042, USA.
#
# CIF created using the CSD Python API on 29 September 2022
# The structure has been converted into the P1 space group
# The structure has a 3D framework
# The original CSD entry TUPDIT is in the orthorhombic crystal system
# The framework has been calculated to contain at least 10.0% void space
# The void calculation uses a probe of radius 1.32A, grid spacing 0.4
#
###############################################################################

data_TUPDIT
_chemical_formula_moiety         '(C72 H48 Cu6 N24 O16)n'
_symmetry_cell_setting           triclinic
_symmetry_space_group_name_H-M   'P 1'
_symmetry_Int_Tables_number      1
_space_group_name_Hall           'P 1'
loop_
_symmetry_equiv_pos_site_id
_symmetry_equiv_pos_as_xyz
1 x,y,z
_cell_length_a                   12.5529(5)
_cell_length_b                   9.9941(4)
_cell_length_c                   17.6881(8)
_cell_angle_alpha                90
_cell_angle_beta                 90
_cell_angle_gamma                90
_cell_volume                     2219.06
loop_
_atom_site_label
_atom_site_type_symbol
_atom_site_fract_x
_atom_site_fract_y
_atom_site_fract_z
N3 N 0.13497(16) 0.00450(19) 0.24120(13)
C8 C 0.0420(2) 0.0740(4) 0.2397(2)
H5 H 0.0259 0.1366 0.2025
Cu3 Cu 0.2500 0.0000 0.16452(2)
Cu1 Cu 0.7500 0.5000 0.66452(2)
O1 O 0.85383(13) 0.54909(17) 0.58523(10)
O2 O 0.77690(14) 0.73596(19) 0.62362(11)
C1 C 0.83735(17) 0.6744(3) 0.57968(14)
C2 C 0.89208(18) 0.7486(3) 0.51709(15)
C3 C 0.9777(2) 0.6945(3) 0.47955(18)
C5 C 0.9845(2) 0.8825(3) 0.39797(16)
C6 C 0.8996(2) 0.9393(3) 0.43479(19)
C7 C 0.8553(2) 0.8716(3) 0.4947(2)
H4 H 0.7989 0.9103 0.5208
O3 O 0.64617(13) 0.45091(17) 0.58523(10)
O4 O 0.72310(14) 0.26404(19) 0.62362(11)
N4 N 0.46855(17) 0.0498(3) 0.33477(13)
C10 C 0.66265(17) 0.3256(3) 0.57968(14)
C11 C 0.60792(18) 0.2514(3) 0.51709(15)
C12 C 0.5223(2) 0.3055(3) 0.47955(18)
H7 H 0.4953 0.3879 0.4947
C13 C 0.4759(2) 0.2388(3) 0.41951(18)
H8 H 0.4183 0.2763 0.3941
C14 C 0.5155(2) 0.1175(3) 0.39797(16)
C15 C 0.6004(2) 0.0607(3) 0.43479(19)
C16 C 0.6447(2) 0.1284(3) 0.4947(2)
H10 H 0.7011 0.0897 0.5208
C18 C 0.37495(18) 0.0724(3) 0.30185(15)
H12 H 0.3241 0.1330 0.3189
N7 N 0.63497(16) 0.49550(19) 0.74120(13)
N8 N 0.86503(16) 0.50450(19) 0.74120(13)
O3_2 O 0.14617(13) 0.04909(17) 0.08523(10)
O4_2 O 0.22310(14) 0.23596(19) 0.12362(11)
C10_2 C 0.16265(17) 0.1744(3) 0.07968(14)
C11_2 C 0.10792(18) 0.2486(3) 0.01709(15)
H10_2 H 0.2011 0.4103 0.0208
N1 N 0.53145(17) 0.5498(3) 0.83477(13)
N2 N 0.4771(2) 0.4550(3) 0.79524(18)
C3_2 C 0.4777(2) 0.8055(3) 0.97955(18)
H1 H 0.5047 0.8879 0.9947
C4 C 0.5241(2) 0.7388(3) 0.91951(18)
H2 H 0.5817 0.7763 0.8941
C5_2 C 0.4845(2) 0.6175(3) 0.89797(16)
C6_2 C 0.3996(2) 0.5607(3) 0.93479(19)
H3 H 0.3726 0.4783 0.9196
C7_2 C 0.3553(2) 0.6284(3) 0.9947(2)
C8_2 C 0.5420(2) 0.4260(4) 0.7397(2)
H5_2 H 0.5259 0.3634 0.7025
C9 C 0.62505(18) 0.5724(3) 0.80185(15)
H6 H 0.6759 0.6330 0.8189
N4_2 N 0.96855(17) 0.4502(3) 0.83477(13)
H7_2 H 0.9953 0.1121 0.9947
C13_2 C 0.9759(2) 0.2612(3) 0.91951(18)
H8_2 H 0.9183 0.2237 0.8941
C17 C 0.9580(2) 0.5740(4) 0.7397(2)
H11 H 0.9741 0.6366 0.7025
C18_2 C 0.87495(18) 0.4276(3) 0.80185(15)
H12_2 H 0.8241 0.3670 0.8189
N1_2 N 0.03145(17) 0.9502(3) 0.33477(13)
H1_2 H 0.0047 0.6121 0.4947
C4_2 C 0.0241(2) 0.7612(3) 0.41951(18)
H2_2 H 0.0817 0.7237 0.3941
C9_2 C 0.12505(18) 0.9276(3) 0.30185(15)
H6_2 H 0.1759 0.8670 0.3189
Cu3_2 Cu 0.2500 1.0000 0.16452(2)
N5 N 0.5229(2) 0.9550(3) 0.29524(18)
N6 N 0.36503(16) 0.99550(19) 0.24120(13)
H9 H 0.6274 0.9783 0.4196
C17_2 C 0.4580(2) 0.9260(4) 0.2397(2)
H11_2 H 0.4741 0.8634 0.2025
O1_2 O 0.35383(13) 0.95091(17) 0.08523(10)
O2_2 O 0.27690(14) 0.76404(19) 0.12362(11)
C1_2 C 0.33735(17) 0.8256(3) 0.07968(14)
C2_2 C 0.39208(18) 0.7514(3) 0.01709(15)
H4_2 H 0.2989 0.5897 0.0208
N2_2 N 0.9771(2) 0.0450(3) 0.29524(18)
H3_2 H 0.8726 0.0217 0.4196
N4_3 N 0.03145(17) 0.5498(3) 0.16523(13)
N6_2 N 0.13497(16) 0.49550(19) 0.25880(13)
H7_3 H 0.0047 0.8879 0.0053
C13_3 C 0.0241(2) 0.7388(3) 0.08049(18)
H8_3 H 0.0817 0.7763 0.1059
C17_3 C 0.0420(2) 0.4260(4) 0.2603(2)
H11_3 H 0.0259 0.3634 0.2975
C18_3 C 0.12505(18) 0.5724(3) 0.19815(15)
H12_3 H 0.1759 0.6330 0.1811
Cu2 Cu 0.2500 0.5000 0.33548(2)
N1_3 N 0.46855(17) 0.4502(3) 0.16523(13)
N2_3 N 0.5229(2) 0.5450(3) 0.20476(18)
N3_2 N 0.36503(16) 0.50450(19) 0.25880(13)
C3_3 C 0.5223(2) 0.1945(3) 0.02045(18)
H1_3 H 0.4953 0.1121 0.0053
C4_3 C 0.4759(2) 0.2612(3) 0.08049(18)
H2_3 H 0.4183 0.2237 0.1059
C5_3 C 0.5155(2) 0.3825(3) 0.10203(16)
C6_3 C 0.6004(2) 0.4393(3) 0.06521(19)
H3_3 H 0.6274 0.5217 0.0804
C7_3 C 0.6447(2) 0.3716(3) 0.0053(2)
C8_3 C 0.4580(2) 0.5740(4) 0.2603(2)
H5_3 H 0.4741 0.6366 0.2975
C9_3 C 0.37495(18) 0.4276(3) 0.19815(15)
H6_3 H 0.3241 0.3670 0.1811
Cu1_2 Cu 0.7500 1.0000 0.83548(2)
O3_3 O 0.85383(13) 0.95091(17) 0.91477(10)
O4_3 O 0.77690(14) 0.76404(19) 0.87638(11)
C10_3 C 0.83735(17) 0.8256(3) 0.92032(14)
C11_3 C 0.89208(18) 0.7514(3) 0.98291(15)
H10_3 H 0.7989 0.5897 0.9792
N7_2 N 0.86503(16) 0.99550(19) 0.75880(13)
O1_3 O 0.14617(13) 0.45091(17) 0.41477(10)
O2_3 O 0.22310(14) 0.26404(19) 0.37638(11)
C1_3 C 0.16265(17) 0.3256(3) 0.42032(14)
C2_3 C 0.10792(18) 0.2514(3) 0.48291(15)
C3_4 C 0.0223(2) 0.3055(3) 0.52045(18)
C5_4 C 0.0155(2) 0.1175(3) 0.60203(16)
C6_4 C 0.1004(2) 0.0607(3) 0.56521(19)
C7_4 C 0.1447(2) 0.1284(3) 0.5053(2)
H4_3 H 0.2011 0.0897 0.4792
O3_4 O 0.35383(13) 0.54909(17) 0.41477(10)
O4_4 O 0.27690(14) 0.73596(19) 0.37638(11)
N4_4 N 0.53145(17) 0.9502(3) 0.66523(13)
C10_4 C 0.33735(17) 0.6744(3) 0.42032(14)
C11_4 C 0.39208(18) 0.7486(3) 0.48291(15)
C12_2 C 0.4777(2) 0.6945(3) 0.52045(18)
H7_4 H 0.5047 0.6121 0.5053
C13_4 C 0.5241(2) 0.7612(3) 0.58049(18)
H8_4 H 0.5817 0.7237 0.6059
C14_2 C 0.4845(2) 0.8825(3) 0.60203(16)
C15_2 C 0.3996(2) 0.9393(3) 0.56521(19)
C16_2 C 0.3553(2) 0.8716(3) 0.5053(2)
H10_4 H 0.2989 0.9103 0.4792
C18_4 C 0.62505(18) 0.9276(3) 0.69815(15)
H12_4 H 0.6759 0.8670 0.6811
C8_4 C 0.9580(2) 0.9260(4) 0.7603(2)
H5_4 H 0.9741 0.8634 0.7975
Cu1_3 Cu 0.7500 0.0000 0.83548(2)
O1_4 O 0.64617(13) 0.04909(17) 0.91477(10)
O2_4 O 0.72310(14) 0.23596(19) 0.87638(11)
C1_4 C 0.66265(17) 0.1744(3) 0.92032(14)
C2_4 C 0.60792(18) 0.2486(3) 0.98291(15)
H4_4 H 0.7011 0.4103 0.9792
N8_2 N 0.63497(16) 0.00450(19) 0.75880(13)
N5_2 N 0.4771(2) 0.0450(3) 0.70476(18)
H9_2 H 0.3726 0.0217 0.5804
C17_4 C 0.5420(2) 0.0740(4) 0.7603(2)
H11_4 H 0.5259 0.1366 0.7975
N1_4 N 0.96855(17) 0.0498(3) 0.66523(13)
H1_4 H 0.9953 0.3879 0.5053
C4_4 C 0.9759(2) 0.2388(3) 0.58049(18)
H2_4 H 0.9183 0.2763 0.6059
C9_4 C 0.87495(18) 0.0724(3) 0.69815(15)
H6_4 H 0.8241 0.1330 0.6811
N5_3 N 0.9771(2) 0.4550(3) 0.20476(18)
C12_3 C 0.9777(2) 0.8055(3) 0.02045(18)
C14_3 C 0.9845(2) 0.6175(3) 0.10203(16)
C15_3 C 0.8996(2) 0.5607(3) 0.06521(19)
H9_3 H 0.8726 0.4783 0.0804
C16_3 C 0.8553(2) 0.6284(3) 0.0053(2)
N2_4 N 0.0229(2) 0.9550(3) 0.70476(18)
H3_4 H 0.1274 0.9783 0.5804
N5_4 N 0.0229(2) 0.5450(3) 0.79524(18)
C12_4 C 0.0223(2) 0.1945(3) 0.97955(18)
C14_4 C 0.0155(2) 0.3825(3) 0.89797(16)
C15_4 C 0.1004(2) 0.4393(3) 0.93479(19)
H9_4 H 0.1274 0.5217 0.9196
C16_4 C 0.1447(2) 0.3716(3) 0.9947(2)
loop_
_geom_bond_atom_site_label_1
_geom_bond_atom_site_label_2
_geom_bond_site_symmetry_1
_geom_bond_site_symmetry_2
N3 C8 1_555 1_555
C8 H5 1_555 1_555
Cu3 N3 1_555 1_555
Cu1 O1 1_555 1_555
O1 C1 1_555 1_555
O2 Cu1 1_555 1_555
C1 O2 1_555 1_555
C2 C1 1_555 1_555
C3 C2 1_555 1_555
C6 C5 1_555 1_555
C7 C2 1_555 1_555
H4 C7 1_555 1_555
O3 Cu1 1_555 1_555
O4 Cu1 1_555 1_555
C10 O3 1_555 1_555
C11 C10 1_555 1_555
C12 C11 1_555 1_555
H7 C12 1_555 1_555
C13 C12 1_555 1_555
H8 C13 1_555 1_555
C14 N4 1_555 1_555
C15 C14 1_555 1_555
C16 C11 1_555 1_555
H10 C16 1_555 1_555
C18 N4 1_555 1_555
H12 C18 1_555 1_555
N7 Cu1 1_555 1_555
N8 Cu1 1_555 1_555
C6 C7 1_555 1_555
O4 C10 1_555 1_555
C13 C14 1_555 1_555
C15 C16 1_555 1_555
O3_2 Cu3 1_555 1_555
O4_2 Cu3 1_555 1_555
C10_2 O3_2 1_555 1_555
C11_2 C10_2 1_555 1_555
O4_2 C10_2 1_555 1_555
N1 N2 1_555 1_555
N2 C8_2 1_555 1_555
N7 C8_2 1_555 1_555
H1 C3_2 1_555 1_555
C4 C3_2 1_555 1_555
H2 C4 1_555 1_555
C5_2 N1 1_555 1_555
C6_2 C5_2 1_555 1_555
H3 C6_2 1_555 1_555
C8_2 H5_2 1_555 1_555
C9 N1 1_555 1_555
H6 C9 1_555 1_555
N7 C9 1_555 1_555
C4 C5_2 1_555 1_555
C6_2 C7_2 1_555 1_555
N8 C17 1_555 1_555
H8_2 C13_2 1_555 1_555
C17 H11 1_555 1_555
C18_2 N4_2 1_555 1_555
H12_2 C18_2 1_555 1_555
N8 C18_2 1_555 1_555
H2_2 C4_2 1_555 1_555
C9_2 N1_2 1_555 1_555
H6_2 C9_2 1_555 1_555
N5 C17_2 1_555 1_555
N6 C17_2 1_555 1_555
C17_2 H11_2 1_555 1_555
Cu3_2 N6 1_555 1_555
Cu3_2 O1_2 1_555 1_555
O1_2 C1_2 1_555 1_555
O2_2 Cu3_2 1_555 1_555
C1_2 O2_2 1_555 1_555
C2_2 C1_2 1_555 1_555
N6_2 C17_3 1_555 1_555
H8_3 C13_3 1_555 1_555
C17_3 H11_3 1_555 1_555
C18_3 N4_3 1_555 1_555
H12_3 C18_3 1_555 1_555
Cu2 N6_2 1_555 1_555
N6_2 C18_3 1_555 1_555
N1_3 N2_3 1_555 1_555
N2_3 C8_3 1_555 1_555
N3_2 C8_3 1_555 1_555
H1_3 C3_3 1_555 1_555
C4_3 C3_3 1_555 1_555
H2_3 C4_3 1_555 1_555
C5_3 N1_3 1_555 1_555
C6_3 C5_3 1_555 1_555
H3_3 C6_3 1_555 1_555
C8_3 H5_3 1_555 1_555
C9_3 N1_3 1_555 1_555
H6_3 C9_3 1_555 1_555
Cu2 N3_2 1_555 1_555
N3_2 C9_3 1_555 1_555
C4_3 C5_3 1_555 1_555
C6_3 C7_3 1_555 1_555
O3_3 Cu1_2 1_555 1_555
O4_3 Cu1_2 1_555 1_555
C10_3 O3_3 1_555 1_555
C11_3 C10_3 1_555 1_555
N7_2 Cu1_2 1_555 1_555
O4_3 C10_3 1_555 1_555
Cu2 O1_3 1_555 1_555
O1_3 C1_3 1_555 1_555
O2_3 Cu2 1_555 1_555
C1_3 O2_3 1_555 1_555
C2_3 C1_3 1_555 1_555
C3_4 C2_3 1_555 1_555
C6_4 C5_4 1_555 1_555
C7_4 C2_3 1_555 1_555
H4_3 C7_4 1_555 1_555
O3_4 Cu2 1_555 1_555
O4_4 Cu2 1_555 1_555
C10_4 O3_4 1_555 1_555
C11_4 C10_4 1_555 1_555
C12_2 C11_4 1_555 1_555
H7_4 C12_2 1_555 1_555
C13_4 C12_2 1_555 1_555
H8_4 C13_4 1_555 1_555
C14_2 N4_4 1_555 1_555
C15_2 C14_2 1_555 1_555
C16_2 C11_4 1_555 1_555
H10_4 C16_2 1_555 1_555
C18_4 N4_4 1_555 1_555
H12_4 C18_4 1_555 1_555
C6_4 C7_4 1_555 1_555
O4_4 C10_4 1_555 1_555
C13_4 C14_2 1_555 1_555
C15_2 C16_2 1_555 1_555
N7_2 C8_4 1_555 1_555
C8_4 H5_4 1_555 1_555
Cu1_3 O1_4 1_555 1_555
O1_4 C1_4 1_555 1_555
O2_4 Cu1_3 1_555 1_555
C1_4 O2_4 1_555 1_555
C2_4 C1_4 1_555 1_555
N8_2 Cu1_3 1_555 1_555
N5_2 C17_4 1_555 1_555
N8_2 C17_4 1_555 1_555
C17_4 H11_4 1_555 1_555
H2_4 C4_4 1_555 1_555
C9_4 N1_4 1_555 1_555
H6_4 C9_4 1_555 1_555
C15_3 C14_3 1_555 1_555
H9_3 C15_3 1_555 1_555
C15_3 C16_3 1_555 1_555
C15_4 C14_4 1_555 1_555
H9_4 C15_4 1_555 1_555
C15_4 C16_4 1_555 1_555

#END
