
###############################################################################
#
# This file contains modified crystal structure data generated from the
# MOF subset of the Cambridge Structural Database (CSD) v543 
# hosted by the Cambridge Crystallographic Data Centre (CCDC).
#
# This work is licensed under the Creative Commons
# Attribution-NonCommercial-ShareAlike 4.0 International License.
# To view a copy of this license, visit
# http://creativecommons.org/licenses/by-nc-sa/4.0/
# or send a letter to
# Creative Commons, PO Box 1866, Mountain View, CA 94042, USA.
#
# CIF created using the CSD Python API on 29 September 2022
# The structure has been converted into the P1 space group
# The structure has a 3D framework
# The original CSD entry TUPGIU is in the triclinic crystal system
# The framework has been calculated to contain at least 10.0% void space
# The void calculation uses a probe of radius 1.32A, grid spacing 0.4
# The framework is charged, counterions have been retained in the structure
# H atom positions have been added when not included in the experimental data
#
###############################################################################

data_TUPGIU
_chemical_formula_moiety         '(C26 H78 Cl2 N4 Na2 O18)n'
_symmetry_cell_setting           triclinic
_symmetry_space_group_name_H-M   'P 1'
_symmetry_Int_Tables_number      1
_space_group_name_Hall           'P 1'
loop_
_symmetry_equiv_pos_site_id
_symmetry_equiv_pos_as_xyz
1 x,y,z
_cell_length_a                   6.971(1)
_cell_length_b                   12.540(3)
_cell_length_c                   13.212(4)
_cell_angle_alpha                112.62(2)
_cell_angle_beta                 96.10(2)
_cell_angle_gamma                93.44(2)
_cell_volume                     1053.64
loop_
_atom_site_label
_atom_site_type_symbol
_atom_site_fract_x
_atom_site_fract_y
_atom_site_fract_z
O13 O 0.0258(4) 0.3695(3) 0.4451(3)
H4 H 0.0162411 0.597188 0.278267
H18 H 0.0673034 0.432305 0.0688051
H19 H 0.072186 0.586002 0.117871
C14 C 0.0031(6) 0.4966(5) 0.9415(4)
C15 C 0.2129(6) 0.5059(4) 0.9222(4)
N3 N 0.2434(5) 0.5093(3) 0.8112(3)
C16 C 0.4594(6) 0.5099(4) 0.8076(4)
C17 C 0.5389(6) 0.5149(4) 0.7055(4)
O6 O 0.7185(4) 0.5141(3) 0.7128(3)
O7 O 0.4318(4) 0.5218(3) 0.6271(3)
C18 C 0.1394(6) 0.4032(4) 0.7191(4)
C19 C 0.1741(6) 0.6178(4) 0.8049(4)
Na2 Na 0.7514(3) 0.4601(2) 0.5205(2)
Na4 Na 0.2486(3) 0.5399(2) 0.4795(2)
H30 H 0.501352 0.430911 0.815547
H31 H 0.529977 0.58535 0.87899
H32 H 0.255767 0.693502 0.871521
H33 H 0.195856 0.620362 0.72542
H34 H 0.0203541 0.618325 0.813184
H45 H 0.277162 0.431102 0.928115
H46 H 0.287807 0.585282 0.98721
H53 H 0.162083 0.40642 0.639989
H54 H 0.195437 0.326196 0.724825
O1 O 0.2815(4) 0.4859(3) 0.2872(3)
O2 O 0.5682(4) 0.4782(3) 0.3729(3)
N1 N 0.7566(5) 0.4907(3) 0.1888(3)
C1 C 0.4611(6) 0.4851(4) 0.2945(4)
C2 C 0.5406(6) 0.4901(4) 0.1924(4)
C3 C 0.8606(6) 0.5968(4) 0.2809(4)
C4 C 0.8259(6) 0.3822(4) 0.1951(4)
C5 C 0.7871(6) 0.4941(4) 0.0778(4)
C6 C 0.9969(6) 0.5034(5) 0.0585(4)
N2 N 0.2358(5) 0.1276(3) 0.2435(3)
C7 C 0.0342(6) 0.2650(4) 0.3875(4)
C8 C 0.2236(6) 0.2433(4) 0.3365(4)
C9 C 0.4321(6) 0.1361(5) 0.2091(4)
C10 C 0.2193(8) 0.0298(4) 0.2819(4)
C11 C 0.0797(6) 0.1103(4) 0.1490(4)
C12 C 0.0812(7) 0.0014(4) 0.0438(4)
O5 O 0.3622(6) 0.7420(4) 0.5008(3)
C13 C 0.3801(9) 0.7940(7) 0.4227(6)
O14 O 0.9742(4) 0.6305(3) 0.5549(3)
O15 O 0.6378(6) 0.2580(4) 0.4992(3)
C26 C 0.6199(9) 0.2060(7) 0.5773(6)
H1 H 0.470023 0.41465 0.12101
H2 H 0.498648 0.569089 0.184453
H3 H 0.829388 0.596667 0.359886
H5 H 0.812049 0.673955 0.271743
H9 H 0.238324 0.787025 0.37582
H10 H 0.436036 0.885274 0.466483
H11 H 0.479586 0.749341 0.36626
H13 H 0.220153 0.00337532 0.0135281
H14 H 0.251231 0.310273 0.304812
H15 H 0.338518 0.253539 0.403226
H16 H 0.0958098 0.185588 0.127447
H20 H 0.520414 0.250659 0.63374
H21 H 0.563964 0.114726 0.533517
H22 H 0.761676 0.212975 0.62418
H23 H 0.54361 0.152532 0.279223
H24 H 0.450102 0.0548672 0.141832
H25 H 0.445342 0.207082 0.181229
H26 H 0.722838 0.568898 0.0718854
H27 H 0.712193 0.414718 0.0127898
H37 H 0.751109 0.306682 0.125295
H38 H 0.981624 0.384396 0.192384
H39 H 0.79529 0.376733 0.272196
H49 H 0.0804784 0.0265404 0.312004
H51 H 0.336821 0.0438507 0.348461
H35 H 0.932697 0.567695 0.931195
H36 H 0.927814 0.413998 0.882129
H52 H 0.984801 0.399573 0.72529
O9 O 0.0920(5) 0.8160(3) 0.6318(3)
H29 H 0.0601998 0.894446 0.822411
O4 O 0.9080(5) 0.1840(3) 0.3682(3)
H17 H 0.9398 0.105554 0.177589
C20 C 0.9188(7) 0.9986(4) 0.9562(4)
C21 C 0.9203(6) 0.8897(4) 0.8510(4)
N4 N 0.7642(5) 0.8724(3) 0.7565(3)
C22 C 0.7764(6) 0.7567(4) 0.6635(4)
C23 C 0.9658(6) 0.7350(4) 0.6125(4)
C24 C 0.5679(6) 0.8639(5) 0.7909(4)
C25 C 0.7807(8) 0.9702(4) 0.7181(4)
H6 H 0.552402 0.943643 0.860636
H7 H 0.456331 0.851407 0.721871
H8 H 0.552213 0.790469 0.81521
H28 H 0.90419 0.814412 0.872553
H40 H 0.921322 0.975117 0.690331
H41 H 0.66578 0.954816 0.649864
H43 H 0.661482 0.746461 0.596774
H44 H 0.748769 0.689727 0.695188
H48 H 0.779847 0.996625 0.986472
H6_2 H 0.447598 0.0563567 0.139364
H7_2 H 0.543669 0.148593 0.278129
H8_2 H 0.447787 0.209531 0.18479
H40_2 H 0.0786781 0.0248834 0.309669
H41_2 H 0.33422 0.0451844 0.350136
H52_2 H 0.0151988 0.600427 0.27471
H3_2 H 0.170612 0.403333 0.640114
H5_2 H 0.187951 0.326045 0.728257
H23_2 H 0.45639 0.847468 0.720777
H24_2 H 0.549898 0.945133 0.858168
H25_2 H 0.554658 0.792918 0.818771
H37_2 H 0.248891 0.693318 0.874705
H38_2 H 0.0183761 0.615604 0.807616
H39_2 H 0.20471 0.623267 0.727804
H49_2 H 0.919522 0.97346 0.687996
H51_2 H 0.663179 0.956149 0.651539
H32_2 H 0.744233 0.306498 0.128479
H33_2 H 0.804144 0.379638 0.27458
H34_2 H 0.979646 0.381675 0.186816
H53_2 H 0.837917 0.59358 0.360011
H54_2 H 0.804563 0.673804 0.275175
H4_2 H 0.983759 0.402812 0.721733
H12 H 0.0591471 0.924306 0.0620598
H50 H 0.228618 0.947987 0.21312
H42 H 0.233019 0.948311 0.213782
H42_2 H 0.766981 0.0516894 0.786218
H47 H 0.940853 0.0756944 0.93794
H50_2 H 0.771382 0.0520127 0.78688
Cl1 Cl 0.6262(3) 0.8103(1) 0.0976(1)
O16 O 0.4757(8) 0.8411(5) 0.0357(5)
O17 O 0.5346(8) 0.7415(4) 0.1429(5)
O18 O 0.7422(7) 0.7453(4) 0.0208(5)
O19 O 0.7143(7) 0.9164(5) 0.1722(5)
Cl1_2 Cl 0.3738(3) 0.1897(1) 0.9024(1)
O16_2 O 0.5243(8) 0.1589(5) 0.9643(5)
O17_2 O 0.4654(8) 0.2585(4) 0.8571(5)
O18_2 O 0.2578(7) 0.2547(4) 0.9792(5)
O19_2 O 0.2857(7) 0.0836(5) 0.8278(5)
loop_
_geom_bond_atom_site_label_1
_geom_bond_atom_site_label_2
_geom_bond_site_symmetry_1
_geom_bond_site_symmetry_2
C15 C14 1_555 1_555
N3 C15 1_555 1_555
C16 N3 1_555 1_555
C17 C16 1_555 1_555
O6 C17 1_555 1_555
O7 C17 1_555 1_555
C18 N3 1_555 1_555
C19 N3 1_555 1_555
Na2 O6 1_555 1_555
Na4 O7 1_555 1_555
C16 H30 1_555 1_555
C16 H31 1_555 1_555
C19 H32 1_555 1_555
C19 H33 1_555 1_555
C19 H34 1_555 1_555
C15 H45 1_555 1_555
C15 H46 1_555 1_555
C18 H53 1_555 1_555
C18 H54 1_555 1_555
Na4 O1 1_555 1_555
O1 C1 1_555 1_555
O2 C1 1_555 1_555
N1 C2 1_555 1_555
C1 C2 1_555 1_555
C3 N1 1_555 1_555
C4 N1 1_555 1_555
C5 N1 1_555 1_555
C6 C5 1_555 1_555
O13 Na4 1_555 1_555
N2 C8 1_555 1_555
C7 O13 1_555 1_555
C8 C7 1_555 1_555
C9 N2 1_555 1_555
C10 N2 1_555 1_555
C11 N2 1_555 1_555
C12 C11 1_555 1_555
O5 Na4 1_555 1_555
C13 O5 1_555 1_555
Na2 O2 1_555 1_555
O14 Na2 1_555 1_555
O15 Na2 1_555 1_555
C26 O15 1_555 1_555
C2 H1 1_555 1_555
C2 H2 1_555 1_555
C3 H3 1_555 1_555
C3 H5 1_555 1_555
C13 H9 1_555 1_555
C13 H10 1_555 1_555
C13 H11 1_555 1_555
C12 H13 1_555 1_555
C8 H14 1_555 1_555
C8 H15 1_555 1_555
C11 H16 1_555 1_555
C26 H20 1_555 1_555
C26 H21 1_555 1_555
C26 H22 1_555 1_555
C9 H23 1_555 1_555
C9 H24 1_555 1_555
C9 H25 1_555 1_555
C5 H26 1_555 1_555
C5 H27 1_555 1_555
C4 H37 1_555 1_555
C4 H38 1_555 1_555
C4 H39 1_555 1_555
C10 H49 1_555 1_555
C10 H51 1_555 1_555
C21 C20 1_555 1_555
N4 C21 1_555 1_555
C22 N4 1_555 1_555
C23 C22 1_555 1_555
O14 C23 1_555 1_555
C24 N4 1_555 1_555
C25 N4 1_555 1_555
C24 H6 1_555 1_555
C24 H7 1_555 1_555
C24 H8 1_555 1_555
C21 H28 1_555 1_555
C25 H40 1_555 1_555
C25 H41 1_555 1_555
C22 H43 1_555 1_555
C22 H44 1_555 1_555
C20 H48 1_555 1_555
C9 H6_2 1_555 1_555
C9 H7_2 1_555 1_555
C9 H8_2 1_555 1_555
C10 H40_2 1_555 1_555
C10 H41_2 1_555 1_555
C18 H3_2 1_555 1_555
C18 H5_2 1_555 1_555
C24 H23_2 1_555 1_555
C24 H24_2 1_555 1_555
C24 H25_2 1_555 1_555
C19 H37_2 1_555 1_555
C19 H38_2 1_555 1_555
C19 H39_2 1_555 1_555
C25 H49_2 1_555 1_555
C25 H51_2 1_555 1_555
C4 H32_2 1_555 1_555
C4 H33_2 1_555 1_555
C4 H34_2 1_555 1_555
C3 H53_2 1_555 1_555
C3 H54_2 1_555 1_555
Cl1 O16 1_555 1_555
O17 Cl1 1_555 1_555
O18 Cl1 1_555 1_555
O19 Cl1 1_555 1_555
Cl1_2 O16_2 1_555 1_555
O17_2 Cl1_2 1_555 1_555
O18_2 Cl1_2 1_555 1_555
O19_2 Cl1_2 1_555 1_555

#END
