
###############################################################################
#
# This file contains modified crystal structure data generated from the
# MOF subset of the Cambridge Structural Database (CSD) v543 
# hosted by the Cambridge Crystallographic Data Centre (CCDC).
#
# This work is licensed under the Creative Commons
# Attribution-NonCommercial-ShareAlike 4.0 International License.
# To view a copy of this license, visit
# http://creativecommons.org/licenses/by-nc-sa/4.0/
# or send a letter to
# Creative Commons, PO Box 1866, Mountain View, CA 94042, USA.
#
# CIF created using the CSD Python API on 29 September 2022
# The structure has been converted into the P1 space group
# The structure has a 3D framework
# The original CSD entry TURFAP is in the monoclinic crystal system
# The original CSD entry TURFAP is in a Sohncke space group
# The framework has been calculated to contain at least 10.0% void space
# The void calculation uses a probe of radius 1.32A, grid spacing 0.4
# The framework is charged, counterions have been retained in the structure
#
###############################################################################

data_TURFAP
_chemical_formula_moiety         '(C92 H76 Co4 N16 O24)n'
_symmetry_cell_setting           triclinic
_symmetry_space_group_name_H-M   'P 1'
_symmetry_Int_Tables_number      1
_space_group_name_Hall           'P 1'
loop_
_symmetry_equiv_pos_site_id
_symmetry_equiv_pos_as_xyz
1 x,y,z
_cell_length_a                   10.2208(3)
_cell_length_b                   23.9660(9)
_cell_length_c                   11.4286(4)
_cell_angle_alpha                90
_cell_angle_beta                 91.7114(16)
_cell_angle_gamma                90
_cell_volume                     2798.21
loop_
_atom_site_label
_atom_site_type_symbol
_atom_site_fract_x
_atom_site_fract_y
_atom_site_fract_z
C1 C 0.1066(10) 0.6602(5) 0.3275(7)
H1 H 0.1865 0.6675 0.3692
N4 N 0.0006(7) 0.6550(4) 0.3899(7)
C4 C 0.1120(9) 0.6560(5) 0.2087(8)
H4 H 0.1923 0.6600 0.1698
O6 O 0.0250(6) 0.7507(3) 0.5930(6)
H8 H 0.077(5) 0.771(3) 0.639(5)
C19 C 0.0993(11) 0.6286(5) 0.9540(9)
H16 H 0.1745 0.6141 0.9942
C21 C 0.0974(10) 0.6333(5) 0.8333(9)
H18 H 0.1722 0.6214 0.7926
H31 H 0.0611 0.7698 0.3823
H37 H 0.0399 0.8096 0.1910
O7 O 0.1850(6) 0.6315(3) 0.5852(5)
N5 N 0.0881(8) 0.0790(4) 0.4255(7)
C10 C 0.2147(9) 0.0719(4) 0.4029(8)
H9 H 0.2619 0.1024 0.3717
C28 C 0.2795(10) 0.0223(5) 0.4229(10)
H22 H 0.3698 0.0193 0.4064
C32 C 0.0234(10) 0.0337(5) 0.4625(10)
Co5 Co 0.00402(14) 0.16051(6) 0.41947(12)
C7 C 0.9965(10) 0.6459(4) 0.1475(8)
C9 C 0.9914(9) 0.6452(4) 0.0167(8)
C14 C 0.8902(10) 0.6428(4) 0.3306(8)
H13 H 0.8128 0.6373 0.3732
C25 C 0.8828(9) 0.6377(5) 0.2107(8)
H20 H 0.8022 0.6287 0.1715
Co4 Co 0.99598(14) 0.66051(6) 0.58053(12)
Co2 Co 0.49338(14) 0.74161(6) 0.56191(12)
O1 O 0.3058(6) 0.7076(3) 0.5616(6)
O2 O 0.8080(6) 0.6941(3) 0.5694(5)
O4 O 0.6825(6) 0.7705(3) 0.5635(5)
N1 N 0.9957(8) 0.6537(4) 0.7715(6)
N3 N 0.4969(8) 0.7428(4) 0.3719(6)
C3 C 0.6041(9) 0.7366(5) 0.3117(8)
H3 H 0.6836 0.7291 0.3539
C5 C 0.6080(10) 0.7405(5) 0.1906(8)
H5 H 0.6877 0.7355 0.1513
C6 C 0.8833(9) 0.6626(5) 0.9509(8)
H6 H 0.8050 0.6721 0.9891
O5 O 0.5277(6) 0.6523(3) 0.5594(5)
H7 H 0.537(8) 0.651(4) 0.4831(19)
C8 C 0.2916(9) 0.6562(4) 0.5760(7)
C12 C 0.8875(9) 0.6665(5) 0.8310(8)
H11 H 0.8114 0.6785 0.7884
C13 C 0.3860(9) 0.7542(4) 0.3103(7)
H12 H 0.3076 0.7596 0.3514
C15 C 0.4929(10) 0.7517(4) 0.1290(7)
C16 C 0.7903(9) 0.7459(5) 0.5661(7)
N6 N 0.4135(8) 0.8235(4) 0.5469(7)
C20 C 0.3814(10) 0.7586(4) 0.1904(8)
H17 H 0.3007 0.7663 0.1503
C22 C 0.4141(9) 0.6187(4) 0.5816(8)
H19 H 0.4051 0.5898 0.5188
C24 C 0.2829(9) 0.9240(4) 0.4946(9)
C26 C 0.9127(9) 0.7838(5) 0.5712(8)
H21 H 0.9043 0.8111 0.6368
C27 C 0.2139(10) 0.9768(5) 0.4670(9)
C29 C 0.2356(11) 0.8863(5) 0.5756(10)
H23 H 0.1565 0.8939 0.6144
C30 C 0.4272(9) 0.5895(4) 0.6981(8)
C31 C 0.3996(9) 0.9095(5) 0.4407(9)
H24 H 0.4366 0.9339 0.3852
C33 C 0.5108(12) 0.5860(5) 0.8979(10)
H26 H 0.5676 0.6007 0.9575
C34 C 0.3515(10) 0.5428(5) 0.7218(11)
H27 H 0.2972 0.5272 0.6613
C35 C 0.0798(11) 0.9840(5) 0.4853(11)
H28 H 0.0292 0.9539 0.5136
C36 C 0.5089(9) 0.6105(4) 0.7863(9)
H29 H 0.5638 0.6415 0.7713
C37 C 0.9186(10) 0.8161(4) 0.4553(9)
C38 C 0.4601(9) 0.8598(4) 0.4688(8)
H30 H 0.5388 0.8506 0.4311
C39 C 0.9995(14) 0.7987(6) 0.3671(11)
C40 C 0.4328(12) 0.5414(5) 0.9229(11)
H32 H 0.4317 0.5261 0.9996
C41 C 0.3539(12) 0.5188(5) 0.8310(10)
H33 H 0.3021 0.4867 0.8449
C42 C 0.8381(11) 0.8610(5) 0.4373(11)
H34 H 0.7847 0.8737 0.4984
C43 C 0.8342(14) 0.8879(6) 0.3304(13)
H35 H 0.7790 0.9193 0.3181
C44 C 0.3046(11) 0.8379(5) 0.5993(10)
H36 H 0.2719 0.8133 0.6567
C45 C 0.9915(16) 0.8237(7) 0.2544(10)
C46 C 0.9111(19) 0.8687(9) 0.2416(17)
H38 H 0.9078 0.8878 0.1687
N7 N 0.4927(7) 0.7488(3) 0.7514(6)
N9 N 0.9119(8) 0.5790(4) 0.5745(7)
C2 C 0.3841(10) 0.7366(5) 0.8106(8)
H2 H 0.3070 0.7259 0.7679
C11 C 0.3810(9) 0.7391(5) 0.9322(8)
H10 H 0.3014 0.7316 0.9700
C17 C 0.5994(9) 0.7643(4) 0.8152(9)
H14 H 0.6758 0.7743 0.7746
C18 C 0.6048(10) 0.7667(5) 0.9363(9)
H15 H 0.6830 0.7779 0.9769
C23 C 0.4920(9) 0.7523(5) 0.9988(8)
H25 H 0.0681 0.5370 0.5267
N2 N 0.5073(7) 0.2488(3) 0.2486(6)
C2_2 C 0.6159(10) 0.2366(5) 0.1894(8)
H2_2 H 0.6930 0.2259 0.2321
C11_2 C 0.6190(9) 0.2391(5) 0.0678(8)
H10_2 H 0.6986 0.2316 0.0300
C17_2 C 0.4006(9) 0.2643(4) 0.1848(9)
H14_2 H 0.3242 0.2743 0.2254
C18_2 C 0.3952(10) 0.2667(5) 0.0637(9)
H15_2 H 0.3170 0.2779 0.0231
C23_2 C 0.5080(9) 0.2523(5) 0.0012(8)
Co6 Co 0.50662(14) 0.24161(6) 0.43809(12)
O1_2 O 0.6942(6) 0.2076(3) 0.4384(6)
O2_2 O 0.1920(6) 0.1941(3) 0.4306(5)
O3 O 0.8150(6) 0.1315(3) 0.4148(5)
O4_2 O 0.3175(6) 0.2705(3) 0.4365(5)
N1_2 N 0.0043(8) 0.1537(4) 0.2285(6)
N3_2 N 0.5031(8) 0.2428(4) 0.6281(6)
C3_2 C 0.3959(9) 0.2366(5) 0.6883(8)
H3_2 H 0.3164 0.2291 0.6461
C5_2 C 0.3920(10) 0.2405(5) 0.8094(8)
H5_2 H 0.3123 0.2355 0.8487
C6_2 C 0.1167(9) 0.1626(5) 0.0491(8)
H6_2 H 0.1950 0.1721 0.0109
O5_2 O 0.4723(6) 0.1523(3) 0.4406(5)
H7_2 H 0.463(8) 0.151(4) 0.5169(19)
C8_2 C 0.7084(9) 0.1562(4) 0.4240(7)
C10_2 C 0.7853(9) 0.5719(4) 0.5971(8)
H9_2 H 0.7381 0.6024 0.6283
C12_2 C 0.1125(9) 0.1665(5) 0.1690(8)
H11_2 H 0.1886 0.1785 0.2116
C13_2 C 0.6140(9) 0.2542(4) 0.6897(7)
H12_2 H 0.6924 0.2596 0.6486
C15_2 C 0.5071(10) 0.2517(4) 0.8710(7)
C16_2 C 0.2097(9) 0.2459(5) 0.4339(7)
N6_2 N 0.5865(8) 0.3235(4) 0.4531(7)
C20_2 C 0.6186(10) 0.2586(4) 0.8096(8)
H17_2 H 0.6993 0.2663 0.8497
C22_2 C 0.5859(9) 0.1187(4) 0.4184(8)
H19_2 H 0.5949 0.0898 0.4812
C24_2 C 0.7171(9) 0.4240(4) 0.5054(9)
C26_2 C 0.0873(9) 0.2838(5) 0.4288(8)
H21_2 H 0.0957 0.3111 0.3632
C27_2 C 0.7861(10) 0.4768(5) 0.5330(9)
C28_2 C 0.7205(10) 0.5223(5) 0.5771(10)
H22_2 H 0.6302 0.5193 0.5936
C29_2 C 0.7644(11) 0.3863(5) 0.4244(10)
H23_2 H 0.8435 0.3939 0.3856
C30_2 C 0.5728(9) 0.0895(4) 0.3019(8)
C31_2 C 0.6004(9) 0.4095(5) 0.5593(9)
H24_2 H 0.5634 0.4339 0.6148
C32_2 C 0.9766(10) 0.5337(5) 0.5375(10)
C33_2 C 0.4892(12) 0.0860(5) 0.1021(10)
H26_2 H 0.4324 0.1007 0.0425
C34_2 C 0.6485(10) 0.0428(5) 0.2782(11)
H27_2 H 0.7028 0.0272 0.3387
C35_2 C 0.9202(11) 0.4840(5) 0.5147(11)
H28_2 H 0.9708 0.4539 0.4864
C36_2 C 0.4911(9) 0.1105(4) 0.2137(9)
H29_2 H 0.4362 0.1415 0.2287
C37_2 C 0.0814(10) 0.3161(4) 0.5447(9)
C38_2 C 0.5399(9) 0.3598(4) 0.5312(8)
H30_2 H 0.4612 0.3506 0.5689
C39_2 C 0.0005(14) 0.2987(6) 0.6329(11)
C40_2 C 0.5672(12) 0.0414(5) 0.0771(11)
H32_2 H 0.5683 0.0261 0.0004
C41_2 C 0.6461(12) 0.0188(5) 0.1690(10)
C42_2 C 0.1619(11) 0.3610(5) 0.5627(11)
H34_2 H 0.2153 0.3737 0.5016
C43_2 C 0.1658(14) 0.3879(6) 0.6696(13)
H35_2 H 0.2210 0.4193 0.6819
C44_2 C 0.6954(11) 0.3379(5) 0.4007(10)
H36_2 H 0.7281 0.3133 0.3433
C45_2 C 0.0085(16) 0.3237(7) 0.7456(10)
C46_2 C 0.0889(19) 0.3687(9) 0.7584(17)
H38_2 H 0.0922 0.3878 0.8313
C7_2 C 0.0035(10) 0.1459(4) 0.8525(8)
C9_2 C 0.0086(9) 0.1452(4) 0.9833(8)
C14_2 C 0.1098(10) 0.1428(4) 0.6694(8)
H13_2 H 0.1872 0.1373 0.6268
C25_2 C 0.1172(9) 0.1377(5) 0.7893(8)
H20_2 H 0.1978 0.1287 0.8285
O6_2 O 0.9750(6) 0.2507(3) 0.4070(6)
H8_2 H 0.923(5) 0.271(3) 0.361(5)
C19_2 C 0.9007(11) 0.1286(5) 0.0460(9)
H16_2 H 0.8255 0.1141 0.0058
C21_2 C 0.9026(10) 0.1333(5) 0.1667(9)
H18_2 H 0.8278 0.1214 0.2074
H31_2 H 0.9389 0.2698 0.6177
H37_2 H 0.9601 0.3096 0.8090
N8 N 0.9994(7) 0.1550(4) 0.6101(7)
C1_2 C 0.8934(10) 0.1602(5) 0.6725(7)
H1_2 H 0.8135 0.1675 0.6308
C4_2 C 0.8880(9) 0.1560(5) 0.7913(8)
H4_2 H 0.8077 0.1600 0.8302
H25_2 H 0.9319 0.0370 0.4733
H33_2 H 0.6979 0.9867 0.1551
O8 O 0.0613(8) 0.7824(4) 0.9847(7)
N10 N 0.0261(9) 0.7875(4) 0.8812(8)
O9 O 0.1087(7) 0.7838(4) 0.8013(7)
O10 O 0.9100(7) 0.7955(4) 0.8554(8)
O10_2 O 0.0900(7) 0.2955(4) 0.1446(8)
O8_2 O 0.9387(8) 0.2824(4) 0.0153(7)
N10_2 N 0.9739(9) 0.2875(4) 0.1188(8)
O9_2 O 0.8913(7) 0.2838(4) 0.1987(7)
O11 O 0.4027(7) 0.6219(4) 0.2971(7)
O12 O 0.6000(6) 0.6071(3) 0.3647(6)
N11 N 0.5207(9) 0.6099(4) 0.2793(8)
O13 O 0.5549(8) 0.6001(4) 0.1781(7)
O11_2 O 0.5973(7) 0.1219(4) 0.7029(7)
O12_2 O 0.4000(6) 0.1071(3) 0.6353(6)
N11_2 N 0.4793(9) 0.1099(4) 0.7207(8)
O13_2 O 0.4451(8) 0.1001(4) 0.8219(7)
loop_
_geom_bond_atom_site_label_1
_geom_bond_atom_site_label_2
_geom_bond_site_symmetry_1
_geom_bond_site_symmetry_2
C1 H1 1_555 1_555
N4 C1 1_555 1_555
C4 C1 1_555 1_555
H4 C4 1_555 1_555
H8 O6 1_555 1_555
H16 C19 1_555 1_555
H18 C21 1_555 1_555
C19 C21 1_555 1_555
N5 C10 1_555 1_555
C10 H9 1_555 1_555
C28 C10 1_555 1_555
H22 C28 1_555 1_555
C32 N5 1_555 1_555
Co5 N5 1_555 1_555
H13 C14 1_555 1_555
C25 C7 1_555 1_555
H20 C25 1_555 1_555
C7 C9 1_555 1_555
C14 C25 1_555 1_555
Co4 O2 1_555 1_555
Co2 O1 1_555 1_555
O1 C8 1_555 1_555
O2 C16 1_555 1_555
O7 C8 1_555 1_555
O4 Co2 1_555 1_555
N1 Co4 1_555 1_555
N3 Co2 1_555 1_555
C3 N3 1_555 1_555
H3 C3 1_555 1_555
C5 C3 1_555 1_555
H5 C5 1_555 1_555
C6 H6 1_555 1_555
O5 Co2 1_555 1_555
H7 O5 1_555 1_555
C8 C22 1_555 1_555
C12 N1 1_555 1_555
H11 C12 1_555 1_555
C13 N3 1_555 1_555
H12 C13 1_555 1_555
C15 C5 1_555 1_555
C16 O4 1_555 1_555
N6 Co2 1_555 1_555
C20 C13 1_555 1_555
H17 C20 1_555 1_555
C22 O5 1_555 1_555
H19 C22 1_555 1_555
C24 C27 1_555 1_555
H21 C26 1_555 1_555
C29 C24 1_555 1_555
H23 C29 1_555 1_555
C30 C22 1_555 1_555
C31 C24 1_555 1_555
H24 C31 1_555 1_555
C33 H26 1_555 1_555
C34 C30 1_555 1_555
H27 C34 1_555 1_555
C35 C27 1_555 1_555
H28 C35 1_555 1_555
C36 C30 1_555 1_555
H29 C36 1_555 1_555
C37 C26 1_555 1_555
C38 N6 1_555 1_555
H30 C38 1_555 1_555
C39 C37 1_555 1_555
C40 C33 1_555 1_555
H32 C40 1_555 1_555
C41 C34 1_555 1_555
H33 C41 1_555 1_555
C42 C37 1_555 1_555
H34 C42 1_555 1_555
C43 C42 1_555 1_555
H35 C43 1_555 1_555
C44 N6 1_555 1_555
H36 C44 1_555 1_555
C45 C39 1_555 1_555
C46 C43 1_555 1_555
H38 C46 1_555 1_555
N7 Co2 1_555 1_555
N9 Co4 1_555 1_555
C6 C12 1_555 1_555
C15 C20 1_555 1_555
C16 C26 1_555 1_555
C29 C44 1_555 1_555
C31 C38 1_555 1_555
C33 C36 1_555 1_555
C40 C41 1_555 1_555
C45 C46 1_555 1_555
N7 C2 1_555 1_555
C2 H2 1_555 1_555
C11 C2 1_555 1_555
H10 C11 1_555 1_555
C17 N7 1_555 1_555
H14 C17 1_555 1_555
C18 C17 1_555 1_555
H15 C18 1_555 1_555
C23 C11 1_555 1_555
C18 C23 1_555 1_555
N2 C2_2 1_555 1_555
C2_2 H2_2 1_555 1_555
C11_2 C2_2 1_555 1_555
H10_2 C11_2 1_555 1_555
C17_2 N2 1_555 1_555
H14_2 C17_2 1_555 1_555
C18_2 C17_2 1_555 1_555
H15_2 C18_2 1_555 1_555
C23_2 C11_2 1_555 1_555
Co6 N2 1_555 1_555
C18_2 C23_2 1_555 1_555
Co5 O2_2 1_555 1_555
Co6 O1_2 1_555 1_555
O1_2 C8_2 1_555 1_555
O2_2 C16_2 1_555 1_555
O3 C8_2 1_555 1_555
O4_2 Co6 1_555 1_555
N1_2 Co5 1_555 1_555
N3_2 Co6 1_555 1_555
C3_2 N3_2 1_555 1_555
H3_2 C3_2 1_555 1_555
C5_2 C3_2 1_555 1_555
H5_2 C5_2 1_555 1_555
C6_2 H6_2 1_555 1_555
O5_2 Co6 1_555 1_555
H7_2 O5_2 1_555 1_555
C8_2 C22_2 1_555 1_555
N9 C10_2 1_555 1_555
C10_2 H9_2 1_555 1_555
C12_2 N1_2 1_555 1_555
H11_2 C12_2 1_555 1_555
C13_2 N3_2 1_555 1_555
H12_2 C13_2 1_555 1_555
C15_2 C5_2 1_555 1_555
C16_2 O4_2 1_555 1_555
N6_2 Co6 1_555 1_555
C20_2 C13_2 1_555 1_555
H17_2 C20_2 1_555 1_555
C22_2 O5_2 1_555 1_555
H19_2 C22_2 1_555 1_555
C24_2 C27_2 1_555 1_555
H21_2 C26_2 1_555 1_555
C27_2 C28_2 1_555 1_555
C28_2 C10_2 1_555 1_555
H22_2 C28_2 1_555 1_555
C29_2 C24_2 1_555 1_555
H23_2 C29_2 1_555 1_555
C30_2 C22_2 1_555 1_555
C31_2 C24_2 1_555 1_555
H24_2 C31_2 1_555 1_555
C32_2 N9 1_555 1_555
C33_2 H26_2 1_555 1_555
C34_2 C30_2 1_555 1_555
H27_2 C34_2 1_555 1_555
C35_2 C27_2 1_555 1_555
H28_2 C35_2 1_555 1_555
C36_2 C30_2 1_555 1_555
H29_2 C36_2 1_555 1_555
C37_2 C26_2 1_555 1_555
C38_2 N6_2 1_555 1_555
H30_2 C38_2 1_555 1_555
C39_2 C37_2 1_555 1_555
C40_2 C33_2 1_555 1_555
H32_2 C40_2 1_555 1_555
C41_2 C34_2 1_555 1_555
C42_2 C37_2 1_555 1_555
H34_2 C42_2 1_555 1_555
C43_2 C42_2 1_555 1_555
H35_2 C43_2 1_555 1_555
C44_2 N6_2 1_555 1_555
H36_2 C44_2 1_555 1_555
C45_2 C39_2 1_555 1_555
C46_2 C43_2 1_555 1_555
H38_2 C46_2 1_555 1_555
C6_2 C12_2 1_555 1_555
C15_2 C20_2 1_555 1_555
C16_2 C26_2 1_555 1_555
C29_2 C44_2 1_555 1_555
C31_2 C38_2 1_555 1_555
C32_2 C35_2 1_555 1_555
C33_2 C36_2 1_555 1_555
C40_2 C41_2 1_555 1_555
C45_2 C46_2 1_555 1_555
H13_2 C14_2 1_555 1_555
C25_2 C7_2 1_555 1_555
H20_2 C25_2 1_555 1_555
C7_2 C9_2 1_555 1_555
C14_2 C25_2 1_555 1_555
H8_2 O6_2 1_555 1_555
H16_2 C19_2 1_555 1_555
H18_2 C21_2 1_555 1_555
C19_2 C21_2 1_555 1_555
C1_2 H1_2 1_555 1_555
N8 C1_2 1_555 1_555
C4_2 C1_2 1_555 1_555
H4_2 C4_2 1_555 1_555
O8 N10 1_555 1_555
N10 O9 1_555 1_555
O8_2 N10_2 1_555 1_555
N10_2 O9_2 1_555 1_555
O11 N11 1_555 1_555
O12 N11 1_555 1_555
N11 O13 1_555 1_555
O11_2 N11_2 1_555 1_555
O12_2 N11_2 1_555 1_555
N11_2 O13_2 1_555 1_555

#END
