
###############################################################################
#
# This file contains modified crystal structure data generated from the
# MOF subset of the Cambridge Structural Database (CSD) v543 
# hosted by the Cambridge Crystallographic Data Centre (CCDC).
#
# This work is licensed under the Creative Commons
# Attribution-NonCommercial-ShareAlike 4.0 International License.
# To view a copy of this license, visit
# http://creativecommons.org/licenses/by-nc-sa/4.0/
# or send a letter to
# Creative Commons, PO Box 1866, Mountain View, CA 94042, USA.
#
# CIF created using the CSD Python API on 29 September 2022
# The structure has been converted into the P1 space group
# The structure has a 3D framework
# The original CSD entry TUVCIZ is in the monoclinic crystal system
# The original CSD entry TUVCIZ is in a Sohncke space group
# The framework has been calculated to contain at least 10.0% void space
# The void calculation uses a probe of radius 1.32A, grid spacing 0.4
# H atom positions have been added when not included in the experimental data
# Generated hydrogen atom positions removed from atoms on special positions
#
###############################################################################

data_TUVCIZ
_chemical_formula_moiety         '(C144 H152 Cu4 N16 O28)n'
_symmetry_cell_setting           triclinic
_symmetry_space_group_name_H-M   'P 1'
_symmetry_Int_Tables_number      1
_space_group_name_Hall           'P 1'
loop_
_symmetry_equiv_pos_site_id
_symmetry_equiv_pos_as_xyz
1 x,y,z
_cell_length_a                   13.9620(10)
_cell_length_b                   13.1920(10)
_cell_length_c                   22.6053(16)
_cell_angle_alpha                90
_cell_angle_beta                 91.122(3)
_cell_angle_gamma                90
_cell_volume                     4162.8
loop_
_atom_site_label
_atom_site_type_symbol
_atom_site_fract_x
_atom_site_fract_y
_atom_site_fract_z
H29 H 0.0111 0.0376 0.3820
C35 C 0.0163(14) 0.1616(19) 0.4736(6)
H32 H 0.0624 0.1069 0.4708
H33 H 0.0510 0.2245 0.4680
C43 C 0.1024(9) 0.0737(10) 0.6693(6)
H41 H 0.0894 0.0267 0.6987
C44 C 0.0409(10) 0.0816(13) 0.6206(8)
C45 C 0.0528(13) 0.1508(14) 0.5759(7)
C46 C 0.1290(15) 0.2149(17) 0.5855(8)
H43 H 0.1390 0.2677 0.5591
C47 C 0.1927(13) 0.2029(13) 0.6344(7)
H44 H 0.2452 0.2458 0.6384
N6 N 0.1792(6) 0.1321(8) 0.6744(4)
Cu3 Cu 0.27057(8) 0.11775(7) 0.74316(5)
O4 O 0.8429(8) 0.0681(7) 0.8175(4)
C13 C 0.8384(10) 0.0029(8) 0.9972(6)
C14 C 0.8242(9) 0.0294(8) 0.9409(6)
H12 H 0.8263 0.0980 0.9314
C19 C 0.7026(15) 0.0034(12) 0.7405(7)
H15 H 0.6912 0.0755 0.7446
H18 H 0.5743 0.0002 0.6983
C37 C 0.3385(9) 0.0180(10) 0.8522(5)
C39 C 0.4667(8) 0.0667(11) 0.9174(5)
C40 C 0.4804(8) 0.1485(8) 0.8803(5)
H37 H 0.5285 0.1952 0.8889
C41 C 0.4228(8) 0.1613(8) 0.8304(5)
H38 H 0.4331 0.2170 0.8061
C42 C 0.5295(9) 0.0493(15) 0.9728(5)
H40 H 0.5775 0.1023 0.9758
N5 N 0.3523(6) 0.0957(5) 0.8157(4)
O14 O 0.3995(6) 0.1485(6) 0.6791(4)
H57 H 0.1495 0.0530 0.9747
O15 O 0.2581(6) 0.2639(5) 0.7634(4)
O17 O 0.1404(6) 0.2002(6) 0.8138(5)
O4_2 O 0.3429(8) 0.5681(7) 0.8175(4)
C13_2 C 0.3384(10) 0.5029(8) 0.9972(6)
C14_2 C 0.3242(9) 0.5294(8) 0.9409(6)
H12_2 H 0.3263 0.5980 0.9314
C15 C 0.3066(8) 0.4610(8) 0.8958(6)
C16 C 0.3074(10) 0.3574(8) 0.9122(6)
H13 H 0.2988 0.3075 0.8835
C17 C 0.3208(10) 0.3305(8) 0.9709(6)
H14 H 0.3200 0.2624 0.9814
C18 C 0.2949(9) 0.4982(8) 0.8336(6)
C19_2 C 0.2026(15) 0.5034(12) 0.7405(7)
H15_2 H 0.1912 0.5755 0.7446
H16 H 0.2546 0.4935 0.7132
C20 C 0.1164(14) 0.4527(13) 0.7187(8)
H17 H 0.1324 0.3984 0.6917
H18_2 H 0.0743 0.5002 0.6983
C21 C 0.0693(10) 0.4110(13) 0.7728(7)
H19 H 0.0285 0.3538 0.7627
H20 H 0.0312 0.4626 0.7919
C22 C 0.1552(9) 0.3775(9) 0.8134(6)
H21 H 0.1383 0.3802 0.8553
C23 C 0.1859(8) 0.2732(8) 0.7962(5)
N4 N 0.2269(8) 0.4577(7) 0.7988(5)
H37_2 H 0.0285 0.6952 0.8889
C42_2 C 0.0295(9) 0.5493(15) 0.9728(5)
H39 H 0.0624 0.4848 0.9695
H40_2 H 0.0775 0.6023 0.9758
Cu1 Cu 0.72943(8) 0.11775(7) 0.25684(5)
O7 O 0.6005(6) 0.1485(6) 0.3209(4)
H11 H 0.8505 0.0530 0.0253
C24 C 0.6615(9) 0.0180(10) 0.1478(5)
C26 C 0.5333(8) 0.0667(11) 0.0826(5)
C27 C 0.5196(8) 0.1485(8) 0.1197(5)
H24 H 0.4715 0.1952 0.1111
C28 C 0.5772(8) 0.1613(8) 0.1696(5)
H25 H 0.5669 0.2170 0.1939
C29 C 0.4705(9) 0.0493(15) 0.0272(5)
H27 H 0.4225 0.1023 0.0242
C30 C 0.8976(9) 0.0737(10) 0.3307(6)
H28 H 0.9106 0.0267 0.3013
C31 C 0.9591(10) 0.0816(13) 0.3794(8)
C32 C 0.9472(13) 0.1508(14) 0.4241(7)
C33 C 0.8710(15) 0.2149(17) 0.4145(8)
H30 H 0.8610 0.2677 0.4409
C34 C 0.8073(13) 0.2029(13) 0.3656(7)
H31 H 0.7548 0.2458 0.3616
N2 N 0.6477(6) 0.0957(5) 0.1843(4)
N3 N 0.8208(6) 0.1321(8) 0.3256(4)
H42 H 0.9889 0.0376 0.6180
C48 C 0.9837(14) 0.1616(19) 0.5264(6)
H45 H 0.9376 0.1069 0.5292
H46 H 0.9490 0.2245 0.5320
O11 O 0.1571(8) 0.0681(7) 0.1825(4)
C61 C 0.1616(10) 0.0029(8) 0.0028(6)
C62 C 0.1758(9) 0.0294(8) 0.0591(6)
H58 H 0.1737 0.0980 0.0686
C67 C 0.2974(15) 0.0034(12) 0.2595(7)
H61 H 0.3088 0.0755 0.2554
H64 H 0.4257 0.0002 0.3017
O16 O 0.7419(6) 0.2639(5) 0.2366(4)
O18 O 0.8596(6) 0.2002(6) 0.1862(5)
H24_2 H 0.9715 0.6952 0.1111
C29_2 C 0.9705(9) 0.5493(15) 0.0272(5)
H26 H 0.9376 0.4848 0.0305
H27_2 H 0.9225 0.6023 0.0242
O11_2 O 0.6571(8) 0.5681(7) 0.1825(4)
C61_2 C 0.6616(10) 0.5029(8) 0.0028(6)
C62_2 C 0.6758(9) 0.5294(8) 0.0591(6)
H58_2 H 0.6737 0.5980 0.0686
C63 C 0.6934(8) 0.4610(8) 0.1042(6)
C64 C 0.6926(10) 0.3574(8) 0.0878(6)
H59 H 0.7012 0.3075 0.1165
C65 C 0.6792(10) 0.3305(8) 0.0291(6)
H60 H 0.6800 0.2624 0.0186
C66 C 0.7051(9) 0.4982(8) 0.1664(6)
C67_2 C 0.7974(15) 0.5034(12) 0.2595(7)
H61_2 H 0.8088 0.5755 0.2554
H62 H 0.7454 0.4935 0.2868
C68 C 0.8836(14) 0.4527(13) 0.2813(8)
H63 H 0.8676 0.3984 0.3083
H64_2 H 0.9257 0.5002 0.3017
C69 C 0.9307(10) 0.4110(13) 0.2272(7)
H65 H 0.9715 0.3538 0.2373
H66 H 0.9688 0.4626 0.2081
C70 C 0.8448(9) 0.3775(9) 0.1866(6)
H67 H 0.8617 0.3802 0.1447
C71 C 0.8141(8) 0.2732(8) 0.2038(5)
N8 N 0.7731(8) 0.4577(7) 0.2012(5)
O1 O 0.6160(7) 0.9462(7) 0.3226(6)
O2 O 0.7388(5) 0.9722(5) 0.2672(3)
O3 O 0.9588(7) 0.7826(8) 0.2795(4)
C1 C 0.6826(8) 0.9160(8) 0.2931(5)
C2 C 0.6450(13) 0.7350(12) 0.3255(9)
H1 H 0.6356 0.6680 0.3087
H2 H 0.5835 0.7637 0.3357
C3 C 0.7180(16) 0.7332(16) 0.3810(10)
H3 H 0.7044 0.7888 0.4077
H4 H 0.7122 0.6700 0.4026
C4 C 0.8175(14) 0.7438(14) 0.3569(9)
H5 H 0.8544 0.7936 0.3792
H6 H 0.8512 0.6795 0.3582
N1 N 0.8012(8) 0.7778(7) 0.2947(5)
C5 C 0.8741(9) 0.7933(8) 0.2605(5)
C6 C 0.8592(9) 0.8223(9) 0.1973(5)
C7 C 0.9210(8) 0.8951(8) 0.1738(5)
H7 H 0.9670 0.9259 0.1981
C8 C 0.9139(8) 0.9203(9) 0.1164(6)
H8 H 0.9539 0.9703 0.1018
C9 C 0.8478(8) 0.8732(7) 0.0781(5)
C10 C 0.7898(8) 0.7965(8) 0.1019(6)
H9 H 0.7462 0.7626 0.0773
C11 C 0.7965(8) 0.7716(8) 0.1597(5)
H10 H 0.7586 0.7198 0.1744
C12 C 0.8357(8) 0.9039(8) 0.0148(5)
H22 H 0.7116 0.9736 0.1565
C25 C 0.6057(10) 0.9996(11) 0.0977(6)
H23 H 0.6168 0.9427 0.0744
H26_2 H 0.4376 0.9848 0.0305
C36 C 0.6989(9) 0.8024(9) 0.2853(7)
H34 H 0.6810 0.7846 0.2445
O12 O 0.2419(6) 0.7639(5) 0.2366(4)
O13 O 0.3596(6) 0.7002(6) 0.1862(5)
C63_2 C 0.1934(8) 0.9610(8) 0.1042(6)
C64_2 C 0.1926(10) 0.8574(8) 0.0878(6)
H59_2 H 0.2012 0.8075 0.1165
C65_2 C 0.1792(10) 0.8305(8) 0.0291(6)
H60_2 H 0.1800 0.7624 0.0186
C66_2 C 0.2051(9) 0.9982(8) 0.1664(6)
H62_2 H 0.2454 0.9935 0.2868
C68_2 C 0.3836(14) 0.9527(13) 0.2813(8)
H63_2 H 0.3676 0.8984 0.3083
C69_2 C 0.4307(10) 0.9110(13) 0.2272(7)
H65_2 H 0.4715 0.8538 0.2373
H66_2 H 0.4688 0.9626 0.2081
C70_2 C 0.3448(9) 0.8775(9) 0.1866(6)
H67_2 H 0.3617 0.8802 0.1447
C71_2 C 0.3141(8) 0.7732(8) 0.2038(5)
N8_2 N 0.2731(8) 0.9577(7) 0.2012(5)
Cu4 Cu 0.22943(8) 0.61775(7) 0.25684(5)
O5 O 0.7581(6) 0.7639(5) 0.7634(4)
O6 O 0.6404(6) 0.7002(6) 0.8138(5)
C15_2 C 0.8066(8) 0.9610(8) 0.8958(6)
C16_2 C 0.8074(10) 0.8574(8) 0.9122(6)
H13_2 H 0.7988 0.8075 0.8835
C17_2 C 0.8208(10) 0.8305(8) 0.9709(6)
H14_2 H 0.8200 0.7624 0.9814
C18_2 C 0.7949(9) 0.9982(8) 0.8336(6)
H16_2 H 0.7546 0.9935 0.7132
C20_2 C 0.6164(14) 0.9527(13) 0.7187(8)
H17_2 H 0.6324 0.8984 0.6917
C21_2 C 0.5693(10) 0.9110(13) 0.7728(7)
H19_2 H 0.5285 0.8538 0.7627
H20_2 H 0.5312 0.9626 0.7919
C22_2 C 0.6552(9) 0.8775(9) 0.8134(6)
H21_2 H 0.6383 0.8802 0.8553
C23_2 C 0.6859(8) 0.7732(8) 0.7962(5)
N4_2 N 0.7269(8) 0.9577(7) 0.7988(5)
H35 H 0.2884 0.9736 0.8435
C38 C 0.3943(10) 0.9996(11) 0.9023(6)
H36 H 0.3832 0.9427 0.9256
H39_2 H 0.5624 0.9848 0.9695
O8 O 0.3840(7) 0.9462(7) 0.6774(6)
O9 O 0.2612(5) 0.9722(5) 0.7328(3)
O10 O 0.0412(7) 0.7826(8) 0.7205(4)
C49 C 0.3174(8) 0.9160(8) 0.7069(5)
C50 C 0.3550(13) 0.7350(12) 0.6745(9)
H47 H 0.3644 0.6680 0.6913
H48 H 0.4165 0.7637 0.6643
C51 C 0.2820(16) 0.7332(16) 0.6190(10)
H49 H 0.2956 0.7888 0.5923
H50 H 0.2878 0.6700 0.5974
C52 C 0.1825(14) 0.7438(14) 0.6431(9)
H51 H 0.1456 0.7936 0.6208
H52 H 0.1488 0.6795 0.6418
N7 N 0.1988(8) 0.7778(7) 0.7053(5)
C53 C 0.1259(9) 0.7933(8) 0.7395(5)
C54 C 0.1408(9) 0.8223(9) 0.8027(5)
C55 C 0.0790(8) 0.8951(8) 0.8262(5)
H53 H 0.0330 0.9259 0.8019
C56 C 0.0861(8) 0.9203(9) 0.8836(6)
H54 H 0.0461 0.9703 0.8982
C57 C 0.1522(8) 0.8732(7) 0.9219(5)
C58 C 0.2102(8) 0.7965(8) 0.8981(6)
H55 H 0.2538 0.7626 0.9227
C59 C 0.2035(8) 0.7716(8) 0.8403(5)
H56 H 0.2414 0.7198 0.8256
C60 C 0.1643(8) 0.9039(8) 0.9852(5)
C72 C 0.3011(9) 0.8024(9) 0.7147(7)
H68 H 0.3190 0.7846 0.7555
Cu5 Cu 0.77057(8) 0.61775(7) 0.74316(5)
O1_2 O 0.1160(7) 0.4462(7) 0.3226(6)
O2_2 O 0.2388(5) 0.4722(5) 0.2672(3)
O3_2 O 0.4588(7) 0.2826(8) 0.2795(4)
O7_2 O 0.1005(6) 0.6485(6) 0.3209(4)
C1_2 C 0.1826(8) 0.4160(8) 0.2931(5)
C2_2 C 0.1450(13) 0.2350(12) 0.3255(9)
H1_2 H 0.1356 0.1680 0.3087
H2_2 H 0.0835 0.2637 0.3357
C3_2 C 0.2180(16) 0.2332(16) 0.3810(10)
H3_2 H 0.2044 0.2888 0.4077
H4_2 H 0.2122 0.1700 0.4026
C4_2 C 0.3175(14) 0.2438(14) 0.3569(9)
H5_2 H 0.3544 0.2936 0.3792
H6_2 H 0.3512 0.1795 0.3582
N1_2 N 0.3012(8) 0.2778(7) 0.2947(5)
C5_2 C 0.3741(9) 0.2933(8) 0.2605(5)
C6_2 C 0.3592(9) 0.3223(9) 0.1973(5)
C7_2 C 0.4210(8) 0.3951(8) 0.1738(5)
H7_2 H 0.4670 0.4259 0.1981
C8_2 C 0.4139(8) 0.4203(9) 0.1164(6)
H8_2 H 0.4539 0.4703 0.1018
C9_2 C 0.3478(8) 0.3732(7) 0.0781(5)
C10_2 C 0.2898(8) 0.2965(8) 0.1019(6)
H9_2 H 0.2462 0.2626 0.0773
C11_2 C 0.2965(8) 0.2716(8) 0.1597(5)
H10_2 H 0.2586 0.2198 0.1744
C12_2 C 0.3357(8) 0.4039(8) 0.0148(5)
H11_2 H 0.3505 0.5530 0.0253
C24_2 C 0.1615(9) 0.5180(10) 0.1478(5)
H22_2 H 0.2116 0.4736 0.1565
C25_2 C 0.1057(10) 0.4996(11) 0.0977(6)
H23_2 H 0.1168 0.4427 0.0744
C26_2 C 0.0333(8) 0.5667(11) 0.0826(5)
C27_2 C 0.0196(8) 0.6485(8) 0.1197(5)
C28_2 C 0.0772(8) 0.6613(8) 0.1696(5)
H25_2 H 0.0669 0.7170 0.1939
C30_2 C 0.3976(9) 0.5737(10) 0.3307(6)
H28_2 H 0.4106 0.5267 0.3013
C31_2 C 0.4591(10) 0.5816(13) 0.3794(8)
H29_2 H 0.5111 0.5376 0.3820
C32_2 C 0.4472(13) 0.6508(14) 0.4241(7)
C33_2 C 0.3710(15) 0.7149(17) 0.4145(8)
H30_2 H 0.3610 0.7677 0.4409
C34_2 C 0.3073(13) 0.7029(13) 0.3656(7)
H31_2 H 0.2548 0.7458 0.3616
C35_2 C 0.5163(14) 0.6616(19) 0.4736(6)
H32_2 H 0.5624 0.6069 0.4708
H33_2 H 0.5510 0.7245 0.4680
N2_2 N 0.1477(6) 0.5957(5) 0.1843(4)
N3_2 N 0.3208(6) 0.6321(8) 0.3256(4)
C36_2 C 0.1989(9) 0.3024(9) 0.2853(7)
H34_2 H 0.1810 0.2846 0.2445
C43_2 C 0.6024(9) 0.5737(10) 0.6693(6)
H41_2 H 0.5894 0.5267 0.6987
C44_2 C 0.5409(10) 0.5816(13) 0.6206(8)
H42_2 H 0.4889 0.5376 0.6180
C45_2 C 0.5528(13) 0.6508(14) 0.5759(7)
C46_2 C 0.6290(15) 0.7149(17) 0.5855(8)
H43_2 H 0.6390 0.7677 0.5591
C47_2 C 0.6927(13) 0.7029(13) 0.6344(7)
H44_2 H 0.7452 0.7458 0.6384
C48_2 C 0.4837(14) 0.6616(19) 0.5264(6)
H45_2 H 0.4376 0.6069 0.5292
H46_2 H 0.4490 0.7245 0.5320
N6_2 N 0.6792(6) 0.6321(8) 0.6744(4)
C37_2 C 0.8385(9) 0.5180(10) 0.8522(5)
H35_2 H 0.7884 0.4736 0.8435
C38_2 C 0.8943(10) 0.4996(11) 0.9023(6)
H36_2 H 0.8832 0.4427 0.9256
C39_2 C 0.9667(8) 0.5667(11) 0.9174(5)
C40_2 C 0.9804(8) 0.6485(8) 0.8803(5)
C41_2 C 0.9228(8) 0.6613(8) 0.8304(5)
H38_2 H 0.9331 0.7170 0.8061
N5_2 N 0.8523(6) 0.5957(5) 0.8157(4)
O8_2 O 0.8840(7) 0.4462(7) 0.6774(6)
O9_2 O 0.7612(5) 0.4722(5) 0.7328(3)
O10_2 O 0.5412(7) 0.2826(8) 0.7205(4)
O14_2 O 0.8995(6) 0.6485(6) 0.6791(4)
C49_2 C 0.8174(8) 0.4160(8) 0.7069(5)
C50_2 C 0.8550(13) 0.2350(12) 0.6745(9)
H47_2 H 0.8644 0.1680 0.6913
H48_2 H 0.9165 0.2637 0.6643
C51_2 C 0.7820(16) 0.2332(16) 0.6190(10)
H49_2 H 0.7956 0.2888 0.5923
H50_2 H 0.7878 0.1700 0.5974
C52_2 C 0.6825(14) 0.2438(14) 0.6431(9)
H51_2 H 0.6456 0.2936 0.6208
H52_2 H 0.6488 0.1795 0.6418
N7_2 N 0.6988(8) 0.2778(7) 0.7053(5)
C53_2 C 0.6259(9) 0.2933(8) 0.7395(5)
C54_2 C 0.6408(9) 0.3223(9) 0.8027(5)
C55_2 C 0.5790(8) 0.3951(8) 0.8262(5)
H53_2 H 0.5330 0.4259 0.8019
C56_2 C 0.5861(8) 0.4203(9) 0.8836(6)
H54_2 H 0.5461 0.4703 0.8982
C57_2 C 0.6522(8) 0.3732(7) 0.9219(5)
C58_2 C 0.7102(8) 0.2965(8) 0.8981(6)
H55_2 H 0.7538 0.2626 0.9227
C59_2 C 0.7035(8) 0.2716(8) 0.8403(5)
H56_2 H 0.7414 0.2198 0.8256
C60_2 C 0.6643(8) 0.4039(8) 0.9852(5)
H57_2 H 0.6495 0.5530 0.9747
C72_2 C 0.8011(9) 0.3024(9) 0.7147(7)
H68_2 H 0.8190 0.2846 0.7555
loop_
_geom_bond_atom_site_label_1
_geom_bond_atom_site_label_2
_geom_bond_site_symmetry_1
_geom_bond_site_symmetry_2
H32 C35 1_555 1_555
H33 C35 1_555 1_555
C43 H41 1_555 1_555
C44 C43 1_555 1_555
C45 C44 1_555 1_555
C46 C45 1_555 1_555
H43 C46 1_555 1_555
C47 C46 1_555 1_555
H44 C47 1_555 1_555
N6 C43 1_555 1_555
Cu3 N6 1_555 1_555
C47 N6 1_555 1_555
C14 C13 1_555 1_555
H12 C14 1_555 1_555
C19 H15 1_555 1_555
C40 C39 1_555 1_555
H37 C40 1_555 1_555
C41 C40 1_555 1_555
H38 C41 1_555 1_555
H40 C42 1_555 1_555
N5 C37 1_555 1_555
Cu3 N5 1_555 1_555
O14 Cu3 1_555 1_555
O15 Cu3 1_555 1_555
O17 Cu3 1_555 1_555
C39 C42 1_555 1_555
C41 N5 1_555 1_555
O4_2 C18 1_555 1_555
O15 C23 1_555 1_555
O17 C23 1_555 1_555
C14_2 C13_2 1_555 1_555
H12_2 C14_2 1_555 1_555
C15 C14_2 1_555 1_555
C16 C15 1_555 1_555
H13 C16 1_555 1_555
H14 C17 1_555 1_555
C18 C15 1_555 1_555
C19_2 H15_2 1_555 1_555
H16 C19_2 1_555 1_555
C20 C19_2 1_555 1_555
H17 C20 1_555 1_555
H18_2 C20 1_555 1_555
C21 C20 1_555 1_555
H19 C21 1_555 1_555
H20 C21 1_555 1_555
C22 C21 1_555 1_555
H21 C22 1_555 1_555
C23 C22 1_555 1_555
N4 C18 1_555 1_555
H39 C42_2 1_555 1_555
H40_2 C42_2 1_555 1_555
C16 C17 1_555 1_555
C19_2 N4 1_555 1_555
C22 N4 1_555 1_555
O7 Cu1 1_555 1_555
C27 C26 1_555 1_555
H24 C27 1_555 1_555
C28 C27 1_555 1_555
H25 C28 1_555 1_555
C29 C26 1_555 1_555
H27 C29 1_555 1_555
C30 H28 1_555 1_555
C31 C30 1_555 1_555
C32 C31 1_555 1_555
C33 C32 1_555 1_555
H30 C33 1_555 1_555
C34 C33 1_555 1_555
H31 C34 1_555 1_555
N2 Cu1 1_555 1_555
N3 Cu1 1_555 1_555
H45 C48 1_555 1_555
H46 C48 1_555 1_555
C62 C61 1_555 1_555
H58 C62 1_555 1_555
C67 H61 1_555 1_555
O16 Cu1 1_555 1_555
O18 Cu1 1_555 1_555
C24 N2 1_555 1_555
C28 N2 1_555 1_555
C30 N3 1_555 1_555
C34 N3 1_555 1_555
H26 C29_2 1_555 1_555
H27_2 C29_2 1_555 1_555
O11_2 C66 1_555 1_555
O16 C71 1_555 1_555
O18 C71 1_555 1_555
C62_2 C61_2 1_555 1_555
H58_2 C62_2 1_555 1_555
C63 C62_2 1_555 1_555
C64 C63 1_555 1_555
H59 C64 1_555 1_555
H60 C65 1_555 1_555
C66 C63 1_555 1_555
C67_2 H61_2 1_555 1_555
H62 C67_2 1_555 1_555
C68 C67_2 1_555 1_555
H63 C68 1_555 1_555
H64_2 C68 1_555 1_555
C69 C68 1_555 1_555
H65 C69 1_555 1_555
H66 C69 1_555 1_555
C70 C69 1_555 1_555
H67 C70 1_555 1_555
C71 C70 1_555 1_555
N8 C66 1_555 1_555
C64 C65 1_555 1_555
C67_2 N8 1_555 1_555
C70 N8 1_555 1_555
O1 C1 1_555 1_555
O2 C1 1_555 1_555
O3 C5 1_555 1_555
C1 C36 1_555 1_555
C2 H1 1_555 1_555
H2 C2 1_555 1_555
C3 C2 1_555 1_555
H3 C3 1_555 1_555
H4 C3 1_555 1_555
C4 C3 1_555 1_555
H5 C4 1_555 1_555
H6 C4 1_555 1_555
N1 C4 1_555 1_555
C5 N1 1_555 1_555
C6 C5 1_555 1_555
C7 C6 1_555 1_555
H7 C7 1_555 1_555
C8 C7 1_555 1_555
H8 C8 1_555 1_555
C9 C8 1_555 1_555
C10 C9 1_555 1_555
H9 C10 1_555 1_555
C11 C6 1_555 1_555
H10 C11 1_555 1_555
C12 C9 1_555 1_555
H23 C25 1_555 1_555
C36 C2 1_555 1_555
H34 C36 1_555 1_555
O12 C71_2 1_555 1_555
O13 C71_2 1_555 1_555
C64_2 C63_2 1_555 1_555
H59_2 C64_2 1_555 1_555
H60_2 C65_2 1_555 1_555
C66_2 C63_2 1_555 1_555
H63_2 C68_2 1_555 1_555
C69_2 C68_2 1_555 1_555
H65_2 C69_2 1_555 1_555
H66_2 C69_2 1_555 1_555
C70_2 C69_2 1_555 1_555
H67_2 C70_2 1_555 1_555
C71_2 C70_2 1_555 1_555
N8_2 C66_2 1_555 1_555
Cu4 O12 1_555 1_555
N1 C36 1_555 1_555
C10 C11 1_555 1_555
O13 Cu4 1_555 1_555
C64_2 C65_2 1_555 1_555
C70_2 N8_2 1_555 1_555
O5 C23_2 1_555 1_555
O6 C23_2 1_555 1_555
C16_2 C15_2 1_555 1_555
H13_2 C16_2 1_555 1_555
H14_2 C17_2 1_555 1_555
C18_2 C15_2 1_555 1_555
H17_2 C20_2 1_555 1_555
C21_2 C20_2 1_555 1_555
H19_2 C21_2 1_555 1_555
H20_2 C21_2 1_555 1_555
C22_2 C21_2 1_555 1_555
H21_2 C22_2 1_555 1_555
C23_2 C22_2 1_555 1_555
N4_2 C18_2 1_555 1_555
H36 C38 1_555 1_555
O8 C49 1_555 1_555
O10 C53 1_555 1_555
C49 O9 1_555 1_555
C50 H47 1_555 1_555
H48 C50 1_555 1_555
C51 C50 1_555 1_555
H49 C51 1_555 1_555
H50 C51 1_555 1_555
C52 C51 1_555 1_555
H51 C52 1_555 1_555
H52 C52 1_555 1_555
N7 C52 1_555 1_555
C53 N7 1_555 1_555
C54 C53 1_555 1_555
C55 C54 1_555 1_555
H53 C55 1_555 1_555
C56 C55 1_555 1_555
H54 C56 1_555 1_555
C57 C56 1_555 1_555
C58 C57 1_555 1_555
H55 C58 1_555 1_555
C59 C54 1_555 1_555
H56 C59 1_555 1_555
C60 C57 1_555 1_555
C72 C49 1_555 1_555
H68 C72 1_555 1_555
Cu5 O5 1_555 1_555
O6 Cu5 1_555 1_555
C16_2 C17_2 1_555 1_555
C22_2 N4_2 1_555 1_555
C50 C72 1_555 1_555
N7 C72 1_555 1_555
C58 C59 1_555 1_555
Cu4 O2_2 1_555 1_555
O1_2 C1_2 1_555 1_555
O2_2 C1_2 1_555 1_555
O3_2 C5_2 1_555 1_555
O7_2 Cu4 1_555 1_555
C1_2 C36_2 1_555 1_555
C2_2 H1_2 1_555 1_555
H2_2 C2_2 1_555 1_555
C3_2 C2_2 1_555 1_555
H3_2 C3_2 1_555 1_555
H4_2 C3_2 1_555 1_555
C4_2 C3_2 1_555 1_555
H5_2 C4_2 1_555 1_555
H6_2 C4_2 1_555 1_555
N1_2 C4_2 1_555 1_555
C5_2 N1_2 1_555 1_555
C6_2 C5_2 1_555 1_555
C7_2 C6_2 1_555 1_555
H7_2 C7_2 1_555 1_555
C8_2 C7_2 1_555 1_555
H8_2 C8_2 1_555 1_555
C9_2 C8_2 1_555 1_555
C10_2 C9_2 1_555 1_555
H9_2 C10_2 1_555 1_555
C11_2 C6_2 1_555 1_555
H10_2 C11_2 1_555 1_555
C12_2 C9_2 1_555 1_555
C24_2 H22_2 1_555 1_555
C25_2 C24_2 1_555 1_555
H23_2 C25_2 1_555 1_555
C26_2 C25_2 1_555 1_555
C27_2 C26_2 1_555 1_555
C28_2 C27_2 1_555 1_555
H25_2 C28_2 1_555 1_555
C30_2 H28_2 1_555 1_555
C31_2 C30_2 1_555 1_555
H29_2 C31_2 1_555 1_555
C32_2 C31_2 1_555 1_555
C33_2 C32_2 1_555 1_555
H30_2 C33_2 1_555 1_555
C34_2 C33_2 1_555 1_555
H31_2 C34_2 1_555 1_555
C35_2 C32_2 1_555 1_555
H32_2 C35_2 1_555 1_555
H33_2 C35_2 1_555 1_555
N2_2 Cu4 1_555 1_555
N3_2 Cu4 1_555 1_555
C36_2 C2_2 1_555 1_555
H34_2 C36_2 1_555 1_555
C43_2 H41_2 1_555 1_555
C44_2 C43_2 1_555 1_555
H42_2 C44_2 1_555 1_555
C45_2 C44_2 1_555 1_555
C46_2 C45_2 1_555 1_555
H43_2 C46_2 1_555 1_555
C47_2 C46_2 1_555 1_555
H44_2 C47_2 1_555 1_555
C48_2 C35_2 1_555 1_555
H45_2 C48_2 1_555 1_555
H46_2 C48_2 1_555 1_555
N6_2 C43_2 1_555 1_555
Cu5 N6_2 1_555 1_555
N1_2 C36_2 1_555 1_555
C10_2 C11_2 1_555 1_555
C24_2 N2_2 1_555 1_555
C28_2 N2_2 1_555 1_555
C30_2 N3_2 1_555 1_555
C34_2 N3_2 1_555 1_555
C45_2 C48_2 1_555 1_555
C47_2 N6_2 1_555 1_555
C37_2 H35_2 1_555 1_555
C38_2 C37_2 1_555 1_555
H36_2 C38_2 1_555 1_555
C39_2 C38_2 1_555 1_555
C40_2 C39_2 1_555 1_555
C41_2 C40_2 1_555 1_555
H38_2 C41_2 1_555 1_555
N5_2 C37_2 1_555 1_555
Cu5 N5_2 1_555 1_555
O8_2 C49_2 1_555 1_555
O9_2 Cu5 1_555 1_555
O10_2 C53_2 1_555 1_555
O14_2 Cu5 1_555 1_555
C49_2 O9_2 1_555 1_555
C50_2 H47_2 1_555 1_555
H48_2 C50_2 1_555 1_555
C51_2 C50_2 1_555 1_555
H49_2 C51_2 1_555 1_555
H50_2 C51_2 1_555 1_555
C52_2 C51_2 1_555 1_555
H51_2 C52_2 1_555 1_555
H52_2 C52_2 1_555 1_555
N7_2 C52_2 1_555 1_555
C53_2 N7_2 1_555 1_555
C54_2 C53_2 1_555 1_555
C55_2 C54_2 1_555 1_555
H53_2 C55_2 1_555 1_555
C56_2 C55_2 1_555 1_555
H54_2 C56_2 1_555 1_555
C57_2 C56_2 1_555 1_555
C58_2 C57_2 1_555 1_555
H55_2 C58_2 1_555 1_555
C59_2 C54_2 1_555 1_555
H56_2 C59_2 1_555 1_555
C60_2 C57_2 1_555 1_555
C72_2 C49_2 1_555 1_555
H68_2 C72_2 1_555 1_555
C41_2 N5_2 1_555 1_555
C50_2 C72_2 1_555 1_555
N7_2 C72_2 1_555 1_555
C58_2 C59_2 1_555 1_555

#END
