
###############################################################################
#
# This file contains modified crystal structure data generated from the
# MOF subset of the Cambridge Structural Database (CSD) v543 
# hosted by the Cambridge Crystallographic Data Centre (CCDC).
#
# This work is licensed under the Creative Commons
# Attribution-NonCommercial-ShareAlike 4.0 International License.
# To view a copy of this license, visit
# http://creativecommons.org/licenses/by-nc-sa/4.0/
# or send a letter to
# Creative Commons, PO Box 1866, Mountain View, CA 94042, USA.
#
# CIF created using the CSD Python API on 29 September 2022
# The structure has been converted into the P1 space group
# The structure has a 3D framework
# The original CSD entry TUVDIX is in the hexagonal crystal system
# The framework has been calculated to contain at least 10.0% void space
# The void calculation uses a probe of radius 1.32A, grid spacing 0.4
# H atom positions have been added when not included in the experimental data
# Generated hydrogen atom positions removed from atoms on special positions
#
###############################################################################

data_TUVDIX
_chemical_formula_moiety         '(C84 H132 Mn15 N12 O66 Pr3)n'
_symmetry_cell_setting           triclinic
_symmetry_space_group_name_H-M   'P 1'
_symmetry_Int_Tables_number      1
_space_group_name_Hall           'P 1'
loop_
_symmetry_equiv_pos_site_id
_symmetry_equiv_pos_as_xyz
1 x,y,z
_cell_length_a                   15.512(2)
_cell_length_b                   15.512(2)
_cell_length_c                   15.645(3)
_cell_angle_alpha                90
_cell_angle_beta                 90
_cell_angle_gamma                120
_cell_volume                     3260.18
loop_
_atom_site_label
_atom_site_type_symbol
_atom_site_fract_x
_atom_site_fract_y
_atom_site_fract_z
Mn2 Mn -0.0000 0.5000 0.5000
Mn3 Mn -0.0000 0.5000 0.0000
O22 O 0.0609(3) 0.6168(3) 0.5951(3)
O23 O 0.0609(3) 0.6168(3) 0.4049(3)
O25 O 0.1419(4) 0.4924(4) 0.5000
O34 O 0.0609(3) 0.4441(4) 0.0951(3)
O36 O 0.1419(4) 0.6495(6) 0.0000
Mn3_2 Mn -0.0000 0.5000 1.0000
O30 O 0.0609(3) 0.4441(4) 0.9049(3)
O31 O 0.1968(3) 0.5807(4) 0.8573(2)
C36 C 0.1603(4) 0.4236(6) 0.8034(4)
N6 N 0.2372(4) 0.4744(4) 0.7500
C37 C 0.1363(4) 0.4875(6) 0.8606(4)
C38 C 0.1071(4) 0.3204(6) 0.8044(5)
H16 H 0.0535 0.2863 0.8414
C39 C 0.1349(6) 0.2699(7) 0.7500
H17 H 0.1003 0.2007 0.7500
C40 C 0.2633(4) 0.4236(6) 0.6966(4)
C41 C 0.3512(4) 0.4875(6) 0.6394(4)
O32 O 0.3832(3) 0.4441(4) 0.5951(3)
O33 O 0.3839(3) 0.5807(4) 0.6427(2)
C42 C 0.2133(5) 0.3204(6) 0.6956(5)
H18 H 0.2328 0.2863 0.6586
O36_2 O 0.1419(4) 0.6495(6) 1.0000
Pr3 Pr 0.3333 0.6667 0.7500
Mn9 Mn 0.5000 0.5000 0.5000
Pr1 Pr 0.6667 0.3333 0.2500
Mn1 Mn 0.5000 0.0000 0.0000
O1 O 0.6168(3) 0.0609(3) 0.0951(3)
O2 O 0.6161(3) 0.1968(3) 0.1427(2)
O3 O 0.4924(4) 0.1419(4) 0.0000
C1 C 0.7367(4) 0.1603(4) 0.1966(4)
N1 N 0.7628(2) 0.2372(4) 0.2500
C2 C 0.6488(4) 0.1363(4) 0.1394(4)
C3 C 0.7867(5) 0.1071(4) 0.1956(5)
H1 H 0.7672 0.0535 0.1586
C4 C 0.8650(3) 0.1349(6) 0.2500
H2 H 0.8996 0.1003 0.2500
C5 C 0.8397(4) 0.2633(4) 0.3034(4)
C6 C 0.8637(4) 0.3512(4) 0.3606(4)
O4 O 0.9391(3) 0.3832(3) 0.4049(3)
O5 O 0.8032(3) 0.3839(3) 0.3573(2)
C7 C 0.8929(4) 0.2133(5) 0.3044(5)
H3 H 0.9465 0.2328 0.3414
O6 O 0.9391(3) 0.5559(4) 0.0951(3)
O7 O 0.8032(3) 0.4193(4) 0.1427(2)
C8 C 0.8397(4) 0.5764(6) 0.1966(4)
N2 N 0.7628(4) 0.5256(4) 0.2500
C9 C 0.8637(4) 0.5125(6) 0.1394(4)
C10 C 0.8929(4) 0.6796(6) 0.1956(5)
H4 H 0.9465 0.7137 0.1586
C11 C 0.8651(6) 0.7301(7) 0.2500
H5 H 0.8997 0.7993 0.2500
C12 C 0.7367(4) 0.5764(6) 0.3034(4)
C13 C 0.6488(4) 0.5125(6) 0.3606(4)
O8 O 0.6168(3) 0.5559(4) 0.4049(3)
O9 O 0.6161(3) 0.4193(4) 0.3573(2)
C14 C 0.7867(5) 0.6796(6) 0.3044(5)
H6 H 0.7672 0.7137 0.3414
O10 O 0.4441(4) 0.3832(3) 0.0951(3)
O11 O 0.5807(4) 0.3839(3) 0.1427(2)
C15 C 0.4236(6) 0.2633(4) 0.1966(4)
N3 N 0.4744(4) 0.2372(2) 0.2500
C16 C 0.4875(6) 0.3512(4) 0.1394(4)
C17 C 0.3204(6) 0.2133(5) 0.1956(5)
H7 H 0.2863 0.2328 0.1586
C18 C 0.2699(7) 0.1350(3) 0.2500
H8 H 0.2007 0.1004 0.2500
C19 C 0.4236(6) 0.1603(4) 0.3034(4)
C20 C 0.4875(6) 0.1363(4) 0.3606(4)
O12 O 0.4441(4) 0.0609(3) 0.4049(3)
O13 O 0.5807(4) 0.1968(3) 0.3573(2)
C21 C 0.3204(6) 0.1071(4) 0.3044(5)
H9 H 0.2863 0.0535 0.3414
Mn2_2 Mn 1.0000 0.5000 0.5000
Mn3_3 Mn 1.0000 0.5000 0.0000
Mn5 Mn 0.5000 0.5000 0.0000
Mn6 Mn 0.5000 -0.0000 0.5000
O21 O 0.9391(3) 0.3832(3) 0.5951(3)
O24 O 0.8581(4) 0.5076(4) 0.5000
O35 O 0.8581(4) 0.3505(6) 0.0000
Mn1_2 Mn 0.5000 -0.0000 1.0000
O3_2 O 0.4924(4) 0.1419(4) 1.0000
Mn3_4 Mn 1.0000 0.5000 1.0000
Mn5_2 Mn 0.5000 0.5000 1.0000
O14 O 0.6168(3) 0.0609(3) 0.9049(3)
O15 O 0.6161(3) 0.1968(3) 0.8573(2)
C22 C 0.7367(4) 0.1603(4) 0.8034(4)
N4 N 0.7628(2) 0.2372(4) 0.7500
C23 C 0.6488(4) 0.1363(4) 0.8606(4)
C24 C 0.7867(5) 0.1071(4) 0.8044(5)
H10 H 0.7672 0.0535 0.8414
C25 C 0.8650(3) 0.1349(6) 0.7500
H11 H 0.8996 0.1003 0.7500
C26 C 0.8397(4) 0.2633(4) 0.6966(4)
C27 C 0.8637(4) 0.3512(4) 0.6394(4)
O17 O 0.8032(3) 0.3839(3) 0.6427(2)
C28 C 0.8929(4) 0.2133(5) 0.6956(5)
H12 H 0.9465 0.2328 0.6586
O26 O 0.9391(3) 0.5559(4) 0.9049(3)
O27 O 0.8032(3) 0.4193(4) 0.8573(2)
C29 C 0.8397(4) 0.5764(6) 0.8034(4)
N5 N 0.7628(4) 0.5256(4) 0.7500
C30 C 0.8637(4) 0.5125(6) 0.8606(4)
C31 C 0.8929(4) 0.6796(6) 0.8044(5)
H13 H 0.9465 0.7137 0.8414
C32 C 0.8651(6) 0.7301(7) 0.7500
H14 H 0.8997 0.7993 0.7500
C33 C 0.7367(4) 0.5764(6) 0.6966(4)
C34 C 0.6488(4) 0.5125(6) 0.6394(4)
O28 O 0.6168(3) 0.5559(4) 0.5951(3)
O29 O 0.6161(3) 0.4193(4) 0.6427(2)
C35 C 0.7867(5) 0.6796(6) 0.6956(5)
H15 H 0.7672 0.7137 0.6586
O35_2 O 0.8581(4) 0.3505(6) 1.0000
Pr2 Pr 0.6667 0.3333 0.7500
O37 O 0.5807(4) 0.1968(3) 0.6427(2)
O38 O 0.5807(4) 0.3839(3) 0.8573(2)
N7 N 0.4744(4) 0.2372(4) 0.7500
Mn1_3 Mn 0.5000 1.0000 0.0000
Mn6_2 Mn 0.5000 1.0000 0.5000
O19 O 0.3832(3) 0.9391(3) 0.0951(3)
O20 O 0.5076(4) 0.8581(4) 0.0000
Mn1_4 Mn 0.5000 1.0000 1.0000
O18 O 0.3832(3) 0.9391(3) 0.9049(3)
O20_2 O 0.5076(4) 0.8581(4) 1.0000
O23_2 O 0.3832(3) 0.4441(4) 0.4049(3)
O24_2 O 0.4924(4) 0.3505(6) 0.5000
O25_2 O 0.5076(4) 0.6495(6) 0.5000
O34_2 O 0.5559(4) 0.6168(5) 0.0951(3)
O35_3 O 0.6495(6) 0.5076(7) 0.0000
O36_3 O 0.3505(6) 0.4924(7) 0.0000
O26_2 O 0.4441(4) 0.3832(5) 0.9049(3)
C29_2 C 0.4236(6) 0.2633(7) 0.8034(4)
C30_2 C 0.4875(6) 0.3512(7) 0.8606(4)
C31_2 C 0.3204(6) 0.2133(7) 0.8044(5)
H13_2 H 0.2863 0.2328 0.8414
C32_2 C 0.2699(7) 0.1350(9) 0.7500
H14_2 H 0.2007 0.1004 0.7500
C33_2 C 0.4236(6) 0.1603(7) 0.6966(4)
C34_2 C 0.4875(6) 0.1363(7) 0.6394(4)
O28_2 O 0.4441(4) 0.0609(5) 0.5951(3)
C35_2 C 0.3204(6) 0.1071(8) 0.6956(5)
H15_2 H 0.2863 0.0535 0.6586
O30_2 O 0.5559(4) 0.6168(5) 0.9049(3)
O31_2 O 0.4193(4) 0.6161(5) 0.8573(2)
C36_2 C 0.5764(6) 0.7367(7) 0.8034(4)
N6_2 N 0.5256(4) 0.7628(6) 0.7500
C37_2 C 0.5125(6) 0.6488(7) 0.8606(4)
C38_2 C 0.6796(6) 0.7867(7) 0.8044(5)
H16_2 H 0.7137 0.7672 0.8414
C39_2 C 0.7301(7) 0.8650(9) 0.7500
H17_2 H 0.7993 0.8996 0.7500
C40_2 C 0.5764(6) 0.8397(7) 0.6966(4)
C41_2 C 0.5125(6) 0.8637(7) 0.6394(4)
O32_2 O 0.5559(4) 0.9391(5) 0.5951(3)
O33_2 O 0.4193(4) 0.8032(5) 0.6427(2)
C42_2 C 0.6796(6) 0.8929(8) 0.6956(5)
H18_2 H 0.7137 0.9465 0.6586
O35_4 O 0.6495(6) 0.5076(7) 1.0000
O36_4 O 0.3505(6) 0.4924(7) 1.0000
O24_3 O 0.6495(6) 0.1419(4) 0.5000
O23_3 O 0.5559(4) 0.9391(3) 0.4049(3)
O25_3 O 0.3505(6) 0.8581(4) 0.5000
O31_3 O 0.3839(5) 0.8032(3) 0.8573(2)
C36_3 C 0.2633(7) 0.8397(4) 0.8034(4)
N6_3 N 0.2372(6) 0.7628(4) 0.7500
C37_3 C 0.3512(7) 0.8637(4) 0.8606(4)
C38_3 C 0.2133(7) 0.8929(4) 0.8044(5)
H16_3 H 0.2328 0.9465 0.8414
C39_3 C 0.1350(9) 0.8651(6) 0.7500
H17_3 H 0.1004 0.8997 0.7500
C40_3 C 0.1603(7) 0.7367(4) 0.6966(4)
C41_3 C 0.1363(7) 0.6488(4) 0.6394(4)
O33_3 O 0.1968(5) 0.6161(3) 0.6427(2)
C42_3 C 0.1071(8) 0.7867(5) 0.6956(5)
H18_3 H 0.0535 0.7672 0.6586
Pr1_2 Pr 0.3333 0.6666 0.2500
O2_2 O 0.1968(3) 0.5807(4) 0.1427(2)
C1_2 C 0.1603(4) 0.4236(6) 0.1966(4)
N1_2 N 0.2372(4) 0.4744(4) 0.2500
C2_2 C 0.1363(4) 0.4875(6) 0.1394(4)
C3_2 C 0.1071(4) 0.3204(6) 0.1956(5)
H1_2 H 0.0535 0.2863 0.1586
C4_2 C 0.1349(6) 0.2699(7) 0.2500
H2_2 H 0.1003 0.2007 0.2500
C5_2 C 0.2633(4) 0.4236(6) 0.3034(4)
C6_2 C 0.3512(4) 0.4875(6) 0.3606(4)
O5_2 O 0.3839(3) 0.5807(4) 0.3573(2)
C7_2 C 0.2133(5) 0.3204(6) 0.3044(5)
H3_2 H 0.2328 0.2863 0.3414
O7_2 O 0.4193(4) 0.6161(5) 0.1427(2)
C8_2 C 0.5764(6) 0.7367(7) 0.1966(4)
N2_2 N 0.5256(4) 0.7628(6) 0.2500
C9_2 C 0.5125(6) 0.6488(7) 0.1394(4)
C10_2 C 0.6796(6) 0.7867(7) 0.1956(5)
H4_2 H 0.7137 0.7672 0.1586
C11_2 C 0.7301(7) 0.8650(9) 0.2500
H5_2 H 0.7993 0.8996 0.2500
C12_2 C 0.5764(6) 0.8397(7) 0.3034(4)
C13_2 C 0.5125(6) 0.8637(7) 0.3606(4)
O9_2 O 0.4193(4) 0.8032(5) 0.3573(2)
C14_2 C 0.6796(6) 0.8929(8) 0.3044(5)
H6_2 H 0.7137 0.9465 0.3414
O11_2 O 0.3839(3) 0.8032(5) 0.1427(2)
C15_2 C 0.2633(4) 0.8397(7) 0.1966(4)
N3_2 N 0.2372(2) 0.7628(4) 0.2500
C16_2 C 0.3512(4) 0.8637(7) 0.1394(4)
C17_2 C 0.2133(5) 0.8929(8) 0.1956(5)
H7_2 H 0.2328 0.9465 0.1586
C18_2 C 0.1350(3) 0.8651(8) 0.2500
H8_2 H 0.1004 0.8997 0.2500
C19_2 C 0.1603(4) 0.7367(7) 0.3034(4)
C20_2 C 0.1363(4) 0.6488(7) 0.3606(4)
O13_2 O 0.1968(3) 0.6161(5) 0.3573(2)
C21_2 C 0.1071(4) 0.7867(7) 0.3044(5)
H9_2 H 0.0535 0.7672 0.3414
loop_
_geom_bond_atom_site_label_1
_geom_bond_atom_site_label_2
_geom_bond_site_symmetry_1
_geom_bond_site_symmetry_2
O22 Mn2 1_555 1_555
O23 Mn2 1_555 1_555
O25 Mn2 1_555 1_555
O34 Mn3 1_555 1_555
O36 Mn3 1_555 1_555
O30 Mn3_2 1_555 1_555
O31 C37 1_555 1_555
C36 N6 1_555 1_555
N6 C40 1_555 1_555
C37 O30 1_555 1_555
C38 C36 1_555 1_555
H16 C38 1_555 1_555
C39 C38 1_555 1_555
H17 C39 1_555 1_555
C40 C41 1_555 1_555
C41 O32 1_555 1_555
O32 Mn9 1_555 1_555
O33 C41 1_555 1_555
C42 C39 1_555 1_555
H18 C42 1_555 1_555
O36_2 Mn3_2 1_555 1_555
Pr3 O31 1_555 1_555
C36 C37 1_555 1_555
N6 Pr3 1_555 1_555
C40 C42 1_555 1_555
O33 Pr3 1_555 1_555
Pr1 O2 1_555 1_555
Mn1 O1 1_555 1_555
O1 C2 1_555 1_555
O2 C2 1_555 1_555
O3 Mn1 1_555 1_555
C1 N1 1_555 1_555
N1 Pr1 1_555 1_555
C2 C1 1_555 1_555
C3 C1 1_555 1_555
H1 C3 1_555 1_555
C4 C3 1_555 1_555
H2 C4 1_555 1_555
C5 N1 1_555 1_555
C6 C5 1_555 1_555
O4 C6 1_555 1_555
O5 Pr1 1_555 1_555
C7 C4 1_555 1_555
H3 C7 1_555 1_555
O6 C9 1_555 1_555
O7 Pr1 1_555 1_555
C8 N2 1_555 1_555
N2 Pr1 1_555 1_555
C9 O7 1_555 1_555
C10 C8 1_555 1_555
H4 C10 1_555 1_555
C11 C10 1_555 1_555
H5 C11 1_555 1_555
C12 N2 1_555 1_555
C13 C12 1_555 1_555
O8 C13 1_555 1_555
O9 Pr1 1_555 1_555
C14 C11 1_555 1_555
H6 C14 1_555 1_555
O10 C16 1_555 1_555
O11 Pr1 1_555 1_555
C15 N3 1_555 1_555
N3 Pr1 1_555 1_555
C16 O11 1_555 1_555
C17 C15 1_555 1_555
H7 C17 1_555 1_555
C18 C17 1_555 1_555
H8 C18 1_555 1_555
C19 N3 1_555 1_555
C20 C19 1_555 1_555
O12 C20 1_555 1_555
O13 Pr1 1_555 1_555
C21 C18 1_555 1_555
H9 C21 1_555 1_555
Mn2_2 O4 1_555 1_555
Mn3_3 O6 1_555 1_555
Mn9 O8 1_555 1_555
Mn5 O10 1_555 1_555
Mn6 O12 1_555 1_555
O21 Mn2_2 1_555 1_555
O24 Mn2_2 1_555 1_555
O35 Mn3_3 1_555 1_555
C5 C7 1_555 1_555
C6 O5 1_555 1_555
C8 C9 1_555 1_555
C12 C14 1_555 1_555
C13 O9 1_555 1_555
C15 C16 1_555 1_555
C19 C21 1_555 1_555
C20 O13 1_555 1_555
O3_2 Mn1_2 1_555 1_555
O14 Mn1_2 1_555 1_555
O15 C23 1_555 1_555
C22 N4 1_555 1_555
N4 C26 1_555 1_555
C23 O14 1_555 1_555
C24 C22 1_555 1_555
H10 C24 1_555 1_555
C25 C24 1_555 1_555
H11 C25 1_555 1_555
C26 C27 1_555 1_555
C27 O21 1_555 1_555
O17 C27 1_555 1_555
C28 C25 1_555 1_555
H12 C28 1_555 1_555
O26 Mn3_4 1_555 1_555
O27 C30 1_555 1_555
C29 N5 1_555 1_555
N5 C33 1_555 1_555
C30 O26 1_555 1_555
C31 C29 1_555 1_555
H13 C31 1_555 1_555
C32 C31 1_555 1_555
H14 C32 1_555 1_555
C33 C34 1_555 1_555
C34 O28 1_555 1_555
O28 Mn9 1_555 1_555
O29 C34 1_555 1_555
C35 C32 1_555 1_555
H15 C35 1_555 1_555
O35_2 Mn3_4 1_555 1_555
Pr2 O15 1_555 1_555
O37 Pr2 1_555 1_555
O38 Pr2 1_555 1_555
N7 Pr2 1_555 1_555
C22 C23 1_555 1_555
N4 Pr2 1_555 1_555
C26 C28 1_555 1_555
O17 Pr2 1_555 1_555
O27 Pr2 1_555 1_555
C29 C30 1_555 1_555
N5 Pr2 1_555 1_555
C33 C35 1_555 1_555
O29 Pr2 1_555 1_555
O19 Mn1_3 1_555 1_555
O20 Mn1_3 1_555 1_555
O18 Mn1_4 1_555 1_555
O20_2 Mn1_4 1_555 1_555
O23_2 Mn9 1_555 1_555
O24_2 Mn9 1_555 1_555
O25_2 Mn9 1_555 1_555
O34_2 Mn5 1_555 1_555
O35_3 Mn5 1_555 1_555
O36_3 Mn5 1_555 1_555
O26_2 Mn5_2 1_555 1_555
O38 C30_2 1_555 1_555
C29_2 N7 1_555 1_555
N7 C33_2 1_555 1_555
C30_2 O26_2 1_555 1_555
C31_2 C29_2 1_555 1_555
H13_2 C31_2 1_555 1_555
C32_2 C31_2 1_555 1_555
H14_2 C32_2 1_555 1_555
C33_2 C34_2 1_555 1_555
C34_2 O28_2 1_555 1_555
O28_2 Mn6 1_555 1_555
O37 C34_2 1_555 1_555
C35_2 C32_2 1_555 1_555
H15_2 C35_2 1_555 1_555
O30_2 Mn5_2 1_555 1_555
O31_2 C37_2 1_555 1_555
C36_2 N6_2 1_555 1_555
N6_2 C40_2 1_555 1_555
C37_2 O30_2 1_555 1_555
C38_2 C36_2 1_555 1_555
H16_2 C38_2 1_555 1_555
C39_2 C38_2 1_555 1_555
H17_2 C39_2 1_555 1_555
C40_2 C41_2 1_555 1_555
C41_2 O32_2 1_555 1_555
O32_2 Mn6_2 1_555 1_555
O33_2 C41_2 1_555 1_555
C42_2 C39_2 1_555 1_555
H18_2 C42_2 1_555 1_555
O35_4 Mn5_2 1_555 1_555
O36_4 Mn5_2 1_555 1_555
Pr3 O31_2 1_555 1_555
C29_2 C30_2 1_555 1_555
C33_2 C35_2 1_555 1_555
C36_2 C37_2 1_555 1_555
N6_2 Pr3 1_555 1_555
C40_2 C42_2 1_555 1_555
O33_2 Pr3 1_555 1_555
O24_3 Mn6 1_555 1_555
O23_3 Mn6_2 1_555 1_555
O25_3 Mn6_2 1_555 1_555
O31_3 C37_3 1_555 1_555
C36_3 N6_3 1_555 1_555
N6_3 C40_3 1_555 1_555
C37_3 O18 1_555 1_555
C38_3 C36_3 1_555 1_555
H16_3 C38_3 1_555 1_555
C39_3 C38_3 1_555 1_555
H17_3 C39_3 1_555 1_555
C40_3 C41_3 1_555 1_555
C41_3 O22 1_555 1_555
O33_3 C41_3 1_555 1_555
C42_3 C39_3 1_555 1_555
H18_3 C42_3 1_555 1_555
Pr3 O31_3 1_555 1_555
C36_3 C37_3 1_555 1_555
N6_3 Pr3 1_555 1_555
C40_3 C42_3 1_555 1_555
O33_3 Pr3 1_555 1_555
Pr1_2 O2_2 1_555 1_555
O34 C2_2 1_555 1_555
O2_2 C2_2 1_555 1_555
C1_2 N1_2 1_555 1_555
N1_2 Pr1_2 1_555 1_555
C2_2 C1_2 1_555 1_555
C3_2 C1_2 1_555 1_555
H1_2 C3_2 1_555 1_555
C4_2 C3_2 1_555 1_555
H2_2 C4_2 1_555 1_555
C5_2 N1_2 1_555 1_555
C6_2 C5_2 1_555 1_555
O23_2 C6_2 1_555 1_555
O5_2 Pr1_2 1_555 1_555
C7_2 C4_2 1_555 1_555
H3_2 C7_2 1_555 1_555
O34_2 C9_2 1_555 1_555
O7_2 Pr1_2 1_555 1_555
C8_2 N2_2 1_555 1_555
N2_2 Pr1_2 1_555 1_555
C9_2 O7_2 1_555 1_555
C10_2 C8_2 1_555 1_555
H4_2 C10_2 1_555 1_555
C11_2 C10_2 1_555 1_555
H5_2 C11_2 1_555 1_555
C12_2 N2_2 1_555 1_555
C13_2 C12_2 1_555 1_555
O23_3 C13_2 1_555 1_555
O9_2 Pr1_2 1_555 1_555
C14_2 C11_2 1_555 1_555
H6_2 C14_2 1_555 1_555
O19 C16_2 1_555 1_555
O11_2 Pr1_2 1_555 1_555
C15_2 N3_2 1_555 1_555
N3_2 Pr1_2 1_555 1_555
C16_2 O11_2 1_555 1_555
C17_2 C15_2 1_555 1_555
H7_2 C17_2 1_555 1_555
C18_2 C17_2 1_555 1_555
H8_2 C18_2 1_555 1_555
C19_2 N3_2 1_555 1_555
C20_2 C19_2 1_555 1_555
O23 C20_2 1_555 1_555
O13_2 Pr1_2 1_555 1_555
C21_2 C18_2 1_555 1_555
H9_2 C21_2 1_555 1_555
C5_2 C7_2 1_555 1_555
C6_2 O5_2 1_555 1_555
C8_2 C9_2 1_555 1_555
C12_2 C14_2 1_555 1_555
C13_2 O9_2 1_555 1_555
C15_2 C16_2 1_555 1_555
C19_2 C21_2 1_555 1_555
C20_2 O13_2 1_555 1_555

#END
