
###############################################################################
#
# This file contains modified crystal structure data generated from the
# MOF subset of the Cambridge Structural Database (CSD) v543 
# hosted by the Cambridge Crystallographic Data Centre (CCDC).
#
# This work is licensed under the Creative Commons
# Attribution-NonCommercial-ShareAlike 4.0 International License.
# To view a copy of this license, visit
# http://creativecommons.org/licenses/by-nc-sa/4.0/
# or send a letter to
# Creative Commons, PO Box 1866, Mountain View, CA 94042, USA.
#
# CIF created using the CSD Python API on 29 September 2022
# The structure has been converted into the P1 space group
# The structure has a 3D framework
# The original CSD entry TUVDUJ is in the hexagonal crystal system
# The framework has been calculated to contain at least 10.0% void space
# The void calculation uses a probe of radius 1.32A, grid spacing 0.4
# H atom positions have been added when not included in the experimental data
# Generated hydrogen atom positions removed from atoms on special positions
#
###############################################################################

data_TUVDUJ
_chemical_formula_moiety         '(C84 H132 Er3 Mn15 N12 O66)n'
_symmetry_cell_setting           triclinic
_symmetry_space_group_name_H-M   'P 1'
_symmetry_Int_Tables_number      1
_space_group_name_Hall           'P 1'
loop_
_symmetry_equiv_pos_site_id
_symmetry_equiv_pos_as_xyz
1 x,y,z
_cell_length_a                   15.229(2)
_cell_length_b                   15.229(2)
_cell_length_c                   15.852(5)
_cell_angle_alpha                90
_cell_angle_beta                 90
_cell_angle_gamma                120
_cell_volume                     3183.89
loop_
_atom_site_label
_atom_site_type_symbol
_atom_site_fract_x
_atom_site_fract_y
_atom_site_fract_z
Mn4 Mn -0.0000 0.5000 0.5000
Mn5 Mn -0.0000 0.5000 0.0000
Mn5_2 Mn -0.0000 0.5000 1.0000
Er1 Er 0.6667 0.3333 0.2500
Mn1 Mn 0.5000 0.5000 0.0000
N1 N 0.4810(3) 0.24049(14) 0.2500
O1 O 0.4507(2) 0.3848(3) 0.0932(2)
O2 O 0.5892(2) 0.3879(2) 0.14533(16)
O3 O 0.6551(3) 0.5113(3) 0.0000
C1 C 0.4951(3) 0.3532(3) 0.1409(3)
C2 C 0.4288(3) 0.2663(3) 0.1971(3)
C3 C 0.3257(4) 0.2149(4) 0.1951(3)
H1 H 0.2914 0.2331 0.1567
C4 C 0.2727(4) 0.1364(2) 0.2500
H2 H 0.2022 0.1011 0.2500
C5 C 0.3257(4) 0.1108(6) 0.3049(3)
C6 C 0.4288(3) 0.1625(4) 0.3029(3)
C7 C 0.4951(3) 0.1419(4) 0.3591(3)
O4 O 0.4507(2) 0.0659(4) 0.4068(2)
O5 O 0.5892(2) 0.2013(3) 0.35467(16)
H3 H 0.2914 0.0583 0.3433
N2 N 0.75951(14) 0.24051(33) 0.2500
O6 O 0.6152(3) 0.0659(4) 0.0932(2)
O7 O 0.6121(2) 0.2013(3) 0.14533(16)
C8 C 0.6468(3) 0.1419(4) 0.1409(3)
C9 C 0.7337(3) 0.1625(4) 0.1971(3)
C10 C 0.7851(4) 0.1108(6) 0.1951(3)
H4 H 0.7669 0.0583 0.1567
C11 C 0.8636(2) 0.1363(4) 0.2500
H5 H 0.8989 0.1011 0.2500
C12 C 0.8892(6) 0.2149(4) 0.3049(3)
C13 C 0.8375(4) 0.2663(3) 0.3029(3)
C14 C 0.8581(4) 0.3532(3) 0.3591(3)
O8 O 0.9341(4) 0.3848(3) 0.4068(2)
O9 O 0.7987(3) 0.3879(2) 0.35467(16)
H6 H 0.9417 0.2331 0.3433
N3 N 0.75949(33) 0.5190(3) 0.2500
O10 O 0.9341(4) 0.5493(2) 0.0932(2)
O11 O 0.7987(3) 0.4108(2) 0.14533(16)
C15 C 0.8581(4) 0.5049(3) 0.1409(3)
C16 C 0.8375(4) 0.5712(3) 0.1971(3)
C17 C 0.8892(6) 0.6743(4) 0.1951(3)
H7 H 0.9417 0.7086 0.1567
C18 C 0.8637(4) 0.7273(4) 0.2500
H8 H 0.8989 0.7978 0.2500
C19 C 0.7851(4) 0.6743(4) 0.3049(3)
C20 C 0.7337(3) 0.5712(3) 0.3029(3)
C21 C 0.6468(3) 0.5049(3) 0.3591(3)
O12 O 0.6152(3) 0.5493(2) 0.4068(2)
O13 O 0.6121(2) 0.4108(2) 0.35467(16)
H9 H 0.7669 0.7086 0.3433
Mn2 Mn 0.5000 0.0000 0.5000
Mn3 Mn 0.5000 0.0000 0.0000
Mn4_2 Mn 1.0000 0.5000 0.5000
Mn5_3 Mn 1.0000 0.5000 0.0000
Mn6 Mn 0.5000 0.5000 0.5000
O19 O 0.5493(2) 0.6152(3) 0.0932(2)
O20 O 0.3449(3) 0.4887(3) 0.0000
O21 O 0.4507(2) 0.0659(4) 0.5932(2)
O24 O 0.6551(3) 0.1438(4) 0.5000
O35 O 0.4887(3) 0.1438(4) 0.0000
Mn1_2 Mn 0.5000 0.5000 1.0000
O3_2 O 0.6551(3) 0.5113(3) 1.0000
Mn3_2 Mn 0.5000 0.0000 1.0000
Mn5_4 Mn 1.0000 0.5000 1.0000
N4 N 0.4810(3) 0.24049(14) 0.7500
O14 O 0.4507(2) 0.3848(3) 0.9068(2)
O15 O 0.5892(2) 0.3879(2) 0.85467(16)
C22 C 0.4951(3) 0.3532(3) 0.8591(3)
C23 C 0.4288(3) 0.2663(3) 0.8029(3)
C24 C 0.3257(4) 0.2149(4) 0.8049(3)
H10 H 0.2914 0.2331 0.8433
C25 C 0.2727(4) 0.1364(2) 0.7500
H11 H 0.2022 0.1011 0.7500
C26 C 0.3257(4) 0.1108(6) 0.6951(3)
C27 C 0.4288(3) 0.1625(4) 0.6971(3)
C28 C 0.4951(3) 0.1419(4) 0.6409(3)
O17 O 0.5892(2) 0.2013(3) 0.64533(16)
H12 H 0.2914 0.0583 0.6567
O18 O 0.5493(2) 0.6152(3) 0.9068(2)
O20_2 O 0.3449(3) 0.4887(3) 1.0000
N5 N 0.75951(14) 0.24051(33) 0.7500
O26 O 0.6152(3) 0.0659(4) 0.9068(2)
O27 O 0.6121(2) 0.2013(3) 0.85467(16)
C29 C 0.6468(3) 0.1419(4) 0.8591(3)
C30 C 0.7337(3) 0.1625(4) 0.8029(3)
C31 C 0.7851(4) 0.1108(6) 0.8049(3)
H13 H 0.7669 0.0583 0.8433
C32 C 0.8636(2) 0.1363(4) 0.7500
H14 H 0.8989 0.1011 0.7500
C33 C 0.8892(6) 0.2149(4) 0.6951(3)
C34 C 0.8375(4) 0.2663(3) 0.6971(3)
C35 C 0.8581(4) 0.3532(3) 0.6409(3)
O28 O 0.9341(4) 0.3848(3) 0.5932(2)
O29 O 0.7987(3) 0.3879(2) 0.64533(16)
H15 H 0.9417 0.2331 0.6567
O35_2 O 0.4887(3) 0.1438(4) 1.0000
Er2 Er 0.6667 0.3333 0.7500
N7 N 0.75949(33) 0.5190(3) 0.7500
O37 O 0.7987(3) 0.4108(2) 0.85467(16)
O38 O 0.6121(2) 0.4108(2) 0.64533(16)
Mn2_2 Mn 0.5000 1.0000 0.5000
Mn3_3 Mn 0.5000 1.0000 0.0000
O22 O 0.5493(2) 0.9341(4) 0.5932(2)
O23 O 0.5493(2) 0.9341(4) 0.4068(2)
O25 O 0.3449(3) 0.8562(4) 0.5000
O34 O 0.3848(3) 0.9341(4) 0.0932(2)
O36 O 0.5113(3) 0.8562(4) 0.0000
Mn3_4 Mn 0.5000 1.0000 1.0000
N6 N 0.24049(14) 0.75949(33) 0.7500
O30 O 0.3848(3) 0.9341(4) 0.9068(2)
O31 O 0.3879(2) 0.7987(3) 0.85467(16)
C36 C 0.3532(3) 0.8581(4) 0.8591(3)
C37 C 0.2663(3) 0.8375(4) 0.8029(3)
C38 C 0.2149(4) 0.8892(6) 0.8049(3)
H16 H 0.2331 0.9417 0.8433
C39 C 0.1364(2) 0.8637(4) 0.7500
H17 H 0.1011 0.8989 0.7500
C40 C 0.1108(6) 0.7851(4) 0.6951(3)
C41 C 0.1625(4) 0.7337(3) 0.6971(3)
C42 C 0.1419(4) 0.6468(3) 0.6409(3)
O32 O 0.0659(4) 0.6152(3) 0.5932(2)
O33 O 0.2013(3) 0.6121(2) 0.64533(16)
H18 H 0.0583 0.7669 0.6567
O36_2 O 0.5113(3) 0.8562(4) 1.0000
Er3 Er 0.3333 0.6667 0.7500
O23_2 O 0.0659(4) 0.6152(4) 0.4068(2)
O25_2 O 0.1438(4) 0.4887(5) 0.5000
O34_2 O 0.0659(4) 0.4507(5) 0.0932(2)
O36_3 O 0.1438(4) 0.6551(5) 0.0000
N6_2 N 0.24051(33) 0.48100(36) 0.7500
O30_2 O 0.0659(4) 0.4507(5) 0.9068(2)
O31_2 O 0.2013(3) 0.5892(4) 0.85467(16)
C36_2 C 0.1419(4) 0.4951(5) 0.8591(3)
C37_2 C 0.1625(4) 0.4288(5) 0.8029(3)
C38_2 C 0.1108(6) 0.3257(7) 0.8049(3)
H16_2 H 0.0583 0.2914 0.8433
C39_2 C 0.1363(4) 0.2727(4) 0.7500
H17_2 H 0.1011 0.2022 0.7500
C40_2 C 0.2149(4) 0.3257(7) 0.6951(3)
C41_2 C 0.2663(3) 0.4288(5) 0.6971(3)
C42_2 C 0.3532(3) 0.4951(5) 0.6409(3)
O32_2 O 0.3848(3) 0.4507(5) 0.5932(2)
O33_2 O 0.3879(2) 0.5892(4) 0.64533(16)
H18_2 H 0.2331 0.2914 0.6567
O36_4 O 0.1438(4) 0.6551(5) 1.0000
O24_2 O 0.8562(4) 0.5113(5) 0.5000
O35_3 O 0.8562(4) 0.3449(5) 0.0000
O26_2 O 0.9341(4) 0.5493(5) 0.9068(2)
C29_2 C 0.8581(4) 0.5049(5) 0.8591(3)
C30_2 C 0.8375(4) 0.5712(5) 0.8029(3)
C31_2 C 0.8892(6) 0.6743(7) 0.8049(3)
H13_2 H 0.9417 0.7086 0.8433
C32_2 C 0.8637(4) 0.7273(4) 0.7500
H14_2 H 0.8989 0.7978 0.7500
C33_2 C 0.7851(4) 0.6743(7) 0.6951(3)
C34_2 C 0.7337(3) 0.5712(5) 0.6971(3)
C35_2 C 0.6468(3) 0.5049(5) 0.6409(3)
O28_2 O 0.6152(3) 0.5493(5) 0.5932(2)
H15_2 H 0.7669 0.7086 0.6567
O35_4 O 0.8562(4) 0.3449(5) 1.0000
O23_3 O 0.3848(4) 0.4507(2) 0.4068(2)
O24_3 O 0.4887(5) 0.3449(3) 0.5000
O25_3 O 0.5113(5) 0.6551(3) 0.5000
N6_3 N 0.51900(36) 0.75951(14) 0.7500
O31_3 O 0.4108(4) 0.6121(2) 0.85467(16)
C36_3 C 0.5049(5) 0.6468(3) 0.8591(3)
C37_3 C 0.5712(5) 0.7337(3) 0.8029(3)
C38_3 C 0.6743(7) 0.7851(4) 0.8049(3)
H16_3 H 0.7086 0.7669 0.8433
C39_3 C 0.7273(4) 0.8636(2) 0.7500
H17_3 H 0.7978 0.8989 0.7500
C40_3 C 0.6743(7) 0.8892(6) 0.6951(3)
C41_3 C 0.5712(5) 0.8375(4) 0.6971(3)
C42_3 C 0.5049(5) 0.8581(4) 0.6409(3)
O33_3 O 0.4108(4) 0.7987(3) 0.64533(16)
H18_3 H 0.7086 0.9417 0.6567
Er1_2 Er 0.3333 0.6666 0.2500
N1_2 N 0.24049(14) 0.75949(33) 0.2500
O2_2 O 0.3879(2) 0.7987(3) 0.14533(16)
C1_2 C 0.3532(3) 0.8581(4) 0.1409(3)
C2_2 C 0.2663(3) 0.8375(4) 0.1971(3)
C3_2 C 0.2149(4) 0.8892(6) 0.1951(3)
H1_2 H 0.2331 0.9417 0.1567
C4_2 C 0.1364(2) 0.8637(4) 0.2500
H2_2 H 0.1011 0.8989 0.2500
C5_2 C 0.1108(6) 0.7851(7) 0.3049(3)
C6_2 C 0.1625(4) 0.7337(5) 0.3029(3)
C7_2 C 0.1419(4) 0.6468(5) 0.3591(3)
O5_2 O 0.2013(3) 0.6121(4) 0.35467(16)
H3_2 H 0.0583 0.7669 0.3433
N2_2 N 0.24051(33) 0.48100(36) 0.2500
O7_2 O 0.2013(3) 0.5892(4) 0.14533(16)
C8_2 C 0.1419(4) 0.4951(5) 0.1409(3)
C9_2 C 0.1625(4) 0.4288(5) 0.1971(3)
C10_2 C 0.1108(6) 0.3257(7) 0.1951(3)
H4_2 H 0.0583 0.2914 0.1567
C11_2 C 0.1363(4) 0.2727(4) 0.2500
H5_2 H 0.1011 0.2022 0.2500
C12_2 C 0.2149(4) 0.3257(7) 0.3049(3)
C13_2 C 0.2663(3) 0.4288(5) 0.3029(3)
C14_2 C 0.3532(3) 0.4951(5) 0.3591(3)
O9_2 O 0.3879(2) 0.5892(4) 0.35467(16)
H6_2 H 0.2331 0.2914 0.3433
N3_2 N 0.5190(3) 0.75951(45) 0.2500
O11_2 O 0.4108(2) 0.6121(4) 0.14533(16)
C15_2 C 0.5049(3) 0.6468(5) 0.1409(3)
C16_2 C 0.5712(3) 0.7337(5) 0.1971(3)
C17_2 C 0.6743(4) 0.7851(7) 0.1951(3)
H7_2 H 0.7086 0.7669 0.1567
C18_2 C 0.7273(4) 0.8636(6) 0.2500
H8_2 H 0.7978 0.8989 0.2500
C19_2 C 0.6743(4) 0.8892(6) 0.3049(3)
C20_2 C 0.5712(3) 0.8375(4) 0.3029(3)
C21_2 C 0.5049(3) 0.8581(4) 0.3591(3)
O13_2 O 0.4108(2) 0.7987(3) 0.35467(16)
H9_2 H 0.7086 0.9417 0.3433
loop_
_geom_bond_atom_site_label_1
_geom_bond_atom_site_label_2
_geom_bond_site_symmetry_1
_geom_bond_site_symmetry_2
Er1 N1 1_555 1_555
Mn1 O1 1_555 1_555
N1 C2 1_555 1_555
O1 C1 1_555 1_555
O2 Er1 1_555 1_555
O3 Mn1 1_555 1_555
C1 O2 1_555 1_555
C2 C1 1_555 1_555
C3 C2 1_555 1_555
H1 C3 1_555 1_555
C4 C3 1_555 1_555
H2 C4 1_555 1_555
C5 C4 1_555 1_555
C6 N1 1_555 1_555
C7 C6 1_555 1_555
O4 C7 1_555 1_555
O5 Er1 1_555 1_555
H3 C5 1_555 1_555
N2 Er1 1_555 1_555
O6 C8 1_555 1_555
O7 Er1 1_555 1_555
C8 O7 1_555 1_555
C9 N2 1_555 1_555
C10 C9 1_555 1_555
H4 C10 1_555 1_555
C11 C10 1_555 1_555
H5 C11 1_555 1_555
C12 C11 1_555 1_555
C13 N2 1_555 1_555
C14 C13 1_555 1_555
O8 C14 1_555 1_555
O9 Er1 1_555 1_555
H6 C12 1_555 1_555
N3 Er1 1_555 1_555
O10 C15 1_555 1_555
O11 Er1 1_555 1_555
C15 O11 1_555 1_555
C16 N3 1_555 1_555
C17 C16 1_555 1_555
H7 C17 1_555 1_555
C18 C17 1_555 1_555
H8 C18 1_555 1_555
C19 C18 1_555 1_555
C20 N3 1_555 1_555
C21 C20 1_555 1_555
O12 C21 1_555 1_555
O13 Er1 1_555 1_555
H9 C19 1_555 1_555
Mn2 O4 1_555 1_555
Mn3 O6 1_555 1_555
Mn4_2 O8 1_555 1_555
Mn5_3 O10 1_555 1_555
Mn6 O12 1_555 1_555
O19 Mn1 1_555 1_555
O20 Mn1 1_555 1_555
O21 Mn2 1_555 1_555
O24 Mn2 1_555 1_555
O35 Mn3 1_555 1_555
C5 C6 1_555 1_555
C7 O5 1_555 1_555
C8 C9 1_555 1_555
C12 C13 1_555 1_555
C14 O9 1_555 1_555
C15 C16 1_555 1_555
C19 C20 1_555 1_555
C21 O13 1_555 1_555
O3_2 Mn1_2 1_555 1_555
N4 C23 1_555 1_555
O14 Mn1_2 1_555 1_555
O15 C22 1_555 1_555
C22 O14 1_555 1_555
C23 C22 1_555 1_555
C24 C23 1_555 1_555
H10 C24 1_555 1_555
C25 C24 1_555 1_555
H11 C25 1_555 1_555
C26 C25 1_555 1_555
C27 N4 1_555 1_555
C28 C27 1_555 1_555
O21 C28 1_555 1_555
O17 C28 1_555 1_555
H12 C26 1_555 1_555
O18 Mn1_2 1_555 1_555
O20_2 Mn1_2 1_555 1_555
N5 C30 1_555 1_555
O26 Mn3_2 1_555 1_555
O27 C29 1_555 1_555
C29 O26 1_555 1_555
C30 C29 1_555 1_555
C31 C30 1_555 1_555
H13 C31 1_555 1_555
C32 C31 1_555 1_555
H14 C32 1_555 1_555
C33 C32 1_555 1_555
C34 N5 1_555 1_555
C35 C34 1_555 1_555
O28 C35 1_555 1_555
O29 C35 1_555 1_555
H15 C33 1_555 1_555
O35_2 Mn3_2 1_555 1_555
Er2 N4 1_555 1_555
Mn4_2 O28 1_555 1_555
N7 Er2 1_555 1_555
O37 Er2 1_555 1_555
O38 Er2 1_555 1_555
O15 Er2 1_555 1_555
C26 C27 1_555 1_555
O17 Er2 1_555 1_555
N5 Er2 1_555 1_555
O27 Er2 1_555 1_555
C33 C34 1_555 1_555
O29 Er2 1_555 1_555
O22 Mn2_2 1_555 1_555
O23 Mn2_2 1_555 1_555
O25 Mn2_2 1_555 1_555
O34 Mn3_3 1_555 1_555
O36 Mn3_3 1_555 1_555
N6 C37 1_555 1_555
O30 Mn3_4 1_555 1_555
O31 C36 1_555 1_555
C36 O30 1_555 1_555
C37 C36 1_555 1_555
C38 C37 1_555 1_555
H16 C38 1_555 1_555
C39 C38 1_555 1_555
H17 C39 1_555 1_555
C40 C39 1_555 1_555
C41 N6 1_555 1_555
C42 C41 1_555 1_555
O32 C42 1_555 1_555
O33 C42 1_555 1_555
H18 C40 1_555 1_555
O36_2 Mn3_4 1_555 1_555
Er3 N6 1_555 1_555
Mn4 O32 1_555 1_555
O31 Er3 1_555 1_555
C40 C41 1_555 1_555
O33 Er3 1_555 1_555
O23_2 Mn4 1_555 1_555
O25_2 Mn4 1_555 1_555
O34_2 Mn5 1_555 1_555
O36_3 Mn5 1_555 1_555
N6_2 C37_2 1_555 1_555
O30_2 Mn5_2 1_555 1_555
O31_2 C36_2 1_555 1_555
C36_2 O30_2 1_555 1_555
C37_2 C36_2 1_555 1_555
C38_2 C37_2 1_555 1_555
H16_2 C38_2 1_555 1_555
C39_2 C38_2 1_555 1_555
H17_2 C39_2 1_555 1_555
C40_2 C39_2 1_555 1_555
C41_2 N6_2 1_555 1_555
C42_2 C41_2 1_555 1_555
O32_2 C42_2 1_555 1_555
O33_2 C42_2 1_555 1_555
H18_2 C40_2 1_555 1_555
O36_4 Mn5_2 1_555 1_555
Er3 N6_2 1_555 1_555
Mn6 O32_2 1_555 1_555
O31_2 Er3 1_555 1_555
C40_2 C41_2 1_555 1_555
O33_2 Er3 1_555 1_555
O24_2 Mn4_2 1_555 1_555
O35_3 Mn5_3 1_555 1_555
N7 C30_2 1_555 1_555
O26_2 Mn5_4 1_555 1_555
O37 C29_2 1_555 1_555
C29_2 O26_2 1_555 1_555
C30_2 C29_2 1_555 1_555
C31_2 C30_2 1_555 1_555
H13_2 C31_2 1_555 1_555
C32_2 C31_2 1_555 1_555
H14_2 C32_2 1_555 1_555
C33_2 C32_2 1_555 1_555
C34_2 N7 1_555 1_555
C35_2 C34_2 1_555 1_555
O28_2 C35_2 1_555 1_555
O38 C35_2 1_555 1_555
H15_2 C33_2 1_555 1_555
O35_4 Mn5_4 1_555 1_555
Mn6 O28_2 1_555 1_555
C33_2 C34_2 1_555 1_555
O23_3 Mn6 1_555 1_555
O24_3 Mn6 1_555 1_555
O25_3 Mn6 1_555 1_555
N6_3 C37_3 1_555 1_555
O31_3 C36_3 1_555 1_555
C36_3 O18 1_555 1_555
C37_3 C36_3 1_555 1_555
C38_3 C37_3 1_555 1_555
H16_3 C38_3 1_555 1_555
C39_3 C38_3 1_555 1_555
H17_3 C39_3 1_555 1_555
C40_3 C39_3 1_555 1_555
C41_3 N6_3 1_555 1_555
C42_3 C41_3 1_555 1_555
O22 C42_3 1_555 1_555
O33_3 C42_3 1_555 1_555
H18_3 C40_3 1_555 1_555
Er3 N6_3 1_555 1_555
O31_3 Er3 1_555 1_555
C40_3 C41_3 1_555 1_555
O33_3 Er3 1_555 1_555
Er1_2 N1_2 1_555 1_555
N1_2 C2_2 1_555 1_555
O34 C1_2 1_555 1_555
O2_2 Er1_2 1_555 1_555
C1_2 O2_2 1_555 1_555
C2_2 C1_2 1_555 1_555
C3_2 C2_2 1_555 1_555
H1_2 C3_2 1_555 1_555
C4_2 C3_2 1_555 1_555
H2_2 C4_2 1_555 1_555
C5_2 C4_2 1_555 1_555
C6_2 N1_2 1_555 1_555
C7_2 C6_2 1_555 1_555
O23_2 C7_2 1_555 1_555
O5_2 Er1_2 1_555 1_555
H3_2 C5_2 1_555 1_555
N2_2 Er1_2 1_555 1_555
O34_2 C8_2 1_555 1_555
O7_2 Er1_2 1_555 1_555
C8_2 O7_2 1_555 1_555
C9_2 N2_2 1_555 1_555
C10_2 C9_2 1_555 1_555
H4_2 C10_2 1_555 1_555
C11_2 C10_2 1_555 1_555
H5_2 C11_2 1_555 1_555
C12_2 C11_2 1_555 1_555
C13_2 N2_2 1_555 1_555
C14_2 C13_2 1_555 1_555
O23_3 C14_2 1_555 1_555
O9_2 Er1_2 1_555 1_555
H6_2 C12_2 1_555 1_555
N3_2 Er1_2 1_555 1_555
O19 C15_2 1_555 1_555
O11_2 Er1_2 1_555 1_555
C15_2 O11_2 1_555 1_555
C16_2 N3_2 1_555 1_555
C17_2 C16_2 1_555 1_555
H7_2 C17_2 1_555 1_555
C18_2 C17_2 1_555 1_555
H8_2 C18_2 1_555 1_555
C19_2 C18_2 1_555 1_555
C20_2 N3_2 1_555 1_555
C21_2 C20_2 1_555 1_555
O23 C21_2 1_555 1_555
O13_2 Er1_2 1_555 1_555
H9_2 C19_2 1_555 1_555
C5_2 C6_2 1_555 1_555
C7_2 O5_2 1_555 1_555
C8_2 C9_2 1_555 1_555
C12_2 C13_2 1_555 1_555
C14_2 O9_2 1_555 1_555
C15_2 C16_2 1_555 1_555
C19_2 C20_2 1_555 1_555
C21_2 O13_2 1_555 1_555

#END
