
###############################################################################
#
# This file contains modified crystal structure data generated from the
# MOF subset of the Cambridge Structural Database (CSD) v543 
# hosted by the Cambridge Crystallographic Data Centre (CCDC).
#
# This work is licensed under the Creative Commons
# Attribution-NonCommercial-ShareAlike 4.0 International License.
# To view a copy of this license, visit
# http://creativecommons.org/licenses/by-nc-sa/4.0/
# or send a letter to
# Creative Commons, PO Box 1866, Mountain View, CA 94042, USA.
#
# CIF created using the CSD Python API on 29 September 2022
# The structure has been converted into the P1 space group
# The structure has a 3D framework
# The original CSD entry TUXVOA is in the monoclinic crystal system
# The framework has been calculated to contain at least 10.0% void space
# The void calculation uses a probe of radius 1.32A, grid spacing 0.4
# H atom positions have been added when not included in the experimental data
# Generated hydrogen atom positions removed from atoms on special positions
#
###############################################################################

data_TUXVOA
_chemical_formula_moiety         '(C32 H40 N8 O20 Zn4)n'
_symmetry_cell_setting           triclinic
_symmetry_space_group_name_H-M   'P 1'
_symmetry_Int_Tables_number      1
_space_group_name_Hall           'P 1'
loop_
_symmetry_equiv_pos_site_id
_symmetry_equiv_pos_as_xyz
1 x,y,z
_cell_length_a                   7.18690(10)
_cell_length_b                   23.6057(3)
_cell_length_c                   7.30340(10)
_cell_angle_alpha                90
_cell_angle_beta                 91.6050(10)
_cell_angle_gamma                90
_cell_volume                     1238.55
loop_
_atom_site_label
_atom_site_type_symbol
_atom_site_fract_x
_atom_site_fract_y
_atom_site_fract_z
H12 H 0.0130 0.3512 0.6364
Zn4 Zn 0.09466(5) 0.21587(2) 0.62570(5)
N3 N 0.3956(4) 0.35323(11) 0.0928(4)
C9 C 0.4361(7) 0.4013(2) 0.0117(8)
C11 C 0.1255(6) 0.43618(18) 0.0375(5)
C12 C 0.0833(5) 0.38746(18) 0.1207(6)
C13 C 0.2204(5) 0.34678(16) 0.1447(6)
H10 H 0.1885 0.3129 0.2004
Zn2 Zn 0.59466(5) 0.28413(2) 0.12570(5)
O7 O 0.7879(3) 0.21440(9) 0.1287(3)
O12 O 0.7283(3) 0.32637(9) 0.3438(3)
O15 O 0.4326(3) 0.24390(9) 0.3210(3)
N2 N 0.0303(5) 0.52335(15) 0.9858(5)
H3 H 0.0363 0.6189 0.8384
H7 H 0.5576 0.4071 0.9752
C10 C 0.3049(8) 0.4440(2) 0.9779(9)
H8 H 0.3374 0.4769 0.9168
O8 O 0.9341(3) 0.26064(9) 0.4312(3)
O9 O 0.9326(3) 0.25610(9) 0.8210(3)
O10 O 0.7378(3) 0.32252(9) 0.9148(3)
C14 C 0.8492(4) 0.30297(13) 0.8020(4)
C15 C 0.8844(4) 0.33867(12) 0.6331(4)
H11 H 0.8058 0.3721 0.6349
C16 C 0.8452(4) 0.30597(13) 0.4564(4)
O13 O 0.4341(3) 0.23936(9) 0.9312(3)
O2 O 0.2879(3) 0.28560(9) 0.6287(3)
O5 O 0.2378(3) 0.17748(9) 0.4148(3)
H1 H 0.0576 0.0929 0.4752
C6 C 0.3492(4) 0.19703(13) 0.3020(4)
C7 C 0.3844(4) 0.16133(12) 0.1331(4)
H5 H 0.3058 0.1279 0.1349
H6 H 0.5130 0.1488 0.1364
O11 O 0.2283(3) 0.17363(9) 0.8438(3)
C8 C 0.3452(4) 0.19403(13) 0.9564(4)
N1 N 0.8956(4) 0.14677(11) 0.5928(4)
N2_2 N 0.4697(5) 0.02335(15) 0.5142(5)
C1 C 0.9361(7) 0.0987(2) 0.5117(8)
C2 C 0.8049(8) 0.0560(2) 0.4779(9)
H2 H 0.8374 0.0231 0.4168
C3 C 0.6255(6) 0.06382(18) 0.5375(5)
C4 C 0.5833(5) 0.11254(18) 0.6207(6)
H3_2 H 0.4637 0.1189 0.6616
C5 C 0.7204(5) 0.15322(16) 0.6447(6)
H4 H 0.6885 0.1871 0.7004
O1 O 0.2717(3) 0.67363(9) 0.6562(3)
O3 O 0.0659(3) 0.73936(9) 0.5688(3)
O4 O 0.0674(3) 0.74390(9) 0.1790(3)
O5_2 O 0.2622(3) 0.67748(9) 0.0852(3)
H1_2 H 0.4424 0.5929 0.0248
C2_2 C 0.6951(8) 0.5560(2) 0.0221(9)
H2_2 H 0.6626 0.5231 0.0832
C6_2 C 0.1508(4) 0.69703(13) 0.1980(4)
C7_2 C 0.1156(4) 0.66133(12) 0.3669(4)
H5_2 H 0.1942 0.6279 0.3651
C8_2 C 0.1548(4) 0.69403(13) 0.5436(4)
N4 N 0.9697(5) 0.47665(15) 0.0142(5)
H9 H 0.9637 0.3811 0.1616
Zn3 Zn 0.40534(5) 0.71587(2) 0.87430(5)
O14 O 0.5659(3) 0.76064(9) 0.0688(3)
O2_2 O 0.2121(3) 0.78560(9) 0.8713(3)
N1_2 N 0.6044(4) 0.64677(11) 0.9072(4)
C1_2 C 0.5639(7) 0.5987(2) 0.9883(8)
C3_2 C 0.8745(6) 0.56382(18) 0.9625(5)
C4_2 C 0.9167(5) 0.61254(18) 0.8793(6)
C5_2 C 0.7796(5) 0.65322(16) 0.8553(6)
H4_2 H 0.8115 0.6871 0.7996
O16 O 0.5674(3) 0.75610(9) 0.6790(3)
H6_2 H 0.9870 0.6488 0.3636
Zn6 Zn 0.90534(5) 0.78413(2) 0.37430(5)
N3_2 N 0.1044(4) 0.85323(11) 0.4072(4)
N4_2 N 0.5303(5) 0.97665(15) 0.4858(5)
C9_2 C 0.0639(7) 0.9013(2) 0.4883(8)
C10_2 C 0.1951(8) 0.9440(2) 0.5221(9)
H8_2 H 0.1626 0.9769 0.5832
C11_2 C 0.3745(6) 0.93618(18) 0.4625(5)
C12_2 C 0.4167(5) 0.88746(18) 0.3793(6)
H9_2 H 0.5363 0.8811 0.3384
C13_2 C 0.2796(5) 0.84678(16) 0.3553(6)
H10_2 H 0.3115 0.8129 0.2996
O6 O 0.7717(3) 0.82637(9) 0.1562(3)
C16_2 C 0.6548(4) 0.80597(13) 0.0436(4)
H7_2 H 0.9424 0.9071 0.5248
O7_2 O 0.7121(3) 0.71440(9) 0.3713(3)
O10_2 O 0.7622(3) 0.82252(9) 0.5852(3)
C14_2 C 0.6508(4) 0.80297(13) 0.6980(4)
C15_2 C 0.6156(4) 0.83867(12) 0.8669(4)
H11_2 H 0.6942 0.8721 0.8651
H12_2 H 0.4870 0.8512 0.8636
loop_
_geom_bond_atom_site_label_1
_geom_bond_atom_site_label_2
_geom_bond_site_symmetry_1
_geom_bond_site_symmetry_2
N3 C9 1_555 1_555
C12 C11 1_555 1_555
C13 N3 1_555 1_555
H10 C13 1_555 1_555
Zn2 N3 1_555 1_555
O7 Zn2 1_555 1_555
O12 Zn2 1_555 1_555
O15 Zn2 1_555 1_555
C12 C13 1_555 1_555
H8 C10 1_555 1_555
O12 C16 1_555 1_555
O8 C16 1_555 1_555
O9 C14 1_555 1_555
C14 O10 1_555 1_555
C15 C14 1_555 1_555
H11 C15 1_555 1_555
C16 C15 1_555 1_555
Zn4 O2 1_555 1_555
O15 C6 1_555 1_555
O5 Zn4 1_555 1_555
C6 O5 1_555 1_555
C7 C6 1_555 1_555
H5 C7 1_555 1_555
H6 C7 1_555 1_555
O11 Zn4 1_555 1_555
O11 C8 1_555 1_555
O13 C8 1_555 1_555
N2_2 C3 1_555 1_555
C1 N1 1_555 1_555
C2 C1 1_555 1_555
H2 C2 1_555 1_555
C3 C2 1_555 1_555
C4 C3 1_555 1_555
H3_2 C4 1_555 1_555
C5 N1 1_555 1_555
H4 C5 1_555 1_555
C4 C5 1_555 1_555
O1 C8_2 1_555 1_555
O3 C8_2 1_555 1_555
O4 C6_2 1_555 1_555
H2_2 C2_2 1_555 1_555
C6_2 O5_2 1_555 1_555
C7_2 C6_2 1_555 1_555
H5_2 C7_2 1_555 1_555
C8_2 C7_2 1_555 1_555
Zn3 O1 1_555 1_555
Zn3 O2_2 1_555 1_555
N1_2 Zn3 1_555 1_555
C1_2 N1_2 1_555 1_555
C4_2 C3_2 1_555 1_555
C5_2 N1_2 1_555 1_555
H4_2 C5_2 1_555 1_555
O16 Zn3 1_555 1_555
C4_2 C5_2 1_555 1_555
N3_2 C9_2 1_555 1_555
C10_2 C9_2 1_555 1_555
H8_2 C10_2 1_555 1_555
C11_2 N4_2 1_555 1_555
C12_2 C11_2 1_555 1_555
H9_2 C12_2 1_555 1_555
C13_2 N3_2 1_555 1_555
H10_2 C13_2 1_555 1_555
C10_2 C11_2 1_555 1_555
C12_2 C13_2 1_555 1_555
O6 C16_2 1_555 1_555
O14 C16_2 1_555 1_555
Zn6 O6 1_555 1_555
O7_2 Zn6 1_555 1_555
O16 C14_2 1_555 1_555
O10_2 Zn6 1_555 1_555
C14_2 O10_2 1_555 1_555
C15_2 C14_2 1_555 1_555
H11_2 C15_2 1_555 1_555
H12_2 C15_2 1_555 1_555

#END
