
###############################################################################
#
# This file contains modified crystal structure data generated from the
# MOF subset of the Cambridge Structural Database (CSD) v543 
# hosted by the Cambridge Crystallographic Data Centre (CCDC).
#
# This work is licensed under the Creative Commons
# Attribution-NonCommercial-ShareAlike 4.0 International License.
# To view a copy of this license, visit
# http://creativecommons.org/licenses/by-nc-sa/4.0/
# or send a letter to
# Creative Commons, PO Box 1866, Mountain View, CA 94042, USA.
#
# CIF created using the CSD Python API on 29 September 2022
# The structure has been converted into the P1 space group
# The structure has a 3D framework
# The original CSD entry TUXVUG is in the monoclinic crystal system
# The framework has been calculated to contain at least 10.0% void space
# The void calculation uses a probe of radius 1.32A, grid spacing 0.4
# H atom positions have been added when not included in the experimental data
# Generated hydrogen atom positions removed from atoms on special positions
#
###############################################################################

data_TUXVUG
_chemical_formula_moiety         '(C32 H40 Mn4 N8 O20)n'
_symmetry_cell_setting           triclinic
_symmetry_space_group_name_H-M   'P 1'
_symmetry_Int_Tables_number      1
_space_group_name_Hall           'P 1'
loop_
_symmetry_equiv_pos_site_id
_symmetry_equiv_pos_as_xyz
1 x,y,z
_cell_length_a                   7.26740(10)
_cell_length_b                   23.6571(3)
_cell_length_c                   7.42640(10)
_cell_angle_alpha                90
_cell_angle_beta                 91.8580(10)
_cell_angle_gamma                90
_cell_volume                     1276.12
loop_
_atom_site_label
_atom_site_type_symbol
_atom_site_fract_x
_atom_site_fract_y
_atom_site_fract_z
H12 H 0.0342 0.3517 0.6547
Mn4 Mn 0.11432(6) 0.21435(2) 0.64032(5)
N3 N 0.4021(4) 0.35661(11) 0.0980(4)
C9 C 0.4363(9) 0.4026(2) 0.0059(9)
C11 C 0.1333(7) 0.4386(2) 0.0412(5)
C12 C 0.0961(5) 0.39179(19) 0.1329(8)
C13 C 0.2324(5) 0.35162(16) 0.1578(7)
H10 H 0.2036 0.3189 0.2205
Mn2 Mn 0.61432(6) 0.28565(2) 0.14032(5)
O7 O 0.8198(3) 0.21444(9) 0.1436(3)
O12 O 0.7470(3) 0.32839(9) 0.3653(3)
O15 O 0.4460(3) 0.24285(9) 0.3321(3)
N2 N 0.0322(6) 0.52155(18) 0.9793(5)
H3 H 0.0198 0.6137 0.8205
H7 H 0.5530 0.4070 0.9600
C10 C 0.3062(11) 0.4451(3) 0.9733(10)
H8 H 0.3355 0.4771 0.9072
O8 O 0.9554(3) 0.26356(9) 0.4463(3)
O9 O 0.9460(3) 0.25715(9) 0.8321(3)
O10 O 0.7576(3) 0.32457(9) 0.9246(3)
C14 C 0.8664(4) 0.30461(12) 0.8142(4)
C15 C 0.9060(4) 0.34023(12) 0.6494(4)
H11 H 0.8311 0.3741 0.6508
C16 C 0.8663(4) 0.30828(12) 0.4742(4)
O13 O 0.4554(3) 0.23644(9) 0.9463(3)
O2 O 0.3198(3) 0.28556(9) 0.6436(3)
O5 O 0.2576(3) 0.17543(9) 0.4246(3)
H1 H 0.0530 0.0930 0.4600
C6 C 0.3664(4) 0.19539(12) 0.3142(4)
C7 C 0.4060(4) 0.15977(12) 0.1494(4)
H5 H 0.3311 0.1259 0.1508
H6 H 0.5342 0.1483 0.1547
O11 O 0.2470(3) 0.17161(9) 0.8653(3)
C8 C 0.3663(4) 0.19172(12) 0.9742(4)
N1 N 0.9021(4) 0.14339(11) 0.5980(4)
N2_2 N 0.4678(6) 0.02155(18) 0.5207(5)
C1 C 0.9363(9) 0.0974(2) 0.5059(9)
C2 C 0.8062(11) 0.0549(3) 0.4733(10)
H2 H 0.8355 0.0229 0.4072
C3 C 0.6333(7) 0.0614(2) 0.5412(5)
C4 C 0.5961(5) 0.10821(19) 0.6329(8)
H3_2 H 0.4802 0.1137 0.6795
C5 C 0.7324(5) 0.14838(16) 0.6578(7)
H4 H 0.7036 0.1811 0.7205
O1 O 0.2530(3) 0.67161(9) 0.6347(3)
O3 O 0.0446(3) 0.73644(9) 0.5537(3)
O4 O 0.0540(3) 0.74285(9) 0.1679(3)
O5_2 O 0.2424(3) 0.67543(9) 0.0754(3)
H1_2 H 0.4470 0.5930 0.0400
C2_2 C 0.6938(11) 0.5549(3) 0.0267(10)
H2_2 H 0.6645 0.5229 0.0928
C6_2 C 0.1336(4) 0.69539(12) 0.1858(4)
C7_2 C 0.0940(4) 0.65977(12) 0.3506(4)
H5_2 H 0.1689 0.6259 0.3492
C8_2 C 0.1337(4) 0.69172(12) 0.5258(4)
N4 N 0.9678(6) 0.47845(18) 0.0207(5)
H9 H 0.9802 0.3863 0.1795
Mn3 Mn 0.38568(6) 0.71435(2) 0.85968(5)
O14 O 0.5446(3) 0.76356(9) 0.0537(3)
O2_2 O 0.1802(3) 0.78556(9) 0.8564(3)
N1_2 N 0.5979(4) 0.64339(11) 0.9020(4)
C1_2 C 0.5637(9) 0.5974(2) 0.9941(9)
C3_2 C 0.8667(7) 0.5614(2) 0.9588(5)
C4_2 C 0.9039(5) 0.60821(19) 0.8671(8)
C5_2 C 0.7676(5) 0.64838(16) 0.8422(7)
H4_2 H 0.7964 0.6811 0.7795
O16 O 0.5540(3) 0.75715(9) 0.6679(3)
H6_2 H 0.9658 0.6483 0.3453
Mn6 Mn 0.88568(6) 0.78565(2) 0.35968(5)
N3_2 N 0.0979(4) 0.85661(11) 0.4020(4)
N4_2 N 0.5322(6) 0.97845(18) 0.4793(5)
C9_2 C 0.0637(9) 0.9026(2) 0.4941(9)
C10_2 C 0.1938(11) 0.9451(3) 0.5267(10)
H8_2 H 0.1645 0.9771 0.5928
C11_2 C 0.3667(7) 0.9386(2) 0.4588(5)
C12_2 C 0.4039(5) 0.89179(19) 0.3671(8)
H9_2 H 0.5198 0.8863 0.3205
C13_2 C 0.2676(5) 0.85162(16) 0.3422(7)
H10_2 H 0.2964 0.8189 0.2795
O6 O 0.7530(3) 0.82839(9) 0.1347(3)
C16_2 C 0.6337(4) 0.80828(12) 0.0258(4)
H7_2 H 0.9470 0.9070 0.5400
O7_2 O 0.6802(3) 0.71444(9) 0.3564(3)
O10_2 O 0.7424(3) 0.82457(9) 0.5754(3)
C14_2 C 0.6336(4) 0.80461(12) 0.6858(4)
C15_2 C 0.5940(4) 0.84023(12) 0.8506(4)
H11_2 H 0.6689 0.8741 0.8492
H12_2 H 0.4658 0.8517 0.8453
loop_
_geom_bond_atom_site_label_1
_geom_bond_atom_site_label_2
_geom_bond_site_symmetry_1
_geom_bond_site_symmetry_2
N3 C9 1_555 1_555
C12 C11 1_555 1_555
C13 N3 1_555 1_555
H10 C13 1_555 1_555
Mn2 N3 1_555 1_555
O7 Mn2 1_555 1_555
O12 Mn2 1_555 1_555
O15 Mn2 1_555 1_555
C12 C13 1_555 1_555
H8 C10 1_555 1_555
O12 C16 1_555 1_555
O8 C16 1_555 1_555
O9 C14 1_555 1_555
C14 O10 1_555 1_555
C15 C14 1_555 1_555
H11 C15 1_555 1_555
C16 C15 1_555 1_555
Mn4 O2 1_555 1_555
O15 C6 1_555 1_555
O5 Mn4 1_555 1_555
C6 O5 1_555 1_555
C7 C6 1_555 1_555
H5 C7 1_555 1_555
H6 C7 1_555 1_555
O11 Mn4 1_555 1_555
O11 C8 1_555 1_555
O13 C8 1_555 1_555
N2_2 C3 1_555 1_555
C1 N1 1_555 1_555
C2 C1 1_555 1_555
H2 C2 1_555 1_555
C3 C2 1_555 1_555
C4 C3 1_555 1_555
H3_2 C4 1_555 1_555
C5 N1 1_555 1_555
H4 C5 1_555 1_555
C4 C5 1_555 1_555
O1 C8_2 1_555 1_555
O3 C8_2 1_555 1_555
O4 C6_2 1_555 1_555
H2_2 C2_2 1_555 1_555
C6_2 O5_2 1_555 1_555
C7_2 C6_2 1_555 1_555
H5_2 C7_2 1_555 1_555
C8_2 C7_2 1_555 1_555
Mn3 O1 1_555 1_555
Mn3 O2_2 1_555 1_555
N1_2 Mn3 1_555 1_555
C1_2 N1_2 1_555 1_555
C4_2 C3_2 1_555 1_555
C5_2 N1_2 1_555 1_555
H4_2 C5_2 1_555 1_555
O16 Mn3 1_555 1_555
C4_2 C5_2 1_555 1_555
N3_2 C9_2 1_555 1_555
C10_2 C9_2 1_555 1_555
H8_2 C10_2 1_555 1_555
C11_2 N4_2 1_555 1_555
C12_2 C11_2 1_555 1_555
H9_2 C12_2 1_555 1_555
C13_2 N3_2 1_555 1_555
H10_2 C13_2 1_555 1_555
C10_2 C11_2 1_555 1_555
C12_2 C13_2 1_555 1_555
O6 C16_2 1_555 1_555
O14 C16_2 1_555 1_555
Mn6 O6 1_555 1_555
O7_2 Mn6 1_555 1_555
O16 C14_2 1_555 1_555
O10_2 Mn6 1_555 1_555
C14_2 O10_2 1_555 1_555
C15_2 C14_2 1_555 1_555
H11_2 C15_2 1_555 1_555
H12_2 C15_2 1_555 1_555

#END
