
###############################################################################
#
# This file contains modified crystal structure data generated from the
# MOF subset of the Cambridge Structural Database (CSD) v543 
# hosted by the Cambridge Crystallographic Data Centre (CCDC).
#
# This work is licensed under the Creative Commons
# Attribution-NonCommercial-ShareAlike 4.0 International License.
# To view a copy of this license, visit
# http://creativecommons.org/licenses/by-nc-sa/4.0/
# or send a letter to
# Creative Commons, PO Box 1866, Mountain View, CA 94042, USA.
#
# CIF created using the CSD Python API on 29 September 2022
# The structure has been converted into the P1 space group
# The structure has a 3D framework
# The original CSD entry TUYKUU is in the triclinic crystal system
# The framework has been calculated to contain at least 10.0% void space
# The void calculation uses a probe of radius 1.32A, grid spacing 0.4
#
###############################################################################

data_TUYKUU
_chemical_formula_moiety         '(C22 H26 Ho4 N2 O30 P2)n'
_symmetry_cell_setting           triclinic
_symmetry_space_group_name_H-M   'P 1'
_symmetry_Int_Tables_number      1
_space_group_name_Hall           'P 1'
loop_
_symmetry_equiv_pos_site_id
_symmetry_equiv_pos_as_xyz
1 x,y,z
_cell_length_a                   9.7800(18)
_cell_length_b                   10.5058(18)
_cell_length_c                   11.1899(19)
_cell_angle_alpha                95.450(18)
_cell_angle_beta                 92.327(12)
_cell_angle_gamma                107.404(9)
_cell_volume                     1089.25
loop_
_atom_site_label
_atom_site_type_symbol
_atom_site_fract_x
_atom_site_fract_y
_atom_site_fract_z
_atom_site_U_iso_or_equiv
_atom_site_thermal_displace_type
Ho1 Ho 0.17872(4) 0.38648(4) 0.05458(3) 0.0160 Uani
O1 O 0.1785(6) 0.1596(6) 0.0078(5) 0.0255 Uani
O2 O 0.2422(7) 0.2953(6) 0.2247(5) 0.0293 Uani
C1 C 0.2118(9) 0.0980(10) 0.0904(8) 0.0249 Uani
C2 C 0.2528(9) 0.1781(9) 0.2145(8) 0.0226 Uani
O4 O 0.2940(6) 0.1209(6) 0.2967(5) 0.0249 Uani
O8 O 0.5786(6) 0.0568(6) 0.3701(5) 0.0209 Uani
O9 O 0.5225(6) 0.1063(6) 0.1339(5) 0.0250 Uani
C4 C 0.5263(8) 0.0740(8) 0.0233(8) 0.0190 Uani
C12 C 0.5732(8) 0.0428(8) 0.4789(7) 0.0176 Uani
O18 O 0.6747(6) 0.0846(6) 0.5583(5) 0.0233 Uani
Ho5 Ho 0.62441(4) 0.06312(4) 0.76096(3) 0.0153 Uani
O19 O 0.5695(6) 0.1563(6) 0.9480(5) 0.0225 Uani
O3 O 0.2185(6) 0.9813(6) 0.0802(5) 0.0258 Uani
Ho2 Ho 0.37559(4) 0.93688(4) 0.23904(3) 0.0153 Uani
O5 O 0.2000(6) 0.7522(6) 0.2155(5) 0.0251 Uani
O6 O 0.3253(6) 0.9154(6) 0.4417(5) 0.0233 Uani
O7 O 0.5045(7) 0.7820(6) 0.2854(5) 0.0315 Uani
O10 O 0.4305(6) 0.8437(6) 0.0520(5) 0.0225 Uani
P1 P 0.0622(2) 0.6382(2) 0.21012(18) 0.0157 Uani
C3 C 0.4268(8) 0.9572(8) 0.5211(7) 0.0176 Uani
H1 H 0.5872 0.8066 0.2584 0.0470 Uiso
H2 H 0.4581 0.7039 0.2522 0.0470 Uiso
O11 O 0.0851(6) 0.5023(6) 0.1907(5) 0.0243 Uani
H4 H 0.0689 0.6585 0.4150 0.0340 Uiso
O15 O 0.4148(6) 0.5303(6) 0.1294(5) 0.0253 Uani
O17 O 0.4214(6) 0.9432(6) 0.6299(5) 0.0209 Uani
C14 C 0.5171(9) 0.5440(9) 0.0624(7) 0.0219 Uani
O32 O 0.6418(6) 0.6166(6) 0.0858(5) 0.0236 Uani
O13 O 0.3582(6) 0.3834(6) 0.9142(5) 0.0236 Uani
O16 O 0.2336(6) 0.5994(6) 0.9642(5) 0.0257 Uani
C10 C 0.4829(9) 0.4560(9) 0.9376(7) 0.0219 Uani
H9 H 0.3139 0.6609 0.9990 0.0390 Uiso
H10 H 0.1589 0.6287 0.9448 0.0390 Uiso
C13 C 0.4737(8) 0.9260(8) 0.9767(8) 0.0190 Uani
O20 O 0.4775(6) 0.8937(6) 0.8661(5) 0.0250 Uani
O24 O 0.0528(6) 0.3494(6) 0.8784(5) 0.0280 Uani
O27 O 0.0607(6) 0.7594(6) 0.9082(5) 0.0253 Uani
H16 H 0.1176 0.8225 0.9642 0.0380 Uiso
H17 H 0.0483 0.7997 0.8482 0.0380 Uiso
O31 O 0.5852(6) 0.4697(6) 0.8706(5) 0.0253 Uani
C17 C 0.0058(9) 0.3416(10) 0.6447(8) 0.0289 Uani
Ho7 Ho 0.82128(4) 0.61352(4) 0.94542(3) 0.0160 Uani
C18 C 0.1423(9) 0.4373(9) 0.6123(8) 0.0244 Uani
H18 H 0.0174 0.2527 0.6348 0.0340 Uiso
C19 C 0.1800(11) 0.4584(10) 0.4977(9) 0.0358 Uani
N2 N 0.2395(8) 0.5075(9) 0.7015(7) 0.0376 Uani
H22 H 0.1164 0.4118 0.4330 0.0430 Uiso
C20 C 0.3101(12) 0.5468(12) 0.4756(9) 0.0476 Uani
H23 H 0.1928 0.5032 0.7797 0.0450 Uiso
C21 C 0.3661(11) 0.5963(12) 0.6813(9) 0.0478 Uani
C22 C 0.4021(11) 0.6145(11) 0.5685(9) 0.0392 Uani
H24 H 0.3337 0.5592 0.3969 0.0570 Uiso
H25 H 0.4284 0.6450 0.7460 0.0570 Uiso
H26 H 0.4904 0.6738 0.5548 0.0470 Uiso
C5 C 0.9942(9) 0.6584(10) 0.3553(8) 0.0289 Uani
O12 O 0.9472(6) 0.6506(6) 0.1216(5) 0.0280 Uani
C6 C 0.8577(9) 0.5627(9) 0.3877(8) 0.0244 Uani
H3 H 0.9826 0.7473 0.3652 0.0340 Uiso
N1 N 0.7605(8) 0.4925(9) 0.2985(7) 0.0376 Uani
C7 C 0.8200(11) 0.5416(10) 0.5023(9) 0.0358 Uani
O14 O 0.9393(6) 0.2406(6) 0.0918(5) 0.0253 Uani
H5 H 0.8072 0.4968 0.2203 0.0450 Uiso
C8 C 0.6339(11) 0.4037(12) 0.3187(9) 0.0478 Uani
C9 C 0.6899(12) 0.4532(12) 0.5244(9) 0.0476 Uani
H6 H 0.8836 0.5882 0.5670 0.0430 Uiso
H7 H 0.9517 0.2003 0.1518 0.0380 Uiso
H8 H 0.8824 0.1775 0.0358 0.0380 Uiso
H11 H 0.5716 0.3550 0.2540 0.0570 Uiso
C11 C 0.5979(11) 0.3855(11) 0.4315(9) 0.0392 Uani
H12 H 0.6663 0.4408 0.6031 0.0570 Uiso
H13 H 0.5096 0.3262 0.4452 0.0470 Uiso
O26 O 0.7664(6) 0.4006(6) 0.0358(5) 0.0257 Uani
H14 H 0.6861 0.3391 0.0010 0.0390 Uiso
H15 H 0.8411 0.3713 0.0552 0.0390 Uiso
O21 O 0.8215(6) 0.8404(6) 0.9922(5) 0.0255 Uani
O22 O 0.7578(7) 0.7047(6) 0.7753(5) 0.0293 Uani
O28 O 0.9149(6) 0.4977(6) 0.8093(5) 0.0243 Uani
P2 P 0.9378(2) 0.3618(2) 0.78988(18) 0.0157 Uani
O34 O 0.8000(6) 0.2478(6) 0.7845(5) 0.0251 Uani
H19 H 0.9311 0.3415 0.5850 0.0340 Uiso
O37 O 0.4955(7) 0.2180(6) 0.7146(5) 0.0315 Uani
O38 O 0.7815(6) 0.0187(6) 0.9198(5) 0.0258 Uani
H20 H 0.4128 0.1934 0.7416 0.0470 Uiso
H21 H 0.5419 0.2961 0.7478 0.0470 Uiso
O41 O 0.7060(6) 0.8791(6) 0.7033(5) 0.0249 Uani
C15 C 0.7472(9) 0.8219(9) 0.7855(8) 0.0226 Uani
C16 C 0.7882(9) 0.9020(10) 0.9096(8) 0.0249 Uani
loop_
_atom_site_aniso_label
_atom_site_aniso_U_11
_atom_site_aniso_U_22
_atom_site_aniso_U_33
_atom_site_aniso_U_23
_atom_site_aniso_U_13
_atom_site_aniso_U_12
Ho1 0.0155 0.0151 0.0178 0.00303 -0.00019 0.00524
O1 0.039 0.022 0.017 0.004 -0.004 0.012
O2 0.046 0.02 0.026 -0.001 -0.003 0.018
C1 0.017 0.031 0.024 -0.005 -0.001 0.006
C2 0.022 0.022 0.023 0.002 -0.009 0.007
O4 0.033 0.03 0.019 0.005 0.002 0.02
O8 0.019 0.025 0.013 0.007 -0.002 -0.003
O9 0.03 0.019 0.017 0.004 0.005 -0.007
C4 0.013 0.016 0.025 0.002 0.002 0
C12 0.014 0.022 0.018 0.005 -0.002 0.007
O18 0.022 0.031 0.012 0.002 -0.002 0.001
Ho5 0.018 0.0141 0.0124 0.0032 -0.00057 0.00261
O19 0.031 0.02 0.015 0.004 0.008 0.004
O3 0.037 0.012 0.027 -0.002 -0.009 0.008
Ho2 0.018 0.0141 0.0124 0.0032 -0.00057 0.00261
O5 0.024 0.021 0.028 0.003 0.004 0.003
O6 0.022 0.031 0.012 0.002 -0.002 0.001
O7 0.034 0.028 0.035 0 -0.002 0.015
O10 0.031 0.02 0.015 0.004 0.008 0.004
P1 0.0171 0.0143 0.015 0.0036 0.0016 0.0029
C3 0.014 0.022 0.018 0.005 -0.002 0.007
O11 0.031 0.016 0.029 0.007 0.015 0.009
O15 0.021 0.03 0.021 -0.002 -0.002 0.004
O17 0.019 0.025 0.013 0.007 -0.002 -0.003
C14 0.026 0.018 0.027 -0.001 -0.001 0.016
O32 0.013 0.027 0.028 -0.007 0 0.005
O13 0.013 0.027 0.028 -0.007 0 0.005
O16 0.027 0.017 0.036 0.005 -0.002 0.011
C10 0.026 0.018 0.027 -0.001 -0.001 0.016
C13 0.013 0.016 0.025 0.002 0.002 0
O20 0.03 0.019 0.017 0.004 0.005 -0.007
O24 0.023 0.031 0.03 0.014 -0.004 0.006
O27 0.02 0.022 0.03 0.005 -0.006 0.001
O31 0.021 0.03 0.021 -0.002 -0.002 0.004
C17 0.026 0.03 0.03 -0.004 -0.001 0.01
Ho7 0.0155 0.0151 0.0178 0.00303 -0.00019 0.00524
C18 0.022 0.029 0.021 0.003 0.001 0.006
C19 0.039 0.039 0.028 0 0.002 0.011
N2 0.027 0.057 0.025 0.011 0.01 0.004
C20 0.056 0.059 0.03 0.024 0.026 0.012
C21 0.031 0.061 0.035 0.003 -0.004 -0.009
C22 0.037 0.045 0.034 0.016 0.007 0.006
C5 0.026 0.03 0.03 -0.004 -0.001 0.01
O12 0.023 0.031 0.03 0.014 -0.004 0.006
C6 0.022 0.029 0.021 0.003 0.001 0.006
N1 0.027 0.057 0.025 0.011 0.01 0.004
C7 0.039 0.039 0.028 0 0.002 0.011
O14 0.02 0.022 0.03 0.005 -0.006 0.001
C8 0.031 0.061 0.035 0.003 -0.004 -0.009
C9 0.056 0.059 0.03 0.024 0.026 0.012
C11 0.037 0.045 0.034 0.016 0.007 0.006
O26 0.027 0.017 0.036 0.005 -0.002 0.011
O21 0.039 0.022 0.017 0.004 -0.004 0.012
O22 0.046 0.02 0.026 -0.001 -0.003 0.018
O28 0.031 0.016 0.029 0.007 0.015 0.009
P2 0.0171 0.0143 0.015 0.0036 0.0016 0.0029
O34 0.024 0.021 0.028 0.003 0.004 0.003
O37 0.034 0.028 0.035 0 -0.002 0.015
O38 0.037 0.012 0.027 -0.002 -0.009 0.008
O41 0.033 0.03 0.019 0.005 0.002 0.02
C15 0.022 0.022 0.023 0.002 -0.009 0.007
C16 0.017 0.031 0.024 -0.005 -0.001 0.006
loop_
_geom_bond_atom_site_label_1
_geom_bond_atom_site_label_2
_geom_bond_site_symmetry_1
_geom_bond_site_symmetry_2
Ho1 O1 1_555 1_555
O1 C1 1_555 1_555
O2 Ho1 1_555 1_555
C1 C2 1_555 1_555
C2 O2 1_555 1_555
O4 C2 1_555 1_555
C4 O9 1_555 1_555
C12 O8 1_555 1_555
O18 C12 1_555 1_555
O18 Ho5 1_555 1_555
Ho5 O19 1_555 1_555
Ho2 O3 1_555 1_555
O5 Ho2 1_555 1_555
O6 Ho2 1_555 1_555
O7 Ho2 1_555 1_555
O10 Ho2 1_555 1_555
P1 O5 1_555 1_555
C3 O6 1_555 1_555
H1 O7 1_555 1_555
H2 O7 1_555 1_555
O11 P1 1_555 1_555
O15 Ho1 1_555 1_555
O17 C3 1_555 1_555
Ho1 O11 1_555 1_555
C14 O15 1_555 1_555
O32 C14 1_555 1_555
O13 C10 1_555 1_555
O16 H9 1_555 1_555
H10 O16 1_555 1_555
O20 C13 1_555 1_555
H16 O27 1_555 1_555
H17 O27 1_555 1_555
O31 C10 1_555 1_555
Ho7 O31 1_555 1_555
C18 C17 1_555 1_555
H18 C17 1_555 1_555
C19 C18 1_555 1_555
N2 C18 1_555 1_555
H22 C19 1_555 1_555
C20 C19 1_555 1_555
H23 N2 1_555 1_555
C21 N2 1_555 1_555
C22 C20 1_555 1_555
H24 C20 1_555 1_555
H25 C21 1_555 1_555
H26 C22 1_555 1_555
C21 C22 1_555 1_555
C6 C5 1_555 1_555
H3 C5 1_555 1_555
N1 C6 1_555 1_555
C7 C6 1_555 1_555
O14 H7 1_555 1_555
H5 N1 1_555 1_555
C8 N1 1_555 1_555
C9 C7 1_555 1_555
H6 C7 1_555 1_555
H8 O14 1_555 1_555
H11 C8 1_555 1_555
C11 C8 1_555 1_555
H12 C9 1_555 1_555
H13 C11 1_555 1_555
H14 O26 1_555 1_555
H15 O26 1_555 1_555
C9 C11 1_555 1_555
O21 Ho7 1_555 1_555
O22 Ho7 1_555 1_555
O28 Ho7 1_555 1_555
O34 P2 1_555 1_555
Ho5 O34 1_555 1_555
O37 Ho5 1_555 1_555
O38 Ho5 1_555 1_555
H20 O37 1_555 1_555
H21 O37 1_555 1_555
O28 P2 1_555 1_555
C15 O22 1_555 1_555
C16 O21 1_555 1_555
O41 C15 1_555 1_555
C15 C16 1_555 1_555

#END
