
###############################################################################
#
# This file contains modified crystal structure data generated from the
# MOF subset of the Cambridge Structural Database (CSD) v543 
# hosted by the Cambridge Crystallographic Data Centre (CCDC).
#
# This work is licensed under the Creative Commons
# Attribution-NonCommercial-ShareAlike 4.0 International License.
# To view a copy of this license, visit
# http://creativecommons.org/licenses/by-nc-sa/4.0/
# or send a letter to
# Creative Commons, PO Box 1866, Mountain View, CA 94042, USA.
#
# CIF created using the CSD Python API on 29 September 2022
# The structure has been converted into the P1 space group
# The structure has a 3D framework
# The original CSD entry TUZVUH is in the triclinic crystal system
# The framework has been calculated to contain at least 10.0% void space
# The void calculation uses a probe of radius 1.32A, grid spacing 0.4
#
###############################################################################

data_TUZVUH
_chemical_formula_moiety         '(C66 H52 Cu2 Eu2 I1 O14 S6)n'
_symmetry_cell_setting           triclinic
_symmetry_space_group_name_H-M   'P 1'
_symmetry_Int_Tables_number      1
_space_group_name_Hall           'P 1'
loop_
_symmetry_equiv_pos_site_id
_symmetry_equiv_pos_as_xyz
1 x,y,z
_cell_length_a                   9.116(3)
_cell_length_b                   15.128(4)
_cell_length_c                   18.517(5)
_cell_angle_alpha                102.480(7)
_cell_angle_beta                 99.371(9)
_cell_angle_gamma                106.819(7)
_cell_volume                     2316.21
loop_
_atom_site_label
_atom_site_type_symbol
_atom_site_fract_x
_atom_site_fract_y
_atom_site_fract_z
_atom_site_U_iso_or_equiv
_atom_site_thermal_displace_type
Cu5 Cu 0.02115(19) 0.09771(10) 0.00876(9) 0.0200 Uani
I4 I 0.06891(10) 0.02855(6) 0.12721(5) 0.0222 Uani
Eu6 Eu 0.19898(8) 0.46633(4) 0.49847(3) 0.0160 Uani
C28 C 0.0744(16) 0.5927(10) 0.1973(7) 0.0266 Uani
H21 H 0.1253 0.5793 0.1574 0.0320 Uiso
C29 C 0.1390(17) 0.5891(9) 0.2701(7) 0.0225 Uani
H22 H 0.2347 0.5757 0.2801 0.0270 Uiso
C30 C 0.0604(15) 0.6053(8) 0.3278(7) 0.0191 Uani
C33 C 0.1134(15) 0.5832(9) 0.4007(7) 0.0214 Uani
O5 O 0.2499(10) 0.5744(6) 0.4184(4) 0.0202 Uani
O6 O 0.0173(10) 0.5656(6) 0.4434(4) 0.0183 Uani
S7 S 0.1770(4) 0.8312(2) 0.98355(16) 0.0176 Uani
C34 C 0.8376(15) 0.3474(9) 0.3715(6) 0.0173 Uani
C35 C 0.7630(15) 0.2734(9) 0.2952(6) 0.0192 Uani
C36 C 0.6045(15) 0.2525(9) 0.2571(6) 0.0200 Uani
H27 H 0.5407 0.2836 0.2808 0.0240 Uiso
C37 C 0.5408(15) 0.1869(8) 0.1854(6) 0.0167 Uani
H28 H 0.4329 0.1712 0.1608 0.0200 Uiso
C38 C 0.6363(14) 0.1445(8) 0.1500(6) 0.0149 Uani
C39 C 0.7940(16) 0.1633(9) 0.1871(7) 0.0236 Uani
H29 H 0.8588 0.1333 0.1632 0.0280 Uiso
C40 C 0.8520(16) 0.2268(9) 0.2595(7) 0.0223 Uani
H30 H 0.9576 0.2387 0.2856 0.0270 Uiso
C42 C 0.5707(15) 0.0730(8) 0.0722(7) 0.0176 Uani
C43 C 0.6444(15) 0.0733(8) 0.0098(7) 0.0197 Uani
O8 O 0.7491(10) 0.3869(6) 0.4063(4) 0.0251 Uani
O9 O 0.9834(10) 0.3651(6) 0.3983(5) 0.0231 Uani
S4 S 0.8230(4) 0.1688(2) 0.01645(16) 0.0176 Uani
Eu10 Eu 0.80102(8) 0.53367(4) 0.50153(3) 0.0160 Uani
C8 C 0.5749(14) 0.0010(7) 0.9407(7) 0.0161 Uani
H5 H 0.6283 0.0017 0.9008 0.0190 Uiso
C44 C 0.7812(15) 0.1897(10) 0.9234(7) 0.0230 Uani
H32 H 0.6728 0.1902 0.9110 0.0340 Uiso
H33 H 0.8551 0.2518 0.9243 0.0340 Uiso
H34 H 0.7932 0.1383 0.8849 0.0340 Uiso
C11 C 0.2188(15) 0.8103(10) 0.0766(7) 0.0230 Uani
H6 H 0.3272 0.8098 0.0890 0.0340 Uiso
H7 H 0.1449 0.7482 0.0757 0.0340 Uiso
H8 H 0.2068 0.8617 0.1151 0.0340 Uiso
C21 C 0.8171(15) 0.5206(9) 0.0441(7) 0.0199 Uani
C22 C 0.8607(14) 0.6089(8) 0.1030(6) 0.0156 Uani
C23 C 0.8314(15) 0.6873(9) 0.0836(7) 0.0183 Uani
H14 H 0.8519 0.7444 0.1229 0.0220 Uiso
C24 C 0.7719(14) 0.6847(8) 0.0071(6) 0.0140 Uani
C25 C 0.7374(19) 0.3855(10) 0.1288(9) 0.0353 Uani
H15 H 0.7746 0.4416 0.1736 0.0530 Uiso
H16 H 0.7562 0.3306 0.1436 0.0530 Uiso
H17 H 0.6241 0.3699 0.1080 0.0530 Uiso
C26 C 0.6652(19) 0.8347(11) 0.0666(9) 0.0391 Uani
H18 H 0.5722 0.7850 0.0703 0.0580 Uiso
H19 H 0.6367 0.8907 0.0601 0.0580 Uiso
H20 H 0.7487 0.8539 0.1133 0.0580 Uiso
C27 C 0.9384(16) 0.6154(9) 0.1821(7) 0.0219 Uani
C31 C 0.9290(16) 0.6339(9) 0.3141(7) 0.0236 Uani
H23 H 0.8799 0.6492 0.3543 0.0280 Uiso
C32 C 0.8686(14) 0.6405(8) 0.2419(6) 0.0145 Uani
H24 H 0.7806 0.6618 0.2334 0.0180 Uiso
S2 S 0.8445(5) 0.4127(2) 0.05616(19) 0.0279 Uani
C41 C 0.4251(14) 0.9990(7) 0.0593(7) 0.0161 Uani
H31 H 0.3717 0.9983 0.0992 0.0190 Uiso
C1 C 0.1624(15) 0.6526(9) 0.6285(6) 0.0173 Uani
C2 C 0.2370(15) 0.7266(9) 0.7048(6) 0.0192 Uani
C3 C 0.3955(15) 0.7475(9) 0.7429(6) 0.0200 Uani
H1 H 0.4593 0.7164 0.7192 0.0240 Uiso
C4 C 0.4592(15) 0.8131(8) 0.8146(6) 0.0167 Uani
H2 H 0.5671 0.8288 0.8392 0.0200 Uiso
C5 C 0.3637(14) 0.8555(8) 0.8500(6) 0.0149 Uani
C6 C 0.2060(16) 0.8367(9) 0.8129(7) 0.0236 Uani
H3 H 0.1412 0.8667 0.8368 0.0280 Uiso
C7 C 0.1480(16) 0.7732(9) 0.7405(7) 0.0223 Uani
H4 H 0.0424 0.7613 0.7144 0.0270 Uiso
C9 C 0.4293(15) 0.9270(8) 0.9278(7) 0.0176 Uani
C10 C 0.3556(15) 0.9267(8) 0.9902(7) 0.0197 Uani
C12 C 0.5625(15) 0.5481(8) 0.6213(6) 0.0151 Uani
C13 C 0.6044(15) 0.5660(9) 0.7066(6) 0.0158 Uani
C14 C 0.5134(16) 0.5044(9) 0.7398(7) 0.0220 Uani
H9 H 0.4216 0.4537 0.7084 0.0270 Uiso
C15 C 0.5517(16) 0.5139(9) 0.8192(7) 0.0257 Uani
H10 H 0.4898 0.4698 0.8411 0.0310 Uiso
C16 C 0.6855(15) 0.5915(8) 0.8637(7) 0.0172 Uani
C17 C 0.7752(16) 0.6535(9) 0.8300(7) 0.0242 Uani
H11 H 0.8651 0.7056 0.8612 0.0290 Uiso
C18 C 0.7382(17) 0.6420(10) 0.7516(7) 0.0272 Uani
H12 H 0.8023 0.6847 0.7295 0.0330 Uiso
C19 C 0.7377(15) 0.5982(8) 0.9479(7) 0.0175 Uani
C20 C 0.7547(14) 0.5187(8) 0.9687(6) 0.0142 Uani
H13 H 0.7225 0.4595 0.9301 0.0170 Uiso
H25 H 0.256(9) 0.284(7) 0.523(8) 0.0320 Uiso
H26 H 0.098(6) 0.266(6) 0.502(8) 0.0320 Uiso
O1 O 0.2509(10) 0.6131(6) 0.5937(4) 0.0251 Uani
O2 O 0.0166(10) 0.6349(6) 0.6017(5) 0.0231 Uani
O3 O 0.4308(11) 0.4888(6) 0.5840(5) 0.0265 Uani
O4 O 0.6651(11) 0.5949(6) 0.5916(4) 0.0230 Uani
O7 O 0.1868(12) 0.3107(6) 0.5158(6) 0.0299 Uani
S3 S 0.7360(4) 0.7870(2) 0.98473(17) 0.0180 Uani
Cu1 Cu 0.97885(19) 0.90229(10) 0.99124(9) 0.0200 Uani
I1 I 0.93109(10) 0.97145(6) 0.87279(5) 0.0222 Uani
O18 O 0.3349(11) 0.4051(6) 0.4084(4) 0.0230 Uani
C45 C 0.4375(15) 0.4519(8) 0.3787(6) 0.0151 Uani
C46 C 0.3956(15) 0.4340(9) 0.2934(6) 0.0158 Uani
C47 C 0.4866(16) 0.4956(9) 0.2602(7) 0.0220 Uani
H35 H 0.5784 0.5463 0.2916 0.0270 Uiso
C48 C 0.4483(16) 0.4861(9) 0.1808(7) 0.0257 Uani
H36 H 0.5102 0.5302 0.1589 0.0310 Uiso
C49 C 0.3145(15) 0.4085(8) 0.1363(7) 0.0172 Uani
C50 C 0.2248(16) 0.3465(9) 0.1700(7) 0.0242 Uani
H37 H 0.1349 0.2944 0.1388 0.0290 Uiso
C51 C 0.2618(17) 0.3580(10) 0.2484(7) 0.0272 Uani
H38 H 0.1977 0.3153 0.2705 0.0330 Uiso
C52 C 0.2623(15) 0.4018(8) 0.0521(7) 0.0175 Uani
C53 C 0.2453(14) 0.4813(8) 0.0313(6) 0.0142 Uani
H39 H 0.2775 0.5405 0.0699 0.0170 Uiso
H51 H 0.744(9) 0.716(7) 0.477(8) 0.0320 Uiso
H52 H 0.902(6) 0.734(6) 0.498(8) 0.0320 Uiso
O10 O 0.5692(11) 0.5112(6) 0.4160(5) 0.0265 Uani
O14 O 0.8132(12) 0.6893(6) 0.4842(6) 0.0299 Uani
S6 S 0.2640(4) 0.2130(2) 0.01527(17) 0.0180 Uani
O20 O 0.7501(10) 0.4256(6) 0.5816(4) 0.0202 Uani
O22 O 0.9827(10) 0.4344(6) 0.5566(4) 0.0183 Uani
C54 C 0.1829(15) 0.4794(9) 0.9559(7) 0.0199 Uani
C55 C 0.1393(14) 0.3911(8) 0.8970(6) 0.0156 Uani
C56 C 0.1686(15) 0.3127(9) 0.9164(7) 0.0183 Uani
H40 H 0.1481 0.2556 0.8771 0.0220 Uiso
C57 C 0.2281(14) 0.3153(8) 0.9929(6) 0.0140 Uani
C58 C 0.2626(19) 0.6145(10) 0.8712(9) 0.0353 Uani
H41 H 0.2254 0.5584 0.8264 0.0530 Uiso
H42 H 0.2438 0.6694 0.8564 0.0530 Uiso
H43 H 0.3759 0.6301 0.8920 0.0530 Uiso
C59 C 0.3348(19) 0.1653(11) 0.9334(9) 0.0391 Uani
H44 H 0.4278 0.2150 0.9297 0.0580 Uiso
H45 H 0.3633 0.1093 0.9399 0.0580 Uiso
H46 H 0.2513 0.1461 0.8867 0.0580 Uiso
C60 C 0.0616(16) 0.3846(9) 0.8179(7) 0.0219 Uani
C64 C 0.0710(16) 0.3661(9) 0.6859(7) 0.0236 Uani
H49 H 0.1201 0.3508 0.6457 0.0280 Uiso
C65 C 0.1314(14) 0.3595(8) 0.7581(6) 0.0145 Uani
H50 H 0.2194 0.3382 0.7666 0.0180 Uiso
S5 S 0.1555(5) 0.5873(2) 0.94384(19) 0.0279 Uani
C61 C 0.9256(16) 0.4073(10) 0.8027(7) 0.0266 Uani
H47 H 0.8747 0.4207 0.8426 0.0320 Uiso
C62 C 0.8610(17) 0.4109(9) 0.7299(7) 0.0225 Uani
H48 H 0.7653 0.4243 0.7199 0.0270 Uiso
C63 C 0.9396(15) 0.3947(8) 0.6722(7) 0.0191 Uani
C66 C 0.8866(15) 0.4168(9) 0.5993(7) 0.0214 Uani
loop_
_atom_site_aniso_label
_atom_site_aniso_U_11
_atom_site_aniso_U_22
_atom_site_aniso_U_33
_atom_site_aniso_U_23
_atom_site_aniso_U_13
_atom_site_aniso_U_12
Cu5 0.0244 0.0147 0.0199 0.0042 0.0058 0.0053
I4 0.0291 0.0194 0.0194 0.0044 0.008 0.0097
Eu6 0.0206 0.0166 0.0073 -0.0007 0.001 0.0053
C28 0.032 0.038 0.018 0.014 0.007 0.019
C29 0.038 0.018 0.019 0.011 0.009 0.015
C30 0.027 0.016 0.012 0.001 0.001 0.008
C33 0.02 0.022 0.017 0.004 0 0.003
O5 0.023 0.027 0.012 0.007 0.003 0.01
O6 0.028 0.017 0.018 0.012 0.004 0.015
S7 0.0217 0.0155 0.0119 -0.0021 0.0048 0.0048
C34 0.026 0.021 0.009 0.007 0.011 0.008
C35 0.024 0.027 0.006 0.001 0.008 0.008
C36 0.025 0.023 0.01 -0.002 0.002 0.011
C37 0.021 0.013 0.014 0.002 0.006 0.003
C38 0.019 0.008 0.015 0.003 0.009 -0.002
C39 0.027 0.029 0.012 -0.002 0.005 0.011
C40 0.023 0.027 0.012 -0.006 0.009 0.007
C42 0.022 0.009 0.017 -0.002 0.003 0.003
C43 0.024 0.005 0.02 -0.006 0 0
O8 0.025 0.034 0.008 -0.008 0.002 0.009
O9 0.026 0.021 0.017 -0.006 0.004 0.009
S4 0.0217 0.0155 0.0119 -0.0021 0.0048 0.0048
Eu10 0.0206 0.0166 0.0073 -0.0007 0.001 0.0053
C8 0.02 0.004 0.02 -0.002 -0.001 0.005
C44 0.013 0.031 0.026 0.013 0.005 0.005
C11 0.013 0.031 0.026 0.013 0.005 0.005
C21 0.027 0.02 0.02 0.011 0.009 0.013
C22 0.016 0.02 0.014 0.006 0.007 0.008
C23 0.025 0.022 0.013 0.005 0.011 0.012
C24 0.02 0.011 0.014 0.007 0.006 0.006
C25 0.059 0.02 0.048 0.017 0.042 0.023
C26 0.038 0.043 0.048 0.015 0.011 0.029
C27 0.027 0.023 0.014 0.003 0.002 0.009
C31 0.031 0.027 0.014 0.003 0.001 0.016
C32 0.019 0.011 0.015 0.007 0.002 0.006
S2 0.048 0.0234 0.0237 0.0093 0.0181 0.0217
C41 0.02 0.004 0.02 -0.002 -0.001 0.005
C1 0.026 0.021 0.009 0.007 0.011 0.008
C2 0.024 0.027 0.006 0.001 0.008 0.008
C3 0.025 0.023 0.01 -0.002 0.002 0.011
C4 0.021 0.013 0.014 0.002 0.006 0.003
C5 0.019 0.008 0.015 0.003 0.009 -0.002
C6 0.027 0.029 0.012 -0.002 0.005 0.011
C7 0.023 0.027 0.012 -0.006 0.009 0.007
C9 0.022 0.009 0.017 -0.002 0.003 0.003
C10 0.024 0.005 0.02 -0.006 0 0
C12 0.028 0.013 0.008 0.005 0.004 0.011
C13 0.022 0.02 0.008 0.003 0.008 0.009
C14 0.032 0.018 0.013 -0.002 0.008 0.007
C15 0.034 0.024 0.014 0.004 0.006 0.003
C16 0.032 0.01 0.015 0.004 0.009 0.013
C17 0.034 0.02 0.009 0.003 0.001 -0.002
C18 0.038 0.026 0.01 0.007 0.002 0
C19 0.025 0.014 0.015 0.005 0.005 0.008
C20 0.021 0.004 0.017 0.003 0.009 0.001
O1 0.025 0.034 0.008 -0.008 0.002 0.009
O2 0.026 0.021 0.017 -0.006 0.004 0.009
O3 0.025 0.03 0.017 0.003 -0.003 0.005
O4 0.034 0.025 0.012 0.008 0.003 0.012
O7 0.043 0.019 0.038 0.012 0.02 0.017
S3 0.0202 0.0178 0.0176 0.0087 0.005 0.0058
Cu1 0.0244 0.0147 0.0199 0.0042 0.0058 0.0053
I1 0.0291 0.0194 0.0194 0.0044 0.008 0.0097
O18 0.034 0.025 0.012 0.008 0.003 0.012
C45 0.028 0.013 0.008 0.005 0.004 0.011
C46 0.022 0.02 0.008 0.003 0.008 0.009
C47 0.032 0.018 0.013 -0.002 0.008 0.007
C48 0.034 0.024 0.014 0.004 0.006 0.003
C49 0.032 0.01 0.015 0.004 0.009 0.013
C50 0.034 0.02 0.009 0.003 0.001 -0.002
C51 0.038 0.026 0.01 0.007 0.002 0
C52 0.025 0.014 0.015 0.005 0.005 0.008
C53 0.021 0.004 0.017 0.003 0.009 0.001
O10 0.025 0.03 0.017 0.003 -0.003 0.005
O14 0.043 0.019 0.038 0.012 0.02 0.017
S6 0.0202 0.0178 0.0176 0.0087 0.005 0.0058
O20 0.023 0.027 0.012 0.007 0.003 0.01
O22 0.028 0.017 0.018 0.012 0.004 0.015
C54 0.027 0.02 0.02 0.011 0.009 0.013
C55 0.016 0.02 0.014 0.006 0.007 0.008
C56 0.025 0.022 0.013 0.005 0.011 0.012
C57 0.02 0.011 0.014 0.007 0.006 0.006
C58 0.059 0.02 0.048 0.017 0.042 0.023
C59 0.038 0.043 0.048 0.015 0.011 0.029
C60 0.027 0.023 0.014 0.003 0.002 0.009
C64 0.031 0.027 0.014 0.003 0.001 0.016
C65 0.019 0.011 0.015 0.007 0.002 0.006
S5 0.048 0.0234 0.0237 0.0093 0.0181 0.0217
C61 0.032 0.038 0.018 0.014 0.007 0.019
C62 0.038 0.018 0.019 0.011 0.009 0.015
C63 0.027 0.016 0.012 0.001 0.001 0.008
C66 0.02 0.022 0.017 0.004 0 0.003
loop_
_geom_bond_atom_site_label_1
_geom_bond_atom_site_label_2
_geom_bond_site_symmetry_1
_geom_bond_site_symmetry_2
Cu5 I4 1_555 1_555
H21 C28 1_555 1_555
C29 C28 1_555 1_555
H22 C29 1_555 1_555
C30 C29 1_555 1_555
C33 C30 1_555 1_555
O5 C33 1_555 1_555
O6 C33 1_555 1_555
Eu6 O5 1_555 1_555
O6 Eu6 1_555 1_555
C34 C35 1_555 1_555
C35 C36 1_555 1_555
C36 H27 1_555 1_555
C37 C36 1_555 1_555
H28 C37 1_555 1_555
C38 C37 1_555 1_555
C39 C38 1_555 1_555
H29 C39 1_555 1_555
C40 C35 1_555 1_555
H30 C40 1_555 1_555
C42 C38 1_555 1_555
O8 C34 1_555 1_555
O9 C34 1_555 1_555
S4 C43 1_555 1_555
Eu10 O8 1_555 1_555
C39 C40 1_555 1_555
C42 C43 1_555 1_555
C8 H5 1_555 1_555
C44 H32 1_555 1_555
H33 C44 1_555 1_555
H34 C44 1_555 1_555
C11 H6 1_555 1_555
H7 C11 1_555 1_555
H8 C11 1_555 1_555
C22 C21 1_555 1_555
C23 C22 1_555 1_555
H14 C23 1_555 1_555
C25 H15 1_555 1_555
H16 C25 1_555 1_555
H17 C25 1_555 1_555
C26 H18 1_555 1_555
H19 C26 1_555 1_555
H20 C26 1_555 1_555
C27 C22 1_555 1_555
H23 C31 1_555 1_555
C32 C27 1_555 1_555
H24 C32 1_555 1_555
S2 C21 1_555 1_555
H31 C41 1_555 1_555
C23 C24 1_555 1_555
C25 S2 1_555 1_555
C31 C32 1_555 1_555
C1 C2 1_555 1_555
C2 C3 1_555 1_555
C3 H1 1_555 1_555
C4 C3 1_555 1_555
H2 C4 1_555 1_555
C5 C4 1_555 1_555
C6 C5 1_555 1_555
H3 C6 1_555 1_555
C7 C2 1_555 1_555
H4 C7 1_555 1_555
C9 C5 1_555 1_555
C10 C9 1_555 1_555
C12 C13 1_555 1_555
C13 C14 1_555 1_555
C14 H9 1_555 1_555
C15 C14 1_555 1_555
H10 C15 1_555 1_555
C16 C15 1_555 1_555
C17 C16 1_555 1_555
H11 C17 1_555 1_555
C18 C13 1_555 1_555
H12 C18 1_555 1_555
C19 C16 1_555 1_555
C20 C19 1_555 1_555
H13 C20 1_555 1_555
H25 O7 1_555 1_555
H26 O7 1_555 1_555
O1 C1 1_555 1_555
O2 C1 1_555 1_555
O3 C12 1_555 1_555
O4 C12 1_555 1_555
O7 Eu6 1_555 1_555
S7 C10 1_555 1_555
Cu1 S3 1_555 1_555
I1 Cu1 1_555 1_555
Eu6 O1 1_555 1_555
O18 Eu6 1_555 1_555
Eu10 O4 1_555 1_555
C6 C7 1_555 1_555
C17 C18 1_555 1_555
O3 Eu6 1_555 1_555
C45 C46 1_555 1_555
C46 C47 1_555 1_555
C47 H35 1_555 1_555
C48 C47 1_555 1_555
H36 C48 1_555 1_555
C49 C48 1_555 1_555
C50 C49 1_555 1_555
H37 C50 1_555 1_555
C51 C46 1_555 1_555
H38 C51 1_555 1_555
C52 C49 1_555 1_555
C53 C52 1_555 1_555
H39 C53 1_555 1_555
H51 O14 1_555 1_555
H52 O14 1_555 1_555
O10 C45 1_555 1_555
O18 C45 1_555 1_555
O14 Eu10 1_555 1_555
Cu5 S6 1_555 1_555
O20 Eu10 1_555 1_555
C50 C51 1_555 1_555
O10 Eu10 1_555 1_555
Eu10 O22 1_555 1_555
C55 C54 1_555 1_555
C56 C55 1_555 1_555
H40 C56 1_555 1_555
C58 H41 1_555 1_555
H42 C58 1_555 1_555
H43 C58 1_555 1_555
C59 H44 1_555 1_555
H45 C59 1_555 1_555
H46 C59 1_555 1_555
C60 C55 1_555 1_555
H49 C64 1_555 1_555
C65 C60 1_555 1_555
H50 C65 1_555 1_555
S5 C54 1_555 1_555
C56 C57 1_555 1_555
C58 S5 1_555 1_555
C64 C65 1_555 1_555
H47 C61 1_555 1_555
C62 C61 1_555 1_555
H48 C62 1_555 1_555
C63 C62 1_555 1_555
C66 C63 1_555 1_555
O20 C66 1_555 1_555
O22 C66 1_555 1_555

#END
