
###############################################################################
#
# This file contains modified crystal structure data generated from the
# MOF subset of the Cambridge Structural Database (CSD) v543 
# hosted by the Cambridge Crystallographic Data Centre (CCDC).
#
# This work is licensed under the Creative Commons
# Attribution-NonCommercial-ShareAlike 4.0 International License.
# To view a copy of this license, visit
# http://creativecommons.org/licenses/by-nc-sa/4.0/
# or send a letter to
# Creative Commons, PO Box 1866, Mountain View, CA 94042, USA.
#
# CIF created using the CSD Python API on 29 September 2022
# The structure has been converted into the P1 space group
# The structure has a 3D framework
# The original CSD entry UBALIU is in the monoclinic crystal system
# The framework has been calculated to contain at least 10.0% void space
# The void calculation uses a probe of radius 1.32A, grid spacing 0.4
# H atom positions have been added when not included in the experimental data
#
###############################################################################

data_UBALIU
_chemical_formula_moiety         '(C100 H88 N32 O52 S4 Zn10)n'
_symmetry_cell_setting           triclinic
_symmetry_space_group_name_H-M   'P 1'
_symmetry_Int_Tables_number      1
_space_group_name_Hall           'P 1'
loop_
_symmetry_equiv_pos_site_id
_symmetry_equiv_pos_as_xyz
1 x,y,z
_cell_length_a                   10.4882(4)
_cell_length_b                   19.2987(7)
_cell_length_c                   18.1601(8)
_cell_angle_alpha                90
_cell_angle_beta                 92.285(3)
_cell_angle_gamma                90
_cell_volume                     3672.84
loop_
_atom_site_label
_atom_site_type_symbol
_atom_site_fract_x
_atom_site_fract_y
_atom_site_fract_z
O1 O 0.1816(3) 0.01846(18) 0.0154(2)
C2 C 0.2927(4) 0.1211(2) 0.0026(2)
H2 H 0.3149 0.1226 0.0550
O9 O 0.7300(3) 0.14670(18) 0.0083(2)
C21 C 0.5129(4) 0.1729(2) 0.0013(2)
H17 H 0.5049 0.1642 0.0536
Zn1 Zn 0.47742(5) 0.03705(3) 0.87380(3)
S1 S 0.48473(16) 0.11486(11) 0.52716(8)
N1 N 0.2480(3) 0.17057(19) 0.86690(19)
N2 N 0.4859(4) 0.31001(19) 0.7800(2)
C1 C 0.3607(4) 0.1886(2) 0.8981(2)
N3 N 0.3003(3) 0.24515(19) 0.76730(19)
N4 N 0.4449(3) 0.23343(18) 0.87234(19)
N5 N 0.4507(4) 0.0786(2) 0.7726(2)
H1 H 0.2136 0.1465 0.9947
N6 N 0.3925(3) 0.15666(19) 0.96340(19)
C3 C 0.4079(4) 0.2616(2) 0.8067(2)
C4 C 0.2250(4) 0.2009(2) 0.8014(2)
O2 O 0.0178(4) 0.3171(2) 0.7343(2)
C5 C 0.2695(4) 0.0468(2) 0.9809(2)
C6 C 0.4701(5) 0.3367(2) 0.7054(2)
H3 H 0.4004 0.3121 0.6803
H4 H 0.5470 0.3271 0.6793
O3 O 0.0861(5) 0.3074(3) 0.6203(2)
C7 C 0.5952(4) 0.3355(2) 0.8237(3)
H5 H 0.5767 0.3304 0.8754
H6 H 0.6043 0.3846 0.8140
C8 C 0.0637(5) 0.2824(3) 0.6815(3)
C9 C 0.0421(5) 0.1239(3) 0.7938(3)
H7 H 0.1027 0.0860 0.7982
N7 N 0.1077(4) 0.1856(2) 0.7679(2)
C10 C 0.4595(6) 0.1063(3) 0.6230(3)
C11 C 0.3329(6) 0.1321(3) 0.4841(3)
C12 C 0.3606(5) 0.0546(3) 0.7246(3)
H9 H 0.2949 0.0280 0.7427
C13 C 0.3056(5) 0.1059(3) 0.4148(3)
H10 H 0.3588 0.0728 0.3951
C14 C 0.3606(6) 0.0673(3) 0.6502(3)
H11 H 0.2960 0.0501 0.6187
C15 C 0.5422(5) 0.1190(3) 0.7458(3)
H12 H 0.6032 0.1381 0.7784
C16 C 0.0879(5) 0.2067(3) 0.6913(2)
H13 H 0.0159 0.1813 0.6698
H14 H 0.1627 0.1942 0.6646
C17 C 0.2474(6) 0.1792(3) 0.5118(3)
H15 H 0.2618 0.1982 0.5585
C18 C 0.5490(6) 0.1332(3) 0.6718(3)
H16 H 0.6142 0.1610 0.6550
O7 O 0.3322(3) 0.01554(18) 0.9338(2)
O8 O 0.6165(3) 0.08764(17) 0.92542(18)
C20 C 0.6250(4) 0.1324(2) 0.9751(2)
H18 H 0.5301 0.2219 0.9953
O10 O 0.8137(3) 0.3268(2) 0.8507(2)
O11 O 0.7327(4) 0.2524(2) 0.7679(2)
C22 C 0.7219(5) 0.3008(2) 0.8112(3)
O12 O 0.4716(4) 0.44094(17) 0.63929(17)
C23 C 0.4428(4) 0.4144(2) 0.7012(2)
O13 O 0.3981(4) 0.4451(2) 0.7533(2)
N8 N 0.1159(4) 0.1747(2) 0.4000(2)
C24 C 0.1995(5) 0.1288(3) 0.3746(3)
H19 H 0.1851 0.1114 0.3273
C25 C 0.1403(5) 0.1978(3) 0.4694(3)
H20 H 0.0820 0.2279 0.4898
Zn4 Zn 0.52258(5) 0.53705(3) 0.62620(3)
Zn5 Zn 0.97642(5) 0.28091(3) 0.83282(3)
Zn8 Zn 0.86418(5) 0.07966(3) 0.99090(3)
N9 N 0.1159(4) 0.3253(2) 0.9000(2)
Zn3 Zn 0.13582(5) 0.92034(3) 0.00910(3)
O14 O 0.0397(4) 0.92067(19) 0.0975(2)
O5 O 0.0291(5) 0.9181(3) 0.9176(3)
O15 O 0.2700(3) 0.85330(18) 0.9917(2)
O17 O 0.5284(4) 0.94094(17) 0.86071(17)
H21 H 0.0799036 0.934125 0.87587
O4 O 0.9532(3) 0.19272(19) 0.8893(2)
H8 H 0.9762 0.1108 0.7575
C19 C 0.9822(4) 0.1344(3) 0.8670(3)
O6 O 0.9603(4) 0.07933(19) 0.9025(2)
Zn6 Zn 0.97642(5) 0.21909(3) 0.33282(3)
Zn6_2 Zn 0.02358(5) 0.71909(3) 0.16718(3)
Zn2 Zn 0.02358(5) 0.78091(3) 0.66718(3)
O4_2 O 0.0468(3) 0.69272(19) 0.6107(2)
H8_2 H 0.0238 0.6108 0.7425
C19_2 C 0.0178(4) 0.6344(3) 0.6330(3)
O6_2 O 0.0397(4) 0.57933(19) 0.5975(2)
Zn7 Zn 0.13582(5) 0.57966(3) 0.50910(3)
O16 O 0.1863(3) 0.8268(2) 0.6493(2)
H22 H 0.000816662 0.369995 0.591948
C11_2 C 0.6671(6) 0.6321(3) 0.0159(3)
C13_2 C 0.6944(5) 0.6059(3) 0.0852(3)
H10_2 H 0.6412 0.5728 0.1049
N8_2 N 0.8841(4) 0.6747(2) 0.1000(2)
C24_2 C 0.8005(5) 0.6288(3) 0.1254(3)
H19_2 H 0.8149 0.6114 0.1727
C25_2 C 0.8597(5) 0.6978(3) 0.0306(3)
H20_2 H 0.9180 0.7279 0.0102
Zn3_2 Zn 0.86418(5) 0.42034(3) 0.49090(3)
S1_2 S 0.51527(16) 0.61486(11) 0.97284(8)
O1_2 O 0.8184(3) 0.51846(18) 0.4846(2)
N1_2 N 0.7520(3) 0.67057(19) 0.63310(19)
N2_2 N 0.5141(4) 0.81001(19) 0.7200(2)
C1_2 C 0.6393(4) 0.6886(2) 0.6019(2)
N3_2 N 0.6997(3) 0.74515(19) 0.73270(19)
N4_2 N 0.5551(3) 0.73343(18) 0.62766(19)
N5_2 N 0.5493(4) 0.5786(2) 0.7274(2)
C2_2 C 0.7073(4) 0.6211(2) 0.4974(2)
H1_2 H 0.7864 0.6465 0.5053
H2_2 H 0.6851 0.6226 0.4450
N6_2 N 0.6075(3) 0.65666(19) 0.53660(19)
C3_2 C 0.5921(4) 0.7616(2) 0.6933(2)
C4_2 C 0.7750(4) 0.7009(2) 0.6986(2)
O2_2 O 0.9822(4) 0.8171(2) 0.7657(2)
C5_2 C 0.7305(4) 0.5468(2) 0.5191(2)
C6_2 C 0.5299(5) 0.8367(2) 0.7946(2)
H3_2 H 0.5996 0.8121 0.8197
H4_2 H 0.4530 0.8271 0.8207
O3_2 O 0.9139(5) 0.8074(3) 0.8797(2)
C7_2 C 0.4048(4) 0.8355(2) 0.6763(3)
H5_2 H 0.4233 0.8304 0.6246
H6_2 H 0.3957 0.8846 0.6860
C8_2 C 0.9363(5) 0.7824(3) 0.8185(3)
C9_2 C 0.9579(5) 0.6239(3) 0.7062(3)
H7_2 H 0.8973 0.5860 0.7018
N7_2 N 0.8923(4) 0.6856(2) 0.7321(2)
O5_2 O 0.9709(5) 0.4181(3) 0.5824(3)
C10_2 C 0.5405(6) 0.6063(3) 0.8770(3)
C12_2 C 0.6394(5) 0.5546(3) 0.7754(3)
H9_2 H 0.7051 0.5280 0.7573
C14_2 C 0.6394(6) 0.5673(3) 0.8498(3)
H11_2 H 0.7040 0.5501 0.8813
C15_2 C 0.4578(5) 0.6190(3) 0.7542(3)
H12_2 H 0.3968 0.6381 0.7216
C16_2 C 0.9121(5) 0.7067(3) 0.8087(2)
H13_2 H 0.9841 0.6813 0.8302
H14_2 H 0.8373 0.6942 0.8354
C17_2 C 0.7526(6) 0.6792(3) 0.9882(3)
H15_2 H 0.7382 0.6982 0.9415
C18_2 C 0.4510(6) 0.6332(3) 0.8282(3)
H16_2 H 0.3858 0.6610 0.8450
O7_2 O 0.6678(3) 0.51554(18) 0.5662(2)
O8_2 O 0.3835(3) 0.58764(17) 0.57458(18)
O9_2 O 0.2700(3) 0.64670(18) 0.4917(2)
C20_2 C 0.3750(4) 0.6324(2) 0.5249(2)
C21_2 C 0.4871(4) 0.6729(2) 0.4987(2)
H17_2 H 0.4951 0.6642 0.4464
H18_2 H 0.4699 0.7219 0.5047
O11_2 O 0.2673(4) 0.7524(2) 0.7321(2)
C22_2 C 0.2781(5) 0.8008(2) 0.6888(3)
C23_2 C 0.5572(4) 0.9144(2) 0.7988(2)
O13_2 O 0.6019(4) 0.9451(2) 0.7467(2)
O14_2 O 0.9603(4) 0.42067(19) 0.4025(2)
O15_2 O 0.7300(3) 0.35330(18) 0.5083(2)
N9_2 N 0.8841(4) 0.8253(2) 0.6000(2)
H21_2 H 0.920096 0.434125 0.62413
O4_3 O 0.0468(3) 0.80728(19) 0.1107(2)
H8_3 H 0.0238 0.8892 0.2425
C19_3 C 0.0178(4) 0.8656(3) 0.1330(3)
O16_2 O 0.1863(3) 0.6732(2) 0.1493(2)
O5_3 O 0.9709(5) 0.0819(3) 0.0824(3)
O17_2 O 0.4716(4) 0.05906(17) 0.13929(17)
H21_3 H 0.920096 0.0658753 0.12413
Zn1_2 Zn 0.52258(5) 0.96295(3) 0.12620(3)
S1_3 S 0.51527(16) 0.88514(11) 0.47284(8)
N1_3 N 0.7520(3) 0.82943(19) 0.13310(19)
N2_3 N 0.5141(4) 0.68999(19) 0.2200(2)
C1_3 C 0.6393(4) 0.8114(2) 0.1019(2)
N3_3 N 0.6997(3) 0.75485(19) 0.23270(19)
N4_3 N 0.5551(3) 0.76657(18) 0.12766(19)
N5_3 N 0.5493(4) 0.9214(2) 0.2274(2)
H1_3 H 0.7864 0.8535 0.0053
N6_3 N 0.6075(3) 0.84334(19) 0.03660(19)
C3_3 C 0.5921(4) 0.7384(2) 0.1933(2)
C4_3 C 0.7750(4) 0.7991(2) 0.1986(2)
O2_3 O 0.9822(4) 0.6829(2) 0.2657(2)
C5_3 C 0.7305(4) 0.9532(2) 0.0191(2)
C6_3 C 0.5299(5) 0.6633(2) 0.2946(2)
H3_3 H 0.5996 0.6879 0.3197
H4_3 H 0.4530 0.6729 0.3207
O3_3 O 0.9139(5) 0.6926(3) 0.3797(2)
C7_3 C 0.4048(4) 0.6645(2) 0.1763(3)
H5_3 H 0.4233 0.6696 0.1246
H6_3 H 0.3957 0.6154 0.1860
C8_3 C 0.9363(5) 0.7176(3) 0.3185(3)
C9_3 C 0.9579(5) 0.8761(3) 0.2062(3)
H7_3 H 0.8973 0.9140 0.2018
N7_3 N 0.8923(4) 0.8144(2) 0.2321(2)
C10_3 C 0.5405(6) 0.8937(3) 0.3770(3)
C11_3 C 0.6671(6) 0.8679(3) 0.5159(3)
C12_3 C 0.6394(5) 0.9454(3) 0.2754(3)
H9_3 H 0.7051 0.9720 0.2573
C13_3 C 0.6944(5) 0.8941(3) 0.5852(3)
H10_3 H 0.6412 0.9272 0.6049
C14_3 C 0.6394(6) 0.9327(3) 0.3498(3)
H11_3 H 0.7040 0.9499 0.3813
C15_3 C 0.4578(5) 0.8810(3) 0.2542(3)
H12_3 H 0.3968 0.8619 0.2216
C16_3 C 0.9121(5) 0.7933(3) 0.3087(2)
H13_3 H 0.9841 0.8187 0.3302
H14_3 H 0.8373 0.8058 0.3354
C17_3 C 0.7526(6) 0.8208(3) 0.4882(3)
H15_3 H 0.7382 0.8018 0.4415
C18_3 C 0.4510(6) 0.8668(3) 0.3282(3)
H16_3 H 0.3858 0.8390 0.3450
O7_3 O 0.6678(3) 0.98446(18) 0.0662(2)
O8_3 O 0.3835(3) 0.91236(17) 0.07458(18)
C20_3 C 0.3750(4) 0.8676(2) 0.0249(2)
H18_3 H 0.4699 0.7781 0.0047
O11_3 O 0.2673(4) 0.7476(2) 0.2321(2)
C22_3 C 0.2781(5) 0.6992(2) 0.1888(3)
O12_2 O 0.5284(4) 0.55906(17) 0.36071(17)
C23_3 C 0.5572(4) 0.5856(2) 0.2988(2)
O13_3 O 0.6019(4) 0.5549(2) 0.2467(2)
C24_3 C 0.8005(5) 0.8712(3) 0.6254(3)
H19_3 H 0.8149 0.8886 0.6727
C25_3 C 0.8597(5) 0.8022(3) 0.5306(3)
H20_3 H 0.9180 0.7721 0.5102
Zn4_2 Zn 0.47742(5) 0.46295(3) 0.37380(3)
O1_3 O 0.8184(3) 0.98154(18) 0.9846(2)
C2_3 C 0.7073(4) 0.8789(2) 0.9974(2)
H2_3 H 0.6851 0.8774 0.9450
C21_3 C 0.4871(4) 0.8271(2) 0.9987(2)
H17_3 H 0.4951 0.8358 0.9464
S1_4 S 0.48473(16) 0.38514(11) 0.02716(8)
O1_4 O 0.1816(3) 0.48154(18) 0.5154(2)
N1_4 N 0.2480(3) 0.32943(19) 0.36690(19)
N2_4 N 0.4859(4) 0.18999(19) 0.2800(2)
C1_4 C 0.3607(4) 0.3114(2) 0.3981(2)
N3_4 N 0.3003(3) 0.25485(19) 0.26730(19)
N4_4 N 0.4449(3) 0.26657(18) 0.37234(19)
N5_4 N 0.4507(4) 0.4214(2) 0.2726(2)
C2_4 C 0.2927(4) 0.3789(2) 0.5026(2)
H1_4 H 0.2136 0.3535 0.4947
H2_4 H 0.3149 0.3774 0.5550
N6_4 N 0.3925(3) 0.34334(19) 0.46340(19)
C3_4 C 0.4079(4) 0.2384(2) 0.3067(2)
C4_4 C 0.2250(4) 0.2991(2) 0.3014(2)
O2_4 O 0.0178(4) 0.1829(2) 0.2343(2)
C5_4 C 0.2695(4) 0.4532(2) 0.4809(2)
C6_4 C 0.4701(5) 0.1633(2) 0.2054(2)
H3_4 H 0.4004 0.1879 0.1803
H4_4 H 0.5470 0.1729 0.1793
O3_4 O 0.0861(5) 0.1926(3) 0.1203(2)
C7_4 C 0.5952(4) 0.1645(2) 0.3237(3)
H5_4 H 0.5767 0.1696 0.3754
H6_4 H 0.6043 0.1154 0.3140
C8_4 C 0.0637(5) 0.2176(3) 0.1815(3)
C9_4 C 0.0421(5) 0.3761(3) 0.2938(3)
H7_4 H 0.1027 0.4140 0.2982
N7_4 N 0.1077(4) 0.3144(2) 0.2679(2)
O5_4 O 0.0291(5) 0.5819(3) 0.4176(3)
C10_4 C 0.4595(6) 0.3937(3) 0.1230(3)
C12_4 C 0.3606(5) 0.4454(3) 0.2246(3)
H9_4 H 0.2949 0.4720 0.2427
C14_4 C 0.3606(6) 0.4327(3) 0.1502(3)
H11_4 H 0.2960 0.4499 0.1187
C15_4 C 0.5422(5) 0.3810(3) 0.2458(3)
H12_4 H 0.6032 0.3619 0.2784
C16_4 C 0.0879(5) 0.2933(3) 0.1913(2)
H13_4 H 0.0159 0.3187 0.1698
H14_4 H 0.1627 0.3058 0.1646
C17_4 C 0.2474(6) 0.3208(3) 0.0118(3)
H15_4 H 0.2618 0.3018 0.0585
C18_4 C 0.5490(6) 0.3668(3) 0.1718(3)
H16_4 H 0.6142 0.3390 0.1550
O7_4 O 0.3322(3) 0.48446(18) 0.4338(2)
O8_4 O 0.6165(3) 0.41236(17) 0.42542(18)
C20_4 C 0.6250(4) 0.3676(2) 0.4751(2)
C21_4 C 0.5129(4) 0.3271(2) 0.5013(2)
H17_4 H 0.5049 0.3358 0.5536
H18_4 H 0.5301 0.2781 0.4953
O10_2 O 0.8137(3) 0.1732(2) 0.3507(2)
O11_4 O 0.7327(4) 0.2476(2) 0.2679(2)
C22_4 C 0.7219(5) 0.1992(2) 0.3112(3)
C23_4 C 0.4428(4) 0.0856(2) 0.2012(2)
O13_4 O 0.3981(4) 0.0549(2) 0.2533(2)
H21_4 H 0.0799036 0.565875 0.37587
C11_4 C 0.3329(6) 0.3679(3) 0.9841(3)
C13_4 C 0.3056(5) 0.3941(3) 0.9148(3)
H10_4 H 0.3588 0.4272 0.8951
C24_4 C 0.1995(5) 0.3712(3) 0.8746(3)
H19_4 H 0.1851 0.3886 0.8273
C25_4 C 0.1403(5) 0.3022(3) 0.9694(3)
H20_4 H 0.0820 0.2721 0.9898
O4_4 O 0.9532(3) 0.30728(19) 0.3893(2)
H8_4 H 0.9762 0.3892 0.2575
C19_4 C 0.9822(4) 0.3656(3) 0.3670(3)
H22_2 H 0.999183 0.630005 0.408052
H22_3 H 0.999183 0.869995 0.908052
H22_4 H 0.000816662 0.130005 0.0919484
loop_
_geom_bond_atom_site_label_1
_geom_bond_atom_site_label_2
_geom_bond_site_symmetry_1
_geom_bond_site_symmetry_2
H2 C2 1_555 1_555
H17 C21 1_555 1_555
Zn1 N5 1_555 1_555
S1 C10 1_555 1_555
N1 C1 1_555 1_555
N2 C3 1_555 1_555
C1 N4 1_555 1_555
N3 C3 1_555 1_555
N4 C3 1_555 1_555
N5 C12 1_555 1_555
N6 C1 1_555 1_555
C4 N1 1_555 1_555
O2 C8 1_555 1_555
C6 N2 1_555 1_555
H3 C6 1_555 1_555
H4 C6 1_555 1_555
O3 C8 1_555 1_555
C7 N2 1_555 1_555
H5 C7 1_555 1_555
H6 C7 1_555 1_555
C8 C16 1_555 1_555
C9 H7 1_555 1_555
N7 C4 1_555 1_555
C10 C14 1_555 1_555
C11 S1 1_555 1_555
C12 H9 1_555 1_555
C13 C11 1_555 1_555
H10 C13 1_555 1_555
C14 C12 1_555 1_555
H11 C14 1_555 1_555
C15 N5 1_555 1_555
H12 C15 1_555 1_555
C16 N7 1_555 1_555
H13 C16 1_555 1_555
H14 C16 1_555 1_555
C17 C11 1_555 1_555
H15 C17 1_555 1_555
C18 C10 1_555 1_555
H16 C18 1_555 1_555
O7 Zn1 1_555 1_555
O8 Zn1 1_555 1_555
C20 O8 1_555 1_555
O10 C22 1_555 1_555
O11 C22 1_555 1_555
C22 C7 1_555 1_555
O12 C23 1_555 1_555
C23 C6 1_555 1_555
O13 C23 1_555 1_555
N8 C24 1_555 1_555
C24 C13 1_555 1_555
H19 C24 1_555 1_555
C25 C17 1_555 1_555
H20 C25 1_555 1_555
Zn4 O12 1_555 1_555
Zn5 O10 1_555 1_555
N3 C4 1_555 1_555
C5 O7 1_555 1_555
C9 N7 1_555 1_555
C15 C18 1_555 1_555
N8 C25 1_555 1_555
O14 Zn3 1_555 1_555
O5 H21 1_555 1_555
O4 Zn5 1_555 1_555
C19 O4 1_555 1_555
O6 C19 1_555 1_555
Zn8 O6 1_555 1_555
O4_2 Zn2 1_555 1_555
C19_2 O4_2 1_555 1_555
O6_2 C19_2 1_555 1_555
Zn7 O6_2 1_555 1_555
O16 Zn2 1_555 1_555
C13_2 C11_2 1_555 1_555
H10_2 C13_2 1_555 1_555
N8_2 C24_2 1_555 1_555
C24_2 C13_2 1_555 1_555
H19_2 C24_2 1_555 1_555
H20_2 C25_2 1_555 1_555
N8_2 C25_2 1_555 1_555
Zn4 N5_2 1_555 1_555
Zn3_2 O1_2 1_555 1_555
S1_2 C10_2 1_555 1_555
O1_2 C5_2 1_555 1_555
N1_2 C1_2 1_555 1_555
N2_2 C3_2 1_555 1_555
C1_2 N4_2 1_555 1_555
N3_2 C3_2 1_555 1_555
N4_2 C3_2 1_555 1_555
N5_2 C12_2 1_555 1_555
C2_2 H1_2 1_555 1_555
H2_2 C2_2 1_555 1_555
N6_2 C1_2 1_555 1_555
C4_2 N1_2 1_555 1_555
O2_2 C8_2 1_555 1_555
C5_2 C2_2 1_555 1_555
C6_2 N2_2 1_555 1_555
H3_2 C6_2 1_555 1_555
H4_2 C6_2 1_555 1_555
O3_2 C8_2 1_555 1_555
C7_2 N2_2 1_555 1_555
H5_2 C7_2 1_555 1_555
H6_2 C7_2 1_555 1_555
C8_2 C16_2 1_555 1_555
C9_2 H7_2 1_555 1_555
N7_2 C4_2 1_555 1_555
O5_2 Zn3_2 1_555 1_555
C10_2 C14_2 1_555 1_555
C12_2 H9_2 1_555 1_555
C14_2 C12_2 1_555 1_555
H11_2 C14_2 1_555 1_555
C15_2 N5_2 1_555 1_555
H12_2 C15_2 1_555 1_555
C16_2 N7_2 1_555 1_555
H13_2 C16_2 1_555 1_555
H14_2 C16_2 1_555 1_555
H15_2 C17_2 1_555 1_555
C18_2 C10_2 1_555 1_555
H16_2 C18_2 1_555 1_555
O7_2 Zn4 1_555 1_555
O8_2 Zn4 1_555 1_555
O9_2 C20_2 1_555 1_555
C20_2 O8_2 1_555 1_555
C21_2 N6_2 1_555 1_555
H17_2 C21_2 1_555 1_555
H18_2 C21_2 1_555 1_555
O16 C22_2 1_555 1_555
O11_2 C22_2 1_555 1_555
C22_2 C7_2 1_555 1_555
O17 C23_2 1_555 1_555
C23_2 C6_2 1_555 1_555
O13_2 C23_2 1_555 1_555
Zn7 O9_2 1_555 1_555
O14_2 Zn3_2 1_555 1_555
O15_2 Zn3_2 1_555 1_555
N3_2 C4_2 1_555 1_555
C2_2 N6_2 1_555 1_555
C5_2 O7_2 1_555 1_555
C9_2 N7_2 1_555 1_555
C15_2 C18_2 1_555 1_555
C20_2 C21_2 1_555 1_555
O5_2 H21_2 1_555 1_555
O4_3 Zn6_2 1_555 1_555
C19_3 O4_3 1_555 1_555
O14 C19_3 1_555 1_555
O16_2 Zn6_2 1_555 1_555
O5_3 H21_3 1_555 1_555
Zn1_2 N5_3 1_555 1_555
S1_3 C10_3 1_555 1_555
N1_3 C1_3 1_555 1_555
N2_3 C3_3 1_555 1_555
C1_3 N4_3 1_555 1_555
N3_3 C3_3 1_555 1_555
N4_3 C3_3 1_555 1_555
N5_3 C12_3 1_555 1_555
N6_3 C1_3 1_555 1_555
C4_3 N1_3 1_555 1_555
O2_3 C8_3 1_555 1_555
C6_3 N2_3 1_555 1_555
H3_3 C6_3 1_555 1_555
H4_3 C6_3 1_555 1_555
O3_3 C8_3 1_555 1_555
C7_3 N2_3 1_555 1_555
H5_3 C7_3 1_555 1_555
H6_3 C7_3 1_555 1_555
C8_3 C16_3 1_555 1_555
C9_3 H7_3 1_555 1_555
N7_3 C4_3 1_555 1_555
C10_3 C14_3 1_555 1_555
C11_3 S1_3 1_555 1_555
C12_3 H9_3 1_555 1_555
C13_3 C11_3 1_555 1_555
H10_3 C13_3 1_555 1_555
C14_3 C12_3 1_555 1_555
H11_3 C14_3 1_555 1_555
C15_3 N5_3 1_555 1_555
H12_3 C15_3 1_555 1_555
C16_3 N7_3 1_555 1_555
H13_3 C16_3 1_555 1_555
H14_3 C16_3 1_555 1_555
C17_3 C11_3 1_555 1_555
H15_3 C17_3 1_555 1_555
C18_3 C10_3 1_555 1_555
H16_3 C18_3 1_555 1_555
O7_3 Zn1_2 1_555 1_555
O8_3 Zn1_2 1_555 1_555
C20_3 O8_3 1_555 1_555
O16_2 C22_3 1_555 1_555
O11_3 C22_3 1_555 1_555
C22_3 C7_3 1_555 1_555
O12_2 C23_3 1_555 1_555
C23_3 C6_3 1_555 1_555
O13_3 C23_3 1_555 1_555
N9_2 C24_3 1_555 1_555
C24_3 C13_3 1_555 1_555
H19_3 C24_3 1_555 1_555
C25_3 C17_3 1_555 1_555
H20_3 C25_3 1_555 1_555
Zn4_2 O12_2 1_555 1_555
N3_3 C4_3 1_555 1_555
C5_3 O7_3 1_555 1_555
C9_3 N7_3 1_555 1_555
C15_3 C18_3 1_555 1_555
N9_2 C25_3 1_555 1_555
H2_3 C2_3 1_555 1_555
H17_3 C21_3 1_555 1_555
Zn4_2 N5_4 1_555 1_555
Zn7 O1_4 1_555 1_555
S1_4 C10_4 1_555 1_555
O1_4 C5_4 1_555 1_555
N1_4 C1_4 1_555 1_555
N2_4 C3_4 1_555 1_555
C1_4 N4_4 1_555 1_555
N3_4 C3_4 1_555 1_555
N4_4 C3_4 1_555 1_555
N5_4 C12_4 1_555 1_555
C2_4 H1_4 1_555 1_555
H2_4 C2_4 1_555 1_555
N6_4 C1_4 1_555 1_555
C4_4 N1_4 1_555 1_555
O2_4 C8_4 1_555 1_555
C5_4 C2_4 1_555 1_555
C6_4 N2_4 1_555 1_555
H3_4 C6_4 1_555 1_555
H4_4 C6_4 1_555 1_555
O3_4 C8_4 1_555 1_555
C7_4 N2_4 1_555 1_555
H5_4 C7_4 1_555 1_555
H6_4 C7_4 1_555 1_555
C8_4 C16_4 1_555 1_555
C9_4 H7_4 1_555 1_555
N7_4 C4_4 1_555 1_555
O5_4 Zn7 1_555 1_555
C10_4 C14_4 1_555 1_555
C12_4 H9_4 1_555 1_555
C14_4 C12_4 1_555 1_555
H11_4 C14_4 1_555 1_555
C15_4 N5_4 1_555 1_555
H12_4 C15_4 1_555 1_555
C16_4 N7_4 1_555 1_555
H13_4 C16_4 1_555 1_555
H14_4 C16_4 1_555 1_555
H15_4 C17_4 1_555 1_555
C18_4 C10_4 1_555 1_555
H16_4 C18_4 1_555 1_555
O7_4 Zn4_2 1_555 1_555
O8_4 Zn4_2 1_555 1_555
O15_2 C20_4 1_555 1_555
C20_4 O8_4 1_555 1_555
C21_4 N6_4 1_555 1_555
H17_4 C21_4 1_555 1_555
H18_4 C21_4 1_555 1_555
O10_2 C22_4 1_555 1_555
O11_4 C22_4 1_555 1_555
C22_4 C7_4 1_555 1_555
O17_2 C23_4 1_555 1_555
C23_4 C6_4 1_555 1_555
O13_4 C23_4 1_555 1_555
Zn6 O10_2 1_555 1_555
N3_4 C4_4 1_555 1_555
C2_4 N6_4 1_555 1_555
C5_4 O7_4 1_555 1_555
C9_4 N7_4 1_555 1_555
C15_4 C18_4 1_555 1_555
C20_4 C21_4 1_555 1_555
O5_4 H21_4 1_555 1_555
C13_4 C11_4 1_555 1_555
H10_4 C13_4 1_555 1_555
N9 C24_4 1_555 1_555
C24_4 C13_4 1_555 1_555
H19_4 C24_4 1_555 1_555
H20_4 C25_4 1_555 1_555
N9 C25_4 1_555 1_555
O4_4 Zn6 1_555 1_555
C19_4 O4_4 1_555 1_555
O14_2 C19_4 1_555 1_555

#END
