
###############################################################################
#
# This file contains modified crystal structure data generated from the
# MOF subset of the Cambridge Structural Database (CSD) v543 
# hosted by the Cambridge Crystallographic Data Centre (CCDC).
#
# This work is licensed under the Creative Commons
# Attribution-NonCommercial-ShareAlike 4.0 International License.
# To view a copy of this license, visit
# http://creativecommons.org/licenses/by-nc-sa/4.0/
# or send a letter to
# Creative Commons, PO Box 1866, Mountain View, CA 94042, USA.
#
# CIF created using the CSD Python API on 29 September 2022
# The structure has been converted into the P1 space group
# The structure has a 3D framework
# The original CSD entry UBERUS is in the triclinic crystal system
# The framework has been calculated to contain at least 10.0% void space
# The void calculation uses a probe of radius 1.32A, grid spacing 0.4
#
###############################################################################

data_UBERUS
_chemical_formula_moiety         '(C160 H88 Co4 N12 O32)n'
_symmetry_cell_setting           triclinic
_symmetry_space_group_name_H-M   'P 1'
_symmetry_Int_Tables_number      1
_space_group_name_Hall           'P 1'
loop_
_symmetry_equiv_pos_site_id
_symmetry_equiv_pos_as_xyz
1 x,y,z
_cell_length_a                   16.1863(10)
_cell_length_b                   19.8147(11)
_cell_length_c                   21.8460(14)
_cell_angle_alpha                96.909(3)
_cell_angle_beta                 101.126(3)
_cell_angle_gamma                113.973(3)
_cell_volume                     6125.65
loop_
_atom_site_label
_atom_site_type_symbol
_atom_site_fract_x
_atom_site_fract_y
_atom_site_fract_z
O15 O 0.04989(16) 0.08037(13) 0.72640(11)
O16 O 0.08869(16) 0.07083(13) 0.82721(11)
C80 C 0.0349(2) 0.07754(18) 0.78052(16)
Co4 Co 0.16617(3) 0.11432(2) 0.69284(2)
Co7 Co 0.19650(3) 0.12672(2) 0.90578(2)
N4 N 0.1728(2) 0.00686(16) 0.69185(14)
H11 H 0.2289 0.0075 0.6196
N8 N 0.1983(2) 0.01682(16) 0.91029(14)
H32 H 0.3143 0.0344 0.8850
O1 O 0.2693(2) 0.48332(15) 0.78426(14)
O2 O 0.0491(3) 0.38547(19) 0.59197(19)
O3 O 0.0527(3) 0.74305(17) 0.59303(17)
O4 O 0.2903(2) 0.84432(15) 0.77545(15)
O5 O 0.09916(18) 0.07894(14) 0.59327(11)
O6 O 0.25145(18) 0.14369(14) 0.62400(12)
O8 O 0.27758(19) 0.17332(14) 0.00524(12)
O11 O 0.2791(2) 0.84298(16) 0.01498(14)
O13 O 0.27237(17) 0.16656(13) 0.77275(11)
O14 O 0.31340(16) 0.15748(13) 0.87385(11)
N1 N 0.1601(2) 0.22251(16) 0.69231(14)
N2 N 0.1578(2) 0.43464(17) 0.68911(16)
N3 N 0.1686(2) 0.79214(17) 0.68596(15)
C1 C 0.2323(3) 0.2805(2) 0.6850(3)
H1 H 0.2857 0.2736 0.6805
C2 C 0.2349(4) 0.3516(3) 0.6835(3)
H2 H 0.2886 0.3921 0.6785
C3 C 0.1577(3) 0.3609(2) 0.68960(19)
C4 C 0.0823(3) 0.3020(2) 0.6973(2)
H3 H 0.0283 0.3078 0.7020
C5 C 0.0854(3) 0.2338(2) 0.69823(19)
H4 H 0.0323 0.1929 0.7033
C6 C 0.0981(4) 0.4399(2) 0.6356(2)
C7 C 0.1009(4) 0.5160(2) 0.6370(2)
C8 C 0.1632(3) 0.5778(2) 0.68684(19)
C9 C 0.2241(3) 0.5696(2) 0.73793(19)
C10 C 0.2211(3) 0.4942(2) 0.7407(2)
C11 C 0.2879(3) 0.6317(2) 0.7859(2)
H5 H 0.3301 0.6257 0.8191
C12 C 0.2907(3) 0.7034(2) 0.7856(2)
H6 H 0.3332 0.7457 0.8191
C13 C 0.2301(3) 0.7116(2) 0.73545(19)
C14 C 0.1663(3) 0.6496(2) 0.68551(19)
C15 C 0.1048(4) 0.6577(2) 0.6353(2)
C16 C 0.0418(4) 0.5962(3) 0.5878(3)
C17 C 0.0396(5) 0.5248(3) 0.5881(3)
C18 C 0.1060(4) 0.7333(2) 0.6348(2)
C19 C 0.2334(3) 0.7874(2) 0.73505(19)
C20 C 0.1693(3) 0.8659(2) 0.68747(18)
C21 C 0.1363(3) 0.8934(2) 0.73189(18)
H9 H 0.1119 0.8650 0.7617
C22 C 0.1392(3) 0.9642(2) 0.73237(18)
H10 H 0.1159 0.9837 0.7634
C23 C 0.2047(3) 0.9782(2) 0.6489(2)
C24 C 0.2044(3) 0.9076(2) 0.6447(2)
H12 H 0.2277 0.8888 0.6134
C25 C 0.1764(3) 0.1131(2) 0.58053(17)
C26 C 0.1778(3) 0.1184(2) 0.51368(19)
C27 C 0.2582(4) 0.1626(3) 0.4981(2)
H13 H 0.3152 0.1917 0.5304
C28 C 0.2544(5) 0.1639(4) 0.4337(3)
H14 H 0.3101 0.1942 0.4230
C29 C 0.1714(5) 0.1222(3) 0.3843(2)
C30 C 0.0931(4) 0.0778(3) 0.3998(2)
H15 H 0.0365 0.0478 0.3672
C31 C 0.0958(4) 0.0763(3) 0.4633(2)
H16 H 0.0398 0.0456 0.4734
C32 C 0.1613(5) 0.1187(3) 0.3143(3)
H17 H 0.1027 0.0840 0.2855
C33 C 0.2240(5) 0.1581(4) 0.2911(3)
H18 H 0.2824 0.1930 0.3199
C34 C 0.2137(5) 0.1544(3) 0.2203(2)
C35 C 0.1309(5) 0.1099(3) 0.1743(3)
H19 H 0.0762 0.0814 0.1868
C36 C 0.1260(4) 0.1061(3) 0.1077(2)
H20 H 0.0687 0.0750 0.0761
C37 C 0.2051(3) 0.1478(2) 0.09028(19)
C38 C 0.2882(4) 0.1939(3) 0.1387(2)
H21 H 0.3433 0.2237 0.1271
C39 C 0.2912(5) 0.1970(4) 0.2019(3)
H22 H 0.3481 0.2291 0.2335
C40 C 0.2017(3) 0.1425(2) 0.02182(18)
C51 C 0.2979(4) 0.6347(2) 0.0105(2)
H27 H 0.3402 0.6283 0.0433
C52 C 0.2970(4) 0.7061(2) 0.0134(2)
H28 H 0.3372 0.7470 0.0487
C65 C 0.3253(2) 0.15762(18) 0.81825(16)
C66 C 0.4081(2) 0.1469(2) 0.80712(17)
C67 C 0.4211(3) 0.1395(3) 0.74643(19)
H35 H 0.3787 0.1430 0.7116
C68 C 0.4967(3) 0.1269(3) 0.7366(2)
H36 H 0.5047 0.1209 0.6946
C69 C 0.5609(3) 0.1228(3) 0.7872(2)
C70 C 0.5483(3) 0.1321(2) 0.84885(18)
H37 H 0.5921 0.1309 0.8840
C71 C 0.4724(3) 0.1432(2) 0.85862(18)
H38 H 0.4636 0.1483 0.9004
C72 C 0.6392(3) 0.1090(3) 0.7737(2)
H39 H 0.6432 0.1036 0.7307
C73 C 0.7049(3) 0.1036(2) 0.8175(2)
H40 H 0.6992 0.1071 0.8600
C74 C 0.7859(3) 0.0925(2) 0.80554(19)
C75 C 0.8020(3) 0.0858(2) 0.74558(19)
H41 H 0.7582 0.0860 0.7097
C76 C 0.8813(3) 0.0788(2) 0.73730(18)
H42 H 0.8903 0.0726 0.6957
C77 C 0.9471(2) 0.08085(19) 0.78907(16)
C78 C 0.9308(3) 0.0863(2) 0.84958(18)
H43 H 0.9741 0.0856 0.8853
C79 C 0.8516(3) 0.0927(2) 0.85718(19)
H44 H 0.8416 0.0974 0.8986
O7 O 0.12369(18) 0.10734(13) 0.97919(12)
O9 O 0.2948(3) 0.49088(16) 0.99826(16)
O10 O 0.0535(2) 0.39090(15) 0.81836(15)
O12 O 0.0813(2) 0.75562(14) 0.81536(13)
N5 N 0.1827(2) 0.23074(16) 0.90238(14)
N6 N 0.1747(2) 0.44130(16) 0.90828(15)
N7 N 0.1833(2) 0.79969(16) 0.91398(15)
C41 C 0.1420(3) 0.2554(2) 0.9416(2)
H23 H 0.1144 0.2239 0.9687
C42 C 0.1379(3) 0.3236(2) 0.9450(2)
H24 H 0.1091 0.3391 0.9742
C43 C 0.1758(3) 0.3688(2) 0.90550(19)
C44 C 0.2170(3) 0.3439(2) 0.86274(18)
H25 H 0.2433 0.3738 0.8343
C45 C 0.2183(3) 0.2749(2) 0.86295(17)
H26 H 0.2457 0.2577 0.8337
C46 C 0.1094(3) 0.4462(2) 0.86001(19)
C47 C 0.1110(3) 0.5222(2) 0.86105(18)
C48 C 0.1758(3) 0.5835(2) 0.91180(17)
C49 C 0.2386(3) 0.5753(2) 0.96125(19)
C50 C 0.2403(3) 0.5010(2) 0.9594(2)
C53 C 0.2378(3) 0.7162(2) 0.96506(19)
C54 C 0.1772(3) 0.6562(2) 0.91319(18)
C55 C 0.1175(3) 0.6650(2) 0.86234(18)
C56 C 0.0572(3) 0.6052(2) 0.81291(19)
H29 H 0.0186 0.6128 0.7784
C57 C 0.0520(3) 0.5324(2) 0.8129(2)
H30 H 0.0077 0.4905 0.7795
C58 C 0.1231(3) 0.7418(2) 0.86033(18)
C59 C 0.2376(3) 0.7915(2) 0.96885(19)
C60 C 0.1893(3) 0.8744(2) 0.91367(18)
C61 C 0.2609(3) 0.9267(2) 0.8979(2)
H31 H 0.3092 0.9156 0.8878
C62 C 0.2635(3) 0.9979(2) 0.8964(2)
C63 C 0.1284(3) 0.9643(2) 0.9260(3)
H33 H 0.0808 0.9763 0.9361
C64 C 0.1216(4) 0.8924(2) 0.9285(3)
H34 H 0.0707 0.8565 0.9403
H7 H 0.9994 0.6019 0.5546
H8 H 0.9963 0.4824 0.5548
H7_2 H 0.0006 0.3981 0.4454
H8_2 H 0.0037 0.5176 0.4452
Co2 Co 0.80350(3) 0.87328(2) 0.09422(2)
O7_2 O 0.87631(18) 0.89266(13) 0.02081(12)
O9_2 O 0.7052(3) 0.50912(16) 0.00174(16)
O10_2 O 0.9465(2) 0.60910(15) 0.18164(15)
O12_2 O 0.9187(2) 0.24438(14) 0.18464(13)
N5_2 N 0.8173(2) 0.76926(16) 0.09762(14)
N6_2 N 0.8253(2) 0.55870(16) 0.09172(15)
N7_2 N 0.8167(2) 0.20031(16) 0.08602(15)
C41_2 C 0.8580(3) 0.7446(2) 0.0584(2)
H23_2 H 0.8856 0.7761 0.0313
C42_2 C 0.8621(3) 0.6764(2) 0.0550(2)
H24_2 H 0.8909 0.6609 0.0258
C43_2 C 0.8242(3) 0.6312(2) 0.09450(19)
C44_2 C 0.7830(3) 0.6561(2) 0.13726(18)
H25_2 H 0.7567 0.6262 0.1657
C45_2 C 0.7817(3) 0.7251(2) 0.13705(17)
H26_2 H 0.7543 0.7423 0.1663
C46_2 C 0.8906(3) 0.5538(2) 0.13999(19)
C47_2 C 0.8890(3) 0.4778(2) 0.13895(18)
C48_2 C 0.8242(3) 0.4165(2) 0.08820(17)
C49_2 C 0.7614(3) 0.4247(2) 0.03875(19)
C50_2 C 0.7597(3) 0.4990(2) 0.0406(2)
C53_2 C 0.7622(3) 0.2838(2) 0.03494(19)
C54_2 C 0.8228(3) 0.3438(2) 0.08681(18)
C55_2 C 0.8825(3) 0.3350(2) 0.13766(18)
C56_2 C 0.9428(3) 0.3948(2) 0.18709(19)
H29_2 H 0.9814 0.3872 0.2216
C57_2 C 0.9480(3) 0.4676(2) 0.1871(2)
H30_2 H 0.9923 0.5095 0.2205
C58_2 C 0.8769(3) 0.2582(2) 0.13967(18)
C59_2 C 0.7624(3) 0.2085(2) 0.03115(19)
C60_2 C 0.8107(3) 0.1256(2) 0.08633(18)
C61_2 C 0.7391(3) 0.0733(2) 0.1021(2)
H31_2 H 0.6908 0.0844 0.1122
C62_2 C 0.7365(3) 0.0021(2) 0.1036(2)
C63_2 C 0.8716(3) 0.0357(2) 0.0740(3)
H33_2 H 0.9192 0.0237 0.0639
C64_2 C 0.8784(4) 0.1076(2) 0.0715(3)
H34_2 H 0.9293 0.1435 0.0597
O17 O 0.68660(16) 0.84252(13) 0.12615(11)
O19 O 0.91131(16) 0.92917(13) 0.17279(11)
N10 N 0.8017(2) 0.98318(16) 0.08971(14)
Co1 Co 0.83383(3) 0.88568(2) 0.30716(2)
O1_2 O 0.7307(2) 0.51668(15) 0.21574(14)
O2_2 O 0.9509(3) 0.61453(19) 0.40803(19)
O3_2 O 0.9473(3) 0.25695(17) 0.40697(17)
O4_2 O 0.7097(2) 0.15568(15) 0.22455(15)
O5_2 O 0.90084(18) 0.92106(14) 0.40673(11)
O6_2 O 0.74855(18) 0.85631(14) 0.37600(12)
O8_2 O 0.72242(19) 0.82668(14) 0.99476(12)
O11_2 O 0.7209(2) 0.15702(16) 0.98502(14)
O13_2 O 0.72763(17) 0.83344(13) 0.22725(11)
N1_2 N 0.8399(2) 0.77749(16) 0.30769(14)
N2_2 N 0.8422(2) 0.56536(17) 0.31089(16)
N3_2 N 0.8314(2) 0.20786(17) 0.31404(15)
C1_2 C 0.7677(3) 0.7195(2) 0.3150(3)
H1_2 H 0.7143 0.7264 0.3195
C2_2 C 0.7651(4) 0.6484(3) 0.3165(3)
H2_2 H 0.7114 0.6079 0.3215
C3_2 C 0.8423(3) 0.6391(2) 0.31040(19)
C4_2 C 0.9177(3) 0.6980(2) 0.3027(2)
H3_2 H 0.9717 0.6922 0.2980
C5_2 C 0.9146(3) 0.7662(2) 0.30177(19)
H4_2 H 0.9677 0.8071 0.2967
C6_2 C 0.9019(4) 0.5601(2) 0.3644(2)
C7_2 C 0.8991(4) 0.4840(2) 0.3630(2)
C8_2 C 0.8368(3) 0.4222(2) 0.31316(19)
C9_2 C 0.7759(3) 0.4304(2) 0.26207(19)
C10_2 C 0.7789(3) 0.5058(2) 0.2593(2)
C11_2 C 0.7121(3) 0.3683(2) 0.2141(2)
H5_2 H 0.6699 0.3743 0.1809
C12_2 C 0.7093(3) 0.2966(2) 0.2144(2)
H6_2 H 0.6668 0.2543 0.1809
C13_2 C 0.7699(3) 0.2884(2) 0.26455(19)
C14_2 C 0.8337(3) 0.3504(2) 0.31449(19)
C15_2 C 0.8952(4) 0.3423(2) 0.3647(2)
C16_2 C 0.9582(4) 0.4038(3) 0.4122(3)
C17_2 C 0.9604(5) 0.4752(3) 0.4119(3)
C18_2 C 0.8940(4) 0.2667(2) 0.3652(2)
C19_2 C 0.7666(3) 0.2126(2) 0.26495(19)
C20_2 C 0.8307(3) 0.1341(2) 0.31253(18)
C21_2 C 0.8637(3) 0.1066(2) 0.26811(18)
H9_2 H 0.8881 0.1350 0.2383
C22_2 C 0.8608(3) 0.0358(2) 0.26763(18)
H10_2 H 0.8841 0.0163 0.2366
C23_2 C 0.7953(3) 0.0218(2) 0.3511(2)
C24_2 C 0.7956(3) 0.0924(2) 0.3553(2)
H12_2 H 0.7723 0.1112 0.3866
C25_2 C 0.8236(3) 0.8869(2) 0.41947(17)
C26_2 C 0.8222(3) 0.8816(2) 0.48632(19)
C27_2 C 0.7418(4) 0.8374(3) 0.5019(2)
H13_2 H 0.6848 0.8083 0.4696
C28_2 C 0.7456(5) 0.8361(4) 0.5663(3)
H14_2 H 0.6899 0.8058 0.5770
C29_2 C 0.8286(5) 0.8778(3) 0.6157(2)
C30_2 C 0.9069(4) 0.9222(3) 0.6002(2)
H15_2 H 0.9635 0.9522 0.6328
C31_2 C 0.9042(4) 0.9237(3) 0.5367(2)
H16_2 H 0.9602 0.9544 0.5266
C32_2 C 0.8387(5) 0.8813(3) 0.6857(3)
H17_2 H 0.8973 0.9160 0.7145
C33_2 C 0.7760(5) 0.8419(4) 0.7089(3)
H18_2 H 0.7176 0.8070 0.6801
C34_2 C 0.7863(5) 0.8456(3) 0.7797(2)
C35_2 C 0.8691(5) 0.8901(3) 0.8257(3)
H19_2 H 0.9238 0.9186 0.8132
C36_2 C 0.8740(4) 0.8939(3) 0.8923(2)
H20_2 H 0.9313 0.9250 0.9239
C37_2 C 0.7949(3) 0.8522(2) 0.90972(19)
C38_2 C 0.7118(4) 0.8061(3) 0.8613(2)
H21_2 H 0.6567 0.7763 0.8729
C39_2 C 0.7088(5) 0.8030(4) 0.7981(3)
H22_2 H 0.6519 0.7709 0.7665
C40_2 C 0.7983(3) 0.8575(2) 0.97818(18)
C51_2 C 0.7021(4) 0.3653(2) 0.9895(2)
H27_2 H 0.6598 0.3717 0.9567
C52_2 C 0.7030(4) 0.2939(2) 0.9866(2)
H28_2 H 0.6628 0.2530 0.9513
C65_2 C 0.6747(2) 0.84238(18) 0.18175(16)
C66_2 C 0.5919(2) 0.8531(2) 0.19288(17)
C67_2 C 0.5789(3) 0.8605(3) 0.25357(19)
H35_2 H 0.6213 0.8570 0.2884
C68_2 C 0.5033(3) 0.8731(3) 0.2634(2)
H36_2 H 0.4953 0.8791 0.3054
C69_2 C 0.4391(3) 0.8772(3) 0.2128(2)
C70_2 C 0.4517(3) 0.8679(2) 0.15115(18)
H37_2 H 0.4079 0.8691 0.1160
C71_2 C 0.5276(3) 0.8568(2) 0.14138(18)
H38_2 H 0.5364 0.8517 0.0996
C72_2 C 0.3608(3) 0.8910(3) 0.2263(2)
H39_2 H 0.3568 0.8964 0.2693
C73_2 C 0.2951(3) 0.8964(2) 0.1825(2)
H40_2 H 0.3008 0.8929 0.1400
C74_2 C 0.2141(3) 0.9075(2) 0.19446(19)
C75_2 C 0.1980(3) 0.9142(2) 0.25442(19)
H41_2 H 0.2418 0.9140 0.2903
C76_2 C 0.1187(3) 0.9212(2) 0.26270(18)
H42_2 H 0.1097 0.9274 0.3043
C77_2 C 0.0529(2) 0.91915(19) 0.21093(16)
C78_2 C 0.0692(3) 0.9137(2) 0.15042(18)
H43_2 H 0.0259 0.9144 0.1147
C79_2 C 0.1484(3) 0.9073(2) 0.14282(19)
H44_2 H 0.1584 0.9026 0.1014
O18 O 0.95011(16) 0.91963(13) 0.27360(11)
N9 N 0.8272(2) 0.99314(16) 0.30815(14)
H32_2 H 0.6857 0.9656 0.1150
H11_2 H 0.7711 0.9925 0.3804
C80_2 C 0.9651(2) 0.92246(18) 0.21948(16)
loop_
_geom_bond_atom_site_label_1
_geom_bond_atom_site_label_2
_geom_bond_site_symmetry_1
_geom_bond_site_symmetry_2
O15 C80 1_555 1_555
O16 C80 1_555 1_555
Co4 O15 1_555 1_555
Co7 O16 1_555 1_555
Co4 N4 1_555 1_555
Co7 N8 1_555 1_555
Co4 O5 1_555 1_555
O1 C10 1_555 1_555
O2 C6 1_555 1_555
O3 C18 1_555 1_555
O4 C19 1_555 1_555
O5 C25 1_555 1_555
O6 Co4 1_555 1_555
O13 Co4 1_555 1_555
O14 C65 1_555 1_555
N1 Co4 1_555 1_555
N2 C3 1_555 1_555
N3 C18 1_555 1_555
C1 N1 1_555 1_555
H1 C1 1_555 1_555
C2 C1 1_555 1_555
H2 C2 1_555 1_555
C3 C2 1_555 1_555
C4 C3 1_555 1_555
H3 C4 1_555 1_555
C5 N1 1_555 1_555
H4 C5 1_555 1_555
C6 N2 1_555 1_555
C7 C6 1_555 1_555
C8 C7 1_555 1_555
C9 C8 1_555 1_555
C10 N2 1_555 1_555
C11 C9 1_555 1_555
H5 C11 1_555 1_555
C12 C11 1_555 1_555
H6 C12 1_555 1_555
C13 C12 1_555 1_555
C14 C8 1_555 1_555
C15 C14 1_555 1_555
C16 C15 1_555 1_555
C17 C7 1_555 1_555
C18 C15 1_555 1_555
C19 N3 1_555 1_555
C20 N3 1_555 1_555
C21 C20 1_555 1_555
H9 C21 1_555 1_555
C22 C21 1_555 1_555
H10 C22 1_555 1_555
C24 C20 1_555 1_555
H12 C24 1_555 1_555
C25 O6 1_555 1_555
C26 C25 1_555 1_555
C27 C26 1_555 1_555
H13 C27 1_555 1_555
C28 C27 1_555 1_555
H14 C28 1_555 1_555
C29 C28 1_555 1_555
C30 C29 1_555 1_555
H15 C30 1_555 1_555
C31 C26 1_555 1_555
H16 C31 1_555 1_555
C32 C29 1_555 1_555
H17 C32 1_555 1_555
C33 C32 1_555 1_555
H18 C33 1_555 1_555
C34 C33 1_555 1_555
C35 C34 1_555 1_555
H19 C35 1_555 1_555
C36 C35 1_555 1_555
H20 C36 1_555 1_555
C37 C36 1_555 1_555
C38 C37 1_555 1_555
H21 C38 1_555 1_555
C39 C34 1_555 1_555
H22 C39 1_555 1_555
C40 O8 1_555 1_555
H27 C51 1_555 1_555
C52 C51 1_555 1_555
H28 C52 1_555 1_555
C65 O13 1_555 1_555
C66 C65 1_555 1_555
C67 C66 1_555 1_555
H35 C67 1_555 1_555
C68 C67 1_555 1_555
H36 C68 1_555 1_555
C69 C68 1_555 1_555
C70 C69 1_555 1_555
H37 C70 1_555 1_555
C71 C66 1_555 1_555
H38 C71 1_555 1_555
C72 C69 1_555 1_555
H39 C72 1_555 1_555
C73 C72 1_555 1_555
H40 C73 1_555 1_555
C74 C73 1_555 1_555
C75 C74 1_555 1_555
H41 C75 1_555 1_555
C76 C75 1_555 1_555
H42 C76 1_555 1_555
C77 C76 1_555 1_555
C78 C77 1_555 1_555
H43 C78 1_555 1_555
C79 C74 1_555 1_555
H44 C79 1_555 1_555
Co7 O14 1_555 1_555
C4 C5 1_555 1_555
C9 C10 1_555 1_555
C13 C14 1_555 1_555
C13 C19 1_555 1_555
C16 C17 1_555 1_555
C23 C24 1_555 1_555
C30 C31 1_555 1_555
C37 C40 1_555 1_555
C38 C39 1_555 1_555
C70 C71 1_555 1_555
C78 C79 1_555 1_555
Co7 O7 1_555 1_555
O9 C50 1_555 1_555
O10 C46 1_555 1_555
O12 C58 1_555 1_555
N5 Co7 1_555 1_555
N6 C43 1_555 1_555
N7 C58 1_555 1_555
C41 N5 1_555 1_555
H23 C41 1_555 1_555
C42 C41 1_555 1_555
H24 C42 1_555 1_555
C43 C42 1_555 1_555
C44 C43 1_555 1_555
H25 C44 1_555 1_555
C45 N5 1_555 1_555
H26 C45 1_555 1_555
C46 N6 1_555 1_555
C47 C46 1_555 1_555
C48 C47 1_555 1_555
C49 C48 1_555 1_555
C50 N6 1_555 1_555
C54 C48 1_555 1_555
C55 C54 1_555 1_555
C56 C55 1_555 1_555
H29 C56 1_555 1_555
C57 C47 1_555 1_555
H30 C57 1_555 1_555
C58 C55 1_555 1_555
C59 N7 1_555 1_555
C60 N7 1_555 1_555
C61 C60 1_555 1_555
H31 C61 1_555 1_555
C62 C61 1_555 1_555
H33 C63 1_555 1_555
C64 C60 1_555 1_555
H34 C64 1_555 1_555
C44 C45 1_555 1_555
C49 C50 1_555 1_555
C53 C54 1_555 1_555
C53 C59 1_555 1_555
C56 C57 1_555 1_555
C63 C64 1_555 1_555
Co2 O7_2 1_555 1_555
O9_2 C50_2 1_555 1_555
O10_2 C46_2 1_555 1_555
O12_2 C58_2 1_555 1_555
N5_2 Co2 1_555 1_555
N6_2 C43_2 1_555 1_555
N7_2 C58_2 1_555 1_555
C41_2 N5_2 1_555 1_555
H23_2 C41_2 1_555 1_555
C42_2 C41_2 1_555 1_555
H24_2 C42_2 1_555 1_555
C43_2 C42_2 1_555 1_555
C44_2 C43_2 1_555 1_555
H25_2 C44_2 1_555 1_555
C45_2 N5_2 1_555 1_555
H26_2 C45_2 1_555 1_555
C46_2 N6_2 1_555 1_555
C47_2 C46_2 1_555 1_555
C48_2 C47_2 1_555 1_555
C49_2 C48_2 1_555 1_555
C50_2 N6_2 1_555 1_555
C54_2 C48_2 1_555 1_555
C55_2 C54_2 1_555 1_555
C56_2 C55_2 1_555 1_555
H29_2 C56_2 1_555 1_555
C57_2 C47_2 1_555 1_555
H30_2 C57_2 1_555 1_555
C58_2 C55_2 1_555 1_555
C59_2 N7_2 1_555 1_555
C60_2 N7_2 1_555 1_555
C61_2 C60_2 1_555 1_555
H31_2 C61_2 1_555 1_555
C62_2 C61_2 1_555 1_555
H33_2 C63_2 1_555 1_555
C64_2 C60_2 1_555 1_555
H34_2 C64_2 1_555 1_555
O17 Co2 1_555 1_555
O19 Co2 1_555 1_555
N10 Co2 1_555 1_555
C44_2 C45_2 1_555 1_555
C49_2 C50_2 1_555 1_555
C53_2 C54_2 1_555 1_555
C53_2 C59_2 1_555 1_555
C56_2 C57_2 1_555 1_555
C63_2 C64_2 1_555 1_555
Co1 O5_2 1_555 1_555
O1_2 C10_2 1_555 1_555
O2_2 C6_2 1_555 1_555
O3_2 C18_2 1_555 1_555
O4_2 C19_2 1_555 1_555
O5_2 C25_2 1_555 1_555
O6_2 Co1 1_555 1_555
O13_2 Co1 1_555 1_555
O17 C65_2 1_555 1_555
N1_2 Co1 1_555 1_555
N2_2 C3_2 1_555 1_555
N3_2 C18_2 1_555 1_555
C1_2 N1_2 1_555 1_555
H1_2 C1_2 1_555 1_555
C2_2 C1_2 1_555 1_555
H2_2 C2_2 1_555 1_555
C3_2 C2_2 1_555 1_555
C4_2 C3_2 1_555 1_555
H3_2 C4_2 1_555 1_555
C5_2 N1_2 1_555 1_555
H4_2 C5_2 1_555 1_555
C6_2 N2_2 1_555 1_555
C7_2 C6_2 1_555 1_555
C8_2 C7_2 1_555 1_555
C9_2 C8_2 1_555 1_555
C10_2 N2_2 1_555 1_555
C11_2 C9_2 1_555 1_555
H5_2 C11_2 1_555 1_555
C12_2 C11_2 1_555 1_555
H6_2 C12_2 1_555 1_555
C13_2 C12_2 1_555 1_555
C14_2 C8_2 1_555 1_555
C15_2 C14_2 1_555 1_555
C16_2 C15_2 1_555 1_555
C17_2 C7_2 1_555 1_555
C18_2 C15_2 1_555 1_555
C19_2 N3_2 1_555 1_555
C20_2 N3_2 1_555 1_555
C21_2 C20_2 1_555 1_555
H9_2 C21_2 1_555 1_555
C22_2 C21_2 1_555 1_555
H10_2 C22_2 1_555 1_555
C24_2 C20_2 1_555 1_555
H12_2 C24_2 1_555 1_555
C25_2 O6_2 1_555 1_555
C26_2 C25_2 1_555 1_555
C27_2 C26_2 1_555 1_555
H13_2 C27_2 1_555 1_555
C28_2 C27_2 1_555 1_555
H14_2 C28_2 1_555 1_555
C29_2 C28_2 1_555 1_555
C30_2 C29_2 1_555 1_555
H15_2 C30_2 1_555 1_555
C31_2 C26_2 1_555 1_555
H16_2 C31_2 1_555 1_555
C32_2 C29_2 1_555 1_555
H17_2 C32_2 1_555 1_555
C33_2 C32_2 1_555 1_555
H18_2 C33_2 1_555 1_555
C34_2 C33_2 1_555 1_555
C35_2 C34_2 1_555 1_555
H19_2 C35_2 1_555 1_555
C36_2 C35_2 1_555 1_555
H20_2 C36_2 1_555 1_555
C37_2 C36_2 1_555 1_555
C38_2 C37_2 1_555 1_555
H21_2 C38_2 1_555 1_555
C39_2 C34_2 1_555 1_555
H22_2 C39_2 1_555 1_555
C40_2 O8_2 1_555 1_555
H27_2 C51_2 1_555 1_555
C52_2 C51_2 1_555 1_555
H28_2 C52_2 1_555 1_555
C65_2 O13_2 1_555 1_555
C66_2 C65_2 1_555 1_555
C67_2 C66_2 1_555 1_555
H35_2 C67_2 1_555 1_555
C68_2 C67_2 1_555 1_555
H36_2 C68_2 1_555 1_555
C69_2 C68_2 1_555 1_555
C70_2 C69_2 1_555 1_555
H37_2 C70_2 1_555 1_555
C71_2 C66_2 1_555 1_555
H38_2 C71_2 1_555 1_555
C72_2 C69_2 1_555 1_555
H39_2 C72_2 1_555 1_555
C73_2 C72_2 1_555 1_555
H40_2 C73_2 1_555 1_555
C74_2 C73_2 1_555 1_555
C75_2 C74_2 1_555 1_555
H41_2 C75_2 1_555 1_555
C76_2 C75_2 1_555 1_555
H42_2 C76_2 1_555 1_555
C77_2 C76_2 1_555 1_555
C78_2 C77_2 1_555 1_555
H43_2 C78_2 1_555 1_555
C79_2 C74_2 1_555 1_555
H44_2 C79_2 1_555 1_555
O18 Co1 1_555 1_555
N9 Co1 1_555 1_555
C4_2 C5_2 1_555 1_555
C9_2 C10_2 1_555 1_555
C13_2 C14_2 1_555 1_555
C13_2 C19_2 1_555 1_555
C16_2 C17_2 1_555 1_555
C23_2 C24_2 1_555 1_555
C30_2 C31_2 1_555 1_555
C37_2 C40_2 1_555 1_555
C38_2 C39_2 1_555 1_555
C70_2 C71_2 1_555 1_555
C78_2 C79_2 1_555 1_555
O18 C80_2 1_555 1_555
O19 C80_2 1_555 1_555

#END
