
###############################################################################
#
# This file contains modified crystal structure data generated from the
# MOF subset of the Cambridge Structural Database (CSD) v543 
# hosted by the Cambridge Crystallographic Data Centre (CCDC).
#
# This work is licensed under the Creative Commons
# Attribution-NonCommercial-ShareAlike 4.0 International License.
# To view a copy of this license, visit
# http://creativecommons.org/licenses/by-nc-sa/4.0/
# or send a letter to
# Creative Commons, PO Box 1866, Mountain View, CA 94042, USA.
#
# CIF created using the CSD Python API on 29 September 2022
# The structure has been converted into the P1 space group
# The structure has a 3D framework
# The original CSD entry UBUQOB is in the monoclinic crystal system
# The framework has been calculated to contain at least 10.0% void space
# The void calculation uses a probe of radius 1.32A, grid spacing 0.4
#
###############################################################################

data_UBUQOB
_chemical_formula_moiety         '(C100 H56 N8 O18 Zn4)n'
_symmetry_cell_setting           triclinic
_symmetry_space_group_name_H-M   'P 1'
_symmetry_Int_Tables_number      1
_space_group_name_Hall           'P 1'
loop_
_symmetry_equiv_pos_site_id
_symmetry_equiv_pos_as_xyz
1 x,y,z
_cell_length_a                   10.4323(13)
_cell_length_b                   19.699(3)
_cell_length_c                   17.150(2)
_cell_angle_alpha                90
_cell_angle_beta                 101.046(3)
_cell_angle_gamma                90
_cell_volume                     3459.13
loop_
_atom_site_label
_atom_site_type_symbol
_atom_site_fract_x
_atom_site_fract_y
_atom_site_fract_z
Zn5 Zn 0.14371(2) 0.00118(2) 0.02798(2)
O4 O 0.07158(17) 0.42255(8) 0.58809(10)
O6 O 0.12653(17) 0.06670(8) 0.93412(9)
C19 C 0.0533(2) 0.25763(11) 0.73839(13)
C20 C 0.0597(2) 0.31514(11) 0.68973(13)
H11 H 0.1392 0.3371 0.6916
C21 C 0.1650(2) 0.23149(13) 0.79004(15)
H12 H 0.2457 0.2522 0.7920
C22 C 0.1558(2) 0.17656(12) 0.83680(14)
H13 H 0.2303 0.1597 0.8697
C23 C 0.0340(2) 0.14493(10) 0.83573(12)
C25 C 0.0228(2) 0.08791(10) 0.89207(11)
Zn6 Zn 0.14371(2) 0.49882(2) 0.52798(2)
Zn1 Zn 0.85629(2) 0.50118(2) 0.47202(2)
O1 O 0.2740(2) 0.53410(17) 0.17257(13)
O2 O 0.6081(2) 0.38429(12) 0.20724(12)
O3 O 0.85529(16) 0.42204(8) 0.54783(10)
O5 O 0.90987(16) 0.06634(8) 0.89365(9)
N1 N 0.66424(18) 0.51529(10) 0.42458(11)
N2 N 0.4368(2) 0.45660(13) 0.18780(11)
C1 C 0.5965(3) 0.56420(17) 0.45187(17)
H1 H 0.6391 0.5926 0.4919
C2 C 0.4659(3) 0.5741(2) 0.4228(2)
H2 H 0.4205 0.6080 0.4439
C3 C 0.4024(3) 0.5334(2) 0.36209(19)
H3 H 0.3138 0.5394 0.3420
C4 C 0.4711(2) 0.48418(15) 0.33183(14)
C5 C 0.6015(2) 0.47599(12) 0.36578(12)
H4 H 0.6480 0.4414 0.3468
C6 C 0.4075(3) 0.43781(16) 0.26583(14)
H5 H 0.4370 0.3917 0.2784
H6 H 0.3137 0.4388 0.2626
C7 C 0.3582(3) 0.50635(16) 0.14495(18)
C8 C 0.5420(3) 0.42513(15) 0.16407(14)
C9 C 0.5675(3) 0.44345(15) 0.08474(14)
C10 C 0.4877(3) 0.49153(14) 0.03799(15)
C11 C 0.3838(3) 0.52334(18) 0.06506(16)
C12 C 0.3057(3) 0.5690(2) 0.01776(18)
H7 H 0.2359 0.5889 0.0357
C13 C 0.6699(3) 0.41420(19) 0.05727(17)
H8 H 0.7233 0.3830 0.0888
C14 C 0.9600(2) 0.39948(10) 0.58806(12)
C15 C 0.9503(2) 0.33888(10) 0.64002(12)
C16 C 0.8296(2) 0.30571(12) 0.63661(14)
H9 H 0.7556 0.3219 0.6027
C17 C 0.8201(2) 0.25012(12) 0.68250(14)
H10 H 0.7399 0.2286 0.6793
C18 C 0.9317(2) 0.22478(10) 0.73512(12)
C24 C 0.9251(2) 0.16815(10) 0.78500(12)
H14 H 0.8456 0.1463 0.7833
O14 O 0.92842(17) 0.57745(8) 0.41191(10)
O16 O 0.90987(16) 0.43366(8) 0.39365(9)
O17 O 0.87347(17) 0.56670(8) 0.56588(9)
O7 O 0.7260(2) 0.46590(17) 0.82743(13)
O8 O 0.3919(2) 0.61571(12) 0.79276(12)
N3 N 0.33576(18) 0.48471(10) 0.57542(11)
N4 N 0.5632(2) 0.54340(13) 0.81220(11)
C26 C 0.4035(3) 0.43580(17) 0.54813(17)
H15 H 0.3609 0.4074 0.5081
C27 C 0.5341(3) 0.4259(2) 0.5772(2)
H16 H 0.5795 0.3920 0.5561
C28 C 0.5976(3) 0.4666(2) 0.63791(19)
H17 H 0.6862 0.4606 0.6580
C29 C 0.5289(2) 0.51582(15) 0.66817(14)
C30 C 0.3985(2) 0.52401(12) 0.63422(12)
H18 H 0.3520 0.5586 0.6532
C31 C 0.5925(3) 0.56219(16) 0.73417(14)
H19 H 0.5630 0.6083 0.7216
H20 H 0.6863 0.5612 0.7374
C32 C 0.6418(3) 0.49365(16) 0.85505(18)
C33 C 0.4580(3) 0.57487(15) 0.83593(14)
C34 C 0.4325(3) 0.55655(15) 0.91526(14)
C35 C 0.5123(3) 0.50847(14) 0.96201(15)
C36 C 0.6162(3) 0.47666(18) 0.93494(16)
C37 C 0.6943(3) 0.4310(2) 0.98224(18)
H21 H 0.7641 0.4111 0.9643
C38 C 0.3301(3) 0.58580(19) 0.94273(17)
H22 H 0.2767 0.6170 0.9112
O9 O 0.14471(16) 0.57796(8) 0.45217(10)
O11 O 0.09013(16) 0.93366(8) 0.10635(9)
C39 C 0.0400(2) 0.60052(10) 0.41194(12)
C40 C 0.0497(2) 0.66112(10) 0.35998(12)
C41 C 0.1704(2) 0.69429(12) 0.36339(14)
H23 H 0.2444 0.6781 0.3973
C42 C 0.1799(2) 0.74988(12) 0.31750(14)
H24 H 0.2601 0.7714 0.3207
C43 C 0.0683(2) 0.77522(10) 0.26488(12)
C49 C 0.0749(2) 0.83185(10) 0.21500(12)
H28 H 0.1544 0.8537 0.2167
O15 O 0.09013(16) 0.56634(8) 0.60635(9)
O18 O 0.12653(17) 0.43330(8) 0.43412(9)
Zn8 Zn 0.85629(2) 0.99882(2) 0.97202(2)
O12 O 0.87347(17) 0.93330(8) 0.06588(9)
C44 C 0.9467(2) 0.74237(11) 0.26161(13)
C45 C 0.9403(2) 0.68486(11) 0.31027(13)
H25 H 0.8608 0.6629 0.3084
C46 C 0.8350(2) 0.76851(13) 0.20996(15)
H26 H 0.7543 0.7478 0.2080
C47 C 0.8442(2) 0.82344(12) 0.16320(14)
H27 H 0.7697 0.8403 0.1303
C48 C 0.9660(2) 0.85507(10) 0.16427(12)
C50 C 0.9772(2) 0.91209(10) 0.10793(11)
O10 O 0.07158(17) 0.07745(8) 0.08809(10)
C44_2 C 0.0533(2) 0.24237(11) 0.23839(13)
C45_2 C 0.0597(2) 0.18486(11) 0.18973(13)
H25_2 H 0.1392 0.1629 0.1916
C46_2 C 0.1650(2) 0.26851(13) 0.29004(15)
H26_2 H 0.2457 0.2478 0.2920
C47_2 C 0.1558(2) 0.32344(12) 0.33680(14)
H27_2 H 0.2303 0.3403 0.3697
C48_2 C 0.0340(2) 0.35507(10) 0.33573(12)
C50_2 C 0.0228(2) 0.41209(10) 0.39207(11)
O9_2 O 0.85529(16) 0.07796(8) 0.04783(10)
C39_2 C 0.9600(2) 0.10052(10) 0.08806(12)
C40_2 C 0.9503(2) 0.16112(10) 0.14002(12)
C41_2 C 0.8296(2) 0.19429(12) 0.13661(14)
H23_2 H 0.7556 0.1781 0.1027
C42_2 C 0.8201(2) 0.24988(12) 0.18250(14)
H24_2 H 0.7399 0.2714 0.1793
C43_2 C 0.9317(2) 0.27522(10) 0.23512(12)
C49_2 C 0.9251(2) 0.33185(10) 0.28500(12)
H28_2 H 0.8456 0.3537 0.2833
O1_2 O 0.7260(2) 0.03410(17) 0.32743(13)
N1_2 N 0.33576(18) 0.01529(10) 0.07542(11)
C1_2 C 0.4035(3) 0.06420(17) 0.04813(17)
H1_2 H 0.3609 0.0926 0.0081
C2_2 C 0.5341(3) 0.0741(2) 0.0772(2)
H2_2 H 0.5795 0.1080 0.0561
C3_2 C 0.5976(3) 0.0334(2) 0.13791(19)
H3_2 H 0.6862 0.0394 0.1580
C7_2 C 0.6418(3) 0.00635(16) 0.35505(18)
C11_2 C 0.6162(3) 0.02334(18) 0.43494(16)
C12_2 C 0.6943(3) 0.0690(2) 0.48224(18)
H7_2 H 0.7641 0.0889 0.4643
O8_2 O 0.6081(2) 0.11571(12) 0.70724(12)
N4_2 N 0.4368(2) 0.04340(13) 0.68780(11)
C29_2 C 0.4711(2) 0.01582(15) 0.83183(14)
C30_2 C 0.6015(2) 0.02401(12) 0.86578(12)
H18_2 H 0.6480 0.0586 0.8468
C31_2 C 0.4075(3) 0.06219(16) 0.76583(14)
H19_2 H 0.4370 0.1083 0.7784
H20_2 H 0.3137 0.0612 0.7626
C33_2 C 0.5420(3) 0.07487(15) 0.66407(14)
C34_2 C 0.5675(3) 0.05655(15) 0.58474(14)
C35_2 C 0.4877(3) 0.00847(14) 0.53799(15)
C38_2 C 0.6699(3) 0.08580(19) 0.55727(17)
H22_2 H 0.7233 0.1170 0.5888
O2_2 O 0.3919(2) 0.88429(12) 0.29276(12)
N2_2 N 0.5632(2) 0.95660(13) 0.31220(11)
C4_2 C 0.5289(2) 0.98418(15) 0.16817(14)
C5_2 C 0.3985(2) 0.97599(12) 0.13422(12)
H4_2 H 0.3520 0.9414 0.1532
C6_2 C 0.5925(3) 0.93781(16) 0.23417(14)
H5_2 H 0.5630 0.8917 0.2216
H6_2 H 0.6863 0.9388 0.2374
C8_2 C 0.4580(3) 0.92513(15) 0.33593(14)
C9_2 C 0.4325(3) 0.94345(15) 0.41526(14)
C10_2 C 0.5123(3) 0.99153(14) 0.46201(15)
C13_2 C 0.3301(3) 0.91420(19) 0.44273(17)
H8_2 H 0.2767 0.8830 0.4112
O7_2 O 0.2740(2) 0.96590(17) 0.67257(13)
N3_2 N 0.66424(18) 0.98471(10) 0.92458(11)
C26_2 C 0.5965(3) 0.93580(17) 0.95187(17)
H15_2 H 0.6391 0.9074 0.9919
C27_2 C 0.4659(3) 0.9259(2) 0.9228(2)
H16_2 H 0.4205 0.8920 0.9439
C28_2 C 0.4024(3) 0.9666(2) 0.86209(19)
H17_2 H 0.3138 0.9606 0.8420
C32_2 C 0.3582(3) 0.99365(16) 0.64495(18)
C36_2 C 0.3838(3) 0.97666(18) 0.56506(16)
C37_2 C 0.3057(3) 0.9310(2) 0.51776(18)
H21_2 H 0.2359 0.9111 0.5357
O13 O 0.92842(17) 0.92255(8) 0.91191(10)
O3_2 O 0.14471(16) 0.92204(8) 0.95217(10)
C14_2 C 0.0400(2) 0.89948(10) 0.91194(12)
C15_2 C 0.0497(2) 0.83888(10) 0.85998(12)
C16_2 C 0.1704(2) 0.80571(12) 0.86339(14)
H9_2 H 0.2444 0.8219 0.8973
C17_2 C 0.1799(2) 0.75012(12) 0.81750(14)
H10_2 H 0.2601 0.7286 0.8207
C18_2 C 0.0683(2) 0.72478(10) 0.76488(12)
C24_2 C 0.0749(2) 0.66815(10) 0.71500(12)
H14_2 H 0.1544 0.6463 0.7167
C19_2 C 0.9467(2) 0.75763(11) 0.76161(13)
C20_2 C 0.9403(2) 0.81514(11) 0.81027(13)
H11_2 H 0.8608 0.8371 0.8084
C21_2 C 0.8350(2) 0.73149(13) 0.70996(15)
H12_2 H 0.7543 0.7522 0.7080
C22_2 C 0.8442(2) 0.67656(12) 0.66320(14)
H13_2 H 0.7697 0.6597 0.6303
C23_2 C 0.9660(2) 0.64493(10) 0.66427(12)
C25_2 C 0.9772(2) 0.58791(10) 0.60793(11)
loop_
_geom_bond_atom_site_label_1
_geom_bond_atom_site_label_2
_geom_bond_site_symmetry_1
_geom_bond_site_symmetry_2
O6 C25 1_555 1_555
H11 C20 1_555 1_555
C21 C19 1_555 1_555
H12 C21 1_555 1_555
C22 C21 1_555 1_555
H13 C22 1_555 1_555
C23 C22 1_555 1_555
C25 C23 1_555 1_555
Zn6 O4 1_555 1_555
C19 C20 1_555 1_555
Zn1 O3 1_555 1_555
O1 C7 1_555 1_555
O2 C8 1_555 1_555
O3 C14 1_555 1_555
N1 Zn1 1_555 1_555
N2 C6 1_555 1_555
C1 N1 1_555 1_555
H1 C1 1_555 1_555
C2 C1 1_555 1_555
H2 C2 1_555 1_555
C3 C2 1_555 1_555
H3 C3 1_555 1_555
C4 C3 1_555 1_555
C5 N1 1_555 1_555
H4 C5 1_555 1_555
C6 C4 1_555 1_555
H5 C6 1_555 1_555
H6 C6 1_555 1_555
C7 N2 1_555 1_555
C8 N2 1_555 1_555
C9 C8 1_555 1_555
C10 C9 1_555 1_555
C11 C7 1_555 1_555
C12 C11 1_555 1_555
H7 C12 1_555 1_555
C13 C9 1_555 1_555
H8 C13 1_555 1_555
C14 C15 1_555 1_555
C15 C16 1_555 1_555
C16 H9 1_555 1_555
C17 C16 1_555 1_555
H10 C17 1_555 1_555
C18 C17 1_555 1_555
C24 C18 1_555 1_555
H14 C24 1_555 1_555
O14 Zn1 1_555 1_555
O16 Zn1 1_555 1_555
O17 Zn1 1_555 1_555
C4 C5 1_555 1_555
C10 C11 1_555 1_555
O7 C32 1_555 1_555
O8 C33 1_555 1_555
N3 C26 1_555 1_555
N4 C31 1_555 1_555
C26 H15 1_555 1_555
C27 C26 1_555 1_555
H16 C27 1_555 1_555
C28 C27 1_555 1_555
H17 C28 1_555 1_555
C29 C28 1_555 1_555
C30 N3 1_555 1_555
H18 C30 1_555 1_555
C31 C29 1_555 1_555
H19 C31 1_555 1_555
H20 C31 1_555 1_555
C32 N4 1_555 1_555
C33 N4 1_555 1_555
C34 C33 1_555 1_555
C36 C32 1_555 1_555
H21 C37 1_555 1_555
H22 C38 1_555 1_555
Zn6 N3 1_555 1_555
O9 Zn6 1_555 1_555
C39 O9 1_555 1_555
C40 C39 1_555 1_555
C41 C40 1_555 1_555
H23 C41 1_555 1_555
C42 C41 1_555 1_555
H24 C42 1_555 1_555
C43 C42 1_555 1_555
C49 C43 1_555 1_555
H28 C49 1_555 1_555
O15 Zn6 1_555 1_555
O18 Zn6 1_555 1_555
C29 C30 1_555 1_555
C34 C35 1_555 1_555
C34 C38 1_555 1_555
C35 C36 1_555 1_555
C36 C37 1_555 1_555
O12 C50 1_555 1_555
H25 C45 1_555 1_555
C46 C44 1_555 1_555
H26 C46 1_555 1_555
C47 C46 1_555 1_555
H27 C47 1_555 1_555
C48 C47 1_555 1_555
C50 C48 1_555 1_555
C44 C45 1_555 1_555
O18 C50_2 1_555 1_555
H25_2 C45_2 1_555 1_555
C46_2 C44_2 1_555 1_555
H26_2 C46_2 1_555 1_555
C47_2 C46_2 1_555 1_555
H27_2 C47_2 1_555 1_555
C48_2 C47_2 1_555 1_555
C50_2 C48_2 1_555 1_555
Zn5 O10 1_555 1_555
C44_2 C45_2 1_555 1_555
C39_2 O9_2 1_555 1_555
C40_2 C39_2 1_555 1_555
C41_2 C40_2 1_555 1_555
H23_2 C41_2 1_555 1_555
C42_2 C41_2 1_555 1_555
H24_2 C42_2 1_555 1_555
C43_2 C42_2 1_555 1_555
C49_2 C43_2 1_555 1_555
H28_2 C49_2 1_555 1_555
O1_2 C7_2 1_555 1_555
N1_2 Zn5 1_555 1_555
C1_2 N1_2 1_555 1_555
H1_2 C1_2 1_555 1_555
C2_2 C1_2 1_555 1_555
H2_2 C2_2 1_555 1_555
C3_2 C2_2 1_555 1_555
H3_2 C3_2 1_555 1_555
C11_2 C7_2 1_555 1_555
C12_2 C11_2 1_555 1_555
H7_2 C12_2 1_555 1_555
O8_2 C33_2 1_555 1_555
N4_2 C31_2 1_555 1_555
H18_2 C30_2 1_555 1_555
C31_2 C29_2 1_555 1_555
H19_2 C31_2 1_555 1_555
H20_2 C31_2 1_555 1_555
C33_2 N4_2 1_555 1_555
C34_2 C33_2 1_555 1_555
C38_2 C12_2 1_555 1_555
H22_2 C38_2 1_555 1_555
C29_2 C30_2 1_555 1_555
C34_2 C35_2 1_555 1_555
C34_2 C38_2 1_555 1_555
O2_2 C8_2 1_555 1_555
N2_2 C6_2 1_555 1_555
H4_2 C5_2 1_555 1_555
C6_2 C4_2 1_555 1_555
H5_2 C6_2 1_555 1_555
H6_2 C6_2 1_555 1_555
C8_2 N2_2 1_555 1_555
C9_2 C8_2 1_555 1_555
C10_2 C9_2 1_555 1_555
C13_2 C9_2 1_555 1_555
H8_2 C13_2 1_555 1_555
O7_2 C32_2 1_555 1_555
N3_2 C26_2 1_555 1_555
C26_2 H15_2 1_555 1_555
C27_2 C26_2 1_555 1_555
H16_2 C27_2 1_555 1_555
C28_2 C27_2 1_555 1_555
H17_2 C28_2 1_555 1_555
C36_2 C32_2 1_555 1_555
C37_2 C13_2 1_555 1_555
H21_2 C37_2 1_555 1_555
Zn8 N3_2 1_555 1_555
O13 Zn8 1_555 1_555
C4_2 C5_2 1_555 1_555
C36_2 C37_2 1_555 1_555
O3_2 C14_2 1_555 1_555
C14_2 C15_2 1_555 1_555
C15_2 C16_2 1_555 1_555
C16_2 H9_2 1_555 1_555
C17_2 C16_2 1_555 1_555
H10_2 C17_2 1_555 1_555
C18_2 C17_2 1_555 1_555
C24_2 C18_2 1_555 1_555
H14_2 C24_2 1_555 1_555
O17 C25_2 1_555 1_555
H11_2 C20_2 1_555 1_555
C21_2 C19_2 1_555 1_555
H12_2 C21_2 1_555 1_555
C22_2 C21_2 1_555 1_555
H13_2 C22_2 1_555 1_555
C23_2 C22_2 1_555 1_555
C25_2 C23_2 1_555 1_555
C19_2 C20_2 1_555 1_555

#END
