
###############################################################################
#
# This file contains modified crystal structure data generated from the
# MOF subset of the Cambridge Structural Database (CSD) v543 
# hosted by the Cambridge Crystallographic Data Centre (CCDC).
#
# This work is licensed under the Creative Commons
# Attribution-NonCommercial-ShareAlike 4.0 International License.
# To view a copy of this license, visit
# http://creativecommons.org/licenses/by-nc-sa/4.0/
# or send a letter to
# Creative Commons, PO Box 1866, Mountain View, CA 94042, USA.
#
# CIF created using the CSD Python API on 29 September 2022
# The structure has been converted into the P1 space group
# The structure has a 3D framework
# The original CSD entry UCABAE is in the triclinic crystal system
# The framework has been calculated to contain at least 10.0% void space
# The void calculation uses a probe of radius 1.32A, grid spacing 0.4
# The framework is charged, counterions have been retained in the structure
#
###############################################################################

data_UCABAE
_chemical_formula_moiety         '(C70 H50 Cd4 N26 O10 2+)n'
_symmetry_cell_setting           triclinic
_symmetry_space_group_name_H-M   'P 1'
_symmetry_Int_Tables_number      1
_space_group_name_Hall           'P 1'
loop_
_symmetry_equiv_pos_site_id
_symmetry_equiv_pos_as_xyz
1 x,y,z
_cell_length_a                   12.1538(9)
_cell_length_b                   12.1574(10)
_cell_length_c                   16.1536(14)
_cell_angle_alpha                77.045(7)
_cell_angle_beta                 82.550(7)
_cell_angle_gamma                83.527(7)
_cell_volume                     2297.78
loop_
_atom_site_label
_atom_site_type_symbol
_atom_site_fract_x
_atom_site_fract_y
_atom_site_fract_z
Cd2 Cd -0.0000 0.0000 0.5000
N27 N 0.1279(3) 0.0191(3) 0.38070(19)
Cd2_2 Cd -0.0000 1.0000 0.5000
O1 O 0.0840(2) 0.6315(2) 0.54422(17)
O2 O 0.0105(2) 0.8088(2) 0.50396(17)
C26 C 0.0792(3) 0.7362(3) 0.5378(2)
H15 H 0.1343 0.7624 0.5615
Cd4 Cd 0.0000 0.5000 0.5000
N29 N 0.1545(3) 0.9782(3) 0.58103(19)
Cd2_3 Cd 1.0000 0.0000 0.5000
N7 N 0.2527(3) 0.4679(3) 0.27615(19)
C7 C 0.5498(3) 0.2160(3) 0.0016(2)
N8 N 0.1455(3) 0.4974(3) 0.38938(19)
C10 C 0.1580(3) 0.4433(3) 0.3258(2)
H2 H 0.1083 0.3953 0.3170
C11 C 0.3005(3) 0.4277(3) 0.2012(2)
C13 C 0.5981(3) 0.1808(3) 0.0845(2)
C14 C 0.8398(3) 0.0506(3) 0.3358(2)
H3 H 0.9009 0.0539 0.2944
N9 N 0.8455(3) 0.0218(3) 0.41897(19)
N10 N 0.7342(3) 0.0744(3) 0.31942(18)
C15 C 0.7569(3) 0.1518(3) 0.1658(2)
H5 H 0.8322 0.1570 0.1679
N11 N 0.6662(3) 0.0655(4) 0.3944(2)
C17 C 0.5325(3) 0.1362(3) 0.1595(2)
H7 H 0.4575 0.1297 0.1574
C18 C 0.6887(3) 0.1095(3) 0.2396(2)
C19 C 0.4586(3) 0.3984(3) 0.1015(2)
H8 H 0.5324 0.4094 0.0806
C21 C 0.2359(3) 0.3747(3) 0.1599(2)
H10 H 0.1608 0.3686 0.1787
C22 C 0.5766(3) 0.1015(3) 0.2364(2)
H11 H 0.5315 0.0729 0.2859
H13 H 0.6578 0.0158 0.0010
C25 C 0.2845(3) 0.3307(3) 0.0904(2)
H14 H 0.2410 0.2956 0.0623
C27 C 0.4115(3) 0.4415(3) 0.1714(2)
H16 H 0.4537 0.4794 0.1982
N12 N 0.3066(3) 0.5389(3) 0.3086(2)
C31 C 0.7109(3) 0.1858(3) 0.0894(2)
H20 H 0.7566 0.2129 0.0399
C33 C 0.2385(3) 0.5541(4) 0.3762(3)
H22 H 0.2530 0.5998 0.4119
C34 C 0.7370(3) 0.0343(4) 0.4514(3)
H23 H 0.7148 0.0216 0.5098
C35 C 0.3974(3) 0.3382(3) 0.0616(2)
N25 N 0.1121(3) 0.3791(3) 0.59777(19)
O6 O 0.9895(2) 0.1912(2) 0.49604(17)
C1 C 0.1353(4) 0.2653(4) 0.6134(3)
C2 C 0.1615(3) 0.4098(3) 0.6567(2)
N2 N 0.1944(4) 0.2236(3) 0.6773(2)
N3 N 0.2108(3) 0.3192(3) 0.7051(2)
C4 C 0.8395(3) 0.0583(3) 0.6657(2)
H1 H 0.8665 0.1292 0.6559
N6 N 0.7624(3) 0.0192(3) 0.72834(19)
C5 C 0.7127(3) 0.0704(3) 0.7971(2)
C6 C 0.6768(3) 0.1853(4) 0.7795(3)
C8 C 0.4521(3) 0.2808(3) 0.9922(2)
C9 C 0.6120(3) 0.1676(3) 0.9304(2)
C12 C 0.3899(3) 0.2935(3) 0.9166(2)
H4 H 0.162(3) 0.478(3) 0.660(2)
C16 C 0.2749(3) 0.4044(3) 0.8117(2)
H6 H 0.2390 0.4739 0.7882
C20 C 0.3325(3) 0.3931(3) 0.8813(2)
H9 H 0.3326 0.4557 0.9055
C23 C 0.3211(3) 0.2062(3) 0.8133(3)
H12 H 0.3155 0.1427 0.7914
C24 C 0.6591(3) 0.0576(3) 0.9451(2)
C28 C 0.3797(3) 0.1973(3) 0.8827(3)
H17 H 0.4131 0.1271 0.9077
C29 C 0.2711(3) 0.3102(3) 0.7769(2)
C30 C 0.6276(3) 0.2338(3) 0.8469(2)
H18 H 0.6047 0.3108 0.8368
H19 H 0.683(3) 0.234(3) 0.718(3)
C32 C 0.7086(3) 0.0075(3) 0.8788(2)
H25 H 0.112(4) 0.221(4) 0.581(3)
Cd2_4 Cd 1.0000 1.0000 0.5000
N26 N 0.8721(3) 0.9809(3) 0.61930(19)
Cd4_2 Cd 1.0000 0.5000 0.5000
C3 C 0.8101(3) 0.8935(3) 0.6575(3)
N5 N 0.7420(3) 0.9124(3) 0.7242(2)
H21 H 0.7384 0.9324 0.8897
H24 H 0.817(4) 0.831(4) 0.643(3)
C38 C 0.1899(3) 0.1065(3) 0.3425(3)
N17 N 0.2580(3) 0.0876(3) 0.2758(2)
H45 H 0.2616 0.0676 0.1103
H48 H 0.183(4) 0.169(4) 0.357(3)
N13 N 0.8879(3) 0.6209(3) 0.40223(19)
C36 C 0.8647(4) 0.7347(4) 0.3866(3)
C37 C 0.8385(3) 0.5902(3) 0.3433(2)
N14 N 0.8056(4) 0.7764(3) 0.3227(2)
N15 N 0.7892(3) 0.6808(3) 0.2949(2)
C39 C 0.1605(3) 0.9417(3) 0.3343(2)
H26 H 0.1335 0.8708 0.3441
N18 N 0.2376(3) 0.9808(3) 0.27166(19)
C40 C 0.2873(3) 0.9296(3) 0.2029(2)
C41 C 0.3232(3) 0.8147(4) 0.2205(3)
C43 C 0.5479(3) 0.7192(3) 0.0078(2)
C44 C 0.3880(3) 0.8324(3) 0.0696(2)
C47 C 0.6101(3) 0.7065(3) 0.0834(2)
H29 H 0.838(3) 0.522(3) 0.340(2)
C51 C 0.7251(3) 0.5956(3) 0.1883(2)
H31 H 0.7610 0.5261 0.2118
C55 C 0.6675(3) 0.6069(3) 0.1187(2)
H34 H 0.6674 0.5443 0.0945
C58 C 0.6789(3) 0.7938(3) 0.1867(3)
H37 H 0.6845 0.8573 0.2086
C59 C 0.3409(3) 0.9424(3) 0.0549(2)
C62 C 0.6203(3) 0.8027(3) 0.1173(3)
H41 H 0.5869 0.8729 0.0923
C63 C 0.7289(3) 0.6898(3) 0.2231(2)
C64 C 0.3724(3) 0.7662(3) 0.1531(2)
H42 H 0.3953 0.6892 0.1632
H43 H 0.317(3) 0.766(3) 0.282(3)
C66 C 0.2914(3) 0.9925(3) 0.1212(2)
H49 H 0.888(4) 0.779(4) 0.419(3)
O3 O 0.9160(2) 0.3685(2) 0.45578(17)
C70 C 0.9208(3) 0.2638(3) 0.4622(2)
H50 H 0.8657 0.2376 0.4385
N28 N 0.8545(3) 0.5026(3) 0.61062(19)
N19 N 0.7473(3) 0.5321(3) 0.72385(19)
C42 C 0.4502(3) 0.7840(3) 0.9984(2)
C45 C 0.8420(3) 0.5567(3) 0.6742(2)
H27 H 0.8917 0.6047 0.6830
C46 C 0.6995(3) 0.5723(3) 0.7988(2)
C48 C 0.4019(3) 0.8192(3) 0.9155(2)
C49 C 0.1602(3) 0.9494(3) 0.6642(2)
H28 H 0.0991 0.9461 0.7056
N22 N 0.2658(3) 0.9256(3) 0.68058(18)
C50 C 0.2431(3) 0.8482(3) 0.8342(2)
H30 H 0.1678 0.8430 0.8321
N23 N 0.3338(3) 0.9345(4) 0.6056(2)
C52 C 0.4675(3) 0.8638(3) 0.8405(2)
H32 H 0.5425 0.8703 0.8426
C53 C 0.3113(3) 0.8905(3) 0.7604(2)
C54 C 0.5414(3) 0.6016(3) 0.8985(2)
H33 H 0.4676 0.5906 0.9194
C56 C 0.7641(3) 0.6253(3) 0.8401(2)
H35 H 0.8392 0.6314 0.8213
C57 C 0.4234(3) 0.8985(3) 0.7636(2)
H36 H 0.4685 0.9271 0.7141
H38 H 0.3422 0.9842 0.9990
C60 C 0.7155(3) 0.6693(3) 0.9096(2)
H39 H 0.7590 0.7044 0.9377
C61 C 0.5885(3) 0.5585(3) 0.8286(2)
H40 H 0.5463 0.5206 0.8018
N24 N 0.6934(3) 0.4611(3) 0.6914(2)
C65 C 0.2891(3) 0.8142(3) 0.9106(2)
H44 H 0.2434 0.7871 0.9601
C67 C 0.7615(3) 0.4459(4) 0.6238(3)
H46 H 0.7470 0.4002 0.5881
C68 C 0.2630(3) 0.9657(4) 0.5486(3)
H47 H 0.2852 0.9784 0.4902
C69 C 0.6026(3) 0.6618(3) 0.9384(2)
O7 O 0.0011(3) 0.2670(3) 0.2786(2)
O8 O 0.9587(2) 0.4381(3) 0.2136(2)
O9 O 0.8278(2) 0.3292(3) 0.2697(2)
N30 N 0.9281(3) 0.3449(3) 0.2519(2)
O8_2 O 0.0413(2) 0.5619(3) 0.7864(2)
O9_2 O 0.1722(2) 0.6708(3) 0.7303(2)
N30_2 N 0.0719(3) 0.6551(3) 0.7481(2)
O7_2 O 0.9989(3) 0.7330(3) 0.7214(2)
loop_
_geom_bond_atom_site_label_1
_geom_bond_atom_site_label_2
_geom_bond_site_symmetry_1
_geom_bond_site_symmetry_2
N27 Cd2 1_555 1_555
O1 C26 1_555 1_555
O2 Cd2_2 1_555 1_555
C26 O2 1_555 1_555
H15 C26 1_555 1_555
Cd4 O1 1_555 1_555
N29 Cd2_2 1_555 1_555
Cd4 N8 1_555 1_555
Cd2_3 N9 1_555 1_555
N7 C10 1_555 1_555
N8 C10 1_555 1_555
C10 H2 1_555 1_555
C11 N7 1_555 1_555
C13 C7 1_555 1_555
C14 H3 1_555 1_555
N9 C14 1_555 1_555
N10 C14 1_555 1_555
C15 H5 1_555 1_555
N11 N10 1_555 1_555
C17 C13 1_555 1_555
H7 C17 1_555 1_555
C18 N10 1_555 1_555
C19 H8 1_555 1_555
C21 C11 1_555 1_555
H10 C21 1_555 1_555
C22 C17 1_555 1_555
H11 C22 1_555 1_555
C25 C21 1_555 1_555
H14 C25 1_555 1_555
C27 C11 1_555 1_555
H16 C27 1_555 1_555
N12 N7 1_555 1_555
C31 C13 1_555 1_555
H20 C31 1_555 1_555
C33 N8 1_555 1_555
H22 C33 1_555 1_555
C34 N9 1_555 1_555
H23 C34 1_555 1_555
N25 Cd4 1_555 1_555
O6 Cd2_3 1_555 1_555
C15 C18 1_555 1_555
C15 C31 1_555 1_555
N11 C34 1_555 1_555
C18 C22 1_555 1_555
C19 C27 1_555 1_555
C19 C35 1_555 1_555
C25 C35 1_555 1_555
N12 C33 1_555 1_555
N25 C1 1_555 1_555
C1 N2 1_555 1_555
C2 N25 1_555 1_555
N2 N3 1_555 1_555
N3 C2 1_555 1_555
H1 C4 1_555 1_555
N6 C4 1_555 1_555
C5 N6 1_555 1_555
C6 C5 1_555 1_555
C8 C12 1_555 1_555
C12 C20 1_555 1_555
H4 C2 1_555 1_555
C16 H6 1_555 1_555
C20 C16 1_555 1_555
H9 C20 1_555 1_555
C23 H12 1_555 1_555
C24 C9 1_555 1_555
C28 C12 1_555 1_555
H17 C28 1_555 1_555
C29 N3 1_555 1_555
C30 C6 1_555 1_555
H18 C30 1_555 1_555
H19 C6 1_555 1_555
C32 C5 1_555 1_555
H25 C1 1_555 1_555
C9 C30 1_555 1_555
C16 C29 1_555 1_555
C23 C28 1_555 1_555
C23 C29 1_555 1_555
C24 C32 1_555 1_555
N26 Cd2_4 1_555 1_555
N26 C3 1_555 1_555
C3 N5 1_555 1_555
H24 C3 1_555 1_555
N27 C38 1_555 1_555
C38 N17 1_555 1_555
H48 C38 1_555 1_555
N13 Cd4_2 1_555 1_555
C36 N13 1_555 1_555
C37 N13 1_555 1_555
N14 C36 1_555 1_555
N15 C37 1_555 1_555
H26 C39 1_555 1_555
N18 C39 1_555 1_555
C40 N18 1_555 1_555
C41 C40 1_555 1_555
C43 C47 1_555 1_555
C47 C55 1_555 1_555
H29 C37 1_555 1_555
C51 H31 1_555 1_555
C55 C51 1_555 1_555
H34 C55 1_555 1_555
C58 H37 1_555 1_555
C59 C44 1_555 1_555
C62 C47 1_555 1_555
H41 C62 1_555 1_555
C63 N15 1_555 1_555
C64 C41 1_555 1_555
H42 C64 1_555 1_555
H43 C41 1_555 1_555
C66 C40 1_555 1_555
H49 C36 1_555 1_555
O3 Cd4_2 1_555 1_555
O6 C70 1_555 1_555
C70 O3 1_555 1_555
H50 C70 1_555 1_555
N28 Cd4_2 1_555 1_555
N14 N15 1_555 1_555
C44 C64 1_555 1_555
C51 C63 1_555 1_555
C58 C62 1_555 1_555
C58 C63 1_555 1_555
C59 C66 1_555 1_555
N19 C45 1_555 1_555
N28 C45 1_555 1_555
C45 H27 1_555 1_555
C46 N19 1_555 1_555
C48 C42 1_555 1_555
C49 H28 1_555 1_555
N29 C49 1_555 1_555
N22 C49 1_555 1_555
C50 H30 1_555 1_555
N23 N22 1_555 1_555
C52 C48 1_555 1_555
H32 C52 1_555 1_555
C53 N22 1_555 1_555
C54 H33 1_555 1_555
C56 C46 1_555 1_555
H35 C56 1_555 1_555
C57 C52 1_555 1_555
H36 C57 1_555 1_555
C60 C56 1_555 1_555
H39 C60 1_555 1_555
C61 C46 1_555 1_555
H40 C61 1_555 1_555
N24 N19 1_555 1_555
C65 C48 1_555 1_555
H44 C65 1_555 1_555
C67 N28 1_555 1_555
H46 C67 1_555 1_555
C68 N29 1_555 1_555
H47 C68 1_555 1_555
C50 C53 1_555 1_555
C50 C65 1_555 1_555
N23 C68 1_555 1_555
C53 C57 1_555 1_555
C54 C61 1_555 1_555
C54 C69 1_555 1_555
C60 C69 1_555 1_555
N24 C67 1_555 1_555
O8 N30 1_555 1_555
O9 N30 1_555 1_555
O8_2 N30_2 1_555 1_555
O9_2 N30_2 1_555 1_555

#END
