
###############################################################################
#
# This file contains modified crystal structure data generated from the
# MOF subset of the Cambridge Structural Database (CSD) v543 
# hosted by the Cambridge Crystallographic Data Centre (CCDC).
#
# This work is licensed under the Creative Commons
# Attribution-NonCommercial-ShareAlike 4.0 International License.
# To view a copy of this license, visit
# http://creativecommons.org/licenses/by-nc-sa/4.0/
# or send a letter to
# Creative Commons, PO Box 1866, Mountain View, CA 94042, USA.
#
# CIF created using the CSD Python API on 29 September 2022
# The structure has been converted into the P1 space group
# The structure has a 3D framework
# The original CSD entry UDEGIW is in the orthorhombic crystal system
# The framework has been calculated to contain at least 10.0% void space
# The void calculation uses a probe of radius 1.32A, grid spacing 0.4
#
###############################################################################

data_UDEGIW
_chemical_formula_moiety         '(C136 H72 Cu4 N8 O28)n'
_symmetry_cell_setting           triclinic
_symmetry_space_group_name_H-M   'P 1'
_symmetry_Int_Tables_number      1
_space_group_name_Hall           'P 1'
loop_
_symmetry_equiv_pos_site_id
_symmetry_equiv_pos_as_xyz
1 x,y,z
_cell_length_a                   14.3026(10)
_cell_length_b                   12.0421(8)
_cell_length_c                   21.6987(15)
_cell_angle_alpha                90
_cell_angle_beta                 90
_cell_angle_gamma                90
_cell_volume                     3737.24
loop_
_atom_site_label
_atom_site_type_symbol
_atom_site_fract_x
_atom_site_fract_y
_atom_site_fract_z
O7 O 0.06898(11) 0.08100(14) 0.07824(7)
O5 O 0.00612(10) 0.87079(12) 0.07951(7)
Cu4 Cu 0.050202(16) 0.98858(2) 0.947691(11)
Cu1 Cu 0.949798(16) 0.01142(2) 0.052309(11)
N2 N 0.88691(13) 0.05113(15) 0.14161(8)
O6 O 0.90939(11) 0.14588(13) 0.00715(7)
O2 O 0.59061(11) 0.64588(13) 0.00715(7)
O4 O 0.84907(10) 0.93060(13) 0.00997(7)
Cu5 Cu 0.550202(16) 0.51142(2) 0.052309(11)
N1 N 0.61309(13) 0.94887(15) 0.64161(8)
O1 O 0.50612(10) 0.62921(12) 0.92049(7)
O3 O 0.93102(11) 0.91900(14) 0.92176(7)
C1 C 0.55677(16) 0.9693(2) 0.68892(11)
C2 C 0.57664(16) 0.9381(2) 0.75002(10)
H2 H 0.5336 0.9552 0.7820
C3 C 0.65813(16) 0.88306(19) 0.76336(10)
C4 C 0.71863(16) 0.85547(18) 0.71405(10)
C5 C 0.69367(16) 0.89050(18) 0.65340(10)
C6 C 0.75302(17) 0.8645(2) 0.60332(11)
H3 H 0.7385 0.8909 0.5632
C7 C 0.83130(18) 0.8013(2) 0.61245(12)
H4 H 0.8705 0.7835 0.5785
C8 C 0.85405(18) 0.7626(2) 0.67150(12)
H5 H 0.9074 0.7168 0.6770
C9 C 0.80014(17) 0.7902(2) 0.72134(11)
H6 H 0.8176 0.7653 0.7612
C10 C 0.67917(16) 0.85163(19) 0.82842(10)
C11 C 0.61721(16) 0.78247(19) 0.85979(10)
H7 H 0.5637 0.7542 0.8391
C12 C 0.63296(15) 0.75438(19) 0.92126(10)
C13 C 0.71067(16) 0.79741(18) 0.95186(10)
H8 H 0.7205 0.7809 0.9942
C14 C 0.77353(15) 0.86414(19) 0.92053(10)
C15 C 0.75885(16) 0.89060(19) 0.85857(10)
H9 H 0.8030 0.9350 0.8370
C16 C 0.57050(15) 0.67077(17) 0.95263(10)
C17 C 0.85832(15) 0.90759(18) 0.95366(10)
Cu2 Cu 0.550202(16) 0.98858(2) 0.552309(11)
Cu3 Cu 0.449798(16) 0.48858(2) 0.947691(11)
Cu3_2 Cu 0.050202(16) 0.51142(2) 0.447691(11)
O1_2 O 0.99388(10) 0.37079(12) 0.42049(7)
O2_2 O 0.90939(11) 0.35412(13) 0.50715(7)
O3_2 O 0.56898(11) 0.08100(14) 0.42176(7)
O4_2 O 0.65093(10) 0.06940(13) 0.50997(7)
C1_2 C 0.94323(16) 0.0307(2) 0.18892(11)
C2_2 C 0.92336(16) 0.0619(2) 0.25002(10)
H2_2 H 0.9664 0.0448 0.2820
C3_2 C 0.84187(16) 0.11694(19) 0.26336(10)
C4_2 C 0.78137(16) 0.14453(18) 0.21405(10)
C5_2 C 0.80633(16) 0.10950(18) 0.15340(10)
C6_2 C 0.74698(17) 0.1355(2) 0.10332(11)
H3_2 H 0.7615 0.1091 0.0632
C7_2 C 0.66870(18) 0.1987(2) 0.11245(12)
H4_2 H 0.6295 0.2165 0.0785
C8_2 C 0.64595(18) 0.2374(2) 0.17150(12)
H5_2 H 0.5926 0.2832 0.1770
C9_2 C 0.69986(17) 0.2098(2) 0.22134(11)
H6_2 H 0.6824 0.2347 0.2612
C10_2 C 0.82083(16) 0.14837(19) 0.32842(10)
C11_2 C 0.88279(16) 0.21753(19) 0.35979(10)
H7_2 H 0.9363 0.2458 0.3391
C12_2 C 0.86704(15) 0.24562(19) 0.42126(10)
C13_2 C 0.78933(16) 0.20259(18) 0.45186(10)
H8_2 H 0.7795 0.2191 0.4942
C14_2 C 0.72647(15) 0.13586(19) 0.42053(10)
C15_2 C 0.74115(16) 0.10940(19) 0.35857(10)
H9_2 H 0.6970 0.0650 0.3370
C16_2 C 0.92950(15) 0.32923(17) 0.45263(10)
C17_2 C 0.64168(15) 0.09241(18) 0.45366(10)
Cu4_2 Cu 0.449798(16) 0.01142(2) 0.447691(11)
Cu5_2 Cu 0.949798(16) 0.48858(2) 0.552309(11)
O5_2 O 0.49388(10) 0.12921(12) 0.57951(7)
O6_2 O 0.59061(11) 0.85412(13) 0.50715(7)
O7_2 O 0.43102(11) 0.91900(14) 0.57824(7)
N1_2 N 0.38691(13) 0.44887(15) 0.85839(8)
O2_3 O 0.40939(11) 0.14588(13) 0.49285(7)
O3_3 O 0.06898(11) 0.41900(14) 0.57824(7)
O4_3 O 0.15093(10) 0.43060(13) 0.49003(7)
C1_3 C 0.44323(16) 0.4693(2) 0.81108(11)
H1 H 0.5003 0.5072 0.8190
C2_3 C 0.42336(16) 0.4381(2) 0.74998(10)
H2_3 H 0.4664 0.4552 0.7180
C3_3 C 0.34187(16) 0.38306(19) 0.73664(10)
C4_3 C 0.28137(16) 0.35547(18) 0.78595(10)
C5_3 C 0.30633(16) 0.39050(18) 0.84660(10)
C6_3 C 0.24698(17) 0.3645(2) 0.89668(11)
H3_3 H 0.2615 0.3909 0.9368
C7_3 C 0.16870(18) 0.3013(2) 0.88755(12)
H4_3 H 0.1295 0.2835 0.9215
C8_3 C 0.14595(18) 0.2626(2) 0.82850(12)
H5_3 H 0.0926 0.2168 0.8230
C9_3 C 0.19986(17) 0.2902(2) 0.77866(11)
H6_3 H 0.1824 0.2653 0.7388
C10_3 C 0.32083(16) 0.35163(19) 0.67158(10)
C11_3 C 0.38279(16) 0.28247(19) 0.64021(10)
H7_3 H 0.4363 0.2542 0.6609
C12_3 C 0.36704(15) 0.25438(19) 0.57874(10)
C13_3 C 0.28933(16) 0.29741(18) 0.54814(10)
H8_3 H 0.2795 0.2809 0.5058
C14_3 C 0.22647(15) 0.36414(19) 0.57947(10)
C15_3 C 0.24115(16) 0.39060(19) 0.64143(10)
H9_3 H 0.1970 0.4350 0.6630
C16_3 C 0.42950(15) 0.17077(17) 0.54737(10)
C17_3 C 0.14168(15) 0.40759(18) 0.54634(10)
N2_2 N 0.11309(13) 0.55113(15) 0.35839(8)
O6_3 O 0.09061(11) 0.64588(13) 0.49285(7)
O7_3 O 0.93102(11) 0.58100(14) 0.42176(7)
O3_4 O 0.43102(11) 0.58100(14) 0.07824(7)
C1_4 C 0.05677(16) 0.5307(2) 0.31108(11)
C2_4 C 0.07664(16) 0.5619(2) 0.24998(10)
H2_4 H 0.0336 0.5448 0.2180
C3_4 C 0.15813(16) 0.61694(19) 0.23664(10)
C4_4 C 0.21863(16) 0.64453(18) 0.28595(10)
C5_4 C 0.19367(16) 0.60950(18) 0.34660(10)
C6_4 C 0.25302(17) 0.6355(2) 0.39668(11)
H3_4 H 0.2385 0.6091 0.4368
C7_4 C 0.33130(18) 0.6987(2) 0.38755(12)
H4_4 H 0.3705 0.7165 0.4215
C8_4 C 0.35405(18) 0.7374(2) 0.32850(12)
H5_4 H 0.4074 0.7832 0.3230
C9_4 C 0.30014(17) 0.7098(2) 0.27866(11)
H6_4 H 0.3176 0.7347 0.2388
C10_4 C 0.17917(16) 0.64837(19) 0.17158(10)
C11_4 C 0.11721(16) 0.71753(19) 0.14021(10)
H7_4 H 0.0637 0.7458 0.1609
C12_4 C 0.13296(15) 0.74562(19) 0.07874(10)
C13_4 C 0.21067(16) 0.70259(18) 0.04814(10)
H8_4 H 0.2205 0.7191 0.0058
C14_4 C 0.27353(15) 0.63586(19) 0.07947(10)
C15_4 C 0.25885(16) 0.60940(19) 0.14143(10)
H9_4 H 0.3030 0.5650 0.1630
C16_4 C 0.07050(15) 0.82923(17) 0.04737(10)
C17_4 C 0.35832(15) 0.59241(18) 0.04634(10)
O2_4 O 0.09061(11) 0.85412(13) 0.99285(7)
O4_4 O 0.34907(10) 0.56940(13) 0.99003(7)
O6_4 O 0.40939(11) 0.35412(13) 0.99285(7)
O7_4 O 0.56898(11) 0.41900(14) 0.92176(7)
N1_3 N 0.38691(13) 0.05113(15) 0.35839(8)
O1_3 O 0.49388(10) 0.37079(12) 0.07951(7)
C1_5 C 0.44323(16) 0.0307(2) 0.31108(11)
C2_5 C 0.42336(16) 0.0619(2) 0.24998(10)
H2_5 H 0.4664 0.0448 0.2180
C3_5 C 0.34187(16) 0.11694(19) 0.23664(10)
C4_5 C 0.28137(16) 0.14453(18) 0.28595(10)
C5_5 C 0.30633(16) 0.10950(18) 0.34660(10)
C6_5 C 0.24698(17) 0.1355(2) 0.39668(11)
H3_5 H 0.2615 0.1091 0.4368
C7_5 C 0.16870(18) 0.1987(2) 0.38755(12)
H4_5 H 0.1295 0.2165 0.4215
C8_5 C 0.14595(18) 0.2374(2) 0.32850(12)
H5_5 H 0.0926 0.2832 0.3230
C9_5 C 0.19986(17) 0.2098(2) 0.27866(11)
H6_5 H 0.1824 0.2347 0.2388
C10_5 C 0.32083(16) 0.14837(19) 0.17158(10)
C11_5 C 0.38279(16) 0.21753(19) 0.14021(10)
H7_5 H 0.4363 0.2458 0.1609
C12_5 C 0.36704(15) 0.24562(19) 0.07874(10)
C13_5 C 0.28933(16) 0.20259(18) 0.04814(10)
H8_5 H 0.2795 0.2191 0.0058
C14_5 C 0.22647(15) 0.13586(19) 0.07947(10)
C15_5 C 0.24115(16) 0.10940(19) 0.14143(10)
H9_5 H 0.1970 0.0650 0.1630
C16_5 C 0.42950(15) 0.32923(17) 0.04737(10)
C17_5 C 0.14168(15) 0.09241(18) 0.04634(10)
O4_5 O 0.15093(10) 0.06940(13) 0.99003(7)
N2_3 N 0.11309(13) 0.94887(15) 0.85839(8)
O5_3 O 0.99388(10) 0.12921(12) 0.92049(7)
O1_4 O 0.00612(10) 0.62921(12) 0.57951(7)
O4_6 O 0.34907(10) 0.93060(13) 0.49003(7)
C1_6 C 0.05677(16) 0.9693(2) 0.81108(11)
C2_6 C 0.07664(16) 0.9381(2) 0.74998(10)
H2_6 H 0.0336 0.9552 0.7180
C3_6 C 0.15813(16) 0.88306(19) 0.73664(10)
C4_6 C 0.21863(16) 0.85547(18) 0.78595(10)
C5_6 C 0.19367(16) 0.89050(18) 0.84660(10)
C6_6 C 0.25302(17) 0.8645(2) 0.89668(11)
H3_6 H 0.2385 0.8909 0.9368
C7_6 C 0.33130(18) 0.8013(2) 0.88755(12)
H4_6 H 0.3705 0.7835 0.9215
C8_6 C 0.35405(18) 0.7626(2) 0.82850(12)
H5_6 H 0.4074 0.7168 0.8230
C9_6 C 0.30014(17) 0.7902(2) 0.77866(11)
H6_6 H 0.3176 0.7653 0.7388
C10_6 C 0.17917(16) 0.85163(19) 0.67158(10)
C11_6 C 0.11721(16) 0.78247(19) 0.64021(10)
H7_6 H 0.0637 0.7542 0.6609
C12_6 C 0.13296(15) 0.75438(19) 0.57874(10)
C13_6 C 0.21067(16) 0.79741(18) 0.54814(10)
H8_6 H 0.2205 0.7809 0.5058
C14_6 C 0.27353(15) 0.86414(19) 0.57947(10)
C15_6 C 0.25885(16) 0.89060(19) 0.64143(10)
H9_6 H 0.3030 0.9350 0.6630
C16_6 C 0.07050(15) 0.67077(17) 0.54737(10)
C17_6 C 0.35832(15) 0.90759(18) 0.54634(10)
O5_4 O 0.50612(10) 0.87079(12) 0.42049(7)
N1_4 N 0.61309(13) 0.55113(15) 0.14161(8)
O4_7 O 0.84907(10) 0.56940(13) 0.50997(7)
C1_7 C 0.55677(16) 0.5307(2) 0.18892(11)
H1_2 H 0.4997 0.4928 0.1810
C2_7 C 0.57664(16) 0.5619(2) 0.25002(10)
H2_7 H 0.5336 0.5448 0.2820
C3_7 C 0.65813(16) 0.61694(19) 0.26336(10)
C4_7 C 0.71863(16) 0.64453(18) 0.21405(10)
C5_7 C 0.69367(16) 0.60950(18) 0.15340(10)
C6_7 C 0.75302(17) 0.6355(2) 0.10332(11)
H3_7 H 0.7385 0.6091 0.0632
C7_7 C 0.83130(18) 0.6987(2) 0.11245(12)
H4_7 H 0.8705 0.7165 0.0785
C8_7 C 0.85405(18) 0.7374(2) 0.17150(12)
H5_7 H 0.9074 0.7832 0.1770
C9_7 C 0.80014(17) 0.7098(2) 0.22134(11)
H6_7 H 0.8176 0.7347 0.2612
C10_7 C 0.67917(16) 0.64837(19) 0.32842(10)
C11_7 C 0.61721(16) 0.71753(19) 0.35979(10)
H7_7 H 0.5637 0.7458 0.3391
C12_7 C 0.63296(15) 0.74562(19) 0.42126(10)
C13_7 C 0.71067(16) 0.70259(18) 0.45186(10)
H8_7 H 0.7205 0.7191 0.4942
C14_7 C 0.77353(15) 0.63586(19) 0.42053(10)
C15_7 C 0.75885(16) 0.60940(19) 0.35857(10)
H9_7 H 0.8030 0.5650 0.3370
C16_7 C 0.57050(15) 0.82923(17) 0.45263(10)
C17_7 C 0.85832(15) 0.59241(18) 0.45366(10)
N2_4 N 0.88691(13) 0.44887(15) 0.64161(8)
O4_8 O 0.65093(10) 0.43060(13) 0.00997(7)
C1_8 C 0.94323(16) 0.4693(2) 0.68892(11)
C2_8 C 0.92336(16) 0.4381(2) 0.75002(10)
H2_8 H 0.9664 0.4552 0.7820
C3_8 C 0.84187(16) 0.38306(19) 0.76336(10)
C4_8 C 0.78137(16) 0.35547(18) 0.71405(10)
C5_8 C 0.80633(16) 0.39050(18) 0.65340(10)
C6_8 C 0.74698(17) 0.3645(2) 0.60332(11)
H3_8 H 0.7615 0.3909 0.5632
C7_8 C 0.66870(18) 0.3013(2) 0.61245(12)
H4_8 H 0.6295 0.2835 0.5785
C8_8 C 0.64595(18) 0.2626(2) 0.67150(12)
H5_8 H 0.5926 0.2168 0.6770
C9_8 C 0.69986(17) 0.2902(2) 0.72134(11)
H6_8 H 0.6824 0.2653 0.7612
C10_8 C 0.82083(16) 0.35163(19) 0.82842(10)
C11_8 C 0.88279(16) 0.28247(19) 0.85979(10)
H7_8 H 0.9363 0.2542 0.8391
C12_8 C 0.86704(15) 0.25438(19) 0.92126(10)
C13_8 C 0.78933(16) 0.29741(18) 0.95186(10)
H8_8 H 0.7795 0.2809 0.9942
C14_8 C 0.72647(15) 0.36414(19) 0.92053(10)
C15_8 C 0.74115(16) 0.39060(19) 0.85857(10)
H9_8 H 0.6970 0.4350 0.8370
C16_8 C 0.92950(15) 0.17077(17) 0.95263(10)
C17_8 C 0.64168(15) 0.40759(18) 0.95366(10)
H1_3 H 0.4997 0.0072 0.6810
H1_4 H 0.0003 0.9928 0.1810
H1_5 H 0.9997 0.4928 0.3190
H1_6 H 0.5003 0.9928 0.3190
H1_7 H 0.9997 0.0072 0.8190
H1_8 H 0.0003 0.5072 0.6810
loop_
_geom_bond_atom_site_label_1
_geom_bond_atom_site_label_2
_geom_bond_site_symmetry_1
_geom_bond_site_symmetry_2
N2 Cu1 1_555 1_555
O6 Cu1 1_555 1_555
Cu5 O2 1_555 1_555
N1 C1 1_555 1_555
O1 C16 1_555 1_555
O3 C17 1_555 1_555
C2 C1 1_555 1_555
H2 C2 1_555 1_555
C3 C2 1_555 1_555
C4 C3 1_555 1_555
C5 N1 1_555 1_555
C6 C5 1_555 1_555
H3 C6 1_555 1_555
C7 C6 1_555 1_555
H4 C7 1_555 1_555
C8 C7 1_555 1_555
H5 C8 1_555 1_555
C9 C4 1_555 1_555
H6 C9 1_555 1_555
C10 C3 1_555 1_555
C11 C10 1_555 1_555
H7 C11 1_555 1_555
C12 C11 1_555 1_555
C13 C12 1_555 1_555
H8 C13 1_555 1_555
C14 C13 1_555 1_555
C15 C10 1_555 1_555
H9 C15 1_555 1_555
C16 C12 1_555 1_555
C17 C14 1_555 1_555
Cu2 N1 1_555 1_555
Cu3 O1 1_555 1_555
C4 C5 1_555 1_555
C8 C9 1_555 1_555
C14 C15 1_555 1_555
N2 C1_2 1_555 1_555
O1_2 C16_2 1_555 1_555
O2_2 C16_2 1_555 1_555
O3_2 C17_2 1_555 1_555
O4_2 C17_2 1_555 1_555
C2_2 C1_2 1_555 1_555
H2_2 C2_2 1_555 1_555
C3_2 C2_2 1_555 1_555
C4_2 C3_2 1_555 1_555
C5_2 N2 1_555 1_555
C6_2 C5_2 1_555 1_555
H3_2 C6_2 1_555 1_555
C7_2 C6_2 1_555 1_555
H4_2 C7_2 1_555 1_555
C8_2 C7_2 1_555 1_555
H5_2 C8_2 1_555 1_555
C9_2 C4_2 1_555 1_555
H6_2 C9_2 1_555 1_555
C10_2 C3_2 1_555 1_555
C11_2 C10_2 1_555 1_555
H7_2 C11_2 1_555 1_555
C12_2 C11_2 1_555 1_555
C13_2 C12_2 1_555 1_555
H8_2 C13_2 1_555 1_555
C14_2 C13_2 1_555 1_555
C15_2 C10_2 1_555 1_555
H9_2 C15_2 1_555 1_555
C16_2 C12_2 1_555 1_555
C17_2 C14_2 1_555 1_555
Cu5_2 O2_2 1_555 1_555
O3_2 Cu4_2 1_555 1_555
C4_2 C5_2 1_555 1_555
C8_2 C9_2 1_555 1_555
C14_2 C15_2 1_555 1_555
O6_2 Cu2 1_555 1_555
O7_2 Cu2 1_555 1_555
N1_2 C1_3 1_555 1_555
Cu3_2 O4_3 1_555 1_555
O5_2 C16_3 1_555 1_555
O2_3 C16_3 1_555 1_555
O3_3 C17_3 1_555 1_555
O4_3 C17_3 1_555 1_555
C1_3 H1 1_555 1_555
C2_3 C1_3 1_555 1_555
H2_3 C2_3 1_555 1_555
C3_3 C2_3 1_555 1_555
C4_3 C3_3 1_555 1_555
C5_3 N1_2 1_555 1_555
C6_3 C5_3 1_555 1_555
H3_3 C6_3 1_555 1_555
C7_3 C6_3 1_555 1_555
H4_3 C7_3 1_555 1_555
C8_3 C7_3 1_555 1_555
H5_3 C8_3 1_555 1_555
C9_3 C4_3 1_555 1_555
H6_3 C9_3 1_555 1_555
C10_3 C3_3 1_555 1_555
C11_3 C10_3 1_555 1_555
H7_3 C11_3 1_555 1_555
C12_3 C11_3 1_555 1_555
C13_3 C12_3 1_555 1_555
H8_3 C13_3 1_555 1_555
C14_3 C13_3 1_555 1_555
C15_3 C10_3 1_555 1_555
H9_3 C15_3 1_555 1_555
C16_3 C12_3 1_555 1_555
C17_3 C14_3 1_555 1_555
N2_2 Cu3_2 1_555 1_555
Cu3 N1_2 1_555 1_555
Cu4_2 O2_3 1_555 1_555
O6_3 Cu3_2 1_555 1_555
C4_3 C5_3 1_555 1_555
C8_3 C9_3 1_555 1_555
C14_3 C15_3 1_555 1_555
N2_2 C1_4 1_555 1_555
O5 C16_4 1_555 1_555
O3_4 C17_4 1_555 1_555
C2_4 C1_4 1_555 1_555
H2_4 C2_4 1_555 1_555
C3_4 C2_4 1_555 1_555
C4_4 C3_4 1_555 1_555
C5_4 N2_2 1_555 1_555
C6_4 C5_4 1_555 1_555
H3_4 C6_4 1_555 1_555
C7_4 C6_4 1_555 1_555
H4_4 C7_4 1_555 1_555
C8_4 C7_4 1_555 1_555
H5_4 C8_4 1_555 1_555
C9_4 C4_4 1_555 1_555
H6_4 C9_4 1_555 1_555
C10_4 C3_4 1_555 1_555
C11_4 C10_4 1_555 1_555
H7_4 C11_4 1_555 1_555
C12_4 C11_4 1_555 1_555
C13_4 C12_4 1_555 1_555
H8_4 C13_4 1_555 1_555
C14_4 C13_4 1_555 1_555
C15_4 C10_4 1_555 1_555
H9_4 C15_4 1_555 1_555
C16_4 C12_4 1_555 1_555
C17_4 C14_4 1_555 1_555
O3_4 Cu5 1_555 1_555
C4_4 C5_4 1_555 1_555
C8_4 C9_4 1_555 1_555
C14_4 C15_4 1_555 1_555
Cu3 O4_4 1_555 1_555
Cu4 O2_4 1_555 1_555
O6_4 Cu3 1_555 1_555
O7_4 Cu3 1_555 1_555
N1_3 C1_5 1_555 1_555
O1_3 C16_5 1_555 1_555
O7 C17_5 1_555 1_555
C2_5 C1_5 1_555 1_555
H2_5 C2_5 1_555 1_555
C3_5 C2_5 1_555 1_555
C4_5 C3_5 1_555 1_555
C5_5 N1_3 1_555 1_555
C6_5 C5_5 1_555 1_555
H3_5 C6_5 1_555 1_555
C7_5 C6_5 1_555 1_555
H4_5 C7_5 1_555 1_555
C8_5 C7_5 1_555 1_555
H5_5 C8_5 1_555 1_555
C9_5 C4_5 1_555 1_555
H6_5 C9_5 1_555 1_555
C10_5 C3_5 1_555 1_555
C11_5 C10_5 1_555 1_555
H7_5 C11_5 1_555 1_555
C12_5 C11_5 1_555 1_555
C13_5 C12_5 1_555 1_555
H8_5 C13_5 1_555 1_555
C14_5 C13_5 1_555 1_555
C15_5 C10_5 1_555 1_555
H9_5 C15_5 1_555 1_555
C16_5 C12_5 1_555 1_555
C17_5 C14_5 1_555 1_555
Cu4_2 N1_3 1_555 1_555
Cu5 O1_3 1_555 1_555
C4_5 C5_5 1_555 1_555
C8_5 C9_5 1_555 1_555
C14_5 C15_5 1_555 1_555
N2_3 Cu4 1_555 1_555
N2_3 C1_6 1_555 1_555
O1_4 C16_6 1_555 1_555
O6_3 C16_6 1_555 1_555
O7_2 C17_6 1_555 1_555
O4_6 C17_6 1_555 1_555
C2_6 C1_6 1_555 1_555
H2_6 C2_6 1_555 1_555
C3_6 C2_6 1_555 1_555
C4_6 C3_6 1_555 1_555
C5_6 N2_3 1_555 1_555
C6_6 C5_6 1_555 1_555
H3_6 C6_6 1_555 1_555
C7_6 C6_6 1_555 1_555
H4_6 C7_6 1_555 1_555
C8_6 C7_6 1_555 1_555
H5_6 C8_6 1_555 1_555
C9_6 C4_6 1_555 1_555
H6_6 C9_6 1_555 1_555
C10_6 C3_6 1_555 1_555
C11_6 C10_6 1_555 1_555
H7_6 C11_6 1_555 1_555
C12_6 C11_6 1_555 1_555
C13_6 C12_6 1_555 1_555
H8_6 C13_6 1_555 1_555
C14_6 C13_6 1_555 1_555
C15_6 C10_6 1_555 1_555
H9_6 C15_6 1_555 1_555
C16_6 C12_6 1_555 1_555
C17_6 C14_6 1_555 1_555
C4_6 C5_6 1_555 1_555
C8_6 C9_6 1_555 1_555
C14_6 C15_6 1_555 1_555
N1_4 C1_7 1_555 1_555
Cu5_2 O4_7 1_555 1_555
O5_4 C16_7 1_555 1_555
O6_2 C16_7 1_555 1_555
O7_3 C17_7 1_555 1_555
O4_7 C17_7 1_555 1_555
C1_7 H1_2 1_555 1_555
C2_7 C1_7 1_555 1_555
H2_7 C2_7 1_555 1_555
C3_7 C2_7 1_555 1_555
C4_7 C3_7 1_555 1_555
C5_7 N1_4 1_555 1_555
C6_7 C5_7 1_555 1_555
H3_7 C6_7 1_555 1_555
C7_7 C6_7 1_555 1_555
H4_7 C7_7 1_555 1_555
C8_7 C7_7 1_555 1_555
H5_7 C8_7 1_555 1_555
C9_7 C4_7 1_555 1_555
H6_7 C9_7 1_555 1_555
C10_7 C3_7 1_555 1_555
C11_7 C10_7 1_555 1_555
H7_7 C11_7 1_555 1_555
C12_7 C11_7 1_555 1_555
C13_7 C12_7 1_555 1_555
H8_7 C13_7 1_555 1_555
C14_7 C13_7 1_555 1_555
C15_7 C10_7 1_555 1_555
H9_7 C15_7 1_555 1_555
C16_7 C12_7 1_555 1_555
C17_7 C14_7 1_555 1_555
N2_4 Cu5_2 1_555 1_555
Cu5 N1_4 1_555 1_555
C4_7 C5_7 1_555 1_555
C8_7 C9_7 1_555 1_555
C14_7 C15_7 1_555 1_555
Cu5 O4_8 1_555 1_555
N2_4 C1_8 1_555 1_555
O5_3 C16_8 1_555 1_555
O7_4 C17_8 1_555 1_555
C2_8 C1_8 1_555 1_555
H2_8 C2_8 1_555 1_555
C3_8 C2_8 1_555 1_555
C4_8 C3_8 1_555 1_555
C5_8 N2_4 1_555 1_555
C6_8 C5_8 1_555 1_555
H3_8 C6_8 1_555 1_555
C7_8 C6_8 1_555 1_555
H4_8 C7_8 1_555 1_555
C8_8 C7_8 1_555 1_555
H5_8 C8_8 1_555 1_555
C9_8 C4_8 1_555 1_555
H6_8 C9_8 1_555 1_555
C10_8 C3_8 1_555 1_555
C11_8 C10_8 1_555 1_555
H7_8 C11_8 1_555 1_555
C12_8 C11_8 1_555 1_555
C13_8 C12_8 1_555 1_555
H8_8 C13_8 1_555 1_555
C14_8 C13_8 1_555 1_555
C15_8 C10_8 1_555 1_555
H9_8 C15_8 1_555 1_555
C16_8 C12_8 1_555 1_555
C17_8 C14_8 1_555 1_555
C4_8 C5_8 1_555 1_555
C8_8 C9_8 1_555 1_555
C14_8 C15_8 1_555 1_555

#END
