
###############################################################################
#
# This file contains modified crystal structure data generated from the
# MOF subset of the Cambridge Structural Database (CSD) v543 
# hosted by the Cambridge Crystallographic Data Centre (CCDC).
#
# This work is licensed under the Creative Commons
# Attribution-NonCommercial-ShareAlike 4.0 International License.
# To view a copy of this license, visit
# http://creativecommons.org/licenses/by-nc-sa/4.0/
# or send a letter to
# Creative Commons, PO Box 1866, Mountain View, CA 94042, USA.
#
# CIF created using the CSD Python API on 29 September 2022
# The structure has been converted into the P1 space group
# The structure has a 3D framework
# The original CSD entry UDEZEL is in the monoclinic crystal system
# The framework has been calculated to contain at least 10.0% void space
# The void calculation uses a probe of radius 1.32A, grid spacing 0.4
#
###############################################################################

data_UDEZEL
_chemical_formula_moiety         '(C76 H48 Co5 N12 O24)n'
_symmetry_cell_setting           triclinic
_symmetry_space_group_name_H-M   'P 1'
_symmetry_Int_Tables_number      1
_space_group_name_Hall           'P 1'
loop_
_symmetry_equiv_pos_site_id
_symmetry_equiv_pos_as_xyz
1 x,y,z
_cell_length_a                   9.3083(2)
_cell_length_b                   10.4819(2)
_cell_length_c                   22.1487(4)
_cell_angle_alpha                90
_cell_angle_beta                 96.098(2)
_cell_angle_gamma                90
_cell_volume                     2148.79
loop_
_atom_site_label
_atom_site_type_symbol
_atom_site_fract_x
_atom_site_fract_y
_atom_site_fract_z
Co5 Co 0.0000 0.5000 0.0000
O1 O 0.0880(3) 0.8444(3) 0.52020(13)
O7 O 0.1764(3) 0.6983(3) 0.58752(13)
C4 C 0.0770(4) 0.7661(3) 0.56294(16)
H6 H 0.0151 0.7424 0.6749
O9 O 0.0440(3) 0.8908(2) 0.95530(13)
O11 O 0.0107(3) 0.7038(2) 0.99777(12)
Co5_2 Co 0.0000 0.5000 1.0000
Co6 Co 0.26666(6) 0.92517(5) 0.50166(2)
Co8 Co 0.23334(6) 0.92517(5) 0.99834(2)
Co10 Co 0.76666(6) 0.07483(5) 0.00166(2)
Co9 Co 0.73334(6) 0.07483(5) 0.49834(2)
O18 O 0.2451(3) 0.0939(2) 0.53847(12)
O19 O 0.2549(3) 0.0939(2) 0.96153(12)
O10 O 0.7451(3) 0.9061(2) 0.03847(12)
O12 O 0.6674(3) 0.7097(2) 0.05074(12)
C27 C 0.7008(3) 0.7977(3) 0.01815(16)
Co5_3 Co 1.0000 0.5000 0.0000
Co1 Co 0.5000 0.5000 0.5000
O2 O 0.4560(3) 0.8908(2) 0.54470(13)
O3 O 0.7549(3) 0.9061(2) 0.46153(12)
O4 O 0.2956(3) 0.5081(2) 0.52604(13)
H1 H 0.2916 0.5649 0.5535
H2 H 0.2729 0.4357 0.5400
O5 O 0.4893(3) 0.7038(2) 0.50223(12)
O6 O 0.8326(3) 0.7097(2) 0.44926(12)
N1 N 0.2621(3) 0.9027(3) 0.41033(14)
N2 N 0.4056(3) 0.5241(3) 0.40411(14)
N3 N 0.8107(3) 0.7649(3) 0.73975(13)
C1 C 0.5294(3) 0.7918(3) 0.53770(15)
C2 C 0.6720(4) 0.7839(3) 0.57570(16)
C3 C 0.8027(3) 0.7797(3) 0.54980(15)
C5 C 0.6709(3) 0.7803(3) 0.63824(16)
H3 H 0.5842 0.7872 0.6553
C6 C 0.7996(4) 0.7664(3) 0.67495(16)
C7 C 0.2526(4) 0.8936(3) 0.28346(16)
C8 C 0.1369(4) 0.9162(3) 0.37434(18)
H4 H 0.0523 0.9277 0.3926
C9 C 0.9319(4) 0.7639(3) 0.58744(16)
C10 C 0.7992(3) 0.7977(3) 0.48185(16)
C11 C 0.2676(4) 0.5576(4) 0.38935(19)
H5 H 0.2117 0.5748 0.4208
C12 C 0.9296(4) 0.7554(3) 0.64987(16)
C13 C 0.3824(4) 0.8814(4) 0.38303(17)
H7 H 0.4697 0.8701 0.4070
C14 C 0.1283(4) 0.9139(4) 0.31244(19)
H8 H 0.0396 0.9260 0.2895
C15 C 0.3805(4) 0.8759(4) 0.32103(18)
H9 H 0.4658 0.8601 0.3039
C16 C 0.2032(5) 0.5684(4) 0.3308(2)
H10 H 0.1065 0.5919 0.3237
C17 C 0.2833(4) 0.5439(3) 0.28158(17)
C18 C 0.4826(4) 0.5035(4) 0.35697(19)
H11 H 0.5794 0.4813 0.3653
C19 C 0.4262(5) 0.5134(4) 0.2973(2)
H12 H 0.4859 0.4992 0.2668
O8 O 0.4120(3) 0.8444(3) 0.97980(13)
O13 O 0.3236(3) 0.6983(3) 0.91248(13)
N4 N 0.6893(3) 0.7649(3) 0.76025(13)
C20 C 0.9706(3) 0.7918(3) 0.96230(15)
C21 C 0.8280(4) 0.7839(3) 0.92430(16)
C22 C 0.6973(3) 0.7797(3) 0.95020(15)
C23 C 0.4230(4) 0.7661(3) 0.93706(16)
C24 C 0.8291(3) 0.7803(3) 0.86176(16)
H13 H 0.9158 0.7872 0.8447
C25 C 0.7004(4) 0.7664(3) 0.82505(16)
C26 C 0.5681(4) 0.7639(3) 0.91256(16)
C28 C 0.5704(4) 0.7554(3) 0.85013(16)
H14 H 0.4849 0.7424 0.8251
N5 N 0.2379(3) 0.9027(3) 0.08967(14)
C29 C 0.2474(4) 0.8936(3) 0.21654(16)
C30 C 0.3631(4) 0.9162(3) 0.12566(18)
H15 H 0.4477 0.9277 0.1074
C31 C 0.1176(4) 0.8814(4) 0.11697(17)
H16 H 0.0303 0.8701 0.0930
C32 C 0.3717(4) 0.9139(4) 0.18756(19)
H17 H 0.4604 0.9260 0.2105
C33 C 0.1195(4) 0.8759(4) 0.17897(18)
H18 H 0.0342 0.8601 0.1961
N6 N 0.0944(3) 0.5241(3) 0.09589(14)
C34 C 0.2324(4) 0.5576(4) 0.11065(19)
H19 H 0.2883 0.5748 0.0792
C35 C 0.2968(5) 0.5684(4) 0.1692(2)
H20 H 0.3935 0.5919 0.1763
C36 C 0.2167(4) 0.5439(3) 0.21842(17)
C37 C 0.0174(4) 0.5035(4) 0.14303(19)
C38 C 0.0738(5) 0.5134(4) 0.2027(2)
H22 H 0.0141 0.4992 0.2332
O14 O 0.7044(3) 0.4919(2) 0.47396(13)
H23 H 0.7084 0.4351 0.4465
H24 H 0.7271 0.5643 0.4600
Co5_4 Co 1.0000 0.5000 1.0000
O20 O 0.5107(3) 0.2962(2) 0.49777(12)
N7 N 0.5944(3) 0.4759(3) 0.59589(14)
H21 H 0.9206 0.4813 0.1347
O4_2 O 0.2044(3) 0.5081(2) 0.97396(13)
H1_2 H 0.2084 0.5649 0.9465
H2_2 H 0.2271 0.4357 0.9600
O14_2 O 0.7956(3) 0.4919(2) 0.02604(13)
H23_2 H 0.7916 0.4351 0.0535
H24_2 H 0.7729 0.5643 0.0400
O20_2 O 0.9893(3) 0.2962(2) 0.00223(12)
N7_2 N 0.9056(3) 0.4759(3) 0.90411(14)
H21_2 H 0.0794 0.5187 0.8653
O16 O 0.5880(3) 0.1556(3) 0.02020(13)
O17 O 0.9560(3) 0.1092(2) 0.04470(13)
O2_2 O 0.5440(3) 0.1092(2) 0.45530(13)
O6_2 O 0.1674(3) 0.2903(2) 0.55074(12)
N1_2 N 0.7379(3) 0.0973(3) 0.58967(14)
N3_2 N 0.1893(3) 0.2351(3) 0.26025(13)
C1_2 C 0.4706(3) 0.2082(3) 0.46230(15)
C2_2 C 0.3280(4) 0.2161(3) 0.42430(16)
C3_2 C 0.1973(3) 0.2203(3) 0.45020(15)
C5_2 C 0.3291(3) 0.2197(3) 0.36176(16)
H3_2 H 0.4158 0.2128 0.3447
C6_2 C 0.2004(4) 0.2336(3) 0.32505(16)
C7_2 C 0.7474(4) 0.1064(3) 0.71654(16)
C8_2 C 0.8631(4) 0.0838(3) 0.62566(18)
H4_2 H 0.9477 0.0723 0.6074
C9_2 C 0.0681(4) 0.2361(3) 0.41256(16)
C10_2 C 0.2008(3) 0.2023(3) 0.51815(16)
C11_2 C 0.7324(4) 0.4424(4) 0.61065(19)
H5_2 H 0.7883 0.4252 0.5792
C12_2 C 0.0704(4) 0.2446(3) 0.35013(16)
C13_2 C 0.6176(4) 0.1186(4) 0.61697(17)
H7_2 H 0.5303 0.1299 0.5930
C14_2 C 0.8717(4) 0.0861(4) 0.68756(19)
H8_2 H 0.9604 0.0740 0.7105
C15_2 C 0.6195(4) 0.1241(4) 0.67897(18)
H9_2 H 0.5342 0.1399 0.6961
C16_2 C 0.7968(5) 0.4316(4) 0.6692(2)
H10_2 H 0.8935 0.4081 0.6763
C17_2 C 0.7167(4) 0.4561(3) 0.71842(17)
C18_2 C 0.5174(4) 0.4965(4) 0.64303(19)
H11_2 H 0.4206 0.5187 0.6347
C19_2 C 0.5738(5) 0.4866(4) 0.7027(2)
H12_2 H 0.5141 0.5008 0.7332
O13_2 O 0.6764(3) 0.3017(3) 0.08752(13)
N4_2 N 0.3107(3) 0.2351(3) 0.23975(13)
C20_2 C 0.0294(3) 0.2082(3) 0.03770(15)
C21_2 C 0.1720(4) 0.2161(3) 0.07570(16)
C22_2 C 0.3027(3) 0.2203(3) 0.04980(15)
C23_2 C 0.5770(4) 0.2339(3) 0.06294(16)
C24_2 C 0.1709(3) 0.2197(3) 0.13824(16)
H13_2 H 0.0842 0.2128 0.1553
C25_2 C 0.2996(4) 0.2336(3) 0.17495(16)
C26_2 C 0.4319(4) 0.2361(3) 0.08744(16)
C28_2 C 0.4296(4) 0.2446(3) 0.14987(16)
H14_2 H 0.5151 0.2576 0.1749
N5_2 N 0.7621(3) 0.0973(3) 0.91033(14)
C29_2 C 0.7526(4) 0.1064(3) 0.78346(16)
C30_2 C 0.6369(4) 0.0838(3) 0.87434(18)
H15_2 H 0.5523 0.0723 0.8926
C31_2 C 0.8824(4) 0.1186(4) 0.88303(17)
H16_2 H 0.9697 0.1299 0.9070
C32_2 C 0.6283(4) 0.0861(4) 0.81244(19)
H17_2 H 0.5396 0.0740 0.7895
C33_2 C 0.8805(4) 0.1241(4) 0.82103(18)
H18_2 H 0.9658 0.1399 0.8039
C34_2 C 0.7676(4) 0.4424(4) 0.88935(19)
H19_2 H 0.7117 0.4252 0.9208
C35_2 C 0.7032(5) 0.4316(4) 0.8308(2)
H20_2 H 0.6065 0.4081 0.8237
C36_2 C 0.7833(4) 0.4561(3) 0.78158(17)
C37_2 C 0.9826(4) 0.4965(4) 0.85697(19)
C38_2 C 0.9262(5) 0.4866(4) 0.7973(2)
H22_2 H 0.9859 0.5008 0.7668
O15 O 0.9120(3) 0.1556(3) 0.47980(13)
O12_2 O 0.3326(3) 0.2903(2) 0.94926(12)
C27_2 C 0.2992(3) 0.2023(3) 0.98185(16)
O7_2 O 0.8236(3) 0.3017(3) 0.41248(13)
C4_2 C 0.9230(4) 0.2339(3) 0.43706(16)
H6_2 H 0.9849 0.2576 0.3251
loop_
_geom_bond_atom_site_label_1
_geom_bond_atom_site_label_2
_geom_bond_site_symmetry_1
_geom_bond_site_symmetry_2
O1 C4 1_555 1_555
O7 C4 1_555 1_555
Co5_2 O11 1_555 1_555
Co6 O1 1_555 1_555
Co8 O9 1_555 1_555
O10 C27 1_555 1_555
O12 C27 1_555 1_555
Co1 O4 1_555 1_555
Co6 O2 1_555 1_555
O2 C1 1_555 1_555
O3 C10 1_555 1_555
O4 H1 1_555 1_555
H2 O4 1_555 1_555
O5 Co1 1_555 1_555
O6 C10 1_555 1_555
N1 Co6 1_555 1_555
N2 Co1 1_555 1_555
N3 C6 1_555 1_555
C1 O5 1_555 1_555
C2 C1 1_555 1_555
C3 C2 1_555 1_555
C5 C2 1_555 1_555
H3 C5 1_555 1_555
C6 C5 1_555 1_555
C7 C14 1_555 1_555
C8 N1 1_555 1_555
H4 C8 1_555 1_555
C9 C3 1_555 1_555
C10 C3 1_555 1_555
C11 N2 1_555 1_555
H5 C11 1_555 1_555
C12 C6 1_555 1_555
C13 N1 1_555 1_555
H7 C13 1_555 1_555
C14 C8 1_555 1_555
H8 C14 1_555 1_555
C15 C7 1_555 1_555
H9 C15 1_555 1_555
C16 C11 1_555 1_555
H10 C16 1_555 1_555
C17 C16 1_555 1_555
C18 N2 1_555 1_555
H11 C18 1_555 1_555
C19 C17 1_555 1_555
H12 C19 1_555 1_555
O8 C23 1_555 1_555
O13 C23 1_555 1_555
N4 N3 1_555 1_555
C20 C21 1_555 1_555
C21 C22 1_555 1_555
C22 C26 1_555 1_555
C23 C26 1_555 1_555
C24 C21 1_555 1_555
H13 C24 1_555 1_555
C25 N4 1_555 1_555
C26 C28 1_555 1_555
C28 C25 1_555 1_555
H14 C28 1_555 1_555
N5 C30 1_555 1_555
C29 C7 1_555 1_555
C30 H15 1_555 1_555
C31 N5 1_555 1_555
H16 C31 1_555 1_555
C32 C29 1_555 1_555
H17 C32 1_555 1_555
C33 C29 1_555 1_555
H18 C33 1_555 1_555
N6 C34 1_555 1_555
C34 H19 1_555 1_555
C35 C34 1_555 1_555
H20 C35 1_555 1_555
C36 C17 1_555 1_555
C37 N6 1_555 1_555
C38 C36 1_555 1_555
H22 C38 1_555 1_555
O14 Co1 1_555 1_555
H23 O14 1_555 1_555
H24 O14 1_555 1_555
Co5 N6 1_555 1_555
Co8 O8 1_555 1_555
O20 Co1 1_555 1_555
N7 Co1 1_555 1_555
C9 C12 1_555 1_555
C13 C15 1_555 1_555
C18 C19 1_555 1_555
C24 C25 1_555 1_555
C30 C32 1_555 1_555
C31 C33 1_555 1_555
C35 C36 1_555 1_555
C37 C38 1_555 1_555
Co5_2 O4_2 1_555 1_555
O4_2 H1_2 1_555 1_555
H2_2 O4_2 1_555 1_555
O14_2 Co5_3 1_555 1_555
H23_2 O14_2 1_555 1_555
H24_2 O14_2 1_555 1_555
O20_2 Co5_3 1_555 1_555
N7_2 Co5_4 1_555 1_555
O16 Co10 1_555 1_555
O17 Co10 1_555 1_555
Co9 O2_2 1_555 1_555
O2_2 C1_2 1_555 1_555
O18 C10_2 1_555 1_555
O6_2 C10_2 1_555 1_555
N1_2 Co9 1_555 1_555
N3_2 C6_2 1_555 1_555
C1_2 O20 1_555 1_555
C2_2 C1_2 1_555 1_555
C3_2 C2_2 1_555 1_555
C5_2 C2_2 1_555 1_555
H3_2 C5_2 1_555 1_555
C6_2 C5_2 1_555 1_555
C7_2 C14_2 1_555 1_555
C8_2 N1_2 1_555 1_555
H4_2 C8_2 1_555 1_555
C9_2 C3_2 1_555 1_555
C10_2 C3_2 1_555 1_555
C11_2 N7 1_555 1_555
H5_2 C11_2 1_555 1_555
C12_2 C6_2 1_555 1_555
C13_2 N1_2 1_555 1_555
H7_2 C13_2 1_555 1_555
C14_2 C8_2 1_555 1_555
H8_2 C14_2 1_555 1_555
C15_2 C7_2 1_555 1_555
H9_2 C15_2 1_555 1_555
C16_2 C11_2 1_555 1_555
H10_2 C16_2 1_555 1_555
C17_2 C16_2 1_555 1_555
C18_2 N7 1_555 1_555
H11_2 C18_2 1_555 1_555
C19_2 C17_2 1_555 1_555
H12_2 C19_2 1_555 1_555
O16 C23_2 1_555 1_555
O13_2 C23_2 1_555 1_555
N4_2 N3_2 1_555 1_555
C20_2 C21_2 1_555 1_555
C21_2 C22_2 1_555 1_555
C22_2 C26_2 1_555 1_555
C23_2 C26_2 1_555 1_555
C24_2 C21_2 1_555 1_555
H13_2 C24_2 1_555 1_555
C25_2 N4_2 1_555 1_555
C26_2 C28_2 1_555 1_555
C28_2 C25_2 1_555 1_555
H14_2 C28_2 1_555 1_555
N5_2 C30_2 1_555 1_555
C29_2 C7_2 1_555 1_555
C30_2 H15_2 1_555 1_555
C31_2 N5_2 1_555 1_555
H16_2 C31_2 1_555 1_555
C32_2 C29_2 1_555 1_555
H17_2 C32_2 1_555 1_555
C33_2 C29_2 1_555 1_555
H18_2 C33_2 1_555 1_555
N7_2 C34_2 1_555 1_555
C34_2 H19_2 1_555 1_555
C35_2 C34_2 1_555 1_555
H20_2 C35_2 1_555 1_555
C36_2 C17_2 1_555 1_555
C37_2 N7_2 1_555 1_555
C38_2 C36_2 1_555 1_555
H22_2 C38_2 1_555 1_555
O15 Co9 1_555 1_555
C9_2 C12_2 1_555 1_555
C13_2 C15_2 1_555 1_555
C18_2 C19_2 1_555 1_555
C24_2 C25_2 1_555 1_555
C30_2 C32_2 1_555 1_555
C31_2 C33_2 1_555 1_555
C35_2 C36_2 1_555 1_555
C37_2 C38_2 1_555 1_555
O19 C27_2 1_555 1_555
O12_2 C27_2 1_555 1_555
O15 C4_2 1_555 1_555
O7_2 C4_2 1_555 1_555

#END
