
###############################################################################
#
# This file contains modified crystal structure data generated from the
# MOF subset of the Cambridge Structural Database (CSD) v543 
# hosted by the Cambridge Crystallographic Data Centre (CCDC).
#
# This work is licensed under the Creative Commons
# Attribution-NonCommercial-ShareAlike 4.0 International License.
# To view a copy of this license, visit
# http://creativecommons.org/licenses/by-nc-sa/4.0/
# or send a letter to
# Creative Commons, PO Box 1866, Mountain View, CA 94042, USA.
#
# CIF created using the CSD Python API on 29 September 2022
# The structure has been converted into the P1 space group
# The structure has a 3D framework
# The original CSD entry UDIWUC is in the triclinic crystal system
# The framework has been calculated to contain at least 10.0% void space
# The void calculation uses a probe of radius 1.32A, grid spacing 0.4
# H atom positions have been added when not included in the experimental data
#
###############################################################################

data_UDIWUC
_chemical_formula_moiety         '(C90 H58 Br12 Ho4 N8 O40 P6)n'
_symmetry_cell_setting           triclinic
_symmetry_space_group_name_H-M   'P 1'
_symmetry_Int_Tables_number      1
_space_group_name_Hall           'P 1'
loop_
_symmetry_equiv_pos_site_id
_symmetry_equiv_pos_as_xyz
1 x,y,z
_cell_length_a                   12.3748(9)
_cell_length_b                   17.8829(11)
_cell_length_c                   18.3320(12)
_cell_angle_alpha                105.840(3)
_cell_angle_beta                 106.771(3)
_cell_angle_gamma                109.139(3)
_cell_volume                     3352.96
loop_
_atom_site_label
_atom_site_type_symbol
_atom_site_fract_x
_atom_site_fract_y
_atom_site_fract_z
Ho4 Ho 0.05403(4) 0.02701(3) 0.64887(3)
Ho7 Ho 0.40870(4) 0.01781(3) 0.89352(3)
Br3 Br 0.08893(15) 0.66208(13) 0.08483(12)
O11 O 0.3830(8) 0.9220(6) 0.0271(5)
C16 C 0.0785(11) 0.7135(7) 0.0058(7)
C17 C 0.1806(11) 0.7836(8) 0.0182(8)
H7 H 0.2576 0.8051 0.0630
Ho9 Ho 0.59130(4) 0.98219(3) 0.10648(3)
Br2 Br 0.18855(12) 0.61653(8) 0.76956(10)
O5 O 0.0624(8) 0.1720(5) 0.7200(5)
O7 O 0.0660(7) 0.9111(4) 0.6780(4)
O8 O 0.2494(6) 0.9284(4) 0.7644(4)
O10 O 0.2565(8) 0.9311(5) 0.9197(5)
H2 H 0.0682 0.3240 0.7447
C9 C 0.0884(10) 0.6686(7) 0.7271(7)
C10 C 0.1465(9) 0.7540(6) 0.7392(6)
H4 H 0.2331 0.7863 0.7694
C11 C 0.0728(10) 0.7913(6) 0.7052(6)
C14 C 0.1360(10) 0.8858(6) 0.7175(6)
C18 C 0.1659(10) 0.8215(7) 0.9623(6)
C19 C 0.0509(10) 0.7896(7) 0.8944(7)
H8 H 0.0421 0.8164 0.8576
C21 C 0.2765(11) 0.8972(7) 0.9697(7)
O26 O 0.2579(8) 0.1087(5) 0.7418(5)
O30 O 0.1008(8) 0.1065(5) 0.5743(5)
H26 H 0.0474461 0.0339038 0.804206
O3 O 0.1552(7) 0.9679(5) 0.5690(5)
H28 H 0.101844 0.90472 0.535902
H29 H 0.166523 0.996922 0.530821
Br4 Br 0.73636(17) 0.44277(10) 0.04107(8)
O27 O 0.4371(9) 0.1041(5) 0.0194(5)
Br1 Br 0.56063(12) 0.20973(7) 0.54391(9)
Br5 Br 0.5074(2) 0.69470(16) 0.61336(10)
Br6 Br 0.34013(13) 0.44650(8) 0.77723(8)
P1 P 0.7964(2) 0.48632(15) 0.69334(15)
P2 P 0.7763(3) 0.52202(15) 0.84341(15)
P3 P 0.6155(3) 0.53551(15) 0.71345(15)
O1 O 0.7560(6) 0.3886(4) 0.6367(4)
O2 O 0.9776(13) 0.0200(8) 0.7516(8)
O4 O 0.8898(8) 0.0733(4) 0.6126(5)
O6 O 0.9067(8) 0.5321(5) 0.6681(5)
O9 O 0.8665(7) 0.6046(5) 0.9272(4)
O12 O 0.7535(6) 0.4583(4) 0.8875(4)
O14 O 0.3511(7) 0.1206(4) 0.8702(4)
O15 O 0.6478(6) 0.6322(4) 0.7240(4)
O16 O 0.5629(9) 0.8959(5) 0.9806(5)
O17 O 0.4481(8) 0.8990(5) 0.8627(5)
O18 O 0.4669(7) 0.4943(5) 0.6634(5)
O19 O 0.1251(7) 0.0922(5) 0.4568(5)
O21 O 0.5010(10) 0.0488(5) 0.8047(6)
N1 N 0.8506(8) 0.5051(5) 0.7896(6)
N2 N 0.6496(9) 0.5256(5) 0.7990(5)
N3 N 0.6794(8) 0.5027(5) 0.6570(5)
N4 N 0.5313(15) 0.0400(10) 0.6893(8)
C1 C 0.8118(10) 0.3347(6) 0.6515(6)
C2 C 0.7334(11) 0.2478(7) 0.6077(7)
C3 C 0.7816(9) 0.1890(6) 0.6123(6)
H1 H 0.7295 0.1301 0.5813
C4 C 0.9066(10) 0.2166(6) 0.6624(6)
C5 C 0.9851(11) 0.3049(6) 0.7087(7)
C6 C 0.9381(9) 0.3630(6) 0.7006(6)
H3 H 0.9913 0.4220 0.7283
C7 C 0.9560(11) 0.1513(6) 0.6662(6)
C8 C 0.9612(10) 0.6204(6) 0.6842(6)
C12 C 0.9437(10) 0.7423(7) 0.6620(6)
H5 H 0.8945 0.7672 0.6401
C13 C 0.8873(11) 0.6572(7) 0.6509(7)
H6 H 0.8006 0.6247 0.6214
C15 C 0.9646(10) 0.6778(6) 0.9367(6)
C20 C 0.9503(11) 0.7170(6) 0.8833(7)
H9 H 0.8728 0.6950 0.8390
C22 C 0.6507(11) 0.3828(7) 0.8656(6)
C23 C 0.6293(11) 0.3632(7) 0.9291(7)
C24 C 0.5304(12) 0.2859(7) 0.9138(7)
H10 H 0.5170 0.2729 0.9571
C25 C 0.4532(9) 0.2298(6) 0.8308(6)
C26 C 0.4737(12) 0.2508(7) 0.7669(7)
H11 H 0.4190 0.2130 0.7119
C27 C 0.5707(12) 0.3244(7) 0.7825(7)
H12 H 0.5845 0.3364 0.7388
C28 C 0.3459(11) 0.1474(7) 0.8124(7)
C29 C 0.6033(9) 0.6846(6) 0.7671(6)
C30 C 0.5431(9) 0.7219(6) 0.7258(6)
C31 C 0.5115(13) 0.7823(8) 0.7697(7)
H13 H 0.4708 0.8087 0.7425
C32 C 0.5408(10) 0.8029(6) 0.8533(6)
C33 C 0.6012(14) 0.7623(8) 0.8938(8)
H14 H 0.6190 0.7745 0.9498
C34 C 0.6340(15) 0.7040(9) 0.8500(8)
H15 H 0.6766 0.6782 0.8767
C35 C 0.5136(10) 0.8722(7) 0.9018(7)
C36 C 0.3926(10) 0.4047(6) 0.6323(6)
C37 C 0.3279(10) 0.3726(6) 0.6758(6)
C38 C 0.2486(9) 0.2844(6) 0.6428(6)
H16 H 0.2043 0.2621 0.6711
C39 C 0.2357(10) 0.2296(6) 0.5668(6)
C40 C 0.3015(11) 0.2655(7) 0.5252(7)
H17 H 0.2914 0.2300 0.4736
C41 C 0.3812(10) 0.3526(7) 0.5591(6)
H18 H 0.4267 0.3753 0.5315
C42 C 0.1483(10) 0.1350(6) 0.5300(7)
C43 C 0.4667(13) 0.0165(8) 0.7309(7)
C44 C 0.478(2) 0.0058(13) 0.5969(10)
H20 H 0.5412 0.0316 0.5796
H22 H 0.4088 0.0195 0.5774
C45 C 0.6413(11) 0.1229(7) 0.7299(7)
H23 H 0.6786 0.1310 0.6918
H24 H 0.6170 0.1683 0.7469
H25 H 0.7010 0.1244 0.7780
O25 O 0.6170(8) 0.0780(6) 0.9729(5)
H27 H 0.942368 0.0624266 0.761494
H19 H 0.3867 0.9705 0.7003
H21 H 0.4477 0.9440 0.5741
O29 O 0.8749(7) 0.9078(5) 0.5432(5)
Ho5 Ho 0.94597(4) 0.97299(3) 0.35113(3)
H19_2 H 0.6133 0.0295 0.2997
H21_2 H 0.5523 0.0560 0.4259
O23 O 0.7506(6) 0.0716(4) 0.2356(4)
O24 O 0.7435(8) 0.0689(5) 0.0803(5)
O28 O 0.5519(8) 0.1010(5) 0.1373(5)
Br1_2 Br 0.43937(12) 0.79027(7) 0.45609(9)
Br5_2 Br 0.4926(2) 0.30530(16) 0.38664(10)
Br6_2 Br 0.65987(13) 0.55350(8) 0.22277(8)
P1_2 P 0.2036(2) 0.51368(15) 0.30666(15)
P2_2 P 0.2237(3) 0.47798(15) 0.15659(15)
P3_2 P 0.3845(3) 0.46449(15) 0.28655(15)
O1_2 O 0.2440(6) 0.6114(4) 0.3633(4)
O2_2 O 0.0224(13) 0.9800(8) 0.2484(8)
O4_2 O 0.1102(8) 0.9267(4) 0.3874(5)
O6_2 O 0.0933(8) 0.4679(5) 0.3319(5)
O9_2 O 0.1335(7) 0.3954(5) 0.0728(4)
O12_2 O 0.2465(6) 0.5417(4) 0.1125(4)
O13 O 0.7421(8) 0.8913(5) 0.2582(5)
O14_2 O 0.6489(7) 0.8794(4) 0.1298(4)
O15_2 O 0.3522(6) 0.3678(4) 0.2760(4)
O18_2 O 0.5331(7) 0.5057(5) 0.3366(5)
O20 O 0.8992(8) 0.8935(5) 0.4257(5)
O21_2 O 0.4990(10) 0.9512(5) 0.1953(6)
N1_2 N 0.1494(8) 0.4949(5) 0.2104(6)
N2_2 N 0.3504(9) 0.4744(5) 0.2010(5)
N3_2 N 0.3206(8) 0.4973(5) 0.3430(5)
N4_2 N 0.4687(15) 0.9600(10) 0.3107(8)
C1_2 C 0.1882(10) 0.6653(6) 0.3485(6)
C2_2 C 0.2666(11) 0.7522(7) 0.3923(7)
C3_2 C 0.2184(9) 0.8110(6) 0.3877(6)
H1_2 H 0.2705 0.8699 0.4187
C4_2 C 0.0934(10) 0.7834(6) 0.3376(6)
C5_2 C 0.0149(11) 0.6951(6) 0.2913(7)
C6_2 C 0.0619(9) 0.6370(6) 0.2994(6)
H3_2 H 0.0087 0.5780 0.2717
C7_2 C 0.0440(11) 0.8487(6) 0.3338(6)
C8_2 C 0.0388(10) 0.3796(6) 0.3158(6)
C12_2 C 0.0563(10) 0.2577(7) 0.3380(6)
H5_2 H 0.1055 0.2328 0.3599
C13_2 C 0.1127(11) 0.3428(7) 0.3491(7)
H6_2 H 0.1994 0.3753 0.3786
C15_2 C 0.0354(10) 0.3222(6) 0.0633(6)
C20_2 C 0.0497(11) 0.2830(6) 0.1167(7)
H9_2 H 0.1272 0.3050 0.1610
C22_2 C 0.3493(11) 0.6172(7) 0.1344(6)
C23_2 C 0.3707(11) 0.6368(7) 0.0709(7)
C24_2 C 0.4696(12) 0.7141(7) 0.0862(7)
H10_2 H 0.4830 0.7271 0.0429
C25_2 C 0.5468(9) 0.7702(6) 0.1692(6)
C26_2 C 0.5263(12) 0.7492(7) 0.2331(7)
H11_2 H 0.5810 0.7870 0.2881
C27_2 C 0.4293(12) 0.6756(7) 0.2175(7)
H12_2 H 0.4155 0.6636 0.2612
C28_2 C 0.6541(11) 0.8526(7) 0.1876(7)
C29_2 C 0.3967(9) 0.3154(6) 0.2329(6)
C30_2 C 0.4569(9) 0.2781(6) 0.2742(6)
C31_2 C 0.4885(13) 0.2177(8) 0.2303(7)
H13_2 H 0.5292 0.1913 0.2575
C32_2 C 0.4592(10) 0.1971(6) 0.1467(6)
C33_2 C 0.3988(14) 0.2377(8) 0.1062(8)
H14_2 H 0.3810 0.2255 0.0502
C34_2 C 0.3660(15) 0.2960(9) 0.1500(8)
H15_2 H 0.3234 0.3218 0.1233
C35_2 C 0.4864(10) 0.1278(7) 0.0982(7)
C36_2 C 0.6074(10) 0.5953(6) 0.3677(6)
C37_2 C 0.6721(10) 0.6274(6) 0.3242(6)
C38_2 C 0.7514(9) 0.7156(6) 0.3572(6)
H16_2 H 0.7957 0.7379 0.3289
C39_2 C 0.7643(10) 0.7704(6) 0.4332(6)
C40_2 C 0.6985(11) 0.7345(7) 0.4748(7)
H17_2 H 0.7086 0.7700 0.5264
C41_2 C 0.6188(10) 0.6474(7) 0.4409(6)
H18_2 H 0.5733 0.6247 0.4685
C42_2 C 0.8517(10) 0.8650(6) 0.4700(7)
C43_2 C 0.5333(13) 0.9835(8) 0.2691(7)
C44_2 C 0.522(2) 0.9942(13) 0.4031(10)
H20_2 H 0.4588 0.9684 0.4204
H22_2 H 0.5912 0.9805 0.4226
C45_2 C 0.3587(11) 0.8771(7) 0.2701(7)
H23_2 H 0.3214 0.8690 0.3082
H24_2 H 0.3830 0.8317 0.2531
H25_2 H 0.2990 0.8756 0.2220
H27_2 H 0.0576324 0.937573 0.238506
Br4_2 Br 0.26364(17) 0.55723(10) 0.95893(8)
O3_2 O 0.8448(7) 0.0321(5) 0.4310(5)
O22 O 0.9340(7) 0.0889(4) 0.3220(4)
H28_2 H 0.898156 0.0952801 0.464098
H29_2 H 0.833477 0.00307831 0.469179
Br2_2 Br 0.81145(12) 0.38347(8) 0.23044(10)
O5_2 O 0.9376(8) 0.8280(5) 0.2800(5)
H2_2 H 0.9318 0.6760 0.2553
C9_2 C 0.9116(10) 0.3314(7) 0.2729(7)
C10_2 C 0.8535(9) 0.2460(6) 0.2608(6)
H4_2 H 0.7669 0.2137 0.2306
C11_2 C 0.9272(10) 0.2087(6) 0.2948(6)
C14_2 C 0.8640(10) 0.1142(6) 0.2825(6)
C18_2 C 0.8341(10) 0.1785(7) 0.0377(6)
C19_2 C 0.9491(10) 0.2104(7) 0.1056(7)
H8_2 H 0.9579 0.1836 0.1424
C21_2 C 0.7235(11) 0.1028(7) 0.0303(7)
H26_2 H 0.952554 0.966096 0.195794
Br3_2 Br 0.91107(15) 0.33792(13) 0.91517(12)
C16_2 C 0.9215(11) 0.2865(7) 0.9942(7)
C17_2 C 0.8194(11) 0.2164(8) 0.9818(8)
H7_2 H 0.7424 0.1949 0.9370
loop_
_geom_bond_atom_site_label_1
_geom_bond_atom_site_label_2
_geom_bond_site_symmetry_1
_geom_bond_site_symmetry_2
Br3 C16 1_555 1_555
C16 C17 1_555 1_555
C17 H7 1_555 1_555
Ho9 O11 1_555 1_555
Br2 C9 1_555 1_555
O5 Ho4 1_555 1_555
O7 C14 1_555 1_555
O8 C14 1_555 1_555
O10 C21 1_555 1_555
C10 C9 1_555 1_555
H4 C10 1_555 1_555
C11 C10 1_555 1_555
C14 C11 1_555 1_555
C19 C18 1_555 1_555
H8 C19 1_555 1_555
C21 C18 1_555 1_555
O26 Ho4 1_555 1_555
O30 Ho4 1_555 1_555
O3 H28 1_555 1_555
O3 H29 1_555 1_555
Ho7 O14 1_555 1_555
Br1 C2 1_555 1_555
Br5 C30 1_555 1_555
Br6 C37 1_555 1_555
P1 O1 1_555 1_555
P2 O9 1_555 1_555
P3 O15 1_555 1_555
O1 C1 1_555 1_555
O6 P1 1_555 1_555
O9 C15 1_555 1_555
O12 P2 1_555 1_555
O26 C28 1_555 1_555
O14 C28 1_555 1_555
O15 C29 1_555 1_555
O16 C35 1_555 1_555
O17 C35 1_555 1_555
O18 P3 1_555 1_555
O19 C42 1_555 1_555
O30 C42 1_555 1_555
O21 Ho7 1_555 1_555
N1 P1 1_555 1_555
N2 P2 1_555 1_555
N3 P1 1_555 1_555
N4 C43 1_555 1_555
C1 C2 1_555 1_555
C2 C3 1_555 1_555
C3 H1 1_555 1_555
C4 C3 1_555 1_555
C5 C4 1_555 1_555
C6 C1 1_555 1_555
H3 C6 1_555 1_555
C7 O4 1_555 1_555
C8 O6 1_555 1_555
H5 C12 1_555 1_555
C13 C8 1_555 1_555
H6 C13 1_555 1_555
C20 C15 1_555 1_555
H9 C20 1_555 1_555
C22 O12 1_555 1_555
C23 C22 1_555 1_555
C24 C23 1_555 1_555
H10 C24 1_555 1_555
C25 C24 1_555 1_555
C26 C25 1_555 1_555
H11 C26 1_555 1_555
C27 C22 1_555 1_555
H12 C27 1_555 1_555
C28 C25 1_555 1_555
C29 C30 1_555 1_555
C30 C31 1_555 1_555
C31 H13 1_555 1_555
C32 C31 1_555 1_555
C33 C32 1_555 1_555
H14 C33 1_555 1_555
C34 C29 1_555 1_555
H15 C34 1_555 1_555
C35 C32 1_555 1_555
C36 O18 1_555 1_555
C37 C36 1_555 1_555
C38 C37 1_555 1_555
H16 C38 1_555 1_555
C39 C38 1_555 1_555
C40 C39 1_555 1_555
H17 C40 1_555 1_555
C41 C36 1_555 1_555
H18 C41 1_555 1_555
C42 C39 1_555 1_555
C43 O21 1_555 1_555
C44 N4 1_555 1_555
H20 C44 1_555 1_555
H22 C44 1_555 1_555
C45 N4 1_555 1_555
H23 C45 1_555 1_555
H24 C45 1_555 1_555
H25 C45 1_555 1_555
O25 Ho7 1_555 1_555
P2 N1 1_555 1_555
P3 N2 1_555 1_555
P3 N3 1_555 1_555
C4 C7 1_555 1_555
C5 C6 1_555 1_555
C12 C13 1_555 1_555
C26 C27 1_555 1_555
C33 C34 1_555 1_555
C40 C41 1_555 1_555
O2 H27 1_555 1_555
Ho9 O14_2 1_555 1_555
Br1_2 C2_2 1_555 1_555
Br5_2 C30_2 1_555 1_555
Br6_2 C37_2 1_555 1_555
P1_2 O1_2 1_555 1_555
P2_2 O9_2 1_555 1_555
P3_2 O15_2 1_555 1_555
O1_2 C1_2 1_555 1_555
O6_2 P1_2 1_555 1_555
O9_2 C15_2 1_555 1_555
O12_2 P2_2 1_555 1_555
O13 C28_2 1_555 1_555
O14_2 C28_2 1_555 1_555
O15_2 C29_2 1_555 1_555
O27 C35_2 1_555 1_555
O28 C35_2 1_555 1_555
O18_2 P3_2 1_555 1_555
O29 C42_2 1_555 1_555
O20 C42_2 1_555 1_555
O21_2 Ho9 1_555 1_555
N1_2 P1_2 1_555 1_555
N2_2 P2_2 1_555 1_555
N3_2 P1_2 1_555 1_555
N4_2 C43_2 1_555 1_555
C1_2 C2_2 1_555 1_555
C2_2 C3_2 1_555 1_555
C3_2 H1_2 1_555 1_555
C4_2 C3_2 1_555 1_555
C5_2 C4_2 1_555 1_555
C6_2 C1_2 1_555 1_555
H3_2 C6_2 1_555 1_555
C7_2 O4_2 1_555 1_555
C8_2 O6_2 1_555 1_555
H5_2 C12_2 1_555 1_555
C13_2 C8_2 1_555 1_555
H6_2 C13_2 1_555 1_555
C20_2 C15_2 1_555 1_555
H9_2 C20_2 1_555 1_555
C22_2 O12_2 1_555 1_555
C23_2 C22_2 1_555 1_555
C24_2 C23_2 1_555 1_555
H10_2 C24_2 1_555 1_555
C25_2 C24_2 1_555 1_555
C26_2 C25_2 1_555 1_555
H11_2 C26_2 1_555 1_555
C27_2 C22_2 1_555 1_555
H12_2 C27_2 1_555 1_555
C28_2 C25_2 1_555 1_555
C29_2 C30_2 1_555 1_555
C30_2 C31_2 1_555 1_555
C31_2 H13_2 1_555 1_555
C32_2 C31_2 1_555 1_555
C33_2 C32_2 1_555 1_555
H14_2 C33_2 1_555 1_555
C34_2 C29_2 1_555 1_555
H15_2 C34_2 1_555 1_555
C35_2 C32_2 1_555 1_555
C36_2 O18_2 1_555 1_555
C37_2 C36_2 1_555 1_555
C38_2 C37_2 1_555 1_555
H16_2 C38_2 1_555 1_555
C39_2 C38_2 1_555 1_555
C40_2 C39_2 1_555 1_555
H17_2 C40_2 1_555 1_555
C41_2 C36_2 1_555 1_555
H18_2 C41_2 1_555 1_555
C42_2 C39_2 1_555 1_555
C43_2 O21_2 1_555 1_555
C44_2 N4_2 1_555 1_555
H20_2 C44_2 1_555 1_555
H22_2 C44_2 1_555 1_555
C45_2 N4_2 1_555 1_555
H23_2 C45_2 1_555 1_555
H24_2 C45_2 1_555 1_555
H25_2 C45_2 1_555 1_555
Ho5 O13 1_555 1_555
P2_2 N1_2 1_555 1_555
P3_2 N2_2 1_555 1_555
P3_2 N3_2 1_555 1_555
O20 Ho5 1_555 1_555
C4_2 C7_2 1_555 1_555
C5_2 C6_2 1_555 1_555
C12_2 C13_2 1_555 1_555
C26_2 C27_2 1_555 1_555
C33_2 C34_2 1_555 1_555
C40_2 C41_2 1_555 1_555
O2_2 H27_2 1_555 1_555
O3_2 H28_2 1_555 1_555
O3_2 H29_2 1_555 1_555
Br2_2 C9_2 1_555 1_555
O5_2 Ho5 1_555 1_555
O22 C14_2 1_555 1_555
O23 C14_2 1_555 1_555
O24 C21_2 1_555 1_555
C10_2 C9_2 1_555 1_555
H4_2 C10_2 1_555 1_555
C11_2 C10_2 1_555 1_555
C14_2 C11_2 1_555 1_555
C19_2 C18_2 1_555 1_555
H8_2 C19_2 1_555 1_555
C21_2 C18_2 1_555 1_555
Br3_2 C16_2 1_555 1_555
C16_2 C17_2 1_555 1_555
C17_2 H7_2 1_555 1_555

#END
