
###############################################################################
#
# This file contains modified crystal structure data generated from the
# MOF subset of the Cambridge Structural Database (CSD) v543 
# hosted by the Cambridge Crystallographic Data Centre (CCDC).
#
# This work is licensed under the Creative Commons
# Attribution-NonCommercial-ShareAlike 4.0 International License.
# To view a copy of this license, visit
# http://creativecommons.org/licenses/by-nc-sa/4.0/
# or send a letter to
# Creative Commons, PO Box 1866, Mountain View, CA 94042, USA.
#
# CIF created using the CSD Python API on 29 September 2022
# The structure has been converted into the P1 space group
# The structure has a 3D framework
# The original CSD entry UFALAR is in the orthorhombic crystal system
# The framework has been calculated to contain at least 10.0% void space
# The void calculation uses a probe of radius 1.32A, grid spacing 0.4
# H atom positions have been added when not included in the experimental data
#
###############################################################################

data_UFALAR
_chemical_formula_moiety         '(C136 H104 Ag8 Co6 N40 O24)n'
_symmetry_cell_setting           triclinic
_symmetry_space_group_name_H-M   'P 1'
_symmetry_Int_Tables_number      1
_space_group_name_Hall           'P 1'
loop_
_symmetry_equiv_pos_site_id
_symmetry_equiv_pos_as_xyz
1 x,y,z
_cell_length_a                   18.302(5)
_cell_length_b                   18.201(5)
_cell_length_c                   14.536(5)
_cell_angle_alpha                90
_cell_angle_beta                 90
_cell_angle_gamma                90
_cell_volume                     4842.16
loop_
_atom_site_label
_atom_site_type_symbol
_atom_site_fract_x
_atom_site_fract_y
_atom_site_fract_z
C1 C 0.3171(4) 0.1262(4) 0.4778(5)
C2 C 0.3262(4) 0.2036(4) 0.4879(6)
H1 H 0.363266 0.222665 0.524514
C3 C 0.2806(5) 0.2475(4) 0.4439(6)
H2 H 0.285669 0.298078 0.450899
C4 C 0.2256(4) 0.2211(4) 0.3877(6)
H3 H 0.193050 0.252513 0.358382
C5 C 0.2213(4) 0.1460(4) 0.3773(5)
C6 C 0.1671(4) 0.1051(4) 0.3201(6)
H4 H 0.032830 0.032995 0.321585
C15 C 0.3576(4) 0.0684(4) 0.5299(6)
Co1 Co 0.250000 -0.000000 0.41979(9)
N1 N 0.2654(3) 0.1015(3) 0.4240(4)
N2 N 0.1762(3) 0.0312(3) 0.3277(4)
N5 N 0.3277(3) 0.0022(3) 0.5119(4)
O1 O 0.4113(3) 0.0819(3) 0.5780(4)
O2 O 0.1241(3) 0.1375(3) 0.2706(4)
C24 C 0.4479(4) 0.0077(4) 0.2916(6)
C25 C 0.4936(5) 0.0600(5) 0.2530(6)
H16 H 0.543744 0.052833 0.258583
C26 C 0.1500(5) 0.1701(5) 0.6423(6)
H17 H 0.175869 0.198176 0.684701
C27 C 0.1778(4) 0.1037(5) 0.6138(6)
H18 H 0.221781 0.086988 0.638092
C28 C 0.1420(4) 0.0625(4) 0.5511(5)
C29 C 0.0732(4) 0.0877(4) 0.5211(6)
H19 H 0.045718 0.059950 0.480071
C30 C 0.0478(4) 0.1524(5) 0.5527(6)
H20 H 0.001644 0.167667 0.533952
C31 C 0.3734(4) 0.0170(4) 0.2848(5)
C33 C 0.3994(5) 0.1258(5) 0.2001(6)
H21 H 0.381676 0.166114 0.167730
C34 C 0.3504(4) 0.0760(5) 0.2365(6)
H22 H 0.300552 0.083228 0.227593
Ag2 Ag 0.54196(4) 0.20007(4) 0.15220(6)
N8 N 0.4717(4) 0.1177(4) 0.2101(5)
N9 N 0.0852(4) 0.1953(4) 0.6091(6)
O6 O 0.6625(6) 0.1219(7) 0.1209(9)
Ag3 Ag 0.04196(4) 0.29993(4) 0.65220(6)
N11 N 0.5852(4) 0.3047(4) 0.1091(6)
H25 H 0.651144 0.0811513 0.0777846
H26 H 0.700485 0.154088 0.0934236
H5 H 0.956256 0.947167 0.258583
Ag1 Ag 0.95804(4) 0.79993(4) 0.15220(6)
O3 O 0.8375(6) 0.8781(7) 0.1209(9)
N12 N 0.9148(4) 0.6953(4) 0.1091(6)
H23 H 0.848856 0.918849 0.0777846
H24 H 0.799515 0.845912 0.0934236
H5_2 H 0.043744 0.447167 0.758583
O3_2 O 0.1625(6) 0.3781(7) 0.6209(9)
H23_2 H 0.151144 0.418849 0.577785
H24_2 H 0.200485 0.345912 0.593424
H1_2 H 0.636734 0.722665 0.024514
C9 C 0.6500(5) 0.3299(5) 0.1423(6)
H6 H 0.675869 0.301824 0.184701
C10 C 0.6778(4) 0.3963(5) 0.1138(6)
H7 H 0.721781 0.413012 0.138092
C11 C 0.6420(4) 0.4375(4) 0.0511(5)
C12 C 0.5732(4) 0.4123(4) 0.0211(6)
C13 C 0.5478(4) 0.3476(5) 0.0527(6)
H9 H 0.501644 0.332333 0.033952
C15_2 C 0.6424(4) 0.5684(4) 0.0299(6)
N5_2 N 0.6723(3) 0.5022(3) 0.0119(4)
O1_2 O 0.5887(3) 0.5819(3) 0.0780(4)
H12 H 0.863266 0.277335 0.024514
C26_2 C 0.8500(5) 0.6701(5) 0.1423(6)
H17_2 H 0.824131 0.698176 0.184701
C27_2 C 0.8222(4) 0.6037(5) 0.1138(6)
H18_2 H 0.778219 0.586988 0.138092
C28_2 C 0.8580(4) 0.5625(4) 0.0511(5)
C29_2 C 0.9268(4) 0.5877(4) 0.0211(6)
C30_2 C 0.9522(4) 0.6524(5) 0.0527(6)
H20_2 H 0.998356 0.667667 0.033952
C32 C 0.8576(4) 0.4316(4) 0.0299(6)
N10 N 0.8277(3) 0.4978(3) 0.0119(4)
O4 O 0.9113(3) 0.4181(3) 0.0780(4)
C7 C 0.0521(4) 0.9923(4) 0.2916(6)
C8 C 0.0064(5) 0.9400(5) 0.2530(6)
C9_2 C 0.3500(5) 0.8299(5) 0.6423(6)
H6_2 H 0.324131 0.801824 0.684701
C10_2 C 0.3222(4) 0.8963(5) 0.6138(6)
H7_2 H 0.278219 0.913012 0.638092
C11_2 C 0.3580(4) 0.9375(4) 0.5511(5)
C12_2 C 0.4268(4) 0.9123(4) 0.5211(6)
H8 H 0.454282 0.940050 0.480071
C13_2 C 0.4522(4) 0.8476(5) 0.5527(6)
H9_2 H 0.498356 0.832333 0.533952
C14 C 0.1266(4) 0.9830(4) 0.2848(5)
C16 C 0.1006(5) 0.8742(5) 0.2001(6)
H10 H 0.118324 0.833886 0.167730
C17 C 0.1496(4) 0.9240(5) 0.2365(6)
H11 H 0.199448 0.916772 0.227593
Co1_2 Co 0.250000 1.000000 0.41979(9)
N3 N 0.0283(4) 0.8823(4) 0.2101(5)
N4 N 0.4148(4) 0.8047(4) 0.6091(6)
C18 C 0.1829(4) 0.8738(4) 0.4778(5)
C19 C 0.1738(4) 0.7964(4) 0.4879(6)
H12_2 H 0.136734 0.777335 0.524514
C20 C 0.2194(5) 0.7525(4) 0.4439(6)
H13 H 0.214331 0.701922 0.450899
C21 C 0.2744(4) 0.7789(4) 0.3877(6)
H14 H 0.306950 0.747487 0.358382
C22 C 0.2787(4) 0.8540(4) 0.3773(5)
C23 C 0.3329(4) 0.8949(4) 0.3201(6)
H15 H 0.467170 0.967005 0.321585
C32_2 C 0.1424(4) 0.9316(4) 0.5299(6)
N6 N 0.2346(3) 0.8985(3) 0.4240(4)
N7 N 0.3238(3) 0.9688(3) 0.3277(4)
N10_2 N 0.1723(3) 0.9978(3) 0.5119(4)
O4_2 O 0.0887(3) 0.9181(3) 0.5780(4)
O5 O 0.3759(3) 0.8625(3) 0.2706(4)
Ag4 Ag 0.45804(4) 0.70007(4) 0.65220(6)
C1_2 C 0.6829(4) 0.6262(4) 0.9778(5)
C2_2 C 0.6738(4) 0.7036(4) 0.9879(6)
C3_2 C 0.7194(5) 0.7475(4) 0.9439(6)
H2_2 H 0.714331 0.798078 0.950899
C4_2 C 0.7744(4) 0.7211(4) 0.8877(6)
H3_2 H 0.806950 0.752513 0.858382
C5_2 C 0.7787(4) 0.6460(4) 0.8773(5)
C6_2 C 0.8329(4) 0.6051(4) 0.8201(6)
C7_2 C 0.9479(4) 0.4923(4) 0.7916(6)
H4_2 H 0.967170 0.532995 0.821585
C8_2 C 0.9936(5) 0.4400(5) 0.7530(6)
H8_2 H 0.545718 0.440050 0.980071
C14_2 C 0.8734(4) 0.4830(4) 0.7848(5)
C16_2 C 0.8994(5) 0.3742(5) 0.7001(6)
H10_2 H 0.881676 0.333886 0.667730
C17_2 C 0.8504(4) 0.4240(5) 0.7365(6)
H11_2 H 0.800552 0.416772 0.727593
Co1_3 Co 0.750000 0.500000 0.91979(9)
N1_2 N 0.7346(3) 0.6015(3) 0.9240(4)
N2_2 N 0.8238(3) 0.5312(3) 0.8277(4)
N3_2 N 0.9717(4) 0.3823(4) 0.7101(5)
O2_2 O 0.8759(3) 0.6375(3) 0.7706(4)
C18_2 C 0.8171(4) 0.3738(4) 0.9778(5)
C19_2 C 0.8262(4) 0.2964(4) 0.9879(6)
C20_2 C 0.7806(5) 0.2525(4) 0.9439(6)
H13_2 H 0.785669 0.201922 0.950899
C21_2 C 0.7256(4) 0.2789(4) 0.8877(6)
H14_2 H 0.693050 0.247487 0.858382
C22_2 C 0.7213(4) 0.3540(4) 0.8773(5)
C23_2 C 0.6671(4) 0.3949(4) 0.8201(6)
C24_2 C 0.5521(4) 0.5077(4) 0.7916(6)
H15_2 H 0.532830 0.467005 0.821585
C25_2 C 0.5064(5) 0.5600(5) 0.7530(6)
H16_2 H 0.456256 0.552833 0.758583
H19_2 H 0.954282 0.559950 0.980071
C31_2 C 0.6266(4) 0.5170(4) 0.7848(5)
C33_2 C 0.6006(5) 0.6258(5) 0.7001(6)
H21_2 H 0.618324 0.666114 0.667730
C34_2 C 0.6496(4) 0.5760(5) 0.7365(6)
H22_2 H 0.699448 0.583228 0.727593
N6_2 N 0.7654(3) 0.3985(3) 0.9240(4)
N7_2 N 0.6762(3) 0.4688(3) 0.8277(4)
N8_2 N 0.5283(4) 0.6177(4) 0.7101(5)
O5_2 O 0.6241(3) 0.3625(3) 0.7706(4)
O6_2 O 0.3375(6) 0.6219(7) 0.6209(9)
H25_2 H 0.348856 0.581151 0.577785
H26_2 H 0.299515 0.654088 0.593424
C1_3 C 0.3171(4) 0.3738(4) 0.0222(5)
C2_3 C 0.3262(4) 0.2964(4) 0.0121(6)
C3_3 C 0.2806(5) 0.2525(4) 0.0561(6)
H2_3 H 0.285669 0.201922 0.049101
C4_3 C 0.2256(4) 0.2789(4) 0.1123(6)
H3_3 H 0.193050 0.247487 0.141618
C5_3 C 0.2213(4) 0.3540(4) 0.1227(5)
C6_3 C 0.1671(4) 0.3949(4) 0.1799(6)
C7_3 C 0.0521(4) 0.5077(4) 0.2084(6)
H4_3 H 0.032830 0.467005 0.178415
C8_3 C 0.0064(5) 0.5600(5) 0.2470(6)
H8_3 H 0.454282 0.559950 0.019929
C14_3 C 0.1266(4) 0.5170(4) 0.2152(5)
C16_3 C 0.1006(5) 0.6258(5) 0.2999(6)
H10_3 H 0.118324 0.666114 0.332270
C17_3 C 0.1496(4) 0.5760(5) 0.2635(6)
H11_3 H 0.199448 0.583228 0.272407
Co1_4 Co 0.250000 0.500000 0.08021(9)
N1_3 N 0.2654(3) 0.3985(3) 0.0760(4)
N2_3 N 0.1762(3) 0.4688(3) 0.1723(4)
N3_3 N 0.0283(4) 0.6177(4) 0.2899(5)
O2_3 O 0.1241(3) 0.3625(3) 0.2294(4)
C18_3 C 0.1829(4) 0.6262(4) 0.0222(5)
C19_3 C 0.1738(4) 0.7036(4) 0.0121(6)
C20_3 C 0.2194(5) 0.7475(4) 0.0561(6)
H13_3 H 0.214331 0.798078 0.049101
C21_3 C 0.2744(4) 0.7211(4) 0.1123(6)
H14_3 H 0.306950 0.752513 0.141618
C22_3 C 0.2787(4) 0.6460(4) 0.1227(5)
C23_3 C 0.3329(4) 0.6051(4) 0.1799(6)
C24_3 C 0.4479(4) 0.4923(4) 0.2084(6)
H15_3 H 0.467170 0.532995 0.178415
C25_3 C 0.4936(5) 0.4400(5) 0.2470(6)
H16_3 H 0.543744 0.447167 0.241417
H19_3 H 0.045718 0.440050 0.019929
C31_3 C 0.3734(4) 0.4830(4) 0.2152(5)
C33_3 C 0.3994(5) 0.3742(5) 0.2999(6)
H21_3 H 0.381676 0.333886 0.332270
C34_3 C 0.3504(4) 0.4240(5) 0.2635(6)
H22_3 H 0.300552 0.416772 0.272407
Ag2_2 Ag 0.54196(4) 0.29993(4) 0.34780(6)
N6_3 N 0.2346(3) 0.6015(3) 0.0760(4)
N7_3 N 0.3238(3) 0.5312(3) 0.1723(4)
N8_3 N 0.4717(4) 0.3823(4) 0.2899(5)
O5_3 O 0.3759(3) 0.6375(3) 0.2294(4)
O6_3 O 0.6625(6) 0.3781(7) 0.3791(9)
N11_2 N 0.5852(4) 0.1953(4) 0.3909(6)
H25_3 H 0.651144 0.418849 0.422215
H26_3 H 0.700485 0.345912 0.406576
C7_4 C 0.9479(4) 0.0077(4) 0.7084(6)
C8_4 C 0.9936(5) 0.0600(5) 0.7470(6)
C9_3 C 0.6500(5) 0.1701(5) 0.3577(6)
H6_3 H 0.675869 0.198176 0.315299
C10_3 C 0.6778(4) 0.1037(5) 0.3862(6)
H7_3 H 0.721781 0.086988 0.361908
C11_3 C 0.6420(4) 0.0625(4) 0.4489(5)
C12_3 C 0.5732(4) 0.0877(4) 0.4789(6)
H8_4 H 0.545718 0.059950 0.519929
C13_3 C 0.5478(4) 0.1524(5) 0.4473(6)
H9_3 H 0.501644 0.167667 0.466048
C14_4 C 0.8734(4) 0.0170(4) 0.7152(5)
C16_4 C 0.8994(5) 0.1258(5) 0.7999(6)
H10_4 H 0.881676 0.166114 0.832270
C17_4 C 0.8504(4) 0.0760(5) 0.7635(6)
H11_4 H 0.800552 0.083228 0.772407
Co1_5 Co 0.750000 0.000000 0.58021(9)
N3_4 N 0.9717(4) 0.1177(4) 0.7899(5)
C18_4 C 0.8171(4) 0.1262(4) 0.5222(5)
C19_4 C 0.8262(4) 0.2036(4) 0.5121(6)
H12_3 H 0.863266 0.222665 0.475486
C20_4 C 0.7806(5) 0.2475(4) 0.5561(6)
H13_4 H 0.785669 0.298078 0.549101
C21_4 C 0.7256(4) 0.2211(4) 0.6123(6)
H14_4 H 0.693050 0.252513 0.641618
C22_4 C 0.7213(4) 0.1460(4) 0.6227(5)
C23_4 C 0.6671(4) 0.1051(4) 0.6799(6)
H15_4 H 0.532830 0.032995 0.678415
C32_3 C 0.8576(4) 0.0684(4) 0.4701(6)
N6_4 N 0.7654(3) 0.1015(3) 0.5760(4)
N7_4 N 0.6762(3) 0.0312(3) 0.6723(4)
N10_3 N 0.8277(3) 0.0022(3) 0.4881(4)
O4_3 O 0.9113(3) 0.0819(3) 0.4220(4)
O5_4 O 0.6241(3) 0.1375(3) 0.7294(4)
H1_3 H 0.363266 0.277335 0.975486
C9_4 C 0.3500(5) 0.6701(5) 0.8577(6)
H6_4 H 0.324131 0.698176 0.815299
C10_4 C 0.3222(4) 0.6037(5) 0.8862(6)
H7_4 H 0.278219 0.586988 0.861908
C11_4 C 0.3580(4) 0.5625(4) 0.9489(5)
C12_4 C 0.4268(4) 0.5877(4) 0.9789(6)
C13_4 C 0.4522(4) 0.6524(5) 0.9473(6)
H9_4 H 0.498356 0.667667 0.966048
C15_3 C 0.3576(4) 0.4316(4) 0.9701(6)
N4_2 N 0.4148(4) 0.6953(4) 0.8909(6)
N5_3 N 0.3277(3) 0.4978(3) 0.9881(4)
O1_3 O 0.4113(3) 0.4181(3) 0.9220(4)
H12_4 H 0.136734 0.722665 0.975486
C26_3 C 0.1500(5) 0.3299(5) 0.8577(6)
H17_3 H 0.175869 0.301824 0.815299
C27_3 C 0.1778(4) 0.3963(5) 0.8862(6)
H18_3 H 0.221781 0.413012 0.861908
C28_3 C 0.1420(4) 0.4375(4) 0.9489(5)
C29_3 C 0.0732(4) 0.4123(4) 0.9789(6)
C30_3 C 0.0478(4) 0.3476(5) 0.9473(6)
H20_3 H 0.001644 0.332333 0.966048
C32_4 C 0.1424(4) 0.5684(4) 0.9701(6)
N9_2 N 0.0852(4) 0.3047(4) 0.8909(6)
N10_4 N 0.1723(3) 0.5022(3) 0.9881(4)
O4_4 O 0.0887(3) 0.5819(3) 0.9220(4)
Ag3_2 Ag 0.04196(4) 0.20007(4) 0.84780(6)
Ag4_2 Ag 0.45804(4) 0.79993(4) 0.84780(6)
H5_3 H 0.956256 0.552833 0.241417
Ag1_2 Ag 0.95804(4) 0.70007(4) 0.34780(6)
O3_3 O 0.8375(6) 0.6219(7) 0.3791(9)
N12_2 N 0.9148(4) 0.8047(4) 0.3909(6)
H23_3 H 0.848856 0.581151 0.422215
H24_3 H 0.799515 0.654088 0.406576
H5_4 H 0.043744 0.052833 0.741417
O3_4 O 0.1625(6) 0.1219(7) 0.8791(9)
H23_4 H 0.151144 0.0811513 0.922215
H24_4 H 0.200485 0.154088 0.906576
C1_4 C 0.6829(4) 0.8738(4) 0.5222(5)
C2_4 C 0.6738(4) 0.7964(4) 0.5121(6)
H1_4 H 0.636734 0.777335 0.475486
C3_4 C 0.7194(5) 0.7525(4) 0.5561(6)
H2_4 H 0.714331 0.701922 0.549101
C4_4 C 0.7744(4) 0.7789(4) 0.6123(6)
H3_4 H 0.806950 0.747487 0.641618
C5_4 C 0.7787(4) 0.8540(4) 0.6227(5)
C6_4 C 0.8329(4) 0.8949(4) 0.6799(6)
H4_4 H 0.967170 0.967005 0.678415
C15_4 C 0.6424(4) 0.9316(4) 0.4701(6)
Co1_6 Co 0.750000 1.000000 0.58021(9)
N1_4 N 0.7346(3) 0.8985(3) 0.5760(4)
N2_4 N 0.8238(3) 0.9688(3) 0.6723(4)
N5_4 N 0.6723(3) 0.9978(3) 0.4881(4)
O1_4 O 0.5887(3) 0.9181(3) 0.4220(4)
O2_4 O 0.8759(3) 0.8625(3) 0.7294(4)
C24_4 C 0.5521(4) 0.9923(4) 0.7084(6)
C25_4 C 0.5064(5) 0.9400(5) 0.7470(6)
H16_4 H 0.456256 0.947167 0.741417
C26_4 C 0.8500(5) 0.8299(5) 0.3577(6)
H17_4 H 0.824131 0.801824 0.315299
C27_4 C 0.8222(4) 0.8963(5) 0.3862(6)
H18_4 H 0.778219 0.913012 0.361908
C28_4 C 0.8580(4) 0.9375(4) 0.4489(5)
C29_4 C 0.9268(4) 0.9123(4) 0.4789(6)
H19_4 H 0.954282 0.940050 0.519929
C30_4 C 0.9522(4) 0.8476(5) 0.4473(6)
H20_4 H 0.998356 0.832333 0.466048
C31_4 C 0.6266(4) 0.9830(4) 0.7152(5)
C33_4 C 0.6006(5) 0.8742(5) 0.7999(6)
H21_4 H 0.618324 0.833886 0.832270
C34_4 C 0.6496(4) 0.9240(5) 0.7635(6)
H22_4 H 0.699448 0.916772 0.772407
N8_4 N 0.5283(4) 0.8823(4) 0.7899(5)
O6_4 O 0.3375(6) 0.8781(7) 0.8791(9)
H25_4 H 0.348856 0.918849 0.922215
H26_4 H 0.299515 0.845912 0.906576
loop_
_geom_bond_atom_site_label_1
_geom_bond_atom_site_label_2
_geom_bond_site_symmetry_1
_geom_bond_site_symmetry_2
C1 C2 1_555 1_555
C2 H1 1_555 1_555
C3 C2 1_555 1_555
H2 C3 1_555 1_555
C4 C3 1_555 1_555
H3 C4 1_555 1_555
C5 C4 1_555 1_555
C6 C5 1_555 1_555
C15 C1 1_555 1_555
Co1 N1 1_555 1_555
N1 C1 1_555 1_555
N2 C6 1_555 1_555
O1 C15 1_555 1_555
O2 C6 1_555 1_555
C25 C24 1_555 1_555
H16 C25 1_555 1_555
C26 H17 1_555 1_555
C27 C26 1_555 1_555
H18 C27 1_555 1_555
C28 C27 1_555 1_555
C29 C28 1_555 1_555
H19 C29 1_555 1_555
C30 C29 1_555 1_555
H20 C30 1_555 1_555
C31 C24 1_555 1_555
C33 H21 1_555 1_555
C34 C31 1_555 1_555
H22 C34 1_555 1_555
Ag2 N8 1_555 1_555
N8 C25 1_555 1_555
N9 C26 1_555 1_555
O6 Ag2 1_555 1_555
Ag3 N9 1_555 1_555
N11 Ag2 1_555 1_555
C5 N1 1_555 1_555
C15 N5 1_555 1_555
Co1 N2 1_555 1_555
Co1 N5 1_555 1_555
C30 N9 1_555 1_555
C33 C34 1_555 1_555
C33 N8 1_555 1_555
O6 H25 1_555 1_555
O6 H26 1_555 1_555
O3 Ag1 1_555 1_555
N12 Ag1 1_555 1_555
O3 H23 1_555 1_555
O3 H24 1_555 1_555
O3_2 Ag3 1_555 1_555
O3_2 H23_2 1_555 1_555
O3_2 H24_2 1_555 1_555
C9 H6 1_555 1_555
C10 C9 1_555 1_555
H7 C10 1_555 1_555
C11 C10 1_555 1_555
C12 C11 1_555 1_555
C13 C12 1_555 1_555
H9 C13 1_555 1_555
N11 C9 1_555 1_555
N5_2 C11 1_555 1_555
O1_2 C15_2 1_555 1_555
C26_2 H17_2 1_555 1_555
C27_2 C26_2 1_555 1_555
H18_2 C27_2 1_555 1_555
C28_2 C27_2 1_555 1_555
C29_2 C28_2 1_555 1_555
C30_2 C29_2 1_555 1_555
H20_2 C30_2 1_555 1_555
N12 C26_2 1_555 1_555
O4 C32 1_555 1_555
C13 N11 1_555 1_555
C15_2 N5_2 1_555 1_555
C28_2 N10 1_555 1_555
C30_2 N12 1_555 1_555
C32 N10 1_555 1_555
C8 C7 1_555 1_555
C9_2 H6_2 1_555 1_555
C10_2 C9_2 1_555 1_555
H7_2 C10_2 1_555 1_555
C11_2 C10_2 1_555 1_555
C12_2 C11_2 1_555 1_555
H8 C12_2 1_555 1_555
C13_2 C12_2 1_555 1_555
H9_2 C13_2 1_555 1_555
C14 C7 1_555 1_555
C16 H10 1_555 1_555
C17 C14 1_555 1_555
H11 C17 1_555 1_555
N3 C8 1_555 1_555
N4 C9_2 1_555 1_555
C18 C19 1_555 1_555
C19 H12_2 1_555 1_555
C20 C19 1_555 1_555
H13 C20 1_555 1_555
C21 C20 1_555 1_555
H14 C21 1_555 1_555
C22 C21 1_555 1_555
C23 C22 1_555 1_555
C32_2 C18 1_555 1_555
N6 Co1_2 1_555 1_555
N7 Co1_2 1_555 1_555
N10_2 Co1_2 1_555 1_555
O4_2 C32_2 1_555 1_555
O5 C23 1_555 1_555
Ag4 N4 1_555 1_555
C13_2 N4 1_555 1_555
C16 C17 1_555 1_555
C16 N3 1_555 1_555
C18 N6 1_555 1_555
C22 N6 1_555 1_555
C23 N7 1_555 1_555
C32_2 N10_2 1_555 1_555
C1_2 C2_2 1_555 1_555
C3_2 C2_2 1_555 1_555
H2_2 C3_2 1_555 1_555
C4_2 C3_2 1_555 1_555
H3_2 C4_2 1_555 1_555
C5_2 C4_2 1_555 1_555
C6_2 C5_2 1_555 1_555
C7_2 H4_2 1_555 1_555
C8_2 C7_2 1_555 1_555
C14_2 C7_2 1_555 1_555
C16_2 H10_2 1_555 1_555
C17_2 C14_2 1_555 1_555
H11_2 C17_2 1_555 1_555
Co1_3 N1_2 1_555 1_555
N1_2 C1_2 1_555 1_555
N2_2 C6_2 1_555 1_555
N3_2 C8_2 1_555 1_555
O2_2 C6_2 1_555 1_555
C18_2 C19_2 1_555 1_555
C20_2 C19_2 1_555 1_555
H13_2 C20_2 1_555 1_555
C21_2 C20_2 1_555 1_555
H14_2 C21_2 1_555 1_555
C22_2 C21_2 1_555 1_555
C23_2 C22_2 1_555 1_555
C24_2 H15_2 1_555 1_555
C25_2 C24_2 1_555 1_555
H16_2 C25_2 1_555 1_555
C31_2 C24_2 1_555 1_555
C33_2 H21_2 1_555 1_555
C34_2 C31_2 1_555 1_555
H22_2 C34_2 1_555 1_555
Ag4 N8_2 1_555 1_555
N6_2 Co1_3 1_555 1_555
N7_2 Co1_3 1_555 1_555
N8_2 C25_2 1_555 1_555
O5_2 C23_2 1_555 1_555
O6_2 Ag4 1_555 1_555
C5_2 N1_2 1_555 1_555
C14_2 N2_2 1_555 1_555
C16_2 C17_2 1_555 1_555
C16_2 N3_2 1_555 1_555
Co1_3 N2_2 1_555 1_555
C18_2 N6_2 1_555 1_555
C22_2 N6_2 1_555 1_555
C23_2 N7_2 1_555 1_555
C31_2 N7_2 1_555 1_555
C33_2 C34_2 1_555 1_555
C33_2 N8_2 1_555 1_555
O6_2 H25_2 1_555 1_555
O6_2 H26_2 1_555 1_555
C1_3 C2_3 1_555 1_555
C3_3 C2_3 1_555 1_555
H2_3 C3_3 1_555 1_555
C4_3 C3_3 1_555 1_555
H3_3 C4_3 1_555 1_555
C5_3 C4_3 1_555 1_555
C6_3 C5_3 1_555 1_555
C7_3 H4_3 1_555 1_555
C8_3 C7_3 1_555 1_555
C14_3 C7_3 1_555 1_555
C16_3 H10_3 1_555 1_555
C17_3 C14_3 1_555 1_555
H11_3 C17_3 1_555 1_555
Co1_4 N1_3 1_555 1_555
N1_3 C1_3 1_555 1_555
N2_3 C6_3 1_555 1_555
N3_3 C8_3 1_555 1_555
O2_3 C6_3 1_555 1_555
C18_3 C19_3 1_555 1_555
C20_3 C19_3 1_555 1_555
H13_3 C20_3 1_555 1_555
C21_3 C20_3 1_555 1_555
H14_3 C21_3 1_555 1_555
C22_3 C21_3 1_555 1_555
C23_3 C22_3 1_555 1_555
C24_3 H15_3 1_555 1_555
C25_3 C24_3 1_555 1_555
H16_3 C25_3 1_555 1_555
C31_3 C24_3 1_555 1_555
C33_3 H21_3 1_555 1_555
C34_3 C31_3 1_555 1_555
H22_3 C34_3 1_555 1_555
Ag2_2 N8_3 1_555 1_555
N6_3 Co1_4 1_555 1_555
N7_3 Co1_4 1_555 1_555
N8_3 C25_3 1_555 1_555
O5_3 C23_3 1_555 1_555
O6_3 Ag2_2 1_555 1_555
N11_2 Ag2_2 1_555 1_555
C5_3 N1_3 1_555 1_555
C14_3 N2_3 1_555 1_555
C16_3 C17_3 1_555 1_555
C16_3 N3_3 1_555 1_555
Co1_4 N2_3 1_555 1_555
C18_3 N6_3 1_555 1_555
C22_3 N6_3 1_555 1_555
C23_3 N7_3 1_555 1_555
C31_3 N7_3 1_555 1_555
C33_3 C34_3 1_555 1_555
C33_3 N8_3 1_555 1_555
O6_3 H25_3 1_555 1_555
O6_3 H26_3 1_555 1_555
C8_4 C7_4 1_555 1_555
C9_3 H6_3 1_555 1_555
C10_3 C9_3 1_555 1_555
H7_3 C10_3 1_555 1_555
C11_3 C10_3 1_555 1_555
C12_3 C11_3 1_555 1_555
H8_4 C12_3 1_555 1_555
C13_3 C12_3 1_555 1_555
H9_3 C13_3 1_555 1_555
C14_4 C7_4 1_555 1_555
C16_4 H10_4 1_555 1_555
C17_4 C14_4 1_555 1_555
H11_4 C17_4 1_555 1_555
N3_4 C8_4 1_555 1_555
N11_2 C9_3 1_555 1_555
C18_4 C19_4 1_555 1_555
C19_4 H12_3 1_555 1_555
C20_4 C19_4 1_555 1_555
H13_4 C20_4 1_555 1_555
C21_4 C20_4 1_555 1_555
H14_4 C21_4 1_555 1_555
C22_4 C21_4 1_555 1_555
C23_4 C22_4 1_555 1_555
C32_3 C18_4 1_555 1_555
N6_4 Co1_5 1_555 1_555
N7_4 Co1_5 1_555 1_555
N10_3 Co1_5 1_555 1_555
O4_3 C32_3 1_555 1_555
O5_4 C23_4 1_555 1_555
C13_3 N11_2 1_555 1_555
C16_4 C17_4 1_555 1_555
C16_4 N3_4 1_555 1_555
C18_4 N6_4 1_555 1_555
C22_4 N6_4 1_555 1_555
C23_4 N7_4 1_555 1_555
C32_3 N10_3 1_555 1_555
C9_4 H6_4 1_555 1_555
C10_4 C9_4 1_555 1_555
H7_4 C10_4 1_555 1_555
C11_4 C10_4 1_555 1_555
C12_4 C11_4 1_555 1_555
C13_4 C12_4 1_555 1_555
H9_4 C13_4 1_555 1_555
N4_2 C9_4 1_555 1_555
N5_3 C11_4 1_555 1_555
O1_3 C15_3 1_555 1_555
C26_3 H17_3 1_555 1_555
C27_3 C26_3 1_555 1_555
H18_3 C27_3 1_555 1_555
C28_3 C27_3 1_555 1_555
C29_3 C28_3 1_555 1_555
C30_3 C29_3 1_555 1_555
H20_3 C30_3 1_555 1_555
N9_2 C26_3 1_555 1_555
O4_4 C32_4 1_555 1_555
Ag3_2 N9_2 1_555 1_555
Ag4_2 N4_2 1_555 1_555
C13_4 N4_2 1_555 1_555
C15_3 N5_3 1_555 1_555
C28_3 N10_4 1_555 1_555
C30_3 N9_2 1_555 1_555
C32_4 N10_4 1_555 1_555
O3_3 Ag1_2 1_555 1_555
N12_2 Ag1_2 1_555 1_555
O3_3 H23_3 1_555 1_555
O3_3 H24_3 1_555 1_555
O3_4 Ag3_2 1_555 1_555
O3_4 H23_4 1_555 1_555
O3_4 H24_4 1_555 1_555
C1_4 C2_4 1_555 1_555
C2_4 H1_4 1_555 1_555
C3_4 C2_4 1_555 1_555
H2_4 C3_4 1_555 1_555
C4_4 C3_4 1_555 1_555
H3_4 C4_4 1_555 1_555
C5_4 C4_4 1_555 1_555
C6_4 C5_4 1_555 1_555
C15_4 C1_4 1_555 1_555
Co1_6 N1_4 1_555 1_555
N1_4 C1_4 1_555 1_555
N2_4 C6_4 1_555 1_555
O1_4 C15_4 1_555 1_555
O2_4 C6_4 1_555 1_555
C25_4 C24_4 1_555 1_555
H16_4 C25_4 1_555 1_555
C26_4 H17_4 1_555 1_555
C27_4 C26_4 1_555 1_555
H18_4 C27_4 1_555 1_555
C28_4 C27_4 1_555 1_555
C29_4 C28_4 1_555 1_555
H19_4 C29_4 1_555 1_555
C30_4 C29_4 1_555 1_555
H20_4 C30_4 1_555 1_555
C31_4 C24_4 1_555 1_555
C33_4 H21_4 1_555 1_555
C34_4 C31_4 1_555 1_555
H22_4 C34_4 1_555 1_555
Ag4_2 N8_4 1_555 1_555
N8_4 C25_4 1_555 1_555
N12_2 C26_4 1_555 1_555
O6_4 Ag4_2 1_555 1_555
C5_4 N1_4 1_555 1_555
C15_4 N5_4 1_555 1_555
Co1_6 N2_4 1_555 1_555
Co1_6 N5_4 1_555 1_555
C30_4 N12_2 1_555 1_555
C33_4 C34_4 1_555 1_555
C33_4 N8_4 1_555 1_555
O6_4 H25_4 1_555 1_555
O6_4 H26_4 1_555 1_555

#END
