
###############################################################################
#
# This file contains modified crystal structure data generated from the
# MOF subset of the Cambridge Structural Database (CSD) v543 
# hosted by the Cambridge Crystallographic Data Centre (CCDC).
#
# This work is licensed under the Creative Commons
# Attribution-NonCommercial-ShareAlike 4.0 International License.
# To view a copy of this license, visit
# http://creativecommons.org/licenses/by-nc-sa/4.0/
# or send a letter to
# Creative Commons, PO Box 1866, Mountain View, CA 94042, USA.
#
# CIF created using the CSD Python API on 29 September 2022
# The structure has been converted into the P1 space group
# The structure has a 3D framework
# The original CSD entry UFAMUM is in the monoclinic crystal system
# The original CSD entry UFAMUM is in a Sohncke space group
# The framework has been calculated to contain at least 10.0% void space
# The void calculation uses a probe of radius 1.32A, grid spacing 0.4
#
###############################################################################

data_UFAMUM
_chemical_formula_moiety         '(C32 H24 O22 Zn4)n'
_symmetry_cell_setting           triclinic
_symmetry_space_group_name_H-M   'P 1'
_symmetry_Int_Tables_number      1
_space_group_name_Hall           'P 1'
loop_
_symmetry_equiv_pos_site_id
_symmetry_equiv_pos_as_xyz
1 x,y,z
_cell_length_a                   10.042(11)
_cell_length_b                   16.470(18)
_cell_length_c                   11.508(12)
_cell_angle_alpha                90
_cell_angle_beta                 115.87
_cell_angle_gamma                90
_cell_volume                     1712.59
loop_
_atom_site_label
_atom_site_type_symbol
_atom_site_fract_x
_atom_site_fract_y
_atom_site_fract_z
O9 O 0.6398(16) 0.0258(11) 0.3363(13)
H7 H 0.6731 0.0105 0.2834
H8 H 0.6320 0.0754 0.3345
O10 O 0.9526(19) 0.0494(12) 0.4924(18)
H9 H 0.9084 0.0779 0.4116
H10 H 0.9987 0.0877 0.5615
O12 O 0.7260(17) 0.0913(9) 0.5830(15)
O13 O 0.6999(17) 0.0574(10) 0.7645(16)
O1 O 0.6241(13) 0.9267(10) 0.5594(12)
C1 C 0.601(2) 0.8543(15) 0.561(2)
C2 C 0.5033(13) 0.8081(8) 0.4304(10)
C3 C 0.4470(14) 0.7311(8) 0.4313(10)
H1 H 0.4693 0.7051 0.5093
C4 C 0.3574(14) 0.6930(7) 0.3155(13)
C5 C 0.3241(13) 0.7319(8) 0.1989(10)
H2 H 0.2641 0.7064 0.1214
C6 C 0.3804(14) 0.8088(8) 0.1980(10)
C7 C 0.4700(14) 0.8469(6) 0.3137(13)
H3 H 0.5077 0.8984 0.3131
C8 C 0.316(2) 0.6099(14) 0.321(2)
C9 C 0.3397(13) 0.8523(8) 0.0740(10)
H4 H 0.1209 0.8538 0.0274
C14 C 0.4439(10) 0.8733(9) 0.0300(12)
H6 H 0.5437 0.8629 0.0809
O2 O 0.6201(18) 0.8097(10) 0.6608(16)
O3 O 0.2740(17) 0.5913(9) 0.4170(15)
O4 O 0.3001(17) 0.5574(10) 0.2355(16)
Zn1 Zn 0.6889(3) 0.93976(14) 0.7604(2)
Zn2 Zn 0.7821(2) 0.98976(18) 0.5190(2)
O11 O 0.843(2) 0.8852(12) 0.4478(18)
H11 H 0.9143 0.9003 0.4166
H12 H 0.8862 0.8454 0.5150
O14 O 0.8936(14) 0.9102(8) 0.8446(13)
O15 O 0.9603(15) 0.9573(9) 0.7004(14)
O16 O 0.4559(17) 0.9469(11) 0.7347(15)
O17 O 0.6285(18) 0.9122(9) 0.9068(16)
Zn5 Zn 0.3111(3) 0.43976(14) 0.2396(2)
Zn7 Zn 0.2179(2) 0.48976(18) 0.4810(2)
C10 C 0.1905(12) 0.8678(8) 0.9980(12)
C11 C 0.1455(11) 0.9044(9) 0.8779(12)
C12 C 0.2496(16) 0.9254(10) 0.8338(11)
H5 H 0.2194 0.9499 0.7535
C13 C 0.3988(14) 0.9099(10) 0.9099(13)
C16 C 0.495(3) 0.9255(16) 0.851(2)
C15 C 0.984(2) 0.9294(15) 0.806(2)
C15_2 C 0.016(2) 0.4294(15) 0.194(2)
O5 O 0.1064(14) 0.4102(8) 0.1554(13)
O6 O 0.0397(15) 0.4573(9) 0.2996(14)
C10_2 C 0.8095(12) 0.3678(8) 0.0020(12)
C11_2 C 0.8545(11) 0.4044(9) 0.1221(12)
C12_2 C 0.7504(16) 0.4254(10) 0.1662(11)
H5_2 H 0.7806 0.4499 0.2465
C13_2 C 0.6012(14) 0.4099(10) 0.0901(13)
C16_2 C 0.505(3) 0.4255(16) 0.149(2)
O7 O 0.5441(17) 0.4469(11) 0.2653(15)
O8 O 0.3715(18) 0.4122(9) 0.0932(16)
O1_2 O 0.3759(13) 0.4267(10) 0.4406(12)
C1_2 C 0.399(2) 0.3543(15) 0.439(2)
C2_2 C 0.4967(13) 0.3081(8) 0.5696(10)
C3_2 C 0.5530(14) 0.2311(8) 0.5687(10)
H1_2 H 0.5307 0.2051 0.4907
C4_2 C 0.6426(14) 0.1930(7) 0.6845(13)
C5_2 C 0.6759(13) 0.2319(8) 0.8011(10)
H2_2 H 0.7359 0.2064 0.8786
C6_2 C 0.6196(14) 0.3088(8) 0.8020(10)
C7_2 C 0.5300(14) 0.3469(6) 0.6863(13)
H3_2 H 0.4923 0.3984 0.6869
C8_2 C 0.684(2) 0.1099(14) 0.679(2)
C9_2 C 0.6603(13) 0.3523(8) 0.9260(10)
H4_2 H 0.8791 0.3538 0.9726
C14_2 C 0.5561(10) 0.3733(9) 0.9700(12)
H6_2 H 0.4563 0.3629 0.9191
O2_2 O 0.3799(18) 0.3097(10) 0.3392(16)
O9_2 O 0.3602(16) 0.5258(11) 0.6637(13)
H7_2 H 0.3269 0.5105 0.7166
H8_2 H 0.3680 0.5754 0.6655
O10_2 O 0.0474(19) 0.5494(12) 0.5076(18)
H9_2 H 0.0916 0.5779 0.5884
H10_2 H 0.0013 0.5877 0.4385
O11_2 O 0.157(2) 0.3852(12) 0.5522(18)
H11_2 H 0.0857 0.4003 0.5834
H12_2 H 0.1138 0.3454 0.4850
loop_
_geom_bond_atom_site_label_1
_geom_bond_atom_site_label_2
_geom_bond_site_symmetry_1
_geom_bond_site_symmetry_2
O9 H7 1_555 1_555
H8 O9 1_555 1_555
O10 H9 1_555 1_555
H10 O10 1_555 1_555
O1 C1 1_555 1_555
C1 C2 1_555 1_555
C2 C3 1_555 1_555
C3 H1 1_555 1_555
C4 C3 1_555 1_555
C5 C4 1_555 1_555
H2 C5 1_555 1_555
C6 C5 1_555 1_555
C7 C2 1_555 1_555
H3 C7 1_555 1_555
C8 C4 1_555 1_555
C9 C6 1_555 1_555
C14 C9 1_555 1_555
H6 C14 1_555 1_555
O2 C1 1_555 1_555
O3 C8 1_555 1_555
O4 C8 1_555 1_555
Zn1 O1 1_555 1_555
Zn2 O1 1_555 1_555
O11 Zn2 1_555 1_555
H11 O11 1_555 1_555
H12 O11 1_555 1_555
O14 Zn1 1_555 1_555
O15 Zn2 1_555 1_555
O16 Zn1 1_555 1_555
O17 Zn1 1_555 1_555
Zn5 O4 1_555 1_555
Zn7 O3 1_555 1_555
C6 C7 1_555 1_555
O2 Zn1 1_555 1_555
C11 C10 1_555 1_555
C12 C11 1_555 1_555
H5 C12 1_555 1_555
C13 C12 1_555 1_555
C16 C13 1_555 1_555
O16 C16 1_555 1_555
O17 C16 1_555 1_555
O14 C15 1_555 1_555
O15 C15 1_555 1_555
O5 C15_2 1_555 1_555
O6 C15_2 1_555 1_555
Zn5 O5 1_555 1_555
Zn7 O6 1_555 1_555
C11_2 C10_2 1_555 1_555
C12_2 C11_2 1_555 1_555
H5_2 C12_2 1_555 1_555
C13_2 C12_2 1_555 1_555
C16_2 C13_2 1_555 1_555
O7 C16_2 1_555 1_555
O8 C16_2 1_555 1_555
Zn5 O7 1_555 1_555
O8 Zn5 1_555 1_555
O1_2 C1_2 1_555 1_555
C1_2 C2_2 1_555 1_555
C2_2 C3_2 1_555 1_555
C3_2 H1_2 1_555 1_555
C4_2 C3_2 1_555 1_555
C5_2 C4_2 1_555 1_555
H2_2 C5_2 1_555 1_555
C6_2 C5_2 1_555 1_555
C7_2 C2_2 1_555 1_555
H3_2 C7_2 1_555 1_555
C8_2 C4_2 1_555 1_555
C9_2 C6_2 1_555 1_555
C14_2 C9_2 1_555 1_555
H6_2 C14_2 1_555 1_555
O2_2 C1_2 1_555 1_555
O12 C8_2 1_555 1_555
O13 C8_2 1_555 1_555
O9_2 H7_2 1_555 1_555
H8_2 O9_2 1_555 1_555
O10_2 H9_2 1_555 1_555
H10_2 O10_2 1_555 1_555
Zn5 O1_2 1_555 1_555
Zn7 O1_2 1_555 1_555
O11_2 Zn7 1_555 1_555
H11_2 O11_2 1_555 1_555
H12_2 O11_2 1_555 1_555
C6_2 C7_2 1_555 1_555
O2_2 Zn5 1_555 1_555
O9_2 Zn7 1_555 1_555
O10_2 Zn7 1_555 1_555

#END
