
###############################################################################
#
# This file contains modified crystal structure data generated from the
# MOF subset of the Cambridge Structural Database (CSD) v543 
# hosted by the Cambridge Crystallographic Data Centre (CCDC).
#
# This work is licensed under the Creative Commons
# Attribution-NonCommercial-ShareAlike 4.0 International License.
# To view a copy of this license, visit
# http://creativecommons.org/licenses/by-nc-sa/4.0/
# or send a letter to
# Creative Commons, PO Box 1866, Mountain View, CA 94042, USA.
#
# CIF created using the CSD Python API on 29 September 2022
# The structure has been converted into the P1 space group
# The structure has a 3D framework
# The original CSD entry UFAMEW is in the monoclinic crystal system
# The framework has been calculated to contain at least 10.0% void space
# The void calculation uses a probe of radius 1.32A, grid spacing 0.4
#
###############################################################################

data_UFAMEW
_chemical_formula_moiety         '(C88 H88 N8 O44 Zn8)n'
_symmetry_cell_setting           triclinic
_symmetry_space_group_name_H-M   'P 1'
_symmetry_Int_Tables_number      1
_space_group_name_Hall           'P 1'
loop_
_symmetry_equiv_pos_site_id
_symmetry_equiv_pos_as_xyz
1 x,y,z
_cell_length_a                   14.3251(17)
_cell_length_b                   13.0260(16)
_cell_length_c                   17.896(2)
_cell_angle_alpha                90
_cell_angle_beta                 95.8320(10)
_cell_angle_gamma                90
_cell_volume                     3322.09
loop_
_atom_site_label
_atom_site_type_symbol
_atom_site_fract_x
_atom_site_fract_y
_atom_site_fract_z
Zn4 Zn 0.00797(3) 0.05592(3) 0.72657(2)
O16 O 0.0528(2) 0.0565(2) 0.33345(18)
O13 O 0.04493(18) 0.8695(2) 0.18660(16)
O17 O 0.1385(2) 0.8471(3) 0.29086(18)
O14 O 0.8754(2) 0.0056(2) 0.22273(16)
Zn1 Zn 0.99203(3) 0.94408(3) 0.27343(2)
Zn2 Zn 0.57378(3) 0.28016(3) 0.36473(2)
O1 O 0.54493(18) 0.6305(2) 0.68660(16)
O2 O 0.9326(2) 0.8504(2) 0.34045(16)
O3 O 0.6246(2) 0.5056(2) 0.27727(16)
O4 O 0.6459(2) 0.4153(3) 0.38420(17)
O5 O 0.8854(2) 0.7501(3) 0.24311(17)
O6 O 0.9472(2) 0.9435(2) 0.66655(18)
O7 O 0.5361(3) 0.3022(3) 0.47480(19)
H1 H 0.5270 0.3661 0.4814
H2 H 0.5820 0.2874 0.5072
O8 O 0.6385(2) 0.6529(3) 0.79086(18)
O9 O 0.4916(3) 0.1502(3) 0.3536(3)
O10 O 0.9029(3) 0.9051(3) 0.7780(2)
C1 C 0.7766(3) 0.6317(3) 0.3300(2)
H3 H 0.7760 0.6148 0.2794
O11 O 0.6912(3) 0.1917(4) 0.4007(3)
C2 C 0.8302(3) 0.7137(3) 0.3597(2)
C3 C 0.6605(3) 0.4908(3) 0.3440(2)
C4 C 0.8317(3) 0.8143(3) 0.6725(2)
C5 C 0.8873(3) 0.7763(3) 0.3097(2)
C6 C 0.7635(3) 0.7723(3) 0.7135(2)
H4 H 0.7629 0.7877 0.7642
C7 C 0.6962(3) 0.7068(3) 0.6776(2)
C8 C 0.6987(3) 0.6812(3) 0.6031(2)
H5 H 0.6520 0.6393 0.5796
C9 C 0.7236(3) 0.5749(3) 0.3766(2)
C10 C 0.7748(3) 0.6858(3) 0.4819(2)
C11 C 0.6229(3) 0.6631(3) 0.7224(2)
C12 C 0.7705(3) 0.7173(3) 0.5619(2)
C13 C 0.7248(3) 0.5995(3) 0.4521(2)
H6 H 0.6924 0.5586 0.4834
C14 C 0.8356(3) 0.7855(3) 0.5973(2)
H7 H 0.8824 0.8124 0.5707
C15 C 0.8278(3) 0.7407(3) 0.4347(2)
H8 H 0.8625 0.7969 0.4538
C16 C 0.8978(3) 0.8922(3) 0.7094(2)
N1 N 0.8244(4) 0.1434(5) 0.4650(3)
N2 N 0.3903(5) 0.0195(5) 0.3584(6)
C17 C 0.7470(5) 0.1954(7) 0.4507(4)
H9 H 0.7354 0.2433 0.4872
C18 C 0.4461(7) 0.0980(7) 0.3865(7)
H10 H 0.4473 0.1106 0.4377
C19 C 0.8595(8) 0.0798(10) 0.4137(6)
H11 H 0.8399 0.0106 0.4218
H12 H 0.9268 0.0832 0.4194
H13 H 0.8364 0.1011 0.3639
H14 H 0.3999 0.0270 0.2519
C21 C 0.8843(10) 0.1586(13) 0.5378(6)
H17 H 0.9422 0.1908 0.5283
H18 H 0.8973 0.0932 0.5614
H19 H 0.8519 0.2015 0.5703
H20 H 0.3411 0.0268 0.4594
Zn3 Zn 0.50797(3) 0.44408(3) 0.22657(2)
Zn5 Zn 0.49203(3) 0.55592(3) 0.77343(2)
Zn6 Zn 0.92622(3) 0.78016(3) 0.13527(2)
Zn7 Zn 0.42622(3) 0.71984(3) 0.63527(2)
O12 O 0.45507(18) 0.3695(2) 0.31340(16)
O15 O 0.6146(2) 0.2501(3) 0.25689(17)
Zn7_2 Zn 0.07378(3) 0.21984(3) 0.86473(2)
O9_2 O 0.0084(3) 0.6502(3) 0.1464(3)
N2_2 N 0.1097(5) 0.5195(5) 0.1416(6)
C18_2 C 0.0539(7) 0.5980(7) 0.1135(7)
H10_2 H 0.0527 0.6106 0.0623
C20 C 0.1290(9) 0.4830(11) 0.2140(8)
H14_2 H 0.1001 0.5270 0.2481
H15 H 0.1956 0.4821 0.2271
H16 H 0.1045 0.4147 0.2170
C22 C 0.1551(13) 0.4755(14) 0.0787(10)
H20_2 H 0.1589 0.5268 0.0406
H21 H 0.1190 0.4183 0.0581
H22 H 0.2172 0.4528 0.0965
O2_2 O 0.5674(2) 0.3504(2) 0.15955(16)
C1_2 C 0.7234(3) 0.1317(3) 0.1700(2)
H3_2 H 0.7240 0.1148 0.2206
C2_2 C 0.6698(3) 0.2137(3) 0.1403(2)
C5_2 C 0.6127(3) 0.2763(3) 0.1903(2)
C9_2 C 0.7764(3) 0.0749(3) 0.1234(2)
C10_2 C 0.7252(3) 0.1858(3) 0.0181(2)
C13_2 C 0.7752(3) 0.0995(3) 0.0479(2)
H6_2 H 0.8076 0.0586 0.0166
C15_2 C 0.6722(3) 0.2407(3) 0.0653(2)
H8_2 H 0.6375 0.2969 0.0462
O16_2 O 0.4472(2) 0.5565(2) 0.16655(18)
O17_2 O 0.3615(2) 0.3471(3) 0.20914(18)
O1_2 O 0.95507(18) 0.1305(2) 0.81340(16)
O6_2 O 0.5528(2) 0.4435(2) 0.83345(18)
O8_2 O 0.8615(2) 0.1529(3) 0.70914(18)
O10_2 O 0.5971(3) 0.4051(3) 0.7220(2)
C4_2 C 0.6683(3) 0.3143(3) 0.8275(2)
C6_2 C 0.7365(3) 0.2723(3) 0.7865(2)
H4_2 H 0.7371 0.2877 0.7358
C7_2 C 0.8038(3) 0.2068(3) 0.8224(2)
C8_2 C 0.8013(3) 0.1812(3) 0.8969(2)
H5_2 H 0.8480 0.1393 0.9204
C11_2 C 0.8771(3) 0.1631(3) 0.7776(2)
C12_2 C 0.7295(3) 0.2173(3) 0.9381(2)
C14_2 C 0.6644(3) 0.2855(3) 0.9027(2)
H7_2 H 0.6176 0.3124 0.9293
C16_2 C 0.6022(3) 0.3922(3) 0.7906(2)
O4_2 O 0.8541(2) 0.9153(3) 0.11580(17)
O7_2 O 0.9639(3) 0.8022(3) 0.02520(19)
H1_2 H 0.9730 0.8661 0.0186
O11_2 O 0.8088(3) 0.6917(4) 0.0993(3)
C3_2 C 0.8395(3) 0.9908(3) 0.1560(2)
N1_2 N 0.6756(4) 0.6434(5) 0.0350(3)
C17_2 C 0.7530(5) 0.6954(7) 0.0493(4)
H9_2 H 0.7646 0.7433 0.0128
C19_2 C 0.6405(8) 0.5798(10) 0.0863(6)
H11_2 H 0.6601 0.5106 0.0782
H12_2 H 0.5732 0.5832 0.0806
H13_2 H 0.6636 0.6011 0.1361
O2_3 O 0.0674(2) 0.1496(2) 0.65955(16)
O3_2 O 0.3754(2) 0.4944(2) 0.72273(16)
O4_3 O 0.3541(2) 0.5847(3) 0.61580(17)
O5_2 O 0.1146(2) 0.2499(3) 0.75689(17)
O7_3 O 0.4639(3) 0.6978(3) 0.52520(19)
H1_3 H 0.4730 0.6339 0.5186
H2_2 H 0.4180 0.7126 0.4928
O9_3 O 0.5084(3) 0.8498(3) 0.6464(3)
O10_3 O 0.0971(3) 0.0949(3) 0.2220(2)
C1_3 C 0.2234(3) 0.3683(3) 0.6700(2)
H3_3 H 0.2240 0.3852 0.7206
O11_3 O 0.3088(3) 0.8083(4) 0.5993(3)
C2_3 C 0.1698(3) 0.2863(3) 0.6403(2)
C3_3 C 0.3395(3) 0.5092(3) 0.6560(2)
C4_3 C 0.1683(3) 0.1857(3) 0.3275(2)
C5_3 C 0.1127(3) 0.2237(3) 0.6903(2)
C6_3 C 0.2365(3) 0.2277(3) 0.2865(2)
H4_3 H 0.2371 0.2123 0.2358
C7_3 C 0.3038(3) 0.2932(3) 0.3224(2)
C8_3 C 0.3013(3) 0.3188(3) 0.3969(2)
H5_3 H 0.3480 0.3607 0.4204
C9_3 C 0.2764(3) 0.4251(3) 0.6234(2)
C10_3 C 0.2252(3) 0.3142(3) 0.5181(2)
C11_3 C 0.3771(3) 0.3369(3) 0.2776(2)
C12_3 C 0.2295(3) 0.2827(3) 0.4381(2)
C13_3 C 0.2752(3) 0.4005(3) 0.5479(2)
H6_3 H 0.3076 0.4414 0.5166
C14_3 C 0.1644(3) 0.2145(3) 0.4027(2)
H7_3 H 0.1176 0.1876 0.4293
C15_3 C 0.1722(3) 0.2593(3) 0.5653(2)
H8_3 H 0.1375 0.2031 0.5462
C16_3 C 0.1022(3) 0.1078(3) 0.2906(2)
N1_3 N 0.1756(4) 0.8566(5) 0.5350(3)
N2_3 N 0.6097(5) 0.9805(5) 0.6416(6)
C17_3 C 0.2530(5) 0.8046(7) 0.5493(4)
H9_3 H 0.2646 0.7567 0.5128
C18_3 C 0.5539(7) 0.9020(7) 0.6135(7)
H10_3 H 0.5527 0.8894 0.5623
C19_3 C 0.1405(8) 0.9202(10) 0.5863(6)
H11_3 H 0.1601 0.9894 0.5782
H12_3 H 0.0732 0.9168 0.5806
H13_3 H 0.1636 0.8989 0.6361
H14_3 H 0.6001 0.9730 0.7481
C21_2 C 0.1157(10) 0.8414(13) 0.4622(6)
H17_2 H 0.0578 0.8092 0.4717
H18_2 H 0.1027 0.9068 0.4386
H19_2 H 0.1481 0.7985 0.4297
H20_3 H 0.6589 0.9732 0.5406
O15_2 O 0.3854(2) 0.7499(3) 0.74311(17)
O14_2 O 0.1246(2) 0.9944(2) 0.77727(16)
O4_4 O 0.1459(2) 0.0847(3) 0.88420(17)
O7_4 O 0.0361(3) 0.1978(3) 0.97480(19)
H1_4 H 0.0270 0.1339 0.9814
O11_4 O 0.1912(3) 0.3083(4) 0.9007(3)
C3_4 C 0.1605(3) 0.0092(3) 0.8440(2)
N1_4 N 0.3244(4) 0.3566(5) 0.9650(3)
C17_4 C 0.2470(5) 0.3046(7) 0.9507(4)
H9_4 H 0.2354 0.2567 0.9872
C19_4 C 0.3595(8) 0.4202(10) 0.9137(6)
H11_4 H 0.3399 0.4894 0.9218
H12_4 H 0.4268 0.4168 0.9194
H13_4 H 0.3364 0.3989 0.8639
O10_4 O 0.4029(3) 0.5949(3) 0.2780(2)
C4_4 C 0.3317(3) 0.6857(3) 0.1725(2)
C6_4 C 0.2635(3) 0.7277(3) 0.2135(2)
H4_4 H 0.2629 0.7123 0.2642
C7_4 C 0.1962(3) 0.7932(3) 0.1776(2)
C8_4 C 0.1987(3) 0.8188(3) 0.1031(2)
H5_4 H 0.1520 0.8607 0.0796
C11_4 C 0.1229(3) 0.8369(3) 0.2224(2)
C12_4 C 0.2705(3) 0.7827(3) 0.0619(2)
C14_4 C 0.3356(3) 0.7145(3) 0.0973(2)
H7_4 H 0.3824 0.6876 0.0707
C16_4 C 0.3978(3) 0.6078(3) 0.2094(2)
O2_4 O 0.4326(2) 0.6496(2) 0.84045(16)
C1_4 C 0.2766(3) 0.8683(3) 0.8300(2)
H3_4 H 0.2760 0.8852 0.7794
C2_4 C 0.3302(3) 0.7863(3) 0.8597(2)
C5_4 C 0.3873(3) 0.7237(3) 0.8097(2)
C9_4 C 0.2236(3) 0.9251(3) 0.8766(2)
C10_4 C 0.2748(3) 0.8142(3) 0.9819(2)
C13_4 C 0.2248(3) 0.9005(3) 0.9521(2)
H6_4 H 0.1924 0.9414 0.9834
C15_4 C 0.3278(3) 0.7593(3) 0.9347(2)
H8_4 H 0.3625 0.7031 0.9538
O9_4 O 0.9916(3) 0.3498(3) 0.8536(3)
N2_4 N 0.8903(5) 0.4805(5) 0.8584(6)
C18_4 C 0.9461(7) 0.4020(7) 0.8865(7)
H10_4 H 0.9473 0.3894 0.9377
C20_2 C 0.8710(9) 0.5170(11) 0.7860(8)
H14_4 H 0.8999 0.4730 0.7519
H15_2 H 0.8044 0.5179 0.7729
H16_2 H 0.8955 0.5853 0.7830
C22_2 C 0.8449(13) 0.5245(14) 0.9213(10)
H20_4 H 0.8411 0.4732 0.9594
H21_2 H 0.8810 0.5817 0.9419
H22_2 H 0.7828 0.5472 0.9035
C20_3 C 0.3710(9) 0.9830(11) 0.2860(8)
H15_3 H 0.3044 0.9821 0.2729
H16_3 H 0.3955 0.9147 0.2830
C22_3 C 0.3449(13) 0.9755(14) 0.4213(10)
H21_3 H 0.3810 0.9183 0.4419
H22_3 H 0.2828 0.9528 0.4035
H2_3 H 0.9180 0.7874 0.9928
C21_3 C 0.6157(10) 0.6586(13) 0.9622(6)
H17_3 H 0.5578 0.6908 0.9717
H18_3 H 0.6027 0.5932 0.9386
H19_3 H 0.6481 0.7015 0.9297
C20_4 C 0.6290(9) 0.0170(11) 0.7140(8)
H15_4 H 0.6956 0.0179 0.7271
H16_4 H 0.6045 0.0853 0.7170
C22_4 C 0.6551(13) 0.0245(14) 0.5787(10)
H21_4 H 0.6190 0.0817 0.5581
H22_4 H 0.7172 0.0472 0.5965
H2_4 H 0.0820 0.2126 0.0072
C21_4 C 0.3843(10) 0.3414(13) 0.0378(6)
H17_4 H 0.4422 0.3092 0.0283
H18_4 H 0.3973 0.4068 0.0614
H19_4 H 0.3519 0.2985 0.0703
loop_
_geom_bond_atom_site_label_1
_geom_bond_atom_site_label_2
_geom_bond_site_symmetry_1
_geom_bond_site_symmetry_2
Zn1 O2 1_555 1_555
Zn2 O4 1_555 1_555
O1 C11 1_555 1_555
O2 C5 1_555 1_555
O3 C3 1_555 1_555
O4 C3 1_555 1_555
O5 C5 1_555 1_555
O6 C16 1_555 1_555
O7 Zn2 1_555 1_555
H1 O7 1_555 1_555
H2 O7 1_555 1_555
O8 C11 1_555 1_555
O9 Zn2 1_555 1_555
O10 C16 1_555 1_555
C1 H3 1_555 1_555
O11 Zn2 1_555 1_555
C2 C1 1_555 1_555
C3 C9 1_555 1_555
C4 C6 1_555 1_555
C5 C2 1_555 1_555
C6 H4 1_555 1_555
C7 C6 1_555 1_555
C8 C7 1_555 1_555
H5 C8 1_555 1_555
C9 C1 1_555 1_555
C10 C12 1_555 1_555
C11 C7 1_555 1_555
C12 C8 1_555 1_555
C13 C9 1_555 1_555
H6 C13 1_555 1_555
C14 C4 1_555 1_555
H7 C14 1_555 1_555
C15 C2 1_555 1_555
H8 C15 1_555 1_555
C16 C4 1_555 1_555
N1 C17 1_555 1_555
N2 C18 1_555 1_555
C17 O11 1_555 1_555
H9 C17 1_555 1_555
C18 O9 1_555 1_555
H10 C18 1_555 1_555
C19 N1 1_555 1_555
H11 C19 1_555 1_555
H12 C19 1_555 1_555
H13 C19 1_555 1_555
C21 N1 1_555 1_555
H17 C21 1_555 1_555
H18 C21 1_555 1_555
H19 C21 1_555 1_555
Zn3 O3 1_555 1_555
Zn5 O1 1_555 1_555
Zn6 O5 1_555 1_555
Zn7 O1 1_555 1_555
O12 Zn2 1_555 1_555
O15 Zn2 1_555 1_555
O8 Zn5 1_555 1_555
C10 C13 1_555 1_555
C10 C15 1_555 1_555
C12 C14 1_555 1_555
Zn3 O12 1_555 1_555
N2_2 C18_2 1_555 1_555
C18_2 O9_2 1_555 1_555
H10_2 C18_2 1_555 1_555
C20 N2_2 1_555 1_555
H14_2 C20 1_555 1_555
H15 C20 1_555 1_555
H16 C20 1_555 1_555
C22 N2_2 1_555 1_555
H20_2 C22 1_555 1_555
H21 C22 1_555 1_555
H22 C22 1_555 1_555
Zn3 O2_2 1_555 1_555
O2_2 C5_2 1_555 1_555
O15 C5_2 1_555 1_555
C1_2 H3_2 1_555 1_555
C2_2 C1_2 1_555 1_555
C5_2 C2_2 1_555 1_555
C9_2 C1_2 1_555 1_555
C13_2 C9_2 1_555 1_555
H6_2 C13_2 1_555 1_555
C15_2 C2_2 1_555 1_555
H8_2 C15_2 1_555 1_555
O16_2 Zn3 1_555 1_555
O17_2 Zn3 1_555 1_555
C10_2 C13_2 1_555 1_555
C10_2 C15_2 1_555 1_555
O1_2 C11_2 1_555 1_555
O6_2 C16_2 1_555 1_555
O8_2 C11_2 1_555 1_555
O10_2 C16_2 1_555 1_555
C4_2 C6_2 1_555 1_555
C6_2 H4_2 1_555 1_555
C7_2 C6_2 1_555 1_555
C8_2 C7_2 1_555 1_555
H5_2 C8_2 1_555 1_555
C11_2 C7_2 1_555 1_555
C12_2 C8_2 1_555 1_555
C14_2 C4_2 1_555 1_555
H7_2 C14_2 1_555 1_555
C16_2 C4_2 1_555 1_555
Zn5 O6_2 1_555 1_555
C12_2 C14_2 1_555 1_555
Zn6 O4_2 1_555 1_555
O4_2 C3_2 1_555 1_555
O7_2 Zn6 1_555 1_555
H1_2 O7_2 1_555 1_555
O11_2 Zn6 1_555 1_555
N1_2 C17_2 1_555 1_555
C17_2 O11_2 1_555 1_555
H9_2 C17_2 1_555 1_555
C19_2 N1_2 1_555 1_555
H11_2 C19_2 1_555 1_555
H12_2 C19_2 1_555 1_555
H13_2 C19_2 1_555 1_555
Zn4 O2_3 1_555 1_555
Zn7 O4_3 1_555 1_555
O12 C11_3 1_555 1_555
O2_3 C5_3 1_555 1_555
O3_2 C3_3 1_555 1_555
O4_3 C3_3 1_555 1_555
O5_2 C5_3 1_555 1_555
O16 C16_3 1_555 1_555
O7_3 Zn7 1_555 1_555
H1_3 O7_3 1_555 1_555
H2_2 O7_3 1_555 1_555
O17_2 C11_3 1_555 1_555
O9_3 Zn7 1_555 1_555
O10_3 C16_3 1_555 1_555
C1_3 H3_3 1_555 1_555
O11_3 Zn7 1_555 1_555
C2_3 C1_3 1_555 1_555
C3_3 C9_3 1_555 1_555
C4_3 C6_3 1_555 1_555
C5_3 C2_3 1_555 1_555
C6_3 H4_3 1_555 1_555
C7_3 C6_3 1_555 1_555
C8_3 C7_3 1_555 1_555
H5_3 C8_3 1_555 1_555
C9_3 C1_3 1_555 1_555
C10_3 C12_3 1_555 1_555
C11_3 C7_3 1_555 1_555
C12_3 C8_3 1_555 1_555
C13_3 C9_3 1_555 1_555
H6_3 C13_3 1_555 1_555
C14_3 C4_3 1_555 1_555
H7_3 C14_3 1_555 1_555
C15_3 C2_3 1_555 1_555
H8_3 C15_3 1_555 1_555
C16_3 C4_3 1_555 1_555
N1_3 C17_3 1_555 1_555
N2_3 C18_3 1_555 1_555
C17_3 O11_3 1_555 1_555
H9_3 C17_3 1_555 1_555
C18_3 O9_3 1_555 1_555
H10_3 C18_3 1_555 1_555
C19_3 N1_3 1_555 1_555
H11_3 C19_3 1_555 1_555
H12_3 C19_3 1_555 1_555
H13_3 C19_3 1_555 1_555
C21_2 N1_3 1_555 1_555
H17_2 C21_2 1_555 1_555
H18_2 C21_2 1_555 1_555
H19_2 C21_2 1_555 1_555
Zn5 O3_2 1_555 1_555
Zn7_2 O5_2 1_555 1_555
O15_2 Zn7 1_555 1_555
C10_3 C13_3 1_555 1_555
C10_3 C15_3 1_555 1_555
C12_3 C14_3 1_555 1_555
Zn7_2 O4_4 1_555 1_555
O4_4 C3_4 1_555 1_555
O7_4 Zn7_2 1_555 1_555
H1_4 O7_4 1_555 1_555
O11_4 Zn7_2 1_555 1_555
N1_4 C17_4 1_555 1_555
C17_4 O11_4 1_555 1_555
H9_4 C17_4 1_555 1_555
C19_4 N1_4 1_555 1_555
H11_4 C19_4 1_555 1_555
H12_4 C19_4 1_555 1_555
H13_4 C19_4 1_555 1_555
O13 C11_4 1_555 1_555
O16_2 C16_4 1_555 1_555
O17 C11_4 1_555 1_555
O10_4 C16_4 1_555 1_555
C4_4 C6_4 1_555 1_555
C6_4 H4_4 1_555 1_555
C7_4 C6_4 1_555 1_555
C8_4 C7_4 1_555 1_555
H5_4 C8_4 1_555 1_555
C11_4 C7_4 1_555 1_555
C12_4 C8_4 1_555 1_555
C14_4 C4_4 1_555 1_555
H7_4 C14_4 1_555 1_555
C16_4 C4_4 1_555 1_555
C12_4 C14_4 1_555 1_555
Zn5 O2_4 1_555 1_555
O2_4 C5_4 1_555 1_555
O15_2 C5_4 1_555 1_555
C1_4 H3_4 1_555 1_555
C2_4 C1_4 1_555 1_555
C5_4 C2_4 1_555 1_555
C9_4 C1_4 1_555 1_555
C13_4 C9_4 1_555 1_555
H6_4 C13_4 1_555 1_555
C15_4 C2_4 1_555 1_555
H8_4 C15_4 1_555 1_555
C10_4 C13_4 1_555 1_555
C10_4 C15_4 1_555 1_555
N2_4 C18_4 1_555 1_555
C18_4 O9_4 1_555 1_555
H10_4 C18_4 1_555 1_555
C20_2 N2_4 1_555 1_555
H14_4 C20_2 1_555 1_555
H15_2 C20_2 1_555 1_555
H16_2 C20_2 1_555 1_555
C22_2 N2_4 1_555 1_555
H20_4 C22_2 1_555 1_555
H21_2 C22_2 1_555 1_555
H22_2 C22_2 1_555 1_555
H15_3 C20_3 1_555 1_555
H16_3 C20_3 1_555 1_555
H21_3 C22_3 1_555 1_555
H22_3 C22_3 1_555 1_555
H17_3 C21_3 1_555 1_555
H18_3 C21_3 1_555 1_555
H19_3 C21_3 1_555 1_555
H15_4 C20_4 1_555 1_555
H16_4 C20_4 1_555 1_555
H21_4 C22_4 1_555 1_555
H22_4 C22_4 1_555 1_555
H17_4 C21_4 1_555 1_555
H18_4 C21_4 1_555 1_555
H19_4 C21_4 1_555 1_555

#END
