
###############################################################################
#
# This file contains modified crystal structure data generated from the
# MOF subset of the Cambridge Structural Database (CSD) v543 
# hosted by the Cambridge Crystallographic Data Centre (CCDC).
#
# This work is licensed under the Creative Commons
# Attribution-NonCommercial-ShareAlike 4.0 International License.
# To view a copy of this license, visit
# http://creativecommons.org/licenses/by-nc-sa/4.0/
# or send a letter to
# Creative Commons, PO Box 1866, Mountain View, CA 94042, USA.
#
# CIF created using the CSD Python API on 29 September 2022
# The structure has been converted into the P1 space group
# The structure has a 3D framework
# The original CSD entry UFAQIE is in the hexagonal crystal system
# The original CSD entry UFAQIE is in a Sohncke space group
# The framework has been calculated to contain at least 10.0% void space
# The void calculation uses a probe of radius 1.32A, grid spacing 0.4
# H atom positions have been added when not included in the experimental data
#
###############################################################################

data_UFAQIE
_chemical_formula_moiety         '(C72 H102 Br6 Cd6 N12 O12)n'
_symmetry_cell_setting           triclinic
_symmetry_space_group_name_H-M   'P 1'
_symmetry_Int_Tables_number      1
_space_group_name_Hall           'P 1'
loop_
_symmetry_equiv_pos_site_id
_symmetry_equiv_pos_as_xyz
1 x,y,z
_cell_length_a                   16.3028(8)
_cell_length_b                   16.3028(8)
_cell_length_c                   14.8888(5)
_cell_angle_alpha                90
_cell_angle_beta                 90
_cell_angle_gamma                120
_cell_volume                     3427
loop_
_atom_site_label
_atom_site_type_symbol
_atom_site_fract_x
_atom_site_fract_y
_atom_site_fract_z
N2 N 0.5449(12) 0.1101(8) 0.1787(7)
C4 C 0.4359(13) 0.0061(10) 0.0724(12)
C7 C 0.4950(18) 0.0901(12) 0.1004(10)
H7 H 0.5046 0.1409 0.0645
C8 C 0.5242(18) 0.0355(11) 0.2269(11)
H8 H 0.5524 0.0452 0.2831
Cd2 Cd 0.64869(10) 0.25563(7) 0.23223(7)
Cd1 Cd 0.25563(7) 0.60694(7) 0.06556(7)
Br1 Br 0.2776(3) 0.4646(2) 0.05094(18)
N1 N 0.3786(8) 0.7613(8) 0.0893(7)
C1 C 0.4113(12) 0.9246(12) 0.1234(8)
C2 C 0.5041(13) 0.7363(14) 0.0312(10)
H2 H 0.4604 0.6687 0.0348
C3 C 0.4484(10) 0.7863(10) 0.0197(8)
H3 H 0.4916 0.8549 0.0204
H4 H 0.4084 0.9991 0.0162
C6 C 0.3375(12) 0.8244(12) 0.0961(10)
H5 H 0.2868 0.7987 0.1400
H6 H 0.3106 0.8263 0.0385
C9 C 0.4636(19) 0.9433(12) 0.2010(10)
H9 H 0.4580 0.8935 0.2360
C10 C 0.5705(17) 0.7690(19) 0.1187(13)
H10 H 0.5326 0.7660 0.1711
C11 C 0.608(2) 0.713(3) 0.133(2)
H11 H 0.5743 0.6703 0.1814
H12 H 0.6733 0.7516 0.1488
H13 H 0.6019 0.6779 0.0797
C12 C 0.637(3) 0.889(3) 0.081(5)
H14 H 0.7011 0.9172 0.1029
H15 H 0.6088 0.9245 0.1037
H16 H 0.6377 0.8909 0.0167
O3 O 0.1925(7) 0.6307(13) 0.1949(6)
N3 N 0.1101(8) 0.5652(14) 0.0120(7)
H17 H 0.409564 0.763081 0.148968
O1 O 0.3197(7) 0.6810(9) 0.9251(6)
H1 H 0.5434 0.7478 0.9785
O2 O 0.4382(11) 0.8075(7) 0.8616(6)
C5 C 0.3979(13) 0.7574(9) 0.9299(8)
Cd3 Cd 0.35131(10) 0.74437(7) 0.73223(7)
Br1_2 Br 0.8130(4) 0.2776(3) 0.21761(18)
N1_2 N 0.6173(11) 0.3786(8) 0.2560(7)
O1_2 O 0.6387(11) 0.3197(7) 0.0918(6)
C1_2 C 0.4867(17) 0.4113(12) 0.2901(8)
C2_2 C 0.7678(19) 0.5041(13) 0.1979(10)
H1_2 H 0.7956 0.5434 0.1452
H2_2 H 0.7917 0.4604 0.2015
O2_2 O 0.6307(13) 0.4382(11) 0.0283(6)
N2_2 N 0.4348(14) 0.5449(12) 0.3454(7)
C3_2 C 0.6621(14) 0.4484(10) 0.1864(8)
H3_2 H 0.6367 0.4916 0.1871
C4_2 C 0.4298(16) 0.4359(13) 0.2391(12)
H4_2 H 0.4093 0.4084 0.1829
C5_2 C 0.6405(16) 0.3979(13) 0.0966(8)
C6_2 C 0.5131(17) 0.3375(12) 0.2628(10)
H5_2 H 0.4881 0.2868 0.3067
H6_2 H 0.4843 0.3106 0.2052
C7_2 C 0.4049(22) 0.4950(18) 0.2671(10)
H7_2 H 0.3637 0.5046 0.2312
C8_2 C 0.4887(21) 0.5242(18) 0.3936(11)
H8_2 H 0.5072 0.5524 0.4498
C9_2 C 0.5203(22) 0.4636(19) 0.3677(10)
H9_2 H 0.5645 0.4580 0.4027
C10_2 C 0.8015(25) 0.5705(17) 0.2854(13)
H10_2 H 0.7666 0.5326 0.3378
C11_2 C 0.895(4) 0.608(2) 0.300(2)
H11_2 H 0.9040 0.5743 0.3481
H12_2 H 0.9217 0.6733 0.3155
H13_2 H 0.9240 0.6019 0.2464
C12_2 C 0.748(4) 0.637(3) 0.248(5)
H14_2 H 0.7839 0.7011 0.2696
H15_2 H 0.6843 0.6088 0.2704
H16_2 H 0.7468 0.6377 0.1834
Cd2_2 Cd 0.39306(12) 0.64869(10) 0.39889(7)
O3_2 O 0.5618(15) 0.1925(7) 0.3616(6)
H17_2 H 0.646483 0.409564 0.315634
Cd3_2 Cd 0.60694(12) 0.35131(10) 0.89889(7)
Br1_3 Br 0.5354(2) 0.8130(4) 0.38427(18)
N1_3 N 0.2387(8) 0.6173(11) 0.4226(7)
O1_3 O 0.3190(9) 0.6387(11) 0.2584(6)
C1_3 C 0.0754(12) 0.4867(17) 0.4567(8)
C2_3 C 0.2637(14) 0.7678(19) 0.3645(10)
H1_3 H 0.2522 0.7956 0.3118
H2_3 H 0.3313 0.7917 0.3681
C3_3 C 0.2137(10) 0.6621(14) 0.3530(8)
H3_3 H 0.1451 0.6367 0.3537
H4_3 H 0.0009 0.4093 0.3495
C5_3 C 0.2426(9) 0.6405(16) 0.2632(8)
C6_3 C 0.1756(12) 0.5131(17) 0.4294(10)
H5_3 H 0.2013 0.4881 0.4733
H6_3 H 0.1737 0.4843 0.3718
C9_3 C 0.0567(12) 0.5203(22) 0.5343(10)
H9_3 H 0.1065 0.5645 0.5693
C10_3 C 0.2310(19) 0.8015(25) 0.4520(13)
H10_3 H 0.2340 0.7666 0.5044
C11_3 C 0.287(3) 0.895(4) 0.466(2)
H11_3 H 0.3297 0.9040 0.5147
H12_3 H 0.2484 0.9217 0.4821
H13_3 H 0.3221 0.9240 0.4130
C12_3 C 0.111(3) 0.748(4) 0.414(5)
H14_3 H 0.0828 0.7839 0.4362
H15_3 H 0.0755 0.6843 0.4370
H16_3 H 0.1091 0.7468 0.3500
O3_3 O 0.3693(13) 0.5618(15) 0.5283(6)
H17_3 H 0.236919 0.646483 0.482301
N2_3 N 0.8899(8) 0.4348(14) 0.5120(7)
C4_3 C 0.9939(10) 0.4298(16) 0.4057(12)
C7_3 C 0.9099(12) 0.4049(22) 0.4337(10)
H7_3 H 0.8591 0.3637 0.3978
C8_3 C 0.9645(11) 0.4887(21) 0.5602(11)
H8_3 H 0.9548 0.5072 0.6164
Cd2_3 Cd 0.74437(7) 0.39306(12) 0.56556(7)
Br1_4 Br 0.7224(3) 0.5354(2) 0.55094(18)
N1_4 N 0.6214(8) 0.2387(8) 0.5893(7)
O1_4 O 0.6803(7) 0.3190(9) 0.4251(6)
C1_4 C 0.5887(12) 0.0754(12) 0.6234(8)
C2_4 C 0.4959(13) 0.2637(14) 0.5312(10)
H1_4 H 0.4566 0.2522 0.4785
H2_4 H 0.5396 0.3313 0.5348
C3_4 C 0.5516(10) 0.2137(10) 0.5197(8)
H3_4 H 0.5084 0.1451 0.5204
H4_4 H 0.5916 0.0009 0.5162
C5_4 C 0.6021(13) 0.2426(9) 0.4299(8)
C6_4 C 0.6625(12) 0.1756(12) 0.5961(10)
H5_4 H 0.7132 0.2013 0.6400
H6_4 H 0.6894 0.1737 0.5385
C9_4 C 0.5364(19) 0.0567(12) 0.7010(10)
H9_4 H 0.5420 0.1065 0.7360
C10_4 C 0.4295(17) 0.2310(19) 0.6187(13)
H10_4 H 0.4674 0.2340 0.6711
C11_4 C 0.392(2) 0.287(3) 0.633(2)
H11_4 H 0.4257 0.3297 0.6814
H12_4 H 0.3267 0.2484 0.6488
H13_4 H 0.3981 0.3221 0.5797
C12_4 C 0.363(3) 0.111(3) 0.581(5)
H14_4 H 0.2989 0.0828 0.6029
H15_4 H 0.3912 0.0755 0.6037
H16_4 H 0.3623 0.1091 0.5167
O3_4 O 0.8075(7) 0.3693(13) 0.6949(6)
H17_4 H 0.590436 0.236919 0.648968
N2_4 N 0.4551(12) 0.8899(8) 0.6787(7)
C4_4 C 0.5641(13) 0.9939(10) 0.5724(12)
C7_4 C 0.5050(18) 0.9099(12) 0.6004(10)
H7_4 H 0.4954 0.8591 0.5645
C8_4 C 0.4758(18) 0.9645(11) 0.7269(11)
H8_4 H 0.4476 0.9548 0.7831
Br1_5 Br 0.1870(4) 0.7224(3) 0.71761(18)
N1_5 N 0.3827(11) 0.6214(8) 0.7560(7)
O1_5 O 0.3613(11) 0.6803(7) 0.5918(6)
C1_5 C 0.5133(17) 0.5887(12) 0.7901(8)
C2_5 C 0.2322(19) 0.4959(13) 0.6979(10)
H1_5 H 0.2044 0.4566 0.6452
H2_5 H 0.2083 0.5396 0.7015
N2_5 N 0.5652(14) 0.4551(12) 0.8454(7)
C3_5 C 0.3379(14) 0.5516(10) 0.6864(8)
H3_5 H 0.3633 0.5084 0.6871
C4_5 C 0.5702(16) 0.5641(13) 0.7391(12)
H4_5 H 0.5907 0.5916 0.6829
C5_5 C 0.3595(16) 0.6021(13) 0.5966(8)
C6_5 C 0.4869(17) 0.6625(12) 0.7628(10)
H5_5 H 0.5119 0.7132 0.8067
H6_5 H 0.5157 0.6894 0.7052
C7_5 C 0.5951(22) 0.5050(18) 0.7671(10)
H7_5 H 0.6363 0.4954 0.7312
C8_5 C 0.5113(21) 0.4758(18) 0.8936(11)
H8_5 H 0.4928 0.4476 0.9498
C9_5 C 0.4797(22) 0.5364(19) 0.8677(10)
H9_5 H 0.4355 0.5420 0.9027
C10_5 C 0.1985(25) 0.4295(17) 0.7854(13)
H10_5 H 0.2334 0.4674 0.8378
C11_5 C 0.105(4) 0.392(2) 0.800(2)
H11_5 H 0.0960 0.4257 0.8481
H12_5 H 0.0783 0.3267 0.8155
H13_5 H 0.0760 0.3981 0.7464
C12_5 C 0.252(4) 0.363(3) 0.748(5)
H14_5 H 0.2161 0.2989 0.7696
H15_5 H 0.3157 0.3912 0.7704
H16_5 H 0.2532 0.3623 0.6834
H17_5 H 0.353517 0.590436 0.815634
C8_6 C 0.0355(11) 0.5113(21) 0.0602(11)
H8_6 H 0.0452 0.4928 0.1164
C9_6 C 0.9433(12) 0.4797(22) 0.0343(10)
H9_6 H 0.8935 0.4355 0.0693
H10_6 H 0.7660 0.2334 0.0044
H11_6 H 0.6703 0.0960 0.0147
Br1_6 Br 0.4646(2) 0.1870(4) 0.88427(18)
N1_6 N 0.7613(8) 0.3827(11) 0.9226(7)
O1_6 O 0.6810(9) 0.3613(11) 0.7584(6)
C1_6 C 0.9246(12) 0.5133(17) 0.9567(8)
C2_6 C 0.7363(14) 0.2322(19) 0.8645(10)
H1_6 H 0.7478 0.2044 0.8118
H2_6 H 0.6687 0.2083 0.8681
C3_6 C 0.7863(10) 0.3379(14) 0.8530(8)
H3_6 H 0.8549 0.3633 0.8537
H4_6 H 0.9991 0.5907 0.8495
C5_6 C 0.7574(9) 0.3595(16) 0.7632(8)
C6_6 C 0.8244(12) 0.4869(17) 0.9294(10)
H5_6 H 0.7987 0.5119 0.9733
H6_6 H 0.8263 0.5157 0.8718
C10_6 C 0.7690(19) 0.1985(25) 0.9520(13)
C11_6 C 0.713(3) 0.105(4) 0.966(2)
H12_6 H 0.7516 0.0783 0.9821
H13_6 H 0.6779 0.0760 0.9130
C12_6 C 0.889(3) 0.252(4) 0.914(5)
H14_6 H 0.9172 0.2161 0.9362
H15_6 H 0.9245 0.3157 0.9370
H16_6 H 0.8909 0.2532 0.8500
H17_6 H 0.763081 0.353517 0.982301
C4_6 C 0.0061(10) 0.5702(16) 0.9057(12)
C7_6 C 0.0901(12) 0.5951(22) 0.9337(10)
H7_6 H 0.1409 0.6363 0.8978
loop_
_geom_bond_atom_site_label_1
_geom_bond_atom_site_label_2
_geom_bond_site_symmetry_1
_geom_bond_site_symmetry_2
N2 C7 1_555 1_555
C7 C4 1_555 1_555
H7 C7 1_555 1_555
C8 N2 1_555 1_555
H8 C8 1_555 1_555
Cd2 N2 1_555 1_555
Cd1 Br1 1_555 1_555
N1 Cd1 1_555 1_555
H2 C2 1_555 1_555
C3 N1 1_555 1_555
H3 C3 1_555 1_555
C6 N1 1_555 1_555
H5 C6 1_555 1_555
H6 C6 1_555 1_555
C9 C1 1_555 1_555
H9 C9 1_555 1_555
C10 C2 1_555 1_555
H10 C10 1_555 1_555
C11 C10 1_555 1_555
H11 C11 1_555 1_555
H12 C11 1_555 1_555
H13 C11 1_555 1_555
C12 C10 1_555 1_555
H14 C12 1_555 1_555
H15 C12 1_555 1_555
H16 C12 1_555 1_555
O3 Cd1 1_555 1_555
N3 Cd1 1_555 1_555
C1 C6 1_555 1_555
C2 C3 1_555 1_555
N1 H17 1_555 1_555
O2 C5 1_555 1_555
C5 O1 1_555 1_555
Cd3 O2 1_555 1_555
Cd2 Br1_2 1_555 1_555
N1_2 Cd2 1_555 1_555
O1_2 Cd2 1_555 1_555
C1_2 C4_2 1_555 1_555
C2_2 H1_2 1_555 1_555
H2_2 C2_2 1_555 1_555
O2_2 C5_2 1_555 1_555
N2_2 C7_2 1_555 1_555
C3_2 N1_2 1_555 1_555
H3_2 C3_2 1_555 1_555
C4_2 H4_2 1_555 1_555
C5_2 O1_2 1_555 1_555
C6_2 N1_2 1_555 1_555
H5_2 C6_2 1_555 1_555
H6_2 C6_2 1_555 1_555
C7_2 C4_2 1_555 1_555
H7_2 C7_2 1_555 1_555
C8_2 N2_2 1_555 1_555
H8_2 C8_2 1_555 1_555
C9_2 C1_2 1_555 1_555
H9_2 C9_2 1_555 1_555
C10_2 C2_2 1_555 1_555
H10_2 C10_2 1_555 1_555
C11_2 C10_2 1_555 1_555
H11_2 C11_2 1_555 1_555
H12_2 C11_2 1_555 1_555
H13_2 C11_2 1_555 1_555
C12_2 C10_2 1_555 1_555
H14_2 C12_2 1_555 1_555
H15_2 C12_2 1_555 1_555
H16_2 C12_2 1_555 1_555
Cd2_2 N2_2 1_555 1_555
O3_2 Cd2 1_555 1_555
C1_2 C6_2 1_555 1_555
C2_2 C3_2 1_555 1_555
C3_2 C5_2 1_555 1_555
C8_2 C9_2 1_555 1_555
N1_2 H17_2 1_555 1_555
Cd2_2 Br1_3 1_555 1_555
N1_3 Cd2_2 1_555 1_555
O1_3 Cd2_2 1_555 1_555
C2_3 H1_3 1_555 1_555
H2_3 C2_3 1_555 1_555
O3 C5_3 1_555 1_555
C3_3 N1_3 1_555 1_555
H3_3 C3_3 1_555 1_555
C5_3 O1_3 1_555 1_555
C6_3 N1_3 1_555 1_555
H5_3 C6_3 1_555 1_555
H6_3 C6_3 1_555 1_555
C9_3 C1_3 1_555 1_555
H9_3 C9_3 1_555 1_555
C10_3 C2_3 1_555 1_555
H10_3 C10_3 1_555 1_555
C11_3 C10_3 1_555 1_555
H11_3 C11_3 1_555 1_555
H12_3 C11_3 1_555 1_555
H13_3 C11_3 1_555 1_555
C12_3 C10_3 1_555 1_555
H14_3 C12_3 1_555 1_555
H15_3 C12_3 1_555 1_555
H16_3 C12_3 1_555 1_555
O3_3 Cd2_2 1_555 1_555
C1_3 C6_3 1_555 1_555
C2_3 C3_3 1_555 1_555
C3_3 C5_3 1_555 1_555
N1_3 H17_3 1_555 1_555
N2_3 C7_3 1_555 1_555
C7_3 C4_3 1_555 1_555
H7_3 C7_3 1_555 1_555
C8_3 N2_3 1_555 1_555
H8_3 C8_3 1_555 1_555
Cd2_3 N2_3 1_555 1_555
Cd2_3 Br1_4 1_555 1_555
N1_4 Cd2_3 1_555 1_555
O1_4 Cd2_3 1_555 1_555
C2_4 H1_4 1_555 1_555
H2_4 C2_4 1_555 1_555
O3_2 C5_4 1_555 1_555
C3_4 N1_4 1_555 1_555
H3_4 C3_4 1_555 1_555
C5_4 O1_4 1_555 1_555
C6_4 N1_4 1_555 1_555
H5_4 C6_4 1_555 1_555
H6_4 C6_4 1_555 1_555
C9_4 C1_4 1_555 1_555
H9_4 C9_4 1_555 1_555
C10_4 C2_4 1_555 1_555
H10_4 C10_4 1_555 1_555
C11_4 C10_4 1_555 1_555
H11_4 C11_4 1_555 1_555
H12_4 C11_4 1_555 1_555
H13_4 C11_4 1_555 1_555
C12_4 C10_4 1_555 1_555
H14_4 C12_4 1_555 1_555
H15_4 C12_4 1_555 1_555
H16_4 C12_4 1_555 1_555
O3_4 Cd2_3 1_555 1_555
C1_4 C6_4 1_555 1_555
C2_4 C3_4 1_555 1_555
C3_4 C5_4 1_555 1_555
N1_4 H17_4 1_555 1_555
N2_4 C7_4 1_555 1_555
C7_4 C4_4 1_555 1_555
H7_4 C7_4 1_555 1_555
C8_4 N2_4 1_555 1_555
H8_4 C8_4 1_555 1_555
Cd3 N2_4 1_555 1_555
Cd3 Br1_5 1_555 1_555
N1_5 Cd3 1_555 1_555
O1_5 Cd3 1_555 1_555
C1_5 C4_5 1_555 1_555
C2_5 H1_5 1_555 1_555
H2_5 C2_5 1_555 1_555
O3_3 C5_5 1_555 1_555
N2_5 C7_5 1_555 1_555
C3_5 N1_5 1_555 1_555
H3_5 C3_5 1_555 1_555
C4_5 H4_5 1_555 1_555
C5_5 O1_5 1_555 1_555
C6_5 N1_5 1_555 1_555
H5_5 C6_5 1_555 1_555
H6_5 C6_5 1_555 1_555
C7_5 C4_5 1_555 1_555
H7_5 C7_5 1_555 1_555
C8_5 N2_5 1_555 1_555
H8_5 C8_5 1_555 1_555
C9_5 C1_5 1_555 1_555
H9_5 C9_5 1_555 1_555
C10_5 C2_5 1_555 1_555
H10_5 C10_5 1_555 1_555
C11_5 C10_5 1_555 1_555
H11_5 C11_5 1_555 1_555
H12_5 C11_5 1_555 1_555
H13_5 C11_5 1_555 1_555
C12_5 C10_5 1_555 1_555
H14_5 C12_5 1_555 1_555
H15_5 C12_5 1_555 1_555
H16_5 C12_5 1_555 1_555
Cd3_2 N2_5 1_555 1_555
C1_5 C6_5 1_555 1_555
C2_5 C3_5 1_555 1_555
C3_5 C5_5 1_555 1_555
C8_5 C9_5 1_555 1_555
N1_5 H17_5 1_555 1_555
C8_6 N3 1_555 1_555
H8_6 C8_6 1_555 1_555
H9_6 C9_6 1_555 1_555
Cd3_2 Br1_6 1_555 1_555
N1_6 Cd3_2 1_555 1_555
O1_6 Cd3_2 1_555 1_555
C2_6 H1_6 1_555 1_555
H2_6 C2_6 1_555 1_555
O3_4 C5_6 1_555 1_555
C3_6 N1_6 1_555 1_555
H3_6 C3_6 1_555 1_555
C5_6 O1_6 1_555 1_555
C6_6 N1_6 1_555 1_555
H5_6 C6_6 1_555 1_555
H6_6 C6_6 1_555 1_555
C10_6 C2_6 1_555 1_555
C11_6 C10_6 1_555 1_555
H12_6 C11_6 1_555 1_555
H13_6 C11_6 1_555 1_555
C12_6 C10_6 1_555 1_555
H14_6 C12_6 1_555 1_555
H15_6 C12_6 1_555 1_555
H16_6 C12_6 1_555 1_555
C1_6 C6_6 1_555 1_555
C2_6 C3_6 1_555 1_555
C3_6 C5_6 1_555 1_555
N1_6 H17_6 1_555 1_555
C7_6 C4_6 1_555 1_555
H7_6 C7_6 1_555 1_555

#END
