
###############################################################################
#
# This file contains modified crystal structure data generated from the
# MOF subset of the Cambridge Structural Database (CSD) v543 
# hosted by the Cambridge Crystallographic Data Centre (CCDC).
#
# This work is licensed under the Creative Commons
# Attribution-NonCommercial-ShareAlike 4.0 International License.
# To view a copy of this license, visit
# http://creativecommons.org/licenses/by-nc-sa/4.0/
# or send a letter to
# Creative Commons, PO Box 1866, Mountain View, CA 94042, USA.
#
# CIF created using the CSD Python API on 29 September 2022
# The structure has been converted into the P1 space group
# The structure has a 3D framework
# The original CSD entry UFAQOK01 is in the hexagonal crystal system
# The original CSD entry UFAQOK01 is in a Sohncke space group
# The framework has been calculated to contain at least 10.0% void space
# The void calculation uses a probe of radius 1.32A, grid spacing 0.4
#
###############################################################################

data_UFAQOK01
_chemical_formula_moiety         '(C72 H102 Cd6 Cl6 N12 O11)n'
_symmetry_cell_setting           triclinic
_symmetry_space_group_name_H-M   'P 1'
_symmetry_Int_Tables_number      1
_space_group_name_Hall           'P 1'
loop_
_symmetry_equiv_pos_site_id
_symmetry_equiv_pos_as_xyz
1 x,y,z
_cell_length_a                   16.3278(14)
_cell_length_b                   16.3278(14)
_cell_length_c                   14.7908(13)
_cell_angle_alpha                90
_cell_angle_beta                 90
_cell_angle_gamma                120
_cell_volume                     3414.9
loop_
_atom_site_label
_atom_site_type_symbol
_atom_site_fract_x
_atom_site_fract_y
_atom_site_fract_z
Cd1 Cd 0.64893(8) 0.25727(8) 0.52168(9)
Cl1 Cl 0.8089(4) 0.2895(5) 0.5056(4)
N1 N 0.4349(10) 0.5448(11) 0.6329(9)
N2 N 0.6174(9) 0.3801(8) 0.5462(8)
H1 H 0.6453 0.4095 0.6044
O1 O 0.6390(9) 0.3199(8) 0.3822(6)
O2 O 0.6288(9) 0.4368(9) 0.3175(7)
C1 C 0.4071(14) 0.5011(14) 0.5556(11)
H2 H 0.3709 0.5162 0.5180
C2 C 0.4284(13) 0.4337(13) 0.5267(13)
H3 H 0.4032 0.4008 0.4731
C3 C 0.4882(12) 0.4157(12) 0.5791(10)
C4 C 0.5189(15) 0.4636(15) 0.6576(12)
H4 H 0.5580 0.4525 0.6950
C5 C 0.4935(13) 0.5283(14) 0.6830(12)
H5 H 0.5174 0.5617 0.7366
C6 C 0.5138(11) 0.3419(11) 0.5517(11)
H6 H 0.4871 0.2906 0.5952
H7 H 0.4858 0.3162 0.4933
C7 C 0.6630(11) 0.4503(11) 0.4764(9)
H8 H 0.6357 0.4918 0.4767
C8 C 0.6376(12) 0.3957(12) 0.3841(9)
C9 C 0.7680(12) 0.5103(12) 0.4884(11)
H9 H 0.7947 0.4690 0.4856
H10 H 0.7926 0.5528 0.4370
C10 C 0.8046(15) 0.5689(15) 0.5727(14)
H11 H 0.7738 0.5252 0.6232
C11 C 0.774(3) 0.637(2) 0.578(2)
H12 H 0.7471 0.6399 0.5209
H13 H 0.8268 0.6981 0.5918
H14 H 0.7269 0.6189 0.6244
C12 C 0.9101(18) 0.605(2) 0.583(2)
H15 H 0.9423 0.6359 0.5285
H16 H 0.9200 0.5530 0.5956
H17 H 0.9345 0.6494 0.6324
Cd2 Cd 0.60834(11) 0.35107(8) 0.18835(9)
Cd3 Cd 0.39166(11) 0.64893(8) 0.68835(9)
N3 N 0.5448(11) 0.1099(15) 0.4662(9)
O3 O 0.5632(9) 0.1920(13) 0.6508(7)
Cd1_2 Cd 0.74273(8) 0.39166(11) 0.85501(9)
Cl1_2 Cl 0.7105(5) 0.5194(6) 0.8389(4)
N2_2 N 0.6199(8) 0.2373(12) 0.8795(8)
H1_2 H 0.5905 0.2358 0.9377
O1_2 O 0.6801(8) 0.3191(12) 0.7155(6)
H3_2 H 0.5992 0.0024 0.8064
C3_2 C 0.5843(12) 0.0725(17) 0.9124(10)
C4_2 C 0.5364(15) 0.0553(21) 0.9909(12)
C6_2 C 0.6581(11) 0.1719(16) 0.8850(11)
H6_2 H 0.7094 0.1965 0.9285
H7_2 H 0.6838 0.1696 0.8266
C7_2 C 0.5497(11) 0.2127(16) 0.8097(9)
H8_2 H 0.5082 0.1439 0.8100
C8_2 C 0.6043(12) 0.2419(17) 0.7174(9)
C9_2 C 0.4897(12) 0.2577(17) 0.8217(11)
H9_2 H 0.5310 0.3257 0.8189
H10_2 H 0.4472 0.2398 0.7703
C10_2 C 0.4311(15) 0.2357(21) 0.9060(14)
H11_2 H 0.4748 0.2486 0.9565
C11_2 C 0.363(2) 0.137(4) 0.911(2)
H12_2 H 0.3601 0.1072 0.8542
H13_2 H 0.3019 0.1287 0.9251
H14_2 H 0.3811 0.1080 0.9577
C12_2 C 0.395(2) 0.3051(27) 0.916(2)
H15_2 H 0.3641 0.3064 0.8618
H16_2 H 0.4470 0.3670 0.9289
H17_2 H 0.3506 0.2851 0.9657
N3_2 N 0.8901(15) 0.4349(19) 0.7996(9)
O3_2 O 0.8080(13) 0.3712(16) 0.9842(7)
C5_2 C 0.4717(14) 0.9652(19) 0.0163(12)
H5_2 H 0.4383 0.9557 0.0699
Cd3_2 Cd 0.35107(8) 0.74273(14) 0.02168(9)
N1_2 N 0.4552(11) 0.8901(15) 0.9662(9)
C1_2 C 0.4989(14) 0.9060(20) 0.8889(11)
H2_2 H 0.4838 0.8547 0.8513
C2_2 C 0.5663(13) 0.9947(18) 0.8600(13)
N1_3 N 0.1099(15) 0.5651(10) 0.2996(9)
C1_3 C 0.0940(20) 0.5929(14) 0.2223(11)
H2_3 H 0.1453 0.6291 0.1847
C2_3 C 0.0053(18) 0.5716(13) 0.1934(13)
C5_3 C 0.0348(19) 0.5065(13) 0.3497(12)
H5_3 H 0.0443 0.4826 0.4033
Cd3_3 Cd 0.25727(14) 0.60834(11) 0.35501(9)
Cl1_3 Cl 0.4806(6) 0.1911(4) 0.1723(4)
N2_3 N 0.7627(12) 0.3826(9) 0.2129(8)
H1_3 H 0.7642 0.3547 0.2711
O1_3 O 0.6809(12) 0.3610(9) 0.0489(6)
H3_3 H 0.9976 0.5968 0.1398
C3_3 C 0.9275(17) 0.5118(12) 0.2458(10)
C4_3 C 0.9447(21) 0.4811(15) 0.3243(12)
H4_2 H 0.8945 0.4420 0.3617
C6_3 C 0.8281(16) 0.4862(11) 0.2184(11)
H6_3 H 0.8035 0.5129 0.2619
H7_3 H 0.8304 0.5142 0.1600
C7_3 C 0.7873(16) 0.3370(11) 0.1431(9)
H8_3 H 0.8561 0.3643 0.1434
C8_3 C 0.7581(17) 0.3624(12) 0.0508(9)
C9_3 C 0.7423(17) 0.2320(12) 0.1551(11)
H9_3 H 0.6743 0.2053 0.1523
H10_3 H 0.7602 0.2074 0.1037
C10_3 C 0.7643(21) 0.1954(15) 0.2394(14)
H11_3 H 0.7514 0.2262 0.2899
C11_3 C 0.863(4) 0.226(3) 0.245(2)
H12_3 H 0.8928 0.2529 0.1876
H13_3 H 0.8713 0.1732 0.2585
H14_3 H 0.8920 0.2731 0.2911
C12_3 C 0.6949(27) 0.0899(18) 0.250(2)
H15_3 H 0.6936 0.0577 0.1952
H16_3 H 0.6330 0.0800 0.2623
H17_3 H 0.7149 0.0655 0.2991
N3_3 N 0.5651(19) 0.4552(11) 0.1329(9)
Cl1_4 Cl 0.1911(4) 0.7105(5) 0.0056(4)
N2_4 N 0.3826(9) 0.6199(8) 0.0462(8)
H1_4 H 0.3547 0.5905 0.1044
C1_4 C 0.5929(14) 0.4989(14) 0.0556(11)
H2_4 H 0.6291 0.4838 0.0180
C2_4 C 0.5716(13) 0.5663(13) 0.0267(13)
C3_4 C 0.5118(12) 0.5843(12) 0.0791(10)
C4_4 C 0.4811(15) 0.5364(15) 0.1576(12)
H4_3 H 0.4420 0.5475 0.1950
C5_4 C 0.5065(13) 0.4717(14) 0.1830(12)
H5_4 H 0.4826 0.4383 0.2366
C6_4 C 0.4862(11) 0.6581(11) 0.0517(11)
H6_4 H 0.5129 0.7094 0.0952
C10_4 C 0.1954(15) 0.4311(15) 0.0727(14)
H11_4 H 0.2262 0.4748 0.1232
C11_4 C 0.226(3) 0.363(2) 0.078(2)
H12_4 H 0.2529 0.3601 0.0209
H13_4 H 0.1732 0.3019 0.0918
H14_4 H 0.2731 0.3811 0.1244
C12_4 C 0.0899(18) 0.395(2) 0.083(2)
H15_4 H 0.0577 0.3641 0.0285
H16_4 H 0.0800 0.4470 0.0956
H17_4 H 0.0655 0.3506 0.1324
O3_3 O 0.4368(9) 0.8080(13) 0.1508(7)
O1_4 O 0.3610(9) 0.6801(8) 0.8822(6)
O2_2 O 0.3712(9) 0.5632(9) 0.8175(7)
H3_4 H 0.5968 0.5992 0.9731
H7_4 H 0.5142 0.6838 0.9933
C7_4 C 0.3370(11) 0.5497(11) 0.9764(9)
H8_4 H 0.3643 0.5082 0.9767
C8_4 C 0.3624(12) 0.6043(12) 0.8841(9)
C9_4 C 0.2320(12) 0.4897(12) 0.9884(11)
H9_4 H 0.2053 0.5310 0.9856
H10_4 H 0.2074 0.4472 0.9370
C1_5 C 0.5011(14) 0.0940(20) 0.3889(11)
H2_5 H 0.5162 0.1453 0.3513
C2_5 C 0.4337(13) 0.0053(18) 0.3600(13)
C5_5 C 0.5283(14) 0.0348(19) 0.5163(12)
H5_5 H 0.5617 0.0443 0.5699
Cl1_5 Cl 0.2895(5) 0.4806(6) 0.3389(4)
N2_5 N 0.3801(8) 0.7627(12) 0.3795(8)
H1_5 H 0.4095 0.7642 0.4377
O1_5 O 0.3199(8) 0.6809(12) 0.2155(6)
H3_5 H 0.4008 0.9976 0.3064
C3_5 C 0.4157(12) 0.9275(17) 0.4124(10)
C4_5 C 0.4636(15) 0.9447(21) 0.4909(12)
H4_4 H 0.4525 0.8945 0.5283
C6_5 C 0.3419(11) 0.8281(16) 0.3850(11)
H6_5 H 0.2906 0.8035 0.4285
H7_5 H 0.3162 0.8304 0.3266
C7_5 C 0.4503(11) 0.7873(16) 0.3097(9)
H8_5 H 0.4918 0.8561 0.3100
C8_5 C 0.3957(12) 0.7581(17) 0.2174(9)
C9_5 C 0.5103(12) 0.7423(17) 0.3217(11)
H9_5 H 0.4690 0.6743 0.3189
H10_5 H 0.5528 0.7602 0.2703
C10_5 C 0.5689(15) 0.7643(21) 0.4060(14)
H11_5 H 0.5252 0.7514 0.4565
C11_5 C 0.637(2) 0.863(4) 0.411(2)
H12_5 H 0.6399 0.8928 0.3542
H13_5 H 0.6981 0.8713 0.4251
H14_5 H 0.6189 0.8920 0.4577
C12_5 C 0.605(2) 0.6949(27) 0.416(2)
H15_5 H 0.6359 0.6936 0.3618
H16_5 H 0.5530 0.6330 0.4289
H17_5 H 0.6494 0.7149 0.4657
O3_4 O 0.1920(13) 0.6288(16) 0.4842(7)
Cl1_6 Cl 0.5194(6) 0.8089(4) 0.6723(4)
N2_6 N 0.2373(12) 0.6174(9) 0.7129(8)
H1_6 H 0.2358 0.6453 0.7711
O1_6 O 0.3191(12) 0.6390(9) 0.5489(6)
H3_6 H 0.0024 0.4032 0.6398
C3_6 C 0.0725(17) 0.4882(12) 0.7458(10)
C4_6 C 0.0553(21) 0.5189(15) 0.8243(12)
H4_5 H 0.1055 0.5580 0.8617
C6_6 C 0.1719(16) 0.5138(11) 0.7184(11)
H6_6 H 0.1965 0.4871 0.7619
H7_6 H 0.1696 0.4858 0.6600
C7_6 C 0.2127(16) 0.6630(11) 0.6431(9)
H8_6 H 0.1439 0.6357 0.6434
C8_6 C 0.2419(17) 0.6376(12) 0.5508(9)
C9_6 C 0.2577(17) 0.7680(12) 0.6551(11)
H9_6 H 0.3257 0.7947 0.6523
H10_6 H 0.2398 0.7926 0.6037
C10_6 C 0.2357(21) 0.8046(15) 0.7394(14)
H11_6 H 0.2486 0.7738 0.7899
C11_6 C 0.137(4) 0.774(3) 0.745(2)
H12_6 H 0.1072 0.7471 0.6876
H13_6 H 0.1287 0.8268 0.7585
H14_6 H 0.1080 0.7269 0.7911
C12_6 C 0.3051(27) 0.9101(18) 0.750(2)
H15_6 H 0.3064 0.9423 0.6952
H16_6 H 0.3670 0.9200 0.7623
H17_6 H 0.2851 0.9345 0.7991
C1_6 C 0.9060(20) 0.4071(14) 0.7223(11)
H2_6 H 0.8547 0.3709 0.6847
C2_6 C 0.9947(18) 0.4284(13) 0.6934(13)
C5_6 C 0.9652(19) 0.4935(13) 0.8497(12)
H5_6 H 0.9557 0.5174 0.9033
H4_6 H 0.5475 0.1055 0.0283
loop_
_geom_bond_atom_site_label_1
_geom_bond_atom_site_label_2
_geom_bond_site_symmetry_1
_geom_bond_site_symmetry_2
Cd1 Cl1 1_555 1_555
N1 C1 1_555 1_555
N2 Cd1 1_555 1_555
H1 N2 1_555 1_555
O1 Cd1 1_555 1_555
O2 C8 1_555 1_555
C1 H2 1_555 1_555
C2 C1 1_555 1_555
H3 C2 1_555 1_555
C3 C2 1_555 1_555
C4 C3 1_555 1_555
H4 C4 1_555 1_555
C5 N1 1_555 1_555
H5 C5 1_555 1_555
C6 N2 1_555 1_555
H6 C6 1_555 1_555
H7 C6 1_555 1_555
C7 N2 1_555 1_555
H8 C7 1_555 1_555
C8 O1 1_555 1_555
C9 C7 1_555 1_555
H9 C9 1_555 1_555
H10 C9 1_555 1_555
C10 C9 1_555 1_555
H11 C10 1_555 1_555
C11 C10 1_555 1_555
H12 C11 1_555 1_555
H13 C11 1_555 1_555
H14 C11 1_555 1_555
C12 C10 1_555 1_555
H15 C12 1_555 1_555
H16 C12 1_555 1_555
H17 C12 1_555 1_555
Cd2 O2 1_555 1_555
Cd3 N1 1_555 1_555
N3 Cd1 1_555 1_555
O3 Cd1 1_555 1_555
C3 C6 1_555 1_555
C4 C5 1_555 1_555
C7 C8 1_555 1_555
Cd1_2 Cl1_2 1_555 1_555
N2_2 Cd1_2 1_555 1_555
H1_2 N2_2 1_555 1_555
O1_2 Cd1_2 1_555 1_555
O3 C8_2 1_555 1_555
C4_2 C3_2 1_555 1_555
C6_2 N2_2 1_555 1_555
H6_2 C6_2 1_555 1_555
H7_2 C6_2 1_555 1_555
C7_2 N2_2 1_555 1_555
H8_2 C7_2 1_555 1_555
C8_2 O1_2 1_555 1_555
C9_2 C7_2 1_555 1_555
H9_2 C9_2 1_555 1_555
H10_2 C9_2 1_555 1_555
C10_2 C9_2 1_555 1_555
H11_2 C10_2 1_555 1_555
C11_2 C10_2 1_555 1_555
H12_2 C11_2 1_555 1_555
H13_2 C11_2 1_555 1_555
H14_2 C11_2 1_555 1_555
C12_2 C10_2 1_555 1_555
H15_2 C12_2 1_555 1_555
H16_2 C12_2 1_555 1_555
H17_2 C12_2 1_555 1_555
N3_2 Cd1_2 1_555 1_555
O3_2 Cd1_2 1_555 1_555
C3_2 C6_2 1_555 1_555
C7_2 C8_2 1_555 1_555
H5_2 C5_2 1_555 1_555
N1_2 C1_2 1_555 1_555
C1_2 H2_2 1_555 1_555
C2_2 C1_2 1_555 1_555
N1_3 C1_3 1_555 1_555
C1_3 H2_3 1_555 1_555
C2_3 C1_3 1_555 1_555
C5_3 N1_3 1_555 1_555
H5_3 C5_3 1_555 1_555
Cd3_3 N1_3 1_555 1_555
Cd2 Cl1_3 1_555 1_555
N2_3 Cd2 1_555 1_555
H1_3 N2_3 1_555 1_555
O1_3 Cd2 1_555 1_555
C4_3 C3_3 1_555 1_555
H4_2 C4_3 1_555 1_555
C6_3 N2_3 1_555 1_555
H6_3 C6_3 1_555 1_555
H7_3 C6_3 1_555 1_555
C7_3 N2_3 1_555 1_555
H8_3 C7_3 1_555 1_555
C8_3 O1_3 1_555 1_555
C9_3 C7_3 1_555 1_555
H9_3 C9_3 1_555 1_555
H10_3 C9_3 1_555 1_555
C10_3 C9_3 1_555 1_555
H11_3 C10_3 1_555 1_555
C11_3 C10_3 1_555 1_555
H12_3 C11_3 1_555 1_555
H13_3 C11_3 1_555 1_555
H14_3 C11_3 1_555 1_555
C12_3 C10_3 1_555 1_555
H15_3 C12_3 1_555 1_555
H16_3 C12_3 1_555 1_555
H17_3 C12_3 1_555 1_555
N3_3 Cd2 1_555 1_555
C3_3 C6_3 1_555 1_555
C7_3 C8_3 1_555 1_555
Cd3_2 Cl1_4 1_555 1_555
N3_3 C1_4 1_555 1_555
N2_4 Cd3_2 1_555 1_555
H1_4 N2_4 1_555 1_555
C1_4 H2_4 1_555 1_555
C2_4 C1_4 1_555 1_555
C3_4 C2_4 1_555 1_555
C4_4 C3_4 1_555 1_555
H4_3 C4_4 1_555 1_555
C5_4 N3_3 1_555 1_555
H5_4 C5_4 1_555 1_555
C6_4 N2_4 1_555 1_555
H6_4 C6_4 1_555 1_555
H11_4 C10_4 1_555 1_555
C11_4 C10_4 1_555 1_555
H12_4 C11_4 1_555 1_555
H13_4 C11_4 1_555 1_555
H14_4 C11_4 1_555 1_555
C12_4 C10_4 1_555 1_555
H15_4 C12_4 1_555 1_555
H16_4 C12_4 1_555 1_555
H17_4 C12_4 1_555 1_555
O3_3 Cd3_2 1_555 1_555
C3_4 C6_4 1_555 1_555
C4_4 C5_4 1_555 1_555
O2_2 C8_4 1_555 1_555
H8_4 C7_4 1_555 1_555
C8_4 O1_4 1_555 1_555
C9_4 C7_4 1_555 1_555
H9_4 C9_4 1_555 1_555
H10_4 C9_4 1_555 1_555
Cd3 O2_2 1_555 1_555
C7_4 C8_4 1_555 1_555
N3 C1_5 1_555 1_555
C1_5 H2_5 1_555 1_555
C2_5 C1_5 1_555 1_555
C5_5 N3 1_555 1_555
H5_5 C5_5 1_555 1_555
Cd3_3 Cl1_5 1_555 1_555
N2_5 Cd3_3 1_555 1_555
H1_5 N2_5 1_555 1_555
O1_5 Cd3_3 1_555 1_555
O3_3 C8_5 1_555 1_555
C4_5 C3_5 1_555 1_555
H4_4 C4_5 1_555 1_555
C6_5 N2_5 1_555 1_555
H6_5 C6_5 1_555 1_555
H7_5 C6_5 1_555 1_555
C7_5 N2_5 1_555 1_555
H8_5 C7_5 1_555 1_555
C8_5 O1_5 1_555 1_555
C9_5 C7_5 1_555 1_555
H9_5 C9_5 1_555 1_555
H10_5 C9_5 1_555 1_555
C10_5 C9_5 1_555 1_555
H11_5 C10_5 1_555 1_555
C11_5 C10_5 1_555 1_555
H12_5 C11_5 1_555 1_555
H13_5 C11_5 1_555 1_555
H14_5 C11_5 1_555 1_555
C12_5 C10_5 1_555 1_555
H15_5 C12_5 1_555 1_555
H16_5 C12_5 1_555 1_555
H17_5 C12_5 1_555 1_555
O3_4 Cd3_3 1_555 1_555
C3_5 C6_5 1_555 1_555
C7_5 C8_5 1_555 1_555
Cd3 Cl1_6 1_555 1_555
N2_6 Cd3 1_555 1_555
H1_6 N2_6 1_555 1_555
O1_6 Cd3 1_555 1_555
O3_4 C8_6 1_555 1_555
C4_6 C3_6 1_555 1_555
H4_5 C4_6 1_555 1_555
C6_6 N2_6 1_555 1_555
H6_6 C6_6 1_555 1_555
H7_6 C6_6 1_555 1_555
C7_6 N2_6 1_555 1_555
H8_6 C7_6 1_555 1_555
C8_6 O1_6 1_555 1_555
C9_6 C7_6 1_555 1_555
H9_6 C9_6 1_555 1_555
H10_6 C9_6 1_555 1_555
C10_6 C9_6 1_555 1_555
H11_6 C10_6 1_555 1_555
C11_6 C10_6 1_555 1_555
H12_6 C11_6 1_555 1_555
H13_6 C11_6 1_555 1_555
H14_6 C11_6 1_555 1_555
C12_6 C10_6 1_555 1_555
H15_6 C12_6 1_555 1_555
H16_6 C12_6 1_555 1_555
H17_6 C12_6 1_555 1_555
C3_6 C6_6 1_555 1_555
C7_6 C8_6 1_555 1_555
N3_2 C1_6 1_555 1_555
C1_6 H2_6 1_555 1_555
C2_6 C1_6 1_555 1_555
C5_6 N3_2 1_555 1_555
H5_6 C5_6 1_555 1_555

#END
