
###############################################################################
#
# This file contains modified crystal structure data generated from the
# MOF subset of the Cambridge Structural Database (CSD) v543 
# hosted by the Cambridge Crystallographic Data Centre (CCDC).
#
# This work is licensed under the Creative Commons
# Attribution-NonCommercial-ShareAlike 4.0 International License.
# To view a copy of this license, visit
# http://creativecommons.org/licenses/by-nc-sa/4.0/
# or send a letter to
# Creative Commons, PO Box 1866, Mountain View, CA 94042, USA.
#
# CIF created using the CSD Python API on 29 September 2022
# The structure has been converted into the P1 space group
# The structure has a 3D framework
# The original CSD entry UFAQOK is in the hexagonal crystal system
# The original CSD entry UFAQOK is in a Sohncke space group
# The framework has been calculated to contain at least 10.0% void space
# The void calculation uses a probe of radius 1.32A, grid spacing 0.4
#
###############################################################################

data_UFAQOK
_chemical_formula_moiety         '(C72 H102 Cd6 Cl6 N12 O11)n'
_symmetry_cell_setting           triclinic
_symmetry_space_group_name_H-M   'P 1'
_symmetry_Int_Tables_number      1
_space_group_name_Hall           'P 1'
loop_
_symmetry_equiv_pos_site_id
_symmetry_equiv_pos_as_xyz
1 x,y,z
_cell_length_a                   16.4524(13)
_cell_length_b                   16.4524(13)
_cell_length_c                   14.6419(8)
_cell_angle_alpha                90
_cell_angle_beta                 90
_cell_angle_gamma                120
_cell_volume                     3432.31
loop_
_atom_site_label
_atom_site_type_symbol
_atom_site_fract_x
_atom_site_fract_y
_atom_site_fract_z
C4 C 0.2573(10) 0.4890(11) 0.0017(8)
H8 H 0.3245 0.5311 0.0062
H9 H 0.2393 0.4455 0.0524
C5 C 0.2084(10) 0.5484(10) 0.0148(7)
H10 H 0.1401 0.5073 0.0150
H13 H 0.0008 0.5989 0.0180
C12 C 0.2406(11) 0.5994(15) 0.1060(8)
O1 O 0.1921(7) 0.5559(11) 0.1742(5)
O2 O 0.3112(8) 0.6769(8) 0.1105(6)
Cd2 Cd 0.26005(7) 0.64542(10) 0.30202(8)
N3 N 0.4332(14) 0.8845(8) 0.0260(6)
C1 C 0.302(2) 0.389(2) 0.9047(16)
H1 H 0.2955 0.3642 0.8442
H2 H 0.2828 0.3395 0.9486
H3 H 0.3657 0.4362 0.9155
C2 C 0.2384(15) 0.4331(15) 0.9141(11)
H4 H 0.2527 0.4765 0.8629
C3 C 0.1309(16) 0.3578(14) 0.9089(16)
H5 H 0.1228 0.3044 0.8747
H6 H 0.0978 0.3847 0.8792
H7 H 0.1066 0.3384 0.9695
C6 C 0.1687(10) 0.6492(13) 0.9371(10)
H11 H 0.1916 0.6995 0.8925
H12 H 0.1665 0.6757 0.9956
C7 C 0.0697(11) 0.5767(12) 0.9110(8)
C11 C 0.0512(11) 0.5265(14) 0.8341(10)
H16 H 0.1005 0.5325 0.7981
Cd1 Cd 0.38537(7) 0.73995(7) 0.96869(8)
Cl1 Cl 0.5158(4) 0.7127(4) 0.9849(3)
N1 N 0.2355(7) 0.6185(7) 0.9437(7)
H17 H 0.2177 0.5745 0.8993
O3 O 0.3638(13) 0.8079(7) 0.8409(5)
C8 C 0.9915(11) 0.5641(12) 0.9650(9)
C9 C 0.9026(10) 0.4994(15) 0.9366(10)
H14 H 0.8523 0.4888 0.9736
C10 C 0.9610(10) 0.4666(16) 0.8078(10)
H15 H 0.9507 0.4349 0.7527
N2 N 0.8845(8) 0.4513(11) 0.8593(6)
Cd3 Cd 0.73995(7) 0.35458(10) 0.80202(8)
C1_2 C 0.913(3) 0.302(2) 0.0714(16)
H1_2 H 0.9313 0.2955 0.0109
H2_2 H 0.9433 0.2828 0.1153
H3_2 H 0.9295 0.3657 0.0822
C2_2 C 0.8053(21) 0.2384(15) 0.0808(11)
H4_2 H 0.7762 0.2527 0.0296
C3_2 C 0.7731(21) 0.1309(16) 0.0756(16)
H5_2 H 0.8184 0.1228 0.0414
H6_2 H 0.7131 0.0978 0.0459
H7_2 H 0.7682 0.1066 0.1362
C4_2 C 0.7683(15) 0.2573(10) 0.1684(8)
H8_2 H 0.7934 0.3245 0.1729
H9_2 H 0.7938 0.2393 0.2191
C5_2 C 0.6600(14) 0.2084(10) 0.1815(7)
H10_2 H 0.6328 0.1401 0.1817
C6_2 C 0.5195(16) 0.1687(10) 0.1038(10)
H11_2 H 0.4921 0.1916 0.0592
H12_2 H 0.4908 0.1665 0.1623
C7_2 C 0.4930(16) 0.0697(11) 0.0777(8)
H13_2 H 0.4019 0.0008 0.1847
C11_2 C 0.5247(18) 0.0512(11) 0.0008(10)
C12_2 C 0.6412(19) 0.2406(11) 0.2727(8)
Cd1_2 Cd 0.64542(10) 0.38537(7) 0.13536(8)
Cl1_2 Cl 0.8031(6) 0.5158(4) 0.1516(3)
N1_2 N 0.6170(10) 0.2355(7) 0.1104(7)
H17_2 H 0.6432 0.2177 0.0660
O1_2 O 0.6362(13) 0.1921(7) 0.3409(5)
O2_2 O 0.6343(11) 0.3112(8) 0.2772(6)
Cd2_2 Cd 0.61463(12) 0.26005(7) 0.46869(8)
N3_2 N 0.5487(16) 0.4332(14) 0.1926(6)
O3_2 O 0.5559(15) 0.3638(13) 0.0075(5)
C8_2 C 0.4274(16) 0.9915(11) 0.1317(9)
C9_2 C 0.4032(18) 0.9026(10) 0.1033(10)
H14_2 H 0.3635 0.8523 0.1403
C10_2 C 0.4944(19) 0.9610(10) 0.9745(10)
H15_2 H 0.5158 0.9507 0.9194
C1_3 C 0.611(2) 0.913(3) 0.2380(16)
H1_3 H 0.6358 0.9313 0.1775
H2_3 H 0.6605 0.9433 0.2819
H3_3 H 0.5638 0.9295 0.2488
C2_3 C 0.5669(15) 0.8053(21) 0.2474(11)
H4_3 H 0.5235 0.7762 0.1962
C3_3 C 0.6422(14) 0.7731(21) 0.2422(16)
H5_3 H 0.6956 0.8184 0.2080
H6_3 H 0.6153 0.7131 0.2125
H7_3 H 0.6616 0.7682 0.3028
C4_3 C 0.5110(11) 0.7683(15) 0.3350(8)
H8_3 H 0.4689 0.7934 0.3395
H9_3 H 0.5545 0.7938 0.3857
C5_3 C 0.4516(10) 0.6600(14) 0.3481(7)
H10_3 H 0.4927 0.6328 0.3483
C6_3 C 0.3508(13) 0.5195(16) 0.2704(10)
H11_3 H 0.3005 0.4921 0.2258
H12_3 H 0.3243 0.4908 0.3289
C7_3 C 0.4233(12) 0.4930(16) 0.2443(8)
C8_3 C 0.4359(12) 0.4274(16) 0.2983(9)
H13_3 H 0.4011 0.4019 0.3513
C9_3 C 0.5006(15) 0.4032(18) 0.2699(10)
H14_3 H 0.5112 0.3635 0.3069
C10_3 C 0.5334(16) 0.4944(19) 0.1411(10)
H15_3 H 0.5651 0.5158 0.0860
C11_3 C 0.4735(14) 0.5247(18) 0.1674(10)
H16_2 H 0.4675 0.5680 0.1314
C12_3 C 0.4006(15) 0.6412(19) 0.4393(8)
Cl1_3 Cl 0.2873(4) 0.8031(6) 0.3182(3)
N1_3 N 0.3815(7) 0.6170(10) 0.2770(7)
H17_3 H 0.4255 0.6432 0.2326
O1_3 O 0.4441(11) 0.6362(13) 0.5075(5)
O2_3 O 0.3231(8) 0.6343(11) 0.4438(6)
Cd2_3 Cd 0.35458(10) 0.61463(12) 0.63536(8)
N3_3 N 0.1155(8) 0.5487(16) 0.3593(6)
C8_4 C 0.0085(11) 0.4359(12) 0.4650(9)
C9_4 C 0.0974(10) 0.5006(15) 0.4366(10)
H14_4 H 0.1477 0.5112 0.4736
C10_4 C 0.0390(10) 0.5334(16) 0.3078(10)
H15_4 H 0.0493 0.5651 0.2527
C1_4 C 0.698(2) 0.611(2) 0.4047(16)
H1_4 H 0.7045 0.6358 0.3442
H2_4 H 0.7172 0.6605 0.4486
H3_4 H 0.6343 0.5638 0.4155
C2_4 C 0.7616(15) 0.5669(15) 0.4141(11)
H4_4 H 0.7473 0.5235 0.3629
C3_4 C 0.8691(16) 0.6422(14) 0.4089(16)
H5_4 H 0.8772 0.6956 0.3747
H6_4 H 0.9022 0.6153 0.3792
H7_4 H 0.8934 0.6616 0.4695
C4_4 C 0.7427(10) 0.5110(11) 0.5017(8)
H8_4 H 0.6755 0.4689 0.5062
H9_4 H 0.7607 0.5545 0.5524
C5_4 C 0.7916(10) 0.4516(10) 0.5148(7)
H10_4 H 0.8599 0.4927 0.5150
C6_4 C 0.8313(10) 0.3508(13) 0.4371(10)
H11_4 H 0.8084 0.3005 0.3925
H12_4 H 0.8335 0.3243 0.4956
C7_4 C 0.9303(11) 0.4233(12) 0.4110(8)
H13_4 H 0.9992 0.4011 0.5180
C11_4 C 0.9488(11) 0.4735(14) 0.3341(10)
H16_3 H 0.8995 0.4675 0.2981
C12_4 C 0.7594(11) 0.4006(15) 0.6060(8)
Cl1_4 Cl 0.4842(4) 0.2873(4) 0.4849(3)
N1_4 N 0.7645(7) 0.3815(7) 0.4437(7)
H17_4 H 0.7823 0.4255 0.3993
O1_4 O 0.8079(7) 0.4441(11) 0.6742(5)
O2_4 O 0.6888(8) 0.3231(8) 0.6105(6)
N3_4 N 0.5668(14) 0.1155(8) 0.5260(6)
C8_5 C 0.5726(16) 0.0085(11) 0.6317(9)
C9_5 C 0.5968(18) 0.0974(10) 0.6033(10)
H14_5 H 0.6365 0.1477 0.6403
C10_5 C 0.5056(19) 0.0390(10) 0.4745(10)
H15_5 H 0.4842 0.0493 0.4194
C1_5 C 0.087(3) 0.698(2) 0.5714(16)
H1_5 H 0.0687 0.7045 0.5109
H2_5 H 0.0567 0.7172 0.6153
H3_5 H 0.0705 0.6343 0.5822
C2_5 C 0.1947(21) 0.7616(15) 0.5808(11)
H4_5 H 0.2238 0.7473 0.5296
C3_5 C 0.2269(21) 0.8691(16) 0.5756(16)
H5_5 H 0.1816 0.8772 0.5414
H6_5 H 0.2869 0.9022 0.5459
H7_5 H 0.2318 0.8934 0.6362
C4_5 C 0.2317(15) 0.7427(10) 0.6684(8)
H8_5 H 0.2066 0.6755 0.6729
H9_5 H 0.2062 0.7607 0.7191
C5_5 C 0.3400(14) 0.7916(10) 0.6815(7)
H10_5 H 0.3672 0.8599 0.6817
C6_5 C 0.4805(16) 0.8313(10) 0.6038(10)
H11_5 H 0.5079 0.8084 0.5592
H12_5 H 0.5092 0.8335 0.6623
C7_5 C 0.5070(16) 0.9303(11) 0.5777(8)
H13_5 H 0.5981 0.9992 0.6847
C11_5 C 0.4753(18) 0.9488(11) 0.5008(10)
H16_4 H 0.4320 0.8995 0.4648
C12_5 C 0.3588(19) 0.7594(11) 0.7727(8)
Cl1_5 Cl 0.1969(6) 0.4842(4) 0.6516(3)
N1_5 N 0.3830(10) 0.7645(7) 0.6104(7)
H17_5 H 0.3568 0.7823 0.5660
O2_5 O 0.3657(11) 0.6888(8) 0.7772(6)
N3_5 N 0.4513(16) 0.5668(14) 0.6926(6)
C1_6 C 0.389(2) 0.087(3) 0.7380(16)
H1_6 H 0.3642 0.0687 0.6775
H2_6 H 0.3395 0.0567 0.7819
H3_6 H 0.4362 0.0705 0.7488
C2_6 C 0.4331(15) 0.1947(21) 0.7474(11)
H4_6 H 0.4765 0.2238 0.6962
C3_6 C 0.3578(14) 0.2269(21) 0.7422(16)
H5_6 H 0.3044 0.1816 0.7080
H6_6 H 0.3847 0.2869 0.7125
H7_6 H 0.3384 0.2318 0.8028
C4_6 C 0.4890(11) 0.2317(15) 0.8350(8)
H8_6 H 0.5311 0.2066 0.8395
H9_6 H 0.4455 0.2062 0.8857
C5_6 C 0.5484(10) 0.3400(14) 0.8481(7)
H10_6 H 0.5073 0.3672 0.8483
C6_6 C 0.6492(13) 0.4805(16) 0.7704(10)
H11_6 H 0.6995 0.5079 0.7258
H12_6 H 0.6757 0.5092 0.8289
C7_6 C 0.5767(12) 0.5070(16) 0.7443(8)
C8_6 C 0.5641(12) 0.5726(16) 0.7983(9)
H13_6 H 0.5989 0.5981 0.8513
C9_6 C 0.4994(15) 0.5968(18) 0.7699(10)
H14_6 H 0.4888 0.6365 0.8069
C10_6 C 0.4666(16) 0.5056(19) 0.6411(10)
H15_6 H 0.4349 0.4842 0.5860
C11_6 C 0.5265(14) 0.4753(18) 0.6674(10)
H16_5 H 0.5325 0.4320 0.6314
C12_6 C 0.5994(15) 0.3588(19) 0.9393(8)
Cl1_6 Cl 0.7127(4) 0.1969(6) 0.8182(3)
N1_6 N 0.6185(7) 0.3830(10) 0.7770(7)
H17_6 H 0.5745 0.3568 0.7326
O2_6 O 0.6769(8) 0.3657(11) 0.9438(6)
H16_6 H 0.5680 0.1005 0.9648
loop_
_geom_bond_atom_site_label_1
_geom_bond_atom_site_label_2
_geom_bond_site_symmetry_1
_geom_bond_site_symmetry_2
H8 C4 1_555 1_555
H9 C4 1_555 1_555
C5 C4 1_555 1_555
H10 C5 1_555 1_555
C12 C5 1_555 1_555
O1 C12 1_555 1_555
O2 C12 1_555 1_555
Cd2 O1 1_555 1_555
C1 H1 1_555 1_555
H2 C1 1_555 1_555
H3 C1 1_555 1_555
C2 C1 1_555 1_555
H4 C2 1_555 1_555
C3 C2 1_555 1_555
H5 C3 1_555 1_555
H6 C3 1_555 1_555
H7 C3 1_555 1_555
C6 H11 1_555 1_555
H12 C6 1_555 1_555
C7 C6 1_555 1_555
C11 C7 1_555 1_555
H16 C11 1_555 1_555
Cd1 Cl1 1_555 1_555
H17 N1 1_555 1_555
O3 Cd1 1_555 1_555
C6 N1 1_555 1_555
Cd1 N1 1_555 1_555
C9 C8 1_555 1_555
H14 C9 1_555 1_555
C10 H15 1_555 1_555
N2 C9 1_555 1_555
Cd3 N2 1_555 1_555
C10 N2 1_555 1_555
C1_2 H1_2 1_555 1_555
H2_2 C1_2 1_555 1_555
H3_2 C1_2 1_555 1_555
C2_2 C1_2 1_555 1_555
H4_2 C2_2 1_555 1_555
C3_2 C2_2 1_555 1_555
H5_2 C3_2 1_555 1_555
H6_2 C3_2 1_555 1_555
H7_2 C3_2 1_555 1_555
C4_2 C2_2 1_555 1_555
H8_2 C4_2 1_555 1_555
H9_2 C4_2 1_555 1_555
C5_2 C4_2 1_555 1_555
H10_2 C5_2 1_555 1_555
C6_2 H11_2 1_555 1_555
H12_2 C6_2 1_555 1_555
C7_2 C6_2 1_555 1_555
C11_2 C7_2 1_555 1_555
C12_2 C5_2 1_555 1_555
Cd1_2 Cl1_2 1_555 1_555
N1_2 C5_2 1_555 1_555
H17_2 N1_2 1_555 1_555
O1_2 C12_2 1_555 1_555
O2_2 C12_2 1_555 1_555
Cd2_2 O1_2 1_555 1_555
N3_2 Cd1_2 1_555 1_555
O3_2 Cd1_2 1_555 1_555
C6_2 N1_2 1_555 1_555
Cd1_2 N1_2 1_555 1_555
Cd1_2 O2_2 1_555 1_555
C9_2 C8_2 1_555 1_555
H14_2 C9_2 1_555 1_555
N3 C9_2 1_555 1_555
C10_2 H15_2 1_555 1_555
C1_3 H1_3 1_555 1_555
H2_3 C1_3 1_555 1_555
H3_3 C1_3 1_555 1_555
C2_3 C1_3 1_555 1_555
H4_3 C2_3 1_555 1_555
C3_3 C2_3 1_555 1_555
H5_3 C3_3 1_555 1_555
H6_3 C3_3 1_555 1_555
H7_3 C3_3 1_555 1_555
C4_3 C2_3 1_555 1_555
H8_3 C4_3 1_555 1_555
H9_3 C4_3 1_555 1_555
C5_3 C4_3 1_555 1_555
H10_3 C5_3 1_555 1_555
C6_3 H11_3 1_555 1_555
H12_3 C6_3 1_555 1_555
C7_3 C6_3 1_555 1_555
C8_3 C7_3 1_555 1_555
H13_3 C8_3 1_555 1_555
C9_3 C8_3 1_555 1_555
H14_3 C9_3 1_555 1_555
C10_3 H15_3 1_555 1_555
C11_3 C7_3 1_555 1_555
H16_2 C11_3 1_555 1_555
C12_3 C5_3 1_555 1_555
Cd2 Cl1_3 1_555 1_555
N1_3 C5_3 1_555 1_555
H17_3 N1_3 1_555 1_555
N3_2 C9_3 1_555 1_555
O1_3 C12_3 1_555 1_555
O2_3 C12_3 1_555 1_555
Cd2_3 O1_3 1_555 1_555
N3_3 Cd2 1_555 1_555
C6_3 N1_3 1_555 1_555
C10_3 C11_3 1_555 1_555
C10_3 N3_2 1_555 1_555
Cd2 N1_3 1_555 1_555
Cd2 O2_3 1_555 1_555
C9_4 C8_4 1_555 1_555
H14_4 C9_4 1_555 1_555
C10_4 H15_4 1_555 1_555
N3_3 C9_4 1_555 1_555
C10_4 N3_3 1_555 1_555
C1_4 H1_4 1_555 1_555
H2_4 C1_4 1_555 1_555
H3_4 C1_4 1_555 1_555
C2_4 C1_4 1_555 1_555
H4_4 C2_4 1_555 1_555
C3_4 C2_4 1_555 1_555
H5_4 C3_4 1_555 1_555
H6_4 C3_4 1_555 1_555
H7_4 C3_4 1_555 1_555
C4_4 C2_4 1_555 1_555
H8_4 C4_4 1_555 1_555
H9_4 C4_4 1_555 1_555
C5_4 C4_4 1_555 1_555
H10_4 C5_4 1_555 1_555
C6_4 H11_4 1_555 1_555
H12_4 C6_4 1_555 1_555
C7_4 C6_4 1_555 1_555
C11_4 C7_4 1_555 1_555
H16_3 C11_4 1_555 1_555
C12_4 C5_4 1_555 1_555
Cd2_2 Cl1_4 1_555 1_555
N1_4 C5_4 1_555 1_555
H17_4 N1_4 1_555 1_555
O1_4 C12_4 1_555 1_555
O2_4 C12_4 1_555 1_555
Cd3 O1_4 1_555 1_555
N3_4 Cd2_2 1_555 1_555
C6_4 N1_4 1_555 1_555
Cd2_2 N1_4 1_555 1_555
Cd2_2 O2_4 1_555 1_555
C9_5 C8_5 1_555 1_555
H14_5 C9_5 1_555 1_555
C10_5 H15_5 1_555 1_555
N3_4 C9_5 1_555 1_555
C10_5 N3_4 1_555 1_555
C1_5 H1_5 1_555 1_555
H2_5 C1_5 1_555 1_555
H3_5 C1_5 1_555 1_555
C2_5 C1_5 1_555 1_555
H4_5 C2_5 1_555 1_555
C3_5 C2_5 1_555 1_555
H5_5 C3_5 1_555 1_555
H6_5 C3_5 1_555 1_555
H7_5 C3_5 1_555 1_555
C4_5 C2_5 1_555 1_555
H8_5 C4_5 1_555 1_555
H9_5 C4_5 1_555 1_555
C5_5 C4_5 1_555 1_555
H10_5 C5_5 1_555 1_555
C6_5 H11_5 1_555 1_555
H12_5 C6_5 1_555 1_555
C7_5 C6_5 1_555 1_555
C11_5 C7_5 1_555 1_555
H16_4 C11_5 1_555 1_555
C12_5 C5_5 1_555 1_555
Cd2_3 Cl1_5 1_555 1_555
N1_5 C5_5 1_555 1_555
H17_5 N1_5 1_555 1_555
O3 C12_5 1_555 1_555
O2_5 C12_5 1_555 1_555
N3_5 Cd2_3 1_555 1_555
C6_5 N1_5 1_555 1_555
Cd2_3 N1_5 1_555 1_555
Cd2_3 O2_5 1_555 1_555
C1_6 H1_6 1_555 1_555
H2_6 C1_6 1_555 1_555
H3_6 C1_6 1_555 1_555
C2_6 C1_6 1_555 1_555
H4_6 C2_6 1_555 1_555
C3_6 C2_6 1_555 1_555
H5_6 C3_6 1_555 1_555
H6_6 C3_6 1_555 1_555
H7_6 C3_6 1_555 1_555
C4_6 C2_6 1_555 1_555
H8_6 C4_6 1_555 1_555
H9_6 C4_6 1_555 1_555
C5_6 C4_6 1_555 1_555
H10_6 C5_6 1_555 1_555
C6_6 H11_6 1_555 1_555
H12_6 C6_6 1_555 1_555
C7_6 C6_6 1_555 1_555
C8_6 C7_6 1_555 1_555
H13_6 C8_6 1_555 1_555
C9_6 C8_6 1_555 1_555
H14_6 C9_6 1_555 1_555
C10_6 H15_6 1_555 1_555
C11_6 C7_6 1_555 1_555
H16_5 C11_6 1_555 1_555
C12_6 C5_6 1_555 1_555
Cd3 Cl1_6 1_555 1_555
N1_6 C5_6 1_555 1_555
H17_6 N1_6 1_555 1_555
N3_5 C9_6 1_555 1_555
O2_6 C12_6 1_555 1_555
C6_6 N1_6 1_555 1_555
C10_6 C11_6 1_555 1_555
C10_6 N3_5 1_555 1_555
Cd3 N1_6 1_555 1_555
Cd3 O2_6 1_555 1_555

#END
