
###############################################################################
#
# This file contains modified crystal structure data generated from the
# MOF subset of the Cambridge Structural Database (CSD) v543 
# hosted by the Cambridge Crystallographic Data Centre (CCDC).
#
# This work is licensed under the Creative Commons
# Attribution-NonCommercial-ShareAlike 4.0 International License.
# To view a copy of this license, visit
# http://creativecommons.org/licenses/by-nc-sa/4.0/
# or send a letter to
# Creative Commons, PO Box 1866, Mountain View, CA 94042, USA.
#
# CIF created using the CSD Python API on 29 September 2022
# The structure has been converted into the P1 space group
# The structure has a 3D framework
# The original CSD entry UFESUW is in the orthorhombic crystal system
# The framework has been calculated to contain at least 10.0% void space
# The void calculation uses a probe of radius 1.32A, grid spacing 0.4
#
###############################################################################

data_UFESUW
_chemical_formula_moiety         '(C140 H48 Ag12 Fe12 N58 O16)n'
_symmetry_cell_setting           triclinic
_symmetry_space_group_name_H-M   'P 1'
_symmetry_Int_Tables_number      1
_space_group_name_Hall           'P 1'
loop_
_symmetry_equiv_pos_site_id
_symmetry_equiv_pos_as_xyz
1 x,y,z
_cell_length_a                   19.5823(18)
_cell_length_b                   11.3760(9)
_cell_length_c                   16.1870(13)
_cell_angle_alpha                90
_cell_angle_beta                 90
_cell_angle_gamma                90
_cell_volume                     3605.95
loop_
_atom_site_label
_atom_site_type_symbol
_atom_site_fract_x
_atom_site_fract_y
_atom_site_fract_z
Fe2 Fe 0.0000 0.0000 0.0000
Fe2_2 Fe -0.0000 0.0000 1.0000
Fe2_3 Fe 0.0000 1.0000 0.0000
Fe2_4 Fe 0.0000 1.0000 1.0000
N1 N 0.1041(2) 0.0000 0.0000
N2 N 0.3195(2) 0.0000 0.0000
C3 C 0.2456(3) 0.0000 0.0000
C7 C 0.4644(2) 0.0000 0.0000
O2 O 0.31940(13) 0.13942(19) 0.10107(14)
C12 C 0.35262(17) 0.0747(3) 0.05671(18)
C13 C 0.42824(17) 0.0693(2) 0.05881(17)
C14 C 0.46413(18) 0.1342(3) 0.11626(19)
H6 H 0.4401 0.1793 0.1562
N5 N 0.8959(2) 0.0000 0.0000
N6 N 0.6805(2) 0.0000 0.0000
O3 O 0.68060(13) 0.13942(19) 0.10107(14)
C17 C 0.7544(3) 0.0000 0.0000
C18 C 0.64738(17) 0.0747(3) 0.05671(18)
C19 C 0.57176(17) 0.0693(2) 0.05881(17)
C20 C 0.53587(18) 0.1342(3) 0.11626(19)
H9 H 0.5599 0.1793 0.1562
C21 C 0.5356(2) 0.0000 0.0000
Fe2_5 Fe 1.0000 0.0000 0.0000
N11 N -0.0000 0.1600(3) 0.0486(2)
N1_2 N 0.1041(2) 0.0000 1.0000
N2_2 N 0.3195(2) 0.0000 1.0000
C3_2 C 0.2456(3) 0.0000 1.0000
C7_2 C 0.4644(2) 0.0000 1.0000
C10 C 0.13938(18) 0.0922(3) 0.97055(18)
H4 H 0.1148 0.1580 0.9501
C11 C 0.20975(19) 0.0955(3) 0.96866(19)
H5 H 0.2332 0.1615 0.9465
N5_2 N 0.8959(2) 0.0000 1.0000
N6_2 N 0.6805(2) 0.0000 1.0000
C15 C 0.86062(18) 0.0922(3) 0.97055(18)
H7 H 0.8852 0.1580 0.9501
C16 C 0.79025(19) 0.0955(3) 0.96866(19)
H8 H 0.7668 0.1615 0.9465
C17_2 C 0.7544(3) 0.0000 1.0000
C21_2 C 0.5356(2) 0.0000 1.0000
Ag2 Ag 0.0000 0.15483(3) 0.69779(2)
N7 N -0.0000 0.0580(3) 0.8841(2)
N8 N -0.0000 0.3400(3) 0.5486(2)
C27 C -0.0000 0.0835(4) 0.8152(3)
C28 C -0.0000 0.2619(4) 0.5944(3)
Fe2_6 Fe 1.0000 0.0000 1.0000
Fe4 Fe 0.0000 0.5000 0.5000
Ag1 Ag 0.0000 0.84517(3) 0.30221(2)
N1_3 N 0.1041(2) 1.0000 0.0000
N2_3 N 0.3195(2) 1.0000 0.0000
N3 N -0.0000 0.9420(3) 0.1159(2)
N4 N -0.0000 0.6600(3) 0.4514(2)
C1 C 0.13938(18) 0.9078(3) 0.02945(18)
H1 H 0.1148 0.8420 0.0499
C2 C 0.20975(19) 0.9045(3) 0.03134(19)
H2 H 0.2332 0.8385 0.0535
C3_3 C 0.2456(3) 1.0000 0.0000
C7_3 C 0.4644(2) 1.0000 0.0000
C8 C 0.0000 0.9165(4) 0.1848(3)
C9 C 0.0000 0.7381(4) 0.4056(3)
N5_3 N 0.8959(2) 1.0000 0.0000
N6_3 N 0.6805(2) 1.0000 0.0000
C17_3 C 0.7544(3) 1.0000 0.0000
C21_3 C 0.5356(2) 1.0000 0.0000
C22 C 0.86062(18) 0.9078(3) 0.02945(18)
H10 H 0.8852 0.8420 0.0499
C23 C 0.79025(19) 0.9045(3) 0.03134(19)
H11 H 0.7668 0.8385 0.0535
Fe2_7 Fe 1.0000 1.0000 0.0000
N1_4 N 0.1041(2) 1.0000 1.0000
N2_4 N 0.3195(2) 1.0000 1.0000
O1 O 0.31940(13) 0.86058(19) 0.89893(14)
C3_4 C 0.2456(3) 1.0000 1.0000
C4 C 0.35262(17) 0.9253(3) 0.94329(18)
C5 C 0.42824(17) 0.9307(2) 0.94119(17)
C6 C 0.46413(18) 0.8658(3) 0.88374(19)
H3 H 0.4401 0.8207 0.8438
C7_4 C 0.4644(2) 1.0000 1.0000
N5_4 N 0.8959(2) 1.0000 1.0000
N6_4 N 0.6805(2) 1.0000 1.0000
C17_4 C 0.7544(3) 1.0000 1.0000
C21_4 C 0.5356(2) 1.0000 1.0000
O4 O 0.68060(13) 0.86058(19) 0.89893(14)
C24 C 0.64738(17) 0.9253(3) 0.94329(18)
C25 C 0.57176(17) 0.9307(2) 0.94119(17)
C26 C 0.53587(18) 0.8658(3) 0.88374(19)
H12 H 0.5599 0.8207 0.8438
Fe2_8 Fe 1.0000 1.0000 1.0000
N10 N -0.0000 0.8400(3) 0.9514(2)
N11_2 N 1.0000 0.1600(3) 0.0486(2)
Ag2_2 Ag 1.0000 0.15483(3) 0.69779(2)
N7_2 N 1.0000 0.0580(3) 0.8841(2)
N8_2 N 1.0000 0.3400(3) 0.5486(2)
C27_2 C 1.0000 0.0835(4) 0.8152(3)
C28_2 C 1.0000 0.2619(4) 0.5944(3)
Fe4_2 Fe 1.0000 0.5000 0.5000
Ag1_2 Ag 1.0000 0.84517(3) 0.30221(2)
N3_2 N 1.0000 0.9420(3) 0.1159(2)
N4_2 N 1.0000 0.6600(3) 0.4514(2)
C8_2 C 1.0000 0.9165(4) 0.1848(3)
C9_2 C 1.0000 0.7381(4) 0.4056(3)
N10_2 N 1.0000 0.8400(3) 0.9514(2)
Ag1_3 Ag 0.0000 0.65483(3) 0.80221(2)
N3_3 N 0.0000 0.5580(3) 0.6159(2)
C8_3 C 0.0000 0.5835(4) 0.6848(3)
C9_3 C -0.0000 0.7619(4) 0.9056(3)
Ag2_3 Ag -0.0000 0.34517(3) 0.19779(2)
N7_3 N -0.0000 0.4420(3) 0.3841(2)
C27_3 C -0.0000 0.4165(4) 0.3152(3)
C28_3 C 0.0000 0.2381(4) 0.0944(3)
N9 N 0.1041(2) 0.5000 0.5000
Ag1_4 Ag 1.0000 0.65483(3) 0.80221(2)
N1_5 N 0.8959(2) 0.5000 0.5000
N2_5 N 0.6805(2) 0.5000 0.5000
N3_4 N 1.0000 0.5580(3) 0.6159(2)
O1_2 O 0.68060(13) 0.63942(19) 0.39893(14)
C1_2 C 0.86062(18) 0.5922(3) 0.52945(18)
H1_2 H 0.8852 0.6580 0.5499
C2_2 C 0.79025(19) 0.5955(3) 0.53134(19)
H2_2 H 0.7668 0.6615 0.5535
C3_5 C 0.7544(3) 0.5000 0.5000
C4_2 C 0.64738(17) 0.5747(3) 0.44329(18)
C5_2 C 0.57176(17) 0.5693(2) 0.44119(17)
C6_2 C 0.53587(18) 0.6342(3) 0.38374(19)
H3_2 H 0.5599 0.6793 0.3438
C7_5 C 0.5356(2) 0.5000 0.5000
C8_4 C 1.0000 0.5835(4) 0.6848(3)
C9_4 C 1.0000 0.7619(4) 0.9056(3)
O2_2 O 0.68060(13) 0.36058(19) 0.60107(14)
C10_2 C 0.86062(18) 0.4078(3) 0.47055(18)
H4_2 H 0.8852 0.3420 0.4501
C11_2 C 0.79025(19) 0.4045(3) 0.46866(19)
H5_2 H 0.7668 0.3385 0.4465
C12_2 C 0.64738(17) 0.4253(3) 0.55671(18)
C13_2 C 0.57176(17) 0.4307(2) 0.55881(17)
C14_2 C 0.53587(18) 0.3658(3) 0.61626(19)
H6_2 H 0.5599 0.3207 0.6562
N6_5 N 0.3195(2) 0.5000 0.5000
O3_2 O 0.31940(13) 0.36058(19) 0.60107(14)
C15_2 C 0.13938(18) 0.4078(3) 0.47055(18)
H7_2 H 0.1148 0.3420 0.4501
C16_2 C 0.20975(19) 0.4045(3) 0.46866(19)
H8_2 H 0.2332 0.3385 0.4465
C17_5 C 0.2456(3) 0.5000 0.5000
C18_2 C 0.35262(17) 0.4253(3) 0.55671(18)
C19_2 C 0.42824(17) 0.4307(2) 0.55881(17)
C20_2 C 0.46413(18) 0.3658(3) 0.61626(19)
H9_2 H 0.4401 0.3207 0.6562
C21_5 C 0.4644(2) 0.5000 0.5000
O4_2 O 0.31940(13) 0.63942(19) 0.39893(14)
C22_2 C 0.13938(18) 0.5922(3) 0.52945(18)
H10_2 H 0.1148 0.6580 0.5499
C23_2 C 0.20975(19) 0.5955(3) 0.53134(19)
H11_2 H 0.2332 0.6615 0.5535
C24_2 C 0.35262(17) 0.5747(3) 0.44329(18)
C25_2 C 0.42824(17) 0.5693(2) 0.44119(17)
C26_2 C 0.46413(18) 0.6342(3) 0.38374(19)
H12_2 H 0.4401 0.6793 0.3438
Ag2_4 Ag 1.0000 0.34517(3) 0.19779(2)
N7_4 N 1.0000 0.4420(3) 0.3841(2)
C27_4 C 1.0000 0.4165(4) 0.3152(3)
C28_4 C 1.0000 0.2381(4) 0.0944(3)
N5_5 N 0.3959(2) 0.5000 0.0000
N6_6 N 0.1805(2) 0.5000 0.0000
O3_3 O 0.18060(13) 0.63942(19) 0.10107(14)
C17_6 C 0.2544(3) 0.5000 0.0000
C18_3 C 0.14738(17) 0.5747(3) 0.05671(18)
C19_3 C 0.07176(17) 0.5693(2) 0.05881(17)
C20_3 C 0.03587(18) 0.6342(3) 0.11626(19)
H9_3 H 0.0599 0.6793 0.1562
C21_6 C 0.0356(2) 0.5000 0.0000
C22_3 C 0.36062(18) 0.4078(3) 0.02945(18)
H10_3 H 0.3852 0.3420 0.0499
C23_3 C 0.29025(19) 0.4045(3) 0.03134(19)
H11_3 H 0.2668 0.3385 0.0535
Fe2_9 Fe 0.5000 0.5000 0.0000
N5_6 N 0.3959(2) 0.5000 1.0000
N6_7 N 0.1805(2) 0.5000 1.0000
C15_3 C 0.36062(18) 0.5922(3) 0.97055(18)
H7_3 H 0.3852 0.6580 0.9501
C16_3 C 0.29025(19) 0.5955(3) 0.96866(19)
H8_3 H 0.2668 0.6615 0.9465
C17_7 C 0.2544(3) 0.5000 1.0000
C21_7 C 0.0356(2) 0.5000 1.0000
O4_3 O 0.18060(13) 0.36058(19) 0.89893(14)
C24_3 C 0.14738(17) 0.4253(3) 0.94329(18)
C25_3 C 0.07176(17) 0.4307(2) 0.94119(17)
C26_3 C 0.03587(18) 0.3658(3) 0.88374(19)
H12_3 H 0.0599 0.3207 0.8438
Fe2_10 Fe 0.5000 0.5000 1.0000
Fe4_3 Fe 0.5000 0.0000 0.5000
Ag1_5 Ag 0.5000 0.34517(3) 0.30221(2)
N1_6 N 0.6041(2) 0.5000 0.0000
N2_6 N 0.8195(2) 0.5000 0.0000
N3_5 N 0.5000 0.4420(3) 0.1159(2)
N4_3 N 0.5000 0.1600(3) 0.4514(2)
C1_3 C 0.63938(18) 0.4078(3) 0.02945(18)
H1_3 H 0.6148 0.3420 0.0499
C2_3 C 0.70975(19) 0.4045(3) 0.03134(19)
H2_3 H 0.7332 0.3385 0.0535
C3_6 C 0.7456(3) 0.5000 0.0000
C7_6 C 0.9644(2) 0.5000 0.0000
C8_5 C 0.5000 0.4165(4) 0.1848(3)
C9_5 C 0.5000 0.2381(4) 0.4056(3)
O2_3 O 0.81940(13) 0.63942(19) 0.10107(14)
C12_3 C 0.85262(17) 0.5747(3) 0.05671(18)
C13_3 C 0.92824(17) 0.5693(2) 0.05881(17)
C14_3 C 0.96413(18) 0.6342(3) 0.11626(19)
H6_3 H 0.9401 0.6793 0.1562
N11_3 N 0.5000 0.6600(3) 0.0486(2)
N1_7 N 0.6041(2) 0.5000 1.0000
N2_7 N 0.8195(2) 0.5000 1.0000
O1_3 O 0.81940(13) 0.36058(19) 0.89893(14)
C3_7 C 0.7456(3) 0.5000 1.0000
C4_3 C 0.85262(17) 0.4253(3) 0.94329(18)
C5_3 C 0.92824(17) 0.4307(2) 0.94119(17)
C6_3 C 0.96413(18) 0.3658(3) 0.88374(19)
H3_3 H 0.9401 0.3207 0.8438
C7_7 C 0.9644(2) 0.5000 1.0000
C10_3 C 0.63938(18) 0.5922(3) 0.97055(18)
H4_3 H 0.6148 0.6580 0.9501
C11_3 C 0.70975(19) 0.5955(3) 0.96866(19)
H5_3 H 0.7332 0.6615 0.9465
Ag2_5 Ag 0.5000 0.65483(3) 0.69779(2)
N7_5 N 0.5000 0.5580(3) 0.8841(2)
N8_3 N 0.5000 0.8400(3) 0.5486(2)
C27_5 C 0.5000 0.5835(4) 0.8152(3)
C28_5 C 0.5000 0.7619(4) 0.5944(3)
Fe4_4 Fe 0.5000 1.0000 0.5000
N10_3 N 0.5000 0.3400(3) 0.9514(2)
Ag1_6 Ag 0.5000 0.15483(3) 0.80221(2)
N1_8 N 0.3959(2) 0.0000 0.5000
N2_8 N 0.1805(2) 0.0000 0.5000
N3_6 N 0.5000 0.0580(3) 0.6159(2)
O1_4 O 0.18060(13) 0.13942(19) 0.39893(14)
C1_4 C 0.36062(18) 0.0922(3) 0.52945(18)
H1_4 H 0.3852 0.1580 0.5499
C2_4 C 0.29025(19) 0.0955(3) 0.53134(19)
H2_4 H 0.2668 0.1615 0.5535
C3_8 C 0.2544(3) 0.0000 0.5000
C4_4 C 0.14738(17) 0.0747(3) 0.44329(18)
C5_4 C 0.07176(17) 0.0693(2) 0.44119(17)
C6_4 C 0.03587(18) 0.1342(3) 0.38374(19)
H3_4 H 0.0599 0.1793 0.3438
C7_8 C 0.0356(2) 0.0000 0.5000
C8_6 C 0.5000 0.0835(4) 0.6848(3)
C9_6 C 0.5000 0.2619(4) 0.9056(3)
N9_2 N 0.6041(2) 0.0000 0.5000
N1_9 N 0.3959(2) 1.0000 0.5000
N2_9 N 0.1805(2) 1.0000 0.5000
C3_9 C 0.2544(3) 1.0000 0.5000
C7_9 C 0.0356(2) 1.0000 0.5000
O2_4 O 0.18060(13) 0.86058(19) 0.60107(14)
C10_4 C 0.36062(18) 0.9078(3) 0.47055(18)
H4_4 H 0.3852 0.8420 0.4501
C11_4 C 0.29025(19) 0.9045(3) 0.46866(19)
H5_4 H 0.2668 0.8385 0.4465
C12_4 C 0.14738(17) 0.9253(3) 0.55671(18)
C13_4 C 0.07176(17) 0.9307(2) 0.55881(17)
C14_4 C 0.03587(18) 0.8658(3) 0.61626(19)
H6_4 H 0.0599 0.8207 0.6562
Ag2_6 Ag 0.5000 0.84517(3) 0.19779(2)
N7_6 N 0.5000 0.9420(3) 0.3841(2)
C27_6 C 0.5000 0.9165(4) 0.3152(3)
C28_6 C 0.5000 0.7381(4) 0.0944(3)
N9_3 N 0.6041(2) 1.0000 0.5000
N6_8 N 0.8195(2) 0.0000 0.5000
C17_8 C 0.7456(3) 0.0000 0.5000
C21_8 C 0.9644(2) 0.0000 0.5000
O4_4 O 0.81940(13) 0.13942(19) 0.39893(14)
C22_4 C 0.63938(18) 0.0922(3) 0.52945(18)
H10_4 H 0.6148 0.1580 0.5499
C23_4 C 0.70975(19) 0.0955(3) 0.53134(19)
H11_4 H 0.7332 0.1615 0.5535
C24_4 C 0.85262(17) 0.0747(3) 0.44329(18)
C25_4 C 0.92824(17) 0.0693(2) 0.44119(17)
C26_4 C 0.96413(18) 0.1342(3) 0.38374(19)
H12_4 H 0.9401 0.1793 0.3438
N6_9 N 0.8195(2) 1.0000 0.5000
O3_4 O 0.81940(13) 0.86058(19) 0.60107(14)
C15_4 C 0.63938(18) 0.9078(3) 0.47055(18)
H7_4 H 0.6148 0.8420 0.4501
C16_4 C 0.70975(19) 0.9045(3) 0.46866(19)
H8_4 H 0.7332 0.8385 0.4465
C17_9 C 0.7456(3) 1.0000 0.5000
C18_4 C 0.85262(17) 0.9253(3) 0.55671(18)
C19_4 C 0.92824(17) 0.9307(2) 0.55881(17)
C20_4 C 0.96413(18) 0.8658(3) 0.61626(19)
H9_4 H 0.9401 0.8207 0.6562
C21_9 C 0.9644(2) 1.0000 0.5000
loop_
_geom_bond_atom_site_label_1
_geom_bond_atom_site_label_2
_geom_bond_site_symmetry_1
_geom_bond_site_symmetry_2
Fe2 N1 1_555 1_555
N2 C3 1_555 1_555
O2 C12 1_555 1_555
C12 N2 1_555 1_555
C13 C7 1_555 1_555
C14 C13 1_555 1_555
H6 C14 1_555 1_555
N6 C17 1_555 1_555
O3 C18 1_555 1_555
C18 N6 1_555 1_555
C19 C18 1_555 1_555
C20 C14 1_555 1_555
H9 C20 1_555 1_555
C21 C7 1_555 1_555
Fe2_5 N5 1_555 1_555
N11 Fe2 1_555 1_555
C12 C13 1_555 1_555
C19 C20 1_555 1_555
C19 C21 1_555 1_555
Fe2_2 N1_2 1_555 1_555
N2_2 C3_2 1_555 1_555
C10 N1_2 1_555 1_555
H4 C10 1_555 1_555
C11 C3_2 1_555 1_555
H5 C11 1_555 1_555
N5_2 C15 1_555 1_555
N6_2 C17_2 1_555 1_555
C15 H7 1_555 1_555
C16 C15 1_555 1_555
H8 C16 1_555 1_555
C17_2 C16 1_555 1_555
C21_2 C7_2 1_555 1_555
Ag2 C27 1_555 1_555
N7 Fe2_2 1_555 1_555
N8 C28 1_555 1_555
C27 N7 1_555 1_555
C28 Ag2 1_555 1_555
Fe2_6 N5_2 1_555 1_555
Fe4 N8 1_555 1_555
C10 C11 1_555 1_555
Ag1 C8 1_555 1_555
Fe2_3 N1_3 1_555 1_555
N1_3 C1 1_555 1_555
N2_3 C3_3 1_555 1_555
N3 Fe2_3 1_555 1_555
N4 C9 1_555 1_555
C1 H1 1_555 1_555
C2 C1 1_555 1_555
H2 C2 1_555 1_555
C3_3 C2 1_555 1_555
C8 N3 1_555 1_555
C9 Ag1 1_555 1_555
N6_3 C17_3 1_555 1_555
C21_3 C7_3 1_555 1_555
C22 N5_3 1_555 1_555
H10 C22 1_555 1_555
C23 C17_3 1_555 1_555
H11 C23 1_555 1_555
Fe2_7 N5_3 1_555 1_555
Fe4 N4 1_555 1_555
C22 C23 1_555 1_555
Fe2_4 N1_4 1_555 1_555
N2_4 C3_4 1_555 1_555
O1 C4 1_555 1_555
C4 N2_4 1_555 1_555
C5 C4 1_555 1_555
C6 C5 1_555 1_555
H3 C6 1_555 1_555
C7_4 C5 1_555 1_555
N6_4 C17_4 1_555 1_555
C21_4 C7_4 1_555 1_555
O4 C24 1_555 1_555
C24 N6_4 1_555 1_555
C25 C21_4 1_555 1_555
C26 C6 1_555 1_555
H12 C26 1_555 1_555
Fe2_8 N5_4 1_555 1_555
N10 Fe2_4 1_555 1_555
C24 C25 1_555 1_555
C25 C26 1_555 1_555
N11_2 Fe2_5 1_555 1_555
Ag2_2 C27_2 1_555 1_555
N7_2 Fe2_6 1_555 1_555
N8_2 C28_2 1_555 1_555
C27_2 N7_2 1_555 1_555
C28_2 Ag2_2 1_555 1_555
Fe4_2 N8_2 1_555 1_555
Ag1_2 C8_2 1_555 1_555
N3_2 Fe2_7 1_555 1_555
N4_2 C9_2 1_555 1_555
C8_2 N3_2 1_555 1_555
C9_2 Ag1_2 1_555 1_555
Fe4_2 N4_2 1_555 1_555
N10_2 Fe2_8 1_555 1_555
Ag1_3 C8_3 1_555 1_555
N3_3 Fe4 1_555 1_555
N10 C9_3 1_555 1_555
C8_3 N3_3 1_555 1_555
C9_3 Ag1_3 1_555 1_555
Ag2_3 C27_3 1_555 1_555
N7_3 Fe4 1_555 1_555
N11 C28_3 1_555 1_555
C27_3 N7_3 1_555 1_555
C28_3 Ag2_3 1_555 1_555
N9 Fe4 1_555 1_555
Ag1_4 C8_4 1_555 1_555
Fe4_2 N1_5 1_555 1_555
N1_5 C1_2 1_555 1_555
N2_5 C3_5 1_555 1_555
N3_4 Fe4_2 1_555 1_555
N10_2 C9_4 1_555 1_555
O1_2 C4_2 1_555 1_555
C1_2 H1_2 1_555 1_555
C2_2 C1_2 1_555 1_555
H2_2 C2_2 1_555 1_555
C3_5 C2_2 1_555 1_555
C4_2 N2_5 1_555 1_555
C5_2 C4_2 1_555 1_555
C6_2 C5_2 1_555 1_555
H3_2 C6_2 1_555 1_555
C7_5 C5_2 1_555 1_555
C8_4 N3_4 1_555 1_555
C9_4 Ag1_4 1_555 1_555
O2_2 C12_2 1_555 1_555
C10_2 N1_5 1_555 1_555
H4_2 C10_2 1_555 1_555
C11_2 C3_5 1_555 1_555
H5_2 C11_2 1_555 1_555
C12_2 N2_5 1_555 1_555
C13_2 C7_5 1_555 1_555
C14_2 C13_2 1_555 1_555
H6_2 C14_2 1_555 1_555
N9 C15_2 1_555 1_555
N6_5 C17_5 1_555 1_555
O3_2 C18_2 1_555 1_555
C15_2 H7_2 1_555 1_555
C16_2 C15_2 1_555 1_555
H8_2 C16_2 1_555 1_555
C17_5 C16_2 1_555 1_555
C18_2 N6_5 1_555 1_555
C19_2 C18_2 1_555 1_555
C20_2 C14_2 1_555 1_555
H9_2 C20_2 1_555 1_555
C21_5 C7_5 1_555 1_555
O4_2 C24_2 1_555 1_555
C22_2 N9 1_555 1_555
H10_2 C22_2 1_555 1_555
C23_2 C17_5 1_555 1_555
H11_2 C23_2 1_555 1_555
C24_2 N6_5 1_555 1_555
C25_2 C21_5 1_555 1_555
C26_2 C6_2 1_555 1_555
H12_2 C26_2 1_555 1_555
Ag2_4 C27_4 1_555 1_555
N7_4 Fe4_2 1_555 1_555
N11_2 C28_4 1_555 1_555
C27_4 N7_4 1_555 1_555
C28_4 Ag2_4 1_555 1_555
C10_2 C11_2 1_555 1_555
C12_2 C13_2 1_555 1_555
C19_2 C20_2 1_555 1_555
C19_2 C21_5 1_555 1_555
C22_2 C23_2 1_555 1_555
C24_2 C25_2 1_555 1_555
C25_2 C26_2 1_555 1_555
N6_6 C17_6 1_555 1_555
O3_3 C18_3 1_555 1_555
C18_3 N6_6 1_555 1_555
C19_3 C18_3 1_555 1_555
H9_3 C20_3 1_555 1_555
C22_3 N5_5 1_555 1_555
H10_3 C22_3 1_555 1_555
C23_3 C17_6 1_555 1_555
H11_3 C23_3 1_555 1_555
Fe2_9 N5_5 1_555 1_555
C19_3 C20_3 1_555 1_555
C19_3 C21_6 1_555 1_555
C22_3 C23_3 1_555 1_555
N5_6 C15_3 1_555 1_555
N6_7 C17_7 1_555 1_555
C15_3 H7_3 1_555 1_555
C16_3 C15_3 1_555 1_555
H8_3 C16_3 1_555 1_555
C17_7 C16_3 1_555 1_555
O4_3 C24_3 1_555 1_555
C24_3 N6_7 1_555 1_555
C25_3 C21_7 1_555 1_555
H12_3 C26_3 1_555 1_555
Fe2_10 N5_6 1_555 1_555
C24_3 C25_3 1_555 1_555
C25_3 C26_3 1_555 1_555
Ag1_5 C8_5 1_555 1_555
Fe2_9 N1_6 1_555 1_555
N1_6 C1_3 1_555 1_555
N2_6 C3_6 1_555 1_555
N3_5 Fe2_9 1_555 1_555
N4_3 C9_5 1_555 1_555
C1_3 H1_3 1_555 1_555
C2_3 C1_3 1_555 1_555
H2_3 C2_3 1_555 1_555
C3_6 C2_3 1_555 1_555
C8_5 N3_5 1_555 1_555
C9_5 Ag1_5 1_555 1_555
O2_3 C12_3 1_555 1_555
C12_3 N2_6 1_555 1_555
C13_3 C7_6 1_555 1_555
C14_3 C13_3 1_555 1_555
H6_3 C14_3 1_555 1_555
Fe4_3 N4_3 1_555 1_555
N11_3 Fe2_9 1_555 1_555
C12_3 C13_3 1_555 1_555
Fe2_10 N1_7 1_555 1_555
N2_7 C3_7 1_555 1_555
O1_3 C4_3 1_555 1_555
C4_3 N2_7 1_555 1_555
C5_3 C4_3 1_555 1_555
C6_3 C5_3 1_555 1_555
H3_3 C6_3 1_555 1_555
C7_7 C5_3 1_555 1_555
C10_3 N1_7 1_555 1_555
H4_3 C10_3 1_555 1_555
C11_3 C3_7 1_555 1_555
H5_3 C11_3 1_555 1_555
Ag2_5 C27_5 1_555 1_555
N7_5 Fe2_10 1_555 1_555
N8_3 C28_5 1_555 1_555
C27_5 N7_5 1_555 1_555
C28_5 Ag2_5 1_555 1_555
Fe4_4 N8_3 1_555 1_555
N10_3 Fe2_10 1_555 1_555
C10_3 C11_3 1_555 1_555
Ag1_6 C8_6 1_555 1_555
Fe4_3 N1_8 1_555 1_555
N1_8 C1_4 1_555 1_555
N2_8 C3_8 1_555 1_555
N3_6 Fe4_3 1_555 1_555
N10_3 C9_6 1_555 1_555
O1_4 C4_4 1_555 1_555
C1_4 H1_4 1_555 1_555
C2_4 C1_4 1_555 1_555
H2_4 C2_4 1_555 1_555
C3_8 C2_4 1_555 1_555
C4_4 N2_8 1_555 1_555
C5_4 C4_4 1_555 1_555
C6_4 C5_4 1_555 1_555
H3_4 C6_4 1_555 1_555
C7_8 C5_4 1_555 1_555
C8_6 N3_6 1_555 1_555
C9_6 Ag1_6 1_555 1_555
N9_2 Fe4_3 1_555 1_555
Fe4_4 N1_9 1_555 1_555
N2_9 C3_9 1_555 1_555
O2_4 C12_4 1_555 1_555
C10_4 N1_9 1_555 1_555
H4_4 C10_4 1_555 1_555
C11_4 C3_9 1_555 1_555
H5_4 C11_4 1_555 1_555
C12_4 N2_9 1_555 1_555
C13_4 C7_9 1_555 1_555
C14_4 C13_4 1_555 1_555
H6_4 C14_4 1_555 1_555
Ag2_6 C27_6 1_555 1_555
N7_6 Fe4_4 1_555 1_555
N11_3 C28_6 1_555 1_555
C27_6 N7_6 1_555 1_555
C28_6 Ag2_6 1_555 1_555
N9_3 Fe4_4 1_555 1_555
C10_4 C11_4 1_555 1_555
C12_4 C13_4 1_555 1_555
N6_8 C17_8 1_555 1_555
O4_4 C24_4 1_555 1_555
C22_4 N9_2 1_555 1_555
H10_4 C22_4 1_555 1_555
C23_4 C17_8 1_555 1_555
H11_4 C23_4 1_555 1_555
C24_4 N6_8 1_555 1_555
C25_4 C21_8 1_555 1_555
H12_4 C26_4 1_555 1_555
C22_4 C23_4 1_555 1_555
C24_4 C25_4 1_555 1_555
C25_4 C26_4 1_555 1_555
N9_3 C15_4 1_555 1_555
N6_9 C17_9 1_555 1_555
O3_4 C18_4 1_555 1_555
C15_4 H7_4 1_555 1_555
C16_4 C15_4 1_555 1_555
H8_4 C16_4 1_555 1_555
C17_9 C16_4 1_555 1_555
C18_4 N6_9 1_555 1_555
C19_4 C18_4 1_555 1_555
H9_4 C20_4 1_555 1_555
C19_4 C20_4 1_555 1_555
C19_4 C21_9 1_555 1_555

#END
