
###############################################################################
#
# This file contains modified crystal structure data generated from the
# MOF subset of the Cambridge Structural Database (CSD) v543 
# hosted by the Cambridge Crystallographic Data Centre (CCDC).
#
# This work is licensed under the Creative Commons
# Attribution-NonCommercial-ShareAlike 4.0 International License.
# To view a copy of this license, visit
# http://creativecommons.org/licenses/by-nc-sa/4.0/
# or send a letter to
# Creative Commons, PO Box 1866, Mountain View, CA 94042, USA.
#
# CIF created using the CSD Python API on 29 September 2022
# The structure has been converted into the P1 space group
# The structure has a 3D framework
# The original CSD entry UFESUW01 is in the orthorhombic crystal system
# The framework has been calculated to contain at least 10.0% void space
# The void calculation uses a probe of radius 1.32A, grid spacing 0.4
#
###############################################################################

data_UFESUW01
_chemical_formula_moiety         '(C140 H48 Ag12 Fe12 N58 O16)n'
_symmetry_cell_setting           triclinic
_symmetry_space_group_name_H-M   'P 1'
_symmetry_Int_Tables_number      1
_space_group_name_Hall           'P 1'
loop_
_symmetry_equiv_pos_site_id
_symmetry_equiv_pos_as_xyz
1 x,y,z
_cell_length_a                   19.878(4)
_cell_length_b                   11.4419(17)
_cell_length_c                   16.745(3)
_cell_angle_alpha                90
_cell_angle_beta                 90
_cell_angle_gamma                90
_cell_volume                     3808.52
loop_
_atom_site_label
_atom_site_type_symbol
_atom_site_fract_x
_atom_site_fract_y
_atom_site_fract_z
Fe2 Fe 0.0000 0.0000 0.0000
Fe2_2 Fe 0.0000 0.0000 1.0000
Fe2_3 Fe 0.0000 1.0000 0.0000
Fe2_4 Fe 0.0000 1.0000 1.0000
N1 N 0.1125(5) 0.0000 0.0000
N2 N 0.3234(4) 0.0000 0.0000
C3 C 0.2510(6) 0.0000 0.0000
C7 C 0.4650(5) 0.0000 0.0000
O2 O 0.3228(3) 0.1353(6) 0.0996(4)
C12 C 0.3560(4) 0.0719(8) 0.0562(6)
C13 C 0.4293(4) 0.0670(7) 0.0565(5)
C14 C 0.4646(4) 0.1308(8) 0.1131(6)
H6 H 0.4413 0.1738 0.1513
N5 N 0.8875(5) 0.0000 0.0000
N6 N 0.6766(4) 0.0000 0.0000
O3 O 0.6772(3) 0.1353(6) 0.0996(4)
C17 C 0.7490(6) 0.0000 0.0000
C18 C 0.6440(4) 0.0719(8) 0.0562(6)
C19 C 0.5707(4) 0.0670(7) 0.0565(5)
C20 C 0.5354(4) 0.1308(8) 0.1131(6)
H9 H 0.5587 0.1738 0.1513
C21 C 0.5350(5) 0.0000 0.0000
Fe2_5 Fe 1.0000 0.0000 0.0000
N11 N 0.0000 0.1734(11) 0.0443(7)
N1_2 N 0.1125(5) 0.0000 1.0000
N2_2 N 0.3234(4) 0.0000 1.0000
C3_2 C 0.2510(6) 0.0000 1.0000
C7_2 C 0.4650(5) 0.0000 1.0000
C10 C 0.1464(4) 0.0897(9) 0.9674(6)
H4 H 0.1229 0.1517 0.9449
C11 C 0.2155(4) 0.0906(9) 0.9672(6)
H5 H 0.2384 0.1533 0.9445
N5_2 N 0.8875(5) 0.0000 1.0000
N6_2 N 0.6766(4) 0.0000 1.0000
C15 C 0.8536(4) 0.0897(9) 0.9674(6)
H7 H 0.8771 0.1517 0.9449
C16 C 0.7845(4) 0.0906(9) 0.9672(6)
H8 H 0.7616 0.1533 0.9445
C17_2 C 0.7490(6) 0.0000 1.0000
C21_2 C 0.5350(5) 0.0000 1.0000
Ag2 Ag -0.0000 0.15419(10) 0.69811(7)
N7 N -0.0000 0.0583(11) 0.8773(8)
N8 N 0.0000 0.3266(11) 0.5443(7)
C27 C 0.0000 0.0825(15) 0.8112(10)
C28 C 0.0000 0.2561(15) 0.5947(10)
Fe2_6 Fe 1.0000 0.0000 1.0000
Fe4 Fe 0.0000 0.5000 0.5000
Ag1 Ag 0.0000 0.84581(10) 0.30189(7)
N1_3 N 0.1125(5) 1.0000 0.0000
N2_3 N 0.3234(4) 1.0000 0.0000
N3 N 0.0000 0.9417(11) 0.1227(8)
N4 N 0.0000 0.6734(11) 0.4557(7)
C1 C 0.1464(4) 0.9103(9) 0.0326(6)
H1 H 0.1229 0.8483 0.0551
C2 C 0.2155(4) 0.9094(9) 0.0328(6)
H2 H 0.2384 0.8467 0.0555
C3_3 C 0.2510(6) 1.0000 0.0000
C7_3 C 0.4650(5) 1.0000 0.0000
C8 C 0.0000 0.9175(15) 0.1888(10)
C9 C 0.0000 0.7439(15) 0.4053(10)
N5_3 N 0.8875(5) 1.0000 0.0000
N6_3 N 0.6766(4) 1.0000 0.0000
C17_3 C 0.7490(6) 1.0000 0.0000
C21_3 C 0.5350(5) 1.0000 0.0000
C22 C 0.8536(4) 0.9103(9) 0.0326(6)
H10 H 0.8771 0.8483 0.0551
C23 C 0.7845(4) 0.9094(9) 0.0328(6)
H11 H 0.7616 0.8467 0.0555
Fe2_7 Fe 1.0000 1.0000 0.0000
N1_4 N 0.1125(5) 1.0000 1.0000
N2_4 N 0.3234(4) 1.0000 1.0000
O1 O 0.3228(3) 0.8647(6) 0.9004(4)
C3_4 C 0.2510(6) 1.0000 1.0000
C4 C 0.3560(4) 0.9281(8) 0.9438(6)
C5 C 0.4293(4) 0.9330(7) 0.9435(5)
C6 C 0.4646(4) 0.8692(8) 0.8869(6)
H3 H 0.4413 0.8262 0.8487
C7_4 C 0.4650(5) 1.0000 1.0000
N5_4 N 0.8875(5) 1.0000 1.0000
N6_4 N 0.6766(4) 1.0000 1.0000
C17_4 C 0.7490(6) 1.0000 1.0000
C21_4 C 0.5350(5) 1.0000 1.0000
O4 O 0.6772(3) 0.8647(6) 0.9004(4)
C24 C 0.6440(4) 0.9281(8) 0.9438(6)
C25 C 0.5707(4) 0.9330(7) 0.9435(5)
C26 C 0.5354(4) 0.8692(8) 0.8869(6)
H12 H 0.5587 0.8262 0.8487
Fe2_8 Fe 1.0000 1.0000 1.0000
N10 N 0.0000 0.8266(11) 0.9557(7)
N11_2 N 1.0000 0.1734(11) 0.0443(7)
Ag2_2 Ag 1.0000 0.15419(10) 0.69811(7)
N7_2 N 1.0000 0.0583(11) 0.8773(8)
N8_2 N 1.0000 0.3266(11) 0.5443(7)
C27_2 C 1.0000 0.0825(15) 0.8112(10)
C28_2 C 1.0000 0.2561(15) 0.5947(10)
Fe4_2 Fe 1.0000 0.5000 0.5000
Ag1_2 Ag 1.0000 0.84581(10) 0.30189(7)
N3_2 N 1.0000 0.9417(11) 0.1227(8)
N4_2 N 1.0000 0.6734(11) 0.4557(7)
C8_2 C 1.0000 0.9175(15) 0.1888(10)
C9_2 C 1.0000 0.7439(15) 0.4053(10)
N10_2 N 1.0000 0.8266(11) 0.9557(7)
Ag1_3 Ag 0.0000 0.65419(10) 0.80189(7)
N3_3 N 0.0000 0.5583(11) 0.6227(8)
C8_3 C 0.0000 0.5825(15) 0.6888(10)
C9_3 C 0.0000 0.7561(15) 0.9053(10)
Ag2_3 Ag 0.0000 0.34581(10) 0.19811(7)
N7_3 N 0.0000 0.4417(11) 0.3773(8)
C27_3 C 0.0000 0.4175(15) 0.3112(10)
C28_3 C 0.0000 0.2439(15) 0.0947(10)
N9 N 0.1125(5) 0.5000 0.5000
Ag1_4 Ag 1.0000 0.65419(10) 0.80189(7)
N1_5 N 0.8875(5) 0.5000 0.5000
N2_5 N 0.6766(4) 0.5000 0.5000
N3_4 N 1.0000 0.5583(11) 0.6227(8)
O1_2 O 0.6772(3) 0.6353(6) 0.4004(4)
C1_2 C 0.8536(4) 0.5897(9) 0.5326(6)
H1_2 H 0.8771 0.6517 0.5551
C2_2 C 0.7845(4) 0.5906(9) 0.5328(6)
H2_2 H 0.7616 0.6533 0.5555
C3_5 C 0.7490(6) 0.5000 0.5000
C4_2 C 0.6440(4) 0.5719(8) 0.4438(6)
C5_2 C 0.5707(4) 0.5670(7) 0.4435(5)
C6_2 C 0.5354(4) 0.6308(8) 0.3869(6)
H3_2 H 0.5587 0.6738 0.3487
C7_5 C 0.5350(5) 0.5000 0.5000
C8_4 C 1.0000 0.5825(15) 0.6888(10)
C9_4 C 1.0000 0.7561(15) 0.9053(10)
O2_2 O 0.6772(3) 0.3647(6) 0.5996(4)
C10_2 C 0.8536(4) 0.4103(9) 0.4674(6)
H4_2 H 0.8771 0.3483 0.4449
C11_2 C 0.7845(4) 0.4094(9) 0.4672(6)
H5_2 H 0.7616 0.3467 0.4445
C12_2 C 0.6440(4) 0.4281(8) 0.5562(6)
C13_2 C 0.5707(4) 0.4330(7) 0.5565(5)
C14_2 C 0.5354(4) 0.3692(8) 0.6131(6)
H6_2 H 0.5587 0.3262 0.6513
N6_5 N 0.3234(4) 0.5000 0.5000
O3_2 O 0.3228(3) 0.3647(6) 0.5996(4)
C15_2 C 0.1464(4) 0.4103(9) 0.4674(6)
H7_2 H 0.1229 0.3483 0.4449
C16_2 C 0.2155(4) 0.4094(9) 0.4672(6)
H8_2 H 0.2384 0.3467 0.4445
C17_5 C 0.2510(6) 0.5000 0.5000
C18_2 C 0.3560(4) 0.4281(8) 0.5562(6)
C19_2 C 0.4293(4) 0.4330(7) 0.5565(5)
C20_2 C 0.4646(4) 0.3692(8) 0.6131(6)
H9_2 H 0.4413 0.3262 0.6513
C21_5 C 0.4650(5) 0.5000 0.5000
O4_2 O 0.3228(3) 0.6353(6) 0.4004(4)
C22_2 C 0.1464(4) 0.5897(9) 0.5326(6)
H10_2 H 0.1229 0.6517 0.5551
C23_2 C 0.2155(4) 0.5906(9) 0.5328(6)
H11_2 H 0.2384 0.6533 0.5555
C24_2 C 0.3560(4) 0.5719(8) 0.4438(6)
C25_2 C 0.4293(4) 0.5670(7) 0.4435(5)
C26_2 C 0.4646(4) 0.6308(8) 0.3869(6)
H12_2 H 0.4413 0.6738 0.3487
Ag2_4 Ag 1.0000 0.34581(10) 0.19811(7)
N7_4 N 1.0000 0.4417(11) 0.3773(8)
C27_4 C 1.0000 0.4175(15) 0.3112(10)
C28_4 C 1.0000 0.2439(15) 0.0947(10)
N5_5 N 0.3875(5) 0.5000 0.0000
N6_6 N 0.1766(4) 0.5000 0.0000
O3_3 O 0.1772(3) 0.6353(6) 0.0996(4)
C17_6 C 0.2490(6) 0.5000 0.0000
C18_3 C 0.1440(4) 0.5719(8) 0.0562(6)
C19_3 C 0.0707(4) 0.5670(7) 0.0565(5)
C20_3 C 0.0354(4) 0.6308(8) 0.1131(6)
H9_3 H 0.0587 0.6738 0.1513
C21_6 C 0.0350(5) 0.5000 0.0000
C22_3 C 0.3536(4) 0.4103(9) 0.0326(6)
H10_3 H 0.3771 0.3483 0.0551
C23_3 C 0.2845(4) 0.4094(9) 0.0328(6)
H11_3 H 0.2616 0.3467 0.0555
Fe2_9 Fe 0.5000 0.5000 0.0000
N5_6 N 0.3875(5) 0.5000 1.0000
N6_7 N 0.1766(4) 0.5000 1.0000
C15_3 C 0.3536(4) 0.5897(9) 0.9674(6)
H7_3 H 0.3771 0.6517 0.9449
C16_3 C 0.2845(4) 0.5906(9) 0.9672(6)
H8_3 H 0.2616 0.6533 0.9445
C17_7 C 0.2490(6) 0.5000 1.0000
C21_7 C 0.0350(5) 0.5000 1.0000
O4_3 O 0.1772(3) 0.3647(6) 0.9004(4)
C24_3 C 0.1440(4) 0.4281(8) 0.9438(6)
C25_3 C 0.0707(4) 0.4330(7) 0.9435(5)
C26_3 C 0.0354(4) 0.3692(8) 0.8869(6)
H12_3 H 0.0587 0.3262 0.8487
Fe2_10 Fe 0.5000 0.5000 1.0000
Fe4_3 Fe 0.5000 0.0000 0.5000
Ag1_5 Ag 0.5000 0.34581(10) 0.30189(7)
N1_6 N 0.6125(5) 0.5000 0.0000
N2_6 N 0.8234(4) 0.5000 0.0000
N3_5 N 0.5000 0.4417(11) 0.1227(8)
N4_3 N 0.5000 0.1734(11) 0.4557(7)
C1_3 C 0.6464(4) 0.4103(9) 0.0326(6)
H1_3 H 0.6229 0.3483 0.0551
C2_3 C 0.7155(4) 0.4094(9) 0.0328(6)
H2_3 H 0.7384 0.3467 0.0555
C3_6 C 0.7510(6) 0.5000 0.0000
C7_6 C 0.9650(5) 0.5000 0.0000
C8_5 C 0.5000 0.4175(15) 0.1888(10)
C9_5 C 0.5000 0.2439(15) 0.4053(10)
O2_3 O 0.8228(3) 0.6353(6) 0.0996(4)
C12_3 C 0.8560(4) 0.5719(8) 0.0562(6)
C13_3 C 0.9293(4) 0.5670(7) 0.0565(5)
C14_3 C 0.9646(4) 0.6308(8) 0.1131(6)
H6_3 H 0.9413 0.6738 0.1513
N11_3 N 0.5000 0.6734(11) 0.0443(7)
N1_7 N 0.6125(5) 0.5000 1.0000
N2_7 N 0.8234(4) 0.5000 1.0000
O1_3 O 0.8228(3) 0.3647(6) 0.9004(4)
C3_7 C 0.7510(6) 0.5000 1.0000
C4_3 C 0.8560(4) 0.4281(8) 0.9438(6)
C5_3 C 0.9293(4) 0.4330(7) 0.9435(5)
C6_3 C 0.9646(4) 0.3692(8) 0.8869(6)
H3_3 H 0.9413 0.3262 0.8487
C7_7 C 0.9650(5) 0.5000 1.0000
C10_3 C 0.6464(4) 0.5897(9) 0.9674(6)
H4_3 H 0.6229 0.6517 0.9449
C11_3 C 0.7155(4) 0.5906(9) 0.9672(6)
H5_3 H 0.7384 0.6533 0.9445
Ag2_5 Ag 0.5000 0.65419(10) 0.69811(7)
N7_5 N 0.5000 0.5583(11) 0.8773(8)
N8_3 N 0.5000 0.8266(11) 0.5443(7)
C27_5 C 0.5000 0.5825(15) 0.8112(10)
C28_5 C 0.5000 0.7561(15) 0.5947(10)
Fe4_4 Fe 0.5000 1.0000 0.5000
N10_3 N 0.5000 0.3266(11) 0.9557(7)
Ag1_6 Ag 0.5000 0.15419(10) 0.80189(7)
N1_8 N 0.3875(5) 0.0000 0.5000
N2_8 N 0.1766(4) 0.0000 0.5000
N3_6 N 0.5000 0.0583(11) 0.6227(8)
O1_4 O 0.1772(3) 0.1353(6) 0.4004(4)
C1_4 C 0.3536(4) 0.0897(9) 0.5326(6)
H1_4 H 0.3771 0.1517 0.5551
C2_4 C 0.2845(4) 0.0906(9) 0.5328(6)
H2_4 H 0.2616 0.1533 0.5555
C3_8 C 0.2490(6) 0.0000 0.5000
C4_4 C 0.1440(4) 0.0719(8) 0.4438(6)
C5_4 C 0.0707(4) 0.0670(7) 0.4435(5)
C6_4 C 0.0354(4) 0.1308(8) 0.3869(6)
H3_4 H 0.0587 0.1738 0.3487
C7_8 C 0.0350(5) 0.0000 0.5000
C8_6 C 0.5000 0.0825(15) 0.6888(10)
C9_6 C 0.5000 0.2561(15) 0.9053(10)
N9_2 N 0.6125(5) 0.0000 0.5000
N1_9 N 0.3875(5) 1.0000 0.5000
N2_9 N 0.1766(4) 1.0000 0.5000
C3_9 C 0.2490(6) 1.0000 0.5000
C7_9 C 0.0350(5) 1.0000 0.5000
O2_4 O 0.1772(3) 0.8647(6) 0.5996(4)
C10_4 C 0.3536(4) 0.9103(9) 0.4674(6)
H4_4 H 0.3771 0.8483 0.4449
C11_4 C 0.2845(4) 0.9094(9) 0.4672(6)
H5_4 H 0.2616 0.8467 0.4445
C12_4 C 0.1440(4) 0.9281(8) 0.5562(6)
C13_4 C 0.0707(4) 0.9330(7) 0.5565(5)
C14_4 C 0.0354(4) 0.8692(8) 0.6131(6)
H6_4 H 0.0587 0.8262 0.6513
Ag2_6 Ag 0.5000 0.84581(10) 0.19811(7)
N7_6 N 0.5000 0.9417(11) 0.3773(8)
C27_6 C 0.5000 0.9175(15) 0.3112(10)
C28_6 C 0.5000 0.7439(15) 0.0947(10)
N9_3 N 0.6125(5) 1.0000 0.5000
N6_8 N 0.8234(4) 0.0000 0.5000
C17_8 C 0.7510(6) 0.0000 0.5000
C21_8 C 0.9650(5) 0.0000 0.5000
O4_4 O 0.8228(3) 0.1353(6) 0.4004(4)
C22_4 C 0.6464(4) 0.0897(9) 0.5326(6)
H10_4 H 0.6229 0.1517 0.5551
C23_4 C 0.7155(4) 0.0906(9) 0.5328(6)
H11_4 H 0.7384 0.1533 0.5555
C24_4 C 0.8560(4) 0.0719(8) 0.4438(6)
C25_4 C 0.9293(4) 0.0670(7) 0.4435(5)
C26_4 C 0.9646(4) 0.1308(8) 0.3869(6)
H12_4 H 0.9413 0.1738 0.3487
N6_9 N 0.8234(4) 1.0000 0.5000
O3_4 O 0.8228(3) 0.8647(6) 0.5996(4)
C15_4 C 0.6464(4) 0.9103(9) 0.4674(6)
H7_4 H 0.6229 0.8483 0.4449
C16_4 C 0.7155(4) 0.9094(9) 0.4672(6)
H8_4 H 0.7384 0.8467 0.4445
C17_9 C 0.7510(6) 1.0000 0.5000
C18_4 C 0.8560(4) 0.9281(8) 0.5562(6)
C19_4 C 0.9293(4) 0.9330(7) 0.5565(5)
C20_4 C 0.9646(4) 0.8692(8) 0.6131(6)
H9_4 H 0.9413 0.8262 0.6513
C21_9 C 0.9650(5) 1.0000 0.5000
loop_
_geom_bond_atom_site_label_1
_geom_bond_atom_site_label_2
_geom_bond_site_symmetry_1
_geom_bond_site_symmetry_2
Fe2 N1 1_555 1_555
N2 C3 1_555 1_555
O2 C12 1_555 1_555
C12 N2 1_555 1_555
C13 C7 1_555 1_555
C14 C13 1_555 1_555
H6 C14 1_555 1_555
N6 C17 1_555 1_555
O3 C18 1_555 1_555
C18 N6 1_555 1_555
C19 C18 1_555 1_555
C20 C14 1_555 1_555
H9 C20 1_555 1_555
C21 C7 1_555 1_555
Fe2_5 N5 1_555 1_555
N11 Fe2 1_555 1_555
C12 C13 1_555 1_555
C19 C20 1_555 1_555
C19 C21 1_555 1_555
Fe2_2 N1_2 1_555 1_555
N2_2 C3_2 1_555 1_555
C10 N1_2 1_555 1_555
H4 C10 1_555 1_555
C11 C3_2 1_555 1_555
H5 C11 1_555 1_555
N5_2 C15 1_555 1_555
N6_2 C17_2 1_555 1_555
C15 H7 1_555 1_555
C16 C15 1_555 1_555
H8 C16 1_555 1_555
C17_2 C16 1_555 1_555
C21_2 C7_2 1_555 1_555
Ag2 C27 1_555 1_555
N7 Fe2_2 1_555 1_555
N8 C28 1_555 1_555
C27 N7 1_555 1_555
C28 Ag2 1_555 1_555
Fe2_6 N5_2 1_555 1_555
Fe4 N8 1_555 1_555
C10 C11 1_555 1_555
Ag1 C8 1_555 1_555
Fe2_3 N1_3 1_555 1_555
N1_3 C1 1_555 1_555
N2_3 C3_3 1_555 1_555
N3 Fe2_3 1_555 1_555
N4 C9 1_555 1_555
C1 H1 1_555 1_555
C2 C1 1_555 1_555
H2 C2 1_555 1_555
C3_3 C2 1_555 1_555
C8 N3 1_555 1_555
C9 Ag1 1_555 1_555
N6_3 C17_3 1_555 1_555
C21_3 C7_3 1_555 1_555
C22 N5_3 1_555 1_555
H10 C22 1_555 1_555
C23 C17_3 1_555 1_555
H11 C23 1_555 1_555
Fe2_7 N5_3 1_555 1_555
Fe4 N4 1_555 1_555
C22 C23 1_555 1_555
Fe2_4 N1_4 1_555 1_555
N2_4 C3_4 1_555 1_555
O1 C4 1_555 1_555
C4 N2_4 1_555 1_555
C5 C4 1_555 1_555
C6 C5 1_555 1_555
H3 C6 1_555 1_555
C7_4 C5 1_555 1_555
N6_4 C17_4 1_555 1_555
C21_4 C7_4 1_555 1_555
O4 C24 1_555 1_555
C24 N6_4 1_555 1_555
C25 C21_4 1_555 1_555
C26 C6 1_555 1_555
H12 C26 1_555 1_555
Fe2_8 N5_4 1_555 1_555
N10 Fe2_4 1_555 1_555
C24 C25 1_555 1_555
C25 C26 1_555 1_555
N11_2 Fe2_5 1_555 1_555
Ag2_2 C27_2 1_555 1_555
N7_2 Fe2_6 1_555 1_555
N8_2 C28_2 1_555 1_555
C27_2 N7_2 1_555 1_555
C28_2 Ag2_2 1_555 1_555
Fe4_2 N8_2 1_555 1_555
Ag1_2 C8_2 1_555 1_555
N3_2 Fe2_7 1_555 1_555
N4_2 C9_2 1_555 1_555
C8_2 N3_2 1_555 1_555
C9_2 Ag1_2 1_555 1_555
Fe4_2 N4_2 1_555 1_555
N10_2 Fe2_8 1_555 1_555
Ag1_3 C8_3 1_555 1_555
N3_3 Fe4 1_555 1_555
N10 C9_3 1_555 1_555
C8_3 N3_3 1_555 1_555
C9_3 Ag1_3 1_555 1_555
Ag2_3 C27_3 1_555 1_555
N7_3 Fe4 1_555 1_555
N11 C28_3 1_555 1_555
C27_3 N7_3 1_555 1_555
C28_3 Ag2_3 1_555 1_555
N9 Fe4 1_555 1_555
Ag1_4 C8_4 1_555 1_555
Fe4_2 N1_5 1_555 1_555
N1_5 C1_2 1_555 1_555
N2_5 C3_5 1_555 1_555
N3_4 Fe4_2 1_555 1_555
N10_2 C9_4 1_555 1_555
O1_2 C4_2 1_555 1_555
C1_2 H1_2 1_555 1_555
C2_2 C1_2 1_555 1_555
H2_2 C2_2 1_555 1_555
C3_5 C2_2 1_555 1_555
C4_2 N2_5 1_555 1_555
C5_2 C4_2 1_555 1_555
C6_2 C5_2 1_555 1_555
H3_2 C6_2 1_555 1_555
C7_5 C5_2 1_555 1_555
C8_4 N3_4 1_555 1_555
C9_4 Ag1_4 1_555 1_555
O2_2 C12_2 1_555 1_555
C10_2 N1_5 1_555 1_555
H4_2 C10_2 1_555 1_555
C11_2 C3_5 1_555 1_555
H5_2 C11_2 1_555 1_555
C12_2 N2_5 1_555 1_555
C13_2 C7_5 1_555 1_555
C14_2 C13_2 1_555 1_555
H6_2 C14_2 1_555 1_555
N9 C15_2 1_555 1_555
N6_5 C17_5 1_555 1_555
O3_2 C18_2 1_555 1_555
C15_2 H7_2 1_555 1_555
C16_2 C15_2 1_555 1_555
H8_2 C16_2 1_555 1_555
C17_5 C16_2 1_555 1_555
C18_2 N6_5 1_555 1_555
C19_2 C18_2 1_555 1_555
C20_2 C14_2 1_555 1_555
H9_2 C20_2 1_555 1_555
C21_5 C7_5 1_555 1_555
O4_2 C24_2 1_555 1_555
C22_2 N9 1_555 1_555
H10_2 C22_2 1_555 1_555
C23_2 C17_5 1_555 1_555
H11_2 C23_2 1_555 1_555
C24_2 N6_5 1_555 1_555
C25_2 C21_5 1_555 1_555
C26_2 C6_2 1_555 1_555
H12_2 C26_2 1_555 1_555
Ag2_4 C27_4 1_555 1_555
N7_4 Fe4_2 1_555 1_555
N11_2 C28_4 1_555 1_555
C27_4 N7_4 1_555 1_555
C28_4 Ag2_4 1_555 1_555
C10_2 C11_2 1_555 1_555
C12_2 C13_2 1_555 1_555
C19_2 C20_2 1_555 1_555
C19_2 C21_5 1_555 1_555
C22_2 C23_2 1_555 1_555
C24_2 C25_2 1_555 1_555
C25_2 C26_2 1_555 1_555
N6_6 C17_6 1_555 1_555
O3_3 C18_3 1_555 1_555
C18_3 N6_6 1_555 1_555
C19_3 C18_3 1_555 1_555
H9_3 C20_3 1_555 1_555
C22_3 N5_5 1_555 1_555
H10_3 C22_3 1_555 1_555
C23_3 C17_6 1_555 1_555
H11_3 C23_3 1_555 1_555
Fe2_9 N5_5 1_555 1_555
C19_3 C20_3 1_555 1_555
C19_3 C21_6 1_555 1_555
C22_3 C23_3 1_555 1_555
N5_6 C15_3 1_555 1_555
N6_7 C17_7 1_555 1_555
C15_3 H7_3 1_555 1_555
C16_3 C15_3 1_555 1_555
H8_3 C16_3 1_555 1_555
C17_7 C16_3 1_555 1_555
O4_3 C24_3 1_555 1_555
C24_3 N6_7 1_555 1_555
C25_3 C21_7 1_555 1_555
H12_3 C26_3 1_555 1_555
Fe2_10 N5_6 1_555 1_555
C24_3 C25_3 1_555 1_555
C25_3 C26_3 1_555 1_555
Ag1_5 C8_5 1_555 1_555
Fe2_9 N1_6 1_555 1_555
N1_6 C1_3 1_555 1_555
N2_6 C3_6 1_555 1_555
N3_5 Fe2_9 1_555 1_555
N4_3 C9_5 1_555 1_555
C1_3 H1_3 1_555 1_555
C2_3 C1_3 1_555 1_555
H2_3 C2_3 1_555 1_555
C3_6 C2_3 1_555 1_555
C8_5 N3_5 1_555 1_555
C9_5 Ag1_5 1_555 1_555
O2_3 C12_3 1_555 1_555
C12_3 N2_6 1_555 1_555
C13_3 C7_6 1_555 1_555
C14_3 C13_3 1_555 1_555
H6_3 C14_3 1_555 1_555
Fe4_3 N4_3 1_555 1_555
N11_3 Fe2_9 1_555 1_555
C12_3 C13_3 1_555 1_555
Fe2_10 N1_7 1_555 1_555
N2_7 C3_7 1_555 1_555
O1_3 C4_3 1_555 1_555
C4_3 N2_7 1_555 1_555
C5_3 C4_3 1_555 1_555
C6_3 C5_3 1_555 1_555
H3_3 C6_3 1_555 1_555
C7_7 C5_3 1_555 1_555
C10_3 N1_7 1_555 1_555
H4_3 C10_3 1_555 1_555
C11_3 C3_7 1_555 1_555
H5_3 C11_3 1_555 1_555
Ag2_5 C27_5 1_555 1_555
N7_5 Fe2_10 1_555 1_555
N8_3 C28_5 1_555 1_555
C27_5 N7_5 1_555 1_555
C28_5 Ag2_5 1_555 1_555
Fe4_4 N8_3 1_555 1_555
N10_3 Fe2_10 1_555 1_555
C10_3 C11_3 1_555 1_555
Ag1_6 C8_6 1_555 1_555
Fe4_3 N1_8 1_555 1_555
N1_8 C1_4 1_555 1_555
N2_8 C3_8 1_555 1_555
N3_6 Fe4_3 1_555 1_555
N10_3 C9_6 1_555 1_555
O1_4 C4_4 1_555 1_555
C1_4 H1_4 1_555 1_555
C2_4 C1_4 1_555 1_555
H2_4 C2_4 1_555 1_555
C3_8 C2_4 1_555 1_555
C4_4 N2_8 1_555 1_555
C5_4 C4_4 1_555 1_555
C6_4 C5_4 1_555 1_555
H3_4 C6_4 1_555 1_555
C7_8 C5_4 1_555 1_555
C8_6 N3_6 1_555 1_555
C9_6 Ag1_6 1_555 1_555
N9_2 Fe4_3 1_555 1_555
Fe4_4 N1_9 1_555 1_555
N2_9 C3_9 1_555 1_555
O2_4 C12_4 1_555 1_555
C10_4 N1_9 1_555 1_555
H4_4 C10_4 1_555 1_555
C11_4 C3_9 1_555 1_555
H5_4 C11_4 1_555 1_555
C12_4 N2_9 1_555 1_555
C13_4 C7_9 1_555 1_555
C14_4 C13_4 1_555 1_555
H6_4 C14_4 1_555 1_555
Ag2_6 C27_6 1_555 1_555
N7_6 Fe4_4 1_555 1_555
N11_3 C28_6 1_555 1_555
C27_6 N7_6 1_555 1_555
C28_6 Ag2_6 1_555 1_555
N9_3 Fe4_4 1_555 1_555
C10_4 C11_4 1_555 1_555
C12_4 C13_4 1_555 1_555
N6_8 C17_8 1_555 1_555
O4_4 C24_4 1_555 1_555
C22_4 N9_2 1_555 1_555
H10_4 C22_4 1_555 1_555
C23_4 C17_8 1_555 1_555
H11_4 C23_4 1_555 1_555
C24_4 N6_8 1_555 1_555
C25_4 C21_8 1_555 1_555
H12_4 C26_4 1_555 1_555
C22_4 C23_4 1_555 1_555
C24_4 C25_4 1_555 1_555
C25_4 C26_4 1_555 1_555
N9_3 C15_4 1_555 1_555
N6_9 C17_9 1_555 1_555
O3_4 C18_4 1_555 1_555
C15_4 H7_4 1_555 1_555
C16_4 C15_4 1_555 1_555
H8_4 C16_4 1_555 1_555
C17_9 C16_4 1_555 1_555
C18_4 N6_9 1_555 1_555
C19_4 C18_4 1_555 1_555
H9_4 C20_4 1_555 1_555
C19_4 C20_4 1_555 1_555
C19_4 C21_9 1_555 1_555

#END
