
###############################################################################
#
# This file contains modified crystal structure data generated from the
# MOF subset of the Cambridge Structural Database (CSD) v543 
# hosted by the Cambridge Crystallographic Data Centre (CCDC).
#
# This work is licensed under the Creative Commons
# Attribution-NonCommercial-ShareAlike 4.0 International License.
# To view a copy of this license, visit
# http://creativecommons.org/licenses/by-nc-sa/4.0/
# or send a letter to
# Creative Commons, PO Box 1866, Mountain View, CA 94042, USA.
#
# CIF created using the CSD Python API on 29 September 2022
# The structure has been converted into the P1 space group
# The structure has a 3D framework
# The original CSD entry UFOGEE is in the monoclinic crystal system
# The framework has been calculated to contain at least 10.0% void space
# The void calculation uses a probe of radius 1.32A, grid spacing 0.4
#
###############################################################################

data_UFOGEE
_chemical_formula_moiety         '(C96 H64 N16 O16 Zn2)n'
_symmetry_cell_setting           triclinic
_symmetry_space_group_name_H-M   'P 1'
_symmetry_Int_Tables_number      1
_space_group_name_Hall           'P 1'
loop_
_symmetry_equiv_pos_site_id
_symmetry_equiv_pos_as_xyz
1 x,y,z
_cell_length_a                   29.082(3)
_cell_length_b                   6.0970(7)
_cell_length_c                   17.5730(18)
_cell_angle_alpha                90
_cell_angle_beta                 104.874(6)
_cell_angle_gamma                90
_cell_volume                     3011.51
loop_
_atom_site_label
_atom_site_type_symbol
_atom_site_fract_x
_atom_site_fract_y
_atom_site_fract_z
Zn2 Zn -0.0000 0.07117(13) 0.7500
H12 H 0.0474 0.0191 0.9208
C18 C 0.0912(2) 0.1951(10) 0.8074(3)
C19 C 0.1326(2) 0.3300(10) 0.8515(3)
C20 C 0.1253(3) 0.5354(11) 0.8795(4)
H13 H 0.0947 0.5932 0.8693
C21 C 0.1645(3) 0.6577(12) 0.9237(4)
H14 H 0.1596 0.7950 0.9433
C22 C 0.2092(3) 0.5738(14) 0.9374(4)
C23 C 0.2167(3) 0.3712(16) 0.9075(5)
H15 H 0.2475 0.3172 0.9153
C24 C 0.1786(2) 0.2494(14) 0.8662(4)
H16 H 0.1839 0.1109 0.8479
N4 N 0.2555(3) 0.6762(12) 0.9854(5)
O3 O 0.05048(14) 0.2767(7) 0.7952(2)
O4 O 0.09810(19) 0.0037(10) 0.7898(4)
C4 C 0.0288(2) 0.2396(10) 0.4766(3)
H3 H 0.0493 0.2091 0.5254
C5 C 0.0272(2) 0.1017(9) 0.4132(3)
C13 C 0.0295(2) 0.6885(10) 0.6678(3)
H9 H 0.0496 0.6621 0.7173
C14 C 0.0298(2) 0.5419(10) 0.6084(3)
H10 H 0.0496 0.4200 0.6185
C15 C 0.00038(18) 0.5757(8) 0.5332(3)
N3 N 0.00200(16) 0.8656(8) 0.6582(2)
N5 N 0.00200(16) 0.1344(8) 0.1582(2)
C1 C 0.0295(2) 0.3115(10) 0.1678(3)
H1 H 0.0496 0.3379 0.2173
C2 C 0.0298(2) 0.4581(10) 0.1084(3)
H2 H 0.0496 0.5800 0.1185
C3 C 0.00038(18) 0.4243(8) 0.0332(3)
H11 H 0.0493 0.7909 0.0254
C16 C 0.0288(2) 0.7604(10) 0.9766(3)
C17 C 0.0272(2) 0.8983(9) 0.9132(3)
H4 H 0.0474 0.9809 0.4208
C6 C 0.0912(2) 0.8049(10) 0.3074(3)
C7 C 0.1326(2) 0.6700(10) 0.3515(3)
C8 C 0.1253(3) 0.4646(11) 0.3795(4)
H5 H 0.0947 0.4068 0.3693
C9 C 0.1645(3) 0.3423(12) 0.4237(4)
H6 H 0.1596 0.2050 0.4433
C10 C 0.2092(3) 0.4262(14) 0.4374(4)
C11 C 0.2167(3) 0.6288(16) 0.4075(5)
H7 H 0.2475 0.6828 0.4153
C12 C 0.1786(2) 0.7506(14) 0.3662(4)
H8 H 0.1839 0.8891 0.3479
N1 N 0.2555(3) 0.3238(12) 0.4854(5)
O1 O 0.05048(14) 0.7233(7) 0.2952(2)
O2 O 0.09810(19) 0.9963(10) 0.2898(4)
Zn1 Zn -0.0000 0.92883(13) 0.2500
C20_2 C 0.3747(3) 0.0354(11) 0.6205(4)
H13_2 H 0.4053 0.0932 0.6307
C21_2 C 0.3355(3) 0.1577(12) 0.5763(4)
H14_2 H 0.3404 0.2950 0.5567
C22_2 C 0.2908(3) 0.0738(14) 0.5626(4)
N4_2 N 0.2445(3) 0.1762(12) 0.5146(5)
C18_2 C 0.4088(2) 0.6951(10) 0.6926(3)
C19_2 C 0.3674(2) 0.8300(10) 0.6485(3)
C23_2 C 0.2833(3) 0.8712(16) 0.5925(5)
H15_2 H 0.2525 0.8172 0.5847
C24_2 C 0.3214(2) 0.7494(14) 0.6338(4)
H16_2 H 0.3161 0.6109 0.6521
O3_2 O 0.44952(14) 0.7767(7) 0.7048(2)
O4_2 O 0.40190(19) 0.5037(10) 0.7102(4)
Zn3 Zn 0.5000 0.57117(13) 0.7500
C18_3 C 0.5912(2) 0.6951(10) 0.8074(3)
C19_3 C 0.6326(2) 0.8300(10) 0.8515(3)
C23_3 C 0.7167(3) 0.8712(16) 0.9075(5)
H15_3 H 0.7475 0.8172 0.9153
C24_3 C 0.6786(2) 0.7494(14) 0.8662(4)
H16_3 H 0.6839 0.6109 0.8479
O3_3 O 0.55048(14) 0.7767(7) 0.7952(2)
O4_3 O 0.59810(19) 0.5037(10) 0.7898(4)
H2_2 H 0.4504 0.0800 0.3815
C13_2 C 0.5295(2) 0.1885(10) 0.6678(3)
H9_2 H 0.5496 0.1621 0.7173
C14_2 C 0.5298(2) 0.0419(10) 0.6084(3)
C15_2 C 0.50038(18) 0.0757(8) 0.5332(3)
C16_2 C 0.4712(2) 0.2604(10) 0.5234(3)
H11_2 H 0.4507 0.2909 0.4746
C17_2 C 0.4728(2) 0.3983(9) 0.5868(3)
H12_2 H 0.4526 0.5191 0.5792
N3_2 N 0.50200(16) 0.3656(8) 0.6582(2)
C13_3 C 0.4705(2) 0.1885(10) 0.8322(3)
H9_3 H 0.4504 0.1621 0.7827
C14_3 C 0.4702(2) 0.0419(10) 0.8916(3)
C15_3 C 0.49962(18) 0.0757(8) 0.9668(3)
C16_3 C 0.5288(2) 0.2604(10) 0.9766(3)
C17_3 C 0.5272(2) 0.3983(9) 0.9132(3)
H12_3 H 0.5474 0.5191 0.9208
N3_3 N 0.49800(16) 0.3656(8) 0.8418(2)
H12_4 H 0.9526 0.0191 0.5792
Zn2_2 Zn 1.0000 0.07117(13) 0.7500
C8_2 C 0.6253(3) 0.9646(11) 0.3795(4)
H5_2 H 0.5947 0.9068 0.3693
C9_2 C 0.6645(3) 0.8423(12) 0.4237(4)
H6_2 H 0.6596 0.7050 0.4433
C10_2 C 0.7092(3) 0.9262(14) 0.4374(4)
N1_2 N 0.7555(3) 0.8238(12) 0.4854(5)
C18_4 C 0.9088(2) 0.1951(10) 0.6926(3)
C19_4 C 0.8674(2) 0.3300(10) 0.6485(3)
C20_3 C 0.8747(3) 0.5354(11) 0.6205(4)
H13_3 H 0.9053 0.5932 0.6307
C21_3 C 0.8355(3) 0.6577(12) 0.5763(4)
H14_3 H 0.8404 0.7950 0.5567
C22_3 C 0.7908(3) 0.5738(14) 0.5626(4)
C23_4 C 0.7833(3) 0.3712(16) 0.5925(5)
H15_4 H 0.7525 0.3172 0.5847
C24_4 C 0.8214(2) 0.2494(14) 0.6338(4)
H16_4 H 0.8161 0.1109 0.6521
N4_3 N 0.7445(3) 0.6762(12) 0.5146(5)
O3_4 O 0.94952(14) 0.2767(7) 0.7048(2)
O4_4 O 0.90190(19) 0.0037(10) 0.7102(4)
C1_2 C 0.9705(2) 0.3115(10) 0.3322(3)
H1_2 H 0.9504 0.3379 0.2827
C2_2 C 0.9702(2) 0.4581(10) 0.3916(3)
H2_3 H 0.9504 0.5800 0.3815
C3_2 C 0.99962(18) 0.4243(8) 0.4668(3)
N2 N 0.99800(16) 0.1344(8) 0.3418(2)
C16_4 C 0.9712(2) 0.7604(10) 0.5234(3)
H11_3 H 0.9507 0.7909 0.4746
C17_4 C 0.9728(2) 0.8983(9) 0.5868(3)
C4_2 C 0.9712(2) 0.2396(10) 0.0234(3)
C5_2 C 0.9728(2) 0.1017(9) 0.0868(3)
H3_2 H 0.9507 0.2091 0.9746
C13_4 C 0.9705(2) 0.6885(10) 0.8322(3)
H9_4 H 0.9504 0.6621 0.7827
C14_4 C 0.9702(2) 0.5419(10) 0.8916(3)
H10_2 H 0.9504 0.4200 0.8815
C15_4 C 0.99962(18) 0.5757(8) 0.9668(3)
N3_4 N 0.99800(16) 0.8656(8) 0.8418(2)
Zn1_2 Zn 1.0000 0.92883(13) 0.2500
O5 O 0.94952(14) 0.7233(7) 0.2048(2)
H4_2 H 0.9526 0.9809 0.0792
C6_2 C 0.9088(2) 0.8049(10) 0.1926(3)
C7_2 C 0.8674(2) 0.6700(10) 0.1485(3)
C8_3 C 0.8747(3) 0.4646(11) 0.1205(4)
H5_3 H 0.9053 0.4068 0.1307
C9_3 C 0.8355(3) 0.3423(12) 0.0763(4)
H6_3 H 0.8404 0.2050 0.0567
C10_3 C 0.7908(3) 0.4262(14) 0.0626(4)
C11_2 C 0.7833(3) 0.6288(16) 0.0925(5)
H7_2 H 0.7525 0.6828 0.0847
C12_2 C 0.8214(2) 0.7506(14) 0.1338(4)
H8_2 H 0.8161 0.8891 0.1521
N1_3 N 0.7445(3) 0.3238(12) 0.0146(5)
O2_2 O 0.90190(19) 0.9963(10) 0.2102(4)
C20_4 C 0.6253(3) 0.0354(11) 0.8795(4)
H13_4 H 0.5947 0.0932 0.8693
C21_4 C 0.6645(3) 0.1577(12) 0.9237(4)
H14_4 H 0.6596 0.2950 0.9433
C22_4 C 0.7092(3) 0.0738(14) 0.9374(4)
N4_4 N 0.7555(3) 0.1762(12) 0.9854(5)
C1_3 C 0.4705(2) 0.8115(10) 0.3322(3)
H1_3 H 0.4504 0.8379 0.2827
C2_3 C 0.4702(2) 0.9581(10) 0.3916(3)
C3_3 C 0.49962(18) 0.9243(8) 0.4668(3)
C4_3 C 0.5288(2) 0.7396(10) 0.4766(3)
H3_3 H 0.5493 0.7091 0.5254
C5_3 C 0.5272(2) 0.6017(9) 0.4132(3)
H4_3 H 0.5474 0.4809 0.4208
C6_3 C 0.5912(2) 0.3049(10) 0.3074(3)
C7_3 C 0.6326(2) 0.1700(10) 0.3515(3)
C11_3 C 0.7167(3) 0.1288(16) 0.4075(5)
H7_3 H 0.7475 0.1828 0.4153
C12_3 C 0.6786(2) 0.2506(14) 0.3662(4)
H8_3 H 0.6839 0.3891 0.3479
N2_2 N 0.49800(16) 0.6344(8) 0.3418(2)
O1_2 O 0.55048(14) 0.2233(7) 0.2952(2)
O2_3 O 0.59810(19) 0.4963(10) 0.2898(4)
Zn1_3 Zn 0.5000 0.42883(13) 0.2500
H10_3 H 0.5496 0.9200 0.6185
N5_2 N 0.50200(16) 0.6344(8) 0.1582(2)
O5_2 O 0.44952(14) 0.2233(7) 0.2048(2)
C1_4 C 0.5295(2) 0.8115(10) 0.1678(3)
H1_4 H 0.5496 0.8379 0.2173
C2_4 C 0.5298(2) 0.9581(10) 0.1084(3)
C3_4 C 0.50038(18) 0.9243(8) 0.0332(3)
C4_4 C 0.4712(2) 0.7396(10) 0.0234(3)
C5_4 C 0.4728(2) 0.6017(9) 0.0868(3)
H4_4 H 0.4526 0.4809 0.0792
C6_4 C 0.4088(2) 0.3049(10) 0.1926(3)
C7_4 C 0.3674(2) 0.1700(10) 0.1485(3)
C11_4 C 0.2833(3) 0.1288(16) 0.0925(5)
H7_4 H 0.2525 0.1828 0.0847
C12_4 C 0.3214(2) 0.2506(14) 0.1338(4)
H8_4 H 0.3161 0.3891 0.1521
O2_4 O 0.40190(19) 0.4963(10) 0.2102(4)
H2_4 H 0.5496 0.0800 0.1185
H11_4 H 0.5493 0.2909 0.0254
H3_4 H 0.4507 0.7091 0.9746
H10_4 H 0.4504 0.9200 0.8815
C8_4 C 0.3747(3) 0.9646(11) 0.1205(4)
H5_4 H 0.4053 0.9068 0.1307
C9_4 C 0.3355(3) 0.8423(12) 0.0763(4)
H6_4 H 0.3404 0.7050 0.0567
C10_4 C 0.2908(3) 0.9262(14) 0.0626(4)
N1_4 N 0.2445(3) 0.8238(12) 0.0146(5)
loop_
_geom_bond_atom_site_label_1
_geom_bond_atom_site_label_2
_geom_bond_site_symmetry_1
_geom_bond_site_symmetry_2
C18 C19 1_555 1_555
C19 C20 1_555 1_555
C20 H13 1_555 1_555
C21 C20 1_555 1_555
H14 C21 1_555 1_555
C22 C21 1_555 1_555
C23 C22 1_555 1_555
H15 C23 1_555 1_555
C24 C19 1_555 1_555
H16 C24 1_555 1_555
O3 C18 1_555 1_555
O4 C18 1_555 1_555
Zn2 O3 1_555 1_555
C22 N4 1_555 1_555
C23 C24 1_555 1_555
H3 C4 1_555 1_555
C5 C4 1_555 1_555
C13 H9 1_555 1_555
C14 C13 1_555 1_555
H10 C14 1_555 1_555
N3 C13 1_555 1_555
C14 C15 1_555 1_555
C1 H1 1_555 1_555
C2 C1 1_555 1_555
H2 C2 1_555 1_555
C3 C2 1_555 1_555
N5 C1 1_555 1_555
C17 C16 1_555 1_555
C6 C7 1_555 1_555
C7 C8 1_555 1_555
C8 H5 1_555 1_555
C9 C8 1_555 1_555
H6 C9 1_555 1_555
C10 C9 1_555 1_555
C11 C10 1_555 1_555
H7 C11 1_555 1_555
C12 C7 1_555 1_555
H8 C12 1_555 1_555
N1 C10 1_555 1_555
O1 C6 1_555 1_555
O2 C6 1_555 1_555
C20_2 H13_2 1_555 1_555
C21_2 C20_2 1_555 1_555
H14_2 C21_2 1_555 1_555
C22_2 C21_2 1_555 1_555
N4_2 N1 1_555 1_555
C11 C12 1_555 1_555
O1 Zn1 1_555 1_555
C22_2 N4_2 1_555 1_555
C18_2 C19_2 1_555 1_555
H15_2 C23_2 1_555 1_555
C24_2 C19_2 1_555 1_555
H16_2 C24_2 1_555 1_555
O3_2 C18_2 1_555 1_555
O4_2 C18_2 1_555 1_555
Zn3 O3_2 1_555 1_555
C23_2 C24_2 1_555 1_555
C18_3 C19_3 1_555 1_555
H15_3 C23_3 1_555 1_555
C24_3 C19_3 1_555 1_555
H16_3 C24_3 1_555 1_555
O3_3 C18_3 1_555 1_555
O4_3 C18_3 1_555 1_555
Zn3 O3_3 1_555 1_555
C23_3 C24_3 1_555 1_555
C13_2 H9_2 1_555 1_555
C14_2 C13_2 1_555 1_555
C16_2 C15_2 1_555 1_555
H11_2 C16_2 1_555 1_555
C17_2 C16_2 1_555 1_555
H12_2 C17_2 1_555 1_555
N3_2 C13_2 1_555 1_555
Zn3 N3_2 1_555 1_555
C14_2 C15_2 1_555 1_555
C17_2 N3_2 1_555 1_555
C13_3 H9_3 1_555 1_555
C14_3 C13_3 1_555 1_555
C16_3 C15_3 1_555 1_555
C17_3 C16_3 1_555 1_555
H12_3 C17_3 1_555 1_555
N3_3 C13_3 1_555 1_555
Zn3 N3_3 1_555 1_555
C14_3 C15_3 1_555 1_555
C17_3 N3_3 1_555 1_555
C8_2 H5_2 1_555 1_555
C9_2 C8_2 1_555 1_555
H6_2 C9_2 1_555 1_555
C10_2 C9_2 1_555 1_555
N1_2 C10_2 1_555 1_555
C18_4 C19_4 1_555 1_555
C19_4 C20_3 1_555 1_555
C20_3 H13_3 1_555 1_555
C21_3 C20_3 1_555 1_555
H14_3 C21_3 1_555 1_555
C22_3 C21_3 1_555 1_555
C23_4 C22_3 1_555 1_555
H15_4 C23_4 1_555 1_555
C24_4 C19_4 1_555 1_555
H16_4 C24_4 1_555 1_555
N4_3 N1_2 1_555 1_555
O3_4 C18_4 1_555 1_555
O4_4 C18_4 1_555 1_555
Zn2_2 O3_4 1_555 1_555
C22_3 N4_3 1_555 1_555
C23_4 C24_4 1_555 1_555
C1_2 H1_2 1_555 1_555
C2_2 C1_2 1_555 1_555
H2_3 C2_2 1_555 1_555
C3_2 C2_2 1_555 1_555
N2 C1_2 1_555 1_555
H11_3 C16_4 1_555 1_555
C17_4 C16_4 1_555 1_555
C5_2 C4_2 1_555 1_555
C13_4 H9_4 1_555 1_555
C14_4 C13_4 1_555 1_555
H10_2 C14_4 1_555 1_555
N3_4 C13_4 1_555 1_555
C14_4 C15_4 1_555 1_555
O5 Zn1_2 1_555 1_555
C6_2 C7_2 1_555 1_555
C7_2 C8_3 1_555 1_555
C8_3 H5_3 1_555 1_555
C9_3 C8_3 1_555 1_555
H6_3 C9_3 1_555 1_555
C10_3 C9_3 1_555 1_555
C11_2 C10_3 1_555 1_555
H7_2 C11_2 1_555 1_555
C12_2 C7_2 1_555 1_555
H8_2 C12_2 1_555 1_555
N1_3 C10_3 1_555 1_555
O5 C6_2 1_555 1_555
O2_2 C6_2 1_555 1_555
C11_2 C12_2 1_555 1_555
C20_4 H13_4 1_555 1_555
C21_4 C20_4 1_555 1_555
H14_4 C21_4 1_555 1_555
C22_4 C21_4 1_555 1_555
C22_4 N4_4 1_555 1_555
C1_3 H1_3 1_555 1_555
C2_3 C1_3 1_555 1_555
C3_3 C2_3 1_555 1_555
C4_3 C3_3 1_555 1_555
H3_3 C4_3 1_555 1_555
C5_3 C4_3 1_555 1_555
H4_3 C5_3 1_555 1_555
C6_3 C7_3 1_555 1_555
H7_3 C11_3 1_555 1_555
C12_3 C7_3 1_555 1_555
H8_3 C12_3 1_555 1_555
N2_2 C1_3 1_555 1_555
O1_2 C6_3 1_555 1_555
O2_3 C6_3 1_555 1_555
Zn1_3 N2_2 1_555 1_555
N5_2 Zn1_3 1_555 1_555
O5_2 Zn1_3 1_555 1_555
C5_3 N2_2 1_555 1_555
C11_3 C12_3 1_555 1_555
O1_2 Zn1_3 1_555 1_555
C1_4 H1_4 1_555 1_555
C2_4 C1_4 1_555 1_555
C3_4 C2_4 1_555 1_555
C4_4 C3_4 1_555 1_555
C5_4 C4_4 1_555 1_555
H4_4 C5_4 1_555 1_555
C6_4 C7_4 1_555 1_555
H7_4 C11_4 1_555 1_555
C12_4 C7_4 1_555 1_555
H8_4 C12_4 1_555 1_555
N5_2 C1_4 1_555 1_555
O5_2 C6_4 1_555 1_555
O2_4 C6_4 1_555 1_555
C5_4 N5_2 1_555 1_555
C11_4 C12_4 1_555 1_555
C8_4 H5_4 1_555 1_555
C9_4 C8_4 1_555 1_555
H6_4 C9_4 1_555 1_555
C10_4 C9_4 1_555 1_555
N1_4 C10_4 1_555 1_555

#END
