
###############################################################################
#
# This file contains modified crystal structure data generated from the
# MOF subset of the Cambridge Structural Database (CSD) v543 
# hosted by the Cambridge Crystallographic Data Centre (CCDC).
#
# This work is licensed under the Creative Commons
# Attribution-NonCommercial-ShareAlike 4.0 International License.
# To view a copy of this license, visit
# http://creativecommons.org/licenses/by-nc-sa/4.0/
# or send a letter to
# Creative Commons, PO Box 1866, Mountain View, CA 94042, USA.
#
# CIF created using the CSD Python API on 29 September 2022
# The structure has been converted into the P1 space group
# The structure has a 3D framework
# The original CSD entry UFOPOX is in the triclinic crystal system
# The framework has been calculated to contain at least 10.0% void space
# The void calculation uses a probe of radius 1.32A, grid spacing 0.4
#
###############################################################################

data_UFOPOX
_chemical_formula_moiety         '(C48 H40 Mn1 N8 O10)n'
_symmetry_cell_setting           triclinic
_symmetry_space_group_name_H-M   'P 1'
_symmetry_Int_Tables_number      1
_space_group_name_Hall           'P 1'
loop_
_symmetry_equiv_pos_site_id
_symmetry_equiv_pos_as_xyz
1 x,y,z
_cell_length_a                   8.234(5)
_cell_length_b                   11.911(5)
_cell_length_c                   15.189(5)
_cell_angle_alpha                102.883(5)
_cell_angle_beta                 99.718(5)
_cell_angle_gamma                106.220(5)
_cell_volume                     1351.21
loop_
_atom_site_label
_atom_site_type_symbol
_atom_site_fract_x
_atom_site_fract_y
_atom_site_fract_z
H26 H 0.2641 0.0346 0.1823
N6 N 0.0635(4) 0.0128(3) 0.03251(19)
N4 N 0.4966(6) 0.0396(4) 0.9904(4)
H23 H 0.3468 0.0198 0.8308
C11 C 0.1176(5) 0.1652(3) 0.9241(2)
H7 H 0.2070 0.1864 0.9774
C12 C 0.1315(5) 0.2341(3) 0.8603(2)
H8 H 0.2293 0.3025 0.8719
C13 C 0.1366(4) 0.1646(3) 0.4954(2)
H9 H 0.0157 0.1314 0.4748
C14 C 0.2337(4) 0.0870(3) 0.4821(2)
H10 H 0.1791 0.0040 0.4533
C15 C 0.4148(4) 0.1360(3) 0.5126(2)
C16 C 0.5268(4) 0.0598(3) 0.5060(2)
H11 H 0.6443 0.0981 0.5107
C17 C 0.4881(4) 0.2616(3) 0.5503(3)
H12 H 0.6087 0.2983 0.5680
C18 C 0.3811(4) 0.3317(3) 0.5616(2)
H13 H 0.4324 0.4155 0.5880
C19 C 0.0153(4) 0.2728(3) 0.71080(19)
N2 N 0.2070(3) 0.2847(2) 0.53615(17)
C23 C 0.0001(4) 0.2005(3) 0.78026(19)
O4 O 0.1346(3) 0.37278(19) 0.73132(14)
Mn1 Mn 0.02954(5) 0.38595(3) 0.58303(3)
O14 O 0.2169(3) 0.55387(17) 0.59526(14)
C31 C 0.1482(5) 0.9015(3) 0.2363(2)
H25 H 0.2363 0.9248 0.2905
C32 C 0.1642(5) 0.9681(3) 0.1721(2)
C33 C 0.0312(5) 0.9350(3) 0.0933(2)
C37 C -0.0001(4) 0.7995(3) 0.21974(19)
O8 O 0.0960(3) 0.77143(19) 0.36659(13)
C24 C 0.2109(3) 0.6604(2) 0.60978(17)
C25 C 0.2890(4) 0.7462(3) 0.70701(19)
C26 C 0.3583(4) 0.7045(4) 0.7786(2)
H21 H 0.3614 0.6252 0.7660
C27 C 0.4227(5) 0.7821(6) 0.8686(2)
H22 H 0.4694 0.7542 0.9162
C28 C 0.4186(5) 0.8994(6) 0.8887(3)
C29 C 0.3499(6) 0.9404(4) 0.8178(3)
C30 C 0.2847(5) 0.8637(3) 0.7265(3)
H24 H 0.2386 0.8921 0.6790
O6 O 0.1426(3) 0.70170(18) 0.54990(13)
C44 C 0.0877(5) 0.4493(3) 0.2772(3)
H34 H 0.0186 0.4689 0.2320
C45 C 0.2375(9) 0.3111(5) 0.3125(4)
H35 H 0.2445 0.3533 0.3755
H36 H 0.1831 0.2250 0.3018
H37 H 0.3529 0.3264 0.3026
C46 C 0.0756(9) 0.2806(6) 0.1545(4)
H38 H 0.0097 0.3184 0.1197
H39 H 0.1731 0.2748 0.1291
H40 H 0.0023 0.2003 0.1506
N8 N 0.1378(5) 0.3528(3) 0.2504(3)
O10 O 0.1265(3) 0.5133(2) 0.35704(15)
C38 C 0.8634(4) 0.8354(3) 0.5046(2)
H29 H 0.9843 0.8686 0.5252
C39 C 0.7663(4) 0.9130(3) 0.5179(2)
H30 H 0.8209 0.9960 0.5467
C40 C 0.5852(4) 0.8640(3) 0.4874(2)
C41 C 0.4732(4) 0.9402(3) 0.4940(2)
H31 H 0.3557 0.9019 0.4893
C42 C 0.5119(4) 0.7384(3) 0.4497(3)
H32 H 0.3913 0.7017 0.4320
C43 C 0.6189(4) 0.6683(3) 0.4384(2)
H33 H 0.5676 0.5845 0.4120
N7 N 0.7930(3) 0.7153(2) 0.46385(17)
Mn6 Mn 0.97046(5) 0.61405(3) 0.41697(3)
C1 C 0.7891(3) 0.3396(2) 0.39022(17)
C2 C 0.7110(4) 0.2538(3) 0.29299(19)
C3 C 0.6417(4) 0.2955(4) 0.2214(2)
H1 H 0.6386 0.3748 0.2340
C4 C 0.5773(5) 0.2179(6) 0.1314(2)
H2 H 0.5306 0.2458 0.0838
C5 C 0.5814(5) 0.1006(6) 0.1113(3)
C6 C 0.6501(6) 0.0596(4) 0.1822(3)
C7 C 0.7153(5) 0.1363(3) 0.2735(3)
H4 H 0.7614 0.1079 0.3210
C8 C 0.8518(5) 0.0985(3) 0.7637(2)
H5 H 0.7637 0.0752 0.7095
C9 C 0.8358(5) 0.0319(3) 0.8279(2)
C10 C 0.9688(5) 0.0650(3) 0.9067(2)
C20 C 0.9123(5) 0.5507(3) 0.7228(3)
H14 H 0.9814 0.5311 0.7680
C21 C 0.7625(9) 0.6889(5) 0.6875(4)
H15 H 0.7555 0.6467 0.6245
H16 H 0.8169 0.7750 0.6982
H17 H 0.6471 0.6736 0.6974
C22 C 0.9244(9) 0.7194(6) 0.8455(4)
H18 H 0.9903 0.6816 0.8803
H19 H 0.8269 0.7252 0.8709
H20 H 0.9977 0.7997 0.8494
C23_2 C 1.0001(4) 0.2005(3) 0.78026(19)
N3 N 0.8622(5) 0.6472(3) 0.7496(3)
O1 O 0.8574(3) 0.29830(18) 0.45010(13)
O2 O 0.8735(3) 0.4867(2) 0.64296(15)
O3 O 0.9040(3) 0.22857(19) 0.63341(13)
O5 O 0.7831(3) 0.44613(17) 0.40474(14)
C34 C 0.8824(5) 0.8348(3) 0.0759(2)
H27 H 0.7930 0.8136 0.0226
C35 C 0.8685(5) 0.7659(3) 0.1397(2)
H28 H 0.7707 0.6975 0.1281
C36 C 0.9847(4) 0.7272(3) 0.28920(19)
C37_2 C 0.9999(4) 0.7995(3) 0.21974(19)
O9 O 0.8654(3) 0.62722(19) 0.26868(14)
H3 H 0.6532 0.9802 0.1692
H6 H 0.7359 0.9654 0.8177
N1 N 0.9365(4) 0.9872(3) 0.96749(19)
N5 N 0.5034(6) 0.9604(4) 0.0096(4)
loop_
_geom_bond_atom_site_label_1
_geom_bond_atom_site_label_2
_geom_bond_site_symmetry_1
_geom_bond_site_symmetry_2
H7 C11 1_555 1_555
C12 C11 1_555 1_555
H8 C12 1_555 1_555
C13 H9 1_555 1_555
C14 C13 1_555 1_555
H10 C14 1_555 1_555
C15 C14 1_555 1_555
C16 C15 1_555 1_555
H11 C16 1_555 1_555
C17 C15 1_555 1_555
H12 C17 1_555 1_555
C18 C17 1_555 1_555
H13 C18 1_555 1_555
C19 C23 1_555 1_555
N2 C13 1_555 1_555
O4 C19 1_555 1_555
Mn1 N2 1_555 1_555
O14 Mn1 1_555 1_555
C12 C23 1_555 1_555
C18 N2 1_555 1_555
O4 Mn1 1_555 1_555
C31 H25 1_555 1_555
C32 C31 1_555 1_555
C33 C32 1_555 1_555
C37 C31 1_555 1_555
C24 C25 1_555 1_555
C25 C26 1_555 1_555
C26 H21 1_555 1_555
C27 C26 1_555 1_555
H22 C27 1_555 1_555
C28 C27 1_555 1_555
C29 C28 1_555 1_555
C30 C25 1_555 1_555
H24 C30 1_555 1_555
O6 C24 1_555 1_555
O14 C24 1_555 1_555
C44 H34 1_555 1_555
C45 H35 1_555 1_555
H36 C45 1_555 1_555
H37 C45 1_555 1_555
C46 H38 1_555 1_555
H39 C46 1_555 1_555
H40 C46 1_555 1_555
N8 C44 1_555 1_555
O10 C44 1_555 1_555
C29 C30 1_555 1_555
C45 N8 1_555 1_555
C46 N8 1_555 1_555
C38 H29 1_555 1_555
C39 C38 1_555 1_555
H30 C39 1_555 1_555
C40 C39 1_555 1_555
H31 C41 1_555 1_555
C42 C40 1_555 1_555
H32 C42 1_555 1_555
C43 C42 1_555 1_555
H33 C43 1_555 1_555
N7 C38 1_555 1_555
Mn6 N7 1_555 1_555
C40 C41 1_555 1_555
C43 N7 1_555 1_555
C1 C2 1_555 1_555
C2 C3 1_555 1_555
C3 H1 1_555 1_555
C4 C3 1_555 1_555
H2 C4 1_555 1_555
C5 C4 1_555 1_555
C6 C5 1_555 1_555
C7 C2 1_555 1_555
H4 C7 1_555 1_555
C8 H5 1_555 1_555
C9 C8 1_555 1_555
C10 C9 1_555 1_555
C20 H14 1_555 1_555
C21 H15 1_555 1_555
H16 C21 1_555 1_555
H17 C21 1_555 1_555
C22 H18 1_555 1_555
H19 C22 1_555 1_555
H20 C22 1_555 1_555
C23_2 C8 1_555 1_555
N3 C20 1_555 1_555
O1 C1 1_555 1_555
O2 C20 1_555 1_555
O5 C1 1_555 1_555
Mn6 O5 1_555 1_555
C6 C7 1_555 1_555
C21 N3 1_555 1_555
C22 N3 1_555 1_555
H27 C34 1_555 1_555
C35 C34 1_555 1_555
H28 C35 1_555 1_555
C36 C37_2 1_555 1_555
O9 C36 1_555 1_555
C35 C37_2 1_555 1_555
O9 Mn6 1_555 1_555

#END
