
###############################################################################
#
# This file contains modified crystal structure data generated from the
# MOF subset of the Cambridge Structural Database (CSD) v543 
# hosted by the Cambridge Crystallographic Data Centre (CCDC).
#
# This work is licensed under the Creative Commons
# Attribution-NonCommercial-ShareAlike 4.0 International License.
# To view a copy of this license, visit
# http://creativecommons.org/licenses/by-nc-sa/4.0/
# or send a letter to
# Creative Commons, PO Box 1866, Mountain View, CA 94042, USA.
#
# CIF created using the CSD Python API on 29 September 2022
# The structure has been converted into the P1 space group
# The structure has a 3D framework
# The original CSD entry UFUMUD02 is in the monoclinic crystal system
# The framework has been calculated to contain at least 10.0% void space
# The void calculation uses a probe of radius 1.32A, grid spacing 0.4
#
###############################################################################

data_UFUMUD02
_chemical_formula_moiety         '(C48 H32 Cu4 N8 O12)n'
_symmetry_cell_setting           triclinic
_symmetry_space_group_name_H-M   'P 1'
_symmetry_Int_Tables_number      1
_space_group_name_Hall           'P 1'
loop_
_symmetry_equiv_pos_site_id
_symmetry_equiv_pos_as_xyz
1 x,y,z
_cell_length_a                   4.9737(17)
_cell_length_b                   25.022(3)
_cell_length_c                   11.0111(16)
_cell_angle_alpha                90
_cell_angle_beta                 98.48(2)
_cell_angle_gamma                90
_cell_volume                     1355.37
loop_
_atom_site_label
_atom_site_type_symbol
_atom_site_fract_x
_atom_site_fract_y
_atom_site_fract_z
O1 O 0.156(2) 0.3964(3) 0.0092(8)
O2 O 0.555(2) 0.4389(4) 0.0213(10)
Cu3 Cu 0.7915(3) 0.38649(4) 0.11544(19)
C1 C 0.304(3) 0.4335(5) 0.9840(13)
C2 C 0.187(3) 0.4755(4) 0.8960(12)
C5 C 0.191(3) 0.5623(5) 0.8057(13)
H3 H 0.2833 0.5944 0.8009
C6 C 0.299(3) 0.5251(6) 0.8897(14)
H4 H 0.4544 0.5337 0.9442
O5 O 0.156(2) 0.6036(3) 0.5092(8)
Cu1 Cu 0.7915(3) 0.61351(4) 0.61544(19)
C3 C 0.948(3) 0.4679(5) 0.8176(13)
H1 H 0.8543 0.4358 0.8200
C4 C 0.841(3) 0.5082(5) 0.7332(12)
H2 H 0.6839 0.5012 0.6787
C7 C 0.445(3) 0.7055(5) 0.5460(12)
H5 H 0.3716 0.6955 0.6154
C8 C 0.358(3) 0.7523(5) 0.4869(14)
H6 H 0.2318 0.7734 0.5192
C9 C 0.451(3) 0.7687(7) 0.3822(15)
C10 C 0.648(4) 0.7362(6) 0.3418(18)
H7 H 0.7192 0.7455 0.2713
C11 C 0.742(3) 0.6882(6) 0.4084(16)
H8 H 0.8782 0.6677 0.3821
C12 C 0.364(4) 0.8170(6) 0.3116(17)
N1 N 0.958(2) 0.5546(5) 0.7301(12)
N2 N 0.636(3) 0.6735(7) 0.5060(14)
O3 O 0.165(2) 0.8415(4) 0.3443(11)
O4 O 0.471(2) 0.8283(4) 0.2184(10)
Cu4 Cu 0.2915(3) 0.88649(4) 0.11544(19)
O6 O 0.555(2) 0.5611(4) 0.5213(10)
O7 O 0.971(2) 0.6717(4) 0.7184(10)
C1_2 C 0.304(3) 0.5665(5) 0.4840(13)
C2_2 C 0.187(3) 0.5245(4) 0.3960(12)
C5_2 C 0.191(3) 0.4377(5) 0.3057(13)
H3_2 H 0.2833 0.4056 0.3009
C6_2 C 0.299(3) 0.4749(6) 0.3897(14)
H4_2 H 0.4544 0.4663 0.4442
C3_2 C 0.948(3) 0.5321(5) 0.3176(13)
H1_2 H 0.8543 0.5642 0.3200
C4_2 C 0.841(3) 0.4918(5) 0.2332(12)
H2_2 H 0.6839 0.4988 0.1787
C7_2 C 0.445(3) 0.2945(5) 0.0460(12)
H5_2 H 0.3716 0.3045 0.1154
H6_2 H 0.2318 0.2266 0.0192
N1_2 N 0.958(2) 0.4454(5) 0.2301(12)
N2_2 N 0.636(3) 0.3265(7) 0.0060(14)
O7_2 O 0.971(2) 0.3283(4) 0.2184(10)
O2_2 O 0.055(2) 0.9389(4) 0.0213(10)
O1_2 O 0.656(2) 0.8964(3) 0.0092(8)
C7_3 C 0.945(3) 0.2055(5) 0.5460(12)
H5_3 H 0.8716 0.1955 0.6154
C8_2 C 0.858(3) 0.2523(5) 0.4869(14)
H6_3 H 0.7318 0.2734 0.5192
C9_2 C 0.951(3) 0.2687(7) 0.3822(15)
C12_2 C 0.864(4) 0.3170(6) 0.3116(17)
O3_2 O 0.665(2) 0.3415(4) 0.3443(11)
C4_3 C 0.341(3) 0.9918(5) 0.2332(12)
H2_3 H 0.1839 0.9988 0.1787
C5_3 C 0.691(3) 0.9377(5) 0.3057(13)
H3_3 H 0.7833 0.9056 0.3009
C6_3 C 0.799(3) 0.9749(6) 0.3897(14)
H4_3 H 0.9544 0.9663 0.4442
N1_3 N 0.458(2) 0.9454(5) 0.2301(12)
N2_3 N 0.136(3) 0.8265(7) 0.0060(14)
C8_3 C 0.858(3) 0.7477(5) 0.9869(14)
C9_3 C 0.951(3) 0.7313(7) 0.8822(15)
C12_3 C 0.864(4) 0.6830(6) 0.8116(17)
O3_3 O 0.665(2) 0.6585(4) 0.8443(11)
C8_4 C 0.358(3) 0.2477(5) 0.9869(14)
C9_4 C 0.451(3) 0.2313(7) 0.8822(15)
C10_2 C 0.648(4) 0.2638(6) 0.8418(18)
H7_2 H 0.7192 0.2545 0.7713
C11_2 C 0.742(3) 0.3118(6) 0.9084(16)
H8_2 H 0.8782 0.3323 0.8821
C12_4 C 0.364(4) 0.1830(6) 0.8116(17)
O3_4 O 0.165(2) 0.1585(4) 0.8443(11)
O4_2 O 0.471(2) 0.1717(4) 0.7184(10)
Cu4_2 Cu 0.2915(3) 0.11351(4) 0.61544(19)
C4_4 C 0.341(3) 0.0082(5) 0.7332(12)
H2_4 H 0.1839 0.0012 0.6787
C5_4 C 0.691(3) 0.0623(5) 0.8057(13)
H3_4 H 0.7833 0.0944 0.8009
C6_4 C 0.799(3) 0.0251(6) 0.8897(14)
H4_4 H 0.9544 0.0337 0.9442
C10_3 C 0.148(4) 0.2362(6) 0.3418(18)
H7_3 H 0.2192 0.2455 0.2713
C11_3 C 0.242(3) 0.1882(6) 0.4084(16)
H8_3 H 0.3782 0.1677 0.3821
N1_4 N 0.458(2) 0.0546(5) 0.7301(12)
N2_4 N 0.136(3) 0.1735(7) 0.5060(14)
O5_2 O 0.656(2) 0.1036(3) 0.5092(8)
O6_2 O 0.055(2) 0.0611(4) 0.5213(10)
C1_3 C 0.804(3) 0.0665(5) 0.4840(13)
C2_3 C 0.687(3) 0.0245(4) 0.3960(12)
C3_3 C 0.448(3) 0.0321(5) 0.3176(13)
H1_3 H 0.3543 0.0642 0.3200
C1_4 C 0.804(3) 0.9335(5) 0.9840(13)
C2_4 C 0.687(3) 0.9755(4) 0.8960(12)
C3_4 C 0.448(3) 0.9679(5) 0.8176(13)
H1_4 H 0.3543 0.9358 0.8200
C10_4 C 0.148(4) 0.7638(6) 0.8418(18)
H7_4 H 0.2192 0.7545 0.7713
C11_4 C 0.242(3) 0.8118(6) 0.9084(16)
H8_4 H 0.3782 0.8323 0.8821
C7_4 C 0.945(3) 0.7945(5) 0.0460(12)
H5_4 H 0.8716 0.8045 0.1154
H6_4 H 0.7318 0.7266 0.0192
loop_
_geom_bond_atom_site_label_1
_geom_bond_atom_site_label_2
_geom_bond_site_symmetry_1
_geom_bond_site_symmetry_2
Cu3 O2 1_555 1_555
C1 C2 1_555 1_555
C5 H3 1_555 1_555
C6 C2 1_555 1_555
H4 C6 1_555 1_555
C5 C6 1_555 1_555
Cu1 N1 1_555 1_555
C3 H1 1_555 1_555
C4 C3 1_555 1_555
H2 C4 1_555 1_555
C7 H5 1_555 1_555
C8 C7 1_555 1_555
H6 C8 1_555 1_555
C9 C8 1_555 1_555
C10 C9 1_555 1_555
H7 C10 1_555 1_555
C11 C10 1_555 1_555
H8 C11 1_555 1_555
C12 C9 1_555 1_555
N1 C4 1_555 1_555
N2 Cu1 1_555 1_555
O3 C12 1_555 1_555
O4 C12 1_555 1_555
Cu4 O4 1_555 1_555
O6 Cu1 1_555 1_555
O7 Cu1 1_555 1_555
C7 N2 1_555 1_555
C11 N2 1_555 1_555
C1_2 C2_2 1_555 1_555
C5_2 H3_2 1_555 1_555
C6_2 C2_2 1_555 1_555
H4_2 C6_2 1_555 1_555
O5 C1_2 1_555 1_555
O6 C1_2 1_555 1_555
C5_2 C6_2 1_555 1_555
Cu3 N1_2 1_555 1_555
C3_2 H1_2 1_555 1_555
C4_2 C3_2 1_555 1_555
H2_2 C4_2 1_555 1_555
C7_2 H5_2 1_555 1_555
N1_2 C4_2 1_555 1_555
N2_2 Cu3 1_555 1_555
O7_2 Cu3 1_555 1_555
C7_2 N2_2 1_555 1_555
Cu4 O2_2 1_555 1_555
Cu4 O1_2 1_555 1_555
C7_3 H5_3 1_555 1_555
C8_2 C7_3 1_555 1_555
H6_3 C8_2 1_555 1_555
C9_2 C8_2 1_555 1_555
C12_2 C9_2 1_555 1_555
O3_2 C12_2 1_555 1_555
O7_2 C12_2 1_555 1_555
Cu4 N1_3 1_555 1_555
H2_3 C4_3 1_555 1_555
C5_3 H3_3 1_555 1_555
H4_3 C6_3 1_555 1_555
N1_3 C4_3 1_555 1_555
N2_3 Cu4 1_555 1_555
C5_3 C6_3 1_555 1_555
C5_3 N1_3 1_555 1_555
C9_3 C8_3 1_555 1_555
C12_3 C9_3 1_555 1_555
O3_3 C12_3 1_555 1_555
O7 C12_3 1_555 1_555
C9_4 C8_4 1_555 1_555
C10_2 C9_4 1_555 1_555
H7_2 C10_2 1_555 1_555
C11_2 C10_2 1_555 1_555
H8_2 C11_2 1_555 1_555
C12_4 C9_4 1_555 1_555
O3_4 C12_4 1_555 1_555
O4_2 C12_4 1_555 1_555
Cu4_2 O4_2 1_555 1_555
Cu4_2 N1_4 1_555 1_555
H2_4 C4_4 1_555 1_555
C5_4 H3_4 1_555 1_555
H4_4 C6_4 1_555 1_555
H7_3 C10_3 1_555 1_555
C11_3 C10_3 1_555 1_555
H8_3 C11_3 1_555 1_555
N1_4 C4_4 1_555 1_555
N2_4 Cu4_2 1_555 1_555
O5_2 Cu4_2 1_555 1_555
O6_2 Cu4_2 1_555 1_555
C5_4 C6_4 1_555 1_555
C5_4 N1_4 1_555 1_555
C11_3 N2_4 1_555 1_555
C1_3 C2_3 1_555 1_555
C2_3 C3_3 1_555 1_555
C3_3 H1_3 1_555 1_555
O5_2 C1_3 1_555 1_555
C1_4 C2_4 1_555 1_555
C2_4 C3_4 1_555 1_555
C3_4 H1_4 1_555 1_555
H7_4 C10_4 1_555 1_555
C11_4 C10_4 1_555 1_555
H8_4 C11_4 1_555 1_555
C7_4 H5_4 1_555 1_555

#END
