
###############################################################################
#
# This file contains modified crystal structure data generated from the
# MOF subset of the Cambridge Structural Database (CSD) v543 
# hosted by the Cambridge Crystallographic Data Centre (CCDC).
#
# This work is licensed under the Creative Commons
# Attribution-NonCommercial-ShareAlike 4.0 International License.
# To view a copy of this license, visit
# http://creativecommons.org/licenses/by-nc-sa/4.0/
# or send a letter to
# Creative Commons, PO Box 1866, Mountain View, CA 94042, USA.
#
# CIF created using the CSD Python API on 29 September 2022
# The structure has been converted into the P1 space group
# The structure has a 3D framework
# The original CSD entry UFUNAK is in the monoclinic crystal system
# The framework has been calculated to contain at least 10.0% void space
# The void calculation uses a probe of radius 1.32A, grid spacing 0.4
#
###############################################################################

data_UFUNAK
_chemical_formula_moiety         '(C48 H32 Cu4 N8 O16)n'
_symmetry_cell_setting           triclinic
_symmetry_space_group_name_H-M   'P 1'
_symmetry_Int_Tables_number      1
_space_group_name_Hall           'P 1'
loop_
_symmetry_equiv_pos_site_id
_symmetry_equiv_pos_as_xyz
1 x,y,z
_cell_length_a                   4.9213(3)
_cell_length_b                   25.1423(16)
_cell_length_c                   10.8011(7)
_cell_angle_alpha                90
_cell_angle_beta                 96.920(1)
_cell_angle_gamma                90
_cell_volume                     1326.71
loop_
_atom_site_label
_atom_site_type_symbol
_atom_site_fract_x
_atom_site_fract_y
_atom_site_fract_z
H8 H 0.1628 0.0019 0.2271
Cu2 Cu 0.05710(5) 0.113292(10) 0.78433(4)
C11 C 0.0063(6) 0.99457(11) 0.1708(3)
Cu4 Cu 0.05710(5) 0.886708(10) 0.28433(4)
O2 O 0.1818(5) 0.15507(9) 0.5355(3)
O3 O 0.2930(5) 0.06175(9) 0.8822(2)
O4 O 0.6927(4) 0.10482(8) 0.8939(2)
H3 H 0.1284 0.2272 0.3664
C12 C 0.5453(6) 0.06785(11) 0.9213(3)
N3 N 0.2078(6) 0.17570(13) 0.8879(3)
N2 N 0.8960(5) 0.94571(12) 0.1719(3)
C7 C 0.6638(7) 0.93687(12) 0.0943(4)
H5 H 0.5805 0.9032 0.0948
C8 C 0.5447(7) 0.97529(12) 0.0144(4)
O1 O 0.8834(5) 0.16897(11) 0.6718(3)
N1 N 0.7078(6) 0.32430(13) 0.3879(3)
C1 C 0.6129(8) 0.30885(14) 0.4936(4)
H1 H 0.4828 0.3303 0.5266
C2 C 0.6978(8) 0.26293(14) 0.5557(4)
H2 H 0.6259 0.2533 0.6293
C3 C 0.8911(7) 0.23089(15) 0.5086(4)
C4 C 0.9951(6) 0.24749(12) 0.4003(3)
C5 C 0.8996(6) 0.29404(12) 0.3441(3)
H4 H 0.9719 0.3052 0.2717
C6 C 0.9972(7) 0.18016(14) 0.5760(4)
N4 N 0.8960(5) 0.05429(12) 0.6719(3)
Cu3 Cu 0.55710(5) 0.386708(10) 0.28433(4)
C11_2 C 0.0063(6) 0.00543(11) 0.6708(3)
H8_2 H 0.1628 0.9981 0.7271
C7_2 C 0.6638(7) 0.06313(12) 0.5943(4)
H5_2 H 0.5805 0.0968 0.5948
C8_2 C 0.5447(7) 0.02471(12) 0.5144(4)
H6 H 0.3816 0.0322 0.4627
O2_2 O 0.1818(5) 0.84493(9) 0.0355(3)
O3_2 O 0.2930(5) 0.93825(9) 0.3822(2)
O4_2 O 0.6927(4) 0.89518(8) 0.3939(2)
C9 C 0.6653(6) 0.97488(12) 0.5101(3)
C10 C 0.9014(6) 0.96544(12) 0.5911(3)
H7 H 0.9891 0.9322 0.5918
C12_2 C 0.5453(6) 0.93215(11) 0.4213(3)
N3_2 N 0.2078(6) 0.82430(13) 0.3879(3)
O1_2 O 0.8834(5) 0.83103(11) 0.1718(3)
H1_2 H 0.4828 0.6697 0.0266
C2_2 C 0.6978(8) 0.73707(14) 0.0557(4)
H2_2 H 0.6259 0.7467 0.1293
C3_2 C 0.8911(7) 0.76911(15) 0.0086(4)
C6_2 C 0.9972(7) 0.81984(14) 0.0760(4)
N1_2 N 0.7078(6) 0.67570(13) 0.8879(3)
C1_2 C 0.6129(8) 0.69115(14) 0.9936(4)
C4_2 C 0.9951(6) 0.75251(12) 0.9003(3)
C5_2 C 0.8996(6) 0.70596(12) 0.8441(3)
H4_2 H 0.9719 0.6948 0.7717
Cu3_2 Cu 0.55710(5) 0.613292(10) 0.78433(4)
N2_2 N 0.3960(5) 0.44571(12) 0.1719(3)
C7_3 C 0.1638(7) 0.43687(12) 0.0943(4)
H5_3 H 0.0805 0.4032 0.0948
C8_3 C 0.0447(7) 0.47529(12) 0.0144(4)
C9_2 C 0.1653(6) 0.52512(12) 0.0101(3)
C10_2 C 0.4014(6) 0.53456(12) 0.0911(3)
H7_2 H 0.4891 0.5678 0.0918
C11_3 C 0.5063(6) 0.49457(11) 0.1708(3)
H8_3 H 0.6628 0.5019 0.2271
O4_3 O 0.1927(4) 0.60482(8) 0.8939(2)
C12_3 C 0.0453(6) 0.56785(11) 0.9213(3)
O1_3 O 0.3834(5) 0.66897(11) 0.6718(3)
O2_3 O 0.6818(5) 0.65507(9) 0.5355(3)
O3_3 O 0.7930(5) 0.56175(9) 0.8822(2)
C1_3 C 0.1129(8) 0.80885(14) 0.4936(4)
C2_3 C 0.1978(8) 0.76293(14) 0.5557(4)
H2_3 H 0.1259 0.7533 0.6293
C3_3 C 0.3911(7) 0.73089(15) 0.5086(4)
C4_3 C 0.4951(6) 0.74749(12) 0.4003(3)
H3_2 H 0.6284 0.7272 0.3664
C5_3 C 0.3996(6) 0.79404(12) 0.3441(3)
H4_3 H 0.4719 0.8052 0.2717
C6_3 C 0.4972(7) 0.68016(14) 0.5760(4)
H6_2 H 0.8816 0.4678 0.9627
N4_2 N 0.3960(5) 0.55429(12) 0.6719(3)
O4_4 O 0.1927(4) 0.39518(8) 0.3939(2)
C7_4 C 0.1638(7) 0.56313(12) 0.5943(4)
H5_4 H 0.0805 0.5968 0.5948
C8_4 C 0.0447(7) 0.52471(12) 0.5144(4)
C9_3 C 0.1653(6) 0.47488(12) 0.5101(3)
C10_3 C 0.4014(6) 0.46544(12) 0.5911(3)
H7_3 H 0.4891 0.4322 0.5918
C11_4 C 0.5063(6) 0.50543(11) 0.6708(3)
H8_4 H 0.6628 0.4981 0.7271
C12_4 C 0.0453(6) 0.43215(11) 0.4213(3)
O1_4 O 0.3834(5) 0.33103(11) 0.1718(3)
O2_4 O 0.6818(5) 0.34493(9) 0.0355(3)
O3_4 O 0.7930(5) 0.43825(9) 0.3822(2)
C2_4 C 0.1978(8) 0.23707(14) 0.0557(4)
H2_4 H 0.1259 0.2467 0.1293
C3_4 C 0.3911(7) 0.26911(15) 0.0086(4)
C6_4 C 0.4972(7) 0.31984(14) 0.0760(4)
H6_3 H 0.8816 0.5322 0.4627
C1_4 C 0.1129(8) 0.19115(14) 0.9936(4)
C4_4 C 0.4951(6) 0.25251(12) 0.9003(3)
H3_3 H 0.6284 0.2728 0.8664
C5_4 C 0.3996(6) 0.20596(12) 0.8441(3)
H4_4 H 0.4719 0.1948 0.7717
C9_4 C 0.6653(6) 0.02512(12) 0.0101(3)
C10_4 C 0.9014(6) 0.03456(12) 0.0911(3)
H7_4 H 0.9891 0.0678 0.0918
H6_4 H 0.3816 0.9678 0.9627
H3_4 H 0.1284 0.7728 0.8664
H1_3 H 0.9828 0.8303 0.5266
H1_4 H 0.9828 0.1697 0.0266
loop_
_geom_bond_atom_site_label_1
_geom_bond_atom_site_label_2
_geom_bond_site_symmetry_1
_geom_bond_site_symmetry_2
O3 Cu2 1_555 1_555
O4 C12 1_555 1_555
C12 O3 1_555 1_555
N3 Cu2 1_555 1_555
N2 C7 1_555 1_555
C7 H5 1_555 1_555
C8 C7 1_555 1_555
O1 C6 1_555 1_555
N1 C1 1_555 1_555
C1 H1 1_555 1_555
C2 C1 1_555 1_555
H2 C2 1_555 1_555
C3 C2 1_555 1_555
C4 C3 1_555 1_555
C5 N1 1_555 1_555
H4 C5 1_555 1_555
C6 C3 1_555 1_555
Cu3 N1 1_555 1_555
C4 C5 1_555 1_555
N4 C7_2 1_555 1_555
C7_2 H5_2 1_555 1_555
C8_2 C7_2 1_555 1_555
H6 C8_2 1_555 1_555
O3_2 Cu4 1_555 1_555
O4_2 C12_2 1_555 1_555
C10 C9 1_555 1_555
H7 C10 1_555 1_555
C12_2 O3_2 1_555 1_555
N3_2 Cu4 1_555 1_555
C9 C12_2 1_555 1_555
O1_2 C6_2 1_555 1_555
H2_2 C2_2 1_555 1_555
C3_2 C2_2 1_555 1_555
C6_2 C3_2 1_555 1_555
N1_2 C1_2 1_555 1_555
C5_2 N1_2 1_555 1_555
H4_2 C5_2 1_555 1_555
Cu3_2 N1_2 1_555 1_555
C4_2 C5_2 1_555 1_555
N2_2 C7_3 1_555 1_555
C7_3 H5_3 1_555 1_555
C8_3 C7_3 1_555 1_555
C9_2 C8_3 1_555 1_555
C10_2 C9_2 1_555 1_555
H7_2 C10_2 1_555 1_555
C11_3 N2_2 1_555 1_555
H8_3 C11_3 1_555 1_555
Cu3 N2_2 1_555 1_555
C10_2 C11_3 1_555 1_555
O4_3 C12_3 1_555 1_555
Cu3_2 O4_3 1_555 1_555
Cu3_2 O1_3 1_555 1_555
O1_3 C6_3 1_555 1_555
O2_3 C6_3 1_555 1_555
O3_3 Cu3_2 1_555 1_555
N3_2 C1_3 1_555 1_555
C2_3 C1_3 1_555 1_555
H2_3 C2_3 1_555 1_555
C3_3 C2_3 1_555 1_555
C4_3 C3_3 1_555 1_555
H3_2 C4_3 1_555 1_555
C5_3 N3_2 1_555 1_555
H4_3 C5_3 1_555 1_555
C6_3 C3_3 1_555 1_555
N4_2 Cu3_2 1_555 1_555
C4_3 C5_3 1_555 1_555
O4_4 C12_4 1_555 1_555
N4_2 C7_4 1_555 1_555
C7_4 H5_4 1_555 1_555
C8_4 C7_4 1_555 1_555
C9_3 C8_4 1_555 1_555
C10_3 C9_3 1_555 1_555
H7_3 C10_3 1_555 1_555
C11_4 N4_2 1_555 1_555
H8_4 C11_4 1_555 1_555
Cu3 O4_4 1_555 1_555
C9_3 C12_4 1_555 1_555
C10_3 C11_4 1_555 1_555
Cu3 O1_4 1_555 1_555
O1_4 C6_4 1_555 1_555
O2_4 C6_4 1_555 1_555
O3_4 Cu3 1_555 1_555
H2_4 C2_4 1_555 1_555
C3_4 C2_4 1_555 1_555
C6_4 C3_4 1_555 1_555
N3 C1_4 1_555 1_555
H3_3 C4_4 1_555 1_555
C5_4 N3 1_555 1_555
H4_4 C5_4 1_555 1_555
C4_4 C5_4 1_555 1_555
C10_4 C9_4 1_555 1_555
H7_4 C10_4 1_555 1_555

#END
