
###############################################################################
#
# This file contains modified crystal structure data generated from the
# MOF subset of the Cambridge Structural Database (CSD) v543 
# hosted by the Cambridge Crystallographic Data Centre (CCDC).
#
# This work is licensed under the Creative Commons
# Attribution-NonCommercial-ShareAlike 4.0 International License.
# To view a copy of this license, visit
# http://creativecommons.org/licenses/by-nc-sa/4.0/
# or send a letter to
# Creative Commons, PO Box 1866, Mountain View, CA 94042, USA.
#
# CIF created using the CSD Python API on 29 September 2022
# The structure has been converted into the P1 space group
# The structure has a 3D framework
# The original CSD entry UFUROF is in the tetragonal crystal system
# The framework has been calculated to contain at least 10.0% void space
# The void calculation uses a probe of radius 1.32A, grid spacing 0.4
# The framework is charged, counterions have been retained in the structure
#
###############################################################################

data_UFUROF
_chemical_formula_moiety         '(C96 H96 Cu4 N16 4+)n'
_symmetry_cell_setting           triclinic
_symmetry_space_group_name_H-M   'P 1'
_symmetry_Int_Tables_number      1
_space_group_name_Hall           'P 1'
loop_
_symmetry_equiv_pos_site_id
_symmetry_equiv_pos_as_xyz
1 x,y,z
_cell_length_a                   19.334(2)
_cell_length_b                   19.334(2)
_cell_length_c                   7.2564(14)
_cell_angle_alpha                90
_cell_angle_beta                 90
_cell_angle_gamma                90
_cell_volume                     2712.47
loop_
_atom_site_label
_atom_site_type_symbol
_atom_site_fract_x
_atom_site_fract_y
_atom_site_fract_z
C18 C 0.4894(4) 0.0101(3) 0.0966(7)
H17 H 0.4415 0.0282 0.0948
H18 H 0.5201 0.0473 0.1421
Cu1 Cu 0.5000 0.7500 0.6250
N1 N 0.4995(2) 0.6658(2) 0.4570(5)
C1 C 0.4518(3) 0.6166(3) 0.4629(7)
H1 H 0.4146 0.6212 0.5474
C2 C 0.4542(3) 0.5592(3) 0.3514(8)
H2 H 0.4194 0.5247 0.3617
C3 C 0.5066(3) 0.5514(3) 0.2254(7)
C4 C 0.5558(4) 0.6025(3) 0.2187(8)
H3 H 0.5937 0.5987 0.1360
C5 C 0.5501(3) 0.6593(3) 0.3328(8)
H4 H 0.5834 0.6952 0.3226
C6 C 0.5106(4) 0.4899(3) 0.0966(7)
H5 H 0.5585 0.4718 0.0948
H6 H 0.4799 0.4527 0.1421
N3 N 0.5005(2) 0.8342(2) 0.4570(5)
C13 C 0.5482(3) 0.8834(3) 0.4629(7)
H13 H 0.5854 0.8788 0.5474
C14 C 0.5458(3) 0.9408(3) 0.3514(8)
H14 H 0.5806 0.9753 0.3617
C15 C 0.4934(3) 0.9486(3) 0.2254(7)
C16 C 0.4442(4) 0.8975(3) 0.2187(8)
H15 H 0.4063 0.9013 0.1360
C17 C 0.4499(3) 0.8407(3) 0.3328(8)
H16 H 0.4166 0.8048 0.3226
N5 N 0.5842(2) 0.7495(2) 0.7930(5)
N6 N 0.4158(2) 0.7505(2) 0.7930(5)
C7 C 0.3666(3) 0.7982(3) 0.7871(7)
H7 H 0.3712 0.8354 0.7026
C8 C 0.3092(3) 0.7958(3) 0.8986(8)
H8 H 0.2747 0.8306 0.8883
C11 C 0.4093(3) 0.6999(3) 0.9172(8)
H10 H 0.4452 0.6666 0.9274
C19 C 0.6334(3) 0.7018(3) 0.7871(7)
H19 H 0.6288 0.6646 0.7026
C20 C 0.6908(3) 0.7042(3) 0.8986(8)
H20 H 0.7253 0.6694 0.8883
C23 C 0.5907(3) 0.8001(3) 0.9172(8)
H22 H 0.5548 0.8334 0.9274
N4 N 0.4995(2) 0.1658(2) 0.5430(5)
C19_2 C 0.4518(3) 0.1166(3) 0.5371(7)
H19_2 H 0.4146 0.1212 0.4526
C20_2 C 0.4542(3) 0.0592(3) 0.6486(8)
H20_2 H 0.4194 0.0247 0.6383
C21 C 0.5066(3) 0.0514(3) 0.7746(7)
C22 C 0.5558(4) 0.1025(3) 0.7813(8)
H21 H 0.5937 0.0987 0.8640
C23_2 C 0.5501(3) 0.1593(3) 0.6672(8)
H22_2 H 0.5834 0.1952 0.6774
Cu3 Cu 0.5000 0.2500 0.3750
N2 N 0.5005(2) 0.3342(2) 0.5430(5)
C7_2 C 0.5482(3) 0.3834(3) 0.5371(7)
H7_2 H 0.5854 0.3788 0.4526
C8_2 C 0.5458(3) 0.4408(3) 0.6486(8)
H8_2 H 0.5806 0.4753 0.6383
C9 C 0.4934(3) 0.4486(3) 0.7746(7)
C10 C 0.4442(4) 0.3975(3) 0.7813(8)
H9 H 0.4063 0.4013 0.8640
C11_2 C 0.4499(3) 0.3407(3) 0.6672(8)
H10_2 H 0.4166 0.3048 0.6774
C12 C 0.4894(4) 0.5101(3) 0.9034(7)
H11 H 0.4415 0.5282 0.9052
H12 H 0.5201 0.5473 0.8579
C24 C 0.5106(4) 0.9899(3) 0.9034(7)
H23 H 0.5585 0.9718 0.9052
H24 H 0.4799 0.9527 0.8579
N1_2 N 0.4158(2) 0.2505(2) 0.2070(5)
C1_2 C 0.3666(3) 0.2982(3) 0.2129(7)
H1_2 H 0.3712 0.3354 0.2974
C2_2 C 0.3092(3) 0.2958(3) 0.1014(8)
H2_2 H 0.2747 0.3306 0.1117
C5_2 C 0.4093(3) 0.1999(3) 0.0828(8)
H4_2 H 0.4452 0.1666 0.0726
N3_2 N 0.5842(2) 0.2495(2) 0.2070(5)
C13_2 C 0.6334(3) 0.2018(3) 0.2129(7)
H13_2 H 0.6288 0.1646 0.2974
C14_2 C 0.6908(3) 0.2042(3) 0.1014(8)
H14_2 H 0.7253 0.1694 0.1117
C17_2 C 0.5907(3) 0.3001(3) 0.0828(8)
H16_2 H 0.5548 0.3334 0.0726
Cu1_2 Cu 0.0000 0.2500 0.1250
H1_3 H 0.0854 0.3788 0.0474
N6_2 N 0.0842(2) 0.2495(2) 0.2930(5)
Cu1_3 Cu 1.0000 0.2500 0.1250
H13_3 H 0.9146 0.1212 0.0474
N5_2 N 0.9158(2) 0.2505(2) 0.2930(5)
C3_2 C 0.3014(3) 0.2434(3) 0.9754(7)
C4_2 C 0.3525(3) 0.1942(4) 0.9687(8)
H3_2 H 0.3487 0.1563 0.8860
C6_2 C 0.2399(3) 0.2394(4) 0.8466(7)
H5_2 H 0.2218 0.1915 0.8448
H6_2 H 0.2027 0.2701 0.8921
C7_3 C 0.1334(3) 0.2018(3) 0.2871(7)
H7_3 H 0.1288 0.1646 0.2026
C8_3 C 0.1908(3) 0.2042(3) 0.3986(8)
H8_3 H 0.2253 0.1694 0.3883
C9_2 C 0.1986(3) 0.2566(3) 0.5246(7)
C10_2 C 0.1475(3) 0.3058(4) 0.5313(8)
H9_2 H 0.1513 0.3437 0.6140
C11_3 C 0.0907(3) 0.3001(3) 0.4172(8)
H10_3 H 0.0548 0.3334 0.4274
C12_2 C 0.2601(3) 0.2606(4) 0.6534(7)
H11_2 H 0.2782 0.3085 0.6552
H12_2 H 0.2973 0.2299 0.6079
C15_2 C 0.6986(3) 0.2566(3) 0.9754(7)
C16_2 C 0.6475(3) 0.3058(4) 0.9687(8)
H15_2 H 0.6513 0.3437 0.8860
C18_2 C 0.7601(3) 0.2606(4) 0.8466(7)
H17_2 H 0.7782 0.3085 0.8448
H18_2 H 0.7973 0.2299 0.8921
C19_3 C 0.8666(3) 0.2982(3) 0.2871(7)
H19_3 H 0.8712 0.3354 0.2026
C20_3 C 0.8092(3) 0.2958(3) 0.3986(8)
H20_3 H 0.7747 0.3306 0.3883
C21_2 C 0.8014(3) 0.2434(3) 0.5246(7)
C22_2 C 0.8525(3) 0.1942(4) 0.5313(8)
H21_2 H 0.8487 0.1563 0.6140
C23_3 C 0.9093(3) 0.1999(3) 0.4172(8)
H22_3 H 0.9452 0.1666 0.4274
C24_2 C 0.7399(3) 0.2394(4) 0.6534(7)
H23_2 H 0.7218 0.1915 0.6552
H24_2 H 0.7027 0.2701 0.6079
N1_3 N 0.0005(2) 0.3342(2) 0.9570(5)
C1_3 C 0.0482(3) 0.3834(3) 0.9629(7)
C2_3 C 0.0458(3) 0.4408(3) 0.8514(8)
H2_3 H 0.0806 0.4753 0.8617
H6_3 H 0.0201 0.5473 0.6421
C9_3 C 0.0066(3) 0.5514(3) 0.2746(7)
C10_3 C 0.0558(4) 0.6025(3) 0.2813(8)
H9_3 H 0.0937 0.5987 0.3640
C11_4 C 0.0501(3) 0.6593(3) 0.1672(8)
H10_4 H 0.0834 0.6952 0.1774
C12_3 C 0.0106(4) 0.4899(3) 0.4034(7)
H11_3 H 0.0585 0.4718 0.4052
C15_3 C 0.0066(3) 0.0514(3) 0.7254(7)
C16_3 C 0.0558(4) 0.1025(3) 0.7187(8)
H15_3 H 0.0937 0.0987 0.6360
C17_3 C 0.0501(3) 0.1593(3) 0.8328(8)
H16_3 H 0.0834 0.1952 0.8226
H24_3 H 0.0201 0.0473 0.3579
C18_3 C 0.0106(4) 0.9899(3) 0.5966(7)
H17_3 H 0.0585 0.9718 0.5948
N4_2 N 0.0005(2) 0.8342(2) 0.0430(5)
C19_4 C 0.0482(3) 0.8834(3) 0.0371(7)
C20_4 C 0.0458(3) 0.9408(3) 0.1486(8)
H20_4 H 0.0806 0.9753 0.1383
Cu2 Cu 0.0000 0.7500 0.8750
H19_4 H 0.0854 0.8788 0.9526
H7_4 H 0.9146 0.6212 0.9526
Cu2_2 Cu 1.0000 0.7500 0.8750
N1_4 N 0.0842(2) 0.7495(2) 0.7070(5)
C1_4 C 0.1334(3) 0.7018(3) 0.7129(7)
H1_4 H 0.1288 0.6646 0.7974
C2_4 C 0.1908(3) 0.7042(3) 0.6014(8)
H2_4 H 0.2253 0.6694 0.6117
C3_3 C 0.1986(3) 0.7566(3) 0.4754(7)
C4_3 C 0.1475(3) 0.8058(4) 0.4687(8)
H3_3 H 0.1513 0.8437 0.3860
C5_3 C 0.0907(3) 0.8001(3) 0.5828(8)
H4_3 H 0.0548 0.8334 0.5726
C6_3 C 0.2601(3) 0.7606(4) 0.3466(7)
H5_3 H 0.2782 0.8085 0.3448
H6_4 H 0.2973 0.7299 0.3921
C9_4 C 0.3014(3) 0.7434(3) 0.0246(7)
C10_4 C 0.3525(3) 0.6942(4) 0.0313(8)
H9_4 H 0.3487 0.6563 0.1140
C12_4 C 0.2399(3) 0.7394(4) 0.1534(7)
H11_4 H 0.2218 0.6915 0.1552
H12_3 H 0.2027 0.7701 0.1079
N3_3 N 0.9158(2) 0.7505(2) 0.7070(5)
C13_3 C 0.8666(3) 0.7982(3) 0.7129(7)
H13_4 H 0.8712 0.8354 0.7974
C14_3 C 0.8092(3) 0.7958(3) 0.6014(8)
H14_3 H 0.7747 0.8306 0.6117
C15_4 C 0.8014(3) 0.7434(3) 0.4754(7)
C16_4 C 0.8525(3) 0.6942(4) 0.4687(8)
H15_4 H 0.8487 0.6563 0.3860
C17_4 C 0.9093(3) 0.6999(3) 0.5828(8)
H16_4 H 0.9452 0.6666 0.5726
C18_4 C 0.7399(3) 0.7394(4) 0.3466(7)
H17_4 H 0.7218 0.6915 0.3448
H18_3 H 0.7027 0.7701 0.3921
C21_3 C 0.6986(3) 0.7566(3) 0.0246(7)
C22_3 C 0.6475(3) 0.8058(4) 0.0313(8)
H21_3 H 0.6513 0.8437 0.1140
C24_3 C 0.7601(3) 0.7606(4) 0.1534(7)
H23_3 H 0.7782 0.8085 0.1552
H24_4 H 0.7973 0.7299 0.1079
C3_4 C 0.9934(3) 0.4486(3) 0.7254(7)
C4_4 C 0.9442(4) 0.3975(3) 0.7187(8)
H3_4 H 0.9063 0.4013 0.6360
C5_4 C 0.9499(3) 0.3407(3) 0.8328(8)
H4_4 H 0.9166 0.3048 0.8226
C6_4 C 0.9894(4) 0.5101(3) 0.5966(7)
H5_4 H 0.9415 0.5282 0.5948
N2_2 N 0.9995(2) 0.6658(2) 0.0430(5)
C7_4 C 0.9518(3) 0.6166(3) 0.0371(7)
C8_4 C 0.9542(3) 0.5592(3) 0.1486(8)
H8_4 H 0.9194 0.5247 0.1383
H12_4 H 0.9799 0.4527 0.3579
N3_4 N 0.9995(2) 0.1658(2) 0.9570(5)
C13_4 C 0.9518(3) 0.1166(3) 0.9629(7)
C14_4 C 0.9542(3) 0.0592(3) 0.8514(8)
H14_4 H 0.9194 0.0247 0.8617
C24_4 C 0.9894(4) 0.0101(3) 0.4034(7)
H23_4 H 0.9415 0.0282 0.4052
H18_4 H 0.9799 0.9527 0.6421
C21_4 C 0.9934(3) 0.9486(3) 0.2746(7)
C22_4 C 0.9442(4) 0.8975(3) 0.2813(8)
H21_4 H 0.9063 0.9013 0.3640
C23_4 C 0.9499(3) 0.8407(3) 0.1672(8)
H22_4 H 0.9166 0.8048 0.1774
loop_
_geom_bond_atom_site_label_1
_geom_bond_atom_site_label_2
_geom_bond_site_symmetry_1
_geom_bond_site_symmetry_2
H17 C18 1_555 1_555
H18 C18 1_555 1_555
Cu1 N1 1_555 1_555
N1 C1 1_555 1_555
C1 H1 1_555 1_555
C2 C1 1_555 1_555
H2 C2 1_555 1_555
C3 C2 1_555 1_555
C4 C3 1_555 1_555
H3 C4 1_555 1_555
C5 N1 1_555 1_555
H4 C5 1_555 1_555
C6 C3 1_555 1_555
H5 C6 1_555 1_555
H6 C6 1_555 1_555
N3 Cu1 1_555 1_555
C13 N3 1_555 1_555
H13 C13 1_555 1_555
C14 C13 1_555 1_555
H14 C14 1_555 1_555
C15 C14 1_555 1_555
C16 C15 1_555 1_555
H15 C16 1_555 1_555
C17 N3 1_555 1_555
H16 C17 1_555 1_555
N5 Cu1 1_555 1_555
N6 Cu1 1_555 1_555
C4 C5 1_555 1_555
C16 C17 1_555 1_555
N6 C7 1_555 1_555
C7 H7 1_555 1_555
C8 C7 1_555 1_555
H8 C8 1_555 1_555
C11 N6 1_555 1_555
H10 C11 1_555 1_555
N5 C19 1_555 1_555
C19 H19 1_555 1_555
C20 C19 1_555 1_555
H20 C20 1_555 1_555
C23 N5 1_555 1_555
H22 C23 1_555 1_555
N4 C19_2 1_555 1_555
C19_2 H19_2 1_555 1_555
C20_2 C19_2 1_555 1_555
H20_2 C20_2 1_555 1_555
C21 C20_2 1_555 1_555
C22 C21 1_555 1_555
H21 C22 1_555 1_555
C23_2 N4 1_555 1_555
H22_2 C23_2 1_555 1_555
Cu3 N4 1_555 1_555
C22 C23_2 1_555 1_555
N2 C7_2 1_555 1_555
C7_2 H7_2 1_555 1_555
C8_2 C7_2 1_555 1_555
H8_2 C8_2 1_555 1_555
C9 C8_2 1_555 1_555
C10 C9 1_555 1_555
H9 C10 1_555 1_555
C11_2 N2 1_555 1_555
H10_2 C11_2 1_555 1_555
H11 C12 1_555 1_555
H12 C12 1_555 1_555
H23 C24 1_555 1_555
H24 C24 1_555 1_555
Cu3 N2 1_555 1_555
C9 C12 1_555 1_555
C10 C11_2 1_555 1_555
Cu3 N1_2 1_555 1_555
N1_2 C1_2 1_555 1_555
C1_2 H1_2 1_555 1_555
C2_2 C1_2 1_555 1_555
H2_2 C2_2 1_555 1_555
C5_2 N1_2 1_555 1_555
H4_2 C5_2 1_555 1_555
N3_2 Cu3 1_555 1_555
C13_2 N3_2 1_555 1_555
H13_2 C13_2 1_555 1_555
C14_2 C13_2 1_555 1_555
H14_2 C14_2 1_555 1_555
C17_2 N3_2 1_555 1_555
H16_2 C17_2 1_555 1_555
N6_2 Cu1_2 1_555 1_555
N5_2 Cu1_3 1_555 1_555
C4_2 C3_2 1_555 1_555
H3_2 C4_2 1_555 1_555
C6_2 C3_2 1_555 1_555
H5_2 C6_2 1_555 1_555
H6_2 C6_2 1_555 1_555
N6_2 C7_3 1_555 1_555
C7_3 H7_3 1_555 1_555
C8_3 C7_3 1_555 1_555
H8_3 C8_3 1_555 1_555
C9_2 C8_3 1_555 1_555
C10_2 C9_2 1_555 1_555
H9_2 C10_2 1_555 1_555
C11_3 N6_2 1_555 1_555
H10_3 C11_3 1_555 1_555
C12_2 C6_2 1_555 1_555
H11_2 C12_2 1_555 1_555
H12_2 C12_2 1_555 1_555
C16_2 C15_2 1_555 1_555
H15_2 C16_2 1_555 1_555
C18_2 C15_2 1_555 1_555
H17_2 C18_2 1_555 1_555
H18_2 C18_2 1_555 1_555
N5_2 C19_3 1_555 1_555
C19_3 H19_3 1_555 1_555
C20_3 C19_3 1_555 1_555
H20_3 C20_3 1_555 1_555
C21_2 C20_3 1_555 1_555
C22_2 C21_2 1_555 1_555
H21_2 C22_2 1_555 1_555
C23_3 N5_2 1_555 1_555
H22_3 C23_3 1_555 1_555
C24_2 C18_2 1_555 1_555
H23_2 C24_2 1_555 1_555
H24_2 C24_2 1_555 1_555
C9_2 C12_2 1_555 1_555
C10_2 C11_3 1_555 1_555
C21_2 C24_2 1_555 1_555
C22_2 C23_3 1_555 1_555
N1_3 C1_3 1_555 1_555
C2_3 C1_3 1_555 1_555
H2_3 C2_3 1_555 1_555
C10_3 C9_3 1_555 1_555
H9_3 C10_3 1_555 1_555
H10_4 C11_4 1_555 1_555
H11_3 C12_3 1_555 1_555
C16_3 C15_3 1_555 1_555
H15_3 C16_3 1_555 1_555
H16_3 C17_3 1_555 1_555
C9_3 C12_3 1_555 1_555
C10_3 C11_4 1_555 1_555
C16_3 C17_3 1_555 1_555
H17_3 C18_3 1_555 1_555
N4_2 C19_4 1_555 1_555
C20_4 C19_4 1_555 1_555
H20_4 C20_4 1_555 1_555
Cu2 N1_4 1_555 1_555
N1_4 C1_4 1_555 1_555
C1_4 H1_4 1_555 1_555
C2_4 C1_4 1_555 1_555
H2_4 C2_4 1_555 1_555
C3_3 C2_4 1_555 1_555
C4_3 C3_3 1_555 1_555
H3_3 C4_3 1_555 1_555
C5_3 N1_4 1_555 1_555
H4_3 C5_3 1_555 1_555
C6_3 C3_3 1_555 1_555
H5_3 C6_3 1_555 1_555
H6_4 C6_3 1_555 1_555
C10_4 C9_4 1_555 1_555
H9_4 C10_4 1_555 1_555
C12_4 C6_3 1_555 1_555
H11_4 C12_4 1_555 1_555
H12_3 C12_4 1_555 1_555
C4_3 C5_3 1_555 1_555
C9_4 C12_4 1_555 1_555
N3_3 Cu2_2 1_555 1_555
C13_3 N3_3 1_555 1_555
H13_4 C13_3 1_555 1_555
C14_3 C13_3 1_555 1_555
H14_3 C14_3 1_555 1_555
C15_4 C14_3 1_555 1_555
C16_4 C15_4 1_555 1_555
H15_4 C16_4 1_555 1_555
C17_4 N3_3 1_555 1_555
H16_4 C17_4 1_555 1_555
C18_4 C15_4 1_555 1_555
H17_4 C18_4 1_555 1_555
H18_3 C18_4 1_555 1_555
C22_3 C21_3 1_555 1_555
H21_3 C22_3 1_555 1_555
C24_3 C18_4 1_555 1_555
H23_3 C24_3 1_555 1_555
H24_4 C24_3 1_555 1_555
C16_4 C17_4 1_555 1_555
C21_3 C24_3 1_555 1_555
C4_4 C3_4 1_555 1_555
H3_4 C4_4 1_555 1_555
H4_4 C5_4 1_555 1_555
C6_4 C3_4 1_555 1_555
H5_4 C6_4 1_555 1_555
N2_2 C7_4 1_555 1_555
C8_4 C7_4 1_555 1_555
H8_4 C8_4 1_555 1_555
C13_4 N3_4 1_555 1_555
C14_4 C13_4 1_555 1_555
H14_4 C14_4 1_555 1_555
H23_4 C24_4 1_555 1_555
C4_4 C5_4 1_555 1_555
C22_4 C21_4 1_555 1_555
H21_4 C22_4 1_555 1_555
H22_4 C23_4 1_555 1_555
C22_4 C23_4 1_555 1_555

#END
