
###############################################################################
#
# This file contains modified crystal structure data generated from the
# MOF subset of the Cambridge Structural Database (CSD) v543 
# hosted by the Cambridge Crystallographic Data Centre (CCDC).
#
# This work is licensed under the Creative Commons
# Attribution-NonCommercial-ShareAlike 4.0 International License.
# To view a copy of this license, visit
# http://creativecommons.org/licenses/by-nc-sa/4.0/
# or send a letter to
# Creative Commons, PO Box 1866, Mountain View, CA 94042, USA.
#
# CIF created using the CSD Python API on 29 September 2022
# The structure has been converted into the P1 space group
# The structure has a 3D framework
# The original CSD entry UGEPEB02 is in the monoclinic crystal system
# The framework has been calculated to contain at least 10.0% void space
# The void calculation uses a probe of radius 1.32A, grid spacing 0.4
#
###############################################################################

data_UGEPEB02
_chemical_formula_moiety         '(C24 H16 Cu2 N4 O8)n'
_symmetry_cell_setting           triclinic
_symmetry_space_group_name_H-M   'P 1'
_symmetry_Int_Tables_number      1
_space_group_name_Hall           'P 1'
loop_
_symmetry_equiv_pos_site_id
_symmetry_equiv_pos_as_xyz
1 x,y,z
_cell_length_a                   3.554(3)
_cell_length_b                   15.895(13)
_cell_length_c                   13.162(11)
_cell_angle_alpha                90
_cell_angle_beta                 100.358(17)
_cell_angle_gamma                90
_cell_volume                     731.415
loop_
_atom_site_label
_atom_site_type_symbol
_atom_site_fract_x
_atom_site_fract_y
_atom_site_fract_z
N1 N 0.1355(17) 0.1786(4) 0.4052(4)
C1 C 0.099(2) 0.2562(4) 0.4410(5)
H2 H 0.1756 0.2661 0.5113
C5 C 0.042(2) 0.1664(5) 0.3026(5)
H5 H 0.0791 0.1134 0.2762
Cu4 Cu 0.2304(2) 0.07753(5) 0.49585(6)
O3 O 0.7363(14) 0.0281(3) 0.4307(4)
H1 H 0.68(3) 0.019(6) 0.371(7)
O1 O 0.578(2) 0.0547(4) 0.7423(4)
O2 O 0.5712(16) 0.1416(3) 0.6072(4)
C2 C 0.951(2) 0.1773(5) 0.8779(5)
H3 H 0.9273 0.1242 0.9059
C3 C 0.8379(19) 0.1909(4) 0.7728(5)
C4 C 0.893(2) 0.2710(5) 0.7356(5)
H4 H 0.8293 0.2821 0.6652
C6 C 0.652(2) 0.1226(4) 0.7027(5)
O1_2 O 0.578(2) 0.4453(4) 0.2423(4)
O2_2 O 0.5712(16) 0.3584(3) 0.1072(4)
O3_2 O 0.2637(14) 0.5281(3) 0.0693(4)
H1_2 H 0.32(3) 0.519(6) 0.129(7)
C2_2 C 0.951(2) 0.3227(5) 0.3779(5)
H3_2 H 0.9273 0.3758 0.4059
C3_2 C 0.8379(19) 0.3091(4) 0.2728(5)
C4_2 C 0.893(2) 0.2290(5) 0.2356(5)
H4_2 H 0.8293 0.2179 0.1652
C6_2 C 0.652(2) 0.3774(4) 0.2027(5)
Cu3 Cu 0.7696(2) 0.57753(5) 0.00415(6)
N1_2 N 0.8645(17) 0.6786(4) 0.0948(4)
C1_2 C 0.901(2) 0.7562(4) 0.0590(5)
C5_2 C 0.958(2) 0.6664(5) 0.1974(5)
H5_2 H 0.9209 0.6134 0.2238
Cu1 Cu 0.2304(2) 0.42247(5) 0.99585(6)
N2 N 0.1355(17) 0.3214(4) 0.9052(4)
O5 O 0.7363(14) 0.4719(3) 0.9307(4)
O1_3 O 0.422(2) 0.5547(4) 0.7577(4)
O2_3 O 0.4288(16) 0.6416(3) 0.8928(4)
H1_3 H 0.68(3) 0.481(6) 0.871(7)
C2_3 C 0.049(2) 0.6773(5) 0.6221(5)
H3_3 H 0.0727 0.6242 0.5941
C3_3 C 0.1621(19) 0.6909(4) 0.7272(5)
C4_3 C 0.107(2) 0.7710(5) 0.7644(5)
H4_3 H 0.1707 0.7821 0.8348
C6_3 C 0.348(2) 0.6226(4) 0.7973(5)
C1_3 C 0.099(2) 0.2438(4) 0.9410(5)
C5_3 C 0.042(2) 0.3336(5) 0.8026(5)
H5_3 H 0.0791 0.3866 0.7762
O4 O 0.2637(14) 0.9719(3) 0.5693(4)
Cu1_2 Cu 0.7696(2) 0.92247(5) 0.50415(6)
O1_4 O 0.422(2) 0.9453(4) 0.2577(4)
O2_4 O 0.4288(16) 0.8584(3) 0.3928(4)
C2_4 C 0.049(2) 0.8227(5) 0.1221(5)
H3_4 H 0.0727 0.8758 0.0941
C3_4 C 0.1621(19) 0.8091(4) 0.2272(5)
C4_4 C 0.107(2) 0.7290(5) 0.2644(5)
H4_4 H 0.1707 0.7179 0.3348
C6_4 C 0.348(2) 0.8774(4) 0.2973(5)
N2_2 N 0.8645(17) 0.8214(4) 0.5948(4)
C1_4 C 0.901(2) 0.7438(4) 0.5590(5)
H2_2 H 0.8244 0.7339 0.4887
C5_4 C 0.958(2) 0.8336(5) 0.6974(5)
H5_4 H 0.9209 0.8866 0.7238
H1_4 H 0.32(3) 0.981(6) 0.629(7)
H2_3 H 0.8244 0.7661 0.9887
H2_4 H 0.1756 0.2339 0.0113
loop_
_geom_bond_atom_site_label_1
_geom_bond_atom_site_label_2
_geom_bond_site_symmetry_1
_geom_bond_site_symmetry_2
N1 C1 1_555 1_555
C1 H2 1_555 1_555
C5 N1 1_555 1_555
H5 C5 1_555 1_555
Cu4 N1 1_555 1_555
H1 O3 1_555 1_555
Cu4 O3 1_555 1_555
Cu4 O2 1_555 1_555
O1 C6 1_555 1_555
O2 C6 1_555 1_555
H3 C2 1_555 1_555
C3 C2 1_555 1_555
C4 C3 1_555 1_555
H4 C4 1_555 1_555
C6 C3 1_555 1_555
O1_2 C6_2 1_555 1_555
O2_2 C6_2 1_555 1_555
H1_2 O3_2 1_555 1_555
H3_2 C2_2 1_555 1_555
C3_2 C2_2 1_555 1_555
C4_2 C3_2 1_555 1_555
H4_2 C4_2 1_555 1_555
C6_2 C3_2 1_555 1_555
Cu3 O3_2 1_555 1_555
N1_2 C1_2 1_555 1_555
C5_2 N1_2 1_555 1_555
H5_2 C5_2 1_555 1_555
Cu3 N1_2 1_555 1_555
N2 Cu1 1_555 1_555
O5 Cu1 1_555 1_555
O1_3 C6_3 1_555 1_555
O2_3 C6_3 1_555 1_555
H1_3 O5 1_555 1_555
H3_3 C2_3 1_555 1_555
C3_3 C2_3 1_555 1_555
C4_3 C3_3 1_555 1_555
H4_3 C4_3 1_555 1_555
C6_3 C3_3 1_555 1_555
N2 C1_3 1_555 1_555
C5_3 N2 1_555 1_555
H5_3 C5_3 1_555 1_555
Cu1_2 O2_4 1_555 1_555
O1_4 C6_4 1_555 1_555
O2_4 C6_4 1_555 1_555
H3_4 C2_4 1_555 1_555
C3_4 C2_4 1_555 1_555
C4_4 C3_4 1_555 1_555
H4_4 C4_4 1_555 1_555
C6_4 C3_4 1_555 1_555
N2_2 Cu1_2 1_555 1_555
O4 Cu1_2 1_555 1_555
N2_2 C1_4 1_555 1_555
C1_4 H2_2 1_555 1_555
C5_4 N2_2 1_555 1_555
H5_4 C5_4 1_555 1_555
H1_4 O4 1_555 1_555

#END
