
###############################################################################
#
# This file contains modified crystal structure data generated from the
# MOF subset of the Cambridge Structural Database (CSD) v543 
# hosted by the Cambridge Crystallographic Data Centre (CCDC).
#
# This work is licensed under the Creative Commons
# Attribution-NonCommercial-ShareAlike 4.0 International License.
# To view a copy of this license, visit
# http://creativecommons.org/licenses/by-nc-sa/4.0/
# or send a letter to
# Creative Commons, PO Box 1866, Mountain View, CA 94042, USA.
#
# CIF created using the CSD Python API on 29 September 2022
# The structure has been converted into the P1 space group
# The structure has a 3D framework
# The original CSD entry UHIGUQ is in the triclinic crystal system
# The framework has been calculated to contain at least 10.0% void space
# The void calculation uses a probe of radius 1.32A, grid spacing 0.4
#
###############################################################################

data_UHIGUQ
_chemical_formula_moiety         '(C116 H48 Cl8 Co4 N8 O24)n'
_symmetry_cell_setting           triclinic
_symmetry_space_group_name_H-M   'P 1'
_symmetry_Int_Tables_number      1
_space_group_name_Hall           'P 1'
loop_
_symmetry_equiv_pos_site_id
_symmetry_equiv_pos_as_xyz
1 x,y,z
_cell_length_a                   13.0626(3)
_cell_length_b                   13.1226(3)
_cell_length_c                   26.3129(5)
_cell_angle_alpha                96.8686(17)
_cell_angle_beta                 94.9156(17)
_cell_angle_gamma                97.9634(18)
_cell_volume                     4410.83
loop_
_atom_site_label
_atom_site_type_symbol
_atom_site_fract_x
_atom_site_fract_y
_atom_site_fract_z
O3 O 0.00296(18) 0.86917(17) 0.04183(8)
H23 H 0.0063 0.6828 0.0970
O13 O 0.01013(15) 0.78605(15) 0.27950(7)
O14 O 0.00858(14) 0.78142(15) 0.36427(7)
Co1 Co 0.85412(3) 0.76746(3) 0.26115(2)
Co2 Co 0.85294(3) 0.77248(3) 0.36172(2)
O4 O 0.7568(3) 0.5829(2) 0.00689(9)
O5 O 0.69748(15) 0.75361(15) 0.26070(7)
O6 O 0.69764(15) 0.75648(16) 0.34566(7)
O9 O 0.84311(16) 0.61559(13) 0.34936(7)
O10 O 0.84887(18) 0.61430(14) 0.26453(7)
N2 N 0.8778(2) 0.7277(2) 0.02382(9)
N4 N 0.85680(18) 0.74763(16) 0.18270(8)
C1 C 0.6533(2) 0.75641(19) 0.30099(10)
C2 C 0.8461(2) 0.57052(19) 0.30468(10)
C5 C 0.8564(2) 0.13426(19) 0.28007(10)
H1 H 0.8599 0.0981 0.2478
C9 C 0.3798(2) 0.7649(2) 0.33677(10)
C10 C 0.8531(2) 0.24221(19) 0.28505(10)
C11 C 0.8442(2) 0.2398(2) 0.37743(10)
H3 H 0.8405 0.2745 0.4100
C17 C 0.8445(2) 0.40332(19) 0.33982(10)
H4 H 0.8412 0.4392 0.3722
C18 C 0.8468(2) 0.29579(19) 0.33457(10)
C20 C 0.5401(2) 0.7619(2) 0.29683(10)
C22 C 0.8528(3) 0.4020(2) 0.24833(11)
H6 H 0.8549 0.4378 0.2199
C25 C 0.0545(2) 0.78387(19) 0.32408(10)
C26 C 0.9476(3) 0.8073(2) 0.00966(11)
C27 C 0.1673(2) 0.78110(19) 0.32884(10)
C28 C 0.3272(2) 0.7793(2) 0.28912(10)
C29 C 0.2195(2) 0.7674(3) 0.37626(11)
H8 H 0.1833 0.7637 0.4051
C30 C 0.8694(3) 0.7302(2) 0.07821(11)
C31 C 0.8470(2) 0.1359(2) 0.37150(11)
H9 H 0.8439 0.0998 0.3998
C33 C 0.2220(2) 0.7872(2) 0.28622(10)
H10 H 0.1876 0.7967 0.2551
C34 C 0.8469(2) 0.45620(19) 0.29773(10)
C35 C 0.8552(3) 0.2983(2) 0.24224(11)
H11 H 0.8582 0.2635 0.2096
C38 C 0.4862(2) 0.7566(2) 0.33928(10)
H13 H 0.5209 0.7472 0.3704
C39 C 0.8545(2) 0.08238(19) 0.32202(10)
C42 C 0.4878(2) 0.7751(2) 0.24900(11)
H14 H 0.5239 0.7780 0.2201
C43 C 0.3845(2) 0.7836(2) 0.24545(11)
H15 H 0.3509 0.7923 0.2140
C44 C 0.9392(3) 0.7167(2) 0.16267(11)
H16 H 0.9929 0.7017 0.1847
C45 C 0.7832(3) 0.7617(3) 0.09807(11)
H17 H 0.7288 0.7777 0.0767
C52 C 0.3224(2) 0.7595(3) 0.37997(11)
H20 H 0.3558 0.7505 0.4114
C53 C 0.7799(2) 0.7689(2) 0.15070(11)
H21 H 0.7216 0.7895 0.1644
C56 C 0.9484(3) 0.7059(3) 0.11012(12)
O15 O 0.85838(15) 0.92241(13) 0.27139(7)
O16 O 0.86098(17) 0.92610(14) 0.35698(7)
N5 N 0.85414(18) 0.78781(16) 0.44021(8)
Cl1 Cl 0.89212(9) 0.45503(5) 0.75856(3)
Cl2 Cl 0.68587(9) 0.48578(7) 0.80517(3)
O1 O 0.88129(17) 0.61029(15) 0.58286(7)
O2 O 0.8654(2) 0.95554(16) 0.61692(8)
N1 N 0.87408(18) 0.78314(17) 0.59994(8)
C3 C 0.87860(19) 0.76642(19) 0.70551(10)
C7 C 0.8856(2) 0.9514(2) 0.72431(10)
C8 C 0.8764(2) 0.6764(2) 0.67015(10)
C12 C 0.8773(2) 0.6847(2) 0.61483(10)
C13 C 0.8814(2) 0.7577(2) 0.75866(10)
C14 C 0.9342(2) 0.8344(2) 0.84852(10)
C15 C 0.8845(2) 0.7421(2) 0.86494(11)
C16 C 0.8802(2) 0.8647(2) 0.68895(10)
C19 C 0.9061(2) 0.8492(2) 0.79520(10)
C21 C 0.8806(2) 0.5826(2) 0.68745(10)
H5 H 0.8878 0.5250 0.6646
C23 C 0.7771(2) 0.7366(2) 0.46202(10)
H7 H 0.7198 0.6998 0.4410
C24 C 0.8723(2) 0.8746(2) 0.63319(10)
C32 C 0.8661(2) 0.7892(2) 0.54572(10)
C37 C 0.8738(2) 0.5734(2) 0.73989(11)
C40 C 0.8623(2) 0.6575(2) 0.77521(10)
C41 C 0.8988(2) 0.9434(2) 0.77715(10)
C46 C 0.7798(2) 0.7365(2) 0.51480(11)
H18 H 0.7246 0.7017 0.5291
C47 C 0.9482(2) 0.8119(2) 0.95356(10)
C48 C 0.8842(3) 0.7359(2) 0.91841(11)
C49 C 0.8198(3) 0.6532(2) 0.93502(11)
C50 C 0.9345(3) 0.8416(3) 0.47079(11)
H19 H 0.9870 0.8792 0.4560
C51 C 0.8372(3) 0.6557(2) 0.82830(11)
C54 C 0.8139(3) 0.6496(3) 0.99037(12)
C55 C 0.7602(3) 0.5786(3) 0.89939(12)
H22 H 0.7141 0.5271 0.9102
C57 C 0.9437(3) 0.8443(3) 0.52381(11)
C58 C 0.7689(3) 0.5799(3) 0.84656(12)
C4 C 0.8584(2) 0.96822(19) 0.31617(10)
Cl3 Cl 0.09882(7) 0.99001(6) 0.86461(3)
C6 C 0.0063(2) 0.8992(2) 0.88361(11)
C36 C 0.0131(2) 0.8894(2) 0.93659(11)
H12 H 0.0609 0.9350 0.9598
H24 H 0.0012 0.8826 0.5441
Cl4 Cl 0.89517(8) 0.05527(5) 0.81852(3)
H2 H 0.8806 0.0154 0.7133
Co3 Co 0.14588(3) 0.23254(3) 0.73885(2)
Co5 Co 0.14706(3) 0.22752(3) 0.63828(2)
O11 O 0.14162(15) 0.07759(13) 0.72861(7)
O12 O 0.13902(17) 0.07390(14) 0.64302(7)
C4_2 C 0.1416(2) 0.03178(19) 0.68383(10)
Cl1_2 Cl 0.10788(9) 0.54497(5) 0.24144(3)
Cl2_2 Cl 0.31413(9) 0.51422(7) 0.19483(3)
O1_2 O 0.11871(17) 0.38971(15) 0.41714(7)
O2_2 O 0.1346(2) 0.04446(16) 0.38308(8)
N1_2 N 0.12592(18) 0.21686(17) 0.40006(8)
N3 N 0.14586(18) 0.21219(16) 0.55979(8)
C3_2 C 0.12140(19) 0.23358(19) 0.29449(10)
C7_2 C 0.1144(2) 0.0486(2) 0.27569(10)
C8_2 C 0.1236(2) 0.3236(2) 0.32985(10)
C12_2 C 0.1227(2) 0.3153(2) 0.38517(10)
C13_2 C 0.1186(2) 0.2423(2) 0.24134(10)
C14_2 C 0.0658(2) 0.1656(2) 0.15148(10)
C15_2 C 0.1155(2) 0.2579(2) 0.13506(11)
C16_2 C 0.1198(2) 0.1353(2) 0.31105(10)
C19_2 C 0.0939(2) 0.1508(2) 0.20480(10)
C21_2 C 0.1194(2) 0.4174(2) 0.31255(10)
H5_2 H 0.1122 0.4750 0.3354
C23_2 C 0.2229(2) 0.2634(2) 0.53798(10)
H7_2 H 0.2802 0.3002 0.5590
C24_2 C 0.1277(2) 0.1254(2) 0.36681(10)
C32_2 C 0.1339(2) 0.2108(2) 0.45428(10)
C37_2 C 0.1262(2) 0.4266(2) 0.26011(11)
C40_2 C 0.1377(2) 0.3425(2) 0.22479(10)
C41_2 C 0.1012(2) 0.0566(2) 0.22285(10)
C46_2 C 0.2202(2) 0.2635(2) 0.48520(11)
H18_2 H 0.2754 0.2983 0.4709
C47_2 C 0.0518(2) 0.1881(2) 0.04644(10)
C48_2 C 0.1158(3) 0.2641(2) 0.08159(11)
C49_2 C 0.1802(3) 0.3468(2) 0.06498(11)
C50_2 C 0.0655(3) 0.1584(3) 0.52921(11)
H19_2 H 0.0130 0.1208 0.5440
C51_2 C 0.1628(3) 0.3443(2) 0.17170(11)
C54_2 C 0.1861(3) 0.3504(3) 0.00963(12)
C55_2 C 0.2398(3) 0.4214(3) 0.10061(12)
H22_2 H 0.2859 0.4729 0.0898
C57_2 C 0.0563(3) 0.1557(3) 0.47619(11)
C58_2 C 0.2311(3) 0.4201(3) 0.15344(12)
O4_2 O 0.2432(3) 0.4171(2) 0.99311(9)
O5_2 O 0.30252(15) 0.24639(15) 0.73930(7)
O6_2 O 0.30236(15) 0.24352(16) 0.65434(7)
O7 O 0.98987(15) 0.21395(15) 0.72050(7)
O8 O 0.99142(14) 0.21858(15) 0.63573(7)
O9_2 O 0.15689(16) 0.38441(13) 0.65064(7)
O10_2 O 0.15113(18) 0.38570(14) 0.73547(7)
N2_2 N 0.1222(2) 0.2723(2) 0.97618(9)
N4_2 N 0.14320(18) 0.25237(16) 0.81730(8)
C1_2 C 0.3467(2) 0.24359(19) 0.69901(10)
C2_2 C 0.1539(2) 0.42948(19) 0.69532(10)
C5_2 C 0.1436(2) 0.86574(19) 0.71993(10)
H1_2 H 0.1401 0.9019 0.7522
C9_2 C 0.6202(2) 0.2351(2) 0.66323(10)
C10_2 C 0.1469(2) 0.75779(19) 0.71495(10)
C11_2 C 0.1558(2) 0.7602(2) 0.62257(10)
H3_2 H 0.1595 0.7255 0.5900
C17_2 C 0.1555(2) 0.59668(19) 0.66018(10)
H4_2 H 0.1588 0.5608 0.6278
C18_2 C 0.1532(2) 0.70421(19) 0.66543(10)
C20_2 C 0.4599(2) 0.2381(2) 0.70317(10)
C22_2 C 0.1472(3) 0.5980(2) 0.75167(11)
H6_2 H 0.1451 0.5622 0.7801
C25_2 C 0.9455(2) 0.21613(19) 0.67592(10)
C26_2 C 0.0524(3) 0.1927(2) 0.99034(11)
C27_2 C 0.8327(2) 0.21890(19) 0.67116(10)
C28_2 C 0.6728(2) 0.2207(2) 0.71088(10)
C29_2 C 0.7805(2) 0.2326(3) 0.62374(11)
H8_2 H 0.8167 0.2363 0.5949
C30_2 C 0.1306(3) 0.2698(2) 0.92179(11)
C31_2 C 0.1530(2) 0.8641(2) 0.62850(11)
H9_2 H 0.1561 0.9002 0.6002
C33_2 C 0.7780(2) 0.2128(2) 0.71378(10)
H10_2 H 0.8124 0.2033 0.7449
C34_2 C 0.1531(2) 0.54380(19) 0.70227(10)
C35_2 C 0.1448(3) 0.7017(2) 0.75776(11)
H11_2 H 0.1418 0.7365 0.7904
C38_2 C 0.5138(2) 0.2434(2) 0.66072(10)
H13_2 H 0.4791 0.2528 0.6296
C39_2 C 0.1455(2) 0.91762(19) 0.67798(10)
C42_2 C 0.5122(2) 0.2249(2) 0.75100(11)
H14_2 H 0.4761 0.2220 0.7799
C43_2 C 0.6155(2) 0.2164(2) 0.75455(11)
H15_2 H 0.6491 0.2077 0.7860
C44_2 C 0.0608(3) 0.2833(2) 0.83733(11)
H16_2 H 0.0071 0.2983 0.8153
C45_2 C 0.2168(3) 0.2383(3) 0.90193(11)
H17_2 H 0.2712 0.2223 0.9233
C52_2 C 0.6776(2) 0.2405(3) 0.62003(11)
H20_2 H 0.6442 0.2495 0.5886
C53_2 C 0.2201(2) 0.2311(2) 0.84930(11)
H21_2 H 0.2784 0.2105 0.8356
C56_2 C 0.0516(3) 0.2941(3) 0.88988(12)
O3_2 O 0.99704(18) 0.13083(17) 0.95817(8)
H23_2 H 0.9937 0.3172 0.9030
Cl4_2 Cl 0.10483(8) 0.94473(5) 0.18148(3)
H2_2 H 0.1194 0.9846 0.2867
Cl3_2 Cl 0.90118(7) 0.00999(6) 0.13539(3)
C6_2 C 0.9937(2) 0.1008(2) 0.11639(11)
C36_2 C 0.9869(2) 0.1106(2) 0.06341(11)
H12_2 H 0.9391 0.0650 0.0402
H24_2 H 0.9988 0.1174 0.4559
loop_
_geom_bond_atom_site_label_1
_geom_bond_atom_site_label_2
_geom_bond_site_symmetry_1
_geom_bond_site_symmetry_2
Co1 O5 1_555 1_555
Co2 O6 1_555 1_555
O5 C1 1_555 1_555
O6 C1 1_555 1_555
O13 C25 1_555 1_555
O14 C25 1_555 1_555
O9 Co2 1_555 1_555
O10 Co1 1_555 1_555
N2 C26 1_555 1_555
N4 Co1 1_555 1_555
C1 C20 1_555 1_555
C2 O9 1_555 1_555
C5 H1 1_555 1_555
C9 C28 1_555 1_555
C10 C5 1_555 1_555
C11 H3 1_555 1_555
C17 H4 1_555 1_555
C18 C10 1_555 1_555
C20 C38 1_555 1_555
C22 H6 1_555 1_555
C25 C27 1_555 1_555
C27 C29 1_555 1_555
C28 C33 1_555 1_555
C29 H8 1_555 1_555
C30 N2 1_555 1_555
C31 C11 1_555 1_555
H9 C31 1_555 1_555
C33 C27 1_555 1_555
H10 C33 1_555 1_555
C34 C2 1_555 1_555
C35 C10 1_555 1_555
H11 C35 1_555 1_555
C38 C9 1_555 1_555
H13 C38 1_555 1_555
C39 C5 1_555 1_555
C42 C20 1_555 1_555
H14 C42 1_555 1_555
C43 C28 1_555 1_555
H15 C43 1_555 1_555
C44 N4 1_555 1_555
H16 C44 1_555 1_555
C45 C30 1_555 1_555
H17 C45 1_555 1_555
C52 C9 1_555 1_555
H20 C52 1_555 1_555
C53 N4 1_555 1_555
H21 C53 1_555 1_555
C56 C30 1_555 1_555
O15 Co1 1_555 1_555
O16 Co2 1_555 1_555
N5 Co2 1_555 1_555
O10 C2 1_555 1_555
C11 C18 1_555 1_555
C17 C18 1_555 1_555
C17 C34 1_555 1_555
C22 C34 1_555 1_555
C22 C35 1_555 1_555
C29 C52 1_555 1_555
C31 C39 1_555 1_555
C42 C43 1_555 1_555
C44 C56 1_555 1_555
C45 C53 1_555 1_555
Cl1 C37 1_555 1_555
Cl2 C58 1_555 1_555
O1 C12 1_555 1_555
O2 C24 1_555 1_555
N1 C12 1_555 1_555
N5 C23 1_555 1_555
C3 C8 1_555 1_555
C8 C12 1_555 1_555
C13 C3 1_555 1_555
C14 C15 1_555 1_555
C15 C48 1_555 1_555
C16 C3 1_555 1_555
C19 C13 1_555 1_555
C21 C8 1_555 1_555
H5 C21 1_555 1_555
C23 H7 1_555 1_555
C24 N1 1_555 1_555
C32 N1 1_555 1_555
C37 C21 1_555 1_555
C40 C13 1_555 1_555
C41 C7 1_555 1_555
C46 C23 1_555 1_555
H18 C46 1_555 1_555
C48 C47 1_555 1_555
C49 C48 1_555 1_555
C50 N5 1_555 1_555
H19 C50 1_555 1_555
C51 C15 1_555 1_555
C55 C49 1_555 1_555
H22 C55 1_555 1_555
C57 C32 1_555 1_555
C58 C51 1_555 1_555
C7 C16 1_555 1_555
C14 C19 1_555 1_555
C16 C24 1_555 1_555
C19 C41 1_555 1_555
C32 C46 1_555 1_555
C37 C40 1_555 1_555
C40 C51 1_555 1_555
C49 C54 1_555 1_555
C50 C57 1_555 1_555
C55 C58 1_555 1_555
O15 C4 1_555 1_555
O16 C4 1_555 1_555
Cl3 C6 1_555 1_555
C36 C6 1_555 1_555
H12 C36 1_555 1_555
O11 C4_2 1_555 1_555
O12 C4_2 1_555 1_555
Co3 O11 1_555 1_555
Co5 O12 1_555 1_555
Cl1_2 C37_2 1_555 1_555
Cl2_2 C58_2 1_555 1_555
O1_2 C12_2 1_555 1_555
O2_2 C24_2 1_555 1_555
N1_2 C12_2 1_555 1_555
N3 C23_2 1_555 1_555
C3_2 C8_2 1_555 1_555
C8_2 C12_2 1_555 1_555
C13_2 C3_2 1_555 1_555
C14_2 C15_2 1_555 1_555
C15_2 C48_2 1_555 1_555
C16_2 C3_2 1_555 1_555
C19_2 C13_2 1_555 1_555
C21_2 C8_2 1_555 1_555
H5_2 C21_2 1_555 1_555
C23_2 H7_2 1_555 1_555
C24_2 N1_2 1_555 1_555
C32_2 N1_2 1_555 1_555
C37_2 C21_2 1_555 1_555
C40_2 C13_2 1_555 1_555
C41_2 C7_2 1_555 1_555
C46_2 C23_2 1_555 1_555
H18_2 C46_2 1_555 1_555
C48_2 C47_2 1_555 1_555
C49_2 C48_2 1_555 1_555
C50_2 N3 1_555 1_555
H19_2 C50_2 1_555 1_555
C51_2 C15_2 1_555 1_555
C55_2 C49_2 1_555 1_555
H22_2 C55_2 1_555 1_555
C57_2 C32_2 1_555 1_555
C58_2 C51_2 1_555 1_555
Co5 N3 1_555 1_555
C7_2 C16_2 1_555 1_555
C14_2 C19_2 1_555 1_555
C16_2 C24_2 1_555 1_555
C19_2 C41_2 1_555 1_555
C32_2 C46_2 1_555 1_555
C37_2 C40_2 1_555 1_555
C40_2 C51_2 1_555 1_555
C49_2 C54_2 1_555 1_555
C50_2 C57_2 1_555 1_555
C55_2 C58_2 1_555 1_555
Co3 O5_2 1_555 1_555
Co5 O6_2 1_555 1_555
O5_2 C1_2 1_555 1_555
O6_2 C1_2 1_555 1_555
O7 C25_2 1_555 1_555
O8 C25_2 1_555 1_555
O9_2 Co5 1_555 1_555
O10_2 Co3 1_555 1_555
N2_2 C26_2 1_555 1_555
N4_2 Co3 1_555 1_555
C1_2 C20_2 1_555 1_555
C2_2 O9_2 1_555 1_555
C5_2 H1_2 1_555 1_555
C9_2 C28_2 1_555 1_555
C10_2 C5_2 1_555 1_555
C11_2 H3_2 1_555 1_555
C17_2 H4_2 1_555 1_555
C18_2 C10_2 1_555 1_555
C20_2 C38_2 1_555 1_555
C22_2 H6_2 1_555 1_555
C25_2 C27_2 1_555 1_555
C27_2 C29_2 1_555 1_555
C28_2 C33_2 1_555 1_555
C29_2 H8_2 1_555 1_555
C30_2 N2_2 1_555 1_555
C31_2 C11_2 1_555 1_555
H9_2 C31_2 1_555 1_555
C33_2 C27_2 1_555 1_555
H10_2 C33_2 1_555 1_555
C34_2 C2_2 1_555 1_555
C35_2 C10_2 1_555 1_555
H11_2 C35_2 1_555 1_555
C38_2 C9_2 1_555 1_555
H13_2 C38_2 1_555 1_555
C39_2 C5_2 1_555 1_555
C42_2 C20_2 1_555 1_555
H14_2 C42_2 1_555 1_555
C43_2 C28_2 1_555 1_555
H15_2 C43_2 1_555 1_555
C44_2 N4_2 1_555 1_555
H16_2 C44_2 1_555 1_555
C45_2 C30_2 1_555 1_555
H17_2 C45_2 1_555 1_555
C52_2 C9_2 1_555 1_555
H20_2 C52_2 1_555 1_555
C53_2 N4_2 1_555 1_555
H21_2 C53_2 1_555 1_555
C56_2 C30_2 1_555 1_555
O10_2 C2_2 1_555 1_555
C11_2 C18_2 1_555 1_555
C17_2 C18_2 1_555 1_555
C17_2 C34_2 1_555 1_555
C22_2 C34_2 1_555 1_555
C22_2 C35_2 1_555 1_555
C29_2 C52_2 1_555 1_555
C31_2 C39_2 1_555 1_555
C42_2 C43_2 1_555 1_555
C44_2 C56_2 1_555 1_555
C45_2 C53_2 1_555 1_555
Cl3_2 C6_2 1_555 1_555
C36_2 C6_2 1_555 1_555
H12_2 C36_2 1_555 1_555

#END
