
###############################################################################
#
# This file contains modified crystal structure data generated from the
# MOF subset of the Cambridge Structural Database (CSD) v543 
# hosted by the Cambridge Crystallographic Data Centre (CCDC).
#
# This work is licensed under the Creative Commons
# Attribution-NonCommercial-ShareAlike 4.0 International License.
# To view a copy of this license, visit
# http://creativecommons.org/licenses/by-nc-sa/4.0/
# or send a letter to
# Creative Commons, PO Box 1866, Mountain View, CA 94042, USA.
#
# CIF created using the CSD Python API on 29 September 2022
# The structure has been converted into the P1 space group
# The structure has a 3D framework
# The original CSD entry UHIYAN is in the monoclinic crystal system
# The framework has been calculated to contain at least 10.0% void space
# The void calculation uses a probe of radius 1.32A, grid spacing 0.4
#
###############################################################################

data_UHIYAN
_chemical_formula_moiety         '(C40 H40 Cu4 N8 O14)n'
_symmetry_cell_setting           triclinic
_symmetry_space_group_name_H-M   'P 1'
_symmetry_Int_Tables_number      1
_space_group_name_Hall           'P 1'
loop_
_symmetry_equiv_pos_site_id
_symmetry_equiv_pos_as_xyz
1 x,y,z
_cell_length_a                   18.0564(13)
_cell_length_b                   9.2594(7)
_cell_length_c                   8.2426(6)
_cell_angle_alpha                90
_cell_angle_beta                 100.0290(10)
_cell_angle_gamma                90
_cell_volume                     1357.03
loop_
_atom_site_label
_atom_site_type_symbol
_atom_site_fract_x
_atom_site_fract_y
_atom_site_fract_z
O2 O 0.54629(8) 0.12548(15) 0.13955(17)
H2 H 0.2360 0.0842 0.1348
H4 H 0.1372 0.0022 0.3311
C5 C 0.00537(12) 0.0428(3) 0.1675(3)
H5 H 0.0193 0.1153 0.2557
H8 H 0.3495 0.0096 0.0732
C9 C 0.51088(11) 0.0132(2) 0.0945(3)
Cu3 Cu 0.557853(13) 0.23826(3) 0.40784(3)
O5 O 0.50922(8) 0.08155(14) 0.81186(17)
H16 H 0.0170 0.0413 0.7847
Cu5 Cu 0.557853(13) 0.26174(3) 0.90784(3)
Cu1 Cu 0.442147(13) 0.73826(3) 0.09216(3)
O1 O 0.49078(8) 0.91845(14) 0.18814(17)
O3 O 0.54404(8) 0.65859(15) 0.07704(18)
O4 O 0.59369(8) 0.45278(15) 0.00445(17)
N1 N 0.33921(10) 0.80137(19) 0.1182(2)
N2 N 0.07329(10) 0.9966(2) 0.1044(2)
C1 C 0.19988(12) 0.8856(2) 0.1915(3)
C2 C 0.22217(13) 0.7422(2) 0.1991(3)
H1 H 0.1898 0.6698 0.2292
C3 C 0.24911(12) 0.9848(2) 0.1432(3)
C4 C 0.12646(12) 0.9316(3) 0.2399(3)
H3 H 0.1025 0.8463 0.2814
C6 C 0.29146(13) 0.7044(2) 0.1629(3)
H7 H 0.3059 0.6056 0.1699
C7 C 0.31693(12) 0.9396(2) 0.1073(3)
H9 H 0.0304 0.8054 0.0132
C10 C 0.53962(11) 0.5313(2) 0.0237(2)
O11 O 0.45371(8) 0.62548(15) 0.36045(17)
C8 C 0.05186(12) 0.8927(2) 0.9699(3)
H10 H 0.0972 0.8634 0.9256
O6 O 0.45371(8) 0.87452(15) 0.86045(17)
C11 C 0.48912(11) 0.9868(2) 0.9055(3)
O7 O 0.45596(8) 0.34141(15) 0.92296(18)
O8 O 0.40631(8) 0.54722(15) 0.99555(17)
C12 C 0.46038(11) 0.4687(2) 0.9763(2)
Cu6 Cu 0.442147(13) 0.76174(3) 0.59216(3)
C20 C 0.94814(12) 0.1073(2) 0.0301(3)
H20 H 0.9028 0.1366 0.0744
N3 N 0.66079(10) 0.19863(19) 0.8818(2)
N4 N 0.92671(10) 0.0034(2) 0.8956(2)
C13 C 0.80012(12) 0.1144(2) 0.8085(3)
C14 C 0.77783(13) 0.2578(2) 0.8009(3)
H11 H 0.8102 0.3302 0.7708
C15 C 0.75089(12) 0.0152(2) 0.8568(3)
C16 C 0.87354(12) 0.0684(3) 0.7601(3)
H13 H 0.8975 0.1537 0.7186
C18 C 0.70854(13) 0.2956(2) 0.8371(3)
H17 H 0.6941 0.3944 0.8301
C19 C 0.68307(12) 0.0604(2) 0.8927(3)
H19 H 0.9696 0.1946 0.9868
O12 O 0.54629(8) 0.37452(15) 0.63955(17)
H6 H 0.9830 0.9587 0.2153
H12 H 0.7640 0.9158 0.8652
H14 H 0.8628 0.9978 0.6689
C17 C 0.99463(12) 0.9572(3) 0.8325(3)
H15 H 0.9807 0.8847 0.7443
H18 H 0.6505 0.9904 0.9268
H6_2 H 0.0170 0.4587 0.2847
N3_2 N 0.33921(10) 0.69863(19) 0.6182(2)
N4_2 N 0.07329(10) 0.5034(2) 0.6044(2)
C13_2 C 0.19988(12) 0.6144(2) 0.6915(3)
C14_2 C 0.22217(13) 0.7578(2) 0.6991(3)
H11_2 H 0.1898 0.8302 0.7292
C15_2 C 0.24911(12) 0.5152(2) 0.6432(3)
H12_2 H 0.2360 0.4158 0.6348
C16_2 C 0.12646(12) 0.5684(3) 0.7399(3)
H13_2 H 0.1025 0.6537 0.7814
H14_2 H 0.1372 0.4978 0.8311
C17_2 C 0.00537(12) 0.4572(3) 0.6675(3)
H15_2 H 0.0193 0.3847 0.7557
C18_2 C 0.29146(13) 0.7956(2) 0.6629(3)
H17_2 H 0.3059 0.8944 0.6699
C19_2 C 0.31693(12) 0.5604(2) 0.6073(3)
H18_2 H 0.3495 0.4904 0.5732
C20_2 C 0.05186(12) 0.6073(2) 0.4699(3)
H19_2 H 0.0304 0.6946 0.5132
H20_2 H 0.0972 0.6366 0.4256
O9 O 0.49078(8) 0.58155(14) 0.68814(17)
O13 O 0.54404(8) 0.84141(15) 0.57704(18)
O14 O 0.40631(8) 0.95278(15) 0.49555(17)
O1_2 O 0.50922(8) 0.41845(14) 0.31186(17)
O3_2 O 0.45596(8) 0.15859(15) 0.42296(18)
N1_2 N 0.66079(10) 0.30137(19) 0.3818(2)
N2_2 N 0.92671(10) 0.4966(2) 0.3956(2)
C1_2 C 0.80012(12) 0.3856(2) 0.3085(3)
C2_2 C 0.77783(13) 0.2422(2) 0.3009(3)
H1_2 H 0.8102 0.1698 0.2708
C3_2 C 0.75089(12) 0.4848(2) 0.3568(3)
H2_2 H 0.7640 0.5842 0.3652
C4_2 C 0.87354(12) 0.4316(3) 0.2601(3)
H3_2 H 0.8975 0.3463 0.2186
H4_2 H 0.8628 0.5022 0.1689
C5_2 C 0.99463(12) 0.5428(3) 0.3325(3)
H5_2 H 0.9807 0.6153 0.2443
C6_2 C 0.70854(13) 0.2044(2) 0.3371(3)
H7_2 H 0.6941 0.1056 0.3301
C7_2 C 0.68307(12) 0.4396(2) 0.3927(3)
H8_2 H 0.6505 0.5096 0.4268
C8_2 C 0.94814(12) 0.3927(2) 0.5301(3)
H9_2 H 0.9696 0.3054 0.4868
H10_2 H 0.9028 0.3634 0.5744
C9_2 C 0.48912(11) 0.5132(2) 0.4055(3)
C10_2 C 0.46038(11) 0.0313(2) 0.4763(2)
C11_2 C 0.51088(11) 0.4868(2) 0.5945(3)
O8_2 O 0.59369(8) 0.04722(15) 0.50445(17)
H16_2 H 0.9830 0.5413 0.7153
C12_2 C 0.53962(11) 0.9687(2) 0.5237(2)
loop_
_geom_bond_atom_site_label_1
_geom_bond_atom_site_label_2
_geom_bond_site_symmetry_1
_geom_bond_site_symmetry_2
O2 C9 1_555 1_555
H5 C5 1_555 1_555
Cu3 O2 1_555 1_555
O5 Cu5 1_555 1_555
Cu1 O1 1_555 1_555
O3 Cu1 1_555 1_555
O4 C10 1_555 1_555
N1 Cu1 1_555 1_555
N2 C4 1_555 1_555
C1 C2 1_555 1_555
C2 H1 1_555 1_555
C3 C1 1_555 1_555
C4 C1 1_555 1_555
H3 C4 1_555 1_555
C6 N1 1_555 1_555
H7 C6 1_555 1_555
C7 N1 1_555 1_555
C10 O3 1_555 1_555
O11 Cu1 1_555 1_555
C2 C6 1_555 1_555
C3 C7 1_555 1_555
H10 C8 1_555 1_555
C11 O6 1_555 1_555
O7 C12 1_555 1_555
Cu6 O6 1_555 1_555
O7 Cu5 1_555 1_555
O8 C12 1_555 1_555
H20 C20 1_555 1_555
N3 C18 1_555 1_555
N4 C16 1_555 1_555
C13 C14 1_555 1_555
C14 H11 1_555 1_555
C15 C13 1_555 1_555
C16 C13 1_555 1_555
H13 C16 1_555 1_555
C18 C14 1_555 1_555
H17 C18 1_555 1_555
C19 N3 1_555 1_555
Cu5 N3 1_555 1_555
O12 Cu5 1_555 1_555
C15 C19 1_555 1_555
H15 C17 1_555 1_555
N3_2 C18_2 1_555 1_555
N4_2 C16_2 1_555 1_555
C13_2 C14_2 1_555 1_555
C14_2 H11_2 1_555 1_555
C15_2 C13_2 1_555 1_555
H12_2 C15_2 1_555 1_555
C16_2 C13_2 1_555 1_555
H13_2 C16_2 1_555 1_555
H14_2 C16_2 1_555 1_555
H15_2 C17_2 1_555 1_555
C18_2 C14_2 1_555 1_555
H17_2 C18_2 1_555 1_555
C19_2 N3_2 1_555 1_555
H18_2 C19_2 1_555 1_555
H19_2 C20_2 1_555 1_555
H20_2 C20_2 1_555 1_555
Cu6 N3_2 1_555 1_555
O9 Cu6 1_555 1_555
O11 Cu6 1_555 1_555
O13 Cu6 1_555 1_555
O14 Cu6 1_555 1_555
N4_2 C17_2 1_555 1_555
N4_2 C20_2 1_555 1_555
C15_2 C19_2 1_555 1_555
Cu3 O1_2 1_555 1_555
O1_2 C9_2 1_555 1_555
O11 C9_2 1_555 1_555
O3_2 Cu3 1_555 1_555
N1_2 Cu3 1_555 1_555
N2_2 C4_2 1_555 1_555
C1_2 C2_2 1_555 1_555
C2_2 H1_2 1_555 1_555
C3_2 C1_2 1_555 1_555
H2_2 C3_2 1_555 1_555
C4_2 C1_2 1_555 1_555
H3_2 C4_2 1_555 1_555
H4_2 C4_2 1_555 1_555
C5_2 N2_2 1_555 1_555
H5_2 C5_2 1_555 1_555
C6_2 N1_2 1_555 1_555
H7_2 C6_2 1_555 1_555
C7_2 N1_2 1_555 1_555
H8_2 C7_2 1_555 1_555
C8_2 N2_2 1_555 1_555
H9_2 C8_2 1_555 1_555
H10_2 C8_2 1_555 1_555
C9_2 C11_2 1_555 1_555
C10_2 O3_2 1_555 1_555
O9 C11_2 1_555 1_555
O12 Cu3 1_555 1_555
C11_2 O12 1_555 1_555
O8_2 Cu3 1_555 1_555
C2_2 C6_2 1_555 1_555
C3_2 C7_2 1_555 1_555
O13 C12_2 1_555 1_555

#END
