
###############################################################################
#
# This file contains modified crystal structure data generated from the
# MOF subset of the Cambridge Structural Database (CSD) v543 
# hosted by the Cambridge Crystallographic Data Centre (CCDC).
#
# This work is licensed under the Creative Commons
# Attribution-NonCommercial-ShareAlike 4.0 International License.
# To view a copy of this license, visit
# http://creativecommons.org/licenses/by-nc-sa/4.0/
# or send a letter to
# Creative Commons, PO Box 1866, Mountain View, CA 94042, USA.
#
# CIF created using the CSD Python API on 29 September 2022
# The structure has been converted into the P1 space group
# The structure has a 3D framework
# The original CSD entry UHOGIK is in the triclinic crystal system
# The framework has been calculated to contain at least 10.0% void space
# The void calculation uses a probe of radius 1.32A, grid spacing 0.4
#
###############################################################################

data_UHOGIK
_chemical_formula_moiety         '(C60 H32 Cu4 N8 O16 S4)n'
_symmetry_cell_setting           triclinic
_symmetry_space_group_name_H-M   'P 1'
_symmetry_Int_Tables_number      1
_space_group_name_Hall           'P 1'
loop_
_symmetry_equiv_pos_site_id
_symmetry_equiv_pos_as_xyz
1 x,y,z
_cell_length_a                   10.7563(2)
_cell_length_b                   12.0136(3)
_cell_length_c                   19.89230(10)
_cell_angle_alpha                92.467(3)
_cell_angle_beta                 92.9450(10)
_cell_angle_gamma                106.9230(10)
_cell_volume                     2451.43
loop_
_atom_site_label
_atom_site_type_symbol
_atom_site_fract_x
_atom_site_fract_y
_atom_site_fract_z
Cu4 Cu 0.17316(4) 0.72879(4) 0.37543(2)
Cu7 Cu 0.14748(4) 0.70920(4) 0.22691(2)
N1 N 0.1498(3) 0.7067(3) 0.12411(14)
C27 C 0.1631(6) 0.6110(5) 0.0879(2)
H13 H 0.167186 0.546040 0.110669
C28 C 0.1704(7) 0.6084(5) 0.0191(2)
C29 C 0.1496(9) 0.8130(8) 0.0222(3)
H15 H 0.147381 0.879550 0.000483
C30 C 0.1418(9) 0.8070(7) 0.0910(3)
H16 H 0.131094 0.870115 0.116325
S1 S 0.15990(12) 0.57301(12) 0.86093(5)
S2 S 0.18506(12) 0.87679(12) 0.74204(5)
O1 O 0.1335(3) 0.5247(2) 0.24359(13)
O2 O 0.9567(2) 0.6769(3) 0.24161(13)
O3 O 0.1527(3) 0.5391(2) 0.35629(13)
O5 O 0.9789(2) 0.6894(3) 0.35393(13)
O7 O 0.3424(3) 0.7432(3) 0.24600(14)
O8 O 0.3619(3) 0.7624(3) 0.35822(14)
N2 N 0.1795(3) 0.7344(3) 0.47832(14)
N3 N 0.1716(3) 0.6335(4) 0.72459(15)
C1 C 0.1477(3) 0.3435(3) 0.30002(18)
N4 N 0.1737(4) 0.8159(4) 0.87904(17)
C2 C 0.5379(3) 0.7356(4) 0.30034(19)
C3 C 0.1437(3) 0.4792(3) 0.29977(18)
C4 C 0.4041(3) 0.7482(3) 0.30150(19)
C5 C 0.1440(4) 0.2838(3) 0.35989(19)
H1 H 0.137710 0.323507 0.400152
C6 C 0.9158(3) 0.6875(3) 0.29915(18)
C7 C 0.1608(3) 0.0913(3) 0.30335(18)
C8 C 0.1801(4) 0.7379(4) 0.69249(18)
C9 C 0.1495(4) 0.1592(3) 0.36301(19)
H2 H 0.145497 0.125877 0.404482
C10 C 0.1637(4) 0.1503(3) 0.24252(19)
H3 H 0.169436 0.110175 0.202314
C11 C 0.1578(4) 0.2754(3) 0.23955(19)
H4 H 0.160704 0.308786 0.198105
C12 C 0.7830(3) 0.7018(3) 0.30168(19)
C13 C 0.1808(4) 0.7386(4) 0.61834(18)
C14 C 0.1548(4) 0.6242(4) 0.58000(19)
H5 H 0.139311 0.554828 0.601636
C16 C 0.1763(4) 0.7872(5) 0.81163(19)
C17 C 0.2064(5) 0.8451(4) 0.51529(19)
H6 H 0.223419 0.913129 0.492242
C18 C 0.6222(4) 0.7701(4) 0.3583(2)
H7 H 0.595812 0.803736 0.395860
C19 C 0.1698(4) 0.6641(5) 0.79160(19)
C20 C 0.1549(4) 0.6263(4) 0.51097(19)
H8 H 0.138807 0.556719 0.484974
C21 C 0.5760(4) 0.6816(6) 0.2434(2)
H9 H 0.519404 0.657181 0.205170
C22 C 0.1619(4) 0.7078(5) 0.9845(2)
C23 C 0.7445(4) 0.7543(4) 0.3599(2)
H10 H 0.801075 0.777495 0.398249
C24 C 0.1667(4) 0.7119(5) 0.9107(2)
C25 C 0.6974(4) 0.6658(5) 0.2454(2)
H11 H 0.722537 0.630120 0.208183
C26 C 0.2073(5) 0.8513(4) 0.5849(2)
H12 H 0.223516 0.922106 0.609663
H14 H 0.180597 0.543320 0.995580
O10 O 0.1831(3) 0.9138(2) 0.36072(13)
O12 O 0.1652(3) 0.8969(2) 0.24841(13)
C15 C 0.1709(3) 0.9575(3) 0.30425(18)
O9 O 0.0433(2) 0.3231(3) 0.75839(13)
O11 O 0.0211(2) 0.3106(3) 0.64607(13)
O4 O 0.8169(3) 0.0862(2) 0.63928(13)
O6 O 0.8348(3) 0.1031(2) 0.75159(13)
C15_2 C 0.8291(3) 0.0425(3) 0.69575(18)
Cu3 Cu 0.82684(4) 0.27121(4) 0.62457(2)
Cu5 Cu 0.85252(4) 0.29080(4) 0.77309(2)
S1_2 S 0.84010(12) 0.42699(12) 0.13907(5)
S2_2 S 0.81494(12) 0.12321(12) 0.25796(5)
O1_2 O 0.8665(3) 0.4753(2) 0.75641(13)
O3_2 O 0.8473(3) 0.4609(2) 0.64371(13)
O7_2 O 0.6576(3) 0.2568(3) 0.75400(14)
O8_2 O 0.6381(3) 0.2376(3) 0.64178(14)
N2_2 N 0.8205(3) 0.2656(3) 0.52168(14)
N3_2 N 0.8284(3) 0.3665(4) 0.27541(15)
C1_2 C 0.8523(3) 0.6565(3) 0.69998(18)
N4_2 N 0.8263(4) 0.1841(4) 0.12096(17)
C2_2 C 0.4621(3) 0.2644(4) 0.69966(19)
C3_2 C 0.8563(3) 0.5208(3) 0.70023(18)
C4_2 C 0.5959(3) 0.2518(3) 0.69850(19)
C5_2 C 0.8560(4) 0.7162(3) 0.64011(19)
H1_2 H 0.862290 0.676493 0.599848
C6_2 C 0.0842(3) 0.3125(3) 0.70085(18)
C7_2 C 0.8392(3) 0.9087(3) 0.69665(18)
C8_2 C 0.8199(4) 0.2621(4) 0.30751(18)
C9_2 C 0.8505(4) 0.8408(3) 0.63699(19)
H2_2 H 0.854503 0.874123 0.595518
C10_2 C 0.8363(4) 0.8497(3) 0.75748(19)
H3_2 H 0.830564 0.889825 0.797686
C11_2 C 0.8422(4) 0.7246(3) 0.76045(19)
H4_2 H 0.839296 0.691214 0.801895
C12_2 C 0.2170(3) 0.2982(3) 0.69832(19)
C13_2 C 0.8192(4) 0.2614(4) 0.38166(18)
C14_2 C 0.8452(4) 0.3758(4) 0.42000(19)
H5_2 H 0.860689 0.445172 0.398364
C16_2 C 0.8237(4) 0.2128(5) 0.18837(19)
C17_2 C 0.7936(5) 0.1549(4) 0.48471(19)
H6_2 H 0.776581 0.086871 0.507758
C18_2 C 0.3778(4) 0.2299(4) 0.6417(2)
H7_2 H 0.404188 0.196264 0.604140
C19_2 C 0.8302(4) 0.3359(5) 0.20840(19)
C20_2 C 0.8451(4) 0.3737(4) 0.48903(19)
H8_2 H 0.861193 0.443281 0.515026
C21_2 C 0.4240(4) 0.3184(6) 0.7566(2)
H9_2 H 0.480596 0.342819 0.794830
C22_2 C 0.8381(4) 0.2922(5) 0.0155(2)
C23_2 C 0.2555(4) 0.2457(4) 0.6401(2)
H10_2 H 0.198925 0.222505 0.601751
C24_2 C 0.8333(4) 0.2881(5) 0.0893(2)
C25_2 C 0.3026(4) 0.3342(5) 0.7546(2)
H11_2 H 0.277463 0.369880 0.791817
C26_2 C 0.7927(5) 0.1487(4) 0.4151(2)
H12_2 H 0.776484 0.077894 0.390337
H14_2 H 0.819403 0.456680 0.004420
N5 N 0.8502(3) 0.2933(3) 0.87589(14)
C27_2 C 0.8369(6) 0.3890(5) 0.9121(2)
H13_2 H 0.832814 0.453960 0.889331
C28_2 C 0.8296(7) 0.3916(5) 0.9809(2)
C29_2 C 0.8504(9) 0.1870(8) 0.9778(3)
H15_2 H 0.852619 0.120450 0.999517
C30_2 C 0.8582(9) 0.1930(7) 0.9090(3)
H16_2 H 0.868906 0.129885 0.883675
loop_
_geom_bond_atom_site_label_1
_geom_bond_atom_site_label_2
_geom_bond_site_symmetry_1
_geom_bond_site_symmetry_2
N1 C27 1_555 1_555
C27 H13 1_555 1_555
H15 C29 1_555 1_555
C30 N1 1_555 1_555
H16 C30 1_555 1_555
Cu7 N1 1_555 1_555
C27 C28 1_555 1_555
C29 C30 1_555 1_555
Cu4 O3 1_555 1_555
Cu7 O1 1_555 1_555
S1 C19 1_555 1_555
S2 C8 1_555 1_555
O1 C3 1_555 1_555
O2 C6 1_555 1_555
O3 C3 1_555 1_555
O5 C6 1_555 1_555
O7 Cu7 1_555 1_555
O8 Cu4 1_555 1_555
N2 Cu4 1_555 1_555
N3 C8 1_555 1_555
C1 C3 1_555 1_555
N4 C16 1_555 1_555
C2 C4 1_555 1_555
C4 O7 1_555 1_555
C5 C1 1_555 1_555
H1 C5 1_555 1_555
C6 C12 1_555 1_555
C7 C9 1_555 1_555
C8 C13 1_555 1_555
C9 C5 1_555 1_555
H2 C9 1_555 1_555
C10 C7 1_555 1_555
H3 C10 1_555 1_555
C11 C1 1_555 1_555
H4 C11 1_555 1_555
C12 C23 1_555 1_555
C13 C14 1_555 1_555
C14 H5 1_555 1_555
C16 S2 1_555 1_555
C17 N2 1_555 1_555
H6 C17 1_555 1_555
C18 C2 1_555 1_555
H7 C18 1_555 1_555
C19 N3 1_555 1_555
C20 N2 1_555 1_555
H8 C20 1_555 1_555
C21 C2 1_555 1_555
H9 C21 1_555 1_555
C22 C24 1_555 1_555
C23 C18 1_555 1_555
H10 C23 1_555 1_555
C24 S1 1_555 1_555
C25 C12 1_555 1_555
H11 C25 1_555 1_555
C26 C13 1_555 1_555
H12 C26 1_555 1_555
O10 Cu4 1_555 1_555
O12 Cu7 1_555 1_555
O8 C4 1_555 1_555
N4 C24 1_555 1_555
C10 C11 1_555 1_555
C14 C20 1_555 1_555
C16 C19 1_555 1_555
C17 C26 1_555 1_555
C21 C25 1_555 1_555
O10 C15 1_555 1_555
O12 C15 1_555 1_555
O4 C15_2 1_555 1_555
O6 C15_2 1_555 1_555
Cu3 O4 1_555 1_555
Cu5 O6 1_555 1_555
Cu3 O3_2 1_555 1_555
Cu5 O1_2 1_555 1_555
S1_2 C19_2 1_555 1_555
S2_2 C8_2 1_555 1_555
O1_2 C3_2 1_555 1_555
O9 C6_2 1_555 1_555
O3_2 C3_2 1_555 1_555
O11 C6_2 1_555 1_555
O7_2 Cu5 1_555 1_555
O8_2 Cu3 1_555 1_555
N2_2 Cu3 1_555 1_555
N3_2 C8_2 1_555 1_555
C1_2 C3_2 1_555 1_555
N4_2 C16_2 1_555 1_555
C2_2 C4_2 1_555 1_555
C4_2 O7_2 1_555 1_555
C5_2 C1_2 1_555 1_555
H1_2 C5_2 1_555 1_555
C6_2 C12_2 1_555 1_555
C7_2 C9_2 1_555 1_555
C8_2 C13_2 1_555 1_555
C9_2 C5_2 1_555 1_555
H2_2 C9_2 1_555 1_555
C10_2 C7_2 1_555 1_555
H3_2 C10_2 1_555 1_555
C11_2 C1_2 1_555 1_555
H4_2 C11_2 1_555 1_555
C12_2 C23_2 1_555 1_555
C13_2 C14_2 1_555 1_555
C14_2 H5_2 1_555 1_555
C16_2 S2_2 1_555 1_555
C17_2 N2_2 1_555 1_555
H6_2 C17_2 1_555 1_555
C18_2 C2_2 1_555 1_555
H7_2 C18_2 1_555 1_555
C19_2 N3_2 1_555 1_555
C20_2 N2_2 1_555 1_555
H8_2 C20_2 1_555 1_555
C21_2 C2_2 1_555 1_555
H9_2 C21_2 1_555 1_555
C22_2 C24_2 1_555 1_555
C23_2 C18_2 1_555 1_555
H10_2 C23_2 1_555 1_555
C24_2 S1_2 1_555 1_555
C25_2 C12_2 1_555 1_555
H11_2 C25_2 1_555 1_555
C26_2 C13_2 1_555 1_555
H12_2 C26_2 1_555 1_555
N5 Cu5 1_555 1_555
O8_2 C4_2 1_555 1_555
N4_2 C24_2 1_555 1_555
C10_2 C11_2 1_555 1_555
C14_2 C20_2 1_555 1_555
C16_2 C19_2 1_555 1_555
C17_2 C26_2 1_555 1_555
C21_2 C25_2 1_555 1_555
N5 C27_2 1_555 1_555
C27_2 H13_2 1_555 1_555
H15_2 C29_2 1_555 1_555
C30_2 N5 1_555 1_555
H16_2 C30_2 1_555 1_555
C27_2 C28_2 1_555 1_555
C29_2 C30_2 1_555 1_555

#END
