
###############################################################################
#
# This file contains modified crystal structure data generated from the
# MOF subset of the Cambridge Structural Database (CSD) v543 
# hosted by the Cambridge Crystallographic Data Centre (CCDC).
#
# This work is licensed under the Creative Commons
# Attribution-NonCommercial-ShareAlike 4.0 International License.
# To view a copy of this license, visit
# http://creativecommons.org/licenses/by-nc-sa/4.0/
# or send a letter to
# Creative Commons, PO Box 1866, Mountain View, CA 94042, USA.
#
# CIF created using the CSD Python API on 29 September 2022
# The structure has been converted into the P1 space group
# The structure has a 3D framework
# The original CSD entry UHOMEL is in the orthorhombic crystal system
# The original CSD entry UHOMEL is in a Sohncke space group
# The framework has been calculated to contain at least 10.0% void space
# The void calculation uses a probe of radius 1.32A, grid spacing 0.4
#
###############################################################################

data_UHOMEL
_chemical_formula_moiety         '(C76 H72 N16 O20 Zn4)n'
_symmetry_cell_setting           triclinic
_symmetry_space_group_name_H-M   'P 1'
_symmetry_Int_Tables_number      1
_space_group_name_Hall           'P 1'
loop_
_symmetry_equiv_pos_site_id
_symmetry_equiv_pos_as_xyz
1 x,y,z
_cell_length_a                   17.655(7)
_cell_length_b                   21.733(8)
_cell_length_c                   5.626(2)
_cell_angle_alpha                90
_cell_angle_beta                 90
_cell_angle_gamma                90
_cell_volume                     2158.67
loop_
_atom_site_label
_atom_site_type_symbol
_atom_site_fract_x
_atom_site_fract_y
_atom_site_fract_z
C14 C 0.05614(19) 0.27543(17) 0.3192(7)
H11 H 0.0962 0.2882 0.2090
C15 C 0.06316(19) 0.20520(17) 0.3594(8)
H12 H 0.0370 0.1945 0.5053
H13 H 0.0379 0.1840 0.2300
C16 C 0.1438(2) 0.1825(2) 0.3749(8)
H14 H 0.1725 0.2013 0.2470
H15 H 0.1438 0.1384 0.3476
C17 C 0.1851(2) 0.19490(16) 0.6066(7)
C18 C 0.0591(2) 0.37086(18) 0.5382(8)
N3 N 0.06606(18) 0.30870(15) 0.5391(6)
H16 H 0.0763 0.2894 0.6687
N4 N 0.0594(2) 0.39816(17) 0.7540(8)
H17 H 0.0577 0.4376 0.7646
H18 H 0.0613 0.3761 0.8807
O3 O 0.25646(15) 0.20149(16) 0.5836(6)
O4 O 0.15180(18) 0.19541(19) 0.7963(5)
O5 O 0.05641(19) 0.39972(13) 0.3481(7)
Zn3 Zn 0.32758(2) 0.204053(18) 0.84532(7)
Zn1 Zn 0.82758(2) 0.295947(18) 0.15468(7)
C3 C 0.7663(2) 0.41647(18) 0.0052(8)
H3 H 0.7378 0.4120 0.1434
C13 C 0.98005(19) 0.28692(16) 0.2009(6)
O1 O 0.92215(13) 0.29063(13) 0.3374(5)
O6 O 0.75646(15) 0.29851(16) 0.4164(6)
C10 C 0.2510(2) 0.31860(18) 0.9999(9)
H8 H 0.2199 0.3105 0.8703
C10_2 C 0.7510(2) 0.18140(18) 0.0001(9)
H8_2 H 0.7199 0.1895 0.1297
C3_2 C 0.2663(2) 0.08353(18) 0.9948(8)
H3_2 H 0.2378 0.0880 0.8566
C13_2 C 0.48005(19) 0.21308(16) 0.7991(6)
C14_2 C 0.55614(19) 0.22457(17) 0.6808(7)
H11_2 H 0.5962 0.2118 0.7910
C15_2 C 0.56316(19) 0.29480(17) 0.6406(8)
H12_2 H 0.5370 0.3055 0.4947
H13_2 H 0.5379 0.3160 0.7700
C16_2 C 0.6438(2) 0.3175(2) 0.6251(8)
H14_2 H 0.6725 0.2987 0.7530
H15_2 H 0.6438 0.3616 0.6524
C17_2 C 0.6851(2) 0.30510(16) 0.3934(7)
C18_2 C 0.5591(2) 0.12914(18) 0.4618(8)
N3_2 N 0.56606(18) 0.19130(15) 0.4609(6)
H16_2 H 0.5763 0.2106 0.3313
N4_2 N 0.5594(2) 0.10184(17) 0.2460(8)
H17_2 H 0.5577 0.0624 0.2354
H18_2 H 0.5613 0.1239 0.1193
O1_2 O 0.42215(13) 0.20937(13) 0.6626(5)
O4_2 O 0.65180(18) 0.30459(19) 0.2037(5)
O5_2 O 0.55641(19) 0.10028(13) 0.6519(7)
C1 C 0.8605(2) 0.3818(2) 0.7564(8)
H1 H 0.8970 0.3525 0.7184
C2 C 0.8521(2) 0.43181(19) 0.6095(9)
H2 H 0.8835 0.4365 0.4780
C4 C 0.7535(2) 0.46677(18) 0.8629(10)
H4 H 0.7162 0.4952 0.9027
C5 C 0.7973(2) 0.47493(17) 0.6564(9)
C6 C 0.7867(3) 0.52639(19) 0.4928(9)
H5 H 0.8228 0.5318 0.3742
C7 C 0.7306(3) 0.5653(2) 0.5001(10)
H6 H 0.6946 0.5594 0.6187
C8 C 0.7187(3) 0.61804(19) 0.3376(10)
C9 C 0.7640(2) 0.63061(19) 0.1388(10)
H7 H 0.8041 0.6047 0.1006
C10_3 C 0.7490(2) 0.68140(18) -0.0001(9)
C11 C 0.6603(3) 0.6581(2) 0.3847(10)
H9 H 0.6292 0.6517 0.5159
C12 C 0.6477(3) 0.7082(2) 0.2356(9)
H10 H 0.6078 0.7346 0.2697
N1 N 0.81837(18) 0.37334(13) 0.9526(6)
N2 N 0.69084(18) 0.71967(13) 0.0454(6)
O2 O 0.97694(16) 0.28949(16) 0.9825(5)
N5 N 0.80916(18) 0.21967(13) 0.9546(6)
C6_2 C 0.7133(3) 0.02639(19) 0.5072(9)
H5_2 H 0.6772 0.0318 0.6258
C7_2 C 0.7694(3) 0.0653(2) 0.4999(10)
H6_2 H 0.8054 0.0594 0.3813
C8_2 C 0.7813(3) 0.11804(19) 0.6624(10)
C9_2 C 0.7360(2) 0.13061(19) 0.8612(10)
H7_2 H 0.6959 0.1047 0.8994
C10_4 C 0.7510(2) 0.18140(18) 1.0001(9)
C11_2 C 0.8397(3) 0.1581(2) 0.6153(10)
H9_2 H 0.8708 0.1517 0.4841
C12_2 C 0.8523(3) 0.2082(2) 0.7644(9)
H10_2 H 0.8922 0.2346 0.7303
C1_2 C 0.6395(2) 0.8818(2) 0.2436(8)
H1_2 H 0.6030 0.8525 0.2816
C2_2 C 0.6479(2) 0.93181(19) 0.3905(9)
H2_2 H 0.6165 0.9365 0.5220
C4_2 C 0.7465(2) 0.96677(18) 0.1371(10)
H4_2 H 0.7838 0.9952 0.0973
C5_2 C 0.7027(2) 0.97493(17) 0.3436(9)
N1_2 N 0.68163(18) 0.87334(13) 0.0474(6)
O2_2 O 0.52306(16) 0.78949(16) 0.0175(5)
C10_5 C 0.7490(2) 0.68140(18) 0.9999(9)
H8_3 H 0.7801 0.6895 0.8703
Zn2 Zn 0.67242(2) 0.795947(18) 0.84532(7)
Zn1_2 Zn 0.17242(2) 0.704053(18) 0.15468(7)
C3_3 C 0.2337(2) 0.58353(18) 0.0052(8)
H3_3 H 0.2622 0.5880 0.1434
C13_3 C 0.01995(19) 0.71308(16) 0.2009(6)
O1_3 O 0.07785(13) 0.70937(13) 0.3374(5)
O6_2 O 0.24354(15) 0.70149(16) 0.4164(6)
C14_3 C 0.94386(19) 0.72457(17) 0.3192(7)
H11_3 H 0.9038 0.7118 0.2090
C15_3 C 0.93684(19) 0.79480(17) 0.3594(8)
H12_3 H 0.9630 0.8055 0.5053
H13_3 H 0.9621 0.8160 0.2300
C16_3 C 0.8562(2) 0.8175(2) 0.3749(8)
H14_3 H 0.8275 0.7987 0.2470
H15_3 H 0.8562 0.8616 0.3476
C17_3 C 0.8149(2) 0.80510(16) 0.6066(7)
C18_3 C 0.9409(2) 0.62914(18) 0.5382(8)
N3_3 N 0.93394(18) 0.69130(15) 0.5391(6)
H16_3 H 0.9237 0.7106 0.6687
N4_3 N 0.9406(2) 0.60184(17) 0.7540(8)
H17_3 H 0.9423 0.5624 0.7646
H18_3 H 0.9387 0.6239 0.8807
O3_2 O 0.74354(15) 0.79851(16) 0.5836(6)
O4_3 O 0.84820(18) 0.80459(19) 0.7963(5)
O5_3 O 0.94359(19) 0.60028(13) 0.3481(7)
C3_4 C 0.7337(2) 0.91647(18) 0.9948(8)
H3_4 H 0.7622 0.9120 0.8566
C13_4 C 0.51995(19) 0.78692(16) 0.7991(6)
C14_4 C 0.44386(19) 0.77543(17) 0.6808(7)
H11_4 H 0.4038 0.7882 0.7910
C15_4 C 0.43684(19) 0.70520(17) 0.6406(8)
H12_4 H 0.4630 0.6945 0.4947
H13_4 H 0.4621 0.6840 0.7700
C16_4 C 0.3562(2) 0.6825(2) 0.6251(8)
H14_4 H 0.3275 0.7013 0.7530
H15_4 H 0.3562 0.6384 0.6524
C17_4 C 0.3149(2) 0.69490(16) 0.3934(7)
C18_4 C 0.4409(2) 0.87086(18) 0.4618(8)
N3_4 N 0.43394(18) 0.80870(15) 0.4609(6)
H16_4 H 0.4237 0.7894 0.3313
N4_4 N 0.4406(2) 0.89816(17) 0.2460(8)
H17_4 H 0.4423 0.9376 0.2354
H18_4 H 0.4387 0.8761 0.1193
O1_4 O 0.57785(13) 0.79063(13) 0.6626(5)
O4_4 O 0.34820(18) 0.69541(19) 0.2037(5)
O5_4 O 0.44359(19) 0.89972(13) 0.6519(7)
C10_6 C 0.2490(2) 0.81860(18) 0.0001(9)
H8_4 H 0.2801 0.8105 0.1297
C1_3 C 0.1395(2) 0.6182(2) 0.7564(8)
H1_3 H 0.1030 0.6475 0.7184
C2_3 C 0.1479(2) 0.56819(19) 0.6095(9)
H2_3 H 0.1165 0.5635 0.4780
C4_3 C 0.2465(2) 0.53323(18) 0.8629(10)
H4_3 H 0.2838 0.5048 0.9027
C5_3 C 0.2027(2) 0.52507(17) 0.6564(9)
C6_3 C 0.2133(3) 0.47361(19) 0.4928(9)
H5_3 H 0.1772 0.4682 0.3742
C7_3 C 0.2694(3) 0.4347(2) 0.5001(10)
H6_3 H 0.3054 0.4406 0.6187
C8_3 C 0.2813(3) 0.38196(19) 0.3376(10)
C9_3 C 0.2360(2) 0.36939(19) 0.1388(10)
H7_3 H 0.1959 0.3953 0.1006
C10_7 C 0.2510(2) 0.31860(18) -0.0001(9)
C11_3 C 0.3397(3) 0.3419(2) 0.3847(10)
H9_3 H 0.3708 0.3483 0.5159
C12_3 C 0.3523(3) 0.2918(2) 0.2356(9)
H10_3 H 0.3922 0.2654 0.2697
N1_3 N 0.18163(18) 0.62666(13) 0.9526(6)
N2_2 N 0.30916(18) 0.28033(13) 0.0454(6)
O2_3 O 0.02306(16) 0.71051(16) 0.9825(5)
N5_2 N 0.19084(18) 0.78033(13) 0.9546(6)
C1_4 C 0.3605(2) 0.1182(2) 0.2436(8)
H1_4 H 0.3970 0.1475 0.2816
C2_4 C 0.3521(2) 0.06819(19) 0.3905(9)
H2_4 H 0.3835 0.0635 0.5220
C4_4 C 0.2535(2) 0.03323(18) 0.1371(10)
H4_4 H 0.2162 0.0048 0.0973
C5_4 C 0.2973(2) 0.02507(17) 0.3436(9)
N1_4 N 0.31837(18) 0.12666(13) 0.0474(6)
O2_4 O 0.47694(16) 0.21051(16) 0.0175(5)
C6_4 C 0.2867(3) 0.97361(19) 0.5072(9)
H5_4 H 0.3228 0.9682 0.6258
C7_4 C 0.2306(3) 0.9347(2) 0.4999(10)
H6_4 H 0.1946 0.9406 0.3813
C8_4 C 0.2187(3) 0.88196(19) 0.6624(10)
C9_4 C 0.2640(2) 0.86939(19) 0.8612(10)
H7_4 H 0.3041 0.8953 0.8994
C10_8 C 0.2490(2) 0.81860(18) 1.0001(9)
C11_4 C 0.1603(3) 0.8419(2) 0.6153(10)
H9_4 H 0.1292 0.8483 0.4841
C12_4 C 0.1477(3) 0.7918(2) 0.7644(9)
H10_4 H 0.1078 0.7654 0.7303
loop_
_geom_bond_atom_site_label_1
_geom_bond_atom_site_label_2
_geom_bond_site_symmetry_1
_geom_bond_site_symmetry_2
C14 H11 1_555 1_555
C15 C14 1_555 1_555
H12 C15 1_555 1_555
H13 C15 1_555 1_555
C16 C15 1_555 1_555
H14 C16 1_555 1_555
H15 C16 1_555 1_555
C17 C16 1_555 1_555
C18 N3 1_555 1_555
N3 C14 1_555 1_555
H16 N3 1_555 1_555
N4 C18 1_555 1_555
H17 N4 1_555 1_555
H18 N4 1_555 1_555
O3 C17 1_555 1_555
O4 C17 1_555 1_555
O5 C18 1_555 1_555
Zn3 O3 1_555 1_555
C3 H3 1_555 1_555
O1 Zn1 1_555 1_555
O6 Zn1 1_555 1_555
C13 O1 1_555 1_555
H8 C10 1_555 1_555
H8_2 C10_2 1_555 1_555
C3_2 H3_2 1_555 1_555
C13_2 C14_2 1_555 1_555
C14_2 H11_2 1_555 1_555
C15_2 C14_2 1_555 1_555
H12_2 C15_2 1_555 1_555
H13_2 C15_2 1_555 1_555
C16_2 C15_2 1_555 1_555
H14_2 C16_2 1_555 1_555
H15_2 C16_2 1_555 1_555
C17_2 C16_2 1_555 1_555
C18_2 N3_2 1_555 1_555
N3_2 C14_2 1_555 1_555
H16_2 N3_2 1_555 1_555
N4_2 C18_2 1_555 1_555
H17_2 N4_2 1_555 1_555
H18_2 N4_2 1_555 1_555
O1_2 Zn3 1_555 1_555
O6 C17_2 1_555 1_555
O4_2 C17_2 1_555 1_555
O5_2 C18_2 1_555 1_555
C13_2 O1_2 1_555 1_555
C1 H1 1_555 1_555
C2 C1 1_555 1_555
H2 C2 1_555 1_555
H4 C4 1_555 1_555
C5 C2 1_555 1_555
C6 C5 1_555 1_555
H5 C6 1_555 1_555
C7 C6 1_555 1_555
H6 C7 1_555 1_555
C8 C7 1_555 1_555
C9 C8 1_555 1_555
H7 C9 1_555 1_555
C10_3 C9 1_555 1_555
C11 C8 1_555 1_555
H9 C11 1_555 1_555
C12 C11 1_555 1_555
H10 C12 1_555 1_555
N1 C1 1_555 1_555
N2 C10_3 1_555 1_555
C4 C5 1_555 1_555
C12 N2 1_555 1_555
H5_2 C6_2 1_555 1_555
C7_2 C6_2 1_555 1_555
H6_2 C7_2 1_555 1_555
C8_2 C7_2 1_555 1_555
C9_2 C8_2 1_555 1_555
H7_2 C9_2 1_555 1_555
C10_4 C9_2 1_555 1_555
C11_2 C8_2 1_555 1_555
H9_2 C11_2 1_555 1_555
C12_2 C11_2 1_555 1_555
H10_2 C12_2 1_555 1_555
N5 C10_4 1_555 1_555
C12_2 N5 1_555 1_555
C1_2 H1_2 1_555 1_555
C2_2 C1_2 1_555 1_555
H2_2 C2_2 1_555 1_555
H4_2 C4_2 1_555 1_555
C5_2 C2_2 1_555 1_555
N1_2 C1_2 1_555 1_555
C4_2 C5_2 1_555 1_555
H8_3 C10_5 1_555 1_555
C3_3 H3_3 1_555 1_555
O1_3 Zn1_2 1_555 1_555
O6_2 Zn1_2 1_555 1_555
C13_3 O1_3 1_555 1_555
C14_3 H11_3 1_555 1_555
C15_3 C14_3 1_555 1_555
H12_3 C15_3 1_555 1_555
H13_3 C15_3 1_555 1_555
C16_3 C15_3 1_555 1_555
H14_3 C16_3 1_555 1_555
H15_3 C16_3 1_555 1_555
C17_3 C16_3 1_555 1_555
C18_3 N3_3 1_555 1_555
N3_3 C14_3 1_555 1_555
H16_3 N3_3 1_555 1_555
N4_3 C18_3 1_555 1_555
H17_3 N4_3 1_555 1_555
H18_3 N4_3 1_555 1_555
O3_2 C17_3 1_555 1_555
O4_3 C17_3 1_555 1_555
O5_3 C18_3 1_555 1_555
Zn2 O3_2 1_555 1_555
C3_4 H3_4 1_555 1_555
C13_4 C14_4 1_555 1_555
C14_4 H11_4 1_555 1_555
C15_4 C14_4 1_555 1_555
H12_4 C15_4 1_555 1_555
H13_4 C15_4 1_555 1_555
C16_4 C15_4 1_555 1_555
H14_4 C16_4 1_555 1_555
H15_4 C16_4 1_555 1_555
C17_4 C16_4 1_555 1_555
C18_4 N3_4 1_555 1_555
N3_4 C14_4 1_555 1_555
H16_4 N3_4 1_555 1_555
N4_4 C18_4 1_555 1_555
H17_4 N4_4 1_555 1_555
H18_4 N4_4 1_555 1_555
O1_4 Zn2 1_555 1_555
O6_2 C17_4 1_555 1_555
O4_4 C17_4 1_555 1_555
O5_4 C18_4 1_555 1_555
C13_4 O1_4 1_555 1_555
H8_4 C10_6 1_555 1_555
C1_3 H1_3 1_555 1_555
C2_3 C1_3 1_555 1_555
H2_3 C2_3 1_555 1_555
H4_3 C4_3 1_555 1_555
C5_3 C2_3 1_555 1_555
C6_3 C5_3 1_555 1_555
H5_3 C6_3 1_555 1_555
C7_3 C6_3 1_555 1_555
H6_3 C7_3 1_555 1_555
C8_3 C7_3 1_555 1_555
C9_3 C8_3 1_555 1_555
H7_3 C9_3 1_555 1_555
C10_7 C9_3 1_555 1_555
C11_3 C8_3 1_555 1_555
H9_3 C11_3 1_555 1_555
C12_3 C11_3 1_555 1_555
H10_3 C12_3 1_555 1_555
N1_3 C1_3 1_555 1_555
N2_2 C10_7 1_555 1_555
C4_3 C5_3 1_555 1_555
C12_3 N2_2 1_555 1_555
C1_4 H1_4 1_555 1_555
C2_4 C1_4 1_555 1_555
H2_4 C2_4 1_555 1_555
H4_4 C4_4 1_555 1_555
C5_4 C2_4 1_555 1_555
N1_4 C1_4 1_555 1_555
C4_4 C5_4 1_555 1_555
H5_4 C6_4 1_555 1_555
C7_4 C6_4 1_555 1_555
H6_4 C7_4 1_555 1_555
C8_4 C7_4 1_555 1_555
C9_4 C8_4 1_555 1_555
H7_4 C9_4 1_555 1_555
C10_8 C9_4 1_555 1_555
C11_4 C8_4 1_555 1_555
H9_4 C11_4 1_555 1_555
C12_4 C11_4 1_555 1_555
H10_4 C12_4 1_555 1_555
N5_2 C10_8 1_555 1_555
C12_4 N5_2 1_555 1_555

#END
