
###############################################################################
#
# This file contains modified crystal structure data generated from the
# MOF subset of the Cambridge Structural Database (CSD) v543 
# hosted by the Cambridge Crystallographic Data Centre (CCDC).
#
# This work is licensed under the Creative Commons
# Attribution-NonCommercial-ShareAlike 4.0 International License.
# To view a copy of this license, visit
# http://creativecommons.org/licenses/by-nc-sa/4.0/
# or send a letter to
# Creative Commons, PO Box 1866, Mountain View, CA 94042, USA.
#
# CIF created using the CSD Python API on 29 September 2022
# The structure has been converted into the P1 space group
# The structure has a 3D framework
# The original CSD entry UHUJOZ is in the monoclinic crystal system
# The framework has been calculated to contain at least 10.0% void space
# The void calculation uses a probe of radius 1.32A, grid spacing 0.4
#
###############################################################################

data_UHUJOZ
_chemical_formula_moiety         '(C112 H84 N20 O24 Zn4)n'
_symmetry_cell_setting           triclinic
_symmetry_space_group_name_H-M   'P 1'
_symmetry_Int_Tables_number      1
_space_group_name_Hall           'P 1'
loop_
_symmetry_equiv_pos_site_id
_symmetry_equiv_pos_as_xyz
1 x,y,z
_cell_length_a                   13.1992(19)
_cell_length_b                   9.2011(9)
_cell_length_c                   23.622(2)
_cell_angle_alpha                90
_cell_angle_beta                 91.877(11)
_cell_angle_gamma                90
_cell_volume                     2867.29
loop_
_atom_site_label
_atom_site_type_symbol
_atom_site_fract_x
_atom_site_fract_y
_atom_site_fract_z
N2 N 0.0939(4) 0.7316(5) 0.51339(17)
C8 C 0.0653(5) 0.5532(6) 0.5744(2)
H2 H 0.073887 0.476237 0.599613
C11 C 0.1394(5) 0.6230(6) 0.5475(2)
H5 H 0.208348 0.602861 0.550853
Zn3 Zn 0.15611(5) 0.88206(6) 0.46478(2)
O7 O 0.6966(3) 0.4421(4) 0.00974(16)
N6 N 0.5939(4) 0.7684(5) 0.01339(17)
O4 O 0.2963(4) 0.8863(4) 0.54663(18)
H14 H 0.343265 0.952878 0.647632
O1 O 0.0443(3) 0.9621(4) 0.41723(15)
O3 O 0.0186(3) 0.7496(4) 0.37426(16)
N1 N 0.4754(4) 0.8842(5) 0.05793(18)
N3 N 0.2638(4) 0.8106(6) 0.41380(19)
C1 C 0.0084(4) 0.8831(5) 0.3778(2)
N4 N 0.3385(4) 0.6960(6) 0.3451(2)
C2 C 0.4952(5) 0.7782(6) 0.0217(2)
H1 H 0.446339 0.718587 0.004541
C8_2 C 0.5653(5) 0.9468(6) 0.0744(2)
C9 C 0.2509(5) 0.7415(6) 0.3648(2)
H3 H 0.188278 0.726813 0.346523
C11_2 C 0.6394(5) 0.8770(6) 0.0475(2)
H5_2 H 0.708348 0.897139 0.050853
O5 O 0.0708(6) 0.7547(7) 0.2549(3)
C14 C 0.3620(5) 0.8471(7) 0.1366(2)
C16 C 0.3924(5) 0.8375(7) 0.2373(3)
H9 H 0.417513 0.881244 0.270404
C17 C 0.3989(5) 0.9087(7) 0.1860(3)
C18 C 0.3083(6) 0.6392(7) 0.1907(3)
H11 H 0.277618 0.548306 0.192040
C19 C 0.3481(5) 0.7003(7) 0.2394(3)
C23 C 0.3765(5) 0.9199(7) 0.0797(2)
H16 H 0.323787 0.888007 0.052949
C24 C 0.3135(5) 0.7121(7) 0.1392(3)
H17 H 0.284708 0.670961 0.106504
C26 C 0.3496(7) 0.6097(7) 0.2930(3)
H18 H 0.413084 0.556663 0.295791
H19 H 0.295145 0.539099 0.290171
C27 C 0.3689(6) 0.8142(12) 0.4240(3)
H20 H 0.401893 0.858664 0.454726
C28 C 0.4141(7) 0.7432(13) 0.3823(3)
H21 H 0.483358 0.728487 0.379075
O4_2 O 0.7963(4) 0.6137(4) 0.04663(18)
C3 C 0.8600(4) 0.1231(6) 0.2411(2)
C5 C 0.8278(4) 0.2147(6) 0.1919(2)
C6 C 0.7832(4) 0.3912(6) 0.0973(2)
C12 C 0.7837(5) 0.1573(6) 0.1428(2)
H6 H 0.768786 0.058527 0.141280
C13 C 0.8685(5) 0.1801(6) 0.2958(2)
H7 H 0.843155 0.272476 0.302915
C15 C 0.9136(5) 0.1020(6) 0.3395(2)
H8 H 0.920020 0.143676 0.375282
C20 C 0.8474(5) 0.3638(6) 0.1931(2)
H12 H 0.874417 0.406117 0.226043
C21 C 0.7614(5) 0.2432(7) 0.0961(2)
H13 H 0.731692 0.201912 0.063640
C22 C 0.8271(5) 0.4488(6) 0.1463(2)
H14_2 H 0.843265 0.547122 0.147632
C25 C 0.7584(5) 0.4893(7) 0.0481(2)
Zn1 Zn 0.65611(5) 0.61794(6) 0.96478(2)
O1_2 O 0.5443(3) 0.5379(4) 0.91723(15)
O2 O 0.1966(3) 0.0579(4) 0.50974(16)
O3_2 O 0.5186(3) 0.7504(4) 0.87426(16)
N1_2 N 0.9754(4) 0.6158(5) 0.55793(18)
N3_2 N 0.7638(4) 0.6894(6) 0.91380(19)
C1_2 C 0.5084(4) 0.6169(5) 0.8778(2)
N4_2 N 0.8385(4) 0.8040(6) 0.8451(2)
C2_2 C 0.9952(5) 0.7218(6) 0.5217(2)
H1_2 H 0.946339 0.781413 0.504541
C3_2 C 0.3600(4) 0.3769(6) 0.7411(2)
C4 C 0.4499(4) 0.5386(6) 0.8311(2)
C5_2 C 0.3278(4) 0.2853(6) 0.6919(2)
C6_2 C 0.2832(4) 0.1088(6) 0.5973(2)
C7 C 0.4356(5) 0.5971(6) 0.7772(2)
C9_2 C 0.7509(5) 0.7585(6) 0.8648(2)
H3_2 H 0.688278 0.773187 0.846523
C10 C 0.3920(4) 0.5200(6) 0.7327(2)
H4 H 0.383939 0.562943 0.697182
N5 N 0.4769(5) 0.7389(6) 0.7631(2)
O5_2 O 0.5708(6) 0.7453(7) 0.7549(3)
C12_2 C 0.2837(5) 0.3427(6) 0.6428(2)
H6_2 H 0.268786 0.441473 0.641280
C13_2 C 0.3685(5) 0.3199(6) 0.7958(2)
H7_2 H 0.343155 0.227524 0.802915
C14_2 C 0.8620(5) 0.6529(7) 0.6366(2)
C15_2 C 0.4136(5) 0.3980(6) 0.8395(2)
H8_2 H 0.420020 0.356324 0.875282
C16_2 C 0.8924(5) 0.6625(7) 0.7373(3)
H9_2 H 0.917513 0.618756 0.770404
C17_2 C 0.8989(5) 0.5913(7) 0.6860(3)
H10 H 0.928856 0.499884 0.684939
C18_2 C 0.8083(6) 0.8608(7) 0.6907(3)
H11_2 H 0.777618 0.951694 0.692040
O6 O 0.4210(5) 0.8399(6) 0.7565(3)
C19_2 C 0.8481(5) 0.7997(7) 0.7394(3)
C20_2 C 0.3474(5) 0.1362(6) 0.6931(2)
H12_2 H 0.374417 0.093883 0.726043
C21_2 C 0.2614(5) 0.2568(7) 0.5961(2)
H13_2 H 0.231692 0.298088 0.563640
C22_2 C 0.3271(5) 0.0512(6) 0.6463(2)
C23_2 C 0.8765(5) 0.5801(7) 0.5797(2)
H15 H 0.870771 0.475561 0.583914
H16_2 H 0.823787 0.611993 0.552949
C24_2 C 0.8135(5) 0.7879(7) 0.6392(3)
H17_2 H 0.784708 0.829039 0.606504
C25_2 C 0.2584(5) 0.0107(7) 0.5481(2)
C26_2 C 0.8496(7) 0.8903(7) 0.7930(3)
H18_2 H 0.913084 0.943337 0.795791
H19_2 H 0.795145 0.960901 0.790171
C27_2 C 0.8689(6) 0.6858(12) 0.9240(3)
H20_2 H 0.901893 0.641336 0.954726
C28_2 C 0.9141(7) 0.7568(13) 0.8823(3)
H21_2 H 0.983358 0.771513 0.879075
H2_2 H 0.573887 0.023763 0.099613
H10_2 H 0.428856 0.000116 0.184939
H15_2 H 0.370771 0.024439 0.083914
C4_2 C 0.0501(4) 0.0386(6) 0.6689(2)
C7_2 C 0.0644(5) 0.0971(6) 0.7228(2)
C10_2 C 0.1080(4) 0.0200(6) 0.7673(2)
H4_2 H 0.116061 0.062943 0.802818
N5_2 N 0.0231(5) 0.2389(6) 0.7369(2)
O6_2 O 0.0790(5) 0.3399(6) 0.7435(3)
Zn2 Zn 0.34389(5) 0.38206(6) 0.03522(2)
H2_3 H 0.426113 0.976237 0.900387
H10_3 H 0.571144 0.999884 0.815061
H15_3 H 0.629229 0.975561 0.916086
O7_2 O 0.8034(3) 0.9421(4) 0.49026(16)
O1_3 O 0.4557(3) 0.4621(4) 0.08277(15)
O3_3 O 0.4814(3) 0.2496(4) 0.12574(16)
N1_3 N 0.0246(4) 0.3842(5) 0.44207(18)
N3_3 N 0.2362(4) 0.3106(6) 0.08620(19)
C1_3 C 0.4916(4) 0.3831(5) 0.1222(2)
N4_3 N 0.1615(4) 0.1960(6) 0.1549(2)
C2_3 C 0.0048(5) 0.2782(6) 0.4783(2)
H1_3 H 0.053661 0.218587 0.495459
C3_3 C 0.6400(4) 0.6231(6) 0.2589(2)
C4_3 C 0.5501(4) 0.4614(6) 0.1689(2)
C5_3 C 0.6722(4) 0.7147(6) 0.3081(2)
C6_3 C 0.7168(4) 0.8912(6) 0.4027(2)
C7_3 C 0.5644(5) 0.4029(6) 0.2228(2)
C9_3 C 0.2491(5) 0.2415(6) 0.1352(2)
H3_3 H 0.311722 0.226813 0.153477
C10_3 C 0.6080(4) 0.4800(6) 0.2673(2)
H4_3 H 0.616061 0.437057 0.302818
N5_3 N 0.5231(5) 0.2611(6) 0.2369(2)
O5_3 O 0.4292(6) 0.2547(7) 0.2451(3)
C12_3 C 0.7163(5) 0.6573(6) 0.3572(2)
H6_3 H 0.731214 0.558527 0.358720
C13_3 C 0.6315(5) 0.6801(6) 0.2042(2)
H7_3 H 0.656845 0.772476 0.197085
C14_3 C 0.1380(5) 0.3471(7) 0.3634(2)
C15_3 C 0.5864(5) 0.6020(6) 0.1605(2)
H8_3 H 0.579980 0.643676 0.124718
C16_3 C 0.1076(5) 0.3375(7) 0.2627(3)
H9_3 H 0.082487 0.381244 0.229596
C17_3 C 0.1011(5) 0.4087(7) 0.3140(3)
H10_4 H 0.071144 0.500116 0.315061
C18_3 C 0.1917(6) 0.1392(7) 0.3093(3)
H11_3 H 0.222382 0.048306 0.307960
O6_3 O 0.5790(5) 0.1601(6) 0.2435(3)
C19_3 C 0.1519(5) 0.2003(7) 0.2606(3)
C20_3 C 0.6526(5) 0.8638(6) 0.3069(2)
H12_3 H 0.625583 0.906117 0.273957
C21_3 C 0.7386(5) 0.7432(7) 0.4039(2)
H13_3 H 0.768308 0.701912 0.436360
C22_3 C 0.6729(5) 0.9488(6) 0.3537(2)
C23_3 C 0.1235(5) 0.4199(7) 0.4203(2)
H15_4 H 0.129229 0.524439 0.416086
H16_3 H 0.176213 0.388007 0.447051
C24_3 C 0.1865(5) 0.2121(7) 0.3608(3)
H17_3 H 0.215292 0.170961 0.393496
C25_3 C 0.7416(5) 0.9893(7) 0.4519(2)
C26_3 C 0.1504(7) 0.1097(7) 0.2070(3)
H18_3 H 0.086916 0.056663 0.204209
H19_3 H 0.204855 0.039099 0.209829
C27_3 C 0.1311(6) 0.3142(12) 0.0760(3)
H20_3 H 0.098107 0.358664 0.045274
C28_3 C 0.0859(7) 0.2432(13) 0.1177(3)
H21_3 H 0.016642 0.228487 0.120925
O2_2 O 0.3034(3) 0.5579(4) 0.99026(16)
O4_3 O 0.2037(4) 0.3863(4) 0.95337(18)
C3_4 C 0.1400(4) 0.8769(6) 0.7589(2)
C5_4 C 0.1722(4) 0.7853(6) 0.8081(2)
C6_4 C 0.2168(4) 0.6088(6) 0.9027(2)
C12_4 C 0.2163(5) 0.8427(6) 0.8572(2)
H6_4 H 0.231214 0.941473 0.858720
C13_4 C 0.1315(5) 0.8199(6) 0.7042(2)
H7_4 H 0.156845 0.727524 0.697085
C15_4 C 0.0864(5) 0.8980(6) 0.6605(2)
H8_4 H 0.079980 0.856324 0.624718
C20_4 C 0.1526(5) 0.6362(6) 0.8069(2)
H12_4 H 0.125583 0.593883 0.773957
C21_4 C 0.2386(5) 0.7568(7) 0.9039(2)
H13_4 H 0.268308 0.798088 0.936360
C22_4 C 0.1729(5) 0.5512(6) 0.8537(2)
H14_3 H 0.156735 0.452878 0.852368
C25_4 C 0.2416(5) 0.5107(7) 0.9519(2)
Zn1_2 Zn 0.84389(5) 0.11794(6) 0.53522(2)
O1_4 O 0.9557(3) 0.0379(4) 0.58277(15)
O3_4 O 0.9814(3) 0.2504(4) 0.62574(16)
N1_4 N 0.5246(4) 0.1158(5) 0.94207(18)
N2_2 N 0.4061(4) 0.2316(5) 0.98661(17)
N3_4 N 0.7362(4) 0.1894(6) 0.58620(19)
C1_4 C 0.9916(4) 0.1169(5) 0.6222(2)
N4_4 N 0.6615(4) 0.3040(6) 0.6549(2)
C2_4 C 0.5048(5) 0.2218(6) 0.9783(2)
H1_4 H 0.553661 0.281413 0.995459
C8_3 C 0.4347(5) 0.0532(6) 0.9256(2)
C9_4 C 0.7491(5) 0.2585(6) 0.6352(2)
H3_4 H 0.811722 0.273187 0.653477
C11_3 C 0.3606(5) 0.1230(6) 0.9525(2)
H5_3 H 0.291652 0.102861 0.949147
O5_4 O 0.9292(6) 0.2453(7) 0.7451(3)
C14_4 C 0.6380(5) 0.1529(7) 0.8634(2)
C16_4 C 0.6076(5) 0.1625(7) 0.7627(3)
H9_4 H 0.582487 0.118756 0.729596
C17_4 C 0.6011(5) 0.0913(7) 0.8140(3)
C18_4 C 0.6917(6) 0.3608(7) 0.8093(3)
H11_4 H 0.722382 0.451694 0.807960
C19_4 C 0.6519(5) 0.2997(7) 0.7606(3)
C23_4 C 0.6235(5) 0.0801(7) 0.9203(2)
H16_4 H 0.676213 0.111993 0.947051
C24_4 C 0.6865(5) 0.2879(7) 0.8608(3)
H17_4 H 0.715292 0.329039 0.893496
C26_4 C 0.6504(7) 0.3903(7) 0.7070(3)
H18_4 H 0.586916 0.443337 0.704209
H19_4 H 0.704855 0.460901 0.709829
C27_4 C 0.6311(6) 0.1858(12) 0.5760(3)
H20_4 H 0.598107 0.141336 0.545274
C28_4 C 0.5859(7) 0.2568(13) 0.6177(3)
H21_4 H 0.516642 0.271513 0.620925
N6_2 N 0.9061(4) 0.2684(5) 0.48661(17)
O4_4 O 0.7037(4) 0.1137(4) 0.45337(18)
H14_4 H 0.656735 0.047122 0.352368
C8_4 C 0.9347(5) 0.4468(6) 0.4256(2)
H2_4 H 0.926113 0.523763 0.400387
C11_4 C 0.8606(5) 0.3770(6) 0.4525(2)
H5_4 H 0.791652 0.397139 0.449147
C4_4 C 0.9499(4) 0.9614(6) 0.3311(2)
C7_4 C 0.9356(5) 0.9029(6) 0.2772(2)
C10_4 C 0.8920(4) 0.9800(6) 0.2327(2)
H4_4 H 0.883939 0.937057 0.197182
N5_4 N 0.9769(5) 0.7611(6) 0.2631(2)
O6_4 O 0.9210(5) 0.6601(6) 0.2565(3)
loop_
_geom_bond_atom_site_label_1
_geom_bond_atom_site_label_2
_geom_bond_site_symmetry_1
_geom_bond_site_symmetry_2
H2 C8 1_555 1_555
C11 N2 1_555 1_555
H5 C11 1_555 1_555
Zn3 N2 1_555 1_555
C8 C11 1_555 1_555
Zn3 O1 1_555 1_555
O1 C1 1_555 1_555
O3 C1 1_555 1_555
N1 C2 1_555 1_555
N6 C2 1_555 1_555
N3 Zn3 1_555 1_555
N4 C9 1_555 1_555
C2 H1 1_555 1_555
C8_2 N1 1_555 1_555
C9 N3 1_555 1_555
H3 C9 1_555 1_555
C11_2 N6 1_555 1_555
H5_2 C11_2 1_555 1_555
C14 C17 1_555 1_555
C16 H9 1_555 1_555
C17 C16 1_555 1_555
C18 H11 1_555 1_555
C19 C16 1_555 1_555
C23 N1 1_555 1_555
H16 C23 1_555 1_555
C24 C14 1_555 1_555
H17 C24 1_555 1_555
C26 N4 1_555 1_555
H18 C26 1_555 1_555
H19 C26 1_555 1_555
C27 N3 1_555 1_555
H20 C27 1_555 1_555
C28 N4 1_555 1_555
H21 C28 1_555 1_555
C8_2 C11_2 1_555 1_555
C14 C23 1_555 1_555
C18 C19 1_555 1_555
C18 C24 1_555 1_555
C19 C26 1_555 1_555
C27 C28 1_555 1_555
O7 C25 1_555 1_555
O4_2 C25 1_555 1_555
C3 C5 1_555 1_555
C5 C12 1_555 1_555
C6 C21 1_555 1_555
C12 H6 1_555 1_555
C13 C3 1_555 1_555
H7 C13 1_555 1_555
H8 C15 1_555 1_555
C20 C5 1_555 1_555
H12 C20 1_555 1_555
C21 C12 1_555 1_555
H13 C21 1_555 1_555
C22 C6 1_555 1_555
H14_2 C22 1_555 1_555
C25 C6 1_555 1_555
C13 C15 1_555 1_555
C20 C22 1_555 1_555
Zn1 O1_2 1_555 1_555
O1_2 C1_2 1_555 1_555
O2 C25_2 1_555 1_555
O3_2 C1_2 1_555 1_555
N1_2 C2_2 1_555 1_555
N3_2 Zn1 1_555 1_555
C1_2 C4 1_555 1_555
N4_2 C9_2 1_555 1_555
C2_2 H1_2 1_555 1_555
C3_2 C5_2 1_555 1_555
C4 C7 1_555 1_555
C5_2 C12_2 1_555 1_555
C6_2 C21_2 1_555 1_555
C7 C10 1_555 1_555
C9_2 N3_2 1_555 1_555
H3_2 C9_2 1_555 1_555
C10 C3_2 1_555 1_555
H4 C10 1_555 1_555
N5 C7 1_555 1_555
O5_2 N5 1_555 1_555
C12_2 H6_2 1_555 1_555
C13_2 C3_2 1_555 1_555
H7_2 C13_2 1_555 1_555
C14_2 C17_2 1_555 1_555
C15_2 C4 1_555 1_555
H8_2 C15_2 1_555 1_555
C16_2 H9_2 1_555 1_555
C17_2 C16_2 1_555 1_555
H10 C17_2 1_555 1_555
C18_2 H11_2 1_555 1_555
O6 N5 1_555 1_555
C19_2 C16_2 1_555 1_555
C20_2 C5_2 1_555 1_555
H12_2 C20_2 1_555 1_555
C21_2 C12_2 1_555 1_555
H13_2 C21_2 1_555 1_555
C22_2 C6_2 1_555 1_555
C23_2 N1_2 1_555 1_555
H15 C23_2 1_555 1_555
H16_2 C23_2 1_555 1_555
C24_2 C14_2 1_555 1_555
H17_2 C24_2 1_555 1_555
C25_2 C6_2 1_555 1_555
C26_2 N4_2 1_555 1_555
H18_2 C26_2 1_555 1_555
H19_2 C26_2 1_555 1_555
C27_2 N3_2 1_555 1_555
H20_2 C27_2 1_555 1_555
C28_2 N4_2 1_555 1_555
H21_2 C28_2 1_555 1_555
C13_2 C15_2 1_555 1_555
C14_2 C23_2 1_555 1_555
C18_2 C19_2 1_555 1_555
C18_2 C24_2 1_555 1_555
C19_2 C26_2 1_555 1_555
C20_2 C22_2 1_555 1_555
C27_2 C28_2 1_555 1_555
C4_2 C7_2 1_555 1_555
C7_2 C10_2 1_555 1_555
H4_2 C10_2 1_555 1_555
N5_2 C7_2 1_555 1_555
O6_2 N5_2 1_555 1_555
Zn2 O1_3 1_555 1_555
O1_3 C1_3 1_555 1_555
O7_2 C25_3 1_555 1_555
O3_3 C1_3 1_555 1_555
N1_3 C2_3 1_555 1_555
N3_3 Zn2 1_555 1_555
C1_3 C4_3 1_555 1_555
N4_3 C9_3 1_555 1_555
C2_3 H1_3 1_555 1_555
C3_3 C5_3 1_555 1_555
C4_3 C7_3 1_555 1_555
C5_3 C12_3 1_555 1_555
C6_3 C21_3 1_555 1_555
C7_3 C10_3 1_555 1_555
C9_3 N3_3 1_555 1_555
H3_3 C9_3 1_555 1_555
C10_3 C3_3 1_555 1_555
H4_3 C10_3 1_555 1_555
N5_3 C7_3 1_555 1_555
O5_3 N5_3 1_555 1_555
C12_3 H6_3 1_555 1_555
C13_3 C3_3 1_555 1_555
H7_3 C13_3 1_555 1_555
C14_3 C17_3 1_555 1_555
C15_3 C4_3 1_555 1_555
H8_3 C15_3 1_555 1_555
C16_3 H9_3 1_555 1_555
C17_3 C16_3 1_555 1_555
H10_4 C17_3 1_555 1_555
C18_3 H11_3 1_555 1_555
O6_3 N5_3 1_555 1_555
C19_3 C16_3 1_555 1_555
C20_3 C5_3 1_555 1_555
H12_3 C20_3 1_555 1_555
C21_3 C12_3 1_555 1_555
H13_3 C21_3 1_555 1_555
C22_3 C6_3 1_555 1_555
C23_3 N1_3 1_555 1_555
H15_4 C23_3 1_555 1_555
H16_3 C23_3 1_555 1_555
C24_3 C14_3 1_555 1_555
H17_3 C24_3 1_555 1_555
C25_3 C6_3 1_555 1_555
C26_3 N4_3 1_555 1_555
H18_3 C26_3 1_555 1_555
H19_3 C26_3 1_555 1_555
C27_3 N3_3 1_555 1_555
H20_3 C27_3 1_555 1_555
C28_3 N4_3 1_555 1_555
H21_3 C28_3 1_555 1_555
C13_3 C15_3 1_555 1_555
C14_3 C23_3 1_555 1_555
C18_3 C19_3 1_555 1_555
C18_3 C24_3 1_555 1_555
C19_3 C26_3 1_555 1_555
C20_3 C22_3 1_555 1_555
C27_3 C28_3 1_555 1_555
O2_2 C25_4 1_555 1_555
O4_3 C25_4 1_555 1_555
C3_4 C5_4 1_555 1_555
C5_4 C12_4 1_555 1_555
C6_4 C21_4 1_555 1_555
C12_4 H6_4 1_555 1_555
C13_4 C3_4 1_555 1_555
H7_4 C13_4 1_555 1_555
H8_4 C15_4 1_555 1_555
C20_4 C5_4 1_555 1_555
H12_4 C20_4 1_555 1_555
C21_4 C12_4 1_555 1_555
H13_4 C21_4 1_555 1_555
C22_4 C6_4 1_555 1_555
H14_3 C22_4 1_555 1_555
C25_4 C6_4 1_555 1_555
C13_4 C15_4 1_555 1_555
C20_4 C22_4 1_555 1_555
Zn1_2 O1_4 1_555 1_555
O1_4 C1_4 1_555 1_555
O3_4 C1_4 1_555 1_555
N1_4 C2_4 1_555 1_555
N2_2 C2_4 1_555 1_555
N3_4 Zn1_2 1_555 1_555
N4_4 C9_4 1_555 1_555
C2_4 H1_4 1_555 1_555
C8_3 N1_4 1_555 1_555
C9_4 N3_4 1_555 1_555
H3_4 C9_4 1_555 1_555
C11_3 N2_2 1_555 1_555
H5_3 C11_3 1_555 1_555
C14_4 C17_4 1_555 1_555
C16_4 H9_4 1_555 1_555
C17_4 C16_4 1_555 1_555
C18_4 H11_4 1_555 1_555
C19_4 C16_4 1_555 1_555
C23_4 N1_4 1_555 1_555
H16_4 C23_4 1_555 1_555
C24_4 C14_4 1_555 1_555
H17_4 C24_4 1_555 1_555
C26_4 N4_4 1_555 1_555
H18_4 C26_4 1_555 1_555
H19_4 C26_4 1_555 1_555
C27_4 N3_4 1_555 1_555
H20_4 C27_4 1_555 1_555
C28_4 N4_4 1_555 1_555
H21_4 C28_4 1_555 1_555
N6_2 Zn1_2 1_555 1_555
C8_3 C11_3 1_555 1_555
C14_4 C23_4 1_555 1_555
C18_4 C19_4 1_555 1_555
C18_4 C24_4 1_555 1_555
C19_4 C26_4 1_555 1_555
C27_4 C28_4 1_555 1_555
H2_4 C8_4 1_555 1_555
C11_4 N6_2 1_555 1_555
H5_4 C11_4 1_555 1_555
C8_4 C11_4 1_555 1_555
C4_4 C7_4 1_555 1_555
C7_4 C10_4 1_555 1_555
H4_4 C10_4 1_555 1_555
N5_4 C7_4 1_555 1_555
O6_4 N5_4 1_555 1_555

#END
