
###############################################################################
#
# This file contains modified crystal structure data generated from the
# MOF subset of the Cambridge Structural Database (CSD) v543 
# hosted by the Cambridge Crystallographic Data Centre (CCDC).
#
# This work is licensed under the Creative Commons
# Attribution-NonCommercial-ShareAlike 4.0 International License.
# To view a copy of this license, visit
# http://creativecommons.org/licenses/by-nc-sa/4.0/
# or send a letter to
# Creative Commons, PO Box 1866, Mountain View, CA 94042, USA.
#
# CIF created using the CSD Python API on 29 September 2022
# The structure has been converted into the P1 space group
# The structure has a 3D framework
# The original CSD entry UHUWEC is in the monoclinic crystal system
# The framework has been calculated to contain at least 10.0% void space
# The void calculation uses a probe of radius 1.32A, grid spacing 0.4
#
###############################################################################

data_UHUWEC
_chemical_formula_moiety         '(C136 H104 Cu8 N16 O40 P8)n'
_symmetry_cell_setting           triclinic
_symmetry_space_group_name_H-M   'P 1'
_symmetry_Int_Tables_number      1
_space_group_name_Hall           'P 1'
loop_
_symmetry_equiv_pos_site_id
_symmetry_equiv_pos_as_xyz
1 x,y,z
_cell_length_a                   15.5105(8)
_cell_length_b                   16.0032(8)
_cell_length_c                   19.2593(10)
_cell_angle_alpha                90
_cell_angle_beta                 111.941(6)
_cell_angle_gamma                90
_cell_volume                     4434.24
loop_
_atom_site_label
_atom_site_type_symbol
_atom_site_fract_x
_atom_site_fract_y
_atom_site_fract_z
Cu1 Cu 0.25794(3) 0.17951(3) 0.61283(3)
O1 O 0.35014(19) 0.25913(17) 0.60786(16)
N2 N 0.1667(2) 0.2712(2) 0.61516(17)
C1 C 0.0292(3) 0.3515(3) 0.5571(3)
C2 C 0.1786(3) 0.3096(3) 0.6794(2)
H2 H 0.2293 0.2947 0.7219
C4 C 0.0413(2) 0.3923(2) 0.6234(2)
C7 C 0.0069(3) 0.5370(3) 0.6536(2)
H5 H 0.0703 0.5483 0.6737
C9 C 0.1189(3) 0.3708(3) 0.6856(2)
H7 H 0.1306 0.3972 0.7312
C10 C 0.0934(3) 0.2927(3) 0.5555(3)
H8 H 0.0848 0.2668 0.5101
P1 P 0.36432(6) 0.34478(6) 0.58240(5)
C11 C 0.2697(3) 0.4850(3) 0.6025(2)
H9 H 0.2426 0.4873 0.5506
C12 C 0.3493(3) 0.4785(3) 0.7575(2)
H10 H 0.3764 0.4762 0.8095
C13 C 0.2856(2) 0.5416(2) 0.7226(2)
C14 C 0.3721(3) 0.4194(2) 0.7145(2)
H11 H 0.4141 0.3771 0.7379
C15 C 0.3328(2) 0.4226(2) 0.63651(19)
C16 C 0.2460(3) 0.5446(3) 0.6452(2)
H12 H 0.2035 0.5864 0.6216
O2 O 0.1948(2) 0.65525(19) 0.73740(16)
C17 C 0.2590(2) 0.6051(2) 0.7687(2)
O3 O 0.3179(2) 0.36363(18) 0.50164(15)
O4 O 0.47245(19) 0.3604(2) 0.61007(18)
H13 H 0.4989 0.3161 0.6097
O5 O 0.30350(17) 0.60258(17) 0.83909(13)
Cu3 Cu 0.24206(3) 0.67951(3) 0.88717(3)
Cu4 Cu 0.24206(3) 0.32049(3) 0.38717(3)
N3 N 0.3527(2) 0.08575(19) 0.62399(17)
O6 O 0.3052(2) 0.15525(19) 0.76260(16)
O7 O 0.1821(2) 0.13637(18) 0.49836(15)
O8 O 0.19650(17) 0.10258(17) 0.66091(13)
N1 N 0.8527(2) 0.58575(19) 0.62399(17)
H1 H 0.9780 0.3636 0.5140
C3 C 0.9438(3) 0.5993(3) 0.6506(2)
H3 H 0.9659 0.6524 0.6678
C5 C 0.9758(2) 0.4581(2) 0.6267(2)
C6 C 0.8803(3) 0.4446(3) 0.6004(2)
H4 H 0.8561 0.3923 0.5825
C8 C 0.8219(2) 0.5087(2) 0.6010(2)
H6 H 0.7584 0.4982 0.5848
Cu2 Cu 0.75794(3) 0.67951(3) 0.61283(3)
N1_2 N 0.1473(2) 0.58575(19) 0.87601(17)
H1_2 H 0.0220 0.3636 0.9860
C3_2 C 0.0562(3) 0.5993(3) 0.8494(2)
H3_2 H 0.0341 0.6524 0.8322
C5_2 C 0.0242(2) 0.4581(2) 0.8733(2)
C6_2 C 0.1197(3) 0.4446(3) 0.8996(2)
H4_2 H 0.1439 0.3923 0.9175
C8_2 C 0.1781(2) 0.5087(2) 0.8990(2)
H6_2 H 0.2416 0.4982 0.9152
Cu4_2 Cu 0.75794(3) 0.32049(3) 0.11283(3)
O7_2 O 0.8179(2) 0.13637(18) 0.00164(15)
Cu1_2 Cu 0.74206(3) 0.17951(3) 0.88717(3)
O1_2 O 0.64986(19) 0.25913(17) 0.89214(16)
N2_2 N 0.8333(2) 0.2712(2) 0.88484(17)
C1_2 C 0.9708(3) 0.3515(3) 0.9429(3)
C2_2 C 0.8214(3) 0.3096(3) 0.8206(2)
H2_2 H 0.7707 0.2947 0.7781
C4_2 C 0.9587(2) 0.3923(2) 0.8766(2)
C7_2 C 0.9931(3) 0.5370(3) 0.8464(2)
H5_2 H 0.9297 0.5483 0.8263
C9_2 C 0.8811(3) 0.3708(3) 0.8144(2)
H7_2 H 0.8694 0.3972 0.7688
C10_2 C 0.9066(3) 0.2927(3) 0.9445(3)
H8_2 H 0.9152 0.2668 0.9899
P1_2 P 0.63568(6) 0.34478(6) 0.91760(5)
C11_2 C 0.7303(3) 0.4850(3) 0.8975(2)
H9_2 H 0.7574 0.4873 0.9494
C12_2 C 0.6507(3) 0.4785(3) 0.7425(2)
H10_2 H 0.6236 0.4762 0.6905
C13_2 C 0.7144(2) 0.5416(2) 0.7774(2)
C14_2 C 0.6279(3) 0.4194(2) 0.7855(2)
H11_2 H 0.5859 0.3771 0.7621
C15_2 C 0.6672(2) 0.4226(2) 0.86349(19)
C16_2 C 0.7540(3) 0.5446(3) 0.8548(2)
H12_2 H 0.7965 0.5864 0.8784
O2_2 O 0.8052(2) 0.65525(19) 0.76260(16)
C17_2 C 0.7410(2) 0.6051(2) 0.7313(2)
O3_2 O 0.6821(2) 0.36363(18) 0.99836(15)
O4_2 O 0.52755(19) 0.3604(2) 0.88993(18)
H13_2 H 0.5011 0.3161 0.8903
O5_2 O 0.69650(17) 0.60258(17) 0.66091(13)
N3_2 N 0.6473(2) 0.08575(19) 0.87601(17)
O6_2 O 0.6948(2) 0.15525(19) 0.73740(16)
O8_2 O 0.80350(17) 0.10258(17) 0.83909(13)
C3_3 C 0.4438(3) 0.0993(3) 0.6506(2)
H3_3 H 0.4659 0.1524 0.6678
C7_3 C 0.5069(3) 0.0370(3) 0.6536(2)
H5_3 H 0.5703 0.0483 0.6737
C8_3 C 0.3219(2) 0.0087(2) 0.6010(2)
C13_3 C 0.7856(2) 0.0416(2) 0.7226(2)
C16_3 C 0.7460(3) 0.0446(3) 0.6452(2)
H12_3 H 0.7035 0.0864 0.6216
C17_3 C 0.7590(2) 0.1051(2) 0.7687(2)
O1_3 O 0.85014(19) 0.75913(17) 0.60786(16)
N2_3 N 0.6667(2) 0.7712(2) 0.61516(17)
C1_3 C 0.5292(3) 0.8515(3) 0.5571(3)
H1_3 H 0.4780 0.8636 0.5140
C2_3 C 0.6786(3) 0.8096(3) 0.6794(2)
H2_3 H 0.7293 0.7947 0.7219
C4_3 C 0.5413(2) 0.8923(2) 0.6234(2)
C5_3 C 0.4758(2) 0.9581(2) 0.6267(2)
C6_3 C 0.3803(3) 0.9446(3) 0.6004(2)
H4_3 H 0.3561 0.8923 0.5825
H6_3 H 0.2584 0.9982 0.5848
C9_3 C 0.6189(3) 0.8708(3) 0.6856(2)
H7_3 H 0.6306 0.8972 0.7312
C10_3 C 0.5934(3) 0.7927(3) 0.5555(3)
H8_3 H 0.5848 0.7668 0.5101
P1_3 P 0.86432(6) 0.84478(6) 0.58240(5)
C11_3 C 0.7697(3) 0.9850(3) 0.6025(2)
H9_3 H 0.7426 0.9873 0.5506
C12_3 C 0.8493(3) 0.9785(3) 0.7575(2)
H10_3 H 0.8764 0.9762 0.8095
C14_3 C 0.8721(3) 0.9194(2) 0.7145(2)
H11_3 H 0.9141 0.8771 0.7379
C15_3 C 0.8328(2) 0.9226(2) 0.63651(19)
O3_3 O 0.8179(2) 0.86363(18) 0.50164(15)
O4_3 O 0.97245(19) 0.8604(2) 0.61007(18)
H13_3 H 0.9989 0.8161 0.6097
Cu4_3 Cu 0.74206(3) 0.82049(3) 0.38717(3)
O7_3 O 0.6821(2) 0.63637(18) 0.49836(15)
C3_4 C 0.5562(3) 0.0993(3) 0.8494(2)
H3_4 H 0.5341 0.1524 0.8322
C7_4 C 0.4931(3) 0.0370(3) 0.8464(2)
H5_4 H 0.4297 0.0483 0.8263
C8_4 C 0.6781(2) 0.0087(2) 0.8990(2)
C13_4 C 0.2144(2) 0.0416(2) 0.7774(2)
C16_4 C 0.2540(3) 0.0446(3) 0.8548(2)
H12_4 H 0.2965 0.0864 0.8784
C17_4 C 0.2410(2) 0.1051(2) 0.7313(2)
Cu4_4 Cu 0.25794(3) 0.82049(3) 0.11283(3)
O7_4 O 0.3179(2) 0.63637(18) 0.00164(15)
O1_4 O 0.14986(19) 0.75913(17) 0.89214(16)
N2_4 N 0.3333(2) 0.7712(2) 0.88484(17)
C1_4 C 0.4708(3) 0.8515(3) 0.9429(3)
H1_4 H 0.5220 0.8636 0.9860
C2_4 C 0.3214(3) 0.8096(3) 0.8206(2)
H2_4 H 0.2707 0.7947 0.7781
C4_4 C 0.4587(2) 0.8923(2) 0.8766(2)
C5_4 C 0.5242(2) 0.9581(2) 0.8733(2)
C6_4 C 0.6197(3) 0.9446(3) 0.8996(2)
H4_4 H 0.6439 0.8923 0.9175
H6_4 H 0.7416 0.9982 0.9152
C9_4 C 0.3811(3) 0.8708(3) 0.8144(2)
H7_4 H 0.3694 0.8972 0.7688
C10_4 C 0.4066(3) 0.7927(3) 0.9445(3)
H8_4 H 0.4152 0.7668 0.9899
P1_4 P 0.13568(6) 0.84478(6) 0.91760(5)
C11_4 C 0.2303(3) 0.9850(3) 0.8975(2)
H9_4 H 0.2574 0.9873 0.9494
C12_4 C 0.1507(3) 0.9785(3) 0.7425(2)
H10_4 H 0.1236 0.9762 0.6905
C14_4 C 0.1279(3) 0.9194(2) 0.7855(2)
H11_4 H 0.0859 0.8771 0.7621
C15_4 C 0.1672(2) 0.9226(2) 0.86349(19)
O3_4 O 0.1821(2) 0.86363(18) 0.99836(15)
O4_4 O 0.02755(19) 0.8604(2) 0.88993(18)
H13_4 H 0.0011 0.8161 0.8903
N1_3 N 0.1473(2) 0.41425(19) 0.37601(17)
H1_5 H 0.0220 0.6364 0.4860
C3_5 C 0.0562(3) 0.4007(3) 0.3494(2)
H3_5 H 0.0341 0.3476 0.3322
C5_5 C 0.0242(2) 0.5419(2) 0.3733(2)
C6_5 C 0.1197(3) 0.5554(3) 0.3996(2)
H4_5 H 0.1439 0.6077 0.4175
C8_5 C 0.1781(2) 0.4913(2) 0.3990(2)
H6_5 H 0.2416 0.5018 0.4152
O1_5 O 0.64986(19) 0.74087(17) 0.39214(16)
N2_5 N 0.8333(2) 0.7288(2) 0.38484(17)
C1_5 C 0.9708(3) 0.6485(3) 0.4429(3)
C2_5 C 0.8214(3) 0.6904(3) 0.3206(2)
H2_5 H 0.7707 0.7053 0.2781
C4_5 C 0.9587(2) 0.6077(2) 0.3766(2)
C7_5 C 0.9931(3) 0.4630(3) 0.3464(2)
H5_5 H 0.9297 0.4517 0.3263
C9_5 C 0.8811(3) 0.6292(3) 0.3144(2)
H7_5 H 0.8694 0.6028 0.2688
C10_5 C 0.9066(3) 0.7073(3) 0.4445(3)
H8_5 H 0.9152 0.7332 0.4899
P1_5 P 0.63568(6) 0.65522(6) 0.41760(5)
C11_5 C 0.7303(3) 0.5150(3) 0.3975(2)
H9_5 H 0.7574 0.5127 0.4494
C12_5 C 0.6507(3) 0.5215(3) 0.2425(2)
H10_5 H 0.6236 0.5238 0.1905
C13_5 C 0.7144(2) 0.4584(2) 0.2774(2)
C14_5 C 0.6279(3) 0.5806(2) 0.2855(2)
H11_5 H 0.5859 0.6229 0.2621
C15_5 C 0.6672(2) 0.5774(2) 0.36349(19)
C16_5 C 0.7540(3) 0.4554(3) 0.3548(2)
H12_5 H 0.7965 0.4136 0.3784
O2_3 O 0.8052(2) 0.34475(19) 0.26260(16)
C17_5 C 0.7410(2) 0.3949(2) 0.2313(2)
O4_5 O 0.52755(19) 0.6396(2) 0.38993(18)
H13_5 H 0.5011 0.6839 0.3903
O5_3 O 0.69650(17) 0.39742(17) 0.16091(13)
N3_3 N 0.6473(2) 0.91425(19) 0.37601(17)
O6_3 O 0.6948(2) 0.84475(19) 0.23740(16)
O8_3 O 0.80350(17) 0.89742(17) 0.33909(13)
O1_6 O 0.35014(19) 0.74087(17) 0.10786(16)
N2_6 N 0.1667(2) 0.7288(2) 0.11516(17)
C1_6 C 0.0292(3) 0.6485(3) 0.0571(3)
C2_6 C 0.1786(3) 0.6904(3) 0.1794(2)
H2_6 H 0.2293 0.7053 0.2219
C4_6 C 0.0413(2) 0.6077(2) 0.1234(2)
C7_6 C 0.0069(3) 0.4630(3) 0.1536(2)
H5_6 H 0.0703 0.4517 0.1737
C9_6 C 0.1189(3) 0.6292(3) 0.1856(2)
H7_6 H 0.1306 0.6028 0.2312
C10_6 C 0.0934(3) 0.7073(3) 0.0555(3)
H8_6 H 0.0848 0.7332 0.0101
P1_6 P 0.36432(6) 0.65522(6) 0.08240(5)
C11_6 C 0.2697(3) 0.5150(3) 0.1025(2)
H9_6 H 0.2426 0.5127 0.0506
C12_6 C 0.3493(3) 0.5215(3) 0.2575(2)
H10_6 H 0.3764 0.5238 0.3095
C13_6 C 0.2856(2) 0.4584(2) 0.2226(2)
C14_6 C 0.3721(3) 0.5806(2) 0.2145(2)
H11_6 H 0.4141 0.6229 0.2379
C15_6 C 0.3328(2) 0.5774(2) 0.13651(19)
C16_6 C 0.2460(3) 0.4554(3) 0.1452(2)
H12_6 H 0.2035 0.4136 0.1216
O2_4 O 0.1948(2) 0.34475(19) 0.23740(16)
C17_6 C 0.2590(2) 0.3949(2) 0.2687(2)
O4_6 O 0.47245(19) 0.6396(2) 0.11007(18)
H13_6 H 0.4989 0.6839 0.1097
O5_4 O 0.30350(17) 0.39742(17) 0.33909(13)
N3_4 N 0.3527(2) 0.91425(19) 0.12399(17)
O6_4 O 0.3052(2) 0.84475(19) 0.26260(16)
O8_4 O 0.19650(17) 0.89742(17) 0.16091(13)
N1_4 N 0.8527(2) 0.41425(19) 0.12399(17)
H1_6 H 0.9780 0.6364 0.0140
C3_6 C 0.9438(3) 0.4007(3) 0.1506(2)
H3_6 H 0.9659 0.3476 0.1678
C5_6 C 0.9758(2) 0.5419(2) 0.1267(2)
C6_6 C 0.8803(3) 0.5554(3) 0.1004(2)
H4_6 H 0.8561 0.6077 0.0825
C8_6 C 0.8219(2) 0.4913(2) 0.1010(2)
H6_6 H 0.7584 0.5018 0.0848
O1_7 O 0.14986(19) 0.24087(17) 0.39214(16)
N2_7 N 0.3333(2) 0.2288(2) 0.38484(17)
C1_7 C 0.4708(3) 0.1485(3) 0.4429(3)
H1_7 H 0.5220 0.1364 0.4860
C2_7 C 0.3214(3) 0.1904(3) 0.3206(2)
H2_7 H 0.2707 0.2053 0.2781
C4_7 C 0.4587(2) 0.1077(2) 0.3766(2)
C5_7 C 0.5242(2) 0.0419(2) 0.3733(2)
C6_7 C 0.6197(3) 0.0554(3) 0.3996(2)
H4_7 H 0.6439 0.1077 0.4175
H6_7 H 0.7416 0.0018 0.4152
C9_7 C 0.3811(3) 0.1292(3) 0.3144(2)
H7_7 H 0.3694 0.1028 0.2688
C10_7 C 0.4066(3) 0.2073(3) 0.4445(3)
H8_7 H 0.4152 0.2332 0.4899
P1_7 P 0.13568(6) 0.15522(6) 0.41760(5)
C11_7 C 0.2303(3) 0.0150(3) 0.3975(2)
H9_7 H 0.2574 0.0127 0.4494
C12_7 C 0.1507(3) 0.0215(3) 0.2425(2)
H10_7 H 0.1236 0.0238 0.1905
C14_7 C 0.1279(3) 0.0806(2) 0.2855(2)
H11_7 H 0.0859 0.1229 0.2621
C15_7 C 0.1672(2) 0.0774(2) 0.36349(19)
O4_7 O 0.02755(19) 0.1396(2) 0.38993(18)
H13_7 H 0.0011 0.1839 0.3903
C3_7 C 0.5562(3) 0.9007(3) 0.3494(2)
H3_7 H 0.5341 0.8476 0.3322
C7_7 C 0.4931(3) 0.9630(3) 0.3464(2)
H5_7 H 0.4297 0.9517 0.3263
C8_7 C 0.6781(2) 0.9913(2) 0.3990(2)
C13_7 C 0.2144(2) 0.9584(2) 0.2774(2)
C16_7 C 0.2540(3) 0.9554(3) 0.3548(2)
H12_7 H 0.2965 0.9136 0.3784
C17_7 C 0.2410(2) 0.8949(2) 0.2313(2)
O1_8 O 0.85014(19) 0.24087(17) 0.10786(16)
N2_8 N 0.6667(2) 0.2288(2) 0.11516(17)
C1_8 C 0.5292(3) 0.1485(3) 0.0571(3)
H1_8 H 0.4780 0.1364 0.0140
C2_8 C 0.6786(3) 0.1904(3) 0.1794(2)
H2_8 H 0.7293 0.2053 0.2219
C4_8 C 0.5413(2) 0.1077(2) 0.1234(2)
C5_8 C 0.4758(2) 0.0419(2) 0.1267(2)
C6_8 C 0.3803(3) 0.0554(3) 0.1004(2)
H4_8 H 0.3561 0.1077 0.0825
H6_8 H 0.2584 0.0018 0.0848
C9_8 C 0.6189(3) 0.1292(3) 0.1856(2)
H7_8 H 0.6306 0.1028 0.2312
C10_8 C 0.5934(3) 0.2073(3) 0.0555(3)
H8_8 H 0.5848 0.2332 0.0101
P1_8 P 0.86432(6) 0.15522(6) 0.08240(5)
C11_8 C 0.7697(3) 0.0150(3) 0.1025(2)
H9_8 H 0.7426 0.0127 0.0506
C12_8 C 0.8493(3) 0.0215(3) 0.2575(2)
H10_8 H 0.8764 0.0238 0.3095
C14_8 C 0.8721(3) 0.0806(2) 0.2145(2)
H11_8 H 0.9141 0.1229 0.2379
C15_8 C 0.8328(2) 0.0774(2) 0.13651(19)
O4_8 O 0.97245(19) 0.1396(2) 0.11007(18)
H13_8 H 0.9989 0.1839 0.1097
C3_8 C 0.4438(3) 0.9007(3) 0.1506(2)
H3_8 H 0.4659 0.8476 0.1678
C7_8 C 0.5069(3) 0.9630(3) 0.1536(2)
H5_8 H 0.5703 0.9517 0.1737
C8_8 C 0.3219(2) 0.9913(2) 0.1010(2)
C13_8 C 0.7856(2) 0.9584(2) 0.2226(2)
C16_8 C 0.7460(3) 0.9554(3) 0.1452(2)
H12_8 H 0.7035 0.9136 0.1216
C17_8 C 0.7590(2) 0.8949(2) 0.2687(2)
loop_
_geom_bond_atom_site_label_1
_geom_bond_atom_site_label_2
_geom_bond_site_symmetry_1
_geom_bond_site_symmetry_2
Cu1 O1 1_555 1_555
O1 P1 1_555 1_555
N2 Cu1 1_555 1_555
C2 N2 1_555 1_555
H2 C2 1_555 1_555
C4 C1 1_555 1_555
H5 C7 1_555 1_555
C9 C2 1_555 1_555
H7 C9 1_555 1_555
C10 N2 1_555 1_555
H8 C10 1_555 1_555
P1 C15 1_555 1_555
C11 H9 1_555 1_555
C12 H10 1_555 1_555
C13 C12 1_555 1_555
C14 C12 1_555 1_555
H11 C14 1_555 1_555
C15 C11 1_555 1_555
C16 C11 1_555 1_555
H12 C16 1_555 1_555
O2 C17 1_555 1_555
C17 C13 1_555 1_555
O3 P1 1_555 1_555
O4 P1 1_555 1_555
H13 O4 1_555 1_555
O5 C17 1_555 1_555
Cu3 O2 1_555 1_555
Cu4 O3 1_555 1_555
N3 Cu1 1_555 1_555
O6 Cu1 1_555 1_555
O7 Cu1 1_555 1_555
O8 Cu1 1_555 1_555
C1 C10 1_555 1_555
C4 C9 1_555 1_555
C13 C16 1_555 1_555
C14 C15 1_555 1_555
O5 Cu3 1_555 1_555
N1 C3 1_555 1_555
C3 H3 1_555 1_555
C6 C5 1_555 1_555
H4 C6 1_555 1_555
C8 N1 1_555 1_555
H6 C8 1_555 1_555
Cu2 N1 1_555 1_555
C6 C8 1_555 1_555
N1_2 C3_2 1_555 1_555
C3_2 H3_2 1_555 1_555
C6_2 C5_2 1_555 1_555
H4_2 C6_2 1_555 1_555
C8_2 N1_2 1_555 1_555
H6_2 C8_2 1_555 1_555
Cu3 N1_2 1_555 1_555
C6_2 C8_2 1_555 1_555
Cu1_2 O1_2 1_555 1_555
O1_2 P1_2 1_555 1_555
N2_2 Cu1_2 1_555 1_555
C2_2 N2_2 1_555 1_555
H2_2 C2_2 1_555 1_555
C4_2 C1_2 1_555 1_555
H5_2 C7_2 1_555 1_555
C9_2 C2_2 1_555 1_555
H7_2 C9_2 1_555 1_555
C10_2 N2_2 1_555 1_555
H8_2 C10_2 1_555 1_555
P1_2 C15_2 1_555 1_555
C11_2 H9_2 1_555 1_555
C12_2 H10_2 1_555 1_555
C13_2 C12_2 1_555 1_555
C14_2 C12_2 1_555 1_555
H11_2 C14_2 1_555 1_555
C15_2 C11_2 1_555 1_555
C16_2 C11_2 1_555 1_555
H12_2 C16_2 1_555 1_555
O2_2 C17_2 1_555 1_555
C17_2 C13_2 1_555 1_555
O3_2 P1_2 1_555 1_555
O4_2 P1_2 1_555 1_555
H13_2 O4_2 1_555 1_555
O5_2 C17_2 1_555 1_555
Cu2 O2_2 1_555 1_555
N3_2 Cu1_2 1_555 1_555
O6_2 Cu1_2 1_555 1_555
O8_2 Cu1_2 1_555 1_555
C1_2 C10_2 1_555 1_555
C4_2 C9_2 1_555 1_555
C13_2 C16_2 1_555 1_555
C14_2 C15_2 1_555 1_555
O5_2 Cu2 1_555 1_555
N3 C3_3 1_555 1_555
C3_3 H3_3 1_555 1_555
C7_3 C3_3 1_555 1_555
H5_3 C7_3 1_555 1_555
C8_3 N3 1_555 1_555
H12_3 C16_3 1_555 1_555
O6_2 C17_3 1_555 1_555
C17_3 C13_3 1_555 1_555
O8_2 C17_3 1_555 1_555
C13_3 C16_3 1_555 1_555
Cu2 O1_3 1_555 1_555
O1_3 P1_3 1_555 1_555
N2_3 Cu2 1_555 1_555
C1_3 H1_3 1_555 1_555
C2_3 N2_3 1_555 1_555
H2_3 C2_3 1_555 1_555
C4_3 C1_3 1_555 1_555
C5_3 C4_3 1_555 1_555
C6_3 C5_3 1_555 1_555
H4_3 C6_3 1_555 1_555
C9_3 C2_3 1_555 1_555
H7_3 C9_3 1_555 1_555
C10_3 N2_3 1_555 1_555
H8_3 C10_3 1_555 1_555
P1_3 C15_3 1_555 1_555
C11_3 H9_3 1_555 1_555
C12_3 H10_3 1_555 1_555
C14_3 C12_3 1_555 1_555
H11_3 C14_3 1_555 1_555
C15_3 C11_3 1_555 1_555
O3_3 P1_3 1_555 1_555
O4_3 P1_3 1_555 1_555
H13_3 O4_3 1_555 1_555
Cu4_3 O3_3 1_555 1_555
O7_3 Cu2 1_555 1_555
C1_3 C10_3 1_555 1_555
C4_3 C9_3 1_555 1_555
C14_3 C15_3 1_555 1_555
N3_2 C3_4 1_555 1_555
C3_4 H3_4 1_555 1_555
C7_4 C3_4 1_555 1_555
H5_4 C7_4 1_555 1_555
C8_4 N3_2 1_555 1_555
H12_4 C16_4 1_555 1_555
O6 C17_4 1_555 1_555
C17_4 C13_4 1_555 1_555
O8 C17_4 1_555 1_555
C13_4 C16_4 1_555 1_555
Cu3 O1_4 1_555 1_555
O1_4 P1_4 1_555 1_555
N2_4 Cu3 1_555 1_555
C1_4 H1_4 1_555 1_555
C2_4 N2_4 1_555 1_555
H2_4 C2_4 1_555 1_555
C4_4 C1_4 1_555 1_555
C5_4 C4_4 1_555 1_555
C6_4 C5_4 1_555 1_555
H4_4 C6_4 1_555 1_555
C9_4 C2_4 1_555 1_555
H7_4 C9_4 1_555 1_555
C10_4 N2_4 1_555 1_555
H8_4 C10_4 1_555 1_555
P1_4 C15_4 1_555 1_555
C11_4 H9_4 1_555 1_555
C12_4 H10_4 1_555 1_555
C14_4 C12_4 1_555 1_555
H11_4 C14_4 1_555 1_555
C15_4 C11_4 1_555 1_555
O3_4 P1_4 1_555 1_555
O4_4 P1_4 1_555 1_555
H13_4 O4_4 1_555 1_555
C1_4 C10_4 1_555 1_555
C4_4 C9_4 1_555 1_555
C14_4 C15_4 1_555 1_555
N1_3 C3_5 1_555 1_555
C3_5 H3_5 1_555 1_555
C6_5 C5_5 1_555 1_555
H4_5 C6_5 1_555 1_555
C8_5 N1_3 1_555 1_555
H6_5 C8_5 1_555 1_555
Cu4 N1_3 1_555 1_555
C6_5 C8_5 1_555 1_555
Cu4_3 O1_5 1_555 1_555
O1_5 P1_5 1_555 1_555
N2_5 Cu4_3 1_555 1_555
C2_5 N2_5 1_555 1_555
H2_5 C2_5 1_555 1_555
C4_5 C1_5 1_555 1_555
H5_5 C7_5 1_555 1_555
C9_5 C2_5 1_555 1_555
H7_5 C9_5 1_555 1_555
C10_5 N2_5 1_555 1_555
H8_5 C10_5 1_555 1_555
P1_5 C15_5 1_555 1_555
C11_5 H9_5 1_555 1_555
C12_5 H10_5 1_555 1_555
C13_5 C12_5 1_555 1_555
C14_5 C12_5 1_555 1_555
H11_5 C14_5 1_555 1_555
C15_5 C11_5 1_555 1_555
C16_5 C11_5 1_555 1_555
H12_5 C16_5 1_555 1_555
O2_3 C17_5 1_555 1_555
C17_5 C13_5 1_555 1_555
O7_3 P1_5 1_555 1_555
O4_5 P1_5 1_555 1_555
H13_5 O4_5 1_555 1_555
O5_3 C17_5 1_555 1_555
Cu4_2 O2_3 1_555 1_555
N3_3 Cu4_3 1_555 1_555
O6_3 Cu4_3 1_555 1_555
O8_3 Cu4_3 1_555 1_555
C1_5 C10_5 1_555 1_555
C4_5 C9_5 1_555 1_555
C13_5 C16_5 1_555 1_555
C14_5 C15_5 1_555 1_555
O5_3 Cu4_2 1_555 1_555
Cu4_4 O1_6 1_555 1_555
O1_6 P1_6 1_555 1_555
N2_6 Cu4_4 1_555 1_555
C2_6 N2_6 1_555 1_555
H2_6 C2_6 1_555 1_555
C4_6 C1_6 1_555 1_555
H5_6 C7_6 1_555 1_555
C9_6 C2_6 1_555 1_555
H7_6 C9_6 1_555 1_555
C10_6 N2_6 1_555 1_555
H8_6 C10_6 1_555 1_555
P1_6 C15_6 1_555 1_555
C11_6 H9_6 1_555 1_555
C12_6 H10_6 1_555 1_555
C13_6 C12_6 1_555 1_555
C14_6 C12_6 1_555 1_555
H11_6 C14_6 1_555 1_555
C15_6 C11_6 1_555 1_555
C16_6 C11_6 1_555 1_555
H12_6 C16_6 1_555 1_555
O2_4 C17_6 1_555 1_555
C17_6 C13_6 1_555 1_555
O7_4 P1_6 1_555 1_555
O4_6 P1_6 1_555 1_555
H13_6 O4_6 1_555 1_555
O5_4 C17_6 1_555 1_555
Cu4 O2_4 1_555 1_555
N3_4 Cu4_4 1_555 1_555
O6_4 Cu4_4 1_555 1_555
O8_4 Cu4_4 1_555 1_555
C1_6 C10_6 1_555 1_555
C4_6 C9_6 1_555 1_555
C13_6 C16_6 1_555 1_555
C14_6 C15_6 1_555 1_555
O5_4 Cu4 1_555 1_555
N1_4 C3_6 1_555 1_555
C3_6 H3_6 1_555 1_555
C6_6 C5_6 1_555 1_555
H4_6 C6_6 1_555 1_555
C8_6 N1_4 1_555 1_555
H6_6 C8_6 1_555 1_555
Cu4_2 N1_4 1_555 1_555
C6_6 C8_6 1_555 1_555
Cu4 O1_7 1_555 1_555
O1_7 P1_7 1_555 1_555
N2_7 Cu4 1_555 1_555
C1_7 H1_7 1_555 1_555
C2_7 N2_7 1_555 1_555
H2_7 C2_7 1_555 1_555
C4_7 C1_7 1_555 1_555
C5_7 C4_7 1_555 1_555
C6_7 C5_7 1_555 1_555
H4_7 C6_7 1_555 1_555
C9_7 C2_7 1_555 1_555
H7_7 C9_7 1_555 1_555
C10_7 N2_7 1_555 1_555
H8_7 C10_7 1_555 1_555
P1_7 C15_7 1_555 1_555
C11_7 H9_7 1_555 1_555
C12_7 H10_7 1_555 1_555
C14_7 C12_7 1_555 1_555
H11_7 C14_7 1_555 1_555
C15_7 C11_7 1_555 1_555
O7 P1_7 1_555 1_555
O4_7 P1_7 1_555 1_555
H13_7 O4_7 1_555 1_555
C1_7 C10_7 1_555 1_555
C4_7 C9_7 1_555 1_555
C14_7 C15_7 1_555 1_555
N3_3 C3_7 1_555 1_555
C3_7 H3_7 1_555 1_555
C7_7 C3_7 1_555 1_555
H5_7 C7_7 1_555 1_555
C8_7 N3_3 1_555 1_555
H12_7 C16_7 1_555 1_555
O6_4 C17_7 1_555 1_555
C17_7 C13_7 1_555 1_555
O8_4 C17_7 1_555 1_555
C13_7 C16_7 1_555 1_555
Cu4_2 O1_8 1_555 1_555
O1_8 P1_8 1_555 1_555
N2_8 Cu4_2 1_555 1_555
C1_8 H1_8 1_555 1_555
C2_8 N2_8 1_555 1_555
H2_8 C2_8 1_555 1_555
C4_8 C1_8 1_555 1_555
C5_8 C4_8 1_555 1_555
C6_8 C5_8 1_555 1_555
H4_8 C6_8 1_555 1_555
C9_8 C2_8 1_555 1_555
H7_8 C9_8 1_555 1_555
C10_8 N2_8 1_555 1_555
H8_8 C10_8 1_555 1_555
P1_8 C15_8 1_555 1_555
C11_8 H9_8 1_555 1_555
C12_8 H10_8 1_555 1_555
C14_8 C12_8 1_555 1_555
H11_8 C14_8 1_555 1_555
C15_8 C11_8 1_555 1_555
O7_2 P1_8 1_555 1_555
O4_8 P1_8 1_555 1_555
H13_8 O4_8 1_555 1_555
C1_8 C10_8 1_555 1_555
C4_8 C9_8 1_555 1_555
C14_8 C15_8 1_555 1_555
N3_4 C3_8 1_555 1_555
C3_8 H3_8 1_555 1_555
C7_8 C3_8 1_555 1_555
H5_8 C7_8 1_555 1_555
C8_8 N3_4 1_555 1_555
H12_8 C16_8 1_555 1_555
O6_3 C17_8 1_555 1_555
C17_8 C13_8 1_555 1_555
O8_3 C17_8 1_555 1_555
C13_8 C16_8 1_555 1_555

#END
