
###############################################################################
#
# This file contains modified crystal structure data generated from the
# MOF subset of the Cambridge Structural Database (CSD) v543 
# hosted by the Cambridge Crystallographic Data Centre (CCDC).
#
# This work is licensed under the Creative Commons
# Attribution-NonCommercial-ShareAlike 4.0 International License.
# To view a copy of this license, visit
# http://creativecommons.org/licenses/by-nc-sa/4.0/
# or send a letter to
# Creative Commons, PO Box 1866, Mountain View, CA 94042, USA.
#
# CIF created using the CSD Python API on 29 September 2022
# The structure has been converted into the P1 space group
# The structure has a 3D framework
# The original CSD entry UJADUH is in the monoclinic crystal system
# The framework has been calculated to contain at least 10.0% void space
# The void calculation uses a probe of radius 1.32A, grid spacing 0.4
#
###############################################################################

data_UJADUH
_chemical_formula_moiety         '(C128 H64 Cu12 O61)n'
_symmetry_cell_setting           triclinic
_symmetry_space_group_name_H-M   'P 1'
_symmetry_Int_Tables_number      1
_space_group_name_Hall           'P 1'
loop_
_symmetry_equiv_pos_site_id
_symmetry_equiv_pos_as_xyz
1 x,y,z
_cell_length_a                   33.236(2)
_cell_length_b                   9.6710(4)
_cell_length_c                   18.4274(9)
_cell_angle_alpha                90
_cell_angle_beta                 91.421(5)
_cell_angle_gamma                90
_cell_volume                     5921.21
loop_
_atom_site_label
_atom_site_type_symbol
_atom_site_fract_x
_atom_site_fract_y
_atom_site_fract_z
Cu5 Cu 0.250000 0.250000 0.000000
C28 C 0.2256(3) 0.0652(12) 0.7655(5)
H14 H 0.249785 0.101281 0.783479
C29 C 0.1921(3) 0.0783(10) 0.8057(5)
C30 C 0.1561(3) 0.0260(14) 0.7774(6)
H15 H 0.132768 0.037547 0.803409
C32 C 0.1933(3) 0.1504(10) 0.8771(4)
O15 O 0.2270(2) 0.1826(7) 0.9017(3)
O16 O 0.1602(2) 0.1718(8) 0.9071(4)
Cu5_2 Cu 0.250000 0.250000 1.000000
Cu8 Cu 0.15266(3) 0.29318(11) 0.99073(6)
C17 C 0.0862(6) 0.573(2) 0.5123(12)
C18 C 0.0415(5) 0.534(2) 0.5062(10)
C19 C 0.0157(7) 0.596(4) 0.4587(15)
H9 H 0.025129 0.668886 0.430884
C20 C 0.0248(7) 0.445(3) 0.5507(17)
H10 H 0.040053 0.408044 0.589030
O9 O 0.1074(4) 0.518(2) 0.5629(11)
O10 O 0.0972(3) 0.6546(16) 0.4741(7)
C25 C 0.1868(3) 0.8767(9) 0.5983(5)
C26 C 0.1882(3) 0.9474(10) 0.6705(5)
C27 C 0.2249(3) 0.9987(12) 0.6974(6)
H13 H 0.248209 0.989380 0.670985
C31 C 0.1540(3) 0.9571(14) 0.7116(6)
H16 H 0.129901 0.917906 0.695259
O13 O 0.21669(19) 0.8845(6) 0.5597(3)
O14 O 0.1543(2) 0.8137(8) 0.5818(4)
Cu3 Cu 0.15266(3) 0.70682(11) 0.49073(6)
O20 O 0.1602(2) 0.8282(8) 0.4071(4)
O22 O 0.1777(3) 0.4816(9) 0.4094(6)
O23 O 0.20137(19) 0.5905(5) 0.5056(3)
Cu6 Cu 0.250000 0.750000 0.500000
O12 O 0.70137(19) 0.0905(5) 0.5056(3)
Cu4 Cu 0.750000 0.250000 0.500000
Cu10 Cu 0.65266(3) 0.20682(11) 0.49073(6)
C1 C 0.8132(3) 0.1233(9) 0.4017(5)
C2 C 0.8118(3) 0.0526(10) 0.3295(5)
C3 C 0.7751(3) 0.0013(12) 0.3026(6)
H1 H 0.751791 0.010620 0.329015
C7 C 0.8460(3) 0.0429(14) 0.2884(6)
H4 H 0.870099 0.082094 0.304741
C9 C 0.9138(6) 0.427(2) 0.4877(12)
C10 C 0.9585(5) 0.466(2) 0.4938(10)
C11 C 0.9843(7) 0.404(4) 0.5413(15)
H5 H 0.974871 0.331114 0.569116
C12 C 0.9752(7) 0.555(3) 0.4493(17)
H6 H 0.959947 0.591956 0.410970
C13 C 0.8010(3) 0.5146(9) 0.5376(5)
C14 C 0.7734(3) 0.6349(8) 0.5182(5)
C15 C 0.7527(3) 0.6405(9) 0.4528(5)
H7 H 0.754447 0.567064 0.420452
C16 C 0.7707(4) 0.7458(10) 0.5655(6)
H8 H 0.784786 0.743850 0.609756
O1 O 0.78331(19) 0.1155(6) 0.4403(3)
O2 O 0.8457(2) 0.1863(8) 0.4182(4)
O5 O 0.8926(4) 0.482(2) 0.4371(11)
O6 O 0.9028(3) 0.3454(16) 0.5259(7)
O7 O 0.8223(3) 0.5184(9) 0.5906(6)
O8 O 0.79863(19) 0.4095(5) 0.4944(3)
Cu2 Cu 0.84734(3) 0.29318(11) 0.50927(6)
C21 C 0.6990(3) 0.9854(9) 0.4624(5)
C22 C 0.7266(3) 0.8651(8) 0.4818(5)
C23 C 0.7473(3) 0.8595(9) 0.5472(5)
H11 H 0.745553 0.932936 0.579548
C24 C 0.7293(4) 0.7542(10) 0.4345(6)
H12 H 0.715214 0.756150 0.390244
O11 O 0.6777(3) 0.9816(9) 0.4094(6)
O17 O 0.71669(19) 0.3845(6) 0.5597(3)
O18 O 0.7270(2) 0.3174(7) 0.4017(3)
O19 O 0.7730(2) 0.1826(7) 0.5983(3)
O21 O 0.8398(2) 0.1718(8) 0.5929(4)
C4 C 0.7744(3) 0.9348(12) 0.2345(5)
H2 H 0.750215 0.898719 0.216521
C5 C 0.8079(3) 0.9217(10) 0.1943(5)
C6 C 0.8439(3) 0.9740(14) 0.2226(6)
H3 H 0.867232 0.962453 0.196591
C8 C 0.8067(3) 0.8496(10) 0.1229(4)
O3 O 0.7730(2) 0.8174(7) 0.0983(3)
O4 O 0.8398(2) 0.8282(8) 0.0929(4)
Cu7 Cu 0.750000 0.750000 0.000000
Cu9 Cu 0.84734(3) 0.70682(11) 0.00927(6)
Cu7_2 Cu 0.750000 0.750000 1.000000
Cu10_2 Cu 0.34734(3) 0.20682(11) 0.00927(6)
O12_2 O 0.29863(19) 0.0905(5) 0.9944(3)
C1_2 C 0.1868(3) 0.1233(9) 0.0983(5)
C2_2 C 0.1882(3) 0.0526(10) 0.1705(5)
C3_2 C 0.2249(3) 0.0013(12) 0.1974(6)
H1_2 H 0.248209 0.010620 0.170985
C7_2 C 0.1540(3) 0.0429(14) 0.2116(6)
H4_2 H 0.129901 0.082094 0.195259
C9_2 C 0.0862(6) 0.427(2) 0.0123(12)
C10_2 C 0.0415(5) 0.466(2) 0.0062(10)
C12_2 C 0.0248(7) 0.555(3) 0.0507(17)
H6_2 H 0.040053 0.591956 0.089030
C15_2 C 0.2473(3) 0.6405(9) 0.0472(5)
H7_2 H 0.245553 0.567064 0.079548
O1_2 O 0.21669(19) 0.1155(6) 0.0597(3)
O2_2 O 0.1543(2) 0.1863(8) 0.0818(4)
O5_2 O 0.1074(4) 0.482(2) 0.0629(11)
O8_2 O 0.20137(19) 0.4095(5) 0.0056(3)
C21_2 C 0.3010(3) 0.9854(9) 0.0376(5)
C22_2 C 0.2734(3) 0.8651(8) 0.0182(5)
C24_2 C 0.2707(4) 0.7542(10) 0.0655(6)
H12_2 H 0.284786 0.756150 0.109756
O11_2 O 0.3223(3) 0.9816(9) 0.0906(6)
O18_2 O 0.2730(2) 0.3174(7) 0.0983(3)
C11_2 C 0.0157(7) 0.404(4) 0.9587(15)
H5_2 H 0.025129 0.331114 0.930884
C13_2 C 0.1990(3) 0.5146(9) 0.9624(5)
C14_2 C 0.2266(3) 0.6349(8) 0.9818(5)
C16_2 C 0.2293(4) 0.7458(10) 0.9345(6)
H8_2 H 0.215214 0.743850 0.890244
O6_2 O 0.0972(3) 0.3454(16) 0.9741(7)
O7_2 O 0.1777(3) 0.5184(9) 0.9094(6)
C23_2 C 0.2527(3) 0.8595(9) 0.9528(5)
H11_2 H 0.254447 0.932936 0.920452
O17_2 O 0.28331(19) 0.3845(6) 0.9403(3)
C4_2 C 0.2256(3) 0.9348(12) 0.2655(5)
H2_2 H 0.249785 0.898719 0.283479
C5_2 C 0.1921(3) 0.9217(10) 0.3057(5)
C6_2 C 0.1561(3) 0.9740(14) 0.2774(6)
H3_2 H 0.132768 0.962453 0.303409
C8_2 C 0.1933(3) 0.8496(10) 0.3771(4)
O3_2 O 0.2270(2) 0.8174(7) 0.4017(3)
C28_2 C 0.7744(3) 0.0652(12) 0.7345(5)
H14_2 H 0.750215 0.101281 0.716521
C29_2 C 0.8079(3) 0.0783(10) 0.6943(5)
C30_2 C 0.8439(3) 0.0260(14) 0.7226(6)
H15_2 H 0.867232 0.037547 0.696591
C32_2 C 0.8067(3) 0.1504(10) 0.6229(4)
C19_2 C 0.9843(7) 0.596(4) 0.0413(15)
H9_2 H 0.974871 0.668886 0.069116
O10_2 O 0.9028(3) 0.6546(16) 0.0259(7)
O22_2 O 0.8223(3) 0.4816(9) 0.0906(6)
C17_2 C 0.9138(6) 0.573(2) 0.9877(12)
C18_2 C 0.9585(5) 0.534(2) 0.9938(10)
C20_2 C 0.9752(7) 0.445(3) 0.9493(17)
H10_2 H 0.959947 0.408044 0.910970
O9_2 O 0.8926(4) 0.518(2) 0.9371(11)
C25_2 C 0.8132(3) 0.8767(9) 0.9017(5)
C26_2 C 0.8118(3) 0.9474(10) 0.8295(5)
C27_2 C 0.7751(3) 0.9987(12) 0.8026(6)
H13_2 H 0.751791 0.989380 0.829015
C31_2 C 0.8460(3) 0.9571(14) 0.7884(6)
H16_2 H 0.870099 0.917906 0.804741
O13_2 O 0.78331(19) 0.8845(6) 0.9403(3)
O14_2 O 0.8457(2) 0.8137(8) 0.9182(4)
O23_2 O 0.79863(19) 0.5905(5) 0.9944(3)
C12_3 C 0.4752(7) 0.055(3) 0.4493(17)
H6_3 H 0.459947 0.091956 0.410970
C13_3 C 0.3010(3) 0.0146(9) 0.5376(5)
C14_3 C 0.2734(3) 0.1349(8) 0.5182(5)
C15_3 C 0.2527(3) 0.1405(9) 0.4528(5)
H7_3 H 0.254447 0.067064 0.420452
C16_3 C 0.2707(4) 0.2458(10) 0.5655(6)
H8_3 H 0.284786 0.243850 0.609756
O7_3 O 0.3223(3) 0.0184(9) 0.5906(6)
C17_3 C 0.5862(6) 0.073(2) 0.5123(12)
C18_3 C 0.5415(5) 0.034(2) 0.5062(10)
C19_3 C 0.5157(7) 0.096(4) 0.4587(15)
H9_3 H 0.525129 0.168886 0.430884
O9_3 O 0.6074(4) 0.018(2) 0.5629(11)
O10_3 O 0.5972(3) 0.1546(16) 0.4741(7)
C21_3 C 0.1990(3) 0.4854(9) 0.4624(5)
C22_3 C 0.2266(3) 0.3651(8) 0.4818(5)
C23_3 C 0.2473(3) 0.3595(9) 0.5472(5)
H11_3 H 0.245553 0.432936 0.579548
C24_3 C 0.2293(4) 0.2542(10) 0.4345(6)
H12_3 H 0.215214 0.256150 0.390244
C25_3 C 0.6868(3) 0.3767(9) 0.5983(5)
C26_3 C 0.6882(3) 0.4474(10) 0.6705(5)
C27_3 C 0.7249(3) 0.4987(12) 0.6974(6)
H13_3 H 0.748209 0.489380 0.670985
C28_3 C 0.7256(3) 0.5652(12) 0.7655(5)
H14_3 H 0.749785 0.601281 0.783479
C29_3 C 0.6921(3) 0.5783(10) 0.8057(5)
C30_3 C 0.6561(3) 0.5260(14) 0.7774(6)
H15_3 H 0.632768 0.537547 0.803409
C31_3 C 0.6540(3) 0.4571(14) 0.7116(6)
H16_3 H 0.629901 0.417906 0.695259
C32_3 C 0.6933(3) 0.6504(10) 0.8771(4)
O14_3 O 0.6543(2) 0.3137(8) 0.5818(4)
O15_2 O 0.7270(2) 0.6826(7) 0.9017(3)
O16_2 O 0.6602(2) 0.6718(8) 0.9071(4)
O20_2 O 0.6602(2) 0.3282(8) 0.4071(4)
Cu8_2 Cu 0.65266(3) 0.79318(11) 0.99073(6)
C1_3 C 0.3132(3) 0.6233(9) 0.4017(5)
C2_3 C 0.3118(3) 0.5526(10) 0.3295(5)
C3_3 C 0.2751(3) 0.5013(12) 0.3026(6)
H1_3 H 0.251791 0.510620 0.329015
C4_3 C 0.2744(3) 0.4348(12) 0.2345(5)
H2_3 H 0.250215 0.398719 0.216521
C5_3 C 0.3079(3) 0.4217(10) 0.1943(5)
C6_3 C 0.3439(3) 0.4740(14) 0.2226(6)
H3_3 H 0.367232 0.462453 0.196591
C7_3 C 0.3460(3) 0.5429(14) 0.2884(6)
H4_3 H 0.370099 0.582094 0.304741
C8_3 C 0.3067(3) 0.3496(10) 0.1229(4)
C9_3 C 0.4138(6) 0.927(2) 0.4877(12)
C10_3 C 0.4585(5) 0.966(2) 0.4938(10)
C11_3 C 0.4843(7) 0.904(4) 0.5413(15)
H5_3 H 0.474871 0.831114 0.569116
O1_3 O 0.28331(19) 0.6155(6) 0.4403(3)
O2_3 O 0.3457(2) 0.6863(8) 0.4182(4)
O4_2 O 0.3398(2) 0.3282(8) 0.0929(4)
O5_3 O 0.3926(4) 0.982(2) 0.4371(11)
O6_3 O 0.4028(3) 0.8454(16) 0.5259(7)
O8_3 O 0.29863(19) 0.9095(5) 0.4944(3)
Cu2_2 Cu 0.34734(3) 0.79318(11) 0.50927(6)
C20_3 C 0.5248(7) 0.945(3) 0.5507(17)
H10_3 H 0.540053 0.908044 0.589030
O19_2 O 0.2730(2) 0.6826(7) 0.5983(3)
O21_2 O 0.3398(2) 0.6718(8) 0.5929(4)
C12_4 C 0.5248(7) 0.055(3) 0.0507(17)
H6_4 H 0.540053 0.091956 0.089030
C15_4 C 0.7473(3) 0.1405(9) 0.0472(5)
H7_4 H 0.745553 0.067064 0.079548
C19_4 C 0.4843(7) 0.096(4) 0.0413(15)
H9_4 H 0.474871 0.168886 0.069116
O10_4 O 0.4028(3) 0.1546(16) 0.0259(7)
C21_4 C 0.8010(3) 0.4854(9) 0.0376(5)
C22_4 C 0.7734(3) 0.3651(8) 0.0182(5)
C24_4 C 0.7707(4) 0.2542(10) 0.0655(6)
H12_4 H 0.784786 0.256150 0.109756
C13_4 C 0.6990(3) 0.0146(9) 0.9624(5)
C14_4 C 0.7266(3) 0.1349(8) 0.9818(5)
C16_4 C 0.7293(4) 0.2458(10) 0.9345(6)
H8_4 H 0.715214 0.243850 0.890244
O7_4 O 0.6777(3) 0.0184(9) 0.9094(6)
C17_4 C 0.4138(6) 0.073(2) 0.9877(12)
C18_4 C 0.4585(5) 0.034(2) 0.9938(10)
O9_4 O 0.3926(4) 0.018(2) 0.9371(11)
C23_4 C 0.7527(3) 0.3595(9) 0.9528(5)
H11_4 H 0.754447 0.432936 0.920452
C25_4 C 0.3132(3) 0.3767(9) 0.9017(5)
C26_4 C 0.3118(3) 0.4474(10) 0.8295(5)
C27_4 C 0.2751(3) 0.4987(12) 0.8026(6)
H13_4 H 0.251791 0.489380 0.829015
C28_4 C 0.2744(3) 0.5652(12) 0.7345(5)
H14_4 H 0.250215 0.601281 0.716521
C29_4 C 0.3079(3) 0.5783(10) 0.6943(5)
C30_4 C 0.3439(3) 0.5260(14) 0.7226(6)
H15_4 H 0.367232 0.537547 0.696591
C31_4 C 0.3460(3) 0.4571(14) 0.7884(6)
H16_4 H 0.370099 0.417906 0.804741
C32_4 C 0.3067(3) 0.6504(10) 0.6229(4)
O14_4 O 0.3457(2) 0.3137(8) 0.9182(4)
C1_4 C 0.6868(3) 0.6233(9) 0.0983(5)
C2_4 C 0.6882(3) 0.5526(10) 0.1705(5)
C3_4 C 0.7249(3) 0.5013(12) 0.1974(6)
H1_4 H 0.748209 0.510620 0.170985
C4_4 C 0.7256(3) 0.4348(12) 0.2655(5)
H2_4 H 0.749785 0.398719 0.283479
C5_4 C 0.6921(3) 0.4217(10) 0.3057(5)
C6_4 C 0.6561(3) 0.4740(14) 0.2774(6)
H3_4 H 0.632768 0.462453 0.303409
C7_4 C 0.6540(3) 0.5429(14) 0.2116(6)
H4_4 H 0.629901 0.582094 0.195259
C8_4 C 0.6933(3) 0.3496(10) 0.3771(4)
C9_4 C 0.5862(6) 0.927(2) 0.0123(12)
C10_4 C 0.5415(5) 0.966(2) 0.0062(10)
O1_4 O 0.71669(19) 0.6155(6) 0.0597(3)
O2_4 O 0.6543(2) 0.6863(8) 0.0818(4)
O5_4 O 0.6074(4) 0.982(2) 0.0629(11)
O8_4 O 0.70137(19) 0.9095(5) 0.0056(3)
C11_4 C 0.5157(7) 0.904(4) 0.9587(15)
H5_4 H 0.525129 0.831114 0.930884
O6_4 O 0.5972(3) 0.8454(16) 0.9741(7)
C20_4 C 0.4752(7) 0.945(3) 0.9493(17)
H10_4 H 0.459947 0.908044 0.910970
loop_
_geom_bond_atom_site_label_1
_geom_bond_atom_site_label_2
_geom_bond_site_symmetry_1
_geom_bond_site_symmetry_2
H14 C28 1_555 1_555
C29 C28 1_555 1_555
C30 C29 1_555 1_555
H15 C30 1_555 1_555
C32 C29 1_555 1_555
O15 C32 1_555 1_555
O16 C32 1_555 1_555
Cu5_2 O15 1_555 1_555
Cu8 O16 1_555 1_555
C17 C18 1_555 1_555
C18 C19 1_555 1_555
H9 C19 1_555 1_555
H10 C20 1_555 1_555
O9 C17 1_555 1_555
O10 C17 1_555 1_555
C25 C26 1_555 1_555
C26 C27 1_555 1_555
C27 H13 1_555 1_555
C31 C26 1_555 1_555
H16 C31 1_555 1_555
O13 C25 1_555 1_555
O14 C25 1_555 1_555
Cu3 O9 1_555 1_555
O20 Cu3 1_555 1_555
O22 Cu3 1_555 1_555
O23 Cu3 1_555 1_555
Cu6 O13 1_555 1_555
C18 C20 1_555 1_555
O10 Cu3 1_555 1_555
O14 Cu3 1_555 1_555
O23 Cu6 1_555 1_555
Cu4 O12 1_555 1_555
O12 Cu10 1_555 1_555
C1 C2 1_555 1_555
C2 C3 1_555 1_555
C3 H1 1_555 1_555
C7 C2 1_555 1_555
H4 C7 1_555 1_555
C9 C10 1_555 1_555
C10 C11 1_555 1_555
C11 H5 1_555 1_555
C12 C10 1_555 1_555
H6 C12 1_555 1_555
C13 C14 1_555 1_555
C14 C15 1_555 1_555
C15 H7 1_555 1_555
C16 C14 1_555 1_555
H8 C16 1_555 1_555
O1 C1 1_555 1_555
O2 C1 1_555 1_555
O5 C9 1_555 1_555
O6 C9 1_555 1_555
O7 C13 1_555 1_555
O8 C13 1_555 1_555
Cu4 O1 1_555 1_555
Cu2 O2 1_555 1_555
C21 C22 1_555 1_555
C22 C23 1_555 1_555
C23 C16 1_555 1_555
H11 C23 1_555 1_555
C24 C15 1_555 1_555
H12 C24 1_555 1_555
O11 C21 1_555 1_555
O17 Cu4 1_555 1_555
O18 Cu4 1_555 1_555
O19 Cu4 1_555 1_555
O21 Cu2 1_555 1_555
O5 Cu2 1_555 1_555
O6 Cu2 1_555 1_555
O7 Cu2 1_555 1_555
O8 Cu4 1_555 1_555
O8 Cu2 1_555 1_555
C22 C24 1_555 1_555
H2 C4 1_555 1_555
C5 C4 1_555 1_555
C6 C5 1_555 1_555
H3 C6 1_555 1_555
C8 C5 1_555 1_555
O3 C8 1_555 1_555
O4 C8 1_555 1_555
Cu7 O3 1_555 1_555
Cu9 O4 1_555 1_555
Cu5_2 O12_2 1_555 1_555
C1_2 C2_2 1_555 1_555
C2_2 C3_2 1_555 1_555
C3_2 H1_2 1_555 1_555
C7_2 C2_2 1_555 1_555
H4_2 C7_2 1_555 1_555
C9_2 C10_2 1_555 1_555
C12_2 C10_2 1_555 1_555
H6_2 C12_2 1_555 1_555
C15_2 H7_2 1_555 1_555
O1_2 C1_2 1_555 1_555
O2_2 C1_2 1_555 1_555
O5_2 C9_2 1_555 1_555
Cu5 O1_2 1_555 1_555
C21_2 C22_2 1_555 1_555
C24_2 C15_2 1_555 1_555
H12_2 C24_2 1_555 1_555
O11_2 C21_2 1_555 1_555
O18_2 Cu5 1_555 1_555
O8_2 Cu5 1_555 1_555
C22_2 C24_2 1_555 1_555
C11_2 H5_2 1_555 1_555
C13_2 C14_2 1_555 1_555
C16_2 C14_2 1_555 1_555
H8_2 C16_2 1_555 1_555
O7_2 C13_2 1_555 1_555
C23_2 C16_2 1_555 1_555
H11_2 C23_2 1_555 1_555
O17_2 Cu5_2 1_555 1_555
O6_2 Cu8 1_555 1_555
O7_2 Cu8 1_555 1_555
H2_2 C4_2 1_555 1_555
C5_2 C4_2 1_555 1_555
C6_2 C5_2 1_555 1_555
H3_2 C6_2 1_555 1_555
C8_2 C5_2 1_555 1_555
O3_2 C8_2 1_555 1_555
O20 C8_2 1_555 1_555
Cu6 O3_2 1_555 1_555
H14_2 C28_2 1_555 1_555
C29_2 C28_2 1_555 1_555
C30_2 C29_2 1_555 1_555
H15_2 C30_2 1_555 1_555
C32_2 C29_2 1_555 1_555
O19 C32_2 1_555 1_555
O21 C32_2 1_555 1_555
H9_2 C19_2 1_555 1_555
O22_2 Cu9 1_555 1_555
O10_2 Cu9 1_555 1_555
C17_2 C18_2 1_555 1_555
H10_2 C20_2 1_555 1_555
O9_2 C17_2 1_555 1_555
C25_2 C26_2 1_555 1_555
C26_2 C27_2 1_555 1_555
C27_2 H13_2 1_555 1_555
C31_2 C26_2 1_555 1_555
H16_2 C31_2 1_555 1_555
O13_2 C25_2 1_555 1_555
O14_2 C25_2 1_555 1_555
Cu7_2 O13_2 1_555 1_555
C18_2 C20_2 1_555 1_555
O23_2 Cu7_2 1_555 1_555
H6_3 C12_3 1_555 1_555
C13_3 C14_3 1_555 1_555
C14_3 C15_3 1_555 1_555
C15_3 H7_3 1_555 1_555
C16_3 C14_3 1_555 1_555
H8_3 C16_3 1_555 1_555
O7_3 C13_3 1_555 1_555
C17_3 C18_3 1_555 1_555
C18_3 C19_3 1_555 1_555
C19_3 C12_3 1_555 1_555
H9_3 C19_3 1_555 1_555
O9_3 C17_3 1_555 1_555
O10_3 C17_3 1_555 1_555
C21_3 C22_3 1_555 1_555
C22_3 C23_3 1_555 1_555
C23_3 C16_3 1_555 1_555
H11_3 C23_3 1_555 1_555
C24_3 C15_3 1_555 1_555
H12_3 C24_3 1_555 1_555
O22 C21_3 1_555 1_555
O23 C21_3 1_555 1_555
C25_3 C26_3 1_555 1_555
C26_3 C27_3 1_555 1_555
C27_3 H13_3 1_555 1_555
C28_3 C27_3 1_555 1_555
H14_3 C28_3 1_555 1_555
C29_3 C28_3 1_555 1_555
C30_3 C29_3 1_555 1_555
H15_3 C30_3 1_555 1_555
C31_3 C26_3 1_555 1_555
H16_3 C31_3 1_555 1_555
C32_3 C29_3 1_555 1_555
O17 C25_3 1_555 1_555
O14_3 C25_3 1_555 1_555
O15_2 C32_3 1_555 1_555
O16_2 C32_3 1_555 1_555
Cu10 O9_3 1_555 1_555
O20_2 Cu10 1_555 1_555
Cu7_2 O15_2 1_555 1_555
Cu8_2 O16_2 1_555 1_555
O10_3 Cu10 1_555 1_555
C22_3 C24_3 1_555 1_555
C30_3 C31_3 1_555 1_555
O14_3 Cu10 1_555 1_555
C1_3 C2_3 1_555 1_555
C2_3 C3_3 1_555 1_555
C3_3 H1_3 1_555 1_555
C4_3 C3_3 1_555 1_555
H2_3 C4_3 1_555 1_555
C5_3 C4_3 1_555 1_555
C6_3 C5_3 1_555 1_555
H3_3 C6_3 1_555 1_555
C7_3 C2_3 1_555 1_555
H4_3 C7_3 1_555 1_555
C8_3 C5_3 1_555 1_555
C9_3 C10_3 1_555 1_555
C10_3 C11_3 1_555 1_555
C11_3 H5_3 1_555 1_555
O1_3 C1_3 1_555 1_555
O2_3 C1_3 1_555 1_555
O18_2 C8_3 1_555 1_555
O4_2 C8_3 1_555 1_555
O5_3 C9_3 1_555 1_555
O6_3 C9_3 1_555 1_555
Cu6 O1_3 1_555 1_555
Cu2_2 O2_3 1_555 1_555
C20_3 C11_3 1_555 1_555
H10_3 C20_3 1_555 1_555
O19_2 Cu6 1_555 1_555
O21_2 Cu2_2 1_555 1_555
Cu10_2 O4_2 1_555 1_555
C6_3 C7_3 1_555 1_555
O5_3 Cu2_2 1_555 1_555
O6_3 Cu2_2 1_555 1_555
O8_3 Cu6 1_555 1_555
O8_3 Cu2_2 1_555 1_555
H6_4 C12_4 1_555 1_555
C15_4 H7_4 1_555 1_555
C19_4 C12_4 1_555 1_555
H9_4 C19_4 1_555 1_555
C21_4 C22_4 1_555 1_555
C24_4 C15_4 1_555 1_555
H12_4 C24_4 1_555 1_555
O22_2 C21_4 1_555 1_555
O10_4 Cu10_2 1_555 1_555
C22_4 C24_4 1_555 1_555
C13_4 C14_4 1_555 1_555
C16_4 C14_4 1_555 1_555
H8_4 C16_4 1_555 1_555
O7_4 C13_4 1_555 1_555
C17_4 C18_4 1_555 1_555
O9_4 C17_4 1_555 1_555
C23_4 C16_4 1_555 1_555
H11_4 C23_4 1_555 1_555
C25_4 C26_4 1_555 1_555
C26_4 C27_4 1_555 1_555
C27_4 H13_4 1_555 1_555
C28_4 C27_4 1_555 1_555
H14_4 C28_4 1_555 1_555
C29_4 C28_4 1_555 1_555
C30_4 C29_4 1_555 1_555
H15_4 C30_4 1_555 1_555
C31_4 C26_4 1_555 1_555
H16_4 C31_4 1_555 1_555
C32_4 C29_4 1_555 1_555
O17_2 C25_4 1_555 1_555
O14_4 C25_4 1_555 1_555
O19_2 C32_4 1_555 1_555
O21_2 C32_4 1_555 1_555
C30_4 C31_4 1_555 1_555
C1_4 C2_4 1_555 1_555
C2_4 C3_4 1_555 1_555
C3_4 H1_4 1_555 1_555
C4_4 C3_4 1_555 1_555
H2_4 C4_4 1_555 1_555
C5_4 C4_4 1_555 1_555
C6_4 C5_4 1_555 1_555
H3_4 C6_4 1_555 1_555
C7_4 C2_4 1_555 1_555
H4_4 C7_4 1_555 1_555
C8_4 C5_4 1_555 1_555
C9_4 C10_4 1_555 1_555
O1_4 C1_4 1_555 1_555
O2_4 C1_4 1_555 1_555
O18 C8_4 1_555 1_555
O20_2 C8_4 1_555 1_555
O5_4 C9_4 1_555 1_555
Cu7 O1_4 1_555 1_555
C6_4 C7_4 1_555 1_555
O8_4 Cu7 1_555 1_555
C11_4 H5_4 1_555 1_555
C20_4 C11_4 1_555 1_555
H10_4 C20_4 1_555 1_555
O6_4 Cu8_2 1_555 1_555

#END
