
###############################################################################
#
# This file contains modified crystal structure data generated from the
# MOF subset of the Cambridge Structural Database (CSD) v543 
# hosted by the Cambridge Crystallographic Data Centre (CCDC).
#
# This work is licensed under the Creative Commons
# Attribution-NonCommercial-ShareAlike 4.0 International License.
# To view a copy of this license, visit
# http://creativecommons.org/licenses/by-nc-sa/4.0/
# or send a letter to
# Creative Commons, PO Box 1866, Mountain View, CA 94042, USA.
#
# CIF created using the CSD Python API on 29 September 2022
# The structure has been converted into the P1 space group
# The structure has a 3D framework
# The original CSD entry UJAQUS is in the orthorhombic crystal system
# The original CSD entry UJAQUS is in a Sohncke space group
# The framework has been calculated to contain at least 10.0% void space
# The void calculation uses a probe of radius 1.32A, grid spacing 0.4
#
###############################################################################

data_UJAQUS
_chemical_formula_moiety         '(C108 H124 N12 O50 Zn8)n'
_symmetry_cell_setting           triclinic
_symmetry_space_group_name_H-M   'P 1'
_symmetry_Int_Tables_number      1
_space_group_name_Hall           'P 1'
loop_
_symmetry_equiv_pos_site_id
_symmetry_equiv_pos_as_xyz
1 x,y,z
_cell_length_a                   11.10990(10)
_cell_length_b                   13.89090(10)
_cell_length_c                   22.4850(4)
_cell_angle_alpha                90
_cell_angle_beta                 90
_cell_angle_gamma                90
_cell_volume                     3470.03
loop_
_atom_site_label
_atom_site_type_symbol
_atom_site_fract_x
_atom_site_fract_y
_atom_site_fract_z
C5 C 0.0509(3) 0.61795(19) 0.35715(14)
H2 H 0.0895 0.6240 0.3196
C6 C 0.0735(3) 0.68401(19) 0.40297(13)
C7 C 0.0170(3) 0.6750(2) 0.45739(14)
H3 H 0.0302 0.7221 0.4873
C8 C 0.1576(3) 0.76778(19) 0.39303(13)
O3 O 0.22900(18) 0.76623(13) 0.34912(10)
O4 O 0.15065(19) 0.83391(12) 0.43126(9)
C9 C 0.0053(3) 0.4704(2) 0.27362(13)
H4 H 0.0926 0.4670 0.2823
H7 H 0.0016 0.3804 0.2013
C11 C 0.1133(3) 0.26332(19) 0.26766(13)
C12 C 0.1345(3) 0.17561(18) 0.29637(12)
H8 H 0.0720 0.1460 0.3187
C13 C 0.2458(3) 0.1318(2) 0.29248(13)
C14 C 0.3399(3) 0.1774(2) 0.26224(13)
H9 H 0.4167 0.1477 0.2596
C15 C 0.3198(3) 0.26735(19) 0.23600(13)
C16 C 0.2062(3) 0.3091(2) 0.23782(14)
H10 H 0.1922 0.3690 0.2186
C17 C 0.4184(3) 0.3212(2) 0.20432(14)
O7 O 0.52267(19) 0.28128(14) 0.20224(10)
O8 O 0.3948(2) 0.40024(15) 0.18114(10)
C18 C 0.2587(3) 0.0339(2) 0.31999(13)
O10 O 0.17270(18) 0.00158(13) 0.34945(10)
C22 C 0.0773(3) 0.0118(2) 0.56758(15)
H18 H 0.1255 0.0680 0.5637
C24 C 0.0350(5) 0.0646(3) 0.66800(17)
H22 H 0.0860 0.1187 0.6558
H23 H 0.0733 0.0305 0.7012
O13 O 0.1256(2) 0.12831(14) 0.45184(10)
C25 C 0.2129(3) 0.1821(2) 0.44422(15)
H25 H 0.2906 0.1540 0.4410
N3 N 0.2036(3) 0.27672(18) 0.44035(14)
C26 C 0.3084(5) 0.3363(3) 0.4286(3)
H26 H 0.3788 0.2951 0.4223
H27 H 0.3230 0.3788 0.4627
H28 H 0.2941 0.3753 0.3930
C27 C 0.0867(4) 0.3227(2) 0.44362(19)
H29 H 0.0603 0.3406 0.4035
H30 H 0.0923 0.3806 0.4684
H31 H 0.0284 0.2780 0.4612
Zn3 Zn 0.36789(3) 0.85917(2) 0.347009(14)
Zn5 Zn 0.63211(3) 0.35917(2) 0.152991(14)
Zn6 Zn 0.13414(3) 0.98126(2) 0.438606(15)
O9 O 0.3550(2) 0.98707(13) 0.30940(9)
O12 O 0.0729(2) 0.95614(16) 0.52519(10)
N2 N 0.0197(3) 0.99863(19) 0.61805(13)
O14 O 0.3153(2) 0.98610(14) 0.46396(10)
O15 O 0.42100(19) 0.85946(14) 0.43027(9)
O18 O 0.47733(19) 0.78128(14) 0.29776(10)
O1 O 0.8153(2) 0.51390(14) 0.53604(10)
C1 C 0.8865(3) 0.58277(19) 0.52909(14)
O2 O 0.92100(19) 0.64054(14) 0.56973(9)
C2 C 0.9410(3) 0.5975(2) 0.46877(14)
C3 C 0.9162(3) 0.53259(19) 0.42346(13)
H1 H 0.8621 0.4808 0.4303
C4 C 0.9701(3) 0.5431(2) 0.36815(14)
O5 O 0.9379(2) 0.47430(15) 0.32737(9)
H5 H 0.9898 0.5283 0.2491
C10 C 0.9649(3) 0.38128(18) 0.24141(14)
H6 H 0.8764 0.3835 0.2364
O6 O 0.99674(19) 0.29495(14) 0.27204(10)
H17 H 0.7528 0.0240 0.4475
H24 H 0.9562 0.0889 0.6806
Zn4 Zn 0.86789(3) 0.64083(2) 0.652991(14)
Zn7 Zn 0.63414(3) 0.51874(2) 0.561394(15)
O1_2 O 0.6847(2) 0.48610(14) 0.03604(10)
C1_2 C 0.6135(3) 0.41723(19) 0.02909(14)
O2_2 O 0.57900(19) 0.35946(14) 0.06973(9)
C22_2 C 0.4227(3) 0.9882(2) 0.06758(15)
H18_2 H 0.3745 0.9320 0.0637
C24_2 C 0.4650(5) 0.9354(3) 0.16800(17)
H22_2 H 0.4140 0.8813 0.1558
H23_2 H 0.4267 0.9695 0.2012
H24_2 H 0.5438 0.9111 0.1806
Zn7_2 Zn 0.86586(3) 0.48126(2) 0.061394(15)
O7_2 O 0.97733(19) 0.71872(14) 0.70224(10)
H1_2 H 0.3621 0.0192 0.5697
O5_2 O 0.4379(2) 0.02570(15) 0.67263(9)
C9_2 C 0.5053(3) 0.0296(2) 0.72638(13)
H4_2 H 0.5926 0.0330 0.7177
C10_2 C 0.4649(3) 0.11872(18) 0.75859(14)
H6_2 H 0.3764 0.1165 0.7636
H7_2 H 0.5016 0.1196 0.7987
O6_2 O 0.49674(19) 0.20505(14) 0.72796(10)
C11_2 C 0.6133(3) 0.23668(19) 0.73234(13)
C12_2 C 0.6345(3) 0.32439(18) 0.70363(12)
H8_2 H 0.5720 0.3540 0.6813
C13_2 C 0.7458(3) 0.3682(2) 0.70752(13)
C14_2 C 0.8399(3) 0.3226(2) 0.73776(13)
H9_2 H 0.9167 0.3523 0.7404
C15_2 C 0.8198(3) 0.23265(19) 0.76400(13)
C16_2 C 0.7062(3) 0.1909(2) 0.76218(14)
H10_2 H 0.6922 0.1310 0.7814
C17_2 C 0.9184(3) 0.1788(2) 0.79568(14)
O8_2 O 0.8948(2) 0.09976(15) 0.81886(10)
C18_2 C 0.7587(3) 0.4661(2) 0.68001(13)
O9_2 O 0.8550(2) 0.51293(13) 0.69060(9)
O10_2 O 0.67270(18) 0.49842(13) 0.65055(10)
O11 O 0.4499(2) 0.52244(16) 0.58391(11)
C19 C 0.3955(3) 0.6017(2) 0.58494(15)
H11 H 0.4394 0.6562 0.5984
N1 N 0.2835(3) 0.61580(18) 0.56905(13)
C20 C 0.2316(3) 0.7125(2) 0.56995(16)
H12 H 0.2788 0.7536 0.5966
H13 H 0.1483 0.7092 0.5842
H14 H 0.2329 0.7395 0.5297
C21 C 0.2099(3) 0.5370(3) 0.54684(19)
H15 H 0.1939 0.5466 0.5044
H16 H 0.1336 0.5351 0.5687
H17_2 H 0.2528 0.4760 0.5525
O12_2 O 0.5729(2) 0.54386(16) 0.47481(10)
C22_3 C 0.5773(3) 0.4882(2) 0.43242(15)
H18_3 H 0.6255 0.4320 0.4363
N2_2 N 0.5197(3) 0.50137(19) 0.38195(13)
C23 C 0.4384(5) 0.5827(3) 0.3734(2)
H19 H 0.4370 0.6220 0.4096
H20 H 0.3571 0.5588 0.3651
H21 H 0.4665 0.6218 0.3399
C24_3 C 0.5350(5) 0.4354(3) 0.33200(17)
H22_3 H 0.5860 0.3813 0.3442
H23_3 H 0.5733 0.4695 0.2988
H24_3 H 0.4562 0.4111 0.3194
O13_2 O 0.6256(2) 0.37169(14) 0.54816(10)
C25_2 C 0.7129(3) 0.3179(2) 0.55578(15)
H25_2 H 0.7906 0.3460 0.5590
N3_2 N 0.7036(3) 0.22328(18) 0.55965(14)
C26_2 C 0.8084(5) 0.1637(3) 0.5714(3)
H26_2 H 0.8788 0.2049 0.5777
H27_2 H 0.8230 0.1212 0.5373
H28_2 H 0.7941 0.1247 0.6070
C27_2 C 0.5867(4) 0.1773(2) 0.55638(19)
H29_2 H 0.5603 0.1594 0.5965
H30_2 H 0.5923 0.1194 0.5316
H31_2 H 0.5284 0.2220 0.5388
O16 O 0.72900(18) 0.73377(13) 0.65088(10)
O17 O 0.65065(19) 0.66609(12) 0.56874(9)
C1_3 C 0.3865(3) 0.91723(19) 0.47091(14)
C2_2 C 0.4410(3) 0.9025(2) 0.53123(14)
C3_2 C 0.4162(3) 0.96741(19) 0.57654(13)
C4_2 C 0.4701(3) 0.9569(2) 0.63185(14)
C5_2 C 0.5509(3) 0.88205(19) 0.64285(14)
H2_2 H 0.5895 0.8760 0.6804
C6_2 C 0.5735(3) 0.81599(19) 0.59703(13)
C7_2 C 0.5170(3) 0.8250(2) 0.54261(14)
H3_2 H 0.5302 0.7779 0.5127
C8_2 C 0.6576(3) 0.73222(19) 0.60697(13)
H5_2 H 0.4898 0.9717 0.7509
C5_3 C 0.9491(3) 0.11795(19) 0.14285(14)
H2_3 H 0.9105 0.1240 0.1804
C6_3 C 0.9265(3) 0.18401(19) 0.09703(13)
C7_3 C 0.9830(3) 0.1750(2) 0.04261(14)
H3_3 H 0.9698 0.2221 0.0127
C8_3 C 0.8424(3) 0.26778(19) 0.10697(13)
O3_2 O 0.77100(18) 0.26623(13) 0.15088(10)
O4_2 O 0.84935(19) 0.33391(12) 0.06874(9)
C9_3 C 0.9947(3) 0.9704(2) 0.22638(13)
H4_3 H 0.9074 0.9670 0.2177
H7_3 H 0.9984 0.8804 0.2987
C11_3 C 0.8867(3) 0.76332(19) 0.23234(13)
C12_3 C 0.8655(3) 0.67561(18) 0.20363(12)
H8_3 H 0.9280 0.6460 0.1813
C13_3 C 0.7542(3) 0.6318(2) 0.20752(13)
C14_3 C 0.6601(3) 0.6774(2) 0.23776(13)
H9_3 H 0.5833 0.6477 0.2404
C15_3 C 0.6802(3) 0.76735(19) 0.26400(13)
C16_3 C 0.7938(3) 0.8091(2) 0.26218(14)
H10_3 H 0.8078 0.8690 0.2814
C17_3 C 0.5816(3) 0.8212(2) 0.29568(14)
O8_3 O 0.6052(2) 0.90024(15) 0.31886(10)
C18_3 C 0.7413(3) 0.5339(2) 0.18001(13)
O9_3 O 0.6450(2) 0.48707(13) 0.19060(9)
O10_3 O 0.82730(18) 0.50158(13) 0.15055(10)
O13_3 O 0.8744(2) 0.62831(14) 0.04816(10)
C25_3 C 0.7871(3) 0.6821(2) 0.05578(15)
H25_3 H 0.7094 0.6540 0.0590
N3_3 N 0.7964(3) 0.77672(18) 0.05965(14)
C26_3 C 0.6916(5) 0.8363(3) 0.0714(3)
H26_3 H 0.6212 0.7951 0.0777
H27_3 H 0.6770 0.8788 0.0373
H28_3 H 0.7059 0.8753 0.1070
C27_3 C 0.9133(4) 0.8227(2) 0.05638(19)
H29_3 H 0.9397 0.8406 0.0965
H30_3 H 0.9077 0.8806 0.0316
H31_3 H 0.9716 0.7780 0.0388
O11_2 O 0.9499(2) 0.97756(16) 0.41609(11)
C19_2 C 0.8955(3) 0.8983(2) 0.41506(15)
H11_2 H 0.9394 0.8438 0.4016
N1_2 N 0.7835(3) 0.88420(18) 0.43095(13)
C20_2 C 0.7316(3) 0.7875(2) 0.43005(16)
H12_2 H 0.7788 0.7464 0.4034
H13_2 H 0.6483 0.7908 0.4158
H14_2 H 0.7329 0.7605 0.4703
C21_2 C 0.7099(3) 0.9630(3) 0.45316(19)
H15_2 H 0.6939 0.9534 0.4956
H16_2 H 0.6336 0.9649 0.4313
C23_2 C 0.9384(5) 0.9173(3) 0.6266(2)
H19_2 H 0.9370 0.8780 0.5904
H20_2 H 0.8571 0.9412 0.6349
H21_2 H 0.9665 0.8782 0.6601
O12_3 O 0.4271(2) 0.04386(16) 0.02519(10)
N2_3 N 0.4803(3) 0.00137(19) 0.11805(13)
C23_3 C 0.5616(5) 0.0827(3) 0.1266(2)
H19_3 H 0.5630 0.1220 0.0904
H20_3 H 0.6429 0.0588 0.1349
H21_3 H 0.5335 0.1218 0.1601
Zn1 Zn 0.13211(3) 0.14083(2) 0.847009(14)
Zn2 Zn 0.36586(3) 0.01874(2) 0.938606(15)
O9_4 O 0.1450(2) 0.01293(13) 0.80940(9)
O11_3 O 0.5501(2) 0.02244(16) 0.91609(11)
C19_3 C 0.6045(3) 0.1017(2) 0.91506(15)
H11_3 H 0.5606 0.1562 0.9016
N1_3 N 0.7165(3) 0.11580(18) 0.93095(13)
C20_3 C 0.7684(3) 0.2125(2) 0.93005(16)
H12_3 H 0.7212 0.2536 0.9034
H13_3 H 0.8517 0.2092 0.9158
H14_3 H 0.7671 0.2395 0.9703
C21_3 C 0.7901(3) 0.0370(3) 0.95316(19)
H15_3 H 0.8061 0.0466 0.9956
H16_3 H 0.8664 0.0351 0.9313
O14_2 O 0.1847(2) 0.01390(14) 0.96396(10)
O15_2 O 0.07900(19) 0.14054(14) 0.93027(9)
O16_2 O 0.27100(18) 0.23377(13) 0.84912(10)
O17_2 O 0.34935(19) 0.16609(12) 0.93126(9)
O18_2 O 0.02267(19) 0.21872(14) 0.79776(10)
C2_3 C 0.5590(3) 0.4025(2) 0.96877(14)
C3_3 C 0.5838(3) 0.46741(19) 0.92346(13)
H1_3 H 0.6379 0.5192 0.9303
C4_3 C 0.5299(3) 0.4569(2) 0.86815(14)
C5_4 C 0.4491(3) 0.38205(19) 0.85715(14)
H2_4 H 0.4105 0.3760 0.8196
C6_4 C 0.4265(3) 0.31599(19) 0.90297(13)
C7_4 C 0.4830(3) 0.3250(2) 0.95739(14)
H3_4 H 0.4698 0.2779 0.9873
C8_4 C 0.3424(3) 0.23222(19) 0.89303(13)
O5_3 O 0.5621(2) 0.52570(15) 0.82737(9)
C9_4 C 0.4947(3) 0.5296(2) 0.77362(13)
H4_4 H 0.4074 0.5330 0.7823
H5_3 H 0.5102 0.4717 0.7491
C10_3 C 0.5351(3) 0.61872(18) 0.74141(14)
H6_3 H 0.6236 0.6165 0.7364
H7_4 H 0.4984 0.6196 0.7013
O6_3 O 0.50326(19) 0.70505(14) 0.77204(10)
C11_4 C 0.3867(3) 0.73668(19) 0.76766(13)
C12_4 C 0.3655(3) 0.82439(18) 0.79637(12)
H8_4 H 0.4280 0.8540 0.8187
C13_4 C 0.2542(3) 0.8682(2) 0.79248(13)
C14_4 C 0.1601(3) 0.8226(2) 0.76224(13)
H9_4 H 0.0833 0.8523 0.7596
C15_4 C 0.1802(3) 0.73265(19) 0.73600(13)
C16_4 C 0.2938(3) 0.6909(2) 0.73782(14)
H10_4 H 0.3078 0.6310 0.7186
C17_4 C 0.0816(3) 0.6788(2) 0.70432(14)
O8_4 O 0.1052(2) 0.59976(15) 0.68114(10)
C18_4 C 0.2413(3) 0.9661(2) 0.81999(13)
O10_4 O 0.32730(18) 0.99842(13) 0.84945(10)
H17_3 H 0.7472 0.9760 0.9475
O13_4 O 0.3744(2) 0.87169(14) 0.95184(10)
C25_4 C 0.2871(3) 0.8179(2) 0.94422(15)
H25_4 H 0.2094 0.8460 0.9410
N3_4 N 0.2964(3) 0.72328(18) 0.94035(14)
C26_4 C 0.1916(5) 0.6637(3) 0.9286(3)
H26_4 H 0.1212 0.7049 0.9223
H27_4 H 0.1770 0.6212 0.9627
H28_4 H 0.2059 0.6247 0.8930
C27_4 C 0.4133(4) 0.6773(2) 0.94362(19)
H29_4 H 0.4397 0.6594 0.9035
H30_4 H 0.4077 0.6194 0.9684
H31_4 H 0.4716 0.7220 0.9612
C1_4 C 0.1135(3) 0.08277(19) 0.97091(14)
C2_4 C 0.0590(3) 0.0975(2) 0.03123(14)
C3_4 C 0.0838(3) 0.03259(19) 0.07654(13)
C4_4 C 0.0299(3) 0.0431(2) 0.13185(14)
H5_4 H 0.0102 0.0283 0.2509
H1_4 H 0.1379 0.9808 0.0697
O5_4 O 0.0621(2) 0.97430(15) 0.17263(9)
C10_4 C 0.0351(3) 0.88128(18) 0.25859(14)
H6_4 H 0.1236 0.8835 0.2636
O6_4 O 0.00326(19) 0.79495(14) 0.22796(10)
O11_4 O 0.0501(2) 0.47756(16) 0.08391(11)
C19_4 C 0.1045(3) 0.3983(2) 0.08494(15)
H11_4 H 0.0606 0.3438 0.0984
N1_4 N 0.2165(3) 0.38420(18) 0.06905(13)
C20_4 C 0.2684(3) 0.2875(2) 0.06995(16)
H12_4 H 0.2212 0.2464 0.0966
H13_4 H 0.3517 0.2908 0.0842
H14_4 H 0.2671 0.2605 0.0297
C21_4 C 0.2901(3) 0.4630(3) 0.04684(19)
H15_4 H 0.3061 0.4534 0.0044
H16_4 H 0.3664 0.4649 0.0687
H17_4 H 0.2472 0.5240 0.0525
C23_4 C 0.0616(5) 0.4173(3) 0.8734(2)
H19_4 H 0.0630 0.3780 0.9096
H20_4 H 0.1429 0.4412 0.8651
H21_4 H 0.0335 0.3782 0.8399
H24_4 H 0.0438 0.5889 0.8194
O12_4 O 0.9271(2) 0.45614(16) 0.97481(10)
C22_4 C 0.9227(3) 0.5118(2) 0.93242(15)
H18_4 H 0.8745 0.5680 0.9363
N2_4 N 0.9803(3) 0.49863(19) 0.88195(13)
C24_4 C 0.9650(5) 0.5646(3) 0.83200(17)
H22_4 H 0.9140 0.6187 0.8442
H23_4 H 0.9267 0.5305 0.7988
loop_
_geom_bond_atom_site_label_1
_geom_bond_atom_site_label_2
_geom_bond_site_symmetry_1
_geom_bond_site_symmetry_2
H2 C5 1_555 1_555
C6 C5 1_555 1_555
H3 C7 1_555 1_555
C8 C6 1_555 1_555
O3 C8 1_555 1_555
O4 C8 1_555 1_555
H4 C9 1_555 1_555
C12 C11 1_555 1_555
H8 C12 1_555 1_555
C13 C12 1_555 1_555
C14 C13 1_555 1_555
H9 C14 1_555 1_555
C15 C14 1_555 1_555
C16 C11 1_555 1_555
H10 C16 1_555 1_555
C17 C15 1_555 1_555
O7 C17 1_555 1_555
O8 C17 1_555 1_555
C18 C13 1_555 1_555
O10 C18 1_555 1_555
H18 C22 1_555 1_555
H22 C24 1_555 1_555
H23 C24 1_555 1_555
C25 O13 1_555 1_555
H25 C25 1_555 1_555
N3 C25 1_555 1_555
C26 N3 1_555 1_555
H26 C26 1_555 1_555
H27 C26 1_555 1_555
H28 C26 1_555 1_555
C27 N3 1_555 1_555
H29 C27 1_555 1_555
H30 C27 1_555 1_555
H31 C27 1_555 1_555
Zn3 O3 1_555 1_555
Zn5 O7 1_555 1_555
Zn6 O4 1_555 1_555
C6 C7 1_555 1_555
C15 C16 1_555 1_555
Zn3 O9 1_555 1_555
O12 Zn6 1_555 1_555
O14 Zn6 1_555 1_555
O15 Zn3 1_555 1_555
O18 Zn3 1_555 1_555
O1 C1 1_555 1_555
C1 O2 1_555 1_555
O2 Zn4 1_555 1_555
C2 C1 1_555 1_555
C3 C2 1_555 1_555
H1 C3 1_555 1_555
C4 C3 1_555 1_555
O5 C4 1_555 1_555
H6 C10 1_555 1_555
O6 C10 1_555 1_555
Zn7 O1 1_555 1_555
O1_2 C1_2 1_555 1_555
C1_2 O2_2 1_555 1_555
O2_2 Zn5 1_555 1_555
H18_2 C22_2 1_555 1_555
H22_2 C24_2 1_555 1_555
H23_2 C24_2 1_555 1_555
H24_2 C24_2 1_555 1_555
Zn7_2 O1_2 1_555 1_555
Zn4 O7_2 1_555 1_555
Zn4 O9_2 1_555 1_555
Zn7 O10_2 1_555 1_555
C9_2 O5_2 1_555 1_555
H4_2 C9_2 1_555 1_555
C10_2 C9_2 1_555 1_555
H6_2 C10_2 1_555 1_555
H7_2 C10_2 1_555 1_555
O6_2 C10_2 1_555 1_555
C11_2 O6_2 1_555 1_555
C12_2 C11_2 1_555 1_555
H8_2 C12_2 1_555 1_555
C13_2 C12_2 1_555 1_555
C14_2 C13_2 1_555 1_555
H9_2 C14_2 1_555 1_555
C15_2 C14_2 1_555 1_555
C16_2 C11_2 1_555 1_555
H10_2 C16_2 1_555 1_555
C17_2 C15_2 1_555 1_555
O8_2 C17_2 1_555 1_555
C18_2 C13_2 1_555 1_555
O9_2 C18_2 1_555 1_555
O10_2 C18_2 1_555 1_555
O11 Zn7 1_555 1_555
C19 O11 1_555 1_555
H11 C19 1_555 1_555
N1 C19 1_555 1_555
C20 N1 1_555 1_555
H12 C20 1_555 1_555
H13 C20 1_555 1_555
H14 C20 1_555 1_555
C21 N1 1_555 1_555
H15 C21 1_555 1_555
H16 C21 1_555 1_555
H17_2 C21 1_555 1_555
O12_2 Zn7 1_555 1_555
C22_3 O12_2 1_555 1_555
H18_3 C22_3 1_555 1_555
N2_2 C22_3 1_555 1_555
C23 N2_2 1_555 1_555
H19 C23 1_555 1_555
H20 C23 1_555 1_555
H21 C23 1_555 1_555
C24_3 N2_2 1_555 1_555
H22_3 C24_3 1_555 1_555
H23_3 C24_3 1_555 1_555
H24_3 C24_3 1_555 1_555
O13_2 Zn7 1_555 1_555
C25_2 O13_2 1_555 1_555
H25_2 C25_2 1_555 1_555
N3_2 C25_2 1_555 1_555
C26_2 N3_2 1_555 1_555
H26_2 C26_2 1_555 1_555
H27_2 C26_2 1_555 1_555
H28_2 C26_2 1_555 1_555
C27_2 N3_2 1_555 1_555
H29_2 C27_2 1_555 1_555
H30_2 C27_2 1_555 1_555
H31_2 C27_2 1_555 1_555
O16 Zn4 1_555 1_555
O17 Zn7 1_555 1_555
C15_2 C16_2 1_555 1_555
O14 C1_3 1_555 1_555
C1_3 O15 1_555 1_555
C2_2 C1_3 1_555 1_555
C3_2 C2_2 1_555 1_555
C4_2 C3_2 1_555 1_555
C5_2 C4_2 1_555 1_555
H2_2 C5_2 1_555 1_555
C6_2 C5_2 1_555 1_555
C7_2 C2_2 1_555 1_555
H3_2 C7_2 1_555 1_555
C8_2 C6_2 1_555 1_555
O16 C8_2 1_555 1_555
O17 C8_2 1_555 1_555
C6_2 C7_2 1_555 1_555
H2_3 C5_3 1_555 1_555
C6_3 C5_3 1_555 1_555
H3_3 C7_3 1_555 1_555
C8_3 C6_3 1_555 1_555
O3_2 C8_3 1_555 1_555
O4_2 C8_3 1_555 1_555
Zn5 O3_2 1_555 1_555
Zn7_2 O4_2 1_555 1_555
C6_3 C7_3 1_555 1_555
Zn5 O9_3 1_555 1_555
Zn7_2 O10_3 1_555 1_555
H4_3 C9_3 1_555 1_555
C12_3 C11_3 1_555 1_555
H8_3 C12_3 1_555 1_555
C13_3 C12_3 1_555 1_555
C14_3 C13_3 1_555 1_555
H9_3 C14_3 1_555 1_555
C15_3 C14_3 1_555 1_555
C16_3 C11_3 1_555 1_555
H10_3 C16_3 1_555 1_555
C17_3 C15_3 1_555 1_555
O18 C17_3 1_555 1_555
O8_3 C17_3 1_555 1_555
C18_3 C13_3 1_555 1_555
O9_3 C18_3 1_555 1_555
O10_3 C18_3 1_555 1_555
O13_3 Zn7_2 1_555 1_555
C25_3 O13_3 1_555 1_555
H25_3 C25_3 1_555 1_555
N3_3 C25_3 1_555 1_555
C26_3 N3_3 1_555 1_555
H26_3 C26_3 1_555 1_555
H27_3 C26_3 1_555 1_555
H28_3 C26_3 1_555 1_555
C27_3 N3_3 1_555 1_555
H29_3 C27_3 1_555 1_555
H30_3 C27_3 1_555 1_555
H31_3 C27_3 1_555 1_555
C15_3 C16_3 1_555 1_555
C19_2 O11_2 1_555 1_555
H11_2 C19_2 1_555 1_555
N1_2 C19_2 1_555 1_555
C20_2 N1_2 1_555 1_555
H12_2 C20_2 1_555 1_555
H13_2 C20_2 1_555 1_555
H14_2 C20_2 1_555 1_555
C21_2 N1_2 1_555 1_555
H15_2 C21_2 1_555 1_555
H16_2 C21_2 1_555 1_555
H19_2 C23_2 1_555 1_555
H20_2 C23_2 1_555 1_555
H21_2 C23_2 1_555 1_555
C23_3 N2_3 1_555 1_555
H19_3 C23_3 1_555 1_555
H20_3 C23_3 1_555 1_555
H21_3 C23_3 1_555 1_555
Zn1 O9_4 1_555 1_555
O11_3 Zn2 1_555 1_555
C19_3 O11_3 1_555 1_555
H11_3 C19_3 1_555 1_555
N1_3 C19_3 1_555 1_555
C20_3 N1_3 1_555 1_555
H12_3 C20_3 1_555 1_555
H13_3 C20_3 1_555 1_555
H14_3 C20_3 1_555 1_555
C21_3 N1_3 1_555 1_555
H15_3 C21_3 1_555 1_555
H16_3 C21_3 1_555 1_555
O14_2 Zn2 1_555 1_555
O15_2 Zn1 1_555 1_555
O16_2 Zn1 1_555 1_555
O17_2 Zn2 1_555 1_555
O18_2 Zn1 1_555 1_555
C3_3 C2_3 1_555 1_555
H1_3 C3_3 1_555 1_555
C4_3 C3_3 1_555 1_555
C5_4 C4_3 1_555 1_555
H2_4 C5_4 1_555 1_555
C6_4 C5_4 1_555 1_555
C7_4 C2_3 1_555 1_555
H3_4 C7_4 1_555 1_555
C8_4 C6_4 1_555 1_555
O16_2 C8_4 1_555 1_555
O17_2 C8_4 1_555 1_555
O5_3 C4_3 1_555 1_555
C9_4 O5_3 1_555 1_555
H4_4 C9_4 1_555 1_555
H5_3 C9_4 1_555 1_555
C10_3 C9_4 1_555 1_555
H6_3 C10_3 1_555 1_555
H7_4 C10_3 1_555 1_555
O6_3 C10_3 1_555 1_555
C11_4 O6_3 1_555 1_555
C12_4 C11_4 1_555 1_555
H8_4 C12_4 1_555 1_555
C13_4 C12_4 1_555 1_555
C14_4 C13_4 1_555 1_555
H9_4 C14_4 1_555 1_555
C15_4 C14_4 1_555 1_555
C16_4 C11_4 1_555 1_555
H10_4 C16_4 1_555 1_555
C17_4 C15_4 1_555 1_555
O8_4 C17_4 1_555 1_555
C18_4 C13_4 1_555 1_555
O10_4 C18_4 1_555 1_555
C25_4 O13_4 1_555 1_555
H25_4 C25_4 1_555 1_555
N3_4 C25_4 1_555 1_555
C26_4 N3_4 1_555 1_555
H26_4 C26_4 1_555 1_555
H27_4 C26_4 1_555 1_555
H28_4 C26_4 1_555 1_555
C27_4 N3_4 1_555 1_555
H29_4 C27_4 1_555 1_555
H30_4 C27_4 1_555 1_555
H31_4 C27_4 1_555 1_555
C6_4 C7_4 1_555 1_555
C15_4 C16_4 1_555 1_555
O14_2 C1_4 1_555 1_555
C1_4 O15_2 1_555 1_555
C3_4 C2_4 1_555 1_555
C4_4 C3_4 1_555 1_555
H6_4 C10_4 1_555 1_555
O6_4 C10_4 1_555 1_555
C19_4 O11_4 1_555 1_555
H11_4 C19_4 1_555 1_555
N1_4 C19_4 1_555 1_555
C20_4 N1_4 1_555 1_555
H12_4 C20_4 1_555 1_555
H13_4 C20_4 1_555 1_555
H14_4 C20_4 1_555 1_555
C21_4 N1_4 1_555 1_555
H15_4 C21_4 1_555 1_555
H16_4 C21_4 1_555 1_555
H17_4 C21_4 1_555 1_555
H19_4 C23_4 1_555 1_555
H20_4 C23_4 1_555 1_555
H21_4 C23_4 1_555 1_555
C22_4 O12_4 1_555 1_555
H18_4 C22_4 1_555 1_555
N2_4 C22_4 1_555 1_555
C24_4 N2_4 1_555 1_555
H22_4 C24_4 1_555 1_555
H23_4 C24_4 1_555 1_555

#END
