
###############################################################################
#
# This file contains modified crystal structure data generated from the
# MOF subset of the Cambridge Structural Database (CSD) v543 
# hosted by the Cambridge Crystallographic Data Centre (CCDC).
#
# This work is licensed under the Creative Commons
# Attribution-NonCommercial-ShareAlike 4.0 International License.
# To view a copy of this license, visit
# http://creativecommons.org/licenses/by-nc-sa/4.0/
# or send a letter to
# Creative Commons, PO Box 1866, Mountain View, CA 94042, USA.
#
# CIF created using the CSD Python API on 29 September 2022
# The structure has been converted into the P1 space group
# The structure has a 3D framework
# The original CSD entry UJECIY is in the tetragonal crystal system
# The framework has been calculated to contain at least 10.0% void space
# The void calculation uses a probe of radius 1.32A, grid spacing 0.4
# H atom positions have been added when not included in the experimental data
# Generated hydrogen atom positions removed from atoms on special positions
#
###############################################################################

data_UJECIY
_chemical_formula_moiety         '(C104 H108 Cl5 Cu9 N72 O8)n'
_symmetry_cell_setting           triclinic
_symmetry_space_group_name_H-M   'P 1'
_symmetry_Int_Tables_number      1
_space_group_name_Hall           'P 1'
loop_
_symmetry_equiv_pos_site_id
_symmetry_equiv_pos_as_xyz
1 x,y,z
_cell_length_a                   20.2414(3)
_cell_length_b                   20.2414(3)
_cell_length_c                   17.2343(10)
_cell_angle_alpha                90
_cell_angle_beta                 90
_cell_angle_gamma                90
_cell_volume                     7061.14
loop_
_atom_site_label
_atom_site_type_symbol
_atom_site_fract_x
_atom_site_fract_y
_atom_site_fract_z
Cu20 Cu -0.000000 0.37728(5) 0.01382(7)
Cu24 Cu -0.000000 0.62272(5) 0.01382(7)
Cu29 Cu -0.000000 0.500000 0.16620(9)
Cu21 Cu 0.37728(5) -0.000000 0.98618(7)
Cu32 Cu 0.500000 -0.000000 0.83380(9)
Cu28 Cu 0.62272(5) -0.000000 0.98618(7)
Cu20_2 Cu 1.000000 0.37728(5) 0.01382(7)
Cu1 Cu 0.500000 0.37601(4) 0.49370(6)
O1 O 0.000000 0.500000 0.2969(7)
O2 O 0.500000 0.2628(3) 0.4955(8)
Cl2 Cl 0.500000 0.500000 0.500000
N1 N 0.3506(3) 0.0712(2) 0.0608(3)
N2 N 0.4257(2) 0.3824(2) 0.4156(3)
N3 N 0.3777(2) 0.4282(2) 0.4243(3)
N4 N 0.0686(2) 0.3867(2) 0.0951(3)
C1 C 0.2873(3) 0.0887(4) 0.0656(5)
H1 H 0.255814 0.062856 0.040680
N5 N 0.0699(2) 0.4296(2) 0.1541(3)
C2 C 0.3941(4) 0.1083(4) 0.0957(5)
H2 H 0.438589 0.097290 0.092024
N6 N 0.4089(2) 0.3418(2) 0.3579(3)
N7 N 0.3304(2) 0.4183(2) 0.3727(3)
N8 N 0.1215(2) 0.3478(3) 0.1015(3)
C3 C 0.3505(3) 0.3648(3) 0.3343(3)
C4 C 0.1524(3) 0.3677(3) 0.1644(4)
N9 N 0.1221(2) 0.4196(2) 0.1981(3)
C5 C 0.2928(3) 0.2462(3) 0.1793(4)
C6 C 0.3307(3) 0.2754(3) 0.2378(4)
H3 H 0.369476 0.254989 0.254084
C7 C 0.2337(3) 0.2786(3) 0.1571(4)
H4 H 0.207381 0.259679 0.118803
C8 C 0.2521(3) 0.3647(3) 0.2506(4)
H5 H 0.237945 0.402704 0.275894
C9 C 0.3763(3) 0.1628(4) 0.1374(6)
H6 H 0.408634 0.186245 0.164060
C10 C 0.3115(3) 0.3339(3) 0.2717(4)
C11 C 0.3113(3) 0.1840(3) 0.1409(4)
C12 C 0.2142(3) 0.3367(3) 0.1901(4)
C13 C 0.2668(3) 0.1437(4) 0.1062(5)
H7 H 0.221941 0.153232 0.109755
Cl3 Cl 0.500000 0.000000 0.01265(18)
Cu6 Cu 0.37601(4) 0.500000 0.50630(6)
O4 O 0.2628(3) 0.500000 0.5045(8)
N19 N 0.0712(2) 0.6494(3) 0.9392(3)
N20 N 0.3824(2) 0.5743(2) 0.5844(3)
N21 N 0.4282(2) 0.6223(2) 0.5757(3)
N22 N 0.3867(2) 0.9314(2) 0.9049(3)
C27 C 0.0887(4) 0.7127(3) 0.9344(5)
H15 H 0.062856 0.744186 0.959320
N23 N 0.4296(2) 0.9301(2) 0.8459(3)
C28 C 0.1083(4) 0.6059(4) 0.9043(5)
H16 H 0.097290 0.561411 0.907976
N24 N 0.3418(2) 0.5911(2) 0.6421(3)
N25 N 0.4183(2) 0.6696(2) 0.6273(3)
N26 N 0.3478(3) 0.8785(2) 0.8985(3)
C29 C 0.3648(3) 0.6495(3) 0.6657(3)
C30 C 0.3677(3) 0.8476(3) 0.8356(4)
N27 N 0.4196(2) 0.8779(2) 0.8019(3)
C31 C 0.2462(3) 0.7072(3) 0.8207(4)
C32 C 0.2754(3) 0.6693(3) 0.7622(4)
H17 H 0.254989 0.630524 0.745916
C33 C 0.2786(3) 0.7663(3) 0.8429(4)
H18 H 0.259679 0.792619 0.881197
C34 C 0.3647(3) 0.7479(3) 0.7494(4)
H19 H 0.402704 0.762055 0.724106
C35 C 0.1628(4) 0.6237(3) 0.8626(6)
H20 H 0.186245 0.591366 0.835940
C36 C 0.3339(3) 0.6885(3) 0.7283(4)
C37 C 0.1840(3) 0.6887(3) 0.8591(4)
C38 C 0.3367(3) 0.7858(3) 0.8099(4)
C39 C 0.1437(4) 0.7332(3) 0.8938(5)
H21 H 0.153232 0.778059 0.890245
Cu8 Cu 0.500000 0.62399(4) 0.49370(6)
O5 O 0.500000 0.7372(3) 0.4955(8)
N37 N 0.6494(3) 0.9288(2) 0.0608(3)
N38 N 0.5743(2) 0.6176(2) 0.4156(3)
N39 N 0.6223(2) 0.5718(2) 0.4243(3)
N40 N 0.9314(2) 0.6133(2) 0.0951(3)
C53 C 0.7127(3) 0.9113(4) 0.0656(5)
H29 H 0.744186 0.937144 0.040680
N41 N 0.9301(2) 0.5704(2) 0.1541(3)
C54 C 0.6059(4) 0.8917(4) 0.0957(5)
H30 H 0.561411 0.902710 0.092024
N42 N 0.5911(2) 0.6582(2) 0.3579(3)
N43 N 0.6696(2) 0.5817(2) 0.3727(3)
N44 N 0.8785(2) 0.6522(3) 0.1015(3)
C55 C 0.6495(3) 0.6352(3) 0.3343(3)
C56 C 0.8476(3) 0.6323(3) 0.1644(4)
N45 N 0.8779(2) 0.5804(2) 0.1981(3)
C57 C 0.7072(3) 0.7538(3) 0.1793(4)
C58 C 0.6693(3) 0.7246(3) 0.2378(4)
H31 H 0.630524 0.745011 0.254084
C59 C 0.7663(3) 0.7214(3) 0.1571(4)
H32 H 0.792619 0.740321 0.118803
C60 C 0.7479(3) 0.6353(3) 0.2506(4)
H33 H 0.762055 0.597296 0.275894
C61 C 0.6237(3) 0.8372(4) 0.1374(6)
H34 H 0.591366 0.813755 0.164060
C62 C 0.6885(3) 0.6661(3) 0.2717(4)
C63 C 0.6887(3) 0.8160(3) 0.1409(4)
C64 C 0.7858(3) 0.6633(3) 0.1901(4)
C65 C 0.7332(3) 0.8563(4) 0.1062(5)
H35 H 0.778059 0.846768 0.109755
N64 N 0.9288(2) 0.3506(3) 0.9392(3)
N65 N 0.6176(2) 0.4257(2) 0.5844(3)
N66 N 0.5718(2) 0.3777(2) 0.5757(3)
N67 N 0.6133(2) 0.0686(2) 0.9049(3)
C92 C 0.9113(4) 0.2873(3) 0.9344(5)
H50 H 0.937144 0.255814 0.959320
N68 N 0.5704(2) 0.0699(2) 0.8459(3)
C93 C 0.8917(4) 0.3941(4) 0.9043(5)
H51 H 0.902710 0.438589 0.907976
N69 N 0.6582(2) 0.4089(2) 0.6421(3)
N70 N 0.5817(2) 0.3304(2) 0.6273(3)
N71 N 0.6522(3) 0.1215(2) 0.8985(3)
C94 C 0.6352(3) 0.3505(3) 0.6657(3)
C95 C 0.6323(3) 0.1524(3) 0.8356(4)
N72 N 0.5804(2) 0.1221(2) 0.8019(3)
C96 C 0.7538(3) 0.2928(3) 0.8207(4)
C97 C 0.7246(3) 0.3307(3) 0.7622(4)
H52 H 0.745011 0.369476 0.745916
C98 C 0.7214(3) 0.2337(3) 0.8429(4)
H53 H 0.740321 0.207381 0.881197
C99 C 0.6353(3) 0.2521(3) 0.7494(4)
H54 H 0.597296 0.237945 0.724106
C100 C 0.8372(4) 0.3763(3) 0.8626(6)
H55 H 0.813755 0.408634 0.835940
C101 C 0.6661(3) 0.3115(3) 0.7283(4)
C102 C 0.8160(3) 0.3113(3) 0.8591(4)
C103 C 0.6633(3) 0.2142(3) 0.8099(4)
C104 C 0.8563(4) 0.2668(3) 0.8938(5)
H56 H 0.846768 0.221941 0.890245
Cu18 Cu 0.62399(4) 0.500000 0.50630(6)
Cu21_2 Cu 0.37728(5) 1.000000 0.98618(7)
Cu24_2 Cu 1.000000 0.62272(5) 0.01382(7)
Cu29_2 Cu 1.000000 0.500000 0.16620(9)
Cu32_2 Cu 0.500000 1.000000 0.83380(9)
N79 N 0.5743(2) 0.3824(2) 0.4156(3)
N80 N 0.3824(2) 0.4257(2) 0.5844(3)
N81 N 0.4257(2) 0.6176(2) 0.4156(3)
N85 N 0.4282(2) 0.3777(2) 0.5757(3)
N86 N 0.3777(2) 0.5718(2) 0.4243(3)
N87 N 0.5718(2) 0.6223(2) 0.5757(3)
N90 N 0.0686(2) 0.6133(2) 0.0951(3)
N94 N 0.0699(2) 0.5704(2) 0.1541(3)
Cl1 Cl 0.000000 0.500000 0.98735(18)
O3 O 0.500000 0.000000 0.7031(7)
O6 O 0.7372(3) 0.500000 0.5045(8)
Cu28_2 Cu 0.62272(5) 1.000000 0.98618(7)
N76 N 0.0712(2) 0.3506(3) 0.9392(3)
N82 N 0.6176(2) 0.5743(2) 0.5844(3)
N84 N 0.6223(2) 0.4282(2) 0.4243(3)
N89 N 0.3867(2) 0.0686(2) 0.9049(3)
N93 N 0.4296(2) 0.0699(2) 0.8459(3)
Cl3_2 Cl 0.500000 1.000000 0.01265(18)
N77 N 0.3506(3) 0.9288(2) 0.0608(3)
O3_2 O 0.500000 1.000000 0.7031(7)
N95 N 0.5704(2) 0.9301(2) 0.8459(3)
O1_2 O 1.000000 0.500000 0.2969(7)
N75 N 0.6494(3) 0.0712(2) 0.0608(3)
N88 N 0.9314(2) 0.3867(2) 0.0951(3)
N92 N 0.9301(2) 0.4296(2) 0.1541(3)
Cl1_2 Cl 1.000000 0.500000 0.98735(18)
N78 N 0.9288(2) 0.6494(3) 0.9392(3)
N91 N 0.6133(2) 0.9314(2) 0.9049(3)
C40 C 0.2873(3) 0.9113(4) 0.0656(5)
H22 H 0.255814 0.937144 0.040680
C41 C 0.3941(4) 0.8917(4) 0.0957(5)
H23 H 0.438589 0.902710 0.092024
N33 N 0.4089(2) 0.6582(2) 0.3579(3)
N34 N 0.3304(2) 0.5817(2) 0.3727(3)
N35 N 0.1215(2) 0.6522(3) 0.1015(3)
C42 C 0.3505(3) 0.6352(3) 0.3343(3)
C43 C 0.1524(3) 0.6323(3) 0.1644(4)
N36 N 0.1221(2) 0.5804(2) 0.1981(3)
C44 C 0.2928(3) 0.7538(3) 0.1793(4)
C45 C 0.3307(3) 0.7246(3) 0.2378(4)
H24 H 0.369476 0.745011 0.254084
C46 C 0.2337(3) 0.7214(3) 0.1571(4)
H25 H 0.207381 0.740321 0.118803
C47 C 0.2521(3) 0.6353(3) 0.2506(4)
H26 H 0.237945 0.597296 0.275894
C48 C 0.3763(3) 0.8372(4) 0.1374(6)
H27 H 0.408634 0.813755 0.164060
C49 C 0.3115(3) 0.6661(3) 0.2717(4)
C50 C 0.3113(3) 0.8160(3) 0.1409(4)
C51 C 0.2142(3) 0.6633(3) 0.1901(4)
C52 C 0.2668(3) 0.8563(4) 0.1062(5)
H28 H 0.221941 0.846768 0.109755
C66 C 0.0887(4) 0.2873(3) 0.9344(5)
H36 H 0.062856 0.255814 0.959320
C67 C 0.1083(4) 0.3941(4) 0.9043(5)
H37 H 0.097290 0.438589 0.907976
N51 N 0.3418(2) 0.4089(2) 0.6421(3)
N52 N 0.4183(2) 0.3304(2) 0.6273(3)
N53 N 0.3478(3) 0.1215(2) 0.8985(3)
C68 C 0.3648(3) 0.3505(3) 0.6657(3)
C69 C 0.3677(3) 0.1524(3) 0.8356(4)
N54 N 0.4196(2) 0.1221(2) 0.8019(3)
C70 C 0.2462(3) 0.2928(3) 0.8207(4)
C71 C 0.2754(3) 0.3307(3) 0.7622(4)
H38 H 0.254989 0.369476 0.745916
C72 C 0.2786(3) 0.2337(3) 0.8429(4)
H39 H 0.259679 0.207381 0.881197
C73 C 0.3647(3) 0.2521(3) 0.7494(4)
H40 H 0.402704 0.237945 0.724106
C74 C 0.1628(4) 0.3763(3) 0.8626(6)
H41 H 0.186245 0.408634 0.835940
C75 C 0.3339(3) 0.3115(3) 0.7283(4)
C76 C 0.1840(3) 0.3113(3) 0.8591(4)
C77 C 0.3367(3) 0.2142(3) 0.8099(4)
C78 C 0.1437(4) 0.2668(3) 0.8938(5)
H42 H 0.153232 0.221941 0.890245
C1_2 C 0.7127(3) 0.0887(4) 0.0656(5)
H1_2 H 0.744186 0.062856 0.040680
C2_2 C 0.6059(4) 0.1083(4) 0.0957(5)
H2_2 H 0.561411 0.097290 0.092024
N6_2 N 0.5911(2) 0.3418(2) 0.3579(3)
N7_2 N 0.6696(2) 0.4183(2) 0.3727(3)
N8_2 N 0.8785(2) 0.3478(3) 0.1015(3)
C3_2 C 0.6495(3) 0.3648(3) 0.3343(3)
C4_2 C 0.8476(3) 0.3677(3) 0.1644(4)
N9_2 N 0.8779(2) 0.4196(2) 0.1981(3)
C5_2 C 0.7072(3) 0.2462(3) 0.1793(4)
C6_2 C 0.6693(3) 0.2754(3) 0.2378(4)
H3_2 H 0.630524 0.254989 0.254084
C7_2 C 0.7663(3) 0.2786(3) 0.1571(4)
H4_2 H 0.792619 0.259679 0.118803
C8_2 C 0.7479(3) 0.3647(3) 0.2506(4)
H5_2 H 0.762055 0.402704 0.275894
C9_2 C 0.6237(3) 0.1628(4) 0.1374(6)
H6_2 H 0.591366 0.186245 0.164060
C10_2 C 0.6885(3) 0.3339(3) 0.2717(4)
C11_2 C 0.6887(3) 0.1840(3) 0.1409(4)
C12_2 C 0.7858(3) 0.3367(3) 0.1901(4)
C13_2 C 0.7332(3) 0.1437(4) 0.1062(5)
H7_2 H 0.778059 0.153232 0.109755
C27_2 C 0.9113(4) 0.7127(3) 0.9344(5)
H15_2 H 0.937144 0.744186 0.959320
C28_2 C 0.8917(4) 0.6059(4) 0.9043(5)
H16_2 H 0.902710 0.561411 0.907976
N24_2 N 0.6582(2) 0.5911(2) 0.6421(3)
N25_2 N 0.5817(2) 0.6696(2) 0.6273(3)
N26_2 N 0.6522(3) 0.8785(2) 0.8985(3)
C29_2 C 0.6352(3) 0.6495(3) 0.6657(3)
C30_2 C 0.6323(3) 0.8476(3) 0.8356(4)
N27_2 N 0.5804(2) 0.8779(2) 0.8019(3)
C31_2 C 0.7538(3) 0.7072(3) 0.8207(4)
C32_2 C 0.7246(3) 0.6693(3) 0.7622(4)
H17_2 H 0.745011 0.630524 0.745916
C33_2 C 0.7214(3) 0.7663(3) 0.8429(4)
H18_2 H 0.740321 0.792619 0.881197
C34_2 C 0.6353(3) 0.7479(3) 0.7494(4)
H19_2 H 0.597296 0.762055 0.724106
C35_2 C 0.8372(4) 0.6237(3) 0.8626(6)
H20_2 H 0.813755 0.591366 0.835940
C36_2 C 0.6661(3) 0.6885(3) 0.7283(4)
C37_2 C 0.8160(3) 0.6887(3) 0.8591(4)
C38_2 C 0.6633(3) 0.7858(3) 0.8099(4)
C39_2 C 0.8563(4) 0.7332(3) 0.8938(5)
H21_2 H 0.846768 0.778059 0.890245
loop_
_geom_bond_atom_site_label_1
_geom_bond_atom_site_label_2
_geom_bond_site_symmetry_1
_geom_bond_site_symmetry_2
Cu1 O2 1_555 1_555
Cu29 O1 1_555 1_555
Cl2 Cu1 1_555 1_555
N1 C1 1_555 1_555
N2 Cu1 1_555 1_555
N3 N2 1_555 1_555
N4 Cu20 1_555 1_555
C1 H1 1_555 1_555
N5 Cu29 1_555 1_555
C2 N1 1_555 1_555
H2 C2 1_555 1_555
N6 N2 1_555 1_555
N7 N3 1_555 1_555
N8 N4 1_555 1_555
C3 N6 1_555 1_555
C4 N8 1_555 1_555
N9 N5 1_555 1_555
C5 C6 1_555 1_555
C6 H3 1_555 1_555
C7 C5 1_555 1_555
H4 C7 1_555 1_555
C8 H5 1_555 1_555
C9 C2 1_555 1_555
H6 C9 1_555 1_555
C10 C3 1_555 1_555
C11 C5 1_555 1_555
C12 C4 1_555 1_555
C13 C1 1_555 1_555
H7 C13 1_555 1_555
Cu6 Cl2 1_555 1_555
O4 Cu6 1_555 1_555
N19 C27 1_555 1_555
N20 Cu6 1_555 1_555
N21 N20 1_555 1_555
N22 N23 1_555 1_555
C27 H15 1_555 1_555
N23 N27 1_555 1_555
C28 N19 1_555 1_555
H16 C28 1_555 1_555
N24 N20 1_555 1_555
N25 N21 1_555 1_555
N26 N22 1_555 1_555
C29 N24 1_555 1_555
C30 N26 1_555 1_555
N27 C30 1_555 1_555
C31 C32 1_555 1_555
C32 H17 1_555 1_555
C33 C31 1_555 1_555
H18 C33 1_555 1_555
C34 H19 1_555 1_555
C35 C28 1_555 1_555
H20 C35 1_555 1_555
C36 C29 1_555 1_555
C37 C31 1_555 1_555
C38 C30 1_555 1_555
C39 C27 1_555 1_555
H21 C39 1_555 1_555
Cu8 Cl2 1_555 1_555
O5 Cu8 1_555 1_555
N37 C53 1_555 1_555
N38 Cu8 1_555 1_555
N39 N38 1_555 1_555
N40 N41 1_555 1_555
C53 H29 1_555 1_555
N41 N45 1_555 1_555
C54 N37 1_555 1_555
H30 C54 1_555 1_555
N42 N38 1_555 1_555
N43 N39 1_555 1_555
N44 N40 1_555 1_555
C55 N42 1_555 1_555
C56 N44 1_555 1_555
N45 C56 1_555 1_555
C57 C58 1_555 1_555
C58 H31 1_555 1_555
C59 C57 1_555 1_555
H32 C59 1_555 1_555
C60 H33 1_555 1_555
C61 C54 1_555 1_555
H34 C61 1_555 1_555
C62 C55 1_555 1_555
C63 C57 1_555 1_555
C64 C56 1_555 1_555
C65 C53 1_555 1_555
H35 C65 1_555 1_555
N64 C92 1_555 1_555
N65 N66 1_555 1_555
N66 Cu1 1_555 1_555
N67 N68 1_555 1_555
C92 H50 1_555 1_555
N68 N72 1_555 1_555
C93 N64 1_555 1_555
H51 C93 1_555 1_555
N69 N65 1_555 1_555
N70 N66 1_555 1_555
N71 N67 1_555 1_555
C94 N69 1_555 1_555
C95 N71 1_555 1_555
N72 C95 1_555 1_555
C96 C97 1_555 1_555
C97 H52 1_555 1_555
C98 C96 1_555 1_555
H53 C98 1_555 1_555
C99 H54 1_555 1_555
C100 C93 1_555 1_555
H55 C100 1_555 1_555
C101 C94 1_555 1_555
C102 C96 1_555 1_555
C103 C95 1_555 1_555
C104 C92 1_555 1_555
H56 C104 1_555 1_555
Cu18 Cl2 1_555 1_555
Cu21_2 N22 1_555 1_555
Cu24_2 N40 1_555 1_555
Cu28 N67 1_555 1_555
Cu29_2 N41 1_555 1_555
Cu32 N68 1_555 1_555
Cu32_2 N23 1_555 1_555
N79 Cu1 1_555 1_555
N80 Cu6 1_555 1_555
N81 Cu8 1_555 1_555
N85 Cu1 1_555 1_555
N86 Cu6 1_555 1_555
N87 Cu8 1_555 1_555
N90 Cu24 1_555 1_555
N94 Cu29 1_555 1_555
N3 Cu6 1_555 1_555
N4 N5 1_555 1_555
N7 C3 1_555 1_555
C4 N9 1_555 1_555
C6 C10 1_555 1_555
C7 C12 1_555 1_555
C8 C10 1_555 1_555
C8 C12 1_555 1_555
C9 C11 1_555 1_555
C11 C13 1_555 1_555
N21 Cu8 1_555 1_555
N25 C29 1_555 1_555
C32 C36 1_555 1_555
C33 C38 1_555 1_555
C34 C36 1_555 1_555
C34 C38 1_555 1_555
C35 C37 1_555 1_555
C37 C39 1_555 1_555
N39 Cu18 1_555 1_555
N43 C55 1_555 1_555
C58 C62 1_555 1_555
C59 C64 1_555 1_555
C60 C62 1_555 1_555
C60 C64 1_555 1_555
C61 C63 1_555 1_555
C63 C65 1_555 1_555
N65 Cu18 1_555 1_555
N70 C94 1_555 1_555
C97 C101 1_555 1_555
C98 C103 1_555 1_555
C99 C101 1_555 1_555
C99 C103 1_555 1_555
C100 C102 1_555 1_555
C102 C104 1_555 1_555
N80 N85 1_555 1_555
N81 N86 1_555 1_555
N90 N94 1_555 1_555
Cu32 O3 1_555 1_555
Cu18 O6 1_555 1_555
N82 Cu18 1_555 1_555
N84 Cu18 1_555 1_555
N89 Cu21 1_555 1_555
N93 Cu32 1_555 1_555
N89 N93 1_555 1_555
Cu32_2 O3_2 1_555 1_555
N95 Cu32_2 1_555 1_555
Cu29_2 O1_2 1_555 1_555
N88 Cu20_2 1_555 1_555
N92 Cu29_2 1_555 1_555
N88 N92 1_555 1_555
N91 Cu28_2 1_555 1_555
N82 N87 1_555 1_555
N91 N95 1_555 1_555
N79 N84 1_555 1_555
N77 C40 1_555 1_555
N86 N34 1_555 1_555
C40 H22 1_555 1_555
C41 N77 1_555 1_555
H23 C41 1_555 1_555
N33 N81 1_555 1_555
N34 C42 1_555 1_555
N35 N90 1_555 1_555
C42 N33 1_555 1_555
C43 N35 1_555 1_555
N36 N94 1_555 1_555
C44 C45 1_555 1_555
C45 H24 1_555 1_555
C46 C44 1_555 1_555
H25 C46 1_555 1_555
C47 H26 1_555 1_555
C48 C41 1_555 1_555
H27 C48 1_555 1_555
C49 C42 1_555 1_555
C50 C44 1_555 1_555
C51 C43 1_555 1_555
C52 C40 1_555 1_555
H28 C52 1_555 1_555
C43 N36 1_555 1_555
C45 C49 1_555 1_555
C46 C51 1_555 1_555
C47 C49 1_555 1_555
C47 C51 1_555 1_555
C48 C50 1_555 1_555
C50 C52 1_555 1_555
N85 N52 1_555 1_555
C66 N76 1_555 1_555
H36 C66 1_555 1_555
N93 N54 1_555 1_555
C67 N76 1_555 1_555
H37 C67 1_555 1_555
N51 N80 1_555 1_555
N52 C68 1_555 1_555
N53 N89 1_555 1_555
C68 N51 1_555 1_555
C69 N53 1_555 1_555
N54 C69 1_555 1_555
C70 C71 1_555 1_555
C71 H38 1_555 1_555
C72 C70 1_555 1_555
H39 C72 1_555 1_555
C73 H40 1_555 1_555
C74 C67 1_555 1_555
H41 C74 1_555 1_555
C75 C68 1_555 1_555
C76 C70 1_555 1_555
C77 C69 1_555 1_555
C78 C66 1_555 1_555
H42 C78 1_555 1_555
C71 C75 1_555 1_555
C72 C77 1_555 1_555
C73 C75 1_555 1_555
C73 C77 1_555 1_555
C74 C76 1_555 1_555
C76 C78 1_555 1_555
N75 C1_2 1_555 1_555
C1_2 H1_2 1_555 1_555
C2_2 N75 1_555 1_555
H2_2 C2_2 1_555 1_555
N6_2 N79 1_555 1_555
N7_2 N84 1_555 1_555
N8_2 N88 1_555 1_555
C3_2 N6_2 1_555 1_555
C4_2 N8_2 1_555 1_555
N9_2 N92 1_555 1_555
C5_2 C6_2 1_555 1_555
C6_2 H3_2 1_555 1_555
C7_2 C5_2 1_555 1_555
H4_2 C7_2 1_555 1_555
C8_2 H5_2 1_555 1_555
C9_2 C2_2 1_555 1_555
H6_2 C9_2 1_555 1_555
C10_2 C3_2 1_555 1_555
C11_2 C5_2 1_555 1_555
C12_2 C4_2 1_555 1_555
C13_2 C1_2 1_555 1_555
H7_2 C13_2 1_555 1_555
N78 C27_2 1_555 1_555
C27_2 H15_2 1_555 1_555
N95 N27_2 1_555 1_555
C28_2 N78 1_555 1_555
H16_2 C28_2 1_555 1_555
N24_2 N82 1_555 1_555
N25_2 N87 1_555 1_555
N26_2 N91 1_555 1_555
C29_2 N24_2 1_555 1_555
C30_2 N26_2 1_555 1_555
N27_2 C30_2 1_555 1_555
C31_2 C32_2 1_555 1_555
C32_2 H17_2 1_555 1_555
C33_2 C31_2 1_555 1_555
H18_2 C33_2 1_555 1_555
C34_2 H19_2 1_555 1_555
C35_2 C28_2 1_555 1_555
H20_2 C35_2 1_555 1_555
C36_2 C29_2 1_555 1_555
C37_2 C31_2 1_555 1_555
C38_2 C30_2 1_555 1_555
C39_2 C27_2 1_555 1_555
H21_2 C39_2 1_555 1_555
N7_2 C3_2 1_555 1_555
C4_2 N9_2 1_555 1_555
C6_2 C10_2 1_555 1_555
C7_2 C12_2 1_555 1_555
C8_2 C10_2 1_555 1_555
C8_2 C12_2 1_555 1_555
C9_2 C11_2 1_555 1_555
C11_2 C13_2 1_555 1_555
N25_2 C29_2 1_555 1_555
C32_2 C36_2 1_555 1_555
C33_2 C38_2 1_555 1_555
C34_2 C36_2 1_555 1_555
C34_2 C38_2 1_555 1_555
C35_2 C37_2 1_555 1_555
C37_2 C39_2 1_555 1_555

#END
