
###############################################################################
#
# This file contains modified crystal structure data generated from the
# MOF subset of the Cambridge Structural Database (CSD) v543 
# hosted by the Cambridge Crystallographic Data Centre (CCDC).
#
# This work is licensed under the Creative Commons
# Attribution-NonCommercial-ShareAlike 4.0 International License.
# To view a copy of this license, visit
# http://creativecommons.org/licenses/by-nc-sa/4.0/
# or send a letter to
# Creative Commons, PO Box 1866, Mountain View, CA 94042, USA.
#
# CIF created using the CSD Python API on 29 September 2022
# The structure has been converted into the P1 space group
# The structure has a 3D framework
# The original CSD entry UJITUF is in the triclinic crystal system
# The framework has been calculated to contain at least 10.0% void space
# The void calculation uses a probe of radius 1.32A, grid spacing 0.4
#
###############################################################################

data_UJITUF
_chemical_formula_moiety         '(C62 H38 Cd4 N14 O14)n'
_symmetry_cell_setting           triclinic
_symmetry_space_group_name_H-M   'P 1'
_symmetry_Int_Tables_number      1
_space_group_name_Hall           'P 1'
loop_
_symmetry_equiv_pos_site_id
_symmetry_equiv_pos_as_xyz
1 x,y,z
_cell_length_a                   9.5327(6)
_cell_length_b                   10.2308(7)
_cell_length_c                   18.6797(12)
_cell_angle_alpha                82.8490(10)
_cell_angle_beta                 76.5790(10)
_cell_angle_gamma                73.1260(10)
_cell_volume                     1692.54
loop_
_atom_site_label
_atom_site_type_symbol
_atom_site_fract_x
_atom_site_fract_y
_atom_site_fract_z
N3 N 0.5200(5) 0.2101(5) 0.7451(3)
N4 N 0.4259(5) 0.1355(5) 0.7428(2)
N6 N 0.5969(7) 0.1144(8) 0.6409(4)
C21 C 0.3693(6) 0.0180(6) 0.5814(3)
H11 H 0.4056 0.0831 0.5491
C24 C 0.4753(6) 0.0796(6) 0.6777(3)
N7 N 0.6222(7) 0.1973(8) 0.6851(4)
Cd6 Cd 0.19534(4) 0.18444(3) 0.82393(2)
Cd7 Cd 0.49541(4) 0.33828(4) 0.84261(2)
O1 O 0.3351(4) 0.1878(4) 0.9132(2)
O4 O 0.3435(4) 0.3763(4) 0.9562(2)
N1 N 0.9067(5) 0.6805(5) 0.5501(2)
N2 N 0.9061(5) 0.7654(5) 0.2820(2)
N5 N 0.6292(5) 0.4766(5) 0.7747(3)
C5 C 0.2876(6) 0.2774(5) 0.9619(3)
C6 C 0.9178(6) 0.6804(6) 0.6204(3)
C13 C 0.8569(7) 0.6792(6) 0.3354(3)
H6 H 0.7977 0.6287 0.3253
C15 C 0.8137(6) 0.6162(6) 0.6759(3)
C19 C 0.8903(7) 0.6619(6) 0.4048(3)
H9 H 0.8546 0.6005 0.4403
C26 C 0.9782(6) 0.7376(6) 0.4210(3)
C27 C 0.9951(6) 0.8340(7) 0.2969(3)
O7 O 0.6739(6) 0.2096(9) 0.9020(4)
H14 H 0.6387 0.2075 0.9487
H15 H 0.7439 0.2494 0.8965
C28 C 0.5952(7) 0.5341(7) 0.7106(4)
H16 H 0.5076 0.5276 0.6993
C29 C 0.6838(7) 0.6028(7) 0.6604(3)
H17 H 0.6562 0.6401 0.6161
C30 C 0.8458(7) 0.5600(7) 0.7436(3)
H18 H 0.9304 0.5689 0.7571
C31 C 0.7536(7) 0.4912(7) 0.7908(3)
H19 H 0.7785 0.4534 0.8356
Cd4 Cd 0.80466(4) 0.81556(3) 0.17607(2)
O10 O 0.2673(4) 0.4797(4) 0.8072(2)
O11 O 0.7947(5) 0.0346(4) 0.1393(3)
O2 O 0.9229(4) 0.6092(4) 0.1397(2)
O5 O 0.7327(4) 0.5203(4) 0.1928(2)
C1 C 0.9478(5) 0.3855(5) 0.1138(2)
C3 C 0.8988(5) 0.2677(5) 0.1280(3)
H2 H 0.8090 0.2683 0.1609
C4 C 0.9334(6) 0.0205(5) 0.1146(3)
C17 C 0.9837(5) 0.1489(5) 0.0932(3)
C22 C 0.8597(6) 0.5140(5) 0.1521(3)
Cd8 Cd 0.50459(4) 0.66172(4) 0.15739(2)
O8 O 0.6649(4) 0.8122(4) 0.0868(2)
N10 N 0.5741(5) 0.8645(5) 0.2572(2)
O2_2 O 0.0771(4) 0.3908(4) 0.8603(2)
O6 O 0.2053(5) 0.9654(4) 0.8607(3)
C1_2 C 0.0522(5) 0.6145(5) 0.8862(2)
C3_2 C 0.1012(5) 0.7323(5) 0.8720(3)
H2_2 H 0.1910 0.7317 0.8391
C4_2 C 0.0666(6) 0.9795(5) 0.8854(3)
C17_2 C 0.0163(5) 0.8511(5) 0.9068(3)
C22_2 C 0.1403(6) 0.4860(5) 0.8479(3)
N8 N 0.0939(5) 0.2346(5) 0.7180(2)
O4_2 O 0.6565(4) 0.6237(4) 0.0438(2)
N1_2 N 0.0933(5) 0.3195(5) 0.4499(2)
N5_2 N 0.3708(5) 0.5234(5) 0.2253(3)
C5_2 C 0.7124(6) 0.7226(5) 0.0381(3)
C6_2 C 0.0822(6) 0.3196(6) 0.3796(3)
C13_2 C 0.1431(7) 0.3208(6) 0.6646(3)
H6_2 H 0.2023 0.3713 0.6747
C15_2 C 0.1863(6) 0.3838(6) 0.3241(3)
C19_2 C 0.1097(7) 0.3381(6) 0.5952(3)
H9_2 H 0.1454 0.3995 0.5597
C26_2 C 0.0218(6) 0.2624(6) 0.5790(3)
C27_2 C 0.0049(6) 0.1660(7) 0.7031(3)
O7_2 O 0.3261(6) 0.7904(9) 0.0980(4)
H14_2 H 0.3613 0.7925 0.0513
H15_2 H 0.2561 0.7506 0.1035
C28_2 C 0.4048(7) 0.4659(7) 0.2894(4)
H16_2 H 0.4924 0.4724 0.3007
C29_2 C 0.3162(7) 0.3972(7) 0.3396(3)
H17_2 H 0.3438 0.3599 0.3839
C30_2 C 0.1542(7) 0.4400(7) 0.2564(3)
H18_2 H 0.0696 0.4311 0.2429
C31_2 C 0.2464(7) 0.5088(7) 0.2092(3)
H19_2 H 0.2215 0.5466 0.1644
N9 N 0.4800(5) 0.7899(5) 0.2549(3)
N6_2 N 0.4031(7) 0.8856(8) 0.3591(4)
C21_2 C 0.6307(6) 0.9820(6) 0.4186(3)
H11_2 H 0.5944 0.9169 0.4509
C24_2 C 0.5247(6) 0.9204(6) 0.3223(3)
N7_2 N 0.3778(7) 0.8027(8) 0.3149(4)
C7 C 0.3548(7) 0.8867(6) 0.6970(3)
H3 H 0.3812 0.8638 0.7428
C8 C 0.2301(6) 0.8488(6) 0.6055(3)
C9 C 0.2701(7) 0.8162(6) 0.6743(3)
H4 H 0.2396 0.7465 0.7052
C10 C 0.1216(6) 0.7865(6) 0.5857(3)
C12 C 0.4008(6) 0.9932(6) 0.6507(3)
C16 C 0.1115(6) 0.7843(6) 0.5132(3)
H7 H 0.1773 0.8167 0.4750
C18 C 0.0214(7) 0.7339(6) 0.6402(3)
H8 H 0.0237 0.7345 0.6896
C20 C 0.2842(6) 0.9476(6) 0.5587(3)
H10 H 0.2634 0.9668 0.5117
C23 C 0.0008(6) 0.7326(5) 0.4974(3)
C25 C 0.0323(6) 0.8228(7) 0.3654(3)
H12 H 0.0937 0.8729 0.3737
H13 H 0.0335 0.8915 0.2599
C2 C 0.0796(5) 0.3846(5) 0.0614(3)
H1 H 0.1147 0.4621 0.0523
C11 C 0.1126(6) 0.1491(5) 0.0404(3)
H5 H 0.1681 0.0700 0.0166
C14 C 0.1582(5) 0.2686(5) 0.0231(2)
O9 O 0.0251(5) 0.9053(4) 0.1110(3)
O3 O 0.9749(5) 0.0947(4) 0.8890(3)
C2_2 C 0.9204(5) 0.6154(5) 0.9386(3)
H1_2 H 0.8853 0.5379 0.9477
C11_2 C 0.8874(6) 0.8509(5) 0.9596(3)
H5_2 H 0.8319 0.9300 0.9834
C14_2 C 0.8418(5) 0.7314(5) 0.9769(2)
C7_2 C 0.6452(7) 0.1133(6) 0.3030(3)
H3_2 H 0.6188 0.1362 0.2572
C8_2 C 0.7699(6) 0.1512(6) 0.3945(3)
C9_2 C 0.7299(7) 0.1838(6) 0.3257(3)
H4_2 H 0.7604 0.2535 0.2948
C10_2 C 0.8784(6) 0.2135(6) 0.4143(3)
C12_2 C 0.5992(6) 0.0068(6) 0.3493(3)
C16_2 C 0.8885(6) 0.2157(6) 0.4868(3)
H7_2 H 0.8227 0.1833 0.5250
C18_2 C 0.9786(7) 0.2661(6) 0.3598(3)
H8_2 H 0.9763 0.2655 0.3104
C20_2 C 0.7158(6) 0.0524(6) 0.4413(3)
H10_2 H 0.7366 0.0332 0.4883
C23_2 C 0.9992(6) 0.2674(5) 0.5026(3)
C25_2 C 0.9677(6) 0.1772(7) 0.6346(3)
H12_2 H 0.9063 0.1271 0.6263
H13_2 H 0.9665 0.1085 0.7401
loop_
_geom_bond_atom_site_label_1
_geom_bond_atom_site_label_2
_geom_bond_site_symmetry_1
_geom_bond_site_symmetry_2
N3 N4 1_555 1_555
N4 C24 1_555 1_555
N6 C24 1_555 1_555
H11 C21 1_555 1_555
N7 N3 1_555 1_555
Cd6 N4 1_555 1_555
Cd7 N3 1_555 1_555
N6 N7 1_555 1_555
Cd7 O1 1_555 1_555
O1 C5 1_555 1_555
O4 Cd7 1_555 1_555
N1 C6 1_555 1_555
N2 C13 1_555 1_555
N5 Cd7 1_555 1_555
C5 O4 1_555 1_555
C6 C15 1_555 1_555
C13 H6 1_555 1_555
C15 C29 1_555 1_555
C19 C13 1_555 1_555
H9 C19 1_555 1_555
C26 C19 1_555 1_555
C27 N2 1_555 1_555
O7 Cd7 1_555 1_555
H14 O7 1_555 1_555
H15 O7 1_555 1_555
C28 N5 1_555 1_555
H16 C28 1_555 1_555
C29 C28 1_555 1_555
H17 C29 1_555 1_555
C30 C15 1_555 1_555
H18 C30 1_555 1_555
C31 N5 1_555 1_555
H19 C31 1_555 1_555
Cd4 N2 1_555 1_555
Cd6 O1 1_555 1_555
O10 Cd7 1_555 1_555
C30 C31 1_555 1_555
Cd4 O2 1_555 1_555
O2 C22 1_555 1_555
O5 C22 1_555 1_555
O11 C4 1_555 1_555
C3 C1 1_555 1_555
H2 C3 1_555 1_555
C4 C17 1_555 1_555
C17 C3 1_555 1_555
C22 C1 1_555 1_555
Cd8 O5 1_555 1_555
O8 Cd4 1_555 1_555
N10 Cd4 1_555 1_555
Cd8 O8 1_555 1_555
Cd6 O2_2 1_555 1_555
O2_2 C22_2 1_555 1_555
O10 C22_2 1_555 1_555
O6 C4_2 1_555 1_555
C3_2 C1_2 1_555 1_555
H2_2 C3_2 1_555 1_555
C4_2 C17_2 1_555 1_555
C17_2 C3_2 1_555 1_555
C22_2 C1_2 1_555 1_555
N8 Cd6 1_555 1_555
O8 C5_2 1_555 1_555
O4_2 Cd8 1_555 1_555
N1_2 C6_2 1_555 1_555
N8 C13_2 1_555 1_555
N5_2 Cd8 1_555 1_555
C5_2 O4_2 1_555 1_555
C6_2 C15_2 1_555 1_555
C13_2 H6_2 1_555 1_555
C15_2 C29_2 1_555 1_555
C19_2 C13_2 1_555 1_555
H9_2 C19_2 1_555 1_555
C26_2 C19_2 1_555 1_555
C27_2 N8 1_555 1_555
O7_2 Cd8 1_555 1_555
H14_2 O7_2 1_555 1_555
H15_2 O7_2 1_555 1_555
C28_2 N5_2 1_555 1_555
H16_2 C28_2 1_555 1_555
C29_2 C28_2 1_555 1_555
H17_2 C29_2 1_555 1_555
C30_2 C15_2 1_555 1_555
H18_2 C30_2 1_555 1_555
C31_2 N5_2 1_555 1_555
H19_2 C31_2 1_555 1_555
N9 Cd8 1_555 1_555
C30_2 C31_2 1_555 1_555
N9 N10 1_555 1_555
N10 C24_2 1_555 1_555
N6_2 C24_2 1_555 1_555
H11_2 C21_2 1_555 1_555
N7_2 N9 1_555 1_555
N6_2 N7_2 1_555 1_555
C7 H3 1_555 1_555
C8 C9 1_555 1_555
C9 C7 1_555 1_555
H4 C9 1_555 1_555
C10 C8 1_555 1_555
C12 C7 1_555 1_555
C16 C10 1_555 1_555
H7 C16 1_555 1_555
H8 C18 1_555 1_555
C20 C8 1_555 1_555
H10 C20 1_555 1_555
C25 H12 1_555 1_555
C10 C18 1_555 1_555
C16 C23 1_555 1_555
C2 H1 1_555 1_555
C11 H5 1_555 1_555
C14 C2 1_555 1_555
C11 C14 1_555 1_555
C2_2 H1_2 1_555 1_555
C11_2 H5_2 1_555 1_555
C14_2 C2_2 1_555 1_555
C11_2 C14_2 1_555 1_555
C7_2 H3_2 1_555 1_555
C8_2 C9_2 1_555 1_555
C9_2 C7_2 1_555 1_555
H4_2 C9_2 1_555 1_555
C10_2 C8_2 1_555 1_555
C12_2 C7_2 1_555 1_555
C16_2 C10_2 1_555 1_555
H7_2 C16_2 1_555 1_555
H8_2 C18_2 1_555 1_555
C20_2 C8_2 1_555 1_555
H10_2 C20_2 1_555 1_555
C25_2 H12_2 1_555 1_555
C10_2 C18_2 1_555 1_555
C16_2 C23_2 1_555 1_555

#END
