
###############################################################################
#
# This file contains modified crystal structure data generated from the
# MOF subset of the Cambridge Structural Database (CSD) v543 
# hosted by the Cambridge Crystallographic Data Centre (CCDC).
#
# This work is licensed under the Creative Commons
# Attribution-NonCommercial-ShareAlike 4.0 International License.
# To view a copy of this license, visit
# http://creativecommons.org/licenses/by-nc-sa/4.0/
# or send a letter to
# Creative Commons, PO Box 1866, Mountain View, CA 94042, USA.
#
# CIF created using the CSD Python API on 29 September 2022
# The structure has been converted into the P1 space group
# The structure has a 3D framework
# The original CSD entry UJIZET is in the orthorhombic crystal system
# The framework has been calculated to contain at least 10.0% void space
# The void calculation uses a probe of radius 1.32A, grid spacing 0.4
#
###############################################################################

data_UJIZET
_chemical_formula_moiety         '(C92 H96 Nd18 O64)n'
_symmetry_cell_setting           triclinic
_symmetry_space_group_name_H-M   'P 1'
_symmetry_Int_Tables_number      1
_space_group_name_Hall           'P 1'
loop_
_symmetry_equiv_pos_site_id
_symmetry_equiv_pos_as_xyz
1 x,y,z
_cell_length_a                   24.0265(16)
_cell_length_b                   8.7253(6)
_cell_length_c                   19.4746(13)
_cell_angle_alpha                90
_cell_angle_beta                 90
_cell_angle_gamma                90
_cell_volume                     4082.62
loop_
_atom_site_label
_atom_site_type_symbol
_atom_site_fract_x
_atom_site_fract_y
_atom_site_fract_z
Nd8 Nd 0.258068(7) 0.0000 0.0000
Nd6 Nd 0.258068(7) -0.0000 0.5000
Nd8_2 Nd 0.258068(7) -0.0000 1.0000
Nd7 Nd 0.241932(7) 0.5000 0.0000
Nd8_3 Nd 0.258068(7) 1.0000 0.0000
C1 C 0.12042(15) 0.5000 0.5000
C2 C 0.05825(15) 0.5000 0.5000
C3 C 0.02879(11) 0.6259(3) 0.47534(15)
H1 H 0.0484 0.7126 0.4584
C4 C 0.21562(10) 0.2921(3) 0.38026(12)
C5 C 0.20634(12) 0.2034(3) 0.31492(12)
H2 H 0.1670 0.1702 0.3132
H3 H 0.2298 0.1100 0.3160
C6 C 0.21956(17) 0.2928(4) 0.2500
H4 H 0.1979 0.3893 0.2500
H5 H 0.2595 0.3202 0.2500
Nd1 Nd 0.241932(7) 0.5000 0.5000
O1 O 0.14651(7) 0.6184(2) 0.48046(10)
O2 O 0.20864(8) 0.4355(2) 0.38114(9)
O3 O 0.23046(8) 0.2230(2) 0.43457(9)
O4 O 0.32697(8) 0.4102(2) 0.43621(10)
H6 H 0.3544 0.4647 0.4254
H7 H 0.3395 0.3235 0.4468
C11 C 0.02879(11) 0.3741(3) 0.52466(15)
H8 H 0.0484 0.2874 0.5416
C12 C 0.21562(10) 0.2921(3) 0.11974(12)
C13 C 0.21562(10) 0.7079(3) 0.61974(12)
C14 C 0.21562(10) 0.7079(3) 0.88026(12)
C15 C 0.20634(12) 0.2034(3) 0.18508(12)
C16 C 0.20634(12) 0.7966(3) 0.68508(12)
C17 C 0.20634(12) 0.7966(3) 0.81492(12)
H11 H 0.1670 0.1702 0.1868
H12 H 0.1670 0.8298 0.6868
H13 H 0.1670 0.8298 0.8132
H14 H 0.2298 0.1100 0.1840
H15 H 0.2298 0.8900 0.6840
H16 H 0.2298 0.8900 0.8160
C18 C 0.21956(17) 0.7072(4) 0.7500
H17 H 0.1979 0.6107 0.7500
H18 H 0.2595 0.6798 0.7500
Nd6_2 Nd 0.258068(7) 1.0000 0.5000
Nd7_2 Nd 0.241932(7) 0.5000 1.0000
Nd8_4 Nd 0.258068(7) 1.0000 1.0000
O7 O 0.14651(7) 0.3816(2) 0.51954(10)
O8 O 0.20864(8) 0.4355(2) 0.11886(9)
O9 O 0.20864(8) 0.5645(2) 0.61886(9)
O10 O 0.20864(8) 0.5645(2) 0.88114(9)
O13 O 0.23046(8) 0.2230(2) 0.06543(9)
O14 O 0.23046(8) 0.7770(2) 0.56543(9)
O15 O 0.23046(8) 0.7770(2) 0.93457(9)
O16 O 0.26954(8) 0.2770(2) 0.56543(9)
O17 O 0.26954(8) 0.7230(2) 0.43457(9)
O22 O 0.32697(8) 0.5898(2) 0.56379(10)
H19 H 0.3544 0.5353 0.5746
H22 H 0.3395 0.6765 0.5532
C7 C 0.87958(15) 0.5000 0.5000
C8 C 0.94175(15) 0.5000 0.5000
C9 C 0.97121(11) 0.6259(3) 0.47534(15)
C10 C 0.97121(11) 0.3741(3) 0.52466(15)
H9 H 0.9516 0.2874 0.5416
H10 H 0.9516 0.7126 0.4584
Nd2 Nd 0.758068(7) 0.5000 0.5000
O5 O 0.85349(7) 0.6184(2) 0.48046(10)
O6 O 0.85349(7) 0.3816(2) 0.51954(10)
O11 O 0.79136(8) 0.4355(2) 0.38114(9)
O12 O 0.79136(8) 0.5645(2) 0.61886(9)
O18 O 0.76954(8) 0.2230(2) 0.43457(9)
O19 O 0.76954(8) 0.7770(2) 0.56543(9)
O20 O 0.73046(8) 0.2770(2) 0.56543(9)
O21 O 0.73046(8) 0.7230(2) 0.43457(9)
O23 O 0.67303(8) 0.4102(2) 0.43621(10)
O24 O 0.67303(8) 0.5898(2) 0.56379(10)
H20 H 0.6456 0.4647 0.4254
H21 H 0.6456 0.5353 0.5746
H23 H 0.6605 0.3235 0.4468
H24 H 0.6605 0.6765 0.5532
C7_2 C 0.12042(15) 0.5000 0.0000
C8_2 C 0.05825(15) 0.5000 0.0000
C10_2 C 0.02879(11) 0.6259(3) 0.02466(15)
H9_2 H 0.0484 0.7126 0.0416
O6_2 O 0.14651(7) 0.6184(2) 0.01954(10)
O20_2 O 0.26954(8) 0.7230(2) 0.06543(9)
O24_2 O 0.32697(8) 0.4102(2) 0.06379(10)
H21_2 H 0.3544 0.4647 0.0746
H24_2 H 0.3395 0.3235 0.0532
C7_3 C 0.12042(15) 0.5000 1.0000
C8_3 C 0.05825(15) 0.5000 1.0000
C9_2 C 0.02879(11) 0.3741(3) 0.97534(15)
H10_2 H 0.0484 0.2874 0.9584
O5_2 O 0.14651(7) 0.3816(2) 0.98046(10)
O21_2 O 0.26954(8) 0.2770(2) 0.93457(9)
O23_2 O 0.32697(8) 0.5898(2) 0.93621(10)
H20_2 H 0.3544 0.5353 0.9254
H23_2 H 0.3395 0.6765 0.9468
Nd3 Nd 0.741932(7) 0.0000 0.0000
Nd3_2 Nd 0.741932(7) 0.0000 1.0000
Nd5 Nd 0.741932(7) -0.0000 0.5000
C1_2 C 0.87958(15) 0.5000 0.0000
C2_2 C 0.94175(15) 0.5000 0.0000
Nd1_2 Nd 0.758068(7) 0.5000 0.0000
C11_2 C 0.97121(11) 0.6259(3) 0.02466(15)
H8_2 H 0.9516 0.7126 0.0416
C13_2 C 0.78438(10) 0.2921(3) 0.11974(12)
C14_2 C 0.78438(10) 0.2921(3) 0.38026(12)
C16_2 C 0.79366(12) 0.2034(3) 0.18508(12)
C17_2 C 0.79366(12) 0.2034(3) 0.31492(12)
H12_2 H 0.8330 0.1702 0.1868
H13_2 H 0.8330 0.1702 0.3132
H15_2 H 0.7702 0.1100 0.1840
H16_2 H 0.7702 0.1100 0.3160
C18_2 C 0.78044(17) 0.2928(4) 0.2500
H17_2 H 0.8021 0.3893 0.2500
H18_2 H 0.7405 0.3202 0.2500
Nd3_3 Nd 0.741932(7) 1.0000 0.0000
O7_2 O 0.85349(7) 0.6184(2) 0.01954(10)
O9_2 O 0.79136(8) 0.4355(2) 0.11886(9)
O14_2 O 0.76954(8) 0.2230(2) 0.06543(9)
O16_2 O 0.73046(8) 0.7230(2) 0.06543(9)
O22_2 O 0.67303(8) 0.4102(2) 0.06379(10)
H19_2 H 0.6456 0.4647 0.0746
H22_2 H 0.6605 0.3235 0.0532
C1_3 C 0.87958(15) 0.5000 1.0000
C2_3 C 0.94175(15) 0.5000 1.0000
C3_2 C 0.97121(11) 0.3741(3) 0.97534(15)
H1_2 H 0.9516 0.2874 0.9584
C4_2 C 0.78438(10) 0.7079(3) 0.88026(12)
C5_2 C 0.79366(12) 0.7966(3) 0.81492(12)
H2_2 H 0.8330 0.8298 0.8132
H3_2 H 0.7702 0.8900 0.8160
C6_2 C 0.78044(17) 0.7072(4) 0.7500
H4_2 H 0.8021 0.6107 0.7500
H5_2 H 0.7405 0.6798 0.7500
Nd1_3 Nd 0.758068(7) 0.5000 1.0000
O1_2 O 0.85349(7) 0.3816(2) 0.98046(10)
O2_2 O 0.79136(8) 0.5645(2) 0.88114(9)
O3_2 O 0.76954(8) 0.7770(2) 0.93457(9)
O4_2 O 0.67303(8) 0.5898(2) 0.93621(10)
H6_2 H 0.6456 0.5353 0.9254
H7_2 H 0.6605 0.6765 0.9468
C12_2 C 0.78438(10) 0.7079(3) 0.61974(12)
C15_2 C 0.79366(12) 0.7966(3) 0.68508(12)
H11_2 H 0.8330 0.8298 0.6868
H14_2 H 0.7702 0.8900 0.6840
Nd3_4 Nd 0.741932(7) 1.0000 1.0000
Nd5_2 Nd 0.741932(7) 1.0000 0.5000
O17_2 O 0.73046(8) 0.2770(2) 0.93457(9)
C1_4 C 0.62042(15) -0.0000 0.5000
C2_4 C 0.55825(15) -0.0000 0.5000
C3_3 C 0.52879(11) 0.1259(3) 0.47534(15)
H1_3 H 0.5484 0.2126 0.4584
O1_3 O 0.64651(7) 0.1184(2) 0.48046(10)
C7_4 C 0.37958(15) -0.0000 0.5000
C8_4 C 0.44175(15) -0.0000 0.5000
C9_3 C 0.47121(11) 0.1259(3) 0.47534(15)
H10_3 H 0.4516 0.2126 0.4584
C13_3 C 0.71562(10) 0.2079(3) 0.61974(12)
C14_3 C 0.71562(10) 0.2079(3) 0.88026(12)
C16_3 C 0.70634(12) 0.2966(3) 0.68508(12)
C17_3 C 0.70634(12) 0.2966(3) 0.81492(12)
H12_3 H 0.6670 0.3298 0.6868
H13_3 H 0.6670 0.3298 0.8132
H15_3 H 0.7298 0.3900 0.6840
H16_3 H 0.7298 0.3900 0.8160
C18_3 C 0.71956(17) 0.2072(4) 0.7500
H17_3 H 0.6979 0.1107 0.7500
H18_3 H 0.7595 0.1798 0.7500
O5_3 O 0.35349(7) 0.1184(2) 0.48046(10)
O9_3 O 0.70864(8) 0.0645(2) 0.61886(9)
O10_2 O 0.70864(8) 0.0645(2) 0.88114(9)
O12_2 O 0.29136(8) 0.0645(2) 0.61886(9)
O22_3 O 0.82697(8) 0.0898(2) 0.56379(10)
O24_3 O 0.17303(8) 0.0898(2) 0.56379(10)
H19_3 H 0.8544 0.0353 0.5746
H21_3 H 0.1456 0.0353 0.5746
H22_3 H 0.8395 0.1765 0.5532
H24_3 H 0.1605 0.1765 0.5532
C1_5 C 0.62042(15) 1.0000 0.5000
C2_5 C 0.55825(15) 1.0000 0.5000
C4_3 C 0.71562(10) 0.7921(3) 0.38026(12)
C5_3 C 0.70634(12) 0.7034(3) 0.31492(12)
H2_3 H 0.6670 0.6702 0.3132
H3_3 H 0.7298 0.6100 0.3160
C6_3 C 0.71956(17) 0.7928(4) 0.2500
H4_3 H 0.6979 0.8893 0.2500
H5_3 H 0.7595 0.8202 0.2500
O2_3 O 0.70864(8) 0.9355(2) 0.38114(9)
O4_3 O 0.82697(8) 0.9102(2) 0.43621(10)
H6_3 H 0.8544 0.9647 0.4254
H7_3 H 0.8395 0.8235 0.4468
C7_5 C 0.37958(15) 1.0000 0.5000
C8_5 C 0.44175(15) 1.0000 0.5000
C10_3 C 0.47121(11) 0.8741(3) 0.52466(15)
C11_3 C 0.52879(11) 0.8741(3) 0.52466(15)
H8_3 H 0.5484 0.7874 0.5416
H9_3 H 0.4516 0.7874 0.5416
C12_3 C 0.71562(10) 0.7921(3) 0.11974(12)
C15_3 C 0.70634(12) 0.7034(3) 0.18508(12)
H11_3 H 0.6670 0.6702 0.1868
H14_3 H 0.7298 0.6100 0.1840
O6_3 O 0.35349(7) 0.8816(2) 0.51954(10)
O7_3 O 0.64651(7) 0.8816(2) 0.51954(10)
O8_2 O 0.70864(8) 0.9355(2) 0.11886(9)
O11_2 O 0.29136(8) 0.9355(2) 0.38114(9)
O23_3 O 0.17303(8) 0.9102(2) 0.43621(10)
H20_3 H 0.1456 0.9647 0.4254
H23_3 H 0.1605 0.8235 0.4468
C1_6 C 0.37958(15) 0.0000 0.0000
C2_6 C 0.44175(15) 0.0000 0.0000
C7_6 C 0.62042(15) 0.0000 0.0000
C8_6 C 0.55825(15) 0.0000 0.0000
C10_4 C 0.52879(11) 0.1259(3) 0.02466(15)
C11_4 C 0.47121(11) 0.1259(3) 0.02466(15)
H8_4 H 0.4516 0.2126 0.0416
H9_4 H 0.5484 0.2126 0.0416
O6_4 O 0.64651(7) 0.1184(2) 0.01954(10)
O7_4 O 0.35349(7) 0.1184(2) 0.01954(10)
C1_7 C 0.37958(15) -0.0000 1.0000
C2_7 C 0.44175(15) -0.0000 1.0000
C4_4 C 0.28438(10) 0.2079(3) 0.88026(12)
C5_4 C 0.29366(12) 0.2966(3) 0.81492(12)
H2_4 H 0.3330 0.3298 0.8132
H3_4 H 0.2702 0.3900 0.8160
C6_4 C 0.28044(17) 0.2072(4) 0.7500
H4_4 H 0.3021 0.1107 0.7500
H5_4 H 0.2405 0.1798 0.7500
O2_4 O 0.29136(8) 0.0645(2) 0.88114(9)
O4_4 O 0.17303(8) 0.0898(2) 0.93621(10)
H6_4 H 0.1456 0.0353 0.9254
H7_4 H 0.1605 0.1765 0.9468
C7_7 C 0.62042(15) -0.0000 1.0000
C8_7 C 0.55825(15) -0.0000 1.0000
C12_4 C 0.28438(10) 0.2079(3) 0.61974(12)
C15_4 C 0.29366(12) 0.2966(3) 0.68508(12)
H11_4 H 0.3330 0.3298 0.6868
H14_4 H 0.2702 0.3900 0.6840
O23_4 O 0.82697(8) 0.0898(2) 0.93621(10)
H20_4 H 0.8544 0.0353 0.9254
H23_4 H 0.8395 0.1765 0.9468
C1_8 C 0.37958(15) 1.0000 0.0000
C2_8 C 0.44175(15) 1.0000 0.0000
C7_8 C 0.62042(15) 1.0000 0.0000
C8_8 C 0.55825(15) 1.0000 0.0000
C13_4 C 0.28438(10) 0.7921(3) 0.11974(12)
C14_4 C 0.28438(10) 0.7921(3) 0.38026(12)
C16_4 C 0.29366(12) 0.7034(3) 0.18508(12)
C17_4 C 0.29366(12) 0.7034(3) 0.31492(12)
H12_4 H 0.3330 0.6702 0.1868
H13_4 H 0.3330 0.6702 0.3132
H15_4 H 0.2702 0.6100 0.1840
H16_4 H 0.2702 0.6100 0.3160
C18_4 C 0.28044(17) 0.7928(4) 0.2500
H17_4 H 0.3021 0.8893 0.2500
H18_4 H 0.2405 0.8202 0.2500
O9_4 O 0.29136(8) 0.9355(2) 0.11886(9)
O22_4 O 0.17303(8) 0.9102(2) 0.06379(10)
O24_4 O 0.82697(8) 0.9102(2) 0.06379(10)
H19_4 H 0.1456 0.9647 0.0746
H21_4 H 0.8544 0.9647 0.0746
H22_4 H 0.1605 0.8235 0.0532
H24_4 H 0.8395 0.8235 0.0532
C1_9 C 0.37958(15) 1.0000 1.0000
C2_9 C 0.44175(15) 1.0000 1.0000
C3_4 C 0.47121(11) 0.8741(3) 0.97534(15)
H1_4 H 0.4516 0.7874 0.9584
O1_4 O 0.35349(7) 0.8816(2) 0.98046(10)
C7_9 C 0.62042(15) 1.0000 1.0000
C8_9 C 0.55825(15) 1.0000 1.0000
C9_4 C 0.52879(11) 0.8741(3) 0.97534(15)
H10_4 H 0.5484 0.7874 0.9584
O5_4 O 0.64651(7) 0.8816(2) 0.98046(10)
loop_
_geom_bond_atom_site_label_1
_geom_bond_atom_site_label_2
_geom_bond_site_symmetry_1
_geom_bond_site_symmetry_2
C1 C2 1_555 1_555
C2 C3 1_555 1_555
C3 H1 1_555 1_555
C4 C5 1_555 1_555
C5 H2 1_555 1_555
H3 C5 1_555 1_555
C6 C5 1_555 1_555
H4 C6 1_555 1_555
H5 C6 1_555 1_555
Nd1 O1 1_555 1_555
O1 C1 1_555 1_555
O2 C4 1_555 1_555
O3 C4 1_555 1_555
O4 Nd1 1_555 1_555
H6 O4 1_555 1_555
H7 O4 1_555 1_555
C11 C2 1_555 1_555
H8 C11 1_555 1_555
C12 C15 1_555 1_555
C13 C16 1_555 1_555
C14 C17 1_555 1_555
C15 C6 1_555 1_555
C16 H12 1_555 1_555
C17 H13 1_555 1_555
H11 C15 1_555 1_555
H14 C15 1_555 1_555
H15 C16 1_555 1_555
H16 C17 1_555 1_555
C18 C16 1_555 1_555
H17 C18 1_555 1_555
H18 C18 1_555 1_555
Nd6 O3 1_555 1_555
Nd7 O8 1_555 1_555
Nd8 O13 1_555 1_555
Nd6_2 O14 1_555 1_555
Nd7_2 O10 1_555 1_555
Nd8_4 O15 1_555 1_555
O7 C1 1_555 1_555
O8 C12 1_555 1_555
O9 Nd1 1_555 1_555
O10 C14 1_555 1_555
O13 C12 1_555 1_555
O14 Nd1 1_555 1_555
O15 C14 1_555 1_555
O16 Nd1 1_555 1_555
O17 Nd1 1_555 1_555
O22 Nd1 1_555 1_555
H19 O22 1_555 1_555
H22 O22 1_555 1_555
Nd1 O2 1_555 1_555
Nd1 O3 1_555 1_555
Nd1 O7 1_555 1_555
C13 O9 1_555 1_555
C13 O14 1_555 1_555
C17 C18 1_555 1_555
Nd6 O16 1_555 1_555
Nd7 O13 1_555 1_555
Nd6_2 O17 1_555 1_555
Nd7_2 O15 1_555 1_555
C7 C8 1_555 1_555
C8 C9 1_555 1_555
C10 C8 1_555 1_555
H9 C10 1_555 1_555
H10 C9 1_555 1_555
Nd2 O5 1_555 1_555
O5 C7 1_555 1_555
O6 C7 1_555 1_555
O11 Nd2 1_555 1_555
O12 Nd2 1_555 1_555
O18 Nd2 1_555 1_555
O19 Nd2 1_555 1_555
O20 Nd2 1_555 1_555
O21 Nd2 1_555 1_555
O23 Nd2 1_555 1_555
O24 Nd2 1_555 1_555
H20 O23 1_555 1_555
H21 O24 1_555 1_555
H23 O23 1_555 1_555
H24 O24 1_555 1_555
Nd2 O6 1_555 1_555
C7_2 C8_2 1_555 1_555
C10_2 C8_2 1_555 1_555
H9_2 C10_2 1_555 1_555
O6_2 C7_2 1_555 1_555
O20_2 Nd7 1_555 1_555
O24_2 Nd7 1_555 1_555
H21_2 O24_2 1_555 1_555
H24_2 O24_2 1_555 1_555
Nd7 O6_2 1_555 1_555
C7_3 C8_3 1_555 1_555
C8_3 C9_2 1_555 1_555
H10_2 C9_2 1_555 1_555
Nd7_2 O5_2 1_555 1_555
O5_2 C7_3 1_555 1_555
O21_2 Nd7_2 1_555 1_555
O23_2 Nd7_2 1_555 1_555
H20_2 O23_2 1_555 1_555
H23_2 O23_2 1_555 1_555
C1_2 C2_2 1_555 1_555
C11_2 C2_2 1_555 1_555
H8_2 C11_2 1_555 1_555
C13_2 C16_2 1_555 1_555
C14_2 C17_2 1_555 1_555
C16_2 H12_2 1_555 1_555
C17_2 H13_2 1_555 1_555
H15_2 C16_2 1_555 1_555
H16_2 C17_2 1_555 1_555
C18_2 C16_2 1_555 1_555
H17_2 C18_2 1_555 1_555
H18_2 C18_2 1_555 1_555
Nd3 O14_2 1_555 1_555
Nd5 O18 1_555 1_555
O7_2 C1_2 1_555 1_555
O9_2 Nd1_2 1_555 1_555
O11 C14_2 1_555 1_555
O14_2 Nd1_2 1_555 1_555
O18 C14_2 1_555 1_555
O16_2 Nd1_2 1_555 1_555
O22_2 Nd1_2 1_555 1_555
H19_2 O22_2 1_555 1_555
H22_2 O22_2 1_555 1_555
Nd1_2 O7_2 1_555 1_555
C13_2 O9_2 1_555 1_555
C13_2 O14_2 1_555 1_555
C17_2 C18_2 1_555 1_555
Nd3_3 O16_2 1_555 1_555
C1_3 C2_3 1_555 1_555
C2_3 C3_2 1_555 1_555
C3_2 H1_2 1_555 1_555
C4_2 C5_2 1_555 1_555
C5_2 H2_2 1_555 1_555
H3_2 C5_2 1_555 1_555
C6_2 C5_2 1_555 1_555
H4_2 C6_2 1_555 1_555
H5_2 C6_2 1_555 1_555
Nd1_3 O1_2 1_555 1_555
O1_2 C1_3 1_555 1_555
O2_2 C4_2 1_555 1_555
O3_2 C4_2 1_555 1_555
O4_2 Nd1_3 1_555 1_555
H6_2 O4_2 1_555 1_555
H7_2 O4_2 1_555 1_555
C12_2 C15_2 1_555 1_555
C15_2 C6_2 1_555 1_555
H11_2 C15_2 1_555 1_555
H14_2 C15_2 1_555 1_555
Nd3_4 O3_2 1_555 1_555
Nd5_2 O19 1_555 1_555
O12 C12_2 1_555 1_555
O19 C12_2 1_555 1_555
O17_2 Nd1_3 1_555 1_555
Nd1_3 O2_2 1_555 1_555
Nd1_3 O3_2 1_555 1_555
Nd3_2 O17_2 1_555 1_555
C1_4 C2_4 1_555 1_555
C2_4 C3_3 1_555 1_555
C3_3 H1_3 1_555 1_555
Nd5 O1_3 1_555 1_555
O1_3 C1_4 1_555 1_555
C7_4 C8_4 1_555 1_555
C8_4 C9_3 1_555 1_555
C9_3 C3_3 1_555 1_555
H10_3 C9_3 1_555 1_555
C13_3 C16_3 1_555 1_555
C14_3 C17_3 1_555 1_555
C16_3 H12_3 1_555 1_555
C17_3 H13_3 1_555 1_555
H15_3 C16_3 1_555 1_555
H16_3 C17_3 1_555 1_555
C18_3 C16_3 1_555 1_555
H17_3 C18_3 1_555 1_555
H18_3 C18_3 1_555 1_555
Nd6 O5_3 1_555 1_555
Nd3_2 O10_2 1_555 1_555
O5_3 C7_4 1_555 1_555
O9_3 Nd5 1_555 1_555
O10_2 C14_3 1_555 1_555
O12_2 Nd6 1_555 1_555
O20 Nd5 1_555 1_555
O17_2 C14_3 1_555 1_555
O22_3 Nd5 1_555 1_555
O24_3 Nd6 1_555 1_555
H19_3 O22_3 1_555 1_555
H21_3 O24_3 1_555 1_555
H22_3 O22_3 1_555 1_555
H24_3 O24_3 1_555 1_555
C13_3 O9_3 1_555 1_555
C13_3 O20 1_555 1_555
C17_3 C18_3 1_555 1_555
C1_5 C2_5 1_555 1_555
C4_3 C5_3 1_555 1_555
C5_3 H2_3 1_555 1_555
H3_3 C5_3 1_555 1_555
C6_3 C5_3 1_555 1_555
H4_3 C6_3 1_555 1_555
H5_3 C6_3 1_555 1_555
O2_3 C4_3 1_555 1_555
O21 C4_3 1_555 1_555
O4_3 Nd5_2 1_555 1_555
H6_3 O4_3 1_555 1_555
H7_3 O4_3 1_555 1_555
C7_5 C8_5 1_555 1_555
C10_3 C8_5 1_555 1_555
C11_3 C2_5 1_555 1_555
H8_3 C11_3 1_555 1_555
H9_3 C10_3 1_555 1_555
C12_3 C15_3 1_555 1_555
C15_3 C6_3 1_555 1_555
H11_3 C15_3 1_555 1_555
H14_3 C15_3 1_555 1_555
Nd3_3 O8_2 1_555 1_555
O6_3 C7_5 1_555 1_555
O7_3 C1_5 1_555 1_555
O8_2 C12_3 1_555 1_555
O11_2 Nd6_2 1_555 1_555
O16_2 C12_3 1_555 1_555
O23_3 Nd6_2 1_555 1_555
H20_3 O23_3 1_555 1_555
H23_3 O23_3 1_555 1_555
Nd5_2 O2_3 1_555 1_555
Nd5_2 O21 1_555 1_555
Nd5_2 O7_3 1_555 1_555
C10_3 C11_3 1_555 1_555
Nd6_2 O6_3 1_555 1_555
C1_6 C2_6 1_555 1_555
C7_6 C8_6 1_555 1_555
C10_4 C8_6 1_555 1_555
C11_4 C2_6 1_555 1_555
H8_4 C11_4 1_555 1_555
H9_4 C10_4 1_555 1_555
O6_4 C7_6 1_555 1_555
O7_4 C1_6 1_555 1_555
Nd8 O7_4 1_555 1_555
C10_4 C11_4 1_555 1_555
Nd3 O6_4 1_555 1_555
C1_7 C2_7 1_555 1_555
C4_4 C5_4 1_555 1_555
C5_4 H2_4 1_555 1_555
H3_4 C5_4 1_555 1_555
C6_4 C5_4 1_555 1_555
H4_4 C6_4 1_555 1_555
H5_4 C6_4 1_555 1_555
O2_4 C4_4 1_555 1_555
O21_2 C4_4 1_555 1_555
O4_4 Nd8_2 1_555 1_555
H6_4 O4_4 1_555 1_555
H7_4 O4_4 1_555 1_555
C7_7 C8_7 1_555 1_555
C12_4 C15_4 1_555 1_555
C15_4 C6_4 1_555 1_555
H11_4 C15_4 1_555 1_555
H14_4 C15_4 1_555 1_555
O12_2 C12_4 1_555 1_555
O16 C12_4 1_555 1_555
O23_4 Nd3_2 1_555 1_555
H20_4 O23_4 1_555 1_555
H23_4 O23_4 1_555 1_555
Nd8_2 O2_4 1_555 1_555
Nd8_2 O21_2 1_555 1_555
C1_8 C2_8 1_555 1_555
C7_8 C8_8 1_555 1_555
C13_4 C16_4 1_555 1_555
C14_4 C17_4 1_555 1_555
C16_4 H12_4 1_555 1_555
C17_4 H13_4 1_555 1_555
H15_4 C16_4 1_555 1_555
H16_4 C17_4 1_555 1_555
C18_4 C16_4 1_555 1_555
H17_4 C18_4 1_555 1_555
H18_4 C18_4 1_555 1_555
O9_4 Nd8_3 1_555 1_555
O11_2 C14_4 1_555 1_555
O20_2 Nd8_3 1_555 1_555
O17 C14_4 1_555 1_555
O22_4 Nd8_3 1_555 1_555
O24_4 Nd3_3 1_555 1_555
H19_4 O22_4 1_555 1_555
H21_4 O24_4 1_555 1_555
H22_4 O22_4 1_555 1_555
H24_4 O24_4 1_555 1_555
C13_4 O9_4 1_555 1_555
C13_4 O20_2 1_555 1_555
C17_4 C18_4 1_555 1_555
C1_9 C2_9 1_555 1_555
C2_9 C3_4 1_555 1_555
C3_4 H1_4 1_555 1_555
Nd8_4 O1_4 1_555 1_555
O1_4 C1_9 1_555 1_555
C7_9 C8_9 1_555 1_555
C8_9 C9_4 1_555 1_555
C9_4 C3_4 1_555 1_555
H10_4 C9_4 1_555 1_555
Nd3_4 O5_4 1_555 1_555
O5_4 C7_9 1_555 1_555

#END
