
###############################################################################
#
# This file contains modified crystal structure data generated from the
# MOF subset of the Cambridge Structural Database (CSD) v543 
# hosted by the Cambridge Crystallographic Data Centre (CCDC).
#
# This work is licensed under the Creative Commons
# Attribution-NonCommercial-ShareAlike 4.0 International License.
# To view a copy of this license, visit
# http://creativecommons.org/licenses/by-nc-sa/4.0/
# or send a letter to
# Creative Commons, PO Box 1866, Mountain View, CA 94042, USA.
#
# CIF created using the CSD Python API on 29 September 2022
# The structure has been converted into the P1 space group
# The structure has a 3D framework
# The original CSD entry UJOMEO is in the hexagonal crystal system
# The original CSD entry UJOMEO is in a Sohncke space group
# The framework has been calculated to contain at least 10.0% void space
# The void calculation uses a probe of radius 1.32A, grid spacing 0.4
#
###############################################################################

data_UJOMEO
_chemical_formula_moiety         '(C96 H78 Co12 N30 O36)n'
_symmetry_cell_setting           triclinic
_symmetry_space_group_name_H-M   'P 1'
_symmetry_Int_Tables_number      1
_space_group_name_Hall           'P 1'
loop_
_symmetry_equiv_pos_site_id
_symmetry_equiv_pos_as_xyz
1 x,y,z
_cell_length_a                   21.6328(9)
_cell_length_b                   21.6328(9)
_cell_length_c                   8.3468(4)
_cell_angle_alpha                90
_cell_angle_beta                 90
_cell_angle_gamma                120
_cell_volume                     3382.8
loop_
_atom_site_label
_atom_site_type_symbol
_atom_site_fract_x
_atom_site_fract_y
_atom_site_fract_z
Co1 Co 0.45082(3) 0.05843(3) 0.44355(10)
O1 O 0.51432(16) 0.08286(17) 0.2341(4)
O2 O 0.52122(17) 0.03139(17) 0.0102(4)
N1 N 0.4299(2) 0.2542(2) 0.8789(4)
N3 N 0.3789(2) 0.01492(19) 0.6370(4)
C1 C 0.4868(2) 0.0356(2) 0.1280(5)
H1 H 0.3826 0.0062 0.0888
C11 C 0.3474(2) 0.0374(2) 0.7400(5)
C12 C 0.3760(3) 0.1123(2) 0.7854(5)
C13 C 0.3326(3) 0.1423(3) 0.8016(7)
H8 H 0.2840 0.1150 0.7812
C14 C 0.3620(3) 0.2125(3) 0.8480(7)
H9 H 0.3318 0.2314 0.8581
C15 C 0.4714(3) 0.2253(3) 0.8639(6)
H10 H 0.5198 0.2537 0.8862
C16 C 0.4468(3) 0.1559(3) 0.8174(7)
H11 H 0.4784 0.1387 0.8078
Co5 Co 0.47127(4) 0.36330(3) 0.94463(10)
O8 O 0.53851(18) 0.13457(17) 0.5548(4)
N7 N 0.4166(3) 0.1303(2) 0.3705(5)
Co6 Co 0.63670(3) 0.10797(3) 0.94463(10)
Co2 Co 0.36330(3) 0.89203(3) 0.44463(10)
O3 O 0.38493(16) 0.97595(16) 0.3043(3)
O4 O 0.3952(2) 0.8453(2) 0.2678(4)
O5 O 0.46149(18) 0.86543(17) 0.0548(4)
O6 O 0.3741(2) 0.8162(3) 0.5867(6)
N2 N 0.2862(2) 0.9827(2) 0.8023(5)
N4 N 0.3379(2) 0.94187(19) 0.6329(4)
N5 N 0.1303(2) 0.7137(2) 0.8705(5)
C2 C 0.4064(2) 0.9838(2) 0.1437(5)
C3 C 0.3826(3) 0.9130(3) 0.0587(5)
H2 H 0.3310 0.8842 0.0637
C4 C 0.4149(3) 0.8717(2) 0.1318(6)
C5 C 0.2479(3) 0.7998(3) 0.7965(6)
H4 H 0.2947 0.8107 0.7781
C6 C 0.1979(3) 0.7326(3) 0.8437(6)
H5 H 0.2119 0.6987 0.8575
C7 C 0.1120(3) 0.7625(3) 0.8492(7)
H6 H 0.0645 0.7497 0.8647
C8 C 0.1597(3) 0.8319(3) 0.8049(7)
H7 H 0.1447 0.8652 0.7947
C9 C 0.2293(3) 0.8513(2) 0.7762(5)
C10 C 0.2837(2) 0.9249(2) 0.7355(5)
H12 H 0.414(3) 0.839(3) 0.629(7)
H13 H 0.376(3) 0.786(3) 0.566(7)
Co4 Co 0.05843(3) 0.60761(4) 0.94355(10)
O7 O 0.47878(17) 0.96861(17) 0.5102(4)
N6 N 0.2542(2) 0.8243(3) 0.3789(4)
H3 H 0.3962 0.9221 0.9467
Co3 Co 0.54918(3) 0.94157(3) 0.94355(10)
O6_2 O 0.5579(4) 0.3741(2) 0.0867(6)
N1_2 N 0.1757(3) 0.4299(2) 0.3789(4)
N2_2 N 0.3035(3) 0.2862(2) 0.3023(5)
N3_2 N 0.36398(28) 0.3789(2) 0.1370(4)
N4_2 N 0.39603(28) 0.3379(2) 0.1329(4)
C5_2 C 0.4481(4) 0.2479(3) 0.2965(6)
H4_2 H 0.4840 0.2947 0.2781
C6_2 C 0.4653(4) 0.1979(3) 0.3437(6)
H5_2 H 0.5132 0.2119 0.3575
C7_2 C 0.3495(4) 0.1120(3) 0.3492(7)
H6_2 H 0.3148 0.0645 0.3647
C8_2 C 0.3278(4) 0.1597(3) 0.3049(7)
H7_2 H 0.2795 0.1447 0.2947
C9_2 C 0.3780(4) 0.2293(3) 0.2762(5)
C10_2 C 0.3588(3) 0.2837(2) 0.2355(5)
C11_2 C 0.3100(3) 0.3474(2) 0.2400(5)
C12_2 C 0.2637(4) 0.3760(3) 0.2854(5)
C13_2 C 0.1903(4) 0.3326(3) 0.3016(7)
H8_2 H 0.1690 0.2840 0.2812
C14_2 C 0.1495(4) 0.3620(3) 0.3480(7)
H9_2 H 0.1004 0.3318 0.3581
C15_2 C 0.2461(4) 0.4714(3) 0.3639(6)
H10_2 H 0.2661 0.5198 0.3862
C16_2 C 0.2909(4) 0.4468(3) 0.3174(7)
H11_2 H 0.3397 0.4784 0.3078
H12_2 H 0.575(4) 0.414(3) 0.129(7)
H13_2 H 0.590(4) 0.376(3) 0.066(7)
Co5_2 Co 0.10797(5) 0.47127(4) 0.44463(10)
O7_2 O 0.51017(24) 0.47878(17) 0.0102(4)
O8_2 O 0.40394(25) 0.53851(18) 0.0548(4)
Co1_2 Co 0.39239(4) 0.45082(3) 0.94355(10)
O1_2 O 0.43146(23) 0.51432(16) 0.7341(4)
O2_2 O 0.48983(24) 0.52122(17) 0.5102(4)
O3_2 O 0.40898(23) 0.38493(16) 0.8043(3)
O4_2 O 0.5499(3) 0.3952(2) 0.7678(4)
O5_2 O 0.59606(25) 0.46149(18) 0.5548(4)
C1_2 C 0.4512(3) 0.4868(2) 0.6280(5)
C2_2 C 0.4226(3) 0.4064(2) 0.6437(5)
H1_2 H 0.3764 0.3826 0.5888
C3_2 C 0.4696(4) 0.3826(3) 0.5587(5)
H2_2 H 0.4468 0.3310 0.5637
H3_2 H 0.4741 0.3962 0.4467
C4_2 C 0.5432(4) 0.4149(3) 0.6318(6)
Co3_2 Co 0.60761(4) 0.54918(3) 0.44355(10)
Co6_2 Co 0.52873(4) 0.63670(3) 0.44463(10)
N7_2 N 0.2863(4) 0.4166(3) 0.8705(5)
O3_3 O 0.02405(16) 0.40898(23) 0.3043(3)
O4_3 O 0.1547(2) 0.5499(3) 0.2678(4)
O5_3 O 0.13457(17) 0.59606(25) 0.0548(4)
O6_3 O 0.1838(3) 0.5579(4) 0.5867(6)
N2_3 N 0.0173(2) 0.3035(3) 0.8023(5)
N4_3 N 0.05813(19) 0.39603(28) 0.6329(4)
C2_3 C 0.0162(2) 0.4226(3) 0.1437(5)
C3_3 C 0.0870(3) 0.4696(4) 0.0587(5)
H2_3 H 0.1158 0.4468 0.0637
C4_3 C 0.1283(2) 0.5432(4) 0.1318(6)
C5_3 C 0.2002(3) 0.4481(4) 0.7965(6)
H4_3 H 0.1893 0.4840 0.7781
C6_3 C 0.2674(3) 0.4653(4) 0.8437(6)
H5_3 H 0.3013 0.5132 0.8575
C7_3 C 0.2375(3) 0.3495(4) 0.8492(7)
H6_3 H 0.2503 0.3148 0.8647
C8_3 C 0.1681(3) 0.3278(4) 0.8049(7)
H7_3 H 0.1348 0.2795 0.7947
C9_3 C 0.1487(2) 0.3780(4) 0.7762(5)
C10_3 C 0.0751(2) 0.3588(3) 0.7355(5)
H12_3 H 0.161(3) 0.575(4) 0.629(7)
H13_3 H 0.214(3) 0.590(4) 0.566(7)
O7_3 O 0.03139(17) 0.51017(24) 0.5102(4)
H3_3 H 0.0779 0.4741 0.9467
Co1_3 Co 0.94157(3) 0.39239(4) 0.44355(10)
O1_3 O 0.91714(17) 0.43146(23) 0.2341(4)
O2_3 O 0.96861(17) 0.48983(24) 0.0102(4)
N1_3 N 0.7458(2) 0.1757(3) 0.8789(4)
N3_3 N 0.98508(19) 0.36398(28) 0.6370(4)
C1_3 C 0.9644(2) 0.4512(3) 0.1280(5)
H1_3 H 0.9938 0.3764 0.0888
C11_3 C 0.9626(2) 0.3100(3) 0.7400(5)
C12_3 C 0.8877(2) 0.2637(4) 0.7854(5)
C13_3 C 0.8577(3) 0.1903(4) 0.8016(7)
H8_3 H 0.8850 0.1690 0.7812
C14_3 C 0.7875(3) 0.1495(4) 0.8480(7)
H9_3 H 0.7686 0.1004 0.8581
C15_3 C 0.7747(3) 0.2461(4) 0.8639(6)
H10_3 H 0.7463 0.2661 0.8862
C16_3 C 0.8441(3) 0.2909(4) 0.8174(7)
H11_3 H 0.8613 0.3397 0.8078
O8_3 O 0.86543(17) 0.40394(25) 0.5548(4)
N7_3 N 0.8697(2) 0.2863(4) 0.3705(5)
Co6_3 Co 0.89203(3) 0.52873(4) 0.94463(10)
O6_4 O 0.6259(2) 0.1838(3) 0.0867(6)
N2_4 N 0.7138(2) 0.0173(2) 0.3023(5)
N4_4 N 0.6621(2) 0.05813(19) 0.1329(4)
C5_4 C 0.7521(3) 0.2002(3) 0.2965(6)
H4_4 H 0.7053 0.1893 0.2781
C6_4 C 0.8021(3) 0.2674(3) 0.3437(6)
H5_4 H 0.7881 0.3013 0.3575
C7_4 C 0.8880(3) 0.2375(3) 0.3492(7)
H6_4 H 0.9355 0.2503 0.3647
C8_4 C 0.8403(3) 0.1681(3) 0.3049(7)
H7_4 H 0.8553 0.1348 0.2947
C9_4 C 0.7707(3) 0.1487(2) 0.2762(5)
C10_4 C 0.7163(2) 0.0751(2) 0.2355(5)
H12_4 H 0.586(3) 0.161(3) 0.129(7)
H13_4 H 0.624(3) 0.214(3) 0.066(7)
O3_4 O 0.61507(16) 0.02405(16) 0.8043(3)
O4_4 O 0.6048(2) 0.1547(2) 0.7678(4)
C2_4 C 0.5936(2) 0.0162(2) 0.6437(5)
C3_4 C 0.6174(3) 0.0870(3) 0.5587(5)
H2_4 H 0.6690 0.1158 0.5637
H3_4 H 0.6038 0.0779 0.4467
C4_4 C 0.5851(3) 0.1283(2) 0.6318(6)
N1_4 N 0.5701(2) 0.7458(2) 0.3789(4)
N3_4 N 0.6211(2) 0.98508(19) 0.1370(4)
C11_4 C 0.6526(2) 0.9626(2) 0.2400(5)
C12_4 C 0.6240(3) 0.8877(2) 0.2854(5)
C13_4 C 0.6674(3) 0.8577(3) 0.3016(7)
H8_4 H 0.7160 0.8850 0.2812
C14_4 C 0.6380(3) 0.7875(3) 0.3480(7)
H9_4 H 0.6682 0.7686 0.3581
C15_4 C 0.5286(3) 0.7747(3) 0.3639(6)
H10_4 H 0.4802 0.7463 0.3862
C16_4 C 0.5532(3) 0.8441(3) 0.3174(7)
H11_4 H 0.5216 0.8613 0.3078
O1_4 O 0.48568(16) 0.91714(17) 0.7341(4)
C1_4 C 0.5132(2) 0.9644(2) 0.6280(5)
H1_4 H 0.6174 0.9938 0.5888
N7_4 N 0.5834(3) 0.8697(2) 0.8705(5)
O1_5 O 0.56854(23) 0.48568(16) 0.2341(4)
O3_5 O 0.59102(23) 0.61507(16) 0.3043(3)
O4_5 O 0.4501(3) 0.6048(2) 0.2678(4)
O6_5 O 0.4421(4) 0.6259(2) 0.5867(6)
N1_5 N 0.8243(3) 0.5701(2) 0.8789(4)
N2_5 N 0.6965(3) 0.7138(2) 0.8023(5)
N3_5 N 0.63602(28) 0.6211(2) 0.6370(4)
N4_5 N 0.60397(28) 0.6621(2) 0.6329(4)
C1_5 C 0.5488(3) 0.5132(2) 0.1280(5)
C2_5 C 0.5774(3) 0.5936(2) 0.1437(5)
H1_5 H 0.6236 0.6174 0.0888
C3_5 C 0.5304(4) 0.6174(3) 0.0587(5)
H2_5 H 0.5532 0.6690 0.0637
C4_5 C 0.4568(4) 0.5851(3) 0.1318(6)
C5_5 C 0.5519(4) 0.7521(3) 0.7965(6)
H4_5 H 0.5160 0.7053 0.7781
C6_5 C 0.5347(4) 0.8021(3) 0.8437(6)
H5_5 H 0.4868 0.7881 0.8575
C7_5 C 0.6505(4) 0.8880(3) 0.8492(7)
H6_5 H 0.6852 0.9355 0.8647
C8_5 C 0.6722(4) 0.8403(3) 0.8049(7)
H7_5 H 0.7205 0.8553 0.7947
C9_5 C 0.6220(4) 0.7707(3) 0.7762(5)
C10_5 C 0.6412(3) 0.7163(2) 0.7355(5)
C11_5 C 0.6900(3) 0.6526(2) 0.7400(5)
C12_5 C 0.7363(4) 0.6240(3) 0.7854(5)
C13_5 C 0.8097(4) 0.6674(3) 0.8016(7)
H8_5 H 0.8310 0.7160 0.7812
C14_5 C 0.8505(4) 0.6380(3) 0.8480(7)
H9_5 H 0.8996 0.6682 0.8581
C15_5 C 0.7539(4) 0.5286(3) 0.8639(6)
H10_5 H 0.7339 0.4802 0.8862
C16_5 C 0.7091(4) 0.5532(3) 0.8174(7)
H11_5 H 0.6603 0.5216 0.8078
H12_5 H 0.425(4) 0.586(3) 0.629(7)
H13_5 H 0.410(4) 0.624(3) 0.566(7)
N7_5 N 0.7137(4) 0.5834(3) 0.3705(5)
H3_5 H 0.5259 0.6038 0.9467
N3_6 N 0.01492(19) 0.63602(28) 0.1370(4)
C11_6 C 0.0374(2) 0.6900(3) 0.2400(5)
C12_6 C 0.1123(2) 0.7363(4) 0.2854(5)
C13_6 C 0.1423(3) 0.8097(4) 0.3016(7)
H8_6 H 0.1150 0.8310 0.2812
C14_6 C 0.2125(3) 0.8505(4) 0.3480(7)
H9_6 H 0.2314 0.8996 0.3581
C15_6 C 0.2253(3) 0.7539(4) 0.3639(6)
H10_6 H 0.2537 0.7339 0.3862
C16_6 C 0.1559(3) 0.7091(4) 0.3174(7)
H11_6 H 0.1387 0.6603 0.3078
O1_6 O 0.08286(17) 0.56854(23) 0.7341(4)
C1_6 C 0.0356(2) 0.5488(3) 0.6280(5)
H1_6 H 0.0062 0.6236 0.5888
O6_6 O 0.8162(3) 0.4421(4) 0.0867(6)
N2_6 N 0.9827(2) 0.6965(3) 0.3023(5)
N4_6 N 0.94187(19) 0.60397(28) 0.1329(4)
C5_6 C 0.7998(3) 0.5519(4) 0.2965(6)
H4_6 H 0.8107 0.5160 0.2781
C6_6 C 0.7326(3) 0.5347(4) 0.3437(6)
H5_6 H 0.6987 0.4868 0.3575
C7_6 C 0.7625(3) 0.6505(4) 0.3492(7)
H6_6 H 0.7497 0.6852 0.3647
C8_6 C 0.8319(3) 0.6722(4) 0.3049(7)
H7_6 H 0.8652 0.7205 0.2947
C9_6 C 0.8513(2) 0.6220(4) 0.2762(5)
C10_6 C 0.9249(2) 0.6412(3) 0.2355(5)
H12_6 H 0.839(3) 0.425(4) 0.129(7)
H13_6 H 0.786(3) 0.410(4) 0.066(7)
O3_6 O 0.97595(16) 0.59102(23) 0.8043(3)
O4_6 O 0.8453(2) 0.4501(3) 0.7678(4)
C2_6 C 0.9838(2) 0.5774(3) 0.6437(5)
C3_6 C 0.9130(3) 0.5304(4) 0.5587(5)
H2_6 H 0.8842 0.5532 0.5637
H3_6 H 0.9221 0.5259 0.4467
C4_6 C 0.8717(2) 0.4568(4) 0.6318(6)
loop_
_geom_bond_atom_site_label_1
_geom_bond_atom_site_label_2
_geom_bond_site_symmetry_1
_geom_bond_site_symmetry_2
Co1 O1 1_555 1_555
O1 C1 1_555 1_555
O2 C1 1_555 1_555
N1 C14 1_555 1_555
N3 Co1 1_555 1_555
C12 C11 1_555 1_555
C13 C12 1_555 1_555
H8 C13 1_555 1_555
C14 C13 1_555 1_555
H9 C14 1_555 1_555
C15 N1 1_555 1_555
H10 C15 1_555 1_555
C16 C12 1_555 1_555
H11 C16 1_555 1_555
Co5 N1 1_555 1_555
O8 Co1 1_555 1_555
N7 Co1 1_555 1_555
N3 C11 1_555 1_555
C15 C16 1_555 1_555
Co2 O3 1_555 1_555
O4 Co2 1_555 1_555
O5 C4 1_555 1_555
O6 Co2 1_555 1_555
N2 C10 1_555 1_555
N4 Co2 1_555 1_555
N5 C6 1_555 1_555
C2 O3 1_555 1_555
C3 C2 1_555 1_555
H2 C3 1_555 1_555
C4 O4 1_555 1_555
C5 H4 1_555 1_555
C6 C5 1_555 1_555
H5 C6 1_555 1_555
C7 N5 1_555 1_555
H6 C7 1_555 1_555
C8 C7 1_555 1_555
H7 C8 1_555 1_555
C9 C5 1_555 1_555
C10 N4 1_555 1_555
H12 O6 1_555 1_555
H13 O6 1_555 1_555
Co4 N5 1_555 1_555
N6 Co2 1_555 1_555
Co2 O7 1_555 1_555
C3 C4 1_555 1_555
C8 C9 1_555 1_555
C9 C10 1_555 1_555
N1_2 C14_2 1_555 1_555
N2_2 C10_2 1_555 1_555
N7 C6_2 1_555 1_555
C5_2 H4_2 1_555 1_555
C6_2 C5_2 1_555 1_555
H5_2 C6_2 1_555 1_555
C7_2 N7 1_555 1_555
H6_2 C7_2 1_555 1_555
C8_2 C7_2 1_555 1_555
H7_2 C8_2 1_555 1_555
C9_2 C5_2 1_555 1_555
C10_2 N4_2 1_555 1_555
C11_2 N2_2 1_555 1_555
C12_2 C11_2 1_555 1_555
C13_2 C12_2 1_555 1_555
H8_2 C13_2 1_555 1_555
C14_2 C13_2 1_555 1_555
H9_2 C14_2 1_555 1_555
C15_2 N1_2 1_555 1_555
H10_2 C15_2 1_555 1_555
C16_2 C12_2 1_555 1_555
H11_2 C16_2 1_555 1_555
H12_2 O6_2 1_555 1_555
H13_2 O6_2 1_555 1_555
Co5_2 N1_2 1_555 1_555
N3_2 N4_2 1_555 1_555
N3_2 C11_2 1_555 1_555
C8_2 C9_2 1_555 1_555
C9_2 C10_2 1_555 1_555
C15_2 C16_2 1_555 1_555
Co1_2 O1_2 1_555 1_555
Co5 O3_2 1_555 1_555
O1_2 C1_2 1_555 1_555
O2_2 C1_2 1_555 1_555
O3_2 Co1_2 1_555 1_555
O4_2 Co5 1_555 1_555
O5_2 C4_2 1_555 1_555
C1_2 C2_2 1_555 1_555
C2_2 O3_2 1_555 1_555
H1_2 C2_2 1_555 1_555
C3_2 C2_2 1_555 1_555
H2_2 C3_2 1_555 1_555
H3_2 C3_2 1_555 1_555
C4_2 O4_2 1_555 1_555
Co3_2 O2_2 1_555 1_555
Co6_2 O2_2 1_555 1_555
N7_2 Co1_2 1_555 1_555
O5_2 Co3_2 1_555 1_555
C3_2 C4_2 1_555 1_555
Co5_2 O3_3 1_555 1_555
O4_3 Co5_2 1_555 1_555
O5_3 C4_3 1_555 1_555
O6_3 Co5_2 1_555 1_555
N2_3 C10_3 1_555 1_555
N4_3 Co5_2 1_555 1_555
N7_2 C6_3 1_555 1_555
C2_3 O3_3 1_555 1_555
C3_3 C2_3 1_555 1_555
H2_3 C3_3 1_555 1_555
C4_3 O4_3 1_555 1_555
C5_3 H4_3 1_555 1_555
C6_3 C5_3 1_555 1_555
H5_3 C6_3 1_555 1_555
C7_3 N7_2 1_555 1_555
H6_3 C7_3 1_555 1_555
C8_3 C7_3 1_555 1_555
H7_3 C8_3 1_555 1_555
C9_3 C5_3 1_555 1_555
C10_3 N4_3 1_555 1_555
H12_3 O6_3 1_555 1_555
H13_3 O6_3 1_555 1_555
Co5_2 O7_3 1_555 1_555
C3_3 C4_3 1_555 1_555
C8_3 C9_3 1_555 1_555
C9_3 C10_3 1_555 1_555
Co1_3 O1_3 1_555 1_555
O1_3 C1_3 1_555 1_555
O2_3 C1_3 1_555 1_555
N1_3 C14_3 1_555 1_555
N3_3 Co1_3 1_555 1_555
C12_3 C11_3 1_555 1_555
C13_3 C12_3 1_555 1_555
H8_3 C13_3 1_555 1_555
C14_3 C13_3 1_555 1_555
H9_3 C14_3 1_555 1_555
C15_3 N1_3 1_555 1_555
H10_3 C15_3 1_555 1_555
C16_3 C12_3 1_555 1_555
H11_3 C16_3 1_555 1_555
Co6 N1_3 1_555 1_555
O8_3 Co1_3 1_555 1_555
N7_3 Co1_3 1_555 1_555
N3_3 C11_3 1_555 1_555
C15_3 C16_3 1_555 1_555
N2_4 C10_4 1_555 1_555
N7_3 C6_4 1_555 1_555
C5_4 H4_4 1_555 1_555
C6_4 C5_4 1_555 1_555
H5_4 C6_4 1_555 1_555
C7_4 N7_3 1_555 1_555
H6_4 C7_4 1_555 1_555
C8_4 C7_4 1_555 1_555
H7_4 C8_4 1_555 1_555
C9_4 C5_4 1_555 1_555
C10_4 N4_4 1_555 1_555
H12_4 O6_4 1_555 1_555
H13_4 O6_4 1_555 1_555
C8_4 C9_4 1_555 1_555
C9_4 C10_4 1_555 1_555
Co6 O3_4 1_555 1_555
O4_4 Co6 1_555 1_555
O8 C4_4 1_555 1_555
C2_4 O3_4 1_555 1_555
C3_4 C2_4 1_555 1_555
H2_4 C3_4 1_555 1_555
H3_4 C3_4 1_555 1_555
C4_4 O4_4 1_555 1_555
C3_4 C4_4 1_555 1_555
N1_4 C14_4 1_555 1_555
C12_4 C11_4 1_555 1_555
C13_4 C12_4 1_555 1_555
H8_4 C13_4 1_555 1_555
C14_4 C13_4 1_555 1_555
H9_4 C14_4 1_555 1_555
C15_4 N1_4 1_555 1_555
H10_4 C15_4 1_555 1_555
C16_4 C12_4 1_555 1_555
H11_4 C16_4 1_555 1_555
Co6_2 N1_4 1_555 1_555
N3_4 C11_4 1_555 1_555
C15_4 C16_4 1_555 1_555
Co3 O1_4 1_555 1_555
O1_4 C1_4 1_555 1_555
O7 C1_4 1_555 1_555
N7_4 Co3 1_555 1_555
Co3_2 O1_5 1_555 1_555
Co6_2 O3_5 1_555 1_555
O1_5 C1_5 1_555 1_555
O7_2 C1_5 1_555 1_555
O3_5 Co3_2 1_555 1_555
O4_5 Co6_2 1_555 1_555
O8_2 C4_5 1_555 1_555
O6_5 Co6_2 1_555 1_555
N1_5 C14_5 1_555 1_555
N2_5 C10_5 1_555 1_555
N3_5 Co3_2 1_555 1_555
N4_5 Co6_2 1_555 1_555
N7_4 C6_5 1_555 1_555
C1_5 C2_5 1_555 1_555
C2_5 O3_5 1_555 1_555
H1_5 C2_5 1_555 1_555
C3_5 C2_5 1_555 1_555
H2_5 C3_5 1_555 1_555
C4_5 O4_5 1_555 1_555
C5_5 H4_5 1_555 1_555
C6_5 C5_5 1_555 1_555
H5_5 C6_5 1_555 1_555
C7_5 N7_4 1_555 1_555
H6_5 C7_5 1_555 1_555
C8_5 C7_5 1_555 1_555
H7_5 C8_5 1_555 1_555
C9_5 C5_5 1_555 1_555
C10_5 N4_5 1_555 1_555
C11_5 N2_5 1_555 1_555
C12_5 C11_5 1_555 1_555
C13_5 C12_5 1_555 1_555
H8_5 C13_5 1_555 1_555
C14_5 C13_5 1_555 1_555
H9_5 C14_5 1_555 1_555
C15_5 N1_5 1_555 1_555
H10_5 C15_5 1_555 1_555
C16_5 C12_5 1_555 1_555
H11_5 C16_5 1_555 1_555
H12_5 O6_5 1_555 1_555
H13_5 O6_5 1_555 1_555
Co6_3 N1_5 1_555 1_555
N7_5 Co3_2 1_555 1_555
N3_5 N4_5 1_555 1_555
N3_5 C11_5 1_555 1_555
C3_5 C4_5 1_555 1_555
C8_5 C9_5 1_555 1_555
C9_5 C10_5 1_555 1_555
C15_5 C16_5 1_555 1_555
N6 C14_6 1_555 1_555
C12_6 C11_6 1_555 1_555
C13_6 C12_6 1_555 1_555
H8_6 C13_6 1_555 1_555
C14_6 C13_6 1_555 1_555
H9_6 C14_6 1_555 1_555
C15_6 N6 1_555 1_555
H10_6 C15_6 1_555 1_555
C16_6 C12_6 1_555 1_555
H11_6 C16_6 1_555 1_555
N3_6 C11_6 1_555 1_555
C15_6 C16_6 1_555 1_555
Co4 O1_6 1_555 1_555
O1_6 C1_6 1_555 1_555
O7_3 C1_6 1_555 1_555
N2_6 C10_6 1_555 1_555
N7_5 C6_6 1_555 1_555
C5_6 H4_6 1_555 1_555
C6_6 C5_6 1_555 1_555
H5_6 C6_6 1_555 1_555
C7_6 N7_5 1_555 1_555
H6_6 C7_6 1_555 1_555
C8_6 C7_6 1_555 1_555
H7_6 C8_6 1_555 1_555
C9_6 C5_6 1_555 1_555
C10_6 N4_6 1_555 1_555
H12_6 O6_6 1_555 1_555
H13_6 O6_6 1_555 1_555
C8_6 C9_6 1_555 1_555
C9_6 C10_6 1_555 1_555
Co6_3 O3_6 1_555 1_555
O4_6 Co6_3 1_555 1_555
O8_3 C4_6 1_555 1_555
C2_6 O3_6 1_555 1_555
C3_6 C2_6 1_555 1_555
H2_6 C3_6 1_555 1_555
H3_6 C3_6 1_555 1_555
C4_6 O4_6 1_555 1_555
C3_6 C4_6 1_555 1_555

#END
