
###############################################################################
#
# This file contains modified crystal structure data generated from the
# MOF subset of the Cambridge Structural Database (CSD) v543 
# hosted by the Cambridge Crystallographic Data Centre (CCDC).
#
# This work is licensed under the Creative Commons
# Attribution-NonCommercial-ShareAlike 4.0 International License.
# To view a copy of this license, visit
# http://creativecommons.org/licenses/by-nc-sa/4.0/
# or send a letter to
# Creative Commons, PO Box 1866, Mountain View, CA 94042, USA.
#
# CIF created using the CSD Python API on 29 September 2022
# The structure has been converted into the P1 space group
# The structure has a 3D framework
# The original CSD entry UJOVIB is in the hexagonal crystal system
# The original CSD entry UJOVIB is in a Sohncke space group
# The framework has been calculated to contain at least 10.0% void space
# The void calculation uses a probe of radius 1.32A, grid spacing 0.4
#
###############################################################################

data_UJOVIB
_chemical_formula_moiety         '(C96 H78 Co12 N30 O36)n'
_symmetry_cell_setting           triclinic
_symmetry_space_group_name_H-M   'P 1'
_symmetry_Int_Tables_number      1
_space_group_name_Hall           'P 1'
loop_
_symmetry_equiv_pos_site_id
_symmetry_equiv_pos_as_xyz
1 x,y,z
_cell_length_a                   21.6539(6)
_cell_length_b                   21.6539(6)
_cell_length_c                   8.3373(3)
_cell_angle_alpha                90
_cell_angle_beta                 90
_cell_angle_gamma                120
_cell_volume                     3385.54
loop_
_atom_site_label
_atom_site_type_symbol
_atom_site_fract_x
_atom_site_fract_y
_atom_site_fract_z
C1 C 0.73648(18) 0.11232(18) 0.2940(5)
C2 C 0.7086(2) 0.15533(19) 0.3275(6)
H3 H 0.6598 0.1377 0.3195
C3 C 0.8506(2) 0.2125(2) 0.3536(6)
H4 H 0.8997 0.2317 0.3613
C4 C 0.8096(2) 0.1421(2) 0.3083(6)
H5 H 0.8309 0.1148 0.2876
C5 C 0.75371(19) 0.22516(19) 0.3733(5)
H6 H 0.7336 0.2534 0.3962
C10 C 0.69024(17) 0.03693(17) 0.2477(4)
N2 N 0.63602(14) 0.01453(13) 0.1455(4)
N5 N 0.82374(15) 0.25427(15) 0.3867(4)
Co6 Co 0.89175(2) 0.36309(3) 0.45319(8)
O8 O 0.59617(13) 0.13436(13) 0.0635(3)
Co1 Co 0.60753(2) 0.05816(2) 0.95183(8)
O1 O 0.56880(13) 0.08275(12) 0.7426(3)
H7 H 0.6233 0.0055 0.5955
O5 O 0.51005(13) 0.03152(13) 0.5183(3)
C9 C 0.54859(17) 0.03570(17) 0.6354(4)
Co5 Co 0.47134(2) 0.10825(2) 0.45319(8)
N6 N 0.71319(15) 0.12998(21) 0.8790(4)
O3 O 0.44218(15) 0.81600(14) 0.0965(4)
H1 H 0.4045 0.7881 0.0374
H2 H 0.4259 0.8375 0.1594
N1 N 0.69685(15) 0.98282(15) 0.3106(4)
N3 N 0.60424(14) 0.94163(14) 0.1409(4)
C11 C 0.64170(18) 0.92527(17) 0.2439(4)
C12 C 0.62257(19) 0.85122(17) 0.2846(4)
C13 C 0.55184(19) 0.79948(18) 0.3050(5)
H10 H 0.5159 0.8103 0.2864
C14 C 0.6728(2) 0.8317(2) 0.3127(6)
H11 H 0.7211 0.8648 0.3025
C15 C 0.53492(19) 0.73238(18) 0.3524(5)
H12 H 0.4871 0.6986 0.3666
C16 C 0.6507(2) 0.7623(2) 0.3564(6)
H13 H 0.6853 0.7492 0.3709
N4 N 0.58321(15) 0.71319(15) 0.3790(4)
Co3 Co 0.54937(3) 0.60753(2) 0.45183(8)
O7 O 0.48995(13) 0.96848(13) 0.0183(3)
Co2 Co 0.52866(2) 0.89175(2) 0.95319(8)
O2 O 0.59106(12) 0.97587(12) 0.8127(3)
O4 O 0.44990(14) 0.84458(14) 0.7754(3)
C6 C 0.57726(17) 0.98334(17) 0.6509(4)
C7 C 0.52999(19) 0.91273(19) 0.5672(5)
H8 H 0.5254 0.9216 0.4550
H9 H 0.5525 0.8837 0.5725
C8 C 0.45657(19) 0.87200(17) 0.6410(5)
O6 O 0.40383(13) 0.86564(13) 0.5635(3)
Co4 Co 0.39247(2) 0.94184(2) 0.45183(8)
N7 N 0.56947(21) 0.82374(15) 0.8867(4)
Co2_2 Co 0.63691(3) 0.52866(2) 0.45319(8)
O1_2 O 0.48605(18) 0.56880(13) 0.2426(3)
O2_2 O 0.61519(17) 0.59106(12) 0.3127(3)
C1_2 C 0.62416(25) 0.73648(18) 0.7940(5)
O3_2 O 0.62618(21) 0.44218(15) 0.5965(4)
H1_2 H 0.6164 0.4045 0.5374
H2_2 H 0.5884 0.4259 0.6594
C2_2 C 0.55327(28) 0.7086(2) 0.8275(6)
H3_2 H 0.5221 0.6598 0.8195
C3_2 C 0.6381(3) 0.8506(2) 0.8536(6)
H4_2 H 0.6680 0.8997 0.8613
O4_2 O 0.60532(20) 0.44990(14) 0.2754(3)
C4_2 C 0.6675(3) 0.8096(2) 0.8083(6)
H5_2 H 0.7161 0.8309 0.7876
C5_2 C 0.52855(27) 0.75371(19) 0.8733(5)
H6_2 H 0.4802 0.7336 0.8962
C6_2 C 0.59392(24) 0.57726(17) 0.1509(4)
H7_2 H 0.6178 0.6233 0.0955
C7_2 C 0.61726(27) 0.52999(19) 0.0672(5)
H9_2 H 0.6688 0.5525 0.0725
C8_2 C 0.58457(25) 0.45657(19) 0.1410(5)
O5_2 O 0.47853(18) 0.51005(13) 0.0183(3)
O6_2 O 0.53819(18) 0.40383(13) 0.0635(3)
C9_2 C 0.51289(24) 0.54859(17) 0.1354(4)
N1_2 N 0.71403(21) 0.69685(15) 0.8106(4)
C10_2 C 0.65331(24) 0.69024(17) 0.7477(4)
N2_2 N 0.62149(19) 0.63602(14) 0.6455(4)
N3_2 N 0.66261(20) 0.60424(14) 0.6409(4)
C11_2 C 0.71643(25) 0.64170(18) 0.7439(4)
C12_2 C 0.77135(25) 0.62257(19) 0.7846(4)
C13_2 C 0.75236(26) 0.55184(19) 0.8050(5)
H10_2 H 0.7056 0.5159 0.7864
C14_2 C 0.8411(3) 0.6728(2) 0.8127(6)
H11_2 H 0.8563 0.7211 0.8025
C15_2 C 0.80254(26) 0.53492(19) 0.8524(5)
H12_2 H 0.7885 0.4871 0.8666
C16_2 C 0.8884(3) 0.6507(2) 0.8564(6)
H13_2 H 0.9361 0.6853 0.8709
N4_2 N 0.87002(21) 0.58321(15) 0.8790(4)
Co3_2 Co 0.94184(4) 0.54937(3) 0.95183(8)
O7_2 O 0.52147(18) 0.48995(13) 0.5183(3)
O8_2 O 0.46181(18) 0.59617(13) 0.5635(3)
N7_2 N 0.74573(26) 0.56947(21) 0.3867(4)
H8_2 H 0.6038 0.5254 0.9550
Co4_2 Co 0.45063(3) 0.39247(2) 0.95183(8)
Co5_2 Co 0.36309(3) 0.47134(2) 0.95319(8)
O3_3 O 0.18400(14) 0.62618(21) 0.0965(4)
H1_3 H 0.2119 0.6164 0.0374
H2_3 H 0.1625 0.5884 0.1594
N1_3 N 0.01718(15) 0.71403(21) 0.3106(4)
N3_3 N 0.05837(14) 0.66261(20) 0.1409(4)
C11_3 C 0.07473(17) 0.71643(25) 0.2439(4)
C12_3 C 0.14878(17) 0.77135(25) 0.2846(4)
C13_3 C 0.20052(18) 0.75236(26) 0.3050(5)
H10_3 H 0.1897 0.7056 0.2864
C14_3 C 0.1683(2) 0.8411(3) 0.3127(6)
H11_3 H 0.1352 0.8563 0.3025
C15_3 C 0.26762(18) 0.80254(26) 0.3524(5)
H12_3 H 0.3014 0.7885 0.3666
C16_3 C 0.2377(2) 0.8884(3) 0.3564(6)
H13_3 H 0.2508 0.9361 0.3709
N4_3 N 0.28681(15) 0.87002(21) 0.3790(4)
O7_3 O 0.03152(13) 0.52147(18) 0.0183(3)
Co2_3 Co 0.10825(2) 0.63691(3) 0.95319(8)
O2_3 O 0.02413(12) 0.61519(17) 0.8127(3)
O4_3 O 0.15542(14) 0.60532(20) 0.7754(3)
C6_3 C 0.01666(17) 0.59392(24) 0.6509(4)
C7_3 C 0.08727(19) 0.61726(27) 0.5672(5)
H8_3 H 0.0784 0.6038 0.4550
H9_3 H 0.1163 0.6688 0.5725
C8_3 C 0.12800(17) 0.58457(25) 0.6410(5)
O6_3 O 0.13436(13) 0.53819(18) 0.5635(3)
Co4_3 Co 0.05816(2) 0.45063(3) 0.45183(8)
N7_3 N 0.17626(15) 0.74573(26) 0.8867(4)
C1_3 C 0.88768(18) 0.62416(25) 0.2940(5)
C2_3 C 0.84467(19) 0.55327(28) 0.3275(6)
H3_3 H 0.8623 0.5221 0.3195
C3_3 C 0.7875(2) 0.6381(3) 0.3536(6)
H4_3 H 0.7683 0.6680 0.3613
C4_3 C 0.8579(2) 0.6675(3) 0.3083(6)
H5_3 H 0.8852 0.7161 0.2876
C5_3 C 0.77484(19) 0.52855(27) 0.3733(5)
H6_3 H 0.7466 0.4802 0.3962
C10_3 C 0.96307(17) 0.65331(24) 0.2477(4)
N2_3 N 0.98547(13) 0.62149(19) 0.1455(4)
O8_3 O 0.86564(13) 0.46181(18) 0.0635(3)
O1_3 O 0.91725(12) 0.48605(18) 0.7426(3)
H7_3 H 0.9945 0.6178 0.5955
O5_3 O 0.96848(13) 0.47853(18) 0.5183(3)
C9_3 C 0.96430(17) 0.51289(24) 0.6354(4)
O2_4 O 0.40894(12) 0.02413(12) 0.3127(3)
O3_4 O 0.55782(15) 0.18400(14) 0.5965(4)
H1_4 H 0.5955 0.2119 0.5374
H2_4 H 0.5741 0.1625 0.6594
O4_4 O 0.55010(14) 0.15542(14) 0.2754(3)
C6_4 C 0.42274(17) 0.01666(17) 0.1509(4)
C7_4 C 0.47001(19) 0.08727(19) 0.0672(5)
H9_4 H 0.4475 0.1163 0.0725
C8_4 C 0.54343(19) 0.12800(17) 0.1410(5)
N1_4 N 0.30315(15) 0.01718(15) 0.8106(4)
N3_4 N 0.39576(14) 0.05837(14) 0.6409(4)
C11_4 C 0.35830(18) 0.07473(17) 0.7439(4)
C12_4 C 0.37743(19) 0.14878(17) 0.7846(4)
C13_4 C 0.44816(19) 0.20052(18) 0.8050(5)
H10_4 H 0.4841 0.1897 0.7864
C14_4 C 0.3272(2) 0.1683(2) 0.8127(6)
H11_4 H 0.2789 0.1352 0.8025
C15_4 C 0.46508(19) 0.26762(18) 0.8524(5)
H12_4 H 0.5129 0.3014 0.8666
C16_4 C 0.3493(2) 0.2377(2) 0.8564(6)
H13_4 H 0.3147 0.2508 0.8709
N4_4 N 0.41679(15) 0.28681(15) 0.8790(4)
N7_4 N 0.43053(21) 0.17626(15) 0.3867(4)
H8_4 H 0.4746 0.0784 0.9550
O1_4 O 0.43120(13) 0.91725(12) 0.2426(3)
C1_4 C 0.26352(18) 0.88768(18) 0.7940(5)
C2_4 C 0.2914(2) 0.84467(19) 0.8275(6)
H3_4 H 0.3402 0.8623 0.8195
C3_4 C 0.1494(2) 0.7875(2) 0.8536(6)
H4_4 H 0.1003 0.7683 0.8613
C4_4 C 0.1904(2) 0.8579(2) 0.8083(6)
H5_4 H 0.1691 0.8852 0.7876
C5_4 C 0.24629(19) 0.77484(19) 0.8733(5)
H6_4 H 0.2664 0.7466 0.8962
H7_4 H 0.3767 0.9945 0.0955
C9_4 C 0.45141(17) 0.96430(17) 0.1354(4)
C10_4 C 0.30976(17) 0.96307(17) 0.7477(4)
N2_4 N 0.36398(14) 0.98547(13) 0.6455(4)
C1_5 C 0.37584(25) 0.26352(18) 0.2940(5)
O3_5 O 0.37382(21) 0.55782(15) 0.0965(4)
H1_5 H 0.3836 0.5955 0.0374
H2_5 H 0.4116 0.5741 0.1594
C2_5 C 0.44673(28) 0.2914(2) 0.3275(6)
H3_5 H 0.4779 0.3402 0.3195
C3_5 C 0.3619(3) 0.1494(2) 0.3536(6)
H4_5 H 0.3320 0.1003 0.3613
C4_5 C 0.3325(3) 0.1904(2) 0.3083(6)
H5_5 H 0.2839 0.1691 0.2876
C5_5 C 0.47145(27) 0.24629(19) 0.3733(5)
H6_5 H 0.5198 0.2664 0.3962
N1_5 N 0.28597(21) 0.30315(15) 0.3106(4)
C10_5 C 0.34669(24) 0.30976(17) 0.2477(4)
N2_5 N 0.37851(19) 0.36398(14) 0.1455(4)
N3_5 N 0.33739(20) 0.39576(14) 0.1409(4)
C11_5 C 0.28357(25) 0.35830(18) 0.2439(4)
C12_5 C 0.22865(25) 0.37743(19) 0.2846(4)
C13_5 C 0.24764(26) 0.44816(19) 0.3050(5)
H10_5 H 0.2944 0.4841 0.2864
C14_5 C 0.1589(3) 0.3272(2) 0.3127(6)
H11_5 H 0.1437 0.2789 0.3025
C15_5 C 0.19746(26) 0.46508(19) 0.3524(5)
H12_5 H 0.2115 0.5129 0.3666
C16_5 C 0.1116(3) 0.3493(2) 0.3564(6)
H13_5 H 0.0639 0.3147 0.3709
N4_5 N 0.12998(21) 0.41679(15) 0.3790(4)
O1_5 O 0.51395(18) 0.43120(13) 0.7426(3)
O2_5 O 0.38481(17) 0.40894(12) 0.8127(3)
O4_5 O 0.39468(20) 0.55010(14) 0.7754(3)
C6_5 C 0.40608(24) 0.42274(17) 0.6509(4)
H7_5 H 0.3822 0.3767 0.5955
C7_5 C 0.38274(27) 0.47001(19) 0.5672(5)
H8_5 H 0.3962 0.4746 0.4550
H9_5 H 0.3312 0.4475 0.5725
C8_5 C 0.41543(25) 0.54343(19) 0.6410(5)
C9_5 C 0.48711(24) 0.45141(17) 0.6354(4)
N7_5 N 0.25427(26) 0.43053(21) 0.8867(4)
O1_6 O 0.08275(12) 0.51395(18) 0.2426(3)
C1_6 C 0.11232(18) 0.37584(25) 0.7940(5)
C2_6 C 0.15533(19) 0.44673(28) 0.8275(6)
H3_6 H 0.1377 0.4779 0.8195
C3_6 C 0.2125(2) 0.3619(3) 0.8536(6)
H4_6 H 0.2317 0.3320 0.8613
C4_6 C 0.1421(2) 0.3325(3) 0.8083(6)
H5_6 H 0.1148 0.2839 0.7876
C5_6 C 0.22516(19) 0.47145(27) 0.8733(5)
H6_6 H 0.2534 0.5198 0.8962
H7_6 H 0.0055 0.3822 0.0955
C9_6 C 0.03570(17) 0.48711(24) 0.1354(4)
C10_6 C 0.03693(17) 0.34669(24) 0.7477(4)
N2_6 N 0.01453(13) 0.37851(19) 0.6455(4)
O2_6 O 0.97587(12) 0.38481(17) 0.3127(3)
O3_6 O 0.81600(14) 0.37382(21) 0.5965(4)
H1_6 H 0.7881 0.3836 0.5374
H2_6 H 0.8375 0.4116 0.6594
O4_6 O 0.84458(14) 0.39468(20) 0.2754(3)
C6_6 C 0.98334(17) 0.40608(24) 0.1509(4)
C7_6 C 0.91273(19) 0.38274(27) 0.0672(5)
H9_6 H 0.8837 0.3312 0.0725
C8_6 C 0.87200(17) 0.41543(25) 0.1410(5)
N1_6 N 0.98282(15) 0.28597(21) 0.8106(4)
N3_6 N 0.94163(14) 0.33739(20) 0.6409(4)
C11_6 C 0.92527(17) 0.28357(25) 0.7439(4)
C12_6 C 0.85122(17) 0.22865(25) 0.7846(4)
C13_6 C 0.79948(18) 0.24764(26) 0.8050(5)
H10_6 H 0.8103 0.2944 0.7864
C14_6 C 0.8317(2) 0.1589(3) 0.8127(6)
H11_6 H 0.8648 0.1437 0.8025
C15_6 C 0.73238(18) 0.19746(26) 0.8524(5)
H12_6 H 0.6986 0.2115 0.8666
C16_6 C 0.7623(2) 0.1116(3) 0.8564(6)
H13_6 H 0.7492 0.0639 0.8709
H8_6 H 0.9216 0.3962 0.9550
loop_
_geom_bond_atom_site_label_1
_geom_bond_atom_site_label_2
_geom_bond_site_symmetry_1
_geom_bond_site_symmetry_2
C1 C2 1_555 1_555
C2 H3 1_555 1_555
C3 H4 1_555 1_555
C4 C1 1_555 1_555
H5 C4 1_555 1_555
C5 C2 1_555 1_555
H6 C5 1_555 1_555
C10 C1 1_555 1_555
N5 C3 1_555 1_555
Co6 N5 1_555 1_555
C3 C4 1_555 1_555
C5 N5 1_555 1_555
C10 N2 1_555 1_555
Co1 O1 1_555 1_555
O1 C9 1_555 1_555
O5 C9 1_555 1_555
Co5 O5 1_555 1_555
N6 Co1 1_555 1_555
H1 O3 1_555 1_555
H2 O3 1_555 1_555
C11 N1 1_555 1_555
C12 C11 1_555 1_555
C13 C12 1_555 1_555
H10 C13 1_555 1_555
C14 C12 1_555 1_555
H11 C14 1_555 1_555
C15 C13 1_555 1_555
H12 C15 1_555 1_555
C16 C14 1_555 1_555
H13 C16 1_555 1_555
N4 C15 1_555 1_555
Co3 N4 1_555 1_555
N3 C11 1_555 1_555
C16 N4 1_555 1_555
Co2 O2 1_555 1_555
O4 Co2 1_555 1_555
C6 O2 1_555 1_555
C7 C6 1_555 1_555
H8 C7 1_555 1_555
H9 C7 1_555 1_555
C8 O4 1_555 1_555
O6 C8 1_555 1_555
N7 Co2 1_555 1_555
C7 C8 1_555 1_555
O6 Co4 1_555 1_555
Co3 O1_2 1_555 1_555
Co2_2 O2_2 1_555 1_555
O1_2 C9_2 1_555 1_555
O2_2 Co3 1_555 1_555
C1_2 C2_2 1_555 1_555
O3_2 Co2_2 1_555 1_555
H1_2 O3_2 1_555 1_555
H2_2 O3_2 1_555 1_555
C2_2 H3_2 1_555 1_555
C3_2 H4_2 1_555 1_555
O4_2 Co2_2 1_555 1_555
C4_2 C1_2 1_555 1_555
H5_2 C4_2 1_555 1_555
C5_2 C2_2 1_555 1_555
H6_2 C5_2 1_555 1_555
C6_2 O2_2 1_555 1_555
H7_2 C6_2 1_555 1_555
C7_2 C6_2 1_555 1_555
H9_2 C7_2 1_555 1_555
C8_2 O4_2 1_555 1_555
O5_2 C9_2 1_555 1_555
O6_2 C8_2 1_555 1_555
C9_2 C6_2 1_555 1_555
N1_2 C10_2 1_555 1_555
C10_2 C1_2 1_555 1_555
N2_2 Co3 1_555 1_555
N3_2 Co2_2 1_555 1_555
C11_2 N1_2 1_555 1_555
C12_2 C11_2 1_555 1_555
C13_2 C12_2 1_555 1_555
H10_2 C13_2 1_555 1_555
C14_2 C12_2 1_555 1_555
H11_2 C14_2 1_555 1_555
C15_2 C13_2 1_555 1_555
H12_2 C15_2 1_555 1_555
C16_2 C14_2 1_555 1_555
H13_2 C16_2 1_555 1_555
N4_2 C15_2 1_555 1_555
N7 C3_2 1_555 1_555
Co3_2 N4_2 1_555 1_555
O7_2 Co3 1_555 1_555
O8_2 Co3 1_555 1_555
N7_2 Co2_2 1_555 1_555
Co2_2 O7_2 1_555 1_555
C3_2 C4_2 1_555 1_555
C5_2 N7 1_555 1_555
C7_2 C8_2 1_555 1_555
C10_2 N2_2 1_555 1_555
N2_2 N3_2 1_555 1_555
N3_2 C11_2 1_555 1_555
C16_2 N4_2 1_555 1_555
H1_3 O3_3 1_555 1_555
H2_3 O3_3 1_555 1_555
C11_3 N1_3 1_555 1_555
C12_3 C11_3 1_555 1_555
C13_3 C12_3 1_555 1_555
H10_3 C13_3 1_555 1_555
C14_3 C12_3 1_555 1_555
H11_3 C14_3 1_555 1_555
C15_3 C13_3 1_555 1_555
H12_3 C15_3 1_555 1_555
C16_3 C14_3 1_555 1_555
H13_3 C16_3 1_555 1_555
N4_3 C15_3 1_555 1_555
Co4 N4_3 1_555 1_555
N3_3 C11_3 1_555 1_555
C16_3 N4_3 1_555 1_555
Co2_3 O2_3 1_555 1_555
O4_3 Co2_3 1_555 1_555
C6_3 O2_3 1_555 1_555
C7_3 C6_3 1_555 1_555
H8_3 C7_3 1_555 1_555
H9_3 C7_3 1_555 1_555
C8_3 O4_3 1_555 1_555
O6_3 C8_3 1_555 1_555
N7_3 Co2_3 1_555 1_555
C7_3 C8_3 1_555 1_555
O6_3 Co4_3 1_555 1_555
C1_3 C2_3 1_555 1_555
C2_3 H3_3 1_555 1_555
C3_3 H4_3 1_555 1_555
C4_3 C1_3 1_555 1_555
H5_3 C4_3 1_555 1_555
C5_3 C2_3 1_555 1_555
H6_3 C5_3 1_555 1_555
C10_3 C1_3 1_555 1_555
N7_2 C3_3 1_555 1_555
C3_3 C4_3 1_555 1_555
C5_3 N7_2 1_555 1_555
C10_3 N2_3 1_555 1_555
Co3_2 O1_3 1_555 1_555
O1_3 C9_3 1_555 1_555
O5_3 C9_3 1_555 1_555
Co6 O5_3 1_555 1_555
Co5 O2_4 1_555 1_555
O3_4 Co5 1_555 1_555
H1_4 O3_4 1_555 1_555
H2_4 O3_4 1_555 1_555
O4_4 Co5 1_555 1_555
C6_4 O2_4 1_555 1_555
C7_4 C6_4 1_555 1_555
H9_4 C7_4 1_555 1_555
C8_4 O4_4 1_555 1_555
O8 C8_4 1_555 1_555
N3_4 Co5 1_555 1_555
C11_4 N1_4 1_555 1_555
C12_4 C11_4 1_555 1_555
C13_4 C12_4 1_555 1_555
H10_4 C13_4 1_555 1_555
C14_4 C12_4 1_555 1_555
H11_4 C14_4 1_555 1_555
C15_4 C13_4 1_555 1_555
H12_4 C15_4 1_555 1_555
C16_4 C14_4 1_555 1_555
H13_4 C16_4 1_555 1_555
N4_4 C15_4 1_555 1_555
Co4_2 N4_4 1_555 1_555
N7_4 Co5 1_555 1_555
C7_4 C8_4 1_555 1_555
N3_4 C11_4 1_555 1_555
C16_4 N4_4 1_555 1_555
Co4 O1_4 1_555 1_555
O1_4 C9_4 1_555 1_555
C1_4 C2_4 1_555 1_555
C2_4 H3_4 1_555 1_555
C3_4 H4_4 1_555 1_555
C4_4 C1_4 1_555 1_555
H5_4 C4_4 1_555 1_555
C5_4 C2_4 1_555 1_555
H6_4 C5_4 1_555 1_555
O7 C9_4 1_555 1_555
C10_4 C1_4 1_555 1_555
N2_4 Co4 1_555 1_555
N7_3 C3_4 1_555 1_555
C3_4 C4_4 1_555 1_555
C5_4 N7_3 1_555 1_555
C10_4 N2_4 1_555 1_555
C1_5 C2_5 1_555 1_555
H1_5 O3_5 1_555 1_555
H2_5 O3_5 1_555 1_555
C2_5 H3_5 1_555 1_555
C3_5 H4_5 1_555 1_555
C4_5 C1_5 1_555 1_555
H5_5 C4_5 1_555 1_555
C5_5 C2_5 1_555 1_555
H6_5 C5_5 1_555 1_555
N1_5 C10_5 1_555 1_555
C10_5 C1_5 1_555 1_555
C11_5 N1_5 1_555 1_555
C12_5 C11_5 1_555 1_555
C13_5 C12_5 1_555 1_555
H10_5 C13_5 1_555 1_555
C14_5 C12_5 1_555 1_555
H11_5 C14_5 1_555 1_555
C15_5 C13_5 1_555 1_555
H12_5 C15_5 1_555 1_555
C16_5 C14_5 1_555 1_555
H13_5 C16_5 1_555 1_555
N4_5 C15_5 1_555 1_555
N7_4 C3_5 1_555 1_555
Co4_3 N4_5 1_555 1_555
C3_5 C4_5 1_555 1_555
C5_5 N7_4 1_555 1_555
C10_5 N2_5 1_555 1_555
N2_5 N3_5 1_555 1_555
N3_5 C11_5 1_555 1_555
C16_5 N4_5 1_555 1_555
Co4_2 O1_5 1_555 1_555
Co5_2 O2_5 1_555 1_555
O1_5 C9_5 1_555 1_555
O2_5 Co4_2 1_555 1_555
O4_5 Co5_2 1_555 1_555
C6_5 O2_5 1_555 1_555
H7_5 C6_5 1_555 1_555
C7_5 C6_5 1_555 1_555
H8_5 C7_5 1_555 1_555
H9_5 C7_5 1_555 1_555
C8_5 O4_5 1_555 1_555
O7_2 C9_5 1_555 1_555
O8_2 C8_5 1_555 1_555
C9_5 C6_5 1_555 1_555
N7_5 Co5_2 1_555 1_555
C7_5 C8_5 1_555 1_555
Co4_3 O1_6 1_555 1_555
O1_6 C9_6 1_555 1_555
C1_6 C2_6 1_555 1_555
C2_6 H3_6 1_555 1_555
C3_6 H4_6 1_555 1_555
C4_6 C1_6 1_555 1_555
H5_6 C4_6 1_555 1_555
C5_6 C2_6 1_555 1_555
H6_6 C5_6 1_555 1_555
O7_3 C9_6 1_555 1_555
C10_6 C1_6 1_555 1_555
N2_6 Co4_3 1_555 1_555
N7_5 C3_6 1_555 1_555
C3_6 C4_6 1_555 1_555
C5_6 N7_5 1_555 1_555
C10_6 N2_6 1_555 1_555
Co6 O2_6 1_555 1_555
O3_6 Co6 1_555 1_555
H1_6 O3_6 1_555 1_555
H2_6 O3_6 1_555 1_555
O4_6 Co6 1_555 1_555
C6_6 O2_6 1_555 1_555
C7_6 C6_6 1_555 1_555
H9_6 C7_6 1_555 1_555
C8_6 O4_6 1_555 1_555
O8_3 C8_6 1_555 1_555
N3_6 Co6 1_555 1_555
C11_6 N1_6 1_555 1_555
C12_6 C11_6 1_555 1_555
C13_6 C12_6 1_555 1_555
H10_6 C13_6 1_555 1_555
C14_6 C12_6 1_555 1_555
H11_6 C14_6 1_555 1_555
C15_6 C13_6 1_555 1_555
H12_6 C15_6 1_555 1_555
C16_6 C14_6 1_555 1_555
H13_6 C16_6 1_555 1_555
N6 C15_6 1_555 1_555
C7_6 C8_6 1_555 1_555
N3_6 C11_6 1_555 1_555
C16_6 N6 1_555 1_555

#END
