
###############################################################################
#
# This file contains modified crystal structure data generated from the
# MOF subset of the Cambridge Structural Database (CSD) v543 
# hosted by the Cambridge Crystallographic Data Centre (CCDC).
#
# This work is licensed under the Creative Commons
# Attribution-NonCommercial-ShareAlike 4.0 International License.
# To view a copy of this license, visit
# http://creativecommons.org/licenses/by-nc-sa/4.0/
# or send a letter to
# Creative Commons, PO Box 1866, Mountain View, CA 94042, USA.
#
# CIF created using the CSD Python API on 29 September 2022
# The structure has been converted into the P1 space group
# The structure has a 3D framework
# The original CSD entry UKAKIC is in the monoclinic crystal system
# The framework has been calculated to contain at least 10.0% void space
# The void calculation uses a probe of radius 1.32A, grid spacing 0.4
#
###############################################################################

data_UKAKIC
_chemical_formula_moiety         '(C52 H44 Cu2 N12 O16)n'
_symmetry_cell_setting           triclinic
_symmetry_space_group_name_H-M   'P 1'
_symmetry_Int_Tables_number      1
_space_group_name_Hall           'P 1'
loop_
_symmetry_equiv_pos_site_id
_symmetry_equiv_pos_as_xyz
1 x,y,z
_cell_length_a                   10.8770(17)
_cell_length_b                   12.579(2)
_cell_length_c                   14.114(2)
_cell_angle_alpha                90
_cell_angle_beta                 110.02(2)
_cell_angle_gamma                90
_cell_volume                     1814.41
loop_
_atom_site_label
_atom_site_type_symbol
_atom_site_fract_x
_atom_site_fract_y
_atom_site_fract_z
C1 C 0.1173(6) 0.3976(5) 0.4014(5)
C2 C 0.1897(6) 0.3298(5) 0.3516(5)
C3 C 0.1220(9) 0.2606(6) 0.2737(5)
H1 H 0.0291 0.2603 0.2495
C4 C 0.1891(6) 0.1921(6) 0.2314(5)
C5 C 0.3260(6) 0.1942(6) 0.2660(5)
H2 H 0.3730 0.1479 0.2376
C6 C 0.3919(8) 0.2637(6) 0.3413(5)
C7 C 0.3268(6) 0.3336(6) 0.3847(5)
H3 H 0.3742 0.3825 0.4353
C8 C 0.1171(6) 0.1198(6) 0.1477(5)
C9 C 0.6097(7) 0.3533(7) 0.3907(5)
H4 H 0.5771 0.4238 0.3771
C10 C 0.6179(7) 0.1812(7) 0.4063(6)
C11 C 0.5816(8) 0.0718(7) 0.4107(9)
H5 H 0.4985 0.0589 0.3546
H6 H 0.5641 0.0610 0.4744
H8 H 0.7666 0.0079 0.4534
N1 N 0.7320(6) 0.3288(5) 0.4234(4)
N2 N 0.7399(6) 0.2198(7) 0.4331(5)
N3 N 0.5338(7) 0.2661(6) 0.3783(5)
O1 O 0.1753(4) 0.4794(4) 0.4461(4)
O2 O 0.0055(5) 0.3669(4) 0.3962(4)
O3 O 0.1756(5) 0.0353(4) 0.1389(4)
O4 O 0.0047(4) 0.1477(4) 0.0919(4)
Cu1 Cu 0.10074(7) 0.56804(6) 0.52934(6)
N4 N 0.2680(6) 0.6712(5) 0.5766(4)
O6 O 0.1756(5) 0.4647(4) 0.6389(4)
Cu4 Cu 0.89926(7) 0.43196(6) 0.47066(6)
C12 C 0.6794(14) 0.9889(10) 0.4050(13)
H7 H 0.6851 0.9900 0.3365
C13 C 0.6464(13) 0.8795(8) 0.4275(10)
H9 H 0.6388 0.8778 0.4947
H10 H 0.7154 0.8305 0.4254
H11 H 0.5630 0.8579 0.3771
Cu5 Cu 0.10074(7) 0.93196(6) 0.02934(6)
O5 O 0.9945(5) 0.6331(4) 0.6038(4)
O7 O 0.9953(4) 0.6477(4) 0.4081(4)
Cu2 Cu 0.89926(7) 0.06804(6) 0.97066(6)
O5_2 O 0.0055(5) 0.1331(4) 0.8962(4)
N4_2 N 0.7320(6) 0.1712(5) 0.9234(4)
C1_2 C 0.8827(6) 0.8976(5) 0.0986(5)
C2_2 C 0.8103(6) 0.8298(5) 0.1484(5)
C3_2 C 0.8780(9) 0.7606(6) 0.2263(5)
H1_2 H 0.9709 0.7603 0.2505
C4_2 C 0.8109(6) 0.6921(6) 0.2686(5)
C5_2 C 0.6740(6) 0.6942(6) 0.2340(5)
H2_2 H 0.6270 0.6479 0.2624
C6_2 C 0.6081(8) 0.7637(6) 0.1587(5)
C7_2 C 0.6732(6) 0.8336(6) 0.1153(5)
H3_2 H 0.6258 0.8825 0.0647
C8_2 C 0.8829(6) 0.6198(6) 0.3523(5)
C9_2 C 0.3903(7) 0.8533(7) 0.1093(5)
H4_2 H 0.4229 0.9238 0.1229
C10_2 C 0.3821(7) 0.6812(7) 0.0937(6)
C11_2 C 0.4184(8) 0.5718(7) 0.0893(9)
H5_2 H 0.5015 0.5589 0.1454
H6_2 H 0.4359 0.5610 0.0256
C12_2 C 0.3206(14) 0.4889(10) 0.0950(13)
H7_2 H 0.3149 0.4900 0.1635
H8_2 H 0.2334 0.5079 0.0466
C13_2 C 0.3536(13) 0.3795(8) 0.0725(10)
H9_2 H 0.3612 0.3778 0.0053
H10_2 H 0.2846 0.3305 0.0746
H11_2 H 0.4370 0.3579 0.1229
N1_2 N 0.2680(6) 0.8288(5) 0.0766(4)
N2_2 N 0.2601(6) 0.7198(7) 0.0669(5)
N3_2 N 0.4662(7) 0.7661(6) 0.1217(5)
O1_2 O 0.8247(4) 0.9794(4) 0.0539(4)
O2_2 O 0.9945(5) 0.8669(4) 0.1038(4)
O3_2 O 0.8244(5) 0.5353(4) 0.3611(4)
O6_2 O 0.8244(5) 0.9647(4) 0.8611(4)
O7_2 O 0.0047(4) 0.3523(4) 0.5919(4)
C12_3 C 0.3206(14) 0.0111(10) 0.5950(13)
H7_3 H 0.3149 0.0100 0.6635
C13_3 C 0.3536(13) 0.1205(8) 0.5725(10)
H9_3 H 0.3612 0.1222 0.5053
H10_3 H 0.2846 0.1695 0.5746
H11_3 H 0.4370 0.1421 0.6229
C1_3 C 0.8827(6) 0.6024(5) 0.5986(5)
C2_3 C 0.8103(6) 0.6702(5) 0.6484(5)
C3_3 C 0.8780(9) 0.7394(6) 0.7263(5)
H1_3 H 0.9709 0.7397 0.7505
C4_3 C 0.8109(6) 0.8079(6) 0.7686(5)
C5_3 C 0.6740(6) 0.8058(6) 0.7340(5)
H2_3 H 0.6270 0.8521 0.7624
C6_3 C 0.6081(8) 0.7363(6) 0.6587(5)
C7_3 C 0.6732(6) 0.6664(6) 0.6153(5)
H3_3 H 0.6258 0.6175 0.5647
C8_3 C 0.8829(6) 0.8802(6) 0.8523(5)
C9_3 C 0.3903(7) 0.6467(7) 0.6093(5)
H4_3 H 0.4229 0.5762 0.6229
C10_3 C 0.3821(7) 0.8188(7) 0.5937(6)
C11_3 C 0.4184(8) 0.9282(7) 0.5893(9)
H5_3 H 0.5015 0.9411 0.6454
H6_3 H 0.4359 0.9390 0.5256
H8_3 H 0.2334 0.9921 0.5466
N2_3 N 0.2601(6) 0.7802(7) 0.5669(5)
N3_3 N 0.4662(7) 0.7339(6) 0.6217(5)
O1_3 O 0.8247(4) 0.5206(4) 0.5539(4)
O4_2 O 0.9953(4) 0.8523(4) 0.9081(4)
C1_4 C 0.1173(6) 0.1024(5) 0.9014(5)
C2_4 C 0.1897(6) 0.1702(5) 0.8516(5)
C3_4 C 0.1220(9) 0.2394(6) 0.7737(5)
H1_4 H 0.0291 0.2397 0.7495
C4_4 C 0.1891(6) 0.3079(6) 0.7314(5)
C5_4 C 0.3260(6) 0.3058(6) 0.7660(5)
H2_4 H 0.3730 0.3521 0.7376
C6_4 C 0.3919(8) 0.2363(6) 0.8413(5)
C7_4 C 0.3268(6) 0.1664(6) 0.8847(5)
H3_4 H 0.3742 0.1175 0.9353
C8_4 C 0.1171(6) 0.3802(6) 0.6477(5)
C9_4 C 0.6097(7) 0.1467(7) 0.8907(5)
H4_4 H 0.5771 0.0762 0.8771
C10_4 C 0.6179(7) 0.3188(7) 0.9063(6)
C11_4 C 0.5816(8) 0.4282(7) 0.9107(9)
H5_4 H 0.4985 0.4411 0.8546
H6_4 H 0.5641 0.4390 0.9744
C12_4 C 0.6794(14) 0.5111(10) 0.9050(13)
H7_4 H 0.6851 0.5100 0.8365
H8_4 H 0.7666 0.4921 0.9534
C13_4 C 0.6464(13) 0.6205(8) 0.9275(10)
H9_4 H 0.6388 0.6222 0.9947
H10_4 H 0.7154 0.6695 0.9254
H11_4 H 0.5630 0.6421 0.8771
N2_4 N 0.7399(6) 0.2802(7) 0.9331(5)
N3_4 N 0.5338(7) 0.2339(6) 0.8783(5)
O1_4 O 0.1753(4) 0.0206(4) 0.9461(4)
loop_
_geom_bond_atom_site_label_1
_geom_bond_atom_site_label_2
_geom_bond_site_symmetry_1
_geom_bond_site_symmetry_2
C1 C2 1_555 1_555
C2 C3 1_555 1_555
C3 H1 1_555 1_555
C4 C3 1_555 1_555
C5 C4 1_555 1_555
H2 C5 1_555 1_555
C6 C5 1_555 1_555
C7 C2 1_555 1_555
H3 C7 1_555 1_555
C8 C4 1_555 1_555
C9 H4 1_555 1_555
C10 C11 1_555 1_555
C11 H5 1_555 1_555
H6 C11 1_555 1_555
N1 C9 1_555 1_555
N2 C10 1_555 1_555
N3 C6 1_555 1_555
O1 C1 1_555 1_555
O2 C1 1_555 1_555
O3 C8 1_555 1_555
O4 C8 1_555 1_555
Cu1 O1 1_555 1_555
N4 Cu1 1_555 1_555
O6 Cu1 1_555 1_555
Cu4 N1 1_555 1_555
C6 C7 1_555 1_555
C9 N3 1_555 1_555
C10 N3 1_555 1_555
N1 N2 1_555 1_555
H7 C12 1_555 1_555
C13 C12 1_555 1_555
H9 C13 1_555 1_555
H10 C13 1_555 1_555
H11 C13 1_555 1_555
N4_2 Cu2 1_555 1_555
C1_2 C2_2 1_555 1_555
C2_2 C3_2 1_555 1_555
C3_2 H1_2 1_555 1_555
C4_2 C3_2 1_555 1_555
C5_2 C4_2 1_555 1_555
H2_2 C5_2 1_555 1_555
C6_2 C5_2 1_555 1_555
C7_2 C2_2 1_555 1_555
H3_2 C7_2 1_555 1_555
C8_2 C4_2 1_555 1_555
C9_2 H4_2 1_555 1_555
C10_2 C11_2 1_555 1_555
C11_2 H5_2 1_555 1_555
H6_2 C11_2 1_555 1_555
C12_2 C11_2 1_555 1_555
H7_2 C12_2 1_555 1_555
H8_2 C12_2 1_555 1_555
C13_2 C12_2 1_555 1_555
H9_2 C13_2 1_555 1_555
H10_2 C13_2 1_555 1_555
H11_2 C13_2 1_555 1_555
N1_2 C9_2 1_555 1_555
N2_2 C10_2 1_555 1_555
N3_2 C6_2 1_555 1_555
O1_2 C1_2 1_555 1_555
O2_2 C1_2 1_555 1_555
O3_2 C8_2 1_555 1_555
O7 C8_2 1_555 1_555
Cu5 N1_2 1_555 1_555
Cu4 O3_2 1_555 1_555
C6_2 C7_2 1_555 1_555
C9_2 N3_2 1_555 1_555
C10_2 N3_2 1_555 1_555
N1_2 N2_2 1_555 1_555
H7_3 C12_3 1_555 1_555
C13_3 C12_3 1_555 1_555
H9_3 C13_3 1_555 1_555
H10_3 C13_3 1_555 1_555
H11_3 C13_3 1_555 1_555
C1_3 C2_3 1_555 1_555
C2_3 C3_3 1_555 1_555
C3_3 H1_3 1_555 1_555
C4_3 C3_3 1_555 1_555
C5_3 C4_3 1_555 1_555
H2_3 C5_3 1_555 1_555
C6_3 C5_3 1_555 1_555
C7_3 C2_3 1_555 1_555
H3_3 C7_3 1_555 1_555
C8_3 C4_3 1_555 1_555
C9_3 H4_3 1_555 1_555
C10_3 C11_3 1_555 1_555
C11_3 H5_3 1_555 1_555
H6_3 C11_3 1_555 1_555
N4 C9_3 1_555 1_555
N2_3 C10_3 1_555 1_555
N3_3 C6_3 1_555 1_555
O1_3 C1_3 1_555 1_555
O5 C1_3 1_555 1_555
O6_2 C8_3 1_555 1_555
O4_2 C8_3 1_555 1_555
Cu4 O1_3 1_555 1_555
C6_3 C7_3 1_555 1_555
C9_3 N3_3 1_555 1_555
C10_3 N3_3 1_555 1_555
N4 N2_3 1_555 1_555
C1_4 C2_4 1_555 1_555
C2_4 C3_4 1_555 1_555
C3_4 H1_4 1_555 1_555
C4_4 C3_4 1_555 1_555
C5_4 C4_4 1_555 1_555
H2_4 C5_4 1_555 1_555
C6_4 C5_4 1_555 1_555
C7_4 C2_4 1_555 1_555
H3_4 C7_4 1_555 1_555
C8_4 C4_4 1_555 1_555
C9_4 H4_4 1_555 1_555
C10_4 C11_4 1_555 1_555
C11_4 H5_4 1_555 1_555
H6_4 C11_4 1_555 1_555
C12_4 C11_4 1_555 1_555
H7_4 C12_4 1_555 1_555
H8_4 C12_4 1_555 1_555
C13_4 C12_4 1_555 1_555
H9_4 C13_4 1_555 1_555
H10_4 C13_4 1_555 1_555
H11_4 C13_4 1_555 1_555
N4_2 C9_4 1_555 1_555
N2_4 C10_4 1_555 1_555
N3_4 C6_4 1_555 1_555
O1_4 C1_4 1_555 1_555
O5_2 C1_4 1_555 1_555
O6 C8_4 1_555 1_555
O7_2 C8_4 1_555 1_555
C6_4 C7_4 1_555 1_555
C9_4 N3_4 1_555 1_555
C10_4 N3_4 1_555 1_555
N4_2 N2_4 1_555 1_555

#END
