
###############################################################################
#
# This file contains modified crystal structure data generated from the
# MOF subset of the Cambridge Structural Database (CSD) v543 
# hosted by the Cambridge Crystallographic Data Centre (CCDC).
#
# This work is licensed under the Creative Commons
# Attribution-NonCommercial-ShareAlike 4.0 International License.
# To view a copy of this license, visit
# http://creativecommons.org/licenses/by-nc-sa/4.0/
# or send a letter to
# Creative Commons, PO Box 1866, Mountain View, CA 94042, USA.
#
# CIF created using the CSD Python API on 29 September 2022
# The structure has been converted into the P1 space group
# The structure has a 3D framework
# The original CSD entry UKALUP is in the orthorhombic crystal system
# The framework has been calculated to contain at least 10.0% void space
# The void calculation uses a probe of radius 1.32A, grid spacing 0.4
#
###############################################################################

data_UKALUP
_chemical_formula_moiety         '(C112 H104 Cu4 N24 O32)n'
_symmetry_cell_setting           triclinic
_symmetry_space_group_name_H-M   'P 1'
_symmetry_Int_Tables_number      1
_space_group_name_Hall           'P 1'
loop_
_symmetry_equiv_pos_site_id
_symmetry_equiv_pos_as_xyz
1 x,y,z
_cell_length_a                   13.3344(15)
_cell_length_b                   13.6545(14)
_cell_length_c                   20.0416(17)
_cell_angle_alpha                90
_cell_angle_beta                 90
_cell_angle_gamma                90
_cell_volume                     3649.07
loop_
_atom_site_label
_atom_site_type_symbol
_atom_site_fract_x
_atom_site_fract_y
_atom_site_fract_z
C1 C 0.3884(2) 0.7007(2) 0.69451(18)
C2 C 0.3152(2) 0.6370(2) 0.65745(17)
C3 C 0.2509(2) 0.5734(2) 0.69106(17)
H1 H 0.2559 0.5668 0.7376
C4 C 0.1792(2) 0.5196(2) 0.65625(17)
C5 C 0.1719(2) 0.5288(2) 0.58770(17)
H2 H 0.1239 0.4924 0.5640
C6 C 0.2358(2) 0.5921(2) 0.55414(17)
C7 C 0.3075(2) 0.6466(2) 0.58857(17)
H3 H 0.3503 0.6894 0.5654
C8 C 0.1092(2) 0.4521(2) 0.69249(18)
C9 C 0.1436(2) 0.6474(2) 0.45170(18)
C10 C 0.2929(2) 0.5858(2) 0.43444(18)
C11 C 0.0489(3) 0.6775(3) 0.4850(2)
H4 H 0.0204 0.6207 0.5080
H5 H 0.0008 0.6982 0.4508
C12 C 0.0619(4) 0.7598(4) 0.5348(3)
H6 H 0.0900 0.8166 0.5125
H7 H 0.1067 0.7389 0.5702
C13 C 0.3878(3) 0.5333(3) 0.4472(2)
H9 H 0.4317 0.5757 0.4737
H10 H 0.3732 0.4750 0.4740
C14 C 0.4394(6) 0.5043(7) 0.3900(3)
H11 H 0.4534 0.5612 0.3626
H12 H 0.3986 0.4584 0.3649
H13 H 0.5019 0.4731 0.4026
N1 N 0.1631(2) 0.6532(2) 0.38773(15)
N2 N 0.2585(2) 0.6128(2) 0.37655(15)
N3 N 0.2243(2) 0.60634(19) 0.48351(15)
O1 O 0.46322(17) 0.73018(16) 0.66207(12)
O2 O 0.36790(17) 0.72144(17) 0.75392(12)
O3 O 0.02991(17) 0.42783(17) 0.66191(13)
O4 O 0.13428(17) 0.42431(17) 0.74949(12)
Cu1 Cu 0.56185(2) 0.82588(2) 0.696034(18)
N4 N 0.6631(2) 0.8468(2) 0.61227(15)
O5 O 0.63210(17) 0.72144(17) 0.74608(12)
O6 O 0.47009(17) 0.92783(17) 0.66191(13)
O7 O 0.63428(17) 0.92431(17) 0.75051(12)
Cu2 Cu 0.06185(2) 0.67412(2) 0.303966(18)
Cu3 Cu 0.43815(2) 0.82588(2) 0.803966(18)
Cu4 Cu 0.06185(2) 0.32588(2) 0.803966(18)
H8 H 0.9972 0.7768 0.5537
Cu5 Cu 0.93815(2) 0.32588(2) 0.696034(18)
H2_2 H 0.3761 0.0076 0.0640
C8_2 C 0.3908(2) 0.0479(2) 0.19249(18)
O3_2 O 0.47009(17) 0.07217(17) 0.16191(13)
O4_2 O 0.36572(17) 0.07569(17) 0.24949(12)
Cu4_2 Cu 0.43815(2) 0.17412(2) 0.303966(18)
Cu5_2 Cu 0.56185(2) 0.17412(2) 0.196034(18)
C1_2 C 0.1116(2) 0.7993(2) 0.19451(18)
C2_2 C 0.1848(2) 0.8630(2) 0.15745(17)
C3_2 C 0.2491(2) 0.9266(2) 0.19106(17)
H1_2 H 0.2441 0.9332 0.2376
C4_2 C 0.3208(2) 0.9804(2) 0.15625(17)
C5_2 C 0.3281(2) 0.9712(2) 0.08770(17)
C6_2 C 0.2642(2) 0.9079(2) 0.05414(17)
C7_2 C 0.1925(2) 0.8534(2) 0.08857(17)
H3_2 H 0.1497 0.8106 0.0654
H4_2 H 0.4796 0.8793 0.0080
C12_2 C 0.4381(4) 0.7402(4) 0.0348(3)
H6_2 H 0.4100 0.6834 0.0125
H7_2 H 0.3933 0.7611 0.0702
H8_2 H 0.5028 0.7232 0.0537
O1_2 O 0.03678(17) 0.76982(16) 0.16207(12)
O2_2 O 0.13210(17) 0.77856(17) 0.25392(12)
O6_2 O 0.02991(17) 0.57217(17) 0.16191(13)
C9_2 C 0.3564(2) 0.8526(2) 0.95170(18)
C10_2 C 0.2071(2) 0.9142(2) 0.93444(18)
C11_2 C 0.4511(3) 0.8225(3) 0.9850(2)
H5_2 H 0.4992 0.8018 0.9508
C13_2 C 0.1122(3) 0.9667(3) 0.9472(2)
H9_2 H 0.0683 0.9243 0.9737
C14_2 C 0.0606(6) 0.9957(7) 0.8900(3)
H11_2 H 0.0466 0.9388 0.8626
N1_2 N 0.3369(2) 0.8468(2) 0.88773(15)
N2_2 N 0.2415(2) 0.8872(2) 0.87655(15)
N3_2 N 0.2757(2) 0.89366(19) 0.98351(15)
Cu1_2 Cu 0.93815(2) 0.67412(2) 0.196034(18)
N4_2 N 0.8369(2) 0.6532(2) 0.11227(15)
O5_2 O 0.86790(17) 0.77856(17) 0.24608(12)
O7_2 O 0.86572(17) 0.57569(17) 0.25051(12)
O7_3 O 0.13428(17) 0.57569(17) 0.24949(12)
H2_3 H 0.6239 0.0076 0.4360
C8_3 C 0.6092(2) 0.0479(2) 0.30751(18)
H10_2 H 0.8732 0.0250 0.5260
H12_2 H 0.8986 0.0416 0.6351
O3_3 O 0.52991(17) 0.07217(17) 0.33809(13)
O4_3 O 0.63428(17) 0.07569(17) 0.25051(12)
C1_3 C 0.8884(2) 0.7993(2) 0.30549(18)
C2_3 C 0.8152(2) 0.8630(2) 0.34255(17)
C3_3 C 0.7509(2) 0.9266(2) 0.30894(17)
H1_3 H 0.7559 0.9332 0.2624
C4_3 C 0.6792(2) 0.9804(2) 0.34375(17)
C5_3 C 0.6719(2) 0.9712(2) 0.41230(17)
C6_3 C 0.7358(2) 0.9079(2) 0.44586(17)
C7_3 C 0.8075(2) 0.8534(2) 0.41143(17)
H3_3 H 0.8503 0.8106 0.4346
C9_3 C 0.6436(2) 0.8526(2) 0.54830(18)
C10_3 C 0.7929(2) 0.9142(2) 0.56556(18)
C11_3 C 0.5489(3) 0.8225(3) 0.5150(2)
H4_3 H 0.5204 0.8793 0.4920
H5_3 H 0.5008 0.8018 0.5492
C12_3 C 0.5619(4) 0.7402(4) 0.4652(3)
H6_3 H 0.5900 0.6834 0.4875
H7_3 H 0.6067 0.7611 0.4298
H8_3 H 0.4972 0.7232 0.4463
C13_3 C 0.8878(3) 0.9667(3) 0.5528(2)
H9_3 H 0.9317 0.9243 0.5263
C14_3 C 0.9394(6) 0.9957(7) 0.6100(3)
H11_3 H 0.9534 0.9388 0.6374
N2_3 N 0.7585(2) 0.8872(2) 0.62345(15)
N3_3 N 0.7243(2) 0.89366(19) 0.51649(15)
O1_3 O 0.96322(17) 0.76982(16) 0.33793(12)
O6_3 O 0.97009(17) 0.57217(17) 0.33809(13)
H8_4 H 0.0028 0.7768 0.9463
C9_4 C 0.8564(2) 0.6474(2) 0.04830(18)
C10_4 C 0.7071(2) 0.5858(2) 0.06556(18)
C11_4 C 0.9511(3) 0.6775(3) 0.0150(2)
H5_4 H 0.9992 0.6982 0.0492
C13_4 C 0.6122(3) 0.5333(3) 0.0528(2)
H9_4 H 0.5683 0.5757 0.0263
H10_3 H 0.6268 0.4750 0.0260
C14_4 C 0.5606(6) 0.5043(7) 0.1100(3)
H11_4 H 0.5466 0.5612 0.1374
H12_3 H 0.6014 0.4584 0.1351
H13_2 H 0.4981 0.4731 0.0974
N2_4 N 0.7415(2) 0.6128(2) 0.12345(15)
N3_4 N 0.7757(2) 0.60634(19) 0.01649(15)
C1_4 C 0.6116(2) 0.7007(2) 0.80549(18)
C2_4 C 0.6848(2) 0.6370(2) 0.84255(17)
C3_4 C 0.7491(2) 0.5734(2) 0.80894(17)
H1_4 H 0.7441 0.5668 0.7624
C4_4 C 0.8208(2) 0.5196(2) 0.84375(17)
C5_4 C 0.8281(2) 0.5288(2) 0.91230(17)
H2_4 H 0.8761 0.4924 0.9360
C6_4 C 0.7642(2) 0.5921(2) 0.94586(17)
C7_4 C 0.6925(2) 0.6466(2) 0.91143(17)
H3_4 H 0.6497 0.6894 0.9346
C8_4 C 0.8908(2) 0.4521(2) 0.80751(18)
H4_4 H 0.9796 0.6207 0.9920
C12_4 C 0.9381(4) 0.7598(4) 0.9652(3)
H6_4 H 0.9100 0.8166 0.9875
H7_4 H 0.8933 0.7389 0.9298
O1_4 O 0.53678(17) 0.73018(16) 0.83793(12)
O3_4 O 0.97009(17) 0.42783(17) 0.83809(13)
O4_4 O 0.86572(17) 0.42431(17) 0.75051(12)
O6_4 O 0.52991(17) 0.92783(17) 0.83809(13)
O7_4 O 0.36572(17) 0.92431(17) 0.74949(12)
H8_5 H 0.0028 0.2232 0.4463
C1_5 C 0.6116(2) 0.2993(2) 0.30549(18)
C2_5 C 0.6848(2) 0.3630(2) 0.34255(17)
C3_5 C 0.7491(2) 0.4266(2) 0.30894(17)
H1_5 H 0.7441 0.4332 0.2624
C4_5 C 0.8208(2) 0.4804(2) 0.34375(17)
C5_5 C 0.8281(2) 0.4712(2) 0.41230(17)
H2_5 H 0.8761 0.5076 0.4360
C6_5 C 0.7642(2) 0.4079(2) 0.44586(17)
C7_5 C 0.6925(2) 0.3534(2) 0.41143(17)
H3_5 H 0.6497 0.3106 0.4346
C8_5 C 0.8908(2) 0.5479(2) 0.30751(18)
C9_5 C 0.8564(2) 0.3526(2) 0.54830(18)
C10_5 C 0.7071(2) 0.4142(2) 0.56556(18)
C11_5 C 0.9511(3) 0.3225(3) 0.5150(2)
H4_5 H 0.9796 0.3793 0.4920
H5_5 H 0.9992 0.3018 0.5492
C12_5 C 0.9381(4) 0.2402(4) 0.4652(3)
H6_5 H 0.9100 0.1834 0.4875
H7_5 H 0.8933 0.2611 0.4298
C13_5 C 0.6122(3) 0.4667(3) 0.5528(2)
H9_5 H 0.5683 0.4243 0.5263
H10_4 H 0.6268 0.5250 0.5260
C14_5 C 0.5606(6) 0.4957(7) 0.6100(3)
H11_5 H 0.5466 0.4388 0.6374
H12_4 H 0.6014 0.5416 0.6351
H13_3 H 0.4981 0.5269 0.5974
N1_3 N 0.8369(2) 0.3468(2) 0.61227(15)
N2_5 N 0.7415(2) 0.3872(2) 0.62345(15)
N3_5 N 0.7757(2) 0.39366(19) 0.51649(15)
O1_5 O 0.53678(17) 0.26982(16) 0.33793(12)
O2_3 O 0.63210(17) 0.27856(17) 0.24608(12)
N4_3 N 0.3369(2) 0.1532(2) 0.38773(15)
O5_3 O 0.36790(17) 0.27856(17) 0.25392(12)
N4_4 N 0.1631(2) 0.3468(2) 0.88773(15)
O5_4 O 0.13210(17) 0.22144(17) 0.75392(12)
C9_6 C 0.6436(2) 0.1474(2) 0.04830(18)
C10_6 C 0.7929(2) 0.0858(2) 0.06556(18)
C11_6 C 0.5489(3) 0.1775(3) 0.0150(2)
H5_6 H 0.5008 0.1982 0.0492
C13_6 C 0.8878(3) 0.0333(3) 0.0528(2)
H9_6 H 0.9317 0.0757 0.0263
C14_6 C 0.9394(6) 0.0043(7) 0.1100(3)
H11_6 H 0.9534 0.0612 0.1374
N1_4 N 0.6631(2) 0.1532(2) 0.11227(15)
N2_6 N 0.7585(2) 0.1128(2) 0.12345(15)
N3_6 N 0.7243(2) 0.10634(19) 0.01649(15)
C1_6 C 0.8884(2) 0.2007(2) 0.80549(18)
C2_6 C 0.8152(2) 0.1370(2) 0.84255(17)
C3_6 C 0.7509(2) 0.0734(2) 0.80894(17)
H1_6 H 0.7559 0.0668 0.7624
C4_6 C 0.6792(2) 0.0196(2) 0.84375(17)
C5_6 C 0.6719(2) 0.0288(2) 0.91230(17)
C6_6 C 0.7358(2) 0.0921(2) 0.94586(17)
C7_6 C 0.8075(2) 0.1466(2) 0.91143(17)
H3_6 H 0.8503 0.1894 0.9346
H4_6 H 0.5204 0.1207 0.9920
C12_6 C 0.5619(4) 0.2598(4) 0.9652(3)
H6_6 H 0.5900 0.3166 0.9875
H7_6 H 0.6067 0.2389 0.9298
H8_6 H 0.4972 0.2768 0.9463
O1_6 O 0.96322(17) 0.23018(16) 0.83793(12)
O2_4 O 0.86790(17) 0.22144(17) 0.74608(12)
H2_6 H 0.6239 0.9924 0.9360
C8_6 C 0.6092(2) 0.9521(2) 0.80751(18)
C1_7 C 0.1116(2) 0.2007(2) 0.69451(18)
C2_7 C 0.1848(2) 0.1370(2) 0.65745(17)
C3_7 C 0.2491(2) 0.0734(2) 0.69106(17)
H1_7 H 0.2441 0.0668 0.7376
C4_7 C 0.3208(2) 0.0196(2) 0.65625(17)
C5_7 C 0.3281(2) 0.0288(2) 0.58770(17)
C6_7 C 0.2642(2) 0.0921(2) 0.55414(17)
C7_7 C 0.1925(2) 0.1466(2) 0.58857(17)
H3_7 H 0.1497 0.1894 0.5654
C9_7 C 0.3564(2) 0.1474(2) 0.45170(18)
C10_7 C 0.2071(2) 0.0858(2) 0.43444(18)
C11_7 C 0.4511(3) 0.1775(3) 0.4850(2)
H4_7 H 0.4796 0.1207 0.5080
H5_7 H 0.4992 0.1982 0.4508
C12_7 C 0.4381(4) 0.2598(4) 0.5348(3)
H6_7 H 0.4100 0.3166 0.5125
H7_7 H 0.3933 0.2389 0.5702
H8_7 H 0.5028 0.2768 0.5537
C13_7 C 0.1122(3) 0.0333(3) 0.4472(2)
H9_7 H 0.0683 0.0757 0.4737
C14_7 C 0.0606(6) 0.0043(7) 0.3900(3)
H11_7 H 0.0466 0.0612 0.3626
N2_7 N 0.2415(2) 0.1128(2) 0.37655(15)
N3_7 N 0.2757(2) 0.10634(19) 0.48351(15)
O1_7 O 0.03678(17) 0.23018(16) 0.66207(12)
H2_7 H 0.3761 0.9924 0.5640
C8_7 C 0.3908(2) 0.9521(2) 0.69249(18)
H10_5 H 0.1268 0.9750 0.4740
H12_5 H 0.1014 0.9584 0.3649
C1_8 C 0.3884(2) 0.2993(2) 0.19451(18)
C2_8 C 0.3152(2) 0.3630(2) 0.15745(17)
C3_8 C 0.2509(2) 0.4266(2) 0.19106(17)
H1_8 H 0.2559 0.4332 0.2376
C4_8 C 0.1792(2) 0.4804(2) 0.15625(17)
C5_8 C 0.1719(2) 0.4712(2) 0.08770(17)
H2_8 H 0.1239 0.5076 0.0640
C6_8 C 0.2358(2) 0.4079(2) 0.05414(17)
C7_8 C 0.3075(2) 0.3534(2) 0.08857(17)
H3_8 H 0.3503 0.3106 0.0654
C8_8 C 0.1092(2) 0.5479(2) 0.19249(18)
H4_8 H 0.0204 0.3793 0.0080
C12_8 C 0.0619(4) 0.2402(4) 0.0348(3)
H6_8 H 0.0900 0.1834 0.0125
H7_8 H 0.1067 0.2611 0.0702
O1_8 O 0.46322(17) 0.26982(16) 0.16207(12)
C9_8 C 0.1436(2) 0.3526(2) 0.95170(18)
C10_8 C 0.2929(2) 0.4142(2) 0.93444(18)
C11_8 C 0.0489(3) 0.3225(3) 0.9850(2)
H5_8 H 0.0008 0.3018 0.9508
C13_8 C 0.3878(3) 0.4667(3) 0.9472(2)
H9_8 H 0.4317 0.4243 0.9737
H10_6 H 0.3732 0.5250 0.9740
C14_8 C 0.4394(6) 0.4957(7) 0.8900(3)
H11_8 H 0.4534 0.4388 0.8626
H12_6 H 0.3986 0.5416 0.8649
H13_4 H 0.5019 0.5269 0.9026
N2_8 N 0.2585(2) 0.3872(2) 0.87655(15)
N3_8 N 0.2243(2) 0.39366(19) 0.98351(15)
H8_8 H 0.9972 0.2232 0.0537
H10_7 H 0.1268 0.0250 0.9740
H12_7 H 0.1014 0.0416 0.8649
H13_5 H 0.9981 0.0269 0.9026
H13_6 H 0.0019 0.0269 0.5974
H13_7 H 0.0019 0.9731 0.0974
H10_8 H 0.8732 0.9750 0.0260
H12_8 H 0.8986 0.9584 0.1351
H13_8 H 0.9981 0.9731 0.4026
loop_
_geom_bond_atom_site_label_1
_geom_bond_atom_site_label_2
_geom_bond_site_symmetry_1
_geom_bond_site_symmetry_2
C1 C2 1_555 1_555
C2 C3 1_555 1_555
C3 H1 1_555 1_555
C4 C3 1_555 1_555
C5 C4 1_555 1_555
H2 C5 1_555 1_555
C6 C5 1_555 1_555
C7 C2 1_555 1_555
H3 C7 1_555 1_555
C8 C4 1_555 1_555
C9 C11 1_555 1_555
C10 C13 1_555 1_555
C11 H4 1_555 1_555
H5 C11 1_555 1_555
C12 C11 1_555 1_555
H6 C12 1_555 1_555
H7 C12 1_555 1_555
C13 H9 1_555 1_555
H10 C13 1_555 1_555
C14 C13 1_555 1_555
H11 C14 1_555 1_555
H12 C14 1_555 1_555
H13 C14 1_555 1_555
N1 C9 1_555 1_555
N2 C10 1_555 1_555
N3 C6 1_555 1_555
O1 C1 1_555 1_555
O2 C1 1_555 1_555
O3 C8 1_555 1_555
O4 C8 1_555 1_555
Cu1 O1 1_555 1_555
N4 Cu1 1_555 1_555
O5 Cu1 1_555 1_555
O6 Cu1 1_555 1_555
O7 Cu1 1_555 1_555
Cu2 N1 1_555 1_555
Cu3 O2 1_555 1_555
Cu4 O4 1_555 1_555
C6 C7 1_555 1_555
C9 N3 1_555 1_555
C10 N3 1_555 1_555
N1 N2 1_555 1_555
O3_2 C8_2 1_555 1_555
O4_2 C8_2 1_555 1_555
Cu4_2 O4_2 1_555 1_555
Cu5_2 O3_2 1_555 1_555
C1_2 C2_2 1_555 1_555
C2_2 C3_2 1_555 1_555
C3_2 H1_2 1_555 1_555
C4_2 C3_2 1_555 1_555
C5_2 C4_2 1_555 1_555
C6_2 C5_2 1_555 1_555
C7_2 C2_2 1_555 1_555
H3_2 C7_2 1_555 1_555
H6_2 C12_2 1_555 1_555
H7_2 C12_2 1_555 1_555
H8_2 C12_2 1_555 1_555
O1_2 C1_2 1_555 1_555
O2_2 C1_2 1_555 1_555
Cu2 O2_2 1_555 1_555
C6_2 C7_2 1_555 1_555
C9_2 C11_2 1_555 1_555
C10_2 C13_2 1_555 1_555
H5_2 C11_2 1_555 1_555
C13_2 H9_2 1_555 1_555
C14_2 C13_2 1_555 1_555
H11_2 C14_2 1_555 1_555
N1_2 C9_2 1_555 1_555
N2_2 C10_2 1_555 1_555
Cu3 N1_2 1_555 1_555
C9_2 N3_2 1_555 1_555
C10_2 N3_2 1_555 1_555
N1_2 N2_2 1_555 1_555
N4_2 Cu1_2 1_555 1_555
O5_2 Cu1_2 1_555 1_555
O7_2 Cu1_2 1_555 1_555
O7_3 Cu2 1_555 1_555
O3_3 C8_3 1_555 1_555
O4_3 C8_3 1_555 1_555
Cu5_2 O4_3 1_555 1_555
Cu4_2 O3_3 1_555 1_555
C1_3 C2_3 1_555 1_555
C2_3 C3_3 1_555 1_555
C3_3 H1_3 1_555 1_555
C4_3 C3_3 1_555 1_555
C5_3 C4_3 1_555 1_555
C6_3 C5_3 1_555 1_555
C7_3 C2_3 1_555 1_555
H3_3 C7_3 1_555 1_555
C9_3 C11_3 1_555 1_555
C10_3 C13_3 1_555 1_555
C11_3 H4_3 1_555 1_555
H5_3 C11_3 1_555 1_555
C12_3 C11_3 1_555 1_555
H6_3 C12_3 1_555 1_555
H7_3 C12_3 1_555 1_555
H8_3 C12_3 1_555 1_555
C13_3 H9_3 1_555 1_555
C14_3 C13_3 1_555 1_555
H11_3 C14_3 1_555 1_555
N4 C9_3 1_555 1_555
N2_3 C10_3 1_555 1_555
N3_3 C6_3 1_555 1_555
O1_3 C1_3 1_555 1_555
O5_2 C1_3 1_555 1_555
C6_3 C7_3 1_555 1_555
C9_3 N3_3 1_555 1_555
C10_3 N3_3 1_555 1_555
N4 N2_3 1_555 1_555
C9_4 C11_4 1_555 1_555
C10_4 C13_4 1_555 1_555
H5_4 C11_4 1_555 1_555
C13_4 H9_4 1_555 1_555
H10_3 C13_4 1_555 1_555
C14_4 C13_4 1_555 1_555
H11_4 C14_4 1_555 1_555
H12_3 C14_4 1_555 1_555
H13_2 C14_4 1_555 1_555
N4_2 C9_4 1_555 1_555
N2_4 C10_4 1_555 1_555
C9_4 N3_4 1_555 1_555
C10_4 N3_4 1_555 1_555
N4_2 N2_4 1_555 1_555
C1_4 C2_4 1_555 1_555
C2_4 C3_4 1_555 1_555
C3_4 H1_4 1_555 1_555
C4_4 C3_4 1_555 1_555
C5_4 C4_4 1_555 1_555
H2_4 C5_4 1_555 1_555
C6_4 C5_4 1_555 1_555
C7_4 C2_4 1_555 1_555
H3_4 C7_4 1_555 1_555
C8_4 C4_4 1_555 1_555
H6_4 C12_4 1_555 1_555
H7_4 C12_4 1_555 1_555
O1_4 C1_4 1_555 1_555
O5 C1_4 1_555 1_555
O3_4 C8_4 1_555 1_555
O4_4 C8_4 1_555 1_555
Cu3 O1_4 1_555 1_555
O6_4 Cu3 1_555 1_555
O7_4 Cu3 1_555 1_555
Cu5 O4_4 1_555 1_555
C6_4 C7_4 1_555 1_555
C1_5 C2_5 1_555 1_555
C2_5 C3_5 1_555 1_555
C3_5 H1_5 1_555 1_555
C4_5 C3_5 1_555 1_555
C5_5 C4_5 1_555 1_555
H2_5 C5_5 1_555 1_555
C6_5 C5_5 1_555 1_555
C7_5 C2_5 1_555 1_555
H3_5 C7_5 1_555 1_555
C8_5 C4_5 1_555 1_555
C9_5 C11_5 1_555 1_555
C10_5 C13_5 1_555 1_555
C11_5 H4_5 1_555 1_555
H5_5 C11_5 1_555 1_555
C12_5 C11_5 1_555 1_555
H6_5 C12_5 1_555 1_555
H7_5 C12_5 1_555 1_555
C13_5 H9_5 1_555 1_555
H10_4 C13_5 1_555 1_555
C14_5 C13_5 1_555 1_555
H11_5 C14_5 1_555 1_555
H12_4 C14_5 1_555 1_555
H13_3 C14_5 1_555 1_555
N1_3 C9_5 1_555 1_555
N2_5 C10_5 1_555 1_555
N3_5 C6_5 1_555 1_555
O1_5 C1_5 1_555 1_555
O2_3 C1_5 1_555 1_555
O6_3 C8_5 1_555 1_555
O7_2 C8_5 1_555 1_555
Cu4_2 O1_5 1_555 1_555
N4_3 Cu4_2 1_555 1_555
O5_3 Cu4_2 1_555 1_555
Cu5 N1_3 1_555 1_555
Cu5_2 O2_3 1_555 1_555
C6_5 C7_5 1_555 1_555
C9_5 N3_5 1_555 1_555
C10_5 N3_5 1_555 1_555
N1_3 N2_5 1_555 1_555
N4_4 Cu4 1_555 1_555
O5_4 Cu4 1_555 1_555
C9_6 C11_6 1_555 1_555
C10_6 C13_6 1_555 1_555
H5_6 C11_6 1_555 1_555
C13_6 H9_6 1_555 1_555
C14_6 C13_6 1_555 1_555
H11_6 C14_6 1_555 1_555
N1_4 C9_6 1_555 1_555
N2_6 C10_6 1_555 1_555
Cu5_2 N1_4 1_555 1_555
C9_6 N3_6 1_555 1_555
C10_6 N3_6 1_555 1_555
N1_4 N2_6 1_555 1_555
C1_6 C2_6 1_555 1_555
C2_6 C3_6 1_555 1_555
C3_6 H1_6 1_555 1_555
C4_6 C3_6 1_555 1_555
C5_6 C4_6 1_555 1_555
C6_6 C5_6 1_555 1_555
C7_6 C2_6 1_555 1_555
H3_6 C7_6 1_555 1_555
H6_6 C12_6 1_555 1_555
H7_6 C12_6 1_555 1_555
H8_6 C12_6 1_555 1_555
O1_6 C1_6 1_555 1_555
O2_4 C1_6 1_555 1_555
Cu5 O2_4 1_555 1_555
C6_6 C7_6 1_555 1_555
O6_4 C8_6 1_555 1_555
O7 C8_6 1_555 1_555
C1_7 C2_7 1_555 1_555
C2_7 C3_7 1_555 1_555
C3_7 H1_7 1_555 1_555
C4_7 C3_7 1_555 1_555
C5_7 C4_7 1_555 1_555
C6_7 C5_7 1_555 1_555
C7_7 C2_7 1_555 1_555
H3_7 C7_7 1_555 1_555
C9_7 C11_7 1_555 1_555
C10_7 C13_7 1_555 1_555
C11_7 H4_7 1_555 1_555
H5_7 C11_7 1_555 1_555
C12_7 C11_7 1_555 1_555
H6_7 C12_7 1_555 1_555
H7_7 C12_7 1_555 1_555
H8_7 C12_7 1_555 1_555
C13_7 H9_7 1_555 1_555
C14_7 C13_7 1_555 1_555
H11_7 C14_7 1_555 1_555
N4_3 C9_7 1_555 1_555
N2_7 C10_7 1_555 1_555
N3_7 C6_7 1_555 1_555
O1_7 C1_7 1_555 1_555
O5_4 C1_7 1_555 1_555
C6_7 C7_7 1_555 1_555
C9_7 N3_7 1_555 1_555
C10_7 N3_7 1_555 1_555
N4_3 N2_7 1_555 1_555
O6 C8_7 1_555 1_555
O7_4 C8_7 1_555 1_555
C1_8 C2_8 1_555 1_555
C2_8 C3_8 1_555 1_555
C3_8 H1_8 1_555 1_555
C4_8 C3_8 1_555 1_555
C5_8 C4_8 1_555 1_555
H2_8 C5_8 1_555 1_555
C6_8 C5_8 1_555 1_555
C7_8 C2_8 1_555 1_555
H3_8 C7_8 1_555 1_555
C8_8 C4_8 1_555 1_555
H6_8 C12_8 1_555 1_555
H7_8 C12_8 1_555 1_555
O1_8 C1_8 1_555 1_555
O5_3 C1_8 1_555 1_555
O6_2 C8_8 1_555 1_555
O7_3 C8_8 1_555 1_555
Cu5_2 O1_8 1_555 1_555
C6_8 C7_8 1_555 1_555
C9_8 C11_8 1_555 1_555
C10_8 C13_8 1_555 1_555
H5_8 C11_8 1_555 1_555
C13_8 H9_8 1_555 1_555
H10_6 C13_8 1_555 1_555
C14_8 C13_8 1_555 1_555
H11_8 C14_8 1_555 1_555
H12_6 C14_8 1_555 1_555
H13_4 C14_8 1_555 1_555
N4_4 C9_8 1_555 1_555
N2_8 C10_8 1_555 1_555
C9_8 N3_8 1_555 1_555
C10_8 N3_8 1_555 1_555
N4_4 N2_8 1_555 1_555

#END
