
###############################################################################
#
# This file contains modified crystal structure data generated from the
# MOF subset of the Cambridge Structural Database (CSD) v543 
# hosted by the Cambridge Crystallographic Data Centre (CCDC).
#
# This work is licensed under the Creative Commons
# Attribution-NonCommercial-ShareAlike 4.0 International License.
# To view a copy of this license, visit
# http://creativecommons.org/licenses/by-nc-sa/4.0/
# or send a letter to
# Creative Commons, PO Box 1866, Mountain View, CA 94042, USA.
#
# CIF created using the CSD Python API on 29 September 2022
# The structure has been converted into the P1 space group
# The structure has a 3D framework
# The original CSD entry UKALID is in the orthorhombic crystal system
# The framework has been calculated to contain at least 10.0% void space
# The void calculation uses a probe of radius 1.32A, grid spacing 0.4
#
###############################################################################

data_UKALID
_chemical_formula_moiety         '(C104 H88 Cu4 N24 O32)n'
_symmetry_cell_setting           triclinic
_symmetry_space_group_name_H-M   'P 1'
_symmetry_Int_Tables_number      1
_space_group_name_Hall           'P 1'
loop_
_symmetry_equiv_pos_site_id
_symmetry_equiv_pos_as_xyz
1 x,y,z
_cell_length_a                   13.4344(9)
_cell_length_b                   13.3485(10)
_cell_length_c                   20.1810(18)
_cell_angle_alpha                90
_cell_angle_beta                 90
_cell_angle_gamma                90
_cell_volume                     3619.04
loop_
_atom_site_label
_atom_site_type_symbol
_atom_site_fract_x
_atom_site_fract_y
_atom_site_fract_z
C1 C 0.38733(13) 0.70964(13) 0.69469(9)
C2 C 0.31261(14) 0.64876(14) 0.65673(8)
C3 C 0.24628(15) 0.58626(15) 0.68989(8)
H1 H 0.2506 0.5793 0.7362
C4 C 0.17386(15) 0.53416(14) 0.65512(9)
C5 C 0.16726(14) 0.54414(15) 0.58665(9)
H2 H 0.1183 0.5091 0.5628
C6 C 0.23361(14) 0.60630(14) 0.55396(8)
C7 C 0.30633(13) 0.65829(16) 0.58801(8)
H3 H 0.3512 0.6997 0.5651
C8 C 0.10399(14) 0.46500(13) 0.69052(9)
C9 C 0.14641(14) 0.65509(16) 0.44928(8)
C10 C 0.29344(15) 0.58856(16) 0.43594(10)
C11 C 0.05552(19) 0.6955(2) 0.48027(11)
H4 H 0.0162 0.7302 0.4472
H5 H 0.0737 0.7418 0.5153
H6 H 0.0168 0.6409 0.4988
C12 C 0.39048(19) 0.5407(2) 0.45096(12)
H7 H 0.3826 0.4967 0.4894
H8 H 0.4387 0.5928 0.4628
C13 C 0.4313(3) 0.4802(3) 0.39361(16)
H9 H 0.3877 0.4239 0.3849
H10 H 0.4973 0.4558 0.4047
H11 H 0.4352 0.5223 0.3545
N1 N 0.16463(11) 0.65115(13) 0.38561(7)
N2 N 0.25785(13) 0.60823(14) 0.37699(8)
N3 N 0.22547(12) 0.61687(13) 0.48308(7)
O1 O 0.46363(10) 0.73745(11) 0.66357(6)
O2 O 0.36631(10) 0.73075(11) 0.75381(6)
O3 O 0.02667(11) 0.43903(11) 0.66022(7)
O4 O 0.12931(10) 0.43765(11) 0.74771(6)
Cu1 Cu 0.562367(14) 0.835286(15) 0.696442(9)
N4 N 0.66463(11) 0.84885(13) 0.61439(7)
O5 O 0.63369(10) 0.73075(11) 0.74619(6)
O6 O 0.47333(11) 0.93903(11) 0.66022(7)
O7 O 0.62931(10) 0.93765(11) 0.75229(6)
Cu2 Cu 0.062367(14) 0.664714(15) 0.303558(9)
Cu3 Cu 0.437633(14) 0.835286(15) 0.803558(9)
Cu4 Cu 0.062367(14) 0.335286(15) 0.803558(9)
Cu5 Cu 0.937633(14) 0.335286(15) 0.696442(9)
C8_2 C 0.39601(14) 0.03500(13) 0.19052(9)
O3_2 O 0.47333(11) 0.06097(11) 0.16022(7)
O4_2 O 0.37069(10) 0.06235(11) 0.24771(6)
Cu4_2 Cu 0.437633(14) 0.164714(15) 0.303558(9)
Cu5_2 Cu 0.562367(14) 0.164714(15) 0.196442(9)
C1_2 C 0.11267(13) 0.79036(13) 0.19469(9)
C2_2 C 0.18739(14) 0.85124(14) 0.15673(8)
C3_2 C 0.25372(15) 0.91374(15) 0.18989(8)
H1_2 H 0.2494 0.9207 0.2362
C4_2 C 0.32614(15) 0.96584(14) 0.15512(9)
C5_2 C 0.33274(14) 0.95586(15) 0.08665(9)
H2_2 H 0.3817 0.9909 0.0628
C6_2 C 0.26639(14) 0.89370(14) 0.05396(8)
C7_2 C 0.19367(13) 0.84171(16) 0.08801(8)
H3_2 H 0.1488 0.8003 0.0651
H5_2 H 0.4263 0.7582 0.0153
O1_2 O 0.03637(10) 0.76255(11) 0.16357(6)
O2_2 O 0.13369(10) 0.76925(11) 0.25381(6)
O6_2 O 0.02667(11) 0.56097(11) 0.16022(7)
C9_2 C 0.35359(14) 0.84491(16) 0.94928(8)
C10_2 C 0.20656(15) 0.91144(16) 0.93594(10)
C11_2 C 0.44448(19) 0.8045(2) 0.98027(11)
H4_2 H 0.4838 0.7698 0.9472
H6_2 H 0.4832 0.8591 0.9988
C12_2 C 0.10952(19) 0.9593(2) 0.95096(12)
H8_2 H 0.0613 0.9072 0.9628
H11_2 H 0.0648 0.9777 0.8545
N1_2 N 0.33537(11) 0.84885(13) 0.88561(7)
N2_2 N 0.24215(13) 0.89177(14) 0.87699(8)
N3_2 N 0.27453(12) 0.88313(13) 0.98308(7)
Cu1_2 Cu 0.937633(14) 0.664714(15) 0.196442(9)
N4_2 N 0.83537(11) 0.65115(13) 0.11439(7)
O5_2 O 0.86631(10) 0.76925(11) 0.24619(6)
O7_2 O 0.87069(10) 0.56235(11) 0.25229(6)
O7_3 O 0.12931(10) 0.56235(11) 0.24771(6)
C8_3 C 0.60399(14) 0.03500(13) 0.30948(9)
H7_2 H 0.8826 0.0033 0.5106
C13_2 C 0.9313(3) 0.0198(3) 0.60639(16)
H9_2 H 0.8877 0.0761 0.6151
H10_2 H 0.9973 0.0442 0.5953
O3_3 O 0.52667(11) 0.06097(11) 0.33978(7)
O4_3 O 0.62931(10) 0.06235(11) 0.25229(6)
C1_3 C 0.88733(13) 0.79036(13) 0.30531(9)
C2_3 C 0.81261(14) 0.85124(14) 0.34327(8)
C3_3 C 0.74628(15) 0.91374(15) 0.31011(8)
H1_3 H 0.7506 0.9207 0.2638
C4_3 C 0.67386(15) 0.96584(14) 0.34488(9)
C5_3 C 0.66726(14) 0.95586(15) 0.41335(9)
H2_3 H 0.6183 0.9909 0.4372
C6_3 C 0.73361(14) 0.89370(14) 0.44604(8)
C7_3 C 0.80633(13) 0.84171(16) 0.41199(8)
H3_3 H 0.8512 0.8003 0.4349
C9_3 C 0.64641(14) 0.84491(16) 0.55072(8)
C10_3 C 0.79344(15) 0.91144(16) 0.56406(10)
C11_3 C 0.55552(19) 0.8045(2) 0.51973(11)
H4_3 H 0.5162 0.7698 0.5528
H5_3 H 0.5737 0.7582 0.4847
H6_3 H 0.5168 0.8591 0.5012
C12_3 C 0.89048(19) 0.9593(2) 0.54904(12)
H8_3 H 0.9387 0.9072 0.5372
H11_3 H 0.9352 0.9777 0.6455
N2_3 N 0.75785(13) 0.89177(14) 0.62301(8)
N3_3 N 0.72547(12) 0.88313(13) 0.51692(7)
O1_3 O 0.96363(10) 0.76255(11) 0.33643(6)
O6_3 O 0.97333(11) 0.56097(11) 0.33978(7)
C9_4 C 0.85359(14) 0.65509(16) 0.05072(8)
C10_4 C 0.70656(15) 0.58856(16) 0.06406(10)
C11_4 C 0.94448(19) 0.6955(2) 0.01973(11)
H4_4 H 0.9838 0.7302 0.0528
H6_4 H 0.9832 0.6409 0.0012
C12_4 C 0.60952(19) 0.5407(2) 0.04904(12)
H7_3 H 0.6174 0.4967 0.0106
H8_4 H 0.5613 0.5928 0.0372
C13_3 C 0.5687(3) 0.4802(3) 0.10639(16)
H9_3 H 0.6123 0.4239 0.1151
H10_3 H 0.5027 0.4558 0.0953
H11_4 H 0.5648 0.5223 0.1455
N2_4 N 0.74215(13) 0.60823(14) 0.12301(8)
N3_4 N 0.77453(12) 0.61687(13) 0.01692(7)
C1_4 C 0.61267(13) 0.70964(13) 0.80531(9)
C2_4 C 0.68739(14) 0.64876(14) 0.84327(8)
C3_4 C 0.75372(15) 0.58626(15) 0.81011(8)
H1_4 H 0.7494 0.5793 0.7638
C4_4 C 0.82614(15) 0.53416(14) 0.84488(9)
C5_4 C 0.83274(14) 0.54414(15) 0.91335(9)
H2_4 H 0.8817 0.5091 0.9372
C6_4 C 0.76639(14) 0.60630(14) 0.94604(8)
C7_4 C 0.69367(13) 0.65829(16) 0.91199(8)
H3_4 H 0.6488 0.6997 0.9349
C8_4 C 0.89601(14) 0.46500(13) 0.80948(9)
H5_4 H 0.9263 0.7418 0.9847
O1_4 O 0.53637(10) 0.73745(11) 0.83643(6)
O3_4 O 0.97333(11) 0.43903(11) 0.83978(7)
O4_4 O 0.87069(10) 0.43765(11) 0.75229(6)
O6_4 O 0.52667(11) 0.93903(11) 0.83978(7)
O7_4 O 0.37069(10) 0.93765(11) 0.74771(6)
C1_5 C 0.61267(13) 0.29036(13) 0.30531(9)
C2_5 C 0.68739(14) 0.35124(14) 0.34327(8)
C3_5 C 0.75372(15) 0.41374(15) 0.31011(8)
H1_5 H 0.7494 0.4207 0.2638
C4_5 C 0.82614(15) 0.46584(14) 0.34488(9)
C5_5 C 0.83274(14) 0.45586(15) 0.41335(9)
H2_5 H 0.8817 0.4909 0.4372
C6_5 C 0.76639(14) 0.39370(14) 0.44604(8)
C7_5 C 0.69367(13) 0.34171(16) 0.41199(8)
H3_5 H 0.6488 0.3003 0.4349
C8_5 C 0.89601(14) 0.53500(13) 0.30948(9)
C9_5 C 0.85359(14) 0.34491(16) 0.55072(8)
C10_5 C 0.70656(15) 0.41144(16) 0.56406(10)
C11_5 C 0.94448(19) 0.3045(2) 0.51973(11)
H4_5 H 0.9838 0.2698 0.5528
H5_5 H 0.9263 0.2582 0.4847
H6_5 H 0.9832 0.3591 0.5012
C12_5 C 0.60952(19) 0.4593(2) 0.54904(12)
H7_4 H 0.6174 0.5033 0.5106
H8_5 H 0.5613 0.4072 0.5372
C13_4 C 0.5687(3) 0.5198(3) 0.60639(16)
H9_4 H 0.6123 0.5761 0.6151
H10_4 H 0.5027 0.5442 0.5953
H11_5 H 0.5648 0.4777 0.6455
N1_3 N 0.83537(11) 0.34885(13) 0.61439(7)
N2_5 N 0.74215(13) 0.39177(14) 0.62301(8)
N3_5 N 0.77453(12) 0.38313(13) 0.51692(7)
O1_5 O 0.53637(10) 0.26255(11) 0.33643(6)
O2_3 O 0.63369(10) 0.26925(11) 0.24619(6)
N4_3 N 0.33537(11) 0.15115(13) 0.38561(7)
O5_3 O 0.36631(10) 0.26925(11) 0.25381(6)
N4_4 N 0.16463(11) 0.34885(13) 0.88561(7)
O5_4 O 0.13369(10) 0.23075(11) 0.75381(6)
C9_6 C 0.64641(14) 0.15509(16) 0.05072(8)
C10_6 C 0.79344(15) 0.08856(16) 0.06406(10)
C11_6 C 0.55552(19) 0.1955(2) 0.01973(11)
H4_6 H 0.5162 0.2302 0.0528
H6_6 H 0.5168 0.1409 0.0012
C12_6 C 0.89048(19) 0.0407(2) 0.04904(12)
H8_6 H 0.9387 0.0928 0.0372
H11_6 H 0.9352 0.0223 0.1455
N1_4 N 0.66463(11) 0.15115(13) 0.11439(7)
N2_6 N 0.75785(13) 0.10823(14) 0.12301(8)
N3_6 N 0.72547(12) 0.11687(13) 0.01692(7)
C1_6 C 0.88733(13) 0.20964(13) 0.80531(9)
C2_6 C 0.81261(14) 0.14876(14) 0.84327(8)
C3_6 C 0.74628(15) 0.08626(15) 0.81011(8)
H1_6 H 0.7506 0.0793 0.7638
C4_6 C 0.67386(15) 0.03416(14) 0.84488(9)
C5_6 C 0.66726(14) 0.04414(15) 0.91335(9)
H2_6 H 0.6183 0.0091 0.9372
C6_6 C 0.73361(14) 0.10630(14) 0.94604(8)
C7_6 C 0.80633(13) 0.15829(16) 0.91199(8)
H3_6 H 0.8512 0.1997 0.9349
H5_6 H 0.5737 0.2418 0.9847
O1_6 O 0.96363(10) 0.23745(11) 0.83643(6)
O2_4 O 0.86631(10) 0.23075(11) 0.74619(6)
C8_6 C 0.60399(14) 0.96500(13) 0.80948(9)
C1_7 C 0.11267(13) 0.20964(13) 0.69469(9)
C2_7 C 0.18739(14) 0.14876(14) 0.65673(8)
C3_7 C 0.25372(15) 0.08626(15) 0.68989(8)
H1_7 H 0.2494 0.0793 0.7362
C4_7 C 0.32614(15) 0.03416(14) 0.65512(9)
C5_7 C 0.33274(14) 0.04414(15) 0.58665(9)
H2_7 H 0.3817 0.0091 0.5628
C6_7 C 0.26639(14) 0.10630(14) 0.55396(8)
C7_7 C 0.19367(13) 0.15829(16) 0.58801(8)
H3_7 H 0.1488 0.1997 0.5651
C9_7 C 0.35359(14) 0.15509(16) 0.44928(8)
C10_7 C 0.20656(15) 0.08856(16) 0.43594(10)
C11_7 C 0.44448(19) 0.1955(2) 0.48027(11)
H4_7 H 0.4838 0.2302 0.4472
H5_7 H 0.4263 0.2418 0.5153
H6_7 H 0.4832 0.1409 0.4988
C12_7 C 0.10952(19) 0.0407(2) 0.45096(12)
H8_7 H 0.0613 0.0928 0.4628
H11_7 H 0.0648 0.0223 0.3545
N2_7 N 0.24215(13) 0.10823(14) 0.37699(8)
N3_7 N 0.27453(12) 0.11687(13) 0.48308(7)
O1_7 O 0.03637(10) 0.23745(11) 0.66357(6)
C8_7 C 0.39601(14) 0.96500(13) 0.69052(9)
H7_5 H 0.1174 0.9967 0.4894
C13_5 C 0.0687(3) 0.9802(3) 0.39361(16)
H9_5 H 0.1123 0.9239 0.3849
H10_5 H 0.0027 0.9558 0.4047
C1_8 C 0.38733(13) 0.29036(13) 0.19469(9)
C2_8 C 0.31261(14) 0.35124(14) 0.15673(8)
C3_8 C 0.24628(15) 0.41374(15) 0.18989(8)
H1_8 H 0.2506 0.4207 0.2362
C4_8 C 0.17386(15) 0.46584(14) 0.15512(9)
C5_8 C 0.16726(14) 0.45586(15) 0.08665(9)
H2_8 H 0.1183 0.4909 0.0628
C6_8 C 0.23361(14) 0.39370(14) 0.05396(8)
C7_8 C 0.30633(13) 0.34171(16) 0.08801(8)
H3_8 H 0.3512 0.3003 0.0651
C8_8 C 0.10399(14) 0.53500(13) 0.19052(9)
H5_8 H 0.0737 0.2582 0.0153
O1_8 O 0.46363(10) 0.26255(11) 0.16357(6)
C9_8 C 0.14641(14) 0.34491(16) 0.94928(8)
C10_8 C 0.29344(15) 0.41144(16) 0.93594(10)
C11_8 C 0.05552(19) 0.3045(2) 0.98027(11)
H4_8 H 0.0162 0.2698 0.9472
H6_8 H 0.0168 0.3591 0.9988
C12_8 C 0.39048(19) 0.4593(2) 0.95096(12)
H7_6 H 0.3826 0.5033 0.9894
H8_8 H 0.4387 0.4072 0.9628
C13_6 C 0.4313(3) 0.5198(3) 0.89361(16)
H9_6 H 0.3877 0.5761 0.8849
H10_6 H 0.4973 0.5442 0.9047
H11_8 H 0.4352 0.4777 0.8545
N2_8 N 0.25785(13) 0.39177(14) 0.87699(8)
N3_8 N 0.22547(12) 0.38313(13) 0.98308(7)
H7_7 H 0.1174 0.0033 0.9894
C13_7 C 0.0687(3) 0.0198(3) 0.89361(16)
H9_7 H 0.1123 0.0761 0.8849
H10_7 H 0.0027 0.0442 0.9047
H7_8 H 0.8826 0.9967 0.0106
C13_8 C 0.9313(3) 0.9802(3) 0.10639(16)
H9_8 H 0.8877 0.9239 0.1151
H10_8 H 0.9973 0.9558 0.0953
loop_
_geom_bond_atom_site_label_1
_geom_bond_atom_site_label_2
_geom_bond_site_symmetry_1
_geom_bond_site_symmetry_2
C1 C2 1_555 1_555
C2 C3 1_555 1_555
C3 H1 1_555 1_555
C4 C3 1_555 1_555
C5 C4 1_555 1_555
H2 C5 1_555 1_555
C6 C5 1_555 1_555
C7 C2 1_555 1_555
H3 C7 1_555 1_555
C8 C4 1_555 1_555
C9 C11 1_555 1_555
C10 C12 1_555 1_555
C11 H4 1_555 1_555
H5 C11 1_555 1_555
H6 C11 1_555 1_555
C12 H7 1_555 1_555
H8 C12 1_555 1_555
C13 C12 1_555 1_555
H9 C13 1_555 1_555
H10 C13 1_555 1_555
H11 C13 1_555 1_555
N1 C9 1_555 1_555
N2 C10 1_555 1_555
N3 C6 1_555 1_555
O1 C1 1_555 1_555
O2 C1 1_555 1_555
O3 C8 1_555 1_555
O4 C8 1_555 1_555
Cu1 O1 1_555 1_555
N4 Cu1 1_555 1_555
O5 Cu1 1_555 1_555
O6 Cu1 1_555 1_555
O7 Cu1 1_555 1_555
Cu2 N1 1_555 1_555
Cu3 O2 1_555 1_555
Cu4 O4 1_555 1_555
C6 C7 1_555 1_555
C9 N3 1_555 1_555
C10 N3 1_555 1_555
N1 N2 1_555 1_555
O3_2 C8_2 1_555 1_555
O4_2 C8_2 1_555 1_555
Cu4_2 O4_2 1_555 1_555
Cu5_2 O3_2 1_555 1_555
C1_2 C2_2 1_555 1_555
C2_2 C3_2 1_555 1_555
C3_2 H1_2 1_555 1_555
C4_2 C3_2 1_555 1_555
C5_2 C4_2 1_555 1_555
H2_2 C5_2 1_555 1_555
C6_2 C5_2 1_555 1_555
C7_2 C2_2 1_555 1_555
H3_2 C7_2 1_555 1_555
O1_2 C1_2 1_555 1_555
O2_2 C1_2 1_555 1_555
Cu2 O2_2 1_555 1_555
C6_2 C7_2 1_555 1_555
C9_2 C11_2 1_555 1_555
C10_2 C12_2 1_555 1_555
C11_2 H4_2 1_555 1_555
H6_2 C11_2 1_555 1_555
H8_2 C12_2 1_555 1_555
N1_2 C9_2 1_555 1_555
N2_2 C10_2 1_555 1_555
Cu3 N1_2 1_555 1_555
C9_2 N3_2 1_555 1_555
C10_2 N3_2 1_555 1_555
N1_2 N2_2 1_555 1_555
N4_2 Cu1_2 1_555 1_555
O5_2 Cu1_2 1_555 1_555
O7_2 Cu1_2 1_555 1_555
O7_3 Cu2 1_555 1_555
H9_2 C13_2 1_555 1_555
H10_2 C13_2 1_555 1_555
O3_3 C8_3 1_555 1_555
O4_3 C8_3 1_555 1_555
Cu5_2 O4_3 1_555 1_555
Cu4_2 O3_3 1_555 1_555
C1_3 C2_3 1_555 1_555
C2_3 C3_3 1_555 1_555
C3_3 H1_3 1_555 1_555
C4_3 C3_3 1_555 1_555
C5_3 C4_3 1_555 1_555
H2_3 C5_3 1_555 1_555
C6_3 C5_3 1_555 1_555
C7_3 C2_3 1_555 1_555
H3_3 C7_3 1_555 1_555
C9_3 C11_3 1_555 1_555
C10_3 C12_3 1_555 1_555
C11_3 H4_3 1_555 1_555
H5_3 C11_3 1_555 1_555
H6_3 C11_3 1_555 1_555
H8_3 C12_3 1_555 1_555
N4 C9_3 1_555 1_555
N2_3 C10_3 1_555 1_555
N3_3 C6_3 1_555 1_555
O1_3 C1_3 1_555 1_555
O5_2 C1_3 1_555 1_555
C6_3 C7_3 1_555 1_555
C9_3 N3_3 1_555 1_555
C10_3 N3_3 1_555 1_555
N4 N2_3 1_555 1_555
C9_4 C11_4 1_555 1_555
C10_4 C12_4 1_555 1_555
C11_4 H4_4 1_555 1_555
H6_4 C11_4 1_555 1_555
C12_4 H7_3 1_555 1_555
H8_4 C12_4 1_555 1_555
C13_3 C12_4 1_555 1_555
H9_3 C13_3 1_555 1_555
H10_3 C13_3 1_555 1_555
H11_4 C13_3 1_555 1_555
N4_2 C9_4 1_555 1_555
N2_4 C10_4 1_555 1_555
C9_4 N3_4 1_555 1_555
C10_4 N3_4 1_555 1_555
N4_2 N2_4 1_555 1_555
C1_4 C2_4 1_555 1_555
C2_4 C3_4 1_555 1_555
C3_4 H1_4 1_555 1_555
C4_4 C3_4 1_555 1_555
C5_4 C4_4 1_555 1_555
H2_4 C5_4 1_555 1_555
C6_4 C5_4 1_555 1_555
C7_4 C2_4 1_555 1_555
H3_4 C7_4 1_555 1_555
C8_4 C4_4 1_555 1_555
O1_4 C1_4 1_555 1_555
O5 C1_4 1_555 1_555
O3_4 C8_4 1_555 1_555
O4_4 C8_4 1_555 1_555
Cu3 O1_4 1_555 1_555
O6_4 Cu3 1_555 1_555
O7_4 Cu3 1_555 1_555
Cu5 O4_4 1_555 1_555
C6_4 C7_4 1_555 1_555
C1_5 C2_5 1_555 1_555
C2_5 C3_5 1_555 1_555
C3_5 H1_5 1_555 1_555
C4_5 C3_5 1_555 1_555
C5_5 C4_5 1_555 1_555
H2_5 C5_5 1_555 1_555
C6_5 C5_5 1_555 1_555
C7_5 C2_5 1_555 1_555
H3_5 C7_5 1_555 1_555
C8_5 C4_5 1_555 1_555
C9_5 C11_5 1_555 1_555
C10_5 C12_5 1_555 1_555
C11_5 H4_5 1_555 1_555
H5_5 C11_5 1_555 1_555
H6_5 C11_5 1_555 1_555
C12_5 H7_4 1_555 1_555
H8_5 C12_5 1_555 1_555
C13_4 C12_5 1_555 1_555
H9_4 C13_4 1_555 1_555
H10_4 C13_4 1_555 1_555
H11_5 C13_4 1_555 1_555
N1_3 C9_5 1_555 1_555
N2_5 C10_5 1_555 1_555
N3_5 C6_5 1_555 1_555
O1_5 C1_5 1_555 1_555
O2_3 C1_5 1_555 1_555
O6_3 C8_5 1_555 1_555
O7_2 C8_5 1_555 1_555
Cu4_2 O1_5 1_555 1_555
N4_3 Cu4_2 1_555 1_555
O5_3 Cu4_2 1_555 1_555
Cu5 N1_3 1_555 1_555
Cu5_2 O2_3 1_555 1_555
C6_5 C7_5 1_555 1_555
C9_5 N3_5 1_555 1_555
C10_5 N3_5 1_555 1_555
N1_3 N2_5 1_555 1_555
N4_4 Cu4 1_555 1_555
O5_4 Cu4 1_555 1_555
C9_6 C11_6 1_555 1_555
C10_6 C12_6 1_555 1_555
C11_6 H4_6 1_555 1_555
H6_6 C11_6 1_555 1_555
H8_6 C12_6 1_555 1_555
N1_4 C9_6 1_555 1_555
N2_6 C10_6 1_555 1_555
Cu5_2 N1_4 1_555 1_555
C9_6 N3_6 1_555 1_555
C10_6 N3_6 1_555 1_555
N1_4 N2_6 1_555 1_555
C1_6 C2_6 1_555 1_555
C2_6 C3_6 1_555 1_555
C3_6 H1_6 1_555 1_555
C4_6 C3_6 1_555 1_555
C5_6 C4_6 1_555 1_555
H2_6 C5_6 1_555 1_555
C6_6 C5_6 1_555 1_555
C7_6 C2_6 1_555 1_555
H3_6 C7_6 1_555 1_555
O1_6 C1_6 1_555 1_555
O2_4 C1_6 1_555 1_555
Cu5 O2_4 1_555 1_555
C6_6 C7_6 1_555 1_555
O6_4 C8_6 1_555 1_555
O7 C8_6 1_555 1_555
C1_7 C2_7 1_555 1_555
C2_7 C3_7 1_555 1_555
C3_7 H1_7 1_555 1_555
C4_7 C3_7 1_555 1_555
C5_7 C4_7 1_555 1_555
H2_7 C5_7 1_555 1_555
C6_7 C5_7 1_555 1_555
C7_7 C2_7 1_555 1_555
H3_7 C7_7 1_555 1_555
C9_7 C11_7 1_555 1_555
C10_7 C12_7 1_555 1_555
C11_7 H4_7 1_555 1_555
H5_7 C11_7 1_555 1_555
H6_7 C11_7 1_555 1_555
H8_7 C12_7 1_555 1_555
N4_3 C9_7 1_555 1_555
N2_7 C10_7 1_555 1_555
N3_7 C6_7 1_555 1_555
O1_7 C1_7 1_555 1_555
O5_4 C1_7 1_555 1_555
C6_7 C7_7 1_555 1_555
C9_7 N3_7 1_555 1_555
C10_7 N3_7 1_555 1_555
N4_3 N2_7 1_555 1_555
H9_5 C13_5 1_555 1_555
H10_5 C13_5 1_555 1_555
O6 C8_7 1_555 1_555
O7_4 C8_7 1_555 1_555
C1_8 C2_8 1_555 1_555
C2_8 C3_8 1_555 1_555
C3_8 H1_8 1_555 1_555
C4_8 C3_8 1_555 1_555
C5_8 C4_8 1_555 1_555
H2_8 C5_8 1_555 1_555
C6_8 C5_8 1_555 1_555
C7_8 C2_8 1_555 1_555
H3_8 C7_8 1_555 1_555
C8_8 C4_8 1_555 1_555
O1_8 C1_8 1_555 1_555
O5_3 C1_8 1_555 1_555
O6_2 C8_8 1_555 1_555
O7_3 C8_8 1_555 1_555
Cu5_2 O1_8 1_555 1_555
C6_8 C7_8 1_555 1_555
C9_8 C11_8 1_555 1_555
C10_8 C12_8 1_555 1_555
C11_8 H4_8 1_555 1_555
H6_8 C11_8 1_555 1_555
C12_8 H7_6 1_555 1_555
H8_8 C12_8 1_555 1_555
C13_6 C12_8 1_555 1_555
H9_6 C13_6 1_555 1_555
H10_6 C13_6 1_555 1_555
H11_8 C13_6 1_555 1_555
N4_4 C9_8 1_555 1_555
N2_8 C10_8 1_555 1_555
C9_8 N3_8 1_555 1_555
C10_8 N3_8 1_555 1_555
N4_4 N2_8 1_555 1_555
H9_7 C13_7 1_555 1_555
H10_7 C13_7 1_555 1_555
H9_8 C13_8 1_555 1_555
H10_8 C13_8 1_555 1_555

#END
