
###############################################################################
#
# This file contains modified crystal structure data generated from the
# MOF subset of the Cambridge Structural Database (CSD) v543 
# hosted by the Cambridge Crystallographic Data Centre (CCDC).
#
# This work is licensed under the Creative Commons
# Attribution-NonCommercial-ShareAlike 4.0 International License.
# To view a copy of this license, visit
# http://creativecommons.org/licenses/by-nc-sa/4.0/
# or send a letter to
# Creative Commons, PO Box 1866, Mountain View, CA 94042, USA.
#
# CIF created using the CSD Python API on 29 September 2022
# The structure has been converted into the P1 space group
# The structure has a 3D framework
# The original CSD entry UKALOJ is in the orthorhombic crystal system
# The framework has been calculated to contain at least 10.0% void space
# The void calculation uses a probe of radius 1.32A, grid spacing 0.4
#
###############################################################################

data_UKALOJ
_chemical_formula_moiety         '(C104 H88 N24 O32 Zn4)n'
_symmetry_cell_setting           triclinic
_symmetry_space_group_name_H-M   'P 1'
_symmetry_Int_Tables_number      1
_space_group_name_Hall           'P 1'
loop_
_symmetry_equiv_pos_site_id
_symmetry_equiv_pos_as_xyz
1 x,y,z
_cell_length_a                   13.5632(10)
_cell_length_b                   13.3371(10)
_cell_length_c                   20.337(2)
_cell_angle_alpha                90
_cell_angle_beta                 90
_cell_angle_gamma                90
_cell_volume                     3678.84
loop_
_atom_site_label
_atom_site_type_symbol
_atom_site_fract_x
_atom_site_fract_y
_atom_site_fract_z
C1 C 0.3849(2) 0.70969(19) 0.69422(16)
C2 C 0.3109(2) 0.65000(19) 0.65496(15)
C3 C 0.2443(2) 0.5879(2) 0.68749(17)
H1 H 0.2481 0.5805 0.7339
C4 C 0.1723(2) 0.5366(2) 0.65231(16)
C5 C 0.1666(2) 0.5468(2) 0.58461(16)
H2 H 0.1177 0.5116 0.5604
C6 C 0.2331(2) 0.6088(2) 0.55256(16)
C7 C 0.3059(2) 0.6601(2) 0.58701(15)
H3 H 0.3517 0.7015 0.5644
C8 C 0.1010(2) 0.46732(19) 0.68739(17)
C9 C 0.1476(2) 0.6572(2) 0.44844(15)
C10 C 0.2927(2) 0.5885(2) 0.43552(18)
C11 C 0.0577(3) 0.6994(3) 0.4791(2)
H4 H 0.0219 0.7398 0.4467
H5 H 0.0763 0.7416 0.5166
H6 H 0.0153 0.6446 0.4945
C12 C 0.3886(3) 0.5395(3) 0.4512(2)
H7 H 0.3805 0.4973 0.4909
H8 H 0.4380 0.5919 0.4614
C13 C 0.4262(4) 0.4756(4) 0.3957(3)
H9 H 0.4904 0.4473 0.4077
H10 H 0.4334 0.5168 0.3561
H11 H 0.3794 0.4211 0.3872
N1 N 0.16620(18) 0.65100(17) 0.38598(13)
N2 N 0.25872(18) 0.60682(19) 0.37701(14)
N3 N 0.22606(19) 0.61931(18) 0.48257(14)
O1 O 0.46027(16) 0.73933(16) 0.66374(12)
O2 O 0.36453(17) 0.72554(16) 0.75348(11)
O3 O 0.02356(17) 0.44508(16) 0.65681(12)
O4 O 0.12619(17) 0.43780(16) 0.74295(12)
Zn1 Zn 0.57123(2) 0.83561(2) 0.691085(16)
N4 N 0.66620(18) 0.84900(17) 0.61402(13)
O5 O 0.63547(17) 0.72554(16) 0.74652(11)
O6 O 0.47644(17) 0.94508(16) 0.65681(12)
O7 O 0.62619(17) 0.93780(16) 0.75705(12)
Zn2 Zn 0.07123(2) 0.66439(2) 0.308915(16)
Zn3 Zn 0.42877(2) 0.83561(2) 0.808915(16)
Zn4 Zn 0.07123(2) 0.33561(2) 0.808915(16)
Zn5 Zn 0.92877(2) 0.33561(2) 0.691085(16)
C8_2 C 0.3990(2) 0.03268(19) 0.18739(17)
O3_2 O 0.47644(17) 0.05492(16) 0.15681(12)
O4_2 O 0.37381(17) 0.06220(16) 0.24295(12)
Zn4_2 Zn 0.42877(2) 0.16439(2) 0.308915(16)
Zn5_2 Zn 0.57123(2) 0.16439(2) 0.191085(16)
C1_2 C 0.1151(2) 0.79031(19) 0.19422(16)
C2_2 C 0.1891(2) 0.85000(19) 0.15496(15)
C3_2 C 0.2557(2) 0.9121(2) 0.18749(17)
H1_2 H 0.2519 0.9195 0.2339
C4_2 C 0.3277(2) 0.9634(2) 0.15231(16)
C5_2 C 0.3334(2) 0.9532(2) 0.08461(16)
H2_2 H 0.3823 0.9884 0.0604
C6_2 C 0.2669(2) 0.8912(2) 0.05256(16)
C7_2 C 0.1941(2) 0.8399(2) 0.08701(15)
H3_2 H 0.1483 0.7985 0.0644
H5_2 H 0.4237 0.7584 0.0166
O1_2 O 0.03973(16) 0.76067(16) 0.16374(12)
O2_2 O 0.13547(17) 0.77446(16) 0.25348(11)
O6_2 O 0.02356(17) 0.55492(16) 0.15681(12)
C9_2 C 0.3524(2) 0.8428(2) 0.94844(15)
C10_2 C 0.2073(2) 0.9115(2) 0.93552(18)
C11_2 C 0.4423(3) 0.8006(3) 0.9791(2)
H4_2 H 0.4781 0.7602 0.9467
H6_2 H 0.4847 0.8554 0.9945
C12_2 C 0.1114(3) 0.9605(3) 0.9512(2)
H8_2 H 0.0620 0.9081 0.9614
H10_2 H 0.0666 0.9832 0.8561
N1_2 N 0.33380(18) 0.84900(17) 0.88598(13)
N2_2 N 0.24128(18) 0.89318(19) 0.87701(14)
N3_2 N 0.27394(19) 0.88069(18) 0.98257(14)
Zn1_2 Zn 0.92877(2) 0.66439(2) 0.191085(16)
N4_2 N 0.83380(18) 0.65100(17) 0.11402(13)
O5_2 O 0.86453(17) 0.77446(16) 0.24652(11)
O7_2 O 0.87381(17) 0.56220(16) 0.25705(12)
O7_3 O 0.12619(17) 0.56220(16) 0.24295(12)
C8_3 C 0.6010(2) 0.03268(19) 0.31261(17)
H7_2 H 0.8805 0.0027 0.5091
C13_2 C 0.9262(4) 0.0244(4) 0.6043(3)
H9_2 H 0.9904 0.0527 0.5923
H11_2 H 0.8794 0.0789 0.6128
O3_3 O 0.52356(17) 0.05492(16) 0.34319(12)
O4_3 O 0.62619(17) 0.06220(16) 0.25705(12)
C1_3 C 0.8849(2) 0.79031(19) 0.30578(16)
C2_3 C 0.8109(2) 0.85000(19) 0.34504(15)
C3_3 C 0.7443(2) 0.9121(2) 0.31251(17)
H1_3 H 0.7481 0.9195 0.2661
C4_3 C 0.6723(2) 0.9634(2) 0.34769(16)
C5_3 C 0.6666(2) 0.9532(2) 0.41539(16)
H2_3 H 0.6177 0.9884 0.4396
C6_3 C 0.7331(2) 0.8912(2) 0.44744(16)
C7_3 C 0.8059(2) 0.8399(2) 0.41299(15)
H3_3 H 0.8517 0.7985 0.4356
C9_3 C 0.6476(2) 0.8428(2) 0.55156(15)
C10_3 C 0.7927(2) 0.9115(2) 0.56448(18)
C11_3 C 0.5577(3) 0.8006(3) 0.5209(2)
H4_3 H 0.5219 0.7602 0.5533
H5_3 H 0.5763 0.7584 0.4834
H6_3 H 0.5153 0.8554 0.5055
C12_3 C 0.8886(3) 0.9605(3) 0.5488(2)
H8_3 H 0.9380 0.9081 0.5386
H10_3 H 0.9334 0.9832 0.6439
N2_3 N 0.75872(18) 0.89318(19) 0.62299(14)
N3_3 N 0.72606(19) 0.88069(18) 0.51743(14)
O1_3 O 0.96027(16) 0.76067(16) 0.33626(12)
O6_3 O 0.97644(17) 0.55492(16) 0.34319(12)
C9_4 C 0.8524(2) 0.6572(2) 0.05156(15)
C10_4 C 0.7073(2) 0.5885(2) 0.06448(18)
C11_4 C 0.9423(3) 0.6994(3) 0.0209(2)
H4_4 H 0.9781 0.7398 0.0533
H6_4 H 0.9847 0.6446 0.0055
C12_4 C 0.6114(3) 0.5395(3) 0.0488(2)
H7_3 H 0.6195 0.4973 0.0091
H8_4 H 0.5620 0.5919 0.0386
C13_3 C 0.5738(4) 0.4756(4) 0.1043(3)
H9_3 H 0.5096 0.4473 0.0923
H10_4 H 0.5666 0.5168 0.1439
H11_3 H 0.6206 0.4211 0.1128
N2_4 N 0.74128(18) 0.60682(19) 0.12299(14)
N3_4 N 0.77394(19) 0.61931(18) 0.01743(14)
C1_4 C 0.6151(2) 0.70969(19) 0.80578(16)
C2_4 C 0.6891(2) 0.65000(19) 0.84504(15)
C3_4 C 0.7557(2) 0.5879(2) 0.81251(17)
H1_4 H 0.7519 0.5805 0.7661
C4_4 C 0.8277(2) 0.5366(2) 0.84769(16)
C5_4 C 0.8334(2) 0.5468(2) 0.91539(16)
H2_4 H 0.8823 0.5116 0.9396
C6_4 C 0.7669(2) 0.6088(2) 0.94744(16)
C7_4 C 0.6941(2) 0.6601(2) 0.91299(15)
H3_4 H 0.6483 0.7015 0.9356
C8_4 C 0.8990(2) 0.46732(19) 0.81261(17)
H5_4 H 0.9237 0.7416 0.9834
O1_4 O 0.53973(16) 0.73933(16) 0.83626(12)
O3_4 O 0.97644(17) 0.44508(16) 0.84319(12)
O4_4 O 0.87381(17) 0.43780(16) 0.75705(12)
O6_4 O 0.52356(17) 0.94508(16) 0.84319(12)
O7_4 O 0.37381(17) 0.93780(16) 0.74295(12)
C1_5 C 0.6151(2) 0.29031(19) 0.30578(16)
C2_5 C 0.6891(2) 0.35000(19) 0.34504(15)
C3_5 C 0.7557(2) 0.4121(2) 0.31251(17)
H1_5 H 0.7519 0.4195 0.2661
C4_5 C 0.8277(2) 0.4634(2) 0.34769(16)
C5_5 C 0.8334(2) 0.4532(2) 0.41539(16)
H2_5 H 0.8823 0.4884 0.4396
C6_5 C 0.7669(2) 0.3912(2) 0.44744(16)
C7_5 C 0.6941(2) 0.3399(2) 0.41299(15)
H3_5 H 0.6483 0.2985 0.4356
C8_5 C 0.8990(2) 0.53268(19) 0.31261(17)
C9_5 C 0.8524(2) 0.3428(2) 0.55156(15)
C10_5 C 0.7073(2) 0.4115(2) 0.56448(18)
C11_5 C 0.9423(3) 0.3006(3) 0.5209(2)
H4_5 H 0.9781 0.2602 0.5533
H5_5 H 0.9237 0.2584 0.4834
H6_5 H 0.9847 0.3554 0.5055
C12_5 C 0.6114(3) 0.4605(3) 0.5488(2)
H7_4 H 0.6195 0.5027 0.5091
H8_5 H 0.5620 0.4081 0.5386
C13_4 C 0.5738(4) 0.5244(4) 0.6043(3)
H9_4 H 0.5096 0.5527 0.5923
H10_5 H 0.5666 0.4832 0.6439
H11_4 H 0.6206 0.5789 0.6128
N1_3 N 0.83380(18) 0.34900(17) 0.61402(13)
N2_5 N 0.74128(18) 0.39318(19) 0.62299(14)
N3_5 N 0.77394(19) 0.38069(18) 0.51743(14)
O1_5 O 0.53973(16) 0.26067(16) 0.33626(12)
O2_3 O 0.63547(17) 0.27446(16) 0.24652(11)
N4_3 N 0.33380(18) 0.15100(17) 0.38598(13)
O5_3 O 0.36453(17) 0.27446(16) 0.25348(11)
N4_4 N 0.16620(18) 0.34900(17) 0.88598(13)
O5_4 O 0.13547(17) 0.22554(16) 0.75348(11)
C9_6 C 0.6476(2) 0.1572(2) 0.05156(15)
C10_6 C 0.7927(2) 0.0885(2) 0.06448(18)
C11_6 C 0.5577(3) 0.1994(3) 0.0209(2)
H4_6 H 0.5219 0.2398 0.0533
H6_6 H 0.5153 0.1446 0.0055
C12_6 C 0.8886(3) 0.0395(3) 0.0488(2)
H8_6 H 0.9380 0.0919 0.0386
H10_6 H 0.9334 0.0168 0.1439
N1_4 N 0.66620(18) 0.15100(17) 0.11402(13)
N2_6 N 0.75872(18) 0.10682(19) 0.12299(14)
N3_6 N 0.72606(19) 0.11931(18) 0.01743(14)
C1_6 C 0.8849(2) 0.20969(19) 0.80578(16)
C2_6 C 0.8109(2) 0.15000(19) 0.84504(15)
C3_6 C 0.7443(2) 0.0879(2) 0.81251(17)
H1_6 H 0.7481 0.0805 0.7661
C4_6 C 0.6723(2) 0.0366(2) 0.84769(16)
C5_6 C 0.6666(2) 0.0468(2) 0.91539(16)
H2_6 H 0.6177 0.0116 0.9396
C6_6 C 0.7331(2) 0.1088(2) 0.94744(16)
C7_6 C 0.8059(2) 0.1601(2) 0.91299(15)
H3_6 H 0.8517 0.2015 0.9356
H5_6 H 0.5763 0.2416 0.9834
O1_6 O 0.96027(16) 0.23933(16) 0.83626(12)
O2_4 O 0.86453(17) 0.22554(16) 0.74652(11)
C8_6 C 0.6010(2) 0.96732(19) 0.81261(17)
C1_7 C 0.1151(2) 0.20969(19) 0.69422(16)
C2_7 C 0.1891(2) 0.15000(19) 0.65496(15)
C3_7 C 0.2557(2) 0.0879(2) 0.68749(17)
H1_7 H 0.2519 0.0805 0.7339
C4_7 C 0.3277(2) 0.0366(2) 0.65231(16)
C5_7 C 0.3334(2) 0.0468(2) 0.58461(16)
H2_7 H 0.3823 0.0116 0.5604
C6_7 C 0.2669(2) 0.1088(2) 0.55256(16)
C7_7 C 0.1941(2) 0.1601(2) 0.58701(15)
H3_7 H 0.1483 0.2015 0.5644
C9_7 C 0.3524(2) 0.1572(2) 0.44844(15)
C10_7 C 0.2073(2) 0.0885(2) 0.43552(18)
C11_7 C 0.4423(3) 0.1994(3) 0.4791(2)
H4_7 H 0.4781 0.2398 0.4467
H5_7 H 0.4237 0.2416 0.5166
H6_7 H 0.4847 0.1446 0.4945
C12_7 C 0.1114(3) 0.0395(3) 0.4512(2)
H8_7 H 0.0620 0.0919 0.4614
H10_7 H 0.0666 0.0168 0.3561
N2_7 N 0.24128(18) 0.10682(19) 0.37701(14)
N3_7 N 0.27394(19) 0.11931(18) 0.48257(14)
O1_7 O 0.03973(16) 0.23933(16) 0.66374(12)
C8_7 C 0.3990(2) 0.96732(19) 0.68739(17)
H7_5 H 0.1195 0.9973 0.4909
C13_5 C 0.0738(4) 0.9756(4) 0.3957(3)
H9_5 H 0.0096 0.9473 0.4077
H11_5 H 0.1206 0.9211 0.3872
C1_8 C 0.3849(2) 0.29031(19) 0.19422(16)
C2_8 C 0.3109(2) 0.35000(19) 0.15496(15)
C3_8 C 0.2443(2) 0.4121(2) 0.18749(17)
H1_8 H 0.2481 0.4195 0.2339
C4_8 C 0.1723(2) 0.4634(2) 0.15231(16)
C5_8 C 0.1666(2) 0.4532(2) 0.08461(16)
H2_8 H 0.1177 0.4884 0.0604
C6_8 C 0.2331(2) 0.3912(2) 0.05256(16)
C7_8 C 0.3059(2) 0.3399(2) 0.08701(15)
H3_8 H 0.3517 0.2985 0.0644
C8_8 C 0.1010(2) 0.53268(19) 0.18739(17)
H5_8 H 0.0763 0.2584 0.0166
O1_8 O 0.46027(16) 0.26067(16) 0.16374(12)
C9_8 C 0.1476(2) 0.3428(2) 0.94844(15)
C10_8 C 0.2927(2) 0.4115(2) 0.93552(18)
C11_8 C 0.0577(3) 0.3006(3) 0.9791(2)
H4_8 H 0.0219 0.2602 0.9467
H6_8 H 0.0153 0.3554 0.9945
C12_8 C 0.3886(3) 0.4605(3) 0.9512(2)
H7_6 H 0.3805 0.5027 0.9909
H8_8 H 0.4380 0.4081 0.9614
C13_6 C 0.4262(4) 0.5244(4) 0.8957(3)
H9_6 H 0.4904 0.5527 0.9077
H10_8 H 0.4334 0.4832 0.8561
H11_6 H 0.3794 0.5789 0.8872
N2_8 N 0.25872(18) 0.39318(19) 0.87701(14)
N3_8 N 0.22606(19) 0.38069(18) 0.98257(14)
H7_7 H 0.1195 0.0027 0.9909
C13_7 C 0.0738(4) 0.0244(4) 0.8957(3)
H9_7 H 0.0096 0.0527 0.9077
H11_7 H 0.1206 0.0789 0.8872
H7_8 H 0.8805 0.9973 0.0091
C13_8 C 0.9262(4) 0.9756(4) 0.1043(3)
H9_8 H 0.9904 0.9473 0.0923
H11_8 H 0.8794 0.9211 0.1128
loop_
_geom_bond_atom_site_label_1
_geom_bond_atom_site_label_2
_geom_bond_site_symmetry_1
_geom_bond_site_symmetry_2
C1 C2 1_555 1_555
C2 C3 1_555 1_555
C3 H1 1_555 1_555
C4 C3 1_555 1_555
C5 C4 1_555 1_555
H2 C5 1_555 1_555
C6 C5 1_555 1_555
C7 C2 1_555 1_555
H3 C7 1_555 1_555
C8 C4 1_555 1_555
C9 C11 1_555 1_555
C10 C12 1_555 1_555
C11 H4 1_555 1_555
H5 C11 1_555 1_555
H6 C11 1_555 1_555
C12 H7 1_555 1_555
H8 C12 1_555 1_555
C13 C12 1_555 1_555
H9 C13 1_555 1_555
H10 C13 1_555 1_555
H11 C13 1_555 1_555
N1 C9 1_555 1_555
N2 C10 1_555 1_555
N3 C6 1_555 1_555
O1 C1 1_555 1_555
O2 C1 1_555 1_555
O3 C8 1_555 1_555
O4 C8 1_555 1_555
Zn1 O1 1_555 1_555
N4 Zn1 1_555 1_555
O5 Zn1 1_555 1_555
O6 Zn1 1_555 1_555
O7 Zn1 1_555 1_555
Zn2 N1 1_555 1_555
Zn3 O2 1_555 1_555
Zn4 O4 1_555 1_555
C6 C7 1_555 1_555
C9 N3 1_555 1_555
C10 N3 1_555 1_555
N1 N2 1_555 1_555
O3_2 C8_2 1_555 1_555
O4_2 C8_2 1_555 1_555
Zn4_2 O4_2 1_555 1_555
Zn5_2 O3_2 1_555 1_555
C1_2 C2_2 1_555 1_555
C2_2 C3_2 1_555 1_555
C3_2 H1_2 1_555 1_555
C4_2 C3_2 1_555 1_555
C5_2 C4_2 1_555 1_555
H2_2 C5_2 1_555 1_555
C6_2 C5_2 1_555 1_555
C7_2 C2_2 1_555 1_555
H3_2 C7_2 1_555 1_555
O1_2 C1_2 1_555 1_555
O2_2 C1_2 1_555 1_555
Zn2 O2_2 1_555 1_555
C6_2 C7_2 1_555 1_555
C9_2 C11_2 1_555 1_555
C10_2 C12_2 1_555 1_555
C11_2 H4_2 1_555 1_555
H6_2 C11_2 1_555 1_555
H8_2 C12_2 1_555 1_555
N1_2 C9_2 1_555 1_555
N2_2 C10_2 1_555 1_555
Zn3 N1_2 1_555 1_555
C9_2 N3_2 1_555 1_555
C10_2 N3_2 1_555 1_555
N1_2 N2_2 1_555 1_555
N4_2 Zn1_2 1_555 1_555
O5_2 Zn1_2 1_555 1_555
O7_2 Zn1_2 1_555 1_555
O7_3 Zn2 1_555 1_555
H9_2 C13_2 1_555 1_555
H11_2 C13_2 1_555 1_555
O3_3 C8_3 1_555 1_555
O4_3 C8_3 1_555 1_555
Zn5_2 O4_3 1_555 1_555
Zn4_2 O3_3 1_555 1_555
C1_3 C2_3 1_555 1_555
C2_3 C3_3 1_555 1_555
C3_3 H1_3 1_555 1_555
C4_3 C3_3 1_555 1_555
C5_3 C4_3 1_555 1_555
H2_3 C5_3 1_555 1_555
C6_3 C5_3 1_555 1_555
C7_3 C2_3 1_555 1_555
H3_3 C7_3 1_555 1_555
C9_3 C11_3 1_555 1_555
C10_3 C12_3 1_555 1_555
C11_3 H4_3 1_555 1_555
H5_3 C11_3 1_555 1_555
H6_3 C11_3 1_555 1_555
H8_3 C12_3 1_555 1_555
N4 C9_3 1_555 1_555
N2_3 C10_3 1_555 1_555
N3_3 C6_3 1_555 1_555
O1_3 C1_3 1_555 1_555
O5_2 C1_3 1_555 1_555
C6_3 C7_3 1_555 1_555
C9_3 N3_3 1_555 1_555
C10_3 N3_3 1_555 1_555
N4 N2_3 1_555 1_555
C9_4 C11_4 1_555 1_555
C10_4 C12_4 1_555 1_555
C11_4 H4_4 1_555 1_555
H6_4 C11_4 1_555 1_555
C12_4 H7_3 1_555 1_555
H8_4 C12_4 1_555 1_555
C13_3 C12_4 1_555 1_555
H9_3 C13_3 1_555 1_555
H10_4 C13_3 1_555 1_555
H11_3 C13_3 1_555 1_555
N4_2 C9_4 1_555 1_555
N2_4 C10_4 1_555 1_555
C9_4 N3_4 1_555 1_555
C10_4 N3_4 1_555 1_555
N4_2 N2_4 1_555 1_555
C1_4 C2_4 1_555 1_555
C2_4 C3_4 1_555 1_555
C3_4 H1_4 1_555 1_555
C4_4 C3_4 1_555 1_555
C5_4 C4_4 1_555 1_555
H2_4 C5_4 1_555 1_555
C6_4 C5_4 1_555 1_555
C7_4 C2_4 1_555 1_555
H3_4 C7_4 1_555 1_555
C8_4 C4_4 1_555 1_555
O1_4 C1_4 1_555 1_555
O5 C1_4 1_555 1_555
O3_4 C8_4 1_555 1_555
O4_4 C8_4 1_555 1_555
Zn3 O1_4 1_555 1_555
O6_4 Zn3 1_555 1_555
O7_4 Zn3 1_555 1_555
Zn5 O4_4 1_555 1_555
C6_4 C7_4 1_555 1_555
C1_5 C2_5 1_555 1_555
C2_5 C3_5 1_555 1_555
C3_5 H1_5 1_555 1_555
C4_5 C3_5 1_555 1_555
C5_5 C4_5 1_555 1_555
H2_5 C5_5 1_555 1_555
C6_5 C5_5 1_555 1_555
C7_5 C2_5 1_555 1_555
H3_5 C7_5 1_555 1_555
C8_5 C4_5 1_555 1_555
C9_5 C11_5 1_555 1_555
C10_5 C12_5 1_555 1_555
C11_5 H4_5 1_555 1_555
H5_5 C11_5 1_555 1_555
H6_5 C11_5 1_555 1_555
C12_5 H7_4 1_555 1_555
H8_5 C12_5 1_555 1_555
C13_4 C12_5 1_555 1_555
H9_4 C13_4 1_555 1_555
H10_5 C13_4 1_555 1_555
H11_4 C13_4 1_555 1_555
N1_3 C9_5 1_555 1_555
N2_5 C10_5 1_555 1_555
N3_5 C6_5 1_555 1_555
O1_5 C1_5 1_555 1_555
O2_3 C1_5 1_555 1_555
O6_3 C8_5 1_555 1_555
O7_2 C8_5 1_555 1_555
Zn4_2 O1_5 1_555 1_555
N4_3 Zn4_2 1_555 1_555
O5_3 Zn4_2 1_555 1_555
Zn5 N1_3 1_555 1_555
Zn5_2 O2_3 1_555 1_555
C6_5 C7_5 1_555 1_555
C9_5 N3_5 1_555 1_555
C10_5 N3_5 1_555 1_555
N1_3 N2_5 1_555 1_555
N4_4 Zn4 1_555 1_555
O5_4 Zn4 1_555 1_555
C9_6 C11_6 1_555 1_555
C10_6 C12_6 1_555 1_555
C11_6 H4_6 1_555 1_555
H6_6 C11_6 1_555 1_555
H8_6 C12_6 1_555 1_555
N1_4 C9_6 1_555 1_555
N2_6 C10_6 1_555 1_555
Zn5_2 N1_4 1_555 1_555
C9_6 N3_6 1_555 1_555
C10_6 N3_6 1_555 1_555
N1_4 N2_6 1_555 1_555
C1_6 C2_6 1_555 1_555
C2_6 C3_6 1_555 1_555
C3_6 H1_6 1_555 1_555
C4_6 C3_6 1_555 1_555
C5_6 C4_6 1_555 1_555
H2_6 C5_6 1_555 1_555
C6_6 C5_6 1_555 1_555
C7_6 C2_6 1_555 1_555
H3_6 C7_6 1_555 1_555
O1_6 C1_6 1_555 1_555
O2_4 C1_6 1_555 1_555
Zn5 O2_4 1_555 1_555
C6_6 C7_6 1_555 1_555
O6_4 C8_6 1_555 1_555
O7 C8_6 1_555 1_555
C1_7 C2_7 1_555 1_555
C2_7 C3_7 1_555 1_555
C3_7 H1_7 1_555 1_555
C4_7 C3_7 1_555 1_555
C5_7 C4_7 1_555 1_555
H2_7 C5_7 1_555 1_555
C6_7 C5_7 1_555 1_555
C7_7 C2_7 1_555 1_555
H3_7 C7_7 1_555 1_555
C9_7 C11_7 1_555 1_555
C10_7 C12_7 1_555 1_555
C11_7 H4_7 1_555 1_555
H5_7 C11_7 1_555 1_555
H6_7 C11_7 1_555 1_555
H8_7 C12_7 1_555 1_555
N4_3 C9_7 1_555 1_555
N2_7 C10_7 1_555 1_555
N3_7 C6_7 1_555 1_555
O1_7 C1_7 1_555 1_555
O5_4 C1_7 1_555 1_555
C6_7 C7_7 1_555 1_555
C9_7 N3_7 1_555 1_555
C10_7 N3_7 1_555 1_555
N4_3 N2_7 1_555 1_555
H9_5 C13_5 1_555 1_555
H11_5 C13_5 1_555 1_555
O6 C8_7 1_555 1_555
O7_4 C8_7 1_555 1_555
C1_8 C2_8 1_555 1_555
C2_8 C3_8 1_555 1_555
C3_8 H1_8 1_555 1_555
C4_8 C3_8 1_555 1_555
C5_8 C4_8 1_555 1_555
H2_8 C5_8 1_555 1_555
C6_8 C5_8 1_555 1_555
C7_8 C2_8 1_555 1_555
H3_8 C7_8 1_555 1_555
C8_8 C4_8 1_555 1_555
O1_8 C1_8 1_555 1_555
O5_3 C1_8 1_555 1_555
O6_2 C8_8 1_555 1_555
O7_3 C8_8 1_555 1_555
Zn5_2 O1_8 1_555 1_555
C6_8 C7_8 1_555 1_555
C9_8 C11_8 1_555 1_555
C10_8 C12_8 1_555 1_555
C11_8 H4_8 1_555 1_555
H6_8 C11_8 1_555 1_555
C12_8 H7_6 1_555 1_555
H8_8 C12_8 1_555 1_555
C13_6 C12_8 1_555 1_555
H9_6 C13_6 1_555 1_555
H10_8 C13_6 1_555 1_555
H11_6 C13_6 1_555 1_555
N4_4 C9_8 1_555 1_555
N2_8 C10_8 1_555 1_555
C9_8 N3_8 1_555 1_555
C10_8 N3_8 1_555 1_555
N4_4 N2_8 1_555 1_555
H9_7 C13_7 1_555 1_555
H11_7 C13_7 1_555 1_555
H9_8 C13_8 1_555 1_555
H11_8 C13_8 1_555 1_555

#END
