
###############################################################################
#
# This file contains modified crystal structure data generated from the
# MOF subset of the Cambridge Structural Database (CSD) v543 
# hosted by the Cambridge Crystallographic Data Centre (CCDC).
#
# This work is licensed under the Creative Commons
# Attribution-NonCommercial-ShareAlike 4.0 International License.
# To view a copy of this license, visit
# http://creativecommons.org/licenses/by-nc-sa/4.0/
# or send a letter to
# Creative Commons, PO Box 1866, Mountain View, CA 94042, USA.
#
# CIF created using the CSD Python API on 29 September 2022
# The structure has been converted into the P1 space group
# The structure has a 3D framework
# The original CSD entry UKALEZ is in the orthorhombic crystal system
# The framework has been calculated to contain at least 10.0% void space
# The void calculation uses a probe of radius 1.32A, grid spacing 0.4
#
###############################################################################

data_UKALEZ
_chemical_formula_moiety         '(C96 H72 N24 O32 Zn4)n'
_symmetry_cell_setting           triclinic
_symmetry_space_group_name_H-M   'P 1'
_symmetry_Int_Tables_number      1
_space_group_name_Hall           'P 1'
loop_
_symmetry_equiv_pos_site_id
_symmetry_equiv_pos_as_xyz
1 x,y,z
_cell_length_a                   13.4952(7)
_cell_length_b                   13.2445(6)
_cell_length_c                   20.4401(14)
_cell_angle_alpha                90
_cell_angle_beta                 90
_cell_angle_gamma                90
_cell_volume                     3653.41
loop_
_atom_site_label
_atom_site_type_symbol
_atom_site_fract_x
_atom_site_fract_y
_atom_site_fract_z
C1 C 0.38757(14) 0.71091(15) 0.69253(9)
C2 C 0.31225(14) 0.65137(15) 0.65411(9)
C3 C 0.24492(14) 0.59028(15) 0.68661(9)
H1 H 0.2482 0.5843 0.7324
C4 C 0.17254(13) 0.53783(15) 0.65217(9)
C5 C 0.16697(14) 0.54719(16) 0.58419(9)
H2 H 0.1179 0.5126 0.5605
C6 C 0.23468(14) 0.60808(16) 0.55220(9)
C7 C 0.30783(14) 0.66015(16) 0.58576(9)
H3 H 0.3537 0.7006 0.5631
C8 C 0.10126(13) 0.46905(14) 0.68736(9)
C9 C 0.14987(13) 0.65687(16) 0.44791(9)
C10 C 0.29361(14) 0.5853(2) 0.43602(10)
C11 C 0.06059(19) 0.7022(3) 0.47789(11)
H4 H 0.0170 0.6490 0.4932
H5 H 0.0262 0.7429 0.4456
H6 H 0.0800 0.7444 0.5145
C12 C 0.3889(2) 0.5350(3) 0.45223(13)
H7 H 0.4383 0.5857 0.4627
H8 H 0.4110 0.4956 0.4150
H9 H 0.3795 0.4909 0.4896
N1 N 0.16798(11) 0.64835(13) 0.38507(8)
N2 N 0.25956(12) 0.60273(16) 0.37699(8)
N3 N 0.22744(12) 0.61768(14) 0.48193(7)
O1 O 0.46512(11) 0.73613(13) 0.66326(7)
O2 O 0.36479(11) 0.73125(12) 0.75060(7)
O3 O 0.02556(11) 0.44267(13) 0.65645(7)
O4 O 0.12456(11) 0.44349(12) 0.74438(7)
Zn1 Zn 0.572120(13) 0.837546(15) 0.691176(8)
N4 N 0.66798(11) 0.85165(13) 0.61493(8)
O5 O 0.63521(11) 0.73125(12) 0.74940(7)
O6 O 0.47444(11) 0.94267(13) 0.65645(7)
O7 O 0.62456(11) 0.94349(12) 0.75562(7)
Zn2 Zn 0.072120(13) 0.662454(15) 0.308824(8)
Zn3 Zn 0.427880(13) 0.837546(15) 0.808824(8)
Zn4 Zn 0.072120(13) 0.337546(15) 0.808824(8)
Zn5 Zn 0.927880(13) 0.337546(15) 0.691176(8)
C8_2 C 0.39874(13) 0.03095(14) 0.18736(9)
O3_2 O 0.47444(11) 0.05733(13) 0.15645(7)
O4_2 O 0.37544(11) 0.05651(12) 0.24438(7)
Zn4_2 Zn 0.427880(13) 0.162454(15) 0.308824(8)
Zn5_2 Zn 0.572120(13) 0.162454(15) 0.191176(8)
C1_2 C 0.11243(14) 0.78909(15) 0.19253(9)
C2_2 C 0.18775(14) 0.84863(15) 0.15411(9)
C3_2 C 0.25508(14) 0.90972(15) 0.18661(9)
H1_2 H 0.2518 0.9157 0.2324
C4_2 C 0.32746(13) 0.96217(15) 0.15217(9)
C5_2 C 0.33303(14) 0.95281(16) 0.08419(9)
H2_2 H 0.3821 0.9874 0.0605
C6_2 C 0.26532(14) 0.89192(16) 0.05220(9)
C7_2 C 0.19217(14) 0.83985(16) 0.08576(9)
H3_2 H 0.1463 0.7994 0.0631
H6_2 H 0.4200 0.7556 0.0145
O1_2 O 0.03488(11) 0.76387(13) 0.16326(7)
O2_2 O 0.13521(11) 0.76875(12) 0.25060(7)
O6_2 O 0.02556(11) 0.55733(13) 0.15645(7)
C9_2 C 0.35013(13) 0.84313(16) 0.94791(9)
C10_2 C 0.20639(14) 0.9147(2) 0.93602(10)
C11_2 C 0.43941(19) 0.7978(3) 0.97789(11)
H4_2 H 0.4830 0.8510 0.9932
H5_2 H 0.4738 0.7571 0.9456
C12_2 C 0.1111(2) 0.9650(3) 0.95223(13)
H7_2 H 0.0617 0.9143 0.9627
N1_2 N 0.33202(11) 0.85165(13) 0.88507(8)
N2_2 N 0.24044(12) 0.89727(16) 0.87699(8)
N3_2 N 0.27256(12) 0.88232(14) 0.98193(7)
Zn1_2 Zn 0.927880(13) 0.662454(15) 0.191176(8)
N4_2 N 0.83202(11) 0.64835(13) 0.11493(8)
O5_2 O 0.86479(11) 0.76875(12) 0.24940(7)
O7_2 O 0.87544(11) 0.55651(12) 0.25562(7)
O7_3 O 0.12456(11) 0.55651(12) 0.24438(7)
C8_3 C 0.60126(13) 0.03095(14) 0.31264(9)
H8_2 H 0.9110 0.0044 0.5850
H9_2 H 0.8795 0.0091 0.5104
O3_3 O 0.52556(11) 0.05733(13) 0.34355(7)
O4_3 O 0.62456(11) 0.05651(12) 0.25562(7)
C1_3 C 0.88757(14) 0.78909(15) 0.30747(9)
C2_3 C 0.81225(14) 0.84863(15) 0.34589(9)
C3_3 C 0.74492(14) 0.90972(15) 0.31339(9)
H1_3 H 0.7482 0.9157 0.2676
C4_3 C 0.67254(13) 0.96217(15) 0.34783(9)
C5_3 C 0.66697(14) 0.95281(16) 0.41581(9)
H2_3 H 0.6179 0.9874 0.4395
C6_3 C 0.73468(14) 0.89192(16) 0.44780(9)
C7_3 C 0.80783(14) 0.83985(16) 0.41424(9)
H3_3 H 0.8537 0.7994 0.4369
C9_3 C 0.64987(13) 0.84313(16) 0.55209(9)
C10_3 C 0.79361(14) 0.9147(2) 0.56398(10)
C11_3 C 0.56059(19) 0.7978(3) 0.52211(11)
H4_3 H 0.5170 0.8510 0.5068
H5_3 H 0.5262 0.7571 0.5544
H6_3 H 0.5800 0.7556 0.4855
C12_3 C 0.8889(2) 0.9650(3) 0.54777(13)
H7_3 H 0.9383 0.9143 0.5373
N2_3 N 0.75956(12) 0.89727(16) 0.62301(8)
N3_3 N 0.72744(12) 0.88232(14) 0.51807(7)
O1_3 O 0.96512(11) 0.76387(13) 0.33674(7)
O6_3 O 0.97444(11) 0.55733(13) 0.34355(7)
C9_4 C 0.85013(13) 0.65687(16) 0.05209(9)
C10_4 C 0.70639(14) 0.5853(2) 0.06398(10)
C11_4 C 0.93941(19) 0.7022(3) 0.02211(11)
H4_4 H 0.9830 0.6490 0.0068
H5_4 H 0.9738 0.7429 0.0544
C12_4 C 0.6111(2) 0.5350(3) 0.04777(13)
H7_4 H 0.5617 0.5857 0.0373
H8_3 H 0.5890 0.4956 0.0850
H9_3 H 0.6205 0.4909 0.0104
N2_4 N 0.74044(12) 0.60273(16) 0.12301(8)
N3_4 N 0.77256(12) 0.61768(14) 0.01807(7)
C1_4 C 0.61243(14) 0.71091(15) 0.80747(9)
C2_4 C 0.68775(14) 0.65137(15) 0.84589(9)
C3_4 C 0.75508(14) 0.59028(15) 0.81339(9)
H1_4 H 0.7518 0.5843 0.7676
C4_4 C 0.82746(13) 0.53783(15) 0.84783(9)
C5_4 C 0.83303(14) 0.54719(16) 0.91581(9)
H2_4 H 0.8821 0.5126 0.9395
C6_4 C 0.76532(14) 0.60808(16) 0.94780(9)
C7_4 C 0.69217(14) 0.66015(16) 0.91424(9)
H3_4 H 0.6463 0.7006 0.9369
C8_4 C 0.89874(13) 0.46905(14) 0.81264(9)
H6_4 H 0.9200 0.7444 0.9855
O1_4 O 0.53488(11) 0.73613(13) 0.83674(7)
O3_4 O 0.97444(11) 0.44267(13) 0.84355(7)
O4_4 O 0.87544(11) 0.44349(12) 0.75562(7)
O6_4 O 0.52556(11) 0.94267(13) 0.84355(7)
O7_4 O 0.37544(11) 0.94349(12) 0.74438(7)
C1_5 C 0.61243(14) 0.28909(15) 0.30747(9)
C2_5 C 0.68775(14) 0.34863(15) 0.34589(9)
C3_5 C 0.75508(14) 0.40972(15) 0.31339(9)
H1_5 H 0.7518 0.4157 0.2676
C4_5 C 0.82746(13) 0.46217(15) 0.34783(9)
C5_5 C 0.83303(14) 0.45281(16) 0.41581(9)
H2_5 H 0.8821 0.4874 0.4395
C6_5 C 0.76532(14) 0.39192(16) 0.44780(9)
C7_5 C 0.69217(14) 0.33985(16) 0.41424(9)
H3_5 H 0.6463 0.2994 0.4369
C8_5 C 0.89874(13) 0.53095(14) 0.31264(9)
C9_5 C 0.85013(13) 0.34313(16) 0.55209(9)
C10_5 C 0.70639(14) 0.4147(2) 0.56398(10)
C11_5 C 0.93941(19) 0.2978(3) 0.52211(11)
H4_5 H 0.9830 0.3510 0.5068
H5_5 H 0.9738 0.2571 0.5544
H6_5 H 0.9200 0.2556 0.4855
C12_5 C 0.6111(2) 0.4650(3) 0.54777(13)
H7_5 H 0.5617 0.4143 0.5373
H8_4 H 0.5890 0.5044 0.5850
H9_4 H 0.6205 0.5091 0.5104
N1_3 N 0.83202(11) 0.35165(13) 0.61493(8)
N2_5 N 0.74044(12) 0.39727(16) 0.62301(8)
N3_5 N 0.77256(12) 0.38232(14) 0.51807(7)
O1_5 O 0.53488(11) 0.26387(13) 0.33674(7)
O2_3 O 0.63521(11) 0.26875(12) 0.24940(7)
N4_3 N 0.33202(11) 0.14835(13) 0.38507(8)
O5_3 O 0.36479(11) 0.26875(12) 0.25060(7)
N4_4 N 0.16798(11) 0.35165(13) 0.88507(8)
O5_4 O 0.13521(11) 0.23125(12) 0.75060(7)
C9_6 C 0.64987(13) 0.15687(16) 0.05209(9)
C10_6 C 0.79361(14) 0.0853(2) 0.06398(10)
C11_6 C 0.56059(19) 0.2022(3) 0.02211(11)
H4_6 H 0.5170 0.1490 0.0068
H5_6 H 0.5262 0.2429 0.0544
C12_6 C 0.8889(2) 0.0350(3) 0.04777(13)
H7_6 H 0.9383 0.0857 0.0373
N1_4 N 0.66798(11) 0.14835(13) 0.11493(8)
N2_6 N 0.75956(12) 0.10273(16) 0.12301(8)
N3_6 N 0.72744(12) 0.11768(14) 0.01807(7)
C1_6 C 0.88757(14) 0.21091(15) 0.80747(9)
C2_6 C 0.81225(14) 0.15137(15) 0.84589(9)
C3_6 C 0.74492(14) 0.09028(15) 0.81339(9)
H1_6 H 0.7482 0.0843 0.7676
C4_6 C 0.67254(13) 0.03783(15) 0.84783(9)
C5_6 C 0.66697(14) 0.04719(16) 0.91581(9)
H2_6 H 0.6179 0.0126 0.9395
C6_6 C 0.73468(14) 0.10808(16) 0.94780(9)
C7_6 C 0.80783(14) 0.16015(16) 0.91424(9)
H3_6 H 0.8537 0.2006 0.9369
H6_6 H 0.5800 0.2444 0.9855
O1_6 O 0.96512(11) 0.23613(13) 0.83674(7)
O2_4 O 0.86479(11) 0.23125(12) 0.74940(7)
C8_6 C 0.60126(13) 0.96905(14) 0.81264(9)
C1_7 C 0.11243(14) 0.21091(15) 0.69253(9)
C2_7 C 0.18775(14) 0.15137(15) 0.65411(9)
C3_7 C 0.25508(14) 0.09028(15) 0.68661(9)
H1_7 H 0.2518 0.0843 0.7324
C4_7 C 0.32746(13) 0.03783(15) 0.65217(9)
C5_7 C 0.33303(14) 0.04719(16) 0.58419(9)
H2_7 H 0.3821 0.0126 0.5605
C6_7 C 0.26532(14) 0.10808(16) 0.55220(9)
C7_7 C 0.19217(14) 0.16015(16) 0.58576(9)
H3_7 H 0.1463 0.2006 0.5631
C9_7 C 0.35013(13) 0.15687(16) 0.44791(9)
C10_7 C 0.20639(14) 0.0853(2) 0.43602(10)
C11_7 C 0.43941(19) 0.2022(3) 0.47789(11)
H4_7 H 0.4830 0.1490 0.4932
H5_7 H 0.4738 0.2429 0.4456
H6_7 H 0.4200 0.2444 0.5145
C12_7 C 0.1111(2) 0.0350(3) 0.45223(13)
H7_7 H 0.0617 0.0857 0.4627
N2_7 N 0.24044(12) 0.10273(16) 0.37699(8)
N3_7 N 0.27256(12) 0.11768(14) 0.48193(7)
O1_7 O 0.03488(11) 0.23613(13) 0.66326(7)
C8_7 C 0.39874(13) 0.96905(14) 0.68736(9)
H8_5 H 0.0890 0.9956 0.4150
H9_5 H 0.1205 0.9909 0.4896
C1_8 C 0.38757(14) 0.28909(15) 0.19253(9)
C2_8 C 0.31225(14) 0.34863(15) 0.15411(9)
C3_8 C 0.24492(14) 0.40972(15) 0.18661(9)
H1_8 H 0.2482 0.4157 0.2324
C4_8 C 0.17254(13) 0.46217(15) 0.15217(9)
C5_8 C 0.16697(14) 0.45281(16) 0.08419(9)
H2_8 H 0.1179 0.4874 0.0605
C6_8 C 0.23468(14) 0.39192(16) 0.05220(9)
C7_8 C 0.30783(14) 0.33985(16) 0.08576(9)
H3_8 H 0.3537 0.2994 0.0631
C8_8 C 0.10126(13) 0.53095(14) 0.18736(9)
H6_8 H 0.0800 0.2556 0.0145
O1_8 O 0.46512(11) 0.26387(13) 0.16326(7)
C9_8 C 0.14987(13) 0.34313(16) 0.94791(9)
C10_8 C 0.29361(14) 0.4147(2) 0.93602(10)
C11_8 C 0.06059(19) 0.2978(3) 0.97789(11)
H4_8 H 0.0170 0.3510 0.9932
H5_8 H 0.0262 0.2571 0.9456
C12_8 C 0.3889(2) 0.4650(3) 0.95223(13)
H7_8 H 0.4383 0.4143 0.9627
H8_6 H 0.4110 0.5044 0.9150
H9_6 H 0.3795 0.5091 0.9896
N2_8 N 0.25956(12) 0.39727(16) 0.87699(8)
N3_8 N 0.22744(12) 0.38232(14) 0.98193(7)
H8_7 H 0.0890 0.0044 0.9150
H9_7 H 0.1205 0.0091 0.9896
H8_8 H 0.9110 0.9956 0.0850
H9_8 H 0.8795 0.9909 0.0104
loop_
_geom_bond_atom_site_label_1
_geom_bond_atom_site_label_2
_geom_bond_site_symmetry_1
_geom_bond_site_symmetry_2
C1 C2 1_555 1_555
C2 C3 1_555 1_555
C3 H1 1_555 1_555
C4 C3 1_555 1_555
C5 C4 1_555 1_555
H2 C5 1_555 1_555
C6 C5 1_555 1_555
C7 C2 1_555 1_555
H3 C7 1_555 1_555
C8 C4 1_555 1_555
C9 C11 1_555 1_555
C10 C12 1_555 1_555
C11 H4 1_555 1_555
H5 C11 1_555 1_555
H6 C11 1_555 1_555
C12 H7 1_555 1_555
H8 C12 1_555 1_555
H9 C12 1_555 1_555
N1 C9 1_555 1_555
N2 C10 1_555 1_555
N3 C6 1_555 1_555
O1 C1 1_555 1_555
O2 C1 1_555 1_555
O3 C8 1_555 1_555
O4 C8 1_555 1_555
Zn1 O1 1_555 1_555
N4 Zn1 1_555 1_555
O5 Zn1 1_555 1_555
O6 Zn1 1_555 1_555
O7 Zn1 1_555 1_555
Zn2 N1 1_555 1_555
Zn3 O2 1_555 1_555
Zn4 O4 1_555 1_555
C6 C7 1_555 1_555
C9 N3 1_555 1_555
C10 N3 1_555 1_555
N1 N2 1_555 1_555
O3_2 C8_2 1_555 1_555
O4_2 C8_2 1_555 1_555
Zn4_2 O4_2 1_555 1_555
Zn5_2 O3_2 1_555 1_555
C1_2 C2_2 1_555 1_555
C2_2 C3_2 1_555 1_555
C3_2 H1_2 1_555 1_555
C4_2 C3_2 1_555 1_555
C5_2 C4_2 1_555 1_555
H2_2 C5_2 1_555 1_555
C6_2 C5_2 1_555 1_555
C7_2 C2_2 1_555 1_555
H3_2 C7_2 1_555 1_555
O1_2 C1_2 1_555 1_555
O2_2 C1_2 1_555 1_555
Zn2 O2_2 1_555 1_555
C6_2 C7_2 1_555 1_555
C9_2 C11_2 1_555 1_555
C10_2 C12_2 1_555 1_555
C11_2 H4_2 1_555 1_555
H5_2 C11_2 1_555 1_555
C12_2 H7_2 1_555 1_555
N1_2 C9_2 1_555 1_555
N2_2 C10_2 1_555 1_555
Zn3 N1_2 1_555 1_555
C9_2 N3_2 1_555 1_555
C10_2 N3_2 1_555 1_555
N1_2 N2_2 1_555 1_555
N4_2 Zn1_2 1_555 1_555
O5_2 Zn1_2 1_555 1_555
O7_2 Zn1_2 1_555 1_555
O7_3 Zn2 1_555 1_555
O3_3 C8_3 1_555 1_555
O4_3 C8_3 1_555 1_555
Zn5_2 O4_3 1_555 1_555
Zn4_2 O3_3 1_555 1_555
C1_3 C2_3 1_555 1_555
C2_3 C3_3 1_555 1_555
C3_3 H1_3 1_555 1_555
C4_3 C3_3 1_555 1_555
C5_3 C4_3 1_555 1_555
H2_3 C5_3 1_555 1_555
C6_3 C5_3 1_555 1_555
C7_3 C2_3 1_555 1_555
H3_3 C7_3 1_555 1_555
C9_3 C11_3 1_555 1_555
C10_3 C12_3 1_555 1_555
C11_3 H4_3 1_555 1_555
H5_3 C11_3 1_555 1_555
H6_3 C11_3 1_555 1_555
C12_3 H7_3 1_555 1_555
N4 C9_3 1_555 1_555
N2_3 C10_3 1_555 1_555
N3_3 C6_3 1_555 1_555
O1_3 C1_3 1_555 1_555
O5_2 C1_3 1_555 1_555
C6_3 C7_3 1_555 1_555
C9_3 N3_3 1_555 1_555
C10_3 N3_3 1_555 1_555
N4 N2_3 1_555 1_555
C9_4 C11_4 1_555 1_555
C10_4 C12_4 1_555 1_555
C11_4 H4_4 1_555 1_555
H5_4 C11_4 1_555 1_555
C12_4 H7_4 1_555 1_555
H8_3 C12_4 1_555 1_555
H9_3 C12_4 1_555 1_555
N4_2 C9_4 1_555 1_555
N2_4 C10_4 1_555 1_555
C9_4 N3_4 1_555 1_555
C10_4 N3_4 1_555 1_555
N4_2 N2_4 1_555 1_555
C1_4 C2_4 1_555 1_555
C2_4 C3_4 1_555 1_555
C3_4 H1_4 1_555 1_555
C4_4 C3_4 1_555 1_555
C5_4 C4_4 1_555 1_555
H2_4 C5_4 1_555 1_555
C6_4 C5_4 1_555 1_555
C7_4 C2_4 1_555 1_555
H3_4 C7_4 1_555 1_555
C8_4 C4_4 1_555 1_555
O1_4 C1_4 1_555 1_555
O5 C1_4 1_555 1_555
O3_4 C8_4 1_555 1_555
O4_4 C8_4 1_555 1_555
Zn3 O1_4 1_555 1_555
O6_4 Zn3 1_555 1_555
O7_4 Zn3 1_555 1_555
Zn5 O4_4 1_555 1_555
C6_4 C7_4 1_555 1_555
C1_5 C2_5 1_555 1_555
C2_5 C3_5 1_555 1_555
C3_5 H1_5 1_555 1_555
C4_5 C3_5 1_555 1_555
C5_5 C4_5 1_555 1_555
H2_5 C5_5 1_555 1_555
C6_5 C5_5 1_555 1_555
C7_5 C2_5 1_555 1_555
H3_5 C7_5 1_555 1_555
C8_5 C4_5 1_555 1_555
C9_5 C11_5 1_555 1_555
C10_5 C12_5 1_555 1_555
C11_5 H4_5 1_555 1_555
H5_5 C11_5 1_555 1_555
H6_5 C11_5 1_555 1_555
C12_5 H7_5 1_555 1_555
H8_4 C12_5 1_555 1_555
H9_4 C12_5 1_555 1_555
N1_3 C9_5 1_555 1_555
N2_5 C10_5 1_555 1_555
N3_5 C6_5 1_555 1_555
O1_5 C1_5 1_555 1_555
O2_3 C1_5 1_555 1_555
O6_3 C8_5 1_555 1_555
O7_2 C8_5 1_555 1_555
Zn4_2 O1_5 1_555 1_555
N4_3 Zn4_2 1_555 1_555
O5_3 Zn4_2 1_555 1_555
Zn5 N1_3 1_555 1_555
Zn5_2 O2_3 1_555 1_555
C6_5 C7_5 1_555 1_555
C9_5 N3_5 1_555 1_555
C10_5 N3_5 1_555 1_555
N1_3 N2_5 1_555 1_555
N4_4 Zn4 1_555 1_555
O5_4 Zn4 1_555 1_555
C9_6 C11_6 1_555 1_555
C10_6 C12_6 1_555 1_555
C11_6 H4_6 1_555 1_555
H5_6 C11_6 1_555 1_555
C12_6 H7_6 1_555 1_555
N1_4 C9_6 1_555 1_555
N2_6 C10_6 1_555 1_555
Zn5_2 N1_4 1_555 1_555
C9_6 N3_6 1_555 1_555
C10_6 N3_6 1_555 1_555
N1_4 N2_6 1_555 1_555
C1_6 C2_6 1_555 1_555
C2_6 C3_6 1_555 1_555
C3_6 H1_6 1_555 1_555
C4_6 C3_6 1_555 1_555
C5_6 C4_6 1_555 1_555
H2_6 C5_6 1_555 1_555
C6_6 C5_6 1_555 1_555
C7_6 C2_6 1_555 1_555
H3_6 C7_6 1_555 1_555
O1_6 C1_6 1_555 1_555
O2_4 C1_6 1_555 1_555
Zn5 O2_4 1_555 1_555
C6_6 C7_6 1_555 1_555
O6_4 C8_6 1_555 1_555
O7 C8_6 1_555 1_555
C1_7 C2_7 1_555 1_555
C2_7 C3_7 1_555 1_555
C3_7 H1_7 1_555 1_555
C4_7 C3_7 1_555 1_555
C5_7 C4_7 1_555 1_555
H2_7 C5_7 1_555 1_555
C6_7 C5_7 1_555 1_555
C7_7 C2_7 1_555 1_555
H3_7 C7_7 1_555 1_555
C9_7 C11_7 1_555 1_555
C10_7 C12_7 1_555 1_555
C11_7 H4_7 1_555 1_555
H5_7 C11_7 1_555 1_555
H6_7 C11_7 1_555 1_555
C12_7 H7_7 1_555 1_555
N4_3 C9_7 1_555 1_555
N2_7 C10_7 1_555 1_555
N3_7 C6_7 1_555 1_555
O1_7 C1_7 1_555 1_555
O5_4 C1_7 1_555 1_555
C6_7 C7_7 1_555 1_555
C9_7 N3_7 1_555 1_555
C10_7 N3_7 1_555 1_555
N4_3 N2_7 1_555 1_555
O6 C8_7 1_555 1_555
O7_4 C8_7 1_555 1_555
C1_8 C2_8 1_555 1_555
C2_8 C3_8 1_555 1_555
C3_8 H1_8 1_555 1_555
C4_8 C3_8 1_555 1_555
C5_8 C4_8 1_555 1_555
H2_8 C5_8 1_555 1_555
C6_8 C5_8 1_555 1_555
C7_8 C2_8 1_555 1_555
H3_8 C7_8 1_555 1_555
C8_8 C4_8 1_555 1_555
O1_8 C1_8 1_555 1_555
O5_3 C1_8 1_555 1_555
O6_2 C8_8 1_555 1_555
O7_3 C8_8 1_555 1_555
Zn5_2 O1_8 1_555 1_555
C6_8 C7_8 1_555 1_555
C9_8 C11_8 1_555 1_555
C10_8 C12_8 1_555 1_555
C11_8 H4_8 1_555 1_555
H5_8 C11_8 1_555 1_555
C12_8 H7_8 1_555 1_555
H8_6 C12_8 1_555 1_555
H9_6 C12_8 1_555 1_555
N4_4 C9_8 1_555 1_555
N2_8 C10_8 1_555 1_555
C9_8 N3_8 1_555 1_555
C10_8 N3_8 1_555 1_555
N4_4 N2_8 1_555 1_555

#END
