
###############################################################################
#
# This file contains modified crystal structure data generated from the
# MOF subset of the Cambridge Structural Database (CSD) v543 
# hosted by the Cambridge Crystallographic Data Centre (CCDC).
#
# This work is licensed under the Creative Commons
# Attribution-NonCommercial-ShareAlike 4.0 International License.
# To view a copy of this license, visit
# http://creativecommons.org/licenses/by-nc-sa/4.0/
# or send a letter to
# Creative Commons, PO Box 1866, Mountain View, CA 94042, USA.
#
# CIF created using the CSD Python API on 29 September 2022
# The structure has been converted into the P1 space group
# The structure has a 3D framework
# The original CSD entry UKAQED01 is in the triclinic crystal system
# The framework has been calculated to contain at least 10.0% void space
# The void calculation uses a probe of radius 1.32A, grid spacing 0.4
#
###############################################################################

data_UKAQED01
_chemical_formula_moiety         '(C48 H38 Eu2 N2 O16 P2)n'
_symmetry_cell_setting           triclinic
_symmetry_space_group_name_H-M   'P 1'
_symmetry_Int_Tables_number      1
_space_group_name_Hall           'P 1'
loop_
_symmetry_equiv_pos_site_id
_symmetry_equiv_pos_as_xyz
1 x,y,z
_cell_length_a                   10.724(2)
_cell_length_b                   11.831(2)
_cell_length_c                   14.593(3)
_cell_angle_alpha                73.66(3)
_cell_angle_beta                 71.98(3)
_cell_angle_gamma                66.90(3)
_cell_volume                     1592.2
loop_
_atom_site_label
_atom_site_type_symbol
_atom_site_fract_x
_atom_site_fract_y
_atom_site_fract_z
Eu6 Eu 0.01248(2) 0.44880(2) 0.37224(2)
C18 C 0.0822(7) 0.0874(6) 0.7080(4)
H11 H 0.111799 0.136049 0.733227
O4 O 0.1681(4) 0.4587(4) 0.2034(3)
C12 C 0.0904(5) 0.5798(5) 0.0561(3)
C13 C 0.0675(5) 0.5350(5) 0.1649(4)
H8 H 0.249829 0.423167 0.016886
C15 C 0.0064(6) 0.6967(6) 0.0195(4)
P1 P 0.14279(13) 0.71939(12) 0.72613(8)
O2 O 0.7643(4) 0.5611(4) 0.4093(3)
C1 C 0.1291(5) 0.6671(5) 0.8552(3)
C2 C 0.4876(5) 0.6392(5) 0.5094(3)
H1 H 0.507154 0.632054 0.442809
C3 C 0.0787(5) 0.8868(5) 0.7025(3)
C4 C 0.3226(5) 0.6776(5) 0.6627(3)
C6 C 0.3528(5) 0.6670(5) 0.5641(3)
H3 H 0.279625 0.679168 0.534909
C7 C 0.5953(5) 0.6214(5) 0.5518(3)
C8 C 0.0259(6) 0.7414(6) 0.9199(4)
C9 C 0.5677(6) 0.6310(6) 0.6494(4)
H5 H 0.641867 0.616499 0.678444
C10 C 0.4300(6) 0.6620(6) 0.7050(4)
H6 H 0.410057 0.672395 0.770857
C11 C 0.1253(7) 0.9589(6) 0.7371(4)
H7 H 0.186571 0.919364 0.780542
C14 C 0.1926(6) 0.5039(6) 0.9921(4)
O6 O 0.8400(4) 0.5749(4) 0.5284(3)
C20 C 0.7414(5) 0.5853(5) 0.4931(4)
O7 O 0.0640(4) 0.6709(4) 0.6868(3)
C21 C 0.2096(6) 0.5478(6) 0.8919(4)
H12 H 0.277192 0.495727 0.847892
Eu3 Eu 0.98752(2) 0.55120(2) 0.62776(2)
O9 O 0.0533(4) 0.4245(4) 0.7838(3)
O10 O 0.2357(4) 0.4389(4) 0.5907(3)
O11 O 0.0678(4) 0.6809(4) 0.4814(3)
O15 O 0.1600(4) 0.4251(4) 0.4716(3)
O3 O 0.9322(4) 0.3191(4) 0.5186(3)
O5 O 0.9663(5) 0.3508(4) 0.6529(3)
C16 C 0.9958(5) 0.1458(5) 0.6420(4)
C17 C 0.9468(6) 0.0748(5) 0.6090(4)
H10 H 0.885209 0.114675 0.565731
C19 C 0.9611(5) 0.2836(5) 0.6017(3)
H14 H 0.716601 0.053640 0.520761
H15 H 0.585804 0.039024 0.500475
C24 C 0.503(2) 0.028(2) 0.669(2)
H17 H 0.425630 0.001044 0.673547
H18 H 0.492635 0.109619 0.626318
H19 H 0.503437 0.033859 0.734913
O1 O 0.9467(4) 0.5755(4) 0.2162(3)
H9 H 0.934611 0.746705 0.063315
C5 C 0.9878(6) 0.9456(6) 0.6392(4)
H2 H 0.954098 0.897442 0.616751
H4 H 0.969269 0.822495 0.895342
O8 O 0.8046(5) 0.7579(5) 0.6312(4)
C22 C 0.7082(13) 0.8248(10) 0.6738(10)
H13 H 0.680509 0.799530 0.742612
N1 N 0.6310(10) 0.9389(11) 0.6306(10)
C23 C 0.6698(18) 0.995(2) 0.5266(15)
H16 H 0.732677 0.928563 0.489397
O12 O 0.8319(4) 0.5413(4) 0.7966(3)
C5_2 C 0.0122(6) 0.0544(6) 0.3608(4)
H2_2 H 0.045902 0.102558 0.383249
H4_2 H 0.030731 0.177505 0.104658
O8_2 O 0.1954(5) 0.2421(5) 0.3688(4)
C22_2 C 0.2918(13) 0.1752(10) 0.3262(10)
H13_2 H 0.319491 0.200470 0.257388
N1_2 N 0.3690(10) 0.0611(11) 0.3694(10)
C23_2 C 0.3302(18) 0.005(2) 0.4734(15)
H16_2 H 0.267323 0.071437 0.510603
O13 O 0.0337(5) 0.6492(4) 0.3471(3)
H9_2 H 0.065389 0.253295 0.936685
C16_2 C 0.0042(5) 0.8542(5) 0.3580(4)
C17_2 C 0.0532(6) 0.9252(5) 0.3910(4)
H10_2 H 0.114791 0.885325 0.434269
C19_2 C 0.0389(5) 0.7164(5) 0.3983(3)
H14_2 H 0.283399 0.946360 0.479239
H15_2 H 0.414196 0.960976 0.499525
C24_2 C 0.497(2) 0.972(2) 0.331(2)
H17_2 H 0.574370 0.998956 0.326453
H18_2 H 0.507365 0.890381 0.373682
H19_2 H 0.496563 0.966141 0.265087
P1_2 P 0.85721(13) 0.28061(12) 0.27387(8)
C1_2 C 0.8709(5) 0.3329(5) 0.1448(3)
C2_2 C 0.5124(5) 0.3608(5) 0.4906(3)
H1_2 H 0.492846 0.367946 0.557191
C3_2 C 0.9213(5) 0.1132(5) 0.2975(3)
C4_2 C 0.6774(5) 0.3224(5) 0.3373(3)
C6_2 C 0.6472(5) 0.3330(5) 0.4359(3)
H3_2 H 0.720375 0.320832 0.465091
C7_2 C 0.4047(5) 0.3786(5) 0.4482(3)
C8_2 C 0.9741(6) 0.2586(6) 0.0801(4)
C9_2 C 0.4323(6) 0.3690(6) 0.3506(4)
H5_2 H 0.358133 0.383501 0.321556
C10_2 C 0.5700(6) 0.3380(6) 0.2950(4)
H6_2 H 0.589943 0.327605 0.229143
C11_2 C 0.8747(7) 0.0411(6) 0.2629(4)
H7_2 H 0.813429 0.080636 0.219458
C14_2 C 0.8074(6) 0.4961(6) 0.0079(4)
C20_2 C 0.2586(5) 0.4147(5) 0.5069(4)
O7_2 O 0.9360(4) 0.3291(4) 0.3132(3)
C21_2 C 0.7904(6) 0.4522(6) 0.1081(4)
H12_2 H 0.722808 0.504273 0.152108
C12_2 C 0.9096(5) 0.4202(5) 0.9439(3)
C13_2 C 0.9325(5) 0.4650(5) 0.8351(4)
H8_2 H 0.750171 0.576833 0.983114
C15_2 C 0.9936(6) 0.3033(6) 0.9805(4)
C18_2 C 0.9178(7) 0.9126(6) 0.2920(4)
H11_2 H 0.888201 0.863951 0.266773
loop_
_geom_bond_atom_site_label_1
_geom_bond_atom_site_label_2
_geom_bond_site_symmetry_1
_geom_bond_site_symmetry_2
H11 C18 1_555 1_555
O4 C13 1_555 1_555
C12 C13 1_555 1_555
O4 Eu6 1_555 1_555
C12 C15 1_555 1_555
P1 C1 1_555 1_555
O2 C20 1_555 1_555
C1 C8 1_555 1_555
C2 H1 1_555 1_555
C3 P1 1_555 1_555
C4 P1 1_555 1_555
C6 C2 1_555 1_555
H3 C6 1_555 1_555
C7 C2 1_555 1_555
C9 C7 1_555 1_555
H5 C9 1_555 1_555
C10 C4 1_555 1_555
H6 C10 1_555 1_555
C11 C3 1_555 1_555
H7 C11 1_555 1_555
O6 C20 1_555 1_555
C20 C7 1_555 1_555
O7 P1 1_555 1_555
C21 C1 1_555 1_555
H12 C21 1_555 1_555
Eu3 O6 1_555 1_555
C4 C6 1_555 1_555
C9 C10 1_555 1_555
C14 C21 1_555 1_555
O3 C19 1_555 1_555
O5 C19 1_555 1_555
C16 C17 1_555 1_555
H10 C17 1_555 1_555
C19 C16 1_555 1_555
H17 C24 1_555 1_555
H18 C24 1_555 1_555
H19 C24 1_555 1_555
Eu3 O5 1_555 1_555
H2 C5 1_555 1_555
O8 Eu3 1_555 1_555
C22 O8 1_555 1_555
H13 C22 1_555 1_555
N1 C22 1_555 1_555
C23 N1 1_555 1_555
H16 C23 1_555 1_555
O12 Eu3 1_555 1_555
H2_2 C5_2 1_555 1_555
O8_2 Eu6 1_555 1_555
C22_2 O8_2 1_555 1_555
H13_2 C22_2 1_555 1_555
N1_2 C22_2 1_555 1_555
C23_2 N1_2 1_555 1_555
H16_2 C23_2 1_555 1_555
O13 Eu6 1_555 1_555
O15 Eu6 1_555 1_555
O11 C19_2 1_555 1_555
O13 C19_2 1_555 1_555
C16_2 C17_2 1_555 1_555
H10_2 C17_2 1_555 1_555
C19_2 C16_2 1_555 1_555
H17_2 C24_2 1_555 1_555
H18_2 C24_2 1_555 1_555
H19_2 C24_2 1_555 1_555
P1_2 C1_2 1_555 1_555
O10 C20_2 1_555 1_555
C1_2 C8_2 1_555 1_555
C2_2 H1_2 1_555 1_555
C3_2 P1_2 1_555 1_555
C4_2 P1_2 1_555 1_555
C6_2 C2_2 1_555 1_555
H3_2 C6_2 1_555 1_555
C7_2 C2_2 1_555 1_555
C9_2 C7_2 1_555 1_555
H5_2 C9_2 1_555 1_555
C10_2 C4_2 1_555 1_555
H6_2 C10_2 1_555 1_555
C11_2 C3_2 1_555 1_555
H7_2 C11_2 1_555 1_555
O15 C20_2 1_555 1_555
C20_2 C7_2 1_555 1_555
O7_2 P1_2 1_555 1_555
C21_2 C1_2 1_555 1_555
H12_2 C21_2 1_555 1_555
C4_2 C6_2 1_555 1_555
C9_2 C10_2 1_555 1_555
C14_2 C21_2 1_555 1_555
O12 C13_2 1_555 1_555
C12_2 C13_2 1_555 1_555
C12_2 C15_2 1_555 1_555
H11_2 C18_2 1_555 1_555

#END
