
###############################################################################
#
# This file contains modified crystal structure data generated from the
# MOF subset of the Cambridge Structural Database (CSD) v543 
# hosted by the Cambridge Crystallographic Data Centre (CCDC).
#
# This work is licensed under the Creative Commons
# Attribution-NonCommercial-ShareAlike 4.0 International License.
# To view a copy of this license, visit
# http://creativecommons.org/licenses/by-nc-sa/4.0/
# or send a letter to
# Creative Commons, PO Box 1866, Mountain View, CA 94042, USA.
#
# CIF created using the CSD Python API on 29 September 2022
# The structure has been converted into the P1 space group
# The structure has a 3D framework
# The original CSD entry UKUBUY is in the tetragonal crystal system
# The framework has been calculated to contain at least 10.0% void space
# The void calculation uses a probe of radius 1.32A, grid spacing 0.4
#
###############################################################################

data_UKUBUY
_chemical_formula_moiety         '(C100 H104 Fe4 N12 O16 S8)n'
_symmetry_cell_setting           triclinic
_symmetry_space_group_name_H-M   'P 1'
_symmetry_Int_Tables_number      1
_space_group_name_Hall           'P 1'
loop_
_symmetry_equiv_pos_site_id
_symmetry_equiv_pos_as_xyz
1 x,y,z
_cell_length_a                   12.1470(4)
_cell_length_b                   12.1470(4)
_cell_length_c                   24.744(2)
_cell_angle_alpha                90
_cell_angle_beta                 90
_cell_angle_gamma                90
_cell_volume                     3650.97
loop_
_atom_site_label
_atom_site_type_symbol
_atom_site_fract_x
_atom_site_fract_y
_atom_site_fract_z
C14 C 0.1419(3) 0.0571(3) 0.14788(16)
H14 H 0.0844 0.0690 0.1237
C17 C 0.3040(3) 0.0246(3) 0.22028(15)
H16 H 0.3604 0.0174 0.2455
C18 C 0.3092(3) 0.1048(3) 0.18080(15)
H17 H 0.3713 0.1494 0.1797
Fe2 Fe 0.2500 0.2500 0.07888(3)
N3 N 0.2304(2) 0.1222(2) 0.14410(12)
C1 C 0.3581(3) 0.4429(3) 0.14788(16)
H1 H 0.4156 0.4310 0.1237
C2 C 0.3697(3) 0.5257(3) 0.18486(15)
H2 H 0.4329 0.5690 0.1854
C3 C 0.2852(3) 0.5440(3) 0.22170(14)
C4 C 0.1960(3) 0.4754(3) 0.22028(15)
H3 H 0.1396 0.4826 0.2455
C5 C 0.1908(3) 0.3952(3) 0.18080(15)
H4 H 0.1287 0.3506 0.1797
C6 C 0.2119(3) 0.6522(3) 0.29388(14)
H5 H 0.1974 0.5890 0.3168
H6 H 0.1451 0.6704 0.2744
C7 C 0.2500 0.7500 0.3278(2)
C8 C 0.1544(3) 0.7890(3) 0.36378(15)
H7 H 0.1812 0.8410 0.3905
H8 H 0.0992 0.8256 0.3419
C10 C 0.0050(3) 0.8147(3) 0.45000(16)
H10 H 0.0365 0.8789 0.4366
C11 C 0.0336(3) 0.7145(3) 0.42923(14)
N1 N 0.2696(2) 0.3778(2) 0.14410(12)
O1 O 0.1076(2) 0.6966(2) 0.38991(11)
O2 O 0.2996(2) 0.6285(2) 0.25690(10)
S1 S 0.44972(7) 0.22204(8) 0.08064(4)
H13 H 0.4693 0.1253 0.0829
C15 C 0.1303(3) 0.9743(3) 0.18486(15)
H15 H 0.0671 0.9310 0.1854
C16 C 0.2148(3) 0.9560(3) 0.22170(14)
C19 C 0.2881(3) 0.8478(3) 0.29388(14)
H18 H 0.3026 0.9110 0.3168
H19 H 0.3549 0.8296 0.2744
C20 C 0.3456(3) 0.7110(3) 0.36378(15)
H20 H 0.3188 0.6590 0.3905
H21 H 0.4008 0.6744 0.3419
C21 C 0.5718(3) 0.6808(3) 0.49144(16)
H22 H 0.5896 0.6118 0.5052
C22 C 0.4950(3) 0.6853(3) 0.45000(16)
H23 H 0.4635 0.6211 0.4366
C23 C 0.4664(3) 0.7855(3) 0.42923(14)
C24 C 0.5207(3) 0.8747(3) 0.44959(18)
H24 H 0.5074 0.9443 0.4354
C25 C 0.5958(3) 0.8618(3) 0.49141(17)
H25 H 0.6301 0.9244 0.5051
Fe4 Fe 0.7500 0.7500 0.57888(3)
N5 N 0.6212(3) 0.7661(2) 0.51267(12)
N6 N 0.2661(2) 0.3788(3) 0.01267(12)
N7 N 0.2339(2) 0.1212(3) 0.01267(12)
O3 O 0.3924(2) 0.8034(2) 0.38991(11)
O4 O 0.2004(2) 0.8715(2) 0.25690(10)
S2 S 0.05028(7) 0.27796(8) 0.08064(4)
H26 H 0.0307 0.3747 0.0829
C9 C 0.9282(3) 0.8192(3) 0.49144(16)
H9 H 0.9104 0.8882 0.5052
C12 C 0.9793(3) 0.6253(3) 0.44959(18)
H11 H 0.9926 0.5557 0.4354
C13 C 0.9042(3) 0.6382(3) 0.49141(17)
H12 H 0.8699 0.5756 0.5051
N2 N 0.8788(3) 0.7339(2) 0.51267(12)
H22_2 H 0.3882 0.0896 0.0052
H25_2 H 0.0756 0.1301 0.0051
H9_2 H 0.1118 0.4104 0.0052
H12_2 H 0.4244 0.3699 0.0051
C1_2 C 0.5571(3) 0.8581(3) 0.64788(16)
H1_2 H 0.5690 0.9156 0.6237
C2_2 C 0.4743(3) 0.8697(3) 0.68486(15)
H2_2 H 0.4310 0.9329 0.6854
C3_2 C 0.4560(3) 0.7852(3) 0.72170(14)
C4_2 C 0.5246(3) 0.6960(3) 0.72028(15)
H3_2 H 0.5174 0.6396 0.7455
C5_2 C 0.6048(3) 0.6908(3) 0.68080(15)
H4_2 H 0.6494 0.6287 0.6797
C6_2 C 0.3478(3) 0.7119(3) 0.79388(14)
H5_2 H 0.4110 0.6974 0.8168
H6_2 H 0.3296 0.6451 0.7744
C7_2 C 0.2500 0.7500 0.8278(2)
C8_2 C 0.2110(3) 0.6544(3) 0.86378(15)
H7_2 H 0.1590 0.6812 0.8905
H8_2 H 0.1744 0.5992 0.8419
C9_2 C 0.1808(3) 0.4282(3) 0.99144(16)
C10_2 C 0.1853(3) 0.5050(3) 0.95000(16)
H10_2 H 0.1211 0.5365 0.9366
C11_2 C 0.2855(3) 0.5336(3) 0.92923(14)
C12_2 C 0.3747(3) 0.4793(3) 0.94959(18)
H11_2 H 0.4443 0.4926 0.9354
C13_2 C 0.3618(3) 0.4042(3) 0.99141(17)
N1_2 N 0.6222(2) 0.7696(2) 0.64410(12)
O1_2 O 0.3034(2) 0.6076(2) 0.88991(11)
O2_2 O 0.3715(2) 0.7996(2) 0.75690(10)
S1_2 S 0.77796(8) 0.94972(7) 0.58064(4)
H13_2 H 0.8747 0.9693 0.5829
C15_2 C 0.0257(3) 0.6303(3) 0.68486(15)
H15_2 H 0.0690 0.5671 0.6854
C16_2 C 0.0440(3) 0.7148(3) 0.72170(14)
C19_2 C 0.1522(3) 0.7881(3) 0.79388(14)
H18_2 H 0.0890 0.8026 0.8168
H19_2 H 0.1704 0.8549 0.7744
C20_2 C 0.2890(3) 0.8456(3) 0.86378(15)
H20_2 H 0.3410 0.8188 0.8905
H21_2 H 0.3256 0.9008 0.8419
C22_2 C 0.3147(3) 0.9950(3) 0.95000(16)
H23_2 H 0.3789 0.9635 0.9366
C23_2 C 0.2145(3) 0.9664(3) 0.92923(14)
N4 N 0.8778(2) 0.7304(2) 0.64410(12)
O3_2 O 0.1966(2) 0.8924(2) 0.88991(11)
O4_2 O 0.1285(2) 0.7004(2) 0.75690(10)
S2_2 S 0.72204(8) 0.55028(7) 0.58064(4)
H26_2 H 0.6253 0.5307 0.5829
C14_2 C 0.9429(3) 0.6419(3) 0.64788(16)
H14_2 H 0.9310 0.5844 0.6237
C17_2 C 0.9754(3) 0.8040(3) 0.72028(15)
H16_2 H 0.9826 0.8604 0.7455
C18_2 C 0.8952(3) 0.8092(3) 0.68080(15)
H17_2 H 0.8506 0.8713 0.6797
C21_2 C 0.3192(3) 0.0718(3) 0.99144(16)
C24_2 C 0.1253(3) 0.0207(3) 0.94959(18)
H24_2 H 0.0557 0.0074 0.9354
C25_2 C 0.1382(3) 0.0958(3) 0.99141(17)
C9_3 C 0.0718(3) 0.1808(3) 0.50856(16)
H9_3 H 0.0896 0.1118 0.4948
C12_3 C 0.0207(3) 0.3747(3) 0.55041(18)
H11_3 H 0.0074 0.4443 0.5646
C13_3 C 0.0958(3) 0.3618(3) 0.50859(17)
H12_3 H 0.1301 0.4244 0.4949
N2_2 N 0.1212(3) 0.2661(2) 0.48733(12)
Fe3 Fe 0.2500 0.2500 0.42112(3)
C1_3 C 0.6419(3) 0.5571(3) 0.85212(16)
H1_3 H 0.5844 0.5690 0.8763
C2_3 C 0.6303(3) 0.4743(3) 0.81514(15)
H2_3 H 0.5671 0.4310 0.8146
C3_3 C 0.7148(3) 0.4560(3) 0.77830(14)
C4_3 C 0.8040(3) 0.5246(3) 0.77972(15)
H3_3 H 0.8604 0.5174 0.7545
C5_3 C 0.8092(3) 0.6048(3) 0.81920(15)
H4_3 H 0.8713 0.6494 0.8203
C6_3 C 0.7881(3) 0.3478(3) 0.70612(14)
H5_3 H 0.8026 0.4110 0.6832
H6_3 H 0.8549 0.3296 0.7256
C7_3 C 0.7500 0.2500 0.6722(2)
C8_3 C 0.8456(3) 0.2110(3) 0.63622(15)
H7_3 H 0.8188 0.1590 0.6095
H8_3 H 0.9008 0.1744 0.6581
C10_3 C 0.9950(3) 0.1853(3) 0.55000(16)
H10_3 H 0.9635 0.1211 0.5634
C11_3 C 0.9664(3) 0.2855(3) 0.57077(14)
Fe1 Fe 0.7500 0.7500 0.92112(3)
N1_3 N 0.7304(2) 0.6222(2) 0.85590(12)
O1_3 O 0.8924(2) 0.3034(2) 0.61009(11)
O2_3 O 0.7004(2) 0.3715(2) 0.74310(10)
S1_3 S 0.55028(7) 0.77796(8) 0.91936(4)
H13_3 H 0.5307 0.8747 0.9171
C15_3 C 0.8697(3) 0.0257(3) 0.81514(15)
H15_3 H 0.9329 0.0690 0.8146
C16_3 C 0.7852(3) 0.0440(3) 0.77830(14)
C19_3 C 0.7119(3) 0.1522(3) 0.70612(14)
H18_3 H 0.6974 0.0890 0.6832
H19_3 H 0.6451 0.1704 0.7256
C20_3 C 0.6544(3) 0.2890(3) 0.63622(15)
H20_3 H 0.6812 0.3410 0.6095
H21_3 H 0.5992 0.3256 0.6581
C21_3 C 0.4282(3) 0.3192(3) 0.50856(16)
H22_3 H 0.4104 0.3882 0.4948
C22_3 C 0.5050(3) 0.3147(3) 0.55000(16)
H23_3 H 0.5365 0.3789 0.5634
C23_3 C 0.5336(3) 0.2145(3) 0.57077(14)
C24_3 C 0.4793(3) 0.1253(3) 0.55041(18)
H24_3 H 0.4926 0.0557 0.5646
C25_3 C 0.4042(3) 0.1382(3) 0.50859(17)
H25_3 H 0.3699 0.0756 0.4949
N4_2 N 0.7696(2) 0.8778(2) 0.85590(12)
N5_2 N 0.3788(3) 0.2339(2) 0.48733(12)
N6_2 N 0.7339(2) 0.6212(3) 0.98733(12)
N7_2 N 0.7661(2) 0.8788(3) 0.98733(12)
O3_3 O 0.6076(2) 0.1966(2) 0.61009(11)
O4_3 O 0.7996(2) 0.1285(2) 0.74310(10)
S2_3 S 0.94972(7) 0.72204(8) 0.91936(4)
H26_3 H 0.9693 0.6253 0.9171
C14_3 C 0.8581(3) 0.9429(3) 0.85212(16)
H14_3 H 0.9156 0.9310 0.8763
C17_3 C 0.6960(3) 0.9754(3) 0.77972(15)
H16_3 H 0.6396 0.9826 0.7545
C18_3 C 0.6908(3) 0.8952(3) 0.81920(15)
H17_3 H 0.6287 0.8506 0.8203
C14_4 C 0.0571(3) 0.3581(3) 0.35212(16)
H14_4 H 0.0690 0.4156 0.3763
C17_4 C 0.0246(3) 0.1960(3) 0.27972(15)
H16_4 H 0.0174 0.1396 0.2545
C18_4 C 0.1048(3) 0.1908(3) 0.31920(15)
H17_4 H 0.1494 0.1287 0.3203
N3_2 N 0.1222(2) 0.2696(2) 0.35590(12)
C1_4 C 0.4429(3) 0.1419(3) 0.35212(16)
H1_4 H 0.4310 0.0844 0.3763
C2_4 C 0.5257(3) 0.1303(3) 0.31514(15)
H2_4 H 0.5690 0.0671 0.3146
C3_4 C 0.5440(3) 0.2148(3) 0.27830(14)
C4_4 C 0.4754(3) 0.3040(3) 0.27972(15)
H3_4 H 0.4826 0.3604 0.2545
C5_4 C 0.3952(3) 0.3092(3) 0.31920(15)
H4_4 H 0.3506 0.3713 0.3203
C6_4 C 0.6522(3) 0.2881(3) 0.20612(14)
H5_4 H 0.5890 0.3026 0.1832
H6_4 H 0.6704 0.3549 0.2256
C7_4 C 0.7500 0.2500 0.1722(2)
C8_4 C 0.7890(3) 0.3456(3) 0.13622(15)
H7_4 H 0.8410 0.3188 0.1095
H8_4 H 0.8256 0.4008 0.1581
C9_4 C 0.8192(3) 0.5718(3) 0.00856(16)
C10_4 C 0.8147(3) 0.4950(3) 0.05000(16)
H10_4 H 0.8789 0.4635 0.0634
C11_4 C 0.7145(3) 0.4664(3) 0.07077(14)
C12_4 C 0.6253(3) 0.5207(3) 0.05041(18)
H11_4 H 0.5557 0.5074 0.0646
C13_4 C 0.6382(3) 0.5958(3) 0.00859(17)
N1_4 N 0.3778(2) 0.2304(2) 0.35590(12)
O1_4 O 0.6966(2) 0.3924(2) 0.11009(11)
O2_4 O 0.6285(2) 0.2004(2) 0.24310(10)
S1_4 S 0.22204(8) 0.05028(7) 0.41936(4)
H13_4 H 0.1253 0.0307 0.4171
C15_4 C 0.9743(3) 0.3697(3) 0.31514(15)
H15_4 H 0.9310 0.4329 0.3146
C16_4 C 0.9560(3) 0.2852(3) 0.27830(14)
C19_4 C 0.8478(3) 0.2119(3) 0.20612(14)
H18_4 H 0.9110 0.1974 0.1832
H19_4 H 0.8296 0.1451 0.2256
C20_4 C 0.7110(3) 0.1544(3) 0.13622(15)
H20_4 H 0.6590 0.1812 0.1095
H21_4 H 0.6744 0.0992 0.1581
C22_4 C 0.6853(3) 0.0050(3) 0.05000(16)
H23_4 H 0.6211 0.0365 0.0634
C23_4 C 0.7855(3) 0.0336(3) 0.07077(14)
O3_4 O 0.8034(2) 0.1076(2) 0.11009(11)
O4_4 O 0.8715(2) 0.2996(2) 0.24310(10)
S2_4 S 0.27796(8) 0.44972(7) 0.41936(4)
H26_4 H 0.3747 0.4693 0.4171
H9_4 H 0.8882 0.5896 0.9948
H12_4 H 0.5756 0.6301 0.9949
H22_4 H 0.6118 0.9104 0.9948
H25_4 H 0.9244 0.8699 0.9949
C21_4 C 0.6808(3) 0.9282(3) 0.00856(16)
C24_4 C 0.8747(3) 0.9793(3) 0.05041(18)
H24_4 H 0.9443 0.9926 0.0646
C25_4 C 0.8618(3) 0.9042(3) 0.00859(17)
loop_
_geom_bond_atom_site_label_1
_geom_bond_atom_site_label_2
_geom_bond_site_symmetry_1
_geom_bond_site_symmetry_2
C14 H14 1_555 1_555
H16 C17 1_555 1_555
C18 C17 1_555 1_555
H17 C18 1_555 1_555
Fe2 N3 1_555 1_555
N3 C14 1_555 1_555
C18 N3 1_555 1_555
C1 H1 1_555 1_555
C2 C1 1_555 1_555
H2 C2 1_555 1_555
C3 C2 1_555 1_555
C4 C3 1_555 1_555
H3 C4 1_555 1_555
C5 C4 1_555 1_555
H4 C5 1_555 1_555
C6 H5 1_555 1_555
H6 C6 1_555 1_555
C7 C6 1_555 1_555
C8 C7 1_555 1_555
H7 C8 1_555 1_555
H8 C8 1_555 1_555
H10 C10 1_555 1_555
C11 C10 1_555 1_555
Fe2 N1 1_555 1_555
N1 C1 1_555 1_555
O1 C8 1_555 1_555
O2 C3 1_555 1_555
S1 Fe2 1_555 1_555
H13 S1 1_555 1_555
H15 C15 1_555 1_555
C16 C15 1_555 1_555
C19 C7 1_555 1_555
H18 C19 1_555 1_555
H19 C19 1_555 1_555
C20 C7 1_555 1_555
H20 C20 1_555 1_555
H21 C20 1_555 1_555
C21 H22 1_555 1_555
C22 C21 1_555 1_555
H23 C22 1_555 1_555
C23 C22 1_555 1_555
C24 C23 1_555 1_555
H24 C24 1_555 1_555
C25 C24 1_555 1_555
H25 C25 1_555 1_555
Fe4 N5 1_555 1_555
N5 C21 1_555 1_555
N6 Fe2 1_555 1_555
N7 Fe2 1_555 1_555
O3 C20 1_555 1_555
O4 C16 1_555 1_555
S2 Fe2 1_555 1_555
H26 S2 1_555 1_555
C5 N1 1_555 1_555
C6 O2 1_555 1_555
C11 O1 1_555 1_555
C19 O4 1_555 1_555
C23 O3 1_555 1_555
C25 N5 1_555 1_555
C9 H9 1_555 1_555
H11 C12 1_555 1_555
C13 C12 1_555 1_555
H12 C13 1_555 1_555
N2 C9 1_555 1_555
Fe4 N2 1_555 1_555
C13 N2 1_555 1_555
C1_2 H1_2 1_555 1_555
C2_2 C1_2 1_555 1_555
H2_2 C2_2 1_555 1_555
C3_2 C2_2 1_555 1_555
C4_2 C3_2 1_555 1_555
H3_2 C4_2 1_555 1_555
C5_2 C4_2 1_555 1_555
H4_2 C5_2 1_555 1_555
C6_2 H5_2 1_555 1_555
H6_2 C6_2 1_555 1_555
C7_2 C6_2 1_555 1_555
C8_2 C7_2 1_555 1_555
H7_2 C8_2 1_555 1_555
H8_2 C8_2 1_555 1_555
C10_2 C9_2 1_555 1_555
H10_2 C10_2 1_555 1_555
C11_2 C10_2 1_555 1_555
C12_2 C11_2 1_555 1_555
H11_2 C12_2 1_555 1_555
C13_2 C12_2 1_555 1_555
Fe4 N1_2 1_555 1_555
N1_2 C1_2 1_555 1_555
O1_2 C8_2 1_555 1_555
O2_2 C3_2 1_555 1_555
S1_2 Fe4 1_555 1_555
H13_2 S1_2 1_555 1_555
H15_2 C15_2 1_555 1_555
C16_2 C15_2 1_555 1_555
C19_2 C7_2 1_555 1_555
H18_2 C19_2 1_555 1_555
H19_2 C19_2 1_555 1_555
C20_2 C7_2 1_555 1_555
H20_2 C20_2 1_555 1_555
H21_2 C20_2 1_555 1_555
H23_2 C22_2 1_555 1_555
C23_2 C22_2 1_555 1_555
N4 Fe4 1_555 1_555
O3_2 C20_2 1_555 1_555
O4_2 C16_2 1_555 1_555
S2_2 Fe4 1_555 1_555
H26_2 S2_2 1_555 1_555
C5_2 N1_2 1_555 1_555
C6_2 O2_2 1_555 1_555
C11_2 O1_2 1_555 1_555
C19_2 O4_2 1_555 1_555
C23_2 O3_2 1_555 1_555
C14_2 H14_2 1_555 1_555
H16_2 C17_2 1_555 1_555
C18_2 C17_2 1_555 1_555
H17_2 C18_2 1_555 1_555
N4 C14_2 1_555 1_555
C18_2 N4 1_555 1_555
H24_2 C24_2 1_555 1_555
C25_2 C24_2 1_555 1_555
C9_3 H9_3 1_555 1_555
H11_3 C12_3 1_555 1_555
C13_3 C12_3 1_555 1_555
H12_3 C13_3 1_555 1_555
N2_2 C9_3 1_555 1_555
Fe3 N2_2 1_555 1_555
C13_3 N2_2 1_555 1_555
C1_3 H1_3 1_555 1_555
C2_3 C1_3 1_555 1_555
H2_3 C2_3 1_555 1_555
C3_3 C2_3 1_555 1_555
C4_3 C3_3 1_555 1_555
H3_3 C4_3 1_555 1_555
C5_3 C4_3 1_555 1_555
H4_3 C5_3 1_555 1_555
C6_3 H5_3 1_555 1_555
H6_3 C6_3 1_555 1_555
C7_3 C6_3 1_555 1_555
C8_3 C7_3 1_555 1_555
H7_3 C8_3 1_555 1_555
H8_3 C8_3 1_555 1_555
H10_3 C10_3 1_555 1_555
C11_3 C10_3 1_555 1_555
Fe1 N1_3 1_555 1_555
N1_3 C1_3 1_555 1_555
O1_3 C8_3 1_555 1_555
O2_3 C3_3 1_555 1_555
S1_3 Fe1 1_555 1_555
H13_3 S1_3 1_555 1_555
H15_3 C15_3 1_555 1_555
C16_3 C15_3 1_555 1_555
C19_3 C7_3 1_555 1_555
H18_3 C19_3 1_555 1_555
H19_3 C19_3 1_555 1_555
C20_3 C7_3 1_555 1_555
H20_3 C20_3 1_555 1_555
H21_3 C20_3 1_555 1_555
C21_3 H22_3 1_555 1_555
C22_3 C21_3 1_555 1_555
H23_3 C22_3 1_555 1_555
C23_3 C22_3 1_555 1_555
C24_3 C23_3 1_555 1_555
H24_3 C24_3 1_555 1_555
C25_3 C24_3 1_555 1_555
H25_3 C25_3 1_555 1_555
Fe3 N5_2 1_555 1_555
N4_2 Fe1 1_555 1_555
N5_2 C21_3 1_555 1_555
N6_2 Fe1 1_555 1_555
N7_2 Fe1 1_555 1_555
O3_3 C20_3 1_555 1_555
O4_3 C16_3 1_555 1_555
S2_3 Fe1 1_555 1_555
H26_3 S2_3 1_555 1_555
C5_3 N1_3 1_555 1_555
C6_3 O2_3 1_555 1_555
C11_3 O1_3 1_555 1_555
C19_3 O4_3 1_555 1_555
C23_3 O3_3 1_555 1_555
C25_3 N5_2 1_555 1_555
C14_3 H14_3 1_555 1_555
H16_3 C17_3 1_555 1_555
C18_3 C17_3 1_555 1_555
H17_3 C18_3 1_555 1_555
N4_2 C14_3 1_555 1_555
C18_3 N4_2 1_555 1_555
C14_4 H14_4 1_555 1_555
H16_4 C17_4 1_555 1_555
C18_4 C17_4 1_555 1_555
H17_4 C18_4 1_555 1_555
Fe3 N3_2 1_555 1_555
N3_2 C14_4 1_555 1_555
C18_4 N3_2 1_555 1_555
C1_4 H1_4 1_555 1_555
C2_4 C1_4 1_555 1_555
H2_4 C2_4 1_555 1_555
C3_4 C2_4 1_555 1_555
C4_4 C3_4 1_555 1_555
H3_4 C4_4 1_555 1_555
C5_4 C4_4 1_555 1_555
H4_4 C5_4 1_555 1_555
C6_4 H5_4 1_555 1_555
H6_4 C6_4 1_555 1_555
C7_4 C6_4 1_555 1_555
C8_4 C7_4 1_555 1_555
H7_4 C8_4 1_555 1_555
H8_4 C8_4 1_555 1_555
C10_4 C9_4 1_555 1_555
H10_4 C10_4 1_555 1_555
C11_4 C10_4 1_555 1_555
C12_4 C11_4 1_555 1_555
H11_4 C12_4 1_555 1_555
C13_4 C12_4 1_555 1_555
Fe3 N1_4 1_555 1_555
N1_4 C1_4 1_555 1_555
O1_4 C8_4 1_555 1_555
O2_4 C3_4 1_555 1_555
S1_4 Fe3 1_555 1_555
H13_4 S1_4 1_555 1_555
H15_4 C15_4 1_555 1_555
C16_4 C15_4 1_555 1_555
C19_4 C7_4 1_555 1_555
H18_4 C19_4 1_555 1_555
H19_4 C19_4 1_555 1_555
C20_4 C7_4 1_555 1_555
H20_4 C20_4 1_555 1_555
H21_4 C20_4 1_555 1_555
H23_4 C22_4 1_555 1_555
C23_4 C22_4 1_555 1_555
O3_4 C20_4 1_555 1_555
O4_4 C16_4 1_555 1_555
S2_4 Fe3 1_555 1_555
H26_4 S2_4 1_555 1_555
C5_4 N1_4 1_555 1_555
C6_4 O2_4 1_555 1_555
C11_4 O1_4 1_555 1_555
C19_4 O4_4 1_555 1_555
C23_4 O3_4 1_555 1_555
H24_4 C24_4 1_555 1_555
C25_4 C24_4 1_555 1_555

#END
