
###############################################################################
#
# This file contains modified crystal structure data generated from the
# MOF subset of the Cambridge Structural Database (CSD) v543 
# hosted by the Cambridge Crystallographic Data Centre (CCDC).
#
# This work is licensed under the Creative Commons
# Attribution-NonCommercial-ShareAlike 4.0 International License.
# To view a copy of this license, visit
# http://creativecommons.org/licenses/by-nc-sa/4.0/
# or send a letter to
# Creative Commons, PO Box 1866, Mountain View, CA 94042, USA.
#
# CIF created using the CSD Python API on 29 September 2022
# The structure has been converted into the P1 space group
# The structure has a 3D framework
# The original CSD entry UKUBOS is in the tetragonal crystal system
# The framework has been calculated to contain at least 10.0% void space
# The void calculation uses a probe of radius 1.32A, grid spacing 0.4
#
###############################################################################

data_UKUBOS
_chemical_formula_moiety         '(C100 H104 Mn4 N12 O16 S8)n'
_symmetry_cell_setting           triclinic
_symmetry_space_group_name_H-M   'P 1'
_symmetry_Int_Tables_number      1
_space_group_name_Hall           'P 1'
loop_
_symmetry_equiv_pos_site_id
_symmetry_equiv_pos_as_xyz
1 x,y,z
_cell_length_a                   12.1750(7)
_cell_length_b                   12.1750(7)
_cell_length_c                   24.924(3)
_cell_angle_alpha                90
_cell_angle_beta                 90
_cell_angle_gamma                90
_cell_volume                     3694.5
loop_
_atom_site_label
_atom_site_type_symbol
_atom_site_fract_x
_atom_site_fract_y
_atom_site_fract_z
C1 C 0.0623(3) 0.1400(3) 0.15020(17)
H1 H 0.0771 0.0809 0.1277
C4 C 0.0183(3) 0.3086(3) 0.21622(16)
H3 H 0.0062 0.3686 0.2386
C5 C 0.0976(3) 0.3110(3) 0.17694(15)
H4 H 0.1387 0.3751 0.1736
Mn1 Mn 0.2500 0.2500 0.07616(3)
N1 N 0.1203(3) 0.2295(3) 0.14357(13)
S1 S 0.22321(8) 0.45373(7) 0.07666(4)
H13 H 0.2408 0.4820 0.1116
N4 N 0.3797(3) 0.2705(3) 0.14357(13)
N6 N 0.3819(3) 0.2671(2) 0.00964(14)
N7 N 0.1181(3) 0.2329(2) 0.00964(14)
S2 S 0.27679(8) 0.04627(7) 0.07666(4)
H26 H 0.2592 0.0180 0.1116
C2 C 0.9808(3) 0.1271(3) 0.18804(14)
H2 H 0.9425 0.0613 0.1910
C3 C 0.9576(3) 0.2138(3) 0.22110(15)
C6 C 0.8461(3) 0.2882(3) 0.29154(14)
H5 H 0.8257 0.3525 0.2708
H6 H 0.9080 0.3071 0.3142
C7 C 0.7500 0.2500 0.32551(19)
C8 C 0.7091(3) 0.3448(3) 0.36062(15)
H7 H 0.6742 0.4004 0.3386
H8 H 0.6557 0.3181 0.3864
C9 C 0.7854(3) 0.4634(3) 0.42749(15)
C10 C 0.8746(3) 0.5143(3) 0.44882(16)
H9 H 0.9445 0.4994 0.4357
C11 C 0.6849(3) 0.4952(3) 0.44533(16)
H10 H 0.6212 0.4646 0.4312
C12 C 0.8602(3) 0.5881(3) 0.49009(17)
H11 H 0.9230 0.6189 0.5051
C13 C 0.6800(3) 0.5757(3) 0.48574(16)
H12 H 0.6111 0.6007 0.4963
N2 N 0.7671(2) 0.6181(3) 0.50964(14)
O1 O 0.8746(2) 0.1993(2) 0.25646(10)
O2 O 0.80226(18) 0.39067(19) 0.38800(10)
C14 C 0.4377(3) 0.3600(3) 0.15020(17)
H14 H 0.4229 0.4191 0.1277
C15 C 0.5192(3) 0.3729(3) 0.18804(14)
H15 H 0.5575 0.4387 0.1910
C16 C 0.5424(3) 0.2862(3) 0.22110(15)
C17 C 0.4817(3) 0.1914(3) 0.21622(16)
H16 H 0.4938 0.1314 0.2386
C18 C 0.4024(3) 0.1890(3) 0.17694(15)
H17 H 0.3613 0.1249 0.1736
C19 C 0.6539(3) 0.2118(3) 0.29154(14)
H18 H 0.6743 0.1475 0.2708
H19 H 0.5920 0.1929 0.3142
C20 C 0.7909(3) 0.1552(3) 0.36062(15)
H20 H 0.8258 0.0996 0.3386
H21 H 0.8443 0.1819 0.3864
C21 C 0.7146(3) 0.0366(3) 0.42749(15)
H22 H 0.5555 0.0006 0.4357
C23 C 0.8151(3) 0.0048(3) 0.44533(16)
H23 H 0.8788 0.0354 0.4312
Mn2 Mn 0.7500 0.7500 0.57616(3)
O3 O 0.6254(2) 0.3007(2) 0.25646(10)
O4 O 0.69774(18) 0.10933(19) 0.38800(10)
C22 C 0.6254(3) 0.9857(3) 0.44882(16)
C24 C 0.6398(3) 0.9119(3) 0.49009(17)
H24 H 0.5770 0.8811 0.5051
C25 C 0.8200(3) 0.9243(3) 0.48574(16)
H25 H 0.8889 0.8993 0.4963
N5 N 0.7329(2) 0.8819(3) 0.50964(14)
H24_2 H 0.1189 0.0770 0.0051
H11_2 H 0.3811 0.4230 0.0051
C1_2 C 0.8600(3) 0.5623(3) 0.65020(17)
H1_2 H 0.9191 0.5771 0.6277
C2_2 C 0.8729(3) 0.4808(3) 0.68804(14)
H2_2 H 0.9387 0.4425 0.6910
C3_2 C 0.7862(3) 0.4576(3) 0.72110(15)
C4_2 C 0.6914(3) 0.5183(3) 0.71622(16)
H3_2 H 0.6314 0.5062 0.7386
C5_2 C 0.6890(3) 0.5976(3) 0.67694(15)
H4_2 H 0.6249 0.6387 0.6736
C6_2 C 0.7118(3) 0.3461(3) 0.79154(14)
H5_2 H 0.6475 0.3257 0.7708
H6_2 H 0.6929 0.4080 0.8142
C7_2 C 0.7500 0.2500 0.82551(19)
C8_2 C 0.6552(3) 0.2091(3) 0.86062(15)
H7_2 H 0.5996 0.1742 0.8386
H8_2 H 0.6819 0.1557 0.8864
C9_2 C 0.5366(3) 0.2854(3) 0.92749(15)
C10_2 C 0.4857(3) 0.3746(3) 0.94882(16)
H9_2 H 0.5006 0.4445 0.9357
C11_2 C 0.5048(3) 0.1849(3) 0.94533(16)
H10_2 H 0.5354 0.1212 0.9312
C12_2 C 0.4119(3) 0.3602(3) 0.99009(17)
C13_2 C 0.4243(3) 0.1800(3) 0.98574(16)
H12_2 H 0.3993 0.1111 0.9963
N1_2 N 0.7705(3) 0.6203(3) 0.64357(13)
O1_2 O 0.8007(2) 0.3746(2) 0.75646(10)
O2_2 O 0.60933(19) 0.30226(18) 0.88800(10)
S1_2 S 0.54627(7) 0.72321(8) 0.57666(4)
H13_2 H 0.5180 0.7408 0.6116
C15_2 C 0.6271(3) 0.0192(3) 0.68804(14)
H15_2 H 0.5613 0.0575 0.6910
C16_2 C 0.7138(3) 0.0424(3) 0.72110(15)
C19_2 C 0.7882(3) 0.1539(3) 0.79154(14)
H18_2 H 0.8525 0.1743 0.7708
H19_2 H 0.8071 0.0920 0.8142
C20_2 C 0.8448(3) 0.2909(3) 0.86062(15)
H20_2 H 0.9004 0.3258 0.8386
H21_2 H 0.8181 0.3443 0.8864
C21_2 C 0.9634(3) 0.2146(3) 0.92749(15)
H22_2 H 0.9994 0.0555 0.9357
C23_2 C 0.9952(3) 0.3151(3) 0.94533(16)
H23_2 H 0.9646 0.3788 0.9312
N4_2 N 0.7295(3) 0.8797(3) 0.64357(13)
O3_2 O 0.6993(2) 0.1254(2) 0.75646(10)
O4_2 O 0.89067(19) 0.19774(18) 0.88800(10)
S2_2 S 0.95373(7) 0.77679(8) 0.57666(4)
H26_2 H 0.9820 0.7592 0.6116
C14_2 C 0.6400(3) 0.9377(3) 0.65020(17)
H14_2 H 0.5809 0.9229 0.6277
C17_2 C 0.8086(3) 0.9817(3) 0.71622(16)
H16_2 H 0.8686 0.9938 0.7386
C18_2 C 0.8110(3) 0.9024(3) 0.67694(15)
H17_2 H 0.8751 0.8613 0.6736
C22_2 C 0.0143(3) 0.1254(3) 0.94882(16)
C24_2 C 0.0881(3) 0.1398(3) 0.99009(17)
C25_2 C 0.0757(3) 0.3200(3) 0.98574(16)
H25_2 H 0.1007 0.3889 0.9963
C22_3 C 0.3746(3) 0.0143(3) 0.55118(16)
C24_3 C 0.3602(3) 0.0881(3) 0.50991(17)
H24_3 H 0.4230 0.1189 0.4949
C25_3 C 0.1800(3) 0.0757(3) 0.51426(16)
H25_3 H 0.1111 0.1007 0.5037
Mn4 Mn 0.2500 0.2500 0.42384(3)
N5_2 N 0.2671(2) 0.1181(3) 0.49036(14)
C2_3 C 0.0192(3) 0.8729(3) 0.81196(14)
H2_3 H 0.0575 0.9387 0.8090
C3_3 C 0.0424(3) 0.7862(3) 0.77890(15)
C6_3 C 0.1539(3) 0.7118(3) 0.70846(14)
H5_3 H 0.1743 0.6475 0.7292
H6_3 H 0.0920 0.6929 0.6858
C7_3 C 0.2500 0.7500 0.67449(19)
C8_3 C 0.2909(3) 0.6552(3) 0.63938(15)
H7_3 H 0.3258 0.5996 0.6614
H8_3 H 0.3443 0.6819 0.6136
C9_3 C 0.2146(3) 0.5366(3) 0.57251(15)
C10_3 C 0.1254(3) 0.4857(3) 0.55118(16)
H9_3 H 0.0555 0.5006 0.5643
C11_3 C 0.3151(3) 0.5048(3) 0.55467(16)
H10_3 H 0.3788 0.5354 0.5688
C12_3 C 0.1398(3) 0.4119(3) 0.50991(17)
H11_3 H 0.0770 0.3811 0.4949
C13_3 C 0.3200(3) 0.4243(3) 0.51426(16)
H12_3 H 0.3889 0.3993 0.5037
N2_2 N 0.2329(2) 0.3819(3) 0.49036(14)
O1_3 O 0.1254(2) 0.8007(2) 0.74354(10)
O2_3 O 0.19774(18) 0.60933(19) 0.61200(10)
C14_3 C 0.5623(3) 0.6400(3) 0.84980(17)
H14_3 H 0.5771 0.5809 0.8723
C15_3 C 0.4808(3) 0.6271(3) 0.81196(14)
H15_3 H 0.4425 0.5613 0.8090
C16_3 C 0.4576(3) 0.7138(3) 0.77890(15)
C17_3 C 0.5183(3) 0.8086(3) 0.78378(16)
H16_3 H 0.5062 0.8686 0.7614
C18_3 C 0.5976(3) 0.8110(3) 0.82306(15)
H17_3 H 0.6387 0.8751 0.8264
C19_3 C 0.3461(3) 0.7882(3) 0.70846(14)
H18_3 H 0.3257 0.8525 0.7292
H19_3 H 0.4080 0.8071 0.6858
C20_3 C 0.2091(3) 0.8448(3) 0.63938(15)
H20_3 H 0.1742 0.9004 0.6614
H21_3 H 0.1557 0.8181 0.6136
C21_3 C 0.2854(3) 0.9634(3) 0.57251(15)
H22_3 H 0.4445 0.9994 0.5643
C23_3 C 0.1849(3) 0.9952(3) 0.55467(16)
H23_3 H 0.1212 0.9646 0.5688
Mn3 Mn 0.7500 0.7500 0.92384(3)
N3 N 0.6203(3) 0.7295(3) 0.85643(13)
O3_3 O 0.3746(2) 0.6993(2) 0.74354(10)
O4_3 O 0.30226(18) 0.89067(19) 0.61200(10)
C1_3 C 0.9377(3) 0.8600(3) 0.84980(17)
H1_3 H 0.9229 0.9191 0.8723
C4_3 C 0.9817(3) 0.6914(3) 0.78378(16)
H3_3 H 0.9938 0.6314 0.7614
C5_3 C 0.9024(3) 0.6890(3) 0.82306(15)
H4_3 H 0.8613 0.6249 0.8264
N1_3 N 0.8797(3) 0.7705(3) 0.85643(13)
S1_3 S 0.77679(8) 0.54627(7) 0.92334(4)
H13_3 H 0.7592 0.5180 0.8884
N6_2 N 0.6181(3) 0.7329(2) 0.99036(14)
N7_2 N 0.8819(3) 0.7671(2) 0.99036(14)
S2_3 S 0.72321(8) 0.95373(7) 0.92334(4)
H26_3 H 0.7408 0.9820 0.8884
C14_4 C 0.3600(3) 0.0623(3) 0.34980(17)
H14_4 H 0.4191 0.0771 0.3723
C17_4 C 0.1914(3) 0.0183(3) 0.28378(16)
H16_4 H 0.1314 0.0062 0.2614
C18_4 C 0.1890(3) 0.0976(3) 0.32306(15)
H17_4 H 0.1249 0.1387 0.3264
N3_2 N 0.2705(3) 0.1203(3) 0.35643(13)
C1_4 C 0.1400(3) 0.4377(3) 0.34980(17)
H1_4 H 0.0809 0.4229 0.3723
C2_4 C 0.1271(3) 0.5192(3) 0.31196(14)
H2_4 H 0.0613 0.5575 0.3090
C3_4 C 0.2138(3) 0.5424(3) 0.27890(15)
C4_4 C 0.3086(3) 0.4817(3) 0.28378(16)
H3_4 H 0.3686 0.4938 0.2614
C5_4 C 0.3110(3) 0.4024(3) 0.32306(15)
H4_4 H 0.3751 0.3613 0.3264
C6_4 C 0.2882(3) 0.6539(3) 0.20846(14)
H5_4 H 0.3525 0.6743 0.2292
H6_4 H 0.3071 0.5920 0.1858
C7_4 C 0.2500 0.7500 0.17449(19)
C8_4 C 0.3448(3) 0.7909(3) 0.13938(15)
H7_4 H 0.4004 0.8258 0.1614
H8_4 H 0.3181 0.8443 0.1136
C9_4 C 0.4634(3) 0.7146(3) 0.07251(15)
C10_4 C 0.5143(3) 0.6254(3) 0.05118(16)
H9_4 H 0.4994 0.5555 0.0643
C11_4 C 0.4952(3) 0.8151(3) 0.05467(16)
H10_4 H 0.4646 0.8788 0.0688
C12_4 C 0.5881(3) 0.6398(3) 0.00991(17)
C13_4 C 0.5757(3) 0.8200(3) 0.01426(16)
H12_4 H 0.6007 0.8889 0.0037
N1_4 N 0.2295(3) 0.3797(3) 0.35643(13)
O1_4 O 0.1993(2) 0.6254(2) 0.24354(10)
O2_4 O 0.39067(19) 0.69774(18) 0.11200(10)
S1_4 S 0.45373(7) 0.27679(8) 0.42334(4)
H13_4 H 0.4820 0.2592 0.3884
C15_4 C 0.3729(3) 0.9808(3) 0.31196(14)
H15_4 H 0.4387 0.9425 0.3090
C16_4 C 0.2862(3) 0.9576(3) 0.27890(15)
C19_4 C 0.2118(3) 0.8461(3) 0.20846(14)
H18_4 H 0.1475 0.8257 0.2292
H19_4 H 0.1929 0.9080 0.1858
C20_4 C 0.1552(3) 0.7091(3) 0.13938(15)
H20_4 H 0.0996 0.6742 0.1614
H21_4 H 0.1819 0.6557 0.1136
C21_4 C 0.0366(3) 0.7854(3) 0.07251(15)
H22_4 H 0.0006 0.9445 0.0643
C23_4 C 0.0048(3) 0.6849(3) 0.05467(16)
H23_4 H 0.0354 0.6212 0.0688
O3_4 O 0.3007(2) 0.8746(2) 0.24354(10)
O4_4 O 0.10933(19) 0.80226(18) 0.11200(10)
S2_4 S 0.04627(7) 0.22321(8) 0.42334(4)
H26_4 H 0.0180 0.2408 0.3884
H11_4 H 0.6189 0.5770 0.9949
H24_4 H 0.8811 0.9230 0.9949
C22_4 C 0.9857(3) 0.8746(3) 0.05118(16)
C24_4 C 0.9119(3) 0.8602(3) 0.00991(17)
C25_4 C 0.9243(3) 0.6800(3) 0.01426(16)
H25_4 H 0.8993 0.6111 0.0037
loop_
_geom_bond_atom_site_label_1
_geom_bond_atom_site_label_2
_geom_bond_site_symmetry_1
_geom_bond_site_symmetry_2
C1 H1 1_555 1_555
H3 C4 1_555 1_555
C5 C4 1_555 1_555
H4 C5 1_555 1_555
Mn1 N1 1_555 1_555
N1 C1 1_555 1_555
S1 Mn1 1_555 1_555
H13 S1 1_555 1_555
N4 Mn1 1_555 1_555
N6 Mn1 1_555 1_555
N7 Mn1 1_555 1_555
S2 Mn1 1_555 1_555
H26 S2 1_555 1_555
C5 N1 1_555 1_555
H2 C2 1_555 1_555
C3 C2 1_555 1_555
C6 H5 1_555 1_555
H6 C6 1_555 1_555
C7 C6 1_555 1_555
C8 C7 1_555 1_555
H7 C8 1_555 1_555
H8 C8 1_555 1_555
C9 C10 1_555 1_555
C10 H9 1_555 1_555
C11 C9 1_555 1_555
H10 C11 1_555 1_555
C12 C10 1_555 1_555
H11 C12 1_555 1_555
C13 C11 1_555 1_555
H12 C13 1_555 1_555
N2 C12 1_555 1_555
O1 C3 1_555 1_555
O2 C8 1_555 1_555
C14 H14 1_555 1_555
C15 C14 1_555 1_555
H15 C15 1_555 1_555
C16 C15 1_555 1_555
C17 C16 1_555 1_555
H16 C17 1_555 1_555
C18 C17 1_555 1_555
H17 C18 1_555 1_555
C19 C7 1_555 1_555
H18 C19 1_555 1_555
H19 C19 1_555 1_555
C20 C7 1_555 1_555
H20 C20 1_555 1_555
H21 C20 1_555 1_555
C23 C21 1_555 1_555
H23 C23 1_555 1_555
Mn2 N2 1_555 1_555
N4 C14 1_555 1_555
O3 C16 1_555 1_555
O4 C20 1_555 1_555
C6 O1 1_555 1_555
C9 O2 1_555 1_555
C13 N2 1_555 1_555
C18 N4 1_555 1_555
C19 O3 1_555 1_555
C21 O4 1_555 1_555
C24 C22 1_555 1_555
H24 C24 1_555 1_555
H25 C25 1_555 1_555
Mn2 N5 1_555 1_555
N5 C24 1_555 1_555
C25 N5 1_555 1_555
C1_2 H1_2 1_555 1_555
C2_2 C1_2 1_555 1_555
H2_2 C2_2 1_555 1_555
C3_2 C2_2 1_555 1_555
C4_2 C3_2 1_555 1_555
H3_2 C4_2 1_555 1_555
C5_2 C4_2 1_555 1_555
H4_2 C5_2 1_555 1_555
C6_2 H5_2 1_555 1_555
H6_2 C6_2 1_555 1_555
C7_2 C6_2 1_555 1_555
C8_2 C7_2 1_555 1_555
H7_2 C8_2 1_555 1_555
H8_2 C8_2 1_555 1_555
C9_2 C10_2 1_555 1_555
C10_2 H9_2 1_555 1_555
C11_2 C9_2 1_555 1_555
H10_2 C11_2 1_555 1_555
C12_2 C10_2 1_555 1_555
C13_2 C11_2 1_555 1_555
H12_2 C13_2 1_555 1_555
Mn2 N1_2 1_555 1_555
N1_2 C1_2 1_555 1_555
O1_2 C3_2 1_555 1_555
O2_2 C8_2 1_555 1_555
S1_2 Mn2 1_555 1_555
H13_2 S1_2 1_555 1_555
H15_2 C15_2 1_555 1_555
C16_2 C15_2 1_555 1_555
C19_2 C7_2 1_555 1_555
H18_2 C19_2 1_555 1_555
H19_2 C19_2 1_555 1_555
C20_2 C7_2 1_555 1_555
H20_2 C20_2 1_555 1_555
H21_2 C20_2 1_555 1_555
C23_2 C21_2 1_555 1_555
H23_2 C23_2 1_555 1_555
N4_2 Mn2 1_555 1_555
O3_2 C16_2 1_555 1_555
O4_2 C20_2 1_555 1_555
S2_2 Mn2 1_555 1_555
H26_2 S2_2 1_555 1_555
C5_2 N1_2 1_555 1_555
C6_2 O1_2 1_555 1_555
C9_2 O2_2 1_555 1_555
C19_2 O3_2 1_555 1_555
C21_2 O4_2 1_555 1_555
C14_2 H14_2 1_555 1_555
H16_2 C17_2 1_555 1_555
C18_2 C17_2 1_555 1_555
H17_2 C18_2 1_555 1_555
N4_2 C14_2 1_555 1_555
C18_2 N4_2 1_555 1_555
C24_2 C22_2 1_555 1_555
H25_2 C25_2 1_555 1_555
C24_3 C22_3 1_555 1_555
H24_3 C24_3 1_555 1_555
H25_3 C25_3 1_555 1_555
Mn4 N5_2 1_555 1_555
N5_2 C24_3 1_555 1_555
C25_3 N5_2 1_555 1_555
H2_3 C2_3 1_555 1_555
C3_3 C2_3 1_555 1_555
C6_3 H5_3 1_555 1_555
H6_3 C6_3 1_555 1_555
C7_3 C6_3 1_555 1_555
C8_3 C7_3 1_555 1_555
H7_3 C8_3 1_555 1_555
H8_3 C8_3 1_555 1_555
C9_3 C10_3 1_555 1_555
C10_3 H9_3 1_555 1_555
C11_3 C9_3 1_555 1_555
H10_3 C11_3 1_555 1_555
C12_3 C10_3 1_555 1_555
H11_3 C12_3 1_555 1_555
C13_3 C11_3 1_555 1_555
H12_3 C13_3 1_555 1_555
N2_2 C12_3 1_555 1_555
O1_3 C3_3 1_555 1_555
O2_3 C8_3 1_555 1_555
C14_3 H14_3 1_555 1_555
C15_3 C14_3 1_555 1_555
H15_3 C15_3 1_555 1_555
C16_3 C15_3 1_555 1_555
C17_3 C16_3 1_555 1_555
H16_3 C17_3 1_555 1_555
C18_3 C17_3 1_555 1_555
H17_3 C18_3 1_555 1_555
C19_3 C7_3 1_555 1_555
H18_3 C19_3 1_555 1_555
H19_3 C19_3 1_555 1_555
C20_3 C7_3 1_555 1_555
H20_3 C20_3 1_555 1_555
H21_3 C20_3 1_555 1_555
C23_3 C21_3 1_555 1_555
H23_3 C23_3 1_555 1_555
Mn4 N2_2 1_555 1_555
Mn3 N3 1_555 1_555
N3 C14_3 1_555 1_555
O3_3 C16_3 1_555 1_555
O4_3 C20_3 1_555 1_555
C6_3 O1_3 1_555 1_555
C9_3 O2_3 1_555 1_555
C13_3 N2_2 1_555 1_555
C18_3 N3 1_555 1_555
C19_3 O3_3 1_555 1_555
C21_3 O4_3 1_555 1_555
C1_3 H1_3 1_555 1_555
H3_3 C4_3 1_555 1_555
C5_3 C4_3 1_555 1_555
H4_3 C5_3 1_555 1_555
Mn3 N1_3 1_555 1_555
N1_3 C1_3 1_555 1_555
S1_3 Mn3 1_555 1_555
H13_3 S1_3 1_555 1_555
N6_2 Mn3 1_555 1_555
N7_2 Mn3 1_555 1_555
S2_3 Mn3 1_555 1_555
H26_3 S2_3 1_555 1_555
C5_3 N1_3 1_555 1_555
C14_4 H14_4 1_555 1_555
H16_4 C17_4 1_555 1_555
C18_4 C17_4 1_555 1_555
H17_4 C18_4 1_555 1_555
Mn4 N3_2 1_555 1_555
N3_2 C14_4 1_555 1_555
C18_4 N3_2 1_555 1_555
C1_4 H1_4 1_555 1_555
C2_4 C1_4 1_555 1_555
H2_4 C2_4 1_555 1_555
C3_4 C2_4 1_555 1_555
C4_4 C3_4 1_555 1_555
H3_4 C4_4 1_555 1_555
C5_4 C4_4 1_555 1_555
H4_4 C5_4 1_555 1_555
C6_4 H5_4 1_555 1_555
H6_4 C6_4 1_555 1_555
C7_4 C6_4 1_555 1_555
C8_4 C7_4 1_555 1_555
H7_4 C8_4 1_555 1_555
H8_4 C8_4 1_555 1_555
C9_4 C10_4 1_555 1_555
C10_4 H9_4 1_555 1_555
C11_4 C9_4 1_555 1_555
H10_4 C11_4 1_555 1_555
C12_4 C10_4 1_555 1_555
C13_4 C11_4 1_555 1_555
H12_4 C13_4 1_555 1_555
Mn4 N1_4 1_555 1_555
N1_4 C1_4 1_555 1_555
O1_4 C3_4 1_555 1_555
O2_4 C8_4 1_555 1_555
S1_4 Mn4 1_555 1_555
H13_4 S1_4 1_555 1_555
H15_4 C15_4 1_555 1_555
C16_4 C15_4 1_555 1_555
C19_4 C7_4 1_555 1_555
H18_4 C19_4 1_555 1_555
H19_4 C19_4 1_555 1_555
C20_4 C7_4 1_555 1_555
H20_4 C20_4 1_555 1_555
H21_4 C20_4 1_555 1_555
C23_4 C21_4 1_555 1_555
H23_4 C23_4 1_555 1_555
O3_4 C16_4 1_555 1_555
O4_4 C20_4 1_555 1_555
S2_4 Mn4 1_555 1_555
H26_4 S2_4 1_555 1_555
C5_4 N1_4 1_555 1_555
C6_4 O1_4 1_555 1_555
C9_4 O2_4 1_555 1_555
C19_4 O3_4 1_555 1_555
C21_4 O4_4 1_555 1_555
C24_4 C22_4 1_555 1_555
H25_4 C25_4 1_555 1_555

#END
