
###############################################################################
#
# This file contains modified crystal structure data generated from the
# MOF subset of the Cambridge Structural Database (CSD) v543 
# hosted by the Cambridge Crystallographic Data Centre (CCDC).
#
# This work is licensed under the Creative Commons
# Attribution-NonCommercial-ShareAlike 4.0 International License.
# To view a copy of this license, visit
# http://creativecommons.org/licenses/by-nc-sa/4.0/
# or send a letter to
# Creative Commons, PO Box 1866, Mountain View, CA 94042, USA.
#
# CIF created using the CSD Python API on 29 September 2022
# The structure has been converted into the P1 space group
# The structure has a 3D framework
# The original CSD entry UKUCAF is in the tetragonal crystal system
# The framework has been calculated to contain at least 10.0% void space
# The void calculation uses a probe of radius 1.32A, grid spacing 0.4
#
###############################################################################

data_UKUCAF
_chemical_formula_moiety         '(C100 H104 Co4 N12 O16 S8)n'
_symmetry_cell_setting           triclinic
_symmetry_space_group_name_H-M   'P 1'
_symmetry_Int_Tables_number      1
_space_group_name_Hall           'P 1'
loop_
_symmetry_equiv_pos_site_id
_symmetry_equiv_pos_as_xyz
1 x,y,z
_cell_length_a                   12.0790(9)
_cell_length_b                   12.0790(9)
_cell_length_c                   24.539(4)
_cell_angle_alpha                90
_cell_angle_beta                 90
_cell_angle_gamma                90
_cell_volume                     3580.3
loop_
_atom_site_label
_atom_site_type_symbol
_atom_site_fract_x
_atom_site_fract_y
_atom_site_fract_z
C14 C 0.1404(3) 0.0614(3) 0.14646(14)
H14 H 0.0820 0.0745 0.1226
C17 C 0.3062(3) 0.0255(3) 0.21797(14)
H16 H 0.3645 0.0167 0.2423
C18 C 0.3092(3) 0.1060(3) 0.17803(14)
H17 H 0.3721 0.1504 0.1765
Co2 Co 0.2500 0.2500 0.07740(2)
N3 N 0.2311(2) 0.1256(2) 0.14185(10)
C1 C 0.3596(3) 0.4386(3) 0.14646(14)
H1 H 0.4180 0.4255 0.1226
C2 C 0.3714(3) 0.5214(3) 0.18370(13)
H2 H 0.4355 0.5640 0.1845
C3 C 0.2860(3) 0.5413(3) 0.22058(12)
C4 C 0.1938(3) 0.4745(3) 0.21797(14)
H3 H 0.1355 0.4833 0.2423
C5 C 0.1908(3) 0.3940(3) 0.17803(14)
H4 H 0.1279 0.3496 0.1765
C6 C 0.2117(2) 0.6520(2) 0.29218(12)
H5 H 0.1954 0.5890 0.3154
H6 H 0.1454 0.6711 0.2719
C7 C 0.2500 0.7500 0.32638(17)
C8 C 0.1541(3) 0.7910(3) 0.36255(13)
H7 H 0.1812 0.8438 0.3892
H8 H 0.0981 0.8269 0.3404
C10 C 0.0022(3) 0.8132(3) 0.44816(14)
H10 H 0.0337 0.8775 0.4342
C11 C 0.0312(3) 0.7135(3) 0.42901(13)
N1 N 0.2689(2) 0.3744(2) 0.14185(10)
O1 O 0.30052(19) 0.62605(19) 0.25549(9)
O2 O 0.10813(18) 0.69570(18) 0.38953(10)
S1 S 0.45080(6) 0.22122(6) 0.07879(3)
H13 H 0.4712 0.1341 0.1000
C15 C 0.1286(3) 0.9786(3) 0.18370(13)
H15 H 0.0645 0.9360 0.1845
C16 C 0.2140(3) 0.9587(3) 0.22058(12)
C19 C 0.2883(2) 0.8480(2) 0.29218(12)
H18 H 0.3046 0.9110 0.3154
H19 H 0.3546 0.8289 0.2719
C20 C 0.3459(3) 0.7090(3) 0.36255(13)
H20 H 0.3188 0.6562 0.3892
H21 H 0.4019 0.6731 0.3404
C21 C 0.5768(3) 0.6820(3) 0.48982(16)
H22 H 0.5977 0.6124 0.5023
C22 C 0.4978(3) 0.6868(3) 0.44816(14)
H23 H 0.4663 0.6225 0.4342
C23 C 0.4688(3) 0.7865(3) 0.42901(13)
C24 C 0.5238(3) 0.8740(3) 0.44932(16)
H24 H 0.5141 0.9436 0.4338
C25 C 0.5941(3) 0.8611(3) 0.49281(17)
H25 H 0.6224 0.9247 0.5091
Co4 Co 0.7500 0.7500 0.57740(2)
N5 N 0.6231(2) 0.7677(2) 0.51241(11)
N6 N 0.2677(2) 0.3769(2) 0.01241(11)
N7 N 0.2323(2) 0.1231(2) 0.01241(11)
O3 O 0.19948(19) 0.87395(19) 0.25549(9)
O4 O 0.39187(18) 0.80430(18) 0.38953(10)
S2 S 0.04920(6) 0.27878(6) 0.07879(3)
H26 H 0.0288 0.3659 0.1000
C9 C 0.9232(3) 0.8180(3) 0.48982(16)
H9 H 0.9023 0.8876 0.5023
C12 C 0.9762(3) 0.6260(3) 0.44932(16)
H11 H 0.9859 0.5564 0.4338
C13 C 0.9059(3) 0.6389(3) 0.49281(17)
H12 H 0.8776 0.5753 0.5091
N2 N 0.8769(2) 0.7323(2) 0.51241(11)
H22_2 H 0.3876 0.0977 0.0023
H25_2 H 0.0753 0.1224 0.0091
H9_2 H 0.1124 0.4023 0.0023
H12_2 H 0.4247 0.3776 0.0091
C1_2 C 0.5614(3) 0.8596(3) 0.64646(14)
H1_2 H 0.5745 0.9180 0.6226
C2_2 C 0.4786(3) 0.8714(3) 0.68370(13)
H2_2 H 0.4360 0.9355 0.6845
C3_2 C 0.4587(3) 0.7860(3) 0.72058(12)
C4_2 C 0.5255(3) 0.6938(3) 0.71797(14)
H3_2 H 0.5167 0.6355 0.7423
C5_2 C 0.6060(3) 0.6908(3) 0.67803(14)
H4_2 H 0.6504 0.6279 0.6765
C6_2 C 0.3480(2) 0.7117(2) 0.79218(12)
H5_2 H 0.4110 0.6954 0.8154
H6_2 H 0.3289 0.6454 0.7719
C7_2 C 0.2500 0.7500 0.82638(17)
C8_2 C 0.2090(3) 0.6541(3) 0.86255(13)
H7_2 H 0.1562 0.6812 0.8892
H8_2 H 0.1731 0.5981 0.8404
C9_2 C 0.1820(3) 0.4232(3) 0.98982(16)
C10_2 C 0.1868(3) 0.5022(3) 0.94816(14)
H10_2 H 0.1225 0.5337 0.9342
C11_2 C 0.2865(3) 0.5312(3) 0.92901(13)
C12_2 C 0.3740(3) 0.4762(3) 0.94932(16)
H11_2 H 0.4436 0.4859 0.9338
C13_2 C 0.3611(3) 0.4059(3) 0.99281(17)
N1_2 N 0.6256(2) 0.7689(2) 0.64185(10)
O1_2 O 0.37395(19) 0.80052(19) 0.75549(9)
O2_2 O 0.30430(18) 0.60813(18) 0.88953(10)
S1_2 S 0.77878(6) 0.95080(6) 0.57879(3)
H13_2 H 0.8659 0.9712 0.6000
C15_2 C 0.0214(3) 0.6286(3) 0.68370(13)
H15_2 H 0.0640 0.5645 0.6845
C16_2 C 0.0413(3) 0.7140(3) 0.72058(12)
C19_2 C 0.1520(2) 0.7883(2) 0.79218(12)
H18_2 H 0.0890 0.8046 0.8154
H19_2 H 0.1711 0.8546 0.7719
C20_2 C 0.2910(3) 0.8459(3) 0.86255(13)
H20_2 H 0.3438 0.8188 0.8892
H21_2 H 0.3269 0.9019 0.8404
C22_2 C 0.3132(3) 0.9978(3) 0.94816(14)
H23_2 H 0.3775 0.9663 0.9342
C23_2 C 0.2135(3) 0.9688(3) 0.92901(13)
N4 N 0.8744(2) 0.7311(2) 0.64185(10)
O3_2 O 0.12605(19) 0.69948(19) 0.75549(9)
O4_2 O 0.19570(18) 0.89187(18) 0.88953(10)
S2_2 S 0.72122(6) 0.54920(6) 0.57879(3)
H26_2 H 0.6341 0.5288 0.6000
C14_2 C 0.9386(3) 0.6404(3) 0.64646(14)
H14_2 H 0.9255 0.5820 0.6226
C17_2 C 0.9745(3) 0.8062(3) 0.71797(14)
H16_2 H 0.9833 0.8645 0.7423
C18_2 C 0.8940(3) 0.8092(3) 0.67803(14)
H17_2 H 0.8496 0.8721 0.6765
C21_2 C 0.3180(3) 0.0768(3) 0.98982(16)
C24_2 C 0.1260(3) 0.0238(3) 0.94932(16)
H24_2 H 0.0564 0.0141 0.9338
C25_2 C 0.1389(3) 0.0941(3) 0.99281(17)
C9_3 C 0.0768(3) 0.1820(3) 0.51018(16)
H9_3 H 0.0977 0.1124 0.4977
C12_3 C 0.0238(3) 0.3740(3) 0.55068(16)
H11_3 H 0.0141 0.4436 0.5662
C13_3 C 0.0941(3) 0.3611(3) 0.50719(17)
H12_3 H 0.1224 0.4247 0.4909
N2_2 N 0.1231(2) 0.2677(2) 0.48759(11)
Co3 Co 0.2500 0.2500 0.42260(2)
C1_3 C 0.6404(3) 0.5614(3) 0.85354(14)
H1_3 H 0.5820 0.5745 0.8774
C2_3 C 0.6286(3) 0.4786(3) 0.81630(13)
H2_3 H 0.5645 0.4360 0.8155
C3_3 C 0.7140(3) 0.4587(3) 0.77942(12)
C4_3 C 0.8062(3) 0.5255(3) 0.78203(14)
H3_3 H 0.8645 0.5167 0.7577
C5_3 C 0.8092(3) 0.6060(3) 0.82197(14)
H4_3 H 0.8721 0.6504 0.8235
C6_3 C 0.7883(2) 0.3480(2) 0.70782(12)
H5_3 H 0.8046 0.4110 0.6846
H6_3 H 0.8546 0.3289 0.7281
C7_3 C 0.7500 0.2500 0.67362(17)
C8_3 C 0.8459(3) 0.2090(3) 0.63745(13)
H7_3 H 0.8188 0.1562 0.6108
H8_3 H 0.9019 0.1731 0.6596
C10_3 C 0.9978(3) 0.1868(3) 0.55184(14)
H10_3 H 0.9663 0.1225 0.5658
C11_3 C 0.9688(3) 0.2865(3) 0.57099(13)
Co1 Co 0.7500 0.7500 0.92260(2)
N1_3 N 0.7311(2) 0.6256(2) 0.85815(10)
O1_3 O 0.69948(19) 0.37395(19) 0.74451(9)
O2_3 O 0.89187(18) 0.30430(18) 0.61047(10)
S1_3 S 0.54920(6) 0.77878(6) 0.92121(3)
H13_3 H 0.5288 0.8659 0.9000
C15_3 C 0.8714(3) 0.0214(3) 0.81630(13)
H15_3 H 0.9355 0.0640 0.8155
C16_3 C 0.7860(3) 0.0413(3) 0.77942(12)
C19_3 C 0.7117(2) 0.1520(2) 0.70782(12)
H18_3 H 0.6954 0.0890 0.6846
H19_3 H 0.6454 0.1711 0.7281
C20_3 C 0.6541(3) 0.2910(3) 0.63745(13)
H20_3 H 0.6812 0.3438 0.6108
H21_3 H 0.5981 0.3269 0.6596
C21_3 C 0.4232(3) 0.3180(3) 0.51018(16)
H22_3 H 0.4023 0.3876 0.4977
C22_3 C 0.5022(3) 0.3132(3) 0.55184(14)
H23_3 H 0.5337 0.3775 0.5658
C23_3 C 0.5312(3) 0.2135(3) 0.57099(13)
C24_3 C 0.4762(3) 0.1260(3) 0.55068(16)
H24_3 H 0.4859 0.0564 0.5662
C25_3 C 0.4059(3) 0.1389(3) 0.50719(17)
H25_3 H 0.3776 0.0753 0.4909
N4_2 N 0.7689(2) 0.8744(2) 0.85815(10)
N5_2 N 0.3769(2) 0.2323(2) 0.48759(11)
N6_2 N 0.7323(2) 0.6231(2) 0.98759(11)
N7_2 N 0.7677(2) 0.8769(2) 0.98759(11)
O3_3 O 0.80052(19) 0.12605(19) 0.74451(9)
O4_3 O 0.60813(18) 0.19570(18) 0.61047(10)
S2_3 S 0.95080(6) 0.72122(6) 0.92121(3)
H26_3 H 0.9712 0.6341 0.9000
C14_3 C 0.8596(3) 0.9386(3) 0.85354(14)
H14_3 H 0.9180 0.9255 0.8774
C17_3 C 0.6938(3) 0.9745(3) 0.78203(14)
H16_3 H 0.6355 0.9833 0.7577
C18_3 C 0.6908(3) 0.8940(3) 0.82197(14)
H17_3 H 0.6279 0.8496 0.8235
C14_4 C 0.0614(3) 0.3596(3) 0.35354(14)
H14_4 H 0.0745 0.4180 0.3774
C17_4 C 0.0255(3) 0.1938(3) 0.28203(14)
H16_4 H 0.0167 0.1355 0.2577
C18_4 C 0.1060(3) 0.1908(3) 0.32197(14)
H17_4 H 0.1504 0.1279 0.3235
N3_2 N 0.1256(2) 0.2689(2) 0.35815(10)
C1_4 C 0.4386(3) 0.1404(3) 0.35354(14)
H1_4 H 0.4255 0.0820 0.3774
C2_4 C 0.5214(3) 0.1286(3) 0.31630(13)
H2_4 H 0.5640 0.0645 0.3155
C3_4 C 0.5413(3) 0.2140(3) 0.27942(12)
C4_4 C 0.4745(3) 0.3062(3) 0.28203(14)
H3_4 H 0.4833 0.3645 0.2577
C5_4 C 0.3940(3) 0.3092(3) 0.32197(14)
H4_4 H 0.3496 0.3721 0.3235
C6_4 C 0.6520(2) 0.2883(2) 0.20782(12)
H5_4 H 0.5890 0.3046 0.1846
H6_4 H 0.6711 0.3546 0.2281
C7_4 C 0.7500 0.2500 0.17362(17)
C8_4 C 0.7910(3) 0.3459(3) 0.13745(13)
H7_4 H 0.8438 0.3188 0.1108
H8_4 H 0.8269 0.4019 0.1596
C9_4 C 0.8180(3) 0.5768(3) 0.01018(16)
C10_4 C 0.8132(3) 0.4978(3) 0.05184(14)
H10_4 H 0.8775 0.4663 0.0658
C11_4 C 0.7135(3) 0.4688(3) 0.07099(13)
C12_4 C 0.6260(3) 0.5238(3) 0.05068(16)
H11_4 H 0.5564 0.5141 0.0662
C13_4 C 0.6389(3) 0.5941(3) 0.00719(17)
N1_4 N 0.3744(2) 0.2311(2) 0.35815(10)
O1_4 O 0.62605(19) 0.19948(19) 0.24451(9)
O2_4 O 0.69570(18) 0.39187(18) 0.11047(10)
S1_4 S 0.22122(6) 0.04920(6) 0.42121(3)
H13_4 H 0.1341 0.0288 0.4000
C15_4 C 0.9786(3) 0.3714(3) 0.31630(13)
H15_4 H 0.9360 0.4355 0.3155
C16_4 C 0.9587(3) 0.2860(3) 0.27942(12)
C19_4 C 0.8480(2) 0.2117(2) 0.20782(12)
H18_4 H 0.9110 0.1954 0.1846
H19_4 H 0.8289 0.1454 0.2281
C20_4 C 0.7090(3) 0.1541(3) 0.13745(13)
H20_4 H 0.6562 0.1812 0.1108
H21_4 H 0.6731 0.0981 0.1596
C22_4 C 0.6868(3) 0.0022(3) 0.05184(14)
H23_4 H 0.6225 0.0337 0.0658
C23_4 C 0.7865(3) 0.0312(3) 0.07099(13)
O3_4 O 0.87395(19) 0.30052(19) 0.24451(9)
O4_4 O 0.80430(18) 0.10813(18) 0.11047(10)
S2_4 S 0.27878(6) 0.45080(6) 0.42121(3)
H26_4 H 0.3659 0.4712 0.4000
H9_4 H 0.8876 0.5977 0.9977
H12_4 H 0.5753 0.6224 0.9909
H22_4 H 0.6124 0.9023 0.9977
H25_4 H 0.9247 0.8776 0.9909
C21_4 C 0.6820(3) 0.9232(3) 0.01018(16)
C24_4 C 0.8740(3) 0.9762(3) 0.05068(16)
H24_4 H 0.9436 0.9859 0.0662
C25_4 C 0.8611(3) 0.9059(3) 0.00719(17)
loop_
_geom_bond_atom_site_label_1
_geom_bond_atom_site_label_2
_geom_bond_site_symmetry_1
_geom_bond_site_symmetry_2
C14 H14 1_555 1_555
H16 C17 1_555 1_555
C18 C17 1_555 1_555
H17 C18 1_555 1_555
Co2 N3 1_555 1_555
N3 C14 1_555 1_555
C18 N3 1_555 1_555
C1 H1 1_555 1_555
C2 C1 1_555 1_555
H2 C2 1_555 1_555
C3 C2 1_555 1_555
C4 C3 1_555 1_555
H3 C4 1_555 1_555
C5 C4 1_555 1_555
H4 C5 1_555 1_555
C6 H5 1_555 1_555
H6 C6 1_555 1_555
C7 C6 1_555 1_555
C8 C7 1_555 1_555
H7 C8 1_555 1_555
H8 C8 1_555 1_555
H10 C10 1_555 1_555
C11 C10 1_555 1_555
Co2 N1 1_555 1_555
N1 C1 1_555 1_555
O1 C3 1_555 1_555
O2 C8 1_555 1_555
S1 Co2 1_555 1_555
H13 S1 1_555 1_555
H15 C15 1_555 1_555
C16 C15 1_555 1_555
C19 C7 1_555 1_555
H18 C19 1_555 1_555
H19 C19 1_555 1_555
C20 C7 1_555 1_555
H20 C20 1_555 1_555
H21 C20 1_555 1_555
C21 H22 1_555 1_555
C22 C21 1_555 1_555
H23 C22 1_555 1_555
C23 C22 1_555 1_555
C24 C23 1_555 1_555
H24 C24 1_555 1_555
C25 C24 1_555 1_555
H25 C25 1_555 1_555
Co4 N5 1_555 1_555
N5 C21 1_555 1_555
N6 Co2 1_555 1_555
N7 Co2 1_555 1_555
O3 C16 1_555 1_555
O4 C20 1_555 1_555
S2 Co2 1_555 1_555
H26 S2 1_555 1_555
C5 N1 1_555 1_555
C6 O1 1_555 1_555
C11 O2 1_555 1_555
C19 O3 1_555 1_555
C23 O4 1_555 1_555
C25 N5 1_555 1_555
C9 H9 1_555 1_555
H11 C12 1_555 1_555
C13 C12 1_555 1_555
H12 C13 1_555 1_555
N2 C9 1_555 1_555
Co4 N2 1_555 1_555
C13 N2 1_555 1_555
C1_2 H1_2 1_555 1_555
C2_2 C1_2 1_555 1_555
H2_2 C2_2 1_555 1_555
C3_2 C2_2 1_555 1_555
C4_2 C3_2 1_555 1_555
H3_2 C4_2 1_555 1_555
C5_2 C4_2 1_555 1_555
H4_2 C5_2 1_555 1_555
C6_2 H5_2 1_555 1_555
H6_2 C6_2 1_555 1_555
C7_2 C6_2 1_555 1_555
C8_2 C7_2 1_555 1_555
H7_2 C8_2 1_555 1_555
H8_2 C8_2 1_555 1_555
C10_2 C9_2 1_555 1_555
H10_2 C10_2 1_555 1_555
C11_2 C10_2 1_555 1_555
C12_2 C11_2 1_555 1_555
H11_2 C12_2 1_555 1_555
C13_2 C12_2 1_555 1_555
Co4 N1_2 1_555 1_555
N1_2 C1_2 1_555 1_555
O1_2 C3_2 1_555 1_555
O2_2 C8_2 1_555 1_555
S1_2 Co4 1_555 1_555
H13_2 S1_2 1_555 1_555
H15_2 C15_2 1_555 1_555
C16_2 C15_2 1_555 1_555
C19_2 C7_2 1_555 1_555
H18_2 C19_2 1_555 1_555
H19_2 C19_2 1_555 1_555
C20_2 C7_2 1_555 1_555
H20_2 C20_2 1_555 1_555
H21_2 C20_2 1_555 1_555
H23_2 C22_2 1_555 1_555
C23_2 C22_2 1_555 1_555
N4 Co4 1_555 1_555
O3_2 C16_2 1_555 1_555
O4_2 C20_2 1_555 1_555
S2_2 Co4 1_555 1_555
H26_2 S2_2 1_555 1_555
C5_2 N1_2 1_555 1_555
C6_2 O1_2 1_555 1_555
C11_2 O2_2 1_555 1_555
C19_2 O3_2 1_555 1_555
C23_2 O4_2 1_555 1_555
C14_2 H14_2 1_555 1_555
H16_2 C17_2 1_555 1_555
C18_2 C17_2 1_555 1_555
H17_2 C18_2 1_555 1_555
N4 C14_2 1_555 1_555
C18_2 N4 1_555 1_555
H24_2 C24_2 1_555 1_555
C25_2 C24_2 1_555 1_555
C9_3 H9_3 1_555 1_555
H11_3 C12_3 1_555 1_555
C13_3 C12_3 1_555 1_555
H12_3 C13_3 1_555 1_555
N2_2 C9_3 1_555 1_555
Co3 N2_2 1_555 1_555
C13_3 N2_2 1_555 1_555
C1_3 H1_3 1_555 1_555
C2_3 C1_3 1_555 1_555
H2_3 C2_3 1_555 1_555
C3_3 C2_3 1_555 1_555
C4_3 C3_3 1_555 1_555
H3_3 C4_3 1_555 1_555
C5_3 C4_3 1_555 1_555
H4_3 C5_3 1_555 1_555
C6_3 H5_3 1_555 1_555
H6_3 C6_3 1_555 1_555
C7_3 C6_3 1_555 1_555
C8_3 C7_3 1_555 1_555
H7_3 C8_3 1_555 1_555
H8_3 C8_3 1_555 1_555
H10_3 C10_3 1_555 1_555
C11_3 C10_3 1_555 1_555
Co1 N1_3 1_555 1_555
N1_3 C1_3 1_555 1_555
O1_3 C3_3 1_555 1_555
O2_3 C8_3 1_555 1_555
S1_3 Co1 1_555 1_555
H13_3 S1_3 1_555 1_555
H15_3 C15_3 1_555 1_555
C16_3 C15_3 1_555 1_555
C19_3 C7_3 1_555 1_555
H18_3 C19_3 1_555 1_555
H19_3 C19_3 1_555 1_555
C20_3 C7_3 1_555 1_555
H20_3 C20_3 1_555 1_555
H21_3 C20_3 1_555 1_555
C21_3 H22_3 1_555 1_555
C22_3 C21_3 1_555 1_555
H23_3 C22_3 1_555 1_555
C23_3 C22_3 1_555 1_555
C24_3 C23_3 1_555 1_555
H24_3 C24_3 1_555 1_555
C25_3 C24_3 1_555 1_555
H25_3 C25_3 1_555 1_555
Co3 N5_2 1_555 1_555
N4_2 Co1 1_555 1_555
N5_2 C21_3 1_555 1_555
N6_2 Co1 1_555 1_555
N7_2 Co1 1_555 1_555
O3_3 C16_3 1_555 1_555
O4_3 C20_3 1_555 1_555
S2_3 Co1 1_555 1_555
H26_3 S2_3 1_555 1_555
C5_3 N1_3 1_555 1_555
C6_3 O1_3 1_555 1_555
C11_3 O2_3 1_555 1_555
C19_3 O3_3 1_555 1_555
C23_3 O4_3 1_555 1_555
C25_3 N5_2 1_555 1_555
C14_3 H14_3 1_555 1_555
H16_3 C17_3 1_555 1_555
C18_3 C17_3 1_555 1_555
H17_3 C18_3 1_555 1_555
N4_2 C14_3 1_555 1_555
C18_3 N4_2 1_555 1_555
C14_4 H14_4 1_555 1_555
H16_4 C17_4 1_555 1_555
C18_4 C17_4 1_555 1_555
H17_4 C18_4 1_555 1_555
Co3 N3_2 1_555 1_555
N3_2 C14_4 1_555 1_555
C18_4 N3_2 1_555 1_555
C1_4 H1_4 1_555 1_555
C2_4 C1_4 1_555 1_555
H2_4 C2_4 1_555 1_555
C3_4 C2_4 1_555 1_555
C4_4 C3_4 1_555 1_555
H3_4 C4_4 1_555 1_555
C5_4 C4_4 1_555 1_555
H4_4 C5_4 1_555 1_555
C6_4 H5_4 1_555 1_555
H6_4 C6_4 1_555 1_555
C7_4 C6_4 1_555 1_555
C8_4 C7_4 1_555 1_555
H7_4 C8_4 1_555 1_555
H8_4 C8_4 1_555 1_555
C10_4 C9_4 1_555 1_555
H10_4 C10_4 1_555 1_555
C11_4 C10_4 1_555 1_555
C12_4 C11_4 1_555 1_555
H11_4 C12_4 1_555 1_555
C13_4 C12_4 1_555 1_555
Co3 N1_4 1_555 1_555
N1_4 C1_4 1_555 1_555
O1_4 C3_4 1_555 1_555
O2_4 C8_4 1_555 1_555
S1_4 Co3 1_555 1_555
H13_4 S1_4 1_555 1_555
H15_4 C15_4 1_555 1_555
C16_4 C15_4 1_555 1_555
C19_4 C7_4 1_555 1_555
H18_4 C19_4 1_555 1_555
H19_4 C19_4 1_555 1_555
C20_4 C7_4 1_555 1_555
H20_4 C20_4 1_555 1_555
H21_4 C20_4 1_555 1_555
H23_4 C22_4 1_555 1_555
C23_4 C22_4 1_555 1_555
O3_4 C16_4 1_555 1_555
O4_4 C20_4 1_555 1_555
S2_4 Co3 1_555 1_555
H26_4 S2_4 1_555 1_555
C5_4 N1_4 1_555 1_555
C6_4 O1_4 1_555 1_555
C11_4 O2_4 1_555 1_555
C19_4 O3_4 1_555 1_555
C23_4 O4_4 1_555 1_555
H24_4 C24_4 1_555 1_555
C25_4 C24_4 1_555 1_555

#END
