
###############################################################################
#
# This file contains modified crystal structure data generated from the
# MOF subset of the Cambridge Structural Database (CSD) v543 
# hosted by the Cambridge Crystallographic Data Centre (CCDC).
#
# This work is licensed under the Creative Commons
# Attribution-NonCommercial-ShareAlike 4.0 International License.
# To view a copy of this license, visit
# http://creativecommons.org/licenses/by-nc-sa/4.0/
# or send a letter to
# Creative Commons, PO Box 1866, Mountain View, CA 94042, USA.
#
# CIF created using the CSD Python API on 29 September 2022
# The structure has been converted into the P1 space group
# The structure has a 3D framework
# The original CSD entry ULASAD is in the monoclinic crystal system
# The framework has been calculated to contain at least 10.0% void space
# The void calculation uses a probe of radius 1.32A, grid spacing 0.4
#
###############################################################################

data_ULASAD
_chemical_formula_moiety         '(C96 H76 Co11 Cr4 N35 O8)n'
_symmetry_cell_setting           triclinic
_symmetry_space_group_name_H-M   'P 1'
_symmetry_Int_Tables_number      1
_space_group_name_Hall           'P 1'
loop_
_symmetry_equiv_pos_site_id
_symmetry_equiv_pos_as_xyz
1 x,y,z
_cell_length_a                   13.9190(4)
_cell_length_b                   17.8965(5)
_cell_length_c                   16.1361(5)
_cell_angle_alpha                90
_cell_angle_beta                 98.6190(10)
_cell_angle_gamma                90
_cell_volume                     3974.13
loop_
_atom_site_label
_atom_site_type_symbol
_atom_site_fract_x
_atom_site_fract_y
_atom_site_fract_z
Co6 Co 0.00161(6) 0.67827(5) 0.11318(5)
Co10 Co -0.0000 -0.0000 0.0000
Co10_2 Co -0.0000 -0.0000 1.0000
C2 C 0.0046(4) 0.5009(4) 0.1666(4)
C4 C 0.0045(4) 0.3687(3) 0.0878(4)
C5 C 0.1396(5) 0.3970(4) 0.2222(4)
N2 N 0.0078(4) 0.5626(3) 0.1512(4)
N4 N 0.0073(4) 0.3508(3) 0.0191(3)
N5 N 0.2219(5) 0.3961(4) 0.2374(5)
H16 H 0.0438 0.3736 0.6089
O2 O 0.0087(4) 0.2924(3) 0.4384(3)
H18 H 0.0183 0.3103 0.4900
Co2 Co -0.0000 0.5000 0.5000
C31 C 0.0054(4) 0.8005(3) 0.2639(4)
C33 C 0.0054(4) 0.9323(3) 0.1916(4)
C36 C 0.1395(5) 0.9024(4) 0.3239(4)
C37 C 0.2205(5) 0.7387(4) 0.1646(5)
H25 H 0.1900 0.7708 0.1978
C38 C 0.3188(5) 0.7485(4) 0.1633(5)
H26 H 0.3527 0.7870 0.1936
C39 C 0.3658(5) 0.6997(5) 0.1157(5)
C40 C 0.3117(6) 0.6464(5) 0.0710(6)
H27 H 0.3409 0.6138 0.0374
C41 C 0.2132(5) 0.6400(5) 0.0748(5)
H28 H 0.1783 0.6024 0.0440
C42 C 0.4718(5) 0.7094(5) 0.1145(5)
H29 H 0.5005 0.7511 0.1425
C43 C 0.5278(6) 0.6674(6) 0.0798(7)
H30 H 0.4983 0.6281 0.0480
C44 C 0.7867(5) 0.7317(4) 0.1297(5)
H31 H 0.8207 0.7720 0.1560
C45 C 0.6868(5) 0.7312(5) 0.1239(5)
H32 H 0.6556 0.7702 0.1471
C46 C 0.6332(5) 0.6739(5) 0.0843(6)
C47 C 0.6868(6) 0.6170(6) 0.0537(7)
H33 H 0.6547 0.5757 0.0278
C48 C 0.7855(5) 0.6213(5) 0.0612(6)
H34 H 0.8186 0.5830 0.0386
N11 N 0.0086(4) 0.7424(3) 0.2322(3)
N13 N 0.0075(4) 0.9493(3) 0.1240(4)
N16 N 0.2229(5) 0.9045(4) 0.3336(5)
N17 N 0.1662(4) 0.6856(3) 0.1210(4)
N18 N 0.8369(4) 0.6774(3) 0.0995(4)
H36 H 0.0176 0.8232 0.1090
Cr2 Cr 0.00026(6) 0.89971(4) 0.30153(5)
O4 O 0.0035(3) 0.6103(2) 0.4331(3)
H38 H 0.0513 0.6252 0.4018
N20 N 0.0075(4) 0.5507(3) 0.6240(4)
N22 N 0.0073(4) 0.1492(3) 0.5191(3)
N23 N 0.1631(4) 0.1774(3) 0.4005(4)
N25 N 0.1648(4) 0.4974(3) 0.5161(3)
Co7 Co 0.00161(6) 0.82173(5) 0.61318(5)
Co10_3 Co -0.0000 1.0000 0.0000
Co10_4 Co -0.0000 1.0000 1.0000
C32 C 0.9954(4) 0.0009(4) 0.3334(4)
N12 N 0.9922(4) 0.0626(3) 0.3488(4)
Co5 Co 0.99839(6) 0.17827(5) 0.38682(5)
Co10_5 Co 1.0000 -0.0000 0.0000
Co10_6 Co 1.0000 -0.0000 1.0000
C1 C 0.9946(4) 0.3005(3) 0.2361(4)
C3 C 0.9946(4) 0.4323(3) 0.3084(4)
C6 C 0.8605(5) 0.4024(4) 0.1761(4)
C7 C 0.7795(5) 0.2387(4) 0.3354(5)
H1 H 0.8100 0.2708 0.3022
C8 C 0.6812(5) 0.2485(4) 0.3367(5)
H2 H 0.6473 0.2870 0.3064
C9 C 0.6342(5) 0.1997(5) 0.3843(5)
C10 C 0.6883(6) 0.1464(5) 0.4290(6)
H3 H 0.6591 0.1138 0.4626
C11 C 0.7868(5) 0.1400(5) 0.4252(5)
H4 H 0.8217 0.1024 0.4560
C12 C 0.5282(5) 0.2094(5) 0.3855(5)
H5 H 0.4995 0.2511 0.3575
C13 C 0.4722(6) 0.1674(6) 0.4202(7)
H6 H 0.5017 0.1281 0.4520
C14 C 0.2133(5) 0.2317(4) 0.3703(5)
H7 H 0.1793 0.2720 0.3440
C15 C 0.3132(5) 0.2312(5) 0.3761(5)
H8 H 0.3444 0.2702 0.3529
C16 C 0.3668(5) 0.1739(5) 0.4157(6)
C17 C 0.3132(6) 0.1170(6) 0.4463(7)
H9 H 0.3453 0.0757 0.4722
C18 C 0.2145(5) 0.1213(5) 0.4388(6)
H10 H 0.1814 0.0830 0.4614
C19 C 0.7826(5) 0.4474(4) 0.4441(5)
H11 H 0.8149 0.4118 0.4165
C20 C 0.6840(5) 0.4396(4) 0.4410(5)
H12 H 0.6515 0.3999 0.4121
C21 C 0.6335(5) 0.4911(4) 0.4811(5)
C22 C 0.6857(5) 0.5496(4) 0.5207(5)
H13 H 0.6542 0.5868 0.5467
C23 C 0.7853(5) 0.5529(4) 0.5216(5)
H14 H 0.8194 0.5922 0.5500
C24 C 0.5259(5) 0.4812(4) 0.4792(5)
H15 H 0.4954 0.4442 0.4443
N1 N 0.9914(4) 0.2424(3) 0.2678(3)
N3 N 0.9925(4) 0.4493(3) 0.3760(4)
N6 N 0.7771(5) 0.4045(4) 0.1664(5)
N7 N 0.8338(4) 0.1856(3) 0.3790(4)
N9 N 0.8352(4) 0.5026(3) 0.4839(3)
O1 O 0.9965(3) 0.3897(2) 0.5669(3)
H17 H 0.9487 0.3748 0.5982
H19 H 0.9824 0.3232 0.3910
Co2_2 Co 1.0000 0.5000 0.5000
Cr1 Cr 0.99974(6) 0.39971(4) 0.19847(5)
C25 C 0.2174(5) 0.5526(4) 0.5559(5)
H20 H 0.1851 0.5882 0.5835
C26 C 0.3160(5) 0.5604(4) 0.5590(5)
H21 H 0.3485 0.6001 0.5879
C27 C 0.3665(5) 0.5089(4) 0.5189(5)
C28 C 0.3143(5) 0.4504(4) 0.4793(5)
H22 H 0.3458 0.4132 0.4533
C29 C 0.2147(5) 0.4471(4) 0.4784(5)
H23 H 0.1806 0.4078 0.4500
C30 C 0.4741(5) 0.5188(4) 0.5208(5)
H24 H 0.5046 0.5558 0.5557
C34 C 0.9955(4) 0.8687(3) 0.4122(4)
C35 C 0.8604(5) 0.8970(4) 0.2778(4)
N14 N 0.9927(4) 0.8508(3) 0.4809(3)
N15 N 0.7781(5) 0.8961(4) 0.2626(5)
O3 O 0.9913(4) 0.7924(3) 0.0616(3)
H35 H 0.9817 0.8103 0.0100
H37 H 0.9562 0.6264 0.3911
Co10_7 Co 1.0000 1.0000 0.0000
N21 N 0.9927(4) 0.6492(3) 0.9809(3)
Co8 Co 0.99839(6) 0.32173(5) 0.88682(5)
Co10_8 Co 1.0000 1.0000 1.0000
N9_2 N 0.1648(4) 0.0026(3) 0.0161(3)
H37_2 H 0.0438 0.1264 0.1089
C22_2 C 0.3143(5) 0.0496(4) 0.9793(5)
H13_2 H 0.3458 0.0868 0.9533
C23_2 C 0.2147(5) 0.0529(4) 0.9784(5)
H14_2 H 0.1806 0.0922 0.9500
C25_2 C 0.7826(5) 0.0526(4) 0.9441(5)
H20_2 H 0.8149 0.0882 0.9165
C26_2 C 0.6840(5) 0.0604(4) 0.9410(5)
H21_2 H 0.6515 0.1001 0.9121
C27_2 C 0.6335(5) 0.0089(4) 0.9811(5)
C30_2 C 0.5259(5) 0.0188(4) 0.9792(5)
H24_2 H 0.4954 0.0558 0.9443
C19_2 C 0.2174(5) 0.9474(4) 0.0559(5)
H11_2 H 0.1851 0.9118 0.0835
C20_2 C 0.3160(5) 0.9396(4) 0.0590(5)
H12_2 H 0.3485 0.8999 0.0879
C21_2 C 0.3665(5) 0.9911(4) 0.0189(5)
C24_2 C 0.4741(5) 0.9812(4) 0.0208(5)
H15_2 H 0.5046 0.9442 0.0557
C28_2 C 0.6857(5) 0.9504(4) 0.0207(5)
H22_2 H 0.6542 0.9132 0.0467
C29_2 C 0.7853(5) 0.9471(4) 0.0216(5)
H23_2 H 0.8194 0.9078 0.0500
O1_2 O 0.0035(3) 0.8897(2) 0.9331(3)
H17_2 H 0.0513 0.8748 0.9018
N10 N 0.8352(4) 0.9974(3) 0.9839(3)
O4_2 O 0.9965(3) 0.1103(2) 0.0669(3)
H38_2 H 0.9487 0.1252 0.0982
N20_2 N 0.9925(4) 0.0507(3) 0.8760(4)
H16_2 H 0.9562 0.8736 0.8911
C1_2 C 0.0054(4) 0.6995(3) 0.7639(4)
C3_2 C 0.0054(4) 0.5677(3) 0.6916(4)
C6_2 C 0.1395(5) 0.5976(4) 0.8239(4)
C7_2 C 0.2205(5) 0.7613(4) 0.6646(5)
H1_2 H 0.1900 0.7292 0.6978
C8_2 C 0.3188(5) 0.7515(4) 0.6633(5)
H2_2 H 0.3527 0.7130 0.6936
C9_2 C 0.3658(5) 0.8003(5) 0.6157(5)
C10_2 C 0.3117(6) 0.8536(5) 0.5710(6)
H3_2 H 0.3409 0.8862 0.5374
C11_2 C 0.2132(5) 0.8600(5) 0.5748(5)
H4_2 H 0.1783 0.8976 0.5440
C12_2 C 0.4718(5) 0.7906(5) 0.6145(5)
H5_2 H 0.5005 0.7489 0.6425
C13_2 C 0.5278(6) 0.8326(6) 0.5798(7)
H6_2 H 0.4983 0.8719 0.5480
C14_2 C 0.7867(5) 0.7683(4) 0.6297(5)
H7_2 H 0.8207 0.7280 0.6560
C15_2 C 0.6868(5) 0.7688(5) 0.6239(5)
H8_2 H 0.6556 0.7298 0.6471
C16_2 C 0.6332(5) 0.8261(5) 0.5843(6)
C17_2 C 0.6868(6) 0.8830(6) 0.5537(7)
H9_2 H 0.6547 0.9243 0.5278
C18_2 C 0.7855(5) 0.8787(5) 0.5612(6)
H10_2 H 0.8186 0.9170 0.5386
N1_2 N 0.0086(4) 0.7576(3) 0.7322(3)
N6_2 N 0.2229(5) 0.5955(4) 0.8336(5)
N7_2 N 0.1662(4) 0.8144(3) 0.6210(4)
N8 N 0.8369(4) 0.8226(3) 0.5995(4)
H19_2 H 0.0176 0.6768 0.6090
Cr1_2 Cr 0.00026(6) 0.60029(4) 0.80153(5)
C34_2 C 0.0045(4) 0.1313(3) 0.5878(4)
C35_2 C 0.1396(5) 0.1030(4) 0.7222(4)
N15_2 N 0.2219(5) 0.1039(4) 0.7374(5)
O3_2 O 0.0087(4) 0.2076(3) 0.9384(3)
H35_2 H 0.0183 0.1897 0.9900
N19 N 0.0078(4) 0.9374(3) 0.6512(4)
N24 N 0.1631(4) 0.3226(3) 0.9005(4)
C32_2 C 0.0046(4) 0.9991(4) 0.6666(4)
C2_2 C 0.9954(4) 0.4991(4) 0.8334(4)
C4_2 C 0.9955(4) 0.6313(3) 0.9122(4)
C5_2 C 0.8604(5) 0.6030(4) 0.7778(4)
N2_2 N 0.9922(4) 0.4374(3) 0.8488(4)
N5_2 N 0.7781(5) 0.6039(4) 0.7626(5)
O2_2 O 0.9913(4) 0.7076(3) 0.5616(3)
H18_2 H 0.9817 0.6897 0.5100
C31_2 C 0.9946(4) 0.1995(3) 0.7361(4)
C33_2 C 0.9946(4) 0.0677(3) 0.8084(4)
C36_2 C 0.8605(5) 0.0976(4) 0.6761(4)
C37_2 C 0.7795(5) 0.2613(4) 0.8354(5)
H25_2 H 0.8100 0.2292 0.8022
C38_2 C 0.6812(5) 0.2515(4) 0.8367(5)
H26_2 H 0.6473 0.2130 0.8064
C39_2 C 0.6342(5) 0.3003(5) 0.8843(5)
C40_2 C 0.6883(6) 0.3536(5) 0.9290(6)
H27_2 H 0.6591 0.3862 0.9626
C41_2 C 0.7868(5) 0.3600(5) 0.9252(5)
H28_2 H 0.8217 0.3976 0.9560
C42_2 C 0.5282(5) 0.2906(5) 0.8855(5)
H29_2 H 0.4995 0.2489 0.8575
C43_2 C 0.4722(6) 0.3326(6) 0.9202(7)
H30_2 H 0.5017 0.3719 0.9520
C44_2 C 0.2133(5) 0.2683(4) 0.8703(5)
H31_2 H 0.1793 0.2280 0.8440
C45_2 C 0.3132(5) 0.2688(5) 0.8761(5)
H32_2 H 0.3444 0.2298 0.8529
C46_2 C 0.3668(5) 0.3261(5) 0.9157(6)
C47_2 C 0.3132(6) 0.3830(6) 0.9463(7)
H33_2 H 0.3453 0.4243 0.9722
C48_2 C 0.2145(5) 0.3787(5) 0.9388(6)
H34_2 H 0.1814 0.4170 0.9614
N11_2 N 0.9914(4) 0.2576(3) 0.7678(3)
N16_2 N 0.7771(5) 0.0955(4) 0.6664(5)
N17_2 N 0.8338(4) 0.3144(3) 0.8790(4)
H36_2 H 0.9824 0.1768 0.8910
Cr2_2 Cr 0.99974(6) 0.10029(4) 0.69847(5)
loop_
_geom_bond_atom_site_label_1
_geom_bond_atom_site_label_2
_geom_bond_site_symmetry_1
_geom_bond_site_symmetry_2
C2 N2 1_555 1_555
C4 N4 1_555 1_555
C5 N5 1_555 1_555
N2 Co6 1_555 1_555
O2 H18 1_555 1_555
C31 N11 1_555 1_555
C33 N13 1_555 1_555
C36 N16 1_555 1_555
C37 H25 1_555 1_555
C38 C37 1_555 1_555
H26 C38 1_555 1_555
C39 C38 1_555 1_555
C40 C39 1_555 1_555
H27 C40 1_555 1_555
C41 C40 1_555 1_555
H28 C41 1_555 1_555
C42 C39 1_555 1_555
H29 C42 1_555 1_555
C43 C42 1_555 1_555
H30 C43 1_555 1_555
C44 H31 1_555 1_555
C45 C44 1_555 1_555
H32 C45 1_555 1_555
C46 C43 1_555 1_555
C47 C46 1_555 1_555
H33 C47 1_555 1_555
C48 C47 1_555 1_555
H34 C48 1_555 1_555
N11 Co6 1_555 1_555
N13 Co10_3 1_555 1_555
N17 C37 1_555 1_555
N18 C44 1_555 1_555
Co6 N17 1_555 1_555
Cr2 C31 1_555 1_555
O4 Co2 1_555 1_555
H38 O4 1_555 1_555
N20 Co2 1_555 1_555
N25 Co2 1_555 1_555
C33 Cr2 1_555 1_555
C36 Cr2 1_555 1_555
C41 N17 1_555 1_555
C45 C46 1_555 1_555
C48 N18 1_555 1_555
C32 N12 1_555 1_555
N12 Co5 1_555 1_555
C1 N1 1_555 1_555
C3 N3 1_555 1_555
C6 N6 1_555 1_555
C7 H1 1_555 1_555
C8 C7 1_555 1_555
H2 C8 1_555 1_555
C9 C8 1_555 1_555
C10 C9 1_555 1_555
H3 C10 1_555 1_555
C11 C10 1_555 1_555
H4 C11 1_555 1_555
C12 C9 1_555 1_555
H5 C12 1_555 1_555
C13 C12 1_555 1_555
H6 C13 1_555 1_555
C14 H7 1_555 1_555
C15 C14 1_555 1_555
H8 C15 1_555 1_555
C16 C13 1_555 1_555
C17 C16 1_555 1_555
H9 C17 1_555 1_555
C18 C17 1_555 1_555
H10 C18 1_555 1_555
C19 H11 1_555 1_555
C20 C19 1_555 1_555
H12 C20 1_555 1_555
C21 C20 1_555 1_555
C22 C21 1_555 1_555
H13 C22 1_555 1_555
C23 C22 1_555 1_555
H14 C23 1_555 1_555
C24 C21 1_555 1_555
H15 C24 1_555 1_555
N1 Co5 1_555 1_555
N3 Co2_2 1_555 1_555
N7 C7 1_555 1_555
N23 C14 1_555 1_555
N9 C19 1_555 1_555
H17 O1 1_555 1_555
Co5 N7 1_555 1_555
Co2_2 N9 1_555 1_555
Cr1 C1 1_555 1_555
C25 H20 1_555 1_555
C26 C25 1_555 1_555
H21 C26 1_555 1_555
C27 C26 1_555 1_555
C28 C27 1_555 1_555
H22 C28 1_555 1_555
C29 C28 1_555 1_555
H23 C29 1_555 1_555
C30 C24 1_555 1_555
H24 C30 1_555 1_555
N25 C25 1_555 1_555
C34 N14 1_555 1_555
C35 N15 1_555 1_555
O3 H35 1_555 1_555
C3 Cr1 1_555 1_555
C6 Cr1 1_555 1_555
C11 N7 1_555 1_555
C15 C16 1_555 1_555
C18 N23 1_555 1_555
C23 N9 1_555 1_555
O1 Co2_2 1_555 1_555
C27 C30 1_555 1_555
C29 N25 1_555 1_555
Co10 N9_2 1_555 1_555
H13_2 C22_2 1_555 1_555
C23_2 C22_2 1_555 1_555
H14_2 C23_2 1_555 1_555
C25_2 H20_2 1_555 1_555
C26_2 C25_2 1_555 1_555
H21_2 C26_2 1_555 1_555
C27_2 C26_2 1_555 1_555
H24_2 C30_2 1_555 1_555
C27_2 C30_2 1_555 1_555
C19_2 H11_2 1_555 1_555
C20_2 C19_2 1_555 1_555
H12_2 C20_2 1_555 1_555
C21_2 C20_2 1_555 1_555
C24_2 C21_2 1_555 1_555
H15_2 C24_2 1_555 1_555
H22_2 C28_2 1_555 1_555
C29_2 C28_2 1_555 1_555
H23_2 C29_2 1_555 1_555
H17_2 O1_2 1_555 1_555
Co10_8 N10 1_555 1_555
O1_2 Co10_4 1_555 1_555
O4_2 Co10_5 1_555 1_555
H38_2 O4_2 1_555 1_555
N20_2 Co10_6 1_555 1_555
C1_2 N1_2 1_555 1_555
C3_2 N20 1_555 1_555
C6_2 N6_2 1_555 1_555
C7_2 H1_2 1_555 1_555
C8_2 C7_2 1_555 1_555
H2_2 C8_2 1_555 1_555
C9_2 C8_2 1_555 1_555
C10_2 C9_2 1_555 1_555
H3_2 C10_2 1_555 1_555
C11_2 C10_2 1_555 1_555
H4_2 C11_2 1_555 1_555
C12_2 C9_2 1_555 1_555
H5_2 C12_2 1_555 1_555
C13_2 C12_2 1_555 1_555
H6_2 C13_2 1_555 1_555
C14_2 H7_2 1_555 1_555
C15_2 C14_2 1_555 1_555
H8_2 C15_2 1_555 1_555
C16_2 C13_2 1_555 1_555
C17_2 C16_2 1_555 1_555
H9_2 C17_2 1_555 1_555
C18_2 C17_2 1_555 1_555
H10_2 C18_2 1_555 1_555
N1_2 Co7 1_555 1_555
N7_2 C7_2 1_555 1_555
N8 C14_2 1_555 1_555
Co7 N7_2 1_555 1_555
Cr1_2 C1_2 1_555 1_555
C34_2 N22 1_555 1_555
C35_2 N15_2 1_555 1_555
O3_2 H35_2 1_555 1_555
N19 Co7 1_555 1_555
C3_2 Cr1_2 1_555 1_555
C6_2 Cr1_2 1_555 1_555
C11_2 N7_2 1_555 1_555
C15_2 C16_2 1_555 1_555
C18_2 N8 1_555 1_555
C32_2 N19 1_555 1_555
C2_2 N2_2 1_555 1_555
C4_2 N21 1_555 1_555
C5_2 N5_2 1_555 1_555
N2_2 Co8 1_555 1_555
O2_2 H18_2 1_555 1_555
C31_2 N11_2 1_555 1_555
C33_2 N20_2 1_555 1_555
C36_2 N16_2 1_555 1_555
C37_2 H25_2 1_555 1_555
C38_2 C37_2 1_555 1_555
H26_2 C38_2 1_555 1_555
C39_2 C38_2 1_555 1_555
C40_2 C39_2 1_555 1_555
H27_2 C40_2 1_555 1_555
C41_2 C40_2 1_555 1_555
H28_2 C41_2 1_555 1_555
C42_2 C39_2 1_555 1_555
H29_2 C42_2 1_555 1_555
C43_2 C42_2 1_555 1_555
H30_2 C43_2 1_555 1_555
C44_2 H31_2 1_555 1_555
C45_2 C44_2 1_555 1_555
H32_2 C45_2 1_555 1_555
C46_2 C43_2 1_555 1_555
C47_2 C46_2 1_555 1_555
H33_2 C47_2 1_555 1_555
C48_2 C47_2 1_555 1_555
H34_2 C48_2 1_555 1_555
N11_2 Co8 1_555 1_555
N17_2 C37_2 1_555 1_555
N24 C44_2 1_555 1_555
Co8 N17_2 1_555 1_555
Cr2_2 C31_2 1_555 1_555
C33_2 Cr2_2 1_555 1_555
C36_2 Cr2_2 1_555 1_555
C41_2 N17_2 1_555 1_555
C45_2 C46_2 1_555 1_555
C48_2 N24 1_555 1_555

#END
