
###############################################################################
#
# This file contains modified crystal structure data generated from the
# MOF subset of the Cambridge Structural Database (CSD) v543 
# hosted by the Cambridge Crystallographic Data Centre (CCDC).
#
# This work is licensed under the Creative Commons
# Attribution-NonCommercial-ShareAlike 4.0 International License.
# To view a copy of this license, visit
# http://creativecommons.org/licenses/by-nc-sa/4.0/
# or send a letter to
# Creative Commons, PO Box 1866, Mountain View, CA 94042, USA.
#
# CIF created using the CSD Python API on 29 September 2022
# The structure has been converted into the P1 space group
# The structure has a 3D framework
# The original CSD entry ULAWUC is in the orthorhombic crystal system
# The original CSD entry ULAWUC is in a Sohncke space group
# The framework has been calculated to contain at least 10.0% void space
# The void calculation uses a probe of radius 1.32A, grid spacing 0.4
#
###############################################################################

data_ULAWUC
_chemical_formula_moiety         '(C48 H44 Cd4 N20 O20 S4)n'
_symmetry_cell_setting           triclinic
_symmetry_space_group_name_H-M   'P 1'
_symmetry_Int_Tables_number      1
_space_group_name_Hall           'P 1'
loop_
_symmetry_equiv_pos_site_id
_symmetry_equiv_pos_as_xyz
1 x,y,z
_cell_length_a                   5.5986(6)
_cell_length_b                   10.6921(12)
_cell_length_c                   29.431(3)
_cell_angle_alpha                90
_cell_angle_beta                 90
_cell_angle_gamma                90
_cell_volume                     1761.76
loop_
_atom_site_label
_atom_site_type_symbol
_atom_site_fract_x
_atom_site_fract_y
_atom_site_fract_z
Cd2 Cd 0.32983(7) 0.49522(3) 0.75740(2)
N4 N 0.1643(12) 0.4402(5) 0.00628(17)
N5 N 0.1381(10) 0.4560(5) 0.18107(17)
C7 C 0.0238(13) 0.4054(6) 0.03989(19)
C8 C 0.0641(12) 0.4214(6) 0.0888(2)
C11 C 0.2967(11) 0.4949(8) 0.1505(2)
H10 H 0.433316 0.535304 0.160842
C12 C 0.2703(13) 0.4790(8) 0.1048(2)
H11 H 0.387717 0.506060 0.084733
Cd3 Cd 0.17017(7) 0.50478(3) 0.25740(2)
S1 S 0.8337(3) 0.68675(12) 0.78195(4)
N1 N 0.2512(9) 0.4470(5) 0.83216(17)
O1 O 0.5729(7) 0.6597(4) 0.77673(17)
O2 O 0.9674(8) 0.5961(4) 0.75403(16)
O3 O 0.8756(7) 0.8138(4) 0.76411(16)
O4 O 0.8987(10) 0.6794(5) 0.82964(16)
O5 O 0.6460(8) 0.3626(4) 0.7569(2)
H2 H 0.607680 0.288520 0.764490
H3 H 0.779140 0.357560 0.743140
C1 C 0.0482(12) 0.3894(7) 0.8432(2)
C3 C 0.1147(12) 0.4196(6) 0.9222(2)
C4 C 0.3268(13) 0.4786(7) 0.9113(2)
H6 H 0.426922 0.508854 0.934019
C5 C 0.3872(11) 0.4918(7) 0.8659(2)
H7 H 0.527858 0.533405 0.858567
C6 C 0.0419(13) 0.4053(6) 0.9697(2)
Cd4 Cd 0.67017(7) 0.99522(3) 0.74260(2)
N6 N 0.3619(10) 0.5440(5) 0.68107(17)
O7 O 0.1244(7) 0.3138(4) 0.73589(16)
N2 N 0.8342(11) 0.3527(6) 0.97881(16)
H4 H 0.952582 0.358433 0.819944
C2 C 0.9724(12) 0.3734(6) 0.8878(2)
H5 H 0.829674 0.332661 0.894229
N1_2 N 0.2488(9) 0.5530(5) 0.33216(17)
N2_2 N 0.6658(11) 0.6473(6) 0.47881(16)
N3 N 0.6781(11) 0.6470(6) 0.52649(16)
H1 H 0.792006 0.674827 0.543285
N4_2 N 0.3357(12) 0.5598(5) 0.50628(17)
C1_2 C 0.4518(12) 0.6106(7) 0.3432(2)
H4_2 H 0.547418 0.641567 0.319944
C2_2 C 0.5276(12) 0.6266(6) 0.3878(2)
H5_2 H 0.670326 0.667339 0.394229
C3_2 C 0.3853(12) 0.5804(6) 0.4222(2)
C4_2 C 0.1732(13) 0.5214(7) 0.4113(2)
H6_2 H 0.073078 0.491146 0.434019
C5_2 C 0.1128(11) 0.5082(7) 0.3659(2)
C6_2 C 0.4581(13) 0.5947(6) 0.4697(2)
C7_2 C 0.4762(13) 0.5946(6) 0.53989(19)
C8_2 C 0.4359(12) 0.5786(6) 0.5888(2)
C9 C 0.5986(14) 0.6210(8) 0.6202(2)
H8 H 0.735966 0.662195 0.610574
C10 C 0.5584(14) 0.6026(8) 0.6657(2)
H9 H 0.670418 0.631464 0.686500
C11_2 C 0.2033(11) 0.5051(8) 0.6505(2)
H10_2 H 0.066684 0.464696 0.660842
C12_2 C 0.2297(13) 0.5210(8) 0.6048(2)
H11_2 H 0.112283 0.493940 0.584733
O6 O 0.5326(8) 0.4039(4) 0.25403(16)
O7_2 O 0.3756(7) 0.6862(4) 0.23589(16)
S1_2 S 0.6663(3) 0.31325(12) 0.28195(4)
O1_2 O 0.9271(7) 0.3403(4) 0.27673(17)
O3_2 O 0.6244(7) 0.1862(4) 0.26411(16)
O4_2 O 0.6013(10) 0.3206(5) 0.32964(16)
O5_2 O 0.8540(8) 0.6374(4) 0.2569(2)
H2_2 H 0.892320 0.711480 0.264490
H3_2 H 0.720860 0.642440 0.243140
H7_2 H 0.972142 0.466595 0.358567
Cd4_2 Cd 0.82983(7) 0.00478(3) 0.24260(2)
O6_2 O 0.0326(8) 0.0961(4) 0.74597(16)
S1_3 S 0.1663(3) 0.18675(12) 0.71805(4)
O1_3 O 0.4271(7) 0.1597(4) 0.72327(17)
O4_3 O 0.1013(10) 0.1794(5) 0.67036(16)
H6_3 H 0.573078 0.008854 0.565981
H7_3 H 0.472142 0.033405 0.641433
H10_3 H 0.566684 0.035304 0.339158
H11_3 H 0.612283 0.006060 0.415267
N6_2 N 0.6381(10) 0.0440(5) 0.81893(17)
N1_3 N 0.7488(9) 0.9470(5) 0.66784(17)
N4_3 N 0.8357(12) 0.9402(5) 0.49372(17)
N5_2 N 0.8619(10) 0.9560(5) 0.31893(17)
O5_3 O 0.3540(8) 0.8626(4) 0.7431(2)
H2_3 H 0.392320 0.788520 0.735510
H3_3 H 0.220860 0.857560 0.756860
C1_3 C 0.9518(12) 0.8894(7) 0.6568(2)
C3_3 C 0.8853(12) 0.9196(6) 0.5778(2)
C4_3 C 0.6732(13) 0.9786(7) 0.5887(2)
C5_3 C 0.6128(11) 0.9918(7) 0.6341(2)
C6_3 C 0.9581(13) 0.9053(6) 0.5303(2)
C7_3 C 0.9762(13) 0.9054(6) 0.46011(19)
C8_3 C 0.9359(12) 0.9214(6) 0.4112(2)
C11_3 C 0.7033(11) 0.9949(8) 0.3495(2)
C12_3 C 0.7297(13) 0.9790(8) 0.3952(2)
O5_4 O 0.1460(8) 0.1374(4) 0.2431(2)
H2_4 H 0.107680 0.211480 0.235510
H3_4 H 0.279140 0.142440 0.256860
S1_4 S 0.3337(3) 0.81325(12) 0.21805(4)
O1_4 O 0.0729(7) 0.8403(4) 0.22327(17)
O2_2 O 0.4674(8) 0.9039(4) 0.24597(16)
O4_4 O 0.3987(10) 0.8206(5) 0.17036(16)
H7_4 H 0.027858 0.966595 0.141433
N1_4 N 0.7512(9) 0.0530(5) 0.16784(17)
N2_3 N 0.3342(11) 0.1473(6) 0.02119(16)
C1_4 C 0.5482(12) 0.1106(7) 0.1568(2)
H4_3 H 0.452582 0.141567 0.180056
C2_3 C 0.4724(12) 0.1266(6) 0.1122(2)
H5_3 H 0.329674 0.167339 0.105771
C3_4 C 0.6147(12) 0.0804(6) 0.0778(2)
C4_4 C 0.8268(13) 0.0214(7) 0.0887(2)
C5_4 C 0.8872(11) 0.0082(7) 0.1341(2)
C6_4 C 0.5419(13) 0.0947(6) 0.0303(2)
N3_2 N 0.3219(11) 0.1470(6) 0.97351(16)
H1_2 H 0.207994 0.174827 0.956715
N4_4 N 0.6643(12) 0.0598(5) 0.99372(17)
C7_4 C 0.5238(13) 0.0946(6) 0.96011(19)
C8_4 C 0.5641(12) 0.0786(6) 0.9112(2)
C9_2 C 0.4014(14) 0.1210(8) 0.8798(2)
H8_2 H 0.264034 0.162195 0.889426
C10_2 C 0.4416(14) 0.1026(8) 0.8343(2)
H9_2 H 0.329582 0.131464 0.813500
C11_4 C 0.7967(11) 0.0051(8) 0.8495(2)
C12_4 C 0.7703(13) 0.0210(8) 0.8952(2)
H6_4 H 0.926922 0.991146 0.065981
H10_4 H 0.933316 0.964696 0.839158
H11_4 H 0.887717 0.993940 0.915267
N3_3 N 0.8219(11) 0.3530(6) 0.02649(16)
H1_3 H 0.707994 0.325173 0.043285
C9_3 C 0.9014(14) 0.3790(8) 0.1202(2)
H8_3 H 0.764034 0.337805 0.110574
C10_3 C 0.9416(14) 0.3974(8) 0.1657(2)
H9_3 H 0.829582 0.368536 0.186500
N2_4 N 0.1658(11) 0.8527(6) 0.52119(16)
N3_4 N 0.1781(11) 0.8530(6) 0.47351(16)
H1_4 H 0.292006 0.825173 0.456715
H4_4 H 0.047418 0.858433 0.680056
C2_4 C 0.0276(12) 0.8734(6) 0.6122(2)
H5_4 H 0.170326 0.832661 0.605771
C9_4 C 0.0986(14) 0.8790(8) 0.3798(2)
H8_4 H 0.235966 0.837805 0.389426
C10_4 C 0.0584(14) 0.8974(8) 0.3343(2)
H9_4 H 0.170418 0.868536 0.313500
loop_
_geom_bond_atom_site_label_1
_geom_bond_atom_site_label_2
_geom_bond_site_symmetry_1
_geom_bond_site_symmetry_2
C8 C7 1_555 1_555
C11 N5 1_555 1_555
H10 C11 1_555 1_555
C12 C8 1_555 1_555
H11 C12 1_555 1_555
Cd3 N5 1_555 1_555
N4 C7 1_555 1_555
C11 C12 1_555 1_555
Cd2 N1 1_555 1_555
S1 O1 1_555 1_555
N1 C1 1_555 1_555
O1 Cd2 1_555 1_555
O2 S1 1_555 1_555
O3 S1 1_555 1_555
O4 S1 1_555 1_555
O5 Cd2 1_555 1_555
H2 O5 1_555 1_555
H3 O5 1_555 1_555
C4 C3 1_555 1_555
H6 C4 1_555 1_555
C5 N1 1_555 1_555
H7 C5 1_555 1_555
Cd4 O3 1_555 1_555
N6 Cd2 1_555 1_555
O7 Cd2 1_555 1_555
C3 C6 1_555 1_555
C4 C5 1_555 1_555
H5 C2 1_555 1_555
Cd3 N1_2 1_555 1_555
N1_2 C1_2 1_555 1_555
N2_2 N3 1_555 1_555
N3 H1 1_555 1_555
N4_2 C6_2 1_555 1_555
N6 C10 1_555 1_555
C1_2 H4_2 1_555 1_555
C2_2 C1_2 1_555 1_555
H5_2 C2_2 1_555 1_555
C3_2 C2_2 1_555 1_555
C4_2 C3_2 1_555 1_555
H6_2 C4_2 1_555 1_555
C5_2 N1_2 1_555 1_555
C6_2 N2_2 1_555 1_555
C7_2 N3 1_555 1_555
C8_2 C7_2 1_555 1_555
C9 C8_2 1_555 1_555
H8 C9 1_555 1_555
C10 C9 1_555 1_555
H9 C10 1_555 1_555
C11_2 N6 1_555 1_555
H10_2 C11_2 1_555 1_555
C12_2 C8_2 1_555 1_555
H11_2 C12_2 1_555 1_555
O6 Cd3 1_555 1_555
O7_2 Cd3 1_555 1_555
N4_2 C7_2 1_555 1_555
C3_2 C6_2 1_555 1_555
C4_2 C5_2 1_555 1_555
C11_2 C12_2 1_555 1_555
S1_2 O1_2 1_555 1_555
O6 S1_2 1_555 1_555
O3_2 S1_2 1_555 1_555
O4_2 S1_2 1_555 1_555
H2_2 O5_2 1_555 1_555
H3_2 O5_2 1_555 1_555
Cd4_2 O3_2 1_555 1_555
S1_3 O1_3 1_555 1_555
O6_2 S1_3 1_555 1_555
O7 S1_3 1_555 1_555
O4_3 S1_3 1_555 1_555
Cd4 N1_3 1_555 1_555
N1_3 C1_3 1_555 1_555
N4_3 C6_3 1_555 1_555
O5_3 Cd4 1_555 1_555
H2_3 O5_3 1_555 1_555
H3_3 O5_3 1_555 1_555
C4_3 C3_3 1_555 1_555
C5_3 N1_3 1_555 1_555
C8_3 C7_3 1_555 1_555
C11_3 N5_2 1_555 1_555
C12_3 C8_3 1_555 1_555
N4_3 C7_3 1_555 1_555
C3_3 C6_3 1_555 1_555
C4_3 C5_3 1_555 1_555
C11_3 C12_3 1_555 1_555
H2_4 O5_4 1_555 1_555
H3_4 O5_4 1_555 1_555
S1_4 O1_4 1_555 1_555
O2_2 S1_4 1_555 1_555
O7_2 S1_4 1_555 1_555
O4_4 S1_4 1_555 1_555
Cd4_2 N1_4 1_555 1_555
N1_4 C1_4 1_555 1_555
C1_4 H4_3 1_555 1_555
C2_3 C1_4 1_555 1_555
H5_3 C2_3 1_555 1_555
C3_4 C2_3 1_555 1_555
C4_4 C3_4 1_555 1_555
C5_4 N1_4 1_555 1_555
C6_4 N2_3 1_555 1_555
C3_4 C6_4 1_555 1_555
C4_4 C5_4 1_555 1_555
N3_2 H1_2 1_555 1_555
N6_2 C10_2 1_555 1_555
C7_4 N3_2 1_555 1_555
C8_4 C7_4 1_555 1_555
C9_2 C8_4 1_555 1_555
H8_2 C9_2 1_555 1_555
C10_2 C9_2 1_555 1_555
H9_2 C10_2 1_555 1_555
C11_4 N6_2 1_555 1_555
C12_4 C8_4 1_555 1_555
N4_4 C7_4 1_555 1_555
C11_4 C12_4 1_555 1_555
N3_3 H1_3 1_555 1_555
H8_3 C9_3 1_555 1_555
C10_3 C9_3 1_555 1_555
H9_3 C10_3 1_555 1_555
N2_4 N3_4 1_555 1_555
N3_4 H1_4 1_555 1_555
H5_4 C2_4 1_555 1_555
H8_4 C9_4 1_555 1_555
C10_4 C9_4 1_555 1_555
H9_4 C10_4 1_555 1_555

#END
