
###############################################################################
#
# This file contains modified crystal structure data generated from the
# MOF subset of the Cambridge Structural Database (CSD) v543 
# hosted by the Cambridge Crystallographic Data Centre (CCDC).
#
# This work is licensed under the Creative Commons
# Attribution-NonCommercial-ShareAlike 4.0 International License.
# To view a copy of this license, visit
# http://creativecommons.org/licenses/by-nc-sa/4.0/
# or send a letter to
# Creative Commons, PO Box 1866, Mountain View, CA 94042, USA.
#
# CIF created using the CSD Python API on 29 September 2022
# The structure has been converted into the P1 space group
# The structure has a 3D framework
# The original CSD entry ULAXUD is in the monoclinic crystal system
# The framework has been calculated to contain at least 10.0% void space
# The void calculation uses a probe of radius 1.32A, grid spacing 0.4
#
###############################################################################

data_ULAXUD
_chemical_formula_moiety         '(C72 H72 Ca4 N8 O40 S8 Zn4)n'
_symmetry_cell_setting           triclinic
_symmetry_space_group_name_H-M   'P 1'
_symmetry_Int_Tables_number      1
_space_group_name_Hall           'P 1'
loop_
_symmetry_equiv_pos_site_id
_symmetry_equiv_pos_as_xyz
1 x,y,z
_cell_length_a                   8.7860(18)
_cell_length_b                   18.954(4)
_cell_length_c                   17.604(4)
_cell_angle_alpha                90
_cell_angle_beta                 101.43(3)
_cell_angle_gamma                90
_cell_volume                     2873.45
loop_
_atom_site_label
_atom_site_type_symbol
_atom_site_fract_x
_atom_site_fract_y
_atom_site_fract_z
O9 O 0.1404(2) 0.11863(10) 0.46290(11)
O10 O 0.0771(2) 0.30121(10) 0.46477(12)
N1 N 0.2693(3) 0.01615(11) 0.45108(13)
N2 N 0.0651(3) 0.38123(12) 0.55911(13)
C13 C 0.2269(3) 0.08220(13) 0.43099(15)
H5 H 0.2657 0.1028 0.3894
H8 H 0.3944 0.0056 0.3677
C15 C 0.0142(3) 0.35220(14) 0.49098(17)
C16 C 0.2013(4) 0.35374(18) 0.61107(18)
H10 H 0.1699 0.3311 0.6556
H11 H 0.2731 0.3925 0.6292
H12 H 0.2529 0.3190 0.5835
H13 H 0.1619 0.0135 0.5416
H16 H 0.0534 0.4802 0.5985
Zn3 Zn 0.04184(3) 0.33829(2) 0.81640(2)
O13 O 0.1618(2) 0.20864(9) 0.31103(10)
Zn1 Zn 0.54184(3) 0.16171(2) 0.31640(2)
S1 S 0.76679(7) 0.26644(3) 0.60755(3)
S2 S 0.80387(7) 0.42517(3) 0.24958(4)
O1 O 0.8307(2) 0.34925(9) 0.75356(10)
O2 O 0.8780(2) 0.57123(9) 0.21052(10)
O3 O 0.5327(2) 0.16715(9) 0.42695(10)
O4 O 0.8241(2) 0.27680(9) 0.30122(11)
O5 O 0.6618(2) 0.29136(9) 0.81103(10)
O6 O 0.5678(2) 0.25567(9) 0.27688(11)
O7 O 0.6334(2) 0.61024(9) 0.17898(11)
O8 O 0.7760(2) 0.20868(10) 0.45236(11)
C1 C 0.7205(3) 0.30498(12) 0.75372(14)
C2 C 0.6863(3) 0.29423(12) 0.27883(14)
C3 C 0.7312(3) 0.56334(12) 0.20088(14)
C4 C 0.6254(3) 0.21800(12) 0.54849(14)
C5 C 0.5015(3) 0.20400(13) 0.58299(15)
H1 H 0.4119 0.1786 0.5587
C6 C 0.5230(3) 0.23183(13) 0.65878(14)
H2 H 0.4502 0.2263 0.6917
C7 C 0.6609(3) 0.26773(12) 0.67962(14)
C8 C 0.6480(3) 0.19664(12) 0.47069(14)
C9 C 0.6537(3) 0.36787(12) 0.25076(14)
C10 C 0.6761(3) 0.49222(12) 0.21748(14)
C11 C 0.5111(3) 0.39893(13) 0.22732(17)
H3 H 0.4151 0.3750 0.2240
C12 C 0.5246(3) 0.47098(13) 0.20869(17)
H4 H 0.4382 0.5012 0.1920
Ca1 Ca 0.98381(5) 0.20605(2) 0.38931(3)
H9 H 0.9233 0.3714 0.4596
C18 C 0.9833(4) 0.43961(16) 0.58712(19)
H17 H 0.9485 0.4252 0.6344
H18 H 0.8932 0.4527 0.5473
Zn2 Zn 0.95816(3) 0.66171(2) 0.18360(2)
O11 O 0.3307(2) 0.15075(9) 0.25356(10)
O12 O 0.6220(2) 0.07123(9) 0.28948(10)
O14 O 0.8666(2) 0.11024(9) 0.32102(11)
Ca2 Ca 0.51619(5) 0.70605(2) 0.11069(3)
Ca3 Ca 0.48381(5) 0.29395(2) 0.88931(3)
H3_2 H 0.0849 0.8750 0.2760
O11_2 O 0.1693(2) 0.65075(9) 0.24644(10)
H1_2 H 0.0881 0.6786 0.9413
H2_2 H 0.0498 0.7263 0.8083
Ca3_2 Ca 0.01619(5) 0.79395(2) 0.61069(3)
C3_2 C 0.7688(3) 0.06334(12) 0.29912(14)
S2_2 S 0.69613(7) 0.92517(3) 0.25042(4)
O3_2 O 0.9673(2) 0.66715(9) 0.07305(10)
O4_2 O 0.6759(2) 0.77680(9) 0.19878(11)
O6_2 O 0.9322(2) 0.75567(9) 0.22312(11)
O8_2 O 0.7240(2) 0.70868(10) 0.04764(11)
C2_2 C 0.8137(3) 0.79423(12) 0.22117(14)
C8_2 C 0.8520(3) 0.69664(12) 0.02931(14)
C9_2 C 0.8463(3) 0.86787(12) 0.24924(14)
C10_2 C 0.8239(3) 0.99222(12) 0.28252(14)
C11_2 C 0.9889(3) 0.89893(13) 0.27268(17)
C12_2 C 0.9754(3) 0.97098(13) 0.29131(17)
O9_2 O 0.3596(2) 0.61863(10) 0.03710(11)
O10_2 O 0.4229(2) 0.80121(10) 0.03523(12)
N1_2 N 0.2307(3) 0.51615(11) 0.04892(13)
C13_2 C 0.2731(3) 0.58220(13) 0.06901(15)
H5_2 H 0.2343 0.6028 0.1106
C14 C 0.1358(3) 0.47554(15) 0.09241(17)
H6 H 0.1955 0.4351 0.1171
H7 H 0.0424 0.4587 0.0571
H8_2 H 0.1056 0.5056 0.1323
C15_2 C 0.4858(3) 0.85220(14) 0.00902(17)
H9_2 H 0.5767 0.8714 0.0404
H15 H 0.3642 0.4437 0.0106
O13_2 O 0.3382(2) 0.70864(9) 0.18897(10)
S1_2 S 0.73321(7) 0.76644(3) 0.89245(3)
O1_2 O 0.6693(2) 0.84925(9) 0.74644(10)
O5_2 O 0.8382(2) 0.79136(9) 0.68897(10)
C1_2 C 0.7795(3) 0.80498(12) 0.74628(14)
C4_2 C 0.8746(3) 0.71800(12) 0.95151(14)
C5_2 C 0.9985(3) 0.70400(13) 0.91701(15)
C6_2 C 0.9770(3) 0.73183(13) 0.84122(14)
C7_2 C 0.8391(3) 0.76773(12) 0.82038(14)
N2_2 N 0.4349(3) 0.88123(12) 0.94089(13)
C16_2 C 0.2987(4) 0.85374(18) 0.88893(18)
H10_2 H 0.3301 0.8311 0.8444
H11_2 H 0.2269 0.8925 0.8708
H12_2 H 0.2471 0.8190 0.9165
C17 C 0.2883(4) 0.47953(17) 0.98767(19)
H13_2 H 0.3381 0.5135 0.9584
H14 H 0.2015 0.4567 0.9528
C18_2 C 0.5167(4) 0.93961(16) 0.91288(19)
H16_2 H 0.4466 0.9802 0.9015
H17_2 H 0.5515 0.9252 0.8656
H18_2 H 0.6068 0.9527 0.9527
Zn3_2 Zn 0.45816(3) 0.83829(2) 0.68360(2)
S1_3 S 0.23321(7) 0.73356(3) 0.39245(3)
S2_3 S 0.19613(7) 0.57483(3) 0.75042(4)
O2_2 O 0.1220(2) 0.42877(9) 0.78948(10)
O3_3 O 0.4673(2) 0.83285(9) 0.57305(10)
O4_3 O 0.1759(2) 0.72320(9) 0.69878(11)
O6_3 O 0.4322(2) 0.74433(9) 0.72312(11)
O7_2 O 0.3666(2) 0.38976(9) 0.82102(11)
O8_3 O 0.2240(2) 0.79132(10) 0.54764(11)
C1_3 C 0.2795(3) 0.69502(12) 0.24628(14)
C2_3 C 0.3137(3) 0.70577(12) 0.72117(14)
C3_3 C 0.2688(3) 0.43666(12) 0.79912(14)
C4_3 C 0.3746(3) 0.78200(12) 0.45151(14)
C5_3 C 0.4985(3) 0.79600(13) 0.41701(15)
H1_3 H 0.5881 0.8214 0.4413
C6_3 C 0.4770(3) 0.76817(13) 0.34122(14)
H2_3 H 0.5498 0.7737 0.3083
C7_3 C 0.3391(3) 0.73227(12) 0.32038(14)
C8_3 C 0.3520(3) 0.80336(12) 0.52931(14)
C9_3 C 0.3463(3) 0.63213(12) 0.74924(14)
C10_3 C 0.3239(3) 0.50778(12) 0.78252(14)
C11_3 C 0.4889(3) 0.60107(13) 0.77268(17)
H3_3 H 0.5849 0.6250 0.7760
C12_3 C 0.4754(3) 0.52902(13) 0.79131(17)
H4_2 H 0.5618 0.4988 0.8080
H9_3 H 0.0767 0.6286 0.5404
C18_3 C 0.0167(4) 0.56039(16) 0.41288(19)
H17_3 H 0.0515 0.5748 0.3656
H18_3 H 0.1068 0.5473 0.4527
O12_2 O 0.3780(2) 0.92877(9) 0.71052(10)
O14_2 O 0.1334(2) 0.88976(9) 0.67898(11)
O9_3 O 0.8596(2) 0.88137(10) 0.53710(11)
O10_3 O 0.9229(2) 0.69879(10) 0.53523(12)
N1_3 N 0.7307(3) 0.98385(11) 0.54892(13)
N2_3 N 0.9349(3) 0.61877(12) 0.44089(13)
C13_3 C 0.7731(3) 0.91780(13) 0.56901(15)
H5_3 H 0.7343 0.8972 0.6106
H8_3 H 0.6056 0.9944 0.6323
C15_3 C 0.9858(3) 0.64780(14) 0.50902(17)
C16_3 C 0.7987(4) 0.64626(18) 0.38893(18)
H10_3 H 0.8301 0.6689 0.3444
H11_3 H 0.7269 0.6075 0.3708
H12_3 H 0.7471 0.6810 0.4165
H13_3 H 0.8381 0.9865 0.4584
H16_3 H 0.9466 0.5198 0.4015
S1_4 S 0.26679(7) 0.23356(3) 0.10755(3)
C1_4 C 0.2205(3) 0.19502(12) 0.25372(14)
C4_4 C 0.1254(3) 0.28200(12) 0.04849(14)
C5_4 C 0.0015(3) 0.29600(13) 0.08299(15)
C6_4 C 0.0230(3) 0.26817(13) 0.15878(14)
C7_4 C 0.1609(3) 0.23227(12) 0.17962(14)
N2_4 N 0.5651(3) 0.11877(12) 0.05911(13)
C16_4 C 0.7013(4) 0.14626(18) 0.11107(18)
H10_4 H 0.6699 0.1689 0.1556
H11_4 H 0.7731 0.1075 0.1292
H12_4 H 0.7529 0.1810 0.0835
C17_2 C 0.7117(4) 0.52047(17) 0.01233(19)
H13_4 H 0.6619 0.4865 0.0416
H14_2 H 0.7985 0.5433 0.0472
C18_4 C 0.4833(4) 0.06039(16) 0.08712(19)
H16_4 H 0.5534 0.0198 0.0985
H17_4 H 0.4485 0.0748 0.1344
H18_4 H 0.3932 0.0473 0.0473
S2_4 S 0.30387(7) 0.07483(3) 0.74958(4)
O3_4 O 0.0327(2) 0.33285(9) 0.92695(10)
O4_4 O 0.3241(2) 0.22320(9) 0.80122(11)
O6_4 O 0.0678(2) 0.24433(9) 0.77688(11)
O8_4 O 0.2760(2) 0.29132(10) 0.95236(11)
C2_4 C 0.1863(3) 0.20577(12) 0.77883(14)
C8_4 C 0.1480(3) 0.30336(12) 0.97069(14)
C9_4 C 0.1537(3) 0.13213(12) 0.75076(14)
C10_4 C 0.1761(3) 0.00778(12) 0.71748(14)
C11_4 C 0.0111(3) 0.10107(13) 0.72732(17)
C12_4 C 0.0246(3) 0.02902(13) 0.70869(17)
O9_4 O 0.6404(2) 0.38137(10) 0.96290(11)
O10_4 O 0.5771(2) 0.19879(10) 0.96477(12)
N1_4 N 0.7693(3) 0.48385(11) 0.95108(13)
C13_4 C 0.7269(3) 0.41780(13) 0.93099(15)
H5_4 H 0.7657 0.3972 0.8894
C14_2 C 0.8642(3) 0.52446(15) 0.90759(17)
H6_2 H 0.8045 0.5649 0.8829
H7_2 H 0.9576 0.5413 0.9429
H8_4 H 0.8944 0.4944 0.8677
C15_4 C 0.5142(3) 0.14780(14) 0.99098(17)
H9_4 H 0.4233 0.1286 0.9596
H15_2 H 0.6358 0.5563 0.9894
C3_4 C 0.2312(3) 0.93666(12) 0.70088(14)
H1_4 H 0.9119 0.3214 0.0587
H2_4 H 0.9502 0.2737 0.1917
H3_4 H 0.9151 0.1250 0.7240
C14_3 C 0.3642(3) 0.97554(15) 0.40759(17)
H6_3 H 0.3045 0.9351 0.3829
H7_3 H 0.4576 0.9587 0.4429
C17_3 C 0.2117(4) 0.97953(17) 0.51233(19)
H14_3 H 0.2985 0.9567 0.5472
H15_3 H 0.1358 0.9437 0.4894
H4_3 H 0.0618 0.0012 0.3080
C14_4 C 0.6358(3) 0.02446(15) 0.59241(17)
H6_4 H 0.6955 0.0649 0.6171
H7_4 H 0.5424 0.0413 0.5571
C17_4 C 0.7883(4) 0.02047(17) 0.48767(19)
H14_4 H 0.7015 0.0433 0.4528
H15_4 H 0.8642 0.0563 0.5106
H4_4 H 0.9382 0.9988 0.6920
loop_
_geom_bond_atom_site_label_1
_geom_bond_atom_site_label_2
_geom_bond_site_symmetry_1
_geom_bond_site_symmetry_2
N1 C13 1_555 1_555
N2 C15 1_555 1_555
C13 O9 1_555 1_555
H5 C13 1_555 1_555
C15 O10 1_555 1_555
C16 N2 1_555 1_555
H10 C16 1_555 1_555
H11 C16 1_555 1_555
H12 C16 1_555 1_555
Zn1 O3 1_555 1_555
S1 C4 1_555 1_555
S2 C9 1_555 1_555
O1 C1 1_555 1_555
O2 C3 1_555 1_555
O3 C8 1_555 1_555
O4 C2 1_555 1_555
O5 C1 1_555 1_555
O6 Zn1 1_555 1_555
O7 C3 1_555 1_555
O8 C8 1_555 1_555
C1 C7 1_555 1_555
C2 O6 1_555 1_555
C3 C10 1_555 1_555
C4 C5 1_555 1_555
C5 H1 1_555 1_555
C6 C5 1_555 1_555
H2 C6 1_555 1_555
C7 S1 1_555 1_555
C8 C4 1_555 1_555
C9 C2 1_555 1_555
C10 S2 1_555 1_555
C11 C9 1_555 1_555
H3 C11 1_555 1_555
C12 C10 1_555 1_555
H4 C12 1_555 1_555
Ca1 O4 1_555 1_555
H17 C18 1_555 1_555
H18 C18 1_555 1_555
Zn2 O2 1_555 1_555
O11 Zn1 1_555 1_555
O12 Zn1 1_555 1_555
O14 Ca1 1_555 1_555
Ca2 O7 1_555 1_555
Ca3 O5 1_555 1_555
O8 Ca1 1_555 1_555
C6 C7 1_555 1_555
C11 C12 1_555 1_555
O12 C3_2 1_555 1_555
O14 C3_2 1_555 1_555
Zn2 O3_2 1_555 1_555
S2_2 C9_2 1_555 1_555
O3_2 C8_2 1_555 1_555
O4_2 C2_2 1_555 1_555
O6_2 Zn2 1_555 1_555
O8_2 C8_2 1_555 1_555
C2_2 O6_2 1_555 1_555
C9_2 C2_2 1_555 1_555
C10_2 S2_2 1_555 1_555
C11_2 C9_2 1_555 1_555
C12_2 C10_2 1_555 1_555
Ca2 O4_2 1_555 1_555
O9_2 Ca2 1_555 1_555
O10_2 Ca2 1_555 1_555
N1_2 C13_2 1_555 1_555
C13_2 O9_2 1_555 1_555
H5_2 C13_2 1_555 1_555
C14 N1_2 1_555 1_555
H6 C14 1_555 1_555
H7 C14 1_555 1_555
H8_2 C14 1_555 1_555
C15_2 O10_2 1_555 1_555
H9_2 C15_2 1_555 1_555
O13_2 Ca2 1_555 1_555
O8_2 Ca2 1_555 1_555
C11_2 C12_2 1_555 1_555
S1_2 C4_2 1_555 1_555
O1_2 C1_2 1_555 1_555
O5_2 C1_2 1_555 1_555
C1_2 C7_2 1_555 1_555
C4_2 C5_2 1_555 1_555
C6_2 C5_2 1_555 1_555
C7_2 S1_2 1_555 1_555
C16_2 N2_2 1_555 1_555
H10_2 C16_2 1_555 1_555
H11_2 C16_2 1_555 1_555
H12_2 C16_2 1_555 1_555
H13_2 C17 1_555 1_555
H14 C17 1_555 1_555
C18_2 N2_2 1_555 1_555
H16_2 C18_2 1_555 1_555
H17_2 C18_2 1_555 1_555
H18_2 C18_2 1_555 1_555
Zn3_2 O1_2 1_555 1_555
C6_2 C7_2 1_555 1_555
Zn3_2 O3_3 1_555 1_555
S1_3 C4_3 1_555 1_555
S2_3 C9_3 1_555 1_555
O11_2 C1_3 1_555 1_555
O2_2 C3_3 1_555 1_555
O3_3 C8_3 1_555 1_555
O4_3 C2_3 1_555 1_555
O13_2 C1_3 1_555 1_555
O6_3 Zn3_2 1_555 1_555
O7_2 C3_3 1_555 1_555
O8_3 C8_3 1_555 1_555
C1_3 C7_3 1_555 1_555
C2_3 O6_3 1_555 1_555
C3_3 C10_3 1_555 1_555
C4_3 C5_3 1_555 1_555
C5_3 H1_3 1_555 1_555
C6_3 C5_3 1_555 1_555
H2_3 C6_3 1_555 1_555
C7_3 S1_3 1_555 1_555
C8_3 C4_3 1_555 1_555
C9_3 C2_3 1_555 1_555
C10_3 S2_3 1_555 1_555
C11_3 C9_3 1_555 1_555
H3_3 C11_3 1_555 1_555
C12_3 C10_3 1_555 1_555
H4_2 C12_3 1_555 1_555
Ca3_2 O4_3 1_555 1_555
H17_3 C18_3 1_555 1_555
H18_3 C18_3 1_555 1_555
Zn3 O2_2 1_555 1_555
O12_2 Zn3_2 1_555 1_555
O14_2 Ca3_2 1_555 1_555
Ca3 O7_2 1_555 1_555
O8_3 Ca3_2 1_555 1_555
C6_3 C7_3 1_555 1_555
C11_3 C12_3 1_555 1_555
N1_3 C13_3 1_555 1_555
N2_3 C15_3 1_555 1_555
C13_3 O9_3 1_555 1_555
H5_3 C13_3 1_555 1_555
C15_3 O10_3 1_555 1_555
C16_3 N2_3 1_555 1_555
H10_3 C16_3 1_555 1_555
H11_3 C16_3 1_555 1_555
H12_3 C16_3 1_555 1_555
S1_4 C4_4 1_555 1_555
O11 C1_4 1_555 1_555
O13 C1_4 1_555 1_555
C1_4 C7_4 1_555 1_555
C4_4 C5_4 1_555 1_555
C6_4 C5_4 1_555 1_555
C7_4 S1_4 1_555 1_555
C16_4 N2_4 1_555 1_555
H10_4 C16_4 1_555 1_555
H11_4 C16_4 1_555 1_555
H12_4 C16_4 1_555 1_555
H13_4 C17_2 1_555 1_555
H14_2 C17_2 1_555 1_555
C18_4 N2_4 1_555 1_555
H16_4 C18_4 1_555 1_555
H17_4 C18_4 1_555 1_555
H18_4 C18_4 1_555 1_555
C6_4 C7_4 1_555 1_555
Zn3 O3_4 1_555 1_555
S2_4 C9_4 1_555 1_555
O3_4 C8_4 1_555 1_555
O4_4 C2_4 1_555 1_555
O6_4 Zn3 1_555 1_555
O8_4 C8_4 1_555 1_555
C2_4 O6_4 1_555 1_555
C9_4 C2_4 1_555 1_555
C10_4 S2_4 1_555 1_555
C11_4 C9_4 1_555 1_555
C12_4 C10_4 1_555 1_555
Ca3 O4_4 1_555 1_555
O9_4 Ca3 1_555 1_555
O10_4 Ca3 1_555 1_555
N1_4 C13_4 1_555 1_555
C13_4 O9_4 1_555 1_555
H5_4 C13_4 1_555 1_555
C14_2 N1_4 1_555 1_555
H6_2 C14_2 1_555 1_555
H7_2 C14_2 1_555 1_555
H8_4 C14_2 1_555 1_555
C15_4 O10_4 1_555 1_555
H9_4 C15_4 1_555 1_555
O8_4 Ca3 1_555 1_555
C11_4 C12_4 1_555 1_555
O12_2 C3_4 1_555 1_555
O14_2 C3_4 1_555 1_555
H6_3 C14_3 1_555 1_555
H7_3 C14_3 1_555 1_555
H14_3 C17_3 1_555 1_555
H15_3 C17_3 1_555 1_555
H6_4 C14_4 1_555 1_555
H7_4 C14_4 1_555 1_555
H14_4 C17_4 1_555 1_555
H15_4 C17_4 1_555 1_555

#END
