
###############################################################################
#
# This file contains modified crystal structure data generated from the
# MOF subset of the Cambridge Structural Database (CSD) v543 
# hosted by the Cambridge Crystallographic Data Centre (CCDC).
#
# This work is licensed under the Creative Commons
# Attribution-NonCommercial-ShareAlike 4.0 International License.
# To view a copy of this license, visit
# http://creativecommons.org/licenses/by-nc-sa/4.0/
# or send a letter to
# Creative Commons, PO Box 1866, Mountain View, CA 94042, USA.
#
# CIF created using the CSD Python API on 29 September 2022
# The structure has been converted into the P1 space group
# The structure has a 3D framework
# The original CSD entry ULIMAF is in the triclinic crystal system
# The framework has been calculated to contain at least 10.0% void space
# The void calculation uses a probe of radius 1.32A, grid spacing 0.4
#
###############################################################################

data_ULIMAF
_chemical_formula_moiety         '(C44 H40 Co6 N16 O8)n'
_symmetry_cell_setting           triclinic
_symmetry_space_group_name_H-M   'P 1'
_symmetry_Int_Tables_number      1
_space_group_name_Hall           'P 1'
loop_
_symmetry_equiv_pos_site_id
_symmetry_equiv_pos_as_xyz
1 x,y,z
_cell_length_a                   8.3894(4)
_cell_length_b                   8.8425(4)
_cell_length_c                   18.1588(7)
_cell_angle_alpha                96.2020(10)
_cell_angle_beta                 93.2370(10)
_cell_angle_gamma                100.4570(10)
_cell_volume                     1312.96
loop_
_atom_site_label
_atom_site_type_symbol
_atom_site_fract_x
_atom_site_fract_y
_atom_site_fract_z
H6 H 0.017(3) 0.108(3) 0.1015(13)
Co6 Co 0.0000 0.0000 0.5000
H12 H 0.024(3) 0.287(3) 0.9918(13)
Co6_2 Co 0.0000 1.0000 0.5000
Co1 Co 0.5000 0.5000 0.0000
O1 O 0.43921(16) 0.44718(17) 0.10605(8)
O2 O 0.19283(17) 0.47471(18) 0.13963(8)
O4 O 0.12019(17) 0.08072(17) 0.40985(8)
C1 C 0.2188(2) 0.2799(2) 0.25093(11)
C2 C 0.2401(2) 0.1979(2) 0.31089(11)
C3 C 0.3254(2) 0.4278(2) 0.14794(11)
N5 N 0.67165(19) 0.35143(18) 0.01472(9)
C4 C 0.0929(2) 0.1381(2) 0.35121(12)
C5 C 0.3517(2) 0.3413(2) 0.21366(11)
C6 C 0.6843(2) 0.2475(2) 0.06203(12)
C7 C 0.8340(2) 0.1997(2) 0.06034(11)
C8 C 0.3947(2) 0.1781(2) 0.33408(12)
C9 C 0.5279(3) 0.2399(3) 0.29736(12)
C10 C 0.5065(2) 0.3216(2) 0.23737(11)
C15 C 0.9125(2) 0.2813(2) 0.00856(12)
C16 C 0.9024(3) 0.0974(2) 0.10989(14)
H1 H 0.115(2) 0.290(2) 0.2344(11)
H2 H 0.603(3) 0.217(2) 0.0924(12)
H7 H 0.603(3) 0.364(2) 0.2138(11)
H10 H 0.631(3) 0.230(2) 0.3130(12)
H13 H 0.893(3) 0.138(3) 0.1611(14)
H14 H 0.406(3) 0.121(3) 0.3737(14)
Co6_3 Co 1.0000 0.0000 0.5000
N17 N 0.67559(19) 0.69299(19) 0.05330(9)
N20 N 0.2035(2) 0.1314(2) 0.56882(10)
Co1_2 Co 0.5000 0.5000 1.0000
N1 N 0.8136(2) 0.3705(2) 0.98277(10)
H8 H 0.826(3) 0.431(3) 0.9462(15)
N14 N 0.32441(19) 0.30701(19) 0.94670(9)
N15 N 0.2320(2) 0.3174(2) 0.88480(10)
C40 C 0.2889(2) 0.1564(2) 0.95619(12)
C41 C 0.1754(2) 0.0715(2) 0.90116(11)
C44 C 0.1422(3) 0.1802(2) 0.85640(12)
H34 H 0.346(2) 0.123(2) 0.9948(12)
H37 H 0.236(3) 0.405(3) 0.8658(15)
H38 H 0.062(3) 0.171(3) 0.8112(14)
O9 O 0.56079(16) 0.55282(17) 0.89395(8)
N18 N 0.32835(19) 0.64857(18) 0.98528(9)
N3 N 0.1240(2) 0.8132(2) 0.48658(10)
N4 N 0.7680(2) 0.6826(2) 0.11520(10)
N6 N 0.7965(2) 0.8686(2) 0.43118(10)
N7 N 0.1542(2) 0.7231(2) 0.53880(12)
N8 N 0.7448(2) 0.8931(2) 0.36291(10)
C11 C 0.7111(2) 0.8436(2) 0.04381(12)
C12 C 0.6831(3) 0.7550(3) 0.44929(13)
C13 C 0.8246(2) 0.9285(2) 0.09884(11)
C14 C 0.2896(2) 0.6542(2) 0.44458(12)
C17 C 0.5589(2) 0.7064(2) 0.39283(13)
C18 C 0.2067(3) 0.7714(3) 0.42964(13)
C19 C 0.8578(3) 0.8198(2) 0.14360(12)
C20 C 0.4052(3) 0.5888(3) 0.39541(15)
C21 C 0.6027(3) 0.7988(3) 0.33849(14)
C22 C 0.2537(3) 0.6271(3) 0.51557(14)
H3 H 0.654(2) 0.877(2) 0.0052(12)
H4 H 0.690(3) 0.718(3) 0.4978(14)
H5 H 0.805(3) 0.971(3) 0.3429(14)
H9 H 0.764(3) 0.595(3) 0.1342(15)
H11 H 0.938(3) 0.829(3) 0.1888(14)
H15 H 0.552(3) 0.802(3) 0.2902(14)
H16 H 0.292(3) 0.553(3) 0.5486(15)
H17 H 0.204(3) 0.824(3) 0.3830(15)
H18 H 0.353(3) 0.559(3) 0.3450(16)
H19 H 0.423(3) 0.489(3) 0.4121(15)
H20 H 0.125(3) 0.740(3) 0.5877(17)
O7 O 0.04485(17) 0.84785(18) 0.67508(8)
N13 N 0.1864(2) 0.6295(2) 0.01723(10)
H36 H 0.174(3) 0.569(3) 0.0538(15)
Co6_4 Co 1.0000 1.0000 0.5000
C38 C 0.3157(2) 0.7525(2) 0.93797(12)
C39 C 0.1660(2) 0.8003(2) 0.93966(11)
C42 C 0.0875(2) 0.7187(2) 0.99144(12)
C43 C 0.0976(3) 0.9026(2) 0.89011(14)
H33 H 0.397(3) 0.783(2) 0.9076(12)
H40 H 0.107(3) 0.862(3) 0.8389(14)
O3 O 0.95515(17) 0.15215(18) 0.32492(8)
N9 N 0.8760(2) 0.1868(2) 0.51342(10)
N11 N 0.8458(2) 0.2769(2) 0.46120(12)
N12 N 0.2552(2) 0.1069(2) 0.63709(10)
C31 C 0.3169(3) 0.2450(3) 0.55071(13)
C32 C 0.7104(2) 0.3458(2) 0.55542(12)
C33 C 0.4411(2) 0.2936(2) 0.60717(13)
C34 C 0.7933(3) 0.2286(3) 0.57036(13)
C35 C 0.5948(3) 0.4112(3) 0.60459(15)
C36 C 0.3973(3) 0.2012(3) 0.66151(14)
C37 C 0.7463(3) 0.3729(3) 0.48443(14)
H22 H 0.310(3) 0.282(3) 0.5022(14)
H23 H 0.195(3) 0.029(3) 0.6571(14)
H27 H 0.448(3) 0.198(3) 0.7098(14)
H28 H 0.708(3) 0.447(3) 0.4514(15)
H29 H 0.796(3) 0.176(3) 0.6170(15)
H30 H 0.647(3) 0.441(3) 0.6550(16)
H31 H 0.577(3) 0.511(3) 0.5879(15)
H32 H 0.875(3) 0.260(3) 0.4123(17)
O6 O 0.80717(17) 0.52529(18) 0.86037(8)
O8 O 0.87981(17) 0.91928(17) 0.59015(8)
C23 C 0.7812(2) 0.7201(2) 0.74907(11)
C24 C 0.7599(2) 0.8021(2) 0.68911(11)
C25 C 0.6746(2) 0.5722(2) 0.85206(11)
C26 C 0.9071(2) 0.8619(2) 0.64879(12)
C27 C 0.6483(2) 0.6587(2) 0.78634(11)
C28 C 0.6053(2) 0.8219(2) 0.66592(12)
C29 C 0.4721(3) 0.7601(3) 0.70264(12)
C30 C 0.4935(2) 0.6784(2) 0.76263(11)
H21 H 0.885(2) 0.710(2) 0.7656(11)
H24 H 0.397(3) 0.636(2) 0.7862(11)
H25 H 0.369(3) 0.770(2) 0.6870(12)
H26 H 0.594(3) 0.879(3) 0.6263(14)
H39 H 0.976(3) 0.713(3) 0.0082(13)
H35 H 0.983(3) 0.892(3) 0.8985(13)
loop_
_geom_bond_atom_site_label_1
_geom_bond_atom_site_label_2
_geom_bond_site_symmetry_1
_geom_bond_site_symmetry_2
Co1 O1 1_555 1_555
Co6 O4 1_555 1_555
O1 C3 1_555 1_555
O2 C3 1_555 1_555
O4 C4 1_555 1_555
C1 C2 1_555 1_555
C2 C4 1_555 1_555
C3 C5 1_555 1_555
N5 Co1 1_555 1_555
C5 C1 1_555 1_555
C6 N5 1_555 1_555
C7 C6 1_555 1_555
C8 C2 1_555 1_555
C9 C8 1_555 1_555
C10 C5 1_555 1_555
C16 C7 1_555 1_555
H1 C1 1_555 1_555
H2 C6 1_555 1_555
H7 C10 1_555 1_555
H10 C9 1_555 1_555
H13 C16 1_555 1_555
H14 C8 1_555 1_555
N17 Co1 1_555 1_555
N20 Co6 1_555 1_555
C7 C15 1_555 1_555
C9 C10 1_555 1_555
H8 N1 1_555 1_555
N14 Co1_2 1_555 1_555
N15 N14 1_555 1_555
C40 N14 1_555 1_555
C41 C40 1_555 1_555
C44 N15 1_555 1_555
H34 C40 1_555 1_555
H37 N15 1_555 1_555
H38 C44 1_555 1_555
O9 Co1_2 1_555 1_555
N18 Co1_2 1_555 1_555
C41 C44 1_555 1_555
N17 N4 1_555 1_555
N3 Co6_2 1_555 1_555
N4 C19 1_555 1_555
N6 N8 1_555 1_555
N7 N3 1_555 1_555
N8 C21 1_555 1_555
C11 N17 1_555 1_555
C12 N6 1_555 1_555
C13 C11 1_555 1_555
C14 C18 1_555 1_555
C17 C12 1_555 1_555
C18 N3 1_555 1_555
C19 C13 1_555 1_555
C20 C14 1_555 1_555
C21 C17 1_555 1_555
C22 N7 1_555 1_555
H3 C11 1_555 1_555
H4 C12 1_555 1_555
H5 N8 1_555 1_555
H9 N4 1_555 1_555
H11 C19 1_555 1_555
H15 C21 1_555 1_555
H16 C22 1_555 1_555
H17 C18 1_555 1_555
H18 C20 1_555 1_555
H19 C20 1_555 1_555
H20 N7 1_555 1_555
H36 N13 1_555 1_555
Co6_4 N6 1_555 1_555
C14 C22 1_555 1_555
C17 C20 1_555 1_555
N18 C38 1_555 1_555
C38 C39 1_555 1_555
C39 C42 1_555 1_555
C43 C39 1_555 1_555
H33 C38 1_555 1_555
H40 C43 1_555 1_555
N9 Co6_3 1_555 1_555
N20 N12 1_555 1_555
N11 N9 1_555 1_555
N12 C36 1_555 1_555
C31 N20 1_555 1_555
C32 C34 1_555 1_555
C33 C31 1_555 1_555
C34 N9 1_555 1_555
C35 C32 1_555 1_555
C36 C33 1_555 1_555
C37 N11 1_555 1_555
H22 C31 1_555 1_555
H23 N12 1_555 1_555
H27 C36 1_555 1_555
H28 C37 1_555 1_555
H29 C34 1_555 1_555
H30 C35 1_555 1_555
H31 C35 1_555 1_555
H32 N11 1_555 1_555
C32 C37 1_555 1_555
C33 C35 1_555 1_555
O9 C25 1_555 1_555
O6 C25 1_555 1_555
O8 Co6_4 1_555 1_555
C23 C24 1_555 1_555
C24 C26 1_555 1_555
C25 C27 1_555 1_555
C26 O8 1_555 1_555
C27 C23 1_555 1_555
C28 C24 1_555 1_555
C29 C28 1_555 1_555
C30 C27 1_555 1_555
H21 C23 1_555 1_555
H24 C30 1_555 1_555
H25 C29 1_555 1_555
H26 C28 1_555 1_555
C29 C30 1_555 1_555

#END
