
###############################################################################
#
# This file contains modified crystal structure data generated from the
# MOF subset of the Cambridge Structural Database (CSD) v543 
# hosted by the Cambridge Crystallographic Data Centre (CCDC).
#
# This work is licensed under the Creative Commons
# Attribution-NonCommercial-ShareAlike 4.0 International License.
# To view a copy of this license, visit
# http://creativecommons.org/licenses/by-nc-sa/4.0/
# or send a letter to
# Creative Commons, PO Box 1866, Mountain View, CA 94042, USA.
#
# CIF created using the CSD Python API on 29 September 2022
# The structure has been converted into the P1 space group
# The structure has a 3D framework
# The original CSD entry ULOYOM is in the tetragonal crystal system
# The framework has been calculated to contain at least 10.0% void space
# The void calculation uses a probe of radius 1.32A, grid spacing 0.4
#
###############################################################################

data_ULOYOM
_chemical_formula_moiety         '(C88 H72 Co4 N16 O16)n'
_symmetry_cell_setting           triclinic
_symmetry_space_group_name_H-M   'P 1'
_symmetry_Int_Tables_number      1
_space_group_name_Hall           'P 1'
loop_
_symmetry_equiv_pos_site_id
_symmetry_equiv_pos_as_xyz
1 x,y,z
_cell_length_a                   14.2163(6)
_cell_length_b                   14.2163(6)
_cell_length_c                   13.4405(13)
_cell_angle_alpha                90
_cell_angle_beta                 90
_cell_angle_gamma                90
_cell_volume                     2716.37
loop_
_atom_site_label
_atom_site_type_symbol
_atom_site_fract_x
_atom_site_fract_y
_atom_site_fract_z
H6 H 0.0093 0.2855 0.4425
Co3 Co 0.0000 0.5000 0.4081(3)
Co1 Co 0.5000 0.0000 0.9081(3)
O2 O 0.6910(4) 0.0785(4) 0.8786(5)
C1 C 0.6688(5) 0.0812(5) 0.9679(7)
H4 H 0.8239 0.1840 0.9458
N6 N 0.4589(4) 0.1194(4) 0.8424(5)
O3 O 0.4059(3) 0.9555(3) 0.0025(4)
N3 N 0.1064(4) 0.7284(4) 0.2529(5)
N4 N 0.0411(4) 0.6194(4) 0.3424(5)
C13 C 0.2716(4) 0.8708(4) 0.0431(6)
C14 C 0.2951(5) 0.8694(5) 0.1412(7)
H10 H 0.3498 0.8997 0.1616
C15 C 0.2405(5) 0.8244(5) 0.2111(7)
H11 H 0.2560 0.8275 0.2783
C16 C 0.1633(5) 0.7753(5) 0.1805(6)
C17 C 0.1401(6) 0.7702(7) 0.0820(7)
H12 H 0.0889 0.7343 0.0618
C18 C 0.1927(6) 0.8183(6) 0.0127(8)
C19 C 0.0649(6) 0.7716(6) 0.3302(7)
H14 H 0.0643 0.8359 0.3431
C20 C 0.0248(6) 0.7045(5) 0.3844(7)
C21 C 0.0917(5) 0.6366(5) 0.2613(6)
C22 C 0.1278(5) 0.5647(6) 0.1940(7)
H16 H 0.0902 0.5633 0.1347
H17 H 0.1254 0.5045 0.2261
H18 H 0.1918 0.5792 0.1768
O3_2 O 0.0941(3) 0.4555(3) 0.5025(4)
O4 O 0.1910(4) 0.4215(4) 0.3786(5)
N3_2 N 0.3936(4) 0.2284(4) 0.7529(5)
C12 C 0.1688(5) 0.4188(5) 0.4679(7)
C13_2 C 0.2284(4) 0.3708(4) 0.5431(6)
C14_2 C 0.2049(5) 0.3694(5) 0.6412(7)
H10_2 H 0.1502 0.3997 0.6616
C15_2 C 0.2595(5) 0.3244(5) 0.7111(7)
H11_2 H 0.2440 0.3275 0.7783
C16_2 C 0.3367(5) 0.2753(5) 0.6805(6)
C17_2 C 0.3599(6) 0.2702(7) 0.5820(7)
H12_2 H 0.4111 0.2343 0.5618
C18_2 C 0.3073(6) 0.3183(6) 0.5127(8)
H13 H 0.3239 0.3160 0.4458
C19_2 C 0.4351(6) 0.2716(6) 0.8302(7)
H14_2 H 0.4357 0.3359 0.8431
C20_2 C 0.4752(6) 0.2045(5) 0.8844(7)
H15 H 0.5093 0.2145 0.9425
C21_2 C 0.4083(5) 0.1366(5) 0.7613(6)
C22_2 C 0.3722(5) 0.0647(6) 0.6940(7)
H16_2 H 0.4098 0.0633 0.6347
H17_2 H 0.3746 0.0045 0.7261
H18_2 H 0.3082 0.0792 0.6768
O1 O 0.5941(3) 0.0445(3) 0.0025(4)
N1 N 0.8936(4) 0.2716(4) 0.2529(5)
N2 N 0.9589(4) 0.3806(4) 0.3424(5)
C2 C 0.7284(4) 0.1292(4) 0.0431(6)
C3 C 0.7049(5) 0.1306(5) 0.1412(7)
H1 H 0.6502 0.1003 0.1616
C4 C 0.7595(5) 0.1756(5) 0.2111(7)
H2 H 0.7440 0.1725 0.2783
C5 C 0.8367(5) 0.2247(5) 0.1805(6)
C6 C 0.8599(6) 0.2298(7) 0.0820(7)
H3 H 0.9111 0.2657 0.0618
C7 C 0.8073(6) 0.1817(6) 0.0127(8)
C8 C 0.9351(6) 0.2284(6) 0.3302(7)
H5 H 0.9357 0.1641 0.3431
C9 C 0.9752(6) 0.2955(5) 0.3844(7)
C10 C 0.9083(5) 0.3634(5) 0.2613(6)
C11 C 0.8722(5) 0.4353(6) 0.1940(7)
H7 H 0.9098 0.4367 0.1347
H8 H 0.8746 0.4955 0.2261
H9 H 0.8082 0.4208 0.1768
Co3_2 Co 1.0000 0.5000 0.4081(3)
Co1_2 Co 0.5000 1.0000 0.9081(3)
O4_2 O 0.3090(4) 0.9215(4) 0.8786(5)
C12_2 C 0.3312(5) 0.9188(5) 0.9679(7)
H13_2 H 0.1761 0.8160 0.9458
N5 N 0.5411(4) 0.8806(4) 0.8424(5)
H15_2 H 0.9907 0.7145 0.4425
O1_2 O 0.9059(3) 0.5445(3) 0.5025(4)
O2_2 O 0.8090(4) 0.5785(4) 0.3786(5)
N1_2 N 0.6064(4) 0.7716(4) 0.7529(5)
C1_2 C 0.8312(5) 0.5812(5) 0.4679(7)
C2_2 C 0.7716(4) 0.6292(4) 0.5431(6)
C3_2 C 0.7951(5) 0.6306(5) 0.6412(7)
H1_2 H 0.8498 0.6003 0.6616
C4_2 C 0.7405(5) 0.6756(5) 0.7111(7)
H2_2 H 0.7560 0.6725 0.7783
C5_2 C 0.6633(5) 0.7247(5) 0.6805(6)
C6_2 C 0.6401(6) 0.7298(7) 0.5820(7)
H3_2 H 0.5889 0.7657 0.5618
C7_2 C 0.6927(6) 0.6817(6) 0.5127(8)
H4_2 H 0.6761 0.6840 0.4458
C8_2 C 0.5649(6) 0.7284(6) 0.8302(7)
H5_2 H 0.5643 0.6641 0.8431
C9_2 C 0.5248(6) 0.7955(5) 0.8844(7)
H6_2 H 0.4907 0.7855 0.9425
C10_2 C 0.5917(5) 0.8634(5) 0.7613(6)
C11_2 C 0.6278(5) 0.9353(6) 0.6940(7)
H7_2 H 0.5902 0.9367 0.6347
H8_2 H 0.6254 0.9955 0.7261
H9_2 H 0.6918 0.9208 0.6768
O3_3 O 0.0445(3) 0.4059(3) 0.0025(4)
N3_3 N 0.2716(4) 0.1064(4) 0.2529(5)
N4_2 N 0.3806(4) 0.0411(4) 0.3424(5)
C13_3 C 0.1292(4) 0.2716(4) 0.0431(6)
C14_3 C 0.1306(5) 0.2951(5) 0.1412(7)
H10_3 H 0.1003 0.3498 0.1616
C15_3 C 0.1756(5) 0.2405(5) 0.2111(7)
H11_3 H 0.1725 0.2560 0.2783
C16_3 C 0.2247(5) 0.1633(5) 0.1805(6)
C17_3 C 0.2298(7) 0.1401(6) 0.0820(7)
H12_3 H 0.2657 0.0889 0.0618
C18_3 C 0.1817(6) 0.1927(6) 0.0127(8)
C19_3 C 0.2284(6) 0.0649(6) 0.3302(7)
H14_3 H 0.1641 0.0643 0.3431
C20_3 C 0.2955(5) 0.0248(6) 0.3844(7)
C21_3 C 0.3634(5) 0.0917(5) 0.2613(6)
C22_3 C 0.4353(6) 0.1278(5) 0.1940(7)
H16_3 H 0.4367 0.0902 0.1347
H17_3 H 0.4955 0.1254 0.2261
H18_3 H 0.4208 0.1918 0.1768
Co2 Co 0.5000 -0.0000 0.4081(3)
H6_3 H 0.7145 0.0093 0.4425
Co1_3 Co 1.0000 0.5000 0.9081(3)
O2_3 O 0.9215(4) 0.6910(4) 0.8786(5)
C1_3 C 0.9188(5) 0.6688(5) 0.9679(7)
H4_3 H 0.8160 0.8239 0.9458
N6_2 N 0.8806(4) 0.4589(4) 0.8424(5)
O3_4 O 0.5445(3) 0.0941(3) 0.5025(4)
O4_3 O 0.5785(4) 0.1910(4) 0.3786(5)
N3_4 N 0.7716(4) 0.3936(4) 0.7529(5)
C12_3 C 0.5812(5) 0.1688(5) 0.4679(7)
C13_4 C 0.6292(4) 0.2284(4) 0.5431(6)
C14_4 C 0.6306(5) 0.2049(5) 0.6412(7)
H10_4 H 0.6003 0.1502 0.6616
C15_4 C 0.6756(5) 0.2595(5) 0.7111(7)
H11_4 H 0.6725 0.2440 0.7783
C16_4 C 0.7247(5) 0.3367(5) 0.6805(6)
C17_4 C 0.7298(7) 0.3599(6) 0.5820(7)
H12_4 H 0.7657 0.4111 0.5618
C18_4 C 0.6817(6) 0.3073(6) 0.5127(8)
H13_3 H 0.6840 0.3239 0.4458
C19_4 C 0.7284(6) 0.4351(6) 0.8302(7)
H14_4 H 0.6641 0.4357 0.8431
C20_4 C 0.7955(5) 0.4752(6) 0.8844(7)
H15_3 H 0.7855 0.5093 0.9425
C21_4 C 0.8634(5) 0.4083(5) 0.7613(6)
C22_4 C 0.9353(6) 0.3722(5) 0.6940(7)
H16_4 H 0.9367 0.4098 0.6347
H17_4 H 0.9955 0.3746 0.7261
H18_4 H 0.9208 0.3082 0.6768
Co1_4 Co 0.0000 0.5000 0.9081(3)
O4_4 O 0.0785(4) 0.3090(4) 0.8786(5)
C12_4 C 0.0812(5) 0.3312(5) 0.9679(7)
H13_4 H 0.1840 0.1761 0.9458
N5_2 N 0.1194(4) 0.5411(4) 0.8424(5)
H15_4 H 0.2855 0.9907 0.4425
Co2_2 Co 0.5000 1.0000 0.4081(3)
O1_3 O 0.9555(3) 0.5941(3) 0.0025(4)
N1_3 N 0.7284(4) 0.8936(4) 0.2529(5)
N2_2 N 0.6194(4) 0.9589(4) 0.3424(5)
C2_3 C 0.8708(4) 0.7284(4) 0.0431(6)
C3_3 C 0.8694(5) 0.7049(5) 0.1412(7)
H1_3 H 0.8997 0.6502 0.1616
C4_3 C 0.8244(5) 0.7595(5) 0.2111(7)
H2_3 H 0.8275 0.7440 0.2783
C5_3 C 0.7753(5) 0.8367(5) 0.1805(6)
C6_3 C 0.7702(7) 0.8599(6) 0.0820(7)
H3_3 H 0.7343 0.9111 0.0618
C7_3 C 0.8183(6) 0.8073(6) 0.0127(8)
C8_3 C 0.7716(6) 0.9351(6) 0.3302(7)
H5_3 H 0.8359 0.9357 0.3431
C9_3 C 0.7045(5) 0.9752(6) 0.3844(7)
C10_3 C 0.6366(5) 0.9083(5) 0.2613(6)
C11_3 C 0.5647(6) 0.8722(5) 0.1940(7)
H7_3 H 0.5633 0.9098 0.1347
H8_3 H 0.5045 0.8746 0.2261
H9_3 H 0.5792 0.8082 0.1768
O1_4 O 0.4555(3) 0.9059(3) 0.5025(4)
O2_4 O 0.4215(4) 0.8090(4) 0.3786(5)
N1_4 N 0.2284(4) 0.6064(4) 0.7529(5)
C1_4 C 0.4188(5) 0.8312(5) 0.4679(7)
C2_4 C 0.3708(4) 0.7716(4) 0.5431(6)
C3_4 C 0.3694(5) 0.7951(5) 0.6412(7)
H1_4 H 0.3997 0.8498 0.6616
C4_4 C 0.3244(5) 0.7405(5) 0.7111(7)
H2_4 H 0.3275 0.7560 0.7783
C5_4 C 0.2753(5) 0.6633(5) 0.6805(6)
C6_4 C 0.2702(7) 0.6401(6) 0.5820(7)
H3_4 H 0.2343 0.5889 0.5618
C7_4 C 0.3183(6) 0.6927(6) 0.5127(8)
H4_4 H 0.3160 0.6761 0.4458
C8_4 C 0.2716(6) 0.5649(6) 0.8302(7)
H5_4 H 0.3359 0.5643 0.8431
C9_4 C 0.2045(5) 0.5248(6) 0.8844(7)
H6_4 H 0.2145 0.4907 0.9425
C10_4 C 0.1366(5) 0.5917(5) 0.7613(6)
C11_4 C 0.0647(6) 0.6278(5) 0.6940(7)
H7_4 H 0.0633 0.5902 0.6347
H8_4 H 0.0045 0.6254 0.7261
H9_4 H 0.0792 0.6918 0.6768
loop_
_geom_bond_atom_site_label_1
_geom_bond_atom_site_label_2
_geom_bond_site_symmetry_1
_geom_bond_site_symmetry_2
O2 C1 1_555 1_555
N6 Co1 1_555 1_555
N3 C16 1_555 1_555
N4 C20 1_555 1_555
C14 C13 1_555 1_555
H10 C14 1_555 1_555
C15 C14 1_555 1_555
H11 C15 1_555 1_555
C16 C15 1_555 1_555
C17 C16 1_555 1_555
H12 C17 1_555 1_555
C18 C13 1_555 1_555
C19 N3 1_555 1_555
H14 C19 1_555 1_555
C20 C19 1_555 1_555
C21 N3 1_555 1_555
C22 C21 1_555 1_555
H16 C22 1_555 1_555
H17 C22 1_555 1_555
H18 C22 1_555 1_555
Co3 N4 1_555 1_555
N4 C21 1_555 1_555
C17 C18 1_555 1_555
O3_2 Co3 1_555 1_555
O4 C12 1_555 1_555
N3_2 C16_2 1_555 1_555
N6 C20_2 1_555 1_555
C12 O3_2 1_555 1_555
C13_2 C12 1_555 1_555
C14_2 C13_2 1_555 1_555
H10_2 C14_2 1_555 1_555
C15_2 C14_2 1_555 1_555
H11_2 C15_2 1_555 1_555
C16_2 C15_2 1_555 1_555
C17_2 C16_2 1_555 1_555
H12_2 C17_2 1_555 1_555
C18_2 C13_2 1_555 1_555
H13 C18_2 1_555 1_555
C19_2 N3_2 1_555 1_555
H14_2 C19_2 1_555 1_555
C20_2 C19_2 1_555 1_555
H15 C20_2 1_555 1_555
C21_2 N3_2 1_555 1_555
C22_2 C21_2 1_555 1_555
H16_2 C22_2 1_555 1_555
H17_2 C22_2 1_555 1_555
H18_2 C22_2 1_555 1_555
N6 C21_2 1_555 1_555
C17_2 C18_2 1_555 1_555
N1 C5 1_555 1_555
N2 C9 1_555 1_555
C2 C3 1_555 1_555
C3 H1 1_555 1_555
C4 C3 1_555 1_555
H2 C4 1_555 1_555
C5 C4 1_555 1_555
C6 C5 1_555 1_555
H3 C6 1_555 1_555
C7 C2 1_555 1_555
C8 N1 1_555 1_555
H5 C8 1_555 1_555
C9 C8 1_555 1_555
C10 N1 1_555 1_555
C11 C10 1_555 1_555
H7 C11 1_555 1_555
H8 C11 1_555 1_555
H9 C11 1_555 1_555
Co3_2 N2 1_555 1_555
N2 C10 1_555 1_555
C6 C7 1_555 1_555
O4_2 C12_2 1_555 1_555
N5 Co1_2 1_555 1_555
Co3_2 O1_2 1_555 1_555
O1_2 C1_2 1_555 1_555
O2_2 C1_2 1_555 1_555
N1_2 C5_2 1_555 1_555
N5 C9_2 1_555 1_555
C1_2 C2_2 1_555 1_555
C2_2 C3_2 1_555 1_555
C3_2 H1_2 1_555 1_555
C4_2 C3_2 1_555 1_555
H2_2 C4_2 1_555 1_555
C5_2 C4_2 1_555 1_555
C6_2 C5_2 1_555 1_555
H3_2 C6_2 1_555 1_555
C7_2 C2_2 1_555 1_555
H4_2 C7_2 1_555 1_555
C8_2 N1_2 1_555 1_555
H5_2 C8_2 1_555 1_555
C9_2 C8_2 1_555 1_555
H6_2 C9_2 1_555 1_555
C10_2 N1_2 1_555 1_555
C11_2 C10_2 1_555 1_555
H7_2 C11_2 1_555 1_555
H8_2 C11_2 1_555 1_555
H9_2 C11_2 1_555 1_555
N5 C10_2 1_555 1_555
C6_2 C7_2 1_555 1_555
N3_3 C16_3 1_555 1_555
N4_2 C20_3 1_555 1_555
C14_3 C13_3 1_555 1_555
H10_3 C14_3 1_555 1_555
C15_3 C14_3 1_555 1_555
H11_3 C15_3 1_555 1_555
C16_3 C15_3 1_555 1_555
C17_3 C16_3 1_555 1_555
H12_3 C17_3 1_555 1_555
C18_3 C13_3 1_555 1_555
C19_3 N3_3 1_555 1_555
H14_3 C19_3 1_555 1_555
C20_3 C19_3 1_555 1_555
C21_3 N3_3 1_555 1_555
C22_3 C21_3 1_555 1_555
H16_3 C22_3 1_555 1_555
H17_3 C22_3 1_555 1_555
H18_3 C22_3 1_555 1_555
Co2 N4_2 1_555 1_555
N4_2 C21_3 1_555 1_555
C17_3 C18_3 1_555 1_555
O2_3 C1_3 1_555 1_555
N6_2 Co1_3 1_555 1_555
O3_4 Co2 1_555 1_555
O4_3 C12_3 1_555 1_555
N3_4 C16_4 1_555 1_555
N6_2 C20_4 1_555 1_555
C12_3 O3_4 1_555 1_555
C13_4 C12_3 1_555 1_555
C14_4 C13_4 1_555 1_555
H10_4 C14_4 1_555 1_555
C15_4 C14_4 1_555 1_555
H11_4 C15_4 1_555 1_555
C16_4 C15_4 1_555 1_555
C17_4 C16_4 1_555 1_555
H12_4 C17_4 1_555 1_555
C18_4 C13_4 1_555 1_555
H13_3 C18_4 1_555 1_555
C19_4 N3_4 1_555 1_555
H14_4 C19_4 1_555 1_555
C20_4 C19_4 1_555 1_555
H15_3 C20_4 1_555 1_555
C21_4 N3_4 1_555 1_555
C22_4 C21_4 1_555 1_555
H16_4 C22_4 1_555 1_555
H17_4 C22_4 1_555 1_555
H18_4 C22_4 1_555 1_555
N6_2 C21_4 1_555 1_555
C17_4 C18_4 1_555 1_555
O4_4 C12_4 1_555 1_555
N5_2 Co1_4 1_555 1_555
N1_3 C5_3 1_555 1_555
N2_2 C9_3 1_555 1_555
C2_3 C3_3 1_555 1_555
C3_3 H1_3 1_555 1_555
C4_3 C3_3 1_555 1_555
H2_3 C4_3 1_555 1_555
C5_3 C4_3 1_555 1_555
C6_3 C5_3 1_555 1_555
H3_3 C6_3 1_555 1_555
C7_3 C2_3 1_555 1_555
C8_3 N1_3 1_555 1_555
H5_3 C8_3 1_555 1_555
C9_3 C8_3 1_555 1_555
C10_3 N1_3 1_555 1_555
C11_3 C10_3 1_555 1_555
H7_3 C11_3 1_555 1_555
H8_3 C11_3 1_555 1_555
H9_3 C11_3 1_555 1_555
Co2_2 N2_2 1_555 1_555
N2_2 C10_3 1_555 1_555
C6_3 C7_3 1_555 1_555
Co2_2 O1_4 1_555 1_555
O1_4 C1_4 1_555 1_555
O2_4 C1_4 1_555 1_555
N1_4 C5_4 1_555 1_555
N5_2 C9_4 1_555 1_555
C1_4 C2_4 1_555 1_555
C2_4 C3_4 1_555 1_555
C3_4 H1_4 1_555 1_555
C4_4 C3_4 1_555 1_555
H2_4 C4_4 1_555 1_555
C5_4 C4_4 1_555 1_555
C6_4 C5_4 1_555 1_555
H3_4 C6_4 1_555 1_555
C7_4 C2_4 1_555 1_555
H4_4 C7_4 1_555 1_555
C8_4 N1_4 1_555 1_555
H5_4 C8_4 1_555 1_555
C9_4 C8_4 1_555 1_555
H6_4 C9_4 1_555 1_555
C10_4 N1_4 1_555 1_555
C11_4 C10_4 1_555 1_555
H7_4 C11_4 1_555 1_555
H8_4 C11_4 1_555 1_555
H9_4 C11_4 1_555 1_555
N5_2 C10_4 1_555 1_555
C6_4 C7_4 1_555 1_555

#END
