
###############################################################################
#
# This file contains modified crystal structure data generated from the
# MOF subset of the Cambridge Structural Database (CSD) v543 
# hosted by the Cambridge Crystallographic Data Centre (CCDC).
#
# This work is licensed under the Creative Commons
# Attribution-NonCommercial-ShareAlike 4.0 International License.
# To view a copy of this license, visit
# http://creativecommons.org/licenses/by-nc-sa/4.0/
# or send a letter to
# Creative Commons, PO Box 1866, Mountain View, CA 94042, USA.
#
# CIF created using the CSD Python API on 29 September 2022
# The structure has been converted into the P1 space group
# The structure has a 3D framework
# The original CSD entry ULUHAN is in the monoclinic crystal system
# The framework has been calculated to contain at least 10.0% void space
# The void calculation uses a probe of radius 1.32A, grid spacing 0.4
#
###############################################################################

data_ULUHAN
_chemical_formula_moiety         '(C88 H72 N16 O16 Zn2)n'
_symmetry_cell_setting           triclinic
_symmetry_space_group_name_H-M   'P 1'
_symmetry_Int_Tables_number      1
_space_group_name_Hall           'P 1'
loop_
_symmetry_equiv_pos_site_id
_symmetry_equiv_pos_as_xyz
1 x,y,z
_cell_length_a                   27.0200(19)
_cell_length_b                   6.0013(4)
_cell_length_c                   20.1364(14)
_cell_angle_alpha                90
_cell_angle_beta                 128.0951(12)
_cell_angle_gamma                90
_cell_volume                     2569.69
loop_
_atom_site_label
_atom_site_type_symbol
_atom_site_fract_x
_atom_site_fract_y
_atom_site_fract_z
Zn1 Zn 0.5000 0.14658(8) 0.2500
O1 O 0.49793(13) 0.3444(4) 0.32417(16)
O2 O 0.4521(2) 0.0705(6) 0.3408(2)
H1 H 0.3990 0.1012 0.0626
C8 C 0.48841(17) 0.3836(5) 0.4322(2)
C9 C 0.46949(19) 0.2974(6) 0.4771(2)
H8 H 0.4484 0.1580 0.4613
C10 C 0.48113(18) 0.4129(6) 0.5446(2)
H9 H 0.4682 0.3525 0.5753
C11 C 0.47704(18) 0.2556(6) 0.3596(2)
O3 O 0.50207(13) 0.6556(4) 0.67583(16)
O4 O 0.5479(2) 0.9295(6) 0.6592(2)
C12 C 0.51159(17) 0.6164(5) 0.5678(2)
C13 C 0.53051(19) 0.7026(6) 0.5229(2)
H10 H 0.5516 0.8420 0.5387
C14 C 0.51887(18) 0.5871(6) 0.4554(2)
H11 H 0.5318 0.6475 0.4247
C15 C 0.52296(18) 0.7444(6) 0.6404(2)
Zn2 Zn 0.5000 0.85342(8) 0.7500
O5 O 0.50207(13) 0.3444(4) 0.17583(16)
O2_2 O 0.5479(2) 0.0705(6) 0.1592(2)
H1_2 H 0.6010 0.1012 0.4374
C8_2 C 0.51159(17) 0.3836(5) 0.0678(2)
C9_2 C 0.53051(19) 0.2974(6) 0.0229(2)
H8_2 H 0.5516 0.1580 0.0387
C11_2 C 0.52296(18) 0.2556(6) 0.1404(2)
C14_2 C 0.48113(18) 0.5871(6) 0.0446(2)
H11_2 H 0.4682 0.6475 0.0753
C10_2 C 0.51887(18) 0.4129(6) 0.9554(2)
H9_2 H 0.5318 0.3525 0.9247
O3_2 O 0.49793(13) 0.6556(4) 0.82417(16)
O4_2 O 0.4521(2) 0.9295(6) 0.8408(2)
C12_2 C 0.48841(17) 0.6164(5) 0.9322(2)
C13_2 C 0.46949(19) 0.7026(6) 0.9771(2)
H10_2 H 0.4484 0.8420 0.9613
C15_2 C 0.47704(18) 0.7444(6) 0.8596(2)
H12 H 0.6010 0.8988 0.9374
H12_2 H 0.3990 0.8988 0.5626
N1 N 0.42786(13) 0.9392(5) 0.16665(17)
N2 N 0.27350(16) 0.3271(6) 0.0280(2)
C1 C 0.39219(16) 0.9711(6) 0.0828(2)
C2 C 0.34635(18) 0.8239(7) 0.0252(2)
C3 C 0.33546(17) 0.6329(6) 0.0530(2)
C4 C 0.37269(18) 0.5995(6) 0.1399(3)
H3 H 0.3671 0.4702 0.1618
C5 C 0.41753(17) 0.7543(6) 0.1937(2)
H4 H 0.4423 0.7292 0.2528
C21 C 0.21421(17) 0.0315(7) 0.0062(3)
C22 C 0.2450(3) 0.0129(13) 0.0968(3)
H16 H 0.2762 0.1320 0.1274
H17 H 0.2134 0.0262 0.1058
N5 N 0.57214(13) 0.9392(5) 0.33335(17)
N2_2 N 0.72650(16) 0.3271(6) 0.4720(2)
C1_2 C 0.60781(16) 0.9711(6) 0.4172(2)
C2_2 C 0.65365(18) 0.8239(7) 0.4748(2)
H2 H 0.6778 0.8532 0.5335
C3_2 C 0.66454(17) 0.6329(6) 0.4470(2)
C4_2 C 0.62731(18) 0.5995(6) 0.3601(3)
H3_2 H 0.6329 0.4702 0.3382
C5_2 C 0.58247(17) 0.7543(6) 0.3063(2)
H4_2 H 0.5577 0.7292 0.2472
C6 C 0.71421(17) 0.4685(7) 0.5062(3)
C7 C 0.7450(3) 0.4871(13) 0.5968(3)
H5 H 0.7762 0.3680 0.6274
H6 H 0.7134 0.4738 0.6058
H7 H 0.7660 0.6321 0.6176
N4 N 0.77350(16) 0.1729(6) 0.5280(2)
H14 H 0.8671 0.0298 0.6618
C21_2 C 0.78579(17) 0.0315(7) 0.4938(3)
C22_2 C 0.7550(3) 0.0129(13) 0.4032(3)
H16_2 H 0.7238 0.1320 0.3726
H17_2 H 0.7866 0.0262 0.3942
H2_2 H 0.3222 0.8532 0.9665
C6_2 C 0.28579(17) 0.4685(7) 0.9938(3)
C7_2 C 0.2550(3) 0.4871(13) 0.9032(3)
H5_2 H 0.2238 0.3680 0.8726
H6_2 H 0.2866 0.4738 0.8942
H7_2 H 0.2340 0.6321 0.8824
N4_2 N 0.22650(16) 0.1729(6) 0.9720(2)
H14_2 H 0.1329 0.0298 0.8382
H13 H 0.1778 0.6468 0.0335
H18 H 0.2660 0.8679 0.1176
N3 N 0.07214(13) 0.5608(5) 0.83335(17)
C16 C 0.10781(16) 0.5289(6) 0.9172(2)
H12_3 H 0.1010 0.3988 0.9374
C17 C 0.15365(18) 0.6761(7) 0.9748(2)
C18 C 0.16454(17) 0.8671(6) 0.9470(2)
C19 C 0.12731(18) 0.9005(6) 0.8601(3)
C20 C 0.08247(17) 0.7457(6) 0.8063(2)
H15 H 0.0577 0.7708 0.7472
Zn3 Zn 0.0000 0.35342(8) 0.7500
O3_3 O 0.00207(13) 0.1556(4) 0.67583(16)
O4_3 O 0.0479(2) 0.4295(6) 0.6592(2)
C12_3 C 0.01159(17) 0.1164(5) 0.5678(2)
C13_3 C 0.03051(19) 0.2026(6) 0.5229(2)
H10_3 H 0.0516 0.3420 0.5387
C14_3 C 0.01887(18) 0.0871(6) 0.4554(2)
H11_3 H 0.0318 0.1475 0.4247
C15_3 C 0.02296(18) 0.2444(6) 0.6404(2)
Zn3_2 Zn 1.0000 0.35342(8) 0.7500
N3_2 N 0.92786(13) 0.5608(5) 0.66665(17)
C16_2 C 0.89219(16) 0.5289(6) 0.5828(2)
H12_4 H 0.8990 0.3988 0.5626
C17_2 C 0.84635(18) 0.6761(7) 0.5252(2)
H13_2 H 0.8222 0.6468 0.4665
C18_2 C 0.83546(17) 0.8671(6) 0.5530(2)
C19_2 C 0.87269(18) 0.9005(6) 0.6399(3)
C20_2 C 0.91753(17) 0.7457(6) 0.6937(2)
H15_2 H 0.9423 0.7708 0.7528
H18_2 H 0.7340 0.8679 0.3824
O3_4 O 0.99793(13) 0.1556(4) 0.82417(16)
O4_4 O 0.9521(2) 0.4295(6) 0.8408(2)
C12_4 C 0.98841(17) 0.1164(5) 0.9322(2)
C13_4 C 0.96949(19) 0.2026(6) 0.9771(2)
H10_4 H 0.9484 0.3420 0.9613
C15_4 C 0.97704(18) 0.2444(6) 0.8596(2)
Zn1_2 Zn -0.0000 0.64658(8) 0.2500
O5_2 O 0.00207(13) 0.8444(4) 0.17583(16)
N5_2 N 0.07214(13) 0.4392(5) 0.33335(17)
O2_3 O 0.0479(2) 0.5705(6) 0.1592(2)
C1_3 C 0.10781(16) 0.4711(6) 0.4172(2)
H1_3 H 0.1010 0.6012 0.4374
C2_3 C 0.15365(18) 0.3239(7) 0.4748(2)
H2_3 H 0.1778 0.3532 0.5335
C3_3 C 0.16454(17) 0.1329(6) 0.4470(2)
C4_3 C 0.12731(18) 0.0995(6) 0.3601(3)
C5_3 C 0.08247(17) 0.2543(6) 0.3063(2)
H4_3 H 0.0577 0.2292 0.2472
H7_3 H 0.2660 0.1321 0.6176
C8_3 C 0.01159(17) 0.8836(5) 0.0678(2)
C9_3 C 0.03051(19) 0.7974(6) 0.0229(2)
H8_3 H 0.0516 0.6580 0.0387
C11_3 C 0.02296(18) 0.7556(6) 0.1404(2)
Zn1_3 Zn 1.0000 0.64658(8) 0.2500
O1_2 O 0.99793(13) 0.8444(4) 0.32417(16)
O2_4 O 0.9521(2) 0.5705(6) 0.3408(2)
N1_2 N 0.92786(13) 0.4392(5) 0.16665(17)
C1_4 C 0.89219(16) 0.4711(6) 0.0828(2)
H1_4 H 0.8990 0.6012 0.0626
C2_4 C 0.84635(18) 0.3239(7) 0.0252(2)
C3_4 C 0.83546(17) 0.1329(6) 0.0530(2)
C4_4 C 0.87269(18) 0.0995(6) 0.1399(3)
C5_4 C 0.91753(17) 0.2543(6) 0.1937(2)
H4_4 H 0.9423 0.2292 0.2528
C8_4 C 0.98841(17) 0.8836(5) 0.4322(2)
C9_4 C 0.96949(19) 0.7974(6) 0.4771(2)
H8_4 H 0.9484 0.6580 0.4613
C10_3 C 0.98113(18) 0.9129(6) 0.5446(2)
H9_3 H 0.9682 0.8525 0.5753
C11_4 C 0.97704(18) 0.7556(6) 0.3596(2)
H2_4 H 0.8222 0.3532 0.9665
H7_4 H 0.7340 0.1321 0.8824
N2_3 N 0.77350(16) 0.8271(6) 0.0280(2)
H3_3 H 0.8671 0.9702 0.1618
H13_3 H 0.6778 0.1468 0.0335
C21_3 C 0.71421(17) 0.5315(7) 0.0062(3)
C22_3 C 0.7450(3) 0.5129(13) 0.0968(3)
H16_3 H 0.7762 0.6320 0.1274
H17_3 H 0.7134 0.5262 0.1058
H18_3 H 0.7660 0.3679 0.1176
C6_3 C 0.78579(17) 0.9685(7) 0.9938(3)
C7_3 C 0.7550(3) 0.9871(13) 0.9032(3)
H5_3 H 0.7238 0.8680 0.8726
H6_3 H 0.7866 0.9738 0.8942
N3_3 N 0.57214(13) 0.0608(5) 0.83335(17)
N4_3 N 0.72650(16) 0.6729(6) 0.9720(2)
C16_3 C 0.60781(16) 0.0289(6) 0.9172(2)
C17_3 C 0.65365(18) 0.1761(7) 0.9748(2)
C18_3 C 0.66454(17) 0.3671(6) 0.9470(2)
C19_3 C 0.62731(18) 0.4005(6) 0.8601(3)
H14_3 H 0.6329 0.5298 0.8382
C20_3 C 0.58247(17) 0.2457(6) 0.8063(2)
H15_3 H 0.5577 0.2708 0.7472
N2_4 N 0.22650(16) 0.8271(6) 0.4720(2)
H3_4 H 0.1329 0.9702 0.3382
C6_4 C 0.21421(17) 0.9685(7) 0.5062(3)
C7_4 C 0.2450(3) 0.9871(13) 0.5968(3)
H5_4 H 0.2762 0.8680 0.6274
H6_4 H 0.2134 0.9738 0.6058
N3_4 N 0.42786(13) 0.0608(5) 0.66665(17)
N4_4 N 0.27350(16) 0.6729(6) 0.5280(2)
C16_4 C 0.39219(16) 0.0289(6) 0.5828(2)
C17_4 C 0.34635(18) 0.1761(7) 0.5252(2)
H13_4 H 0.3222 0.1468 0.4665
C18_4 C 0.33546(17) 0.3671(6) 0.5530(2)
C19_4 C 0.37269(18) 0.4005(6) 0.6399(3)
H14_4 H 0.3671 0.5298 0.6618
C20_4 C 0.41753(17) 0.2457(6) 0.6937(2)
H15_4 H 0.4423 0.2708 0.7528
C21_4 C 0.28579(17) 0.5315(7) 0.4938(3)
C22_4 C 0.2550(3) 0.5129(13) 0.4032(3)
H16_4 H 0.2238 0.6320 0.3726
H17_4 H 0.2866 0.5262 0.3942
H18_4 H 0.2340 0.3679 0.3824
C10_4 C 0.01887(18) 0.9129(6) 0.9554(2)
H9_4 H 0.0318 0.8525 0.9247
C14_4 C 0.98113(18) 0.0871(6) 0.0446(2)
H11_4 H 0.9682 0.1475 0.0753
loop_
_geom_bond_atom_site_label_1
_geom_bond_atom_site_label_2
_geom_bond_site_symmetry_1
_geom_bond_site_symmetry_2
Zn1 O1 1_555 1_555
O1 C11 1_555 1_555
O2 C11 1_555 1_555
C8 C9 1_555 1_555
C9 H8 1_555 1_555
C10 C9 1_555 1_555
H9 C10 1_555 1_555
C11 C8 1_555 1_555
O3 C15 1_555 1_555
O4 C15 1_555 1_555
C12 C10 1_555 1_555
C13 C12 1_555 1_555
H10 C13 1_555 1_555
C14 C8 1_555 1_555
H11 C14 1_555 1_555
C15 C12 1_555 1_555
Zn2 O3 1_555 1_555
O5 Zn1 1_555 1_555
C13 C14 1_555 1_555
O5 C11_2 1_555 1_555
O2_2 C11_2 1_555 1_555
C8_2 C9_2 1_555 1_555
C9_2 H8_2 1_555 1_555
C11_2 C8_2 1_555 1_555
C14_2 C8_2 1_555 1_555
H11_2 C14_2 1_555 1_555
H9_2 C10_2 1_555 1_555
O3_2 C15_2 1_555 1_555
O4_2 C15_2 1_555 1_555
C12_2 C10_2 1_555 1_555
C13_2 C12_2 1_555 1_555
H10_2 C13_2 1_555 1_555
C15_2 C12_2 1_555 1_555
Zn2 O3_2 1_555 1_555
C1 N1 1_555 1_555
C2 C1 1_555 1_555
C3 C2 1_555 1_555
C4 C3 1_555 1_555
H3 C4 1_555 1_555
C5 N1 1_555 1_555
H4 C5 1_555 1_555
C22 C21 1_555 1_555
H16 C22 1_555 1_555
H17 C22 1_555 1_555
C4 C5 1_555 1_555
N2_2 C6 1_555 1_555
C1_2 N5 1_555 1_555
C2_2 C1_2 1_555 1_555
H2 C2_2 1_555 1_555
C3_2 C2_2 1_555 1_555
C4_2 C3_2 1_555 1_555
H3_2 C4_2 1_555 1_555
C5_2 N5 1_555 1_555
H4_2 C5_2 1_555 1_555
C6 C3_2 1_555 1_555
C7 C6 1_555 1_555
H5 C7 1_555 1_555
H6 C7 1_555 1_555
H7 C7 1_555 1_555
N4 N2_2 1_555 1_555
C21_2 N4 1_555 1_555
C22_2 C21_2 1_555 1_555
H16_2 C22_2 1_555 1_555
H17_2 C22_2 1_555 1_555
C4_2 C5_2 1_555 1_555
C7_2 C6_2 1_555 1_555
H5_2 C7_2 1_555 1_555
H6_2 C7_2 1_555 1_555
H7_2 C7_2 1_555 1_555
N3 C16 1_555 1_555
C16 H12_3 1_555 1_555
C17 C16 1_555 1_555
C18 C17 1_555 1_555
C19 C18 1_555 1_555
C20 N3 1_555 1_555
H15 C20 1_555 1_555
Zn3 N3 1_555 1_555
C19 C20 1_555 1_555
O3_3 C15_3 1_555 1_555
O4_3 C15_3 1_555 1_555
C13_3 C12_3 1_555 1_555
H10_3 C13_3 1_555 1_555
H11_3 C14_3 1_555 1_555
C15_3 C12_3 1_555 1_555
Zn3 O3_3 1_555 1_555
C13_3 C14_3 1_555 1_555
N3_2 C16_2 1_555 1_555
C16_2 H12_4 1_555 1_555
C17_2 C16_2 1_555 1_555
H13_2 C17_2 1_555 1_555
C18_2 C17_2 1_555 1_555
C19_2 C18_2 1_555 1_555
C20_2 N3_2 1_555 1_555
H15_2 C20_2 1_555 1_555
Zn3_2 N3_2 1_555 1_555
C19_2 C20_2 1_555 1_555
O3_4 C15_4 1_555 1_555
O4_4 C15_4 1_555 1_555
C13_4 C12_4 1_555 1_555
H10_4 C13_4 1_555 1_555
C15_4 C12_4 1_555 1_555
Zn3_2 O3_4 1_555 1_555
O5_2 Zn1_2 1_555 1_555
N5_2 Zn1_2 1_555 1_555
O5_2 C11_3 1_555 1_555
O2_3 C11_3 1_555 1_555
C1_3 N5_2 1_555 1_555
H1_3 C1_3 1_555 1_555
C2_3 C1_3 1_555 1_555
H2_3 C2_3 1_555 1_555
C3_3 C2_3 1_555 1_555
C4_3 C3_3 1_555 1_555
C5_3 N5_2 1_555 1_555
H4_3 C5_3 1_555 1_555
C8_3 C9_3 1_555 1_555
C9_3 H8_3 1_555 1_555
C11_3 C8_3 1_555 1_555
C4_3 C5_3 1_555 1_555
Zn1_3 O1_2 1_555 1_555
O1_2 C11_4 1_555 1_555
O2_4 C11_4 1_555 1_555
N1_2 Zn1_3 1_555 1_555
C1_4 N1_2 1_555 1_555
H1_4 C1_4 1_555 1_555
C2_4 C1_4 1_555 1_555
C3_4 C2_4 1_555 1_555
C4_4 C3_4 1_555 1_555
C5_4 N1_2 1_555 1_555
H4_4 C5_4 1_555 1_555
C8_4 C9_4 1_555 1_555
C9_4 H8_4 1_555 1_555
C10_3 C9_4 1_555 1_555
H9_3 C10_3 1_555 1_555
C11_4 C8_4 1_555 1_555
C4_4 C5_4 1_555 1_555
C22_3 C21_3 1_555 1_555
H16_3 C22_3 1_555 1_555
H17_3 C22_3 1_555 1_555
H18_3 C22_3 1_555 1_555
C7_3 C6_3 1_555 1_555
H5_3 C7_3 1_555 1_555
H6_3 C7_3 1_555 1_555
N3_3 C16_3 1_555 1_555
C17_3 C16_3 1_555 1_555
C18_3 C17_3 1_555 1_555
C19_3 C18_3 1_555 1_555
H14_3 C19_3 1_555 1_555
C20_3 N3_3 1_555 1_555
H15_3 C20_3 1_555 1_555
C19_3 C20_3 1_555 1_555
N2_4 C6_4 1_555 1_555
C7_4 C6_4 1_555 1_555
H5_4 C7_4 1_555 1_555
H6_4 C7_4 1_555 1_555
N3_4 C16_4 1_555 1_555
N4_4 N2_4 1_555 1_555
C17_4 C16_4 1_555 1_555
H13_4 C17_4 1_555 1_555
C18_4 C17_4 1_555 1_555
C19_4 C18_4 1_555 1_555
H14_4 C19_4 1_555 1_555
C20_4 N3_4 1_555 1_555
H15_4 C20_4 1_555 1_555
C21_4 N4_4 1_555 1_555
C22_4 C21_4 1_555 1_555
H16_4 C22_4 1_555 1_555
H17_4 C22_4 1_555 1_555
H18_4 C22_4 1_555 1_555
C18_4 C21_4 1_555 1_555
C19_4 C20_4 1_555 1_555
H9_4 C10_4 1_555 1_555
H11_4 C14_4 1_555 1_555

#END
