
###############################################################################
#
# This file contains modified crystal structure data generated from the
# MOF subset of the Cambridge Structural Database (CSD) v543 
# hosted by the Cambridge Crystallographic Data Centre (CCDC).
#
# This work is licensed under the Creative Commons
# Attribution-NonCommercial-ShareAlike 4.0 International License.
# To view a copy of this license, visit
# http://creativecommons.org/licenses/by-nc-sa/4.0/
# or send a letter to
# Creative Commons, PO Box 1866, Mountain View, CA 94042, USA.
#
# CIF created using the CSD Python API on 29 September 2022
# The structure has been converted into the P1 space group
# The structure has a 3D framework
# The original CSD entry UMABIV is in the orthorhombic crystal system
# The framework has been calculated to contain at least 10.0% void space
# The void calculation uses a probe of radius 1.32A, grid spacing 0.4
# H atom positions have been added when not included in the experimental data
# Generated hydrogen atom positions removed from atoms on special positions
#
###############################################################################

data_UMABIV
_chemical_formula_moiety         '(C96 H116 Cd12 Cl9 N16 O64)n'
_symmetry_cell_setting           triclinic
_symmetry_space_group_name_H-M   'P 1'
_symmetry_Int_Tables_number      1
_space_group_name_Hall           'P 1'
loop_
_symmetry_equiv_pos_site_id
_symmetry_equiv_pos_as_xyz
1 x,y,z
_cell_length_a                   19.707(2)
_cell_length_b                   18.1754(15)
_cell_length_c                   12.6085(13)
_cell_angle_alpha                90
_cell_angle_beta                 90
_cell_angle_gamma                90
_cell_volume                     4516.15
loop_
_atom_site_label
_atom_site_type_symbol
_atom_site_fract_x
_atom_site_fract_y
_atom_site_fract_z
Cd2 Cd 0.15888(2) 0.16339(3) 0.21163(13)
O2 O 0.1058(4) 0.2143(4) 0.0718(5)
H4 H 0.0283 0.3155 0.0111
O5 O 0.2500 0.1234(4) 0.1225(6)
H9 H 0.2500 0.0687 0.1304
O6 O 0.1022(5) 0.0523(4) 0.1887(10)
Cd3 Cd 0.34112(2) 0.16339(3) 0.21163(13)
O11 O 0.3942(4) 0.2143(4) 0.0718(5)
H17 H 0.4717 0.3155 0.0111
O12 O 0.3978(5) 0.0523(4) 0.1887(10)
N5 N 0.0652(4) 0.2092(4) 0.3022(6)
N6 N 0.4348(4) 0.2092(4) 0.3022(6)
O13 O 0.1936(3) 0.1162(5) 0.3715(6)
O14 O 0.3064(3) 0.1162(5) 0.3715(6)
O15 O 0.3044(4) 0.2784(5) 0.2490(10)
O16 O 0.1956(4) 0.2784(5) 0.2490(10)
H18 H 0.222861 0.287671 0.0152521
Cd1 Cd 0.2500 0.14500(3) 0.94683(13)
O1 O 0.1336(3) 0.1466(3) 0.9315(5)
C1 C 0.0977(4) 0.1929(4) 0.9786(7)
C2 C 0.0395(4) 0.2246(4) 0.9156(6)
C3 C 0.0147(4) 0.1923(4) 0.8264(7)
H1 H 0.0332 0.1472 0.8020
C6 C 0.0119(4) 0.2920(4) 0.9488(7)
N2 N 0.2500 0.1490(6) 0.7555(10)
C7 C 0.1935(7) 0.1432(8) 0.7023(14)
H5 H 0.1519 0.1477 0.7398
C8 C 0.1910(6) 0.1307(8) 0.5929(11)
H6 H 0.1484 0.1234 0.5590
C9 C 0.2500 0.1289(7) 0.5339(9)
C10 C 0.2500 0.1215(6) 0.4152(9)
N3 N 0.2500 0.0205(5) 0.9043(9)
H7 H 0.3473 0.0096 0.8985
O7 O 0.2500 0.2710(5) 0.9534(12)
C15 C 0.3065(7) 0.1432(8) 0.7023(14)
H10 H 0.3481 0.1477 0.7398
C16 C 0.3090(6) 0.1307(8) 0.5929(11)
H11 H 0.3516 0.1234 0.5590
H12 H 0.1527 0.0096 0.8985
O10 O 0.3664(3) 0.1466(3) 0.9315(5)
C19 C 0.4023(4) 0.1929(4) 0.9786(7)
C20 C 0.4605(4) 0.2246(4) 0.9156(6)
C21 C 0.4853(4) 0.1923(4) 0.8264(7)
H14 H 0.4668 0.1472 0.8020
C22 C 0.5372(4) 0.2255(5) 0.7721(7)
H15 H 0.5545 0.2018 0.7105
N4 N 0.5652(4) 0.2908(4) 0.8022(6)
C23 C 0.5397(4) 0.3240(5) 0.8895(8)
H16 H 0.5576 0.3702 0.9108
C24 C 0.4881(4) 0.2920(4) 0.9488(7)
Cd9 Cd 0.65888(2) 0.33661(3) 0.71163(13)
H19 H 0.297337 0.289042 0.960609
C11 C 0.3056(5) 0.9856(5) 0.8836(11)
C12 C 0.3084(5) 0.9155(6) 0.8412(14)
H8 H 0.3507 0.8921 0.8288
C13 C 0.2500 0.8811(6) 0.8179(10)
C14 C 0.2500 0.8059(6) 0.7666(9)
O4 O 0.3044(4) 0.7784(5) 0.7490(10)
C17 C 0.1944(5) 0.9856(5) 0.8836(11)
C18 C 0.1916(5) 0.9155(6) 0.8412(14)
H13 H 0.1493 0.8921 0.8288
O9 O 0.1956(4) 0.7784(5) 0.7490(10)
Cd6 Cd 0.15888(2) 0.66339(3) 0.71163(13)
Cd8 Cd 0.34112(2) 0.66339(3) 0.71163(13)
C4 C 0.9628(4) 0.2255(5) 0.7721(7)
H2 H 0.9455 0.2018 0.7105
N1 N 0.9348(4) 0.2908(4) 0.8022(6)
C5 C 0.9603(4) 0.3240(5) 0.8895(8)
H3 H 0.9424 0.3702 0.9108
Cd7 Cd 0.84112(2) 0.33661(3) 0.71163(13)
C4_2 C 0.0372(4) 0.7745(5) 0.7721(7)
H2_2 H 0.0545 0.7982 0.7105
N1_2 N 0.0652(4) 0.7092(4) 0.8022(6)
C5_2 C 0.0397(4) 0.6760(5) 0.8895(8)
H3_2 H 0.0576 0.6298 0.9108
C11_2 C 0.6944(5) 0.0144(5) 0.8836(11)
C12_2 C 0.6916(5) 0.0845(6) 0.8412(14)
H8_2 H 0.6493 0.1079 0.8288
C13_2 C 0.7500 0.1189(6) 0.8179(10)
C14_2 C 0.7500 0.1941(6) 0.7666(9)
O4_2 O 0.6956(4) 0.2216(5) 0.7490(10)
C17_2 C 0.8056(5) 0.0144(5) 0.8836(11)
C18_2 C 0.8084(5) 0.0845(6) 0.8412(14)
H13_2 H 0.8507 0.1079 0.8288
O9_2 O 0.8044(4) 0.2216(5) 0.7490(10)
Cd2_2 Cd 0.84112(2) 0.83661(3) 0.21163(13)
O2_2 O 0.8942(4) 0.7857(4) 0.0718(5)
H4_2 H 0.9717 0.6845 0.0111
O5_2 O 0.7500 0.8766(4) 0.1225(6)
H9_2 H 0.7500 0.9313 0.1304
O6_2 O 0.8978(5) 0.9477(4) 0.1887(10)
Cd3_2 Cd 0.65888(2) 0.83661(3) 0.21163(13)
O11_2 O 0.6058(4) 0.7857(4) 0.0718(5)
H17_2 H 0.5283 0.6845 0.0111
O12_2 O 0.6022(5) 0.9477(4) 0.1887(10)
N5_2 N 0.9348(4) 0.7908(4) 0.3022(6)
N6_2 N 0.5652(4) 0.7908(4) 0.3022(6)
O13_2 O 0.8064(3) 0.8838(5) 0.3715(6)
O14_2 O 0.6936(3) 0.8838(5) 0.3715(6)
O15_2 O 0.6956(4) 0.7216(5) 0.2490(10)
O16_2 O 0.8044(4) 0.7216(5) 0.2490(10)
H18_2 H 0.777139 0.712329 0.0152521
Cd1_2 Cd 0.7500 0.85500(3) 0.94683(13)
O1_2 O 0.8664(3) 0.8534(3) 0.9315(5)
C1_2 C 0.9023(4) 0.8071(4) 0.9786(7)
C2_2 C 0.9605(4) 0.7754(4) 0.9156(6)
C3_2 C 0.9853(4) 0.8077(4) 0.8264(7)
H1_2 H 0.9668 0.8528 0.8020
C6_2 C 0.9881(4) 0.7080(4) 0.9488(7)
N2_2 N 0.7500 0.8510(6) 0.7555(10)
C7_2 C 0.8065(7) 0.8568(8) 0.7023(14)
H5_2 H 0.8481 0.8523 0.7398
C8_2 C 0.8090(6) 0.8693(8) 0.5929(11)
H6_2 H 0.8516 0.8766 0.5590
C9_2 C 0.7500 0.8711(7) 0.5339(9)
C10_2 C 0.7500 0.8785(6) 0.4152(9)
N3_2 N 0.7500 0.9795(5) 0.9043(9)
H7_2 H 0.6527 0.9904 0.8985
O7_2 O 0.7500 0.7290(5) 0.9534(12)
C15_2 C 0.6935(7) 0.8568(8) 0.7023(14)
H10_2 H 0.6519 0.8523 0.7398
C16_2 C 0.6910(6) 0.8693(8) 0.5929(11)
H11_2 H 0.6484 0.8766 0.5590
H12_2 H 0.8473 0.9904 0.8985
O10_2 O 0.6336(3) 0.8534(3) 0.9315(5)
C19_2 C 0.5977(4) 0.8071(4) 0.9786(7)
C20_2 C 0.5395(4) 0.7754(4) 0.9156(6)
C21_2 C 0.5147(4) 0.8077(4) 0.8264(7)
H14_2 H 0.5332 0.8528 0.8020
C22_2 C 0.4628(4) 0.7745(5) 0.7721(7)
H15_2 H 0.4455 0.7982 0.7105
N4_2 N 0.4348(4) 0.7092(4) 0.8022(6)
C23_2 C 0.4603(4) 0.6760(5) 0.8895(8)
H16_2 H 0.4424 0.6298 0.9108
C24_2 C 0.5119(4) 0.7080(4) 0.9488(7)
H19_2 H 0.702663 0.710958 0.960609
H18_3 H 0.277139 0.287671 0.0152521
H19_3 H 0.202663 0.289042 0.960609
H18_4 H 0.722861 0.712329 0.0152521
H19_4 H 0.797337 0.710958 0.960609
Cd1_3 Cd 0.2500 0.64500(3) 0.44683(13)
O1_3 O 0.1336(3) 0.6466(3) 0.4315(5)
O2_3 O 0.1058(4) 0.7143(4) 0.5718(5)
C1_3 C 0.0977(4) 0.6929(4) 0.4786(7)
C2_3 C 0.0395(4) 0.7246(4) 0.4156(6)
C3_3 C 0.0147(4) 0.6923(4) 0.3264(7)
H1_3 H 0.0332 0.6472 0.3020
C6_3 C 0.0119(4) 0.7920(4) 0.4488(7)
H4_3 H 0.0283 0.8155 0.5111
N2_3 N 0.2500 0.6490(6) 0.2555(10)
C7_3 C 0.1935(7) 0.6432(8) 0.2023(14)
H5_3 H 0.1519 0.6477 0.2398
C8_3 C 0.1910(6) 0.6307(8) 0.0929(11)
H6_3 H 0.1484 0.6234 0.0590
C9_3 C 0.2500 0.6289(7) 0.0339(9)
N3_3 N 0.2500 0.5205(5) 0.4043(9)
C11_3 C 0.3056(5) 0.4856(5) 0.3836(11)
H7_3 H 0.3473 0.5096 0.3985
C12_3 C 0.3084(5) 0.4155(6) 0.3412(14)
H8_3 H 0.3507 0.3921 0.3288
C13_3 C 0.2500 0.3811(6) 0.3179(10)
C14_3 C 0.2500 0.3059(6) 0.2666(9)
O5_3 O 0.2500 0.6234(4) 0.6225(6)
H9_3 H 0.2500 0.5687 0.6304
O6_3 O 0.1022(5) 0.5523(4) 0.6887(10)
O7_3 O 0.2500 0.7710(5) 0.4534(12)
C15_3 C 0.3065(7) 0.6432(8) 0.2023(14)
H10_3 H 0.3481 0.6477 0.2398
C16_3 C 0.3090(6) 0.6307(8) 0.0929(11)
H11_3 H 0.3516 0.6234 0.0590
C17_3 C 0.1944(5) 0.4856(5) 0.3836(11)
H12_3 H 0.1527 0.5096 0.3985
C18_3 C 0.1916(5) 0.4155(6) 0.3412(14)
H13_3 H 0.1493 0.3921 0.3288
O10_3 O 0.3664(3) 0.6466(3) 0.4315(5)
O11_3 O 0.3942(4) 0.7143(4) 0.5718(5)
C19_3 C 0.4023(4) 0.6929(4) 0.4786(7)
C20_3 C 0.4605(4) 0.7246(4) 0.4156(6)
C21_3 C 0.4853(4) 0.6923(4) 0.3264(7)
H14_3 H 0.4668 0.6472 0.3020
C22_3 C 0.5372(4) 0.7255(5) 0.2721(7)
H15_3 H 0.5545 0.7018 0.2105
C23_3 C 0.5397(4) 0.8240(5) 0.3895(8)
H16_3 H 0.5576 0.8702 0.4108
C24_3 C 0.4881(4) 0.7920(4) 0.4488(7)
H17_3 H 0.4717 0.8155 0.5111
O12_3 O 0.3978(5) 0.5523(4) 0.6887(10)
O13_3 O 0.1936(3) 0.6162(5) 0.8715(6)
O14_3 O 0.3064(3) 0.6162(5) 0.8715(6)
C10_3 C 0.2500 0.6215(6) 0.9152(9)
C4_3 C 0.9628(4) 0.7255(5) 0.2721(7)
H2_3 H 0.9455 0.7018 0.2105
C5_3 C 0.9603(4) 0.8240(5) 0.3895(8)
H3_3 H 0.9424 0.8702 0.4108
C4_4 C 0.0372(4) 0.2745(5) 0.2721(7)
H2_4 H 0.0545 0.2982 0.2105
C5_4 C 0.0397(4) 0.1760(5) 0.3895(8)
H3_4 H 0.0576 0.1298 0.4108
Cd1_4 Cd 0.7500 0.35500(3) 0.44683(13)
O1_4 O 0.8664(3) 0.3534(3) 0.4315(5)
O2_4 O 0.8942(4) 0.2857(4) 0.5718(5)
C1_4 C 0.9023(4) 0.3071(4) 0.4786(7)
C2_4 C 0.9605(4) 0.2754(4) 0.4156(6)
C3_4 C 0.9853(4) 0.3077(4) 0.3264(7)
H1_4 H 0.9668 0.3528 0.3020
C6_4 C 0.9881(4) 0.2080(4) 0.4488(7)
H4_4 H 0.9717 0.1845 0.5111
N2_4 N 0.7500 0.3510(6) 0.2555(10)
C7_4 C 0.8065(7) 0.3568(8) 0.2023(14)
H5_4 H 0.8481 0.3523 0.2398
C8_4 C 0.8090(6) 0.3693(8) 0.0929(11)
H6_4 H 0.8516 0.3766 0.0590
C9_4 C 0.7500 0.3711(7) 0.0339(9)
N3_4 N 0.7500 0.4795(5) 0.4043(9)
C11_4 C 0.6944(5) 0.5144(5) 0.3836(11)
H7_4 H 0.6527 0.4904 0.3985
C12_4 C 0.6916(5) 0.5845(6) 0.3412(14)
H8_4 H 0.6493 0.6079 0.3288
C13_4 C 0.7500 0.6189(6) 0.3179(10)
C14_4 C 0.7500 0.6941(6) 0.2666(9)
O5_4 O 0.7500 0.3766(4) 0.6225(6)
H9_4 H 0.7500 0.4313 0.6304
O6_4 O 0.8978(5) 0.4477(4) 0.6887(10)
O7_4 O 0.7500 0.2290(5) 0.4534(12)
C15_4 C 0.6935(7) 0.3568(8) 0.2023(14)
H10_4 H 0.6519 0.3523 0.2398
C16_4 C 0.6910(6) 0.3693(8) 0.0929(11)
H11_4 H 0.6484 0.3766 0.0590
C17_4 C 0.8056(5) 0.5144(5) 0.3836(11)
H12_4 H 0.8473 0.4904 0.3985
C18_4 C 0.8084(5) 0.5845(6) 0.3412(14)
H13_4 H 0.8507 0.6079 0.3288
O10_4 O 0.6336(3) 0.3534(3) 0.4315(5)
O11_4 O 0.6058(4) 0.2857(4) 0.5718(5)
C19_4 C 0.5977(4) 0.3071(4) 0.4786(7)
C20_4 C 0.5395(4) 0.2754(4) 0.4156(6)
C21_4 C 0.5147(4) 0.3077(4) 0.3264(7)
H14_4 H 0.5332 0.3528 0.3020
C22_4 C 0.4628(4) 0.2745(5) 0.2721(7)
H15_4 H 0.4455 0.2982 0.2105
C23_4 C 0.4603(4) 0.1760(5) 0.3895(8)
H16_4 H 0.4424 0.1298 0.4108
C24_4 C 0.5119(4) 0.2080(4) 0.4488(7)
H17_4 H 0.5283 0.1845 0.5111
O12_4 O 0.6022(5) 0.4477(4) 0.6887(10)
O13_4 O 0.8064(3) 0.3838(5) 0.8715(6)
O14_4 O 0.6936(3) 0.3838(5) 0.8715(6)
C10_4 C 0.7500 0.3785(6) 0.9152(9)
Cl1 Cl 0.0000 0.0000 0.6479(2)
O18 O 0.0124(8) 0.0590(2) 0.5862(3)
Cl1_2 Cl 0.0000 1.0000 0.6479(2)
O19 O 0.05443(19) 0.9865(9) 0.7096(3)
Cl1_3 Cl 1.0000 0.0000 0.6479(2)
O17 O 0.94557(19) 0.0135(9) 0.7096(3)
Cl1_4 Cl 1.0000 1.0000 0.6479(2)
O20 O 0.9876(8) 0.9410(2) 0.5862(3)
Cl1_5 Cl 0.5000 0.0000 0.6479(2)
O17_2 O 0.55443(19) 0.0135(9) 0.7096(3)
O18_2 O 0.4876(8) 0.0590(2) 0.5862(3)
Cl1_6 Cl 0.5000 1.0000 0.6479(2)
O19_2 O 0.44557(19) 0.9865(9) 0.7096(3)
O20_2 O 0.5124(8) 0.9410(2) 0.5862(3)
Cl1_7 Cl 0.0000 0.5000 0.1479(2)
O18_3 O 0.0124(8) 0.5590(2) 0.0862(3)
O19_3 O 0.05443(19) 0.4865(9) 0.2096(3)
Cl1_8 Cl 1.0000 0.5000 0.1479(2)
O17_3 O 0.94557(19) 0.5135(9) 0.2096(3)
O20_3 O 0.9876(8) 0.4410(2) 0.0862(3)
Cl1_9 Cl 0.5000 0.5000 0.1479(2)
O17_4 O 0.55443(19) 0.5135(9) 0.2096(3)
O18_4 O 0.4876(8) 0.5590(2) 0.0862(3)
O19_4 O 0.44557(19) 0.4865(9) 0.2096(3)
O20_4 O 0.5124(8) 0.4410(2) 0.0862(3)
loop_
_geom_bond_atom_site_label_1
_geom_bond_atom_site_label_2
_geom_bond_site_symmetry_1
_geom_bond_site_symmetry_2
Cd2 O2 1_555 1_555
H9 O5 1_555 1_555
O6 Cd2 1_555 1_555
Cd3 O5 1_555 1_555
O11 Cd3 1_555 1_555
O12 Cd3 1_555 1_555
N5 Cd2 1_555 1_555
N6 Cd3 1_555 1_555
O13 Cd2 1_555 1_555
O14 Cd3 1_555 1_555
O15 Cd3 1_555 1_555
O16 Cd2 1_555 1_555
Cd2 O5 1_555 1_555
Cd1 O1 1_555 1_555
O1 C1 1_555 1_555
C1 C2 1_555 1_555
C2 C3 1_555 1_555
C3 H1 1_555 1_555
C6 C2 1_555 1_555
N2 Cd1 1_555 1_555
C7 N2 1_555 1_555
H5 C7 1_555 1_555
C8 C7 1_555 1_555
H6 C8 1_555 1_555
C9 C8 1_555 1_555
C10 C9 1_555 1_555
O13 C10 1_555 1_555
N3 Cd1 1_555 1_555
O7 Cd1 1_555 1_555
C15 N2 1_555 1_555
H10 C15 1_555 1_555
C16 C9 1_555 1_555
H11 C16 1_555 1_555
O14 C10 1_555 1_555
O10 Cd1 1_555 1_555
C19 O10 1_555 1_555
C20 C19 1_555 1_555
C21 C20 1_555 1_555
H14 C21 1_555 1_555
C22 C21 1_555 1_555
H15 C22 1_555 1_555
N4 C22 1_555 1_555
C23 N4 1_555 1_555
H16 C23 1_555 1_555
C24 C20 1_555 1_555
Cd9 N4 1_555 1_555
C15 C16 1_555 1_555
C23 C24 1_555 1_555
O7 H19 1_555 1_555
C12 C11 1_555 1_555
H8 C12 1_555 1_555
C13 C12 1_555 1_555
C14 C13 1_555 1_555
O4 C14 1_555 1_555
C18 C13 1_555 1_555
H13 C18 1_555 1_555
O9 C14 1_555 1_555
Cd6 O9 1_555 1_555
Cd8 O4 1_555 1_555
C17 C18 1_555 1_555
H2 C4 1_555 1_555
N1 C4 1_555 1_555
C5 N1 1_555 1_555
H3 C5 1_555 1_555
Cd7 N1 1_555 1_555
H2_2 C4_2 1_555 1_555
N1_2 C4_2 1_555 1_555
C5_2 N1_2 1_555 1_555
H3_2 C5_2 1_555 1_555
Cd6 N1_2 1_555 1_555
C12_2 C11_2 1_555 1_555
H8_2 C12_2 1_555 1_555
C13_2 C12_2 1_555 1_555
C14_2 C13_2 1_555 1_555
O4_2 C14_2 1_555 1_555
C18_2 C13_2 1_555 1_555
H13_2 C18_2 1_555 1_555
O9_2 C14_2 1_555 1_555
Cd7 O9_2 1_555 1_555
Cd9 O4_2 1_555 1_555
C17_2 C18_2 1_555 1_555
Cd2_2 O2_2 1_555 1_555
H9_2 O5_2 1_555 1_555
O6_2 Cd2_2 1_555 1_555
Cd3_2 O5_2 1_555 1_555
O11_2 Cd3_2 1_555 1_555
O12_2 Cd3_2 1_555 1_555
N5_2 Cd2_2 1_555 1_555
N6_2 Cd3_2 1_555 1_555
O13_2 Cd2_2 1_555 1_555
O14_2 Cd3_2 1_555 1_555
O15_2 Cd3_2 1_555 1_555
O16_2 Cd2_2 1_555 1_555
Cd2_2 O5_2 1_555 1_555
Cd1_2 O1_2 1_555 1_555
O1_2 C1_2 1_555 1_555
C1_2 C2_2 1_555 1_555
C2_2 C3_2 1_555 1_555
C3_2 H1_2 1_555 1_555
C6_2 C2_2 1_555 1_555
N2_2 Cd1_2 1_555 1_555
C7_2 N2_2 1_555 1_555
H5_2 C7_2 1_555 1_555
C8_2 C7_2 1_555 1_555
H6_2 C8_2 1_555 1_555
C9_2 C8_2 1_555 1_555
C10_2 C9_2 1_555 1_555
O13_2 C10_2 1_555 1_555
N3_2 Cd1_2 1_555 1_555
O7_2 Cd1_2 1_555 1_555
C15_2 N2_2 1_555 1_555
H10_2 C15_2 1_555 1_555
C16_2 C9_2 1_555 1_555
H11_2 C16_2 1_555 1_555
O14_2 C10_2 1_555 1_555
O10_2 Cd1_2 1_555 1_555
C19_2 O10_2 1_555 1_555
C20_2 C19_2 1_555 1_555
C21_2 C20_2 1_555 1_555
H14_2 C21_2 1_555 1_555
C22_2 C21_2 1_555 1_555
H15_2 C22_2 1_555 1_555
N4_2 C22_2 1_555 1_555
C23_2 N4_2 1_555 1_555
H16_2 C23_2 1_555 1_555
C24_2 C20_2 1_555 1_555
Cd8 N4_2 1_555 1_555
C15_2 C16_2 1_555 1_555
C23_2 C24_2 1_555 1_555
O7_2 H19_2 1_555 1_555
O7 H19_3 1_555 1_555
O7_2 H19_4 1_555 1_555
Cd1_3 O1_3 1_555 1_555
Cd6 O2_3 1_555 1_555
O1_3 C1_3 1_555 1_555
O2_3 C1_3 1_555 1_555
C1_3 C2_3 1_555 1_555
C2_3 C3_3 1_555 1_555
C3_3 H1_3 1_555 1_555
C6_3 C2_3 1_555 1_555
H4_3 C6_3 1_555 1_555
N2_3 Cd1_3 1_555 1_555
C7_3 N2_3 1_555 1_555
H5_3 C7_3 1_555 1_555
C8_3 C7_3 1_555 1_555
H6_3 C8_3 1_555 1_555
C9_3 C8_3 1_555 1_555
N3_3 Cd1_3 1_555 1_555
C11_3 N3_3 1_555 1_555
H7_3 C11_3 1_555 1_555
C12_3 C11_3 1_555 1_555
H8_3 C12_3 1_555 1_555
C13_3 C12_3 1_555 1_555
C14_3 C13_3 1_555 1_555
O15 C14_3 1_555 1_555
O5_3 Cd1_3 1_555 1_555
H9_3 O5_3 1_555 1_555
O6_3 Cd6 1_555 1_555
O7_3 Cd1_3 1_555 1_555
C15_3 N2_3 1_555 1_555
H10_3 C15_3 1_555 1_555
C16_3 C9_3 1_555 1_555
H11_3 C16_3 1_555 1_555
C17_3 N3_3 1_555 1_555
H12_3 C17_3 1_555 1_555
C18_3 C13_3 1_555 1_555
H13_3 C18_3 1_555 1_555
O16 C14_3 1_555 1_555
Cd8 O5_3 1_555 1_555
O10_3 Cd1_3 1_555 1_555
O11_3 Cd8 1_555 1_555
C19_3 O10_3 1_555 1_555
C20_3 C19_3 1_555 1_555
C21_3 C20_3 1_555 1_555
H14_3 C21_3 1_555 1_555
C22_3 C21_3 1_555 1_555
H15_3 C22_3 1_555 1_555
N6_2 C22_3 1_555 1_555
C23_3 N6_2 1_555 1_555
H16_3 C23_3 1_555 1_555
C24_3 C20_3 1_555 1_555
H17_3 C24_3 1_555 1_555
O12_3 Cd8 1_555 1_555
O13_3 Cd6 1_555 1_555
O14_3 Cd8 1_555 1_555
Cd6 O5_3 1_555 1_555
C15_3 C16_3 1_555 1_555
C17_3 C18_3 1_555 1_555
O11_3 C19_3 1_555 1_555
C23_3 C24_3 1_555 1_555
O13_3 C10_3 1_555 1_555
O14_3 C10_3 1_555 1_555
H2_3 C4_3 1_555 1_555
N5_2 C4_3 1_555 1_555
C5_3 N5_2 1_555 1_555
H3_3 C5_3 1_555 1_555
H2_4 C4_4 1_555 1_555
N5 C4_4 1_555 1_555
C5_4 N5 1_555 1_555
H3_4 C5_4 1_555 1_555
Cd1_4 O1_4 1_555 1_555
Cd7 O2_4 1_555 1_555
O1_4 C1_4 1_555 1_555
O2_4 C1_4 1_555 1_555
C1_4 C2_4 1_555 1_555
C2_4 C3_4 1_555 1_555
C3_4 H1_4 1_555 1_555
C6_4 C2_4 1_555 1_555
H4_4 C6_4 1_555 1_555
N2_4 Cd1_4 1_555 1_555
C7_4 N2_4 1_555 1_555
H5_4 C7_4 1_555 1_555
C8_4 C7_4 1_555 1_555
H6_4 C8_4 1_555 1_555
C9_4 C8_4 1_555 1_555
N3_4 Cd1_4 1_555 1_555
C11_4 N3_4 1_555 1_555
H7_4 C11_4 1_555 1_555
C12_4 C11_4 1_555 1_555
H8_4 C12_4 1_555 1_555
C13_4 C12_4 1_555 1_555
C14_4 C13_4 1_555 1_555
O15_2 C14_4 1_555 1_555
O5_4 Cd1_4 1_555 1_555
H9_4 O5_4 1_555 1_555
O6_4 Cd7 1_555 1_555
O7_4 Cd1_4 1_555 1_555
C15_4 N2_4 1_555 1_555
H10_4 C15_4 1_555 1_555
C16_4 C9_4 1_555 1_555
H11_4 C16_4 1_555 1_555
C17_4 N3_4 1_555 1_555
H12_4 C17_4 1_555 1_555
C18_4 C13_4 1_555 1_555
H13_4 C18_4 1_555 1_555
O16_2 C14_4 1_555 1_555
Cd9 O5_4 1_555 1_555
O10_4 Cd1_4 1_555 1_555
O11_4 Cd9 1_555 1_555
C19_4 O10_4 1_555 1_555
C20_4 C19_4 1_555 1_555
C21_4 C20_4 1_555 1_555
H14_4 C21_4 1_555 1_555
C22_4 C21_4 1_555 1_555
H15_4 C22_4 1_555 1_555
N6 C22_4 1_555 1_555
C23_4 N6 1_555 1_555
H16_4 C23_4 1_555 1_555
C24_4 C20_4 1_555 1_555
H17_4 C24_4 1_555 1_555
O12_4 Cd9 1_555 1_555
O13_4 Cd7 1_555 1_555
O14_4 Cd9 1_555 1_555
Cd7 O5_4 1_555 1_555
C15_4 C16_4 1_555 1_555
C17_4 C18_4 1_555 1_555
O11_4 C19_4 1_555 1_555
C23_4 C24_4 1_555 1_555
O13_4 C10_4 1_555 1_555
O14_4 C10_4 1_555 1_555
O18 Cl1 1_555 1_555
O19 Cl1_2 1_555 1_555
Cl1_3 O17 1_555 1_555
O20 Cl1_4 1_555 1_555
Cl1_5 O17_2 1_555 1_555
O18_2 Cl1_5 1_555 1_555
O19_2 Cl1_6 1_555 1_555
O20_2 Cl1_6 1_555 1_555
O18_3 Cl1_7 1_555 1_555
O19_3 Cl1_7 1_555 1_555
Cl1_8 O17_3 1_555 1_555
O20_3 Cl1_8 1_555 1_555
Cl1_9 O17_4 1_555 1_555
O18_4 Cl1_9 1_555 1_555
O19_4 Cl1_9 1_555 1_555
O20_4 Cl1_9 1_555 1_555

#END
