
###############################################################################
#
# This file contains modified crystal structure data generated from the
# MOF subset of the Cambridge Structural Database (CSD) v543 
# hosted by the Cambridge Crystallographic Data Centre (CCDC).
#
# This work is licensed under the Creative Commons
# Attribution-NonCommercial-ShareAlike 4.0 International License.
# To view a copy of this license, visit
# http://creativecommons.org/licenses/by-nc-sa/4.0/
# or send a letter to
# Creative Commons, PO Box 1866, Mountain View, CA 94042, USA.
#
# CIF created using the CSD Python API on 29 September 2022
# The structure has been converted into the P1 space group
# The structure has a 3D framework
# The original CSD entry UMAFEW is in the monoclinic crystal system
# The framework has been calculated to contain at least 10.0% void space
# The void calculation uses a probe of radius 1.32A, grid spacing 0.4
#
###############################################################################

data_UMAFEW
_chemical_formula_moiety         '(C104 H72 Cd8 N8 O40)n'
_symmetry_cell_setting           triclinic
_symmetry_space_group_name_H-M   'P 1'
_symmetry_Int_Tables_number      1
_space_group_name_Hall           'P 1'
loop_
_symmetry_equiv_pos_site_id
_symmetry_equiv_pos_as_xyz
1 x,y,z
_cell_length_a                   11.9134(18)
_cell_length_b                   20.223(3)
_cell_length_c                   13.478(2)
_cell_angle_alpha                90
_cell_angle_beta                 110.486(2)
_cell_angle_gamma                90
_cell_volume                     3041.82
loop_
_atom_site_label
_atom_site_type_symbol
_atom_site_fract_x
_atom_site_fract_y
_atom_site_fract_z
Cd1 Cd 0.14346(5) 0.61362(3) 0.48170(5)
O1 O 0.1083(6) 0.6527(4) 0.3073(6)
H1 H 0.1547 0.6706 0.2846
H2 H 0.0249 0.6152 0.2425
O3 O 0.6521(5) 0.3718(3) 0.4897(6)
O4 O 0.7325(5) 0.2880(3) 0.4371(6)
O5 O 0.4990(6) 0.0713(3) 0.3745(6)
O6 O 0.3059(6) 0.0790(3) 0.3305(7)
O8 O 0.1853(6) 0.5079(3) 0.4580(6)
H5 H 0.0696 0.7530 0.5394
C11 C 0.0881(7) 0.4881(4) 0.3956(7)
C12 C 0.0837(7) 0.4178(4) 0.3522(7)
C15 C 0.0879(7) 0.2906(4) 0.2764(7)
H14 H 0.0880 0.2481 0.2502
C16 C 0.1962(7) 0.3195(4) 0.3394(6)
C17 C 0.1914(7) 0.3843(4) 0.3742(7)
H15 H 0.2624 0.4056 0.4132
C18 C 0.3110(7) 0.2826(4) 0.3677(6)
C19 C 0.3111(7) 0.2141(4) 0.3614(6)
H16 H 0.2386 0.1917 0.3431
C20 C 0.4161(7) 0.1779(4) 0.3815(7)
C21 C 0.5248(7) 0.2111(4) 0.4102(6)
H17 H 0.5956 0.1875 0.4233
C22 C 0.5278(7) 0.2795(4) 0.4192(6)
C23 C 0.4215(7) 0.3146(4) 0.3982(6)
H18 H 0.4243 0.3604 0.4047
C24 C 0.6442(8) 0.3152(4) 0.4499(7)
C25 C 0.4062(8) 0.1044(5) 0.3632(7)
Cd4 Cd 0.85654(5) 0.38638(3) 0.51830(5)
O11 O 0.3479(5) 0.6282(3) 0.5103(6)
O12 O 0.2675(5) 0.7120(3) 0.5629(6)
O15 O 0.1908(5) 0.5800(3) 0.6602(5)
Cd6 Cd 0.35602(5) 0.98155(3) 0.27954(6)
Cd2 Cd 0.64398(5) 0.48155(3) 0.22046(6)
N1 N 0.9787(6) 0.6759(4) 0.4657(6)
N2 N 0.4979(6) 0.9042(4) 0.3308(6)
O2 O 0.6261(8) 0.5253(4) 0.3661(7)
H3 H 0.6885 0.5073 0.4364
H4 H 0.5812 0.5495 0.3910
O7 O 0.9975(6) 0.5222(3) 0.3655(6)
O9 O 0.7986(6) 0.4372(4) 0.1771(5)
O10 O 0.8092(5) 0.4200(3) 0.3398(5)
C1 C 0.9931(8) 0.7385(5) 0.4995(8)
C2 C 0.8989(8) 0.7826(5) 0.4775(7)
H6 H 0.9134 0.8259 0.5019
C3 C 0.7843(8) 0.7631(4) 0.4199(7)
C4 C 0.7687(7) 0.6972(4) 0.3886(7)
H7 H 0.6924 0.6811 0.3515
C5 C 0.8656(7) 0.6563(4) 0.4125(7)
H8 H 0.8528 0.6124 0.3908
C6 C 0.6821(8) 0.8114(4) 0.3878(7)
C7 C 0.7064(8) 0.8786(5) 0.3820(9)
H9 H 0.7846 0.8935 0.3981
C8 C 0.6119(8) 0.9222(5) 0.3521(10)
H10 H 0.6281 0.9667 0.3462
C9 C 0.4756(8) 0.8393(4) 0.3339(8)
H11 H 0.3965 0.8254 0.3159
C10 C 0.5653(8) 0.7924(5) 0.3628(7)
H12 H 0.5464 0.7479 0.3652
C13 C 0.9772(7) 0.3878(4) 0.2923(6)
C14 C 0.9809(7) 0.3243(4) 0.2524(7)
H13 H 0.9103 0.3046 0.2090
C26 C 0.8557(7) 0.4179(4) 0.2707(7)
N3 N 0.5021(6) 0.4042(4) 0.1692(6)
O13 O 0.5010(6) 0.5713(3) 0.1255(6)
O14 O 0.6941(6) 0.5790(3) 0.1695(7)
N1_2 N 0.0213(6) 0.1759(4) 0.0343(6)
O2_2 O 0.3739(8) 0.0253(4) 0.1339(7)
H3_2 H 0.3115 0.0073 0.0636
H4_2 H 0.4188 0.0495 0.1090
O7_2 O 0.0025(6) 0.0222(3) 0.1345(6)
C1_2 C 0.0069(8) 0.2385(5) 0.0005(8)
C2_2 C 0.1011(8) 0.2826(5) 0.0225(7)
C3_2 C 0.2157(8) 0.2631(4) 0.0801(7)
C4_2 C 0.2313(7) 0.1972(4) 0.1114(7)
H7_2 H 0.3076 0.1811 0.1485
C5_2 C 0.1344(7) 0.1563(4) 0.0875(7)
H8_2 H 0.1472 0.1124 0.1092
C6_2 C 0.3179(8) 0.3114(4) 0.1122(7)
C7_2 C 0.2936(8) 0.3786(5) 0.1180(9)
H9_2 H 0.2154 0.3935 0.1019
C8_2 C 0.3881(8) 0.4222(5) 0.1479(10)
H10_2 H 0.3719 0.4667 0.1538
C9_2 C 0.5244(8) 0.3393(4) 0.1661(8)
H11_2 H 0.6035 0.3254 0.1841
C10_2 C 0.4347(8) 0.2924(5) 0.1372(7)
H12_2 H 0.4536 0.2479 0.1348
O9_2 O 0.2014(6) 0.9372(4) 0.3229(5)
O10_2 O 0.1908(5) 0.9200(3) 0.1602(5)
C13_2 C 0.0228(7) 0.8878(4) 0.2077(6)
C14_2 C 0.0191(7) 0.8243(4) 0.2476(7)
H13_2 H 0.0897 0.8046 0.2910
C26_2 C 0.1443(7) 0.9179(4) 0.2293(7)
H5_2 H 0.9304 0.2530 0.9606
O11_2 O 0.6521(5) 0.1282(3) 0.9897(6)
O12_2 O 0.7325(5) 0.2120(3) 0.9371(6)
O15_2 O 0.8092(5) 0.0800(3) 0.8398(5)
O3_2 O 0.3479(5) 0.8718(3) 0.0103(6)
O4_2 O 0.2675(5) 0.7880(3) 0.0629(6)
C11_2 C 0.9119(7) 0.9881(4) 0.1044(7)
C12_2 C 0.9163(7) 0.9178(4) 0.1478(7)
C15_2 C 0.9121(7) 0.7906(4) 0.2236(7)
H14_2 H 0.9120 0.7481 0.2498
C16_2 C 0.8038(7) 0.8195(4) 0.1606(6)
C17_2 C 0.8086(7) 0.8843(4) 0.1258(7)
H15_2 H 0.7376 0.9056 0.0868
C18_2 C 0.6890(7) 0.7826(4) 0.1323(6)
C19_2 C 0.6889(7) 0.7141(4) 0.1386(6)
H16_2 H 0.7614 0.6917 0.1569
C20_2 C 0.5839(7) 0.6779(4) 0.1185(7)
C21_2 C 0.4752(7) 0.7111(4) 0.0898(6)
H17_2 H 0.4044 0.6875 0.0767
C22_2 C 0.4722(7) 0.7795(4) 0.0808(6)
C23_2 C 0.5785(7) 0.8146(4) 0.1018(6)
H18_2 H 0.5757 0.8604 0.0953
C24_2 C 0.3558(8) 0.8152(4) 0.0501(7)
C25_2 C 0.5938(8) 0.6044(5) 0.1368(7)
Cd2_2 Cd 0.35602(5) 0.51845(3) 0.77954(6)
N1_3 N 0.0213(6) 0.3241(4) 0.5343(6)
N2_2 N 0.5021(6) 0.0958(4) 0.6692(6)
O2_3 O 0.3739(8) 0.4747(4) 0.6339(7)
H3_3 H 0.3115 0.4927 0.5636
H4_3 H 0.4188 0.4505 0.6090
O7_3 O 0.0025(6) 0.4778(3) 0.6345(6)
O9_3 O 0.2014(6) 0.5628(4) 0.8229(5)
C1_3 C 0.0069(8) 0.2615(5) 0.5005(8)
C2_3 C 0.1011(8) 0.2174(5) 0.5225(7)
H6_2 H 0.0866 0.1741 0.4981
C3_3 C 0.2157(8) 0.2369(4) 0.5801(7)
C4_3 C 0.2313(7) 0.3028(4) 0.6114(7)
H7_3 H 0.3076 0.3189 0.6485
C5_3 C 0.1344(7) 0.3437(4) 0.5875(7)
H8_3 H 0.1472 0.3876 0.6092
C6_3 C 0.3179(8) 0.1886(4) 0.6122(7)
C7_3 C 0.2936(8) 0.1214(5) 0.6180(9)
H9_3 H 0.2154 0.1065 0.6019
C8_3 C 0.3881(8) 0.0778(5) 0.6479(10)
H10_3 H 0.3719 0.0333 0.6538
C9_3 C 0.5244(8) 0.1607(4) 0.6661(8)
H11_3 H 0.6035 0.1746 0.6841
C10_3 C 0.4347(8) 0.2076(5) 0.6372(7)
H12_3 H 0.4536 0.2521 0.6348
C13_3 C 0.0228(7) 0.6122(4) 0.7077(6)
C14_3 C 0.0191(7) 0.6757(4) 0.7476(7)
H13_3 H 0.0897 0.6954 0.7910
C26_3 C 0.1443(7) 0.5821(4) 0.7293(7)
Cd5 Cd 0.64398(5) 0.01845(3) 0.72046(6)
N3_2 N 0.4979(6) 0.5958(4) 0.8308(6)
O13_2 O 0.4990(6) 0.4287(3) 0.8745(6)
O14_2 O 0.3059(6) 0.4210(3) 0.8305(7)
O1_2 O 0.8917(6) 0.3473(4) 0.6927(6)
H1_2 H 0.8453 0.3294 0.7154
H2_2 H 0.9751 0.3848 0.7575
O5_2 O 0.5010(6) 0.9287(3) 0.6255(6)
O6_2 O 0.6941(6) 0.9210(3) 0.6695(7)
O8_2 O 0.8147(6) 0.4921(3) 0.5420(6)
H5_3 H 0.9304 0.2470 0.4606
C11_3 C 0.9119(7) 0.5119(4) 0.6044(7)
C12_3 C 0.9163(7) 0.5822(4) 0.6478(7)
C15_3 C 0.9121(7) 0.7094(4) 0.7236(7)
H14_3 H 0.9120 0.7519 0.7498
C16_3 C 0.8038(7) 0.6805(4) 0.6606(6)
C17_3 C 0.8086(7) 0.6157(4) 0.6258(7)
H15_3 H 0.7376 0.5944 0.5868
C18_3 C 0.6890(7) 0.7174(4) 0.6323(6)
C19_3 C 0.6889(7) 0.7859(4) 0.6386(6)
H16_3 H 0.7614 0.8083 0.6569
C20_3 C 0.5839(7) 0.8221(4) 0.6185(7)
C21_3 C 0.4752(7) 0.7889(4) 0.5898(6)
H17_3 H 0.4044 0.8125 0.5767
C22_3 C 0.4722(7) 0.7205(4) 0.5808(6)
C23_3 C 0.5785(7) 0.6854(4) 0.6018(6)
H18_3 H 0.5757 0.6396 0.5953
C24_3 C 0.3558(8) 0.6848(4) 0.5501(7)
C25_3 C 0.5938(8) 0.8956(5) 0.6368(7)
C11_4 C 0.0881(7) 0.0119(4) 0.8956(7)
C12_4 C 0.0837(7) 0.0822(4) 0.8522(7)
C15_4 C 0.0879(7) 0.2094(4) 0.7764(7)
H14_4 H 0.0880 0.2519 0.7502
C16_4 C 0.1962(7) 0.1805(4) 0.8394(6)
C17_4 C 0.1914(7) 0.1157(4) 0.8742(7)
H15_4 H 0.2624 0.0944 0.9132
C18_4 C 0.3110(7) 0.2174(4) 0.8677(6)
C19_4 C 0.3111(7) 0.2859(4) 0.8614(6)
H16_4 H 0.2386 0.3083 0.8431
C20_4 C 0.4161(7) 0.3221(4) 0.8815(7)
C21_4 C 0.5248(7) 0.2889(4) 0.9102(6)
H17_4 H 0.5956 0.3125 0.9233
C22_4 C 0.5278(7) 0.2205(4) 0.9192(6)
C23_4 C 0.4215(7) 0.1854(4) 0.8982(6)
H18_4 H 0.4243 0.1396 0.9047
C24_4 C 0.6442(8) 0.1848(4) 0.9499(7)
C25_4 C 0.4062(8) 0.3956(5) 0.8632(7)
H5_4 H 0.0696 0.7470 0.0394
O9_4 O 0.7986(6) 0.0628(4) 0.6771(5)
C13_4 C 0.9772(7) 0.1122(4) 0.7923(6)
C14_4 C 0.9809(7) 0.1757(4) 0.7524(7)
H13_4 H 0.9103 0.1954 0.7090
C26_4 C 0.8557(7) 0.0821(4) 0.7707(7)
N1_4 N 0.9787(6) 0.8241(4) 0.9657(6)
O2_4 O 0.6261(8) 0.9747(4) 0.8661(7)
H3_4 H 0.6885 0.9927 0.9364
H4_4 H 0.5812 0.9505 0.8910
O7_4 O 0.9975(6) 0.9778(3) 0.8655(6)
C1_4 C 0.9931(8) 0.7615(5) 0.9995(8)
C2_4 C 0.8989(8) 0.7174(5) 0.9775(7)
C3_4 C 0.7843(8) 0.7369(4) 0.9199(7)
C4_4 C 0.7687(7) 0.8028(4) 0.8886(7)
H7_4 H 0.6924 0.8189 0.8515
C5_4 C 0.8656(7) 0.8437(4) 0.9125(7)
H8_4 H 0.8528 0.8876 0.8908
C6_4 C 0.6821(8) 0.6886(4) 0.8878(7)
C7_4 C 0.7064(8) 0.6214(5) 0.8820(9)
H9_4 H 0.7846 0.6065 0.8981
C8_4 C 0.6119(8) 0.5778(5) 0.8521(10)
H10_4 H 0.6281 0.5333 0.8462
C9_4 C 0.4756(8) 0.6607(4) 0.8339(8)
H11_4 H 0.3965 0.6746 0.8159
C10_4 C 0.5653(8) 0.7076(5) 0.8628(7)
H12_4 H 0.5464 0.7521 0.8652
H6_3 H 0.0866 0.3259 0.9981
Cd3 Cd 0.14346(5) 0.88638(3) 0.98170(5)
O1_3 O 0.1083(6) 0.8473(4) 0.8073(6)
H1_3 H 0.1547 0.8294 0.7846
H2_3 H 0.0249 0.8848 0.7425
O8_3 O 0.1853(6) 0.9921(3) 0.9580(6)
Cd1_2 Cd 0.85654(5) 0.11362(3) 0.01830(5)
O1_4 O 0.8917(6) 0.1527(4) 0.1927(6)
H1_4 H 0.8453 0.1706 0.2154
H2_4 H 0.9751 0.1152 0.2575
O8_4 O 0.8147(6) 0.0079(3) 0.0420(6)
H6_4 H 0.9134 0.6741 0.0019
loop_
_geom_bond_atom_site_label_1
_geom_bond_atom_site_label_2
_geom_bond_site_symmetry_1
_geom_bond_site_symmetry_2
O1 Cd1 1_555 1_555
H1 O1 1_555 1_555
H2 O1 1_555 1_555
O3 C24 1_555 1_555
O4 C24 1_555 1_555
O5 C25 1_555 1_555
O6 C25 1_555 1_555
O8 Cd1 1_555 1_555
C12 C11 1_555 1_555
H14 C15 1_555 1_555
C16 C15 1_555 1_555
C17 C12 1_555 1_555
H15 C17 1_555 1_555
C18 C16 1_555 1_555
C19 C18 1_555 1_555
H16 C19 1_555 1_555
C20 C19 1_555 1_555
C21 C20 1_555 1_555
H17 C21 1_555 1_555
C22 C21 1_555 1_555
C23 C18 1_555 1_555
H18 C23 1_555 1_555
C24 C22 1_555 1_555
C25 C20 1_555 1_555
Cd4 O3 1_555 1_555
O11 Cd1 1_555 1_555
O12 Cd1 1_555 1_555
O15 Cd1 1_555 1_555
O4 Cd4 1_555 1_555
O8 C11 1_555 1_555
C16 C17 1_555 1_555
C22 C23 1_555 1_555
Cd2 O2 1_555 1_555
N1 C1 1_555 1_555
N2 C8 1_555 1_555
O2 H3 1_555 1_555
H4 O2 1_555 1_555
O9 Cd2 1_555 1_555
O10 Cd2 1_555 1_555
C2 C1 1_555 1_555
H6 C2 1_555 1_555
C3 C2 1_555 1_555
C4 C3 1_555 1_555
H7 C4 1_555 1_555
C5 N1 1_555 1_555
H8 C5 1_555 1_555
C6 C3 1_555 1_555
C7 C6 1_555 1_555
H9 C7 1_555 1_555
C8 C7 1_555 1_555
H10 C8 1_555 1_555
C9 N2 1_555 1_555
H11 C9 1_555 1_555
C10 C6 1_555 1_555
H12 C10 1_555 1_555
C14 C13 1_555 1_555
H13 C14 1_555 1_555
C26 O9 1_555 1_555
Cd4 O10 1_555 1_555
Cd6 N2 1_555 1_555
N3 Cd2 1_555 1_555
O13 Cd2 1_555 1_555
O14 Cd2 1_555 1_555
O10 C26 1_555 1_555
C4 C5 1_555 1_555
C9 C10 1_555 1_555
C13 C26 1_555 1_555
N1_2 C1_2 1_555 1_555
N3 C8_2 1_555 1_555
O2_2 H3_2 1_555 1_555
H4_2 O2_2 1_555 1_555
C2_2 C1_2 1_555 1_555
C3_2 C2_2 1_555 1_555
C4_2 C3_2 1_555 1_555
H7_2 C4_2 1_555 1_555
C5_2 N1_2 1_555 1_555
H8_2 C5_2 1_555 1_555
C6_2 C3_2 1_555 1_555
C7_2 C6_2 1_555 1_555
H9_2 C7_2 1_555 1_555
C8_2 C7_2 1_555 1_555
H10_2 C8_2 1_555 1_555
C9_2 N3 1_555 1_555
H11_2 C9_2 1_555 1_555
C10_2 C6_2 1_555 1_555
H12_2 C10_2 1_555 1_555
C4_2 C5_2 1_555 1_555
C9_2 C10_2 1_555 1_555
O9_2 Cd6 1_555 1_555
O10_2 Cd6 1_555 1_555
C14_2 C13_2 1_555 1_555
H13_2 C14_2 1_555 1_555
C26_2 O9_2 1_555 1_555
O10_2 C26_2 1_555 1_555
C13_2 C26_2 1_555 1_555
O3_2 C24_2 1_555 1_555
O4_2 C24_2 1_555 1_555
O13 C25_2 1_555 1_555
O14 C25_2 1_555 1_555
C12_2 C11_2 1_555 1_555
H14_2 C15_2 1_555 1_555
C16_2 C15_2 1_555 1_555
C17_2 C12_2 1_555 1_555
H15_2 C17_2 1_555 1_555
C18_2 C16_2 1_555 1_555
C19_2 C18_2 1_555 1_555
H16_2 C19_2 1_555 1_555
C20_2 C19_2 1_555 1_555
C21_2 C20_2 1_555 1_555
H17_2 C21_2 1_555 1_555
C22_2 C21_2 1_555 1_555
C23_2 C18_2 1_555 1_555
H18_2 C23_2 1_555 1_555
C24_2 C22_2 1_555 1_555
C25_2 C20_2 1_555 1_555
C16_2 C17_2 1_555 1_555
C22_2 C23_2 1_555 1_555
Cd2_2 O2_3 1_555 1_555
N1_3 C1_3 1_555 1_555
N2_2 C8_3 1_555 1_555
O2_3 H3_3 1_555 1_555
H4_3 O2_3 1_555 1_555
O9_3 Cd2_2 1_555 1_555
O15 Cd2_2 1_555 1_555
C2_3 C1_3 1_555 1_555
H6_2 C2_3 1_555 1_555
C3_3 C2_3 1_555 1_555
C4_3 C3_3 1_555 1_555
H7_3 C4_3 1_555 1_555
C5_3 N1_3 1_555 1_555
H8_3 C5_3 1_555 1_555
C6_3 C3_3 1_555 1_555
C7_3 C6_3 1_555 1_555
H9_3 C7_3 1_555 1_555
C8_3 C7_3 1_555 1_555
H10_3 C8_3 1_555 1_555
C9_3 N2_2 1_555 1_555
H11_3 C9_3 1_555 1_555
C10_3 C6_3 1_555 1_555
H12_3 C10_3 1_555 1_555
C14_3 C13_3 1_555 1_555
H13_3 C14_3 1_555 1_555
C26_3 O9_3 1_555 1_555
Cd5 N2_2 1_555 1_555
N3_2 Cd2_2 1_555 1_555
O13_2 Cd2_2 1_555 1_555
O14_2 Cd2_2 1_555 1_555
O15 C26_3 1_555 1_555
C4_3 C5_3 1_555 1_555
C9_3 C10_3 1_555 1_555
C13_3 C26_3 1_555 1_555
O1_2 Cd4 1_555 1_555
H1_2 O1_2 1_555 1_555
H2_2 O1_2 1_555 1_555
O11 C24_3 1_555 1_555
O12 C24_3 1_555 1_555
O5_2 C25_3 1_555 1_555
O6_2 C25_3 1_555 1_555
O8_2 Cd4 1_555 1_555
C12_3 C11_3 1_555 1_555
H14_3 C15_3 1_555 1_555
C16_3 C15_3 1_555 1_555
C17_3 C12_3 1_555 1_555
H15_3 C17_3 1_555 1_555
C18_3 C16_3 1_555 1_555
C19_3 C18_3 1_555 1_555
H16_3 C19_3 1_555 1_555
C20_3 C19_3 1_555 1_555
C21_3 C20_3 1_555 1_555
H17_3 C21_3 1_555 1_555
C22_3 C21_3 1_555 1_555
C23_3 C18_3 1_555 1_555
H18_3 C23_3 1_555 1_555
C24_3 C22_3 1_555 1_555
C25_3 C20_3 1_555 1_555
O8_2 C11_3 1_555 1_555
C16_3 C17_3 1_555 1_555
C22_3 C23_3 1_555 1_555
O11_2 C24_4 1_555 1_555
O12_2 C24_4 1_555 1_555
O13_2 C25_4 1_555 1_555
O14_2 C25_4 1_555 1_555
C12_4 C11_4 1_555 1_555
H14_4 C15_4 1_555 1_555
C16_4 C15_4 1_555 1_555
C17_4 C12_4 1_555 1_555
H15_4 C17_4 1_555 1_555
C18_4 C16_4 1_555 1_555
C19_4 C18_4 1_555 1_555
H16_4 C19_4 1_555 1_555
C20_4 C19_4 1_555 1_555
C21_4 C20_4 1_555 1_555
H17_4 C21_4 1_555 1_555
C22_4 C21_4 1_555 1_555
C23_4 C18_4 1_555 1_555
H18_4 C23_4 1_555 1_555
C24_4 C22_4 1_555 1_555
C25_4 C20_4 1_555 1_555
C16_4 C17_4 1_555 1_555
C22_4 C23_4 1_555 1_555
O9_4 Cd5 1_555 1_555
O15_2 Cd5 1_555 1_555
C14_4 C13_4 1_555 1_555
H13_4 C14_4 1_555 1_555
C26_4 O9_4 1_555 1_555
O15_2 C26_4 1_555 1_555
C13_4 C26_4 1_555 1_555
N1_4 C1_4 1_555 1_555
N3_2 C8_4 1_555 1_555
O2_4 H3_4 1_555 1_555
H4_4 O2_4 1_555 1_555
C2_4 C1_4 1_555 1_555
C3_4 C2_4 1_555 1_555
C4_4 C3_4 1_555 1_555
H7_4 C4_4 1_555 1_555
C5_4 N1_4 1_555 1_555
H8_4 C5_4 1_555 1_555
C6_4 C3_4 1_555 1_555
C7_4 C6_4 1_555 1_555
H9_4 C7_4 1_555 1_555
C8_4 C7_4 1_555 1_555
H10_4 C8_4 1_555 1_555
C9_4 N3_2 1_555 1_555
H11_4 C9_4 1_555 1_555
C10_4 C6_4 1_555 1_555
H12_4 C10_4 1_555 1_555
C4_4 C5_4 1_555 1_555
C9_4 C10_4 1_555 1_555
O1_3 Cd3 1_555 1_555
H1_3 O1_3 1_555 1_555
H2_3 O1_3 1_555 1_555
O8_3 Cd3 1_555 1_555
O1_4 Cd1_2 1_555 1_555
H1_4 O1_4 1_555 1_555
H2_4 O1_4 1_555 1_555
O8_4 Cd1_2 1_555 1_555

#END
