
###############################################################################
#
# This file contains modified crystal structure data generated from the
# MOF subset of the Cambridge Structural Database (CSD) v543 
# hosted by the Cambridge Crystallographic Data Centre (CCDC).
#
# This work is licensed under the Creative Commons
# Attribution-NonCommercial-ShareAlike 4.0 International License.
# To view a copy of this license, visit
# http://creativecommons.org/licenses/by-nc-sa/4.0/
# or send a letter to
# Creative Commons, PO Box 1866, Mountain View, CA 94042, USA.
#
# CIF created using the CSD Python API on 29 September 2022
# The structure has been converted into the P1 space group
# The structure has a 3D framework
# The original CSD entry UMAQAC is in the tetragonal crystal system
# The original CSD entry UMAQAC is in a Sohncke space group
# The framework has been calculated to contain at least 10.0% void space
# The void calculation uses a probe of radius 1.32A, grid spacing 0.4
#
###############################################################################

data_UMAQAC
_chemical_formula_moiety         '(C48 H32 Cd5 N8 O16)n'
_symmetry_cell_setting           triclinic
_symmetry_space_group_name_H-M   'P 1'
_symmetry_Int_Tables_number      1
_space_group_name_Hall           'P 1'
loop_
_symmetry_equiv_pos_site_id
_symmetry_equiv_pos_as_xyz
1 x,y,z
_cell_length_a                   15.3622(6)
_cell_length_b                   15.3622(6)
_cell_length_c                   6.8136(3)
_cell_angle_alpha                90
_cell_angle_beta                 90
_cell_angle_gamma                90
_cell_volume                     1607.99
loop_
_atom_site_label
_atom_site_type_symbol
_atom_site_fract_x
_atom_site_fract_y
_atom_site_fract_z
C3 C 0.2458(4) 0.0048(4) 0.1635(8)
C6 C 0.2402(5) 0.0840(4) 0.2947(8)
O1 O 0.2447(4) 0.0754(3) 0.4751(6)
O2 O 0.2311(3) 0.1563(3) 0.2145(6)
Cd3 Cd 0.23257(3) 0.23257(3) 0.5000
C1 C 0.2801(4) 0.8555(4) 0.1132(9)
H1 H 0.3029 0.8023 0.1628
C2 C 0.2746(4) 0.9263(4) 0.2368(10)
H2 H 0.2905 0.9210 0.3710
O8 O 0.2689(3) 0.6563(3) 0.0355(6)
C9 C 0.0048(4) 0.2458(4) 0.8365(8)
C12 C 0.0840(4) 0.2402(5) 0.7053(8)
O3 O 0.0754(3) 0.2447(4) 0.5249(6)
O4 O 0.1563(3) 0.2311(3) 0.7855(6)
C7 C 0.8555(4) 0.2801(4) 0.8868(9)
H5 H 0.8023 0.3029 0.8372
C8 C 0.9263(4) 0.2746(4) 0.7632(10)
H6 H 0.9210 0.2905 0.6290
O7 O 0.6563(3) 0.2689(3) 0.9645(6)
N1 N 0.3591(3) 0.2458(3) 0.6735(7)
C1_2 C 0.3555(4) 0.2199(4) 0.8632(9)
H1_2 H 0.3023 0.1971 0.9128
C2_2 C 0.4263(4) 0.2254(4) 0.9868(10)
C3_2 C 0.5048(4) 0.2542(4) 0.9135(8)
C4 C 0.5105(4) 0.2789(4) 0.7165(9)
H3 H 0.5639 0.2987 0.6624
C5 C 0.4364(4) 0.2736(4) 0.6028(9)
H4 H 0.4399 0.2902 0.4687
N2 N 0.2458(3) 0.3591(3) 0.3265(7)
C7_2 C 0.2199(4) 0.3555(4) 0.1368(9)
H5_2 H 0.1971 0.3023 0.0872
C8_2 C 0.2254(4) 0.4263(4) 0.0132(10)
C9_2 C 0.2542(4) 0.5048(4) 0.0865(8)
C10 C 0.2789(4) 0.5105(4) 0.2835(9)
H7 H 0.2987 0.5639 0.3376
C11 C 0.2736(4) 0.4364(4) 0.3972(9)
H8 H 0.2902 0.4399 0.5313
C4_2 C 0.2211(4) 0.0105(4) 0.9665(9)
H3_2 H 0.2013 0.0639 0.9124
Cd1 Cd 0.26743(3) 0.73257(3) 0.7500
N1_2 N 0.2542(3) 0.8591(3) 0.9235(7)
C5_2 C 0.2264(4) 0.9364(4) 0.8528(9)
H4_2 H 0.2098 0.9399 0.7187
N2_2 N 0.1409(3) 0.7458(3) 0.5765(7)
C7_3 C 0.1445(4) 0.7199(4) 0.3868(9)
H5_3 H 0.1977 0.6971 0.3372
C8_3 C 0.0737(4) 0.7254(4) 0.2632(10)
H6_2 H 0.0790 0.7095 0.1290
C11_2 C 0.0636(4) 0.7736(4) 0.6472(9)
H8_2 H 0.0601 0.7902 0.7813
O5 O 0.4246(3) 0.7447(4) 0.7251(6)
O6 O 0.2553(4) 0.5754(3) 0.7749(6)
O7_2 O 0.3437(3) 0.7311(3) 0.4645(6)
C9_3 C 0.9952(4) 0.7542(4) 0.3365(8)
C10_2 C 0.9895(4) 0.7789(4) 0.5335(9)
H7_2 H 0.9361 0.7987 0.5876
C12_2 C 0.9160(4) 0.7598(5) 0.2053(8)
O3_2 O 0.9246(3) 0.7553(4) 0.0249(6)
O4_2 O 0.8437(3) 0.7689(3) 0.2855(6)
Cd2 Cd 0.76743(3) 0.76743(3) 0.0000
N1_3 N 0.6409(3) 0.7542(3) 0.1735(7)
C1_3 C 0.6445(4) 0.7801(4) 0.3632(9)
H1_3 H 0.6977 0.8029 0.4128
C2_3 C 0.5737(4) 0.7746(4) 0.4868(10)
H2_2 H 0.5790 0.7905 0.6210
C3_3 C 0.4952(4) 0.7458(4) 0.4135(8)
C4_3 C 0.4895(4) 0.7211(4) 0.2165(9)
H3_3 H 0.4361 0.7013 0.1624
C5_3 C 0.5636(4) 0.7264(4) 0.1028(9)
C6_2 C 0.4160(4) 0.7402(5) 0.5447(8)
H8_3 H 0.7098 0.5601 0.0313
H6_3 H 0.2095 0.4210 0.8790
C12_3 C 0.2598(5) 0.5840(4) 0.9553(8)
Cd2_2 Cd 0.76743(3) 0.76743(3) 1.0000
Cd1_2 Cd 0.73257(3) 0.26743(3) 0.2500
N1_4 N 0.7458(3) 0.1409(3) 0.4235(7)
C1_4 C 0.7199(4) 0.1445(4) 0.6132(9)
H1_4 H 0.6971 0.1977 0.6628
C2_4 C 0.7254(4) 0.0737(4) 0.7368(10)
H2_3 H 0.7095 0.0790 0.8710
C5_4 C 0.7736(4) 0.0636(4) 0.3528(9)
H4_3 H 0.7902 0.0601 0.2187
N2_3 N 0.8591(3) 0.2542(3) 0.0765(7)
C11_3 C 0.9364(4) 0.2264(4) 0.1472(9)
H8_4 H 0.9399 0.2098 0.2813
O5_2 O 0.5754(3) 0.2553(4) 0.2251(6)
O6_2 O 0.7447(4) 0.4246(3) 0.2749(6)
O8_2 O 0.7311(3) 0.3437(3) 0.5355(6)
C3_4 C 0.7542(4) 0.9952(4) 0.6635(8)
C4_4 C 0.7789(4) 0.9895(4) 0.4665(9)
H3_4 H 0.7987 0.9361 0.4124
C6_3 C 0.7598(5) 0.9160(4) 0.7947(8)
O1_2 O 0.7553(4) 0.9246(3) 0.9751(6)
O2_2 O 0.7689(3) 0.8437(3) 0.7145(6)
H4_4 H 0.5601 0.7098 0.9687
N2_4 N 0.7542(3) 0.6409(3) 0.8265(7)
C7_4 C 0.7801(4) 0.6445(4) 0.6368(9)
H5_4 H 0.8029 0.6977 0.5872
C8_4 C 0.7746(4) 0.5737(4) 0.5132(10)
H6_4 H 0.7905 0.5790 0.3790
C9_4 C 0.7458(4) 0.4952(4) 0.5865(8)
C10_3 C 0.7211(4) 0.4895(4) 0.7835(9)
H7_3 H 0.7013 0.4361 0.8376
C11_4 C 0.7264(4) 0.5636(4) 0.8972(9)
C12_4 C 0.7402(5) 0.4160(4) 0.4553(8)
H2_4 H 0.4210 0.2095 0.1210
C6_4 C 0.5840(4) 0.2598(5) 0.0447(8)
C10_4 C 0.0105(4) 0.2211(4) 0.0335(9)
H7_4 H 0.0639 0.2013 0.0876
loop_
_geom_bond_atom_site_label_1
_geom_bond_atom_site_label_2
_geom_bond_site_symmetry_1
_geom_bond_site_symmetry_2
C6 C3 1_555 1_555
O1 C6 1_555 1_555
O2 C6 1_555 1_555
Cd3 O1 1_555 1_555
O2 Cd3 1_555 1_555
C1 H1 1_555 1_555
C2 C1 1_555 1_555
H2 C2 1_555 1_555
C12 C9 1_555 1_555
O3 C12 1_555 1_555
O4 C12 1_555 1_555
Cd3 O3 1_555 1_555
O4 Cd3 1_555 1_555
H5 C7 1_555 1_555
C8 C7 1_555 1_555
H6 C8 1_555 1_555
Cd3 N1 1_555 1_555
N1 C1_2 1_555 1_555
C1_2 H1_2 1_555 1_555
C2_2 C1_2 1_555 1_555
C3_2 C2_2 1_555 1_555
C4 C3_2 1_555 1_555
H3 C4 1_555 1_555
C5 N1 1_555 1_555
H4 C5 1_555 1_555
N2 Cd3 1_555 1_555
C7_2 N2 1_555 1_555
H5_2 C7_2 1_555 1_555
C8_2 C7_2 1_555 1_555
C9_2 C8_2 1_555 1_555
C10 C9_2 1_555 1_555
H7 C10 1_555 1_555
C11 N2 1_555 1_555
H8 C11 1_555 1_555
C4 C5 1_555 1_555
C10 C11 1_555 1_555
H3_2 C4_2 1_555 1_555
Cd1 N1_2 1_555 1_555
C5_2 N1_2 1_555 1_555
H4_2 C5_2 1_555 1_555
N2_2 Cd1 1_555 1_555
C7_3 N2_2 1_555 1_555
H5_3 C7_3 1_555 1_555
C8_3 C7_3 1_555 1_555
H6_2 C8_3 1_555 1_555
C11_2 N2_2 1_555 1_555
H8_2 C11_2 1_555 1_555
O5 Cd1 1_555 1_555
O6 Cd1 1_555 1_555
O7_2 Cd1 1_555 1_555
C10_2 C9_3 1_555 1_555
H7_2 C10_2 1_555 1_555
C12_2 C9_3 1_555 1_555
O3_2 C12_2 1_555 1_555
O4_2 C12_2 1_555 1_555
Cd2 O3_2 1_555 1_555
O4_2 Cd2 1_555 1_555
Cd2 N1_3 1_555 1_555
N1_3 C1_3 1_555 1_555
C1_3 H1_3 1_555 1_555
C2_3 C1_3 1_555 1_555
H2_2 C2_3 1_555 1_555
C3_3 C2_3 1_555 1_555
C4_3 C3_3 1_555 1_555
H3_3 C4_3 1_555 1_555
C5_3 N1_3 1_555 1_555
C6_2 C3_3 1_555 1_555
O5 C6_2 1_555 1_555
O7_2 C6_2 1_555 1_555
C4_3 C5_3 1_555 1_555
O6 C12_3 1_555 1_555
Cd1_2 N1_4 1_555 1_555
N1_4 C1_4 1_555 1_555
C1_4 H1_4 1_555 1_555
C2_4 C1_4 1_555 1_555
H2_3 C2_4 1_555 1_555
C5_4 N1_4 1_555 1_555
H4_3 C5_4 1_555 1_555
N2_3 Cd1_2 1_555 1_555
C11_3 N2_3 1_555 1_555
H8_4 C11_3 1_555 1_555
O5_2 Cd1_2 1_555 1_555
O6_2 Cd1_2 1_555 1_555
O8_2 Cd1_2 1_555 1_555
C4_4 C3_4 1_555 1_555
H3_4 C4_4 1_555 1_555
C6_3 C3_4 1_555 1_555
O1_2 C6_3 1_555 1_555
O2_2 C6_3 1_555 1_555
Cd2_2 O1_2 1_555 1_555
O2_2 Cd2_2 1_555 1_555
N2_4 Cd2_2 1_555 1_555
C7_4 N2_4 1_555 1_555
H5_4 C7_4 1_555 1_555
C8_4 C7_4 1_555 1_555
H6_4 C8_4 1_555 1_555
C9_4 C8_4 1_555 1_555
C10_3 C9_4 1_555 1_555
H7_3 C10_3 1_555 1_555
C11_4 N2_4 1_555 1_555
C12_4 C9_4 1_555 1_555
O6_2 C12_4 1_555 1_555
O8_2 C12_4 1_555 1_555
C10_3 C11_4 1_555 1_555
O5_2 C6_4 1_555 1_555
H7_4 C10_4 1_555 1_555

#END
