
###############################################################################
#
# This file contains modified crystal structure data generated from the
# MOF subset of the Cambridge Structural Database (CSD) v543 
# hosted by the Cambridge Crystallographic Data Centre (CCDC).
#
# This work is licensed under the Creative Commons
# Attribution-NonCommercial-ShareAlike 4.0 International License.
# To view a copy of this license, visit
# http://creativecommons.org/licenses/by-nc-sa/4.0/
# or send a letter to
# Creative Commons, PO Box 1866, Mountain View, CA 94042, USA.
#
# CIF created using the CSD Python API on 29 September 2022
# The structure has been converted into the P1 space group
# The structure has a 3D framework
# The original CSD entry UMECOH is in the monoclinic crystal system
# The framework has been calculated to contain at least 10.0% void space
# The void calculation uses a probe of radius 1.32A, grid spacing 0.4
#
###############################################################################

data_UMECOH
_chemical_formula_moiety         '(C56 H36 Cu2 N4 O16)n'
_symmetry_cell_setting           triclinic
_symmetry_space_group_name_H-M   'P 1'
_symmetry_Int_Tables_number      1
_space_group_name_Hall           'P 1'
loop_
_symmetry_equiv_pos_site_id
_symmetry_equiv_pos_as_xyz
1 x,y,z
_cell_length_a                   10.9179(3)
_cell_length_b                   12.8980(3)
_cell_length_c                   14.1004(4)
_cell_angle_alpha                90
_cell_angle_beta                 108.694(3)
_cell_angle_gamma                90
_cell_volume                     1880.85
loop_
_atom_site_label
_atom_site_type_symbol
_atom_site_fract_x
_atom_site_fract_y
_atom_site_fract_z
Cu2 Cu 0.60423(6) 0.06227(5) 0.02781(5)
C1 C 0.3913(5) 0.2607(4) 0.7292(4)
H1 H 0.481231 0.261179 0.750159
C2 C 0.3257(5) 0.1943(5) 0.7736(5)
C3 C 0.1913(6) 0.1934(5) 0.7412(5)
H2 H 0.148097 0.148874 0.771590
C4 C 0.1195(5) 0.2589(4) 0.6629(5)
C5 C 0.1874(6) 0.3267(5) 0.6220(5)
H3 H 0.142209 0.373105 0.572715
C6 C 0.3214(5) 0.3266(5) 0.6530(4)
Cu1 Cu 0.39577(6) 0.56227(5) 0.47219(5)
O1 O 0.3293(4) 0.4716(3) 0.5556(3)
O2 O 0.5028(4) 0.3682(3) 0.6036(3)
O3 O 0.5102(4) 0.1447(3) 0.9082(3)
O4 O 0.3369(4) 0.0413(3) 0.8658(3)
C7 C 0.3908(5) 0.3956(4) 0.5998(4)
C8 C 0.3966(5) 0.1219(4) 0.8564(4)
H7 H 0.021862 0.448302 0.669229
Cu4 Cu 0.60423(6) 0.43773(5) 0.52781(5)
O5 O 0.4972(4) 0.6318(3) 0.3964(3)
O6 O 0.4898(4) 0.6447(3) 0.5918(3)
O7 O 0.3369(4) 0.4587(3) 0.3658(3)
N2 N 0.2380(4) 0.6777(4) 0.4235(4)
Cu5 Cu 0.39577(6) 0.93773(5) 0.97219(5)
N1 N 0.7620(4) 0.3223(4) 0.5765(4)
C9 C 0.9757(5) 0.2505(4) 0.6271(5)
C10 C 0.9220(6) 0.1514(5) 0.6136(7)
H4 H 0.975466 0.093489 0.625684
C11 C 0.7908(7) 0.1393(6) 0.5827(7)
H5 H 0.753946 0.073596 0.574583
C12 C 0.7155(6) 0.2256(6) 0.5642(6)
H6 H 0.626255 0.216856 0.541481
C13 C 0.8922(5) 0.3366(4) 0.6087(5)
C14 C 0.9363(6) 0.4451(5) 0.6217(7)
H8 H 0.878484 0.485456 0.645778
H9 H 0.937352 0.472412 0.558631
N1_2 N 0.2380(4) 0.8223(4) 0.9235(4)
C9_2 C 0.0243(5) 0.7505(4) 0.8729(5)
C10_2 C 0.0780(6) 0.6514(5) 0.8864(7)
H4_2 H 0.024534 0.593489 0.874316
C11_2 C 0.2092(7) 0.6393(6) 0.9173(7)
H5_2 H 0.246054 0.573596 0.925417
C12_2 C 0.2845(6) 0.7256(6) 0.9358(6)
H6_2 H 0.373745 0.716856 0.958519
C13_2 C 0.1078(5) 0.8366(4) 0.8913(5)
C14_2 C 0.0637(6) 0.9451(5) 0.8783(7)
H8_2 H 0.121516 0.985456 0.854222
H9_2 H 0.062648 0.972412 0.941369
O5_2 O 0.5028(4) 0.1318(3) 0.1036(3)
N2_2 N 0.7620(4) 0.1777(4) 0.0765(4)
O7_2 O 0.6631(4) 0.9587(3) 0.1342(3)
C1_2 C 0.6087(5) 0.7607(4) 0.7708(4)
H1_2 H 0.518769 0.761179 0.749841
C2_2 C 0.6743(5) 0.6943(5) 0.7264(5)
C3_2 C 0.8087(6) 0.6934(5) 0.7588(5)
H2_2 H 0.851903 0.648874 0.728410
C4_2 C 0.8805(5) 0.7589(4) 0.8371(5)
C5_2 C 0.8126(6) 0.8267(5) 0.8780(5)
H3_2 H 0.857791 0.873105 0.927285
C6_2 C 0.6786(5) 0.8266(5) 0.8470(4)
O1_2 O 0.6707(4) 0.9716(3) 0.9444(3)
O2_2 O 0.4972(4) 0.8682(3) 0.8964(3)
O4_2 O 0.6631(4) 0.5413(3) 0.6342(3)
C7_2 C 0.6092(5) 0.8956(4) 0.9002(4)
C8_2 C 0.6034(5) 0.6219(4) 0.6436(4)
H7_2 H 0.978138 0.948302 0.830771
C9_3 C 0.0243(5) 0.7495(4) 0.3729(5)
C10_3 C 0.0780(6) 0.8486(5) 0.3864(7)
H4_3 H 0.024534 0.906511 0.374316
C11_3 C 0.2092(7) 0.8607(6) 0.4173(7)
H5_3 H 0.246054 0.926404 0.425417
C12_3 C 0.2845(6) 0.7744(6) 0.4358(6)
H6_3 H 0.373745 0.783144 0.458519
C13_3 C 0.1078(5) 0.6634(4) 0.3913(5)
C14_3 C 0.0637(6) 0.5549(5) 0.3783(7)
H8_3 H 0.121516 0.514544 0.354222
H9_3 H 0.062648 0.527588 0.441369
C1_3 C 0.6087(5) 0.7393(4) 0.2708(4)
H1_3 H 0.518769 0.738821 0.249841
C2_3 C 0.6743(5) 0.8057(5) 0.2264(5)
C3_3 C 0.8087(6) 0.8066(5) 0.2588(5)
H2_3 H 0.851903 0.851126 0.228410
C4_3 C 0.8805(5) 0.7411(4) 0.3371(5)
C5_3 C 0.8126(6) 0.6733(5) 0.3780(5)
H3_3 H 0.857791 0.626895 0.427285
C6_3 C 0.6786(5) 0.6734(5) 0.3470(4)
O1_3 O 0.6707(4) 0.5284(3) 0.4444(3)
O3_2 O 0.4898(4) 0.8553(3) 0.0918(3)
C7_3 C 0.6092(5) 0.6044(4) 0.4002(4)
C8_3 C 0.6034(5) 0.8781(4) 0.1436(4)
H7_3 H 0.978138 0.551698 0.330771
O6_2 O 0.5102(4) 0.3553(3) 0.4082(3)
C1_4 C 0.3913(5) 0.2393(4) 0.2292(4)
H1_4 H 0.481231 0.238821 0.250159
C2_4 C 0.3257(5) 0.3057(5) 0.2736(5)
C3_4 C 0.1913(6) 0.3066(5) 0.2412(5)
H2_4 H 0.148097 0.351126 0.271590
C4_4 C 0.1195(5) 0.2411(4) 0.1629(5)
C5_4 C 0.1874(6) 0.1733(5) 0.1220(5)
H3_4 H 0.142209 0.126895 0.072715
C6_4 C 0.3214(5) 0.1734(5) 0.1530(4)
O1_4 O 0.3293(4) 0.0284(3) 0.0556(3)
C7_4 C 0.3908(5) 0.1044(4) 0.0998(4)
C8_4 C 0.3966(5) 0.3781(4) 0.3564(4)
H7_4 H 0.021862 0.051698 0.169229
C9_4 C 0.9757(5) 0.2495(4) 0.1271(5)
C10_4 C 0.9220(6) 0.3486(5) 0.1136(7)
H4_4 H 0.975466 0.406511 0.125684
C11_4 C 0.7908(7) 0.3607(6) 0.0827(7)
H5_4 H 0.753946 0.426404 0.074583
C12_4 C 0.7155(6) 0.2744(6) 0.0642(6)
H6_4 H 0.626255 0.283144 0.041481
C13_4 C 0.8922(5) 0.1634(4) 0.1087(5)
C14_4 C 0.9363(6) 0.0549(5) 0.1217(7)
H8_4 H 0.878484 0.014544 0.145778
H9_4 H 0.937352 0.027588 0.058631
loop_
_geom_bond_atom_site_label_1
_geom_bond_atom_site_label_2
_geom_bond_site_symmetry_1
_geom_bond_site_symmetry_2
C1 H1 1_555 1_555
C2 C1 1_555 1_555
C3 C2 1_555 1_555
H2 C3 1_555 1_555
C4 C3 1_555 1_555
C5 C4 1_555 1_555
H3 C5 1_555 1_555
C6 C1 1_555 1_555
Cu1 O1 1_555 1_555
O1 C7 1_555 1_555
O2 C7 1_555 1_555
O3 C8 1_555 1_555
O4 C8 1_555 1_555
C7 C6 1_555 1_555
C8 C2 1_555 1_555
Cu4 O2 1_555 1_555
O5 Cu1 1_555 1_555
O6 Cu1 1_555 1_555
O7 Cu1 1_555 1_555
N2 Cu1 1_555 1_555
C5 C6 1_555 1_555
N1 C12 1_555 1_555
C10 C9 1_555 1_555
H4 C10 1_555 1_555
C11 C10 1_555 1_555
H5 C11 1_555 1_555
C12 C11 1_555 1_555
H6 C12 1_555 1_555
C13 N1 1_555 1_555
C14 C13 1_555 1_555
H8 C14 1_555 1_555
H9 C14 1_555 1_555
Cu4 N1 1_555 1_555
C9 C13 1_555 1_555
N1_2 C12_2 1_555 1_555
C10_2 C9_2 1_555 1_555
H4_2 C10_2 1_555 1_555
C11_2 C10_2 1_555 1_555
H5_2 C11_2 1_555 1_555
C12_2 C11_2 1_555 1_555
H6_2 C12_2 1_555 1_555
C13_2 N1_2 1_555 1_555
C14_2 C13_2 1_555 1_555
H8_2 C14_2 1_555 1_555
H9_2 C14_2 1_555 1_555
Cu5 N1_2 1_555 1_555
C9_2 C13_2 1_555 1_555
O5_2 Cu2 1_555 1_555
N2_2 Cu2 1_555 1_555
C1_2 H1_2 1_555 1_555
C2_2 C1_2 1_555 1_555
C3_2 C2_2 1_555 1_555
H2_2 C3_2 1_555 1_555
C4_2 C3_2 1_555 1_555
C5_2 C4_2 1_555 1_555
H3_2 C5_2 1_555 1_555
C6_2 C1_2 1_555 1_555
O1_2 C7_2 1_555 1_555
O2_2 C7_2 1_555 1_555
O6 C8_2 1_555 1_555
O4_2 C8_2 1_555 1_555
C7_2 C6_2 1_555 1_555
C8_2 C2_2 1_555 1_555
Cu5 O2_2 1_555 1_555
Cu4 O4_2 1_555 1_555
C5_2 C6_2 1_555 1_555
N2 C12_3 1_555 1_555
C10_3 C9_3 1_555 1_555
H4_3 C10_3 1_555 1_555
C11_3 C10_3 1_555 1_555
H5_3 C11_3 1_555 1_555
C12_3 C11_3 1_555 1_555
H6_3 C12_3 1_555 1_555
C13_3 N2 1_555 1_555
C14_3 C13_3 1_555 1_555
H8_3 C14_3 1_555 1_555
H9_3 C14_3 1_555 1_555
C9_3 C13_3 1_555 1_555
C1_3 H1_3 1_555 1_555
C2_3 C1_3 1_555 1_555
C3_3 C2_3 1_555 1_555
H2_3 C3_3 1_555 1_555
C4_3 C3_3 1_555 1_555
C5_3 C4_3 1_555 1_555
H3_3 C5_3 1_555 1_555
C6_3 C1_3 1_555 1_555
Cu4 O1_3 1_555 1_555
O1_3 C7_3 1_555 1_555
O5 C7_3 1_555 1_555
O3_2 C8_3 1_555 1_555
O7_2 C8_3 1_555 1_555
C7_3 C6_3 1_555 1_555
C8_3 C2_3 1_555 1_555
O6_2 Cu4 1_555 1_555
C5_3 C6_3 1_555 1_555
C1_4 H1_4 1_555 1_555
C2_4 C1_4 1_555 1_555
C3_4 C2_4 1_555 1_555
H2_4 C3_4 1_555 1_555
C4_4 C3_4 1_555 1_555
C5_4 C4_4 1_555 1_555
H3_4 C5_4 1_555 1_555
C6_4 C1_4 1_555 1_555
O1_4 C7_4 1_555 1_555
O5_2 C7_4 1_555 1_555
O6_2 C8_4 1_555 1_555
O7 C8_4 1_555 1_555
C7_4 C6_4 1_555 1_555
C8_4 C2_4 1_555 1_555
C5_4 C6_4 1_555 1_555
N2_2 C12_4 1_555 1_555
C10_4 C9_4 1_555 1_555
H4_4 C10_4 1_555 1_555
C11_4 C10_4 1_555 1_555
H5_4 C11_4 1_555 1_555
C12_4 C11_4 1_555 1_555
H6_4 C12_4 1_555 1_555
C13_4 N2_2 1_555 1_555
C14_4 C13_4 1_555 1_555
H8_4 C14_4 1_555 1_555
H9_4 C14_4 1_555 1_555
C9_4 C13_4 1_555 1_555

#END
