
###############################################################################
#
# This file contains modified crystal structure data generated from the
# MOF subset of the Cambridge Structural Database (CSD) v543 
# hosted by the Cambridge Crystallographic Data Centre (CCDC).
#
# This work is licensed under the Creative Commons
# Attribution-NonCommercial-ShareAlike 4.0 International License.
# To view a copy of this license, visit
# http://creativecommons.org/licenses/by-nc-sa/4.0/
# or send a letter to
# Creative Commons, PO Box 1866, Mountain View, CA 94042, USA.
#
# CIF created using the CSD Python API on 29 September 2022
# The structure has been converted into the P1 space group
# The structure has a 3D framework
# The original CSD entry UMEDUO is in the monoclinic crystal system
# The framework has been calculated to contain at least 10.0% void space
# The void calculation uses a probe of radius 1.32A, grid spacing 0.4
#
###############################################################################

data_UMEDUO
_chemical_formula_moiety         '(C56 H36 Cu2 N4 O16)n'
_symmetry_cell_setting           triclinic
_symmetry_space_group_name_H-M   'P 1'
_symmetry_Int_Tables_number      1
_space_group_name_Hall           'P 1'
loop_
_symmetry_equiv_pos_site_id
_symmetry_equiv_pos_as_xyz
1 x,y,z
_cell_length_a                   10.6531(5)
_cell_length_b                   11.5177(4)
_cell_length_c                   14.6147(6)
_cell_angle_alpha                90
_cell_angle_beta                 107.784(5)
_cell_angle_gamma                90
_cell_volume                     1707.52
loop_
_atom_site_label
_atom_site_type_symbol
_atom_site_fract_x
_atom_site_fract_y
_atom_site_fract_z
Cu1 Cu 0.59586(10) 0.07873(8) 0.51867(7)
O1 O 0.3155(6) 0.4742(5) 0.0481(4)
O2 O 0.4819(6) 0.3460(5) 0.0860(4)
O3 O 0.4799(6) 0.1381(5) 0.3941(4)
O4 O 0.3157(6) 0.0087(5) 0.3646(4)
C1 C 0.3711(8) 0.3819(7) 0.0868(6)
C2 C 0.2969(8) 0.3054(8) 0.1346(6)
C3 C 0.1602(8) 0.2932(8) 0.0963(7)
H1 H 0.113537 0.340285 0.045640
C4 C 0.0932(8) 0.2102(7) 0.1339(6)
C5 C 0.1631(8) 0.1454(8) 0.2132(6)
H2 H 0.119442 0.090065 0.238551
C6 C 0.2977(8) 0.1625(8) 0.2553(6)
C7 C 0.3647(8) 0.2407(8) 0.2144(6)
H3 H 0.455419 0.249570 0.240808
C8 C 0.3696(8) 0.0987(7) 0.3445(6)
Cu5 Cu 0.59586(10) 0.42127(8) 0.01867(7)
O6 O 0.4819(6) 0.1540(5) 0.5860(4)
N2 N 0.7326(6) 0.2220(6) 0.5366(6)
Cu2 Cu 0.40414(10) 0.57873(8) 0.98133(7)
Cu3 Cu 0.40414(10) 0.92127(8) 0.48133(7)
O5 O 0.6845(6) 0.9742(5) 0.4519(4)
O7 O 0.6843(6) 0.9913(5) 0.6354(4)
N1 N 0.7326(6) 0.2780(6) 0.0366(6)
C9 C 0.9481(8) 0.1943(7) 0.0926(7)
C10 C 0.8625(8) 0.2894(7) 0.0722(7)
H4 H 0.897944 0.363731 0.084037
C11 C 0.6828(9) 0.1707(8) 0.0167(8)
C12 C 0.7583(9) 0.0714(8) 0.0351(8)
C13 C 0.8929(9) 0.0849(8) 0.0746(8)
H6 H 0.946850 0.019701 0.089219
N1_2 N 0.2674(6) 0.7780(6) 0.4634(6)
C9_2 C 0.0519(8) 0.6943(7) 0.4074(7)
C10_2 C 0.1375(8) 0.7894(7) 0.4278(7)
H4_2 H 0.102056 0.863731 0.415963
C11_2 C 0.3172(9) 0.6707(8) 0.4833(8)
H5 H 0.407808 0.662967 0.511083
C12_2 C 0.2417(9) 0.5714(8) 0.4649(8)
C13_2 C 0.1071(9) 0.5849(8) 0.4254(8)
H6_2 H 0.053150 0.519701 0.410781
C14 C 0.3050(12) 0.4546(11) 0.4858(12)
H7 H 0.318696 0.423879 0.428512
H8 H 0.248777 0.403248 0.507214
H9 H 0.388293 0.461646 0.535038
O2_2 O 0.5181(6) 0.8460(5) 0.4140(4)
O3_2 O 0.5201(6) 0.6381(5) 0.1059(4)
O4_2 O 0.6843(6) 0.5087(5) 0.1354(4)
C1_2 C 0.6289(8) 0.8819(7) 0.4132(6)
C2_2 C 0.7031(8) 0.8054(8) 0.3654(6)
C3_2 C 0.8398(8) 0.7932(8) 0.4037(7)
H1_2 H 0.886463 0.840285 0.454360
C4_2 C 0.9068(8) 0.7102(7) 0.3661(6)
C5_2 C 0.8369(8) 0.6454(8) 0.2868(6)
H2_2 H 0.880558 0.590065 0.261449
C6_2 C 0.7023(8) 0.6625(8) 0.2447(6)
C7_2 C 0.6353(8) 0.7407(8) 0.2856(6)
H3_2 H 0.544581 0.749570 0.259192
C8_2 C 0.6304(8) 0.5987(7) 0.1555(6)
O6_2 O 0.5181(6) 0.6540(5) 0.9140(4)
O7_2 O 0.3157(6) 0.4913(5) 0.8646(4)
N2_2 N 0.2674(6) 0.7220(6) 0.9634(6)
C9_3 C 0.0519(8) 0.8057(7) 0.9074(7)
C10_3 C 0.1375(8) 0.7106(7) 0.9278(7)
H4_3 H 0.102056 0.636269 0.915963
C11_3 C 0.3172(9) 0.8293(8) 0.9833(8)
C12_3 C 0.2417(9) 0.9286(8) 0.9649(8)
C13_3 C 0.1071(9) 0.9151(8) 0.9254(8)
H6_3 H 0.053150 0.980299 0.910781
O5_2 O 0.3155(6) 0.0258(5) 0.5481(4)
O1_2 O 0.6845(6) 0.5258(5) 0.9519(4)
O3_3 O 0.5201(6) 0.8619(5) 0.6059(4)
C1_3 C 0.6289(8) 0.6181(7) 0.9132(6)
C2_3 C 0.7031(8) 0.6946(8) 0.8654(6)
C3_3 C 0.8398(8) 0.7068(8) 0.9037(7)
H1_3 H 0.886463 0.659715 0.954360
C4_3 C 0.9068(8) 0.7898(7) 0.8661(6)
C5_3 C 0.8369(8) 0.8546(8) 0.7868(6)
H2_3 H 0.880558 0.909935 0.761449
C6_3 C 0.7023(8) 0.8375(8) 0.7447(6)
C7_3 C 0.6353(8) 0.7593(8) 0.7856(6)
H3_3 H 0.544581 0.750430 0.759192
C8_3 C 0.6304(8) 0.9013(7) 0.6555(6)
O3_4 O 0.4799(6) 0.3619(5) 0.8941(4)
C1_4 C 0.3711(8) 0.1181(7) 0.5868(6)
C2_4 C 0.2969(8) 0.1946(8) 0.6346(6)
C3_4 C 0.1602(8) 0.2068(8) 0.5963(7)
H1_4 H 0.113537 0.159715 0.545640
C4_4 C 0.0932(8) 0.2898(7) 0.6339(6)
C5_4 C 0.1631(8) 0.3546(8) 0.7132(6)
H2_4 H 0.119442 0.409935 0.738551
C6_4 C 0.2977(8) 0.3375(8) 0.7553(6)
C7_4 C 0.3647(8) 0.2593(8) 0.7144(6)
H3_4 H 0.455419 0.250430 0.740808
C8_4 C 0.3696(8) 0.4013(7) 0.8445(6)
C9_4 C 0.9481(8) 0.3057(7) 0.5926(7)
C10_4 C 0.8625(8) 0.2106(7) 0.5722(7)
H4_4 H 0.897944 0.136269 0.584037
C11_4 C 0.6828(9) 0.3293(8) 0.5167(8)
H5_2 H 0.592192 0.337033 0.488917
C12_4 C 0.7583(9) 0.4286(8) 0.5351(8)
C13_4 C 0.8929(9) 0.4151(8) 0.5746(8)
H6_4 H 0.946850 0.480299 0.589219
C14_2 C 0.6950(12) 0.5454(11) 0.5142(12)
H7_2 H 0.681304 0.576121 0.571488
H8_2 H 0.751223 0.596752 0.492786
H9_2 H 0.611707 0.538354 0.464962
H5_3 H 0.592192 0.162967 0.988917
C14_3 C 0.6950(12) 0.9546(11) 0.0142(12)
H7_3 H 0.681304 0.923879 0.071488
H8_3 H 0.751223 0.903248 0.992786
H9_3 H 0.611707 0.961646 0.964962
H8_4 H 0.248777 0.096752 0.007214
H9_4 H 0.388293 0.038354 0.035038
C14_4 C 0.3050(12) 0.0454(11) 0.9858(12)
H7_4 H 0.318696 0.076121 0.928512
H5_4 H 0.407808 0.837033 0.011083
loop_
_geom_bond_atom_site_label_1
_geom_bond_atom_site_label_2
_geom_bond_site_symmetry_1
_geom_bond_site_symmetry_2
Cu1 O3 1_555 1_555
O1 C1 1_555 1_555
O2 C1 1_555 1_555
O3 C8 1_555 1_555
O4 C8 1_555 1_555
C1 C2 1_555 1_555
C2 C3 1_555 1_555
C3 H1 1_555 1_555
C4 C3 1_555 1_555
C5 C4 1_555 1_555
H2 C5 1_555 1_555
C6 C5 1_555 1_555
C7 C2 1_555 1_555
H3 C7 1_555 1_555
C8 C6 1_555 1_555
Cu5 O2 1_555 1_555
O6 Cu1 1_555 1_555
N2 Cu1 1_555 1_555
C6 C7 1_555 1_555
N1 C10 1_555 1_555
C10 C9 1_555 1_555
H4 C10 1_555 1_555
C11 N1 1_555 1_555
C12 C11 1_555 1_555
C13 C9 1_555 1_555
H6 C13 1_555 1_555
Cu5 N1 1_555 1_555
C12 C13 1_555 1_555
N1_2 C10_2 1_555 1_555
C10_2 C9_2 1_555 1_555
H4_2 C10_2 1_555 1_555
C11_2 N1_2 1_555 1_555
H5 C11_2 1_555 1_555
C12_2 C11_2 1_555 1_555
C13_2 C9_2 1_555 1_555
H6_2 C13_2 1_555 1_555
C14 C12_2 1_555 1_555
H7 C14 1_555 1_555
H8 C14 1_555 1_555
H9 C14 1_555 1_555
Cu3 N1_2 1_555 1_555
C12_2 C13_2 1_555 1_555
O5 C1_2 1_555 1_555
O2_2 C1_2 1_555 1_555
O3_2 C8_2 1_555 1_555
O4_2 C8_2 1_555 1_555
C1_2 C2_2 1_555 1_555
C2_2 C3_2 1_555 1_555
C3_2 H1_2 1_555 1_555
C4_2 C3_2 1_555 1_555
C5_2 C4_2 1_555 1_555
H2_2 C5_2 1_555 1_555
C6_2 C5_2 1_555 1_555
C7_2 C2_2 1_555 1_555
H3_2 C7_2 1_555 1_555
C8_2 C6_2 1_555 1_555
Cu5 O4_2 1_555 1_555
Cu3 O2_2 1_555 1_555
C6_2 C7_2 1_555 1_555
O6_2 Cu2 1_555 1_555
O7_2 Cu2 1_555 1_555
N2_2 Cu2 1_555 1_555
N2_2 C10_3 1_555 1_555
C10_3 C9_3 1_555 1_555
H4_3 C10_3 1_555 1_555
C11_3 N2_2 1_555 1_555
C12_3 C11_3 1_555 1_555
C13_3 C9_3 1_555 1_555
H6_3 C13_3 1_555 1_555
C12_3 C13_3 1_555 1_555
Cu3 O3_3 1_555 1_555
O1_2 C1_3 1_555 1_555
O6_2 C1_3 1_555 1_555
O3_3 C8_3 1_555 1_555
O7 C8_3 1_555 1_555
C1_3 C2_3 1_555 1_555
C2_3 C3_3 1_555 1_555
C3_3 H1_3 1_555 1_555
C4_3 C3_3 1_555 1_555
C5_3 C4_3 1_555 1_555
H2_3 C5_3 1_555 1_555
C6_3 C5_3 1_555 1_555
C7_3 C2_3 1_555 1_555
H3_3 C7_3 1_555 1_555
C8_3 C6_3 1_555 1_555
C6_3 C7_3 1_555 1_555
O5_2 C1_4 1_555 1_555
O6 C1_4 1_555 1_555
O3_4 C8_4 1_555 1_555
O7_2 C8_4 1_555 1_555
C1_4 C2_4 1_555 1_555
C2_4 C3_4 1_555 1_555
C3_4 H1_4 1_555 1_555
C4_4 C3_4 1_555 1_555
C5_4 C4_4 1_555 1_555
H2_4 C5_4 1_555 1_555
C6_4 C5_4 1_555 1_555
C7_4 C2_4 1_555 1_555
H3_4 C7_4 1_555 1_555
C8_4 C6_4 1_555 1_555
C6_4 C7_4 1_555 1_555
N2 C10_4 1_555 1_555
C10_4 C9_4 1_555 1_555
H4_4 C10_4 1_555 1_555
C11_4 N2 1_555 1_555
H5_2 C11_4 1_555 1_555
C12_4 C11_4 1_555 1_555
C13_4 C9_4 1_555 1_555
H6_4 C13_4 1_555 1_555
C14_2 C12_4 1_555 1_555
H7_2 C14_2 1_555 1_555
H8_2 C14_2 1_555 1_555
H9_2 C14_2 1_555 1_555
C12_4 C13_4 1_555 1_555
H7_3 C14_3 1_555 1_555
H7_4 C14_4 1_555 1_555

#END
