
###############################################################################
#
# This file contains modified crystal structure data generated from the
# MOF subset of the Cambridge Structural Database (CSD) v543 
# hosted by the Cambridge Crystallographic Data Centre (CCDC).
#
# This work is licensed under the Creative Commons
# Attribution-NonCommercial-ShareAlike 4.0 International License.
# To view a copy of this license, visit
# http://creativecommons.org/licenses/by-nc-sa/4.0/
# or send a letter to
# Creative Commons, PO Box 1866, Mountain View, CA 94042, USA.
#
# CIF created using the CSD Python API on 29 September 2022
# The structure has been converted into the P1 space group
# The structure has a 3D framework
# The original CSD entry UMEXUF01 is in the monoclinic crystal system
# The framework has been calculated to contain at least 10.0% void space
# The void calculation uses a probe of radius 1.32A, grid spacing 0.4
#
###############################################################################

data_UMEXUF01
_chemical_formula_moiety         '(C40 H28 O44 Zn16)n'
_symmetry_cell_setting           triclinic
_symmetry_space_group_name_H-M   'P 1'
_symmetry_Int_Tables_number      1
_space_group_name_Hall           'P 1'
loop_
_symmetry_equiv_pos_site_id
_symmetry_equiv_pos_as_xyz
1 x,y,z
_cell_length_a                   7.4196(2)
_cell_length_b                   16.7276(4)
_cell_length_c                   15.4905(3)
_cell_angle_alpha                90
_cell_angle_beta                 113.2070(10)
_cell_angle_gamma                90
_cell_volume                     1767
loop_
_atom_site_label
_atom_site_type_symbol
_atom_site_fract_x
_atom_site_fract_y
_atom_site_fract_z
Zn2 Zn 0.0000 0.0000 0.0000
H3 H 0.3401 0.0302 0.0227
Zn16 Zn 0.71005(9) 0.12441(4) 0.02236(4)
O27 O 0.0074(5) 0.0846(2) 0.1050(3)
O29 O 0.2995(6) 0.0739(3) 0.2210(3)
O32 O 0.6561(6) 0.0850(2) 0.1332(3)
O35 O 0.7066(6) 0.0508(2) 0.2761(3)
Zn2_2 Zn 0.0000 0.0000 1.0000
C14 C 0.1623(7) 0.2165(3) 0.8348(4)
C16 C 0.0734(7) 0.3386(3) 0.7417(4)
C17 C 0.2024(7) 0.2758(3) 0.7818(4)
H9 H 0.3191 0.2733 0.7729
C18 C 0.3127(7) 0.1517(3) 0.8718(4)
C19 C 0.1303(7) 0.3986(3) 0.6851(4)
O13 O 0.0149(6) 0.0937(2) 0.9159(3)
O14 O 0.4210(6) 0.1533(3) 0.9579(3)
O15 O 0.3256(6) 0.1039(2) 0.8129(3)
O16 O 0.0074(5) 0.4154(2) 0.6050(3)
O17 O 0.2995(6) 0.4261(3) 0.7210(3)
Zn9 Zn 0.53682(8) 0.01698(3) 0.81630(4)
Zn11 Zn 0.46318(8) 0.51698(3) 0.68370(4)
Zn13 Zn -0.0000 0.5000 0.5000
Zn1 Zn 0.46318(8) 0.98302(3) 0.18370(4)
Zn2_3 Zn 0.0000 1.0000 0.0000
C1 C 0.0663(8) 0.8401(3) 0.0948(4)
C2 C 0.0082(7) 0.7776(3) 0.1480(4)
C3 C 0.1326(7) 0.7131(3) 0.1842(4)
H1 H 0.2428 0.7079 0.1702
C5 C 0.0976(7) 0.6561(3) 0.2411(4)
C10 C 0.2509(7) 0.5928(3) 0.2801(4)
O1 O 0.1938(7) 0.8190(3) 0.0645(4)
O7 O 0.3439(6) 0.5850(2) 0.3668(3)
O8 O 0.2934(6) 0.5508(2) 0.2239(3)
O9 O 0.2991(5) 0.9844(2) 0.0439(3)
O10 O 0.3953(7) 0.9106(3) 0.2738(4)
H6 H 0.2697 0.9116 0.2678
H7 H 0.4757 0.8695 0.3068
Zn8 Zn 0.53682(8) 0.48302(3) 0.31630(4)
Zn17 Zn 0.28995(9) 0.62441(4) 0.47764(4)
O23 O 0.5790(6) 0.8467(3) 0.0421(3)
O25 O 0.6744(6) 0.8961(2) 0.1871(3)
Zn2_4 Zn 0.0000 1.0000 1.0000
Zn3 Zn 0.28995(9) 0.87559(4) 0.97764(4)
O11 O 0.2718(10) 0.7472(4) 0.9278(5)
H4 H 0.1736 0.7291 0.8745
H5 H 0.2460 0.7267 0.9758
O34 O 0.3439(6) 0.9150(2) 0.8668(3)
Zn2_5 Zn 1.0000 0.0000 0.0000
O22 O 0.7282(10) 0.2528(4) 0.0722(5)
H11 H 0.8264 0.2709 0.1255
H12 H 0.7540 0.2733 0.0242
Zn2_6 Zn 1.0000 0.0000 1.0000
C11 C 0.9337(8) 0.1599(3) 0.9052(4)
C12 C 0.9918(7) 0.2224(3) 0.8520(4)
C13 C 0.8674(7) 0.2869(3) 0.8158(4)
H8 H 0.7572 0.2921 0.8298
C15 C 0.9024(7) 0.3439(3) 0.7589(4)
C20 C 0.7491(7) 0.4072(3) 0.7199(4)
O12 O 0.8062(7) 0.1810(3) 0.9355(4)
O18 O 0.6561(6) 0.4150(2) 0.6332(3)
O19 O 0.7066(6) 0.4492(2) 0.7761(3)
O20 O 0.7009(5) 0.0156(2) 0.9561(3)
O21 O 0.6047(7) 0.0894(3) 0.7262(4)
H13 H 0.7303 0.0884 0.7322
H14 H 0.5243 0.1305 0.6932
Zn13_2 Zn 1.0000 0.5000 0.5000
Zn15 Zn 0.71005(9) 0.37559(4) 0.52236(4)
Zn2_7 Zn 1.0000 1.0000 0.0000
C4 C 0.8377(7) 0.7835(3) 0.1652(4)
C6 C 0.9266(7) 0.6614(3) 0.2583(4)
C7 C 0.7976(7) 0.7242(3) 0.2182(4)
H2 H 0.6809 0.7267 0.2271
C8 C 0.6873(7) 0.8483(3) 0.1282(4)
C9 C 0.8697(7) 0.6014(3) 0.3149(4)
O2 O 0.9851(6) 0.9063(2) 0.0841(3)
O5 O 0.9926(5) 0.5846(2) 0.3950(3)
O6 O 0.7005(6) 0.5739(3) 0.2790(3)
Zn2_8 Zn 1.0000 1.0000 1.0000
H10 H 0.6599 0.9698 0.9773
O28 O 0.9926(5) 0.9154(2) 0.8950(3)
O30 O 0.7005(6) 0.9261(3) 0.7790(3)
O36 O 0.2934(6) 0.9492(2) 0.7239(3)
C4_2 C 0.1623(7) 0.2835(3) 0.3348(4)
C6_2 C 0.0734(7) 0.1614(3) 0.2417(4)
C7_2 C 0.2024(7) 0.2242(3) 0.2818(4)
H2_2 H 0.3191 0.2267 0.2729
C8_2 C 0.3127(7) 0.3483(3) 0.3718(4)
C9_2 C 0.1303(7) 0.1014(3) 0.1851(4)
O2_2 O 0.0149(6) 0.4063(2) 0.4159(3)
O3 O 0.4210(6) 0.3467(3) 0.4579(3)
O4 O 0.3256(6) 0.3961(2) 0.3129(3)
C11_2 C 0.0663(8) 0.6599(3) 0.5948(4)
C12_2 C 0.0082(7) 0.7224(3) 0.6480(4)
C13_2 C 0.1326(7) 0.7869(3) 0.6842(4)
H8_2 H 0.2428 0.7921 0.6702
C15_2 C 0.0976(7) 0.8439(3) 0.7411(4)
C20_2 C 0.2509(7) 0.9072(3) 0.7801(4)
O12_2 O 0.1938(7) 0.6810(3) 0.5645(4)
O20_2 O 0.2991(5) 0.5156(2) 0.5439(3)
H10_2 H 0.3401 0.4698 0.5227
O21_2 O 0.3953(7) 0.5894(3) 0.7738(4)
O22_2 O 0.2718(10) 0.7528(4) 0.4278(5)
H11_2 H 0.1736 0.7709 0.3745
H12_2 H 0.2460 0.7733 0.4758
H13_2 H 0.2697 0.5884 0.7678
H14_2 H 0.4757 0.6305 0.8068
O24 O 0.5790(6) 0.6533(3) 0.5421(3)
O26 O 0.6744(6) 0.6039(2) 0.6871(3)
C1_2 C 0.9337(8) 0.3401(3) 0.4052(4)
C2_2 C 0.9918(7) 0.2776(3) 0.3520(4)
C3_2 C 0.8674(7) 0.2131(3) 0.3158(4)
H1_2 H 0.7572 0.2079 0.3298
C5_2 C 0.9024(7) 0.1561(3) 0.2589(4)
C10_2 C 0.7491(7) 0.0928(3) 0.2199(4)
O1_2 O 0.8062(7) 0.3190(3) 0.4355(4)
O9_2 O 0.7009(5) 0.4844(2) 0.4561(3)
H3_2 H 0.6599 0.5302 0.4773
O10_2 O 0.6047(7) 0.4106(3) 0.2262(4)
O11_2 O 0.7282(10) 0.2472(4) 0.5722(5)
H4_2 H 0.8264 0.2291 0.6255
H5_2 H 0.7540 0.2267 0.5242
H6_2 H 0.7303 0.4116 0.2322
H7_2 H 0.5243 0.3695 0.1932
C14_2 C 0.8377(7) 0.7165(3) 0.6652(4)
C16_2 C 0.9266(7) 0.8386(3) 0.7583(4)
C17_2 C 0.7976(7) 0.7758(3) 0.7182(4)
H9_2 H 0.6809 0.7733 0.7271
C18_2 C 0.6873(7) 0.6517(3) 0.6282(4)
C19_2 C 0.8697(7) 0.8986(3) 0.8149(4)
O13_2 O 0.9851(6) 0.5937(2) 0.5841(3)
loop_
_geom_bond_atom_site_label_1
_geom_bond_atom_site_label_2
_geom_bond_site_symmetry_1
_geom_bond_site_symmetry_2
O27 Zn2 1_555 1_555
Zn16 O32 1_555 1_555
C17 C14 1_555 1_555
H9 C17 1_555 1_555
C18 C14 1_555 1_555
C19 C16 1_555 1_555
O13 Zn2_2 1_555 1_555
O14 C18 1_555 1_555
O15 C18 1_555 1_555
O16 C19 1_555 1_555
O17 C19 1_555 1_555
Zn9 O15 1_555 1_555
Zn11 O17 1_555 1_555
Zn13 O16 1_555 1_555
C16 C17 1_555 1_555
Zn1 O9 1_555 1_555
C1 C2 1_555 1_555
C2 C3 1_555 1_555
C3 H1 1_555 1_555
C5 C3 1_555 1_555
C10 C5 1_555 1_555
O1 C1 1_555 1_555
O7 C10 1_555 1_555
O8 C10 1_555 1_555
O9 Zn2_3 1_555 1_555
O10 Zn1 1_555 1_555
H6 O10 1_555 1_555
H7 O10 1_555 1_555
Zn8 O7 1_555 1_555
O25 Zn1 1_555 1_555
O7 Zn17 1_555 1_555
O8 Zn8 1_555 1_555
O11 Zn3 1_555 1_555
H4 O11 1_555 1_555
H5 O11 1_555 1_555
O34 Zn3 1_555 1_555
O22 Zn16 1_555 1_555
H11 O22 1_555 1_555
H12 O22 1_555 1_555
Zn9 O20 1_555 1_555
C11 C12 1_555 1_555
C12 C13 1_555 1_555
C13 H8 1_555 1_555
C15 C13 1_555 1_555
C20 C15 1_555 1_555
O12 C11 1_555 1_555
O18 C20 1_555 1_555
O19 C20 1_555 1_555
O20 Zn2_6 1_555 1_555
O21 Zn9 1_555 1_555
H13 O21 1_555 1_555
H14 O21 1_555 1_555
Zn11 O18 1_555 1_555
O18 Zn15 1_555 1_555
O19 Zn11 1_555 1_555
Zn2_7 O2 1_555 1_555
C7 C4 1_555 1_555
H2 C7 1_555 1_555
C8 C4 1_555 1_555
C9 C6 1_555 1_555
O23 C8 1_555 1_555
O25 C8 1_555 1_555
O5 C9 1_555 1_555
O6 C9 1_555 1_555
Zn8 O6 1_555 1_555
Zn13_2 O5 1_555 1_555
C6 C7 1_555 1_555
O28 Zn2_8 1_555 1_555
Zn13 O2_2 1_555 1_555
C7_2 C4_2 1_555 1_555
H2_2 C7_2 1_555 1_555
C8_2 C4_2 1_555 1_555
C9_2 C6_2 1_555 1_555
O3 C8_2 1_555 1_555
O4 C8_2 1_555 1_555
O27 C9_2 1_555 1_555
O29 C9_2 1_555 1_555
Zn11 O20_2 1_555 1_555
Zn17 O12_2 1_555 1_555
C11_2 C12_2 1_555 1_555
C12_2 C13_2 1_555 1_555
C13_2 H8_2 1_555 1_555
C15_2 C13_2 1_555 1_555
C20_2 C15_2 1_555 1_555
O12_2 C11_2 1_555 1_555
O34 C20_2 1_555 1_555
O36 C20_2 1_555 1_555
O20_2 Zn13 1_555 1_555
H10_2 O20_2 1_555 1_555
O21_2 Zn11 1_555 1_555
O22_2 Zn17 1_555 1_555
H11_2 O22_2 1_555 1_555
H12_2 O22_2 1_555 1_555
H13_2 O21_2 1_555 1_555
H14_2 O21_2 1_555 1_555
Zn8 O4 1_555 1_555
Zn15 O3 1_555 1_555
O24 Zn17 1_555 1_555
O26 Zn11 1_555 1_555
C6_2 C7_2 1_555 1_555
Zn17 O20_2 1_555 1_555
Zn8 O9_2 1_555 1_555
Zn15 O1_2 1_555 1_555
C1_2 C2_2 1_555 1_555
C2_2 C3_2 1_555 1_555
C3_2 H1_2 1_555 1_555
C5_2 C3_2 1_555 1_555
C10_2 C5_2 1_555 1_555
O1_2 C1_2 1_555 1_555
O32 C10_2 1_555 1_555
O35 C10_2 1_555 1_555
O9_2 Zn13_2 1_555 1_555
H3_2 O9_2 1_555 1_555
O10_2 Zn8 1_555 1_555
O11_2 Zn15 1_555 1_555
H4_2 O11_2 1_555 1_555
H5_2 O11_2 1_555 1_555
H6_2 O10_2 1_555 1_555
H7_2 O10_2 1_555 1_555
C17_2 C14_2 1_555 1_555
H9_2 C17_2 1_555 1_555
C18_2 C14_2 1_555 1_555
C19_2 C16_2 1_555 1_555
O13_2 Zn13_2 1_555 1_555
O24 C18_2 1_555 1_555
O26 C18_2 1_555 1_555
O28 C19_2 1_555 1_555
O30 C19_2 1_555 1_555
Zn15 O9_2 1_555 1_555
C16_2 C17_2 1_555 1_555

#END
