
###############################################################################
#
# This file contains modified crystal structure data generated from the
# MOF subset of the Cambridge Structural Database (CSD) v543 
# hosted by the Cambridge Crystallographic Data Centre (CCDC).
#
# This work is licensed under the Creative Commons
# Attribution-NonCommercial-ShareAlike 4.0 International License.
# To view a copy of this license, visit
# http://creativecommons.org/licenses/by-nc-sa/4.0/
# or send a letter to
# Creative Commons, PO Box 1866, Mountain View, CA 94042, USA.
#
# CIF created using the CSD Python API on 29 September 2022
# The structure has been converted into the P1 space group
# The structure has a 3D framework
# The original CSD entry UMUTOM is in the triclinic crystal system
# The framework has been calculated to contain at least 10.0% void space
# The void calculation uses a probe of radius 1.32A, grid spacing 0.4
# H atom positions have been added when not included in the experimental data
#
###############################################################################

data_UMUTOM
_chemical_formula_moiety         '(C80 H48 Eu10 N10 O70)n'
_symmetry_cell_setting           triclinic
_symmetry_space_group_name_H-M   'P 1'
_symmetry_Int_Tables_number      1
_space_group_name_Hall           'P 1'
loop_
_symmetry_equiv_pos_site_id
_symmetry_equiv_pos_as_xyz
1 x,y,z
_cell_length_a                   9.3669(5)
_cell_length_b                   14.1543(8)
_cell_length_c                   21.7897(13)
_cell_angle_alpha                95.0750(10)
_cell_angle_beta                 94.3150(10)
_cell_angle_gamma                104.7230(10)
_cell_volume                     2768.76
loop_
_atom_site_label
_atom_site_type_symbol
_atom_site_fract_x
_atom_site_fract_y
_atom_site_fract_z
Eu4 Eu 0.21148(4) 0.61275(3) 0.439870(15)
O25 O 0.2272(6) 0.7500(4) 0.3797(2)
O26 O 0.1548(6) 0.8159(4) 0.2976(2)
O30 O 0.0568(6) 0.4472(4) 0.4182(2)
O35 O 0.2593(6) 0.5340(4) 0.5291(3)
N5 N 0.0612(6) 0.5745(4) 0.3381(2)
C33 C 0.0693(7) 0.6435(5) 0.2993(3)
C34 C 0.0024(8) 0.6227(5) 0.2394(3)
H9 H 0.0084 0.6721 0.2135
C38 C 0.1573(7) 0.7451(5) 0.3270(3)
Eu8 Eu 0.15073(4) 0.93115(3) 0.220717(15)
O41 O 0.3499(7) 0.5502(5) 0.3702(3)
O42 O 0.1206(5) 0.7864(4) 0.1447(2)
O43 O 0.2090(6) 0.6853(4) 0.0847(2)
O47 O 0.4480(5) 0.7112(4) 0.4833(2)
O50 O 0.1426(5) 0.7312(4) 0.5170(2)
N6 N 0.0290(6) 0.1868(4) 0.4197(3)
H21 H 0.219662 0.56277 0.565185
H22 H 0.210132 0.462528 0.520989
Eu14 Eu 0.07689(4) 0.30851(3) 0.937080(16)
O40 O 0.0643(6) 0.7960(4) 0.9999(3)
Eu1 Eu 0.56814(4) 0.28786(3) 0.096816(15)
Eu3 Eu 0.76143(4) 0.17086(2) 0.381880(14)
Eu5 Eu 0.92311(4) 0.69149(3) 0.062920(16)
O1 O 0.3748(6) 0.1441(4) 0.1214(2)
O5 O 0.9357(6) 0.2040(4) 0.0001(3)
O6 O 0.8050(6) 0.2838(4) 0.0569(3)
O7 O 0.6649(6) 0.2303(4) 0.1900(2)
O8 O 0.6536(6) 0.2020(4) 0.2880(2)
O9 O 0.4682(8) 0.4581(5) 0.4203(3)
O11 O 0.2524(8) 0.4765(6) 0.1323(3)
O12 O 0.3924(6) 0.3861(4) 0.0918(2)
O17 O 0.5870(5) 0.0205(4) 0.3377(2)
O18 O 0.3694(6) 0.0156(4) 0.2864(2)
O20 O 0.0691(6) 0.0057(4) 0.3072(2)
O21 O 0.5654(6) 0.2130(4) 0.4238(2)
O22 O 0.5520(5) 0.2888(4) 0.5167(2)
O23 O 0.0440(5) 0.3652(4) 0.5457(2)
O27 O 0.9103(6) 0.5545(4) 0.1130(2)
O28 O 0.7422(6) 0.4296(4) 0.1432(2)
O29 O 0.9001(6) 0.3266(4) 0.3546(2)
O31 O 0.6288(6) 0.3944(4) 0.0064(2)
O32 O 0.1874(8) 0.1182(5) 0.2162(3)
O34 O 0.7440(8) 0.0483(5) 0.4536(3)
O36 O 0.6760(5) 0.5965(4) 0.0229(2)
N1 N 0.6142(6) 0.1202(4) 0.0722(3)
N2 N 0.4804(7) 0.3412(5) 0.1980(3)
C1 C 0.5184(7) 0.0393(5) 0.0852(3)
C4 C 0.7655(8) 0.0221(5) 0.0325(3)
H2 H 0.8524 0.0189 0.0153
C5 C 0.7342(8) 0.1111(5) 0.0461(3)
C6 C 0.3872(8) 0.0574(5) 0.1177(3)
C8 C 0.8347(8) 0.2072(6) 0.0332(3)
C9 C 0.5324(8) 0.3173(6) 0.2512(3)
C10 C 0.5124(9) 0.3593(6) 0.3090(3)
H3 H 0.5491 0.3397 0.3452
C11 C 0.4352(9) 0.4320(6) 0.3109(3)
C12 C 0.3764(10) 0.4544(7) 0.2554(3)
H4 H 0.3215 0.5007 0.2552
C13 C 0.4000(10) 0.4075(6) 0.2004(3)
C14 C 0.6239(7) 0.2428(5) 0.2433(3)
C15 C 0.4169(9) 0.4827(7) 0.3729(4)
C16 C 0.3421(11) 0.4275(7) 0.1368(4)
C25 C 0.1084(7) 0.1390(5) 0.3872(3)
C26 C 0.2594(8) 0.1536(6) 0.3999(3)
H7 H 0.3122 0.1199 0.3757
C27 C 0.3296(7) 0.2204(6) 0.4503(3)
C28 C 0.2485(8) 0.2703(5) 0.4855(3)
H8 H 0.2943 0.3153 0.5194
C29 C 0.0981(7) 0.2510(5) 0.4688(3)
C30 C 0.0178(8) 0.0708(5) 0.3330(3)
C31 C 0.4961(8) 0.2427(5) 0.4652(3)
C35 C 0.9255(8) 0.5257(5) 0.2185(3)
C36 C 0.9142(8) 0.4543(5) 0.2585(3)
H10 H 0.8613 0.3895 0.2460
C37 C 0.9845(8) 0.4827(5) 0.3181(3)
C39 C 0.8540(8) 0.5010(5) 0.1523(3)
C40 C 0.9794(8) 0.4119(5) 0.3675(3)
Eu11 Eu 0.78852(4) 0.38725(3) 0.560130(15)
O38 O 0.4192(6) 0.2262(4) 0.0007(2)
O39 O 0.8128(6) 0.8251(4) 0.0435(3)
O44 O 0.7773(6) 0.7149(4) 0.1447(2)
O46 O 0.8921(5) 0.0828(4) 0.3176(2)
O48 O 0.9560(5) 0.6348(4) 0.4543(2)
O49 O 0.8574(5) 0.2688(4) 0.4830(2)
H11 H 0.147523 0.129602 0.174774
H12 H 0.133907 0.144322 0.248556
H18 H 0.821752 0.073302 0.488975
H20 H 0.722697 0.446371 0.0184853
H23 H 0.613973 0.582908 0.0577334
O2 O 0.3059(6) 0.9858(4) 0.1381(2)
O16 O 0.8903(6) 0.8310(4) 0.2198(3)
N3 N 0.3718(6) 0.8578(4) 0.2143(3)
C2 C 0.5386(8) 0.9459(6) 0.0705(3)
H1 H 0.4676 0.8901 0.0779
C3 C 0.6650(8) 0.9376(5) 0.0449(3)
C7 C 0.6882(8) 0.8370(5) 0.0280(3)
C17 C 0.3710(8) 0.7843(5) 0.1718(3)
C18 C 0.4986(8) 0.7522(5) 0.1626(3)
H5 H 0.4951 0.7003 0.1327
C19 C 0.6308(8) 0.7994(6) 0.1990(3)
C20 C 0.6281(8) 0.8751(5) 0.2445(3)
H6 H 0.7135 0.9078 0.2701
C21 C 0.4955(8) 0.9008(5) 0.2509(3)
C22 C 0.2248(7) 0.7479(5) 0.1309(3)
C23 C 0.7780(8) 0.7801(6) 0.1870(3)
C24 C 0.4826(7) 0.9863(5) 0.2955(3)
H17 H 0.758488 0.987064 0.432135
O3 O 0.5808(6) 0.7738(4) 0.9993(2)
Eu6 Eu 0.43186(4) 0.71214(3) 0.903184(15)
C32 C 0.9960(8) 0.2987(5) 0.5018(3)
O33 O 0.9866(7) 0.9709(5) 0.1372(3)
H15 H 0.986295 0.928588 0.0983014
H16 H 0.884108 0.95894 0.149485
O33_2 O 0.0134(7) 0.0291(5) 0.8628(3)
O45 O 0.1097(6) 0.1690(4) 0.7802(3)
H15_2 H 0.0137048 0.0714119 0.901699
H16_2 H 0.115892 0.0410601 0.850515
O19 O 0.1079(5) 0.9172(4) 0.6824(2)
C32_2 C 0.0040(8) 0.7013(5) 0.4982(3)
Eu9 Eu 0.23857(4) 0.82914(2) 0.618120(14)
Eu2 Eu 0.84927(4) 0.06885(3) 0.779283(15)
O2_2 O 0.6941(6) 0.0142(4) 0.8619(2)
O4 O 0.1872(6) 0.1749(4) 0.9565(3)
O13 O 0.8794(5) 0.2136(4) 0.8553(2)
O14 O 0.7910(6) 0.3147(4) 0.9153(2)
O15 O 0.2227(6) 0.2851(4) 0.8553(2)
N3_2 N 0.6282(6) 0.1422(4) 0.7857(3)
C2_2 C 0.4614(8) 0.0541(6) 0.9295(3)
H1_2 H 0.5324 0.1099 0.9221
C3_2 C 0.3350(8) 0.0624(5) 0.9551(3)
C7_2 C 0.3118(8) 0.1630(5) 0.9720(3)
C17_2 C 0.6290(8) 0.2157(5) 0.8282(3)
C18_2 C 0.5014(8) 0.2478(5) 0.8374(3)
H5_2 H 0.5049 0.2997 0.8673
C19_2 C 0.3692(8) 0.2006(6) 0.8010(3)
C20_2 C 0.3719(8) 0.1249(5) 0.7555(3)
H6_2 H 0.2865 0.0922 0.7299
C21_2 C 0.5045(8) 0.0992(5) 0.7491(3)
C22_2 C 0.7752(7) 0.2521(5) 0.8691(3)
C23_2 C 0.2220(8) 0.2199(6) 0.8130(3)
C24_2 C 0.5174(7) 0.0137(5) 0.7045(3)
O51 O 0.8452(6) 0.1841(4) 0.7024(2)
H17_2 H 0.241512 0.0129361 0.567865
O1_2 O 0.6252(6) 0.8559(4) 0.8786(2)
O6_2 O 0.1950(6) 0.7162(4) 0.9431(3)
O7_2 O 0.3351(6) 0.7697(4) 0.8100(2)
O8_2 O 0.3464(6) 0.7980(4) 0.7120(2)
O9_2 O 0.5318(8) 0.5419(5) 0.5797(3)
O10 O 0.6501(7) 0.4498(5) 0.6298(3)
O11_2 O 0.7476(8) 0.5235(6) 0.8677(3)
O12_2 O 0.6076(6) 0.6139(4) 0.9082(2)
O17_2 O 0.4130(5) 0.9795(4) 0.6623(2)
O18_2 O 0.6306(6) 0.9844(4) 0.7136(2)
O20_2 O 0.9309(6) 0.9943(4) 0.6928(2)
O21_2 O 0.4346(6) 0.7870(4) 0.5762(2)
O27_2 O 0.0897(6) 0.4455(4) 0.8870(2)
O28_2 O 0.2578(6) 0.5704(4) 0.8568(2)
O29_2 O 0.0999(6) 0.6734(4) 0.6454(2)
O31_2 O 0.3712(6) 0.6056(4) 0.9936(2)
O32_2 O 0.8126(8) 0.8818(5) 0.7838(3)
O34_2 O 0.2560(8) 0.9517(5) 0.5464(3)
O36_2 O 0.3240(5) 0.4035(4) 0.9771(2)
N1_2 N 0.3858(6) 0.8798(4) 0.9278(3)
N2_2 N 0.5196(7) 0.6588(5) 0.8020(3)
N4 N 0.9710(6) 0.8132(4) 0.5803(3)
C1_2 C 0.4816(7) 0.9607(5) 0.9148(3)
C4_2 C 0.2345(8) 0.9779(5) 0.9675(3)
H2_2 H 0.1476 0.9811 0.9847
C5_2 C 0.2658(8) 0.8889(5) 0.9539(3)
C6_2 C 0.6128(8) 0.9426(5) 0.8823(3)
C8_2 C 0.1653(8) 0.7928(6) 0.9668(3)
C9_2 C 0.4676(8) 0.6827(6) 0.7488(3)
C10_2 C 0.4876(9) 0.6407(6) 0.6910(3)
H3_2 H 0.4509 0.6603 0.6548
C11_2 C 0.5648(9) 0.5680(6) 0.6891(3)
C12_2 C 0.6236(10) 0.5456(7) 0.7446(3)
H4_2 H 0.6785 0.4993 0.7448
C13_2 C 0.6000(10) 0.5925(6) 0.7996(3)
C14_2 C 0.3761(7) 0.7572(5) 0.7567(3)
C15_2 C 0.5831(9) 0.5173(7) 0.6271(4)
C16_2 C 0.6579(11) 0.5725(7) 0.8632(4)
C25_2 C 0.8916(7) 0.8610(5) 0.6128(3)
C26_2 C 0.7406(8) 0.8464(6) 0.6001(3)
H7_2 H 0.6878 0.8801 0.6243
C27_2 C 0.6704(7) 0.7796(6) 0.5497(3)
C28_2 C 0.7515(8) 0.7297(5) 0.5145(3)
H8_2 H 0.7057 0.6847 0.4806
C29_2 C 0.9019(7) 0.7490(5) 0.5312(3)
C30_2 C 0.9822(8) 0.9292(5) 0.6670(3)
C31_2 C 0.5039(8) 0.7573(5) 0.5348(3)
C35_2 C 0.0745(8) 0.4743(5) 0.7815(3)
C36_2 C 0.0858(8) 0.5457(5) 0.7415(3)
H10_2 H 0.1387 0.6105 0.7540
C37_2 C 0.0155(8) 0.5173(5) 0.6819(3)
C39_2 C 0.1460(8) 0.4990(5) 0.8477(3)
C40_2 C 0.0206(8) 0.5881(5) 0.6325(3)
H11_2 H 0.852477 0.870398 0.825226
H12_2 H 0.866093 0.855678 0.751444
H18_2 H 0.178248 0.926698 0.511025
H20_2 H 0.277303 0.553629 0.981515
H23_2 H 0.386027 0.417092 0.942267
O25_2 O 0.7728(6) 0.2500(4) 0.6203(2)
O30_2 O 0.9432(6) 0.5528(4) 0.5818(2)
O35_2 O 0.7407(6) 0.4660(4) 0.4709(3)
N5_2 N 0.9388(6) 0.4255(4) 0.6619(2)
C33_2 C 0.9307(7) 0.3565(5) 0.7007(3)
C34_2 C 0.9976(8) 0.3773(5) 0.7606(3)
H9_2 H 0.9916 0.3279 0.7865
C38_2 C 0.8427(7) 0.2549(5) 0.6730(3)
H21_2 H 0.780338 0.43723 0.434815
H22_2 H 0.789868 0.537472 0.479011
O37 O 0.9415(6) 0.5814(5) 0.9737(3)
H13 H 0.851325 0.525258 0.96688
H14 H 0.950193 0.617448 0.936498
H19 H 0.546914 0.425391 0.99699
H24 H 0.631389 0.634114 0.994049
O37_2 O 0.0585(6) 0.4186(5) 0.0263(3)
H13_2 H 0.148675 0.474742 0.03312
H14_2 H 0.0498065 0.382552 0.0635016
H19_2 H 0.453086 0.574609 0.00301003
H24_2 H 0.368611 0.365886 0.00595142
loop_
_geom_bond_atom_site_label_1
_geom_bond_atom_site_label_2
_geom_bond_site_symmetry_1
_geom_bond_site_symmetry_2
Eu4 O25 1_555 1_555
O25 C38 1_555 1_555
O26 C38 1_555 1_555
O30 Eu4 1_555 1_555
O35 Eu4 1_555 1_555
N5 Eu4 1_555 1_555
C33 N5 1_555 1_555
C34 C33 1_555 1_555
H9 C34 1_555 1_555
C38 C33 1_555 1_555
Eu8 O26 1_555 1_555
O41 Eu4 1_555 1_555
O47 Eu4 1_555 1_555
O50 Eu4 1_555 1_555
Eu8 O42 1_555 1_555
O35 H21 1_555 1_555
O35 H22 1_555 1_555
Eu1 O1 1_555 1_555
Eu3 O8 1_555 1_555
Eu5 O27 1_555 1_555
O1 C6 1_555 1_555
O5 C8 1_555 1_555
O6 Eu1 1_555 1_555
O7 Eu1 1_555 1_555
O8 C14 1_555 1_555
O9 C15 1_555 1_555
O41 C15 1_555 1_555
O11 C16 1_555 1_555
O12 Eu1 1_555 1_555
O17 Eu3 1_555 1_555
O21 Eu3 1_555 1_555
O22 C31 1_555 1_555
O27 C39 1_555 1_555
O28 Eu1 1_555 1_555
O29 Eu3 1_555 1_555
O31 Eu1 1_555 1_555
O34 Eu3 1_555 1_555
O36 Eu5 1_555 1_555
N1 Eu1 1_555 1_555
N2 Eu1 1_555 1_555
N6 C25 1_555 1_555
C1 N1 1_555 1_555
H2 C4 1_555 1_555
C5 N1 1_555 1_555
C6 C1 1_555 1_555
C8 O6 1_555 1_555
C9 N2 1_555 1_555
C10 C9 1_555 1_555
H3 C10 1_555 1_555
C11 C10 1_555 1_555
C12 C11 1_555 1_555
H4 C12 1_555 1_555
C13 N2 1_555 1_555
C14 O7 1_555 1_555
C15 C11 1_555 1_555
C16 O12 1_555 1_555
C25 C26 1_555 1_555
C26 H7 1_555 1_555
C27 C26 1_555 1_555
C28 C27 1_555 1_555
H8 C28 1_555 1_555
C29 N6 1_555 1_555
C30 O20 1_555 1_555
C31 O21 1_555 1_555
C36 C35 1_555 1_555
H10 C36 1_555 1_555
C39 O28 1_555 1_555
C40 O29 1_555 1_555
Eu11 O22 1_555 1_555
O38 Eu1 1_555 1_555
O39 Eu5 1_555 1_555
O44 Eu5 1_555 1_555
O46 Eu3 1_555 1_555
O49 Eu3 1_555 1_555
C4 C5 1_555 1_555
C5 C8 1_555 1_555
C9 C14 1_555 1_555
C12 C13 1_555 1_555
C13 C16 1_555 1_555
C25 C30 1_555 1_555
C27 C31 1_555 1_555
C28 C29 1_555 1_555
C35 C39 1_555 1_555
C36 C37 1_555 1_555
C37 C40 1_555 1_555
Eu11 O49 1_555 1_555
O32 H11 1_555 1_555
O32 H12 1_555 1_555
O34 H18 1_555 1_555
O31 H20 1_555 1_555
O36 H23 1_555 1_555
Eu8 O2 1_555 1_555
O39 C7 1_555 1_555
O43 C22 1_555 1_555
O44 C23 1_555 1_555
O16 C23 1_555 1_555
N3 Eu8 1_555 1_555
H1 C2 1_555 1_555
C3 C2 1_555 1_555
C7 C3 1_555 1_555
C17 N3 1_555 1_555
C18 C17 1_555 1_555
H5 C18 1_555 1_555
C19 C18 1_555 1_555
C20 C19 1_555 1_555
H6 C20 1_555 1_555
C21 N3 1_555 1_555
C22 O42 1_555 1_555
C23 C19 1_555 1_555
C17 C22 1_555 1_555
C20 C21 1_555 1_555
C21 C24 1_555 1_555
Eu6 O3 1_555 1_555
O49 C32 1_555 1_555
O33 H15 1_555 1_555
O33 H16 1_555 1_555
O33_2 H15_2 1_555 1_555
O33_2 H16_2 1_555 1_555
O50 C32_2 1_555 1_555
Eu9 O19 1_555 1_555
O50 Eu9 1_555 1_555
Eu2 O2_2 1_555 1_555
O4 C7_2 1_555 1_555
O13 Eu2 1_555 1_555
O14 C22_2 1_555 1_555
O15 C23_2 1_555 1_555
O45 C23_2 1_555 1_555
N3_2 Eu2 1_555 1_555
H1_2 C2_2 1_555 1_555
C3_2 C2_2 1_555 1_555
C7_2 C3_2 1_555 1_555
C17_2 N3_2 1_555 1_555
C18_2 C17_2 1_555 1_555
H5_2 C18_2 1_555 1_555
C19_2 C18_2 1_555 1_555
C20_2 C19_2 1_555 1_555
H6_2 C20_2 1_555 1_555
C21_2 N3_2 1_555 1_555
C22_2 O13 1_555 1_555
C23_2 C19_2 1_555 1_555
Eu14 O4 1_555 1_555
O51 Eu2 1_555 1_555
O15 Eu14 1_555 1_555
C17_2 C22_2 1_555 1_555
C20_2 C21_2 1_555 1_555
C21_2 C24_2 1_555 1_555
Eu6 O1_2 1_555 1_555
Eu9 O8_2 1_555 1_555
Eu14 O27_2 1_555 1_555
O1_2 C6_2 1_555 1_555
O40 C8_2 1_555 1_555
O6_2 Eu6 1_555 1_555
O7_2 Eu6 1_555 1_555
O8_2 C14_2 1_555 1_555
O9_2 C15_2 1_555 1_555
O10 C15_2 1_555 1_555
O11_2 C16_2 1_555 1_555
O12_2 Eu6 1_555 1_555
O17_2 Eu9 1_555 1_555
O21_2 Eu9 1_555 1_555
O47 C31_2 1_555 1_555
O27_2 C39_2 1_555 1_555
O28_2 Eu6 1_555 1_555
O29_2 Eu9 1_555 1_555
O31_2 Eu6 1_555 1_555
O34_2 Eu9 1_555 1_555
O36_2 Eu14 1_555 1_555
N1_2 Eu6 1_555 1_555
N2_2 Eu6 1_555 1_555
N4 C25_2 1_555 1_555
C1_2 N1_2 1_555 1_555
H2_2 C4_2 1_555 1_555
C5_2 N1_2 1_555 1_555
C6_2 C1_2 1_555 1_555
C8_2 O6_2 1_555 1_555
C9_2 N2_2 1_555 1_555
C10_2 C9_2 1_555 1_555
H3_2 C10_2 1_555 1_555
C11_2 C10_2 1_555 1_555
C12_2 C11_2 1_555 1_555
H4_2 C12_2 1_555 1_555
C13_2 N2_2 1_555 1_555
C14_2 O7_2 1_555 1_555
C15_2 C11_2 1_555 1_555
C16_2 O12_2 1_555 1_555
C25_2 C26_2 1_555 1_555
C26_2 H7_2 1_555 1_555
C27_2 C26_2 1_555 1_555
C28_2 C27_2 1_555 1_555
H8_2 C28_2 1_555 1_555
C29_2 N4 1_555 1_555
C30_2 O20_2 1_555 1_555
C31_2 O21_2 1_555 1_555
C36_2 C35_2 1_555 1_555
H10_2 C36_2 1_555 1_555
C39_2 O28_2 1_555 1_555
C40_2 O29_2 1_555 1_555
Eu11 O10 1_555 1_555
C4_2 C5_2 1_555 1_555
C5_2 C8_2 1_555 1_555
C9_2 C14_2 1_555 1_555
C12_2 C13_2 1_555 1_555
C13_2 C16_2 1_555 1_555
C25_2 C30_2 1_555 1_555
C27_2 C31_2 1_555 1_555
C28_2 C29_2 1_555 1_555
C35_2 C39_2 1_555 1_555
C36_2 C37_2 1_555 1_555
C37_2 C40_2 1_555 1_555
O32_2 H11_2 1_555 1_555
O32_2 H12_2 1_555 1_555
O34_2 H18_2 1_555 1_555
O31_2 H20_2 1_555 1_555
O36_2 H23_2 1_555 1_555
Eu11 O25_2 1_555 1_555
O25_2 C38_2 1_555 1_555
O51 C38_2 1_555 1_555
O30_2 Eu11 1_555 1_555
O35_2 Eu11 1_555 1_555
N5_2 Eu11 1_555 1_555
C33_2 N5_2 1_555 1_555
C34_2 C33_2 1_555 1_555
H9_2 C34_2 1_555 1_555
C38_2 C33_2 1_555 1_555
O35_2 H21_2 1_555 1_555
O35_2 H22_2 1_555 1_555
O37 H13 1_555 1_555
O37 H14 1_555 1_555
O37_2 H13_2 1_555 1_555
O37_2 H14_2 1_555 1_555

#END
