
###############################################################################
#
# This file contains modified crystal structure data generated from the
# MOF subset of the Cambridge Structural Database (CSD) v543 
# hosted by the Cambridge Crystallographic Data Centre (CCDC).
#
# This work is licensed under the Creative Commons
# Attribution-NonCommercial-ShareAlike 4.0 International License.
# To view a copy of this license, visit
# http://creativecommons.org/licenses/by-nc-sa/4.0/
# or send a letter to
# Creative Commons, PO Box 1866, Mountain View, CA 94042, USA.
#
# CIF created using the CSD Python API on 29 September 2022
# The structure has been converted into the P1 space group
# The structure has a 3D framework
# The original CSD entry UMUTUS is in the monoclinic crystal system
# The framework has been calculated to contain at least 10.0% void space
# The void calculation uses a probe of radius 1.32A, grid spacing 0.4
#
###############################################################################

data_UMUTUS
_chemical_formula_moiety         '(C44 H40 Eu8 N4 O64)n'
_symmetry_cell_setting           triclinic
_symmetry_space_group_name_H-M   'P 1'
_symmetry_Int_Tables_number      1
_space_group_name_Hall           'P 1'
loop_
_symmetry_equiv_pos_site_id
_symmetry_equiv_pos_as_xyz
1 x,y,z
_cell_length_a                   8.4015(6)
_cell_length_b                   9.4904(7)
_cell_length_c                   28.280(2)
_cell_angle_alpha                90
_cell_angle_beta                 97.514(2)
_cell_angle_gamma                90
_cell_volume                     2235.5
loop_
_atom_site_label
_atom_site_type_symbol
_atom_site_fract_x
_atom_site_fract_y
_atom_site_fract_z
Eu5 Eu 0.14511(3) 0.82153(3) 0.195507(10)
H4 H 0.2468 0.0483 0.2708
O6 O 0.4536(6) 0.0025(5) 0.09064(16)
O7 O 0.3505(5) 0.5432(5) 0.11228(16)
O8 O 0.1644(6) 0.5991(5) 0.15789(16)
N1 N 0.1752(6) 0.0774(5) 0.16953(17)
C1 C 0.2841(7) 0.1147(6) 0.1414(2)
C2 C 0.3128(8) 0.2538(6) 0.1302(2)
H9 H 0.3897 0.2765 0.1106
C3 C 0.2235(7) 0.3593(6) 0.1491(2)
C4 C 0.1075(7) 0.3190(7) 0.1777(2)
H10 H 0.0455 0.3865 0.1907
C5 C 0.0866(7) 0.1779(6) 0.1863(2)
C7 C 0.2490(7) 0.5145(6) 0.1393(2)
Eu11 Eu 0.45628(4) 0.73889(3) 0.074092(10)
O1 O 0.4220(5) 0.7287(5) 0.22359(16)
H1 H 0.4019 0.6530 0.2376
H2 H 0.4852 0.7117 0.2032
O2 O 0.2802(5) 0.9675(5) 0.26367(15)
H3 H 0.2838 0.9130 0.2875
O4 O 0.1762(5) 0.8086(6) 0.04785(16)
H7 H 0.1035 0.8206 0.0661
H8 H 0.1325 0.8161 0.0189
O5 O 0.3323(5) 0.8694(4) 0.13864(13)
O11 O 0.6270(5) 0.6977(5) 0.14896(15)
O12 O 0.8704(5) 0.7101(5) 0.19110(15)
O13 O 0.7315(5) 0.8391(5) 0.07812(15)
O14 O 0.9758(5) 0.8542(5) 0.11917(15)
O15 O 0.6319(5) 0.5625(5) 0.04808(15)
C6 C 0.3654(7) 0.9890(6) 0.1226(2)
C9 C 0.7719(7) 0.7330(6) 0.1556(2)
C10 C 0.8332(8) 0.8164(6) 0.1139(2)
C11 C 0.5885(7) 0.4913(7) 0.0107(2)
O19 O 0.5213(7) 0.1582(6) 0.00346(18)
H15 H 0.4412 0.1139 0.0112
H16 H 0.5991 0.1543 0.0258
O30 O 0.1244(5) 0.7094(4) 0.26751(14)
O42 O 0.3257(5) 0.5880(5) 0.00971(16)
O9 O 0.8756(5) 0.2094(4) 0.23249(14)
C8 C 0.9601(7) 0.1210(6) 0.21475(18)
Eu6 Eu 0.85489(3) 0.32153(3) 0.304493(10)
O10 O 0.9476(5) 0.9910(5) 0.21721(15)
O10_2 O 0.0524(5) 0.4910(5) 0.28279(15)
C8_2 C 0.0399(7) 0.6210(6) 0.28525(18)
O35 O 0.1296(5) 0.2101(5) 0.30890(15)
O39 O 0.0242(5) 0.3542(5) 0.38083(15)
O7_2 O 0.6495(5) 0.0432(5) 0.38772(16)
O8_2 O 0.8356(6) 0.0991(5) 0.34211(16)
C7_2 C 0.7510(7) 0.0145(6) 0.3607(2)
Eu11_2 Eu 0.54372(4) 0.23889(3) 0.425908(10)
O1_2 O 0.5780(5) 0.2287(5) 0.27641(16)
H1_2 H 0.5981 0.1530 0.2624
H2_2 H 0.5148 0.2117 0.2968
O2_2 O 0.7198(5) 0.4675(5) 0.23633(15)
H3_2 H 0.7162 0.4130 0.2125
H4_2 H 0.7532 0.5483 0.2292
O3 O 0.5213(7) 0.3418(6) 0.50346(18)
H5 H 0.4412 0.3861 0.5112
H6 H 0.5991 0.3457 0.5258
O4_2 O 0.8238(5) 0.3086(6) 0.45215(16)
H7_2 H 0.8965 0.3206 0.4339
H8_2 H 0.8675 0.3161 0.4811
O5_2 O 0.6677(5) 0.3694(4) 0.36136(13)
O6_2 O 0.5464(6) 0.5025(5) 0.40936(16)
O11_2 O 0.3730(5) 0.1977(5) 0.35104(15)
O13_2 O 0.2685(5) 0.3391(5) 0.42188(15)
O15_2 O 0.3681(5) 0.0625(5) 0.45192(15)
N1_2 N 0.8248(6) 0.5774(5) 0.33047(17)
C1_2 C 0.7159(7) 0.6147(6) 0.3586(2)
C2_2 C 0.6872(8) 0.7538(6) 0.3698(2)
H9_2 H 0.6103 0.7765 0.3894
C3_2 C 0.7765(7) 0.8593(6) 0.3509(2)
C4_2 C 0.8925(7) 0.8190(7) 0.3223(2)
H10_2 H 0.9545 0.8865 0.3093
C5_2 C 0.9134(7) 0.6779(6) 0.3137(2)
C6_2 C 0.6346(7) 0.4890(6) 0.3774(2)
C9_2 C 0.2281(7) 0.2330(6) 0.3444(2)
C10_2 C 0.1668(8) 0.3164(6) 0.3861(2)
O42_2 O 0.6743(5) 0.0880(5) 0.49029(16)
C22 C 0.5885(7) 0.0087(7) 0.5107(2)
O32 O 0.0524(5) 0.0090(5) 0.78279(15)
O36 O 0.1296(5) 0.2899(5) 0.80890(15)
O40 O 0.0242(5) 0.1458(5) 0.88083(15)
Eu9 Eu 0.14511(3) 0.67847(3) 0.695507(10)
O29 O 0.1244(5) 0.7906(4) 0.76751(14)
C19 C 0.0399(7) 0.8790(6) 0.78525(18)
O3_2 O 0.4787(7) 0.8418(6) 0.99654(18)
H5_2 H 0.5588 0.8861 0.9888
H6_2 H 0.4009 0.8457 0.9742
O16 O 0.6743(5) 0.4120(5) 0.99029(16)
Eu3 Eu 0.85489(3) 0.17847(3) 0.804493(10)
Eu10 Eu 0.54372(4) 0.26111(3) 0.925908(10)
O17 O 0.5780(5) 0.2713(5) 0.77641(16)
H11 H 0.5981 0.3470 0.7624
H12 H 0.5148 0.2883 0.7968
O18 O 0.7198(5) 0.0325(5) 0.73633(15)
H13 H 0.7162 0.0870 0.7125
O20 O 0.8238(5) 0.1914(6) 0.95215(16)
H17 H 0.8965 0.1794 0.9339
H18 H 0.8675 0.1839 0.9811
O21 O 0.6677(5) 0.1306(4) 0.86136(13)
O25 O 0.6495(5) 0.4568(5) 0.88772(16)
O28 O 0.8356(6) 0.4009(5) 0.84211(16)
O31 O 0.8756(5) 0.2906(4) 0.73249(14)
O33 O 0.3730(5) 0.3023(5) 0.85104(15)
O37 O 0.2685(5) 0.1609(5) 0.92188(15)
O41 O 0.3681(5) 0.4375(5) 0.95192(15)
C17 C 0.6346(7) 0.0110(6) 0.8774(2)
C20 C 0.2281(7) 0.2670(6) 0.8444(2)
C21 C 0.1668(8) 0.1836(6) 0.8861(2)
C22_2 C 0.4115(7) 0.5087(7) 0.9893(2)
H14 H 0.7532 0.9517 0.7292
O22 O 0.5464(6) 0.9975(5) 0.90936(16)
N2 N 0.8248(6) 0.9226(5) 0.83047(17)
C12 C 0.7159(7) 0.8853(6) 0.8586(2)
C13 C 0.6872(8) 0.7462(6) 0.8698(2)
H19 H 0.6103 0.7235 0.8894
C14 C 0.7765(7) 0.6407(6) 0.8509(2)
C15 C 0.8925(7) 0.6810(7) 0.8223(2)
H20 H 0.9545 0.6135 0.8093
C16 C 0.9134(7) 0.8221(6) 0.8137(2)
C18 C 0.7510(7) 0.4855(6) 0.8607(2)
O16_2 O 0.3257(5) 0.9120(5) 0.50971(16)
C11_2 C 0.4115(7) 0.9913(7) 0.4893(2)
Eu10_2 Eu 0.45628(4) 0.76111(3) 0.574092(10)
O17_2 O 0.4220(5) 0.7713(5) 0.72359(16)
H11_2 H 0.4019 0.8470 0.7376
H12_2 H 0.4852 0.7883 0.7032
O18_2 O 0.2802(5) 0.5325(5) 0.76367(15)
H13_2 H 0.2838 0.5870 0.7875
H14_2 H 0.2468 0.4517 0.7708
O19_2 O 0.4787(7) 0.6582(6) 0.49654(18)
H15_2 H 0.5588 0.6139 0.4888
H16_2 H 0.4009 0.6543 0.4742
O20_2 O 0.1762(5) 0.6914(6) 0.54785(16)
H17_2 H 0.1035 0.6794 0.5661
H18_2 H 0.1325 0.6839 0.5189
O21_2 O 0.3323(5) 0.6306(4) 0.63864(13)
O22_2 O 0.4536(6) 0.4975(5) 0.59064(16)
O25_2 O 0.3505(5) 0.9568(5) 0.61228(16)
O28_2 O 0.1644(6) 0.9009(5) 0.65789(16)
O33_2 O 0.6270(5) 0.8023(5) 0.64896(15)
O34 O 0.8704(5) 0.7899(5) 0.69110(15)
O37_2 O 0.7315(5) 0.6609(5) 0.57812(15)
O38 O 0.9758(5) 0.6458(5) 0.61917(15)
O41_2 O 0.6319(5) 0.9375(5) 0.54808(15)
N2_2 N 0.1752(6) 0.4226(5) 0.66953(17)
C12_2 C 0.2841(7) 0.3853(6) 0.6414(2)
C13_2 C 0.3128(8) 0.2462(6) 0.6302(2)
H19_2 H 0.3897 0.2235 0.6106
C14_2 C 0.2235(7) 0.1407(6) 0.6491(2)
C15_2 C 0.1075(7) 0.1810(7) 0.6777(2)
H20_2 H 0.0455 0.1135 0.6907
C16_2 C 0.0866(7) 0.3221(6) 0.6863(2)
C17_2 C 0.3654(7) 0.5110(6) 0.6226(2)
C20_2 C 0.7719(7) 0.7670(6) 0.6556(2)
C21_2 C 0.8332(8) 0.6836(6) 0.6139(2)
C18_2 C 0.2490(7) 0.9855(6) 0.6393(2)
O32_2 O 0.9476(5) 0.5090(5) 0.71721(15)
C19_2 C 0.9601(7) 0.3790(6) 0.71475(18)
loop_
_geom_bond_atom_site_label_1
_geom_bond_atom_site_label_2
_geom_bond_site_symmetry_1
_geom_bond_site_symmetry_2
O7 C7 1_555 1_555
O8 C7 1_555 1_555
C1 N1 1_555 1_555
C2 C1 1_555 1_555
H9 C2 1_555 1_555
C3 C2 1_555 1_555
C4 C3 1_555 1_555
H10 C4 1_555 1_555
C5 N1 1_555 1_555
C7 C3 1_555 1_555
Eu5 O8 1_555 1_555
Eu11 O7 1_555 1_555
C4 C5 1_555 1_555
Eu5 O1 1_555 1_555
O1 H1 1_555 1_555
H2 O1 1_555 1_555
O2 Eu5 1_555 1_555
H3 O2 1_555 1_555
O4 Eu11 1_555 1_555
H7 O4 1_555 1_555
H8 O4 1_555 1_555
O5 Eu5 1_555 1_555
O11 Eu11 1_555 1_555
O12 C9 1_555 1_555
O13 Eu11 1_555 1_555
O14 C10 1_555 1_555
O15 Eu11 1_555 1_555
C6 O5 1_555 1_555
C9 O11 1_555 1_555
C10 O13 1_555 1_555
C11 O15 1_555 1_555
H15 O19 1_555 1_555
H16 O19 1_555 1_555
O30 Eu5 1_555 1_555
O42 Eu11 1_555 1_555
Eu11 O5 1_555 1_555
C9 C10 1_555 1_555
O9 C8 1_555 1_555
Eu6 O9 1_555 1_555
O30 C8_2 1_555 1_555
C8_2 O10_2 1_555 1_555
O7_2 C7_2 1_555 1_555
O8_2 C7_2 1_555 1_555
Eu6 O8_2 1_555 1_555
Eu11_2 O7_2 1_555 1_555
Eu6 O1_2 1_555 1_555
Eu11_2 O3 1_555 1_555
O1_2 H1_2 1_555 1_555
H2_2 O1_2 1_555 1_555
O2_2 Eu6 1_555 1_555
H3_2 O2_2 1_555 1_555
H4_2 O2_2 1_555 1_555
O3 H5 1_555 1_555
H6 O3 1_555 1_555
O4_2 Eu11_2 1_555 1_555
H7_2 O4_2 1_555 1_555
H8_2 O4_2 1_555 1_555
O5_2 Eu6 1_555 1_555
O6_2 Eu11_2 1_555 1_555
O11_2 Eu11_2 1_555 1_555
O35 C9_2 1_555 1_555
O13_2 Eu11_2 1_555 1_555
O39 C10_2 1_555 1_555
O15_2 Eu11_2 1_555 1_555
N1_2 Eu6 1_555 1_555
C1_2 N1_2 1_555 1_555
C2_2 C1_2 1_555 1_555
H9_2 C2_2 1_555 1_555
C3_2 C2_2 1_555 1_555
C4_2 C3_2 1_555 1_555
H10_2 C4_2 1_555 1_555
C5_2 N1_2 1_555 1_555
C6_2 O5_2 1_555 1_555
C9_2 O11_2 1_555 1_555
C10_2 O13_2 1_555 1_555
O42_2 Eu11_2 1_555 1_555
Eu11_2 O5_2 1_555 1_555
O6_2 C6_2 1_555 1_555
C1_2 C6_2 1_555 1_555
C4_2 C5_2 1_555 1_555
C9_2 C10_2 1_555 1_555
O42_2 C22 1_555 1_555
Eu9 O29 1_555 1_555
O29 C19 1_555 1_555
O3_2 H5_2 1_555 1_555
H6_2 O3_2 1_555 1_555
Eu3 O17 1_555 1_555
Eu10 O16 1_555 1_555
O17 H11 1_555 1_555
H12 O17 1_555 1_555
O18 Eu3 1_555 1_555
H13 O18 1_555 1_555
O20 Eu10 1_555 1_555
H17 O20 1_555 1_555
H18 O20 1_555 1_555
O21 Eu3 1_555 1_555
O25 Eu10 1_555 1_555
O28 Eu3 1_555 1_555
O31 Eu3 1_555 1_555
O33 Eu10 1_555 1_555
O36 C20 1_555 1_555
O37 Eu10 1_555 1_555
O41 Eu10 1_555 1_555
C17 O21 1_555 1_555
C20 O33 1_555 1_555
C21 O37 1_555 1_555
Eu10 O21 1_555 1_555
O40 C21 1_555 1_555
O41 C22_2 1_555 1_555
C20 C21 1_555 1_555
O25 C18 1_555 1_555
O28 C18 1_555 1_555
C12 N2 1_555 1_555
C13 C12 1_555 1_555
H19 C13 1_555 1_555
C14 C13 1_555 1_555
C15 C14 1_555 1_555
H20 C15 1_555 1_555
C16 N2 1_555 1_555
C18 C14 1_555 1_555
C15 C16 1_555 1_555
O16_2 C11_2 1_555 1_555
Eu9 O17_2 1_555 1_555
Eu10_2 O16_2 1_555 1_555
O17_2 H11_2 1_555 1_555
H12_2 O17_2 1_555 1_555
O18_2 Eu9 1_555 1_555
H13_2 O18_2 1_555 1_555
H14_2 O18_2 1_555 1_555
O19_2 Eu10_2 1_555 1_555
H15_2 O19_2 1_555 1_555
H16_2 O19_2 1_555 1_555
O20_2 Eu10_2 1_555 1_555
H17_2 O20_2 1_555 1_555
H18_2 O20_2 1_555 1_555
O21_2 Eu9 1_555 1_555
O22_2 Eu10_2 1_555 1_555
O25_2 Eu10_2 1_555 1_555
O28_2 Eu9 1_555 1_555
O33_2 Eu10_2 1_555 1_555
O34 C20_2 1_555 1_555
O37_2 Eu10_2 1_555 1_555
O41_2 Eu10_2 1_555 1_555
N2_2 Eu9 1_555 1_555
C12_2 N2_2 1_555 1_555
C13_2 C12_2 1_555 1_555
H19_2 C13_2 1_555 1_555
C14_2 C13_2 1_555 1_555
C15_2 C14_2 1_555 1_555
H20_2 C15_2 1_555 1_555
C16_2 N2_2 1_555 1_555
C17_2 O21_2 1_555 1_555
C20_2 O33_2 1_555 1_555
C21_2 O37_2 1_555 1_555
Eu10_2 O21_2 1_555 1_555
O22_2 C17_2 1_555 1_555
O38 C21_2 1_555 1_555
C12_2 C17_2 1_555 1_555
C15_2 C16_2 1_555 1_555
C20_2 C21_2 1_555 1_555
O25_2 C18_2 1_555 1_555
O28_2 C18_2 1_555 1_555
O31 C19_2 1_555 1_555
C19_2 O32_2 1_555 1_555

#END
