
###############################################################################
#
# This file contains modified crystal structure data generated from the
# MOF subset of the Cambridge Structural Database (CSD) v543 
# hosted by the Cambridge Crystallographic Data Centre (CCDC).
#
# This work is licensed under the Creative Commons
# Attribution-NonCommercial-ShareAlike 4.0 International License.
# To view a copy of this license, visit
# http://creativecommons.org/licenses/by-nc-sa/4.0/
# or send a letter to
# Creative Commons, PO Box 1866, Mountain View, CA 94042, USA.
#
# CIF created using the CSD Python API on 29 September 2022
# The structure has been converted into the P1 space group
# The structure has a 3D framework
# The original CSD entry UNAHEY is in the monoclinic crystal system
# The framework has been calculated to contain at least 10.0% void space
# The void calculation uses a probe of radius 1.32A, grid spacing 0.4
#
###############################################################################

data_UNAHEY
_chemical_formula_moiety         '(C96 H56 Cl16 Co8 N16 O38)n'
_symmetry_cell_setting           triclinic
_symmetry_space_group_name_H-M   'P 1'
_symmetry_Int_Tables_number      1
_space_group_name_Hall           'P 1'
loop_
_symmetry_equiv_pos_site_id
_symmetry_equiv_pos_as_xyz
1 x,y,z
_cell_length_a                   14.4794(13)
_cell_length_b                   16.5954(11)
_cell_length_c                   14.7893(14)
_cell_angle_alpha                90
_cell_angle_beta                 117.927(12)
_cell_angle_gamma                90
_cell_volume                     3139.89
loop_
_atom_site_label
_atom_site_type_symbol
_atom_site_fract_x
_atom_site_fract_y
_atom_site_fract_z
Cl2 Cl 0.96489(11) 0.40454(12) 0.08383(13)
O3 O 0.5883(2) 0.5147(2) 0.1587(3)
O4 O 0.7116(2) 0.4286(2) 0.2625(2)
C7 C 0.6700(3) 0.4743(3) 0.1859(3)
C8 C 0.7218(3) 0.4813(3) 0.1178(3)
C9 C 0.6736(3) 0.5285(3) 0.0316(3)
H4 H 0.6119 0.5545 0.0194
C11 C 0.8508(3) 0.4531(3) 0.0677(4)
C12 C 0.8129(3) 0.4419(3) 0.1363(3)
H6 H 0.8474 0.4088 0.1933
Cl3 Cl 0.36725(9) 0.65346(9) 0.16769(9)
C15 C 0.4247(3) 0.6847(3) 0.0189(3)
H9 H 0.4799 0.6488 0.0517
C16 C 0.3573(3) 0.7029(3) 0.0591(3)
C17 C 0.2789(3) 0.7583(3) 0.0111(4)
H10 H 0.2352 0.7700 0.0395
Co4 Co 0.63402(4) 0.37476(4) 0.34065(4)
Co1 Co 0.63402(4) 0.62524(4) 0.84065(4)
Cl1 Cl 0.63275(9) 0.65346(9) 0.33231(9)
O1 O 0.5862(2) 0.71080(19) 0.7254(2)
O2 O 0.44560(19) 0.67021(18) 0.5836(2)
O5 O 0.5000 0.5540(3) 0.7500
N1 N 0.7372(2) 0.7960(2) 0.5746(3)
N2 N 0.7098(2) 0.5393(2) 0.9641(3)
C1 C 0.5362(3) 0.7000(3) 0.6313(3)
C2 C 0.5932(3) 0.7214(3) 0.5708(3)
C3 C 0.5753(3) 0.6847(3) 0.4811(3)
H1 H 0.5201 0.6488 0.4483
C4 C 0.6427(3) 0.7029(3) 0.4409(3)
C5 C 0.7211(3) 0.7583(3) 0.4889(4)
H2 H 0.7648 0.7700 0.4605
C6 C 0.6749(3) 0.7766(3) 0.6158(3)
H3 H 0.6867 0.8010 0.6769
C10 C 0.7991(3) 0.5027(3) 0.9831(4)
H5 H 0.8272 0.5105 0.9386
H7 H 0.527(4) 0.526(3) 0.711(4)
H8 H 0.473(4) 0.526(3) 0.789(4)
Co2 Co 0.36598(4) 0.62524(4) 0.65935(4)
Cl4 Cl 0.03511(11) 0.40454(12) 0.41617(13)
O6 O 0.4138(2) 0.71080(19) 0.7746(2)
O7 O 0.55440(19) 0.67021(18) 0.9164(2)
O8 O 0.4117(2) 0.5147(2) 0.3413(3)
O9 O 0.2884(2) 0.4286(2) 0.2375(2)
N3 N 0.2628(2) 0.7960(2) 0.9254(3)
N4 N 0.2902(2) 0.5393(2) 0.5359(3)
C13 C 0.4638(3) 0.7000(3) 0.8687(3)
C14 C 0.4068(3) 0.7214(3) 0.9292(3)
C18 C 0.3251(3) 0.7766(3) 0.8842(3)
H11 H 0.3133 0.8010 0.8231
C19 C 0.3300(3) 0.4743(3) 0.3141(3)
C20 C 0.2782(3) 0.4813(3) 0.3822(3)
C21 C 0.3264(3) 0.5285(3) 0.4684(3)
H12 H 0.3881 0.5545 0.4806
C22 C 0.2009(3) 0.5027(3) 0.5169(4)
H13 H 0.1728 0.5105 0.5614
C23 C 0.1492(3) 0.4531(3) 0.4323(4)
C24 C 0.1871(3) 0.4419(3) 0.3637(3)
H14 H 0.1526 0.4088 0.3067
Co3 Co 0.36598(4) 0.37476(4) 0.15935(4)
Co5 Co 0.86598(4) 0.87476(4) 0.65935(4)
Co6 Co 0.13402(4) 0.87476(4) 0.84065(4)
O10 O 0.2884(2) 0.5714(2) 0.7375(2)
O11 O 0.7116(2) 0.5714(2) 0.7625(2)
N5 N 0.7628(2) 0.7040(2) 0.9254(3)
N6 N 0.2372(2) 0.7040(2) 0.5746(3)
Co1_2 Co 0.13402(4) 0.12524(4) 0.34065(4)
O1_2 O 0.0862(2) 0.21080(19) 0.2254(2)
O3_2 O 0.0883(2) 0.0147(2) 0.6587(3)
O5_2 O 0.0000 0.0540(3) 0.2500
N1_2 N 0.2372(2) 0.2960(2) 0.0746(3)
N2_2 N 0.2098(2) 0.0393(2) 0.4641(3)
C1_2 C 0.0362(3) 0.2000(3) 0.1313(3)
C2_2 C 0.0932(3) 0.2214(3) 0.0708(3)
C6_2 C 0.1749(3) 0.2766(3) 0.1158(3)
H3_2 H 0.1867 0.3010 0.1769
C9_2 C 0.1736(3) 0.0285(3) 0.5316(3)
H4_2 H 0.1119 0.0545 0.5194
C10_2 C 0.2991(3) 0.0027(3) 0.4831(4)
H5_2 H 0.3272 0.0105 0.4386
H7_2 H 0.027(4) 0.026(3) 0.211(4)
O7_2 O 0.05440(19) 0.17021(18) 0.4164(2)
O11_2 O 0.2116(2) 0.0714(2) 0.2625(2)
N5_2 N 0.2628(2) 0.2040(2) 0.4254(3)
Cl2_2 Cl 0.46489(11) 0.90454(12) 0.58383(13)
O4_2 O 0.2116(2) 0.9286(2) 0.7625(2)
C7_2 C 0.1700(3) 0.9743(3) 0.6859(3)
C8_2 C 0.2218(3) 0.9813(3) 0.6178(3)
C11_2 C 0.3508(3) 0.9531(3) 0.5677(4)
C12_2 C 0.3129(3) 0.9419(3) 0.6363(3)
H6_2 H 0.3474 0.9088 0.6933
O2_2 O 0.94560(19) 0.17021(18) 0.0836(2)
O5_3 O 1.0000 0.0540(3) 0.2500
H8_2 H 0.973(4) 0.026(3) 0.289(4)
Co2_2 Co 0.86598(4) 0.12524(4) 0.15935(4)
Cl3_2 Cl 0.86725(9) 0.15346(9) 0.66769(9)
O6_2 O 0.9138(2) 0.21080(19) 0.2746(2)
N3_2 N 0.7628(2) 0.2960(2) 0.4254(3)
N4_2 N 0.7902(2) 0.0393(2) 0.0359(3)
C13_2 C 0.9638(3) 0.2000(3) 0.3687(3)
C14_2 C 0.9068(3) 0.2214(3) 0.4292(3)
C15_2 C 0.9247(3) 0.1847(3) 0.5189(3)
H9_2 H 0.9799 0.1488 0.5517
C16_2 C 0.8573(3) 0.2029(3) 0.5591(3)
C17_2 C 0.7789(3) 0.2583(3) 0.5111(4)
H10_2 H 0.7352 0.2700 0.5395
C18_2 C 0.8251(3) 0.2766(3) 0.3842(3)
H11_2 H 0.8133 0.3010 0.3231
C22_2 C 0.7009(3) 0.0027(3) 0.0169(4)
H13_2 H 0.6728 0.0105 0.0614
O10_2 O 0.7884(2) 0.0714(2) 0.2375(2)
N6_2 N 0.7372(2) 0.2040(2) 0.0746(3)
Cl4_2 Cl 0.53511(11) 0.90454(12) 0.91617(13)
O9_2 O 0.7884(2) 0.9286(2) 0.7375(2)
C19_2 C 0.8300(3) 0.9743(3) 0.8141(3)
C20_2 C 0.7782(3) 0.9813(3) 0.8822(3)
C23_2 C 0.6492(3) 0.9531(3) 0.9323(4)
C24_2 C 0.6871(3) 0.9419(3) 0.8637(3)
H14_2 H 0.6526 0.9088 0.8067
Cl1_2 Cl 0.36725(9) 0.34654(9) 0.66769(9)
O1_3 O 0.4138(2) 0.28920(19) 0.2746(2)
O2_3 O 0.55440(19) 0.32979(18) 0.4164(2)
O5_4 O 0.5000 0.4460(3) 0.2500
N2_3 N 0.2902(2) 0.4607(2) 0.0359(3)
C1_3 C 0.4638(3) 0.3000(3) 0.3687(3)
C2_3 C 0.4068(3) 0.2786(3) 0.4292(3)
C3_2 C 0.4247(3) 0.3153(3) 0.5189(3)
H1_2 H 0.4799 0.3512 0.5517
C4_2 C 0.3573(3) 0.2971(3) 0.5591(3)
C5_2 C 0.2789(3) 0.2417(3) 0.5111(4)
H2_2 H 0.2352 0.2300 0.5395
C6_3 C 0.3251(3) 0.2234(3) 0.3842(3)
H3_3 H 0.3133 0.1990 0.3231
C10_3 C 0.2009(3) 0.4973(3) 0.0169(4)
H5_3 H 0.1728 0.4895 0.0614
H7_3 H 0.473(4) 0.474(3) 0.289(4)
H8_3 H 0.527(4) 0.474(3) 0.211(4)
Cl4_3 Cl 0.96489(11) 0.59546(12) 0.58383(13)
O6_3 O 0.5862(2) 0.28920(19) 0.2254(2)
O7_3 O 0.44560(19) 0.32979(18) 0.0836(2)
O8_2 O 0.5883(2) 0.4853(2) 0.6587(3)
N4_3 N 0.7098(2) 0.4607(2) 0.4641(3)
C13_3 C 0.5362(3) 0.3000(3) 0.1313(3)
C14_3 C 0.5932(3) 0.2786(3) 0.0708(3)
C18_3 C 0.6749(3) 0.2234(3) 0.1158(3)
H11_3 H 0.6867 0.1990 0.1769
C19_3 C 0.6700(3) 0.5257(3) 0.6859(3)
C20_3 C 0.7218(3) 0.5187(3) 0.6178(3)
C21_2 C 0.6736(3) 0.4715(3) 0.5316(3)
H12_2 H 0.6119 0.4455 0.5194
C22_3 C 0.7991(3) 0.4973(3) 0.4831(4)
H13_3 H 0.8272 0.4895 0.4386
C23_3 C 0.8508(3) 0.5469(3) 0.5677(4)
C24_3 C 0.8129(3) 0.5581(3) 0.6363(3)
H14_3 H 0.8474 0.5912 0.6933
Cl2_3 Cl 0.03511(11) 0.59546(12) 0.91617(13)
O3_3 O 0.4117(2) 0.4853(2) 0.8413(3)
C7_3 C 0.3300(3) 0.5257(3) 0.8141(3)
C8_3 C 0.2782(3) 0.5187(3) 0.8822(3)
C9_3 C 0.3264(3) 0.4715(3) 0.9684(3)
H4_3 H 0.3881 0.4455 0.9806
C11_3 C 0.1492(3) 0.5469(3) 0.9323(4)
C12_3 C 0.1871(3) 0.5581(3) 0.8637(3)
H6_3 H 0.1526 0.5912 0.8067
Cl3_3 Cl 0.63275(9) 0.34654(9) 0.83231(9)
C15_3 C 0.5753(3) 0.3153(3) 0.9811(3)
H9_3 H 0.5201 0.3512 0.9483
C16_3 C 0.6427(3) 0.2971(3) 0.9409(3)
C17_3 C 0.7211(3) 0.2417(3) 0.9889(4)
H10_3 H 0.7648 0.2300 0.9605
Cl4_4 Cl 0.46489(11) 0.09546(12) 0.08383(13)
C19_4 C 0.1700(3) 0.0257(3) 0.1859(3)
C20_4 C 0.2218(3) 0.0187(3) 0.1178(3)
C23_4 C 0.3508(3) 0.0469(3) 0.0677(4)
C24_4 C 0.3129(3) 0.0581(3) 0.1363(3)
H14_4 H 0.3474 0.0912 0.1933
O2_4 O 0.05440(19) 0.82979(18) 0.9164(2)
O5_5 O 0.0000 0.9460(3) 0.7500
H8_4 H 0.027(4) 0.974(3) 0.711(4)
Cl3_4 Cl 0.13275(9) 0.84654(9) 0.33231(9)
O6_4 O 0.0862(2) 0.78920(19) 0.7254(2)
N4_4 N 0.2098(2) 0.9607(2) 0.9641(3)
C13_4 C 0.0362(3) 0.8000(3) 0.6313(3)
C14_4 C 0.0932(3) 0.7786(3) 0.5708(3)
C15_4 C 0.0753(3) 0.8153(3) 0.4811(3)
H9_4 H 0.0201 0.8512 0.4483
C16_4 C 0.1427(3) 0.7971(3) 0.4409(3)
C17_4 C 0.2211(3) 0.7417(3) 0.4889(4)
H10_4 H 0.2648 0.7300 0.4605
C18_4 C 0.1749(3) 0.7234(3) 0.6158(3)
H11_4 H 0.1867 0.6990 0.6769
C22_4 C 0.2991(3) 0.9973(3) 0.9831(4)
H13_4 H 0.3272 0.9895 0.9386
Cl2_4 Cl 0.53511(11) 0.09546(12) 0.41617(13)
C7_4 C 0.8300(3) 0.0257(3) 0.3141(3)
C8_4 C 0.7782(3) 0.0187(3) 0.3822(3)
C11_4 C 0.6492(3) 0.0469(3) 0.4323(4)
C12_4 C 0.6871(3) 0.0581(3) 0.3637(3)
H6_4 H 0.6526 0.0912 0.3067
O1_4 O 0.9138(2) 0.78920(19) 0.7746(2)
O3_4 O 0.9117(2) 0.9853(2) 0.3413(3)
O5_6 O 1.0000 0.9460(3) 0.7500
N2_4 N 0.7902(2) 0.9607(2) 0.5359(3)
C1_4 C 0.9638(3) 0.8000(3) 0.8687(3)
C2_4 C 0.9068(3) 0.7786(3) 0.9292(3)
C6_4 C 0.8251(3) 0.7234(3) 0.8842(3)
H3_4 H 0.8133 0.6990 0.8231
C9_4 C 0.8264(3) 0.9715(3) 0.4684(3)
H4_4 H 0.8881 0.9455 0.4806
C10_4 C 0.7009(3) 0.9973(3) 0.5169(4)
H5_4 H 0.6728 0.9895 0.5614
H7_4 H 0.973(4) 0.974(3) 0.789(4)
O7_4 O 0.94560(19) 0.82979(18) 0.5836(2)
Cl1_3 Cl 0.13275(9) 0.15346(9) 0.83231(9)
C3_3 C 0.0753(3) 0.1847(3) 0.9811(3)
H1_3 H 0.0201 0.1488 0.9483
C4_3 C 0.1427(3) 0.2029(3) 0.9409(3)
C5_3 C 0.2211(3) 0.2583(3) 0.9889(4)
H2_3 H 0.2648 0.2700 0.9605
O8_3 O 0.9117(2) 0.0147(2) 0.8413(3)
C21_3 C 0.8264(3) 0.0285(3) 0.9684(3)
H12_3 H 0.8881 0.0545 0.9806
O8_4 O 0.0883(2) 0.9853(2) 0.1587(3)
C21_4 C 0.1736(3) 0.9715(3) 0.0316(3)
H12_4 H 0.1119 0.9455 0.0194
Cl1_4 Cl 0.86725(9) 0.84654(9) 0.16769(9)
C3_4 C 0.9247(3) 0.8153(3) 0.0189(3)
H1_4 H 0.9799 0.8512 0.0517
C4_4 C 0.8573(3) 0.7971(3) 0.0591(3)
C5_4 C 0.7789(3) 0.7417(3) 0.0111(4)
H2_4 H 0.7352 0.7300 0.0395
loop_
_geom_bond_atom_site_label_1
_geom_bond_atom_site_label_2
_geom_bond_site_symmetry_1
_geom_bond_site_symmetry_2
Cl2 C11 1_555 1_555
O3 C7 1_555 1_555
O4 C7 1_555 1_555
C7 C8 1_555 1_555
C8 C9 1_555 1_555
H4 C9 1_555 1_555
C12 C8 1_555 1_555
H6 C12 1_555 1_555
Cl3 C16 1_555 1_555
H9 C15 1_555 1_555
C16 C15 1_555 1_555
C17 C16 1_555 1_555
H10 C17 1_555 1_555
Co4 O4 1_555 1_555
C11 C12 1_555 1_555
Co1 O1 1_555 1_555
Cl1 C4 1_555 1_555
O1 C1 1_555 1_555
O2 C1 1_555 1_555
O5 Co1 1_555 1_555
N1 C5 1_555 1_555
N2 Co1 1_555 1_555
C1 C2 1_555 1_555
C2 C3 1_555 1_555
C3 H1 1_555 1_555
C4 C3 1_555 1_555
C5 C4 1_555 1_555
H2 C5 1_555 1_555
C6 N1 1_555 1_555
H3 C6 1_555 1_555
C10 N2 1_555 1_555
H5 C10 1_555 1_555
H7 O5 1_555 1_555
H8 O5 1_555 1_555
Co2 O2 1_555 1_555
Cl4 C23 1_555 1_555
O6 Co2 1_555 1_555
O7 Co1 1_555 1_555
O8 C19 1_555 1_555
O9 C19 1_555 1_555
N4 Co2 1_555 1_555
C13 O6 1_555 1_555
C14 C13 1_555 1_555
C18 N3 1_555 1_555
H11 C18 1_555 1_555
C19 C20 1_555 1_555
C20 C21 1_555 1_555
C21 N4 1_555 1_555
H12 C21 1_555 1_555
C22 N4 1_555 1_555
H13 C22 1_555 1_555
C23 C22 1_555 1_555
C24 C20 1_555 1_555
H14 C24 1_555 1_555
Co3 O9 1_555 1_555
Co5 N1 1_555 1_555
Co6 N3 1_555 1_555
O10 Co2 1_555 1_555
O11 Co1 1_555 1_555
N5 Co1 1_555 1_555
N6 Co2 1_555 1_555
O5 Co2 1_555 1_555
C2 C6 1_555 1_555
O7 C13 1_555 1_555
C14 C18 1_555 1_555
C23 C24 1_555 1_555
Co1_2 O1_2 1_555 1_555
O1_2 C1_2 1_555 1_555
O5_2 Co1_2 1_555 1_555
N2_2 Co1_2 1_555 1_555
C1_2 C2_2 1_555 1_555
C6_2 N1_2 1_555 1_555
H3_2 C6_2 1_555 1_555
C9_2 N2_2 1_555 1_555
H4_2 C9_2 1_555 1_555
C10_2 N2_2 1_555 1_555
H5_2 C10_2 1_555 1_555
H7_2 O5_2 1_555 1_555
O7_2 Co1_2 1_555 1_555
Co3 N1_2 1_555 1_555
O11_2 Co1_2 1_555 1_555
N5_2 Co1_2 1_555 1_555
C2_2 C6_2 1_555 1_555
Cl2_2 C11_2 1_555 1_555
O4_2 C7_2 1_555 1_555
C7_2 C8_2 1_555 1_555
C12_2 C8_2 1_555 1_555
H6_2 C12_2 1_555 1_555
Co6 O4_2 1_555 1_555
C11_2 C12_2 1_555 1_555
H8_2 O5_3 1_555 1_555
Co2_2 O2_2 1_555 1_555
Cl3_2 C16_2 1_555 1_555
O6_2 Co2_2 1_555 1_555
N3_2 C17_2 1_555 1_555
N4_2 Co2_2 1_555 1_555
C13_2 O6_2 1_555 1_555
C14_2 C13_2 1_555 1_555
C15_2 C14_2 1_555 1_555
H9_2 C15_2 1_555 1_555
C16_2 C15_2 1_555 1_555
C17_2 C16_2 1_555 1_555
H10_2 C17_2 1_555 1_555
C18_2 N3_2 1_555 1_555
H11_2 C18_2 1_555 1_555
C22_2 N4_2 1_555 1_555
H13_2 C22_2 1_555 1_555
Co4 N3_2 1_555 1_555
O10_2 Co2_2 1_555 1_555
N6_2 Co2_2 1_555 1_555
O5_3 Co2_2 1_555 1_555
C14_2 C18_2 1_555 1_555
Cl4_2 C23_2 1_555 1_555
O9_2 C19_2 1_555 1_555
C19_2 C20_2 1_555 1_555
C24_2 C20_2 1_555 1_555
H14_2 C24_2 1_555 1_555
Co5 O9_2 1_555 1_555
C23_2 C24_2 1_555 1_555
Co3 O1_3 1_555 1_555
Cl1_2 C4_2 1_555 1_555
O1_3 C1_3 1_555 1_555
O2_3 C1_3 1_555 1_555
O5_4 Co3 1_555 1_555
N5_2 C5_2 1_555 1_555
N2_3 Co3 1_555 1_555
C1_3 C2_3 1_555 1_555
C2_3 C3_2 1_555 1_555
C3_2 H1_2 1_555 1_555
C4_2 C3_2 1_555 1_555
C5_2 C4_2 1_555 1_555
H2_2 C5_2 1_555 1_555
C6_3 N5_2 1_555 1_555
H3_3 C6_3 1_555 1_555
C10_3 N2_3 1_555 1_555
H5_3 C10_3 1_555 1_555
H7_3 O5_4 1_555 1_555
H8_3 O5_4 1_555 1_555
Co4 O2_3 1_555 1_555
Cl4_3 C23_3 1_555 1_555
O6_3 Co4 1_555 1_555
O7_3 Co3 1_555 1_555
O8_2 C19_3 1_555 1_555
O11 C19_3 1_555 1_555
N4_3 Co4 1_555 1_555
C13_3 O6_3 1_555 1_555
C14_3 C13_3 1_555 1_555
C18_3 N6_2 1_555 1_555
H11_3 C18_3 1_555 1_555
C19_3 C20_3 1_555 1_555
C20_3 C21_2 1_555 1_555
C21_2 N4_3 1_555 1_555
H12_2 C21_2 1_555 1_555
C22_3 N4_3 1_555 1_555
H13_3 C22_3 1_555 1_555
C23_3 C22_3 1_555 1_555
C24_3 C20_3 1_555 1_555
H14_3 C24_3 1_555 1_555
O5_4 Co4 1_555 1_555
C2_3 C6_3 1_555 1_555
O7_3 C13_3 1_555 1_555
C14_3 C18_3 1_555 1_555
C23_3 C24_3 1_555 1_555
Cl2_3 C11_3 1_555 1_555
O3_3 C7_3 1_555 1_555
O10 C7_3 1_555 1_555
C7_3 C8_3 1_555 1_555
C8_3 C9_3 1_555 1_555
H4_3 C9_3 1_555 1_555
C12_3 C8_3 1_555 1_555
H6_3 C12_3 1_555 1_555
Cl3_3 C16_3 1_555 1_555
H9_3 C15_3 1_555 1_555
C16_3 C15_3 1_555 1_555
C17_3 C16_3 1_555 1_555
H10_3 C17_3 1_555 1_555
C11_3 C12_3 1_555 1_555
Cl4_4 C23_4 1_555 1_555
O11_2 C19_4 1_555 1_555
C19_4 C20_4 1_555 1_555
C24_4 C20_4 1_555 1_555
H14_4 C24_4 1_555 1_555
C23_4 C24_4 1_555 1_555
H8_4 O5_5 1_555 1_555
Co6 O2_4 1_555 1_555
Cl3_4 C16_4 1_555 1_555
O6_4 Co6 1_555 1_555
N6 C17_4 1_555 1_555
N4_4 Co6 1_555 1_555
C13_4 O6_4 1_555 1_555
C14_4 C13_4 1_555 1_555
C15_4 C14_4 1_555 1_555
H9_4 C15_4 1_555 1_555
C16_4 C15_4 1_555 1_555
C17_4 C16_4 1_555 1_555
H10_4 C17_4 1_555 1_555
C18_4 N6 1_555 1_555
H11_4 C18_4 1_555 1_555
C22_4 N4_4 1_555 1_555
H13_4 C22_4 1_555 1_555
O5_5 Co6 1_555 1_555
C14_4 C18_4 1_555 1_555
Cl2_4 C11_4 1_555 1_555
O10_2 C7_4 1_555 1_555
C7_4 C8_4 1_555 1_555
C12_4 C8_4 1_555 1_555
H6_4 C12_4 1_555 1_555
C11_4 C12_4 1_555 1_555
Co5 O1_4 1_555 1_555
O1_4 C1_4 1_555 1_555
O5_6 Co5 1_555 1_555
N2_4 Co5 1_555 1_555
C1_4 C2_4 1_555 1_555
C6_4 N5 1_555 1_555
H3_4 C6_4 1_555 1_555
C9_4 N2_4 1_555 1_555
H4_4 C9_4 1_555 1_555
C10_4 N2_4 1_555 1_555
H5_4 C10_4 1_555 1_555
H7_4 O5_6 1_555 1_555
O7_4 Co5 1_555 1_555
C2_4 C6_4 1_555 1_555
Cl1_3 C4_3 1_555 1_555
C3_3 H1_3 1_555 1_555
C4_3 C3_3 1_555 1_555
C5_3 C4_3 1_555 1_555
H2_3 C5_3 1_555 1_555
H12_3 C21_3 1_555 1_555
H12_4 C21_4 1_555 1_555
Cl1_4 C4_4 1_555 1_555
C3_4 H1_4 1_555 1_555
C4_4 C3_4 1_555 1_555
C5_4 C4_4 1_555 1_555
H2_4 C5_4 1_555 1_555

#END
