
###############################################################################
#
# This file contains modified crystal structure data generated from the
# MOF subset of the Cambridge Structural Database (CSD) v543 
# hosted by the Cambridge Crystallographic Data Centre (CCDC).
#
# This work is licensed under the Creative Commons
# Attribution-NonCommercial-ShareAlike 4.0 International License.
# To view a copy of this license, visit
# http://creativecommons.org/licenses/by-nc-sa/4.0/
# or send a letter to
# Creative Commons, PO Box 1866, Mountain View, CA 94042, USA.
#
# CIF created using the CSD Python API on 29 September 2022
# The structure has been converted into the P1 space group
# The structure has a 3D framework
# The original CSD entry UNEPAE is in the triclinic crystal system
# The framework has been calculated to contain at least 10.0% void space
# The void calculation uses a probe of radius 1.32A, grid spacing 0.4
# H atom positions have been added when not included in the experimental data
#
###############################################################################

data_UNEPAE
_chemical_formula_moiety         '(C72 H58 N6 O50 P6 Pb12)n'
_symmetry_cell_setting           triclinic
_symmetry_space_group_name_H-M   'P 1'
_symmetry_Int_Tables_number      1
_space_group_name_Hall           'P 1'
loop_
_symmetry_equiv_pos_site_id
_symmetry_equiv_pos_as_xyz
1 x,y,z
_cell_length_a                   10.3370(2)
_cell_length_b                   12.5019(3)
_cell_length_c                   21.8254(3)
_cell_angle_alpha                83.4730(10)
_cell_angle_beta                 86.8960(10)
_cell_angle_gamma                68.0400(10)
_cell_volume                     2598.74
loop_
_atom_site_label
_atom_site_type_symbol
_atom_site_fract_x
_atom_site_fract_y
_atom_site_fract_z
Pb11 Pb 0.08827(7) 0.09139(6) 0.53445(3)
H29 H 0.130066 0.0387066 0.405789
Pb6 Pb 0.38157(8) 0.55870(7) 0.10603(3)
P1 P 0.2599(5) 0.8698(4) 0.4023(2)
P3 P 0.0925(5) 0.6113(4) 0.0095(2)
N1 N 0.364(2) 0.798(2) 0.2851(9)
N2 N 0.2446(18) 0.7477(14) 0.0311(7)
N3 N 0.275(3) 0.781(3) 0.1656(10)
C10 C 0.0176(17) 0.5729(15) 0.3743(7)
C11 C 0.0806(18) 0.4599(15) 0.3960(8)
H4 H 0.1086 0.4410 0.4369
C12 C 0.1039(17) 0.3720(15) 0.3584(9)
C13 C 0.0675(17) 0.3980(15) 0.2975(9)
H5 H 0.0831 0.3398 0.2719
C14 C 0.0056(17) 0.5161(17) 0.2750(8)
C17 C 0.165(2) 0.2477(19) 0.3917(9)
C28 C 0.428(3) 0.824(3) 0.2269(12)
H10 H 0.4746 0.8772 0.2325
H11 H 0.4977 0.7537 0.2136
C29 C 0.322(5) 0.877(4) 0.1801(17)
H12 H 0.3600 0.9066 0.1434
H13 H 0.2442 0.9403 0.1955
C30 C 0.189(3) 0.775(4) 0.2237(15)
H14 H 0.1240 0.8519 0.2308
H15 H 0.1366 0.7263 0.2195
C31 C 0.283(4) 0.728(3) 0.2742(13)
H16 H 0.3472 0.6508 0.2663
H17 H 0.2302 0.7196 0.3113
C32 C 0.146(5) 0.856(5) 0.1292(19)
H18 H 0.0654 0.8481 0.1515
H19 H 0.1367 0.9359 0.1288
C33 C 0.137(2) 0.834(2) 0.0650(10)
H20 H 0.0536 0.8162 0.0633
H21 H 0.1186 0.9074 0.0405
C34 C 0.3501(18) 0.7968(17) 0.0007(9)
H22 H 0.3680 0.8453 0.0282
C36 C 0.289(2) 0.8952(17) 0.3183(9)
H26 H 0.1984 0.9344 0.2994
H27 H 0.3378 0.9486 0.3123
O8 O 0.0500(12) 0.6452(11) 0.4682(5)
O9 O 0.1997(17) 0.2272(13) 0.4422(8)
O10 O 0.1637(14) 0.1741(12) 0.3539(8)
H28 H 0.1964 0.1080 0.3711
O19 O 0.3977(12) 0.7782(9) 0.4271(6)
O20 O 0.2169(15) 0.9846(10) 0.4264(7)
O21 O 0.1503(11) 0.8156(11) 0.4112(6)
O24 O 0.5422(14) 0.5895(13) 0.0384(6)
O25 O 0.1859(13) 0.5231(10) 0.0599(6)
O28 O 0.1141(13) 0.8628(11) 0.5529(6)
O40 O 0.6232(15) 0.4813(13) 0.1651(6)
O41 O 0.5060(14) 0.3631(12) 0.0771(6)
Pb8 Pb 0.30026(6) 0.62610(6) 0.47585(3)
Pb9 Pb 0.17975(8) 0.33525(7) 0.10202(3)
Pb13 Pb 0.62819(7) 0.76887(6) 0.44622(3)
P2 P 0.5133(5) 0.6829(5) 0.9825(2)
H23 H 0.3110 0.8450 0.9631
C35 C 0.184(2) 0.7076(18) 0.9829(9)
H24 H 0.2584 0.6681 0.9550
H25 H 0.1193 0.7752 0.9593
O22 O 0.6276(14) 0.7331(13) 0.9735(7)
O23 O 0.4940(14) 0.6369(12) 0.9229(6)
O26 O 0.0822(13) 0.5561(11) 0.9519(6)
Pb14 Pb 0.82025(8) 0.66475(7) 0.89798(3)
Pb15 Pb 0.61843(8) 0.44130(7) 0.89397(3)
Pb16 Pb 0.21040(8) 0.38608(7) 0.90738(3)
C1 C 0.4583(16) 0.3342(15) 0.3647(8)
C2 C 0.5229(15) 0.2212(13) 0.3897(7)
H1 H 0.5610 0.2076 0.4288
C3 C 0.5334(17) 0.1267(15) 0.3591(8)
C4 C 0.4832(17) 0.1490(16) 0.2978(8)
H2 H 0.4909 0.0877 0.2756
C5 C 0.4223(19) 0.2626(16) 0.2711(8)
C6 C 0.4088(15) 0.3544(14) 0.3046(7)
H3 H 0.3662 0.4301 0.2868
C7 C 0.4339(17) 0.4311(17) 0.4029(9)
C8 C 0.5928(17) 0.0023(15) 0.3880(8)
C9 C 0.3613(18) 0.2846(17) 0.2069(8)
C19 C 0.7395(17) 0.4589(15) 0.3470(8)
C20 C 0.8056(18) 0.3490(15) 0.3777(9)
H7 H 0.8380 0.3423 0.4174
C21 C 0.8244(16) 0.2474(15) 0.3499(7)
C22 C 0.7800(17) 0.2561(14) 0.2897(8)
H8 H 0.7895 0.1896 0.2718
C23 C 0.7205(17) 0.3661(15) 0.2561(8)
C24 C 0.6997(18) 0.4669(16) 0.2859(8)
H9 H 0.6588 0.5396 0.2642
C25 C 0.7053(17) 0.5657(17) 0.3802(9)
C26 C 0.8765(17) 0.1327(18) 0.3884(9)
C27 C 0.6694(17) 0.3841(17) 0.1933(9)
O1 O 0.3694(14) 0.5348(11) 0.3802(6)
O2 O 0.4709(12) 0.4097(11) 0.4580(6)
O5 O 0.3009(13) 0.3884(12) 0.1846(6)
O6 O 0.3658(17) 0.1987(12) 0.1801(7)
O13 O 0.6498(14) 0.6634(11) 0.3528(6)
O14 O 0.7303(13) 0.5494(12) 0.4375(6)
O15 O 0.8859(13) 0.1372(11) 0.4471(6)
O16 O 0.8963(14) 0.0412(11) 0.3651(6)
O17 O 0.6672(14) 0.2917(11) 0.1722(6)
O29 O 0.5291(12) 0.5903(11) 0.5420(6)
O37 O 0.3724(14) 0.2669(13) 0.0265(7)
Pb7 Pb 0.69974(6) 0.37390(6) 0.52415(3)
Pb1 Pb 0.91173(7) 0.90861(6) 0.46555(3)
Pb5 Pb 0.78960(8) 0.61392(7) 0.09262(3)
C15 C 0.9815(17) 0.6033(15) 0.3125(8)
H6 H 0.9419 0.6807 0.2969
C16 C 0.9789(17) 0.6672(16) 0.4189(8)
C18 C 0.954(2) 0.551(2) 0.2089(8)
O3 O 0.5756(13) 0.9246(10) 0.3628(6)
O4 O 0.6508(12) 0.9882(11) 0.4405(5)
O7 O 0.8774(12) 0.7592(11) 0.4048(6)
O11 O 0.9697(14) 0.4740(13) 0.1732(6)
O12 O 0.890(2) 0.6585(15) 0.1915(7)
O27 O 0.9494(13) 0.6799(12) 0.0351(6)
O39 O 0.9178(13) 0.4439(11) 0.0481(6)
O36 O 0.0303(14) 0.5260(13) 0.8268(6)
Pb3 Pb 0.37181(7) 0.23113(6) 0.55378(3)
C15_2 C 0.0185(17) 0.3967(15) 0.6875(8)
H6_2 H 0.0581 0.3193 0.7031
C16_2 C 0.0211(17) 0.3328(16) 0.5811(8)
C18_2 C 0.046(2) 0.449(2) 0.7911(8)
O3_2 O 0.4244(13) 0.0754(10) 0.6372(6)
O4_2 O 0.3492(12) 0.0118(11) 0.5595(5)
O7_2 O 0.1226(12) 0.2408(11) 0.5952(6)
O12_2 O 0.110(2) 0.3415(15) 0.8085(7)
O27_2 O 0.0506(13) 0.3201(12) 0.9649(6)
O33 O 0.3502(14) 0.3366(11) 0.6472(6)
O34 O 0.2697(13) 0.4506(12) 0.5625(6)
O35 O 0.6023(12) 0.2218(9) 0.5729(6)
C1_2 C 0.5417(16) 0.6658(15) 0.6353(8)
C2_2 C 0.4771(15) 0.7788(13) 0.6103(7)
H1_2 H 0.4390 0.7924 0.5712
C3_2 C 0.4666(17) 0.8733(15) 0.6409(8)
C4_2 C 0.5168(17) 0.8510(16) 0.7022(8)
H2_2 H 0.5091 0.9123 0.7244
C5_2 C 0.5777(19) 0.7374(16) 0.7289(8)
C6_2 C 0.5912(15) 0.6456(14) 0.6954(7)
H3_2 H 0.6338 0.5699 0.7132
C7_2 C 0.5661(17) 0.5689(17) 0.5971(9)
C8_2 C 0.4072(17) 0.9977(15) 0.6120(8)
C9_2 C 0.6387(18) 0.7154(17) 0.7931(8)
C19_2 C 0.2605(17) 0.5411(15) 0.6530(8)
C20_2 C 0.1944(18) 0.6510(15) 0.6223(9)
H7_2 H 0.1620 0.6577 0.5826
C21_2 C 0.1756(16) 0.7526(15) 0.6501(7)
C22_2 C 0.2200(17) 0.7439(14) 0.7103(8)
H8_2 H 0.2105 0.8104 0.7282
C23_2 C 0.2795(17) 0.6339(15) 0.7439(8)
C24_2 C 0.3003(18) 0.5331(16) 0.7141(8)
H9_2 H 0.3412 0.4604 0.7358
C25_2 C 0.2947(17) 0.4343(17) 0.6198(9)
C26_2 C 0.1235(17) 0.8673(18) 0.6116(9)
C27_2 C 0.3306(17) 0.6159(17) 0.8067(9)
O1_2 O 0.6306(14) 0.4652(11) 0.6198(6)
O5_2 O 0.6991(13) 0.6116(12) 0.8154(6)
O6_2 O 0.6342(17) 0.8013(12) 0.8199(7)
O16_2 O 0.1037(14) 0.9588(11) 0.6349(6)
O17_2 O 0.3328(14) 0.7083(11) 0.8278(6)
O18 O 0.3768(15) 0.5187(13) 0.8349(6)
O30 O 0.9500(12) 0.3548(11) 0.5318(5)
O32 O 0.8497(11) 0.1844(11) 0.5888(6)
O38 O 0.8141(13) 0.4769(10) 0.9401(6)
P2_2 P 0.4867(5) 0.3171(5) 0.0175(2)
H23_2 H 0.6890 0.1550 0.0369
C35_2 C 0.816(2) 0.2924(18) 0.0171(9)
H24_2 H 0.7416 0.3319 0.0450
H25_2 H 0.8807 0.2248 0.0407
P1_2 P 0.7401(5) 0.1302(4) 0.5977(2)
P3_2 P 0.9075(5) 0.3887(4) 0.9905(2)
N1_2 N 0.636(2) 0.202(2) 0.7149(9)
N2_2 N 0.7554(18) 0.2523(14) 0.9689(7)
N3_2 N 0.725(3) 0.219(3) 0.8344(10)
C10_2 C 0.9824(17) 0.4271(15) 0.6257(7)
C11_2 C 0.9194(18) 0.5401(15) 0.6040(8)
H4_2 H 0.8914 0.5590 0.5631
C12_2 C 0.8961(17) 0.6280(15) 0.6416(9)
C13_2 C 0.9325(17) 0.6020(15) 0.7025(9)
H5_2 H 0.9169 0.6602 0.7281
C14_2 C 0.9944(17) 0.4839(17) 0.7250(8)
C17_2 C 0.835(2) 0.7523(19) 0.6083(9)
C28_2 C 0.572(3) 0.176(3) 0.7731(12)
H10_2 H 0.5254 0.1228 0.7675
H11_2 H 0.5023 0.2463 0.7864
C29_2 C 0.678(5) 0.123(4) 0.8199(17)
H12_2 H 0.6400 0.0934 0.8566
H13_2 H 0.7558 0.0597 0.8045
C30_2 C 0.811(3) 0.225(4) 0.7763(15)
H14_2 H 0.8760 0.1481 0.7692
H15_2 H 0.8634 0.2737 0.7805
C31_2 C 0.717(4) 0.272(3) 0.7258(13)
H16_2 H 0.6528 0.3492 0.7337
H17_2 H 0.7698 0.2804 0.6887
C32_2 C 0.854(5) 0.144(5) 0.8708(19)
H18_2 H 0.9346 0.1519 0.8485
H19_2 H 0.8633 0.0641 0.8712
C33_2 C 0.863(2) 0.166(2) 0.9350(10)
H20_2 H 0.9464 0.1838 0.9367
H21_2 H 0.8814 0.0926 0.9595
C34_2 C 0.6499(18) 0.2032(17) 0.9993(9)
H22_2 H 0.6320 0.1547 0.9718
C36_2 C 0.711(2) 0.1048(17) 0.6817(9)
H26_2 H 0.8016 0.0656 0.7006
H27_2 H 0.6622 0.0514 0.6877
O9_2 O 0.8003(17) 0.7728(13) 0.5578(8)
O10_2 O 0.8363(14) 0.8259(12) 0.6461(8)
H28_2 H 0.8036 0.8920 0.6289
O20_2 O 0.7831(15) 0.0154(10) 0.5736(7)
O24_2 O 0.4578(14) 0.4105(13) 0.9616(6)
H29_2 H 0.869934 0.961293 0.594211
loop_
_geom_bond_atom_site_label_1
_geom_bond_atom_site_label_2
_geom_bond_site_symmetry_1
_geom_bond_site_symmetry_2
Pb6 N2 1_555 1_555
P1 C36 1_555 1_555
N1 C28 1_555 1_555
N2 C33 1_555 1_555
N3 C29 1_555 1_555
C10 C11 1_555 1_555
C11 H4 1_555 1_555
C12 C11 1_555 1_555
C13 C12 1_555 1_555
H5 C13 1_555 1_555
C14 C13 1_555 1_555
C17 C12 1_555 1_555
C28 H10 1_555 1_555
H11 C28 1_555 1_555
C29 C28 1_555 1_555
H12 C29 1_555 1_555
H13 C29 1_555 1_555
C30 N3 1_555 1_555
H14 C30 1_555 1_555
H15 C30 1_555 1_555
C31 N1 1_555 1_555
H16 C31 1_555 1_555
H17 C31 1_555 1_555
C32 N3 1_555 1_555
H18 C32 1_555 1_555
H19 C32 1_555 1_555
C33 C32 1_555 1_555
H20 C33 1_555 1_555
H21 C33 1_555 1_555
C34 N2 1_555 1_555
H22 C34 1_555 1_555
C36 N1 1_555 1_555
H26 C36 1_555 1_555
H27 C36 1_555 1_555
O9 C17 1_555 1_555
O10 C17 1_555 1_555
H28 O10 1_555 1_555
O19 P1 1_555 1_555
O20 P1 1_555 1_555
O24 Pb6 1_555 1_555
O25 Pb6 1_555 1_555
O40 Pb6 1_555 1_555
O41 Pb6 1_555 1_555
Pb8 O8 1_555 1_555
Pb13 O19 1_555 1_555
P1 O21 1_555 1_555
P3 O25 1_555 1_555
C30 C31 1_555 1_555
O19 Pb8 1_555 1_555
O21 Pb8 1_555 1_555
O25 Pb9 1_555 1_555
H24 C35 1_555 1_555
H25 C35 1_555 1_555
O22 P2 1_555 1_555
O23 P2 1_555 1_555
Pb14 O22 1_555 1_555
Pb15 O23 1_555 1_555
Pb16 O26 1_555 1_555
Pb8 O1 1_555 1_555
Pb9 O5 1_555 1_555
C1 C2 1_555 1_555
C2 H1 1_555 1_555
C3 C2 1_555 1_555
C4 C3 1_555 1_555
H2 C4 1_555 1_555
C5 C4 1_555 1_555
C6 C1 1_555 1_555
H3 C6 1_555 1_555
C7 C1 1_555 1_555
C8 C3 1_555 1_555
C9 C5 1_555 1_555
C19 C20 1_555 1_555
C20 H7 1_555 1_555
C21 C20 1_555 1_555
C22 C21 1_555 1_555
H8 C22 1_555 1_555
C23 C22 1_555 1_555
C24 C19 1_555 1_555
H9 C24 1_555 1_555
C25 C19 1_555 1_555
C26 C21 1_555 1_555
C27 C23 1_555 1_555
O1 C7 1_555 1_555
O2 Pb8 1_555 1_555
O5 C9 1_555 1_555
O6 Pb9 1_555 1_555
O13 C25 1_555 1_555
O14 C25 1_555 1_555
O17 C27 1_555 1_555
O40 C27 1_555 1_555
O29 Pb8 1_555 1_555
O37 Pb9 1_555 1_555
Pb7 O2 1_555 1_555
Pb13 O13 1_555 1_555
C5 C6 1_555 1_555
C7 O2 1_555 1_555
C9 O6 1_555 1_555
C23 C24 1_555 1_555
C26 O15 1_555 1_555
C26 O16 1_555 1_555
O14 Pb13 1_555 1_555
O29 Pb7 1_555 1_555
Pb1 O4 1_555 1_555
Pb13 O3 1_555 1_555
Pb5 O11 1_555 1_555
H6 C15 1_555 1_555
O7 Pb1 1_555 1_555
O11 C18 1_555 1_555
O12 Pb5 1_555 1_555
O27 Pb5 1_555 1_555
O39 Pb5 1_555 1_555
Pb13 O7 1_555 1_555
C16 O7 1_555 1_555
C18 O12 1_555 1_555
Pb11 O4_2 1_555 1_555
Pb3 O3_2 1_555 1_555
Pb16 O36 1_555 1_555
H6_2 C15_2 1_555 1_555
O7_2 Pb11 1_555 1_555
O36 C18_2 1_555 1_555
O12_2 Pb16 1_555 1_555
O27_2 Pb16 1_555 1_555
O33 Pb3 1_555 1_555
O34 Pb3 1_555 1_555
O35 Pb3 1_555 1_555
Pb3 O7_2 1_555 1_555
C16_2 O7_2 1_555 1_555
C18_2 O12_2 1_555 1_555
Pb7 O1_2 1_555 1_555
Pb14 O5_2 1_555 1_555
C1_2 C2_2 1_555 1_555
C2_2 H1_2 1_555 1_555
C3_2 C2_2 1_555 1_555
C4_2 C3_2 1_555 1_555
H2_2 C4_2 1_555 1_555
C5_2 C4_2 1_555 1_555
C6_2 C1_2 1_555 1_555
H3_2 C6_2 1_555 1_555
C7_2 C1_2 1_555 1_555
C8_2 C3_2 1_555 1_555
C9_2 C5_2 1_555 1_555
C19_2 C20_2 1_555 1_555
C20_2 H7_2 1_555 1_555
C21_2 C20_2 1_555 1_555
C22_2 C21_2 1_555 1_555
H8_2 C22_2 1_555 1_555
C23_2 C22_2 1_555 1_555
C24_2 C19_2 1_555 1_555
H9_2 C24_2 1_555 1_555
C25_2 C19_2 1_555 1_555
C26_2 C21_2 1_555 1_555
C27_2 C23_2 1_555 1_555
O1_2 C7_2 1_555 1_555
O5_2 C9_2 1_555 1_555
O6_2 Pb14 1_555 1_555
O33 C25_2 1_555 1_555
O34 C25_2 1_555 1_555
O17_2 C27_2 1_555 1_555
O18 C27_2 1_555 1_555
O30 Pb7 1_555 1_555
O35 Pb7 1_555 1_555
O32 Pb7 1_555 1_555
O38 Pb14 1_555 1_555
Pb15 O18 1_555 1_555
C5_2 C6_2 1_555 1_555
C7_2 O29 1_555 1_555
C9_2 O6_2 1_555 1_555
C23_2 C24_2 1_555 1_555
C26_2 O28 1_555 1_555
C26_2 O16_2 1_555 1_555
O38 Pb15 1_555 1_555
H24_2 C35_2 1_555 1_555
H25_2 C35_2 1_555 1_555
O37 P2_2 1_555 1_555
O41 P2_2 1_555 1_555
Pb15 N2_2 1_555 1_555
P1_2 C36_2 1_555 1_555
N1_2 C28_2 1_555 1_555
N2_2 C33_2 1_555 1_555
N3_2 C29_2 1_555 1_555
C10_2 C11_2 1_555 1_555
C11_2 H4_2 1_555 1_555
C12_2 C11_2 1_555 1_555
C13_2 C12_2 1_555 1_555
H5_2 C13_2 1_555 1_555
C14_2 C13_2 1_555 1_555
C17_2 C12_2 1_555 1_555
C28_2 H10_2 1_555 1_555
H11_2 C28_2 1_555 1_555
C29_2 C28_2 1_555 1_555
H12_2 C29_2 1_555 1_555
H13_2 C29_2 1_555 1_555
C30_2 N3_2 1_555 1_555
H14_2 C30_2 1_555 1_555
H15_2 C30_2 1_555 1_555
C31_2 N1_2 1_555 1_555
H16_2 C31_2 1_555 1_555
H17_2 C31_2 1_555 1_555
C32_2 N3_2 1_555 1_555
H18_2 C32_2 1_555 1_555
H19_2 C32_2 1_555 1_555
C33_2 C32_2 1_555 1_555
H20_2 C33_2 1_555 1_555
H21_2 C33_2 1_555 1_555
C34_2 N2_2 1_555 1_555
H22_2 C34_2 1_555 1_555
C36_2 N1_2 1_555 1_555
H26_2 C36_2 1_555 1_555
H27_2 C36_2 1_555 1_555
O9_2 C17_2 1_555 1_555
O10_2 C17_2 1_555 1_555
H28_2 O10_2 1_555 1_555
O35 P1_2 1_555 1_555
O20_2 P1_2 1_555 1_555
O24_2 Pb15 1_555 1_555
P1_2 O32 1_555 1_555
P3_2 O38 1_555 1_555
C30_2 C31_2 1_555 1_555

#END
