
###############################################################################
#
# This file contains modified crystal structure data generated from the
# MOF subset of the Cambridge Structural Database (CSD) v543 
# hosted by the Cambridge Crystallographic Data Centre (CCDC).
#
# This work is licensed under the Creative Commons
# Attribution-NonCommercial-ShareAlike 4.0 International License.
# To view a copy of this license, visit
# http://creativecommons.org/licenses/by-nc-sa/4.0/
# or send a letter to
# Creative Commons, PO Box 1866, Mountain View, CA 94042, USA.
#
# CIF created using the CSD Python API on 29 September 2022
# The structure has been converted into the P1 space group
# The structure has a 3D framework
# The original CSD entry UNIVUJ is in the monoclinic crystal system
# The framework has been calculated to contain at least 10.0% void space
# The void calculation uses a probe of radius 1.32A, grid spacing 0.4
#
###############################################################################

data_UNIVUJ
_chemical_formula_moiety         '(C56 H40 Ce8 N8 O56 S4)n'
_symmetry_cell_setting           triclinic
_symmetry_space_group_name_H-M   'P 1'
_symmetry_Int_Tables_number      1
_space_group_name_Hall           'P 1'
loop_
_symmetry_equiv_pos_site_id
_symmetry_equiv_pos_as_xyz
1 x,y,z
_cell_length_a                   10.6886(5)
_cell_length_b                   16.4787(7)
_cell_length_c                   12.4214(6)
_cell_angle_alpha                90
_cell_angle_beta                 100.007(4)
_cell_angle_gamma                90
_cell_volume                     2154.55
loop_
_atom_site_label
_atom_site_type_symbol
_atom_site_fract_x
_atom_site_fract_y
_atom_site_fract_z
O1 O 0.1144(4) 0.1422(3) 0.0972(3)
O2 O 0.2073(4) 0.1905(3) 0.2559(4)
H5 H 0.0342 0.2536 0.3584
C6 C 0.1097(6) 0.1757(3) 0.1883(5)
Ce5 Ce 0.35624(3) 0.108270(19) 0.15106(3)
S1 S 0.17799(14) 0.05185(9) 0.87712(11)
O5 O 0.0893(4) 0.0042(2) 0.9347(3)
O6 O 0.1075(5) 0.1275(3) 0.8459(4)
O7 O 0.2948(4) 0.0694(3) 0.9554(4)
O8 O 0.2096(5) 0.0080(3) 0.7848(4)
Ce3 Ce 0.07496(3) 0.881385(19) 0.04786(3)
O4 O 0.5535(4) 0.1428(3) 0.0868(4)
O14 O 0.3550(5) 0.2550(3) 0.0954(4)
H3 H 0.3065 0.2633 0.0346
H4 H 0.3177 0.2731 0.1456
N1 N 0.8832(5) 0.1706(3) 0.1387(4)
C1 C 0.9813(6) 0.1972(4) 0.2140(5)
C2 C 0.9648(7) 0.2367(4) 0.3075(5)
C3 C 0.8420(7) 0.2507(5) 0.3241(6)
H6 H 0.8276 0.2792 0.3854
C4 C 0.7405(6) 0.2220(4) 0.2487(5)
H7 H 0.6573 0.2295 0.2595
C5 C 0.7657(6) 0.1821(4) 0.1575(5)
C7 C 0.6636(6) 0.1499(4) 0.0674(5)
O20 O 0.4771(4) 0.1774(3) 0.3113(4)
N3 N 0.3457(5) 0.0497(3) 0.3474(4)
Ce1 Ce 0.92504(3) 0.118615(19) 0.95214(3)
O3 O 0.6978(4) 0.1324(3) 0.9786(4)
O9 O 0.7807(4) 0.0168(3) 0.8281(3)
O10 O 0.8141(5) 0.1310(3) 0.7458(4)
C8 C 0.7100(6) 0.0205(4) 0.6370(5)
C9 C 0.7186(7) 0.0504(4) 0.5342(5)
H8 H 0.7537 0.1012 0.5257
C10 C 0.6728(7) 0.0018(5) 0.4438(5)
H9 H 0.6770 0.0196 0.3735
C13 C 0.7721(6) 0.0603(4) 0.7432(5)
O21 O 0.9465(5) 0.2666(3) 0.9676(4)
O13 O 0.4793(5) 0.9761(3) 0.1466(4)
H1 H 0.4252 0.9401 0.1210
H2 H 0.5508 0.9619 0.1317
O17 O 0.9107(4) 0.9958(2) 0.0653(3)
O19 O 0.2193(4) 0.9832(3) 0.1719(3)
O11 O 0.5229(4) 0.8226(3) 0.6887(4)
O12 O 0.5535(5) 0.7666(3) 0.5324(4)
N2 N 0.6543(5) 0.9503(3) 0.6526(4)
C11 C 0.6215(7) 0.9272(4) 0.4601(5)
H10 H 0.5942 0.8928 0.4014
C12 C 0.6111(6) 0.9042(4) 0.5661(5)
C14 C 0.5577(6) 0.8248(4) 0.5981(5)
Ce4 Ce 0.57496(3) 0.618615(19) 0.54786(3)
Ce6 Ce 0.64376(3) 0.891730(19) 0.84894(3)
Ce2 Ce 0.14376(3) 0.608270(19) 0.34894(3)
O13_2 O 0.0207(5) 0.4761(3) 0.3534(4)
H1_2 H 0.0748 0.4401 0.3790
O14_2 O 0.1450(5) 0.7550(3) 0.4046(4)
H3_2 H 0.1935 0.7633 0.4654
H4_2 H 0.1823 0.7731 0.3544
O15 O 0.3856(4) 0.6422(3) 0.4028(3)
O16 O 0.2927(4) 0.6905(3) 0.2441(4)
O18 O 0.2052(4) 0.5694(3) 0.5446(4)
O19_2 O 0.2807(4) 0.4832(3) 0.3281(3)
O20_2 O 0.0229(4) 0.6774(3) 0.1887(4)
N3_2 N 0.1543(5) 0.5497(3) 0.1526(4)
S1_2 S 0.32201(14) 0.55185(9) 0.62288(11)
O3_2 O 0.8022(4) 0.6324(3) 0.5214(4)
O4_2 O 0.9465(4) 0.6428(3) 0.4132(4)
O5_2 O 0.4107(4) 0.5042(2) 0.5653(3)
O6_2 O 0.3925(5) 0.6275(3) 0.6541(4)
O8_2 O 0.2904(5) 0.5080(3) 0.7152(4)
O9_2 O 0.7193(4) 0.5168(3) 0.6719(3)
O10_2 O 0.6859(5) 0.6310(3) 0.7542(4)
O11_2 O 0.9771(4) 0.3226(3) 0.8113(4)
H2_2 H 0.9492 0.4619 0.3683
N1_2 N 0.6168(5) 0.6706(3) 0.3613(4)
N2_2 N 0.8457(5) 0.4503(3) 0.8474(4)
C1_2 C 0.5187(6) 0.6972(4) 0.2860(5)
C2_2 C 0.5352(7) 0.7367(4) 0.1925(5)
H5_2 H 0.4658 0.7536 0.1416
C3_2 C 0.6580(7) 0.7507(5) 0.1759(6)
H6_2 H 0.6724 0.7792 0.1146
C4_2 C 0.7595(6) 0.7220(4) 0.2513(5)
H7_2 H 0.8427 0.7295 0.2405
C5_2 C 0.7343(6) 0.6821(4) 0.3425(5)
C6_2 C 0.3903(6) 0.6757(3) 0.3117(5)
C7_2 C 0.8364(6) 0.6499(4) 0.4326(5)
C8_2 C 0.7900(6) 0.5205(4) 0.8630(5)
C9_2 C 0.7814(7) 0.5504(4) 0.9658(5)
H8_2 H 0.7463 0.6012 0.9743
C12_2 C 0.8889(6) 0.4042(4) 0.9339(5)
C13_2 C 0.7279(6) 0.5603(4) 0.7568(5)
C14_2 C 0.9423(6) 0.3248(4) 0.9019(5)
Ce3_2 Ce 0.42504(3) 0.381385(19) 0.45214(3)
Ce6_2 Ce 0.85624(3) 0.391730(19) 0.65106(3)
O17_2 O 0.5893(4) 0.4958(2) 0.4347(3)
O12_2 O 0.4465(5) 0.2334(3) 0.4676(4)
C11_2 C 0.3785(7) 0.0728(4) 0.5399(5)
H10_2 H 0.4058 0.1072 0.5986
C12_3 C 0.3889(6) 0.0958(4) 0.4339(5)
C14_3 C 0.4423(6) 0.1752(4) 0.4019(5)
O13_3 O 0.5207(5) 0.0239(3) 0.8534(4)
H1_3 H 0.5748 0.0599 0.8790
H2_3 H 0.4492 0.0381 0.8683
O3_3 O 0.3022(4) 0.8676(3) 0.0214(4)
O10_3 O 0.1859(5) 0.8690(3) 0.2542(4)
C8_3 C 0.2900(6) 0.9795(4) 0.3630(5)
C9_3 C 0.2814(7) 0.9496(4) 0.4658(5)
H8_3 H 0.2463 0.8988 0.4743
C10_2 C 0.3272(7) 0.9982(5) 0.5562(5)
H9_2 H 0.3230 0.9804 0.6265
C13_3 C 0.2279(6) 0.9397(4) 0.2568(5)
O18_2 O 0.7052(4) 0.9306(3) 0.0446(4)
O21_2 O 0.0535(5) 0.7334(3) 0.0324(4)
O4_3 O 0.4465(4) 0.8572(3) 0.9132(4)
O14_3 O 0.6450(5) 0.7450(3) 0.9046(4)
H3_3 H 0.6935 0.7367 0.9654
H4_3 H 0.6823 0.7269 0.8544
N1_3 N 0.1168(5) 0.8294(3) 0.8613(4)
C1_3 C 0.0187(6) 0.8028(4) 0.7860(5)
C2_3 C 0.0352(7) 0.7633(4) 0.6925(5)
C3_3 C 0.1580(7) 0.7493(5) 0.6759(6)
H6_3 H 0.1724 0.7208 0.6146
C4_3 C 0.2595(6) 0.7780(4) 0.7513(5)
H7_3 H 0.3427 0.7705 0.7405
C5_3 C 0.2343(6) 0.8179(4) 0.8425(5)
C7_3 C 0.3364(6) 0.8501(4) 0.9326(5)
O15_2 O 0.8856(4) 0.8578(3) 0.9028(3)
O16_2 O 0.7927(4) 0.8095(3) 0.7441(4)
S1_3 S 0.82201(14) 0.94815(9) 0.12288(11)
O6_3 O 0.8925(5) 0.8725(3) 0.1541(4)
O8_3 O 0.7904(5) 0.9920(3) 0.2152(4)
H5_3 H 0.9658 0.7464 0.6416
C6_3 C 0.8903(6) 0.8243(3) 0.8117(5)
S1_4 S 0.67799(14) 0.44815(9) 0.37712(11)
O1_2 O 0.6144(4) 0.3578(3) 0.5972(3)
O2_2 O 0.7073(4) 0.3095(3) 0.7559(4)
O3_4 O 0.1978(4) 0.3676(3) 0.4786(4)
O4_4 O 0.0535(4) 0.3572(3) 0.5868(4)
O6_4 O 0.6075(5) 0.3725(3) 0.3459(4)
O7_2 O 0.7948(4) 0.4306(3) 0.4554(4)
O8_4 O 0.7096(5) 0.4920(3) 0.2848(4)
O10_4 O 0.3141(5) 0.3690(3) 0.2458(4)
H2_4 H 0.0508 0.5381 0.6317
N1_4 N 0.3832(5) 0.3294(3) 0.6387(4)
C1_4 C 0.4813(6) 0.3028(4) 0.7140(5)
C2_4 C 0.4648(7) 0.2633(4) 0.8075(5)
H5_4 H 0.5342 0.2464 0.8584
C3_4 C 0.3420(7) 0.2493(5) 0.8241(6)
H6_4 H 0.3276 0.2208 0.8854
C4_4 C 0.2405(6) 0.2780(4) 0.7487(5)
H7_4 H 0.1573 0.2705 0.7595
C5_4 C 0.2657(6) 0.3179(4) 0.6575(5)
C6_4 C 0.6097(6) 0.3243(3) 0.6883(5)
C7_4 C 0.1636(6) 0.3501(4) 0.5674(5)
C8_4 C 0.2100(6) 0.4795(4) 0.1370(5)
C9_4 C 0.2186(7) 0.4496(4) 0.0342(5)
H8_4 H 0.2537 0.3988 0.0257
C12_4 C 0.1111(6) 0.5958(4) 0.0661(5)
C13_4 C 0.2721(6) 0.4397(4) 0.2432(5)
C14_4 C 0.0577(6) 0.6752(4) 0.0981(5)
O13_4 O 0.9793(5) 0.5239(3) 0.6466(4)
H1_4 H 0.9252 0.5599 0.6210
O14_4 O 0.8550(5) 0.2450(3) 0.5954(4)
H3_4 H 0.8065 0.2367 0.5346
H4_4 H 0.8177 0.2269 0.6456
C10_3 C 0.8272(7) 0.5018(5) 0.0562(5)
H9_3 H 0.8230 0.5196 0.1265
C11_3 C 0.8785(7) 0.4272(4) 0.0399(5)
H10_3 H 0.9058 0.3928 0.0986
C10_4 C 0.1728(7) 0.4982(5) 0.9438(5)
H9_4 H 0.1770 0.4804 0.8735
C11_4 C 0.1215(7) 0.5728(4) 0.9601(5)
H10_4 H 0.0942 0.6072 0.9014
loop_
_geom_bond_atom_site_label_1
_geom_bond_atom_site_label_2
_geom_bond_site_symmetry_1
_geom_bond_site_symmetry_2
O1 C6 1_555 1_555
O2 C6 1_555 1_555
Ce5 O1 1_555 1_555
O2 Ce5 1_555 1_555
S1 O5 1_555 1_555
O7 S1 1_555 1_555
O8 S1 1_555 1_555
S1 O6 1_555 1_555
Ce5 O4 1_555 1_555
O4 C7 1_555 1_555
O14 Ce5 1_555 1_555
H3 O14 1_555 1_555
H4 O14 1_555 1_555
C1 N1 1_555 1_555
C2 C1 1_555 1_555
C3 C2 1_555 1_555
H6 C3 1_555 1_555
C4 C3 1_555 1_555
H7 C4 1_555 1_555
C5 N1 1_555 1_555
O20 Ce5 1_555 1_555
N3 Ce5 1_555 1_555
C4 C5 1_555 1_555
C5 C7 1_555 1_555
O3 Ce1 1_555 1_555
O9 Ce1 1_555 1_555
O10 Ce1 1_555 1_555
C8 C9 1_555 1_555
C9 H8 1_555 1_555
C10 C9 1_555 1_555
H9 C10 1_555 1_555
C13 O9 1_555 1_555
O21 Ce1 1_555 1_555
O10 C13 1_555 1_555
C8 C13 1_555 1_555
H1 O13 1_555 1_555
H2 O13 1_555 1_555
O11 C14 1_555 1_555
O12 C14 1_555 1_555
H10 C11 1_555 1_555
C12 N2 1_555 1_555
C14 C12 1_555 1_555
Ce4 O12 1_555 1_555
O11 Ce6 1_555 1_555
N2 Ce6 1_555 1_555
C11 C12 1_555 1_555
O13_2 Ce2 1_555 1_555
H1_2 O13_2 1_555 1_555
O14_2 Ce2 1_555 1_555
H3_2 O14_2 1_555 1_555
H4_2 O14_2 1_555 1_555
O15 Ce2 1_555 1_555
O16 Ce2 1_555 1_555
O18 Ce2 1_555 1_555
O19_2 Ce2 1_555 1_555
O20_2 Ce2 1_555 1_555
N3_2 Ce2 1_555 1_555
Ce4 O15 1_555 1_555
S1_2 O5_2 1_555 1_555
O15 C6_2 1_555 1_555
O16 C6_2 1_555 1_555
O3_2 Ce4 1_555 1_555
O4_2 C7_2 1_555 1_555
O5_2 Ce4 1_555 1_555
O6_2 Ce4 1_555 1_555
O18 S1_2 1_555 1_555
O8_2 S1_2 1_555 1_555
O9_2 Ce4 1_555 1_555
O10_2 Ce4 1_555 1_555
O11_2 C14_2 1_555 1_555
O21 C14_2 1_555 1_555
N1_2 Ce4 1_555 1_555
N2_2 C8_2 1_555 1_555
C1_2 N1_2 1_555 1_555
C2_2 C1_2 1_555 1_555
H5_2 C2_2 1_555 1_555
C3_2 C2_2 1_555 1_555
H6_2 C3_2 1_555 1_555
C4_2 C3_2 1_555 1_555
H7_2 C4_2 1_555 1_555
C5_2 N1_2 1_555 1_555
C6_2 C1_2 1_555 1_555
C7_2 O3_2 1_555 1_555
C8_2 C9_2 1_555 1_555
C9_2 H8_2 1_555 1_555
C12_2 N2_2 1_555 1_555
C13_2 O9_2 1_555 1_555
C14_2 C12_2 1_555 1_555
Ce3_2 O5_2 1_555 1_555
Ce6_2 O9_2 1_555 1_555
O17_2 Ce4 1_555 1_555
S1_2 O6_2 1_555 1_555
O10_2 C13_2 1_555 1_555
O11_2 Ce6_2 1_555 1_555
N2_2 Ce6_2 1_555 1_555
C4_2 C5_2 1_555 1_555
C5_2 C7_2 1_555 1_555
C8_2 C13_2 1_555 1_555
Ce3_2 O17_2 1_555 1_555
O20 C14_3 1_555 1_555
O12_2 C14_3 1_555 1_555
H10_2 C11_2 1_555 1_555
C12_3 N3 1_555 1_555
C14_3 C12_3 1_555 1_555
Ce3_2 O12_2 1_555 1_555
C11_2 C12_3 1_555 1_555
H1_3 O13_3 1_555 1_555
H2_3 O13_3 1_555 1_555
O3_3 Ce3 1_555 1_555
O19 Ce3 1_555 1_555
O10_3 Ce3 1_555 1_555
C8_3 C9_3 1_555 1_555
C9_3 H8_3 1_555 1_555
C10_2 C9_3 1_555 1_555
H9_2 C10_2 1_555 1_555
C13_3 O19 1_555 1_555
O21_2 Ce3 1_555 1_555
O10_3 C13_3 1_555 1_555
C8_3 C13_3 1_555 1_555
Ce6 O4_3 1_555 1_555
O4_3 C7_3 1_555 1_555
O14_3 Ce6 1_555 1_555
H3_3 O14_3 1_555 1_555
H4_3 O14_3 1_555 1_555
C1_3 N1_3 1_555 1_555
C2_3 C1_3 1_555 1_555
C3_3 C2_3 1_555 1_555
H6_3 C3_3 1_555 1_555
C4_3 C3_3 1_555 1_555
H7_3 C4_3 1_555 1_555
C5_3 N1_3 1_555 1_555
O15_2 Ce6 1_555 1_555
O16_2 Ce6 1_555 1_555
C4_3 C5_3 1_555 1_555
C5_3 C7_3 1_555 1_555
S1_3 O17 1_555 1_555
O18_2 S1_3 1_555 1_555
O8_3 S1_3 1_555 1_555
S1_3 O6_3 1_555 1_555
O15_2 C6_3 1_555 1_555
O16_2 C6_3 1_555 1_555
Ce3_2 O1_2 1_555 1_555
S1_4 O17_2 1_555 1_555
O1_2 C6_4 1_555 1_555
O2_2 C6_4 1_555 1_555
O3_4 Ce3_2 1_555 1_555
O4_4 C7_4 1_555 1_555
O6_4 Ce3_2 1_555 1_555
O7_2 S1_4 1_555 1_555
O8_4 S1_4 1_555 1_555
O19_2 Ce3_2 1_555 1_555
O10_4 Ce3_2 1_555 1_555
O20_2 C14_4 1_555 1_555
O21_2 C14_4 1_555 1_555
N1_4 Ce3_2 1_555 1_555
N3_2 C8_4 1_555 1_555
C1_4 N1_4 1_555 1_555
C2_4 C1_4 1_555 1_555
H5_4 C2_4 1_555 1_555
C3_4 C2_4 1_555 1_555
H6_4 C3_4 1_555 1_555
C4_4 C3_4 1_555 1_555
H7_4 C4_4 1_555 1_555
C5_4 N1_4 1_555 1_555
C6_4 C1_4 1_555 1_555
C7_4 O3_4 1_555 1_555
C8_4 C9_4 1_555 1_555
C9_4 H8_4 1_555 1_555
C12_4 N3_2 1_555 1_555
C13_4 O19_2 1_555 1_555
C14_4 C12_4 1_555 1_555
Ce6_2 O1_2 1_555 1_555
S1_4 O6_4 1_555 1_555
O2_2 Ce6_2 1_555 1_555
O7_2 Ce6_2 1_555 1_555
O10_4 C13_4 1_555 1_555
C4_4 C5_4 1_555 1_555
C5_4 C7_4 1_555 1_555
C8_4 C13_4 1_555 1_555
O13_4 Ce6_2 1_555 1_555
H1_4 O13_4 1_555 1_555
O14_4 Ce6_2 1_555 1_555
H3_4 O14_4 1_555 1_555
H4_4 O14_4 1_555 1_555
H9_3 C10_3 1_555 1_555
C11_3 C10_3 1_555 1_555
H10_3 C11_3 1_555 1_555
H9_4 C10_4 1_555 1_555
C11_4 C10_4 1_555 1_555
H10_4 C11_4 1_555 1_555

#END
