
###############################################################################
#
# This file contains modified crystal structure data generated from the
# MOF subset of the Cambridge Structural Database (CSD) v543 
# hosted by the Cambridge Crystallographic Data Centre (CCDC).
#
# This work is licensed under the Creative Commons
# Attribution-NonCommercial-ShareAlike 4.0 International License.
# To view a copy of this license, visit
# http://creativecommons.org/licenses/by-nc-sa/4.0/
# or send a letter to
# Creative Commons, PO Box 1866, Mountain View, CA 94042, USA.
#
# CIF created using the CSD Python API on 29 September 2022
# The structure has been converted into the P1 space group
# The structure has a 3D framework
# The original CSD entry UNOJUD is in the triclinic crystal system
# The framework has been calculated to contain at least 10.0% void space
# The void calculation uses a probe of radius 1.32A, grid spacing 0.4
#
###############################################################################

data_UNOJUD
_chemical_formula_moiety         '(C24 H32 N4 O24 S2 Sr4)n'
_symmetry_cell_setting           triclinic
_symmetry_space_group_name_H-M   'P 1'
_symmetry_Int_Tables_number      1
_space_group_name_Hall           'P 1'
loop_
_symmetry_equiv_pos_site_id
_symmetry_equiv_pos_as_xyz
1 x,y,z
_cell_length_a                   8.3585(3)
_cell_length_b                   12.3865(5)
_cell_length_c                   12.6474(5)
_cell_angle_alpha                109.8800(10)
_cell_angle_beta                 97.1480(10)
_cell_angle_gamma                105.3210(10)
_cell_volume                     1154
loop_
_atom_site_label
_atom_site_type_symbol
_atom_site_fract_x
_atom_site_fract_y
_atom_site_fract_z
Sr7 Sr 0.26745(3) 0.029140(18) 0.557010(17)
H3 H 0.0850 0.6964 0.3933
H4 H 0.0415 0.7022 0.2691
H5 H 0.0207 0.5130 0.1602
O18 O 0.0259(2) 0.13041(14) 0.54187(13)
O21 O 0.6533(2) 0.49464(16) 0.07465(15)
Sr1 Sr 0.52281(3) 0.38668(2) 0.836097(18)
S1 S 0.86161(8) 0.59771(5) 0.49878(5)
C1 C 0.8122(3) 0.5081(2) 0.3523(2)
C2 C 0.6941(3) 0.3944(2) 0.3291(2)
C3 C 0.6439(3) 0.3818(2) 0.4302(2)
C4 C 0.7262(3) 0.4842(2) 0.5279(2)
C5 C 0.6219(4) 0.2988(2) 0.2169(2)
N1 N 0.5618(4) 0.2193(2) 0.1288(2)
C6 C 0.5138(3) 0.2695(2) 0.4264(2)
H1 H 0.4569 0.2923 0.4909
H2 H 0.4255 0.2337 0.3530
C7 C 0.5937(3) 0.1742(2) 0.4358(2)
O1 O 0.6974(2) 0.14922(16) 0.37546(15)
O2 O 0.5497(2) 0.12130(15) 0.50208(15)
C8 C 0.7165(3) 0.5129(2) 0.6502(2)
O3 O 0.6408(3) 0.42856(17) 0.67841(17)
O4 O 0.7905(3) 0.62341(16) 0.71948(16)
N2 N 0.8873(3) 0.55429(17) 0.28088(16)
C9 C 0.9903(3) 0.6824(2) 0.3295(2)
C10 C 0.8908(3) 0.7697(2) 0.37615(19)
O5 O 0.7356(2) 0.74141(14) 0.32936(14)
O6 O 0.9741(2) 0.86959(14) 0.45813(13)
C11 C 0.9063(3) 0.4759(2) 0.17032(19)
H6 H 0.9023 0.3967 0.1741
C12 C 0.7739(3) 0.4525(2) 0.0643(2)
H8 H 0.889(4) 0.021(2) 0.247(3)
O10 O 0.5486(2) 0.16837(18) 0.73157(15)
H9 H 0.608(4) 0.162(3) 0.686(2)
H10 H 0.572(4) 0.129(3) 0.768(3)
O11 O 0.7989(2) 0.02488(19) 0.66408(16)
H11 H 0.898(3) 0.035(3) 0.689(3)
H12 H 0.751(4) 0.006(3) 0.709(2)
O12 O 0.3787(3) 0.23012(19) 0.92443(16)
H13 H 0.430(4) 0.204(3) 0.965(3)
H14 H 0.316(4) 0.259(3) 0.958(3)
O13 O 0.7186(3) 0.6180(2) 0.91336(19)
H15 H 0.740(5) 0.626(4) 0.854(2)
H16 H 0.811(4) 0.640(4) 0.959(3)
Sr3 Sr 0.47719(3) 0.61332(2) 0.163903(18)
Sr6 Sr 0.73255(3) 0.970860(18) 0.442990(17)
O15 O 0.2644(2) 0.25859(14) 0.67064(14)
O19 O 0.7931(3) 0.39005(17) 0.96751(15)
O20 O 0.3467(2) 0.50536(16) 0.92535(15)
O9 O 0.8664(2) 0.95812(16) 0.26212(14)
H7 H 0.805(3) 0.904(2) 0.2032(19)
O14 O 0.4503(2) 0.87870(15) 0.49792(15)
O22 O 0.4514(2) 0.83163(18) 0.26843(15)
H17 H 0.392(4) 0.838(3) 0.314(2)
H18 H 0.428(4) 0.871(3) 0.232(3)
O9_2 O 0.1336(2) 0.04188(16) 0.73788(14)
H7_2 H 0.195(3) 0.096(2) 0.7968(19)
O7 O 0.2069(3) 0.60995(17) 0.03249(15)
S1_2 S 0.13839(8) 0.40229(5) 0.50122(5)
C1_2 C 0.1878(3) 0.4919(2) 0.6477(2)
C2_2 C 0.3059(3) 0.6056(2) 0.6709(2)
C3_2 C 0.3561(3) 0.6182(2) 0.5698(2)
C4_2 C 0.2738(3) 0.5158(2) 0.4721(2)
C5_2 C 0.3781(4) 0.7012(2) 0.7831(2)
N1_2 N 0.4382(4) 0.7807(2) 0.8712(2)
C6_2 C 0.4862(3) 0.7305(2) 0.5736(2)
H1_2 H 0.5431 0.7077 0.5091
H2_2 H 0.5745 0.7663 0.6470
C7_2 C 0.4063(3) 0.8258(2) 0.5642(2)
O1_2 O 0.3026(2) 0.85078(16) 0.62454(15)
C8_2 C 0.2835(3) 0.4871(2) 0.3498(2)
O3_2 O 0.3592(3) 0.57144(17) 0.32159(17)
O4_2 O 0.2095(3) 0.37659(16) 0.28052(16)
N2_2 N 0.1127(3) 0.44571(17) 0.71912(16)
C9_2 C 0.0097(3) 0.3176(2) 0.6705(2)
C10_2 C 0.1092(3) 0.2303(2) 0.62385(19)
C11_2 C 0.0937(3) 0.5241(2) 0.82968(19)
H6_2 H 0.0977 0.6033 0.8259
C12_2 C 0.2261(3) 0.5475(2) 0.9357(2)
H8_2 H 0.111(4) 0.979(2) 0.753(3)
O11_2 O 0.2011(2) 0.97512(19) 0.33592(16)
H11_2 H 0.102(3) 0.965(3) 0.311(3)
H12_2 H 0.249(4) 0.994(3) 0.291(2)
O12_2 O 0.6213(3) 0.76988(19) 0.07557(16)
H13_2 H 0.570(4) 0.796(3) 0.035(3)
H14_2 H 0.684(4) 0.741(3) 0.042(3)
O13_2 O 0.2814(3) 0.3820(2) 0.08664(19)
H15_2 H 0.260(5) 0.374(4) 0.146(2)
H16_2 H 0.189(4) 0.360(4) 0.041(3)
H3_2 H 0.9150 0.3036 0.6067
H4_2 H 0.9585 0.2978 0.7309
H5_2 H 0.9793 0.4870 0.8398
loop_
_geom_bond_atom_site_label_1
_geom_bond_atom_site_label_2
_geom_bond_site_symmetry_1
_geom_bond_site_symmetry_2
Sr1 O3 1_555 1_555
S1 C1 1_555 1_555
C1 C2 1_555 1_555
C2 C3 1_555 1_555
C3 C4 1_555 1_555
C4 S1 1_555 1_555
C5 C2 1_555 1_555
N1 C5 1_555 1_555
C6 C3 1_555 1_555
H1 C6 1_555 1_555
H2 C6 1_555 1_555
C7 C6 1_555 1_555
O1 C7 1_555 1_555
C8 C4 1_555 1_555
O3 C8 1_555 1_555
O4 C8 1_555 1_555
N2 C1 1_555 1_555
C9 N2 1_555 1_555
C10 C9 1_555 1_555
O5 C10 1_555 1_555
O6 C10 1_555 1_555
C11 N2 1_555 1_555
H6 C11 1_555 1_555
C12 C11 1_555 1_555
O21 C12 1_555 1_555
O10 Sr1 1_555 1_555
H9 O10 1_555 1_555
H10 O10 1_555 1_555
H11 O11 1_555 1_555
H12 O11 1_555 1_555
O12 Sr1 1_555 1_555
H13 O12 1_555 1_555
H14 O12 1_555 1_555
O13 Sr1 1_555 1_555
H15 O13 1_555 1_555
H16 O13 1_555 1_555
Sr3 O5 1_555 1_555
Sr7 O2 1_555 1_555
Sr6 O5 1_555 1_555
O15 Sr1 1_555 1_555
O19 Sr1 1_555 1_555
O20 Sr1 1_555 1_555
C7 O2 1_555 1_555
O6 Sr6 1_555 1_555
O21 Sr3 1_555 1_555
O10 Sr7 1_555 1_555
Sr7 O15 1_555 1_555
O9 Sr6 1_555 1_555
H7 O9 1_555 1_555
O14 Sr6 1_555 1_555
O22 Sr6 1_555 1_555
H17 O22 1_555 1_555
H18 O22 1_555 1_555
O9_2 Sr7 1_555 1_555
H7_2 O9_2 1_555 1_555
O18 Sr7 1_555 1_555
Sr3 O7 1_555 1_555
Sr3 O3_2 1_555 1_555
S1_2 C1_2 1_555 1_555
C1_2 C2_2 1_555 1_555
C2_2 C3_2 1_555 1_555
C3_2 C4_2 1_555 1_555
C4_2 S1_2 1_555 1_555
C5_2 C2_2 1_555 1_555
N1_2 C5_2 1_555 1_555
C6_2 C3_2 1_555 1_555
H1_2 C6_2 1_555 1_555
H2_2 C6_2 1_555 1_555
C7_2 C6_2 1_555 1_555
O1_2 C7_2 1_555 1_555
C8_2 C4_2 1_555 1_555
O3_2 C8_2 1_555 1_555
O4_2 C8_2 1_555 1_555
N2_2 C1_2 1_555 1_555
C9_2 N2_2 1_555 1_555
C10_2 C9_2 1_555 1_555
O15 C10_2 1_555 1_555
O18 C10_2 1_555 1_555
C11_2 N2_2 1_555 1_555
H6_2 C11_2 1_555 1_555
C12_2 C11_2 1_555 1_555
O20 C12_2 1_555 1_555
O22 Sr3 1_555 1_555
H11_2 O11_2 1_555 1_555
H12_2 O11_2 1_555 1_555
O12_2 Sr3 1_555 1_555
H13_2 O12_2 1_555 1_555
H14_2 O12_2 1_555 1_555
O13_2 Sr3 1_555 1_555
H15_2 O13_2 1_555 1_555
H16_2 O13_2 1_555 1_555
C7_2 O14 1_555 1_555

#END
