
###############################################################################
#
# This file contains modified crystal structure data generated from the
# MOF subset of the Cambridge Structural Database (CSD) v543 
# hosted by the Cambridge Crystallographic Data Centre (CCDC).
#
# This work is licensed under the Creative Commons
# Attribution-NonCommercial-ShareAlike 4.0 International License.
# To view a copy of this license, visit
# http://creativecommons.org/licenses/by-nc-sa/4.0/
# or send a letter to
# Creative Commons, PO Box 1866, Mountain View, CA 94042, USA.
#
# CIF created using the CSD Python API on 29 September 2022
# The structure has been converted into the P1 space group
# The structure has a 3D framework
# The original CSD entry UNUHUJ is in the triclinic crystal system
# The framework has been calculated to contain at least 10.0% void space
# The void calculation uses a probe of radius 1.32A, grid spacing 0.4
#
###############################################################################

data_UNUHUJ
_chemical_formula_moiety         '(C24 H12 Co3 N8 O16)n'
_symmetry_cell_setting           triclinic
_symmetry_space_group_name_H-M   'P 1'
_symmetry_Int_Tables_number      1
_space_group_name_Hall           'P 1'
loop_
_symmetry_equiv_pos_site_id
_symmetry_equiv_pos_as_xyz
1 x,y,z
_cell_length_a                   7.4004(12)
_cell_length_b                   7.8438(13)
_cell_length_c                   13.606(2)
_cell_angle_alpha                77.159(3)
_cell_angle_beta                 82.245(3)
_cell_angle_gamma                88.430(3)
_cell_volume                     762.993
loop_
_atom_site_label
_atom_site_type_symbol
_atom_site_fract_x
_atom_site_fract_y
_atom_site_fract_z
_atom_site_U_iso_or_equiv
_atom_site_thermal_displace_type
Co6 Co 0.02724(11) 0.02746(11) 0.38257(6) 0.0167 Uani
O1 O 0.8506(5) 0.1805(6) 0.4590(3) 0.0206 Uani
O2 O 0.6163(6) 0.1076(6) 0.3902(3) 0.0204 Uani
O3 O 0.1463(6) 0.1788(6) 0.5714(3) 0.0187 Uani
O4 O 0.2460(6) 0.1656(6) 0.4115(3) 0.0181 Uani
O5 O 0.0054(6) 0.2015(6) 0.2487(3) 0.0232 Uani
C1 C 0.6895(8) 0.2029(8) 0.4379(5) 0.0156 Uani
C2 C 0.2561(7) 0.2205(8) 0.4914(5) 0.0141 Uani
C3 C 0.3909(8) 0.3577(8) 0.4916(5) 0.0156 Uani
C4 C 0.5836(8) 0.3495(8) 0.4707(5) 0.0154 Uani
C5 C 0.3144(8) 0.5076(8) 0.5211(5) 0.0175 Uani
H4 H 0.1882 0.5122 0.5360 0.0210 Uiso
C6 C 0.1163(8) 0.3013(8) 0.1876(5) 0.0195 Uani
C7 C 0.0542(8) 0.4076(8) 0.0912(5) 0.0177 Uani
O8 O 0.2821(6) 0.3238(6) 0.1981(4) 0.0249 Uani
O9 O 0.1494(5) 0.8195(6) 0.5410(3) 0.0206 Uani
O10 O 0.3837(6) 0.8924(6) 0.6098(3) 0.0204 Uani
O11 O 0.8537(6) 0.8212(6) 0.4286(3) 0.0187 Uani
O12 O 0.7540(6) 0.8344(6) 0.5885(3) 0.0181 Uani
C13 C 0.3105(8) 0.7971(8) 0.5621(5) 0.0156 Uani
C14 C 0.7439(7) 0.7795(8) 0.5086(5) 0.0141 Uani
C15 C 0.6091(8) 0.6423(8) 0.5084(5) 0.0156 Uani
C16 C 0.4164(8) 0.6505(8) 0.5293(5) 0.0154 Uani
C17 C 0.6856(8) 0.4924(8) 0.4789(5) 0.0175 Uani
H7 H 0.8118 0.4878 0.4640 0.0210 Uiso
C22 C 0.1804(8) 0.4870(8) 0.0122(5) 0.0210 Uani
H8 H 0.3033 0.4767 0.0203 0.0250 Uiso
Co10 Co 0.97276(11) 0.97254(11) 0.61743(6) 0.0167 Uani
Co11 Co 0.45635(11) 0.17140(11) 0.28194(6) 0.0162 Uani
Co13 Co 0.54365(11) 0.82860(11) 0.71806(6) 0.0162 Uani
O14 O 0.3399(6) 0.8123(6) 0.8403(4) 0.0262 Uani
O15 O 0.3534(6) 0.5771(6) 0.7777(4) 0.0250 Uani
C20 C 0.1324(8) 0.5821(8) 0.9208(5) 0.0159 Uani
C21 C 0.2808(8) 0.6630(8) 0.8395(5) 0.0168 Uani
N1 N 0.1992(7) 0.8669(7) 0.3108(4) 0.0184 Uani
N2 N 0.3784(7) 0.9207(7) 0.2807(4) 0.0212 Uani
N3 N 0.3539(8) 0.6625(8) 0.2540(5) 0.0310 Uani
H1 H 0.3803 0.5657 0.2357 0.0370 Uiso
N4 N 0.6423(10) 0.7933(10) 0.2115(7) 0.0681 Uani
H2 H 0.7093 0.8833 0.2070 0.0810 Uiso
H3 H 0.6888 0.7027 0.1920 0.0810 Uiso
C11 C 0.1870(9) 0.7123(9) 0.2947(5) 0.0257 Uani
H6 H 0.0814 0.6449 0.3086 0.0310 Uiso
C12 C 0.4674(9) 0.7943(9) 0.2484(6) 0.0284 Uani
N9 N 0.6216(7) 0.0793(7) 0.7193(4) 0.0212 Uani
O6 O 0.6601(6) 0.1877(6) 0.1597(4) 0.0262 Uani
O7 O 0.6466(6) 0.4229(6) 0.2223(4) 0.0250 Uani
C8 C 0.8676(8) 0.4179(8) 0.0792(5) 0.0159 Uani
C9 C 0.7192(8) 0.3370(8) 0.1605(5) 0.0168 Uani
C10 C 0.8196(8) 0.5130(8) 0.9878(5) 0.0210 Uani
H5 H 0.6967 0.5233 0.9797 0.0250 Uiso
O13 O 0.9946(6) 0.7985(6) 0.7513(3) 0.0232 Uani
C18 C 0.8837(8) 0.6987(8) 0.8124(5) 0.0195 Uani
C19 C 0.9458(8) 0.5924(8) 0.9088(5) 0.0177 Uani
O16 O 0.7179(6) 0.6762(6) 0.8019(4) 0.0249 Uani
N5 N 0.8008(7) 0.1331(7) 0.6892(4) 0.0184 Uani
N7 N 0.6461(8) 0.3375(8) 0.7460(5) 0.0310 Uani
H9 H 0.6197 0.4343 0.7643 0.0370 Uiso
N8 N 0.3577(10) 0.2067(10) 0.7885(7) 0.0681 Uani
H10 H 0.2907 0.1167 0.7930 0.0810 Uiso
H11 H 0.3112 0.2973 0.8080 0.0810 Uiso
C23 C 0.8130(9) 0.2877(9) 0.7053(5) 0.0257 Uani
H12 H 0.9186 0.3551 0.6914 0.0310 Uiso
C24 C 0.5326(9) 0.2057(9) 0.7516(6) 0.0284 Uani
loop_
_atom_site_aniso_label
_atom_site_aniso_U_11
_atom_site_aniso_U_22
_atom_site_aniso_U_33
_atom_site_aniso_U_23
_atom_site_aniso_U_13
_atom_site_aniso_U_12
Co6 0.0129 0.0178 0.0191 -0.0049 0.0013 -0.0041
O1 0.011 0.024 0.03 -0.012 -0.0038 0.0019
O2 0.022 0.017 0.024 -0.006 -0.0078 0.0062
O3 0.017 0.018 0.02 -0.0044 0.0024 -0.0042
O4 0.016 0.024 0.016 -0.0089 -0.0003 -0.0019
O5 0.017 0.026 0.021 0.007 -0.0021 -0.002
C1 0.015 0.013 0.016 0.001 0.002 -0.003
C2 0.006 0.014 0.021 -0.002 0 0.001
C3 0.011 0.018 0.017 -0.001 -0.003 -0.003
C4 0.013 0.014 0.018 -0.003 0.002 -0.001
C5 0.005 0.025 0.022 -0.004 -0.001 -0.003
C6 0.018 0.021 0.02 -0.005 -0.005 0.007
C7 0.015 0.02 0.017 -0.001 -0.003 0
O8 0.012 0.034 0.024 0.005 -0.0046 -0.0026
O9 0.011 0.024 0.03 -0.012 -0.0038 0.0019
O10 0.022 0.017 0.024 -0.006 -0.0078 0.0062
O11 0.017 0.018 0.02 -0.0044 0.0024 -0.0042
O12 0.016 0.024 0.016 -0.0089 -0.0003 -0.0019
C13 0.015 0.013 0.016 0.001 0.002 -0.003
C14 0.006 0.014 0.021 -0.002 0 0.001
C15 0.011 0.018 0.017 -0.001 -0.003 -0.003
C16 0.013 0.014 0.018 -0.003 0.002 -0.001
C17 0.005 0.025 0.022 -0.004 -0.001 -0.003
C22 0.01 0.027 0.022 0.004 -0.004 0.002
Co10 0.0129 0.0178 0.0191 -0.0049 0.0013 -0.0041
Co11 0.0117 0.018 0.0177 -0.0021 -0.001 -0.0008
Co13 0.0117 0.018 0.0177 -0.0021 -0.001 -0.0008
O14 0.021 0.028 0.028 -0.006 0.003 -0.006
O15 0.018 0.024 0.031 -0.004 0 0.0014
C20 0.011 0.018 0.017 -0.003 0.003 -0.002
C21 0.007 0.022 0.021 -0.002 -0.005 0.001
N1 0.016 0.016 0.022 -0.004 0.002 -0.001
N2 0.018 0.019 0.025 -0.005 0.004 -0.002
N3 0.035 0.017 0.041 -0.012 0.004 0.001
N4 0.039 0.041 0.119 -0.031 0.031 0.001
C11 0.027 0.022 0.029 -0.011 0.003 -0.007
C12 0.023 0.027 0.033 -0.007 0.003 0.008
N9 0.018 0.019 0.025 -0.005 0.004 -0.002
O6 0.021 0.028 0.028 -0.006 0.003 -0.006
O7 0.018 0.024 0.031 -0.004 0 0.0014
C8 0.011 0.018 0.017 -0.003 0.003 -0.002
C9 0.007 0.022 0.021 -0.002 -0.005 0.001
C10 0.01 0.027 0.022 0.004 -0.004 0.002
O13 0.017 0.026 0.021 0.007 -0.0021 -0.002
C18 0.018 0.021 0.02 -0.005 -0.005 0.007
C19 0.015 0.02 0.017 -0.001 -0.003 0
O16 0.012 0.034 0.024 0.005 -0.0046 -0.0026
N5 0.016 0.016 0.022 -0.004 0.002 -0.001
N7 0.035 0.017 0.041 -0.012 0.004 0.001
N8 0.039 0.041 0.119 -0.031 0.031 0.001
C23 0.027 0.022 0.029 -0.011 0.003 -0.007
C24 0.023 0.027 0.033 -0.007 0.003 0.008
loop_
_geom_bond_atom_site_label_1
_geom_bond_atom_site_label_2
_geom_bond_site_symmetry_1
_geom_bond_site_symmetry_2
Co6 O4 1_555 1_555
O1 C1 1_555 1_555
O2 C1 1_555 1_555
O3 C2 1_555 1_555
O4 C2 1_555 1_555
O5 Co6 1_555 1_555
C1 C4 1_555 1_555
C2 C3 1_555 1_555
C3 C4 1_555 1_555
C4 C17 1_555 1_555
C5 C3 1_555 1_555
H4 C5 1_555 1_555
C6 O5 1_555 1_555
C7 C6 1_555 1_555
O8 C6 1_555 1_555
O9 C13 1_555 1_555
O10 C13 1_555 1_555
O11 C14 1_555 1_555
O12 C14 1_555 1_555
C13 C16 1_555 1_555
C14 C15 1_555 1_555
C15 C16 1_555 1_555
C16 C5 1_555 1_555
C17 C15 1_555 1_555
H7 C17 1_555 1_555
C22 C7 1_555 1_555
H8 C22 1_555 1_555
Co10 O12 1_555 1_555
Co11 O2 1_555 1_555
Co13 O10 1_555 1_555
O4 Co11 1_555 1_555
O8 Co11 1_555 1_555
O12 Co13 1_555 1_555
O14 C21 1_555 1_555
O15 C21 1_555 1_555
C21 C20 1_555 1_555
Co13 O14 1_555 1_555
O15 Co13 1_555 1_555
N2 N1 1_555 1_555
N3 H1 1_555 1_555
N4 H2 1_555 1_555
H3 N4 1_555 1_555
C11 N1 1_555 1_555
H6 C11 1_555 1_555
C12 N2 1_555 1_555
N3 C11 1_555 1_555
N3 C12 1_555 1_555
N4 C12 1_555 1_555
Co11 O6 1_555 1_555
O6 C9 1_555 1_555
O7 Co11 1_555 1_555
C9 O7 1_555 1_555
C8 C9 1_555 1_555
H5 C10 1_555 1_555
O13 C18 1_555 1_555
C18 C19 1_555 1_555
C19 C10 1_555 1_555
O16 C18 1_555 1_555
Co13 O16 1_555 1_555
Co10 O13 1_555 1_555
N5 N9 1_555 1_555
N7 H9 1_555 1_555
N8 H10 1_555 1_555
H11 N8 1_555 1_555
C23 N5 1_555 1_555
H12 C23 1_555 1_555
C24 N9 1_555 1_555
N7 C23 1_555 1_555
N7 C24 1_555 1_555
N8 C24 1_555 1_555

#END
