
###############################################################################
#
# This file contains modified crystal structure data generated from the
# MOF subset of the Cambridge Structural Database (CSD) v543 
# hosted by the Cambridge Crystallographic Data Centre (CCDC).
#
# This work is licensed under the Creative Commons
# Attribution-NonCommercial-ShareAlike 4.0 International License.
# To view a copy of this license, visit
# http://creativecommons.org/licenses/by-nc-sa/4.0/
# or send a letter to
# Creative Commons, PO Box 1866, Mountain View, CA 94042, USA.
#
# CIF created using the CSD Python API on 29 September 2022
# The structure has been converted into the P1 space group
# The structure has a 3D framework
# The original CSD entry UPABIZ is in the trigonal crystal system
# The framework has been calculated to contain at least 10.0% void space
# The void calculation uses a probe of radius 1.32A, grid spacing 0.4
#
###############################################################################

data_UPABIZ
_chemical_formula_moiety         '(C66 H60 N6 O24 Tb2 3+)n'
_symmetry_cell_setting           triclinic
_symmetry_space_group_name_H-M   'P 1'
_symmetry_Int_Tables_number      1
_space_group_name_Hall           'P 1'
loop_
_symmetry_equiv_pos_site_id
_symmetry_equiv_pos_as_xyz
1 x,y,z
_cell_length_a                   15.4340(4)
_cell_length_b                   15.4340(4)
_cell_length_c                   12.6045(3)
_cell_angle_alpha                90
_cell_angle_beta                 90
_cell_angle_gamma                120
_cell_volume                     2600.24
loop_
_atom_site_label
_atom_site_type_symbol
_atom_site_fract_x
_atom_site_fract_y
_atom_site_fract_z
C30 C 0.4850(5) 0.0374(7) 0.0823(4)
C32 C 0.5452(4) 0.1437(6) 0.1205(4)
O16 O 0.5082(4) 0.1746(5) 0.1910(4)
O17 O 0.6318(4) 0.1989(6) 0.0866(3)
Tb3 Tb 0.666667 0.333333 0.21803(2)
O1 O 0.5543(4) 0.3371(3) 0.3407(4)
O2 O 0.5671(4) 0.3682(4) 0.0866(3)
O3 O 0.6664(3) 0.4918(4) 0.1910(4)
C1 C 0.5985(5) 0.4548(4) 0.1205(4)
C2 C 0.5524(5) 0.5150(5) 0.0823(4)
C3 C 0.5712(5) 0.6019(5) 0.1369(5)
H1 H 0.613901 0.622788 0.196158
C5 C 0.5275(5) 0.6575(5) 0.1046(6)
C7 C 0.5409(5) 0.7459(5) 0.1683(5)
C8 C 0.4667(5) 0.6263(5) 0.0166(5)
N1 N 0.4532(4) 0.7201(4) 0.2350(4)
H3 H 0.600236 0.769974 0.213378
H4 H 0.551832 0.800196 0.119890
H6 H 0.394610 0.690811 0.187013
C10 C 0.4334(6) 0.6424(6) 0.3166(6)
C11 C 0.4598(6) 0.8119(6) 0.2800(7)
H7 H 0.494965 0.640501 0.330201
H8 H 0.412924 0.659879 0.383080
H9 H 0.506268 0.835203 0.340172
H10 H 0.485711 0.864749 0.226162
O5 O 0.6629(3) 0.2172(5) 0.3407(4)
O6 O 0.7828(5) 0.4457(4) 0.3407(4)
O7 O 0.8011(6) 0.4329(4) 0.0866(3)
O9 O 0.8254(5) 0.3336(3) 0.1910(4)
C12 C 0.3521(8) 0.5402(6) 0.2800(7)
C13 C 0.3576(6) 0.7910(8) 0.3166(6)
N2 N 0.2669(6) 0.5468(4) 0.2350(4)
H11 H 0.328935 0.493732 0.340172
H12 H 0.379038 0.514289 0.226162
N3 N 0.2799(4) 0.7331(6) 0.2350(4)
H13 H 0.359499 0.854464 0.330201
H14 H 0.340121 0.753045 0.383080
C16 C 0.2090(8) 0.5666(6) 0.3166(6)
H15 H 0.296201 0.605390 0.187013
C17 C 0.2050(7) 0.4591(5) 0.1683(5)
C18 C 0.1881(6) 0.6479(8) 0.2800(7)
H16 H 0.309189 0.703799 0.187013
C19 C 0.2541(5) 0.7950(7) 0.1683(5)
H17 H 0.145536 0.505035 0.330201
H18 H 0.246955 0.587076 0.383080
C22 C 0.1300(7) 0.4725(5) 0.1046(6)
H19 H 0.248364 0.448168 0.119890
H20 H 0.169738 0.399764 0.213378
H21 H 0.164797 0.671065 0.340172
H22 H 0.135251 0.620962 0.226162
C23 C 0.3425(5) 0.8700(7) 0.1046(6)
H23 H 0.230026 0.830262 0.213378
H24 H 0.199804 0.751636 0.119890
C24 C 0.3737(5) 0.8404(7) 0.0166(5)
C27 C 0.1596(7) 0.5333(5) 0.0166(5)
C28 C 0.0307(7) 0.4288(5) 0.1369(5)
C29 C 0.3981(5) 0.9693(7) 0.1369(5)
H29 H 0.008887 0.386099 0.196158
H30 H 0.377212 0.991113 0.196158
C4 C 0.4894(5) 0.4844(5) 0.9947(4)
H2 H 0.474719 0.425404 0.958256
C6 C 0.4487(6) 0.5414(5) 0.9618(5)
C9 C 0.3811(6) 0.5080(5) 0.8631(5)
H5 H 0.437057 0.663353 0.993331
O4 O 0.3763(6) 0.4369(6) 0.8125(5)
O11 O 0.3371(3) 0.5543(4) 0.8407(4)
Tb2 Tb 0.333333 0.666667 0.71803(2)
O12 O 0.4457(4) 0.7828(5) 0.8407(4)
O13 O 0.2172(5) 0.6629(3) 0.8407(4)
C14 C 0.4920(5) 0.8731(8) 0.8631(5)
C15 C 0.1269(8) 0.6189(6) 0.8631(5)
C20 C 0.4586(5) 0.9073(8) 0.9618(5)
O14 O 0.5631(6) 0.9394(8) 0.8125(5)
C21 C 0.0927(8) 0.5513(6) 0.9618(5)
O15 O 0.0606(8) 0.6237(6) 0.8125(5)
H25 H 0.336647 0.773704 0.993331
H28 H 0.226296 0.562943 0.993331
C31 C 0.9626(7) 0.4476(5) 0.0823(4)
C33 C 0.8563(6) 0.4015(5) 0.1205(4)
C25 C 0.0050(7) 0.5156(5) 0.4947(4)
C30_2 C 0.0374(7) 0.4850(5) 0.5823(4)
H26 H 0.049315 0.574596 0.458256
C32_2 C 0.1437(6) 0.5452(4) 0.6205(4)
O16_2 O 0.1746(5) 0.5082(4) 0.6910(4)
O17_2 O 0.1989(6) 0.6318(4) 0.5866(3)
O2_2 O 0.3682(4) 0.5671(4) 0.5866(3)
O3_2 O 0.4918(4) 0.6664(3) 0.6910(4)
C1_2 C 0.4548(4) 0.5985(5) 0.6205(4)
C2_2 C 0.5150(5) 0.5524(5) 0.5823(4)
C3_2 C 0.6019(5) 0.5712(5) 0.6369(5)
C4_2 C 0.4844(5) 0.4894(5) 0.4947(4)
H1_2 H 0.622788 0.613901 0.696158
C5_2 C 0.6575(5) 0.5275(5) 0.6046(6)
H2_2 H 0.425404 0.474719 0.458256
C6_2 C 0.5414(5) 0.4487(6) 0.4618(5)
C7_2 C 0.7459(5) 0.5409(5) 0.6683(5)
C8_2 C 0.6263(5) 0.4667(5) 0.5166(5)
C9_2 C 0.5080(5) 0.3811(6) 0.3631(5)
N1_2 N 0.7201(4) 0.4532(4) 0.7350(4)
H3_2 H 0.769974 0.600236 0.713378
H4_2 H 0.800196 0.551832 0.619890
H5_2 H 0.663353 0.437057 0.493331
O4_2 O 0.4369(6) 0.3763(6) 0.3125(5)
H6_2 H 0.690811 0.394610 0.687013
C10_2 C 0.6424(6) 0.4334(6) 0.8166(6)
C11_2 C 0.8119(6) 0.4598(6) 0.7800(7)
H7_2 H 0.640501 0.494965 0.830201
H8_2 H 0.659879 0.412924 0.883080
H9_2 H 0.835203 0.506268 0.840172
H10_2 H 0.864749 0.485711 0.726162
O7_2 O 0.4329(4) 0.8011(6) 0.5866(3)
O9_2 O 0.3336(3) 0.8254(5) 0.6910(4)
C12_2 C 0.5402(6) 0.3521(8) 0.7800(7)
C13_2 C 0.7910(8) 0.3576(6) 0.8166(6)
N2_2 N 0.5468(4) 0.2669(6) 0.7350(4)
H11_2 H 0.493732 0.328935 0.840172
H12_2 H 0.514289 0.379038 0.726162
N3_2 N 0.7331(6) 0.2799(4) 0.7350(4)
H13_2 H 0.854464 0.359499 0.830201
H14_2 H 0.753045 0.340121 0.883080
C14_2 C 0.8731(8) 0.4920(5) 0.3631(5)
C15_2 C 0.6189(6) 0.1269(8) 0.3631(5)
C16_2 C 0.5666(6) 0.2090(8) 0.8166(6)
H15_2 H 0.605390 0.296201 0.687013
C17_2 C 0.4591(5) 0.2050(7) 0.6683(5)
C18_2 C 0.6479(8) 0.1881(6) 0.7800(7)
H16_2 H 0.703799 0.309189 0.687013
C19_2 C 0.7950(7) 0.2541(5) 0.6683(5)
C20_2 C 0.9073(8) 0.4586(5) 0.4618(5)
O14_2 O 0.9394(8) 0.5631(6) 0.3125(5)
C21_2 C 0.5513(6) 0.0927(8) 0.4618(5)
O15_2 O 0.6237(6) 0.0606(8) 0.3125(5)
H17_2 H 0.505035 0.145536 0.830201
H18_2 H 0.587076 0.246955 0.883080
C22_2 C 0.4725(5) 0.1300(7) 0.6046(6)
H19_2 H 0.448168 0.248364 0.619890
H20_2 H 0.399764 0.169738 0.713378
H21_2 H 0.671065 0.164797 0.840172
H22_2 H 0.620962 0.135251 0.726162
C23_2 C 0.8700(7) 0.3425(5) 0.6046(6)
H23_2 H 0.830262 0.230026 0.713378
H24_2 H 0.751636 0.199804 0.619890
C24_2 C 0.8404(7) 0.3737(5) 0.5166(5)
C27_2 C 0.5333(5) 0.1596(7) 0.5166(5)
C28_2 C 0.4288(5) 0.0307(7) 0.6369(5)
C29_2 C 0.9693(7) 0.3981(5) 0.6369(5)
H25_2 H 0.773704 0.336647 0.493331
H28_2 H 0.562943 0.226296 0.493331
H29_2 H 0.386099 0.008887 0.696158
H30_2 H 0.991113 0.377212 0.696158
C26 C 0.5106(5) 0.9950(7) 0.4947(4)
C31_2 C 0.4476(5) 0.9626(7) 0.5823(4)
H27 H 0.525281 0.950685 0.458256
C33_2 C 0.4015(5) 0.8563(6) 0.6205(4)
C25_2 C 0.5156(5) 0.0050(7) 0.9947(4)
H26_2 H 0.574596 0.049315 0.958256
C26_2 C 0.9950(7) 0.5106(5) 0.9947(4)
H27_2 H 0.950685 0.525281 0.958256
loop_
_geom_bond_atom_site_label_1
_geom_bond_atom_site_label_2
_geom_bond_site_symmetry_1
_geom_bond_site_symmetry_2
C32 C30 1_555 1_555
O16 C32 1_555 1_555
O17 C32 1_555 1_555
Tb3 O16 1_555 1_555
O17 Tb3 1_555 1_555
Tb3 O1 1_555 1_555
O2 Tb3 1_555 1_555
O3 Tb3 1_555 1_555
C1 O2 1_555 1_555
C2 C1 1_555 1_555
C3 C2 1_555 1_555
H1 C3 1_555 1_555
C5 C3 1_555 1_555
C7 C5 1_555 1_555
C8 C5 1_555 1_555
N1 C7 1_555 1_555
H3 C7 1_555 1_555
H4 C7 1_555 1_555
H6 N1 1_555 1_555
C10 N1 1_555 1_555
C11 N1 1_555 1_555
H7 C10 1_555 1_555
H8 C10 1_555 1_555
H9 C11 1_555 1_555
H10 C11 1_555 1_555
O5 Tb3 1_555 1_555
O6 Tb3 1_555 1_555
O7 Tb3 1_555 1_555
O9 Tb3 1_555 1_555
C12 C10 1_555 1_555
C13 C11 1_555 1_555
N2 C12 1_555 1_555
H11 C12 1_555 1_555
H12 C12 1_555 1_555
N3 C13 1_555 1_555
H13 C13 1_555 1_555
H14 C13 1_555 1_555
C16 N2 1_555 1_555
H15 N2 1_555 1_555
C17 N2 1_555 1_555
C18 N3 1_555 1_555
H16 N3 1_555 1_555
C19 N3 1_555 1_555
H17 C16 1_555 1_555
H18 C16 1_555 1_555
C22 C17 1_555 1_555
H19 C17 1_555 1_555
H20 C17 1_555 1_555
H21 C18 1_555 1_555
H22 C18 1_555 1_555
C23 C19 1_555 1_555
H23 C19 1_555 1_555
H24 C19 1_555 1_555
C28 C22 1_555 1_555
C29 C23 1_555 1_555
H29 C28 1_555 1_555
H30 C29 1_555 1_555
O3 C1 1_555 1_555
C16 C18 1_555 1_555
C22 C27 1_555 1_555
C23 C24 1_555 1_555
H2 C4 1_555 1_555
C6 C4 1_555 1_555
C9 C6 1_555 1_555
O4 C9 1_555 1_555
O11 C9 1_555 1_555
Tb2 O11 1_555 1_555
O12 Tb2 1_555 1_555
O13 Tb2 1_555 1_555
C14 O12 1_555 1_555
C15 O13 1_555 1_555
C20 C14 1_555 1_555
O14 C14 1_555 1_555
C21 C15 1_555 1_555
O15 C15 1_555 1_555
C33 C31 1_555 1_555
O7 C33 1_555 1_555
O9 C33 1_555 1_555
C30_2 C25 1_555 1_555
H26 C25 1_555 1_555
C32_2 C30_2 1_555 1_555
O16_2 C32_2 1_555 1_555
O17_2 C32_2 1_555 1_555
Tb2 O16_2 1_555 1_555
O17_2 Tb2 1_555 1_555
O2_2 Tb2 1_555 1_555
O3_2 Tb2 1_555 1_555
C1_2 O2_2 1_555 1_555
C2_2 C1_2 1_555 1_555
C3_2 C2_2 1_555 1_555
C4_2 C2_2 1_555 1_555
H1_2 C3_2 1_555 1_555
C5_2 C3_2 1_555 1_555
H2_2 C4_2 1_555 1_555
C6_2 C4_2 1_555 1_555
C7_2 C5_2 1_555 1_555
C8_2 C5_2 1_555 1_555
C9_2 C6_2 1_555 1_555
N1_2 C7_2 1_555 1_555
H3_2 C7_2 1_555 1_555
H4_2 C7_2 1_555 1_555
H5_2 C8_2 1_555 1_555
O4_2 C9_2 1_555 1_555
H6_2 N1_2 1_555 1_555
C10_2 N1_2 1_555 1_555
C11_2 N1_2 1_555 1_555
H7_2 C10_2 1_555 1_555
H8_2 C10_2 1_555 1_555
H9_2 C11_2 1_555 1_555
H10_2 C11_2 1_555 1_555
O7_2 Tb2 1_555 1_555
O9_2 Tb2 1_555 1_555
O1 C9_2 1_555 1_555
C12_2 C10_2 1_555 1_555
C13_2 C11_2 1_555 1_555
N2_2 C12_2 1_555 1_555
H11_2 C12_2 1_555 1_555
H12_2 C12_2 1_555 1_555
N3_2 C13_2 1_555 1_555
H13_2 C13_2 1_555 1_555
H14_2 C13_2 1_555 1_555
C14_2 O6 1_555 1_555
C15_2 O5 1_555 1_555
C16_2 N2_2 1_555 1_555
H15_2 N2_2 1_555 1_555
C17_2 N2_2 1_555 1_555
C18_2 N3_2 1_555 1_555
H16_2 N3_2 1_555 1_555
C19_2 N3_2 1_555 1_555
C20_2 C14_2 1_555 1_555
O14_2 C14_2 1_555 1_555
C21_2 C15_2 1_555 1_555
O15_2 C15_2 1_555 1_555
H17_2 C16_2 1_555 1_555
H18_2 C16_2 1_555 1_555
C22_2 C17_2 1_555 1_555
H19_2 C17_2 1_555 1_555
H20_2 C17_2 1_555 1_555
H21_2 C18_2 1_555 1_555
H22_2 C18_2 1_555 1_555
C23_2 C19_2 1_555 1_555
H23_2 C19_2 1_555 1_555
H24_2 C19_2 1_555 1_555
C24_2 C20_2 1_555 1_555
C27_2 C21_2 1_555 1_555
C28_2 C22_2 1_555 1_555
C29_2 C23_2 1_555 1_555
H25_2 C24_2 1_555 1_555
H28_2 C27_2 1_555 1_555
H29_2 C28_2 1_555 1_555
H30_2 C29_2 1_555 1_555
O3_2 C1_2 1_555 1_555
C6_2 C8_2 1_555 1_555
C16_2 C18_2 1_555 1_555
C22_2 C27_2 1_555 1_555
C23_2 C24_2 1_555 1_555
C31_2 C26 1_555 1_555
H27 C26 1_555 1_555
C33_2 C31_2 1_555 1_555
O7_2 C33_2 1_555 1_555
O9_2 C33_2 1_555 1_555
H26_2 C25_2 1_555 1_555
H27_2 C26_2 1_555 1_555

#END
