
###############################################################################
#
# This file contains modified crystal structure data generated from the
# MOF subset of the Cambridge Structural Database (CSD) v543 
# hosted by the Cambridge Crystallographic Data Centre (CCDC).
#
# This work is licensed under the Creative Commons
# Attribution-NonCommercial-ShareAlike 4.0 International License.
# To view a copy of this license, visit
# http://creativecommons.org/licenses/by-nc-sa/4.0/
# or send a letter to
# Creative Commons, PO Box 1866, Mountain View, CA 94042, USA.
#
# CIF created using the CSD Python API on 29 September 2022
# The structure has been converted into the P1 space group
# The structure has a 3D framework
# The original CSD entry UPABAR is in the trigonal crystal system
# The framework has been calculated to contain at least 10.0% void space
# The void calculation uses a probe of radius 1.32A, grid spacing 0.4
# The framework is charged, counterions have been retained in the structure
#
###############################################################################

data_UPABAR
_chemical_formula_moiety         '(C66 H60 N6 O24 Tb2)n'
_symmetry_cell_setting           triclinic
_symmetry_space_group_name_H-M   'P 1'
_symmetry_Int_Tables_number      1
_space_group_name_Hall           'P 1'
loop_
_symmetry_equiv_pos_site_id
_symmetry_equiv_pos_as_xyz
1 x,y,z
_cell_length_a                   15.4425(3)
_cell_length_b                   15.4425(3)
_cell_length_c                   12.4907(3)
_cell_angle_alpha                90
_cell_angle_beta                 90
_cell_angle_gamma                120
_cell_volume                     2579.6
loop_
_atom_site_label
_atom_site_type_symbol
_atom_site_fract_x
_atom_site_fract_y
_atom_site_fract_z
O5 O 0.6654(3) 0.1741(5) 0.4162(5)
O6 O 0.5659(3) 0.1996(4) 0.5219(4)
C13 C 0.5970(4) 0.1433(6) 0.4855(5)
C16 C 0.5507(5) 0.0365(7) 0.5234(5)
C20 C 0.4856(5) 0.0043(7) 0.6108(5)
H19 H 0.4695 0.0491 0.6458
Tb3 Tb 0.6667 0.3333 0.38866(7)
O1 O 0.5087(4) 0.3346(3) 0.4162(5)
O2 O 0.6337(3) 0.4341(3) 0.5219(4)
C1 C 0.1881(6) 0.5400(6) 0.3248(7)
H1 H 0.1345 0.5137 0.3794
H2 H 0.1648 0.4933 0.2633
N1 N 0.2793(5) 0.5462(4) 0.3704(5)
H3 H 0.3090 0.6057 0.4188
C2 C 0.5463(5) 0.4030(4) 0.4855(5)
C3 C 0.3573(6) 0.5662(6) 0.2879(6)
H4 H 0.3396 0.5867 0.2200
H5 H 0.3594 0.5041 0.2741
C4 C 0.3444(5) 0.4740(6) 0.5021(6)
C5 C 0.4858(5) 0.4493(5) 0.5234(5)
C6 C 0.2548(5) 0.4593(5) 0.4392(6)
H6 H 0.2301 0.3987 0.3941
H7 H 0.2007 0.4486 0.4893
C7 C 0.3995(5) 0.4291(5) 0.4695(5)
H8 H 0.3775 0.3846 0.4102
C8 C 0.4615(5) 0.5557(5) 0.6461(5)
C9 C 0.5187(5) 0.5144(5) 0.6108(5)
H9 H 0.5796 0.5305 0.6458
C10 C 0.3756(5) 0.5361(5) 0.5904(5)
H10 H 0.3378 0.5659 0.6134
O3 O 0.4472(4) 0.6662(6) 0.7665(4)
C11 C 0.4956(6) 0.6235(8) 0.7428(5)
O4 O 0.5689(6) 0.6313(8) 0.7933(6)
C12 C 0.4600(6) 0.6481(8) 0.3248(7)
H11 H 0.4863 0.6208 0.3794
H12 H 0.5067 0.6715 0.2633
N2 N 0.4538(4) 0.7331(6) 0.3704(5)
H13 H 0.3943 0.7033 0.4188
C14 C 0.4338(6) 0.7911(8) 0.2879(6)
H14 H 0.4133 0.7529 0.2200
H15 H 0.4959 0.8553 0.2741
C15 C 0.5260(6) 0.8704(8) 0.5021(6)
C17 C 0.5407(5) 0.7955(7) 0.4392(6)
H16 H 0.6013 0.8314 0.3941
H17 H 0.5514 0.7521 0.4893
C18 C 0.5709(5) 0.9704(7) 0.4695(5)
H18 H 0.6154 0.9929 0.4102
C19 C 0.4443(5) 0.9058(7) 0.6461(5)
C21 C 0.4639(5) 0.8395(7) 0.5904(5)
H20 H 0.4341 0.7719 0.6134
O7 O 0.3338(6) 0.7810(7) 0.7665(4)
C22 C 0.3765(8) 0.8721(10) 0.7428(5)
O8 O 0.3687(8) 0.9376(10) 0.7933(6)
C23 C 0.3519(8) 0.8119(6) 0.3248(7)
H21 H 0.3792 0.8655 0.3794
H22 H 0.3285 0.8352 0.2633
N3 N 0.2669(6) 0.7207(5) 0.3704(5)
H23 H 0.2967 0.6910 0.4188
C25 C 0.2089(8) 0.6427(6) 0.2879(6)
H24 H 0.2471 0.6604 0.2200
H25 H 0.1447 0.6406 0.2741
C26 C 0.1296(8) 0.6556(5) 0.5021(6)
C28 C 0.2045(7) 0.7452(5) 0.4392(6)
H26 H 0.1686 0.7699 0.3941
H27 H 0.2479 0.7993 0.4893
C29 C 0.0296(7) 0.6005(5) 0.4695(5)
H28 H 0.0071 0.6225 0.4102
C30 C 0.0942(7) 0.5385(5) 0.6461(5)
C32 C 0.1605(7) 0.6244(5) 0.5904(5)
H30 H 0.2281 0.6622 0.6134
O11 O 0.2190(7) 0.5528(4) 0.7665(4)
C33 C 0.1279(10) 0.5044(6) 0.7428(5)
O12 O 0.0624(10) 0.4311(6) 0.7933(6)
Tb4 Tb 0.3333 0.6667 0.88866(7)
O14 O 0.8259(5) 0.4913(4) 0.4162(5)
O16 O 0.8004(4) 0.3663(3) 0.5219(4)
O17 O 0.6662(6) 0.4472(4) 0.2665(4)
O18 O 0.7810(7) 0.3338(6) 0.2665(4)
O19 O 0.5528(4) 0.2190(7) 0.2665(4)
C24 C 0.8567(6) 0.4537(5) 0.4855(5)
C27 C 0.9635(7) 0.5142(5) 0.5234(5)
C31 C 0.9957(7) 0.4813(5) 0.6108(5)
H29 H 0.9509 0.4204 0.6458
O6_2 O 0.1996(4) 0.5659(3) 0.0219(4)
C16_2 C 0.0365(7) 0.5507(5) 0.0234(5)
C20_2 C 0.0043(7) 0.4856(5) 0.1108(5)
H19_2 H 0.0491 0.4695 0.1458
O5_2 O 0.1741(5) 0.6654(3) 0.9162(5)
C13_2 C 0.1433(6) 0.5970(4) 0.9855(5)
O2_2 O 0.4341(3) 0.6337(3) 0.0219(4)
C4_2 C 0.4740(6) 0.3444(5) 0.0021(6)
C5_2 C 0.4493(5) 0.4858(5) 0.0234(5)
C8_2 C 0.5557(5) 0.4615(5) 0.1461(5)
C9_2 C 0.5144(5) 0.5187(5) 0.1108(5)
H9_2 H 0.5305 0.5796 0.1458
C10_2 C 0.5361(5) 0.3756(5) 0.0904(5)
H10_2 H 0.5659 0.3378 0.1134
C11_2 C 0.6235(8) 0.4956(6) 0.2428(5)
O4_2 O 0.6313(8) 0.5689(6) 0.2933(6)
C15_2 C 0.8704(8) 0.5260(6) 0.0021(6)
C19_2 C 0.9058(7) 0.4443(5) 0.1461(5)
C21_2 C 0.8395(7) 0.4639(5) 0.0904(5)
H20_2 H 0.7719 0.4341 0.1134
C22_2 C 0.8721(10) 0.3765(8) 0.2428(5)
O8_2 O 0.9376(10) 0.3687(8) 0.2933(6)
C26_2 C 0.6556(5) 0.1296(8) 0.0021(6)
C30_2 C 0.5385(5) 0.0942(7) 0.1461(5)
C32_2 C 0.6244(5) 0.1605(7) 0.0904(5)
H30_2 H 0.6622 0.2281 0.1134
C33_2 C 0.5044(6) 0.1279(10) 0.2428(5)
O12_2 O 0.4311(6) 0.0624(10) 0.2933(6)
O16_2 O 0.3663(3) 0.8004(4) 0.0219(4)
O1_2 O 0.3346(3) 0.5087(4) 0.9162(5)
C1_2 C 0.5400(6) 0.1881(6) 0.8248(7)
H1_2 H 0.5137 0.1345 0.8794
H2_2 H 0.4933 0.1648 0.7633
N1_2 N 0.5462(4) 0.2793(5) 0.8704(5)
H3_2 H 0.6057 0.3090 0.9188
C2_2 C 0.4030(4) 0.5463(5) 0.9855(5)
C3_2 C 0.5662(6) 0.3573(6) 0.7879(6)
H4_2 H 0.5867 0.3396 0.7200
H5_2 H 0.5041 0.3594 0.7741
C6_2 C 0.4593(5) 0.2548(5) 0.9392(6)
H6_2 H 0.3987 0.2301 0.8941
H7_2 H 0.4486 0.2007 0.9893
C7_2 C 0.4291(5) 0.3995(5) 0.9695(5)
H8_2 H 0.3846 0.3775 0.9102
C12_2 C 0.6481(8) 0.4600(6) 0.8248(7)
H11_2 H 0.6208 0.4863 0.8794
H12_2 H 0.6715 0.5067 0.7633
N2_2 N 0.7331(6) 0.4538(4) 0.8704(5)
H13_2 H 0.7033 0.3943 0.9188
C14_2 C 0.7911(8) 0.4338(6) 0.7879(6)
H14_2 H 0.7529 0.4133 0.7200
H15_2 H 0.8553 0.4959 0.7741
C17_2 C 0.7955(7) 0.5407(5) 0.9392(6)
H16_2 H 0.8314 0.6013 0.8941
H17_2 H 0.7521 0.5514 0.9893
C18_2 C 0.9704(7) 0.5709(5) 0.9695(5)
H18_2 H 0.9929 0.6154 0.9102
C23_2 C 0.8119(6) 0.3519(8) 0.8248(7)
H21_2 H 0.8655 0.3792 0.8794
H22_2 H 0.8352 0.3285 0.7633
N3_2 N 0.7207(5) 0.2669(6) 0.8704(5)
H23_2 H 0.6910 0.2967 0.9188
C25_2 C 0.6427(6) 0.2089(8) 0.7879(6)
H24_2 H 0.6604 0.2471 0.7200
H25_2 H 0.6406 0.1447 0.7741
C28_2 C 0.7452(5) 0.2045(7) 0.9392(6)
H26_2 H 0.7699 0.1686 0.8941
H27_2 H 0.7993 0.2479 0.9893
C29_2 C 0.6005(5) 0.0296(7) 0.9695(5)
H28_2 H 0.6225 0.0071 0.9102
O14_2 O 0.4913(4) 0.8259(5) 0.9162(5)
C27_2 C 0.5142(5) 0.9635(7) 0.0234(5)
C31_2 C 0.4813(5) 0.9957(7) 0.1108(5)
H29_2 H 0.4204 0.9509 0.1458
C24_2 C 0.4537(5) 0.8567(6) 0.9855(5)
loop_
_geom_bond_atom_site_label_1
_geom_bond_atom_site_label_2
_geom_bond_site_symmetry_1
_geom_bond_site_symmetry_2
O5 C13 1_555 1_555
O6 C13 1_555 1_555
C13 C16 1_555 1_555
C20 C16 1_555 1_555
H19 C20 1_555 1_555
Tb3 O5 1_555 1_555
O6 Tb3 1_555 1_555
Tb3 O1 1_555 1_555
O1 C2 1_555 1_555
O2 Tb3 1_555 1_555
C1 H1 1_555 1_555
H2 C1 1_555 1_555
N1 C1 1_555 1_555
H3 N1 1_555 1_555
C2 O2 1_555 1_555
C3 N1 1_555 1_555
H4 C3 1_555 1_555
H5 C3 1_555 1_555
C4 C6 1_555 1_555
C5 C2 1_555 1_555
C6 N1 1_555 1_555
H6 C6 1_555 1_555
H7 C6 1_555 1_555
C7 C4 1_555 1_555
H8 C7 1_555 1_555
C8 C9 1_555 1_555
C9 C5 1_555 1_555
H9 C9 1_555 1_555
C10 C4 1_555 1_555
H10 C10 1_555 1_555
O3 C11 1_555 1_555
C11 C8 1_555 1_555
O4 C11 1_555 1_555
C12 C3 1_555 1_555
H11 C12 1_555 1_555
H12 C12 1_555 1_555
N2 C12 1_555 1_555
H13 N2 1_555 1_555
C14 N2 1_555 1_555
H14 C14 1_555 1_555
H15 C14 1_555 1_555
C15 C17 1_555 1_555
C17 N2 1_555 1_555
H16 C17 1_555 1_555
H17 C17 1_555 1_555
C18 C15 1_555 1_555
H18 C18 1_555 1_555
C21 C15 1_555 1_555
H20 C21 1_555 1_555
O7 C22 1_555 1_555
C22 C19 1_555 1_555
O8 C22 1_555 1_555
C23 C14 1_555 1_555
H21 C23 1_555 1_555
H22 C23 1_555 1_555
N3 C23 1_555 1_555
H23 N3 1_555 1_555
C25 C1 1_555 1_555
H24 C25 1_555 1_555
H25 C25 1_555 1_555
C26 C28 1_555 1_555
C28 N3 1_555 1_555
H26 C28 1_555 1_555
H27 C28 1_555 1_555
C29 C26 1_555 1_555
H28 C29 1_555 1_555
C32 C26 1_555 1_555
H30 C32 1_555 1_555
O11 C33 1_555 1_555
C33 C30 1_555 1_555
O12 C33 1_555 1_555
Tb4 O3 1_555 1_555
O14 Tb3 1_555 1_555
O16 Tb3 1_555 1_555
O17 Tb3 1_555 1_555
O18 Tb3 1_555 1_555
O19 Tb3 1_555 1_555
C5 C7 1_555 1_555
C8 C10 1_555 1_555
C19 C21 1_555 1_555
O7 Tb4 1_555 1_555
N3 C25 1_555 1_555
C30 C32 1_555 1_555
O11 Tb4 1_555 1_555
O14 C24 1_555 1_555
O16 C24 1_555 1_555
C24 C27 1_555 1_555
C31 C27 1_555 1_555
H29 C31 1_555 1_555
C20_2 C16_2 1_555 1_555
H19_2 C20_2 1_555 1_555
O5_2 C13_2 1_555 1_555
Tb4 O5_2 1_555 1_555
C8_2 C9_2 1_555 1_555
C9_2 C5_2 1_555 1_555
H9_2 C9_2 1_555 1_555
C10_2 C4_2 1_555 1_555
H10_2 C10_2 1_555 1_555
O17 C11_2 1_555 1_555
C11_2 C8_2 1_555 1_555
O4_2 C11_2 1_555 1_555
C21_2 C15_2 1_555 1_555
H20_2 C21_2 1_555 1_555
O18 C22_2 1_555 1_555
C22_2 C19_2 1_555 1_555
O8_2 C22_2 1_555 1_555
C32_2 C26_2 1_555 1_555
H30_2 C32_2 1_555 1_555
O19 C33_2 1_555 1_555
C33_2 C30_2 1_555 1_555
O12_2 C33_2 1_555 1_555
C8_2 C10_2 1_555 1_555
C19_2 C21_2 1_555 1_555
C30_2 C32_2 1_555 1_555
Tb4 O1_2 1_555 1_555
O1_2 C2_2 1_555 1_555
C1_2 H1_2 1_555 1_555
H2_2 C1_2 1_555 1_555
N1_2 C1_2 1_555 1_555
H3_2 N1_2 1_555 1_555
C3_2 N1_2 1_555 1_555
H4_2 C3_2 1_555 1_555
H5_2 C3_2 1_555 1_555
C6_2 N1_2 1_555 1_555
H6_2 C6_2 1_555 1_555
H7_2 C6_2 1_555 1_555
H8_2 C7_2 1_555 1_555
C12_2 C3_2 1_555 1_555
H11_2 C12_2 1_555 1_555
H12_2 C12_2 1_555 1_555
N2_2 C12_2 1_555 1_555
H13_2 N2_2 1_555 1_555
C14_2 N2_2 1_555 1_555
H14_2 C14_2 1_555 1_555
H15_2 C14_2 1_555 1_555
C17_2 N2_2 1_555 1_555
H16_2 C17_2 1_555 1_555
H17_2 C17_2 1_555 1_555
H18_2 C18_2 1_555 1_555
C23_2 C14_2 1_555 1_555
H21_2 C23_2 1_555 1_555
H22_2 C23_2 1_555 1_555
N3_2 C23_2 1_555 1_555
H23_2 N3_2 1_555 1_555
C25_2 C1_2 1_555 1_555
H24_2 C25_2 1_555 1_555
H25_2 C25_2 1_555 1_555
C28_2 N3_2 1_555 1_555
H26_2 C28_2 1_555 1_555
H27_2 C28_2 1_555 1_555
H28_2 C29_2 1_555 1_555
O14_2 Tb4 1_555 1_555
N3_2 C25_2 1_555 1_555
C31_2 C27_2 1_555 1_555
H29_2 C31_2 1_555 1_555
O14_2 C24_2 1_555 1_555

#END
