
###############################################################################
#
# This file contains modified crystal structure data generated from the
# MOF subset of the Cambridge Structural Database (CSD) v543 
# hosted by the Cambridge Crystallographic Data Centre (CCDC).
#
# This work is licensed under the Creative Commons
# Attribution-NonCommercial-ShareAlike 4.0 International License.
# To view a copy of this license, visit
# http://creativecommons.org/licenses/by-nc-sa/4.0/
# or send a letter to
# Creative Commons, PO Box 1866, Mountain View, CA 94042, USA.
#
# CIF created using the CSD Python API on 29 September 2022
# The structure has been converted into the P1 space group
# The structure has a 3D framework
# The original CSD entry UPABEV is in the trigonal crystal system
# The framework has been calculated to contain at least 10.0% void space
# The void calculation uses a probe of radius 1.32A, grid spacing 0.4
#
###############################################################################

data_UPABEV
_chemical_formula_moiety         '(C66 H60 N6 O24 Tb2 3+)n'
_symmetry_cell_setting           triclinic
_symmetry_space_group_name_H-M   'P 1'
_symmetry_Int_Tables_number      1
_space_group_name_Hall           'P 1'
loop_
_symmetry_equiv_pos_site_id
_symmetry_equiv_pos_as_xyz
1 x,y,z
_cell_length_a                   15.5573(5)
_cell_length_b                   15.5573(5)
_cell_length_c                   12.4103(4)
_cell_angle_alpha                90
_cell_angle_beta                 90
_cell_angle_gamma                120
_cell_volume                     2601.25
loop_
_atom_site_label
_atom_site_type_symbol
_atom_site_fract_x
_atom_site_fract_y
_atom_site_fract_z
H2 H 0.0459 0.5855 0.0318
Tb1 Tb 0.3333 0.6667 0.77702(12)
O1 O 0.4506(5) 0.7794(5) 0.6530(5)
O2 O 0.1996(4) 0.6342(4) 0.9145(5)
O3 O 0.1726(5) 0.5133(5) 0.8039(6)
C1 C 0.1422(6) 0.5487(5) 0.8755(6)
C2 C 0.0372(6) 0.4916(5) 0.9122(6)
C4 C 0.0026(6) 0.5246(5) 0.9967(6)
O5 O 0.2206(5) 0.6712(7) 0.6530(5)
O6 O 0.3288(7) 0.5494(5) 0.6530(5)
O7 O 0.4346(6) 0.8004(4) 0.9145(5)
O8 O 0.3658(4) 0.5654(6) 0.9145(5)
O9 O 0.3407(7) 0.8274(5) 0.8039(6)
O10 O 0.4867(5) 0.6593(7) 0.8039(6)
C6 C 0.9043(6) 0.4680(5) 0.0297(6)
C9 C 0.8679(7) 0.5021(6) 0.1237(7)
O4 O 0.9297(7) 0.5822(6) 0.1685(8)
O11 O 0.7794(5) 0.4506(5) 0.1530(5)
Tb2 Tb 0.6667 0.3333 0.27702(12)
O12 O 0.6712(7) 0.2206(5) 0.1530(5)
O13 O 0.5494(5) 0.3288(7) 0.1530(5)
C14 C 0.6342(9) 0.1321(7) 0.1237(7)
C15 C 0.4979(6) 0.3658(9) 0.1237(7)
O14 O 0.6525(9) 0.0703(7) 0.1685(8)
C20 C 0.5637(8) 0.0957(6) 0.0297(6)
C21 C 0.5320(5) 0.4363(8) 0.0297(6)
O15 O 0.4178(6) 0.3475(9) 0.1685(8)
H27 H 0.4145 0.4604 0.0318
C3 C 0.9700(6) 0.4027(6) 0.8573(7)
C5 C 0.8707(6) 0.3484(7) 0.8885(8)
H1 H 0.9930 0.3801 0.7988
C7 C 0.7991(6) 0.2604(6) 0.8265(7)
C8 C 0.8390(6) 0.3818(5) 0.9762(7)
H3 H 0.7572 0.2061 0.8769
N1 N 0.7357(5) 0.2826(6) 0.7585(6)
H4 H 0.8358 0.2374 0.7806
H5 H 0.7719 0.3448 0.9994
C10 C 0.7917(9) 0.3607(7) 0.6742(8)
C11 C 0.6502(8) 0.1910(8) 0.7097(10)
H6 H 0.7054 0.3111 0.8077
H7 H 0.7533 0.3417 0.6062
H8 H 0.8562 0.3647 0.6600
H9 H 0.6239 0.1367 0.7635
H10 H 0.6744 0.1696 0.6471
C12 C 0.8090(8) 0.4592(11) 0.7097(10)
C13 C 0.5690(11) 0.2083(9) 0.6742(8)
N2 N 0.7174(6) 0.4531(8) 0.7585(6)
H11 H 0.8633 0.4872 0.7635
H12 H 0.8304 0.5048 0.6471
N3 N 0.5469(8) 0.2643(5) 0.7585(6)
H13 H 0.5884 0.2467 0.6062
H14 H 0.5085 0.1438 0.6600
C16 C 0.6393(7) 0.4310(11) 0.6742(8)
C17 C 0.7396(6) 0.5387(8) 0.8265(7)
H15 H 0.6889 0.3943 0.8077
H16 H 0.6057 0.2946 0.8077
C18 C 0.4613(8) 0.2009(6) 0.8265(7)
C19 C 0.5408(11) 0.3498(8) 0.7097(10)
H17 H 0.6353 0.4915 0.6600
H18 H 0.6583 0.4116 0.6062
C22 C 0.6516(7) 0.5223(9) 0.8885(8)
H19 H 0.7939 0.5511 0.8769
H20 H 0.7626 0.5984 0.7806
C23 C 0.4777(9) 0.1293(6) 0.8885(8)
H21 H 0.4489 0.2428 0.8769
H22 H 0.4016 0.1642 0.7806
H23 H 0.5128 0.3761 0.7635
H24 H 0.4952 0.3256 0.6471
C25 C 0.5428(8) 0.1610(6) 0.9762(7)
C26 C 0.4754(5) 0.4780(8) 0.9967(6)
C27 C 0.6182(5) 0.4572(8) 0.9762(7)
C28 C 0.5973(6) 0.5673(8) 0.8573(7)
C29 C 0.4327(8) 0.0300(6) 0.8573(7)
H26 H 0.5729 0.2281 0.9994
C31 C 0.5084(5) 0.5456(8) 0.9122(6)
H28 H 0.6552 0.4271 0.9994
H29 H 0.6199 0.6129 0.7988
H30 H 0.3871 0.0070 0.7988
C33 C 0.4513(5) 0.5935(8) 0.8755(6)
C24 C 0.5220(8) 0.9974(6) 0.9967(6)
C30 C 0.4544(8) 0.9628(6) 0.9122(6)
C32 C 0.4065(8) 0.8578(6) 0.8755(6)
O2_2 O 0.6342(4) 0.1996(4) 0.4145(5)
O3_2 O 0.5133(5) 0.1726(5) 0.3039(6)
C1_2 C 0.5487(5) 0.1422(6) 0.3755(6)
C2_2 C 0.4916(5) 0.0372(6) 0.4122(6)
C4_2 C 0.5246(5) 0.0026(6) 0.4967(6)
H2_2 H 0.5855 0.0459 0.5318
O7_2 O 0.8004(4) 0.4346(6) 0.4145(5)
O8_2 O 0.5654(6) 0.3658(4) 0.4145(5)
O9_2 O 0.8274(5) 0.3407(7) 0.3039(6)
O10_2 O 0.6593(7) 0.4867(5) 0.3039(6)
C3_2 C 0.4027(6) 0.9700(6) 0.3573(7)
C5_2 C 0.3484(7) 0.8707(6) 0.3885(8)
H1_2 H 0.3801 0.9930 0.2988
C6_2 C 0.4680(5) 0.9043(6) 0.5297(6)
C7_2 C 0.2604(6) 0.7991(6) 0.3265(7)
C8_2 C 0.3818(5) 0.8390(6) 0.4762(7)
C9_2 C 0.5021(6) 0.8679(7) 0.6237(7)
H3_2 H 0.2061 0.7572 0.3769
N1_2 N 0.2826(6) 0.7357(5) 0.2585(6)
H4_2 H 0.2374 0.8358 0.2806
H5_2 H 0.3448 0.7719 0.4994
O4_2 O 0.5822(6) 0.9297(7) 0.6685(8)
C10_2 C 0.3607(7) 0.7917(9) 0.1742(8)
C11_2 C 0.1910(8) 0.6502(8) 0.2097(10)
H6_2 H 0.3111 0.7054 0.3077
H7_2 H 0.3417 0.7533 0.1062
H8_2 H 0.3647 0.8562 0.1600
H9_2 H 0.1367 0.6239 0.2635
H10_2 H 0.1696 0.6744 0.1471
C12_2 C 0.4592(11) 0.8090(8) 0.2097(10)
C13_2 C 0.2083(9) 0.5690(11) 0.1742(8)
N2_2 N 0.4531(8) 0.7174(6) 0.2585(6)
H11_2 H 0.4872 0.8633 0.2635
H12_2 H 0.5048 0.8304 0.1471
N3_2 N 0.2643(5) 0.5469(8) 0.2585(6)
H13_2 H 0.2467 0.5884 0.1062
H14_2 H 0.1438 0.5085 0.1600
C14_2 C 0.1321(7) 0.6342(9) 0.6237(7)
C15_2 C 0.3658(9) 0.4979(6) 0.6237(7)
C16_2 C 0.4310(11) 0.6393(7) 0.1742(8)
C17_2 C 0.5387(8) 0.7396(6) 0.3265(7)
H15_2 H 0.3943 0.6889 0.3077
H16_2 H 0.2946 0.6057 0.3077
C18_2 C 0.2009(6) 0.4613(8) 0.3265(7)
C19_2 C 0.3498(8) 0.5408(11) 0.2097(10)
O14_2 O 0.0703(7) 0.6525(9) 0.6685(8)
C20_2 C 0.0957(6) 0.5637(8) 0.5297(6)
C21_2 C 0.4363(8) 0.5320(5) 0.5297(6)
O15_2 O 0.3475(9) 0.4178(6) 0.6685(8)
H17_2 H 0.4915 0.6353 0.1600
H18_2 H 0.4116 0.6583 0.1062
C22_2 C 0.5223(9) 0.6516(7) 0.3885(8)
H19_2 H 0.5511 0.7939 0.3769
H20_2 H 0.5984 0.7626 0.2806
C23_2 C 0.1293(6) 0.4777(9) 0.3885(8)
H21_2 H 0.2428 0.4489 0.3769
H22_2 H 0.1642 0.4016 0.2806
H23_2 H 0.3761 0.5128 0.2635
H24_2 H 0.3256 0.4952 0.1471
C25_2 C 0.1610(6) 0.5428(8) 0.4762(7)
C26_2 C 0.4780(8) 0.4754(5) 0.4967(6)
C27_2 C 0.4572(8) 0.6182(5) 0.4762(7)
C28_2 C 0.5673(8) 0.5973(6) 0.3573(7)
C29_2 C 0.0300(6) 0.4327(8) 0.3573(7)
H26_2 H 0.2281 0.5729 0.4994
H27_2 H 0.4604 0.4145 0.5318
C31_2 C 0.5456(8) 0.5084(5) 0.4122(6)
H28_2 H 0.4271 0.6552 0.4994
H29_2 H 0.6129 0.6199 0.2988
H30_2 H 0.0070 0.3871 0.2988
C33_2 C 0.5935(8) 0.4513(5) 0.3755(6)
C24_2 C 0.9974(6) 0.5220(8) 0.4967(6)
C30_2 C 0.9628(6) 0.4544(8) 0.4122(6)
H25 H 0.9541 0.5396 0.5318
C32_2 C 0.8578(6) 0.4065(8) 0.3755(6)
H25_2 H 0.5396 0.9541 0.0318
loop_
_geom_bond_atom_site_label_1
_geom_bond_atom_site_label_2
_geom_bond_site_symmetry_1
_geom_bond_site_symmetry_2
Tb1 O1 1_555 1_555
O2 Tb1 1_555 1_555
O3 Tb1 1_555 1_555
C1 O2 1_555 1_555
C2 C1 1_555 1_555
C4 C2 1_555 1_555
O5 Tb1 1_555 1_555
O6 Tb1 1_555 1_555
O7 Tb1 1_555 1_555
O8 Tb1 1_555 1_555
O9 Tb1 1_555 1_555
O10 Tb1 1_555 1_555
O3 C1 1_555 1_555
C9 C6 1_555 1_555
O4 C9 1_555 1_555
O11 C9 1_555 1_555
Tb2 O11 1_555 1_555
O12 Tb2 1_555 1_555
O13 Tb2 1_555 1_555
C14 O12 1_555 1_555
C15 O13 1_555 1_555
O14 C14 1_555 1_555
C20 C14 1_555 1_555
C21 C15 1_555 1_555
O15 C15 1_555 1_555
C5 C3 1_555 1_555
H1 C3 1_555 1_555
C7 C5 1_555 1_555
C8 C5 1_555 1_555
H3 C7 1_555 1_555
N1 C7 1_555 1_555
H4 C7 1_555 1_555
H5 C8 1_555 1_555
C10 N1 1_555 1_555
C11 N1 1_555 1_555
H6 N1 1_555 1_555
H7 C10 1_555 1_555
H8 C10 1_555 1_555
H9 C11 1_555 1_555
H10 C11 1_555 1_555
C12 C10 1_555 1_555
C13 C11 1_555 1_555
N2 C12 1_555 1_555
H11 C12 1_555 1_555
H12 C12 1_555 1_555
N3 C13 1_555 1_555
H13 C13 1_555 1_555
H14 C13 1_555 1_555
C16 N2 1_555 1_555
C17 N2 1_555 1_555
H15 N2 1_555 1_555
H16 N3 1_555 1_555
C18 N3 1_555 1_555
C19 N3 1_555 1_555
H17 C16 1_555 1_555
H18 C16 1_555 1_555
C22 C17 1_555 1_555
H19 C17 1_555 1_555
H20 C17 1_555 1_555
C23 C18 1_555 1_555
H21 C18 1_555 1_555
H22 C18 1_555 1_555
H23 C19 1_555 1_555
H24 C19 1_555 1_555
C28 C22 1_555 1_555
C29 C23 1_555 1_555
H26 C25 1_555 1_555
C31 C26 1_555 1_555
H28 C27 1_555 1_555
H29 C28 1_555 1_555
H30 C29 1_555 1_555
C33 C31 1_555 1_555
O10 C33 1_555 1_555
O8 C33 1_555 1_555
C16 C19 1_555 1_555
C22 C27 1_555 1_555
C23 C25 1_555 1_555
C28 C31 1_555 1_555
C30 C24 1_555 1_555
C32 C30 1_555 1_555
O7 C32 1_555 1_555
O9 C32 1_555 1_555
O2_2 Tb2 1_555 1_555
O3_2 Tb2 1_555 1_555
C1_2 O2_2 1_555 1_555
C2_2 C1_2 1_555 1_555
C4_2 C2_2 1_555 1_555
H2_2 C4_2 1_555 1_555
O7_2 Tb2 1_555 1_555
O8_2 Tb2 1_555 1_555
O9_2 Tb2 1_555 1_555
O10_2 Tb2 1_555 1_555
O3_2 C1_2 1_555 1_555
C5_2 C3_2 1_555 1_555
H1_2 C3_2 1_555 1_555
C7_2 C5_2 1_555 1_555
C8_2 C5_2 1_555 1_555
C9_2 C6_2 1_555 1_555
H3_2 C7_2 1_555 1_555
N1_2 C7_2 1_555 1_555
H4_2 C7_2 1_555 1_555
H5_2 C8_2 1_555 1_555
O4_2 C9_2 1_555 1_555
C10_2 N1_2 1_555 1_555
C11_2 N1_2 1_555 1_555
H6_2 N1_2 1_555 1_555
H7_2 C10_2 1_555 1_555
H8_2 C10_2 1_555 1_555
H9_2 C11_2 1_555 1_555
H10_2 C11_2 1_555 1_555
O1 C9_2 1_555 1_555
C12_2 C10_2 1_555 1_555
C13_2 C11_2 1_555 1_555
N2_2 C12_2 1_555 1_555
H11_2 C12_2 1_555 1_555
H12_2 C12_2 1_555 1_555
N3_2 C13_2 1_555 1_555
H13_2 C13_2 1_555 1_555
H14_2 C13_2 1_555 1_555
C14_2 O5 1_555 1_555
C15_2 O6 1_555 1_555
C16_2 N2_2 1_555 1_555
C17_2 N2_2 1_555 1_555
H15_2 N2_2 1_555 1_555
H16_2 N3_2 1_555 1_555
C18_2 N3_2 1_555 1_555
C19_2 N3_2 1_555 1_555
O14_2 C14_2 1_555 1_555
C20_2 C14_2 1_555 1_555
C21_2 C15_2 1_555 1_555
O15_2 C15_2 1_555 1_555
H17_2 C16_2 1_555 1_555
H18_2 C16_2 1_555 1_555
C22_2 C17_2 1_555 1_555
H19_2 C17_2 1_555 1_555
H20_2 C17_2 1_555 1_555
C23_2 C18_2 1_555 1_555
H21_2 C18_2 1_555 1_555
H22_2 C18_2 1_555 1_555
H23_2 C19_2 1_555 1_555
H24_2 C19_2 1_555 1_555
C25_2 C20_2 1_555 1_555
C26_2 C21_2 1_555 1_555
C27_2 C21_2 1_555 1_555
C28_2 C22_2 1_555 1_555
C29_2 C23_2 1_555 1_555
H26_2 C25_2 1_555 1_555
H27_2 C26_2 1_555 1_555
C31_2 C26_2 1_555 1_555
H28_2 C27_2 1_555 1_555
H29_2 C28_2 1_555 1_555
H30_2 C29_2 1_555 1_555
C33_2 C31_2 1_555 1_555
O10_2 C33_2 1_555 1_555
O8_2 C33_2 1_555 1_555
C6_2 C8_2 1_555 1_555
C16_2 C19_2 1_555 1_555
C22_2 C27_2 1_555 1_555
C23_2 C25_2 1_555 1_555
C28_2 C31_2 1_555 1_555
C30_2 C24_2 1_555 1_555
H25 C24_2 1_555 1_555
C32_2 C30_2 1_555 1_555
O7_2 C32_2 1_555 1_555
O9_2 C32_2 1_555 1_555

#END
