
###############################################################################
#
# This file contains modified crystal structure data generated from the
# MOF subset of the Cambridge Structural Database (CSD) v543 
# hosted by the Cambridge Crystallographic Data Centre (CCDC).
#
# This work is licensed under the Creative Commons
# Attribution-NonCommercial-ShareAlike 4.0 International License.
# To view a copy of this license, visit
# http://creativecommons.org/licenses/by-nc-sa/4.0/
# or send a letter to
# Creative Commons, PO Box 1866, Mountain View, CA 94042, USA.
#
# CIF created using the CSD Python API on 29 September 2022
# The structure has been converted into the P1 space group
# The structure has a 3D framework
# The original CSD entry UPECEY is in the monoclinic crystal system
# The framework has been calculated to contain at least 10.0% void space
# The void calculation uses a probe of radius 1.32A, grid spacing 0.4
# H atom positions have been added when not included in the experimental data
#
###############################################################################

data_UPECEY
_chemical_formula_moiety         '(C56 H88 Mn4 N12 O48 Sc4)n'
_symmetry_cell_setting           triclinic
_symmetry_space_group_name_H-M   'P 1'
_symmetry_Int_Tables_number      1
_space_group_name_Hall           'P 1'
loop_
_symmetry_equiv_pos_site_id
_symmetry_equiv_pos_as_xyz
1 x,y,z
_cell_length_a                   7.868(3)
_cell_length_b                   15.094(5)
_cell_length_c                   18.162(9)
_cell_angle_alpha                90
_cell_angle_beta                 100.32(2)
_cell_angle_gamma                90
_cell_volume                     2122.02
loop_
_atom_site_label
_atom_site_type_symbol
_atom_site_fract_x
_atom_site_fract_y
_atom_site_fract_z
Mn2 Mn 0.1654(1) 0.07148(6) 0.14265(5)
O7 O 0.0789(6) 0.9427(3) 0.1722(3)
C7 C 0.0133(8) 0.7914(4) 0.1528(4)
H7 H 0.0623257 0.78255 0.100886
H8 H 0.118126 0.782273 0.200199
O3 O 0.4135(6) 0.0291(3) 0.2085(2)
O12 O 0.2235(6) 0.0014(3) 0.0384(2)
O13 O 0.2843(6) 0.1914(3) 0.1088(2)
O14 O 0.1211(6) 0.1352(3) 0.2434(2)
Sc1 Sc 0.6020(1) 0.80393(7) 0.11168(6)
O2 O 0.4577(5) 0.9142(3) 0.1378(2)
O4 O 0.4771(5) 0.7018(3) 0.1647(2)
O5 O 0.3789(6) 0.6352(3) 0.2566(2)
O6 O 0.8033(5) 0.9057(3) 0.1381(2)
O8 O 0.6833(6) 0.8389(3) 0.0077(2)
O9 O 0.3599(5) 0.7915(3) 0.0342(2)
N1 N 0.6466(6) 0.8265(3) 0.2495(3)
N2 N 0.8664(6) 0.7039(3) 0.1569(3)
N3 N 0.6073(6) 0.6694(3) 0.0378(3)
C1 C 0.4587(7) 0.9584(4) 0.1987(3)
C2 C 0.6243(8) 0.9237(4) 0.2610(3)
C3 C 0.4526(7) 0.6974(4) 0.2309(3)
C4 C 0.5085(8) 0.7783(4) 0.2794(4)
C5 C 0.8193(8) 0.7937(4) 0.2828(4)
C6 C 0.8671(8) 0.7118(4) 0.2406(3)
C8 C 0.9582(7) 0.8890(4) 0.1546(3)
C9 C 0.8895(8) 0.6445(4) 0.1203(4)
C10 C 0.7164(8) 0.6038(4) 0.0864(3)
C13 C 0.4254(8) 0.6392(4) 0.0164(4)
C14 C 0.3033(8) 0.7118(4) 0.0053(3)
Mn3 Mn 0.3346(1) 0.57148(6) 0.35735(5)
H1 H 0.740817 0.958891 0.253496
H2 H 0.599454 0.935635 0.31725
H3 H 0.820366 0.776047 0.341019
H4 H 0.913908 0.845719 0.280123
H5 H 0.99879 0.695711 0.267137
H6 H 0.779974 0.659961 0.25282
H9 H 0.968672 0.595337 0.154503
H10 H 0.955449 0.666701 0.0757716
H11 H 0.738061 0.546394 0.0529538
H12 H 0.649814 0.583159 0.131188
H15 H 0.398165 0.82202 0.278819
H16 H 0.557702 0.757166 0.336576
H17 H 0.240068 0.937097 0.0488259
H19 H 0.394584 0.596652 0.0606172
O1 O 0.7157(6) 0.8086(3) 0.8912(2)
O10 O 0.1549(6) 0.7085(3) 0.9688(3)
C11 C 0.6780(8) 0.6888(4) 0.9686(3)
C12 C 0.6910(8) 0.7862(4) 0.9536(3)
Mn4 Mn 0.8346(1) 0.92852(6) 0.85735(5)
H13 H 0.593677 0.658577 0.921156
H14 H 0.806526 0.65987 0.974507
H20 H 0.412945 0.601615 0.964528
O2_2 O 0.0423(5) 0.4142(3) 0.3622(2)
O3_2 O 0.0865(6) 0.5291(3) 0.2915(2)
O4_2 O 0.0229(5) 0.2018(3) 0.3353(2)
O9_2 O 0.1401(5) 0.2915(3) 0.4658(2)
O10_2 O 0.3451(6) 0.2085(3) 0.5312(3)
C1_2 C 0.0413(7) 0.4584(4) 0.3013(3)
C3_2 C 0.0474(7) 0.1974(4) 0.2691(3)
C13_2 C 0.0746(8) 0.1392(4) 0.4836(4)
C14_2 C 0.1967(8) 0.2118(4) 0.4947(3)
O11 O 0.5716(7) 0.6148(3) 0.4254(3)
O12_2 O 0.2765(6) 0.5014(3) 0.4616(2)
O13_2 O 0.2157(6) 0.6914(3) 0.3912(2)
O15 O 0.4211(6) 0.4427(3) 0.3278(3)
H15_2 H 0.101835 0.32202 0.221181
H17_2 H 0.259932 0.437097 0.451174
H18 H 0.374613 0.510092 0.50369
H19_2 H 0.105416 0.0966522 0.439383
H20_2 H 0.0870554 0.101615 0.535472
H21 H 0.590004 0.582405 0.473764
H22 H 0.669266 0.602648 0.399
O1_2 O 0.7843(6) 0.3086(3) 0.6088(2)
Sc1_2 Sc 0.8980(1) 0.30393(7) 0.38832(6)
O6_2 O 0.6967(5) 0.4057(3) 0.3619(2)
O8_2 O 0.8167(6) 0.3389(3) 0.4923(2)
N1_2 N 0.8534(6) 0.3265(3) 0.2505(3)
N2_2 N 0.6336(6) 0.2039(3) 0.3431(3)
N3_2 N 0.8927(6) 0.1694(3) 0.4622(3)
C2_2 C 0.8757(8) 0.4237(4) 0.2390(3)
C4_2 C 0.9915(8) 0.2783(4) 0.2206(4)
C5_2 C 0.6807(8) 0.2937(4) 0.2172(4)
C6_2 C 0.6329(8) 0.2118(4) 0.2594(3)
C7_2 C 0.4867(8) 0.2914(4) 0.3472(4)
C8_2 C 0.5418(7) 0.3890(4) 0.3454(3)
C9_2 C 0.6105(8) 0.1445(4) 0.3797(4)
C10_2 C 0.7836(8) 0.1038(4) 0.4136(3)
C11_2 C 0.8220(8) 0.1888(4) 0.5314(3)
C12_2 C 0.8090(8) 0.2862(4) 0.5464(3)
Mn4_2 Mn 0.6654(1) 0.42852(6) 0.64265(5)
H1_2 H 0.759183 0.458891 0.246504
H2_2 H 0.900546 0.435635 0.18275
H3_2 H 0.679634 0.276047 0.158981
H4_2 H 0.586092 0.345719 0.219877
H5_2 H 0.50121 0.195711 0.232863
H6_2 H 0.720026 0.159961 0.24718
H7_2 H 0.437674 0.28255 0.399114
H8_2 H 0.381874 0.282273 0.299801
H9_2 H 0.531328 0.0953375 0.345497
H10_2 H 0.544551 0.166701 0.424228
H11_2 H 0.761939 0.0463945 0.447046
H12_2 H 0.850186 0.083159 0.368812
H13_2 H 0.906323 0.158577 0.578844
H14_2 H 0.693474 0.15987 0.525493
H16_2 H 0.942298 0.257166 0.163424
O10_3 O 0.8451(6) 0.2915(3) 0.0312(3)
C11_3 C 0.3220(8) 0.3112(4) 0.0314(3)
C12_3 C 0.3090(8) 0.2138(4) 0.0464(3)
H13_3 H 0.406323 0.341423 0.0788435
H14_3 H 0.193474 0.34013 0.0254927
H20_3 H 0.587055 0.398385 0.0354723
Sc1_3 Sc 0.3980(1) 0.19607(7) 0.88832(6)
O2_3 O 0.5423(5) 0.0858(3) 0.8622(2)
O4_3 O 0.5229(5) 0.2982(3) 0.8353(2)
O5_2 O 0.6211(6) 0.3648(3) 0.7434(2)
O6_3 O 0.1967(5) 0.0943(3) 0.8619(2)
O8_3 O 0.3167(6) 0.1611(3) 0.9923(2)
O9_3 O 0.6401(5) 0.2085(3) 0.9658(2)
N1_3 N 0.3534(6) 0.1735(3) 0.7505(3)
N2_3 N 0.1336(6) 0.2961(3) 0.8431(3)
N3_3 N 0.3927(6) 0.3306(3) 0.9622(3)
C1_3 C 0.5413(7) 0.0416(4) 0.8013(3)
C2_3 C 0.3757(8) 0.0763(4) 0.7390(3)
C3_3 C 0.5474(7) 0.3026(4) 0.7691(3)
C4_3 C 0.4915(8) 0.2217(4) 0.7206(4)
C5_3 C 0.1807(8) 0.2063(4) 0.7172(4)
C6_3 C 0.1329(8) 0.2882(4) 0.7594(3)
C8_3 C 0.0418(7) 0.1110(4) 0.8454(3)
C9_3 C 0.1105(8) 0.3555(4) 0.8797(4)
C10_3 C 0.2836(8) 0.3962(4) 0.9136(3)
C13_3 C 0.5746(8) 0.3608(4) 0.9836(4)
C14_3 C 0.6967(8) 0.2882(4) 0.9947(3)
O15_2 O 0.9211(6) 0.0573(3) 0.8278(3)
H1_3 H 0.259183 0.0411092 0.746504
H2_3 H 0.400546 0.0643653 0.68275
H3_3 H 0.179634 0.223953 0.658981
H4_3 H 0.0860924 0.154281 0.719877
H5_3 H 0.00120999 0.304289 0.732863
H6_3 H 0.220026 0.340039 0.74718
H9_3 H 0.0313282 0.404663 0.845497
H10_3 H 0.0445514 0.333299 0.924228
H11_3 H 0.261939 0.453606 0.947046
H12_3 H 0.350186 0.416841 0.868812
H15_3 H 0.601835 0.17798 0.721181
H16_3 H 0.442298 0.242834 0.663424
H17_3 H 0.759932 0.062903 0.951174
H19_3 H 0.605416 0.403348 0.939383
O3_3 O 0.5865(6) 0.9709(3) 0.7915(2)
O12_3 O 0.7765(6) 0.9986(3) 0.9616(2)
O14_2 O 0.8789(6) 0.8648(3) 0.7566(2)
C7_3 C 0.9867(8) 0.2086(4) 0.8472(4)
H7_3 H 0.937674 0.21745 0.899114
H8_3 H 0.881874 0.217727 0.799801
Sc1_4 Sc 0.1020(1) 0.69607(7) 0.61168(6)
O6_4 O 0.3033(5) 0.5943(3) 0.6381(2)
O7_2 O 0.5789(6) 0.5573(3) 0.6722(3)
O8_4 O 0.1833(6) 0.6611(3) 0.5077(2)
N1_4 N 0.1466(6) 0.6735(3) 0.7495(3)
N2_4 N 0.3664(6) 0.7961(3) 0.6569(3)
N3_4 N 0.1073(6) 0.8306(3) 0.5378(3)
C2_4 C 0.1243(8) 0.5763(4) 0.7610(3)
C4_4 C 0.0085(8) 0.7217(4) 0.7794(4)
C5_4 C 0.3193(8) 0.7063(4) 0.7828(4)
C6_4 C 0.3671(8) 0.7882(4) 0.7406(3)
C7_4 C 0.5133(8) 0.7086(4) 0.6528(4)
C8_4 C 0.4582(7) 0.6110(4) 0.6546(3)
C9_4 C 0.3895(8) 0.8555(4) 0.6203(4)
C10_4 C 0.2164(8) 0.8962(4) 0.5864(3)
C11_4 C 0.1780(8) 0.8112(4) 0.4686(3)
C12_4 C 0.1910(8) 0.7138(4) 0.4536(3)
H1_4 H 0.240817 0.541109 0.753496
H2_4 H 0.0994544 0.564365 0.81725
H3_4 H 0.320366 0.723953 0.841019
H4_4 H 0.413908 0.654281 0.780123
H5_4 H 0.49879 0.804289 0.767137
H6_4 H 0.279974 0.840039 0.75282
H7_4 H 0.562326 0.71745 0.600886
H8_4 H 0.618126 0.717727 0.700199
H9_4 H 0.468672 0.904663 0.654503
H10_4 H 0.455449 0.833299 0.575772
H11_4 H 0.238061 0.953606 0.552954
H12_4 H 0.149814 0.916841 0.631188
H13_4 H 0.0936771 0.841423 0.421156
H14_4 H 0.306526 0.84013 0.474507
H16_4 H 0.0577019 0.742834 0.836576
O2_4 O 0.9577(5) 0.5858(3) 0.6378(2)
O3_4 O 0.9135(6) 0.4709(3) 0.7085(2)
O4_4 O 0.9771(5) 0.7982(3) 0.6647(2)
O9_4 O 0.8599(5) 0.7085(3) 0.5342(2)
O10_4 O 0.6549(6) 0.7915(3) 0.4688(3)
C1_4 C 0.9587(7) 0.5416(4) 0.6987(3)
C3_4 C 0.9526(7) 0.8026(4) 0.7309(3)
C13_4 C 0.9254(8) 0.8608(4) 0.5164(4)
C14_4 C 0.8033(8) 0.7882(4) 0.5053(3)
O11_2 O 0.4284(7) 0.3852(3) 0.5746(3)
O12_4 O 0.7235(6) 0.4986(3) 0.5384(2)
H15_4 H 0.898165 0.67798 0.778819
H17_4 H 0.740068 0.562903 0.548826
H18_2 H 0.625387 0.489908 0.49631
H19_4 H 0.894584 0.903348 0.560617
H20_4 H 0.912945 0.898385 0.464528
H21_2 H 0.409996 0.417595 0.526236
H22_2 H 0.330734 0.397352 0.601
H18_3 H 0.125387 0.0100922 0.99631
O11_3 O 0.9284(7) 0.1148(3) 0.0746(3)
H21_3 H 0.909996 0.0824047 0.0262362
H22_3 H 0.830734 0.102648 0.101
O11_4 O 0.0716(7) 0.8852(3) 0.9254(3)
H21_4 H 0.0900042 0.917595 0.973764
H22_4 H 0.169266 0.897352 0.899
H18_4 H 0.874613 0.989908 0.00368951
loop_
_geom_bond_atom_site_label_1
_geom_bond_atom_site_label_2
_geom_bond_site_symmetry_1
_geom_bond_site_symmetry_2
C7 H7 1_555 1_555
C7 H8 1_555 1_555
Mn2 O3 1_555 1_555
O12 Mn2 1_555 1_555
O13 Mn2 1_555 1_555
O14 Mn2 1_555 1_555
Sc1 O2 1_555 1_555
O2 C1 1_555 1_555
O4 Sc1 1_555 1_555
O5 C3 1_555 1_555
O6 Sc1 1_555 1_555
O8 Sc1 1_555 1_555
O9 Sc1 1_555 1_555
N1 Sc1 1_555 1_555
N2 C6 1_555 1_555
N3 Sc1 1_555 1_555
C1 C2 1_555 1_555
C2 N1 1_555 1_555
C3 O4 1_555 1_555
C4 N1 1_555 1_555
C5 N1 1_555 1_555
C6 C5 1_555 1_555
C8 O6 1_555 1_555
C9 N2 1_555 1_555
C10 N3 1_555 1_555
C13 N3 1_555 1_555
C14 O9 1_555 1_555
Mn3 O5 1_555 1_555
C3 C4 1_555 1_555
C9 C10 1_555 1_555
C13 C14 1_555 1_555
C2 H1 1_555 1_555
C2 H2 1_555 1_555
C5 H3 1_555 1_555
C5 H4 1_555 1_555
C6 H5 1_555 1_555
C6 H6 1_555 1_555
C9 H9 1_555 1_555
C9 H10 1_555 1_555
C10 H11 1_555 1_555
C10 H12 1_555 1_555
C4 H15 1_555 1_555
C4 H16 1_555 1_555
C13 H19 1_555 1_555
O1 C12 1_555 1_555
Mn4 O1 1_555 1_555
C11 C12 1_555 1_555
C11 H13 1_555 1_555
C11 H14 1_555 1_555
Mn3 O3_2 1_555 1_555
O2_2 C1_2 1_555 1_555
O3_2 C1_2 1_555 1_555
O14 C3_2 1_555 1_555
O10_2 C14_2 1_555 1_555
C3_2 O4_2 1_555 1_555
C14_2 O9_2 1_555 1_555
O11 Mn3 1_555 1_555
O12_2 Mn3 1_555 1_555
O13_2 Mn3 1_555 1_555
O15 Mn3 1_555 1_555
C13_2 C14_2 1_555 1_555
O12_2 H17_2 1_555 1_555
O12_2 H18 1_555 1_555
C13_2 H19_2 1_555 1_555
C13_2 H20_2 1_555 1_555
O11 H21 1_555 1_555
O11 H22 1_555 1_555
O1_2 C12_2 1_555 1_555
O6_2 Sc1_2 1_555 1_555
O15 C8_2 1_555 1_555
O8_2 Sc1_2 1_555 1_555
N1_2 Sc1_2 1_555 1_555
N2_2 C6_2 1_555 1_555
N3_2 Sc1_2 1_555 1_555
C2_2 N1_2 1_555 1_555
C4_2 N1_2 1_555 1_555
C5_2 N1_2 1_555 1_555
C6_2 C5_2 1_555 1_555
C7_2 N2_2 1_555 1_555
C8_2 O6_2 1_555 1_555
C9_2 N2_2 1_555 1_555
C10_2 N3_2 1_555 1_555
C11_2 N3_2 1_555 1_555
C12_2 O8_2 1_555 1_555
Mn4_2 O1_2 1_555 1_555
C7_2 C8_2 1_555 1_555
C9_2 C10_2 1_555 1_555
C11_2 C12_2 1_555 1_555
C2_2 H1_2 1_555 1_555
C2_2 H2_2 1_555 1_555
C5_2 H3_2 1_555 1_555
C5_2 H4_2 1_555 1_555
C6_2 H5_2 1_555 1_555
C6_2 H6_2 1_555 1_555
C7_2 H7_2 1_555 1_555
C7_2 H8_2 1_555 1_555
C9_2 H9_2 1_555 1_555
C9_2 H10_2 1_555 1_555
C10_2 H11_2 1_555 1_555
C10_2 H12_2 1_555 1_555
C11_2 H13_2 1_555 1_555
C11_2 H14_2 1_555 1_555
C4_2 H16_2 1_555 1_555
O13 C12_3 1_555 1_555
C11_3 C12_3 1_555 1_555
C11_3 H13_3 1_555 1_555
C11_3 H14_3 1_555 1_555
Sc1_3 O2_3 1_555 1_555
O2_3 C1_3 1_555 1_555
O4_3 Sc1_3 1_555 1_555
O5_2 C3_3 1_555 1_555
O6_3 Sc1_3 1_555 1_555
O8_3 Sc1_3 1_555 1_555
O9_3 Sc1_3 1_555 1_555
N1_3 Sc1_3 1_555 1_555
N2_3 C6_3 1_555 1_555
N3_3 Sc1_3 1_555 1_555
C1_3 C2_3 1_555 1_555
C2_3 N1_3 1_555 1_555
C3_3 O4_3 1_555 1_555
C4_3 N1_3 1_555 1_555
C5_3 N1_3 1_555 1_555
C6_3 C5_3 1_555 1_555
C8_3 O6_3 1_555 1_555
C9_3 N2_3 1_555 1_555
C10_3 N3_3 1_555 1_555
C13_3 N3_3 1_555 1_555
C14_3 O9_3 1_555 1_555
Mn4_2 O5_2 1_555 1_555
C3_3 C4_3 1_555 1_555
C9_3 C10_3 1_555 1_555
C13_3 C14_3 1_555 1_555
C2_3 H1_3 1_555 1_555
C2_3 H2_3 1_555 1_555
C5_3 H3_3 1_555 1_555
C5_3 H4_3 1_555 1_555
C6_3 H5_3 1_555 1_555
C6_3 H6_3 1_555 1_555
C9_3 H9_3 1_555 1_555
C9_3 H10_3 1_555 1_555
C10_3 H11_3 1_555 1_555
C10_3 H12_3 1_555 1_555
C4_3 H15_3 1_555 1_555
C4_3 H16_3 1_555 1_555
C13_3 H19_3 1_555 1_555
Mn4 O3_3 1_555 1_555
O12_3 Mn4 1_555 1_555
O14_2 Mn4 1_555 1_555
C7_3 H7_3 1_555 1_555
C7_3 H8_3 1_555 1_555
O13_2 C12_4 1_555 1_555
O6_4 Sc1_4 1_555 1_555
O7_2 C8_4 1_555 1_555
O8_4 Sc1_4 1_555 1_555
N1_4 Sc1_4 1_555 1_555
N2_4 C6_4 1_555 1_555
N3_4 Sc1_4 1_555 1_555
C2_4 N1_4 1_555 1_555
C4_4 N1_4 1_555 1_555
C5_4 N1_4 1_555 1_555
C6_4 C5_4 1_555 1_555
C7_4 N2_4 1_555 1_555
C8_4 O6_4 1_555 1_555
C9_4 N2_4 1_555 1_555
C10_4 N3_4 1_555 1_555
C11_4 N3_4 1_555 1_555
C12_4 O8_4 1_555 1_555
Mn4_2 O7_2 1_555 1_555
C7_4 C8_4 1_555 1_555
C9_4 C10_4 1_555 1_555
C11_4 C12_4 1_555 1_555
C2_4 H1_4 1_555 1_555
C2_4 H2_4 1_555 1_555
C5_4 H3_4 1_555 1_555
C5_4 H4_4 1_555 1_555
C6_4 H5_4 1_555 1_555
C6_4 H6_4 1_555 1_555
C7_4 H7_4 1_555 1_555
C7_4 H8_4 1_555 1_555
C9_4 H9_4 1_555 1_555
C9_4 H10_4 1_555 1_555
C10_4 H11_4 1_555 1_555
C10_4 H12_4 1_555 1_555
C11_4 H13_4 1_555 1_555
C11_4 H14_4 1_555 1_555
C4_4 H16_4 1_555 1_555
Mn4_2 O3_4 1_555 1_555
O2_4 C1_4 1_555 1_555
O3_4 C1_4 1_555 1_555
O14_2 C3_4 1_555 1_555
O10_4 C14_4 1_555 1_555
C3_4 O4_4 1_555 1_555
C14_4 O9_4 1_555 1_555
O11_2 Mn4_2 1_555 1_555
O12_4 Mn4_2 1_555 1_555
C13_4 C14_4 1_555 1_555
O12_4 H17_4 1_555 1_555
O12_4 H18_2 1_555 1_555
C13_4 H19_4 1_555 1_555
C13_4 H20_4 1_555 1_555
O11_2 H21_2 1_555 1_555
O11_2 H22_2 1_555 1_555
O11_3 H21_3 1_555 1_555
O11_3 H22_3 1_555 1_555
O11_4 H21_4 1_555 1_555
O11_4 H22_4 1_555 1_555

#END
