
###############################################################################
#
# This file contains modified crystal structure data generated from the
# MOF subset of the Cambridge Structural Database (CSD) v543 
# hosted by the Cambridge Crystallographic Data Centre (CCDC).
#
# This work is licensed under the Creative Commons
# Attribution-NonCommercial-ShareAlike 4.0 International License.
# To view a copy of this license, visit
# http://creativecommons.org/licenses/by-nc-sa/4.0/
# or send a letter to
# Creative Commons, PO Box 1866, Mountain View, CA 94042, USA.
#
# CIF created using the CSD Python API on 29 September 2022
# The structure has been converted into the P1 space group
# The structure has a 3D framework
# The original CSD entry UPOYEG01 is in the monoclinic crystal system
# The framework has been calculated to contain at least 10.0% void space
# The void calculation uses a probe of radius 1.32A, grid spacing 0.4
#
###############################################################################

data_UPOYEG01
_chemical_formula_moiety         '(C84 H44 Nd4 O26)n'
_symmetry_cell_setting           triclinic
_symmetry_space_group_name_H-M   'P 1'
_symmetry_Int_Tables_number      1
_space_group_name_Hall           'P 1'
loop_
_symmetry_equiv_pos_site_id
_symmetry_equiv_pos_as_xyz
1 x,y,z
_cell_length_a                   18.5114(3)
_cell_length_b                   13.7224(3)
_cell_length_c                   7.9638(2)
_cell_angle_alpha                90
_cell_angle_beta                 92.630(2)
_cell_angle_gamma                90
_cell_volume                     2020.84
loop_
_atom_site_label
_atom_site_type_symbol
_atom_site_fract_x
_atom_site_fract_y
_atom_site_fract_z
O12 O 0.6275(3) 0.0883(4) 0.0941(8)
O13 O 0.7723(4) 0.0179(4) 0.1556(10)
Nd4 Nd 0.68572(4) 0.01695(2) 0.39407(6)
O8 O 0.6476(3) 0.1053(5) 0.6627(8)
O11 O 0.7263(3) 0.1639(4) 0.8509(7)
O9 O 0.6476(3) 0.8947(5) 0.1627(8)
O10 O 0.7950(3) 0.8872(4) 0.0048(7)
Nd1 Nd 0.68572(4) 0.98305(2) 0.89407(6)
C1 C 0.5096(4) 0.3998(7) 0.4186(11)
O2 O 0.2950(3) 0.3872(4) 0.0048(7)
C2 C 0.6001(4) 0.7420(6) 0.5800(10)
O3 O 0.5512(3) 0.9488(5) 0.8874(8)
H1 H 0.527745 0.987067 0.814833
H2 H 0.532826 0.964491 0.983980
C3 C 0.5250(4) 0.5801(6) 0.4476(10)
C4 C 0.3806(4) 0.4276(6) 0.2285(10)
C5 C 0.6376(4) 0.8274(6) 0.6596(11)
O5 O 0.6275(3) 0.9117(4) 0.5941(8)
C6 C 0.4183(5) 0.5066(7) 0.2912(13)
H3 H 0.399914 0.568786 0.270467
O6 O 0.2723(4) 0.5179(4) 0.1556(10)
C7 C 0.7025(4) 0.3594(6) 0.7309(12)
H4 H 0.744431 0.350611 0.798215
C8 C 0.4084(4) 0.3331(6) 0.2519(10)
H5 H 0.384628 0.279820 0.202797
C9 C 0.6619(4) 0.2782(5) 0.6741(10)
C10 C 0.5882(4) 0.5671(6) 0.5513(10)
C11 C 0.6798(4) 0.4527(6) 0.6859(11)
H6 H 0.707400 0.505985 0.721853
C12 C 0.5401(4) 0.7557(6) 0.4669(10)
H7 H 0.525957 0.818096 0.433778
C13 C 0.5032(4) 0.6760(6) 0.4066(10)
H8 H 0.462210 0.685224 0.336335
C14 C 0.6232(4) 0.6497(6) 0.6197(10)
H9 H 0.663031 0.641512 0.693878
C15 C 0.6015(4) 0.2935(6) 0.5683(11)
H10 H 0.576177 0.239773 0.525523
C16 C 0.4710(4) 0.3202(6) 0.3479(11)
H11 H 0.488394 0.257387 0.366875
O7 O 0.6769(3) 0.8150(5) 0.7905(7)
C17 C 0.6156(4) 0.4682(6) 0.5864(12)
C18 C 0.4833(5) 0.4965(7) 0.3853(13)
C19 C 0.6813(4) 0.1779(6) 0.7314(10)
C20 C 0.5771(4) 0.3866(6) 0.5234(10)
C21 C 0.3117(4) 0.4442(6) 0.1236(10)
Nd6 Nd 0.18572(4) 0.51695(2) 0.39407(6)
O14 O 0.7723(4) 0.9821(4) 0.6556(10)
Nd5 Nd 0.18572(4) 0.48305(2) 0.89407(6)
C2_2 C 0.6001(4) 0.2580(6) 0.0800(10)
O3_2 O 0.5512(3) 0.0512(5) 0.3874(8)
H1_2 H 0.527745 0.012933 0.314833
H2_2 H 0.532826 0.035509 0.483980
O4 O 0.7263(3) 0.8361(4) 0.3509(7)
C5_2 C 0.6376(4) 0.1726(6) 0.1596(11)
C7_2 C 0.7025(4) 0.6406(6) 0.2309(12)
H4_2 H 0.744431 0.649389 0.298215
C9_2 C 0.6619(4) 0.7218(5) 0.1741(10)
C10_2 C 0.5882(4) 0.4329(6) 0.0513(10)
C11_2 C 0.6798(4) 0.5473(6) 0.1859(11)
H6_2 H 0.707400 0.494015 0.221853
C14_2 C 0.6232(4) 0.3503(6) 0.1197(10)
H9_2 H 0.663031 0.358488 0.193878
C15_2 C 0.6015(4) 0.7065(6) 0.0683(11)
H10_2 H 0.576177 0.760227 0.025523
O7_2 O 0.6769(3) 0.1850(5) 0.2905(7)
C17_2 C 0.6156(4) 0.5318(6) 0.0864(12)
C19_2 C 0.6813(4) 0.8221(6) 0.2314(10)
C20_2 C 0.5771(4) 0.6134(6) 0.0234(10)
O10_2 O 0.7950(3) 0.1128(4) 0.5048(7)
C1_2 C 0.5096(4) 0.6002(7) 0.9186(11)
O2_2 O 0.2950(3) 0.6128(4) 0.5048(7)
C3_2 C 0.5250(4) 0.4199(6) 0.9476(10)
C4_2 C 0.3806(4) 0.5724(6) 0.7285(10)
C6_2 C 0.4183(5) 0.4934(7) 0.7912(13)
H3_2 H 0.399914 0.431214 0.770467
O6_2 O 0.2723(4) 0.4821(4) 0.6556(10)
C8_2 C 0.4084(4) 0.6669(6) 0.7519(10)
H5_2 H 0.384628 0.720180 0.702797
C12_2 C 0.5401(4) 0.2443(6) 0.9669(10)
H7_2 H 0.525957 0.181904 0.933778
C13_2 C 0.5032(4) 0.3240(6) 0.9066(10)
H8_2 H 0.462210 0.314776 0.836335
C16_2 C 0.4710(4) 0.6798(6) 0.8479(11)
H11_2 H 0.488394 0.742613 0.866875
C18_2 C 0.4833(5) 0.5035(7) 0.8853(13)
C21_2 C 0.3117(4) 0.5558(6) 0.6236(10)
O9_2 O 0.1476(3) 0.3947(5) 0.1627(8)
O12_2 O 0.1275(3) 0.5883(4) 0.0941(8)
C2_3 C 0.1001(4) 0.2420(6) 0.5800(10)
O3_3 O 0.0512(3) 0.4488(5) 0.8874(8)
H1_3 H 0.027745 0.487067 0.814833
H2_3 H 0.032826 0.464491 0.983980
C3_3 C 0.0250(4) 0.0801(6) 0.4476(10)
C5_3 C 0.1376(4) 0.3274(6) 0.6596(11)
O5_2 O 0.1275(3) 0.4117(4) 0.5941(8)
C10_3 C 0.0882(4) 0.0671(6) 0.5513(10)
H6_3 H 0.207400 0.005985 0.721853
C12_3 C 0.0401(4) 0.2557(6) 0.4669(10)
H7_3 H 0.025957 0.318096 0.433778
C13_3 C 0.0032(4) 0.1760(6) 0.4066(10)
C14_3 C 0.1232(4) 0.1497(6) 0.6197(10)
H9_3 H 0.163031 0.141512 0.693878
O7_3 O 0.1769(3) 0.3150(5) 0.7905(7)
O8_2 O 0.1476(3) 0.6053(5) 0.6627(8)
O11_2 O 0.2263(3) 0.6639(4) 0.8509(7)
C1_3 C 0.0096(4) 0.8998(7) 0.4186(11)
C7_3 C 0.2025(4) 0.8594(6) 0.7309(12)
H4_3 H 0.244431 0.850611 0.798215
C9_3 C 0.1619(4) 0.7782(5) 0.6741(10)
C11_3 C 0.1798(4) 0.9527(6) 0.6859(11)
C15_3 C 0.1015(4) 0.7935(6) 0.5683(11)
H10_3 H 0.076177 0.739773 0.525523
C17_3 C 0.1156(4) 0.9682(6) 0.5864(12)
C19_3 C 0.1813(4) 0.6779(6) 0.7314(10)
C20_3 C 0.0771(4) 0.8866(6) 0.5234(10)
C6_3 C 0.9183(5) 0.0066(7) 0.2912(13)
H3_3 H 0.899914 0.068786 0.270467
H8_3 H 0.962210 0.185224 0.336335
C4_3 C 0.8806(4) 0.9276(6) 0.2285(10)
C8_3 C 0.9084(4) 0.8331(6) 0.2519(10)
H5_3 H 0.884628 0.779820 0.202797
C16_3 C 0.9710(4) 0.8202(6) 0.3479(11)
H11_3 H 0.988394 0.757387 0.366875
C18_3 C 0.9833(5) 0.9965(7) 0.3853(13)
C21_3 C 0.8117(4) 0.9442(6) 0.1236(10)
O4_2 O 0.2263(3) 0.3361(4) 0.3509(7)
C7_4 C 0.2025(4) 0.1406(6) 0.2309(12)
H4_4 H 0.244431 0.149389 0.298215
C9_4 C 0.1619(4) 0.2218(5) 0.1741(10)
C11_4 C 0.1798(4) 0.0473(6) 0.1859(11)
C15_4 C 0.1015(4) 0.2065(6) 0.0683(11)
H10_4 H 0.076177 0.260227 0.025523
C17_4 C 0.1156(4) 0.0318(6) 0.0864(12)
C19_4 C 0.1813(4) 0.3221(6) 0.2314(10)
C20_4 C 0.0771(4) 0.1134(6) 0.0234(10)
C1_4 C 0.0096(4) 0.1002(7) 0.9186(11)
C2_4 C 0.1001(4) 0.7580(6) 0.0800(10)
O3_4 O 0.0512(3) 0.5512(5) 0.3874(8)
H1_4 H 0.027745 0.512933 0.314833
H2_4 H 0.032826 0.535509 0.483980
C5_4 C 0.1376(4) 0.6726(6) 0.1596(11)
C10_4 C 0.0882(4) 0.9329(6) 0.0513(10)
H6_4 H 0.207400 0.994015 0.221853
C14_4 C 0.1232(4) 0.8503(6) 0.1197(10)
H9_4 H 0.163031 0.858488 0.193878
O7_4 O 0.1769(3) 0.6850(5) 0.2905(7)
C3_4 C 0.0250(4) 0.9199(6) 0.9476(10)
C12_4 C 0.0401(4) 0.7443(6) 0.9669(10)
H7_4 H 0.025957 0.681904 0.933778
C13_4 C 0.0032(4) 0.8240(6) 0.9066(10)
C4_4 C 0.8806(4) 0.0724(6) 0.7285(10)
C8_4 C 0.9084(4) 0.1669(6) 0.7519(10)
H5_4 H 0.884628 0.220180 0.702797
C16_4 C 0.9710(4) 0.1798(6) 0.8479(11)
H11_4 H 0.988394 0.242613 0.866875
C18_4 C 0.9833(5) 0.0035(7) 0.8853(13)
C21_4 C 0.8117(4) 0.0558(6) 0.6236(10)
C6_4 C 0.9183(5) 0.9934(7) 0.7912(13)
H3_4 H 0.899914 0.931214 0.770467
H8_4 H 0.962210 0.814776 0.836335
loop_
_geom_bond_atom_site_label_1
_geom_bond_atom_site_label_2
_geom_bond_site_symmetry_1
_geom_bond_site_symmetry_2
Nd4 O8 1_555 1_555
Nd1 O3 1_555 1_555
C1 C16 1_555 1_555
O8 C19 1_555 1_555
O2 C21 1_555 1_555
C2 C5 1_555 1_555
O3 H1 1_555 1_555
H2 O3 1_555 1_555
O11 C19 1_555 1_555
C3 C10 1_555 1_555
C4 C6 1_555 1_555
C5 O5 1_555 1_555
O5 Nd1 1_555 1_555
C6 H3 1_555 1_555
O6 C21 1_555 1_555
C7 H4 1_555 1_555
C8 C4 1_555 1_555
H5 C8 1_555 1_555
C9 C7 1_555 1_555
C10 C14 1_555 1_555
C11 C7 1_555 1_555
H6 C11 1_555 1_555
C12 C2 1_555 1_555
H7 C12 1_555 1_555
C13 C3 1_555 1_555
H8 C13 1_555 1_555
C14 C2 1_555 1_555
H9 C14 1_555 1_555
C15 C9 1_555 1_555
H10 C15 1_555 1_555
C16 C8 1_555 1_555
H11 C16 1_555 1_555
O7 Nd1 1_555 1_555
C17 C10 1_555 1_555
C18 C1 1_555 1_555
C19 C9 1_555 1_555
C20 C1 1_555 1_555
C21 C4 1_555 1_555
Nd6 O6 1_555 1_555
O14 Nd1 1_555 1_555
C3 C18 1_555 1_555
C5 O7 1_555 1_555
C6 C18 1_555 1_555
C11 C17 1_555 1_555
C12 C13 1_555 1_555
C15 C20 1_555 1_555
C17 C20 1_555 1_555
Nd4 O3_2 1_555 1_555
O9 C19_2 1_555 1_555
C2_2 C5_2 1_555 1_555
O3_2 H1_2 1_555 1_555
H2_2 O3_2 1_555 1_555
O4 C19_2 1_555 1_555
C5_2 O12 1_555 1_555
O12 Nd4 1_555 1_555
C7_2 H4_2 1_555 1_555
C9_2 C7_2 1_555 1_555
C10_2 C14_2 1_555 1_555
C11_2 C7_2 1_555 1_555
H6_2 C11_2 1_555 1_555
C14_2 C2_2 1_555 1_555
H9_2 C14_2 1_555 1_555
C15_2 C9_2 1_555 1_555
H10_2 C15_2 1_555 1_555
O7_2 Nd4 1_555 1_555
C17_2 C10_2 1_555 1_555
C19_2 C9_2 1_555 1_555
O10_2 Nd4 1_555 1_555
O13 Nd4 1_555 1_555
C5_2 O7_2 1_555 1_555
C11_2 C17_2 1_555 1_555
C15_2 C20_2 1_555 1_555
C17_2 C20_2 1_555 1_555
C1_2 C16_2 1_555 1_555
O2_2 C21_2 1_555 1_555
C4_2 C6_2 1_555 1_555
C6_2 H3_2 1_555 1_555
O6_2 C21_2 1_555 1_555
C8_2 C4_2 1_555 1_555
H5_2 C8_2 1_555 1_555
H7_2 C12_2 1_555 1_555
C13_2 C3_2 1_555 1_555
H8_2 C13_2 1_555 1_555
C16_2 C8_2 1_555 1_555
H11_2 C16_2 1_555 1_555
C18_2 C1_2 1_555 1_555
C21_2 C4_2 1_555 1_555
Nd6 O2_2 1_555 1_555
Nd5 O6_2 1_555 1_555
C3_2 C18_2 1_555 1_555
C6_2 C18_2 1_555 1_555
O6_2 Nd6 1_555 1_555
C12_2 C13_2 1_555 1_555
Nd5 O3_3 1_555 1_555
C2_3 C5_3 1_555 1_555
O3_3 H1_3 1_555 1_555
H2_3 O3_3 1_555 1_555
C3_3 C10_3 1_555 1_555
C5_3 O5_2 1_555 1_555
O5_2 Nd5 1_555 1_555
C10_3 C14_3 1_555 1_555
C12_3 C2_3 1_555 1_555
H7_3 C12_3 1_555 1_555
C13_3 C3_3 1_555 1_555
C14_3 C2_3 1_555 1_555
H9_3 C14_3 1_555 1_555
O7_3 Nd5 1_555 1_555
Nd6 O5_2 1_555 1_555
O8_2 Nd5 1_555 1_555
O11_2 Nd5 1_555 1_555
C5_3 O7_3 1_555 1_555
C12_3 C13_3 1_555 1_555
Nd6 O8_2 1_555 1_555
O8_2 C19_3 1_555 1_555
O11_2 C19_3 1_555 1_555
C7_3 H4_3 1_555 1_555
C9_3 C7_3 1_555 1_555
C11_3 C7_3 1_555 1_555
C15_3 C9_3 1_555 1_555
H10_3 C15_3 1_555 1_555
C19_3 C9_3 1_555 1_555
C20_3 C1_3 1_555 1_555
C11_3 C17_3 1_555 1_555
C15_3 C20_3 1_555 1_555
C17_3 C20_3 1_555 1_555
C6_3 H3_3 1_555 1_555
O10 C21_3 1_555 1_555
C8_3 C4_3 1_555 1_555
H5_3 C8_3 1_555 1_555
C16_3 C8_3 1_555 1_555
H11_3 C16_3 1_555 1_555
C21_3 C4_3 1_555 1_555
O9_2 C19_4 1_555 1_555
O4_2 C19_4 1_555 1_555
C7_4 H4_4 1_555 1_555
C9_4 C7_4 1_555 1_555
C11_4 C7_4 1_555 1_555
C15_4 C9_4 1_555 1_555
H10_4 C15_4 1_555 1_555
C19_4 C9_4 1_555 1_555
Nd6 O9_2 1_555 1_555
O4_2 Nd6 1_555 1_555
C11_4 C17_4 1_555 1_555
C15_4 C20_4 1_555 1_555
C17_4 C20_4 1_555 1_555
Nd6 O3_4 1_555 1_555
C2_4 C5_4 1_555 1_555
O3_4 H1_4 1_555 1_555
H2_4 O3_4 1_555 1_555
C5_4 O12_2 1_555 1_555
O12_2 Nd6 1_555 1_555
C10_4 C14_4 1_555 1_555
C14_4 C2_4 1_555 1_555
H9_4 C14_4 1_555 1_555
O7_4 Nd6 1_555 1_555
C5_4 O7_4 1_555 1_555
H7_4 C12_4 1_555 1_555
C13_4 C3_4 1_555 1_555
C12_4 C13_4 1_555 1_555
O10_2 C21_4 1_555 1_555
C8_4 C4_4 1_555 1_555
H5_4 C8_4 1_555 1_555
C16_4 C8_4 1_555 1_555
H11_4 C16_4 1_555 1_555
C21_4 C4_4 1_555 1_555
C6_4 H3_4 1_555 1_555

#END
