
###############################################################################
#
# This file contains modified crystal structure data generated from the
# MOF subset of the Cambridge Structural Database (CSD) v543 
# hosted by the Cambridge Crystallographic Data Centre (CCDC).
#
# This work is licensed under the Creative Commons
# Attribution-NonCommercial-ShareAlike 4.0 International License.
# To view a copy of this license, visit
# http://creativecommons.org/licenses/by-nc-sa/4.0/
# or send a letter to
# Creative Commons, PO Box 1866, Mountain View, CA 94042, USA.
#
# CIF created using the CSD Python API on 29 September 2022
# The structure has been converted into the P1 space group
# The structure has a 3D framework
# The original CSD entry UPOYEG is in the monoclinic crystal system
# The framework has been calculated to contain at least 10.0% void space
# The void calculation uses a probe of radius 1.32A, grid spacing 0.4
#
###############################################################################

data_UPOYEG
_chemical_formula_moiety         '(C84 H44 Nd4 O26)n'
_symmetry_cell_setting           triclinic
_symmetry_space_group_name_H-M   'P 1'
_symmetry_Int_Tables_number      1
_space_group_name_Hall           'P 1'
loop_
_symmetry_equiv_pos_site_id
_symmetry_equiv_pos_as_xyz
1 x,y,z
_cell_length_a                   18.4943(11)
_cell_length_b                   13.7151(7)
_cell_length_c                   7.9691(5)
_cell_angle_alpha                90
_cell_angle_beta                 92.629(6)
_cell_angle_gamma                90
_cell_volume                     2019.24
loop_
_atom_site_label
_atom_site_type_symbol
_atom_site_fract_x
_atom_site_fract_y
_atom_site_fract_z
Nd2 Nd 0.33223(8) 0.01696(4) 0.53840(10)
Nd6 Nd 0.83223(8) 0.48304(4) 0.03840(10)
C1 C 0.5084(10) 0.4010(13) 0.511(2)
O1 O 0.3412(6) 0.8149(7) 0.1425(14)
C2 C 0.7057(9) 0.4442(12) 0.811(2)
C3 C 0.5340(10) 0.4958(11) 0.547(2)
C4 C 0.3796(8) 0.8269(11) 0.275(2)
C5 C 0.4773(9) 0.7555(11) 0.467(2)
H1 H 0.491378 0.817586 0.502237
O2 O 0.2921(6) 0.1643(7) 0.0811(15)
C6 C 0.4159(9) 0.2926(11) 0.363(2)
H2 H 0.441167 0.238847 0.406725
C7 C 0.6097(10) 0.3326(12) 0.681(3)
H3 H 0.632511 0.278920 0.731229
C8 C 0.5143(9) 0.6758(11) 0.523(2)
H4 H 0.555746 0.684504 0.592393
C9 C 0.4292(9) 0.5666(11) 0.384(2)
C10 C 0.6385(9) 0.4287(11) 0.706(2)
O3 O 0.3706(6) 0.1048(8) 0.2707(14)
C11 C 0.4409(9) 0.3876(11) 0.407(2)
C12 C 0.3940(9) 0.6491(11) 0.314(2)
H5 H 0.354090 0.640690 0.240553
C13 C 0.4019(9) 0.4685(11) 0.346(2)
C14 C 0.3383(9) 0.4509(12) 0.247(2)
H6 H 0.310752 0.503873 0.209784
C15 C 0.3361(9) 0.1770(11) 0.199(2)
C16 C 0.5480(9) 0.3215(12) 0.583(2)
H7 H 0.531007 0.258717 0.561368
C17 C 0.3151(10) 0.3593(11) 0.205(2)
H8 H 0.272607 0.350979 0.139760
C18 C 0.4921(9) 0.5796(11) 0.481(2)
C19 C 0.4174(9) 0.7428(11) 0.354(2)
O4 O 0.3910(6) 0.9111(8) 0.3331(16)
C20 C 0.3556(10) 0.2777(11) 0.260(2)
O5 O 0.7230(6) 0.3874(8) 0.9282(15)
O6 O 0.4671(6) 0.0516(9) 0.5467(17)
H9 H 0.487997 0.030178 0.452905
H10 H 0.491126 0.017026 0.628546
C21 C 0.6003(10) 0.5069(12) 0.639(2)
H11 H 0.619094 0.569246 0.654661
O7 O 0.7479(6) 0.5178(7) 0.7722(16)
Nd4 Nd 0.33223(8) 0.98304(4) 0.03840(10)
Nd5 Nd 0.83223(8) 0.51696(4) 0.53840(10)
O8 O 0.3412(6) 0.1851(7) 0.6425(14)
O12 O 0.3910(6) 0.0889(8) 0.8331(16)
O13 O 0.2230(6) 0.1126(8) 0.4282(15)
O14 O 0.2479(6) 0.0178(7) 0.7722(16)
O9 O 0.2921(6) 0.8357(7) 0.5811(15)
O10 O 0.3706(6) 0.8952(8) 0.7707(14)
O15 O 0.2479(6) 0.9822(7) 0.2722(16)
C1_2 C 0.5084(10) 0.5990(13) 0.011(2)
C2_2 C 0.7057(9) 0.5558(12) 0.311(2)
C3_2 C 0.5340(10) 0.5042(11) 0.047(2)
H1_2 H 0.491378 0.182414 0.002237
C7_2 C 0.6097(10) 0.6674(12) 0.181(3)
H3_2 H 0.632511 0.721080 0.231229
C8_2 C 0.5143(9) 0.3242(11) 0.023(2)
H4_2 H 0.555746 0.315496 0.092393
C10_2 C 0.6385(9) 0.5713(11) 0.206(2)
C16_2 C 0.5480(9) 0.6785(12) 0.083(2)
H7_2 H 0.531007 0.741283 0.061368
O5_2 O 0.7230(6) 0.6126(8) 0.4282(15)
O6_2 O 0.4671(6) 0.9484(9) 0.0467(17)
H10_2 H 0.491126 0.982974 0.128546
C21_2 C 0.6003(10) 0.4931(12) 0.139(2)
H11_2 H 0.619094 0.430754 0.154661
O7_2 O 0.7479(6) 0.4822(7) 0.2722(16)
C4_2 C 0.3796(8) 0.1731(11) 0.775(2)
C5_2 C 0.4773(9) 0.2445(11) 0.967(2)
C6_2 C 0.4159(9) 0.7074(11) 0.863(2)
H2_2 H 0.441167 0.761153 0.906725
C9_2 C 0.4292(9) 0.4334(11) 0.884(2)
C11_2 C 0.4409(9) 0.6124(11) 0.907(2)
C12_2 C 0.3940(9) 0.3509(11) 0.814(2)
H5_2 H 0.354090 0.359310 0.740553
C13_2 C 0.4019(9) 0.5315(11) 0.846(2)
C14_2 C 0.3383(9) 0.5491(12) 0.747(2)
H6_2 H 0.310752 0.496127 0.709784
C15_2 C 0.3361(9) 0.8230(11) 0.699(2)
C17_2 C 0.3151(10) 0.6407(11) 0.705(2)
H8_2 H 0.272607 0.649021 0.639760
C18_2 C 0.4921(9) 0.4204(11) 0.981(2)
C19_2 C 0.4174(9) 0.2572(11) 0.854(2)
C20_2 C 0.3556(10) 0.7223(11) 0.760(2)
H9_2 H 0.487997 0.969822 0.952905
O13_2 O 0.2230(6) 0.8874(8) 0.9282(15)
C8_3 C 0.0143(9) 0.1758(11) 0.523(2)
H4_3 H 0.055746 0.184504 0.592393
C21_3 C 0.1003(10) 0.0069(12) 0.639(2)
H11_3 H 0.119094 0.069246 0.654661
C1_3 C 0.0084(10) 0.9010(13) 0.511(2)
C2_3 C 0.2057(9) 0.9442(12) 0.811(2)
C3_3 C 0.0340(10) 0.9958(11) 0.547(2)
C7_3 C 0.1097(10) 0.8326(12) 0.681(3)
H3_3 H 0.132511 0.778920 0.731229
C10_3 C 0.1385(9) 0.9287(11) 0.706(2)
C16_3 C 0.0480(9) 0.8215(12) 0.583(2)
H7_3 H 0.031007 0.758717 0.561368
O1_2 O 0.8412(6) 0.3149(7) 0.1425(14)
C4_3 C 0.8796(8) 0.3269(11) 0.275(2)
C5_3 C 0.9773(9) 0.2555(11) 0.467(2)
H1_3 H 0.991378 0.317586 0.502237
C9_3 C 0.9292(9) 0.0666(11) 0.384(2)
C12_3 C 0.8940(9) 0.1491(11) 0.314(2)
H5_3 H 0.854090 0.140690 0.240553
H6_3 H 0.810752 0.003873 0.209784
C18_3 C 0.9921(9) 0.0796(11) 0.481(2)
C19_3 C 0.9174(9) 0.2428(11) 0.354(2)
O4_2 O 0.8910(6) 0.4111(8) 0.3331(16)
O2_2 O 0.7921(6) 0.6643(7) 0.0811(15)
C6_3 C 0.9159(9) 0.7926(11) 0.363(2)
H2_3 H 0.941167 0.738847 0.406725
O3_2 O 0.8706(6) 0.6048(8) 0.2707(14)
C11_3 C 0.9409(9) 0.8876(11) 0.407(2)
C13_3 C 0.9019(9) 0.9685(11) 0.346(2)
C14_3 C 0.8383(9) 0.9509(12) 0.247(2)
C15_3 C 0.8361(9) 0.6770(11) 0.199(2)
C17_3 C 0.8151(10) 0.8593(11) 0.205(2)
H8_3 H 0.772607 0.850979 0.139760
C20_3 C 0.8556(10) 0.7777(11) 0.260(2)
O6_3 O 0.9671(6) 0.5516(9) 0.5467(17)
H9_3 H 0.987997 0.530178 0.452905
H10_3 H 0.991126 0.517026 0.628546
O8_2 O 0.8412(6) 0.6851(7) 0.6425(14)
O9_2 O 0.7921(6) 0.3357(7) 0.5811(15)
O10_2 O 0.8706(6) 0.3952(8) 0.7707(14)
O12_2 O 0.8910(6) 0.5889(8) 0.8331(16)
C1_4 C 0.0084(10) 0.0990(13) 0.011(2)
C2_4 C 0.2057(9) 0.0558(12) 0.311(2)
C3_4 C 0.0340(10) 0.0042(11) 0.047(2)
C7_4 C 0.1097(10) 0.1674(12) 0.181(3)
H3_4 H 0.132511 0.221080 0.231229
C10_4 C 0.1385(9) 0.0713(11) 0.206(2)
C16_4 C 0.0480(9) 0.1785(12) 0.083(2)
H7_4 H 0.031007 0.241283 0.061368
C8_4 C 0.0143(9) 0.8242(11) 0.023(2)
H4_4 H 0.055746 0.815496 0.092393
C21_4 C 0.1003(10) 0.9931(12) 0.139(2)
H11_4 H 0.119094 0.930754 0.154661
O6_4 O 0.9671(6) 0.4484(9) 0.0467(17)
H10_4 H 0.991126 0.482974 0.128546
C6_4 C 0.9159(9) 0.2074(11) 0.863(2)
H2_4 H 0.941167 0.261153 0.906725
C11_4 C 0.9409(9) 0.1124(11) 0.907(2)
C13_4 C 0.9019(9) 0.0315(11) 0.846(2)
C14_4 C 0.8383(9) 0.0491(12) 0.747(2)
C15_4 C 0.8361(9) 0.3230(11) 0.699(2)
C17_4 C 0.8151(10) 0.1407(11) 0.705(2)
H8_4 H 0.772607 0.149021 0.639760
C20_4 C 0.8556(10) 0.2223(11) 0.760(2)
H9_4 H 0.987997 0.469822 0.952905
H1_4 H 0.991378 0.682414 0.002237
C4_4 C 0.8796(8) 0.6731(11) 0.775(2)
C5_4 C 0.9773(9) 0.7445(11) 0.967(2)
C9_4 C 0.9292(9) 0.9334(11) 0.884(2)
C12_4 C 0.8940(9) 0.8509(11) 0.814(2)
H5_4 H 0.854090 0.859310 0.740553
H6_4 H 0.810752 0.996127 0.709784
C18_4 C 0.9921(9) 0.9204(11) 0.981(2)
C19_4 C 0.9174(9) 0.7572(11) 0.854(2)
loop_
_geom_bond_atom_site_label_1
_geom_bond_atom_site_label_2
_geom_bond_site_symmetry_1
_geom_bond_site_symmetry_2
Nd2 O3 1_555 1_555
C1 C3 1_555 1_555
O1 C4 1_555 1_555
C2 C10 1_555 1_555
C3 C18 1_555 1_555
C4 C19 1_555 1_555
C5 H1 1_555 1_555
O2 C15 1_555 1_555
C6 H2 1_555 1_555
C7 H3 1_555 1_555
C8 C5 1_555 1_555
H4 C8 1_555 1_555
C9 C12 1_555 1_555
C10 C7 1_555 1_555
O3 C15 1_555 1_555
C11 C1 1_555 1_555
C12 H5 1_555 1_555
C13 C9 1_555 1_555
C14 C13 1_555 1_555
H6 C14 1_555 1_555
C15 C20 1_555 1_555
C16 C1 1_555 1_555
H7 C16 1_555 1_555
C17 C14 1_555 1_555
H8 C17 1_555 1_555
C18 C8 1_555 1_555
C19 C5 1_555 1_555
O4 C4 1_555 1_555
C20 C6 1_555 1_555
O5 C2 1_555 1_555
O6 Nd2 1_555 1_555
H9 O6 1_555 1_555
H10 O6 1_555 1_555
C21 C3 1_555 1_555
H11 C21 1_555 1_555
O7 C2 1_555 1_555
Nd4 O1 1_555 1_555
Nd5 O7 1_555 1_555
O8 Nd2 1_555 1_555
O12 Nd2 1_555 1_555
O13 Nd2 1_555 1_555
O14 Nd2 1_555 1_555
C6 C11 1_555 1_555
C7 C16 1_555 1_555
C9 C18 1_555 1_555
C10 C21 1_555 1_555
C11 C13 1_555 1_555
C12 C19 1_555 1_555
C17 C20 1_555 1_555
O4 Nd4 1_555 1_555
Nd4 O15 1_555 1_555
C1_2 C3_2 1_555 1_555
C2_2 C10_2 1_555 1_555
C7_2 H3_2 1_555 1_555
H4_2 C8_2 1_555 1_555
C10_2 C7_2 1_555 1_555
C16_2 C1_2 1_555 1_555
H7_2 C16_2 1_555 1_555
O5_2 C2_2 1_555 1_555
O6_2 Nd4 1_555 1_555
H10_2 O6_2 1_555 1_555
C21_2 C3_2 1_555 1_555
H11_2 C21_2 1_555 1_555
O7_2 C2_2 1_555 1_555
Nd6 O7_2 1_555 1_555
Nd5 O5_2 1_555 1_555
C7_2 C16_2 1_555 1_555
C10_2 C21_2 1_555 1_555
O7_2 Nd5 1_555 1_555
O8 C4_2 1_555 1_555
C4_2 C19_2 1_555 1_555
O9 C15_2 1_555 1_555
C6_2 H2_2 1_555 1_555
C9_2 C12_2 1_555 1_555
O10 C15_2 1_555 1_555
C12_2 H5_2 1_555 1_555
C13_2 C9_2 1_555 1_555
C14_2 C13_2 1_555 1_555
H6_2 C14_2 1_555 1_555
C15_2 C20_2 1_555 1_555
C17_2 C14_2 1_555 1_555
H8_2 C17_2 1_555 1_555
C19_2 C5_2 1_555 1_555
O12 C4_2 1_555 1_555
C20_2 C6_2 1_555 1_555
C6_2 C11_2 1_555 1_555
C9_2 C18_2 1_555 1_555
C11_2 C13_2 1_555 1_555
C12_2 C19_2 1_555 1_555
C17_2 C20_2 1_555 1_555
H4_3 C8_3 1_555 1_555
H11_3 C21_3 1_555 1_555
C1_3 C3_3 1_555 1_555
C2_3 C10_3 1_555 1_555
C7_3 H3_3 1_555 1_555
C10_3 C7_3 1_555 1_555
C16_3 C1_3 1_555 1_555
H7_3 C16_3 1_555 1_555
O13_2 C2_3 1_555 1_555
C7_3 C16_3 1_555 1_555
O1_2 C4_3 1_555 1_555
C4_3 C19_3 1_555 1_555
C5_3 H1_3 1_555 1_555
C9_3 C12_3 1_555 1_555
C12_3 H5_3 1_555 1_555
C19_3 C5_3 1_555 1_555
O4_2 C4_3 1_555 1_555
Nd5 O4_2 1_555 1_555
Nd6 O1_2 1_555 1_555
C9_3 C18_3 1_555 1_555
C12_3 C19_3 1_555 1_555
O4_2 Nd6 1_555 1_555
Nd5 O3_2 1_555 1_555
O2_2 C15_3 1_555 1_555
C6_3 H2_3 1_555 1_555
O3_2 C15_3 1_555 1_555
C14_3 C13_3 1_555 1_555
C15_3 C20_3 1_555 1_555
C17_3 C14_3 1_555 1_555
H8_3 C17_3 1_555 1_555
C20_3 C6_3 1_555 1_555
O6_3 Nd5 1_555 1_555
H9_3 O6_3 1_555 1_555
H10_3 O6_3 1_555 1_555
Nd6 O2_2 1_555 1_555
O8_2 Nd5 1_555 1_555
O9_2 Nd5 1_555 1_555
O10_2 Nd5 1_555 1_555
O12_2 Nd5 1_555 1_555
C6_3 C11_3 1_555 1_555
O3_2 Nd6 1_555 1_555
C11_3 C13_3 1_555 1_555
C17_3 C20_3 1_555 1_555
C1_4 C3_4 1_555 1_555
C2_4 C10_4 1_555 1_555
C7_4 H3_4 1_555 1_555
C10_4 C7_4 1_555 1_555
C16_4 C1_4 1_555 1_555
H7_4 C16_4 1_555 1_555
O13 C2_4 1_555 1_555
C7_4 C16_4 1_555 1_555
H4_4 C8_4 1_555 1_555
H11_4 C21_4 1_555 1_555
O6_4 Nd6 1_555 1_555
H10_4 O6_4 1_555 1_555
O9_2 C15_4 1_555 1_555
C6_4 H2_4 1_555 1_555
O10_2 C15_4 1_555 1_555
C14_4 C13_4 1_555 1_555
C15_4 C20_4 1_555 1_555
C17_4 C14_4 1_555 1_555
H8_4 C17_4 1_555 1_555
C20_4 C6_4 1_555 1_555
C6_4 C11_4 1_555 1_555
C11_4 C13_4 1_555 1_555
C17_4 C20_4 1_555 1_555
O8_2 C4_4 1_555 1_555
C4_4 C19_4 1_555 1_555
C9_4 C12_4 1_555 1_555
C12_4 H5_4 1_555 1_555
C19_4 C5_4 1_555 1_555
O12_2 C4_4 1_555 1_555
C9_4 C18_4 1_555 1_555
C12_4 C19_4 1_555 1_555

#END
