
###############################################################################
#
# This file contains modified crystal structure data generated from the
# MOF subset of the Cambridge Structural Database (CSD) v543 
# hosted by the Cambridge Crystallographic Data Centre (CCDC).
#
# This work is licensed under the Creative Commons
# Attribution-NonCommercial-ShareAlike 4.0 International License.
# To view a copy of this license, visit
# http://creativecommons.org/licenses/by-nc-sa/4.0/
# or send a letter to
# Creative Commons, PO Box 1866, Mountain View, CA 94042, USA.
#
# CIF created using the CSD Python API on 29 September 2022
# The structure has been converted into the P1 space group
# The structure has a 3D framework
# The original CSD entry UQAXAN is in the monoclinic crystal system
# The framework has been calculated to contain at least 10.0% void space
# The void calculation uses a probe of radius 1.32A, grid spacing 0.4
#
###############################################################################

data_UQAXAN
_chemical_formula_moiety         '(C48 H56 Gd8 O60)n'
_symmetry_cell_setting           triclinic
_symmetry_space_group_name_H-M   'P 1'
_symmetry_Int_Tables_number      1
_space_group_name_Hall           'P 1'
loop_
_symmetry_equiv_pos_site_id
_symmetry_equiv_pos_as_xyz
1 x,y,z
_cell_length_a                   9.4772(4)
_cell_length_b                   14.5678(5)
_cell_length_c                   14.8412(5)
_cell_angle_alpha                90
_cell_angle_beta                 91.1000(10)
_cell_angle_gamma                90
_cell_volume                     2048.63
loop_
_atom_site_label
_atom_site_type_symbol
_atom_site_fract_x
_atom_site_fract_y
_atom_site_fract_z
Gd1 Gd 0.026368(11) 0.336197(7) 0.243985(7)
O3 O 0.03302(17) 0.42707(11) 0.10572(11)
H1 H 0.1255 0.4250 0.0848
H2 H 0.0020 0.4880 0.1143
O5 O 0.01575(19) 0.22010(12) 0.12958(11)
H3 H 0.0294 0.1585 0.1441
H4 H 0.0341 0.2367 0.0702
O7 O 0.03874(17) 0.18512(11) 0.31379(11)
O8 O 0.09331(19) 0.34695(12) 0.40477(11)
O9 O 0.05929(18) 0.10671(12) 0.43969(11)
C5 C 0.0129(3) 0.33790(16) 0.47161(16)
C6 C 0.0413(3) 0.39875(16) 0.55089(16)
H11 H 0.1290 0.4301 0.5555
O13 O 0.08034(18) 0.52457(12) 0.69585(11)
C9 C 0.1158(2) 0.14660(15) 0.37388(15)
C10 C 0.3586(2) 0.17062(17) 0.43276(16)
H13 H 0.3222 0.1860 0.4900
C11 C 0.2710(2) 0.14834(16) 0.36531(16)
H14 H 0.3099 0.1328 0.3088
O15 O 0.56747(17) 0.11252(12) 0.36673(11)
O16 O 0.59060(17) 0.23030(11) 0.45881(11)
C12 C 0.5135(2) 0.17161(16) 0.41896(15)
O17 O 0.26459(18) 0.31892(12) 0.20675(11)
Gd5 Gd 0.812162(11) 0.154076(7) 0.405300(7)
O20 O 0.14747(19) 0.48636(12) 0.27902(11)
O1 O 0.78955(17) 0.35286(11) 0.17311(11)
O4 O 0.29580(17) 0.37136(12) 0.06659(11)
C1 C 0.7199(2) 0.31498(16) 0.23426(15)
C2 C 0.5633(3) 0.31507(16) 0.22950(16)
H5 H 0.5107 0.3044 0.2823
C3 C 0.4970(2) 0.33008(16) 0.15130(16)
H6 H 0.5521 0.3352 0.0988
C4 C 0.3408(2) 0.33935(15) 0.14128(16)
O6 O 0.78403(17) 0.27864(11) 0.30143(11)
O10 O 0.90909(18) 0.28454(12) 0.47493(11)
O12 O 0.81315(19) 0.07333(12) 0.26328(11)
H9 H 0.8872 0.0599 0.2388
H10 H 0.7518 0.0477 0.2432
C7 C 0.9616(3) 0.48509(16) 0.68273(16)
C8 C 0.9472(3) 0.41034(17) 0.61526(16)
H12 H 0.8688 0.3698 0.6181
O14 O 0.85253(19) 0.51364(12) 0.72098(11)
Gd4 Gd 0.973632(11) 0.663803(7) 0.756015(7)
O18 O 0.79580(17) 0.12864(12) 0.56659(11)
O19 O 0.91966(18) 0.47543(12) 0.30415(11)
Gd6 Gd 0.312162(11) 0.345924(7) 0.905300(7)
O2 O 0.23541(18) 0.81892(12) 0.29325(11)
O4_2 O 0.20420(17) 0.87136(12) 0.43341(11)
C3_2 C 0.0030(2) 0.83008(16) 0.34870(16)
C4_2 C 0.1592(2) 0.83935(15) 0.35872(16)
Gd3 Gd 0.473632(11) 0.836197(7) 0.256015(7)
Gd6_2 Gd 0.187838(11) 0.845924(7) 0.594700(7)
O13_2 O 0.41966(18) 0.02457(12) 0.80415(11)
O14_2 O 0.64747(19) 0.01364(12) 0.77902(11)
Gd4_2 Gd 0.526368(11) 0.163803(7) 0.743985(7)
O1_2 O 0.71045(17) 0.85286(11) 0.32689(11)
O3_2 O 0.46698(17) 0.92707(11) 0.39428(11)
H1_2 H 0.3745 0.9250 0.4152
H2_2 H 0.4980 0.9880 0.3857
O5_2 O 0.48425(19) 0.72010(12) 0.37042(11)
H3_2 H 0.4706 0.6585 0.3559
H4_2 H 0.4659 0.7367 0.4298
C1_2 C 0.7801(2) 0.81498(16) 0.26574(15)
C2_2 C 0.9367(3) 0.81507(16) 0.27050(16)
H5_2 H 0.9893 0.8044 0.2177
H6_2 H 0.9479 0.8352 0.4012
O6_2 O 0.71597(17) 0.77864(11) 0.19857(11)
O7_2 O 0.46126(17) 0.68512(11) 0.18621(11)
O8_2 O 0.40669(19) 0.84695(12) 0.09523(11)
Gd2 Gd 0.687838(11) 0.654076(7) 0.094700(7)
O9_2 O 0.44071(18) 0.60671(12) 0.06031(11)
O10_2 O 0.59091(18) 0.78454(12) 0.02507(11)
O11 O 0.71317(19) 0.49559(11) 0.06002(11)
H7 H 0.7467 0.4528 0.1025
H8 H 0.6616 0.4673 0.0127
O12_2 O 0.68685(19) 0.57333(12) 0.23672(11)
H9_2 H 0.6128 0.5599 0.2612
H10_2 H 0.7482 0.5477 0.2568
C5_2 C 0.4871(3) 0.83790(16) 0.02839(16)
C9_2 C 0.3842(2) 0.64660(15) 0.12612(15)
C10_2 C 0.1414(2) 0.67062(17) 0.06724(16)
H13_2 H 0.1778 0.6860 0.0100
C11_2 C 0.2290(2) 0.64834(16) 0.13469(16)
H14_2 H 0.1901 0.6328 0.1912
O19_2 O 0.58034(18) 0.97543(12) 0.19585(11)
O20_2 O 0.35253(19) 0.98636(12) 0.22098(11)
O21 O 0.93253(17) 0.61252(12) 0.13327(11)
O22 O 0.90940(17) 0.73030(11) 0.04119(11)
C6_2 C 0.4587(3) 0.89875(16) 0.94911(16)
H11_2 H 0.3710 0.9301 0.9445
C7_2 C 0.5384(3) 0.98509(16) 0.81727(16)
C8_2 C 0.5528(3) 0.91034(17) 0.88474(16)
H12_2 H 0.6312 0.8698 0.8819
O18_2 O 0.70420(17) 0.62864(12) 0.93341(11)
C12_2 C 0.9865(2) 0.67161(16) 0.08104(15)
O1_3 O 0.21045(17) 0.64714(11) 0.82689(11)
O2_2 O 0.73541(18) 0.68108(12) 0.79325(11)
C1_3 C 0.2801(2) 0.68502(16) 0.76574(15)
C2_3 C 0.4367(3) 0.68493(16) 0.77050(16)
H5_3 H 0.4893 0.6956 0.7177
C3_3 C 0.5030(2) 0.66992(16) 0.84870(16)
H6_3 H 0.4479 0.6648 0.9012
C4_3 C 0.6592(2) 0.66065(15) 0.85872(16)
O6_3 O 0.21597(17) 0.72136(11) 0.69857(11)
O10_3 O 0.09091(18) 0.71546(12) 0.52507(11)
O12_3 O 0.18685(19) 0.92667(12) 0.73672(11)
H9_3 H 0.1128 0.9401 0.7612
H10_3 H 0.2482 0.9523 0.7568
C7_3 C 0.0384(3) 0.51491(16) 0.31727(16)
C8_3 C 0.0528(3) 0.58966(17) 0.38474(16)
H12_3 H 0.1312 0.6302 0.3819
O21_2 O 0.43253(17) 0.88748(12) 0.63327(11)
O22_2 O 0.40940(17) 0.76970(11) 0.54119(11)
O3_3 O 0.96698(17) 0.57293(11) 0.89428(11)
H1_3 H 0.8745 0.5750 0.9152
H2_3 H 0.9980 0.5120 0.8857
O5_3 O 0.98425(19) 0.77990(12) 0.87042(11)
H3_3 H 0.9706 0.8415 0.8559
H4_3 H 0.9659 0.7633 0.9298
O7_3 O 0.96126(17) 0.81488(11) 0.68621(11)
O8_3 O 0.90669(19) 0.65305(12) 0.59523(11)
O9_3 O 0.94071(18) 0.89329(12) 0.56031(11)
C5_3 C 0.9871(3) 0.66210(16) 0.52839(16)
C6_3 C 0.9587(3) 0.60125(16) 0.44911(16)
H11_3 H 0.8710 0.5699 0.4445
C9_3 C 0.8842(2) 0.85340(15) 0.62612(15)
C10_3 C 0.6414(2) 0.82938(17) 0.56724(16)
H13_3 H 0.6778 0.8140 0.5100
C11_3 C 0.7290(2) 0.85166(16) 0.63469(16)
H14_3 H 0.6901 0.8672 0.6912
C12_3 C 0.4865(2) 0.82839(16) 0.58104(15)
O15_2 O 0.06747(17) 0.38748(12) 0.86673(11)
O16_2 O 0.09060(17) 0.26970(11) 0.95881(11)
C12_4 C 0.0135(2) 0.32839(16) 0.91896(15)
C6_4 C 0.5413(3) 0.10125(16) 0.05089(16)
H11_4 H 0.6290 0.0699 0.0555
C7_4 C 0.4616(3) 0.01491(16) 0.18273(16)
C8_4 C 0.4472(3) 0.08966(17) 0.11526(16)
H12_4 H 0.3688 0.1302 0.1181
O1_4 O 0.28955(17) 0.14714(11) 0.67311(11)
O3_4 O 0.53302(17) 0.07293(11) 0.60572(11)
H1_4 H 0.6255 0.0750 0.5848
H2_4 H 0.5020 0.0120 0.6143
O5_4 O 0.51575(19) 0.27990(12) 0.62958(11)
H3_4 H 0.5294 0.3415 0.6441
H4_4 H 0.5341 0.2633 0.5702
C1_4 C 0.2199(2) 0.18502(16) 0.73426(15)
C2_4 C 0.0633(3) 0.18493(16) 0.72950(16)
H5_4 H 0.0107 0.1956 0.7823
H6_4 H 0.0521 0.1648 0.5988
O6_4 O 0.28403(17) 0.22136(11) 0.80143(11)
O7_4 O 0.53874(17) 0.31488(11) 0.81379(11)
O8_4 O 0.59331(19) 0.15305(12) 0.90477(11)
O9_4 O 0.55929(18) 0.39329(12) 0.93969(11)
O10_4 O 0.40909(18) 0.21546(12) 0.97493(11)
O11_2 O 0.28683(19) 0.50441(11) 0.93998(11)
H7_2 H 0.2533 0.5472 0.8975
H8_2 H 0.3384 0.5327 0.9873
O12_4 O 0.31315(19) 0.42667(12) 0.76328(11)
H9_4 H 0.3872 0.4401 0.7388
H10_4 H 0.2518 0.4523 0.7432
C5_4 C 0.5129(3) 0.16210(16) 0.97161(16)
C9_4 C 0.6158(2) 0.35340(15) 0.87388(15)
C10_4 C 0.8586(2) 0.32938(17) 0.93276(16)
H13_4 H 0.8222 0.3140 0.9900
C11_4 C 0.7710(2) 0.35166(16) 0.86531(16)
H14_4 H 0.8099 0.3672 0.8088
O17_2 O 0.76459(18) 0.18108(12) 0.70675(11)
C3_4 C 0.9970(2) 0.16992(16) 0.65130(16)
C4_4 C 0.8408(2) 0.16065(15) 0.64128(16)
O11_3 O 0.78683(19) 0.99559(11) 0.43998(11)
H7_3 H 0.7533 0.9528 0.3975
H8_3 H 0.8384 0.9673 0.4873
O11_4 O 0.21317(19) 0.00441(11) 0.56002(11)
H7_4 H 0.2467 0.0472 0.6025
H8_4 H 0.1616 0.0327 0.5127
loop_
_geom_bond_atom_site_label_1
_geom_bond_atom_site_label_2
_geom_bond_site_symmetry_1
_geom_bond_site_symmetry_2
O3 Gd1 1_555 1_555
H1 O3 1_555 1_555
H2 O3 1_555 1_555
O5 Gd1 1_555 1_555
H3 O5 1_555 1_555
H4 O5 1_555 1_555
O7 Gd1 1_555 1_555
O8 Gd1 1_555 1_555
C5 O8 1_555 1_555
C6 C5 1_555 1_555
H11 C6 1_555 1_555
C9 O7 1_555 1_555
C10 H13 1_555 1_555
C11 C9 1_555 1_555
H14 C11 1_555 1_555
O15 C12 1_555 1_555
O16 C12 1_555 1_555
C12 C10 1_555 1_555
O17 Gd1 1_555 1_555
Gd5 O15 1_555 1_555
O20 Gd1 1_555 1_555
O9 C9 1_555 1_555
C10 C11 1_555 1_555
O16 Gd5 1_555 1_555
O1 C1 1_555 1_555
O17 C4 1_555 1_555
O4 C4 1_555 1_555
C1 C2 1_555 1_555
C2 H5 1_555 1_555
C3 C2 1_555 1_555
H6 C3 1_555 1_555
C4 C3 1_555 1_555
Gd5 O6 1_555 1_555
O10 Gd5 1_555 1_555
O12 Gd5 1_555 1_555
H9 O12 1_555 1_555
H10 O12 1_555 1_555
C7 C8 1_555 1_555
H12 C8 1_555 1_555
O14 C7 1_555 1_555
O18 Gd5 1_555 1_555
C1 O6 1_555 1_555
O14 Gd4 1_555 1_555
O2 C4_2 1_555 1_555
O4_2 C4_2 1_555 1_555
C4_2 C3_2 1_555 1_555
Gd3 O2 1_555 1_555
Gd6_2 O4_2 1_555 1_555
Gd4_2 O13_2 1_555 1_555
O14_2 Gd4_2 1_555 1_555
Gd3 O1_2 1_555 1_555
O1_2 C1_2 1_555 1_555
O3_2 Gd3 1_555 1_555
H1_2 O3_2 1_555 1_555
H2_2 O3_2 1_555 1_555
O5_2 Gd3 1_555 1_555
H3_2 O5_2 1_555 1_555
H4_2 O5_2 1_555 1_555
C1_2 C2_2 1_555 1_555
C2_2 H5_2 1_555 1_555
O6_2 Gd3 1_555 1_555
O7_2 Gd3 1_555 1_555
O8_2 Gd3 1_555 1_555
Gd2 O6_2 1_555 1_555
O9_2 Gd2 1_555 1_555
O10_2 Gd2 1_555 1_555
O11 Gd2 1_555 1_555
H7 O11 1_555 1_555
H8 O11 1_555 1_555
O12_2 Gd2 1_555 1_555
H9_2 O12_2 1_555 1_555
H10_2 O12_2 1_555 1_555
C5_2 O8_2 1_555 1_555
C9_2 O7_2 1_555 1_555
C10_2 H13_2 1_555 1_555
C11_2 C9_2 1_555 1_555
H14_2 C11_2 1_555 1_555
O19_2 Gd3 1_555 1_555
O20_2 Gd3 1_555 1_555
O21 Gd2 1_555 1_555
O22 Gd2 1_555 1_555
C1_2 O6_2 1_555 1_555
O7_2 Gd2 1_555 1_555
O9_2 C9_2 1_555 1_555
O10_2 C5_2 1_555 1_555
C10_2 C11_2 1_555 1_555
H11_2 C6_2 1_555 1_555
C7_2 C8_2 1_555 1_555
C8_2 C6_2 1_555 1_555
H12_2 C8_2 1_555 1_555
O21 C12_2 1_555 1_555
O22 C12_2 1_555 1_555
O1_3 C1_3 1_555 1_555
O2_2 C4_3 1_555 1_555
O18_2 C4_3 1_555 1_555
C1_3 C2_3 1_555 1_555
C2_3 H5_3 1_555 1_555
C3_3 C2_3 1_555 1_555
H6_3 C3_3 1_555 1_555
C4_3 C3_3 1_555 1_555
Gd6_2 O6_3 1_555 1_555
O10_3 Gd6_2 1_555 1_555
O12_3 Gd6_2 1_555 1_555
H9_3 O12_3 1_555 1_555
H10_3 O12_3 1_555 1_555
C7_3 C8_3 1_555 1_555
H12_3 C8_3 1_555 1_555
O20 C7_3 1_555 1_555
Gd4 O2_2 1_555 1_555
O21_2 Gd6_2 1_555 1_555
O22_2 Gd6_2 1_555 1_555
C1_3 O6_3 1_555 1_555
O3_3 Gd4 1_555 1_555
H1_3 O3_3 1_555 1_555
H2_3 O3_3 1_555 1_555
O5_3 Gd4 1_555 1_555
H3_3 O5_3 1_555 1_555
H4_3 O5_3 1_555 1_555
O7_3 Gd4 1_555 1_555
O8_3 Gd4 1_555 1_555
C5_3 O8_3 1_555 1_555
C6_3 C5_3 1_555 1_555
H11_3 C6_3 1_555 1_555
C9_3 O7_3 1_555 1_555
C10_3 H13_3 1_555 1_555
C11_3 C9_3 1_555 1_555
H14_3 C11_3 1_555 1_555
O21_2 C12_3 1_555 1_555
O22_2 C12_3 1_555 1_555
C12_3 C10_3 1_555 1_555
O9_3 C9_3 1_555 1_555
C10_3 C11_3 1_555 1_555
O15_2 C12_4 1_555 1_555
O16_2 C12_4 1_555 1_555
Gd6 O15_2 1_555 1_555
O16_2 Gd6 1_555 1_555
H11_4 C6_4 1_555 1_555
C7_4 C8_4 1_555 1_555
C8_4 C6_4 1_555 1_555
H12_4 C8_4 1_555 1_555
Gd4_2 O1_4 1_555 1_555
O1_4 C1_4 1_555 1_555
O3_4 Gd4_2 1_555 1_555
H1_4 O3_4 1_555 1_555
H2_4 O3_4 1_555 1_555
O5_4 Gd4_2 1_555 1_555
H3_4 O5_4 1_555 1_555
H4_4 O5_4 1_555 1_555
C1_4 C2_4 1_555 1_555
C2_4 H5_4 1_555 1_555
O6_4 Gd4_2 1_555 1_555
O7_4 Gd4_2 1_555 1_555
O8_4 Gd4_2 1_555 1_555
Gd6 O6_4 1_555 1_555
O9_4 Gd6 1_555 1_555
O10_4 Gd6 1_555 1_555
O11_2 Gd6 1_555 1_555
H7_2 O11_2 1_555 1_555
H8_2 O11_2 1_555 1_555
O12_4 Gd6 1_555 1_555
H9_4 O12_4 1_555 1_555
H10_4 O12_4 1_555 1_555
C5_4 O8_4 1_555 1_555
C9_4 O7_4 1_555 1_555
C10_4 H13_4 1_555 1_555
C11_4 C9_4 1_555 1_555
H14_4 C11_4 1_555 1_555
O17_2 Gd4_2 1_555 1_555
C1_4 O6_4 1_555 1_555
O7_4 Gd6 1_555 1_555
O9_4 C9_4 1_555 1_555
O10_4 C5_4 1_555 1_555
C10_4 C11_4 1_555 1_555
O17_2 C4_4 1_555 1_555
O18 C4_4 1_555 1_555
C4_4 C3_4 1_555 1_555
H7_3 O11_3 1_555 1_555
H8_3 O11_3 1_555 1_555
H7_4 O11_4 1_555 1_555
H8_4 O11_4 1_555 1_555

#END
