
###############################################################################
#
# This file contains modified crystal structure data generated from the
# MOF subset of the Cambridge Structural Database (CSD) v543 
# hosted by the Cambridge Crystallographic Data Centre (CCDC).
#
# This work is licensed under the Creative Commons
# Attribution-NonCommercial-ShareAlike 4.0 International License.
# To view a copy of this license, visit
# http://creativecommons.org/licenses/by-nc-sa/4.0/
# or send a letter to
# Creative Commons, PO Box 1866, Mountain View, CA 94042, USA.
#
# CIF created using the CSD Python API on 29 September 2022
# The structure has been converted into the P1 space group
# The structure has a 3D framework
# The original CSD entry UQENOV is in the monoclinic crystal system
# The framework has been calculated to contain at least 10.0% void space
# The void calculation uses a probe of radius 1.32A, grid spacing 0.4
#
###############################################################################

data_UQENOV
_chemical_formula_moiety         '(C88 H68 Cd4 Cl4 N24 O8)n'
_symmetry_cell_setting           triclinic
_symmetry_space_group_name_H-M   'P 1'
_symmetry_Int_Tables_number      1
_space_group_name_Hall           'P 1'
loop_
_symmetry_equiv_pos_site_id
_symmetry_equiv_pos_as_xyz
1 x,y,z
_cell_length_a                   10.721(5)
_cell_length_b                   16.704(5)
_cell_length_c                   13.591(5)
_cell_angle_alpha                90
_cell_angle_beta                 105.103(5)
_cell_angle_gamma                90
_cell_volume                     2349.85
loop_
_atom_site_label
_atom_site_type_symbol
_atom_site_fract_x
_atom_site_fract_y
_atom_site_fract_z
N3 N 0.8087(2) 0.63475(12) 0.43798(13)
N4 N 0.80107(18) 0.59499(10) 0.28285(12)
Cl1 Cl 0.99614(6) 0.19604(4) 0.06232(4)
C2 C 0.6823(2) 0.51240(12) 0.02215(15)
C3 C 0.7338(2) 0.51494(12) 0.12735(15)
H2 H 0.7545 0.4681 0.1652
C4 C 0.7532(2) 0.58927(13) 0.17391(15)
C5 C 0.7212(2) 0.65955(13) 0.11992(15)
H3 H 0.7340 0.7086 0.1534
C6 C 0.6695(2) 0.65623(12) 0.01507(15)
C7 C 0.7121(2) 0.36547(12) 0.00823(16)
H4 H 0.7627 0.3575 0.0743
C10 C 0.7443(2) 0.63841(15) 0.34168(16)
H7 H 0.6686 0.6676 0.3174
C11 C 0.9134(2) 0.58705(15) 0.44041(17)
H8 H 0.9774 0.5739 0.4988
C12 C 0.9097(3) 0.56199(15) 0.34528(17)
H9 H 0.9691 0.5289 0.3261
Cd4 Cd 0.725793(15) 0.685484(8) 0.564466(10)
N13 N 0.6913(2) 0.13475(12) 0.06202(13)
Cd1 Cd 0.774207(15) 0.185484(8) 0.935534(10)
N1 N 0.6804(2) 0.30884(10) 0.93891(14)
N2 N 0.66138(17) 0.43693(10) 0.97080(12)
N5 N 0.63007(19) 0.71421(12) 0.69533(13)
N6 N 0.60344(19) 0.72816(11) 0.84931(13)
C1 C 0.6508(2) 0.58240(12) 0.96610(15)
H1 H 0.6173 0.5799 0.8958
C8 C 0.6062(2) 0.34557(14) 0.85256(17)
H5 H 0.5701 0.3200 0.7910
C9 C 0.5937(2) 0.42401(13) 0.87059(16)
H6 H 0.5485 0.4619 0.8248
C13 C 0.6351(3) 0.73512(14) 0.95972(16)
H10 H 0.5619 0.7582 0.9789
H11 H 0.7073 0.7716 0.9818
C14 C 0.6881(2) 0.72846(13) 0.79178(16)
H12 H 0.7763 0.7375 0.8168
C15 C 0.5018(2) 0.70360(16) 0.69168(18)
H13 H 0.4370 0.6924 0.6330
C16 C 0.4840(2) 0.71186(16) 0.78601(19)
H14 H 0.4065 0.7074 0.8043
C17 C 0.6481(2) 0.07938(13) 0.78483(16)
C18 C 0.5968(2) 0.03666(13) 0.68462(15)
C19 C 0.5411(2) 0.08018(12) 0.59888(16)
H15 H 0.5326 0.1353 0.6039
C20 C 0.4963(2) 0.04231(11) 0.50263(15)
C21 C 0.4416(2) 0.08627(12) 0.41251(16)
H16 H 0.4388 0.1419 0.4150
C22 C 0.3928(2) 0.04775(13) 0.32194(16)
H17 H 0.3525 0.0770 0.2642
O1 O 0.74087(19) 0.04972(11) 0.85025(13)
O2 O 0.59763(16) 0.14503(10) 0.79813(12)
N15 N 0.86993(19) 0.21421(12) 0.80467(13)
N4_2 N 0.69893(18) 0.09499(10) 0.21715(12)
N6_2 N 0.89656(19) 0.22816(11) 0.65069(13)
C1_2 C 0.8492(2) 0.08240(12) 0.53390(15)
H1_2 H 0.8827 0.0799 0.6042
C2_2 C 0.8177(2) 0.01240(12) 0.47785(15)
C3_2 C 0.7662(2) 0.01494(12) 0.37265(15)
C4_2 C 0.7468(2) 0.08927(13) 0.32609(15)
C5_2 C 0.7788(2) 0.15955(13) 0.38008(15)
H3_2 H 0.7660 0.2086 0.3466
C6_2 C 0.8305(2) 0.15623(12) 0.48493(15)
C10_2 C 0.7557(2) 0.13841(15) 0.15832(16)
H7_2 H 0.8314 0.1676 0.1826
C11_2 C 0.5866(2) 0.08705(15) 0.05959(17)
H8_2 H 0.5226 0.0739 0.0012
C12_2 C 0.5903(3) 0.06199(15) 0.15472(17)
H9_2 H 0.5309 0.0289 0.1739
C13_2 C 0.8649(3) 0.23512(14) 0.54028(16)
H10_2 H 0.9381 0.2582 0.5211
H11_2 H 0.7927 0.2716 0.5182
C14_2 C 0.8119(2) 0.22846(13) 0.70822(16)
H12_2 H 0.7237 0.2375 0.6832
C15_2 C 0.9982(2) 0.20360(16) 0.80832(18)
N1_2 N 0.8196(2) 0.80884(10) 0.56109(14)
N2_2 N 0.83862(17) 0.93693(10) 0.52920(12)
Cl1_2 Cl 0.50386(6) 0.69604(4) 0.43768(4)
H2_2 H 0.7455 0.9681 0.3348
C7_2 C 0.7879(2) 0.86547(12) 0.49177(16)
H4_2 H 0.7373 0.8575 0.4257
C8_2 C 0.8938(2) 0.84557(14) 0.64744(17)
H5_2 H 0.9299 0.8200 0.7090
C9_2 C 0.9063(2) 0.92401(13) 0.62941(16)
H6_2 H 0.9515 0.9619 0.6752
C17_2 C 0.8519(2) 0.57938(13) 0.71517(16)
C18_2 C 0.9032(2) 0.53666(13) 0.81538(15)
C19_2 C 0.9589(2) 0.58018(12) 0.90112(16)
H15_2 H 0.9674 0.6353 0.8961
O1_2 O 0.75913(19) 0.54972(11) 0.64975(13)
O2_2 O 0.90237(16) 0.64503(10) 0.70187(12)
C27 C 0.9416(2) 0.41373(12) 0.91251(16)
H19 H 0.9388 0.3581 0.9150
C28 C 0.8928(2) 0.45225(13) 0.82194(16)
H20 H 0.8525 0.4230 0.7642
C23 C 0.3519(2) 0.92062(13) 0.21517(16)
C24 C 0.4032(2) 0.96334(13) 0.31538(15)
C25 C 0.4589(2) 0.91982(12) 0.40112(16)
H18 H 0.4674 0.8647 0.3961
C26 C 0.5037(2) 0.95769(11) 0.49737(15)
C27_2 C 0.5584(2) 0.91373(12) 0.58749(16)
H19_2 H 0.5612 0.8581 0.5850
C28_2 C 0.6072(2) 0.95225(13) 0.67806(16)
H20_2 H 0.6475 0.9230 0.7358
O3 O 0.25913(19) 0.95028(11) 0.14975(13)
O4 O 0.40237(16) 0.85497(10) 0.20187(12)
Cd2 Cd 0.225793(15) 0.814516(8) 0.064466(10)
N7 N 0.3196(2) 0.69116(10) 0.06109(14)
N8 N 0.33862(17) 0.56307(10) 0.02920(12)
N11 N 0.36993(19) 0.28579(12) 0.30467(13)
N12 N 0.39656(19) 0.27184(11) 0.15069(13)
C29 C 0.3492(2) 0.41760(12) 0.03390(15)
H21 H 0.3827 0.4201 0.1042
C36 C 0.3938(2) 0.65443(14) 0.14744(17)
H25 H 0.4299 0.6800 0.2090
C37 C 0.4063(2) 0.57599(13) 0.12941(16)
H26 H 0.4515 0.5381 0.1752
C41 C 0.3649(3) 0.26488(14) 0.04028(16)
H30 H 0.4381 0.2418 0.0211
H31 H 0.2927 0.2284 0.0182
C42 C 0.3119(2) 0.27154(13) 0.20822(16)
H32 H 0.2237 0.2625 0.1832
C43 C 0.4982(2) 0.29640(16) 0.30832(18)
H33 H 0.5630 0.3076 0.3670
C44 C 0.5160(2) 0.28814(16) 0.21399(19)
H34 H 0.5935 0.2926 0.1957
Cd6 Cd 0.274207(15) 0.314516(8) 0.435534(10)
N16 N 0.13007(19) 0.78579(12) 0.19533(13)
N9 N 0.1913(2) 0.36525(12) 0.56202(13)
N10 N 0.19893(18) 0.40501(10) 0.71715(12)
Cl2 Cl 0.00386(6) 0.80396(4) 0.93768(4)
C30 C 0.3177(2) 0.48760(12) 0.97785(15)
C31 C 0.2662(2) 0.48506(12) 0.87265(15)
H22 H 0.2455 0.5319 0.8348
C32 C 0.2468(2) 0.41073(13) 0.82609(15)
C33 C 0.2788(2) 0.34045(13) 0.88008(15)
H23 H 0.2660 0.2914 0.8466
C34 C 0.3305(2) 0.34377(12) 0.98493(15)
C35 C 0.2879(2) 0.63453(12) 0.99177(16)
H24 H 0.2373 0.6425 0.9257
C38 C 0.2557(2) 0.36159(15) 0.65832(16)
H27 H 0.3314 0.3324 0.6826
C39 C 0.0866(2) 0.41295(15) 0.55959(17)
H28 H 0.0226 0.4261 0.5012
C40 C 0.0903(3) 0.43801(15) 0.65472(17)
H29 H 0.0309 0.4711 0.6739
N14 N 0.3087(2) 0.86525(12) 0.93798(13)
C21_2 C 0.0584(2) 0.58627(12) 0.08749(16)
H16_2 H 0.0612 0.6419 0.0850
C22_2 C 0.1072(2) 0.54775(13) 0.17806(16)
H17_2 H 0.1475 0.5770 0.2358
C23_2 C 0.1481(2) 0.42062(13) 0.28483(16)
C24_2 C 0.0968(2) 0.46334(13) 0.18462(15)
C25_2 C 0.0411(2) 0.41982(12) 0.09888(16)
H18_2 H 0.0326 0.3647 0.1039
O3_2 O 0.24087(19) 0.45028(11) 0.35025(13)
O4_2 O 0.09763(16) 0.35497(10) 0.29813(12)
N7_2 N 0.1804(2) 0.19116(10) 0.43891(14)
N8_2 N 0.16138(17) 0.06307(10) 0.47080(12)
Cl2_2 Cl 0.49614(6) 0.30396(4) 0.56232(4)
H22_2 H 0.2545 0.0319 0.6652
C35_2 C 0.2121(2) 0.13453(12) 0.50823(16)
H24_2 H 0.2627 0.1425 0.5743
C36_2 C 0.1062(2) 0.15443(14) 0.35256(17)
H25_2 H 0.0701 0.1800 0.2910
C37_2 C 0.0937(2) 0.07599(13) 0.37059(16)
H26_2 H 0.0485 0.0381 0.3248
N10_2 N 0.30107(18) 0.90501(10) 0.78285(12)
N12_2 N 0.10344(19) 0.77184(11) 0.34931(13)
C29_2 C 0.1508(2) 0.91760(12) 0.46610(15)
H21_2 H 0.1173 0.9201 0.3958
C30_2 C 0.1823(2) 0.98760(12) 0.52215(15)
C31_2 C 0.2338(2) 0.98506(12) 0.62735(15)
C32_2 C 0.2532(2) 0.91073(13) 0.67391(15)
C33_2 C 0.2212(2) 0.84045(13) 0.61992(15)
H23_2 H 0.2340 0.7914 0.6534
C34_2 C 0.1695(2) 0.84377(12) 0.51507(15)
C38_2 C 0.2443(2) 0.86159(15) 0.84168(16)
H27_2 H 0.1686 0.8324 0.8174
C39_2 C 0.4134(2) 0.91295(15) 0.94041(17)
H28_2 H 0.4774 0.9261 0.9988
C40_2 C 0.4097(3) 0.93801(15) 0.84528(17)
H29_2 H 0.4691 0.9711 0.8261
C41_2 C 0.1351(3) 0.76488(14) 0.45972(16)
H30_2 H 0.0619 0.7418 0.4789
H31_2 H 0.2073 0.7284 0.4818
C42_2 C 0.1881(2) 0.77154(13) 0.29178(16)
H32_2 H 0.2763 0.7625 0.3168
C43_2 C 0.0018(2) 0.79640(16) 0.19168(18)
H13_2 H 0.0630 0.1924 0.8670
C16_2 C 0.0160(2) 0.21186(16) 0.71399(19)
H14_2 H 0.0935 0.2074 0.6957
C20_2 C 0.0037(2) 0.54231(11) 0.99737(15)
C26_2 C 0.9963(2) 0.45769(11) 0.00263(15)
H33_2 H 0.9370 0.8076 0.1330
C44_2 C 0.9840(2) 0.78814(16) 0.28601(19)
H34_2 H 0.9065 0.7926 0.3043
loop_
_geom_bond_atom_site_label_1
_geom_bond_atom_site_label_2
_geom_bond_site_symmetry_1
_geom_bond_site_symmetry_2
N3 C10 1_555 1_555
N4 C4 1_555 1_555
C3 C2 1_555 1_555
H2 C3 1_555 1_555
C4 C3 1_555 1_555
C5 C4 1_555 1_555
H3 C5 1_555 1_555
H4 C7 1_555 1_555
C10 N4 1_555 1_555
H7 C10 1_555 1_555
C11 N3 1_555 1_555
H8 C11 1_555 1_555
C12 N4 1_555 1_555
H9 C12 1_555 1_555
Cd4 N3 1_555 1_555
C5 C6 1_555 1_555
C11 C12 1_555 1_555
Cd1 N1 1_555 1_555
N5 C14 1_555 1_555
N6 C13 1_555 1_555
C1 H1 1_555 1_555
C8 N1 1_555 1_555
H5 C8 1_555 1_555
C9 N2 1_555 1_555
H6 C9 1_555 1_555
H10 C13 1_555 1_555
H11 C13 1_555 1_555
C14 N6 1_555 1_555
H12 C14 1_555 1_555
C15 N5 1_555 1_555
H13 C15 1_555 1_555
C16 N6 1_555 1_555
H14 C16 1_555 1_555
C17 C18 1_555 1_555
C18 C19 1_555 1_555
C19 H15 1_555 1_555
C20 C19 1_555 1_555
C21 C20 1_555 1_555
H16 C21 1_555 1_555
C22 C21 1_555 1_555
H17 C22 1_555 1_555
O1 Cd1 1_555 1_555
O2 Cd1 1_555 1_555
Cd4 N5 1_555 1_555
N15 Cd1 1_555 1_555
C8 C9 1_555 1_555
C15 C16 1_555 1_555
C17 O1 1_555 1_555
C17 O2 1_555 1_555
N13 C10_2 1_555 1_555
N4_2 C4_2 1_555 1_555
N15 C14_2 1_555 1_555
N6_2 C13_2 1_555 1_555
C1_2 H1_2 1_555 1_555
C2_2 C1_2 1_555 1_555
C3_2 C2_2 1_555 1_555
C4_2 C3_2 1_555 1_555
C5_2 C4_2 1_555 1_555
H3_2 C5_2 1_555 1_555
C6_2 C1_2 1_555 1_555
C10_2 N4_2 1_555 1_555
H7_2 C10_2 1_555 1_555
C11_2 N13 1_555 1_555
H8_2 C11_2 1_555 1_555
C12_2 N4_2 1_555 1_555
H9_2 C12_2 1_555 1_555
C13_2 C6_2 1_555 1_555
H10_2 C13_2 1_555 1_555
H11_2 C13_2 1_555 1_555
C14_2 N6_2 1_555 1_555
H12_2 C14_2 1_555 1_555
C15_2 N15 1_555 1_555
C5_2 C6_2 1_555 1_555
C11_2 C12_2 1_555 1_555
Cd4 N1_2 1_555 1_555
N1_2 C7_2 1_555 1_555
Cl1_2 Cd4 1_555 1_555
C7_2 N2_2 1_555 1_555
H4_2 C7_2 1_555 1_555
C8_2 N1_2 1_555 1_555
H5_2 C8_2 1_555 1_555
C9_2 N2_2 1_555 1_555
H6_2 C9_2 1_555 1_555
C17_2 C18_2 1_555 1_555
C18_2 C19_2 1_555 1_555
C19_2 H15_2 1_555 1_555
O1_2 Cd4 1_555 1_555
O2_2 Cd4 1_555 1_555
H19 C27 1_555 1_555
C28 C18_2 1_555 1_555
H20 C28 1_555 1_555
C8_2 C9_2 1_555 1_555
C17_2 O1_2 1_555 1_555
C17_2 O2_2 1_555 1_555
C27 C28 1_555 1_555
C23 C24 1_555 1_555
C25 C24 1_555 1_555
H18 C25 1_555 1_555
C27_2 C26 1_555 1_555
H19_2 C27_2 1_555 1_555
H20_2 C28_2 1_555 1_555
O3 C23 1_555 1_555
O4 C23 1_555 1_555
Cd2 O3 1_555 1_555
N7 Cd2 1_555 1_555
N11 C42 1_555 1_555
N12 C41 1_555 1_555
C29 H21 1_555 1_555
C36 N7 1_555 1_555
H25 C36 1_555 1_555
C37 N8 1_555 1_555
H26 C37 1_555 1_555
H30 C41 1_555 1_555
H31 C41 1_555 1_555
C42 N12 1_555 1_555
H32 C42 1_555 1_555
C43 N11 1_555 1_555
H33 C43 1_555 1_555
C44 N12 1_555 1_555
H34 C44 1_555 1_555
Cd6 N11 1_555 1_555
N16 Cd2 1_555 1_555
C25 C26 1_555 1_555
C27_2 C28_2 1_555 1_555
O4 Cd2 1_555 1_555
C36 C37 1_555 1_555
C43 C44 1_555 1_555
N9 C38 1_555 1_555
N10 C32 1_555 1_555
C31 C30 1_555 1_555
H22 C31 1_555 1_555
C32 C31 1_555 1_555
C33 C32 1_555 1_555
H23 C33 1_555 1_555
H24 C35 1_555 1_555
C38 N10 1_555 1_555
H27 C38 1_555 1_555
C39 N9 1_555 1_555
H28 C39 1_555 1_555
C40 N10 1_555 1_555
H29 C40 1_555 1_555
Cd6 N9 1_555 1_555
C33 C34 1_555 1_555
C39 C40 1_555 1_555
H16_2 C21_2 1_555 1_555
C22_2 C21_2 1_555 1_555
H17_2 C22_2 1_555 1_555
C23_2 C24_2 1_555 1_555
C24_2 C22_2 1_555 1_555
C25_2 C24_2 1_555 1_555
H18_2 C25_2 1_555 1_555
O3_2 C23_2 1_555 1_555
O4_2 C23_2 1_555 1_555
Cd6 O3_2 1_555 1_555
N7_2 Cd6 1_555 1_555
Cl2_2 Cd6 1_555 1_555
C35_2 N7_2 1_555 1_555
H24_2 C35_2 1_555 1_555
C36_2 N7_2 1_555 1_555
H25_2 C36_2 1_555 1_555
C37_2 N8_2 1_555 1_555
H26_2 C37_2 1_555 1_555
O4_2 Cd6 1_555 1_555
N8_2 C35_2 1_555 1_555
C36_2 C37_2 1_555 1_555
N14 C38_2 1_555 1_555
N10_2 C32_2 1_555 1_555
N16 C42_2 1_555 1_555
N12_2 C41_2 1_555 1_555
C29_2 H21_2 1_555 1_555
C30_2 C29_2 1_555 1_555
C31_2 C30_2 1_555 1_555
C32_2 C31_2 1_555 1_555
C33_2 C32_2 1_555 1_555
H23_2 C33_2 1_555 1_555
C34_2 C29_2 1_555 1_555
C38_2 N10_2 1_555 1_555
H27_2 C38_2 1_555 1_555
C39_2 N14 1_555 1_555
H28_2 C39_2 1_555 1_555
C40_2 N10_2 1_555 1_555
H29_2 C40_2 1_555 1_555
C41_2 C34_2 1_555 1_555
H30_2 C41_2 1_555 1_555
H31_2 C41_2 1_555 1_555
C42_2 N12_2 1_555 1_555
H32_2 C42_2 1_555 1_555
C43_2 N16 1_555 1_555
C33_2 C34_2 1_555 1_555
C39_2 C40_2 1_555 1_555
H14_2 C16_2 1_555 1_555
H34_2 C44_2 1_555 1_555

#END
