
###############################################################################
#
# This file contains modified crystal structure data generated from the
# MOF subset of the Cambridge Structural Database (CSD) v543 
# hosted by the Cambridge Crystallographic Data Centre (CCDC).
#
# This work is licensed under the Creative Commons
# Attribution-NonCommercial-ShareAlike 4.0 International License.
# To view a copy of this license, visit
# http://creativecommons.org/licenses/by-nc-sa/4.0/
# or send a letter to
# Creative Commons, PO Box 1866, Mountain View, CA 94042, USA.
#
# CIF created using the CSD Python API on 29 September 2022
# The structure has been converted into the P1 space group
# The structure has a 3D framework
# The original CSD entry UQERIT is in the triclinic crystal system
# The framework has been calculated to contain at least 10.0% void space
# The void calculation uses a probe of radius 1.32A, grid spacing 0.4
# The framework is charged, counterions have been retained in the structure
# H atom positions have been added when not included in the experimental data
#
###############################################################################

data_UQERIT
_chemical_formula_moiety         '(C88 H88 In4 N4 O40)n'
_symmetry_cell_setting           triclinic
_symmetry_space_group_name_H-M   'P 1'
_symmetry_Int_Tables_number      1
_space_group_name_Hall           'P 1'
loop_
_symmetry_equiv_pos_site_id
_symmetry_equiv_pos_as_xyz
1 x,y,z
_cell_length_a                   12.7593(9)
_cell_length_b                   15.0296(10)
_cell_length_c                   16.9098(12)
_cell_angle_alpha                114.5090(10)
_cell_angle_beta                 94.8160(10)
_cell_angle_gamma                90.4320(10)
_cell_volume                     2936.93
loop_
_atom_site_label
_atom_site_type_symbol
_atom_site_fract_x
_atom_site_fract_y
_atom_site_fract_z
In4 In 0.08178(4) 0.21821(4) 0.22132(3)
C13 C 0.2238(6) 0.0831(6) 0.1567(6)
C14 C 0.2947(6) 0.0032(5) 0.1077(5)
O6 O 0.1665(5) 0.1199(4) 0.1147(4)
O7 O 0.2212(5) 0.1133(4) 0.2377(4)
O17 O 0.0255(5) 0.1997(4) 0.3347(4)
O27 O 0.1780(5) 0.3462(4) 0.2060(3)
O28 O 0.1671(4) 0.3416(4) 0.3323(3)
C15 C 0.3004(6) 0.9794(6) 0.0197(5)
C17 C 0.4099(6) 0.8474(5) 0.0114(5)
C18 C 0.4045(6) 0.8714(5) 0.0979(5)
C19 C 0.3466(5) 0.9513(5) 0.1492(5)
H14 H 0.3434 0.9688 0.2098
C20 C 0.4587(6) 0.8115(5) 0.1419(5)
O8 O 0.4715(4) 0.8429(4) 0.2223(3)
O9 O 0.4952(4) 0.7306(4) 0.0931(3)
In7 In 0.57124(4) 0.71066(3) 0.20879(3)
C16 C 0.3607(6) 0.9026(6) 0.9716(5)
H13 H 0.4478 0.7923 0.9778
C21 C 0.3364(8) 0.9404(6) 0.8468(5)
H16 H 0.2589 0.9433 0.8462
C22 C 0.3679(7) 0.9002(6) 0.7546(5)
H17 H 0.4450 0.8930 0.7564
H18 H 0.3511 0.9479 0.7295
C23 C 0.3132(6) 0.8015(6) 0.6949(5)
H19 H 0.3365 0.7516 0.7158
H20 H 0.2362 0.8063 0.6978
C24 C 0.3376(7) 0.7693(6) 0.6010(5)
H21 H 0.3089 0.8152 0.5772
H22 H 0.4147 0.7676 0.5973
C25 C 0.3005(6) 0.6268(6) 0.4656(5)
C26 C 0.3595(6) 0.6649(6) 0.4206(5)
H23 H 0.3966 0.7265 0.4504
C27 C 0.3634(6) 0.6109(6) 0.3305(5)
C28 C 0.3083(6) 0.5210(6) 0.2854(5)
H24 H 0.3091 0.4867 0.2240
C29 C 0.2525(5) 0.4825(5) 0.3314(5)
C30 C 0.2475(6) 0.5342(5) 0.4219(5)
H25 H 0.2090 0.5072 0.4530
C31 C 0.1964(5) 0.3849(5) 0.2872(5)
C32 C 0.4338(5) 0.6494(6) 0.2849(5)
O10 O 0.3743(5) 0.8752(4) 0.8856(3)
O11 O 0.2885(4) 0.6725(4) 0.5524(3)
O14 O 0.4347(4) 0.6069(4) 0.2024(3)
O15 O 0.4961(4) 0.7211(4) 0.3277(4)
C6 C 0.8498(5) 0.2930(5) 0.0159(4)
C7 C 0.8568(5) 0.3355(5) 0.1068(4)
C8 C 0.8024(5) 0.4184(5) 0.1520(5)
H10 H 0.8071 0.4471 0.2140
C9 C 0.7400(5) 0.4589(5) 0.1034(5)
C10 C 0.7321(5) 0.4163(5) 0.0134(5)
C11 C 0.6835(5) 0.5497(5) 0.1507(5)
C12 C 0.9298(6) 0.2924(5) 0.1541(5)
O2 O 0.6447(4) 0.5963(4) 0.1069(4)
O3 O 0.6738(4) 0.5824(4) 0.2307(3)
O4 O 0.9444(4) 0.3289(4) 0.2364(3)
O5 O 0.9822(4) 0.2205(4) 0.1091(3)
C1 C 0.8399(7) 0.0405(6) 0.5925(5)
H2 H 0.7623 0.0331 0.5804
C2 C 0.8701(7) 0.0910(6) 0.6905(5)
H3 H 0.9460 0.1106 0.7008
H4 H 0.8593 0.0435 0.7160
C3 C 0.8082(6) 0.1813(6) 0.7379(5)
H5 H 0.8254 0.2334 0.7190
H6 H 0.7317 0.1646 0.7241
C4 C 0.8376(6) 0.2166(5) 0.8351(4)
H7 H 0.8264 0.1625 0.8529
H8 H 0.9128 0.2387 0.8495
C5 C 0.7855(5) 0.3339(5) 0.9698(4)
H9 H 0.8883 0.2371 0.9856
H11 H 0.6895 0.4441 0.9814
O1 O 0.7736(4) 0.2955(4) 0.8805(3)
C33 C 0.9736(6) 0.1205(6) 0.2894(5)
C34 C 0.9175(6) 0.0687(5) 0.3313(5)
C35 C 0.9237(6) 0.1063(6) 0.4217(5)
H26 H 0.9643 0.1651 0.4560
C36 C 0.8696(6) 0.0574(5) 0.4630(5)
O16 O 0.9727(4) 0.0874(4) 0.2070(3)
O20 O 0.8823(5) 0.0996(4) 0.5518(3)
H1 H 0.8687 0.9745 0.5684
C37 C 0.8086(6) 0.9733(5) 0.4116(5)
H27 H 0.7717 0.9400 0.4385
C38 C 0.8008(5) 0.9375(5) 0.3215(4)
C39 C 0.8546(5) 0.9827(5) 0.2812(5)
H28 H 0.8498 0.9564 0.2193
C40 C 0.7272(5) 0.8511(5) 0.2693(5)
O18 O 0.7024(4) 0.8282(4) 0.1907(3)
O19 O 0.6878(4) 0.8060(4) 0.3093(3)
H12 H 0.2634 0.0156 0.9926
H15 H 0.3680 0.0072 0.8809
H1_2 H 0.1313 0.0255 0.4316
C37_2 C 0.1914(6) 0.0267(5) 0.5884(5)
H27_2 H 0.2283 0.0600 0.5615
C38_2 C 0.1992(5) 0.0625(5) 0.6785(4)
C39_2 C 0.1454(5) 0.0173(5) 0.7188(5)
H28_2 H 0.1502 0.0436 0.7807
C40_2 C 0.2728(5) 0.1489(5) 0.7307(5)
O18_2 O 0.2976(4) 0.1718(4) 0.8093(3)
O19_2 O 0.3122(4) 0.1940(4) 0.6907(3)
In2 In 0.42876(4) 0.28934(3) 0.79121(3)
O21 O 0.3553(4) 0.4037(4) 0.8931(4)
O22 O 0.3262(4) 0.4176(4) 0.7693(3)
O25 O 0.5285(4) 0.1571(4) 0.7777(3)
O26 O 0.5048(4) 0.2694(4) 0.9069(3)
O29 O 0.5653(4) 0.3931(4) 0.7976(3)
O30 O 0.5039(4) 0.2789(4) 0.6723(4)
C1_2 C 0.1601(7) 0.9595(6) 0.4075(5)
H2_2 H 0.2377 0.9669 0.4196
C2_2 C 0.1299(7) 0.9090(6) 0.3095(5)
H3_2 H 0.0540 0.8894 0.2992
H4_2 H 0.1407 0.9565 0.2840
C3_2 C 0.1918(6) 0.8187(6) 0.2621(5)
H5_2 H 0.1746 0.7666 0.2810
H6_2 H 0.2683 0.8354 0.2759
C4_2 C 0.1624(6) 0.7834(5) 0.1649(4)
H7_2 H 0.1736 0.8375 0.1471
H8_2 H 0.0872 0.7613 0.1505
C5_2 C 0.2145(5) 0.6661(5) 0.0302(4)
H9_2 H 0.1117 0.7629 0.0144
H11_2 H 0.3105 0.5559 0.0186
O1_2 O 0.2264(4) 0.7045(4) 0.1195(3)
C33_2 C 0.0264(6) 0.8795(6) 0.7106(5)
C34_2 C 0.0825(6) 0.9313(5) 0.6687(5)
C35_2 C 0.0763(6) 0.8937(6) 0.5783(5)
H26_2 H 0.0357 0.8349 0.5440
C36_2 C 0.1304(6) 0.9426(5) 0.5370(5)
O16_2 O 0.0273(4) 0.9126(4) 0.7930(3)
O20_2 O 0.1177(5) 0.9004(4) 0.4482(3)
O23 O 0.0556(4) 0.6711(4) 0.7636(3)
O24 O 0.0178(4) 0.7795(4) 0.8909(3)
C6_2 C 0.1502(5) 0.7070(5) 0.9841(4)
C7_2 C 0.1432(5) 0.6645(5) 0.8932(4)
C8_2 C 0.1976(5) 0.5816(5) 0.8480(5)
H10_2 H 0.1929 0.5529 0.7860
C9_2 C 0.2600(5) 0.5411(5) 0.8966(5)
C10_2 C 0.2679(5) 0.5837(5) 0.9866(5)
C11_2 C 0.3165(5) 0.4503(5) 0.8493(5)
C12_2 C 0.0702(6) 0.7076(5) 0.8459(5)
C16_2 C 0.6393(6) 0.0974(6) 0.0284(5)
H13_2 H 0.5522 0.2077 0.0222
C21_2 C 0.6636(8) 0.0596(6) 0.1532(5)
H16_2 H 0.7411 0.0567 0.1538
C22_2 C 0.6321(7) 0.0998(6) 0.2454(5)
H17_2 H 0.5550 0.1070 0.2436
H18_2 H 0.6489 0.0521 0.2705
C23_2 C 0.6868(6) 0.1985(6) 0.3051(5)
H19_2 H 0.6635 0.2484 0.2842
H20_2 H 0.7638 0.1937 0.3022
C24_2 C 0.6624(7) 0.2307(6) 0.3990(5)
H21_2 H 0.6911 0.1848 0.4228
H22_2 H 0.5853 0.2324 0.4027
C25_2 C 0.6995(6) 0.3732(6) 0.5344(5)
C26_2 C 0.6405(6) 0.3351(6) 0.5794(5)
H23_2 H 0.6034 0.2735 0.5496
C27_2 C 0.6366(6) 0.3891(6) 0.6695(5)
C28_2 C 0.6917(6) 0.4790(6) 0.7146(5)
H24_2 H 0.6909 0.5133 0.7760
C29_2 C 0.7475(5) 0.5175(5) 0.6686(5)
C30_2 C 0.7525(6) 0.4658(5) 0.5781(5)
H25_2 H 0.7910 0.4928 0.5470
C31_2 C 0.8036(5) 0.6151(5) 0.7128(5)
C32_2 C 0.5662(5) 0.3506(6) 0.7151(5)
O10_2 O 0.6257(5) 0.1248(4) 0.1144(3)
O11_2 O 0.7115(4) 0.3275(4) 0.4476(3)
O12 O 0.8220(5) 0.6538(4) 0.7940(3)
O13 O 0.8329(4) 0.6584(4) 0.6677(3)
In3 In 0.91822(4) 0.78179(4) 0.77868(3)
C15_2 C 0.6996(6) 0.0206(6) 0.9803(5)
C17_2 C 0.5901(6) 0.1526(5) 0.9886(5)
C18_2 C 0.5955(6) 0.1286(5) 0.9021(5)
C19_2 C 0.6534(5) 0.0487(5) 0.8508(5)
H14_2 H 0.6566 0.0312 0.7902
C20_2 C 0.5413(6) 0.1885(5) 0.8581(5)
C13_2 C 0.7762(6) 0.9169(6) 0.8433(6)
C14_2 C 0.7053(6) 0.9968(5) 0.8923(5)
O6_2 O 0.8335(5) 0.8801(4) 0.8853(4)
O7_2 O 0.7788(5) 0.8867(4) 0.7623(4)
O17_2 O 0.9745(5) 0.8003(4) 0.6653(4)
H12_2 H 0.7366 0.9844 0.0074
H15_2 H 0.6320 0.9928 0.1191
C41 C 0.1421(8) 0.3644(7) 0.0150(6)
C42 C 0.2806(14) 0.2418(11) 0.0023(10)
H29 H 0.192714 0.427285 0.0585293
H31 H 0.0938441 0.340499 0.0533587
H32 H 0.240878 0.210401 0.0399899
H34 H 0.339747 0.297188 0.0451605
N1 N 0.2069(8) 0.2848(7) 0.9646(6)
H30 H 0.0913735 0.384832 0.970732
H33 H 0.318522 0.184351 0.951085
H40 H 0.247861 0.310458 0.928869
H41 H 0.15571 0.229569 0.92405
N1_2 N 0.7931(8) 0.7152(7) 0.0354(6)
H30_2 H 0.908626 0.615168 0.0292678
H33_2 H 0.681478 0.815649 0.0489153
H40_2 H 0.752139 0.689542 0.0711312
H41_2 H 0.84429 0.770431 0.0759504
C41_2 C 0.8579(8) 0.6356(7) 0.9850(6)
C42_2 C 0.7194(14) 0.7582(11) 0.9977(10)
H29_2 H 0.807286 0.572715 0.941471
H31_2 H 0.906156 0.659501 0.946641
H32_2 H 0.759122 0.789599 0.96001
H34_2 H 0.660253 0.702812 0.95484
C43 C 0.2927(14) 0.3566(13) 0.5752(11)
C44 C 0.2651(19) 0.1995(18) 0.4483(16)
N2 N 0.2619(10) 0.3008(9) 0.4774(8)
H35 H 0.210801 0.174608 0.482073
H36 H 0.242336 0.164459 0.37829
H37 H 0.344663 0.180324 0.461811
H38 H 0.312289 0.322708 0.444894
H39 H 0.187523 0.317381 0.463779
H42 H 0.372721 0.340221 0.590888
H43 H 0.288504 0.4349 0.593367
H44 H 0.238859 0.334505 0.61115
C43_2 C 0.7073(14) 0.6434(13) 0.4248(11)
C44_2 C 0.7349(19) 0.8005(18) 0.5517(16)
N2_2 N 0.7381(10) 0.6992(9) 0.5226(8)
H35_2 H 0.789199 0.825392 0.517927
H36_2 H 0.757664 0.835541 0.62171
H37_2 H 0.655337 0.819676 0.538189
H38_2 H 0.687711 0.677292 0.555106
H39_2 H 0.812477 0.682619 0.536221
H42_2 H 0.627279 0.659779 0.409112
H43_2 H 0.711496 0.5651 0.406633
H44_2 H 0.761141 0.665495 0.38885
loop_
_geom_bond_atom_site_label_1
_geom_bond_atom_site_label_2
_geom_bond_site_symmetry_1
_geom_bond_site_symmetry_2
C13 C14 1_555 1_555
O6 C13 1_555 1_555
O7 C13 1_555 1_555
In4 O6 1_555 1_555
O27 In4 1_555 1_555
O28 In4 1_555 1_555
O7 In4 1_555 1_555
O17 In4 1_555 1_555
C18 C17 1_555 1_555
H14 C19 1_555 1_555
C20 C18 1_555 1_555
O8 C20 1_555 1_555
O9 C20 1_555 1_555
In7 O8 1_555 1_555
C18 C19 1_555 1_555
O9 In7 1_555 1_555
H16 C21 1_555 1_555
C22 C21 1_555 1_555
H17 C22 1_555 1_555
H18 C22 1_555 1_555
C23 C22 1_555 1_555
H19 C23 1_555 1_555
H20 C23 1_555 1_555
C24 C23 1_555 1_555
H21 C24 1_555 1_555
H22 C24 1_555 1_555
C25 C26 1_555 1_555
C26 H23 1_555 1_555
C27 C26 1_555 1_555
C28 C27 1_555 1_555
H24 C28 1_555 1_555
C29 C28 1_555 1_555
C30 C25 1_555 1_555
H25 C30 1_555 1_555
C31 C29 1_555 1_555
C32 C27 1_555 1_555
O10 C16 1_555 1_555
O11 C24 1_555 1_555
O27 C31 1_555 1_555
O28 C31 1_555 1_555
O14 C32 1_555 1_555
O15 C32 1_555 1_555
In7 O14 1_555 1_555
C21 O10 1_555 1_555
C25 O11 1_555 1_555
C29 C30 1_555 1_555
O15 In7 1_555 1_555
C7 C6 1_555 1_555
C8 C7 1_555 1_555
H10 C8 1_555 1_555
C9 C8 1_555 1_555
C11 C9 1_555 1_555
C12 C7 1_555 1_555
O2 C11 1_555 1_555
O3 C11 1_555 1_555
O4 C12 1_555 1_555
O5 C12 1_555 1_555
In7 O2 1_555 1_555
C9 C10 1_555 1_555
O3 In7 1_555 1_555
H2 C1 1_555 1_555
C2 C1 1_555 1_555
H3 C2 1_555 1_555
H4 C2 1_555 1_555
C3 C2 1_555 1_555
H5 C3 1_555 1_555
H6 C3 1_555 1_555
C4 C3 1_555 1_555
H7 C4 1_555 1_555
H8 C4 1_555 1_555
O1 C4 1_555 1_555
C33 C34 1_555 1_555
C34 C35 1_555 1_555
C35 H26 1_555 1_555
C36 C35 1_555 1_555
O16 C33 1_555 1_555
O20 C1 1_555 1_555
C5 O1 1_555 1_555
C36 O20 1_555 1_555
H27 C37 1_555 1_555
C38 C37 1_555 1_555
H28 C39 1_555 1_555
C40 C38 1_555 1_555
O18 C40 1_555 1_555
O19 C40 1_555 1_555
In7 O18 1_555 1_555
C38 C39 1_555 1_555
O19 In7 1_555 1_555
H27_2 C37_2 1_555 1_555
C38_2 C37_2 1_555 1_555
H28_2 C39_2 1_555 1_555
C40_2 C38_2 1_555 1_555
O18_2 C40_2 1_555 1_555
O19_2 C40_2 1_555 1_555
In2 O18_2 1_555 1_555
O21 In2 1_555 1_555
O22 In2 1_555 1_555
O25 In2 1_555 1_555
O26 In2 1_555 1_555
O29 In2 1_555 1_555
O30 In2 1_555 1_555
C38_2 C39_2 1_555 1_555
O19_2 In2 1_555 1_555
H2_2 C1_2 1_555 1_555
C2_2 C1_2 1_555 1_555
H3_2 C2_2 1_555 1_555
H4_2 C2_2 1_555 1_555
C3_2 C2_2 1_555 1_555
H5_2 C3_2 1_555 1_555
H6_2 C3_2 1_555 1_555
C4_2 C3_2 1_555 1_555
H7_2 C4_2 1_555 1_555
H8_2 C4_2 1_555 1_555
O1_2 C4_2 1_555 1_555
C33_2 C34_2 1_555 1_555
C34_2 C35_2 1_555 1_555
C35_2 H26_2 1_555 1_555
C36_2 C35_2 1_555 1_555
O16_2 C33_2 1_555 1_555
O20_2 C1_2 1_555 1_555
C5_2 O1_2 1_555 1_555
C36_2 O20_2 1_555 1_555
C7_2 C6_2 1_555 1_555
C8_2 C7_2 1_555 1_555
H10_2 C8_2 1_555 1_555
C9_2 C8_2 1_555 1_555
C11_2 C9_2 1_555 1_555
C12_2 C7_2 1_555 1_555
O21 C11_2 1_555 1_555
O22 C11_2 1_555 1_555
O23 C12_2 1_555 1_555
O24 C12_2 1_555 1_555
C9_2 C10_2 1_555 1_555
H16_2 C21_2 1_555 1_555
C22_2 C21_2 1_555 1_555
H17_2 C22_2 1_555 1_555
H18_2 C22_2 1_555 1_555
C23_2 C22_2 1_555 1_555
H19_2 C23_2 1_555 1_555
H20_2 C23_2 1_555 1_555
C24_2 C23_2 1_555 1_555
H21_2 C24_2 1_555 1_555
H22_2 C24_2 1_555 1_555
C25_2 C26_2 1_555 1_555
C26_2 H23_2 1_555 1_555
C27_2 C26_2 1_555 1_555
C28_2 C27_2 1_555 1_555
H24_2 C28_2 1_555 1_555
C29_2 C28_2 1_555 1_555
C30_2 C25_2 1_555 1_555
H25_2 C30_2 1_555 1_555
C31_2 C29_2 1_555 1_555
C32_2 C27_2 1_555 1_555
O10_2 C16_2 1_555 1_555
O11_2 C24_2 1_555 1_555
O12 C31_2 1_555 1_555
O13 C31_2 1_555 1_555
O29 C32_2 1_555 1_555
O30 C32_2 1_555 1_555
In3 O12 1_555 1_555
C21_2 O10_2 1_555 1_555
C25_2 O11_2 1_555 1_555
C29_2 C30_2 1_555 1_555
O13 In3 1_555 1_555
C18_2 C17_2 1_555 1_555
H14_2 C19_2 1_555 1_555
C20_2 C18_2 1_555 1_555
O25 C20_2 1_555 1_555
O26 C20_2 1_555 1_555
C18_2 C19_2 1_555 1_555
C13_2 C14_2 1_555 1_555
O6_2 C13_2 1_555 1_555
O7_2 C13_2 1_555 1_555
In3 O6_2 1_555 1_555
O7_2 In3 1_555 1_555
O17_2 In3 1_555 1_555
C41 H29 1_555 1_555
C41 H31 1_555 1_555
C42 H32 1_555 1_555
C42 H34 1_555 1_555
N1 H40 1_555 1_555
N1 H41 1_555 1_555
N1_2 H40_2 1_555 1_555
N1_2 H41_2 1_555 1_555
C41_2 H29_2 1_555 1_555
C41_2 H31_2 1_555 1_555
C42_2 H32_2 1_555 1_555
C42_2 H34_2 1_555 1_555
C43 N2 1_555 1_555
C44 N2 1_555 1_555
C44 H35 1_555 1_555
C44 H36 1_555 1_555
C44 H37 1_555 1_555
N2 H38 1_555 1_555
N2 H39 1_555 1_555
C43 H42 1_555 1_555
C43 H43 1_555 1_555
C43 H44 1_555 1_555
C43_2 N2_2 1_555 1_555
C44_2 N2_2 1_555 1_555
C44_2 H35_2 1_555 1_555
C44_2 H36_2 1_555 1_555
C44_2 H37_2 1_555 1_555
N2_2 H38_2 1_555 1_555
N2_2 H39_2 1_555 1_555
C43_2 H42_2 1_555 1_555
C43_2 H43_2 1_555 1_555
C43_2 H44_2 1_555 1_555

#END
