
###############################################################################
#
# This file contains modified crystal structure data generated from the
# MOF subset of the Cambridge Structural Database (CSD) v543 
# hosted by the Cambridge Crystallographic Data Centre (CCDC).
#
# This work is licensed under the Creative Commons
# Attribution-NonCommercial-ShareAlike 4.0 International License.
# To view a copy of this license, visit
# http://creativecommons.org/licenses/by-nc-sa/4.0/
# or send a letter to
# Creative Commons, PO Box 1866, Mountain View, CA 94042, USA.
#
# CIF created using the CSD Python API on 29 September 2022
# The structure has been converted into the P1 space group
# The structure has a 3D framework
# The original CSD entry UQETUI is in the orthorhombic crystal system
# The original CSD entry UQETUI is in a Sohncke space group
# The framework has been calculated to contain at least 10.0% void space
# The void calculation uses a probe of radius 1.32A, grid spacing 0.4
#
###############################################################################

data_UQETUI
_chemical_formula_moiety         '(C28 H24 N22 O23 Zn11)n'
_symmetry_cell_setting           triclinic
_symmetry_space_group_name_H-M   'P 1'
_symmetry_Int_Tables_number      1
_space_group_name_Hall           'P 1'
loop_
_symmetry_equiv_pos_site_id
_symmetry_equiv_pos_as_xyz
1 x,y,z
_cell_length_a                   7.77691(18)
_cell_length_b                   11.2145(2)
_cell_length_c                   20.8454(4)
_cell_angle_alpha                90
_cell_angle_beta                 90
_cell_angle_gamma                90
_cell_volume                     1818.01
loop_
_atom_site_label
_atom_site_type_symbol
_atom_site_fract_x
_atom_site_fract_y
_atom_site_fract_z
N1 N 0.0326(7) 0.0628(5) 0.6257(3)
Zn7 Zn 0.27287(10) 0.04491(7) 0.59079(4)
Zn2 Zn 0.57092(10) 0.25852(7) 0.62794(4)
O2 O 0.3743(6) 0.2008(4) 0.5810(2)
H2 H 0.3730 0.2250 0.5406
O3 O 0.6863(6) 0.3370(4) 0.5389(2)
O4 O 0.7444(6) 0.5180(4) 0.49854(19)
O5 O 0.6555(6) 0.8067(4) 0.7319(2)
O6 O 0.5242(6) 0.6694(4) 0.7914(2)
N2 N 0.7791(7) 0.0407(5) 0.6718(2)
N3 N 0.7781(7) 0.1474(5) 0.6377(2)
N5 N 0.5908(7) 0.4330(4) 0.6523(2)
N6 N 0.5629(7) 0.5009(4) 0.7043(2)
C2 C 0.9298(9) 0.1565(5) 0.6118(3)
H5 H 0.9638 0.2205 0.5865
C3 C 0.7003(8) 0.4482(5) 0.5436(3)
C4 C 0.6624(8) 0.5033(5) 0.6068(3)
C5 C 0.6841(8) 0.6185(6) 0.6295(3)
H6 H 0.7309 0.6840 0.6084
C6 C 0.6190(8) 0.6125(5) 0.6914(3)
C7 C 0.5984(8) 0.7049(5) 0.7411(3)
Zn4 Zn 0.55507(10) 0.97450(6) 0.70947(3)
Zn5 Zn 0.44493(10) 0.47450(6) 0.79053(3)
Zn6 Zn 0.42908(10) 0.75852(7) 0.87206(4)
Zn8 Zn 0.77287(10) 0.45509(7) 0.40921(4)
O9 O 0.4758(6) 0.1694(4) 0.7086(2)
N8 N 0.4371(7) 0.0009(4) 0.7957(2)
O1 O 0.4107(6) 0.9343(4) 0.6379(2)
H1 H 0.3713 0.8612 0.6384
N4 N 0.9870(8) 0.8903(6) 0.6905(3)
H3 H 0.9003 0.8437 0.6984
C1 C 0.9349(9) 0.9931(5) 0.6631(3)
O7 O 0.2444(6) 0.9820(4) 0.50146(19)
Zn3 Zn 0.22713(10) 0.95509(7) 0.09079(4)
O2_2 O 0.1257(6) 0.7992(4) 0.0810(2)
H2_2 H 0.1270 0.7750 0.0406
Zn5_2 Zn 0.05507(10) 0.52550(6) 0.29053(3)
Zn6_2 Zn 0.07092(10) 0.24148(7) 0.37206(4)
O9_2 O 0.0242(6) 0.8306(4) 0.2086(2)
N7 N 0.4674(7) 0.9372(5) 0.1257(3)
N8_2 N 0.0629(7) 0.9991(4) 0.2957(2)
Zn1 Zn 0.94493(10) 0.02550(6) 0.20947(3)
N4_2 N 0.5130(8) 0.1097(6) 0.1905(3)
H3_2 H 0.5997 0.1563 0.1984
H4 H 0.4442 0.1467 0.1644
C1_2 C 0.5651(9) 0.0069(5) 0.1631(3)
O8 O 0.8445(6) 0.1933(4) 0.2319(2)
Zn2_2 Zn 0.92908(10) 0.74148(7) 0.12794(4)
O3_2 O 0.8137(6) 0.6630(4) 0.0389(2)
O6_2 O 0.9758(6) 0.3306(4) 0.2914(2)
N2_2 N 0.7209(7) 0.9593(5) 0.1718(2)
N3_2 N 0.7219(7) 0.8526(5) 0.1377(2)
N5_2 N 0.9092(7) 0.5670(4) 0.1523(2)
N6_2 N 0.9371(7) 0.4991(4) 0.2043(2)
C2_2 C 0.5702(9) 0.8435(5) 0.1118(3)
H5_2 H 0.5362 0.7795 0.0865
C3_2 C 0.7997(8) 0.5518(5) 0.0436(3)
C4_2 C 0.8376(8) 0.4967(5) 0.1068(3)
C5_2 C 0.8159(8) 0.3815(6) 0.1295(3)
H6_2 H 0.7691 0.3160 0.1084
C6_2 C 0.8810(8) 0.3875(5) 0.1914(3)
C7_2 C 0.9016(8) 0.2951(5) 0.2411(3)
O4_2 O 0.7556(6) 0.4820(4) 0.99854(19)
Zn8_2 Zn 0.72713(10) 0.54491(7) 0.90921(4)
O5_2 O 0.3445(6) 0.3067(4) 0.7681(2)
C4_3 C 0.3376(8) 0.0033(5) 0.8932(3)
C5_3 C 0.3159(8) 0.1185(6) 0.8705(3)
H6_3 H 0.2691 0.1840 0.8916
C6_3 C 0.3810(8) 0.1125(5) 0.8086(3)
C7_3 C 0.4016(8) 0.2049(5) 0.7589(3)
O1_2 O 0.5893(6) 0.4343(4) 0.8621(2)
H1_2 H 0.6287 0.3612 0.8616
O2_3 O 0.6257(6) 0.7008(4) 0.9190(2)
H2_3 H 0.6270 0.7250 0.9594
O3_3 O 0.3137(6) 0.8370(4) 0.9611(2)
N2_3 N 0.2209(7) 0.5407(5) 0.8282(2)
N3_3 N 0.2219(7) 0.6474(5) 0.8623(2)
N4_3 N 0.0130(8) 0.3903(6) 0.8095(3)
H3_3 H 0.0997 0.3437 0.8016
N5_3 N 0.4092(7) 0.9330(4) 0.8477(2)
C1_3 C 0.0651(9) 0.4931(5) 0.8369(3)
C2_3 C 0.0702(9) 0.6565(5) 0.8882(3)
H5_3 H 0.0362 0.7205 0.9135
C3_3 C 0.2997(8) 0.9482(5) 0.9564(3)
N7_2 N 0.9674(7) 0.5628(5) 0.8743(3)
H4_2 H 0.9442 0.3533 0.8356
O3_4 O 0.1863(6) 0.1630(4) 0.4611(2)
N1_2 N 0.5326(7) 0.4372(5) 0.3743(3)
N2_4 N 0.2791(7) 0.4593(5) 0.3282(2)
N3_4 N 0.2781(7) 0.3526(5) 0.3623(2)
N4_4 N 0.4870(8) 0.6097(6) 0.3095(3)
H3_4 H 0.4003 0.6563 0.3016
H4_3 H 0.5558 0.6467 0.3356
N5_4 N 0.0908(7) 0.0670(4) 0.3477(2)
C1_4 C 0.4349(9) 0.5069(5) 0.3369(3)
C2_4 C 0.4298(9) 0.3435(5) 0.3882(3)
H5_4 H 0.4638 0.2795 0.4135
C3_4 C 0.2003(8) 0.0518(5) 0.4564(3)
O8_2 O 0.1555(6) 0.6933(4) 0.2681(2)
C4_4 C 0.1624(8) 0.9967(5) 0.3932(3)
C5_4 C 0.1841(8) 0.8815(6) 0.3705(3)
H6_4 H 0.2309 0.8160 0.3916
C6_4 C 0.1190(8) 0.8875(5) 0.3086(3)
C7_4 C 0.0984(8) 0.7951(5) 0.2589(3)
O1_3 O 0.9107(6) 0.5657(4) 0.3621(2)
H1_3 H 0.8713 0.6388 0.3616
O2_4 O 0.8743(6) 0.2992(4) 0.4190(2)
H2_4 H 0.8730 0.2750 0.4594
H4_4 H 0.0558 0.8533 0.6644
O1_4 O 0.0893(6) 0.0657(4) 0.1379(2)
H1_4 H 0.1287 0.1388 0.1384
O7_2 O 0.2556(6) 0.0180(4) 0.00146(19)
loop_
_geom_bond_atom_site_label_1
_geom_bond_atom_site_label_2
_geom_bond_site_symmetry_1
_geom_bond_site_symmetry_2
Zn7 N1 1_555 1_555
Zn2 O2 1_555 1_555
O2 Zn7 1_555 1_555
H2 O2 1_555 1_555
O3 Zn2 1_555 1_555
O4 C3 1_555 1_555
O5 C7 1_555 1_555
O6 C7 1_555 1_555
N3 Zn2 1_555 1_555
N5 Zn2 1_555 1_555
N6 N5 1_555 1_555
H5 C2 1_555 1_555
C3 O3 1_555 1_555
C4 N5 1_555 1_555
C5 C4 1_555 1_555
H6 C5 1_555 1_555
C6 N6 1_555 1_555
C7 C6 1_555 1_555
Zn4 O5 1_555 1_555
Zn5 O6 1_555 1_555
Zn6 O6 1_555 1_555
Zn8 O4 1_555 1_555
Zn2 O9 1_555 1_555
N2 N3 1_555 1_555
N3 C2 1_555 1_555
N6 Zn5 1_555 1_555
C3 C4 1_555 1_555
C5 C6 1_555 1_555
Zn4 O1 1_555 1_555
O1 H1 1_555 1_555
N4 H3 1_555 1_555
N4 C1 1_555 1_555
O2_2 Zn3 1_555 1_555
H2_2 O2_2 1_555 1_555
N7 Zn3 1_555 1_555
N4_2 H3_2 1_555 1_555
H4 N4_2 1_555 1_555
O8 Zn1 1_555 1_555
N4_2 C1_2 1_555 1_555
O3_2 Zn2_2 1_555 1_555
O8 C7_2 1_555 1_555
O6_2 C7_2 1_555 1_555
N3_2 Zn2_2 1_555 1_555
N5_2 Zn2_2 1_555 1_555
N6_2 N5_2 1_555 1_555
C2_2 N7 1_555 1_555
H5_2 C2_2 1_555 1_555
C3_2 O3_2 1_555 1_555
C4_2 N5_2 1_555 1_555
C5_2 C4_2 1_555 1_555
H6_2 C5_2 1_555 1_555
C6_2 N6_2 1_555 1_555
C7_2 C6_2 1_555 1_555
N2_2 N3_2 1_555 1_555
N3_2 C2_2 1_555 1_555
C3_2 C4_2 1_555 1_555
C5_2 C6_2 1_555 1_555
Zn8_2 O4_2 1_555 1_555
O5_2 C7_3 1_555 1_555
O9 C7_3 1_555 1_555
C5_3 C4_3 1_555 1_555
H6_3 C5_3 1_555 1_555
C6_3 N8 1_555 1_555
C7_3 C6_3 1_555 1_555
Zn5 O5_2 1_555 1_555
C5_3 C6_3 1_555 1_555
Zn5 O1_2 1_555 1_555
Zn6 O2_3 1_555 1_555
Zn8_2 O1_2 1_555 1_555
O1_2 H1_2 1_555 1_555
O2_3 Zn8_2 1_555 1_555
H2_3 O2_3 1_555 1_555
O3_3 Zn6 1_555 1_555
N2_3 Zn5 1_555 1_555
N3_3 Zn6 1_555 1_555
N4_3 H3_3 1_555 1_555
N5_3 Zn6 1_555 1_555
C1_3 N2_3 1_555 1_555
H5_3 C2_3 1_555 1_555
C3_3 O3_3 1_555 1_555
N7_2 Zn8_2 1_555 1_555
N2_3 N3_3 1_555 1_555
N3_3 C2_3 1_555 1_555
N4_3 C1_3 1_555 1_555
O3_4 Zn6_2 1_555 1_555
N1_2 C1_4 1_555 1_555
N2_4 Zn5_2 1_555 1_555
N3_4 Zn6_2 1_555 1_555
N4_4 H3_4 1_555 1_555
H4_3 N4_4 1_555 1_555
N5_4 Zn6_2 1_555 1_555
C1_4 N2_4 1_555 1_555
C2_4 N1_2 1_555 1_555
H5_4 C2_4 1_555 1_555
C3_4 O3_4 1_555 1_555
Zn8 N1_2 1_555 1_555
O8_2 Zn5_2 1_555 1_555
N2_4 N3_4 1_555 1_555
N3_4 C2_4 1_555 1_555
N4_4 C1_4 1_555 1_555
O8_2 C7_4 1_555 1_555
O9_2 C7_4 1_555 1_555
C5_4 C4_4 1_555 1_555
H6_4 C5_4 1_555 1_555
C6_4 N8_2 1_555 1_555
C7_4 C6_4 1_555 1_555
C5_4 C6_4 1_555 1_555
Zn8 O1_3 1_555 1_555
O1_3 H1_3 1_555 1_555
O2_4 Zn8 1_555 1_555
H2_4 O2_4 1_555 1_555
O1_4 H1_4 1_555 1_555

#END
