
###############################################################################
#
# This file contains modified crystal structure data generated from the
# MOF subset of the Cambridge Structural Database (CSD) v543 
# hosted by the Cambridge Crystallographic Data Centre (CCDC).
#
# This work is licensed under the Creative Commons
# Attribution-NonCommercial-ShareAlike 4.0 International License.
# To view a copy of this license, visit
# http://creativecommons.org/licenses/by-nc-sa/4.0/
# or send a letter to
# Creative Commons, PO Box 1866, Mountain View, CA 94042, USA.
#
# CIF created using the CSD Python API on 29 September 2022
# The structure has been converted into the P1 space group
# The structure has a 3D framework
# The original CSD entry UQEVOE is in the orthorhombic crystal system
# The original CSD entry UQEVOE is in a Sohncke space group
# The framework has been calculated to contain at least 10.0% void space
# The void calculation uses a probe of radius 1.32A, grid spacing 0.4
#
###############################################################################

data_UQEVOE
_chemical_formula_moiety         '(C28 H24 N22 O24 Zn12)n'
_symmetry_cell_setting           triclinic
_symmetry_space_group_name_H-M   'P 1'
_symmetry_Int_Tables_number      1
_space_group_name_Hall           'P 1'
loop_
_symmetry_equiv_pos_site_id
_symmetry_equiv_pos_as_xyz
1 x,y,z
_cell_length_a                   7.5483(2)
_cell_length_b                   10.7923(2)
_cell_length_c                   18.4266(4)
_cell_angle_alpha                90
_cell_angle_beta                 90
_cell_angle_gamma                90
_cell_volume                     1501.1
loop_
_atom_site_label
_atom_site_type_symbol
_atom_site_fract_x
_atom_site_fract_y
_atom_site_fract_z
N1 N 0.0873(8) 0.1787(5) 0.6296(3)
H5 H 0.0189 0.3414 0.5855
Zn7 Zn 0.31197(12) 0.13522(7) 0.57708(4)
Zn4 Zn 0.58977(12) 0.08164(6) 0.71720(4)
Zn2 Zn 0.60191(12) 0.36533(7) 0.61388(4)
O1 O 0.4355(6) 0.0222(4) 0.6398(2)
O2 O 0.4352(7) 0.2857(4) 0.5504(2)
H2 H 0.3656 0.3383 0.5276
O3 O 0.7486(6) 0.4478(4) 0.5165(2)
O4 O 0.8938(10) 0.6228(5) 0.4881(3)
O5 O 0.7003(6) 0.9149(3) 0.7501(2)
O6 O 0.5105(6) 0.7776(4) 0.7972(2)
N2 N 0.8195(7) 0.1501(4) 0.6779(3)
N3 N 0.8222(8) 0.2625(4) 0.6386(3)
N5 N 0.6207(8) 0.5446(4) 0.6382(3)
N6 N 0.5733(7) 0.6116(4) 0.6965(3)
C1 C 0.9824(10) 0.1043(5) 0.6699(4)
C2 C 0.9819(9) 0.2738(5) 0.6129(3)
C3 C 0.8002(10) 0.5614(6) 0.5275(3)
C4 C 0.7294(10) 0.6147(5) 0.5971(3)
C5 C 0.7545(10) 0.7289(6) 0.6286(4)
H6 H 0.8223 0.7948 0.6116
C6 C 0.6550(9) 0.7224(5) 0.6914(3)
C7 C 0.6222(8) 0.8119(5) 0.7500(3)
Zn5 Zn 0.41023(12) 0.58164(6) 0.78280(4)
Zn6 Zn 0.39809(12) 0.86533(7) 0.88612(4)
Zn8 Zn 0.81197(12) 0.36478(7) 0.42292(4)
O7 O 0.2486(6) 0.0522(4) 0.4835(2)
O9 O 0.4895(6) 0.2776(4) 0.7028(2)
N8 N 0.4267(7) 0.1116(4) 0.8035(3)
H1 H 0.4885 0.9615 0.6152
H3 H 0.9546 0.9470 0.7125
Zn3 Zn 0.18803(12) 0.86478(7) 0.07708(4)
O1_2 O 0.0645(6) 0.9778(4) 0.1398(2)
O2_2 O 0.0648(7) 0.7143(4) 0.0504(2)
H2_2 H 0.1344 0.6617 0.0276
Zn5_2 Zn 0.08977(12) 0.41836(6) 0.28280(4)
Zn6_2 Zn 0.10191(12) 0.13467(7) 0.38612(4)
O9_2 O 0.0105(6) 0.7224(4) 0.2028(2)
N7 N 0.4127(8) 0.8213(5) 0.1296(3)
N8_2 N 0.0733(7) 0.8884(4) 0.3035(3)
O7_2 O 0.2514(6) 0.9478(4) 0.9835(2)
N4 N 0.4590(9) 0.0017(6) 0.2001(4)
H3_2 H 0.5454 0.0530 0.2125
H4 H 0.3892 0.0425 0.1701
O8 O 0.7997(6) 0.0851(3) 0.2501(2)
Zn1 Zn 0.91023(12) 0.91836(6) 0.21720(4)
Zn2_2 Zn 0.89809(12) 0.63467(7) 0.11388(4)
O3_2 O 0.7514(6) 0.5522(4) 0.0165(2)
O6_2 O 0.9895(6) 0.2224(4) 0.2972(2)
N2_2 N 0.6805(7) 0.8499(4) 0.1779(3)
N3_2 N 0.6778(8) 0.7375(4) 0.1386(3)
N5_2 N 0.8793(8) 0.4554(4) 0.1382(3)
N6_2 N 0.9267(7) 0.3884(4) 0.1965(3)
C1_2 C 0.5176(10) 0.8957(5) 0.1699(4)
C2_2 C 0.5181(9) 0.7262(5) 0.1129(3)
H5_2 H 0.4811 0.6586 0.0855
C3_2 C 0.6998(10) 0.4386(6) 0.0275(3)
C4_2 C 0.7706(10) 0.3853(5) 0.0971(3)
C5_2 C 0.7455(10) 0.2711(6) 0.1286(4)
H6_2 H 0.6777 0.2052 0.1116
C6_2 C 0.8450(9) 0.2776(5) 0.1914(3)
C7_2 C 0.8778(8) 0.1881(5) 0.2500(3)
O4_2 O 0.6062(10) 0.3772(5) 0.9881(3)
Zn8_2 Zn 0.68803(12) 0.63522(7) 0.92292(4)
O5_2 O 0.2997(6) 0.4149(3) 0.7499(2)
N5_3 N 0.3793(8) 0.0446(4) 0.8618(3)
C3_3 C 0.1998(10) 0.0614(6) 0.9725(3)
C4_3 C 0.2706(10) 0.1147(5) 0.9029(3)
C5_3 C 0.2455(10) 0.2289(6) 0.8714(4)
H6_3 H 0.1777 0.2948 0.8884
C6_3 C 0.3450(9) 0.2224(5) 0.8086(3)
C7_3 C 0.3778(8) 0.3119(5) 0.7500(3)
O1_3 O 0.5645(6) 0.5222(4) 0.8602(2)
H1_2 H 0.5115 0.4615 0.8848
O2_3 O 0.5648(7) 0.7857(4) 0.9496(2)
H2_3 H 0.6344 0.8383 0.9724
N2_3 N 0.1805(7) 0.6501(4) 0.8221(3)
N3_3 N 0.1778(8) 0.7625(4) 0.8614(3)
H3_3 H 0.0454 0.4470 0.7875
C1_3 C 0.0176(10) 0.6043(5) 0.8301(4)
C2_3 C 0.0181(9) 0.7738(5) 0.8871(3)
N7_2 N 0.9127(8) 0.6787(5) 0.8704(3)
N4_2 N 0.9590(9) 0.4983(6) 0.7999(4)
H4_2 H 0.8892 0.4575 0.8299
H5_3 H 0.9811 0.8414 0.9145
N1_2 N 0.5873(8) 0.3213(5) 0.3704(3)
N2_4 N 0.3195(7) 0.3499(4) 0.3221(3)
N3_4 N 0.3222(8) 0.2375(4) 0.3614(3)
N4_3 N 0.5410(9) 0.5017(6) 0.2999(4)
H3_4 H 0.4546 0.5530 0.2875
H4_3 H 0.6108 0.5425 0.3299
C1_4 C 0.4824(10) 0.3957(5) 0.3301(4)
C2_4 C 0.4819(9) 0.2262(5) 0.3871(3)
H5_4 H 0.5189 0.1586 0.4145
O8_2 O 0.2003(6) 0.5851(3) 0.2499(2)
O4_3 O 0.3938(10) 0.8772(5) 0.5119(3)
N5_4 N 0.1207(8) 0.9554(4) 0.3618(3)
C3_4 C 0.3002(10) 0.9386(6) 0.4725(3)
C4_4 C 0.2294(10) 0.8853(5) 0.4029(3)
C5_4 C 0.2545(10) 0.7711(6) 0.3714(4)
H6_4 H 0.3223 0.7052 0.3884
C6_4 C 0.1550(9) 0.7776(5) 0.3086(3)
C7_4 C 0.1222(8) 0.6881(5) 0.2500(3)
O1_4 O 0.9355(6) 0.4778(4) 0.3602(2)
H1_3 H 0.9885 0.5385 0.3848
O2_4 O 0.9352(7) 0.2143(4) 0.4496(2)
H2_4 H 0.8656 0.1617 0.4724
N4_4 N 0.0410(9) 0.9983(6) 0.7001(4)
H4_4 H 0.1108 0.9575 0.6701
H1_4 H 0.0115 0.0385 0.1152
O4_4 O 0.1062(10) 0.1228(5) 0.0119(3)
loop_
_geom_bond_atom_site_label_1
_geom_bond_atom_site_label_2
_geom_bond_site_symmetry_1
_geom_bond_site_symmetry_2
Zn7 N1 1_555 1_555
Zn4 O1 1_555 1_555
Zn2 O2 1_555 1_555
Zn7 O1 1_555 1_555
O2 Zn7 1_555 1_555
H2 O2 1_555 1_555
O3 Zn2 1_555 1_555
O4 C3 1_555 1_555
O5 C7 1_555 1_555
O6 C7 1_555 1_555
N2 Zn4 1_555 1_555
N3 Zn2 1_555 1_555
N5 Zn2 1_555 1_555
N6 N5 1_555 1_555
C1 N2 1_555 1_555
C3 O3 1_555 1_555
C4 N5 1_555 1_555
C5 C4 1_555 1_555
H6 C5 1_555 1_555
C6 N6 1_555 1_555
C7 C6 1_555 1_555
Zn5 O6 1_555 1_555
Zn6 O6 1_555 1_555
Zn8 O3 1_555 1_555
O7 Zn7 1_555 1_555
O9 Zn4 1_555 1_555
N8 Zn4 1_555 1_555
Zn2 O9 1_555 1_555
N2 N3 1_555 1_555
N3 C2 1_555 1_555
N6 Zn5 1_555 1_555
C3 C4 1_555 1_555
C5 C6 1_555 1_555
Zn3 O1_2 1_555 1_555
O2_2 Zn3 1_555 1_555
H2_2 O2_2 1_555 1_555
N7 Zn3 1_555 1_555
N4 H3_2 1_555 1_555
H4 N4 1_555 1_555
O3_2 Zn2_2 1_555 1_555
O8 C7_2 1_555 1_555
O6_2 C7_2 1_555 1_555
N7 C1_2 1_555 1_555
N2_2 Zn1 1_555 1_555
N3_2 Zn2_2 1_555 1_555
N5_2 Zn2_2 1_555 1_555
N6_2 N5_2 1_555 1_555
C1_2 N2_2 1_555 1_555
C2_2 N7 1_555 1_555
H5_2 C2_2 1_555 1_555
C3_2 O3_2 1_555 1_555
C4_2 N5_2 1_555 1_555
C5_2 C4_2 1_555 1_555
H6_2 C5_2 1_555 1_555
C6_2 N6_2 1_555 1_555
C7_2 C6_2 1_555 1_555
N2_2 N3_2 1_555 1_555
N3_2 C2_2 1_555 1_555
C3_2 C4_2 1_555 1_555
C5_2 C6_2 1_555 1_555
O5_2 C7_3 1_555 1_555
O9 C7_3 1_555 1_555
N8 N5_3 1_555 1_555
C4_3 N5_3 1_555 1_555
C5_3 C4_3 1_555 1_555
H6_3 C5_3 1_555 1_555
C6_3 N8 1_555 1_555
C7_3 C6_3 1_555 1_555
Zn5 O5_2 1_555 1_555
C3_3 C4_3 1_555 1_555
C5_3 C6_3 1_555 1_555
Zn5 O1_3 1_555 1_555
Zn6 O2_3 1_555 1_555
Zn8_2 O1_3 1_555 1_555
O1_3 H1_2 1_555 1_555
O2_3 Zn8_2 1_555 1_555
H2_3 O2_3 1_555 1_555
O7_2 Zn6 1_555 1_555
N2_3 Zn5 1_555 1_555
N3_3 Zn6 1_555 1_555
C1_3 N2_3 1_555 1_555
N7_2 Zn8_2 1_555 1_555
N2_3 N3_3 1_555 1_555
N3_3 C2_3 1_555 1_555
H4_2 N4_2 1_555 1_555
O7 Zn6_2 1_555 1_555
N1_2 C1_4 1_555 1_555
N2_4 Zn5_2 1_555 1_555
N3_4 Zn6_2 1_555 1_555
N4_3 H3_4 1_555 1_555
H4_3 N4_3 1_555 1_555
C1_4 N2_4 1_555 1_555
C2_4 N1_2 1_555 1_555
H5_4 C2_4 1_555 1_555
Zn8 N1_2 1_555 1_555
O8_2 Zn5_2 1_555 1_555
N2_4 N3_4 1_555 1_555
N3_4 C2_4 1_555 1_555
N4_3 C1_4 1_555 1_555
O4_3 C3_4 1_555 1_555
O8_2 C7_4 1_555 1_555
O9_2 C7_4 1_555 1_555
N8_2 N5_4 1_555 1_555
C4_4 N5_4 1_555 1_555
C5_4 C4_4 1_555 1_555
H6_4 C5_4 1_555 1_555
C6_4 N8_2 1_555 1_555
C7_4 C6_4 1_555 1_555
C3_4 C4_4 1_555 1_555
C5_4 C6_4 1_555 1_555
Zn8 O1_4 1_555 1_555
O1_4 H1_3 1_555 1_555
O2_4 Zn8 1_555 1_555
H2_4 O2_4 1_555 1_555
H4_4 N4_4 1_555 1_555

#END
