
###############################################################################
#
# This file contains modified crystal structure data generated from the
# MOF subset of the Cambridge Structural Database (CSD) v543 
# hosted by the Cambridge Crystallographic Data Centre (CCDC).
#
# This work is licensed under the Creative Commons
# Attribution-NonCommercial-ShareAlike 4.0 International License.
# To view a copy of this license, visit
# http://creativecommons.org/licenses/by-nc-sa/4.0/
# or send a letter to
# Creative Commons, PO Box 1866, Mountain View, CA 94042, USA.
#
# CIF created using the CSD Python API on 29 September 2022
# The structure has been converted into the P1 space group
# The structure has a 3D framework
# The original CSD entry UQEVAQ is in the orthorhombic crystal system
# The original CSD entry UQEVAQ is in a Sohncke space group
# The framework has been calculated to contain at least 10.0% void space
# The void calculation uses a probe of radius 1.32A, grid spacing 0.4
#
###############################################################################

data_UQEVAQ
_chemical_formula_moiety         '(C28 H20 N18 O23 Zn11)n'
_symmetry_cell_setting           triclinic
_symmetry_space_group_name_H-M   'P 1'
_symmetry_Int_Tables_number      1
_space_group_name_Hall           'P 1'
loop_
_symmetry_equiv_pos_site_id
_symmetry_equiv_pos_as_xyz
1 x,y,z
_cell_length_a                   7.7751(2)
_cell_length_b                   11.1013(3)
_cell_length_c                   20.8312(5)
_cell_angle_alpha                90
_cell_angle_beta                 90
_cell_angle_gamma                90
_cell_volume                     1798.02
loop_
_atom_site_label
_atom_site_type_symbol
_atom_site_fract_x
_atom_site_fract_y
_atom_site_fract_z
N1 N 0.0035(15) 0.0818(12) 0.6241(7)
Zn7 Zn 0.2452(2) 0.05750(17) 0.59124(8)
Zn2 Zn 0.5397(2) 0.27985(15) 0.62649(8)
O2 O 0.3476(14) 0.2120(10) 0.5818(5)
H2 H 0.3403 0.2400 0.5412
O3 O 0.6457(14) 0.3538(9) 0.5345(5)
O4 O 0.7277(15) 0.5273(8) 0.4923(4)
O5 O 0.6567(13) 0.8332(8) 0.7227(5)
O6 O 0.5479(14) 0.6941(8) 0.7889(5)
N2 N 0.7527(17) 0.0633(12) 0.6695(6)
N3 N 0.7483(17) 0.1691(11) 0.6344(6)
N4 N 0.5792(15) 0.4569(10) 0.6479(5)
N5 N 0.5582(15) 0.5240(9) 0.6999(5)
C1 C 0.9037(18) 0.0185(15) 0.6613(7)
C2 C 0.9059(19) 0.1765(13) 0.6089(8)
H4 H 0.9432 0.2403 0.5835
C3 C 0.6744(19) 0.4638(13) 0.5378(6)
C4 C 0.6429(19) 0.5240(11) 0.6008(6)
C5 C 0.671(2) 0.6399(13) 0.6224(7)
H5 H 0.7165 0.7047 0.5997
C6 C 0.6173(18) 0.6373(13) 0.6855(7)
C7 C 0.6085(17) 0.7289(12) 0.7357(6)
Zn4 Zn 0.5353(2) 0.99605(16) 0.71180(8)
Zn5 Zn 0.4647(2) 0.49605(16) 0.78820(8)
Zn6 Zn 0.4603(2) 0.77985(15) 0.87351(8)
Zn8 Zn 0.7452(2) 0.44250(17) 0.40876(8)
O9 O 0.4521(14) 0.1941(8) 0.7111(5)
N7 N 0.4418(15) 0.0240(9) 0.8001(5)
O1 O 0.3699(14) 0.9508(9) 0.6469(5)
H1 H 0.3058 0.8885 0.6597
H3 H 0.9387 0.9469 0.6805
O7 O 0.2277(15) 0.9727(8) 0.5077(4)
Zn3 Zn 0.2548(2) 0.94250(17) 0.09124(8)
O2_2 O 0.1524(14) 0.7880(10) 0.0818(5)
H2_2 H 0.1597 0.7600 0.0412
Zn5_2 Zn 0.0353(2) 0.50395(16) 0.28820(8)
Zn6_2 Zn 0.0397(2) 0.22015(15) 0.37351(8)
O9_2 O 0.0479(14) 0.8059(8) 0.2111(5)
N6 N 0.4965(15) 0.9182(12) 0.1241(7)
N7_2 N 0.0582(15) 0.9760(9) 0.3001(5)
Zn1 Zn 0.9647(2) 0.00395(16) 0.21180(8)
H3_2 H 0.5613 0.0531 0.1805
O8 O 0.8433(13) 0.1668(8) 0.2227(5)
Zn2_2 Zn 0.9603(2) 0.72015(15) 0.12649(8)
O3_2 O 0.8543(14) 0.6462(9) 0.0345(5)
O6_2 O 0.9521(14) 0.3059(8) 0.2889(5)
N2_2 N 0.7473(17) 0.9367(12) 0.1695(6)
N3_2 N 0.7517(17) 0.8309(11) 0.1344(6)
N4_2 N 0.9208(15) 0.5431(10) 0.1479(5)
N5_2 N 0.9418(15) 0.4760(9) 0.1999(5)
C1_2 C 0.5963(18) 0.9815(15) 0.1613(7)
C2_2 C 0.5941(19) 0.8235(13) 0.1089(8)
H4_2 H 0.5568 0.7597 0.0835
C3_2 C 0.8256(19) 0.5362(13) 0.0378(6)
C4_2 C 0.8571(19) 0.4760(11) 0.1008(6)
C5_2 C 0.829(2) 0.3601(13) 0.1224(7)
H5_2 H 0.7835 0.2953 0.0997
C6_2 C 0.8827(18) 0.3627(13) 0.1855(7)
C7_2 C 0.8915(17) 0.2711(12) 0.2357(6)
O4_2 O 0.7723(15) 0.4727(8) 0.9923(4)
Zn8_2 Zn 0.7548(2) 0.55750(17) 0.90876(8)
O5_2 O 0.3433(13) 0.3332(8) 0.7773(5)
C4_3 C 0.3571(19) 0.0240(11) 0.8992(6)
C5_3 C 0.329(2) 0.1399(13) 0.8776(7)
H5_3 H 0.2835 0.2047 0.9003
C6_3 C 0.3827(18) 0.1373(13) 0.8145(7)
C7_3 C 0.3915(17) 0.2289(12) 0.7643(6)
O1_2 O 0.6301(14) 0.4508(9) 0.8531(5)
H1_2 H 0.6942 0.3885 0.8403
O2_3 O 0.6524(14) 0.7120(10) 0.9182(5)
H2_3 H 0.6597 0.7400 0.9588
O3_3 O 0.3543(14) 0.8538(9) 0.9655(5)
N2_3 N 0.2473(17) 0.5633(12) 0.8305(6)
N3_3 N 0.2517(17) 0.6691(11) 0.8656(6)
N4_3 N 0.4208(15) 0.9569(10) 0.8521(5)
C1_3 C 0.0963(18) 0.5185(15) 0.8387(7)
H3_3 H 0.0613 0.4469 0.8195
C2_3 C 0.0941(19) 0.6765(13) 0.8911(8)
H4_3 H 0.0568 0.7403 0.9165
C3_3 C 0.3256(19) 0.9638(13) 0.9622(6)
N6_2 N 0.9965(15) 0.5818(12) 0.8759(7)
O3_4 O 0.1457(14) 0.1462(9) 0.4655(5)
N1_2 N 0.5035(15) 0.4182(12) 0.3759(7)
N2_4 N 0.2527(17) 0.4367(12) 0.3305(6)
N3_4 N 0.2483(17) 0.3309(11) 0.3656(6)
N4_4 N 0.0792(15) 0.0431(10) 0.3521(5)
C1_4 C 0.4037(18) 0.4815(15) 0.3387(7)
H3_4 H 0.4387 0.5531 0.3195
C2_4 C 0.4059(19) 0.3235(13) 0.3911(8)
H4_4 H 0.4432 0.2597 0.4165
C3_4 C 0.1744(19) 0.0362(13) 0.4622(6)
O8_2 O 0.1567(13) 0.6668(8) 0.2773(5)
C4_4 C 0.1429(19) 0.9760(11) 0.3992(6)
C5_4 C 0.171(2) 0.8601(13) 0.3776(7)
H5_4 H 0.2165 0.7953 0.4003
C6_4 C 0.1173(18) 0.8627(13) 0.3145(7)
C7_4 C 0.1085(17) 0.7711(12) 0.2643(6)
O1_3 O 0.8699(14) 0.5492(9) 0.3531(5)
H1_3 H 0.8058 0.6115 0.3403
O2_4 O 0.8476(14) 0.2880(10) 0.4182(5)
H2_4 H 0.8403 0.2600 0.4588
O1_4 O 0.1301(14) 0.0492(9) 0.1469(5)
H1_4 H 0.1942 0.1115 0.1597
O7_2 O 0.2723(15) 0.0273(8) 0.0077(4)
loop_
_geom_bond_atom_site_label_1
_geom_bond_atom_site_label_2
_geom_bond_site_symmetry_1
_geom_bond_site_symmetry_2
Zn7 N1 1_555 1_555
Zn2 O2 1_555 1_555
O2 Zn7 1_555 1_555
H2 O2 1_555 1_555
O3 Zn2 1_555 1_555
O4 C3 1_555 1_555
O5 C7 1_555 1_555
O6 C7 1_555 1_555
N3 Zn2 1_555 1_555
N4 Zn2 1_555 1_555
N5 N4 1_555 1_555
C1 N2 1_555 1_555
H4 C2 1_555 1_555
C3 O3 1_555 1_555
C4 N4 1_555 1_555
C5 C4 1_555 1_555
H5 C5 1_555 1_555
C6 N5 1_555 1_555
C7 C6 1_555 1_555
Zn4 O5 1_555 1_555
Zn5 O6 1_555 1_555
Zn6 O6 1_555 1_555
Zn8 O4 1_555 1_555
Zn2 O9 1_555 1_555
N2 N3 1_555 1_555
N3 C2 1_555 1_555
N5 Zn5 1_555 1_555
C3 C4 1_555 1_555
C5 C6 1_555 1_555
Zn4 O1 1_555 1_555
O1 H1 1_555 1_555
O2_2 Zn3 1_555 1_555
H2_2 O2_2 1_555 1_555
N6 Zn3 1_555 1_555
O8 Zn1 1_555 1_555
O3_2 Zn2_2 1_555 1_555
O8 C7_2 1_555 1_555
O6_2 C7_2 1_555 1_555
N6 C1_2 1_555 1_555
N3_2 Zn2_2 1_555 1_555
N4_2 Zn2_2 1_555 1_555
N5_2 N4_2 1_555 1_555
C1_2 N2_2 1_555 1_555
C2_2 N6 1_555 1_555
H4_2 C2_2 1_555 1_555
C3_2 O3_2 1_555 1_555
C4_2 N4_2 1_555 1_555
C5_2 C4_2 1_555 1_555
H5_2 C5_2 1_555 1_555
C6_2 N5_2 1_555 1_555
C7_2 C6_2 1_555 1_555
N2_2 N3_2 1_555 1_555
N3_2 C2_2 1_555 1_555
C3_2 C4_2 1_555 1_555
C5_2 C6_2 1_555 1_555
Zn8_2 O4_2 1_555 1_555
O5_2 C7_3 1_555 1_555
O9 C7_3 1_555 1_555
C5_3 C4_3 1_555 1_555
H5_3 C5_3 1_555 1_555
C6_3 N7 1_555 1_555
C7_3 C6_3 1_555 1_555
Zn5 O5_2 1_555 1_555
C5_3 C6_3 1_555 1_555
Zn5 O1_2 1_555 1_555
Zn6 O2_3 1_555 1_555
Zn8_2 O1_2 1_555 1_555
O1_2 H1_2 1_555 1_555
O2_3 Zn8_2 1_555 1_555
H2_3 O2_3 1_555 1_555
O3_3 Zn6 1_555 1_555
N2_3 Zn5 1_555 1_555
N3_3 Zn6 1_555 1_555
N4_3 Zn6 1_555 1_555
C1_3 N2_3 1_555 1_555
H3_3 C1_3 1_555 1_555
H4_3 C2_3 1_555 1_555
C3_3 O3_3 1_555 1_555
N6_2 Zn8_2 1_555 1_555
N2_3 N3_3 1_555 1_555
N3_3 C2_3 1_555 1_555
O3_4 Zn6_2 1_555 1_555
N1_2 C1_4 1_555 1_555
N2_4 Zn5_2 1_555 1_555
N3_4 Zn6_2 1_555 1_555
N4_4 Zn6_2 1_555 1_555
C1_4 N2_4 1_555 1_555
H3_4 C1_4 1_555 1_555
C2_4 N1_2 1_555 1_555
H4_4 C2_4 1_555 1_555
C3_4 O3_4 1_555 1_555
Zn8 N1_2 1_555 1_555
O8_2 Zn5_2 1_555 1_555
N2_4 N3_4 1_555 1_555
N3_4 C2_4 1_555 1_555
O8_2 C7_4 1_555 1_555
O9_2 C7_4 1_555 1_555
C5_4 C4_4 1_555 1_555
H5_4 C5_4 1_555 1_555
C6_4 N7_2 1_555 1_555
C7_4 C6_4 1_555 1_555
C5_4 C6_4 1_555 1_555
Zn8 O1_3 1_555 1_555
O1_3 H1_3 1_555 1_555
O2_4 Zn8 1_555 1_555
H2_4 O2_4 1_555 1_555
O1_4 H1_4 1_555 1_555

#END
