
###############################################################################
#
# This file contains modified crystal structure data generated from the
# MOF subset of the Cambridge Structural Database (CSD) v543 
# hosted by the Cambridge Crystallographic Data Centre (CCDC).
#
# This work is licensed under the Creative Commons
# Attribution-NonCommercial-ShareAlike 4.0 International License.
# To view a copy of this license, visit
# http://creativecommons.org/licenses/by-nc-sa/4.0/
# or send a letter to
# Creative Commons, PO Box 1866, Mountain View, CA 94042, USA.
#
# CIF created using the CSD Python API on 29 September 2022
# The structure has been converted into the P1 space group
# The structure has a 3D framework
# The original CSD entry UQEVUK is in the orthorhombic crystal system
# The original CSD entry UQEVUK is in a Sohncke space group
# The framework has been calculated to contain at least 10.0% void space
# The void calculation uses a probe of radius 1.32A, grid spacing 0.4
#
###############################################################################

data_UQEVUK
_chemical_formula_moiety         '(C28 H20 N20 O23 Zn11)n'
_symmetry_cell_setting           triclinic
_symmetry_space_group_name_H-M   'P 1'
_symmetry_Int_Tables_number      1
_space_group_name_Hall           'P 1'
loop_
_symmetry_equiv_pos_site_id
_symmetry_equiv_pos_as_xyz
1 x,y,z
_cell_length_a                   7.76606(14)
_cell_length_b                   11.11064(19)
_cell_length_c                   21.1088(4)
_cell_angle_alpha                90
_cell_angle_beta                 90
_cell_angle_gamma                90
_cell_volume                     1821.39
loop_
_atom_site_label
_atom_site_type_symbol
_atom_site_fract_x
_atom_site_fract_y
_atom_site_fract_z
N6 N 0.0068(6) 0.9391(4) 0.3822(2)
Zn1 Zn 0.47363(8) 0.02529(5) 0.29232(3)
O1 O 0.6393(5) 0.0660(3) 0.35556(18)
H1 H 0.6939 0.1350 0.3479
C1 C 0.1095(7) 0.0099(5) 0.3472(3)
H3 H 0.0768 0.0847 0.3314
O7 O 0.7782(5) 0.0213(3) 0.49757(15)
O8 O 0.3491(5) 0.1848(3) 0.27388(17)
Zn2 Zn 0.46367(8) 0.73687(5) 0.37295(3)
Zn3 Zn 0.75980(8) 0.95865(6) 0.40977(3)
O2 O 0.6578(5) 0.8012(3) 0.41741(17)
H2 H 0.6781 0.7645 0.4511
O3 O 0.3569(5) 0.6579(3) 0.46362(16)
O4 O 0.2782(5) 0.4787(3) 0.50243(15)
O6 O 0.4539(5) 0.3253(3) 0.20867(15)
N2 N 0.2610(6) 0.9612(4) 0.3378(2)
N3 N 0.2589(6) 0.8522(4) 0.3689(2)
N4 N 0.4252(5) 0.5630(3) 0.34951(18)
N5 N 0.4420(5) 0.4945(3) 0.29708(18)
C2 C 0.1044(7) 0.8432(5) 0.3942(3)
H4 H 0.0676 0.7774 0.4178
C3 C 0.3303(7) 0.5478(4) 0.4586(2)
C4 C 0.3608(7) 0.4922(4) 0.3960(2)
C5 C 0.3360(7) 0.3762(4) 0.3737(2)
H5 H 0.2935 0.3099 0.3955
C6 C 0.3892(7) 0.3824(4) 0.3115(2)
C7 C 0.3970(6) 0.2894(4) 0.2615(2)
Zn5 Zn 0.52637(8) 0.52529(5) 0.20768(3)
Zn6 Zn 0.53633(8) 0.23687(5) 0.12705(3)
Zn8 Zn 0.25980(8) 0.54135(6) 0.59023(3)
O9 O 0.5461(5) 0.8253(3) 0.29133(15)
N7 N 0.5580(5) 0.9945(3) 0.20292(18)
O4_2 O 0.2218(5) 0.5213(3) 0.00243(15)
Zn8_2 Zn 0.24020(8) 0.45865(6) 0.09023(3)
Zn2_2 Zn 0.03633(8) 0.26313(5) 0.87295(3)
O3_2 O 0.1431(5) 0.3421(3) 0.96362(16)
O5 O 0.1509(5) 0.8152(3) 0.77388(17)
O6_2 O 0.0461(5) 0.6747(3) 0.70867(15)
N1 N 0.4932(6) 0.0609(4) 0.8822(2)
N2_2 N 0.2390(6) 0.0388(4) 0.8378(2)
N3_2 N 0.2411(6) 0.1478(4) 0.8689(2)
N4_2 N 0.0748(5) 0.4370(3) 0.84951(18)
N5_2 N 0.0580(5) 0.5055(3) 0.79708(18)
C2_2 C 0.3956(7) 0.1568(5) 0.8942(3)
H4_2 H 0.4324 0.2226 0.9178
C3_2 C 0.1697(7) 0.4522(4) 0.9586(2)
C4_2 C 0.1392(7) 0.5078(4) 0.8960(2)
C5_2 C 0.1640(7) 0.6238(4) 0.8737(2)
H5_2 H 0.2065 0.6901 0.8955
C6_2 C 0.1108(7) 0.6176(4) 0.8115(2)
C7_2 C 0.1030(6) 0.7106(4) 0.7615(2)
Zn4 Zn 0.02637(8) 0.97471(5) 0.79232(3)
Zn7 Zn 0.74020(8) 0.04135(6) 0.90977(3)
C1_2 C 0.3905(7) 0.9901(5) 0.8472(3)
H3_2 H 0.4232 0.9153 0.8314
O2_2 O 0.8422(5) 0.1988(3) 0.91741(17)
H2_2 H 0.8219 0.2355 0.9511
Zn5_2 Zn 0.97363(8) 0.47471(5) 0.70768(3)
Zn6_2 Zn 0.96367(8) 0.76313(5) 0.62705(3)
O9_2 O 0.9539(5) 0.1747(3) 0.79133(15)
N7_2 N 0.9420(5) 0.0055(3) 0.70292(18)
O1_2 O 0.3607(5) 0.5660(3) 0.14444(18)
H1_2 H 0.3061 0.6350 0.1521
O2_3 O 0.3422(5) 0.3012(3) 0.08259(17)
H2_3 H 0.3219 0.2645 0.0489
O3_3 O 0.6431(5) 0.1579(3) 0.03638(16)
N1_2 N 0.9932(6) 0.4391(4) 0.1178(2)
N2_3 N 0.7390(6) 0.4612(4) 0.1622(2)
N3_3 N 0.7411(6) 0.3522(4) 0.1311(2)
N4_3 N 0.5748(5) 0.0630(3) 0.15049(18)
C1_3 C 0.8905(7) 0.5099(5) 0.1528(3)
H3_3 H 0.9232 0.5847 0.1686
C2_3 C 0.8956(7) 0.3432(5) 0.1058(3)
H4_3 H 0.9324 0.2774 0.0822
C3_3 C 0.6697(7) 0.0478(4) 0.0414(2)
O8_2 O 0.6509(5) 0.6848(3) 0.22612(17)
C4_3 C 0.6392(7) 0.9922(4) 0.1040(2)
C5_3 C 0.6640(7) 0.8762(4) 0.1263(2)
H5_3 H 0.7065 0.8099 0.1045
C6_3 C 0.6108(7) 0.8824(4) 0.1885(2)
C7_3 C 0.6030(6) 0.7894(4) 0.2385(2)
O1_3 O 0.1393(5) 0.4340(3) 0.64444(18)
H1_3 H 0.1939 0.3650 0.6521
O2_4 O 0.1578(5) 0.6988(3) 0.58259(17)
H2_4 H 0.1781 0.7355 0.5489
N6_2 N 0.5068(6) 0.5609(4) 0.6178(2)
O5_2 O 0.8491(5) 0.3152(3) 0.72612(17)
C4_4 C 0.8608(7) 0.0078(4) 0.6040(2)
C5_4 C 0.8360(7) 0.1238(4) 0.6263(2)
H5_4 H 0.7935 0.1901 0.6045
C6_4 C 0.8892(7) 0.1176(4) 0.6885(2)
C7_4 C 0.8970(6) 0.2106(4) 0.7385(2)
O3_4 O 0.8569(5) 0.8421(3) 0.53638(16)
N2_4 N 0.7610(6) 0.5388(4) 0.6622(2)
N3_4 N 0.7589(6) 0.6478(4) 0.6311(2)
N4_4 N 0.9252(5) 0.9370(3) 0.65049(18)
C1_4 C 0.6095(7) 0.4901(5) 0.6528(3)
H3_4 H 0.5768 0.4153 0.6686
C2_4 C 0.6044(7) 0.6568(5) 0.6058(3)
H4_4 H 0.5676 0.7226 0.5822
C3_4 C 0.8303(7) 0.9522(4) 0.5414(2)
O1_4 O 0.8607(5) 0.9340(3) 0.85556(18)
H1_4 H 0.8061 0.8650 0.8479
O7_2 O 0.7218(5) 0.9787(3) 0.99757(15)
loop_
_geom_bond_atom_site_label_1
_geom_bond_atom_site_label_2
_geom_bond_site_symmetry_1
_geom_bond_site_symmetry_2
Zn1 O1 1_555 1_555
O1 H1 1_555 1_555
H3 C1 1_555 1_555
O8 Zn1 1_555 1_555
Zn2 O2 1_555 1_555
O2 Zn3 1_555 1_555
H2 O2 1_555 1_555
O3 Zn2 1_555 1_555
O4 C3 1_555 1_555
O8 C7 1_555 1_555
O6 C7 1_555 1_555
N3 Zn2 1_555 1_555
N4 Zn2 1_555 1_555
N5 N4 1_555 1_555
C2 N6 1_555 1_555
H4 C2 1_555 1_555
C3 O3 1_555 1_555
C4 N4 1_555 1_555
C5 C4 1_555 1_555
H5 C5 1_555 1_555
C6 N5 1_555 1_555
C7 C6 1_555 1_555
Zn5 O6 1_555 1_555
Zn6 O6 1_555 1_555
Zn8 O4 1_555 1_555
Zn2 O9 1_555 1_555
N2 N3 1_555 1_555
N3 C2 1_555 1_555
N5 Zn5 1_555 1_555
C3 C4 1_555 1_555
C5 C6 1_555 1_555
Zn8_2 O4_2 1_555 1_555
O3_2 Zn2_2 1_555 1_555
O5 C7_2 1_555 1_555
O6_2 C7_2 1_555 1_555
N3_2 Zn2_2 1_555 1_555
N4_2 Zn2_2 1_555 1_555
N5_2 N4_2 1_555 1_555
C2_2 N1 1_555 1_555
H4_2 C2_2 1_555 1_555
C3_2 O3_2 1_555 1_555
C4_2 N4_2 1_555 1_555
C5_2 C4_2 1_555 1_555
H5_2 C5_2 1_555 1_555
C6_2 N5_2 1_555 1_555
C7_2 C6_2 1_555 1_555
Zn4 O5 1_555 1_555
Zn7 N1 1_555 1_555
N2_2 N3_2 1_555 1_555
N3_2 C2_2 1_555 1_555
C3_2 C4_2 1_555 1_555
C5_2 C6_2 1_555 1_555
H3_2 C1_2 1_555 1_555
O2_2 Zn7 1_555 1_555
H2_2 O2_2 1_555 1_555
Zn5 O1_2 1_555 1_555
Zn6 O2_3 1_555 1_555
Zn8_2 O1_2 1_555 1_555
O1_2 H1_2 1_555 1_555
O2_3 Zn8_2 1_555 1_555
H2_3 O2_3 1_555 1_555
O3_3 Zn6 1_555 1_555
N1_2 C1_3 1_555 1_555
N2_3 Zn5 1_555 1_555
N3_3 Zn6 1_555 1_555
N4_3 Zn6 1_555 1_555
C1_3 N2_3 1_555 1_555
H3_3 C1_3 1_555 1_555
C2_3 N1_2 1_555 1_555
H4_3 C2_3 1_555 1_555
C3_3 O3_3 1_555 1_555
O8_2 Zn5 1_555 1_555
N2_3 N3_3 1_555 1_555
N3_3 C2_3 1_555 1_555
O8_2 C7_3 1_555 1_555
O9 C7_3 1_555 1_555
C5_3 C4_3 1_555 1_555
H5_3 C5_3 1_555 1_555
C6_3 N7 1_555 1_555
C7_3 C6_3 1_555 1_555
C5_3 C6_3 1_555 1_555
Zn8 O1_3 1_555 1_555
O1_3 H1_3 1_555 1_555
O2_4 Zn8 1_555 1_555
H2_4 O2_4 1_555 1_555
N6_2 Zn8 1_555 1_555
O5_2 C7_4 1_555 1_555
O9_2 C7_4 1_555 1_555
C5_4 C4_4 1_555 1_555
H5_4 C5_4 1_555 1_555
C6_4 N7_2 1_555 1_555
C7_4 C6_4 1_555 1_555
Zn5_2 O5_2 1_555 1_555
C5_4 C6_4 1_555 1_555
O3_4 Zn6_2 1_555 1_555
N6_2 C1_4 1_555 1_555
N2_4 Zn5_2 1_555 1_555
N3_4 Zn6_2 1_555 1_555
N4_4 Zn6_2 1_555 1_555
C1_4 N2_4 1_555 1_555
H3_4 C1_4 1_555 1_555
C2_4 N6_2 1_555 1_555
H4_4 C2_4 1_555 1_555
C3_4 O3_4 1_555 1_555
N2_4 N3_4 1_555 1_555
N3_4 C2_4 1_555 1_555
O1_4 H1_4 1_555 1_555

#END
