
###############################################################################
#
# This file contains modified crystal structure data generated from the
# MOF subset of the Cambridge Structural Database (CSD) v543 
# hosted by the Cambridge Crystallographic Data Centre (CCDC).
#
# This work is licensed under the Creative Commons
# Attribution-NonCommercial-ShareAlike 4.0 International License.
# To view a copy of this license, visit
# http://creativecommons.org/licenses/by-nc-sa/4.0/
# or send a letter to
# Creative Commons, PO Box 1866, Mountain View, CA 94042, USA.
#
# CIF created using the CSD Python API on 29 September 2022
# The structure has been converted into the P1 space group
# The structure has a 3D framework
# The original CSD entry UQEVEU is in the orthorhombic crystal system
# The original CSD entry UQEVEU is in a Sohncke space group
# The framework has been calculated to contain at least 10.0% void space
# The void calculation uses a probe of radius 1.32A, grid spacing 0.4
#
###############################################################################

data_UQEVEU
_chemical_formula_moiety         '(C28 H24 N22 O24 Zn12)n'
_symmetry_cell_setting           triclinic
_symmetry_space_group_name_H-M   'P 1'
_symmetry_Int_Tables_number      1
_space_group_name_Hall           'P 1'
loop_
_symmetry_equiv_pos_site_id
_symmetry_equiv_pos_as_xyz
1 x,y,z
_cell_length_a                   7.5135(2)
_cell_length_b                   10.7891(2)
_cell_length_c                   18.2240(4)
_cell_angle_alpha                90
_cell_angle_beta                 90
_cell_angle_gamma                90
_cell_volume                     1477.31
loop_
_atom_site_label
_atom_site_type_symbol
_atom_site_fract_x
_atom_site_fract_y
_atom_site_fract_z
N1 N 0.0910(18) 0.1862(10) 0.6309(6)
N4 N 0.0446(19) 0.0056(14) 0.7022(10)
H5 H 0.0223 0.3511 0.5868
Zn7 Zn 0.3147(3) 0.13977(18) 0.57711(10)
Zn4 Zn 0.5920(3) 0.08863(16) 0.71921(10)
Zn2 Zn 0.6019(3) 0.37150(16) 0.61320(10)
O1 O 0.4361(14) 0.0275(9) 0.6420(6)
O2 O 0.4376(15) 0.2901(9) 0.5488(6)
H2 H 0.4818 0.2823 0.5034
O3 O 0.7510(14) 0.4499(9) 0.5144(6)
O4 O 0.907(2) 0.6224(12) 0.4864(7)
O5 O 0.7057(15) 0.9218(9) 0.7498(6)
O6 O 0.5108(14) 0.7856(8) 0.7967(6)
N2 N 0.8213(17) 0.1585(11) 0.6800(7)
N3 N 0.8244(17) 0.2719(11) 0.6406(7)
N5 N 0.6183(19) 0.5515(11) 0.6353(6)
N6 N 0.5709(15) 0.6186(10) 0.6940(6)
C1 C 0.9858(19) 0.1122(12) 0.6716(9)
C2 C 0.985(2) 0.2832(13) 0.6142(9)
C3 C 0.807(2) 0.5641(14) 0.5255(9)
C4 C 0.733(2) 0.6176(14) 0.5942(8)
C5 C 0.761(2) 0.7335(14) 0.6268(9)
H6 H 0.8318 0.7985 0.6104
C6 C 0.657(2) 0.7276(13) 0.6894(8)
C7 C 0.625(2) 0.8194(13) 0.7488(8)
Zn5 Zn 0.4080(3) 0.58863(16) 0.78079(10)
Zn6 Zn 0.3981(3) 0.87150(16) 0.88680(10)
Zn8 Zn 0.8147(3) 0.36023(18) 0.42289(10)
O7 O 0.2510(14) 0.0501(9) 0.4856(6)
O9 O 0.4892(14) 0.2856(8) 0.7033(6)
N8 N 0.4291(15) 0.1186(10) 0.8060(6)
H1 H 0.4917 0.9684 0.6169
H3 H 0.9603 0.9500 0.7054
Zn3 Zn 0.1853(3) 0.86023(18) 0.07711(10)
O1_2 O 0.0639(14) 0.9725(9) 0.1420(6)
O2_2 O 0.0624(15) 0.7099(9) 0.0488(6)
H2_2 H 0.0182 0.7177 0.0034
Zn5_2 Zn 0.0920(3) 0.41137(16) 0.28079(10)
Zn6_2 Zn 0.1019(3) 0.12850(16) 0.38680(10)
O9_2 O 0.0108(14) 0.7144(8) 0.2033(6)
N7 N 0.4090(18) 0.8138(10) 0.1309(6)
N8_2 N 0.0709(15) 0.8814(10) 0.3060(6)
O7_2 O 0.2490(14) 0.9499(9) 0.9856(6)
H3_2 H 0.5397 0.0500 0.2054
H4 H 0.3716 0.0253 0.1746
O8 O 0.7943(15) 0.0782(9) 0.2498(6)
Zn1 Zn 0.9080(3) 0.91137(16) 0.21921(10)
Zn2_2 Zn 0.8981(3) 0.62850(16) 0.11320(10)
O3_2 O 0.7490(14) 0.5501(9) 0.0144(6)
O6_2 O 0.9892(14) 0.2144(8) 0.2967(6)
N2_2 N 0.6787(17) 0.8415(11) 0.1800(7)
N3_2 N 0.6756(17) 0.7281(11) 0.1406(7)
N4_2 N 0.4554(19) 0.9944(14) 0.2022(10)
N5_2 N 0.8817(19) 0.4485(11) 0.1353(6)
N6_2 N 0.9291(15) 0.3814(10) 0.1940(6)
C1_2 C 0.5142(19) 0.8878(12) 0.1716(9)
C2_2 C 0.515(2) 0.7168(13) 0.1142(9)
H5_2 H 0.4777 0.6489 0.0868
C3_2 C 0.693(2) 0.4359(14) 0.0255(9)
C4_2 C 0.767(2) 0.3824(14) 0.0942(8)
C5_2 C 0.739(2) 0.2665(14) 0.1268(9)
H6_2 H 0.6682 0.2015 0.1104
C6_2 C 0.843(2) 0.2724(13) 0.1894(8)
C7_2 C 0.875(2) 0.1806(13) 0.2488(8)
O4_2 O 0.593(2) 0.3776(12) 0.9864(7)
Zn8_2 Zn 0.6853(3) 0.63977(18) 0.92289(10)
O5_2 O 0.2943(15) 0.4218(9) 0.7502(6)
N5_3 N 0.3817(19) 0.0515(11) 0.8647(6)
C3_3 C 0.193(2) 0.0641(14) 0.9745(9)
C4_3 C 0.267(2) 0.1176(14) 0.9058(8)
C5_3 C 0.239(2) 0.2335(14) 0.8732(9)
H6_3 H 0.1682 0.2985 0.8896
C6_3 C 0.343(2) 0.2276(13) 0.8106(8)
C7_3 C 0.375(2) 0.3194(13) 0.7512(8)
O1_3 O 0.5639(14) 0.5275(9) 0.8580(6)
H1_2 H 0.5083 0.4684 0.8831
O2_3 O 0.5624(15) 0.7901(9) 0.9512(6)
H2_3 H 0.5182 0.7823 0.9966
N2_3 N 0.1787(17) 0.6585(11) 0.8200(7)
N3_3 N 0.1756(17) 0.7719(11) 0.8594(7)
H3_3 H 0.0397 0.4500 0.7946
C1_3 C 0.0142(19) 0.6122(12) 0.8284(9)
C2_3 C 0.015(2) 0.7832(13) 0.8858(9)
N7_2 N 0.9090(18) 0.6862(10) 0.8691(6)
N4_3 N 0.9554(19) 0.5056(14) 0.7978(10)
H4_2 H 0.8716 0.4747 0.8254
H5_3 H 0.9777 0.8511 0.9132
N1_2 N 0.5910(18) 0.3138(10) 0.3691(6)
N2_4 N 0.3213(17) 0.3415(11) 0.3200(7)
N3_4 N 0.3244(17) 0.2281(11) 0.3594(7)
N4_4 N 0.5446(19) 0.4944(14) 0.2978(10)
H3_4 H 0.4603 0.5500 0.2946
H4_3 H 0.6284 0.5253 0.3254
C1_4 C 0.4858(19) 0.3878(12) 0.3284(9)
C2_4 C 0.485(2) 0.2168(13) 0.3858(9)
H5_4 H 0.5223 0.1489 0.4132
O8_2 O 0.2057(15) 0.5782(9) 0.2502(6)
O4_3 O 0.407(2) 0.8776(12) 0.5136(7)
N5_4 N 0.1183(19) 0.9485(11) 0.3647(6)
C3_4 C 0.307(2) 0.9359(14) 0.4745(9)
C4_4 C 0.233(2) 0.8824(14) 0.4058(8)
C5_4 C 0.261(2) 0.7665(14) 0.3732(9)
H6_4 H 0.3318 0.7015 0.3896
C6_4 C 0.157(2) 0.7724(13) 0.3106(8)
C7_4 C 0.125(2) 0.6806(13) 0.2512(8)
O1_4 O 0.9361(14) 0.4725(9) 0.3580(6)
H1_3 H 0.9917 0.5316 0.3831
O2_4 O 0.9376(15) 0.2099(9) 0.4512(6)
H2_4 H 0.9818 0.2177 0.4966
H4_4 H 0.1284 0.9747 0.6746
H1_4 H 0.0083 0.0316 0.1169
O4_4 O 0.093(2) 0.1224(12) 0.0136(7)
loop_
_geom_bond_atom_site_label_1
_geom_bond_atom_site_label_2
_geom_bond_site_symmetry_1
_geom_bond_site_symmetry_2
Zn7 N1 1_555 1_555
Zn4 O1 1_555 1_555
Zn2 O2 1_555 1_555
Zn7 O1 1_555 1_555
O2 Zn7 1_555 1_555
H2 O2 1_555 1_555
O3 Zn2 1_555 1_555
O4 C3 1_555 1_555
O5 C7 1_555 1_555
O6 C7 1_555 1_555
N2 Zn4 1_555 1_555
N3 Zn2 1_555 1_555
N5 Zn2 1_555 1_555
N6 N5 1_555 1_555
C1 N2 1_555 1_555
C3 O3 1_555 1_555
C4 N5 1_555 1_555
C5 C4 1_555 1_555
H6 C5 1_555 1_555
C6 N6 1_555 1_555
C7 C6 1_555 1_555
Zn5 O6 1_555 1_555
Zn6 O6 1_555 1_555
Zn8 O3 1_555 1_555
O7 Zn7 1_555 1_555
O9 Zn4 1_555 1_555
N8 Zn4 1_555 1_555
Zn2 O9 1_555 1_555
N2 N3 1_555 1_555
N3 C2 1_555 1_555
N6 Zn5 1_555 1_555
C3 C4 1_555 1_555
C5 C6 1_555 1_555
Zn3 O1_2 1_555 1_555
O2_2 Zn3 1_555 1_555
H2_2 O2_2 1_555 1_555
N7 Zn3 1_555 1_555
O3_2 Zn2_2 1_555 1_555
O8 C7_2 1_555 1_555
O6_2 C7_2 1_555 1_555
N7 C1_2 1_555 1_555
N2_2 Zn1 1_555 1_555
N3_2 Zn2_2 1_555 1_555
N5_2 Zn2_2 1_555 1_555
N6_2 N5_2 1_555 1_555
C1_2 N2_2 1_555 1_555
C2_2 N7 1_555 1_555
H5_2 C2_2 1_555 1_555
C3_2 O3_2 1_555 1_555
C4_2 N5_2 1_555 1_555
C5_2 C4_2 1_555 1_555
H6_2 C5_2 1_555 1_555
C6_2 N6_2 1_555 1_555
C7_2 C6_2 1_555 1_555
N2_2 N3_2 1_555 1_555
N3_2 C2_2 1_555 1_555
N4_2 C1_2 1_555 1_555
C3_2 C4_2 1_555 1_555
C5_2 C6_2 1_555 1_555
O5_2 C7_3 1_555 1_555
O9 C7_3 1_555 1_555
N8 N5_3 1_555 1_555
C4_3 N5_3 1_555 1_555
C5_3 C4_3 1_555 1_555
H6_3 C5_3 1_555 1_555
C6_3 N8 1_555 1_555
C7_3 C6_3 1_555 1_555
Zn5 O5_2 1_555 1_555
C3_3 C4_3 1_555 1_555
C5_3 C6_3 1_555 1_555
Zn5 O1_3 1_555 1_555
Zn6 O2_3 1_555 1_555
Zn8_2 O1_3 1_555 1_555
O1_3 H1_2 1_555 1_555
O2_3 Zn8_2 1_555 1_555
H2_3 O2_3 1_555 1_555
O7_2 Zn6 1_555 1_555
N2_3 Zn5 1_555 1_555
N3_3 Zn6 1_555 1_555
C1_3 N2_3 1_555 1_555
N7_2 Zn8_2 1_555 1_555
N2_3 N3_3 1_555 1_555
N3_3 C2_3 1_555 1_555
H4_2 N4_3 1_555 1_555
O7 Zn6_2 1_555 1_555
N1_2 C1_4 1_555 1_555
N2_4 Zn5_2 1_555 1_555
N3_4 Zn6_2 1_555 1_555
N4_4 H3_4 1_555 1_555
H4_3 N4_4 1_555 1_555
C1_4 N2_4 1_555 1_555
C2_4 N1_2 1_555 1_555
H5_4 C2_4 1_555 1_555
Zn8 N1_2 1_555 1_555
O8_2 Zn5_2 1_555 1_555
N2_4 N3_4 1_555 1_555
N3_4 C2_4 1_555 1_555
N4_4 C1_4 1_555 1_555
O4_3 C3_4 1_555 1_555
O8_2 C7_4 1_555 1_555
O9_2 C7_4 1_555 1_555
N8_2 N5_4 1_555 1_555
C4_4 N5_4 1_555 1_555
C5_4 C4_4 1_555 1_555
H6_4 C5_4 1_555 1_555
C6_4 N8_2 1_555 1_555
C7_4 C6_4 1_555 1_555
C3_4 C4_4 1_555 1_555
C5_4 C6_4 1_555 1_555
Zn8 O1_4 1_555 1_555
O1_4 H1_3 1_555 1_555
O2_4 Zn8 1_555 1_555
H2_4 O2_4 1_555 1_555

#END
