
###############################################################################
#
# This file contains modified crystal structure data generated from the
# MOF subset of the Cambridge Structural Database (CSD) v543 
# hosted by the Cambridge Crystallographic Data Centre (CCDC).
#
# This work is licensed under the Creative Commons
# Attribution-NonCommercial-ShareAlike 4.0 International License.
# To view a copy of this license, visit
# http://creativecommons.org/licenses/by-nc-sa/4.0/
# or send a letter to
# Creative Commons, PO Box 1866, Mountain View, CA 94042, USA.
#
# CIF created using the CSD Python API on 29 September 2022
# The structure has been converted into the P1 space group
# The structure has a 3D framework
# The original CSD entry UQOCAH is in the monoclinic crystal system
# The framework has been calculated to contain at least 10.0% void space
# The void calculation uses a probe of radius 1.32A, grid spacing 0.4
# H atom positions have been added when not included in the experimental data
#
###############################################################################

data_UQOCAH
_chemical_formula_moiety         '(C62 H28 Cd1 O22)n'
_symmetry_cell_setting           triclinic
_symmetry_space_group_name_H-M   'P 1'
_symmetry_Int_Tables_number      1
_space_group_name_Hall           'P 1'
loop_
_symmetry_equiv_pos_site_id
_symmetry_equiv_pos_as_xyz
1 x,y,z
_cell_length_a                   9.6093(6)
_cell_length_b                   15.9899(11)
_cell_length_c                   11.7297(7)
_cell_angle_alpha                90
_cell_angle_beta                 108.451(2)
_cell_angle_gamma                90
_cell_volume                     1709.64
loop_
_atom_site_label
_atom_site_type_symbol
_atom_site_fract_x
_atom_site_fract_y
_atom_site_fract_z
_atom_site_U_iso_or_equiv
_atom_site_thermal_displace_type
C14 C -0.0001(15) 0.2362(7) 0.2493(11) 0.0430 Uiso
Cd3 Cd 0.08704(7) 0.54501(4) 0.39379(5) 0.0160 Uiso
O7 O 0.1193(7) 0.5187(4) 0.5923(5) 0.0206 Uiso
O8 O 0.0278(9) 0.3536(4) 0.7409(6) 0.0280 Uiso
H5 H 0.0549546 0.172118 0.1137 . .
H7 H 0.111938 0.231843 0.31003 . .
Cd1 Cd 0.91296(7) 0.45499(4) 0.60621(5) 0.0160 Uiso
O1 O 0.8807(7) 0.4813(4) 0.4077(5) 0.0206 Uiso
O2 O 0.8276(9) 0.4729(4) 0.2110(6) 0.0281 Uiso
O3 O 0.5278(9) 0.1464(4) 0.2409(6) 0.0280 Uiso
O4 O 0.3687(9) 0.1940(4) 0.0808(6) 0.0288 Uiso
O5 O 0.1756(9) 0.4308(5) 0.3190(7) 0.0376 Uiso
O6 O 0.3240(11) 0.5324(5) 0.3825(8) 0.0410 Uiso
C1 C 0.7536(11) 0.2835(6) 0.2116(8) 0.0240 Uiso
C2 C 0.6396(11) 0.3259(6) 0.2487(8) 0.0210 Uiso
C3 C 0.5576(12) 0.4494(5) 0.3321(9) 0.0190 Uiso
C4 C 0.6620(10) 0.4088(5) 0.2970(7) 0.0135 Uiso
C5 C 0.4171(10) 0.4152(5) 0.3097(7) 0.0167 Uiso
C6 C 0.4614(10) 0.2060(5) 0.1768(8) 0.0183 Uiso
C7 C 0.3903(10) 0.3367(6) 0.2580(8) 0.0202 Uiso
C8 C 0.4969(10) 0.2939(5) 0.2279(7) 0.0179 Uiso
C9 C 0.8021(11) 0.4554(4) 0.3052(8) 0.0140 Uiso
C10 C 0.2996(11) 0.4644(5) 0.3406(8) 0.0160 Uiso
C11 C 0.7171(11) 0.2470(6) 0.0930(8) 0.0230 Uiso
C12 C 0.8980(12) 0.2763(7) 0.2879(9) 0.0320 Uiso
C13 C 0.8218(14) 0.2044(7) 0.0582(10) 0.0380 Uiso
C14_2 C 0.9999(15) 0.2362(7) 0.2493(11) 0.0430 Uiso
C15 C 0.9684(14) 0.2021(7) 0.1405(10) 0.0370 Uiso
Cd4 Cd 0.41296(7) 0.04501(4) 0.10621(5) 0.0160 Uiso
O9 O 0.8687(9) 0.3060(4) 0.5808(6) 0.0288 Uiso
O10 O 0.8244(9) 0.5692(5) 0.6810(7) 0.0376 Uiso
O11 O 0.6760(11) 0.4676(5) 0.6175(8) 0.0410 Uiso
H1 H 0.60622 0.253178 0.0307266 . .
H2 H 0.928993 0.302704 0.378057 . .
H3 H 0.2825 0.308452 0.240944 . .
H4 H 0.583707 0.509267 0.378208 . .
O6_2 O 0.1760(11) 0.0324(5) 0.1175(8) 0.0410 Uiso
O4_2 O 0.1313(9) 0.6940(4) 0.4192(6) 0.0288 Uiso
O5_2 O 0.3244(9) 0.9308(5) 0.1810(7) 0.0376 Uiso
C5_2 C 0.0829(10) 0.9152(5) 0.1903(7) 0.0167 Uiso
C6_2 C 0.0386(10) 0.7060(5) 0.3232(8) 0.0183 Uiso
C7_2 C 0.1097(10) 0.8367(6) 0.2420(8) 0.0202 Uiso
C8_2 C 0.0031(10) 0.7939(5) 0.2721(7) 0.0179 Uiso
C10_2 C 0.2004(11) 0.9644(5) 0.1594(8) 0.0160 Uiso
H3_2 H 0.2175 0.808452 0.259056 . .
H4_2 H 0.916293 0.00926714 0.121792 . .
O7_2 O 0.3807(7) 0.0187(4) 0.9077(5) 0.0206 Uiso
O10_2 O 0.6756(9) 0.0692(5) 0.8190(7) 0.0376 Uiso
O1_2 O 0.6193(7) 0.9813(4) 0.0923(5) 0.0206 Uiso
O2_2 O 0.6724(9) 0.9729(4) 0.2890(6) 0.0281 Uiso
O3_2 O 0.9722(9) 0.6464(4) 0.2591(6) 0.0280 Uiso
C1_2 C 0.7464(11) 0.7835(6) 0.2884(8) 0.0240 Uiso
C2_2 C 0.8604(11) 0.8259(6) 0.2513(8) 0.0210 Uiso
C3_2 C 0.9424(12) 0.9494(5) 0.1679(9) 0.0190 Uiso
C4_2 C 0.8380(10) 0.9088(5) 0.2030(7) 0.0135 Uiso
C9_2 C 0.6979(11) 0.9554(4) 0.1948(8) 0.0140 Uiso
C11_2 C 0.7829(11) 0.7470(6) 0.4070(8) 0.0230 Uiso
C12_2 C 0.6020(12) 0.7763(7) 0.2121(9) 0.0320 Uiso
C13_2 C 0.6782(14) 0.7044(7) 0.4418(10) 0.0380 Uiso
C14_3 C 0.5001(15) 0.7362(7) 0.2507(11) 0.0430 Uiso
C15_2 C 0.5316(14) 0.7021(7) 0.3595(10) 0.0370 Uiso
H1_2 H 0.89378 0.753178 0.469273 . .
H2_2 H 0.571007 0.802704 0.121943 . .
H5_2 H 0.445045 0.672118 0.3863 . .
H6 H 0.705943 0.673533 0.528894 . .
H7_2 H 0.388062 0.731843 0.18997 . .
Cd1_2 Cd 0.58704(7) 0.95499(4) 0.89379(5) 0.0160 Uiso
O8_2 O 0.4722(9) 0.8536(4) 0.7591(6) 0.0280 Uiso
O9_2 O 0.6313(9) 0.8060(4) 0.9192(6) 0.0288 Uiso
O11_2 O 0.8240(11) 0.9676(5) 0.8825(8) 0.0410 Uiso
O2_3 O 0.1724(9) 0.5271(4) 0.7890(6) 0.0281 Uiso
C1_3 C 0.2464(11) 0.7165(6) 0.7884(8) 0.0240 Uiso
C2_3 C 0.3604(11) 0.6741(6) 0.7513(8) 0.0210 Uiso
C3_3 C 0.4424(12) 0.5506(5) 0.6679(9) 0.0190 Uiso
C4_3 C 0.3380(10) 0.5912(5) 0.7030(7) 0.0135 Uiso
C5_3 C 0.5829(10) 0.5848(5) 0.6903(7) 0.0167 Uiso
C6_3 C 0.5386(10) 0.7940(5) 0.8232(8) 0.0183 Uiso
C7_3 C 0.6097(10) 0.6633(6) 0.7420(8) 0.0202 Uiso
C8_3 C 0.5031(10) 0.7061(5) 0.7721(7) 0.0179 Uiso
C9_3 C 0.1979(11) 0.5446(4) 0.6948(8) 0.0140 Uiso
C10_3 C 0.7004(11) 0.5356(5) 0.6594(8) 0.0160 Uiso
C11_3 C 0.2829(11) 0.7530(6) 0.9070(8) 0.0230 Uiso
C12_3 C 0.1020(12) 0.7237(7) 0.7121(9) 0.0320 Uiso
C13_3 C 0.1782(14) 0.7956(7) 0.9418(10) 0.0380 Uiso
C14_4 C 0.0001(15) 0.7638(7) 0.7507(11) 0.0430 Uiso
C15_3 C 0.0316(14) 0.7979(7) 0.8595(10) 0.0370 Uiso
H1_3 H 0.39378 0.746822 0.969273 . .
H2_3 H 0.0710073 0.697296 0.621943 . .
H3_3 H 0.7175 0.691548 0.759056 . .
H4_3 H 0.416293 0.490733 0.621792 . .
C14_5 C 1.0001(15) 0.7638(7) 0.7507(11) 0.0430 Uiso
H5_3 H 0.945045 0.827882 0.8863 . .
H7_3 H 0.888062 0.768157 0.68997 . .
O2_4 O 0.3276(9) 0.0271(4) 0.7110(6) 0.0281 Uiso
C1_4 C 0.2536(11) 0.2165(6) 0.7116(8) 0.0240 Uiso
C2_4 C 0.1396(11) 0.1741(6) 0.7487(8) 0.0210 Uiso
C3_4 C 0.0576(12) 0.0506(5) 0.8321(9) 0.0190 Uiso
C4_4 C 0.1620(10) 0.0912(5) 0.7970(7) 0.0135 Uiso
C9_4 C 0.3021(11) 0.0446(4) 0.8052(8) 0.0140 Uiso
C11_4 C 0.2171(11) 0.2530(6) 0.5930(8) 0.0230 Uiso
C12_4 C 0.3980(12) 0.2237(7) 0.7879(9) 0.0320 Uiso
C13_4 C 0.3218(14) 0.2956(7) 0.5582(10) 0.0380 Uiso
C14_6 C 0.4999(15) 0.2638(7) 0.7493(11) 0.0430 Uiso
C15_4 C 0.4684(14) 0.2979(7) 0.6405(10) 0.0370 Uiso
H1_4 H 0.10622 0.246822 0.530727 . .
H2_4 H 0.428993 0.197296 0.878057 . .
H5_4 H 0.554955 0.327882 0.6137 . .
H6_2 H 0.294057 0.326467 0.471106 . .
H7_4 H 0.611938 0.268157 0.81003 . .
H4_4 H 0.0837069 0.990733 0.878208 . .
C5_4 C 0.9171(10) 0.0848(5) 0.8097(7) 0.0167 Uiso
C6_4 C 0.9614(10) 0.2940(5) 0.6768(8) 0.0183 Uiso
C7_4 C 0.8903(10) 0.1633(6) 0.7580(8) 0.0202 Uiso
C8_4 C 0.9969(10) 0.2061(5) 0.7279(7) 0.0179 Uiso
C10_4 C 0.7996(11) 0.0356(5) 0.8406(8) 0.0160 Uiso
H3_4 H 0.7825 0.191548 0.740944 . .
H6_3 H 0.794057 0.173533 0.971106 . .
H6_4 H 0.205943 0.826467 0.0288937 . .
loop_
_geom_bond_atom_site_label_1
_geom_bond_atom_site_label_2
_geom_bond_site_symmetry_1
_geom_bond_site_symmetry_2
Cd3 O7 1_555 1_555
C14 H7 1_555 1_555
Cd1 O1 1_555 1_555
O1 C9 1_555 1_555
O2 C9 1_555 1_555
O3 C6 1_555 1_555
O4 C6 1_555 1_555
O5 C10 1_555 1_555
O6 C10 1_555 1_555
C1 C2 1_555 1_555
C2 C4 1_555 1_555
C3 C4 1_555 1_555
C4 C9 1_555 1_555
C5 C3 1_555 1_555
C6 C8 1_555 1_555
C7 C5 1_555 1_555
C8 C2 1_555 1_555
C10 C5 1_555 1_555
C11 C1 1_555 1_555
C12 C1 1_555 1_555
C13 C11 1_555 1_555
C14_2 C12 1_555 1_555
C15 C13 1_555 1_555
Cd3 O5 1_555 1_555
Cd4 O3 1_555 1_555
O9 Cd1 1_555 1_555
O10 Cd1 1_555 1_555
O11 Cd1 1_555 1_555
O4 Cd4 1_555 1_555
O6 Cd3 1_555 1_555
C7 C8 1_555 1_555
C14_2 C15 1_555 1_555
C11 H1 1_555 1_555
C12 H2 1_555 1_555
C7 H3 1_555 1_555
C3 H4 1_555 1_555
O6_2 Cd4 1_555 1_555
O4_2 C6_2 1_555 1_555
O5_2 C10_2 1_555 1_555
C6_2 C8_2 1_555 1_555
C7_2 C5_2 1_555 1_555
C10_2 C5_2 1_555 1_555
O4_2 Cd3 1_555 1_555
C7_2 C8_2 1_555 1_555
C7_2 H3_2 1_555 1_555
O1_2 C9_2 1_555 1_555
O2_2 C9_2 1_555 1_555
C1_2 C2_2 1_555 1_555
C2_2 C4_2 1_555 1_555
C3_2 C4_2 1_555 1_555
C4_2 C9_2 1_555 1_555
C11_2 C1_2 1_555 1_555
C12_2 C1_2 1_555 1_555
C13_2 C11_2 1_555 1_555
C14_3 C12_2 1_555 1_555
C15_2 C13_2 1_555 1_555
C14_3 C15_2 1_555 1_555
C11_2 H1_2 1_555 1_555
C12_2 H2_2 1_555 1_555
C15_2 H5_2 1_555 1_555
C13_2 H6 1_555 1_555
C14_3 H7_2 1_555 1_555
O8_2 Cd1_2 1_555 1_555
O9_2 Cd1_2 1_555 1_555
O11_2 Cd1_2 1_555 1_555
O7 C9_3 1_555 1_555
O2_3 C9_3 1_555 1_555
O8_2 C6_3 1_555 1_555
O9_2 C6_3 1_555 1_555
O10 C10_3 1_555 1_555
O11 C10_3 1_555 1_555
C1_3 C2_3 1_555 1_555
C2_3 C4_3 1_555 1_555
C3_3 C4_3 1_555 1_555
C4_3 C9_3 1_555 1_555
C5_3 C3_3 1_555 1_555
C6_3 C8_3 1_555 1_555
C7_3 C5_3 1_555 1_555
C8_3 C2_3 1_555 1_555
C10_3 C5_3 1_555 1_555
C11_3 C1_3 1_555 1_555
C12_3 C1_3 1_555 1_555
C13_3 C11_3 1_555 1_555
C14_4 C12_3 1_555 1_555
C15_3 C13_3 1_555 1_555
C7_3 C8_3 1_555 1_555
C14_4 C15_3 1_555 1_555
C11_3 H1_3 1_555 1_555
C12_3 H2_3 1_555 1_555
C7_3 H3_3 1_555 1_555
C3_3 H4_3 1_555 1_555
C14_5 H7_3 1_555 1_555
O7_2 C9_4 1_555 1_555
O2_4 C9_4 1_555 1_555
C1_4 C2_4 1_555 1_555
C2_4 C4_4 1_555 1_555
C3_4 C4_4 1_555 1_555
C4_4 C9_4 1_555 1_555
C11_4 C1_4 1_555 1_555
C12_4 C1_4 1_555 1_555
C13_4 C11_4 1_555 1_555
C14_6 C12_4 1_555 1_555
C15_4 C13_4 1_555 1_555
C14_6 C15_4 1_555 1_555
C11_4 H1_4 1_555 1_555
C12_4 H2_4 1_555 1_555
C15_4 H5_4 1_555 1_555
C13_4 H6_2 1_555 1_555
C14_6 H7_4 1_555 1_555
O9 C6_4 1_555 1_555
O10_2 C10_4 1_555 1_555
C6_4 C8_4 1_555 1_555
C7_4 C5_4 1_555 1_555
C10_4 C5_4 1_555 1_555
C7_4 C8_4 1_555 1_555
C7_4 H3_4 1_555 1_555

#END
