
###############################################################################
#
# This file contains modified crystal structure data generated from the
# MOF subset of the Cambridge Structural Database (CSD) v543 
# hosted by the Cambridge Crystallographic Data Centre (CCDC).
#
# This work is licensed under the Creative Commons
# Attribution-NonCommercial-ShareAlike 4.0 International License.
# To view a copy of this license, visit
# http://creativecommons.org/licenses/by-nc-sa/4.0/
# or send a letter to
# Creative Commons, PO Box 1866, Mountain View, CA 94042, USA.
#
# CIF created using the CSD Python API on 29 September 2022
# The structure has been converted into the P1 space group
# The structure has a 3D framework
# The original CSD entry UQOGAK is in the monoclinic crystal system
# The framework has been calculated to contain at least 10.0% void space
# The void calculation uses a probe of radius 1.32A, grid spacing 0.4
#
###############################################################################

data_UQOGAK
_chemical_formula_moiety         '(C112 H88 Mn8 N8 O46)n'
_symmetry_cell_setting           triclinic
_symmetry_space_group_name_H-M   'P 1'
_symmetry_Int_Tables_number      1
_space_group_name_Hall           'P 1'
loop_
_symmetry_equiv_pos_site_id
_symmetry_equiv_pos_as_xyz
1 x,y,z
_cell_length_a                   14.4863(10)
_cell_length_b                   15.9733(11)
_cell_length_c                   16.5214(12)
_cell_angle_alpha                90
_cell_angle_beta                 101.1280(10)
_cell_angle_gamma                90
_cell_volume                     3751.08
loop_
_atom_site_label
_atom_site_type_symbol
_atom_site_fract_x
_atom_site_fract_y
_atom_site_fract_z
H17 H 0.0814 0.3494 0.0346
C26 C 0.0564(3) 0.4195(3) 0.8571(2)
H16 H 0.0904 0.4361 0.8175
C27 C 0.0512(3) 0.3696(3) 0.9835(3)
N2 N 0.1044(2) 0.39017(17) 0.92924(18)
Mn7 Mn 0.26605(4) 0.37101(3) 0.95939(3)
C1 C 0.0214(3) 0.5324(2) 0.4009(2)
H1 H 0.0522 0.4845 0.3884
C5 C 0.0262(3) 0.6582(2) 0.4582(2)
H4 H 0.0606 0.7011 0.4880
N1 N 0.0736(2) 0.59539(16) 0.43852(17)
Mn4 Mn 0.23194(4) 0.60754(3) 0.45579(3)
H18 H 0.9229 0.3612 0.0104
O3 O 0.77129(17) 0.05299(12) 0.34315(14)
Mn6 Mn 0.76605(4) 0.12899(3) 0.45939(3)
C15 C 0.7398(2) 0.03325(19) 0.8739(2)
C16 C 0.7483(2) 0.11759(18) 0.83543(19)
C17 C 0.7535(2) 0.12347(17) 0.75228(18)
H10 H 0.7493 0.0754 0.7201
C18 C 0.7649(2) 0.20045(17) 0.71750(18)
C19 C 0.7691(2) 0.27313(18) 0.76557(18)
H11 H 0.7771 0.3250 0.7424
C20 C 0.7613(2) 0.26756(17) 0.84792(19)
C21 C 0.7516(2) 0.18910(18) 0.88282(19)
H12 H 0.7473 0.1851 0.9381
C22 C 0.7723(2) 0.20672(18) 0.62836(19)
C23 C 0.8021(2) 0.41150(18) 0.8784(2)
H13 H 0.7835 0.4572 0.9105
H14 H 0.7797 0.4239 0.8204
C24 C 0.9074(2) 0.40444(19) 0.8953(2)
C25 C 0.9606(3) 0.4266(2) 0.8383(2)
H15 H 0.9314 0.4464 0.7868
C28 C 0.9555(3) 0.3762(3) 0.9693(2)
O5 O 0.75224(18) 0.02864(13) 0.95165(14)
O7 O 0.76061(17) 0.14187(13) 0.58585(13)
O8 O 0.79227(18) 0.27698(13) 0.60251(14)
O10 O 0.75985(16) 0.33446(13) 0.89936(13)
Mn3 Mn 0.76806(4) 0.39246(3) 0.54421(3)
C2 C 0.9252(3) 0.5345(2) 0.3799(2)
H2 H 0.8925 0.4888 0.3538
C3 C 0.8771(2) 0.60424(18) 0.39738(19)
C4 C 0.9299(2) 0.6681(2) 0.4393(2)
H3 H 0.9014 0.7164 0.4544
C6 C 0.7715(2) 0.60691(17) 0.3734(2)
H5 H 0.7530 0.5970 0.3146
H6 H 0.7450 0.5625 0.4018
C7 C 0.7453(2) 0.75416(17) 0.34499(18)
C8 C 0.7448(2) 0.74926(17) 0.26131(18)
H7 H 0.7391 0.6977 0.2347
C9 C 0.7531(2) 0.82244(17) 0.21712(18)
C10 C 0.7630(2) 0.89885(17) 0.25711(18)
H8 H 0.7689 0.9475 0.2276
C11 C 0.7641(2) 0.90323(17) 0.34113(18)
C12 C 0.7549(2) 0.83104(17) 0.38515(19)
H9 H 0.7551 0.8339 0.4414
C13 C 0.7736(2) 0.98661(18) 0.3850(2)
C14 C 0.7492(2) 0.81726(18) 0.12549(18)
Mn2 Mn 0.73395(4) 0.62899(3) 0.04061(3)
O1 O 0.74774(17) 0.88459(13) 0.08623(13)
O2 O 0.7481(2) 0.74686(14) 0.09364(14)
O4 O 0.78116(17) 0.98849(13) 0.46172(13)
O9 O 0.73377(15) 0.68570(12) 0.39323(13)
O12 O 0.58002(18) 0.63890(14) 0.01517(16)
N4 N 0.8956(2) 0.60983(17) 0.07076(18)
O13 O 0.72871(17) 0.55299(12) 0.15685(14)
O14 O 0.71884(17) 0.48849(13) 0.03828(13)
Mn1 Mn 0.73194(4) 0.89246(3) 0.95579(3)
O6 O 0.72005(18) 0.97012(13) 0.82970(14)
O11 O 0.88105(19) 0.87767(19) 0.95622(19)
H19 H 0.8896 0.8729 0.9002
H20 H 0.8904 0.8254 0.9303
H21 H 0.5527 0.5858 0.9969
H22 H 0.5511 0.6800 0.9728
N3 N 0.5736(2) 0.90461(16) 0.93852(17)
O15 O 0.73939(17) 0.64187(13) 0.91415(13)
O16 O 0.70773(18) 0.77698(13) 0.89749(14)
C1_2 C 0.4786(3) 0.0324(2) 0.0991(2)
C2_2 C 0.5748(3) 0.0345(2) 0.1201(2)
C3_2 C 0.6229(2) 0.10424(18) 0.10262(19)
C4_2 C 0.5701(2) 0.1681(2) 0.0607(2)
H3_2 H 0.5986 0.2164 0.0456
C5_2 C 0.4738(3) 0.1582(2) 0.0418(2)
H4_2 H 0.4394 0.2011 0.0120
C6_2 C 0.7285(2) 0.10691(17) 0.1266(2)
H5_2 H 0.7470 0.0970 0.1854
H6_2 H 0.7550 0.0625 0.0982
C7_2 C 0.7547(2) 0.25416(17) 0.15501(18)
C8_2 C 0.7552(2) 0.24926(17) 0.23869(18)
H7_2 H 0.7609 0.1977 0.2653
C9_2 C 0.7469(2) 0.32244(17) 0.28288(18)
C10_2 C 0.7370(2) 0.39885(17) 0.24289(18)
H8_2 H 0.7311 0.4475 0.2724
C11_2 C 0.7359(2) 0.40323(17) 0.15887(18)
C12_2 C 0.7451(2) 0.33104(17) 0.11485(19)
H9_2 H 0.7449 0.3339 0.0586
C13_2 C 0.7264(2) 0.48661(18) 0.1150(2)
C14_2 C 0.7508(2) 0.31726(18) 0.37451(18)
C15_2 C 0.7602(2) 0.53325(19) 0.6261(2)
C16_2 C 0.7517(2) 0.61759(18) 0.66457(19)
C17_2 C 0.7465(2) 0.62347(17) 0.74772(18)
H10_2 H 0.7507 0.5754 0.7799
C18_2 C 0.7351(2) 0.70045(17) 0.78250(18)
C19_2 C 0.7309(2) 0.77313(18) 0.73443(18)
H11_2 H 0.7229 0.8250 0.7576
C20_2 C 0.7387(2) 0.76756(17) 0.65208(19)
C21_2 C 0.7484(2) 0.68910(18) 0.61718(19)
H12_2 H 0.7527 0.6851 0.5619
C22_2 C 0.7277(2) 0.70672(18) 0.87164(19)
C23_2 C 0.6979(2) 0.91150(18) 0.6216(2)
H13_2 H 0.7165 0.9572 0.5895
H14_2 H 0.7203 0.9239 0.6796
C24_2 C 0.5926(2) 0.90444(19) 0.6047(2)
C25_2 C 0.5394(3) 0.9266(2) 0.6617(2)
H15_2 H 0.5686 0.9464 0.7132
C26_2 C 0.4436(3) 0.9195(3) 0.6429(2)
H16_2 H 0.4096 0.9361 0.6825
C27_2 C 0.4488(3) 0.8696(3) 0.5165(3)
H17_2 H 0.4186 0.8494 0.4654
C28_2 C 0.5445(3) 0.8762(3) 0.5307(2)
H18_2 H 0.5771 0.8612 0.4896
N1_2 N 0.4264(2) 0.09539(16) 0.06148(17)
N2_2 N 0.3956(2) 0.89017(17) 0.57076(18)
O1_2 O 0.75226(17) 0.38459(13) 0.41377(13)
O2_2 O 0.7519(2) 0.24686(14) 0.40636(14)
O5_2 O 0.74776(18) 0.52864(13) 0.54835(14)
O6_2 O 0.77995(18) 0.47012(13) 0.67030(14)
O9_2 O 0.76623(15) 0.18570(12) 0.10677(13)
O10_2 O 0.74015(16) 0.83446(13) 0.60064(13)
O11_2 O 0.61895(19) 0.37767(19) 0.54378(19)
H19_2 H 0.6104 0.3729 0.5998
H20_2 H 0.6096 0.3254 0.5697
O12_2 O 0.91998(18) 0.13890(14) 0.48483(16)
H21_2 H 0.9473 0.0858 0.5031
H22_2 H 0.9489 0.1800 0.5272
Mn4_2 Mn 0.26806(4) 0.10754(3) 0.04421(3)
Mn7_2 Mn 0.23395(4) 0.87101(3) 0.54061(3)
N3_2 N 0.9264(2) 0.40461(16) 0.56148(17)
N4_2 N 0.6044(2) 0.10983(17) 0.42924(18)
H1_2 H 0.4478 0.9845 0.1116
H2_2 H 0.6075 0.9888 0.1462
O6_3 O 0.27995(18) 0.02988(13) 0.17030(14)
O11_3 O 0.11895(19) 0.12233(19) 0.04378(19)
H19_3 H 0.1104 0.1271 0.0998
H20_3 H 0.1096 0.1746 0.0697
H21_3 H 0.4473 0.4142 0.0031
H22_3 H 0.4489 0.3200 0.0272
O15_2 O 0.26061(17) 0.35813(13) 0.08585(13)
O16_2 O 0.29227(18) 0.22302(13) 0.10251(14)
C2_3 C 0.0748(3) 0.4655(2) 0.6201(2)
H2_3 H 0.1075 0.5112 0.6462
C3_3 C 0.1229(2) 0.39576(18) 0.60262(19)
C4_3 C 0.0701(2) 0.3319(2) 0.5607(2)
H3_3 H 0.0986 0.2836 0.5456
C6_3 C 0.2285(2) 0.39309(17) 0.6266(2)
H5_3 H 0.2470 0.4030 0.6854
H6_3 H 0.2550 0.4375 0.5982
C7_3 C 0.2547(2) 0.24584(17) 0.65501(18)
C8_3 C 0.2552(2) 0.25074(17) 0.73869(18)
H7_3 H 0.2609 0.3023 0.7653
C9_3 C 0.2469(2) 0.17756(17) 0.78288(18)
C10_3 C 0.2370(2) 0.10115(17) 0.74289(18)
H8_3 H 0.2311 0.0525 0.7724
C11_3 C 0.2359(2) 0.09677(17) 0.65887(18)
C12_3 C 0.2451(2) 0.16896(17) 0.61485(19)
H9_3 H 0.2449 0.1661 0.5586
C13_3 C 0.2264(2) 0.01339(18) 0.6150(2)
C14_3 C 0.2508(2) 0.18274(18) 0.87451(18)
O1_3 O 0.25226(17) 0.11541(13) 0.91377(13)
O2_3 O 0.2519(2) 0.25314(14) 0.90636(14)
O4_2 O 0.21884(17) 0.01151(13) 0.53828(13)
O9_3 O 0.26623(15) 0.31430(12) 0.60677(13)
O12_3 O 0.41998(18) 0.36110(14) 0.98483(16)
O13_2 O 0.27129(17) 0.44701(12) 0.84315(14)
O14_2 O 0.28116(17) 0.51151(13) 0.96172(13)
C15_3 C 0.2602(2) 0.96675(19) 0.1261(2)
C16_3 C 0.2517(2) 0.88241(18) 0.16457(19)
C17_3 C 0.2465(2) 0.87653(17) 0.24772(18)
H10_3 H 0.2507 0.9246 0.2799
C18_3 C 0.2351(2) 0.79955(17) 0.28250(18)
C19_3 C 0.2309(2) 0.72687(18) 0.23443(18)
H11_3 H 0.2229 0.6750 0.2576
C20_3 C 0.2387(2) 0.73244(17) 0.15208(19)
C21_3 C 0.2484(2) 0.81090(18) 0.11718(19)
H12_3 H 0.2527 0.8149 0.0619
C22_3 C 0.2277(2) 0.79328(18) 0.37164(19)
C23_3 C 0.1979(2) 0.58850(18) 0.1216(2)
H13_3 H 0.2165 0.5428 0.0895
H14_3 H 0.2203 0.5761 0.1796
C24_3 C 0.0926(2) 0.59556(19) 0.1047(2)
C25_3 C 0.0394(3) 0.5734(2) 0.1617(2)
H15_3 H 0.0686 0.5536 0.2132
C28_3 C 0.0445(3) 0.6238(3) 0.0307(2)
O5_3 O 0.24776(18) 0.97136(13) 0.04835(14)
O7_2 O 0.23939(17) 0.85813(13) 0.41415(13)
O8_2 O 0.20773(18) 0.72302(13) 0.39749(14)
O10_3 O 0.24015(16) 0.66554(13) 0.10064(13)
H18_3 H 0.0771 0.6388 0.9896
O3_2 O 0.22871(17) 0.94701(12) 0.65685(14)
C1_3 C 0.9786(3) 0.4676(2) 0.5991(2)
H1_3 H 0.9478 0.5155 0.6116
C5_3 C 0.9738(3) 0.3418(2) 0.5418(2)
H4_3 H 0.9394 0.2989 0.5120
C26_3 C 0.9436(3) 0.5805(3) 0.1429(2)
H16_3 H 0.9096 0.5639 0.1825
C27_3 C 0.9488(3) 0.6304(3) 0.0165(3)
H1_4 H 0.5522 0.0155 0.8884
H2_4 H 0.3925 0.0112 0.8538
C1_4 C 0.5214(3) 0.9676(2) 0.9009(2)
C2_4 C 0.4252(3) 0.9655(2) 0.8799(2)
C3_4 C 0.3771(2) 0.89576(18) 0.89738(19)
C4_4 C 0.4299(2) 0.8319(2) 0.9393(2)
H3_4 H 0.4014 0.7836 0.9544
C5_4 C 0.5262(3) 0.8418(2) 0.9582(2)
H4_4 H 0.5606 0.7989 0.9880
C6_4 C 0.2715(2) 0.89309(17) 0.8734(2)
H5_4 H 0.2530 0.9030 0.8146
H6_4 H 0.2450 0.9375 0.9018
C7_4 C 0.2453(2) 0.74584(17) 0.84499(18)
C8_4 C 0.2448(2) 0.75074(17) 0.76131(18)
H7_4 H 0.2391 0.8023 0.7347
C9_4 C 0.2531(2) 0.67756(17) 0.71712(18)
C10_4 C 0.2630(2) 0.60115(17) 0.75711(18)
H8_4 H 0.2689 0.5525 0.7276
C11_4 C 0.2641(2) 0.59677(17) 0.84113(18)
C12_4 C 0.2549(2) 0.66896(17) 0.88515(19)
H9_4 H 0.2551 0.6661 0.9414
C13_4 C 0.2736(2) 0.51339(18) 0.8850(2)
C14_4 C 0.2492(2) 0.68274(18) 0.62549(18)
C15_4 C 0.2398(2) 0.46675(19) 0.3739(2)
C16_4 C 0.2483(2) 0.38241(18) 0.33543(19)
C17_4 C 0.2535(2) 0.37653(17) 0.25228(18)
H10_4 H 0.2493 0.4246 0.2201
C18_4 C 0.2649(2) 0.29955(17) 0.21750(18)
C19_4 C 0.2691(2) 0.22687(18) 0.26557(18)
H11_4 H 0.2771 0.1750 0.2424
C20_4 C 0.2613(2) 0.23244(17) 0.34792(19)
C21_4 C 0.2516(2) 0.31090(18) 0.38282(19)
H12_4 H 0.2473 0.3149 0.4381
C22_4 C 0.2723(2) 0.29328(18) 0.12836(19)
C23_4 C 0.3021(2) 0.08850(18) 0.3784(2)
H13_4 H 0.2835 0.0428 0.4105
H14_4 H 0.2797 0.0761 0.3204
C24_4 C 0.4074(2) 0.09556(19) 0.3953(2)
C25_4 C 0.4606(3) 0.0734(2) 0.3383(2)
H15_4 H 0.4314 0.0536 0.2868
C26_4 C 0.5564(3) 0.0805(3) 0.3571(2)
H16_4 H 0.5904 0.0639 0.3175
C27_4 C 0.5512(3) 0.1304(3) 0.4835(3)
H17_3 H 0.5814 0.1506 0.5346
C28_4 C 0.4555(3) 0.1238(3) 0.4693(2)
H18_4 H 0.4229 0.1388 0.5104
O1_4 O 0.24774(17) 0.61541(13) 0.58623(13)
O2_4 O 0.2481(2) 0.75314(14) 0.59364(14)
O5_4 O 0.25224(18) 0.47136(13) 0.45165(14)
O6_4 O 0.22005(18) 0.52988(13) 0.32970(14)
O9_4 O 0.23377(15) 0.81430(12) 0.89323(13)
O10_4 O 0.25985(16) 0.16554(13) 0.39936(13)
O11_4 O 0.38105(19) 0.62233(19) 0.45622(19)
H19_4 H 0.3896 0.6271 0.4002
H20_4 H 0.3904 0.6746 0.4303
O12_4 O 0.08002(18) 0.86110(14) 0.51517(16)
H21_4 H 0.0527 0.9142 0.4969
H22_4 H 0.0511 0.8200 0.4728
H17_4 H 0.9186 0.6506 0.9654
loop_
_geom_bond_atom_site_label_1
_geom_bond_atom_site_label_2
_geom_bond_site_symmetry_1
_geom_bond_site_symmetry_2
H16 C26 1_555 1_555
N2 C26 1_555 1_555
Mn7 N2 1_555 1_555
C27 N2 1_555 1_555
C1 H1 1_555 1_555
H4 C5 1_555 1_555
N1 C1 1_555 1_555
Mn4 N1 1_555 1_555
C5 N1 1_555 1_555
Mn6 O3 1_555 1_555
C15 C16 1_555 1_555
C16 C17 1_555 1_555
C17 H10 1_555 1_555
C18 C17 1_555 1_555
C19 C18 1_555 1_555
H11 C19 1_555 1_555
C20 C19 1_555 1_555
C21 C16 1_555 1_555
H12 C21 1_555 1_555
C22 C18 1_555 1_555
C23 H13 1_555 1_555
H14 C23 1_555 1_555
C24 C23 1_555 1_555
C25 C24 1_555 1_555
H15 C25 1_555 1_555
C28 C24 1_555 1_555
O5 C15 1_555 1_555
O7 C22 1_555 1_555
O8 C22 1_555 1_555
O10 C20 1_555 1_555
Mn3 O8 1_555 1_555
Mn6 O7 1_555 1_555
C20 C21 1_555 1_555
C23 O10 1_555 1_555
H2 C2 1_555 1_555
C3 C2 1_555 1_555
C4 C3 1_555 1_555
H3 C4 1_555 1_555
C6 C3 1_555 1_555
H5 C6 1_555 1_555
H6 C6 1_555 1_555
C7 C8 1_555 1_555
C8 H7 1_555 1_555
C9 C8 1_555 1_555
C10 C9 1_555 1_555
H8 C10 1_555 1_555
C11 C10 1_555 1_555
C12 C7 1_555 1_555
H9 C12 1_555 1_555
C13 C11 1_555 1_555
C14 C9 1_555 1_555
Mn2 O2 1_555 1_555
O1 C14 1_555 1_555
O2 C14 1_555 1_555
O4 C13 1_555 1_555
O9 C6 1_555 1_555
O12 Mn2 1_555 1_555
N4 Mn2 1_555 1_555
O13 Mn2 1_555 1_555
O14 Mn2 1_555 1_555
C7 O9 1_555 1_555
C11 C12 1_555 1_555
O11 Mn1 1_555 1_555
H19 O11 1_555 1_555
H20 O11 1_555 1_555
N3 Mn1 1_555 1_555
O16 Mn1 1_555 1_555
Mn1 O6 1_555 1_555
C2_2 C1_2 1_555 1_555
C3_2 C2_2 1_555 1_555
C4_2 C3_2 1_555 1_555
H3_2 C4_2 1_555 1_555
C5_2 C4_2 1_555 1_555
H4_2 C5_2 1_555 1_555
C6_2 C3_2 1_555 1_555
H5_2 C6_2 1_555 1_555
H6_2 C6_2 1_555 1_555
C7_2 C8_2 1_555 1_555
C8_2 H7_2 1_555 1_555
C9_2 C8_2 1_555 1_555
C10_2 C9_2 1_555 1_555
H8_2 C10_2 1_555 1_555
C11_2 C10_2 1_555 1_555
C12_2 C7_2 1_555 1_555
H9_2 C12_2 1_555 1_555
C13_2 C11_2 1_555 1_555
C14_2 C9_2 1_555 1_555
C15_2 C16_2 1_555 1_555
C16_2 C17_2 1_555 1_555
C17_2 H10_2 1_555 1_555
C18_2 C17_2 1_555 1_555
C19_2 C18_2 1_555 1_555
H11_2 C19_2 1_555 1_555
C20_2 C19_2 1_555 1_555
C21_2 C16_2 1_555 1_555
H12_2 C21_2 1_555 1_555
C22_2 C18_2 1_555 1_555
C23_2 H13_2 1_555 1_555
H14_2 C23_2 1_555 1_555
C24_2 C23_2 1_555 1_555
C25_2 C24_2 1_555 1_555
H15_2 C25_2 1_555 1_555
C26_2 C25_2 1_555 1_555
H16_2 C26_2 1_555 1_555
C27_2 H17_2 1_555 1_555
C28_2 C24_2 1_555 1_555
H18_2 C28_2 1_555 1_555
Mn3 O1_2 1_555 1_555
Mn6 O2_2 1_555 1_555
N1_2 C1_2 1_555 1_555
N2_2 C26_2 1_555 1_555
O1_2 C14_2 1_555 1_555
O2_2 C14_2 1_555 1_555
O13 C13_2 1_555 1_555
O14 C13_2 1_555 1_555
O5_2 C15_2 1_555 1_555
O6_2 C15_2 1_555 1_555
O15 C22_2 1_555 1_555
O16 C22_2 1_555 1_555
O9_2 C6_2 1_555 1_555
O10_2 C20_2 1_555 1_555
O11_2 Mn3 1_555 1_555
H19_2 O11_2 1_555 1_555
H20_2 O11_2 1_555 1_555
O12_2 Mn6 1_555 1_555
H21_2 O12_2 1_555 1_555
H22_2 O12_2 1_555 1_555
Mn4_2 N1_2 1_555 1_555
Mn7_2 N2_2 1_555 1_555
N3_2 Mn3 1_555 1_555
N4_2 Mn6 1_555 1_555
C5_2 N1_2 1_555 1_555
C7_2 O9_2 1_555 1_555
C11_2 C12_2 1_555 1_555
C20_2 C21_2 1_555 1_555
C23_2 O10_2 1_555 1_555
C27_2 C28_2 1_555 1_555
C27_2 N2_2 1_555 1_555
Mn3 O5_2 1_555 1_555
Mn3 O6_2 1_555 1_555
O11_3 Mn4_2 1_555 1_555
H19_3 O11_3 1_555 1_555
H20_3 O11_3 1_555 1_555
O16_2 Mn4_2 1_555 1_555
Mn4_2 O6_3 1_555 1_555
H2_3 C2_3 1_555 1_555
C3_3 C2_3 1_555 1_555
C4_3 C3_3 1_555 1_555
H3_3 C4_3 1_555 1_555
C6_3 C3_3 1_555 1_555
H5_3 C6_3 1_555 1_555
H6_3 C6_3 1_555 1_555
C7_3 C8_3 1_555 1_555
C8_3 H7_3 1_555 1_555
C9_3 C8_3 1_555 1_555
C10_3 C9_3 1_555 1_555
H8_3 C10_3 1_555 1_555
C11_3 C10_3 1_555 1_555
C12_3 C7_3 1_555 1_555
H9_3 C12_3 1_555 1_555
C13_3 C11_3 1_555 1_555
C14_3 C9_3 1_555 1_555
Mn7 O2_3 1_555 1_555
O1_3 C14_3 1_555 1_555
O2_3 C14_3 1_555 1_555
O4_2 C13_3 1_555 1_555
O9_3 C6_3 1_555 1_555
O12_3 Mn7 1_555 1_555
O13_2 Mn7 1_555 1_555
O14_2 Mn7 1_555 1_555
C7_3 O9_3 1_555 1_555
C11_3 C12_3 1_555 1_555
C15_3 C16_3 1_555 1_555
C16_3 C17_3 1_555 1_555
C17_3 H10_3 1_555 1_555
C18_3 C17_3 1_555 1_555
C19_3 C18_3 1_555 1_555
H11_3 C19_3 1_555 1_555
C20_3 C19_3 1_555 1_555
C21_3 C16_3 1_555 1_555
H12_3 C21_3 1_555 1_555
C22_3 C18_3 1_555 1_555
C23_3 H13_3 1_555 1_555
H14_3 C23_3 1_555 1_555
C24_3 C23_3 1_555 1_555
C25_3 C24_3 1_555 1_555
H15_3 C25_3 1_555 1_555
C28_3 C24_3 1_555 1_555
O5_3 C15_3 1_555 1_555
O7_2 C22_3 1_555 1_555
O8_2 C22_3 1_555 1_555
O10_3 C20_3 1_555 1_555
Mn4 O8_2 1_555 1_555
Mn7_2 O7_2 1_555 1_555
C20_3 C21_3 1_555 1_555
C23_3 O10_3 1_555 1_555
Mn7_2 O3_2 1_555 1_555
C1_3 H1_3 1_555 1_555
H4_3 C5_3 1_555 1_555
N3_2 C1_3 1_555 1_555
C5_3 N3_2 1_555 1_555
H16_3 C26_3 1_555 1_555
N4 C26_3 1_555 1_555
C27_3 N4 1_555 1_555
C2_4 C1_4 1_555 1_555
C3_4 C2_4 1_555 1_555
C4_4 C3_4 1_555 1_555
H3_4 C4_4 1_555 1_555
C5_4 C4_4 1_555 1_555
H4_4 C5_4 1_555 1_555
C6_4 C3_4 1_555 1_555
H5_4 C6_4 1_555 1_555
H6_4 C6_4 1_555 1_555
C7_4 C8_4 1_555 1_555
C8_4 H7_4 1_555 1_555
C9_4 C8_4 1_555 1_555
C10_4 C9_4 1_555 1_555
H8_4 C10_4 1_555 1_555
C11_4 C10_4 1_555 1_555
C12_4 C7_4 1_555 1_555
H9_4 C12_4 1_555 1_555
C13_4 C11_4 1_555 1_555
C14_4 C9_4 1_555 1_555
C15_4 C16_4 1_555 1_555
C16_4 C17_4 1_555 1_555
C17_4 H10_4 1_555 1_555
C18_4 C17_4 1_555 1_555
C19_4 C18_4 1_555 1_555
H11_4 C19_4 1_555 1_555
C20_4 C19_4 1_555 1_555
C21_4 C16_4 1_555 1_555
H12_4 C21_4 1_555 1_555
C22_4 C18_4 1_555 1_555
C23_4 H13_4 1_555 1_555
H14_4 C23_4 1_555 1_555
C24_4 C23_4 1_555 1_555
C25_4 C24_4 1_555 1_555
H15_4 C25_4 1_555 1_555
C26_4 C25_4 1_555 1_555
H16_4 C26_4 1_555 1_555
C27_4 H17_3 1_555 1_555
C28_4 C24_4 1_555 1_555
H18_4 C28_4 1_555 1_555
Mn4 O1_4 1_555 1_555
Mn7_2 O2_4 1_555 1_555
N3 C1_4 1_555 1_555
N4_2 C26_4 1_555 1_555
O1_4 C14_4 1_555 1_555
O2_4 C14_4 1_555 1_555
O13_2 C13_4 1_555 1_555
O14_2 C13_4 1_555 1_555
O5_4 C15_4 1_555 1_555
O6_4 C15_4 1_555 1_555
O15_2 C22_4 1_555 1_555
O16_2 C22_4 1_555 1_555
O9_4 C6_4 1_555 1_555
O10_4 C20_4 1_555 1_555
O11_4 Mn4 1_555 1_555
H19_4 O11_4 1_555 1_555
H20_4 O11_4 1_555 1_555
O12_4 Mn7_2 1_555 1_555
H21_4 O12_4 1_555 1_555
H22_4 O12_4 1_555 1_555
C5_4 N3 1_555 1_555
C7_4 O9_4 1_555 1_555
C11_4 C12_4 1_555 1_555
C20_4 C21_4 1_555 1_555
C23_4 O10_4 1_555 1_555
C27_4 C28_4 1_555 1_555
C27_4 N4_2 1_555 1_555
Mn4 O5_4 1_555 1_555
Mn4 O6_4 1_555 1_555

#END
