
###############################################################################
#
# This file contains modified crystal structure data generated from the
# MOF subset of the Cambridge Structural Database (CSD) v543 
# hosted by the Cambridge Crystallographic Data Centre (CCDC).
#
# This work is licensed under the Creative Commons
# Attribution-NonCommercial-ShareAlike 4.0 International License.
# To view a copy of this license, visit
# http://creativecommons.org/licenses/by-nc-sa/4.0/
# or send a letter to
# Creative Commons, PO Box 1866, Mountain View, CA 94042, USA.
#
# CIF created using the CSD Python API on 29 September 2022
# The structure has been converted into the P1 space group
# The structure has a 3D framework
# The original CSD entry UQOYAB is in the monoclinic crystal system
# The framework has been calculated to contain at least 10.0% void space
# The void calculation uses a probe of radius 1.32A, grid spacing 0.4
# H atom positions have been added when not included in the experimental data
# Generated hydrogen atom positions removed from atoms on special positions
#
###############################################################################

data_UQOYAB
_chemical_formula_moiety         '(C28 H66 Nd12 O48 S4)n'
_symmetry_cell_setting           triclinic
_symmetry_space_group_name_H-M   'P 1'
_symmetry_Int_Tables_number      1
_space_group_name_Hall           'P 1'
loop_
_symmetry_equiv_pos_site_id
_symmetry_equiv_pos_as_xyz
1 x,y,z
_cell_length_a                   13.024(3)
_cell_length_b                   10.961(2)
_cell_length_c                   12.792(3)
_cell_angle_alpha                90
_cell_angle_beta                 91.271(3)
_cell_angle_gamma                90
_cell_volume                     1825.69
loop_
_atom_site_label
_atom_site_type_symbol
_atom_site_fract_x
_atom_site_fract_y
_atom_site_fract_z
S1 S 0.18108(15) 0.6362(2) 0.61224(18)
O11 O 0.1466(5) 0.6060(7) 0.7150(5)
O12 O 0.2481(4) 0.5433(6) 0.5678(5)
O13 O 0.2297(5) 0.7575(6) 0.6068(6)
C4 C 0.0041(7) 0.6621(9) 0.3531(7)
H9 H 0.0141 0.6616 0.2813
C5 C 0.0840(6) 0.6432(9) 0.4218(7)
H10 H 0.1491 0.6291 0.3959
C6 C 0.0713(6) 0.6444(8) 0.5273(7)
Nd6 Nd 0.41987(3) 0.42914(4) 0.61949(3)
Nd3 Nd 0.54762(3) 0.09130(4) 0.62918(3)
O10 O 0.7300(5) 0.1605(8) 0.6024(7)
O14 O 0.4036(4) 0.2099(5) 0.6914(4)
H12 H 0.3675 0.2343 0.6393
O16 O 0.5331(4) 0.2782(5) 0.5293(4)
H14 H 0.4998 0.2127 0.5183
O17 O 0.5713(4) 0.1442(5) 0.8133(4)
H15 H 0.6340 0.1881 0.8264
O18 O 0.4114(4) 0.0615(5) 0.4979(4)
H16 H 0.3712 0.1225 0.4983
O20 O 0.4178(4) 0.0298(5) 0.9268(4)
H17 H 0.4314 0.0949 0.9605
O22 O 0.7519(4) 0.0433(6) 0.9322(5)
H19 H 0.588377 0.304136 0.481905
H20 H 0.767232 0.0975743 0.562223
H21 H 0.729589 0.23858 0.563026
H22 H 0.429648 0.281395 0.731611
O21 O 0.5822(4) 0.9702(5) 0.0732(4)
H18 H 0.5686 0.9051 0.0395
Nd1 Nd 0.57994(3) 0.75411(4) 0.62819(3)
Nd2 Nd 0.58013(3) 0.92914(4) 0.88051(3)
O1 O 0.4747(4) 0.9158(4) 0.7144(4)
H1 H 0.4117 0.9054 0.6982
O2 O 0.5964(4) 0.7099(5) 0.8086(4)
H2 H 0.6325 0.7343 0.8607
O3 O 0.4669(4) 0.7218(5) 0.4707(4)
H3 H 0.5002 0.7873 0.4817
O4 O 0.6675(4) 0.9324(5) 0.7148(4)
H4 H 0.7407 0.9418 0.7126
O5 O 0.4287(4) 0.6442(5) 0.6867(4)
H5 H 0.3660 0.6881 0.6736
O6 O 0.5886(4) 0.9385(5) 0.5021(4)
H6 H 0.6288 0.8775 0.5017
O7 O 0.7102(4) 0.7144(5) 0.4788(4)
O8 O 0.5822(4) 0.5298(5) 0.5732(4)
O9 O 0.7717(5) 0.6871(6) 0.6389(4)
C1 C 0.7853(6) 0.6945(8) 0.5424(6)
C2 C 0.8911(6) 0.6796(8) 0.5001(6)
C3 C 0.9057(6) 0.6824(9) 0.3939(7)
H8 H 0.8504 0.6979 0.3486
C7 C 0.9756(6) 0.6619(8) 0.5686(7)
H11 H 0.9671 0.6620 0.6406
Nd4 Nd 0.58013(3) 0.57086(4) 0.38051(3)
Nd7 Nd 0.45238(3) 0.59130(4) 0.87082(3)
Nd8 Nd 0.45238(3) 0.90870(4) 0.37082(3)
O15 O 0.4669(4) 0.7782(5) 0.9707(4)
H13 H 0.5002 0.7127 0.9817
O19 O 0.7102(4) 0.7856(5) 0.9788(4)
H23 H 0.376924 0.974232 0.970906
O3_2 O 0.5331(4) 0.2218(5) 0.0293(4)
H3_2 H 0.4998 0.2873 0.0183
O7_2 O 0.2898(4) 0.2144(5) 0.0212(4)
C3_2 C 0.0943(6) 0.1824(9) 0.1061(7)
H8_2 H 0.1496 0.1979 0.1514
Nd4_2 Nd 0.41987(3) 0.07086(4) 0.11949(3)
Nd8_2 Nd 0.54762(3) 0.40870(4) 0.12918(3)
O18_2 O 0.5886(4) 0.5615(5) 0.0021(4)
H16_2 H 0.6288 0.6225 0.0017
H19_2 H 0.411623 0.804136 0.0180953
Nd1_2 Nd 0.42006(3) 0.25411(4) 0.87181(3)
O1_2 O 0.5253(4) 0.4158(4) 0.7856(4)
H1_2 H 0.5883 0.4054 0.8018
O4_2 O 0.3325(4) 0.4324(5) 0.7852(4)
H4_2 H 0.2593 0.4418 0.7874
O6_2 O 0.4114(4) 0.4385(5) 0.9979(4)
H6_2 H 0.3712 0.3775 0.9983
O9_2 O 0.2283(5) 0.1871(6) 0.8611(4)
O10_2 O 0.2700(5) 0.6605(8) 0.8976(7)
C1_2 C 0.2147(6) 0.1945(8) 0.9576(6)
C2_2 C 0.1089(6) 0.1796(8) 0.9999(6)
C7_2 C 0.0244(6) 0.1619(8) 0.9314(7)
H11_2 H 0.0329 0.1620 0.8594
O19_2 O 0.2898(4) 0.2856(5) 0.5212(4)
O21_2 O 0.4178(4) 0.4702(5) 0.4268(4)
H20_2 H 0.232768 0.597574 0.937777
H21_2 H 0.270411 0.73858 0.936974
H22_2 H 0.570352 0.781395 0.768389
S1_2 S 0.81892(15) 0.1362(2) 0.88776(18)
O11_2 O 0.8534(5) 0.1060(7) 0.7850(5)
O13_2 O 0.7703(5) 0.2575(6) 0.8932(6)
C6_2 C 0.9287(6) 0.1444(8) 0.9727(7)
Nd1_3 Nd 0.42006(3) 0.24589(4) 0.37181(3)
O1_3 O 0.5253(4) 0.0842(4) 0.2856(4)
H1_3 H 0.5883 0.0946 0.3018
O2_2 O 0.4036(4) 0.2901(5) 0.1914(4)
H2_2 H 0.3675 0.2657 0.1393
O4_3 O 0.3325(4) 0.0676(5) 0.2852(4)
H4_3 H 0.2593 0.0582 0.2874
O5_2 O 0.5713(4) 0.3558(5) 0.3133(4)
H5_2 H 0.6340 0.3119 0.3264
O9_3 O 0.2283(5) 0.3129(6) 0.3611(4)
C1_3 C 0.2147(6) 0.3055(8) 0.4576(6)
C2_3 C 0.1089(6) 0.3204(8) 0.4999(6)
C3_3 C 0.0943(6) 0.3176(9) 0.6061(7)
H8_3 H 0.1496 0.3021 0.6514
C7_3 C 0.0244(6) 0.3381(8) 0.4314(7)
H11_3 H 0.0329 0.3380 0.3594
H23_2 H 0.623076 0.0257682 0.0290939
O10_3 O 0.2700(5) 0.8395(8) 0.3976(7)
O14_2 O 0.5964(4) 0.7901(5) 0.3086(4)
H12_2 H 0.6325 0.7657 0.3607
O17_2 O 0.4287(4) 0.8558(5) 0.1867(4)
H15_2 H 0.3660 0.8119 0.1736
O22_2 O 0.2481(4) 0.9567(6) 0.0678(5)
H19_3 H 0.411623 0.695864 0.518095
H20_3 H 0.232768 0.902426 0.437777
H21_3 H 0.270411 0.76142 0.436974
H22_3 H 0.570352 0.718605 0.268389
S1_3 S 0.81892(15) 0.3638(2) 0.38776(18)
O11_3 O 0.8534(5) 0.3940(7) 0.2850(5)
O12_2 O 0.7519(4) 0.4567(6) 0.4322(5)
O13_3 O 0.7703(5) 0.2425(6) 0.3932(6)
C4_2 C 0.9959(7) 0.3379(9) 0.6469(7)
H9_2 H 0.9859 0.3384 0.7187
C5_2 C 0.9160(6) 0.3568(9) 0.5782(7)
H10_2 H 0.8509 0.3709 0.6041
C6_3 C 0.9287(6) 0.3556(8) 0.4727(7)
S1_4 S 0.18108(15) 0.8638(2) 0.11224(18)
O11_4 O 0.1466(5) 0.8940(7) 0.2150(5)
O13_4 O 0.2297(5) 0.7425(6) 0.1068(6)
C6_4 C 0.0713(6) 0.8556(8) 0.0273(7)
Nd1_4 Nd 0.57994(3) 0.74589(4) 0.12819(3)
O1_4 O 0.4747(4) 0.5842(4) 0.2144(4)
H1_4 H 0.4117 0.5946 0.1982
O4_4 O 0.6675(4) 0.5676(5) 0.2148(4)
H4_4 H 0.7407 0.5582 0.2126
O9_4 O 0.7717(5) 0.8129(6) 0.1389(4)
O10_4 O 0.7300(5) 0.3395(8) 0.1024(7)
C1_4 C 0.7853(6) 0.8055(8) 0.0424(6)
C2_4 C 0.8911(6) 0.8204(8) 0.0001(6)
C7_4 C 0.9756(6) 0.8381(8) 0.0686(7)
H11_4 H 0.9671 0.8380 0.1406
H20_4 H 0.767232 0.402426 0.0622232
H21_4 H 0.729589 0.26142 0.0630264
H22_4 H 0.429648 0.218605 0.231611
C3_4 C 0.9057(6) 0.8176(9) 0.8939(7)
H8_4 H 0.8504 0.8021 0.8486
H19_4 H 0.588377 0.195864 0.981905
H24 H 0.527459 0.0189135 0.106298
C4_3 C 0.9959(7) 0.1621(9) 0.1469(7)
H9_3 H 0.9859 0.1616 0.2187
C5_3 C 0.9160(6) 0.1432(9) 0.0782(7)
H10_3 H 0.8509 0.1291 0.1041
H24_2 H 0.472541 0.981087 0.893702
C4_4 C 0.0041(7) 0.8379(9) 0.8531(7)
H9_4 H 0.0141 0.8384 0.7813
C5_4 C 0.0840(6) 0.8568(9) 0.9218(7)
H10_4 H 0.1491 0.8709 0.8959
loop_
_geom_bond_atom_site_label_1
_geom_bond_atom_site_label_2
_geom_bond_site_symmetry_1
_geom_bond_site_symmetry_2
S1 O11 1_555 1_555
O12 S1 1_555 1_555
O13 S1 1_555 1_555
H9 C4 1_555 1_555
C5 C4 1_555 1_555
H10 C5 1_555 1_555
C6 S1 1_555 1_555
Nd6 O12 1_555 1_555
C5 C6 1_555 1_555
O10 Nd3 1_555 1_555
O14 Nd3 1_555 1_555
H12 O14 1_555 1_555
O16 Nd3 1_555 1_555
H14 O16 1_555 1_555
H15 O17 1_555 1_555
O18 Nd3 1_555 1_555
H16 O18 1_555 1_555
H17 O20 1_555 1_555
Nd3 O17 1_555 1_555
O16 H19 1_555 1_555
O10 H20 1_555 1_555
O10 H21 1_555 1_555
O14 H22 1_555 1_555
H18 O21 1_555 1_555
Nd1 O1 1_555 1_555
Nd2 O1 1_555 1_555
O1 H1 1_555 1_555
O2 Nd1 1_555 1_555
H2 O2 1_555 1_555
O3 Nd1 1_555 1_555
H3 O3 1_555 1_555
O4 Nd1 1_555 1_555
H4 O4 1_555 1_555
O5 Nd1 1_555 1_555
H5 O5 1_555 1_555
O6 Nd1 1_555 1_555
H6 O6 1_555 1_555
O7 Nd1 1_555 1_555
O8 Nd1 1_555 1_555
O9 Nd1 1_555 1_555
C1 O7 1_555 1_555
C2 C1 1_555 1_555
C3 C2 1_555 1_555
H8 C3 1_555 1_555
C7 C2 1_555 1_555
H11 C7 1_555 1_555
Nd4 O3 1_555 1_555
Nd6 O5 1_555 1_555
Nd7 O2 1_555 1_555
Nd8 O3 1_555 1_555
O15 Nd2 1_555 1_555
H13 O15 1_555 1_555
O19 Nd2 1_555 1_555
Nd2 O2 1_555 1_555
Nd2 O4 1_555 1_555
O5 Nd7 1_555 1_555
O6 Nd8 1_555 1_555
O7 Nd4 1_555 1_555
O8 Nd4 1_555 1_555
O8 Nd6 1_555 1_555
O9 C1 1_555 1_555
Nd7 O15 1_555 1_555
H3_2 O3_2 1_555 1_555
H8_2 C3_2 1_555 1_555
Nd4_2 O3_2 1_555 1_555
Nd8_2 O3_2 1_555 1_555
H16_2 O18_2 1_555 1_555
O7_2 Nd4_2 1_555 1_555
Nd8_2 O18_2 1_555 1_555
Nd1_2 O1_2 1_555 1_555
Nd6 O1_2 1_555 1_555
Nd7 O1_2 1_555 1_555
O1_2 H1_2 1_555 1_555
O14 Nd1_2 1_555 1_555
O4_2 Nd1_2 1_555 1_555
H4_2 O4_2 1_555 1_555
O17 Nd1_2 1_555 1_555
O6_2 Nd1_2 1_555 1_555
H6_2 O6_2 1_555 1_555
O20 Nd1_2 1_555 1_555
O9_2 Nd1_2 1_555 1_555
O10_2 Nd7 1_555 1_555
C2_2 C1_2 1_555 1_555
C7_2 C2_2 1_555 1_555
H11_2 C7_2 1_555 1_555
O16 Nd6 1_555 1_555
O19_2 Nd6 1_555 1_555
O21_2 Nd6 1_555 1_555
Nd6 O14 1_555 1_555
Nd6 O4_2 1_555 1_555
Nd7 O4_2 1_555 1_555
Nd7 O6_2 1_555 1_555
O9_2 C1_2 1_555 1_555
O10_2 H20_2 1_555 1_555
O10_2 H21_2 1_555 1_555
O2 H22_2 1_555 1_555
S1_2 O11_2 1_555 1_555
O22 S1_2 1_555 1_555
O13_2 S1_2 1_555 1_555
C6_2 S1_2 1_555 1_555
Nd1_3 O1_3 1_555 1_555
Nd4_2 O1_3 1_555 1_555
O1_3 H1_3 1_555 1_555
O2_2 Nd1_3 1_555 1_555
H2_2 O2_2 1_555 1_555
O16 Nd1_3 1_555 1_555
O4_3 Nd1_3 1_555 1_555
H4_3 O4_3 1_555 1_555
O5_2 Nd1_3 1_555 1_555
H5_2 O5_2 1_555 1_555
O18 Nd1_3 1_555 1_555
O19_2 Nd1_3 1_555 1_555
O21_2 Nd1_3 1_555 1_555
O9_3 Nd1_3 1_555 1_555
C1_3 O19_2 1_555 1_555
C2_3 C1_3 1_555 1_555
C3_3 C2_3 1_555 1_555
H8_3 C3_3 1_555 1_555
C7_3 C2_3 1_555 1_555
H11_3 C7_3 1_555 1_555
Nd4 O5_2 1_555 1_555
Nd8_2 O2_2 1_555 1_555
Nd4_2 O2_2 1_555 1_555
Nd4_2 O4_3 1_555 1_555
O5_2 Nd8_2 1_555 1_555
O21_2 Nd4 1_555 1_555
O9_3 C1_3 1_555 1_555
O10_3 Nd8 1_555 1_555
O14_2 Nd8 1_555 1_555
H12_2 O14_2 1_555 1_555
H15_2 O17_2 1_555 1_555
Nd8 O17_2 1_555 1_555
O3 H19_3 1_555 1_555
O10_3 H20_3 1_555 1_555
O10_3 H21_3 1_555 1_555
O14_2 H22_3 1_555 1_555
S1_3 O11_3 1_555 1_555
O12_2 S1_3 1_555 1_555
O13_3 S1_3 1_555 1_555
H9_2 C4_2 1_555 1_555
C5_2 C4_2 1_555 1_555
H10_2 C5_2 1_555 1_555
C6_3 S1_3 1_555 1_555
Nd4 O12_2 1_555 1_555
C5_2 C6_3 1_555 1_555
S1_4 O11_4 1_555 1_555
O22_2 S1_4 1_555 1_555
O13_4 S1_4 1_555 1_555
C6_4 S1_4 1_555 1_555
Nd1_4 O1_4 1_555 1_555
Nd4 O1_4 1_555 1_555
Nd8_2 O1_4 1_555 1_555
O1_4 H1_4 1_555 1_555
O14_2 Nd1_4 1_555 1_555
O4_4 Nd1_4 1_555 1_555
H4_4 O4_4 1_555 1_555
O17_2 Nd1_4 1_555 1_555
O18_2 Nd1_4 1_555 1_555
O21 Nd1_4 1_555 1_555
O9_4 Nd1_4 1_555 1_555
O10_4 Nd8_2 1_555 1_555
C2_4 C1_4 1_555 1_555
C7_4 C2_4 1_555 1_555
H11_4 C7_4 1_555 1_555
Nd4 O14_2 1_555 1_555
Nd4 O4_4 1_555 1_555
Nd8_2 O4_4 1_555 1_555
O9_4 C1_4 1_555 1_555
O10_4 H20_4 1_555 1_555
O10_4 H21_4 1_555 1_555
O2_2 H22_4 1_555 1_555
H8_4 C3_4 1_555 1_555
H9_3 C4_3 1_555 1_555
C5_3 C4_3 1_555 1_555
H10_3 C5_3 1_555 1_555
H9_4 C4_4 1_555 1_555
C5_4 C4_4 1_555 1_555
H10_4 C5_4 1_555 1_555

#END
