
###############################################################################
#
# This file contains modified crystal structure data generated from the
# MOF subset of the Cambridge Structural Database (CSD) v543 
# hosted by the Cambridge Crystallographic Data Centre (CCDC).
#
# This work is licensed under the Creative Commons
# Attribution-NonCommercial-ShareAlike 4.0 International License.
# To view a copy of this license, visit
# http://creativecommons.org/licenses/by-nc-sa/4.0/
# or send a letter to
# Creative Commons, PO Box 1866, Mountain View, CA 94042, USA.
#
# CIF created using the CSD Python API on 29 September 2022
# The structure has been converted into the P1 space group
# The structure has a 3D framework
# The original CSD entry UQOYOP is in the monoclinic crystal system
# The framework has been calculated to contain at least 10.0% void space
# The void calculation uses a probe of radius 1.32A, grid spacing 0.4
# The framework is charged, counterions have been retained in the structure
#
###############################################################################

data_UQOYOP
_chemical_formula_moiety         '(C104 H96 N26 Zn6 6+)n'
_symmetry_cell_setting           triclinic
_symmetry_space_group_name_H-M   'P 1'
_symmetry_Int_Tables_number      1
_space_group_name_Hall           'P 1'
loop_
_symmetry_equiv_pos_site_id
_symmetry_equiv_pos_as_xyz
1 x,y,z
_cell_length_a                   18.587(3)
_cell_length_b                   20.070(3)
_cell_length_c                   8.7957(13)
_cell_angle_alpha                90
_cell_angle_beta                 100.611(2)
_cell_angle_gamma                90
_cell_volume                     3225.05
loop_
_atom_site_label
_atom_site_type_symbol
_atom_site_fract_x
_atom_site_fract_y
_atom_site_fract_z
Zn4 Zn -0.0000 0.32406(3) 0.7500
N4 N 0.08095(17) 0.24550(15) 0.7734(4)
C3 C 0.3655(3) 0.0076(3) 0.6310(7)
H2 H 0.3737 0.0480 0.5850
C7 C 0.2432(4) 0.0510(4) 0.6658(8)
H5 H 0.2504 0.0812 0.5839
H6 H 0.1959 0.0298 0.6341
C8 C 0.2418(4) 0.0891(3) 0.8034(7)
H7 H 0.2895 0.1096 0.8349
H8 H 0.2349 0.0585 0.8848
C9 C 0.0812(3) 0.2039(2) 0.6575(5)
H9 H 0.0461 0.2096 0.5685
C10 C 0.1307(3) 0.1525(3) 0.6610(6)
H10 H 0.1284 0.1242 0.5763
C11 C 0.1842(3) 0.1432(3) 0.7927(6)
C12 C 0.1828(3) 0.1847(2) 0.9141(6)
C13 C 0.1312(2) 0.2351(2) 0.9019(5)
H12 H 0.1313 0.2629 0.9864
Zn4_2 Zn 1.0000 0.32406(3) 0.7500
N8 N 0.91905(17) 0.24550(15) 0.7266(4)
C16 C 0.6345(3) 0.0076(3) 0.8690(7)
H14 H 0.6263 0.0480 0.9150
C20 C 0.7568(4) 0.0510(4) 0.8342(8)
H17 H 0.7496 0.0812 0.9161
H18 H 0.8041 0.0298 0.8659
C21 C 0.7582(4) 0.0891(3) 0.6966(7)
H19 H 0.7105 0.1096 0.6651
H20 H 0.7651 0.0585 0.6152
C22 C 0.9188(3) 0.2039(2) 0.8425(5)
H21 H 0.9539 0.2096 0.9315
C23 C 0.8693(3) 0.1525(3) 0.8390(6)
H22 H 0.8716 0.1242 0.9237
C24 C 0.8158(3) 0.1432(3) 0.7073(6)
C25 C 0.8172(3) 0.1847(2) 0.5859(6)
H23 H 0.7834 0.1792 0.4945
C26 C 0.8688(2) 0.2351(2) 0.5981(5)
H24 H 0.8687 0.2629 0.5136
Zn1 Zn 0.5000 0.82406(3) 0.7500
N1 N 0.4981(2) 0.83187(17) 0.5039(4)
N2 N 0.5000 0.8762(3) 0.2500
N3 N 0.41156(18) 0.89951(16) 0.7156(4)
C1 C 0.4985(3) 0.8473(2) 0.3819(5)
C2 C 0.4175(3) 0.9577(2) 0.6461(6)
H1 H 0.4595 0.9653 0.6051
C4 C 0.3025(3) 0.9973(3) 0.6837(6)
C5 C 0.2944(3) 0.9357(3) 0.7525(6)
H3 H 0.2514 0.9257 0.7875
C6 C 0.3500(2) 0.8903(2) 0.7681(5)
H4 H 0.3442 0.8505 0.8186
N6 N 0.5019(2) 0.83187(17) 0.9961(4)
N7 N 0.58844(18) 0.89951(16) 0.7844(4)
N9 N 0.58095(17) 0.74550(15) 0.7734(4)
N10 N 0.41905(17) 0.74550(15) 0.7266(4)
C14 C 0.5015(3) 0.8473(2) 0.1181(5)
C15 C 0.5825(3) 0.9577(2) 0.8539(6)
H13 H 0.5405 0.9653 0.8949
C17 C 0.6975(3) 0.9973(3) 0.8163(6)
C18 C 0.7056(3) 0.9357(3) 0.7475(6)
H15 H 0.7486 0.9257 0.7125
C19 C 0.6500(2) 0.8903(2) 0.7319(5)
H16 H 0.6558 0.8505 0.6814
N2_2 N -0.0000 0.3762(3) 0.2500
N6_2 N 0.0019(2) 0.33187(17) 0.9961(4)
N7_2 N 0.08844(18) 0.39951(16) 0.7844(4)
C14_2 C 0.0015(3) 0.3473(2) 0.1181(5)
C15_2 C 0.0825(3) 0.4577(2) 0.8539(6)
H13_2 H 0.0405 0.4653 0.8949
C16_2 C 0.1345(3) 0.5076(3) 0.8690(7)
H14_2 H 0.1263 0.5480 0.9150
C17_2 C 0.1975(3) 0.4973(3) 0.8163(6)
C18_2 C 0.2056(3) 0.4357(3) 0.7475(6)
H15_2 H 0.2486 0.4257 0.7125
C19_2 C 0.1500(2) 0.3903(2) 0.7319(5)
H16_2 H 0.1558 0.3505 0.6814
C20_2 C 0.2568(4) 0.5510(4) 0.8342(8)
H17_2 H 0.2496 0.5812 0.9161
H18_2 H 0.3041 0.5298 0.8659
C21_2 C 0.2582(4) 0.5891(3) 0.6966(7)
H19_2 H 0.2105 0.6096 0.6651
H20_2 H 0.2651 0.5585 0.6152
C22_2 C 0.4188(3) 0.7039(2) 0.8425(5)
H21_2 H 0.4539 0.7096 0.9315
C23_2 C 0.3693(3) 0.6525(3) 0.8390(6)
H22_2 H 0.3716 0.6242 0.9237
C24_2 C 0.3158(3) 0.6432(3) 0.7073(6)
C25_2 C 0.3172(3) 0.6847(2) 0.5859(6)
H23_2 H 0.2834 0.6792 0.4945
C26_2 C 0.3688(2) 0.7351(2) 0.5981(5)
H24_2 H 0.3687 0.7629 0.5136
H11 H 0.7166 0.6792 0.0055
N1_2 N 0.9981(2) 0.33187(17) 0.5039(4)
N2_3 N 1.0000 0.3762(3) 0.2500
N3_2 N 0.91156(18) 0.39951(16) 0.7156(4)
C1_2 C 0.9985(3) 0.3473(2) 0.3819(5)
C2_2 C 0.9175(3) 0.4577(2) 0.6461(6)
H1_2 H 0.9595 0.4653 0.6051
C3_2 C 0.8655(3) 0.5076(3) 0.6310(7)
H2_2 H 0.8737 0.5480 0.5850
C4_2 C 0.8025(3) 0.4973(3) 0.6837(6)
C5_2 C 0.7944(3) 0.4357(3) 0.7525(6)
H3_2 H 0.7514 0.4257 0.7875
C6_2 C 0.8500(2) 0.3903(2) 0.7681(5)
H4_2 H 0.8442 0.3505 0.8186
C7_2 C 0.7432(4) 0.5510(4) 0.6658(8)
H5_2 H 0.7504 0.5812 0.5839
H6_2 H 0.6959 0.5298 0.6341
C8_2 C 0.7418(4) 0.5891(3) 0.8034(7)
H7_2 H 0.7895 0.6096 0.8349
H8_2 H 0.7349 0.5585 0.8848
C9_2 C 0.5812(3) 0.7039(2) 0.6575(5)
H9_2 H 0.5461 0.7096 0.5685
C10_2 C 0.6307(3) 0.6525(3) 0.6610(6)
H10_2 H 0.6284 0.6242 0.5763
C11_2 C 0.6842(3) 0.6432(3) 0.7927(6)
C12_2 C 0.6828(3) 0.6847(2) 0.9141(6)
C13_2 C 0.6312(2) 0.7351(2) 0.9019(5)
H12_2 H 0.6313 0.7629 0.9864
H11_2 H 0.2166 0.1792 0.0055
Zn3 Zn 0.0000 0.67594(3) 0.2500
Zn2 Zn 0.5000 0.17594(3) 0.2500
N5 N 0.4981(2) 0.16813(17) 0.0039(4)
N1_3 N 0.5019(2) 0.16813(17) 0.4961(4)
N2_4 N 0.5000 0.1238(3) 0.7500
N3_3 N 0.58844(18) 0.10049(16) 0.2844(4)
C1_3 C 0.5015(3) 0.1527(2) 0.6181(5)
C2_3 C 0.5825(3) 0.0423(2) 0.3539(6)
H1_3 H 0.5405 0.0347 0.3949
C4_3 C 0.6975(3) 0.0027(3) 0.3163(6)
C5_3 C 0.7056(3) 0.0643(3) 0.2475(6)
H3_3 H 0.7486 0.0743 0.2125
C6_3 C 0.6500(2) 0.1097(2) 0.2319(5)
H4_3 H 0.6558 0.1495 0.1814
N7_3 N 0.41156(18) 0.10049(16) 0.2156(4)
N9_2 N 0.41905(17) 0.25450(15) 0.2266(4)
N10_2 N 0.58095(17) 0.25450(15) 0.2734(4)
C14_3 C 0.4985(3) 0.1527(2) 0.8819(5)
C15_3 C 0.4175(3) 0.0423(2) 0.1461(6)
H13_3 H 0.4595 0.0347 0.1051
C17_3 C 0.3025(3) 0.0027(3) 0.1837(6)
C18_3 C 0.2944(3) 0.0643(3) 0.2525(6)
H15_3 H 0.2514 0.0743 0.2875
C19_3 C 0.3500(2) 0.1097(2) 0.2681(5)
H16_3 H 0.3442 0.1495 0.3186
N4_2 N 0.91905(17) 0.75450(15) 0.2266(4)
C3_3 C 0.6345(3) 0.9924(3) 0.3690(7)
H2_3 H 0.6263 0.9520 0.4150
C7_3 C 0.7568(4) 0.9490(4) 0.3342(8)
H5_3 H 0.7496 0.9188 0.4161
H6_3 H 0.8041 0.9702 0.3659
C8_3 C 0.7582(4) 0.9109(3) 0.1966(7)
H7_3 H 0.7105 0.8904 0.1651
H8_3 H 0.7651 0.9415 0.1152
C9_3 C 0.9188(3) 0.7961(2) 0.3425(5)
H9_3 H 0.9539 0.7904 0.4315
C10_3 C 0.8693(3) 0.8475(3) 0.3390(6)
H10_3 H 0.8716 0.8758 0.4237
C11_3 C 0.8158(3) 0.8568(3) 0.2073(6)
C12_3 C 0.8172(3) 0.8153(2) 0.0859(6)
C13_3 C 0.8688(2) 0.7649(2) 0.0981(5)
H12_3 H 0.8687 0.7371 0.0136
Zn3_2 Zn 1.0000 0.67594(3) 0.2500
N8_2 N 0.08095(17) 0.75450(15) 0.2734(4)
C16_3 C 0.3655(3) 0.9924(3) 0.1310(7)
H14_3 H 0.3737 0.9520 0.0850
C20_3 C 0.2432(4) 0.9490(4) 0.1658(8)
H17_3 H 0.2504 0.9188 0.0839
H18_3 H 0.1959 0.9702 0.1341
C21_3 C 0.2418(4) 0.9109(3) 0.3034(7)
H19_3 H 0.2895 0.8904 0.3349
H20_3 H 0.2349 0.9415 0.3848
C22_3 C 0.0812(3) 0.7961(2) 0.1575(5)
H21_3 H 0.0461 0.7904 0.0685
C23_3 C 0.1307(3) 0.8475(3) 0.1610(6)
H22_3 H 0.1284 0.8758 0.0763
C24_3 C 0.1842(3) 0.8568(3) 0.2927(6)
C25_3 C 0.1828(3) 0.8153(2) 0.4141(6)
H23_3 H 0.2166 0.8208 0.5055
C26_3 C 0.1312(2) 0.7649(2) 0.4019(5)
H24_3 H 0.1313 0.7371 0.4864
N1_4 N 0.0019(2) 0.66813(17) 0.4961(4)
N2_5 N 0.0000 0.6238(3) 0.7500
N3_4 N 0.08844(18) 0.60049(16) 0.2844(4)
C1_4 C 0.0015(3) 0.6527(2) 0.6181(5)
C2_4 C 0.0825(3) 0.5423(2) 0.3539(6)
H1_4 H 0.0405 0.5347 0.3949
C3_4 C 0.1345(3) 0.4924(3) 0.3690(7)
H2_4 H 0.1263 0.4520 0.4150
C4_4 C 0.1975(3) 0.5027(3) 0.3163(6)
C5_4 C 0.2056(3) 0.5643(3) 0.2475(6)
H3_4 H 0.2486 0.5743 0.2125
C6_4 C 0.1500(2) 0.6097(2) 0.2319(5)
H4_4 H 0.1558 0.6495 0.1814
C7_4 C 0.2568(4) 0.4490(4) 0.3342(8)
H5_4 H 0.2496 0.4188 0.4161
H6_4 H 0.3041 0.4702 0.3659
C8_4 C 0.2582(4) 0.4109(3) 0.1966(7)
H7_4 H 0.2105 0.3904 0.1651
H8_4 H 0.2651 0.4415 0.1152
C9_4 C 0.4188(3) 0.2961(2) 0.3425(5)
H9_4 H 0.4539 0.2904 0.4315
C10_4 C 0.3693(3) 0.3475(3) 0.3390(6)
H10_4 H 0.3716 0.3758 0.4237
C11_4 C 0.3158(3) 0.3568(3) 0.2073(6)
C12_4 C 0.3172(3) 0.3153(2) 0.0859(6)
C13_4 C 0.3688(2) 0.2649(2) 0.0981(5)
H12_4 H 0.3687 0.2371 0.0136
H11_3 H 0.2834 0.3208 0.9945
N5_2 N 0.9981(2) 0.66813(17) 0.0039(4)
N2_6 N 1.0000 0.6238(3) 0.7500
N7_4 N 0.91156(18) 0.60049(16) 0.2156(4)
C14_4 C 0.9985(3) 0.6527(2) 0.8819(5)
C15_4 C 0.9175(3) 0.5423(2) 0.1461(6)
H13_4 H 0.9595 0.5347 0.1051
C16_4 C 0.8655(3) 0.4924(3) 0.1310(7)
H14_4 H 0.8737 0.4520 0.0850
C17_4 C 0.8025(3) 0.5027(3) 0.1837(6)
C18_4 C 0.7944(3) 0.5643(3) 0.2525(6)
H15_4 H 0.7514 0.5743 0.2875
C19_4 C 0.8500(2) 0.6097(2) 0.2681(5)
H16_4 H 0.8442 0.6495 0.3186
C20_4 C 0.7432(4) 0.4490(4) 0.1658(8)
H17_4 H 0.7504 0.4188 0.0839
H18_4 H 0.6959 0.4702 0.1341
C21_4 C 0.7418(4) 0.4109(3) 0.3034(7)
H19_4 H 0.7895 0.3904 0.3349
H20_4 H 0.7349 0.4415 0.3848
C22_4 C 0.5812(3) 0.2961(2) 0.1575(5)
H21_4 H 0.5461 0.2904 0.0685
C23_4 C 0.6307(3) 0.3475(3) 0.1610(6)
H22_4 H 0.6284 0.3758 0.0763
C24_4 C 0.6842(3) 0.3568(3) 0.2927(6)
C25_4 C 0.6828(3) 0.3153(2) 0.4141(6)
H23_4 H 0.7166 0.3208 0.5055
C26_4 C 0.6312(2) 0.2649(2) 0.4019(5)
H24_4 H 0.6313 0.2371 0.4864
H11_4 H 0.7834 0.8208 0.9945
loop_
_geom_bond_atom_site_label_1
_geom_bond_atom_site_label_2
_geom_bond_site_symmetry_1
_geom_bond_site_symmetry_2
N4 C9 1_555 1_555
H2 C3 1_555 1_555
H5 C7 1_555 1_555
H6 C7 1_555 1_555
C8 C7 1_555 1_555
H7 C8 1_555 1_555
H8 C8 1_555 1_555
C9 H9 1_555 1_555
C10 C9 1_555 1_555
H10 C10 1_555 1_555
C11 C8 1_555 1_555
C12 C11 1_555 1_555
C13 N4 1_555 1_555
H12 C13 1_555 1_555
Zn4 N4 1_555 1_555
Zn4_2 N8 1_555 1_555
N8 C22 1_555 1_555
H14 C16 1_555 1_555
H17 C20 1_555 1_555
H18 C20 1_555 1_555
C21 C20 1_555 1_555
H19 C21 1_555 1_555
H20 C21 1_555 1_555
C22 H21 1_555 1_555
C23 C22 1_555 1_555
H22 C23 1_555 1_555
C24 C21 1_555 1_555
C25 C24 1_555 1_555
H23 C25 1_555 1_555
C26 N8 1_555 1_555
H24 C26 1_555 1_555
C10 C11 1_555 1_555
C12 C13 1_555 1_555
C23 C24 1_555 1_555
C25 C26 1_555 1_555
Zn1 N1 1_555 1_555
N1 C1 1_555 1_555
N2 C1 1_555 1_555
N3 Zn1 1_555 1_555
C2 N3 1_555 1_555
H1 C2 1_555 1_555
C5 C4 1_555 1_555
H3 C5 1_555 1_555
C6 N3 1_555 1_555
H4 C6 1_555 1_555
N6 Zn1 1_555 1_555
N7 Zn1 1_555 1_555
N9 Zn1 1_555 1_555
N10 Zn1 1_555 1_555
C14 N2 1_555 1_555
C15 N7 1_555 1_555
H13 C15 1_555 1_555
C18 C17 1_555 1_555
H15 C18 1_555 1_555
C19 N7 1_555 1_555
H16 C19 1_555 1_555
C5 C6 1_555 1_555
C18 C19 1_555 1_555
N6_2 Zn4 1_555 1_555
N7_2 Zn4 1_555 1_555
N10 C22_2 1_555 1_555
C14_2 N2_2 1_555 1_555
C15_2 N7_2 1_555 1_555
H13_2 C15_2 1_555 1_555
C16_2 C15_2 1_555 1_555
H14_2 C16_2 1_555 1_555
C17_2 C16_2 1_555 1_555
C18_2 C17_2 1_555 1_555
H15_2 C18_2 1_555 1_555
C19_2 N7_2 1_555 1_555
H16_2 C19_2 1_555 1_555
C20_2 C17_2 1_555 1_555
H17_2 C20_2 1_555 1_555
H18_2 C20_2 1_555 1_555
C21_2 C20_2 1_555 1_555
H19_2 C21_2 1_555 1_555
H20_2 C21_2 1_555 1_555
C22_2 H21_2 1_555 1_555
C23_2 C22_2 1_555 1_555
H22_2 C23_2 1_555 1_555
C24_2 C21_2 1_555 1_555
C25_2 C24_2 1_555 1_555
H23_2 C25_2 1_555 1_555
C26_2 N10 1_555 1_555
H24_2 C26_2 1_555 1_555
C18_2 C19_2 1_555 1_555
C23_2 C24_2 1_555 1_555
C25_2 C26_2 1_555 1_555
Zn4_2 N1_2 1_555 1_555
N1_2 C1_2 1_555 1_555
N2_3 C1_2 1_555 1_555
N3_2 Zn4_2 1_555 1_555
N9 C9_2 1_555 1_555
C2_2 N3_2 1_555 1_555
H1_2 C2_2 1_555 1_555
C3_2 C2_2 1_555 1_555
H2_2 C3_2 1_555 1_555
C4_2 C3_2 1_555 1_555
C5_2 C4_2 1_555 1_555
H3_2 C5_2 1_555 1_555
C6_2 N3_2 1_555 1_555
H4_2 C6_2 1_555 1_555
C7_2 C4_2 1_555 1_555
H5_2 C7_2 1_555 1_555
H6_2 C7_2 1_555 1_555
C8_2 C7_2 1_555 1_555
H7_2 C8_2 1_555 1_555
H8_2 C8_2 1_555 1_555
C9_2 H9_2 1_555 1_555
C10_2 C9_2 1_555 1_555
H10_2 C10_2 1_555 1_555
C11_2 C8_2 1_555 1_555
C12_2 C11_2 1_555 1_555
C13_2 N9 1_555 1_555
H12_2 C13_2 1_555 1_555
C5_2 C6_2 1_555 1_555
C10_2 C11_2 1_555 1_555
C12_2 C13_2 1_555 1_555
Zn2 N5 1_555 1_555
Zn2 N1_3 1_555 1_555
N1_3 C1_3 1_555 1_555
N2_4 C1_3 1_555 1_555
N3_3 Zn2 1_555 1_555
C2_3 N3_3 1_555 1_555
H1_3 C2_3 1_555 1_555
C5_3 C4_3 1_555 1_555
H3_3 C5_3 1_555 1_555
C6_3 N3_3 1_555 1_555
H4_3 C6_3 1_555 1_555
N7_3 Zn2 1_555 1_555
N9_2 Zn2 1_555 1_555
N10_2 Zn2 1_555 1_555
C14_3 N2_4 1_555 1_555
C15_3 N7_3 1_555 1_555
H13_3 C15_3 1_555 1_555
C18_3 C17_3 1_555 1_555
H15_3 C18_3 1_555 1_555
C19_3 N7_3 1_555 1_555
H16_3 C19_3 1_555 1_555
C5_3 C6_3 1_555 1_555
C18_3 C19_3 1_555 1_555
N4_2 C9_3 1_555 1_555
H2_3 C3_3 1_555 1_555
H5_3 C7_3 1_555 1_555
H6_3 C7_3 1_555 1_555
C8_3 C7_3 1_555 1_555
H7_3 C8_3 1_555 1_555
H8_3 C8_3 1_555 1_555
C9_3 H9_3 1_555 1_555
C10_3 C9_3 1_555 1_555
H10_3 C10_3 1_555 1_555
C11_3 C8_3 1_555 1_555
C12_3 C11_3 1_555 1_555
C13_3 N4_2 1_555 1_555
H12_3 C13_3 1_555 1_555
Zn3_2 N4_2 1_555 1_555
Zn3 N8_2 1_555 1_555
N8_2 C22_3 1_555 1_555
H14_3 C16_3 1_555 1_555
H17_3 C20_3 1_555 1_555
H18_3 C20_3 1_555 1_555
C21_3 C20_3 1_555 1_555
H19_3 C21_3 1_555 1_555
H20_3 C21_3 1_555 1_555
C22_3 H21_3 1_555 1_555
C23_3 C22_3 1_555 1_555
H22_3 C23_3 1_555 1_555
C24_3 C21_3 1_555 1_555
C25_3 C24_3 1_555 1_555
H23_3 C25_3 1_555 1_555
C26_3 N8_2 1_555 1_555
H24_3 C26_3 1_555 1_555
C10_3 C11_3 1_555 1_555
C12_3 C13_3 1_555 1_555
C23_3 C24_3 1_555 1_555
C25_3 C26_3 1_555 1_555
Zn3 N1_4 1_555 1_555
N1_4 C1_4 1_555 1_555
N2_5 C1_4 1_555 1_555
N3_4 Zn3 1_555 1_555
N9_2 C9_4 1_555 1_555
C2_4 N3_4 1_555 1_555
H1_4 C2_4 1_555 1_555
C3_4 C2_4 1_555 1_555
H2_4 C3_4 1_555 1_555
C4_4 C3_4 1_555 1_555
C5_4 C4_4 1_555 1_555
H3_4 C5_4 1_555 1_555
C6_4 N3_4 1_555 1_555
H4_4 C6_4 1_555 1_555
C7_4 C4_4 1_555 1_555
H5_4 C7_4 1_555 1_555
H6_4 C7_4 1_555 1_555
C8_4 C7_4 1_555 1_555
H7_4 C8_4 1_555 1_555
H8_4 C8_4 1_555 1_555
C9_4 H9_4 1_555 1_555
C10_4 C9_4 1_555 1_555
H10_4 C10_4 1_555 1_555
C11_4 C8_4 1_555 1_555
C12_4 C11_4 1_555 1_555
C13_4 N9_2 1_555 1_555
H12_4 C13_4 1_555 1_555
C5_4 C6_4 1_555 1_555
C10_4 C11_4 1_555 1_555
C12_4 C13_4 1_555 1_555
Zn3_2 N5_2 1_555 1_555
N7_4 Zn3_2 1_555 1_555
N10_2 C22_4 1_555 1_555
C14_4 N2_6 1_555 1_555
C15_4 N7_4 1_555 1_555
H13_4 C15_4 1_555 1_555
C16_4 C15_4 1_555 1_555
H14_4 C16_4 1_555 1_555
C17_4 C16_4 1_555 1_555
C18_4 C17_4 1_555 1_555
H15_4 C18_4 1_555 1_555
C19_4 N7_4 1_555 1_555
H16_4 C19_4 1_555 1_555
C20_4 C17_4 1_555 1_555
H17_4 C20_4 1_555 1_555
H18_4 C20_4 1_555 1_555
C21_4 C20_4 1_555 1_555
H19_4 C21_4 1_555 1_555
H20_4 C21_4 1_555 1_555
C22_4 H21_4 1_555 1_555
C23_4 C22_4 1_555 1_555
H22_4 C23_4 1_555 1_555
C24_4 C21_4 1_555 1_555
C25_4 C24_4 1_555 1_555
H23_4 C25_4 1_555 1_555
C26_4 N10_2 1_555 1_555
H24_4 C26_4 1_555 1_555
C18_4 C19_4 1_555 1_555
C23_4 C24_4 1_555 1_555
C25_4 C26_4 1_555 1_555

#END
