
###############################################################################
#
# This file contains modified crystal structure data generated from the
# MOF subset of the Cambridge Structural Database (CSD) v543 
# hosted by the Cambridge Crystallographic Data Centre (CCDC).
#
# This work is licensed under the Creative Commons
# Attribution-NonCommercial-ShareAlike 4.0 International License.
# To view a copy of this license, visit
# http://creativecommons.org/licenses/by-nc-sa/4.0/
# or send a letter to
# Creative Commons, PO Box 1866, Mountain View, CA 94042, USA.
#
# CIF created using the CSD Python API on 29 September 2022
# The structure has been converted into the P1 space group
# The structure has a 3D framework
# The original CSD entry UQOYEH is in the hexagonal crystal system
# The framework has been calculated to contain at least 10.0% void space
# The void calculation uses a probe of radius 1.32A, grid spacing 0.4
#
###############################################################################

data_UQOYEH
_chemical_formula_moiety         '(C89 H47 N10 Ni5 O18)n'
_symmetry_cell_setting           triclinic
_symmetry_space_group_name_H-M   'P 1'
_symmetry_Int_Tables_number      1
_space_group_name_Hall           'P 1'
loop_
_symmetry_equiv_pos_site_id
_symmetry_equiv_pos_as_xyz
1 x,y,z
_cell_length_a                   16.5914(8)
_cell_length_b                   16.5914(8)
_cell_length_c                   15.5016(10)
_cell_angle_alpha                90
_cell_angle_beta                 90
_cell_angle_gamma                120
_cell_volume                     3695.5
loop_
_atom_site_label
_atom_site_type_symbol
_atom_site_fract_x
_atom_site_fract_y
_atom_site_fract_z
Ni7 Ni -0.000000 0.319680(30) 0.500000
N2 N 0.31941(17) -0.000000 0.36615(18)
C24 C 0.3154(3) -0.000000 0.1859(2)
C25 C 0.3152(3) 0.000000 0.0911(3)
C26 C 0.3550(3) 0.0774(2) 0.3217(3)
H10 H 0.384794 0.134705 0.352278
C27 C 0.3515(4) 0.0802(3) 0.2343(3)
H11 H 0.374386 0.138412 0.206080
C28 C 0.3397(8) 0.0736(5) 0.0433(4)
H12 H 0.379(6) 0.136(7) 0.081(6)
N4 N 0.000000 0.31941(17) 0.36615(18)
C49 C 0.000000 0.31540(30) 0.1859(2)
C50 C -0.000000 0.31520(30) 0.0911(3)
C54 C 0.0774(2) 0.3550(3) 0.3217(3)
H28 H 0.134705 0.384794 0.352278
C55 C 0.0802(3) 0.3515(4) 0.2343(3)
H29 H 0.138412 0.374386 0.206080
C56 C 0.0736(5) 0.3397(8) 0.0433(4)
H30 H 0.136(7) 0.379(6) 0.081(6)
Ni5 Ni 0.31968(3) -0.000000 0.500000
O2 O 0.4498(2) 0.1150(2) 0.500000
O3 O 0.5612(3) 0.0827(3) 0.500000
N1 N 0.31941(17) -0.000000 0.63385(18)
C1 C 0.6014(3) 0.2400(3) 0.500000
C2 C 0.0873(3) -0.000000 0.500000
C3 C 0.3154(3) -0.000000 0.8141(2)
C4 C 0.3152(3) -0.000000 0.9089(3)
C5 C 0.3550(3) 0.0774(2) 0.6783(3)
H1 H 0.384794 0.134705 0.647722
C6 C 0.3515(4) 0.0802(3) 0.7657(3)
H2 H 0.374386 0.138412 0.793920
C7 C 0.3397(8) 0.0736(5) 0.9567(4)
H3 H 0.379(6) 0.136(7) 0.919(6)
C8 C 0.6950(2) 0.2693(3) 0.500000
H4 H 0.714591 0.224444 0.500000
C9 C 0.5297(3) 0.1369(2) 0.500000
C10 C 0.1761(3) -0.000000 0.500000
O4 O 0.07676(17) 0.25010(22) 0.500000
C12 C -0.000000 0.08730(30) 0.500000
C13 C 0.000000 0.17610(30) 0.500000
C14 C 0.0831(3) 0.08310(30) 0.500000
H6 H 0.140346 0.140346 0.500000
O7 O 0.25010(22) 0.07676(17) 0.500000
O9 O 0.8850(2) 0.3348(3) 0.500000
O10 O 0.9173(3) 0.4785(4) 0.500000
C18 C 0.7600(3) 0.3614(4) 0.500000
C19 C 0.7307(3) 0.4257(4) 0.500000
H8 H 0.775556 0.490147 0.500000
C20 C 0.8631(2) 0.3928(4) 0.500000
O11 O 0.6652(3) 0.5502(2) 0.500000
O12 O 0.5215(4) 0.4388(3) 0.500000
C21 C 0.6386(4) 0.3986(3) 0.500000
C22 C 0.5743(4) 0.3050(2) 0.500000
H9 H 0.509853 0.285409 0.500000
C23 C 0.6072(4) 0.4703(3) 0.500000
N3 N 0.000000 0.31941(17) 0.63385(18)
C36 C 0.000000 0.31540(30) 0.8141(2)
C37 C 0.000000 0.31520(30) 0.9089(3)
C57 C 0.0774(2) 0.3550(3) 0.6783(3)
H31 H 0.134705 0.384794 0.647722
C58 C 0.0802(3) 0.3515(4) 0.7657(3)
H32 H 0.138412 0.374386 0.793920
C59 C 0.0736(5) 0.3397(8) 0.9567(4)
H33 H 0.136(7) 0.379(6) 0.919(6)
Ni7_2 Ni 1.000000 0.319680(30) 0.500000
Ni10 Ni 0.680320(30) 0.68032(3) 0.500000
O20 O 0.1150(2) 0.4498(2) 0.500000
N2_2 N 0.31941(17) 1.000000 0.36615(18)
C24_2 C 0.3154(3) 1.000000 0.1859(2)
C25_2 C 0.3152(3) 1.000000 0.0911(3)
C29 C 0.2776(4) 0.9226(2) 0.3217(3)
H13 H 0.250089 0.865295 0.352278
C30 C 0.2713(5) 0.9198(3) 0.2343(3)
H14 H 0.235974 0.861588 0.206080
C31 C 0.2661(9) 0.9264(5) 0.0433(4)
H15 H 0.243(9) 0.864(7) 0.081(6)
Ni5_2 Ni 0.31968(3) 1.000000 0.500000
O1 O 0.17334(14) 0.92324(17) 0.500000
N1_2 N 0.31941(17) 1.000000 0.63385(18)
C2_2 C 0.0873(3) 1.000000 0.500000
C3_2 C 0.3154(3) 1.000000 0.8141(2)
C4_2 C 0.3152(3) 1.000000 0.9089(3)
C10_2 C 0.1761(3) 1.000000 0.500000
C11 C -0.000000 0.9169(3) 0.500000
H5 H -0.000000 0.859654 0.500000
C32 C 0.2776(4) 0.9226(2) 0.6783(3)
H16 H 0.250089 0.865295 0.647722
C33 C 0.2713(5) 0.9198(3) 0.7657(3)
H17 H 0.235974 0.861588 0.793920
C34 C 0.2661(9) 0.9264(5) 0.9567(4)
H18 H 0.243(9) 0.864(7) 0.919(6)
O21 O 0.3348(3) 0.8850(2) 0.500000
N4_2 N 1.000000 0.31941(17) 0.36615(18)
C49_2 C 1.000000 0.31540(30) 0.1859(2)
C50_2 C 1.000000 0.31520(30) 0.0911(3)
C51 C 0.9226(2) 0.2776(4) 0.3217(3)
H25 H 0.865295 0.250089 0.352278
C52 C 0.9198(3) 0.2713(5) 0.2343(3)
H26 H 0.861588 0.235974 0.206080
C53 C 0.9264(5) 0.2661(9) 0.0433(4)
H27 H 0.864(7) 0.243(9) 0.081(6)
C12_2 C 1.000000 0.08730(30) 0.500000
C13_2 C 1.000000 0.17610(30) 0.500000
C17 C 0.91690(30) -0.000000 0.500000
H7 H 0.859654 -0.000000 0.500000
O6 O 0.92324(17) 0.17334(14) 0.500000
N3_2 N 1.000000 0.31941(17) 0.63385(18)
C36_2 C 1.000000 0.31540(30) 0.8141(2)
C37_2 C 1.000000 0.31520(30) 0.9089(3)
C38 C 0.9226(2) 0.2776(4) 0.6783(3)
H19 H 0.865295 0.250089 0.647722
C39 C 0.9198(3) 0.2713(5) 0.7657(3)
H20 H 0.861588 0.235974 0.793920
C40 C 0.9264(5) 0.2661(9) 0.9567(4)
H21 H 0.864(7) 0.243(9) 0.919(6)
N6 N 0.68059(17) 0.68059(17) 0.36615(18)
C65 C 0.68460(30) 0.6846(3) 0.1859(2)
C66 C 0.68480(30) 0.6848(3) 0.0911(3)
C67 C 0.7224(4) 0.6450(3) 0.3217(3)
H37 H 0.749911 0.615206 0.352278
C68 C 0.7287(5) 0.6485(4) 0.2343(3)
H38 H 0.764026 0.625614 0.206080
C69 C 0.7339(9) 0.6603(8) 0.0433(4)
H39 H 0.757(9) 0.621(6) 0.081(6)
C70 C 0.6450(3) 0.7224(4) 0.3217(3)
H40 H 0.615206 0.749911 0.352278
C71 C 0.6485(4) 0.7287(5) 0.2343(3)
H41 H 0.625614 0.764026 0.206080
C72 C 0.6603(8) 0.7339(9) 0.0433(4)
H42 H 0.621(6) 0.757(9) 0.081(6)
C11_2 C 1.000000 0.9169(3) 0.500000
H5_2 H 1.000000 0.859654 0.500000
O5 O 0.74990(22) 0.82666(14) 0.500000
C15 C 0.91270(30) 0.9127(3) 0.500000
C16 C 0.82390(30) 0.8239(3) 0.500000
C17_2 C 0.91690(30) 1.000000 0.500000
H7_2 H 0.859654 1.000000 0.500000
O8 O 0.82666(14) 0.74990(22) 0.500000
N5 N 0.68059(17) 0.68059(17) 0.63385(18)
C60 C 0.68460(30) 0.6846(3) 0.8141(2)
C61 C 0.68480(30) 0.6848(3) 0.9089(3)
C62 C 0.7224(4) 0.6450(3) 0.6783(3)
H34 H 0.749911 0.615206 0.647722
C63 C 0.7287(5) 0.6485(4) 0.7657(3)
H35 H 0.764026 0.625614 0.793920
C64 C 0.7339(9) 0.6603(8) 0.9567(4)
H36 H 0.757(9) 0.621(6) 0.919(6)
C73 C 0.6450(3) 0.7224(4) 0.6783(3)
H43 H 0.615206 0.749911 0.647722
C74 C 0.6485(4) 0.7287(5) 0.7657(3)
H44 H 0.625614 0.764026 0.793920
C75 C 0.6603(8) 0.7339(9) 0.9567(4)
H45 H 0.621(6) 0.757(9) 0.919(6)
O22 O 0.5502(2) 0.6652(3) 0.500000
O3_2 O 0.0827(3) 0.5612(3) 0.500000
C1_2 C 0.2400(3) 0.6014(3) 0.500000
C8_2 C 0.2693(3) 0.6950(2) 0.500000
H4_2 H 0.224444 0.714591 0.500000
C9_2 C 0.1369(2) 0.5297(3) 0.500000
O10_2 O 0.4785(4) 0.9173(3) 0.500000
C18_2 C 0.3614(4) 0.7600(3) 0.500000
C19_2 C 0.4257(4) 0.7307(3) 0.500000
H8_2 H 0.490147 0.775556 0.500000
C20_2 C 0.3928(4) 0.8631(2) 0.500000
O12_2 O 0.4388(3) 0.5215(4) 0.500000
C21_2 C 0.3986(3) 0.6386(4) 0.500000
C22_2 C 0.3050(2) 0.5743(4) 0.500000
H9_2 H 0.285409 0.509853 0.500000
C23_2 C 0.4703(3) 0.6072(4) 0.500000
loop_
_geom_bond_atom_site_label_1
_geom_bond_atom_site_label_2
_geom_bond_site_symmetry_1
_geom_bond_site_symmetry_2
N2 C26 1_555 1_555
C24 C25 1_555 1_555
C25 C28 1_555 1_555
C26 H10 1_555 1_555
C27 C24 1_555 1_555
H11 C27 1_555 1_555
H12 C28 1_555 1_555
C49 C50 1_555 1_555
C54 N4 1_555 1_555
H28 C54 1_555 1_555
C55 C49 1_555 1_555
H29 C55 1_555 1_555
C56 C50 1_555 1_555
H30 C56 1_555 1_555
Ni5 N2 1_555 1_555
Ni7 N4 1_555 1_555
C26 C27 1_555 1_555
C54 C55 1_555 1_555
O2 Ni5 1_555 1_555
O3 C9 1_555 1_555
N1 Ni5 1_555 1_555
C1 C8 1_555 1_555
C2 C10 1_555 1_555
C3 C4 1_555 1_555
C4 C7 1_555 1_555
C5 N1 1_555 1_555
H1 C5 1_555 1_555
C6 C3 1_555 1_555
H2 C6 1_555 1_555
C7 H3 1_555 1_555
C8 H4 1_555 1_555
C9 O2 1_555 1_555
C10 O7 1_555 1_555
O4 C13 1_555 1_555
C12 C13 1_555 1_555
C14 C2 1_555 1_555
H6 C14 1_555 1_555
O7 Ni5 1_555 1_555
O9 C20 1_555 1_555
O10 C20 1_555 1_555
C18 C8 1_555 1_555
C19 C18 1_555 1_555
H8 C19 1_555 1_555
C20 C18 1_555 1_555
O11 C23 1_555 1_555
O12 C23 1_555 1_555
C21 C19 1_555 1_555
C22 C1 1_555 1_555
H9 C22 1_555 1_555
C23 C21 1_555 1_555
Ni7 O4 1_555 1_555
N3 Ni7 1_555 1_555
C36 C37 1_555 1_555
C57 N3 1_555 1_555
H31 C57 1_555 1_555
C58 C36 1_555 1_555
H32 C58 1_555 1_555
C59 C37 1_555 1_555
H33 C59 1_555 1_555
Ni7_2 O9 1_555 1_555
Ni10 O11 1_555 1_555
O20 Ni7 1_555 1_555
C1 C9 1_555 1_555
C5 C6 1_555 1_555
C12 C14 1_555 1_555
C21 C22 1_555 1_555
C57 C58 1_555 1_555
C24_2 C25_2 1_555 1_555
C29 N2_2 1_555 1_555
H13 C29 1_555 1_555
C30 C24_2 1_555 1_555
H14 C30 1_555 1_555
C31 C25_2 1_555 1_555
H15 C31 1_555 1_555
Ni5_2 N2_2 1_555 1_555
C29 C30 1_555 1_555
Ni5_2 O1 1_555 1_555
O1 C10_2 1_555 1_555
N1_2 Ni5_2 1_555 1_555
C2_2 C10_2 1_555 1_555
C3_2 C4_2 1_555 1_555
C11 C2_2 1_555 1_555
H5 C11 1_555 1_555
C32 N1_2 1_555 1_555
H16 C32 1_555 1_555
C33 C3_2 1_555 1_555
H17 C33 1_555 1_555
C34 C4_2 1_555 1_555
H18 C34 1_555 1_555
O21 Ni5_2 1_555 1_555
C32 C33 1_555 1_555
N4_2 C51 1_555 1_555
C49_2 C50_2 1_555 1_555
C50_2 C53 1_555 1_555
C51 H25 1_555 1_555
C52 C49_2 1_555 1_555
H26 C52 1_555 1_555
H27 C53 1_555 1_555
Ni7_2 N4_2 1_555 1_555
C51 C52 1_555 1_555
C12_2 C13_2 1_555 1_555
C13_2 O6 1_555 1_555
C17 C12_2 1_555 1_555
H7 C17 1_555 1_555
O6 Ni7_2 1_555 1_555
N3_2 Ni7_2 1_555 1_555
C36_2 C37_2 1_555 1_555
C37_2 C40 1_555 1_555
C38 N3_2 1_555 1_555
H19 C38 1_555 1_555
C39 C36_2 1_555 1_555
H20 C39 1_555 1_555
C40 H21 1_555 1_555
C38 C39 1_555 1_555
N6 C67 1_555 1_555
C65 C66 1_555 1_555
C66 C69 1_555 1_555
C67 H37 1_555 1_555
C68 C65 1_555 1_555
H38 C68 1_555 1_555
H39 C69 1_555 1_555
C70 N6 1_555 1_555
H40 C70 1_555 1_555
C71 C65 1_555 1_555
H41 C71 1_555 1_555
C72 C66 1_555 1_555
H42 C72 1_555 1_555
Ni10 N6 1_555 1_555
C67 C68 1_555 1_555
C70 C71 1_555 1_555
H5_2 C11_2 1_555 1_555
O5 C16 1_555 1_555
C15 C11_2 1_555 1_555
C16 C15 1_555 1_555
H7_2 C17_2 1_555 1_555
O8 C16 1_555 1_555
Ni10 O5 1_555 1_555
N5 Ni10 1_555 1_555
C60 C61 1_555 1_555
C61 C64 1_555 1_555
C62 N5 1_555 1_555
H34 C62 1_555 1_555
C63 C60 1_555 1_555
H35 C63 1_555 1_555
C64 H36 1_555 1_555
C73 N5 1_555 1_555
H43 C73 1_555 1_555
C74 C60 1_555 1_555
H44 C74 1_555 1_555
C75 C61 1_555 1_555
H45 C75 1_555 1_555
O22 Ni10 1_555 1_555
C15 C17_2 1_555 1_555
O8 Ni10 1_555 1_555
C62 C63 1_555 1_555
C73 C74 1_555 1_555
O3_2 C9_2 1_555 1_555
C1_2 C8_2 1_555 1_555
C8_2 H4_2 1_555 1_555
C9_2 O20 1_555 1_555
O21 C20_2 1_555 1_555
O10_2 C20_2 1_555 1_555
C18_2 C8_2 1_555 1_555
C19_2 C18_2 1_555 1_555
H8_2 C19_2 1_555 1_555
C20_2 C18_2 1_555 1_555
O22 C23_2 1_555 1_555
O12_2 C23_2 1_555 1_555
C21_2 C19_2 1_555 1_555
C22_2 C1_2 1_555 1_555
H9_2 C22_2 1_555 1_555
C23_2 C21_2 1_555 1_555
C1_2 C9_2 1_555 1_555
C21_2 C22_2 1_555 1_555

#END
