
###############################################################################
#
# This file contains modified crystal structure data generated from the
# MOF subset of the Cambridge Structural Database (CSD) v543 
# hosted by the Cambridge Crystallographic Data Centre (CCDC).
#
# This work is licensed under the Creative Commons
# Attribution-NonCommercial-ShareAlike 4.0 International License.
# To view a copy of this license, visit
# http://creativecommons.org/licenses/by-nc-sa/4.0/
# or send a letter to
# Creative Commons, PO Box 1866, Mountain View, CA 94042, USA.
#
# CIF created using the CSD Python API on 29 September 2022
# The structure has been converted into the P1 space group
# The structure has a 3D framework
# The original CSD entry UQOYAC is in the monoclinic crystal system
# The framework has been calculated to contain at least 10.0% void space
# The void calculation uses a probe of radius 1.32A, grid spacing 0.4
#
###############################################################################

data_UQOYAC
_chemical_formula_moiety         '(C44 H28 N12 O24 Sm4)n'
_symmetry_cell_setting           triclinic
_symmetry_space_group_name_H-M   'P 1'
_symmetry_Int_Tables_number      1
_space_group_name_Hall           'P 1'
loop_
_symmetry_equiv_pos_site_id
_symmetry_equiv_pos_as_xyz
1 x,y,z
_cell_length_a                   8.3121(17)
_cell_length_b                   14.831(3)
_cell_length_c                   11.582(2)
_cell_angle_alpha                90
_cell_angle_beta                 90.89(3)
_cell_angle_gamma                90
_cell_volume                     1427.62
loop_
_atom_site_label
_atom_site_type_symbol
_atom_site_fract_x
_atom_site_fract_y
_atom_site_fract_z
N4 N 0.3281(7) 0.7050(4) 0.2351(4)
C18 C 0.1482(7) 0.6888(4) 0.0309(4)
C19 C 0.1438(8) 0.6221(4) 0.1148(5)
H11 H 0.0808 0.5708 0.1039
C20 C 0.2346(9) 0.6331(5) 0.2147(5)
H12 H 0.2305 0.5883 0.2708
C21 C 0.3315(9) 0.7677(5) 0.1534(5)
H13 H 0.3976 0.8177 0.1649
C22 C 0.2415(8) 0.7625(5) 0.0518(5)
N6 N 0.0870(6) 0.6090(3) 0.8486(4)
H8 H 0.1438 0.5620 0.8645
O13 O 0.1091(6) 0.4922(3) 0.6702(3)
C14 C 0.0347(8) 0.5643(4) 0.6474(5)
C15 C 0.0056(7) 0.6256(4) 0.7471(4)
C17 C 0.0620(7) 0.6794(4) 0.9190(4)
H14 H 0.2450 0.8092 0.9983
Sm6 Sm 0.22126(4) 0.368778(19) 0.56705(2)
Sm1 Sm 0.22126(4) 0.131222(19) 0.06705(2)
N2 N 0.0362(6) 0.2602(3) 0.1298(3)
O1 O 0.2278(5) 0.1666(3) 0.2693(3)
O2 O 0.2172(5) 0.2641(3) 0.4135(3)
O3 O 0.0068(6) 0.4106(3) 0.4520(3)
O7 O 0.4411(5) 0.2341(3) 0.0980(3)
H2 H 0.4679 0.2880 0.0822
H3 H 0.4972 0.2237 0.1585
C1 C 0.1796(7) 0.2388(4) 0.3141(4)
C4 C 0.0716(7) 0.2940(4) 0.2394(4)
O9 O 0.4477(7) 0.0418(4) 0.1353(4)
O19 O 0.1091(6) 0.0078(3) 0.1702(3)
O5 O 0.3544(7) 0.0517(4) 0.9108(4)
C11 C 0.4753(9) 0.0026(5) 0.9389(6)
O16 O 0.2172(5) 0.2359(3) 0.9135(3)
O18 O 0.0068(6) 0.0894(3) 0.9520(3)
O8 O 0.6456(7) 0.9483(4) 0.0892(4)
C12 C 0.5247(9) 0.9974(5) 0.0611(6)
O15 O 0.7828(5) 0.7641(3) 0.0865(3)
O17 O 0.9932(6) 0.9106(3) 0.0480(3)
O6 O 0.5523(7) 0.9582(4) 0.8647(4)
Sm2 Sm 0.77874(4) 0.868778(19) 0.93295(2)
N5 N 0.9638(6) 0.7398(3) 0.8702(3)
O10 O 0.7722(5) 0.8334(3) 0.7307(3)
O11 O 0.7828(5) 0.7359(3) 0.5865(3)
O12 O 0.9932(6) 0.5894(3) 0.5480(3)
O14 O 0.5589(5) 0.7659(3) 0.9020(3)
H9 H 0.5321 0.7120 0.9178
H10 H 0.5028 0.7763 0.8415
C13 C 0.8204(7) 0.7612(4) 0.6859(4)
C16 C 0.9284(7) 0.7060(4) 0.7606(4)
Sm4 Sm 0.77874(4) 0.631222(19) 0.43295(2)
O20 O 0.8909(6) 0.9922(3) 0.8298(3)
N3 N 0.9130(6) 0.3910(3) 0.1514(4)
H1 H 0.8562 0.4380 0.1355
O4 O 0.8909(6) 0.5078(3) 0.3298(3)
C2 C 0.9653(8) 0.4357(4) 0.3526(5)
C3 C 0.9944(7) 0.3744(4) 0.2529(4)
C5 C 0.9380(7) 0.3206(4) 0.0810(4)
H7 H 0.7550 0.1908 0.0017
N2_2 N 0.9638(6) 0.7602(3) 0.3702(3)
O1_2 O 0.7722(5) 0.6666(3) 0.2307(3)
O5_2 O 0.6456(7) 0.5517(4) 0.5892(4)
O6_2 O 0.4477(7) 0.4582(4) 0.6353(4)
O7_2 O 0.5589(5) 0.7341(3) 0.4020(3)
H2_2 H 0.5321 0.7880 0.4178
H3_2 H 0.5028 0.7237 0.3415
C1_2 C 0.8204(7) 0.7388(4) 0.1859(4)
C4_2 C 0.9284(7) 0.7940(4) 0.2606(4)
C11_2 C 0.5247(9) 0.5026(5) 0.5611(6)
O8_2 O 0.3544(7) 0.4483(4) 0.4108(4)
O9_2 O 0.5523(7) 0.5418(4) 0.3647(4)
C12_2 C 0.4753(9) 0.4974(5) 0.4389(6)
N5_2 N 0.0362(6) 0.2398(3) 0.6298(3)
O10_2 O 0.2278(5) 0.3334(3) 0.7693(3)
O14_2 O 0.4411(5) 0.2659(3) 0.5980(3)
H9_2 H 0.4679 0.2120 0.5822
H10_2 H 0.4972 0.2763 0.6585
C13_2 C 0.1796(7) 0.2612(4) 0.8141(4)
C16_2 C 0.0716(7) 0.2060(4) 0.7394(4)
N1 N 0.6719(7) 0.2950(4) 0.7649(4)
C6 C 0.8518(7) 0.3112(4) 0.9691(4)
C7 C 0.8562(8) 0.3779(4) 0.8852(5)
H4 H 0.9192 0.4292 0.8961
C8 C 0.7654(9) 0.3669(5) 0.7853(5)
H5 H 0.7695 0.4117 0.7292
C9 C 0.6685(9) 0.2323(5) 0.8466(5)
H6 H 0.6024 0.1823 0.8351
C10 C 0.7585(8) 0.2375(5) 0.9482(5)
N1_2 N 0.3281(7) 0.7950(4) 0.7351(4)
N3_2 N 0.0870(6) 0.8910(3) 0.3486(4)
H1_2 H 0.1438 0.9380 0.3645
C2_2 C 0.0347(8) 0.9357(4) 0.1474(5)
C3_2 C 0.0056(7) 0.8744(4) 0.2471(4)
C5_2 C 0.0620(7) 0.8206(4) 0.4190(4)
C6_2 C 0.1482(7) 0.8112(4) 0.5309(4)
C7_2 C 0.1438(8) 0.8779(4) 0.6148(5)
H4_2 H 0.0808 0.9292 0.6039
C8_2 C 0.2346(9) 0.8669(5) 0.7147(5)
H5_2 H 0.2305 0.9117 0.7708
C9_2 C 0.3315(9) 0.7323(5) 0.6534(5)
H6_2 H 0.3976 0.6823 0.6649
C10_2 C 0.2415(8) 0.7375(5) 0.5518(5)
H7_2 H 0.2450 0.6908 0.4983
N4_2 N 0.6719(7) 0.2050(4) 0.2649(4)
N6_2 N 0.9130(6) 0.1090(3) 0.6514(4)
H8_2 H 0.8562 0.0620 0.6355
C14_2 C 0.9653(8) 0.0643(4) 0.8526(5)
C15_2 C 0.9944(7) 0.1256(4) 0.7529(4)
C17_2 C 0.9380(7) 0.1794(4) 0.5810(4)
C18_2 C 0.8518(7) 0.1888(4) 0.4691(4)
C19_2 C 0.8562(8) 0.1221(4) 0.3852(5)
H11_2 H 0.9192 0.0708 0.3961
C20_2 C 0.7654(9) 0.1331(5) 0.2853(5)
H12_2 H 0.7695 0.0883 0.2292
C21_2 C 0.6685(9) 0.2677(5) 0.3466(5)
H13_2 H 0.6024 0.3177 0.3351
C22_2 C 0.7585(8) 0.2625(5) 0.4482(5)
H14_2 H 0.7550 0.3092 0.5017
loop_
_geom_bond_atom_site_label_1
_geom_bond_atom_site_label_2
_geom_bond_site_symmetry_1
_geom_bond_site_symmetry_2
N4 C20 1_555 1_555
C19 C18 1_555 1_555
H11 C19 1_555 1_555
C20 C19 1_555 1_555
H12 C20 1_555 1_555
C21 N4 1_555 1_555
H13 C21 1_555 1_555
C22 C18 1_555 1_555
C21 C22 1_555 1_555
N6 H8 1_555 1_555
O13 C14 1_555 1_555
C14 C15 1_555 1_555
C15 N6 1_555 1_555
Sm6 O13 1_555 1_555
N6 C17 1_555 1_555
Sm1 N2 1_555 1_555
N2 C4 1_555 1_555
O1 Sm1 1_555 1_555
O2 C1 1_555 1_555
O7 Sm1 1_555 1_555
H2 O7 1_555 1_555
H3 O7 1_555 1_555
C1 O1 1_555 1_555
C4 C1 1_555 1_555
O9 Sm1 1_555 1_555
Sm6 O2 1_555 1_555
O19 Sm1 1_555 1_555
O3 Sm6 1_555 1_555
C11 O5 1_555 1_555
O8 C12 1_555 1_555
Sm2 O6 1_555 1_555
N5 Sm2 1_555 1_555
O10 Sm2 1_555 1_555
O11 C13 1_555 1_555
O14 Sm2 1_555 1_555
H9 O14 1_555 1_555
H10 O14 1_555 1_555
C13 O10 1_555 1_555
C16 N5 1_555 1_555
Sm4 O11 1_555 1_555
O20 Sm2 1_555 1_555
O12 Sm4 1_555 1_555
C13 C16 1_555 1_555
N3 H1 1_555 1_555
O4 C2 1_555 1_555
C2 C3 1_555 1_555
C3 N3 1_555 1_555
Sm4 O4 1_555 1_555
N3 C5 1_555 1_555
Sm4 N2_2 1_555 1_555
N2_2 C4_2 1_555 1_555
O1_2 Sm4 1_555 1_555
O15 C1_2 1_555 1_555
O5_2 Sm4 1_555 1_555
O6_2 C11_2 1_555 1_555
O7_2 Sm4 1_555 1_555
H2_2 O7_2 1_555 1_555
H3_2 O7_2 1_555 1_555
C1_2 O1_2 1_555 1_555
C4_2 C1_2 1_555 1_555
C11_2 O5_2 1_555 1_555
O8_2 C12_2 1_555 1_555
O9_2 Sm4 1_555 1_555
C12_2 C11_2 1_555 1_555
Sm6 O6_2 1_555 1_555
N5_2 Sm6 1_555 1_555
O10_2 Sm6 1_555 1_555
O16 C13_2 1_555 1_555
O14_2 Sm6 1_555 1_555
H9_2 O14_2 1_555 1_555
H10_2 O14_2 1_555 1_555
C13_2 O10_2 1_555 1_555
C16_2 N5_2 1_555 1_555
O8_2 Sm6 1_555 1_555
O9_2 C12_2 1_555 1_555
C13_2 C16_2 1_555 1_555
N1 C8 1_555 1_555
C7 C6 1_555 1_555
H4 C7 1_555 1_555
C8 C7 1_555 1_555
H5 C8 1_555 1_555
C9 N1 1_555 1_555
H6 C9 1_555 1_555
C10 C6 1_555 1_555
C9 C10 1_555 1_555
N1_2 C8_2 1_555 1_555
N3_2 H1_2 1_555 1_555
C2_2 C3_2 1_555 1_555
C3_2 N3_2 1_555 1_555
C6_2 C5_2 1_555 1_555
C7_2 C6_2 1_555 1_555
H4_2 C7_2 1_555 1_555
C8_2 C7_2 1_555 1_555
H5_2 C8_2 1_555 1_555
C9_2 N1_2 1_555 1_555
H6_2 C9_2 1_555 1_555
C10_2 C6_2 1_555 1_555
H7_2 C10_2 1_555 1_555
N3_2 C5_2 1_555 1_555
C9_2 C10_2 1_555 1_555
N4_2 C20_2 1_555 1_555
N6_2 H8_2 1_555 1_555
C14_2 C15_2 1_555 1_555
C15_2 N6_2 1_555 1_555
C18_2 C17_2 1_555 1_555
C19_2 C18_2 1_555 1_555
H11_2 C19_2 1_555 1_555
C20_2 C19_2 1_555 1_555
H12_2 C20_2 1_555 1_555
C21_2 N4_2 1_555 1_555
H13_2 C21_2 1_555 1_555
C22_2 C18_2 1_555 1_555
H14_2 C22_2 1_555 1_555
N6_2 C17_2 1_555 1_555
C21_2 C22_2 1_555 1_555

#END
