
###############################################################################
#
# This file contains modified crystal structure data generated from the
# MOF subset of the Cambridge Structural Database (CSD) v543 
# hosted by the Cambridge Crystallographic Data Centre (CCDC).
#
# This work is licensed under the Creative Commons
# Attribution-NonCommercial-ShareAlike 4.0 International License.
# To view a copy of this license, visit
# http://creativecommons.org/licenses/by-nc-sa/4.0/
# or send a letter to
# Creative Commons, PO Box 1866, Mountain View, CA 94042, USA.
#
# CIF created using the CSD Python API on 29 September 2022
# The structure has been converted into the P1 space group
# The structure has a 3D framework
# The original CSD entry UQOZEI is in the triclinic crystal system
# The framework has been calculated to contain at least 10.0% void space
# The void calculation uses a probe of radius 1.32A, grid spacing 0.4
#
###############################################################################

data_UQOZEI
_chemical_formula_moiety         '(C72 H40 N6 O8 Pd1 Zn1)n'
_symmetry_cell_setting           triclinic
_symmetry_space_group_name_H-M   'P 1'
_symmetry_Int_Tables_number      1
_space_group_name_Hall           'P 1'
loop_
_symmetry_equiv_pos_site_id
_symmetry_equiv_pos_as_xyz
1 x,y,z
_cell_length_a                   8.8096(2)
_cell_length_b                   14.7434(3)
_cell_length_c                   16.4547(3)
_cell_angle_alpha                96.513(2)
_cell_angle_beta                 104.655(2)
_cell_angle_gamma                95.259(2)
_cell_volume                     2038.15
loop_
_atom_site_label
_atom_site_type_symbol
_atom_site_fract_x
_atom_site_fract_y
_atom_site_fract_z
_atom_site_U_iso_or_equiv
_atom_site_thermal_displace_type
Zn1 Zn 0.37767(3) 0.05062(2) 0.02774(2) 0.0244 Uani
N1 N 0.2503(2) 0.15915(13) 0.03328(13) 0.0315 Uani
C3 C 0.1212(3) 0.32420(16) 0.01686(16) 0.0326 Uani
C4 C 0.2583(3) 0.31929(15) 0.07919(15) 0.0311 Uani
H3 H 0.310314 0.372518 0.117766 0.0370 Uiso
C5 C 0.3187(3) 0.23624(15) 0.08466(15) 0.0294 Uani
H4 H 0.413581 0.234126 0.127147 0.0350 Uiso
C6 C 0.0571(3) 0.41426(15) 0.00692(15) 0.0331 Uani
H22 H 0.049855 0.757390 0.076050 0.0590 Uiso
O10 O 0.57804(19) 0.10147(11) 0.12016(10) 0.0319 Uani
O1 O 0.23694(19) 0.96941(11) 0.92470(10) 0.0324 Uani
O2 O 0.42196(19) 0.89853(11) 0.87984(10) 0.0319 Uani
C13 C 0.2807(3) 0.91032(15) 0.87704(14) 0.0288 Uani
C14 C 0.1544(3) 0.84768(15) 0.81115(14) 0.0281 Uani
C15 C 0.1940(3) 0.7895(2) 0.75015(18) 0.0438 Uani
H9 H 0.301401 0.790458 0.749078 0.0530 Uiso
C16 C 0.0783(3) 0.7297(2) 0.69059(19) 0.0486 Uani
H10 H 0.106886 0.691022 0.648104 0.0580 Uiso
Zn9 Zn 0.62233(3) 0.94938(2) 0.97226(2) 0.0244 Uani
H2 H 0.950145 0.242610 0.923950 0.0590 Uiso
N4 N 0.7497(2) 0.84085(13) 0.96672(13) 0.0315 Uani
C39 C 0.8788(3) 0.67580(16) 0.98314(16) 0.0326 Uani
C40 C 0.7417(3) 0.68071(15) 0.92081(15) 0.0311 Uani
H23 H 0.689686 0.627482 0.882234 0.0370 Uiso
C41 C 0.6813(3) 0.76376(15) 0.91534(15) 0.0294 Uani
H24 H 0.586419 0.765874 0.872853 0.0350 Uiso
C42 C 0.9429(3) 0.58574(15) 0.99308(15) 0.0331 Uani
O5 O 0.76306(19) 0.03059(11) 0.07530(10) 0.0324 Uani
C49 C 0.7193(3) 0.08968(15) 0.12296(14) 0.0288 Uani
C50 C 0.8456(3) 0.15232(15) 0.18885(14) 0.0281 Uani
C51 C 0.8060(3) 0.2105(2) 0.24985(18) 0.0438 Uani
H29 H 0.698599 0.209542 0.250922 0.0530 Uiso
C52 C 0.9217(3) 0.2703(2) 0.30941(19) 0.0486 Uani
H30 H 0.893114 0.308978 0.351896 0.0580 Uiso
C1 C 0.1128(3) 0.16270(18) 0.97550(19) 0.0459 Uani
H1 H 0.059427 0.107637 0.940173 0.0550 Uiso
C2 C 0.0469(3) 0.24283(17) 0.96578(19) 0.0488 Uani
C10 C 0.1366(3) 0.48186(16) 0.97374(16) 0.0339 Uani
C11 C 0.2737(3) 0.46680(19) 0.94476(18) 0.0432 Uani
H7 H 0.314465 0.409561 0.949170 0.0520 Uiso
C12 C 0.3466(4) 0.5322(2) 0.9112(2) 0.0479 Uani
H8 H 0.436862 0.520204 0.892151 0.0580 Uiso
C43 C 0.0789(3) 0.56992(16) 0.96698(16) 0.0329 Uani
C44 C 0.1608(3) 0.63682(17) 0.93137(17) 0.0400 Uani
H25 H 0.124314 0.695160 0.926651 0.0480 Uiso
C45 C 0.2889(3) 0.6187(2) 0.90439(19) 0.0457 Uani
H26 H 0.340754 0.664067 0.880665 0.0550 Uiso
O11 O 0.4956(2) 0.11202(11) 0.94601(11) 0.0380 Uani
O14 O 0.3260(2) 0.95965(11) 0.10356(11) 0.0382 Uani
C7 C 0.9211(3) 0.43008(16) 0.03302(16) 0.0329 Uani
C8 C 0.8392(3) 0.36318(17) 0.06863(17) 0.0400 Uani
H5 H 0.875686 0.304840 0.073349 0.0480 Uiso
C9 C 0.7111(3) 0.3813(2) 0.09561(19) 0.0457 Uani
H6 H 0.659246 0.335933 0.119335 0.0550 Uiso
C37 C 0.8872(3) 0.83730(18) 0.02450(19) 0.0459 Uani
H21 H 0.940573 0.892363 0.059827 0.0550 Uiso
C38 C 0.9531(3) 0.75717(17) 0.03422(19) 0.0488 Uani
C46 C 0.8634(3) 0.51814(16) 0.02626(16) 0.0339 Uani
C47 C 0.7263(3) 0.53320(19) 0.05524(18) 0.0432 Uani
H27 H 0.685535 0.590439 0.050830 0.0520 Uiso
C48 C 0.6534(4) 0.4678(2) 0.0888(2) 0.0479 Uani
H28 H 0.563138 0.479796 0.107849 0.0580 Uiso
Pd1 Pd 0.500000 0.500000 0.500000 0.0258 Uani
N2 N 0.6429(2) 0.50479(12) 0.61776(12) 0.0285 Uani
N3 N 0.6061(2) 0.62473(13) 0.49124(12) 0.0323 Uani
O4 O 0.6740(2) 0.04035(11) 0.89644(11) 0.0382 Uani
C17 C 0.9227(3) 0.72548(16) 0.69195(15) 0.0317 Uani
C18 C 0.8826(3) 0.78346(19) 0.75399(17) 0.0411 Uani
H11 H 0.775564 0.780860 0.756063 0.0490 Uiso
C19 C 0.9974(3) 0.84482(18) 0.81264(16) 0.0381 Uani
H12 H 0.968563 0.885048 0.853988 0.0460 Uiso
C20 C 0.7979(3) 0.65625(16) 0.63145(15) 0.0321 Uani
C21 C 0.7269(3) 0.67806(16) 0.55229(15) 0.0338 Uani
C22 C 0.7686(3) 0.76166(18) 0.52163(17) 0.0445 Uani
H13 H 0.847647 0.810624 0.551566 0.0530 Uiso
C23 C 0.6746(3) 0.75772(18) 0.44250(18) 0.0465 Uani
H14 H 0.676265 0.803227 0.406123 0.0560 Uiso
C24 C 0.5716(3) 0.67245(16) 0.42295(15) 0.0343 Uani
C25 C 0.7597(3) 0.57452(15) 0.66062(14) 0.0305 Uani
C26 C 0.8362(3) 0.55104(17) 0.74223(15) 0.0362 Uani
H15 H 0.920865 0.587447 0.784152 0.0430 Uiso
C27 C 0.7663(3) 0.46842(17) 0.74831(15) 0.0352 Uani
H16 H 0.792411 0.435323 0.795201 0.0420 Uiso
C28 C 0.6444(3) 0.43916(15) 0.67077(14) 0.0299 Uani
C29 C 0.5443(3) 0.35611(16) 0.65260(15) 0.0331 Uani
C30 C 0.5646(3) 0.29407(16) 0.71935(15) 0.0329 Uani
C31 C 0.6371(4) 0.2153(2) 0.71036(18) 0.0442 Uani
H17 H 0.677087 0.201634 0.662495 0.0530 Uiso
C32 C 0.6513(4) 0.15611(19) 0.77138(18) 0.0444 Uani
H18 H 0.704491 0.103451 0.765869 0.0530 Uiso
C33 C 0.5894(3) 0.17311(16) 0.83938(15) 0.0324 Uani
C34 C 0.5188(4) 0.25276(17) 0.84916(17) 0.0423 Uani
H19 H 0.477749 0.266094 0.896703 0.0510 Uiso
C35 C 0.5083(4) 0.31256(17) 0.78949(17) 0.0434 Uani
H20 H 0.461484 0.367350 0.797074 0.0520 Uiso
C36 C 0.5864(3) 0.10369(16) 0.89922(15) 0.0329 Uani
N5 N 0.3571(2) 0.49521(12) 0.38224(12) 0.0285 Uani
N6 N 0.3939(2) 0.37527(13) 0.50876(12) 0.0323 Uani
O7 O 0.5044(2) 0.88798(11) 0.05399(11) 0.0380 Uani
C53 C 0.0773(3) 0.27452(16) 0.30805(15) 0.0317 Uani
C54 C 0.1174(3) 0.21654(19) 0.24601(17) 0.0411 Uani
H31 H 0.224436 0.219140 0.243937 0.0490 Uiso
C55 C 0.0026(3) 0.15518(18) 0.18736(16) 0.0381 Uani
H32 H 0.031437 0.114952 0.146012 0.0460 Uiso
C56 C 0.2021(3) 0.34375(16) 0.36855(15) 0.0321 Uani
C57 C 0.2731(3) 0.32194(16) 0.44771(15) 0.0338 Uani
C58 C 0.2314(3) 0.23834(18) 0.47837(17) 0.0445 Uani
H33 H 0.152353 0.189376 0.448434 0.0530 Uiso
C59 C 0.3254(3) 0.24228(18) 0.55750(18) 0.0465 Uani
H34 H 0.323735 0.196773 0.593877 0.0560 Uiso
C60 C 0.4284(3) 0.32755(16) 0.57705(15) 0.0343 Uani
C61 C 0.2403(3) 0.42548(15) 0.33938(14) 0.0305 Uani
C62 C 0.1638(3) 0.44896(17) 0.25777(15) 0.0362 Uani
H35 H 0.079135 0.412553 0.215848 0.0430 Uiso
C63 C 0.2337(3) 0.53158(17) 0.25169(15) 0.0352 Uani
H36 H 0.207589 0.564677 0.204799 0.0420 Uiso
C64 C 0.3556(3) 0.56084(15) 0.32923(14) 0.0299 Uani
C65 C 0.4557(3) 0.64389(16) 0.34740(15) 0.0331 Uani
C66 C 0.4354(3) 0.70593(16) 0.28065(15) 0.0329 Uani
C67 C 0.3629(4) 0.7847(2) 0.28964(18) 0.0442 Uani
H37 H 0.322913 0.798366 0.337505 0.0530 Uiso
C68 C 0.3487(4) 0.84389(19) 0.22862(18) 0.0444 Uani
H38 H 0.295509 0.896549 0.234131 0.0530 Uiso
C69 C 0.4106(3) 0.82689(16) 0.16062(15) 0.0324 Uani
C70 C 0.4812(4) 0.74724(17) 0.15084(17) 0.0423 Uani
H39 H 0.522251 0.733906 0.103297 0.0510 Uiso
C71 C 0.4917(4) 0.68744(17) 0.21051(17) 0.0434 Uani
H40 H 0.538516 0.632650 0.202926 0.0520 Uiso
C72 C 0.4136(3) 0.89631(16) 0.10078(15) 0.0329 Uani
loop_
_atom_site_aniso_label
_atom_site_aniso_U_11
_atom_site_aniso_U_22
_atom_site_aniso_U_33
_atom_site_aniso_U_23
_atom_site_aniso_U_13
_atom_site_aniso_U_12
Zn1 0.0298 0.01508 0.02338 0.00277 -0.00172 0.00233
N1 0.0347 0.0204 0.0351 0.0048 0.0011 0.0041
C3 0.0333 0.0225 0.0392 0.0056 0.0028 0.0073
C4 0.0338 0.0208 0.0334 -0.001 0.002 0.0023
C5 0.0303 0.0223 0.0317 0.0022 0.0012 0.0048
C6 0.0384 0.0196 0.0344 0.0026 -0.0036 0.0074
O10 0.0324 0.0257 0.0284 -0.0013 -0.0056 0.0009
O1 0.0354 0.0237 0.0296 -0.0019 -0.0036 0.0017
O2 0.0324 0.0257 0.0284 -0.0013 -0.0056 0.0009
C13 0.0355 0.0199 0.0251 0.0059 -0.0026 -0.0003
C14 0.0331 0.0219 0.0247 0.0054 0.0002 -0.0009
C15 0.0316 0.0458 0.0435 -0.0137 0.0019 -0.0015
C16 0.0441 0.0473 0.0435 -0.0211 0.0064 -0.002
Zn9 0.0298 0.01508 0.02338 0.00277 -0.00172 0.00233
N4 0.0347 0.0204 0.0351 0.0048 0.0011 0.0041
C39 0.0333 0.0225 0.0392 0.0056 0.0028 0.0073
C40 0.0338 0.0208 0.0334 -0.001 0.002 0.0023
C41 0.0303 0.0223 0.0317 0.0022 0.0012 0.0048
C42 0.0384 0.0196 0.0344 0.0026 -0.0036 0.0074
O5 0.0354 0.0237 0.0296 -0.0019 -0.0036 0.0017
C49 0.0355 0.0199 0.0251 0.0059 -0.0026 -0.0003
C50 0.0331 0.0219 0.0247 0.0054 0.0002 -0.0009
C51 0.0316 0.0458 0.0435 -0.0137 0.0019 -0.0015
C52 0.0441 0.0473 0.0435 -0.0211 0.0064 -0.002
C1 0.0422 0.0247 0.0539 -0.0034 -0.0153 0.0079
C2 0.0448 0.0272 0.0555 0.0002 -0.0193 0.007
C10 0.0356 0.0255 0.0368 0.0046 0.0009 0.0089
C11 0.0452 0.0349 0.0508 0.0089 0.0105 0.0143
C12 0.0433 0.049 0.0549 0.0142 0.0143 0.0115
C43 0.0349 0.024 0.0344 0.0053 -0.0022 0.0074
C44 0.0397 0.0281 0.045 0.011 -0.0038 0.0029
C45 0.0416 0.0408 0.0536 0.0182 0.0062 0.0042
O11 0.0504 0.0305 0.0321 0.0134 0.0083 -0.0032
O14 0.0451 0.0278 0.0386 0.0142 0.0019 0.0026
C7 0.0349 0.024 0.0344 0.0053 -0.0022 0.0074
C8 0.0397 0.0281 0.045 0.011 -0.0038 0.0029
C9 0.0416 0.0408 0.0536 0.0182 0.0062 0.0042
C37 0.0422 0.0247 0.0539 -0.0034 -0.0153 0.0079
C38 0.0448 0.0272 0.0555 0.0002 -0.0193 0.007
C46 0.0356 0.0255 0.0368 0.0046 0.0009 0.0089
C47 0.0452 0.0349 0.0508 0.0089 0.0105 0.0143
C48 0.0433 0.049 0.0549 0.0142 0.0143 0.0115
Pd1 0.03308 0.01797 0.01989 0.0041 -0.00235 -0.00465
N2 0.0381 0.0187 0.0233 0.0026 0.0016 -0.0052
N3 0.0391 0.0241 0.0265 0.0056 -0.0016 -0.0059
O4 0.0451 0.0278 0.0386 0.0142 0.0019 0.0026
C17 0.0389 0.0225 0.0258 0.0022 -0.0009 -0.0077
C18 0.0329 0.0454 0.0375 -0.0036 0.0039 -0.0062
C19 0.04 0.0351 0.0332 -0.0066 0.0065 -0.0027
C20 0.0363 0.0246 0.0285 0.0024 -0.0007 -0.0038
C21 0.0362 0.0245 0.031 0.0052 -0.0047 -0.0094
C22 0.0531 0.0296 0.0389 0.0117 -0.005 -0.0151
C23 0.0553 0.0326 0.0397 0.0145 -0.0057 -0.0154
C24 0.0442 0.027 0.027 0.0118 0.0008 -0.005
C25 0.0359 0.0246 0.0242 0.0046 -0.002 -0.0036
C26 0.0417 0.0319 0.026 0.0043 -0.0048 -0.0031
C27 0.0448 0.0307 0.0226 0.0059 -0.0036 -0.0016
C28 0.039 0.0259 0.0199 0.0071 -0.0014 0.0004
C29 0.0411 0.0252 0.0287 0.0084 0.0014 -0.0016
C30 0.04 0.0278 0.0262 0.0105 0.0002 -0.0037
C31 0.0581 0.0455 0.0381 0.0189 0.0201 0.017
C32 0.0579 0.0397 0.0426 0.0191 0.0159 0.0192
C33 0.038 0.0277 0.0273 0.01 0 -0.0006
C34 0.0684 0.0314 0.0323 0.0109 0.0181 0.0114
C35 0.073 0.0252 0.0356 0.0095 0.0156 0.0148
C36 0.0409 0.0254 0.0246 0.0062 -0.0029 -0.0066
N5 0.0381 0.0187 0.0233 0.0026 0.0016 -0.0052
N6 0.0391 0.0241 0.0265 0.0056 -0.0016 -0.0059
O7 0.0504 0.0305 0.0321 0.0134 0.0083 -0.0032
C53 0.0389 0.0225 0.0258 0.0022 -0.0009 -0.0077
C54 0.0329 0.0454 0.0375 -0.0036 0.0039 -0.0062
C55 0.04 0.0351 0.0332 -0.0066 0.0065 -0.0027
C56 0.0363 0.0246 0.0285 0.0024 -0.0007 -0.0038
C57 0.0362 0.0245 0.031 0.0052 -0.0047 -0.0094
C58 0.0531 0.0296 0.0389 0.0117 -0.005 -0.0151
C59 0.0553 0.0326 0.0397 0.0145 -0.0057 -0.0154
C60 0.0442 0.027 0.027 0.0118 0.0008 -0.005
C61 0.0359 0.0246 0.0242 0.0046 -0.002 -0.0036
C62 0.0417 0.0319 0.026 0.0043 -0.0048 -0.0031
C63 0.0448 0.0307 0.0226 0.0059 -0.0036 -0.0016
C64 0.039 0.0259 0.0199 0.0071 -0.0014 0.0004
C65 0.0411 0.0252 0.0287 0.0084 0.0014 -0.0016
C66 0.04 0.0278 0.0262 0.0105 0.0002 -0.0037
C67 0.0581 0.0455 0.0381 0.0189 0.0201 0.017
C68 0.0579 0.0397 0.0426 0.0191 0.0159 0.0192
C69 0.038 0.0277 0.0273 0.01 0 -0.0006
C70 0.0684 0.0314 0.0323 0.0109 0.0181 0.0114
C71 0.073 0.0252 0.0356 0.0095 0.0156 0.0148
C72 0.0409 0.0254 0.0246 0.0062 -0.0029 -0.0066
loop_
_geom_bond_atom_site_label_1
_geom_bond_atom_site_label_2
_geom_bond_site_symmetry_1
_geom_bond_site_symmetry_2
Zn1 N1 1_555 1_555
C4 C3 1_555 1_555
H3 C4 1_555 1_555
C5 N1 1_555 1_555
H4 C5 1_555 1_555
C6 C3 1_555 1_555
O10 Zn1 1_555 1_555
C4 C5 1_555 1_555
O2 C13 1_555 1_555
C13 O1 1_555 1_555
C14 C13 1_555 1_555
C15 C14 1_555 1_555
H9 C15 1_555 1_555
C16 C15 1_555 1_555
H10 C16 1_555 1_555
Zn9 O2 1_555 1_555
C40 C39 1_555 1_555
H23 C40 1_555 1_555
C41 N4 1_555 1_555
H24 C41 1_555 1_555
C42 C39 1_555 1_555
Zn9 N4 1_555 1_555
C40 C41 1_555 1_555
O5 C49 1_555 1_555
O10 C49 1_555 1_555
C49 C50 1_555 1_555
C50 C51 1_555 1_555
C51 H29 1_555 1_555
C52 C51 1_555 1_555
H30 C52 1_555 1_555
C1 H1 1_555 1_555
C2 C1 1_555 1_555
C11 C10 1_555 1_555
H7 C11 1_555 1_555
C12 C11 1_555 1_555
H8 C12 1_555 1_555
C43 C10 1_555 1_555
C44 C43 1_555 1_555
H25 C44 1_555 1_555
C45 C12 1_555 1_555
H26 C45 1_555 1_555
C44 C45 1_555 1_555
C8 C7 1_555 1_555
H5 C8 1_555 1_555
C9 C8 1_555 1_555
H6 C9 1_555 1_555
C37 H21 1_555 1_555
C38 C37 1_555 1_555
C46 C7 1_555 1_555
C47 C46 1_555 1_555
H27 C47 1_555 1_555
C48 C9 1_555 1_555
H28 C48 1_555 1_555
C47 C48 1_555 1_555
Pd1 N2 1_555 1_555
N2 C25 1_555 1_555
N3 Pd1 1_555 1_555
O11 C36 1_555 1_555
O4 C36 1_555 1_555
C18 C17 1_555 1_555
H11 C18 1_555 1_555
H12 C19 1_555 1_555
C20 C17 1_555 1_555
C21 N3 1_555 1_555
C22 C21 1_555 1_555
H13 C22 1_555 1_555
C23 C22 1_555 1_555
H14 C23 1_555 1_555
C24 N3 1_555 1_555
C25 C20 1_555 1_555
C26 C25 1_555 1_555
H15 C26 1_555 1_555
C27 C26 1_555 1_555
H16 C27 1_555 1_555
C28 N2 1_555 1_555
C29 C28 1_555 1_555
C30 C29 1_555 1_555
C31 C30 1_555 1_555
H17 C31 1_555 1_555
C32 C31 1_555 1_555
H18 C32 1_555 1_555
C33 C32 1_555 1_555
C34 C33 1_555 1_555
H19 C34 1_555 1_555
C35 C30 1_555 1_555
H20 C35 1_555 1_555
C36 C33 1_555 1_555
N5 Pd1 1_555 1_555
N6 Pd1 1_555 1_555
O7 C72 1_555 1_555
O14 C72 1_555 1_555
C54 C53 1_555 1_555
H31 C54 1_555 1_555
H32 C55 1_555 1_555
C56 C53 1_555 1_555
C57 N6 1_555 1_555
C58 C57 1_555 1_555
H33 C58 1_555 1_555
C59 C58 1_555 1_555
H34 C59 1_555 1_555
C60 C29 1_555 1_555
C61 N5 1_555 1_555
C62 C61 1_555 1_555
H35 C62 1_555 1_555
C63 C62 1_555 1_555
H36 C63 1_555 1_555
C64 N5 1_555 1_555
C65 C24 1_555 1_555
C66 C65 1_555 1_555
C67 C66 1_555 1_555
H37 C67 1_555 1_555
C68 C67 1_555 1_555
H38 C68 1_555 1_555
C69 C68 1_555 1_555
C70 C69 1_555 1_555
H39 C70 1_555 1_555
C71 C66 1_555 1_555
H40 C71 1_555 1_555
C72 C69 1_555 1_555
C18 C19 1_555 1_555
C20 C21 1_555 1_555
C23 C24 1_555 1_555
C27 C28 1_555 1_555
C34 C35 1_555 1_555
N6 C60 1_555 1_555
C54 C55 1_555 1_555
C56 C57 1_555 1_555
C56 C61 1_555 1_555
C59 C60 1_555 1_555
C63 C64 1_555 1_555
C64 C65 1_555 1_555
C70 C71 1_555 1_555

#END
