
###############################################################################
#
# This file contains modified crystal structure data generated from the
# MOF subset of the Cambridge Structural Database (CSD) v543 
# hosted by the Cambridge Crystallographic Data Centre (CCDC).
#
# This work is licensed under the Creative Commons
# Attribution-NonCommercial-ShareAlike 4.0 International License.
# To view a copy of this license, visit
# http://creativecommons.org/licenses/by-nc-sa/4.0/
# or send a letter to
# Creative Commons, PO Box 1866, Mountain View, CA 94042, USA.
#
# CIF created using the CSD Python API on 29 September 2022
# The structure has been converted into the P1 space group
# The structure has a 3D framework
# The original CSD entry UQOZAE is in the orthorhombic crystal system
# The framework has been calculated to contain at least 10.0% void space
# The void calculation uses a probe of radius 1.32A, grid spacing 0.4
# H atom positions have been added when not included in the experimental data
#
###############################################################################

data_UQOZAE
_chemical_formula_moiety         '(C144 H80 N16 O16 Pd4 Zn4)n'
_symmetry_cell_setting           triclinic
_symmetry_space_group_name_H-M   'P 1'
_symmetry_Int_Tables_number      1
_space_group_name_Hall           'P 1'
loop_
_symmetry_equiv_pos_site_id
_symmetry_equiv_pos_as_xyz
1 x,y,z
_cell_length_a                   17.1282(2)
_cell_length_b                   16.0595(2)
_cell_length_c                   18.3158(3)
_cell_angle_alpha                90
_cell_angle_beta                 90
_cell_angle_gamma                90
_cell_volume                     5038.13
loop_
_atom_site_label
_atom_site_type_symbol
_atom_site_fract_x
_atom_site_fract_y
_atom_site_fract_z
H37 H 0.0169009 0.5 0.175299
H40 H 0.0159408 0.5 0.314662
Pd1 Pd 0.250000 -0.000000 0.74885(3)
N4 N 0.3682(3) -0.000000 0.7490(2)
N5 N 0.1318(3) -0.000000 0.7490(2)
C49 C 0.6440(4) 0.3889(4) 0.7452(2)
C50 C 0.5784(5) 0.3266(5) 0.7457(2)
C51 C 0.5493(5) 0.2951(6) 0.6818(3)
H21 H 0.571689 0.311293 0.636569
C52 C 0.4878(4) 0.2399(5) 0.6829(3)
H22 H 0.466926 0.219944 0.638113
C53 C 0.4565(6) 0.2138(6) 0.7471(3)
C54 C 0.4881(6) 0.2414(6) 0.8114(4)
H23 H 0.466846 0.222911 0.856449
C55 C 0.5509(6) 0.2961(7) 0.8112(4)
H24 H 0.574742 0.312297 0.855858
C56 C 0.3923(4) 0.1520(4) 0.7483(2)
C57 C 0.3153(4) 0.1770(3) 0.7475(2)
C58 C 0.2903(6) 0.2626(4) 0.7470(3)
H25 H 0.323135 0.310289 0.746762
C59 C 0.4159(3) 0.0675(4) 0.7492(2)
C60 C 0.4950(4) 0.0417(6) 0.7497(3)
H26 H 0.539528 0.076947 0.749929
N6 N 0.250000 0.1268(3) 0.7482(3)
O5 O 0.6684(2) 0.4123(2) 0.68474(17)
O6 O 0.6697(3) 0.4125(3) 0.80512(19)
C64 C 0.0122(4) 0.2399(5) 0.6829(3)
H28 H 0.033074 0.219944 0.638113
C65 C 0.0435(6) 0.2138(6) 0.7471(3)
C66 C 0.0119(6) 0.2414(6) 0.8114(4)
H29 H 0.033154 0.222911 0.856449
C68 C 0.1077(4) 0.1520(4) 0.7483(2)
C69 C 0.1847(4) 0.1770(3) 0.7475(2)
C70 C 0.2097(6) 0.2626(4) 0.7470(3)
H31 H 0.176865 0.310289 0.746762
C71 C 0.0841(3) 0.0675(4) 0.7492(2)
C72 C 0.0050(4) 0.0417(6) 0.7497(3)
Zn5 Zn 0.750000 0.500000 0.66566(5)
Zn9 Zn 0.750000 0.500000 0.82435(5)
Pd1_2 Pd 0.250000 1.000000 0.74885(3)
C1 C 0.750000 0.5700(4) 0.5170(4)
H1 H 0.750000 0.621373 0.542745
C2 C 0.750000 0.5715(4) 0.4433(4)
H2 H 0.750000 0.623543 0.418684
C3 C 0.750000 0.500000 0.4036(4)
C4 C 0.750000 0.500000 0.3219(4)
C5 C 0.6791(3) 0.500000 0.2847(3)
C6 C 0.6051(4) 0.500000 0.3212(4)
C7 C 0.5391(5) 0.500000 0.2849(5)
C8 C 0.5383(5) 0.500000 0.2048(5)
C9 C 0.6058(4) 0.500000 0.1684(4)
C10 C 0.6785(3) 0.500000 0.2055(3)
C11 C 0.750000 0.500000 0.1687(4)
C12 C 0.750000 0.500000 0.0859(4)
C13 C 0.750000 0.4288(4) 0.0470(4)
H3 H 0.750000 0.376805 0.071776
C15 C 0.6440(4) 0.6111(4) 0.7452(2)
C16 C 0.5784(5) 0.6734(5) 0.7457(2)
C17 C 0.5493(5) 0.7049(6) 0.6818(3)
H5 H 0.571689 0.688707 0.636569
C18 C 0.4878(4) 0.7601(5) 0.6829(3)
H6 H 0.466926 0.780056 0.638113
C19 C 0.4565(6) 0.7862(6) 0.7471(3)
C20 C 0.4881(6) 0.7586(6) 0.8114(4)
H7 H 0.466846 0.777089 0.856449
C21 C 0.5509(6) 0.7039(7) 0.8112(4)
H8 H 0.574742 0.687703 0.855858
C22 C 0.3923(4) 0.8480(4) 0.7483(2)
C23 C 0.3153(4) 0.8230(3) 0.7475(2)
C24 C 0.2903(6) 0.7374(4) 0.7470(3)
H9 H 0.323135 0.689711 0.746762
C25 C 0.4159(3) 0.9325(4) 0.7492(2)
C26 C 0.4950(4) 0.9583(6) 0.7497(3)
H10 H 0.539528 0.923053 0.749929
N1 N 0.750000 0.500000 0.5548(3)
N3 N 0.250000 0.8732(3) 0.7482(3)
N4_2 N 0.3682(3) 1.000000 0.7490(2)
O1 O 0.6684(2) 0.5877(2) 0.68474(17)
O2 O 0.6697(3) 0.5875(3) 0.80512(19)
C27 C 0.750000 0.4300(4) 0.5170(4)
H11 H 0.750000 0.378627 0.542745
C28 C 0.750000 0.4285(4) 0.4433(4)
H12 H 0.750000 0.376457 0.418684
C29 C 0.8209(3) 0.500000 0.2847(3)
C30 C 0.8949(4) 0.500000 0.3212(4)
C31 C 0.9609(5) 0.500000 0.2849(5)
C32 C 0.9617(5) 0.500000 0.2048(5)
C33 C 0.8942(4) 0.500000 0.1684(4)
C34 C 0.8215(3) 0.500000 0.2055(3)
C35 C 0.750000 0.5712(4) 0.0470(4)
H13 H 0.750000 0.623195 0.071776
C40 C 0.0122(4) 0.7601(5) 0.6829(3)
H16 H 0.033074 0.780056 0.638113
C41 C 0.0435(6) 0.7862(6) 0.7471(3)
C42 C 0.0119(6) 0.7586(6) 0.8114(4)
H17 H 0.033154 0.777089 0.856449
C44 C 0.1077(4) 0.8480(4) 0.7483(2)
C45 C 0.1847(4) 0.8230(3) 0.7475(2)
C46 C 0.2097(6) 0.7374(4) 0.7470(3)
H19 H 0.176865 0.689711 0.746762
C47 C 0.0841(3) 0.9325(4) 0.7492(2)
C48 C 0.0050(4) 0.9583(6) 0.7497(3)
N5_2 N 0.1318(3) 1.000000 0.7490(2)
N7 N 0.750000 0.500000 0.9357(3)
O9 O 0.8316(2) 0.4123(2) 0.68474(17)
O10 O 0.8316(2) 0.5877(2) 0.68474(17)
O12 O 0.8303(3) 0.4125(3) 0.80512(19)
O13 O 0.8303(3) 0.5875(3) 0.80512(19)
H33 H 0.483099 0.5 0.175299
H34 H 0.605052 0.5 0.108947
H35 H 0.603629 0.5 0.380641
H36 H 0.484059 0.5 0.314662
H38 H 0.896371 0.5 0.380641
H39 H 0.894948 0.5 0.108947
C14 C 0.750000 0.4303(4) 0.9728(4)
H4 H 0.750000 0.379038 0.947012
C36 C 0.750000 0.5697(4) 0.9728(4)
H14 H 0.750000 0.620962 0.947012
C61 C 0.8560(4) 0.3889(4) 0.7452(2)
C62 C 0.9216(5) 0.3266(5) 0.7457(2)
C63 C 0.9507(5) 0.2951(6) 0.6818(3)
H27 H 0.928311 0.311293 0.636569
C67 C 0.9491(6) 0.2961(7) 0.8112(4)
H30 H 0.925258 0.312297 0.855858
H32 H 0.960472 0.076947 0.749929
C37 C 0.8560(4) 0.6111(4) 0.7452(2)
C38 C 0.9216(5) 0.6734(5) 0.7457(2)
C39 C 0.9507(5) 0.7049(6) 0.6818(3)
H15 H 0.928311 0.688707 0.636569
C43 C 0.9491(6) 0.7039(7) 0.8112(4)
H18 H 0.925258 0.687703 0.855858
H20 H 0.960472 0.923053 0.749929
C14_2 C 0.250000 0.5697(4) 0.0272(4)
H4_2 H 0.250000 0.620962 0.052988
N2 N 0.250000 0.500000 0.0643(3)
C36_2 C 0.250000 0.4303(4) 0.0272(4)
H14_2 H 0.250000 0.379038 0.052988
Zn8 Zn 0.250000 0.500000 0.17565(5)
Zn1 Zn 0.250000 0.500000 0.33434(5)
C1_2 C 0.250000 0.4300(4) 0.4830(4)
H1_2 H 0.250000 0.378627 0.457255
C2_2 C 0.250000 0.4285(4) 0.5567(4)
H2_2 H 0.250000 0.376457 0.581316
C3_2 C 0.250000 0.500000 0.5964(4)
C4_2 C 0.250000 0.500000 0.6781(4)
C5_2 C 0.1791(3) 0.500000 0.7153(3)
C6_2 C 0.1051(4) 0.500000 0.6788(4)
C7_2 C 0.0391(5) 0.500000 0.7151(5)
C8_2 C 0.0383(5) 0.500000 0.7952(5)
C9_2 C 0.1058(4) 0.500000 0.8316(4)
C10_2 C 0.1785(3) 0.500000 0.7945(3)
C11_2 C 0.250000 0.500000 0.8313(4)
C12_2 C 0.250000 0.500000 0.9141(4)
C13_2 C 0.250000 0.5712(4) 0.9530(4)
H3_2 H 0.250000 0.623195 0.928224
C15_2 C 0.1440(4) 0.3889(4) 0.2548(2)
C16_2 C 0.0784(5) 0.3266(5) 0.2543(2)
C17_2 C 0.0493(5) 0.2951(6) 0.3182(3)
H5_2 H 0.071689 0.311293 0.363431
C21_2 C 0.0509(6) 0.2961(7) 0.1888(4)
H8_2 H 0.074742 0.312297 0.144142
H10_2 H 0.039528 0.076947 0.250071
N1_2 N 0.250000 0.500000 0.4452(3)
O1_2 O 0.1684(2) 0.4123(2) 0.31526(17)
O2_2 O 0.1697(3) 0.4125(3) 0.19488(19)
C27_2 C 0.250000 0.5700(4) 0.4830(4)
H11_2 H 0.250000 0.621373 0.457255
C28_2 C 0.250000 0.5715(4) 0.5567(4)
H12_2 H 0.250000 0.623543 0.581316
C29_2 C 0.3209(3) 0.500000 0.7153(3)
C30_2 C 0.3949(4) 0.500000 0.6788(4)
C31_2 C 0.4609(5) 0.500000 0.7151(5)
C32_2 C 0.4617(5) 0.500000 0.7952(5)
C33_2 C 0.3942(4) 0.500000 0.8316(4)
C34_2 C 0.3215(3) 0.500000 0.7945(3)
C35_2 C 0.250000 0.4288(4) 0.9530(4)
H13_2 H 0.250000 0.376805 0.928224
O9_2 O 0.3316(2) 0.5877(2) 0.31526(17)
O10_2 O 0.3316(2) 0.4123(2) 0.31526(17)
O11 O 0.1684(2) 0.5877(2) 0.31526(17)
O12_2 O 0.3303(3) 0.5875(3) 0.19488(19)
O13_2 O 0.3303(3) 0.4125(3) 0.19488(19)
O14 O 0.1697(3) 0.5875(3) 0.19488(19)
H34_2 H 0.105052 0.5 0.891053
H35_2 H 0.103629 0.5 0.619359
H37_2 H 0.516901 0.5 0.824701
H38_2 H 0.396371 0.5 0.619359
H39_2 H 0.394948 0.5 0.891053
H40_2 H 0.515941 0.5 0.685338
C49_2 C 0.1440(4) 0.6111(4) 0.2548(2)
C50_2 C 0.0784(5) 0.6734(5) 0.2543(2)
C51_2 C 0.0493(5) 0.7049(6) 0.3182(3)
H21_2 H 0.071689 0.688707 0.363431
C55_2 C 0.0509(6) 0.7039(7) 0.1888(4)
H24_2 H 0.074742 0.687703 0.144142
H26_2 H 0.039528 0.923053 0.250071
Pd1_3 Pd 0.750000 0.000000 0.25115(3)
C18_2 C 0.9878(4) 0.2399(5) 0.3171(3)
H6_2 H 0.966926 0.219944 0.361887
C19_2 C 0.9565(6) 0.2138(6) 0.2529(3)
C20_2 C 0.9881(6) 0.2414(6) 0.1886(4)
H7_2 H 0.966846 0.222911 0.143551
C22_2 C 0.8923(4) 0.1520(4) 0.2517(2)
C23_2 C 0.8153(4) 0.1770(3) 0.2525(2)
C24_2 C 0.7903(6) 0.2626(4) 0.2530(3)
H9_2 H 0.823135 0.310289 0.253238
C25_2 C 0.9159(3) 0.0675(4) 0.2508(2)
C26_2 C 0.9950(4) 0.0417(6) 0.2503(3)
N3_2 N 0.750000 0.1268(3) 0.2518(3)
N4_3 N 0.8682(3) 0.000000 0.2510(2)
C37_2 C 0.3560(4) 0.3889(4) 0.2548(2)
C38_2 C 0.4216(5) 0.3266(5) 0.2543(2)
C39_2 C 0.4507(5) 0.2951(6) 0.3182(3)
H15_2 H 0.428311 0.311293 0.363431
C40_2 C 0.5122(4) 0.2399(5) 0.3171(3)
H16_2 H 0.533074 0.219944 0.361887
C41_2 C 0.5435(6) 0.2138(6) 0.2529(3)
C42_2 C 0.5119(6) 0.2414(6) 0.1886(4)
H17_2 H 0.533154 0.222911 0.143551
C43_2 C 0.4491(6) 0.2961(7) 0.1888(4)
H18_2 H 0.425258 0.312297 0.144142
C44_2 C 0.6077(4) 0.1520(4) 0.2517(2)
C45_2 C 0.6847(4) 0.1770(3) 0.2525(2)
C46_2 C 0.7097(6) 0.2626(4) 0.2530(3)
H19_2 H 0.676865 0.310289 0.253238
C47_2 C 0.5841(3) 0.0675(4) 0.2508(2)
C48_2 C 0.5050(4) 0.0417(6) 0.2503(3)
H20_2 H 0.460472 0.076947 0.250071
N5_3 N 0.6318(3) 0.000000 0.2510(2)
H33_2 H 0.983099 0.5 0.824701
H36_2 H 0.984059 0.5 0.685338
Pd1_4 Pd 0.750000 1.000000 0.25115(3)
N4_4 N 0.8682(3) 1.000000 0.2510(2)
N5_4 N 0.6318(3) 1.000000 0.2510(2)
C52_2 C 0.9878(4) 0.7601(5) 0.3171(3)
H22_2 H 0.966926 0.780056 0.361887
C53_2 C 0.9565(6) 0.7862(6) 0.2529(3)
C54_2 C 0.9881(6) 0.7586(6) 0.1886(4)
H23_2 H 0.966846 0.777089 0.143551
C56_2 C 0.8923(4) 0.8480(4) 0.2517(2)
C57_2 C 0.8153(4) 0.8230(3) 0.2525(2)
C58_2 C 0.7903(6) 0.7374(4) 0.2530(3)
H25_2 H 0.823135 0.689711 0.253238
C59_2 C 0.9159(3) 0.9325(4) 0.2508(2)
C60_2 C 0.9950(4) 0.9583(6) 0.2503(3)
N6_2 N 0.750000 0.8732(3) 0.2518(3)
C61_2 C 0.3560(4) 0.6111(4) 0.2548(2)
C62_2 C 0.4216(5) 0.6734(5) 0.2543(2)
C63_2 C 0.4507(5) 0.7049(6) 0.3182(3)
H27_2 H 0.428311 0.688707 0.363431
C64_2 C 0.5122(4) 0.7601(5) 0.3171(3)
H28_2 H 0.533074 0.780056 0.361887
C65_2 C 0.5435(6) 0.7862(6) 0.2529(3)
C66_2 C 0.5119(6) 0.7586(6) 0.1886(4)
H29_2 H 0.533154 0.777089 0.143551
C67_2 C 0.4491(6) 0.7039(7) 0.1888(4)
H30_2 H 0.425258 0.687703 0.144142
C68_2 C 0.6077(4) 0.8480(4) 0.2517(2)
C69_2 C 0.6847(4) 0.8230(3) 0.2525(2)
C70_2 C 0.7097(6) 0.7374(4) 0.2530(3)
H31_2 H 0.676865 0.689711 0.253238
C71_2 C 0.5841(3) 0.9325(4) 0.2508(2)
C72_2 C 0.5050(4) 0.9583(6) 0.2503(3)
H32_2 H 0.460472 0.923053 0.250071
loop_
_geom_bond_atom_site_label_1
_geom_bond_atom_site_label_2
_geom_bond_site_symmetry_1
_geom_bond_site_symmetry_2
N4 Pd1 1_555 1_555
N5 Pd1 1_555 1_555
C49 C50 1_555 1_555
C50 C51 1_555 1_555
C51 H21 1_555 1_555
C52 C51 1_555 1_555
H22 C52 1_555 1_555
C53 C52 1_555 1_555
C54 C53 1_555 1_555
H23 C54 1_555 1_555
C55 C50 1_555 1_555
H24 C55 1_555 1_555
C56 C53 1_555 1_555
C57 C56 1_555 1_555
C58 C57 1_555 1_555
H25 C58 1_555 1_555
C59 N4 1_555 1_555
H26 C60 1_555 1_555
N6 Pd1 1_555 1_555
O5 C49 1_555 1_555
O6 C49 1_555 1_555
H28 C64 1_555 1_555
C65 C64 1_555 1_555
C66 C65 1_555 1_555
H29 C66 1_555 1_555
C68 C65 1_555 1_555
C69 N6 1_555 1_555
C70 C58 1_555 1_555
H31 C70 1_555 1_555
C71 N5 1_555 1_555
Zn5 O5 1_555 1_555
Zn9 O6 1_555 1_555
C54 C55 1_555 1_555
C56 C59 1_555 1_555
C57 N6 1_555 1_555
C59 C60 1_555 1_555
C68 C69 1_555 1_555
C68 C71 1_555 1_555
C69 C70 1_555 1_555
C71 C72 1_555 1_555
Pd1_2 N3 1_555 1_555
Zn5 N1 1_555 1_555
Zn9 O2 1_555 1_555
C1 H1 1_555 1_555
C2 C1 1_555 1_555
H2 C2 1_555 1_555
C3 C2 1_555 1_555
C4 C3 1_555 1_555
C5 C4 1_555 1_555
C6 C5 1_555 1_555
C7 C6 1_555 1_555
C8 C7 1_555 1_555
C9 C8 1_555 1_555
C10 C5 1_555 1_555
C11 C10 1_555 1_555
C12 C11 1_555 1_555
C13 C12 1_555 1_555
H3 C13 1_555 1_555
C15 C16 1_555 1_555
C16 C17 1_555 1_555
C17 H5 1_555 1_555
C18 C17 1_555 1_555
H6 C18 1_555 1_555
C19 C18 1_555 1_555
C20 C19 1_555 1_555
H7 C20 1_555 1_555
C21 C16 1_555 1_555
H8 C21 1_555 1_555
C22 C19 1_555 1_555
C23 C22 1_555 1_555
C24 C23 1_555 1_555
H9 C24 1_555 1_555
C25 C22 1_555 1_555
C26 C25 1_555 1_555
H10 C26 1_555 1_555
N1 C1 1_555 1_555
N3 C23 1_555 1_555
N4_2 Pd1_2 1_555 1_555
O1 Zn5 1_555 1_555
O2 C15 1_555 1_555
C27 N1 1_555 1_555
H11 C27 1_555 1_555
C28 C3 1_555 1_555
H12 C28 1_555 1_555
C29 C4 1_555 1_555
C30 C29 1_555 1_555
C31 C30 1_555 1_555
C32 C31 1_555 1_555
C33 C32 1_555 1_555
C34 C11 1_555 1_555
C35 C12 1_555 1_555
H13 C35 1_555 1_555
H16 C40 1_555 1_555
C41 C40 1_555 1_555
C42 C41 1_555 1_555
H17 C42 1_555 1_555
C44 C41 1_555 1_555
C45 N3 1_555 1_555
C46 C24 1_555 1_555
H19 C46 1_555 1_555
C47 C44 1_555 1_555
C48 C47 1_555 1_555
N5_2 Pd1_2 1_555 1_555
N7 Zn9 1_555 1_555
O9 Zn5 1_555 1_555
O10 Zn5 1_555 1_555
O12 Zn9 1_555 1_555
O13 Zn9 1_555 1_555
C9 C10 1_555 1_555
C15 O1 1_555 1_555
C20 C21 1_555 1_555
C25 N4_2 1_555 1_555
C27 C28 1_555 1_555
C29 C34 1_555 1_555
C33 C34 1_555 1_555
C44 C45 1_555 1_555
C45 C46 1_555 1_555
C47 N5_2 1_555 1_555
C8 H33 1_555 1_555
C9 H34 1_555 1_555
C6 H35 1_555 1_555
C7 H36 1_555 1_555
C30 H38 1_555 1_555
C33 H39 1_555 1_555
H4 C14 1_555 1_555
N7 C14 1_555 1_555
C36 N7 1_555 1_555
H14 C36 1_555 1_555
C61 C62 1_555 1_555
C62 C63 1_555 1_555
C63 H27 1_555 1_555
C67 C62 1_555 1_555
H30 C67 1_555 1_555
O9 C61 1_555 1_555
O12 C61 1_555 1_555
C37 C38 1_555 1_555
C38 C39 1_555 1_555
C39 H15 1_555 1_555
C43 C38 1_555 1_555
H18 C43 1_555 1_555
O10 C37 1_555 1_555
O13 C37 1_555 1_555
H4_2 C14_2 1_555 1_555
N2 C14_2 1_555 1_555
C36_2 N2 1_555 1_555
H14_2 C36_2 1_555 1_555
Zn8 N2 1_555 1_555
Zn1 N1_2 1_555 1_555
Zn8 O2_2 1_555 1_555
C1_2 H1_2 1_555 1_555
C2_2 C1_2 1_555 1_555
H2_2 C2_2 1_555 1_555
C3_2 C2_2 1_555 1_555
C4_2 C3_2 1_555 1_555
C5_2 C4_2 1_555 1_555
C6_2 C5_2 1_555 1_555
C7_2 C6_2 1_555 1_555
C8_2 C7_2 1_555 1_555
C9_2 C8_2 1_555 1_555
C10_2 C5_2 1_555 1_555
C11_2 C10_2 1_555 1_555
C12_2 C11_2 1_555 1_555
C13_2 C12_2 1_555 1_555
H3_2 C13_2 1_555 1_555
C15_2 C16_2 1_555 1_555
C16_2 C17_2 1_555 1_555
C17_2 H5_2 1_555 1_555
C21_2 C16_2 1_555 1_555
H8_2 C21_2 1_555 1_555
N1_2 C1_2 1_555 1_555
O1_2 Zn1 1_555 1_555
O2_2 C15_2 1_555 1_555
C27_2 N1_2 1_555 1_555
H11_2 C27_2 1_555 1_555
C28_2 C3_2 1_555 1_555
H12_2 C28_2 1_555 1_555
C29_2 C4_2 1_555 1_555
C30_2 C29_2 1_555 1_555
C31_2 C30_2 1_555 1_555
C32_2 C31_2 1_555 1_555
C33_2 C32_2 1_555 1_555
C34_2 C11_2 1_555 1_555
C35_2 C12_2 1_555 1_555
H13_2 C35_2 1_555 1_555
O9_2 Zn1 1_555 1_555
O10_2 Zn1 1_555 1_555
O11 Zn1 1_555 1_555
O12_2 Zn8 1_555 1_555
O13_2 Zn8 1_555 1_555
O14 Zn8 1_555 1_555
C9_2 C10_2 1_555 1_555
C15_2 O1_2 1_555 1_555
C27_2 C28_2 1_555 1_555
C29_2 C34_2 1_555 1_555
C33_2 C34_2 1_555 1_555
C9_2 H34_2 1_555 1_555
C6_2 H35_2 1_555 1_555
C32_2 H37_2 1_555 1_555
C30_2 H38_2 1_555 1_555
C33_2 H39_2 1_555 1_555
C31_2 H40_2 1_555 1_555
C49_2 C50_2 1_555 1_555
C50_2 C51_2 1_555 1_555
C51_2 H21_2 1_555 1_555
C55_2 C50_2 1_555 1_555
H24_2 C55_2 1_555 1_555
O11 C49_2 1_555 1_555
O14 C49_2 1_555 1_555
Pd1_3 N3_2 1_555 1_555
H6_2 C18_2 1_555 1_555
C19_2 C18_2 1_555 1_555
C20_2 C19_2 1_555 1_555
H7_2 C20_2 1_555 1_555
C22_2 C19_2 1_555 1_555
C23_2 C22_2 1_555 1_555
C24_2 C23_2 1_555 1_555
H9_2 C24_2 1_555 1_555
C25_2 C22_2 1_555 1_555
C26_2 C25_2 1_555 1_555
N3_2 C23_2 1_555 1_555
N4_3 Pd1_3 1_555 1_555
C37_2 C38_2 1_555 1_555
C38_2 C39_2 1_555 1_555
C39_2 H15_2 1_555 1_555
C40_2 C39_2 1_555 1_555
H16_2 C40_2 1_555 1_555
C41_2 C40_2 1_555 1_555
C42_2 C41_2 1_555 1_555
H17_2 C42_2 1_555 1_555
C43_2 C38_2 1_555 1_555
H18_2 C43_2 1_555 1_555
C44_2 C41_2 1_555 1_555
C45_2 N3_2 1_555 1_555
C46_2 C24_2 1_555 1_555
H19_2 C46_2 1_555 1_555
C47_2 C44_2 1_555 1_555
C48_2 C47_2 1_555 1_555
H20_2 C48_2 1_555 1_555
N5_3 Pd1_3 1_555 1_555
O10_2 C37_2 1_555 1_555
O13_2 C37_2 1_555 1_555
C25_2 N4_3 1_555 1_555
C42_2 C43_2 1_555 1_555
C44_2 C45_2 1_555 1_555
C45_2 C46_2 1_555 1_555
C47_2 N5_3 1_555 1_555
N4_4 Pd1_4 1_555 1_555
N5_4 Pd1_4 1_555 1_555
H22_2 C52_2 1_555 1_555
C53_2 C52_2 1_555 1_555
C54_2 C53_2 1_555 1_555
H23_2 C54_2 1_555 1_555
C56_2 C53_2 1_555 1_555
C57_2 C56_2 1_555 1_555
C58_2 C57_2 1_555 1_555
H25_2 C58_2 1_555 1_555
C59_2 N4_4 1_555 1_555
N6_2 Pd1_4 1_555 1_555
C61_2 C62_2 1_555 1_555
C62_2 C63_2 1_555 1_555
C63_2 H27_2 1_555 1_555
C64_2 C63_2 1_555 1_555
H28_2 C64_2 1_555 1_555
C65_2 C64_2 1_555 1_555
C66_2 C65_2 1_555 1_555
H29_2 C66_2 1_555 1_555
C67_2 C62_2 1_555 1_555
H30_2 C67_2 1_555 1_555
C68_2 C65_2 1_555 1_555
C69_2 N6_2 1_555 1_555
C70_2 C58_2 1_555 1_555
H31_2 C70_2 1_555 1_555
C71_2 N5_4 1_555 1_555
H32_2 C72_2 1_555 1_555
O9_2 C61_2 1_555 1_555
O12_2 C61_2 1_555 1_555
C56_2 C59_2 1_555 1_555
C57_2 N6_2 1_555 1_555
C59_2 C60_2 1_555 1_555
C66_2 C67_2 1_555 1_555
C68_2 C69_2 1_555 1_555
C68_2 C71_2 1_555 1_555
C69_2 C70_2 1_555 1_555
C71_2 C72_2 1_555 1_555

#END
