
###############################################################################
#
# This file contains modified crystal structure data generated from the
# MOF subset of the Cambridge Structural Database (CSD) v543 
# hosted by the Cambridge Crystallographic Data Centre (CCDC).
#
# This work is licensed under the Creative Commons
# Attribution-NonCommercial-ShareAlike 4.0 International License.
# To view a copy of this license, visit
# http://creativecommons.org/licenses/by-nc-sa/4.0/
# or send a letter to
# Creative Commons, PO Box 1866, Mountain View, CA 94042, USA.
#
# CIF created using the CSD Python API on 29 September 2022
# The structure has been converted into the P1 space group
# The structure has a 3D framework
# The original CSD entry UQUGIZ is in the triclinic crystal system
# The framework has been calculated to contain at least 10.0% void space
# The void calculation uses a probe of radius 1.32A, grid spacing 0.4
#
###############################################################################

data_UQUGIZ
_chemical_formula_moiety         '(C54 H76 Cu4 N12 O24)n'
_symmetry_cell_setting           triclinic
_symmetry_space_group_name_H-M   'P 1'
_symmetry_Int_Tables_number      1
_space_group_name_Hall           'P 1'
loop_
_symmetry_equiv_pos_site_id
_symmetry_equiv_pos_as_xyz
1 x,y,z
_cell_length_a                   11.5584(4)
_cell_length_b                   12.6026(4)
_cell_length_c                   14.4817(5)
_cell_angle_alpha                76.331(2)
_cell_angle_beta                 71.291(2)
_cell_angle_gamma                88.362(2)
_cell_volume                     1938.88
loop_
_atom_site_label
_atom_site_type_symbol
_atom_site_fract_x
_atom_site_fract_y
_atom_site_fract_z
C26 C 0.0383(4) 0.1910(4) 0.2277(3)
H33 H 0.117401 0.167081 0.229308
H34 H 0.032340 0.194631 0.162431
H35 H 0.027377 0.262044 0.241670
H37 H 0.029307 0.082794 0.412043
H31 H 0.030978 0.966126 0.303729
O11 O 0.0792(3) 0.9820(2) 0.1248(2)
Cu10 Cu 0.11761(4) 0.99038(4) 0.98121(3)
Cu1 Cu 0.06238(4) 0.42024(4) 0.46891(3)
Cu2 Cu 0.44238(4) 0.06830(4) 0.45020(3)
O1 O 0.0376(3) 0.3486(2) 0.6101(2)
O2 O 0.1275(3) 0.1519(2) 0.9528(2)
O3 O 0.6012(2) 0.1292(2) 0.3562(2)
N1 N 0.3343(3) 0.2480(3) 0.2943(2)
N2 N 0.1833(3) 0.3084(3) 0.3998(2)
N3 N 0.3186(3) 0.1783(3) 0.3857(2)
C3 C 0.2532(3) 0.3240(3) 0.3042(3)
H5 H 0.245996 0.380207 0.251925
C5 C 0.4286(4) 0.2324(4) 0.2054(3)
H6 H 0.507500 0.231503 0.215776
H7 H 0.431281 0.292818 0.148872
C6 C 0.0529(4) 0.3309(3) 0.9284(3)
H8 H 0.121592 0.351543 0.946249
C7 C 0.0768(4) 0.3813(3) 0.8150(3)
C9 C 0.4034(4) 0.1253(4) 0.1822(3)
H10 H 0.379543 0.067738 0.243535
H11 H 0.336618 0.132974 0.154530
C11 C 0.2263(4) 0.2185(3) 0.4461(3)
H15 H 0.193904 0.187419 0.514582
C12 C 0.0344(4) 0.2085(3) 0.9590(3)
C16 C 0.0801(6) 0.5062(4) 0.8010(4)
H18 H 0.003033 0.527235 0.840445
H19 H 0.144239 0.528174 0.822318
H20 H 0.095012 0.541063 0.731407
C17 C 0.1994(4) 0.3477(5) 0.7522(4)
H21 H 0.263983 0.372099 0.771771
H22 H 0.198385 0.269509 0.763023
H23 H 0.212946 0.380276 0.682385
N4 N 0.5127(3) 0.0963(3) 0.1104(2)
N5 N 0.5337(4) 0.1273(4) 0.0107(3)
C19 C 0.6084(4) 0.0478(3) 0.1281(3)
H27 H 0.615210 0.020917 0.191668
N6 N 0.6931(3) 0.0426(3) 0.0435(2)
C21 C 0.6979(3) 0.0919(3) 0.3721(3)
C22 C 0.8158(3) 0.1528(3) 0.3004(3)
H29 H 0.812926 0.227039 0.308737
H30 H 0.815711 0.156900 0.232723
C23 C 0.9391(3) 0.1099(3) 0.3070(3)
C27 C 0.9499(4) 0.1061(4) 0.4108(3)
H36 H 0.888184 0.055549 0.461417
H38 H 0.938968 0.177597 0.423826
O12 O 0.6998(2) 0.0118(2) 0.4406(2)
Cu8 Cu 0.88239(4) 0.00962(4) 0.01879(3)
O14 O 0.2055(2) 0.5053(2) 0.4690(2)
O15 O 0.4551(3) 0.1656(2) 0.5352(2)
O17 O 0.0708(3) 0.5150(2) 0.3377(2)
C24 C 0.9724(4) 0.9901(3) 0.1824(3)
C25 C 0.9584(4) 0.9937(3) 0.2883(3)
H32 H 0.889214 0.945673 0.333664
O10 O 0.8779(3) 0.9980(2) 0.1569(2)
Cu7 Cu 0.55762(4) 0.93170(4) 0.54980(3)
O16 O 0.4525(3) 0.9545(2) 0.3767(2)
O20 O 0.3002(2) 0.9882(2) 0.5594(2)
O4 O 0.7945(2) 0.4947(2) 0.5310(2)
O6 O 0.5475(3) 0.0455(2) 0.6233(2)
O7 O 0.9272(3) 0.1684(2) 0.9873(2)
O8 O 0.9292(3) 0.4850(2) 0.6623(2)
O9 O 0.9026(2) 0.3554(2) 0.4834(2)
C1 C 0.9722(4) 0.3430(3) 0.7849(3)
H1 H 0.973058 0.264337 0.793597
H2 H 0.894853 0.359451 0.829515
C2 C 0.5090(4) 0.2167(3) 0.6650(3)
H3 H 0.475941 0.178826 0.735291
H4 H 0.455588 0.275280 0.652620
C4 C 0.8039(4) 0.4004(3) 0.5149(3)
H9 H 0.980841 0.362062 0.966514
C8 C 0.9805(3) 0.3962(3) 0.6772(3)
C10 C 0.7250(4) 0.1804(4) 0.6679(4)
H12 H 0.735993 0.133657 0.622478
H13 H 0.802416 0.214652 0.658524
H14 H 0.692165 0.137799 0.735787
C13 C 0.6852(4) 0.3352(3) 0.5371(3)
H16 H 0.698951 0.285866 0.492822
H17 H 0.624048 0.385031 0.523219
C14 C 0.5044(3) 0.1378(3) 0.6027(3)
C15 C 0.6363(4) 0.2684(3) 0.6471(3)
C18 C 0.6179(5) 0.3435(4) 0.7189(3)
H24 H 0.562287 0.398369 0.705275
H25 H 0.584856 0.301275 0.786866
H26 H 0.695107 0.378129 0.709603
Cu4 Cu 0.93762(4) 0.57976(4) 0.53109(3)
O19 O 0.9208(3) 0.0180(2) 0.8752(2)
O13 O 0.8725(3) 0.8481(2) 0.0472(2)
O18 O 0.1221(3) 0.0020(2) 0.8431(2)
O5 O 0.5449(3) 0.8344(2) 0.4648(2)
O7_2 O 0.0728(3) 0.8316(2) 0.0127(2)
O9_2 O 0.0974(2) 0.6446(2) 0.5166(2)
C1_2 C 0.0278(4) 0.6570(3) 0.2151(3)
H1_2 H 0.026942 0.735663 0.206403
H2_2 H 0.105147 0.640549 0.170485
C2_2 C 0.4910(4) 0.7833(3) 0.3350(3)
H3_2 H 0.524059 0.821174 0.264709
H4_2 H 0.544412 0.724720 0.347380
C4_2 C 0.1961(4) 0.5996(3) 0.4851(3)
H9_2 H 0.019159 0.637938 0.033486
C8_2 C 0.0195(3) 0.6038(3) 0.3228(3)
C10_2 C 0.2750(4) 0.8196(4) 0.3321(4)
H12_2 H 0.264007 0.866343 0.377522
H13_2 H 0.197584 0.785348 0.341476
H14_2 H 0.307835 0.862201 0.264213
C13_2 C 0.3148(4) 0.6648(3) 0.4629(3)
H16_2 H 0.301049 0.714134 0.507178
H17_2 H 0.375952 0.614969 0.476781
C14_2 C 0.4956(3) 0.8622(3) 0.3973(3)
C15_2 C 0.3637(4) 0.7316(3) 0.3529(3)
C18_2 C 0.3821(5) 0.6565(4) 0.2811(3)
H24_2 H 0.437713 0.601631 0.294725
H25_2 H 0.415144 0.698725 0.213134
H26_2 H 0.304893 0.621871 0.290397
N7 N 0.3069(3) 0.9574(3) 0.9565(2)
C24_2 C 0.0276(4) 0.0099(3) 0.8176(3)
C25_2 C 0.0416(4) 0.0063(3) 0.7117(3)
H32_2 H 0.110786 0.054327 0.666336
O1_2 O 0.9624(3) 0.6514(2) 0.3899(2)
O3_2 O 0.3988(2) 0.8708(2) 0.6438(2)
N1_2 N 0.6657(3) 0.7520(3) 0.7057(2)
N2_2 N 0.8167(3) 0.6916(3) 0.6002(2)
N3_2 N 0.6814(3) 0.8217(3) 0.6143(2)
C3_2 C 0.7468(3) 0.6760(3) 0.6958(3)
H5_2 H 0.754004 0.619793 0.748075
C5_2 C 0.5714(4) 0.7676(4) 0.7946(3)
H6_2 H 0.492500 0.768497 0.784224
H7_2 H 0.568719 0.707182 0.851128
C6_2 C 0.9471(4) 0.6691(3) 0.0716(3)
H8_2 H 0.878408 0.648457 0.053751
C7_2 C 0.9232(4) 0.6187(3) 0.1850(3)
C9_2 C 0.5966(4) 0.8747(4) 0.8178(3)
H10_2 H 0.620457 0.932262 0.756465
H11_2 H 0.663382 0.867026 0.845470
C11_2 C 0.7737(4) 0.7815(3) 0.5539(3)
H15_2 H 0.806096 0.812581 0.485418
C12_2 C 0.9656(4) 0.7915(3) 0.0410(3)
C16_2 C 0.9199(6) 0.4938(4) 0.1990(4)
H18_2 H 0.996967 0.472765 0.159555
H19_2 H 0.855761 0.471826 0.177682
H20_2 H 0.904988 0.458937 0.268593
C17_2 C 0.8006(4) 0.6523(5) 0.2478(4)
H21_2 H 0.736017 0.627901 0.228229
H22_2 H 0.801615 0.730491 0.236977
H23_2 H 0.787054 0.619724 0.317615
N4_2 N 0.4873(3) 0.9037(3) 0.8896(2)
N5_2 N 0.4663(4) 0.8727(4) 0.9893(3)
C19_2 C 0.3916(4) 0.9522(3) 0.8719(3)
H27_2 H 0.384790 0.979083 0.808332
C21_2 C 0.3021(3) 0.9081(3) 0.6279(3)
C22_2 C 0.1842(3) 0.8472(3) 0.6996(3)
H29_2 H 0.187074 0.772961 0.691263
H30_2 H 0.184289 0.843100 0.767277
C23_2 C 0.0609(3) 0.8901(3) 0.6930(3)
C27_2 C 0.0501(4) 0.8939(4) 0.5892(3)
H36_2 H 0.111816 0.944451 0.538583
H38_2 H 0.061032 0.822403 0.576174
H31_2 H 0.969022 0.033874 0.696271
C20 C 0.6434(4) 0.0934(5) 0.9744(3)
H28 H 0.683602 0.103867 0.905876
C20_2 C 0.3566(4) 0.9066(5) 0.0256(3)
H28_2 H 0.316398 0.896133 0.094124
C26_2 C 0.9617(4) 0.8090(4) 0.7723(3)
H33_2 H 0.882599 0.832919 0.770692
H34_2 H 0.967660 0.805369 0.837569
H35_2 H 0.972623 0.737956 0.758330
H37_2 H 0.970693 0.917206 0.587957
loop_
_geom_bond_atom_site_label_1
_geom_bond_atom_site_label_2
_geom_bond_site_symmetry_1
_geom_bond_site_symmetry_2
H33 C26 1_555 1_555
H34 C26 1_555 1_555
H35 C26 1_555 1_555
Cu1 O1 1_555 1_555
Cu2 O3 1_555 1_555
O2 C12 1_555 1_555
O3 C21 1_555 1_555
N1 N3 1_555 1_555
N2 Cu1 1_555 1_555
N3 Cu2 1_555 1_555
C3 N1 1_555 1_555
H5 C3 1_555 1_555
C5 N1 1_555 1_555
H6 C5 1_555 1_555
H7 C5 1_555 1_555
C6 H8 1_555 1_555
C9 C5 1_555 1_555
H10 C9 1_555 1_555
H11 C9 1_555 1_555
C11 N2 1_555 1_555
H15 C11 1_555 1_555
C12 C6 1_555 1_555
C16 C7 1_555 1_555
H18 C16 1_555 1_555
H19 C16 1_555 1_555
H20 C16 1_555 1_555
C17 C7 1_555 1_555
H21 C17 1_555 1_555
H22 C17 1_555 1_555
H23 C17 1_555 1_555
N4 C9 1_555 1_555
N5 N4 1_555 1_555
C19 N4 1_555 1_555
H27 C19 1_555 1_555
N6 C19 1_555 1_555
C21 C22 1_555 1_555
C22 H29 1_555 1_555
H30 C22 1_555 1_555
C23 C22 1_555 1_555
C27 C23 1_555 1_555
H36 C27 1_555 1_555
H38 C27 1_555 1_555
O12 C21 1_555 1_555
Cu8 N6 1_555 1_555
O14 Cu1 1_555 1_555
O15 Cu2 1_555 1_555
O17 Cu1 1_555 1_555
N2 C3 1_555 1_555
N3 C11 1_555 1_555
C6 C7 1_555 1_555
C24 C25 1_555 1_555
H32 C25 1_555 1_555
O10 C24 1_555 1_555
O4 C4 1_555 1_555
O15 C14 1_555 1_555
O6 C14 1_555 1_555
O8 C8 1_555 1_555
C1 H1 1_555 1_555
H2 C1 1_555 1_555
C2 H3 1_555 1_555
H4 C2 1_555 1_555
C4 O9 1_555 1_555
C8 C1 1_555 1_555
C10 H12 1_555 1_555
H13 C10 1_555 1_555
H14 C10 1_555 1_555
C13 C4 1_555 1_555
H16 C13 1_555 1_555
H17 C13 1_555 1_555
C14 C2 1_555 1_555
C15 C2 1_555 1_555
C18 C15 1_555 1_555
H24 C18 1_555 1_555
H25 C18 1_555 1_555
H26 C18 1_555 1_555
O4 Cu4 1_555 1_555
O8 Cu4 1_555 1_555
C10 C15 1_555 1_555
C13 C15 1_555 1_555
O14 C4_2 1_555 1_555
O5 C14_2 1_555 1_555
O16 C14_2 1_555 1_555
O17 C8_2 1_555 1_555
C1_2 H1_2 1_555 1_555
H2_2 C1_2 1_555 1_555
C2_2 H3_2 1_555 1_555
H4_2 C2_2 1_555 1_555
C4_2 O9_2 1_555 1_555
C8_2 C1_2 1_555 1_555
C10_2 H12_2 1_555 1_555
H13_2 C10_2 1_555 1_555
H14_2 C10_2 1_555 1_555
C13_2 C4_2 1_555 1_555
H16_2 C13_2 1_555 1_555
H17_2 C13_2 1_555 1_555
C14_2 C2_2 1_555 1_555
C15_2 C2_2 1_555 1_555
C18_2 C15_2 1_555 1_555
H24_2 C18_2 1_555 1_555
H25_2 C18_2 1_555 1_555
H26_2 C18_2 1_555 1_555
Cu7 O5 1_555 1_555
C10_2 C15_2 1_555 1_555
C13_2 C15_2 1_555 1_555
N7 Cu10 1_555 1_555
C24_2 C25_2 1_555 1_555
H32_2 C25_2 1_555 1_555
O18 C24_2 1_555 1_555
Cu4 O1_2 1_555 1_555
Cu7 O3_2 1_555 1_555
O13 C12_2 1_555 1_555
O3_2 C21_2 1_555 1_555
N1_2 N3_2 1_555 1_555
N2_2 Cu4 1_555 1_555
N3_2 Cu7 1_555 1_555
C3_2 N1_2 1_555 1_555
H5_2 C3_2 1_555 1_555
C5_2 N1_2 1_555 1_555
H6_2 C5_2 1_555 1_555
H7_2 C5_2 1_555 1_555
C6_2 H8_2 1_555 1_555
C9_2 C5_2 1_555 1_555
H10_2 C9_2 1_555 1_555
H11_2 C9_2 1_555 1_555
C11_2 N2_2 1_555 1_555
H15_2 C11_2 1_555 1_555
C12_2 C6_2 1_555 1_555
C16_2 C7_2 1_555 1_555
H18_2 C16_2 1_555 1_555
H19_2 C16_2 1_555 1_555
H20_2 C16_2 1_555 1_555
C17_2 C7_2 1_555 1_555
H21_2 C17_2 1_555 1_555
H22_2 C17_2 1_555 1_555
H23_2 C17_2 1_555 1_555
N4_2 C9_2 1_555 1_555
N5_2 N4_2 1_555 1_555
C19_2 N4_2 1_555 1_555
H27_2 C19_2 1_555 1_555
N7 C19_2 1_555 1_555
C21_2 C22_2 1_555 1_555
C22_2 H29_2 1_555 1_555
H30_2 C22_2 1_555 1_555
C23_2 C22_2 1_555 1_555
C27_2 C23_2 1_555 1_555
H36_2 C27_2 1_555 1_555
H38_2 C27_2 1_555 1_555
O20 C21_2 1_555 1_555
N2_2 C3_2 1_555 1_555
N3_2 C11_2 1_555 1_555
C6_2 C7_2 1_555 1_555
H28 C20 1_555 1_555
H28_2 C20_2 1_555 1_555
H33_2 C26_2 1_555 1_555
H34_2 C26_2 1_555 1_555
H35_2 C26_2 1_555 1_555

#END
