
###############################################################################
#
# This file contains modified crystal structure data generated from the
# MOF subset of the Cambridge Structural Database (CSD) v543 
# hosted by the Cambridge Crystallographic Data Centre (CCDC).
#
# This work is licensed under the Creative Commons
# Attribution-NonCommercial-ShareAlike 4.0 International License.
# To view a copy of this license, visit
# http://creativecommons.org/licenses/by-nc-sa/4.0/
# or send a letter to
# Creative Commons, PO Box 1866, Mountain View, CA 94042, USA.
#
# CIF created using the CSD Python API on 29 September 2022
# The structure has been converted into the P1 space group
# The structure has a 3D framework
# The original CSD entry USATAL is in the triclinic crystal system
# The framework has been calculated to contain at least 10.0% void space
# The void calculation uses a probe of radius 1.32A, grid spacing 0.4
#
###############################################################################

data_USATAL
_chemical_formula_moiety         '(C50 H42 Co2 N8 O13)n'
_symmetry_cell_setting           triclinic
_symmetry_space_group_name_H-M   'P 1'
_symmetry_Int_Tables_number      1
_space_group_name_Hall           'P 1'
loop_
_symmetry_equiv_pos_site_id
_symmetry_equiv_pos_as_xyz
1 x,y,z
_cell_length_a                   10.463(2)
_cell_length_b                   11.846(2)
_cell_length_c                   12.511(3)
_cell_angle_alpha                89.20(3)
_cell_angle_beta                 75.08(3)
_cell_angle_gamma                73.36(3)
_cell_volume                     1432.65
loop_
_atom_site_label
_atom_site_type_symbol
_atom_site_fract_x
_atom_site_fract_y
_atom_site_fract_z
H5 H 0.0807 0.0187 0.1860
C1 C 0.0319(9) 0.8482(7) 0.0931(6)
H1 H 0.1217 0.8185 0.0999
C15 C 0.0921(7) 0.5926(6) 0.2260(5)
C16 C 0.1740(7) 0.5614(6) 0.3106(5)
C17 C 0.1054(7) 0.5954(6) 0.4215(5)
H15 H 0.0159 0.6466 0.4420
C18 C 0.1767(7) 0.5495(6) 0.5013(5)
C19 C 0.3104(7) 0.4719(6) 0.4711(5)
H16 H 0.3564 0.4435 0.5249
C20 C 0.3743(7) 0.4375(6) 0.3597(6)
C21 C 0.3093(7) 0.4862(6) 0.2788(5)
H17 H 0.3555 0.4689 0.2041
C24 C 0.5768(8) 0.3175(7) 0.2279(6)
H20 H 0.5141 0.3279 0.1810
H21 H 0.6258 0.2340 0.2238
C25 C 0.6811(7) 0.3850(7) 0.1829(5)
O3 O 0.1544(5) 0.5767(5) 0.1249(4)
O4 O 0.1193(5) 0.5744(4) 0.6130(3)
O6 O 0.0174(5) 0.6144(5) 0.8281(3)
O7 O 0.4974(5) 0.3535(5) 0.3398(4)
O8 O 0.6801(5) 0.4686(5) 0.2431(4)
O9 O 0.7608(5) 0.3473(5) 0.0900(4)
Co3 Co 0.05570(9) 0.61135(8) 0.99280(7)
Co5 Co 0.94430(9) 0.38865(8) 0.00720(7)
Co7 Co 0.17306(10) 0.44786(9) 0.77354(7)
Co9 Co 0.82694(10) 0.55214(9) 0.22646(7)
O1 O 0.1265(5) 0.4338(4) 0.9381(4)
N5 N 0.3319(7) 0.2967(6) 0.7092(5)
O11 O 0.0380(5) 0.3727(5) 0.7355(4)
O13 O 0.3199(5) 0.5314(5) 0.7569(4)
O14 O 0.2392(5) 0.6527(5) 0.9100(4)
H3 H 0.7507 0.0311 0.1252
C4 C 0.9820(11) 0.0433(8) 0.1926(7)
H4 H 0.9598 0.1187 0.1598
C5 C 0.9047(8) 0.0586(7) 0.3138(7)
C6 C 0.8195(9) 0.1668(7) 0.3603(8)
H6 H 0.8083 0.2309 0.3162
C7 C 0.7506(9) 0.1823(7) 0.4703(8)
H7 H 0.6971 0.2574 0.5006
C8 C 0.7590(8) 0.0881(8) 0.5370(7)
C11 C 0.4616(8) 0.2707(8) 0.7119(7)
H10 H 0.4990 0.3236 0.7381
C12 C 0.3218(10) 0.1941(8) 0.6646(9)
H11 H 0.2415 0.1837 0.6530
C13 C 0.4443(10) 0.1129(8) 0.6408(9)
H12 H 0.4657 0.0374 0.6082
C14 C 0.6812(9) 0.1079(10) 0.6578(8)
H13 H 0.6961 0.0329 0.6919
H14 H 0.7172 0.1586 0.6947
N3 N 0.5331(7) 0.1619(7) 0.6737(6)
C2 C 0.8401(8) 0.8656(7) 0.0557(7)
H2 H 0.7709 0.8493 0.0301
C3 C 0.8287(10) 0.9657(8) 0.1077(8)
C9 C 0.8420(8) 0.9782(7) 0.4901(7)
H8 H 0.8493 0.9137 0.5338
C10 C 0.9143(9) 0.9623(7) 0.3800(7)
H9 H 0.9695 0.8875 0.3497
C22 C 0.9828(7) 0.6552(6) 0.6487(5)
H18 H 0.9184 0.6238 0.6241
H19 H 0.9817 0.7299 0.6156
C23 C 0.9378(7) 0.6752(7) 0.7734(6)
N1 N 0.9709(6) 0.7889(6) 0.0451(5)
N2 N 0.9489(7) 0.9565(6) 0.1309(5)
O2 O 0.9620(5) 0.6273(5) 0.2645(4)
O5 O 0.8253(6) 0.7503(6) 0.8122(5)
O10 O 0.8735(5) 0.5662(4) 0.0619(4)
C2_2 C 0.1599(8) 0.1344(7) 0.9443(7)
H2_2 H 0.2291 0.1507 0.9699
C3_2 C 0.1713(10) 0.0343(8) 0.8923(8)
C9_2 C 0.1580(8) 0.0218(7) 0.5099(7)
H8_2 H 0.1507 0.0863 0.4662
C10_2 C 0.0857(9) 0.0377(7) 0.6200(7)
H9_2 H 0.0305 0.1125 0.6503
C22_2 C 0.0172(7) 0.3448(6) 0.3513(5)
H18_2 H 0.0816 0.3762 0.3759
H19_2 H 0.0183 0.2701 0.3844
C23_2 C 0.0622(7) 0.3248(7) 0.2266(6)
N1_2 N 0.0291(6) 0.2111(6) 0.9549(5)
N2_2 N 0.0511(7) 0.0435(6) 0.8691(5)
O5_2 O 0.1747(6) 0.2497(6) 0.1878(5)
H3_2 H 0.2493 0.9689 0.8748
C4_2 C 0.0180(11) 0.9567(8) 0.8074(7)
H4_2 H 0.0402 0.8813 0.8402
C5_2 C 0.0953(8) 0.9414(7) 0.6862(7)
C6_2 C 0.1805(9) 0.8332(7) 0.6397(8)
H6_2 H 0.1917 0.7691 0.6838
C7_2 C 0.2494(9) 0.8177(7) 0.5297(8)
H7_2 H 0.3029 0.7426 0.4994
C8_2 C 0.2410(8) 0.9119(8) 0.4630(7)
C11_2 C 0.5384(8) 0.7293(8) 0.2881(7)
H10_2 H 0.5010 0.6764 0.2619
C12_2 C 0.6782(10) 0.8059(8) 0.3354(9)
H11_2 H 0.7585 0.8163 0.3470
C13_2 C 0.5557(10) 0.8871(8) 0.3592(9)
H12_2 H 0.5343 0.9626 0.3918
C14_2 C 0.3188(9) 0.8921(10) 0.3422(8)
H13_2 H 0.3039 0.9671 0.3081
H14_2 H 0.2828 0.8414 0.3053
N3_2 N 0.4669(7) 0.8381(7) 0.3263(6)
N4 N 0.6681(7) 0.7033(6) 0.2908(5)
O12 O 0.9826(5) 0.3856(5) 0.1719(3)
C1_2 C 0.9681(9) 0.1518(7) 0.9069(6)
H1_2 H 0.8783 0.1815 0.9001
C15_2 C 0.9079(7) 0.4074(6) 0.7740(5)
C16_2 C 0.8260(7) 0.4386(6) 0.6894(5)
C17_2 C 0.8946(7) 0.4046(6) 0.5785(5)
H15_2 H 0.9841 0.3534 0.5580
C18_2 C 0.8233(7) 0.4505(6) 0.4987(5)
C19_2 C 0.6896(7) 0.5281(6) 0.5289(5)
H16_2 H 0.6436 0.5565 0.4751
C20_2 C 0.6257(7) 0.5625(6) 0.6403(6)
C21_2 C 0.6907(7) 0.5138(6) 0.7212(5)
H17_2 H 0.6445 0.5311 0.7959
C24_2 C 0.4232(8) 0.6825(7) 0.7721(6)
H20_2 H 0.4859 0.6721 0.8190
H21_2 H 0.3742 0.7660 0.7762
C25_2 C 0.3189(7) 0.6150(7) 0.8171(5)
O3_2 O 0.8456(5) 0.4233(5) 0.8751(4)
O4_2 O 0.8807(5) 0.4256(4) 0.3870(3)
O7_2 O 0.5026(5) 0.6465(5) 0.6602(4)
H5_2 H 0.9193 0.9813 0.8140
loop_
_geom_bond_atom_site_label_1
_geom_bond_atom_site_label_2
_geom_bond_site_symmetry_1
_geom_bond_site_symmetry_2
C1 H1 1_555 1_555
C15 C16 1_555 1_555
C16 C17 1_555 1_555
C17 H15 1_555 1_555
C18 C17 1_555 1_555
C19 C18 1_555 1_555
H16 C19 1_555 1_555
C20 C19 1_555 1_555
C21 C16 1_555 1_555
H17 C21 1_555 1_555
C24 H20 1_555 1_555
H21 C24 1_555 1_555
C25 C24 1_555 1_555
O3 C15 1_555 1_555
O4 C18 1_555 1_555
O7 C20 1_555 1_555
O8 C25 1_555 1_555
O9 C25 1_555 1_555
Co3 O6 1_555 1_555
Co5 O9 1_555 1_555
Co7 O6 1_555 1_555
Co9 O8 1_555 1_555
C20 C21 1_555 1_555
C24 O7 1_555 1_555
Co7 O1 1_555 1_555
O1 Co3 1_555 1_555
N5 Co7 1_555 1_555
O11 Co7 1_555 1_555
O13 Co7 1_555 1_555
O14 Co3 1_555 1_555
C4 H4 1_555 1_555
C5 C4 1_555 1_555
C6 C5 1_555 1_555
H6 C6 1_555 1_555
C7 C6 1_555 1_555
H7 C7 1_555 1_555
C8 C7 1_555 1_555
C11 H10 1_555 1_555
C12 H11 1_555 1_555
C13 C12 1_555 1_555
H12 C13 1_555 1_555
C14 C8 1_555 1_555
H13 C14 1_555 1_555
H14 C14 1_555 1_555
N3 C11 1_555 1_555
N5 C11 1_555 1_555
C12 N5 1_555 1_555
C13 N3 1_555 1_555
C14 N3 1_555 1_555
C2 H2 1_555 1_555
C3 C2 1_555 1_555
H8 C9 1_555 1_555
H9 C10 1_555 1_555
C22 H18 1_555 1_555
H19 C22 1_555 1_555
C23 C22 1_555 1_555
O5 C23 1_555 1_555
Co9 O2 1_555 1_555
C2 N1 1_555 1_555
C3 N2 1_555 1_555
C9 C10 1_555 1_555
Co5 O10 1_555 1_555
Co9 O10 1_555 1_555
C2_2 H2_2 1_555 1_555
C3_2 C2_2 1_555 1_555
H8_2 C9_2 1_555 1_555
H9_2 C10_2 1_555 1_555
C22_2 H18_2 1_555 1_555
H19_2 C22_2 1_555 1_555
C23_2 C22_2 1_555 1_555
O5_2 C23_2 1_555 1_555
C2_2 N1_2 1_555 1_555
C3_2 N2_2 1_555 1_555
C9_2 C10_2 1_555 1_555
C4_2 H4_2 1_555 1_555
C5_2 C4_2 1_555 1_555
C6_2 C5_2 1_555 1_555
H6_2 C6_2 1_555 1_555
C7_2 C6_2 1_555 1_555
H7_2 C7_2 1_555 1_555
C8_2 C7_2 1_555 1_555
C11_2 H10_2 1_555 1_555
C12_2 H11_2 1_555 1_555
C13_2 C12_2 1_555 1_555
H12_2 C13_2 1_555 1_555
C14_2 C8_2 1_555 1_555
H13_2 C14_2 1_555 1_555
H14_2 C14_2 1_555 1_555
N3_2 C11_2 1_555 1_555
N4 C11_2 1_555 1_555
Co9 N4 1_555 1_555
C12_2 N4 1_555 1_555
C13_2 N3_2 1_555 1_555
C14_2 N3_2 1_555 1_555
O12 Co5 1_555 1_555
Co9 O12 1_555 1_555
C1_2 H1_2 1_555 1_555
C15_2 C16_2 1_555 1_555
C16_2 C17_2 1_555 1_555
C17_2 H15_2 1_555 1_555
C18_2 C17_2 1_555 1_555
C19_2 C18_2 1_555 1_555
H16_2 C19_2 1_555 1_555
C20_2 C19_2 1_555 1_555
C21_2 C16_2 1_555 1_555
H17_2 C21_2 1_555 1_555
C24_2 H20_2 1_555 1_555
H21_2 C24_2 1_555 1_555
C25_2 C24_2 1_555 1_555
O3_2 C15_2 1_555 1_555
O4_2 C18_2 1_555 1_555
O7_2 C20_2 1_555 1_555
O13 C25_2 1_555 1_555
O14 C25_2 1_555 1_555
C20_2 C21_2 1_555 1_555
C24_2 O7_2 1_555 1_555

#END
