
###############################################################################
#
# This file contains modified crystal structure data generated from the
# MOF subset of the Cambridge Structural Database (CSD) v543 
# hosted by the Cambridge Crystallographic Data Centre (CCDC).
#
# This work is licensed under the Creative Commons
# Attribution-NonCommercial-ShareAlike 4.0 International License.
# To view a copy of this license, visit
# http://creativecommons.org/licenses/by-nc-sa/4.0/
# or send a letter to
# Creative Commons, PO Box 1866, Mountain View, CA 94042, USA.
#
# CIF created using the CSD Python API on 29 September 2022
# The structure has been converted into the P1 space group
# The structure has a 3D framework
# The original CSD entry USOFIU is in the cubic crystal system
# The framework has been calculated to contain at least 10.0% void space
# The void calculation uses a probe of radius 1.32A, grid spacing 0.4
# The framework is charged, counterions have been retained in the structure
#
###############################################################################

data_USOFIU
_chemical_formula_moiety         '(C120 H96 Cu6 F60 N32 Si18 24-)n'
_symmetry_cell_setting           triclinic
_symmetry_space_group_name_H-M   'P 1'
_symmetry_Int_Tables_number      1
_space_group_name_Hall           'P 1'
loop_
_symmetry_equiv_pos_site_id
_symmetry_equiv_pos_as_xyz
1 x,y,z
_cell_length_a                   17.5062(2)
_cell_length_b                   17.5062(2)
_cell_length_c                   17.5062(2)
_cell_angle_alpha                90
_cell_angle_beta                 90
_cell_angle_gamma                90
_cell_volume                     5365.07
loop_
_atom_site_label
_atom_site_type_symbol
_atom_site_fract_x
_atom_site_fract_y
_atom_site_fract_z
Cu7 Cu -0.000000 0.250000 0.500000
Cu5 Cu 0.750000 0.500000 -0.000000
Cu3 Cu 0.500000 -0.000000 0.750000
N9 N 0.750000 0.41915(14) 0.91915(14)
N10 N 0.750000 0.250000 0.750000
C31 C 0.68415(19) 0.3923(2) 0.8899(2)
H25 H 0.638253 0.411901 0.908091
C32 C 0.68214(18) 0.33697(19) 0.83423(19)
H26 H 0.635600 0.319931 0.815115
C33 C 0.750000 0.30678(15) 0.80678(15)
N11 N 0.91915(14) 0.250000 0.58085(14)
C34 C 0.8899(2) 0.31585(19) 0.6077(2)
H27 H 0.908091 0.361747 0.588099
C35 C 0.83423(19) 0.31786(18) 0.66303(19)
H28 H 0.815115 0.364400 0.680069
C36 C 0.80678(15) 0.250000 0.69322(15)
N12 N 0.58085(14) 0.08085(14) 0.750000
C37 C 0.6077(2) 0.1101(2) 0.68415(19)
H29 H 0.588099 0.091909 0.638253
C38 C 0.66303(19) 0.16577(19) 0.68214(18)
H30 H 0.680069 0.184885 0.635600
C39 C 0.69322(15) 0.19322(15) 0.750000
C40 C 0.8923(2) 0.18415(19) 0.6101(2)
H31 H 0.911901 0.138253 0.591909
C41 C 0.83697(19) 0.18214(18) 0.66577(19)
H32 H 0.819931 0.135600 0.684885
C42 C 0.6101(2) 0.1077(2) 0.81585(19)
H33 H 0.591909 0.088099 0.861747
C43 C 0.66577(19) 0.16303(19) 0.81786(18)
H34 H 0.684885 0.180069 0.864400
C44 C 0.81585(19) 0.3899(2) 0.8923(2)
H35 H 0.861747 0.408091 0.911901
C45 C 0.81786(18) 0.33423(19) 0.83697(19)
H36 H 0.864400 0.315115 0.819931
Cu5_2 Cu 0.750000 0.500000 1.000000
Cu7_2 Cu 1.000000 0.250000 0.500000
N19 N 0.41915(14) 0.08085(14) 0.750000
Cu2 Cu 0.250000 0.500000 -0.000000
N13 N 0.41915(14) 0.08085(14) 0.250000
N14 N 0.250000 0.250000 0.250000
C46 C 0.3923(2) 0.1101(2) 0.31585(19)
H37 H 0.411901 0.091909 0.361747
C47 C 0.33697(19) 0.16577(19) 0.31786(18)
H38 H 0.319931 0.184885 0.364400
C48 C 0.30678(15) 0.19322(15) 0.250000
N15 N 0.250000 0.41915(14) 0.08085(14)
C49 C 0.31585(19) 0.3923(2) 0.1101(2)
H39 H 0.361747 0.411901 0.091909
C50 C 0.31786(18) 0.33697(19) 0.16577(19)
H40 H 0.364400 0.319931 0.184885
C51 C 0.250000 0.30678(15) 0.19322(15)
N16 N 0.08085(14) 0.250000 0.41915(14)
C52 C 0.1101(2) 0.31585(19) 0.3923(2)
H41 H 0.091909 0.361747 0.411901
C53 C 0.16577(19) 0.31786(18) 0.33697(19)
H42 H 0.184885 0.364400 0.319931
C54 C 0.19322(15) 0.250000 0.30678(15)
C55 C 0.18415(19) 0.3899(2) 0.1077(2)
H43 H 0.138253 0.408091 0.088099
C56 C 0.18214(18) 0.33423(19) 0.16303(19)
H44 H 0.135600 0.315115 0.180069
C57 C 0.1077(2) 0.18415(19) 0.3899(2)
H45 H 0.088099 0.138253 0.408091
C58 C 0.16303(19) 0.18214(18) 0.33423(19)
H46 H 0.180069 0.135600 0.315115
C59 C 0.3899(2) 0.1077(2) 0.18415(19)
H47 H 0.408091 0.088099 0.138253
C60 C 0.33423(19) 0.16303(19) 0.18214(18)
H48 H 0.315115 0.180069 0.135600
Cu9 Cu 0.500000 0.000000 0.250000
N22 N 0.250000 0.58085(14) 0.08085(14)
Cu1 Cu 0.000000 0.750000 0.500000
N1 N 0.08085(14) 0.750000 0.58085(14)
N2 N 0.250000 0.750000 0.750000
C1 C 0.1077(2) 0.81585(19) 0.6101(2)
H1 H 0.088099 0.861747 0.591909
C2 C 0.16303(19) 0.81786(18) 0.66577(19)
H2 H 0.180069 0.864400 0.684885
C3 C 0.19322(15) 0.750000 0.69322(15)
N3 N 0.250000 0.58085(14) 0.91915(14)
C4 C 0.18415(19) 0.6101(2) 0.8923(2)
H3 H 0.138253 0.591909 0.911901
C5 C 0.18214(18) 0.66577(19) 0.83697(19)
H4 H 0.135600 0.684885 0.819931
C6 C 0.250000 0.69322(15) 0.80678(15)
N4 N 0.41915(14) 0.91915(14) 0.750000
C7 C 0.3899(2) 0.8923(2) 0.81585(19)
H5 H 0.408091 0.911901 0.861747
C8 C 0.33423(19) 0.83697(19) 0.81786(18)
H6 H 0.315115 0.819931 0.864400
C9 C 0.30678(15) 0.80678(15) 0.750000
C10 C 0.31585(19) 0.6077(2) 0.8899(2)
H7 H 0.361747 0.588099 0.908091
C11 C 0.31786(18) 0.66303(19) 0.83423(19)
H8 H 0.364400 0.680069 0.815115
C12 C 0.3923(2) 0.8899(2) 0.68415(19)
H9 H 0.411901 0.908091 0.638253
C13 C 0.33697(19) 0.83423(19) 0.68214(18)
H10 H 0.319931 0.815115 0.635600
C14 C 0.1101(2) 0.68415(19) 0.6077(2)
H11 H 0.091909 0.638253 0.588099
C15 C 0.16577(19) 0.68214(18) 0.66303(19)
H12 H 0.184885 0.635600 0.680069
Cu2_2 Cu 0.250000 0.500000 1.000000
Cu3_2 Cu 0.500000 1.000000 0.750000
N17 N 0.250000 0.41915(14) 0.91915(14)
N18 N 0.08085(14) 0.750000 0.41915(14)
N21 N 0.58085(14) 0.91915(14) 0.750000
Cu9_2 Cu 0.500000 1.000000 0.250000
Cu1_2 Cu 1.000000 0.750000 0.500000
N5 N 0.91915(14) 0.750000 0.41915(14)
N6 N 0.750000 0.750000 0.250000
C16 C 0.8923(2) 0.81585(19) 0.3899(2)
H13 H 0.911901 0.861747 0.408091
C17 C 0.83697(19) 0.81786(18) 0.33423(19)
H14 H 0.819931 0.864400 0.315115
C18 C 0.80678(15) 0.750000 0.30678(15)
N7 N 0.750000 0.58085(14) 0.08085(14)
C19 C 0.81585(19) 0.6101(2) 0.1077(2)
H15 H 0.861747 0.591909 0.088099
C20 C 0.81786(18) 0.66577(19) 0.16303(19)
H16 H 0.864400 0.684885 0.180069
C21 C 0.750000 0.69322(15) 0.19322(15)
N8 N 0.58085(14) 0.91915(14) 0.250000
C22 C 0.6101(2) 0.8923(2) 0.18415(19)
H17 H 0.591909 0.911901 0.138253
C23 C 0.66577(19) 0.83697(19) 0.18214(18)
H18 H 0.684885 0.819931 0.135600
C24 C 0.69322(15) 0.80678(15) 0.250000
C25 C 0.68415(19) 0.6077(2) 0.1101(2)
H19 H 0.638253 0.588099 0.091909
C26 C 0.68214(18) 0.66303(19) 0.16577(19)
H20 H 0.635600 0.680069 0.184885
C27 C 0.6077(2) 0.8899(2) 0.31585(19)
H21 H 0.588099 0.908091 0.361747
C28 C 0.66303(19) 0.83423(19) 0.31786(18)
H22 H 0.680069 0.815115 0.364400
C29 C 0.8899(2) 0.68415(19) 0.3923(2)
H23 H 0.908091 0.638253 0.411901
C30 C 0.83423(19) 0.68214(18) 0.33697(19)
H24 H 0.815115 0.635600 0.319931
N20 N 0.91915(14) 0.750000 0.58085(14)
N21_2 N 0.58085(14) 0.08085(14) 0.250000
N19_2 N 0.41915(14) 0.91915(14) 0.250000
N20_2 N 0.750000 0.41915(14) 0.08085(14)
N18_2 N 0.750000 0.58085(14) 0.91915(14)
N20_3 N 0.08085(14) 0.250000 0.58085(14)
N18_3 N 0.91915(14) 0.250000 0.41915(14)
N6_2 N 0.250000 0.250000 0.750000
C16_2 C 0.1077(2) 0.18415(19) 0.6101(2)
H13_2 H 0.088099 0.138253 0.591909
C17_2 C 0.16303(19) 0.18214(18) 0.66577(19)
H14_2 H 0.180069 0.135600 0.684885
C18_2 C 0.19322(15) 0.250000 0.69322(15)
C19_2 C 0.18415(19) 0.3899(2) 0.8923(2)
H15_2 H 0.138253 0.408091 0.911901
C20_2 C 0.18214(18) 0.33423(19) 0.83697(19)
H16_2 H 0.135600 0.315115 0.819931
C21_2 C 0.250000 0.30678(15) 0.80678(15)
C22_2 C 0.3899(2) 0.1077(2) 0.81585(19)
H17_2 H 0.408091 0.088099 0.861747
C23_2 C 0.33423(19) 0.16303(19) 0.81786(18)
H18_2 H 0.315115 0.180069 0.864400
C24_2 C 0.30678(15) 0.19322(15) 0.750000
C25_2 C 0.31585(19) 0.3923(2) 0.8899(2)
H19_2 H 0.361747 0.411901 0.908091
C26_2 C 0.31786(18) 0.33697(19) 0.83423(19)
H20_2 H 0.364400 0.319931 0.815115
C27_2 C 0.3923(2) 0.1101(2) 0.68415(19)
H21_2 H 0.411901 0.091909 0.638253
C28_2 C 0.33697(19) 0.16577(19) 0.68214(18)
H22_2 H 0.319931 0.184885 0.635600
C29_2 C 0.1101(2) 0.31585(19) 0.6077(2)
H23_2 H 0.091909 0.361747 0.588099
C30_2 C 0.16577(19) 0.31786(18) 0.66303(19)
H24_2 H 0.184885 0.364400 0.680069
N2_2 N 0.750000 0.250000 0.250000
C1_2 C 0.8923(2) 0.18415(19) 0.3899(2)
H1_2 H 0.911901 0.138253 0.408091
C2_2 C 0.83697(19) 0.18214(18) 0.33423(19)
H2_2 H 0.819931 0.135600 0.315115
C3_2 C 0.80678(15) 0.250000 0.30678(15)
C4_2 C 0.81585(19) 0.3899(2) 0.1077(2)
H3_2 H 0.861747 0.408091 0.088099
C5_2 C 0.81786(18) 0.33423(19) 0.16303(19)
H4_2 H 0.864400 0.315115 0.180069
C6_2 C 0.750000 0.30678(15) 0.19322(15)
C7_2 C 0.6101(2) 0.1077(2) 0.18415(19)
H5_2 H 0.591909 0.088099 0.138253
C8_2 C 0.66577(19) 0.16303(19) 0.18214(18)
H6_2 H 0.684885 0.180069 0.135600
C9_2 C 0.69322(15) 0.19322(15) 0.250000
C10_2 C 0.68415(19) 0.3923(2) 0.1101(2)
H7_2 H 0.638253 0.411901 0.091909
C11_2 C 0.68214(18) 0.33697(19) 0.16577(19)
H8_2 H 0.635600 0.319931 0.184885
C12_2 C 0.6077(2) 0.1101(2) 0.31585(19)
H9_2 H 0.588099 0.091909 0.361747
C13_2 C 0.66303(19) 0.16577(19) 0.31786(18)
H10_2 H 0.680069 0.184885 0.364400
C14_2 C 0.8899(2) 0.31585(19) 0.3923(2)
H11_2 H 0.908091 0.361747 0.411901
C15_2 C 0.83423(19) 0.31786(18) 0.33697(19)
H12_2 H 0.815115 0.364400 0.319931
N14_2 N 0.750000 0.750000 0.750000
C46_2 C 0.6077(2) 0.8899(2) 0.68415(19)
H37_2 H 0.588099 0.908091 0.638253
C47_2 C 0.66303(19) 0.83423(19) 0.68214(18)
H38_2 H 0.680069 0.815115 0.635600
C48_2 C 0.69322(15) 0.80678(15) 0.750000
C49_2 C 0.68415(19) 0.6077(2) 0.8899(2)
H39_2 H 0.638253 0.588099 0.908091
C50_2 C 0.68214(18) 0.66303(19) 0.83423(19)
H40_2 H 0.635600 0.680069 0.815115
C51_2 C 0.750000 0.69322(15) 0.80678(15)
C52_2 C 0.8899(2) 0.68415(19) 0.6077(2)
H41_2 H 0.908091 0.638253 0.588099
C53_2 C 0.83423(19) 0.68214(18) 0.66303(19)
H42_2 H 0.815115 0.635600 0.680069
C54_2 C 0.80678(15) 0.750000 0.69322(15)
C55_2 C 0.81585(19) 0.6101(2) 0.8923(2)
H43_2 H 0.861747 0.591909 0.911901
C56_2 C 0.81786(18) 0.66577(19) 0.83697(19)
H44_2 H 0.864400 0.684885 0.819931
C57_2 C 0.8923(2) 0.81585(19) 0.6101(2)
H45_2 H 0.911901 0.861747 0.591909
C58_2 C 0.83697(19) 0.81786(18) 0.66577(19)
H46_2 H 0.819931 0.864400 0.684885
C59_2 C 0.6101(2) 0.8923(2) 0.81585(19)
H47_2 H 0.591909 0.911901 0.861747
C60_2 C 0.66577(19) 0.83697(19) 0.81786(18)
H48_2 H 0.684885 0.819931 0.864400
N10_2 N 0.250000 0.750000 0.250000
C31_2 C 0.31585(19) 0.6077(2) 0.1101(2)
H25_2 H 0.361747 0.588099 0.091909
C32_2 C 0.31786(18) 0.66303(19) 0.16577(19)
H26_2 H 0.364400 0.680069 0.184885
C33_2 C 0.250000 0.69322(15) 0.19322(15)
C34_2 C 0.1101(2) 0.68415(19) 0.3923(2)
H27_2 H 0.091909 0.638253 0.411901
C35_2 C 0.16577(19) 0.68214(18) 0.33697(19)
H28_2 H 0.184885 0.635600 0.319931
C36_2 C 0.19322(15) 0.750000 0.30678(15)
C37_2 C 0.3923(2) 0.8899(2) 0.31585(19)
H29_2 H 0.411901 0.908091 0.361747
C38_2 C 0.33697(19) 0.83423(19) 0.31786(18)
H30_2 H 0.319931 0.815115 0.364400
C39_2 C 0.30678(15) 0.80678(15) 0.250000
C40_2 C 0.1077(2) 0.81585(19) 0.3899(2)
H31_2 H 0.088099 0.861747 0.408091
C41_2 C 0.16303(19) 0.81786(18) 0.33423(19)
H32_2 H 0.180069 0.864400 0.315115
C42_2 C 0.3899(2) 0.8923(2) 0.18415(19)
H33_2 H 0.408091 0.911901 0.138253
C43_2 C 0.33423(19) 0.83697(19) 0.18214(18)
H34_2 H 0.315115 0.819931 0.135600
C44_2 C 0.18415(19) 0.6101(2) 0.1077(2)
H35_2 H 0.138253 0.591909 0.088099
C45_2 C 0.18214(18) 0.66577(19) 0.16303(19)
H36_2 H 0.135600 0.684885 0.180069
Si1 Si 0.000000 0.500000 0.500000
F1 F 0.0679(3) 0.500000 0.5666(3)
F2 F 0.000000 0.59702(19) 0.500000
F4 F 0.000000 0.40298(19) 0.500000
F5 F 0.0679(3) 0.500000 0.4334(3)
Si1_2 Si 1.000000 0.500000 0.500000
F2_2 F 1.000000 0.59702(19) 0.500000
F3 F 0.9321(3) 0.500000 0.5666(3)
F4_2 F 1.000000 0.40298(19) 0.500000
F6 F 0.9321(3) 0.500000 0.4334(3)
Si1_3 Si 0.000000 0.500000 -0.000000
F1_2 F 0.000000 0.5679(3) 0.0666(3)
F3_2 F 0.000000 0.4321(3) 0.0666(3)
F4_3 F 0.09702(19) 0.500000 -0.000000
Si1_4 Si 0.000000 0.500000 1.000000
F4_4 F 0.09702(19) 0.500000 1.000000
F5_2 F 0.000000 0.5679(3) 0.9334(3)
F6_2 F 0.000000 0.4321(3) 0.9334(3)
Si1_5 Si 1.000000 0.500000 -0.000000
F1_3 F 1.000000 0.5679(3) 0.0666(3)
F2_3 F 0.90298(19) 0.500000 -0.000000
F3_3 F 1.000000 0.4321(3) 0.0666(3)
Si1_6 Si 1.000000 0.500000 1.000000
F2_4 F 0.90298(19) 0.500000 1.000000
F5_3 F 1.000000 0.5679(3) 0.9334(3)
F6_3 F 1.000000 0.4321(3) 0.9334(3)
Si1_7 Si 0.500000 0.000000 -0.000000
F2_5 F 0.500000 0.000000 0.09702(19)
F5_4 F 0.5679(3) 0.0666(3) -0.000000
F6_4 F 0.4321(3) 0.0666(3) -0.000000
Si1_8 Si 0.500000 0.000000 1.000000
F4_5 F 0.500000 0.000000 0.90298(19)
F5_5 F 0.5679(3) 0.0666(3) 1.000000
F6_5 F 0.4321(3) 0.0666(3) 1.000000
Si1_9 Si 0.500000 1.000000 -0.000000
F1_4 F 0.5679(3) 0.9334(3) -0.000000
F2_6 F 0.500000 1.000000 0.09702(19)
F3_4 F 0.4321(3) 0.9334(3) -0.000000
Si1_10 Si 0.500000 1.000000 1.000000
F1_5 F 0.5679(3) 0.9334(3) 1.000000
F3_5 F 0.4321(3) 0.9334(3) 1.000000
F4_6 F 0.500000 1.000000 0.90298(19)
Si1_11 Si -0.000000 -0.000000 0.500000
F1_6 F 0.0666(3) -0.000000 0.4321(3)
F2_7 F -0.000000 0.09702(19) 0.500000
F3_6 F 0.0666(3) -0.000000 0.5679(3)
Si1_12 Si -0.000000 1.000000 0.500000
F1_7 F 0.0666(3) 1.000000 0.4321(3)
F3_7 F 0.0666(3) 1.000000 0.5679(3)
F4_7 F -0.000000 0.90298(19) 0.500000
Si1_13 Si 1.000000 -0.000000 0.500000
F2_8 F 1.000000 0.09702(19) 0.500000
F5_6 F 0.9334(3) -0.000000 0.4321(3)
F6_6 F 0.9334(3) -0.000000 0.5679(3)
Si1_14 Si 1.000000 1.000000 0.500000
F4_8 F 1.000000 0.90298(19) 0.500000
F5_7 F 0.9334(3) 1.000000 0.4321(3)
F6_7 F 0.9334(3) 1.000000 0.5679(3)
Si1_15 Si 0.500000 0.000000 0.500000
F1_8 F 0.5666(3) 0.0679(3) 0.500000
F2_9 F 0.500000 0.000000 0.59702(19)
F4_9 F 0.500000 0.000000 0.40298(19)
F5_8 F 0.4334(3) 0.0679(3) 0.500000
Si1_16 Si 0.500000 1.000000 0.500000
F2_10 F 0.500000 1.000000 0.59702(19)
F3_8 F 0.5666(3) 0.9321(3) 0.500000
F4_10 F 0.500000 1.000000 0.40298(19)
F6_8 F 0.4334(3) 0.9321(3) 0.500000
Si1_17 Si 0.500000 0.500000 0.000000
F1_9 F 0.500000 0.5666(3) 0.0679(3)
F2_11 F 0.59702(19) 0.500000 0.000000
F4_11 F 0.40298(19) 0.500000 0.000000
F5_9 F 0.500000 0.4334(3) 0.0679(3)
Si1_18 Si 0.500000 0.500000 1.000000
F2_12 F 0.59702(19) 0.500000 1.000000
F3_9 F 0.500000 0.5666(3) 0.9321(3)
F4_12 F 0.40298(19) 0.500000 1.000000
F6_9 F 0.500000 0.4334(3) 0.9321(3)
loop_
_geom_bond_atom_site_label_1
_geom_bond_atom_site_label_2
_geom_bond_site_symmetry_1
_geom_bond_site_symmetry_2
N9 C31 1_555 1_555
N10 C33 1_555 1_555
C31 H25 1_555 1_555
C32 C31 1_555 1_555
H26 C32 1_555 1_555
C33 C32 1_555 1_555
N11 C34 1_555 1_555
C34 H27 1_555 1_555
C35 C34 1_555 1_555
H28 C35 1_555 1_555
C36 N10 1_555 1_555
N12 Cu3 1_555 1_555
C37 N12 1_555 1_555
H29 C37 1_555 1_555
C38 C37 1_555 1_555
H30 C38 1_555 1_555
C39 N10 1_555 1_555
C40 N11 1_555 1_555
H31 C40 1_555 1_555
C41 C36 1_555 1_555
H32 C41 1_555 1_555
C42 N12 1_555 1_555
H33 C42 1_555 1_555
C43 C39 1_555 1_555
H34 C43 1_555 1_555
C44 N9 1_555 1_555
H35 C44 1_555 1_555
C45 C33 1_555 1_555
H36 C45 1_555 1_555
Cu5_2 N9 1_555 1_555
Cu7_2 N11 1_555 1_555
N19 Cu3 1_555 1_555
C35 C36 1_555 1_555
C38 C39 1_555 1_555
C40 C41 1_555 1_555
C42 C43 1_555 1_555
C44 C45 1_555 1_555
N13 C46 1_555 1_555
N14 C48 1_555 1_555
C46 H37 1_555 1_555
C47 C46 1_555 1_555
H38 C47 1_555 1_555
C48 C47 1_555 1_555
N15 Cu2 1_555 1_555
C49 N15 1_555 1_555
H39 C49 1_555 1_555
C50 C49 1_555 1_555
H40 C50 1_555 1_555
C51 N14 1_555 1_555
N16 C52 1_555 1_555
C52 H41 1_555 1_555
C53 C52 1_555 1_555
H42 C53 1_555 1_555
C54 N14 1_555 1_555
C55 N15 1_555 1_555
H43 C55 1_555 1_555
C56 C51 1_555 1_555
H44 C56 1_555 1_555
C57 N16 1_555 1_555
H45 C57 1_555 1_555
C58 C54 1_555 1_555
H46 C58 1_555 1_555
C59 N13 1_555 1_555
H47 C59 1_555 1_555
C60 C48 1_555 1_555
H48 C60 1_555 1_555
Cu7 N16 1_555 1_555
Cu9 N13 1_555 1_555
N22 Cu2 1_555 1_555
C50 C51 1_555 1_555
C53 C54 1_555 1_555
C55 C56 1_555 1_555
C57 C58 1_555 1_555
C59 C60 1_555 1_555
Cu1 N1 1_555 1_555
N1 C1 1_555 1_555
N2 C3 1_555 1_555
C1 H1 1_555 1_555
C2 C1 1_555 1_555
H2 C2 1_555 1_555
C3 C2 1_555 1_555
N3 C4 1_555 1_555
C4 H3 1_555 1_555
C5 C4 1_555 1_555
H4 C5 1_555 1_555
C6 N2 1_555 1_555
N4 C7 1_555 1_555
C7 H5 1_555 1_555
C8 C7 1_555 1_555
H6 C8 1_555 1_555
C9 N2 1_555 1_555
C10 N3 1_555 1_555
H7 C10 1_555 1_555
C11 C6 1_555 1_555
H8 C11 1_555 1_555
C12 N4 1_555 1_555
H9 C12 1_555 1_555
C13 C9 1_555 1_555
H10 C13 1_555 1_555
C14 N1 1_555 1_555
H11 C14 1_555 1_555
C15 C3 1_555 1_555
H12 C15 1_555 1_555
Cu2_2 N3 1_555 1_555
Cu3_2 N4 1_555 1_555
N17 Cu2_2 1_555 1_555
N18 Cu1 1_555 1_555
N21 Cu3_2 1_555 1_555
C5 C6 1_555 1_555
C8 C9 1_555 1_555
C10 C11 1_555 1_555
C12 C13 1_555 1_555
C14 C15 1_555 1_555
N5 Cu1_2 1_555 1_555
N6 C18 1_555 1_555
C16 N5 1_555 1_555
H13 C16 1_555 1_555
C17 C16 1_555 1_555
H14 C17 1_555 1_555
C18 C17 1_555 1_555
N7 C19 1_555 1_555
C19 H15 1_555 1_555
C20 C19 1_555 1_555
H16 C20 1_555 1_555
C21 N6 1_555 1_555
N8 C22 1_555 1_555
C22 H17 1_555 1_555
C23 C22 1_555 1_555
H18 C23 1_555 1_555
C24 N6 1_555 1_555
C25 N7 1_555 1_555
H19 C25 1_555 1_555
C26 C21 1_555 1_555
H20 C26 1_555 1_555
C27 N8 1_555 1_555
H21 C27 1_555 1_555
C28 C24 1_555 1_555
H22 C28 1_555 1_555
C29 N5 1_555 1_555
H23 C29 1_555 1_555
C30 C18 1_555 1_555
H24 C30 1_555 1_555
Cu5 N7 1_555 1_555
Cu9_2 N8 1_555 1_555
N20 Cu1_2 1_555 1_555
C20 C21 1_555 1_555
C23 C24 1_555 1_555
C25 C26 1_555 1_555
C27 C28 1_555 1_555
C29 C30 1_555 1_555
N21_2 Cu9 1_555 1_555
N19_2 Cu9_2 1_555 1_555
N20_2 Cu5 1_555 1_555
N18_2 Cu5_2 1_555 1_555
N20_3 Cu7 1_555 1_555
N18_3 Cu7_2 1_555 1_555
N6_2 C18_2 1_555 1_555
C16_2 N20_3 1_555 1_555
H13_2 C16_2 1_555 1_555
C17_2 C16_2 1_555 1_555
H14_2 C17_2 1_555 1_555
C18_2 C17_2 1_555 1_555
N17 C19_2 1_555 1_555
C19_2 H15_2 1_555 1_555
C20_2 C19_2 1_555 1_555
H16_2 C20_2 1_555 1_555
C21_2 N6_2 1_555 1_555
N19 C22_2 1_555 1_555
C22_2 H17_2 1_555 1_555
C23_2 C22_2 1_555 1_555
H18_2 C23_2 1_555 1_555
C24_2 N6_2 1_555 1_555
C25_2 N17 1_555 1_555
H19_2 C25_2 1_555 1_555
C26_2 C21_2 1_555 1_555
H20_2 C26_2 1_555 1_555
C27_2 N19 1_555 1_555
H21_2 C27_2 1_555 1_555
C28_2 C24_2 1_555 1_555
H22_2 C28_2 1_555 1_555
C29_2 N20_3 1_555 1_555
H23_2 C29_2 1_555 1_555
C30_2 C18_2 1_555 1_555
H24_2 C30_2 1_555 1_555
C20_2 C21_2 1_555 1_555
C23_2 C24_2 1_555 1_555
C25_2 C26_2 1_555 1_555
C27_2 C28_2 1_555 1_555
C29_2 C30_2 1_555 1_555
N18_3 C1_2 1_555 1_555
N2_2 C3_2 1_555 1_555
C1_2 H1_2 1_555 1_555
C2_2 C1_2 1_555 1_555
H2_2 C2_2 1_555 1_555
C3_2 C2_2 1_555 1_555
N20_2 C4_2 1_555 1_555
C4_2 H3_2 1_555 1_555
C5_2 C4_2 1_555 1_555
H4_2 C5_2 1_555 1_555
C6_2 N2_2 1_555 1_555
N21_2 C7_2 1_555 1_555
C7_2 H5_2 1_555 1_555
C8_2 C7_2 1_555 1_555
H6_2 C8_2 1_555 1_555
C9_2 N2_2 1_555 1_555
C10_2 N20_2 1_555 1_555
H7_2 C10_2 1_555 1_555
C11_2 C6_2 1_555 1_555
H8_2 C11_2 1_555 1_555
C12_2 N21_2 1_555 1_555
H9_2 C12_2 1_555 1_555
C13_2 C9_2 1_555 1_555
H10_2 C13_2 1_555 1_555
C14_2 N18_3 1_555 1_555
H11_2 C14_2 1_555 1_555
C15_2 C3_2 1_555 1_555
H12_2 C15_2 1_555 1_555
C5_2 C6_2 1_555 1_555
C8_2 C9_2 1_555 1_555
C10_2 C11_2 1_555 1_555
C12_2 C13_2 1_555 1_555
C14_2 C15_2 1_555 1_555
N21 C46_2 1_555 1_555
N14_2 C48_2 1_555 1_555
C46_2 H37_2 1_555 1_555
C47_2 C46_2 1_555 1_555
H38_2 C47_2 1_555 1_555
C48_2 C47_2 1_555 1_555
C49_2 N18_2 1_555 1_555
H39_2 C49_2 1_555 1_555
C50_2 C49_2 1_555 1_555
H40_2 C50_2 1_555 1_555
C51_2 N14_2 1_555 1_555
N20 C52_2 1_555 1_555
C52_2 H41_2 1_555 1_555
C53_2 C52_2 1_555 1_555
H42_2 C53_2 1_555 1_555
C54_2 N14_2 1_555 1_555
C55_2 N18_2 1_555 1_555
H43_2 C55_2 1_555 1_555
C56_2 C51_2 1_555 1_555
H44_2 C56_2 1_555 1_555
C57_2 N20 1_555 1_555
H45_2 C57_2 1_555 1_555
C58_2 C54_2 1_555 1_555
H46_2 C58_2 1_555 1_555
C59_2 N21 1_555 1_555
H47_2 C59_2 1_555 1_555
C60_2 C48_2 1_555 1_555
H48_2 C60_2 1_555 1_555
C50_2 C51_2 1_555 1_555
C53_2 C54_2 1_555 1_555
C55_2 C56_2 1_555 1_555
C57_2 C58_2 1_555 1_555
C59_2 C60_2 1_555 1_555
N22 C31_2 1_555 1_555
N10_2 C33_2 1_555 1_555
C31_2 H25_2 1_555 1_555
C32_2 C31_2 1_555 1_555
H26_2 C32_2 1_555 1_555
C33_2 C32_2 1_555 1_555
N18 C34_2 1_555 1_555
C34_2 H27_2 1_555 1_555
C35_2 C34_2 1_555 1_555
H28_2 C35_2 1_555 1_555
C36_2 N10_2 1_555 1_555
C37_2 N19_2 1_555 1_555
H29_2 C37_2 1_555 1_555
C38_2 C37_2 1_555 1_555
H30_2 C38_2 1_555 1_555
C39_2 N10_2 1_555 1_555
C40_2 N18 1_555 1_555
H31_2 C40_2 1_555 1_555
C41_2 C36_2 1_555 1_555
H32_2 C41_2 1_555 1_555
C42_2 N19_2 1_555 1_555
H33_2 C42_2 1_555 1_555
C43_2 C39_2 1_555 1_555
H34_2 C43_2 1_555 1_555
C44_2 N22 1_555 1_555
H35_2 C44_2 1_555 1_555
C45_2 C33_2 1_555 1_555
H36_2 C45_2 1_555 1_555
C35_2 C36_2 1_555 1_555
C38_2 C39_2 1_555 1_555
C40_2 C41_2 1_555 1_555
C42_2 C43_2 1_555 1_555
C44_2 C45_2 1_555 1_555
Si1 F1 1_555 1_555
F2 Si1 1_555 1_555
F4 Si1 1_555 1_555
F5 Si1 1_555 1_555
F2_2 Si1_2 1_555 1_555
F3 Si1_2 1_555 1_555
F4_2 Si1_2 1_555 1_555
F6 Si1_2 1_555 1_555
Si1_3 F1_2 1_555 1_555
F3_2 Si1_3 1_555 1_555
F4_3 Si1_3 1_555 1_555
F4_4 Si1_4 1_555 1_555
F5_2 Si1_4 1_555 1_555
F6_2 Si1_4 1_555 1_555
Si1_5 F1_3 1_555 1_555
F2_3 Si1_5 1_555 1_555
F3_3 Si1_5 1_555 1_555
F2_4 Si1_6 1_555 1_555
F5_3 Si1_6 1_555 1_555
F6_3 Si1_6 1_555 1_555
F2_5 Si1_7 1_555 1_555
F5_4 Si1_7 1_555 1_555
F6_4 Si1_7 1_555 1_555
F4_5 Si1_8 1_555 1_555
F5_5 Si1_8 1_555 1_555
F6_5 Si1_8 1_555 1_555
Si1_9 F1_4 1_555 1_555
F2_6 Si1_9 1_555 1_555
F3_4 Si1_9 1_555 1_555
Si1_10 F1_5 1_555 1_555
F3_5 Si1_10 1_555 1_555
F4_6 Si1_10 1_555 1_555
Si1_11 F1_6 1_555 1_555
F2_7 Si1_11 1_555 1_555
F3_6 Si1_11 1_555 1_555
Si1_12 F1_7 1_555 1_555
F3_7 Si1_12 1_555 1_555
F4_7 Si1_12 1_555 1_555
F2_8 Si1_13 1_555 1_555
F5_6 Si1_13 1_555 1_555
F6_6 Si1_13 1_555 1_555
F4_8 Si1_14 1_555 1_555
F5_7 Si1_14 1_555 1_555
F6_7 Si1_14 1_555 1_555
Si1_15 F1_8 1_555 1_555
F2_9 Si1_15 1_555 1_555
F4_9 Si1_15 1_555 1_555
F5_8 Si1_15 1_555 1_555
F2_10 Si1_16 1_555 1_555
F3_8 Si1_16 1_555 1_555
F4_10 Si1_16 1_555 1_555
F6_8 Si1_16 1_555 1_555
Si1_17 F1_9 1_555 1_555
F2_11 Si1_17 1_555 1_555
F4_11 Si1_17 1_555 1_555
F5_9 Si1_17 1_555 1_555
F2_12 Si1_18 1_555 1_555
F3_9 Si1_18 1_555 1_555
F4_12 Si1_18 1_555 1_555
F6_9 Si1_18 1_555 1_555

#END
