
###############################################################################
#
# This file contains modified crystal structure data generated from the
# MOF subset of the Cambridge Structural Database (CSD) v543 
# hosted by the Cambridge Crystallographic Data Centre (CCDC).
#
# This work is licensed under the Creative Commons
# Attribution-NonCommercial-ShareAlike 4.0 International License.
# To view a copy of this license, visit
# http://creativecommons.org/licenses/by-nc-sa/4.0/
# or send a letter to
# Creative Commons, PO Box 1866, Mountain View, CA 94042, USA.
#
# CIF created using the CSD Python API on 29 September 2022
# The structure has been converted into the P1 space group
# The structure has a 3D framework
# The original CSD entry USOREC is in the orthorhombic crystal system
# The original CSD entry USOREC is in a Sohncke space group
# The framework has been calculated to contain at least 10.0% void space
# The void calculation uses a probe of radius 1.32A, grid spacing 0.4
#
###############################################################################

data_USOREC
_chemical_formula_moiety         '(C56 H60 Co5 N4 O32)n'
_symmetry_cell_setting           triclinic
_symmetry_space_group_name_H-M   'P 1'
_symmetry_Int_Tables_number      1
_space_group_name_Hall           'P 1'
loop_
_symmetry_equiv_pos_site_id
_symmetry_equiv_pos_as_xyz
1 x,y,z
_cell_length_a                   10.3388(2)
_cell_length_b                   11.7807(3)
_cell_length_c                   20.2710(5)
_cell_angle_alpha                90
_cell_angle_beta                 90
_cell_angle_gamma                90
_cell_volume                     2468.97
loop_
_atom_site_label
_atom_site_type_symbol
_atom_site_fract_x
_atom_site_fract_y
_atom_site_fract_z
Co4 Co 0.13763(10) 0.32590(10) 0.00453(7)
O10 O 0.1149(5) 0.1617(5) 0.9919(3)
O1 O 0.8348(5) 0.2262(4) 0.0006(3)
O2 O 0.6594(7) 0.0931(8) 0.0808(3)
O3 O 0.8694(8) 0.0334(8) 0.0804(4)
C1 C 0.7478(7) 0.0218(9) 0.1787(2)
C2 C 0.6327(6) 0.0407(8) 0.2123(3)
H1 H 0.5611 0.0691 0.1900
C3 C 0.6246(6) 0.0173(9) 0.2794(3)
H2 H 0.5475 0.0299 0.3019
C7 C 0.7593(11) 0.0515(13) 0.1083(5)
O5 O 0.6149(5) 0.3383(5) 0.0081(3)
C9 C 0.8479(7) 0.3271(8) 0.0135(4)
C10 C 0.7278(8) 0.3964(8) 0.0292(4)
H5 H 0.7331 0.4699 0.0067
O8 O 0.9503(5) 0.3820(6) 0.0150(3)
C11 C 0.7238(10) 0.4156(11) 0.1037(5)
H6 H 0.6619 0.4739 0.1138
H7 H 0.8078 0.4386 0.1189
H8 H 0.6991 0.3464 0.1254
Co6 Co 0.45310(11) 0.41811(11) 0.00088(9)
Co1 Co 0.63763(10) 0.17410(10) 0.99547(7)
Co2 Co 0.95310(11) 0.08189(11) 0.99912(9)
O9 O 0.6815(5) 0.0958(8) 0.9098(3)
O11 O 0.8805(7) 0.0310(8) 0.9137(4)
O12 O 0.4503(5) 0.1180(6) 0.9850(3)
C4 C 0.7316(7) 0.9749(9) 0.3128(2)
C5 C 0.8467(6) 0.9560(8) 0.2791(3)
H3 H 0.9183 0.9276 0.3015
C6 C 0.8548(6) 0.9795(9) 0.2121(3)
H4 H 0.9319 0.9668 0.1895
O4 O 0.8185(5) 0.9042(8) 0.4098(3)
C8 C 0.7230(10) 0.9475(13) 0.3850(5)
O6 O 0.6195(7) 0.9690(8) 0.4137(4)
H9 H 0.9409 0.8566 0.0554
H13 H 0.9912 0.6662 0.1057
H15 H 0.9287 0.6139 0.0422
Co3 Co 0.86237(10) 0.82590(10) 0.49547(7)
Co5 Co 0.54690(11) 0.91811(11) 0.49912(9)
Co6_2 Co 0.04690(11) 0.58189(11) 0.50088(9)
O12_2 O 0.0497(5) 0.8820(6) 0.4850(3)
C4_2 C 0.7684(7) 0.0251(9) 0.8128(2)
C5_2 C 0.6533(6) 0.0440(8) 0.7791(3)
H3_2 H 0.5817 0.0724 0.8015
C6_2 C 0.6452(6) 0.0205(9) 0.7121(3)
H4_2 H 0.5681 0.0332 0.6895
C8_2 C 0.7770(10) 0.0525(13) 0.8850(5)
O7 O 0.4551(8) 0.0805(7) 0.4984(6)
N1 N 0.4390(11) 0.2678(9) 0.5225(6)
C12 C 0.4903(13) 0.1551(10) 0.5266(7)
H9_2 H 0.5591 0.1434 0.5554
C13 C 0.3304(17) 0.2915(15) 0.4780(9)
H10 H 0.3625 0.3042 0.4342
H11 H 0.2852 0.3579 0.4929
H12 H 0.2723 0.2279 0.4777
C14 C 0.4920(18) 0.3602(12) 0.5617(9)
H13_2 H 0.5088 0.3338 0.6057
H14 H 0.4310 0.4216 0.5632
H15_2 H 0.5713 0.3861 0.5422
O1_2 O 0.6652(5) 0.7738(4) 0.5006(3)
O2_2 O 0.8406(7) 0.9069(8) 0.5808(3)
O3_2 O 0.6306(8) 0.9666(8) 0.5804(4)
C1_2 C 0.7522(7) 0.9782(9) 0.6787(2)
C2_2 C 0.8673(6) 0.9593(8) 0.7123(3)
H1_2 H 0.9389 0.9309 0.6900
C3_2 C 0.8754(6) 0.9827(9) 0.7794(3)
H2_2 H 0.9525 0.9701 0.8019
C7_2 C 0.7407(11) 0.9485(13) 0.6083(5)
O5_2 O 0.8851(5) 0.6617(5) 0.5081(3)
C9_2 C 0.6521(7) 0.6729(8) 0.5135(4)
C10_2 C 0.7722(8) 0.6036(8) 0.5292(4)
H5_2 H 0.7669 0.5301 0.5067
O8_2 O 0.5497(5) 0.6180(6) 0.5150(3)
C11_2 C 0.7762(10) 0.5844(11) 0.6037(5)
H6_2 H 0.8381 0.5261 0.6138
H7_2 H 0.6922 0.5614 0.6189
H8_2 H 0.8009 0.6536 0.6254
Co4_2 Co 0.36237(10) 0.67410(10) 0.50453(7)
O10_2 O 0.3851(5) 0.8383(5) 0.4919(3)
O7_2 O 0.5449(8) 0.5805(7) 0.0016(6)
C13_2 C 0.6696(17) 0.7915(15) 0.0220(9)
H10_2 H 0.6375 0.8042 0.0658
H11_2 H 0.7148 0.8579 0.0071
H12_2 H 0.7277 0.7279 0.0223
O9_2 O 0.1815(5) 0.4042(8) 0.0902(3)
O11_2 O 0.3805(7) 0.4690(8) 0.0863(4)
O1_3 O 0.3348(5) 0.2738(4) 0.9994(3)
O2_3 O 0.1594(7) 0.4069(8) 0.9192(3)
O3_3 O 0.3694(8) 0.4666(8) 0.9196(4)
C1_3 C 0.2478(7) 0.4782(9) 0.8213(2)
C2_3 C 0.1327(6) 0.4593(8) 0.7877(3)
H1_3 H 0.0611 0.4309 0.8100
C3_3 C 0.1246(6) 0.4827(9) 0.7206(3)
H2_3 H 0.0475 0.4701 0.6981
C4_3 C 0.2316(7) 0.5251(9) 0.6872(2)
C5_3 C 0.3467(6) 0.5440(8) 0.7209(3)
H3_3 H 0.4183 0.5724 0.6985
C6_3 C 0.3548(6) 0.5205(9) 0.7879(3)
H4_3 H 0.4319 0.5332 0.8105
C7_3 C 0.2593(11) 0.4485(13) 0.8917(5)
O4_2 O 0.3185(5) 0.5958(8) 0.5902(3)
C8_3 C 0.2230(10) 0.5525(13) 0.6150(5)
C9_3 C 0.3479(7) 0.1729(8) 0.9865(4)
O6_2 O 0.1195(7) 0.5310(8) 0.5863(4)
C10_3 C 0.2278(8) 0.1036(8) 0.9708(4)
H5_3 H 0.2331 0.0301 0.9933
N1_2 N 0.5610(11) 0.7678(9) 0.9775(6)
C11_3 C 0.2238(10) 0.0844(11) 0.8963(5)
H6_3 H 0.1619 0.0261 0.8862
H7_3 H 0.3078 0.0614 0.8811
H8_3 H 0.1991 0.1536 0.8746
C12_2 C 0.5097(13) 0.6551(10) 0.9734(7)
H9_3 H 0.4409 0.6434 0.9446
C14_2 C 0.5080(18) 0.8602(12) 0.9383(9)
H13_3 H 0.4912 0.8338 0.8943
H14_2 H 0.5690 0.9216 0.9368
H15_3 H 0.4287 0.8861 0.9578
O1_4 O 0.1652(5) 0.7262(4) 0.4994(3)
O2_4 O 0.3406(7) 0.5931(8) 0.4192(3)
O3_4 O 0.1306(8) 0.5334(8) 0.4196(4)
C1_4 C 0.2522(7) 0.5218(9) 0.3213(2)
C2_4 C 0.3673(6) 0.5407(8) 0.2877(3)
H1_4 H 0.4389 0.5691 0.3100
C3_4 C 0.3754(6) 0.5173(9) 0.2206(3)
H2_4 H 0.4525 0.5299 0.1981
C4_4 C 0.2684(7) 0.4749(9) 0.1872(2)
C5_4 C 0.1533(6) 0.4560(8) 0.2209(3)
H3_4 H 0.0817 0.4276 0.1985
C6_4 C 0.1452(6) 0.4795(9) 0.2879(3)
H4_4 H 0.0681 0.4668 0.3105
C7_4 C 0.2407(11) 0.5515(13) 0.3917(5)
C8_4 C 0.2770(10) 0.4475(13) 0.1150(5)
C9_4 C 0.1521(7) 0.8271(8) 0.4865(4)
C10_4 C 0.2722(8) 0.8964(8) 0.4708(4)
H5_4 H 0.2669 0.9699 0.4933
C11_4 C 0.2762(10) 0.9156(11) 0.3963(5)
H6_4 H 0.3381 0.9739 0.3862
H7_4 H 0.1922 0.9386 0.3811
H8_4 H 0.3009 0.8464 0.3746
H9_4 H 0.0591 0.3566 0.4446
H13_4 H 0.0088 0.1662 0.3943
H15_4 H 0.0713 0.1139 0.4578
O7_3 O 0.9551(8) 0.4195(7) 0.5016(6)
N1_3 N 0.9390(11) 0.2322(9) 0.4775(6)
C12_3 C 0.9903(13) 0.3449(10) 0.4734(7)
C13_3 C 0.8304(17) 0.2085(15) 0.5220(9)
H10_3 H 0.8625 0.1958 0.5658
H11_3 H 0.7852 0.1421 0.5071
H12_3 H 0.7723 0.2721 0.5223
C14_3 C 0.9920(18) 0.1398(12) 0.4383(9)
H14_3 H 0.9310 0.0784 0.4368
N1_4 N 0.0610(11) 0.7322(9) 0.0225(6)
C12_4 C 0.0097(13) 0.8449(10) 0.0266(7)
C14_4 C 0.0080(18) 0.6398(12) 0.0617(9)
H14_4 H 0.0690 0.5784 0.0632
O7_4 O 0.0449(8) 0.9195(7) 0.9984(6)
C13_4 C 0.1696(17) 0.7085(15) 0.9780(9)
H10_4 H 0.1375 0.6958 0.9342
H11_4 H 0.2148 0.6421 0.9929
H12_4 H 0.2277 0.7721 0.9777
loop_
_geom_bond_atom_site_label_1
_geom_bond_atom_site_label_2
_geom_bond_site_symmetry_1
_geom_bond_site_symmetry_2
O1 C9 1_555 1_555
C1 C2 1_555 1_555
C2 H1 1_555 1_555
C3 C2 1_555 1_555
H2 C3 1_555 1_555
C7 O2 1_555 1_555
C9 C10 1_555 1_555
C10 O5 1_555 1_555
H5 C10 1_555 1_555
O8 C9 1_555 1_555
C11 C10 1_555 1_555
H6 C11 1_555 1_555
H7 C11 1_555 1_555
H8 C11 1_555 1_555
Co6 O5 1_555 1_555
O3 C7 1_555 1_555
C1 C7 1_555 1_555
O9 Co1 1_555 1_555
O11 Co2 1_555 1_555
O12 Co1 1_555 1_555
C5 C4 1_555 1_555
H3 C5 1_555 1_555
H4 C6 1_555 1_555
O4 C8 1_555 1_555
C8 C4 1_555 1_555
O6 C8 1_555 1_555
Co3 O4 1_555 1_555
Co5 O6 1_555 1_555
C5 C6 1_555 1_555
C5_2 C4_2 1_555 1_555
H3_2 C5_2 1_555 1_555
H4_2 C6_2 1_555 1_555
O9 C8_2 1_555 1_555
C8_2 C4_2 1_555 1_555
O11 C8_2 1_555 1_555
N1 C12 1_555 1_555
C12 O7 1_555 1_555
H9_2 C12 1_555 1_555
C13 N1 1_555 1_555
H10 C13 1_555 1_555
H11 C13 1_555 1_555
H12 C13 1_555 1_555
C14 N1 1_555 1_555
H13_2 C14 1_555 1_555
H14 C14 1_555 1_555
H15_2 C14 1_555 1_555
C5_2 C6_2 1_555 1_555
Co3 O1_2 1_555 1_555
Co5 O1_2 1_555 1_555
O1_2 C9_2 1_555 1_555
O2_2 Co3 1_555 1_555
O3_2 Co5 1_555 1_555
C1_2 C2_2 1_555 1_555
C2_2 H1_2 1_555 1_555
C3_2 C2_2 1_555 1_555
H2_2 C3_2 1_555 1_555
C7_2 O2_2 1_555 1_555
O5_2 Co3 1_555 1_555
C9_2 C10_2 1_555 1_555
C10_2 O5_2 1_555 1_555
H5_2 C10_2 1_555 1_555
O8_2 C9_2 1_555 1_555
C11_2 C10_2 1_555 1_555
H6_2 C11_2 1_555 1_555
H7_2 C11_2 1_555 1_555
H8_2 C11_2 1_555 1_555
Co4_2 O8_2 1_555 1_555
O10_2 Co5 1_555 1_555
O3_2 C7_2 1_555 1_555
C1_2 C7_2 1_555 1_555
Co4_2 O10_2 1_555 1_555
O7_2 Co6 1_555 1_555
H10_2 C13_2 1_555 1_555
H11_2 C13_2 1_555 1_555
H12_2 C13_2 1_555 1_555
O9_2 Co4 1_555 1_555
O11_2 Co6 1_555 1_555
O1_3 C9_3 1_555 1_555
C1_3 C2_3 1_555 1_555
C2_3 H1_3 1_555 1_555
C3_3 C2_3 1_555 1_555
H2_3 C3_3 1_555 1_555
C4_3 C3_3 1_555 1_555
C5_3 C4_3 1_555 1_555
H3_3 C5_3 1_555 1_555
C6_3 C1_3 1_555 1_555
H4_3 C6_3 1_555 1_555
C7_3 O2_3 1_555 1_555
O4_2 C8_3 1_555 1_555
C8_3 C4_3 1_555 1_555
C9_3 C10_3 1_555 1_555
O6_2 C8_3 1_555 1_555
C10_3 O10 1_555 1_555
H5_3 C10_3 1_555 1_555
O12 C9_3 1_555 1_555
N1_2 C12_2 1_555 1_555
C11_3 C10_3 1_555 1_555
H6_3 C11_3 1_555 1_555
H7_3 C11_3 1_555 1_555
H8_3 C11_3 1_555 1_555
H9_3 C12_2 1_555 1_555
C14_2 N1_2 1_555 1_555
H13_3 C14_2 1_555 1_555
H14_2 C14_2 1_555 1_555
H15_3 C14_2 1_555 1_555
Co4_2 O4_2 1_555 1_555
Co6_2 O6_2 1_555 1_555
O3_3 C7_3 1_555 1_555
C1_3 C7_3 1_555 1_555
C5_3 C6_3 1_555 1_555
Co4_2 O1_4 1_555 1_555
Co6_2 O1_4 1_555 1_555
O1_4 C9_4 1_555 1_555
O2_4 Co4_2 1_555 1_555
O3_4 Co6_2 1_555 1_555
C1_4 C2_4 1_555 1_555
C2_4 H1_4 1_555 1_555
C3_4 C2_4 1_555 1_555
H2_4 C3_4 1_555 1_555
C4_4 C3_4 1_555 1_555
C5_4 C4_4 1_555 1_555
H3_4 C5_4 1_555 1_555
C6_4 C1_4 1_555 1_555
H4_4 C6_4 1_555 1_555
C7_4 O2_4 1_555 1_555
O9_2 C8_4 1_555 1_555
C8_4 C4_4 1_555 1_555
C9_4 C10_4 1_555 1_555
O11_2 C8_4 1_555 1_555
C10_4 O10_2 1_555 1_555
H5_4 C10_4 1_555 1_555
O12_2 C9_4 1_555 1_555
C11_4 C10_4 1_555 1_555
H6_4 C11_4 1_555 1_555
H7_4 C11_4 1_555 1_555
H8_4 C11_4 1_555 1_555
O3_4 C7_4 1_555 1_555
C1_4 C7_4 1_555 1_555
C5_4 C6_4 1_555 1_555
N1_3 C12_3 1_555 1_555
C12_3 O7_3 1_555 1_555
C13_3 N1_3 1_555 1_555
H10_3 C13_3 1_555 1_555
H11_3 C13_3 1_555 1_555
H12_3 C13_3 1_555 1_555
C14_3 N1_3 1_555 1_555
H14_3 C14_3 1_555 1_555
N1_4 C12_4 1_555 1_555
C14_4 N1_4 1_555 1_555
H14_4 C14_4 1_555 1_555
H10_4 C13_4 1_555 1_555
H11_4 C13_4 1_555 1_555
H12_4 C13_4 1_555 1_555

#END
