
###############################################################################
#
# This file contains modified crystal structure data generated from the
# MOF subset of the Cambridge Structural Database (CSD) v543 
# hosted by the Cambridge Crystallographic Data Centre (CCDC).
#
# This work is licensed under the Creative Commons
# Attribution-NonCommercial-ShareAlike 4.0 International License.
# To view a copy of this license, visit
# http://creativecommons.org/licenses/by-nc-sa/4.0/
# or send a letter to
# Creative Commons, PO Box 1866, Mountain View, CA 94042, USA.
#
# CIF created using the CSD Python API on 29 September 2022
# The structure has been converted into the P1 space group
# The structure has a 3D framework
# The original CSD entry USORUR is in the monoclinic crystal system
# The framework has been calculated to contain at least 10.0% void space
# The void calculation uses a probe of radius 1.32A, grid spacing 0.4
# H atom positions have been added when not included in the experimental data
#
###############################################################################

data_USORUR
_chemical_formula_moiety         '(C128 H112 N4 O46 Zn8)n'
_symmetry_cell_setting           triclinic
_symmetry_space_group_name_H-M   'P 1'
_symmetry_Int_Tables_number      1
_space_group_name_Hall           'P 1'
loop_
_symmetry_equiv_pos_site_id
_symmetry_equiv_pos_as_xyz
1 x,y,z
_cell_length_a                   12.2813(2)
_cell_length_b                   27.3205(4)
_cell_length_c                   16.4650(2)
_cell_angle_alpha                90
_cell_angle_beta                 102.8630(10)
_cell_angle_gamma                90
_cell_volume                     5385.89
loop_
_atom_site_label
_atom_site_type_symbol
_atom_site_fract_x
_atom_site_fract_y
_atom_site_fract_z
Zn3 Zn 0.05712(5) 0.55143(2) 0.00272(4)
Zn5 Zn 0.23132(5) 0.46497(2) 0.01287(4)
C1 C 0.2728(4) 0.55537(18) 0.9348(3)
C2 C 0.3341(4) 0.58394(18) 0.8810(3)
C3 C 0.4400(4) 0.56984(19) 0.8737(3)
H1 H 0.4752 0.5425 0.9044
C4 C 0.4947(4) 0.59529(19) 0.8217(3)
H2 H 0.5672 0.5857 0.8167
C5 C 0.4419(4) 0.63484(18) 0.7776(3)
C6 C 0.3382(4) 0.6504(2) 0.7856(3)
H3 H 0.3041 0.6781 0.7556
C7 C 0.2841(4) 0.6249(2) 0.8379(3)
H4 H 0.2128 0.6355 0.8444
C8 C 0.2305(4) 0.51046(18) 0.1627(3)
C9 C 0.2616(4) 0.51853(19) 0.2552(3)
C10 C 0.3547(5) 0.4955(2) 0.3049(3)
H5 H 0.3983 0.4735 0.2806
C11 C 0.3833(5) 0.5050(2) 0.3897(3)
H6 H 0.4466 0.4896 0.4238
C12 C 0.3193(5) 0.5366(2) 0.4239(3)
C13 C 0.2274(6) 0.5588(2) 0.3772(4)
H7 H 0.1835 0.5801 0.4025
C14 C 0.1986(5) 0.5501(2) 0.2920(4)
H8 H 0.1351 0.5658 0.2588
C15 C 0.7573(4) 0.8662(2) 0.5365(3)
C16 C 0.7087(4) 0.81572(19) 0.5165(3)
C17 C 0.5998(5) 0.8099(2) 0.4713(3)
H9 H 0.5549 0.8378 0.4529
C18 C 0.5566(5) 0.7633(2) 0.4529(3)
H10 H 0.4815 0.7592 0.4231
C19 C 0.6223(6) 0.7236(2) 0.4779(3)
C20 C 0.7320(6) 0.7287(2) 0.5220(4)
H11 H 0.7776 0.7007 0.5377
C21 C 0.7741(5) 0.7753(2) 0.5427(4)
H12 H 0.8479 0.7793 0.5750
C22 C 0.4833(4) 0.64285(18) 0.6447(3)
C23 C 0.4207(4) 0.60183(19) 0.6164(3)
H13 H 0.3844 0.5838 0.6521
C24 C 0.4122(4) 0.58762(19) 0.5340(3)
C25 C 0.4650(5) 0.61297(19) 0.4811(3)
H14 H 0.4589 0.6028 0.4251
C26 C 0.5276(5) 0.65396(18) 0.5129(3)
C27 C 0.5370(5) 0.66985(18) 0.5935(3)
H15 H 0.5788 0.6983 0.6135
O1 O 0.1870(3) 0.57485(13) 0.9502(2)
O2 O 0.0484(3) 0.62252(13) 0.0513(2)
O3 O 0.3127(3) 0.51418(13) 0.9596(2)
O4 O 0.4961(3) 0.66070(13) 0.7246(2)
O5 O 0.1549(3) 0.53653(13) 0.1219(2)
O6 O 0.2842(3) 0.47794(13) 0.1334(2)
O7 O 0.3491(4) 0.54615(15) 0.5101(2)
O8 O 0.8454(3) 0.87044(15) 0.5897(2)
O9 O 0.7029(3) 0.90107(13) 0.4951(2)
O10 O 0.5796(4) 0.67666(15) 0.4570(2)
Zn6 Zn 0.76868(5) 0.96497(2) 0.48713(4)
O15 O 0.2971(3) 0.40107(13) 0.0049(2)
H27 H 0.124886 0.636274 0.0687901
H28 H 0.00275313 0.643797 0.00781789
H16 H 0.0215 0.5707 0.8155
O11 O 0.0773(3) 0.47940(12) 0.96065(18)
Zn1 Zn 0.94288(5) 0.05143(2) 0.49728(4)
C8_2 C 0.7695(4) 0.01046(18) 0.3373(3)
C9_2 C 0.7384(4) 0.01853(19) 0.2448(3)
C11_2 C 0.6167(5) 0.0050(2) 0.1103(3)
C12_2 C 0.6807(5) 0.0366(2) 0.0761(3)
C13_2 C 0.7726(6) 0.0588(2) 0.1228(4)
H7_2 H 0.8165 0.0801 0.0975
C14_2 C 0.8014(5) 0.0501(2) 0.2080(4)
H8_2 H 0.8649 0.0658 0.2412
C17_2 C 0.4002(5) 0.3099(2) 0.0287(3)
H9_2 H 0.4451 0.3378 0.0471
C18_2 C 0.4434(5) 0.2633(2) 0.0471(3)
H10_2 H 0.5185 0.2592 0.0769
C19_2 C 0.3777(6) 0.2236(2) 0.0221(3)
C25_2 C 0.5350(5) 0.11297(19) 0.0189(3)
H14_2 H 0.5411 0.1028 0.0749
H16_2 H 0.9785 0.0707 0.6845
O2_2 O 0.9516(3) 0.12252(13) 0.4487(2)
O5_2 O 0.8451(3) 0.03653(13) 0.3781(2)
O10_2 O 0.4204(4) 0.17666(15) 0.0430(2)
O13 O 0.8130(3) 0.07485(13) 0.5498(2)
O14 O 0.6873(3) 0.01418(13) 0.5404(2)
H27_2 H 0.875114 0.136274 0.43121
H28_2 H 0.997247 0.143797 0.492182
C1_2 C 0.7272(4) 0.05537(18) 0.5652(3)
C2_2 C 0.6659(4) 0.08394(18) 0.6190(3)
C3_2 C 0.5600(4) 0.06984(19) 0.6263(3)
H1_2 H 0.5248 0.0425 0.5956
C4_2 C 0.5053(4) 0.09529(19) 0.6783(3)
H2_2 H 0.4328 0.0857 0.6833
C5_2 C 0.5581(4) 0.13484(18) 0.7224(3)
C6_2 C 0.6618(4) 0.1504(2) 0.7144(3)
H3_2 H 0.6959 0.1781 0.7444
C7_2 C 0.7159(4) 0.1249(2) 0.6621(3)
H4_2 H 0.7872 0.1355 0.6556
C15_2 C 0.2427(4) 0.3662(2) 0.9635(3)
C16_2 C 0.2913(4) 0.31572(19) 0.9835(3)
C20_2 C 0.2680(6) 0.2287(2) 0.9780(4)
H11_2 H 0.2224 0.2007 0.9623
C21_2 C 0.2259(5) 0.2753(2) 0.9573(4)
H12_2 H 0.1521 0.2793 0.9250
C22_2 C 0.5167(4) 0.14285(18) 0.8553(3)
C23_2 C 0.5793(4) 0.10183(19) 0.8836(3)
H13_2 H 0.6156 0.0838 0.8479
C24_2 C 0.5878(4) 0.08762(19) 0.9660(3)
C26_2 C 0.4724(5) 0.15396(18) 0.9871(3)
C27_2 C 0.4630(5) 0.16985(18) 0.9065(3)
H15_2 H 0.4212 0.1983 0.8865
O4_2 O 0.5039(3) 0.16070(13) 0.7754(2)
O7_2 O 0.6509(4) 0.04615(15) 0.9899(2)
O8_2 O 0.1546(3) 0.37044(15) 0.9103(2)
C10_2 C 0.6453(5) 0.9955(2) 0.1951(3)
H5_2 H 0.6017 0.9735 0.2194
H6_2 H 0.5534 0.9896 0.0762
O6_2 O 0.7158(3) 0.97794(13) 0.3666(2)
O11_2 O 0.9227(3) 0.97940(12) 0.53935(18)
C28 C 0.0435(4) 0.4153(2) 0.1716(3)
C29 C 0.0842(6) 0.3812(3) 0.3122(4)
H17 H 0.0060 0.3915 0.3092
H18 H 0.0893 0.3458 0.3249
C30 C 0.1589(7) 0.4083(3) 0.3818(4)
H19 H 0.1365 0.4013 0.4341
H20 H 0.1530 0.4435 0.3705
H21 H 0.2363 0.3977 0.3863
C31 C 0.2120(6) 0.3659(3) 0.2138(5)
H22 H 0.2350 0.3836 0.1679
H23 H 0.2733 0.3689 0.2640
C32 C 0.1964(11) 0.3139(4) 0.1913(8)
H24 H 0.2662 0.3006 0.1811
H25 H 0.1371 0.3106 0.1407
H26 H 0.1754 0.2959 0.2370
N1 N 0.1108(4) 0.38920(19) 0.2303(3)
O12 O 0.0604(3) 0.42239(14) 0.1016(2)
C28_2 C 0.9565(4) 0.9153(2) 0.3284(3)
C29_2 C 0.9158(6) 0.8812(3) 0.1878(4)
H17_2 H 0.9940 0.8915 0.1908
H18_2 H 0.9107 0.8458 0.1751
C30_2 C 0.8411(7) 0.9083(3) 0.1182(4)
H19_2 H 0.8635 0.9013 0.0659
H20_2 H 0.8470 0.9435 0.1295
H21_2 H 0.7637 0.8977 0.1137
C31_2 C 0.7880(6) 0.8659(3) 0.2862(5)
H22_2 H 0.7650 0.8836 0.3321
H23_2 H 0.7267 0.8689 0.2360
C32_2 C 0.8036(11) 0.8139(4) 0.3087(8)
H24_2 H 0.7338 0.8006 0.3189
H25_2 H 0.8629 0.8106 0.3593
H26_2 H 0.8246 0.7959 0.2630
N1_2 N 0.8892(4) 0.88920(19) 0.2697(3)
O12_2 O 0.9396(3) 0.92239(14) 0.3984(2)
O16 O 0.9227(3) 0.52060(12) 0.03935(18)
C28_3 C 0.9565(4) 0.5847(2) 0.8284(3)
C29_3 C 0.9158(6) 0.6188(3) 0.6878(4)
H17_3 H 0.9940 0.6085 0.6908
H18_3 H 0.9107 0.6542 0.6751
C30_3 C 0.8411(7) 0.5917(3) 0.6182(4)
H19_3 H 0.8635 0.5987 0.5659
H20_3 H 0.8470 0.5565 0.6295
H21_3 H 0.7637 0.6023 0.6137
C31_3 C 0.7880(6) 0.6341(3) 0.7862(5)
H22_3 H 0.7650 0.6164 0.8321
H23_3 H 0.7267 0.6311 0.7360
C32_3 C 0.8036(11) 0.6861(4) 0.8087(8)
H24_3 H 0.7338 0.6994 0.8189
H25_3 H 0.8629 0.6894 0.8593
H26_3 H 0.8246 0.7041 0.7630
N1_3 N 0.8892(4) 0.61080(19) 0.7697(3)
O12_3 O 0.9396(3) 0.57761(14) 0.8984(2)
Zn4 Zn 0.94288(5) 0.44857(2) 0.99728(4)
C28_4 C 0.0435(4) 0.0847(2) 0.6716(3)
C29_4 C 0.0842(6) 0.1188(3) 0.8122(4)
H17_4 H 0.0060 0.1085 0.8092
H18_4 H 0.0893 0.1542 0.8249
C30_4 C 0.1589(7) 0.0917(3) 0.8818(4)
H19_4 H 0.1365 0.0987 0.9341
H20_4 H 0.1530 0.0565 0.8705
H21_4 H 0.2363 0.1023 0.8863
C31_4 C 0.2120(6) 0.1341(3) 0.7138(5)
H22_4 H 0.2350 0.1164 0.6679
H23_4 H 0.2733 0.1311 0.7640
C32_4 C 0.1964(11) 0.1861(4) 0.6913(8)
H24_4 H 0.2662 0.1994 0.6811
H25_4 H 0.1371 0.1894 0.6407
H26_4 H 0.1754 0.2041 0.7370
N1_4 N 0.1108(4) 0.11080(19) 0.7303(3)
O12_4 O 0.0604(3) 0.07761(14) 0.6016(2)
O16_2 O 0.0773(3) 0.02060(12) 0.46065(18)
Zn4_2 Zn 0.05712(5) 0.94857(2) 0.50272(4)
H16_3 H 0.9785 0.4293 0.1845
O13_2 O 0.8130(3) 0.42515(13) 0.0498(2)
O14_2 O 0.6873(3) 0.48582(13) 0.0404(2)
Zn2 Zn 0.76868(5) 0.53503(2) 0.98713(4)
C1_3 C 0.7272(4) 0.44463(18) 0.0652(3)
C2_3 C 0.6659(4) 0.41606(18) 0.1190(3)
C3_3 C 0.5600(4) 0.43016(19) 0.1263(3)
H1_3 H 0.5248 0.4575 0.0956
C4_3 C 0.5053(4) 0.40471(19) 0.1783(3)
H2_3 H 0.4328 0.4143 0.1833
C5_3 C 0.5581(4) 0.36516(18) 0.2224(3)
C6_3 C 0.6618(4) 0.3496(2) 0.2144(3)
H3_3 H 0.6959 0.3219 0.2444
C7_3 C 0.7159(4) 0.3751(2) 0.1621(3)
H4_3 H 0.7872 0.3645 0.1556
C8_3 C 0.7695(4) 0.48954(18) 0.8373(3)
C9_3 C 0.7384(4) 0.48147(19) 0.7448(3)
C10_3 C 0.6453(5) 0.5045(2) 0.6951(3)
H5_3 H 0.6017 0.5265 0.7194
C11_3 C 0.6167(5) 0.4950(2) 0.6103(3)
H6_3 H 0.5534 0.5104 0.5762
C12_3 C 0.6807(5) 0.4634(2) 0.5761(3)
C13_3 C 0.7726(6) 0.4412(2) 0.6228(4)
H7_3 H 0.8165 0.4199 0.5975
C14_3 C 0.8014(5) 0.4499(2) 0.7080(4)
H8_3 H 0.8649 0.4342 0.7412
C15_3 C 0.2427(4) 0.1338(2) 0.4635(3)
C16_3 C 0.2913(4) 0.18428(19) 0.4835(3)
C17_3 C 0.4002(5) 0.1901(2) 0.5287(3)
H9_3 H 0.4451 0.1622 0.5471
C18_3 C 0.4434(5) 0.2367(2) 0.5471(3)
H10_3 H 0.5185 0.2408 0.5769
C19_3 C 0.3777(6) 0.2764(2) 0.5221(3)
C20_3 C 0.2680(6) 0.2713(2) 0.4780(4)
H11_3 H 0.2224 0.2993 0.4623
C21_3 C 0.2259(5) 0.2247(2) 0.4573(4)
H12_3 H 0.1521 0.2207 0.4250
C22_3 C 0.5167(4) 0.35715(18) 0.3553(3)
C23_3 C 0.5793(4) 0.39817(19) 0.3836(3)
H13_3 H 0.6156 0.4162 0.3479
C24_3 C 0.5878(4) 0.41238(19) 0.4660(3)
C25_3 C 0.5350(5) 0.38703(19) 0.5189(3)
H14_3 H 0.5411 0.3972 0.5749
C26_3 C 0.4724(5) 0.34604(18) 0.4871(3)
C27_3 C 0.4630(5) 0.33015(18) 0.4065(3)
H15_3 H 0.4212 0.3017 0.3865
O2_3 O 0.9516(3) 0.37748(13) 0.9487(2)
O4_3 O 0.5039(3) 0.33930(13) 0.2754(2)
O5_3 O 0.8451(3) 0.46347(13) 0.8781(2)
O6_3 O 0.7158(3) 0.52206(13) 0.8666(2)
O7_3 O 0.6509(4) 0.45385(15) 0.4899(2)
O8_3 O 0.1546(3) 0.12956(15) 0.4103(2)
O9_2 O 0.2971(3) 0.09893(13) 0.5049(2)
O10_3 O 0.4204(4) 0.32334(15) 0.5430(2)
Zn6_2 Zn 0.23132(5) 0.03503(2) 0.51287(4)
O15_2 O 0.7029(3) 0.59893(13) 0.9951(2)
H27_3 H 0.875114 0.363726 0.93121
H28_3 H 0.997247 0.356203 0.992182
C10_4 C 0.3547(5) 0.0045(2) 0.8049(3)
H5_4 H 0.3983 0.0265 0.7806
H6_4 H 0.4466 0.0104 0.9238
O6_4 O 0.2842(3) 0.02206(13) 0.6334(2)
C1_4 C 0.2728(4) 0.94463(18) 0.4348(3)
C2_4 C 0.3341(4) 0.91606(18) 0.3810(3)
C3_4 C 0.4400(4) 0.93016(19) 0.3737(3)
H1_4 H 0.4752 0.9575 0.4044
C4_4 C 0.4947(4) 0.90471(19) 0.3217(3)
H2_4 H 0.5672 0.9143 0.3167
C5_4 C 0.4419(4) 0.86516(18) 0.2776(3)
C6_4 C 0.3382(4) 0.8496(2) 0.2856(3)
H3_4 H 0.3041 0.8219 0.2556
C7_4 C 0.2841(4) 0.8751(2) 0.3379(3)
H4_4 H 0.2128 0.8645 0.3444
C15_4 C 0.7573(4) 0.6338(2) 0.0365(3)
C16_4 C 0.7087(4) 0.68428(19) 0.0165(3)
C20_4 C 0.7320(6) 0.7713(2) 0.0220(4)
H11_4 H 0.7776 0.7993 0.0377
C21_4 C 0.7741(5) 0.7247(2) 0.0427(4)
H12_4 H 0.8479 0.7207 0.0750
C22_4 C 0.4833(4) 0.85715(18) 0.1447(3)
C23_4 C 0.4207(4) 0.89817(19) 0.1164(3)
H13_4 H 0.3844 0.9162 0.1521
C24_4 C 0.4122(4) 0.91238(19) 0.0340(3)
C26_4 C 0.5276(5) 0.84604(18) 0.0129(3)
C27_4 C 0.5370(5) 0.83015(18) 0.0935(3)
H15_4 H 0.5788 0.8017 0.1135
O1_2 O 0.1870(3) 0.92515(13) 0.4502(2)
O3_2 O 0.3127(3) 0.98582(13) 0.4596(2)
O4_4 O 0.4961(3) 0.83930(13) 0.2246(2)
O7_4 O 0.3491(4) 0.95385(15) 0.0101(2)
O8_4 O 0.8454(3) 0.62956(15) 0.0897(2)
C8_4 C 0.2305(4) 0.98954(18) 0.6627(3)
C9_4 C 0.2616(4) 0.98147(19) 0.7552(3)
C11_4 C 0.3833(5) 0.9950(2) 0.8897(3)
C12_4 C 0.3193(5) 0.9634(2) 0.9239(3)
C13_4 C 0.2274(6) 0.9412(2) 0.8772(4)
H7_4 H 0.1835 0.9199 0.9025
C14_4 C 0.1986(5) 0.9499(2) 0.7920(4)
H8_4 H 0.1351 0.9342 0.7588
C17_4 C 0.5998(5) 0.6901(2) 0.9713(3)
H9_4 H 0.5549 0.6622 0.9529
C18_4 C 0.5566(5) 0.7367(2) 0.9529(3)
H10_4 H 0.4815 0.7408 0.9231
C19_4 C 0.6223(6) 0.7764(2) 0.9779(3)
C25_4 C 0.4650(5) 0.88703(19) 0.9811(3)
H14_4 H 0.4589 0.8972 0.9251
H16_4 H 0.0215 0.9293 0.3155
O2_4 O 0.0484(3) 0.87748(13) 0.5513(2)
O5_4 O 0.1549(3) 0.96347(13) 0.6219(2)
O10_4 O 0.5796(4) 0.82334(15) 0.9570(2)
H27_4 H 0.124886 0.863726 0.56879
H28_4 H 0.00275313 0.856203 0.507818
loop_
_geom_bond_atom_site_label_1
_geom_bond_atom_site_label_2
_geom_bond_site_symmetry_1
_geom_bond_site_symmetry_2
Zn3 O2 1_555 1_555
Zn5 O6 1_555 1_555
C1 C2 1_555 1_555
C2 C3 1_555 1_555
C3 H1 1_555 1_555
C4 C3 1_555 1_555
H2 C4 1_555 1_555
C5 C4 1_555 1_555
C6 C5 1_555 1_555
H3 C6 1_555 1_555
C7 C2 1_555 1_555
H4 C7 1_555 1_555
C8 C9 1_555 1_555
C9 C10 1_555 1_555
C10 H5 1_555 1_555
C11 C10 1_555 1_555
H6 C11 1_555 1_555
C12 C11 1_555 1_555
C13 C12 1_555 1_555
H7 C13 1_555 1_555
C14 C9 1_555 1_555
H8 C14 1_555 1_555
C15 C16 1_555 1_555
C16 C17 1_555 1_555
C17 H9 1_555 1_555
C18 C17 1_555 1_555
H10 C18 1_555 1_555
C19 C18 1_555 1_555
C20 C19 1_555 1_555
H11 C20 1_555 1_555
C21 C16 1_555 1_555
H12 C21 1_555 1_555
C22 C23 1_555 1_555
C23 H13 1_555 1_555
C24 C23 1_555 1_555
C25 C24 1_555 1_555
H14 C25 1_555 1_555
C26 C25 1_555 1_555
C27 C22 1_555 1_555
H15 C27 1_555 1_555
O1 C1 1_555 1_555
O3 C1 1_555 1_555
O4 C5 1_555 1_555
O5 Zn3 1_555 1_555
O6 C8 1_555 1_555
O7 C12 1_555 1_555
O8 C15 1_555 1_555
O9 C15 1_555 1_555
O10 C19 1_555 1_555
Zn6 O9 1_555 1_555
O15 Zn5 1_555 1_555
C6 C7 1_555 1_555
C8 O5 1_555 1_555
C13 C14 1_555 1_555
C20 C21 1_555 1_555
C22 O4 1_555 1_555
C24 O7 1_555 1_555
C26 C27 1_555 1_555
C26 O10 1_555 1_555
O2 H27 1_555 1_555
O2 H28 1_555 1_555
Zn1 O2_2 1_555 1_555
C8_2 C9_2 1_555 1_555
C12_2 C11_2 1_555 1_555
C13_2 C12_2 1_555 1_555
H7_2 C13_2 1_555 1_555
C14_2 C9_2 1_555 1_555
H8_2 C14_2 1_555 1_555
C17_2 H9_2 1_555 1_555
C18_2 C17_2 1_555 1_555
H10_2 C18_2 1_555 1_555
C19_2 C18_2 1_555 1_555
H14_2 C25_2 1_555 1_555
O5_2 Zn1 1_555 1_555
O10_2 C19_2 1_555 1_555
O13 Zn1 1_555 1_555
C8_2 O5_2 1_555 1_555
C13_2 C14_2 1_555 1_555
O2_2 H27_2 1_555 1_555
O2_2 H28_2 1_555 1_555
C1_2 C2_2 1_555 1_555
C2_2 C3_2 1_555 1_555
C3_2 H1_2 1_555 1_555
C4_2 C3_2 1_555 1_555
H2_2 C4_2 1_555 1_555
C5_2 C4_2 1_555 1_555
C6_2 C5_2 1_555 1_555
H3_2 C6_2 1_555 1_555
C7_2 C2_2 1_555 1_555
H4_2 C7_2 1_555 1_555
C15_2 C16_2 1_555 1_555
H11_2 C20_2 1_555 1_555
C21_2 C16_2 1_555 1_555
H12_2 C21_2 1_555 1_555
C22_2 C23_2 1_555 1_555
C23_2 H13_2 1_555 1_555
C24_2 C23_2 1_555 1_555
C27_2 C22_2 1_555 1_555
H15_2 C27_2 1_555 1_555
O13 C1_2 1_555 1_555
O14 C1_2 1_555 1_555
O4_2 C5_2 1_555 1_555
O8_2 C15_2 1_555 1_555
C6_2 C7_2 1_555 1_555
C20_2 C21_2 1_555 1_555
C22_2 O4_2 1_555 1_555
C24_2 O7_2 1_555 1_555
C26_2 C27_2 1_555 1_555
Zn6 O6_2 1_555 1_555
C10_2 H5_2 1_555 1_555
Zn6 O11_2 1_555 1_555
C29 H17 1_555 1_555
H18 C29 1_555 1_555
C30 C29 1_555 1_555
H19 C30 1_555 1_555
H20 C30 1_555 1_555
H21 C30 1_555 1_555
C31 H22 1_555 1_555
H23 C31 1_555 1_555
C32 C31 1_555 1_555
H24 C32 1_555 1_555
H25 C32 1_555 1_555
H26 C32 1_555 1_555
N1 C28 1_555 1_555
C28 O12 1_555 1_555
C29 N1 1_555 1_555
C31 N1 1_555 1_555
C29_2 H17_2 1_555 1_555
H18_2 C29_2 1_555 1_555
C30_2 C29_2 1_555 1_555
H19_2 C30_2 1_555 1_555
H20_2 C30_2 1_555 1_555
H21_2 C30_2 1_555 1_555
C31_2 H22_2 1_555 1_555
H23_2 C31_2 1_555 1_555
C32_2 C31_2 1_555 1_555
H24_2 C32_2 1_555 1_555
H25_2 C32_2 1_555 1_555
H26_2 C32_2 1_555 1_555
N1_2 C28_2 1_555 1_555
C28_2 O12_2 1_555 1_555
C29_2 N1_2 1_555 1_555
C31_2 N1_2 1_555 1_555
C29_3 H17_3 1_555 1_555
H18_3 C29_3 1_555 1_555
C30_3 C29_3 1_555 1_555
H19_3 C30_3 1_555 1_555
H20_3 C30_3 1_555 1_555
H21_3 C30_3 1_555 1_555
C31_3 H22_3 1_555 1_555
H23_3 C31_3 1_555 1_555
C32_3 C31_3 1_555 1_555
H24_3 C32_3 1_555 1_555
H25_3 C32_3 1_555 1_555
H26_3 C32_3 1_555 1_555
N1_3 C28_3 1_555 1_555
C28_3 O12_3 1_555 1_555
C29_3 N1_3 1_555 1_555
C31_3 N1_3 1_555 1_555
C29_4 H17_4 1_555 1_555
H18_4 C29_4 1_555 1_555
C30_4 C29_4 1_555 1_555
H19_4 C30_4 1_555 1_555
H20_4 C30_4 1_555 1_555
H21_4 C30_4 1_555 1_555
C31_4 H22_4 1_555 1_555
H23_4 C31_4 1_555 1_555
C32_4 C31_4 1_555 1_555
H24_4 C32_4 1_555 1_555
H25_4 C32_4 1_555 1_555
H26_4 C32_4 1_555 1_555
N1_4 C28_4 1_555 1_555
C28_4 O12_4 1_555 1_555
C29_4 N1_4 1_555 1_555
C31_4 N1_4 1_555 1_555
Zn4 O2_3 1_555 1_555
Zn2 O6_3 1_555 1_555
C1_3 C2_3 1_555 1_555
C2_3 C3_3 1_555 1_555
C3_3 H1_3 1_555 1_555
C4_3 C3_3 1_555 1_555
H2_3 C4_3 1_555 1_555
C5_3 C4_3 1_555 1_555
C6_3 C5_3 1_555 1_555
H3_3 C6_3 1_555 1_555
C7_3 C2_3 1_555 1_555
H4_3 C7_3 1_555 1_555
C8_3 C9_3 1_555 1_555
C9_3 C10_3 1_555 1_555
C10_3 H5_3 1_555 1_555
C11_3 C10_3 1_555 1_555
H6_3 C11_3 1_555 1_555
C12_3 C11_3 1_555 1_555
C13_3 C12_3 1_555 1_555
H7_3 C13_3 1_555 1_555
C14_3 C9_3 1_555 1_555
H8_3 C14_3 1_555 1_555
C15_3 C16_3 1_555 1_555
C16_3 C17_3 1_555 1_555
C17_3 H9_3 1_555 1_555
C18_3 C17_3 1_555 1_555
H10_3 C18_3 1_555 1_555
C19_3 C18_3 1_555 1_555
C20_3 C19_3 1_555 1_555
H11_3 C20_3 1_555 1_555
C21_3 C16_3 1_555 1_555
H12_3 C21_3 1_555 1_555
C22_3 C23_3 1_555 1_555
C23_3 H13_3 1_555 1_555
C24_3 C23_3 1_555 1_555
C25_3 C24_3 1_555 1_555
H14_3 C25_3 1_555 1_555
C26_3 C25_3 1_555 1_555
C27_3 C22_3 1_555 1_555
H15_3 C27_3 1_555 1_555
O13_2 C1_3 1_555 1_555
O14_2 C1_3 1_555 1_555
O4_3 C5_3 1_555 1_555
O5_3 Zn4 1_555 1_555
O6_3 C8_3 1_555 1_555
O7_3 C12_3 1_555 1_555
O8_3 C15_3 1_555 1_555
O9_2 C15_3 1_555 1_555
O10_3 C19_3 1_555 1_555
Zn6_2 O9_2 1_555 1_555
O15_2 Zn2 1_555 1_555
C6_3 C7_3 1_555 1_555
C8_3 O5_3 1_555 1_555
C13_3 C14_3 1_555 1_555
C20_3 C21_3 1_555 1_555
C22_3 O4_3 1_555 1_555
C24_3 O7_3 1_555 1_555
C26_3 C27_3 1_555 1_555
C26_3 O10_3 1_555 1_555
O2_3 H27_3 1_555 1_555
O2_3 H28_3 1_555 1_555
Zn6_2 O6_4 1_555 1_555
C10_4 H5_4 1_555 1_555
Zn6_2 O16_2 1_555 1_555
C1_4 C2_4 1_555 1_555
C2_4 C3_4 1_555 1_555
C3_4 H1_4 1_555 1_555
C4_4 C3_4 1_555 1_555
H2_4 C4_4 1_555 1_555
C5_4 C4_4 1_555 1_555
C6_4 C5_4 1_555 1_555
H3_4 C6_4 1_555 1_555
C7_4 C2_4 1_555 1_555
H4_4 C7_4 1_555 1_555
C15_4 C16_4 1_555 1_555
H11_4 C20_4 1_555 1_555
C21_4 C16_4 1_555 1_555
H12_4 C21_4 1_555 1_555
C22_4 C23_4 1_555 1_555
C23_4 H13_4 1_555 1_555
C24_4 C23_4 1_555 1_555
C27_4 C22_4 1_555 1_555
H15_4 C27_4 1_555 1_555
O1_2 C1_4 1_555 1_555
O3_2 C1_4 1_555 1_555
O4_4 C5_4 1_555 1_555
O8_4 C15_4 1_555 1_555
Zn4_2 O1_2 1_555 1_555
C6_4 C7_4 1_555 1_555
C20_4 C21_4 1_555 1_555
C22_4 O4_4 1_555 1_555
C24_4 O7_4 1_555 1_555
C26_4 C27_4 1_555 1_555
Zn4_2 O2_4 1_555 1_555
C8_4 C9_4 1_555 1_555
C12_4 C11_4 1_555 1_555
C13_4 C12_4 1_555 1_555
H7_4 C13_4 1_555 1_555
C14_4 C9_4 1_555 1_555
H8_4 C14_4 1_555 1_555
C17_4 H9_4 1_555 1_555
C18_4 C17_4 1_555 1_555
H10_4 C18_4 1_555 1_555
C19_4 C18_4 1_555 1_555
H14_4 C25_4 1_555 1_555
O5_4 Zn4_2 1_555 1_555
O10_4 C19_4 1_555 1_555
C8_4 O5_4 1_555 1_555
C13_4 C14_4 1_555 1_555
O2_4 H27_4 1_555 1_555
O2_4 H28_4 1_555 1_555

#END
