
###############################################################################
#
# This file contains modified crystal structure data generated from the
# MOF subset of the Cambridge Structural Database (CSD) v543 
# hosted by the Cambridge Crystallographic Data Centre (CCDC).
#
# This work is licensed under the Creative Commons
# Attribution-NonCommercial-ShareAlike 4.0 International License.
# To view a copy of this license, visit
# http://creativecommons.org/licenses/by-nc-sa/4.0/
# or send a letter to
# Creative Commons, PO Box 1866, Mountain View, CA 94042, USA.
#
# CIF created using the CSD Python API on 29 September 2022
# The structure has been converted into the P1 space group
# The structure has a 3D framework
# The original CSD entry USORAY is in the orthorhombic crystal system
# The original CSD entry USORAY is in a Sohncke space group
# The framework has been calculated to contain at least 10.0% void space
# The void calculation uses a probe of radius 1.32A, grid spacing 0.4
#
###############################################################################

data_USORAY
_chemical_formula_moiety         '(C56 H60 Co8 N4 O32)n'
_symmetry_cell_setting           triclinic
_symmetry_space_group_name_H-M   'P 1'
_symmetry_Int_Tables_number      1
_space_group_name_Hall           'P 1'
loop_
_symmetry_equiv_pos_site_id
_symmetry_equiv_pos_as_xyz
1 x,y,z
_cell_length_a                   10.3199(4)
_cell_length_b                   11.7682(6)
_cell_length_c                   20.2331(10)
_cell_angle_alpha                90
_cell_angle_beta                 90
_cell_angle_gamma                90
_cell_volume                     2457.24
loop_
_atom_site_label
_atom_site_type_symbol
_atom_site_fract_x
_atom_site_fract_y
_atom_site_fract_z
O7 O 0.0449(11) 0.0799(11) 0.0040(8)
N1 N 0.0621(19) 0.2709(15) 0.0299(10)
C12 C 0.007(2) 0.1556(14) 0.0275(12)
C14 C 0.007(3) 0.359(2) 0.0751(14)
H14 H 0.070987 0.416855 0.083033
C13 C 0.163(3) 0.290(3) 0.9781(12)
H10 H 0.208077 0.220444 0.969654
H11 H 0.223151 0.346653 0.993224
H12 H 0.122103 0.316016 0.938184
Co4 Co 0.13418(13) 0.67462(12) 0.00373(9)
O9 O 0.1113(6) 0.8379(6) 0.9907(4)
C2 C 0.8773(7) 0.0234(11) 0.7836(4)
H1 H 0.952215 0.039584 0.807375
C3 C 0.8715(7) 0.0476(11) 0.7164(4)
H2 H 0.942497 0.079878 0.695243
C4 C 0.7596(9) 0.0234(11) 0.6809(3)
O6 O 0.8484(10) 0.0939(10) 0.5828(5)
C11 C 0.7483(17) 0.0486(16) 0.6070(4)
O8 O 0.6453(13) 0.0256(10) 0.5799(5)
Co3 Co 0.86582(13) 0.17462(12) 0.49627(9)
Co5 Co 0.54936(14) 0.08170(13) 0.50376(13)
Co2 Co 0.95064(14) 0.91830(13) 0.00376(13)
O1 O 0.8320(6) 0.7732(5) 0.0029(4)
O4 O 0.6113(6) 0.6621(6) 0.0093(4)
C8 C 0.8467(8) 0.6706(9) 0.0153(6)
O5 O 0.9513(7) 0.6191(7) 0.0184(4)
C9 C 0.7242(8) 0.6028(10) 0.0309(5)
H5 H 0.728544 0.529422 0.008056
C10 C 0.7164(14) 0.5817(15) 0.1054(5)
H6 H 0.702707 0.652608 0.127815
H7 H 0.795985 0.548249 0.120372
H8 H 0.645740 0.531197 0.114688
O11 O 0.6516(10) 0.9061(10) 0.0828(5)
O12 O 0.8547(13) 0.9744(10) 0.0799(5)
Co1 Co 0.63418(13) 0.82538(12) 0.99627(9)
O2 O 0.8824(8) 0.9708(8) 0.9178(4)
O3 O 0.6787(8) 0.9004(9) 0.9131(4)
C1 C 0.7712(8) 0.9752(11) 0.8152(3)
C5 C 0.6534(8) 0.9752(11) 0.7125(4)
H3 H 0.578554 0.959006 0.688753
C6 C 0.6593(7) 0.9510(11) 0.7797(4)
H4 H 0.588269 0.918711 0.800886
C7 C 0.7772(12) 0.9468(13) 0.8889(3)
Co6 Co 0.45064(14) 0.58170(13) 0.99624(13)
O10 O 0.4513(7) 0.8809(7) 0.9816(4)
Co6_2 Co 0.04936(14) 0.41830(13) 0.49624(13)
O10_2 O 0.0487(7) 0.1191(7) 0.4816(4)
O1_2 O 0.6680(6) 0.2268(5) 0.5029(4)
O2_2 O 0.6176(8) 0.0292(8) 0.4178(4)
O3_2 O 0.8213(8) 0.0996(9) 0.4131(4)
C1_2 C 0.7288(8) 0.0248(11) 0.3152(3)
C5_2 C 0.8466(8) 0.0248(11) 0.2125(4)
H3_2 H 0.921446 0.040994 0.188753
C6_2 C 0.8407(7) 0.0490(11) 0.2797(4)
H4_2 H 0.911731 0.081289 0.300886
C7_2 C 0.7228(12) 0.0532(13) 0.3889(3)
O4_2 O 0.8887(6) 0.3379(6) 0.5093(4)
C8_2 C 0.6533(8) 0.3294(9) 0.5153(6)
O5_2 O 0.5487(7) 0.3809(7) 0.5184(4)
C9_2 C 0.7758(8) 0.3972(10) 0.5309(5)
H5_2 H 0.771456 0.470578 0.508056
C10_2 C 0.7836(14) 0.4183(15) 0.6054(5)
H6_2 H 0.797293 0.347392 0.627815
H7_2 H 0.704015 0.451751 0.620372
H8_2 H 0.854260 0.468803 0.614688
Co4_2 Co 0.36582(13) 0.32538(12) 0.50373(9)
O9_2 O 0.3887(6) 0.1621(6) 0.4907(4)
C2_2 C 0.6227(7) 0.9766(11) 0.2836(4)
H1_2 H 0.547785 0.960416 0.307375
C3_2 C 0.6285(7) 0.9524(11) 0.2164(4)
H2_2 H 0.557503 0.920122 0.195243
C4_2 C 0.7404(9) 0.9766(11) 0.1809(3)
C11_2 C 0.7517(17) 0.9514(16) 0.1070(4)
O7_2 O 0.4551(11) 0.9201(11) 0.5040(8)
N1_2 N 0.4379(19) 0.7291(15) 0.5299(10)
C12_2 C 0.493(2) 0.8444(14) 0.5275(12)
H9 H 0.571226 0.853535 0.549495
C13_2 C 0.337(3) 0.710(3) 0.4781(12)
H10_2 H 0.291923 0.779556 0.469654
H11_2 H 0.276849 0.653347 0.493224
H12_2 H 0.377897 0.683984 0.438184
C14_2 C 0.493(3) 0.641(2) 0.5751(14)
H13 H 0.567941 0.607248 0.555006
H14_2 H 0.429013 0.583145 0.583033
H15 H 0.516962 0.675552 0.616233
O2_3 O 0.3824(8) 0.5292(8) 0.0822(4)
O3_3 O 0.1787(8) 0.5996(9) 0.0869(4)
C1_3 C 0.2712(8) 0.5248(11) 0.1848(3)
C2_3 C 0.3773(7) 0.4766(11) 0.2164(4)
H1_3 H 0.452215 0.460416 0.192625
C3_3 C 0.3715(7) 0.4524(11) 0.2836(4)
H2_3 H 0.442497 0.420122 0.304757
C4_3 C 0.2596(9) 0.4766(11) 0.3191(3)
C5_3 C 0.1534(8) 0.5248(11) 0.2875(4)
H3_3 H 0.078554 0.540994 0.311247
C6_3 C 0.1593(7) 0.5490(11) 0.2203(4)
H4_3 H 0.088269 0.581289 0.199114
C7_3 C 0.2772(12) 0.5532(13) 0.1111(3)
O6_2 O 0.3484(10) 0.4061(10) 0.4172(5)
C11_3 C 0.2483(17) 0.4514(16) 0.3930(4)
O8_2 O 0.1453(13) 0.4744(10) 0.4201(5)
C13_3 C 0.663(3) 0.210(3) 0.0219(12)
H10_3 H 0.708077 0.279556 0.030346
H11_3 H 0.723151 0.153347 0.006776
H12_3 H 0.622103 0.183984 0.061816
O1_3 O 0.3320(6) 0.7268(5) 0.9971(4)
C8_3 C 0.3467(8) 0.8294(9) 0.9847(6)
C9_3 C 0.2242(8) 0.8972(10) 0.9691(5)
H5_3 H 0.228544 0.970578 0.991944
C10_3 C 0.2164(14) 0.9183(15) 0.8946(5)
H6_3 H 0.202707 0.847392 0.872185
H7_3 H 0.295985 0.951751 0.879628
H8_3 H 0.145740 0.968803 0.885312
O7_3 O 0.5449(11) 0.4201(11) 0.9960(8)
N1_3 N 0.5621(19) 0.2291(15) 0.9701(10)
C12_3 C 0.507(2) 0.3444(14) 0.9725(12)
H9_2 H 0.428774 0.353535 0.950505
C14_3 C 0.507(3) 0.141(2) 0.9249(14)
H13_2 H 0.432059 0.107248 0.944994
H14_3 H 0.570987 0.083145 0.916967
H15_2 H 0.483038 0.175552 0.883767
O11_2 O 0.1516(10) 0.5939(10) 0.9172(5)
O12_2 O 0.3547(13) 0.5256(10) 0.9201(5)
O1_4 O 0.1680(6) 0.2732(5) 0.4971(4)
O2_4 O 0.1176(8) 0.4708(8) 0.5822(4)
O3_4 O 0.3213(8) 0.4004(9) 0.5869(4)
C1_4 C 0.2288(8) 0.4752(11) 0.6848(3)
C2_4 C 0.1227(7) 0.5234(11) 0.7164(4)
H1_4 H 0.047785 0.539584 0.692625
C3_4 C 0.1285(7) 0.5476(11) 0.7836(4)
H2_4 H 0.057503 0.579878 0.804757
C4_4 C 0.2404(9) 0.5234(11) 0.8191(3)
C5_4 C 0.3466(8) 0.4752(11) 0.7875(4)
H3_4 H 0.421446 0.459006 0.811247
C6_4 C 0.3407(7) 0.4510(11) 0.7203(4)
H4_4 H 0.411731 0.418711 0.699114
C7_4 C 0.2228(12) 0.4468(13) 0.6111(3)
C8_4 C 0.1533(8) 0.1706(9) 0.4847(6)
C9_4 C 0.2758(8) 0.1028(10) 0.4691(5)
H5_4 H 0.271456 0.029422 0.491944
C10_4 C 0.2836(14) 0.0817(15) 0.3946(5)
H6_4 H 0.297293 0.152608 0.372185
H7_4 H 0.204015 0.048249 0.379628
H8_4 H 0.354260 0.031197 0.385312
C11_4 C 0.2517(17) 0.5486(16) 0.8930(4)
H9_3 H 0.071226 0.646465 0.450505
H13_3 H 0.067941 0.892752 0.444994
H15_3 H 0.016962 0.824448 0.383767
O7_4 O 0.9551(11) 0.5799(11) 0.4960(8)
N1_4 N 0.9379(19) 0.7709(15) 0.4701(10)
C12_4 C 0.993(2) 0.6556(14) 0.4725(12)
C13_4 C 0.837(3) 0.790(3) 0.5219(12)
H10_4 H 0.791923 0.720444 0.530346
H11_4 H 0.776849 0.846653 0.506776
H12_4 H 0.877897 0.816016 0.561816
C14_4 C 0.993(3) 0.859(2) 0.4249(14)
H14_4 H 0.929013 0.916855 0.416967
H9_4 H 0.928774 0.146465 0.049495
H13_4 H 0.932059 0.392752 0.055006
H15_4 H 0.983038 0.324448 0.116233
loop_
_geom_bond_atom_site_label_1
_geom_bond_atom_site_label_2
_geom_bond_site_symmetry_1
_geom_bond_site_symmetry_2
N1 C12 1_555 1_555
C12 O7 1_555 1_555
C14 N1 1_555 1_555
H14 C14 1_555 1_555
H10 C13 1_555 1_555
H11 C13 1_555 1_555
H12 C13 1_555 1_555
C2 H1 1_555 1_555
C3 C2 1_555 1_555
H2 C3 1_555 1_555
C4 C3 1_555 1_555
O6 C11 1_555 1_555
C11 C4 1_555 1_555
O8 C11 1_555 1_555
Co3 O6 1_555 1_555
Co5 O8 1_555 1_555
Co2 O1 1_555 1_555
O1 C8 1_555 1_555
C8 O5 1_555 1_555
C9 O4 1_555 1_555
H5 C9 1_555 1_555
C10 C9 1_555 1_555
H6 C10 1_555 1_555
H7 C10 1_555 1_555
H8 C10 1_555 1_555
O12 Co2 1_555 1_555
C8 C9 1_555 1_555
O3 Co1 1_555 1_555
H3 C5 1_555 1_555
C6 C1 1_555 1_555
H4 C6 1_555 1_555
C7 O2 1_555 1_555
O10 Co1 1_555 1_555
O3 C7 1_555 1_555
C1 C7 1_555 1_555
C5 C6 1_555 1_555
Co3 O1_2 1_555 1_555
Co5 O1_2 1_555 1_555
O1_2 C8_2 1_555 1_555
O2_2 Co5 1_555 1_555
O3_2 Co3 1_555 1_555
H3_2 C5_2 1_555 1_555
C6_2 C1_2 1_555 1_555
H4_2 C6_2 1_555 1_555
C7_2 O2_2 1_555 1_555
O4_2 Co3 1_555 1_555
C8_2 O5_2 1_555 1_555
O5_2 Co4_2 1_555 1_555
C9_2 O4_2 1_555 1_555
H5_2 C9_2 1_555 1_555
C10_2 C9_2 1_555 1_555
H6_2 C10_2 1_555 1_555
H7_2 C10_2 1_555 1_555
H8_2 C10_2 1_555 1_555
Co4_2 O9_2 1_555 1_555
O9_2 Co5 1_555 1_555
O3_2 C7_2 1_555 1_555
C1_2 C7_2 1_555 1_555
C5_2 C6_2 1_555 1_555
C8_2 C9_2 1_555 1_555
C2_2 H1_2 1_555 1_555
C3_2 C2_2 1_555 1_555
H2_2 C3_2 1_555 1_555
C4_2 C3_2 1_555 1_555
O11 C11_2 1_555 1_555
C11_2 C4_2 1_555 1_555
O12 C11_2 1_555 1_555
N1_2 C12_2 1_555 1_555
C12_2 O7_2 1_555 1_555
H9 C12_2 1_555 1_555
C13_2 N1_2 1_555 1_555
H10_2 C13_2 1_555 1_555
H11_2 C13_2 1_555 1_555
H12_2 C13_2 1_555 1_555
C14_2 N1_2 1_555 1_555
H13 C14_2 1_555 1_555
H14_2 C14_2 1_555 1_555
H15 C14_2 1_555 1_555
O3_3 Co4 1_555 1_555
C1_3 C2_3 1_555 1_555
C2_3 H1_3 1_555 1_555
C3_3 C2_3 1_555 1_555
H2_3 C3_3 1_555 1_555
C4_3 C3_3 1_555 1_555
C5_3 C4_3 1_555 1_555
H3_3 C5_3 1_555 1_555
C6_3 C1_3 1_555 1_555
H4_3 C6_3 1_555 1_555
C7_3 O2_3 1_555 1_555
O6_2 C11_3 1_555 1_555
C11_3 C4_3 1_555 1_555
O8_2 C11_3 1_555 1_555
H10_3 C13_3 1_555 1_555
H11_3 C13_3 1_555 1_555
H12_3 C13_3 1_555 1_555
Co4_2 O6_2 1_555 1_555
Co6_2 O8_2 1_555 1_555
O3_3 C7_3 1_555 1_555
C1_3 C7_3 1_555 1_555
C5_3 C6_3 1_555 1_555
Co6 O1_3 1_555 1_555
O1_3 C8_3 1_555 1_555
C8_3 O10 1_555 1_555
C9_3 O9 1_555 1_555
H5_3 C9_3 1_555 1_555
C10_3 C9_3 1_555 1_555
H6_3 C10_3 1_555 1_555
H7_3 C10_3 1_555 1_555
H8_3 C10_3 1_555 1_555
O7_3 Co6 1_555 1_555
N1_3 C12_3 1_555 1_555
C12_3 O7_3 1_555 1_555
H9_2 C12_3 1_555 1_555
C14_3 N1_3 1_555 1_555
H13_2 C14_3 1_555 1_555
H14_3 C14_3 1_555 1_555
H15_2 C14_3 1_555 1_555
O12_2 Co6 1_555 1_555
C8_3 C9_3 1_555 1_555
Co4_2 O1_4 1_555 1_555
Co6_2 O1_4 1_555 1_555
O1_4 C8_4 1_555 1_555
O2_4 Co6_2 1_555 1_555
O3_4 Co4_2 1_555 1_555
C1_4 C2_4 1_555 1_555
C2_4 H1_4 1_555 1_555
C3_4 C2_4 1_555 1_555
H2_4 C3_4 1_555 1_555
C4_4 C3_4 1_555 1_555
C5_4 C4_4 1_555 1_555
H3_4 C5_4 1_555 1_555
C6_4 C1_4 1_555 1_555
H4_4 C6_4 1_555 1_555
C7_4 O2_4 1_555 1_555
C8_4 O10_2 1_555 1_555
O11_2 C11_4 1_555 1_555
C9_4 O9_2 1_555 1_555
H5_4 C9_4 1_555 1_555
C10_4 C9_4 1_555 1_555
H6_4 C10_4 1_555 1_555
H7_4 C10_4 1_555 1_555
H8_4 C10_4 1_555 1_555
C11_4 C4_4 1_555 1_555
O12_2 C11_4 1_555 1_555
O3_4 C7_4 1_555 1_555
C1_4 C7_4 1_555 1_555
C5_4 C6_4 1_555 1_555
C8_4 C9_4 1_555 1_555
N1_4 C12_4 1_555 1_555
C12_4 O7_4 1_555 1_555
C13_4 N1_4 1_555 1_555
H10_4 C13_4 1_555 1_555
H11_4 C13_4 1_555 1_555
H12_4 C13_4 1_555 1_555
C14_4 N1_4 1_555 1_555
H14_4 C14_4 1_555 1_555

#END
