
###############################################################################
#
# This file contains modified crystal structure data generated from the
# MOF subset of the Cambridge Structural Database (CSD) v543 
# hosted by the Cambridge Crystallographic Data Centre (CCDC).
#
# This work is licensed under the Creative Commons
# Attribution-NonCommercial-ShareAlike 4.0 International License.
# To view a copy of this license, visit
# http://creativecommons.org/licenses/by-nc-sa/4.0/
# or send a letter to
# Creative Commons, PO Box 1866, Mountain View, CA 94042, USA.
#
# CIF created using the CSD Python API on 29 September 2022
# The structure has been converted into the P1 space group
# The structure has a 3D framework
# The original CSD entry USUBUG is in the monoclinic crystal system
# The framework has been calculated to contain at least 10.0% void space
# The void calculation uses a probe of radius 1.32A, grid spacing 0.4
#
###############################################################################

data_USUBUG
_chemical_formula_moiety         '(C8 H16 N40 Zn4)n'
_symmetry_cell_setting           triclinic
_symmetry_space_group_name_H-M   'P 1'
_symmetry_Int_Tables_number      1
_space_group_name_Hall           'P 1'
loop_
_symmetry_equiv_pos_site_id
_symmetry_equiv_pos_as_xyz
1 x,y,z
_cell_length_a                   13.459(2)
_cell_length_b                   15.118(2)
_cell_length_c                   8.959(2)
_cell_angle_alpha                90
_cell_angle_beta                 131.571(2)
_cell_angle_gamma                90
_cell_volume                     1363.79
loop_
_atom_site_label
_atom_site_type_symbol
_atom_site_fract_x
_atom_site_fract_y
_atom_site_fract_z
N2 N 0.0560(6) 0.2741(4) 0.0210(10)
N3 N 0.0847(7) 0.1914(5) 0.0977(15)
Zn3 Zn 0.19885(6) 0.36283(3) 0.16665(7)
C1 C 0.9257(8) 0.2723(5) 0.8566(14)
C2 C 0.7503(7) 0.0003(4) 0.9676(11)
N1 N 0.8593(10) 0.3375(7) 0.7170(18)
H1 H 0.7791 0.3288 0.6075
H2 H 0.8975 0.3874 0.7382
N4 N 0.9789(11) 0.1458(5) 0.995(2)
N5 N 0.8756(6) 0.1939(4) 0.8375(11)
N7 N 0.6782(6) 0.0610(5) 0.8263(12)
N8 N 0.5505(9) 0.0533(6) 0.7571(16)
Zn1 Zn 0.69885(6) 0.13717(3) 0.66665(7)
N11 N 0.5560(6) 0.2259(4) 0.5210(10)
N12 N 0.6734(7) 0.0482(5) 0.4793(11)
N6 N 0.8800(8) 0.9900(7) 0.0766(18)
H3 H 0.9218 0.9487 0.1647
Zn2 Zn 0.69885(6) 0.86283(3) 0.16665(7)
N2_2 N 0.0560(6) 0.7259(4) 0.5210(10)
N3_2 N 0.0847(7) 0.8086(5) 0.5977(15)
Zn3_2 Zn 0.19885(6) 0.63717(3) 0.66665(7)
N6_2 N 0.8800(8) 0.0100(7) 0.5766(18)
H3_2 H 0.9218 0.0513 0.6647
N9 N 0.5495(8) 0.0126(6) 0.3445(15)
C1_2 C 0.9257(8) 0.7277(5) 0.3566(14)
C2_2 C 0.7503(7) 0.9997(4) 0.4676(11)
N1_2 N 0.8593(10) 0.6625(7) 0.2170(18)
H1_2 H 0.7791 0.6712 0.1075
H2_2 H 0.8975 0.6126 0.2382
N4_2 N 0.9789(11) 0.8542(5) 0.495(2)
N5_2 N 0.8756(6) 0.8061(4) 0.3375(11)
H4 H 0.9222 0.9754 0.5590
N7_2 N 0.6782(6) 0.9390(5) 0.3263(12)
N8_2 N 0.5505(9) 0.9467(6) 0.2571(16)
N11_2 N 0.5560(6) 0.7741(4) 0.0210(10)
N3_3 N 0.5847(7) 0.6914(5) 0.0977(15)
N6_3 N 0.3800(8) 0.4900(7) 0.0766(18)
H3_3 H 0.4218 0.4487 0.1647
H4_2 H 0.4222 0.5246 0.0590
C1_3 C 0.4257(8) 0.7723(5) 0.8566(14)
C2_3 C 0.2503(7) 0.5003(4) 0.9676(11)
N1_3 N 0.3593(10) 0.8375(7) 0.7170(18)
H1_3 H 0.2791 0.8288 0.6075
H2_3 H 0.3975 0.8874 0.7382
N4_3 N 0.4789(11) 0.6458(5) 0.995(2)
N5_3 N 0.3756(6) 0.6939(4) 0.8375(11)
N7_3 N 0.1782(6) 0.5610(5) 0.8263(12)
N8_3 N 0.0505(9) 0.5533(6) 0.7571(16)
N9_2 N 0.0495(8) 0.4874(6) 0.8445(15)
N10 N 0.1734(7) 0.4518(5) 0.9793(11)
N12_2 N 0.1734(7) 0.5482(5) 0.4793(11)
C1_4 C 0.4257(8) 0.2277(5) 0.3566(14)
C2_4 C 0.2503(7) 0.4997(4) 0.4676(11)
N1_4 N 0.3593(10) 0.1625(7) 0.2170(18)
H1_4 H 0.2791 0.1712 0.1075
H2_4 H 0.3975 0.1126 0.2382
N3_4 N 0.5847(7) 0.3086(5) 0.5977(15)
N4_4 N 0.4789(11) 0.3542(5) 0.495(2)
N5_4 N 0.3756(6) 0.3061(4) 0.3375(11)
N6_4 N 0.3800(8) 0.5100(7) 0.5766(18)
H3_4 H 0.4218 0.5513 0.6647
H4_3 H 0.4222 0.4754 0.5590
N7_4 N 0.1782(6) 0.4390(5) 0.3263(12)
N8_4 N 0.0505(9) 0.4467(6) 0.2571(16)
N9_3 N 0.0495(8) 0.5126(6) 0.3445(15)
H4_4 H 0.9222 0.0246 0.0590
N9_4 N 0.5495(8) 0.9874(6) 0.8445(15)
N10_2 N 0.6734(7) 0.9518(5) 0.9793(11)
loop_
_geom_bond_atom_site_label_1
_geom_bond_atom_site_label_2
_geom_bond_site_symmetry_1
_geom_bond_site_symmetry_2
N3 N2 1_555 1_555
Zn3 N2 1_555 1_555
C1 N1 1_555 1_555
N1 H1 1_555 1_555
H2 N1 1_555 1_555
N5 C1 1_555 1_555
N7 C2 1_555 1_555
N8 N7 1_555 1_555
Zn1 N5 1_555 1_555
N11 Zn1 1_555 1_555
N12 Zn1 1_555 1_555
N4 N5 1_555 1_555
N7 Zn1 1_555 1_555
N6 H3 1_555 1_555
N3_2 N2_2 1_555 1_555
Zn3_2 N2_2 1_555 1_555
N6_2 H3_2 1_555 1_555
N9 N12 1_555 1_555
C1_2 N1_2 1_555 1_555
N1_2 H1_2 1_555 1_555
H2_2 N1_2 1_555 1_555
N5_2 C1_2 1_555 1_555
N7_2 C2_2 1_555 1_555
N8_2 N7_2 1_555 1_555
Zn2 N5_2 1_555 1_555
N11_2 Zn2 1_555 1_555
N4_2 N5_2 1_555 1_555
N7_2 Zn2 1_555 1_555
N3_3 N11_2 1_555 1_555
N6_3 H3_3 1_555 1_555
H4_2 N6_3 1_555 1_555
C1_3 N1_3 1_555 1_555
N1_3 H1_3 1_555 1_555
H2_3 N1_3 1_555 1_555
N5_3 C1_3 1_555 1_555
N7_3 C2_3 1_555 1_555
N8_3 N7_3 1_555 1_555
N9_2 N8_3 1_555 1_555
N10 C2_3 1_555 1_555
Zn3_2 N5_3 1_555 1_555
N12_2 Zn3_2 1_555 1_555
N4_3 N5_3 1_555 1_555
N7_3 Zn3_2 1_555 1_555
N9_2 N10 1_555 1_555
C1_4 N1_4 1_555 1_555
C2_4 N6_4 1_555 1_555
N1_4 H1_4 1_555 1_555
H2_4 N1_4 1_555 1_555
N11 C1_4 1_555 1_555
N3_4 N11 1_555 1_555
N4_4 N3_4 1_555 1_555
N5_4 C1_4 1_555 1_555
N6_4 H3_4 1_555 1_555
H4_3 N6_4 1_555 1_555
N7_4 C2_4 1_555 1_555
N8_4 N7_4 1_555 1_555
N9_3 N8_4 1_555 1_555
N12_2 C2_4 1_555 1_555
Zn3 N5_4 1_555 1_555
N4_4 N5_4 1_555 1_555
N7_4 Zn3 1_555 1_555
N9_3 N12_2 1_555 1_555
N9_4 N10_2 1_555 1_555

#END
