
###############################################################################
#
# This file contains modified crystal structure data generated from the
# MOF subset of the Cambridge Structural Database (CSD) v543 
# hosted by the Cambridge Crystallographic Data Centre (CCDC).
#
# This work is licensed under the Creative Commons
# Attribution-NonCommercial-ShareAlike 4.0 International License.
# To view a copy of this license, visit
# http://creativecommons.org/licenses/by-nc-sa/4.0/
# or send a letter to
# Creative Commons, PO Box 1866, Mountain View, CA 94042, USA.
#
# CIF created using the CSD Python API on 29 September 2022
# The structure has been converted into the P1 space group
# The structure has a 3D framework
# The original CSD entry USUQOQ is in the triclinic crystal system
# The framework has been calculated to contain at least 10.0% void space
# The void calculation uses a probe of radius 1.32A, grid spacing 0.4
#
###############################################################################

data_USUQOQ
_chemical_formula_moiety         '(C38 H32 Nd4 O38)n'
_symmetry_cell_setting           triclinic
_symmetry_space_group_name_H-M   'P 1'
_symmetry_Int_Tables_number      1
_space_group_name_Hall           'P 1'
loop_
_symmetry_equiv_pos_site_id
_symmetry_equiv_pos_as_xyz
1 x,y,z
_cell_length_a                   9.7840(6)
_cell_length_b                   10.5934(8)
_cell_length_c                   13.9456(12)
_cell_angle_alpha                95.606(7)
_cell_angle_beta                 105.399(6)
_cell_angle_gamma                100.402(6)
_cell_volume                     1354.35
loop_
_atom_site_label
_atom_site_type_symbol
_atom_site_fract_x
_atom_site_fract_y
_atom_site_fract_z
O23 O 0.4776(3) 0.1500(3) 0.0160(2)
O27 O 0.1612(3) 0.1424(3) 0.0804(2)
Nd1 Nd 0.24259(2) 0.01418(2) 0.96855(2)
O17 O 0.3310(3) 0.0114(3) 0.8153(2)
H3 H 0.4257 0.0164 0.8319
H4 H 0.3129 0.0777 0.7838
O18 O 0.1342(3) 0.1817(3) 0.8757(2)
H5 H 0.1874 0.2588 0.9006
H6 H 0.0475 0.1800 0.8810
O10 O 0.7193(3) 0.2058(3) 0.0654(2)
H11 H 0.7927 0.4616 0.0068
C12 C 0.5954(4) 0.2239(4) 0.0201(3)
O20 O 0.3780(3) 0.9709(3) 0.1329(2)
O21 O 0.1470(3) 0.8717(3) 0.0991(2)
Nd2 Nd 0.13877(2) 0.55399(2) 0.63880(2)
O6 O 0.2424(3) 0.4029(3) 0.7623(2)
O7 O 0.3709(3) 0.6025(3) 0.7744(2)
O8 O 0.4619(3) 0.3439(2) 0.9040(2)
O15 O 0.0213(3) 0.8910(3) 0.8502(2)
O16 O 0.1609(3) 0.7898(3) 0.6915(2)
H1 H 0.1545 0.8296 0.6401
H2 H 0.0924 0.8011 0.7171
O19 O 0.0677(3) 0.5988(3) 0.7990(2)
H7 H 0.112(4) 0.671(2) 0.833(3)
C7 C 0.3584(4) 0.4895(4) 0.7972(3)
C8 C 0.4845(4) 0.4596(4) 0.8687(3)
C9 C 0.6244(4) 0.5230(4) 0.9071(3)
H10 H 0.6661 0.6033 0.8944
C10 C 0.6952(4) 0.4440(4) 0.9701(3)
C11 C 0.5922(4) 0.3363(4) 0.9665(3)
O22 O 0.2287(3) 0.6712(3) 0.5175(2)
O24 O 0.2807(3) 0.7942(3) 0.9346(2)
O25 O 0.0792(3) 0.3952(3) 0.4719(2)
O26 O 0.3055(3) 0.4318(3) 0.5698(2)
Nd6 Nd 0.75741(2) 0.98582(2) 0.03145(2)
O1 O 0.6220(3) 0.0291(3) 0.8671(2)
O2 O 0.8530(3) 0.1283(3) 0.9009(2)
O3 O 0.7933(3) 0.2126(3) 0.7145(2)
O4 O 0.9427(3) 0.3841(3) 0.6327(2)
O5 O 0.7713(3) 0.3288(3) 0.4825(2)
O11 O 0.9208(3) 0.6048(3) 0.5281(2)
O12 O 0.6945(3) 0.5682(3) 0.4302(2)
O13 O 0.8551(3) 0.7413(3) 0.6770(2)
O14 O 0.8388(3) 0.8576(3) 0.9196(2)
C1 C 0.7248(4) 0.0951(4) 0.8420(3)
C2 C 0.6898(4) 0.1296(4) 0.7390(3)
C3 C 0.5703(5) 0.0901(4) 0.6611(3)
H8 H 0.4857 0.0324 0.6595
C4 C 0.5981(5) 0.1543(4) 0.5806(3)
H9 H 0.5354 0.1469 0.5162
C5 C 0.7333(4) 0.2274(4) 0.6168(3)
C6 C 0.8233(4) 0.3205(4) 0.5733(3)
C13 C 0.7882(4) 0.6137(4) 0.5120(3)
C14 C 0.7431(5) 0.6753(4) 0.5954(3)
C15 C 0.6139(5) 0.6716(4) 0.6138(3)
H12 H 0.5227 0.6329 0.5703
C16 C 0.6456(5) 0.7394(4) 0.7135(3)
H13 H 0.5785 0.7535 0.7476
C17 C 0.7914(4) 0.7791(4) 0.7489(3)
C18 C 0.8916(5) 0.8490(4) 0.8463(3)
C19 C 0.9587(5) 0.5339(4) 0.8387(3)
H14 H 0.8649 0.5241 0.7911
H15 H 0.9616 0.5842 0.9006
H16 H 0.9763 0.4499 0.8510
Nd7 Nd 0.86123(2) 0.44601(2) 0.36120(2)
O3_2 O 0.2067(3) 0.7874(3) 0.2855(2)
O4_2 O 0.0573(3) 0.6159(3) 0.3673(2)
O13_2 O 0.1449(3) 0.2587(3) 0.3230(2)
C1_2 C 0.2752(4) 0.9049(4) 0.1580(3)
C2_2 C 0.3102(4) 0.8704(4) 0.2610(3)
C3_2 C 0.4297(5) 0.9099(4) 0.3389(3)
H8_2 H 0.5143 0.9676 0.3405
C4_2 C 0.4019(5) 0.8457(4) 0.4194(3)
H9_2 H 0.4646 0.8531 0.4838
C5_2 C 0.2667(4) 0.7726(4) 0.3832(3)
C6_2 C 0.1767(4) 0.6795(4) 0.4267(3)
C13_2 C 0.2118(4) 0.3863(4) 0.4880(3)
C14_2 C 0.2569(5) 0.3247(4) 0.4046(3)
C15_2 C 0.3861(5) 0.3284(4) 0.3862(3)
H12_2 H 0.4773 0.3671 0.4297
C16_2 C 0.3544(5) 0.2606(4) 0.2865(3)
H13_2 H 0.4215 0.2465 0.2524
C17_2 C 0.2086(4) 0.2209(4) 0.2511(3)
C18_2 C 0.1084(5) 0.1510(4) 0.1537(3)
C19_2 C 0.0413(5) 0.4661(4) 0.1613(3)
H14_2 H 0.1351 0.4759 0.2089
H15_2 H 0.0384 0.4158 0.0994
H16_2 H 0.0237 0.5501 0.1490
O6_2 O 0.7576(3) 0.5971(3) 0.2377(2)
O7_2 O 0.6291(3) 0.3975(3) 0.2256(2)
O8_2 O 0.5381(3) 0.6561(2) 0.0960(2)
O15_2 O 0.9787(3) 0.1090(3) 0.1498(2)
O16_2 O 0.8391(3) 0.2102(3) 0.3085(2)
H1_2 H 0.8455 0.1704 0.3599
H2_2 H 0.9076 0.1989 0.2829
O19_2 O 0.9323(3) 0.4012(3) 0.2010(2)
H7_2 H 0.888(4) 0.329(2) 0.167(3)
C7_2 C 0.6416(4) 0.5105(4) 0.2028(3)
C8_2 C 0.5155(4) 0.5404(4) 0.1313(3)
C9_2 C 0.3756(4) 0.4770(4) 0.0929(3)
H10_2 H 0.3339 0.3967 0.1056
C10_2 C 0.3048(4) 0.5560(4) 0.0299(3)
C11_2 C 0.4078(4) 0.6637(4) 0.0335(3)
O9 O 0.5224(3) 0.8500(3) 0.9840(2)
H11_2 H 0.2073 0.5384 0.9932
C12_2 C 0.4046(4) 0.7761(4) 0.9799(3)
O17_2 O 0.6690(3) 0.9886(3) 0.1847(2)
H3_2 H 0.5743 0.9836 0.1681
H4_2 H 0.6871 0.9223 0.2162
O18_2 O 0.8658(3) 0.8183(3) 0.1243(2)
H5_2 H 0.8126 0.7412 0.0994
H6_2 H 0.9525 0.8200 0.1190
loop_
_geom_bond_atom_site_label_1
_geom_bond_atom_site_label_2
_geom_bond_site_symmetry_1
_geom_bond_site_symmetry_2
O17 Nd1 1_555 1_555
H3 O17 1_555 1_555
H4 O17 1_555 1_555
O18 Nd1 1_555 1_555
H5 O18 1_555 1_555
H6 O18 1_555 1_555
O23 C12 1_555 1_555
O10 C12 1_555 1_555
O6 Nd2 1_555 1_555
O7 Nd2 1_555 1_555
O8 C8 1_555 1_555
O16 Nd2 1_555 1_555
H1 O16 1_555 1_555
H2 O16 1_555 1_555
O19 Nd2 1_555 1_555
H7 O19 1_555 1_555
C7 O6 1_555 1_555
C8 C7 1_555 1_555
C9 C8 1_555 1_555
H10 C9 1_555 1_555
C10 C9 1_555 1_555
C11 O8 1_555 1_555
O22 Nd2 1_555 1_555
O25 Nd2 1_555 1_555
O26 Nd2 1_555 1_555
O7 C7 1_555 1_555
C10 C11 1_555 1_555
O1 C1 1_555 1_555
O2 C1 1_555 1_555
O3 C2 1_555 1_555
O4 C6 1_555 1_555
O5 C6 1_555 1_555
O12 C13 1_555 1_555
O13 C14 1_555 1_555
O14 C18 1_555 1_555
C1 C2 1_555 1_555
C2 C3 1_555 1_555
C3 H8 1_555 1_555
C4 C3 1_555 1_555
H9 C4 1_555 1_555
C5 O3 1_555 1_555
C6 C5 1_555 1_555
C13 O11 1_555 1_555
C14 C13 1_555 1_555
C15 C14 1_555 1_555
H12 C15 1_555 1_555
C16 C15 1_555 1_555
H13 C16 1_555 1_555
C17 O13 1_555 1_555
C18 C17 1_555 1_555
H14 C19 1_555 1_555
H15 C19 1_555 1_555
H16 C19 1_555 1_555
Nd7 O5 1_555 1_555
O11 Nd7 1_555 1_555
O12 Nd7 1_555 1_555
C4 C5 1_555 1_555
C16 C17 1_555 1_555
O20 C1_2 1_555 1_555
O21 C1_2 1_555 1_555
O3_2 C2_2 1_555 1_555
O4_2 C6_2 1_555 1_555
O22 C6_2 1_555 1_555
O26 C13_2 1_555 1_555
O13_2 C14_2 1_555 1_555
O27 C18_2 1_555 1_555
C1_2 C2_2 1_555 1_555
C2_2 C3_2 1_555 1_555
C3_2 H8_2 1_555 1_555
C4_2 C3_2 1_555 1_555
H9_2 C4_2 1_555 1_555
C5_2 O3_2 1_555 1_555
C6_2 C5_2 1_555 1_555
C13_2 O25 1_555 1_555
C14_2 C13_2 1_555 1_555
C15_2 C14_2 1_555 1_555
H12_2 C15_2 1_555 1_555
C16_2 C15_2 1_555 1_555
H13_2 C16_2 1_555 1_555
C17_2 O13_2 1_555 1_555
C18_2 C17_2 1_555 1_555
H14_2 C19_2 1_555 1_555
H15_2 C19_2 1_555 1_555
H16_2 C19_2 1_555 1_555
C4_2 C5_2 1_555 1_555
C16_2 C17_2 1_555 1_555
O6_2 Nd7 1_555 1_555
O7_2 Nd7 1_555 1_555
O8_2 C8_2 1_555 1_555
O16_2 Nd7 1_555 1_555
H1_2 O16_2 1_555 1_555
H2_2 O16_2 1_555 1_555
O19_2 Nd7 1_555 1_555
H7_2 O19_2 1_555 1_555
C7_2 O6_2 1_555 1_555
C8_2 C7_2 1_555 1_555
C9_2 C8_2 1_555 1_555
H10_2 C9_2 1_555 1_555
C10_2 C9_2 1_555 1_555
C11_2 O8_2 1_555 1_555
O7_2 C7_2 1_555 1_555
C10_2 C11_2 1_555 1_555
O9 C12_2 1_555 1_555
O24 C12_2 1_555 1_555
O17_2 Nd6 1_555 1_555
H3_2 O17_2 1_555 1_555
H4_2 O17_2 1_555 1_555
O18_2 Nd6 1_555 1_555
H5_2 O18_2 1_555 1_555
H6_2 O18_2 1_555 1_555

#END
