
###############################################################################
#
# This file contains modified crystal structure data generated from the
# MOF subset of the Cambridge Structural Database (CSD) v543 
# hosted by the Cambridge Crystallographic Data Centre (CCDC).
#
# This work is licensed under the Creative Commons
# Attribution-NonCommercial-ShareAlike 4.0 International License.
# To view a copy of this license, visit
# http://creativecommons.org/licenses/by-nc-sa/4.0/
# or send a letter to
# Creative Commons, PO Box 1866, Mountain View, CA 94042, USA.
#
# CIF created using the CSD Python API on 29 September 2022
# The structure has been converted into the P1 space group
# The structure has a 3D framework
# The original CSD entry UTATOA is in the monoclinic crystal system
# The original CSD entry UTATOA is in a Sohncke space group
# The framework has been calculated to contain at least 10.0% void space
# The void calculation uses a probe of radius 1.32A, grid spacing 0.4
#
###############################################################################

data_UTATOA
_chemical_formula_moiety         '(C56 H56 Cd3 N16 O14)n'
_symmetry_cell_setting           triclinic
_symmetry_space_group_name_H-M   'P 1'
_symmetry_Int_Tables_number      1
_space_group_name_Hall           'P 1'
loop_
_symmetry_equiv_pos_site_id
_symmetry_equiv_pos_as_xyz
1 x,y,z
_cell_length_a                   9.061(3)
_cell_length_b                   13.652(4)
_cell_length_c                   12.960(7)
_cell_angle_alpha                90
_cell_angle_beta                 90.642(4)
_cell_angle_gamma                90
_cell_volume                     1603.06
loop_
_atom_site_label
_atom_site_type_symbol
_atom_site_fract_x
_atom_site_fract_y
_atom_site_fract_z
O6 O 0.1369(2) 0.4190(6) 0.21233(16)
C15 C 0.0290(3) 0.4248(10) 0.1491(2)
C16 C 0.0631(4) 0.4299(9) 0.0356(3)
H15 H 0.1200 0.4889 0.0235
H16 H 0.1256 0.3746 0.0187
Cd1 Cd 0.02661(2) 0.42145(3) 0.642220(15)
C4 C 0.0949(3) 0.09058(15) 0.6219(2)
H5 H 0.1729 0.0484 0.6084
C5 C 0.1148(2) 0.19130(16) 0.6148(2)
H6 H 0.2062 0.2165 0.5965
O1 O 0.0999(3) 0.4309(5) 0.82198(19)
N9 N 0.0272(3) 0.58941(12) 0.6379(2)
O12 O 0.1698(2) 0.4287(5) 0.47877(19)
O14 O 0.2915(3) 0.4149(5) 0.62392(18)
N2 N 0.0562(4) 0.8922(2) 0.6660(3)
H2 H 0.1423 0.9167 0.6772
C8 C 0.0416(3) 0.79228(12) 0.6536(3)
C9 C 0.1650(2) 0.73578(17) 0.6771(3)
H9 H 0.2525 0.7658 0.6981
C10 C 0.1579(2) 0.63434(17) 0.6693(3)
H10 H 0.2405 0.5965 0.6850
O5 O 0.9001(3) 0.4309(5) 0.17802(19)
Cd7 Cd 0.97339(2) 0.42145(3) 0.357780(15)
N3 N 0.9982(3) 0.25431(11) 0.6351(2)
C1 C 0.8616(3) 0.21661(16) 0.6625(2)
H3 H 0.7836 0.2588 0.6760
C2 C 0.8417(2) 0.11589(18) 0.6696(2)
H4 H 0.7503 0.0907 0.6879
C3 C 0.9583(3) 0.05288(12) 0.6493(2)
O2 O 0.8631(2) 0.4190(6) 0.78767(16)
C11 C 0.9710(3) 0.4248(10) 0.8509(2)
C12 C 0.9369(4) 0.4299(9) 0.9644(3)
H11 H 0.8800 0.4889 0.9765
H12 H 0.8744 0.3746 0.9813
O3 O 0.8302(2) 0.4287(5) 0.52123(19)
O4 O 0.7085(3) 0.4149(5) 0.37608(18)
C13 C 0.7112(3) 0.4210(6) 0.4717(2)
C14 C 0.5689(3) 0.4245(8) 0.5318(3)
H13 H 0.5665 0.3685 0.5778
H14 H 0.5699 0.4830 0.5743
C17 C 0.2888(3) 0.4210(6) 0.5283(2)
C18 C 0.4311(3) 0.4245(8) 0.4682(3)
H17 H 0.4335 0.3685 0.4222
H18 H 0.4301 0.4830 0.4257
N7 N 0.0018(3) 0.25431(11) 0.3649(2)
C19 C 0.1384(3) 0.21661(16) 0.3375(2)
H21 H 0.2164 0.2588 0.3240
C20 C 0.1583(2) 0.11589(18) 0.3304(2)
H22 H 0.2497 0.0907 0.3121
C21 C 0.0417(3) 0.05288(12) 0.3507(2)
C22 C 0.9051(3) 0.09058(15) 0.3781(2)
H23 H 0.8271 0.0484 0.3916
C23 C 0.8852(2) 0.19130(16) 0.3852(2)
H24 H 0.7938 0.2165 0.4035
N10 N 0.9728(3) 0.58941(12) 0.3621(2)
N6 N 0.9438(4) 0.8922(2) 0.3340(3)
H20 H 0.8577 0.9167 0.3228
C26 C 0.9584(3) 0.79228(12) 0.3464(3)
C27 C 0.8350(2) 0.73578(17) 0.3229(3)
H27 H 0.7475 0.7658 0.3019
C28 C 0.8421(2) 0.63434(17) 0.3307(3)
H28 H 0.7595 0.5965 0.3150
N1 N 0.9363(4) 0.9535(2) 0.6610(3)
H1 H 0.8484 0.9302 0.6651
C6 C 0.9038(2) 0.64591(17) 0.6144(2)
H7 H 0.8163 0.6158 0.5934
C7 C 0.9109(3) 0.74735(16) 0.6223(3)
H8 H 0.8283 0.7851 0.6065
N5 N 0.0637(4) 0.9535(2) 0.3390(3)
H19 H 0.1516 0.9302 0.3349
C24 C 0.0962(2) 0.64591(17) 0.3856(2)
H25 H 0.1837 0.6158 0.4066
C25 C 0.0891(3) 0.74735(16) 0.3777(3)
H26 H 0.1717 0.7851 0.3935
N9_2 N 0.5272(3) 0.08941(12) 0.1379(2)
Cd1_2 Cd 0.52661(2) 0.92145(3) 0.142220(15)
N1_2 N 0.4363(4) 0.4535(2) 0.1610(3)
H1_2 H 0.3484 0.4302 0.1651
N2_2 N 0.5562(4) 0.3922(2) 0.1660(3)
H2_2 H 0.6423 0.4167 0.1772
N3_2 N 0.4982(3) 0.75431(11) 0.1351(2)
C1_2 C 0.3616(3) 0.71661(16) 0.1625(2)
H3_2 H 0.2836 0.7588 0.1760
C2_2 C 0.3417(2) 0.61589(18) 0.1696(2)
H4_2 H 0.2503 0.5907 0.1879
C3_2 C 0.4583(3) 0.55288(12) 0.1493(2)
C4_2 C 0.5949(3) 0.59058(15) 0.1219(2)
H5_2 H 0.6729 0.5484 0.1084
C5_2 C 0.6148(2) 0.69130(16) 0.1148(2)
H6_2 H 0.7062 0.7165 0.0965
C6_2 C 0.4038(2) 0.14591(17) 0.1144(2)
H7_2 H 0.3163 0.1158 0.0934
C7_2 C 0.4109(3) 0.24735(16) 0.1223(3)
H8_2 H 0.3283 0.2851 0.1065
C8_2 C 0.5416(3) 0.29228(12) 0.1536(3)
C9_2 C 0.6650(2) 0.23578(17) 0.1771(3)
H9_2 H 0.7525 0.2658 0.1981
C10_2 C 0.6579(2) 0.13434(17) 0.1693(3)
H10_2 H 0.7405 0.0965 0.1850
O1_2 O 0.5999(3) 0.9309(5) 0.32198(19)
O2_2 O 0.3631(2) 0.9190(6) 0.28767(16)
C11_2 C 0.4710(3) 0.9248(10) 0.3509(2)
C12_2 C 0.4369(4) 0.9299(9) 0.4644(3)
H11_2 H 0.3800 0.9889 0.4765
H12_2 H 0.3744 0.8746 0.4813
O3_2 O 0.3302(2) 0.9287(5) 0.02123(19)
C14_2 C 0.0689(3) 0.9245(8) 0.0318(3)
H13_2 H 0.0665 0.8685 0.0778
H14_2 H 0.0699 0.9830 0.0743
O5_2 O 0.4001(3) 0.9309(5) 0.67802(19)
O6_2 O 0.6369(2) 0.9190(6) 0.71233(16)
C15_2 C 0.5290(3) 0.9248(10) 0.6491(2)
C16_2 C 0.5631(4) 0.9299(9) 0.5356(3)
H15_2 H 0.6200 0.9889 0.5235
H16_2 H 0.6256 0.8746 0.5187
Cd7_2 Cd 0.47339(2) 0.92145(3) 0.857780(15)
O14_2 O 0.7915(3) 0.9149(5) 0.12392(18)
O4_2 O 0.2085(3) 0.9149(5) 0.87608(18)
C13_2 C 0.2112(3) 0.9210(6) 0.9717(2)
O12_2 O 0.6698(2) 0.9287(5) 0.97877(19)
N10_2 N 0.4728(3) 0.08941(12) 0.8621(2)
C17_2 C 0.7888(3) 0.9210(6) 0.0283(2)
C18_2 C 0.9311(3) 0.9245(8) 0.9682(3)
H17_2 H 0.9335 0.8685 0.9222
H18_2 H 0.9301 0.9830 0.9257
N5_2 N 0.5637(4) 0.4535(2) 0.8390(3)
H19_2 H 0.6516 0.4302 0.8349
N6_2 N 0.4438(4) 0.3922(2) 0.8340(3)
H20_2 H 0.3577 0.4167 0.8228
N7_2 N 0.5018(3) 0.75431(11) 0.8649(2)
C19_2 C 0.6384(3) 0.71661(16) 0.8375(2)
H21_2 H 0.7164 0.7588 0.8240
C20_2 C 0.6583(2) 0.61589(18) 0.8304(2)
H22_2 H 0.7497 0.5907 0.8121
C21_2 C 0.5417(3) 0.55288(12) 0.8507(2)
C22_2 C 0.4051(3) 0.59058(15) 0.8781(2)
H23_2 H 0.3271 0.5484 0.8916
C23_2 C 0.3852(2) 0.69130(16) 0.8852(2)
H24_2 H 0.2938 0.7165 0.9035
C24_2 C 0.5962(2) 0.14591(17) 0.8856(2)
H25_2 H 0.6837 0.1158 0.9066
C25_2 C 0.5891(3) 0.24735(16) 0.8777(3)
H26_2 H 0.6717 0.2851 0.8935
C26_2 C 0.4584(3) 0.29228(12) 0.8464(3)
C27_2 C 0.3350(2) 0.23578(17) 0.8229(3)
H27_2 H 0.2475 0.2658 0.8019
C28_2 C 0.3421(2) 0.13434(17) 0.8307(3)
H28_2 H 0.2595 0.0965 0.8150
loop_
_geom_bond_atom_site_label_1
_geom_bond_atom_site_label_2
_geom_bond_site_symmetry_1
_geom_bond_site_symmetry_2
O6 C15 1_555 1_555
C15 C16 1_555 1_555
H15 C16 1_555 1_555
H16 C16 1_555 1_555
H5 C4 1_555 1_555
H6 C5 1_555 1_555
O1 Cd1 1_555 1_555
N9 Cd1 1_555 1_555
O12 Cd1 1_555 1_555
O14 Cd1 1_555 1_555
C4 C5 1_555 1_555
H2 N2 1_555 1_555
C8 N2 1_555 1_555
C9 C8 1_555 1_555
H9 C9 1_555 1_555
C10 N9 1_555 1_555
H10 C10 1_555 1_555
C9 C10 1_555 1_555
Cd7 O5 1_555 1_555
N3 C1 1_555 1_555
C1 H3 1_555 1_555
C2 C1 1_555 1_555
H4 C2 1_555 1_555
C12 C11 1_555 1_555
H11 C12 1_555 1_555
H12 C12 1_555 1_555
O4 C13 1_555 1_555
C13 O3 1_555 1_555
C14 C13 1_555 1_555
H13 C14 1_555 1_555
H14 C14 1_555 1_555
O12 C17 1_555 1_555
O14 C17 1_555 1_555
C17 C18 1_555 1_555
C18 C14 1_555 1_555
H17 C18 1_555 1_555
H18 C18 1_555 1_555
C19 N7 1_555 1_555
H21 C19 1_555 1_555
C20 C19 1_555 1_555
H22 C20 1_555 1_555
Cd7 O3 1_555 1_555
C2 C3 1_555 1_555
O2 C11 1_555 1_555
O4 Cd7 1_555 1_555
C20 C21 1_555 1_555
H23 C22 1_555 1_555
H24 C23 1_555 1_555
N10 Cd7 1_555 1_555
C22 C23 1_555 1_555
H20 N6 1_555 1_555
C26 N6 1_555 1_555
C27 C26 1_555 1_555
H27 C27 1_555 1_555
C28 N10 1_555 1_555
H28 C28 1_555 1_555
C27 C28 1_555 1_555
N1 H1 1_555 1_555
C6 H7 1_555 1_555
C7 C6 1_555 1_555
H8 C7 1_555 1_555
N5 H19 1_555 1_555
C24 H25 1_555 1_555
C25 C24 1_555 1_555
H26 C25 1_555 1_555
Cd1_2 N3_2 1_555 1_555
N1_2 H1_2 1_555 1_555
N2_2 N1_2 1_555 1_555
H2_2 N2_2 1_555 1_555
N3_2 C1_2 1_555 1_555
C1_2 H3_2 1_555 1_555
C2_2 C1_2 1_555 1_555
H4_2 C2_2 1_555 1_555
C3_2 N1_2 1_555 1_555
C4_2 C3_2 1_555 1_555
H5_2 C4_2 1_555 1_555
C5_2 N3_2 1_555 1_555
H6_2 C5_2 1_555 1_555
N9_2 C6_2 1_555 1_555
C6_2 H7_2 1_555 1_555
C7_2 C6_2 1_555 1_555
H8_2 C7_2 1_555 1_555
C8_2 N2_2 1_555 1_555
C9_2 C8_2 1_555 1_555
H9_2 C9_2 1_555 1_555
C10_2 N9_2 1_555 1_555
H10_2 C10_2 1_555 1_555
O1_2 Cd1_2 1_555 1_555
O2_2 Cd1_2 1_555 1_555
C11_2 O1_2 1_555 1_555
C12_2 C11_2 1_555 1_555
H11_2 C12_2 1_555 1_555
H12_2 C12_2 1_555 1_555
O3_2 Cd1_2 1_555 1_555
H13_2 C14_2 1_555 1_555
H14_2 C14_2 1_555 1_555
O5_2 C15_2 1_555 1_555
O6_2 C15_2 1_555 1_555
C15_2 C16_2 1_555 1_555
C16_2 C12_2 1_555 1_555
H15_2 C16_2 1_555 1_555
H16_2 C16_2 1_555 1_555
Cd7_2 O5_2 1_555 1_555
O14_2 Cd1_2 1_555 1_555
C2_2 C3_2 1_555 1_555
C4_2 C5_2 1_555 1_555
C7_2 C8_2 1_555 1_555
C9_2 C10_2 1_555 1_555
O2_2 C11_2 1_555 1_555
O6_2 Cd7_2 1_555 1_555
O4_2 C13_2 1_555 1_555
O4_2 Cd7_2 1_555 1_555
Cd7_2 O12_2 1_555 1_555
O14_2 C17_2 1_555 1_555
H17_2 C18_2 1_555 1_555
H18_2 C18_2 1_555 1_555
N5_2 H19_2 1_555 1_555
N6_2 N5_2 1_555 1_555
H20_2 N6_2 1_555 1_555
N7_2 Cd7_2 1_555 1_555
C19_2 N7_2 1_555 1_555
H21_2 C19_2 1_555 1_555
C20_2 C19_2 1_555 1_555
H22_2 C20_2 1_555 1_555
C21_2 N5_2 1_555 1_555
C22_2 C21_2 1_555 1_555
H23_2 C22_2 1_555 1_555
C23_2 N7_2 1_555 1_555
H24_2 C23_2 1_555 1_555
N10_2 C24_2 1_555 1_555
C24_2 H25_2 1_555 1_555
C25_2 C24_2 1_555 1_555
H26_2 C25_2 1_555 1_555
C26_2 N6_2 1_555 1_555
C27_2 C26_2 1_555 1_555
H27_2 C27_2 1_555 1_555
C28_2 N10_2 1_555 1_555
H28_2 C28_2 1_555 1_555
C20_2 C21_2 1_555 1_555
C22_2 C23_2 1_555 1_555
C25_2 C26_2 1_555 1_555
C27_2 C28_2 1_555 1_555

#END
