
###############################################################################
#
# This file contains modified crystal structure data generated from the
# MOF subset of the Cambridge Structural Database (CSD) v543 
# hosted by the Cambridge Crystallographic Data Centre (CCDC).
#
# This work is licensed under the Creative Commons
# Attribution-NonCommercial-ShareAlike 4.0 International License.
# To view a copy of this license, visit
# http://creativecommons.org/licenses/by-nc-sa/4.0/
# or send a letter to
# Creative Commons, PO Box 1866, Mountain View, CA 94042, USA.
#
# CIF created using the CSD Python API on 29 September 2022
# The structure has been converted into the P1 space group
# The structure has a 3D framework
# The original CSD entry UTEMAJ is in the monoclinic crystal system
# The framework has been calculated to contain at least 10.0% void space
# The void calculation uses a probe of radius 1.32A, grid spacing 0.4
#
###############################################################################

data_UTEMAJ
_chemical_formula_moiety         '(C108 H108 Mg8 N16 O30)n'
_symmetry_cell_setting           triclinic
_symmetry_space_group_name_H-M   'P 1'
_symmetry_Int_Tables_number      1
_space_group_name_Hall           'P 1'
loop_
_symmetry_equiv_pos_site_id
_symmetry_equiv_pos_as_xyz
1 x,y,z
_cell_length_a                   12.9785(7)
_cell_length_b                   11.7197(9)
_cell_length_c                   27.0870(17)
_cell_angle_alpha                90
_cell_angle_beta                 105.699(4)
_cell_angle_gamma                90
_cell_volume                     3966.35
loop_
_atom_site_label
_atom_site_type_symbol
_atom_site_fract_x
_atom_site_fract_y
_atom_site_fract_z
Mg4 Mg 0.0000 0.5000 0.0000
C1 C 0.1048(2) 0.2596(3) 0.00529(12)
C5 C 0.2170(2) 0.0839(3) 0.00674(13)
H1 H 0.1619 0.0412 0.0134
C7 C 0.3105(3) 0.0307(3) 0.00442(15)
H13 H 0.0487 0.0204 0.0699
O8 O 0.03717(17) 0.19803(18) 0.01830(9)
O18 O 0.04957(17) 0.50186(17) 0.07834(8)
O20 O 0.04340(18) 0.32750(19) 0.11084(8)
H40 H 0.9513 0.0204 0.4301
Mg5 Mg 1.0000 0.5000 0.5000
Mg8 Mg 0.92978(8) 0.75169(9) 0.55631(4)
O19 O 0.95660(18) 0.32750(19) 0.38916(8)
O22 O 0.96283(17) 0.19803(18) 0.48170(9)
C1_2 C 0.8952(2) 0.2596(3) 0.49471(12)
C3 C 0.7955(2) 0.2019(3) 0.50097(13)
C5_2 C 0.7830(2) 0.0839(3) 0.49326(13)
H1_2 H 0.8381 0.0412 0.4866
C7_2 C 0.6895(3) 0.0307(3) 0.49558(15)
C9 C 0.6091(3) 0.0947(3) 0.50619(15)
C12 C 0.7157(3) 0.2634(3) 0.51221(14)
H6 H 0.7245 0.3416 0.5177
C18 C 0.6222(3) 0.2120(3) 0.51563(17)
H10 H 0.5689 0.2545 0.5241
N3 N 0.5086(2) 0.0494(2) 0.50893(13)
O7 O 0.90254(16) 0.36377(17) 0.50238(8)
H29 H 0.3191 0.0475 0.5100
O17 O 0.87279(15) 0.61068(17) 0.50331(8)
O18_2 O 0.95043(17) 0.50186(17) 0.42166(8)
C54 C 0.0978(17) 0.1502(10) 0.6087(4)
H51 H 0.0955 0.1579 0.5732
H52 H 0.0985 0.2245 0.6237
H53 H 0.1614 0.1095 0.6263
C2 C 0.2017(2) 0.6761(3) 0.02087(12)
C4 C 0.2913(2) 0.6322(3) 0.06331(13)
C6 C 0.8407(2) 0.4642(3) 0.33846(12)
C8 C 0.3015(3) 0.5166(3) 0.07429(13)
H3 H 0.2514 0.4656 0.0552
C10 C 0.4507(3) 0.6683(4) 0.13096(16)
H4 H 0.5014 0.7194 0.1495
C11 C 0.3859(3) 0.4769(3) 0.11347(13)
H5 H 0.3934 0.3991 0.1202
C13 C 0.8105(3) 0.5763(3) 0.33109(14)
H7 H 0.8450 0.6303 0.3550
C14 C 0.9226(2) 0.4275(3) 0.38677(12)
C15 C 0.4594(3) 0.5535(3) 0.14280(14)
C16 C 0.7302(3) 0.6113(3) 0.28903(15)
H8 H 0.7114 0.6879 0.2846
C17 C 0.3660(3) 0.7075(3) 0.09120(16)
H9 H 0.3599 0.7849 0.0835
C19 C 0.6782(3) 0.5313(3) 0.25363(14)
C20 C 0.7900(3) 0.3850(4) 0.30229(15)
H11 H 0.8113 0.3090 0.3062
C21 C 0.7070(3) 0.4175(4) 0.25995(16)
H12 H 0.6716 0.3633 0.2363
N1 N 0.5413(2) 0.5033(3) 0.18378(12)
N2 N 0.5955(2) 0.5779(3) 0.21184(12)
O1 O 0.20192(17) 0.77943(19) 0.00807(9)
C35 C 0.7983(2) 0.6761(3) 0.47913(12)
C36 C 0.7087(2) 0.6322(3) 0.43669(13)
C37 C 0.1593(2) 0.4642(3) 0.16154(12)
C38 C 0.6985(3) 0.5166(3) 0.42571(13)
H32 H 0.7486 0.4656 0.4448
C39 C 0.5493(3) 0.6683(4) 0.36904(16)
H33 H 0.4986 0.7194 0.3505
C40 C 0.6141(3) 0.4769(3) 0.38653(13)
H34 H 0.6066 0.3991 0.3798
C41 C 0.1895(3) 0.5763(3) 0.16891(14)
H35 H 0.1550 0.6303 0.1450
C42 C 0.0774(2) 0.4275(3) 0.11323(12)
C43 C 0.5406(3) 0.5535(3) 0.35720(14)
C44 C 0.2698(3) 0.6113(3) 0.21097(15)
H36 H 0.2886 0.6879 0.2154
C45 C 0.6340(3) 0.7075(3) 0.40880(16)
H37 H 0.6401 0.7849 0.4165
C46 C 0.3218(3) 0.5313(3) 0.24637(14)
C47 C 0.2100(3) 0.3850(4) 0.19771(15)
H38 H 0.1887 0.3090 0.1938
C48 C 0.2930(3) 0.4175(4) 0.24005(16)
H39 H 0.3284 0.3633 0.2637
C49 C 0.9988(5) 0.9856(4) 0.58871(18)
C50 C 0.7168(6) 0.7615(8) 0.5938(3)
H41 H 0.7257 0.8109 0.6234
H42 H 0.6959 0.8090 0.5634
C51 C 0.6270(7) 0.6766(9) 0.5928(4)
H43 H 0.6390 0.6428 0.6266
H44 H 0.5596 0.7175 0.5853
C52 C 0.6182(5) 0.5799(7) 0.5532(3)
H45 H 0.6423 0.6075 0.5248
H46 H 0.6618 0.5166 0.5688
H47 H 0.5450 0.5558 0.5411
N6 N 0.4587(2) 0.5033(3) 0.31622(12)
N7 N 0.4045(2) 0.5779(3) 0.28816(12)
O11 O 0.79808(17) 0.77943(19) 0.49193(9)
O12 O 0.8193(2) 0.7076(3) 0.59596(11)
H54 H 0.8116 0.6312 0.5971
O13 O 0.9402(2) 0.9074(2) 0.58900(9)
Mg4_2 Mg 0.0000 0.5000 1.0000
Mg7 Mg 0.07022(8) 0.75169(9) 0.94369(4)
C3_2 C 0.2045(2) 0.2019(3) 0.99903(13)
C9_2 C 0.3909(3) 0.0947(3) 0.99381(15)
C12_2 C 0.2843(3) 0.2634(3) 0.98779(14)
H6_2 H 0.2755 0.3416 0.9823
C18_2 C 0.3778(3) 0.2120(3) 0.98437(17)
H10_2 H 0.4311 0.2545 0.9759
N3_2 N 0.4914(2) 0.0494(2) 0.99107(13)
O7_2 O 0.09746(16) 0.36377(17) 0.99762(8)
H29_2 H 0.6809 0.0475 0.9900
O17_2 O 0.12721(15) 0.61068(17) 0.99669(8)
C22 C 0.0012(5) 0.9856(4) 0.91129(18)
C23 C 0.2832(6) 0.7615(8) 0.9062(3)
H14 H 0.2743 0.8109 0.8766
H15 H 0.3041 0.8090 0.9366
C24 C 0.3730(7) 0.6766(9) 0.9072(4)
H16 H 0.3610 0.6428 0.8734
H17 H 0.4404 0.7175 0.9147
C25 C 0.3818(5) 0.5799(7) 0.9468(3)
H18 H 0.3577 0.6075 0.9752
H19 H 0.3382 0.5166 0.9312
H20 H 0.4550 0.5558 0.9589
O2 O 0.1807(2) 0.7076(3) 0.90404(11)
H27 H 0.1884 0.6312 0.9029
O3 O 0.0598(2) 0.9074(2) 0.91100(9)
C27 C 0.9022(17) 0.1502(10) 0.8913(4)
H24 H 0.9045 0.1579 0.9268
H25 H 0.9015 0.2245 0.8763
H26 H 0.8386 0.1095 0.8737
H2 H 0.3191 0.9525 0.0100
C27_2 C 0.0978(17) 0.8498(10) 0.1087(4)
H24_2 H 0.0955 0.8421 0.0732
H25_2 H 0.0985 0.7755 0.1237
H26_2 H 0.1614 0.8905 0.1263
C29 C 0.7955(2) 0.7981(3) 0.00097(13)
C32 C 0.6091(3) 0.9053(3) 0.00619(15)
C33 C 0.7157(3) 0.7366(3) 0.01221(14)
H30 H 0.7245 0.6584 0.0177
C34 C 0.6222(3) 0.7880(3) 0.01563(17)
H31 H 0.5689 0.7455 0.0241
N5 N 0.5086(2) 0.9506(2) 0.00893(13)
O9 O 0.90254(16) 0.63623(17) 0.00238(8)
Mg4_3 Mg 1.0000 0.5000 0.0000
C22_2 C 0.9988(5) 0.0144(4) 0.08871(18)
C23_2 C 0.7168(6) 0.2385(8) 0.0938(3)
H14_2 H 0.7257 0.1891 0.1234
H15_2 H 0.6959 0.1910 0.0634
C24_2 C 0.6270(7) 0.3234(9) 0.0928(4)
H16_2 H 0.6390 0.3572 0.1266
H17_2 H 0.5596 0.2825 0.0853
C25_2 C 0.6182(5) 0.4201(7) 0.0532(3)
H18_2 H 0.6423 0.3925 0.0248
H19_2 H 0.6618 0.4834 0.0688
H20_2 H 0.5450 0.4442 0.0411
Mg2 Mg 0.92978(8) 0.24831(9) 0.05631(4)
O2_2 O 0.8193(2) 0.2924(3) 0.09596(11)
H27_2 H 0.8116 0.3688 0.0971
O3_2 O 0.9402(2) 0.0926(2) 0.08900(9)
O4 O 0.87279(15) 0.38932(17) 0.00331(8)
C28 C 0.8952(2) 0.7404(3) 0.99471(12)
C30 C 0.7830(2) 0.9161(3) 0.99326(13)
H28 H 0.8381 0.9588 0.9866
C31 C 0.6895(3) 0.9693(3) 0.99558(15)
O10 O 0.96283(17) 0.80197(18) 0.98170(9)
Mg4_4 Mg 1.0000 0.5000 1.0000
C2_2 C 0.7983(2) 0.3239(3) 0.97913(12)
C4_2 C 0.7087(2) 0.3678(3) 0.93669(13)
C6_2 C 0.1593(2) 0.5358(3) 0.66154(12)
C8_2 C 0.6985(3) 0.4834(3) 0.92571(13)
H3_2 H 0.7486 0.5344 0.9448
C10_2 C 0.5493(3) 0.3317(4) 0.86904(16)
H4_2 H 0.4986 0.2806 0.8505
C11_2 C 0.6141(3) 0.5231(3) 0.88653(13)
H5_2 H 0.6066 0.6009 0.8798
C13_2 C 0.1895(3) 0.4237(3) 0.66891(14)
H7_2 H 0.1550 0.3697 0.6450
C14_2 C 0.0774(2) 0.5725(3) 0.61323(12)
C15_2 C 0.5406(3) 0.4465(3) 0.85720(14)
C16_2 C 0.2698(3) 0.3887(3) 0.71097(15)
H8_2 H 0.2886 0.3121 0.7154
C17_2 C 0.6340(3) 0.2925(3) 0.90880(16)
H9_2 H 0.6401 0.2151 0.9165
C19_2 C 0.3218(3) 0.4687(3) 0.74637(14)
C20_2 C 0.2100(3) 0.6150(4) 0.69771(15)
H11_2 H 0.1887 0.6910 0.6938
C21_2 C 0.2930(3) 0.5825(4) 0.74005(16)
H12_2 H 0.3284 0.6367 0.7637
N1_2 N 0.4587(2) 0.4967(3) 0.81622(12)
N2_2 N 0.4045(2) 0.4221(3) 0.78816(12)
O1_2 O 0.79808(17) 0.22057(19) 0.99193(9)
O5 O 0.04957(17) 0.49814(17) 0.57834(8)
O6 O 0.04340(18) 0.67250(19) 0.61084(8)
C35_2 C 0.2017(2) 0.3239(3) 0.52087(12)
C36_2 C 0.2913(2) 0.3678(3) 0.56331(13)
C37_2 C 0.8407(2) 0.5358(3) 0.83846(12)
C38_2 C 0.3015(3) 0.4834(3) 0.57429(13)
H32_2 H 0.2514 0.5344 0.5552
C39_2 C 0.4507(3) 0.3317(4) 0.63096(16)
H33_2 H 0.5014 0.2806 0.6495
C40_2 C 0.3859(3) 0.5231(3) 0.61347(13)
H34_2 H 0.3934 0.6009 0.6202
C41_2 C 0.8105(3) 0.4237(3) 0.83109(14)
H35_2 H 0.8450 0.3697 0.8550
C42_2 C 0.9226(2) 0.5725(3) 0.88677(12)
C43_2 C 0.4594(3) 0.4465(3) 0.64280(14)
C44_2 C 0.7302(3) 0.3887(3) 0.78903(15)
H36_2 H 0.7114 0.3121 0.7846
C45_2 C 0.3660(3) 0.2925(3) 0.59120(16)
H37_2 H 0.3599 0.2151 0.5835
C46_2 C 0.6782(3) 0.4687(3) 0.75363(14)
C47_2 C 0.7900(3) 0.6150(4) 0.80229(15)
H38_2 H 0.8113 0.6910 0.8062
C48_2 C 0.7070(3) 0.5825(4) 0.75995(16)
H39_2 H 0.6716 0.6367 0.7363
C49_2 C 0.0012(5) 0.0144(4) 0.41129(18)
C50_2 C 0.2832(6) 0.2385(8) 0.4062(3)
H41_2 H 0.2743 0.1891 0.3766
H42_2 H 0.3041 0.1910 0.4366
C51_2 C 0.3730(7) 0.3234(9) 0.4072(4)
H43_2 H 0.3610 0.3572 0.3734
H44_2 H 0.4404 0.2825 0.4147
C52_2 C 0.3818(5) 0.4201(7) 0.4468(3)
H45_2 H 0.3577 0.3925 0.4752
H46_2 H 0.3382 0.4834 0.4312
H47_2 H 0.4550 0.4442 0.4589
Mg3 Mg 0.07022(8) 0.24831(9) 0.44369(4)
N6_2 N 0.5413(2) 0.4967(3) 0.68378(12)
N7_2 N 0.5955(2) 0.4221(3) 0.71184(12)
O11_2 O 0.20192(17) 0.22057(19) 0.50807(9)
O12_2 O 0.1807(2) 0.2924(3) 0.40404(11)
H54_2 H 0.1884 0.3688 0.4029
O13_2 O 0.0598(2) 0.0926(2) 0.41100(9)
O14 O 0.12721(15) 0.38932(17) 0.49669(8)
O15 O 0.95043(17) 0.49814(17) 0.92166(8)
O16 O 0.95660(18) 0.67250(19) 0.88916(8)
Mg5_2 Mg 0.0000 0.5000 0.5000
C54_2 C 0.9022(17) 0.8498(10) 0.3913(4)
H51_2 H 0.9045 0.8421 0.4268
H52_2 H 0.9015 0.7755 0.3763
H53_2 H 0.8386 0.8905 0.3737
O21 O 0.09746(16) 0.63623(17) 0.49762(8)
H2_2 H 0.6809 0.9525 0.4900
C28_2 C 0.1048(2) 0.7404(3) 0.50529(12)
C29_2 C 0.2045(2) 0.7981(3) 0.49903(13)
C30_2 C 0.2170(2) 0.9161(3) 0.50674(13)
H28_2 H 0.1619 0.9588 0.5134
C31_2 C 0.3105(3) 0.9693(3) 0.50442(15)
C32_2 C 0.3909(3) 0.9053(3) 0.49381(15)
C33_2 C 0.2843(3) 0.7366(3) 0.48779(14)
H30_2 H 0.2755 0.6584 0.4823
C34_2 C 0.3778(3) 0.7880(3) 0.48437(17)
H31_2 H 0.4311 0.7455 0.4759
N5_2 N 0.4914(2) 0.9506(2) 0.49107(13)
O10_2 O 0.03717(17) 0.80197(18) 0.51830(9)
H40_2 H 0.0487 0.9796 0.5699
H13_2 H 0.9513 0.9796 0.9301
C26 C 0.9045(13) 0.891(2) 0.1402(5)
H21 H 0.9137 0.9382 0.1701
H22 H 0.9079 0.8122 0.1500
H23 H 0.8363 0.9067 0.1166
N4 N 0.9949(9) 0.9200(6) 0.1142(3)
C53 C 0.0955(13) 0.891(2) 0.3598(5)
H48 H 0.0863 0.9382 0.3299
H49 H 0.0921 0.8122 0.3500
H50 H 0.1637 0.9067 0.3834
N8 N 0.0051(9) 0.9200(6) 0.3858(3)
C53_2 C 0.9045(13) 0.109(2) 0.6402(5)
H48_2 H 0.9137 0.0618 0.6701
H49_2 H 0.9079 0.1878 0.6500
H50_2 H 0.8363 0.0933 0.6166
N8_2 N 0.9949(9) 0.0800(6) 0.6142(3)
C26_2 C 0.0955(13) 0.109(2) 0.8598(5)
H21_2 H 0.0863 0.0618 0.8299
H22_2 H 0.0921 0.1878 0.8500
H23_2 H 0.1637 0.0933 0.8834
N4_2 N 0.0051(9) 0.0800(6) 0.8858(3)
loop_
_geom_bond_atom_site_label_1
_geom_bond_atom_site_label_2
_geom_bond_site_symmetry_1
_geom_bond_site_symmetry_2
C5 H1 1_555 1_555
C7 C5 1_555 1_555
O8 C1 1_555 1_555
O18 Mg4 1_555 1_555
C1_2 C3 1_555 1_555
C3 C5_2 1_555 1_555
C5_2 H1_2 1_555 1_555
C7_2 C5_2 1_555 1_555
C9 C7_2 1_555 1_555
C12 C3 1_555 1_555
H6 C12 1_555 1_555
C18 C9 1_555 1_555
H10 C18 1_555 1_555
N3 C9 1_555 1_555
O7 C1_2 1_555 1_555
O22 C1_2 1_555 1_555
O17 Mg5 1_555 1_555
O18_2 Mg5 1_555 1_555
C12 C18 1_555 1_555
Mg5 O7 1_555 1_555
Mg8 O17 1_555 1_555
C54 H51 1_555 1_555
H52 C54 1_555 1_555
H53 C54 1_555 1_555
C2 C4 1_555 1_555
C4 C8 1_555 1_555
C6 C13 1_555 1_555
C8 H3 1_555 1_555
C10 H4 1_555 1_555
C11 C8 1_555 1_555
H5 C11 1_555 1_555
C13 H7 1_555 1_555
C14 C6 1_555 1_555
C15 C10 1_555 1_555
C16 C13 1_555 1_555
H8 C16 1_555 1_555
C17 C4 1_555 1_555
H9 C17 1_555 1_555
C19 C16 1_555 1_555
C20 C6 1_555 1_555
H11 C20 1_555 1_555
C21 C19 1_555 1_555
H12 C21 1_555 1_555
N1 C15 1_555 1_555
N2 C19 1_555 1_555
O1 C2 1_555 1_555
O18_2 C14 1_555 1_555
O19 C14 1_555 1_555
C35 C36 1_555 1_555
C36 C38 1_555 1_555
C37 C41 1_555 1_555
C38 H32 1_555 1_555
C39 H33 1_555 1_555
C40 C38 1_555 1_555
H34 C40 1_555 1_555
C41 H35 1_555 1_555
C42 C37 1_555 1_555
C43 C39 1_555 1_555
C44 C41 1_555 1_555
H36 C44 1_555 1_555
C45 C36 1_555 1_555
H37 C45 1_555 1_555
C46 C44 1_555 1_555
C47 C37 1_555 1_555
H38 C47 1_555 1_555
C48 C46 1_555 1_555
H39 C48 1_555 1_555
C50 H41 1_555 1_555
H42 C50 1_555 1_555
C51 C50 1_555 1_555
H43 C51 1_555 1_555
H44 C51 1_555 1_555
C52 C51 1_555 1_555
H45 C52 1_555 1_555
H46 C52 1_555 1_555
H47 C52 1_555 1_555
Mg8 O11 1_555 1_555
N6 C43 1_555 1_555
N7 C46 1_555 1_555
O11 C35 1_555 1_555
O12 C50 1_555 1_555
H54 O12 1_555 1_555
O13 C49 1_555 1_555
O17 C35 1_555 1_555
O20 C42 1_555 1_555
C10 C17 1_555 1_555
C11 C15 1_555 1_555
C20 C21 1_555 1_555
N1 N2 1_555 1_555
C39 C45 1_555 1_555
C40 C43 1_555 1_555
C42 O18 1_555 1_555
C47 C48 1_555 1_555
Mg8 O12 1_555 1_555
Mg8 O13 1_555 1_555
N6 N7 1_555 1_555
C12_2 C3_2 1_555 1_555
H6_2 C12_2 1_555 1_555
C18_2 C9_2 1_555 1_555
H10_2 C18_2 1_555 1_555
N3_2 C9_2 1_555 1_555
O17_2 Mg4_2 1_555 1_555
C12_2 C18_2 1_555 1_555
Mg4_2 O7_2 1_555 1_555
Mg7 O17_2 1_555 1_555
C23 H14 1_555 1_555
H15 C23 1_555 1_555
C24 C23 1_555 1_555
H16 C24 1_555 1_555
H17 C24 1_555 1_555
C25 C24 1_555 1_555
H18 C25 1_555 1_555
H19 C25 1_555 1_555
H20 C25 1_555 1_555
O2 C23 1_555 1_555
H27 O2 1_555 1_555
O3 C22 1_555 1_555
Mg7 O2 1_555 1_555
Mg7 O3 1_555 1_555
C27 H24 1_555 1_555
H25 C27 1_555 1_555
H26 C27 1_555 1_555
C27_2 H24_2 1_555 1_555
H25_2 C27_2 1_555 1_555
H26_2 C27_2 1_555 1_555
C33 C29 1_555 1_555
H30 C33 1_555 1_555
C34 C32 1_555 1_555
H31 C34 1_555 1_555
Mg4_3 O9 1_555 1_555
C32 N5 1_555 1_555
C33 C34 1_555 1_555
C23_2 H14_2 1_555 1_555
H15_2 C23_2 1_555 1_555
C24_2 C23_2 1_555 1_555
H16_2 C24_2 1_555 1_555
H17_2 C24_2 1_555 1_555
C25_2 C24_2 1_555 1_555
H18_2 C25_2 1_555 1_555
H19_2 C25_2 1_555 1_555
H20_2 C25_2 1_555 1_555
Mg4_3 O4 1_555 1_555
O2_2 C23_2 1_555 1_555
H27_2 O2_2 1_555 1_555
O3_2 C22_2 1_555 1_555
Mg2 O2_2 1_555 1_555
Mg2 O3_2 1_555 1_555
Mg2 O4 1_555 1_555
C30 H28 1_555 1_555
C31 C30 1_555 1_555
O10 C28 1_555 1_555
C2_2 C4_2 1_555 1_555
C4_2 C8_2 1_555 1_555
C6_2 C13_2 1_555 1_555
C8_2 H3_2 1_555 1_555
C10_2 H4_2 1_555 1_555
C11_2 C8_2 1_555 1_555
H5_2 C11_2 1_555 1_555
C13_2 H7_2 1_555 1_555
C14_2 C6_2 1_555 1_555
C15_2 C10_2 1_555 1_555
C16_2 C13_2 1_555 1_555
H8_2 C16_2 1_555 1_555
C17_2 C4_2 1_555 1_555
H9_2 C17_2 1_555 1_555
C19_2 C16_2 1_555 1_555
C20_2 C6_2 1_555 1_555
H11_2 C20_2 1_555 1_555
C21_2 C19_2 1_555 1_555
H12_2 C21_2 1_555 1_555
N1_2 C15_2 1_555 1_555
N2_2 C19_2 1_555 1_555
O1_2 C2_2 1_555 1_555
O5 C14_2 1_555 1_555
O6 C14_2 1_555 1_555
C35_2 C36_2 1_555 1_555
C36_2 C38_2 1_555 1_555
C37_2 C41_2 1_555 1_555
C38_2 H32_2 1_555 1_555
C39_2 H33_2 1_555 1_555
C40_2 C38_2 1_555 1_555
H34_2 C40_2 1_555 1_555
C41_2 H35_2 1_555 1_555
C42_2 C37_2 1_555 1_555
C43_2 C39_2 1_555 1_555
C44_2 C41_2 1_555 1_555
H36_2 C44_2 1_555 1_555
C45_2 C36_2 1_555 1_555
H37_2 C45_2 1_555 1_555
C46_2 C44_2 1_555 1_555
C47_2 C37_2 1_555 1_555
H38_2 C47_2 1_555 1_555
C48_2 C46_2 1_555 1_555
H39_2 C48_2 1_555 1_555
C50_2 H41_2 1_555 1_555
H42_2 C50_2 1_555 1_555
C51_2 C50_2 1_555 1_555
H43_2 C51_2 1_555 1_555
H44_2 C51_2 1_555 1_555
C52_2 C51_2 1_555 1_555
H45_2 C52_2 1_555 1_555
H46_2 C52_2 1_555 1_555
H47_2 C52_2 1_555 1_555
Mg3 O11_2 1_555 1_555
N6_2 C43_2 1_555 1_555
N7_2 C46_2 1_555 1_555
O11_2 C35_2 1_555 1_555
O12_2 C50_2 1_555 1_555
H54_2 O12_2 1_555 1_555
O13_2 C49_2 1_555 1_555
O14 C35_2 1_555 1_555
O15 Mg4_4 1_555 1_555
O16 C42_2 1_555 1_555
Mg5_2 O5 1_555 1_555
C10_2 C17_2 1_555 1_555
C11_2 C15_2 1_555 1_555
C20_2 C21_2 1_555 1_555
N1_2 N2_2 1_555 1_555
C39_2 C45_2 1_555 1_555
C40_2 C43_2 1_555 1_555
C42_2 O15 1_555 1_555
C47_2 C48_2 1_555 1_555
Mg3 O12_2 1_555 1_555
Mg3 O13_2 1_555 1_555
Mg3 O14 1_555 1_555
N6_2 N7_2 1_555 1_555
O14 Mg5_2 1_555 1_555
C54_2 H51_2 1_555 1_555
H52_2 C54_2 1_555 1_555
H53_2 C54_2 1_555 1_555
O21 Mg5_2 1_555 1_555
C28_2 C29_2 1_555 1_555
C29_2 C30_2 1_555 1_555
C30_2 H28_2 1_555 1_555
C31_2 C30_2 1_555 1_555
C32_2 C31_2 1_555 1_555
C33_2 C29_2 1_555 1_555
H30_2 C33_2 1_555 1_555
C34_2 C32_2 1_555 1_555
H31_2 C34_2 1_555 1_555
O21 C28_2 1_555 1_555
O10_2 C28_2 1_555 1_555
C32_2 N5_2 1_555 1_555
C33_2 C34_2 1_555 1_555
C26 H21 1_555 1_555
H22 C26 1_555 1_555
H23 C26 1_555 1_555
C26 N4 1_555 1_555
C53 H48 1_555 1_555
H49 C53 1_555 1_555
H50 C53 1_555 1_555
C53 N8 1_555 1_555
C53_2 H48_2 1_555 1_555
H49_2 C53_2 1_555 1_555
H50_2 C53_2 1_555 1_555
C53_2 N8_2 1_555 1_555
C26_2 H21_2 1_555 1_555
H22_2 C26_2 1_555 1_555
H23_2 C26_2 1_555 1_555
C26_2 N4_2 1_555 1_555

#END
