
###############################################################################
#
# This file contains modified crystal structure data generated from the
# MOF subset of the Cambridge Structural Database (CSD) v543 
# hosted by the Cambridge Crystallographic Data Centre (CCDC).
#
# This work is licensed under the Creative Commons
# Attribution-NonCommercial-ShareAlike 4.0 International License.
# To view a copy of this license, visit
# http://creativecommons.org/licenses/by-nc-sa/4.0/
# or send a letter to
# Creative Commons, PO Box 1866, Mountain View, CA 94042, USA.
#
# CIF created using the CSD Python API on 29 September 2022
# The structure has been converted into the P1 space group
# The structure has a 3D framework
# The original CSD entry UTEXAT is in the tetragonal crystal system
# The framework has been calculated to contain at least 10.0% void space
# The void calculation uses a probe of radius 1.32A, grid spacing 0.4
#
###############################################################################

data_UTEXAT
_chemical_formula_moiety         '(C120 H72 N48 Zn10)n'
_symmetry_cell_setting           triclinic
_symmetry_space_group_name_H-M   'P 1'
_symmetry_Int_Tables_number      1
_space_group_name_Hall           'P 1'
loop_
_symmetry_equiv_pos_site_id
_symmetry_equiv_pos_as_xyz
1 x,y,z
_cell_length_a                   15.55503(99)
_cell_length_b                   15.55503(99)
_cell_length_c                   20.0304(16)
_cell_angle_alpha                90
_cell_angle_beta                 90
_cell_angle_gamma                90
_cell_volume                     4846.53
loop_
_atom_site_label
_atom_site_type_symbol
_atom_site_fract_x
_atom_site_fract_y
_atom_site_fract_z
N7 N 0.007310 0.068990 0.922500
C17 C 0.051500 0.051410 0.819030
C18 C 0.060590 0.060540 0.747340
C19 C 0.009960 0.119380 0.712950
C20 C 0.018680 0.128140 0.644220
C21 C 0.078020 0.078060 0.609880
H12 H 0.083970 0.084040 0.562910
H13 H 0.052940 0.277430 0.570800
N10 N 0.068990 0.007310 0.922500
C26 C 0.119380 0.009960 0.712950
C27 C 0.128140 0.018680 0.644220
H17 H 0.277430 0.052940 0.570800
C10 C 0.003770 0.903850 0.141460
H6 H 0.043200 0.861130 0.155990
H7 H 0.030600 0.846390 0.263570
C13 C 0.034140 0.810480 0.391640
C14 C 0.005320 0.740130 0.425170
C15 C 0.121180 0.813170 0.397660
H9 H 0.158060 0.855580 0.379110
N5 N 0.146160 0.744470 0.434910
N6 N 0.074560 0.699330 0.451910
Zn4 Zn 0.08306(27) 0.58306(27) 0.50000
Zn6 Zn 0.08306(27) 0.91694(27) 0.00000
Zn10 Zn 0.25000 0.75000 0.50000
C25 C 0.096150 0.996230 0.858540
H15 H 0.138870 0.956800 0.844010
H16 H 0.153610 0.969400 0.736430
C28 C 0.189520 0.965860 0.608360
C29 C 0.259870 0.994680 0.574830
C30 C 0.186830 0.878820 0.602340
H18 H 0.144420 0.841940 0.620890
N11 N 0.255530 0.853840 0.565090
N12 N 0.300670 0.925440 0.548090
Zn5 Zn 0.41694(27) 0.91694(27) 0.50000
Zn6_2 Zn 0.08306(27) 0.91694(27) 1.00000
Zn1 Zn 0.91694(27) 0.08306(27) 0.00000
N2 N 0.699330 0.074560 0.451910
C1 C 0.903850 0.003770 0.141460
H1 H 0.861130 0.043200 0.155990
H2 H 0.846390 0.030600 0.263570
C7 C 0.810480 0.034140 0.391640
C8 C 0.740130 0.005320 0.425170
C9 C 0.813170 0.121180 0.397660
H5 H 0.855580 0.158060 0.379110
N3 N 0.744470 0.146160 0.434910
Zn2 Zn 0.75000 0.25000 0.50000
Zn3 Zn 0.58306(27) 0.08306(27) 0.50000
N14 N 0.492690 0.068990 0.422500
N15 N 0.574560 0.199330 0.548090
N17 N 0.925440 0.199330 0.048090
N18 N 0.755530 0.353840 0.434910
N19 N 0.853840 0.255530 0.565090
N20 N 0.646160 0.244470 0.565090
Zn1_2 Zn 0.91694(27) 0.08306(27) 1.00000
N8 N 0.925440 0.300670 0.548090
C16 C 0.996230 0.096150 0.858540
H10 H 0.956800 0.138870 0.844010
H11 H 0.969400 0.153610 0.736430
C22 C 0.965860 0.189520 0.608360
C23 C 0.994680 0.259870 0.574830
C24 C 0.878820 0.186830 0.602340
H14 H 0.841940 0.144420 0.620890
Zn7 Zn 0.91694(27) 0.41694(27) 0.50000
N16 N 0.800670 0.074560 0.951910
N1 N 0.931010 0.992690 0.077500
C2 C 0.948590 0.948500 0.180970
C3 C 0.939460 0.939410 0.252660
C4 C 0.880620 0.990040 0.287050
C5 C 0.871860 0.981320 0.355780
C6 C 0.921940 0.921980 0.390120
H3 H 0.915960 0.916030 0.437090
H4 H 0.722570 0.947060 0.429200
N4 N 0.992690 0.931010 0.077500
C11 C 0.990040 0.880620 0.287050
C12 C 0.981320 0.871860 0.355780
H8 H 0.947060 0.722570 0.429200
N13 N 0.568990 0.992690 0.577500
Zn8 Zn 0.25000 0.75000 0.00000
N1_2 N 0.068990 0.492690 0.422500
N2_2 N 0.300670 0.574560 0.048090
C1_2 C 0.096150 0.503770 0.358540
C2_2 C 0.051410 0.448500 0.319030
H1_2 H 0.138870 0.543200 0.344010
C3_2 C 0.060540 0.439410 0.247340
C4_2 C 0.119380 0.490040 0.212950
C5_2 C 0.128140 0.481320 0.144220
H2_2 H 0.153610 0.530600 0.236430
C6_2 C 0.078060 0.421980 0.109880
C7_2 C 0.189520 0.534140 0.108360
H3_2 H 0.084040 0.416030 0.062910
C8_2 C 0.259870 0.505320 0.074830
C9_2 C 0.186830 0.621180 0.102340
H4_2 H 0.277430 0.447060 0.070800
H5_2 H 0.144420 0.658060 0.120890
N3_2 N 0.255530 0.646160 0.065090
N4_2 N 0.007310 0.431010 0.422500
C11_2 C 0.009960 0.380620 0.212950
C12_2 C 0.018680 0.371860 0.144220
H8_2 H 0.052940 0.222570 0.070800
N8_2 N 0.074560 0.800670 0.951910
C16_2 C 0.003770 0.596150 0.641460
H10_2 H 0.043200 0.638870 0.655990
H11_2 H 0.030600 0.653610 0.763570
C22_2 C 0.034140 0.689520 0.891640
C23_2 C 0.005320 0.759870 0.925170
C24_2 C 0.121180 0.686830 0.897660
H14_2 H 0.158060 0.644420 0.879110
N9 N 0.146160 0.755530 0.934910
Zn3_2 Zn 0.41694(27) 0.58306(27) 0.00000
N14_2 N 0.507310 0.568990 0.077500
N16_2 N 0.199330 0.574560 0.548090
N18_2 N 0.244470 0.853840 0.065090
Zn8_2 Zn 0.25000 0.75000 1.00000
Zn3_3 Zn 0.41694(27) 0.58306(27) 1.00000
N13_2 N 0.431010 0.492690 0.922500
N15_2 N 0.425440 0.699330 0.951910
N20_2 N 0.353840 0.744470 0.934910
Zn5_2 Zn 0.58306(27) 0.41694(27) 0.00000
Zn9 Zn 0.75000 0.25000 0.00000
C10_2 C 0.996230 0.403850 0.358540
H6_2 H 0.956800 0.361130 0.344010
H7_2 H 0.969400 0.346390 0.236430
C13_2 C 0.965860 0.310480 0.108360
C14_2 C 0.994680 0.240130 0.074830
C15_2 C 0.878820 0.313170 0.102340
H9_2 H 0.841940 0.355580 0.120890
N5_2 N 0.853840 0.244470 0.065090
N7_2 N 0.992690 0.568990 0.577500
C17_2 C 0.948500 0.551410 0.680970
C18_2 C 0.939410 0.560540 0.752660
C19_2 C 0.990040 0.619380 0.787050
C20_2 C 0.981320 0.628140 0.855780
C21_2 C 0.921980 0.578060 0.890120
H12_2 H 0.916030 0.584040 0.937090
H13_2 H 0.947060 0.777430 0.929200
N10_2 N 0.931010 0.507310 0.577500
C25_2 C 0.903850 0.496230 0.641460
H15_2 H 0.861130 0.456800 0.655990
C26_2 C 0.880620 0.509960 0.787050
C27_2 C 0.871860 0.518680 0.855780
H16_2 H 0.846390 0.469400 0.763570
C28_2 C 0.810480 0.465860 0.891640
C29_2 C 0.740130 0.494680 0.925170
C30_2 C 0.813170 0.378820 0.897660
H17_2 H 0.722570 0.552940 0.929200
H18_2 H 0.855580 0.341940 0.879110
N11_2 N 0.744470 0.353840 0.934910
N12_2 N 0.699330 0.425440 0.951910
Zn5_3 Zn 0.58306(27) 0.41694(27) 1.00000
Zn9_2 Zn 0.75000 0.25000 1.00000
N1_3 N 0.431010 0.007310 0.422500
C2_3 C 0.448590 0.051500 0.319030
C3_3 C 0.439460 0.060590 0.247340
C4_3 C 0.380620 0.009960 0.212950
C5_3 C 0.371860 0.018680 0.144220
C6_3 C 0.421940 0.078020 0.109880
H3_3 H 0.415960 0.083970 0.062910
H4_3 H 0.222570 0.052940 0.070800
C10_3 C 0.503770 0.096150 0.358540
H6_3 H 0.543200 0.138870 0.344010
C11_3 C 0.490040 0.119380 0.212950
C12_3 C 0.481320 0.128140 0.144220
H7_3 H 0.530600 0.153610 0.236430
C13_3 C 0.534140 0.189520 0.108360
C14_3 C 0.505320 0.259870 0.074830
C15_3 C 0.621180 0.186830 0.102340
H8_3 H 0.447060 0.277430 0.070800
H9_3 H 0.658060 0.144420 0.120890
N5_3 N 0.646160 0.255530 0.065090
N6_2 N 0.574560 0.300670 0.048090
C25_3 C 0.596150 0.003770 0.641460
H15_3 H 0.638870 0.043200 0.655990
H16_3 H 0.653610 0.030600 0.763570
C28_3 C 0.689520 0.034140 0.891640
C29_3 C 0.759870 0.005320 0.925170
C30_3 C 0.686830 0.121180 0.897660
H18_3 H 0.644420 0.158060 0.879110
N11_3 N 0.755530 0.146160 0.934910
N2_3 N 0.199330 0.925440 0.048090
C1_3 C 0.403850 0.996230 0.358540
H1_3 H 0.361130 0.956800 0.344010
H2_3 H 0.346390 0.969400 0.236430
C7_3 C 0.310480 0.965860 0.108360
C8_3 C 0.240130 0.994680 0.074830
C9_3 C 0.313170 0.878820 0.102340
H5_3 H 0.355580 0.841940 0.120890
N7_3 N 0.507310 0.931010 0.577500
C16_3 C 0.496230 0.903850 0.641460
C17_3 C 0.551500 0.948590 0.680970
H10_3 H 0.456800 0.861130 0.655990
C18_3 C 0.560590 0.939460 0.752660
C19_3 C 0.509960 0.880620 0.787050
C20_3 C 0.518680 0.871860 0.855780
H11_3 H 0.469400 0.846390 0.763570
C21_3 C 0.578020 0.921940 0.890120
C22_3 C 0.465860 0.810480 0.891640
H12_3 H 0.583970 0.915960 0.937090
C23_3 C 0.494680 0.740130 0.925170
C24_3 C 0.378820 0.813170 0.897660
H13_3 H 0.552940 0.722570 0.929200
H14_3 H 0.341940 0.855580 0.879110
C26_3 C 0.619380 0.990040 0.787050
C27_3 C 0.628140 0.981320 0.855780
H17_3 H 0.777430 0.947060 0.929200
N17_2 N 0.425440 0.800670 0.451910
N1_4 N 0.568990 0.507310 0.077500
N2_4 N 0.800670 0.425440 0.451910
C1_4 C 0.596150 0.496230 0.141460
C2_4 C 0.551410 0.551500 0.180970
H1_4 H 0.638870 0.456800 0.155990
C3_4 C 0.560540 0.560590 0.252660
C4_4 C 0.619380 0.509960 0.287050
C5_4 C 0.628140 0.518680 0.355780
H2_4 H 0.653610 0.469400 0.263570
C6_4 C 0.578060 0.578020 0.390120
C7_4 C 0.689520 0.465860 0.391640
H3_4 H 0.584040 0.583970 0.437090
C8_4 C 0.759870 0.494680 0.425170
C9_4 C 0.686830 0.378820 0.397660
H4_4 H 0.777430 0.552940 0.429200
H5_4 H 0.644420 0.341940 0.379110
C10_4 C 0.496230 0.596150 0.141460
H6_4 H 0.456800 0.638870 0.155990
C11_4 C 0.509960 0.619380 0.287050
C12_4 C 0.518680 0.628140 0.355780
H7_4 H 0.469400 0.653610 0.263570
C13_4 C 0.465860 0.689520 0.391640
C14_4 C 0.494680 0.759870 0.425170
C15_4 C 0.378820 0.686830 0.397660
H8_4 H 0.552940 0.777430 0.429200
H9_4 H 0.341940 0.644420 0.379110
N5_4 N 0.353840 0.755530 0.434910
N7_4 N 0.492690 0.431010 0.922500
C16_4 C 0.503770 0.403850 0.858540
C17_4 C 0.448500 0.448590 0.819030
H10_4 H 0.543200 0.361130 0.844010
C18_4 C 0.439410 0.439460 0.747340
C19_4 C 0.490040 0.380620 0.712950
C20_4 C 0.481320 0.371860 0.644220
H11_4 H 0.530600 0.346390 0.736430
C21_4 C 0.421980 0.421940 0.609880
C22_4 C 0.534140 0.310480 0.608360
H12_4 H 0.416030 0.415960 0.562910
C23_4 C 0.505320 0.240130 0.574830
C24_4 C 0.621180 0.313170 0.602340
H13_4 H 0.447060 0.222570 0.570800
H14_4 H 0.658060 0.355580 0.620890
C25_4 C 0.403850 0.503770 0.858540
H15_4 H 0.361130 0.543200 0.844010
C26_4 C 0.380620 0.490040 0.712950
C27_4 C 0.371860 0.481320 0.644220
H16_4 H 0.346390 0.530600 0.736430
C28_4 C 0.310480 0.534140 0.608360
C29_4 C 0.240130 0.505320 0.574830
C30_4 C 0.313170 0.621180 0.602340
H17_4 H 0.222570 0.447060 0.570800
H18_4 H 0.355580 0.658060 0.620890
N11_4 N 0.244470 0.646160 0.565090
loop_
_geom_bond_atom_site_label_1
_geom_bond_atom_site_label_2
_geom_bond_site_symmetry_1
_geom_bond_site_symmetry_2
C18 C17 1_555 1_555
C19 C18 1_555 1_555
C20 C19 1_555 1_555
C21 C20 1_555 1_555
H12 C21 1_555 1_555
N10 N7 1_555 1_555
C26 C18 1_555 1_555
C27 C21 1_555 1_555
C26 C27 1_555 1_555
H6 C10 1_555 1_555
C14 C13 1_555 1_555
C15 C13 1_555 1_555
H9 C15 1_555 1_555
N5 C15 1_555 1_555
N6 C14 1_555 1_555
Zn4 N6 1_555 1_555
Zn10 N5 1_555 1_555
N5 N6 1_555 1_555
H15 C25 1_555 1_555
C29 C28 1_555 1_555
C30 C28 1_555 1_555
H18 C30 1_555 1_555
N11 C30 1_555 1_555
N12 C29 1_555 1_555
Zn5 N12 1_555 1_555
Zn10 N11 1_555 1_555
N11 N12 1_555 1_555
N2 C8 1_555 1_555
H1 C1 1_555 1_555
C8 C7 1_555 1_555
C9 C7 1_555 1_555
H5 C9 1_555 1_555
N3 N2 1_555 1_555
Zn2 N3 1_555 1_555
Zn3 N2 1_555 1_555
N14 Zn3 1_555 1_555
N15 Zn3 1_555 1_555
N17 Zn1 1_555 1_555
N18 Zn2 1_555 1_555
N19 Zn2 1_555 1_555
N20 Zn2 1_555 1_555
C9 N3 1_555 1_555
N15 N20 1_555 1_555
N8 C23 1_555 1_555
H10 C16 1_555 1_555
C23 C22 1_555 1_555
C24 C22 1_555 1_555
H14 C24 1_555 1_555
N19 N8 1_555 1_555
Zn7 N8 1_555 1_555
N16 Zn1_2 1_555 1_555
C24 N19 1_555 1_555
C2 C3 1_555 1_555
C3 C4 1_555 1_555
C4 C5 1_555 1_555
C5 C6 1_555 1_555
C6 H3 1_555 1_555
N4 N1 1_555 1_555
C11 C3 1_555 1_555
C12 C6 1_555 1_555
C11 C12 1_555 1_555
Zn4 N1_2 1_555 1_555
N1_2 C1_2 1_555 1_555
N2_2 C8_2 1_555 1_555
C1_2 C2_2 1_555 1_555
C2_2 C3_2 1_555 1_555
H1_2 C1_2 1_555 1_555
C3_2 C4_2 1_555 1_555
C4_2 C5_2 1_555 1_555
C5_2 C6_2 1_555 1_555
H2_2 C4_2 1_555 1_555
C6_2 H3_2 1_555 1_555
C7_2 C5_2 1_555 1_555
C8_2 C7_2 1_555 1_555
C9_2 C7_2 1_555 1_555
H4_2 C8_2 1_555 1_555
H5_2 C9_2 1_555 1_555
N3_2 N2_2 1_555 1_555
Zn8 N3_2 1_555 1_555
N4_2 N1_2 1_555 1_555
C11_2 C3_2 1_555 1_555
C12_2 C6_2 1_555 1_555
N8_2 C23_2 1_555 1_555
H10_2 C16_2 1_555 1_555
C23_2 C22_2 1_555 1_555
C24_2 C22_2 1_555 1_555
H14_2 C24_2 1_555 1_555
N9 N8_2 1_555 1_555
Zn3_2 N2_2 1_555 1_555
Zn6_2 N8_2 1_555 1_555
N14_2 Zn3_2 1_555 1_555
N16_2 Zn4 1_555 1_555
N18_2 Zn8 1_555 1_555
Zn8_2 N9 1_555 1_555
C9_2 N3_2 1_555 1_555
C11_2 C12_2 1_555 1_555
C24_2 N9 1_555 1_555
N13_2 Zn3_3 1_555 1_555
N15_2 Zn3_3 1_555 1_555
N20_2 Zn8_2 1_555 1_555
N15_2 N20_2 1_555 1_555
H6_2 C10_2 1_555 1_555
C14_2 C13_2 1_555 1_555
C15_2 C13_2 1_555 1_555
H9_2 C15_2 1_555 1_555
N5_2 C15_2 1_555 1_555
N17 C14_2 1_555 1_555
C18_2 C17_2 1_555 1_555
C19_2 C18_2 1_555 1_555
C20_2 C19_2 1_555 1_555
C21_2 C20_2 1_555 1_555
H12_2 C21_2 1_555 1_555
N10_2 N7_2 1_555 1_555
C25_2 C17_2 1_555 1_555
H15_2 C25_2 1_555 1_555
C26_2 C18_2 1_555 1_555
C27_2 C21_2 1_555 1_555
H16_2 C26_2 1_555 1_555
C28_2 C27_2 1_555 1_555
C29_2 C28_2 1_555 1_555
C30_2 C28_2 1_555 1_555
H17_2 C29_2 1_555 1_555
H18_2 C30_2 1_555 1_555
N11_2 C30_2 1_555 1_555
N12_2 C29_2 1_555 1_555
Zn5_3 N12_2 1_555 1_555
Zn9_2 N11_2 1_555 1_555
Zn9 N5_2 1_555 1_555
N5_2 N17 1_555 1_555
N10_2 C25_2 1_555 1_555
N10_2 Zn7 1_555 1_555
C26_2 C27_2 1_555 1_555
N11_2 N12_2 1_555 1_555
C2_3 C3_3 1_555 1_555
C3_3 C4_3 1_555 1_555
C4_3 C5_3 1_555 1_555
C5_3 C6_3 1_555 1_555
C6_3 H3_3 1_555 1_555
N14 N1_3 1_555 1_555
C10_3 C2_3 1_555 1_555
H6_3 C10_3 1_555 1_555
C11_3 C3_3 1_555 1_555
C12_3 C6_3 1_555 1_555
H7_3 C11_3 1_555 1_555
C13_3 C12_3 1_555 1_555
C14_3 C13_3 1_555 1_555
C15_3 C13_3 1_555 1_555
H8_3 C14_3 1_555 1_555
H9_3 C15_3 1_555 1_555
N5_3 C15_3 1_555 1_555
N6_2 C14_3 1_555 1_555
H15_3 C25_3 1_555 1_555
C29_3 C28_3 1_555 1_555
C30_3 C28_3 1_555 1_555
H18_3 C30_3 1_555 1_555
N11_3 C30_3 1_555 1_555
N16 C29_3 1_555 1_555
Zn5_2 N6_2 1_555 1_555
Zn9_2 N11_3 1_555 1_555
Zn9 N5_3 1_555 1_555
N14 C10_3 1_555 1_555
C11_3 C12_3 1_555 1_555
N5_3 N6_2 1_555 1_555
N11_3 N16 1_555 1_555
N2_3 C8_3 1_555 1_555
H1_3 C1_3 1_555 1_555
C8_3 C7_3 1_555 1_555
C9_3 C7_3 1_555 1_555
H5_3 C9_3 1_555 1_555
N18_2 N2_3 1_555 1_555
N7_3 Zn5 1_555 1_555
N15_2 C23_3 1_555 1_555
C16_3 N7_3 1_555 1_555
C17_3 C16_3 1_555 1_555
H10_3 C16_3 1_555 1_555
C18_3 C17_3 1_555 1_555
C19_3 C18_3 1_555 1_555
C20_3 C19_3 1_555 1_555
H11_3 C19_3 1_555 1_555
C21_3 C20_3 1_555 1_555
C22_3 C20_3 1_555 1_555
H12_3 C21_3 1_555 1_555
C23_3 C22_3 1_555 1_555
C24_3 C22_3 1_555 1_555
H13_3 C23_3 1_555 1_555
H14_3 C24_3 1_555 1_555
N13 N7_3 1_555 1_555
C26_3 C18_3 1_555 1_555
C27_3 C21_3 1_555 1_555
Zn6 N2_3 1_555 1_555
N17_2 Zn5 1_555 1_555
C9_3 N18_2 1_555 1_555
C24_3 N20_2 1_555 1_555
C26_3 C27_3 1_555 1_555
Zn5_2 N1_4 1_555 1_555
N1_4 C1_4 1_555 1_555
N2_4 C8_4 1_555 1_555
C1_4 C2_4 1_555 1_555
C2_4 C3_4 1_555 1_555
H1_4 C1_4 1_555 1_555
C3_4 C4_4 1_555 1_555
C4_4 C5_4 1_555 1_555
C5_4 C6_4 1_555 1_555
H2_4 C4_4 1_555 1_555
C6_4 H3_4 1_555 1_555
C7_4 C5_4 1_555 1_555
C8_4 C7_4 1_555 1_555
C9_4 C7_4 1_555 1_555
H4_4 C8_4 1_555 1_555
H5_4 C9_4 1_555 1_555
N18 N2_4 1_555 1_555
N14_2 N1_4 1_555 1_555
C10_4 C2_4 1_555 1_555
H6_4 C10_4 1_555 1_555
C11_4 C3_4 1_555 1_555
C12_4 C6_4 1_555 1_555
H7_4 C11_4 1_555 1_555
C13_4 C12_4 1_555 1_555
C14_4 C13_4 1_555 1_555
C15_4 C13_4 1_555 1_555
H8_4 C14_4 1_555 1_555
H9_4 C15_4 1_555 1_555
N5_4 C15_4 1_555 1_555
N17_2 C14_4 1_555 1_555
Zn7 N2_4 1_555 1_555
Zn10 N5_4 1_555 1_555
C9_4 N18 1_555 1_555
N14_2 C10_4 1_555 1_555
C11_4 C12_4 1_555 1_555
N5_4 N17_2 1_555 1_555
N7_4 Zn5_3 1_555 1_555
N15 C23_4 1_555 1_555
C16_4 N7_4 1_555 1_555
C17_4 C16_4 1_555 1_555
H10_4 C16_4 1_555 1_555
C18_4 C17_4 1_555 1_555
C19_4 C18_4 1_555 1_555
C20_4 C19_4 1_555 1_555
H11_4 C19_4 1_555 1_555
C21_4 C20_4 1_555 1_555
C22_4 C20_4 1_555 1_555
H12_4 C21_4 1_555 1_555
C23_4 C22_4 1_555 1_555
C24_4 C22_4 1_555 1_555
H13_4 C23_4 1_555 1_555
H14_4 C24_4 1_555 1_555
N13_2 N7_4 1_555 1_555
C25_4 C17_4 1_555 1_555
H15_4 C25_4 1_555 1_555
C26_4 C18_4 1_555 1_555
C27_4 C21_4 1_555 1_555
H16_4 C26_4 1_555 1_555
C28_4 C27_4 1_555 1_555
C29_4 C28_4 1_555 1_555
C30_4 C28_4 1_555 1_555
H17_4 C29_4 1_555 1_555
H18_4 C30_4 1_555 1_555
N11_4 C30_4 1_555 1_555
N16_2 C29_4 1_555 1_555
Zn10 N11_4 1_555 1_555
C24_4 N20 1_555 1_555
N13_2 C25_4 1_555 1_555
C26_4 C27_4 1_555 1_555
N11_4 N16_2 1_555 1_555

#END
