
###############################################################################
#
# This file contains modified crystal structure data generated from the
# MOF subset of the Cambridge Structural Database (CSD) v543 
# hosted by the Cambridge Crystallographic Data Centre (CCDC).
#
# This work is licensed under the Creative Commons
# Attribution-NonCommercial-ShareAlike 4.0 International License.
# To view a copy of this license, visit
# http://creativecommons.org/licenses/by-nc-sa/4.0/
# or send a letter to
# Creative Commons, PO Box 1866, Mountain View, CA 94042, USA.
#
# CIF created using the CSD Python API on 29 September 2022
# The structure has been converted into the P1 space group
# The structure has a 3D framework
# The original CSD entry UTUBAP is in the orthorhombic crystal system
# The framework has been calculated to contain at least 10.0% void space
# The void calculation uses a probe of radius 1.32A, grid spacing 0.4
#
###############################################################################

data_UTUBAP
_chemical_formula_moiety         '(C116 H144 N4 O24 Zn4)n'
_symmetry_cell_setting           triclinic
_symmetry_space_group_name_H-M   'P 1'
_symmetry_Int_Tables_number      1
_space_group_name_Hall           'P 1'
loop_
_symmetry_equiv_pos_site_id
_symmetry_equiv_pos_as_xyz
1 x,y,z
_cell_length_a                   14.5851(5)
_cell_length_b                   16.1511(5)
_cell_length_c                   13.9575(5)
_cell_angle_alpha                90
_cell_angle_beta                 90
_cell_angle_gamma                90
_cell_volume                     3287.9
loop_
_atom_site_label
_atom_site_type_symbol
_atom_site_fract_x
_atom_site_fract_y
_atom_site_fract_z
C25 C 0.07763(7) 0.00082(6) 0.44377(7)
H25 H 0.131494 0.001638 0.405511
C26 C 0.01789(7) 0.06725(6) 0.44107(7)
C27 C 0.12446(7) 0.15265(6) 0.37027(7)
H26 H 0.157303 0.167543 0.429901
H27 H 0.156543 0.107096 0.336669
C28 C 0.10562(7) 0.22554(6) 0.30715(7)
H28 H 0.052786 0.213570 0.264829
H29 H 0.159686 0.237136 0.266423
C29 C 0.08529(7) 0.29768(7) 0.36764(8)
H30 H 0.140939 0.317719 0.400985
H31 H 0.037406 0.284756 0.415634
C30 C 0.05250(7) 0.35831(6) 0.29725(7)
H32 H 0.016357 0.330836 0.246317
H33 H 0.013848 0.400903 0.328394
C31 C 0.13850(7) 0.39641(6) 0.25656(7)
H34 H 0.165180 0.359859 0.206916
H35 H 0.184571 0.404603 0.307778
C32 C 0.11163(7) 0.47849(6) 0.21345(7)
H36 H 0.056397 0.499899 0.246412
H37 H 0.096329 0.470748 0.144924
C33 C 0.18700(7) 0.53936(6) 0.22242(7)
H38 H 0.200189 0.565974 0.281529
C34 C 0.23787(7) 0.55577(7) 0.13957(8)
H39 H 0.223298 0.528325 0.081331
H40 H 0.286991 0.594367 0.141564
O6 O 0.02760(5) 0.13623(4) 0.38538(5)
C45 C 0.68700(7) 0.03936(6) 0.77758(7)
H54 H 0.700189 0.065974 0.718471
C46 C 0.73787(7) 0.05577(7) 0.86043(8)
H55 H 0.723298 0.028325 0.918669
H56 H 0.786991 0.094367 0.858436
C23 C 0.12718(7) 0.86245(6) 0.50191(7)
C24 C 0.05960(7) 0.93261(6) 0.50212(7)
O4 O 0.14578(5) 0.82854(5) 0.57921(5)
O5 O 0.16122(5) 0.84455(4) 0.42161(5)
Zn5 Zn 0.250000 0.750000 0.60305(2)
Zn7 Zn 0.250000 0.750000 0.39695(2)
C1 C 0.750000 0.250000 0.05291(12)
C2 C 0.67114(8) 0.25630(6) 0.10474(8)
H1 H 0.613957 0.262297 0.072895
C3 C 0.67440(8) 0.25396(6) 0.20427(8)
H2 H 0.618405 0.255348 0.239000
C4 C 0.87282(7) 0.13755(6) 0.49809(7)
C5 C 0.94040(7) 0.06739(6) 0.49788(7)
N1 N 0.750000 0.250000 0.25111(10)
O1 O 0.85422(5) 0.17146(5) 0.42079(5)
O2 O 0.83878(5) 0.15545(4) 0.57839(5)
Zn1 Zn 0.750000 0.250000 0.39695(2)
C16 C 0.82886(8) 0.24370(6) 0.10474(8)
H19 H 0.886043 0.237703 0.072895
C17 C 0.82560(8) 0.24604(6) 0.20427(8)
H20 H 0.881595 0.244652 0.239000
C35 C 0.62718(7) 0.36245(6) 0.49809(7)
C36 C 0.55960(7) 0.43261(6) 0.49788(7)
C37 C 0.57763(7) 0.50082(6) 0.55623(7)
H41 H 0.631494 0.501638 0.594489
C38 C 0.51789(7) 0.56725(6) 0.55893(7)
C39 C 0.62446(7) 0.65265(6) 0.62973(7)
H42 H 0.657303 0.667543 0.570099
H43 H 0.656543 0.607096 0.663331
C40 C 0.60562(7) 0.72554(6) 0.69285(7)
H44 H 0.552786 0.713570 0.735171
H45 H 0.659686 0.737136 0.733577
C41 C 0.58529(7) 0.79768(7) 0.63236(8)
H46 H 0.640939 0.817719 0.599015
H47 H 0.537406 0.784756 0.584366
C42 C 0.55250(7) 0.85831(6) 0.70275(7)
H48 H 0.516357 0.830836 0.753683
H49 H 0.513848 0.900903 0.671606
C43 C 0.63850(7) 0.89641(6) 0.74344(7)
H50 H 0.665180 0.859859 0.793084
H51 H 0.684571 0.904603 0.692222
C44 C 0.61163(7) 0.97849(6) 0.78655(7)
H52 H 0.556397 0.999899 0.753588
H53 H 0.596329 0.970748 0.855076
O7 O 0.64578(5) 0.32854(5) 0.42079(5)
O8 O 0.66122(5) 0.34455(4) 0.57839(5)
O9 O 0.52760(5) 0.63623(4) 0.61462(5)
C47 C 0.37282(7) 0.63755(6) 0.50191(7)
C48 C 0.44040(7) 0.56739(6) 0.50212(7)
C49 C 0.42237(7) 0.49918(6) 0.44377(7)
H57 H 0.368506 0.498362 0.405511
C50 C 0.48211(7) 0.43275(6) 0.44107(7)
C51 C 0.37554(7) 0.34735(6) 0.37027(7)
H58 H 0.342697 0.332457 0.429901
H59 H 0.343457 0.392904 0.336669
C52 C 0.39438(7) 0.27446(6) 0.30715(7)
H60 H 0.447214 0.286430 0.264829
H61 H 0.340314 0.262864 0.266423
C53 C 0.41471(7) 0.20232(7) 0.36764(8)
H62 H 0.359061 0.182281 0.400985
H63 H 0.462594 0.215244 0.415634
C54 C 0.44750(7) 0.14169(6) 0.29725(7)
H64 H 0.483643 0.169164 0.246317
H65 H 0.486152 0.099097 0.328394
C55 C 0.36150(7) 0.10359(6) 0.25656(7)
H66 H 0.334820 0.140141 0.206916
H67 H 0.315429 0.095397 0.307778
C56 C 0.38837(7) 0.02151(6) 0.21345(7)
H68 H 0.443603 0.000101 0.246412
H69 H 0.403671 0.029252 0.144924
O10 O 0.35422(5) 0.67146(5) 0.57921(5)
O11 O 0.33878(5) 0.65545(4) 0.42161(5)
O12 O 0.47240(5) 0.36377(4) 0.38538(5)
O17 O 0.66122(5) 0.15545(4) 0.42161(5)
O18 O 0.83878(5) 0.34455(4) 0.42161(5)
Zn3 Zn 0.750000 0.250000 0.60305(2)
C18 C 0.750000 0.250000 0.94709(12)
C19 C 0.82886(8) 0.25630(6) 0.89526(8)
H21 H 0.886043 0.262297 0.927105
C20 C 0.82560(8) 0.25396(6) 0.79573(8)
H22 H 0.881595 0.255348 0.761000
N2 N 0.750000 0.250000 0.74889(10)
C21 C 0.67114(8) 0.24370(6) 0.89526(8)
H23 H 0.613957 0.237703 0.927105
C22 C 0.67440(8) 0.24604(6) 0.79573(8)
H24 H 0.618405 0.244652 0.761000
O13 O 0.64578(5) 0.17146(5) 0.57921(5)
O14 O 0.85422(5) 0.32854(5) 0.57921(5)
C47_2 C 0.12718(7) 0.63755(6) 0.49809(7)
C48_2 C 0.05960(7) 0.56739(6) 0.49788(7)
C49_2 C 0.07763(7) 0.49918(6) 0.55623(7)
H57_2 H 0.131494 0.498362 0.594489
C50_2 C 0.01789(7) 0.43275(6) 0.55893(7)
C51_2 C 0.12446(7) 0.34735(6) 0.62973(7)
H58_2 H 0.157303 0.332457 0.570099
H59_2 H 0.156543 0.392904 0.663331
C52_2 C 0.10562(7) 0.27446(6) 0.69285(7)
H60_2 H 0.052786 0.286430 0.735171
H61_2 H 0.159686 0.262864 0.733577
C53_2 C 0.08529(7) 0.20232(7) 0.63236(8)
H62_2 H 0.140939 0.182281 0.599015
H63_2 H 0.037406 0.215244 0.584366
C54_2 C 0.05250(7) 0.14169(6) 0.70275(7)
H64_2 H 0.016357 0.169164 0.753683
H65_2 H 0.013848 0.099097 0.671606
C55_2 C 0.13850(7) 0.10359(6) 0.74344(7)
H66_2 H 0.165180 0.140141 0.793084
H67_2 H 0.184571 0.095397 0.692222
C56_2 C 0.11163(7) 0.02151(6) 0.78655(7)
H68_2 H 0.056397 0.000101 0.753588
H69_2 H 0.096329 0.029252 0.855076
O10_2 O 0.14578(5) 0.67146(5) 0.42079(5)
O11_2 O 0.16122(5) 0.65545(4) 0.57839(5)
O12_2 O 0.02760(5) 0.36377(4) 0.61462(5)
C4_2 C 0.62718(7) 0.13755(6) 0.50191(7)
C5_2 C 0.55960(7) 0.06739(6) 0.50212(7)
C25_2 C 0.42237(7) 0.00082(6) 0.55623(7)
H25_2 H 0.368506 0.001638 0.594489
C26_2 C 0.48211(7) 0.06725(6) 0.55893(7)
C27_2 C 0.37554(7) 0.15265(6) 0.62973(7)
H26_2 H 0.342697 0.167543 0.570099
H27_2 H 0.343457 0.107096 0.663331
C28_2 C 0.39438(7) 0.22554(6) 0.69285(7)
H28_2 H 0.447214 0.213570 0.735171
H29_2 H 0.340314 0.237136 0.733577
C29_2 C 0.41471(7) 0.29768(7) 0.63236(8)
H30_2 H 0.359061 0.317719 0.599015
H31_2 H 0.462594 0.284756 0.584366
C30_2 C 0.44750(7) 0.35831(6) 0.70275(7)
H32_2 H 0.483643 0.330836 0.753683
H33_2 H 0.486152 0.400903 0.671606
C31_2 C 0.36150(7) 0.39641(6) 0.74344(7)
H34_2 H 0.334820 0.359859 0.793084
H35_2 H 0.315429 0.404603 0.692222
C32_2 C 0.38837(7) 0.47849(6) 0.78655(7)
H36_2 H 0.443603 0.499899 0.753588
H37_2 H 0.403671 0.470748 0.855076
C33_2 C 0.31300(7) 0.53936(6) 0.77758(7)
H38_2 H 0.299811 0.565974 0.718471
C34_2 C 0.26213(7) 0.55577(7) 0.86043(8)
H39_2 H 0.276702 0.528325 0.918669
H40_2 H 0.213009 0.594367 0.858436
O6_2 O 0.47240(5) 0.13623(4) 0.61462(5)
C35_2 C 0.87282(7) 0.36245(6) 0.50191(7)
C36_2 C 0.94040(7) 0.43261(6) 0.50212(7)
C37_2 C 0.92237(7) 0.50082(6) 0.44377(7)
H41_2 H 0.868506 0.501638 0.405511
C38_2 C 0.98211(7) 0.56725(6) 0.44107(7)
C39_2 C 0.87554(7) 0.65265(6) 0.37027(7)
H42_2 H 0.842697 0.667543 0.429901
H43_2 H 0.843457 0.607096 0.336669
C40_2 C 0.89438(7) 0.72554(6) 0.30715(7)
H44_2 H 0.947214 0.713570 0.264829
H45_2 H 0.840314 0.737136 0.266423
C41_2 C 0.91471(7) 0.79768(7) 0.36764(8)
H46_2 H 0.859061 0.817719 0.400985
H47_2 H 0.962594 0.784756 0.415634
C42_2 C 0.94750(7) 0.85831(6) 0.29725(7)
H48_2 H 0.983643 0.830836 0.246317
H49_2 H 0.986152 0.900903 0.328394
C43_2 C 0.86150(7) 0.89641(6) 0.25656(7)
H50_2 H 0.834820 0.859859 0.206916
H51_2 H 0.815429 0.904603 0.307778
C44_2 C 0.88837(7) 0.97849(6) 0.21345(7)
H52_2 H 0.943603 0.999899 0.246412
H53_2 H 0.903671 0.970748 0.144924
O9_2 O 0.97240(5) 0.63623(4) 0.38538(5)
C6 C 0.57763(7) 0.99918(6) 0.44377(7)
H3 H 0.631494 0.998362 0.405511
C7 C 0.51789(7) 0.93275(6) 0.44107(7)
C8 C 0.62446(7) 0.84735(6) 0.37027(7)
H4 H 0.657303 0.832457 0.429901
H5 H 0.656543 0.892904 0.336669
C9 C 0.60562(7) 0.77446(6) 0.30715(7)
H6 H 0.552786 0.786430 0.264829
H7 H 0.659686 0.762864 0.266423
C10 C 0.58529(7) 0.70232(7) 0.36764(8)
H8 H 0.640939 0.682281 0.400985
H9 H 0.537406 0.715244 0.415634
C11 C 0.55250(7) 0.64169(6) 0.29725(7)
H10 H 0.516357 0.669164 0.246317
H11 H 0.513848 0.599097 0.328394
C12 C 0.63850(7) 0.60359(6) 0.25656(7)
H12 H 0.665180 0.640141 0.206916
H13 H 0.684571 0.595397 0.307778
C13 C 0.61163(7) 0.52151(6) 0.21345(7)
H14 H 0.556397 0.500101 0.246412
H15 H 0.596329 0.529252 0.144924
C14 C 0.68700(7) 0.46064(6) 0.22242(7)
H16 H 0.700189 0.434026 0.281529
C15 C 0.73787(7) 0.44423(7) 0.13957(8)
H17 H 0.723298 0.471675 0.081331
H18 H 0.786991 0.405633 0.141564
O3 O 0.52760(5) 0.86377(4) 0.38538(5)
C23_2 C 0.37282(7) 0.86245(6) 0.49809(7)
C24_2 C 0.44040(7) 0.93261(6) 0.49788(7)
O4_2 O 0.35422(5) 0.82854(5) 0.42079(5)
O5_2 O 0.33878(5) 0.84455(4) 0.57839(5)
C18_2 C 0.250000 0.750000 0.05291(12)
C19_2 C 0.17114(8) 0.74370(6) 0.10474(8)
H21_2 H 0.113957 0.737703 0.072895
C20_2 C 0.17440(8) 0.74604(6) 0.20427(8)
H22_2 H 0.118405 0.744652 0.239000
N2_2 N 0.250000 0.750000 0.25111(10)
C21_2 C 0.32886(8) 0.75630(6) 0.10474(8)
H23_2 H 0.386043 0.762297 0.072895
C22_2 C 0.32560(8) 0.75396(6) 0.20427(8)
H24_2 H 0.381595 0.755348 0.239000
C1_2 C 0.250000 0.750000 0.94709(12)
C2_2 C 0.32886(8) 0.74370(6) 0.89526(8)
H1_2 H 0.386043 0.737703 0.927105
C3_2 C 0.32560(8) 0.74604(6) 0.79573(8)
H2_2 H 0.381595 0.744652 0.761000
N1_2 N 0.250000 0.750000 0.74889(10)
C16_2 C 0.17114(8) 0.75630(6) 0.89526(8)
H19_2 H 0.113957 0.762297 0.927105
C17_2 C 0.17440(8) 0.75396(6) 0.79573(8)
H20_2 H 0.118405 0.755348 0.761000
C6_2 C 0.92237(7) 0.99918(6) 0.55623(7)
H3_2 H 0.868506 0.998362 0.594489
C7_2 C 0.98211(7) 0.93275(6) 0.55893(7)
C8_2 C 0.87554(7) 0.84735(6) 0.62973(7)
H4_2 H 0.842697 0.832457 0.570099
H5_2 H 0.843457 0.892904 0.663331
C9_2 C 0.89438(7) 0.77446(6) 0.69285(7)
H6_2 H 0.947214 0.786430 0.735171
H7_2 H 0.840314 0.762864 0.733577
C10_2 C 0.91471(7) 0.70232(7) 0.63236(8)
H8_2 H 0.859061 0.682281 0.599015
H9_2 H 0.962594 0.715244 0.584366
C11_2 C 0.94750(7) 0.64169(6) 0.70275(7)
H10_2 H 0.983643 0.669164 0.753683
H11_2 H 0.986152 0.599097 0.671606
C12_2 C 0.86150(7) 0.60359(6) 0.74344(7)
H12_2 H 0.834820 0.640141 0.793084
H13_2 H 0.815429 0.595397 0.692222
C13_2 C 0.88837(7) 0.52151(6) 0.78655(7)
H14_2 H 0.943603 0.500101 0.753588
H15_2 H 0.903671 0.529252 0.855076
C14_2 C 0.81300(7) 0.46064(6) 0.77758(7)
H16_2 H 0.799811 0.434026 0.718471
C15_2 C 0.76213(7) 0.44423(7) 0.86043(8)
H17_2 H 0.776702 0.471675 0.918669
H18_2 H 0.713009 0.405633 0.858436
O3_2 O 0.97240(5) 0.86377(4) 0.61462(5)
C57 C 0.31300(7) 0.96064(6) 0.22242(7)
H70 H 0.299811 0.934026 0.281529
C58 C 0.26213(7) 0.94423(7) 0.13957(8)
H71 H 0.276702 0.971675 0.081331
H72 H 0.213009 0.905633 0.141564
C57_2 C 0.18700(7) 0.96064(6) 0.77758(7)
H70_2 H 0.200189 0.934026 0.718471
C58_2 C 0.23787(7) 0.94423(7) 0.86043(8)
H71_2 H 0.223298 0.971675 0.918669
H72_2 H 0.286991 0.905633 0.858436
C45_2 C 0.81300(7) 0.03936(6) 0.22242(7)
H54_2 H 0.799811 0.065974 0.281529
C46_2 C 0.76213(7) 0.05577(7) 0.13957(8)
H55_2 H 0.776702 0.028325 0.081331
H56_2 H 0.713009 0.094367 0.141564
loop_
_geom_bond_atom_site_label_1
_geom_bond_atom_site_label_2
_geom_bond_site_symmetry_1
_geom_bond_site_symmetry_2
H25 C25 1_555 1_555
C27 H26 1_555 1_555
H27 C27 1_555 1_555
C28 C27 1_555 1_555
H28 C28 1_555 1_555
H29 C28 1_555 1_555
C29 C28 1_555 1_555
H30 C29 1_555 1_555
H31 C29 1_555 1_555
C30 C29 1_555 1_555
H32 C30 1_555 1_555
H33 C30 1_555 1_555
C31 C30 1_555 1_555
H34 C31 1_555 1_555
H35 C31 1_555 1_555
C32 C31 1_555 1_555
H36 C32 1_555 1_555
H37 C32 1_555 1_555
C33 C32 1_555 1_555
H38 C33 1_555 1_555
C34 C33 1_555 1_555
H39 C34 1_555 1_555
H40 C34 1_555 1_555
O6 C26 1_555 1_555
C25 C26 1_555 1_555
C27 O6 1_555 1_555
H54 C45 1_555 1_555
C46 C45 1_555 1_555
H55 C46 1_555 1_555
H56 C46 1_555 1_555
C23 C24 1_555 1_555
O4 C23 1_555 1_555
O5 C23 1_555 1_555
Zn5 O4 1_555 1_555
Zn7 O5 1_555 1_555
C1 C2 1_555 1_555
C2 H1 1_555 1_555
C3 C2 1_555 1_555
H2 C3 1_555 1_555
C4 C5 1_555 1_555
N1 C3 1_555 1_555
O1 C4 1_555 1_555
O2 C4 1_555 1_555
Zn1 N1 1_555 1_555
C16 C1 1_555 1_555
H19 C16 1_555 1_555
C17 N1 1_555 1_555
H20 C17 1_555 1_555
C35 C36 1_555 1_555
C36 C37 1_555 1_555
C37 H41 1_555 1_555
C38 C37 1_555 1_555
C39 H42 1_555 1_555
H43 C39 1_555 1_555
C40 C39 1_555 1_555
H44 C40 1_555 1_555
H45 C40 1_555 1_555
C41 C40 1_555 1_555
H46 C41 1_555 1_555
H47 C41 1_555 1_555
C42 C41 1_555 1_555
H48 C42 1_555 1_555
H49 C42 1_555 1_555
C43 C42 1_555 1_555
H50 C43 1_555 1_555
H51 C43 1_555 1_555
C44 C43 1_555 1_555
H52 C44 1_555 1_555
H53 C44 1_555 1_555
O7 Zn1 1_555 1_555
O8 C35 1_555 1_555
O9 C38 1_555 1_555
C47 C48 1_555 1_555
C48 C38 1_555 1_555
C49 C48 1_555 1_555
H57 C49 1_555 1_555
C50 C36 1_555 1_555
C51 H58 1_555 1_555
H59 C51 1_555 1_555
C52 C51 1_555 1_555
H60 C52 1_555 1_555
H61 C52 1_555 1_555
C53 C52 1_555 1_555
H62 C53 1_555 1_555
H63 C53 1_555 1_555
C54 C53 1_555 1_555
H64 C54 1_555 1_555
H65 C54 1_555 1_555
C55 C54 1_555 1_555
H66 C55 1_555 1_555
H67 C55 1_555 1_555
C56 C55 1_555 1_555
H68 C56 1_555 1_555
H69 C56 1_555 1_555
O10 C47 1_555 1_555
O11 C47 1_555 1_555
O12 C50 1_555 1_555
O17 Zn1 1_555 1_555
O18 Zn1 1_555 1_555
Zn3 O2 1_555 1_555
Zn5 O10 1_555 1_555
Zn7 O11 1_555 1_555
O1 Zn1 1_555 1_555
C16 C17 1_555 1_555
C35 O7 1_555 1_555
C39 O9 1_555 1_555
O8 Zn3 1_555 1_555
C49 C50 1_555 1_555
C51 O12 1_555 1_555
C19 C18 1_555 1_555
H21 C19 1_555 1_555
C20 C19 1_555 1_555
H22 C20 1_555 1_555
N2 C20 1_555 1_555
C21 C18 1_555 1_555
H23 C21 1_555 1_555
C22 N2 1_555 1_555
H24 C22 1_555 1_555
Zn3 N2 1_555 1_555
O13 Zn3 1_555 1_555
O14 Zn3 1_555 1_555
C21 C22 1_555 1_555
C47_2 C48_2 1_555 1_555
C49_2 C48_2 1_555 1_555
H57_2 C49_2 1_555 1_555
C51_2 H58_2 1_555 1_555
H59_2 C51_2 1_555 1_555
C52_2 C51_2 1_555 1_555
H60_2 C52_2 1_555 1_555
H61_2 C52_2 1_555 1_555
C53_2 C52_2 1_555 1_555
H62_2 C53_2 1_555 1_555
H63_2 C53_2 1_555 1_555
C54_2 C53_2 1_555 1_555
H64_2 C54_2 1_555 1_555
H65_2 C54_2 1_555 1_555
C55_2 C54_2 1_555 1_555
H66_2 C55_2 1_555 1_555
H67_2 C55_2 1_555 1_555
C56_2 C55_2 1_555 1_555
H68_2 C56_2 1_555 1_555
H69_2 C56_2 1_555 1_555
O10_2 C47_2 1_555 1_555
O11_2 C47_2 1_555 1_555
O12_2 C50_2 1_555 1_555
Zn7 O10_2 1_555 1_555
Zn5 O11_2 1_555 1_555
C49_2 C50_2 1_555 1_555
C51_2 O12_2 1_555 1_555
C4_2 C5_2 1_555 1_555
O13 C4_2 1_555 1_555
O17 C4_2 1_555 1_555
H25_2 C25_2 1_555 1_555
C26_2 C5_2 1_555 1_555
C27_2 H26_2 1_555 1_555
H27_2 C27_2 1_555 1_555
C28_2 C27_2 1_555 1_555
H28_2 C28_2 1_555 1_555
H29_2 C28_2 1_555 1_555
C29_2 C28_2 1_555 1_555
H30_2 C29_2 1_555 1_555
H31_2 C29_2 1_555 1_555
C30_2 C29_2 1_555 1_555
H32_2 C30_2 1_555 1_555
H33_2 C30_2 1_555 1_555
C31_2 C30_2 1_555 1_555
H34_2 C31_2 1_555 1_555
H35_2 C31_2 1_555 1_555
C32_2 C31_2 1_555 1_555
H36_2 C32_2 1_555 1_555
H37_2 C32_2 1_555 1_555
C33_2 C32_2 1_555 1_555
H38_2 C33_2 1_555 1_555
C34_2 C33_2 1_555 1_555
H39_2 C34_2 1_555 1_555
H40_2 C34_2 1_555 1_555
O6_2 C26_2 1_555 1_555
C35_2 C36_2 1_555 1_555
C36_2 C37_2 1_555 1_555
C37_2 H41_2 1_555 1_555
C38_2 C37_2 1_555 1_555
C39_2 H42_2 1_555 1_555
H43_2 C39_2 1_555 1_555
C40_2 C39_2 1_555 1_555
H44_2 C40_2 1_555 1_555
H45_2 C40_2 1_555 1_555
C41_2 C40_2 1_555 1_555
H46_2 C41_2 1_555 1_555
H47_2 C41_2 1_555 1_555
C42_2 C41_2 1_555 1_555
H48_2 C42_2 1_555 1_555
H49_2 C42_2 1_555 1_555
C43_2 C42_2 1_555 1_555
H50_2 C43_2 1_555 1_555
H51_2 C43_2 1_555 1_555
C44_2 C43_2 1_555 1_555
H52_2 C44_2 1_555 1_555
H53_2 C44_2 1_555 1_555
O18 C35_2 1_555 1_555
O9_2 C38_2 1_555 1_555
C25_2 C26_2 1_555 1_555
C27_2 O6_2 1_555 1_555
C35_2 O14 1_555 1_555
C39_2 O9_2 1_555 1_555
C6 H3 1_555 1_555
C7 C6 1_555 1_555
C8 H4 1_555 1_555
H5 C8 1_555 1_555
C9 C8 1_555 1_555
H6 C9 1_555 1_555
H7 C9 1_555 1_555
C10 C9 1_555 1_555
H8 C10 1_555 1_555
H9 C10 1_555 1_555
C11 C10 1_555 1_555
H10 C11 1_555 1_555
H11 C11 1_555 1_555
C12 C11 1_555 1_555
H12 C12 1_555 1_555
H13 C12 1_555 1_555
C13 C12 1_555 1_555
H14 C13 1_555 1_555
H15 C13 1_555 1_555
C14 C13 1_555 1_555
H16 C14 1_555 1_555
C15 C14 1_555 1_555
H17 C15 1_555 1_555
H18 C15 1_555 1_555
O3 C7 1_555 1_555
C23_2 C24_2 1_555 1_555
C24_2 C7 1_555 1_555
O4_2 C23_2 1_555 1_555
O5_2 C23_2 1_555 1_555
Zn7 O4_2 1_555 1_555
Zn5 O5_2 1_555 1_555
C8 O3 1_555 1_555
C19_2 C18_2 1_555 1_555
H21_2 C19_2 1_555 1_555
C20_2 C19_2 1_555 1_555
H22_2 C20_2 1_555 1_555
N2_2 C20_2 1_555 1_555
C21_2 C18_2 1_555 1_555
H23_2 C21_2 1_555 1_555
C22_2 N2_2 1_555 1_555
H24_2 C22_2 1_555 1_555
Zn7 N2_2 1_555 1_555
C21_2 C22_2 1_555 1_555
C1_2 C2_2 1_555 1_555
C2_2 H1_2 1_555 1_555
C3_2 C2_2 1_555 1_555
H2_2 C3_2 1_555 1_555
N1_2 C3_2 1_555 1_555
Zn5 N1_2 1_555 1_555
C16_2 C1_2 1_555 1_555
H19_2 C16_2 1_555 1_555
C17_2 N1_2 1_555 1_555
H20_2 C17_2 1_555 1_555
C16_2 C17_2 1_555 1_555
C6_2 H3_2 1_555 1_555
C7_2 C6_2 1_555 1_555
C8_2 H4_2 1_555 1_555
H5_2 C8_2 1_555 1_555
C9_2 C8_2 1_555 1_555
H6_2 C9_2 1_555 1_555
H7_2 C9_2 1_555 1_555
C10_2 C9_2 1_555 1_555
H8_2 C10_2 1_555 1_555
H9_2 C10_2 1_555 1_555
C11_2 C10_2 1_555 1_555
H10_2 C11_2 1_555 1_555
H11_2 C11_2 1_555 1_555
C12_2 C11_2 1_555 1_555
H12_2 C12_2 1_555 1_555
H13_2 C12_2 1_555 1_555
C13_2 C12_2 1_555 1_555
H14_2 C13_2 1_555 1_555
H15_2 C13_2 1_555 1_555
C14_2 C13_2 1_555 1_555
H16_2 C14_2 1_555 1_555
C15_2 C14_2 1_555 1_555
H17_2 C15_2 1_555 1_555
H18_2 C15_2 1_555 1_555
O3_2 C7_2 1_555 1_555
H70 C57 1_555 1_555
C58 C57 1_555 1_555
H71 C58 1_555 1_555
H72 C58 1_555 1_555
C8_2 O3_2 1_555 1_555
H70_2 C57_2 1_555 1_555
C58_2 C57_2 1_555 1_555
H71_2 C58_2 1_555 1_555
H72_2 C58_2 1_555 1_555
H54_2 C45_2 1_555 1_555
C46_2 C45_2 1_555 1_555
H55_2 C46_2 1_555 1_555
H56_2 C46_2 1_555 1_555

#END
