
###############################################################################
#
# This file contains modified crystal structure data generated from the
# MOF subset of the Cambridge Structural Database (CSD) v543 
# hosted by the Cambridge Crystallographic Data Centre (CCDC).
#
# This work is licensed under the Creative Commons
# Attribution-NonCommercial-ShareAlike 4.0 International License.
# To view a copy of this license, visit
# http://creativecommons.org/licenses/by-nc-sa/4.0/
# or send a letter to
# Creative Commons, PO Box 1866, Mountain View, CA 94042, USA.
#
# CIF created using the CSD Python API on 29 September 2022
# The structure has been converted into the P1 space group
# The structure has a 3D framework
# The original CSD entry UVARAL01 is in the monoclinic crystal system
# The framework has been calculated to contain at least 10.0% void space
# The void calculation uses a probe of radius 1.32A, grid spacing 0.4
# The framework is charged, counterions have been retained in the structure
# H atom positions have been added when not included in the experimental data
#
###############################################################################

data_UVARAL01
_chemical_formula_moiety         '(C72 H56 N8 O32 Zn4)n'
_symmetry_cell_setting           triclinic
_symmetry_space_group_name_H-M   'P 1'
_symmetry_Int_Tables_number      1
_space_group_name_Hall           'P 1'
loop_
_symmetry_equiv_pos_site_id
_symmetry_equiv_pos_as_xyz
1 x,y,z
_cell_length_a                   10.014(5)
_cell_length_b                   13.448(5)
_cell_length_c                   14.550(5)
_cell_angle_alpha                90
_cell_angle_beta                 97.349(5)
_cell_angle_gamma                90
_cell_volume                     1943.33
loop_
_atom_site_label
_atom_site_type_symbol
_atom_site_fract_x
_atom_site_fract_y
_atom_site_fract_z
O1 O 0.05438(18) 0.35149(14) 0.32512(12)
C5 C 0.0197(2) 0.30269(17) 0.01150(15)
C10 C 0.0211(2) 0.35837(17) 0.09230(16)
H4 H 0.0586(2) 0.42173(17) 0.09520(16)
O2 O 0.16910(19) 0.40759(13) 0.94464(12)
O5 O 0.0060(2) 0.33594(17) 0.85038(13)
O7 O 0.07852(19) 0.11890(17) 0.89810(14)
C13 C 0.0669(2) 0.35076(17) 0.92775(16)
Zn6 Zn 0.21839(3) 0.466737(19) 0.832539(18)
N1 N 0.04445(19) 0.60305(14) 0.51517(13)
C1 C 0.0285(2) 0.77673(17) 0.45452(17)
C17 C 0.1220(2) 0.69332(18) 0.48902(18)
H11 H 0.1820(2) 0.71573(18) 0.54265(18)
H12 H 0.1765(2) 0.67510(18) 0.44111(18)
C18 C 0.0030(3) 0.7974(2) 0.36127(18)
H13 H 0.0468(3) 0.7619(2) 0.31914(18)
C20 C 0.1270(3) 0.0947(2) 0.52045(17)
H14 H 0.1712(3) 0.0575(2) 0.47968(17)
N4 N 0.1520(2) 0.07523(15) 0.61144(14)
C21 C 0.0660(2) 0.42477(18) 0.55930(16)
H15 H 0.1295(2) 0.37020(18) 0.56956(16)
H16 H 0.0284(2) 0.43649(18) 0.61659(16)
C22 C 0.0880(3) 0.1290(2) 0.66945(17)
H17 H 0.1054(3) 0.1165(2) 0.73270(17)
C23 C 0.1388(2) 0.51701(17) 0.53358(18)
H18 H 0.2086(2) 0.53393(17) 0.58365(18)
H19 H 0.1817(2) 0.50371(17) 0.47874(18)
C24 C 0.0384(3) 0.1677(2) 0.48507(18)
H20 H 0.0235(3) 0.1796(2) 0.42162(18)
O20 O 0.41491(19) 0.03681(12) 0.75529(12)
H27 H 0.0036052 0.618554 0.573894
Zn2 Zn 0.28161(3) 0.966737(19) 0.667461(18)
C27 C 0.0892(2) 0.77449(16) 0.83541(15)
O11 O 0.08509(19) 0.53681(12) 0.74471(12)
O12 O 0.1977(2) 0.75791(15) 0.70055(14)
C28 C 0.0327(2) 0.67913(17) 0.83121(15)
C29 C 0.0333(2) 0.79356(17) 0.99154(15)
C31 C 0.0866(2) 0.83073(17) 0.91502(15)
H25 H 0.1214(2) 0.89492(17) 0.91721(15)
O16 O 0.1745(2) 0.90909(13) 0.75726(13)
C32 C 0.1588(2) 0.81467(17) 0.75717(15)
C36 C 0.0215(2) 0.61789(17) 0.74389(15)
O17 O 0.33090(19) 0.90759(13) 0.55536(12)
Zn1 Zn 0.71839(3) 0.033263(19) 0.332539(18)
C2 C 0.9108(2) 0.22551(16) 0.16459(15)
O3 O 0.91491(19) 0.46319(12) 0.25529(12)
O4 O 0.8023(2) 0.24209(15) 0.29945(14)
C3 C 0.9673(2) 0.32087(17) 0.16879(15)
C4 C 0.9667(2) 0.20644(17) 0.00846(15)
C6 C 0.9134(2) 0.16927(17) 0.08498(15)
H2 H 0.8786(2) 0.10508(17) 0.08279(15)
O8 O 0.8255(2) 0.09091(13) 0.24274(13)
C7 C 0.8412(2) 0.18533(17) 0.24283(15)
C15 C 0.9785(2) 0.38211(17) 0.25611(15)
Zn4 Zn 0.78161(3) 0.533263(19) 0.167461(18)
O18 O 0.66910(19) 0.09241(13) 0.44464(12)
C8 C 0.8730(3) 0.9053(2) 0.47955(17)
H3 H 0.8288(3) 0.9425(2) 0.52032(17)
N2 N 0.8480(2) 0.92477(15) 0.38856(14)
C11 C 0.9340(2) 0.57523(18) 0.44070(16)
H5 H 0.8705(2) 0.62980(18) 0.43044(16)
H6 H 0.9716(2) 0.56351(18) 0.38341(16)
C12 C 0.9120(3) 0.8710(2) 0.33055(17)
H7 H 0.8946(3) 0.8835(2) 0.26730(17)
C14 C 0.8612(2) 0.48299(17) 0.46642(18)
H8 H 0.7914(2) 0.46607(17) 0.41635(18)
H9 H 0.8183(2) 0.49629(17) 0.52126(18)
C16 C 0.9616(3) 0.8323(2) 0.51493(18)
H10 H 0.9765(3) 0.8204(2) 0.57838(18)
N3 N 0.95555(19) 0.39695(14) 0.48483(13)
C19 C 0.9715(2) 0.22327(17) 0.54548(17)
C25 C 0.8780(2) 0.30668(18) 0.51098(18)
H21 H 0.8180(2) 0.28427(18) 0.45735(18)
H22 H 0.8235(2) 0.32490(18) 0.55889(18)
C26 C 0.9970(3) 0.2026(2) 0.63873(18)
H23 H 0.9532(3) 0.2381(2) 0.68086(18)
O19 O 0.58509(19) 0.96319(12) 0.24471(12)
H28 H 0.996395 0.381446 0.426106
O10 O 0.83090(19) 0.59241(13) 0.05536(12)
O13 O 0.9940(2) 0.66406(17) 0.14962(13)
O15 O 0.92148(19) 0.88110(17) 0.10190(14)
C35 C 0.9331(2) 0.64924(17) 0.07225(16)
O1_2 O 0.44562(18) 0.85149(14) 0.17488(12)
C1_2 C 0.4715(2) 0.27673(17) 0.04548(17)
C2_2 C 0.5892(2) 0.72551(16) 0.33541(15)
O4_2 O 0.6977(2) 0.74209(15) 0.20055(14)
C3_2 C 0.5327(2) 0.82087(17) 0.33121(15)
C4_2 C 0.5333(2) 0.70644(17) 0.49154(15)
C5_2 C 0.4803(2) 0.80269(17) 0.48850(15)
O5_2 O 0.4940(2) 0.83594(17) 0.64962(13)
O6 O 0.6422(2) 0.59863(18) 0.60308(16)
H1 H 0.6331(8) 0.560(2) 0.645(2)
C6_2 C 0.5866(2) 0.66927(17) 0.41502(15)
H2_2 H 0.6214(2) 0.60508(17) 0.41721(15)
O7_2 O 0.42148(19) 0.61890(17) 0.60190(14)
O8_2 O 0.6745(2) 0.59091(13) 0.25726(13)
C7_2 C 0.6588(2) 0.68533(17) 0.25717(15)
C8_2 C 0.6270(3) 0.4053(2) 0.02045(17)
C9 C 0.5251(2) 0.63810(17) 0.57227(16)
C10_2 C 0.4789(2) 0.85837(17) 0.40770(16)
H4_2 H 0.4414(2) 0.92173(17) 0.40480(16)
N2_2 N 0.6520(2) 0.42477(15) 0.11144(14)
C11_2 C 0.5660(2) 0.07523(18) 0.05930(16)
H5_2 H 0.6295(2) 0.12980(18) 0.06956(16)
H6_2 H 0.5284(2) 0.06351(18) 0.11659(16)
C12_2 C 0.5880(3) 0.3710(2) 0.16945(17)
H7_2 H 0.6054(3) 0.3835(2) 0.23270(17)
C13_2 C 0.4331(2) 0.85076(17) 0.57225(16)
C15_2 C 0.5215(2) 0.88211(17) 0.24389(15)
C17_2 C 0.3780(2) 0.19332(18) 0.01098(18)
H12_2 H 0.3235(2) 0.17510(18) 0.05889(18)
C18_2 C 0.4970(3) 0.2974(2) 0.13873(18)
H13_2 H 0.4532(3) 0.2619(2) 0.18086(18)
H19_2 H 0.3183(2) 0.00371(17) 0.02126(18)
H9_2 H 0.6817(2) 0.99629(17) 0.97874(18)
C19_2 C 0.5285(2) 0.72327(17) 0.95452(17)
C20_2 C 0.3730(3) 0.5947(2) 0.97955(17)
N4_2 N 0.3480(2) 0.57523(15) 0.88856(14)
C21_2 C 0.4340(2) 0.92477(18) 0.94070(16)
H15_2 H 0.3705(2) 0.87020(18) 0.93044(16)
H16_2 H 0.4716(2) 0.93649(18) 0.88341(16)
C22_2 C 0.4120(3) 0.6290(2) 0.83055(17)
H17_2 H 0.3946(3) 0.6165(2) 0.76730(17)
C25_2 C 0.6220(2) 0.80668(18) 0.98902(18)
H22_2 H 0.6765(2) 0.82490(18) 0.94111(18)
C26_2 C 0.5030(3) 0.7026(2) 0.86127(18)
H23_2 H 0.5468(3) 0.7381(2) 0.81914(18)
O9 O 0.55438(18) 0.14851(14) 0.82512(12)
C27_2 C 0.4108(2) 0.27449(16) 0.66459(15)
O12_2 O 0.3023(2) 0.25791(15) 0.79945(14)
C28_2 C 0.4673(2) 0.17913(17) 0.66879(15)
C29_2 C 0.4667(2) 0.29356(17) 0.50846(15)
C30 C 0.5197(2) 0.19731(17) 0.51150(15)
O13_2 O 0.5060(2) 0.16406(17) 0.35038(13)
O14 O 0.3578(2) 0.40137(18) 0.39692(16)
H24 H 0.3669(8) 0.440(2) 0.355(2)
C31_2 C 0.4134(2) 0.33073(17) 0.58498(15)
H25_2 H 0.3786(2) 0.39492(17) 0.58279(15)
O15_2 O 0.57852(19) 0.38110(17) 0.39810(14)
O16_2 O 0.3255(2) 0.40909(13) 0.74274(13)
C32_2 C 0.3412(2) 0.31467(17) 0.74283(15)
C33 C 0.4749(2) 0.36190(17) 0.42773(16)
C34 C 0.5211(2) 0.14163(17) 0.59230(16)
H26 H 0.5586(2) 0.07827(17) 0.59520(16)
C35_2 C 0.5669(2) 0.14924(17) 0.42775(16)
C36_2 C 0.4785(2) 0.11789(17) 0.75611(15)
O14_2 O 0.1422(2) 0.90137(18) 0.10308(16)
H24_2 H 0.1331(8) 0.940(2) 0.145(2)
C33_2 C 0.0251(2) 0.86190(17) 0.07227(16)
O6_2 O 0.8578(2) 0.09863(18) 0.89692(16)
H1_2 H 0.8669(8) 0.060(2) 0.855(2)
C9_2 C 0.9749(2) 0.13810(17) 0.92773(16)
O9_2 O 0.94562(18) 0.64851(14) 0.67488(12)
C30_2 C 0.9803(2) 0.69731(17) 0.98850(15)
C34_2 C 0.9789(2) 0.64163(17) 0.90770(16)
H26_2 H 0.9414(2) 0.57827(17) 0.90480(16)
N1_2 N 0.45555(19) 0.10305(14) 0.98483(13)
H3_2 H 0.6712(3) 0.4425(2) 0.97968(17)
C16_2 C 0.5384(3) 0.3323(2) 0.98507(18)
H10_2 H 0.5235(3) 0.3204(2) 0.92162(18)
H11_2 H 0.3180(2) 0.21573(18) 0.95735(18)
C23_2 C 0.3612(2) 0.01701(17) 0.96642(18)
H18_2 H 0.2914(2) 0.03393(17) 0.91635(18)
H27_2 H 0.496395 0.118554 0.926106
C14_2 C 0.6388(2) 0.98299(17) 0.03358(18)
H8_2 H 0.7086(2) 0.96607(17) 0.08365(18)
N3_2 N 0.54445(19) 0.89695(14) 0.01517(13)
H14_2 H 0.3288(3) 0.5575(2) 0.02032(17)
C24_2 C 0.4616(3) 0.6677(2) 0.01493(18)
H20_2 H 0.4765(3) 0.6796(2) 0.07838(18)
H21_2 H 0.6820(2) 0.78427(18) 0.04265(18)
H28_2 H 0.503605 0.881446 0.0738938
loop_
_geom_bond_atom_site_label_1
_geom_bond_atom_site_label_2
_geom_bond_site_symmetry_1
_geom_bond_site_symmetry_2
C5 C10 1_555 1_555
C10 H4 1_555 1_555
O2 C13 1_555 1_555
O5 C13 1_555 1_555
Zn6 O2 1_555 1_555
C17 N1 1_555 1_555
H11 C17 1_555 1_555
H12 C17 1_555 1_555
C18 C1 1_555 1_555
H13 C18 1_555 1_555
C20 H14 1_555 1_555
N4 C20 1_555 1_555
H15 C21 1_555 1_555
H16 C21 1_555 1_555
C22 N4 1_555 1_555
H17 C22 1_555 1_555
C23 N1 1_555 1_555
H18 C23 1_555 1_555
H19 C23 1_555 1_555
C24 C20 1_555 1_555
H20 C24 1_555 1_555
C1 C17 1_555 1_555
C21 C23 1_555 1_555
N1 H27 1_555 1_555
C27 C28 1_555 1_555
O11 C36 1_555 1_555
O12 C32 1_555 1_555
C31 C27 1_555 1_555
H25 C31 1_555 1_555
O16 Zn2 1_555 1_555
C32 C27 1_555 1_555
C36 C28 1_555 1_555
Zn6 O11 1_555 1_555
O17 Zn2 1_555 1_555
C29 C31 1_555 1_555
O16 C32 1_555 1_555
Zn1 O8 1_555 1_555
C2 C3 1_555 1_555
O3 C15 1_555 1_555
O4 C7 1_555 1_555
C6 C2 1_555 1_555
H2 C6 1_555 1_555
O8 C7 1_555 1_555
C7 C2 1_555 1_555
C15 C3 1_555 1_555
Zn4 O3 1_555 1_555
O18 Zn1 1_555 1_555
C4 C6 1_555 1_555
C8 H3 1_555 1_555
C11 H5 1_555 1_555
H6 C11 1_555 1_555
C12 N2 1_555 1_555
H7 C12 1_555 1_555
C14 C11 1_555 1_555
H8 C14 1_555 1_555
H9 C14 1_555 1_555
C16 C8 1_555 1_555
H10 C16 1_555 1_555
N3 C14 1_555 1_555
C25 N3 1_555 1_555
H21 C25 1_555 1_555
H22 C25 1_555 1_555
C26 C19 1_555 1_555
H23 C26 1_555 1_555
C8 N2 1_555 1_555
C19 C25 1_555 1_555
N3 H28 1_555 1_555
O10 C35 1_555 1_555
O13 C35 1_555 1_555
Zn4 O10 1_555 1_555
Zn4 O8_2 1_555 1_555
O1_2 C15_2 1_555 1_555
C2_2 C3_2 1_555 1_555
O17 C13_2 1_555 1_555
O19 C15_2 1_555 1_555
O4_2 C7_2 1_555 1_555
C3_2 C10_2 1_555 1_555
C4_2 C5_2 1_555 1_555
C5_2 C10_2 1_555 1_555
O5_2 C13_2 1_555 1_555
O6 H1 1_555 1_555
C6_2 C2_2 1_555 1_555
H2_2 C6_2 1_555 1_555
O7_2 C9 1_555 1_555
O8_2 C7_2 1_555 1_555
C7_2 C2_2 1_555 1_555
C9 C4_2 1_555 1_555
C10_2 H4_2 1_555 1_555
N2_2 Zn4 1_555 1_555
C11_2 H5_2 1_555 1_555
H6_2 C11_2 1_555 1_555
C12_2 N2_2 1_555 1_555
H7_2 C12_2 1_555 1_555
C13_2 C5_2 1_555 1_555
C15_2 C3_2 1_555 1_555
H12_2 C17_2 1_555 1_555
C18_2 C1_2 1_555 1_555
H13_2 C18_2 1_555 1_555
C1_2 C17_2 1_555 1_555
C4_2 C6_2 1_555 1_555
O6 C9 1_555 1_555
C8_2 N2_2 1_555 1_555
C12_2 C18_2 1_555 1_555
N4_2 C20_2 1_555 1_555
H15_2 C21_2 1_555 1_555
H16_2 C21_2 1_555 1_555
C22_2 N4_2 1_555 1_555
H17_2 C22_2 1_555 1_555
H22_2 C25_2 1_555 1_555
C26_2 C19_2 1_555 1_555
H23_2 C26_2 1_555 1_555
Zn6 N4_2 1_555 1_555
O9 C36_2 1_555 1_555
C27_2 C28_2 1_555 1_555
O18 C35_2 1_555 1_555
O20 C36_2 1_555 1_555
O12_2 C32_2 1_555 1_555
C28_2 C34 1_555 1_555
C29_2 C30 1_555 1_555
C30 C34 1_555 1_555
O13_2 C35_2 1_555 1_555
O14 H24 1_555 1_555
C31_2 C27_2 1_555 1_555
H25_2 C31_2 1_555 1_555
O15_2 C33 1_555 1_555
O16_2 Zn6 1_555 1_555
C32_2 C27_2 1_555 1_555
C33 C29_2 1_555 1_555
C34 H26 1_555 1_555
C35_2 C30 1_555 1_555
C36_2 C28_2 1_555 1_555
C19_2 C25_2 1_555 1_555
C22_2 C26_2 1_555 1_555
C29_2 C31_2 1_555 1_555
O14 C33 1_555 1_555
O16_2 C32_2 1_555 1_555
O14_2 H24_2 1_555 1_555
O14_2 C33_2 1_555 1_555
O6_2 H1_2 1_555 1_555
O6_2 C9_2 1_555 1_555
C30_2 C34_2 1_555 1_555
C34_2 H26_2 1_555 1_555
H10_2 C16_2 1_555 1_555
C23_2 N1_2 1_555 1_555
H18_2 C23_2 1_555 1_555
N1_2 H27_2 1_555 1_555
H8_2 C14_2 1_555 1_555
N3_2 C14_2 1_555 1_555
H20_2 C24_2 1_555 1_555
N3_2 H28_2 1_555 1_555

#END
