
###############################################################################
#
# This file contains modified crystal structure data generated from the
# MOF subset of the Cambridge Structural Database (CSD) v543 
# hosted by the Cambridge Crystallographic Data Centre (CCDC).
#
# This work is licensed under the Creative Commons
# Attribution-NonCommercial-ShareAlike 4.0 International License.
# To view a copy of this license, visit
# http://creativecommons.org/licenses/by-nc-sa/4.0/
# or send a letter to
# Creative Commons, PO Box 1866, Mountain View, CA 94042, USA.
#
# CIF created using the CSD Python API on 29 September 2022
# The structure has been converted into the P1 space group
# The structure has a 3D framework
# The original CSD entry UVASAM02 is in the monoclinic crystal system
# The framework has been calculated to contain at least 10.0% void space
# The void calculation uses a probe of radius 1.32A, grid spacing 0.4
#
###############################################################################

data_UVASAM02
_chemical_formula_moiety         '(C112 H80 N8 O16 Zn4)n'
_symmetry_cell_setting           triclinic
_symmetry_space_group_name_H-M   'P 1'
_symmetry_Int_Tables_number      1
_space_group_name_Hall           'P 1'
loop_
_symmetry_equiv_pos_site_id
_symmetry_equiv_pos_as_xyz
1 x,y,z
_cell_length_a                   13.4836(11)
_cell_length_b                   24.964(2)
_cell_length_c                   8.3985(7)
_cell_angle_alpha                90
_cell_angle_beta                 98.878(3)
_cell_angle_gamma                90
_cell_volume                     2793.1
loop_
_atom_site_label
_atom_site_type_symbol
_atom_site_fract_x
_atom_site_fract_y
_atom_site_fract_z
N2 N 0.1591(5) 0.8724(3) 0.5839(9)
C23 C 0.0309(7) 0.8045(4) 0.1319(13)
H16 H 0.0361 0.8252 0.0386
C24 C 0.0758(7) 0.8268(4) 0.2915(13)
C25 C 0.1027(6) 0.8804(4) 0.3010(11)
H17 H 0.0930 0.9025 0.2079
C26 C 0.1440(6) 0.9008(3) 0.4497(10)
H18 H 0.1628 0.9375 0.4556
C27 C 0.1332(7) 0.8204(4) 0.5751(11)
H19 H 0.1446 0.7992 0.6701
C28 C 0.0903(7) 0.7968(4) 0.4318(12)
H20 H 0.0709 0.7602 0.4297
Zn3 Zn 0.20009(7) 0.90883(3) 0.80357(10)
N1 N 0.3261(5) 0.9475(3) 0.7467(9)
C3 C 0.9289(7) 0.9854(4) 0.4472(14)
H1 H 0.9799 0.9608 0.4301
C4 C 0.8411(8) 0.9674(4) 0.5023(14)
H2 H 0.8347 0.9305 0.5267
C8 C 0.6738(8) 0.9823(4) 0.5798(13)
H5 H 0.6740 0.9455 0.6090
C10 C 0.5026(7) 0.9890(4) 0.6516(11)
C11 C 0.4982(7) 0.9368(4) 0.7157(12)
H7 H 0.5558 0.9144 0.7277
C12 C 0.4106(7) 0.9187(4) 0.7606(11)
H8 H 0.4099 0.8836 0.8040
C13 C 0.3306(6) 0.9976(4) 0.6903(10)
O1 O 0.1055(4) 0.9702(2) 0.8472(7)
O2 O 0.0413(5) 0.8896(3) 0.8428(7)
O4 O 0.2958(5) 0.8089(3) 0.8788(8)
C1 C 0.0323(6) 0.9388(4) 0.8667(11)
H13 H 0.8885 0.6690 0.0511
C22 C 0.9845(7) 0.7579(4) 0.1115(12)
H15 H 0.9815 0.7365 0.2042
Zn1 Zn 0.70009(7) 0.59117(3) 0.30357(10)
O1_2 O 0.6055(4) 0.5298(2) 0.3472(7)
O2_2 O 0.5413(5) 0.6104(3) 0.3428(7)
O3 O 0.7617(5) 0.6191(3) 0.5146(9)
O4_2 O 0.7958(5) 0.6911(3) 0.3788(8)
C1_2 C 0.5323(6) 0.5612(4) 0.3667(11)
C2 C 0.4395(6) 0.5398(4) 0.4183(10)
C3_2 C 0.4289(7) 0.4854(4) 0.4472(14)
H1_2 H 0.4799 0.4608 0.4301
C4_2 C 0.3411(8) 0.4674(4) 0.5023(14)
H2_2 H 0.3347 0.4305 0.5267
C5 C 0.2644(8) 0.5022(4) 0.5215(13)
C6 C 0.2775(7) 0.5569(4) 0.4907(12)
H3 H 0.2263 0.5816 0.5058
C7 C 0.3635(7) 0.5750(4) 0.4390(13)
H4 H 0.3707 0.6121 0.4174
C8_2 C 0.1738(8) 0.4823(4) 0.5798(13)
H5_2 H 0.1740 0.4455 0.6090
C9 C 0.0924(7) 0.5097(4) 0.5962(12)
H6 H 0.0923 0.5467 0.5692
C10_2 C 0.0026(7) 0.4890(4) 0.6516(11)
H7_2 H 0.0558 0.4144 0.7277
C15 C 0.7970(7) 0.6658(4) 0.5082(13)
C16 C 0.8458(6) 0.6904(4) 0.6633(12)
C17 C 0.8903(7) 0.7408(4) 0.6660(12)
H11 H 0.8891 0.7600 0.5680
C18 C 0.9358(7) 0.7631(4) 0.8074(11)
H12 H 0.9672 0.7971 0.8056
C19 C 0.9368(7) 0.7368(4) 0.9535(12)
C20 C 0.8900(8) 0.6872(5) 0.9522(13)
C21 C 0.8457(7) 0.6640(4) 0.8100(13)
H14 H 0.8148 0.6298 0.8116
N3 N 0.8261(5) 0.5525(3) 0.2467(9)
N4 N 0.6591(5) 0.6276(3) 0.0839(9)
C11_2 C 0.9982(7) 0.5632(4) 0.2157(12)
C12_2 C 0.9106(7) 0.5813(4) 0.2606(11)
H8_2 H 0.9099 0.6164 0.3040
C13_2 C 0.8306(6) 0.5024(4) 0.1903(10)
H9 H 0.7721 0.4807 0.1821
C14 C 0.9168(7) 0.4805(4) 0.1433(10)
H10 H 0.9163 0.4446 0.1056
C27_2 C 0.6332(7) 0.6796(4) 0.0751(11)
H19_2 H 0.6446 0.7008 0.1701
N1_2 N 0.8261(5) 0.4475(3) 0.7467(9)
C11_3 C 0.9982(7) 0.4368(4) 0.7157(12)
C12_3 C 0.9106(7) 0.4187(4) 0.7606(11)
H8_3 H 0.9099 0.3836 0.8040
C13_3 C 0.8306(6) 0.4976(4) 0.6903(10)
H9_2 H 0.7721 0.5193 0.6821
C14_2 C 0.9168(7) 0.5195(4) 0.6433(10)
H10_2 H 0.9163 0.5554 0.6056
Zn2 Zn 0.70009(7) 0.40883(3) 0.80357(10)
O1_3 O 0.6055(4) 0.4702(2) 0.8472(7)
O2_3 O 0.5413(5) 0.3896(3) 0.8428(7)
O4_3 O 0.7958(5) 0.3089(3) 0.8788(8)
C1_3 C 0.5323(6) 0.4388(4) 0.8667(11)
C2_2 C 0.4395(6) 0.4602(4) 0.9183(10)
C3_3 C 0.4289(7) 0.5146(4) 0.9472(14)
H1_3 H 0.4799 0.5392 0.9301
C6_2 C 0.2775(7) 0.4431(4) 0.9907(12)
C7_2 C 0.3635(7) 0.4250(4) 0.9390(13)
H4_2 H 0.3707 0.3879 0.9174
N4_2 N 0.6591(5) 0.3724(3) 0.5839(9)
H13_2 H 0.3885 0.1690 0.0511
C22_2 C 0.4845(7) 0.2579(4) 0.1115(12)
H15_2 H 0.4815 0.2365 0.2042
C23_2 C 0.5309(7) 0.3045(4) 0.1319(13)
H16_2 H 0.5361 0.3252 0.0386
C24_2 C 0.5758(7) 0.3268(4) 0.2915(13)
C25_2 C 0.6027(6) 0.3804(4) 0.3010(11)
H17_2 H 0.5930 0.4025 0.2079
C26_2 C 0.6440(6) 0.4008(3) 0.4497(10)
H18_2 H 0.6628 0.4375 0.4556
C27_3 C 0.6332(7) 0.3204(4) 0.5751(11)
H19_3 H 0.6446 0.2992 0.6701
C28_2 C 0.5903(7) 0.2968(4) 0.4318(12)
H20_2 H 0.5709 0.2602 0.4297
N2_2 N 0.1591(5) 0.1276(3) 0.0839(9)
C27_4 C 0.1332(7) 0.1796(4) 0.0751(11)
H19_4 H 0.1446 0.2008 0.1701
Zn3_2 Zn 0.20009(7) 0.09117(3) 0.30357(10)
O1_4 O 0.1055(4) 0.0298(2) 0.3472(7)
O2_4 O 0.0413(5) 0.1104(3) 0.3428(7)
O3_2 O 0.2617(5) 0.1191(3) 0.5146(9)
O4_4 O 0.2958(5) 0.1911(3) 0.3788(8)
C1_4 C 0.0323(6) 0.0612(4) 0.3667(11)
C15_2 C 0.2970(7) 0.1658(4) 0.5082(13)
C16_2 C 0.3458(6) 0.1904(4) 0.6633(12)
C17_2 C 0.3903(7) 0.2408(4) 0.6660(12)
H11_2 H 0.3891 0.2600 0.5680
C18_2 C 0.4358(7) 0.2631(4) 0.8074(11)
H12_2 H 0.4672 0.2971 0.8056
C19_2 C 0.4368(7) 0.2368(4) 0.9535(12)
C20_2 C 0.3900(8) 0.1872(5) 0.9522(13)
C21_2 C 0.3457(7) 0.1640(4) 0.8100(13)
H14_2 H 0.3148 0.1298 0.8116
N3_2 N 0.3261(5) 0.0525(3) 0.2467(9)
C4_3 C 0.8411(8) 0.0326(4) 0.0023(14)
H2_3 H 0.8347 0.0695 0.0267
C8_3 C 0.6738(8) 0.0177(4) 0.0798(13)
H5_3 H 0.6740 0.0545 0.1090
C10_3 C 0.5026(7) 0.0110(4) 0.1516(11)
C11_4 C 0.4982(7) 0.0632(4) 0.2157(12)
H7_3 H 0.5558 0.0856 0.2277
C12_4 C 0.4106(7) 0.0813(4) 0.2606(11)
H8_4 H 0.4099 0.1164 0.3040
C13_4 C 0.3306(6) 0.0024(4) 0.1903(10)
C23_3 C 0.0309(7) 0.1955(4) 0.6319(13)
H16_3 H 0.0361 0.1748 0.5386
C24_3 C 0.0758(7) 0.1732(4) 0.7915(13)
C25_3 C 0.1027(6) 0.1196(4) 0.8010(11)
H17_3 H 0.0930 0.0975 0.7079
C26_3 C 0.1440(6) 0.0992(3) 0.9497(10)
H18_3 H 0.1628 0.0625 0.9556
C28_3 C 0.0903(7) 0.2032(4) 0.9318(12)
H20_3 H 0.0709 0.2398 0.9297
O3_3 O 0.7617(5) 0.3809(3) 0.0146(9)
C4_4 C 0.3411(8) 0.5326(4) 0.0023(14)
H2_4 H 0.3347 0.5695 0.0267
C5_2 C 0.2644(8) 0.4978(4) 0.0215(13)
H3_2 H 0.2263 0.4184 0.0058
C8_4 C 0.1738(8) 0.5177(4) 0.0798(13)
H5_4 H 0.1740 0.5545 0.1090
C9_2 C 0.0924(7) 0.4903(4) 0.0962(12)
H6_2 H 0.0923 0.4533 0.0692
C10_4 C 0.0026(7) 0.5110(4) 0.1516(11)
H7_4 H 0.0558 0.5856 0.2277
C15_3 C 0.7970(7) 0.3342(4) 0.0082(13)
C16_3 C 0.8458(6) 0.3096(4) 0.1633(12)
C17_3 C 0.8903(7) 0.2592(4) 0.1660(12)
H11_3 H 0.8891 0.2400 0.0680
C18_3 C 0.9358(7) 0.2369(4) 0.3074(11)
H12_3 H 0.9672 0.2029 0.3056
C19_3 C 0.9368(7) 0.2632(4) 0.4535(12)
C20_3 C 0.8900(8) 0.3128(5) 0.4522(13)
H13_3 H 0.8885 0.3310 0.5511
C21_3 C 0.8457(7) 0.3360(4) 0.3100(13)
H14_3 H 0.8148 0.3702 0.3116
C22_3 C 0.9845(7) 0.2421(4) 0.6115(12)
H15_3 H 0.9815 0.2635 0.7042
C2_3 C 0.9395(6) 0.0398(4) 0.4183(10)
C5_3 C 0.7644(8) 0.0022(4) 0.5215(13)
C6_3 C 0.7775(7) 0.0569(4) 0.4907(12)
H3_3 H 0.7263 0.0816 0.5058
C7_3 C 0.8635(7) 0.0750(4) 0.4390(13)
H4_3 H 0.8707 0.1121 0.4174
C9_3 C 0.5924(7) 0.0097(4) 0.5962(12)
H6_3 H 0.5923 0.0467 0.5692
H9_3 H 0.2721 0.0193 0.6821
C14_3 C 0.4168(7) 0.0195(4) 0.6433(10)
H10_3 H 0.4163 0.0554 0.6056
O3_4 O 0.2617(5) 0.8809(3) 0.0146(9)
C15_4 C 0.2970(7) 0.8342(4) 0.0082(13)
C16_4 C 0.3458(6) 0.8096(4) 0.1633(12)
C17_4 C 0.3903(7) 0.7592(4) 0.1660(12)
H11_4 H 0.3891 0.7400 0.0680
C18_4 C 0.4358(7) 0.7369(4) 0.3074(11)
H12_4 H 0.4672 0.7029 0.3056
C19_4 C 0.4368(7) 0.7632(4) 0.4535(12)
C20_4 C 0.3900(8) 0.8128(5) 0.4522(13)
H13_4 H 0.3885 0.8310 0.5511
C21_4 C 0.3457(7) 0.8360(4) 0.3100(13)
H14_4 H 0.3148 0.8702 0.3116
C22_4 C 0.4845(7) 0.7421(4) 0.6115(12)
H15_4 H 0.4815 0.7635 0.7042
C23_4 C 0.5309(7) 0.6955(4) 0.6319(13)
H16_4 H 0.5361 0.6748 0.5386
C24_4 C 0.5758(7) 0.6732(4) 0.7915(13)
C25_4 C 0.6027(6) 0.6196(4) 0.8010(11)
H17_4 H 0.5930 0.5975 0.7079
C26_4 C 0.6440(6) 0.5992(3) 0.9497(10)
H18_4 H 0.6628 0.5625 0.9556
C28_4 C 0.5903(7) 0.7032(4) 0.9318(12)
H20_4 H 0.5709 0.7398 0.9297
C3_4 C 0.9289(7) 0.0146(4) 0.9472(14)
H1_4 H 0.9799 0.0392 0.9301
C5_4 C 0.7644(8) 0.9978(4) 0.0215(13)
H3_4 H 0.7263 0.9184 0.0058
C9_4 C 0.5924(7) 0.9903(4) 0.0962(12)
H6_4 H 0.5923 0.9533 0.0692
H9_4 H 0.2721 0.9807 0.1821
C14_4 C 0.4168(7) 0.9805(4) 0.1433(10)
H10_4 H 0.4163 0.9446 0.1056
C2_4 C 0.9395(6) 0.9602(4) 0.9183(10)
C6_4 C 0.7775(7) 0.9431(4) 0.9907(12)
C7_4 C 0.8635(7) 0.9250(4) 0.9390(13)
H4_4 H 0.8707 0.8879 0.9174
loop_
_geom_bond_atom_site_label_1
_geom_bond_atom_site_label_2
_geom_bond_site_symmetry_1
_geom_bond_site_symmetry_2
N2 C26 1_555 1_555
H16 C23 1_555 1_555
C24 C23 1_555 1_555
C25 C24 1_555 1_555
H17 C25 1_555 1_555
C26 C25 1_555 1_555
H18 C26 1_555 1_555
C27 N2 1_555 1_555
H19 C27 1_555 1_555
C28 C24 1_555 1_555
H20 C28 1_555 1_555
Zn3 N2 1_555 1_555
C27 C28 1_555 1_555
N1 C12 1_555 1_555
H1 C3 1_555 1_555
C4 C3 1_555 1_555
H2 C4 1_555 1_555
H5 C8 1_555 1_555
C11 C10 1_555 1_555
H7 C11 1_555 1_555
C12 C11 1_555 1_555
H8 C12 1_555 1_555
C13 N1 1_555 1_555
Zn3 N1 1_555 1_555
Zn3 O1 1_555 1_555
O1 C1 1_555 1_555
O2 Zn3 1_555 1_555
C1 O2 1_555 1_555
H15 C22 1_555 1_555
Zn1 O1_2 1_555 1_555
O1_2 C1_2 1_555 1_555
O2_2 Zn1 1_555 1_555
O3 Zn1 1_555 1_555
O4_2 C15 1_555 1_555
C1_2 O2_2 1_555 1_555
C2 C1_2 1_555 1_555
C3_2 C2 1_555 1_555
H1_2 C3_2 1_555 1_555
C4_2 C3_2 1_555 1_555
H2_2 C4_2 1_555 1_555
C5 C4_2 1_555 1_555
C6 C5 1_555 1_555
H3 C6 1_555 1_555
C7 C2 1_555 1_555
H4 C7 1_555 1_555
C8_2 C5 1_555 1_555
H5_2 C8_2 1_555 1_555
C9 C8_2 1_555 1_555
H6 C9 1_555 1_555
C10_2 C9 1_555 1_555
C15 O3 1_555 1_555
C16 C15 1_555 1_555
C17 C16 1_555 1_555
H11 C17 1_555 1_555
C18 C17 1_555 1_555
H12 C18 1_555 1_555
C19 C18 1_555 1_555
C20 C19 1_555 1_555
C21 C16 1_555 1_555
H14 C21 1_555 1_555
N3 Zn1 1_555 1_555
N4 Zn1 1_555 1_555
C6 C7 1_555 1_555
C20 C21 1_555 1_555
N3 C12_2 1_555 1_555
C12_2 C11_2 1_555 1_555
H8_2 C12_2 1_555 1_555
C13_2 N3 1_555 1_555
H9 C13_2 1_555 1_555
H10 C14 1_555 1_555
C13_2 C14 1_555 1_555
C27_2 N4 1_555 1_555
H19_2 C27_2 1_555 1_555
N1_2 C12_3 1_555 1_555
C12_3 C11_3 1_555 1_555
H8_3 C12_3 1_555 1_555
C13_3 N1_2 1_555 1_555
H9_2 C13_3 1_555 1_555
H10_2 C14_2 1_555 1_555
Zn2 N1_2 1_555 1_555
C13_3 C14_2 1_555 1_555
Zn2 O1_3 1_555 1_555
O1_3 C1_3 1_555 1_555
O2_3 Zn2 1_555 1_555
C1_3 O2_3 1_555 1_555
C2_2 C1_3 1_555 1_555
C3_3 C2_2 1_555 1_555
H1_3 C3_3 1_555 1_555
C7_2 C2_2 1_555 1_555
H4_2 C7_2 1_555 1_555
N4_2 Zn2 1_555 1_555
C6_2 C7_2 1_555 1_555
N4_2 C26_2 1_555 1_555
H15_2 C22_2 1_555 1_555
C23_2 C22_2 1_555 1_555
H16_2 C23_2 1_555 1_555
C24_2 C23_2 1_555 1_555
C25_2 C24_2 1_555 1_555
H17_2 C25_2 1_555 1_555
C26_2 C25_2 1_555 1_555
H18_2 C26_2 1_555 1_555
C27_3 N4_2 1_555 1_555
H19_3 C27_3 1_555 1_555
C28_2 C24_2 1_555 1_555
H20_2 C28_2 1_555 1_555
C27_3 C28_2 1_555 1_555
C27_4 N2_2 1_555 1_555
H19_4 C27_4 1_555 1_555
Zn3_2 N2_2 1_555 1_555
Zn3_2 O1_4 1_555 1_555
O1_4 C1_4 1_555 1_555
O2_4 Zn3_2 1_555 1_555
O3_2 Zn3_2 1_555 1_555
O4_4 C15_2 1_555 1_555
C1_4 O2_4 1_555 1_555
C15_2 O3_2 1_555 1_555
C16_2 C15_2 1_555 1_555
C17_2 C16_2 1_555 1_555
H11_2 C17_2 1_555 1_555
C18_2 C17_2 1_555 1_555
H12_2 C18_2 1_555 1_555
C19_2 C18_2 1_555 1_555
C20_2 C19_2 1_555 1_555
C21_2 C16_2 1_555 1_555
H14_2 C21_2 1_555 1_555
N3_2 Zn3_2 1_555 1_555
C20_2 C21_2 1_555 1_555
N3_2 C12_4 1_555 1_555
H2_3 C4_3 1_555 1_555
H5_3 C8_3 1_555 1_555
C11_4 C10_3 1_555 1_555
H7_3 C11_4 1_555 1_555
C12_4 C11_4 1_555 1_555
H8_4 C12_4 1_555 1_555
C13_4 N3_2 1_555 1_555
H16_3 C23_3 1_555 1_555
C24_3 C23_3 1_555 1_555
C25_3 C24_3 1_555 1_555
H17_3 C25_3 1_555 1_555
C26_3 C25_3 1_555 1_555
H18_3 C26_3 1_555 1_555
C28_3 C24_3 1_555 1_555
H20_3 C28_3 1_555 1_555
H2_4 C4_4 1_555 1_555
C5_2 C4_4 1_555 1_555
C8_4 C5_2 1_555 1_555
H5_4 C8_4 1_555 1_555
C9_2 C8_4 1_555 1_555
H6_2 C9_2 1_555 1_555
C10_4 C9_2 1_555 1_555
C15_3 O3_3 1_555 1_555
C16_3 C15_3 1_555 1_555
C17_3 C16_3 1_555 1_555
H11_3 C17_3 1_555 1_555
C18_3 C17_3 1_555 1_555
H12_3 C18_3 1_555 1_555
C19_3 C18_3 1_555 1_555
C20_3 C19_3 1_555 1_555
H13_3 C20_3 1_555 1_555
C21_3 C16_3 1_555 1_555
H14_3 C21_3 1_555 1_555
C22_3 C19_3 1_555 1_555
H15_3 C22_3 1_555 1_555
C20_3 C21_3 1_555 1_555
C6_3 C5_3 1_555 1_555
H3_3 C6_3 1_555 1_555
C7_3 C2_3 1_555 1_555
H4_3 C7_3 1_555 1_555
H6_3 C9_3 1_555 1_555
H10_3 C14_3 1_555 1_555
C6_3 C7_3 1_555 1_555
C15_4 O3_4 1_555 1_555
C16_4 C15_4 1_555 1_555
C17_4 C16_4 1_555 1_555
H11_4 C17_4 1_555 1_555
C18_4 C17_4 1_555 1_555
H12_4 C18_4 1_555 1_555
C19_4 C18_4 1_555 1_555
C20_4 C19_4 1_555 1_555
H13_4 C20_4 1_555 1_555
C21_4 C16_4 1_555 1_555
H14_4 C21_4 1_555 1_555
C22_4 C19_4 1_555 1_555
H15_4 C22_4 1_555 1_555
C23_4 C22_4 1_555 1_555
H16_4 C23_4 1_555 1_555
C24_4 C23_4 1_555 1_555
C25_4 C24_4 1_555 1_555
H17_4 C25_4 1_555 1_555
C26_4 C25_4 1_555 1_555
H18_4 C26_4 1_555 1_555
C28_4 C24_4 1_555 1_555
H20_4 C28_4 1_555 1_555
C20_4 C21_4 1_555 1_555
H1_4 C3_4 1_555 1_555
H6_4 C9_4 1_555 1_555
H10_4 C14_4 1_555 1_555
C7_4 C2_4 1_555 1_555
H4_4 C7_4 1_555 1_555
C6_4 C7_4 1_555 1_555

#END
