
###############################################################################
#
# This file contains modified crystal structure data generated from the
# MOF subset of the Cambridge Structural Database (CSD) v543 
# hosted by the Cambridge Crystallographic Data Centre (CCDC).
#
# This work is licensed under the Creative Commons
# Attribution-NonCommercial-ShareAlike 4.0 International License.
# To view a copy of this license, visit
# http://creativecommons.org/licenses/by-nc-sa/4.0/
# or send a letter to
# Creative Commons, PO Box 1866, Mountain View, CA 94042, USA.
#
# CIF created using the CSD Python API on 29 September 2022
# The structure has been converted into the P1 space group
# The structure has a 3D framework
# The original CSD entry UVOBUE is in the triclinic crystal system
# The framework has been calculated to contain at least 10.0% void space
# The void calculation uses a probe of radius 1.32A, grid spacing 0.4
#
###############################################################################

data_UVOBUE
_chemical_formula_moiety         '(C28 H36 Ce4 Mo8 N4 O53)n'
_symmetry_cell_setting           triclinic
_symmetry_space_group_name_H-M   'P 1'
_symmetry_Int_Tables_number      1
_space_group_name_Hall           'P 1'
loop_
_symmetry_equiv_pos_site_id
_symmetry_equiv_pos_as_xyz
1 x,y,z
_cell_length_a                   11.5084(10)
_cell_length_b                   12.7158(13)
_cell_length_c                   14.5387(12)
_cell_angle_alpha                94.2410(10)
_cell_angle_beta                 109.0660(10)
_cell_angle_gamma                115.603(2)
_cell_volume                     1754.71
loop_
_atom_site_label
_atom_site_type_symbol
_atom_site_fract_x
_atom_site_fract_y
_atom_site_fract_z
_atom_site_U_iso_or_equiv
_atom_site_thermal_displace_type
O18 O 0.4071(5) 0.1198(4) 0.0253(3) 0.0152 Uani
O21 O 0.8230(5) 0.1103(5) 0.0158(4) 0.0285 Uani
Mo5 Mo 0.65065(6) 0.24168(5) 0.11359(4) 0.0170 Uani
Mo6 Mo 0.62764(7) 0.07487(6) 0.27281(5) 0.0255 Uani
O28 O 0.6039(5) 0.0476(4) 0.0973(3) 0.0150 Uani
O29 O 0.6107(5) 0.2079(4) 0.2277(3) 0.0229 Uani
O30 O 0.6181(5) 0.3603(4) 0.1020(3) 0.0225 Uani
O31 O 0.8286(5) 0.3035(4) 0.1615(4) 0.0266 Uani
O34 O 0.8062(6) 0.1393(5) 0.3228(4) 0.0424 Uani
O35 O 0.5830(6) 0.0734(5) 0.3738(4) 0.0414 Uani
Ce10 Ce 0.61780(4) 0.54780(3) 0.16823(3) 0.0125 Uani
Mo3 Mo 0.37730(6) 0.12519(6) 0.88323(4) 0.0180 Uani
Mo4 Mo 0.64688(6) 0.04335(5) 0.96194(4) 0.0158 Uani
O13 O 0.4150(5) 0.0877(4) 0.7712(3) 0.0253 Uani
O14 O 0.6058(5) 0.0159(4) 0.8329(3) 0.0218 Uani
O17 O 0.6137(5) 0.1807(4) 0.9732(3) 0.0160 Uani
O19 O 0.2006(5) 0.0503(5) 0.8342(4) 0.0314 Uani
O20 O 0.4214(5) 0.2737(4) 0.8905(3) 0.0236 Uani
Ce7 Ce 0.38220(4) 0.45220(3) 0.83177(3) 0.0125 Uani
O4 O 0.8088(5) 0.7073(5) 0.0967(3) 0.0229 Uani
C7 C 0.7202(7) 0.6546(7) 0.0095(5) 0.0161 Uani
Mo7 Mo 0.62270(6) 0.87481(6) 0.11677(4) 0.0180 Uani
Mo8 Mo 0.35312(6) 0.95665(5) 0.03806(4) 0.0158 Uani
O32 O 0.5850(5) 0.9123(4) 0.2288(3) 0.0253 Uani
O33 O 0.3942(5) 0.9841(4) 0.1671(3) 0.0218 Uani
O36 O 0.3863(5) 0.8193(4) 0.0268(3) 0.0160 Uani
O38 O 0.7994(5) 0.9497(5) 0.1658(4) 0.0314 Uani
O39 O 0.5786(5) 0.7263(4) 0.1095(3) 0.0236 Uani
O56 O 0.3840(5) 0.4521(4) 0.0114(3) 0.0201 Uani
Ce2 Ce 0.23327(4) 0.52404(4) 0.44113(3) 0.0170 Uani
Mo1 Mo 0.34935(6) 0.75832(5) 0.88641(4) 0.0170 Uani
Mo2 Mo 0.37236(7) 0.92513(6) 0.72719(5) 0.0255 Uani
N1 N 0.6087(6) 0.6516(5) 0.8399(4) 0.0165 Uani
N2 N 0.1763(6) 0.5698(5) 0.2640(4) 0.0158 Uani
O1 O 0.3710(5) 0.5392(4) 0.6779(3) 0.0225 Uani
O2 O 0.4655(5) 0.6514(5) 0.5864(3) 0.0298 Uani
O3 O 0.6160(5) 0.5479(4) 0.9886(3) 0.0201 Uani
O5 O 0.0049(5) 0.5230(5) 0.3554(3) 0.0240 Uani
O7 O 0.4086(5) 0.5616(5) 0.3649(4) 0.0292 Uani
O8 O 0.4868(5) 0.6032(5) 0.2444(3) 0.0243 Uani
O9 O 0.3961(5) 0.9524(4) 0.9027(3) 0.0150 Uani
O10 O 0.3893(5) 0.7921(4) 0.7723(3) 0.0229 Uani
O11 O 0.3819(5) 0.6397(4) 0.8980(3) 0.0225 Uani
O12 O 0.1714(5) 0.6965(4) 0.8385(4) 0.0266 Uani
O15 O 0.1938(6) 0.8607(5) 0.6772(4) 0.0424 Uani
O16 O 0.4170(6) 0.9266(5) 0.6262(4) 0.0414 Uani
O22 O 0.2022(6) 0.2714(5) 0.6818(4) 0.0347 Uani
H1 H 0.1415 0.2185 0.6981 0.0410 Uiso
H2 H 0.2421 0.2396 0.6592 0.0410 Uiso
O23 O 0.0734(5) 0.3554(5) 0.5045(4) 0.0353 Uani
H3 H 0.0457 0.3864 0.5407 0.0420 Uiso
H4 H 0.1218 0.3277 0.5411 0.0420 Uiso
O24 O 0.3328(5) 0.3795(5) 0.4852(4) 0.0316 Uani
H5 H 0.3991 0.4103 0.5434 0.0380 Uiso
H6 H 0.3665 0.3696 0.4432 0.0380 Uiso
O25 O 0.0912(6) 0.3276(5) 0.3035(4) 0.0384 Uani
H7 H 0.0111 0.3187 0.2674 0.0460 Uiso
H8 H 0.0798 0.2676 0.3289 0.0460 Uiso
O26 O 0.1796(5) 0.6229(5) 0.5690(4) 0.0323 Uani
H9 H 0.2546 0.6702 0.6199 0.0390 Uiso
H10 H 0.1238 0.5696 0.5885 0.0390 Uiso
O27 O 0.3256(6) 0.7497(5) 0.4480(4) 0.0457 Uani
H11 H 0.3300 0.7886 0.5003 0.0550 Uiso
H12 H 0.2773 0.7614 0.3957 0.0550 Uiso
C1 C 0.4708(8) 0.6248(7) 0.6681(5) 0.0207 Uani
C2 C 0.6071(7) 0.6988(6) 0.7599(5) 0.0197 Uani
C3 C 0.7178(8) 0.8019(7) 0.7602(6) 0.0318 Uani
H13 H 0.7116 0.8317 0.7033 0.0390 Uiso
C4 C 0.8373(9) 0.8593(8) 0.8470(6) 0.0383 Uani
H14 H 0.9140 0.9293 0.8499 0.0460 Uiso
C5 C 0.8431(8) 0.8126(7) 0.9296(5) 0.0287 Uani
H15 H 0.9244 0.8500 0.9884 0.0340 Uiso
C6 C 0.7275(7) 0.7099(7) 0.9249(5) 0.0185 Uani
C9 C 0.0618(7) 0.5768(6) 0.2185(5) 0.0172 Uani
C10 C 0.0338(7) 0.6094(7) 0.1271(5) 0.0231 Uani
C11 C 0.1268(8) 0.6300(7) 0.0826(5) 0.0286 Uani
H17 H 0.1094 0.6503 0.0213 0.0350 Uiso
C12 C 0.2485(7) 0.6205(7) 0.1294(5) 0.0226 Uani
H18 H 0.3126 0.6333 0.1001 0.0270 Uiso
C13 C 0.2683(7) 0.5914(6) 0.2211(5) 0.0162 Uani
C14 C 0.3987(7) 0.5844(6) 0.2810(5) 0.0186 Uani
O37 O 0.5929(5) 0.8802(4) 0.9747(3) 0.0152 Uani
O40 O 0.1770(5) 0.8897(5) 0.9842(4) 0.0285 Uani
O46 O 0.1428(5) 0.4407(4) 0.7613(4) 0.0236 Uani
C22 C 0.0347(7) 0.4491(7) 0.7264(5) 0.0194 Uani
H34 H 0.0461 0.3831 0.9026 0.0270 Uiso
O58 O 0.1912(5) 0.2927(5) 0.9033(3) 0.0229 Uani
O60 O 0.5132(5) 0.3968(5) 0.7556(3) 0.0243 Uani
O6 O 0.8572(5) 0.5593(4) 0.2387(4) 0.0236 Uani
C8 C 0.9653(7) 0.5509(7) 0.2736(5) 0.0194 Uani
H16 H 0.9539 0.6169 0.0974 0.0270 Uiso
Ce4 Ce 0.76673(4) 0.47596(4) 0.55887(3) 0.0170 Uani
N3 N 0.3913(6) 0.3484(5) 0.1601(4) 0.0165 Uani
N4 N 0.8237(6) 0.4302(5) 0.7360(4) 0.0158 Uani
O41 O 0.6290(5) 0.4608(4) 0.3221(3) 0.0225 Uani
O42 O 0.5345(5) 0.3486(5) 0.4136(3) 0.0298 Uani
O45 O 0.9951(5) 0.4770(5) 0.6446(3) 0.0240 Uani
O47 O 0.5914(5) 0.4384(5) 0.6351(4) 0.0292 Uani
O49 O 0.7978(6) 0.7286(5) 0.3182(4) 0.0347 Uani
H19 H 0.8585 0.7815 0.3019 0.0410 Uiso
H20 H 0.7579 0.7604 0.3408 0.0410 Uiso
O50 O 0.9266(5) 0.6446(5) 0.4955(4) 0.0353 Uani
H21 H 0.9543 0.6136 0.4593 0.0420 Uiso
H22 H 0.8782 0.6723 0.4589 0.0420 Uiso
O51 O 0.6672(5) 0.6205(5) 0.5148(4) 0.0316 Uani
H23 H 0.6009 0.5897 0.4566 0.0380 Uiso
H24 H 0.6335 0.6304 0.5568 0.0380 Uiso
O52 O 0.9088(6) 0.6724(5) 0.6965(4) 0.0384 Uani
H25 H 0.9889 0.6813 0.7326 0.0460 Uiso
H26 H 0.9202 0.7324 0.6711 0.0460 Uiso
O53 O 0.8204(5) 0.3771(5) 0.4310(4) 0.0323 Uani
H27 H 0.7454 0.3298 0.3801 0.0390 Uiso
H28 H 0.8762 0.4304 0.4115 0.0390 Uiso
O54 O 0.6744(6) 0.2503(5) 0.5520(4) 0.0457 Uani
H29 H 0.6700 0.2114 0.4997 0.0550 Uiso
H30 H 0.7227 0.2386 0.6043 0.0550 Uiso
C15 C 0.5292(8) 0.3752(7) 0.3319(5) 0.0207 Uani
C16 C 0.3929(7) 0.3012(6) 0.2401(5) 0.0197 Uani
C17 C 0.2822(8) 0.1981(7) 0.2398(6) 0.0318 Uani
H31 H 0.2884 0.1683 0.2967 0.0390 Uiso
C18 C 0.1627(9) 0.1407(8) 0.1530(6) 0.0383 Uani
H32 H 0.0860 0.0707 0.1501 0.0460 Uiso
C19 C 0.1569(8) 0.1874(7) 0.0704(5) 0.0287 Uani
H33 H 0.0756 0.1500 0.0116 0.0340 Uiso
C20 C 0.2725(7) 0.2901(7) 0.0751(5) 0.0185 Uani
C23 C 0.9382(7) 0.4232(6) 0.7815(5) 0.0172 Uani
C24 C 0.9662(7) 0.3906(7) 0.8729(5) 0.0231 Uani
C25 C 0.8732(8) 0.3700(7) 0.9174(5) 0.0286 Uani
H35 H 0.8906 0.3497 0.9787 0.0350 Uiso
C26 C 0.7515(7) 0.3795(7) 0.8706(5) 0.0226 Uani
H36 H 0.6874 0.3667 0.8999 0.0270 Uiso
C27 C 0.7317(7) 0.4086(6) 0.7789(5) 0.0162 Uani
C28 C 0.6013(7) 0.4156(6) 0.7190(5) 0.0186 Uani
C21 C 0.2798(7) 0.3454(7) 0.9905(5) 0.0161 Uani
loop_
_atom_site_aniso_label
_atom_site_aniso_U_11
_atom_site_aniso_U_22
_atom_site_aniso_U_33
_atom_site_aniso_U_23
_atom_site_aniso_U_13
_atom_site_aniso_U_12
O18 0.011 0.014 0.023 0.006 0.008 0.007
O21 0.014 0.026 0.044 0.008 0.011 0.009
Mo5 0.0169 0.0116 0.0188 0.0003 0.0044 0.0064
Mo6 0.0332 0.0223 0.018 0.0024 0.0066 0.014
O28 0.015 0.011 0.021 0.004 0.007 0.008
O29 0.033 0.015 0.024 0.002 0.014 0.013
O30 0.027 0.016 0.026 0.004 0.009 0.013
O31 0.016 0.02 0.035 0 0.001 0.009
O34 0.037 0.037 0.038 0.003 -0.004 0.02
O35 0.069 0.045 0.024 0.012 0.025 0.034
Ce10 0.011 0.0143 0.0129 0.00347 0.00476 0.00661
Mo3 0.0188 0.0162 0.0191 0.0047 0.0049 0.0105
Mo4 0.0152 0.0136 0.021 0.0042 0.0091 0.0076
O13 0.037 0.027 0.018 0.01 0.011 0.02
O14 0.023 0.017 0.029 0.005 0.017 0.008
O17 0.016 0.015 0.018 0.006 0.007 0.008
O19 0.017 0.034 0.035 0.01 0.001 0.012
O20 0.031 0.02 0.028 0.01 0.014 0.017
Ce7 0.011 0.0143 0.0129 0.00347 0.00476 0.00661
O4 0.017 0.03 0.016 0.003 0.001 0.011
C7 0.013 0.028 0.013 0.008 0.004 0.015
Mo7 0.0188 0.0162 0.0191 0.0047 0.0049 0.0105
Mo8 0.0152 0.0136 0.021 0.0042 0.0091 0.0076
O32 0.037 0.027 0.018 0.01 0.011 0.02
O33 0.023 0.017 0.029 0.005 0.017 0.008
O36 0.016 0.015 0.018 0.006 0.007 0.008
O38 0.017 0.034 0.035 0.01 0.001 0.012
O39 0.031 0.02 0.028 0.01 0.014 0.017
O56 0.019 0.025 0.016 0.003 0.008 0.01
Ce2 0.0131 0.0234 0.0159 0.00672 0.00619 0.0095
Mo1 0.0169 0.0116 0.0188 0.0003 0.0044 0.0064
Mo2 0.0332 0.0223 0.018 0.0024 0.0066 0.014
N1 0.01 0.018 0.018 0.006 0.005 0.004
N2 0.015 0.019 0.016 0.002 0.006 0.011
O1 0.019 0.024 0.02 0.008 0.004 0.009
O2 0.016 0.045 0.015 0.011 0.002 0.006
O3 0.019 0.025 0.016 0.003 0.008 0.01
O5 0.015 0.041 0.021 0.012 0.01 0.015
O7 0.025 0.054 0.027 0.022 0.017 0.028
O8 0.024 0.035 0.031 0.013 0.019 0.022
O9 0.015 0.011 0.021 0.004 0.007 0.008
O10 0.033 0.015 0.024 0.002 0.014 0.013
O11 0.027 0.016 0.026 0.004 0.009 0.013
O12 0.016 0.02 0.035 0 0.001 0.009
O15 0.037 0.037 0.038 0.003 -0.004 0.02
O16 0.069 0.045 0.024 0.012 0.025 0.034
O22 0.033 0.027 0.036 -0.003 0.013 0.01
O23 0.034 0.048 0.039 0.023 0.021 0.026
O24 0.03 0.046 0.027 0.012 0.011 0.025
O25 0.039 0.031 0.036 0.007 0.003 0.018
O26 0.026 0.037 0.03 0.001 0.01 0.014
O27 0.076 0.033 0.02 0.006 0.016 0.022
C1 0.023 0.025 0.02 0.007 0.009 0.016
C2 0.023 0.019 0.013 0.005 0.004 0.009
C3 0.026 0.028 0.038 0.019 0.019 0.004
C4 0.028 0.032 0.034 0.017 0.008 -0.001
C5 0.018 0.032 0.017 0.004 -0.002 0.003
C6 0.012 0.024 0.017 0.004 0.004 0.008
C9 0.013 0.018 0.019 0 0.002 0.01
C10 0.013 0.031 0.029 0.011 0.01 0.012
C11 0.035 0.045 0.022 0.022 0.018 0.026
C12 0.022 0.032 0.021 0.011 0.012 0.016
C13 0.009 0.015 0.02 0.005 0.003 0.004
C14 0.021 0.016 0.022 0.003 0.01 0.011
O37 0.011 0.014 0.023 0.006 0.008 0.007
O40 0.014 0.026 0.044 0.008 0.011 0.009
O46 0.015 0.026 0.035 0.009 0.01 0.014
C22 0.017 0.025 0.017 0.003 0.007 0.011
O58 0.017 0.03 0.016 0.003 0.001 0.011
O60 0.024 0.035 0.031 0.013 0.019 0.022
O6 0.015 0.026 0.035 0.009 0.01 0.014
C8 0.017 0.025 0.017 0.003 0.007 0.011
Ce4 0.0131 0.0234 0.0159 0.00672 0.00619 0.0095
N3 0.01 0.018 0.018 0.006 0.005 0.004
N4 0.015 0.019 0.016 0.002 0.006 0.011
O41 0.019 0.024 0.02 0.008 0.004 0.009
O42 0.016 0.045 0.015 0.011 0.002 0.006
O45 0.015 0.041 0.021 0.012 0.01 0.015
O47 0.025 0.054 0.027 0.022 0.017 0.028
O49 0.033 0.027 0.036 -0.003 0.013 0.01
O50 0.034 0.048 0.039 0.023 0.021 0.026
O51 0.03 0.046 0.027 0.012 0.011 0.025
O52 0.039 0.031 0.036 0.007 0.003 0.018
O53 0.026 0.037 0.03 0.001 0.01 0.014
O54 0.076 0.033 0.02 0.006 0.016 0.022
C15 0.023 0.025 0.02 0.007 0.009 0.016
C16 0.023 0.019 0.013 0.005 0.004 0.009
C17 0.026 0.028 0.038 0.019 0.019 0.004
C18 0.028 0.032 0.034 0.017 0.008 -0.001
C19 0.018 0.032 0.017 0.004 -0.002 0.003
C20 0.012 0.024 0.017 0.004 0.004 0.008
C23 0.013 0.018 0.019 0 0.002 0.01
C24 0.013 0.031 0.029 0.011 0.01 0.012
C25 0.035 0.045 0.022 0.022 0.018 0.026
C26 0.022 0.032 0.021 0.011 0.012 0.016
C27 0.009 0.015 0.02 0.005 0.003 0.004
C28 0.021 0.016 0.022 0.003 0.01 0.011
C21 0.013 0.028 0.013 0.008 0.004 0.015
loop_
_geom_bond_atom_site_label_1
_geom_bond_atom_site_label_2
_geom_bond_site_symmetry_1
_geom_bond_site_symmetry_2
Mo6 O28 1_555 1_555
O29 Mo5 1_555 1_555
O30 Mo5 1_555 1_555
O31 Mo5 1_555 1_555
O34 Mo6 1_555 1_555
O35 Mo6 1_555 1_555
Ce10 O30 1_555 1_555
O18 Mo5 1_555 1_555
Mo5 O28 1_555 1_555
Mo6 O29 1_555 1_555
O17 Mo3 1_555 1_555
O19 Mo3 1_555 1_555
O20 Mo3 1_555 1_555
Ce7 O20 1_555 1_555
Mo3 O13 1_555 1_555
Mo4 O14 1_555 1_555
Mo4 O17 1_555 1_555
O4 C7 1_555 1_555
O38 Mo7 1_555 1_555
O39 Mo7 1_555 1_555
O4 Ce10 1_555 1_555
Mo7 O32 1_555 1_555
Mo7 O36 1_555 1_555
Mo8 O33 1_555 1_555
Mo8 O36 1_555 1_555
O39 Ce10 1_555 1_555
Ce10 O56 1_555 1_555
Ce7 N1 1_555 1_555
Ce2 N2 1_555 1_555
Mo1 O9 1_555 1_555
Mo2 O9 1_555 1_555
N1 C2 1_555 1_555
N2 C9 1_555 1_555
O1 Ce7 1_555 1_555
O2 Ce2 1_555 1_555
O3 Ce7 1_555 1_555
O5 Ce2 1_555 1_555
O7 Ce2 1_555 1_555
O8 C14 1_555 1_555
O10 Mo1 1_555 1_555
O11 Ce7 1_555 1_555
O12 Mo1 1_555 1_555
O15 Mo2 1_555 1_555
O16 Mo2 1_555 1_555
O22 Ce7 1_555 1_555
H1 O22 1_555 1_555
H2 O22 1_555 1_555
O23 Ce2 1_555 1_555
H3 O23 1_555 1_555
H4 O23 1_555 1_555
O24 Ce2 1_555 1_555
H5 O24 1_555 1_555
H6 O24 1_555 1_555
O25 Ce2 1_555 1_555
H7 O25 1_555 1_555
H8 O25 1_555 1_555
O26 Ce2 1_555 1_555
H9 O26 1_555 1_555
H10 O26 1_555 1_555
O27 Ce2 1_555 1_555
H11 O27 1_555 1_555
H12 O27 1_555 1_555
C1 O1 1_555 1_555
C2 C1 1_555 1_555
C3 C2 1_555 1_555
H13 C3 1_555 1_555
C4 C3 1_555 1_555
H14 C4 1_555 1_555
C5 C4 1_555 1_555
H15 C5 1_555 1_555
C6 N1 1_555 1_555
C10 C9 1_555 1_555
C11 C10 1_555 1_555
H17 C11 1_555 1_555
C12 C11 1_555 1_555
H18 C12 1_555 1_555
C13 N2 1_555 1_555
C14 O7 1_555 1_555
O37 Mo1 1_555 1_555
O46 Ce7 1_555 1_555
Ce10 O8 1_555 1_555
O58 Ce7 1_555 1_555
O60 Ce7 1_555 1_555
Mo1 O11 1_555 1_555
Mo2 O10 1_555 1_555
O2 C1 1_555 1_555
C5 C6 1_555 1_555
C12 C13 1_555 1_555
C13 C14 1_555 1_555
O46 C22 1_555 1_555
O6 C8 1_555 1_555
Ce10 O6 1_555 1_555
Ce4 N4 1_555 1_555
N3 Ce10 1_555 1_555
N4 C23 1_555 1_555
O41 Ce10 1_555 1_555
O42 Ce4 1_555 1_555
O45 Ce4 1_555 1_555
O47 Ce4 1_555 1_555
O60 C28 1_555 1_555
O49 Ce10 1_555 1_555
H19 O49 1_555 1_555
H20 O49 1_555 1_555
O50 Ce4 1_555 1_555
H21 O50 1_555 1_555
H22 O50 1_555 1_555
O51 Ce4 1_555 1_555
H23 O51 1_555 1_555
H24 O51 1_555 1_555
O52 Ce4 1_555 1_555
H25 O52 1_555 1_555
H26 O52 1_555 1_555
O53 Ce4 1_555 1_555
H27 O53 1_555 1_555
H28 O53 1_555 1_555
O54 Ce4 1_555 1_555
H29 O54 1_555 1_555
H30 O54 1_555 1_555
C15 O41 1_555 1_555
C16 N3 1_555 1_555
C17 C16 1_555 1_555
H31 C17 1_555 1_555
C18 C17 1_555 1_555
H32 C18 1_555 1_555
C19 C18 1_555 1_555
H33 C19 1_555 1_555
C20 N3 1_555 1_555
C24 C23 1_555 1_555
C25 C24 1_555 1_555
H35 C25 1_555 1_555
C26 C25 1_555 1_555
H36 C26 1_555 1_555
C27 N4 1_555 1_555
C28 O47 1_555 1_555
O42 C15 1_555 1_555
C15 C16 1_555 1_555
C19 C20 1_555 1_555
C26 C27 1_555 1_555
C27 C28 1_555 1_555
O58 C21 1_555 1_555

#END
