
###############################################################################
#
# This file contains modified crystal structure data generated from the
# MOF subset of the Cambridge Structural Database (CSD) v543 
# hosted by the Cambridge Crystallographic Data Centre (CCDC).
#
# This work is licensed under the Creative Commons
# Attribution-NonCommercial-ShareAlike 4.0 International License.
# To view a copy of this license, visit
# http://creativecommons.org/licenses/by-nc-sa/4.0/
# or send a letter to
# Creative Commons, PO Box 1866, Mountain View, CA 94042, USA.
#
# CIF created using the CSD Python API on 29 September 2022
# The structure has been converted into the P1 space group
# The structure has a 3D framework
# The original CSD entry UVOQII is in the monoclinic crystal system
# The framework has been calculated to contain at least 10.0% void space
# The void calculation uses a probe of radius 1.32A, grid spacing 0.4
#
###############################################################################

data_UVOQII
_chemical_formula_moiety         '(C112 H80 K1 Nd4 O79 S16)n'
_symmetry_cell_setting           triclinic
_symmetry_space_group_name_H-M   'P 1'
_symmetry_Int_Tables_number      1
_space_group_name_Hall           'P 1'
loop_
_symmetry_equiv_pos_site_id
_symmetry_equiv_pos_as_xyz
1 x,y,z
_cell_length_a                   7.398(3)
_cell_length_b                   25.308(8)
_cell_length_c                   18.862(7)
_cell_angle_alpha                90
_cell_angle_beta                 95.449(5)
_cell_angle_gamma                90
_cell_volume                     3515.55
loop_
_atom_site_label
_atom_site_type_symbol
_atom_site_fract_x
_atom_site_fract_y
_atom_site_fract_z
Nd1 Nd 0.23408(6) 0.64243(2) 0.29539(2)
S1 S 0.2411(3) 0.59458(8) 0.48179(11)
S2 S 0.1024(3) 0.46379(8) 0.68309(12)
S3 S 0.5583(3) 0.64177(9) 0.15602(12)
S4 S 0.4139(3) 0.77574(8) 0.36756(12)
O1 O 0.1812(6) 0.62731(18) 0.4197(3)
O2 O 0.4181(7) 0.6876(2) 0.7968(3)
O3 O 0.4105(6) 0.61791(19) 0.1925(3)
O4 O 0.0937(7) 0.56611(19) 0.5090(3)
O5 O 0.2741(7) 0.73483(19) 0.3645(3)
O6 O 0.3608(7) 0.55103(19) 0.3115(3)
H1 H 0.304004 0.529966 0.346746
H2 H 0.487223 0.549056 0.332664
O7 O 0.3936(7) 0.56091(19) 0.4677(3)
O8 O 0.0029(7) 0.42666(19) 0.7249(3)
O9 O 0.3846(7) 0.5356(2) 0.6172(3)
O12 O 0.2541(7) 0.43761(19) 0.6547(3)
O13 O 0.5903(7) 0.7558(2) 0.3555(3)
O14 O 0.3650(8) 0.7170(2) 0.2356(3)
O15 O 0.6947(7) 0.6673(2) 0.2046(3)
O16 O 0.2616(8) 0.8703(2) 0.0510(4)
O17 O 0.6326(8) 0.6040(2) 0.1095(3)
C1 C 0.3819(9) 0.7541(3) 0.1969(4)
O18 O 0.4117(10) 0.8069(2) 0.4312(3)
C2 C 0.2633(9) 0.5621(3) 0.7241(4)
C3 C 0.3596(9) 0.8087(3) 0.2221(5)
C4 C 0.4691(10) 0.6942(3) 0.0989(4)
C5 C 0.3236(9) 0.6272(3) 0.6240(4)
C6 C 0.3665(10) 0.6545(3) 0.7530(4)
C7 C 0.4139(9) 0.7446(3) 0.1217(4)
C8 C 0.3021(10) 0.6012(3) 0.7741(4)
C9 C 0.3585(10) 0.6666(3) 0.6750(4)
C10 C 0.3122(9) 0.6402(3) 0.5510(4)
C11 C 0.1924(9) 0.5136(3) 0.7449(4)
C12 C 0.3215(10) 0.5708(3) 0.6498(4)
C13 C 0.3421(10) 0.6924(3) 0.5320(5)
H5 H 0.332650 0.701813 0.484092
C14 C 0.3854(11) 0.7301(3) 0.5829(5)
H6 H 0.410441 0.764339 0.568908
C15 C 0.3574(10) 0.8211(3) 0.2954(5)
C16 C 0.2794(12) 0.5922(3) 0.8460(5)
H7 H 0.307862 0.618348 0.879885
C17 C 0.3926(10) 0.7185(3) 0.6534(5)
H8 H 0.419854 0.744750 0.687234
C18 C 0.4836(11) 0.6871(4) 0.0268(5)
H9 H 0.526729 0.654942 0.011653
C19 C 0.3739(10) 0.7838(3) 0.0721(5)
C20 C 0.3212(11) 0.8728(3) 0.3156(5)
H10 H 0.320656 0.881254 0.363549
C21 C 0.3158(10) 0.8367(3) 0.0951(5)
C22 C 0.3244(10) 0.8490(3) 0.1724(5)
C23 C 0.2900(11) 0.9000(3) 0.1934(5)
H11 H 0.269592 0.926574 0.159463
C24 C 0.1690(11) 0.5051(3) 0.8163(5)
H12 H 0.122639 0.473103 0.830613
C25 C 0.2142(12) 0.5440(3) 0.8658(5)
H13 H 0.200461 0.537518 0.913491
C26 C 0.2859(11) 0.9115(3) 0.2641(6)
H14 H 0.259247 0.945723 0.277836
O19 O 0.0573(6) 0.6552(2) 0.1757(3)
H18 H 0.092332 0.632427 0.144275
O20 O 0.5400(6) 0.6503(2) 0.3547(3)
H19 H 0.576915 0.683580 0.354600
H20 H 0.619583 0.633879 0.330412
K2 K 0.7520(2) 0.53538(7) 0.48951(11)
K3 K 0.2480(2) 0.46462(7) 0.51049(11)
O26 O 0.0144(7) 0.50743(19) 0.3692(3)
C27 C 0.3862(12) 0.7744(4) 0.9991(5)
H15 H 0.359578 0.801337 0.966323
C28 C 0.4369(12) 0.7259(4) 0.9762(5)
H16 H 0.440080 0.718926 0.927940
K4 K 0.2520(2) 0.96462(7) 0.98951(11)
O10 O 0.9856(7) 0.49257(19) 0.6308(3)
O11 O 0.9497(7) 0.6924(2) 0.3120(3)
H3 H 0.864855 0.683169 0.279860
H4 H 0.965855 0.725570 0.303726
H17 H 0.941236 0.647400 0.177475
Nd2 Nd 0.76592(6) 0.35757(2) 0.70461(2)
O21 O 0.9063(7) 0.43389(19) 0.4910(3)
O23 O 0.6064(7) 0.43909(19) 0.5323(3)
O24 O 0.9971(7) 0.57334(19) 0.2751(3)
O25 O 0.6154(7) 0.4644(2) 0.3828(3)
O27 O 0.7459(7) 0.56239(19) 0.3453(3)
O28 O 0.7616(8) 0.6297(2) 0.5510(4)
O22 O 0.1064(7) 0.06091(19) 0.0323(3)
Nd1_2 Nd 0.26592(6) 0.14243(2) 0.20461(2)
K1 K 0.7480(2) 0.03538(7) 0.01049(11)
S1_2 S 0.2589(3) 0.09458(8) 0.01821(11)
S4_2 S 0.0861(3) 0.27574(8) 0.13244(12)
O1_2 O 0.3188(6) 0.12731(18) 0.0803(3)
O3_2 O 0.0895(6) 0.11791(19) 0.3075(3)
O5_2 O 0.2259(7) 0.23483(19) 0.1355(3)
O6_2 O 0.1392(7) 0.05103(19) 0.1885(3)
H1_2 H 0.195996 0.029966 0.153254
H2_2 H 0.012777 0.049056 0.167336
O11_2 O 0.5503(7) 0.1924(2) 0.1880(3)
H3_2 H 0.635145 0.183169 0.220140
H4_2 H 0.534145 0.225570 0.196274
O14_2 O 0.1350(8) 0.2170(2) 0.2644(3)
O16_2 O 0.2384(8) 0.3703(2) 0.4490(4)
C1_2 C 0.1181(9) 0.2541(3) 0.3031(4)
O18_2 O 0.0883(10) 0.3069(2) 0.0688(3)
C3_2 C 0.1404(9) 0.3087(3) 0.2779(5)
C4_2 C 0.0309(10) 0.1942(3) 0.4011(4)
C7_2 C 0.0861(9) 0.2446(3) 0.3783(4)
H5_2 H 0.167350 0.201813 0.015908
C15_2 C 0.1426(10) 0.3211(3) 0.2046(5)
C18_2 C 0.0164(11) 0.1871(4) 0.4732(5)
C19_2 C 0.1261(10) 0.2838(3) 0.4279(5)
C20_2 C 0.1788(11) 0.3728(3) 0.1844(5)
H10_2 H 0.179344 0.381254 0.136451
C21_2 C 0.1842(10) 0.3367(3) 0.4049(5)
C22_2 C 0.1756(10) 0.3490(3) 0.3276(5)
C23_2 C 0.2100(11) 0.4000(3) 0.3066(5)
H11_2 H 0.230408 0.426574 0.340537
C26_2 C 0.2141(11) 0.4115(3) 0.2359(6)
H14_2 H 0.240753 0.445723 0.222164
C27_2 C 0.1138(12) 0.2744(4) 0.5009(5)
H15_2 H 0.140422 0.301337 0.533677
C28_2 C 0.0631(12) 0.2259(4) 0.5238(5)
H16_2 H 0.059920 0.218926 0.572060
O19_2 O 0.4427(6) 0.1552(2) 0.3243(3)
H17_2 H 0.558764 0.147400 0.322525
H18_2 H 0.407668 0.132427 0.355725
O24_2 O 0.5029(7) 0.07334(19) 0.2249(3)
O26_2 O 0.4856(7) 0.00743(19) 0.1308(3)
O27_2 O 0.7541(7) 0.06239(19) 0.1547(3)
O2_2 O 0.0819(7) 0.1876(2) 0.7032(3)
O4_2 O 0.4063(7) 0.06611(19) 0.9910(3)
O9_2 O 0.1154(7) 0.0356(2) 0.8828(3)
C2_2 C 0.2367(9) 0.0621(3) 0.7759(4)
C5_2 C 0.1764(9) 0.1272(3) 0.8760(4)
C6_2 C 0.1335(10) 0.1545(3) 0.7470(4)
C8_2 C 0.1979(10) 0.1012(3) 0.7259(4)
C9_2 C 0.1415(10) 0.1666(3) 0.8250(4)
C10_2 C 0.1878(9) 0.1402(3) 0.9490(4)
C11_2 C 0.3076(9) 0.0136(3) 0.7551(4)
C12_2 C 0.1785(10) 0.0708(3) 0.8502(4)
C13_2 C 0.1579(10) 0.1924(3) 0.9680(5)
C14_2 C 0.1146(11) 0.2301(3) 0.9171(5)
H6_2 H 0.089559 0.264339 0.931092
C16_2 C 0.2206(12) 0.0922(3) 0.6540(5)
H7_2 H 0.192138 0.118348 0.620115
C17_2 C 0.1074(10) 0.2185(3) 0.8466(5)
H8_2 H 0.080146 0.244750 0.812766
C24_2 C 0.3310(11) 0.0051(3) 0.6837(5)
C25_2 C 0.2858(12) 0.0440(3) 0.6342(5)
H13_2 H 0.299539 0.037518 0.586509
O28_2 O 0.7384(8) 0.1297(2) 0.9490(4)
O21_2 O 0.5937(7) 0.93389(19) 0.0090(3)
O25_2 O 0.8846(7) 0.9644(2) 0.1172(3)
S2_2 S 0.3976(3) 0.96379(8) 0.81691(12)
O8_2 O 0.4971(7) 0.92666(19) 0.7751(3)
O10_2 O 0.5144(7) 0.99257(19) 0.8692(3)
O12_2 O 0.2459(7) 0.93761(19) 0.8453(3)
H12_2 H 0.377361 0.973103 0.669387
Nd2_2 Nd 0.73408(6) 0.85757(2) 0.79539(2)
O23_2 O 0.8936(7) 0.93909(19) 0.9677(3)
S3_2 S 0.9417(3) 0.14177(9) 0.34398(12)
O13_2 O 0.9097(7) 0.2558(2) 0.1445(3)
O15_2 O 0.8053(7) 0.1673(2) 0.2954(3)
O17_2 O 0.8674(8) 0.1040(2) 0.3905(3)
H9_2 H 0.973271 0.154942 0.488347
O20_2 O 0.9600(6) 0.1503(2) 0.1453(3)
H19_2 H 0.923085 0.183580 0.145400
H20_2 H 0.880417 0.133879 0.169588
O11_3 O 0.0503(7) 0.3076(2) 0.6880(3)
H3_3 H 0.135145 0.316831 0.720140
H4_3 H 0.034145 0.274430 0.696274
H17_3 H 0.058764 0.352600 0.822525
C27_3 C 0.6138(12) 0.2256(4) 0.0009(5)
H15_3 H 0.640422 0.198663 0.033677
C28_3 C 0.5631(12) 0.2741(4) 0.0238(5)
H16_3 H 0.559920 0.281074 0.072060
S1_3 S 0.7589(3) 0.40542(8) 0.51821(11)
S2_3 S 0.8976(3) 0.53621(8) 0.31691(12)
S3_3 S 0.4417(3) 0.35823(9) 0.84398(12)
S4_3 S 0.5861(3) 0.22426(8) 0.63244(12)
O1_3 O 0.8188(6) 0.37269(18) 0.5803(3)
O2_3 O 0.5819(7) 0.3124(2) 0.2032(3)
O3_3 O 0.5895(6) 0.38209(19) 0.8075(3)
O5_3 O 0.7259(7) 0.26517(19) 0.6355(3)
O6_3 O 0.6392(7) 0.44897(19) 0.6885(3)
H1_3 H 0.695996 0.470034 0.653254
H2_3 H 0.512777 0.450944 0.667336
O13_3 O 0.4097(7) 0.2442(2) 0.6445(3)
O14_3 O 0.6350(8) 0.2830(2) 0.7644(3)
O15_3 O 0.3053(7) 0.3327(2) 0.7954(3)
O17_3 O 0.3674(8) 0.3960(2) 0.8905(3)
C1_3 C 0.6181(9) 0.2459(3) 0.8031(4)
O18_3 O 0.5883(10) 0.1931(2) 0.5688(3)
C2_3 C 0.7367(9) 0.4379(3) 0.2759(4)
C3_3 C 0.6404(9) 0.1913(3) 0.7779(5)
C4_3 C 0.5309(10) 0.3058(3) 0.9011(4)
C5_3 C 0.6764(9) 0.3728(3) 0.3760(4)
C6_3 C 0.6335(10) 0.3455(3) 0.2470(4)
C7_3 C 0.5861(9) 0.2554(3) 0.8783(4)
C8_3 C 0.6979(10) 0.3988(3) 0.2259(4)
C9_3 C 0.6415(10) 0.3334(3) 0.3250(4)
C10_3 C 0.6878(9) 0.3598(3) 0.4490(4)
C11_3 C 0.8076(9) 0.4864(3) 0.2551(4)
C12_3 C 0.6785(10) 0.4292(3) 0.3502(4)
C13_3 C 0.6579(10) 0.3076(3) 0.4680(5)
H5_3 H 0.667350 0.298187 0.515908
C14_3 C 0.6146(11) 0.2699(3) 0.4171(5)
H6_3 H 0.589559 0.235661 0.431092
C15_3 C 0.6426(10) 0.1789(3) 0.7046(5)
C16_3 C 0.7206(12) 0.4078(3) 0.1540(5)
H7_3 H 0.692138 0.381652 0.120115
C17_3 C 0.6074(10) 0.2815(3) 0.3466(5)
H8_3 H 0.580146 0.255250 0.312766
C18_3 C 0.5164(11) 0.3129(4) 0.9732(5)
H9_3 H 0.473271 0.345058 0.988347
C19_3 C 0.6261(10) 0.2162(3) 0.9279(5)
C20_3 C 0.6788(11) 0.1272(3) 0.6844(5)
H10_3 H 0.679344 0.118746 0.636451
C21_3 C 0.6842(10) 0.1633(3) 0.9049(5)
C22_3 C 0.6756(10) 0.1510(3) 0.8276(5)
C23_3 C 0.7100(11) 0.1000(3) 0.8066(5)
H11_3 H 0.730408 0.073426 0.840537
C24_3 C 0.8310(11) 0.4949(3) 0.1837(5)
H12_3 H 0.877361 0.526897 0.169387
C25_3 C 0.7858(12) 0.4560(3) 0.1342(5)
H13_3 H 0.799539 0.462482 0.086509
C26_3 C 0.7141(11) 0.0885(3) 0.7359(6)
H14_3 H 0.740753 0.054277 0.722164
O19_3 O 0.9427(6) 0.3448(2) 0.8243(3)
H18_3 H 0.907668 0.367573 0.855725
O20_3 O 0.4600(6) 0.3497(2) 0.6453(3)
H19_3 H 0.423085 0.316420 0.645400
H20_3 H 0.380417 0.366121 0.669588
S3_4 S 0.0583(3) 0.85823(9) 0.65602(12)
O13_4 O 0.0903(7) 0.7442(2) 0.8555(3)
O15_4 O 0.1947(7) 0.8327(2) 0.7046(3)
O17_4 O 0.1326(8) 0.8960(2) 0.6095(3)
H9_4 H 0.026729 0.845058 0.511653
O20_4 O 0.0400(6) 0.8497(2) 0.8547(3)
H19_4 H 0.076915 0.816420 0.854600
H20_4 H 0.119583 0.866121 0.830412
S2_4 S 0.6024(3) 0.03621(8) 0.18309(12)
H12_4 H 0.622639 0.026897 0.330613
O2_4 O 0.9181(7) 0.8124(2) 0.2968(3)
C2_4 C 0.7633(9) 0.9379(3) 0.2241(4)
C5_4 C 0.8236(9) 0.8728(3) 0.1240(4)
C6_4 C 0.8665(10) 0.8455(3) 0.2530(4)
C8_4 C 0.8021(10) 0.8988(3) 0.2741(4)
C9_4 C 0.8585(10) 0.8334(3) 0.1750(4)
C10_4 C 0.8122(9) 0.8598(3) 0.0510(4)
C11_4 C 0.6924(9) 0.9864(3) 0.2449(4)
C12_4 C 0.8215(10) 0.9292(3) 0.1498(4)
C13_4 C 0.8421(10) 0.8076(3) 0.0320(5)
C14_4 C 0.8854(11) 0.7699(3) 0.0829(5)
H6_4 H 0.910441 0.735661 0.068908
C16_4 C 0.7794(12) 0.9078(3) 0.3460(5)
H7_4 H 0.807862 0.881652 0.379885
C17_4 C 0.8926(10) 0.7815(3) 0.1534(5)
H8_4 H 0.919854 0.755250 0.187234
C24_4 C 0.6690(11) 0.9949(3) 0.3163(5)
C25_4 C 0.7142(12) 0.9560(3) 0.3658(5)
H13_4 H 0.700461 0.962482 0.413491
S1_4 S 0.7411(3) 0.90542(8) 0.98179(11)
S4_4 S 0.9139(3) 0.72426(8) 0.86756(12)
O1_4 O 0.6812(6) 0.87269(18) 0.9197(3)
O3_4 O 0.9105(6) 0.88209(19) 0.6925(3)
O5_4 O 0.7741(7) 0.76517(19) 0.8645(3)
O6_4 O 0.8608(7) 0.94897(19) 0.8115(3)
H1_4 H 0.804004 0.970034 0.846746
H2_4 H 0.987223 0.950944 0.832664
O11_4 O 0.4497(7) 0.8076(2) 0.8120(3)
H3_4 H 0.364855 0.816831 0.779860
H4_4 H 0.465855 0.774430 0.803726
O14_4 O 0.8650(8) 0.7830(2) 0.7356(3)
C1_4 C 0.8819(9) 0.7459(3) 0.6969(4)
O18_4 O 0.9117(10) 0.6931(2) 0.9312(3)
C3_4 C 0.8596(9) 0.6913(3) 0.7221(5)
C4_4 C 0.9691(10) 0.8058(3) 0.5989(4)
C7_4 C 0.9139(9) 0.7554(3) 0.6217(4)
H5_4 H 0.832650 0.798187 0.984092
C15_4 C 0.8574(10) 0.6789(3) 0.7954(5)
C18_4 C 0.9836(11) 0.8129(4) 0.5268(5)
C19_4 C 0.8739(10) 0.7162(3) 0.5721(5)
C20_4 C 0.8212(11) 0.6272(3) 0.8156(5)
H10_4 H 0.820656 0.618746 0.863549
C21_4 C 0.8158(10) 0.6633(3) 0.5951(5)
C22_4 C 0.8244(10) 0.6510(3) 0.6724(5)
C23_4 C 0.7900(11) 0.6000(3) 0.6934(5)
H11_4 H 0.769592 0.573426 0.659463
C26_4 C 0.7859(11) 0.5885(3) 0.7641(6)
H14_4 H 0.759247 0.554277 0.777836
C27_4 C 0.8862(12) 0.7256(4) 0.4991(5)
H15_4 H 0.859578 0.698663 0.466323
C28_4 C 0.9369(12) 0.7741(4) 0.4762(5)
H16_4 H 0.940080 0.781074 0.427940
O19_4 O 0.5573(6) 0.8448(2) 0.6757(3)
H17_4 H 0.441236 0.852600 0.677475
H18_4 H 0.592332 0.867573 0.644275
loop_
_geom_bond_atom_site_label_1
_geom_bond_atom_site_label_2
_geom_bond_site_symmetry_1
_geom_bond_site_symmetry_2
Nd1 O1 1_555 1_555
S1 O1 1_555 1_555
S2 O8 1_555 1_555
S3 O3 1_555 1_555
S4 O5 1_555 1_555
O2 C6 1_555 1_555
O3 Nd1 1_555 1_555
O4 S1 1_555 1_555
O5 Nd1 1_555 1_555
O6 Nd1 1_555 1_555
H1 O6 1_555 1_555
H2 O6 1_555 1_555
O7 S1 1_555 1_555
O9 C12 1_555 1_555
O12 S2 1_555 1_555
O13 S4 1_555 1_555
O14 Nd1 1_555 1_555
O15 S3 1_555 1_555
O16 C21 1_555 1_555
O17 S3 1_555 1_555
C1 O14 1_555 1_555
O18 S4 1_555 1_555
C2 C8 1_555 1_555
C3 C1 1_555 1_555
C4 S3 1_555 1_555
C5 C9 1_555 1_555
C6 C8 1_555 1_555
C7 C1 1_555 1_555
C8 C16 1_555 1_555
C9 C6 1_555 1_555
C10 S1 1_555 1_555
C11 S2 1_555 1_555
C12 C2 1_555 1_555
C13 C10 1_555 1_555
H5 C13 1_555 1_555
C14 C13 1_555 1_555
H6 C14 1_555 1_555
C15 S4 1_555 1_555
C16 H7 1_555 1_555
C17 C9 1_555 1_555
H8 C17 1_555 1_555
C18 C4 1_555 1_555
H9 C18 1_555 1_555
C19 C7 1_555 1_555
C20 C15 1_555 1_555
H10 C20 1_555 1_555
C21 C19 1_555 1_555
C22 C3 1_555 1_555
C23 C22 1_555 1_555
H11 C23 1_555 1_555
C24 C11 1_555 1_555
H12 C24 1_555 1_555
C25 C16 1_555 1_555
H13 C25 1_555 1_555
C26 C20 1_555 1_555
H14 C26 1_555 1_555
O19 Nd1 1_555 1_555
H18 O19 1_555 1_555
O20 Nd1 1_555 1_555
H19 O20 1_555 1_555
H20 O20 1_555 1_555
K2 O7 1_555 1_555
K3 O4 1_555 1_555
O7 K3 1_555 1_555
O9 K3 1_555 1_555
O12 K3 1_555 1_555
C2 C11 1_555 1_555
C3 C15 1_555 1_555
C4 C7 1_555 1_555
C5 C10 1_555 1_555
C5 C12 1_555 1_555
C14 C17 1_555 1_555
C21 C22 1_555 1_555
C23 C26 1_555 1_555
C24 C25 1_555 1_555
K3 O26 1_555 1_555
H15 C27 1_555 1_555
H16 C28 1_555 1_555
C27 C28 1_555 1_555
O10 K2 1_555 1_555
H3 O11 1_555 1_555
H4 O11 1_555 1_555
O21 K2 1_555 1_555
O23 K2 1_555 1_555
O25 K2 1_555 1_555
O27 K2 1_555 1_555
O28 K2 1_555 1_555
Nd1_2 O1_2 1_555 1_555
S1_2 O1_2 1_555 1_555
S4_2 O5_2 1_555 1_555
O3_2 Nd1_2 1_555 1_555
O5_2 Nd1_2 1_555 1_555
O6_2 Nd1_2 1_555 1_555
H1_2 O6_2 1_555 1_555
H2_2 O6_2 1_555 1_555
O22 S1_2 1_555 1_555
O11_2 Nd1_2 1_555 1_555
H3_2 O11_2 1_555 1_555
H4_2 O11_2 1_555 1_555
O14_2 Nd1_2 1_555 1_555
O16_2 C21_2 1_555 1_555
C1_2 O14_2 1_555 1_555
O18_2 S4_2 1_555 1_555
C3_2 C1_2 1_555 1_555
C7_2 C1_2 1_555 1_555
C15_2 S4_2 1_555 1_555
C18_2 C4_2 1_555 1_555
C19_2 C7_2 1_555 1_555
C20_2 C15_2 1_555 1_555
H10_2 C20_2 1_555 1_555
C21_2 C19_2 1_555 1_555
C22_2 C3_2 1_555 1_555
C23_2 C22_2 1_555 1_555
H11_2 C23_2 1_555 1_555
C26_2 C20_2 1_555 1_555
H14_2 C26_2 1_555 1_555
C27_2 C19_2 1_555 1_555
H15_2 C27_2 1_555 1_555
C28_2 C18_2 1_555 1_555
H16_2 C28_2 1_555 1_555
O19_2 Nd1_2 1_555 1_555
H17_2 O19_2 1_555 1_555
H18_2 O19_2 1_555 1_555
K3 O16_2 1_555 1_555
O24_2 Nd1_2 1_555 1_555
O26_2 K1 1_555 1_555
O27_2 K1 1_555 1_555
C3_2 C15_2 1_555 1_555
C4_2 C7_2 1_555 1_555
C21_2 C22_2 1_555 1_555
C23_2 C26_2 1_555 1_555
C27_2 C28_2 1_555 1_555
O2_2 C6_2 1_555 1_555
O9_2 C12_2 1_555 1_555
C2_2 C8_2 1_555 1_555
C5_2 C9_2 1_555 1_555
C6_2 C8_2 1_555 1_555
C8_2 C16_2 1_555 1_555
C9_2 C6_2 1_555 1_555
C12_2 C2_2 1_555 1_555
C13_2 C10_2 1_555 1_555
C14_2 C13_2 1_555 1_555
H6_2 C14_2 1_555 1_555
C16_2 H7_2 1_555 1_555
C17_2 C9_2 1_555 1_555
H8_2 C17_2 1_555 1_555
C24_2 C11_2 1_555 1_555
C25_2 C16_2 1_555 1_555
H13_2 C25_2 1_555 1_555
C2_2 C11_2 1_555 1_555
C5_2 C10_2 1_555 1_555
C5_2 C12_2 1_555 1_555
C14_2 C17_2 1_555 1_555
C24_2 C25_2 1_555 1_555
S2_2 O8_2 1_555 1_555
O8_2 Nd2_2 1_555 1_555
O12_2 S2_2 1_555 1_555
S2_2 O10_2 1_555 1_555
O10_2 K4 1_555 1_555
O12_2 K4 1_555 1_555
O15_2 S3_2 1_555 1_555
O17_2 S3_2 1_555 1_555
H19_2 O20_2 1_555 1_555
H20_2 O20_2 1_555 1_555
H3_3 O11_3 1_555 1_555
H4_3 O11_3 1_555 1_555
O23 K3 1_555 1_555
H15_3 C27_3 1_555 1_555
H16_3 C28_3 1_555 1_555
C27_3 C28_3 1_555 1_555
Nd2 O1_3 1_555 1_555
S1_3 O1_3 1_555 1_555
S2_3 O24 1_555 1_555
S3_3 O3_3 1_555 1_555
S4_3 O5_3 1_555 1_555
O2_3 C6_3 1_555 1_555
O3_3 Nd2 1_555 1_555
O21 S1_3 1_555 1_555
O5_3 Nd2 1_555 1_555
O6_3 Nd2 1_555 1_555
H1_3 O6_3 1_555 1_555
H2_3 O6_3 1_555 1_555
O23 S1_3 1_555 1_555
O25 C12_3 1_555 1_555
O27 S2_3 1_555 1_555
O13_3 S4_3 1_555 1_555
O14_3 Nd2 1_555 1_555
O15_3 S3_3 1_555 1_555
O28_2 C21_3 1_555 1_555
O17_3 S3_3 1_555 1_555
C1_3 O14_3 1_555 1_555
O18_3 S4_3 1_555 1_555
C2_3 C8_3 1_555 1_555
C3_3 C1_3 1_555 1_555
C4_3 S3_3 1_555 1_555
C5_3 C9_3 1_555 1_555
C6_3 C8_3 1_555 1_555
C7_3 C1_3 1_555 1_555
C8_3 C16_3 1_555 1_555
C9_3 C6_3 1_555 1_555
C10_3 S1_3 1_555 1_555
C11_3 S2_3 1_555 1_555
C12_3 C2_3 1_555 1_555
C13_3 C10_3 1_555 1_555
H5_3 C13_3 1_555 1_555
C14_3 C13_3 1_555 1_555
H6_3 C14_3 1_555 1_555
C15_3 S4_3 1_555 1_555
C16_3 H7_3 1_555 1_555
C17_3 C9_3 1_555 1_555
H8_3 C17_3 1_555 1_555
C18_3 C4_3 1_555 1_555
H9_3 C18_3 1_555 1_555
C19_3 C7_3 1_555 1_555
C20_3 C15_3 1_555 1_555
H10_3 C20_3 1_555 1_555
C21_3 C19_3 1_555 1_555
C22_3 C3_3 1_555 1_555
C23_3 C22_3 1_555 1_555
H11_3 C23_3 1_555 1_555
C24_3 C11_3 1_555 1_555
H12_3 C24_3 1_555 1_555
C25_3 C16_3 1_555 1_555
H13_3 C25_3 1_555 1_555
C26_3 C20_3 1_555 1_555
H14_3 C26_3 1_555 1_555
O19_3 Nd2 1_555 1_555
H18_3 O19_3 1_555 1_555
O20_3 Nd2 1_555 1_555
H19_3 O20_3 1_555 1_555
H20_3 O20_3 1_555 1_555
C2_3 C11_3 1_555 1_555
C3_3 C15_3 1_555 1_555
C4_3 C7_3 1_555 1_555
C5_3 C10_3 1_555 1_555
C5_3 C12_3 1_555 1_555
C14_3 C17_3 1_555 1_555
C21_3 C22_3 1_555 1_555
C23_3 C26_3 1_555 1_555
C24_3 C25_3 1_555 1_555
O15_4 S3_4 1_555 1_555
O17_4 S3_4 1_555 1_555
H19_4 O20_4 1_555 1_555
H20_4 O20_4 1_555 1_555
S2_4 O24_2 1_555 1_555
O27_2 S2_4 1_555 1_555
S2_4 O26_2 1_555 1_555
O2_4 C6_4 1_555 1_555
O25_2 C12_4 1_555 1_555
C2_4 C8_4 1_555 1_555
C5_4 C9_4 1_555 1_555
C6_4 C8_4 1_555 1_555
C8_4 C16_4 1_555 1_555
C9_4 C6_4 1_555 1_555
C12_4 C2_4 1_555 1_555
C13_4 C10_4 1_555 1_555
C14_4 C13_4 1_555 1_555
H6_4 C14_4 1_555 1_555
C16_4 H7_4 1_555 1_555
C17_4 C9_4 1_555 1_555
H8_4 C17_4 1_555 1_555
C24_4 C11_4 1_555 1_555
C25_4 C16_4 1_555 1_555
H13_4 C25_4 1_555 1_555
C2_4 C11_4 1_555 1_555
C5_4 C10_4 1_555 1_555
C5_4 C12_4 1_555 1_555
C14_4 C17_4 1_555 1_555
C24_4 C25_4 1_555 1_555
Nd2_2 O1_4 1_555 1_555
S1_4 O1_4 1_555 1_555
S4_4 O5_4 1_555 1_555
O3_4 Nd2_2 1_555 1_555
O5_4 Nd2_2 1_555 1_555
O6_4 Nd2_2 1_555 1_555
H1_4 O6_4 1_555 1_555
H2_4 O6_4 1_555 1_555
O23_2 S1_4 1_555 1_555
O11_4 Nd2_2 1_555 1_555
H3_4 O11_4 1_555 1_555
H4_4 O11_4 1_555 1_555
O14_4 Nd2_2 1_555 1_555
O28 C21_4 1_555 1_555
C1_4 O14_4 1_555 1_555
O18_4 S4_4 1_555 1_555
C3_4 C1_4 1_555 1_555
C7_4 C1_4 1_555 1_555
C15_4 S4_4 1_555 1_555
C18_4 C4_4 1_555 1_555
C19_4 C7_4 1_555 1_555
C20_4 C15_4 1_555 1_555
H10_4 C20_4 1_555 1_555
C21_4 C19_4 1_555 1_555
C22_4 C3_4 1_555 1_555
C23_4 C22_4 1_555 1_555
H11_4 C23_4 1_555 1_555
C26_4 C20_4 1_555 1_555
H14_4 C26_4 1_555 1_555
C27_4 C19_4 1_555 1_555
H15_4 C27_4 1_555 1_555
C28_4 C18_4 1_555 1_555
H16_4 C28_4 1_555 1_555
O19_4 Nd2_2 1_555 1_555
H17_4 O19_4 1_555 1_555
H18_4 O19_4 1_555 1_555
C3_4 C15_4 1_555 1_555
C4_4 C7_4 1_555 1_555
C21_4 C22_4 1_555 1_555
C23_4 C26_4 1_555 1_555
C27_4 C28_4 1_555 1_555

#END
