
###############################################################################
#
# This file contains modified crystal structure data generated from the
# MOF subset of the Cambridge Structural Database (CSD) v543 
# hosted by the Cambridge Crystallographic Data Centre (CCDC).
#
# This work is licensed under the Creative Commons
# Attribution-NonCommercial-ShareAlike 4.0 International License.
# To view a copy of this license, visit
# http://creativecommons.org/licenses/by-nc-sa/4.0/
# or send a letter to
# Creative Commons, PO Box 1866, Mountain View, CA 94042, USA.
#
# CIF created using the CSD Python API on 29 September 2022
# The structure has been converted into the P1 space group
# The structure has a 3D framework
# The original CSD entry UVUWEP is in the triclinic crystal system
# The framework has been calculated to contain at least 10.0% void space
# The void calculation uses a probe of radius 1.32A, grid spacing 0.4
#
###############################################################################

data_UVUWEP
_chemical_formula_moiety         '(C96 H56 Cd4 N16 O14 S4)n'
_symmetry_cell_setting           triclinic
_symmetry_space_group_name_H-M   'P 1'
_symmetry_Int_Tables_number      1
_space_group_name_Hall           'P 1'
loop_
_symmetry_equiv_pos_site_id
_symmetry_equiv_pos_as_xyz
1 x,y,z
_cell_length_a                   10.5318(5)
_cell_length_b                   14.9400(7)
_cell_length_c                   16.1085(8)
_cell_angle_alpha                98.0420(10)
_cell_angle_beta                 92.3770(10)
_cell_angle_gamma                103.2360(10)
_cell_volume                     2435.88
loop_
_atom_site_label
_atom_site_type_symbol
_atom_site_fract_x
_atom_site_fract_y
_atom_site_fract_z
C33 C 0.0092(2) 0.79345(19) 0.66314(16)
C34 C 0.1370(2) 0.76592(18) 0.65362(16)
C35 C 0.1431(3) 0.67294(19) 0.64469(19)
H21 H 0.0668 0.6265 0.6427
C36 C 0.2631(3) 0.64954(19) 0.6388(2)
H22 H 0.2666 0.5873 0.6321
C37 C 0.3779(2) 0.71854(18) 0.64266(16)
C38 C 0.3719(3) 0.81126(19) 0.64998(18)
H23 H 0.4482 0.8576 0.6516
C39 C 0.2519(3) 0.83463(19) 0.65487(18)
H24 H 0.2482 0.8967 0.6590
C40 C 0.5077(2) 0.69199(19) 0.63964(15)
O2 O 0.0114(2) 0.87843(14) 0.67651(14)
O3 O 0.50699(19) 0.60743(14) 0.62939(13)
O4 O 0.61048(19) 0.75442(15) 0.64699(14)
Cd5 Cd 0.791617(17) 0.877162(12) 0.670870(11)
Cd7 Cd 0.727301(17) 0.607335(13) 0.632559(11)
O12 O 0.8515(2) 0.03743(16) 0.71815(18)
C1 C 0.8980(3) 0.8893(2) 0.48488(18)
H1 H 0.9785 0.8989 0.5149
C2 C 0.8964(3) 0.8953(2) 0.39999(19)
H2 H 0.9745 0.9097 0.3743
C3 C 0.7773(3) 0.8796(2) 0.35318(17)
C4 C 0.6656(3) 0.8591(3) 0.39571(19)
H3 H 0.5836 0.8478 0.3671
C5 C 0.6759(3) 0.8554(3) 0.4807(2)
H4 H 0.5993 0.8416 0.5080
C6 C 0.7730(3) 0.8811(2) 0.26181(17)
C7 C 0.8668(3) 0.8554(2) 0.21391(18)
H5 H 0.9355 0.8380 0.2405
C8 C 0.8646(3) 0.8540(2) 0.12600(18)
H6 H 0.9325 0.8366 0.0978
C9 C 0.7676(3) 0.8768(2) 0.08027(17)
C10 C 0.6671(3) 0.9044(2) 0.12756(18)
C11 C 0.6707(3) 0.9075(2) 0.21707(18)
C17 C 0.8412(3) 0.6380(3) 0.4503(2)
H11 H 0.9220 0.6498 0.4805
C18 C 0.8388(3) 0.6399(3) 0.3651(2)
H12 H 0.9166 0.6517 0.3388
C19 C 0.7191(3) 0.6242(2) 0.31828(17)
C20 C 0.6083(3) 0.6057(2) 0.36158(18)
H13 H 0.5261 0.5945 0.3333
C21 C 0.6191(3) 0.6037(2) 0.44672(17)
H14 H 0.5427 0.5904 0.4742
C22 C 0.7121(3) 0.6243(2) 0.22608(17)
C23 C 0.8076(4) 0.6005(3) 0.17829(19)
H15 H 0.8773 0.5844 0.2050
C24 C 0.8050(4) 0.5993(3) 0.09005(19)
H16 H 0.8745 0.5846 0.0618
C25 C 0.7045(3) 0.6187(2) 0.04478(18)
C26 C 0.6027(3) 0.6439(2) 0.09154(17)
C27 C 0.6069(3) 0.6468(2) 0.18118(17)
C41 C 0.7810(4) 0.4368(2) 0.6429(2)
C42 C 0.7744(3) 0.3367(2) 0.6537(2)
C43 C 0.7074(4) 0.2647(2) 0.5926(2)
H25 H 0.6693 0.2780 0.5441
C44 C 0.6973(4) 0.1730(2) 0.6037(2)
H26 H 0.6507 0.1252 0.5629
C45 C 0.7556(3) 0.1519(2) 0.6746(2)
C46 C 0.8212(3) 0.2241(2) 0.7358(2)
H27 H 0.8594 0.2109 0.7843
C47 C 0.8304(3) 0.3157(2) 0.7254(2)
H28 H 0.8747 0.3635 0.7671
C48 C 0.7534(3) 0.0521(2) 0.6826(2)
N1 N 0.7897(2) 0.87047(18) 0.52598(15)
N3 N 0.5728(3) 0.9383(2) 0.25260(16)
N4 N 0.5644(3) 0.9331(2) 0.09674(17)
N5 N 0.7328(2) 0.61980(17) 0.49168(14)
N7 N 0.5056(3) 0.6753(2) 0.21576(16)
N8 N 0.4974(3) 0.6685(2) 0.06012(16)
O1 O 0.90543(19) 0.73206(15) 0.65781(14)
O5 O 0.6887(3) 0.45161(16) 0.59995(17)
O6 O 0.8741(3) 0.49882(17) 0.6785(2)
S1 S 0.48524(10) 0.96011(8) 0.17706(6)
S2 S 0.41615(9) 0.69306(8) 0.13927(6)
N9 N 0.7754(2) 0.86555(17) 0.81335(14)
N10 N 0.7128(2) 0.61561(17) 0.77864(14)
O11 O 0.6592(3) 0.98869(16) 0.65201(19)
C12 C 0.7678(3) 0.8731(2) 0.98805(17)
C13 C 0.8850(3) 0.8967(2) 0.95022(19)
H7 H 0.9639 0.9149 0.9831
C14 C 0.8841(3) 0.8930(2) 0.86444(19)
H8 H 0.9635 0.9107 0.8410
C15 C 0.6634(3) 0.8408(2) 0.84860(18)
H9 H 0.5868 0.8193 0.8136
C16 C 0.6542(3) 0.8453(2) 0.93466(18)
H10 H 0.5729 0.8299 0.9564
C28 C 0.7044(3) 0.6166(2) 0.95238(17)
C29 C 0.8214(3) 0.6463(2) 0.91608(19)
H17 H 0.8995 0.6676 0.9496
C30 C 0.8211(3) 0.6440(2) 0.82998(18)
H18 H 0.9005 0.6631 0.8069
C31 C 0.6003(3) 0.5867(2) 0.81320(18)
H19 H 0.5238 0.5657 0.7781
C32 C 0.5922(3) 0.5866(2) 0.89834(19)
H20 H 0.5115 0.5664 0.9195
O7 O 0.3408(3) 0.01131(16) 0.34799(19)
Cd3 Cd 0.208383(17) 0.122838(12) 0.329130(11)
C12_2 C 0.2322(3) 0.1269(2) 0.01195(17)
C13_2 C 0.1150(3) 0.1033(2) 0.04978(19)
H7_2 H 0.0361 0.0851 0.0169
C14_2 C 0.1159(3) 0.1070(2) 0.13556(19)
H8_2 H 0.0365 0.0893 0.1590
C15_2 C 0.3366(3) 0.1592(2) 0.15140(18)
H9_2 H 0.4132 0.1807 0.1864
C16_2 C 0.3458(3) 0.1547(2) 0.06534(18)
H10_2 H 0.4271 0.1701 0.0436
C28_2 C 0.2956(3) 0.3834(2) 0.04762(17)
C29_2 C 0.1786(3) 0.3537(2) 0.08392(19)
H17_2 H 0.1005 0.3324 0.0504
C30_2 C 0.1789(3) 0.3560(2) 0.17002(18)
H18_2 H 0.0995 0.3369 0.1931
C31_2 C 0.3997(3) 0.4133(2) 0.18680(18)
H19_2 H 0.4762 0.4343 0.2219
C32_2 C 0.4078(3) 0.4134(2) 0.10166(19)
H20_2 H 0.4885 0.4336 0.0805
N2 N 0.2246(2) 0.13445(17) 0.18665(14)
N6 N 0.2872(2) 0.38439(17) 0.22136(14)
Cd6 Cd 0.272699(17) 0.392665(13) 0.367441(11)
C1_2 C 0.1020(3) 0.1107(2) 0.51512(18)
H1_2 H 0.0215 0.1011 0.4851
C2_2 C 0.1036(3) 0.1047(2) 0.60001(19)
H2_2 H 0.0255 0.0903 0.6257
C3_2 C 0.2227(3) 0.1204(2) 0.64682(17)
C4_2 C 0.3344(3) 0.1409(3) 0.60429(19)
H3_2 H 0.4164 0.1522 0.6329
C5_2 C 0.3241(3) 0.1446(3) 0.5193(2)
H4_2 H 0.4007 0.1584 0.4920
C6_2 C 0.2270(3) 0.1189(2) 0.73819(17)
C7_2 C 0.1332(3) 0.1446(2) 0.78609(18)
H5_2 H 0.0645 0.1620 0.7595
C8_2 C 0.1354(3) 0.1460(2) 0.87400(18)
H6_2 H 0.0675 0.1634 0.9022
C9_2 C 0.2324(3) 0.1232(2) 0.91973(17)
C10_2 C 0.3329(3) 0.0956(2) 0.87244(18)
C11_2 C 0.3293(3) 0.0925(2) 0.78293(18)
C17_2 C 0.1588(3) 0.3620(3) 0.5497(2)
H11_2 H 0.0780 0.3502 0.5195
C18_2 C 0.1612(3) 0.3601(3) 0.6349(2)
H12_2 H 0.0834 0.3483 0.6612
C19_2 C 0.2809(3) 0.3758(2) 0.68172(17)
C20_2 C 0.3917(3) 0.3943(2) 0.63842(18)
H13_2 H 0.4739 0.4055 0.6667
C21_2 C 0.3809(3) 0.3963(2) 0.55328(17)
H14_2 H 0.4573 0.4096 0.5258
C22_2 C 0.2879(3) 0.3757(2) 0.77392(17)
C23_2 C 0.1924(4) 0.3995(3) 0.82171(19)
H15_2 H 0.1227 0.4156 0.7950
C24_2 C 0.1950(4) 0.4007(3) 0.90995(19)
H16_2 H 0.1255 0.4154 0.9382
C25_2 C 0.2955(3) 0.3813(2) 0.95522(18)
C26_2 C 0.3973(3) 0.3561(2) 0.90846(17)
C27_2 C 0.3931(3) 0.3532(2) 0.81882(17)
C41_2 C 0.2190(4) 0.5632(2) 0.3571(2)
C42_2 C 0.2256(3) 0.6633(2) 0.3463(2)
C43_2 C 0.2926(4) 0.7353(2) 0.4074(2)
H25_2 H 0.3307 0.7220 0.4559
C44_2 C 0.3027(4) 0.8270(2) 0.3963(2)
H26_2 H 0.3493 0.8748 0.4371
C45_2 C 0.2444(3) 0.8481(2) 0.3254(2)
C46_2 C 0.1788(3) 0.7759(2) 0.2642(2)
H27_2 H 0.1406 0.7891 0.2157
C47_2 C 0.1696(3) 0.6843(2) 0.2746(2)
H28_2 H 0.1253 0.6365 0.2329
C48_2 C 0.2466(3) 0.9479(2) 0.3174(2)
N1_2 N 0.2103(2) 0.12953(18) 0.47402(15)
N3_2 N 0.4272(3) 0.0617(2) 0.74740(16)
N4_2 N 0.4356(3) 0.0669(2) 0.90326(17)
N5_2 N 0.2672(2) 0.38020(17) 0.50832(14)
N7_2 N 0.4944(3) 0.3247(2) 0.78424(16)
N8_2 N 0.5026(3) 0.3315(2) 0.93988(16)
O1_2 O 0.09457(19) 0.26794(15) 0.34219(14)
O5_2 O 0.3113(3) 0.54839(16) 0.40005(17)
O6_2 O 0.1259(3) 0.50118(17) 0.3215(2)
O8 O 0.1485(2) 0.96257(16) 0.28185(18)
S1_2 S 0.51476(10) 0.03989(8) 0.82294(6)
S2_2 S 0.58385(9) 0.30694(8) 0.86073(6)
O9 O 0.49301(19) 0.39257(14) 0.37061(13)
O10 O 0.38952(19) 0.24558(15) 0.35301(14)
C33_2 C 0.9908(2) 0.20655(19) 0.33686(16)
C34_2 C 0.8630(2) 0.23408(18) 0.34638(16)
C35_2 C 0.8569(3) 0.32706(19) 0.35531(19)
H21_2 H 0.9332 0.3735 0.3573
C36_2 C 0.7369(3) 0.35046(19) 0.3612(2)
H22_2 H 0.7334 0.4127 0.3679
C37_2 C 0.6221(2) 0.28146(18) 0.35734(16)
C38_2 C 0.6281(3) 0.18874(19) 0.35002(18)
H23_2 H 0.5518 0.1424 0.3484
C39_2 C 0.7481(3) 0.16537(19) 0.34513(18)
H24_2 H 0.7518 0.1033 0.3410
C40_2 C 0.4923(2) 0.30801(19) 0.36036(15)
O2_2 O 0.9886(2) 0.12157(14) 0.32349(14)
loop_
_geom_bond_atom_site_label_1
_geom_bond_atom_site_label_2
_geom_bond_site_symmetry_1
_geom_bond_site_symmetry_2
C33 C34 1_555 1_555
C34 C35 1_555 1_555
C35 H21 1_555 1_555
C36 C35 1_555 1_555
H22 C36 1_555 1_555
C37 C36 1_555 1_555
C38 C37 1_555 1_555
H23 C38 1_555 1_555
C39 C34 1_555 1_555
H24 C39 1_555 1_555
C40 C37 1_555 1_555
O3 C40 1_555 1_555
O4 C40 1_555 1_555
Cd5 O4 1_555 1_555
Cd7 O3 1_555 1_555
C33 O2 1_555 1_555
C38 C39 1_555 1_555
O4 Cd7 1_555 1_555
Cd5 N1 1_555 1_555
Cd7 N5 1_555 1_555
C1 H1 1_555 1_555
C2 C1 1_555 1_555
H2 C2 1_555 1_555
C3 C2 1_555 1_555
C4 C3 1_555 1_555
H3 C4 1_555 1_555
C5 C4 1_555 1_555
H4 C5 1_555 1_555
C6 C3 1_555 1_555
C7 C6 1_555 1_555
H5 C7 1_555 1_555
C8 C7 1_555 1_555
H6 C8 1_555 1_555
C9 C8 1_555 1_555
C10 C9 1_555 1_555
C11 C6 1_555 1_555
C17 H11 1_555 1_555
C18 C17 1_555 1_555
H12 C18 1_555 1_555
C19 C18 1_555 1_555
C20 C19 1_555 1_555
H13 C20 1_555 1_555
C21 C20 1_555 1_555
H14 C21 1_555 1_555
C22 C19 1_555 1_555
C23 C22 1_555 1_555
H15 C23 1_555 1_555
C24 C23 1_555 1_555
H16 C24 1_555 1_555
C25 C24 1_555 1_555
C26 C25 1_555 1_555
C27 C22 1_555 1_555
C41 C42 1_555 1_555
C42 C43 1_555 1_555
C43 H25 1_555 1_555
C44 C43 1_555 1_555
H26 C44 1_555 1_555
C45 C44 1_555 1_555
C46 C45 1_555 1_555
H27 C46 1_555 1_555
C47 C42 1_555 1_555
H28 C47 1_555 1_555
C48 C45 1_555 1_555
N1 C1 1_555 1_555
N3 C11 1_555 1_555
N4 C10 1_555 1_555
N5 C17 1_555 1_555
N7 C27 1_555 1_555
N8 C26 1_555 1_555
O1 Cd5 1_555 1_555
O5 Cd7 1_555 1_555
O6 Cd7 1_555 1_555
O12 C48 1_555 1_555
S1 N3 1_555 1_555
S2 N7 1_555 1_555
N9 Cd5 1_555 1_555
N10 Cd7 1_555 1_555
O11 Cd5 1_555 1_555
Cd7 O1 1_555 1_555
C5 N1 1_555 1_555
C10 C11 1_555 1_555
C21 N5 1_555 1_555
C26 C27 1_555 1_555
C41 O5 1_555 1_555
C41 O6 1_555 1_555
C46 C47 1_555 1_555
N4 S1 1_555 1_555
N8 S2 1_555 1_555
C13 C12 1_555 1_555
H7 C13 1_555 1_555
C14 C13 1_555 1_555
H8 C14 1_555 1_555
C15 H9 1_555 1_555
C16 C12 1_555 1_555
H10 C16 1_555 1_555
C29 C28 1_555 1_555
H17 C29 1_555 1_555
C30 C29 1_555 1_555
H18 C30 1_555 1_555
C31 H19 1_555 1_555
C32 C28 1_555 1_555
H20 C32 1_555 1_555
N9 C14 1_555 1_555
N10 C30 1_555 1_555
C15 C16 1_555 1_555
C15 N9 1_555 1_555
C31 C32 1_555 1_555
C31 N10 1_555 1_555
Cd3 O7 1_555 1_555
C13_2 C12_2 1_555 1_555
H7_2 C13_2 1_555 1_555
C14_2 C13_2 1_555 1_555
H8_2 C14_2 1_555 1_555
C15_2 H9_2 1_555 1_555
C16_2 C12_2 1_555 1_555
H10_2 C16_2 1_555 1_555
C29_2 C28_2 1_555 1_555
H17_2 C29_2 1_555 1_555
C30_2 C29_2 1_555 1_555
H18_2 C30_2 1_555 1_555
C31_2 H19_2 1_555 1_555
C32_2 C28_2 1_555 1_555
H20_2 C32_2 1_555 1_555
N2 C14_2 1_555 1_555
N6 C30_2 1_555 1_555
Cd3 N2 1_555 1_555
Cd6 N6 1_555 1_555
C15_2 C16_2 1_555 1_555
C15_2 N2 1_555 1_555
C31_2 C32_2 1_555 1_555
C31_2 N6 1_555 1_555
Cd3 N1_2 1_555 1_555
Cd6 N5_2 1_555 1_555
C1_2 H1_2 1_555 1_555
C2_2 C1_2 1_555 1_555
H2_2 C2_2 1_555 1_555
C3_2 C2_2 1_555 1_555
C4_2 C3_2 1_555 1_555
H3_2 C4_2 1_555 1_555
C5_2 C4_2 1_555 1_555
H4_2 C5_2 1_555 1_555
C6_2 C3_2 1_555 1_555
C7_2 C6_2 1_555 1_555
H5_2 C7_2 1_555 1_555
C8_2 C7_2 1_555 1_555
H6_2 C8_2 1_555 1_555
C9_2 C8_2 1_555 1_555
C10_2 C9_2 1_555 1_555
C11_2 C6_2 1_555 1_555
C17_2 H11_2 1_555 1_555
C18_2 C17_2 1_555 1_555
H12_2 C18_2 1_555 1_555
C19_2 C18_2 1_555 1_555
C20_2 C19_2 1_555 1_555
H13_2 C20_2 1_555 1_555
C21_2 C20_2 1_555 1_555
H14_2 C21_2 1_555 1_555
C22_2 C19_2 1_555 1_555
C23_2 C22_2 1_555 1_555
H15_2 C23_2 1_555 1_555
C24_2 C23_2 1_555 1_555
H16_2 C24_2 1_555 1_555
C25_2 C24_2 1_555 1_555
C26_2 C25_2 1_555 1_555
C27_2 C22_2 1_555 1_555
C41_2 C42_2 1_555 1_555
C42_2 C43_2 1_555 1_555
C43_2 H25_2 1_555 1_555
C44_2 C43_2 1_555 1_555
H26_2 C44_2 1_555 1_555
C45_2 C44_2 1_555 1_555
C46_2 C45_2 1_555 1_555
H27_2 C46_2 1_555 1_555
C47_2 C42_2 1_555 1_555
H28_2 C47_2 1_555 1_555
C48_2 C45_2 1_555 1_555
N1_2 C1_2 1_555 1_555
N3_2 C11_2 1_555 1_555
N4_2 C10_2 1_555 1_555
N5_2 C17_2 1_555 1_555
N7_2 C27_2 1_555 1_555
N8_2 C26_2 1_555 1_555
O1_2 Cd3 1_555 1_555
O5_2 Cd6 1_555 1_555
O6_2 Cd6 1_555 1_555
O8 C48_2 1_555 1_555
S1_2 N3_2 1_555 1_555
S2_2 N7_2 1_555 1_555
O9 Cd6 1_555 1_555
O10 Cd3 1_555 1_555
Cd6 O1_2 1_555 1_555
Cd6 O10 1_555 1_555
C5_2 N1_2 1_555 1_555
C10_2 C11_2 1_555 1_555
C21_2 N5_2 1_555 1_555
C26_2 C27_2 1_555 1_555
C41_2 O5_2 1_555 1_555
C41_2 O6_2 1_555 1_555
C46_2 C47_2 1_555 1_555
N4_2 S1_2 1_555 1_555
N8_2 S2_2 1_555 1_555
C33_2 C34_2 1_555 1_555
C34_2 C35_2 1_555 1_555
C35_2 H21_2 1_555 1_555
C36_2 C35_2 1_555 1_555
H22_2 C36_2 1_555 1_555
C37_2 C36_2 1_555 1_555
C38_2 C37_2 1_555 1_555
H23_2 C38_2 1_555 1_555
C39_2 C34_2 1_555 1_555
H24_2 C39_2 1_555 1_555
C40_2 C37_2 1_555 1_555
O9 C40_2 1_555 1_555
O10 C40_2 1_555 1_555
C33_2 O2_2 1_555 1_555
C38_2 C39_2 1_555 1_555

#END
