
###############################################################################
#
# This file contains modified crystal structure data generated from the
# MOF subset of the Cambridge Structural Database (CSD) v543 
# hosted by the Cambridge Crystallographic Data Centre (CCDC).
#
# This work is licensed under the Creative Commons
# Attribution-NonCommercial-ShareAlike 4.0 International License.
# To view a copy of this license, visit
# http://creativecommons.org/licenses/by-nc-sa/4.0/
# or send a letter to
# Creative Commons, PO Box 1866, Mountain View, CA 94042, USA.
#
# CIF created using the CSD Python API on 29 September 2022
# The structure has been converted into the P1 space group
# The structure has a 3D framework
# The original CSD entry UWEPEU is in the monoclinic crystal system
# The framework has been calculated to contain at least 10.0% void space
# The void calculation uses a probe of radius 1.32A, grid spacing 0.4
#
###############################################################################

data_UWEPEU
_chemical_formula_moiety         '(C120 H96 Co1 O20 P8)n'
_symmetry_cell_setting           triclinic
_symmetry_space_group_name_H-M   'P 1'
_symmetry_Int_Tables_number      1
_space_group_name_Hall           'P 1'
loop_
_symmetry_equiv_pos_site_id
_symmetry_equiv_pos_as_xyz
1 x,y,z
_cell_length_a                   22.8345(9)
_cell_length_b                   14.9035(7)
_cell_length_c                   9.0359(3)
_cell_angle_alpha                90
_cell_angle_beta                 106.016(2)
_cell_angle_gamma                90
_cell_volume                     2955.68
loop_
_atom_site_label
_atom_site_type_symbol
_atom_site_fract_x
_atom_site_fract_y
_atom_site_fract_z
H5 H 0.332189 0.288449 0.078362
Co1 Co 0.500000 0.54437(3) 0.750000
P1 P 0.43603(3) 0.38258(5) 0.50409(8)
C1 C 0.35281(11) 0.37626(17) 0.4352(3)
H1 H 0.337487 0.435315 0.458158
H2 H 0.342805 0.371967 0.321637
C2 C 0.31303(10) 0.30528(17) 0.4858(3)
C3 C 0.32037(10) 0.30455(18) 0.6589(3)
C4 C 0.35174(11) 0.36900(19) 0.7603(3)
H3 H 0.370215 0.417905 0.722843
C5 C 0.35647(13) 0.3628(2) 0.9172(3)
H4 H 0.378606 0.406761 0.986383
C6 C 0.32900(13) 0.2927(2) 0.9715(3)
C7 C 0.29655(12) 0.2281(2) 0.8704(3)
H6 H 0.277719 0.179808 0.908297
C8 C 0.29169(11) 0.23428(18) 0.7142(3)
C9 C 0.25696(11) 0.16509(18) 0.6024(3)
H7 H 0.254356 0.110040 0.663541
C10 C 0.29426(11) 0.14074(18) 0.4941(3)
C11 C 0.30014(12) 0.05287(19) 0.4515(3)
H8 H 0.279960 0.006236 0.489680
C12 C 0.33544(14) 0.0325(2) 0.3531(4)
C13 C 0.36584(14) 0.1001(2) 0.3009(4)
H10 H 0.390529 0.086183 0.234827
C14 C 0.36056(12) 0.18810(19) 0.3443(3)
H11 H 0.382138 0.234025 0.308616
C15 C 0.32418(10) 0.21022(18) 0.4391(3)
O1 O 0.44943(8) 0.46996(13) 0.5892(2)
O2 O 0.45811(9) 0.37622(14) 0.3602(2)
O3 O 0.46218(8) 0.30345(14) 0.6123(2)
H12 H 0.436502 0.261690 0.597279
P2 P 0.06397(3) 0.11742(5) 0.49591(8)
C16 C 0.14719(11) 0.12374(17) 0.5648(3)
H13 H 0.162513 0.064685 0.541842
H14 H 0.157195 0.128033 0.678363
C17 C 0.18697(10) 0.19472(17) 0.5142(3)
C18 C 0.17963(10) 0.19545(18) 0.3411(3)
C19 C 0.14826(11) 0.13100(19) 0.2397(3)
H15 H 0.129785 0.082095 0.277157
C20 C 0.14353(13) 0.1372(2) 0.0828(3)
H16 H 0.121394 0.093239 0.013617
C21 C 0.17100(13) 0.2073(2) 0.0285(3)
C22 C 0.20345(12) 0.2719(2) 0.1296(3)
H18 H 0.222281 0.320192 0.091703
C23 C 0.20831(11) 0.26572(18) 0.2858(3)
C24 C 0.24304(11) 0.33491(18) 0.3976(3)
H19 H 0.245644 0.389960 0.336459
C25 C 0.20574(11) 0.35926(18) 0.5059(3)
C26 C 0.19986(12) 0.44713(19) 0.5485(3)
H20 H 0.220040 0.493764 0.510320
C27 C 0.16456(14) 0.4675(2) 0.6469(4)
H21 H 0.161383 0.527793 0.678162
C28 C 0.13416(14) 0.3999(2) 0.6991(4)
H22 H 0.109471 0.413817 0.765173
C29 C 0.13944(12) 0.31190(19) 0.6557(3)
H23 H 0.117862 0.265975 0.691384
C30 C 0.17582(10) 0.28978(18) 0.5609(3)
O4 O 0.05057(8) 0.03004(13) 0.4108(2)
O5 O 0.04189(9) 0.12378(14) 0.6398(2)
O6 O 0.03782(8) 0.19655(14) 0.3877(2)
H24 H 0.063498 0.238310 0.402721
Co2 Co 0.000000 0.04437(3) 0.750000
Co3 Co 0.500000 0.45563(3) 0.250000
O7 O 0.55057(8) 0.46996(13) 0.9108(2)
O8 O 0.54189(9) 0.62378(14) 0.6398(2)
O9 O 0.45811(9) 0.62378(14) 0.8602(2)
H9 H 0.338617 0.972207 0.321838
Co4 Co 0.000000 0.95563(3) 0.250000
Co2_2 Co 1.000000 0.04437(3) 0.750000
Co4_2 Co 1.000000 0.95563(3) 0.250000
C1_2 C 0.64719(11) 0.37626(17) 0.0648(3)
H1_2 H 0.662513 0.435315 0.041842
H2_2 H 0.657195 0.371967 0.178363
C2_2 C 0.68697(10) 0.30528(17) 0.0142(3)
C10_2 C 0.70574(11) 0.14074(18) 0.0059(3)
C11_2 C 0.69986(12) 0.05287(19) 0.0485(3)
H8_2 H 0.720040 0.006236 0.010320
C12_2 C 0.66456(14) 0.0325(2) 0.1469(4)
C13_2 C 0.63416(14) 0.1001(2) 0.1991(4)
H10_2 H 0.609471 0.086183 0.265173
C14_2 C 0.63944(12) 0.18810(19) 0.1557(3)
H11_2 H 0.617862 0.234025 0.191384
C15_2 C 0.67582(10) 0.21022(18) 0.0609(3)
O2_2 O 0.54189(9) 0.37622(14) 0.1398(2)
P2_2 P 0.93603(3) 0.11742(5) 0.00409(8)
C18_2 C 0.82037(10) 0.19545(18) 0.1589(3)
C19_2 C 0.85174(11) 0.13100(19) 0.2603(3)
H15_2 H 0.870215 0.082095 0.222843
C20_2 C 0.85647(13) 0.1372(2) 0.4172(3)
H16_2 H 0.878606 0.093239 0.486383
C21_2 C 0.82900(13) 0.2073(2) 0.4715(3)
H17 H 0.832189 0.211551 0.578362
C22_2 C 0.79655(12) 0.2719(2) 0.3704(3)
H18_2 H 0.777719 0.320192 0.408297
C23_2 C 0.79169(11) 0.26572(18) 0.2142(3)
C24_2 C 0.75696(11) 0.33491(18) 0.1024(3)
H19_2 H 0.754356 0.389960 0.163541
O4_2 O 0.94943(8) 0.03004(13) 0.0892(2)
O6_2 O 0.96218(8) 0.19655(14) 0.1123(2)
H24_2 H 0.936502 0.238310 0.097279
P1_2 P 0.56397(3) 0.38258(5) 0.99591(8)
C3_2 C 0.67963(10) 0.30455(18) 0.8411(3)
C4_2 C 0.64826(11) 0.36900(19) 0.7397(3)
H3_2 H 0.629785 0.417905 0.777157
C5_2 C 0.64353(13) 0.3628(2) 0.5828(3)
H4_2 H 0.621394 0.406761 0.513617
C6_2 C 0.67100(13) 0.2927(2) 0.5285(3)
H5_2 H 0.667811 0.288449 0.421638
C7_2 C 0.70345(12) 0.2281(2) 0.6296(3)
H6_2 H 0.722281 0.179808 0.591703
C8_2 C 0.70831(11) 0.23428(18) 0.7858(3)
C9_2 C 0.74304(11) 0.16509(18) 0.8976(3)
H7_2 H 0.745644 0.110040 0.836459
O3_2 O 0.53782(8) 0.30345(14) 0.8877(2)
H12_2 H 0.563498 0.261690 0.902721
C16_2 C 0.85281(11) 0.12374(17) 0.9352(3)
H13_2 H 0.837487 0.064685 0.958158
H14_2 H 0.842805 0.128033 0.821637
C17_2 C 0.81303(10) 0.19472(17) 0.9858(3)
C25_2 C 0.79426(11) 0.35926(18) 0.9941(3)
C26_2 C 0.80014(12) 0.44713(19) 0.9515(3)
H20_2 H 0.779960 0.493764 0.989680
C27_2 C 0.83544(14) 0.4675(2) 0.8531(4)
H21_2 H 0.838617 0.527793 0.821838
C28_2 C 0.86584(14) 0.3999(2) 0.8009(4)
H22_2 H 0.890529 0.413817 0.734827
C29_2 C 0.86056(12) 0.31190(19) 0.8443(3)
H23_2 H 0.882138 0.265975 0.808616
C30_2 C 0.82418(10) 0.28978(18) 0.9391(3)
O5_2 O 0.95811(9) 0.12378(14) 0.8602(2)
H9_2 H 0.661383 0.972207 0.178162
O7_2 O 0.05057(8) 0.96996(13) 0.9108(2)
H21_3 H 0.661383 0.027793 0.678162
P1_3 P 0.93603(3) 0.88258(5) 0.50409(8)
C1_3 C 0.85281(11) 0.87626(17) 0.4352(3)
H1_3 H 0.837487 0.935315 0.458158
H2_3 H 0.842805 0.871967 0.321637
C2_3 C 0.81303(10) 0.80528(17) 0.4858(3)
C3_3 C 0.82037(10) 0.80455(18) 0.6589(3)
C4_3 C 0.85174(11) 0.86900(19) 0.7603(3)
H3_3 H 0.870215 0.917905 0.722843
C5_3 C 0.85647(13) 0.8628(2) 0.9172(3)
H4_3 H 0.878606 0.906761 0.986383
C6_3 C 0.82900(13) 0.7927(2) 0.9715(3)
C7_3 C 0.79655(12) 0.7281(2) 0.8704(3)
H6_3 H 0.777719 0.679808 0.908297
C8_3 C 0.79169(11) 0.73428(18) 0.7142(3)
C9_3 C 0.75696(11) 0.66509(18) 0.6024(3)
H7_3 H 0.754356 0.610040 0.663541
C10_3 C 0.79426(11) 0.64074(18) 0.4941(3)
C11_3 C 0.80014(12) 0.55287(19) 0.4515(3)
H8_3 H 0.779960 0.506236 0.489680
C12_3 C 0.83544(14) 0.5325(2) 0.3531(4)
H9_3 H 0.838617 0.472207 0.321838
C13_3 C 0.86584(14) 0.6001(2) 0.3009(4)
H10_3 H 0.890529 0.586183 0.234827
C14_3 C 0.86056(12) 0.68810(19) 0.3443(3)
H11_3 H 0.882138 0.734025 0.308616
C15_3 C 0.82418(10) 0.71022(18) 0.4391(3)
O1_2 O 0.94943(8) 0.96996(13) 0.5892(2)
O2_3 O 0.95811(9) 0.87622(14) 0.3602(2)
O3_3 O 0.96218(8) 0.80345(14) 0.6123(2)
H12_3 H 0.936502 0.761690 0.597279
P2_3 P 0.56397(3) 0.61742(5) 0.49591(8)
C16_3 C 0.64719(11) 0.62374(17) 0.5648(3)
H13_3 H 0.662513 0.564685 0.541842
H14_3 H 0.657195 0.628033 0.678363
C17_3 C 0.68697(10) 0.69472(17) 0.5142(3)
C18_3 C 0.67963(10) 0.69545(18) 0.3411(3)
C19_3 C 0.64826(11) 0.63100(19) 0.2397(3)
H15_3 H 0.629785 0.582095 0.277157
C20_3 C 0.64353(13) 0.6372(2) 0.0828(3)
H16_3 H 0.621394 0.593239 0.013617
C21_3 C 0.67100(13) 0.7073(2) 0.0285(3)
C22_3 C 0.70345(12) 0.7719(2) 0.1296(3)
H18_3 H 0.722281 0.820192 0.091703
C23_3 C 0.70831(11) 0.76572(18) 0.2858(3)
C24_3 C 0.74304(11) 0.83491(18) 0.3976(3)
H19_3 H 0.745644 0.889960 0.336459
C25_3 C 0.70574(11) 0.85926(18) 0.5059(3)
C26_3 C 0.69986(12) 0.94713(19) 0.5485(3)
H20_3 H 0.720040 0.993764 0.510320
C27_3 C 0.66456(14) 0.9675(2) 0.6469(4)
C28_3 C 0.63416(14) 0.8999(2) 0.6991(4)
H22_3 H 0.609471 0.913817 0.765173
C29_3 C 0.63944(12) 0.81190(19) 0.6557(3)
H23_3 H 0.617862 0.765975 0.691384
C30_3 C 0.67582(10) 0.78978(18) 0.5609(3)
O4_3 O 0.55057(8) 0.53004(13) 0.4108(2)
O6_3 O 0.53782(8) 0.69655(14) 0.3877(2)
H24_3 H 0.563498 0.738310 0.402721
H21_4 H 0.338617 0.027793 0.821838
C1_4 C 0.14719(11) 0.87626(17) 0.0648(3)
H1_4 H 0.162513 0.935315 0.041842
H2_4 H 0.157195 0.871967 0.178363
C2_4 C 0.18697(10) 0.80528(17) 0.0142(3)
C10_4 C 0.20574(11) 0.64074(18) 0.0059(3)
C11_4 C 0.19986(12) 0.55287(19) 0.0485(3)
H8_4 H 0.220040 0.506236 0.010320
C12_4 C 0.16456(14) 0.5325(2) 0.1469(4)
H9_4 H 0.161383 0.472207 0.178162
C13_4 C 0.13416(14) 0.6001(2) 0.1991(4)
H10_4 H 0.109471 0.586183 0.265173
C14_4 C 0.13944(12) 0.68810(19) 0.1557(3)
H11_4 H 0.117862 0.734025 0.191384
C15_4 C 0.17582(10) 0.71022(18) 0.0609(3)
O2_4 O 0.04189(9) 0.87622(14) 0.1398(2)
P2_4 P 0.43603(3) 0.61742(5) 0.00409(8)
C18_4 C 0.32037(10) 0.69545(18) 0.1589(3)
C19_4 C 0.35174(11) 0.63100(19) 0.2603(3)
H15_4 H 0.370215 0.582095 0.222843
C20_4 C 0.35647(13) 0.6372(2) 0.4172(3)
H16_4 H 0.378606 0.593239 0.486383
C21_4 C 0.32900(13) 0.7073(2) 0.4715(3)
H17_2 H 0.332189 0.711551 0.578362
C22_4 C 0.29655(12) 0.7719(2) 0.3704(3)
H18_4 H 0.277719 0.820192 0.408297
C23_4 C 0.29169(11) 0.76572(18) 0.2142(3)
C24_4 C 0.25696(11) 0.83491(18) 0.1024(3)
H19_4 H 0.254356 0.889960 0.163541
O4_4 O 0.44943(8) 0.53004(13) 0.0892(2)
O6_4 O 0.46218(8) 0.69655(14) 0.1123(2)
H24_4 H 0.436502 0.738310 0.097279
P1_4 P 0.06397(3) 0.88258(5) 0.99591(8)
C3_4 C 0.17963(10) 0.80455(18) 0.8411(3)
C4_4 C 0.14826(11) 0.86900(19) 0.7397(3)
H3_4 H 0.129785 0.917905 0.777157
C5_4 C 0.14353(13) 0.8628(2) 0.5828(3)
H4_4 H 0.121394 0.906761 0.513617
C6_4 C 0.17100(13) 0.7927(2) 0.5285(3)
H5_3 H 0.167811 0.788449 0.421638
C7_4 C 0.20345(12) 0.7281(2) 0.6296(3)
H6_4 H 0.222281 0.679808 0.591703
C8_4 C 0.20831(11) 0.73428(18) 0.7858(3)
C9_4 C 0.24304(11) 0.66509(18) 0.8976(3)
H7_4 H 0.245644 0.610040 0.836459
O3_4 O 0.03782(8) 0.80345(14) 0.8877(2)
H12_4 H 0.063498 0.761690 0.902721
C16_4 C 0.35281(11) 0.62374(17) 0.9352(3)
H13_4 H 0.337487 0.564685 0.958158
H14_4 H 0.342805 0.628033 0.821637
C17_4 C 0.31303(10) 0.69472(17) 0.9858(3)
C25_4 C 0.29426(11) 0.85926(18) 0.9941(3)
C26_4 C 0.30014(12) 0.94713(19) 0.9515(3)
H20_4 H 0.279960 0.993764 0.989680
C27_4 C 0.33544(14) 0.9675(2) 0.8531(4)
C28_4 C 0.36584(14) 0.8999(2) 0.8009(4)
H22_4 H 0.390529 0.913817 0.734827
C29_4 C 0.36056(12) 0.81190(19) 0.8443(3)
H23_4 H 0.382138 0.765975 0.808616
C30_4 C 0.32418(10) 0.78978(18) 0.9391(3)
H17_3 H 0.167811 0.211551 0.921638
H5_4 H 0.832189 0.788449 0.078362
H17_4 H 0.667811 0.711551 0.921638
loop_
_geom_bond_atom_site_label_1
_geom_bond_atom_site_label_2
_geom_bond_site_symmetry_1
_geom_bond_site_symmetry_2
Co1 O1 1_555 1_555
P1 C1 1_555 1_555
C1 H1 1_555 1_555
H2 C1 1_555 1_555
C2 C1 1_555 1_555
C3 C2 1_555 1_555
C4 C3 1_555 1_555
H3 C4 1_555 1_555
C5 C4 1_555 1_555
H4 C5 1_555 1_555
C6 C5 1_555 1_555
C7 C6 1_555 1_555
H6 C7 1_555 1_555
C8 C3 1_555 1_555
C9 C8 1_555 1_555
H7 C9 1_555 1_555
C10 C9 1_555 1_555
C11 C10 1_555 1_555
H8 C11 1_555 1_555
C12 C11 1_555 1_555
C13 C12 1_555 1_555
H10 C13 1_555 1_555
C14 C13 1_555 1_555
H11 C14 1_555 1_555
C15 C2 1_555 1_555
O1 P1 1_555 1_555
O2 P1 1_555 1_555
O3 P1 1_555 1_555
H12 O3 1_555 1_555
P2 C16 1_555 1_555
C16 H13 1_555 1_555
H14 C16 1_555 1_555
C17 C9 1_555 1_555
C18 C17 1_555 1_555
C19 C18 1_555 1_555
H15 C19 1_555 1_555
C20 C19 1_555 1_555
H16 C20 1_555 1_555
C21 C20 1_555 1_555
C22 C21 1_555 1_555
H18 C22 1_555 1_555
C23 C18 1_555 1_555
C24 C2 1_555 1_555
H19 C24 1_555 1_555
C25 C24 1_555 1_555
C26 C25 1_555 1_555
H20 C26 1_555 1_555
C27 C26 1_555 1_555
H21 C27 1_555 1_555
C28 C27 1_555 1_555
H22 C28 1_555 1_555
C29 C28 1_555 1_555
H23 C29 1_555 1_555
C30 C17 1_555 1_555
O4 P2 1_555 1_555
O5 P2 1_555 1_555
O6 P2 1_555 1_555
H24 O6 1_555 1_555
Co2 O5 1_555 1_555
Co3 O2 1_555 1_555
O7 Co1 1_555 1_555
O8 Co1 1_555 1_555
O9 Co1 1_555 1_555
C7 C8 1_555 1_555
C10 C15 1_555 1_555
C14 C15 1_555 1_555
C16 C17 1_555 1_555
C22 C23 1_555 1_555
C23 C24 1_555 1_555
C25 C30 1_555 1_555
C29 C30 1_555 1_555
C1_2 H1_2 1_555 1_555
H2_2 C1_2 1_555 1_555
C2_2 C1_2 1_555 1_555
C11_2 C10_2 1_555 1_555
H8_2 C11_2 1_555 1_555
C12_2 C11_2 1_555 1_555
C13_2 C12_2 1_555 1_555
H10_2 C13_2 1_555 1_555
C14_2 C13_2 1_555 1_555
H11_2 C14_2 1_555 1_555
C15_2 C2_2 1_555 1_555
C19_2 C18_2 1_555 1_555
H15_2 C19_2 1_555 1_555
C20_2 C19_2 1_555 1_555
H16_2 C20_2 1_555 1_555
C21_2 C20_2 1_555 1_555
H17 C21_2 1_555 1_555
C22_2 C21_2 1_555 1_555
H18_2 C22_2 1_555 1_555
C23_2 C18_2 1_555 1_555
C24_2 C2_2 1_555 1_555
H19_2 C24_2 1_555 1_555
O4_2 P2_2 1_555 1_555
O6_2 P2_2 1_555 1_555
H24_2 O6_2 1_555 1_555
Co3 O2_2 1_555 1_555
C10_2 C15_2 1_555 1_555
C14_2 C15_2 1_555 1_555
C22_2 C23_2 1_555 1_555
C23_2 C24_2 1_555 1_555
C4_2 C3_2 1_555 1_555
H3_2 C4_2 1_555 1_555
C5_2 C4_2 1_555 1_555
H4_2 C5_2 1_555 1_555
C6_2 C5_2 1_555 1_555
H5_2 C6_2 1_555 1_555
C7_2 C6_2 1_555 1_555
H6_2 C7_2 1_555 1_555
C8_2 C3_2 1_555 1_555
C9_2 C8_2 1_555 1_555
H7_2 C9_2 1_555 1_555
O7 P1_2 1_555 1_555
O3_2 P1_2 1_555 1_555
H12_2 O3_2 1_555 1_555
C16_2 H13_2 1_555 1_555
H14_2 C16_2 1_555 1_555
C17_2 C9_2 1_555 1_555
C26_2 C25_2 1_555 1_555
H20_2 C26_2 1_555 1_555
C27_2 C26_2 1_555 1_555
H21_2 C27_2 1_555 1_555
C28_2 C27_2 1_555 1_555
H22_2 C28_2 1_555 1_555
C29_2 C28_2 1_555 1_555
H23_2 C29_2 1_555 1_555
C30_2 C17_2 1_555 1_555
Co2_2 O5_2 1_555 1_555
C7_2 C8_2 1_555 1_555
C16_2 C17_2 1_555 1_555
C25_2 C30_2 1_555 1_555
C29_2 C30_2 1_555 1_555
P1_3 C1_3 1_555 1_555
C1_3 H1_3 1_555 1_555
H2_3 C1_3 1_555 1_555
C2_3 C1_3 1_555 1_555
C3_3 C2_3 1_555 1_555
C4_3 C3_3 1_555 1_555
H3_3 C4_3 1_555 1_555
C5_3 C4_3 1_555 1_555
H4_3 C5_3 1_555 1_555
C6_3 C5_3 1_555 1_555
C7_3 C6_3 1_555 1_555
H6_3 C7_3 1_555 1_555
C8_3 C3_3 1_555 1_555
C9_3 C8_3 1_555 1_555
H7_3 C9_3 1_555 1_555
C10_3 C9_3 1_555 1_555
C11_3 C10_3 1_555 1_555
H8_3 C11_3 1_555 1_555
C12_3 C11_3 1_555 1_555
H9_3 C12_3 1_555 1_555
C13_3 C12_3 1_555 1_555
H10_3 C13_3 1_555 1_555
C14_3 C13_3 1_555 1_555
H11_3 C14_3 1_555 1_555
C15_3 C2_3 1_555 1_555
O1_2 P1_3 1_555 1_555
O2_3 P1_3 1_555 1_555
O3_3 P1_3 1_555 1_555
H12_3 O3_3 1_555 1_555
P2_3 C16_3 1_555 1_555
C16_3 H13_3 1_555 1_555
H14_3 C16_3 1_555 1_555
C17_3 C9_3 1_555 1_555
C18_3 C17_3 1_555 1_555
C19_3 C18_3 1_555 1_555
H15_3 C19_3 1_555 1_555
C20_3 C19_3 1_555 1_555
H16_3 C20_3 1_555 1_555
C21_3 C20_3 1_555 1_555
C22_3 C21_3 1_555 1_555
H18_3 C22_3 1_555 1_555
C23_3 C18_3 1_555 1_555
C24_3 C2_3 1_555 1_555
H19_3 C24_3 1_555 1_555
C25_3 C24_3 1_555 1_555
C26_3 C25_3 1_555 1_555
H20_3 C26_3 1_555 1_555
C27_3 C26_3 1_555 1_555
C28_3 C27_3 1_555 1_555
H22_3 C28_3 1_555 1_555
C29_3 C28_3 1_555 1_555
H23_3 C29_3 1_555 1_555
C30_3 C17_3 1_555 1_555
O4_3 P2_3 1_555 1_555
O8 P2_3 1_555 1_555
O6_3 P2_3 1_555 1_555
H24_3 O6_3 1_555 1_555
Co4_2 O2_3 1_555 1_555
Co3 O4_3 1_555 1_555
C7_3 C8_3 1_555 1_555
C10_3 C15_3 1_555 1_555
C14_3 C15_3 1_555 1_555
C16_3 C17_3 1_555 1_555
C22_3 C23_3 1_555 1_555
C23_3 C24_3 1_555 1_555
C25_3 C30_3 1_555 1_555
C29_3 C30_3 1_555 1_555
C1_4 H1_4 1_555 1_555
H2_4 C1_4 1_555 1_555
C2_4 C1_4 1_555 1_555
C11_4 C10_4 1_555 1_555
H8_4 C11_4 1_555 1_555
C12_4 C11_4 1_555 1_555
H9_4 C12_4 1_555 1_555
C13_4 C12_4 1_555 1_555
H10_4 C13_4 1_555 1_555
C14_4 C13_4 1_555 1_555
H11_4 C14_4 1_555 1_555
C15_4 C2_4 1_555 1_555
C19_4 C18_4 1_555 1_555
H15_4 C19_4 1_555 1_555
C20_4 C19_4 1_555 1_555
H16_4 C20_4 1_555 1_555
C21_4 C20_4 1_555 1_555
H17_2 C21_4 1_555 1_555
C22_4 C21_4 1_555 1_555
H18_4 C22_4 1_555 1_555
C23_4 C18_4 1_555 1_555
C24_4 C2_4 1_555 1_555
H19_4 C24_4 1_555 1_555
O4_4 P2_4 1_555 1_555
O6_4 P2_4 1_555 1_555
H24_4 O6_4 1_555 1_555
Co4 O2_4 1_555 1_555
Co3 O4_4 1_555 1_555
C10_4 C15_4 1_555 1_555
C14_4 C15_4 1_555 1_555
C22_4 C23_4 1_555 1_555
C23_4 C24_4 1_555 1_555
C4_4 C3_4 1_555 1_555
H3_4 C4_4 1_555 1_555
C5_4 C4_4 1_555 1_555
H4_4 C5_4 1_555 1_555
C6_4 C5_4 1_555 1_555
H5_3 C6_4 1_555 1_555
C7_4 C6_4 1_555 1_555
H6_4 C7_4 1_555 1_555
C8_4 C3_4 1_555 1_555
C9_4 C8_4 1_555 1_555
H7_4 C9_4 1_555 1_555
O7_2 P1_4 1_555 1_555
O3_4 P1_4 1_555 1_555
H12_4 O3_4 1_555 1_555
C16_4 H13_4 1_555 1_555
H14_4 C16_4 1_555 1_555
C17_4 C9_4 1_555 1_555
C26_4 C25_4 1_555 1_555
H20_4 C26_4 1_555 1_555
C27_4 C26_4 1_555 1_555
C28_4 C27_4 1_555 1_555
H22_4 C28_4 1_555 1_555
C29_4 C28_4 1_555 1_555
H23_4 C29_4 1_555 1_555
C30_4 C17_4 1_555 1_555
C7_4 C8_4 1_555 1_555
C16_4 C17_4 1_555 1_555
C25_4 C30_4 1_555 1_555
C29_4 C30_4 1_555 1_555

#END
