
###############################################################################
#
# This file contains modified crystal structure data generated from the
# MOF subset of the Cambridge Structural Database (CSD) v543 
# hosted by the Cambridge Crystallographic Data Centre (CCDC).
#
# This work is licensed under the Creative Commons
# Attribution-NonCommercial-ShareAlike 4.0 International License.
# To view a copy of this license, visit
# http://creativecommons.org/licenses/by-nc-sa/4.0/
# or send a letter to
# Creative Commons, PO Box 1866, Mountain View, CA 94042, USA.
#
# CIF created using the CSD Python API on 29 September 2022
# The structure has been converted into the P1 space group
# The structure has a 3D framework
# The original CSD entry UWUQEJ is in the orthorhombic crystal system
# The framework has been calculated to contain at least 10.0% void space
# The void calculation uses a probe of radius 1.32A, grid spacing 0.4
#
###############################################################################

data_UWUQEJ
_chemical_formula_moiety         '(C72 H48 Cu4 N8 O20)n'
_symmetry_cell_setting           triclinic
_symmetry_space_group_name_H-M   'P 1'
_symmetry_Int_Tables_number      1
_space_group_name_Hall           'P 1'
loop_
_symmetry_equiv_pos_site_id
_symmetry_equiv_pos_as_xyz
1 x,y,z
_cell_length_a                   21.073(4)
_cell_length_b                   13.061(3)
_cell_length_c                   11.123(2)
_cell_angle_alpha                90
_cell_angle_beta                 90
_cell_angle_gamma                90
_cell_volume                     3061.43
loop_
_atom_site_label
_atom_site_type_symbol
_atom_site_fract_x
_atom_site_fract_y
_atom_site_fract_z
H11 H 0.0145 0.2565 0.0932
H12 H 0.0117 0.2554 0.2969
H7 H 0.0145 0.2565 0.9068
H8 H 0.0117 0.2554 0.7031
O6 O 0.0409(2) 0.1921(5) 0.5000
Cu4 Cu 0.95265(4) 0.14499(8) 0.5000
N2 N 0.95313(17) 0.1427(3) 0.3175(5)
C14 C 0.9197(4) 0.0770(6) 0.2561(6)
H9 H 0.8958 0.0291 0.2981
C15 C 0.9178(4) 0.0747(6) 0.1323(6)
H10 H 0.8923 0.0270 0.0932
C16 C 0.9530(2) 0.1418(4) 0.0673(6)
C17 C 0.9889(4) 0.2093(7) 0.1327(6)
C18 C 0.9873(4) 0.2078(6) 0.2553(6)
O1 O 0.8590(2) 0.1622(4) 0.5000
O2 O 0.8881(2) 0.3234(4) 0.5000
O3 O 0.5409(2) 0.3079(5) 0.5000
O4 O 0.5699(3) 0.4689(4) 0.5000
O5 O 0.8059(3) 0.4633(5) 0.5000
H1 H 0.8412 0.4370 0.5000
C1 C 0.8461(4) 0.2559(6) 0.5000
C2 C 0.7788(3) 0.2870(5) 0.5000
C3 C 0.7304(4) 0.2146(6) 0.5000
H2 H 0.7410 0.1455 0.5000
C4 C 0.6673(3) 0.2418(6) 0.5000
H3 H 0.6360 0.1917 0.5000
C5 C 0.6508(4) 0.3446(5) 0.5000
C6 C 0.6971(3) 0.4171(6) 0.5000
H4 H 0.6861 0.4860 0.5000
C7 C 0.7611(4) 0.3891(6) 0.5000
C8 C 0.5823(3) 0.3799(6) 0.5000
N1 N 0.95313(17) 0.1427(3) 0.6825(5)
C9 C 0.9197(4) 0.0770(6) 0.7439(6)
H5 H 0.8958 0.0291 0.7019
C10 C 0.9178(4) 0.0747(6) 0.8677(6)
H6 H 0.8923 0.0270 0.9068
C11 C 0.9530(2) 0.1418(4) 0.9327(6)
C12 C 0.9889(4) 0.2093(7) 0.8673(6)
C13 C 0.9873(4) 0.2078(6) 0.7447(6)
Cu2 Cu 0.45265(4) 0.35501(8) 0.5000
Cu3 Cu 0.54735(4) 0.64499(8) 0.5000
O7 O 0.9301(3) 0.9689(4) 0.5000
O7_2 O 0.0699(3) 0.0311(4) 0.5000
Cu4_2 Cu 0.04735(4) 0.85501(8) 0.5000
N2_2 N 0.04687(17) 0.8573(3) 0.3175(5)
C14_2 C 0.0803(4) 0.9230(6) 0.2561(6)
H9_2 H 0.1042 0.9709 0.2981
C15_2 C 0.0822(4) 0.9253(6) 0.1323(6)
H10_2 H 0.1077 0.9730 0.0932
C16_2 C 0.0470(2) 0.8582(4) 0.0673(6)
C17_2 C 0.0111(4) 0.7907(7) 0.1327(6)
C18_2 C 0.0127(4) 0.7922(6) 0.2553(6)
O1_2 O 0.1410(2) 0.8378(4) 0.5000
O2_2 O 0.1119(2) 0.6766(4) 0.5000
O3_2 O 0.4591(2) 0.6921(5) 0.5000
O4_2 O 0.4301(3) 0.5311(4) 0.5000
O5_2 O 0.1941(3) 0.5367(5) 0.5000
H1_2 H 0.1588 0.5630 0.5000
C1_2 C 0.1539(4) 0.7441(6) 0.5000
C2_2 C 0.2212(3) 0.7130(5) 0.5000
C3_2 C 0.2696(4) 0.7854(6) 0.5000
H2_2 H 0.2590 0.8545 0.5000
C4_2 C 0.3327(3) 0.7582(6) 0.5000
H3_2 H 0.3640 0.8083 0.5000
C5_2 C 0.3492(4) 0.6554(5) 0.5000
C6_2 C 0.3029(3) 0.5829(6) 0.5000
H4_2 H 0.3139 0.5140 0.5000
C7_2 C 0.2389(4) 0.6109(6) 0.5000
C8_2 C 0.4177(3) 0.6201(6) 0.5000
N1_2 N 0.04687(17) 0.8573(3) 0.6825(5)
C9_2 C 0.0803(4) 0.9230(6) 0.7439(6)
H5_2 H 0.1042 0.9709 0.7019
C10_2 C 0.0822(4) 0.9253(6) 0.8677(6)
H6_2 H 0.1077 0.9730 0.9068
C11_2 C 0.0470(2) 0.8582(4) 0.9327(6)
C12_2 C 0.0111(4) 0.7907(7) 0.8673(6)
C13_2 C 0.0127(4) 0.7922(6) 0.7447(6)
H11_2 H 0.9855 0.7435 0.0932
H12_2 H 0.9883 0.7446 0.2969
H7_2 H 0.9855 0.7435 0.9068
H8_2 H 0.9883 0.7446 0.7031
O6_2 O 0.9591(2) 0.8079(5) 0.5000
O1_3 O 0.3590(2) 0.3378(4) 0.5000
O2_3 O 0.3881(2) 0.1766(4) 0.5000
O5_3 O 0.3059(3) 0.0367(5) 0.5000
H1_3 H 0.3412 0.0630 0.5000
C1_3 C 0.3461(4) 0.2441(6) 0.5000
C2_3 C 0.2788(3) 0.2130(5) 0.5000
C3_3 C 0.2304(4) 0.2854(6) 0.5000
H2_3 H 0.2410 0.3545 0.5000
C4_3 C 0.1673(3) 0.2582(6) 0.5000
H3_3 H 0.1360 0.3083 0.5000
C5_3 C 0.1508(4) 0.1554(5) 0.5000
C6_3 C 0.1971(3) 0.0829(6) 0.5000
H4_3 H 0.1861 0.0140 0.5000
C7_3 C 0.2611(4) 0.1109(6) 0.5000
C8_3 C 0.0823(3) 0.1201(6) 0.5000
N1_3 N 0.45313(17) 0.3573(3) 0.3175(5)
C9_3 C 0.4197(4) 0.4230(6) 0.2561(6)
H5_3 H 0.3958 0.4709 0.2981
C10_3 C 0.4178(4) 0.4253(6) 0.1323(6)
H6_3 H 0.3923 0.4730 0.0932
C11_3 C 0.4530(2) 0.3582(4) 0.0673(6)
C12_3 C 0.4889(4) 0.2907(7) 0.1327(6)
H7_3 H 0.5145 0.2435 0.0932
C13_3 C 0.4873(4) 0.2922(6) 0.2553(6)
H8_3 H 0.5117 0.2446 0.2969
N3 N 0.45313(17) 0.3573(3) 0.6825(5)
C14_3 C 0.4197(4) 0.4230(6) 0.7439(6)
H9_3 H 0.3958 0.4709 0.7019
C15_3 C 0.4178(4) 0.4253(6) 0.8677(6)
H10_3 H 0.3923 0.4730 0.9068
C16_3 C 0.4530(2) 0.3582(4) 0.9327(6)
C17_3 C 0.4889(4) 0.2907(7) 0.8673(6)
H11_3 H 0.5145 0.2435 0.9068
C18_3 C 0.4873(4) 0.2922(6) 0.7447(6)
H12_3 H 0.5117 0.2446 0.7031
O1_4 O 0.6410(2) 0.6622(4) 0.5000
O2_4 O 0.6119(2) 0.8234(4) 0.5000
O5_4 O 0.6941(3) 0.9633(5) 0.5000
H1_4 H 0.6588 0.9370 0.5000
C1_4 C 0.6539(4) 0.7559(6) 0.5000
C2_4 C 0.7212(3) 0.7870(5) 0.5000
C3_4 C 0.7696(4) 0.7146(6) 0.5000
H2_4 H 0.7590 0.6455 0.5000
C4_4 C 0.8327(3) 0.7418(6) 0.5000
H3_4 H 0.8640 0.6917 0.5000
C5_4 C 0.8492(4) 0.8446(5) 0.5000
C6_4 C 0.8029(3) 0.9171(6) 0.5000
H4_4 H 0.8139 0.9860 0.5000
C7_4 C 0.7389(4) 0.8891(6) 0.5000
C8_4 C 0.9177(3) 0.8799(6) 0.5000
N1_4 N 0.54687(17) 0.6427(3) 0.3175(5)
C9_4 C 0.5803(4) 0.5770(6) 0.2561(6)
H5_4 H 0.6042 0.5291 0.2981
C10_4 C 0.5822(4) 0.5747(6) 0.1323(6)
H6_4 H 0.6077 0.5270 0.0932
C11_4 C 0.5470(2) 0.6418(4) 0.0673(6)
C12_4 C 0.5111(4) 0.7093(7) 0.1327(6)
H7_4 H 0.4855 0.7565 0.0932
C13_4 C 0.5127(4) 0.7078(6) 0.2553(6)
H8_4 H 0.4883 0.7554 0.2969
N3_2 N 0.54687(17) 0.6427(3) 0.6825(5)
C14_4 C 0.5803(4) 0.5770(6) 0.7439(6)
H9_4 H 0.6042 0.5291 0.7019
C15_4 C 0.5822(4) 0.5747(6) 0.8677(6)
H10_4 H 0.6077 0.5270 0.9068
C16_4 C 0.5470(2) 0.6418(4) 0.9327(6)
C17_4 C 0.5111(4) 0.7093(7) 0.8673(6)
H11_4 H 0.4855 0.7565 0.9068
C18_4 C 0.5127(4) 0.7078(6) 0.7447(6)
H12_4 H 0.4883 0.7554 0.7031
loop_
_geom_bond_atom_site_label_1
_geom_bond_atom_site_label_2
_geom_bond_site_symmetry_1
_geom_bond_site_symmetry_2
Cu4 N2 1_555 1_555
N2 C14 1_555 1_555
C14 H9 1_555 1_555
C15 C14 1_555 1_555
H10 C15 1_555 1_555
C17 C16 1_555 1_555
C18 N2 1_555 1_555
C15 C16 1_555 1_555
C17 C18 1_555 1_555
Cu4 O1 1_555 1_555
O1 C1 1_555 1_555
O2 C1 1_555 1_555
O3 C8 1_555 1_555
O4 C8 1_555 1_555
O5 H1 1_555 1_555
C1 C2 1_555 1_555
C2 C3 1_555 1_555
C3 H2 1_555 1_555
C4 C3 1_555 1_555
H3 C4 1_555 1_555
C5 C4 1_555 1_555
C6 C5 1_555 1_555
H4 C6 1_555 1_555
C7 O5 1_555 1_555
C8 C5 1_555 1_555
N1 Cu4 1_555 1_555
C9 N1 1_555 1_555
H5 C9 1_555 1_555
C10 C9 1_555 1_555
H6 C10 1_555 1_555
C11 C10 1_555 1_555
C12 C11 1_555 1_555
C13 N1 1_555 1_555
Cu2 O3 1_555 1_555
Cu3 O4 1_555 1_555
C2 C7 1_555 1_555
C6 C7 1_555 1_555
C12 C13 1_555 1_555
Cu4_2 N2_2 1_555 1_555
N2_2 C14_2 1_555 1_555
C14_2 H9_2 1_555 1_555
C15_2 C14_2 1_555 1_555
H10_2 C15_2 1_555 1_555
C17_2 C16_2 1_555 1_555
C18_2 N2_2 1_555 1_555
C15_2 C16_2 1_555 1_555
C17_2 C18_2 1_555 1_555
Cu4_2 O1_2 1_555 1_555
O1_2 C1_2 1_555 1_555
O2_2 C1_2 1_555 1_555
O3_2 C8_2 1_555 1_555
O4_2 C8_2 1_555 1_555
O5_2 H1_2 1_555 1_555
C1_2 C2_2 1_555 1_555
C2_2 C3_2 1_555 1_555
C3_2 H2_2 1_555 1_555
C4_2 C3_2 1_555 1_555
H3_2 C4_2 1_555 1_555
C5_2 C4_2 1_555 1_555
C6_2 C5_2 1_555 1_555
H4_2 C6_2 1_555 1_555
C7_2 O5_2 1_555 1_555
C8_2 C5_2 1_555 1_555
N1_2 Cu4_2 1_555 1_555
C9_2 N1_2 1_555 1_555
H5_2 C9_2 1_555 1_555
C10_2 C9_2 1_555 1_555
H6_2 C10_2 1_555 1_555
C11_2 C10_2 1_555 1_555
C12_2 C11_2 1_555 1_555
C13_2 N1_2 1_555 1_555
Cu3 O3_2 1_555 1_555
Cu2 O4_2 1_555 1_555
C2_2 C7_2 1_555 1_555
C6_2 C7_2 1_555 1_555
C12_2 C13_2 1_555 1_555
Cu2 O1_3 1_555 1_555
O1_3 C1_3 1_555 1_555
O2_3 C1_3 1_555 1_555
O6 C8_3 1_555 1_555
O7_2 C8_3 1_555 1_555
O5_3 H1_3 1_555 1_555
C1_3 C2_3 1_555 1_555
C2_3 C3_3 1_555 1_555
C3_3 H2_3 1_555 1_555
C4_3 C3_3 1_555 1_555
H3_3 C4_3 1_555 1_555
C5_3 C4_3 1_555 1_555
C6_3 C5_3 1_555 1_555
H4_3 C6_3 1_555 1_555
C7_3 O5_3 1_555 1_555
C8_3 C5_3 1_555 1_555
N1_3 Cu2 1_555 1_555
C9_3 N1_3 1_555 1_555
H5_3 C9_3 1_555 1_555
C10_3 C9_3 1_555 1_555
H6_3 C10_3 1_555 1_555
C11_3 C10_3 1_555 1_555
C12_3 C11_3 1_555 1_555
H7_3 C12_3 1_555 1_555
C13_3 N1_3 1_555 1_555
H8_3 C13_3 1_555 1_555
N3 Cu2 1_555 1_555
C2_3 C7_3 1_555 1_555
C6_3 C7_3 1_555 1_555
C12_3 C13_3 1_555 1_555
N3 C14_3 1_555 1_555
C14_3 H9_3 1_555 1_555
C15_3 C14_3 1_555 1_555
H10_3 C15_3 1_555 1_555
C17_3 C16_3 1_555 1_555
H11_3 C17_3 1_555 1_555
C18_3 N3 1_555 1_555
H12_3 C18_3 1_555 1_555
C15_3 C16_3 1_555 1_555
C17_3 C18_3 1_555 1_555
Cu3 O1_4 1_555 1_555
O1_4 C1_4 1_555 1_555
O2_4 C1_4 1_555 1_555
O6_2 C8_4 1_555 1_555
O7 C8_4 1_555 1_555
O5_4 H1_4 1_555 1_555
C1_4 C2_4 1_555 1_555
C2_4 C3_4 1_555 1_555
C3_4 H2_4 1_555 1_555
C4_4 C3_4 1_555 1_555
H3_4 C4_4 1_555 1_555
C5_4 C4_4 1_555 1_555
C6_4 C5_4 1_555 1_555
H4_4 C6_4 1_555 1_555
C7_4 O5_4 1_555 1_555
C8_4 C5_4 1_555 1_555
N1_4 Cu3 1_555 1_555
C9_4 N1_4 1_555 1_555
H5_4 C9_4 1_555 1_555
C10_4 C9_4 1_555 1_555
H6_4 C10_4 1_555 1_555
C11_4 C10_4 1_555 1_555
C12_4 C11_4 1_555 1_555
H7_4 C12_4 1_555 1_555
C13_4 N1_4 1_555 1_555
H8_4 C13_4 1_555 1_555
N3_2 Cu3 1_555 1_555
C2_4 C7_4 1_555 1_555
C6_4 C7_4 1_555 1_555
C12_4 C13_4 1_555 1_555
N3_2 C14_4 1_555 1_555
C14_4 H9_4 1_555 1_555
C15_4 C14_4 1_555 1_555
H10_4 C15_4 1_555 1_555
C17_4 C16_4 1_555 1_555
H11_4 C17_4 1_555 1_555
C18_4 N3_2 1_555 1_555
H12_4 C18_4 1_555 1_555
C15_4 C16_4 1_555 1_555
C17_4 C18_4 1_555 1_555

#END
