
###############################################################################
#
# This file contains modified crystal structure data generated from the
# MOF subset of the Cambridge Structural Database (CSD) v543 
# hosted by the Cambridge Crystallographic Data Centre (CCDC).
#
# This work is licensed under the Creative Commons
# Attribution-NonCommercial-ShareAlike 4.0 International License.
# To view a copy of this license, visit
# http://creativecommons.org/licenses/by-nc-sa/4.0/
# or send a letter to
# Creative Commons, PO Box 1866, Mountain View, CA 94042, USA.
#
# CIF created using the CSD Python API on 29 September 2022
# The structure has been converted into the P1 space group
# The structure has a 3D framework
# The original CSD entry UXABUR is in the monoclinic crystal system
# The framework has been calculated to contain at least 10.0% void space
# The void calculation uses a probe of radius 1.32A, grid spacing 0.4
#
###############################################################################

data_UXABUR
_chemical_formula_moiety         '(C72 H96 O68 Y8)n'
_symmetry_cell_setting           triclinic
_symmetry_space_group_name_H-M   'P 1'
_symmetry_Int_Tables_number      1
_space_group_name_Hall           'P 1'
loop_
_symmetry_equiv_pos_site_id
_symmetry_equiv_pos_as_xyz
1 x,y,z
_cell_length_a                   37.970(9)
_cell_length_b                   11.298(2)
_cell_length_c                   6.726(2)
_cell_angle_alpha                90
_cell_angle_beta                 91.17(2)
_cell_angle_gamma                90
_cell_volume                     2884.75
loop_
_atom_site_label
_atom_site_type_symbol
_atom_site_fract_x
_atom_site_fract_y
_atom_site_fract_z
O12 O 0.67508(17) 0.2575(6) 0.0199(10)
O22 O 0.60456(17) 0.1535(6) 0.1353(9)
H23 H 0.5829(17) 0.201(8) 0.162(18)
H24 H 0.594(2) 0.074(4) 0.147(17)
H4 H 0.2849 0.0319 0.5111
H6 H 0.4677 0.0415 0.4065
Y3 Y 0.37139(2) 0.20966(6) 0.68224(11)
Y5 Y 0.62861(2) 0.20966(6) 0.81776(11)
C15 C 0.3333(2) 0.0542(7) 0.0289(11)
C16 C 0.5648(2) 0.1540(8) 0.6301(13)
C17 C 0.5308(2) 0.1242(8) 0.5372(13)
H17 H 0.5179 0.1838 0.4743
C18 C 0.5181(2) 0.0179(9) 0.5393(12)
O15 O 0.65117(15) 0.1496(5) 0.5178(8)
O16 O 0.34841(15) 0.0273(5) 0.6225(9)
O17 O 0.65159(15) 0.0273(5) 0.8775(9)
O18 O 0.58184(15) 0.0776(5) 0.7264(9)
O19 O 0.57668(17) 0.2577(6) 0.6186(12)
O20 O 0.6514(2) 0.3737(6) 0.6488(10)
O21 O 0.6056(2) 0.3804(6) 0.9698(12)
H19 H 0.5849(19) 0.325(8) 0.969(18)
H20 H 0.592(2) 0.442(7) 0.894(15)
H21 H 0.655(3) 0.456(4) 0.699(14)
H22 H 0.662(3) 0.370(9) 0.516(8)
Y6 Y 0.12861(2) 0.29034(6) 0.31776(11)
C10 C 0.1848(2) 0.1768(7) 0.6631(12)
C11 C 0.2223(2) 0.1889(8) 0.7242(13)
H13 H 0.2344 0.2558 0.6827
C12 C 0.2397(2) 0.1102(8) 0.8344(12)
H14 H 0.2276 0.0441 0.8789
C13 C 0.2768(2) 0.1226(8) 0.8891(13)
H15 H 0.2879 0.1936 0.8593
C14 C 0.2958(2) 0.0391(8) 0.9787(12)
O10 O 0.16553(17) 0.1051(5) 0.7479(10)
O13 O 0.17508(17) 0.2425(6) 0.5199(10)
O14 O 0.34883(15) 0.1496(5) 0.9822(8)
Y1 Y 0.37139(2) 0.79034(6) 0.18224(11)
C1 C 0.1848(2) 0.8232(7) 0.1631(12)
C2 C 0.2223(2) 0.8111(8) 0.2242(13)
H1 H 0.2344 0.7442 0.1827
C3 C 0.2397(2) 0.8898(8) 0.3344(12)
H2 H 0.2276 0.9559 0.3789
C4 C 0.2768(2) 0.8774(8) 0.3891(13)
H3 H 0.2879 0.8064 0.3593
C5 C 0.2958(2) 0.9609(8) 0.4787(12)
C6 C 0.3333(2) 0.9458(7) 0.5289(11)
C7 C 0.4352(2) 0.8460(8) 0.3699(13)
C8 C 0.4692(2) 0.8758(8) 0.4628(13)
H5 H 0.4821 0.8162 0.5257
C9 C 0.4819(2) 0.9821(9) 0.4607(12)
O1 O 0.16553(17) 0.8949(5) 0.2479(10)
O2 O 0.17508(17) 0.7575(6) 0.0199(10)
O3 O 0.34883(15) 0.8504(5) 0.4822(8)
O4 O 0.34841(15) 0.9727(5) 0.1225(9)
O5 O 0.41816(15) 0.9224(5) 0.2736(9)
O6 O 0.42332(17) 0.7423(6) 0.3814(12)
O7 O 0.3486(2) 0.6263(6) 0.3512(10)
O8 O 0.3944(2) 0.6196(6) 0.0302(12)
H7 H 0.4151(19) 0.675(8) 0.031(18)
H8 H 0.408(2) 0.558(7) 0.106(15)
H9 H 0.345(3) 0.544(4) 0.301(14)
H10 H 0.338(3) 0.630(9) 0.484(8)
H16 H 0.2849 0.9681 0.0111
H18 H 0.5323 0.9585 0.5935
O9 O 0.39544(17) 0.8465(6) 0.8647(9)
H11 H 0.4171(17) 0.799(8) 0.838(18)
H12 H 0.406(2) 0.926(4) 0.853(17)
Y2 Y 0.12861(2) 0.70966(6) 0.81776(11)
O11 O 0.32492(17) 0.7425(6) 0.9801(10)
Y6_2 Y 0.87139(2) 0.29034(6) 0.18224(11)
H6_2 H 0.5323 0.0415 0.0935
C10_2 C 0.8152(2) 0.1768(7) 0.8369(12)
C11_2 C 0.7777(2) 0.1889(8) 0.7758(13)
H13_2 H 0.7656 0.2558 0.8173
C12_2 C 0.7603(2) 0.1102(8) 0.6656(12)
H14_2 H 0.7724 0.0441 0.6211
C13_2 C 0.7232(2) 0.1226(8) 0.6109(13)
H15_2 H 0.7121 0.1936 0.6407
C14_2 C 0.7042(2) 0.0391(8) 0.5213(12)
C15_2 C 0.6667(2) 0.0542(7) 0.4711(11)
H17_2 H 0.4821 0.1838 0.0257
O10_2 O 0.83447(17) 0.1051(5) 0.7521(10)
O13_2 O 0.82492(17) 0.2425(6) 0.9801(10)
H4_2 H 0.7151 0.0319 0.9889
C16_2 C 0.4352(2) 0.1540(8) 0.8699(13)
C17_2 C 0.4692(2) 0.1242(8) 0.9628(13)
C18_2 C 0.4819(2) 0.0179(9) 0.9607(12)
O12_2 O 0.32492(17) 0.2575(6) 0.4801(10)
O18_2 O 0.41816(15) 0.0776(5) 0.7736(9)
O19_2 O 0.42332(17) 0.2577(6) 0.8814(12)
O20_2 O 0.3486(2) 0.3737(6) 0.8512(10)
O21_2 O 0.3944(2) 0.3804(6) 0.5302(12)
O22_2 O 0.39544(17) 0.1535(6) 0.3647(9)
H19_2 H 0.4151(19) 0.325(8) 0.531(18)
H20_2 H 0.408(2) 0.442(7) 0.606(15)
H21_2 H 0.345(3) 0.456(4) 0.801(14)
H22_2 H 0.338(3) 0.370(9) 0.984(8)
H23_2 H 0.4171(17) 0.201(8) 0.338(18)
H24_2 H 0.406(2) 0.074(4) 0.353(17)
Y1_2 Y 0.62861(2) 0.79034(6) 0.31776(11)
C1_2 C 0.8152(2) 0.8232(7) 0.3369(12)
C2_2 C 0.7777(2) 0.8111(8) 0.2758(13)
H1_2 H 0.7656 0.7442 0.3173
C3_2 C 0.7603(2) 0.8898(8) 0.1656(12)
H2_2 H 0.7724 0.9559 0.1211
C4_2 C 0.7232(2) 0.8774(8) 0.1109(13)
H3_2 H 0.7121 0.8064 0.1407
C5_2 C 0.7042(2) 0.9609(8) 0.0213(12)
C7_2 C 0.5648(2) 0.8460(8) 0.1301(13)
C8_2 C 0.5308(2) 0.8758(8) 0.0372(13)
C9_2 C 0.5181(2) 0.9821(9) 0.0393(12)
O1_2 O 0.83447(17) 0.8949(5) 0.2521(10)
O2_2 O 0.82492(17) 0.7575(6) 0.4801(10)
O3_2 O 0.65117(15) 0.8504(5) 0.0178(8)
O4_2 O 0.65159(15) 0.9727(5) 0.3775(9)
O5_2 O 0.58184(15) 0.9224(5) 0.2264(9)
O6_2 O 0.57668(17) 0.7423(6) 0.1186(12)
O7_2 O 0.6514(2) 0.6263(6) 0.1488(10)
O8_2 O 0.6056(2) 0.6196(6) 0.4698(12)
O9_2 O 0.60456(17) 0.8465(6) 0.6353(9)
H7_2 H 0.5849(19) 0.675(8) 0.469(18)
H8_2 H 0.592(2) 0.558(7) 0.394(15)
H9_2 H 0.655(3) 0.544(4) 0.199(14)
H10_2 H 0.662(3) 0.630(9) 0.016(8)
H11_2 H 0.5829(17) 0.799(8) 0.662(18)
H12_2 H 0.594(2) 0.926(4) 0.647(17)
Y2_2 Y 0.87139(2) 0.70966(6) 0.68224(11)
H16_2 H 0.7151 0.9681 0.4889
O11_2 O 0.67508(17) 0.7425(6) 0.5199(10)
C6_2 C 0.6667(2) 0.9458(7) 0.9711(11)
H5_2 H 0.5179 0.8162 0.9743
H18_2 H 0.4677 0.9585 0.9065
O22_3 O 0.10456(17) 0.6535(6) 0.1353(9)
H23_3 H 0.0829(17) 0.701(8) 0.162(18)
H24_3 H 0.094(2) 0.574(4) 0.147(17)
C16_3 C 0.0648(2) 0.6540(8) 0.6301(13)
C17_3 C 0.0308(2) 0.6242(8) 0.5372(13)
H17_3 H 0.0179 0.6838 0.4743
C18_3 C 0.0181(2) 0.5179(9) 0.5393(12)
H18_3 H 0.0323 0.4585 0.5935
O15_2 O 0.15117(15) 0.6496(5) 0.5178(8)
O17_2 O 0.15159(15) 0.5273(5) 0.8775(9)
O18_3 O 0.08184(15) 0.5776(5) 0.7264(9)
O19_3 O 0.07668(17) 0.7577(6) 0.6186(12)
O20_3 O 0.1514(2) 0.8737(6) 0.6488(10)
O21_3 O 0.1056(2) 0.8804(6) 0.9698(12)
H19_3 H 0.0849(19) 0.825(8) 0.969(18)
H20_3 H 0.092(2) 0.942(7) 0.894(15)
H21_3 H 0.155(3) 0.956(4) 0.699(14)
H22_3 H 0.162(3) 0.870(9) 0.516(8)
C1_3 C 0.6848(2) 0.3232(7) 0.1631(12)
C2_3 C 0.7223(2) 0.3111(8) 0.2242(13)
H1_3 H 0.7344 0.2442 0.1827
C3_3 C 0.7397(2) 0.3898(8) 0.3344(12)
H2_3 H 0.7276 0.4559 0.3789
C4_3 C 0.7768(2) 0.3774(8) 0.3891(13)
H3_3 H 0.7879 0.3064 0.3593
C5_3 C 0.7958(2) 0.4609(8) 0.4787(12)
H4_3 H 0.7849 0.5319 0.5111
C6_3 C 0.8333(2) 0.4458(7) 0.5289(11)
C7_3 C 0.9352(2) 0.3460(8) 0.3699(13)
C8_3 C 0.9692(2) 0.3758(8) 0.4628(13)
H5_3 H 0.9821 0.3162 0.5257
C9_3 C 0.9819(2) 0.4821(9) 0.4607(12)
H6_3 H 0.9677 0.5415 0.4065
O1_3 O 0.66553(17) 0.3949(5) 0.2479(10)
O3_3 O 0.84883(15) 0.3504(5) 0.4822(8)
O4_3 O 0.84841(15) 0.4727(5) 0.1225(9)
O5_3 O 0.91816(15) 0.4224(5) 0.2736(9)
O6_3 O 0.92332(17) 0.2423(6) 0.3814(12)
O7_3 O 0.8486(2) 0.1263(6) 0.3512(10)
O8_3 O 0.8944(2) 0.1196(6) 0.0302(12)
H7_3 H 0.9151(19) 0.175(8) 0.031(18)
H8_3 H 0.908(2) 0.058(7) 0.106(15)
H9_3 H 0.845(3) 0.044(4) 0.301(14)
H10_3 H 0.838(3) 0.130(9) 0.484(8)
H16_3 H 0.7849 0.4681 0.0111
C15_3 C 0.8333(2) 0.5542(7) 0.0289(11)
O16_2 O 0.84841(15) 0.5273(5) 0.6225(9)
O9_3 O 0.89544(17) 0.3465(6) 0.8647(9)
H11_3 H 0.9171(17) 0.299(8) 0.838(18)
H12_3 H 0.906(2) 0.426(4) 0.853(17)
C10_3 C 0.6848(2) 0.6768(7) 0.6631(12)
C11_3 C 0.7223(2) 0.6889(8) 0.7242(13)
H13_3 H 0.7344 0.7558 0.6827
C12_3 C 0.7397(2) 0.6102(8) 0.8344(12)
H14_3 H 0.7276 0.5441 0.8789
C13_3 C 0.7768(2) 0.6226(8) 0.8891(13)
H15_3 H 0.7879 0.6936 0.8593
C14_3 C 0.7958(2) 0.5391(8) 0.9787(12)
O10_3 O 0.66553(17) 0.6051(5) 0.7479(10)
O14_2 O 0.84883(15) 0.6496(5) 0.9822(8)
C1_4 C 0.3152(2) 0.3232(7) 0.3369(12)
C2_4 C 0.2777(2) 0.3111(8) 0.2758(13)
H1_4 H 0.2656 0.2442 0.3173
C3_4 C 0.2603(2) 0.3898(8) 0.1656(12)
H2_4 H 0.2724 0.4559 0.1211
C4_4 C 0.2232(2) 0.3774(8) 0.1109(13)
H3_4 H 0.2121 0.3064 0.1407
C5_4 C 0.2042(2) 0.4609(8) 0.0213(12)
C7_4 C 0.0648(2) 0.3460(8) 0.1301(13)
C8_4 C 0.0308(2) 0.3758(8) 0.0372(13)
C9_4 C 0.0181(2) 0.4821(9) 0.0393(12)
H6_4 H 0.0323 0.5415 0.0935
O1_4 O 0.33447(17) 0.3949(5) 0.2521(10)
O3_4 O 0.15117(15) 0.3504(5) 0.0178(8)
O4_4 O 0.15159(15) 0.4727(5) 0.3775(9)
O5_4 O 0.08184(15) 0.4224(5) 0.2264(9)
O6_4 O 0.07668(17) 0.2423(6) 0.1186(12)
O7_4 O 0.1514(2) 0.1263(6) 0.1488(10)
O8_4 O 0.1056(2) 0.1196(6) 0.4698(12)
O9_4 O 0.10456(17) 0.3465(6) 0.6353(9)
H7_4 H 0.0849(19) 0.175(8) 0.469(18)
H8_4 H 0.092(2) 0.058(7) 0.394(15)
H9_4 H 0.155(3) 0.044(4) 0.199(14)
H10_4 H 0.162(3) 0.130(9) 0.016(8)
H11_4 H 0.0829(17) 0.299(8) 0.662(18)
H12_4 H 0.094(2) 0.426(4) 0.647(17)
C10_4 C 0.3152(2) 0.6768(7) 0.8369(12)
C11_4 C 0.2777(2) 0.6889(8) 0.7758(13)
H13_4 H 0.2656 0.7558 0.8173
C12_4 C 0.2603(2) 0.6102(8) 0.6656(12)
H14_4 H 0.2724 0.5441 0.6211
C13_4 C 0.2232(2) 0.6226(8) 0.6109(13)
H15_4 H 0.2121 0.6936 0.6407
C14_4 C 0.2042(2) 0.5391(8) 0.5213(12)
H16_4 H 0.2151 0.4681 0.4889
C15_4 C 0.1667(2) 0.5542(7) 0.4711(11)
O10_4 O 0.33447(17) 0.6051(5) 0.7521(10)
H4_4 H 0.2151 0.5319 0.9889
C6_4 C 0.1667(2) 0.4458(7) 0.9711(11)
H5_4 H 0.0179 0.3162 0.9743
H17_4 H 0.9821 0.6838 0.0257
C16_4 C 0.9352(2) 0.6540(8) 0.8699(13)
C17_4 C 0.9692(2) 0.6242(8) 0.9628(13)
C18_4 C 0.9819(2) 0.5179(9) 0.9607(12)
H18_4 H 0.9677 0.4585 0.9065
O18_4 O 0.91816(15) 0.5776(5) 0.7736(9)
O19_4 O 0.92332(17) 0.7577(6) 0.8814(12)
O20_4 O 0.8486(2) 0.8737(6) 0.8512(10)
O21_4 O 0.8944(2) 0.8804(6) 0.5302(12)
O22_4 O 0.89544(17) 0.6535(6) 0.3647(9)
H19_4 H 0.9151(19) 0.825(8) 0.531(18)
H20_4 H 0.908(2) 0.942(7) 0.606(15)
H21_4 H 0.845(3) 0.956(4) 0.801(14)
H22_4 H 0.838(3) 0.870(9) 0.984(8)
H23_4 H 0.9171(17) 0.701(8) 0.338(18)
H24_4 H 0.906(2) 0.574(4) 0.353(17)
loop_
_geom_bond_atom_site_label_1
_geom_bond_atom_site_label_2
_geom_bond_site_symmetry_1
_geom_bond_site_symmetry_2
H23 O22 1_555 1_555
H24 O22 1_555 1_555
Y3 O16 1_555 1_555
C16 C17 1_555 1_555
C17 H17 1_555 1_555
O15 Y5 1_555 1_555
O17 Y5 1_555 1_555
O18 Y5 1_555 1_555
O19 Y5 1_555 1_555
O20 Y5 1_555 1_555
O21 Y5 1_555 1_555
H19 O21 1_555 1_555
H20 O21 1_555 1_555
H21 O20 1_555 1_555
H22 O20 1_555 1_555
C16 O18 1_555 1_555
C16 O19 1_555 1_555
C17 C18 1_555 1_555
Y3 O14 1_555 1_555
Y6 O13 1_555 1_555
C10 C11 1_555 1_555
C11 H13 1_555 1_555
C12 C11 1_555 1_555
H14 C12 1_555 1_555
C13 C12 1_555 1_555
H15 C13 1_555 1_555
C14 C13 1_555 1_555
O10 C10 1_555 1_555
O13 C10 1_555 1_555
Y1 O3 1_555 1_555
C1 C2 1_555 1_555
C2 H1 1_555 1_555
C3 C2 1_555 1_555
H2 C3 1_555 1_555
C4 C3 1_555 1_555
H3 C4 1_555 1_555
C5 C4 1_555 1_555
C6 C5 1_555 1_555
C7 C8 1_555 1_555
C8 H5 1_555 1_555
C9 C8 1_555 1_555
O1 C1 1_555 1_555
O2 C1 1_555 1_555
O3 C6 1_555 1_555
O4 Y1 1_555 1_555
O5 Y1 1_555 1_555
O6 Y1 1_555 1_555
O7 Y1 1_555 1_555
O8 Y1 1_555 1_555
H7 O8 1_555 1_555
H8 O8 1_555 1_555
H9 O7 1_555 1_555
H10 O7 1_555 1_555
C7 O5 1_555 1_555
C7 O6 1_555 1_555
H11 O9 1_555 1_555
H12 O9 1_555 1_555
C10_2 C11_2 1_555 1_555
C11_2 H13_2 1_555 1_555
C12_2 C11_2 1_555 1_555
H14_2 C12_2 1_555 1_555
C13_2 C12_2 1_555 1_555
H15_2 C13_2 1_555 1_555
C14_2 C13_2 1_555 1_555
O10_2 C10_2 1_555 1_555
O13_2 C10_2 1_555 1_555
O15 C15_2 1_555 1_555
C14_2 C15_2 1_555 1_555
Y3 O12_2 1_555 1_555
C16_2 C17_2 1_555 1_555
O18_2 Y3 1_555 1_555
O19_2 Y3 1_555 1_555
O20_2 Y3 1_555 1_555
O21_2 Y3 1_555 1_555
O22_2 Y3 1_555 1_555
H19_2 O21_2 1_555 1_555
H20_2 O21_2 1_555 1_555
H21_2 O20_2 1_555 1_555
H22_2 O20_2 1_555 1_555
H23_2 O22_2 1_555 1_555
H24_2 O22_2 1_555 1_555
C16_2 O18_2 1_555 1_555
C16_2 O19_2 1_555 1_555
C17_2 C18_2 1_555 1_555
Y1_2 O3_2 1_555 1_555
C1_2 C2_2 1_555 1_555
C2_2 H1_2 1_555 1_555
C3_2 C2_2 1_555 1_555
H2_2 C3_2 1_555 1_555
C4_2 C3_2 1_555 1_555
H3_2 C4_2 1_555 1_555
C5_2 C4_2 1_555 1_555
C7_2 C8_2 1_555 1_555
C9_2 C8_2 1_555 1_555
O1_2 C1_2 1_555 1_555
O2_2 C1_2 1_555 1_555
O4_2 Y1_2 1_555 1_555
O5_2 Y1_2 1_555 1_555
O6_2 Y1_2 1_555 1_555
O7_2 Y1_2 1_555 1_555
O8_2 Y1_2 1_555 1_555
O9_2 Y1_2 1_555 1_555
H7_2 O8_2 1_555 1_555
H8_2 O8_2 1_555 1_555
H9_2 O7_2 1_555 1_555
H10_2 O7_2 1_555 1_555
H11_2 O9_2 1_555 1_555
H12_2 O9_2 1_555 1_555
Y2_2 O2_2 1_555 1_555
O11_2 Y1_2 1_555 1_555
C7_2 O5_2 1_555 1_555
C7_2 O6_2 1_555 1_555
H23_3 O22_3 1_555 1_555
H24_3 O22_3 1_555 1_555
C16_3 C17_3 1_555 1_555
C17_3 H17_3 1_555 1_555
H18_3 C18_3 1_555 1_555
O15_2 Y2 1_555 1_555
O17_2 Y2 1_555 1_555
O18_3 Y2 1_555 1_555
O19_3 Y2 1_555 1_555
O20_3 Y2 1_555 1_555
O21_3 Y2 1_555 1_555
H19_3 O21_3 1_555 1_555
H20_3 O21_3 1_555 1_555
H21_3 O20_3 1_555 1_555
H22_3 O20_3 1_555 1_555
C16_3 O18_3 1_555 1_555
C16_3 O19_3 1_555 1_555
C17_3 C18_3 1_555 1_555
Y6_2 O3_3 1_555 1_555
C1_3 C2_3 1_555 1_555
C2_3 H1_3 1_555 1_555
C3_3 C2_3 1_555 1_555
H2_3 C3_3 1_555 1_555
C4_3 C3_3 1_555 1_555
H3_3 C4_3 1_555 1_555
C5_3 C4_3 1_555 1_555
H4_3 C5_3 1_555 1_555
C6_3 C5_3 1_555 1_555
C7_3 C8_3 1_555 1_555
C8_3 H5_3 1_555 1_555
C9_3 C8_3 1_555 1_555
H6_3 C9_3 1_555 1_555
O1_3 C1_3 1_555 1_555
O12 C1_3 1_555 1_555
O3_3 C6_3 1_555 1_555
O4_3 Y6_2 1_555 1_555
O5_3 Y6_2 1_555 1_555
O6_3 Y6_2 1_555 1_555
O7_3 Y6_2 1_555 1_555
O8_3 Y6_2 1_555 1_555
H7_3 O8_3 1_555 1_555
H8_3 O8_3 1_555 1_555
H9_3 O7_3 1_555 1_555
H10_3 O7_3 1_555 1_555
Y2_2 O16_2 1_555 1_555
C15_3 O4_3 1_555 1_555
O16_2 C6_3 1_555 1_555
C7_3 O5_3 1_555 1_555
C7_3 O6_3 1_555 1_555
H11_3 O9_3 1_555 1_555
H12_3 O9_3 1_555 1_555
Y2_2 O14_2 1_555 1_555
C10_3 C11_3 1_555 1_555
C11_3 H13_3 1_555 1_555
C12_3 C11_3 1_555 1_555
H14_3 C12_3 1_555 1_555
C13_3 C12_3 1_555 1_555
H15_3 C13_3 1_555 1_555
C14_3 C13_3 1_555 1_555
O10_3 C10_3 1_555 1_555
O11_2 C10_3 1_555 1_555
Y6 O3_4 1_555 1_555
C1_4 C2_4 1_555 1_555
C2_4 H1_4 1_555 1_555
C3_4 C2_4 1_555 1_555
H2_4 C3_4 1_555 1_555
C4_4 C3_4 1_555 1_555
H3_4 C4_4 1_555 1_555
C5_4 C4_4 1_555 1_555
C7_4 C8_4 1_555 1_555
C9_4 C8_4 1_555 1_555
H6_4 C9_4 1_555 1_555
O1_4 C1_4 1_555 1_555
O12_2 C1_4 1_555 1_555
O4_4 Y6 1_555 1_555
O5_4 Y6 1_555 1_555
O6_4 Y6 1_555 1_555
O7_4 Y6 1_555 1_555
O8_4 Y6 1_555 1_555
O9_4 Y6 1_555 1_555
H7_4 O8_4 1_555 1_555
H8_4 O8_4 1_555 1_555
H9_4 O7_4 1_555 1_555
H10_4 O7_4 1_555 1_555
H11_4 O9_4 1_555 1_555
H12_4 O9_4 1_555 1_555
C10_4 C11_4 1_555 1_555
C11_4 H13_4 1_555 1_555
C12_4 C11_4 1_555 1_555
H14_4 C12_4 1_555 1_555
C13_4 C12_4 1_555 1_555
H15_4 C13_4 1_555 1_555
C14_4 C13_4 1_555 1_555
H16_4 C14_4 1_555 1_555
C15_4 O4_4 1_555 1_555
O10_4 C10_4 1_555 1_555
O11 C10_4 1_555 1_555
O15_2 C15_4 1_555 1_555
C7_4 O5_4 1_555 1_555
C7_4 O6_4 1_555 1_555
C14_4 C15_4 1_555 1_555
O17_2 C6_4 1_555 1_555
C16_4 C17_4 1_555 1_555
H18_4 C18_4 1_555 1_555
O18_4 Y2_2 1_555 1_555
O19_4 Y2_2 1_555 1_555
O20_4 Y2_2 1_555 1_555
O21_4 Y2_2 1_555 1_555
O22_4 Y2_2 1_555 1_555
H19_4 O21_4 1_555 1_555
H20_4 O21_4 1_555 1_555
H21_4 O20_4 1_555 1_555
H22_4 O20_4 1_555 1_555
H23_4 O22_4 1_555 1_555
H24_4 O22_4 1_555 1_555
C16_4 O18_4 1_555 1_555
C16_4 O19_4 1_555 1_555
C17_4 C18_4 1_555 1_555

#END
