
###############################################################################
#
# This file contains modified crystal structure data generated from the
# MOF subset of the Cambridge Structural Database (CSD) v543 
# hosted by the Cambridge Crystallographic Data Centre (CCDC).
#
# This work is licensed under the Creative Commons
# Attribution-NonCommercial-ShareAlike 4.0 International License.
# To view a copy of this license, visit
# http://creativecommons.org/licenses/by-nc-sa/4.0/
# or send a letter to
# Creative Commons, PO Box 1866, Mountain View, CA 94042, USA.
#
# CIF created using the CSD Python API on 29 September 2022
# The structure has been converted into the P1 space group
# The structure has a 3D framework
# The original CSD entry UXABOL is in the monoclinic crystal system
# The framework has been calculated to contain at least 10.0% void space
# The void calculation uses a probe of radius 1.32A, grid spacing 0.4
#
###############################################################################

data_UXABOL
_chemical_formula_moiety         '(C72 H96 Er8 O68)n'
_symmetry_cell_setting           triclinic
_symmetry_space_group_name_H-M   'P 1'
_symmetry_Int_Tables_number      1
_space_group_name_Hall           'P 1'
loop_
_symmetry_equiv_pos_site_id
_symmetry_equiv_pos_as_xyz
1 x,y,z
_cell_length_a                   37.854(3)
_cell_length_b                   11.231(1)
_cell_length_c                   6.767(1)
_cell_angle_alpha                90
_cell_angle_beta                 90.96(1)
_cell_angle_gamma                90
_cell_volume                     2876.51
loop_
_atom_site_label
_atom_site_type_symbol
_atom_site_fract_x
_atom_site_fract_y
_atom_site_fract_z
O18 O 0.67562(13) 0.7599(5) 0.0092(8)
O22 O 0.60567(13) 0.6530(4) 0.1259(7)
H21 H 0.5873(18) 0.873(9) 0.065(10)
H23 H 0.621(2) 0.642(9) 0.247(8)
H24 H 0.5822(12) 0.689(8) 0.147(14)
Er1 Er 0.370476(7) 0.29073(2) 0.19016(4)
O1 O 0.41762(12) 0.4235(4) 0.2773(7)
O2 O 0.42235(14) 0.2426(5) 0.3864(10)
O3 O 0.34890(12) 0.3514(4) 0.4890(6)
O4 O 0.34650(14) 0.5281(4) 0.6298(7)
O5 O 0.17562(13) 0.2599(5) 0.0092(8)
O6 O 0.16508(13) 0.3947(4) 0.2428(7)
O7 O 0.34799(17) 0.1257(5) 0.3598(8)
O8 O 0.39413(19) 0.1199(5) 0.0388(9)
C1 C 0.43488(16) 0.3458(6) 0.3724(9)
C2 C 0.46932(17) 0.3753(7) 0.4651(10)
H1 H 0.4821 0.3153 0.5284
C3 C 0.48259(16) 0.4838(7) 0.4612(9)
H2 H 0.4688 0.5438 0.4051
C4 C 0.33242(17) 0.4444(6) 0.5377(9)
C5 C 0.2947(2) 0.4603(7) 0.4854(11)
H3 H 0.2836 0.5319 0.5149
C6 C 0.27595(19) 0.3726(9) 0.3953(10)
H4 H 0.2869 0.3000 0.3710
C7 C 0.23908(19) 0.3883(7) 0.3353(10)
H5 H 0.2269 0.4545 0.3804
C8 C 0.22238(19) 0.3112(7) 0.2183(12)
H6 H 0.2350 0.2460 0.1721
C9 C 0.18468(17) 0.3233(6) 0.1572(10)
H7 H 0.337(2) 0.048(5) 0.324(13)
H8 H 0.343(3) 0.146(8) 0.498(6)
H10 H 0.405(2) 0.053(6) 0.116(12)
Er2 Er 0.629524(7) 0.70927(2) 0.80984(4)
Er3 Er 0.370476(7) 0.70927(2) 0.69016(4)
O10 O 0.58238(12) 0.5765(4) 0.7227(7)
O11 O 0.57765(14) 0.7574(5) 0.6136(10)
O13 O 0.65110(12) 0.6486(4) 0.5110(6)
O14 O 0.34650(14) 0.4719(4) 0.1298(7)
O15 O 0.65350(14) 0.5281(4) 0.8702(7)
O20 O 0.65201(17) 0.8743(5) 0.6402(8)
O21 O 0.60587(19) 0.8801(5) 0.9612(9)
C10 C 0.56512(16) 0.6542(6) 0.6276(9)
C11 C 0.53068(17) 0.6247(7) 0.5349(10)
H13 H 0.5179 0.6847 0.4716
C12 C 0.51741(16) 0.5162(7) 0.5388(9)
H14 H 0.5312 0.4562 0.5949
C13 C 0.33242(17) 0.5556(6) 0.0377(9)
H15 H 0.2836 0.4681 0.0149
H19 H 0.663(2) 0.952(5) 0.676(13)
H20 H 0.657(3) 0.854(8) 0.502(6)
H22 H 0.595(2) 0.947(6) 0.884(12)
O9 O 0.39433(13) 0.3470(4) 0.8741(7)
H9 H 0.4127(18) 0.127(9) 0.935(10)
H11 H 0.379(2) 0.358(9) 0.753(8)
H12 H 0.4178(12) 0.311(8) 0.853(14)
Er4 Er 0.129524(7) 0.20927(2) 0.80984(4)
Er6 Er 0.129524(7) 0.79073(2) 0.30984(4)
O12 O 0.34890(12) 0.6486(4) 0.9890(6)
O16 O 0.17562(13) 0.7401(5) 0.5092(8)
O17 O 0.32438(13) 0.2401(5) 0.9908(8)
O19 O 0.16508(13) 0.6053(4) 0.7428(7)
C14 C 0.2947(2) 0.5397(7) 0.9854(11)
C15 C 0.27595(19) 0.6274(9) 0.8953(10)
H16 H 0.2869 0.7000 0.8710
C16 C 0.23908(19) 0.6117(7) 0.8353(10)
H17 H 0.2269 0.5455 0.8804
C17 C 0.22238(19) 0.6888(7) 0.7183(12)
H18 H 0.2350 0.7540 0.6721
C18 C 0.18468(17) 0.6767(6) 0.6572(10)
Er6_2 Er 0.870476(7) 0.79073(2) 0.19016(4)
Er1_2 Er 0.629524(7) 0.29073(2) 0.30984(4)
O1_2 O 0.58238(12) 0.4235(4) 0.2227(7)
O2_2 O 0.57765(14) 0.2426(5) 0.1136(10)
O3_2 O 0.65110(12) 0.3514(4) 0.0110(6)
O5_2 O 0.82438(13) 0.2599(5) 0.4908(8)
O6_2 O 0.83492(13) 0.3947(4) 0.2572(7)
O7_2 O 0.65201(17) 0.1257(5) 0.1402(8)
O8_2 O 0.60587(19) 0.1199(5) 0.4612(9)
O9_2 O 0.60567(13) 0.3470(4) 0.6259(7)
C1_2 C 0.56512(16) 0.3458(6) 0.1276(9)
C2_2 C 0.53068(17) 0.3753(7) 0.0349(10)
C3_2 C 0.51741(16) 0.4838(7) 0.0388(9)
H2_2 H 0.5312 0.5438 0.0949
C5_2 C 0.7053(2) 0.4603(7) 0.0146(11)
C6_2 C 0.72405(19) 0.3726(9) 0.1047(10)
H4_2 H 0.7131 0.3000 0.1290
C7_2 C 0.76092(19) 0.3883(7) 0.1647(10)
H5_2 H 0.7731 0.4545 0.1196
C8_2 C 0.77762(19) 0.3112(7) 0.2817(12)
H6_2 H 0.7650 0.2460 0.3279
C9_2 C 0.81532(17) 0.3233(6) 0.3428(10)
H7_2 H 0.663(2) 0.048(5) 0.176(13)
H8_2 H 0.657(3) 0.146(8) 0.002(6)
H9_2 H 0.5873(18) 0.127(9) 0.565(10)
H10_2 H 0.595(2) 0.053(6) 0.384(12)
H11_2 H 0.621(2) 0.358(9) 0.747(8)
H12_2 H 0.5822(12) 0.311(8) 0.647(14)
Er4_2 Er 0.870476(7) 0.20927(2) 0.69016(4)
O14_2 O 0.65350(14) 0.4719(4) 0.3702(7)
O16_2 O 0.82438(13) 0.7401(5) 0.9908(8)
O17_2 O 0.67562(13) 0.2401(5) 0.5092(8)
O19_2 O 0.83492(13) 0.6053(4) 0.7572(7)
H13_2 H 0.4821 0.6847 0.0284
C13_2 C 0.66758(17) 0.5556(6) 0.4623(9)
C14_2 C 0.7053(2) 0.5397(7) 0.5146(11)
H15_2 H 0.7164 0.4681 0.4851
C15_2 C 0.72405(19) 0.6274(9) 0.6047(10)
H16_2 H 0.7131 0.7000 0.6290
C16_2 C 0.76092(19) 0.6117(7) 0.6647(10)
H17_2 H 0.7731 0.5455 0.6196
C17_2 C 0.77762(19) 0.6888(7) 0.7817(12)
H18_2 H 0.7650 0.7540 0.8279
C18_2 C 0.81532(17) 0.6767(6) 0.8428(10)
H1_2 H 0.5179 0.3153 0.9716
C4_2 C 0.66758(17) 0.4444(6) 0.9623(9)
H3_2 H 0.7164 0.5319 0.9851
O10_2 O 0.41762(12) 0.5765(4) 0.7773(7)
O11_2 O 0.42235(14) 0.7574(5) 0.8864(10)
O18_2 O 0.32438(13) 0.7599(5) 0.4908(8)
O20_2 O 0.34799(17) 0.8743(5) 0.8598(8)
O21_2 O 0.39413(19) 0.8801(5) 0.5388(9)
O22_2 O 0.39433(13) 0.6530(4) 0.3741(7)
C10_2 C 0.43488(16) 0.6542(6) 0.8724(9)
C11_2 C 0.46932(17) 0.6247(7) 0.9651(10)
C12_2 C 0.48259(16) 0.5162(7) 0.9612(9)
H14_2 H 0.4688 0.4562 0.9051
H19_2 H 0.337(2) 0.952(5) 0.824(13)
H20_2 H 0.343(3) 0.854(8) 0.998(6)
H21_2 H 0.4127(18) 0.873(9) 0.435(10)
H22_2 H 0.405(2) 0.947(6) 0.616(12)
H23_2 H 0.379(2) 0.642(9) 0.253(8)
H24_2 H 0.4178(12) 0.689(8) 0.353(14)
O22_3 O 0.10567(13) 0.1530(4) 0.1259(7)
H21_3 H 0.0873(18) 0.373(9) 0.065(10)
H23_3 H 0.121(2) 0.142(9) 0.247(8)
H24_3 H 0.0822(12) 0.189(8) 0.147(14)
O10_3 O 0.08238(12) 0.0765(4) 0.7227(7)
O11_3 O 0.07765(14) 0.2574(5) 0.6136(10)
O13_2 O 0.15110(12) 0.1486(4) 0.5110(6)
O15_2 O 0.15350(14) 0.0281(4) 0.8702(7)
O20_3 O 0.15201(17) 0.3743(5) 0.6402(8)
O21_3 O 0.10587(19) 0.3801(5) 0.9612(9)
C10_3 C 0.06512(16) 0.1542(6) 0.6276(9)
C11_3 C 0.03068(17) 0.1247(7) 0.5349(10)
H13_3 H 0.0179 0.1847 0.4716
C12_3 C 0.01741(16) 0.0162(7) 0.5388(9)
H19_3 H 0.163(2) 0.452(5) 0.676(13)
H20_3 H 0.157(3) 0.354(8) 0.502(6)
H22_3 H 0.095(2) 0.447(6) 0.884(12)
H14_3 H 0.0312 0.9562 0.5949
O4_2 O 0.84650(14) 0.0281(4) 0.6298(7)
H2_3 H 0.9688 0.0438 0.4051
H3_3 H 0.7836 0.0319 0.5149
C13_3 C 0.83242(17) 0.0556(6) 0.0377(9)
O12_2 O 0.84890(12) 0.1486(4) 0.9890(6)
O19_3 O 0.66508(13) 0.1053(4) 0.7428(7)
C14_3 C 0.7947(2) 0.0397(7) 0.9854(11)
C15_3 C 0.77595(19) 0.1274(9) 0.8953(10)
H16_3 H 0.7869 0.2000 0.8710
C16_3 C 0.73908(19) 0.1117(7) 0.8353(10)
H17_3 H 0.7269 0.0455 0.8804
C17_3 C 0.72238(19) 0.1888(7) 0.7183(12)
H18_3 H 0.7350 0.2540 0.6721
C18_3 C 0.68468(17) 0.1767(6) 0.6572(10)
O1_3 O 0.91762(12) 0.9235(4) 0.2773(7)
O2_3 O 0.92235(14) 0.7426(5) 0.3864(10)
O3_3 O 0.84890(12) 0.8514(4) 0.4890(6)
O6_3 O 0.66508(13) 0.8947(4) 0.2428(7)
O7_3 O 0.84799(17) 0.6257(5) 0.3598(8)
O8_3 O 0.89413(19) 0.6199(5) 0.0388(9)
C1_3 C 0.93488(16) 0.8458(6) 0.3724(9)
C2_3 C 0.96932(17) 0.8753(7) 0.4651(10)
H1_3 H 0.9821 0.8153 0.5284
C3_3 C 0.98259(16) 0.9838(7) 0.4612(9)
C4_3 C 0.83242(17) 0.9444(6) 0.5377(9)
C5_3 C 0.7947(2) 0.9603(7) 0.4854(11)
C6_3 C 0.77595(19) 0.8726(9) 0.3953(10)
H4_3 H 0.7869 0.8000 0.3710
C7_3 C 0.73908(19) 0.8883(7) 0.3353(10)
H5_3 H 0.7269 0.9545 0.3804
C8_3 C 0.72238(19) 0.8112(7) 0.2183(12)
H6_3 H 0.7350 0.7460 0.1721
C9_3 C 0.68468(17) 0.8233(6) 0.1572(10)
H7_3 H 0.837(2) 0.548(5) 0.324(13)
H8_3 H 0.843(3) 0.646(8) 0.498(6)
H10_3 H 0.905(2) 0.553(6) 0.116(12)
O14_3 O 0.84650(14) 0.9719(4) 0.1298(7)
H15_3 H 0.7836 0.9681 0.0149
O9_3 O 0.89433(13) 0.8470(4) 0.8741(7)
H9_3 H 0.9127(18) 0.627(9) 0.935(10)
H11_3 H 0.879(2) 0.858(9) 0.753(8)
H12_3 H 0.9178(12) 0.811(8) 0.853(14)
H2_4 H 0.0312 0.0438 0.0949
O19_4 O 0.33492(13) 0.1053(4) 0.7572(7)
C13_4 C 0.16758(17) 0.0556(6) 0.4623(9)
C14_4 C 0.2053(2) 0.0397(7) 0.5146(11)
C15_4 C 0.22405(19) 0.1274(9) 0.6047(10)
H16_4 H 0.2131 0.2000 0.6290
C16_4 C 0.26092(19) 0.1117(7) 0.6647(10)
H17_4 H 0.2731 0.0455 0.6196
C17_4 C 0.27762(19) 0.1888(7) 0.7817(12)
H18_4 H 0.2650 0.2540 0.8279
C18_4 C 0.31532(17) 0.1767(6) 0.8428(10)
H3_4 H 0.2164 0.0319 0.9851
O1_4 O 0.08238(12) 0.9235(4) 0.2227(7)
O2_4 O 0.07765(14) 0.7426(5) 0.1136(10)
O3_4 O 0.15110(12) 0.8514(4) 0.0110(6)
O6_4 O 0.33492(13) 0.8947(4) 0.2572(7)
O7_4 O 0.15201(17) 0.6257(5) 0.1402(8)
O8_4 O 0.10587(19) 0.6199(5) 0.4612(9)
O9_4 O 0.10567(13) 0.8470(4) 0.6259(7)
C1_4 C 0.06512(16) 0.8458(6) 0.1276(9)
C2_4 C 0.03068(17) 0.8753(7) 0.0349(10)
C3_4 C 0.01741(16) 0.9838(7) 0.0388(9)
C5_4 C 0.2053(2) 0.9603(7) 0.0146(11)
C6_4 C 0.22405(19) 0.8726(9) 0.1047(10)
H4_4 H 0.2131 0.8000 0.1290
C7_4 C 0.26092(19) 0.8883(7) 0.1647(10)
H5_4 H 0.2731 0.9545 0.1196
C8_4 C 0.27762(19) 0.8112(7) 0.2817(12)
H6_4 H 0.2650 0.7460 0.3279
C9_4 C 0.31532(17) 0.8233(6) 0.3428(10)
H7_4 H 0.163(2) 0.548(5) 0.176(13)
H8_4 H 0.157(3) 0.646(8) 0.002(6)
H9_4 H 0.0873(18) 0.627(9) 0.565(10)
H10_4 H 0.095(2) 0.553(6) 0.384(12)
H11_4 H 0.121(2) 0.858(9) 0.747(8)
H12_4 H 0.0822(12) 0.811(8) 0.647(14)
O14_4 O 0.15350(14) 0.9719(4) 0.3702(7)
H15_4 H 0.2164 0.9681 0.4851
H1_4 H 0.0179 0.8153 0.9716
C4_4 C 0.16758(17) 0.9444(6) 0.9623(9)
H13_4 H 0.9821 0.1847 0.0284
O10_4 O 0.91762(12) 0.0765(4) 0.7773(7)
O11_4 O 0.92235(14) 0.2574(5) 0.8864(10)
O20_4 O 0.84799(17) 0.3743(5) 0.8598(8)
O21_4 O 0.89413(19) 0.3801(5) 0.5388(9)
O22_4 O 0.89433(13) 0.1530(4) 0.3741(7)
C10_4 C 0.93488(16) 0.1542(6) 0.8724(9)
C11_4 C 0.96932(17) 0.1247(7) 0.9651(10)
C12_4 C 0.98259(16) 0.0162(7) 0.9612(9)
H19_4 H 0.837(2) 0.452(5) 0.824(13)
H20_4 H 0.843(3) 0.354(8) 0.998(6)
H21_4 H 0.9127(18) 0.373(9) 0.435(10)
H22_4 H 0.905(2) 0.447(6) 0.616(12)
H23_4 H 0.879(2) 0.142(9) 0.253(8)
H24_4 H 0.9178(12) 0.189(8) 0.353(14)
H14_4 H 0.9688 0.9562 0.9051
loop_
_geom_bond_atom_site_label_1
_geom_bond_atom_site_label_2
_geom_bond_site_symmetry_1
_geom_bond_site_symmetry_2
H23 O22 1_555 1_555
H24 O22 1_555 1_555
Er1 O1 1_555 1_555
O1 C1 1_555 1_555
O2 Er1 1_555 1_555
O3 Er1 1_555 1_555
O4 C4 1_555 1_555
O5 C9 1_555 1_555
O6 C9 1_555 1_555
O7 Er1 1_555 1_555
O8 Er1 1_555 1_555
C1 O2 1_555 1_555
C2 C1 1_555 1_555
H1 C2 1_555 1_555
C3 C2 1_555 1_555
H2 C3 1_555 1_555
C4 O3 1_555 1_555
C5 C4 1_555 1_555
H3 C5 1_555 1_555
C6 C5 1_555 1_555
H4 C6 1_555 1_555
C7 C6 1_555 1_555
H5 C7 1_555 1_555
C8 C7 1_555 1_555
H6 C8 1_555 1_555
C9 C8 1_555 1_555
H7 O7 1_555 1_555
H8 O7 1_555 1_555
H10 O8 1_555 1_555
Er2 O10 1_555 1_555
Er3 O4 1_555 1_555
O10 C10 1_555 1_555
O11 Er2 1_555 1_555
O13 Er2 1_555 1_555
O14 Er1 1_555 1_555
O15 Er2 1_555 1_555
O20 Er2 1_555 1_555
O21 Er2 1_555 1_555
C10 O11 1_555 1_555
C11 C10 1_555 1_555
H13 C11 1_555 1_555
C12 C3 1_555 1_555
H14 C12 1_555 1_555
C13 O14 1_555 1_555
H19 O20 1_555 1_555
H20 O20 1_555 1_555
H22 O21 1_555 1_555
C11 C12 1_555 1_555
H11 O9 1_555 1_555
H12 O9 1_555 1_555
Er3 O12 1_555 1_555
Er6 O16 1_555 1_555
O16 C18 1_555 1_555
O19 C18 1_555 1_555
C15 C14 1_555 1_555
H16 C15 1_555 1_555
C16 C15 1_555 1_555
H17 C16 1_555 1_555
C17 C16 1_555 1_555
H18 C17 1_555 1_555
C18 C17 1_555 1_555
Er1_2 O1_2 1_555 1_555
O1_2 C1_2 1_555 1_555
O2_2 Er1_2 1_555 1_555
O3_2 Er1_2 1_555 1_555
O5_2 C9_2 1_555 1_555
O6_2 C9_2 1_555 1_555
O7_2 Er1_2 1_555 1_555
O8_2 Er1_2 1_555 1_555
O9_2 Er1_2 1_555 1_555
C1_2 O2_2 1_555 1_555
C2_2 C1_2 1_555 1_555
C3_2 C2_2 1_555 1_555
H2_2 C3_2 1_555 1_555
C6_2 C5_2 1_555 1_555
H4_2 C6_2 1_555 1_555
C7_2 C6_2 1_555 1_555
H5_2 C7_2 1_555 1_555
C8_2 C7_2 1_555 1_555
H6_2 C8_2 1_555 1_555
C9_2 C8_2 1_555 1_555
H7_2 O7_2 1_555 1_555
H8_2 O7_2 1_555 1_555
H9_2 O8_2 1_555 1_555
H10_2 O8_2 1_555 1_555
H11_2 O9_2 1_555 1_555
H12_2 O9_2 1_555 1_555
Er4_2 O5_2 1_555 1_555
O13 C13_2 1_555 1_555
O14_2 Er1_2 1_555 1_555
O16_2 C18_2 1_555 1_555
O17_2 Er1_2 1_555 1_555
O19_2 C18_2 1_555 1_555
C13_2 O14_2 1_555 1_555
C14_2 C13_2 1_555 1_555
H15_2 C14_2 1_555 1_555
C15_2 C14_2 1_555 1_555
H16_2 C15_2 1_555 1_555
C16_2 C15_2 1_555 1_555
H17_2 C16_2 1_555 1_555
C17_2 C16_2 1_555 1_555
H18_2 C17_2 1_555 1_555
C18_2 C17_2 1_555 1_555
O15 C4_2 1_555 1_555
Er3 O10_2 1_555 1_555
O10_2 C10_2 1_555 1_555
O11_2 Er3 1_555 1_555
O18_2 Er3 1_555 1_555
O20_2 Er3 1_555 1_555
O21_2 Er3 1_555 1_555
O22_2 Er3 1_555 1_555
C10_2 O11_2 1_555 1_555
C11_2 C10_2 1_555 1_555
H14_2 C12_2 1_555 1_555
H19_2 O20_2 1_555 1_555
H20_2 O20_2 1_555 1_555
H21_2 O21_2 1_555 1_555
H22_2 O21_2 1_555 1_555
H23_2 O22_2 1_555 1_555
H24_2 O22_2 1_555 1_555
C11_2 C12_2 1_555 1_555
H23_3 O22_3 1_555 1_555
H24_3 O22_3 1_555 1_555
Er4 O10_3 1_555 1_555
O10_3 C10_3 1_555 1_555
O11_3 Er4 1_555 1_555
O13_2 Er4 1_555 1_555
O15_2 Er4 1_555 1_555
O20_3 Er4 1_555 1_555
O21_3 Er4 1_555 1_555
C10_3 O11_3 1_555 1_555
C11_3 C10_3 1_555 1_555
H13_3 C11_3 1_555 1_555
H19_3 O20_3 1_555 1_555
H20_3 O20_3 1_555 1_555
H22_3 O21_3 1_555 1_555
C11_3 C12_3 1_555 1_555
Er4_2 O4_2 1_555 1_555
Er4_2 O12_2 1_555 1_555
O17_2 C18_3 1_555 1_555
O19_3 C18_3 1_555 1_555
C15_3 C14_3 1_555 1_555
H16_3 C15_3 1_555 1_555
C16_3 C15_3 1_555 1_555
H17_3 C16_3 1_555 1_555
C17_3 C16_3 1_555 1_555
H18_3 C17_3 1_555 1_555
C18_3 C17_3 1_555 1_555
Er6_2 O1_3 1_555 1_555
O1_3 C1_3 1_555 1_555
O2_3 Er6_2 1_555 1_555
O3_3 Er6_2 1_555 1_555
O18 C9_3 1_555 1_555
O6_3 C9_3 1_555 1_555
O7_3 Er6_2 1_555 1_555
O8_3 Er6_2 1_555 1_555
C1_3 O2_3 1_555 1_555
C2_3 C1_3 1_555 1_555
H1_3 C2_3 1_555 1_555
C3_3 C2_3 1_555 1_555
C4_3 O3_3 1_555 1_555
C5_3 C4_3 1_555 1_555
C6_3 C5_3 1_555 1_555
H4_3 C6_3 1_555 1_555
C7_3 C6_3 1_555 1_555
H5_3 C7_3 1_555 1_555
C8_3 C7_3 1_555 1_555
H6_3 C8_3 1_555 1_555
C9_3 C8_3 1_555 1_555
H7_3 O7_3 1_555 1_555
H8_3 O7_3 1_555 1_555
H10_3 O8_3 1_555 1_555
O14_3 Er6_2 1_555 1_555
H11_3 O9_3 1_555 1_555
H12_3 O9_3 1_555 1_555
O13_2 C13_4 1_555 1_555
O17 C18_4 1_555 1_555
O19_4 C18_4 1_555 1_555
C14_4 C13_4 1_555 1_555
C15_4 C14_4 1_555 1_555
H16_4 C15_4 1_555 1_555
C16_4 C15_4 1_555 1_555
H17_4 C16_4 1_555 1_555
C17_4 C16_4 1_555 1_555
H18_4 C17_4 1_555 1_555
C18_4 C17_4 1_555 1_555
Er6 O1_4 1_555 1_555
O1_4 C1_4 1_555 1_555
O2_4 Er6 1_555 1_555
O3_4 Er6 1_555 1_555
O18_2 C9_4 1_555 1_555
O6_4 C9_4 1_555 1_555
O7_4 Er6 1_555 1_555
O8_4 Er6 1_555 1_555
O9_4 Er6 1_555 1_555
C1_4 O2_4 1_555 1_555
C2_4 C1_4 1_555 1_555
C3_4 C2_4 1_555 1_555
C6_4 C5_4 1_555 1_555
H4_4 C6_4 1_555 1_555
C7_4 C6_4 1_555 1_555
H5_4 C7_4 1_555 1_555
C8_4 C7_4 1_555 1_555
H6_4 C8_4 1_555 1_555
C9_4 C8_4 1_555 1_555
H7_4 O7_4 1_555 1_555
H8_4 O7_4 1_555 1_555
H9_4 O8_4 1_555 1_555
H10_4 O8_4 1_555 1_555
H11_4 O9_4 1_555 1_555
H12_4 O9_4 1_555 1_555
O14_4 Er6 1_555 1_555
Er4_2 O10_4 1_555 1_555
O10_4 C10_4 1_555 1_555
O11_4 Er4_2 1_555 1_555
O20_4 Er4_2 1_555 1_555
O21_4 Er4_2 1_555 1_555
O22_4 Er4_2 1_555 1_555
C10_4 O11_4 1_555 1_555
C11_4 C10_4 1_555 1_555
H19_4 O20_4 1_555 1_555
H20_4 O20_4 1_555 1_555
H21_4 O21_4 1_555 1_555
H22_4 O21_4 1_555 1_555
H23_4 O22_4 1_555 1_555
H24_4 O22_4 1_555 1_555
C11_4 C12_4 1_555 1_555

#END
