
###############################################################################
#
# This file contains modified crystal structure data generated from the
# MOF subset of the Cambridge Structural Database (CSD) v543 
# hosted by the Cambridge Crystallographic Data Centre (CCDC).
#
# This work is licensed under the Creative Commons
# Attribution-NonCommercial-ShareAlike 4.0 International License.
# To view a copy of this license, visit
# http://creativecommons.org/licenses/by-nc-sa/4.0/
# or send a letter to
# Creative Commons, PO Box 1866, Mountain View, CA 94042, USA.
#
# CIF created using the CSD Python API on 29 September 2022
# The structure has been converted into the P1 space group
# The structure has a 3D framework
# The original CSD entry UXAXEZ is in the monoclinic crystal system
# The framework has been calculated to contain at least 10.0% void space
# The void calculation uses a probe of radius 1.32A, grid spacing 0.4
# The framework is charged, counterions have been retained in the structure
#
###############################################################################

data_UXAXEZ
_chemical_formula_moiety         '(C48 H14 Cu8 N76 2+)n'
_symmetry_cell_setting           triclinic
_symmetry_space_group_name_H-M   'P 1'
_symmetry_Int_Tables_number      1
_space_group_name_Hall           'P 1'
loop_
_symmetry_equiv_pos_site_id
_symmetry_equiv_pos_as_xyz
1 x,y,z
_cell_length_a                   24.742(2)
_cell_length_b                   8.6248(7)
_cell_length_c                   17.4734(14)
_cell_angle_alpha                90
_cell_angle_beta                 120.450(3)
_cell_angle_gamma                90
_cell_volume                     3214.44
loop_
_atom_site_label
_atom_site_type_symbol
_atom_site_fract_x
_atom_site_fract_y
_atom_site_fract_z
Cu2 Cu 0.04703(3) 0.31608(7) 0.04995(4)
Cu3 Cu 0.04160(3) 0.11487(7) 0.35821(4)
N20 N 0.07905(16) 0.5200(5) 0.0257(3)
N22 N 0.04378(16) 0.3685(5) 0.4730(3)
N23 N 0.07879(16) 0.2825(5) 0.4507(3)
N24 N 0.08443(16) 0.2163(5) 0.2998(3)
N25 N 0.05105(17) 0.2343(5) 0.2111(3)
N26 N 0.08746(18) 0.2943(5) 0.1852(3)
N27 N 0.0467(2) 0.1482(7) 0.9796(3)
N10 N -0.000000 0.9855(6) 0.250000
H1 H -0.000002 0.885821 0.250000
N19 N 0.0467(2) 0.8518(7) 0.4796(3)
C12 C 0.0443(2) 0.9527(6) 0.4351(3)
Cu10 Cu 0.04703(3) 0.68392(7) 0.54995(4)
Cu1 Cu 0.95840(3) 0.11487(7) 0.14179(4)
N3 N 0.95622(16) 0.3685(5) 0.0270(3)
N4 N 0.92121(16) 0.2825(5) 0.0493(3)
N5 N 0.91557(16) 0.2163(5) 0.2002(3)
N6 N 0.94895(17) 0.2343(5) 0.2889(3)
N7 N 0.91254(18) 0.2943(5) 0.3148(3)
N8 N 0.85522(17) 0.3153(5) 0.2451(3)
C1 C 0.7470(2) 0.2192(6) 0.0749(3)
H2 H 0.744836 0.198515 0.125484
C2 C 0.80427(18) 0.2605(6) 0.0843(3)
C3 C 0.80754(18) 0.2923(6) 0.0083(3)
C4 C 0.86419(19) 0.3454(6) 0.0081(3)
C5 C 0.85799(19) 0.2676(6) 0.1749(3)
N11 N 0.63694(17) 0.0315(5) 0.0391(3)
N12 N 0.57905(16) 0.0200(5) 0.0257(3)
Cu4 Cu 0.95297(3) 0.31608(7) 0.45005(4)
N21 N 0.92095(16) 0.5200(5) 0.4743(3)
N28 N 0.9533(2) 0.1482(7) 0.5204(3)
N1 N 0.86306(17) 0.4685(5) 0.9609(3)
N2 N 0.92095(16) 0.4800(5) 0.9743(3)
N13 N 0.54378(16) 0.1315(5) 0.9730(3)
N14 N 0.57879(16) 0.2175(5) 0.9507(3)
N15 N 0.58443(16) 0.2837(5) 0.7998(3)
N16 N 0.55105(17) 0.2657(5) 0.7111(3)
N17 N 0.58746(18) 0.2057(5) 0.6852(3)
N18 N 0.64478(17) 0.1847(5) 0.7549(3)
C7 C 0.7530(2) 0.2808(6) 0.9251(3)
H3 H 0.755164 0.301485 0.874516
C8 C 0.69573(18) 0.2395(6) 0.9157(3)
C9 C 0.69246(18) 0.2077(6) 0.9917(3)
C10 C 0.63581(19) 0.1546(6) 0.9919(3)
C11 C 0.64201(19) 0.2324(6) 0.8251(3)
Cu5 Cu 0.54160(3) 0.38513(7) 0.85821(4)
Cu6 Cu 0.45840(3) 0.38513(7) 0.64179(4)
Cu9 Cu 0.95297(3) 0.68392(7) 0.95005(4)
Cu11 Cu 0.45297(3) 0.18392(7) 0.95005(4)
Cu12 Cu 0.54703(3) 0.18392(7) 0.54995(4)
N9 N 0.9533(2) 0.8518(7) 0.0204(3)
N10_2 N 1.000000 0.9855(6) 0.250000
H1_2 H 0.999998 0.885821 0.250000
C6 C 0.9557(2) 0.9527(6) 0.0649(3)
Cu7 Cu 0.54703(3) 0.81608(7) 0.04995(4)
N1_2 N 0.13694(17) 0.4685(5) 0.5391(3)
N2_2 N 0.07905(16) 0.4800(5) 0.5257(3)
N8_2 N 0.14478(17) 0.3153(5) 0.2549(3)
C1_2 C 0.2530(2) 0.2192(6) 0.4251(3)
H2_2 H 0.255164 0.198515 0.374516
C2_2 C 0.19573(18) 0.2605(6) 0.4157(3)
C3_2 C 0.19246(18) 0.2923(6) 0.4917(3)
C4_2 C 0.13581(19) 0.3454(6) 0.4919(3)
C5_2 C 0.14201(19) 0.2676(6) 0.3251(3)
N11_2 N 0.36306(17) 0.0315(5) 0.4609(3)
N12_2 N 0.42095(16) 0.0200(5) 0.4743(3)
N13_2 N 0.45622(16) 0.1315(5) 0.5270(3)
N14_2 N 0.42121(16) 0.2175(5) 0.5493(3)
N15_2 N 0.41557(16) 0.2837(5) 0.7002(3)
N16_2 N 0.44895(17) 0.2657(5) 0.7889(3)
N17_2 N 0.41254(18) 0.2057(5) 0.8148(3)
N18_2 N 0.35522(17) 0.1847(5) 0.7451(3)
C7_2 C 0.2470(2) 0.2808(6) 0.5749(3)
H3_2 H 0.244836 0.301485 0.625484
C8_2 C 0.30427(18) 0.2395(6) 0.5843(3)
C9_2 C 0.30754(18) 0.2077(6) 0.5083(3)
C10_2 C 0.36419(19) 0.1546(6) 0.5081(3)
C11_2 C 0.35799(19) 0.2324(6) 0.6749(3)
Cu7_2 Cu 0.45297(3) 0.81608(7) 0.45005(4)
Cu1_2 Cu 0.45840(3) 0.61487(7) 0.14179(4)
N3_2 N 0.45622(16) 0.8685(5) 0.0270(3)
N4_2 N 0.42121(16) 0.7825(5) 0.0493(3)
N5_2 N 0.41557(16) 0.7163(5) 0.2002(3)
N6_2 N 0.44895(17) 0.7343(5) 0.2889(3)
N7_2 N 0.41254(18) 0.7943(5) 0.3148(3)
N8_3 N 0.35522(17) 0.8153(5) 0.2451(3)
N9_2 N 0.4533(2) 0.3518(7) 0.0204(3)
N10_3 N 0.500000 0.4855(6) 0.250000
H1_3 H 0.499998 0.385821 0.250000
C1_3 C 0.2470(2) 0.7192(6) 0.0749(3)
H2_3 H 0.244836 0.698515 0.125484
C2_3 C 0.30427(18) 0.7605(6) 0.0843(3)
C3_3 C 0.30754(18) 0.7923(6) 0.0083(3)
C4_3 C 0.36419(19) 0.8454(6) 0.0081(3)
C5_3 C 0.35799(19) 0.7676(6) 0.1749(3)
C6_2 C 0.4557(2) 0.4527(6) 0.0649(3)
N11_3 N 0.13694(17) 0.5315(5) 0.0391(3)
Cu3_2 Cu 0.54160(3) 0.61487(7) 0.35821(4)
N19_2 N 0.5467(2) 0.3518(7) 0.4796(3)
C12_2 C 0.5443(2) 0.4527(6) 0.4351(3)
N22_2 N 0.54378(16) 0.8685(5) 0.4730(3)
N23_2 N 0.57879(16) 0.7825(5) 0.4507(3)
N24_2 N 0.58443(16) 0.7163(5) 0.2998(3)
N25_2 N 0.55105(17) 0.7343(5) 0.2111(3)
N26_2 N 0.58746(18) 0.7943(5) 0.1852(3)
N28_2 N 0.4533(2) 0.6482(7) 0.5204(3)
N1_3 N 0.36306(17) 0.9685(5) 0.9609(3)
N2_3 N 0.42095(16) 0.9800(5) 0.9743(3)
N13_3 N 0.04378(16) 0.6315(5) 0.9730(3)
N14_3 N 0.07879(16) 0.7175(5) 0.9507(3)
N15_3 N 0.08443(16) 0.7837(5) 0.7998(3)
N16_3 N 0.05105(17) 0.7657(5) 0.7111(3)
N17_3 N 0.08746(18) 0.7057(5) 0.6852(3)
N18_3 N 0.14478(17) 0.6847(5) 0.7549(3)
C7_3 C 0.2530(2) 0.7808(6) 0.9251(3)
H3_3 H 0.255164 0.801485 0.874516
C8_3 C 0.19573(18) 0.7395(6) 0.9157(3)
C9_3 C 0.19246(18) 0.7077(6) 0.9917(3)
C10_3 C 0.13581(19) 0.6546(6) 0.9919(3)
C11_3 C 0.14201(19) 0.7324(6) 0.8251(3)
Cu5_2 Cu 0.04160(3) 0.88513(7) 0.85821(4)
N27_2 N 0.5467(2) 0.6482(7) 0.9796(3)
Cu6_2 Cu 0.95840(3) 0.88513(7) 0.64179(4)
N1_4 N 0.63694(17) 0.9685(5) 0.5391(3)
N2_4 N 0.57905(16) 0.9800(5) 0.5257(3)
N8_4 N 0.64478(17) 0.8153(5) 0.2549(3)
C1_4 C 0.7530(2) 0.7192(6) 0.4251(3)
H2_4 H 0.755164 0.698515 0.374516
C2_4 C 0.69573(18) 0.7605(6) 0.4157(3)
C3_4 C 0.69246(18) 0.7923(6) 0.4917(3)
C4_4 C 0.63581(19) 0.8454(6) 0.4919(3)
C5_4 C 0.64201(19) 0.7676(6) 0.3251(3)
N11_4 N 0.86306(17) 0.5315(5) 0.4609(3)
N13_4 N 0.95622(16) 0.6315(5) 0.5270(3)
N14_4 N 0.92121(16) 0.7175(5) 0.5493(3)
N15_4 N 0.91557(16) 0.7837(5) 0.7002(3)
N16_4 N 0.94895(17) 0.7657(5) 0.7889(3)
N17_4 N 0.91254(18) 0.7057(5) 0.8148(3)
N18_4 N 0.85522(17) 0.6847(5) 0.7451(3)
C7_4 C 0.7470(2) 0.7808(6) 0.5749(3)
H3_4 H 0.744836 0.801485 0.625484
C8_4 C 0.80427(18) 0.7395(6) 0.5843(3)
C9_4 C 0.80754(18) 0.7077(6) 0.5083(3)
C10_4 C 0.86419(19) 0.6546(6) 0.5081(3)
C11_4 C 0.85799(19) 0.7324(6) 0.6749(3)
N10_4 N 0.000000 0.0145(6) 0.750000
H1_4 H 0.000002 0.114179 0.750000
C6_3 C 0.0443(2) 0.0473(6) 0.9351(3)
N10_5 N 1.000000 0.0145(6) 0.750000
H1_5 H 1.000002 0.114179 0.750000
C12_3 C 0.9557(2) 0.0473(6) 0.5649(3)
N10_6 N 0.500000 0.5145(6) 0.750000
H1_6 H 0.500002 0.614179 0.750000
C6_4 C 0.5443(2) 0.5473(6) 0.9351(3)
C12_4 C 0.4557(2) 0.5473(6) 0.5649(3)
loop_
_geom_bond_atom_site_label_1
_geom_bond_atom_site_label_2
_geom_bond_site_symmetry_1
_geom_bond_site_symmetry_2
N20 Cu2 1_555 1_555
N23 Cu3 1_555 1_555
N24 Cu3 1_555 1_555
N26 Cu2 1_555 1_555
N22 N23 1_555 1_555
N24 N25 1_555 1_555
N25 N26 1_555 1_555
H1 N10 1_555 1_555
N19 C12 1_555 1_555
Cu10 N19 1_555 1_555
Cu1 N4 1_555 1_555
N3 N4 1_555 1_555
N4 C4 1_555 1_555
N5 Cu1 1_555 1_555
N6 N5 1_555 1_555
N7 N6 1_555 1_555
N8 N7 1_555 1_555
C1 H2 1_555 1_555
C2 C1 1_555 1_555
C3 C2 1_555 1_555
C5 N5 1_555 1_555
N11 N12 1_555 1_555
Cu4 N7 1_555 1_555
N21 Cu4 1_555 1_555
N28 Cu4 1_555 1_555
N8 C5 1_555 1_555
C2 C5 1_555 1_555
C3 C4 1_555 1_555
N1 N2 1_555 1_555
N13 N14 1_555 1_555
N14 C10 1_555 1_555
N15 N16 1_555 1_555
N16 N17 1_555 1_555
N17 N18 1_555 1_555
N18 C11 1_555 1_555
H3 C7 1_555 1_555
C8 C7 1_555 1_555
C11 N15 1_555 1_555
Cu5 N14 1_555 1_555
Cu6 N16 1_555 1_555
Cu9 N2 1_555 1_555
Cu11 N13 1_555 1_555
Cu12 N17 1_555 1_555
N15 Cu5 1_555 1_555
C8 C9 1_555 1_555
C8 C11 1_555 1_555
C9 C10 1_555 1_555
N9 C6 1_555 1_555
H1_2 N10_2 1_555 1_555
N1_2 N2_2 1_555 1_555
N2_2 N22 1_555 1_555
N23 C4_2 1_555 1_555
N8_2 N26 1_555 1_555
C1_2 H2_2 1_555 1_555
C2_2 C1_2 1_555 1_555
C3_2 C2_2 1_555 1_555
C4_2 N1_2 1_555 1_555
C5_2 N24 1_555 1_555
N11_2 N12_2 1_555 1_555
N12_2 N13_2 1_555 1_555
N13_2 N14_2 1_555 1_555
N14_2 C10_2 1_555 1_555
N15_2 N16_2 1_555 1_555
N16_2 N17_2 1_555 1_555
N17_2 N18_2 1_555 1_555
N18_2 C11_2 1_555 1_555
C7_2 C3_2 1_555 1_555
H3_2 C7_2 1_555 1_555
C8_2 C7_2 1_555 1_555
C9_2 C1_2 1_555 1_555
C10_2 N11_2 1_555 1_555
C11_2 N15_2 1_555 1_555
Cu6 N14_2 1_555 1_555
Cu5 N16_2 1_555 1_555
Cu10 N2_2 1_555 1_555
Cu12 N13_2 1_555 1_555
Cu11 N17_2 1_555 1_555
N8_2 C5_2 1_555 1_555
C2_2 C5_2 1_555 1_555
C3_2 C4_2 1_555 1_555
N15_2 Cu6 1_555 1_555
C8_2 C9_2 1_555 1_555
C8_2 C11_2 1_555 1_555
C9_2 C10_2 1_555 1_555
Cu1_2 N4_2 1_555 1_555
Cu7 N3_2 1_555 1_555
N3_2 N4_2 1_555 1_555
N4_2 C4_3 1_555 1_555
N5_2 Cu1_2 1_555 1_555
N6_2 N5_2 1_555 1_555
N7_2 N6_2 1_555 1_555
N8_3 N7_2 1_555 1_555
N9_2 C6_2 1_555 1_555
N10_3 Cu1_2 1_555 1_555
H1_3 N10_3 1_555 1_555
C1_3 H2_3 1_555 1_555
C2_3 C1_3 1_555 1_555
C3_3 C2_3 1_555 1_555
C5_3 N5_2 1_555 1_555
C6_2 Cu1_2 1_555 1_555
N11_3 N20 1_555 1_555
Cu3_2 N6_2 1_555 1_555
Cu7_2 N7_2 1_555 1_555
N19_2 C12_2 1_555 1_555
C12_2 Cu3_2 1_555 1_555
Cu12 N19_2 1_555 1_555
N22_2 Cu7_2 1_555 1_555
N23_2 Cu3_2 1_555 1_555
N24_2 Cu3_2 1_555 1_555
N25_2 Cu1_2 1_555 1_555
N26_2 Cu7 1_555 1_555
N28_2 Cu7_2 1_555 1_555
N8_3 C5_3 1_555 1_555
N10_3 Cu3_2 1_555 1_555
C2_3 C5_3 1_555 1_555
C3_3 C4_3 1_555 1_555
N22_2 N23_2 1_555 1_555
N24_2 N25_2 1_555 1_555
N25_2 N26_2 1_555 1_555
N1_3 N2_3 1_555 1_555
N13_3 N14_3 1_555 1_555
N14_3 C10_3 1_555 1_555
N15_3 N16_3 1_555 1_555
N16_3 N17_3 1_555 1_555
N17_3 N18_3 1_555 1_555
N18_3 C11_3 1_555 1_555
H3_3 C7_3 1_555 1_555
C8_3 C7_3 1_555 1_555
C11_3 N15_3 1_555 1_555
Cu5_2 N14_3 1_555 1_555
Cu10 N17_3 1_555 1_555
N15_3 Cu5_2 1_555 1_555
C8_3 C9_3 1_555 1_555
C8_3 C11_3 1_555 1_555
C9_3 C10_3 1_555 1_555
N1_4 N2_4 1_555 1_555
N2_4 N22_2 1_555 1_555
N23_2 C4_4 1_555 1_555
N8_4 N26_2 1_555 1_555
C1_4 H2_4 1_555 1_555
C2_4 C1_4 1_555 1_555
C3_4 C2_4 1_555 1_555
C4_4 N1_4 1_555 1_555
C5_4 N24_2 1_555 1_555
N11_4 N21 1_555 1_555
N21 N13_4 1_555 1_555
N13_4 N14_4 1_555 1_555
N14_4 C10_4 1_555 1_555
N15_4 N16_4 1_555 1_555
N16_4 N17_4 1_555 1_555
N17_4 N18_4 1_555 1_555
N18_4 C11_4 1_555 1_555
C7_4 C3_4 1_555 1_555
H3_4 C7_4 1_555 1_555
C8_4 C7_4 1_555 1_555
C9_4 C1_4 1_555 1_555
C10_4 N11_4 1_555 1_555
C11_4 N15_4 1_555 1_555
Cu6_2 N14_4 1_555 1_555
Cu9 N17_4 1_555 1_555
N8_4 C5_4 1_555 1_555
C2_4 C5_4 1_555 1_555
C3_4 C4_4 1_555 1_555
N15_4 Cu6_2 1_555 1_555
C8_4 C9_4 1_555 1_555
C8_4 C11_4 1_555 1_555
C9_4 C10_4 1_555 1_555
N27 C6_3 1_555 1_555
H1_4 N10_4 1_555 1_555
H1_5 N10_5 1_555 1_555
N28 C12_3 1_555 1_555
N27_2 C6_4 1_555 1_555
N10_6 Cu5 1_555 1_555
H1_6 N10_6 1_555 1_555
C6_4 Cu5 1_555 1_555
N28_2 C12_4 1_555 1_555
C12_4 Cu6 1_555 1_555
N10_6 Cu6 1_555 1_555

#END
