
###############################################################################
#
# This file contains modified crystal structure data generated from the
# MOF subset of the Cambridge Structural Database (CSD) v543 
# hosted by the Cambridge Crystallographic Data Centre (CCDC).
#
# This work is licensed under the Creative Commons
# Attribution-NonCommercial-ShareAlike 4.0 International License.
# To view a copy of this license, visit
# http://creativecommons.org/licenses/by-nc-sa/4.0/
# or send a letter to
# Creative Commons, PO Box 1866, Mountain View, CA 94042, USA.
#
# CIF created using the CSD Python API on 29 September 2022
# The structure has been converted into the P1 space group
# The structure has a 3D framework
# The original CSD entry UXAXID is in the monoclinic crystal system
# The framework has been calculated to contain at least 10.0% void space
# The void calculation uses a probe of radius 1.32A, grid spacing 0.4
# The framework is charged, counterions have been retained in the structure
#
###############################################################################

data_UXAXID
_chemical_formula_moiety         '(C48 H8 Cu8 N70 O6 3+)n'
_symmetry_cell_setting           triclinic
_symmetry_space_group_name_H-M   'P 1'
_symmetry_Int_Tables_number      1
_space_group_name_Hall           'P 1'
loop_
_symmetry_equiv_pos_site_id
_symmetry_equiv_pos_as_xyz
1 x,y,z
_cell_length_a                   24.808(3)
_cell_length_b                   8.6016(9)
_cell_length_c                   17.532(2)
_cell_angle_alpha                90
_cell_angle_beta                 120.502(9)
_cell_angle_gamma                90
_cell_volume                     3223.4
loop_
_atom_site_label
_atom_site_type_symbol
_atom_site_fract_x
_atom_site_fract_y
_atom_site_fract_z
O1 O 0.000000 0.0154(4) 0.250000
N9 N 0.04735(17) 0.1475(5) 0.4800(2)
C6 C 0.04458(17) 0.0480(4) 0.43536(19)
Cu8 Cu 0.04743(2) 0.31576(5) 0.55024(2)
Cu1 Cu 0.04131(2) 0.88433(5) 0.35731(2)
Cu4 Cu 0.04743(2) 0.68424(5) 0.05024(2)
N19 N 0.07903(12) 0.4797(3) 0.02608(18)
N21 N 0.04379(12) 0.6315(3) 0.47317(17)
N22 N 0.07864(11) 0.7185(3) 0.45035(16)
N23 N 0.08429(12) 0.7820(4) 0.29960(16)
N24 N 0.05090(12) 0.7641(4) 0.21129(16)
N25 N 0.08803(12) 0.7046(4) 0.18553(16)
N27 N 0.04735(17) 0.8525(5) 0.9800(2)
O1_2 O 1.000000 0.0154(4) 0.250000
N18 N 0.95265(17) 0.1475(5) 0.0200(2)
C12 C 0.95542(17) 0.0480(4) 0.06464(19)
Cu7 Cu 0.54743(2) 0.18424(5) 0.05024(2)
Cu10 Cu 0.95257(2) 0.31576(5) 0.94976(2)
Cu2 Cu 0.95257(2) 0.68424(5) 0.44976(2)
N3 N 0.95621(12) 0.6315(3) 0.02683(17)
N4 N 0.92136(11) 0.7185(3) 0.04965(16)
N5 N 0.91571(12) 0.7820(4) 0.20040(16)
N6 N 0.94910(12) 0.7641(4) 0.28871(16)
N7 N 0.91197(12) 0.7046(4) 0.31447(16)
N8 N 0.85448(13) 0.6839(4) 0.24513(17)
C1 C 0.74663(14) 0.7806(4) 0.07483(19)
H1 H 0.744385 0.800891 0.125251
C2 C 0.80412(14) 0.7398(4) 0.08423(19)
C3 C 0.80761(14) 0.7080(4) 0.0081(2)
C4 C 0.86436(14) 0.6540(4) 0.00812(19)
C5 C 0.85800(14) 0.7308(4) 0.17511(19)
N10 N 0.63728(12) 0.9682(4) 0.03955(18)
N11 N 0.57903(12) 0.9797(3) 0.02608(18)
Cu3 Cu 0.95869(2) 0.88433(5) 0.14269(2)
N20 N 0.92097(12) 0.4797(3) 0.47392(18)
N26 N 0.95265(17) 0.8525(5) 0.5200(2)
N1 N 0.86272(12) 0.5318(4) 0.96045(18)
N2 N 0.92097(12) 0.5203(3) 0.97392(18)
N12 N 0.54379(12) 0.8685(3) 0.97317(17)
N13 N 0.57864(11) 0.7815(3) 0.95035(16)
N14 N 0.58429(12) 0.7180(4) 0.79960(16)
N15 N 0.55090(12) 0.7359(4) 0.71129(16)
N16 N 0.58803(12) 0.7954(4) 0.68553(16)
N17 N 0.64552(13) 0.8161(4) 0.75487(17)
C7 C 0.75337(14) 0.7194(4) 0.92517(19)
H2 H 0.755615 0.699109 0.874749
C8 C 0.69588(14) 0.7602(4) 0.91577(19)
C9 C 0.69239(14) 0.7920(4) 0.9919(2)
C10 C 0.63564(14) 0.8460(4) 0.99188(19)
C11 C 0.64200(14) 0.7692(4) 0.82489(19)
Cu5 Cu 0.45869(2) 0.61567(5) 0.64269(2)
Cu6 Cu 0.54131(2) 0.61567(5) 0.85731(2)
Cu11 Cu 0.54743(2) 0.81576(5) 0.55024(2)
Cu12 Cu 0.45257(2) 0.81576(5) 0.94976(2)
Cu7_2 Cu 0.45257(2) 0.18424(5) 0.44976(2)
N1_2 N 0.13728(12) 0.5318(4) 0.53955(18)
N2_2 N 0.07903(12) 0.5203(3) 0.52608(18)
N8_2 N 0.14552(13) 0.6839(4) 0.25487(17)
C1_2 C 0.25337(14) 0.7806(4) 0.42517(19)
H1_2 H 0.255615 0.800891 0.374749
C2_2 C 0.19588(14) 0.7398(4) 0.41577(19)
C3_2 C 0.19239(14) 0.7080(4) 0.4919(2)
C4_2 C 0.13564(14) 0.6540(4) 0.49188(19)
C5_2 C 0.14200(14) 0.7308(4) 0.32489(19)
N10_2 N 0.36272(12) 0.9682(4) 0.46045(18)
N11_2 N 0.42097(12) 0.9797(3) 0.47392(18)
N12_2 N 0.45621(12) 0.8685(3) 0.52683(17)
N13_2 N 0.42136(11) 0.7815(3) 0.54965(16)
N14_2 N 0.41571(12) 0.7180(4) 0.70040(16)
N15_2 N 0.44910(12) 0.7359(4) 0.78871(16)
N16_2 N 0.41197(12) 0.7954(4) 0.81447(16)
N17_2 N 0.35448(13) 0.8161(4) 0.74513(17)
C7_2 C 0.24663(14) 0.7194(4) 0.57483(19)
H2_2 H 0.244385 0.699109 0.625251
C8_2 C 0.30412(14) 0.7602(4) 0.58423(19)
C9_2 C 0.30761(14) 0.7920(4) 0.5081(2)
C10_2 C 0.36436(14) 0.8460(4) 0.50812(19)
C11_2 C 0.35800(14) 0.7692(4) 0.67511(19)
Cu1_2 Cu 0.54131(2) 0.38433(5) 0.35731(2)
O1_3 O 0.500000 0.5154(4) 0.250000
N3_2 N 0.45621(12) 0.1315(3) 0.02683(17)
N4_2 N 0.42136(11) 0.2185(3) 0.04965(16)
N5_2 N 0.41571(12) 0.2820(4) 0.20040(16)
N6_2 N 0.44910(12) 0.2641(4) 0.28871(16)
N7_2 N 0.41197(12) 0.2046(4) 0.31447(16)
N8_3 N 0.35448(13) 0.1839(4) 0.24513(17)
N9_2 N 0.54735(17) 0.6475(5) 0.4800(2)
C1_3 C 0.24663(14) 0.2806(4) 0.07483(19)
H1_3 H 0.244385 0.300891 0.125251
C2_3 C 0.30412(14) 0.2398(4) 0.08423(19)
C3_3 C 0.30761(14) 0.2080(4) 0.0081(2)
C4_3 C 0.36436(14) 0.1540(4) 0.00812(19)
C5_3 C 0.35800(14) 0.2308(4) 0.17511(19)
C6_2 C 0.54458(17) 0.5480(4) 0.43536(19)
N10_3 N 0.13728(12) 0.4682(4) 0.03955(18)
Cu3_2 Cu 0.45869(2) 0.38433(5) 0.14269(2)
N18_2 N 0.45265(17) 0.6475(5) 0.0200(2)
C12_2 C 0.45542(17) 0.5480(4) 0.06464(19)
N21_2 N 0.54379(12) 0.1315(3) 0.47317(17)
N22_2 N 0.57864(11) 0.2185(3) 0.45035(16)
N23_2 N 0.58429(12) 0.2820(4) 0.29960(16)
N24_2 N 0.55090(12) 0.2641(4) 0.21129(16)
N25_2 N 0.58803(12) 0.2046(4) 0.18553(16)
N26_2 N 0.45265(17) 0.3525(5) 0.5200(2)
N1_3 N 0.36272(12) 0.0318(4) 0.96045(18)
N2_3 N 0.42097(12) 0.0203(3) 0.97392(18)
N12_3 N 0.04379(12) 0.3685(3) 0.97317(17)
N13_3 N 0.07864(11) 0.2815(3) 0.95035(16)
N14_3 N 0.08429(12) 0.2180(4) 0.79960(16)
N15_3 N 0.05090(12) 0.2359(4) 0.71129(16)
N16_3 N 0.08803(12) 0.2954(4) 0.68553(16)
N17_3 N 0.14552(13) 0.3161(4) 0.75487(17)
C7_3 C 0.25337(14) 0.2194(4) 0.92517(19)
H2_3 H 0.255615 0.199109 0.874749
C8_3 C 0.19588(14) 0.2602(4) 0.91577(19)
C9_3 C 0.19239(14) 0.2920(4) 0.9919(2)
C10_3 C 0.13564(14) 0.3460(4) 0.99188(19)
C11_3 C 0.14200(14) 0.2692(4) 0.82489(19)
Cu6_2 Cu 0.04131(2) 0.11567(5) 0.85731(2)
N27_2 N 0.54735(17) 0.3525(5) 0.9800(2)
Cu5_2 Cu 0.95869(2) 0.11567(5) 0.64269(2)
N1_4 N 0.63728(12) 0.0318(4) 0.53955(18)
N2_4 N 0.57903(12) 0.0203(3) 0.52608(18)
N8_4 N 0.64552(13) 0.1839(4) 0.25487(17)
C1_4 C 0.75337(14) 0.2806(4) 0.42517(19)
H1_4 H 0.755615 0.300891 0.374749
C2_4 C 0.69588(14) 0.2398(4) 0.41577(19)
C3_4 C 0.69239(14) 0.2080(4) 0.4919(2)
C4_4 C 0.63564(14) 0.1540(4) 0.49188(19)
C5_4 C 0.64200(14) 0.2308(4) 0.32489(19)
N10_4 N 0.86272(12) 0.4682(4) 0.46045(18)
N12_4 N 0.95621(12) 0.3685(3) 0.52683(17)
N13_4 N 0.92136(11) 0.2815(3) 0.54965(16)
N14_4 N 0.91571(12) 0.2180(4) 0.70040(16)
N15_4 N 0.94910(12) 0.2359(4) 0.78871(16)
N16_4 N 0.91197(12) 0.2954(4) 0.81447(16)
N17_4 N 0.85448(13) 0.3161(4) 0.74513(17)
C7_4 C 0.74663(14) 0.2194(4) 0.57483(19)
H2_4 H 0.744385 0.199109 0.625251
C8_4 C 0.80412(14) 0.2602(4) 0.58423(19)
C9_4 C 0.80761(14) 0.2920(4) 0.5081(2)
C10_4 C 0.86436(14) 0.3460(4) 0.50812(19)
C11_4 C 0.85800(14) 0.2692(4) 0.67511(19)
O1_4 O 0.000000 0.9846(4) 0.750000
C12_3 C 0.04458(17) 0.9520(4) 0.93536(19)
O1_5 O 1.000000 0.9846(4) 0.750000
C6_3 C 0.95542(17) 0.9520(4) 0.56464(19)
O1_6 O 0.500000 0.4846(4) 0.750000
C6_4 C 0.45542(17) 0.4520(4) 0.56464(19)
C12_4 C 0.54458(17) 0.4520(4) 0.93536(19)
loop_
_geom_bond_atom_site_label_1
_geom_bond_atom_site_label_2
_geom_bond_site_symmetry_1
_geom_bond_site_symmetry_2
N9 C6 1_555 1_555
Cu8 N9 1_555 1_555
N19 Cu4 1_555 1_555
N22 Cu1 1_555 1_555
N23 Cu1 1_555 1_555
N25 Cu4 1_555 1_555
N21 N22 1_555 1_555
N23 N24 1_555 1_555
N24 N25 1_555 1_555
N18 C12 1_555 1_555
Cu2 N7 1_555 1_555
N3 N4 1_555 1_555
N4 C4 1_555 1_555
N5 N6 1_555 1_555
N7 N6 1_555 1_555
N8 N7 1_555 1_555
C1 H1 1_555 1_555
C2 C1 1_555 1_555
C3 C2 1_555 1_555
C5 N5 1_555 1_555
N10 N11 1_555 1_555
Cu3 N4 1_555 1_555
N20 Cu2 1_555 1_555
N26 Cu2 1_555 1_555
N5 Cu3 1_555 1_555
N8 C5 1_555 1_555
C2 C5 1_555 1_555
C3 C4 1_555 1_555
N1 N2 1_555 1_555
N12 N13 1_555 1_555
N13 C10 1_555 1_555
N14 N15 1_555 1_555
N15 N16 1_555 1_555
N16 N17 1_555 1_555
N17 C11 1_555 1_555
H2 C7 1_555 1_555
C8 C7 1_555 1_555
C11 N14 1_555 1_555
Cu5 N15 1_555 1_555
Cu6 N13 1_555 1_555
Cu10 N2 1_555 1_555
Cu11 N16 1_555 1_555
Cu12 N12 1_555 1_555
N14 Cu6 1_555 1_555
C8 C9 1_555 1_555
C8 C11 1_555 1_555
C9 C10 1_555 1_555
N1_2 N2_2 1_555 1_555
N2_2 N21 1_555 1_555
N22 C4_2 1_555 1_555
N8_2 N25 1_555 1_555
C1_2 H1_2 1_555 1_555
C2_2 C1_2 1_555 1_555
C3_2 C2_2 1_555 1_555
C4_2 N1_2 1_555 1_555
C5_2 N23 1_555 1_555
N10_2 N11_2 1_555 1_555
N11_2 N12_2 1_555 1_555
N12_2 N13_2 1_555 1_555
N13_2 C10_2 1_555 1_555
N14_2 N15_2 1_555 1_555
N15_2 N16_2 1_555 1_555
N16_2 N17_2 1_555 1_555
N17_2 C11_2 1_555 1_555
C7_2 C3_2 1_555 1_555
H2_2 C7_2 1_555 1_555
C8_2 C7_2 1_555 1_555
C9_2 C1_2 1_555 1_555
C10_2 N10_2 1_555 1_555
C11_2 N14_2 1_555 1_555
Cu6 N15_2 1_555 1_555
Cu5 N13_2 1_555 1_555
Cu8 N2_2 1_555 1_555
Cu12 N16_2 1_555 1_555
Cu11 N12_2 1_555 1_555
N8_2 C5_2 1_555 1_555
C2_2 C5_2 1_555 1_555
C3_2 C4_2 1_555 1_555
N14_2 Cu5 1_555 1_555
C8_2 C9_2 1_555 1_555
C8_2 C11_2 1_555 1_555
C9_2 C10_2 1_555 1_555
Cu1_2 O1_3 1_555 1_555
Cu7_2 N7_2 1_555 1_555
O1_3 Cu3_2 1_555 1_555
N3_2 N4_2 1_555 1_555
N4_2 C4_3 1_555 1_555
N5_2 N6_2 1_555 1_555
N6_2 Cu1_2 1_555 1_555
N7_2 N6_2 1_555 1_555
N8_3 N7_2 1_555 1_555
N9_2 C6_2 1_555 1_555
C1_3 H1_3 1_555 1_555
C2_3 C1_3 1_555 1_555
C3_3 C2_3 1_555 1_555
C5_3 N5_2 1_555 1_555
C6_2 Cu1_2 1_555 1_555
N10_3 N19 1_555 1_555
Cu3_2 N4_2 1_555 1_555
Cu7 N3_2 1_555 1_555
N18_2 C12_2 1_555 1_555
C12_2 Cu3_2 1_555 1_555
Cu11 N9_2 1_555 1_555
N21_2 Cu7_2 1_555 1_555
N22_2 Cu1_2 1_555 1_555
N23_2 Cu1_2 1_555 1_555
N24_2 Cu3_2 1_555 1_555
N25_2 Cu7 1_555 1_555
N26_2 Cu7_2 1_555 1_555
N5_2 Cu3_2 1_555 1_555
N8_3 C5_3 1_555 1_555
C2_3 C5_3 1_555 1_555
C3_3 C4_3 1_555 1_555
N21_2 N22_2 1_555 1_555
N23_2 N24_2 1_555 1_555
N24_2 N25_2 1_555 1_555
N1_3 N2_3 1_555 1_555
N12_3 N13_3 1_555 1_555
N13_3 C10_3 1_555 1_555
N14_3 N15_3 1_555 1_555
N15_3 N16_3 1_555 1_555
N16_3 N17_3 1_555 1_555
N17_3 C11_3 1_555 1_555
H2_3 C7_3 1_555 1_555
C8_3 C7_3 1_555 1_555
C11_3 N14_3 1_555 1_555
Cu6_2 N13_3 1_555 1_555
Cu8 N16_3 1_555 1_555
N14_3 Cu6_2 1_555 1_555
C8_3 C9_3 1_555 1_555
C8_3 C11_3 1_555 1_555
C9_3 C10_3 1_555 1_555
N1_4 N2_4 1_555 1_555
N2_4 N21_2 1_555 1_555
N22_2 C4_4 1_555 1_555
N8_4 N25_2 1_555 1_555
C1_4 H1_4 1_555 1_555
C2_4 C1_4 1_555 1_555
C3_4 C2_4 1_555 1_555
C4_4 N1_4 1_555 1_555
C5_4 N23_2 1_555 1_555
N10_4 N20 1_555 1_555
N20 N12_4 1_555 1_555
N12_4 N13_4 1_555 1_555
N13_4 C10_4 1_555 1_555
N14_4 N15_4 1_555 1_555
N15_4 N16_4 1_555 1_555
N16_4 N17_4 1_555 1_555
N17_4 C11_4 1_555 1_555
C7_4 C3_4 1_555 1_555
H2_4 C7_4 1_555 1_555
C8_4 C7_4 1_555 1_555
C9_4 C1_4 1_555 1_555
C10_4 N10_4 1_555 1_555
C11_4 N14_4 1_555 1_555
Cu5_2 N13_4 1_555 1_555
Cu10 N16_4 1_555 1_555
N8_4 C5_4 1_555 1_555
C2_4 C5_4 1_555 1_555
C3_4 C4_4 1_555 1_555
N14_4 Cu5_2 1_555 1_555
C8_4 C9_4 1_555 1_555
C8_4 C11_4 1_555 1_555
C9_4 C10_4 1_555 1_555
N27 C12_3 1_555 1_555
N26 C6_3 1_555 1_555
Cu5 O1_6 1_555 1_555
O1_6 Cu6 1_555 1_555
N26_2 C6_4 1_555 1_555
C6_4 Cu5 1_555 1_555
N27_2 C12_4 1_555 1_555
C12_4 Cu6 1_555 1_555

#END
