
###############################################################################
#
# This file contains modified crystal structure data generated from the
# MOF subset of the Cambridge Structural Database (CSD) v543 
# hosted by the Cambridge Crystallographic Data Centre (CCDC).
#
# This work is licensed under the Creative Commons
# Attribution-NonCommercial-ShareAlike 4.0 International License.
# To view a copy of this license, visit
# http://creativecommons.org/licenses/by-nc-sa/4.0/
# or send a letter to
# Creative Commons, PO Box 1866, Mountain View, CA 94042, USA.
#
# CIF created using the CSD Python API on 29 September 2022
# The structure has been converted into the P1 space group
# The structure has a 3D framework
# The original CSD entry UXAXEY is in the triclinic crystal system
# The framework has been calculated to contain at least 10.0% void space
# The void calculation uses a probe of radius 1.32A, grid spacing 0.4
#
###############################################################################

data_UXAXEY
_chemical_formula_moiety         '(C90 H74 Er4 N2 O42 S6)n'
_symmetry_cell_setting           triclinic
_symmetry_space_group_name_H-M   'P 1'
_symmetry_Int_Tables_number      1
_space_group_name_Hall           'P 1'
loop_
_symmetry_equiv_pos_site_id
_symmetry_equiv_pos_as_xyz
1 x,y,z
_cell_length_a                   12.608(3)
_cell_length_b                   12.769(4)
_cell_length_c                   21.876(5)
_cell_angle_alpha                98.05(2)
_cell_angle_beta                 96.840(17)
_cell_angle_gamma                118.109(19)
_cell_volume                     3005.99
loop_
_atom_site_label
_atom_site_type_symbol
_atom_site_fract_x
_atom_site_fract_y
_atom_site_fract_z
Er3 Er 0.06169(3) 0.54521(3) 0.09497(2)
Er8 Er 0.06891(3) 0.04157(3) 0.59704(2)
S2 S 0.5072(2) 0.2996(2) 0.25286(10)
S3 S 0.50697(18) 0.73810(18) 0.47699(9)
N1 N 0.0327(9) 0.2800(8) 0.2179(4)
O1 O 0.0529(5) 0.3702(5) 0.0451(3)
O5 O 0.8555(5) 0.4118(5) 0.0882(3)
O7 O 0.2587(5) 0.6208(6) 0.1422(3)
O8 O 0.3031(8) 0.6998(8) 0.2462(3)
O9 O 0.5466(6) 0.2605(6) 0.1991(3)
O10 O 0.5896(5) 0.3505(6) 0.3137(3)
O13 O 0.0913(5) 0.9164(5) 0.4150(3)
O14 O 0.1437(5) 0.9810(5) 0.5195(3)
O15 O 0.6000(5) 0.7990(5) 0.5340(3)
O16 O 0.5424(5) 0.7307(5) 0.4169(3)
O17 O 0.0952(5) 0.1462(5) 0.4446(3)
O19 O 0.1422(5) 0.2055(5) 0.5501(3)
O21 O 0.0559(6) 0.4419(6) 0.1771(3)
O22 O 0.0901(6) 0.6831(6) 0.1844(3)
H5 H 0.1604 0.7078 0.2081
H6 H 0.0337 0.6496 0.2051
C6 C 0.1591(7) 0.1084(8) 0.0420(4)
H9 H 0.1707 0.08 0.0787
C7 C 0.1122(7) 0.1870(7) 0.0416(4)
H10 H 0.0934 0.2147 0.0792
C8 C 0.7965(8) 0.3644(8) 0.0313(4)
C9 C 0.6638(7) 0.2690(7) 0.0194(4)
C10 C 0.6131(8) 0.2260(8) 0.0696(4)
H11 H 0.6624 0.2577 0.1112
C11 C 0.4891(8) 0.1358(7) 0.0593(4)
H12 H 0.4543 0.1059 0.0935
C15 C 0.3069(9) 0.6334(9) 0.1999(4)
C16 C 0.3660(8) 0.5579(8) 0.2113(4)
C17 C 0.4370(8) 0.5783(9) 0.2706(4)
H15 H 0.4532 0.6451 0.3029
C18 C 0.4840(8) 0.5031(8) 0.2832(4)
H16 H 0.5322 0.5183 0.3236
C19 C 0.4598(7) 0.4044(8) 0.2355(4)
C20 C 0.3905(8) 0.3815(8) 0.1765(4)
H17 H 0.3734 0.3137 0.1446
C21 C 0.3457(8) 0.4597(9) 0.1643(4)
H18 H 0.3004 0.4459 0.1233
C25 C 0.2958(8) 0.0802(9) 0.2058(4)
H20 H 0.324 0.0798 0.1674
C26 C 0.3681(8) 0.1755(8) 0.2586(4)
C27 C 0.3274(9) 0.1766(9) 0.3144(4)
H21 H 0.3776 0.2395 0.3509
C28 C 0.2108(8) 0.0834(8) 0.3165(4)
H22 H 0.1804 0.0855 0.354
C29 C 0.1523(8) 0.2235(8) 0.4958(4)
C30 C 0.2430(7) 0.3526(7) 0.4913(4)
C31 C 0.2650(8) 0.3781(8) 0.4334(4)
H23 H 0.2239 0.3147 0.3964
C32 C 0.3464(8) 0.4955(8) 0.4285(4)
H24 H 0.3607 0.5125 0.3884
C33 C 0.4062(7) 0.5868(7) 0.4826(4)
C34 C 0.3856(8) 0.5637(8) 0.5411(4)
H25 H 0.427 0.6276 0.578
C35 C 0.3041(8) 0.4469(8) 0.5457(4)
H26 H 0.2895 0.4305 0.5858
C36 C 0.1553(8) 0.9350(7) 0.4677(4)
C37 C 0.2529(7) 0.8969(7) 0.4699(4)
C38 C 0.3159(8) 0.9024(8) 0.5278(4)
H27 H 0.3038 0.937 0.5659
C39 C 0.3971(8) 0.8568(8) 0.5300(4)
H28 H 0.4409 0.8603 0.5694
C40 C 0.4128(8) 0.8067(7) 0.4740(4)
C41 C 0.3554(8) 0.8050(8) 0.4157(4)
H29 H 0.3708 0.7736 0.3779
C42 C 0.2734(8) 0.8509(8) 0.4139(4)
H30 H 0.2322 0.8505 0.3744
C43 C 0.0043(9) 0.3340(8) 0.1751(4)
C44 C 0.1316(12) 0.3525(14) 0.2739(6)
H32 H 0.1918 0.3243 0.2756
H33 H 0.0971 0.3432 0.312
H34 H 0.1722 0.4385 0.2718
H35 H 0.039 0.1258 0.2067
O25 O 0.1546(5) 0.6046(5) 0.0146(3)
O2 O 0.0217(5) 0.3434(5) 0.9401(3)
O6 O 0.8454(5) 0.3954(5) 0.9854(3)
C1 C 0.0510(7) 0.3204(7) 0.9913(4)
C2 C 0.0923(7) 0.2258(7) 0.9883(4)
C3 C 0.1186(7) 0.1860(7) 0.9329(4)
H7 H 0.1023 0.2107 0.8955
C4 C 0.1687(7) 0.1099(7) 0.9324(4)
H8 H 0.1889 0.0838 0.8948
C5 C 0.1889(7) 0.0724(7) 0.9859(4)
C12 C 0.4193(7) 0.0916(8) 0.9995(4)
C13 C 0.4696(8) 0.1336(9) 0.9484(4)
H13 H 0.4202 0.1022 0.9068
C14 C 0.5918(8) 0.2209(9) 0.9592(4)
H14 H 0.6271 0.2484 0.9246
Er5 Er 0.93831(3) 0.45479(3) 0.90503(2)
O4 O 0.2404(5) 0.9283(5) 0.0409(3)
C22 C 0.0119(8) 0.8889(8) 0.2675(4)
C23 C 0.1395(7) 0.9885(8) 0.2648(3)
C24 C 0.1836(8) 0.9870(8) 0.2096(4)
H19 H 0.1358 0.921 0.1742
O18 O 0.8832(6) 0.0909(6) 0.3578(3)
H1 H 0.9257 0.1741 0.3698
H2 H 0.8194 0.0676 0.3247
H31 H 0.9379 0.2826 0.1403
C45 C 0.9765(15) 0.1502(12) 0.2099(6)
H36 H 0.9121 0.1102 0.1712
H37 H 0.9402 0.1261 0.2463
Er6 Er 0.93109(3) 0.95843(3) 0.40296(2)
O23 O 0.9783(5) 0.6566(5) 0.0599(3)
O27 O 0.8563(5) 0.0190(5) 0.4805(3)
O11 O 0.9574(5) 0.9173(6) 0.3059(3)
O12 O 0.9684(6) 0.7891(6) 0.2299(3)
O20 O 0.7253(7) 0.8364(7) 0.3503(4)
H3 H 0.6766 0.8215 0.3771
H4 H 0.7437 0.7897 0.3502
O28 O 0.8578(5) 0.7945(5) 0.4499(3)
O11_2 O 0.0426(5) 0.0827(6) 0.6941(3)
O12_2 O 0.0316(6) 0.2109(6) 0.7701(3)
O20_2 O 0.2747(7) 0.1636(7) 0.6497(4)
H3_2 H 0.3234 0.1785 0.6229
H4_2 H 0.2563 0.2103 0.6498
O18_2 O 0.1168(6) 0.9091(6) 0.6422(3)
H1_2 H 0.0743 0.8259 0.6302
H2_2 H 0.1806 0.9324 0.6753
H31_2 H 0.0621 0.7174 0.8597
C45_2 C 0.0235(15) 0.8498(12) 0.7901(6)
H36_2 H 0.0879 0.8898 0.8288
H37_2 H 0.0598 0.8739 0.7537
O24 O 0.1445(5) 0.5882(5) 0.9118(3)
O4_2 O 0.7596(5) 0.0717(5) 0.9591(3)
C22_2 C 0.9881(8) 0.1111(8) 0.7325(4)
C23_2 C 0.8605(7) 0.0115(8) 0.7352(3)
C24_2 C 0.8164(8) 0.0130(8) 0.7904(4)
H19_2 H 0.8642 0.079 0.8258
O26 O 0.9087(5) 0.0836(5) 0.5850(3)
C1_2 C 0.9490(7) 0.6796(7) 0.0087(4)
C2_2 C 0.9077(7) 0.7742(7) 0.0117(4)
C3_2 C 0.8814(7) 0.8140(7) 0.0671(4)
H7_2 H 0.8977 0.7893 0.1045
C4_2 C 0.8313(7) 0.8901(7) 0.0676(4)
H8_2 H 0.8111 0.9162 0.1052
C5_2 C 0.8111(7) 0.9276(7) 0.0141(4)
C12_2 C 0.5807(7) 0.9084(8) 0.0005(4)
C13_2 C 0.5304(8) 0.8664(9) 0.0516(4)
H13_2 H 0.5798 0.8978 0.0932
C14_2 C 0.4082(8) 0.7791(9) 0.0408(4)
H14_2 H 0.3729 0.7516 0.0754
S2_2 S 0.4928(2) 0.7004(2) 0.74714(10)
S3_2 S 0.49303(18) 0.26190(18) 0.52301(9)
N1_2 N 0.9673(9) 0.7200(8) 0.7821(4)
O1_2 O 0.9471(5) 0.6298(5) 0.9549(3)
O7_2 O 0.7413(5) 0.3792(6) 0.8578(3)
O8_2 O 0.6969(8) 0.3002(8) 0.7538(3)
O9_2 O 0.4534(6) 0.7395(6) 0.8009(3)
O10_2 O 0.4104(5) 0.6495(6) 0.6863(3)
O15_2 O 0.4000(5) 0.2010(5) 0.4660(3)
O16_2 O 0.4576(5) 0.2693(5) 0.5831(3)
O17_2 O 0.9048(5) 0.8538(5) 0.5554(3)
O21_2 O 0.9441(6) 0.5581(6) 0.8229(3)
O22_2 O 0.9099(6) 0.3169(6) 0.8156(3)
H5_2 H 0.8396 0.2922 0.7919
H6_2 H 0.9663 0.3504 0.7949
C6_2 C 0.8409(7) 0.8916(8) 0.9580(4)
H9_2 H 0.8293 0.92 0.9213
C7_2 C 0.8878(7) 0.8130(7) 0.9584(4)
H10_2 H 0.9066 0.7853 0.9208
C8_2 C 0.2035(8) 0.6356(8) 0.9687(4)
C9_2 C 0.3362(7) 0.7310(7) 0.9806(4)
C10_2 C 0.3869(8) 0.7740(8) 0.9304(4)
H11_2 H 0.3376 0.7423 0.8888
C11_2 C 0.5109(8) 0.8642(7) 0.9407(4)
H12_2 H 0.5457 0.8941 0.9065
C15_2 C 0.6931(9) 0.3666(9) 0.8001(4)
C16_2 C 0.6340(8) 0.4421(8) 0.7887(4)
C17_2 C 0.5630(8) 0.4217(9) 0.7294(4)
H15_2 H 0.5468 0.3549 0.6971
C18_2 C 0.5160(8) 0.4969(8) 0.7168(4)
H16_2 H 0.4678 0.4817 0.6764
C19_2 C 0.5402(7) 0.5956(8) 0.7645(4)
C20_2 C 0.6095(8) 0.6185(8) 0.8235(4)
H17_2 H 0.6266 0.6863 0.8554
C21_2 C 0.6543(8) 0.5403(9) 0.8357(4)
H18_2 H 0.6996 0.5541 0.8767
C25_2 C 0.7042(8) 0.9198(9) 0.7942(4)
H20_2 H 0.676 0.9202 0.8326
C26_2 C 0.6319(8) 0.8245(8) 0.7414(4)
C27_2 C 0.6726(9) 0.8234(9) 0.6856(4)
H21_2 H 0.6224 0.7605 0.6491
C28_2 C 0.7892(8) 0.9166(8) 0.6835(4)
H22_2 H 0.8196 0.9145 0.646
C29_2 C 0.8477(8) 0.7765(8) 0.5042(4)
C30_2 C 0.7570(7) 0.6474(7) 0.5087(4)
C31_2 C 0.7350(8) 0.6219(8) 0.5666(4)
H23_2 H 0.7761 0.6853 0.6036
C32_2 C 0.6536(8) 0.5045(8) 0.5715(4)
H24_2 H 0.6393 0.4875 0.6116
C33_2 C 0.5938(7) 0.4132(7) 0.5174(4)
C34_2 C 0.6144(8) 0.4363(8) 0.4589(4)
H25_2 H 0.573 0.3724 0.422
C35_2 C 0.6959(8) 0.5531(8) 0.4543(4)
H26_2 H 0.7105 0.5695 0.4142
C36_2 C 0.8447(8) 0.0650(7) 0.5323(4)
C37_2 C 0.7471(7) 0.1031(7) 0.5301(4)
C38_2 C 0.6841(8) 0.0976(8) 0.4722(4)
H27_2 H 0.6962 0.063 0.4341
C39_2 C 0.6029(8) 0.1432(8) 0.4700(4)
H28_2 H 0.5591 0.1397 0.4306
C40_2 C 0.5872(8) 0.1933(7) 0.5260(4)
C41_2 C 0.6446(8) 0.1950(8) 0.5843(4)
H29_2 H 0.6292 0.2264 0.6221
C42_2 C 0.7266(8) 0.1491(8) 0.5861(4)
H30_2 H 0.7678 0.1495 0.6256
C43_2 C 0.9957(9) 0.6660(8) 0.8249(4)
C44_2 C 0.8684(12) 0.6475(14) 0.7261(6)
H32_2 H 0.8082 0.6757 0.7244
H33_2 H 0.9029 0.6568 0.688
H34_2 H 0.8278 0.5615 0.7282
H35_2 H 0.961 0.8742 0.7933
S1 S 0.26109(19) 0.98173(19) 0.98692(11)
O3 O 0.2228(6) 0.9052(6) 0.9246(3)
S1_2 S 0.73891(19) 0.01827(19) 0.01308(11)
O3_2 O 0.7772(6) 0.0948(6) 0.0754(3)
loop_
_geom_bond_atom_site_label_1
_geom_bond_atom_site_label_2
_geom_bond_site_symmetry_1
_geom_bond_site_symmetry_2
Er3 O1 1_555 1_555
S2 O9 1_555 1_555
S3 O15 1_555 1_555
N1 C43 1_555 1_555
O5 C8 1_555 1_555
O7 Er3 1_555 1_555
O8 C15 1_555 1_555
O10 S2 1_555 1_555
O13 C36 1_555 1_555
O14 C36 1_555 1_555
O16 S3 1_555 1_555
O19 C29 1_555 1_555
O21 Er3 1_555 1_555
O22 Er3 1_555 1_555
H5 O22 1_555 1_555
H6 O22 1_555 1_555
H9 C6 1_555 1_555
H10 C7 1_555 1_555
C8 C9 1_555 1_555
C9 C10 1_555 1_555
C10 H11 1_555 1_555
C11 C10 1_555 1_555
H12 C11 1_555 1_555
C15 O7 1_555 1_555
C16 C15 1_555 1_555
C17 C16 1_555 1_555
H15 C17 1_555 1_555
C18 C17 1_555 1_555
H16 C18 1_555 1_555
C19 S2 1_555 1_555
C20 C19 1_555 1_555
H17 C20 1_555 1_555
C21 C16 1_555 1_555
H18 C21 1_555 1_555
H20 C25 1_555 1_555
C26 S2 1_555 1_555
C27 C26 1_555 1_555
H21 C27 1_555 1_555
H22 C28 1_555 1_555
C29 O17 1_555 1_555
C30 C29 1_555 1_555
C31 C30 1_555 1_555
H23 C31 1_555 1_555
C32 C31 1_555 1_555
H24 C32 1_555 1_555
C33 S3 1_555 1_555
C34 C33 1_555 1_555
H25 C34 1_555 1_555
C35 C30 1_555 1_555
H26 C35 1_555 1_555
C36 C37 1_555 1_555
C37 C38 1_555 1_555
C38 H27 1_555 1_555
C39 C38 1_555 1_555
H28 C39 1_555 1_555
C40 S3 1_555 1_555
C41 C40 1_555 1_555
H29 C41 1_555 1_555
C42 C37 1_555 1_555
H30 C42 1_555 1_555
C43 O21 1_555 1_555
C44 N1 1_555 1_555
H32 C44 1_555 1_555
H33 C44 1_555 1_555
H34 C44 1_555 1_555
Er8 O19 1_555 1_555
O25 Er3 1_555 1_555
C6 C7 1_555 1_555
C18 C19 1_555 1_555
C20 C21 1_555 1_555
C25 C26 1_555 1_555
C27 C28 1_555 1_555
C32 C33 1_555 1_555
C34 C35 1_555 1_555
C39 C40 1_555 1_555
C41 C42 1_555 1_555
O2 C1 1_555 1_555
C1 C2 1_555 1_555
C2 C3 1_555 1_555
C3 H7 1_555 1_555
C4 C3 1_555 1_555
H8 C4 1_555 1_555
C13 C12 1_555 1_555
H13 C13 1_555 1_555
H14 C14 1_555 1_555
Er5 O6 1_555 1_555
C4 C5 1_555 1_555
C13 C14 1_555 1_555
C22 C23 1_555 1_555
C23 C24 1_555 1_555
C24 H19 1_555 1_555
H1 O18 1_555 1_555
H2 O18 1_555 1_555
H36 C45 1_555 1_555
H37 C45 1_555 1_555
Er6 O11 1_555 1_555
O20 Er6 1_555 1_555
H3 O20 1_555 1_555
H4 O20 1_555 1_555
O28 Er6 1_555 1_555
Er8 O11_2 1_555 1_555
O20_2 Er8 1_555 1_555
H3_2 O20_2 1_555 1_555
H4_2 O20_2 1_555 1_555
H1_2 O18_2 1_555 1_555
H2_2 O18_2 1_555 1_555
H36_2 C45_2 1_555 1_555
H37_2 C45_2 1_555 1_555
C22_2 C23_2 1_555 1_555
C23_2 C24_2 1_555 1_555
C24_2 H19_2 1_555 1_555
O23 C1_2 1_555 1_555
C1_2 C2_2 1_555 1_555
C2_2 C3_2 1_555 1_555
C3_2 H7_2 1_555 1_555
C4_2 C3_2 1_555 1_555
H8_2 C4_2 1_555 1_555
C13_2 C12_2 1_555 1_555
H13_2 C13_2 1_555 1_555
H14_2 C14_2 1_555 1_555
C4_2 C5_2 1_555 1_555
C13_2 C14_2 1_555 1_555
Er5 O1_2 1_555 1_555
S2_2 O9_2 1_555 1_555
S3_2 O15_2 1_555 1_555
N1_2 C43_2 1_555 1_555
O24 C8_2 1_555 1_555
O7_2 Er5 1_555 1_555
O8_2 C15_2 1_555 1_555
O10_2 S2_2 1_555 1_555
O26 C36_2 1_555 1_555
O27 C36_2 1_555 1_555
O16_2 S3_2 1_555 1_555
O28 C29_2 1_555 1_555
O21_2 Er5 1_555 1_555
O22_2 Er5 1_555 1_555
H5_2 O22_2 1_555 1_555
H6_2 O22_2 1_555 1_555
H9_2 C6_2 1_555 1_555
H10_2 C7_2 1_555 1_555
C8_2 C9_2 1_555 1_555
C9_2 C10_2 1_555 1_555
C10_2 H11_2 1_555 1_555
C11_2 C10_2 1_555 1_555
H12_2 C11_2 1_555 1_555
C15_2 O7_2 1_555 1_555
C16_2 C15_2 1_555 1_555
C17_2 C16_2 1_555 1_555
H15_2 C17_2 1_555 1_555
C18_2 C17_2 1_555 1_555
H16_2 C18_2 1_555 1_555
C19_2 S2_2 1_555 1_555
C20_2 C19_2 1_555 1_555
H17_2 C20_2 1_555 1_555
C21_2 C16_2 1_555 1_555
H18_2 C21_2 1_555 1_555
H20_2 C25_2 1_555 1_555
C26_2 S2_2 1_555 1_555
C27_2 C26_2 1_555 1_555
H21_2 C27_2 1_555 1_555
H22_2 C28_2 1_555 1_555
C29_2 O17_2 1_555 1_555
C30_2 C29_2 1_555 1_555
C31_2 C30_2 1_555 1_555
H23_2 C31_2 1_555 1_555
C32_2 C31_2 1_555 1_555
H24_2 C32_2 1_555 1_555
C33_2 S3_2 1_555 1_555
C34_2 C33_2 1_555 1_555
H25_2 C34_2 1_555 1_555
C35_2 C30_2 1_555 1_555
H26_2 C35_2 1_555 1_555
C36_2 C37_2 1_555 1_555
C37_2 C38_2 1_555 1_555
C38_2 H27_2 1_555 1_555
C39_2 C38_2 1_555 1_555
H28_2 C39_2 1_555 1_555
C40_2 S3_2 1_555 1_555
C41_2 C40_2 1_555 1_555
H29_2 C41_2 1_555 1_555
C42_2 C37_2 1_555 1_555
H30_2 C42_2 1_555 1_555
C43_2 O21_2 1_555 1_555
C44_2 N1_2 1_555 1_555
H32_2 C44_2 1_555 1_555
H33_2 C44_2 1_555 1_555
H34_2 C44_2 1_555 1_555
C6_2 C7_2 1_555 1_555
C18_2 C19_2 1_555 1_555
C20_2 C21_2 1_555 1_555
C25_2 C26_2 1_555 1_555
C27_2 C28_2 1_555 1_555
C32_2 C33_2 1_555 1_555
C34_2 C35_2 1_555 1_555
C39_2 C40_2 1_555 1_555
C41_2 C42_2 1_555 1_555
S1 O3 1_555 1_555
S1_2 O3_2 1_555 1_555

#END
