
###############################################################################
#
# This file contains modified crystal structure data generated from the
# MOF subset of the Cambridge Structural Database (CSD) v543 
# hosted by the Cambridge Crystallographic Data Centre (CCDC).
#
# This work is licensed under the Creative Commons
# Attribution-NonCommercial-ShareAlike 4.0 International License.
# To view a copy of this license, visit
# http://creativecommons.org/licenses/by-nc-sa/4.0/
# or send a letter to
# Creative Commons, PO Box 1866, Mountain View, CA 94042, USA.
#
# CIF created using the CSD Python API on 29 September 2022
# The structure has been converted into the P1 space group
# The structure has a 3D framework
# The original CSD entry UXECAD01 is in the triclinic crystal system
# The framework has been calculated to contain at least 10.0% void space
# The void calculation uses a probe of radius 1.32A, grid spacing 0.4
#
###############################################################################

data_UXECAD01
_chemical_formula_moiety         '(C40 H24 Eu2 N8 O17 S4)n'
_symmetry_cell_setting           triclinic
_symmetry_space_group_name_H-M   'P 1'
_symmetry_Int_Tables_number      1
_space_group_name_Hall           'P 1'
loop_
_symmetry_equiv_pos_site_id
_symmetry_equiv_pos_as_xyz
1 x,y,z
_cell_length_a                   9.912(8)
_cell_length_b                   10.882(9)
_cell_length_c                   11.977(9)
_cell_angle_alpha                97.866(8)
_cell_angle_beta                 91.933(3)
_cell_angle_gamma                115.337(14)
_cell_volume                     1150.45
loop_
_atom_site_label
_atom_site_type_symbol
_atom_site_fract_x
_atom_site_fract_y
_atom_site_fract_z
_atom_site_U_iso_or_equiv
_atom_site_thermal_displace_type
Eu4 Eu 0.04534(2) 0.745942(19) 0.396222(17) 0.0079 Uani
H2 H 0.3412 0.0223 0.3267 0.0160 Uiso
C2 C 0.4579(4) 0.0048(4) 0.1959(4) 0.0132 Uani
H3 H 0.5246 0.0978 0.2050 0.0160 Uiso
O10 O 0.0479(3) 0.1570(3) 0.4538(2) 0.0122 Uani
C21 C 0.0418(4) 0.0396(4) 0.4535(3) 0.0093 Uani
O8 O 0.2681(3) 0.8822(3) 0.5297(3) 0.0166 Uani
N1 N 0.2431(4) 0.8274(3) 0.2574(3) 0.0100 Uani
N2 N 0.0222(3) 0.5659(3) 0.2254(3) 0.0092 Uani
C1 C 0.3452(4) 0.9586(4) 0.2682(4) 0.0130 Uani
C3 C 0.4694(4) 0.9129(4) 0.1120(4) 0.0120 Uani
H4 H 0.5452 0.9418 0.0644 0.0140 Uiso
C4 C 0.3647(4) 0.7732(4) 0.0986(4) 0.0091 Uani
C5 C 0.3704(4) 0.6668(4) 0.0150(3) 0.0094 Uani
C6 C 0.2722(4) 0.5305(4) 0.0160(4) 0.0099 Uani
C7 C 0.1506(4) 0.4877(4) 0.0844(3) 0.0100 Uani
C8 C 0.0383(4) 0.3524(4) 0.0756(4) 0.0135 Uani
H5 H 0.0438 0.2808 0.0268 0.0160 Uiso
C11 C 0.2526(4) 0.7356(4) 0.1723(3) 0.0088 Uani
C12 C 0.1393(4) 0.5918(4) 0.1605(3) 0.0081 Uani
H11 H 0.2456 0.9316 0.5804 0.0560 Uiso
H12 H 0.2956 0.8411 0.5746 0.0560 Uiso
O11 O 0.0965(3) 0.9802(3) 0.3853(2) 0.0092 Uani
O22 O 0.1411(3) 0.5972(3) 0.4504(2) 0.0111 Uani
S1 S 0.74792(10) 0.43444(9) 0.49115(9) 0.0083 Uani
S2 S 0.27986(10) 0.22910(10) 0.73222(9) 0.0089 Uani
O1 O 0.8224(3) 0.5608(3) 0.4438(2) 0.0103 Uani
O2 O 0.8589(3) 0.4028(3) 0.5496(2) 0.0111 Uani
O3 O 0.6445(3) 0.3182(3) 0.4096(2) 0.0137 Uani
O4 O 0.1548(3) 0.2658(3) 0.7221(2) 0.0115 Uani
O5 O 0.3014(3) 0.2051(3) 0.8465(2) 0.0107 Uani
N3 N 0.4626(4) 0.6768(3) 0.9309(3) 0.0096 Uani
N4 N 0.3089(4) 0.4557(3) 0.9314(3) 0.0105 Uani
H1 H 0.2682 0.3673 0.9134 0.0130 Uiso
C13 C 0.4219(4) 0.5470(4) 0.8810(3) 0.0097 Uani
C14 C 0.4921(4) 0.5101(4) 0.7834(3) 0.0080 Uani
C15 C 0.6200(4) 0.6181(4) 0.7548(4) 0.0130 Uani
H8 H 0.6541 0.7056 0.7978 0.0150 Uiso
C16 C 0.6973(4) 0.5992(4) 0.6648(4) 0.0121 Uani
H9 H 0.7824 0.6725 0.6485 0.0150 Uiso
C17 C 0.5183(4) 0.3598(4) 0.6235(4) 0.0108 Uani
H10 H 0.4840 0.2733 0.5787 0.0130 Uiso
C18 C 0.4421(4) 0.3793(4) 0.7141(4) 0.0091 Uani
O9 O 0.2677(3) 0.1189(3) 0.6435(3) 0.0122 Uani
C20 C 0.6456(4) 0.4693(4) 0.5996(3) 0.0091 Uani
C30 C 0.0798(5) 0.6730(4) 0.8603(4) 0.0141 Uani
H18 H 0.1560 0.7619 0.8655 0.0170 Uiso
C31 C 0.0839(4) 0.5635(4) 0.7870(4) 0.0118 Uani
H19 H 0.1651 0.5819 0.7445 0.0140 Uiso
Eu7 Eu 0.95466(2) 0.254058(19) 0.603778(17) 0.0079 Uani
O20 O 0.1776(3) 0.4392(3) 0.5562(2) 0.0103 Uani
O7 O 0.9035(3) 0.0198(3) 0.6147(2) 0.0092 Uani
O6 O 0.9521(3) 0.8430(3) 0.5462(2) 0.0122 Uani
C9 C 0.9202(5) 0.3270(4) 0.1397(4) 0.0141 Uani
H6 H 0.8440 0.2381 0.1345 0.0170 Uiso
C10 C 0.9161(4) 0.4365(4) 0.2130(4) 0.0118 Uani
H7 H 0.8349 0.4181 0.2555 0.0140 Uiso
C19 C 0.9582(4) 0.9604(4) 0.5465(3) 0.0093 Uani
S3 S 0.25208(10) 0.56556(9) 0.50885(9) 0.0083 Uani
S4 S 0.72014(10) 0.77090(10) 0.26778(9) 0.0089 Uani
O14 O 0.3555(3) 0.6818(3) 0.5904(2) 0.0137 Uani
O15 O 0.8452(3) 0.7342(3) 0.2779(2) 0.0115 Uani
O16 O 0.6986(3) 0.7949(3) 0.1535(2) 0.0107 Uani
N7 N 0.5374(4) 0.3232(3) 0.0691(3) 0.0096 Uani
N8 N 0.6911(4) 0.5443(3) 0.0686(3) 0.0105 Uani
H13 H 0.7318 0.6327 0.0866 0.0130 Uiso
C34 C 0.5781(4) 0.4530(4) 0.1190(3) 0.0097 Uani
C35 C 0.5079(4) 0.4899(4) 0.2166(3) 0.0080 Uani
C36 C 0.3800(4) 0.3819(4) 0.2452(4) 0.0130 Uani
H20 H 0.3459 0.2944 0.2022 0.0150 Uiso
C37 C 0.3027(4) 0.4008(4) 0.3352(4) 0.0121 Uani
H21 H 0.2176 0.3275 0.3515 0.0150 Uiso
C38 C 0.4817(4) 0.6402(4) 0.3765(4) 0.0108 Uani
H22 H 0.5160 0.7267 0.4213 0.0130 Uiso
C39 C 0.5579(4) 0.6207(4) 0.2859(4) 0.0091 Uani
O18 O 0.7323(3) 0.8811(3) 0.3565(3) 0.0122 Uani
C40 C 0.3544(4) 0.5307(4) 0.4004(3) 0.0091 Uani
O17 O 0.7319(3) 0.1178(3) 0.4703(3) 0.0166 Uani
N5 N 0.7569(4) 0.1726(3) 0.7426(3) 0.0100 Uani
N6 N 0.9778(3) 0.4341(3) 0.7746(3) 0.0092 Uani
C22 C 0.6548(4) 0.0414(4) 0.7318(4) 0.0130 Uani
C24 C 0.5306(4) 0.0871(4) 0.8880(4) 0.0120 Uani
H16 H 0.4548 0.0582 0.9356 0.0140 Uiso
C25 C 0.6353(4) 0.2268(4) 0.9014(4) 0.0091 Uani
C26 C 0.6296(4) 0.3332(4) 0.9850(3) 0.0094 Uani
C27 C 0.7278(4) 0.4695(4) 0.9840(4) 0.0099 Uani
C28 C 0.8494(4) 0.5123(4) 0.9156(3) 0.0100 Uani
C29 C 0.9617(4) 0.6476(4) 0.9244(4) 0.0135 Uani
H17 H 0.9562 0.7192 0.9732 0.0160 Uiso
C32 C 0.7474(4) 0.2644(4) 0.8277(3) 0.0088 Uani
C33 C 0.8607(4) 0.4082(4) 0.8395(3) 0.0081 Uani
H23 H 0.7544 0.0684 0.4196 0.0560 Uiso
H24 H 0.7044 0.1589 0.4254 0.0560 Uiso
H14 H 0.6588 0.9777 0.6733 0.0160 Uiso
C23 C 0.5421(4) 0.9952(4) 0.8041(4) 0.0132 Uani
H15 H 0.4754 0.9022 0.7950 0.0160 Uiso
loop_
_atom_site_aniso_label
_atom_site_aniso_U_11
_atom_site_aniso_U_22
_atom_site_aniso_U_33
_atom_site_aniso_U_23
_atom_site_aniso_U_13
_atom_site_aniso_U_12
Eu4 0.00766 0.00649 0.00958 -0.00043 0.00062 0.00364
C2 0.0084 0.0093 0.021 0.0007 0.002 0.0034
O10 0.0172 0.0058 0.0135 0.0011 0.0055 0.0048
C21 0.0073 0.0105 0.008 0.0004 -0.0011 0.0023
O8 0.0158 0.014 0.0214 -0.0033 -0.0049 0.01
N1 0.0091 0.0101 0.0128 -0.0014 0.001 0.0071
N2 0.0075 0.0107 0.0083 -0.0009 -0.0016 0.0038
C1 0.013 0.0084 0.016 -0.0022 0.0008 0.0046
C3 0.009 0.015 0.015 0.0042 0.0064 0.0073
C4 0.008 0.0087 0.012 0.0018 -0.0014 0.0051
C5 0.0104 0.0125 0.007 0.0017 -0.0008 0.0068
C6 0.0081 0.013 0.011 -0.0006 0.001 0.0076
C7 0.012 0.014 0.006 0.0025 -0.0006 0.0075
C8 0.016 0.0088 0.014 -0.0033 0 0.0054
C11 0.0087 0.0089 0.009 0.0002 0 0.0046
C12 0.0078 0.0112 0.008 0.0012 0.0017 0.0066
O11 0.0097 0.0069 0.0112 -0.0005 0.0038 0.0042
O22 0.0084 0.0092 0.0173 0.0021 -0.0008 0.0056
S1 0.0082 0.0074 0.0095 0.0006 0.0014 0.0038
S2 0.0076 0.0069 0.0113 0.0001 0.0005 0.0027
O1 0.0122 0.0084 0.0135 0.0031 0.0075 0.0068
O2 0.0084 0.0092 0.0173 0.0021 -0.0008 0.0056
O3 0.0125 0.0117 0.0151 -0.0019 -0.0002 0.0049
O4 0.0082 0.0091 0.0153 0.0001 -0.002 0.0028
O5 0.0115 0.0104 0.0121 0.0029 0.0013 0.0062
N3 0.0084 0.0128 0.0082 0.0012 0.0029 0.0053
N4 0.0112 0.007 0.0115 -0.0021 0.0013 0.0033
C13 0.0085 0.012 0.009 0.0023 0.001 0.0048
C14 0.0088 0.0109 0.006 0.0009 0.001 0.0061
C15 0.0111 0.0083 0.018 -0.0013 0.001 0.0038
C16 0.0112 0.011 0.013 0.0027 0.0026 0.0036
C17 0.014 0.0087 0.01 -0.0025 -0.0018 0.0066
C18 0.0093 0.0045 0.013 0.0019 -0.0004 0.0024
O9 0.0098 0.0093 0.0173 -0.0017 0.0049 0.0049
C20 0.0085 0.0127 0.008 0.0006 0.0031 0.0067
C30 0.016 0.011 0.012 0.0011 0.002 0.0031
C31 0.012 0.0098 0.014 0.0012 0.0036 0.0051
Eu7 0.00766 0.00649 0.00958 -0.00043 0.00062 0.00364
O20 0.0122 0.0084 0.0135 0.0031 0.0075 0.0068
O7 0.0097 0.0069 0.0112 -0.0005 0.0038 0.0042
O6 0.0172 0.0058 0.0135 0.0011 0.0055 0.0048
C9 0.016 0.011 0.012 0.0011 0.002 0.0031
C10 0.012 0.0098 0.014 0.0012 0.0036 0.0051
C19 0.0073 0.0105 0.008 0.0004 -0.0011 0.0023
S3 0.0082 0.0074 0.0095 0.0006 0.0014 0.0038
S4 0.0076 0.0069 0.0113 0.0001 0.0005 0.0027
O14 0.0125 0.0117 0.0151 -0.0019 -0.0002 0.0049
O15 0.0082 0.0091 0.0153 0.0001 -0.002 0.0028
O16 0.0115 0.0104 0.0121 0.0029 0.0013 0.0062
N7 0.0084 0.0128 0.0082 0.0012 0.0029 0.0053
N8 0.0112 0.007 0.0115 -0.0021 0.0013 0.0033
C34 0.0085 0.012 0.009 0.0023 0.001 0.0048
C35 0.0088 0.0109 0.006 0.0009 0.001 0.0061
C36 0.0111 0.0083 0.018 -0.0013 0.001 0.0038
C37 0.0112 0.011 0.013 0.0027 0.0026 0.0036
C38 0.014 0.0087 0.01 -0.0025 -0.0018 0.0066
C39 0.0093 0.0045 0.013 0.0019 -0.0004 0.0024
O18 0.0098 0.0093 0.0173 -0.0017 0.0049 0.0049
C40 0.0085 0.0127 0.008 0.0006 0.0031 0.0067
O17 0.0158 0.014 0.0214 -0.0033 -0.0049 0.01
N5 0.0091 0.0101 0.0128 -0.0014 0.001 0.0071
N6 0.0075 0.0107 0.0083 -0.0009 -0.0016 0.0038
C22 0.013 0.0084 0.016 -0.0022 0.0008 0.0046
C24 0.009 0.015 0.015 0.0042 0.0064 0.0073
C25 0.008 0.0087 0.012 0.0018 -0.0014 0.0051
C26 0.0104 0.0125 0.007 0.0017 -0.0008 0.0068
C27 0.0081 0.013 0.011 -0.0006 0.001 0.0076
C28 0.012 0.014 0.006 0.0025 -0.0006 0.0075
C29 0.016 0.0088 0.014 -0.0033 0 0.0054
C32 0.0087 0.0089 0.009 0.0002 0 0.0046
C33 0.0078 0.0112 0.008 0.0012 0.0017 0.0066
C23 0.0084 0.0093 0.021 0.0007 0.002 0.0034
loop_
_geom_bond_atom_site_label_1
_geom_bond_atom_site_label_2
_geom_bond_site_symmetry_1
_geom_bond_site_symmetry_2
H3 C2 1_555 1_555
O10 C21 1_555 1_555
O8 Eu4 1_555 1_555
N1 Eu4 1_555 1_555
N2 Eu4 1_555 1_555
C1 N1 1_555 1_555
H4 C3 1_555 1_555
C4 C3 1_555 1_555
C5 C4 1_555 1_555
C7 C6 1_555 1_555
C8 C7 1_555 1_555
H5 C8 1_555 1_555
C11 N1 1_555 1_555
C12 N2 1_555 1_555
H11 O8 1_555 1_555
H12 O8 1_555 1_555
O11 Eu4 1_555 1_555
O22 Eu4 1_555 1_555
C4 C11 1_555 1_555
C5 C6 1_555 1_555
C7 C12 1_555 1_555
C11 C12 1_555 1_555
S1 O1 1_555 1_555
S2 O4 1_555 1_555
O2 S1 1_555 1_555
O3 S1 1_555 1_555
O5 S2 1_555 1_555
N4 H1 1_555 1_555
C13 N3 1_555 1_555
C14 C13 1_555 1_555
C15 C14 1_555 1_555
H8 C15 1_555 1_555
C16 C15 1_555 1_555
H9 C16 1_555 1_555
C17 H10 1_555 1_555
C18 S2 1_555 1_555
O9 S2 1_555 1_555
C20 S1 1_555 1_555
H18 C30 1_555 1_555
H19 C31 1_555 1_555
Eu7 O2 1_555 1_555
N4 C13 1_555 1_555
C14 C18 1_555 1_555
C16 C20 1_555 1_555
C17 C18 1_555 1_555
C17 C20 1_555 1_555
C30 C31 1_555 1_555
Eu7 O7 1_555 1_555
O6 C19 1_555 1_555
H6 C9 1_555 1_555
H7 C10 1_555 1_555
S3 O20 1_555 1_555
S4 O15 1_555 1_555
O22 S3 1_555 1_555
O14 S3 1_555 1_555
O16 S4 1_555 1_555
N8 H13 1_555 1_555
C34 N7 1_555 1_555
C35 C34 1_555 1_555
C36 C35 1_555 1_555
H20 C36 1_555 1_555
C37 C36 1_555 1_555
H21 C37 1_555 1_555
C38 H22 1_555 1_555
C39 S4 1_555 1_555
O18 S4 1_555 1_555
C40 S3 1_555 1_555
C9 C10 1_555 1_555
N8 C34 1_555 1_555
C35 C39 1_555 1_555
C37 C40 1_555 1_555
C38 C39 1_555 1_555
C38 C40 1_555 1_555
Eu7 O17 1_555 1_555
O17 H23 1_555 1_555
N5 Eu7 1_555 1_555
N6 Eu7 1_555 1_555
C22 N5 1_555 1_555
H16 C24 1_555 1_555
C25 C24 1_555 1_555
C26 C25 1_555 1_555
C28 C27 1_555 1_555
C29 C28 1_555 1_555
H17 C29 1_555 1_555
C32 N5 1_555 1_555
C33 N6 1_555 1_555
H24 O17 1_555 1_555
C25 C32 1_555 1_555
C26 C27 1_555 1_555
C28 C33 1_555 1_555
C32 C33 1_555 1_555
H15 C23 1_555 1_555

#END
