
###############################################################################
#
# This file contains modified crystal structure data generated from the
# MOF subset of the Cambridge Structural Database (CSD) v543 
# hosted by the Cambridge Crystallographic Data Centre (CCDC).
#
# This work is licensed under the Creative Commons
# Attribution-NonCommercial-ShareAlike 4.0 International License.
# To view a copy of this license, visit
# http://creativecommons.org/licenses/by-nc-sa/4.0/
# or send a letter to
# Creative Commons, PO Box 1866, Mountain View, CA 94042, USA.
#
# CIF created using the CSD Python API on 29 September 2022
# The structure has been converted into the P1 space group
# The structure has a 3D framework
# The original CSD entry UXEHIP is in the orthorhombic crystal system
# The original CSD entry UXEHIP is in a Sohncke space group
# The framework has been calculated to contain at least 10.0% void space
# The void calculation uses a probe of radius 1.32A, grid spacing 0.4
#
###############################################################################

data_UXEHIP
_chemical_formula_moiety         '(C148 H112 N16 O24 Zn3)n'
_symmetry_cell_setting           triclinic
_symmetry_space_group_name_H-M   'P 1'
_symmetry_Int_Tables_number      1
_space_group_name_Hall           'P 1'
loop_
_symmetry_equiv_pos_site_id
_symmetry_equiv_pos_as_xyz
1 x,y,z
_cell_length_a                   11.683(10)
_cell_length_b                   15.571(14)
_cell_length_c                   26.71(2)
_cell_angle_alpha                90
_cell_angle_beta                 90
_cell_angle_gamma                90
_cell_volume                     4858.98
loop_
_atom_site_label
_atom_site_type_symbol
_atom_site_fract_x
_atom_site_fract_y
_atom_site_fract_z
N3 N 0.3481(4) 0.1488(4) 0.8078(2)
N4 N 0.2041(6) 0.2175(5) 0.8442(3)
C31 C 0.0038(8) 0.2462(7) 0.8512(3)
C34 C 0.1128(7) 0.2353(6) 0.8760(3)
H24 H 0.1301 0.2874 0.8945
H25 H 0.1061 0.1889 0.9001
C35 C 0.2381(7) 0.2678(6) 0.8040(4)
H26 H 0.2054 0.3193 0.7937
C36 C 0.3261(7) 0.2283(5) 0.7831(3)
H27 H 0.3678 0.2494 0.7562
C37 C 0.2720(6) 0.1532(6) 0.8441(3)
H28 H 0.2678 0.1112 0.8688
Zn3 Zn 0.47196(6) 0.06649(5) 0.79572(3)
O1 O 0.5806(3) 0.0911(3) 0.84898(16)
O2 O 0.4575(4) 0.0181(4) 0.89376(15)
C1 C 0.5494(7) 0.0577(5) 0.8895(3)
C2 C 0.7015(6) 0.1329(5) 0.9354(3)
H3 H 0.7178 0.1618 0.9058
C3 C 0.6153(6) 0.0762(5) 0.9361(3)
C4 C 0.5925(6) 0.0329(4) 0.9812(3)
C7 C 0.7668(6) 0.1500(5) 0.9773(3)
C8 C 0.8464(7) 0.2148(5) 0.9757(3)
H4 H 0.8564 0.2457 0.9462
O7 O 0.5241(4) 0.1123(3) 0.73199(16)
O3 O 0.9965(4) 0.0249(3) 0.48341(14)
O5 O 0.6520(5) 0.0096(4) 0.73667(17)
C12 C 0.6076(7) 0.0711(6) 0.7130(3)
C13 C 0.6047(7) 0.1598(5) 0.6364(2)
H8 H 0.5448 0.1908 0.6506
C14 C 0.6499(7) 0.0902(5) 0.6603(2)
C15 C 0.7416(7) 0.0469(5) 0.6413(3)
C16 C 0.7809(6) 0.0603(5) 0.5935(3)
C17 C 0.7375(7) 0.1320(5) 0.5686(3)
C18 C 0.6504(7) 0.1833(5) 0.5904(3)
C19 C 0.6019(7) 0.2520(5) 0.5647(3)
H9 H 0.5398 0.2803 0.5789
C20 C 0.6414(8) 0.2792(5) 0.5199(3)
H10 H 0.6073 0.3238 0.5022
C21 C 0.7401(8) 0.2341(6) 0.5017(3)
H11 H 0.7814 0.2583 0.4755
C22 C 0.7761(6) 0.1582(5) 0.5206(3)
H12 H 0.8257 0.1235 0.5024
C23 C 0.8712(6) 0.0076(4) 0.5716(2)
H14 H 0.9352 0.0453 0.5643
Zn1 Zn 0.52804(6) 0.56649(5) 0.70428(3)
N1 N 0.5937(5) 0.4545(4) 0.7154(2)
N2 N 0.6479(6) 0.3328(5) 0.7557(3)
O1_2 O 0.4194(3) 0.5911(3) 0.65102(16)
O2_2 O 0.5425(4) 0.5181(4) 0.60624(15)
O3_2 O 0.4965(4) 0.4751(3) 0.51659(14)
H1 H 0.5285 0.4729 0.5439
O4 O 0.0241(4) 0.3877(3) 0.26801(16)
O5_2 O 0.1520(5) 0.4904(4) 0.26333(17)
O6 O 0.2888(4) 0.5216(3) 0.33336(16)
H2 H 0.2575 0.5268 0.3060
C1_2 C 0.4506(7) 0.5577(5) 0.6105(3)
C2_2 C 0.2985(6) 0.6329(5) 0.5646(3)
H3_2 H 0.2822 0.6618 0.5942
C3_2 C 0.3847(6) 0.5762(5) 0.5639(3)
C4_2 C 0.4075(6) 0.5329(4) 0.5188(3)
C5 C 0.3480(6) 0.5443(4) 0.4749(2)
C6 C 0.2572(7) 0.6025(5) 0.4757(3)
C7_2 C 0.2332(6) 0.6500(5) 0.5227(3)
C8_2 C 0.1536(7) 0.7148(5) 0.5243(3)
H4_2 H 0.1436 0.7457 0.5538
C9 C 0.0877(7) 0.7349(5) 0.4827(3)
H5 H 0.0333 0.7784 0.4839
C10 C 0.1061(7) 0.6872(6) 0.4385(3)
H6 H 0.0621 0.6985 0.4102
C11 C 0.1883(7) 0.6245(5) 0.4368(3)
H7 H 0.1976 0.5948 0.4069
C12_2 C 0.1076(7) 0.4289(6) 0.2870(3)
C13_2 C 0.1047(7) 0.3402(5) 0.3636(2)
H8_2 H 0.0448 0.3092 0.3494
C14_2 C 0.1499(7) 0.4098(5) 0.3397(2)
C15_2 C 0.2416(7) 0.4531(5) 0.3587(3)
C16_2 C 0.2809(6) 0.4397(5) 0.4065(3)
C17_2 C 0.2375(7) 0.3680(5) 0.4314(3)
C18_2 C 0.1504(7) 0.3167(5) 0.4096(3)
C19_2 C 0.1019(7) 0.2480(5) 0.4353(3)
H9_2 H 0.0398 0.2197 0.4211
C20_2 C 0.1414(8) 0.2208(5) 0.4801(3)
H10_2 H 0.1073 0.1762 0.4978
C21_2 C 0.2401(8) 0.2659(6) 0.4983(3)
H11_2 H 0.2814 0.2417 0.5245
C22_2 C 0.2761(6) 0.3418(5) 0.4794(3)
H12_2 H 0.3257 0.3765 0.4976
C23_2 C 0.3712(6) 0.4924(4) 0.4284(2)
H13 H 0.3968 0.5321 0.4027
H14_2 H 0.4352 0.4547 0.4357
C24 C 0.5880(6) 0.4064(5) 0.7554(3)
H15 H 0.5438 0.4226 0.7828
C25 C 0.6668(7) 0.4045(6) 0.6865(3)
H16 H 0.6882 0.4169 0.6537
C26 C 0.7025(9) 0.3352(6) 0.7127(4)
H17 H 0.7568 0.2956 0.7020
C27 C 0.6585(7) 0.2694(5) 0.7940(3)
H18 H 0.6322 0.2144 0.7814
H19 H 0.6109 0.2851 0.8223
C28 C 0.7780(9) 0.2621(6) 0.8102(3)
C29 C 0.8350(7) 0.1853(6) 0.8139(3)
H20 H 0.7991 0.1365 0.8015
C30 C 0.9432(8) 0.1759(6) 0.8350(3)
H21 H 0.9748 0.1213 0.8381
C32 C 0.9490(9) 0.3240(7) 0.8479(3)
H22 H 0.9862 0.3730 0.8593
C33 C 0.8404(9) 0.3313(6) 0.8282(3)
H23 H 0.8072 0.3856 0.8269
N5 N 0.6519(4) 0.6488(4) 0.6922(2)
O7_2 O 0.4759(4) 0.6123(3) 0.76801(16)
O1_3 O 0.0806(3) 0.4089(3) 0.15102(16)
O3_3 O 0.0035(4) 0.5249(3) 0.01659(14)
C1_3 C 0.0494(7) 0.4423(5) 0.1105(3)
C2_3 C 0.2015(6) 0.3671(5) 0.0646(3)
H3_3 H 0.2178 0.3382 0.0942
C3_3 C 0.1153(6) 0.4238(5) 0.0639(3)
C4_3 C 0.0925(6) 0.4671(4) 0.0188(3)
C7_3 C 0.2668(6) 0.3500(5) 0.0227(3)
C8_3 C 0.3464(7) 0.2852(5) 0.0243(3)
H4_3 H 0.3564 0.2543 0.0538
H11_3 H 0.2186 0.7583 0.0245
O5_3 O 0.3480(5) 0.5096(4) 0.76333(17)
O6_2 O 0.2112(4) 0.4784(3) 0.83336(16)
H2_2 H 0.2425 0.4732 0.8060
C5_2 C 0.1520(6) 0.4557(4) 0.9749(2)
C6_2 C 0.2428(7) 0.3975(5) 0.9757(3)
C9_2 C 0.4123(7) 0.2651(5) 0.9827(3)
H5_2 H 0.4667 0.2216 0.9839
C10_2 C 0.3939(7) 0.3128(6) 0.9385(3)
H6_2 H 0.4379 0.3015 0.9102
C11_2 C 0.3117(7) 0.3755(5) 0.9368(3)
H7_2 H 0.3024 0.4052 0.9069
C12_3 C 0.3924(7) 0.5711(6) 0.7870(3)
C13_3 C 0.3953(7) 0.6598(5) 0.8636(2)
H8_3 H 0.4552 0.6908 0.8494
C14_3 C 0.3501(7) 0.5902(5) 0.8397(2)
C15_3 C 0.2584(7) 0.5469(5) 0.8587(3)
C16_3 C 0.2191(6) 0.5603(5) 0.9065(3)
C17_3 C 0.2625(7) 0.6320(5) 0.9314(3)
C18_3 C 0.3496(7) 0.6833(5) 0.9096(3)
C19_3 C 0.3981(7) 0.7520(5) 0.9353(3)
H9_3 H 0.4602 0.7803 0.9211
C20_3 C 0.3586(8) 0.7792(5) 0.9801(3)
H10_3 H 0.3927 0.8238 0.9978
C21_3 C 0.2599(8) 0.7341(6) 0.9983(3)
C22_3 C 0.2239(6) 0.6582(5) 0.9794(3)
H12_3 H 0.1743 0.6235 0.9976
C23_3 C 0.1288(6) 0.5076(4) 0.9284(2)
H13_2 H 0.1032 0.4679 0.9027
H14_3 H 0.0648 0.5453 0.9357
N4_2 N 0.7959(6) 0.7175(5) 0.6558(3)
C31_2 C 0.9962(8) 0.7462(7) 0.6488(3)
C34_2 C 0.8872(7) 0.7353(6) 0.6240(3)
H24_2 H 0.8699 0.7874 0.6055
H25_2 H 0.8939 0.6889 0.5999
C35_2 C 0.7619(7) 0.7678(6) 0.6960(4)
H26_2 H 0.7946 0.8193 0.7063
C36_2 C 0.6739(7) 0.7283(5) 0.7169(3)
H27_2 H 0.6322 0.7494 0.7438
C37_2 C 0.7280(6) 0.6532(6) 0.6559(3)
H28_2 H 0.7322 0.6112 0.6312
Zn2 Zn 0.97196(6) 0.43351(5) 0.20428(3)
N1_2 N 0.9063(5) 0.5455(4) 0.2154(2)
N2_2 N 0.8521(6) 0.6672(5) 0.2557(3)
N3_2 N 0.1519(4) 0.8512(4) 0.3078(2)
N4_3 N 0.2959(6) 0.7825(5) 0.3442(3)
O2_3 O 0.9575(4) 0.4819(4) 0.10624(15)
H1_2 H 0.9715 0.5271 0.0439
C24_2 C 0.9120(6) 0.5936(5) 0.2554(3)
H15_2 H 0.9562 0.5774 0.2828
C25_2 C 0.8332(7) 0.5955(6) 0.1865(3)
H16_2 H 0.8118 0.5831 0.1537
C26_2 C 0.7975(9) 0.6648(6) 0.2127(4)
H17_2 H 0.7432 0.7044 0.2020
C27_2 C 0.8415(7) 0.7306(5) 0.2940(3)
H18_2 H 0.8678 0.7856 0.2814
H19_2 H 0.8891 0.7149 0.3223
C28_2 C 0.7220(9) 0.7379(6) 0.3102(3)
C29_2 C 0.6650(7) 0.8147(6) 0.3139(3)
H20_2 H 0.7009 0.8635 0.3015
C30_2 C 0.5568(8) 0.8241(6) 0.3350(3)
H21_2 H 0.5252 0.8787 0.3381
C31_3 C 0.4962(8) 0.7538(7) 0.3512(3)
C32_2 C 0.5510(9) 0.6760(7) 0.3479(3)
H22_2 H 0.5138 0.6270 0.3593
C33_2 C 0.6596(9) 0.6687(6) 0.3282(3)
H23_2 H 0.6928 0.6144 0.3269
C34_3 C 0.3872(7) 0.7647(6) 0.3760(3)
H24_3 H 0.3699 0.7126 0.3945
H25_3 H 0.3939 0.8111 0.4001
C35_3 C 0.2619(7) 0.7322(6) 0.3040(4)
H26_3 H 0.2946 0.6807 0.2937
C36_3 C 0.1739(7) 0.7717(5) 0.2831(3)
H27_3 H 0.1322 0.7506 0.2562
C37_3 C 0.2280(6) 0.8468(6) 0.3441(3)
H28_3 H 0.2322 0.8888 0.3688
Zn3_2 Zn 0.02804(6) 0.93351(5) 0.29572(3)
N5_2 N 0.8481(4) 0.3512(4) 0.1922(2)
N1_3 N 0.0937(5) 0.0455(4) 0.2846(2)
N2_3 N 0.1479(6) 0.1672(5) 0.2443(3)
N4_4 N 0.7041(6) 0.2825(5) 0.1558(3)
H1_3 H 0.0285 0.0271 0.4561
C24_3 C 0.0880(6) 0.0936(5) 0.2446(3)
H15_3 H 0.0438 0.0774 0.2172
C25_3 C 0.1668(7) 0.0955(6) 0.3135(3)
H16_3 H 0.1882 0.0831 0.3463
C26_3 C 0.2025(9) 0.1648(6) 0.2873(4)
H17_3 H 0.2568 0.2044 0.2980
C27_3 C 0.1585(7) 0.2306(5) 0.2060(3)
H18_3 H 0.1322 0.2856 0.2186
H19_3 H 0.1109 0.2149 0.1777
C28_3 C 0.2780(9) 0.2379(6) 0.1898(3)
C29_3 C 0.3350(7) 0.3147(6) 0.1861(3)
H20_3 H 0.2991 0.3635 0.1985
C30_3 C 0.4432(8) 0.3241(6) 0.1650(3)
H21_3 H 0.4748 0.3787 0.1619
C31_4 C 0.5038(8) 0.2538(7) 0.1488(3)
C32_3 C 0.4490(9) 0.1760(7) 0.1521(3)
H22_3 H 0.4862 0.1270 0.1407
C33_3 C 0.3404(9) 0.1687(6) 0.1718(3)
H23_3 H 0.3072 0.1144 0.1731
C34_4 C 0.6128(7) 0.2647(6) 0.1240(3)
H24_4 H 0.6301 0.2126 0.1055
H25_4 H 0.6061 0.3111 0.0999
C35_4 C 0.7381(7) 0.2322(6) 0.1960(4)
H26_4 H 0.7054 0.1807 0.2063
C36_4 C 0.8261(7) 0.2717(5) 0.2169(3)
H27_4 H 0.8678 0.2506 0.2438
C37_4 C 0.7720(6) 0.3468(6) 0.1559(3)
H28_4 H 0.7678 0.3888 0.1312
O2_4 O 0.0425(4) 0.9819(4) 0.39376(15)
O6_3 O 0.7112(4) 0.0216(3) 0.16664(16)
H2_3 H 0.7425 0.0268 0.1940
C5_3 C 0.6520(6) 0.0443(4) 0.0251(2)
C6_3 C 0.7428(7) 0.1025(5) 0.0243(3)
C9_3 C 0.9123(7) 0.2349(5) 0.0173(3)
H5_3 H 0.9667 0.2784 0.0161
C10_3 C 0.8939(7) 0.1872(6) 0.0615(3)
H6_3 H 0.9379 0.1985 0.0898
C11_3 C 0.8117(7) 0.1245(5) 0.0632(3)
H7_3 H 0.8024 0.0948 0.0931
H13_3 H 0.6032 0.0321 0.0973
O4_2 O 0.9759(4) 0.8877(3) 0.23199(16)
O5_4 O 0.8480(5) 0.9904(4) 0.23667(17)
C12_4 C 0.8924(7) 0.9289(6) 0.2130(3)
C13_4 C 0.8953(7) 0.8402(5) 0.1364(2)
H8_4 H 0.9552 0.8092 0.1506
C14_4 C 0.8501(7) 0.9098(5) 0.1603(2)
C15_4 C 0.7584(7) 0.9531(5) 0.1413(3)
C16_4 C 0.7191(6) 0.9397(5) 0.0935(3)
C17_4 C 0.7625(7) 0.8680(5) 0.0686(3)
C18_4 C 0.8496(7) 0.8167(5) 0.0904(3)
C19_4 C 0.8981(7) 0.7480(5) 0.0647(3)
H9_4 H 0.9602 0.7197 0.0789
C20_4 C 0.8586(8) 0.7208(5) 0.0199(3)
H10_4 H 0.8927 0.6762 0.0022
C21_4 C 0.7599(8) 0.7659(6) 0.0017(3)
C22_4 C 0.7239(6) 0.8418(5) 0.0206(3)
H12_4 H 0.6743 0.8765 0.0024
C23_4 C 0.6288(6) 0.9924(4) 0.0716(2)
H14_4 H 0.5648 0.9547 0.0643
O1_4 O 0.9194(3) 0.9089(3) 0.34898(16)
O6_4 O 0.7888(4) 0.9784(3) 0.66664(16)
H2_4 H 0.7575 0.9732 0.6940
C1_4 C 0.9506(7) 0.9423(5) 0.3895(3)
C2_4 C 0.7985(6) 0.8671(5) 0.4354(3)
H3_4 H 0.7822 0.8382 0.4058
C3_4 C 0.8847(6) 0.9238(5) 0.4361(3)
C4_4 C 0.9075(6) 0.9671(4) 0.4812(3)
C5_4 C 0.8480(6) 0.9557(4) 0.5251(2)
C6_4 C 0.7572(7) 0.8975(5) 0.5243(3)
C7_4 C 0.7332(6) 0.8500(5) 0.4773(3)
C8_4 C 0.6536(7) 0.7852(5) 0.4757(3)
H4_4 H 0.6436 0.7543 0.4462
C9_4 C 0.5877(7) 0.7651(5) 0.5173(3)
H5_4 H 0.5333 0.7216 0.5161
C10_4 C 0.6061(7) 0.8128(6) 0.5615(3)
H6_4 H 0.5621 0.8015 0.5898
C11_4 C 0.6883(7) 0.8755(5) 0.5632(3)
H7_4 H 0.6976 0.9052 0.5931
H13_4 H 0.8968 0.9679 0.5973
N1_4 N 0.4063(5) 0.9545(4) 0.7846(2)
N2_4 N 0.3521(6) 0.8328(5) 0.7443(3)
O3_4 O 0.5035(4) 0.9751(3) 0.98341(14)
H1_4 H 0.4715 0.9729 0.9561
H11_4 H 0.7186 0.7417 0.9755
C24_4 C 0.4120(6) 0.9064(5) 0.7446(3)
H15_4 H 0.4562 0.9226 0.7172
C25_4 C 0.3332(7) 0.9045(6) 0.8135(3)
H16_4 H 0.3118 0.9169 0.8463
C26_4 C 0.2975(9) 0.8352(6) 0.7873(4)
H17_4 H 0.2432 0.7956 0.7980
C27_4 C 0.3415(7) 0.7694(5) 0.7060(3)
H18_4 H 0.3678 0.7144 0.7186
H19_4 H 0.3891 0.7851 0.6777
C28_4 C 0.2220(9) 0.7621(6) 0.6898(3)
C29_4 C 0.1650(7) 0.6853(6) 0.6861(3)
H20_4 H 0.2009 0.6365 0.6985
C30_4 C 0.0568(8) 0.6759(6) 0.6650(3)
H21_4 H 0.0252 0.6213 0.6619
C32_4 C 0.0510(9) 0.8240(7) 0.6521(3)
H22_4 H 0.0138 0.8730 0.6407
C33_4 C 0.1596(9) 0.8313(6) 0.6718(3)
H23_4 H 0.1928 0.8856 0.6731
loop_
_geom_bond_atom_site_label_1
_geom_bond_atom_site_label_2
_geom_bond_site_symmetry_1
_geom_bond_site_symmetry_2
N3 C36 1_555 1_555
N4 C34 1_555 1_555
C34 C31 1_555 1_555
H24 C34 1_555 1_555
H25 C34 1_555 1_555
C35 N4 1_555 1_555
H26 C35 1_555 1_555
C36 C35 1_555 1_555
H27 C36 1_555 1_555
C37 N3 1_555 1_555
H28 C37 1_555 1_555
Zn3 N3 1_555 1_555
N4 C37 1_555 1_555
O1 Zn3 1_555 1_555
O2 C1 1_555 1_555
C1 O1 1_555 1_555
C2 H3 1_555 1_555
C3 C1 1_555 1_555
C7 C2 1_555 1_555
C8 C7 1_555 1_555
H4 C8 1_555 1_555
O7 Zn3 1_555 1_555
C2 C3 1_555 1_555
C3 C4 1_555 1_555
O7 C12 1_555 1_555
O5 C12 1_555 1_555
C12 C14 1_555 1_555
C13 H8 1_555 1_555
C14 C13 1_555 1_555
C16 C15 1_555 1_555
C17 C16 1_555 1_555
C18 C13 1_555 1_555
C19 C18 1_555 1_555
H9 C19 1_555 1_555
C20 C19 1_555 1_555
H10 C20 1_555 1_555
C21 C20 1_555 1_555
H11 C21 1_555 1_555
C22 C17 1_555 1_555
H12 C22 1_555 1_555
H14 C23 1_555 1_555
C14 C15 1_555 1_555
C16 C23 1_555 1_555
C17 C18 1_555 1_555
C21 C22 1_555 1_555
Zn1 N1 1_555 1_555
N1 C24 1_555 1_555
N2 C24 1_555 1_555
O1_2 Zn1 1_555 1_555
O2_2 C1_2 1_555 1_555
O3_2 H1 1_555 1_555
O4 C12_2 1_555 1_555
O5_2 C12_2 1_555 1_555
O6 H2 1_555 1_555
C1_2 O1_2 1_555 1_555
C2_2 H3_2 1_555 1_555
C3_2 C1_2 1_555 1_555
C4_2 O3_2 1_555 1_555
C5 C4_2 1_555 1_555
C6 C5 1_555 1_555
C7_2 C2_2 1_555 1_555
C8_2 C7_2 1_555 1_555
H4_2 C8_2 1_555 1_555
C9 C8_2 1_555 1_555
H5 C9 1_555 1_555
C10 C9 1_555 1_555
H6 C10 1_555 1_555
C11 C6 1_555 1_555
H7 C11 1_555 1_555
C12_2 C14_2 1_555 1_555
C13_2 H8_2 1_555 1_555
C14_2 C13_2 1_555 1_555
C15_2 O6 1_555 1_555
C16_2 C15_2 1_555 1_555
C17_2 C16_2 1_555 1_555
C18_2 C13_2 1_555 1_555
C19_2 C18_2 1_555 1_555
H9_2 C19_2 1_555 1_555
C20_2 C19_2 1_555 1_555
H10_2 C20_2 1_555 1_555
C21_2 C20_2 1_555 1_555
H11_2 C21_2 1_555 1_555
C22_2 C17_2 1_555 1_555
H12_2 C22_2 1_555 1_555
C23_2 C5 1_555 1_555
H13 C23_2 1_555 1_555
H14_2 C23_2 1_555 1_555
C24 H15 1_555 1_555
C25 N1 1_555 1_555
H16 C25 1_555 1_555
C26 N2 1_555 1_555
H17 C26 1_555 1_555
C27 N2 1_555 1_555
H18 C27 1_555 1_555
H19 C27 1_555 1_555
C28 C27 1_555 1_555
C29 C28 1_555 1_555
H20 C29 1_555 1_555
C30 C29 1_555 1_555
H21 C30 1_555 1_555
H22 C32 1_555 1_555
C33 C28 1_555 1_555
H23 C33 1_555 1_555
N5 Zn1 1_555 1_555
O7_2 Zn1 1_555 1_555
C2_2 C3_2 1_555 1_555
C3_2 C4_2 1_555 1_555
C6 C7_2 1_555 1_555
C10 C11 1_555 1_555
C14_2 C15_2 1_555 1_555
C16_2 C23_2 1_555 1_555
C17_2 C18_2 1_555 1_555
C21_2 C22_2 1_555 1_555
C25 C26 1_555 1_555
C32 C33 1_555 1_555
C1_3 O1_3 1_555 1_555
C2_3 H3_3 1_555 1_555
C3_3 C1_3 1_555 1_555
C4_3 O3_3 1_555 1_555
C7_3 C2_3 1_555 1_555
C8_3 C7_3 1_555 1_555
H4_3 C8_3 1_555 1_555
C2_3 C3_3 1_555 1_555
C3_3 C4_3 1_555 1_555
O7_2 C12_3 1_555 1_555
O5_3 C12_3 1_555 1_555
O6_2 H2_2 1_555 1_555
C6_2 C5_2 1_555 1_555
H5_2 C9_2 1_555 1_555
C10_2 C9_2 1_555 1_555
H6_2 C10_2 1_555 1_555
C11_2 C6_2 1_555 1_555
H7_2 C11_2 1_555 1_555
C12_3 C14_3 1_555 1_555
C13_3 H8_3 1_555 1_555
C14_3 C13_3 1_555 1_555
C15_3 O6_2 1_555 1_555
C16_3 C15_3 1_555 1_555
C17_3 C16_3 1_555 1_555
C18_3 C13_3 1_555 1_555
C19_3 C18_3 1_555 1_555
H9_3 C19_3 1_555 1_555
C20_3 C19_3 1_555 1_555
H10_3 C20_3 1_555 1_555
C21_3 C20_3 1_555 1_555
C22_3 C17_3 1_555 1_555
H12_3 C22_3 1_555 1_555
C23_3 C5_2 1_555 1_555
H13_2 C23_3 1_555 1_555
H14_3 C23_3 1_555 1_555
C10_2 C11_2 1_555 1_555
C14_3 C15_3 1_555 1_555
C16_3 C23_3 1_555 1_555
C17_3 C18_3 1_555 1_555
C21_3 C22_3 1_555 1_555
N5 C36_2 1_555 1_555
N4_2 C34_2 1_555 1_555
C34_2 C31_2 1_555 1_555
H24_2 C34_2 1_555 1_555
H25_2 C34_2 1_555 1_555
C35_2 N4_2 1_555 1_555
H26_2 C35_2 1_555 1_555
C36_2 C35_2 1_555 1_555
H27_2 C36_2 1_555 1_555
C37_2 N5 1_555 1_555
H28_2 C37_2 1_555 1_555
N4_2 C37_2 1_555 1_555
Zn2 N1_2 1_555 1_555
N1_2 C24_2 1_555 1_555
N2_2 C24_2 1_555 1_555
N3_2 C36_3 1_555 1_555
N4_3 C34_3 1_555 1_555
C24_2 H15_2 1_555 1_555
C25_2 N1_2 1_555 1_555
H16_2 C25_2 1_555 1_555
C26_2 N2_2 1_555 1_555
H17_2 C26_2 1_555 1_555
C27_2 N2_2 1_555 1_555
H18_2 C27_2 1_555 1_555
H19_2 C27_2 1_555 1_555
C28_2 C27_2 1_555 1_555
C29_2 C28_2 1_555 1_555
H20_2 C29_2 1_555 1_555
C30_2 C29_2 1_555 1_555
H21_2 C30_2 1_555 1_555
C31_3 C30_2 1_555 1_555
C32_2 C31_3 1_555 1_555
H22_2 C32_2 1_555 1_555
C33_2 C28_2 1_555 1_555
H23_2 C33_2 1_555 1_555
C34_3 C31_3 1_555 1_555
H24_3 C34_3 1_555 1_555
H25_3 C34_3 1_555 1_555
C35_3 N4_3 1_555 1_555
H26_3 C35_3 1_555 1_555
C36_3 C35_3 1_555 1_555
H27_3 C36_3 1_555 1_555
C37_3 N3_2 1_555 1_555
H28_3 C37_3 1_555 1_555
Zn3_2 N3_2 1_555 1_555
N5_2 Zn2 1_555 1_555
N4_3 C37_3 1_555 1_555
C25_2 C26_2 1_555 1_555
C32_2 C33_2 1_555 1_555
N1_3 C24_3 1_555 1_555
N2_3 C24_3 1_555 1_555
N5_2 C36_4 1_555 1_555
N4_4 C34_4 1_555 1_555
C24_3 H15_3 1_555 1_555
C25_3 N1_3 1_555 1_555
H16_3 C25_3 1_555 1_555
C26_3 N2_3 1_555 1_555
H17_3 C26_3 1_555 1_555
C27_3 N2_3 1_555 1_555
H18_3 C27_3 1_555 1_555
H19_3 C27_3 1_555 1_555
C28_3 C27_3 1_555 1_555
C29_3 C28_3 1_555 1_555
H20_3 C29_3 1_555 1_555
C30_3 C29_3 1_555 1_555
H21_3 C30_3 1_555 1_555
C31_4 C30_3 1_555 1_555
C32_3 C31_4 1_555 1_555
H22_3 C32_3 1_555 1_555
C33_3 C28_3 1_555 1_555
H23_3 C33_3 1_555 1_555
C34_4 C31_4 1_555 1_555
H24_4 C34_4 1_555 1_555
H25_4 C34_4 1_555 1_555
C35_4 N4_4 1_555 1_555
H26_4 C35_4 1_555 1_555
C36_4 C35_4 1_555 1_555
H27_4 C36_4 1_555 1_555
C37_4 N5_2 1_555 1_555
H28_4 C37_4 1_555 1_555
N4_4 C37_4 1_555 1_555
C25_3 C26_3 1_555 1_555
C32_3 C33_3 1_555 1_555
O6_3 H2_3 1_555 1_555
C6_3 C5_3 1_555 1_555
H5_3 C9_3 1_555 1_555
C10_3 C9_3 1_555 1_555
H6_3 C10_3 1_555 1_555
C11_3 C6_3 1_555 1_555
H7_3 C11_3 1_555 1_555
C10_3 C11_3 1_555 1_555
O4_2 C12_4 1_555 1_555
O5_4 C12_4 1_555 1_555
C12_4 C14_4 1_555 1_555
C13_4 H8_4 1_555 1_555
C14_4 C13_4 1_555 1_555
C16_4 C15_4 1_555 1_555
C17_4 C16_4 1_555 1_555
C18_4 C13_4 1_555 1_555
C19_4 C18_4 1_555 1_555
H9_4 C19_4 1_555 1_555
C20_4 C19_4 1_555 1_555
H10_4 C20_4 1_555 1_555
C21_4 C20_4 1_555 1_555
C22_4 C17_4 1_555 1_555
H12_4 C22_4 1_555 1_555
H14_4 C23_4 1_555 1_555
C14_4 C15_4 1_555 1_555
C16_4 C23_4 1_555 1_555
C17_4 C18_4 1_555 1_555
C21_4 C22_4 1_555 1_555
O6_4 H2_4 1_555 1_555
C1_4 O1_4 1_555 1_555
C2_4 H3_4 1_555 1_555
C3_4 C1_4 1_555 1_555
C5_4 C4_4 1_555 1_555
C6_4 C5_4 1_555 1_555
C7_4 C2_4 1_555 1_555
C8_4 C7_4 1_555 1_555
H4_4 C8_4 1_555 1_555
C9_4 C8_4 1_555 1_555
H5_4 C9_4 1_555 1_555
C10_4 C9_4 1_555 1_555
H6_4 C10_4 1_555 1_555
C11_4 C6_4 1_555 1_555
H7_4 C11_4 1_555 1_555
C2_4 C3_4 1_555 1_555
C3_4 C4_4 1_555 1_555
C6_4 C7_4 1_555 1_555
C10_4 C11_4 1_555 1_555
N1_4 C24_4 1_555 1_555
N2_4 C24_4 1_555 1_555
O3_4 H1_4 1_555 1_555
C24_4 H15_4 1_555 1_555
C25_4 N1_4 1_555 1_555
H16_4 C25_4 1_555 1_555
C26_4 N2_4 1_555 1_555
H17_4 C26_4 1_555 1_555
C27_4 N2_4 1_555 1_555
H18_4 C27_4 1_555 1_555
H19_4 C27_4 1_555 1_555
C28_4 C27_4 1_555 1_555
C29_4 C28_4 1_555 1_555
H20_4 C29_4 1_555 1_555
C30_4 C29_4 1_555 1_555
H21_4 C30_4 1_555 1_555
H22_4 C32_4 1_555 1_555
C33_4 C28_4 1_555 1_555
H23_4 C33_4 1_555 1_555
C25_4 C26_4 1_555 1_555
C32_4 C33_4 1_555 1_555

#END
