
###############################################################################
#
# This file contains modified crystal structure data generated from the
# MOF subset of the Cambridge Structural Database (CSD) v543 
# hosted by the Cambridge Crystallographic Data Centre (CCDC).
#
# This work is licensed under the Creative Commons
# Attribution-NonCommercial-ShareAlike 4.0 International License.
# To view a copy of this license, visit
# http://creativecommons.org/licenses/by-nc-sa/4.0/
# or send a letter to
# Creative Commons, PO Box 1866, Mountain View, CA 94042, USA.
#
# CIF created using the CSD Python API on 29 September 2022
# The structure has been converted into the P1 space group
# The structure has a 3D framework
# The original CSD entry UXIQOJ is in the tetragonal crystal system
# The original CSD entry UXIQOJ is in a Sohncke space group
# The framework has been calculated to contain at least 10.0% void space
# The void calculation uses a probe of radius 1.32A, grid spacing 0.4
#
###############################################################################

data_UXIQOJ
_chemical_formula_moiety         '(C84 H34 Ni8 O34)n'
_symmetry_cell_setting           triclinic
_symmetry_space_group_name_H-M   'P 1'
_symmetry_Int_Tables_number      1
_space_group_name_Hall           'P 1'
loop_
_symmetry_equiv_pos_site_id
_symmetry_equiv_pos_as_xyz
1 x,y,z
_cell_length_a                   15.1780(5)
_cell_length_b                   15.1780(5)
_cell_length_c                   12.0813(5)
_cell_angle_alpha                90
_cell_angle_beta                 90
_cell_angle_gamma                90
_cell_volume                     2783.19
loop_
_atom_site_label
_atom_site_type_symbol
_atom_site_fract_x
_atom_site_fract_y
_atom_site_fract_z
Ni4 Ni 0.68964(5) 0.68964(5) -0.0000
Ni8 Ni 0.31036(5) 0.31036(5) -0.0000
Ni1 Ni 0.18964(5) 0.31036(5) 0.7500
O1 O 0.3827(4) 0.3767(4) 0.8882(4)
O2 O 0.2500 0.2364(7) 0.8750
O3 O 0.2869(3) 0.4045(3) 0.7492(4)
C1 C 0.3599(5) 0.4100(5) 0.7968(6)
C2 C 0.5000 0.5000 0.7945(8)
H1 H 0.5000 0.5000 0.8715
C3 C 0.4315(5) 0.4602(5) 0.7360(6)
C4 C 0.4304(5) 0.4629(5) 0.6231(7)
H2 H 0.3822 0.4395 0.5857
C5 C 0.5000 0.5000 0.5614(7)
O4 O 0.5955(3) 0.7131(3) 0.2508(4)
C6 C 0.5900(5) 0.6401(5) 0.2032(6)
C7 C 0.5000 0.5000 0.2055(8)
H3 H 0.5000 0.5000 0.1285
C8 C 0.5398(5) 0.5685(5) 0.2640(6)
C9 C 0.5371(5) 0.5696(5) 0.3769(7)
H4 H 0.5605 0.6178 0.4143
C10 C 0.5000 0.5000 0.4386(7)
O5 O 0.6233(4) 0.6173(4) 0.1118(4)
O6 O 0.7131(3) 0.5955(3) 0.7492(4)
C11 C 0.6401(5) 0.5900(5) 0.7968(6)
C12 C 0.5685(5) 0.5398(5) 0.7360(6)
C13 C 0.5696(5) 0.5371(5) 0.6231(7)
H5 H 0.6178 0.5605 0.5857
O7 O 0.6173(4) 0.6233(4) 0.8882(4)
O8 O 0.4045(3) 0.2869(3) 0.2508(4)
C14 C 0.4100(5) 0.3599(5) 0.2032(6)
C15 C 0.4602(5) 0.4315(5) 0.2640(6)
C16 C 0.4629(5) 0.4304(5) 0.3769(7)
H6 H 0.4395 0.3822 0.4143
O9 O 0.3767(4) 0.3827(4) 0.1118(4)
Ni2 Ni 0.68964(5) 0.81036(5) 0.2500
O10 O 0.7636(7) 0.7500 0.1250
Ni4_2 Ni 0.68964(5) 0.68964(5) 1.0000
Ni5 Ni 0.31036(5) 0.18964(5) 0.2500
Ni6 Ni 0.81036(5) 0.68964(5) 0.7500
Ni8_2 Ni 0.31036(5) 0.31036(5) 1.0000
O11 O 0.6233(4) 0.8827(4) 0.1382(4)
O12 O 0.1173(4) 0.3767(4) 0.8618(4)
O13 O 0.1233(4) 0.3827(4) 0.6382(4)
O14 O 0.6173(4) 0.8767(4) 0.3618(4)
O15 O 0.7500 0.7364(7) 0.3750
O16 O 0.2636(7) 0.2500 0.6250
O17 O 0.7869(3) 0.9045(3) 0.2492(4)
O18 O 0.0955(3) 0.2131(3) 0.7508(4)
C2_2 C 0.5000 0.0000 0.0445(8)
H1_2 H 0.5000 0.0000 0.1215
C11_2 C 0.4100(5) 0.1401(5) 0.0468(6)
O7_2 O 0.3767(4) 0.1173(4) 0.1382(4)
C5_2 C 0.5000 0.0000 0.8114(7)
O4_2 O 0.2869(3) 0.0955(3) 0.5008(4)
C6_2 C 0.3599(5) 0.0900(5) 0.4532(6)
C7_2 C 0.5000 0.0000 0.4555(8)
H3_2 H 0.5000 0.0000 0.3785
C8_2 C 0.4315(5) 0.0398(5) 0.5140(6)
C9_2 C 0.4304(5) 0.0371(5) 0.6269(7)
H4_2 H 0.3822 0.0605 0.6643
C10_2 C 0.5000 0.0000 0.6886(7)
O5_2 O 0.3827(4) 0.1233(4) 0.3618(4)
O6_2 O 0.4045(3) 0.2131(3) 0.9992(4)
C12_2 C 0.4602(5) 0.0685(5) 0.9860(6)
C13_2 C 0.4629(5) 0.0696(5) 0.8731(7)
H5_2 H 0.4395 0.1178 0.8357
Ni2_2 Ni 0.18964(5) 0.18964(5) 0.5000
O10_2 O 0.2500 0.2636(7) 0.3750
O11_2 O 0.1173(4) 0.1233(4) 0.3882(4)
O14_2 O 0.1233(4) 0.1173(4) 0.6118(4)
O17_2 O 0.0955(3) 0.2869(3) 0.4992(4)
C1_2 C 0.5900(5) 0.8599(5) 0.0468(6)
C2_3 C 0.5000 1.0000 0.0445(8)
H1_3 H 0.5000 1.0000 0.1215
O18_2 O 0.7869(3) 0.5955(3) 0.0008(4)
O3_2 O 0.5955(3) 0.7869(3) 0.9992(4)
C3_2 C 0.5398(5) 0.9315(5) 0.9860(6)
C4_2 C 0.5371(5) 0.9304(5) 0.8731(7)
H2_2 H 0.5605 0.8822 0.8357
C5_3 C 0.5000 1.0000 0.8114(7)
C7_3 C 0.5000 1.0000 0.4555(8)
H3_3 H 0.5000 1.0000 0.3785
C10_3 C 0.5000 1.0000 0.6886(7)
O8_2 O 0.7131(3) 0.9045(3) 0.5008(4)
C14_2 C 0.6401(5) 0.9100(5) 0.4532(6)
C15_2 C 0.5685(5) 0.9602(5) 0.5140(6)
C16_2 C 0.5696(5) 0.9629(5) 0.6269(7)
H6_2 H 0.6178 0.9395 0.6643
Ni5_2 Ni 0.81036(5) 0.81036(5) 0.5000
O16_2 O 0.7500 0.7636(7) 0.8750
O3_3 O 0.2131(3) 0.0955(3) 0.2492(4)
C1_3 C 0.1401(5) 0.0900(5) 0.2968(6)
C2_4 C -0.0000 -0.0000 0.2945(8)
H1_4 H -0.0000 -0.0000 0.3715
C3_3 C 0.0685(5) 0.0398(5) 0.2360(6)
C4_3 C 0.0696(5) 0.0371(5) 0.1231(7)
H2_3 H 0.1178 0.0605 0.0857
C5_4 C -0.0000 0.0000 0.0614(7)
O16_3 O 0.2364(7) 0.2500 0.1250
C7_4 C -0.0000 0.0000 0.7055(8)
H3_4 H -0.0000 -0.0000 0.6285
C10_4 C -0.0000 0.0000 0.9386(7)
C14_3 C 0.0900(5) 0.1401(5) 0.7032(6)
C15_3 C 0.0398(5) 0.0685(5) 0.7640(6)
C16_3 C 0.0371(5) 0.0696(5) 0.8769(7)
H6_3 H 0.0605 0.1178 0.9143
C2_5 C 1.0000 1.0000 0.2945(8)
H1_5 H 1.0000 1.0000 0.3715
C5_5 C 1.0000 1.0000 0.0614(7)
C11_3 C 0.8599(5) 0.9100(5) 0.2968(6)
C12_3 C 0.9315(5) 0.9602(5) 0.2360(6)
C13_3 C 0.9304(5) 0.9629(5) 0.1231(7)
H5_3 H 0.8822 0.9395 0.0857
O7_3 O 0.8827(4) 0.8767(4) 0.3882(4)
O4_3 O 0.9045(3) 0.7869(3) 0.7508(4)
C6_3 C 0.9100(5) 0.8599(5) 0.7032(6)
C7_5 C 1.0000 1.0000 0.7055(8)
H3_5 H 1.0000 1.0000 0.6285
C8_3 C 0.9602(5) 0.9315(5) 0.7640(6)
C9_3 C 0.9629(5) 0.9304(5) 0.8769(7)
H4_3 H 0.9395 0.8822 0.9143
C10_5 C 1.0000 1.0000 0.9386(7)
O5_3 O 0.8767(4) 0.8827(4) 0.6118(4)
O10_3 O 0.7364(7) 0.7500 0.6250
O11_3 O 0.8767(4) 0.6173(4) 0.6382(4)
O14_3 O 0.8827(4) 0.6233(4) 0.8618(4)
C2_6 C 0.0000 0.5000 0.5445(8)
H1_6 H 0.0000 0.5000 0.6215
C5_6 C 0.0000 0.5000 0.3114(7)
O4_4 O 0.2131(3) 0.4045(3) 0.0008(4)
C8_4 C 0.0685(5) 0.4602(5) 0.0140(6)
C9_4 C 0.0696(5) 0.4629(5) 0.1269(7)
H4_4 H 0.1178 0.4395 0.1643
C10_6 C -0.0000 0.5000 0.1886(7)
C11_4 C 0.0900(5) 0.3599(5) 0.5468(6)
C12_4 C 0.0398(5) 0.4315(5) 0.4860(6)
C13_4 C 0.0371(5) 0.4304(5) 0.3731(7)
H5_4 H 0.0605 0.3822 0.3357
C6_4 C 0.1401(5) 0.4100(5) 0.9532(6)
C7_6 C 0.0000 0.5000 0.9555(8)
H3_6 H 0.0000 0.5000 0.8785
O3_4 O 0.9045(3) 0.7131(3) 0.4992(4)
C1_4 C 0.9100(5) 0.6401(5) 0.5468(6)
C2_7 C 1.0000 0.5000 0.5445(8)
H1_7 H 1.0000 0.5000 0.6215
C3_4 C 0.9602(5) 0.5685(5) 0.4860(6)
C4_4 C 0.9629(5) 0.5696(5) 0.3731(7)
H2_4 H 0.9395 0.6178 0.3357
C5_7 C 1.0000 0.5000 0.3114(7)
C10_7 C 1.0000 0.5000 0.1886(7)
C15_4 C 0.9315(5) 0.5398(5) 0.0140(6)
C16_4 C 0.9304(5) 0.5371(5) 0.1269(7)
H6_4 H 0.8822 0.5605 0.1643
C7_7 C 1.0000 0.5000 0.9555(8)
H3_7 H 1.0000 0.5000 0.8785
C14_4 C 0.8599(5) 0.5900(5) 0.9532(6)
C2_8 C -0.0000 1.0000 0.2945(8)
H1_8 H -0.0000 1.0000 0.3715
C5_8 C -0.0000 1.0000 0.0614(7)
C7_8 C -0.0000 1.0000 0.7055(8)
H3_8 H -0.0000 1.0000 0.6285
C10_8 C -0.0000 1.0000 0.9386(7)
C2_9 C 1.0000 -0.0000 0.2945(8)
H1_9 H 1.0000 -0.0000 0.3715
C5_9 C 1.0000 0.0000 0.0614(7)
C7_9 C 1.0000 0.0000 0.7055(8)
H3_9 H 1.0000 -0.0000 0.6285
C10_9 C 1.0000 0.0000 0.9386(7)
loop_
_geom_bond_atom_site_label_1
_geom_bond_atom_site_label_2
_geom_bond_site_symmetry_1
_geom_bond_site_symmetry_2
Ni1 O2 1_555 1_555
O1 C1 1_555 1_555
O2 Ni8_2 1_555 1_555
O3 Ni1 1_555 1_555
C1 O3 1_555 1_555
C2 H1 1_555 1_555
C3 C1 1_555 1_555
C4 C3 1_555 1_555
H2 C4 1_555 1_555
C5 C4 1_555 1_555
O4 C6 1_555 1_555
C6 C8 1_555 1_555
C7 H3 1_555 1_555
C8 C7 1_555 1_555
C9 C8 1_555 1_555
H4 C9 1_555 1_555
C10 C5 1_555 1_555
O5 C6 1_555 1_555
O6 C11 1_555 1_555
C11 C12 1_555 1_555
C12 C2 1_555 1_555
C13 C5 1_555 1_555
H5 C13 1_555 1_555
O7 C11 1_555 1_555
O8 C14 1_555 1_555
C14 C15 1_555 1_555
C15 C7 1_555 1_555
C16 C10 1_555 1_555
H6 C16 1_555 1_555
O9 C14 1_555 1_555
Ni2 O4 1_555 1_555
O10 Ni2 1_555 1_555
Ni4 O5 1_555 1_555
Ni4_2 O7 1_555 1_555
Ni5 O8 1_555 1_555
Ni6 O6 1_555 1_555
Ni8 O9 1_555 1_555
Ni8_2 O1 1_555 1_555
O11 Ni2 1_555 1_555
O12 Ni1 1_555 1_555
O13 Ni1 1_555 1_555
O14 Ni2 1_555 1_555
O15 Ni2 1_555 1_555
O16 Ni1 1_555 1_555
O17 Ni2 1_555 1_555
O18 Ni1 1_555 1_555
C2 C3 1_555 1_555
C9 C10 1_555 1_555
C12 C13 1_555 1_555
C15 C16 1_555 1_555
O10 Ni4 1_555 1_555
C2_2 H1_2 1_555 1_555
O7_2 C11_2 1_555 1_555
Ni5 O7_2 1_555 1_555
O4_2 C6_2 1_555 1_555
C6_2 C8_2 1_555 1_555
C7_2 H3_2 1_555 1_555
C8_2 C7_2 1_555 1_555
C9_2 C8_2 1_555 1_555
H4_2 C9_2 1_555 1_555
C10_2 C5_2 1_555 1_555
O5_2 C6_2 1_555 1_555
C13_2 C5_2 1_555 1_555
H5_2 C13_2 1_555 1_555
Ni2_2 O4_2 1_555 1_555
O10_2 Ni2_2 1_555 1_555
Ni5 O5_2 1_555 1_555
Ni8_2 O6_2 1_555 1_555
O11_2 Ni2_2 1_555 1_555
O14_2 Ni2_2 1_555 1_555
O16 Ni2_2 1_555 1_555
O17_2 Ni2_2 1_555 1_555
C9_2 C10_2 1_555 1_555
C12_2 C13_2 1_555 1_555
O10_2 Ni5 1_555 1_555
O11 C1_2 1_555 1_555
C2_3 H1_3 1_555 1_555
O18_2 Ni4 1_555 1_555
O3_2 Ni4_2 1_555 1_555
C4_2 C3_2 1_555 1_555
H2_2 C4_2 1_555 1_555
C5_3 C4_2 1_555 1_555
C7_3 H3_3 1_555 1_555
C10_3 C5_3 1_555 1_555
O8_2 C14_2 1_555 1_555
C14_2 C15_2 1_555 1_555
C15_2 C7_3 1_555 1_555
C16_2 C10_3 1_555 1_555
H6_2 C16_2 1_555 1_555
O14 C14_2 1_555 1_555
Ni5_2 O8_2 1_555 1_555
O16_2 Ni4_2 1_555 1_555
C15_2 C16_2 1_555 1_555
O11_2 C1_3 1_555 1_555
O3_3 Ni5 1_555 1_555
C1_3 O3_3 1_555 1_555
C2_4 H1_4 1_555 1_555
C3_3 C1_3 1_555 1_555
C4_3 C3_3 1_555 1_555
H2_3 C4_3 1_555 1_555
C5_4 C4_3 1_555 1_555
O16_3 Ni5 1_555 1_555
C2_4 C3_3 1_555 1_555
C7_4 H3_4 1_555 1_555
O18 C14_3 1_555 1_555
C14_3 C15_3 1_555 1_555
C15_3 C7_4 1_555 1_555
C16_3 C10_4 1_555 1_555
H6_3 C16_3 1_555 1_555
O14_2 C14_3 1_555 1_555
C15_3 C16_3 1_555 1_555
C2_5 H1_5 1_555 1_555
O17 C11_3 1_555 1_555
C11_3 C12_3 1_555 1_555
C12_3 C2_5 1_555 1_555
C13_3 C5_5 1_555 1_555
H5_3 C13_3 1_555 1_555
O7_3 C11_3 1_555 1_555
Ni5_2 O7_3 1_555 1_555
C12_3 C13_3 1_555 1_555
O4_3 C6_3 1_555 1_555
C6_3 C8_3 1_555 1_555
C7_5 H3_5 1_555 1_555
C8_3 C7_5 1_555 1_555
C9_3 C8_3 1_555 1_555
H4_3 C9_3 1_555 1_555
O5_3 C6_3 1_555 1_555
Ni6 O4_3 1_555 1_555
O10_3 Ni6 1_555 1_555
Ni5_2 O5_3 1_555 1_555
O11_3 Ni6 1_555 1_555
O14_3 Ni6 1_555 1_555
O16_2 Ni6 1_555 1_555
C9_3 C10_5 1_555 1_555
O10_3 Ni5_2 1_555 1_555
C2_6 H1_6 1_555 1_555
C9_4 C8_4 1_555 1_555
H4_4 C9_4 1_555 1_555
C10_6 C5_6 1_555 1_555
O17_2 C11_4 1_555 1_555
C11_4 C12_4 1_555 1_555
C12_4 C2_6 1_555 1_555
C13_4 C5_6 1_555 1_555
H5_4 C13_4 1_555 1_555
O13 C11_4 1_555 1_555
Ni8 O4_4 1_555 1_555
O16_3 Ni8 1_555 1_555
C9_4 C10_6 1_555 1_555
C12_4 C13_4 1_555 1_555
C7_6 H3_6 1_555 1_555
O12 C6_4 1_555 1_555
O11_3 C1_4 1_555 1_555
O3_4 Ni5_2 1_555 1_555
C1_4 O3_4 1_555 1_555
C2_7 H1_7 1_555 1_555
C3_4 C1_4 1_555 1_555
C4_4 C3_4 1_555 1_555
H2_4 C4_4 1_555 1_555
C5_7 C4_4 1_555 1_555
C10_7 C5_7 1_555 1_555
C16_4 C10_7 1_555 1_555
H6_4 C16_4 1_555 1_555
O15 Ni5_2 1_555 1_555
C2_7 C3_4 1_555 1_555
C15_4 C16_4 1_555 1_555
C7_7 H3_7 1_555 1_555
O14_3 C14_4 1_555 1_555
C2_8 H1_8 1_555 1_555
C7_8 H3_8 1_555 1_555
C2_9 H1_9 1_555 1_555
C7_9 H3_9 1_555 1_555

#END
