
###############################################################################
#
# This file contains modified crystal structure data generated from the
# MOF subset of the Cambridge Structural Database (CSD) v543 
# hosted by the Cambridge Crystallographic Data Centre (CCDC).
#
# This work is licensed under the Creative Commons
# Attribution-NonCommercial-ShareAlike 4.0 International License.
# To view a copy of this license, visit
# http://creativecommons.org/licenses/by-nc-sa/4.0/
# or send a letter to
# Creative Commons, PO Box 1866, Mountain View, CA 94042, USA.
#
# CIF created using the CSD Python API on 29 September 2022
# The structure has been converted into the P1 space group
# The structure has a 3D framework
# The original CSD entry UXOZEO02 is in the tetragonal crystal system
# The framework has been calculated to contain at least 10.0% void space
# The void calculation uses a probe of radius 1.32A, grid spacing 0.4
#
###############################################################################

data_UXOZEO02
_chemical_formula_moiety         '(C16 H16 Cu3 F12 N16 V2)n'
_symmetry_cell_setting           triclinic
_symmetry_space_group_name_H-M   'P 1'
_symmetry_Int_Tables_number      1
_space_group_name_Hall           'P 1'
loop_
_symmetry_equiv_pos_site_id
_symmetry_equiv_pos_as_xyz
1 x,y,z
_cell_length_a                   9.7325(2)
_cell_length_b                   9.7325(2)
_cell_length_c                   8.21540(10)
_cell_angle_alpha                90
_cell_angle_beta                 90
_cell_angle_gamma                90
_cell_volume                     778.175
loop_
_atom_site_label
_atom_site_type_symbol
_atom_site_fract_x
_atom_site_fract_y
_atom_site_fract_z
Cu1 Cu 0.2500 0.2500 0.0000
N1 N 0.10103(10) 0.10103(10) 0.0000
F1 F 0.2500 0.2500 0.2724(2)
C1 C 0.08832(12) 0.01257(12) 0.12365(14)
H1 H 0.1496 0.0189 0.2134
N2 N 0.39897(10) 0.39897(10) 0.0000
N3 N 0.39897(10) 0.10103(10) 0.0000
N4 N 0.10103(10) 0.39897(10) 0.0000
C3 C 0.41168(12) 0.48743(12) 0.12365(14)
H3 H 0.3504 0.4811 0.2134
C7 C 0.51257(12) 0.58832(12) 0.12365(14)
N6 N 0.60103(10) 0.60103(10) 0.0000
H7 H 0.5189 0.6496 0.2134
Cu4 Cu 0.7500 0.7500 0.0000
Cu1_2 Cu 0.2500 0.2500 1.0000
N1_2 N 0.10103(10) 0.10103(10) 1.0000
V1 V 0.2500 0.2500 0.5000
F2 F 0.4480 0.25000(13) 0.5000
N2_2 N 0.39897(10) 0.39897(10) 1.0000
F3 F 0.2500 0.2500 0.7276(2)
N3_2 N 0.39897(10) 0.10103(10) 1.0000
N4_2 N 0.10103(10) 0.39897(10) 1.0000
C2 C 0.01257(12) 0.08832(12) 0.87635(14)
C4 C 0.48743(12) 0.41168(12) 0.87635(14)
H2 H 0.0189 0.1496 0.7866
H4 H 0.4811 0.3504 0.7866
C8 C 0.58832(12) 0.51257(12) 0.87635(14)
F5 F 0.0520 0.25000(13) 0.5000
F6 F 0.25000(13) 0.4480 0.5000
F7 F 0.25000(13) 0.0520 0.5000
N6_2 N 0.60103(10) 0.60103(10) 1.0000
H8 H 0.6496 0.5189 0.7866
Cu4_2 Cu 0.7500 0.7500 1.0000
C5 C 0.98743(12) 0.91168(12) 0.12365(14)
N5 N 0.89897(10) 0.89897(10) 0.0000
H5 H 0.9811 0.8504 0.2134
C6 C 0.91168(12) 0.98743(12) 0.87635(14)
N5_2 N 0.89897(10) 0.89897(10) 1.0000
H6 H 0.8504 0.9811 0.7866
C1_2 C 0.48743(12) 0.08832(12) 0.12365(14)
H1_2 H 0.4811 0.1496 0.2134
C3_2 C 0.01257(12) 0.41168(12) 0.12365(14)
H3_2 H 0.0189 0.3504 0.2134
C2_2 C 0.41168(12) 0.01257(12) 0.87635(14)
C4_2 C 0.08832(12) 0.48743(12) 0.87635(14)
H2_2 H 0.3504 0.0189 0.7866
H4_2 H 0.1496 0.4811 0.7866
C5_2 C 0.58832(12) 0.98743(12) 0.12365(14)
N5_3 N 0.60103(10) 0.89897(10) 0.0000
H5_2 H 0.6496 0.9811 0.2134
C6_2 C 0.51257(12) 0.91168(12) 0.87635(14)
N5_4 N 0.60103(10) 0.89897(10) 1.0000
H6_2 H 0.5189 0.8504 0.7866
C7_2 C 0.91168(12) 0.51257(12) 0.12365(14)
N6_3 N 0.89897(10) 0.60103(10) 0.0000
H7_2 H 0.8504 0.5189 0.2134
C8_2 C 0.98743(12) 0.58832(12) 0.87635(14)
N6_4 N 0.89897(10) 0.60103(10) 1.0000
H8_2 H 0.9811 0.6496 0.7866
V1_2 V 0.7500 0.7500 0.5000
F2_2 F 0.5520 0.75000(13) 0.5000
F3_2 F 0.7500 0.7500 0.2724(2)
F4 F 0.7500 0.7500 0.7276(2)
F5_2 F 0.9480 0.75000(13) 0.5000
F6_2 F 0.75000(13) 0.5520 0.5000
F7_2 F 0.75000(13) 0.9480 0.5000
loop_
_geom_bond_atom_site_label_1
_geom_bond_atom_site_label_2
_geom_bond_site_symmetry_1
_geom_bond_site_symmetry_2
Cu1 N1 1_555 1_555
N1 C1 1_555 1_555
F1 Cu1 1_555 1_555
C1 H1 1_555 1_555
N2 Cu1 1_555 1_555
N3 Cu1 1_555 1_555
N4 Cu1 1_555 1_555
C3 N2 1_555 1_555
H3 C3 1_555 1_555
C7 C3 1_555 1_555
N6 C7 1_555 1_555
H7 C7 1_555 1_555
Cu4 N6 1_555 1_555
Cu1_2 N1_2 1_555 1_555
V1 F2 1_555 1_555
N2_2 Cu1_2 1_555 1_555
F3 Cu1_2 1_555 1_555
N3_2 Cu1_2 1_555 1_555
N4_2 Cu1_2 1_555 1_555
C2 N1_2 1_555 1_555
C4 N2_2 1_555 1_555
H2 C2 1_555 1_555
H4 C4 1_555 1_555
C8 C4 1_555 1_555
F1 V1 1_555 1_555
F5 V1 1_555 1_555
F6 V1 1_555 1_555
F7 V1 1_555 1_555
H8 C8 1_555 1_555
Cu4_2 N6_2 1_555 1_555
V1 F3 1_555 1_555
C8 N6_2 1_555 1_555
N5 C5 1_555 1_555
H5 C5 1_555 1_555
Cu4 N5 1_555 1_555
H6 C6 1_555 1_555
Cu4_2 N5_2 1_555 1_555
C6 N5_2 1_555 1_555
N3 C1_2 1_555 1_555
C1_2 H1_2 1_555 1_555
C3_2 N4 1_555 1_555
H3_2 C3_2 1_555 1_555
C2_2 N3_2 1_555 1_555
C4_2 N4_2 1_555 1_555
H2_2 C2_2 1_555 1_555
H4_2 C4_2 1_555 1_555
N5_3 C5_2 1_555 1_555
H5_2 C5_2 1_555 1_555
Cu4 N5_3 1_555 1_555
H6_2 C6_2 1_555 1_555
Cu4_2 N5_4 1_555 1_555
C6_2 N5_4 1_555 1_555
N6_3 C7_2 1_555 1_555
H7_2 C7_2 1_555 1_555
Cu4 N6_3 1_555 1_555
H8_2 C8_2 1_555 1_555
Cu4_2 N6_4 1_555 1_555
C8_2 N6_4 1_555 1_555
V1_2 F2_2 1_555 1_555
F3_2 Cu4 1_555 1_555
F4 V1_2 1_555 1_555
F5_2 V1_2 1_555 1_555
F6_2 V1_2 1_555 1_555
F7_2 V1_2 1_555 1_555
Cu4_2 F4 1_555 1_555
V1_2 F3_2 1_555 1_555

#END
