
###############################################################################
#
# This file contains modified crystal structure data generated from the
# MOF subset of the Cambridge Structural Database (CSD) v543 
# hosted by the Cambridge Crystallographic Data Centre (CCDC).
#
# This work is licensed under the Creative Commons
# Attribution-NonCommercial-ShareAlike 4.0 International License.
# To view a copy of this license, visit
# http://creativecommons.org/licenses/by-nc-sa/4.0/
# or send a letter to
# Creative Commons, PO Box 1866, Mountain View, CA 94042, USA.
#
# CIF created using the CSD Python API on 29 September 2022
# The structure has been converted into the P1 space group
# The structure has a 3D framework
# The original CSD entry UXUYUI is in the tetragonal crystal system
# The framework has been calculated to contain at least 10.0% void space
# The void calculation uses a probe of radius 1.32A, grid spacing 0.4
#
###############################################################################

data_UXUYUI
_chemical_formula_moiety         '(C40 H32 Li5 N8 O8)n'
_symmetry_cell_setting           triclinic
_symmetry_space_group_name_H-M   'P 1'
_symmetry_Int_Tables_number      1
_space_group_name_Hall           'P 1'
loop_
_symmetry_equiv_pos_site_id
_symmetry_equiv_pos_as_xyz
1 x,y,z
_cell_length_a                   10.9909(10)
_cell_length_b                   10.9909(10)
_cell_length_c                   10.991
_cell_angle_alpha                90
_cell_angle_beta                 90
_cell_angle_gamma                90
_cell_volume                     1327.71
loop_
_atom_site_label
_atom_site_type_symbol
_atom_site_fract_x
_atom_site_fract_y
_atom_site_fract_z
Li1 Li 0.0816(14) 0.4108(13) 0.1636(13)
O2 O 0.0963(6) 0.5894(6) 0.1586(5)
O7 O 0.0963(6) 0.4106(6) 0.3414(5)
N3 N 0.1808(8) 0.2988(7) 0.0616(7)
C7 C 0.3766(10) 0.2155(13) 0.0150(11)
H6 H 0.4568 0.2066 0.0403
C9 C 0.1729(12) 0.7833(9) 0.1082(10)
H8 H 0.1323 0.8187 0.1734
C13 C 0.2975(11) 0.2822(14) 0.0817(13)
H12 H 0.3296 0.3209 0.1497
C15 C 0.2423(11) 0.8538(9) 0.0341(11)
H14 H 0.2495 0.9355 0.0550
C18 C 0.1621(8) 0.6620(8) 0.0884(8)
Li10 Li 0.0816(14) 0.5892(13) 0.3364(13)
O3 O 0.4106(6) 0.0963(6) 0.8414(5)
N2 N 0.2988(7) 0.8192(8) 0.9384(7)
C6 C 0.2155(13) 0.6234(10) 0.9850(11)
H5 H 0.2066 0.5432 0.9597
C10 C 0.2167(9) 0.1729(12) 0.8918(10)
H9 H 0.1813 0.1323 0.8266
C12 C 0.2822(14) 0.7025(11) 0.9183(13)
H11 H 0.3209 0.6704 0.8503
C16 C 0.1462(9) 0.2423(11) 0.9659(11)
H15 H 0.0645 0.2495 0.9450
C19 C 0.3380(8) 0.1621(8) 0.9116(8)
Li7 Li 0.4108(13) 0.9184(14) 0.8364(13)
Li8 Li 0.5892(13) 0.0816(14) 0.8364(13)
Li12 Li 0.4108(13) 0.0816(14) 0.6636(13)
O6 O 0.5894(6) 0.9037(6) 0.8414(5)
O10 O 0.4106(6) 0.9037(6) 0.6586(5)
O1 O 0.9037(6) 0.4106(6) 0.1586(5)
C2 C 0.8271(12) 0.2167(9) 0.1082(10)
H2 H 0.8677 0.1813 0.1734
C4 C 0.7577(11) 0.1462(9) 0.0341(11)
H4 H 0.7505 0.0645 0.0550
C5 C 0.8379(8) 0.3380(8) 0.0884(8)
O8 O 0.9037(6) 0.5894(6) 0.3414(5)
N6 N 0.8192(8) 0.7012(7) 0.0616(7)
Li2 Li 0.9184(14) 0.5892(13) 0.1636(13)
Li9 Li 0.9184(14) 0.4108(13) 0.3364(13)
N1 N 0.7012(7) 0.1808(8) 0.9384(7)
C1 C 0.7845(13) 0.3766(10) 0.9850(11)
H1 H 0.7934 0.4568 0.9597
C3 C 0.7178(14) 0.2975(11) 0.9183(13)
H3 H 0.6791 0.3296 0.8503
O9 O 0.5894(6) 0.0963(6) 0.6586(5)
C8 C 0.6234(10) 0.7845(13) 0.0150(11)
H7 H 0.5432 0.7934 0.0403
C14 C 0.7025(11) 0.7178(14) 0.0817(13)
H13 H 0.6704 0.6791 0.1497
C11 C 0.7833(9) 0.8271(12) 0.8918(10)
H10 H 0.8187 0.8677 0.8266
C17 C 0.8538(9) 0.7577(11) 0.9659(11)
H16 H 0.9355 0.7505 0.9450
C20 C 0.6620(8) 0.8379(8) 0.9116(8)
Li11 Li 0.5892(13) 0.9184(14) 0.6636(13)
N1_2 N 0.2988(7) 0.1808(8) 0.5616(7)
C1_2 C 0.2155(13) 0.3766(10) 0.5150(11)
H1_2 H 0.2066 0.4568 0.5403
C2_2 C 0.1729(12) 0.2167(9) 0.3918(10)
H2_2 H 0.1323 0.1813 0.3266
C3_2 C 0.2822(14) 0.2975(11) 0.5817(13)
H3_2 H 0.3209 0.3296 0.6497
C4_2 C 0.2423(11) 0.1462(9) 0.4659(11)
H4_2 H 0.2495 0.0645 0.4450
C5_2 C 0.1621(8) 0.3380(8) 0.4116(8)
N6_2 N 0.1808(8) 0.7012(7) 0.4384(7)
C8_2 C 0.3766(10) 0.7845(13) 0.4850(11)
H7_2 H 0.4568 0.7934 0.4597
C11_2 C 0.2167(9) 0.8271(12) 0.6082(10)
H10_2 H 0.1813 0.8677 0.6734
C14_2 C 0.2975(11) 0.7178(14) 0.4183(13)
H13_2 H 0.3296 0.6791 0.3503
C17_2 C 0.1462(9) 0.7577(11) 0.5341(11)
H16_2 H 0.0645 0.7505 0.5550
C20_2 C 0.3380(8) 0.8379(8) 0.5884(8)
N2_2 N 0.7012(7) 0.8192(8) 0.5616(7)
N3_2 N 0.8192(8) 0.2988(7) 0.4384(7)
C6_2 C 0.7845(13) 0.6234(10) 0.5150(11)
C7_2 C 0.6234(10) 0.2155(13) 0.4850(11)
H5_2 H 0.7934 0.5432 0.5403
H6_2 H 0.5432 0.2066 0.4597
C9_2 C 0.8271(12) 0.7833(9) 0.3918(10)
C10_2 C 0.7833(9) 0.1729(12) 0.6082(10)
H8_2 H 0.8677 0.8187 0.3266
H9_2 H 0.8187 0.1323 0.6734
C12_2 C 0.7178(14) 0.7025(11) 0.5817(13)
C13_2 C 0.7025(11) 0.2822(14) 0.4183(13)
H11_2 H 0.6791 0.6704 0.6497
H12_2 H 0.6704 0.3209 0.3503
C15_2 C 0.7577(11) 0.8538(9) 0.4659(11)
C16_2 C 0.8538(9) 0.2423(11) 0.5341(11)
H14_2 H 0.7505 0.9355 0.4450
H15_2 H 0.9355 0.2495 0.5550
C18_2 C 0.8379(8) 0.6620(8) 0.4116(8)
C19_2 C 0.6620(8) 0.1621(8) 0.5884(8)
loop_
_geom_bond_atom_site_label_1
_geom_bond_atom_site_label_2
_geom_bond_site_symmetry_1
_geom_bond_site_symmetry_2
O2 Li1 1_555 1_555
O7 Li1 1_555 1_555
N3 Li1 1_555 1_555
C7 H6 1_555 1_555
C9 H8 1_555 1_555
C13 N3 1_555 1_555
H12 C13 1_555 1_555
H14 C15 1_555 1_555
C18 O2 1_555 1_555
Li10 O2 1_555 1_555
O7 Li10 1_555 1_555
C7 C13 1_555 1_555
C9 C15 1_555 1_555
C9 C18 1_555 1_555
O3 C19 1_555 1_555
N2 C12 1_555 1_555
C6 H5 1_555 1_555
C10 H9 1_555 1_555
C12 C6 1_555 1_555
H11 C12 1_555 1_555
H15 C16 1_555 1_555
Li7 N2 1_555 1_555
Li8 O3 1_555 1_555
Li12 O3 1_555 1_555
C10 C16 1_555 1_555
C10 C19 1_555 1_555
O6 Li7 1_555 1_555
O10 Li7 1_555 1_555
O1 C5 1_555 1_555
C2 H2 1_555 1_555
H4 C4 1_555 1_555
O8 Li2 1_555 1_555
N6 Li2 1_555 1_555
Li2 O1 1_555 1_555
Li9 O1 1_555 1_555
C2 C4 1_555 1_555
C2 C5 1_555 1_555
O8 Li9 1_555 1_555
N1 C3 1_555 1_555
C1 H1 1_555 1_555
C3 C1 1_555 1_555
H3 C3 1_555 1_555
O9 Li8 1_555 1_555
Li8 N1 1_555 1_555
N6 C14 1_555 1_555
C8 H7 1_555 1_555
C14 C8 1_555 1_555
H13 C14 1_555 1_555
O6 C20 1_555 1_555
C11 H10 1_555 1_555
H16 C17 1_555 1_555
Li11 O6 1_555 1_555
C11 C17 1_555 1_555
C11 C20 1_555 1_555
O9 Li12 1_555 1_555
O10 Li11 1_555 1_555
O7 C5_2 1_555 1_555
N1_2 C3_2 1_555 1_555
C1_2 H1_2 1_555 1_555
C2_2 H2_2 1_555 1_555
C3_2 C1_2 1_555 1_555
H3_2 C3_2 1_555 1_555
C4_2 N1_2 1_555 1_555
H4_2 C4_2 1_555 1_555
C5_2 C1_2 1_555 1_555
N6_2 Li10 1_555 1_555
Li12 N1_2 1_555 1_555
C2_2 C4_2 1_555 1_555
C2_2 C5_2 1_555 1_555
O10 C20_2 1_555 1_555
N6_2 C14_2 1_555 1_555
C8_2 H7_2 1_555 1_555
C11_2 H10_2 1_555 1_555
C14_2 C8_2 1_555 1_555
H13_2 C14_2 1_555 1_555
C17_2 N6_2 1_555 1_555
H16_2 C17_2 1_555 1_555
C20_2 C8_2 1_555 1_555
C11_2 C17_2 1_555 1_555
C11_2 C20_2 1_555 1_555
O9 C19_2 1_555 1_555
N2_2 C12_2 1_555 1_555
N3_2 Li9 1_555 1_555
C6_2 H5_2 1_555 1_555
C7_2 H6_2 1_555 1_555
C9_2 H8_2 1_555 1_555
C10_2 H9_2 1_555 1_555
C12_2 C6_2 1_555 1_555
C13_2 N3_2 1_555 1_555
H11_2 C12_2 1_555 1_555
H12_2 C13_2 1_555 1_555
C15_2 N2_2 1_555 1_555
C16_2 N3_2 1_555 1_555
H14_2 C15_2 1_555 1_555
H15_2 C16_2 1_555 1_555
C18_2 O8 1_555 1_555
C19_2 C7_2 1_555 1_555
Li11 N2_2 1_555 1_555
C6_2 C18_2 1_555 1_555
C7_2 C13_2 1_555 1_555
C9_2 C15_2 1_555 1_555
C9_2 C18_2 1_555 1_555
C10_2 C16_2 1_555 1_555
C10_2 C19_2 1_555 1_555

#END
