
###############################################################################
#
# This file contains modified crystal structure data generated from the
# MOF subset of the Cambridge Structural Database (CSD) v543 
# hosted by the Cambridge Crystallographic Data Centre (CCDC).
#
# This work is licensed under the Creative Commons
# Attribution-NonCommercial-ShareAlike 4.0 International License.
# To view a copy of this license, visit
# http://creativecommons.org/licenses/by-nc-sa/4.0/
# or send a letter to
# Creative Commons, PO Box 1866, Mountain View, CA 94042, USA.
#
# CIF created using the CSD Python API on 29 September 2022
# The structure has been converted into the P1 space group
# The structure has a 3D framework
# The original CSD entry UXUZAP is in the orthorhombic crystal system
# The framework has been calculated to contain at least 10.0% void space
# The void calculation uses a probe of radius 1.32A, grid spacing 0.4
#
###############################################################################

data_UXUZAP
_chemical_formula_moiety         '(C44 H32 N23 O8 Zn2)n'
_symmetry_cell_setting           triclinic
_symmetry_space_group_name_H-M   'P 1'
_symmetry_Int_Tables_number      1
_space_group_name_Hall           'P 1'
loop_
_symmetry_equiv_pos_site_id
_symmetry_equiv_pos_as_xyz
1 x,y,z
_cell_length_a                   18.2006(9)
_cell_length_b                   10.4443(7)
_cell_length_c                   9.0541(6)
_cell_angle_alpha                90
_cell_angle_beta                 90
_cell_angle_gamma                90
_cell_volume                     1721.12
loop_
_atom_site_label
_atom_site_type_symbol
_atom_site_fract_x
_atom_site_fract_y
_atom_site_fract_z
N6 N 0.16366(15) 0.3429(3) 0.2798(4)
C6 C 0.3044(2) 0.0657(4) 0.0796(5)
C7 C 0.2569(2) 0.2892(4) 0.1072(5)
H5 H 0.2891 0.3155 0.0334
C8 C 0.2541(2) 0.1626(4) 0.1505(5)
C9 C 0.2111(2) 0.3760(4) 0.1758(5)
H6 H 0.2136 0.4615 0.1477
C10 C 0.1615(2) 0.2202(4) 0.3223(5)
H7 H 0.1288 0.1964 0.3961
C11 C 0.2063(2) 0.1273(4) 0.2604(5)
H8 H 0.2041 0.0429 0.2927
Zn3 Zn 0.099694(16) 0.48116(3) 0.36789(8)
Zn1 Zn 0.400306(16) 0.98116(3) 0.86789(8)
H1 H 0.5298 0.9616 0.6722
N7 N 0.48101(15) 0.9260(3) 0.9950(4)
N8 N 0.33634(15) 0.8429(3) 0.7798(4)
N2 N 0.54224(17) 0.7634(3) 0.8468(5)
C2 C 0.6010(2) 0.6894(4) 0.8531(8)
H2 H 0.6079 0.6355 0.7726
N4 N 0.65165(18) 0.6814(3) 0.9589(4)
C5 C 0.53635(17) 0.8382(4) 0.9690(5)
C1 C 0.0012(3) 0.4759(4) 0.6267(7)
H1_2 H 0.0298 0.5384 0.6722
N1 N 0.01899(15) 0.4260(3) 0.4950(4)
N3 N 0.06010(15) 0.5699(3) 0.1883(3)
C3 C 0.1461(2) 0.7429(4) 0.0785(5)
C4 C 0.08431(18) 0.6587(4) 0.0857(4)
N5 N 0.19760(17) 0.7505(4) 0.1831(4)
H3 H 0.2336 0.8032 0.1734
H4 H 0.1948 0.7026 0.2602
O1 O 0.16284(14) 0.6063(3) 0.4621(3)
O2 O 0.18735(15) 0.4598(3) 0.6333(4)
C6_2 C 0.1956(2) 0.5657(4) 0.5796(5)
C7_2 C 0.2431(2) 0.7892(4) 0.6072(5)
H5_2 H 0.2109 0.8155 0.5334
C8_2 C 0.2459(2) 0.6626(4) 0.6505(5)
C9_2 C 0.2889(2) 0.8760(4) 0.6758(5)
H6_2 H 0.2864 0.9615 0.6477
C10_2 C 0.3385(2) 0.7202(4) 0.8223(5)
H7_2 H 0.3712 0.6964 0.8961
C11_2 C 0.2937(2) 0.6273(4) 0.7604(5)
H8_2 H 0.2959 0.5429 0.7927
C1_2 C 0.5012(3) 0.0241(4) 0.6267(7)
N1_2 N 0.51899(15) 0.0740(3) 0.4950(4)
N2_2 N 0.45776(17) 0.2366(3) 0.3468(5)
C2_2 C 0.3990(2) 0.3106(4) 0.3531(8)
H2_2 H 0.3921 0.3645 0.2726
N3_2 N 0.43990(15) 0.0699(3) 0.6883(3)
C3_2 C 0.3539(2) 0.2429(4) 0.5785(5)
N4_2 N 0.34835(18) 0.3186(3) 0.4589(4)
C4_2 C 0.41569(18) 0.1587(4) 0.5857(4)
C5_2 C 0.46365(17) 0.1618(4) 0.4690(5)
N5_2 N 0.30240(17) 0.2505(4) 0.6831(4)
H3_2 H 0.2664 0.3032 0.6734
H4_2 H 0.3052 0.2026 0.7602
O1_2 O 0.33716(14) 0.1063(3) 0.9621(3)
Zn2 Zn 0.599694(16) 0.01884(3) 0.36789(8)
H1_3 H 0.4702 0.0384 0.1722
O2_2 O 0.68735(15) 0.0402(3) 0.6333(4)
N8_2 N 0.66366(15) 0.1571(3) 0.2798(4)
O2_3 O 0.81265(15) 0.5402(3) 0.1333(4)
C6_3 C 0.8044(2) 0.4343(4) 0.0796(5)
C7_3 C 0.7569(2) 0.2108(4) 0.1072(5)
H5_3 H 0.7891 0.1845 0.0334
C8_3 C 0.7541(2) 0.3374(4) 0.1505(5)
C9_3 C 0.7111(2) 0.1240(4) 0.1758(5)
H6_3 H 0.7136 0.0385 0.1477
C10_3 C 0.6615(2) 0.2798(4) 0.3223(5)
H7_3 H 0.6288 0.3036 0.3961
C11_3 C 0.7063(2) 0.3727(4) 0.2604(5)
H8_3 H 0.7041 0.4571 0.2927
O2_4 O 0.31265(15) 0.9598(3) 0.1333(4)
C1_3 C 0.4988(3) 0.9759(4) 0.1267(7)
N3_3 N 0.56010(15) 0.9301(3) 0.1883(3)
C3_3 C 0.6461(2) 0.7571(4) 0.0785(5)
C4_3 C 0.58431(18) 0.8413(4) 0.0857(4)
N5_3 N 0.69760(17) 0.7495(4) 0.1831(4)
H3_3 H 0.7336 0.6968 0.1734
H4_3 H 0.6948 0.7974 0.2602
O1_3 O 0.66284(14) 0.8937(3) 0.4621(3)
N6_2 N 0.83634(15) 0.6571(3) 0.7798(4)
C6_4 C 0.6956(2) 0.9343(4) 0.5796(5)
C7_4 C 0.7431(2) 0.7108(4) 0.6072(5)
H5_4 H 0.7109 0.6845 0.5334
C8_4 C 0.7459(2) 0.8374(4) 0.6505(5)
C9_4 C 0.7889(2) 0.6240(4) 0.6758(5)
H6_4 H 0.7864 0.5385 0.6477
C10_4 C 0.8385(2) 0.7798(4) 0.8223(5)
H7_4 H 0.8712 0.8036 0.8961
C11_4 C 0.7937(2) 0.8727(4) 0.7604(5)
H8_4 H 0.7959 0.9571 0.7927
Zn3_2 Zn 0.900306(16) 0.51884(3) 0.86789(8)
N2_3 N 0.95776(17) 0.2634(3) 0.3468(5)
C2_3 C 0.8990(2) 0.1894(4) 0.3531(8)
H2_3 H 0.8921 0.1355 0.2726
N3_4 N 0.93990(15) 0.4301(3) 0.6883(3)
C3_4 C 0.8539(2) 0.2571(4) 0.5785(5)
N4_3 N 0.84835(18) 0.1814(3) 0.4589(4)
C4_4 C 0.91569(18) 0.3413(4) 0.5857(4)
C5_3 C 0.96365(17) 0.3382(4) 0.4690(5)
N5_4 N 0.80240(17) 0.2495(4) 0.6831(4)
H3_4 H 0.7664 0.1968 0.6734
H4_4 H 0.8052 0.2974 0.7602
O1_4 O 0.83716(14) 0.3937(3) 0.9621(3)
N7_2 N 0.98101(15) 0.5740(3) 0.9950(4)
N2_4 N 0.04224(17) 0.7366(3) 0.8468(5)
C2_4 C 0.1010(2) 0.8106(4) 0.8531(8)
H2_4 H 0.1079 0.8645 0.7726
N4_4 N 0.15165(18) 0.8186(3) 0.9589(4)
C5_4 C 0.03635(17) 0.6618(4) 0.9690(5)
C1_4 C 0.9988(3) 0.5241(4) 0.1267(7)
H1_4 H 0.9702 0.4616 0.1722
loop_
_geom_bond_atom_site_label_1
_geom_bond_atom_site_label_2
_geom_bond_site_symmetry_1
_geom_bond_site_symmetry_2
N6 C9 1_555 1_555
C7 H5 1_555 1_555
C8 C6 1_555 1_555
C9 C7 1_555 1_555
H6 C9 1_555 1_555
C10 N6 1_555 1_555
H7 C10 1_555 1_555
C11 C8 1_555 1_555
H8 C11 1_555 1_555
Zn3 N6 1_555 1_555
C7 C8 1_555 1_555
C10 C11 1_555 1_555
N7 Zn1 1_555 1_555
N8 Zn1 1_555 1_555
N2 C2 1_555 1_555
C2 H2 1_555 1_555
N4 C2 1_555 1_555
C5 N7 1_555 1_555
N2 C5 1_555 1_555
C1 H1_2 1_555 1_555
N1 C1 1_555 1_555
Zn3 N1 1_555 1_555
Zn3 N3 1_555 1_555
C4 N3 1_555 1_555
N5 C3 1_555 1_555
H3 N5 1_555 1_555
H4 N5 1_555 1_555
O1 Zn3 1_555 1_555
N8 C9_2 1_555 1_555
O2 C6_2 1_555 1_555
C6_2 O1 1_555 1_555
C7_2 H5_2 1_555 1_555
C8_2 C6_2 1_555 1_555
C9_2 C7_2 1_555 1_555
H6_2 C9_2 1_555 1_555
C10_2 N8 1_555 1_555
H7_2 C10_2 1_555 1_555
C11_2 C8_2 1_555 1_555
H8_2 C11_2 1_555 1_555
C3 C4 1_555 1_555
C7_2 C8_2 1_555 1_555
C10_2 C11_2 1_555 1_555
N1_2 C1_2 1_555 1_555
N2_2 C2_2 1_555 1_555
C2_2 H2_2 1_555 1_555
N3_2 C1_2 1_555 1_555
C3_2 N4_2 1_555 1_555
N4_2 C2_2 1_555 1_555
C4_2 N3_2 1_555 1_555
C5_2 N1_2 1_555 1_555
N5_2 C3_2 1_555 1_555
H3_2 N5_2 1_555 1_555
H4_2 N5_2 1_555 1_555
Zn2 N1_2 1_555 1_555
N2_2 C5_2 1_555 1_555
C3_2 C4_2 1_555 1_555
C4_2 C5_2 1_555 1_555
N8_2 Zn2 1_555 1_555
N8_2 C9_3 1_555 1_555
O2_3 C6_3 1_555 1_555
C7_3 H5_3 1_555 1_555
C8_3 C6_3 1_555 1_555
C9_3 C7_3 1_555 1_555
H6_3 C9_3 1_555 1_555
C10_3 N8_2 1_555 1_555
H7_3 C10_3 1_555 1_555
C11_3 C8_3 1_555 1_555
H8_3 C11_3 1_555 1_555
C7_3 C8_3 1_555 1_555
C10_3 C11_3 1_555 1_555
N3_3 C1_3 1_555 1_555
C4_3 N3_3 1_555 1_555
N5_3 C3_3 1_555 1_555
H3_3 N5_3 1_555 1_555
H4_3 N5_3 1_555 1_555
N6_2 C9_4 1_555 1_555
C6_4 O1_3 1_555 1_555
C7_4 H5_4 1_555 1_555
C8_4 C6_4 1_555 1_555
C9_4 C7_4 1_555 1_555
H6_4 C9_4 1_555 1_555
C10_4 N6_2 1_555 1_555
H7_4 C10_4 1_555 1_555
C11_4 C8_4 1_555 1_555
H8_4 C11_4 1_555 1_555
Zn3_2 N6_2 1_555 1_555
C3_3 C4_3 1_555 1_555
C7_4 C8_4 1_555 1_555
C10_4 C11_4 1_555 1_555
Zn3_2 N3_4 1_555 1_555
N2_3 C2_3 1_555 1_555
C2_3 H2_3 1_555 1_555
C3_4 N4_3 1_555 1_555
N4_3 C2_3 1_555 1_555
C4_4 N3_4 1_555 1_555
N5_4 C3_4 1_555 1_555
H3_4 N5_4 1_555 1_555
H4_4 N5_4 1_555 1_555
O1_4 Zn3_2 1_555 1_555
N7_2 Zn3_2 1_555 1_555
N2_3 C5_3 1_555 1_555
C3_4 C4_4 1_555 1_555
C4_4 C5_3 1_555 1_555
N2_4 C2_4 1_555 1_555
C2_4 H2_4 1_555 1_555
N4_4 C2_4 1_555 1_555
N2_4 C5_4 1_555 1_555
C1_4 H1_4 1_555 1_555

#END
