
###############################################################################
#
# This file contains modified crystal structure data generated from the
# MOF subset of the Cambridge Structural Database (CSD) v543 
# hosted by the Cambridge Crystallographic Data Centre (CCDC).
#
# This work is licensed under the Creative Commons
# Attribution-NonCommercial-ShareAlike 4.0 International License.
# To view a copy of this license, visit
# http://creativecommons.org/licenses/by-nc-sa/4.0/
# or send a letter to
# Creative Commons, PO Box 1866, Mountain View, CA 94042, USA.
#
# CIF created using the CSD Python API on 29 September 2022
# The structure has been converted into the P1 space group
# The structure has a 3D framework
# The original CSD entry UYASOE is in the orthorhombic crystal system
# The framework has been calculated to contain at least 10.0% void space
# The void calculation uses a probe of radius 1.32A, grid spacing 0.4
#
###############################################################################

data_UYASOE
_chemical_formula_moiety         '(C88 H56 N24 O32 Zn12)n'
_symmetry_cell_setting           triclinic
_symmetry_space_group_name_H-M   'P 1'
_symmetry_Int_Tables_number      1
_space_group_name_Hall           'P 1'
loop_
_symmetry_equiv_pos_site_id
_symmetry_equiv_pos_as_xyz
1 x,y,z
_cell_length_a                   10.3131(9)
_cell_length_b                   13.2489(13)
_cell_length_c                   21.0186(17)
_cell_angle_alpha                90
_cell_angle_beta                 90
_cell_angle_gamma                90
_cell_volume                     2871.92
loop_
_atom_site_label
_atom_site_type_symbol
_atom_site_fract_x
_atom_site_fract_y
_atom_site_fract_z
H12 H 0.5559 0.0551 0.0486
Zn1 Zn 0.55990(9) 0.38755(8) 0.79401(5)
Zn2 Zn 0.2500 0.2500 0.57858(7)
N1 N 0.3941(6) 0.4446(6) 0.7590(4)
N2 N 0.2200(6) 0.5284(6) 0.7234(3)
N3 N 0.5442(7) 0.2598(5) 0.8483(4)
O1 O 0.5444(5) 0.3086(5) 0.7061(3)
O2 O 0.4130(5) 0.2768(5) 0.6248(4)
O3 O 0.1912(6) 0.3984(5) 0.5766(3)
O4 O 0.0740(6) 0.5201(4) 0.6222(3)
O5 O 0.2500 0.2500 0.4839(4)
H1 H 0.2175 0.3026 0.4709
C1 C 0.4416(9) 0.3245(7) 0.6739(5)
C2 C 0.3543(8) 0.4041(6) 0.7017(4)
C3 C 0.2490(8) 0.4583(6) 0.6792(4)
C4 C 0.1669(9) 0.4587(7) 0.6220(5)
C5 C 0.3101(9) 0.5191(7) 0.7706(4)
H2 H 0.3127 0.5598 0.8066
C6 C 0.4817(9) 0.1780(7) 0.8276(5)
H3 H 0.4496 0.1777 0.7862
C7 C 0.4626(9) 0.0926(7) 0.8656(5)
H4 H 0.4199 0.0364 0.8492
C8 C 0.5077(9) 0.0920(7) 0.9282(5)
C9 C 0.5721(10) 0.1767(7) 0.9486(6)
H5 H 0.6062 0.1793 0.9896
C10 C 0.5862(9) 0.2586(8) 0.9078(5)
H6 H 0.6276 0.3159 0.9233
C11 C 0.4835(9) 0.0013(8) 0.9693(4)
H13 H 0.2825 0.1974 0.4709
N5 N 0.1059(6) 0.0554(6) 0.7590(4)
O7 O 0.0870(5) 0.2232(5) 0.6248(4)
O8 O 0.3088(6) 0.1016(5) 0.5766(3)
C18 C 0.0584(9) 0.1755(7) 0.6739(5)
C19 C 0.1457(8) 0.0959(6) 0.7017(4)
C20 C 0.2510(8) 0.0417(6) 0.6792(4)
C21 C 0.3331(9) 0.0413(7) 0.6220(5)
Zn5 Zn 0.05990(9) 0.61245(8) 0.70599(5)
N8 N 0.7200(6) 0.4716(6) 0.7766(3)
O11 O 0.5740(6) 0.4799(4) 0.8778(3)
N4 N 0.4558(7) 0.7402(5) 0.1517(4)
C12 C 0.5183(9) 0.8220(7) 0.1724(5)
H8 H 0.5504 0.8223 0.2138
C13 C 0.5374(9) 0.9074(7) 0.1344(5)
H9 H 0.5801 0.9636 0.1508
C14 C 0.4923(9) 0.9080(7) 0.0718(5)
C15 C 0.4279(10) 0.8233(7) 0.0514(6)
H10 H 0.3938 0.8207 0.0104
C16 C 0.4138(9) 0.7414(8) 0.0922(5)
H11 H 0.3724 0.6841 0.0767
C17 C 0.5165(9) 0.9987(8) 0.0307(4)
Zn6 Zn 0.44010(9) 0.61245(8) 0.20599(5)
H7 H 0.4441 0.9449 0.9514
N6 N 0.2800(6) 0.9716(6) 0.7234(3)
O9 O 0.4260(6) 0.9799(4) 0.6222(3)
C22 C 0.1899(9) 0.9809(7) 0.7706(4)
H14 H 0.1873 0.9402 0.8066
Zn4 Zn 0.44010(9) 0.88755(8) 0.70599(5)
Zn3 Zn 0.94010(9) 0.11245(8) 0.79401(5)
O6 O 0.9556(5) 0.1914(5) 0.7061(3)
N7 N 0.7800(6) 0.0284(6) 0.7766(3)
N9 N 0.9558(7) 0.2402(5) 0.8483(4)
O10 O 0.9260(6) 0.0201(4) 0.8778(3)
N4_2 N 0.0442(7) 0.7598(5) 0.1517(4)
C14_2 C 0.0077(9) 0.5920(7) 0.0718(5)
C15_2 C 0.0721(10) 0.6767(7) 0.0514(6)
H10_2 H 0.1062 0.6793 0.0104
C16_2 C 0.0862(9) 0.7586(8) 0.0922(5)
H11_2 H 0.1276 0.8159 0.0767
Zn6_2 Zn 0.05990(9) 0.88755(8) 0.20599(5)
C6_2 C 0.0183(9) 0.3220(7) 0.8276(5)
H3_2 H 0.0504 0.3223 0.7862
C7_2 C 0.0374(9) 0.4074(7) 0.8656(5)
H4_2 H 0.0801 0.4636 0.8492
C11_2 C 0.0165(9) 0.4987(8) 0.9693(4)
H7_2 H 0.0559 0.5551 0.9514
C12_2 C 0.9817(9) 0.6780(7) 0.1724(5)
H8_2 H 0.9496 0.6777 0.2138
C13_2 C 0.9626(9) 0.5926(7) 0.1344(5)
H9_2 H 0.9199 0.5364 0.1508
C17_2 C 0.9835(9) 0.5013(8) 0.0307(4)
H12_2 H 0.9441 0.4449 0.0486
C8_2 C 0.9923(9) 0.4080(7) 0.9282(5)
C9_2 C 0.9279(10) 0.3233(7) 0.9486(6)
H5_2 H 0.8938 0.3207 0.9896
C10_2 C 0.9138(9) 0.2414(8) 0.9078(5)
H6_2 H 0.8724 0.1841 0.9233
O6_2 O 0.0444(5) 0.6914(5) 0.7939(3)
N9_2 N 0.0442(7) 0.7402(5) 0.6517(4)
C5_2 C 0.6899(9) 0.0191(7) 0.7294(4)
H2_2 H 0.6873 0.0598 0.6934
Zn2_2 Zn 0.7500 0.7500 0.92142(7)
N1_2 N 0.6059(6) 0.9446(6) 0.7410(4)
N3_2 N 0.4558(7) 0.7598(5) 0.6517(4)
O1_2 O 0.4556(5) 0.8086(5) 0.7939(3)
O2_2 O 0.5870(5) 0.7768(5) 0.8752(4)
O3_2 O 0.8088(6) 0.8984(5) 0.9234(3)
C1_2 C 0.5584(9) 0.8245(7) 0.8261(5)
C2_2 C 0.6457(8) 0.9041(6) 0.7983(4)
C3_2 C 0.7510(8) 0.9583(6) 0.8208(4)
C4_2 C 0.8331(9) 0.9587(7) 0.8780(5)
C6_3 C 0.5183(9) 0.6780(7) 0.6724(5)
H3_3 H 0.5504 0.6777 0.7138
C7_3 C 0.5374(9) 0.5926(7) 0.6344(5)
H4_3 H 0.5801 0.5364 0.6508
C8_3 C 0.4923(9) 0.5920(7) 0.5718(5)
C9_3 C 0.4279(10) 0.6767(7) 0.5514(6)
H5_3 H 0.3938 0.6793 0.5104
C10_3 C 0.4138(9) 0.7586(8) 0.5922(5)
H6_3 H 0.3724 0.8159 0.5767
C11_3 C 0.5165(9) 0.5013(8) 0.5307(4)
H7_3 H 0.5559 0.4449 0.5486
N4_3 N 0.5442(7) 0.2402(5) 0.3483(4)
C12_3 C 0.4817(9) 0.3220(7) 0.3276(5)
H8_3 H 0.4496 0.3223 0.2862
C13_3 C 0.4626(9) 0.4074(7) 0.3656(5)
H9_3 H 0.4199 0.4636 0.3492
C14_3 C 0.5077(9) 0.4080(7) 0.4282(5)
C15_3 C 0.5721(10) 0.3233(7) 0.4486(6)
H10_3 H 0.6062 0.3207 0.4896
C16_3 C 0.5862(9) 0.2414(8) 0.4078(5)
H11_3 H 0.6276 0.1841 0.4233
C17_3 C 0.4835(9) 0.4987(8) 0.4693(4)
H12_3 H 0.4441 0.5551 0.4514
N5_2 N 0.8941(6) 0.5554(6) 0.7410(4)
O7_2 O 0.9130(5) 0.7232(5) 0.8752(4)
O8_2 O 0.6912(6) 0.6016(5) 0.9234(3)
C18_2 C 0.9416(9) 0.6755(7) 0.8261(5)
C19_2 C 0.8543(8) 0.5959(6) 0.7983(4)
C20_2 C 0.7490(8) 0.5417(6) 0.8208(4)
C21_2 C 0.6669(9) 0.5413(7) 0.8780(5)
C22_2 C 0.8101(9) 0.4809(7) 0.7294(4)
H14_2 H 0.8127 0.4402 0.6934
Zn6_3 Zn 0.55990(9) 0.11245(8) 0.29401(5)
C12_4 C 0.0183(9) 0.1780(7) 0.3276(5)
H8_4 H 0.0504 0.1777 0.2862
C13_4 C 0.0374(9) 0.0926(7) 0.3656(5)
H9_4 H 0.0801 0.0364 0.3492
C17_4 C 0.0165(9) 0.0013(8) 0.4693(4)
C8_4 C 0.0077(9) 0.9080(7) 0.5718(5)
C9_4 C 0.0721(10) 0.8233(7) 0.5514(6)
H5_4 H 0.1062 0.8207 0.5104
C10_4 C 0.0862(9) 0.7414(8) 0.5922(5)
H6_4 H 0.1276 0.6841 0.5767
H12_4 H 0.0559 0.9449 0.4514
H7_4 H 0.9441 0.0551 0.5486
N4_4 N 0.9558(7) 0.2598(5) 0.3483(4)
C14_4 C 0.9923(9) 0.0920(7) 0.4282(5)
C15_4 C 0.9279(10) 0.1767(7) 0.4486(6)
H10_4 H 0.8938 0.1793 0.4896
C16_4 C 0.9138(9) 0.2586(8) 0.4078(5)
H11_4 H 0.8724 0.3159 0.4233
Zn6_4 Zn 0.94010(9) 0.38755(8) 0.29401(5)
C6_4 C 0.9817(9) 0.8220(7) 0.6724(5)
H3_4 H 0.9496 0.8223 0.7138
C7_4 C 0.9626(9) 0.9074(7) 0.6344(5)
H4_4 H 0.9199 0.9636 0.6508
C11_4 C 0.9835(9) 0.9987(8) 0.5307(4)
O6_3 O 0.0444(5) 0.8086(5) 0.2939(3)
N7_2 N 0.2200(6) 0.9716(6) 0.2234(3)
O10_2 O 0.0740(6) 0.9799(4) 0.1222(3)
N6_2 N 0.7200(6) 0.0284(6) 0.2766(3)
O9_2 O 0.5740(6) 0.0201(4) 0.3778(3)
C22_3 C 0.8101(9) 0.0191(7) 0.2294(4)
H14_3 H 0.8127 0.0598 0.1934
Zn2_3 Zn 0.7500 0.7500 0.42142(7)
N1_3 N 0.6059(6) 0.5554(6) 0.2410(4)
N2_2 N 0.7800(6) 0.4716(6) 0.2766(3)
O1_3 O 0.4556(5) 0.6914(5) 0.2939(3)
O2_3 O 0.5870(5) 0.7232(5) 0.3752(4)
O3_3 O 0.8088(6) 0.6016(5) 0.4234(3)
O4_2 O 0.9260(6) 0.4799(4) 0.3778(3)
O5_2 O 0.7500 0.7500 0.5161(4)
H1_2 H 0.7825 0.6974 0.5291
C1_3 C 0.5584(9) 0.6755(7) 0.3261(5)
C2_3 C 0.6457(8) 0.5959(6) 0.2983(4)
C3_3 C 0.7510(8) 0.5417(6) 0.3208(4)
C4_3 C 0.8331(9) 0.5413(7) 0.3780(5)
C5_3 C 0.6899(9) 0.4809(7) 0.2294(4)
H2_3 H 0.6873 0.4402 0.1934
H13_2 H 0.7175 0.8026 0.5291
N5_3 N 0.8941(6) 0.9446(6) 0.2410(4)
O7_3 O 0.9130(5) 0.7768(5) 0.3752(4)
O8_3 O 0.6912(6) 0.8984(5) 0.4234(3)
C18_3 C 0.9416(9) 0.8245(7) 0.3261(5)
C19_3 C 0.8543(8) 0.9041(6) 0.2983(4)
C20_3 C 0.7490(8) 0.9583(6) 0.3208(4)
C21_3 C 0.6669(9) 0.9587(7) 0.3780(5)
N8_2 N 0.2800(6) 0.5284(6) 0.2234(3)
O11_2 O 0.4260(6) 0.5201(4) 0.1222(3)
Zn2_4 Zn 0.2500 0.2500 0.07858(7)
N1_4 N 0.3941(6) 0.0554(6) 0.2590(4)
O1_4 O 0.5444(5) 0.1914(5) 0.2061(3)
O2_4 O 0.4130(5) 0.2232(5) 0.1248(4)
O3_4 O 0.1912(6) 0.1016(5) 0.0766(3)
C1_4 C 0.4416(9) 0.1755(7) 0.1739(5)
C2_4 C 0.3543(8) 0.0959(6) 0.2017(4)
C3_4 C 0.2490(8) 0.0417(6) 0.1792(4)
C4_4 C 0.1669(9) 0.0413(7) 0.1220(5)
N5_4 N 0.1059(6) 0.4446(6) 0.2590(4)
O7_4 O 0.0870(5) 0.2768(5) 0.1248(4)
O8_4 O 0.3088(6) 0.3984(5) 0.0766(3)
C18_4 C 0.0584(9) 0.3245(7) 0.1739(5)
C19_4 C 0.1457(8) 0.4041(6) 0.2017(4)
C20_4 C 0.2510(8) 0.4583(6) 0.1792(4)
C21_4 C 0.3331(9) 0.4587(7) 0.1220(5)
C22_4 C 0.1899(9) 0.5191(7) 0.2706(4)
H14_4 H 0.1873 0.5598 0.3066
C5_4 C 0.3101(9) 0.9809(7) 0.2706(4)
H2_4 H 0.3127 0.9402 0.3066
O6_4 O 0.9556(5) 0.3086(5) 0.2061(3)
O5_3 O 0.7500 0.7500 0.0161(4)
H1_3 H 0.7825 0.8026 0.0291
H13_3 H 0.7175 0.6974 0.0291
O5_4 O 0.2500 0.2500 0.9839(4)
H1_4 H 0.2175 0.1974 0.9709
H13_4 H 0.2825 0.3026 0.9709
loop_
_geom_bond_atom_site_label_1
_geom_bond_atom_site_label_2
_geom_bond_site_symmetry_1
_geom_bond_site_symmetry_2
Zn1 N1 1_555 1_555
Zn2 O2 1_555 1_555
N1 C2 1_555 1_555
N2 C3 1_555 1_555
N3 Zn1 1_555 1_555
O1 Zn1 1_555 1_555
O2 C1 1_555 1_555
O3 Zn2 1_555 1_555
O4 C4 1_555 1_555
O5 Zn2 1_555 1_555
H1 O5 1_555 1_555
C1 O1 1_555 1_555
C2 C1 1_555 1_555
C3 C2 1_555 1_555
C4 O3 1_555 1_555
C5 N1 1_555 1_555
H2 C5 1_555 1_555
C6 N3 1_555 1_555
H3 C6 1_555 1_555
C7 C6 1_555 1_555
H4 C7 1_555 1_555
C8 C7 1_555 1_555
C9 C8 1_555 1_555
H5 C9 1_555 1_555
C10 N3 1_555 1_555
H6 C10 1_555 1_555
C11 C8 1_555 1_555
H13 O5 1_555 1_555
N5 C19 1_555 1_555
O7 Zn2 1_555 1_555
O8 Zn2 1_555 1_555
C19 C18 1_555 1_555
C20 C19 1_555 1_555
C21 O8 1_555 1_555
Zn5 N2 1_555 1_555
N8 Zn1 1_555 1_555
O11 Zn1 1_555 1_555
N2 C5 1_555 1_555
O4 Zn5 1_555 1_555
C3 C4 1_555 1_555
C9 C10 1_555 1_555
O7 C18 1_555 1_555
C20 C21 1_555 1_555
N4 C12 1_555 1_555
C12 H8 1_555 1_555
C13 C12 1_555 1_555
H9 C13 1_555 1_555
C14 C13 1_555 1_555
C15 C14 1_555 1_555
H10 C15 1_555 1_555
C16 N4 1_555 1_555
H11 C16 1_555 1_555
Zn6 N4 1_555 1_555
C14 C17 1_555 1_555
C15 C16 1_555 1_555
H14 C22 1_555 1_555
Zn4 N6 1_555 1_555
N6 C22 1_555 1_555
O9 Zn4 1_555 1_555
O6 Zn3 1_555 1_555
N7 Zn3 1_555 1_555
N9 Zn3 1_555 1_555
O10 Zn3 1_555 1_555
C15_2 C14_2 1_555 1_555
H10_2 C15_2 1_555 1_555
C16_2 N4_2 1_555 1_555
H11_2 C16_2 1_555 1_555
Zn6_2 N4_2 1_555 1_555
C15_2 C16_2 1_555 1_555
H3_2 C6_2 1_555 1_555
C7_2 C6_2 1_555 1_555
H4_2 C7_2 1_555 1_555
H7_2 C11_2 1_555 1_555
C12_2 H8_2 1_555 1_555
C13_2 C12_2 1_555 1_555
H9_2 C13_2 1_555 1_555
H12_2 C17_2 1_555 1_555
C9_2 C8_2 1_555 1_555
H5_2 C9_2 1_555 1_555
C10_2 N9 1_555 1_555
H6_2 C10_2 1_555 1_555
C9_2 C10_2 1_555 1_555
O6_2 Zn5 1_555 1_555
N9_2 Zn5 1_555 1_555
H2_2 C5_2 1_555 1_555
N7 C5_2 1_555 1_555
Zn4 N1_2 1_555 1_555
Zn2_2 O2_2 1_555 1_555
N1_2 C2_2 1_555 1_555
N3_2 Zn4 1_555 1_555
O1_2 Zn4 1_555 1_555
O2_2 C1_2 1_555 1_555
O3_2 Zn2_2 1_555 1_555
C1_2 O1_2 1_555 1_555
C2_2 C1_2 1_555 1_555
C3_2 C2_2 1_555 1_555
C4_2 O3_2 1_555 1_555
C6_3 N3_2 1_555 1_555
H3_3 C6_3 1_555 1_555
C7_3 C6_3 1_555 1_555
H4_3 C7_3 1_555 1_555
C8_3 C7_3 1_555 1_555
C9_3 C8_3 1_555 1_555
H5_3 C9_3 1_555 1_555
C10_3 N3_2 1_555 1_555
H6_3 C10_3 1_555 1_555
C11_3 C8_3 1_555 1_555
H7_3 C11_3 1_555 1_555
N4_3 C12_3 1_555 1_555
C12_3 H8_3 1_555 1_555
C13_3 C12_3 1_555 1_555
H9_3 C13_3 1_555 1_555
C14_3 C13_3 1_555 1_555
C15_3 C14_3 1_555 1_555
H10_3 C15_3 1_555 1_555
C16_3 N4_3 1_555 1_555
H11_3 C16_3 1_555 1_555
C17_3 C11_3 1_555 1_555
H12_3 C17_3 1_555 1_555
N5_2 C19_2 1_555 1_555
N8 C20_2 1_555 1_555
O7_2 Zn2_2 1_555 1_555
O8_2 Zn2_2 1_555 1_555
O11 C21_2 1_555 1_555
C19_2 C18_2 1_555 1_555
C20_2 C19_2 1_555 1_555
C21_2 O8_2 1_555 1_555
C22_2 N5_2 1_555 1_555
H14_2 C22_2 1_555 1_555
Zn6_3 N4_3 1_555 1_555
C3_2 C4_2 1_555 1_555
C9_3 C10_3 1_555 1_555
C14_3 C17_3 1_555 1_555
C15_3 C16_3 1_555 1_555
N8 C22_2 1_555 1_555
O7_2 C18_2 1_555 1_555
C20_2 C21_2 1_555 1_555
C12_4 H8_4 1_555 1_555
C13_4 C12_4 1_555 1_555
H9_4 C13_4 1_555 1_555
C9_4 C8_4 1_555 1_555
H5_4 C9_4 1_555 1_555
C10_4 N9_2 1_555 1_555
H6_4 C10_4 1_555 1_555
C9_4 C10_4 1_555 1_555
C15_4 C14_4 1_555 1_555
H10_4 C15_4 1_555 1_555
C16_4 N4_4 1_555 1_555
H11_4 C16_4 1_555 1_555
Zn6_4 N4_4 1_555 1_555
C15_4 C16_4 1_555 1_555
H3_4 C6_4 1_555 1_555
C7_4 C6_4 1_555 1_555
H4_4 C7_4 1_555 1_555
O6_3 Zn6_2 1_555 1_555
N7_2 Zn6_2 1_555 1_555
O10_2 Zn6_2 1_555 1_555
H14_3 C22_3 1_555 1_555
Zn6_3 N6_2 1_555 1_555
N6_2 C22_3 1_555 1_555
O9_2 Zn6_3 1_555 1_555
Zn6 N1_3 1_555 1_555
Zn2_3 O2_3 1_555 1_555
N1_3 C2_3 1_555 1_555
N2_2 C3_3 1_555 1_555
O1_3 Zn6 1_555 1_555
O2_3 C1_3 1_555 1_555
O3_3 Zn2_3 1_555 1_555
O4_2 C4_3 1_555 1_555
O5_2 Zn2_3 1_555 1_555
H1_2 O5_2 1_555 1_555
C1_3 O1_3 1_555 1_555
C2_3 C1_3 1_555 1_555
C3_3 C2_3 1_555 1_555
C4_3 O3_3 1_555 1_555
C5_3 N1_3 1_555 1_555
H2_3 C5_3 1_555 1_555
H13_2 O5_2 1_555 1_555
N5_3 C19_3 1_555 1_555
O7_3 Zn2_3 1_555 1_555
O8_3 Zn2_3 1_555 1_555
C19_3 C18_3 1_555 1_555
C20_3 C19_3 1_555 1_555
C21_3 O8_3 1_555 1_555
Zn6_4 N2_2 1_555 1_555
N8_2 Zn6 1_555 1_555
O11_2 Zn6 1_555 1_555
N2_2 C5_3 1_555 1_555
O4_2 Zn6_4 1_555 1_555
C3_3 C4_3 1_555 1_555
O7_3 C18_3 1_555 1_555
C20_3 C21_3 1_555 1_555
Zn6_3 N1_4 1_555 1_555
Zn2_4 O2_4 1_555 1_555
N1_4 C2_4 1_555 1_555
O1_4 Zn6_3 1_555 1_555
O2_4 C1_4 1_555 1_555
O3_4 Zn2_4 1_555 1_555
C1_4 O1_4 1_555 1_555
C2_4 C1_4 1_555 1_555
C3_4 C2_4 1_555 1_555
C4_4 O3_4 1_555 1_555
N5_4 C19_4 1_555 1_555
N8_2 C20_4 1_555 1_555
O7_4 Zn2_4 1_555 1_555
O8_4 Zn2_4 1_555 1_555
O11_2 C21_4 1_555 1_555
C19_4 C18_4 1_555 1_555
C20_4 C19_4 1_555 1_555
C21_4 O8_4 1_555 1_555
C22_4 N5_4 1_555 1_555
H14_4 C22_4 1_555 1_555
C3_4 C4_4 1_555 1_555
N8_2 C22_4 1_555 1_555
O7_4 C18_4 1_555 1_555
C20_4 C21_4 1_555 1_555
H2_4 C5_4 1_555 1_555
N7_2 C5_4 1_555 1_555
O6_4 Zn6_4 1_555 1_555
H1_3 O5_3 1_555 1_555
H13_3 O5_3 1_555 1_555
H1_4 O5_4 1_555 1_555
H13_4 O5_4 1_555 1_555

#END
