
###############################################################################
#
# This file contains modified crystal structure data generated from the
# MOF subset of the Cambridge Structural Database (CSD) v543 
# hosted by the Cambridge Crystallographic Data Centre (CCDC).
#
# This work is licensed under the Creative Commons
# Attribution-NonCommercial-ShareAlike 4.0 International License.
# To view a copy of this license, visit
# http://creativecommons.org/licenses/by-nc-sa/4.0/
# or send a letter to
# Creative Commons, PO Box 1866, Mountain View, CA 94042, USA.
#
# CIF created using the CSD Python API on 29 September 2022
# The structure has been converted into the P1 space group
# The structure has a 3D framework
# The original CSD entry UYIHUI is in the monoclinic crystal system
# The framework has been calculated to contain at least 10.0% void space
# The void calculation uses a probe of radius 1.32A, grid spacing 0.4
#
###############################################################################

data_UYIHUI
_chemical_formula_moiety         '(C64 H40 N16 O12)n'
_symmetry_cell_setting           triclinic
_symmetry_space_group_name_H-M   'P 1'
_symmetry_Int_Tables_number      1
_space_group_name_Hall           'P 1'
loop_
_symmetry_equiv_pos_site_id
_symmetry_equiv_pos_as_xyz
1 x,y,z
_cell_length_a                   10.2170(3)
_cell_length_b                   10.2635(5)
_cell_length_c                   18.8505(6)
_cell_angle_alpha                90
_cell_angle_beta                 97.120(3)
_cell_angle_gamma                90
_cell_volume                     1961.46
loop_
_atom_site_label
_atom_site_type_symbol
_atom_site_fract_x
_atom_site_fract_y
_atom_site_fract_z
O2 O 0.0070(3) 0.8190(4) 0.56764(18)
Co4 Co 0.18470(7) 0.89528(9) 0.55539(4)
Co1 Co 0.81530(7) 0.10472(9) 0.44461(4)
O5 O 0.9930(3) 0.1810(4) 0.43236(18)
O6 O 0.6079(3) 0.0607(4) 0.43860(19)
O7 O 0.6709(3) 0.2383(4) 0.38763(18)
N5 N 0.8147(4) 0.2244(5) 0.5381(2)
N6 N 0.8202(4) 0.0176(5) 0.3417(2)
O1 O 0.8604(3) 0.9405(4) 0.5006(2)
O3 O 0.3921(3) 0.9393(4) 0.56140(19)
O4 O 0.3291(3) 0.7617(4) 0.61237(18)
N2 N 0.8520(4) 0.3961(4) 0.7898(2)
N3 N 0.8202(4) 0.4824(5) 0.8417(2)
N4 N 0.7616(4) 0.5708(5) 0.7375(2)
C1 C 0.8919(5) 0.8624(5) 0.5497(3)
C2 C 0.7883(4) 0.8095(6) 0.5917(3)
C3 C 0.6565(5) 0.8499(6) 0.5763(3)
H1 H 0.632635 0.913247 0.540214
C4 C 0.5609(5) 0.7963(6) 0.6144(3)
C5 C 0.4184(4) 0.8368(6) 0.5952(3)
C6 C 0.5937(5) 0.7046(6) 0.6672(3)
H2 H 0.527325 0.666877 0.691751
C7 C 0.7255(5) 0.6678(6) 0.6840(3)
C8 C 0.8221(5) 0.7201(5) 0.6461(3)
H3 H 0.911468 0.694281 0.657662
C9 C 0.7270(6) 0.4003(7) 0.6007(3)
H4 H 0.663186 0.467619 0.600631
C10 C 0.7280(6) 0.3228(7) 0.5421(3)
H5 H 0.664334 0.338796 0.501880
C11 C 0.9057(6) 0.2090(7) 0.5947(3)
H6 H 0.969997 0.142608 0.592842
C12 C 0.9116(6) 0.2836(7) 0.6555(3)
H7 H 0.978945 0.268523 0.694089
C13 C 0.8186(5) 0.3813(6) 0.6604(3)
C14 C 0.8151(5) 0.4507(6) 0.7279(3)
C15 C 0.7670(5) 0.5854(6) 0.8102(3)
C16 C 0.7175(6) 0.7013(6) 0.8467(3)
H8 H 0.721173 0.683561 0.897961
H9 H 0.626126 0.719223 0.826636
H10 H 0.772628 0.777037 0.839359
Co5 Co 0.81530(7) 0.39528(9) 0.94461(4)
Co1_2 Co 0.18470(7) 0.60472(9) 0.05539(4)
O5_2 O 0.0070(3) 0.6810(4) 0.06764(18)
O6_2 O 0.3921(3) 0.5607(4) 0.06140(19)
O7_2 O 0.3291(3) 0.7383(4) 0.11237(18)
N6_2 N 0.1798(4) 0.5176(5) 0.1583(2)
O1_2 O 0.1396(3) 0.4405(4) 0.9994(2)
O3_2 O 0.6079(3) 0.4393(4) 0.93860(19)
O4_2 O 0.6709(3) 0.2617(4) 0.88763(18)
N4_2 N 0.2384(4) 0.0708(5) 0.7625(2)
C1_2 C 0.1081(5) 0.3624(5) 0.9503(3)
C2_2 C 0.2117(4) 0.3095(6) 0.9083(3)
C3_2 C 0.3435(5) 0.3499(6) 0.9237(3)
H1_2 H 0.367365 0.413247 0.959786
C4_2 C 0.4391(5) 0.2963(6) 0.8856(3)
C5_2 C 0.5816(4) 0.3368(6) 0.9048(3)
C6_2 C 0.4063(5) 0.2046(6) 0.8328(3)
H2_2 H 0.472675 0.166877 0.808249
C7_2 C 0.2745(5) 0.1678(6) 0.8160(3)
C8_2 C 0.1779(5) 0.2201(5) 0.8539(3)
H3_2 H 0.088532 0.194281 0.842338
C15_2 C 0.2330(5) 0.0854(6) 0.6898(3)
C16_2 C 0.2825(6) 0.2013(6) 0.6533(3)
H8_2 H 0.278827 0.183561 0.602039
H9_2 H 0.373874 0.219223 0.673364
H10_2 H 0.227372 0.277037 0.660641
N5_2 N 0.1853(4) 0.7244(5) 0.9619(2)
N2_2 N 0.1480(4) 0.8961(4) 0.7102(2)
N3_2 N 0.1798(4) 0.9824(5) 0.6583(2)
C9_2 C 0.2730(6) 0.9003(7) 0.8993(3)
H4_2 H 0.336814 0.967619 0.899369
C10_2 C 0.2720(6) 0.8228(7) 0.9579(3)
H5_2 H 0.335666 0.838796 0.998120
C11_2 C 0.0943(6) 0.7090(7) 0.9053(3)
H6_2 H 0.030003 0.642608 0.907158
C12_2 C 0.0884(6) 0.7836(7) 0.8445(3)
H7_2 H 0.021055 0.768523 0.805911
C13_2 C 0.1814(5) 0.8813(6) 0.8396(3)
C14_2 C 0.1849(5) 0.9507(6) 0.7721(3)
O2_2 O 0.9930(3) 0.3190(4) 0.93236(18)
O1_3 O 0.1396(3) 0.0595(4) 0.4994(2)
N1 N 0.1853(4) 0.7756(5) 0.4619(2)
N2_3 N 0.1480(4) 0.6039(4) 0.2102(2)
N4_3 N 0.2384(4) 0.4292(5) 0.2625(2)
C1_3 C 0.1081(5) 0.1376(5) 0.4503(3)
C2_3 C 0.2117(4) 0.1905(6) 0.4083(3)
C3_3 C 0.3435(5) 0.1501(6) 0.4237(3)
H1_3 H 0.367365 0.086753 0.459786
C4_3 C 0.4391(5) 0.2037(6) 0.3856(3)
C5_3 C 0.5816(4) 0.1632(6) 0.4048(3)
C6_3 C 0.4063(5) 0.2954(6) 0.3328(3)
H2_3 H 0.472675 0.333123 0.308249
C7_3 C 0.2745(5) 0.3322(6) 0.3160(3)
C8_3 C 0.1779(5) 0.2799(5) 0.3539(3)
H3_3 H 0.088532 0.305719 0.342338
C9_3 C 0.2730(6) 0.5997(7) 0.3993(3)
H4_3 H 0.336814 0.532381 0.399369
C10_3 C 0.2720(6) 0.6772(7) 0.4579(3)
H5_3 H 0.335666 0.661204 0.498120
C11_3 C 0.0943(6) 0.7910(7) 0.4053(3)
H6_3 H 0.030003 0.857392 0.407158
C12_3 C 0.0884(6) 0.7164(7) 0.3445(3)
H7_3 H 0.021055 0.731477 0.305911
C13_3 C 0.1814(5) 0.6187(6) 0.3396(3)
C14_3 C 0.1849(5) 0.5493(6) 0.2721(3)
C15_3 C 0.2330(5) 0.4146(6) 0.1898(3)
C16_3 C 0.2825(6) 0.2987(6) 0.1533(3)
H8_3 H 0.278827 0.316439 0.102039
H9_3 H 0.373874 0.280777 0.173364
H10_3 H 0.227372 0.222963 0.160641
N1_2 N 0.8147(4) 0.2756(5) 0.0381(2)
N2_4 N 0.8520(4) 0.1039(4) 0.2898(2)
C9_4 C 0.7270(6) 0.0997(7) 0.1007(3)
H4_4 H 0.663186 0.032381 0.100631
C10_4 C 0.7280(6) 0.1772(7) 0.0421(3)
H5_4 H 0.664334 0.161204 0.001880
C11_4 C 0.9057(6) 0.2910(7) 0.0947(3)
H6_4 H 0.969997 0.357392 0.092842
C12_4 C 0.9116(6) 0.2164(7) 0.1555(3)
H7_4 H 0.978945 0.231477 0.194089
C13_4 C 0.8186(5) 0.1187(6) 0.1604(3)
C14_4 C 0.8151(5) 0.0493(6) 0.2279(3)
O1_4 O 0.8604(3) 0.5595(4) 0.0006(2)
N4_4 N 0.7616(4) 0.9292(5) 0.2375(2)
C1_4 C 0.8919(5) 0.6376(5) 0.0497(3)
C2_4 C 0.7883(4) 0.6905(6) 0.0917(3)
C3_4 C 0.6565(5) 0.6501(6) 0.0763(3)
H1_4 H 0.632635 0.586753 0.040214
C4_4 C 0.5609(5) 0.7037(6) 0.1144(3)
C5_4 C 0.4184(4) 0.6632(6) 0.0952(3)
C6_4 C 0.5937(5) 0.7954(6) 0.1672(3)
H2_4 H 0.527325 0.833123 0.191751
C7_4 C 0.7255(5) 0.8322(6) 0.1840(3)
C8_4 C 0.8221(5) 0.7799(5) 0.1461(3)
H3_4 H 0.911468 0.805719 0.157662
C15_4 C 0.7670(5) 0.9146(6) 0.3102(3)
C16_4 C 0.7175(6) 0.7987(6) 0.3467(3)
H8_4 H 0.721173 0.816439 0.397961
H9_4 H 0.626126 0.780777 0.326636
H10_4 H 0.772628 0.722963 0.339359
loop_
_geom_bond_atom_site_label_1
_geom_bond_atom_site_label_2
_geom_bond_site_symmetry_1
_geom_bond_site_symmetry_2
Co4 O2 1_555 1_555
O5 Co1 1_555 1_555
O6 Co1 1_555 1_555
O7 Co1 1_555 1_555
N5 Co1 1_555 1_555
N6 Co1 1_555 1_555
O1 C1 1_555 1_555
O3 C5 1_555 1_555
O4 C5 1_555 1_555
N5 C10 1_555 1_555
N2 N3 1_555 1_555
N3 C15 1_555 1_555
N4 C7 1_555 1_555
C1 C2 1_555 1_555
C2 C3 1_555 1_555
C3 H1 1_555 1_555
C4 C3 1_555 1_555
C5 C4 1_555 1_555
C6 C4 1_555 1_555
H2 C6 1_555 1_555
C7 C6 1_555 1_555
C8 C2 1_555 1_555
H3 C8 1_555 1_555
C9 H4 1_555 1_555
C10 C9 1_555 1_555
H5 C10 1_555 1_555
C11 N5 1_555 1_555
H6 C11 1_555 1_555
C12 C11 1_555 1_555
H7 C12 1_555 1_555
C13 C9 1_555 1_555
C14 N2 1_555 1_555
C15 N4 1_555 1_555
C16 C15 1_555 1_555
H8 C16 1_555 1_555
H9 C16 1_555 1_555
H10 C16 1_555 1_555
Co4 O3 1_555 1_555
Co5 N3 1_555 1_555
O4 Co4 1_555 1_555
N4 C14 1_555 1_555
C7 C8 1_555 1_555
C12 C13 1_555 1_555
C13 C14 1_555 1_555
O5_2 Co1_2 1_555 1_555
O6_2 Co1_2 1_555 1_555
O7_2 Co1_2 1_555 1_555
N6_2 Co1_2 1_555 1_555
O1_2 C1_2 1_555 1_555
O3_2 C5_2 1_555 1_555
O4_2 C5_2 1_555 1_555
N4_2 C7_2 1_555 1_555
C1_2 C2_2 1_555 1_555
C2_2 C3_2 1_555 1_555
C3_2 H1_2 1_555 1_555
C4_2 C3_2 1_555 1_555
C5_2 C4_2 1_555 1_555
C6_2 C4_2 1_555 1_555
H2_2 C6_2 1_555 1_555
C7_2 C6_2 1_555 1_555
C8_2 C2_2 1_555 1_555
H3_2 C8_2 1_555 1_555
C15_2 N4_2 1_555 1_555
C16_2 C15_2 1_555 1_555
H8_2 C16_2 1_555 1_555
H9_2 C16_2 1_555 1_555
H10_2 C16_2 1_555 1_555
Co5 O3_2 1_555 1_555
O4_2 Co5 1_555 1_555
C7_2 C8_2 1_555 1_555
N5_2 C10_2 1_555 1_555
N2_2 N3_2 1_555 1_555
C9_2 H4_2 1_555 1_555
C10_2 C9_2 1_555 1_555
H5_2 C10_2 1_555 1_555
C11_2 N5_2 1_555 1_555
H6_2 C11_2 1_555 1_555
C12_2 C11_2 1_555 1_555
H7_2 C12_2 1_555 1_555
C13_2 C9_2 1_555 1_555
C14_2 N2_2 1_555 1_555
Co4 N3_2 1_555 1_555
C12_2 C13_2 1_555 1_555
C13_2 C14_2 1_555 1_555
Co5 O2_2 1_555 1_555
O1_3 C1_3 1_555 1_555
O6 C5_3 1_555 1_555
O7 C5_3 1_555 1_555
N1 C10_3 1_555 1_555
N2_3 N6_2 1_555 1_555
N6_2 C15_3 1_555 1_555
N4_3 C7_3 1_555 1_555
C1_3 C2_3 1_555 1_555
C2_3 C3_3 1_555 1_555
C3_3 H1_3 1_555 1_555
C4_3 C3_3 1_555 1_555
C5_3 C4_3 1_555 1_555
C6_3 C4_3 1_555 1_555
H2_3 C6_3 1_555 1_555
C7_3 C6_3 1_555 1_555
C8_3 C2_3 1_555 1_555
H3_3 C8_3 1_555 1_555
C9_3 H4_3 1_555 1_555
C10_3 C9_3 1_555 1_555
H5_3 C10_3 1_555 1_555
C11_3 N1 1_555 1_555
H6_3 C11_3 1_555 1_555
C12_3 C11_3 1_555 1_555
H7_3 C12_3 1_555 1_555
C13_3 C9_3 1_555 1_555
C14_3 N2_3 1_555 1_555
C15_3 N4_3 1_555 1_555
C16_3 C15_3 1_555 1_555
H8_3 C16_3 1_555 1_555
H9_3 C16_3 1_555 1_555
H10_3 C16_3 1_555 1_555
Co4 N1 1_555 1_555
N4_3 C14_3 1_555 1_555
C7_3 C8_3 1_555 1_555
C12_3 C13_3 1_555 1_555
C13_3 C14_3 1_555 1_555
N1_2 C10_4 1_555 1_555
N2_4 N6 1_555 1_555
C9_4 H4_4 1_555 1_555
C10_4 C9_4 1_555 1_555
H5_4 C10_4 1_555 1_555
C11_4 N1_2 1_555 1_555
H6_4 C11_4 1_555 1_555
C12_4 C11_4 1_555 1_555
H7_4 C12_4 1_555 1_555
C13_4 C9_4 1_555 1_555
C14_4 N2_4 1_555 1_555
C12_4 C13_4 1_555 1_555
C13_4 C14_4 1_555 1_555
O1_4 C1_4 1_555 1_555
O6_2 C5_4 1_555 1_555
O7_2 C5_4 1_555 1_555
N4_4 C7_4 1_555 1_555
C1_4 C2_4 1_555 1_555
C2_4 C3_4 1_555 1_555
C3_4 H1_4 1_555 1_555
C4_4 C3_4 1_555 1_555
C5_4 C4_4 1_555 1_555
C6_4 C4_4 1_555 1_555
H2_4 C6_4 1_555 1_555
C7_4 C6_4 1_555 1_555
C8_4 C2_4 1_555 1_555
H3_4 C8_4 1_555 1_555
C15_4 N4_4 1_555 1_555
C16_4 C15_4 1_555 1_555
H8_4 C16_4 1_555 1_555
H9_4 C16_4 1_555 1_555
H10_4 C16_4 1_555 1_555
C7_4 C8_4 1_555 1_555

#END
