
###############################################################################
#
# This file contains modified crystal structure data generated from the
# MOF subset of the Cambridge Structural Database (CSD) v543 
# hosted by the Cambridge Crystallographic Data Centre (CCDC).
#
# This work is licensed under the Creative Commons
# Attribution-NonCommercial-ShareAlike 4.0 International License.
# To view a copy of this license, visit
# http://creativecommons.org/licenses/by-nc-sa/4.0/
# or send a letter to
# Creative Commons, PO Box 1866, Mountain View, CA 94042, USA.
#
# CIF created using the CSD Python API on 29 September 2022
# The structure has been converted into the P1 space group
# The structure has a 3D framework
# The original CSD entry UYIJAQ is in the monoclinic crystal system
# The framework has been calculated to contain at least 10.0% void space
# The void calculation uses a probe of radius 1.32A, grid spacing 0.4
#
###############################################################################

data_UYIJAQ
_chemical_formula_moiety         '(C64 H40 Co2 N16 O12)n'
_symmetry_cell_setting           triclinic
_symmetry_space_group_name_H-M   'P 1'
_symmetry_Int_Tables_number      1
_space_group_name_Hall           'P 1'
loop_
_symmetry_equiv_pos_site_id
_symmetry_equiv_pos_as_xyz
1 x,y,z
_cell_length_a                   10.2064(2)
_cell_length_b                   9.5009(3)
_cell_length_c                   19.4082(5)
_cell_angle_alpha                90
_cell_angle_beta                 95.632(2)
_cell_angle_gamma                90
_cell_volume                     1872.93
loop_
_atom_site_label
_atom_site_type_symbol
_atom_site_fract_x
_atom_site_fract_y
_atom_site_fract_z
Co1 Co 0.18656(4) 0.10302(5) 0.55347(2)
O5 O 0.01025(19) 0.1895(2) 0.56784(11)
O6 O 0.3943(2) 0.0542(3) 0.56153(13)
O7 O 0.3298(2) 0.2537(3) 0.60312(13)
N5 N 0.1840(3) 0.0189(3) 0.65672(12)
N6 N 0.1927(3) 0.2113(3) 0.45551(14)
O2 O 0.1367(2) 0.9195(2) 0.50583(12)
O3 O 0.6057(2) 0.9458(3) 0.43847(13)
O4 O 0.6702(2) 0.7463(3) 0.39688(13)
N1 N 0.1840(3) 0.4811(3) 0.15672(12)
N2 N 0.2436(3) 0.5704(3) 0.25840(13)
N4 N 0.1563(3) 0.3821(3) 0.20629(14)
C1 C 0.1053(3) 0.8504(3) 0.45215(15)
C2 C 0.5813(3) 0.8323(4) 0.40785(15)
C3 C 0.2776(3) 0.6694(4) 0.31319(15)
C4 C 0.3420(3) 0.8435(4) 0.42505(16)
H1 H 0.363830 0.903795 0.462156
C5 C 0.4088(3) 0.7045(4) 0.33069(16)
H2 H 0.474402 0.668887 0.305579
C6 C 0.2114(3) 0.8036(3) 0.40863(14)
C7 C 0.4397(3) 0.7941(4) 0.38661(16)
C8 C 0.1791(3) 0.7174(4) 0.35096(15)
H3 H 0.091858 0.692770 0.338229
C9 C 0.1938(3) 0.4376(4) 0.26587(15)
C10 C 0.1919(3) 0.3622(4) 0.33252(15)
C11 C 0.2360(3) 0.5922(3) 0.18834(16)
C12 C 0.2838(4) 0.7200(4) 0.15515(19)
H4 H 0.378332 0.721416 0.160747
H5 H 0.250590 0.802049 0.176449
H6 H 0.253635 0.719370 0.106723
C13 C 0.0931(4) 0.2736(5) 0.3440(2)
H7 H 0.022987 0.261166 0.310140
C14 C 0.0959(4) 0.2011(6) 0.4058(2)
H8 H 0.025575 0.142157 0.412696
C15 C 0.2967(5) 0.3693(7) 0.3824(3)
H9 H 0.369062 0.425517 0.375900
C16 C 0.2933(5) 0.2914(7) 0.4429(2)
H10 H 0.365343 0.295992 0.476128
Co4 Co 0.81344(4) 0.89698(5) 0.44653(2)
Co5 Co 0.18656(4) 0.39698(5) 0.05347(2)
O1 O 0.98975(19) 0.8105(2) 0.43216(11)
O1_2 O 0.01025(19) 0.3105(2) 0.06784(11)
O3_2 O 0.3943(2) 0.4458(3) 0.06153(13)
O4_2 O 0.3298(2) 0.2463(3) 0.10312(13)
N2_2 N 0.7564(3) 0.0704(3) 0.24160(13)
C1_2 C 0.8947(3) 0.3504(3) 0.04785(15)
C2_2 C 0.4187(3) 0.3323(4) 0.09215(15)
C3_2 C 0.7224(3) 0.1694(4) 0.18681(15)
C4_2 C 0.6580(3) 0.3435(4) 0.07495(16)
H1_2 H 0.636170 0.403795 0.037844
C5_2 C 0.5912(3) 0.2045(4) 0.16931(16)
H2_2 H 0.525598 0.168887 0.194421
C6_2 C 0.7886(3) 0.3036(3) 0.09137(14)
C7_2 C 0.5603(3) 0.2941(4) 0.11339(16)
C8_2 C 0.8209(3) 0.2174(4) 0.14904(15)
H3_2 H 0.908142 0.192770 0.161771
C11_2 C 0.7640(3) 0.0922(3) 0.31166(16)
C12_2 C 0.7162(4) 0.2200(4) 0.34485(19)
H4_2 H 0.621668 0.221416 0.339253
H5_2 H 0.749410 0.302049 0.323551
H6_2 H 0.746365 0.219370 0.393277
N6_2 N 0.8073(3) 0.7113(3) 0.04449(14)
Co1_2 Co 0.81344(4) 0.60302(5) 0.94653(2)
O2_2 O 0.8633(2) 0.4195(2) 0.99417(12)
O5_2 O 0.98975(19) 0.6895(2) 0.93216(11)
O6_2 O 0.6057(2) 0.5542(3) 0.93847(13)
O7_2 O 0.6702(2) 0.7537(3) 0.89688(13)
N5_2 N 0.8160(3) 0.5189(3) 0.84328(12)
N1_2 N 0.8160(3) 0.9811(3) 0.34328(12)
N4_2 N 0.8437(3) 0.8821(3) 0.29371(14)
C9_2 C 0.8062(3) 0.9376(4) 0.23413(15)
C10_2 C 0.8081(3) 0.8622(4) 0.16748(15)
C13_2 C 0.9069(4) 0.7736(5) 0.1560(2)
H7_2 H 0.977013 0.761166 0.189860
C14_2 C 0.9041(4) 0.7011(6) 0.0942(2)
H8_2 H 0.974425 0.642157 0.087304
C15_2 C 0.7033(5) 0.8693(7) 0.1176(3)
H9_2 H 0.630938 0.925517 0.124100
C16_2 C 0.7067(5) 0.7914(7) 0.0571(2)
H10_2 H 0.634657 0.795992 0.023872
O2_3 O 0.8633(2) 0.0805(2) 0.49417(12)
N2_3 N 0.7564(3) 0.4296(3) 0.74160(13)
N3 N 0.8073(3) 0.7887(3) 0.54449(14)
N4_3 N 0.8437(3) 0.6179(3) 0.79371(14)
C1_3 C 0.8947(3) 0.1496(3) 0.54785(15)
C2_3 C 0.4187(3) 0.1677(4) 0.59215(15)
C3_3 C 0.7224(3) 0.3306(4) 0.68681(15)
C4_3 C 0.6580(3) 0.1565(4) 0.57495(16)
H1_3 H 0.636170 0.096205 0.537844
C5_3 C 0.5912(3) 0.2955(4) 0.66931(16)
H2_3 H 0.525598 0.331113 0.694421
C6_3 C 0.7886(3) 0.1964(3) 0.59137(14)
C7_3 C 0.5603(3) 0.2059(4) 0.61339(16)
C8_3 C 0.8209(3) 0.2826(4) 0.64904(15)
H3_3 H 0.908142 0.307230 0.661771
C9_3 C 0.8062(3) 0.5624(4) 0.73413(15)
C10_3 C 0.8081(3) 0.6378(4) 0.66748(15)
C11_3 C 0.7640(3) 0.4078(3) 0.81166(16)
C12_3 C 0.7162(4) 0.2800(4) 0.84485(19)
H4_3 H 0.621668 0.278584 0.839253
H5_3 H 0.749410 0.197951 0.823551
H6_3 H 0.746365 0.280630 0.893277
C13_3 C 0.9069(4) 0.7264(5) 0.6560(2)
H7_3 H 0.977013 0.738834 0.689860
C14_3 C 0.9041(4) 0.7989(6) 0.5942(2)
H8_3 H 0.974425 0.857843 0.587304
C15_3 C 0.7033(5) 0.6307(7) 0.6176(3)
H9_3 H 0.630938 0.574483 0.624100
C16_3 C 0.7067(5) 0.7086(7) 0.5571(2)
H10_3 H 0.634657 0.704008 0.523872
N3_2 N 0.1927(3) 0.2887(3) 0.95551(14)
N4_4 N 0.1563(3) 0.1179(3) 0.70629(14)
C9_4 C 0.1938(3) 0.0624(4) 0.76587(15)
C10_4 C 0.1919(3) 0.1378(4) 0.83252(15)
C13_4 C 0.0931(4) 0.2264(5) 0.8440(2)
H7_4 H 0.022987 0.238834 0.810140
C14_4 C 0.0959(4) 0.2989(6) 0.9058(2)
H8_4 H 0.025575 0.357843 0.912696
C15_4 C 0.2967(5) 0.1307(7) 0.8824(3)
H9_4 H 0.369062 0.074483 0.875900
C16_4 C 0.2933(5) 0.2086(7) 0.9429(2)
H10_4 H 0.365343 0.204008 0.976128
O2_4 O 0.1367(2) 0.5805(2) 0.00583(12)
N2_4 N 0.2436(3) 0.9296(3) 0.75840(13)
C1_4 C 0.1053(3) 0.6496(3) 0.95215(15)
C2_4 C 0.5813(3) 0.6677(4) 0.90785(15)
C3_4 C 0.2776(3) 0.8306(4) 0.81319(15)
C4_4 C 0.3420(3) 0.6565(4) 0.92505(16)
H1_4 H 0.363830 0.596205 0.962156
C5_4 C 0.4088(3) 0.7955(4) 0.83069(16)
H2_4 H 0.474402 0.831113 0.805579
C6_4 C 0.2114(3) 0.6964(3) 0.90863(14)
C7_4 C 0.4397(3) 0.7059(4) 0.88661(16)
C8_4 C 0.1791(3) 0.7826(4) 0.85096(15)
H3_4 H 0.091858 0.807230 0.838229
C11_4 C 0.2360(3) 0.9078(3) 0.68834(16)
C12_4 C 0.2838(4) 0.7800(4) 0.65515(19)
H4_4 H 0.378332 0.778584 0.660747
H5_4 H 0.250590 0.697951 0.676449
H6_4 H 0.253635 0.780630 0.606723
loop_
_geom_bond_atom_site_label_1
_geom_bond_atom_site_label_2
_geom_bond_site_symmetry_1
_geom_bond_site_symmetry_2
O5 Co1 1_555 1_555
O6 Co1 1_555 1_555
O7 Co1 1_555 1_555
N5 Co1 1_555 1_555
N6 Co1 1_555 1_555
O2 C1 1_555 1_555
O3 C2 1_555 1_555
O4 C2 1_555 1_555
N1 N4 1_555 1_555
N2 C3 1_555 1_555
N6 C14 1_555 1_555
N4 C9 1_555 1_555
C1 C6 1_555 1_555
C2 C7 1_555 1_555
C3 C5 1_555 1_555
C4 H1 1_555 1_555
C5 H2 1_555 1_555
C6 C4 1_555 1_555
C7 C4 1_555 1_555
C8 C3 1_555 1_555
H3 C8 1_555 1_555
C9 N2 1_555 1_555
C10 C9 1_555 1_555
C11 N1 1_555 1_555
C12 C11 1_555 1_555
H4 C12 1_555 1_555
H5 C12 1_555 1_555
H6 C12 1_555 1_555
C13 C10 1_555 1_555
H7 C13 1_555 1_555
C14 C13 1_555 1_555
H8 C14 1_555 1_555
C15 C10 1_555 1_555
H9 C15 1_555 1_555
C16 N6 1_555 1_555
H10 C16 1_555 1_555
Co4 O3 1_555 1_555
Co5 N1 1_555 1_555
O4 Co4 1_555 1_555
N2 C11 1_555 1_555
C5 C7 1_555 1_555
C6 C8 1_555 1_555
C15 C16 1_555 1_555
Co4 O1 1_555 1_555
Co5 O1_2 1_555 1_555
O3_2 C2_2 1_555 1_555
O4_2 C2_2 1_555 1_555
N2_2 C3_2 1_555 1_555
C1_2 C6_2 1_555 1_555
C2_2 C7_2 1_555 1_555
C3_2 C5_2 1_555 1_555
C4_2 H1_2 1_555 1_555
C5_2 H2_2 1_555 1_555
C6_2 C4_2 1_555 1_555
C7_2 C4_2 1_555 1_555
C8_2 C3_2 1_555 1_555
H3_2 C8_2 1_555 1_555
C12_2 C11_2 1_555 1_555
H4_2 C12_2 1_555 1_555
H5_2 C12_2 1_555 1_555
H6_2 C12_2 1_555 1_555
Co5 O3_2 1_555 1_555
O4_2 Co5 1_555 1_555
N2_2 C11_2 1_555 1_555
C5_2 C7_2 1_555 1_555
C6_2 C8_2 1_555 1_555
Co1_2 O2_2 1_555 1_555
O5_2 Co1_2 1_555 1_555
O6_2 Co1_2 1_555 1_555
O7_2 Co1_2 1_555 1_555
N5_2 Co1_2 1_555 1_555
N1_2 N4_2 1_555 1_555
N6_2 C14_2 1_555 1_555
N4_2 C9_2 1_555 1_555
C10_2 C9_2 1_555 1_555
C13_2 C10_2 1_555 1_555
H7_2 C13_2 1_555 1_555
C14_2 C13_2 1_555 1_555
H8_2 C14_2 1_555 1_555
C15_2 C10_2 1_555 1_555
H9_2 C15_2 1_555 1_555
C16_2 N6_2 1_555 1_555
H10_2 C16_2 1_555 1_555
Co4 N1_2 1_555 1_555
C15_2 C16_2 1_555 1_555
O2_3 C1_3 1_555 1_555
O6 C2_3 1_555 1_555
O7 C2_3 1_555 1_555
N5_2 N4_3 1_555 1_555
N2_3 C3_3 1_555 1_555
N3 C14_3 1_555 1_555
N4_3 C9_3 1_555 1_555
C1_3 C6_3 1_555 1_555
C2_3 C7_3 1_555 1_555
C3_3 C5_3 1_555 1_555
C4_3 H1_3 1_555 1_555
C5_3 H2_3 1_555 1_555
C6_3 C4_3 1_555 1_555
C7_3 C4_3 1_555 1_555
C8_3 C3_3 1_555 1_555
H3_3 C8_3 1_555 1_555
C9_3 N2_3 1_555 1_555
C10_3 C9_3 1_555 1_555
C11_3 N5_2 1_555 1_555
C12_3 C11_3 1_555 1_555
H4_3 C12_3 1_555 1_555
H5_3 C12_3 1_555 1_555
H6_3 C12_3 1_555 1_555
C13_3 C10_3 1_555 1_555
H7_3 C13_3 1_555 1_555
C14_3 C13_3 1_555 1_555
H8_3 C14_3 1_555 1_555
C15_3 C10_3 1_555 1_555
H9_3 C15_3 1_555 1_555
C16_3 N3 1_555 1_555
H10_3 C16_3 1_555 1_555
Co4 N3 1_555 1_555
N2_3 C11_3 1_555 1_555
C5_3 C7_3 1_555 1_555
C6_3 C8_3 1_555 1_555
C15_3 C16_3 1_555 1_555
N5 N4_4 1_555 1_555
N3_2 C14_4 1_555 1_555
N4_4 C9_4 1_555 1_555
C10_4 C9_4 1_555 1_555
C13_4 C10_4 1_555 1_555
H7_4 C13_4 1_555 1_555
C14_4 C13_4 1_555 1_555
H8_4 C14_4 1_555 1_555
C15_4 C10_4 1_555 1_555
H9_4 C15_4 1_555 1_555
C16_4 N3_2 1_555 1_555
H10_4 C16_4 1_555 1_555
C15_4 C16_4 1_555 1_555
Co5 O2_4 1_555 1_555
O6_2 C2_4 1_555 1_555
O7_2 C2_4 1_555 1_555
N2_4 C3_4 1_555 1_555
C1_4 C6_4 1_555 1_555
C2_4 C7_4 1_555 1_555
C3_4 C5_4 1_555 1_555
C4_4 H1_4 1_555 1_555
C5_4 H2_4 1_555 1_555
C6_4 C4_4 1_555 1_555
C7_4 C4_4 1_555 1_555
C8_4 C3_4 1_555 1_555
H3_4 C8_4 1_555 1_555
C12_4 C11_4 1_555 1_555
H4_4 C12_4 1_555 1_555
H5_4 C12_4 1_555 1_555
H6_4 C12_4 1_555 1_555
N2_4 C11_4 1_555 1_555
C5_4 C7_4 1_555 1_555
C6_4 C8_4 1_555 1_555

#END
