
###############################################################################
#
# This file contains modified crystal structure data generated from the
# MOF subset of the Cambridge Structural Database (CSD) v543 
# hosted by the Cambridge Crystallographic Data Centre (CCDC).
#
# This work is licensed under the Creative Commons
# Attribution-NonCommercial-ShareAlike 4.0 International License.
# To view a copy of this license, visit
# http://creativecommons.org/licenses/by-nc-sa/4.0/
# or send a letter to
# Creative Commons, PO Box 1866, Mountain View, CA 94042, USA.
#
# CIF created using the CSD Python API on 29 September 2022
# The structure has been converted into the P1 space group
# The structure has a 3D framework
# The original CSD entry UYISUT is in the monoclinic crystal system
# The framework has been calculated to contain at least 10.0% void space
# The void calculation uses a probe of radius 1.32A, grid spacing 0.4
#
###############################################################################

data_UYISUT
_chemical_formula_moiety         '(C48 H24 Cu2 N24 O16)n'
_symmetry_cell_setting           triclinic
_symmetry_space_group_name_H-M   'P 1'
_symmetry_Int_Tables_number      1
_space_group_name_Hall           'P 1'
loop_
_symmetry_equiv_pos_site_id
_symmetry_equiv_pos_as_xyz
1 x,y,z
_cell_length_a                   11.543(2)
_cell_length_b                   15.509(3)
_cell_length_c                   15.083(3)
_cell_angle_alpha                90
_cell_angle_beta                 109.28(3)
_cell_angle_gamma                90
_cell_volume                     2548.73
loop_
_atom_site_label
_atom_site_type_symbol
_atom_site_fract_x
_atom_site_fract_y
_atom_site_fract_z
O7 O 0.6068(2) 0.18620(15) 0.15952(18)
O8 O 0.7617(3) 0.1008(3) 0.1758(4)
N10 N 0.3196(3) 0.22160(16) 0.1466(2)
N11 N 0.3807(3) 0.13556(17) 0.0582(2)
N12 N 0.3507(5) 0.2090(2) 0.0076(3)
C19 C 0.4436(3) 0.0676(2) 0.0284(2)
C20 C 0.3640(3) 0.1442(2) 0.1398(3)
H10 H 0.380986 0.101965 0.186154
C21 C 0.5712(3) 0.0588(2) 0.0681(3)
C23 C 0.6544(4) 0.1197(2) 0.1409(3)
C24 C 0.3151(5) 0.2597(3) 0.0643(3)
H12 H 0.289437 0.316321 0.049219
Cu5 Cu 0.69782(4) 0.27831(2) 0.23956(3)
Cu7 Cu 0.30218(4) 0.27831(2) 0.26044(3)
Cu1 Cu 0.30218(4) 0.72169(2) 0.76044(3)
O1 O 0.2171(2) 0.62572(14) 0.68265(17)
O2 O 0.3932(2) 0.81380(15) 0.84048(18)
O3 O 0.0470(3) 0.70198(18) 0.6417(3)
O4 O 0.2383(3) 0.8992(3) 0.8242(4)
N1 N 0.6804(3) 0.77840(16) 0.8534(2)
N2 N 0.6193(3) 0.86444(17) 0.9418(2)
N3 N 0.1649(3) 0.39265(18) 0.4503(2)
N4 N 0.2603(3) 0.32545(18) 0.3697(2)
N5 N 0.2510(4) 0.3455(3) 0.5145(2)
N6 N 0.6493(5) 0.7910(2) 0.9924(3)
C1 C 0.1242(3) 0.5102(2) 0.5409(3)
H1 H 0.208757 0.516216 0.568122
C2 C 0.0483(3) 0.5661(2) 0.5666(2)
C3 C 0.5564(3) 0.9324(2) 0.9716(2)
C4 C 0.1732(3) 0.3810(2) 0.3666(2)
H2 H 0.124028 0.408282 0.312311
C5 C 0.0785(3) 0.4454(2) 0.4758(2)
C6 C 0.1059(4) 0.6378(2) 0.6359(3)
C7 C 0.6360(3) 0.8558(2) 0.8602(3)
H3 H 0.619014 0.898035 0.813846
C8 C 0.4288(3) 0.9412(2) 0.9319(3)
C10 C 0.3456(4) 0.8803(2) 0.8591(3)
C11 C 0.3053(5) 0.3053(4) 0.4621(3)
H5 H 0.369262 0.266345 0.486460
C12 C 0.6849(5) 0.7403(3) 0.9357(3)
H6 H 0.710563 0.683679 0.950781
Cu3 Cu 0.69782(4) 0.72169(2) 0.73956(3)
N14 N 0.3196(3) 0.77840(16) 0.6466(2)
N15 N 0.2603(3) 0.67455(18) 0.8697(2)
O5 O 0.7829(2) 0.37428(14) 0.31735(17)
O6 O 0.9530(3) 0.29802(18) 0.3583(3)
N7 N 0.8351(3) 0.60735(18) 0.5497(2)
N8 N 0.7397(3) 0.67455(18) 0.6303(2)
N9 N 0.7490(4) 0.6545(3) 0.4855(2)
C13 C 0.8758(3) 0.4898(2) 0.4591(3)
H7 H 0.791243 0.483784 0.431878
C14 C 0.9517(3) 0.4339(2) 0.4334(2)
C15 C 0.8268(3) 0.6190(2) 0.6334(2)
H8 H 0.875972 0.591718 0.687689
C16 C 0.9215(3) 0.5546(2) 0.5242(2)
C17 C 0.8941(4) 0.3622(2) 0.3641(3)
C18 C 0.6947(5) 0.6947(4) 0.5379(3)
H9 H 0.630738 0.733655 0.513540
O9 O 0.7829(2) 0.62572(14) 0.81735(17)
O10 O 0.6068(2) 0.81380(15) 0.65952(18)
O5_2 O 0.2171(2) 0.37428(14) 0.18265(17)
O6_2 O 0.0470(3) 0.29802(18) 0.1417(3)
N9_2 N 0.2510(4) 0.6545(3) 0.0145(2)
C13_2 C 0.1242(3) 0.4898(2) 0.0409(3)
H7_2 H 0.208757 0.483784 0.068122
C14_2 C 0.0483(3) 0.4339(2) 0.0666(2)
C17_2 C 0.1059(4) 0.3622(2) 0.1359(3)
N7_2 N 0.1649(3) 0.60735(18) 0.9503(2)
C15_2 C 0.1732(3) 0.6190(2) 0.8666(2)
H8_2 H 0.124028 0.591718 0.812311
C16_2 C 0.0785(3) 0.5546(2) 0.9758(2)
C18_2 C 0.3053(5) 0.6947(4) 0.9621(3)
H9_2 H 0.369262 0.733655 0.986460
O7_2 O 0.3932(2) 0.18620(15) 0.34048(18)
O8_2 O 0.2383(3) 0.1008(3) 0.3242(4)
N10_2 N 0.6804(3) 0.22160(16) 0.3534(2)
N11_2 N 0.6193(3) 0.13556(17) 0.4418(2)
N12_2 N 0.6493(5) 0.2090(2) 0.4924(3)
C19_2 C 0.5564(3) 0.0676(2) 0.4716(2)
C20_2 C 0.6360(3) 0.1442(2) 0.3602(3)
H10_2 H 0.619014 0.101965 0.313846
C21_2 C 0.4288(3) 0.0588(2) 0.4319(3)
C22 C 0.6245(3) 0.0098(2) 0.5367(3)
H11 H 0.709259 0.016670 0.560652
C23_2 C 0.3456(4) 0.1197(2) 0.3591(3)
C24_2 C 0.6849(5) 0.2597(3) 0.4357(3)
H12_2 H 0.710563 0.316321 0.450781
N3_2 N 0.8351(3) 0.39265(18) 0.0497(2)
N4_2 N 0.7397(3) 0.32545(18) 0.1303(2)
C4_2 C 0.8268(3) 0.3810(2) 0.1334(2)
H2_2 H 0.875972 0.408282 0.187689
C5_2 C 0.9215(3) 0.4454(2) 0.0242(2)
C11_2 C 0.6947(5) 0.3053(4) 0.0379(3)
H5_2 H 0.630738 0.266345 0.013540
O3_2 O 0.9530(3) 0.70198(18) 0.8583(3)
O4_2 O 0.7617(3) 0.8992(3) 0.6758(4)
N2_2 N 0.3807(3) 0.86444(17) 0.5582(2)
N5_2 N 0.7490(4) 0.3455(3) 0.9855(2)
N6_2 N 0.3507(5) 0.7910(2) 0.5076(3)
C1_2 C 0.8758(3) 0.5102(2) 0.9591(3)
H1_2 H 0.791243 0.516216 0.931878
C2_2 C 0.9517(3) 0.5661(2) 0.9334(2)
C3_2 C 0.4436(3) 0.9324(2) 0.5284(2)
C6_2 C 0.8941(4) 0.6378(2) 0.8641(3)
C7_2 C 0.3640(3) 0.8558(2) 0.6398(3)
H3_2 H 0.380986 0.898035 0.686154
C8_2 C 0.5712(3) 0.9412(2) 0.5681(3)
C9 C 0.3755(3) 0.9902(2) 0.4633(3)
H4 H 0.290741 0.983330 0.439348
C10_2 C 0.6544(4) 0.8803(2) 0.6409(3)
C12_2 C 0.3151(5) 0.7403(3) 0.5643(3)
H6_2 H 0.289437 0.683679 0.549219
C22_2 C 0.3755(3) 0.0098(2) 0.9633(3)
H11_2 H 0.290741 0.016670 0.939348
C9_2 C 0.6245(3) 0.9902(2) 0.0367(3)
H4_2 H 0.709259 0.983330 0.060652
loop_
_geom_bond_atom_site_label_1
_geom_bond_atom_site_label_2
_geom_bond_site_symmetry_1
_geom_bond_site_symmetry_2
O7 C23 1_555 1_555
O8 C23 1_555 1_555
N10 C20 1_555 1_555
N11 N12 1_555 1_555
N12 C24 1_555 1_555
C19 N11 1_555 1_555
C20 N11 1_555 1_555
H10 C20 1_555 1_555
C23 C21 1_555 1_555
C24 N10 1_555 1_555
H12 C24 1_555 1_555
Cu5 O7 1_555 1_555
Cu7 N10 1_555 1_555
C19 C21 1_555 1_555
Cu1 O1 1_555 1_555
O1 C6 1_555 1_555
O2 Cu1 1_555 1_555
O3 C6 1_555 1_555
O4 C10 1_555 1_555
N1 C7 1_555 1_555
N2 N6 1_555 1_555
N3 N5 1_555 1_555
N4 C4 1_555 1_555
N5 C11 1_555 1_555
N6 C12 1_555 1_555
C1 H1 1_555 1_555
C2 C1 1_555 1_555
C3 N2 1_555 1_555
C4 N3 1_555 1_555
H2 C4 1_555 1_555
C5 N3 1_555 1_555
C6 C2 1_555 1_555
C7 N2 1_555 1_555
H3 C7 1_555 1_555
C8 C3 1_555 1_555
C10 O2 1_555 1_555
C11 N4 1_555 1_555
H5 C11 1_555 1_555
C12 N1 1_555 1_555
H6 C12 1_555 1_555
Cu3 N1 1_555 1_555
Cu7 N4 1_555 1_555
N14 Cu1 1_555 1_555
N15 Cu1 1_555 1_555
C1 C5 1_555 1_555
C8 C10 1_555 1_555
O5 C17 1_555 1_555
O6 C17 1_555 1_555
N7 N9 1_555 1_555
N8 C15 1_555 1_555
N9 C18 1_555 1_555
C13 H7 1_555 1_555
C15 N7 1_555 1_555
H8 C15 1_555 1_555
C17 C14 1_555 1_555
C18 N8 1_555 1_555
H9 C18 1_555 1_555
Cu3 N8 1_555 1_555
Cu5 O5 1_555 1_555
O9 Cu3 1_555 1_555
O10 Cu3 1_555 1_555
N7 C16 1_555 1_555
C13 C14 1_555 1_555
C13 C16 1_555 1_555
O5_2 C17_2 1_555 1_555
O6_2 C17_2 1_555 1_555
C13_2 H7_2 1_555 1_555
C17_2 C14_2 1_555 1_555
Cu7 O5_2 1_555 1_555
C13_2 C14_2 1_555 1_555
N15 C15_2 1_555 1_555
C15_2 N7_2 1_555 1_555
H8_2 C15_2 1_555 1_555
C18_2 N15 1_555 1_555
H9_2 C18_2 1_555 1_555
N7_2 C16_2 1_555 1_555
O7_2 C23_2 1_555 1_555
O8_2 C23_2 1_555 1_555
N10_2 C20_2 1_555 1_555
N11_2 N12_2 1_555 1_555
N12_2 C24_2 1_555 1_555
C19_2 N11_2 1_555 1_555
C20_2 N11_2 1_555 1_555
H10_2 C20_2 1_555 1_555
H11 C22 1_555 1_555
C23_2 C21_2 1_555 1_555
C24_2 N10_2 1_555 1_555
H12_2 C24_2 1_555 1_555
Cu7 O7_2 1_555 1_555
Cu5 N10_2 1_555 1_555
C19_2 C21_2 1_555 1_555
C19_2 C22 1_555 1_555
N4_2 C4_2 1_555 1_555
C4_2 N3_2 1_555 1_555
H2_2 C4_2 1_555 1_555
C5_2 N3_2 1_555 1_555
C11_2 N4_2 1_555 1_555
H5_2 C11_2 1_555 1_555
Cu5 N4_2 1_555 1_555
O9 C6_2 1_555 1_555
O3_2 C6_2 1_555 1_555
O4_2 C10_2 1_555 1_555
N14 C7_2 1_555 1_555
N2_2 N6_2 1_555 1_555
N6_2 C12_2 1_555 1_555
C1_2 H1_2 1_555 1_555
C2_2 C1_2 1_555 1_555
C3_2 N2_2 1_555 1_555
C6_2 C2_2 1_555 1_555
C7_2 N2_2 1_555 1_555
H3_2 C7_2 1_555 1_555
C8_2 C3_2 1_555 1_555
C9 C3_2 1_555 1_555
H4 C9 1_555 1_555
C10_2 O10 1_555 1_555
C12_2 N14 1_555 1_555
H6_2 C12_2 1_555 1_555
C8_2 C10_2 1_555 1_555
H11_2 C22_2 1_555 1_555
H4_2 C9_2 1_555 1_555

#END
