
###############################################################################
#
# This file contains modified crystal structure data generated from the
# MOF subset of the Cambridge Structural Database (CSD) v543 
# hosted by the Cambridge Crystallographic Data Centre (CCDC).
#
# This work is licensed under the Creative Commons
# Attribution-NonCommercial-ShareAlike 4.0 International License.
# To view a copy of this license, visit
# http://creativecommons.org/licenses/by-nc-sa/4.0/
# or send a letter to
# Creative Commons, PO Box 1866, Mountain View, CA 94042, USA.
#
# CIF created using the CSD Python API on 29 September 2022
# The structure has been converted into the P1 space group
# The structure has a 3D framework
# The original CSD entry UYITEE is in the orthorhombic crystal system
# The framework has been calculated to contain at least 10.0% void space
# The void calculation uses a probe of radius 1.32A, grid spacing 0.4
#
###############################################################################

data_UYITEE
_chemical_formula_moiety         '(C44 H56 Cu2 N20)n'
_symmetry_cell_setting           triclinic
_symmetry_space_group_name_H-M   'P 1'
_symmetry_Int_Tables_number      1
_space_group_name_Hall           'P 1'
loop_
_symmetry_equiv_pos_site_id
_symmetry_equiv_pos_as_xyz
1 x,y,z
_cell_length_a                   17.1172(4)
_cell_length_b                   12.5116(5)
_cell_length_c                   7.4440(2)
_cell_angle_alpha                90
_cell_angle_beta                 90
_cell_angle_gamma                90
_cell_volume                     1594.23
loop_
_atom_site_label
_atom_site_type_symbol
_atom_site_fract_x
_atom_site_fract_y
_atom_site_fract_z
Cu1 Cu 0.750000 0.35895(7) 0.55433(11)
N1 N 0.6532(3) 0.4043(4) 0.4146(7)
N2 N 0.750000 0.3404(5) 0.8105(12)
C1 C 0.750000 0.1881(5) 0.4514(10)
N3 N 0.6292(3) 0.3560(3) 0.2624(8)
C2 C 0.5972(3) 0.4747(4) 0.4557(8)
H1 H 0.655568 0.307421 0.207643
C3 C 0.5593(3) 0.3922(5) 0.2055(8)
C4 C 0.5365(3) 0.4695(4) 0.3280(8)
C5 C 0.6040(5) 0.5451(7) 0.6137(11)
C6 C 0.5199(5) 0.3463(5) 0.0460(18)
H2 H 0.587367 0.507170 0.719079
H3 H 0.571563 0.606954 0.597005
H4 H 0.657343 0.567078 0.627862
H6 H 0.465355 0.363986 0.049140
H7 H 0.525883 0.269966 0.046583
N4 N 0.8468(3) 0.4043(4) 0.4146(7)
N5 N 0.750000 0.1596(5) 0.3105(12)
Cu2 Cu 0.750000 0.14105(7) 0.05433(11)
C7 C 0.4635(3) 0.5305(4) 0.3280(8)
C8 C 0.4407(3) 0.6078(5) 0.2055(8)
C9 C 0.4028(3) 0.5253(4) 0.4557(8)
N6 N 0.3708(3) 0.6440(3) 0.2624(8)
C10 C 0.4801(5) 0.6537(5) 0.0460(18)
N7 N 0.3468(3) 0.5957(4) 0.4146(7)
C11 C 0.3960(5) 0.4549(7) 0.6137(11)
H8 H 0.344432 0.692579 0.207643
H10 H 0.534645 0.636014 0.049140
H11 H 0.474117 0.730034 0.046583
Cu3 Cu 0.250000 0.64105(7) 0.55433(11)
H12 H 0.412633 0.492830 0.719079
H13 H 0.428437 0.393046 0.597005
H14 H 0.342657 0.432922 0.627862
N2_2 N 0.250000 0.6596(5) 0.8105(12)
C1_2 C 0.250000 0.8119(5) 0.4514(10)
N4_2 N 0.1532(3) 0.5957(4) 0.4146(7)
N5_2 N 0.250000 0.8404(5) 0.3105(12)
Cu2_2 Cu 0.250000 0.85895(7) 0.05433(11)
N3_2 N 0.1292(3) 0.6440(3) 0.2624(8)
C2_2 C 0.0972(3) 0.5253(4) 0.4557(8)
H1_2 H 0.155568 0.692579 0.207643
C3_2 C 0.0593(3) 0.6078(5) 0.2055(8)
C4_2 C 0.0365(3) 0.5305(4) 0.3280(8)
C5_2 C 0.1040(5) 0.4549(7) 0.6137(11)
C6_2 C 0.0199(5) 0.6537(5) 0.0460(18)
H2_2 H 0.087367 0.492830 0.719079
H3_2 H 0.071563 0.393046 0.597005
H4_2 H 0.157343 0.432922 0.627862
H7_2 H 0.025883 0.730034 0.046583
H10_2 H 0.034645 0.363986 0.049140
H6_2 H 0.965355 0.636014 0.049140
C7_2 C 0.9635(3) 0.4695(4) 0.3280(8)
C8_2 C 0.9407(3) 0.3922(5) 0.2055(8)
C9_2 C 0.9028(3) 0.4747(4) 0.4557(8)
N6_2 N 0.8708(3) 0.3560(3) 0.2624(8)
C10_2 C 0.9801(5) 0.3463(5) 0.0460(18)
C11_2 C 0.8960(5) 0.5451(7) 0.6137(11)
H8_2 H 0.844432 0.307421 0.207643
H11_2 H 0.974117 0.269966 0.046583
H12_2 H 0.912633 0.507170 0.719079
H13_2 H 0.928437 0.606954 0.597005
H14_2 H 0.842657 0.567078 0.627862
N1_2 N 0.1532(3) 0.9043(4) 0.9146(7)
C1_3 C 0.250000 0.6881(5) 0.9514(10)
N3_3 N 0.1292(3) 0.8560(3) 0.7624(8)
C2_3 C 0.0972(3) 0.9747(4) 0.9557(8)
H1_3 H 0.155568 0.807421 0.707643
C3_3 C 0.0593(3) 0.8922(5) 0.7055(8)
C4_3 C 0.0365(3) 0.9695(4) 0.8280(8)
C6_3 C 0.0199(5) 0.8463(5) 0.5460(18)
H5 H 0.042954 0.875063 0.438847
H7_3 H 0.025883 0.769966 0.546583
N4_3 N 0.3468(3) 0.9043(4) 0.9146(7)
C7_3 C 0.9635(3) 0.0305(4) 0.8280(8)
C8_3 C 0.9407(3) 0.1078(5) 0.7055(8)
C9_3 C 0.9028(3) 0.0253(4) 0.9557(8)
N6_3 N 0.8708(3) 0.1440(3) 0.7624(8)
C10_3 C 0.9801(5) 0.1537(5) 0.5460(18)
N7_2 N 0.8468(3) 0.0957(4) 0.9146(7)
H8_3 H 0.844432 0.192579 0.707643
H9 H 0.957046 0.124937 0.438847
H11_3 H 0.974117 0.230034 0.546583
C1_4 C 0.750000 0.3119(5) 0.9514(10)
N4_4 N 0.6532(3) 0.0957(4) 0.9146(7)
C11_3 C 0.3960(5) 0.0451(7) 0.1137(11)
H12_3 H 0.412633 0.007170 0.219079
H13_3 H 0.428437 0.106954 0.097005
H14_3 H 0.342657 0.067078 0.127862
N3_4 N 0.6292(3) 0.1440(3) 0.7624(8)
C2_4 C 0.5972(3) 0.0253(4) 0.9557(8)
H1_4 H 0.655568 0.192579 0.707643
C3_4 C 0.5593(3) 0.1078(5) 0.7055(8)
C4_4 C 0.5365(3) 0.0305(4) 0.8280(8)
C6_4 C 0.5199(5) 0.1537(5) 0.5460(18)
H5_2 H 0.542954 0.124937 0.438847
H6_3 H 0.465355 0.136014 0.549140
H7_4 H 0.525883 0.230034 0.546583
C5_3 C 0.6040(5) 0.9549(7) 0.1137(11)
H2_3 H 0.587367 0.992830 0.219079
H3_3 H 0.571563 0.893046 0.097005
H4_3 H 0.657343 0.932922 0.127862
C7_4 C 0.4635(3) 0.9695(4) 0.8280(8)
C8_4 C 0.4407(3) 0.8922(5) 0.7055(8)
C9_4 C 0.4028(3) 0.9747(4) 0.9557(8)
N6_4 N 0.3708(3) 0.8560(3) 0.7624(8)
C10_4 C 0.4801(5) 0.8463(5) 0.5460(18)
H8_4 H 0.344432 0.807421 0.707643
H9_2 H 0.457046 0.875063 0.438847
H10_3 H 0.534645 0.863986 0.549140
H11_4 H 0.474117 0.769966 0.546583
H5_3 H 0.542954 0.375063 0.938847
H9_3 H 0.457046 0.624937 0.938847
H5_4 H 0.042954 0.624937 0.938847
H9_4 H 0.957046 0.375063 0.938847
C5_4 C 0.1040(5) 0.0451(7) 0.1137(11)
H2_4 H 0.087367 0.007170 0.219079
H3_4 H 0.071563 0.106954 0.097005
H4_4 H 0.157343 0.067078 0.127862
H10_4 H 0.034645 0.136014 0.549140
C11_4 C 0.8960(5) 0.9549(7) 0.1137(11)
H12_4 H 0.912633 0.992830 0.219079
H13_4 H 0.928437 0.893046 0.097005
H14_4 H 0.842657 0.932922 0.127862
H6_4 H 0.965355 0.863986 0.549140
loop_
_geom_bond_atom_site_label_1
_geom_bond_atom_site_label_2
_geom_bond_site_symmetry_1
_geom_bond_site_symmetry_2
Cu1 N1 1_555 1_555
N1 N3 1_555 1_555
N2 Cu1 1_555 1_555
C1 Cu1 1_555 1_555
N3 H1 1_555 1_555
C2 N1 1_555 1_555
C3 N3 1_555 1_555
C4 C2 1_555 1_555
C5 C2 1_555 1_555
C6 C3 1_555 1_555
H2 C5 1_555 1_555
H3 C5 1_555 1_555
H4 C5 1_555 1_555
H6 C6 1_555 1_555
H7 C6 1_555 1_555
N4 Cu1 1_555 1_555
N5 C1 1_555 1_555
Cu2 N5 1_555 1_555
C7 C4 1_555 1_555
C8 C7 1_555 1_555
C9 C7 1_555 1_555
N6 C8 1_555 1_555
C10 C8 1_555 1_555
N7 C9 1_555 1_555
C11 C9 1_555 1_555
H8 N6 1_555 1_555
H10 C10 1_555 1_555
H11 C10 1_555 1_555
Cu3 N7 1_555 1_555
H12 C11 1_555 1_555
H13 C11 1_555 1_555
H14 C11 1_555 1_555
C3 C4 1_555 1_555
N6 N7 1_555 1_555
N2_2 Cu3 1_555 1_555
C1_2 Cu3 1_555 1_555
N4_2 Cu3 1_555 1_555
N5_2 C1_2 1_555 1_555
Cu2_2 N5_2 1_555 1_555
N4_2 N3_2 1_555 1_555
N3_2 H1_2 1_555 1_555
C2_2 N4_2 1_555 1_555
C3_2 N3_2 1_555 1_555
C4_2 C2_2 1_555 1_555
C5_2 C2_2 1_555 1_555
C6_2 C3_2 1_555 1_555
H2_2 C5_2 1_555 1_555
H3_2 C5_2 1_555 1_555
H4_2 C5_2 1_555 1_555
H7_2 C6_2 1_555 1_555
C3_2 C4_2 1_555 1_555
C8_2 C7_2 1_555 1_555
C9_2 C7_2 1_555 1_555
N6_2 C8_2 1_555 1_555
C10_2 C8_2 1_555 1_555
N4 C9_2 1_555 1_555
C11_2 C9_2 1_555 1_555
H8_2 N6_2 1_555 1_555
H11_2 C10_2 1_555 1_555
H12_2 C11_2 1_555 1_555
H13_2 C11_2 1_555 1_555
H14_2 C11_2 1_555 1_555
N6_2 N4 1_555 1_555
N1_2 N3_3 1_555 1_555
N3_3 H1_3 1_555 1_555
C2_3 N1_2 1_555 1_555
C3_3 N3_3 1_555 1_555
C4_3 C2_3 1_555 1_555
C6_3 C3_3 1_555 1_555
H5 C6_3 1_555 1_555
H7_3 C6_3 1_555 1_555
N2_2 C1_3 1_555 1_555
C3_3 C4_3 1_555 1_555
C8_3 C7_3 1_555 1_555
C9_3 C7_3 1_555 1_555
N6_3 C8_3 1_555 1_555
C10_3 C8_3 1_555 1_555
N7_2 C9_3 1_555 1_555
H8_3 N6_3 1_555 1_555
H9 C10_3 1_555 1_555
H11_3 C10_3 1_555 1_555
N6_3 N7_2 1_555 1_555
N2 C1_4 1_555 1_555
H12_3 C11_3 1_555 1_555
H13_3 C11_3 1_555 1_555
H14_3 C11_3 1_555 1_555
N4_4 N3_4 1_555 1_555
N3_4 H1_4 1_555 1_555
C2_4 N4_4 1_555 1_555
C3_4 N3_4 1_555 1_555
C4_4 C2_4 1_555 1_555
C6_4 C3_4 1_555 1_555
H5_2 C6_4 1_555 1_555
H6_3 C6_4 1_555 1_555
H7_4 C6_4 1_555 1_555
C3_4 C4_4 1_555 1_555
H2_3 C5_3 1_555 1_555
H3_3 C5_3 1_555 1_555
H4_3 C5_3 1_555 1_555
C8_4 C7_4 1_555 1_555
C9_4 C7_4 1_555 1_555
N6_4 C8_4 1_555 1_555
C10_4 C8_4 1_555 1_555
N4_3 C9_4 1_555 1_555
H8_4 N6_4 1_555 1_555
H9_2 C10_4 1_555 1_555
H10_3 C10_4 1_555 1_555
H11_4 C10_4 1_555 1_555
N6_4 N4_3 1_555 1_555
H2_4 C5_4 1_555 1_555
H3_4 C5_4 1_555 1_555
H4_4 C5_4 1_555 1_555
H12_4 C11_4 1_555 1_555
H13_4 C11_4 1_555 1_555
H14_4 C11_4 1_555 1_555

#END
