
###############################################################################
#
# This file contains modified crystal structure data generated from the
# MOF subset of the Cambridge Structural Database (CSD) v543 
# hosted by the Cambridge Crystallographic Data Centre (CCDC).
#
# This work is licensed under the Creative Commons
# Attribution-NonCommercial-ShareAlike 4.0 International License.
# To view a copy of this license, visit
# http://creativecommons.org/licenses/by-nc-sa/4.0/
# or send a letter to
# Creative Commons, PO Box 1866, Mountain View, CA 94042, USA.
#
# CIF created using the CSD Python API on 29 September 2022
# The structure has been converted into the P1 space group
# The structure has a 3D framework
# The original CSD entry UYOMED is in the orthorhombic crystal system
# The framework has been calculated to contain at least 10.0% void space
# The void calculation uses a probe of radius 1.32A, grid spacing 0.4
#
###############################################################################

data_UYOMED
_chemical_formula_moiety         '(C80 H64 N8 O24 Zn6)n'
_symmetry_cell_setting           triclinic
_symmetry_space_group_name_H-M   'P 1'
_symmetry_Int_Tables_number      1
_space_group_name_Hall           'P 1'
loop_
_symmetry_equiv_pos_site_id
_symmetry_equiv_pos_as_xyz
1 x,y,z
_cell_length_a                   17.0340(5)
_cell_length_b                   11.4043(3)
_cell_length_c                   12.6992(3)
_cell_angle_alpha                90
_cell_angle_beta                 90
_cell_angle_gamma                90
_cell_volume                     2466.96
loop_
_atom_site_label
_atom_site_type_symbol
_atom_site_fract_x
_atom_site_fract_y
_atom_site_fract_z
Zn4 Zn 0.00170(4) 0.08664(3) 0.74890(7)
Zn1 Zn 0.50170(4) 0.41336(3) 0.74890(7)
Zn2 Zn 0.54171(2) 0.50007(6) 0.49808(8)
O1 O 0.4799(3) 0.5936(3) 0.4053(3)
O2 O 0.6137(3) 0.6049(4) 0.5732(4)
O3 O 0.5743(2) 0.5655(3) 0.7359(3)
O4 O 0.8981(2) 0.9809(3) 0.7663(3)
O5 O 0.8880(3) 0.8937(4) 0.9223(4)
O6 O 0.4859(2) 0.3992(3) 0.5926(4)
N1 N 0.3910(2) 0.6904(4) 0.2562(4)
N2 N 0.4293(2) 0.2583(3) 0.7390(4)
C1 C 0.3677(3) 0.7094(5) 0.3538(5)
C2 C 0.3058(4) 0.7849(6) 0.3763(7)
H1 H 0.290492 0.798759 0.445529
C3 C 0.2675(4) 0.8385(6) 0.2936(8)
H2 H 0.225514 0.888754 0.306121
C4 C 0.2919(4) 0.8171(6) 0.1941(7)
H3 H 0.266950 0.852872 0.137444
C5 C 0.3531(4) 0.7433(5) 0.1774(6)
H4 H 0.369116 0.728981 0.108615
C6 C 0.4093(5) 0.6410(8) 0.4387(6)
H5 H 0.419073 0.692404 0.498190
H6 H 0.375311 0.578190 0.462611
C7 C 0.6172(3) 0.6137(4) 0.6708(5)
C8 C 0.6815(3) 0.6928(4) 0.7118(4)
C9 C 0.7078(3) 0.6805(5) 0.8134(4)
H7 H 0.685477 0.623757 0.856656
C10 C 0.7669(4) 0.7510(5) 0.8521(5)
H8 H 0.783668 0.742581 0.921345
C11 C 0.8015(3) 0.8351(4) 0.7872(4)
C12 C 0.7748(3) 0.8481(5) 0.6858(4)
H9 H 0.797053 0.904573 0.642230
C13 C 0.7147(3) 0.7772(5) 0.6478(4)
H10 H 0.696745 0.786739 0.579159
C14 C 0.8681(3) 0.9099(4) 0.8270(5)
C15 C 0.4048(4) 0.1886(5) 0.8185(5)
H11 H 0.419477 0.206411 0.887205
C16 C 0.3588(5) 0.0922(6) 0.8000(8)
H12 H 0.342790 0.045005 0.855760
C17 C 0.3367(5) 0.0659(6) 0.7002(8)
H13 H 0.304978 0.001181 0.687180
C18 C 0.3617(4) 0.1356(5) 0.6184(6)
H14 H 0.347429 0.118299 0.549433
C19 C 0.4086(3) 0.2323(5) 0.6403(5)
C20 C 0.4388(5) 0.3108(7) 0.5570(5)
H15 H 0.468123 0.264148 0.506634
H16 H 0.394525 0.344988 0.520016
Zn3 Zn 0.49830(4) 0.58664(3) 0.24890(7)
Zn5 Zn 0.95829(2) 1.00007(6) 0.99808(8)
O7 O 0.5201(3) 0.4064(3) 0.9053(3)
O8 O 0.3981(2) 0.5191(3) 0.7663(3)
O9 O 0.6120(3) 0.3937(4) 0.4223(4)
N3 N 0.6090(2) 0.3096(4) 0.7562(4)
O2_2 O 0.3863(3) 0.3951(4) 0.0732(4)
O3_2 O 0.4257(2) 0.4345(3) 0.2359(3)
O4_2 O 0.1019(2) 0.0191(3) 0.2663(3)
O5_2 O 0.1120(3) 0.1063(4) 0.4223(4)
O6_2 O 0.5141(2) 0.6008(3) 0.0926(4)
N2_2 N 0.5707(2) 0.7417(3) 0.2390(4)
C7_2 C 0.3828(3) 0.3863(4) 0.1708(5)
C8_2 C 0.3185(3) 0.3072(4) 0.2118(4)
C9_2 C 0.2922(3) 0.3195(5) 0.3134(4)
H7_2 H 0.314523 0.376243 0.356656
C10_2 C 0.2331(4) 0.2490(5) 0.3521(5)
H8_2 H 0.216332 0.257419 0.421345
C11_2 C 0.1985(3) 0.1649(4) 0.2872(4)
C12_2 C 0.2252(3) 0.1519(5) 0.1858(4)
H9_2 H 0.202947 0.095427 0.142230
C13_2 C 0.2853(3) 0.2228(5) 0.1478(4)
H10_2 H 0.303255 0.213261 0.079159
C14_2 C 0.1319(3) 0.0901(4) 0.3270(5)
C15_2 C 0.5952(4) 0.8114(5) 0.3185(5)
H11_2 H 0.580523 0.793589 0.387205
C16_2 C 0.6412(5) 0.9078(6) 0.3000(8)
H12_2 H 0.657210 0.954995 0.355760
C17_2 C 0.6633(5) 0.9341(6) 0.2002(8)
H13_2 H 0.695022 0.998819 0.187180
C18_2 C 0.6383(4) 0.8644(5) 0.1184(6)
H14_2 H 0.652571 0.881701 0.049433
C19_2 C 0.5914(3) 0.7677(5) 0.1403(5)
C20_2 C 0.5612(5) 0.6892(7) 0.0570(5)
H15_2 H 0.531877 0.735852 0.006634
H16_2 H 0.605475 0.655012 0.020016
Zn5_2 Zn 0.04171(2) -0.00007(6) 0.49808(8)
O8_2 O 0.6019(2) 0.4809(3) 0.2663(3)
Zn2_2 Zn 0.45829(2) 0.49993(6) 0.99808(8)
C1_2 C 0.6323(3) 0.2906(5) 0.8538(5)
C2_2 C 0.6942(4) 0.2151(6) 0.8763(7)
H1_2 H 0.709508 0.201241 0.945529
C3_2 C 0.7325(4) 0.1615(6) 0.7936(8)
H2_2 H 0.774486 0.111246 0.806121
C4_2 C 0.7081(4) 0.1829(6) 0.6941(7)
H3_2 H 0.733050 0.147128 0.637444
C5_2 C 0.6469(4) 0.2567(5) 0.6774(6)
H4_2 H 0.630884 0.271019 0.608615
C6_2 C 0.5907(5) 0.3590(8) 0.9387(6)
H5_2 H 0.580927 0.307596 0.998190
H6_2 H 0.624689 0.421810 0.962611
O9_2 O 0.3880(3) 0.6063(4) 0.9223(4)
Zn5_3 Zn 0.04171(2) 0.99993(6) 0.49808(8)
Zn4_2 Zn 0.99830(4) 0.91336(3) 0.24890(7)
O7_2 O 0.0201(3) 0.0936(3) 0.9053(3)
N3_2 N 0.1090(2) 0.1904(4) 0.7562(4)
O2_3 O 0.1137(3) 0.8951(4) 0.5732(4)
O3_3 O 0.0743(2) 0.9345(3) 0.7359(3)
C7_3 C 0.1172(3) 0.8863(4) 0.6708(5)
C8_3 C 0.1815(3) 0.8072(4) 0.7118(4)
C9_3 C 0.2078(3) 0.8195(5) 0.8134(4)
H7_3 H 0.185477 0.876243 0.856656
C10_3 C 0.2669(4) 0.7490(5) 0.8521(5)
H8_3 H 0.283668 0.757419 0.921345
C11_3 C 0.3015(3) 0.6649(4) 0.7872(4)
C12_3 C 0.2748(3) 0.6519(5) 0.6858(4)
H9_3 H 0.297053 0.595427 0.642230
C13_3 C 0.2147(3) 0.7228(5) 0.6478(4)
H10_3 H 0.196745 0.713261 0.579159
C14_3 C 0.3681(3) 0.5901(4) 0.8270(5)
O1_2 O 0.9799(3) 0.9064(3) 0.4053(3)
N1_2 N 0.8910(2) 0.8096(4) 0.2562(4)
C1_3 C 0.8677(3) 0.7906(5) 0.3538(5)
C2_3 C 0.8058(4) 0.7151(6) 0.3763(7)
H1_3 H 0.790492 0.701241 0.445529
C3_3 C 0.7675(4) 0.6615(6) 0.2936(8)
H2_3 H 0.725514 0.611246 0.306121
C4_3 C 0.7919(4) 0.6829(6) 0.1941(7)
H3_3 H 0.766950 0.647128 0.137444
C5_3 C 0.8531(4) 0.7567(5) 0.1774(6)
H4_3 H 0.869116 0.771019 0.108615
C6_3 C 0.9093(5) 0.8590(8) 0.4387(6)
H5_3 H 0.919073 0.807596 0.498190
H6_3 H 0.875311 0.921810 0.462611
C1_4 C 0.1323(3) 0.2094(5) 0.8538(5)
C2_4 C 0.1942(4) 0.2849(6) 0.8763(7)
H1_4 H 0.209508 0.298759 0.945529
C3_4 C 0.2325(4) 0.3385(6) 0.7936(8)
H2_4 H 0.274486 0.388754 0.806121
C4_4 C 0.2081(4) 0.3171(6) 0.6941(7)
H3_4 H 0.233050 0.352872 0.637444
C5_4 C 0.1469(4) 0.2433(5) 0.6774(6)
H4_4 H 0.130884 0.228981 0.608615
C6_4 C 0.0907(5) 0.1410(8) 0.9387(6)
H5_4 H 0.080927 0.192404 0.998190
H6_4 H 0.124689 0.078190 0.962611
O2_4 O 0.8863(3) 0.1049(4) 0.0732(4)
O3_4 O 0.9257(2) 0.0655(3) 0.2359(3)
C7_4 C 0.8828(3) 0.1137(4) 0.1708(5)
C8_4 C 0.8185(3) 0.1928(4) 0.2118(4)
C9_4 C 0.7922(3) 0.1805(5) 0.3134(4)
H7_4 H 0.814523 0.123757 0.356656
C10_4 C 0.7331(4) 0.2510(5) 0.3521(5)
H8_4 H 0.716332 0.242581 0.421345
C11_4 C 0.6985(3) 0.3351(4) 0.2872(4)
C12_4 C 0.7252(3) 0.3481(5) 0.1858(4)
H9_4 H 0.702947 0.404573 0.142230
C13_4 C 0.7853(3) 0.2772(5) 0.1478(4)
H10_4 H 0.803255 0.286739 0.079159
C14_4 C 0.6319(3) 0.4099(4) 0.3270(5)
Zn5_4 Zn 0.95829(2) 0.00007(6) 0.99808(8)
O6_3 O 0.9859(2) 0.1008(3) 0.5926(4)
N2_3 N 0.9293(2) 0.2417(3) 0.7390(4)
C15_3 C 0.9048(4) 0.3114(5) 0.8185(5)
H11_3 H 0.919477 0.293589 0.887205
C16_3 C 0.8588(5) 0.4078(6) 0.8000(8)
H12_3 H 0.842790 0.454995 0.855760
C17_3 C 0.8367(5) 0.4341(6) 0.7002(8)
H13_3 H 0.804978 0.498819 0.687180
C18_3 C 0.8617(4) 0.3644(5) 0.6184(6)
H14_3 H 0.847429 0.381701 0.549433
C19_3 C 0.9086(3) 0.2677(5) 0.6403(5)
C20_3 C 0.9388(5) 0.1892(7) 0.5570(5)
H15_3 H 0.968123 0.235852 0.506634
H16_3 H 0.894525 0.155012 0.520016
O6_4 O 0.0141(2) 0.8992(3) 0.0926(4)
N2_4 N 0.0707(2) 0.7583(3) 0.2390(4)
C15_4 C 0.0952(4) 0.6886(5) 0.3185(5)
H11_4 H 0.080523 0.706411 0.387205
C16_4 C 0.1412(5) 0.5922(6) 0.3000(8)
H12_4 H 0.157210 0.545005 0.355760
C17_4 C 0.1633(5) 0.5659(6) 0.2002(8)
H13_4 H 0.195022 0.501181 0.187180
C18_4 C 0.1383(4) 0.6356(5) 0.1184(6)
H14_4 H 0.152571 0.618299 0.049433
C19_4 C 0.0914(3) 0.7323(5) 0.1403(5)
C20_4 C 0.0612(5) 0.8108(7) 0.0570(5)
H15_4 H 0.031877 0.764148 0.006634
H16_4 H 0.105475 0.844988 0.020016
loop_
_geom_bond_atom_site_label_1
_geom_bond_atom_site_label_2
_geom_bond_site_symmetry_1
_geom_bond_site_symmetry_2
Zn1 O3 1_555 1_555
Zn2 O1 1_555 1_555
O1 C6 1_555 1_555
O2 Zn2 1_555 1_555
O3 C7 1_555 1_555
O4 C14 1_555 1_555
O5 C14 1_555 1_555
O6 Zn1 1_555 1_555
N1 C1 1_555 1_555
N2 Zn1 1_555 1_555
C1 C2 1_555 1_555
C2 H1 1_555 1_555
C3 C2 1_555 1_555
H2 C3 1_555 1_555
C4 C3 1_555 1_555
H3 C4 1_555 1_555
C5 N1 1_555 1_555
H4 C5 1_555 1_555
C6 C1 1_555 1_555
H5 C6 1_555 1_555
H6 C6 1_555 1_555
C7 O2 1_555 1_555
C8 C7 1_555 1_555
C9 C8 1_555 1_555
H7 C9 1_555 1_555
C10 C9 1_555 1_555
H8 C10 1_555 1_555
C11 C10 1_555 1_555
C12 C11 1_555 1_555
H9 C12 1_555 1_555
C13 C8 1_555 1_555
H10 C13 1_555 1_555
C14 C11 1_555 1_555
C15 N2 1_555 1_555
H11 C15 1_555 1_555
C16 C15 1_555 1_555
H12 C16 1_555 1_555
C17 C16 1_555 1_555
H13 C17 1_555 1_555
C18 C17 1_555 1_555
H14 C18 1_555 1_555
C19 N2 1_555 1_555
C20 O6 1_555 1_555
H15 C20 1_555 1_555
H16 C20 1_555 1_555
Zn3 O1 1_555 1_555
Zn5 O5 1_555 1_555
O7 Zn1 1_555 1_555
O8 Zn1 1_555 1_555
O9 Zn2 1_555 1_555
N3 Zn1 1_555 1_555
Zn2 O6 1_555 1_555
N1 Zn3 1_555 1_555
C4 C5 1_555 1_555
C12 C13 1_555 1_555
C18 C19 1_555 1_555
C19 C20 1_555 1_555
Zn3 O3_2 1_555 1_555
O3_2 C7_2 1_555 1_555
O4_2 C14_2 1_555 1_555
O5_2 C14_2 1_555 1_555
O6_2 Zn3 1_555 1_555
N2_2 Zn3 1_555 1_555
C7_2 O2_2 1_555 1_555
C8_2 C7_2 1_555 1_555
C9_2 C8_2 1_555 1_555
H7_2 C9_2 1_555 1_555
C10_2 C9_2 1_555 1_555
H8_2 C10_2 1_555 1_555
C11_2 C10_2 1_555 1_555
C12_2 C11_2 1_555 1_555
H9_2 C12_2 1_555 1_555
C13_2 C8_2 1_555 1_555
H10_2 C13_2 1_555 1_555
C14_2 C11_2 1_555 1_555
C15_2 N2_2 1_555 1_555
H11_2 C15_2 1_555 1_555
C16_2 C15_2 1_555 1_555
H12_2 C16_2 1_555 1_555
C17_2 C16_2 1_555 1_555
H13_2 C17_2 1_555 1_555
C18_2 C17_2 1_555 1_555
H14_2 C18_2 1_555 1_555
C19_2 N2_2 1_555 1_555
C20_2 O6_2 1_555 1_555
H15_2 C20_2 1_555 1_555
H16_2 C20_2 1_555 1_555
Zn5_2 O5_2 1_555 1_555
O8_2 Zn3 1_555 1_555
C12_2 C13_2 1_555 1_555
C18_2 C19_2 1_555 1_555
C19_2 C20_2 1_555 1_555
Zn2_2 O7 1_555 1_555
O7 C6_2 1_555 1_555
N3 C1_2 1_555 1_555
C1_2 C2_2 1_555 1_555
C2_2 H1_2 1_555 1_555
C3_2 C2_2 1_555 1_555
H2_2 C3_2 1_555 1_555
C4_2 C3_2 1_555 1_555
H3_2 C4_2 1_555 1_555
C5_2 N3 1_555 1_555
H4_2 C5_2 1_555 1_555
C6_2 C1_2 1_555 1_555
H5_2 C6_2 1_555 1_555
H6_2 C6_2 1_555 1_555
O9_2 Zn2_2 1_555 1_555
C4_2 C5_2 1_555 1_555
O7_2 Zn4 1_555 1_555
N3_2 Zn4 1_555 1_555
O2_3 Zn5_3 1_555 1_555
O3_3 C7_3 1_555 1_555
O8 C14_3 1_555 1_555
O9_2 C14_3 1_555 1_555
C7_3 O2_3 1_555 1_555
C8_3 C7_3 1_555 1_555
C9_3 C8_3 1_555 1_555
H7_3 C9_3 1_555 1_555
C10_3 C9_3 1_555 1_555
H8_3 C10_3 1_555 1_555
C11_3 C10_3 1_555 1_555
C12_3 C11_3 1_555 1_555
H9_3 C12_3 1_555 1_555
C13_3 C8_3 1_555 1_555
H10_3 C13_3 1_555 1_555
C14_3 C11_3 1_555 1_555
C12_3 C13_3 1_555 1_555
O1_2 C6_3 1_555 1_555
N1_2 C1_3 1_555 1_555
C1_3 C2_3 1_555 1_555
C2_3 H1_3 1_555 1_555
C3_3 C2_3 1_555 1_555
H2_3 C3_3 1_555 1_555
C4_3 C3_3 1_555 1_555
H3_3 C4_3 1_555 1_555
C5_3 N1_2 1_555 1_555
H4_3 C5_3 1_555 1_555
C6_3 C1_3 1_555 1_555
H5_3 C6_3 1_555 1_555
H6_3 C6_3 1_555 1_555
Zn4_2 O1_2 1_555 1_555
N1_2 Zn4_2 1_555 1_555
C4_3 C5_3 1_555 1_555
O7_2 C6_4 1_555 1_555
N3_2 C1_4 1_555 1_555
C1_4 C2_4 1_555 1_555
C2_4 H1_4 1_555 1_555
C3_4 C2_4 1_555 1_555
H2_4 C3_4 1_555 1_555
C4_4 C3_4 1_555 1_555
H3_4 C4_4 1_555 1_555
C5_4 N3_2 1_555 1_555
H4_4 C5_4 1_555 1_555
C6_4 C1_4 1_555 1_555
H5_4 C6_4 1_555 1_555
H6_4 C6_4 1_555 1_555
C4_4 C5_4 1_555 1_555
O3_4 C7_4 1_555 1_555
O8_2 C14_4 1_555 1_555
O9 C14_4 1_555 1_555
C7_4 O2_4 1_555 1_555
C8_4 C7_4 1_555 1_555
C9_4 C8_4 1_555 1_555
H7_4 C9_4 1_555 1_555
C10_4 C9_4 1_555 1_555
H8_4 C10_4 1_555 1_555
C11_4 C10_4 1_555 1_555
C12_4 C11_4 1_555 1_555
H9_4 C12_4 1_555 1_555
C13_4 C8_4 1_555 1_555
H10_4 C13_4 1_555 1_555
C14_4 C11_4 1_555 1_555
C12_4 C13_4 1_555 1_555
C15_3 N2_3 1_555 1_555
H11_3 C15_3 1_555 1_555
C16_3 C15_3 1_555 1_555
H12_3 C16_3 1_555 1_555
C17_3 C16_3 1_555 1_555
H13_3 C17_3 1_555 1_555
C18_3 C17_3 1_555 1_555
H14_3 C18_3 1_555 1_555
C19_3 N2_3 1_555 1_555
C20_3 O6_3 1_555 1_555
H15_3 C20_3 1_555 1_555
H16_3 C20_3 1_555 1_555
C18_3 C19_3 1_555 1_555
C19_3 C20_3 1_555 1_555
C15_4 N2_4 1_555 1_555
H11_4 C15_4 1_555 1_555
C16_4 C15_4 1_555 1_555
H12_4 C16_4 1_555 1_555
C17_4 C16_4 1_555 1_555
H13_4 C17_4 1_555 1_555
C18_4 C17_4 1_555 1_555
H14_4 C18_4 1_555 1_555
C19_4 N2_4 1_555 1_555
C20_4 O6_4 1_555 1_555
H15_4 C20_4 1_555 1_555
H16_4 C20_4 1_555 1_555
C18_4 C19_4 1_555 1_555
C19_4 C20_4 1_555 1_555

#END
