
###############################################################################
#
# This file contains modified crystal structure data generated from the
# MOF subset of the Cambridge Structural Database (CSD) v543 
# hosted by the Cambridge Crystallographic Data Centre (CCDC).
#
# This work is licensed under the Creative Commons
# Attribution-NonCommercial-ShareAlike 4.0 International License.
# To view a copy of this license, visit
# http://creativecommons.org/licenses/by-nc-sa/4.0/
# or send a letter to
# Creative Commons, PO Box 1866, Mountain View, CA 94042, USA.
#
# CIF created using the CSD Python API on 29 September 2022
# The structure has been converted into the P1 space group
# The structure has a 3D framework
# The original CSD entry UYUGAY is in the orthorhombic crystal system
# The framework has been calculated to contain at least 10.0% void space
# The void calculation uses a probe of radius 1.32A, grid spacing 0.4
# H atom positions have been added when not included in the experimental data
#
###############################################################################

data_UYUGAY
_chemical_formula_moiety         '(C96 H64 N8 O32 Zn4)n'
_symmetry_cell_setting           triclinic
_symmetry_space_group_name_H-M   'P 1'
_symmetry_Int_Tables_number      1
_space_group_name_Hall           'P 1'
loop_
_symmetry_equiv_pos_site_id
_symmetry_equiv_pos_as_xyz
1 x,y,z
_cell_length_a                   7.1952(5)
_cell_length_b                   19.7441(16)
_cell_length_c                   20.4254(14)
_cell_angle_alpha                90
_cell_angle_beta                 90
_cell_angle_gamma                90
_cell_volume                     2901.69
loop_
_atom_site_label
_atom_site_type_symbol
_atom_site_fract_x
_atom_site_fract_y
_atom_site_fract_z
Zn1 Zn 0.09075(13) 0.18557(4) 0.55698(3)
O1 O 0.0376(7) 0.1785(3) 0.4616(2)
C1 C 0.1346(13) 0.0237(5) 0.1301(4)
H1 H 0.1232 0.0236 0.0841
C2 C 0.0060(9) 0.1664(4) 0.3249(3)
H2 H 0.0741 0.1347 0.3485
C5 C 0.0640(10) 0.0888(4) 0.1588(3)
C6 C 0.0039(11) 0.1404(4) 0.1182(3)
H3 H 0.0004 0.1340 0.0731
C8 C 0.0629(10) 0.0986(4) 0.2261(3)
H4 H 0.1017 0.0636 0.2533
C10 C 0.0056(9) 0.1590(4) 0.2536(3)
Zn4 Zn 0.09075(13) 0.31443(4) 0.05698(3)
O5 O 0.3098(7) 0.2458(3) 0.5382(2)
O6 O 0.1853(17) 0.1394(4) 0.6693(5)
O7 O 0.2009(14) 0.0956(4) 0.5737(4)
O3 O 0.3147(17) 0.8606(4) 0.1693(5)
O4 O 0.2991(14) 0.9044(4) 0.0737(4)
C7 C 0.2767(16) 0.9086(6) 0.1330(6)
C9 C 0.2014(16) 0.9730(5) 0.1622(5)
H5 H 0.2032 0.9766 0.2076
Zn2 Zn 0.40925(13) 0.81443(4) 0.05698(3)
O2 O 0.8098(7) 0.2542(3) 0.4618(2)
N1 N 0.8890(8) 0.2572(3) 0.1030(3)
C3 C 0.9481(8) 0.2026(4) 0.1454(3)
C4 C 0.9221(9) 0.2156(4) 0.4318(3)
C11 C 0.9188(9) 0.2138(4) 0.3592(3)
H6 H 0.8532 0.2471 0.3369
C12 C 0.9504(8) 0.2118(4) 0.2121(3)
H7 H 0.9151 0.2533 0.2298
Zn3 Zn 0.59075(13) 0.31443(4) 0.44302(3)
N2 N 0.8890(8) 0.2428(3) 0.6030(3)
H8 H 0.752004 0.267127 0.0960462
C7_2 C 0.2233(16) 0.0914(6) 0.6330(6)
C9_2 C 0.2986(16) 0.0270(5) 0.6622(5)
H5_2 H 0.2968 0.0234 0.7076
O5_2 O 0.1902(7) 0.7542(3) 0.0382(2)
N2_2 N 0.6110(8) 0.7572(3) 0.1030(3)
O1_2 O 0.4624(7) 0.8215(3) 0.9616(2)
O2_2 O 0.6902(7) 0.7458(3) 0.9618(2)
C1_2 C 0.3654(13) 0.9763(5) 0.6301(4)
H1_2 H 0.3768 0.9764 0.5841
N1_2 N 0.6110(8) 0.7428(3) 0.6030(3)
C2_2 C 0.4940(9) 0.8336(4) 0.8249(3)
H2_2 H 0.4259 0.8653 0.8485
C3_2 C 0.5519(8) 0.7974(4) 0.6454(3)
C4_2 C 0.5779(9) 0.7844(4) 0.9318(3)
C5_2 C 0.4360(10) 0.9112(4) 0.6588(3)
C6_2 C 0.4961(11) 0.8596(4) 0.6182(3)
H3_2 H 0.4996 0.8660 0.5731
C8_2 C 0.4371(10) 0.9014(4) 0.7261(3)
H4_2 H 0.3983 0.9364 0.7533
C10_2 C 0.4944(9) 0.8410(4) 0.7536(3)
C11_2 C 0.5812(9) 0.7862(4) 0.8592(3)
H6_2 H 0.6468 0.7529 0.8369
C12_2 C 0.5496(8) 0.7882(4) 0.7121(3)
H7_2 H 0.5849 0.7467 0.7298
Zn3_2 Zn 0.90925(13) 0.68557(4) 0.94302(3)
Zn4_2 Zn 0.40925(13) 0.68557(4) 0.55698(3)
H8_2 H 0.747996 0.732873 0.596046
O1_3 O 0.5376(7) 0.3215(3) 0.5384(2)
O3_2 O 0.8147(17) 0.6394(4) 0.8307(5)
O4_2 O 0.7991(14) 0.5956(4) 0.9263(4)
C1_3 C 0.6346(13) 0.4763(5) 0.8699(4)
H1_3 H 0.6232 0.4764 0.9159
N1_3 N 0.3890(8) 0.2428(3) 0.8970(3)
C2_3 C 0.5060(9) 0.3336(4) 0.6751(3)
H2_3 H 0.5741 0.3653 0.6515
C3_3 C 0.4481(8) 0.2974(4) 0.8546(3)
C4_3 C 0.4221(9) 0.2844(4) 0.5682(3)
C5_3 C 0.5640(10) 0.4112(4) 0.8412(3)
C6_3 C 0.5039(11) 0.3596(4) 0.8818(3)
H3_3 H 0.5004 0.3660 0.9269
C7_3 C 0.7767(16) 0.5914(6) 0.8670(6)
C8_3 C 0.5629(10) 0.4014(4) 0.7739(3)
H4_3 H 0.6017 0.4364 0.7467
C9_3 C 0.7014(16) 0.5270(5) 0.8378(5)
H5_3 H 0.7032 0.5234 0.7924
C10_3 C 0.5056(9) 0.3410(4) 0.7464(3)
C11_3 C 0.4188(9) 0.2862(4) 0.6408(3)
H6_3 H 0.3532 0.2529 0.6631
C12_3 C 0.4504(8) 0.2882(4) 0.7879(3)
H7_3 H 0.4151 0.2467 0.7702
Zn4_3 Zn 0.59075(13) 0.18557(4) 0.94302(3)
O6_2 O 0.6853(17) 0.3606(4) 0.3307(5)
O7_2 O 0.7009(14) 0.4044(4) 0.4263(4)
N2_3 N 0.3890(8) 0.2572(3) 0.3970(3)
H8_3 H 0.252004 0.232873 0.903954
N1_4 N 0.1110(8) 0.7572(3) 0.3970(3)
C3_4 C 0.0519(8) 0.7026(4) 0.3546(3)
C4_4 C 0.0779(9) 0.7156(4) 0.0682(3)
C11_4 C 0.0812(9) 0.7138(4) 0.1408(3)
H6_4 H 0.1468 0.7471 0.1631
C12_4 C 0.0496(8) 0.7118(4) 0.2879(3)
H7_4 H 0.0849 0.7533 0.2702
H8_4 H 0.247996 0.767127 0.403954
N2_4 N 0.1110(8) 0.7428(3) 0.8970(3)
O1_4 O 0.9624(7) 0.6785(3) 0.0384(2)
C1_4 C 0.8654(13) 0.5237(5) 0.3699(4)
H1_4 H 0.8768 0.5236 0.4159
C2_4 C 0.9940(9) 0.6664(4) 0.1751(3)
H2_4 H 0.9259 0.6347 0.1515
C5_4 C 0.9360(10) 0.5888(4) 0.3412(3)
C6_4 C 0.9961(11) 0.6404(4) 0.3818(3)
H3_4 H 0.9996 0.6340 0.4269
C7_4 C 0.7233(16) 0.4086(6) 0.3670(6)
C8_4 C 0.9371(10) 0.5986(4) 0.2739(3)
H4_4 H 0.8983 0.5636 0.2467
C9_4 C 0.7986(16) 0.4730(5) 0.3378(5)
H5_4 H 0.7968 0.4766 0.2924
C10_4 C 0.9944(9) 0.6590(4) 0.2464(3)
Zn4_4 Zn 0.90925(13) 0.81443(4) 0.44302(3)
O2_3 O 0.1902(7) 0.7458(3) 0.5382(2)
C3_5 C 0.0519(8) 0.7974(4) 0.8546(3)
C4_5 C 0.0779(9) 0.7844(4) 0.5682(3)
C11_5 C 0.0812(9) 0.7862(4) 0.6408(3)
H6_5 H 0.1468 0.7529 0.6631
C12_5 C 0.0496(8) 0.7882(4) 0.7879(3)
H7_5 H 0.0849 0.7467 0.7702
H8_5 H 0.247996 0.732873 0.903954
O3_3 O 0.6853(17) 0.1394(4) 0.8307(5)
O4_3 O 0.7009(14) 0.0956(4) 0.9263(4)
C7_5 C 0.7233(16) 0.0914(6) 0.8670(6)
C9_5 C 0.7986(16) 0.0270(5) 0.8378(5)
H5_5 H 0.7968 0.0234 0.7924
O1_5 O 0.9624(7) 0.8215(3) 0.5384(2)
C1_5 C 0.8654(13) 0.9763(5) 0.8699(4)
H1_5 H 0.8768 0.9764 0.9159
C2_5 C 0.9940(9) 0.8336(4) 0.6751(3)
H2_5 H 0.9259 0.8653 0.6515
C5_5 C 0.9360(10) 0.9112(4) 0.8412(3)
C6_5 C 0.9961(11) 0.8596(4) 0.8818(3)
H3_5 H 0.9996 0.8660 0.9269
C8_5 C 0.9371(10) 0.9014(4) 0.7739(3)
H4_5 H 0.8983 0.9364 0.7467
C10_5 C 0.9944(9) 0.8410(4) 0.7464(3)
O5_3 O 0.6902(7) 0.7542(3) 0.4618(2)
O6_3 O 0.8147(17) 0.8606(4) 0.3307(5)
O7_3 O 0.7991(14) 0.9044(4) 0.4263(4)
O1_6 O 0.5376(7) 0.1785(3) 0.0384(2)
O2_4 O 0.3098(7) 0.2542(3) 0.0382(2)
C1_6 C 0.6346(13) 0.0237(5) 0.3699(4)
H1_6 H 0.6232 0.0236 0.4159
C2_6 C 0.5060(9) 0.1664(4) 0.1751(3)
H2_6 H 0.5741 0.1347 0.1515
C3_6 C 0.4481(8) 0.2026(4) 0.3546(3)
C4_6 C 0.4221(9) 0.2156(4) 0.0682(3)
C5_6 C 0.5640(10) 0.0888(4) 0.3412(3)
C6_6 C 0.5039(11) 0.1404(4) 0.3818(3)
H3_6 H 0.5004 0.1340 0.4269
C8_6 C 0.5629(10) 0.0986(4) 0.2739(3)
H4_6 H 0.6017 0.0636 0.2467
C10_6 C 0.5056(9) 0.1590(4) 0.2464(3)
C11_6 C 0.4188(9) 0.2138(4) 0.1408(3)
H6_6 H 0.3532 0.2471 0.1631
C12_6 C 0.4504(8) 0.2118(4) 0.2879(3)
H7_6 H 0.4151 0.2533 0.2702
H8_6 H 0.252004 0.267127 0.403954
O5_4 O 0.8098(7) 0.2458(3) 0.9618(2)
C7_6 C 0.7767(16) 0.9086(6) 0.3670(6)
C9_6 C 0.7014(16) 0.9730(5) 0.3378(5)
H5_6 H 0.7032 0.9766 0.2924
O1_7 O 0.4624(7) 0.6785(3) 0.4616(2)
O3_4 O 0.1853(17) 0.3606(4) 0.1693(5)
O4_4 O 0.2009(14) 0.4044(4) 0.0737(4)
C1_7 C 0.3654(13) 0.5237(5) 0.1301(4)
H1_7 H 0.3768 0.5236 0.0841
C2_7 C 0.4940(9) 0.6664(4) 0.3249(3)
H2_7 H 0.4259 0.6347 0.3485
C3_7 C 0.5519(8) 0.7026(4) 0.1454(3)
C4_7 C 0.5779(9) 0.7156(4) 0.4318(3)
C5_7 C 0.4360(10) 0.5888(4) 0.1588(3)
C6_7 C 0.4961(11) 0.6404(4) 0.1182(3)
H3_7 H 0.4996 0.6340 0.0731
C7_7 C 0.2233(16) 0.4086(6) 0.1330(6)
C8_7 C 0.4371(10) 0.5986(4) 0.2261(3)
H4_7 H 0.3983 0.5636 0.2533
C9_7 C 0.2986(16) 0.4730(5) 0.1622(5)
H5_7 H 0.2968 0.4766 0.2076
C10_7 C 0.4944(9) 0.6590(4) 0.2536(3)
C11_7 C 0.5812(9) 0.7138(4) 0.3592(3)
H6_7 H 0.6468 0.7471 0.3369
C12_7 C 0.5496(8) 0.7118(4) 0.2121(3)
H7_7 H 0.5849 0.7533 0.2298
O6_4 O 0.3147(17) 0.6394(4) 0.6693(5)
O7_4 O 0.2991(14) 0.5956(4) 0.5737(4)
H8_7 H 0.747996 0.767127 0.0960462
O1_8 O 0.0376(7) 0.3215(3) 0.9616(2)
C1_8 C 0.1346(13) 0.4763(5) 0.6301(4)
H1_8 H 0.1232 0.4764 0.5841
C2_8 C 0.0060(9) 0.3336(4) 0.8249(3)
H2_8 H 0.0741 0.3653 0.8485
C5_8 C 0.0640(10) 0.4112(4) 0.6588(3)
C6_8 C 0.0039(11) 0.3596(4) 0.6182(3)
H3_8 H 0.0004 0.3660 0.5731
C7_8 C 0.2767(16) 0.5914(6) 0.6330(6)
C8_8 C 0.0629(10) 0.4014(4) 0.7261(3)
H4_8 H 0.1017 0.4364 0.7533
C9_8 C 0.2014(16) 0.5270(5) 0.6622(5)
H5_8 H 0.2032 0.5234 0.7076
C10_8 C 0.0056(9) 0.3410(4) 0.7536(3)
C3_8 C 0.9481(8) 0.2974(4) 0.6454(3)
C4_8 C 0.9221(9) 0.2844(4) 0.9318(3)
C11_8 C 0.9188(9) 0.2862(4) 0.8592(3)
H6_8 H 0.8532 0.2529 0.8369
C12_8 C 0.9504(8) 0.2882(4) 0.7121(3)
H7_8 H 0.9151 0.2467 0.7298
H8_8 H 0.752004 0.232873 0.596046
loop_
_geom_bond_atom_site_label_1
_geom_bond_atom_site_label_2
_geom_bond_site_symmetry_1
_geom_bond_site_symmetry_2
Zn1 O1 1_555 1_555
C1 H1 1_555 1_555
C2 H2 1_555 1_555
C5 C1 1_555 1_555
C6 C5 1_555 1_555
H3 C6 1_555 1_555
C8 C5 1_555 1_555
H4 C8 1_555 1_555
C10 C2 1_555 1_555
O5 Zn1 1_555 1_555
O6 Zn1 1_555 1_555
O7 Zn1 1_555 1_555
C8 C10 1_555 1_555
O3 C7 1_555 1_555
O4 C7 1_555 1_555
C7 C9 1_555 1_555
H5 C9 1_555 1_555
Zn2 O3 1_555 1_555
O4 Zn2 1_555 1_555
O2 C4 1_555 1_555
N1 C3 1_555 1_555
C4 C11 1_555 1_555
H6 C11 1_555 1_555
C12 C3 1_555 1_555
H7 C12 1_555 1_555
Zn3 O2 1_555 1_555
N1 H8 1_555 1_555
O6 C7_2 1_555 1_555
O7 C7_2 1_555 1_555
C7_2 C9_2 1_555 1_555
H5_2 C9_2 1_555 1_555
O5_2 Zn2 1_555 1_555
N2_2 Zn2 1_555 1_555
O1_2 C4_2 1_555 1_555
O2_2 C4_2 1_555 1_555
C1_2 H1_2 1_555 1_555
N1_2 C3_2 1_555 1_555
C2_2 H2_2 1_555 1_555
C3_2 C6_2 1_555 1_555
C4_2 C11_2 1_555 1_555
C5_2 C1_2 1_555 1_555
C6_2 C5_2 1_555 1_555
H3_2 C6_2 1_555 1_555
C8_2 C5_2 1_555 1_555
H4_2 C8_2 1_555 1_555
C10_2 C2_2 1_555 1_555
C11_2 C2_2 1_555 1_555
H6_2 C11_2 1_555 1_555
C12_2 C3_2 1_555 1_555
H7_2 C12_2 1_555 1_555
Zn3_2 O2_2 1_555 1_555
Zn4_2 N1_2 1_555 1_555
C8_2 C10_2 1_555 1_555
C10_2 C12_2 1_555 1_555
N1_2 H8_2 1_555 1_555
Zn3 O1_3 1_555 1_555
O1_3 C4_3 1_555 1_555
O5 C4_3 1_555 1_555
O3_2 C7_3 1_555 1_555
O4_2 C7_3 1_555 1_555
C1_3 H1_3 1_555 1_555
N1_3 C3_3 1_555 1_555
C2_3 H2_3 1_555 1_555
C3_3 C6_3 1_555 1_555
C4_3 C11_3 1_555 1_555
C5_3 C1_3 1_555 1_555
C6_3 C5_3 1_555 1_555
H3_3 C6_3 1_555 1_555
C7_3 C9_3 1_555 1_555
C8_3 C5_3 1_555 1_555
H4_3 C8_3 1_555 1_555
C9_3 C1_3 1_555 1_555
H5_3 C9_3 1_555 1_555
C10_3 C2_3 1_555 1_555
C11_3 C2_3 1_555 1_555
H6_3 C11_3 1_555 1_555
C12_3 C3_3 1_555 1_555
H7_3 C12_3 1_555 1_555
Zn3_2 O3_2 1_555 1_555
Zn4_3 N1_3 1_555 1_555
O6_2 Zn3 1_555 1_555
O7_2 Zn3 1_555 1_555
N2_3 Zn3 1_555 1_555
O4_2 Zn3_2 1_555 1_555
C8_3 C10_3 1_555 1_555
C10_3 C12_3 1_555 1_555
N1_3 H8_3 1_555 1_555
O5_2 C4_4 1_555 1_555
N1_4 C3_4 1_555 1_555
C4_4 C11_4 1_555 1_555
H6_4 C11_4 1_555 1_555
C12_4 C3_4 1_555 1_555
H7_4 C12_4 1_555 1_555
N1_4 H8_4 1_555 1_555
O6_2 C7_4 1_555 1_555
O7_2 C7_4 1_555 1_555
C1_4 H1_4 1_555 1_555
C2_4 H2_4 1_555 1_555
C5_4 C1_4 1_555 1_555
C6_4 C5_4 1_555 1_555
H3_4 C6_4 1_555 1_555
C7_4 C9_4 1_555 1_555
C8_4 C5_4 1_555 1_555
H4_4 C8_4 1_555 1_555
C9_4 C1_4 1_555 1_555
H5_4 C9_4 1_555 1_555
C10_4 C2_4 1_555 1_555
C8_4 C10_4 1_555 1_555
O2_3 C4_5 1_555 1_555
N2_4 C3_5 1_555 1_555
C4_5 C11_5 1_555 1_555
H6_5 C11_5 1_555 1_555
C12_5 C3_5 1_555 1_555
H7_5 C12_5 1_555 1_555
Zn4_2 O2_3 1_555 1_555
N2_4 H8_5 1_555 1_555
O3_3 C7_5 1_555 1_555
O4_3 C7_5 1_555 1_555
C7_5 C9_5 1_555 1_555
H5_5 C9_5 1_555 1_555
Zn4_3 O3_3 1_555 1_555
O4_3 Zn4_3 1_555 1_555
Zn4_4 O1_5 1_555 1_555
C1_5 H1_5 1_555 1_555
C2_5 H2_5 1_555 1_555
C5_5 C1_5 1_555 1_555
C6_5 C5_5 1_555 1_555
H3_5 C6_5 1_555 1_555
C8_5 C5_5 1_555 1_555
H4_5 C8_5 1_555 1_555
C10_5 C2_5 1_555 1_555
O5_3 Zn4_4 1_555 1_555
O6_3 Zn4_4 1_555 1_555
O7_3 Zn4_4 1_555 1_555
C8_5 C10_5 1_555 1_555
O1_6 C4_6 1_555 1_555
O2_4 C4_6 1_555 1_555
C1_6 H1_6 1_555 1_555
N2_3 C3_6 1_555 1_555
C2_6 H2_6 1_555 1_555
C3_6 C6_6 1_555 1_555
C4_6 C11_6 1_555 1_555
C5_6 C1_6 1_555 1_555
C6_6 C5_6 1_555 1_555
H3_6 C6_6 1_555 1_555
C8_6 C5_6 1_555 1_555
H4_6 C8_6 1_555 1_555
C10_6 C2_6 1_555 1_555
C11_6 C2_6 1_555 1_555
H6_6 C11_6 1_555 1_555
C12_6 C3_6 1_555 1_555
H7_6 C12_6 1_555 1_555
Zn4 O2_4 1_555 1_555
C8_6 C10_6 1_555 1_555
C10_6 C12_6 1_555 1_555
N2_3 H8_6 1_555 1_555
O5_4 Zn4_3 1_555 1_555
O6_3 C7_6 1_555 1_555
O7_3 C7_6 1_555 1_555
C7_6 C9_6 1_555 1_555
H5_6 C9_6 1_555 1_555
Zn4_2 O1_7 1_555 1_555
O1_7 C4_7 1_555 1_555
O5_3 C4_7 1_555 1_555
O3_4 C7_7 1_555 1_555
O4_4 C7_7 1_555 1_555
C1_7 H1_7 1_555 1_555
N2_2 C3_7 1_555 1_555
C2_7 H2_7 1_555 1_555
C3_7 C6_7 1_555 1_555
C4_7 C11_7 1_555 1_555
C5_7 C1_7 1_555 1_555
C6_7 C5_7 1_555 1_555
H3_7 C6_7 1_555 1_555
C7_7 C9_7 1_555 1_555
C8_7 C5_7 1_555 1_555
H4_7 C8_7 1_555 1_555
C9_7 C1_7 1_555 1_555
H5_7 C9_7 1_555 1_555
C10_7 C2_7 1_555 1_555
C11_7 C2_7 1_555 1_555
H6_7 C11_7 1_555 1_555
C12_7 C3_7 1_555 1_555
H7_7 C12_7 1_555 1_555
Zn4 O3_4 1_555 1_555
O6_4 Zn4_2 1_555 1_555
O7_4 Zn4_2 1_555 1_555
O4_4 Zn4 1_555 1_555
C8_7 C10_7 1_555 1_555
C10_7 C12_7 1_555 1_555
N2_2 H8_7 1_555 1_555
O6_4 C7_8 1_555 1_555
O7_4 C7_8 1_555 1_555
C1_8 H1_8 1_555 1_555
C2_8 H2_8 1_555 1_555
C5_8 C1_8 1_555 1_555
C6_8 C5_8 1_555 1_555
H3_8 C6_8 1_555 1_555
C7_8 C9_8 1_555 1_555
C8_8 C5_8 1_555 1_555
H4_8 C8_8 1_555 1_555
C9_8 C1_8 1_555 1_555
H5_8 C9_8 1_555 1_555
C10_8 C2_8 1_555 1_555
C8_8 C10_8 1_555 1_555
O5_4 C4_8 1_555 1_555
N2 C3_8 1_555 1_555
C4_8 C11_8 1_555 1_555
H6_8 C11_8 1_555 1_555
C12_8 C3_8 1_555 1_555
H7_8 C12_8 1_555 1_555
N2 H8_8 1_555 1_555

#END
