
###############################################################################
#
# This file contains modified crystal structure data generated from the
# MOF subset of the Cambridge Structural Database (CSD) v543 
# hosted by the Cambridge Crystallographic Data Centre (CCDC).
#
# This work is licensed under the Creative Commons
# Attribution-NonCommercial-ShareAlike 4.0 International License.
# To view a copy of this license, visit
# http://creativecommons.org/licenses/by-nc-sa/4.0/
# or send a letter to
# Creative Commons, PO Box 1866, Mountain View, CA 94042, USA.
#
# CIF created using the CSD Python API on 29 September 2022
# The structure has been converted into the P1 space group
# The structure has a 3D framework
# The original CSD entry UZAJIR is in the monoclinic crystal system
# The framework has been calculated to contain at least 10.0% void space
# The void calculation uses a probe of radius 1.32A, grid spacing 0.4
#
###############################################################################

data_UZAJIR
_chemical_formula_moiety         '(C112 H80 N32 O54 Zn8)n'
_symmetry_cell_setting           triclinic
_symmetry_space_group_name_H-M   'P 1'
_symmetry_Int_Tables_number      1
_space_group_name_Hall           'P 1'
loop_
_symmetry_equiv_pos_site_id
_symmetry_equiv_pos_as_xyz
1 x,y,z
_cell_length_a                   24.326(4)
_cell_length_b                   15.868(4)
_cell_length_c                   14.498(3)
_cell_angle_alpha                90
_cell_angle_beta                 123.380(10)
_cell_angle_gamma                90
_cell_volume                     4673.13
loop_
_atom_site_label
_atom_site_type_symbol
_atom_site_fract_x
_atom_site_fract_y
_atom_site_fract_z
H5 H 0.068907 0.471020 0.014339
Zn2 Zn 0.07721(3) 0.67217(4) 0.03793(5)
Zn3 Zn 0.57721(3) 0.17217(4) 0.03793(5)
Zn1 Zn 0.07721(3) 0.32783(4) 0.53793(5)
O1 O 0.0904(2) 0.4168(3) 0.6559(3)
O2 O 0.1654(2) 0.2904(3) 0.5733(3)
O3 O 0.5137(2) 0.2418(3) 0.9024(4)
N1 N 0.0798(2) 0.5697(3) 0.9442(4)
O4 O 0.4539(3) 0.1664(3) 0.9420(5)
O5 O 0.2121(2) 0.2327(4) 0.7402(4)
N2 N 0.0781(3) 0.3071(4) 0.7408(4)
H1 H 0.074343 0.288160 0.792690
C1 C 0.0868(3) 0.4489(4) 0.8117(4)
C2 C 0.3982(3) 0.2576(4) 0.7875(5)
N3 N 0.0761(3) 0.2524(3) 0.6618(4)
H2 H 0.039682 0.221173 0.630028
H3 H 0.110681 0.218045 0.694594
C3 C 0.3366(3) 0.2425(4) 0.7701(5)
H4 H 0.333413 0.209379 0.819908
C4 C 0.0749(3) 0.4872(4) 0.9588(5)
C5 C 0.4028(3) 0.3077(4) 0.7138(5)
H6 H 0.443516 0.320391 0.725440
C6 C 0.0859(3) 0.3884(4) 0.7315(5)
C7 C 0.2844(3) 0.3246(4) 0.6036(5)
H7 H 0.246862 0.347032 0.541615
C8 C 0.3456(3) 0.3382(4) 0.6228(5)
C9 C 0.0926(4) 0.5341(4) 0.7979(5)
H8 H 0.098465 0.552249 0.742918
C10 C 0.2801(3) 0.2764(4) 0.6792(5)
C11 C 0.4589(3) 0.2192(4) 0.8848(5)
C12 C 0.2138(3) 0.2653(4) 0.6644(5)
O6 O 0.4035(4) 0.4119(5) 0.5648(7)
C13 C 0.0782(3) 0.4258(4) 0.8958(5)
H9 H 0.074730 0.369312 0.908926
O7 O 0.2981(3) 0.4105(5) 0.4580(5)
N4 N 0.3499(4) 0.3908(5) 0.5429(6)
C14 C 0.0896(4) 0.5909(4) 0.8650(6)
H10 H 0.094531 0.647704 0.855287
O8 O 0.0137(2) 0.2582(3) 0.4024(4)
N5 N 0.0798(2) 0.4303(3) 0.4442(4)
O9 O 0.9539(3) 0.3336(3) 0.4420(5)
O3_2 O 0.0137(2) 0.7418(3) 0.9024(4)
N1_2 N 0.5798(2) 0.0697(3) 0.9442(4)
C9_2 C 0.5926(4) 0.0341(4) 0.7979(5)
H8_2 H 0.598465 0.052249 0.742918
C14_2 C 0.5896(4) 0.0909(4) 0.8650(6)
H10_2 H 0.594531 0.147704 0.855287
Zn1_2 Zn 0.57721(3) 0.82783(4) 0.53793(5)
O1_2 O 0.5904(2) 0.9168(3) 0.6559(3)
O2_2 O 0.6654(2) 0.7904(3) 0.5733(3)
O4_2 O 0.9539(3) 0.6664(3) 0.9420(5)
O5_2 O 0.7121(2) 0.7327(4) 0.7402(4)
N2_2 N 0.5781(3) 0.8071(4) 0.7408(4)
H1_2 H 0.574343 0.788160 0.792690
C1_2 C 0.5868(3) 0.9489(4) 0.8117(4)
C2_2 C 0.8982(3) 0.7576(4) 0.7875(5)
N3_2 N 0.5761(3) 0.7524(3) 0.6618(4)
H2_2 H 0.539682 0.721173 0.630028
H3_2 H 0.610681 0.718045 0.694594
C3_2 C 0.8366(3) 0.7425(4) 0.7701(5)
H4_2 H 0.833413 0.709379 0.819908
C4_2 C 0.5749(3) 0.9872(4) 0.9588(5)
C5_2 C 0.9028(3) 0.8077(4) 0.7138(5)
H6_2 H 0.943516 0.820391 0.725440
C6_2 C 0.5859(3) 0.8884(4) 0.7315(5)
C7_2 C 0.7844(3) 0.8246(4) 0.6036(5)
H7_2 H 0.746862 0.847032 0.541615
C8_2 C 0.8456(3) 0.8382(4) 0.6228(5)
C10_2 C 0.7801(3) 0.7764(4) 0.6792(5)
C11_2 C 0.9589(3) 0.7192(4) 0.8848(5)
C12_2 C 0.7138(3) 0.7653(4) 0.6644(5)
O6_2 O 0.9035(4) 0.9119(5) 0.5648(7)
C13_2 C 0.5782(3) 0.9258(4) 0.8958(5)
H9_2 H 0.574730 0.869312 0.908926
O7_2 O 0.7981(3) 0.9105(5) 0.4580(5)
N4_2 N 0.8499(4) 0.8908(5) 0.5429(6)
O8_2 O 0.5137(2) 0.7582(3) 0.4024(4)
N5_2 N 0.5798(2) 0.9303(3) 0.4442(4)
O9_2 O 0.4539(3) 0.8336(3) 0.4420(5)
O1_3 O 0.0904(2) 0.5832(3) 0.1559(3)
O2_3 O 0.1654(2) 0.7096(3) 0.0733(3)
O5_3 O 0.2121(2) 0.7673(4) 0.2402(4)
N2_3 N 0.0781(3) 0.6929(4) 0.2408(4)
H1_3 H 0.074343 0.711840 0.292690
C1_3 C 0.0868(3) 0.5511(4) 0.3117(4)
C2_3 C 0.3982(3) 0.7424(4) 0.2875(5)
N3_3 N 0.0761(3) 0.7476(3) 0.1618(4)
H2_3 H 0.039682 0.778827 0.130028
H3_3 H 0.110681 0.781955 0.194594
C3_3 C 0.3366(3) 0.7575(4) 0.2701(5)
H4_3 H 0.333413 0.790621 0.319908
C4_3 C 0.0749(3) 0.5128(4) 0.4588(5)
H5_2 H 0.068907 0.528980 0.514339
C5_3 C 0.4028(3) 0.6923(4) 0.2138(5)
H6_3 H 0.443516 0.679609 0.225440
C6_3 C 0.0859(3) 0.6116(4) 0.2315(5)
C7_3 C 0.2844(3) 0.6754(4) 0.1036(5)
H7_3 H 0.246862 0.652968 0.041615
C8_3 C 0.3456(3) 0.6618(4) 0.1228(5)
C9_3 C 0.0926(4) 0.4659(4) 0.2979(5)
H8_3 H 0.098465 0.447751 0.242918
C10_3 C 0.2801(3) 0.7236(4) 0.1792(5)
C11_3 C 0.4589(3) 0.7808(4) 0.3848(5)
C12_3 C 0.2138(3) 0.7347(4) 0.1644(5)
O6_3 O 0.4035(4) 0.5881(5) 0.0648(7)
C13_3 C 0.0782(3) 0.5742(4) 0.3958(5)
H9_3 H 0.074730 0.630688 0.408926
N4_3 N 0.3499(4) 0.6092(5) 0.0429(6)
C14_3 C 0.0896(4) 0.4091(4) 0.3650(6)
H10_3 H 0.094531 0.352296 0.355287
O7_3 O 0.2981(3) 0.5895(5) 0.9580(5)
O1_4 O 0.5904(2) 0.0832(3) 0.1559(3)
O2_4 O 0.6654(2) 0.2096(3) 0.0733(3)
O5_4 O 0.7121(2) 0.2673(4) 0.2402(4)
N2_4 N 0.5781(3) 0.1929(4) 0.2408(4)
H1_4 H 0.574343 0.211840 0.292690
C1_4 C 0.5868(3) 0.0511(4) 0.3117(4)
C2_4 C 0.8982(3) 0.2424(4) 0.2875(5)
N3_4 N 0.5761(3) 0.2476(3) 0.1618(4)
H2_4 H 0.539682 0.278827 0.130028
H3_4 H 0.610681 0.281955 0.194594
C3_4 C 0.8366(3) 0.2575(4) 0.2701(5)
H4_4 H 0.833413 0.290621 0.319908
C4_4 C 0.5749(3) 0.0128(4) 0.4588(5)
H5_3 H 0.568907 0.028980 0.514339
C5_4 C 0.9028(3) 0.1923(4) 0.2138(5)
H6_4 H 0.943516 0.179609 0.225440
C6_4 C 0.5859(3) 0.1116(4) 0.2315(5)
C7_4 C 0.7844(3) 0.1754(4) 0.1036(5)
H7_4 H 0.746862 0.152968 0.041615
C8_4 C 0.8456(3) 0.1618(4) 0.1228(5)
C10_4 C 0.7801(3) 0.2236(4) 0.1792(5)
C11_4 C 0.9589(3) 0.2808(4) 0.3848(5)
C12_4 C 0.7138(3) 0.2347(4) 0.1644(5)
O6_4 O 0.9035(4) 0.0881(5) 0.0648(7)
C13_4 C 0.5782(3) 0.0742(4) 0.3958(5)
H9_4 H 0.574730 0.130688 0.408926
N4_4 N 0.8499(4) 0.1092(5) 0.0429(6)
O7_4 O 0.7981(3) 0.0895(5) 0.9580(5)
C9_4 C 0.5926(4) 0.9659(4) 0.2979(5)
H8_4 H 0.598465 0.947751 0.242918
C14_4 C 0.5896(4) 0.9091(4) 0.3650(6)
H10_4 H 0.594531 0.852296 0.355287
O9_3 O 0.0461(3) 0.3336(3) 0.0580(5)
O7_5 O 0.7019(3) 0.4105(5) 0.0420(5)
O8_3 O 0.9863(2) 0.2582(3) 0.0976(4)
N5_3 N 0.9202(2) 0.4303(3) 0.0558(4)
Zn1_3 Zn 0.92279(3) 0.32783(4) 0.96207(5)
O1_5 O 0.9096(2) 0.4168(3) 0.8441(3)
O2_5 O 0.8346(2) 0.2904(3) 0.9267(3)
O3_3 O 0.4863(2) 0.2418(3) 0.5976(4)
N1_3 N 0.9202(2) 0.5697(3) 0.5558(4)
O4_3 O 0.5461(3) 0.1664(3) 0.5580(5)
O5_5 O 0.7879(2) 0.2327(4) 0.7598(4)
N2_5 N 0.9219(3) 0.3071(4) 0.7592(4)
H1_5 H 0.925657 0.288160 0.707310
C1_5 C 0.9132(3) 0.4489(4) 0.6883(4)
C2_5 C 0.6018(3) 0.2576(4) 0.7125(5)
N3_5 N 0.9239(3) 0.2524(3) 0.8382(4)
H2_5 H 0.960318 0.221173 0.869972
H3_5 H 0.889319 0.218045 0.805406
C3_5 C 0.6634(3) 0.2425(4) 0.7299(5)
H4_5 H 0.666587 0.209379 0.680092
C4_5 C 0.9251(3) 0.4872(4) 0.5412(5)
H5_4 H 0.931093 0.471020 0.485661
C5_5 C 0.5972(3) 0.3077(4) 0.7862(5)
H6_5 H 0.556484 0.320391 0.774560
C6_5 C 0.9141(3) 0.3884(4) 0.7685(5)
C7_5 C 0.7156(3) 0.3246(4) 0.8964(5)
H7_5 H 0.753138 0.347032 0.958385
C8_5 C 0.6544(3) 0.3382(4) 0.8772(5)
C9_5 C 0.9074(4) 0.5341(4) 0.7021(5)
H8_5 H 0.901535 0.552249 0.757082
C10_5 C 0.7199(3) 0.2764(4) 0.8208(5)
C11_5 C 0.5411(3) 0.2192(4) 0.6152(5)
C12_5 C 0.7862(3) 0.2653(4) 0.8356(5)
O6_5 O 0.5965(4) 0.4119(5) 0.9352(7)
C13_5 C 0.9218(3) 0.4258(4) 0.6042(5)
H9_5 H 0.925270 0.369312 0.591074
N4_5 N 0.6501(4) 0.3908(5) 0.9571(6)
C14_5 C 0.9104(4) 0.5909(4) 0.6350(6)
H10_5 H 0.905469 0.647704 0.644713
Zn2_2 Zn 0.92279(3) 0.67217(4) 0.46207(5)
Zn3_2 Zn 0.42279(3) 0.17217(4) 0.46207(5)
N1_4 N 0.4202(2) 0.0697(3) 0.5558(4)
C9_6 C 0.4074(4) 0.0341(4) 0.7021(5)
H8_6 H 0.401535 0.052249 0.757082
C14_6 C 0.4104(4) 0.0909(4) 0.6350(6)
H10_6 H 0.405469 0.147704 0.644713
O7_6 O 0.2019(3) 0.9105(5) 0.0420(5)
O8_4 O 0.4863(2) 0.7582(3) 0.0976(4)
N5_4 N 0.4202(2) 0.9303(3) 0.0558(4)
O9_4 O 0.5461(3) 0.8336(3) 0.0580(5)
Zn1_4 Zn 0.42279(3) 0.82783(4) 0.96207(5)
O1_6 O 0.4096(2) 0.9168(3) 0.8441(3)
O2_6 O 0.3346(2) 0.7904(3) 0.9267(3)
O4_4 O 0.0461(3) 0.6664(3) 0.5580(5)
O5_6 O 0.2879(2) 0.7327(4) 0.7598(4)
N2_6 N 0.4219(3) 0.8071(4) 0.7592(4)
H1_6 H 0.425657 0.788160 0.707310
C1_6 C 0.4132(3) 0.9489(4) 0.6883(4)
C2_6 C 0.1018(3) 0.7576(4) 0.7125(5)
N3_6 N 0.4239(3) 0.7524(3) 0.8382(4)
H2_6 H 0.460318 0.721173 0.869972
H3_6 H 0.389319 0.718045 0.805406
C3_6 C 0.1634(3) 0.7425(4) 0.7299(5)
H4_6 H 0.166587 0.709379 0.680092
C4_6 C 0.4251(3) 0.9872(4) 0.5412(5)
H5_5 H 0.431093 0.971020 0.485661
C5_6 C 0.0972(3) 0.8077(4) 0.7862(5)
H6_6 H 0.056484 0.820391 0.774560
C6_6 C 0.4141(3) 0.8884(4) 0.7685(5)
C7_6 C 0.2156(3) 0.8246(4) 0.8964(5)
H7_6 H 0.253138 0.847032 0.958385
C8_6 C 0.1544(3) 0.8382(4) 0.8772(5)
C10_6 C 0.2199(3) 0.7764(4) 0.8208(5)
C11_6 C 0.0411(3) 0.7192(4) 0.6152(5)
C12_6 C 0.2862(3) 0.7653(4) 0.8356(5)
O6_6 O 0.0965(4) 0.9119(5) 0.9352(7)
C13_6 C 0.4218(3) 0.9258(4) 0.6042(5)
H9_6 H 0.425270 0.869312 0.591074
N4_6 N 0.1501(4) 0.8908(5) 0.9571(6)
O3_4 O 0.9863(2) 0.7418(3) 0.5976(4)
O1_7 O 0.9096(2) 0.5832(3) 0.3441(3)
O2_7 O 0.8346(2) 0.7096(3) 0.4267(3)
O5_7 O 0.7879(2) 0.7673(4) 0.2598(4)
N2_7 N 0.9219(3) 0.6929(4) 0.2592(4)
H1_7 H 0.925657 0.711840 0.207310
C1_7 C 0.9132(3) 0.5511(4) 0.1883(4)
C2_7 C 0.6018(3) 0.7424(4) 0.2125(5)
N3_7 N 0.9239(3) 0.7476(3) 0.3382(4)
H2_7 H 0.960318 0.778827 0.369972
H3_7 H 0.889319 0.781955 0.305406
C3_7 C 0.6634(3) 0.7575(4) 0.2299(5)
H4_7 H 0.666587 0.790621 0.180092
C4_7 C 0.9251(3) 0.5128(4) 0.0412(5)
C5_7 C 0.5972(3) 0.6923(4) 0.2862(5)
H6_7 H 0.556484 0.679609 0.274560
C6_7 C 0.9141(3) 0.6116(4) 0.2685(5)
C7_7 C 0.7156(3) 0.6754(4) 0.3964(5)
H7_7 H 0.753138 0.652968 0.458385
C8_7 C 0.6544(3) 0.6618(4) 0.3772(5)
C9_7 C 0.9074(4) 0.4659(4) 0.2021(5)
H8_7 H 0.901535 0.447751 0.257082
C10_7 C 0.7199(3) 0.7236(4) 0.3208(5)
C11_7 C 0.5411(3) 0.7808(4) 0.1152(5)
C12_7 C 0.7862(3) 0.7347(4) 0.3356(5)
O6_7 O 0.5965(4) 0.5881(5) 0.4352(7)
C13_7 C 0.9218(3) 0.5742(4) 0.1042(5)
H9_7 H 0.925270 0.630688 0.091074
O7_7 O 0.7019(3) 0.5895(5) 0.5420(5)
N4_7 N 0.6501(4) 0.6092(5) 0.4571(6)
C14_7 C 0.9104(4) 0.4091(4) 0.1350(6)
H10_7 H 0.905469 0.352296 0.144713
H5_6 H 0.931093 0.528980 0.985661
O1_8 O 0.4096(2) 0.0832(3) 0.3441(3)
O2_8 O 0.3346(2) 0.2096(3) 0.4267(3)
O5_8 O 0.2879(2) 0.2673(4) 0.2598(4)
N2_8 N 0.4219(3) 0.1929(4) 0.2592(4)
H1_8 H 0.425657 0.211840 0.207310
C1_8 C 0.4132(3) 0.0511(4) 0.1883(4)
C2_8 C 0.1018(3) 0.2424(4) 0.2125(5)
N3_8 N 0.4239(3) 0.2476(3) 0.3382(4)
H2_8 H 0.460318 0.278827 0.369972
H3_8 H 0.389319 0.281955 0.305406
C3_8 C 0.1634(3) 0.2575(4) 0.2299(5)
H4_8 H 0.166587 0.290621 0.180092
C4_8 C 0.4251(3) 0.0128(4) 0.0412(5)
C5_8 C 0.0972(3) 0.1923(4) 0.2862(5)
H6_8 H 0.056484 0.179609 0.274560
C6_8 C 0.4141(3) 0.1116(4) 0.2685(5)
C7_8 C 0.2156(3) 0.1754(4) 0.3964(5)
H7_8 H 0.253138 0.152968 0.458385
C8_8 C 0.1544(3) 0.1618(4) 0.3772(5)
C10_8 C 0.2199(3) 0.2236(4) 0.3208(5)
C11_8 C 0.0411(3) 0.2808(4) 0.1152(5)
C12_8 C 0.2862(3) 0.2347(4) 0.3356(5)
O6_8 O 0.0965(4) 0.0881(5) 0.4352(7)
C13_8 C 0.4218(3) 0.0742(4) 0.1042(5)
H9_8 H 0.425270 0.130688 0.091074
O7_8 O 0.2019(3) 0.0895(5) 0.5420(5)
N4_8 N 0.1501(4) 0.1092(5) 0.4571(6)
C9_8 C 0.4074(4) 0.9659(4) 0.2021(5)
H8_8 H 0.401535 0.947751 0.257082
C14_8 C 0.4104(4) 0.9091(4) 0.1350(6)
H10_8 H 0.405469 0.852296 0.144713
H5_7 H 0.568907 0.971020 0.014339
H5_8 H 0.431093 0.028980 0.985661
loop_
_geom_bond_atom_site_label_1
_geom_bond_atom_site_label_2
_geom_bond_site_symmetry_1
_geom_bond_site_symmetry_2
Zn1 O1 1_555 1_555
O1 C6 1_555 1_555
O2 Zn1 1_555 1_555
O3 C11 1_555 1_555
N1 C4 1_555 1_555
O4 C11 1_555 1_555
O5 C12 1_555 1_555
N2 H1 1_555 1_555
C1 C6 1_555 1_555
C2 C3 1_555 1_555
N3 Zn1 1_555 1_555
H2 N3 1_555 1_555
H3 N3 1_555 1_555
C3 H4 1_555 1_555
C5 C2 1_555 1_555
H6 C5 1_555 1_555
C6 N2 1_555 1_555
C7 H7 1_555 1_555
C8 C5 1_555 1_555
C9 C1 1_555 1_555
H8 C9 1_555 1_555
C10 C3 1_555 1_555
C11 C2 1_555 1_555
C12 O2 1_555 1_555
O6 N4 1_555 1_555
C13 C1 1_555 1_555
H9 C13 1_555 1_555
O7 N4 1_555 1_555
N4 C8 1_555 1_555
C14 N1 1_555 1_555
H10 C14 1_555 1_555
O8 Zn1 1_555 1_555
N5 Zn1 1_555 1_555
N2 N3 1_555 1_555
C4 C13 1_555 1_555
C7 C8 1_555 1_555
C7 C10 1_555 1_555
C9 C14 1_555 1_555
C10 C12 1_555 1_555
H8_2 C9_2 1_555 1_555
C14_2 N1_2 1_555 1_555
H10_2 C14_2 1_555 1_555
C9_2 C14_2 1_555 1_555
Zn1_2 O1_2 1_555 1_555
O1_2 C6_2 1_555 1_555
O2_2 Zn1_2 1_555 1_555
O4_2 C11_2 1_555 1_555
O5_2 C12_2 1_555 1_555
N2_2 H1_2 1_555 1_555
C1_2 C6_2 1_555 1_555
C2_2 C3_2 1_555 1_555
N3_2 Zn1_2 1_555 1_555
H2_2 N3_2 1_555 1_555
H3_2 N3_2 1_555 1_555
C3_2 H4_2 1_555 1_555
C5_2 C2_2 1_555 1_555
H6_2 C5_2 1_555 1_555
C6_2 N2_2 1_555 1_555
C7_2 H7_2 1_555 1_555
C8_2 C5_2 1_555 1_555
C10_2 C3_2 1_555 1_555
C11_2 C2_2 1_555 1_555
C12_2 O2_2 1_555 1_555
O6_2 N4_2 1_555 1_555
C13_2 C1_2 1_555 1_555
H9_2 C13_2 1_555 1_555
O7_2 N4_2 1_555 1_555
N4_2 C8_2 1_555 1_555
O8_2 Zn1_2 1_555 1_555
N5_2 Zn1_2 1_555 1_555
O9_2 Zn1_2 1_555 1_555
N2_2 N3_2 1_555 1_555
C4_2 C13_2 1_555 1_555
C7_2 C8_2 1_555 1_555
C7_2 C10_2 1_555 1_555
C10_2 C12_2 1_555 1_555
Zn2 O1_3 1_555 1_555
O1_3 C6_3 1_555 1_555
O2_3 Zn2 1_555 1_555
O8_2 C11_3 1_555 1_555
N5 C4_3 1_555 1_555
O9_2 C11_3 1_555 1_555
O5_3 C12_3 1_555 1_555
N2_3 H1_3 1_555 1_555
C1_3 C6_3 1_555 1_555
C2_3 C3_3 1_555 1_555
N3_3 Zn2 1_555 1_555
H2_3 N3_3 1_555 1_555
H3_3 N3_3 1_555 1_555
C3_3 H4_3 1_555 1_555
C4_3 H5_2 1_555 1_555
C5_3 C2_3 1_555 1_555
H6_3 C5_3 1_555 1_555
C6_3 N2_3 1_555 1_555
C7_3 H7_3 1_555 1_555
C8_3 C5_3 1_555 1_555
C9_3 C1_3 1_555 1_555
H8_3 C9_3 1_555 1_555
C10_3 C3_3 1_555 1_555
C11_3 C2_3 1_555 1_555
C12_3 O2_3 1_555 1_555
O6_3 N4_3 1_555 1_555
C13_3 C1_3 1_555 1_555
H9_3 C13_3 1_555 1_555
N4_3 C8_3 1_555 1_555
C14_3 N5 1_555 1_555
H10_3 C14_3 1_555 1_555
N2_3 N3_3 1_555 1_555
C4_3 C13_3 1_555 1_555
C7_3 C8_3 1_555 1_555
C7_3 C10_3 1_555 1_555
C9_3 C14_3 1_555 1_555
C10_3 C12_3 1_555 1_555
Zn3 O1_4 1_555 1_555
O1_4 C6_4 1_555 1_555
O2_4 Zn3 1_555 1_555
O9 C11_4 1_555 1_555
O5_4 C12_4 1_555 1_555
N2_4 H1_4 1_555 1_555
C1_4 C6_4 1_555 1_555
C2_4 C3_4 1_555 1_555
N3_4 Zn3 1_555 1_555
H2_4 N3_4 1_555 1_555
H3_4 N3_4 1_555 1_555
C3_4 H4_4 1_555 1_555
C4_4 H5_3 1_555 1_555
C5_4 C2_4 1_555 1_555
H6_4 C5_4 1_555 1_555
C6_4 N2_4 1_555 1_555
C7_4 H7_4 1_555 1_555
C8_4 C5_4 1_555 1_555
C10_4 C3_4 1_555 1_555
C11_4 C2_4 1_555 1_555
C12_4 O2_4 1_555 1_555
O6_4 N4_4 1_555 1_555
C13_4 C1_4 1_555 1_555
H9_4 C13_4 1_555 1_555
N4_4 C8_4 1_555 1_555
N2_4 N3_4 1_555 1_555
C4_4 C13_4 1_555 1_555
C7_4 C8_4 1_555 1_555
C7_4 C10_4 1_555 1_555
C10_4 C12_4 1_555 1_555
H8_4 C9_4 1_555 1_555
C14_4 N5_2 1_555 1_555
H10_4 C14_4 1_555 1_555
C9_4 C14_4 1_555 1_555
Zn1_3 O1_5 1_555 1_555
O1_5 C6_5 1_555 1_555
O2_5 Zn1_3 1_555 1_555
O3_3 C11_5 1_555 1_555
N1_3 C4_5 1_555 1_555
O4_3 C11_5 1_555 1_555
O5_5 C12_5 1_555 1_555
N2_5 H1_5 1_555 1_555
C1_5 C6_5 1_555 1_555
C2_5 C3_5 1_555 1_555
N3_5 Zn1_3 1_555 1_555
H2_5 N3_5 1_555 1_555
H3_5 N3_5 1_555 1_555
C3_5 H4_5 1_555 1_555
C4_5 H5_4 1_555 1_555
C5_5 C2_5 1_555 1_555
H6_5 C5_5 1_555 1_555
C6_5 N2_5 1_555 1_555
C7_5 H7_5 1_555 1_555
C8_5 C5_5 1_555 1_555
C9_5 C1_5 1_555 1_555
H8_5 C9_5 1_555 1_555
C10_5 C3_5 1_555 1_555
C11_5 C2_5 1_555 1_555
C12_5 O2_5 1_555 1_555
O6_5 N4_5 1_555 1_555
C13_5 C1_5 1_555 1_555
H9_5 C13_5 1_555 1_555
N4_5 C8_5 1_555 1_555
C14_5 N1_3 1_555 1_555
H10_5 C14_5 1_555 1_555
Zn2_2 N1_3 1_555 1_555
Zn3_2 O3_3 1_555 1_555
O4_3 Zn3_2 1_555 1_555
N2_5 N3_5 1_555 1_555
C4_5 C13_5 1_555 1_555
C7_5 C8_5 1_555 1_555
C7_5 C10_5 1_555 1_555
C9_5 C14_5 1_555 1_555
C10_5 C12_5 1_555 1_555
H8_6 C9_6 1_555 1_555
C14_6 N1_4 1_555 1_555
H10_6 C14_6 1_555 1_555
Zn3_2 N1_4 1_555 1_555
C9_6 C14_6 1_555 1_555
Zn1_4 O1_6 1_555 1_555
O1_6 C6_6 1_555 1_555
O2_6 Zn1_4 1_555 1_555
O4_4 C11_6 1_555 1_555
O5_6 C12_6 1_555 1_555
N2_6 H1_6 1_555 1_555
C1_6 C6_6 1_555 1_555
C2_6 C3_6 1_555 1_555
N3_6 Zn1_4 1_555 1_555
H2_6 N3_6 1_555 1_555
H3_6 N3_6 1_555 1_555
C3_6 H4_6 1_555 1_555
C4_6 H5_5 1_555 1_555
C5_6 C2_6 1_555 1_555
H6_6 C5_6 1_555 1_555
C6_6 N2_6 1_555 1_555
C7_6 H7_6 1_555 1_555
C8_6 C5_6 1_555 1_555
C10_6 C3_6 1_555 1_555
C11_6 C2_6 1_555 1_555
C12_6 O2_6 1_555 1_555
O6_6 N4_6 1_555 1_555
C13_6 C1_6 1_555 1_555
H9_6 C13_6 1_555 1_555
N4_6 C8_6 1_555 1_555
N2_6 N3_6 1_555 1_555
C4_6 C13_6 1_555 1_555
C7_6 C8_6 1_555 1_555
C7_6 C10_6 1_555 1_555
C10_6 C12_6 1_555 1_555
Zn2_2 O3_4 1_555 1_555
Zn2_2 O1_7 1_555 1_555
O1_7 C6_7 1_555 1_555
O2_7 Zn2_2 1_555 1_555
O8_4 C11_7 1_555 1_555
N5_3 C4_7 1_555 1_555
O9_4 C11_7 1_555 1_555
O5_7 C12_7 1_555 1_555
N2_7 H1_7 1_555 1_555
C1_7 C6_7 1_555 1_555
C2_7 C3_7 1_555 1_555
N3_7 Zn2_2 1_555 1_555
H2_7 N3_7 1_555 1_555
H3_7 N3_7 1_555 1_555
C3_7 H4_7 1_555 1_555
C5_7 C2_7 1_555 1_555
H6_7 C5_7 1_555 1_555
C6_7 N2_7 1_555 1_555
C7_7 H7_7 1_555 1_555
C8_7 C5_7 1_555 1_555
C9_7 C1_7 1_555 1_555
H8_7 C9_7 1_555 1_555
C10_7 C3_7 1_555 1_555
C11_7 C2_7 1_555 1_555
C12_7 O2_7 1_555 1_555
O6_7 N4_7 1_555 1_555
C13_7 C1_7 1_555 1_555
H9_7 C13_7 1_555 1_555
O7_7 N4_7 1_555 1_555
N4_7 C8_7 1_555 1_555
C14_7 N5_3 1_555 1_555
H10_7 C14_7 1_555 1_555
N2_7 N3_7 1_555 1_555
C4_7 C13_7 1_555 1_555
C7_7 C8_7 1_555 1_555
C7_7 C10_7 1_555 1_555
C9_7 C14_7 1_555 1_555
C10_7 C12_7 1_555 1_555
Zn3_2 O1_8 1_555 1_555
O1_8 C6_8 1_555 1_555
O2_8 Zn3_2 1_555 1_555
O9_3 C11_8 1_555 1_555
O5_8 C12_8 1_555 1_555
N2_8 H1_8 1_555 1_555
C1_8 C6_8 1_555 1_555
C2_8 C3_8 1_555 1_555
N3_8 Zn3_2 1_555 1_555
H2_8 N3_8 1_555 1_555
H3_8 N3_8 1_555 1_555
C3_8 H4_8 1_555 1_555
C5_8 C2_8 1_555 1_555
H6_8 C5_8 1_555 1_555
C6_8 N2_8 1_555 1_555
C7_8 H7_8 1_555 1_555
C8_8 C5_8 1_555 1_555
C10_8 C3_8 1_555 1_555
C11_8 C2_8 1_555 1_555
C12_8 O2_8 1_555 1_555
O6_8 N4_8 1_555 1_555
C13_8 C1_8 1_555 1_555
H9_8 C13_8 1_555 1_555
O7_8 N4_8 1_555 1_555
N4_8 C8_8 1_555 1_555
N2_8 N3_8 1_555 1_555
C4_8 C13_8 1_555 1_555
C7_8 C8_8 1_555 1_555
C7_8 C10_8 1_555 1_555
C10_8 C12_8 1_555 1_555
H8_8 C9_8 1_555 1_555
C14_8 N5_4 1_555 1_555
H10_8 C14_8 1_555 1_555
C9_8 C14_8 1_555 1_555

#END
