
###############################################################################
#
# This file contains modified crystal structure data generated from the
# MOF subset of the Cambridge Structural Database (CSD) v543 
# hosted by the Cambridge Crystallographic Data Centre (CCDC).
#
# This work is licensed under the Creative Commons
# Attribution-NonCommercial-ShareAlike 4.0 International License.
# To view a copy of this license, visit
# http://creativecommons.org/licenses/by-nc-sa/4.0/
# or send a letter to
# Creative Commons, PO Box 1866, Mountain View, CA 94042, USA.
#
# CIF created using the CSD Python API on 29 September 2022
# The structure has been converted into the P1 space group
# The structure has a 3D framework
# The original CSD entry UZANEP is in the monoclinic crystal system
# The framework has been calculated to contain at least 10.0% void space
# The void calculation uses a probe of radius 1.32A, grid spacing 0.4
#
###############################################################################

data_UZANEP
_chemical_formula_moiety         '(C52 H36 N8 Nd4 O40 Zn4)n'
_symmetry_cell_setting           triclinic
_symmetry_space_group_name_H-M   'P 1'
_symmetry_Int_Tables_number      1
_space_group_name_Hall           'P 1'
loop_
_symmetry_equiv_pos_site_id
_symmetry_equiv_pos_as_xyz
1 x,y,z
_cell_length_a                   10.1806(8)
_cell_length_b                   9.5903(7)
_cell_length_c                   20.5841(13)
_cell_angle_alpha                90
_cell_angle_beta                 106.075(3)
_cell_angle_gamma                90
_cell_volume                     1931.15
loop_
_atom_site_label
_atom_site_type_symbol
_atom_site_fract_x
_atom_site_fract_y
_atom_site_fract_z
C3 C 0.2016(7) 0.0092(6) 0.0540(3)
H2 H 0.2351 0.0998 0.0559
C1 C 0.1372(4) 0.8118(4) 0.11010(19)
C2 C 0.1873(6) 0.9456(5) 0.1118(2)
H1 H 0.2118 0.9938 0.1526
C6 C 0.1000(4) 0.7402(4) 0.04889(18)
H4 H 0.0648 0.6503 0.0468
C8 C 0.1232(4) 0.7435(4) 0.17412(18)
O3 O 0.0930(3) 0.6173(3) 0.17111(14)
O4 O 0.1442(3) 0.8181(3) 0.22669(13)
Nd3 Nd 0.029143(19) 0.93038(2) 0.297989(9)
C4 C 0.1660(6) 0.9380(5) 0.9935(2)
H3 H 0.1759 0.9803 0.9545
C5 C 0.1157(4) 0.8040(4) 0.99078(19)
C7 C 0.0798(4) 0.7255(4) 0.92526(18)
C9 C 0.2060(3) 0.2935(4) 0.73893(18)
C10 C 0.3414(4) 0.3588(4) 0.75316(19)
C11 C 0.4094(4) 0.4611(4) 0.79624(19)
C12 C 0.3755(4) 0.5481(4) 0.84855(19)
C13 C 0.5415(4) 0.3863(4) 0.7378(2)
H5 H 0.6168 0.3758 0.7210
Nd1 Nd 0.029143(19) 0.56962(2) 0.797989(9)
N1 N 0.4268(3) 0.3122(3) 0.71624(17)
N2 N 0.5365(3) 0.4770(4) 0.78604(17)
O1 O 0.1010(3) 0.7811(3) 0.87328(13)
O2 O 0.0299(3) 0.6037(3) 0.92202(13)
O5 O 0.1110(2) 0.3404(3) 0.75942(13)
O6 O 0.1923(3) 0.1825(3) 0.70283(13)
O7 O 0.2637(3) 0.5284(3) 0.86296(13)
O8 O 0.4634(3) 0.6365(3) 0.87776(14)
O10 O 0.2370(3) 0.1159(3) 0.57245(14)
H8 H 0.1564 0.0926 0.5612
H9 H 0.2734 0.0686 0.5487
Zn1 Zn 0.36243(4) 0.13854(5) 0.66342(2)
O12 O 0.1442(3) 0.6819(3) 0.72669(13)
O15 O 0.5366(3) 0.1365(3) 0.62224(14)
Zn2 Zn 0.63757(4) 0.63854(5) 0.83658(2)
N3 N 0.4635(3) 0.9770(4) 0.71396(17)
Nd2 Nd 0.970857(19) 0.43038(2) 0.202011(9)
O9 O 0.8714(3) 0.5257(3) 0.68657(15)
H6 H 0.8658 0.4485 0.6698
H7 H 0.8244 0.5758 0.6575
Nd4 Nd 0.970857(19) 0.06962(2) 0.702011(9)
O11 O 0.9070(3) 0.3827(3) 0.82889(14)
O13 O 0.8890(2) 0.8404(3) 0.74058(13)
O14 O 0.8077(3) 0.6825(3) 0.79717(13)
O9_2 O 0.1286(3) 0.0257(3) 0.81343(15)
H7_2 H 0.1756 0.0758 0.8425
H6_2 H 0.1342 0.9485 0.8302
O11_2 O 0.0930(3) 0.8827(3) 0.67111(14)
C1_2 C 0.8628(4) 0.3118(4) 0.38990(19)
C2_2 C 0.8127(6) 0.4456(5) 0.3882(2)
H1_2 H 0.7882 0.4938 0.3474
C3_2 C 0.7984(7) 0.5092(6) 0.4460(3)
H2_2 H 0.7649 0.5998 0.4441
C4_2 C 0.8340(6) 0.4380(5) 0.5065(2)
H3_2 H 0.8241 0.4803 0.5455
C5_2 C 0.8843(4) 0.3040(4) 0.50922(19)
C6_2 C 0.9000(4) 0.2402(4) 0.45111(18)
H4_2 H 0.9352 0.1503 0.4532
C7_2 C 0.9202(4) 0.2255(4) 0.57474(18)
C8_2 C 0.8768(4) 0.2435(4) 0.32588(18)
C12_2 C 0.6245(4) 0.0481(4) 0.65145(19)
O1_2 O 0.8990(3) 0.2811(3) 0.62672(13)
O2_2 O 0.9701(3) 0.1037(3) 0.57798(13)
O3_2 O 0.9070(3) 0.1173(3) 0.32889(14)
O4_2 O 0.8558(3) 0.3181(3) 0.27331(13)
O7_2 O 0.7363(3) 0.0284(3) 0.63704(13)
O12_2 O 0.8558(3) 0.1819(3) 0.77331(13)
C9_2 C 0.7940(3) 0.7935(4) 0.76107(18)
C10_2 C 0.6586(4) 0.8588(4) 0.74684(19)
C11_2 C 0.5906(4) 0.9611(4) 0.70376(19)
C13_2 C 0.4585(4) 0.8863(4) 0.7622(2)
H5_2 H 0.3832 0.8758 0.7790
N1_2 N 0.5732(3) 0.8122(3) 0.78376(17)
O10_2 O 0.7630(3) 0.6159(3) 0.92755(14)
H8_2 H 0.8436 0.5926 0.9388
H9_2 H 0.7266 0.5686 0.9513
O9_3 O 0.1286(3) 0.4743(3) 0.31343(15)
H6_3 H 0.1342 0.5515 0.3302
H7_3 H 0.1756 0.4242 0.3425
O13_2 O 0.1110(2) 0.1596(3) 0.25942(13)
O14_2 O 0.1923(3) 0.3175(3) 0.20283(13)
N3_2 N 0.5365(3) 0.0230(4) 0.28604(17)
C4_3 C 0.8340(6) 0.0620(5) 0.0065(2)
H3_3 H 0.8241 0.0197 0.0455
C5_3 C 0.8843(4) 0.1960(4) 0.00922(19)
C7_3 C 0.9202(4) 0.2745(4) 0.07474(18)
C9_3 C 0.7940(3) 0.7065(4) 0.26107(18)
C10_3 C 0.6586(4) 0.6412(4) 0.24684(19)
C11_3 C 0.5906(4) 0.5389(4) 0.20376(19)
C12_3 C 0.6245(4) 0.4519(4) 0.15145(19)
C13_3 C 0.4585(4) 0.6137(4) 0.2622(2)
H5_3 H 0.3832 0.6242 0.2790
N1_3 N 0.5732(3) 0.6878(3) 0.28376(17)
N2_2 N 0.4635(3) 0.5230(4) 0.21396(17)
O1_3 O 0.8990(3) 0.2189(3) 0.12672(13)
O2_3 O 0.9701(3) 0.3963(3) 0.07798(13)
O5_2 O 0.8890(2) 0.6596(3) 0.24058(13)
O6_2 O 0.8077(3) 0.8175(3) 0.29717(13)
O7_3 O 0.7363(3) 0.4716(3) 0.13704(13)
O8_2 O 0.5366(3) 0.3635(3) 0.12224(14)
O10_3 O 0.7630(3) 0.8841(3) 0.42755(14)
H8_3 H 0.8436 0.9074 0.4388
H9_3 H 0.7266 0.9314 0.4513
Zn1_2 Zn 0.63757(4) 0.86146(5) 0.33658(2)
O15_2 O 0.4634(3) 0.8635(3) 0.37776(14)
Zn2_2 Zn 0.36243(4) 0.36146(5) 0.16342(2)
C1_3 C 0.8628(4) 0.1882(4) 0.88990(19)
C2_3 C 0.8127(6) 0.0544(5) 0.8882(2)
H1_3 H 0.7882 0.0062 0.8474
C6_3 C 0.9000(4) 0.2598(4) 0.95111(18)
H4_3 H 0.9352 0.3497 0.9532
C8_3 C 0.8768(4) 0.2565(4) 0.82588(18)
C9_4 C 0.2060(3) 0.2065(4) 0.23893(18)
C10_4 C 0.3414(4) 0.1412(4) 0.25316(19)
C11_4 C 0.4094(4) 0.0389(4) 0.29624(19)
C13_4 C 0.5415(4) 0.1137(4) 0.2378(2)
H5_4 H 0.6168 0.1242 0.2210
N1_4 N 0.4268(3) 0.1878(3) 0.21624(17)
O10_4 O 0.2370(3) 0.3841(3) 0.07245(14)
H8_4 H 0.1564 0.4074 0.0612
H9_4 H 0.2734 0.4314 0.0487
C1_4 C 0.1372(4) 0.6882(4) 0.61010(19)
C2_4 C 0.1873(6) 0.5544(5) 0.6118(2)
H1_4 H 0.2118 0.5062 0.6526
C3_3 C 0.2016(7) 0.4908(6) 0.5540(3)
H2_3 H 0.2351 0.4002 0.5559
C4_4 C 0.1660(6) 0.5620(5) 0.4935(2)
H3_4 H 0.1759 0.5197 0.4545
C5_4 C 0.1157(4) 0.6960(4) 0.49078(19)
C6_4 C 0.1000(4) 0.7598(4) 0.54889(18)
H4_4 H 0.0648 0.8497 0.5468
C7_4 C 0.0798(4) 0.7745(4) 0.42526(18)
C8_4 C 0.1232(4) 0.7565(4) 0.67412(18)
C12_4 C 0.3755(4) 0.9519(4) 0.34855(19)
O1_4 O 0.1010(3) 0.7189(3) 0.37328(13)
O2_4 O 0.0299(3) 0.8963(3) 0.42202(13)
O7_4 O 0.2637(3) 0.9716(3) 0.36296(13)
H6_4 H 0.8658 0.0515 0.1698
O9_4 O 0.8714(3) 0.9743(3) 0.18657(15)
H7_4 H 0.8244 0.9242 0.1575
C3_4 C 0.7984(7) 0.9908(6) 0.9460(3)
H2_4 H 0.7649 0.9002 0.9441
loop_
_geom_bond_atom_site_label_1
_geom_bond_atom_site_label_2
_geom_bond_site_symmetry_1
_geom_bond_site_symmetry_2
H2 C3 1_555 1_555
C1 C2 1_555 1_555
C2 H1 1_555 1_555
C6 C1 1_555 1_555
H4 C6 1_555 1_555
C8 C1 1_555 1_555
O3 C8 1_555 1_555
O4 C8 1_555 1_555
Nd3 O4 1_555 1_555
H3 C4 1_555 1_555
C5 C4 1_555 1_555
C7 C5 1_555 1_555
C9 C10 1_555 1_555
C10 C11 1_555 1_555
C11 C12 1_555 1_555
C12 O7 1_555 1_555
C13 H5 1_555 1_555
Nd1 O1 1_555 1_555
N1 C10 1_555 1_555
N2 C11 1_555 1_555
O1 C7 1_555 1_555
O2 C7 1_555 1_555
O5 C9 1_555 1_555
O6 C9 1_555 1_555
O7 Nd1 1_555 1_555
O8 C12 1_555 1_555
O10 H8 1_555 1_555
H9 O10 1_555 1_555
Zn1 N1 1_555 1_555
O12 Nd1 1_555 1_555
O15 Zn1 1_555 1_555
Zn2 N2 1_555 1_555
C13 N1 1_555 1_555
C13 N2 1_555 1_555
Nd1 O2 1_555 1_555
Nd1 O5 1_555 1_555
O6 Zn1 1_555 1_555
O8 Zn2 1_555 1_555
O10 Zn1 1_555 1_555
H6 O9 1_555 1_555
H7 O9 1_555 1_555
H7_2 O9_2 1_555 1_555
C1_2 C2_2 1_555 1_555
C2_2 H1_2 1_555 1_555
C3_2 C2_2 1_555 1_555
H2_2 C3_2 1_555 1_555
C4_2 C3_2 1_555 1_555
H3_2 C4_2 1_555 1_555
C5_2 C4_2 1_555 1_555
C6_2 C1_2 1_555 1_555
H4_2 C6_2 1_555 1_555
C7_2 C5_2 1_555 1_555
C8_2 C1_2 1_555 1_555
C12_2 O7_2 1_555 1_555
Nd4 O1_2 1_555 1_555
O1_2 C7_2 1_555 1_555
O2_2 C7_2 1_555 1_555
O3_2 C8_2 1_555 1_555
O4_2 C8_2 1_555 1_555
O7_2 Nd4 1_555 1_555
O15 C12_2 1_555 1_555
Nd2 O4_2 1_555 1_555
O12_2 Nd4 1_555 1_555
C5_2 C6_2 1_555 1_555
Nd4 O2_2 1_555 1_555
C9_2 C10_2 1_555 1_555
C10_2 C11_2 1_555 1_555
C13_2 H5_2 1_555 1_555
N1_2 C10_2 1_555 1_555
N3 C11_2 1_555 1_555
O13 C9_2 1_555 1_555
O14 C9_2 1_555 1_555
O10_2 H8_2 1_555 1_555
H9_2 O10_2 1_555 1_555
Zn2 N1_2 1_555 1_555
C13_2 N1_2 1_555 1_555
C13_2 N3 1_555 1_555
O14 Zn2 1_555 1_555
O10_2 Zn2 1_555 1_555
H6_3 O9_3 1_555 1_555
H7_3 O9_3 1_555 1_555
H3_3 C4_3 1_555 1_555
C5_3 C4_3 1_555 1_555
C7_3 C5_3 1_555 1_555
C9_3 C10_3 1_555 1_555
C10_3 C11_3 1_555 1_555
C11_3 C12_3 1_555 1_555
C12_3 O7_3 1_555 1_555
C13_3 H5_3 1_555 1_555
Nd2 O1_3 1_555 1_555
N1_3 C10_3 1_555 1_555
N2_2 C11_3 1_555 1_555
O1_3 C7_3 1_555 1_555
O2_3 C7_3 1_555 1_555
O5_2 C9_3 1_555 1_555
O6_2 C9_3 1_555 1_555
O7_3 Nd2 1_555 1_555
O8_2 C12_3 1_555 1_555
O10_3 H8_3 1_555 1_555
H9_3 O10_3 1_555 1_555
Zn1_2 N1_3 1_555 1_555
O15_2 Zn1_2 1_555 1_555
Zn2_2 N2_2 1_555 1_555
C13_3 N1_3 1_555 1_555
C13_3 N2_2 1_555 1_555
Nd2 O2_3 1_555 1_555
Nd2 O5_2 1_555 1_555
O6_2 Zn1_2 1_555 1_555
O8_2 Zn2_2 1_555 1_555
O10_3 Zn1_2 1_555 1_555
C1_3 C2_3 1_555 1_555
C2_3 H1_3 1_555 1_555
C6_3 C1_3 1_555 1_555
H4_3 C6_3 1_555 1_555
C8_3 C1_3 1_555 1_555
O11 C8_3 1_555 1_555
O12_2 C8_3 1_555 1_555
C9_4 C10_4 1_555 1_555
C10_4 C11_4 1_555 1_555
C13_4 H5_4 1_555 1_555
N1_4 C10_4 1_555 1_555
N3_2 C11_4 1_555 1_555
O13_2 C9_4 1_555 1_555
O14_2 C9_4 1_555 1_555
O10_4 H8_4 1_555 1_555
H9_4 O10_4 1_555 1_555
Zn2_2 N1_4 1_555 1_555
C13_4 N1_4 1_555 1_555
C13_4 N3_2 1_555 1_555
O14_2 Zn2_2 1_555 1_555
O10_4 Zn2_2 1_555 1_555
C1_4 C2_4 1_555 1_555
C2_4 H1_4 1_555 1_555
C3_3 C2_4 1_555 1_555
H2_3 C3_3 1_555 1_555
C4_4 C3_3 1_555 1_555
H3_4 C4_4 1_555 1_555
C5_4 C4_4 1_555 1_555
C6_4 C1_4 1_555 1_555
H4_4 C6_4 1_555 1_555
C7_4 C5_4 1_555 1_555
C8_4 C1_4 1_555 1_555
C12_4 O7_4 1_555 1_555
Nd3 O1_4 1_555 1_555
O1_4 C7_4 1_555 1_555
O2_4 C7_4 1_555 1_555
O11_2 C8_4 1_555 1_555
O12 C8_4 1_555 1_555
O7_4 Nd3 1_555 1_555
O15_2 C12_4 1_555 1_555
C5_4 C6_4 1_555 1_555
Nd3 O2_4 1_555 1_555
H7_4 O9_4 1_555 1_555
H2_4 C3_4 1_555 1_555

#END
