
###############################################################################
#
# This file contains modified crystal structure data generated from the
# MOF subset of the Cambridge Structural Database (CSD) v543 
# hosted by the Cambridge Crystallographic Data Centre (CCDC).
#
# This work is licensed under the Creative Commons
# Attribution-NonCommercial-ShareAlike 4.0 International License.
# To view a copy of this license, visit
# http://creativecommons.org/licenses/by-nc-sa/4.0/
# or send a letter to
# Creative Commons, PO Box 1866, Mountain View, CA 94042, USA.
#
# CIF created using the CSD Python API on 29 September 2022
# The structure has been converted into the P1 space group
# The structure has a 3D framework
# The original CSD entry UZAWUQ is in the monoclinic crystal system
# The framework has been calculated to contain at least 10.0% void space
# The void calculation uses a probe of radius 1.32A, grid spacing 0.4
#
###############################################################################

data_UZAWUQ
_chemical_formula_moiety         '(C144 H81 Co4 N24 O16 S8)n'
_symmetry_cell_setting           triclinic
_symmetry_space_group_name_H-M   'P 1'
_symmetry_Int_Tables_number      1
_space_group_name_Hall           'P 1'
loop_
_symmetry_equiv_pos_site_id
_symmetry_equiv_pos_as_xyz
1 x,y,z
_cell_length_a                   18.1910(3)
_cell_length_b                   15.7642(2)
_cell_length_c                   15.6304(3)
_cell_angle_alpha                90
_cell_angle_beta                 112.709(2)
_cell_angle_gamma                90
_cell_volume                     4134.8
loop_
_atom_site_label
_atom_site_type_symbol
_atom_site_fract_x
_atom_site_fract_y
_atom_site_fract_z
H9 H 0.040914 0.037202 0.321582
H17 H 0.039133 0.181717 0.331195
H3 H 0.035589 0.638581 0.340889
H7 H 0.034371 0.492347 0.346767
Co7 Co 0.06992(4) 0.30422(4) 0.10004(5)
O10 O 0.0470(2) 0.3396(2) 0.3365(3)
S1 S 0.42035(8) 0.22983(12) 0.83538(10)
S4 S 0.82967(10) 0.83608(9) 0.98565(11)
O2 O 0.1019(2) 0.3017(2) 0.2371(2)
N2 N 0.0677(3) 0.1696(2) 0.1039(3)
O8 O 0.2089(3) 0.2933(3) 0.1337(3)
C1 C 0.1870(3) 0.3299(3) 0.3920(4)
C4 C 0.1058(3) 0.3245(3) 0.3147(3)
C8 C 0.2546(3) 0.3107(3) 0.3734(4)
H5 H 0.249703 0.297157 0.313533
C10 C 0.1955(3) 0.3491(3) 0.4816(4)
H6 H 0.150689 0.363123 0.493479
N8 N 0.5110(3) 0.2531(3) 0.8525(3)
C14 C 0.1884(3) 0.3132(3) 0.0506(4)
C19 C 0.3376(3) 0.3285(3) 0.5368(4)
C24 C 0.6607(3) 0.3152(3) 0.8278(4)
C25 C 0.0075(3) 0.1222(3) 0.0473(4)
C26 C 0.3292(3) 0.3120(3) 0.4460(4)
H13 H 0.374426 0.301691 0.433476
C30 C 0.3859(3) 0.3407(3) 0.0216(4)
H14 H 0.436153 0.316068 0.041177
C31 C 0.0087(3) 0.0332(3) 0.0511(4)
C33 C 0.1340(3) 0.0410(3) 0.1749(4)
H16 H 0.177911 0.015194 0.220015
C35 C 0.5093(3) 0.2883(3) 0.7742(4)
C37 C 0.7542(3) 0.3247(3) 0.9869(4)
C38 C 0.1302(3) 0.1291(3) 0.1669(4)
H19 H 0.172602 0.161143 0.206618
C39 C 0.2519(3) 0.3429(3) 0.0180(4)
C40 C 0.6763(3) 0.3236(3) 0.9225(4)
H20 H 0.634364 0.328506 0.942183
C44 C 0.5779(3) 0.3166(3) 0.7568(4)
C45 C 0.5109(3) 0.4510(3) 0.0004(4)
H24 H 0.523921 0.428748 0.059578
C46 C 0.2692(3) 0.3479(3) 0.5536(4)
H25 H 0.273481 0.359966 0.613636
N12 N 0.3739(3) 0.2610(4) 0.7293(4)
H26 H 0.623608 0.486944 0.022845
C48 C 0.5627(3) 0.3487(4) 0.6701(4)
H27 H 0.605008 0.369484 0.656948
C53 C 0.4836(3) 0.3514(3) 0.5985(4)
H29 H 0.477332 0.372475 0.540473
C54 C 0.4175(3) 0.3243(3) 0.6120(4)
C57 C 0.8177(3) 0.3172(3) 0.9597(4)
C60 C 0.7250(3) 0.3064(3) 0.7998(4)
H31 H 0.715395 0.298725 0.737426
C62 C 0.4310(3) 0.2936(3) 0.7024(4)
C64 C 0.3270(3) 0.3060(3) 0.0497(4)
H33 H 0.338501 0.259207 0.088886
C68 C 0.8026(3) 0.3091(3) 0.8646(4)
H36 H 0.844873 0.305566 0.845364
N14 N 0.0735(2) 0.4402(3) 0.1066(3)
S3 S 0.18074(10) 0.80689(8) 0.35948(10)
C2 C 0.0393(3) 0.8492(3) 0.0407(4)
C3 C 0.1391(3) 0.5692(3) 0.1804(3)
H2 H 0.181963 0.595141 0.226927
N4 N 0.1526(3) 0.7287(3) 0.2895(3)
C6 C 0.0411(3) 0.7583(3) 0.0417(4)
C9 C 0.0781(3) 0.6167(3) 0.1187(3)
C12 C 0.1349(3) 0.4814(3) 0.1713(3)
H8 H 0.176797 0.449317 0.211867
C17 C 0.0779(3) 0.7121(3) 0.1203(3)
N9 N 0.1488(3) 0.8854(3) 0.2888(3)
C20 C 0.1162(3) 0.7595(3) 0.2048(4)
C34 C 0.0743(3) 0.8968(3) 0.1191(4)
C41 C 0.0149(3) 0.5769(3) 0.0523(4)
C51 C 0.1135(3) 0.8522(3) 0.2038(4)
C55 C 0.0716(3) 0.9915(3) 0.1149(4)
C59 C 0.0153(3) 0.4878(3) 0.0469(3)
N3 N 0.9289(3) 0.2024(3) 0.2440(3)
C21 C 0.9947(3) 0.0666(3) 0.2866(4)
C36 C 0.9932(3) 0.1543(3) 0.2921(4)
C50 C 0.8639(3) 0.1581(3) 0.1865(4)
H28 H 0.818678 0.188876 0.151287
C56 C 0.9275(3) 0.0220(3) 0.2288(4)
C67 C 0.8609(4) 0.0725(3) 0.1773(4)
H35 H 0.814601 0.046745 0.136719
Co4 Co 0.93128(4) 0.33688(4) 0.24585(5)
O1 O 0.95614(19) 0.30308(19) 0.0003(3)
N1 N 0.9324(3) 0.4740(2) 0.2394(3)
O7 O 0.9151(2) 0.3349(2) 0.1112(3)
C5 C 0.9939(3) 0.6084(3) 0.2976(4)
C7 C 0.9324(3) 0.6507(3) 0.2291(4)
N6 N 0.8539(3) 0.9147(3) 0.0549(4)
C11 C 0.9927(3) 0.5204(3) 0.3009(4)
C13 C 0.9324(3) 0.7449(3) 0.2268(4)
C15 C 0.9274(3) 0.9291(3) 0.2259(4)
C18 C 0.9016(3) 0.3178(3) 0.0287(3)
C22 C 0.8736(3) 0.5152(3) 0.1744(4)
H10 H 0.832497 0.483746 0.131665
N10 N 0.8618(3) 0.7575(3) 0.0557(3)
C29 C 0.8912(3) 0.8835(3) 0.1420(4)
H18 H 0.763920 0.330596 0.049503
C42 C 0.9665(3) 0.8829(3) 0.3035(4)
H22 H 0.993480 0.911795 0.358655
C49 C 0.8951(3) 0.7915(3) 0.1412(4)
C61 C 0.8704(3) 0.6034(3) 0.1671(4)
H32 H 0.827396 0.630038 0.121515
C71 C 0.9683(3) 0.7935(3) 0.3051(4)
H39 H 0.994896 0.766194 0.361417
O11 O 0.8045(2) 0.3467(2) 0.2117(3)
O12 O 0.8875(2) 0.3476(2) 0.3584(2)
H12 H 0.963393 0.149118 0.003870
H15 H 0.966190 0.002534 0.009679
H3_2 H 0.035589 0.361419 0.840889
H7_2 H 0.034371 0.507653 0.846767
Co7_2 Co 0.06992(4) 0.69578(4) 0.60004(5)
O10_2 O 0.0470(2) 0.6604(2) 0.8365(3)
S3_2 S 0.18074(10) 0.19311(8) 0.85948(10)
C2_2 C 0.0393(3) 0.1508(3) 0.5407(4)
H1 H 0.013278 0.123182 0.484437
C3_2 C 0.1391(3) 0.4308(3) 0.6804(3)
H2_2 H 0.181963 0.404859 0.726927
N4_2 N 0.1526(3) 0.2713(3) 0.7895(3)
N5 N 0.0735(2) 0.5598(3) 0.6066(3)
C6_2 C 0.0411(3) 0.2417(3) 0.5417(4)
H4 H 0.015882 0.270538 0.486016
C9_2 C 0.0781(3) 0.3833(3) 0.6187(3)
C12_2 C 0.1349(3) 0.5186(3) 0.6713(3)
H8_2 H 0.176797 0.550683 0.711867
C17_2 C 0.0779(3) 0.2879(3) 0.6203(3)
N9_2 N 0.1488(3) 0.1146(3) 0.7888(3)
C20_2 C 0.1162(3) 0.2405(3) 0.7048(4)
C34_2 C 0.0743(3) 0.1032(3) 0.6191(4)
C41_2 C 0.0149(3) 0.4231(3) 0.5523(4)
C51_2 C 0.1135(3) 0.1478(3) 0.7038(4)
C55_2 C 0.0716(3) 0.0085(3) 0.6149(4)
C59_2 C 0.0153(3) 0.5122(3) 0.5469(3)
S2 S 0.35879(9) 0.46862(11) 0.19353(11)
O2_2 O 0.1019(2) 0.6983(2) 0.7371(2)
O4 O 0.1174(2) 0.6842(2) 0.4971(3)
N2_2 N 0.0677(3) 0.8304(2) 0.6039(3)
O8_2 O 0.2089(3) 0.7067(3) 0.6337(3)
C1_2 C 0.1870(3) 0.6701(3) 0.8920(4)
C4_2 C 0.1058(3) 0.6755(3) 0.8147(3)
C8_2 C 0.2546(3) 0.6893(3) 0.8734(4)
H5_2 H 0.249703 0.702843 0.813533
C10_2 C 0.1955(3) 0.6509(3) 0.9816(4)
H6_2 H 0.150689 0.636877 0.993479
N7 N 0.3446(3) 0.5130(3) 0.2792(3)
C14_2 C 0.1884(3) 0.6868(3) 0.5506(4)
C16 C 0.4325(3) 0.5511(3) 0.4395(4)
C23 C 0.2932(3) 0.5528(3) 0.4334(4)
H11 H 0.281352 0.505621 0.394693
C25_2 C 0.0075(3) 0.8778(3) 0.5473(4)
C26_2 C 0.3292(3) 0.6880(3) 0.9460(4)
H13_2 H 0.374426 0.698309 0.933476
C27 C 0.3683(3) 0.5884(3) 0.4646(4)
C28 C 0.7522(3) 0.3913(3) 0.3210(4)
N11 N 0.4529(3) 0.4529(3) 0.2376(4)
C30_2 C 0.3859(3) 0.6593(3) 0.5216(4)
H14_2 H 0.436153 0.683932 0.541177
C31_2 C 0.0087(3) 0.9668(3) 0.5511(4)
C32 C 0.4168(3) 0.5170(3) 0.3493(4)
C33_2 C 0.1340(3) 0.9590(3) 0.6749(4)
H16_2 H 0.177911 0.984806 0.720015
C38_2 C 0.1302(3) 0.8709(3) 0.6669(4)
H19_2 H 0.172602 0.838857 0.706618
C39_2 C 0.2519(3) 0.6571(3) 0.5180(4)
C43 C 0.2356(3) 0.5879(3) 0.4600(4)
H23 H 0.184855 0.564276 0.438294
C45_2 C 0.5109(3) 0.5490(3) 0.5004(4)
H24_2 H 0.523921 0.571252 0.559578
C47 C 0.5724(3) 0.5145(3) 0.4771(4)
H26_2 H 0.623608 0.513056 0.522845
C52 C 0.4789(3) 0.4826(3) 0.3248(4)
C58 C 0.8177(3) 0.3580(4) 0.2956(4)
C63 C 0.5613(3) 0.4831(4) 0.3911(4)
C64_2 C 0.3270(3) 0.6940(3) 0.5497(4)
H33_2 H 0.338501 0.740793 0.588886
C65 C 0.6262(3) 0.4498(4) 0.3668(4)
C66 C 0.6232(3) 0.4594(4) 0.2773(4)
H34 H 0.579869 0.486592 0.232694
C69 C 0.6940(3) 0.4177(4) 0.4327(4)
H37 H 0.697678 0.413836 0.493599
C70 C 0.6846(3) 0.4286(4) 0.2540(4)
H38 H 0.680762 0.432846 0.193062
C72 C 0.7580(3) 0.3903(4) 0.4116(4)
H40 H 0.804535 0.371397 0.458606
S2_2 S 0.35879(9) 0.53138(11) 0.69353(11)
O4_2 O 0.1174(2) 0.3158(2) 0.9971(3)
O5 O 0.8045(2) 0.6533(2) 0.7117(3)
O6 O 0.8875(2) 0.6524(2) 0.8584(2)
N7_2 N 0.3446(3) 0.4870(3) 0.7792(3)
C16_2 C 0.4325(3) 0.4489(3) 0.9395(4)
C23_2 C 0.2932(3) 0.4472(3) 0.9334(4)
H11_2 H 0.281352 0.494379 0.894693
C27_2 C 0.3683(3) 0.4116(3) 0.9646(4)
C28_2 C 0.7522(3) 0.6087(3) 0.8210(4)
N11_2 N 0.4529(3) 0.5471(3) 0.7376(4)
C32_2 C 0.4168(3) 0.4830(3) 0.8493(4)
C43_2 C 0.2356(3) 0.4121(3) 0.9600(4)
H23_2 H 0.184855 0.435724 0.938294
C47_2 C 0.5724(3) 0.4855(3) 0.9771(4)
C52_2 C 0.4789(3) 0.5174(3) 0.8248(4)
C58_2 C 0.8177(3) 0.6420(4) 0.7956(4)
C63_2 C 0.5613(3) 0.5169(4) 0.8911(4)
C65_2 C 0.6262(3) 0.5502(4) 0.8668(4)
C66_2 C 0.6232(3) 0.5406(4) 0.7773(4)
H34_2 H 0.579869 0.513408 0.732694
C69_2 C 0.6940(3) 0.5823(4) 0.9327(4)
H37_2 H 0.697678 0.586164 0.993599
C70_2 C 0.6846(3) 0.5714(4) 0.7540(4)
H38_2 H 0.680762 0.567154 0.693062
C72_2 C 0.7580(3) 0.6097(4) 0.9116(4)
H40_2 H 0.804535 0.628603 0.958606
Co5 Co 0.93128(4) 0.66312(4) 0.74585(5)
S1_2 S 0.42035(8) 0.77017(12) 0.33538(10)
S4_2 S 0.82967(10) 0.16392(9) 0.48565(11)
O1_2 O 0.95614(19) 0.69692(19) 0.5003(3)
N1_2 N 0.9324(3) 0.5260(2) 0.7394(3)
O7_2 O 0.9151(2) 0.6651(2) 0.6112(3)
C5_2 C 0.9939(3) 0.3916(3) 0.7976(4)
C7_2 C 0.9324(3) 0.3493(3) 0.7291(4)
N6_2 N 0.8539(3) 0.0853(3) 0.5549(4)
C11_2 C 0.9927(3) 0.4796(3) 0.8009(4)
C13_2 C 0.9324(3) 0.2551(3) 0.7268(4)
N8_2 N 0.5110(3) 0.7469(3) 0.3525(3)
C15_2 C 0.9274(3) 0.0709(3) 0.7259(4)
C18_2 C 0.9016(3) 0.6822(3) 0.5287(3)
C19_2 C 0.3376(3) 0.6715(3) 0.0368(4)
C22_2 C 0.8736(3) 0.4848(3) 0.6744(4)
H10_2 H 0.832497 0.516254 0.631665
C24_2 C 0.6607(3) 0.6848(3) 0.3278(4)
N10_2 N 0.8618(3) 0.2425(3) 0.5557(3)
C29_2 C 0.8912(3) 0.1165(3) 0.6420(4)
C35_2 C 0.5093(3) 0.7117(3) 0.2742(4)
C37_2 C 0.7542(3) 0.6753(3) 0.4869(4)
H18_2 H 0.763920 0.669404 0.549503
C40_2 C 0.6763(3) 0.6764(3) 0.4225(4)
H20_2 H 0.634364 0.671494 0.442183
C42_2 C 0.9665(3) 0.1171(3) 0.8035(4)
H22_2 H 0.993480 0.088205 0.858655
C44_2 C 0.5779(3) 0.6834(3) 0.2568(4)
C46_2 C 0.2692(3) 0.6521(3) 0.0536(4)
H25_2 H 0.273481 0.640034 0.113636
N12_2 N 0.3739(3) 0.7390(4) 0.2293(4)
C48_2 C 0.5627(3) 0.6513(4) 0.1701(4)
H27_2 H 0.605008 0.630516 0.156948
C49_2 C 0.8951(3) 0.2085(3) 0.6412(4)
C53_2 C 0.4836(3) 0.6486(3) 0.0985(4)
H29_2 H 0.477332 0.627525 0.040473
C54_2 C 0.4175(3) 0.6757(3) 0.1120(4)
C57_2 C 0.8177(3) 0.6828(3) 0.4597(4)
C60_2 C 0.7250(3) 0.6936(3) 0.2998(4)
H31_2 H 0.715395 0.701275 0.237426
C61_2 C 0.8704(3) 0.3966(3) 0.6671(4)
H32_2 H 0.827396 0.369962 0.621515
C62_2 C 0.4310(3) 0.7064(3) 0.2024(4)
C68_2 C 0.8026(3) 0.6909(3) 0.3646(4)
H36_2 H 0.844873 0.694434 0.345364
C71_2 C 0.9683(3) 0.2065(3) 0.8051(4)
H39_2 H 0.994896 0.233806 0.861417
N13 N 0.9289(3) 0.7976(3) 0.7440(3)
C21_2 C 0.9947(3) 0.9334(3) 0.7866(4)
C36_2 C 0.9932(3) 0.8457(3) 0.7921(4)
C50_2 C 0.8639(3) 0.8419(3) 0.6865(4)
H28_2 H 0.818678 0.811124 0.651287
C56_2 C 0.9275(3) 0.9780(3) 0.7288(4)
C67_2 C 0.8609(4) 0.9275(3) 0.6773(4)
H35_2 H 0.814601 0.953255 0.636719
H12_2 H 0.963393 0.850882 0.503870
H15_2 H 0.966190 0.997466 0.509679
H1_2 H 0.013278 0.876818 0.984437
H4_2 H 0.015882 0.729462 0.986016
H21 H 0.972535 0.608087 0.011408
H30 H 0.973508 0.460889 0.000061
H30_2 H 0.973508 0.460889 1.000061
H9_2 H 0.040914 0.962798 0.821582
H17_2 H 0.039133 0.818283 0.831195
H21_2 H 0.972535 0.391913 0.511408
H30_3 H 0.973508 0.539111 0.500061
loop_
_geom_bond_atom_site_label_1
_geom_bond_atom_site_label_2
_geom_bond_site_symmetry_1
_geom_bond_site_symmetry_2
Co7 O2 1_555 1_555
S1 N8 1_555 1_555
O2 C4 1_555 1_555
O10 C4 1_555 1_555
N2 Co7 1_555 1_555
O8 Co7 1_555 1_555
C1 C4 1_555 1_555
C8 C1 1_555 1_555
H5 C8 1_555 1_555
C10 C1 1_555 1_555
H6 C10 1_555 1_555
N8 C35 1_555 1_555
C19 C26 1_555 1_555
C24 C40 1_555 1_555
C25 N2 1_555 1_555
C26 C8 1_555 1_555
H13 C26 1_555 1_555
H14 C30 1_555 1_555
C31 C25 1_555 1_555
C33 H16 1_555 1_555
C35 C44 1_555 1_555
C38 N2 1_555 1_555
H19 C38 1_555 1_555
C39 C14 1_555 1_555
C40 C37 1_555 1_555
H20 C40 1_555 1_555
C44 C24 1_555 1_555
H24 C45 1_555 1_555
C46 C10 1_555 1_555
H25 C46 1_555 1_555
N12 S1 1_555 1_555
C48 C44 1_555 1_555
H27 C48 1_555 1_555
C53 C48 1_555 1_555
H29 C53 1_555 1_555
C54 C19 1_555 1_555
C60 C24 1_555 1_555
H31 C60 1_555 1_555
C62 C35 1_555 1_555
C64 C30 1_555 1_555
H33 C64 1_555 1_555
C68 C57 1_555 1_555
H36 C68 1_555 1_555
N14 Co7 1_555 1_555
O8 C14 1_555 1_555
C19 C46 1_555 1_555
C33 C38 1_555 1_555
C37 C57 1_555 1_555
C39 C64 1_555 1_555
N12 C62 1_555 1_555
C53 C54 1_555 1_555
C54 C62 1_555 1_555
C60 C68 1_555 1_555
S3 N4 1_555 1_555
C3 H2 1_555 1_555
N4 C20 1_555 1_555
N14 C12 1_555 1_555
C6 C2 1_555 1_555
C9 C3 1_555 1_555
C12 C3 1_555 1_555
H8 C12 1_555 1_555
C17 C6 1_555 1_555
N9 S3 1_555 1_555
C20 C17 1_555 1_555
C34 C2 1_555 1_555
C41 C9 1_555 1_555
C51 N9 1_555 1_555
C59 N14 1_555 1_555
C9 C17 1_555 1_555
C20 C51 1_555 1_555
C34 C51 1_555 1_555
C34 C55 1_555 1_555
C41 C59 1_555 1_555
N3 C36 1_555 1_555
C36 C21 1_555 1_555
C50 N3 1_555 1_555
H28 C50 1_555 1_555
C67 C50 1_555 1_555
H35 C67 1_555 1_555
Co4 N3 1_555 1_555
C21 C56 1_555 1_555
C56 C67 1_555 1_555
Co4 N1 1_555 1_555
O1 C18 1_555 1_555
N1 C11 1_555 1_555
O7 Co4 1_555 1_555
C7 C5 1_555 1_555
N6 C29 1_555 1_555
C11 C5 1_555 1_555
C13 C7 1_555 1_555
C15 C29 1_555 1_555
C18 O7 1_555 1_555
C22 N1 1_555 1_555
H10 C22 1_555 1_555
C29 C49 1_555 1_555
C42 C15 1_555 1_555
H22 C42 1_555 1_555
C49 C13 1_555 1_555
C61 C7 1_555 1_555
H32 C61 1_555 1_555
C71 C13 1_555 1_555
H39 C71 1_555 1_555
O11 Co4 1_555 1_555
O12 Co4 1_555 1_555
C22 C61 1_555 1_555
N10 C49 1_555 1_555
C42 C71 1_555 1_555
S3_2 N4_2 1_555 1_555
C2_2 H1 1_555 1_555
C3_2 H2_2 1_555 1_555
N4_2 C20_2 1_555 1_555
N5 C12_2 1_555 1_555
C6_2 C2_2 1_555 1_555
H4 C6_2 1_555 1_555
C9_2 C3_2 1_555 1_555
C12_2 C3_2 1_555 1_555
H8_2 C12_2 1_555 1_555
C17_2 C6_2 1_555 1_555
N9_2 S3_2 1_555 1_555
C20_2 C17_2 1_555 1_555
C34_2 C2_2 1_555 1_555
C41_2 C9_2 1_555 1_555
C51_2 N9_2 1_555 1_555
C59_2 N5 1_555 1_555
Co7_2 N5 1_555 1_555
C9_2 C17_2 1_555 1_555
C20_2 C51_2 1_555 1_555
C34_2 C51_2 1_555 1_555
C34_2 C55_2 1_555 1_555
C41_2 C59_2 1_555 1_555
Co7_2 O2_2 1_555 1_555
S2 N7 1_555 1_555
O2_2 C4_2 1_555 1_555
O10_2 C4_2 1_555 1_555
O4 Co7_2 1_555 1_555
O11 C58 1_555 1_555
O12 C58 1_555 1_555
N2_2 Co7_2 1_555 1_555
O8_2 Co7_2 1_555 1_555
C1_2 C4_2 1_555 1_555
C8_2 C1_2 1_555 1_555
H5_2 C8_2 1_555 1_555
C10_2 C1_2 1_555 1_555
H6_2 C10_2 1_555 1_555
N7 C32 1_555 1_555
C14_2 O4 1_555 1_555
C16 C27 1_555 1_555
C23 H11 1_555 1_555
C25_2 N2_2 1_555 1_555
C26_2 C8_2 1_555 1_555
H13_2 C26_2 1_555 1_555
C27 C23 1_555 1_555
C28 C58 1_555 1_555
N11 S2 1_555 1_555
C30_2 C27 1_555 1_555
H14_2 C30_2 1_555 1_555
C31_2 C25_2 1_555 1_555
C32 C16 1_555 1_555
C33_2 H16_2 1_555 1_555
C38_2 N2_2 1_555 1_555
H19_2 C38_2 1_555 1_555
C39_2 C14_2 1_555 1_555
C43 C23 1_555 1_555
H23 C43 1_555 1_555
C45_2 C16 1_555 1_555
H24_2 C45_2 1_555 1_555
C47 C45_2 1_555 1_555
H26_2 C47 1_555 1_555
C52 N11 1_555 1_555
C63 C47 1_555 1_555
C64_2 C30_2 1_555 1_555
H33_2 C64_2 1_555 1_555
C65 C63 1_555 1_555
C66 C65 1_555 1_555
H34 C66 1_555 1_555
C69 C65 1_555 1_555
H37 C69 1_555 1_555
C70 C28 1_555 1_555
H38 C70 1_555 1_555
C72 C28 1_555 1_555
H40 C72 1_555 1_555
O8_2 C14_2 1_555 1_555
C32 C52 1_555 1_555
C33_2 C38_2 1_555 1_555
C39_2 C43 1_555 1_555
C39_2 C64_2 1_555 1_555
C52 C63 1_555 1_555
C66 C70 1_555 1_555
C69 C72 1_555 1_555
S2_2 N7_2 1_555 1_555
O5 C58_2 1_555 1_555
O6 C58_2 1_555 1_555
N7_2 C32_2 1_555 1_555
C16_2 C27_2 1_555 1_555
C23_2 H11_2 1_555 1_555
C27_2 C23_2 1_555 1_555
C28_2 C58_2 1_555 1_555
N11_2 S2_2 1_555 1_555
C32_2 C16_2 1_555 1_555
C43_2 C23_2 1_555 1_555
H23_2 C43_2 1_555 1_555
C52_2 N11_2 1_555 1_555
C63_2 C47_2 1_555 1_555
C65_2 C63_2 1_555 1_555
C66_2 C65_2 1_555 1_555
H34_2 C66_2 1_555 1_555
C69_2 C65_2 1_555 1_555
H37_2 C69_2 1_555 1_555
C70_2 C28_2 1_555 1_555
H38_2 C70_2 1_555 1_555
C72_2 C28_2 1_555 1_555
H40_2 C72_2 1_555 1_555
Co5 O5 1_555 1_555
O6 Co5 1_555 1_555
C32_2 C52_2 1_555 1_555
C52_2 C63_2 1_555 1_555
C66_2 C70_2 1_555 1_555
C69_2 C72_2 1_555 1_555
Co5 N1_2 1_555 1_555
S1_2 N8_2 1_555 1_555
S4_2 N6_2 1_555 1_555
O1_2 C18_2 1_555 1_555
N1_2 C11_2 1_555 1_555
O7_2 Co5 1_555 1_555
C7_2 C5_2 1_555 1_555
N6_2 C29_2 1_555 1_555
C11_2 C5_2 1_555 1_555
C13_2 C7_2 1_555 1_555
N8_2 C35_2 1_555 1_555
C15_2 C29_2 1_555 1_555
C18_2 O7_2 1_555 1_555
C22_2 N1_2 1_555 1_555
H10_2 C22_2 1_555 1_555
C24_2 C40_2 1_555 1_555
N10_2 S4_2 1_555 1_555
C29_2 C49_2 1_555 1_555
C35_2 C44_2 1_555 1_555
C37_2 H18_2 1_555 1_555
C40_2 C37_2 1_555 1_555
H20_2 C40_2 1_555 1_555
C42_2 C15_2 1_555 1_555
H22_2 C42_2 1_555 1_555
C44_2 C24_2 1_555 1_555
H25_2 C46_2 1_555 1_555
N12_2 S1_2 1_555 1_555
C48_2 C44_2 1_555 1_555
H27_2 C48_2 1_555 1_555
C49_2 C13_2 1_555 1_555
C53_2 C48_2 1_555 1_555
H29_2 C53_2 1_555 1_555
C54_2 C19_2 1_555 1_555
C57_2 C18_2 1_555 1_555
C60_2 C24_2 1_555 1_555
H31_2 C60_2 1_555 1_555
C61_2 C7_2 1_555 1_555
H32_2 C61_2 1_555 1_555
C62_2 C35_2 1_555 1_555
C68_2 C57_2 1_555 1_555
H36_2 C68_2 1_555 1_555
C71_2 C13_2 1_555 1_555
H39_2 C71_2 1_555 1_555
N13 Co5 1_555 1_555
C19_2 C46_2 1_555 1_555
C22_2 C61_2 1_555 1_555
N10_2 C49_2 1_555 1_555
C37_2 C57_2 1_555 1_555
C42_2 C71_2 1_555 1_555
N12_2 C62_2 1_555 1_555
C53_2 C54_2 1_555 1_555
C54_2 C62_2 1_555 1_555
C60_2 C68_2 1_555 1_555
N13 C36_2 1_555 1_555
C36_2 C21_2 1_555 1_555
C50_2 N13 1_555 1_555
H28_2 C50_2 1_555 1_555
C67_2 C50_2 1_555 1_555
H35_2 C67_2 1_555 1_555
C21_2 C56_2 1_555 1_555
C56_2 C67_2 1_555 1_555

#END
