
###############################################################################
#
# This file contains modified crystal structure data generated from the
# MOF subset of the Cambridge Structural Database (CSD) v543 
# hosted by the Cambridge Crystallographic Data Centre (CCDC).
#
# This work is licensed under the Creative Commons
# Attribution-NonCommercial-ShareAlike 4.0 International License.
# To view a copy of this license, visit
# http://creativecommons.org/licenses/by-nc-sa/4.0/
# or send a letter to
# Creative Commons, PO Box 1866, Mountain View, CA 94042, USA.
#
# CIF created using the CSD Python API on 29 September 2022
# The structure has been converted into the P1 space group
# The structure has a 3D framework
# The original CSD entry UZAXAX is in the monoclinic crystal system
# The framework has been calculated to contain at least 10.0% void space
# The void calculation uses a probe of radius 1.32A, grid spacing 0.4
#
###############################################################################

data_UZAXAX
_chemical_formula_moiety         '(C144 H80 Co4 N22 O16 S8)n'
_symmetry_cell_setting           triclinic
_symmetry_space_group_name_H-M   'P 1'
_symmetry_Int_Tables_number      1
_space_group_name_Hall           'P 1'
loop_
_symmetry_equiv_pos_site_id
_symmetry_equiv_pos_as_xyz
1 x,y,z
_cell_length_a                   18.1410(5)
_cell_length_b                   15.7750(3)
_cell_length_c                   15.6574(5)
_cell_angle_alpha                90
_cell_angle_beta                 112.669(4)
_cell_angle_gamma                90
_cell_volume                     4134.59
loop_
_atom_site_label
_atom_site_type_symbol
_atom_site_fract_x
_atom_site_fract_y
_atom_site_fract_z
H15 H 0.038317 0.648178 0.326661
H16 H 0.029961 0.105706 0.322215
H23 H 0.038913 0.502292 0.317080
Co4 Co 0.07068(6) 0.82141(5) 0.08616(6)
O9 O 0.0448(3) 0.8038(3) 0.3327(4)
S1 S 0.81926(16) 0.30728(11) 0.97542(15)
S2 S 0.17284(15) 0.31872(11) 0.35153(14)
S3 S 0.63964(13) 0.98379(16) 0.14531(15)
S4 S 0.58383(15) 0.7372(2) 0.49433(18)
O3 O 0.1968(3) 0.8197(3) 0.1163(4)
O5 O 0.9551(3) 0.8265(3) 0.9976(4)
N1 N 0.0679(4) 0.6852(3) 0.0908(5)
C1 C 0.8147(4) 0.8233(4) 0.9444(6)
O8 O 0.0882(3) 0.8217(3) 0.2202(4)
N5 N 0.1433(4) 0.3997(4) 0.2823(5)
C3 C 0.1342(5) 0.0863(4) 0.1683(5)
H2 H 0.176710 0.111982 0.215366
C4 C 0.0716(4) 0.2297(4) 0.1100(5)
C5 C 0.8061(4) 0.8414(5) 0.8524(5)
H3 H 0.851396 0.852763 0.840282
C7 C 0.0041(4) 0.5509(4) 0.0478(5)
C12 C 0.1308(4) 0.0001(4) 0.1593(5)
C13 C 0.0703(5) 0.4135(4) 0.1118(5)
C14 C 0.0730(4) 0.1353(4) 0.1059(5)
C15 C 0.0106(4) 0.0930(4) 0.0364(5)
C16 C 0.1011(4) 0.8138(4) 0.3040(5)
C17 C 0.2481(4) 0.8213(4) 0.3440(5)
H8 H 0.238262 0.821779 0.281155
C18 C 0.1076(4) 0.2756(4) 0.1951(5)
N8 N 0.5464(4) 0.9605(5) 0.0993(5)
C24 C 0.0059(4) 0.6388(4) 0.0399(5)
C25 C 0.2486(4) 0.8697(5) 0.0065(5)
C26 C 0.0707(5) 0.5077(4) 0.1090(5)
C27 C 0.1083(4) 0.3677(4) 0.1955(5)
C28 C 0.1324(5) 0.6442(4) 0.1525(5)
H12 H 0.176473 0.675979 0.188998
N9 N 0.1425(4) 0.2409(4) 0.2793(5)
C34 C 0.0128(4) 0.0068(4) 0.0332(5)
C35 C 0.1352(5) 0.5568(4) 0.1631(6)
H18 H 0.180217 0.531108 0.206508
C37 C 0.5199(5) 0.9821(5) 0.0093(6)
C39 C 0.4256(5) 0.8239(5) 0.5728(6)
C40 C 0.6715(5) 0.8114(5) 0.8877(6)
H19 H 0.625758 0.802032 0.899617
C41 C 0.7460(4) 0.8098(5) 0.9605(6)
C42 C 0.1820(4) 0.8389(5) 0.0340(5)
C44 C 0.3421(5) 0.8233(5) 0.5019(6)
C45 C 0.0357(5) 0.2760(4) 0.0324(5)
C46 C 0.6646(4) 0.8270(5) 0.7965(6)
C50 C 0.7344(4) 0.8427(5) 0.7825(5)
H25 H 0.731270 0.854485 0.723032
N11 N 0.6293(5) 0.7644(6) 0.6015(6)
C53 C 0.3243(5) 0.8233(5) 0.4071(6)
H27 H 0.366028 0.824598 0.386499
N12 N 0.4917(5) 0.7621(6) 0.4765(5)
C55 C 0.0347(5) 0.3676(4) 0.0337(5)
C56 C 0.5853(5) 0.8273(5) 0.7202(6)
C58 C 0.3267(5) 0.8503(6) 0.0603(6)
H30 H 0.337520 0.815286 0.111464
C61 C 0.1835(5) 0.8186(4) 0.3732(6)
C64 C 0.4430(5) 0.8551(5) 0.6609(6)
H34 H 0.401264 0.877818 0.674162
C67 C 0.5713(5) 0.7956(5) 0.6278(6)
C68 C 0.2759(5) 0.8198(5) 0.5287(6)
H37 H 0.285363 0.818832 0.591443
C69 C 0.4930(5) 0.7948(6) 0.5563(6)
C70 C 0.3896(5) 0.8813(5) 0.0403(6)
H38 H 0.441766 0.865104 0.076153
C71 C 0.5190(5) 0.8548(6) 0.7310(6)
H39 H 0.524418 0.874851 0.789014
C72 C 0.2006(5) 0.8177(5) 0.4675(6)
H40 H 0.159042 0.815710 0.488222
N13 N 0.0710(4) 0.9579(3) 0.0930(4)
H6 H 0.172257 0.968432 0.201272
H7 H 0.968578 0.123162 0.993327
H11 H 0.961618 0.665990 0.996892
H14 H 0.028481 0.958744 0.330287
N10 N 0.6531(4) 0.0221(5) 0.0558(5)
O6 O 0.7970(3) 0.1997(3) 0.7043(4)
O7 O 0.8867(3) 0.1790(3) 0.8446(4)
C10 C 0.8143(4) 0.1791(4) 0.7861(5)
C11 C 0.7504(4) 0.1503(5) 0.8164(5)
C29 C 0.7068(4) 0.0477(5) 0.9026(5)
H13 H 0.717247 0.000861 0.941451
C30 C 0.5819(4) 0.0178(5) 0.9866(6)
C38 C 0.6317(4) 0.0824(5) 0.8688(5)
C43 C 0.6144(4) 0.1508(5) 0.8053(5)
H21 H 0.563305 0.173898 0.780943
C54 C 0.5662(4) 0.0470(5) 0.8937(5)
C59 C 0.4892(4) 0.0387(5) 0.8307(6)
H31 H 0.477012 0.056644 0.770165
C62 C 0.6742(5) 0.1831(5) 0.7797(6)
H32 H 0.662685 0.227452 0.737408
C63 C 0.7673(4) 0.0813(5) 0.8798(5)
H33 H 0.818615 0.059033 0.905702
C65 C 0.4269(5) 0.0036(5) 0.8544(6)
H35 H 0.375633 0.000104 0.808755
Co7 Co 0.92938(6) 0.19673(6) 0.73522(7)
N4 N 0.9266(4) 0.0608(3) 0.7246(4)
C22 C 0.8663(4) 0.0196(4) 0.6593(5)
H10 H 0.825196 0.051205 0.616818
C31 C 0.9863(4) 0.0137(4) 0.7845(5)
S1_2 S 0.81926(16) 0.69272(11) 0.47542(15)
O1 O 0.8996(3) 0.2048(3) 0.5976(4)
O5_2 O 0.9551(3) 0.1735(3) 0.4976(4)
N2 N 0.9296(4) 0.3317(3) 0.7356(5)
C1_2 C 0.8147(4) 0.1767(4) 0.4444(6)
C2 C 0.9628(5) 0.6536(4) 0.7947(5)
H1 H 0.989224 0.626575 0.851148
N6 N 0.8482(4) 0.7719(4) 0.5439(5)
C5_2 C 0.8061(4) 0.1586(5) 0.3524(5)
H3_2 H 0.851396 0.147237 0.340282
C6 C 0.8949(4) 0.1851(4) 0.5189(5)
C8 C 0.9616(4) 0.7423(4) 0.7924(5)
H5 H 0.987978 0.771362 0.847470
C9 C 0.9237(4) 0.7892(4) 0.7129(5)
N7 N 0.8486(4) 0.6153(4) 0.5465(5)
C19 C 0.8864(4) 0.6497(4) 0.6321(5)
C20 C 0.8627(4) 0.9313(4) 0.6526(5)
H9 H 0.819221 0.905187 0.607147
C21 C 0.9233(4) 0.8831(4) 0.7133(5)
C23 C 0.9259(5) 0.6042(4) 0.7162(5)
C32 C 0.9929(5) 0.3791(4) 0.7861(5)
C33 C 0.9874(4) 0.9248(4) 0.7807(5)
C36 C 0.9272(5) 0.5097(4) 0.7214(5)
C39_2 C 0.4256(5) 0.1761(5) 0.0728(6)
C40_2 C 0.6715(5) 0.1886(5) 0.3877(6)
H19_2 H 0.625758 0.197968 0.399617
C41_2 C 0.7460(4) 0.1902(5) 0.4605(6)
H20 H 0.749414 0.200524 0.520374
C44_2 C 0.3421(5) 0.1767(5) 0.0019(6)
C46_2 C 0.6646(4) 0.1730(5) 0.2965(6)
C47 C 0.9937(5) 0.4675(4) 0.7807(5)
C48 C 0.8646(5) 0.3739(4) 0.6763(5)
H24 H 0.819790 0.342965 0.640044
C50_2 C 0.7344(4) 0.1573(5) 0.2825(5)
H25_2 H 0.731270 0.145515 0.223032
C52 C 0.8862(4) 0.7404(4) 0.6307(5)
N11_2 N 0.6293(5) 0.2356(6) 0.1015(6)
C56_2 C 0.5853(5) 0.1727(5) 0.2202(6)
C57 C 0.8630(5) 0.4612(4) 0.6683(5)
H29 H 0.817676 0.487559 0.626219
C64_2 C 0.4430(5) 0.1449(5) 0.1609(6)
H34_2 H 0.401264 0.122182 0.174162
C67_2 C 0.5713(5) 0.2044(5) 0.1278(6)
C68_2 C 0.2759(5) 0.1802(5) 0.0287(6)
H37_2 H 0.285363 0.181168 0.091443
C69_2 C 0.4930(5) 0.2052(6) 0.0563(6)
C71_2 C 0.5190(5) 0.1452(6) 0.2310(6)
H39_2 H 0.524418 0.125149 0.289014
H4 H 0.958413 0.479068 0.512161
H7_2 H 0.968578 0.876838 0.493327
H11_2 H 0.961618 0.334010 0.496892
Co2 Co 0.92938(6) 0.80327(6) 0.23522(7)
O1_2 O 0.8996(3) 0.7952(3) 0.0976(4)
N2_2 N 0.9296(4) 0.6683(3) 0.2356(5)
C2_2 C 0.9628(5) 0.3464(4) 0.2947(5)
H1_2 H 0.989224 0.373425 0.351148
N6_2 N 0.8482(4) 0.2281(4) 0.0439(5)
C6_2 C 0.8949(4) 0.8149(4) 0.0189(5)
C8_2 C 0.9616(4) 0.2577(4) 0.2924(5)
H5_2 H 0.987978 0.228638 0.347470
C9_2 C 0.9237(4) 0.2108(4) 0.2129(5)
N7_2 N 0.8486(4) 0.3847(4) 0.0465(5)
C19_2 C 0.8864(4) 0.3503(4) 0.1321(5)
C20_2 C 0.8627(4) 0.0687(4) 0.1526(5)
H9_2 H 0.819221 0.094813 0.107147
C21_2 C 0.9233(4) 0.1169(4) 0.2133(5)
C23_2 C 0.9259(5) 0.3958(4) 0.2162(5)
C32_2 C 0.9929(5) 0.6209(4) 0.2861(5)
C33_2 C 0.9874(4) 0.0752(4) 0.2807(5)
C36_2 C 0.9272(5) 0.4903(4) 0.2214(5)
H20_2 H 0.749414 0.799476 0.020374
C47_2 C 0.9937(5) 0.5325(4) 0.2807(5)
C48_2 C 0.8646(5) 0.6261(4) 0.1763(5)
H24_2 H 0.819790 0.657035 0.140044
C52_2 C 0.8862(4) 0.2596(4) 0.1307(5)
C57_2 C 0.8630(5) 0.5388(4) 0.1683(5)
H29_2 H 0.817676 0.512441 0.126219
O11 O 0.7970(3) 0.8003(3) 0.2043(4)
O12 O 0.8867(3) 0.8210(3) 0.3446(4)
N14 N 0.9266(4) 0.9392(3) 0.2246(4)
C22_2 C 0.8663(4) 0.9804(4) 0.1593(5)
H10_2 H 0.825196 0.948795 0.116818
C31_2 C 0.9863(4) 0.9863(4) 0.2845(5)
H4_2 H 0.958413 0.520932 0.012161
C10_2 C 0.8143(4) 0.8209(4) 0.2861(5)
C11_2 C 0.7504(4) 0.8497(5) 0.3164(5)
C29_2 C 0.7068(4) 0.9523(5) 0.4026(5)
H13_2 H 0.717247 0.999139 0.441451
C30_2 C 0.5819(4) 0.9822(5) 0.4866(6)
N10_2 N 0.6531(4) 0.9779(5) 0.5558(5)
C38_2 C 0.6317(4) 0.9176(5) 0.3688(5)
C43_2 C 0.6144(4) 0.8492(5) 0.3053(5)
H21_2 H 0.563305 0.826102 0.280943
C54_2 C 0.5662(4) 0.9530(5) 0.3937(5)
C59_2 C 0.4892(4) 0.9613(5) 0.3307(6)
H31_2 H 0.477012 0.943356 0.270165
C62_2 C 0.6742(5) 0.8169(5) 0.2797(6)
H32_2 H 0.662685 0.772548 0.237408
C63_2 C 0.7673(4) 0.9187(5) 0.3798(5)
H33_2 H 0.818615 0.940967 0.405702
C65_2 C 0.4269(5) 0.9964(5) 0.3544(6)
H35_2 H 0.375633 0.999896 0.308755
O4 O 0.1122(3) 0.8364(3) 0.9739(3)
H22 H 0.010733 0.248027 0.976318
C49 C 0.4397(5) 0.9745(5) 0.9426(6)
C51 C 0.2329(5) 0.9193(5) 0.9297(6)
H26 H 0.180354 0.930440 0.890530
H28 H 0.008439 0.396310 0.978284
C60 C 0.3745(4) 0.9370(5) 0.9661(5)
C66 C 0.2959(5) 0.9531(5) 0.9101(6)
H36 H 0.284582 0.987201 0.858180
H17 H 0.971205 0.979564 0.986429
H14_2 H 0.028481 0.041256 0.830287
H15_2 H 0.038317 0.351822 0.826661
H16_2 H 0.029961 0.894294 0.822215
H23_2 H 0.038913 0.497708 0.817080
Co4_2 Co 0.07068(6) 0.17859(5) 0.58616(6)
O9_2 O 0.0448(3) 0.1962(3) 0.8327(4)
N3 N 0.0710(4) 0.0421(3) 0.5930(4)
H6_2 H 0.172257 0.031568 0.701272
S2_2 S 0.17284(15) 0.68128(11) 0.85153(14)
S3_2 S 0.63964(13) 0.01621(16) 0.64531(15)
S4_2 S 0.58383(15) 0.2628(2) 0.99433(18)
O3_2 O 0.1968(3) 0.1803(3) 0.6163(4)
O4_2 O 0.1122(3) 0.1636(3) 0.4739(3)
N1_2 N 0.0679(4) 0.3148(3) 0.5908(5)
O8_2 O 0.0882(3) 0.1783(3) 0.7202(4)
N5_2 N 0.1433(4) 0.6003(4) 0.7823(5)
C3_2 C 0.1342(5) 0.9137(4) 0.6683(5)
H2_2 H 0.176710 0.888018 0.715366
C4_2 C 0.0716(4) 0.7703(4) 0.6100(5)
C7_2 C 0.0041(4) 0.4491(4) 0.5478(5)
C12_2 C 0.1308(4) 0.9999(4) 0.6593(5)
C13_2 C 0.0703(5) 0.5865(4) 0.6118(5)
C14_2 C 0.0730(4) 0.8647(4) 0.6059(5)
C15_2 C 0.0106(4) 0.9070(4) 0.5364(5)
C16_2 C 0.1011(4) 0.1862(4) 0.8040(5)
C17_2 C 0.2481(4) 0.1787(4) 0.8440(5)
H8_2 H 0.238262 0.178221 0.781155
C18_2 C 0.1076(4) 0.7244(4) 0.6951(5)
N8_2 N 0.5464(4) 0.0395(5) 0.5993(5)
C24_2 C 0.0059(4) 0.3612(4) 0.5399(5)
C25_2 C 0.2486(4) 0.1303(5) 0.5065(5)
C26_2 C 0.0707(5) 0.4923(4) 0.6090(5)
C27_2 C 0.1083(4) 0.6323(4) 0.6955(5)
C28_2 C 0.1324(5) 0.3558(4) 0.6525(5)
H12_2 H 0.176473 0.324021 0.688998
N9_2 N 0.1425(4) 0.7591(4) 0.7793(5)
C34_2 C 0.0128(4) 0.9932(4) 0.5332(5)
C35_2 C 0.1352(5) 0.4432(4) 0.6631(6)
H18_2 H 0.180217 0.468892 0.706508
C37_2 C 0.5199(5) 0.0179(5) 0.5093(6)
C42_2 C 0.1820(4) 0.1611(5) 0.5340(5)
C45_2 C 0.0357(5) 0.7240(4) 0.5324(5)
H22_2 H 0.010733 0.751973 0.476318
C49_2 C 0.4397(5) 0.0255(5) 0.4426(6)
C51_2 C 0.2329(5) 0.0807(5) 0.4297(6)
H26_2 H 0.180354 0.069560 0.390530
C53_2 C 0.3243(5) 0.1767(5) 0.9071(6)
H27_2 H 0.366028 0.175402 0.886499
N12_2 N 0.4917(5) 0.2379(6) 0.9765(5)
C55_2 C 0.0347(5) 0.6324(4) 0.5337(5)
H28_2 H 0.008439 0.603690 0.478284
C58_2 C 0.3267(5) 0.1497(6) 0.5603(6)
H30_2 H 0.337520 0.184714 0.611464
C60_2 C 0.3745(4) 0.0630(5) 0.4661(5)
C61_2 C 0.1835(5) 0.1814(4) 0.8732(6)
C66_2 C 0.2959(5) 0.0469(5) 0.4101(6)
H36_2 H 0.284582 0.012799 0.358180
C70_2 C 0.3896(5) 0.1187(5) 0.5403(6)
H38_2 H 0.441766 0.134896 0.576153
C72_2 C 0.2006(5) 0.1823(5) 0.9675(6)
H40_2 H 0.159042 0.184290 0.988222
H17_2 H 0.971205 0.020436 0.486429
loop_
_geom_bond_atom_site_label_1
_geom_bond_atom_site_label_2
_geom_bond_site_symmetry_1
_geom_bond_site_symmetry_2
Co4 O3 1_555 1_555
S2 N5 1_555 1_555
S3 N8 1_555 1_555
S4 N11 1_555 1_555
O9 C16 1_555 1_555
O3 C42 1_555 1_555
N1 Co4 1_555 1_555
C1 C5 1_555 1_555
O8 Co4 1_555 1_555
N5 C27 1_555 1_555
C3 H2 1_555 1_555
C4 C14 1_555 1_555
C5 H3 1_555 1_555
C12 C3 1_555 1_555
C13 C26 1_555 1_555
C14 C3 1_555 1_555
C15 C14 1_555 1_555
C16 O8 1_555 1_555
C17 H8 1_555 1_555
C18 C4 1_555 1_555
N8 C37 1_555 1_555
C24 N1 1_555 1_555
C25 C42 1_555 1_555
C26 C7 1_555 1_555
C27 C13 1_555 1_555
C28 N1 1_555 1_555
H12 C28 1_555 1_555
N9 S2 1_555 1_555
C35 C26 1_555 1_555
H18 C35 1_555 1_555
C39 C44 1_555 1_555
C40 H19 1_555 1_555
C41 C1 1_555 1_555
C44 C53 1_555 1_555
C45 C4 1_555 1_555
C46 C40 1_555 1_555
C50 C5 1_555 1_555
H25 C50 1_555 1_555
N11 C67 1_555 1_555
C53 C17 1_555 1_555
H27 C53 1_555 1_555
N12 S4 1_555 1_555
C55 C13 1_555 1_555
C56 C46 1_555 1_555
C58 C25 1_555 1_555
H30 C58 1_555 1_555
C61 C16 1_555 1_555
C64 C39 1_555 1_555
H34 C64 1_555 1_555
C67 C56 1_555 1_555
C68 C44 1_555 1_555
H37 C68 1_555 1_555
C69 C39 1_555 1_555
C70 C58 1_555 1_555
H38 C70 1_555 1_555
C71 C56 1_555 1_555
H39 C71 1_555 1_555
C72 C61 1_555 1_555
H40 C72 1_555 1_555
N13 Co4 1_555 1_555
C7 C24 1_555 1_555
C15 C34 1_555 1_555
C17 C61 1_555 1_555
C18 C27 1_555 1_555
C18 N9 1_555 1_555
C28 C35 1_555 1_555
C40 C41 1_555 1_555
C45 C55 1_555 1_555
C46 C50 1_555 1_555
N12 C69 1_555 1_555
C64 C71 1_555 1_555
C67 C69 1_555 1_555
C68 C72 1_555 1_555
O6 C10 1_555 1_555
O7 C10 1_555 1_555
C10 C11 1_555 1_555
C11 C62 1_555 1_555
C29 H13 1_555 1_555
C38 C29 1_555 1_555
C43 C38 1_555 1_555
H21 C43 1_555 1_555
C54 C30 1_555 1_555
C59 C54 1_555 1_555
H31 C59 1_555 1_555
C62 C43 1_555 1_555
H32 C62 1_555 1_555
C63 C11 1_555 1_555
H33 C63 1_555 1_555
H35 C65 1_555 1_555
Co7 O6 1_555 1_555
O7 Co7 1_555 1_555
C29 C63 1_555 1_555
C38 C54 1_555 1_555
C59 C65 1_555 1_555
N4 C22 1_555 1_555
H10 C22 1_555 1_555
C31 N4 1_555 1_555
Co7 N4 1_555 1_555
Co7 O1 1_555 1_555
S1_2 N6 1_555 1_555
O1 C6 1_555 1_555
O5_2 C6 1_555 1_555
N2 Co7 1_555 1_555
C1_2 C5_2 1_555 1_555
C2 H1 1_555 1_555
N6 C52 1_555 1_555
C5_2 H3_2 1_555 1_555
C6 C1_2 1_555 1_555
C8 C2 1_555 1_555
H5 C8 1_555 1_555
C9 C8 1_555 1_555
N7 S1_2 1_555 1_555
C19 N7 1_555 1_555
C20 H9 1_555 1_555
C21 C9 1_555 1_555
C23 C2 1_555 1_555
C32 N2 1_555 1_555
C33 C21 1_555 1_555
C36 C23 1_555 1_555
C39_2 C44_2 1_555 1_555
C40_2 H19_2 1_555 1_555
C41_2 C1_2 1_555 1_555
H20 C41_2 1_555 1_555
C46_2 C40_2 1_555 1_555
C47 C32 1_555 1_555
C48 N2 1_555 1_555
H24 C48 1_555 1_555
C50_2 C5_2 1_555 1_555
H25_2 C50_2 1_555 1_555
C52 C9 1_555 1_555
N11_2 C67_2 1_555 1_555
C56_2 C46_2 1_555 1_555
C57 C36 1_555 1_555
H29 C57 1_555 1_555
C64_2 C39_2 1_555 1_555
H34_2 C64_2 1_555 1_555
C67_2 C56_2 1_555 1_555
C68_2 C44_2 1_555 1_555
H37_2 C68_2 1_555 1_555
C69_2 C39_2 1_555 1_555
C71_2 C56_2 1_555 1_555
H39_2 C71_2 1_555 1_555
C19 C23 1_555 1_555
C19 C52 1_555 1_555
C20 C21 1_555 1_555
C36 C47 1_555 1_555
C40_2 C41_2 1_555 1_555
C46_2 C50_2 1_555 1_555
C48 C57 1_555 1_555
C64_2 C71_2 1_555 1_555
C67_2 C69_2 1_555 1_555
Co2 O1_2 1_555 1_555
O1_2 C6_2 1_555 1_555
N2_2 Co2 1_555 1_555
C2_2 H1_2 1_555 1_555
N6_2 C52_2 1_555 1_555
C8_2 C2_2 1_555 1_555
H5_2 C8_2 1_555 1_555
C9_2 C8_2 1_555 1_555
C19_2 N7_2 1_555 1_555
C20_2 H9_2 1_555 1_555
C21_2 C9_2 1_555 1_555
C23_2 C2_2 1_555 1_555
C32_2 N2_2 1_555 1_555
C33_2 C21_2 1_555 1_555
C36_2 C23_2 1_555 1_555
C47_2 C32_2 1_555 1_555
C48_2 N2_2 1_555 1_555
H24_2 C48_2 1_555 1_555
C52_2 C9_2 1_555 1_555
C57_2 C36_2 1_555 1_555
H29_2 C57_2 1_555 1_555
O11 Co2 1_555 1_555
O12 Co2 1_555 1_555
N14 Co2 1_555 1_555
C19_2 C23_2 1_555 1_555
C19_2 C52_2 1_555 1_555
C20_2 C21_2 1_555 1_555
C36_2 C47_2 1_555 1_555
C48_2 C57_2 1_555 1_555
N14 C22_2 1_555 1_555
H10_2 C22_2 1_555 1_555
C31_2 N14 1_555 1_555
O11 C10_2 1_555 1_555
O12 C10_2 1_555 1_555
C10_2 C11_2 1_555 1_555
C11_2 C62_2 1_555 1_555
C29_2 H13_2 1_555 1_555
C30_2 N10_2 1_555 1_555
C38_2 C29_2 1_555 1_555
C43_2 C38_2 1_555 1_555
H21_2 C43_2 1_555 1_555
C54_2 C30_2 1_555 1_555
C59_2 C54_2 1_555 1_555
H31_2 C59_2 1_555 1_555
C62_2 C43_2 1_555 1_555
H32_2 C62_2 1_555 1_555
C63_2 C11_2 1_555 1_555
H33_2 C63_2 1_555 1_555
H35_2 C65_2 1_555 1_555
C29_2 C63_2 1_555 1_555
C38_2 C54_2 1_555 1_555
C59_2 C65_2 1_555 1_555
H26 C51 1_555 1_555
C60 C49 1_555 1_555
C66 C51 1_555 1_555
H36 C66 1_555 1_555
C60 C66 1_555 1_555
Co4_2 N3 1_555 1_555
Co4_2 O3_2 1_555 1_555
S2_2 N5_2 1_555 1_555
S3_2 N8_2 1_555 1_555
O9_2 C16_2 1_555 1_555
O3_2 C42_2 1_555 1_555
O4_2 Co4_2 1_555 1_555
N1_2 Co4_2 1_555 1_555
O8_2 Co4_2 1_555 1_555
N5_2 C27_2 1_555 1_555
C3_2 H2_2 1_555 1_555
C4_2 C14_2 1_555 1_555
C12_2 C3_2 1_555 1_555
C13_2 C26_2 1_555 1_555
C14_2 C3_2 1_555 1_555
C15_2 C14_2 1_555 1_555
C16_2 O8_2 1_555 1_555
C17_2 H8_2 1_555 1_555
C18_2 C4_2 1_555 1_555
N8_2 C37_2 1_555 1_555
C24_2 N1_2 1_555 1_555
C25_2 C42_2 1_555 1_555
C26_2 C7_2 1_555 1_555
C27_2 C13_2 1_555 1_555
C28_2 N1_2 1_555 1_555
H12_2 C28_2 1_555 1_555
N9_2 S2_2 1_555 1_555
C35_2 C26_2 1_555 1_555
H18_2 C35_2 1_555 1_555
C42_2 O4_2 1_555 1_555
C45_2 C4_2 1_555 1_555
H22_2 C45_2 1_555 1_555
C49_2 C37_2 1_555 1_555
C51_2 C25_2 1_555 1_555
H26_2 C51_2 1_555 1_555
C53_2 C17_2 1_555 1_555
H27_2 C53_2 1_555 1_555
N12_2 S4_2 1_555 1_555
C55_2 C13_2 1_555 1_555
H28_2 C55_2 1_555 1_555
C58_2 C25_2 1_555 1_555
H30_2 C58_2 1_555 1_555
C60_2 C49_2 1_555 1_555
C61_2 C16_2 1_555 1_555
C66_2 C51_2 1_555 1_555
H36_2 C66_2 1_555 1_555
C70_2 C58_2 1_555 1_555
H38_2 C70_2 1_555 1_555
C72_2 C61_2 1_555 1_555
H40_2 C72_2 1_555 1_555
C7_2 C24_2 1_555 1_555
C15_2 C34_2 1_555 1_555
C17_2 C61_2 1_555 1_555
C18_2 C27_2 1_555 1_555
C18_2 N9_2 1_555 1_555
C28_2 C35_2 1_555 1_555
C45_2 C55_2 1_555 1_555
C60_2 C66_2 1_555 1_555
C60_2 C70_2 1_555 1_555

#END
