
###############################################################################
#
# This file contains modified crystal structure data generated from the
# MOF subset of the Cambridge Structural Database (CSD) v543 
# hosted by the Cambridge Crystallographic Data Centre (CCDC).
#
# This work is licensed under the Creative Commons
# Attribution-NonCommercial-ShareAlike 4.0 International License.
# To view a copy of this license, visit
# http://creativecommons.org/licenses/by-nc-sa/4.0/
# or send a letter to
# Creative Commons, PO Box 1866, Mountain View, CA 94042, USA.
#
# CIF created using the CSD Python API on 29 September 2022
# The structure has been converted into the P1 space group
# The structure has a 3D framework
# The original CSD entry UZAXIF is in the monoclinic crystal system
# The framework has been calculated to contain at least 10.0% void space
# The void calculation uses a probe of radius 1.32A, grid spacing 0.4
#
###############################################################################

data_UZAXIF
_chemical_formula_moiety         '(C144 H80 Co4 N24 O16 S8)n'
_symmetry_cell_setting           triclinic
_symmetry_space_group_name_H-M   'P 1'
_symmetry_Int_Tables_number      1
_space_group_name_Hall           'P 1'
loop_
_symmetry_equiv_pos_site_id
_symmetry_equiv_pos_as_xyz
1 x,y,z
_cell_length_a                   18.1709(5)
_cell_length_b                   15.7541(3)
_cell_length_c                   15.5733(4)
_cell_angle_alpha                90
_cell_angle_beta                 112.645(4)
_cell_angle_gamma                90
_cell_volume                     4114.42
loop_
_atom_site_label
_atom_site_type_symbol
_atom_site_fract_x
_atom_site_fract_y
_atom_site_fract_z
H5 H 0.037523 0.650206 0.988353
H8 H 0.037664 0.504322 0.980323
H22 H 0.030391 0.107863 0.983401
Co6 Co 0.06910(4) 0.82192(4) 0.74722(5)
O9 O 0.0435(2) 0.8068(2) 0.9966(3)
O6 O 0.0834(2) 0.8185(2) 0.8808(3)
N3 N 0.0699(3) 0.6855(2) 0.7498(4)
N4 N 0.1442(3) 0.4011(3) 0.9428(4)
C6 C 0.0978(3) 0.8136(3) 0.9663(4)
C10 C 0.0716(4) 0.2306(3) 0.7710(4)
C11 C 0.0106(4) 0.0924(3) 0.6986(4)
C12 C 0.1322(3) 0.0875(3) 0.8305(4)
H4 H 0.174611 0.113335 0.877763
N7 N 0.1412(3) 0.2431(3) 0.9421(3)
C13 C 0.1094(4) 0.3682(3) 0.8563(4)
C19 C 0.0718(3) 0.1362(3) 0.7683(4)
C20 C 0.0113(3) 0.0073(3) 0.6945(4)
C21 C 0.0724(4) 0.4147(3) 0.7722(4)
C26 C 0.0358(4) 0.2771(3) 0.6940(4)
H13 H 0.009309 0.249099 0.637887
C27 C 0.0053(4) 0.5511(3) 0.7093(4)
C29 C 0.0367(4) 0.3671(3) 0.6945(4)
H16 H 0.011287 0.395195 0.638267
H17 H 0.234699 0.815518 0.941066
C31 C 0.1354(4) 0.6441(3) 0.8074(5)
H18 H 0.180611 0.675834 0.840564
C32 C 0.0062(3) 0.6383(3) 0.7030(4)
C46 C 0.1090(4) 0.2772(3) 0.8575(4)
C54 C 0.0720(4) 0.5086(3) 0.7677(4)
C57 C 0.1386(4) 0.5579(4) 0.8193(5)
H31 H 0.184461 0.532291 0.861196
O11 O 0.1966(2) 0.8225(2) 0.7786(3)
O12 O 0.1110(2) 0.8398(2) 0.6348(2)
N13 N 0.0693(3) 0.9582(2) 0.7557(3)
C25 C 0.1289(3) 0.9993(3) 0.8217(4)
H12 H 0.170147 0.967475 0.863885
S3 S 0.63843(10) 0.97713(12) 0.80645(11)
C8 C 0.2479(3) 0.8737(3) 0.6692(4)
C14 C 0.1814(3) 0.8423(3) 0.6947(3)
N9 N 0.5445(3) 0.9567(4) 0.7600(4)
C35 C 0.5185(3) 0.9819(4) 0.6717(4)
C44 C 0.4383(3) 0.9766(4) 0.6044(4)
C49 C 0.2333(4) 0.9218(4) 0.5932(5)
H26 H 0.180753 0.931943 0.553547
C50 C 0.3730(3) 0.9384(4) 0.6270(4)
C69 C 0.2945(4) 0.9566(5) 0.5725(5)
H38 H 0.282631 0.992528 0.521524
C71 C 0.3249(5) 0.8479(6) 0.7195(6)
H39 H 0.335168 0.809704 0.768360
C72 C 0.3884(4) 0.8790(5) 0.6976(6)
H40 H 0.440093 0.859815 0.730112
H25 H 0.028657 0.962597 0.991616
S3_2 S 0.63843(10) 0.02287(12) 0.30645(11)
O4 O 0.1966(2) 0.1775(2) 0.2786(3)
O5 O 0.1110(2) 0.1602(2) 0.1348(2)
C8_2 C 0.2479(3) 0.1263(3) 0.1692(4)
C14_2 C 0.1814(3) 0.1577(3) 0.1947(3)
N9_2 N 0.5445(3) 0.0433(4) 0.2600(4)
C35_2 C 0.5185(3) 0.0181(4) 0.1717(4)
C44_2 C 0.4383(3) 0.0234(4) 0.1044(4)
C49_2 C 0.2333(4) 0.0782(4) 0.0932(5)
H26_2 H 0.180753 0.068057 0.053547
C50_2 C 0.3730(3) 0.0616(4) 0.1270(4)
C69_2 C 0.2945(4) 0.0434(5) 0.0725(5)
H38_2 H 0.282631 0.007472 0.021524
C71_2 C 0.3249(5) 0.1521(6) 0.2195(6)
H39_2 H 0.335168 0.190296 0.268360
C72_2 C 0.3884(4) 0.1210(5) 0.1976(6)
H40_2 H 0.440093 0.140185 0.230112
Co7 Co 0.06910(4) 0.17808(4) 0.24722(5)
H5_2 H 0.037523 0.349794 0.488353
H8_2 H 0.037664 0.495678 0.480323
H22_2 H 0.030391 0.892137 0.483401
O9_2 O 0.0435(2) 0.1932(2) 0.4966(3)
N1 N 0.0693(3) 0.0418(2) 0.2557(3)
C25_2 C 0.1289(3) 0.0007(3) 0.3217(4)
H12_2 H 0.170147 0.032525 0.363885
S2 S 0.17148(12) 0.67885(9) 0.51379(11)
S4 S 0.57948(9) 0.27488(13) 0.65746(11)
O6_2 O 0.0834(2) 0.1815(2) 0.3808(3)
N3_2 N 0.0699(3) 0.3145(2) 0.2498(4)
N4_2 N 0.1442(3) 0.5989(3) 0.4428(4)
C4 C 0.3403(3) 0.1792(4) 0.6619(4)
C6_2 C 0.0978(3) 0.1864(3) 0.4663(4)
C10_2 C 0.0716(4) 0.7694(3) 0.2710(4)
C11_2 C 0.0106(4) 0.9076(3) 0.1986(4)
C12_2 C 0.1322(3) 0.9125(3) 0.3305(4)
H4_2 H 0.174611 0.886665 0.377763
N7_2 N 0.1412(3) 0.7569(3) 0.4421(3)
C13_2 C 0.1094(4) 0.6318(3) 0.3563(4)
C19_2 C 0.0718(3) 0.8638(3) 0.2683(4)
C20_2 C 0.0113(3) 0.9927(3) 0.1945(4)
C21_2 C 0.0724(4) 0.5853(3) 0.2722(4)
C26_2 C 0.0358(4) 0.7229(3) 0.1940(4)
H13_2 H 0.009309 0.750901 0.137887
C27_2 C 0.0053(4) 0.4489(3) 0.2093(4)
N8 N 0.6251(3) 0.2416(4) 0.7632(4)
C29_2 C 0.0367(4) 0.6329(3) 0.1945(4)
H16_2 H 0.011287 0.604805 0.138267
C30 C 0.2453(3) 0.1833(3) 0.5044(4)
H17_2 H 0.234699 0.184482 0.441066
C31_2 C 0.1354(4) 0.3559(3) 0.3074(5)
H18_2 H 0.180611 0.324166 0.340564
C32_2 C 0.0062(3) 0.3617(3) 0.2030(4)
C33 C 0.7322(3) 0.1558(4) 0.9388(4)
H20 H 0.728562 0.143417 0.878933
C39 C 0.4231(4) 0.1763(4) 0.7330(4)
N12 N 0.4892(3) 0.2471(4) 0.6381(3)
C46_2 C 0.1090(4) 0.7228(3) 0.3575(4)
C51 C 0.3226(3) 0.1814(3) 0.5662(4)
H27 H 0.363732 0.181658 0.544667
C52 C 0.6644(4) 0.1720(4) 0.9556(4)
C54_2 C 0.0720(4) 0.4914(3) 0.2677(4)
C55 C 0.5190(4) 0.1404(5) 0.8907(4)
H29 H 0.525230 0.118234 0.948459
C56 C 0.4415(3) 0.1407(5) 0.8189(4)
H30 H 0.400503 0.114889 0.831147
C57_2 C 0.1386(4) 0.4421(4) 0.3193(5)
H31_2 H 0.184461 0.467709 0.361196
C58 C 0.1817(3) 0.1834(3) 0.5337(4)
C59 C 0.5703(3) 0.2074(4) 0.7872(4)
C60 C 0.5838(3) 0.1709(4) 0.8790(4)
C66 C 0.1988(4) 0.1804(4) 0.6297(4)
H35 H 0.157601 0.179619 0.651091
C67 C 0.2769(4) 0.1787(5) 0.6919(4)
H36 H 0.287763 0.177247 0.755331
C70 C 0.4923(3) 0.2089(4) 0.7169(4)
O7 O 0.8836(3) 0.8227(2) 0.0014(3)
H10 H 0.985938 0.377660 0.010759
C23 C 0.7047(3) 0.9497(4) 0.0637(4)
H11 H 0.714920 0.997755 0.101202
H15 H 0.986107 0.231658 0.008637
C37 C 0.6301(3) 0.9130(4) 0.0328(4)
N10 N 0.6524(3) 0.9800(3) 0.2199(3)
C43 C 0.5812(3) 0.9823(3) 0.1500(4)
C45 C 0.5653(3) 0.9489(3) 0.0563(3)
C62 C 0.7644(3) 0.9161(3) 0.0397(4)
H33 H 0.815261 0.939591 0.063731
C68 C 0.4263(3) 0.9916(4) 0.0185(4)
Co1 Co 0.92993(4) 0.80595(4) 0.89617(5)
S1 S 0.81962(12) 0.30928(8) 0.63360(10)
S2_2 S 0.17148(12) 0.32115(9) 0.01379(11)
S4_2 S 0.57948(9) 0.72512(13) 0.15746(11)
O1 O 0.8957(2) 0.8003(2) 0.7578(2)
O3 O 0.9528(2) 0.8258(2) 0.6580(2)
N2 N 0.9307(3) 0.6702(2) 0.8936(3)
C1 C 0.8128(3) 0.8244(3) 0.6016(4)
C2 C 0.8938(3) 0.8170(3) 0.6794(3)
C3 C 0.9239(3) 0.1207(3) 0.8754(3)
C4_2 C 0.3403(3) 0.8208(4) 0.1619(4)
C5 C 0.9230(3) 0.2143(3) 0.8729(3)
O8 O 0.7942(3) 0.7993(3) 0.8654(3)
N6 N 0.8482(3) 0.2293(3) 0.7032(3)
C7 C 0.8616(3) 0.0707(3) 0.8134(3)
H1 H 0.817967 0.096254 0.767494
C9 C 0.8063(3) 0.8419(3) 0.5126(3)
H2 H 0.852157 0.852484 0.501336
C15 C 0.9927(3) 0.6228(3) 0.9466(3)
C17 C 0.6704(3) 0.8111(4) 0.5473(4)
H7 H 0.624973 0.800202 0.559236
C18 C 0.9933(4) 0.5349(3) 0.9423(3)
C22 C 0.9605(4) 0.3500(3) 0.9542(3)
C24 C 0.8848(3) 0.2624(3) 0.7888(4)
N8_2 N 0.6251(3) 0.7584(4) 0.2632(4)
C28 C 0.9602(4) 0.2606(3) 0.9531(4)
C30_2 C 0.2453(3) 0.8167(3) 0.0044(4)
C33_2 C 0.7322(3) 0.8442(4) 0.4388(4)
H20_2 H 0.728562 0.856583 0.378933
C34 C 0.7445(3) 0.8111(3) 0.6186(4)
H21 H 0.748644 0.801891 0.679315
C36 C 0.9262(3) 0.4927(3) 0.8798(4)
N11 N 0.8498(4) 0.3874(3) 0.7058(3)
C38 C 0.9248(3) 0.3982(3) 0.8753(3)
C39_2 C 0.4231(4) 0.8237(4) 0.2330(4)
N12_2 N 0.4892(3) 0.7529(4) 0.1381(3)
C40 C 0.9874(3) 0.0778(3) 0.9418(3)
C41 C 0.6135(4) 0.8410(4) 0.9731(4)
H23 H 0.563423 0.815713 0.952110
C42 C 0.8860(3) 0.3533(3) 0.7904(4)
C47 C 0.8662(4) 0.6288(3) 0.8322(4)
H24 H 0.822916 0.660685 0.794027
C51_2 C 0.3226(3) 0.8186(3) 0.0662(4)
H27_2 H 0.363732 0.818342 0.044667
C52_2 C 0.6644(4) 0.8280(4) 0.4556(4)
C53 C 0.4875(3) 0.9533(4) 0.9953(4)
H28 H 0.473836 0.930307 0.936114
C55_2 C 0.5190(4) 0.8596(5) 0.3907(4)
H29_2 H 0.525230 0.881766 0.448459
C56_2 C 0.4415(3) 0.8593(5) 0.3189(4)
H30_2 H 0.400503 0.885111 0.331147
C58_2 C 0.1817(3) 0.8166(3) 0.0337(4)
C59_2 C 0.5703(3) 0.7926(4) 0.2872(4)
C60_2 C 0.5838(3) 0.8291(4) 0.3790(4)
C61 C 0.6724(4) 0.8090(4) 0.9468(5)
H32 H 0.661781 0.762242 0.907347
C63 C 0.8623(4) 0.5427(3) 0.8243(4)
H34 H 0.816839 0.517102 0.781623
C64 C 0.8122(4) 0.8194(3) 0.9471(5)
C65 C 0.7485(4) 0.8470(4) 0.9795(4)
C66_2 C 0.1988(4) 0.8196(4) 0.1297(4)
H35_2 H 0.157601 0.820381 0.151091
C67_2 C 0.2769(4) 0.8213(5) 0.1919(4)
H36_2 H 0.287763 0.822753 0.255331
H37 H 0.375325 0.995179 0.972386
C70_2 C 0.4923(3) 0.7911(4) 0.2169(4)
N14 N 0.9275(3) 0.9412(2) 0.8863(3)
C16 C 0.8661(3) 0.9841(3) 0.8214(4)
H6 H 0.824390 0.952437 0.779751
C48 C 0.9863(3) 0.9897(3) 0.9455(4)
H3 H 0.969030 0.122498 0.654762
H14 H 0.959640 0.520978 0.674059
H19 H 0.959998 0.665605 0.664099
H9 H 0.969786 0.980479 0.647103
H25_2 H 0.028657 0.037403 0.491616
N5 N 0.9275(3) 0.0588(2) 0.3863(3)
C16_2 C 0.8661(3) 0.0159(3) 0.3214(4)
H6_2 H 0.824390 0.047563 0.279751
C48_2 C 0.9863(3) 0.0103(3) 0.4455(4)
Co4 Co 0.92993(4) 0.19405(4) 0.39617(5)
S1_2 S 0.81962(12) 0.69072(8) 0.13360(10)
O1_2 O 0.8957(2) 0.1997(2) 0.2578(2)
O3_2 O 0.9528(2) 0.1742(2) 0.1580(2)
N2_2 N 0.9307(3) 0.3298(2) 0.3936(3)
O7_2 O 0.8836(3) 0.1773(2) 0.5014(3)
C1_2 C 0.8128(3) 0.1756(3) 0.1016(4)
C2_2 C 0.8938(3) 0.1830(3) 0.1794(3)
C3_2 C 0.9239(3) 0.8793(3) 0.3754(3)
C5_2 C 0.9230(3) 0.7857(3) 0.3729(3)
O8_2 O 0.7942(3) 0.2007(3) 0.3654(3)
N6_2 N 0.8482(3) 0.7707(3) 0.2032(3)
C7_2 C 0.8616(3) 0.9293(3) 0.3134(3)
H1_2 H 0.817967 0.903746 0.267494
C9_2 C 0.8063(3) 0.1581(3) 0.0126(3)
H2_2 H 0.852157 0.147516 0.001336
C15_2 C 0.9927(3) 0.3772(3) 0.4466(3)
C17_2 C 0.6704(3) 0.1889(4) 0.0473(4)
H7_2 H 0.624973 0.199798 0.059236
C18_2 C 0.9933(4) 0.4651(3) 0.4423(3)
C22_2 C 0.9605(4) 0.6500(3) 0.4542(3)
H10_2 H 0.985938 0.622340 0.510759
C23_2 C 0.7047(3) 0.0503(4) 0.5637(4)
H11_2 H 0.714920 0.002245 0.601202
C24_2 C 0.8848(3) 0.7376(3) 0.2888(4)
C28_2 C 0.9602(4) 0.7394(3) 0.4531(4)
H15_2 H 0.986107 0.768342 0.508637
C34_2 C 0.7445(3) 0.1889(3) 0.1186(4)
H21_2 H 0.748644 0.198109 0.179315
C36_2 C 0.9262(3) 0.5073(3) 0.3798(4)
C37_2 C 0.6301(3) 0.0870(4) 0.5328(4)
N10_2 N 0.6524(3) 0.0200(3) 0.7199(3)
N11_2 N 0.8498(4) 0.6126(3) 0.2058(3)
C38_2 C 0.9248(3) 0.6018(3) 0.3753(3)
C40_2 C 0.9874(3) 0.9222(3) 0.4418(3)
C41_2 C 0.6135(4) 0.1590(4) 0.4731(4)
H23_2 H 0.563423 0.184287 0.452110
C42_2 C 0.8860(3) 0.6467(3) 0.2904(4)
C43_2 C 0.5812(3) 0.0177(3) 0.6500(4)
C45_2 C 0.5653(3) 0.0511(3) 0.5563(3)
C47_2 C 0.8662(4) 0.3712(3) 0.3322(4)
H24_2 H 0.822916 0.339315 0.294027
C53_2 C 0.4875(3) 0.0467(4) 0.4953(4)
H28_2 H 0.473836 0.069693 0.436114
C61_2 C 0.6724(4) 0.1910(4) 0.4468(5)
H32_2 H 0.661781 0.237758 0.407347
C62_2 C 0.7644(3) 0.0839(3) 0.5397(4)
H33_2 H 0.815261 0.060409 0.563731
C63_2 C 0.8623(4) 0.4573(3) 0.3243(4)
H34_2 H 0.816839 0.482898 0.281623
C64_2 C 0.8122(4) 0.1806(3) 0.4471(5)
C65_2 C 0.7485(4) 0.1530(4) 0.4795(4)
C68_2 C 0.4263(3) 0.0084(4) 0.5185(4)
H37_2 H 0.375325 0.004821 0.472386
H3_2 H 0.969030 0.877502 0.154762
H14_2 H 0.959640 0.479022 0.174059
H19_2 H 0.959998 0.334395 0.164099
H9_2 H 0.969786 0.019521 0.147103
loop_
_geom_bond_atom_site_label_1
_geom_bond_atom_site_label_2
_geom_bond_site_symmetry_1
_geom_bond_site_symmetry_2
Co6 O6 1_555 1_555
O9 C6 1_555 1_555
O6 C6 1_555 1_555
N3 Co6 1_555 1_555
N4 C13 1_555 1_555
C10 C19 1_555 1_555
C12 H4 1_555 1_555
C13 C21 1_555 1_555
C19 C11 1_555 1_555
C20 C11 1_555 1_555
C21 C29 1_555 1_555
C26 C10 1_555 1_555
H13 C26 1_555 1_555
C29 C26 1_555 1_555
H16 C29 1_555 1_555
C31 N3 1_555 1_555
H18 C31 1_555 1_555
C32 N3 1_555 1_555
C46 C10 1_555 1_555
C54 C21 1_555 1_555
C57 C31 1_555 1_555
H31 C57 1_555 1_555
O11 Co6 1_555 1_555
O12 Co6 1_555 1_555
N13 Co6 1_555 1_555
C12 C19 1_555 1_555
N7 C46 1_555 1_555
C13 C46 1_555 1_555
C27 C32 1_555 1_555
C27 C54 1_555 1_555
C54 C57 1_555 1_555
C25 N13 1_555 1_555
H12 C25 1_555 1_555
S3 N9 1_555 1_555
O11 C14 1_555 1_555
O12 C14 1_555 1_555
C8 C14 1_555 1_555
N9 C35 1_555 1_555
C44 C35 1_555 1_555
C49 C8 1_555 1_555
H26 C49 1_555 1_555
C50 C44 1_555 1_555
C69 C49 1_555 1_555
H38 C69 1_555 1_555
C71 C8 1_555 1_555
H39 C71 1_555 1_555
C72 C50 1_555 1_555
H40 C72 1_555 1_555
C50 C69 1_555 1_555
C71 C72 1_555 1_555
S3_2 N9_2 1_555 1_555
O4 C14_2 1_555 1_555
O5 C14_2 1_555 1_555
C8_2 C14_2 1_555 1_555
N9_2 C35_2 1_555 1_555
C44_2 C35_2 1_555 1_555
C49_2 C8_2 1_555 1_555
H26_2 C49_2 1_555 1_555
C50_2 C44_2 1_555 1_555
C69_2 C49_2 1_555 1_555
H38_2 C69_2 1_555 1_555
C71_2 C8_2 1_555 1_555
H39_2 C71_2 1_555 1_555
C72_2 C50_2 1_555 1_555
H40_2 C72_2 1_555 1_555
Co7 O4 1_555 1_555
O5 Co7 1_555 1_555
C50_2 C69_2 1_555 1_555
C71_2 C72_2 1_555 1_555
C25_2 N1 1_555 1_555
H12_2 C25_2 1_555 1_555
Co7 N1 1_555 1_555
Co7 O6_2 1_555 1_555
S2 N4_2 1_555 1_555
S4 N8 1_555 1_555
O9_2 C6_2 1_555 1_555
O6_2 C6_2 1_555 1_555
N3_2 Co7 1_555 1_555
N4_2 C13_2 1_555 1_555
C4 C39 1_555 1_555
C6_2 C58 1_555 1_555
C10_2 C19_2 1_555 1_555
C12_2 H4_2 1_555 1_555
N7_2 S2 1_555 1_555
C13_2 C21_2 1_555 1_555
C19_2 C11_2 1_555 1_555
C20_2 C11_2 1_555 1_555
C21_2 C29_2 1_555 1_555
C26_2 C10_2 1_555 1_555
H13_2 C26_2 1_555 1_555
N8 C59 1_555 1_555
C29_2 C26_2 1_555 1_555
H16_2 C29_2 1_555 1_555
C30 H17_2 1_555 1_555
C31_2 N3_2 1_555 1_555
H18_2 C31_2 1_555 1_555
C32_2 N3_2 1_555 1_555
H20 C33 1_555 1_555
C39 C56 1_555 1_555
N12 S4 1_555 1_555
C46_2 C10_2 1_555 1_555
C51 C4 1_555 1_555
H27 C51 1_555 1_555
C54_2 C21_2 1_555 1_555
C55 H29 1_555 1_555
C56 C55 1_555 1_555
H30 C56 1_555 1_555
C57_2 C31_2 1_555 1_555
H31_2 C57_2 1_555 1_555
C58 C30 1_555 1_555
C59 C60 1_555 1_555
C60 C52 1_555 1_555
C66 C58 1_555 1_555
H35 C66 1_555 1_555
C67 C4 1_555 1_555
H36 C67 1_555 1_555
C70 C39 1_555 1_555
C12_2 C19_2 1_555 1_555
N7_2 C46_2 1_555 1_555
C13_2 C46_2 1_555 1_555
C27_2 C32_2 1_555 1_555
C27_2 C54_2 1_555 1_555
C30 C51 1_555 1_555
C33 C52 1_555 1_555
N12 C70 1_555 1_555
C54_2 C57_2 1_555 1_555
C55 C60 1_555 1_555
C59 C70 1_555 1_555
C66 C67 1_555 1_555
C23 H11 1_555 1_555
C37 C23 1_555 1_555
C43 N10 1_555 1_555
C45 C37 1_555 1_555
C62 C23 1_555 1_555
H33 C62 1_555 1_555
C43 C45 1_555 1_555
Co1 O1 1_555 1_555
S1 N6 1_555 1_555
S4_2 N8_2 1_555 1_555
O1 C2 1_555 1_555
O3 C2 1_555 1_555
N2 Co1 1_555 1_555
C1 C2 1_555 1_555
C3 C5 1_555 1_555
C4_2 C39_2 1_555 1_555
C5 C24 1_555 1_555
O8 Co1 1_555 1_555
N6 C24 1_555 1_555
C7 C3 1_555 1_555
H1 C7 1_555 1_555
C9 C1 1_555 1_555
H2 C9 1_555 1_555
C15 N2 1_555 1_555
C17 H7 1_555 1_555
C18 C15 1_555 1_555
C24 C42 1_555 1_555
N8_2 C59_2 1_555 1_555
C28 C5 1_555 1_555
C33_2 C9 1_555 1_555
H20_2 C33_2 1_555 1_555
C34 C1 1_555 1_555
H21 C34 1_555 1_555
C36 C18 1_555 1_555
N11 S1 1_555 1_555
C38 C22 1_555 1_555
C39_2 C56_2 1_555 1_555
N12_2 S4_2 1_555 1_555
C40 C3 1_555 1_555
H23 C41 1_555 1_555
C42 N11 1_555 1_555
C47 N2 1_555 1_555
H24 C47 1_555 1_555
C51_2 C4_2 1_555 1_555
H27_2 C51_2 1_555 1_555
C52_2 C17 1_555 1_555
H28 C53 1_555 1_555
C55_2 H29_2 1_555 1_555
C56_2 C55_2 1_555 1_555
H30_2 C56_2 1_555 1_555
C58_2 C30_2 1_555 1_555
C59_2 C60_2 1_555 1_555
C60_2 C52_2 1_555 1_555
C61 C41 1_555 1_555
H32 C61 1_555 1_555
C63 C36 1_555 1_555
H34 C63 1_555 1_555
C65 C61 1_555 1_555
C66_2 C58_2 1_555 1_555
H35_2 C66_2 1_555 1_555
C67_2 C4_2 1_555 1_555
H36_2 C67_2 1_555 1_555
C70_2 C39_2 1_555 1_555
N14 Co1 1_555 1_555
O8 C64 1_555 1_555
C17 C34 1_555 1_555
C22 C28 1_555 1_555
C30_2 C51_2 1_555 1_555
C33_2 C52_2 1_555 1_555
C36 C38 1_555 1_555
C38 C42 1_555 1_555
N12_2 C70_2 1_555 1_555
C47 C63 1_555 1_555
C55_2 C60_2 1_555 1_555
C59_2 C70_2 1_555 1_555
C64 C65 1_555 1_555
C66_2 C67_2 1_555 1_555
N14 C16 1_555 1_555
H6 C16 1_555 1_555
C48 N14 1_555 1_555
N5 C16_2 1_555 1_555
H6_2 C16_2 1_555 1_555
C48_2 N5 1_555 1_555
Co4 N5 1_555 1_555
Co4 O1_2 1_555 1_555
S1_2 N6_2 1_555 1_555
O1_2 C2_2 1_555 1_555
O3_2 C2_2 1_555 1_555
N2_2 Co4 1_555 1_555
O7_2 Co4 1_555 1_555
C1_2 C2_2 1_555 1_555
C3_2 C5_2 1_555 1_555
C5_2 C24_2 1_555 1_555
O8_2 Co4 1_555 1_555
N6_2 C24_2 1_555 1_555
C7_2 C3_2 1_555 1_555
H1_2 C7_2 1_555 1_555
C9_2 C1_2 1_555 1_555
H2_2 C9_2 1_555 1_555
C15_2 N2_2 1_555 1_555
C17_2 H7_2 1_555 1_555
C18_2 C15_2 1_555 1_555
C22_2 H10_2 1_555 1_555
C23_2 H11_2 1_555 1_555
C24_2 C42_2 1_555 1_555
C28_2 C5_2 1_555 1_555
H15_2 C28_2 1_555 1_555
C34_2 C1_2 1_555 1_555
H21_2 C34_2 1_555 1_555
C36_2 C18_2 1_555 1_555
C37_2 C23_2 1_555 1_555
N11_2 S1_2 1_555 1_555
C38_2 C22_2 1_555 1_555
C40_2 C3_2 1_555 1_555
C41_2 C37_2 1_555 1_555
H23_2 C41_2 1_555 1_555
C42_2 N11_2 1_555 1_555
C43_2 N10_2 1_555 1_555
C45_2 C37_2 1_555 1_555
C47_2 N2_2 1_555 1_555
H24_2 C47_2 1_555 1_555
C53_2 C45_2 1_555 1_555
H28_2 C53_2 1_555 1_555
C61_2 C41_2 1_555 1_555
H32_2 C61_2 1_555 1_555
C62_2 C23_2 1_555 1_555
H33_2 C62_2 1_555 1_555
C63_2 C36_2 1_555 1_555
H34_2 C63_2 1_555 1_555
C64_2 O7_2 1_555 1_555
C65_2 C61_2 1_555 1_555
H37_2 C68_2 1_555 1_555
O8_2 C64_2 1_555 1_555
C17_2 C34_2 1_555 1_555
C22_2 C28_2 1_555 1_555
C36_2 C38_2 1_555 1_555
C38_2 C42_2 1_555 1_555
C43_2 C45_2 1_555 1_555
C47_2 C63_2 1_555 1_555
C53_2 C68_2 1_555 1_555
C62_2 C65_2 1_555 1_555
C64_2 C65_2 1_555 1_555

#END
