
###############################################################################
#
# This file contains modified crystal structure data generated from the
# MOF subset of the Cambridge Structural Database (CSD) v543 
# hosted by the Cambridge Crystallographic Data Centre (CCDC).
#
# This work is licensed under the Creative Commons
# Attribution-NonCommercial-ShareAlike 4.0 International License.
# To view a copy of this license, visit
# http://creativecommons.org/licenses/by-nc-sa/4.0/
# or send a letter to
# Creative Commons, PO Box 1866, Mountain View, CA 94042, USA.
#
# CIF created using the CSD Python API on 29 September 2022
# The structure has been converted into the P1 space group
# The structure has a 3D framework
# The original CSD entry UZAXUR is in the monoclinic crystal system
# The framework has been calculated to contain at least 10.0% void space
# The void calculation uses a probe of radius 1.32A, grid spacing 0.4
#
###############################################################################

data_UZAXUR
_chemical_formula_moiety         '(C144 H80 Co4 N24 O15 S8)n'
_symmetry_cell_setting           triclinic
_symmetry_space_group_name_H-M   'P 1'
_symmetry_Int_Tables_number      1
_space_group_name_Hall           'P 1'
loop_
_symmetry_equiv_pos_site_id
_symmetry_equiv_pos_as_xyz
1 x,y,z
_cell_length_a                   18.1591(4)
_cell_length_b                   15.7510(3)
_cell_length_c                   15.6261(4)
_cell_angle_alpha                90
_cell_angle_beta                 112.697(3)
_cell_angle_gamma                90
_cell_volume                     4123.32
loop_
_atom_site_label
_atom_site_type_symbol
_atom_site_fract_x
_atom_site_fract_y
_atom_site_fract_z
O3 O 0.3357(3) 0.3196(3) 0.4153(3)
O4 O 0.4225(2) 0.3382(3) 0.5583(3)
C27 C 0.2861(4) 0.3711(6) 0.5258(5)
C31 C 0.3011(5) 0.4178(6) 0.5994(6)
H16 H 0.353744 0.430334 0.637211
C35 C 0.0958(4) 0.4753(6) 0.5904(5)
C40 C 0.3529(4) 0.3400(6) 0.4994(5)
C54 C 0.0144(4) 0.4785(6) 0.5249(5)
C56 C 0.0458(4) 0.5468(5) 0.6978(5)
H29 H 0.059196 0.570158 0.756606
C57 C 0.1076(4) 0.5095(6) 0.6744(6)
H30 H 0.159128 0.508657 0.719659
C58 C 0.2388(5) 0.4494(6) 0.6224(6)
H31 H 0.251476 0.480907 0.676524
C64 C 0.1617(4) 0.4360(6) 0.5692(6)
C71 C 0.2075(5) 0.3386(7) 0.4801(6)
H39 H 0.197597 0.292905 0.439469
C72 C 0.1474(5) 0.3762(7) 0.4976(6)
H40 H 0.094907 0.361863 0.461029
Co5 Co 0.46427(5) 0.32121(5) 0.44711(6)
C9 C 0.5289(4) 0.0496(4) 0.4865(5)
H5 H 0.574363 0.019527 0.522613
C18 C 0.4619(4) 0.0063(4) 0.4260(5)
N8 N 0.4643(4) 0.1850(3) 0.4444(5)
C41 C 0.5278(4) 0.1384(4) 0.4929(5)
H21 H 0.573500 0.165839 0.532813
C60 C 0.3953(5) 0.0575(4) 0.3750(5)
H32 H 0.348832 0.032611 0.333529
C65 C 0.3995(5) 0.1434(4) 0.3867(5)
H33 H 0.354568 0.175301 0.352695
Co2 Co 0.60472(5) 0.30697(4) 0.29862(5)
S2 S 0.36251(15) 0.82088(11) 0.18215(13)
O1 O 0.4914(3) 0.3088(2) 0.2013(3)
N1 N 0.6048(4) 0.1710(3) 0.3018(4)
O5 O 0.6495(3) 0.3232(3) 0.1911(4)
C3 C 0.3527(4) 0.3182(3) 0.1588(4)
O7 O 0.4478(3) 0.3189(3) 0.3130(3)
N3 N 0.4640(3) 0.4571(3) 0.4386(3)
C10 C 0.6682(4) 0.1300(4) 0.3635(4)
H6 H 0.711221 0.162166 0.401848
C11 C 0.5241(4) 0.5921(4) 0.4948(5)
H7 H 0.566210 0.622235 0.537680
N5 N 0.3893(4) 0.9013(4) 0.2521(4)
C14 C 0.4616(4) 0.7289(4) 0.4230(4)
O8 O 0.7396(3) 0.3008(3) 0.3288(4)
C15 C 0.4616(4) 0.6364(4) 0.4245(4)
C16 C 0.4617(4) 0.9129(4) 0.4230(5)
N6 N 0.3922(4) 0.7426(4) 0.2530(4)
C19 C 0.5416(4) 0.1243(3) 0.2490(4)
H10 H 0.496428 0.151525 0.207650
C22 C 0.4363(4) 0.3147(3) 0.2293(4)
C25 C 0.8295(4) 0.4525(4) 0.1303(5)
H13 H 0.819578 0.501186 0.093959
C30 C 0.4963(4) 0.7772(4) 0.5011(5)
H15 H 0.520757 0.749407 0.557574
C32 C 0.5229(4) 0.5057(4) 0.4999(4)
H17 H 0.564108 0.478673 0.547473
C33 C 0.2867(4) 0.3168(4) 0.1871(5)
H18 H 0.295829 0.314285 0.249825
C34 C 0.9042(4) 0.4149(5) 0.1611(5)
C36 C 0.9194(4) 0.3409(5) 0.2174(5)
H19 H 0.968719 0.313979 0.236831
C37 C 0.1939(4) 0.3217(4) 0.0286(5)
C38 C 0.5423(4) 0.0360(3) 0.2547(4)
H20 H 0.497830 0.005103 0.217346
N11 N 0.0453(4) 0.2525(5) 0.0531(5)
C39 C 0.7207(4) 0.3210(4) 0.2459(5)
C42 C 0.6728(4) 0.0438(4) 0.3727(5)
H22 H 0.717770 0.017969 0.416183
C45 C 0.4010(4) 0.5865(4) 0.3647(5)
H24 H 0.357414 0.612004 0.318800
C47 C 0.7839(4) 0.3498(5) 0.2146(5)
C49 C 0.2589(4) 0.3238(5) 0.0006(5)
C50 C 0.4971(5) 0.8668(4) 0.5010(5)
H26 H 0.523141 0.895131 0.556759
C51 C 0.7695(4) 0.4179(4) 0.1532(5)
H27 H 0.718275 0.440496 0.127062
C52 C 0.9518(4) 0.4859(5) 0.0470(5)
C53 C 0.8591(5) 0.3093(5) 0.2430(5)
H28 H 0.868500 0.260663 0.279471
C59 C 0.9687(4) 0.4507(5) 0.1377(5)
C61 C 0.4249(4) 0.7771(4) 0.3386(4)
C62 C 0.4249(4) 0.8668(4) 0.3379(5)
C66 C 0.4045(4) 0.4997(4) 0.3721(5)
H34 H 0.363527 0.468326 0.328969
C68 C 0.2110(4) 0.3192(4) 0.1232(5)
H36 H 0.168952 0.319118 0.143203
C70 C 0.3377(4) 0.3234(4) 0.0650(5)
H38 H 0.379750 0.326519 0.045170
O9 O 0.6357(3) 0.3023(3) 0.4364(3)
O12 O 0.5808(2) 0.3255(3) 0.5380(3)
N13 N 0.6073(3) 0.4430(3) 0.3080(4)
S1 S 0.71156(15) 0.80943(9) 0.56141(12)
C1 C 0.6477(4) 0.8542(3) 0.4058(4)
C2 C 0.6681(3) 0.4843(3) 0.3740(4)
H1 H 0.709238 0.452408 0.416144
C4 C 0.6720(4) 0.5722(3) 0.3819(4)
H2 H 0.714919 0.598312 0.428221
C5 C 0.6487(4) 0.7621(3) 0.4060(4)
C7 C 0.5733(4) 0.8518(3) 0.2410(4)
H4 H 0.547515 0.879705 0.184850
N4 N 0.6845(4) 0.7299(3) 0.4919(3)
C12 C 0.6108(4) 0.6203(3) 0.3194(4)
C17 C 0.5743(4) 0.7616(3) 0.2428(4)
H9 H 0.548368 0.732668 0.187294
C20 C 0.6113(4) 0.7149(3) 0.3218(4)
C23 C 0.5490(4) 0.4901(3) 0.2491(4)
H12 H 0.506479 0.462483 0.203798
N7 N 0.6817(4) 0.8874(3) 0.4901(4)
C24 C 0.6097(4) 0.8991(3) 0.3207(4)
C26 C 0.6075(4) 0.9947(3) 0.3146(4)
C29 C 0.5478(4) 0.5791(3) 0.2513(4)
H14 H 0.505991 0.609650 0.208319
C6 C 0.8633(4) 0.3138(4) 0.6439(5)
H3 H 0.908795 0.304527 0.631372
C8 C 0.6400(4) 0.3170(3) 0.5147(4)
C13 C 0.7288(4) 0.3429(4) 0.6802(4)
H8 H 0.683124 0.354143 0.691587
C21 C 0.7880(4) 0.3115(4) 0.5720(5)
H11 H 0.783206 0.301374 0.511411
C28 C 0.9501(5) 0.3311(5) 0.8112(5)
N10 N 0.9080(4) 0.2601(5) 0.9277(5)
C43 C 0.8705(4) 0.3302(5) 0.7357(5)
C44 C 0.8024(4) 0.3451(5) 0.7525(5)
H23 H 0.806185 0.356597 0.812452
C46 C 0.7217(4) 0.3241(4) 0.5907(5)
C55 C 0.9634(4) 0.2951(5) 0.9051(5)
S1_2 S 0.71156(15) 0.19057(9) 0.06141(12)
N2 N 0.6073(3) 0.5570(3) 0.8080(4)
C1_2 C 0.6477(4) 0.1458(3) 0.9058(4)
C2_2 C 0.6681(3) 0.5157(3) 0.8740(4)
H1_2 H 0.709238 0.547592 0.916144
C4_2 C 0.6720(4) 0.4278(3) 0.8819(4)
H2_2 H 0.714919 0.401688 0.928221
C5_2 C 0.6487(4) 0.2379(3) 0.9060(4)
C7_2 C 0.5733(4) 0.1482(3) 0.7410(4)
H4_2 H 0.547515 0.120295 0.684850
N4_2 N 0.6845(4) 0.2701(3) 0.9919(3)
C12_2 C 0.6108(4) 0.3797(3) 0.8194(4)
C17_2 C 0.5743(4) 0.2384(3) 0.7428(4)
H9_2 H 0.548368 0.267332 0.687294
C20_2 C 0.6113(4) 0.2851(3) 0.8218(4)
C23_2 C 0.5490(4) 0.5099(3) 0.7491(4)
H12_2 H 0.506479 0.537517 0.703798
N7_2 N 0.6817(4) 0.1126(3) 0.9901(4)
C24_2 C 0.6097(4) 0.1009(3) 0.8207(4)
C26_2 C 0.6075(4) 0.0053(3) 0.8146(4)
C29_2 C 0.5478(4) 0.4209(3) 0.7513(4)
H14_2 H 0.505991 0.390350 0.708319
Co7 Co 0.60472(5) 0.69303(4) 0.79862(5)
Co1 Co 0.46427(5) 0.67879(5) 0.94711(6)
S2_2 S 0.36251(15) 0.17912(11) 0.68215(13)
S4 S 0.89445(12) 0.47163(17) 0.38856(15)
O1_2 O 0.4914(3) 0.6912(2) 0.7013(3)
N1_2 N 0.6048(4) 0.8290(3) 0.8018(4)
O5_2 O 0.6495(3) 0.6768(3) 0.6911(4)
C3_2 C 0.3527(4) 0.6818(3) 0.6588(4)
O7_2 O 0.4478(3) 0.6811(3) 0.8130(3)
N3_2 N 0.4640(3) 0.5429(3) 0.9386(3)
C10_2 C 0.6682(4) 0.8700(4) 0.8635(4)
H6_2 H 0.711221 0.837834 0.901848
C11_2 C 0.5241(4) 0.4079(4) 0.9948(5)
N5_2 N 0.3893(4) 0.0987(4) 0.7521(4)
C14_2 C 0.4616(4) 0.2711(4) 0.9230(4)
O8_2 O 0.7396(3) 0.6992(3) 0.8288(4)
C15_2 C 0.4616(4) 0.3636(4) 0.9245(4)
C16_2 C 0.4617(4) 0.0871(4) 0.9230(5)
N6_2 N 0.3922(4) 0.2574(4) 0.7530(4)
C19_2 C 0.5416(4) 0.8757(3) 0.7490(4)
H10_2 H 0.496428 0.848475 0.707650
C22_2 C 0.4363(4) 0.6853(3) 0.7293(4)
C25_2 C 0.8295(4) 0.5475(4) 0.6303(5)
H13_2 H 0.819578 0.498814 0.593959
N9 N 0.8813(4) 0.5163(5) 0.4741(4)
C32_2 C 0.5229(4) 0.4943(4) 0.9999(4)
C33_2 C 0.2867(4) 0.6832(4) 0.6871(5)
H18_2 H 0.295829 0.685715 0.749825
C34_2 C 0.9042(4) 0.5851(5) 0.6611(5)
C36_2 C 0.9194(4) 0.6591(5) 0.7174(5)
H19_2 H 0.968719 0.686021 0.736831
C37_2 C 0.1939(4) 0.6783(4) 0.5286(5)
C38_2 C 0.5423(4) 0.9640(3) 0.7547(4)
H20_2 H 0.497830 0.994897 0.717346
N11_2 N 0.0453(4) 0.7475(5) 0.5531(5)
C39_2 C 0.7207(4) 0.6790(4) 0.7459(5)
C42_2 C 0.6728(4) 0.9562(4) 0.8727(5)
H22_2 H 0.717770 0.982031 0.916183
C45_2 C 0.4010(4) 0.4135(4) 0.8647(5)
H24_2 H 0.357414 0.387996 0.818800
C47_2 C 0.7839(4) 0.6502(5) 0.7146(5)
C48 C 0.1107(5) 0.6748(5) 0.4581(5)
C49_2 C 0.2589(4) 0.6762(5) 0.5006(5)
H25 H 0.249111 0.674454 0.437629
C51_2 C 0.7695(4) 0.5821(4) 0.6532(5)
H27_2 H 0.718275 0.559504 0.627062
C52_2 C 0.9518(4) 0.5141(5) 0.5470(5)
C53_2 C 0.8591(5) 0.6907(5) 0.7430(5)
H28_2 H 0.868500 0.739337 0.779471
N12 N 0.9890(4) 0.4516(5) 0.4345(5)
C59_2 C 0.9687(4) 0.5493(5) 0.6377(5)
C61_2 C 0.4249(4) 0.2229(4) 0.8386(4)
C62_2 C 0.4249(4) 0.1332(4) 0.8379(5)
C63 C 0.0430(4) 0.7079(5) 0.4762(5)
C66_2 C 0.4045(4) 0.5003(4) 0.8721(5)
H34_2 H 0.363527 0.531674 0.828969
C67 C 0.0148(4) 0.6381(5) 0.3030(5)
H35 H 0.009218 0.614243 0.246348
C68_2 C 0.2110(4) 0.6808(4) 0.6232(5)
H36_2 H 0.168952 0.680882 0.643203
C69 C 0.0923(4) 0.6390(5) 0.3745(5)
H37 H 0.133247 0.612805 0.362584
C70_2 C 0.3377(4) 0.6766(4) 0.5650(5)
H38_2 H 0.379750 0.673481 0.545170
O9_2 O 0.6357(3) 0.6977(3) 0.9364(3)
O10 O 0.3357(3) 0.6804(3) 0.9153(3)
N14 N 0.4643(4) 0.8150(3) 0.9444(5)
C9_2 C 0.5289(4) 0.9504(4) 0.9865(5)
C18_2 C 0.4619(4) 0.9937(4) 0.9260(5)
C41_2 C 0.5278(4) 0.8616(4) 0.9929(5)
C60_2 C 0.3953(5) 0.9425(4) 0.8750(5)
H32_2 H 0.348832 0.967389 0.833529
C65_2 C 0.3995(5) 0.8566(4) 0.8867(5)
H33_2 H 0.354568 0.824699 0.852695
C40_2 C 0.3529(4) 0.6600(6) 0.9994(5)
C71_2 C 0.2075(5) 0.6614(7) 0.9801(6)
H39_2 H 0.197597 0.707095 0.939469
C72_2 C 0.1474(5) 0.6238(7) 0.9976(6)
H40_2 H 0.094907 0.638137 0.961029
H7_2 H 0.566210 0.377765 0.037680
C30_2 C 0.4963(4) 0.2228(4) 0.0011(5)
H15_2 H 0.520757 0.250593 0.057574
H17_2 H 0.564108 0.521327 0.047473
C50_2 C 0.4971(5) 0.1332(4) 0.0010(5)
H26_2 H 0.523141 0.104869 0.056759
O11 O 0.4225(2) 0.6618(3) 0.0583(3)
O12_2 O 0.5808(2) 0.6745(3) 0.0380(3)
S3 S 0.95352(13) 0.77478(19) 0.53357(15)
C6_2 C 0.8633(4) 0.6862(4) 0.1439(5)
H3_2 H 0.908795 0.695473 0.131372
C8_2 C 0.6400(4) 0.6830(3) 0.0147(4)
C13_2 C 0.7288(4) 0.6571(4) 0.1802(4)
H8_2 H 0.683124 0.645857 0.191587
C21_2 C 0.7880(4) 0.6885(4) 0.0720(5)
H11_2 H 0.783206 0.698626 0.011411
C28_2 C 0.9501(5) 0.6689(5) 0.3112(5)
N10_2 N 0.9080(4) 0.7399(5) 0.4277(5)
C43_2 C 0.8705(4) 0.6698(5) 0.2357(5)
C44_2 C 0.8024(4) 0.6549(5) 0.2525(5)
H23_2 H 0.806185 0.643403 0.312452
C46_2 C 0.7217(4) 0.6759(4) 0.0907(5)
C55_2 C 0.9634(4) 0.7049(5) 0.4051(5)
C27_2 C 0.2861(4) 0.6289(6) 0.0258(5)
C31_2 C 0.3011(5) 0.5822(6) 0.0994(6)
H16_2 H 0.353744 0.569666 0.137211
C35_2 C 0.0958(4) 0.5247(6) 0.0904(5)
C54_2 C 0.0144(4) 0.5215(6) 0.0249(5)
C56_2 C 0.0458(4) 0.4532(5) 0.1978(5)
H29_2 H 0.059196 0.429842 0.256606
C57_2 C 0.1076(4) 0.4905(6) 0.1744(6)
H30_2 H 0.159128 0.491343 0.219659
C58_2 C 0.2388(5) 0.5506(6) 0.1224(6)
H31_2 H 0.251476 0.519093 0.176524
C64_2 C 0.1617(4) 0.5640(6) 0.0692(6)
H5_2 H 0.574363 0.980473 0.022613
H21_2 H 0.573500 0.834161 0.032813
S4_2 S 0.89445(12) 0.52837(17) 0.88856(15)
N9_2 N 0.8813(4) 0.4837(5) 0.9741(4)
C48_2 C 0.1107(5) 0.3252(5) 0.9581(5)
H25_2 H 0.249111 0.325546 0.937629
N12_2 N 0.9890(4) 0.5484(5) 0.9345(5)
C63_2 C 0.0430(4) 0.2921(5) 0.9762(5)
C67_2 C 0.0148(4) 0.3619(5) 0.8030(5)
H35_2 H 0.009218 0.385757 0.746348
C69_2 C 0.0923(4) 0.3610(5) 0.8745(5)
H37_2 H 0.133247 0.387195 0.862584
S3_2 S 0.95352(13) 0.22522(19) 0.03357(15)
loop_
_geom_bond_atom_site_label_1
_geom_bond_atom_site_label_2
_geom_bond_site_symmetry_1
_geom_bond_site_symmetry_2
O3 C40 1_555 1_555
O4 C40 1_555 1_555
C27 C31 1_555 1_555
C31 H16 1_555 1_555
C35 C54 1_555 1_555
C40 C27 1_555 1_555
C56 H29 1_555 1_555
C57 C35 1_555 1_555
H30 C57 1_555 1_555
C58 C31 1_555 1_555
H31 C58 1_555 1_555
C64 C35 1_555 1_555
C71 C27 1_555 1_555
H39 C71 1_555 1_555
C72 C64 1_555 1_555
H40 C72 1_555 1_555
Co5 O3 1_555 1_555
O4 Co5 1_555 1_555
C56 C57 1_555 1_555
C58 C64 1_555 1_555
C71 C72 1_555 1_555
C9 H5 1_555 1_555
C18 C9 1_555 1_555
N8 C41 1_555 1_555
C41 C9 1_555 1_555
H21 C41 1_555 1_555
C60 C18 1_555 1_555
H32 C60 1_555 1_555
C65 N8 1_555 1_555
H33 C65 1_555 1_555
Co5 N8 1_555 1_555
C60 C65 1_555 1_555
Co5 O7 1_555 1_555
Co2 O1 1_555 1_555
S2 N5 1_555 1_555
O1 C22 1_555 1_555
N1 Co2 1_555 1_555
O5 Co2 1_555 1_555
C3 C22 1_555 1_555
O7 C22 1_555 1_555
N3 Co5 1_555 1_555
C10 N1 1_555 1_555
H6 C10 1_555 1_555
C11 H7 1_555 1_555
N5 C62 1_555 1_555
C14 C15 1_555 1_555
O8 Co2 1_555 1_555
C15 C11 1_555 1_555
N6 S2 1_555 1_555
C19 N1 1_555 1_555
H10 C19 1_555 1_555
C25 H13 1_555 1_555
C30 C14 1_555 1_555
H15 C30 1_555 1_555
C32 N3 1_555 1_555
H17 C32 1_555 1_555
C33 C3 1_555 1_555
H18 C33 1_555 1_555
C34 C25 1_555 1_555
C36 C34 1_555 1_555
H19 C36 1_555 1_555
C38 C19 1_555 1_555
H20 C38 1_555 1_555
C39 O5 1_555 1_555
C42 C10 1_555 1_555
H22 C42 1_555 1_555
C45 C15 1_555 1_555
H24 C45 1_555 1_555
C47 C39 1_555 1_555
C49 C37 1_555 1_555
C50 C16 1_555 1_555
H26 C50 1_555 1_555
C51 C25 1_555 1_555
H27 C51 1_555 1_555
C53 C36 1_555 1_555
H28 C53 1_555 1_555
C59 C34 1_555 1_555
C61 C14 1_555 1_555
C62 C16 1_555 1_555
C66 N3 1_555 1_555
H34 C66 1_555 1_555
C68 C33 1_555 1_555
H36 C68 1_555 1_555
C70 C3 1_555 1_555
H38 C70 1_555 1_555
O9 Co2 1_555 1_555
O12 Co5 1_555 1_555
N13 Co2 1_555 1_555
C11 C32 1_555 1_555
O8 C39 1_555 1_555
N6 C61 1_555 1_555
C30 C50 1_555 1_555
C37 C68 1_555 1_555
C45 C66 1_555 1_555
C47 C51 1_555 1_555
C47 C53 1_555 1_555
C49 C70 1_555 1_555
C52 C59 1_555 1_555
C61 C62 1_555 1_555
S1 N4 1_555 1_555
N13 C2 1_555 1_555
C1 C5 1_555 1_555
C2 H1 1_555 1_555
C4 C2 1_555 1_555
H2 C4 1_555 1_555
C5 N4 1_555 1_555
C7 H4 1_555 1_555
C12 C4 1_555 1_555
C17 C7 1_555 1_555
H9 C17 1_555 1_555
C20 C5 1_555 1_555
C23 N13 1_555 1_555
H12 C23 1_555 1_555
N7 S1 1_555 1_555
C24 C1 1_555 1_555
C26 C24 1_555 1_555
C29 C12 1_555 1_555
H14 C29 1_555 1_555
C1 N7 1_555 1_555
C7 C24 1_555 1_555
C12 C20 1_555 1_555
C17 C20 1_555 1_555
C23 C29 1_555 1_555
O9 C8 1_555 1_555
O12 C8 1_555 1_555
C6 H3 1_555 1_555
C8 C46 1_555 1_555
C13 H8 1_555 1_555
C21 C6 1_555 1_555
H11 C21 1_555 1_555
C28 C43 1_555 1_555
N10 C55 1_555 1_555
C43 C6 1_555 1_555
C44 C13 1_555 1_555
H23 C44 1_555 1_555
C46 C13 1_555 1_555
C55 C28 1_555 1_555
C21 C46 1_555 1_555
C43 C44 1_555 1_555
N2 C2_2 1_555 1_555
C1_2 C5_2 1_555 1_555
C2_2 H1_2 1_555 1_555
C4_2 C2_2 1_555 1_555
H2_2 C4_2 1_555 1_555
C5_2 N4_2 1_555 1_555
C7_2 H4_2 1_555 1_555
C12_2 C4_2 1_555 1_555
C17_2 C7_2 1_555 1_555
H9_2 C17_2 1_555 1_555
C20_2 C5_2 1_555 1_555
C23_2 N2 1_555 1_555
H12_2 C23_2 1_555 1_555
C24_2 C1_2 1_555 1_555
C26_2 C24_2 1_555 1_555
C29_2 C12_2 1_555 1_555
H14_2 C29_2 1_555 1_555
Co7 N2 1_555 1_555
C1_2 N7_2 1_555 1_555
C7_2 C24_2 1_555 1_555
C12_2 C20_2 1_555 1_555
C17_2 C20_2 1_555 1_555
C23_2 C29_2 1_555 1_555
Co1 O7_2 1_555 1_555
Co7 O1_2 1_555 1_555
S2_2 N5_2 1_555 1_555
S4 N9 1_555 1_555
O1_2 C22_2 1_555 1_555
N1_2 Co7 1_555 1_555
O5_2 Co7 1_555 1_555
C3_2 C22_2 1_555 1_555
O7_2 C22_2 1_555 1_555
N3_2 Co1 1_555 1_555
C10_2 N1_2 1_555 1_555
H6_2 C10_2 1_555 1_555
N5_2 C62_2 1_555 1_555
C14_2 C15_2 1_555 1_555
O8_2 Co7 1_555 1_555
C15_2 C11_2 1_555 1_555
N6_2 S2_2 1_555 1_555
C19_2 N1_2 1_555 1_555
H10_2 C19_2 1_555 1_555
C25_2 H13_2 1_555 1_555
N9 C52_2 1_555 1_555
C32_2 N3_2 1_555 1_555
C33_2 C3_2 1_555 1_555
H18_2 C33_2 1_555 1_555
C34_2 C25_2 1_555 1_555
C36_2 C34_2 1_555 1_555
H19_2 C36_2 1_555 1_555
C37_2 C48 1_555 1_555
C38_2 C19_2 1_555 1_555
H20_2 C38_2 1_555 1_555
C39_2 O5_2 1_555 1_555
C42_2 C10_2 1_555 1_555
H22_2 C42_2 1_555 1_555
C45_2 C15_2 1_555 1_555
H24_2 C45_2 1_555 1_555
C47_2 C39_2 1_555 1_555
C48 C63 1_555 1_555
C49_2 C37_2 1_555 1_555
H25 C49_2 1_555 1_555
C51_2 C25_2 1_555 1_555
H27_2 C51_2 1_555 1_555
C53_2 C36_2 1_555 1_555
H28_2 C53_2 1_555 1_555
N12 S4 1_555 1_555
C59_2 C34_2 1_555 1_555
C61_2 C14_2 1_555 1_555
C62_2 C16_2 1_555 1_555
C63 N11_2 1_555 1_555
C66_2 N3_2 1_555 1_555
H34_2 C66_2 1_555 1_555
H35 C67 1_555 1_555
C68_2 C33_2 1_555 1_555
H36_2 C68_2 1_555 1_555
C69 C48 1_555 1_555
H37 C69 1_555 1_555
C70_2 C3_2 1_555 1_555
H38_2 C70_2 1_555 1_555
O9_2 Co7 1_555 1_555
O10 Co1 1_555 1_555
N14 Co1 1_555 1_555
C11_2 C32_2 1_555 1_555
O8_2 C39_2 1_555 1_555
N6_2 C61_2 1_555 1_555
C37_2 C68_2 1_555 1_555
C45_2 C66_2 1_555 1_555
C47_2 C51_2 1_555 1_555
C47_2 C53_2 1_555 1_555
C49_2 C70_2 1_555 1_555
C52_2 C59_2 1_555 1_555
C61_2 C62_2 1_555 1_555
C67 C69 1_555 1_555
C18_2 C9_2 1_555 1_555
N14 C41_2 1_555 1_555
C41_2 C9_2 1_555 1_555
C60_2 C18_2 1_555 1_555
H32_2 C60_2 1_555 1_555
C65_2 N14 1_555 1_555
H33_2 C65_2 1_555 1_555
C60_2 C65_2 1_555 1_555
O10 C40_2 1_555 1_555
H39_2 C71_2 1_555 1_555
H40_2 C72_2 1_555 1_555
C71_2 C72_2 1_555 1_555
H15_2 C30_2 1_555 1_555
H26_2 C50_2 1_555 1_555
C30_2 C50_2 1_555 1_555
S3 N10_2 1_555 1_555
O12_2 C8_2 1_555 1_555
C6_2 H3_2 1_555 1_555
C8_2 C46_2 1_555 1_555
C13_2 H8_2 1_555 1_555
C21_2 C6_2 1_555 1_555
H11_2 C21_2 1_555 1_555
C28_2 C43_2 1_555 1_555
N10_2 C55_2 1_555 1_555
C43_2 C6_2 1_555 1_555
C44_2 C13_2 1_555 1_555
H23_2 C44_2 1_555 1_555
C46_2 C13_2 1_555 1_555
C55_2 C28_2 1_555 1_555
C21_2 C46_2 1_555 1_555
C43_2 C44_2 1_555 1_555
C27_2 C31_2 1_555 1_555
C31_2 H16_2 1_555 1_555
C35_2 C54_2 1_555 1_555
C56_2 H29_2 1_555 1_555
C57_2 C35_2 1_555 1_555
H30_2 C57_2 1_555 1_555
C58_2 C31_2 1_555 1_555
H31_2 C58_2 1_555 1_555
C64_2 C35_2 1_555 1_555
C56_2 C57_2 1_555 1_555
C58_2 C64_2 1_555 1_555
S4_2 N9_2 1_555 1_555
C48_2 C63_2 1_555 1_555
N12_2 S4_2 1_555 1_555
H35_2 C67_2 1_555 1_555
C69_2 C48_2 1_555 1_555
H37_2 C69_2 1_555 1_555
C67_2 C69_2 1_555 1_555

#END
