
###############################################################################
#
# This file contains modified crystal structure data generated from the
# MOF subset of the Cambridge Structural Database (CSD) v543 
# hosted by the Cambridge Crystallographic Data Centre (CCDC).
#
# This work is licensed under the Creative Commons
# Attribution-NonCommercial-ShareAlike 4.0 International License.
# To view a copy of this license, visit
# http://creativecommons.org/licenses/by-nc-sa/4.0/
# or send a letter to
# Creative Commons, PO Box 1866, Mountain View, CA 94042, USA.
#
# CIF created using the CSD Python API on 29 September 2022
# The structure has been converted into the P1 space group
# The structure has a 3D framework
# The original CSD entry UZIGOB is in the monoclinic crystal system
# The framework has been calculated to contain at least 10.0% void space
# The void calculation uses a probe of radius 1.32A, grid spacing 0.4
#
###############################################################################

data_UZIGOB
_chemical_formula_moiety         '(C44 H52 N16 O24 P8 Zn6)n'
_symmetry_cell_setting           triclinic
_symmetry_space_group_name_H-M   'P 1'
_symmetry_Int_Tables_number      1
_space_group_name_Hall           'P 1'
loop_
_symmetry_equiv_pos_site_id
_symmetry_equiv_pos_as_xyz
1 x,y,z
_cell_length_a                   10.3277(3)
_cell_length_b                   17.6705(6)
_cell_length_c                   10.6009(3)
_cell_angle_alpha                90
_cell_angle_beta                 91.7000(10)
_cell_angle_gamma                90
_cell_volume                     1933.77
loop_
_atom_site_label
_atom_site_type_symbol
_atom_site_fract_x
_atom_site_fract_y
_atom_site_fract_z
H24 H 0.0631 0.0050 0.7075
Zn8 Zn 0.01116(5) 0.17478(3) 0.80813(5)
Zn1 Zn 0.23374(5) 0.16877(3) 0.49456(4)
P1 P 0.29878(9) 0.22838(6) 0.76253(9)
H1 H 0.4022 0.1931 0.8048
O1 O 0.1967(3) 0.17178(17) 0.7977(3)
O2 O 0.3091(3) 0.23885(18) 0.6205(2)
O3 O 0.2860(3) 0.30439(19) 0.8270(3)
O4 O 0.0508(3) 0.1543(2) 0.5001(3)
N1 N 0.3169(3) 0.0685(2) 0.5417(3)
C1 C 0.4262(4) 0.0635(3) 0.6076(4)
H3 H 0.4823 0.1038 0.6234
C6 C 0.4112(4) 0.0207(2) 0.9089(3)
H8 H 0.3507 0.0349 0.8466
H10 H 0.2251 0.0985 0.9852
N8 N 0.9522(4) 0.0677(2) 0.8240(4)
C20 C 0.8552(4) 0.0437(3) 0.8917(4)
H22 H 0.8075 0.0745 0.9442
C22 C 0.9947(6) 0.0056(3) 0.7626(6)
Zn7 Zn 0.23374(5) 0.33123(3) 0.99456(4)
Zn10 Zn 0.01116(5) 0.32522(3) 0.30813(5)
O14 O 0.2860(3) 0.19561(19) 0.3270(3)
N4 N 0.0478(4) 0.9323(2) 0.1760(4)
C9 C 0.1448(4) 0.9563(3) 0.1083(4)
H11 H 0.1925 0.9255 0.0558
C11 C 0.0053(6) 0.9944(3) 0.2374(6)
N5 N 0.6831(3) 0.9315(2) 0.4583(3)
C12 C 0.5738(4) 0.9365(3) 0.3924(4)
H14 H 0.5177 0.8962 0.3766
C17 C 0.5888(4) 0.9793(2) 0.0911(3)
H19 H 0.6493 0.9651 0.1534
H21 H 0.7749 0.9015 0.0148
P4 P 0.05829(11) 0.79098(8) 0.47121(11)
H26 H 0.1535 0.8199 0.5034
O11 O 0.0545(5) 0.7189(3) 0.5421(4)
O12 O 0.0720(4) 0.7738(3) 0.3326(3)
Zn6 Zn 0.76626(5) 0.83123(3) 0.50544(4)
O15 O 0.0545(5) 0.7811(3) 0.0421(4)
P2 P 0.94171(11) 0.20902(8) 0.52879(11)
H2 H 0.8465 0.1801 0.4966
O5 O 0.9455(5) 0.2811(3) 0.4579(4)
O6 O 0.9280(4) 0.2262(3) 0.6674(3)
O16 O 0.9455(5) 0.2189(3) 0.9579(4)
H13 H 0.9369 0.9950 0.2925
Zn4 Zn 0.98884(5) 0.82522(3) 0.19187(5)
P3 P 0.70122(9) 0.77162(6) 0.23747(9)
H25 H 0.5978 0.8069 0.1952
O7 O 0.8033(3) 0.82822(17) 0.2023(3)
O8 O 0.6909(3) 0.76115(18) 0.3795(2)
O9 O 0.7140(3) 0.69561(19) 0.1730(3)
O10 O 0.9492(3) 0.8457(2) 0.4999(3)
Zn5 Zn 0.76626(5) 0.66877(3) 0.00544(4)
Zn9 Zn 0.98884(5) 0.67478(3) 0.69187(5)
O13 O 0.7140(3) 0.80439(19) 0.6730(3)
H2_2 H 0.1535 0.6801 0.0034
P2_2 P 0.05829(11) 0.70902(8) 0.97121(11)
O6_2 O 0.0720(4) 0.7262(3) 0.8326(3)
H13_2 H 0.0631 0.4950 0.2075
P3_2 P 0.29878(9) 0.27162(6) 0.26253(9)
H25_2 H 0.4022 0.3069 0.3048
O7_2 O 0.1967(3) 0.32822(17) 0.2977(3)
O8_2 O 0.3091(3) 0.26115(18) 0.1205(2)
O10_2 O 0.0508(3) 0.3457(2) 0.0001(3)
N9 N 0.3169(3) 0.4315(2) 0.0417(3)
N10 N 0.0478(4) 0.5677(2) 0.6760(4)
P1_2 P 0.70122(9) 0.72838(6) 0.73747(9)
H1_2 H 0.5978 0.6931 0.6952
O1_2 O 0.8033(3) 0.67178(17) 0.7023(3)
O2_2 O 0.6909(3) 0.73885(18) 0.8795(2)
O4_2 O 0.9492(3) 0.6543(2) 0.9999(3)
N1_2 N 0.6831(3) 0.5685(2) 0.9583(3)
N2 N 0.5534(4) 0.4926(2) 0.8506(3)
N3 N 0.8338(3) 0.5304(2) 0.3753(3)
N4_2 N 0.9522(4) 0.4323(2) 0.3240(4)
C1_2 C 0.5738(4) 0.5635(3) 0.8924(4)
H3_2 H 0.5177 0.6038 0.8766
C2 C 0.7359(4) 0.4982(3) 0.9588(4)
H4 H 0.8140 0.4850 0.9988
C3 C 0.6574(5) 0.4501(3) 0.8921(4)
H5 H 0.6713 0.3989 0.8775
C4 C 0.4485(5) 0.4683(3) 0.7642(4)
H6 H 0.3693 0.4940 0.7863
H7 H 0.4349 0.4144 0.7744
C5 C 0.4763(4) 0.4847(2) 0.6269(3)
C6_2 C 0.5888(4) 0.5207(2) 0.5911(3)
H8_2 H 0.6493 0.5349 0.6534
C7 C 0.6147(4) 0.5364(2) 0.4671(3)
C8 C 0.7368(4) 0.5782(2) 0.4372(4)
H9 H 0.7150 0.6206 0.3824
H10_2 H 0.7749 0.5985 0.5148
C9_2 C 0.8552(4) 0.4563(3) 0.3917(4)
H11_2 H 0.8075 0.4255 0.4442
C10 C 0.9231(5) 0.5555(3) 0.2931(5)
H12 H 0.9330 0.6047 0.2639
C11_2 C 0.9947(6) 0.4944(3) 0.2626(6)
N6 N 0.4466(4) 0.5074(2) 0.1494(3)
N7 N 0.1662(3) 0.4696(2) 0.6247(3)
C12_2 C 0.4262(4) 0.4365(3) 0.1076(4)
H14_2 H 0.4823 0.3962 0.1234
C13 C 0.2641(4) 0.5018(3) 0.0412(4)
H15 H 0.1860 0.5150 0.0012
C14 C 0.3426(5) 0.5499(3) 0.1079(4)
H16 H 0.3287 0.6011 0.1225
C15 C 0.5515(5) 0.5317(3) 0.2358(4)
H17 H 0.6307 0.5060 0.2137
H18 H 0.5651 0.5856 0.2256
C16 C 0.5237(4) 0.5153(2) 0.3731(3)
C17_2 C 0.4112(4) 0.4793(2) 0.4089(3)
H19_2 H 0.3507 0.4651 0.3466
C18 C 0.3853(4) 0.4636(2) 0.5329(3)
C19 C 0.2632(4) 0.4218(2) 0.5628(4)
H20 H 0.2850 0.3794 0.6176
H21_2 H 0.2251 0.4015 0.4852
C20_2 C 0.1448(4) 0.5437(3) 0.6083(4)
H22_2 H 0.1925 0.5745 0.5558
C21 C 0.0769(5) 0.4445(3) 0.7069(5)
H23 H 0.0670 0.3953 0.7361
C22_2 C 0.0053(6) 0.5056(3) 0.7374(6)
P4_2 P 0.94171(11) 0.29098(8) 0.02879(11)
O12_2 O 0.9280(4) 0.2738(3) 0.1674(3)
H26_2 H 0.8465 0.3199 0.9966
H24_2 H 0.9369 0.5050 0.7925
N3_2 N 0.1662(3) 0.0304(2) 0.1247(3)
C7_2 C 0.3853(4) 0.0364(2) 0.0329(3)
C8_2 C 0.2632(4) 0.0782(2) 0.0628(4)
H9_2 H 0.2850 0.1206 0.1176
C10_2 C 0.0769(5) 0.0555(3) 0.2069(5)
H12_2 H 0.0670 0.1047 0.2361
N6_2 N 0.5534(4) 0.0074(2) 0.3506(3)
C13_2 C 0.7359(4) 0.0018(3) 0.4588(4)
H15_2 H 0.8140 0.0150 0.4988
C14_2 C 0.6574(5) 0.0499(3) 0.3921(4)
H16_2 H 0.6713 0.1011 0.3775
C15_2 C 0.4485(5) 0.0317(3) 0.2642(4)
H17_2 H 0.3693 0.0060 0.2863
H18_2 H 0.4349 0.0856 0.2744
C16_2 C 0.4763(4) 0.0153(2) 0.1269(3)
N2_2 N 0.4466(4) 0.9926(2) 0.6494(3)
C2_2 C 0.2641(4) 0.9982(3) 0.5412(4)
H4_2 H 0.1860 0.9850 0.5012
C3_2 C 0.3426(5) 0.9501(3) 0.6079(4)
H5_2 H 0.3287 0.8989 0.6225
C4_2 C 0.5515(5) 0.9683(3) 0.7358(4)
H6_2 H 0.6307 0.9940 0.7137
H7_2 H 0.5651 0.9144 0.7256
C5_2 C 0.5237(4) 0.9847(2) 0.8731(3)
N7_2 N 0.8338(3) 0.9696(2) 0.8753(3)
C18_2 C 0.6147(4) 0.9636(2) 0.9671(3)
C19_2 C 0.7368(4) 0.9218(2) 0.9372(4)
H20_2 H 0.7150 0.8794 0.8824
C21_2 C 0.9231(5) 0.9445(3) 0.7931(5)
H23_2 H 0.9330 0.8953 0.7639
loop_
_geom_bond_atom_site_label_1
_geom_bond_atom_site_label_2
_geom_bond_site_symmetry_1
_geom_bond_site_symmetry_2
Zn1 O2 1_555 1_555
Zn8 O1 1_555 1_555
P1 H1 1_555 1_555
O1 P1 1_555 1_555
O2 P1 1_555 1_555
O3 P1 1_555 1_555
O4 Zn1 1_555 1_555
N1 Zn1 1_555 1_555
C1 N1 1_555 1_555
H3 C1 1_555 1_555
H8 C6 1_555 1_555
N8 C20 1_555 1_555
H22 C20 1_555 1_555
C22 N8 1_555 1_555
Zn7 O3 1_555 1_555
O14 Zn1 1_555 1_555
N4 C9 1_555 1_555
H11 C9 1_555 1_555
C11 N4 1_555 1_555
N5 C12 1_555 1_555
C12 H14 1_555 1_555
H19 C17 1_555 1_555
P4 H26 1_555 1_555
O11 P4 1_555 1_555
Zn6 N5 1_555 1_555
P4 O12 1_555 1_555
P2 H2 1_555 1_555
O5 P2 1_555 1_555
P2 O6 1_555 1_555
Zn6 O8 1_555 1_555
P3 H25 1_555 1_555
O7 Zn4 1_555 1_555
O8 P3 1_555 1_555
O9 P3 1_555 1_555
O10 Zn6 1_555 1_555
Zn5 O9 1_555 1_555
O13 Zn6 1_555 1_555
P3 O7 1_555 1_555
P3_2 H25_2 1_555 1_555
O7_2 Zn10 1_555 1_555
O8_2 P3_2 1_555 1_555
O14 P3_2 1_555 1_555
P2_2 O6_2 1_555 1_555
P3_2 O7_2 1_555 1_555
Zn9 O1_2 1_555 1_555
P1_2 H1_2 1_555 1_555
O1_2 P1_2 1_555 1_555
O2_2 P1_2 1_555 1_555
O13 P1_2 1_555 1_555
N2 C1_2 1_555 1_555
N3 C8 1_555 1_555
N4_2 C9_2 1_555 1_555
C1_2 N1_2 1_555 1_555
H3_2 C1_2 1_555 1_555
C2 N1_2 1_555 1_555
H4 C2 1_555 1_555
C3 N2 1_555 1_555
H5 C3 1_555 1_555
C4 N2 1_555 1_555
H6 C4 1_555 1_555
H7 C4 1_555 1_555
C5 C4 1_555 1_555
C6_2 C5 1_555 1_555
H8_2 C6_2 1_555 1_555
C7 C6_2 1_555 1_555
C8 C7 1_555 1_555
H9 C8 1_555 1_555
H10_2 C8 1_555 1_555
C9_2 N3 1_555 1_555
H11_2 C9_2 1_555 1_555
C10 N3 1_555 1_555
H12 C10 1_555 1_555
C11_2 N4_2 1_555 1_555
N9 C12_2 1_555 1_555
N6 C12_2 1_555 1_555
N7 C19 1_555 1_555
N10 C20_2 1_555 1_555
C12_2 H14_2 1_555 1_555
C13 N9 1_555 1_555
H15 C13 1_555 1_555
C14 N6 1_555 1_555
H16 C14 1_555 1_555
C15 N6 1_555 1_555
H17 C15 1_555 1_555
H18 C15 1_555 1_555
C16 C7 1_555 1_555
C17_2 C16 1_555 1_555
H19_2 C17_2 1_555 1_555
C18 C5 1_555 1_555
C19 C18 1_555 1_555
H20 C19 1_555 1_555
H21_2 C19 1_555 1_555
C20_2 N7 1_555 1_555
H22_2 C20_2 1_555 1_555
C21 N7 1_555 1_555
H23 C21 1_555 1_555
C22_2 N10 1_555 1_555
C2 C3 1_555 1_555
C10 C11_2 1_555 1_555
C13 C14 1_555 1_555
C15 C16 1_555 1_555
C17_2 C18 1_555 1_555
C21 C22_2 1_555 1_555
P4_2 O12_2 1_555 1_555
N3_2 C8_2 1_555 1_555
C8_2 C7_2 1_555 1_555
H9_2 C8_2 1_555 1_555
C10_2 N3_2 1_555 1_555
H12_2 C10_2 1_555 1_555
H15_2 C13_2 1_555 1_555
C14_2 N6_2 1_555 1_555
H16_2 C14_2 1_555 1_555
C15_2 N6_2 1_555 1_555
H17_2 C15_2 1_555 1_555
H18_2 C15_2 1_555 1_555
C16_2 C7_2 1_555 1_555
C13_2 C14_2 1_555 1_555
C15_2 C16_2 1_555 1_555
H4_2 C2_2 1_555 1_555
C3_2 N2_2 1_555 1_555
H5_2 C3_2 1_555 1_555
C4_2 N2_2 1_555 1_555
H6_2 C4_2 1_555 1_555
H7_2 C4_2 1_555 1_555
C5_2 C4_2 1_555 1_555
N7_2 C19_2 1_555 1_555
C18_2 C5_2 1_555 1_555
C19_2 C18_2 1_555 1_555
H20_2 C19_2 1_555 1_555
C21_2 N7_2 1_555 1_555
H23_2 C21_2 1_555 1_555
C2_2 C3_2 1_555 1_555

#END
