
###############################################################################
#
# This file contains modified crystal structure data generated from the
# MOF subset of the Cambridge Structural Database (CSD) v543 
# hosted by the Cambridge Crystallographic Data Centre (CCDC).
#
# This work is licensed under the Creative Commons
# Attribution-NonCommercial-ShareAlike 4.0 International License.
# To view a copy of this license, visit
# http://creativecommons.org/licenses/by-nc-sa/4.0/
# or send a letter to
# Creative Commons, PO Box 1866, Mountain View, CA 94042, USA.
#
# CIF created using the CSD Python API on 29 September 2022
# The structure has been converted into the P1 space group
# The structure has a 3D framework
# The original CSD entry UZIJUJ is in the monoclinic crystal system
# The framework has been calculated to contain at least 10.0% void space
# The void calculation uses a probe of radius 1.32A, grid spacing 0.4
#
###############################################################################

data_UZIJUJ
_chemical_formula_moiety         '(C132 H100 Ce4 N16 O40)n'
_symmetry_cell_setting           triclinic
_symmetry_space_group_name_H-M   'P 1'
_symmetry_Int_Tables_number      1
_space_group_name_Hall           'P 1'
loop_
_symmetry_equiv_pos_site_id
_symmetry_equiv_pos_as_xyz
1 x,y,z
_cell_length_a                   12.288(3)
_cell_length_b                   36.854(7)
_cell_length_c                   11.440(2)
_cell_angle_alpha                90
_cell_angle_beta                 117.642(2)
_cell_angle_gamma                90
_cell_volume                     4589.43
loop_
_atom_site_label
_atom_site_type_symbol
_atom_site_fract_x
_atom_site_fract_y
_atom_site_fract_z
O5 O 0.4259(3) 0.54129(10) 0.1054(4)
N2 N 0.0028(4) 0.60491(13) 0.2125(5)
C15 C 0.2314(4) 0.54976(15) 0.0898(5)
C16 C 0.3166(5) 0.53060(14) 0.0483(6)
C19 C 0.1089(5) 0.54081(15) 0.0408(6)
C21 C 0.0813(5) 0.58726(16) 0.1717(6)
C22 C 0.0339(5) 0.55929(15) 0.0815(6)
C24 C 0.2770(5) 0.5777(2) 0.1781(8)
H14 H 0.3592 0.5842 0.2112
C25 C 0.2031(6) 0.5967(2) 0.2197(8)
H15 H 0.2358 0.6156 0.2797
O10 O 0.1182(5) 0.65390(16) 0.3216(8)
C28 C 0.0261(6) 0.63575(18) 0.2851(8)
Ce4 Ce 0.62999(2) 0.536490(7) 0.13023(3)
O15 O 0.5079(4) 0.46837(11) 0.1111(4)
O1 O 0.2738(3) 0.50633(11) 0.9613(4)
Ce1 Ce 0.37001(2) 0.463510(7) 0.86977(3)
O9 O 0.1412(3) 0.46956(11) 0.7063(4)
H11 H 0.0762 0.5221 0.9797
C27 C 0.0644(6) 0.4909(2) 0.7024(7)
H17 H 0.0918 0.5106 0.7598
O11 O 0.3317(3) 0.42667(10) 0.6583(4)
O12 O 0.4327(4) 0.39757(10) 0.9356(5)
O13 O 0.2554(3) 0.41424(10) 0.9248(4)
O14 O 0.5741(3) 0.45871(10) 0.8946(4)
O16 O 0.4921(4) 0.53163(11) 0.8889(4)
O17 O 0.3675(4) 0.50678(11) 0.6995(4)
O2 O 0.6683(3) 0.57333(10) 0.3417(4)
O3 O 0.5673(4) 0.89757(10) 0.5644(5)
O4 O 0.7446(3) 0.91424(10) 0.5752(4)
C1 C 0.6611(5) 0.89033(15) 0.5528(6)
C2 C 0.6818(6) 0.85283(15) 0.5177(6)
C3 C 0.6107(7) 0.82401(17) 0.5240(9)
H1 H 0.5494 0.8283 0.5483
C4 C 0.7705(7) 0.84568(16) 0.4793(7)
H2 H 0.8174 0.8647 0.4732
C5 C 0.7913(7) 0.81064(17) 0.4497(8)
H3 H 0.8522 0.8063 0.4247
C6 C 0.6311(8) 0.78917(18) 0.4941(10)
H4 H 0.5836 0.7701 0.4988
C7 C 0.7215(7) 0.78238(16) 0.4574(8)
N1 N 0.7400(7) 0.74543(14) 0.4315(8)
H5 H 0.7075 0.7290 0.4588
H6 H 0.9323 0.5950 0.1888
C8 C 0.6980(5) 0.60195(14) 0.4044(6)
N3 N 0.6784(7) 0.60869(16) 0.5090(7)
H7 H 0.7026 0.6296 0.5453
C9 C 0.6231(8) 0.5861(2) 0.5680(8)
O7 O 0.8379(10) 0.75460(15) 0.3133(11)
C10 C 0.6635(14) 0.5913(4) 0.6991(11)
H8 H 0.7266 0.6076 0.7460
C11 C 0.9266(5) 0.64612(15) 0.3195(6)
C12 C 0.9069(6) 0.68253(16) 0.3298(7)
H9 H 0.9541 0.6997 0.3140
C13 C 0.5150(6) 0.54799(17) 0.6982(6)
C14 C 0.4536(5) 0.52783(14) 0.7659(5)
C17 C 0.7668(5) 0.63099(14) 0.3775(6)
C18 C 0.8646(6) 0.61940(16) 0.3523(7)
H10 H 0.8863 0.5951 0.3574
C20 C 0.7477(6) 0.66791(15) 0.3875(7)
H12 H 0.6877 0.6752 0.4105
H13 H 0.9517 0.5528 0.0480
C23 C 0.8167(7) 0.69387(16) 0.3637(8)
C26 C 0.4839(6) 0.5420(2) 0.5686(6)
H16 H 0.4227 0.5252 0.5217
C29 C 0.5397(6) 0.5600(2) 0.5036(6)
H18 H 0.5197 0.5541 0.4170
C30 C 0.8014(10) 0.73395(18) 0.3704(11)
C33 C 0.6082(13) 0.5714(3) 0.7630(10)
H25 H 0.6371 0.5746 0.8532
Ce3 Ce 0.62999(2) 0.963510(7) 0.63023(3)
O2_2 O 0.3317(3) 0.07333(10) 0.1583(4)
C4_2 C 0.2295(7) 0.34568(16) 0.0207(7)
H2_2 H 0.1826 0.3647 0.0268
C5_2 C 0.2087(7) 0.31064(17) 0.0503(8)
H3_2 H 0.1478 0.3063 0.0753
C6_2 C 0.3689(8) 0.28917(18) 0.0059(10)
H4_2 H 0.4164 0.2701 0.0012
C7_2 C 0.2785(7) 0.28238(16) 0.0426(8)
N1_2 N 0.2600(7) 0.24543(14) 0.0685(8)
H5_2 H 0.2925 0.2290 0.0412
H6_2 H 0.0677 0.0950 0.3112
C8_2 C 0.3020(5) 0.10195(14) 0.0956(6)
O7_2 O 0.1621(10) 0.25460(15) 0.1867(11)
C11_2 C 0.0734(5) 0.14612(15) 0.1805(6)
C12_2 C 0.0931(6) 0.18253(16) 0.1702(7)
H9_2 H 0.0459 0.1997 0.1860
C17_2 C 0.2332(5) 0.13099(14) 0.1225(6)
C18_2 C 0.1354(6) 0.11940(16) 0.1477(7)
H10_2 H 0.1137 0.0951 0.1426
C20_2 C 0.2523(6) 0.16791(15) 0.1125(7)
H12_2 H 0.3123 0.1752 0.0895
H13_2 H 0.0483 0.0528 0.4520
C23_2 C 0.1833(7) 0.19387(16) 0.1363(8)
H18_2 H 0.4803 0.0541 0.0830
C30_2 C 0.1986(10) 0.23395(18) 0.1296(11)
C32 C 0.1441(9) 0.0137(3) 0.8727(11)
H22 H 0.1014 0.0324 0.8096
H23 H 0.1912 0.0244 0.9582
H24 H 0.1981 0.0011 0.8471
Ce2 Ce 0.37001(2) 0.036490(7) 0.36977(3)
C1_2 C 0.3389(5) 0.39033(15) 0.9472(6)
C2_2 C 0.3182(6) 0.35283(15) 0.9823(6)
C3_2 C 0.3893(7) 0.32401(17) 0.9760(9)
H1_2 H 0.4506 0.3283 0.9517
N3_2 N 0.3216(7) 0.10869(16) 0.9910(7)
H7_2 H 0.2974 0.1296 0.9547
C9_2 C 0.3769(8) 0.0861(2) 0.9320(8)
O6 O 0.5079(4) 0.03163(11) 0.6111(4)
C10_2 C 0.3365(14) 0.0913(4) 0.8009(11)
H8_2 H 0.2734 0.1076 0.7540
C13_2 C 0.4850(6) 0.04799(17) 0.8018(6)
C14_2 C 0.5464(5) 0.02783(14) 0.7341(5)
O8 O 0.6325(4) 0.00678(11) 0.8005(4)
C26_2 C 0.5161(6) 0.0420(2) 0.9314(6)
H16_2 H 0.5773 0.0252 0.9783
C29_2 C 0.4603(6) 0.0600(2) 0.9964(6)
C33_2 C 0.3918(13) 0.0714(3) 0.7370(10)
H25_2 H 0.3629 0.0746 0.6468
O1_2 O 0.7262(3) 0.00633(11) 0.5387(4)
O5_2 O 0.5741(3) 0.04129(10) 0.3946(4)
N2_2 N 0.9972(4) 0.10491(13) 0.2875(5)
C15_2 C 0.7686(4) 0.04976(15) 0.4102(5)
C16_2 C 0.6834(5) 0.03060(14) 0.4517(6)
C19_2 C 0.8911(5) 0.04081(15) 0.4592(6)
H11_2 H 0.9238 0.0221 0.5203
C21_2 C 0.9187(5) 0.08726(16) 0.3283(6)
C22_2 C 0.9661(5) 0.05929(15) 0.4185(6)
C24_2 C 0.7230(5) 0.0777(2) 0.3219(8)
H14_2 H 0.6408 0.0842 0.2888
C25_2 C 0.7969(6) 0.0967(2) 0.2803(8)
H15_2 H 0.7642 0.1156 0.2203
O10_2 O 0.8818(5) 0.15390(16) 0.1784(8)
H17_2 H 0.9082 0.0106 0.7402
C28_2 C 0.9739(6) 0.13575(18) 0.2149(8)
O9_2 O 0.8588(3) 0.96956(11) 0.7937(4)
C27_2 C 0.9356(6) 0.9909(2) 0.7976(7)
O11_2 O 0.6683(3) 0.92667(10) 0.8417(4)
O14_2 O 0.4259(3) 0.95871(10) 0.6054(4)
O15_2 O 0.4921(4) 0.96837(11) 0.3889(4)
O3_2 O 0.4327(4) 0.10243(10) 0.4356(5)
O4_2 O 0.2554(3) 0.08576(10) 0.4248(4)
C1_3 C 0.3389(5) 0.10967(15) 0.4472(6)
C2_3 C 0.3182(6) 0.14717(15) 0.4823(6)
C3_3 C 0.3893(7) 0.17599(17) 0.4760(9)
H1_3 H 0.4506 0.1717 0.4517
C4_3 C 0.2295(7) 0.15432(16) 0.5207(7)
H2_3 H 0.1826 0.1353 0.5268
C5_3 C 0.2087(7) 0.18936(17) 0.5503(8)
H3_3 H 0.1478 0.1937 0.5753
C6_3 C 0.3689(8) 0.21083(18) 0.5059(10)
H4_3 H 0.4164 0.2299 0.5012
C7_3 C 0.2785(7) 0.21762(16) 0.5426(8)
N1_3 N 0.2600(7) 0.25457(14) 0.5685(8)
H5_3 H 0.2925 0.2710 0.5412
H6_3 H 0.0677 0.4050 0.8112
C8_3 C 0.3020(5) 0.39805(14) 0.5956(6)
N3_3 N 0.3216(7) 0.39131(16) 0.4910(7)
H7_3 H 0.2974 0.3704 0.4547
C9_3 C 0.3769(8) 0.4139(2) 0.4320(8)
O7_3 O 0.1621(10) 0.24540(15) 0.6867(11)
C10_3 C 0.3365(14) 0.4087(4) 0.3009(11)
H8_3 H 0.2734 0.3924 0.2540
C11_3 C 0.0734(5) 0.35388(15) 0.6805(6)
C12_3 C 0.0931(6) 0.31747(16) 0.6702(7)
H9_3 H 0.0459 0.3003 0.6860
C13_3 C 0.4850(6) 0.45201(17) 0.3018(6)
C14_3 C 0.5464(5) 0.47217(14) 0.2341(5)
O8_2 O 0.6325(4) 0.49322(11) 0.3005(4)
C17_3 C 0.2332(5) 0.36901(14) 0.6225(6)
C18_3 C 0.1354(6) 0.38060(16) 0.6477(7)
H10_3 H 0.1137 0.4049 0.6426
C20_3 C 0.2523(6) 0.33209(15) 0.6125(7)
H12_3 H 0.3123 0.3248 0.5895
H13_3 H 0.0483 0.4472 0.9520
C23_3 C 0.1833(7) 0.30613(16) 0.6363(8)
C26_3 C 0.5161(6) 0.4580(2) 0.4314(6)
H16_3 H 0.5773 0.4748 0.4783
C29_3 C 0.4603(6) 0.4400(2) 0.4964(6)
H18_3 H 0.4803 0.4459 0.5830
C30_3 C 0.1986(10) 0.26605(18) 0.6296(11)
C33_3 C 0.3918(13) 0.4286(3) 0.2370(10)
H25_3 H 0.3629 0.4254 0.1468
O1_3 O 0.7262(3) 0.49367(11) 0.0387(4)
O9_3 O 0.8588(3) 0.53044(11) 0.2937(4)
H11_3 H 0.9238 0.4779 0.0203
C27_3 C 0.9356(6) 0.5091(2) 0.2976(7)
H17_3 H 0.9082 0.4894 0.2402
O12_2 O 0.5673(4) 0.60243(10) 0.0644(5)
O13_2 O 0.7446(3) 0.58576(10) 0.0752(4)
N2_3 N 0.9972(4) 0.39509(13) 0.7875(5)
C15_3 C 0.7686(4) 0.45024(15) 0.9102(5)
C16_3 C 0.6834(5) 0.46940(14) 0.9517(6)
C19_3 C 0.8911(5) 0.45919(15) 0.9592(6)
C21_3 C 0.9187(5) 0.41274(16) 0.8283(6)
C22_3 C 0.9661(5) 0.44071(15) 0.9185(6)
C24_3 C 0.7230(5) 0.4223(2) 0.8219(8)
H14_3 H 0.6408 0.4158 0.7888
C25_3 C 0.7969(6) 0.4033(2) 0.7803(8)
H15_3 H 0.7642 0.3844 0.7203
O10_3 O 0.8818(5) 0.34610(16) 0.6784(8)
C28_3 C 0.9739(6) 0.36425(18) 0.7149(8)
O9_4 O 0.1412(3) 0.03044(11) 0.2063(4)
C27_4 C 0.0644(6) 0.0091(2) 0.2024(7)
O1_4 O 0.2738(3) 0.99367(11) 0.4613(4)
N2_4 N 0.0028(4) 0.89509(13) 0.7125(5)
C15_4 C 0.2314(4) 0.95024(15) 0.5898(5)
C16_4 C 0.3166(5) 0.96940(14) 0.5483(6)
C19_4 C 0.1089(5) 0.95919(15) 0.5408(6)
H11_4 H 0.0762 0.9779 0.4797
C21_4 C 0.0813(5) 0.91274(16) 0.6717(6)
C22_4 C 0.0339(5) 0.94071(15) 0.5815(6)
C24_4 C 0.2770(5) 0.9223(2) 0.6781(8)
H14_4 H 0.3592 0.9158 0.7112
C25_4 C 0.2031(6) 0.9033(2) 0.7197(8)
H15_4 H 0.2358 0.8844 0.7797
O10_4 O 0.1182(5) 0.84610(16) 0.8216(8)
H17_4 H 0.0918 0.9894 0.2598
C28_4 C 0.0261(6) 0.86425(18) 0.7851(8)
O17_2 O 0.3675(4) 0.99322(11) 0.1995(4)
C1_4 C 0.6611(5) 0.60967(15) 0.0528(6)
C2_4 C 0.6818(6) 0.64717(15) 0.0177(6)
C3_4 C 0.6107(7) 0.67599(17) 0.0240(9)
H1_4 H 0.5494 0.6717 0.0483
N3_4 N 0.6784(7) 0.89131(16) 0.0090(7)
H7_4 H 0.7026 0.8704 0.0453
C9_4 C 0.6231(8) 0.9139(2) 0.0680(8)
C10_4 C 0.6635(14) 0.9087(4) 0.1991(11)
H8_4 H 0.7266 0.8924 0.2460
C13_4 C 0.5150(6) 0.95201(17) 0.1982(6)
C14_4 C 0.4536(5) 0.97217(14) 0.2659(5)
C26_4 C 0.4839(6) 0.9580(2) 0.0686(6)
H16_4 H 0.4227 0.9748 0.0217
C29_4 C 0.5397(6) 0.9400(2) 0.0036(6)
C33_4 C 0.6082(13) 0.9286(3) 0.2630(10)
H25_4 H 0.6371 0.9254 0.3532
C4_4 C 0.7705(7) 0.65432(16) 0.9793(7)
H2_4 H 0.8174 0.6353 0.9732
C5_4 C 0.7913(7) 0.68936(17) 0.9497(8)
H3_4 H 0.8522 0.6937 0.9247
C6_4 C 0.6311(8) 0.71083(18) 0.9941(10)
H4_4 H 0.5836 0.7299 0.9988
C7_4 C 0.7215(7) 0.71762(16) 0.9574(8)
N1_4 N 0.7400(7) 0.75457(14) 0.9315(8)
H5_4 H 0.7075 0.7710 0.9588
H6_4 H 0.9323 0.9050 0.6888
C8_4 C 0.6980(5) 0.89805(14) 0.9044(6)
O7_4 O 0.8379(10) 0.74540(15) 0.8133(11)
C11_4 C 0.9266(5) 0.85388(15) 0.8195(6)
C12_4 C 0.9069(6) 0.81747(16) 0.8298(7)
H9_4 H 0.9541 0.8003 0.8140
C17_4 C 0.7668(5) 0.86901(14) 0.8775(6)
C18_4 C 0.8646(6) 0.88060(16) 0.8523(7)
H10_4 H 0.8863 0.9049 0.8574
C20_4 C 0.7477(6) 0.83209(15) 0.8875(7)
H12_4 H 0.6877 0.8248 0.9105
H13_4 H 0.9517 0.9472 0.5480
C23_4 C 0.8167(7) 0.80613(16) 0.8637(8)
H18_4 H 0.5197 0.9459 0.9170
C30_4 C 0.8014(10) 0.76605(18) 0.8704(11)
C32_2 C 0.8559(9) 0.9863(3) 0.1273(11)
H22_2 H 0.8986 0.9676 0.1904
H23_2 H 0.8088 0.9756 0.0418
H24_2 H 0.8019 0.9989 0.1529
N4 N 0.9438(5) 0.48847(17) 0.6226(6)
C31 C 0.8937(7) 0.4577(2) 0.5300(9)
H19 H 0.9600 0.4429 0.5351
H20 H 0.8410 0.4435 0.5529
H21 H 0.8475 0.4668 0.4417
C32_3 C 0.8559(9) 0.5137(3) 0.6273(11)
H22_3 H 0.8986 0.5324 0.6904
H23_3 H 0.8088 0.5244 0.5418
H24_3 H 0.8019 0.5011 0.6529
H21_2 H 0.1525 0.9668 0.0583
N4_2 N 0.0562(5) 0.98847(17) 0.8774(6)
C31_2 C 0.1063(7) 0.9577(2) 0.9700(9)
H19_2 H 0.0400 0.9429 0.9649
H20_2 H 0.1590 0.9435 0.9471
N4_3 N 0.0562(5) 0.51153(17) 0.3774(6)
C31_3 C 0.1063(7) 0.5423(2) 0.4700(9)
H19_3 H 0.0400 0.5571 0.4649
H20_3 H 0.1590 0.5565 0.4471
H21_3 H 0.1525 0.5332 0.5583
C32_4 C 0.1441(9) 0.4863(3) 0.3727(11)
H22_4 H 0.1014 0.4676 0.3096
H23_4 H 0.1912 0.4756 0.4582
H24_4 H 0.1981 0.4989 0.3471
N4_4 N 0.9438(5) 0.01153(17) 0.1226(6)
C31_4 C 0.8937(7) 0.0423(2) 0.0300(9)
H19_4 H 0.9600 0.0571 0.0351
H20_4 H 0.8410 0.0565 0.0529
H21_4 H 0.8475 0.0332 0.9417
loop_
_geom_bond_atom_site_label_1
_geom_bond_atom_site_label_2
_geom_bond_site_symmetry_1
_geom_bond_site_symmetry_2
O5 C16 1_555 1_555
C15 C16 1_555 1_555
C19 C15 1_555 1_555
C21 N2 1_555 1_555
C22 C19 1_555 1_555
C24 C15 1_555 1_555
H14 C24 1_555 1_555
C25 C21 1_555 1_555
H15 C25 1_555 1_555
O10 C28 1_555 1_555
C28 N2 1_555 1_555
Ce4 O5 1_555 1_555
C21 C22 1_555 1_555
C24 C25 1_555 1_555
Ce4 O15 1_555 1_555
O1 Ce1 1_555 1_555
Ce1 O9 1_555 1_555
O9 C27 1_555 1_555
C27 H17 1_555 1_555
O11 Ce1 1_555 1_555
O12 Ce1 1_555 1_555
O13 Ce1 1_555 1_555
O14 Ce1 1_555 1_555
O16 Ce1 1_555 1_555
O17 Ce1 1_555 1_555
O2 C8 1_555 1_555
O3 C1 1_555 1_555
O4 C1 1_555 1_555
C1 C2 1_555 1_555
C2 C3 1_555 1_555
C3 H1 1_555 1_555
C4 C2 1_555 1_555
H2 C4 1_555 1_555
C5 C4 1_555 1_555
H3 C5 1_555 1_555
C6 C3 1_555 1_555
H4 C6 1_555 1_555
C7 C5 1_555 1_555
N1 C7 1_555 1_555
H5 N1 1_555 1_555
C8 N3 1_555 1_555
N3 H7 1_555 1_555
C9 N3 1_555 1_555
O16 C14 1_555 1_555
O7 C30 1_555 1_555
C10 C9 1_555 1_555
H8 C10 1_555 1_555
C11 C12 1_555 1_555
C12 H9 1_555 1_555
C13 C14 1_555 1_555
C14 O17 1_555 1_555
C17 C8 1_555 1_555
C18 C11 1_555 1_555
H10 C18 1_555 1_555
C20 C17 1_555 1_555
H12 C20 1_555 1_555
C23 C12 1_555 1_555
C26 C13 1_555 1_555
H16 C26 1_555 1_555
C29 C9 1_555 1_555
H18 C29 1_555 1_555
C30 N1 1_555 1_555
C33 C10 1_555 1_555
H25 C33 1_555 1_555
Ce4 O2 1_555 1_555
Ce3 O3 1_555 1_555
O4 Ce3 1_555 1_555
C6 C7 1_555 1_555
C13 C33 1_555 1_555
C17 C18 1_555 1_555
C20 C23 1_555 1_555
C23 C30 1_555 1_555
C26 C29 1_555 1_555
O2_2 C8_2 1_555 1_555
H2_2 C4_2 1_555 1_555
C5_2 C4_2 1_555 1_555
H3_2 C5_2 1_555 1_555
H4_2 C6_2 1_555 1_555
C7_2 C5_2 1_555 1_555
N1_2 C7_2 1_555 1_555
H5_2 N1_2 1_555 1_555
O7_2 C30_2 1_555 1_555
C11_2 C12_2 1_555 1_555
C12_2 H9_2 1_555 1_555
C17_2 C8_2 1_555 1_555
C18_2 C11_2 1_555 1_555
H10_2 C18_2 1_555 1_555
C20_2 C17_2 1_555 1_555
H12_2 C20_2 1_555 1_555
C23_2 C12_2 1_555 1_555
C30_2 N1_2 1_555 1_555
H22 C32 1_555 1_555
H23 C32 1_555 1_555
H24 C32 1_555 1_555
Ce2 O2_2 1_555 1_555
C6_2 C7_2 1_555 1_555
C17_2 C18_2 1_555 1_555
C20_2 C23_2 1_555 1_555
C23_2 C30_2 1_555 1_555
O12 C1_2 1_555 1_555
O13 C1_2 1_555 1_555
C1_2 C2_2 1_555 1_555
C2_2 C3_2 1_555 1_555
C3_2 H1_2 1_555 1_555
N3_2 H7_2 1_555 1_555
C9_2 N3_2 1_555 1_555
O6 C14_2 1_555 1_555
C10_2 C9_2 1_555 1_555
H8_2 C10_2 1_555 1_555
C13_2 C14_2 1_555 1_555
C14_2 O8 1_555 1_555
C26_2 C13_2 1_555 1_555
H16_2 C26_2 1_555 1_555
C29_2 C9_2 1_555 1_555
C33_2 C10_2 1_555 1_555
H25_2 C33_2 1_555 1_555
Ce2 O6 1_555 1_555
C13_2 C33_2 1_555 1_555
C26_2 C29_2 1_555 1_555
O5_2 C16_2 1_555 1_555
C15_2 C16_2 1_555 1_555
C16_2 O1_2 1_555 1_555
C19_2 C15_2 1_555 1_555
H11_2 C19_2 1_555 1_555
C21_2 N2_2 1_555 1_555
C22_2 C19_2 1_555 1_555
C24_2 C15_2 1_555 1_555
H14_2 C24_2 1_555 1_555
C25_2 C21_2 1_555 1_555
H15_2 C25_2 1_555 1_555
O10_2 C28_2 1_555 1_555
C28_2 N2_2 1_555 1_555
Ce2 O5_2 1_555 1_555
C21_2 C22_2 1_555 1_555
C24_2 C25_2 1_555 1_555
Ce3 O9_2 1_555 1_555
O9_2 C27_2 1_555 1_555
O11_2 Ce3 1_555 1_555
O14_2 Ce3 1_555 1_555
O15_2 Ce3 1_555 1_555
O11 C8_3 1_555 1_555
O3_2 C1_3 1_555 1_555
O4_2 C1_3 1_555 1_555
C1_3 C2_3 1_555 1_555
C2_3 C3_3 1_555 1_555
C3_3 H1_3 1_555 1_555
C4_3 C2_3 1_555 1_555
H2_3 C4_3 1_555 1_555
C5_3 C4_3 1_555 1_555
H3_3 C5_3 1_555 1_555
C6_3 C3_3 1_555 1_555
H4_3 C6_3 1_555 1_555
C7_3 C5_3 1_555 1_555
N1_3 C7_3 1_555 1_555
H5_3 N1_3 1_555 1_555
C8_3 N3_3 1_555 1_555
N3_3 H7_3 1_555 1_555
C9_3 N3_3 1_555 1_555
O15 C14_3 1_555 1_555
O7_3 C30_3 1_555 1_555
C10_3 C9_3 1_555 1_555
H8_3 C10_3 1_555 1_555
C11_3 C12_3 1_555 1_555
C12_3 H9_3 1_555 1_555
C13_3 C14_3 1_555 1_555
C14_3 O8_2 1_555 1_555
O8_2 Ce4 1_555 1_555
C17_3 C8_3 1_555 1_555
C18_3 C11_3 1_555 1_555
H10_3 C18_3 1_555 1_555
C20_3 C17_3 1_555 1_555
H12_3 C20_3 1_555 1_555
C23_3 C12_3 1_555 1_555
C26_3 C13_3 1_555 1_555
H16_3 C26_3 1_555 1_555
C29_3 C9_3 1_555 1_555
H18_3 C29_3 1_555 1_555
C30_3 N1_3 1_555 1_555
C33_3 C10_3 1_555 1_555
H25_3 C33_3 1_555 1_555
Ce2 O3_2 1_555 1_555
O4_2 Ce2 1_555 1_555
C6_3 C7_3 1_555 1_555
C13_3 C33_3 1_555 1_555
C17_3 C18_3 1_555 1_555
C20_3 C23_3 1_555 1_555
C23_3 C30_3 1_555 1_555
C26_3 C29_3 1_555 1_555
O1_3 Ce4 1_555 1_555
Ce4 O9_3 1_555 1_555
O9_3 C27_3 1_555 1_555
C27_3 H17_3 1_555 1_555
O12_2 Ce4 1_555 1_555
O13_2 Ce4 1_555 1_555
O14 C16_3 1_555 1_555
C15_3 C16_3 1_555 1_555
C19_3 C15_3 1_555 1_555
C21_3 N2_3 1_555 1_555
C22_3 C19_3 1_555 1_555
C24_3 C15_3 1_555 1_555
H14_3 C24_3 1_555 1_555
C25_3 C21_3 1_555 1_555
H15_3 C25_3 1_555 1_555
O10_3 C28_3 1_555 1_555
C28_3 N2_3 1_555 1_555
C21_3 C22_3 1_555 1_555
C24_3 C25_3 1_555 1_555
Ce2 O9_4 1_555 1_555
O9_4 C27_4 1_555 1_555
O14_2 C16_4 1_555 1_555
C15_4 C16_4 1_555 1_555
C16_4 O1_4 1_555 1_555
C19_4 C15_4 1_555 1_555
H11_4 C19_4 1_555 1_555
C21_4 N2_4 1_555 1_555
C22_4 C19_4 1_555 1_555
C24_4 C15_4 1_555 1_555
H14_4 C24_4 1_555 1_555
C25_4 C21_4 1_555 1_555
H15_4 C25_4 1_555 1_555
O10_4 C28_4 1_555 1_555
C28_4 N2_4 1_555 1_555
C21_4 C22_4 1_555 1_555
C24_4 C25_4 1_555 1_555
O12_2 C1_4 1_555 1_555
O13_2 C1_4 1_555 1_555
C1_4 C2_4 1_555 1_555
C2_4 C3_4 1_555 1_555
C3_4 H1_4 1_555 1_555
N3_4 H7_4 1_555 1_555
C9_4 N3_4 1_555 1_555
O15_2 C14_4 1_555 1_555
C10_4 C9_4 1_555 1_555
H8_4 C10_4 1_555 1_555
C13_4 C14_4 1_555 1_555
C14_4 O17_2 1_555 1_555
C26_4 C13_4 1_555 1_555
H16_4 C26_4 1_555 1_555
C29_4 C9_4 1_555 1_555
C33_4 C10_4 1_555 1_555
H25_4 C33_4 1_555 1_555
C13_4 C33_4 1_555 1_555
C26_4 C29_4 1_555 1_555
O11_2 C8_4 1_555 1_555
H2_4 C4_4 1_555 1_555
C5_4 C4_4 1_555 1_555
H3_4 C5_4 1_555 1_555
H4_4 C6_4 1_555 1_555
C7_4 C5_4 1_555 1_555
N1_4 C7_4 1_555 1_555
H5_4 N1_4 1_555 1_555
O7_4 C30_4 1_555 1_555
C11_4 C12_4 1_555 1_555
C12_4 H9_4 1_555 1_555
C17_4 C8_4 1_555 1_555
C18_4 C11_4 1_555 1_555
H10_4 C18_4 1_555 1_555
C20_4 C17_4 1_555 1_555
H12_4 C20_4 1_555 1_555
C23_4 C12_4 1_555 1_555
C30_4 N1_4 1_555 1_555
H22_2 C32_2 1_555 1_555
H23_2 C32_2 1_555 1_555
H24_2 C32_2 1_555 1_555
C6_4 C7_4 1_555 1_555
C17_4 C18_4 1_555 1_555
C20_4 C23_4 1_555 1_555
C23_4 C30_4 1_555 1_555
C31 N4 1_555 1_555
H19 C31 1_555 1_555
H20 C31 1_555 1_555
H21 C31 1_555 1_555
C32_3 N4 1_555 1_555
H22_3 C32_3 1_555 1_555
H23_3 C32_3 1_555 1_555
H24_3 C32_3 1_555 1_555
C31_2 N4_2 1_555 1_555
H19_2 C31_2 1_555 1_555
H20_2 C31_2 1_555 1_555
C31_3 N4_3 1_555 1_555
H19_3 C31_3 1_555 1_555
H20_3 C31_3 1_555 1_555
H21_3 C31_3 1_555 1_555
C32_4 N4_3 1_555 1_555
H22_4 C32_4 1_555 1_555
H23_4 C32_4 1_555 1_555
H24_4 C32_4 1_555 1_555
C31_4 N4_4 1_555 1_555
H19_4 C31_4 1_555 1_555
H20_4 C31_4 1_555 1_555

#END
