
###############################################################################
#
# This file contains modified crystal structure data generated from the
# MOF subset of the Cambridge Structural Database (CSD) v543 
# hosted by the Cambridge Crystallographic Data Centre (CCDC).
#
# This work is licensed under the Creative Commons
# Attribution-NonCommercial-ShareAlike 4.0 International License.
# To view a copy of this license, visit
# http://creativecommons.org/licenses/by-nc-sa/4.0/
# or send a letter to
# Creative Commons, PO Box 1866, Mountain View, CA 94042, USA.
#
# CIF created using the CSD Python API on 29 September 2022
# The structure has been converted into the P1 space group
# The structure has a 3D framework
# The original CSD entry UZOBER is in the orthorhombic crystal system
# The framework has been calculated to contain at least 10.0% void space
# The void calculation uses a probe of radius 1.32A, grid spacing 0.4
# The framework is charged, counterions have been retained in the structure
#
###############################################################################

data_UZOBER
_chemical_formula_moiety         '(C28 H32 Ag4 N28 4+)n'
_symmetry_cell_setting           triclinic
_symmetry_space_group_name_H-M   'P 1'
_symmetry_Int_Tables_number      1
_space_group_name_Hall           'P 1'
loop_
_symmetry_equiv_pos_site_id
_symmetry_equiv_pos_as_xyz
1 x,y,z
_cell_length_a                   7.8161(15)
_cell_length_b                   21.283(4)
_cell_length_c                   8.3419(14)
_cell_angle_alpha                90
_cell_angle_beta                 90
_cell_angle_gamma                90
_cell_volume                     1387.68
loop_
_atom_site_label
_atom_site_type_symbol
_atom_site_fract_x
_atom_site_fract_y
_atom_site_fract_z
Ag1 Ag 0.0000 -0.0000 0.2500
N1 N 0.2380(13) 0.1608(4) 0.5000
N2 N 0.1191(9) 0.0756(2) 0.4180(6)
C1 C 0.3186(17) 0.2246(5) 0.5000
H1 H 0.388(12) 0.228(4) 0.376(10)
C2 C 0.1914(11) 0.1276(3) 0.3694(9)
H2 H 0.2080 0.1398 0.2622
Ag2 Ag 0.0000 -0.0000 0.7500
Ag4 Ag 0.5000 0.5000 0.2500
Ag6 Ag 0.5000 0.5000 0.7500
N3 N 0.2620(13) 0.3392(4) 0.5000
N6 N 0.3809(9) 0.4244(2) 0.4180(6)
N7 N 0.1191(9) 0.0756(2) 0.5820(6)
N8 N 0.3809(9) 0.4244(2) 0.5820(6)
C3 C 0.1814(17) 0.2754(5) 0.5000
H3 H 0.112(12) 0.272(4) 0.376(10)
H4 H 0.388(12) 0.228(4) 0.624(10)
H5 H 0.112(12) 0.272(4) 0.624(10)
C6 C 0.3086(11) 0.3724(3) 0.3694(9)
C7 C 0.1914(11) 0.1276(3) 0.6306(9)
C8 C 0.3086(11) 0.3724(3) 0.6306(9)
H10 H 0.2920 0.3602 0.2622
H11 H 0.2080 0.1398 0.7378
H12 H 0.2920 0.3602 0.7378
Ag1_2 Ag 0.0000 1.0000 0.2500
Ag2_2 Ag 0.0000 1.0000 0.7500
N14 N 0.1191(9) 0.9244(2) 0.9180(6)
N15 N 0.1191(9) 0.9244(2) 0.0820(6)
Ag1_3 Ag 1.0000 -0.0000 0.2500
Ag2_3 Ag 1.0000 -0.0000 0.7500
N13 N 0.8809(9) 0.0756(2) 0.9180(6)
N16 N 0.8809(9) 0.0756(2) 0.0820(6)
Ag1_4 Ag 1.0000 1.0000 0.2500
Ag2_4 Ag 1.0000 1.0000 0.7500
N4 N 0.7620(13) 0.8392(4) 0.5000
N5 N 0.7380(13) 0.6608(4) 0.5000
N9 N 0.8809(9) 0.9244(2) 0.4180(6)
N10 N 0.6191(9) 0.5756(2) 0.4180(6)
N11 N 0.8809(9) 0.9244(2) 0.5820(6)
N12 N 0.6191(9) 0.5756(2) 0.5820(6)
C4 C 0.6814(17) 0.7754(5) 0.5000
C5 C 0.8186(17) 0.7246(5) 0.5000
H6 H 0.612(12) 0.772(4) 0.376(10)
H7 H 0.888(12) 0.728(4) 0.376(10)
H8 H 0.612(12) 0.772(4) 0.624(10)
H9 H 0.888(12) 0.728(4) 0.624(10)
C9 C 0.8086(11) 0.8724(3) 0.3694(9)
C10 C 0.6914(11) 0.6276(3) 0.3694(9)
C11 C 0.8086(11) 0.8724(3) 0.6306(9)
C12 C 0.6914(11) 0.6276(3) 0.6306(9)
H13 H 0.7920 0.8602 0.2622
H14 H 0.7080 0.6398 0.2622
H15 H 0.7920 0.8602 0.7378
H16 H 0.7080 0.6398 0.7378
N13_2 N 0.3809(9) 0.5756(2) 0.9180(6)
N14_2 N 0.6191(9) 0.4244(2) 0.9180(6)
N15_2 N 0.6191(9) 0.4244(2) 0.0820(6)
N16_2 N 0.3809(9) 0.5756(2) 0.0820(6)
N1_2 N 0.2380(13) 0.8392(4) 0.0000
C1_2 C 0.3186(17) 0.7754(5) 0.0000
H1_2 H 0.388(12) 0.772(4) 0.124(10)
C2_2 C 0.1914(11) 0.8724(3) 0.1306(9)
H2_2 H 0.2080 0.8602 0.2378
N3_2 N 0.2620(13) 0.6608(4) 0.0000
C3_2 C 0.1814(17) 0.7246(5) 0.0000
H3_2 H 0.112(12) 0.728(4) 0.124(10)
C6_2 C 0.3086(11) 0.6276(3) 0.1306(9)
H10_2 H 0.2920 0.6398 0.2378
N1_3 N 0.2380(13) 0.8392(4) 1.0000
C1_3 C 0.3186(17) 0.7754(5) 1.0000
N3_3 N 0.2620(13) 0.6608(4) 1.0000
C3_3 C 0.1814(17) 0.7246(5) 1.0000
H4_2 H 0.388(12) 0.772(4) 0.876(10)
H5_2 H 0.112(12) 0.728(4) 0.876(10)
C7_2 C 0.1914(11) 0.8724(3) 0.8694(9)
C8_2 C 0.3086(11) 0.6276(3) 0.8694(9)
H11_2 H 0.2080 0.8602 0.7622
H12_2 H 0.2920 0.6398 0.7622
N4_2 N 0.7620(13) 0.1608(4) 0.0000
N5_2 N 0.7380(13) 0.3392(4) 0.0000
C4_2 C 0.6814(17) 0.2246(5) 0.0000
C5_2 C 0.8186(17) 0.2754(5) 0.0000
H6_2 H 0.612(12) 0.228(4) 0.124(10)
H7_2 H 0.888(12) 0.272(4) 0.124(10)
C9_2 C 0.8086(11) 0.1276(3) 0.1306(9)
C10_2 C 0.6914(11) 0.3724(3) 0.1306(9)
H13_2 H 0.7920 0.1398 0.2378
H14_2 H 0.7080 0.3602 0.2378
N4_3 N 0.7620(13) 0.1608(4) 1.0000
N5_3 N 0.7380(13) 0.3392(4) 1.0000
C4_3 C 0.6814(17) 0.2246(5) 1.0000
C5_3 C 0.8186(17) 0.2754(5) 1.0000
H8_2 H 0.612(12) 0.228(4) 0.876(10)
H9_2 H 0.888(12) 0.272(4) 0.876(10)
C11_2 C 0.8086(11) 0.1276(3) 0.8694(9)
C12_2 C 0.6914(11) 0.3724(3) 0.8694(9)
H15_2 H 0.7920 0.1398 0.7622
H16_2 H 0.7080 0.3602 0.7622
loop_
_geom_bond_atom_site_label_1
_geom_bond_atom_site_label_2
_geom_bond_site_symmetry_1
_geom_bond_site_symmetry_2
Ag1 N2 1_555 1_555
N1 C1 1_555 1_555
N2 C2 1_555 1_555
C1 H1 1_555 1_555
C2 N1 1_555 1_555
H2 C2 1_555 1_555
Ag2 N7 1_555 1_555
Ag4 N6 1_555 1_555
Ag6 N8 1_555 1_555
N3 C3 1_555 1_555
N6 N8 1_555 1_555
N7 N2 1_555 1_555
N8 C8 1_555 1_555
C3 C1 1_555 1_555
H3 C3 1_555 1_555
H4 C1 1_555 1_555
H5 C3 1_555 1_555
C6 N3 1_555 1_555
C7 N1 1_555 1_555
C8 N3 1_555 1_555
H10 C6 1_555 1_555
H11 C7 1_555 1_555
H12 C8 1_555 1_555
N6 C6 1_555 1_555
N7 C7 1_555 1_555
N14 Ag2_2 1_555 1_555
N15 Ag1_2 1_555 1_555
N13 Ag2_3 1_555 1_555
N16 Ag1_3 1_555 1_555
Ag4 N10 1_555 1_555
Ag6 N12 1_555 1_555
N4 C4 1_555 1_555
N5 C5 1_555 1_555
N9 Ag1_4 1_555 1_555
N10 N12 1_555 1_555
N11 Ag2_4 1_555 1_555
N12 C12 1_555 1_555
C4 C5 1_555 1_555
C5 H7 1_555 1_555
H6 C4 1_555 1_555
H8 C4 1_555 1_555
H9 C5 1_555 1_555
C9 N4 1_555 1_555
C10 N5 1_555 1_555
C11 N4 1_555 1_555
C12 N5 1_555 1_555
H13 C9 1_555 1_555
H14 C10 1_555 1_555
H15 C11 1_555 1_555
H16 C12 1_555 1_555
N9 N11 1_555 1_555
N9 C9 1_555 1_555
N10 C10 1_555 1_555
N11 C11 1_555 1_555
N13_2 Ag6 1_555 1_555
N14_2 Ag6 1_555 1_555
N15_2 Ag4 1_555 1_555
N16_2 Ag4 1_555 1_555
N1_2 C1_2 1_555 1_555
N15 C2_2 1_555 1_555
C1_2 H1_2 1_555 1_555
C2_2 N1_2 1_555 1_555
H2_2 C2_2 1_555 1_555
N3_2 C3_2 1_555 1_555
C3_2 C1_2 1_555 1_555
H3_2 C3_2 1_555 1_555
C6_2 N3_2 1_555 1_555
H10_2 C6_2 1_555 1_555
N16_2 C6_2 1_555 1_555
N1_3 C1_3 1_555 1_555
N3_3 C3_3 1_555 1_555
N13_2 C8_2 1_555 1_555
C3_3 C1_3 1_555 1_555
H4_2 C1_3 1_555 1_555
H5_2 C3_3 1_555 1_555
C7_2 N1_3 1_555 1_555
C8_2 N3_3 1_555 1_555
H11_2 C7_2 1_555 1_555
H12_2 C8_2 1_555 1_555
N14 C7_2 1_555 1_555
N4_2 C4_2 1_555 1_555
N5_2 C5_2 1_555 1_555
C4_2 C5_2 1_555 1_555
C5_2 H7_2 1_555 1_555
H6_2 C4_2 1_555 1_555
C9_2 N4_2 1_555 1_555
C10_2 N5_2 1_555 1_555
H13_2 C9_2 1_555 1_555
H14_2 C10_2 1_555 1_555
N16 C9_2 1_555 1_555
N15_2 C10_2 1_555 1_555
N4_3 C4_3 1_555 1_555
N5_3 C5_3 1_555 1_555
N14_2 C12_2 1_555 1_555
C4_3 C5_3 1_555 1_555
H8_2 C4_3 1_555 1_555
H9_2 C5_3 1_555 1_555
C11_2 N4_3 1_555 1_555
C12_2 N5_3 1_555 1_555
H15_2 C11_2 1_555 1_555
H16_2 C12_2 1_555 1_555
N13 C11_2 1_555 1_555

#END
