
###############################################################################
#
# This file contains modified crystal structure data generated from the
# MOF subset of the Cambridge Structural Database (CSD) v543 
# hosted by the Cambridge Crystallographic Data Centre (CCDC).
#
# This work is licensed under the Creative Commons
# Attribution-NonCommercial-ShareAlike 4.0 International License.
# To view a copy of this license, visit
# http://creativecommons.org/licenses/by-nc-sa/4.0/
# or send a letter to
# Creative Commons, PO Box 1866, Mountain View, CA 94042, USA.
#
# CIF created using the CSD Python API on 29 September 2022
# The structure has been converted into the P1 space group
# The structure has a 3D framework
# The original CSD entry UZUNAF01 is in the monoclinic crystal system
# The framework has been calculated to contain at least 10.0% void space
# The void calculation uses a probe of radius 1.32A, grid spacing 0.4
#
###############################################################################

data_UZUNAF01
_chemical_formula_moiety         '(C88 H88 Cu8 N16 O32)n'
_symmetry_cell_setting           triclinic
_symmetry_space_group_name_H-M   'P 1'
_symmetry_Int_Tables_number      1
_space_group_name_Hall           'P 1'
loop_
_symmetry_equiv_pos_site_id
_symmetry_equiv_pos_as_xyz
1 x,y,z
_cell_length_a                   27.633(5)
_cell_length_b                   13.153(5)
_cell_length_c                   8.641(5)
_cell_angle_alpha                90
_cell_angle_beta                 95.500(5)
_cell_angle_gamma                90
_cell_volume                     3126.17
loop_
_atom_site_label
_atom_site_type_symbol
_atom_site_fract_x
_atom_site_fract_y
_atom_site_fract_z
O1 O 0.31591(15) 0.2214(3) 0.1812(4)
O3 O 0.24789(14) 0.2943(3) 0.2440(4)
C7 C 0.2906(2) 0.2655(4) 0.2755(5)
C8 C 0.3152(2) 0.2879(4) 0.4365(5)
H6 H 0.3084 0.2331 0.5063
H7 H 0.3501 0.2906 0.4318
C9 C 0.2979(2) 0.3893(4) 0.5021(5)
H8 H 0.3142 0.3999 0.6053
H9 H 0.2633 0.3856 0.5111
C10 C 0.3084(2) 0.4789(4) 0.3992(6)
H10 H 0.2963 0.4628 0.2930
H11 H 0.3433 0.4872 0.4020
Cu2 Cu 0.21048(2) 0.29561(4) 0.03810(6)
Cu3 Cu 0.28952(2) 0.79561(4) 0.46190(6)
Cu4 Cu 0.21048(2) 0.70439(4) 0.53810(6)
O7 O 0.31230(13) 0.6566(3) 0.4259(4)
O12 O 0.25467(13) 0.0795(2) 0.0131(4)
O13 O 0.24533(13) 0.5795(2) 0.4869(4)
H17 H 0.3084 0.7669 0.0063
C20 C 0.2979(2) 0.6107(4) 0.0021(5)
H19 H 0.3142 0.6001 0.1053
H20 H 0.2633 0.6144 0.0111
C22 C 0.2865(2) 0.5794(4) 0.4428(5)
Cu1 Cu 0.28952(2) 0.20439(4) 0.96190(6)
O2 O 0.31230(13) 0.3434(3) 0.9259(4)
O4 O 0.24533(13) 0.4205(2) 0.9869(4)
N1 N 0.34898(15) 0.1292(3) 0.8589(4)
N2 N 0.48460(17) 0.0336(4) 0.5376(5)
C1 C 0.3845(2) 0.1812(4) 0.8038(6)
H1 H 0.3865 0.2506 0.8237
C2 C 0.4183(2) 0.1383(5) 0.7195(6)
H2 H 0.4425 0.1783 0.6823
C3 C 0.41663(19) 0.0361(4) 0.6895(5)
C5 C 0.3474(2) 0.0298(4) 0.8302(6)
C11 C 0.2865(2) 0.4206(4) 0.9428(5)
O5 O 0.31591(15) 0.7786(3) 0.6812(4)
O9 O 0.25211(14) 0.2057(3) 0.7560(4)
O10 O 0.24789(14) 0.7057(3) 0.7440(4)
C15 C 0.61988(19) 0.0182(4) 0.2545(6)
H14 H 0.6226 0.0877 0.2737
H15 H 0.6769 0.0087 0.1307
C17 C 0.5477(2) 0.0160(5) 0.3967(6)
H16 H 0.5484 0.0866 0.4039
C18 C 0.2906(2) 0.7345(4) 0.7755(5)
C19 C 0.3152(2) 0.7121(4) 0.9365(5)
H18 H 0.3501 0.7094 0.9318
C21 C 0.3084(2) 0.5211(4) 0.8992(6)
H21 H 0.2963 0.5372 0.7930
H22 H 0.3433 0.5128 0.9020
O11 O 0.25211(14) 0.7943(3) 0.2560(4)
O14 O 0.25467(13) 0.9205(2) 0.5131(4)
N3 N 0.34898(15) 0.8708(3) 0.3589(4)
N4 N 0.48460(17) 0.9664(4) 0.0376(5)
C12 C 0.3845(2) 0.8188(4) 0.3038(6)
H12 H 0.3865 0.7494 0.3237
C13 C 0.4183(2) 0.8617(5) 0.2195(6)
H13 H 0.4425 0.8217 0.1823
C14 C 0.41663(19) 0.9639(4) 0.1895(5)
C16 C 0.3474(2) 0.9702(4) 0.3302(6)
C4 C 0.61988(19) 0.9818(4) 0.7545(6)
H3 H 0.6226 0.9123 0.7737
H4 H 0.6769 0.9913 0.6307
C6 C 0.5477(2) 0.9840(5) 0.8967(6)
H5 H 0.5484 0.9134 0.9039
O8 O 0.18770(13) 0.1566(3) 0.0741(4)
N3_2 N 0.15102(15) 0.3708(3) 0.1411(4)
N4_2 N 0.01540(17) 0.4664(4) 0.4624(5)
C12_2 C 0.1155(2) 0.3188(4) 0.1962(6)
H12_2 H 0.1135 0.2494 0.1763
C13_2 C 0.0817(2) 0.3617(5) 0.2805(6)
H13_2 H 0.0575 0.3217 0.3177
C14_2 C 0.08337(19) 0.4639(4) 0.3105(5)
C15_2 C 0.11988(19) 0.5182(4) 0.2545(6)
H14_2 H 0.1226 0.5877 0.2737
C16_2 C 0.1526(2) 0.4702(4) 0.1698(6)
H15_2 H 0.1769 0.5087 0.1307
C17_2 C 0.0477(2) 0.5160(5) 0.3967(6)
H16_2 H 0.0484 0.5866 0.4039
O6 O 0.18409(15) 0.2786(3) 0.8188(4)
C18_2 C 0.2094(2) 0.2345(4) 0.7245(5)
C19_2 C 0.1848(2) 0.2121(4) 0.5635(5)
H17_2 H 0.1916 0.2669 0.4937
H18_2 H 0.1499 0.2094 0.5682
C20_2 C 0.2021(2) 0.1107(4) 0.4979(5)
H19_2 H 0.1858 0.1001 0.3947
H20_2 H 0.2367 0.1144 0.4889
C21_2 C 0.1916(2) 0.0211(4) 0.6008(6)
H21_2 H 0.2037 0.0372 0.7070
H22_2 H 0.1567 0.0128 0.5980
C22_2 C 0.2135(2) 0.0794(4) 0.0572(5)
O1_2 O 0.18409(15) 0.7214(3) 0.3188(4)
O2_2 O 0.18770(13) 0.8434(3) 0.5741(4)
N1_2 N 0.15102(15) 0.6292(3) 0.6411(4)
N2_2 N 0.01540(17) 0.5336(4) 0.9624(5)
C1_2 C 0.1155(2) 0.6812(4) 0.6962(6)
H1_2 H 0.1135 0.7506 0.6763
C2_2 C 0.0817(2) 0.6383(5) 0.7805(6)
H2_2 H 0.0575 0.6783 0.8177
C3_2 C 0.08337(19) 0.5361(4) 0.8105(5)
C4_2 C 0.11988(19) 0.4818(4) 0.7545(6)
H3_2 H 0.1226 0.4123 0.7737
C5_2 C 0.1526(2) 0.5298(4) 0.6698(6)
H4_2 H 0.1769 0.4913 0.6307
C6_2 C 0.0477(2) 0.4840(5) 0.8967(6)
H5_2 H 0.0484 0.4134 0.9039
C7_2 C 0.2094(2) 0.7655(4) 0.2245(5)
C8_2 C 0.1848(2) 0.7879(4) 0.0635(5)
H7_2 H 0.1499 0.7906 0.0682
C10_2 C 0.1916(2) 0.9789(4) 0.1008(6)
H10_2 H 0.2037 0.9628 0.2070
H11_2 H 0.1567 0.9872 0.0980
C11_2 C 0.2135(2) 0.9206(4) 0.5572(5)
H6_2 H 0.1916 0.7331 0.9937
C9_2 C 0.2021(2) 0.8893(4) 0.9979(5)
H8_2 H 0.1858 0.8999 0.8947
H9_2 H 0.2367 0.8856 0.9889
C4_3 C 0.38012(19) 0.9818(4) 0.7455(6)
H3_3 H 0.3774 0.9123 0.7263
H4_3 H 0.3231 0.9913 0.8693
C6_3 C 0.4523(2) 0.9840(5) 0.6033(6)
H5_3 H 0.4516 0.9134 0.5961
Cu7 Cu 0.71048(2) 0.79561(4) 0.03810(6)
O8_2 O 0.68770(13) 0.6566(3) 0.0741(4)
O11_2 O 0.74789(14) 0.7943(3) 0.2440(4)
N3_3 N 0.65102(15) 0.8708(3) 0.1411(4)
N4_3 N 0.51540(17) 0.9664(4) 0.4624(5)
C12_3 C 0.6155(2) 0.8188(4) 0.1962(6)
H12_3 H 0.6135 0.7494 0.1763
C13_3 C 0.5817(2) 0.8617(5) 0.2805(6)
H13_3 H 0.5575 0.8217 0.3177
C14_3 C 0.58337(19) 0.9639(4) 0.3105(5)
C16_3 C 0.6526(2) 0.9702(4) 0.1698(6)
O6_2 O 0.68409(15) 0.7786(3) 0.8188(4)
O14_2 O 0.74533(13) 0.9205(2) 0.9869(4)
C15_3 C 0.38012(19) 0.0182(4) 0.2455(6)
H14_3 H 0.3774 0.0877 0.2263
H15_3 H 0.3231 0.0087 0.3693
C17_3 C 0.4523(2) 0.0160(5) 0.1033(6)
H16_3 H 0.4516 0.0866 0.0961
Cu1_2 Cu 0.71048(2) 0.20439(4) 0.53810(6)
O1_3 O 0.68409(15) 0.2214(3) 0.3188(4)
O2_3 O 0.68770(13) 0.3434(3) 0.5741(4)
O3_2 O 0.75211(14) 0.2943(3) 0.2560(4)
O4_2 O 0.75467(13) 0.4205(2) 0.5131(4)
N1_3 N 0.65102(15) 0.1292(3) 0.6411(4)
N2_3 N 0.51540(17) 0.0336(4) 0.9624(5)
C1_3 C 0.6155(2) 0.1812(4) 0.6962(6)
H1_3 H 0.6135 0.2506 0.6763
C2_3 C 0.5817(2) 0.1383(5) 0.7805(6)
H2_3 H 0.5575 0.1783 0.8177
C3_3 C 0.58337(19) 0.0361(4) 0.8105(5)
C5_3 C 0.6526(2) 0.0298(4) 0.6698(6)
C7_3 C 0.7094(2) 0.2655(4) 0.2245(5)
C8_3 C 0.6848(2) 0.2879(4) 0.0635(5)
H7_3 H 0.6499 0.2906 0.0682
C10_3 C 0.6916(2) 0.4789(4) 0.1008(6)
H10_3 H 0.7037 0.4628 0.2070
H11_3 H 0.6567 0.4872 0.0980
C11_3 C 0.7135(2) 0.4206(4) 0.5572(5)
Cu2_2 Cu 0.78952(2) 0.29561(4) 0.46190(6)
Cu6 Cu 0.78952(2) 0.70439(4) 0.96190(6)
O9_2 O 0.74789(14) 0.2057(3) 0.7440(4)
O10_2 O 0.75211(14) 0.7057(3) 0.7560(4)
O12_2 O 0.74533(13) 0.0795(2) 0.4869(4)
O13_2 O 0.75467(13) 0.5795(2) 0.0131(4)
C18_3 C 0.7094(2) 0.7345(4) 0.7245(5)
C19_3 C 0.6848(2) 0.7121(4) 0.5635(5)
H17_3 H 0.6916 0.7669 0.4937
H18_3 H 0.6499 0.7094 0.5682
C20_3 C 0.7021(2) 0.6107(4) 0.4979(5)
H19_3 H 0.6858 0.6001 0.3947
H20_3 H 0.7367 0.6144 0.4889
C21_3 C 0.6916(2) 0.5211(4) 0.6008(6)
H21_3 H 0.7037 0.5372 0.7070
H22_3 H 0.6567 0.5128 0.5980
C22_3 C 0.7135(2) 0.5794(4) 0.0572(5)
H6_3 H 0.6916 0.2331 0.9937
C9_3 C 0.7021(2) 0.3893(4) 0.9979(5)
H8_3 H 0.6858 0.3999 0.8947
H9_3 H 0.7367 0.3856 0.9889
O7_2 O 0.81230(13) 0.1566(3) 0.4259(4)
H17_4 H 0.8084 0.2669 0.0063
C20_4 C 0.7979(2) 0.1107(4) 0.0021(5)
H19_4 H 0.8142 0.1001 0.1053
H20_4 H 0.7633 0.1144 0.0111
C22_4 C 0.7865(2) 0.0794(4) 0.4428(5)
O5_2 O 0.81591(15) 0.2786(3) 0.6812(4)
C18_4 C 0.7906(2) 0.2345(4) 0.7755(5)
C19_4 C 0.8152(2) 0.2121(4) 0.9365(5)
H18_4 H 0.8501 0.2094 0.9318
C21_4 C 0.8084(2) 0.0211(4) 0.8992(6)
H21_4 H 0.7963 0.0372 0.7930
H22_4 H 0.8433 0.0128 0.9020
O1_4 O 0.81591(15) 0.7214(3) 0.1812(4)
C7_4 C 0.7906(2) 0.7655(4) 0.2755(5)
C8_4 C 0.8152(2) 0.7879(4) 0.4365(5)
H6_4 H 0.8084 0.7331 0.5063
H7_4 H 0.8501 0.7906 0.4318
C9_4 C 0.7979(2) 0.8893(4) 0.5021(5)
H8_4 H 0.8142 0.8999 0.6053
H9_4 H 0.7633 0.8856 0.5111
C10_4 C 0.8084(2) 0.9789(4) 0.3992(6)
H10_4 H 0.7963 0.9628 0.2930
H11_4 H 0.8433 0.9872 0.4020
O2_4 O 0.81230(13) 0.8434(3) 0.9259(4)
N1_4 N 0.84898(15) 0.6292(3) 0.8589(4)
N2_4 N 0.98460(17) 0.5336(4) 0.5376(5)
C1_4 C 0.8845(2) 0.6812(4) 0.8038(6)
H1_4 H 0.8865 0.7506 0.8237
C2_4 C 0.9183(2) 0.6383(5) 0.7195(6)
H2_4 H 0.9425 0.6783 0.6823
C3_4 C 0.91663(19) 0.5361(4) 0.6895(5)
C4_4 C 0.88012(19) 0.4818(4) 0.7455(6)
H3_4 H 0.8774 0.4123 0.7263
C5_4 C 0.8474(2) 0.5298(4) 0.8302(6)
H4_4 H 0.8231 0.4913 0.8693
C6_4 C 0.9523(2) 0.4840(5) 0.6033(6)
H5_4 H 0.9516 0.4134 0.5961
C11_4 C 0.7865(2) 0.9206(4) 0.9428(5)
N3_4 N 0.84898(15) 0.3708(3) 0.3589(4)
N4_4 N 0.98460(17) 0.4664(4) 0.0376(5)
C12_4 C 0.8845(2) 0.3188(4) 0.3038(6)
H12_4 H 0.8865 0.2494 0.3237
C13_4 C 0.9183(2) 0.3617(5) 0.2195(6)
H13_4 H 0.9425 0.3217 0.1823
C14_4 C 0.91663(19) 0.4639(4) 0.1895(5)
C15_4 C 0.88012(19) 0.5182(4) 0.2455(6)
H14_4 H 0.8774 0.5877 0.2263
C16_4 C 0.8474(2) 0.4702(4) 0.3302(6)
H15_4 H 0.8231 0.5087 0.3693
C17_4 C 0.9523(2) 0.5160(5) 0.1033(6)
H16_4 H 0.9516 0.5866 0.0961
loop_
_geom_bond_atom_site_label_1
_geom_bond_atom_site_label_2
_geom_bond_site_symmetry_1
_geom_bond_site_symmetry_2
O1 C7 1_555 1_555
O3 C7 1_555 1_555
C7 C8 1_555 1_555
C8 H6 1_555 1_555
H7 C8 1_555 1_555
C9 C8 1_555 1_555
H8 C9 1_555 1_555
H9 C9 1_555 1_555
C10 C9 1_555 1_555
H10 C10 1_555 1_555
H11 C10 1_555 1_555
Cu2 O3 1_555 1_555
Cu3 O7 1_555 1_555
Cu4 O13 1_555 1_555
O7 C22 1_555 1_555
O13 C22 1_555 1_555
H19 C20 1_555 1_555
H20 C20 1_555 1_555
C22 C10 1_555 1_555
O2 Cu1 1_555 1_555
O4 C11 1_555 1_555
N1 Cu1 1_555 1_555
C1 N1 1_555 1_555
H1 C1 1_555 1_555
C2 C1 1_555 1_555
H2 C2 1_555 1_555
C3 C2 1_555 1_555
C5 N1 1_555 1_555
C11 O2 1_555 1_555
Cu3 O5 1_555 1_555
Cu4 O10 1_555 1_555
O5 C18 1_555 1_555
O9 Cu1 1_555 1_555
O10 C18 1_555 1_555
H14 C15 1_555 1_555
H16 C17 1_555 1_555
C18 C19 1_555 1_555
H18 C19 1_555 1_555
C21 C11 1_555 1_555
H21 C21 1_555 1_555
H22 C21 1_555 1_555
O11 Cu3 1_555 1_555
O14 Cu3 1_555 1_555
N3 Cu3 1_555 1_555
C12 N3 1_555 1_555
H12 C12 1_555 1_555
C13 C12 1_555 1_555
H13 C13 1_555 1_555
C14 C13 1_555 1_555
C16 N3 1_555 1_555
H3 C4 1_555 1_555
H5 C6 1_555 1_555
O8 Cu2 1_555 1_555
N3_2 Cu2 1_555 1_555
C12_2 N3_2 1_555 1_555
H12_2 C12_2 1_555 1_555
C13_2 C12_2 1_555 1_555
H13_2 C13_2 1_555 1_555
C14_2 C13_2 1_555 1_555
C15_2 C14_2 1_555 1_555
H14_2 C15_2 1_555 1_555
C16_2 N3_2 1_555 1_555
H15_2 C16_2 1_555 1_555
C17_2 N4_2 1_555 1_555
H16_2 C17_2 1_555 1_555
C14_2 C17_2 1_555 1_555
C15_2 C16_2 1_555 1_555
O6 C18_2 1_555 1_555
O8 C22_2 1_555 1_555
O9 C18_2 1_555 1_555
O12 C22_2 1_555 1_555
C18_2 C19_2 1_555 1_555
C19_2 H17_2 1_555 1_555
H18_2 C19_2 1_555 1_555
C20_2 C19_2 1_555 1_555
H19_2 C20_2 1_555 1_555
H20_2 C20_2 1_555 1_555
H21_2 C21_2 1_555 1_555
H22_2 C21_2 1_555 1_555
C20_2 C21_2 1_555 1_555
Cu4 O1_2 1_555 1_555
O1_2 C7_2 1_555 1_555
O2_2 Cu4 1_555 1_555
O11 C7_2 1_555 1_555
O14 C11_2 1_555 1_555
N1_2 Cu4 1_555 1_555
N2_2 C6_2 1_555 1_555
C1_2 N1_2 1_555 1_555
H1_2 C1_2 1_555 1_555
C2_2 C1_2 1_555 1_555
H2_2 C2_2 1_555 1_555
C3_2 C2_2 1_555 1_555
C4_2 C3_2 1_555 1_555
H3_2 C4_2 1_555 1_555
C5_2 N1_2 1_555 1_555
H4_2 C5_2 1_555 1_555
C6_2 C3_2 1_555 1_555
H5_2 C6_2 1_555 1_555
C7_2 C8_2 1_555 1_555
H7_2 C8_2 1_555 1_555
H10_2 C10_2 1_555 1_555
H11_2 C10_2 1_555 1_555
C11_2 O2_2 1_555 1_555
C4_2 C5_2 1_555 1_555
H8_2 C9_2 1_555 1_555
H9_2 C9_2 1_555 1_555
H3_3 C4_3 1_555 1_555
H5_3 C6_3 1_555 1_555
O8_2 Cu7 1_555 1_555
O11_2 Cu7 1_555 1_555
N3_3 Cu7 1_555 1_555
C12_3 N3_3 1_555 1_555
H12_3 C12_3 1_555 1_555
C13_3 C12_3 1_555 1_555
H13_3 C13_3 1_555 1_555
C14_3 C13_3 1_555 1_555
C16_3 N3_3 1_555 1_555
H14_3 C15_3 1_555 1_555
H16_3 C17_3 1_555 1_555
Cu1_2 O1_3 1_555 1_555
O1_3 C7_3 1_555 1_555
O2_3 Cu1_2 1_555 1_555
O3_2 C7_3 1_555 1_555
O4_2 C11_3 1_555 1_555
N1_3 Cu1_2 1_555 1_555
C1_3 N1_3 1_555 1_555
H1_3 C1_3 1_555 1_555
C2_3 C1_3 1_555 1_555
H2_3 C2_3 1_555 1_555
C3_3 C2_3 1_555 1_555
C5_3 N1_3 1_555 1_555
C7_3 C8_3 1_555 1_555
H7_3 C8_3 1_555 1_555
H10_3 C10_3 1_555 1_555
H11_3 C10_3 1_555 1_555
C11_3 O2_3 1_555 1_555
Cu2_2 O3_2 1_555 1_555
Cu6 O10_2 1_555 1_555
O6_2 C18_3 1_555 1_555
O8_2 C22_3 1_555 1_555
O9_2 Cu1_2 1_555 1_555
O10_2 C18_3 1_555 1_555
O12_2 Cu1_2 1_555 1_555
O13_2 C22_3 1_555 1_555
C18_3 C19_3 1_555 1_555
C19_3 H17_3 1_555 1_555
H18_3 C19_3 1_555 1_555
C20_3 C19_3 1_555 1_555
H19_3 C20_3 1_555 1_555
H20_3 C20_3 1_555 1_555
C21_3 C11_3 1_555 1_555
H21_3 C21_3 1_555 1_555
H22_3 C21_3 1_555 1_555
C22_3 C10_3 1_555 1_555
O4_2 Cu2_2 1_555 1_555
C20_3 C21_3 1_555 1_555
H8_3 C9_3 1_555 1_555
H9_3 C9_3 1_555 1_555
Cu2_2 O7_2 1_555 1_555
O7_2 C22_4 1_555 1_555
O12_2 C22_4 1_555 1_555
H19_4 C20_4 1_555 1_555
H20_4 C20_4 1_555 1_555
Cu2_2 O5_2 1_555 1_555
O5_2 C18_4 1_555 1_555
O9_2 C18_4 1_555 1_555
C18_4 C19_4 1_555 1_555
H18_4 C19_4 1_555 1_555
H21_4 C21_4 1_555 1_555
H22_4 C21_4 1_555 1_555
O1_4 C7_4 1_555 1_555
O11_2 C7_4 1_555 1_555
C7_4 C8_4 1_555 1_555
C8_4 H6_4 1_555 1_555
H7_4 C8_4 1_555 1_555
C9_4 C8_4 1_555 1_555
H8_4 C9_4 1_555 1_555
H9_4 C9_4 1_555 1_555
C10_4 C9_4 1_555 1_555
H10_4 C10_4 1_555 1_555
H11_4 C10_4 1_555 1_555
O2_4 Cu6 1_555 1_555
O14_2 C11_4 1_555 1_555
N1_4 Cu6 1_555 1_555
N2_4 C6_4 1_555 1_555
C1_4 N1_4 1_555 1_555
H1_4 C1_4 1_555 1_555
C2_4 C1_4 1_555 1_555
H2_4 C2_4 1_555 1_555
C3_4 C2_4 1_555 1_555
C4_4 C3_4 1_555 1_555
H3_4 C4_4 1_555 1_555
C5_4 N1_4 1_555 1_555
H4_4 C5_4 1_555 1_555
C6_4 C3_4 1_555 1_555
H5_4 C6_4 1_555 1_555
C11_4 O2_4 1_555 1_555
C4_4 C5_4 1_555 1_555
N3_4 Cu2_2 1_555 1_555
C12_4 N3_4 1_555 1_555
H12_4 C12_4 1_555 1_555
C13_4 C12_4 1_555 1_555
H13_4 C13_4 1_555 1_555
C14_4 C13_4 1_555 1_555
C15_4 C14_4 1_555 1_555
H14_4 C15_4 1_555 1_555
C16_4 N3_4 1_555 1_555
H15_4 C16_4 1_555 1_555
C17_4 N4_4 1_555 1_555
H16_4 C17_4 1_555 1_555
C14_4 C17_4 1_555 1_555
C15_4 C16_4 1_555 1_555

#END
