
###############################################################################
#
# This file contains modified crystal structure data generated from the
# MOF subset of the Cambridge Structural Database (CSD) v543 
# hosted by the Cambridge Crystallographic Data Centre (CCDC).
#
# This work is licensed under the Creative Commons
# Attribution-NonCommercial-ShareAlike 4.0 International License.
# To view a copy of this license, visit
# http://creativecommons.org/licenses/by-nc-sa/4.0/
# or send a letter to
# Creative Commons, PO Box 1866, Mountain View, CA 94042, USA.
#
# CIF created using the CSD Python API on 29 September 2022
# The structure has been converted into the P1 space group
# The structure has a 3D framework
# The original CSD entry VABNAR is in the rhombohedral crystal system
# The framework has been calculated to contain at least 10.0% void space
# The void calculation uses a probe of radius 1.32A, grid spacing 0.4
#
###############################################################################

data_VABNAR
_chemical_formula_moiety         '(C108 H54 Cu8 N54 O32)n'
_symmetry_cell_setting           triclinic
_symmetry_space_group_name_H-M   'P 1'
_symmetry_Int_Tables_number      1
_space_group_name_Hall           'P 1'
loop_
_symmetry_equiv_pos_site_id
_symmetry_equiv_pos_as_xyz
1 x,y,z
_cell_length_a                   22.7212(13)
_cell_length_b                   22.7212
_cell_length_c                   10.8979(7)
_cell_angle_alpha                90
_cell_angle_beta                 90
_cell_angle_gamma                120
_cell_volume                     4872.32
loop_
_atom_site_label
_atom_site_type_symbol
_atom_site_fract_x
_atom_site_fract_y
_atom_site_fract_z
H2 H 0.0258 0.3882 0.3885
Cu3 Cu 0.0001 0.5000 0.5000
Cu2 Cu 0.8333 0.1667 0.1667
O1 O 0.8365(2) 0.1345(2) 0.3361(4)
O2 O 0.8259(2) 0.2257(2) 0.3583(4)
N1 N 0.9138(2) 0.2944(2) 0.5589(4)
N2 N 0.9623(3) 0.3024(3) 0.4761(5)
N3 N 0.9632(3) 0.4004(2) 0.5049(4)
C1 C 0.8333(3) 0.1794(3) 0.3997(5)
C2 C 0.8371(3) 0.1728(3) 0.5375(5)
C3 C 0.8707(3) 0.2292(3) 0.6138(5)
C4 C 0.8669(3) 0.2241(3) 0.7406(5)
H1 H 0.8896 0.2639 0.7897
C5 C 0.9899(3) 0.3669(3) 0.4464(6)
C6 C 0.9153(3) 0.3533(3) 0.5764(5)
H3 H 0.8868 0.3604 0.6310
O3 O 0.8302(2) 0.1988(2) 0.9972(4)
O4 O 0.8408(2) 0.1076(2) 0.9750(4)
N4 N 0.7529(2) 0.0389(2) 0.7744(4)
N5 N 0.7044(3) 0.0309(3) 0.8572(5)
C7 C 0.8334(3) 0.1539(3) 0.9336(5)
C8 C 0.8296(3) 0.1605(3) 0.7958(5)
C9 C 0.7960(3) 0.1041(3) 0.7195(5)
C10 C 0.7998(3) 0.1092(3) 0.5927(5)
H4 H 0.7771 0.0694 0.5436
N7 N 0.9329(2) 0.2295(4) 0.1716(4)
N8 N 0.7337(2) 0.1039(4) 0.1618(4)
N6 N 0.7035(3) 0.9329(2) 0.8284(4)
C11 C 0.6768(3) 0.9664(3) 0.8869(6)
H5 H 0.6409 0.9451 0.9448
C12 C 0.7514(3) 0.9800(3) 0.7569(5)
H6 H 0.7799 0.9729 0.7023
Cu4 Cu 0.6667 0.8334 0.8334
N6_2 N 0.0671(2) 0.7705(4) 0.8284(4)
C11_2 C 0.0336(3) 0.7103(4) 0.8869(6)
H5_2 H 0.0549 0.6957 0.9448
C12_2 C 0.0200(3) 0.7713(4) 0.7569(5)
H6_2 H 0.0271 0.8069 0.7023
Cu4_2 Cu 0.1666 0.8334 0.8334
Cu2_2 Cu 0.8333 0.6666 0.1667
O1_2 O 0.8655(2) 0.7020(3) 0.3361(4)
O2_2 O 0.7743(2) 0.6002(3) 0.3583(4)
N1_2 N 0.7056(2) 0.6194(3) 0.5589(4)
N2_2 N 0.6976(3) 0.6599(4) 0.4761(5)
N3_2 N 0.5996(2) 0.5628(4) 0.5049(4)
C1_2 C 0.8206(3) 0.6539(4) 0.3997(5)
C2_2 C 0.8272(3) 0.6643(4) 0.5375(5)
C3_2 C 0.7708(3) 0.6415(4) 0.6138(5)
C4_2 C 0.7759(3) 0.6428(4) 0.7406(5)
H1_2 H 0.7361 0.6257 0.7897
C5_2 C 0.6331(3) 0.6230(4) 0.4464(6)
H2_2 H 0.6118 0.6376 0.3885
C6_2 C 0.6467(3) 0.5620(4) 0.5764(5)
H3_2 H 0.6396 0.5264 0.6310
O3_2 O 0.8012(2) 0.6313(3) 0.9972(4)
O4_2 O 0.8924(2) 0.7331(3) 0.9750(4)
N4_2 N 0.9611(2) 0.7139(3) 0.7744(4)
N5_2 N 0.9691(3) 0.6734(4) 0.8572(5)
C7_2 C 0.8461(3) 0.6794(4) 0.9336(5)
C8_2 C 0.8395(3) 0.6690(4) 0.7958(5)
C9_2 C 0.8959(3) 0.6918(4) 0.7195(5)
C10_2 C 0.8908(3) 0.6905(4) 0.5927(5)
H4_2 H 0.9306 0.7076 0.5436
Cu3_2 Cu 0.5000 0.5000 0.5000
N7_2 N 0.7705(4) 0.7035(4) 0.1716(4)
N8_2 N 0.8961(4) 0.6299(4) 0.1618(4)
Cu2_3 Cu 0.3334 0.1667 0.1667
O1_3 O 0.2980(3) 0.1635(2) 0.3361(4)
O2_3 O 0.3998(3) 0.1741(2) 0.3583(4)
N1_3 N 0.3806(3) 0.0862(2) 0.5589(4)
N2_3 N 0.3401(4) 0.0377(3) 0.4761(5)
N3_3 N 0.4372(4) 0.0368(3) 0.5049(4)
C1_3 C 0.3461(4) 0.1667(3) 0.3997(5)
C2_3 C 0.3357(4) 0.1629(3) 0.5375(5)
C3_3 C 0.3585(4) 0.1293(3) 0.6138(5)
C4_3 C 0.3572(4) 0.1331(3) 0.7406(5)
H1_3 H 0.3743 0.1104 0.7897
C5_3 C 0.3770(4) 0.0101(3) 0.4464(6)
C6_3 C 0.4380(4) 0.0847(3) 0.5764(5)
H3_3 H 0.4736 0.1132 0.6310
O3_3 O 0.3687(3) 0.1698(2) 0.9972(4)
O4_3 O 0.2669(3) 0.1592(2) 0.9750(4)
N4_3 N 0.2861(3) 0.2471(2) 0.7744(4)
N5_3 N 0.3266(4) 0.2956(3) 0.8572(5)
N6_3 N 0.2295(4) 0.2965(3) 0.8284(4)
C7_3 C 0.3206(4) 0.1666(3) 0.9336(5)
C8_3 C 0.3310(4) 0.1704(3) 0.7958(5)
C9_3 C 0.3082(4) 0.2040(3) 0.7195(5)
C10_3 C 0.3095(4) 0.2002(3) 0.5927(5)
H4_3 H 0.2924 0.2229 0.5436
C11_3 C 0.2897(4) 0.3232(3) 0.8869(6)
H5_3 H 0.3043 0.3591 0.9448
C12_3 C 0.2287(4) 0.2486(3) 0.7569(5)
H6_3 H 0.1931 0.2201 0.7023
Cu4_3 Cu 0.1666 0.3333 0.8334
N7_3 N 0.2965(4) 0.0671(2) 0.1716(4)
N8_3 N 0.3701(4) 0.2663(2) 0.1618(4)
H2_3 H 0.3624 0.9742 0.3885
Cu3_3 Cu 0.5000 0.9999 0.5000
C4_4 C 0.5336(3) 0.5574(3) 0.0739(5)
H1_4 H 0.5563 0.5972 0.1230
O3_4 O 0.4968(2) 0.5322(2) 0.3306(4)
O4_4 O 0.5074(2) 0.4410(2) 0.3084(4)
N4_4 N 0.4195(2) 0.3723(2) 0.1078(4)
N5_4 N 0.3710(3) 0.3643(3) 0.1906(5)
C7_4 C 0.5000(3) 0.4873(3) 0.2670(5)
C8_4 C 0.4962(3) 0.4939(3) 0.1292(5)
C9_4 C 0.4626(3) 0.4375(3) 0.0529(5)
C11_4 C 0.3434(3) 0.2998(3) 0.2203(6)
H5_4 H 0.3075 0.2785 0.2782
C12_4 C 0.4180(3) 0.3134(3) 0.0903(5)
H6_4 H 0.4465 0.3063 0.0357
O1_4 O 0.5032(2) 0.4678(2) 0.6694(4)
O2_4 O 0.4926(2) 0.5590(2) 0.6916(4)
N1_4 N 0.5805(2) 0.6277(2) 0.8922(4)
N2_4 N 0.6290(3) 0.6357(3) 0.8094(5)
N3_4 N 0.6299(3) 0.7337(2) 0.8382(4)
C1_4 C 0.5000(3) 0.5127(3) 0.7330(5)
C2_4 C 0.5038(3) 0.5061(3) 0.8708(5)
C3_4 C 0.5374(3) 0.5625(3) 0.9471(5)
C5_4 C 0.6566(3) 0.7002(3) 0.7797(6)
H2_4 H 0.6925 0.7215 0.7218
C6_4 C 0.5820(3) 0.6866(3) 0.9097(5)
H3_4 H 0.5535 0.6937 0.9643
C10_4 C 0.4664(3) 0.4426(3) 0.9261(5)
H4_4 H 0.4437 0.4028 0.8770
N8_4 N 0.4004(2) 0.4372(4) 0.4951(4)
O4_5 O 0.5590(2) 0.0665(3) 0.3084(4)
N4_5 N 0.6277(2) 0.0473(3) 0.1078(4)
N5_5 N 0.6357(3) 0.0068(4) 0.1906(5)
C7_5 C 0.5127(3) 0.0128(4) 0.2670(5)
C8_5 C 0.5061(3) 0.0024(4) 0.1292(5)
C9_5 C 0.5625(3) 0.0252(4) 0.0529(5)
C11_5 C 0.7002(3) 0.0437(4) 0.2203(6)
H5_5 H 0.7215 0.0291 0.2782
C12_5 C 0.6866(3) 0.1047(4) 0.0903(5)
H6_5 H 0.6937 0.1403 0.0357
O1_5 O 0.5322(2) 0.0353(3) 0.6694(4)
C10_5 C 0.5574(3) 0.0239(4) 0.9261(5)
H4_5 H 0.5972 0.0410 0.8770
C4_5 C 0.4426(3) 0.9761(4) 0.0739(5)
H1_5 H 0.4028 0.9590 0.1230
O3_5 O 0.4678(2) 0.9647(3) 0.3306(4)
O2_5 O 0.4410(2) 0.9335(3) 0.6916(4)
N1_5 N 0.3723(2) 0.9527(3) 0.8922(4)
N2_5 N 0.3643(3) 0.9932(4) 0.8094(5)
N3_5 N 0.2663(2) 0.8961(4) 0.8382(4)
C1_5 C 0.4873(3) 0.9872(4) 0.7330(5)
C2_5 C 0.4939(3) 0.9976(4) 0.8708(5)
C3_5 C 0.4375(3) 0.9748(4) 0.9471(5)
C5_5 C 0.2998(3) 0.9563(4) 0.7797(6)
H2_5 H 0.2785 0.9709 0.7218
C6_5 C 0.3134(3) 0.8953(4) 0.9097(5)
H3_5 H 0.3063 0.8597 0.9643
N8_5 N 0.5628(4) 0.9632(4) 0.4951(4)
C4_6 C 0.0239(4) 0.4664(3) 0.0739(5)
H1_6 H 0.0410 0.4437 0.1230
O3_6 O 0.0353(3) 0.5032(2) 0.3306(4)
O2_6 O 0.0665(3) 0.5074(2) 0.6916(4)
N1_6 N 0.0473(3) 0.4195(2) 0.8922(4)
N2_6 N 0.0068(4) 0.3710(3) 0.8094(5)
N3_6 N 0.1039(4) 0.3701(3) 0.8382(4)
C1_6 C 0.0128(4) 0.5000(3) 0.7330(5)
C2_6 C 0.0024(4) 0.4962(3) 0.8708(5)
C3_6 C 0.0252(4) 0.4626(3) 0.9471(5)
C5_6 C 0.0437(4) 0.3434(3) 0.7797(6)
H2_6 H 0.0291 0.3075 0.7218
C6_6 C 0.1047(4) 0.4180(3) 0.9097(5)
H3_6 H 0.1403 0.4465 0.9643
N8_6 N 0.0368(4) 0.5996(2) 0.4951(4)
O4_6 O 0.9335(3) 0.4926(2) 0.3084(4)
N4_6 N 0.9527(3) 0.5805(2) 0.1078(4)
N5_6 N 0.9932(4) 0.6290(3) 0.1906(5)
C7_6 C 0.9872(4) 0.5000(3) 0.2670(5)
C8_6 C 0.9976(4) 0.5038(3) 0.1292(5)
C9_6 C 0.9748(4) 0.5374(3) 0.0529(5)
C11_6 C 0.9563(4) 0.6566(3) 0.2203(6)
H5_6 H 0.9709 0.6925 0.2782
C12_6 C 0.8953(4) 0.5820(3) 0.0903(5)
H6_6 H 0.8597 0.5535 0.0357
O1_6 O 0.9647(3) 0.4968(2) 0.6694(4)
C10_6 C 0.9761(4) 0.5336(3) 0.9261(5)
H4_6 H 0.9590 0.5563 0.8770
C5_7 C 0.3232(3) 0.0336(3) 0.1131(6)
H2_7 H 0.3591 0.0549 0.0552
C6_7 C 0.2486(3) 0.0200(3) 0.2431(5)
H3_7 H 0.2201 0.0271 0.2977
O1_7 O 0.1698(2) 0.8012(2) 0.0028(4)
O2_7 O 0.1592(2) 0.8924(2) 0.0250(4)
N1_7 N 0.2471(2) 0.9611(2) 0.2256(4)
N2_7 N 0.2956(3) 0.9691(3) 0.1428(5)
C1_7 C 0.1666(3) 0.8461(3) 0.0664(5)
C2_7 C 0.1704(3) 0.8395(3) 0.2042(5)
C3_7 C 0.2040(3) 0.8959(3) 0.2805(5)
C4_7 C 0.2002(3) 0.8908(3) 0.4073(5)
H1_7 H 0.2229 0.9306 0.4564
O3_7 O 0.1635(2) 0.8655(2) 0.6639(4)
O4_7 O 0.1741(2) 0.7743(2) 0.6417(4)
N4_7 N 0.0862(2) 0.7056(2) 0.4411(4)
N5_7 N 0.0377(3) 0.6976(3) 0.5239(5)
C7_7 C 0.1667(3) 0.8206(3) 0.6003(5)
C8_7 C 0.1629(3) 0.8272(3) 0.4625(5)
C9_7 C 0.1293(3) 0.7708(3) 0.3862(5)
C10_7 C 0.1331(3) 0.7759(3) 0.2594(5)
H4_7 H 0.1104 0.7361 0.2103
C11_7 C 0.0101(3) 0.6331(3) 0.5536(6)
C12_7 C 0.0847(3) 0.6467(3) 0.4236(5)
H6_7 H 0.1132 0.6396 0.3690
H5_7 H 0.9742 0.6118 0.6115
O1_8 O 0.1988(2) 0.3687(3) 0.0028(4)
O2_8 O 0.1076(2) 0.2669(3) 0.0250(4)
N1_8 N 0.0389(2) 0.2861(3) 0.2256(4)
N2_8 N 0.0309(3) 0.3266(4) 0.1428(5)
C1_8 C 0.1539(3) 0.3206(4) 0.0664(5)
C2_8 C 0.1605(3) 0.3310(4) 0.2042(5)
C3_8 C 0.1041(3) 0.3082(4) 0.2805(5)
C4_8 C 0.1092(3) 0.3095(4) 0.4073(5)
H1_8 H 0.0694 0.2924 0.4564
O3_8 O 0.1345(2) 0.2980(3) 0.6639(4)
O4_8 O 0.2257(2) 0.3998(3) 0.6417(4)
N4_8 N 0.2944(2) 0.3806(3) 0.4411(4)
N5_8 N 0.3024(3) 0.3401(4) 0.5239(5)
C7_8 C 0.1794(3) 0.3461(4) 0.6003(5)
C8_8 C 0.1728(3) 0.3357(4) 0.4625(5)
C9_8 C 0.2292(3) 0.3585(4) 0.3862(5)
C10_8 C 0.2241(3) 0.3572(4) 0.2594(5)
H4_8 H 0.2639 0.3743 0.2103
C11_8 C 0.3669(3) 0.3770(4) 0.5536(6)
H5_8 H 0.3882 0.3624 0.6115
C12_8 C 0.3533(3) 0.4380(4) 0.4236(5)
H6_8 H 0.3604 0.4736 0.3690
C5_8 C 0.9664(3) 0.2897(4) 0.1131(6)
H2_8 H 0.9451 0.3043 0.0552
C6_8 C 0.9800(3) 0.2287(4) 0.2431(5)
H3_8 H 0.9729 0.1931 0.2977
H5_9 H 0.6376 0.0258 0.6115
O1_9 O 0.6313(3) 0.8302(2) 0.0028(4)
O2_9 O 0.7331(3) 0.8408(2) 0.0250(4)
N1_9 N 0.7139(3) 0.7529(2) 0.2256(4)
N2_9 N 0.6734(4) 0.7044(3) 0.1428(5)
C1_9 C 0.6794(4) 0.8334(3) 0.0664(5)
C2_9 C 0.6690(4) 0.8296(3) 0.2042(5)
C3_9 C 0.6918(4) 0.7960(3) 0.2805(5)
C4_9 C 0.6905(4) 0.7998(3) 0.4073(5)
H1_9 H 0.7076 0.7771 0.4564
C5_9 C 0.7103(4) 0.6768(3) 0.1131(6)
H2_9 H 0.6957 0.6409 0.0552
C6_9 C 0.7713(4) 0.7514(3) 0.2431(5)
H3_9 H 0.8069 0.7799 0.2977
O3_9 O 0.7020(3) 0.8365(2) 0.6639(4)
O4_9 O 0.6002(3) 0.8259(2) 0.6417(4)
N4_9 N 0.6194(3) 0.9138(2) 0.4411(4)
N5_9 N 0.6599(4) 0.9623(3) 0.5239(5)
C7_9 C 0.6539(4) 0.8333(3) 0.6003(5)
C8_9 C 0.6643(4) 0.8371(3) 0.4625(5)
C9_9 C 0.6415(4) 0.8707(3) 0.3862(5)
C10_9 C 0.6428(4) 0.8669(3) 0.2594(5)
H4_9 H 0.6257 0.8896 0.2103
C11_9 C 0.6230(4) 0.9899(3) 0.5536(6)
C12_9 C 0.5620(4) 0.9153(3) 0.4236(5)
H6_9 H 0.5264 0.8868 0.3690
Cu3_4 Cu 0.9999 0.5000 0.5000
Cu3_5 Cu 0.5000 0.0001 0.5000
loop_
_geom_bond_atom_site_label_1
_geom_bond_atom_site_label_2
_geom_bond_site_symmetry_1
_geom_bond_site_symmetry_2
Cu2 O1 1_555 1_555
O1 C1 1_555 1_555
O2 Cu2 1_555 1_555
N1 N2 1_555 1_555
N2 C5 1_555 1_555
N3 C5 1_555 1_555
C1 O2 1_555 1_555
C2 C1 1_555 1_555
C3 N1 1_555 1_555
C4 C3 1_555 1_555
H1 C4 1_555 1_555
C6 N1 1_555 1_555
H3 C6 1_555 1_555
O3 C7 1_555 1_555
O4 C7 1_555 1_555
N4 N5 1_555 1_555
C7 C8 1_555 1_555
C8 C4 1_555 1_555
C9 N4 1_555 1_555
C10 C2 1_555 1_555
H4 C10 1_555 1_555
N7 Cu2 1_555 1_555
N8 Cu2 1_555 1_555
N3 C6 1_555 1_555
C2 C3 1_555 1_555
C8 C9 1_555 1_555
C9 C10 1_555 1_555
N6 C11 1_555 1_555
C11 H5 1_555 1_555
H6 C12 1_555 1_555
Cu4 N6 1_555 1_555
N6 C12 1_555 1_555
N6_2 C11_2 1_555 1_555
C11_2 H5_2 1_555 1_555
H6_2 C12_2 1_555 1_555
Cu4_2 N6_2 1_555 1_555
N6_2 C12_2 1_555 1_555
Cu2_2 O1_2 1_555 1_555
O1_2 C1_2 1_555 1_555
O2_2 Cu2_2 1_555 1_555
N1_2 N2_2 1_555 1_555
N2_2 C5_2 1_555 1_555
N3_2 C5_2 1_555 1_555
C1_2 O2_2 1_555 1_555
C2_2 C1_2 1_555 1_555
C3_2 N1_2 1_555 1_555
C4_2 C3_2 1_555 1_555
H1_2 C4_2 1_555 1_555
C5_2 H2_2 1_555 1_555
C6_2 N1_2 1_555 1_555
H3_2 C6_2 1_555 1_555
O3_2 C7_2 1_555 1_555
O4_2 C7_2 1_555 1_555
N4_2 N5_2 1_555 1_555
C7_2 C8_2 1_555 1_555
C8_2 C4_2 1_555 1_555
C9_2 N4_2 1_555 1_555
C10_2 C2_2 1_555 1_555
H4_2 C10_2 1_555 1_555
Cu3_2 N3_2 1_555 1_555
N7_2 Cu2_2 1_555 1_555
N8_2 Cu2_2 1_555 1_555
N3_2 C6_2 1_555 1_555
C2_2 C3_2 1_555 1_555
C8_2 C9_2 1_555 1_555
C9_2 C10_2 1_555 1_555
Cu2_3 O1_3 1_555 1_555
O1_3 C1_3 1_555 1_555
O2_3 Cu2_3 1_555 1_555
N1_3 N2_3 1_555 1_555
N2_3 C5_3 1_555 1_555
N3_3 C5_3 1_555 1_555
C1_3 O2_3 1_555 1_555
C2_3 C1_3 1_555 1_555
C3_3 N1_3 1_555 1_555
C4_3 C3_3 1_555 1_555
H1_3 C4_3 1_555 1_555
C6_3 N1_3 1_555 1_555
H3_3 C6_3 1_555 1_555
O3_3 C7_3 1_555 1_555
O4_3 C7_3 1_555 1_555
N4_3 N5_3 1_555 1_555
N5_3 C11_3 1_555 1_555
N6_3 C11_3 1_555 1_555
C7_3 C8_3 1_555 1_555
C8_3 C4_3 1_555 1_555
C9_3 N4_3 1_555 1_555
C10_3 C2_3 1_555 1_555
H4_3 C10_3 1_555 1_555
C11_3 H5_3 1_555 1_555
C12_3 N4_3 1_555 1_555
H6_3 C12_3 1_555 1_555
Cu4_3 N6_3 1_555 1_555
N7_3 Cu2_3 1_555 1_555
N8_3 Cu2_3 1_555 1_555
N3_3 C6_3 1_555 1_555
C2_3 C3_3 1_555 1_555
N6_3 C12_3 1_555 1_555
C8_3 C9_3 1_555 1_555
C9_3 C10_3 1_555 1_555
H1_4 C4_4 1_555 1_555
O3_4 C7_4 1_555 1_555
O4_4 C7_4 1_555 1_555
N4_4 N5_4 1_555 1_555
N5_4 C11_4 1_555 1_555
N8_3 C11_4 1_555 1_555
C7_4 C8_4 1_555 1_555
C8_4 C4_4 1_555 1_555
C9_4 N4_4 1_555 1_555
C11_4 H5_4 1_555 1_555
C12_4 N4_4 1_555 1_555
H6_4 C12_4 1_555 1_555
Cu3_2 O3_4 1_555 1_555
O4_4 Cu3_2 1_555 1_555
N8_3 C12_4 1_555 1_555
C8_4 C9_4 1_555 1_555
Cu3_2 O1_4 1_555 1_555
O1_4 C1_4 1_555 1_555
O2_4 Cu3_2 1_555 1_555
N1_4 N2_4 1_555 1_555
N2_4 C5_4 1_555 1_555
N3_4 C5_4 1_555 1_555
C1_4 O2_4 1_555 1_555
C2_4 C1_4 1_555 1_555
C3_4 N1_4 1_555 1_555
C5_4 H2_4 1_555 1_555
C6_4 N1_4 1_555 1_555
H3_4 C6_4 1_555 1_555
C10_4 C2_4 1_555 1_555
H4_4 C10_4 1_555 1_555
Cu4 N3_4 1_555 1_555
N8_4 Cu3_2 1_555 1_555
N3_4 C6_4 1_555 1_555
C2_4 C3_4 1_555 1_555
O4_5 C7_5 1_555 1_555
N4_5 N5_5 1_555 1_555
N5_5 C11_5 1_555 1_555
N8 C11_5 1_555 1_555
C7_5 C8_5 1_555 1_555
C9_5 N4_5 1_555 1_555
C11_5 H5_5 1_555 1_555
C12_5 N4_5 1_555 1_555
H6_5 C12_5 1_555 1_555
N8 C12_5 1_555 1_555
C8_5 C9_5 1_555 1_555
H4_5 C10_5 1_555 1_555
H1_5 C4_5 1_555 1_555
Cu3_3 O3_5 1_555 1_555
O2_5 Cu3_3 1_555 1_555
N1_5 N2_5 1_555 1_555
N2_5 C5_5 1_555 1_555
N3_5 C5_5 1_555 1_555
C1_5 O2_5 1_555 1_555
C2_5 C1_5 1_555 1_555
C3_5 N1_5 1_555 1_555
C5_5 H2_5 1_555 1_555
C6_5 N1_5 1_555 1_555
H3_5 C6_5 1_555 1_555
Cu4_2 N3_5 1_555 1_555
N8_5 Cu3_3 1_555 1_555
N3_5 C6_5 1_555 1_555
C2_5 C3_5 1_555 1_555
H1_6 C4_6 1_555 1_555
Cu3 O3_6 1_555 1_555
O2_6 Cu3 1_555 1_555
N1_6 N2_6 1_555 1_555
N2_6 C5_6 1_555 1_555
N3_6 C5_6 1_555 1_555
C1_6 O2_6 1_555 1_555
C2_6 C1_6 1_555 1_555
C3_6 N1_6 1_555 1_555
C5_6 H2_6 1_555 1_555
C6_6 N1_6 1_555 1_555
H3_6 C6_6 1_555 1_555
Cu4_3 N3_6 1_555 1_555
N8_6 Cu3 1_555 1_555
N3_6 C6_6 1_555 1_555
C2_6 C3_6 1_555 1_555
O4_6 C7_6 1_555 1_555
N4_6 N5_6 1_555 1_555
N5_6 C11_6 1_555 1_555
N8_2 C11_6 1_555 1_555
C7_6 C8_6 1_555 1_555
C9_6 N4_6 1_555 1_555
C11_6 H5_6 1_555 1_555
C12_6 N4_6 1_555 1_555
H6_6 C12_6 1_555 1_555
N8_2 C12_6 1_555 1_555
C8_6 C9_6 1_555 1_555
H4_6 C10_6 1_555 1_555
N7_3 C5_7 1_555 1_555
C5_7 H2_7 1_555 1_555
H3_7 C6_7 1_555 1_555
N7_3 C6_7 1_555 1_555
O1_7 C1_7 1_555 1_555
N1_7 N2_7 1_555 1_555
C1_7 O2_7 1_555 1_555
C2_7 C1_7 1_555 1_555
C3_7 N1_7 1_555 1_555
C4_7 C3_7 1_555 1_555
H1_7 C4_7 1_555 1_555
O3_7 C7_7 1_555 1_555
O4_7 C7_7 1_555 1_555
N4_7 N5_7 1_555 1_555
N5_7 C11_7 1_555 1_555
N8_6 C11_7 1_555 1_555
C7_7 C8_7 1_555 1_555
C8_7 C4_7 1_555 1_555
C9_7 N4_7 1_555 1_555
C10_7 C2_7 1_555 1_555
H4_7 C10_7 1_555 1_555
C12_7 N4_7 1_555 1_555
H6_7 C12_7 1_555 1_555
Cu4_2 O3_7 1_555 1_555
C2_7 C3_7 1_555 1_555
O4_7 Cu4_2 1_555 1_555
N8_6 C12_7 1_555 1_555
C8_7 C9_7 1_555 1_555
C9_7 C10_7 1_555 1_555
O1_8 C1_8 1_555 1_555
N1_8 N2_8 1_555 1_555
C1_8 O2_8 1_555 1_555
C2_8 C1_8 1_555 1_555
C3_8 N1_8 1_555 1_555
C4_8 C3_8 1_555 1_555
H1_8 C4_8 1_555 1_555
O3_8 C7_8 1_555 1_555
O4_8 C7_8 1_555 1_555
N4_8 N5_8 1_555 1_555
N5_8 C11_8 1_555 1_555
N8_4 C11_8 1_555 1_555
C7_8 C8_8 1_555 1_555
C8_8 C4_8 1_555 1_555
C9_8 N4_8 1_555 1_555
C10_8 C2_8 1_555 1_555
H4_8 C10_8 1_555 1_555
C11_8 H5_8 1_555 1_555
C12_8 N4_8 1_555 1_555
H6_8 C12_8 1_555 1_555
Cu4_3 O3_8 1_555 1_555
C2_8 C3_8 1_555 1_555
O4_8 Cu4_3 1_555 1_555
N8_4 C12_8 1_555 1_555
C8_8 C9_8 1_555 1_555
C9_8 C10_8 1_555 1_555
N7 C5_8 1_555 1_555
C5_8 H2_8 1_555 1_555
H3_8 C6_8 1_555 1_555
N7 C6_8 1_555 1_555
O1_9 C1_9 1_555 1_555
N1_9 N2_9 1_555 1_555
N2_9 C5_9 1_555 1_555
N7_2 C5_9 1_555 1_555
C1_9 O2_9 1_555 1_555
C2_9 C1_9 1_555 1_555
C3_9 N1_9 1_555 1_555
C4_9 C3_9 1_555 1_555
H1_9 C4_9 1_555 1_555
C5_9 H2_9 1_555 1_555
C6_9 N1_9 1_555 1_555
H3_9 C6_9 1_555 1_555
O3_9 C7_9 1_555 1_555
O4_9 C7_9 1_555 1_555
N4_9 N5_9 1_555 1_555
N5_9 C11_9 1_555 1_555
N8_5 C11_9 1_555 1_555
C7_9 C8_9 1_555 1_555
C8_9 C4_9 1_555 1_555
C9_9 N4_9 1_555 1_555
C10_9 C2_9 1_555 1_555
H4_9 C10_9 1_555 1_555
C12_9 N4_9 1_555 1_555
H6_9 C12_9 1_555 1_555
Cu4 O3_9 1_555 1_555
N7_2 C6_9 1_555 1_555
C2_9 C3_9 1_555 1_555
O4_9 Cu4 1_555 1_555
N8_5 C12_9 1_555 1_555
C8_9 C9_9 1_555 1_555
C9_9 C10_9 1_555 1_555
O4_5 Cu3_5 1_555 1_555
O1_5 Cu3_5 1_555 1_555
N3_3 Cu3_5 1_555 1_555
O4_6 Cu3_4 1_555 1_555
O1_6 Cu3_4 1_555 1_555
N3 Cu3_4 1_555 1_555

#END
