
###############################################################################
#
# This file contains modified crystal structure data generated from the
# MOF subset of the Cambridge Structural Database (CSD) v543 
# hosted by the Cambridge Crystallographic Data Centre (CCDC).
#
# This work is licensed under the Creative Commons
# Attribution-NonCommercial-ShareAlike 4.0 International License.
# To view a copy of this license, visit
# http://creativecommons.org/licenses/by-nc-sa/4.0/
# or send a letter to
# Creative Commons, PO Box 1866, Mountain View, CA 94042, USA.
#
# CIF created using the CSD Python API on 29 September 2022
# The structure has been converted into the P1 space group
# The structure has a 3D framework
# The original CSD entry VACFOV is in the hexagonal crystal system
# The original CSD entry VACFOV is in a Sohncke space group
# The framework has been calculated to contain at least 10.0% void space
# The void calculation uses a probe of radius 1.32A, grid spacing 0.4
# H atom positions have been added when not included in the experimental data
#
###############################################################################

data_VACFOV
_chemical_formula_moiety         '(C48 H24 In5 O24)n'
_symmetry_cell_setting           triclinic
_symmetry_space_group_name_H-M   'P 1'
_symmetry_Int_Tables_number      1
_space_group_name_Hall           'P 1'
loop_
_symmetry_equiv_pos_site_id
_symmetry_equiv_pos_as_xyz
1 x,y,z
_cell_length_a                   15.087(4)
_cell_length_b                   15.087(4)
_cell_length_c                   12.032(5)
_cell_angle_alpha                90
_cell_angle_beta                 90
_cell_angle_gamma                120
_cell_volume                     2371.78
loop_
_atom_site_label
_atom_site_type_symbol
_atom_site_fract_x
_atom_site_fract_y
_atom_site_fract_z
In1 In 0.5000 0.0000 0.0000
O1 O 0.4216(7) 0.0668(6) 0.1029(5)
O2 O 0.5865(6) 0.1281(6) 0.1258(6)
C1 C 0.5095(11) 0.1287(8) 0.1517(7)
C2 C 0.5045(9) 0.1937(8) 0.2463(7)
C3 C 0.4138(9) 0.1793(9) 0.2864(9)
C4 C 0.5996(9) 0.2712(8) 0.2909(8)
C5 C 0.4138(9) 0.2345(13) 0.3803(9)
C6 C 0.5045(9) 0.3108(12) 0.4204(7)
C7 C 0.5095(11) 0.3808(14) 0.5150(7)
O3 O 0.4216(7) 0.3548(9) 0.5638(5)
O4 O 0.5865(6) 0.4584(8) 0.5409(6)
C8 C 0.5996(9) 0.3284(12) 0.3758(8)
In2 In 0.5000 0.5000 0.6667
H3 H 0.67158 0.283651 0.2561
H4 H 0.342098 0.216539 0.420593
H7 H 0.67158 0.387929 0.410567
H8 H 0.342098 0.12556 0.246074
In1_2 In 0.5000 1.0000 0.0000
O5 O 0.5784(7) 0.9332(6) 0.1029(5)
O6 O 0.4135(6) 0.8719(6) 0.1258(6)
C9 C 0.4905(11) 0.8713(8) 0.1517(7)
C10 C 0.4955(9) 0.8063(8) 0.2463(7)
C11 C 0.5862(9) 0.8207(9) 0.2864(9)
C12 C 0.4004(9) 0.7288(8) 0.2909(8)
C13 C 0.5862(9) 0.7655(13) 0.3803(9)
C14 C 0.4955(9) 0.6892(12) 0.4204(7)
C15 C 0.4905(11) 0.6192(14) 0.5150(7)
O7 O 0.5784(7) 0.6452(9) 0.5638(5)
O8 O 0.4135(6) 0.5416(8) 0.5409(6)
C16 C 0.4004(9) 0.6716(12) 0.3758(8)
H1 H 0.657902 0.87444 0.246074
H2 H 0.32842 0.612071 0.410567
H5 H 0.32842 0.716349 0.2561
H6 H 0.657902 0.783461 0.420593
O1_2 O 0.6452(9) 0.5784(7) 0.7696(5)
O2_2 O 0.5416(8) 0.4135(6) 0.7925(6)
C1_2 C 0.6192(14) 0.4905(11) 0.8184(7)
C2_2 C 0.6892(12) 0.4955(9) 0.9130(7)
C3_2 C 0.7655(13) 0.5862(9) 0.9531(9)
C4_2 C 0.6716(12) 0.4004(9) 0.9576(8)
O5_2 O 0.3548(9) 0.4216(7) 0.7696(5)
O6_2 O 0.4584(8) 0.5865(6) 0.7925(6)
C9_2 C 0.3808(14) 0.5095(11) 0.8184(7)
C10_2 C 0.3108(12) 0.5045(9) 0.9130(7)
C11_2 C 0.2345(13) 0.4138(9) 0.9531(9)
C12_2 C 0.3284(12) 0.5996(9) 0.9576(8)
H1_2 H 0.216539 0.342098 0.912741
H3_2 H 0.612071 0.32842 0.922767
H5_2 H 0.387929 0.67158 0.922767
H8_2 H 0.783461 0.657902 0.912741
In1_3 In 0.5000 0.0000 1.0000
O10 O 0.6452(9) 0.0668(6) 0.8971(5)
O12 O 0.5416(8) 0.1281(6) 0.8742(6)
In1_4 In 0.5000 1.0000 1.0000
O9 O 0.3548(9) 0.9332(6) 0.8971(5)
O11 O 0.4584(8) 0.8719(6) 0.8742(6)
In1_5 In -0.0000 0.5000 0.3333
O5_3 O 0.0668(6) 0.6452(9) 0.4362(5)
O6_3 O 0.1281(6) 0.5416(8) 0.4591(6)
C9_3 C 0.1287(8) 0.6192(14) 0.4850(7)
C10_3 C 0.1937(8) 0.6892(12) 0.5796(7)
C11_3 C 0.1793(9) 0.7655(13) 0.6197(9)
C12_3 C 0.2712(8) 0.6716(12) 0.6242(8)
C13_2 C 0.2345(13) 0.8207(16) 0.7136(9)
C14_2 C 0.3108(12) 0.8063(15) 0.7537(7)
C15_2 C 0.3808(14) 0.8713(18) 0.8483(7)
C16_2 C 0.3284(12) 0.7288(15) 0.7091(8)
O9_2 O 0.0668(6) 0.4216(11) 0.2304(5)
O11_2 O 0.1281(6) 0.5865(10) 0.2075(6)
H1_3 H 0.12556 0.783461 0.579407
H2_2 H 0.387929 0.716349 0.7439
H5_3 H 0.283651 0.612071 0.589433
H6_2 H 0.216539 0.87444 0.753926
In1_6 In 1.0000 0.5000 0.3333
O1_3 O 0.9332(6) 0.3548(9) 0.4362(5)
O2_3 O 0.8719(6) 0.4584(8) 0.4591(6)
C1_3 C 0.8713(8) 0.3808(14) 0.4850(7)
C2_3 C 0.8063(8) 0.3108(12) 0.5796(7)
C3_3 C 0.8207(9) 0.2345(13) 0.6197(9)
C4_3 C 0.7288(8) 0.3284(12) 0.6242(8)
C5_2 C 0.7655(13) 0.1793(16) 0.7136(9)
C6_2 C 0.6892(12) 0.1937(15) 0.7537(7)
C7_2 C 0.6192(14) 0.1287(18) 0.8483(7)
C8_2 C 0.6716(12) 0.2712(15) 0.7091(8)
O10_2 O 0.9332(6) 0.5784(11) 0.2304(5)
O12_2 O 0.8719(6) 0.4135(10) 0.2075(6)
H3_3 H 0.716349 0.387929 0.589433
H4_2 H 0.783461 0.12556 0.753926
H7_2 H 0.612071 0.283651 0.7439
H8_3 H 0.87444 0.216539 0.579407
C5_3 C 0.8207(16) 0.5862(9) 0.0469(9)
C6_3 C 0.8063(15) 0.4955(9) 0.0870(7)
C7_3 C 0.8713(18) 0.4905(11) 0.1816(7)
C8_3 C 0.7288(15) 0.4004(9) 0.0424(8)
C13_3 C 0.1793(16) 0.4138(9) 0.0469(9)
C14_3 C 0.1937(15) 0.5045(9) 0.0870(7)
C15_3 C 0.1287(18) 0.5095(11) 0.1816(7)
C16_3 C 0.2712(15) 0.5996(9) 0.0424(8)
H2_3 H 0.283651 0.67158 0.0772334
H4_3 H 0.87444 0.657902 0.0872593
H6_3 H 0.12556 0.342098 0.0872593
H7_3 H 0.716349 0.32842 0.0772334
loop_
_geom_bond_atom_site_label_1
_geom_bond_atom_site_label_2
_geom_bond_site_symmetry_1
_geom_bond_site_symmetry_2
In1 O1 1_555 1_555
O1 C1 1_555 1_555
O2 In1 1_555 1_555
C1 O2 1_555 1_555
C2 C1 1_555 1_555
C3 C2 1_555 1_555
C4 C2 1_555 1_555
C5 C3 1_555 1_555
C6 C5 1_555 1_555
C7 C6 1_555 1_555
O3 C7 1_555 1_555
O4 C7 1_555 1_555
C8 C4 1_555 1_555
In2 O3 1_555 1_555
C6 C8 1_555 1_555
O4 In2 1_555 1_555
C4 H3 1_555 1_555
C5 H4 1_555 1_555
C8 H7 1_555 1_555
C3 H8 1_555 1_555
O5 In1_2 1_555 1_555
O6 In1_2 1_555 1_555
C9 O5 1_555 1_555
C10 C9 1_555 1_555
C11 C10 1_555 1_555
C12 C10 1_555 1_555
C13 C11 1_555 1_555
C14 C13 1_555 1_555
C15 C14 1_555 1_555
O7 C15 1_555 1_555
O8 C15 1_555 1_555
C16 C12 1_555 1_555
In2 O7 1_555 1_555
O6 C9 1_555 1_555
C14 C16 1_555 1_555
O8 In2 1_555 1_555
C11 H1 1_555 1_555
C16 H2 1_555 1_555
C12 H5 1_555 1_555
C13 H6 1_555 1_555
In2 O1_2 1_555 1_555
O1_2 C1_2 1_555 1_555
O2_2 In2 1_555 1_555
C1_2 O2_2 1_555 1_555
C2_2 C1_2 1_555 1_555
C3_2 C2_2 1_555 1_555
C4_2 C2_2 1_555 1_555
O5_2 In2 1_555 1_555
O6_2 In2 1_555 1_555
C9_2 O5_2 1_555 1_555
C10_2 C9_2 1_555 1_555
C11_2 C10_2 1_555 1_555
C12_2 C10_2 1_555 1_555
O6_2 C9_2 1_555 1_555
C11_2 H1_2 1_555 1_555
C4_2 H3_2 1_555 1_555
C12_2 H5_2 1_555 1_555
C3_2 H8_2 1_555 1_555
O10 In1_3 1_555 1_555
O12 In1_3 1_555 1_555
O9 In1_4 1_555 1_555
O11 In1_4 1_555 1_555
O5_3 In1_5 1_555 1_555
O6_3 In1_5 1_555 1_555
C9_3 O5_3 1_555 1_555
C10_3 C9_3 1_555 1_555
C11_3 C10_3 1_555 1_555
C12_3 C10_3 1_555 1_555
C13_2 C11_3 1_555 1_555
C14_2 C13_2 1_555 1_555
C15_2 C14_2 1_555 1_555
O9 C15_2 1_555 1_555
O11 C15_2 1_555 1_555
C16_2 C12_3 1_555 1_555
O9_2 In1_5 1_555 1_555
O11_2 In1_5 1_555 1_555
O6_3 C9_3 1_555 1_555
C14_2 C16_2 1_555 1_555
C11_3 H1_3 1_555 1_555
C16_2 H2_2 1_555 1_555
C12_3 H5_3 1_555 1_555
C13_2 H6_2 1_555 1_555
In1_6 O1_3 1_555 1_555
O1_3 C1_3 1_555 1_555
O2_3 In1_6 1_555 1_555
C1_3 O2_3 1_555 1_555
C2_3 C1_3 1_555 1_555
C3_3 C2_3 1_555 1_555
C4_3 C2_3 1_555 1_555
C5_2 C3_3 1_555 1_555
C6_2 C5_2 1_555 1_555
C7_2 C6_2 1_555 1_555
O10 C7_2 1_555 1_555
O12 C7_2 1_555 1_555
C8_2 C4_3 1_555 1_555
O10_2 In1_6 1_555 1_555
O12_2 In1_6 1_555 1_555
C6_2 C8_2 1_555 1_555
C4_3 H3_3 1_555 1_555
C5_2 H4_2 1_555 1_555
C8_2 H7_2 1_555 1_555
C3_3 H8_3 1_555 1_555
C6_3 C5_3 1_555 1_555
C7_3 C6_3 1_555 1_555
O10_2 C7_3 1_555 1_555
O12_2 C7_3 1_555 1_555
C14_3 C13_3 1_555 1_555
C15_3 C14_3 1_555 1_555
O9_2 C15_3 1_555 1_555
O11_2 C15_3 1_555 1_555
C6_3 C8_3 1_555 1_555
C14_3 C16_3 1_555 1_555
C16_3 H2_3 1_555 1_555
C5_3 H4_3 1_555 1_555
C13_3 H6_3 1_555 1_555
C8_3 H7_3 1_555 1_555

#END
