
###############################################################################
#
# This file contains modified crystal structure data generated from the
# MOF subset of the Cambridge Structural Database (CSD) v543 
# hosted by the Cambridge Crystallographic Data Centre (CCDC).
#
# This work is licensed under the Creative Commons
# Attribution-NonCommercial-ShareAlike 4.0 International License.
# To view a copy of this license, visit
# http://creativecommons.org/licenses/by-nc-sa/4.0/
# or send a letter to
# Creative Commons, PO Box 1866, Mountain View, CA 94042, USA.
#
# CIF created using the CSD Python API on 29 September 2022
# The structure has been converted into the P1 space group
# The structure has a 3D framework
# The original CSD entry VADDUD is in the monoclinic crystal system
# The framework has been calculated to contain at least 10.0% void space
# The void calculation uses a probe of radius 1.32A, grid spacing 0.4
# H atom positions have been added when not included in the experimental data
#
###############################################################################

data_VADDUD
_chemical_formula_moiety         '(C104 H88 Ga6 O46 P16)n'
_symmetry_cell_setting           triclinic
_symmetry_space_group_name_H-M   'P 1'
_symmetry_Int_Tables_number      1
_space_group_name_Hall           'P 1'
loop_
_symmetry_equiv_pos_site_id
_symmetry_equiv_pos_as_xyz
1 x,y,z
_cell_length_a                   23.8290(18)
_cell_length_b                   5.1010(3)
_cell_length_c                   27.997(2)
_cell_angle_alpha                90
_cell_angle_beta                 77.264(6)
_cell_angle_gamma                90
_cell_volume                     3319.36
loop_
_atom_site_label
_atom_site_type_symbol
_atom_site_fract_x
_atom_site_fract_y
_atom_site_fract_z
_atom_site_U_iso_or_equiv
_atom_site_thermal_displace_type
Ga6 Ga 0.3293(4) 0.028(2) 0.5189(3) 0.0025 Uiso
Ga8 Ga 0.6707(4) 0.028(2) 0.9811(3) 0.0025 Uiso
P1 P 0.3742(8) 0.467(6) 0.0765(7) 0.0823 Uiso
O2 O 0.3299(18) 0.256(8) 0.0690(16) 0.0823 Uiso
O3 O 0.354(2) 0.760(9) 0.0725(16) 0.0823 Uiso
O4 O 0.4321(12) 0.451(10) 0.0373(12) 0.0823 Uiso
O5 O 0.3016(17) 0.824(9) 0.4702(18) 0.0823 Uiso
O6 O 0.2482(17) 0.463(12) 0.4431(13) 0.0823 Uiso
O7 O 0.3377(16) 0.347(10) 0.4728(15) 0.0823 Uiso
P2 P 0.3069(10) 0.551(7) 0.4476(7) 0.0823 Uiso
C1 C 0.47033(14) 0.421(6) 0.25486(10) 0.0823 Uiso
C2 C 0.3978(8) 0.416(10) 0.1307(7) 0.0823 Uiso
C3 C 0.3728(9) 0.564(11) 0.1712(6) 0.0823 Uiso
C4 C 0.3966(7) 0.566(10) 0.2121(5) 0.0823 Uiso
C5 C 0.4455(3) 0.419(7) 0.2124(4) 0.0823 Uiso
C6 C 0.4705(6) 0.271(7) 0.1718(4) 0.0823 Uiso
C7 C 0.4466(8) 0.270(8) 0.1309(6) 0.0823 Uiso
C8 C 0.4331(4) 0.446(8) 0.3027(4) 0.0823 Uiso
C9 C 0.4502(8) 0.596(7) 0.3383(5) 0.0823 Uiso
C10 C 0.4145(10) 0.620(9) 0.3844(6) 0.0823 Uiso
C11 C 0.3616(8) 0.495(12) 0.3948(7) 0.0823 Uiso
C12 C 0.3444(8) 0.346(13) 0.3592(6) 0.0823 Uiso
C13 C 0.3802(6) 0.322(11) 0.3132(5) 0.0823 Uiso
P3 P 0.6258(8) 0.467(6) 0.4235(7) 0.0823 Uiso
O8 O 0.6701(18) 0.256(8) 0.4310(16) 0.0823 Uiso
O9 O 0.646(2) 0.760(9) 0.4275(16) 0.0823 Uiso
O10 O 0.5679(12) 0.451(10) 0.4627(12) 0.0823 Uiso
O11 O 0.6984(17) 0.824(9) 0.0298(18) 0.0823 Uiso
O12 O 0.7518(17) 0.463(12) 0.0569(13) 0.0823 Uiso
O13 O 0.6623(16) 0.347(10) 0.0272(15) 0.0823 Uiso
P4 P 0.6931(10) 0.551(7) 0.0524(7) 0.0823 Uiso
C14 C 0.52967(14) 0.421(6) 0.24514(10) 0.0823 Uiso
C15 C 0.6022(8) 0.416(10) 0.3693(7) 0.0823 Uiso
C16 C 0.6272(9) 0.564(11) 0.3288(6) 0.0823 Uiso
C17 C 0.6034(7) 0.566(10) 0.2879(5) 0.0823 Uiso
C18 C 0.5545(3) 0.419(7) 0.2876(4) 0.0823 Uiso
C19 C 0.5295(6) 0.271(7) 0.3282(4) 0.0823 Uiso
C20 C 0.5534(8) 0.270(8) 0.3691(6) 0.0823 Uiso
C21 C 0.5669(4) 0.446(8) 0.1973(4) 0.0823 Uiso
C22 C 0.5498(8) 0.596(7) 0.1617(5) 0.0823 Uiso
C23 C 0.5855(10) 0.620(9) 0.1156(6) 0.0823 Uiso
C24 C 0.6384(8) 0.495(12) 0.1052(7) 0.0823 Uiso
C25 C 0.6556(8) 0.346(13) 0.1408(6) 0.0823 Uiso
C26 C 0.6198(6) 0.322(11) 0.1868(5) 0.0823 Uiso
Ga3 Ga 0.3293(4) 0.972(2) 0.0189(3) 0.0025 Uiso
Ga4 Ga 0.6707(4) 0.972(2) 0.4811(3) 0.0025 Uiso
Ga9 Ga 0.8293(4) 0.472(2) 0.0189(3) 0.0025 Uiso
Ga10 Ga 0.1707(4) 0.472(2) 0.4811(3) 0.0025 Uiso
O18 O 0.6984(17) 0.176(9) 0.5298(18) 0.0823 Uiso
H3 H 0.376951 0.682792 0.243966 . .
H4 H 0.466296 0.154109 0.0989243 . .
H5 H 0.366655 0.205097 0.285199 . .
H6 H 0.334374 0.679063 0.17094 . .
H7 H 0.428016 0.736961 0.412408 . .
H8 H 0.424447 0.476865 0.00416115 . .
H9 H 0.508888 0.15553 0.171995 . .
H10 H 0.665626 0.679063 0.32906 . .
H11 H 0.302788 0.247908 0.367384 . .
H12 H 0.575553 0.476865 0.495839 . .
H13 H 0.491709 0.694977 0.330017 . .
H14 H 0.571984 0.736961 0.0875919 . .
H15 H 0.508291 0.694977 0.169983 . .
H18 H 0.491112 0.15553 0.328005 . .
H19 H 0.697212 0.247908 0.132616 . .
H20 H 0.633345 0.205097 0.214801 . .
H21 H 0.623049 0.682792 0.256034 . .
H22 H 0.533704 0.154109 0.401076 . .
O17 O 0.3016(17) 0.176(9) 0.9702(18) 0.0823 Uiso
O14 O 0.5818(11) 0.969(9) 0.5097(11) 0.0025 Uiso
O19 O 0.7482(17) 0.963(12) 0.4431(13) 0.0823 Uiso
O20 O 0.2518(17) 0.963(12) 0.0569(13) 0.0823 Uiso
O22 O 0.6623(16) 0.653(10) 0.5272(15) 0.0823 Uiso
H1 H 0.438424 0.924599 0.0166821 . .
H16 H 0.561576 0.924599 0.483318 . .
H17 H 0.5724 0.836167 0.536189 . .
O1 O 0.4182(11) 0.969(9) 0.9903(11) 0.0025 Uiso
O21 O 0.3377(16) 0.653(10) 0.9728(15) 0.0823 Uiso
H2 H 0.4276 0.836167 0.963811 . .
O9_2 O 0.146(2) 0.260(9) 0.4275(16) 0.0823 Uiso
O11_2 O 0.1984(17) 0.324(9) 0.0298(18) 0.0823 Uiso
P4_2 P 0.1931(10) 0.051(7) 0.0524(7) 0.0823 Uiso
C16_2 C 0.1272(9) 0.064(11) 0.3288(6) 0.0823 Uiso
C17_2 C 0.1034(7) 0.066(10) 0.2879(5) 0.0823 Uiso
C22_2 C 0.0498(8) 0.096(7) 0.1617(5) 0.0823 Uiso
C23_2 C 0.0855(10) 0.120(9) 0.1156(6) 0.0823 Uiso
H10_2 H 0.165626 0.179063 0.32906 . .
H14_2 H 0.0719839 0.236961 0.0875919 . .
H15_2 H 0.00829051 0.194977 0.169983 . .
H21_2 H 0.123049 0.182792 0.256034 . .
Ga8_2 Ga 0.1707(4) 0.528(2) 0.9811(3) 0.0025 Uiso
P3_2 P 0.1258(8) 0.967(6) 0.4235(7) 0.0823 Uiso
O8_2 O 0.1701(18) 0.756(8) 0.4310(16) 0.0823 Uiso
O10_2 O 0.0679(12) 0.951(10) 0.4627(12) 0.0823 Uiso
O13_2 O 0.1623(16) 0.847(10) 0.0272(15) 0.0823 Uiso
C14_2 C 0.02967(14) 0.921(6) 0.24514(10) 0.0823 Uiso
C15_2 C 0.1022(8) 0.916(10) 0.3693(7) 0.0823 Uiso
C18_2 C 0.0545(3) 0.919(7) 0.2876(4) 0.0823 Uiso
C19_2 C 0.0295(6) 0.771(7) 0.3282(4) 0.0823 Uiso
C20_2 C 0.0534(8) 0.770(8) 0.3691(6) 0.0823 Uiso
C21_2 C 0.0669(4) 0.946(8) 0.1973(4) 0.0823 Uiso
C24_2 C 0.1384(8) 0.995(12) 0.1052(7) 0.0823 Uiso
C25_2 C 0.1556(8) 0.846(13) 0.1408(6) 0.0823 Uiso
C26_2 C 0.1198(6) 0.822(11) 0.1868(5) 0.0823 Uiso
O14_2 O 0.0818(11) 0.469(9) 0.5097(11) 0.0025 Uiso
O18_2 O 0.1984(17) 0.676(9) 0.5298(18) 0.0823 Uiso
O22_2 O 0.1623(16) 0.153(10) 0.5272(15) 0.0823 Uiso
H9_2 H 0.00888765 0.65553 0.171995 . .
H12_2 H 0.0755527 0.976865 0.495839 . .
H16_2 H 0.061576 0.424599 0.483318 . .
H17_2 H 0.0723998 0.336167 0.536189 . .
H19_2 H 0.197212 0.747908 0.132616 . .
H20_2 H 0.133345 0.705097 0.214801 . .
H22_2 H 0.0337036 0.654109 0.401076 . .
O3_2 O 0.854(2) 0.260(9) 0.0725(16) 0.0823 Uiso
O5_2 O 0.8016(17) 0.324(9) 0.4702(18) 0.0823 Uiso
P2_2 P 0.8069(10) 0.051(7) 0.4476(7) 0.0823 Uiso
C3_2 C 0.8728(9) 0.064(11) 0.1712(6) 0.0823 Uiso
C4_2 C 0.8966(7) 0.066(10) 0.2121(5) 0.0823 Uiso
C9_2 C 0.9502(8) 0.096(7) 0.3383(5) 0.0823 Uiso
C10_2 C 0.9145(10) 0.120(9) 0.3844(6) 0.0823 Uiso
Ga6_2 Ga 0.8293(4) 0.528(2) 0.5189(3) 0.0025 Uiso
H3_2 H 0.876951 0.182792 0.243966 . .
H6_2 H 0.834374 0.179063 0.17094 . .
H7_2 H 0.928016 0.236961 0.412408 . .
H13_2 H 0.991709 0.194977 0.330017 . .
P1_2 P 0.8742(8) 0.967(6) 0.0765(7) 0.0823 Uiso
O2_2 O 0.8299(18) 0.756(8) 0.0690(16) 0.0823 Uiso
O4_2 O 0.9321(12) 0.951(10) 0.0373(12) 0.0823 Uiso
O7_2 O 0.8377(16) 0.847(10) 0.4728(15) 0.0823 Uiso
C1_2 C 0.97033(14) 0.921(6) 0.25486(10) 0.0823 Uiso
C2_2 C 0.8978(8) 0.916(10) 0.1307(7) 0.0823 Uiso
C5_2 C 0.9455(3) 0.919(7) 0.2124(4) 0.0823 Uiso
C6_2 C 0.9705(6) 0.771(7) 0.1718(4) 0.0823 Uiso
C7_2 C 0.9466(8) 0.770(8) 0.1309(6) 0.0823 Uiso
C8_2 C 0.9331(4) 0.946(8) 0.3027(4) 0.0823 Uiso
C11_2 C 0.8616(8) 0.995(12) 0.3948(7) 0.0823 Uiso
C12_2 C 0.8444(8) 0.846(13) 0.3592(6) 0.0823 Uiso
C13_2 C 0.8802(6) 0.822(11) 0.3132(5) 0.0823 Uiso
H1_2 H 0.938424 0.424599 0.0166821 . .
H4_2 H 0.966296 0.654109 0.0989243 . .
H5_2 H 0.866655 0.705097 0.285199 . .
H8_2 H 0.924447 0.976865 0.00416115 . .
H11_2 H 0.802788 0.747908 0.367384 . .
H18_2 H 0.991112 0.65553 0.328005 . .
O1_2 O 0.9182(11) 0.469(9) 0.9903(11) 0.0025 Uiso
O17_2 O 0.8016(17) 0.676(9) 0.9702(18) 0.0823 Uiso
O21_2 O 0.8377(16) 0.153(10) 0.9728(15) 0.0823 Uiso
H2_2 H 0.9276 0.336167 0.963811 . .
O1_3 O 0.5818(11) 0.031(9) 0.0097(11) 0.0025 Uiso
H2_3 H 0.5724 0.163833 0.0361894 . .
O14_3 O 0.4182(11) 0.031(9) 0.4903(11) 0.0025 Uiso
O15 O 0.646(2) 0.240(9) 0.9275(16) 0.0823 Uiso
O16 O 0.354(2) 0.240(9) 0.5725(16) 0.0823 Uiso
O19_2 O 0.2518(17) 0.037(12) 0.5569(13) 0.0823 Uiso
O20_2 O 0.7482(17) 0.037(12) 0.9431(13) 0.0823 Uiso
H1_3 H 0.561576 0.0754009 0.983318 . .
H16_3 H 0.438424 0.0754009 0.516682 . .
H17_3 H 0.4276 0.163833 0.463811 . .
P1_3 P 0.6258(8) 0.533(6) 0.9235(7) 0.0823 Uiso
O2_3 O 0.6701(18) 0.744(8) 0.9310(16) 0.0823 Uiso
O4_3 O 0.5679(12) 0.549(10) 0.9627(12) 0.0823 Uiso
O6_2 O 0.7518(17) 0.537(12) 0.5569(13) 0.0823 Uiso
P2_3 P 0.6931(10) 0.449(7) 0.5524(7) 0.0823 Uiso
C1_3 C 0.52967(14) 0.579(6) 0.74514(10) 0.0823 Uiso
C2_3 C 0.6022(8) 0.584(10) 0.8693(7) 0.0823 Uiso
C3_3 C 0.6272(9) 0.436(11) 0.8288(6) 0.0823 Uiso
C4_3 C 0.6034(7) 0.434(10) 0.7879(5) 0.0823 Uiso
C5_3 C 0.5545(3) 0.581(7) 0.7876(4) 0.0823 Uiso
C6_3 C 0.5295(6) 0.729(7) 0.8282(4) 0.0823 Uiso
C7_3 C 0.5534(8) 0.730(8) 0.8691(6) 0.0823 Uiso
C8_3 C 0.5669(4) 0.554(8) 0.6973(4) 0.0823 Uiso
C9_3 C 0.5498(8) 0.404(7) 0.6617(5) 0.0823 Uiso
C10_3 C 0.5855(10) 0.380(9) 0.6156(6) 0.0823 Uiso
C11_3 C 0.6384(8) 0.505(12) 0.6052(7) 0.0823 Uiso
C12_3 C 0.6556(8) 0.654(13) 0.6408(6) 0.0823 Uiso
C13_3 C 0.6198(6) 0.678(11) 0.6868(5) 0.0823 Uiso
P3_3 P 0.3742(8) 0.533(6) 0.5765(7) 0.0823 Uiso
O8_3 O 0.3299(18) 0.744(8) 0.5690(16) 0.0823 Uiso
O10_3 O 0.4321(12) 0.549(10) 0.5373(12) 0.0823 Uiso
O12_2 O 0.2482(17) 0.537(12) 0.9431(13) 0.0823 Uiso
P4_3 P 0.3069(10) 0.449(7) 0.9476(7) 0.0823 Uiso
C14_3 C 0.47033(14) 0.579(6) 0.75486(10) 0.0823 Uiso
C15_3 C 0.3978(8) 0.584(10) 0.6307(7) 0.0823 Uiso
C16_3 C 0.3728(9) 0.436(11) 0.6712(6) 0.0823 Uiso
C17_3 C 0.3966(7) 0.434(10) 0.7121(5) 0.0823 Uiso
C18_3 C 0.4455(3) 0.581(7) 0.7124(4) 0.0823 Uiso
C19_3 C 0.4705(6) 0.729(7) 0.6718(4) 0.0823 Uiso
C20_3 C 0.4466(8) 0.730(8) 0.6309(6) 0.0823 Uiso
C21_3 C 0.4331(4) 0.554(8) 0.8027(4) 0.0823 Uiso
C22_3 C 0.4502(8) 0.404(7) 0.8383(5) 0.0823 Uiso
C23_3 C 0.4145(10) 0.380(9) 0.8844(6) 0.0823 Uiso
C24_3 C 0.3616(8) 0.505(12) 0.8948(7) 0.0823 Uiso
C25_3 C 0.3444(8) 0.654(13) 0.8592(6) 0.0823 Uiso
C26_3 C 0.3802(6) 0.678(11) 0.8132(5) 0.0823 Uiso
H3_3 H 0.623049 0.317208 0.756034 . .
H4_3 H 0.533704 0.845891 0.901076 . .
H5_3 H 0.633345 0.794903 0.714801 . .
H6_3 H 0.665626 0.320937 0.82906 . .
H7_3 H 0.571984 0.263039 0.587592 . .
H8_3 H 0.575553 0.523135 0.995839 . .
H9_3 H 0.491112 0.84447 0.828005 . .
H10_3 H 0.334374 0.320937 0.67094 . .
H11_3 H 0.697212 0.752092 0.632616 . .
H12_3 H 0.424447 0.523135 0.504161 . .
H13_3 H 0.508291 0.305023 0.669983 . .
H14_3 H 0.428016 0.263039 0.912408 . .
H15_3 H 0.491709 0.305023 0.830017 . .
H18_3 H 0.508888 0.84447 0.671995 . .
H19_3 H 0.302788 0.752092 0.867384 . .
H20_3 H 0.366655 0.794903 0.785199 . .
H21_3 H 0.376951 0.317208 0.743966 . .
H22_3 H 0.466296 0.845891 0.598924 . .
O1_4 O 0.0818(11) 0.531(9) 0.0097(11) 0.0025 Uiso
H2_4 H 0.0723998 0.663833 0.0361894 . .
P1_4 P 0.1258(8) 0.033(6) 0.9235(7) 0.0823 Uiso
O2_4 O 0.1701(18) 0.244(8) 0.9310(16) 0.0823 Uiso
O4_4 O 0.0679(12) 0.049(10) 0.9627(12) 0.0823 Uiso
C1_4 C 0.02967(14) 0.079(6) 0.74514(10) 0.0823 Uiso
C2_4 C 0.1022(8) 0.084(10) 0.8693(7) 0.0823 Uiso
C5_4 C 0.0545(3) 0.081(7) 0.7876(4) 0.0823 Uiso
C6_4 C 0.0295(6) 0.229(7) 0.8282(4) 0.0823 Uiso
C7_4 C 0.0534(8) 0.230(8) 0.8691(6) 0.0823 Uiso
C8_4 C 0.0669(4) 0.054(8) 0.6973(4) 0.0823 Uiso
C11_4 C 0.1384(8) 0.005(12) 0.6052(7) 0.0823 Uiso
C12_4 C 0.1556(8) 0.154(13) 0.6408(6) 0.0823 Uiso
C13_4 C 0.1198(6) 0.178(11) 0.6868(5) 0.0823 Uiso
O15_2 O 0.146(2) 0.740(9) 0.9275(16) 0.0823 Uiso
H1_4 H 0.061576 0.575401 0.983318 . .
H4_4 H 0.0337036 0.345891 0.901076 . .
H5_4 H 0.133345 0.294903 0.714801 . .
H8_4 H 0.0755527 0.0231354 0.995839 . .
H11_4 H 0.197212 0.252092 0.632616 . .
H18_4 H 0.00888765 0.34447 0.671995 . .
P2_4 P 0.1931(10) 0.949(7) 0.5524(7) 0.0823 Uiso
C3_4 C 0.1272(9) 0.936(11) 0.8288(6) 0.0823 Uiso
C4_4 C 0.1034(7) 0.934(10) 0.7879(5) 0.0823 Uiso
C9_4 C 0.0498(8) 0.904(7) 0.6617(5) 0.0823 Uiso
C10_4 C 0.0855(10) 0.880(9) 0.6156(6) 0.0823 Uiso
H3_4 H 0.123049 0.817208 0.756034 . .
H6_4 H 0.165626 0.820937 0.82906 . .
H7_4 H 0.0719839 0.763039 0.587592 . .
H13_4 H 0.00829051 0.805023 0.669983 . .
P3_4 P 0.8742(8) 0.033(6) 0.5765(7) 0.0823 Uiso
O8_4 O 0.8299(18) 0.244(8) 0.5690(16) 0.0823 Uiso
O10_4 O 0.9321(12) 0.049(10) 0.5373(12) 0.0823 Uiso
C14_4 C 0.97033(14) 0.079(6) 0.75486(10) 0.0823 Uiso
C15_4 C 0.8978(8) 0.084(10) 0.6307(7) 0.0823 Uiso
C18_4 C 0.9455(3) 0.081(7) 0.7124(4) 0.0823 Uiso
C19_4 C 0.9705(6) 0.229(7) 0.6718(4) 0.0823 Uiso
C20_4 C 0.9466(8) 0.230(8) 0.6309(6) 0.0823 Uiso
C21_4 C 0.9331(4) 0.054(8) 0.8027(4) 0.0823 Uiso
C24_4 C 0.8616(8) 0.005(12) 0.8948(7) 0.0823 Uiso
C25_4 C 0.8444(8) 0.154(13) 0.8592(6) 0.0823 Uiso
C26_4 C 0.8802(6) 0.178(11) 0.8132(5) 0.0823 Uiso
O14_4 O 0.9182(11) 0.531(9) 0.4903(11) 0.0025 Uiso
O16_2 O 0.854(2) 0.740(9) 0.5725(16) 0.0823 Uiso
H9_4 H 0.991112 0.34447 0.828005 . .
H12_4 H 0.924447 0.0231354 0.504161 . .
H16_4 H 0.938424 0.575401 0.516682 . .
H17_4 H 0.9276 0.663833 0.463811 . .
H19_4 H 0.802788 0.252092 0.867384 . .
H20_4 H 0.866655 0.294903 0.785199 . .
H22_4 H 0.966296 0.345891 0.598924 . .
P4_4 P 0.8069(10) 0.949(7) 0.9476(7) 0.0823 Uiso
C16_4 C 0.8728(9) 0.936(11) 0.6712(6) 0.0823 Uiso
C17_4 C 0.8966(7) 0.934(10) 0.7121(5) 0.0823 Uiso
C22_4 C 0.9502(8) 0.904(7) 0.8383(5) 0.0823 Uiso
C23_4 C 0.9145(10) 0.880(9) 0.8844(6) 0.0823 Uiso
H10_4 H 0.834374 0.820937 0.67094 . .
H14_4 H 0.928016 0.763039 0.912408 . .
H15_4 H 0.991709 0.805023 0.830017 . .
H21_4 H 0.876951 0.817208 0.743966 . .
loop_
_geom_bond_atom_site_label_1
_geom_bond_atom_site_label_2
_geom_bond_site_symmetry_1
_geom_bond_site_symmetry_2
P1 O2 1_555 1_555
O3 P1 1_555 1_555
O4 P1 1_555 1_555
O5 P2 1_555 1_555
O6 P2 1_555 1_555
O7 P2 1_555 1_555
P2 C11 1_555 1_555
C1 C5 1_555 1_555
C2 P1 1_555 1_555
C3 C2 1_555 1_555
C4 C3 1_555 1_555
C5 C4 1_555 1_555
C6 C5 1_555 1_555
C7 C2 1_555 1_555
C8 C1 1_555 1_555
C9 C8 1_555 1_555
C10 C9 1_555 1_555
C11 C10 1_555 1_555
C12 C11 1_555 1_555
C13 C8 1_555 1_555
P3 O8 1_555 1_555
O9 P3 1_555 1_555
O10 P3 1_555 1_555
O11 P4 1_555 1_555
O12 P4 1_555 1_555
O13 P4 1_555 1_555
P4 C24 1_555 1_555
C14 C1 1_555 1_555
C15 P3 1_555 1_555
C16 C15 1_555 1_555
C17 C16 1_555 1_555
C18 C14 1_555 1_555
C19 C18 1_555 1_555
C20 C15 1_555 1_555
C21 C14 1_555 1_555
C22 C21 1_555 1_555
C23 C22 1_555 1_555
C24 C23 1_555 1_555
C25 C24 1_555 1_555
C26 C21 1_555 1_555
Ga3 O3 1_555 1_555
Ga4 O9 1_555 1_555
Ga6 O7 1_555 1_555
Ga9 O12 1_555 1_555
Ga10 O6 1_555 1_555
C6 C7 1_555 1_555
C12 C13 1_555 1_555
C17 C18 1_555 1_555
C19 C20 1_555 1_555
C25 C26 1_555 1_555
C4 H3 1_555 1_555
C7 H4 1_555 1_555
C13 H5 1_555 1_555
C3 H6 1_555 1_555
C10 H7 1_555 1_555
O4 H8 1_555 1_555
C6 H9 1_555 1_555
C16 H10 1_555 1_555
C12 H11 1_555 1_555
O10 H12 1_555 1_555
C9 H13 1_555 1_555
C23 H14 1_555 1_555
C22 H15 1_555 1_555
C19 H18 1_555 1_555
C25 H19 1_555 1_555
C26 H20 1_555 1_555
C17 H21 1_555 1_555
C20 H22 1_555 1_555
Ga4 O14 1_555 1_555
O19 Ga4 1_555 1_555
O20 Ga3 1_555 1_555
O22 Ga4 1_555 1_555
O14 H16 1_555 1_555
O14 H17 1_555 1_555
O1 H2 1_555 1_555
O11_2 P4_2 1_555 1_555
C17_2 C16_2 1_555 1_555
C23_2 C22_2 1_555 1_555
Ga10 O9_2 1_555 1_555
C16_2 H10_2 1_555 1_555
C23_2 H14_2 1_555 1_555
C22_2 H15_2 1_555 1_555
C17_2 H21_2 1_555 1_555
P3_2 O8_2 1_555 1_555
O8_2 Ga10 1_555 1_555
O10_2 P3_2 1_555 1_555
C15_2 P3_2 1_555 1_555
C18_2 C14_2 1_555 1_555
C19_2 C18_2 1_555 1_555
C20_2 C15_2 1_555 1_555
C21_2 C14_2 1_555 1_555
C25_2 C24_2 1_555 1_555
C26_2 C21_2 1_555 1_555
Ga10 O14_2 1_555 1_555
O18_2 Ga10 1_555 1_555
O22_2 Ga10 1_555 1_555
C19_2 C20_2 1_555 1_555
C25_2 C26_2 1_555 1_555
O10_2 H12_2 1_555 1_555
O14_2 H16_2 1_555 1_555
O14_2 H17_2 1_555 1_555
C25_2 H19_2 1_555 1_555
C26_2 H20_2 1_555 1_555
C20_2 H22_2 1_555 1_555
O5_2 P2_2 1_555 1_555
C4_2 C3_2 1_555 1_555
C10_2 C9_2 1_555 1_555
Ga9 O3_2 1_555 1_555
Ga6_2 O5_2 1_555 1_555
C4_2 H3_2 1_555 1_555
C3_2 H6_2 1_555 1_555
C10_2 H7_2 1_555 1_555
C9_2 H13_2 1_555 1_555
P1_2 O2_2 1_555 1_555
O2_2 Ga9 1_555 1_555
O4_2 P1_2 1_555 1_555
C1_2 C5_2 1_555 1_555
C2_2 P1_2 1_555 1_555
C6_2 C5_2 1_555 1_555
C7_2 C2_2 1_555 1_555
C8_2 C1_2 1_555 1_555
C12_2 C11_2 1_555 1_555
C13_2 C8_2 1_555 1_555
Ga6_2 O7_2 1_555 1_555
C6_2 C7_2 1_555 1_555
C12_2 C13_2 1_555 1_555
C7_2 H4_2 1_555 1_555
C13_2 H5_2 1_555 1_555
O4_2 H8_2 1_555 1_555
C12_2 H11_2 1_555 1_555
O1_2 H2_2 1_555 1_555
O1_3 H2_3 1_555 1_555
Ga6 O14_3 1_555 1_555
O15 Ga8 1_555 1_555
O16 Ga6 1_555 1_555
O19_2 Ga6 1_555 1_555
O20_2 Ga8 1_555 1_555
O14_3 H16_3 1_555 1_555
O14_3 H17_3 1_555 1_555
P1_3 O2_3 1_555 1_555
O15 P1_3 1_555 1_555
O4_3 P1_3 1_555 1_555
O18 P2_3 1_555 1_555
O6_2 P2_3 1_555 1_555
O22 P2_3 1_555 1_555
P2_3 C11_3 1_555 1_555
C1_3 C5_3 1_555 1_555
C2_3 P1_3 1_555 1_555
C3_3 C2_3 1_555 1_555
C4_3 C3_3 1_555 1_555
C5_3 C4_3 1_555 1_555
C6_3 C5_3 1_555 1_555
C7_3 C2_3 1_555 1_555
C8_3 C1_3 1_555 1_555
C9_3 C8_3 1_555 1_555
C10_3 C9_3 1_555 1_555
C11_3 C10_3 1_555 1_555
C12_3 C11_3 1_555 1_555
C13_3 C8_3 1_555 1_555
P3_3 O8_3 1_555 1_555
O16 P3_3 1_555 1_555
O10_3 P3_3 1_555 1_555
O17 P4_3 1_555 1_555
O12_2 P4_3 1_555 1_555
O21 P4_3 1_555 1_555
P4_3 C24_3 1_555 1_555
C14_3 C1_3 1_555 1_555
C15_3 P3_3 1_555 1_555
C16_3 C15_3 1_555 1_555
C17_3 C16_3 1_555 1_555
C18_3 C14_3 1_555 1_555
C19_3 C18_3 1_555 1_555
C20_3 C15_3 1_555 1_555
C21_3 C14_3 1_555 1_555
C22_3 C21_3 1_555 1_555
C23_3 C22_3 1_555 1_555
C24_3 C23_3 1_555 1_555
C25_3 C24_3 1_555 1_555
C26_3 C21_3 1_555 1_555
Ga8_2 O12_2 1_555 1_555
Ga6_2 O6_2 1_555 1_555
C6_3 C7_3 1_555 1_555
C12_3 C13_3 1_555 1_555
C17_3 C18_3 1_555 1_555
C19_3 C20_3 1_555 1_555
C25_3 C26_3 1_555 1_555
C4_3 H3_3 1_555 1_555
C7_3 H4_3 1_555 1_555
C13_3 H5_3 1_555 1_555
C3_3 H6_3 1_555 1_555
C10_3 H7_3 1_555 1_555
O4_3 H8_3 1_555 1_555
C6_3 H9_3 1_555 1_555
C16_3 H10_3 1_555 1_555
C12_3 H11_3 1_555 1_555
O10_3 H12_3 1_555 1_555
C9_3 H13_3 1_555 1_555
C23_3 H14_3 1_555 1_555
C22_3 H15_3 1_555 1_555
C19_3 H18_3 1_555 1_555
C25_3 H19_3 1_555 1_555
C26_3 H20_3 1_555 1_555
C17_3 H21_3 1_555 1_555
C20_3 H22_3 1_555 1_555
O1_4 H2_4 1_555 1_555
P1_4 O2_4 1_555 1_555
O2_4 Ga8_2 1_555 1_555
O4_4 P1_4 1_555 1_555
C1_4 C5_4 1_555 1_555
C2_4 P1_4 1_555 1_555
C6_4 C5_4 1_555 1_555
C7_4 C2_4 1_555 1_555
C8_4 C1_4 1_555 1_555
C12_4 C11_4 1_555 1_555
C13_4 C8_4 1_555 1_555
O15_2 Ga8_2 1_555 1_555
C6_4 C7_4 1_555 1_555
C12_4 C13_4 1_555 1_555
C7_4 H4_4 1_555 1_555
C13_4 H5_4 1_555 1_555
O4_4 H8_4 1_555 1_555
C12_4 H11_4 1_555 1_555
O18_2 P2_4 1_555 1_555
C4_4 C3_4 1_555 1_555
C10_4 C9_4 1_555 1_555
C4_4 H3_4 1_555 1_555
C3_4 H6_4 1_555 1_555
C10_4 H7_4 1_555 1_555
C9_4 H13_4 1_555 1_555
P3_4 O8_4 1_555 1_555
O8_4 Ga6_2 1_555 1_555
O10_4 P3_4 1_555 1_555
C15_4 P3_4 1_555 1_555
C18_4 C14_4 1_555 1_555
C19_4 C18_4 1_555 1_555
C20_4 C15_4 1_555 1_555
C21_4 C14_4 1_555 1_555
C25_4 C24_4 1_555 1_555
C26_4 C21_4 1_555 1_555
Ga6_2 O14_4 1_555 1_555
O16_2 Ga6_2 1_555 1_555
C19_4 C20_4 1_555 1_555
C25_4 C26_4 1_555 1_555
O10_4 H12_4 1_555 1_555
O14_4 H16_4 1_555 1_555
O14_4 H17_4 1_555 1_555
C25_4 H19_4 1_555 1_555
C26_4 H20_4 1_555 1_555
C20_4 H22_4 1_555 1_555
O17_2 P4_4 1_555 1_555
C17_4 C16_4 1_555 1_555
C23_4 C22_4 1_555 1_555
C16_4 H10_4 1_555 1_555
C23_4 H14_4 1_555 1_555
C22_4 H15_4 1_555 1_555
C17_4 H21_4 1_555 1_555

#END
