
###############################################################################
#
# This file contains modified crystal structure data generated from the
# MOF subset of the Cambridge Structural Database (CSD) v543 
# hosted by the Cambridge Crystallographic Data Centre (CCDC).
#
# This work is licensed under the Creative Commons
# Attribution-NonCommercial-ShareAlike 4.0 International License.
# To view a copy of this license, visit
# http://creativecommons.org/licenses/by-nc-sa/4.0/
# or send a letter to
# Creative Commons, PO Box 1866, Mountain View, CA 94042, USA.
#
# CIF created using the CSD Python API on 29 September 2022
# The structure has been converted into the P1 space group
# The structure has a 3D framework
# The original CSD entry VADDOX is in the monoclinic crystal system
# The framework has been calculated to contain at least 10.0% void space
# The void calculation uses a probe of radius 1.32A, grid spacing 0.4
# H atom positions have been added when not included in the experimental data
#
###############################################################################

data_VADDOX
_chemical_formula_moiety         '(C104 H88 Al8 O50 P16)n'
_symmetry_cell_setting           triclinic
_symmetry_space_group_name_H-M   'P 1'
_symmetry_Int_Tables_number      1
_space_group_name_Hall           'P 1'
loop_
_symmetry_equiv_pos_site_id
_symmetry_equiv_pos_as_xyz
1 x,y,z
_cell_length_a                   23.960(2)
_cell_length_b                   5.0811(4)
_cell_length_c                   27.877(4)
_cell_angle_alpha                90
_cell_angle_beta                 77.430(7)
_cell_angle_gamma                90
_cell_volume                     3312.49
loop_
_atom_site_label
_atom_site_type_symbol
_atom_site_fract_x
_atom_site_fract_y
_atom_site_fract_z
_atom_site_U_iso_or_equiv
_atom_site_thermal_displace_type
Al3 Al 0.3347(11) 0.005(6) 0.0189(11) 0.0025 Uiso
Al4 Al 0.6653(11) 0.005(6) 0.4811(11) 0.0025 Uiso
P1 P 0.3051(9) 0.482(6) 0.4520(7) 0.0127 Uiso
O2 O 0.309(2) 0.192(11) 0.4709(18) 0.0127 Uiso
O3 O 0.2430(19) 0.509(12) 0.4424(13) 0.0127 Uiso
O4 O 0.3105(15) 0.692(10) 0.4906(18) 0.0127 Uiso
O5 O 0.2863(17) 0.564(8) 0.1107(16) 0.0127 Uiso
O6 O 0.3564(18) 0.213(8) 0.0671(13) 0.0127 Uiso
O7 O 0.3682(16) 0.710(8) 0.0439(15) 0.0127 Uiso
P2 P 0.3482(7) 0.508(5) 0.0846(7) 0.0127 Uiso
C1 C 0.47111(14) 0.610(3) 0.252988(15) 0.0127 Uiso
C2 C 0.3612(6) 0.502(3) 0.3955(6) 0.0127 Uiso
C3 C 0.3562(6) 0.336(3) 0.3568(4) 0.0127 Uiso
C4 C 0.3919(4) 0.371(3) 0.3106(4) 0.0127 Uiso
C5 C 0.4325(3) 0.572(3) 0.3031(4) 0.0127 Uiso
C6 C 0.4374(3) 0.738(3) 0.3417(4) 0.0127 Uiso
C7 C 0.4018(4) 0.703(3) 0.3879(6) 0.0127 Uiso
C8 C 0.4417(3) 0.576(3) 0.2107(3) 0.0127 Uiso
C9 C 0.4672(2) 0.425(3) 0.1701(4) 0.0127 Uiso
C10 C 0.4400(3) 0.394(3) 0.1310(5) 0.0127 Uiso
C11 C 0.3873(5) 0.513(3) 0.1326(5) 0.0127 Uiso
C12 C 0.3618(6) 0.664(3) 0.1733(3) 0.0127 Uiso
C13 C 0.3889(5) 0.695(3) 0.2123(3) 0.0127 Uiso
P3 P 0.6949(9) 0.482(6) 0.0480(7) 0.0127 Uiso
O8 O 0.691(2) 0.192(11) 0.0291(18) 0.0127 Uiso
O9 O 0.7570(19) 0.509(12) 0.0576(13) 0.0127 Uiso
O10 O 0.6895(15) 0.692(10) 0.0094(18) 0.0127 Uiso
O11 O 0.7137(17) 0.564(8) 0.3893(16) 0.0127 Uiso
O12 O 0.6436(18) 0.213(8) 0.4329(13) 0.0127 Uiso
O13 O 0.6318(16) 0.710(8) 0.4561(15) 0.0127 Uiso
P4 P 0.6518(7) 0.508(5) 0.4154(7) 0.0127 Uiso
C14 C 0.52889(14) 0.610(3) 0.247012(15) 0.0127 Uiso
C15 C 0.6388(6) 0.502(3) 0.1045(6) 0.0127 Uiso
C16 C 0.6438(6) 0.336(3) 0.1432(4) 0.0127 Uiso
C17 C 0.6081(4) 0.371(3) 0.1894(4) 0.0127 Uiso
C18 C 0.5675(3) 0.572(3) 0.1969(4) 0.0127 Uiso
C19 C 0.5626(3) 0.738(3) 0.1583(4) 0.0127 Uiso
C20 C 0.5982(4) 0.703(3) 0.1121(6) 0.0127 Uiso
C21 C 0.5583(3) 0.576(3) 0.2893(3) 0.0127 Uiso
C22 C 0.5328(2) 0.425(3) 0.3299(4) 0.0127 Uiso
C23 C 0.5600(3) 0.394(3) 0.3690(5) 0.0127 Uiso
C24 C 0.6127(5) 0.513(3) 0.3674(5) 0.0127 Uiso
C25 C 0.6382(6) 0.664(3) 0.3267(3) 0.0127 Uiso
C26 C 0.6111(5) 0.695(3) 0.2877(3) 0.0127 Uiso
O14 O 0.5878(13) 0.047(8) 0.5192(12) 0.0025 Uiso
Al6 Al 0.3347(11) 0.995(6) 0.5189(11) 0.0025 Uiso
Al9 Al 0.8347(11) 0.505(6) 0.0189(11) 0.0025 Uiso
Al10 Al 0.1653(11) 0.505(6) 0.4811(11) 0.0025 Uiso
O17 O 0.7430(19) 0.009(12) 0.4424(13) 0.0127 Uiso
O18 O 0.2570(19) 0.009(12) 0.0576(13) 0.0127 Uiso
O20 O 0.6895(15) 0.308(10) 0.5094(18) 0.0127 Uiso
H3 H 0.460014 0.276631 0.0992117 . .
H4 H 0.405673 0.832682 0.418107 . .
H5 H 0.388089 0.241401 0.280364 . .
H6 H 0.320634 0.757694 0.174535 . .
H7 H 0.469059 0.895171 0.335772 . .
H8 H 0.368857 0.812279 0.244092 . .
H9 H 0.724519 0.44831 0.36004 . .
H10 H 0.675559 0.179254 0.13732 . .
H11 H 0.275481 0.44831 0.13996 . .
H12 H 0.508351 0.331207 0.16889 . .
H13 H 0.324441 0.179254 0.36268 . .
H14 H 0.631143 0.812279 0.255908 . .
H15 H 0.679366 0.757694 0.325465 . .
H16 H 0.491649 0.331207 0.33111 . .
H17 H 0.539986 0.276631 0.400788 . .
H18 H 0.594327 0.832682 0.0818928 . .
H21 H 0.530941 0.895171 0.164228 . .
H22 H 0.611911 0.241401 0.219636 . .
O1 O 0.4122(13) 0.047(8) 0.9808(12) 0.0025 Uiso
Al8 Al 0.6653(11) 0.995(6) 0.9811(11) 0.0025 Uiso
O19 O 0.3105(15) 0.308(10) 0.9906(18) 0.0127 Uiso
O16 O 0.691(2) 0.808(11) 0.5291(18) 0.0127 Uiso
H19 H 0.560471 0.974778 0.500439 . .
H20 H 0.583528 0.950937 0.550812 . .
O15 O 0.309(2) 0.808(11) 0.9709(18) 0.0127 Uiso
H1 H 0.439529 0.974778 0.999561 . .
H2 H 0.416472 0.950937 0.949188 . .
O10_2 O 0.1895(15) 0.192(10) 0.0094(18) 0.0127 Uiso
O11_2 O 0.2137(17) 0.064(8) 0.3893(16) 0.0127 Uiso
O13_2 O 0.1318(16) 0.210(8) 0.4561(15) 0.0127 Uiso
P4_2 P 0.1518(7) 0.008(5) 0.4154(7) 0.0127 Uiso
C14_2 C 0.02889(14) 0.110(3) 0.247012(15) 0.0127 Uiso
C15_2 C 0.1388(6) 0.002(3) 0.1045(6) 0.0127 Uiso
C18_2 C 0.0675(3) 0.072(3) 0.1969(4) 0.0127 Uiso
C19_2 C 0.0626(3) 0.238(3) 0.1583(4) 0.0127 Uiso
C20_2 C 0.0982(4) 0.203(3) 0.1121(6) 0.0127 Uiso
C21_2 C 0.0583(3) 0.076(3) 0.2893(3) 0.0127 Uiso
C24_2 C 0.1127(5) 0.013(3) 0.3674(5) 0.0127 Uiso
C25_2 C 0.1382(6) 0.164(3) 0.3267(3) 0.0127 Uiso
C26_2 C 0.1111(5) 0.195(3) 0.2877(3) 0.0127 Uiso
H14_2 H 0.131143 0.312279 0.255908 . .
H15_2 H 0.179366 0.257694 0.325465 . .
H18_2 H 0.0943271 0.332682 0.0818928 . .
H21_2 H 0.0309408 0.395171 0.164228 . .
Al8_2 Al 0.1653(11) 0.495(6) 0.9811(11) 0.0025 Uiso
P3_2 P 0.1949(9) 0.982(6) 0.0480(7) 0.0127 Uiso
O8_2 O 0.191(2) 0.692(11) 0.0291(18) 0.0127 Uiso
O12_2 O 0.1436(18) 0.713(8) 0.4329(13) 0.0127 Uiso
C16_2 C 0.1438(6) 0.836(3) 0.1432(4) 0.0127 Uiso
C17_2 C 0.1081(4) 0.871(3) 0.1894(4) 0.0127 Uiso
C22_2 C 0.0328(2) 0.925(3) 0.3299(4) 0.0127 Uiso
C23_2 C 0.0600(3) 0.894(3) 0.3690(5) 0.0127 Uiso
O14_2 O 0.0878(13) 0.547(8) 0.5192(12) 0.0025 Uiso
O16_2 O 0.191(2) 0.308(11) 0.5291(18) 0.0127 Uiso
O20_2 O 0.1895(15) 0.808(10) 0.5094(18) 0.0127 Uiso
H9_2 H 0.224519 0.94831 0.36004 . .
H10_2 H 0.175559 0.679254 0.13732 . .
H12_2 H 0.00835078 0.831207 0.16889 . .
H17_2 H 0.0399862 0.776631 0.400788 . .
H19_2 H 0.0604706 0.474778 0.500439 . .
H20_2 H 0.0835276 0.450937 0.550812 . .
H22_2 H 0.111911 0.741401 0.219636 . .
O4_2 O 0.8105(15) 0.192(10) 0.4906(18) 0.0127 Uiso
O5_2 O 0.7863(17) 0.064(8) 0.1107(16) 0.0127 Uiso
O7_2 O 0.8682(16) 0.210(8) 0.0439(15) 0.0127 Uiso
P2_2 P 0.8482(7) 0.008(5) 0.0846(7) 0.0127 Uiso
C1_2 C 0.97111(14) 0.110(3) 0.252988(15) 0.0127 Uiso
C2_2 C 0.8612(6) 0.002(3) 0.3955(6) 0.0127 Uiso
C5_2 C 0.9325(3) 0.072(3) 0.3031(4) 0.0127 Uiso
C6_2 C 0.9374(3) 0.238(3) 0.3417(4) 0.0127 Uiso
C7_2 C 0.9018(4) 0.203(3) 0.3879(6) 0.0127 Uiso
C8_2 C 0.9417(3) 0.076(3) 0.2107(3) 0.0127 Uiso
C11_2 C 0.8873(5) 0.013(3) 0.1326(5) 0.0127 Uiso
C12_2 C 0.8618(6) 0.164(3) 0.1733(3) 0.0127 Uiso
C13_2 C 0.8889(5) 0.195(3) 0.2123(3) 0.0127 Uiso
Al6_2 Al 0.8347(11) 0.495(6) 0.5189(11) 0.0025 Uiso
H4_2 H 0.905673 0.332682 0.418107 . .
H6_2 H 0.820634 0.257694 0.174535 . .
H7_2 H 0.969059 0.395171 0.335772 . .
H8_2 H 0.868857 0.312279 0.244092 . .
P1_2 P 0.8051(9) 0.982(6) 0.4520(7) 0.0127 Uiso
O2_2 O 0.809(2) 0.692(11) 0.4709(18) 0.0127 Uiso
O6_2 O 0.8564(18) 0.713(8) 0.0671(13) 0.0127 Uiso
C3_2 C 0.8562(6) 0.836(3) 0.3568(4) 0.0127 Uiso
C4_2 C 0.8919(4) 0.871(3) 0.3106(4) 0.0127 Uiso
C9_2 C 0.9672(2) 0.925(3) 0.1701(4) 0.0127 Uiso
C10_2 C 0.9400(3) 0.894(3) 0.1310(5) 0.0127 Uiso
H3_2 H 0.960014 0.776631 0.0992117 . .
H5_2 H 0.888089 0.741401 0.280364 . .
H11_2 H 0.775481 0.94831 0.13996 . .
H13_2 H 0.824441 0.679254 0.36268 . .
H16_2 H 0.991649 0.831207 0.33111 . .
O1_2 O 0.9122(13) 0.547(8) 0.9808(12) 0.0025 Uiso
O15_2 O 0.809(2) 0.308(11) 0.9709(18) 0.0127 Uiso
O19_2 O 0.8105(15) 0.808(10) 0.9906(18) 0.0127 Uiso
H1_2 H 0.939529 0.474778 0.999561 . .
H2_2 H 0.916472 0.450937 0.949188 . .
H1_3 H 0.560471 0.0252216 0.000438633 . .
H2_3 H 0.583528 0.0490628 0.0508118 . .
O21 O 0.6318(16) 0.290(8) 0.9561(15) 0.0127 Uiso
O22 O 0.3682(16) 0.290(8) 0.5439(15) 0.0127 Uiso
H19_3 H 0.439529 0.0252216 0.499561 . .
H20_3 H 0.416472 0.0490628 0.449188 . .
O1_3 O 0.5878(13) 0.953(8) 0.0192(12) 0.0025 Uiso
P1_3 P 0.6949(9) 0.518(6) 0.5480(7) 0.0127 Uiso
O3_2 O 0.7570(19) 0.491(12) 0.5576(13) 0.0127 Uiso
O5_3 O 0.7137(17) 0.436(8) 0.8893(16) 0.0127 Uiso
O6_3 O 0.6436(18) 0.787(8) 0.9329(13) 0.0127 Uiso
P2_3 P 0.6518(7) 0.492(5) 0.9154(7) 0.0127 Uiso
C1_3 C 0.52889(14) 0.390(3) 0.747012(15) 0.0127 Uiso
C2_3 C 0.6388(6) 0.498(3) 0.6045(6) 0.0127 Uiso
C3_3 C 0.6438(6) 0.664(3) 0.6432(4) 0.0127 Uiso
C4_3 C 0.6081(4) 0.629(3) 0.6894(4) 0.0127 Uiso
C5_3 C 0.5675(3) 0.428(3) 0.6969(4) 0.0127 Uiso
C6_3 C 0.5626(3) 0.262(3) 0.6583(4) 0.0127 Uiso
C7_3 C 0.5982(4) 0.297(3) 0.6121(6) 0.0127 Uiso
C8_3 C 0.5583(3) 0.424(3) 0.7893(3) 0.0127 Uiso
C9_3 C 0.5328(2) 0.575(3) 0.8299(4) 0.0127 Uiso
C10_3 C 0.5600(3) 0.606(3) 0.8690(5) 0.0127 Uiso
C11_3 C 0.6127(5) 0.487(3) 0.8674(5) 0.0127 Uiso
C12_3 C 0.6382(6) 0.336(3) 0.8267(3) 0.0127 Uiso
C13_3 C 0.6111(5) 0.305(3) 0.7877(3) 0.0127 Uiso
P3_3 P 0.3051(9) 0.518(6) 0.9520(7) 0.0127 Uiso
O9_2 O 0.2430(19) 0.491(12) 0.9424(13) 0.0127 Uiso
O11_3 O 0.2863(17) 0.436(8) 0.6107(16) 0.0127 Uiso
O12_3 O 0.3564(18) 0.787(8) 0.5671(13) 0.0127 Uiso
P4_3 P 0.3482(7) 0.492(5) 0.5846(7) 0.0127 Uiso
C14_3 C 0.47111(14) 0.390(3) 0.752988(15) 0.0127 Uiso
C15_3 C 0.3612(6) 0.498(3) 0.8955(6) 0.0127 Uiso
C16_3 C 0.3562(6) 0.664(3) 0.8568(4) 0.0127 Uiso
C17_3 C 0.3919(4) 0.629(3) 0.8106(4) 0.0127 Uiso
C18_3 C 0.4325(3) 0.428(3) 0.8031(4) 0.0127 Uiso
C19_3 C 0.4374(3) 0.262(3) 0.8417(4) 0.0127 Uiso
C20_3 C 0.4018(4) 0.297(3) 0.8879(6) 0.0127 Uiso
C21_3 C 0.4417(3) 0.424(3) 0.7107(3) 0.0127 Uiso
C22_3 C 0.4672(2) 0.575(3) 0.6701(4) 0.0127 Uiso
C23_3 C 0.4400(3) 0.606(3) 0.6310(5) 0.0127 Uiso
C24_3 C 0.3873(5) 0.487(3) 0.6326(5) 0.0127 Uiso
C25_3 C 0.3618(6) 0.336(3) 0.6733(3) 0.0127 Uiso
C26_3 C 0.3889(5) 0.305(3) 0.7123(3) 0.0127 Uiso
O14_3 O 0.4122(13) 0.953(8) 0.4808(12) 0.0025 Uiso
O17_2 O 0.2570(19) 0.991(12) 0.5576(13) 0.0127 Uiso
O18_2 O 0.7430(19) 0.991(12) 0.9424(13) 0.0127 Uiso
H3_3 H 0.539986 0.723369 0.900788 . .
H4_3 H 0.594327 0.167318 0.581893 . .
H5_3 H 0.611911 0.758599 0.719636 . .
H6_3 H 0.679366 0.242306 0.825465 . .
H7_3 H 0.530941 0.104829 0.664228 . .
H8_3 H 0.631143 0.187721 0.755908 . .
H9_3 H 0.275481 0.55169 0.63996 . .
H10_3 H 0.324441 0.820746 0.86268 . .
H11_3 H 0.724519 0.55169 0.86004 . .
H12_3 H 0.491649 0.668793 0.83111 . .
H13_3 H 0.675559 0.820746 0.63732 . .
H14_3 H 0.368857 0.187721 0.744092 . .
H15_3 H 0.320634 0.242306 0.674535 . .
H16_3 H 0.508351 0.668793 0.66889 . .
H17_3 H 0.460014 0.723369 0.599212 . .
H18_3 H 0.405673 0.167318 0.918107 . .
H21_3 H 0.469059 0.104829 0.835772 . .
H22_3 H 0.388089 0.758599 0.780364 . .
O1_4 O 0.0878(13) 0.453(8) 0.0192(12) 0.0025 Uiso
H1_4 H 0.0604706 0.525222 0.000438633 . .
H2_4 H 0.0835276 0.549063 0.0508118 . .
P1_4 P 0.1949(9) 0.018(6) 0.5480(7) 0.0127 Uiso
O6_4 O 0.1436(18) 0.287(8) 0.9329(13) 0.0127 Uiso
C3_4 C 0.1438(6) 0.164(3) 0.6432(4) 0.0127 Uiso
C4_4 C 0.1081(4) 0.129(3) 0.6894(4) 0.0127 Uiso
C9_4 C 0.0328(2) 0.075(3) 0.8299(4) 0.0127 Uiso
C10_4 C 0.0600(3) 0.106(3) 0.8690(5) 0.0127 Uiso
O21_2 O 0.1318(16) 0.790(8) 0.9561(15) 0.0127 Uiso
H3_4 H 0.0399862 0.223369 0.900788 . .
H5_4 H 0.111911 0.258599 0.719636 . .
H11_4 H 0.224519 0.0516898 0.86004 . .
H13_4 H 0.175559 0.320746 0.63732 . .
H16_4 H 0.00835078 0.168793 0.66889 . .
O5_4 O 0.2137(17) 0.936(8) 0.8893(16) 0.0127 Uiso
P2_4 P 0.1518(7) 0.992(5) 0.9154(7) 0.0127 Uiso
C1_4 C 0.02889(14) 0.890(3) 0.747012(15) 0.0127 Uiso
C2_4 C 0.1388(6) 0.998(3) 0.6045(6) 0.0127 Uiso
C5_4 C 0.0675(3) 0.928(3) 0.6969(4) 0.0127 Uiso
C6_4 C 0.0626(3) 0.762(3) 0.6583(4) 0.0127 Uiso
C7_4 C 0.0982(4) 0.797(3) 0.6121(6) 0.0127 Uiso
C8_4 C 0.0583(3) 0.924(3) 0.7893(3) 0.0127 Uiso
C11_4 C 0.1127(5) 0.987(3) 0.8674(5) 0.0127 Uiso
C12_4 C 0.1382(6) 0.836(3) 0.8267(3) 0.0127 Uiso
C13_4 C 0.1111(5) 0.805(3) 0.7877(3) 0.0127 Uiso
H4_4 H 0.0943271 0.667318 0.581893 . .
H6_4 H 0.179366 0.742306 0.825465 . .
H7_4 H 0.0309408 0.604829 0.664228 . .
H8_4 H 0.131143 0.687721 0.755908 . .
P3_4 P 0.8051(9) 0.018(6) 0.9520(7) 0.0127 Uiso
O12_4 O 0.8564(18) 0.287(8) 0.5671(13) 0.0127 Uiso
C16_4 C 0.8562(6) 0.164(3) 0.8568(4) 0.0127 Uiso
C17_4 C 0.8919(4) 0.129(3) 0.8106(4) 0.0127 Uiso
C22_4 C 0.9672(2) 0.075(3) 0.6701(4) 0.0127 Uiso
C23_4 C 0.9400(3) 0.106(3) 0.6310(5) 0.0127 Uiso
O14_4 O 0.9122(13) 0.453(8) 0.4808(12) 0.0025 Uiso
O22_2 O 0.8682(16) 0.790(8) 0.5439(15) 0.0127 Uiso
H9_4 H 0.775481 0.0516898 0.63996 . .
H10_4 H 0.824441 0.320746 0.86268 . .
H12_4 H 0.991649 0.168793 0.83111 . .
H17_4 H 0.960014 0.223369 0.599212 . .
H19_4 H 0.939529 0.525222 0.499561 . .
H20_4 H 0.916472 0.549063 0.449188 . .
H22_4 H 0.888089 0.258599 0.780364 . .
O11_4 O 0.7863(17) 0.936(8) 0.6107(16) 0.0127 Uiso
P4_4 P 0.8482(7) 0.992(5) 0.5846(7) 0.0127 Uiso
C14_4 C 0.97111(14) 0.890(3) 0.752988(15) 0.0127 Uiso
C15_4 C 0.8612(6) 0.998(3) 0.8955(6) 0.0127 Uiso
C18_4 C 0.9325(3) 0.928(3) 0.8031(4) 0.0127 Uiso
C19_4 C 0.9374(3) 0.762(3) 0.8417(4) 0.0127 Uiso
C20_4 C 0.9018(4) 0.797(3) 0.8879(6) 0.0127 Uiso
C21_4 C 0.9417(3) 0.924(3) 0.7107(3) 0.0127 Uiso
C24_4 C 0.8873(5) 0.987(3) 0.6326(5) 0.0127 Uiso
C25_4 C 0.8618(6) 0.836(3) 0.6733(3) 0.0127 Uiso
C26_4 C 0.8889(5) 0.805(3) 0.7123(3) 0.0127 Uiso
H14_4 H 0.868857 0.687721 0.744092 . .
H15_4 H 0.820634 0.742306 0.674535 . .
H18_4 H 0.905673 0.667318 0.918107 . .
H21_4 H 0.969059 0.604829 0.835772 . .
loop_
_geom_bond_atom_site_label_1
_geom_bond_atom_site_label_2
_geom_bond_site_symmetry_1
_geom_bond_site_symmetry_2
P1 O2 1_555 1_555
O3 P1 1_555 1_555
O4 P1 1_555 1_555
O5 P2 1_555 1_555
O6 Al3 1_555 1_555
O7 P2 1_555 1_555
P2 O6 1_555 1_555
C1 C5 1_555 1_555
C2 P1 1_555 1_555
C3 C2 1_555 1_555
C4 C3 1_555 1_555
C5 C4 1_555 1_555
C6 C5 1_555 1_555
C7 C2 1_555 1_555
C8 C1 1_555 1_555
C9 C8 1_555 1_555
C10 C9 1_555 1_555
C11 P2 1_555 1_555
C12 C11 1_555 1_555
C13 C8 1_555 1_555
P3 O8 1_555 1_555
O9 P3 1_555 1_555
O10 P3 1_555 1_555
O11 P4 1_555 1_555
O12 P4 1_555 1_555
O13 P4 1_555 1_555
P4 C24 1_555 1_555
C14 C1 1_555 1_555
C15 P3 1_555 1_555
C16 C15 1_555 1_555
C17 C16 1_555 1_555
C18 C14 1_555 1_555
C19 C18 1_555 1_555
C20 C15 1_555 1_555
C21 C14 1_555 1_555
C22 C21 1_555 1_555
C23 C22 1_555 1_555
C24 C23 1_555 1_555
C25 C24 1_555 1_555
C26 C21 1_555 1_555
Al4 O12 1_555 1_555
O14 Al4 1_555 1_555
Al6 O4 1_555 1_555
Al9 O9 1_555 1_555
Al10 O3 1_555 1_555
O17 Al4 1_555 1_555
O18 Al3 1_555 1_555
O20 Al4 1_555 1_555
C6 C7 1_555 1_555
C10 C11 1_555 1_555
C12 C13 1_555 1_555
C17 C18 1_555 1_555
C19 C20 1_555 1_555
C25 C26 1_555 1_555
C10 H3 1_555 1_555
C7 H4 1_555 1_555
C4 H5 1_555 1_555
C12 H6 1_555 1_555
C6 H7 1_555 1_555
C13 H8 1_555 1_555
O11 H9 1_555 1_555
C16 H10 1_555 1_555
O5 H11 1_555 1_555
C9 H12 1_555 1_555
C3 H13 1_555 1_555
C26 H14 1_555 1_555
C25 H15 1_555 1_555
C22 H16 1_555 1_555
C23 H17 1_555 1_555
C20 H18 1_555 1_555
C19 H21 1_555 1_555
C17 H22 1_555 1_555
O11_2 P4_2 1_555 1_555
O13_2 P4_2 1_555 1_555
P4_2 C24_2 1_555 1_555
C18_2 C14_2 1_555 1_555
C19_2 C18_2 1_555 1_555
C20_2 C15_2 1_555 1_555
C21_2 C14_2 1_555 1_555
C25_2 C24_2 1_555 1_555
C26_2 C21_2 1_555 1_555
Al10 O13_2 1_555 1_555
C19_2 C20_2 1_555 1_555
C25_2 C26_2 1_555 1_555
C26_2 H14_2 1_555 1_555
C25_2 H15_2 1_555 1_555
C20_2 H18_2 1_555 1_555
C19_2 H21_2 1_555 1_555
P3_2 O8_2 1_555 1_555
C17_2 C16_2 1_555 1_555
C23_2 C22_2 1_555 1_555
Al10 O12_2 1_555 1_555
O14_2 Al10 1_555 1_555
O16_2 Al10 1_555 1_555
O20_2 Al10 1_555 1_555
C16_2 H10_2 1_555 1_555
C23_2 H17_2 1_555 1_555
O14_2 H19_2 1_555 1_555
O14_2 H20_2 1_555 1_555
C17_2 H22_2 1_555 1_555
O5_2 P2_2 1_555 1_555
O7_2 P2_2 1_555 1_555
C1_2 C5_2 1_555 1_555
C6_2 C5_2 1_555 1_555
C7_2 C2_2 1_555 1_555
C8_2 C1_2 1_555 1_555
C11_2 P2_2 1_555 1_555
C12_2 C11_2 1_555 1_555
C13_2 C8_2 1_555 1_555
Al9 O7_2 1_555 1_555
Al6_2 O4_2 1_555 1_555
C6_2 C7_2 1_555 1_555
C12_2 C13_2 1_555 1_555
C7_2 H4_2 1_555 1_555
C12_2 H6_2 1_555 1_555
C6_2 H7_2 1_555 1_555
C13_2 H8_2 1_555 1_555
P1_2 O2_2 1_555 1_555
O2_2 Al6_2 1_555 1_555
O6_2 Al9 1_555 1_555
C4_2 C3_2 1_555 1_555
C10_2 C9_2 1_555 1_555
C10_2 H3_2 1_555 1_555
C4_2 H5_2 1_555 1_555
C3_2 H13_2 1_555 1_555
O1_2 H1_2 1_555 1_555
O1_2 H2_2 1_555 1_555
P1_3 O16 1_555 1_555
O3_2 P1_3 1_555 1_555
O20 P1_3 1_555 1_555
O5_3 P2_3 1_555 1_555
O6_3 Al8 1_555 1_555
O21 P2_3 1_555 1_555
P2_3 O6_3 1_555 1_555
C1_3 C5_3 1_555 1_555
C2_3 P1_3 1_555 1_555
C3_3 C2_3 1_555 1_555
C4_3 C3_3 1_555 1_555
C5_3 C4_3 1_555 1_555
C6_3 C5_3 1_555 1_555
C7_3 C2_3 1_555 1_555
C8_3 C1_3 1_555 1_555
C9_3 C8_3 1_555 1_555
C10_3 C9_3 1_555 1_555
C11_3 P2_3 1_555 1_555
C12_3 C11_3 1_555 1_555
C13_3 C8_3 1_555 1_555
P3_3 O15 1_555 1_555
O9_2 P3_3 1_555 1_555
O19 P3_3 1_555 1_555
O11_3 P4_3 1_555 1_555
O12_3 P4_3 1_555 1_555
O22 P4_3 1_555 1_555
P4_3 C24_3 1_555 1_555
C14_3 C1_3 1_555 1_555
C15_3 P3_3 1_555 1_555
C16_3 C15_3 1_555 1_555
C17_3 C16_3 1_555 1_555
C18_3 C14_3 1_555 1_555
C19_3 C18_3 1_555 1_555
C20_3 C15_3 1_555 1_555
C21_3 C14_3 1_555 1_555
C22_3 C21_3 1_555 1_555
C23_3 C22_3 1_555 1_555
C24_3 C23_3 1_555 1_555
C25_3 C24_3 1_555 1_555
C26_3 C21_3 1_555 1_555
Al6 O12_3 1_555 1_555
O14_3 Al6 1_555 1_555
Al8_2 O9_2 1_555 1_555
Al6_2 O3_2 1_555 1_555
O17_2 Al6 1_555 1_555
O18_2 Al8 1_555 1_555
C6_3 C7_3 1_555 1_555
C10_3 C11_3 1_555 1_555
C12_3 C13_3 1_555 1_555
C17_3 C18_3 1_555 1_555
C19_3 C20_3 1_555 1_555
C25_3 C26_3 1_555 1_555
C10_3 H3_3 1_555 1_555
C7_3 H4_3 1_555 1_555
C4_3 H5_3 1_555 1_555
C12_3 H6_3 1_555 1_555
C6_3 H7_3 1_555 1_555
C13_3 H8_3 1_555 1_555
O11_3 H9_3 1_555 1_555
C16_3 H10_3 1_555 1_555
O5_3 H11_3 1_555 1_555
C9_3 H12_3 1_555 1_555
C3_3 H13_3 1_555 1_555
C26_3 H14_3 1_555 1_555
C25_3 H15_3 1_555 1_555
C22_3 H16_3 1_555 1_555
C23_3 H17_3 1_555 1_555
C20_3 H18_3 1_555 1_555
C19_3 H21_3 1_555 1_555
C17_3 H22_3 1_555 1_555
O1_4 H1_4 1_555 1_555
O1_4 H2_4 1_555 1_555
P1_4 O16_2 1_555 1_555
O6_4 Al8_2 1_555 1_555
C4_4 C3_4 1_555 1_555
C10_4 C9_4 1_555 1_555
O21_2 Al8_2 1_555 1_555
C10_4 H3_4 1_555 1_555
C4_4 H5_4 1_555 1_555
C3_4 H13_4 1_555 1_555
O5_4 P2_4 1_555 1_555
O21_2 P2_4 1_555 1_555
C1_4 C5_4 1_555 1_555
C6_4 C5_4 1_555 1_555
C7_4 C2_4 1_555 1_555
C8_4 C1_4 1_555 1_555
C11_4 P2_4 1_555 1_555
C12_4 C11_4 1_555 1_555
C13_4 C8_4 1_555 1_555
C6_4 C7_4 1_555 1_555
C12_4 C13_4 1_555 1_555
C7_4 H4_4 1_555 1_555
C12_4 H6_4 1_555 1_555
C6_4 H7_4 1_555 1_555
C13_4 H8_4 1_555 1_555
P3_4 O15_2 1_555 1_555
C17_4 C16_4 1_555 1_555
C23_4 C22_4 1_555 1_555
Al6_2 O12_4 1_555 1_555
O14_4 Al6_2 1_555 1_555
O22_2 Al6_2 1_555 1_555
C16_4 H10_4 1_555 1_555
C23_4 H17_4 1_555 1_555
O14_4 H19_4 1_555 1_555
O14_4 H20_4 1_555 1_555
C17_4 H22_4 1_555 1_555
O11_4 P4_4 1_555 1_555
O22_2 P4_4 1_555 1_555
P4_4 C24_4 1_555 1_555
C18_4 C14_4 1_555 1_555
C19_4 C18_4 1_555 1_555
C20_4 C15_4 1_555 1_555
C21_4 C14_4 1_555 1_555
C25_4 C24_4 1_555 1_555
C26_4 C21_4 1_555 1_555
C19_4 C20_4 1_555 1_555
C25_4 C26_4 1_555 1_555
C26_4 H14_4 1_555 1_555
C25_4 H15_4 1_555 1_555
C20_4 H18_4 1_555 1_555
C19_4 H21_4 1_555 1_555

#END
