
###############################################################################
#
# This file contains modified crystal structure data generated from the
# MOF subset of the Cambridge Structural Database (CSD) v543 
# hosted by the Cambridge Crystallographic Data Centre (CCDC).
#
# This work is licensed under the Creative Commons
# Attribution-NonCommercial-ShareAlike 4.0 International License.
# To view a copy of this license, visit
# http://creativecommons.org/licenses/by-nc-sa/4.0/
# or send a letter to
# Creative Commons, PO Box 1866, Mountain View, CA 94042, USA.
#
# CIF created using the CSD Python API on 29 September 2022
# The structure has been converted into the P1 space group
# The structure has a 3D framework
# The original CSD entry VADFAL is in the monoclinic crystal system
# The framework has been calculated to contain at least 10.0% void space
# The void calculation uses a probe of radius 1.32A, grid spacing 0.4
# H atom positions have been added when not included in the experimental data
#
###############################################################################

data_VADFAL
_chemical_formula_moiety         '(C104 H88 Fe8 O50 P16)n'
_symmetry_cell_setting           triclinic
_symmetry_space_group_name_H-M   'P 1'
_symmetry_Int_Tables_number      1
_space_group_name_Hall           'P 1'
loop_
_symmetry_equiv_pos_site_id
_symmetry_equiv_pos_as_xyz
1 x,y,z
_cell_length_a                   22.550(2)
_cell_length_b                   5.2256(6)
_cell_length_c                   29.039(7)
_cell_angle_alpha                90
_cell_angle_beta                 78.153(7)
_cell_angle_gamma                90
_cell_volume                     3348.99
loop_
_atom_site_label
_atom_site_type_symbol
_atom_site_fract_x
_atom_site_fract_y
_atom_site_fract_z
_atom_site_U_iso_or_equiv
_atom_site_thermal_displace_type
Fe3 Fe 0.3410(11) 0.003(9) 0.0201(10) 0.0025 Uiso
Fe4 Fe 0.6590(11) 0.003(9) 0.4799(10) 0.0025 Uiso
P1 P 0.318(2) 0.484(13) 0.4527(16) 0.0773 Uiso
O2 O 0.335(4) 0.202(16) 0.461(3) 0.0773 Uiso
O3 O 0.249(5) 0.470(17) 0.453(3) 0.0773 Uiso
O4 O 0.327(4) 0.63(2) 0.497(3) 0.0773 Uiso
O5 O 0.270(3) 0.558(16) 0.100(2) 0.0773 Uiso
O6 O 0.354(3) 0.207(18) 0.079(4) 0.0773 Uiso
O7 O 0.364(3) 0.66(2) 0.041(4) 0.0773 Uiso
P2 P 0.339(2) 0.498(13) 0.0861(18) 0.0773 Uiso
C1 C 0.47072 0.55209 0.25259 0.0773 Uiso
C2 C 0.35838 0.5379 0.39145 0.0773 Uiso
C3 C 0.34526 0.37727 0.35649 0.0773 Uiso
C4 C 0.3817 0.38188 0.31144 0.0773 Uiso
C5 C 0.43127 0.5471 0.30135 0.0773 Uiso
C6 C 0.44438 0.70773 0.33631 0.0773 Uiso
C7 C 0.40794 0.70312 0.38136 0.0773 Uiso
C8 C 0.43998 0.54149 0.21107 0.0773 Uiso
C9 C 0.46136 0.37501 0.1738 0.0773 Uiso
C10 C 0.43297 0.36522 0.13545 0.0773 Uiso
C11 C 0.38319 0.5219 0.13436 0.0773 Uiso
C12 C 0.3618 0.68837 0.17162 0.0773 Uiso
C13 C 0.3902 0.69817 0.20998 0.0773 Uiso
P3 P 0.682(2) 0.484(13) 0.0473(16) 0.0773 Uiso
O8 O 0.665(4) 0.202(16) 0.039(3) 0.0773 Uiso
O9 O 0.751(5) 0.470(17) 0.047(3) 0.0773 Uiso
O10 O 0.673(4) 0.63(2) 0.003(3) 0.0773 Uiso
O11 O 0.730(3) 0.558(16) 0.400(2) 0.0773 Uiso
O12 O 0.646(3) 0.207(18) 0.421(4) 0.0773 Uiso
O13 O 0.636(3) 0.66(2) 0.459(4) 0.0773 Uiso
P4 P 0.661(2) 0.498(13) 0.4139(18) 0.0773 Uiso
C14 C 0.52928 0.55209 0.24741 0.0773 Uiso
C15 C 0.64162 0.5379 0.10855 0.0773 Uiso
C16 C 0.65474 0.37727 0.14351 0.0773 Uiso
C17 C 0.6183 0.38188 0.18856 0.0773 Uiso
C18 C 0.56873 0.5471 0.19865 0.0773 Uiso
C19 C 0.55562 0.70773 0.16369 0.0773 Uiso
C20 C 0.59206 0.70312 0.11864 0.0773 Uiso
C21 C 0.56002 0.54149 0.28893 0.0773 Uiso
C22 C 0.53864 0.37501 0.3262 0.0773 Uiso
C23 C 0.56703 0.36522 0.36455 0.0773 Uiso
C24 C 0.61681 0.5219 0.36564 0.0773 Uiso
C25 C 0.6382 0.68837 0.32838 0.0773 Uiso
C26 C 0.6098 0.69817 0.29002 0.0773 Uiso
O14 O 0.567(2) 0.041(16) 0.5104(18) 0.0025 Uiso
Fe6 Fe 0.3410(11) 0.997(9) 0.5201(10) 0.0025 Uiso
Fe9 Fe 0.8410(11) 0.503(9) 0.0201(10) 0.0025 Uiso
Fe10 Fe 0.1590(11) 0.503(9) 0.4799(10) 0.0025 Uiso
O20 O 0.673(4) 0.37(2) 0.503(3) 0.0773 Uiso
H3 H 0.747606 0.470713 0.369925 . .
H4 H 0.69343 0.248278 0.135631 . .
H5 H 0.322938 0.810668 0.170767 . .
H6 H 0.483066 0.836741 0.328432 . .
H7 H 0.500219 0.25269 0.17465 . .
H8 H 0.30657 0.248278 0.364369 . .
H9 H 0.373507 0.828128 0.23907 . .
H10 H 0.252394 0.470713 0.130075 . .
H11 H 0.449664 0.235268 0.106359 . .
H12 H 0.371454 0.256511 0.284147 . .
H13 H 0.418183 0.828504 0.408652 . .
H14 H 0.677062 0.810668 0.329233 . .
H15 H 0.626493 0.828128 0.26093 . .
H16 H 0.499781 0.25269 0.32535 . .
H17 H 0.628546 0.256511 0.215853 . .
H18 H 0.516934 0.836741 0.171568 . .
H19 H 0.581817 0.828504 0.0913479 . .
H20 H 0.550336 0.235268 0.393641 . .
O1 O 0.433(2) 0.041(16) 0.9896(18) 0.0025 Uiso
Fe8 Fe 0.6590(11) 0.997(9) 0.9799(10) 0.0025 Uiso
O19 O 0.327(4) 0.37(2) 0.997(3) 0.0773 Uiso
O16 O 0.665(4) 0.798(16) 0.539(3) 0.0773 Uiso
O17 O 0.749(5) 0.970(17) 0.453(3) 0.0773 Uiso
O18 O 0.251(5) 0.970(17) 0.047(3) 0.0773 Uiso
H1 H 0.457658 0.960299 0.0103108 . .
H21 H 0.542342 0.960299 0.489689 . .
H22 H 0.558459 0.955404 0.541593 . .
O15 O 0.335(4) 0.798(16) 0.961(3) 0.0773 Uiso
H2 H 0.441541 0.955404 0.958407 . .
O10_2 O 0.173(4) 0.13(2) 0.003(3) 0.0773 Uiso
O11_2 O 0.230(3) 0.058(16) 0.400(2) 0.0773 Uiso
O13_2 O 0.136(3) 0.16(2) 0.459(4) 0.0773 Uiso
C14_2 C 0.02928 0.05209 0.24741 0.0773 Uiso
C15_2 C 0.14162 0.0379 0.10855 0.0773 Uiso
C18_2 C 0.06873 0.0471 0.19865 0.0773 Uiso
C19_2 C 0.05562 0.20773 0.16369 0.0773 Uiso
C20_2 C 0.09206 0.20312 0.11864 0.0773 Uiso
C21_2 C 0.06002 0.04149 0.28893 0.0773 Uiso
C24_2 C 0.11681 0.0219 0.36564 0.0773 Uiso
C25_2 C 0.1382 0.18837 0.32838 0.0773 Uiso
C26_2 C 0.1098 0.19817 0.29002 0.0773 Uiso
H14_2 H 0.177062 0.310668 0.329233 . .
H15_2 H 0.126493 0.328128 0.26093 . .
H18_2 H 0.0169338 0.336741 0.171568 . .
H19_2 H 0.0818173 0.328504 0.0913479 . .
Fe8_2 Fe 0.1590(11) 0.497(9) 0.9799(10) 0.0025 Uiso
P3_2 P 0.182(2) 0.984(13) 0.0473(16) 0.0773 Uiso
O8_2 O 0.165(4) 0.702(16) 0.039(3) 0.0773 Uiso
O12_2 O 0.146(3) 0.707(18) 0.421(4) 0.0773 Uiso
P4_2 P 0.161(2) 0.998(13) 0.4139(18) 0.0773 Uiso
C16_2 C 0.15474 0.87727 0.14351 0.0773 Uiso
C17_2 C 0.1183 0.88188 0.18856 0.0773 Uiso
C22_2 C 0.03864 0.87501 0.3262 0.0773 Uiso
C23_2 C 0.06703 0.86522 0.36455 0.0773 Uiso
O14_2 O 0.067(2) 0.541(16) 0.5104(18) 0.0025 Uiso
O16_2 O 0.165(4) 0.298(16) 0.539(3) 0.0773 Uiso
O20_2 O 0.173(4) 0.87(2) 0.503(3) 0.0773 Uiso
H3_2 H 0.247606 0.970713 0.369925 . .
H4_2 H 0.19343 0.748278 0.135631 . .
H7_2 H 0.000219063 0.75269 0.17465 . .
H17_2 H 0.128546 0.756511 0.215853 . .
H20_2 H 0.050336 0.735268 0.393641 . .
H21_2 H 0.0423416 0.460299 0.489689 . .
H22_2 H 0.0584589 0.455404 0.541593 . .
O4_2 O 0.827(4) 0.13(2) 0.497(3) 0.0773 Uiso
O5_2 O 0.770(3) 0.058(16) 0.100(2) 0.0773 Uiso
O7_2 O 0.864(3) 0.16(2) 0.041(4) 0.0773 Uiso
C1_2 C 0.97072 0.05209 0.25259 0.0773 Uiso
C2_2 C 0.85838 0.0379 0.39145 0.0773 Uiso
C5_2 C 0.93127 0.0471 0.30135 0.0773 Uiso
C6_2 C 0.94438 0.20773 0.33631 0.0773 Uiso
C7_2 C 0.90794 0.20312 0.38136 0.0773 Uiso
C8_2 C 0.93998 0.04149 0.21107 0.0773 Uiso
C11_2 C 0.88319 0.0219 0.13436 0.0773 Uiso
C12_2 C 0.8618 0.18837 0.17162 0.0773 Uiso
C13_2 C 0.8902 0.19817 0.20998 0.0773 Uiso
Fe6_2 Fe 0.8410(11) 0.497(9) 0.5201(10) 0.0025 Uiso
H5_2 H 0.822938 0.310668 0.170767 . .
H6_2 H 0.983066 0.336741 0.328432 . .
H9_2 H 0.873507 0.328128 0.23907 . .
H13_2 H 0.918183 0.328504 0.408652 . .
P1_2 P 0.818(2) 0.984(13) 0.4527(16) 0.0773 Uiso
O2_2 O 0.835(4) 0.702(16) 0.461(3) 0.0773 Uiso
O6_2 O 0.854(3) 0.707(18) 0.079(4) 0.0773 Uiso
P2_2 P 0.839(2) 0.998(13) 0.0861(18) 0.0773 Uiso
C3_2 C 0.84526 0.87727 0.35649 0.0773 Uiso
C4_2 C 0.8817 0.88188 0.31144 0.0773 Uiso
C9_2 C 0.96136 0.87501 0.1738 0.0773 Uiso
C10_2 C 0.93297 0.86522 0.13545 0.0773 Uiso
H1_2 H 0.957658 0.460299 0.0103108 . .
H8_2 H 0.80657 0.748278 0.364369 . .
H10_2 H 0.752394 0.970713 0.130075 . .
H11_2 H 0.949664 0.735268 0.106359 . .
H12_2 H 0.871454 0.756511 0.284147 . .
H16_2 H 0.999781 0.75269 0.32535 . .
O1_2 O 0.933(2) 0.541(16) 0.9896(18) 0.0025 Uiso
O15_2 O 0.835(4) 0.298(16) 0.961(3) 0.0773 Uiso
O19_2 O 0.827(4) 0.87(2) 0.997(3) 0.0773 Uiso
H2_2 H 0.941541 0.455404 0.958407 . .
H2_3 H 0.558459 0.0445963 0.0415934 . .
O17_2 O 0.251(5) 0.030(17) 0.547(3) 0.0773 Uiso
O18_2 O 0.749(5) 0.030(17) 0.953(3) 0.0773 Uiso
O21 O 0.636(3) 0.34(2) 0.959(4) 0.0773 Uiso
O22 O 0.364(3) 0.34(2) 0.541(4) 0.0773 Uiso
H1_3 H 0.542342 0.039701 0.989689 . .
H21_3 H 0.457658 0.039701 0.510311 . .
H22_3 H 0.441541 0.0445963 0.458407 . .
O1_3 O 0.567(2) 0.959(16) 0.0104(18) 0.0025 Uiso
P1_3 P 0.682(2) 0.516(13) 0.5473(16) 0.0773 Uiso
O3_2 O 0.751(5) 0.530(17) 0.547(3) 0.0773 Uiso
O5_3 O 0.730(3) 0.442(16) 0.900(2) 0.0773 Uiso
O6_3 O 0.646(3) 0.793(18) 0.921(4) 0.0773 Uiso
P2_3 P 0.661(2) 0.502(13) 0.9139(18) 0.0773 Uiso
C1_3 C 0.52928 0.44791 0.74741 0.0773 Uiso
C2_3 C 0.64162 0.4621 0.60855 0.0773 Uiso
C3_3 C 0.65474 0.62273 0.64351 0.0773 Uiso
C4_3 C 0.6183 0.61812 0.68856 0.0773 Uiso
C5_3 C 0.56873 0.4529 0.69865 0.0773 Uiso
C6_3 C 0.55562 0.29227 0.66369 0.0773 Uiso
C7_3 C 0.59206 0.29688 0.61864 0.0773 Uiso
C8_3 C 0.56002 0.45851 0.78893 0.0773 Uiso
C9_3 C 0.53864 0.62499 0.8262 0.0773 Uiso
C10_3 C 0.56703 0.63478 0.86455 0.0773 Uiso
C11_3 C 0.61681 0.4781 0.86564 0.0773 Uiso
C12_3 C 0.6382 0.31163 0.82838 0.0773 Uiso
C13_3 C 0.6098 0.30183 0.79002 0.0773 Uiso
P3_3 P 0.318(2) 0.516(13) 0.9527(16) 0.0773 Uiso
O9_2 O 0.249(5) 0.530(17) 0.953(3) 0.0773 Uiso
O11_3 O 0.270(3) 0.442(16) 0.600(2) 0.0773 Uiso
O12_3 O 0.354(3) 0.793(18) 0.579(4) 0.0773 Uiso
P4_3 P 0.339(2) 0.502(13) 0.5861(18) 0.0773 Uiso
C14_3 C 0.47072 0.44791 0.75259 0.0773 Uiso
C15_3 C 0.35838 0.4621 0.89145 0.0773 Uiso
C16_3 C 0.34526 0.62273 0.85649 0.0773 Uiso
C17_3 C 0.3817 0.61812 0.81144 0.0773 Uiso
C18_3 C 0.43127 0.4529 0.80135 0.0773 Uiso
C19_3 C 0.44438 0.29227 0.83631 0.0773 Uiso
C20_3 C 0.40794 0.29688 0.88136 0.0773 Uiso
C21_3 C 0.43998 0.45851 0.71107 0.0773 Uiso
C22_3 C 0.46136 0.62499 0.6738 0.0773 Uiso
C23_3 C 0.43297 0.63478 0.63545 0.0773 Uiso
C24_3 C 0.38319 0.4781 0.63436 0.0773 Uiso
C25_3 C 0.3618 0.31163 0.67162 0.0773 Uiso
C26_3 C 0.3902 0.30183 0.70998 0.0773 Uiso
O14_3 O 0.433(2) 0.959(16) 0.4896(18) 0.0025 Uiso
H3_3 H 0.252394 0.529287 0.630075 . .
H4_3 H 0.30657 0.751722 0.864369 . .
H5_3 H 0.677062 0.189332 0.829233 . .
H6_3 H 0.516934 0.163259 0.671568 . .
H7_3 H 0.499781 0.74731 0.82535 . .
H8_3 H 0.69343 0.751722 0.635631 . .
H9_3 H 0.626493 0.171872 0.76093 . .
H10_3 H 0.747606 0.529287 0.869925 . .
H11_3 H 0.550336 0.764732 0.893641 . .
H12_3 H 0.628546 0.743489 0.715853 . .
H13_3 H 0.581817 0.171496 0.591348 . .
H14_3 H 0.322938 0.189332 0.670767 . .
H15_3 H 0.373507 0.171872 0.73907 . .
H16_3 H 0.500219 0.74731 0.67465 . .
H17_3 H 0.371454 0.743489 0.784147 . .
H18_3 H 0.483066 0.163259 0.828432 . .
H19_3 H 0.418183 0.171496 0.908652 . .
H20_3 H 0.449664 0.764732 0.606359 . .
O1_4 O 0.067(2) 0.459(16) 0.0104(18) 0.0025 Uiso
H2_4 H 0.0584589 0.544596 0.0415934 . .
P1_4 P 0.182(2) 0.016(13) 0.5473(16) 0.0773 Uiso
O6_4 O 0.146(3) 0.293(18) 0.921(4) 0.0773 Uiso
P2_4 P 0.161(2) 0.002(13) 0.9139(18) 0.0773 Uiso
C3_4 C 0.15474 0.12273 0.64351 0.0773 Uiso
C4_4 C 0.1183 0.11812 0.68856 0.0773 Uiso
C9_4 C 0.03864 0.12499 0.8262 0.0773 Uiso
C10_4 C 0.06703 0.13478 0.86455 0.0773 Uiso
O21_2 O 0.136(3) 0.84(2) 0.959(4) 0.0773 Uiso
H1_4 H 0.0423416 0.539701 0.989689 . .
H8_4 H 0.19343 0.251722 0.635631 . .
H10_4 H 0.247606 0.0292865 0.869925 . .
H11_4 H 0.050336 0.264732 0.893641 . .
H12_4 H 0.128546 0.243489 0.715853 . .
H16_4 H 0.000219063 0.24731 0.67465 . .
O5_4 O 0.230(3) 0.942(16) 0.900(2) 0.0773 Uiso
C1_4 C 0.02928 0.94791 0.74741 0.0773 Uiso
C2_4 C 0.14162 0.9621 0.60855 0.0773 Uiso
C5_4 C 0.06873 0.9529 0.69865 0.0773 Uiso
C6_4 C 0.05562 0.79227 0.66369 0.0773 Uiso
C7_4 C 0.09206 0.79688 0.61864 0.0773 Uiso
C8_4 C 0.06002 0.95851 0.78893 0.0773 Uiso
C11_4 C 0.11681 0.9781 0.86564 0.0773 Uiso
C12_4 C 0.1382 0.81163 0.82838 0.0773 Uiso
C13_4 C 0.1098 0.80183 0.79002 0.0773 Uiso
H5_4 H 0.177062 0.689332 0.829233 . .
H6_4 H 0.0169338 0.663259 0.671568 . .
H9_4 H 0.126493 0.671872 0.76093 . .
H13_4 H 0.0818173 0.671496 0.591348 . .
P3_4 P 0.818(2) 0.016(13) 0.9527(16) 0.0773 Uiso
O12_4 O 0.854(3) 0.293(18) 0.579(4) 0.0773 Uiso
P4_4 P 0.839(2) 0.002(13) 0.5861(18) 0.0773 Uiso
C16_4 C 0.84526 0.12273 0.85649 0.0773 Uiso
C17_4 C 0.8817 0.11812 0.81144 0.0773 Uiso
C22_4 C 0.96136 0.12499 0.6738 0.0773 Uiso
C23_4 C 0.93297 0.13478 0.63545 0.0773 Uiso
O14_4 O 0.933(2) 0.459(16) 0.4896(18) 0.0025 Uiso
O22_2 O 0.864(3) 0.84(2) 0.541(4) 0.0773 Uiso
H3_4 H 0.752394 0.0292865 0.630075 . .
H4_4 H 0.80657 0.251722 0.864369 . .
H7_4 H 0.999781 0.24731 0.82535 . .
H17_4 H 0.871454 0.243489 0.784147 . .
H20_4 H 0.949664 0.264732 0.606359 . .
H21_4 H 0.957658 0.539701 0.510311 . .
H22_4 H 0.941541 0.544596 0.458407 . .
O11_4 O 0.770(3) 0.942(16) 0.600(2) 0.0773 Uiso
C14_4 C 0.97072 0.94791 0.75259 0.0773 Uiso
C15_4 C 0.85838 0.9621 0.89145 0.0773 Uiso
C18_4 C 0.93127 0.9529 0.80135 0.0773 Uiso
C19_4 C 0.94438 0.79227 0.83631 0.0773 Uiso
C20_4 C 0.90794 0.79688 0.88136 0.0773 Uiso
C21_4 C 0.93998 0.95851 0.71107 0.0773 Uiso
C24_4 C 0.88319 0.9781 0.63436 0.0773 Uiso
C25_4 C 0.8618 0.81163 0.67162 0.0773 Uiso
C26_4 C 0.8902 0.80183 0.70998 0.0773 Uiso
H14_4 H 0.822938 0.689332 0.670767 . .
H15_4 H 0.873507 0.671872 0.73907 . .
H18_4 H 0.983066 0.663259 0.828432 . .
H19_4 H 0.918183 0.671496 0.908652 . .
loop_
_geom_bond_atom_site_label_1
_geom_bond_atom_site_label_2
_geom_bond_site_symmetry_1
_geom_bond_site_symmetry_2
P1 O2 1_555 1_555
O3 P1 1_555 1_555
O4 P1 1_555 1_555
O5 P2 1_555 1_555
O6 Fe3 1_555 1_555
O7 P2 1_555 1_555
P2 O6 1_555 1_555
C1 C5 1_555 1_555
C2 P1 1_555 1_555
C3 C2 1_555 1_555
C4 C3 1_555 1_555
C5 C4 1_555 1_555
C6 C5 1_555 1_555
C7 C2 1_555 1_555
C8 C1 1_555 1_555
C9 C8 1_555 1_555
C10 C9 1_555 1_555
C11 P2 1_555 1_555
C12 C11 1_555 1_555
C13 C8 1_555 1_555
P3 O8 1_555 1_555
O9 P3 1_555 1_555
O10 P3 1_555 1_555
O11 P4 1_555 1_555
O12 P4 1_555 1_555
O13 P4 1_555 1_555
P4 C24 1_555 1_555
C14 C1 1_555 1_555
C15 P3 1_555 1_555
C16 C15 1_555 1_555
C17 C16 1_555 1_555
C18 C14 1_555 1_555
C19 C18 1_555 1_555
C20 C15 1_555 1_555
C21 C14 1_555 1_555
C22 C21 1_555 1_555
C23 C22 1_555 1_555
C24 C23 1_555 1_555
C25 C24 1_555 1_555
C26 C21 1_555 1_555
Fe4 O12 1_555 1_555
O14 Fe4 1_555 1_555
Fe6 O4 1_555 1_555
Fe9 O9 1_555 1_555
Fe10 O3 1_555 1_555
O20 Fe4 1_555 1_555
C6 C7 1_555 1_555
C10 C11 1_555 1_555
C12 C13 1_555 1_555
C17 C18 1_555 1_555
C19 C20 1_555 1_555
C25 C26 1_555 1_555
O11 H3 1_555 1_555
C16 H4 1_555 1_555
C12 H5 1_555 1_555
C6 H6 1_555 1_555
C9 H7 1_555 1_555
C3 H8 1_555 1_555
C13 H9 1_555 1_555
O5 H10 1_555 1_555
C10 H11 1_555 1_555
C4 H12 1_555 1_555
C7 H13 1_555 1_555
C25 H14 1_555 1_555
C26 H15 1_555 1_555
C22 H16 1_555 1_555
C17 H17 1_555 1_555
C19 H18 1_555 1_555
C20 H19 1_555 1_555
C23 H20 1_555 1_555
C18_2 C14_2 1_555 1_555
C19_2 C18_2 1_555 1_555
C20_2 C15_2 1_555 1_555
C21_2 C14_2 1_555 1_555
C25_2 C24_2 1_555 1_555
C26_2 C21_2 1_555 1_555
Fe10 O13_2 1_555 1_555
C19_2 C20_2 1_555 1_555
C25_2 C26_2 1_555 1_555
C25_2 H14_2 1_555 1_555
C26_2 H15_2 1_555 1_555
C19_2 H18_2 1_555 1_555
C20_2 H19_2 1_555 1_555
P3_2 O8_2 1_555 1_555
O18 P3_2 1_555 1_555
O12_2 P4_2 1_555 1_555
C17_2 C16_2 1_555 1_555
C23_2 C22_2 1_555 1_555
Fe10 O12_2 1_555 1_555
O14_2 Fe10 1_555 1_555
O16_2 Fe10 1_555 1_555
O20_2 Fe10 1_555 1_555
C16_2 H4_2 1_555 1_555
C17_2 H17_2 1_555 1_555
C23_2 H20_2 1_555 1_555
O14_2 H21_2 1_555 1_555
O14_2 H22_2 1_555 1_555
C1_2 C5_2 1_555 1_555
C6_2 C5_2 1_555 1_555
C7_2 C2_2 1_555 1_555
C8_2 C1_2 1_555 1_555
C12_2 C11_2 1_555 1_555
C13_2 C8_2 1_555 1_555
Fe9 O7_2 1_555 1_555
Fe6_2 O4_2 1_555 1_555
C6_2 C7_2 1_555 1_555
C12_2 C13_2 1_555 1_555
C12_2 H5_2 1_555 1_555
C6_2 H6_2 1_555 1_555
C13_2 H9_2 1_555 1_555
C7_2 H13_2 1_555 1_555
P1_2 O2_2 1_555 1_555
O2_2 Fe6_2 1_555 1_555
O17 P1_2 1_555 1_555
O6_2 Fe9 1_555 1_555
P2_2 O6_2 1_555 1_555
C4_2 C3_2 1_555 1_555
C10_2 C9_2 1_555 1_555
C3_2 H8_2 1_555 1_555
C10_2 H11_2 1_555 1_555
C4_2 H12_2 1_555 1_555
O1_2 H2_2 1_555 1_555
P1_3 O16 1_555 1_555
O3_2 P1_3 1_555 1_555
O20 P1_3 1_555 1_555
O5_3 P2_3 1_555 1_555
O6_3 Fe8 1_555 1_555
O21 P2_3 1_555 1_555
P2_3 O6_3 1_555 1_555
C1_3 C5_3 1_555 1_555
C2_3 P1_3 1_555 1_555
C3_3 C2_3 1_555 1_555
C4_3 C3_3 1_555 1_555
C5_3 C4_3 1_555 1_555
C6_3 C5_3 1_555 1_555
C7_3 C2_3 1_555 1_555
C8_3 C1_3 1_555 1_555
C9_3 C8_3 1_555 1_555
C10_3 C9_3 1_555 1_555
C11_3 P2_3 1_555 1_555
C12_3 C11_3 1_555 1_555
C13_3 C8_3 1_555 1_555
P3_3 O15 1_555 1_555
O9_2 P3_3 1_555 1_555
O19 P3_3 1_555 1_555
O11_3 P4_3 1_555 1_555
O12_3 P4_3 1_555 1_555
O22 P4_3 1_555 1_555
P4_3 C24_3 1_555 1_555
C14_3 C1_3 1_555 1_555
C15_3 P3_3 1_555 1_555
C16_3 C15_3 1_555 1_555
C17_3 C16_3 1_555 1_555
C18_3 C14_3 1_555 1_555
C19_3 C18_3 1_555 1_555
C20_3 C15_3 1_555 1_555
C21_3 C14_3 1_555 1_555
C22_3 C21_3 1_555 1_555
C23_3 C22_3 1_555 1_555
C24_3 C23_3 1_555 1_555
C25_3 C24_3 1_555 1_555
C26_3 C21_3 1_555 1_555
Fe6 O12_3 1_555 1_555
O14_3 Fe6 1_555 1_555
Fe8_2 O9_2 1_555 1_555
Fe6_2 O3_2 1_555 1_555
C6_3 C7_3 1_555 1_555
C10_3 C11_3 1_555 1_555
C12_3 C13_3 1_555 1_555
C17_3 C18_3 1_555 1_555
C19_3 C20_3 1_555 1_555
C25_3 C26_3 1_555 1_555
O11_3 H3_3 1_555 1_555
C16_3 H4_3 1_555 1_555
C12_3 H5_3 1_555 1_555
C6_3 H6_3 1_555 1_555
C9_3 H7_3 1_555 1_555
C3_3 H8_3 1_555 1_555
C13_3 H9_3 1_555 1_555
O5_3 H10_3 1_555 1_555
C10_3 H11_3 1_555 1_555
C4_3 H12_3 1_555 1_555
C7_3 H13_3 1_555 1_555
C25_3 H14_3 1_555 1_555
C26_3 H15_3 1_555 1_555
C22_3 H16_3 1_555 1_555
C17_3 H17_3 1_555 1_555
C19_3 H18_3 1_555 1_555
C20_3 H19_3 1_555 1_555
C23_3 H20_3 1_555 1_555
O1_4 H2_4 1_555 1_555
P1_4 O16_2 1_555 1_555
O17_2 P1_4 1_555 1_555
O6_4 Fe8_2 1_555 1_555
P2_4 O6_4 1_555 1_555
C4_4 C3_4 1_555 1_555
C10_4 C9_4 1_555 1_555
O21_2 Fe8_2 1_555 1_555
C3_4 H8_4 1_555 1_555
C10_4 H11_4 1_555 1_555
C4_4 H12_4 1_555 1_555
C1_4 C5_4 1_555 1_555
C6_4 C5_4 1_555 1_555
C7_4 C2_4 1_555 1_555
C8_4 C1_4 1_555 1_555
C12_4 C11_4 1_555 1_555
C13_4 C8_4 1_555 1_555
C6_4 C7_4 1_555 1_555
C12_4 C13_4 1_555 1_555
C12_4 H5_4 1_555 1_555
C6_4 H6_4 1_555 1_555
C13_4 H9_4 1_555 1_555
C7_4 H13_4 1_555 1_555
P3_4 O15_2 1_555 1_555
O18_2 P3_4 1_555 1_555
O12_4 P4_4 1_555 1_555
C17_4 C16_4 1_555 1_555
C23_4 C22_4 1_555 1_555
Fe6_2 O12_4 1_555 1_555
O14_4 Fe6_2 1_555 1_555
O22_2 Fe6_2 1_555 1_555
C16_4 H4_4 1_555 1_555
C17_4 H17_4 1_555 1_555
C23_4 H20_4 1_555 1_555
O14_4 H21_4 1_555 1_555
O14_4 H22_4 1_555 1_555
C18_4 C14_4 1_555 1_555
C19_4 C18_4 1_555 1_555
C20_4 C15_4 1_555 1_555
C21_4 C14_4 1_555 1_555
C25_4 C24_4 1_555 1_555
C26_4 C21_4 1_555 1_555
C19_4 C20_4 1_555 1_555
C25_4 C26_4 1_555 1_555
C25_4 H14_4 1_555 1_555
C26_4 H15_4 1_555 1_555
C19_4 H18_4 1_555 1_555
C20_4 H19_4 1_555 1_555

#END
