
###############################################################################
#
# This file contains modified crystal structure data generated from the
# MOF subset of the Cambridge Structural Database (CSD) v543 
# hosted by the Cambridge Crystallographic Data Centre (CCDC).
#
# This work is licensed under the Creative Commons
# Attribution-NonCommercial-ShareAlike 4.0 International License.
# To view a copy of this license, visit
# http://creativecommons.org/licenses/by-nc-sa/4.0/
# or send a letter to
# Creative Commons, PO Box 1866, Mountain View, CA 94042, USA.
#
# CIF created using the CSD Python API on 29 September 2022
# The structure has been converted into the P1 space group
# The structure has a 3D framework
# The original CSD entry VAHJIA is in the triclinic crystal system
# The framework has been calculated to contain at least 10.0% void space
# The void calculation uses a probe of radius 1.32A, grid spacing 0.4
#
###############################################################################

data_VAHJIA
_chemical_formula_moiety         '(C44 H34 Co5 N10 O8)n'
_symmetry_cell_setting           triclinic
_symmetry_space_group_name_H-M   'P 1'
_symmetry_Int_Tables_number      1
_space_group_name_Hall           'P 1'
loop_
_symmetry_equiv_pos_site_id
_symmetry_equiv_pos_as_xyz
1 x,y,z
_cell_length_a                   11.5432(16)
_cell_length_b                   11.6723(17)
_cell_length_c                   11.8414(17)
_cell_angle_alpha                65.440(2)
_cell_angle_beta                 78.968(3)
_cell_angle_gamma                72.175(3)
_cell_volume                     1377.66
loop_
_atom_site_label
_atom_site_type_symbol
_atom_site_fract_x
_atom_site_fract_y
_atom_site_fract_z
N5 N 0.3245(5) 0.6226(5) 0.0308(5)
C18 C 0.0814(7) 0.7663(7) 0.0438(6)
C19 C 0.1275(7) 0.6478(8) 0.1378(7)
H14 H 0.0771 0.6141 0.2078
C20 C 0.2459(7) 0.5808(7) 0.1281(6)
H15 H 0.2737 0.5017 0.1925
N6 N 0.3088(5) 0.4958(6) 0.5027(5)
C23 C 0.2189(9) 0.5982(12) 0.4979(13)
H18 H 0.2375 0.6706 0.4972
C24 C 0.0967(9) 0.6050(12) 0.4938(14)
H19 H 0.0371 0.6819 0.4864
C25 C 0.0649(7) 0.4983(8) 0.5008(7)
C26 C 0.1595(8) 0.3949(8) 0.5038(9)
H20 H 0.1448 0.3208 0.5039
C27 C 0.2773(8) 0.3971(8) 0.5067(9)
H21 H 0.3387 0.3221 0.5119
C38 C 0.1004(8) 0.0687(8) 0.0639(8)
H29 H 0.0508 0.0404 0.1363
C39 C 0.2253(8) 0.0141(8) 0.0626(8)
Co5 Co 0.5000 0.5000 0.5000
Co6 Co 0.5000 0.5000 0.0000
Co8 Co 0.5000 0.0000 0.0000
C21 C 0.2814(7) 0.7393(7) 0.9429(7)
H16 H 0.3346 0.7730 0.8758
C22 C 0.1630(7) 0.8123(7) 0.9463(7)
H17 H 0.1382 0.8929 0.8826
N9 N 0.3040(5) 0.0503(6) 0.9667(5)
C35 C 0.2549(8) 0.1373(10) 0.8631(8)
H27 H 0.3066 0.1611 0.7914
C36 C 0.1315(8) 0.1952(10) 0.8543(8)
H28 H 0.1030 0.2554 0.7778
C37 C 0.0502(6) 0.1654(7) 0.9567(7)
Co6_2 Co 0.5000 0.5000 1.0000
Co8_2 Co 0.5000 0.0000 1.0000
H30 H 0.2558 0.9467 0.1350
Co8_3 Co 0.5000 1.0000 0.0000
Co8_4 Co 0.5000 1.0000 1.0000
O10 O 0.4509(4) 0.1386(4) 0.0842(4)
H13 H 0.7442 0.0533 0.8650
N12 N 0.5165(5) 0.1697(5) 0.8472(5)
O1 O 0.5465(4) 0.4014(4) 0.3784(4)
O2 O 0.5397(5) 0.4275(4) 0.1839(4)
N1 N 0.4809(5) 0.6571(5) 0.3288(4)
N2 N 0.4835(5) 0.8303(5) 0.1528(5)
N3 N 0.6912(5) 0.5042(6) 0.4973(5)
N4 N 0.6960(5) 0.9497(6) 0.0333(5)
C1 C 0.5347(6) 0.4738(6) 0.2625(6)
C2 C 0.5119(6) 0.6158(6) 0.2317(5)
C3 C 0.5140(6) 0.7244(6) 0.1219(5)
C5 C 0.4642(6) 0.7865(6) 0.2774(5)
C6 C 0.4296(8) 0.8714(7) 0.3520(7)
H1 H 0.4700 0.9417 0.3123
H2 H 0.4586 0.8203 0.4345
C7 C 0.2927(10) 0.9291(18) 0.3641(18)
H3 H 0.2759 0.9833 0.4109
H4 H 0.2524 0.8600 0.4063
H5 H 0.2635 0.9802 0.2827
C8 C 0.7811(9) 0.4018(12) 0.5021(13)
H6 H 0.7625 0.3294 0.5028
C9 C 0.9033(9) 0.3950(12) 0.5062(14)
H7 H 0.9629 0.3181 0.5136
C10 C 0.9351(7) 0.5017(8) 0.4992(7)
C11 C 0.8405(8) 0.6051(8) 0.4962(9)
H8 H 0.8552 0.6792 0.4961
C12 C 0.7227(8) 0.6029(8) 0.4933(9)
H9 H 0.6613 0.6779 0.4881
C13 C 0.7451(8) 0.8627(10) 0.1369(8)
H10 H 0.6934 0.8389 0.2086
C14 C 0.8685(8) 0.8048(10) 0.1457(8)
H11 H 0.8970 0.7446 0.2222
C15 C 0.9498(6) 0.8346(7) 0.0433(7)
O7 O 0.4212(4) 0.3472(4) 0.0479(4)
C31 C 0.4511(6) 0.2546(6) 0.0109(6)
C43 C 0.7186(7) 0.2607(7) 0.0571(7)
H33 H 0.6654 0.2270 0.1242
C44 C 0.8370(7) 0.1877(7) 0.0537(7)
H34 H 0.8618 0.1071 0.1174
O9 O 0.4535(4) 0.5986(4) 0.6216(4)
N11 N 0.5191(5) 0.3429(5) 0.6712(4)
O3 O 0.5788(4) 0.6528(4) 0.9521(4)
O4 O 0.5491(4) 0.8614(4) 0.9158(4)
C4 C 0.5489(6) 0.7454(6) 0.9891(6)
C16 C 0.8996(8) 0.9313(8) 0.9361(8)
H12 H 0.9492 0.9596 0.8637
C17 C 0.7747(8) 0.9859(8) 0.9374(8)
O6 O 0.4603(5) 0.5725(4) 0.8161(4)
C28 C 0.4653(6) 0.5262(6) 0.7375(6)
C29 C 0.4881(6) 0.3842(6) 0.7683(5)
C30 C 0.4860(6) 0.2756(6) 0.8781(5)
C32 C 0.5358(6) 0.2135(6) 0.7226(5)
C33 C 0.5704(8) 0.1286(7) 0.6480(7)
H22 H 0.5300 0.0583 0.6877
H23 H 0.5414 0.1797 0.5655
C34 C 0.7073(10) 0.0709(18) 0.6359(18)
H24 H 0.7241 0.0167 0.5891
H25 H 0.7476 0.1400 0.5937
H26 H 0.7365 0.0198 0.7173
N10 N 0.6755(5) 0.3774(5) 0.9692(5)
C40 C 0.9186(7) 0.2337(7) 0.9562(6)
C41 C 0.8725(7) 0.3522(8) 0.8622(7)
H31 H 0.9229 0.3859 0.7922
C42 C 0.7541(7) 0.4192(7) 0.8719(6)
H32 H 0.7263 0.4983 0.8075
loop_
_geom_bond_atom_site_label_1
_geom_bond_atom_site_label_2
_geom_bond_site_symmetry_1
_geom_bond_site_symmetry_2
N5 C20 1_555 1_555
C19 C18 1_555 1_555
H14 C19 1_555 1_555
C20 C19 1_555 1_555
H15 C20 1_555 1_555
N6 C23 1_555 1_555
C23 H18 1_555 1_555
C24 C23 1_555 1_555
H19 C24 1_555 1_555
C26 C25 1_555 1_555
H20 C26 1_555 1_555
C27 N6 1_555 1_555
H21 C27 1_555 1_555
H29 C38 1_555 1_555
Co5 N6 1_555 1_555
Co6 N5 1_555 1_555
C24 C25 1_555 1_555
C26 C27 1_555 1_555
C38 C39 1_555 1_555
H16 C21 1_555 1_555
H17 C22 1_555 1_555
N9 C35 1_555 1_555
C35 H27 1_555 1_555
C36 C35 1_555 1_555
H28 C36 1_555 1_555
C37 C36 1_555 1_555
Co8_2 N9 1_555 1_555
C21 C22 1_555 1_555
O10 Co8 1_555 1_555
N12 Co8_2 1_555 1_555
Co5 O1 1_555 1_555
Co6 O2 1_555 1_555
O1 C1 1_555 1_555
O2 C1 1_555 1_555
N1 Co5 1_555 1_555
N2 Co8_3 1_555 1_555
N3 Co5 1_555 1_555
N4 Co8_3 1_555 1_555
C1 C2 1_555 1_555
C2 N1 1_555 1_555
C3 N2 1_555 1_555
C5 N1 1_555 1_555
C6 C5 1_555 1_555
H1 C6 1_555 1_555
H2 C6 1_555 1_555
C7 C6 1_555 1_555
H3 C7 1_555 1_555
H4 C7 1_555 1_555
H5 C7 1_555 1_555
C8 N3 1_555 1_555
H6 C8 1_555 1_555
C9 C8 1_555 1_555
H7 C9 1_555 1_555
C10 C9 1_555 1_555
C11 C10 1_555 1_555
H8 C11 1_555 1_555
C12 N3 1_555 1_555
H9 C12 1_555 1_555
C13 N4 1_555 1_555
H10 C13 1_555 1_555
C14 C13 1_555 1_555
H11 C14 1_555 1_555
C15 C14 1_555 1_555
O7 Co6 1_555 1_555
O10 C31 1_555 1_555
C31 O7 1_555 1_555
H33 C43 1_555 1_555
H34 C44 1_555 1_555
O9 Co5 1_555 1_555
N11 Co5 1_555 1_555
N2 C5 1_555 1_555
C2 C3 1_555 1_555
C11 C12 1_555 1_555
C43 C44 1_555 1_555
Co8_4 O4 1_555 1_555
O3 Co6_2 1_555 1_555
O4 C4 1_555 1_555
C4 O3 1_555 1_555
H12 C16 1_555 1_555
O9 C28 1_555 1_555
O6 Co6_2 1_555 1_555
N11 C29 1_555 1_555
N12 C30 1_555 1_555
C28 O6 1_555 1_555
C29 C28 1_555 1_555
C30 C29 1_555 1_555
C32 N11 1_555 1_555
C33 C32 1_555 1_555
H22 C33 1_555 1_555
H23 C33 1_555 1_555
C34 C33 1_555 1_555
H24 C34 1_555 1_555
H25 C34 1_555 1_555
H26 C34 1_555 1_555
N10 Co6_2 1_555 1_555
C41 C40 1_555 1_555
H31 C41 1_555 1_555
C42 N10 1_555 1_555
H32 C42 1_555 1_555
C16 C17 1_555 1_555
N12 C32 1_555 1_555
C41 C42 1_555 1_555

#END
