
###############################################################################
#
# This file contains modified crystal structure data generated from the
# MOF subset of the Cambridge Structural Database (CSD) v543 
# hosted by the Cambridge Crystallographic Data Centre (CCDC).
#
# This work is licensed under the Creative Commons
# Attribution-NonCommercial-ShareAlike 4.0 International License.
# To view a copy of this license, visit
# http://creativecommons.org/licenses/by-nc-sa/4.0/
# or send a letter to
# Creative Commons, PO Box 1866, Mountain View, CA 94042, USA.
#
# CIF created using the CSD Python API on 29 September 2022
# The structure has been converted into the P1 space group
# The structure has a 3D framework
# The original CSD entry VAHJEW is in the triclinic crystal system
# The framework has been calculated to contain at least 10.0% void space
# The void calculation uses a probe of radius 1.32A, grid spacing 0.4
#
###############################################################################

data_VAHJEW
_chemical_formula_moiety         '(C48 H36 Co6 N10 O8)n'
_symmetry_cell_setting           triclinic
_symmetry_space_group_name_H-M   'P 1'
_symmetry_Int_Tables_number      1
_space_group_name_Hall           'P 1'
loop_
_symmetry_equiv_pos_site_id
_symmetry_equiv_pos_as_xyz
1 x,y,z
_cell_length_a                   11.583(13)
_cell_length_b                   11.740(15)
_cell_length_c                   13.638(16)
_cell_angle_alpha                76.28(2)
_cell_angle_beta                 75.52(2)
_cell_angle_gamma                65.567(19)
_cell_volume                     1615.91
loop_
_atom_site_label
_atom_site_type_symbol
_atom_site_fract_x
_atom_site_fract_y
_atom_site_fract_z
H4 H 0.0255 0.2885 0.6886
Co6 Co -0.0000 0.5000 0.5000
Co1 Co -0.0000 -0.0000 0.5000
C23 C 0.0801(7) 0.0039(7) 0.1686(5)
C24 C 0.0817(6) 0.0080(7) 0.2674(4)
H18 H 0.1561 0.0068 0.2826
O10 O 0.0942(3) 0.1251(2) 0.4617(3)
O1 O 0.3688(3) 0.4089(3) 0.5374(3)
C1 C 0.2512(5) 0.4832(4) 0.5386(4)
Co1_2 Co -0.0000 1.0000 0.5000
Co3 Co 0.5000 0.5000 0.5000
O4 O 0.1609(3) 0.4452(3) 0.5622(3)
N1 N 0.3321(3) 0.6528(3) 0.4868(3)
N2 N 0.1547(3) 0.8298(3) 0.4862(3)
C3 C 0.2266(4) 0.6210(4) 0.5108(4)
C4 C 0.1162(4) 0.7304(4) 0.5106(3)
N4 N 0.5310(4) 0.4864(4) 0.3344(3)
C5 C 0.4891(6) 0.5874(5) 0.2693(4)
H1 H 0.4327 0.6613 0.2951
C6 C 0.6010(5) 0.4881(5) 0.1250(5)
C7 C 0.5215(6) 0.5937(6) 0.1655(4)
H2 H 0.4890 0.6701 0.1231
C8 C 0.6456(5) 0.4987(5) 0.0134(4)
C9 C 0.2829(4) 0.7815(4) 0.4703(4)
C13 C 0.6045(7) 0.3839(5) 0.2941(5)
H7 H 0.6316 0.3077 0.3379
H9 H 0.7709 0.3293 0.0034
C17 C 0.3656(5) 0.8555(4) 0.4374(4)
H10 H 0.4288 0.8254 0.4812
H11 H 0.3139 0.9432 0.4415
H12 H 0.4081 0.8462 0.3680
C18 C 0.6431(7) 0.3827(6) 0.1927(5)
H13 H 0.6999 0.3075 0.1689
H17 H 0.1533 0.9945 0.1186
O6 O 0.0709(3) 0.3181(3) 0.4693(3)
C32 C 0.0227(4) 0.2401(4) 0.4698(3)
N9 N 0.1008(4) 0.5469(4) 0.3513(3)
H29 H 0.3939 0.4244 0.0261
C41 C 0.0507(6) 0.6489(5) 0.2866(5)
C42 C 0.1032(6) 0.6700(5) 0.1843(4)
H31 H 0.0651 0.7459 0.1431
C43 C 0.2114(5) 0.4589(6) 0.3120(5)
H32 H 0.2499 0.3859 0.3559
C45 C 0.2703(6) 0.4697(6) 0.2122(4)
H34 H 0.3477 0.4070 0.1894
C46 C 0.2116(6) 0.5776(5) 0.1448(4)
C47 C 0.2634(6) 0.5916(6) 0.0351(5)
O9 O 0.6312(3) 0.5911(3) 0.4626(3)
N11 N 0.6679(3) 0.3472(3) 0.5132(3)
N14 N 0.4690(4) 0.5136(4) 0.6656(3)
N15 N 0.0181(4) 0.9863(4) 0.6567(3)
N3 N 0.8992(4) 0.4531(4) 0.6487(3)
H3 H 0.6061 0.5756 0.9739
C10 C 0.9493(6) 0.3511(5) 0.7134(5)
C11 C 0.8968(6) 0.3300(5) 0.8157(4)
H5 H 0.9349 0.2541 0.8569
C12 C 0.7886(5) 0.5411(6) 0.6880(5)
H6 H 0.7501 0.6141 0.6441
C14 C 0.7297(6) 0.5303(6) 0.7878(4)
H8 H 0.6523 0.5930 0.8106
C15 C 0.7884(6) 0.4224(5) 0.8552(4)
C16 C 0.7366(6) 0.4084(6) 0.9649(5)
C25 C 0.0462(6) 0.9893(6) 0.9610(5)
H19 H 0.1270 0.9745 0.9732
C26 C 0.1297(6) 0.9765(5) 0.6839(4)
H20 H 0.2014 0.9706 0.6329
C27 C 0.1393(6) 0.9751(6) 0.7801(4)
H21 H 0.2173 0.9668 0.7938
C28 C 0.0401(6) 0.9854(5) 0.8563(4)
C37 C 0.5109(6) 0.4126(5) 0.7307(4)
H27 H 0.5673 0.3387 0.7049
C38 C 0.3990(5) 0.5119(5) 0.8750(5)
C39 C 0.4785(6) 0.4063(6) 0.8345(4)
H28 H 0.5110 0.3299 0.8769
C40 C 0.3544(5) 0.5013(5) 0.9866(4)
C44 C 0.3955(7) 0.6161(5) 0.7059(5)
H33 H 0.3684 0.6923 0.6621
H35 H 0.2291 0.6707 0.9966
C48 C 0.3569(7) 0.6173(6) 0.8073(5)
H36 H 0.3001 0.6925 0.8311
Co6_2 Co 1.0000 0.5000 0.5000
Co1_3 Co 1.0000 -0.0000 0.5000
N5 N 0.9819(4) 0.0137(4) 0.3433(3)
C19 C 0.9538(6) 0.0107(6) 0.0390(5)
H14 H 0.8730 0.0255 0.0268
C20 C 0.8703(6) 0.0235(5) 0.3161(4)
H15 H 0.7986 0.0294 0.3671
C21 C 0.8607(6) 0.0249(6) 0.2199(4)
H16 H 0.7827 0.0332 0.2062
C22 C 0.9599(6) 0.0146(5) 0.1437(4)
N12 N 0.8453(3) 0.1702(3) 0.5138(3)
H22 H 0.8467 0.0055 0.8814
O2 O 0.9291(3) 0.6819(3) 0.5307(3)
C2 C 0.9773(4) 0.7599(4) 0.5302(3)
Co1_4 Co 1.0000 1.0000 0.5000
O3 O 0.9058(3) 0.8749(2) 0.5383(3)
C31 C 0.7488(5) 0.5168(4) 0.4614(4)
O8 O 0.8391(3) 0.5548(3) 0.4378(3)
C33 C 0.7734(4) 0.3790(4) 0.4892(4)
C34 C 0.8838(4) 0.2696(4) 0.4894(3)
C35 C 0.7171(4) 0.2185(4) 0.5297(4)
C36 C 0.6344(5) 0.1445(4) 0.5626(4)
H24 H 0.5712 0.1746 0.5188
H25 H 0.6861 0.0568 0.5585
H26 H 0.5919 0.1538 0.6320
H30 H 0.9745 0.7115 0.3114
C29 C 0.9199(7) 0.9961(7) 0.8314(5)
C30 C 0.9183(6) 0.9920(7) 0.7326(4)
H23 H 0.8439 0.9932 0.7174
loop_
_geom_bond_atom_site_label_1
_geom_bond_atom_site_label_2
_geom_bond_site_symmetry_1
_geom_bond_site_symmetry_2
H18 C24 1_555 1_555
O10 Co1 1_555 1_555
C23 C24 1_555 1_555
O1 C1 1_555 1_555
C1 O4 1_555 1_555
Co3 O1 1_555 1_555
O4 Co6 1_555 1_555
N1 Co3 1_555 1_555
N2 Co1_2 1_555 1_555
C3 C1 1_555 1_555
N4 Co3 1_555 1_555
C5 N4 1_555 1_555
H1 C5 1_555 1_555
C6 C7 1_555 1_555
C7 C5 1_555 1_555
H2 C7 1_555 1_555
C8 C6 1_555 1_555
C9 N1 1_555 1_555
C13 N4 1_555 1_555
H7 C13 1_555 1_555
C17 C9 1_555 1_555
H10 C17 1_555 1_555
H11 C17 1_555 1_555
H12 C17 1_555 1_555
C18 C6 1_555 1_555
H13 C18 1_555 1_555
O6 Co6 1_555 1_555
C32 O6 1_555 1_555
O10 C32 1_555 1_555
N9 Co6 1_555 1_555
C41 N9 1_555 1_555
C42 C41 1_555 1_555
H31 C42 1_555 1_555
C43 N9 1_555 1_555
H32 C43 1_555 1_555
C45 C43 1_555 1_555
H34 C45 1_555 1_555
C46 C42 1_555 1_555
O9 Co3 1_555 1_555
N11 Co3 1_555 1_555
N14 Co3 1_555 1_555
N15 Co1_2 1_555 1_555
N1 C3 1_555 1_555
N2 C4 1_555 1_555
N2 C9 1_555 1_555
C3 C4 1_555 1_555
C13 C18 1_555 1_555
C45 C46 1_555 1_555
C46 C47 1_555 1_555
N3 C10 1_555 1_555
C11 C10 1_555 1_555
H5 C11 1_555 1_555
C12 N3 1_555 1_555
H6 C12 1_555 1_555
C14 C12 1_555 1_555
H8 C14 1_555 1_555
C15 C11 1_555 1_555
N15 C26 1_555 1_555
H19 C25 1_555 1_555
C26 H20 1_555 1_555
C27 C26 1_555 1_555
H21 C27 1_555 1_555
C28 C25 1_555 1_555
N14 C37 1_555 1_555
C37 H27 1_555 1_555
C38 C39 1_555 1_555
C39 C37 1_555 1_555
H28 C39 1_555 1_555
C40 C38 1_555 1_555
C44 N14 1_555 1_555
H33 C44 1_555 1_555
C48 C38 1_555 1_555
H36 C48 1_555 1_555
Co6_2 N3 1_555 1_555
C14 C15 1_555 1_555
C15 C16 1_555 1_555
C27 C28 1_555 1_555
C44 C48 1_555 1_555
N5 Co1_3 1_555 1_555
C19 H14 1_555 1_555
C20 N5 1_555 1_555
H15 C20 1_555 1_555
C21 C20 1_555 1_555
H16 C21 1_555 1_555
C22 C19 1_555 1_555
N12 Co1_3 1_555 1_555
C21 C22 1_555 1_555
O2 C2 1_555 1_555
C2 O3 1_555 1_555
Co1_4 O3 1_555 1_555
Co6_2 O2 1_555 1_555
O9 C31 1_555 1_555
C31 O8 1_555 1_555
O8 Co6_2 1_555 1_555
N11 C33 1_555 1_555
N12 C34 1_555 1_555
C33 C31 1_555 1_555
C35 N11 1_555 1_555
C36 C35 1_555 1_555
H24 C36 1_555 1_555
H25 C36 1_555 1_555
H26 C36 1_555 1_555
N12 C35 1_555 1_555
C33 C34 1_555 1_555
H23 C30 1_555 1_555
C29 C30 1_555 1_555

#END
