
###############################################################################
#
# This file contains modified crystal structure data generated from the
# MOF subset of the Cambridge Structural Database (CSD) v543 
# hosted by the Cambridge Crystallographic Data Centre (CCDC).
#
# This work is licensed under the Creative Commons
# Attribution-NonCommercial-ShareAlike 4.0 International License.
# To view a copy of this license, visit
# http://creativecommons.org/licenses/by-nc-sa/4.0/
# or send a letter to
# Creative Commons, PO Box 1866, Mountain View, CA 94042, USA.
#
# CIF created using the CSD Python API on 29 September 2022
# The structure has been converted into the P1 space group
# The structure has a 3D framework
# The original CSD entry VAHVOR is in the monoclinic crystal system
# The framework has been calculated to contain at least 10.0% void space
# The void calculation uses a probe of radius 1.32A, grid spacing 0.4
#
###############################################################################

data_VAHVOR
_chemical_formula_moiety         '(C120 H88 Dy8 N16 O60)n'
_symmetry_cell_setting           triclinic
_symmetry_space_group_name_H-M   'P 1'
_symmetry_Int_Tables_number      1
_space_group_name_Hall           'P 1'
loop_
_symmetry_equiv_pos_site_id
_symmetry_equiv_pos_as_xyz
1 x,y,z
_cell_length_a                   28.549(2)
_cell_length_b                   14.4101(11)
_cell_length_c                   13.4766(10)
_cell_angle_alpha                90
_cell_angle_beta                 97.5840(10)
_cell_angle_gamma                90
_cell_volume                     5495.69
loop_
_atom_site_label
_atom_site_type_symbol
_atom_site_fract_x
_atom_site_fract_y
_atom_site_fract_z
Dy2 Dy 0.316720(9) 0.79343(2) 0.03673(2)
O9 O 0.1994(2) 0.7690(4) 0.1250(4)
O10 O 0.21012(17) 0.5772(3) 0.0664(4)
O12 O 0.27232(19) 0.6622(3) 0.0533(4)
O14 O 0.1106(2) 0.6752(4) 0.0320(5)
Dy1 Dy 0.183280(9) 0.70657(2) 0.96327(2)
O1 O 0.3006(2) 0.7310(4) 0.8750(4)
O2 O 0.23349(19) 0.6509(4) 0.8511(4)
O3 O 0.21012(17) 0.4228(3) 0.5664(4)
O4 O 0.27232(19) 0.3378(3) 0.5533(4)
O5 O 0.6189(2) 0.6828(5) 0.4833(6)
O6 O 0.6106(2) 0.8248(4) 0.5320(5)
O7 O 0.1495(2) 0.7618(5) 0.8038(5)
H1 H 0.1343 0.7247 0.7623
H2 H 0.1527 0.8183 0.7879
O8 O 0.1454(2) 0.5736(5) 0.8798(5)
H3 H 0.1310 0.5789 0.8206
H4 H 0.1462 0.5215 0.9094
N1 N 0.4050(2) 0.5755(5) 0.6415(6)
N2 N 0.4204(3) 0.6543(5) 0.6549(6)
C1 C 0.2943(2) 0.6078(5) 0.7593(5)
C2 C 0.2668(2) 0.5402(5) 0.7066(5)
H5 H 0.2354 0.5335 0.7166
C3 C 0.2853(2) 0.4822(5) 0.6391(6)
C4 C 0.3315(3) 0.4944(5) 0.6212(6)
H6 H 0.3440 0.4560 0.5757
C5 C 0.3587(3) 0.5614(5) 0.6691(6)
C6 C 0.3398(3) 0.6202(5) 0.7381(6)
H7 H 0.3582 0.6677 0.7694
C7 C 0.2531(3) 0.4095(5) 0.5840(6)
C8 C 0.2751(3) 0.6681(6) 0.8347(6)
C9 C 0.4654(3) 0.6694(7) 0.6243(7)
C10 C 0.4941(3) 0.6010(6) 0.5926(8)
H8 H 0.4847 0.5391 0.5917
C11 C 0.5371(3) 0.6259(7) 0.5618(8)
H9 H 0.5568 0.5799 0.5421
C12 C 0.5509(3) 0.7162(6) 0.5602(8)
C13 C 0.5234(4) 0.7847(7) 0.5956(12)
H10 H 0.5329 0.8465 0.5968
C14 C 0.4812(4) 0.7584(7) 0.6295(13)
H11 H 0.4633 0.8034 0.6566
C15 C 0.5968(3) 0.7446(7) 0.5214(7)
Dy3 Dy 0.183280(9) 0.29343(2) 0.46327(2)
Dy4 Dy 0.316720(9) 0.20657(2) 0.53673(2)
Dy5 Dy 0.683280(9) 0.79343(2) 0.46327(2)
O11 O 0.22768(19) 0.8378(3) 0.9467(4)
O13 O 0.1189(2) 0.8172(5) 0.9833(6)
O5_2 O 0.3811(2) 0.6828(5) 0.0167(6)
Dy3_2 Dy 0.816720(9) 0.29343(2) 0.03673(2)
Dy1_2 Dy 0.816720(9) 0.70657(2) 0.53673(2)
O1_2 O 0.6994(2) 0.7310(4) 0.6250(4)
O2_2 O 0.76651(19) 0.6509(4) 0.6489(4)
O3_2 O 0.78988(17) 0.4228(3) 0.9336(4)
O4_2 O 0.72768(19) 0.3378(3) 0.9467(4)
O6_2 O 0.3894(2) 0.8248(4) 0.9680(5)
O7_2 O 0.8505(2) 0.7618(5) 0.6962(5)
H1_2 H 0.8657 0.7247 0.7377
H2_2 H 0.8473 0.8183 0.7121
O8_2 O 0.8546(2) 0.5736(5) 0.6202(5)
H3_2 H 0.8690 0.5789 0.6794
H4_2 H 0.8538 0.5215 0.5906
N1_2 N 0.5950(2) 0.5755(5) 0.8585(6)
N2_2 N 0.5796(3) 0.6543(5) 0.8451(6)
C1_2 C 0.7057(2) 0.6078(5) 0.7407(5)
C2_2 C 0.7332(2) 0.5402(5) 0.7934(5)
H5_2 H 0.7646 0.5335 0.7834
C3_2 C 0.7147(2) 0.4822(5) 0.8609(6)
C4_2 C 0.6685(3) 0.4944(5) 0.8788(6)
H6_2 H 0.6560 0.4560 0.9243
C5_2 C 0.6413(3) 0.5614(5) 0.8309(6)
C6_2 C 0.6602(3) 0.6202(5) 0.7619(6)
H7_2 H 0.6418 0.6677 0.7306
C7_2 C 0.7469(3) 0.4095(5) 0.9160(6)
C8_2 C 0.7249(3) 0.6681(6) 0.6653(6)
C9_2 C 0.5346(3) 0.6694(7) 0.8757(7)
C10_2 C 0.5059(3) 0.6010(6) 0.9074(8)
H8_2 H 0.5153 0.5391 0.9083
C11_2 C 0.4629(3) 0.6259(7) 0.9382(8)
H9_2 H 0.4432 0.5799 0.9579
C12_2 C 0.4491(3) 0.7162(6) 0.9398(8)
C13_2 C 0.4766(4) 0.7847(7) 0.9044(12)
H10_2 H 0.4671 0.8465 0.9032
C14_2 C 0.5188(4) 0.7584(7) 0.8705(13)
H11_2 H 0.5367 0.8034 0.8434
C15_2 C 0.4032(3) 0.7446(7) 0.9786(7)
Dy4_2 Dy 0.683280(9) 0.20657(2) 0.96327(2)
O9_2 O 0.8006(2) 0.7690(4) 0.3750(4)
O10_2 O 0.78988(17) 0.5772(3) 0.4336(4)
O11_2 O 0.77232(19) 0.8378(3) 0.5533(4)
O12_2 O 0.72768(19) 0.6622(3) 0.4467(4)
O13_2 O 0.8811(2) 0.8172(5) 0.5167(6)
O14_2 O 0.8894(2) 0.6752(4) 0.4680(5)
O5_3 O 0.1189(2) 0.1828(5) 0.4833(6)
O6_3 O 0.1106(2) 0.3248(4) 0.5320(5)
C11_3 C 0.0371(3) 0.1259(7) 0.5618(8)
H9_3 H 0.0568 0.0799 0.5421
C12_3 C 0.0509(3) 0.2162(6) 0.5602(8)
C13_3 C 0.0234(4) 0.2847(7) 0.5956(12)
H10_3 H 0.0329 0.3465 0.5968
C15_3 C 0.0968(3) 0.2446(7) 0.5214(7)
O9_3 O 0.6994(2) 0.2690(4) 0.1250(4)
O10_3 O 0.71012(17) 0.0772(3) 0.0664(4)
O12_3 O 0.77232(19) 0.1622(3) 0.0533(4)
O14_3 O 0.6106(2) 0.1752(4) 0.0320(5)
O1_3 O 0.8006(2) 0.2310(4) 0.8750(4)
O2_3 O 0.73349(19) 0.1509(4) 0.8511(4)
O7_3 O 0.6495(2) 0.2618(5) 0.8038(5)
H1_3 H 0.6343 0.2247 0.7623
H2_3 H 0.6527 0.3183 0.7879
O8_3 O 0.6454(2) 0.0736(5) 0.8798(5)
H3_3 H 0.6310 0.0789 0.8206
H4_3 H 0.6462 0.0215 0.9094
N1_3 N 0.9050(2) 0.0755(5) 0.6415(6)
N2_3 N 0.9204(3) 0.1543(5) 0.6549(6)
C1_3 C 0.7943(2) 0.1078(5) 0.7593(5)
C2_3 C 0.7668(2) 0.0402(5) 0.7066(5)
H5_3 H 0.7354 0.0335 0.7166
C5_3 C 0.8587(3) 0.0614(5) 0.6691(6)
C6_3 C 0.8398(3) 0.1202(5) 0.7381(6)
H7_3 H 0.8582 0.1677 0.7694
C8_3 C 0.7751(3) 0.1681(6) 0.8347(6)
C9_3 C 0.9654(3) 0.1694(7) 0.6243(7)
C10_3 C 0.9941(3) 0.1010(6) 0.5926(8)
H8_3 H 0.9847 0.0391 0.5917
C14_3 C 0.9812(4) 0.2584(7) 0.6295(13)
H11_3 H 0.9633 0.3034 0.6566
O13_3 O 0.6189(2) 0.3172(5) 0.9833(6)
O3_3 O 0.71012(17) 0.9228(3) 0.5664(4)
C3_3 C 0.7853(2) 0.9822(5) 0.6391(6)
C4_3 C 0.8315(3) 0.9944(5) 0.6212(6)
H6_3 H 0.8440 0.9560 0.5757
C7_3 C 0.7531(3) 0.9095(5) 0.5840(6)
O1_4 O 0.1994(2) 0.2310(4) 0.6250(4)
O2_4 O 0.26651(19) 0.1509(4) 0.6489(4)
O7_4 O 0.3505(2) 0.2618(5) 0.6962(5)
H1_4 H 0.3657 0.2247 0.7377
H2_4 H 0.3473 0.3183 0.7121
O8_4 O 0.3546(2) 0.0736(5) 0.6202(5)
H3_4 H 0.3690 0.0789 0.6794
H4_4 H 0.3538 0.0215 0.5906
N1_4 N 0.0950(2) 0.0755(5) 0.8585(6)
N2_4 N 0.0796(3) 0.1543(5) 0.8451(6)
C1_4 C 0.2057(2) 0.1078(5) 0.7407(5)
C2_4 C 0.2332(2) 0.0402(5) 0.7934(5)
H5_4 H 0.2646 0.0335 0.7834
C5_4 C 0.1413(3) 0.0614(5) 0.8309(6)
C6_4 C 0.1602(3) 0.1202(5) 0.7619(6)
H7_4 H 0.1418 0.1677 0.7306
C8_4 C 0.2249(3) 0.1681(6) 0.6653(6)
C9_4 C 0.0346(3) 0.1694(7) 0.8757(7)
C10_4 C 0.0059(3) 0.1010(6) 0.9074(8)
H8_4 H 0.0153 0.0391 0.9083
C14_4 C 0.0188(4) 0.2584(7) 0.8705(13)
H11_4 H 0.0367 0.3034 0.8434
O9_4 O 0.3006(2) 0.2690(4) 0.3750(4)
O10_4 O 0.28988(17) 0.0772(3) 0.4336(4)
O12_4 O 0.22768(19) 0.1622(3) 0.4467(4)
O13_4 O 0.3811(2) 0.3172(5) 0.5167(6)
O14_4 O 0.3894(2) 0.1752(4) 0.4680(5)
O3_4 O 0.28988(17) 0.9228(3) 0.9336(4)
C3_4 C 0.2147(2) 0.9822(5) 0.8609(6)
C4_4 C 0.1685(3) 0.9944(5) 0.8788(6)
H6_4 H 0.1560 0.9560 0.9243
C7_4 C 0.2469(3) 0.9095(5) 0.9160(6)
O5_4 O 0.8811(2) 0.1828(5) 0.0167(6)
O6_4 O 0.8894(2) 0.3248(4) 0.9680(5)
C11_4 C 0.9629(3) 0.1259(7) 0.9382(8)
H9_4 H 0.9432 0.0799 0.9579
C12_4 C 0.9491(3) 0.2162(6) 0.9398(8)
C13_4 C 0.9766(4) 0.2847(7) 0.9044(12)
H10_4 H 0.9671 0.3465 0.9032
C15_4 C 0.9032(3) 0.2446(7) 0.9786(7)
O2_5 O 0.76651(19) 0.3491(4) 0.1489(4)
O7_5 O 0.8505(2) 0.2382(5) 0.1962(5)
H1_5 H 0.8657 0.2753 0.2377
H2_5 H 0.8473 0.1817 0.2121
O8_5 O 0.8546(2) 0.4264(5) 0.1202(5)
H3_5 H 0.8690 0.4211 0.1794
H4_5 H 0.8538 0.4785 0.0906
N1_5 N 0.5950(2) 0.4245(5) 0.3585(6)
N2_5 N 0.5796(3) 0.3457(5) 0.3451(6)
C1_5 C 0.7057(2) 0.3922(5) 0.2407(5)
C2_5 C 0.7332(2) 0.4598(5) 0.2934(5)
H5_5 H 0.7646 0.4665 0.2834
C3_5 C 0.7147(2) 0.5178(5) 0.3609(6)
C4_5 C 0.6685(3) 0.5056(5) 0.3788(6)
H6_5 H 0.6560 0.5440 0.4243
C5_5 C 0.6413(3) 0.4386(5) 0.3309(6)
C6_5 C 0.6602(3) 0.3798(5) 0.2619(6)
H7_5 H 0.6418 0.3323 0.2306
C7_5 C 0.7469(3) 0.5905(5) 0.4160(6)
C8_5 C 0.7249(3) 0.3319(6) 0.1653(6)
C9_5 C 0.5346(3) 0.3306(7) 0.3757(7)
C10_5 C 0.5059(3) 0.3990(6) 0.4074(8)
H8_5 H 0.5153 0.4609 0.4083
C11_5 C 0.4629(3) 0.3741(7) 0.4382(8)
H9_5 H 0.4432 0.4201 0.4579
C12_5 C 0.4491(3) 0.2838(6) 0.4398(8)
C13_5 C 0.4766(4) 0.2153(7) 0.4044(12)
H10_5 H 0.4671 0.1535 0.4032
C14_5 C 0.5188(4) 0.2416(7) 0.3705(13)
H11_5 H 0.5367 0.1966 0.3434
C15_5 C 0.4032(3) 0.2554(7) 0.4786(7)
O2_6 O 0.23349(19) 0.3491(4) 0.3511(4)
O7_6 O 0.1495(2) 0.2382(5) 0.3038(5)
H1_6 H 0.1343 0.2753 0.2623
H2_6 H 0.1527 0.1817 0.2879
O8_6 O 0.1454(2) 0.4264(5) 0.3798(5)
H3_6 H 0.1310 0.4211 0.3206
H4_6 H 0.1462 0.4785 0.4094
N1_6 N 0.4050(2) 0.4245(5) 0.1415(6)
N2_6 N 0.4204(3) 0.3457(5) 0.1549(6)
C1_6 C 0.2943(2) 0.3922(5) 0.2593(5)
C2_6 C 0.2668(2) 0.4598(5) 0.2066(5)
H5_6 H 0.2354 0.4665 0.2166
C3_6 C 0.2853(2) 0.5178(5) 0.1391(6)
C4_6 C 0.3315(3) 0.5056(5) 0.1212(6)
H6_6 H 0.3440 0.5440 0.0757
C5_6 C 0.3587(3) 0.4386(5) 0.1691(6)
C6_6 C 0.3398(3) 0.3798(5) 0.2381(6)
H7_6 H 0.3582 0.3323 0.2694
C7_6 C 0.2531(3) 0.5905(5) 0.0840(6)
C8_6 C 0.2751(3) 0.3319(6) 0.3347(6)
C9_6 C 0.4654(3) 0.3306(7) 0.1243(7)
C10_6 C 0.4941(3) 0.3990(6) 0.0926(8)
H8_6 H 0.4847 0.4609 0.0917
C11_6 C 0.5371(3) 0.3741(7) 0.0618(8)
H9_6 H 0.5568 0.4201 0.0421
C12_6 C 0.5509(3) 0.2838(6) 0.0602(8)
C13_6 C 0.5234(4) 0.2153(7) 0.0956(12)
H10_6 H 0.5329 0.1535 0.0968
C14_6 C 0.4812(4) 0.2416(7) 0.1295(13)
H11_6 H 0.4633 0.1966 0.1566
C15_6 C 0.5968(3) 0.2554(7) 0.0214(7)
C3_7 C 0.2147(2) 0.0178(5) 0.3609(6)
C4_7 C 0.1685(3) 0.0056(5) 0.3788(6)
H6_7 H 0.1560 0.0440 0.4243
C7_7 C 0.2469(3) 0.0905(5) 0.4160(6)
O2_7 O 0.26651(19) 0.8491(4) 0.1489(4)
O7_7 O 0.3505(2) 0.7382(5) 0.1962(5)
H1_7 H 0.3657 0.7753 0.2377
H2_7 H 0.3473 0.6817 0.2121
O8_7 O 0.3546(2) 0.9264(5) 0.1202(5)
H3_7 H 0.3690 0.9211 0.1794
H4_7 H 0.3538 0.9785 0.0906
N1_7 N 0.0950(2) 0.9245(5) 0.3585(6)
N2_7 N 0.0796(3) 0.8457(5) 0.3451(6)
C1_7 C 0.2057(2) 0.8922(5) 0.2407(5)
C2_7 C 0.2332(2) 0.9598(5) 0.2934(5)
H5_7 H 0.2646 0.9665 0.2834
C5_7 C 0.1413(3) 0.9386(5) 0.3309(6)
C6_7 C 0.1602(3) 0.8798(5) 0.2619(6)
H7_7 H 0.1418 0.8323 0.2306
C8_7 C 0.2249(3) 0.8319(6) 0.1653(6)
C9_7 C 0.0346(3) 0.8306(7) 0.3757(7)
C10_7 C 0.0059(3) 0.8990(6) 0.4074(8)
H8_7 H 0.0153 0.9609 0.4083
C14_7 C 0.0188(4) 0.7416(7) 0.3705(13)
H11_7 H 0.0367 0.6966 0.3434
C11_7 C 0.9629(3) 0.8741(7) 0.4382(8)
H9_7 H 0.9432 0.9201 0.4579
C12_7 C 0.9491(3) 0.7838(6) 0.4398(8)
C13_7 C 0.9766(4) 0.7153(7) 0.4044(12)
H10_7 H 0.9671 0.6535 0.4032
C15_7 C 0.9032(3) 0.7554(7) 0.4786(7)
C11_8 C 0.0371(3) 0.8741(7) 0.0618(8)
H9_8 H 0.0568 0.9201 0.0421
C12_8 C 0.0509(3) 0.7838(6) 0.0602(8)
C13_8 C 0.0234(4) 0.7153(7) 0.0956(12)
H10_8 H 0.0329 0.6535 0.0968
C15_8 C 0.0968(3) 0.7554(7) 0.0214(7)
C3_8 C 0.7853(2) 0.0178(5) 0.1391(6)
C4_8 C 0.8315(3) 0.0056(5) 0.1212(6)
H6_8 H 0.8440 0.0440 0.0757
C7_8 C 0.7531(3) 0.0905(5) 0.0840(6)
O2_8 O 0.73349(19) 0.8491(4) 0.3511(4)
O7_8 O 0.6495(2) 0.7382(5) 0.3038(5)
H1_8 H 0.6343 0.7753 0.2623
H2_8 H 0.6527 0.6817 0.2879
O8_8 O 0.6454(2) 0.9264(5) 0.3798(5)
H3_8 H 0.6310 0.9211 0.3206
H4_8 H 0.6462 0.9785 0.4094
N1_8 N 0.9050(2) 0.9245(5) 0.1415(6)
N2_8 N 0.9204(3) 0.8457(5) 0.1549(6)
C1_8 C 0.7943(2) 0.8922(5) 0.2593(5)
C2_8 C 0.7668(2) 0.9598(5) 0.2066(5)
H5_8 H 0.7354 0.9665 0.2166
C5_8 C 0.8587(3) 0.9386(5) 0.1691(6)
C6_8 C 0.8398(3) 0.8798(5) 0.2381(6)
H7_8 H 0.8582 0.8323 0.2694
C8_8 C 0.7751(3) 0.8319(6) 0.3347(6)
C9_8 C 0.9654(3) 0.8306(7) 0.1243(7)
C10_8 C 0.9941(3) 0.8990(6) 0.0926(8)
H8_8 H 0.9847 0.9609 0.0917
C14_8 C 0.9812(4) 0.7416(7) 0.1295(13)
H11_8 H 0.9633 0.6966 0.1566
loop_
_geom_bond_atom_site_label_1
_geom_bond_atom_site_label_2
_geom_bond_site_symmetry_1
_geom_bond_site_symmetry_2
Dy2 O12 1_555 1_555
Dy1 O2 1_555 1_555
O1 C8 1_555 1_555
O2 C8 1_555 1_555
O3 C7 1_555 1_555
O4 C7 1_555 1_555
O5 C15 1_555 1_555
O6 C15 1_555 1_555
O7 Dy1 1_555 1_555
H1 O7 1_555 1_555
H2 O7 1_555 1_555
O8 Dy1 1_555 1_555
H3 O8 1_555 1_555
H4 O8 1_555 1_555
N1 N2 1_555 1_555
N2 C9 1_555 1_555
C1 C2 1_555 1_555
C2 H5 1_555 1_555
C3 C2 1_555 1_555
C4 C3 1_555 1_555
H6 C4 1_555 1_555
C5 N1 1_555 1_555
C6 C1 1_555 1_555
H7 C6 1_555 1_555
C7 C3 1_555 1_555
C8 C1 1_555 1_555
C9 C10 1_555 1_555
C10 H8 1_555 1_555
C11 C10 1_555 1_555
H9 C11 1_555 1_555
C12 C11 1_555 1_555
C13 C12 1_555 1_555
H10 C13 1_555 1_555
C14 C9 1_555 1_555
H11 C14 1_555 1_555
C15 C12 1_555 1_555
Dy3 O3 1_555 1_555
Dy4 O4 1_555 1_555
Dy5 O5 1_555 1_555
O11 Dy1 1_555 1_555
O13 Dy1 1_555 1_555
O4 Dy3 1_555 1_555
O6 Dy5 1_555 1_555
C4 C5 1_555 1_555
C5 C6 1_555 1_555
C13 C14 1_555 1_555
Dy2 O5_2 1_555 1_555
Dy1_2 O2_2 1_555 1_555
O1_2 C8_2 1_555 1_555
O2_2 C8_2 1_555 1_555
O3_2 C7_2 1_555 1_555
O4_2 C7_2 1_555 1_555
O6_2 C15_2 1_555 1_555
O7_2 Dy1_2 1_555 1_555
H1_2 O7_2 1_555 1_555
H2_2 O7_2 1_555 1_555
O8_2 Dy1_2 1_555 1_555
H3_2 O8_2 1_555 1_555
H4_2 O8_2 1_555 1_555
N1_2 N2_2 1_555 1_555
N2_2 C9_2 1_555 1_555
C1_2 C2_2 1_555 1_555
C2_2 H5_2 1_555 1_555
C3_2 C2_2 1_555 1_555
C4_2 C3_2 1_555 1_555
H6_2 C4_2 1_555 1_555
C5_2 N1_2 1_555 1_555
C6_2 C1_2 1_555 1_555
H7_2 C6_2 1_555 1_555
C7_2 C3_2 1_555 1_555
C8_2 C1_2 1_555 1_555
C9_2 C10_2 1_555 1_555
C10_2 H8_2 1_555 1_555
C11_2 C10_2 1_555 1_555
H9_2 C11_2 1_555 1_555
C12_2 C11_2 1_555 1_555
C13_2 C12_2 1_555 1_555
H10_2 C13_2 1_555 1_555
C14_2 C9_2 1_555 1_555
H11_2 C14_2 1_555 1_555
C15_2 C12_2 1_555 1_555
Dy5 O1_2 1_555 1_555
Dy4_2 O4_2 1_555 1_555
O9_2 Dy1_2 1_555 1_555
O10_2 Dy1_2 1_555 1_555
O11_2 Dy1_2 1_555 1_555
O12_2 Dy1_2 1_555 1_555
O13_2 Dy1_2 1_555 1_555
O14_2 Dy1_2 1_555 1_555
C4_2 C5_2 1_555 1_555
C5_2 C6_2 1_555 1_555
C13_2 C14_2 1_555 1_555
Dy5 O11_2 1_555 1_555
Dy5 O12_2 1_555 1_555
O5_3 C15_3 1_555 1_555
O6_3 C15_3 1_555 1_555
H9_3 C11_3 1_555 1_555
C12_3 C11_3 1_555 1_555
C13_3 C12_3 1_555 1_555
H10_3 C13_3 1_555 1_555
C15_3 C12_3 1_555 1_555
Dy3 O5_3 1_555 1_555
O6_3 Dy3 1_555 1_555
Dy3_2 O12_3 1_555 1_555
Dy4_2 O2_3 1_555 1_555
O1_3 C8_3 1_555 1_555
O2_3 C8_3 1_555 1_555
O7_3 Dy4_2 1_555 1_555
H1_3 O7_3 1_555 1_555
H2_3 O7_3 1_555 1_555
O8_3 Dy4_2 1_555 1_555
H3_3 O8_3 1_555 1_555
H4_3 O8_3 1_555 1_555
N1_3 N2_3 1_555 1_555
N2_3 C9_3 1_555 1_555
C1_3 C2_3 1_555 1_555
C2_3 H5_3 1_555 1_555
C5_3 N1_3 1_555 1_555
C6_3 C1_3 1_555 1_555
H7_3 C6_3 1_555 1_555
C8_3 C1_3 1_555 1_555
C9_3 C10_3 1_555 1_555
C10_3 H8_3 1_555 1_555
C14_3 C9_3 1_555 1_555
H11_3 C14_3 1_555 1_555
O13_3 Dy4_2 1_555 1_555
C5_3 C6_3 1_555 1_555
O3_3 C7_3 1_555 1_555
O11_2 C7_3 1_555 1_555
C4_3 C3_3 1_555 1_555
H6_3 C4_3 1_555 1_555
C7_3 C3_3 1_555 1_555
Dy5 O3_3 1_555 1_555
Dy4 O2_4 1_555 1_555
O1_4 C8_4 1_555 1_555
O2_4 C8_4 1_555 1_555
O7_4 Dy4 1_555 1_555
H1_4 O7_4 1_555 1_555
H2_4 O7_4 1_555 1_555
O8_4 Dy4 1_555 1_555
H3_4 O8_4 1_555 1_555
H4_4 O8_4 1_555 1_555
N1_4 N2_4 1_555 1_555
N2_4 C9_4 1_555 1_555
C1_4 C2_4 1_555 1_555
C2_4 H5_4 1_555 1_555
C5_4 N1_4 1_555 1_555
C6_4 C1_4 1_555 1_555
H7_4 C6_4 1_555 1_555
C8_4 C1_4 1_555 1_555
C9_4 C10_4 1_555 1_555
C10_4 H8_4 1_555 1_555
C14_4 C9_4 1_555 1_555
H11_4 C14_4 1_555 1_555
Dy3 O1_4 1_555 1_555
O9_4 Dy4 1_555 1_555
O10_4 Dy4 1_555 1_555
O12_4 Dy4 1_555 1_555
O13_4 Dy4 1_555 1_555
O14_4 Dy4 1_555 1_555
C5_4 C6_4 1_555 1_555
Dy3 O12_4 1_555 1_555
O3_4 C7_4 1_555 1_555
O11 C7_4 1_555 1_555
C4_4 C3_4 1_555 1_555
H6_4 C4_4 1_555 1_555
C7_4 C3_4 1_555 1_555
Dy3_2 O5_4 1_555 1_555
O6_4 C15_4 1_555 1_555
H9_4 C11_4 1_555 1_555
C12_4 C11_4 1_555 1_555
C13_4 C12_4 1_555 1_555
H10_4 C13_4 1_555 1_555
C15_4 C12_4 1_555 1_555
Dy3_2 O2_5 1_555 1_555
O9_3 C8_5 1_555 1_555
O2_5 C8_5 1_555 1_555
O10_2 C7_5 1_555 1_555
O12_2 C7_5 1_555 1_555
O13_4 C15_5 1_555 1_555
O14_4 C15_5 1_555 1_555
O7_5 Dy3_2 1_555 1_555
H1_5 O7_5 1_555 1_555
H2_5 O7_5 1_555 1_555
O8_5 Dy3_2 1_555 1_555
H3_5 O8_5 1_555 1_555
H4_5 O8_5 1_555 1_555
N1_5 N2_5 1_555 1_555
N2_5 C9_5 1_555 1_555
C1_5 C2_5 1_555 1_555
C2_5 H5_5 1_555 1_555
C3_5 C2_5 1_555 1_555
C4_5 C3_5 1_555 1_555
H6_5 C4_5 1_555 1_555
C5_5 N1_5 1_555 1_555
C6_5 C1_5 1_555 1_555
H7_5 C6_5 1_555 1_555
C7_5 C3_5 1_555 1_555
C8_5 C1_5 1_555 1_555
C9_5 C10_5 1_555 1_555
C10_5 H8_5 1_555 1_555
C11_5 C10_5 1_555 1_555
H9_5 C11_5 1_555 1_555
C12_5 C11_5 1_555 1_555
C13_5 C12_5 1_555 1_555
H10_5 C13_5 1_555 1_555
C14_5 C9_5 1_555 1_555
H11_5 C14_5 1_555 1_555
C15_5 C12_5 1_555 1_555
C4_5 C5_5 1_555 1_555
C5_5 C6_5 1_555 1_555
C13_5 C14_5 1_555 1_555
Dy3 O2_6 1_555 1_555
O9_4 C8_6 1_555 1_555
O2_6 C8_6 1_555 1_555
O10 C7_6 1_555 1_555
O12 C7_6 1_555 1_555
O14_3 C15_6 1_555 1_555
O7_6 Dy3 1_555 1_555
H1_6 O7_6 1_555 1_555
H2_6 O7_6 1_555 1_555
O8_6 Dy3 1_555 1_555
H3_6 O8_6 1_555 1_555
H4_6 O8_6 1_555 1_555
N1_6 N2_6 1_555 1_555
N2_6 C9_6 1_555 1_555
C1_6 C2_6 1_555 1_555
C2_6 H5_6 1_555 1_555
C3_6 C2_6 1_555 1_555
C4_6 C3_6 1_555 1_555
H6_6 C4_6 1_555 1_555
C5_6 N1_6 1_555 1_555
C6_6 C1_6 1_555 1_555
H7_6 C6_6 1_555 1_555
C7_6 C3_6 1_555 1_555
C8_6 C1_6 1_555 1_555
C9_6 C10_6 1_555 1_555
C10_6 H8_6 1_555 1_555
C11_6 C10_6 1_555 1_555
H9_6 C11_6 1_555 1_555
C12_6 C11_6 1_555 1_555
C13_6 C12_6 1_555 1_555
H10_6 C13_6 1_555 1_555
C14_6 C9_6 1_555 1_555
H11_6 C14_6 1_555 1_555
C15_6 C12_6 1_555 1_555
C4_6 C5_6 1_555 1_555
C5_6 C6_6 1_555 1_555
C13_6 C14_6 1_555 1_555
O10_4 C7_7 1_555 1_555
O12_4 C7_7 1_555 1_555
C4_7 C3_7 1_555 1_555
H6_7 C4_7 1_555 1_555
C7_7 C3_7 1_555 1_555
Dy2 O2_7 1_555 1_555
O9 C8_7 1_555 1_555
O2_7 C8_7 1_555 1_555
O7_7 Dy2 1_555 1_555
H1_7 O7_7 1_555 1_555
H2_7 O7_7 1_555 1_555
O8_7 Dy2 1_555 1_555
H3_7 O8_7 1_555 1_555
H4_7 O8_7 1_555 1_555
N1_7 N2_7 1_555 1_555
N2_7 C9_7 1_555 1_555
C1_7 C2_7 1_555 1_555
C2_7 H5_7 1_555 1_555
C5_7 N1_7 1_555 1_555
C6_7 C1_7 1_555 1_555
H7_7 C6_7 1_555 1_555
C8_7 C1_7 1_555 1_555
C9_7 C10_7 1_555 1_555
C10_7 H8_7 1_555 1_555
C14_7 C9_7 1_555 1_555
H11_7 C14_7 1_555 1_555
C5_7 C6_7 1_555 1_555
O13_2 C15_7 1_555 1_555
O14_2 C15_7 1_555 1_555
H9_7 C11_7 1_555 1_555
C12_7 C11_7 1_555 1_555
C13_7 C12_7 1_555 1_555
H10_7 C13_7 1_555 1_555
C15_7 C12_7 1_555 1_555
O14 C15_8 1_555 1_555
H9_8 C11_8 1_555 1_555
C12_8 C11_8 1_555 1_555
C13_8 C12_8 1_555 1_555
H10_8 C13_8 1_555 1_555
C15_8 C12_8 1_555 1_555
O10_3 C7_8 1_555 1_555
O12_3 C7_8 1_555 1_555
C4_8 C3_8 1_555 1_555
H6_8 C4_8 1_555 1_555
C7_8 C3_8 1_555 1_555
Dy5 O2_8 1_555 1_555
O9_2 C8_8 1_555 1_555
O2_8 C8_8 1_555 1_555
O7_8 Dy5 1_555 1_555
H1_8 O7_8 1_555 1_555
H2_8 O7_8 1_555 1_555
O8_8 Dy5 1_555 1_555
H3_8 O8_8 1_555 1_555
H4_8 O8_8 1_555 1_555
N1_8 N2_8 1_555 1_555
N2_8 C9_8 1_555 1_555
C1_8 C2_8 1_555 1_555
C2_8 H5_8 1_555 1_555
C5_8 N1_8 1_555 1_555
C6_8 C1_8 1_555 1_555
H7_8 C6_8 1_555 1_555
C8_8 C1_8 1_555 1_555
C9_8 C10_8 1_555 1_555
C10_8 H8_8 1_555 1_555
C14_8 C9_8 1_555 1_555
H11_8 C14_8 1_555 1_555
C5_8 C6_8 1_555 1_555

#END
