
###############################################################################
#
# This file contains modified crystal structure data generated from the
# MOF subset of the Cambridge Structural Database (CSD) v543 
# hosted by the Cambridge Crystallographic Data Centre (CCDC).
#
# This work is licensed under the Creative Commons
# Attribution-NonCommercial-ShareAlike 4.0 International License.
# To view a copy of this license, visit
# http://creativecommons.org/licenses/by-nc-sa/4.0/
# or send a letter to
# Creative Commons, PO Box 1866, Mountain View, CA 94042, USA.
#
# CIF created using the CSD Python API on 29 September 2022
# The structure has been converted into the P1 space group
# The structure has a 3D framework
# The original CSD entry VAJTOT is in the orthorhombic crystal system
# The framework has been calculated to contain at least 10.0% void space
# The void calculation uses a probe of radius 1.32A, grid spacing 0.4
#
###############################################################################

data_VAJTOT
_chemical_formula_moiety         '(C116 H96 Co6 N28 O16 S12)n'
_symmetry_cell_setting           triclinic
_symmetry_space_group_name_H-M   'P 1'
_symmetry_Int_Tables_number      1
_space_group_name_Hall           'P 1'
loop_
_symmetry_equiv_pos_site_id
_symmetry_equiv_pos_as_xyz
1 x,y,z
_cell_length_a                   9.0919(18)
_cell_length_b                   22.585(5)
_cell_length_c                   24.109(5)
_cell_angle_alpha                90
_cell_angle_beta                 90
_cell_angle_gamma                90
_cell_volume                     4950.56
loop_
_atom_site_label
_atom_site_type_symbol
_atom_site_fract_x
_atom_site_fract_y
_atom_site_fract_z
S1 S 0.1818(2) 0.87540(10) 0.5000
C3 C 0.0483(7) 0.8290(3) 0.5000
Co3 Co 0.7500 0.2500 0.0000
C1 C 0.5000 0.0000 0.7500
O2 O 0.4972(3) 0.07410(12) 0.68087(11)
N3 N 0.3345(3) 0.19247(13) 0.56523(13)
C9 C 0.2873(4) 0.1227(2) 0.63891(17)
H7 H 0.2185 0.1032 0.6608
C10 C 0.4324(4) 0.11212(17) 0.64443(16)
C11 C 0.5347(5) 0.1428(2) 0.6105(2)
H8 H 0.6356 0.1371 0.6139
C12 C 0.4002(4) 0.03793(16) 0.71420(15)
H9 H 0.3388 0.0133 0.6908
H10 H 0.3374 0.0625 0.7371
C13 C 0.2437(5) 0.1642(2) 0.59920(19)
H11 H 0.1438 0.1726 0.5964
C14 C 0.4755(5) 0.18171(18) 0.57188(18)
H12 H 0.5408 0.2018 0.5489
O3 O 0.5028(3) 0.07410(12) 0.81913(11)
N4 N 0.6655(3) 0.19247(13) 0.93477(13)
C15 C 0.7127(4) 0.1227(2) 0.86109(17)
H13 H 0.7815 0.1032 0.8392
C16 C 0.5676(4) 0.11212(17) 0.85557(16)
C17 C 0.4653(5) 0.1428(2) 0.8895(2)
H14 H 0.3644 0.1371 0.8861
C18 C 0.5998(4) 0.03793(16) 0.78580(15)
H15 H 0.6612 0.0133 0.8092
H16 H 0.6626 0.0625 0.7629
C19 C 0.7563(5) 0.1642(2) 0.90080(19)
H17 H 0.8562 0.1726 0.9036
C20 C 0.5245(5) 0.18171(18) 0.92812(18)
H18 H 0.4592 0.2018 0.9511
Co2 Co 0.2500 0.2500 0.5000
Co3_2 Co 0.7500 0.2500 1.0000
Co4 Co 0.2500 0.7500 0.0000
Co1 Co 0.7500 0.7500 0.5000
O1 O 0.5028(3) 0.92590(12) 0.68087(11)
C1_2 C 0.5000 1.0000 0.7500
N1 N 0.6655(3) 0.80753(13) 0.56523(13)
N2 N 0.9513(6) 0.79655(19) 0.5000
C2 C 0.7127(4) 0.8773(2) 0.63891(17)
H1 H 0.7815 0.8968 0.6608
C4 C 0.5676(4) 0.88788(17) 0.64443(16)
C5 C 0.4653(5) 0.8572(2) 0.6105(2)
H2 H 0.3644 0.8629 0.6139
C6 C 0.5998(4) 0.96207(16) 0.71420(15)
H3 H 0.6612 0.9867 0.6908
H4 H 0.6626 0.9375 0.7371
C7 C 0.7563(5) 0.8358(2) 0.59920(19)
H5 H 0.8562 0.8274 0.5964
C8 C 0.5245(5) 0.81829(18) 0.57188(18)
H6 H 0.4592 0.7982 0.5489
O4 O 0.4972(3) 0.92590(12) 0.81913(11)
N5 N 0.3345(3) 0.80753(13) 0.93477(13)
C21 C 0.2873(4) 0.8773(2) 0.86109(17)
H19 H 0.2185 0.8968 0.8392
C22 C 0.4324(4) 0.88788(17) 0.85557(16)
C23 C 0.5347(5) 0.8572(2) 0.8895(2)
H20 H 0.6356 0.8629 0.8861
C24 C 0.4002(4) 0.96207(16) 0.78580(15)
H21 H 0.3388 0.9867 0.8092
H22 H 0.3374 0.9375 0.7629
C25 C 0.2437(5) 0.8358(2) 0.90080(19)
H23 H 0.1438 0.8274 0.9036
C26 C 0.4755(5) 0.81829(18) 0.92812(18)
H24 H 0.5408 0.7982 0.9511
S2 S 0.3182(2) 0.62460(10) 0.5000
N6 N 0.5487(6) 0.70345(19) 0.5000
C27 C 0.4517(7) 0.6710(3) 0.5000
Co4_2 Co 0.2500 0.7500 1.0000
N7 N 0.8345(3) 0.69247(13) 0.56523(13)
N8 N 0.6655(3) 0.80753(13) 0.43477(13)
N9 N 0.8345(3) 0.69247(13) 0.43477(13)
N2_2 N 0.0487(6) 0.20345(19) 0.5000
S2_2 S 0.6818(2) 0.37540(10) 0.5000
N6_2 N 0.4513(6) 0.29655(19) 0.5000
C27_2 C 0.5483(7) 0.3290(3) 0.5000
N7_2 N 0.1655(3) 0.30753(13) 0.56523(13)
N8_2 N 0.3345(3) 0.19247(13) 0.43477(13)
N9_2 N 0.1655(3) 0.30753(13) 0.43477(13)
S1_2 S 0.8182(2) 0.12460(10) 0.5000
C3_2 C 0.9517(7) 0.1710(3) 0.5000
S1_3 S 0.1818(2) 0.12460(10) 0.0000
C3_3 C 0.0483(7) 0.1710(3) 0.0000
S1_4 S 0.1818(2) 0.12460(10) 1.0000
C3_4 C 0.0483(7) 0.1710(3) 1.0000
N2_3 N 0.9513(6) 0.20345(19) 0.0000
S2_3 S 0.3182(2) 0.37540(10) 0.0000
N6_3 N 0.5487(6) 0.29655(19) 0.0000
C27_3 C 0.4517(7) 0.3290(3) 0.0000
N8_3 N 0.6655(3) 0.19247(13) 0.06523(13)
N9_3 N 0.8345(3) 0.30753(13) 0.06523(13)
N2_4 N 0.9513(6) 0.20345(19) 1.0000
S2_4 S 0.3182(2) 0.37540(10) 1.0000
N6_4 N 0.5487(6) 0.29655(19) 1.0000
C27_4 C 0.4517(7) 0.3290(3) 1.0000
N7_3 N 0.8345(3) 0.30753(13) 0.93477(13)
N2_5 N 0.0487(6) 0.79655(19) 0.0000
S2_5 S 0.6818(2) 0.62460(10) 0.0000
N6_5 N 0.4513(6) 0.70345(19) 0.0000
C27_5 C 0.5483(7) 0.6710(3) 0.0000
N8_4 N 0.3345(3) 0.80753(13) 0.06523(13)
N9_4 N 0.1655(3) 0.69247(13) 0.06523(13)
N2_6 N 0.0487(6) 0.79655(19) 1.0000
S2_6 S 0.6818(2) 0.62460(10) 1.0000
N6_6 N 0.4513(6) 0.70345(19) 1.0000
C27_6 C 0.5483(7) 0.6710(3) 1.0000
N7_4 N 0.1655(3) 0.69247(13) 0.93477(13)
S1_5 S 0.8182(2) 0.87540(10) 0.0000
C3_5 C 0.9517(7) 0.8290(3) 0.0000
S1_6 S 0.8182(2) 0.87540(10) 1.0000
C3_6 C 0.9517(7) 0.8290(3) 1.0000
O1_2 O 0.0028(3) 0.42590(12) 0.68087(11)
C1_3 C -0.0000 0.5000 0.7500
C2_2 C 0.2127(4) 0.3773(2) 0.63891(17)
H1_2 H 0.2815 0.3968 0.6608
C4_2 C 0.0676(4) 0.38788(17) 0.64443(16)
C6_2 C 0.0998(4) 0.46207(16) 0.71420(15)
H3_2 H 0.1612 0.4867 0.6908
H4_2 H 0.1626 0.4375 0.7371
C7_2 C 0.2563(5) 0.3358(2) 0.59920(19)
H5_2 H 0.3562 0.3274 0.5964
C8_2 C 0.0245(5) 0.31829(18) 0.57188(18)
C11_2 C 0.0347(5) 0.6428(2) 0.6105(2)
H8_2 H 0.1356 0.6371 0.6139
H12_2 H 0.0408 0.7018 0.5489
O3_2 O 0.0028(3) 0.57410(12) 0.81913(11)
C15_2 C 0.2127(4) 0.6227(2) 0.86109(17)
H13_2 H 0.2815 0.6032 0.8392
C16_2 C 0.0676(4) 0.61212(17) 0.85557(16)
C18_2 C 0.0998(4) 0.53793(16) 0.78580(15)
H15_2 H 0.1612 0.5133 0.8092
H16_2 H 0.1626 0.5625 0.7629
C19_2 C 0.2563(5) 0.6642(2) 0.90080(19)
H17_2 H 0.3562 0.6726 0.9036
C20_2 C 0.0245(5) 0.68171(18) 0.92812(18)
C23_2 C 0.0347(5) 0.3572(2) 0.8895(2)
H20_2 H 0.1356 0.3629 0.8861
H24_2 H 0.0408 0.2982 0.9511
C1_4 C 1.0000 0.5000 0.7500
C5_2 C 0.9653(5) 0.3572(2) 0.6105(2)
H2_2 H 0.8644 0.3629 0.6139
H6_2 H 0.9592 0.2982 0.5489
O2_2 O 0.9972(3) 0.57410(12) 0.68087(11)
C9_2 C 0.7873(4) 0.6227(2) 0.63891(17)
H7_2 H 0.7185 0.6032 0.6608
C10_2 C 0.9324(4) 0.61212(17) 0.64443(16)
C12_2 C 0.9002(4) 0.53793(16) 0.71420(15)
H9_2 H 0.8388 0.5133 0.6908
H10_2 H 0.8374 0.5625 0.7371
C13_2 C 0.7437(5) 0.6642(2) 0.59920(19)
H11_2 H 0.6438 0.6726 0.5964
C14_2 C 0.9755(5) 0.68171(18) 0.57188(18)
C17_2 C 0.9653(5) 0.6428(2) 0.8895(2)
H14_2 H 0.8644 0.6371 0.8861
H18_2 H 0.9592 0.7018 0.9511
O4_2 O 0.9972(3) 0.42590(12) 0.81913(11)
C21_2 C 0.7873(4) 0.3773(2) 0.86109(17)
H19_2 H 0.7185 0.3968 0.8392
C22_2 C 0.9324(4) 0.38788(17) 0.85557(16)
C24_2 C 0.9002(4) 0.46207(16) 0.78580(15)
H21_2 H 0.8388 0.4867 0.8092
H22_2 H 0.8374 0.4375 0.7629
C25_2 C 0.7437(5) 0.3358(2) 0.90080(19)
H23_2 H 0.6438 0.3274 0.9036
C26_2 C 0.9755(5) 0.31829(18) 0.92812(18)
O1_3 O 0.4972(3) 0.07410(12) 0.31913(11)
C1_5 C 0.5000 -0.0000 0.2500
C2_3 C 0.2873(4) 0.1227(2) 0.36109(17)
H1_3 H 0.2185 0.1032 0.3392
C4_3 C 0.4324(4) 0.11212(17) 0.35557(16)
C5_3 C 0.5347(5) 0.1428(2) 0.3895(2)
H2_3 H 0.6356 0.1371 0.3861
C6_3 C 0.4002(4) 0.03793(16) 0.28580(15)
H3_3 H 0.3388 0.0133 0.3092
H4_3 H 0.3374 0.0625 0.2629
C7_3 C 0.2437(5) 0.1642(2) 0.40080(19)
H5_3 H 0.1438 0.1726 0.4036
C8_3 C 0.4755(5) 0.18171(18) 0.42812(18)
H6_3 H 0.5408 0.2018 0.4511
O4_3 O 0.5028(3) 0.07410(12) 0.18087(11)
C21_3 C 0.7127(4) 0.1227(2) 0.13891(17)
H19_3 H 0.7815 0.1032 0.1608
C22_3 C 0.5676(4) 0.11212(17) 0.14443(16)
C23_3 C 0.4653(5) 0.1428(2) 0.1105(2)
H20_3 H 0.3644 0.1371 0.1139
C24_3 C 0.5998(4) 0.03793(16) 0.21420(15)
H21_3 H 0.6612 0.0133 0.1908
H22_3 H 0.6626 0.0625 0.2371
C25_3 C 0.7563(5) 0.1642(2) 0.09920(19)
H23_3 H 0.8562 0.1726 0.0964
C26_3 C 0.5245(5) 0.18171(18) 0.07188(18)
H24_3 H 0.4592 0.2018 0.0489
C1_6 C 0.5000 1.0000 0.2500
O2_3 O 0.5028(3) 0.92590(12) 0.31913(11)
C9_3 C 0.7127(4) 0.8773(2) 0.36109(17)
H7_3 H 0.7815 0.8968 0.3392
C10_3 C 0.5676(4) 0.88788(17) 0.35557(16)
C11_3 C 0.4653(5) 0.8572(2) 0.3895(2)
H8_3 H 0.3644 0.8629 0.3861
C12_3 C 0.5998(4) 0.96207(16) 0.28580(15)
H9_3 H 0.6612 0.9867 0.3092
H10_3 H 0.6626 0.9375 0.2629
C13_3 C 0.7563(5) 0.8358(2) 0.40080(19)
H11_3 H 0.8562 0.8274 0.4036
C14_3 C 0.5245(5) 0.81829(18) 0.42812(18)
H12_3 H 0.4592 0.7982 0.4511
O3_3 O 0.4972(3) 0.92590(12) 0.18087(11)
C15_3 C 0.2873(4) 0.8773(2) 0.13891(17)
H13_3 H 0.2185 0.8968 0.1608
C16_3 C 0.4324(4) 0.88788(17) 0.14443(16)
C17_3 C 0.5347(5) 0.8572(2) 0.1105(2)
H14_3 H 0.6356 0.8629 0.1139
C18_3 C 0.4002(4) 0.96207(16) 0.21420(15)
H15_3 H 0.3388 0.9867 0.1908
H16_3 H 0.3374 0.9375 0.2371
C19_3 C 0.2437(5) 0.8358(2) 0.09920(19)
H17_3 H 0.1438 0.8274 0.0964
C20_3 C 0.4755(5) 0.81829(18) 0.07188(18)
H18_3 H 0.5408 0.7982 0.0489
C1_7 C 0.0000 0.5000 0.2500
C5_4 C 0.0347(5) 0.6428(2) 0.3895(2)
H2_4 H 0.1356 0.6371 0.3861
H6_4 H 0.0408 0.7018 0.4511
O2_4 O 0.0028(3) 0.42590(12) 0.31913(11)
C9_4 C 0.2127(4) 0.3773(2) 0.36109(17)
H7_4 H 0.2815 0.3968 0.3392
C10_4 C 0.0676(4) 0.38788(17) 0.35557(16)
C12_4 C 0.0998(4) 0.46207(16) 0.28580(15)
H9_4 H 0.1612 0.4867 0.3092
H10_4 H 0.1626 0.4375 0.2629
C13_4 C 0.2563(5) 0.3358(2) 0.40080(19)
H11_4 H 0.3562 0.3274 0.4036
C14_4 C 0.0245(5) 0.31829(18) 0.42812(18)
C17_4 C 0.0347(5) 0.3572(2) 0.1105(2)
H14_4 H 0.1356 0.3629 0.1139
H18_4 H 0.0408 0.2982 0.0489
O4_4 O 0.0028(3) 0.57410(12) 0.18087(11)
C21_4 C 0.2127(4) 0.6227(2) 0.13891(17)
H19_4 H 0.2815 0.6032 0.1608
C22_4 C 0.0676(4) 0.61212(17) 0.14443(16)
C24_4 C 0.0998(4) 0.53793(16) 0.21420(15)
H21_4 H 0.1612 0.5133 0.1908
H22_4 H 0.1626 0.5625 0.2371
C25_4 C 0.2563(5) 0.6642(2) 0.09920(19)
H23_4 H 0.3562 0.6726 0.0964
C26_4 C 0.0245(5) 0.68171(18) 0.07188(18)
O1_4 O 0.9972(3) 0.57410(12) 0.31913(11)
C1_8 C 1.0000 0.5000 0.2500
C2_4 C 0.7873(4) 0.6227(2) 0.36109(17)
H1_4 H 0.7185 0.6032 0.3392
C4_4 C 0.9324(4) 0.61212(17) 0.35557(16)
C6_4 C 0.9002(4) 0.53793(16) 0.28580(15)
H3_4 H 0.8388 0.5133 0.3092
H4_4 H 0.8374 0.5625 0.2629
C7_4 C 0.7437(5) 0.6642(2) 0.40080(19)
H5_4 H 0.6438 0.6726 0.4036
C8_4 C 0.9755(5) 0.68171(18) 0.42812(18)
C11_4 C 0.9653(5) 0.3572(2) 0.3895(2)
H8_4 H 0.8644 0.3629 0.3861
H12_4 H 0.9592 0.2982 0.4511
O3_4 O 0.9972(3) 0.42590(12) 0.18087(11)
C15_4 C 0.7873(4) 0.3773(2) 0.13891(17)
H13_4 H 0.7185 0.3968 0.1608
C16_4 C 0.9324(4) 0.38788(17) 0.14443(16)
C18_4 C 0.9002(4) 0.46207(16) 0.21420(15)
H15_4 H 0.8388 0.4867 0.1908
H16_4 H 0.8374 0.4375 0.2371
C19_4 C 0.7437(5) 0.3358(2) 0.09920(19)
H17_4 H 0.6438 0.3274 0.0964
C20_4 C 0.9755(5) 0.31829(18) 0.07188(18)
C23_4 C 0.9653(5) 0.6428(2) 0.1105(2)
H20_4 H 0.8644 0.6371 0.1139
H24_4 H 0.9592 0.7018 0.0489
loop_
_geom_bond_atom_site_label_1
_geom_bond_atom_site_label_2
_geom_bond_site_symmetry_1
_geom_bond_site_symmetry_2
S1 C3 1_555 1_555
O2 C10 1_555 1_555
N3 C13 1_555 1_555
C9 H7 1_555 1_555
C10 C9 1_555 1_555
C11 C10 1_555 1_555
H8 C11 1_555 1_555
C12 C1 1_555 1_555
H9 C12 1_555 1_555
H10 C12 1_555 1_555
C13 C9 1_555 1_555
H11 C13 1_555 1_555
C14 N3 1_555 1_555
H12 C14 1_555 1_555
O3 C16 1_555 1_555
N4 C19 1_555 1_555
C15 H13 1_555 1_555
C16 C15 1_555 1_555
C17 C16 1_555 1_555
H14 C17 1_555 1_555
C18 C1 1_555 1_555
H15 C18 1_555 1_555
H16 C18 1_555 1_555
C19 C15 1_555 1_555
H17 C19 1_555 1_555
C20 N4 1_555 1_555
H18 C20 1_555 1_555
Co2 N3 1_555 1_555
Co3_2 N4 1_555 1_555
O2 C12 1_555 1_555
C11 C14 1_555 1_555
O3 C18 1_555 1_555
C17 C20 1_555 1_555
Co1 N1 1_555 1_555
O1 C4 1_555 1_555
C1_2 C6 1_555 1_555
N1 C7 1_555 1_555
N2 Co1 1_555 1_555
C2 H1 1_555 1_555
C4 C2 1_555 1_555
C5 C4 1_555 1_555
H2 C5 1_555 1_555
C6 O1 1_555 1_555
H3 C6 1_555 1_555
H4 C6 1_555 1_555
C7 C2 1_555 1_555
H5 C7 1_555 1_555
C8 N1 1_555 1_555
H6 C8 1_555 1_555
O4 C22 1_555 1_555
N5 C25 1_555 1_555
C21 H19 1_555 1_555
C22 C21 1_555 1_555
C23 C22 1_555 1_555
H20 C23 1_555 1_555
C24 C1_2 1_555 1_555
H21 C24 1_555 1_555
H22 C24 1_555 1_555
C25 C21 1_555 1_555
H23 C25 1_555 1_555
C26 N5 1_555 1_555
H24 C26 1_555 1_555
S2 C27 1_555 1_555
N6 Co1 1_555 1_555
C27 N6 1_555 1_555
Co4_2 N5 1_555 1_555
N7 Co1 1_555 1_555
N8 Co1 1_555 1_555
N9 Co1 1_555 1_555
C5 C8 1_555 1_555
O4 C24 1_555 1_555
C23 C26 1_555 1_555
N2_2 Co2 1_555 1_555
S2_2 C27_2 1_555 1_555
N6_2 Co2 1_555 1_555
C27_2 N6_2 1_555 1_555
N7_2 Co2 1_555 1_555
N8_2 Co2 1_555 1_555
N9_2 Co2 1_555 1_555
S1_2 C3_2 1_555 1_555
S1_3 C3_3 1_555 1_555
S1_4 C3_4 1_555 1_555
N2_3 Co3 1_555 1_555
S2_3 C27_3 1_555 1_555
N6_3 Co3 1_555 1_555
C27_3 N6_3 1_555 1_555
N8_3 Co3 1_555 1_555
N9_3 Co3 1_555 1_555
N2_4 Co3_2 1_555 1_555
S2_4 C27_4 1_555 1_555
N6_4 Co3_2 1_555 1_555
C27_4 N6_4 1_555 1_555
N7_3 Co3_2 1_555 1_555
N2_5 Co4 1_555 1_555
S2_5 C27_5 1_555 1_555
N6_5 Co4 1_555 1_555
C27_5 N6_5 1_555 1_555
N8_4 Co4 1_555 1_555
N9_4 Co4 1_555 1_555
N2_6 Co4_2 1_555 1_555
S2_6 C27_6 1_555 1_555
N6_6 Co4_2 1_555 1_555
C27_6 N6_6 1_555 1_555
N7_4 Co4_2 1_555 1_555
S1_5 C3_5 1_555 1_555
S1_6 C3_6 1_555 1_555
O1_2 C4_2 1_555 1_555
C1_3 C6_2 1_555 1_555
N7_2 C7_2 1_555 1_555
C2_2 H1_2 1_555 1_555
C4_2 C2_2 1_555 1_555
C6_2 O1_2 1_555 1_555
H3_2 C6_2 1_555 1_555
H4_2 C6_2 1_555 1_555
C7_2 C2_2 1_555 1_555
H5_2 C7_2 1_555 1_555
C8_2 N7_2 1_555 1_555
H8_2 C11_2 1_555 1_555
O3_2 C16_2 1_555 1_555
N7_4 C19_2 1_555 1_555
C15_2 H13_2 1_555 1_555
C16_2 C15_2 1_555 1_555
C18_2 C1_3 1_555 1_555
H15_2 C18_2 1_555 1_555
H16_2 C18_2 1_555 1_555
C19_2 C15_2 1_555 1_555
H17_2 C19_2 1_555 1_555
C20_2 N7_4 1_555 1_555
H20_2 C23_2 1_555 1_555
O3_2 C18_2 1_555 1_555
H2_2 C5_2 1_555 1_555
O2_2 C10_2 1_555 1_555
N7 C13_2 1_555 1_555
C9_2 H7_2 1_555 1_555
C10_2 C9_2 1_555 1_555
C12_2 C1_4 1_555 1_555
H9_2 C12_2 1_555 1_555
H10_2 C12_2 1_555 1_555
C13_2 C9_2 1_555 1_555
H11_2 C13_2 1_555 1_555
C14_2 N7 1_555 1_555
H14_2 C17_2 1_555 1_555
O4_2 C22_2 1_555 1_555
N7_3 C25_2 1_555 1_555
C21_2 H19_2 1_555 1_555
C22_2 C21_2 1_555 1_555
C24_2 C1_4 1_555 1_555
H21_2 C24_2 1_555 1_555
H22_2 C24_2 1_555 1_555
C25_2 C21_2 1_555 1_555
H23_2 C25_2 1_555 1_555
C26_2 N7_3 1_555 1_555
O2_2 C12_2 1_555 1_555
O4_2 C24_2 1_555 1_555
O1_3 C4_3 1_555 1_555
C1_5 C6_3 1_555 1_555
N8_2 C7_3 1_555 1_555
C2_3 H1_3 1_555 1_555
C4_3 C2_3 1_555 1_555
C5_3 C4_3 1_555 1_555
H2_3 C5_3 1_555 1_555
C6_3 O1_3 1_555 1_555
H3_3 C6_3 1_555 1_555
H4_3 C6_3 1_555 1_555
C7_3 C2_3 1_555 1_555
H5_3 C7_3 1_555 1_555
C8_3 N8_2 1_555 1_555
H6_3 C8_3 1_555 1_555
O4_3 C22_3 1_555 1_555
N8_3 C25_3 1_555 1_555
C21_3 H19_3 1_555 1_555
C22_3 C21_3 1_555 1_555
C23_3 C22_3 1_555 1_555
H20_3 C23_3 1_555 1_555
C24_3 C1_5 1_555 1_555
H21_3 C24_3 1_555 1_555
H22_3 C24_3 1_555 1_555
C25_3 C21_3 1_555 1_555
H23_3 C25_3 1_555 1_555
C26_3 N8_3 1_555 1_555
H24_3 C26_3 1_555 1_555
C5_3 C8_3 1_555 1_555
O4_3 C24_3 1_555 1_555
C23_3 C26_3 1_555 1_555
O2_3 C10_3 1_555 1_555
N8 C13_3 1_555 1_555
C9_3 H7_3 1_555 1_555
C10_3 C9_3 1_555 1_555
C11_3 C10_3 1_555 1_555
H8_3 C11_3 1_555 1_555
C12_3 C1_6 1_555 1_555
H9_3 C12_3 1_555 1_555
H10_3 C12_3 1_555 1_555
C13_3 C9_3 1_555 1_555
H11_3 C13_3 1_555 1_555
C14_3 N8 1_555 1_555
H12_3 C14_3 1_555 1_555
O3_3 C16_3 1_555 1_555
N8_4 C19_3 1_555 1_555
C15_3 H13_3 1_555 1_555
C16_3 C15_3 1_555 1_555
C17_3 C16_3 1_555 1_555
H14_3 C17_3 1_555 1_555
C18_3 C1_6 1_555 1_555
H15_3 C18_3 1_555 1_555
H16_3 C18_3 1_555 1_555
C19_3 C15_3 1_555 1_555
H17_3 C19_3 1_555 1_555
C20_3 N8_4 1_555 1_555
H18_3 C20_3 1_555 1_555
O2_3 C12_3 1_555 1_555
C11_3 C14_3 1_555 1_555
O3_3 C18_3 1_555 1_555
C17_3 C20_3 1_555 1_555
H2_4 C5_4 1_555 1_555
O2_4 C10_4 1_555 1_555
N9_2 C13_4 1_555 1_555
C9_4 H7_4 1_555 1_555
C10_4 C9_4 1_555 1_555
C12_4 C1_7 1_555 1_555
H9_4 C12_4 1_555 1_555
H10_4 C12_4 1_555 1_555
C13_4 C9_4 1_555 1_555
H11_4 C13_4 1_555 1_555
C14_4 N9_2 1_555 1_555
H14_4 C17_4 1_555 1_555
O4_4 C22_4 1_555 1_555
N9_4 C25_4 1_555 1_555
C21_4 H19_4 1_555 1_555
C22_4 C21_4 1_555 1_555
C24_4 C1_7 1_555 1_555
H21_4 C24_4 1_555 1_555
H22_4 C24_4 1_555 1_555
C25_4 C21_4 1_555 1_555
H23_4 C25_4 1_555 1_555
C26_4 N9_4 1_555 1_555
O2_4 C12_4 1_555 1_555
O4_4 C24_4 1_555 1_555
O1_4 C4_4 1_555 1_555
C1_8 C6_4 1_555 1_555
N9 C7_4 1_555 1_555
C2_4 H1_4 1_555 1_555
C4_4 C2_4 1_555 1_555
C6_4 O1_4 1_555 1_555
H3_4 C6_4 1_555 1_555
H4_4 C6_4 1_555 1_555
C7_4 C2_4 1_555 1_555
H5_4 C7_4 1_555 1_555
C8_4 N9 1_555 1_555
H8_4 C11_4 1_555 1_555
O3_4 C16_4 1_555 1_555
N9_3 C19_4 1_555 1_555
C15_4 H13_4 1_555 1_555
C16_4 C15_4 1_555 1_555
C18_4 C1_8 1_555 1_555
H15_4 C18_4 1_555 1_555
H16_4 C18_4 1_555 1_555
C19_4 C15_4 1_555 1_555
H17_4 C19_4 1_555 1_555
C20_4 N9_3 1_555 1_555
H20_4 C23_4 1_555 1_555
O3_4 C18_4 1_555 1_555

#END
