
###############################################################################
#
# This file contains modified crystal structure data generated from the
# MOF subset of the Cambridge Structural Database (CSD) v543 
# hosted by the Cambridge Crystallographic Data Centre (CCDC).
#
# This work is licensed under the Creative Commons
# Attribution-NonCommercial-ShareAlike 4.0 International License.
# To view a copy of this license, visit
# http://creativecommons.org/licenses/by-nc-sa/4.0/
# or send a letter to
# Creative Commons, PO Box 1866, Mountain View, CA 94042, USA.
#
# CIF created using the CSD Python API on 29 September 2022
# The structure has been converted into the P1 space group
# The structure has a 3D framework
# The original CSD entry VALQUY is in the triclinic crystal system
# The framework has been calculated to contain at least 10.0% void space
# The void calculation uses a probe of radius 1.32A, grid spacing 0.4
# The framework is charged, counterions have been retained in the structure
# H atom positions have been added when not included in the experimental data
# Generated hydrogen atom positions removed from atoms on special positions
#
###############################################################################

data_VALQUY
_chemical_formula_moiety         '(C118 H106 Co5 N12 O32)n'
_symmetry_cell_setting           triclinic
_symmetry_space_group_name_H-M   'P 1'
_symmetry_Int_Tables_number      1
_space_group_name_Hall           'P 1'
loop_
_symmetry_equiv_pos_site_id
_symmetry_equiv_pos_as_xyz
1 x,y,z
_cell_length_a                   14.1982(15)
_cell_length_b                   16.0559(17)
_cell_length_c                   16.8088(19)
_cell_angle_alpha                94.221(3)
_cell_angle_beta                 99.465(3)
_cell_angle_gamma                103.118(3)
_cell_volume                     3656.4
loop_
_atom_site_label
_atom_site_type_symbol
_atom_site_fract_x
_atom_site_fract_y
_atom_site_fract_z
Co14 Co 0.03794(7) 0.21023(6) 0.21053(6)
O38 O 0.0451(4) 0.8693(4) 0.7205(3)
O40 O 0.0933(4) 0.7701(3) 0.8519(3)
H82 H 0.0109116 0.658014 0.718911
H6 H 0.6328(6) 0.0152(5) 0.0998(5)
N8 N 0.2937(5) 0.0659(4) 0.0537(4)
C70 C 0.4567(6) 0.0134(6) 0.0113(5)
C71 C 0.3741(7) 0.0714(8) 0.1073(6)
H47 H 0.3767(7) 0.0951(8) 0.1613(6)
C72 C 0.4554(8) 0.0448(8) 0.0897(6)
H48 H 0.5104(8) 0.0482(8) 0.1317(6)
Co7 Co 0.16688(7) 0.09730(6) 0.09541(6)
O5 O 0.9201(5) 0.0077(4) 0.1966(4)
O6 O 0.9549(4) 0.1307(4) 0.2795(3)
O9 O 0.8871(4) 0.0410(3) 0.9040(3)
C18 C 0.8229(6) 0.0165(5) 0.2953(5)
C22 C 0.9065(6) 0.0551(6) 0.2550(5)
C23 C 0.7327(6) 0.0200(6) 0.4052(5)
H12 H 0.7254(6) 0.0473(6) 0.4551(5)
C24 C 0.8094(6) 0.0561(6) 0.3666(6)
H13 H 0.8533(6) 0.1093(6) 0.3900(6)
C68 C 0.3712(6) 0.0070(5) 0.9549(5)
C69 C 0.2919(6) 0.0328(5) 0.9778(5)
H46 H 0.2341(6) 0.0268(5) 0.9381(5)
C13 C 0.6288(6) 0.9930(5) 0.0451(5)
C15 C 0.7081(6) 0.9672(5) 0.0222(5)
H7 H 0.7659(6) 0.9732(5) 0.0619(5)
O10 O 0.9024(4) 0.9074(3) 0.0294(3)
O12 O 0.8844(4) 0.1413(4) 0.0343(3)
O13 O 0.9067(4) 0.2299(3) 0.1481(3)
C47 C 0.7825(6) 0.2401(5) 0.0396(5)
C48 C 0.7732(6) 0.3158(6) 0.0778(5)
H31 H 0.8111(6) 0.3381(6) 0.1301(5)
C49 C 0.7070(7) 0.3602(6) 0.0387(6)
H32 H 0.7029(7) 0.4140(6) 0.0635(6)
C50 C 0.8620(6) 0.2000(5) 0.0774(5)
N6 N 0.0107(5) 0.6804(4) 0.1390(4)
C58 C 0.0029(6) 0.5370(5) 0.0295(5)
C59 C 0.0046(7) 0.6188(6) 0.0050(5)
C60 C 0.0086(7) 0.6872(6) 0.0613(5)
H38 H 0.0099(7) 0.7420(6) 0.0430(5)
C61 C 0.0103(9) 0.6024(7) 0.1629(6)
H39 H 0.0143(9) 0.5963(7) 0.2191(6)
C62 C 0.0045(9) 0.5314(6) 0.1108(6)
H40 H 0.0016(9) 0.4773(6) 0.1310(6)
Co10 Co 0.00445(7) 0.77932(6) 0.22500(6)
Co1 Co 0.83312(7) 0.90270(6) 0.90459(6)
O1 O 0.7709(4) 0.9019(3) 0.7837(3)
C1 C 0.7783(5) 0.8538(5) 0.7239(5)
O2 O 0.8322(4) 0.8007(4) 0.7234(3)
C2 C 0.7185(6) 0.8597(5) 0.6420(5)
Co3 Co 0.96206(7) 0.78977(6) 0.78947(6)
O3 O 0.1276(4) 0.7544(3) 0.3009(3)
C3 C 0.7279(6) 0.8137(6) 0.5732(5)
H1 H 0.7671(6) 0.7730(6) 0.5785(5)
O4 O 0.1481(4) 0.8509(3) 0.2155(3)
C4 C 0.6837(6) 0.8237(5) 0.4976(5)
H2 H 0.6905(6) 0.7898(5) 0.4511(5)
C5 C 0.6276(5) 0.8855(5) 0.4901(5)
C6 C 0.6133(7) 0.9297(6) 0.5591(5)
H3 H 0.5723(7) 0.9690(6) 0.5543(5)
C7 C 0.6581(6) 0.9170(6) 0.6350(5)
H4 H 0.6478(6) 0.9473(6) 0.6822(5)
O7 O 0.9529(5) 0.6823(4) 0.7039(4)
O8 O 0.9694(4) 0.8979(3) 0.8762(3)
C8 C 0.6679(6) 0.9441(6) 0.3698(5)
C9 C 0.6795(6) 0.9037(5) 0.2973(5)
H5 H 0.6344(6) 0.8514(5) 0.2728(5)
N2 N 0.0030(4) 0.1343(4) 0.6782(4)
C10 C 0.0002(6) 0.0281(5) 0.5364(5)
C12 C 0.1763(5) 0.2610(5) 0.8201(4)
C14 C 0.2851(5) 0.2880(5) 0.8461(5)
C16 C 0.7578(6) 0.9403(6) 0.2608(5)
H8 H 0.7663(6) 0.9124(6) 0.2117(5)
C17 C 0.3341(6) 0.2485(5) 0.9026(5)
H9 H 0.2979(6) 0.2018(5) 0.9253(5)
O11 O 0.7747(4) 0.7745(3) 0.9036(3)
C19 C 0.3373(6) 0.3531(6) 0.8108(6)
H10 H 0.3045(6) 0.3792(6) 0.7693(6)
C20 C 0.4590(6) 0.9120(5) 0.3030(5)
H11 H 0.5042(6) 0.9488(5) 0.2773(5)
C21 C 0.4923(5) 0.8802(6) 0.3752(5)
O14 O 0.1247(4) 0.2037(3) 0.8526(3)
O15 O 0.1350(4) 0.2982(3) 0.7646(3)
O16 O 0.8894(4) 0.7109(3) 0.8614(4)
C25 C 0.3581(5) 0.8890(5) 0.2690(5)
H14 H 0.3347(5) 0.9108(5) 0.2205(5)
N3 N 0.5917(5) 0.9036(5) 0.4104(4)
C26 C 0.4357(6) 0.2747(5) 0.9280(5)
H15 H 0.4684(6) 0.2461(5) 0.9673(5)
C27 C 0.2924(5) 0.8341(5) 0.3062(5)
N4 N 0.5900(5) 0.3746(4) 0.9234(5)
C28 C 0.3273(6) 0.8036(6) 0.3762(5)
H16 H 0.2823(6) 0.7663(6) 0.4016(5)
N5 N 0.7063(5) 0.9341(4) 0.9463(4)
C29 C 0.5433(6) 0.9866(6) 0.9887(5)
C32 C 0.4881(6) 0.3424(5) 0.8955(6)
C33 C 0.0623(7) 0.1088(6) 0.5549(6)
H19 H 0.1066(7) 0.1301(6) 0.5203(6)
C35 C 0.4257(6) 0.8254(6) 0.4106(6)
H21 H 0.4479(6) 0.8027(6) 0.4588(6)
C36 C 0.6259(7) 0.9286(8) 0.8927(6)
H22 H 0.6233(7) 0.9049(8) 0.8387(6)
C37 C 0.1852(5) 0.8127(5) 0.2720(5)
C39 C 0.4402(6) 0.3810(6) 0.8365(6)
H24 H 0.4767(6) 0.4268(6) 0.8130(6)
C40 C 0.0592(7) 0.1585(6) 0.6245(6)
H25 H 0.1011(7) 0.2150(6) 0.6348(6)
C43 C 0.5446(8) 0.9552(8) 0.9103(6)
H28 H 0.4896(8) 0.9518(8) 0.8683(6)
C44 C 0.6491(6) 0.3258(5) 0.9656(5)
C45 C 0.6567(6) 0.2461(6) 0.9289(6)
H29 H 0.6160(6) 0.2212(6) 0.8782(6)
C46 C 0.7230(6) 0.2050(6) 0.9668(6)
H30 H 0.7276(6) 0.1512(6) 0.9422(6)
C51 C 0.6414(6) 0.4596(6) 0.9112(6)
C52 C 0.7257(7) 0.4698(6) 0.8811(7)
H33 H 0.7501(7) 0.4211(6) 0.8682(7)
C53 C 0.7765(8) 0.5511(6) 0.8690(7)
H34 H 0.8321(8) 0.5565(6) 0.8434(7)
C54 C 0.7488(6) 0.6228(6) 0.8927(5)
C55 C 0.6625(7) 0.6121(6) 0.9239(6)
H35 H 0.6395(7) 0.6611(6) 0.9386(6)
C56 C 0.6093(7) 0.5304(6) 0.9338(6)
H36 H 0.5511(7) 0.5239(6) 0.9562(6)
C57 C 0.8080(6) 0.7105(5) 0.8860(5)
H37 H 0.0029(7) 0.6272(6) 0.9495(5)
H42 H 0.1006(7) 0.0544(6) 0.4174(6)
H45 H 0.3672(6) 0.9848(5) 0.9002(5)
H81 H 0.951764 0.701123 0.648858
C65 C 0.0579(7) 0.9984(6) 0.4081(6)
C66 C 0.0556(7) 0.9456(6) 0.3398(5)
H43 H 0.0974(7) 0.9665(6) 0.3032(5)
H17 H 0.9971(7) 0.3728(6) 0.0505(5)
Co2 Co 0.99555(7) 0.22068(6) 0.77500(6)
N1 N 0.9893(5) 0.3196(4) 0.8610(4)
C11 C 0.9971(6) 0.4630(5) 0.9705(5)
C30 C 0.9954(7) 0.3812(6) 0.9950(5)
C31 C 0.9914(7) 0.3128(6) 0.9387(5)
H18 H 0.9901(7) 0.2580(6) 0.9570(5)
C34 C 0.9421(7) 0.0016(6) 0.5919(6)
C38 C 0.9444(7) 0.0544(6) 0.6602(5)
H23 H 0.9026(7) 0.0335(6) 0.6968(5)
C41 C 0.9897(9) 0.3976(7) 0.8371(6)
H26 H 0.9857(9) 0.4037(7) 0.7809(6)
C42 C 0.9955(9) 0.4686(6) 0.8892(6)
H27 H 0.9984(9) 0.5227(6) 0.8690(6)
O34 O 0.8724(4) 0.2456(3) 0.6991(3)
O36 O 0.8519(4) 0.1491(3) 0.7845(3)
H20 H 0.8994(7) 0.9456(6) 0.5826(6)
N7 N 0.9970(4) 0.8657(4) 0.3218(4)
C63 C 0.9998(6) 0.9719(5) 0.4636(5)
C64 C 0.9377(7) 0.8912(6) 0.4451(6)
H41 H 0.8934(7) 0.8699(6) 0.4797(6)
C67 C 0.9408(7) 0.8415(6) 0.3755(6)
H44 H 0.8989(7) 0.7850(6) 0.3652(6)
O17 O 0.2291(4) 0.0981(3) 0.2163(3)
C73 C 0.2217(5) 0.1462(5) 0.2761(5)
O18 O 0.1678(4) 0.1993(4) 0.2766(3)
C74 C 0.2815(6) 0.1403(5) 0.3580(5)
C75 C 0.2721(6) 0.1863(6) 0.4268(5)
H49 H 0.2329(6) 0.2270(6) 0.4215(5)
C76 C 0.3163(6) 0.1763(5) 0.5024(5)
H50 H 0.3095(6) 0.2102(5) 0.5489(5)
C77 C 0.3724(5) 0.1145(5) 0.5099(5)
C78 C 0.3867(7) 0.0703(6) 0.4409(5)
H51 H 0.4277(7) 0.0310(6) 0.4457(5)
C79 C 0.3419(6) 0.0830(6) 0.3650(5)
H52 H 0.3522(6) 0.0527(6) 0.3178(5)
O23 O 0.0471(5) 0.3177(4) 0.2961(4)
O24 O 0.0306(4) 0.1021(3) 0.1238(3)
C80 C 0.3321(6) 0.0559(6) 0.6302(5)
C81 C 0.3205(6) 0.0963(5) 0.7027(5)
H53 H 0.3656(6) 0.1486(5) 0.7272(5)
C82 C 0.8237(5) 0.7390(5) 0.1799(4)
C83 C 0.7149(5) 0.7120(5) 0.1539(5)
C84 C 0.2422(6) 0.0597(6) 0.7392(5)
H54 H 0.2337(6) 0.0876(6) 0.7883(5)
C85 C 0.6659(6) 0.7515(5) 0.0974(5)
H55 H 0.7021(6) 0.7982(5) 0.0747(5)
O27 O 0.2253(4) 0.2255(3) 0.0964(3)
C87 C 0.6627(6) 0.6469(6) 0.1892(6)
H56 H 0.6955(6) 0.6208(6) 0.2307(6)
C88 C 0.5410(6) 0.0880(5) 0.6970(5)
H57 H 0.4958(6) 0.0512(5) 0.7227(5)
C89 C 0.5077(5) 0.1198(6) 0.6248(5)
O30 O 0.8753(4) 0.7963(3) 0.1474(3)
O31 O 0.8650(4) 0.7018(3) 0.2354(3)
O32 O 0.1106(4) 0.2891(3) 0.1386(4)
C93 C 0.6419(5) 0.1110(5) 0.7310(5)
H60 H 0.6653(5) 0.0892(5) 0.7795(5)
N9 N 0.4083(5) 0.0964(5) 0.5896(4)
C94 C 0.5643(6) 0.7253(5) 0.0720(5)
H61 H 0.5316(6) 0.7539(5) 0.0327(5)
C95 C 0.7076(5) 0.1659(5) 0.6938(5)
N10 N 0.4100(5) 0.6254(4) 0.0766(5)
C96 C 0.6727(6) 0.1964(6) 0.6238(5)
H62 H 0.7177(6) 0.2337(6) 0.5984(5)
C97 C 0.5119(6) 0.6576(5) 0.1045(6)
C98 C 0.5743(6) 0.1746(6) 0.5894(6)
H63 H 0.5521(6) 0.1973(6) 0.5412(6)
C99 C 0.8148(5) 0.1873(5) 0.7280(5)
C100 C 0.5598(6) 0.6190(6) 0.1635(6)
H64 H 0.5233(6) 0.5732(6) 0.1870(6)
C101 C 0.3509(6) 0.6742(5) 0.0344(5)
C102 C 0.3433(6) 0.7539(6) 0.0711(6)
H65 H 0.3840(6) 0.7788(6) 0.1218(6)
C103 C 0.2770(6) 0.7950(6) 0.0332(6)
H66 H 0.2724(6) 0.8488(6) 0.0578(6)
C108 C 0.3586(6) 0.5404(6) 0.0888(6)
C109 C 0.2743(7) 0.5302(6) 0.1189(7)
H69 H 0.2499(7) 0.5789(6) 0.1318(7)
C110 C 0.2235(8) 0.4489(6) 0.1310(7)
H70 H 0.1679(8) 0.4435(6) 0.1566(7)
C111 C 0.2512(6) 0.3772(6) 0.1073(5)
C112 C 0.3375(7) 0.3879(6) 0.0761(6)
H71 H 0.3605(7) 0.3389(6) 0.0614(6)
C113 C 0.3907(7) 0.4696(6) 0.0662(6)
H72 H 0.4489(7) 0.4761(6) 0.0438(6)
C114 C 0.1920(6) 0.2895(5) 0.1140(5)
H89 H 0.108247 0.362353 0.295972
O26 O 0.0976(4) 0.0926(3) 0.9706(3)
O28 O 0.1156(4) 0.8587(4) 0.9657(3)
C104 C 0.2175(6) 0.7599(5) 0.9604(5)
C105 C 0.2268(6) 0.6842(6) 0.9222(5)
H67 H 0.1889(6) 0.6619(6) 0.8699(5)
C106 C 0.2930(7) 0.6398(6) 0.9613(6)
H68 H 0.2971(7) 0.5860(6) 0.9365(6)
C107 C 0.1380(6) 0.8000(5) 0.9226(5)
O21 O 0.0799(5) 0.9923(4) 0.8034(4)
O25 O 0.1129(4) 0.9590(3) 0.0960(3)
C86 C 0.1771(6) 0.9835(5) 0.7047(5)
C90 C 0.0935(6) 0.9449(6) 0.7450(5)
C91 C 0.2673(6) 0.9800(6) 0.5948(5)
H58 H 0.2746(6) 0.9527(6) 0.5449(5)
C92 C 0.1906(6) 0.9439(6) 0.6334(6)
H59 H 0.1467(6) 0.8907(6) 0.6100(6)
H90 H 0.989088 0.341986 0.281089
H89_2 H 0.891753 0.637647 0.704028
H81_2 H 0.0482362 0.298877 0.351142
C115 C 0.280(4) 0.764(2) 0.659(2)
H73 H 0.34(3) 0.77(5) 0.63(4)
H74 H 0.26(8) 0.705(6) 0.672(8)
H75 H 0.23(6) 0.78(5) 0.62(3)
C116 C 0.3873(11) 0.8936(8) 0.7562(7)
H76 H 0.444(2) 0.886(3) 0.733(5)
H77 H 0.369(3) 0.9459(11) 0.740(5)
H78 H 0.405(5) 0.899(4) 0.8156(8)
N13 N 0.3030(12) 0.8179(17) 0.7269(18)
H79 H 0.2481(12) 0.8390(17) 0.7281(18)
H80 H 0.3051(12) 0.7830(17) 0.7679(18)
C115_2 C 0.720(4) 0.236(2) 0.341(2)
H73_2 H 0.66(3) 0.23(5) 0.37(4)
H74_2 H 0.74(8) 0.295(6) 0.328(8)
H75_2 H 0.77(6) 0.22(5) 0.38(3)
C116_2 C 0.6127(11) 0.1064(8) 0.2438(7)
H76_2 H 0.556(2) 0.114(3) 0.267(5)
H77_2 H 0.631(3) 0.0541(11) 0.260(5)
H78_2 H 0.595(5) 0.101(4) 0.1844(8)
N13_2 N 0.6970(12) 0.1821(17) 0.2731(18)
H79_2 H 0.7519(12) 0.1610(17) 0.2719(18)
H80_2 H 0.6949(12) 0.2170(17) 0.2321(18)
loop_
_geom_bond_atom_site_label_1
_geom_bond_atom_site_label_2
_geom_bond_site_symmetry_1
_geom_bond_site_symmetry_2
C71 N8 1_555 1_555
H47 C71 1_555 1_555
C72 C70 1_555 1_555
H48 C72 1_555 1_555
Co7 N8 1_555 1_555
C71 C72 1_555 1_555
O5 C22 1_555 1_555
O6 C22 1_555 1_555
C22 C18 1_555 1_555
H12 C23 1_555 1_555
C24 C18 1_555 1_555
H13 C24 1_555 1_555
C69 C68 1_555 1_555
H46 C69 1_555 1_555
C23 C24 1_555 1_555
C15 C13 1_555 1_555
H7 C15 1_555 1_555
O12 C50 1_555 1_555
O13 C50 1_555 1_555
C48 C47 1_555 1_555
H31 C48 1_555 1_555
H32 C49 1_555 1_555
C50 C47 1_555 1_555
N6 C60 1_555 1_555
C59 C58 1_555 1_555
C60 C59 1_555 1_555
H38 C60 1_555 1_555
C61 N6 1_555 1_555
H39 C61 1_555 1_555
C62 C58 1_555 1_555
H40 C62 1_555 1_555
Co10 N6 1_555 1_555
C48 C49 1_555 1_555
C61 C62 1_555 1_555
Co1 O1 1_555 1_555
O1 C1 1_555 1_555
C1 O2 1_555 1_555
O2 Co3 1_555 1_555
C2 C1 1_555 1_555
Co3 O7 1_555 1_555
O3 C37 1_555 1_555
C3 C2 1_555 1_555
H1 C3 1_555 1_555
O4 C37 1_555 1_555
C4 C3 1_555 1_555
H2 C4 1_555 1_555
C5 C4 1_555 1_555
C6 C5 1_555 1_555
H3 C6 1_555 1_555
C7 C2 1_555 1_555
H4 C7 1_555 1_555
O8 Co1 1_555 1_555
C8 C9 1_555 1_555
C9 H5 1_555 1_555
C10 C33 1_555 1_555
C12 C14 1_555 1_555
C14 C17 1_555 1_555
C16 C9 1_555 1_555
H8 C16 1_555 1_555
C17 H9 1_555 1_555
O11 Co1 1_555 1_555
C19 C14 1_555 1_555
H10 C19 1_555 1_555
C20 H11 1_555 1_555
C21 C20 1_555 1_555
O16 Co3 1_555 1_555
C25 C20 1_555 1_555
H14 C25 1_555 1_555
N3 C5 1_555 1_555
C26 C17 1_555 1_555
H15 C26 1_555 1_555
C27 C25 1_555 1_555
N4 C32 1_555 1_555
C28 C27 1_555 1_555
H16 C28 1_555 1_555
N5 Co1 1_555 1_555
C32 C26 1_555 1_555
C33 H19 1_555 1_555
C35 C21 1_555 1_555
H21 C35 1_555 1_555
C36 N5 1_555 1_555
H22 C36 1_555 1_555
C37 C27 1_555 1_555
C39 C19 1_555 1_555
H24 C39 1_555 1_555
C40 N2 1_555 1_555
H25 C40 1_555 1_555
C43 C29 1_555 1_555
H28 C43 1_555 1_555
C44 N4 1_555 1_555
C45 C44 1_555 1_555
H29 C45 1_555 1_555
C46 C45 1_555 1_555
H30 C46 1_555 1_555
C51 N4 1_555 1_555
C52 C51 1_555 1_555
H33 C52 1_555 1_555
C53 C52 1_555 1_555
H34 C53 1_555 1_555
C54 C53 1_555 1_555
C55 C54 1_555 1_555
H35 C55 1_555 1_555
C56 C51 1_555 1_555
H36 C56 1_555 1_555
C57 O11 1_555 1_555
Co10 O3 1_555 1_555
Co3 O8 1_555 1_555
O4 Co10 1_555 1_555
C6 C7 1_555 1_555
C8 N3 1_555 1_555
C12 O14 1_555 1_555
C12 O15 1_555 1_555
C21 N3 1_555 1_555
O16 C57 1_555 1_555
C28 C35 1_555 1_555
C32 C39 1_555 1_555
C33 C40 1_555 1_555
C36 C43 1_555 1_555
C54 C57 1_555 1_555
C55 C56 1_555 1_555
O7 H81 1_555 1_555
C66 C65 1_555 1_555
H43 C66 1_555 1_555
Co2 N1 1_555 1_555
N1 C31 1_555 1_555
C11 C30 1_555 1_555
C31 C30 1_555 1_555
H18 C31 1_555 1_555
H23 C38 1_555 1_555
C41 N1 1_555 1_555
H26 C41 1_555 1_555
C42 C11 1_555 1_555
H27 C42 1_555 1_555
O34 Co2 1_555 1_555
O36 Co2 1_555 1_555
C34 C38 1_555 1_555
C41 C42 1_555 1_555
C64 C63 1_555 1_555
H41 C64 1_555 1_555
C67 N7 1_555 1_555
H44 C67 1_555 1_555
Co7 O17 1_555 1_555
O17 C73 1_555 1_555
C73 O18 1_555 1_555
O18 Co14 1_555 1_555
C74 C73 1_555 1_555
Co14 O23 1_555 1_555
O34 C99 1_555 1_555
C75 C74 1_555 1_555
H49 C75 1_555 1_555
O36 C99 1_555 1_555
C76 C75 1_555 1_555
H50 C76 1_555 1_555
C77 C76 1_555 1_555
C78 C77 1_555 1_555
H51 C78 1_555 1_555
C79 C74 1_555 1_555
H52 C79 1_555 1_555
O24 Co7 1_555 1_555
C80 C81 1_555 1_555
C81 H53 1_555 1_555
C82 C83 1_555 1_555
C83 C85 1_555 1_555
C84 C81 1_555 1_555
H54 C84 1_555 1_555
C85 H55 1_555 1_555
O27 Co7 1_555 1_555
C87 C83 1_555 1_555
H56 C87 1_555 1_555
C88 H57 1_555 1_555
C89 C88 1_555 1_555
O32 Co14 1_555 1_555
C93 C88 1_555 1_555
H60 C93 1_555 1_555
N9 C77 1_555 1_555
C94 C85 1_555 1_555
H61 C94 1_555 1_555
C95 C93 1_555 1_555
N10 C97 1_555 1_555
C96 C95 1_555 1_555
H62 C96 1_555 1_555
C97 C94 1_555 1_555
C98 C89 1_555 1_555
H63 C98 1_555 1_555
C99 C95 1_555 1_555
C100 C87 1_555 1_555
H64 C100 1_555 1_555
C101 N10 1_555 1_555
C102 C101 1_555 1_555
H65 C102 1_555 1_555
C103 C102 1_555 1_555
H66 C103 1_555 1_555
C108 N10 1_555 1_555
C109 C108 1_555 1_555
H69 C109 1_555 1_555
C110 C109 1_555 1_555
H70 C110 1_555 1_555
C111 C110 1_555 1_555
C112 C111 1_555 1_555
H71 C112 1_555 1_555
C113 C108 1_555 1_555
H72 C113 1_555 1_555
C114 O27 1_555 1_555
C64 C67 1_555 1_555
Co14 O24 1_555 1_555
C78 C79 1_555 1_555
C80 N9 1_555 1_555
C82 O30 1_555 1_555
C82 O31 1_555 1_555
C89 N9 1_555 1_555
O32 C114 1_555 1_555
C96 C98 1_555 1_555
C97 C100 1_555 1_555
C111 C114 1_555 1_555
C112 C113 1_555 1_555
O23 H89 1_555 1_555
O28 C107 1_555 1_555
O40 C107 1_555 1_555
C105 C104 1_555 1_555
H67 C105 1_555 1_555
H68 C106 1_555 1_555
C107 C104 1_555 1_555
C105 C106 1_555 1_555
O21 C90 1_555 1_555
O38 C90 1_555 1_555
C90 C86 1_555 1_555
H58 C91 1_555 1_555
C92 C86 1_555 1_555
H59 C92 1_555 1_555
C91 C92 1_555 1_555
O7 H89_2 1_555 1_555
O23 H81_2 1_555 1_555
C115 H73 1_555 1_555
H74 C115 1_555 1_555
H75 C115 1_555 1_555
C116 H76 1_555 1_555
H77 C116 1_555 1_555
H78 C116 1_555 1_555
N13 C115 1_555 1_555
H79 N13 1_555 1_555
H80 N13 1_555 1_555
C116 N13 1_555 1_555
C115_2 H73_2 1_555 1_555
H74_2 C115_2 1_555 1_555
H75_2 C115_2 1_555 1_555
C116_2 H76_2 1_555 1_555
H77_2 C116_2 1_555 1_555
H78_2 C116_2 1_555 1_555
N13_2 C115_2 1_555 1_555
H79_2 N13_2 1_555 1_555
H80_2 N13_2 1_555 1_555
C116_2 N13_2 1_555 1_555

#END
