
###############################################################################
#
# This file contains modified crystal structure data generated from the
# MOF subset of the Cambridge Structural Database (CSD) v543 
# hosted by the Cambridge Crystallographic Data Centre (CCDC).
#
# This work is licensed under the Creative Commons
# Attribution-NonCommercial-ShareAlike 4.0 International License.
# To view a copy of this license, visit
# http://creativecommons.org/licenses/by-nc-sa/4.0/
# or send a letter to
# Creative Commons, PO Box 1866, Mountain View, CA 94042, USA.
#
# CIF created using the CSD Python API on 29 September 2022
# The structure has been converted into the P1 space group
# The structure has a 3D framework
# The original CSD entry VAMQAE is in the rhombohedral crystal system
# The framework has been calculated to contain at least 10.0% void space
# The void calculation uses a probe of radius 1.32A, grid spacing 0.4
#
###############################################################################

data_VAMQAE
_chemical_formula_moiety         '(C72 H18 Co18 N36 O48)n'
_symmetry_cell_setting           triclinic
_symmetry_space_group_name_H-M   'P 1'
_symmetry_Int_Tables_number      1
_space_group_name_Hall           'P 1'
loop_
_symmetry_equiv_pos_site_id
_symmetry_equiv_pos_as_xyz
1 x,y,z
_cell_length_a                   25.810(8)
_cell_length_b                   25.810(8)
_cell_length_c                   6.901(2)
_cell_angle_alpha                90
_cell_angle_beta                 90
_cell_angle_gamma                120
_cell_volume                     3981.24
loop_
_atom_site_label
_atom_site_type_symbol
_atom_site_fract_x
_atom_site_fract_y
_atom_site_fract_z
Co1 Co 0.68593(3) 0.05053(3) 0.02140(10)
O1 O 0.60782(15) 0.02285(16) 0.1627(5)
C1 C 0.5558(2) 0.0108(2) 0.0776(7)
O5 O 0.37045(16) 0.00762(16) 0.1921(4)
O6 O 0.43644(15) 0.02973(22) 0.4286(5)
C6 C 0.4587(2) 0.0048(2) 0.1200(7)
C7 C 0.5133(2) 0.0148(2) 0.1916(7)
H2 H 0.5221 0.0248 0.3246
C8 C 0.4196(2) 0.0142(2) 0.2563(7)
Co6 Co 0.30207(4) 0.01926(3) 0.31193(10)
Co8 Co 0.38386(3) 0.03127(4) 0.64527(10)
O11 O 0.74004(27) 0.10311(15) 0.2381(5)
N1 N 0.6889(3) 0.1339(3) 0.9158(8)
N2 N 0.6949(7) 0.1775(5) 0.8866(18)
O7 O 0.74836(22) 0.05885(15) 0.8294(5)
O10 O 0.32571(16) 0.02950(23) 0.8588(4)
N3 N 0.3111(3) 0.8661(3) 0.0842(8)
N4 N 0.3051(7) 0.8225(5) 0.1134(18)
Co4 Co 0.61614(3) 0.96873(4) 0.35473(10)
O8 O 0.25164(22) 0.94115(15) 0.1706(5)
O9 O 0.67429(16) 0.97050(23) 0.1412(4)
O2 O 0.62955(16) 0.99238(16) 0.8079(4)
O3 O 0.56356(15) 0.97027(22) 0.5714(5)
C2 C 0.5413(2) 0.9952(2) 0.8800(7)
C3 C 0.4867(2) 0.9852(2) 0.8084(7)
H1 H 0.4779 0.9752 0.6754
C4 C 0.5804(2) 0.9858(2) 0.7437(7)
O4 O 0.39218(15) 0.97715(16) 0.8373(5)
C5 C 0.4442(2) 0.9892(2) 0.9224(7)
Co2 Co 0.31407(3) 0.94947(3) 0.97860(10)
Co5 Co 0.69793(4) 0.98074(3) 0.68807(10)
O12 O 0.25996(27) 0.89689(15) 0.7619(5)
N3_2 N 0.1339(3) 0.4450(4) 0.0842(8)
N4_2 N 0.1775(5) 0.4826(9) 0.1134(18)
Co4_2 Co 0.03127(4) 0.64740(5) 0.35473(10)
O8_2 O 0.05885(15) 0.31048(27) 0.1706(5)
O9_2 O 0.02950(23) 0.70378(28) 0.1412(4)
O2_2 O 0.00762(16) 0.63717(23) 0.8079(4)
O3_2 O 0.02973(22) 0.59329(27) 0.5714(5)
C2_2 C 0.0048(2) 0.5461(3) 0.8800(7)
C3_2 C 0.0148(2) 0.5015(3) 0.8084(7)
H1_2 H 0.0248 0.5027 0.6754
C4_2 C 0.0142(2) 0.5946(3) 0.7437(7)
O4_2 O 0.02285(16) 0.41503(22) 0.8373(5)
C5_2 C 0.0108(2) 0.4550(3) 0.9224(7)
Co2_2 Co 0.05053(3) 0.36460(4) 0.97860(10)
Co5_2 Co 0.01926(3) 0.71720(5) 0.68807(10)
O12_2 O 0.10311(15) 0.36306(31) 0.7619(5)
Co1_2 Co 0.94947(3) 0.63540(4) 0.02140(10)
O1_2 O 0.97715(16) 0.58497(22) 0.1627(5)
C1_2 C 0.9892(2) 0.5450(3) 0.0776(7)
O5_2 O 0.99238(16) 0.36283(23) 0.1921(4)
O6_2 O 0.97027(22) 0.40671(27) 0.4286(5)
C6_2 C 0.9952(2) 0.4539(3) 0.1200(7)
C7_2 C 0.9852(2) 0.4985(3) 0.1916(7)
H2_2 H 0.9752 0.4973 0.3246
C8_2 C 0.9858(2) 0.4054(3) 0.2563(7)
Co6_2 Co 0.98074(3) 0.28280(5) 0.31193(10)
Co8_2 Co 0.96873(4) 0.35260(5) 0.64527(10)
O11_2 O 0.89689(15) 0.63694(31) 0.2381(5)
N1_2 N 0.8661(3) 0.5550(4) 0.9158(8)
N2_2 N 0.8225(5) 0.5174(9) 0.8866(18)
O7_2 O 0.94115(15) 0.68952(27) 0.8294(5)
O10_2 O 0.97050(23) 0.29622(28) 0.8588(4)
Co1_3 Co 0.36460(4) 0.31407(3) 0.02140(10)
O1_3 O 0.41503(22) 0.39218(15) 0.1627(5)
C1_3 C 0.4550(3) 0.4442(2) 0.0776(7)
O5_3 O 0.63717(23) 0.62955(16) 0.1921(4)
O6_3 O 0.59329(27) 0.56356(15) 0.4286(5)
C6_3 C 0.5461(3) 0.5413(2) 0.1200(7)
C7_3 C 0.5015(3) 0.4867(2) 0.1916(7)
H2_3 H 0.5027 0.4779 0.3246
C8_3 C 0.5946(3) 0.5804(2) 0.2563(7)
N3_3 N 0.5550(4) 0.6889(3) 0.0842(8)
N4_3 N 0.5174(9) 0.6949(7) 0.1134(18)
Co4_3 Co 0.35260(5) 0.38386(3) 0.35473(10)
Co6_3 Co 0.71720(5) 0.69793(4) 0.31193(10)
Co8_3 Co 0.64740(5) 0.61614(3) 0.64527(10)
O8_3 O 0.68952(27) 0.74836(22) 0.1706(5)
O9_3 O 0.29622(28) 0.32571(16) 0.1412(4)
O11_3 O 0.36306(31) 0.25996(27) 0.2381(5)
O2_3 O 0.36283(23) 0.37045(16) 0.8079(4)
O3_3 O 0.40671(27) 0.43644(15) 0.5714(5)
N1_3 N 0.4450(4) 0.3111(3) 0.9158(8)
N2_3 N 0.4826(9) 0.3051(7) 0.8866(18)
C2_3 C 0.4539(3) 0.4587(2) 0.8800(7)
C3_3 C 0.4985(3) 0.5133(2) 0.8084(7)
H1_3 H 0.4973 0.5221 0.6754
C4_3 C 0.4054(3) 0.4196(2) 0.7437(7)
O4_3 O 0.58497(22) 0.60782(15) 0.8373(5)
C5_3 C 0.5450(3) 0.5558(2) 0.9224(7)
Co2_3 Co 0.63540(4) 0.68593(3) 0.97860(10)
Co5_3 Co 0.28280(5) 0.30207(4) 0.68807(10)
O7_3 O 0.31048(27) 0.25164(22) 0.8294(5)
O10_3 O 0.70378(28) 0.67429(16) 0.8588(4)
O12_3 O 0.63694(31) 0.74004(27) 0.7619(5)
O1_4 O 0.27449(15) 0.35618(16) 0.4960(5)
N1_4 N 0.3556(3) 0.4672(3) 0.2491(8)
N2_4 N 0.3616(7) 0.5108(5) 0.2199(18)
C1_4 C 0.2225(2) 0.3441(2) 0.4109(7)
C2_4 C 0.2080(2) 0.3285(2) 0.2133(7)
C3_4 C 0.1534(2) 0.3185(2) 0.1417(7)
H1_4 H 0.1446 0.3085 0.0087
C4_4 C 0.2471(2) 0.3191(2) 0.0770(7)
O5_4 O 0.03712(16) 0.34095(16) 0.5254(4)
C5_4 C 0.1109(2) 0.3225(2) 0.2557(7)
C6_4 C 0.1254(2) 0.3381(2) 0.4533(7)
C7_4 C 0.1800(2) 0.3481(2) 0.5249(7)
H2_4 H 0.1888 0.3581 0.6579
C8_4 C 0.0863(2) 0.3475(2) 0.5896(7)
O9_4 O 0.34095(16) 0.30384(23) 0.4746(4)
O3_4 O 0.23023(15) 0.30360(22) 0.9047(5)
N3_4 N 0.9778(3) 0.1994(3) 0.4175(8)
N4_4 N 0.9718(7) 0.1558(5) 0.4467(18)
O8_4 O 0.91830(22) 0.27449(15) 0.5040(5)
O12_4 O 0.92662(27) 0.23023(15) 0.0953(5)
O9_5 O 0.69616(23) 0.03712(28) 0.4746(4)
O1_5 O 0.64382(16) 0.91830(22) 0.4960(5)
N1_5 N 0.5328(3) 0.8883(4) 0.2491(8)
N2_5 N 0.4892(5) 0.8507(9) 0.2199(18)
C1_5 C 0.6559(2) 0.8783(3) 0.4109(7)
C2_5 C 0.6715(2) 0.8794(3) 0.2133(7)
C3_5 C 0.6815(2) 0.8348(3) 0.1417(7)
H1_5 H 0.6915 0.8360 0.0087
C4_5 C 0.6809(2) 0.9279(3) 0.0770(7)
O5_5 O 0.65905(16) 0.69616(23) 0.5254(4)
C5_5 C 0.6775(2) 0.7883(3) 0.2557(7)
C6_5 C 0.6619(2) 0.7872(3) 0.4533(7)
C7_5 C 0.6519(2) 0.8318(3) 0.5249(7)
H2_5 H 0.6419 0.8306 0.6579
C8_5 C 0.6525(2) 0.7387(3) 0.5896(7)
N3_5 N 0.8006(3) 0.7783(4) 0.4175(8)
N4_5 N 0.8442(5) 0.8159(9) 0.4467(18)
O8_5 O 0.72551(15) 0.64382(27) 0.5040(5)
O12_5 O 0.76977(15) 0.69640(31) 0.0953(5)
O3_5 O 0.69640(22) 0.92662(27) 0.9047(5)
N3_6 N 0.2217(4) 0.0222(3) 0.4175(8)
N4_6 N 0.1841(9) 0.0282(7) 0.4467(18)
O8_6 O 0.35618(27) 0.08170(22) 0.5040(5)
O12_6 O 0.30360(31) 0.07338(27) 0.0953(5)
O1_6 O 0.08170(22) 0.72551(15) 0.4960(5)
N1_6 N 0.1117(4) 0.6444(3) 0.2491(8)
N2_6 N 0.1493(9) 0.6384(7) 0.2199(18)
C1_6 C 0.1217(3) 0.7775(2) 0.4109(7)
C2_6 C 0.1206(3) 0.7920(2) 0.2133(7)
C3_6 C 0.1652(3) 0.8466(2) 0.1417(7)
H1_6 H 0.1640 0.8554 0.0087
C4_6 C 0.0721(3) 0.7529(2) 0.0770(7)
O5_6 O 0.30384(23) 0.96288(16) 0.5254(4)
C5_6 C 0.2117(3) 0.8891(2) 0.2557(7)
C6_6 C 0.2128(3) 0.8746(2) 0.4533(7)
C7_6 C 0.1682(3) 0.8200(2) 0.5249(7)
H2_6 H 0.1694 0.8112 0.6579
C8_6 C 0.2613(3) 0.9137(2) 0.5896(7)
O3_6 O 0.07338(27) 0.76977(15) 0.9047(5)
O9_6 O 0.96288(28) 0.65905(16) 0.4746(4)
N1_7 N 0.0222(3) 0.8006(3) 0.5825(8)
N2_7 N 0.0282(7) 0.8442(5) 0.5533(18)
C1_7 C 0.8891(2) 0.6775(2) 0.7443(7)
C2_7 C 0.8746(2) 0.6619(2) 0.5467(7)
C3_7 C 0.8200(2) 0.6519(2) 0.4751(7)
H1_7 H 0.8112 0.6419 0.3421
C4_7 C 0.9137(2) 0.6525(2) 0.4104(7)
C5_7 C 0.7775(2) 0.6559(2) 0.5891(7)
C6_7 C 0.7920(2) 0.6715(2) 0.7867(7)
C7_7 C 0.8466(2) 0.6815(2) 0.8583(7)
H2_7 H 0.8554 0.6915 0.9913
C8_7 C 0.7529(2) 0.6809(2) 0.9230(7)
N3_7 N 0.6444(3) 0.5328(3) 0.7509(8)
N4_7 N 0.6384(7) 0.4892(5) 0.7801(18)
N1_8 N 0.1994(3) 0.2217(4) 0.5825(8)
N2_8 N 0.1558(5) 0.1841(9) 0.5533(18)
C1_8 C 0.3225(2) 0.2117(3) 0.7443(7)
C2_8 C 0.3381(2) 0.2128(3) 0.5467(7)
C3_8 C 0.3481(2) 0.1682(3) 0.4751(7)
H1_8 H 0.3581 0.1694 0.3421
C4_8 C 0.3475(2) 0.2613(3) 0.4104(7)
C5_8 C 0.3441(2) 0.1217(3) 0.5891(7)
C6_8 C 0.3285(2) 0.1206(3) 0.7867(7)
C7_8 C 0.3185(2) 0.1652(3) 0.8583(7)
H2_8 H 0.3085 0.1640 0.9913
C8_8 C 0.3191(2) 0.0721(3) 0.9230(7)
N3_8 N 0.4672(3) 0.1117(4) 0.7509(8)
N4_8 N 0.5108(5) 0.1493(9) 0.7801(18)
C1_9 C 0.7883(3) 0.1109(2) 0.7443(7)
C2_9 C 0.7872(3) 0.1254(2) 0.5467(7)
C3_9 C 0.8318(3) 0.1800(2) 0.4751(7)
H1_9 H 0.8306 0.1888 0.3421
C4_9 C 0.7387(3) 0.0863(2) 0.4104(7)
C5_9 C 0.8783(3) 0.2225(2) 0.5891(7)
C6_9 C 0.8794(3) 0.2080(2) 0.7867(7)
C7_9 C 0.8348(3) 0.1534(2) 0.8583(7)
H2_9 H 0.8360 0.1446 0.9913
C8_9 C 0.9279(3) 0.2471(2) 0.9230(7)
N3_9 N 0.8883(4) 0.3556(3) 0.7509(8)
N4_9 N 0.8507(9) 0.3616(7) 0.7801(18)
N1_9 N 0.7783(4) 0.9778(3) 0.5825(8)
N2_9 N 0.8159(9) 0.9718(7) 0.5533(18)
loop_
_geom_bond_atom_site_label_1
_geom_bond_atom_site_label_2
_geom_bond_site_symmetry_1
_geom_bond_site_symmetry_2
Co1 O1 1_555 1_555
O1 C1 1_555 1_555
O5 C8 1_555 1_555
O6 C8 1_555 1_555
C7 C1 1_555 1_555
H2 C7 1_555 1_555
C8 C6 1_555 1_555
Co6 O5 1_555 1_555
Co8 O6 1_555 1_555
O11 Co1 1_555 1_555
C6 C7 1_555 1_555
N2 N1 1_555 1_555
Co8 O10 1_555 1_555
N4 N3 1_555 1_555
Co4 O9 1_555 1_555
O3 C4 1_555 1_555
C2 C3 1_555 1_555
C3 H1 1_555 1_555
C4 O2 1_555 1_555
O4 C5 1_555 1_555
C5 C3 1_555 1_555
Co2 O4 1_555 1_555
Co4 O3 1_555 1_555
Co5 O2 1_555 1_555
O12 Co2 1_555 1_555
C2 C4 1_555 1_555
N4_2 N3_2 1_555 1_555
Co4_2 O9_2 1_555 1_555
O3_2 C4_2 1_555 1_555
C2_2 C3_2 1_555 1_555
C3_2 H1_2 1_555 1_555
C4_2 O2_2 1_555 1_555
O4_2 C5_2 1_555 1_555
C5_2 C3_2 1_555 1_555
Co2_2 O4_2 1_555 1_555
Co4_2 O3_2 1_555 1_555
Co5_2 O2_2 1_555 1_555
O12_2 Co2_2 1_555 1_555
C2_2 C4_2 1_555 1_555
Co1_2 O1_2 1_555 1_555
O1_2 C1_2 1_555 1_555
O5_2 C8_2 1_555 1_555
O6_2 C8_2 1_555 1_555
C7_2 C1_2 1_555 1_555
H2_2 C7_2 1_555 1_555
C8_2 C6_2 1_555 1_555
Co6_2 O5_2 1_555 1_555
Co8_2 O6_2 1_555 1_555
O11_2 Co1_2 1_555 1_555
C6_2 C7_2 1_555 1_555
N2_2 N1_2 1_555 1_555
Co8_2 O10_2 1_555 1_555
Co1_3 O1_3 1_555 1_555
O1_3 C1_3 1_555 1_555
O5_3 C8_3 1_555 1_555
O6_3 C8_3 1_555 1_555
C7_3 C1_3 1_555 1_555
H2_3 C7_3 1_555 1_555
C8_3 C6_3 1_555 1_555
N4_3 N3_3 1_555 1_555
Co4_3 O1_3 1_555 1_555
Co6_3 O5_3 1_555 1_555
Co8_3 O6_3 1_555 1_555
O9_3 Co1_3 1_555 1_555
O11_3 Co1_3 1_555 1_555
C6_3 C7_3 1_555 1_555
Co4_3 O9_3 1_555 1_555
Co6_3 O8_3 1_555 1_555
O3_3 C4_3 1_555 1_555
N2_3 N1_3 1_555 1_555
C2_3 C3_3 1_555 1_555
C3_3 H1_3 1_555 1_555
C4_3 O2_3 1_555 1_555
O4_3 C5_3 1_555 1_555
C5_3 C3_3 1_555 1_555
Co2_3 O4_3 1_555 1_555
Co4_3 O3_3 1_555 1_555
Co5_3 O2_3 1_555 1_555
Co8_3 O4_3 1_555 1_555
O10_3 Co2_3 1_555 1_555
O12_3 Co2_3 1_555 1_555
C2_3 C4_3 1_555 1_555
Co5_3 O7_3 1_555 1_555
Co8_3 O10_3 1_555 1_555
Co4_3 O1_4 1_555 1_555
O1_4 C1_4 1_555 1_555
N1_4 Co4_3 1_555 1_555
N2_4 N1_4 1_555 1_555
C1_4 C2_4 1_555 1_555
C2_4 C3_4 1_555 1_555
C3_4 H1_4 1_555 1_555
C4_4 O9_3 1_555 1_555
O8_2 C5_4 1_555 1_555
O5_4 C8_4 1_555 1_555
O12_2 C8_4 1_555 1_555
C5_4 C3_4 1_555 1_555
C6_4 C5_4 1_555 1_555
C7_4 C1_4 1_555 1_555
H2_4 C7_4 1_555 1_555
C8_4 C6_4 1_555 1_555
Co5_3 O1_4 1_555 1_555
O9_4 Co4_3 1_555 1_555
C2_4 C4_4 1_555 1_555
C6_4 C7_4 1_555 1_555
Co5_3 O9_4 1_555 1_555
Co5_3 O3_4 1_555 1_555
N3_4 Co6_2 1_555 1_555
N4_4 N3_4 1_555 1_555
O8_4 Co6_2 1_555 1_555
O12_4 Co6_2 1_555 1_555
Co8_2 O8_4 1_555 1_555
Co4 O1_5 1_555 1_555
O1_5 C1_5 1_555 1_555
N1_5 Co4 1_555 1_555
N2_5 N1_5 1_555 1_555
C1_5 C2_5 1_555 1_555
C2_5 C3_5 1_555 1_555
C3_5 H1_5 1_555 1_555
C4_5 O9 1_555 1_555
O8_3 C5_5 1_555 1_555
O5_5 C8_5 1_555 1_555
O12_3 C8_5 1_555 1_555
C5_5 C3_5 1_555 1_555
C6_5 C5_5 1_555 1_555
C7_5 C1_5 1_555 1_555
H2_5 C7_5 1_555 1_555
C8_5 C6_5 1_555 1_555
N3_5 Co6_3 1_555 1_555
N4_5 N3_5 1_555 1_555
Co5 O1_5 1_555 1_555
Co8_3 O5_5 1_555 1_555
O8_5 Co6_3 1_555 1_555
O12_5 Co6_3 1_555 1_555
C2_5 C4_5 1_555 1_555
O5_5 Co6_3 1_555 1_555
C6_5 C7_5 1_555 1_555
Co8_3 O8_5 1_555 1_555
Co5 O3_5 1_555 1_555
N3_6 Co6 1_555 1_555
N4_6 N3_6 1_555 1_555
O8_6 Co6 1_555 1_555
O12_6 Co6 1_555 1_555
Co8 O8_6 1_555 1_555
Co4_2 O1_6 1_555 1_555
O1_6 C1_6 1_555 1_555
N1_6 Co4_2 1_555 1_555
N2_6 N1_6 1_555 1_555
C1_6 C2_6 1_555 1_555
C2_6 C3_6 1_555 1_555
C3_6 H1_6 1_555 1_555
C4_6 O9_2 1_555 1_555
O8 C5_6 1_555 1_555
O5_6 C8_6 1_555 1_555
O12 C8_6 1_555 1_555
C5_6 C3_6 1_555 1_555
C6_6 C5_6 1_555 1_555
C7_6 C1_6 1_555 1_555
H2_6 C7_6 1_555 1_555
C8_6 C6_6 1_555 1_555
Co5_2 O1_6 1_555 1_555
C2_6 C4_6 1_555 1_555
C6_6 C7_6 1_555 1_555
Co5_2 O3_6 1_555 1_555
N1_7 Co5_2 1_555 1_555
N2_7 N1_7 1_555 1_555
O7_2 C1_7 1_555 1_555
O11_2 C4_7 1_555 1_555
C1_7 C2_7 1_555 1_555
C2_7 C3_7 1_555 1_555
C3_7 H1_7 1_555 1_555
C4_7 O9_6 1_555 1_555
O8_5 C5_7 1_555 1_555
O10_3 C8_7 1_555 1_555
C5_7 C3_7 1_555 1_555
C6_7 C5_7 1_555 1_555
C7_7 C1_7 1_555 1_555
H2_7 C7_7 1_555 1_555
C8_7 C6_7 1_555 1_555
N3_7 Co8_3 1_555 1_555
N4_7 N3_7 1_555 1_555
C2_7 C4_7 1_555 1_555
C6_7 C7_7 1_555 1_555
O7_3 C1_8 1_555 1_555
O11_3 C4_8 1_555 1_555
N1_8 Co5_3 1_555 1_555
N2_8 N1_8 1_555 1_555
C1_8 C2_8 1_555 1_555
C2_8 C3_8 1_555 1_555
C3_8 H1_8 1_555 1_555
C4_8 O9_4 1_555 1_555
O8_6 C5_8 1_555 1_555
O10 C8_8 1_555 1_555
C5_8 C3_8 1_555 1_555
C6_8 C5_8 1_555 1_555
C7_8 C1_8 1_555 1_555
H2_8 C7_8 1_555 1_555
C8_8 C6_8 1_555 1_555
N3_8 Co8 1_555 1_555
N4_8 N3_8 1_555 1_555
C2_8 C4_8 1_555 1_555
C6_8 C7_8 1_555 1_555
O7 C1_9 1_555 1_555
O11 C4_9 1_555 1_555
C1_9 C2_9 1_555 1_555
C2_9 C3_9 1_555 1_555
C3_9 H1_9 1_555 1_555
C4_9 O9_5 1_555 1_555
O8_4 C5_9 1_555 1_555
O10_2 C8_9 1_555 1_555
C5_9 C3_9 1_555 1_555
C6_9 C5_9 1_555 1_555
C7_9 C1_9 1_555 1_555
H2_9 C7_9 1_555 1_555
C8_9 C6_9 1_555 1_555
N3_9 Co8_2 1_555 1_555
N4_9 N3_9 1_555 1_555
C2_9 C4_9 1_555 1_555
C6_9 C7_9 1_555 1_555
N1_9 Co5 1_555 1_555
N2_9 N1_9 1_555 1_555

#END
