
###############################################################################
#
# This file contains modified crystal structure data generated from the
# MOF subset of the Cambridge Structural Database (CSD) v543 
# hosted by the Cambridge Crystallographic Data Centre (CCDC).
#
# This work is licensed under the Creative Commons
# Attribution-NonCommercial-ShareAlike 4.0 International License.
# To view a copy of this license, visit
# http://creativecommons.org/licenses/by-nc-sa/4.0/
# or send a letter to
# Creative Commons, PO Box 1866, Mountain View, CA 94042, USA.
#
# CIF created using the CSD Python API on 29 September 2022
# The structure has been converted into the P1 space group
# The structure has a 3D framework
# The original CSD entry VAMQIM is in the rhombohedral crystal system
# The framework has been calculated to contain at least 10.0% void space
# The void calculation uses a probe of radius 1.32A, grid spacing 0.4
#
###############################################################################

data_VAMQIM
_chemical_formula_moiety         '(C72 H18 Co3 O54)n'
_symmetry_cell_setting           triclinic
_symmetry_space_group_name_H-M   'P 1'
_symmetry_Int_Tables_number      1
_space_group_name_Hall           'P 1'
loop_
_symmetry_equiv_pos_site_id
_symmetry_equiv_pos_as_xyz
1 x,y,z
_cell_length_a                   25.860(4)
_cell_length_b                   25.860(4)
_cell_length_c                   6.8678(10)
_cell_angle_alpha                90
_cell_angle_beta                 90
_cell_angle_gamma                120
_cell_volume                     3977.46
loop_
_atom_site_label
_atom_site_type_symbol
_atom_site_fract_x
_atom_site_fract_y
_atom_site_fract_z
O1 O 0.31120(8) 0.05898(8) 0.3278(2)
C1 C 0.32274(11) 0.11099(11) 0.2437(3)
C2 C 0.33927(11) 0.12607(11) 0.0461(3)
O4 O 0.35547(8) 0.27435(8) 0.0055(2)
O5 O 0.32696(11) 0.29608(8) 0.3626(3)
O6 O 0.30168(9) 0.22939(8) 0.5983(3)
C5 C 0.34393(11) 0.22234(11) 0.0896(3)
C6 C 0.32740(11) 0.20726(11) 0.2872(3)
C7 C 0.31719(12) 0.15218(11) 0.3594(3)
H2 H 0.3061 0.1426 0.4921
C8 C 0.31838(11) 0.24652(10) 0.4262(3)
Co2 Co 0.36295(2) 0.04900(2) 0.52338(5)
Co5 Co 0.31395(3) 0.36295(2) 0.47662(5)
Co7 Co 0.30372(2) 0.28433(2) 0.80995(5)
Co8 Co 0.38233(2) 0.35272(3) 0.14329(5)
O9 O 0.41445(11) 0.02213(8) 0.6611(2)
O14 O 0.36499(9) 0.10394(8) 0.7350(3)
O2 O 0.33971(11) 0.03725(8) 0.9707(3)
C3 C 0.34948(12) 0.18115(11) 0.9739(3)
H1 H 0.3606 0.1907 0.8412
C4 C 0.34829(11) 0.08681(10) 0.9071(3)
Co4 Co 0.28433(2) 0.98062(3) 0.19005(5)
O11 O 0.36421(14) 0.99362(11) 0.3040(3)
O13 O 0.29608(8) 0.96913(14) 0.6374(3)
Co3 Co 0.35272(3) 0.97038(2) 0.85671(5)
Co4_2 Co 0.01938(3) 0.30372(4) 0.19005(5)
O11_2 O 0.00638(11) 0.37058(18) 0.3040(3)
O13_2 O 0.03087(14) 0.32696(16) 0.6374(3)
Co3_2 Co 0.02962(2) 0.38233(4) 0.85671(5)
O1_2 O 0.94102(8) 0.25222(11) 0.3278(2)
C1_2 C 0.88901(11) 0.21175(16) 0.2437(3)
C2_2 C 0.87393(11) 0.21320(16) 0.0461(3)
O4_2 O 0.72565(8) 0.08111(11) 0.0055(2)
O5_2 O 0.70392(8) 0.03087(14) 0.3626(3)
O6_2 O 0.77061(8) 0.07228(12) 0.5983(3)
C5_2 C 0.77766(11) 0.12158(16) 0.0896(3)
C6_2 C 0.79274(11) 0.12013(16) 0.2872(3)
C7_2 C 0.84782(11) 0.16500(16) 0.3594(3)
H2_2 H 0.8574 0.1634 0.4921
C8_2 C 0.75348(10) 0.07185(15) 0.4262(3)
Co2_2 Co 0.95100(2) 0.31395(3) 0.52338(5)
Co7_2 Co 0.71567(2) 0.01938(3) 0.80995(5)
Co8_2 Co 0.64728(3) 0.02962(4) 0.14329(5)
O9_2 O 0.97787(8) 0.39231(14) 0.6611(2)
O14_2 O 0.89606(8) 0.26105(12) 0.7350(3)
O2_2 O 0.96275(8) 0.30246(14) 0.9707(3)
C3_2 C 0.81885(11) 0.16833(16) 0.9739(3)
H1_2 H 0.8093 0.1699 0.8412
C4_2 C 0.91319(10) 0.26148(15) 0.9071(3)
Co5_2 Co 0.63705(2) 0.95100(4) 0.47662(5)
Co5_3 Co 0.04900(4) 0.68605(3) 0.47662(5)
O1_3 O 0.74778(11) 0.68880(8) 0.3278(2)
C1_3 C 0.78825(16) 0.67726(11) 0.2437(3)
C2_3 C 0.78680(16) 0.66073(11) 0.0461(3)
O4_3 O 0.91889(11) 0.64453(8) 0.0055(2)
O5_3 O 0.96913(14) 0.67304(11) 0.3626(3)
O6_3 O 0.92772(12) 0.69832(9) 0.5983(3)
C5_3 C 0.87842(16) 0.65607(11) 0.0896(3)
C6_3 C 0.87987(16) 0.67260(11) 0.2872(3)
C7_3 C 0.83500(16) 0.68281(12) 0.3594(3)
H2_3 H 0.8366 0.6939 0.4921
C8_3 C 0.92815(15) 0.68162(11) 0.4262(3)
Co2_3 Co 0.68605(3) 0.63705(2) 0.52338(5)
Co4_3 Co 0.69628(4) 0.71567(2) 0.19005(5)
Co7_3 Co 0.98062(3) 0.69628(2) 0.80995(5)
Co8_3 Co 0.97038(4) 0.61767(2) 0.14329(5)
O9_3 O 0.60769(14) 0.58555(11) 0.6611(2)
O11_3 O 0.62942(18) 0.63579(14) 0.3040(3)
O13_3 O 0.67304(16) 0.70392(8) 0.6374(3)
O14_3 O 0.73895(12) 0.63501(9) 0.7350(3)
O2_3 O 0.69754(14) 0.66029(11) 0.9707(3)
C3_3 C 0.83167(16) 0.65052(12) 0.9739(3)
H1_3 H 0.8301 0.6394 0.8412
C4_3 C 0.73852(15) 0.65171(11) 0.9071(3)
Co3_3 Co 0.61767(4) 0.64728(3) 0.85671(5)
O14_4 O 0.03166(9) 0.43727(8) 0.0683(3)
C2_4 C 0.00594(11) 0.45940(11) 0.3794(3)
C3_4 C 0.01615(12) 0.51448(11) 0.3072(3)
H1_4 H 0.0273 0.5240 0.1745
C4_4 C 0.01496(11) 0.42014(10) 0.2404(3)
O4_4 O 0.02213(8) 0.60769(8) 0.3389(2)
C5_4 C 0.01059(11) 0.55568(11) 0.4230(3)
O9_4 O 0.08111(11) 0.35547(8) 0.9945(2)
C1_4 C 0.98941(11) 0.44432(11) 0.5770(3)
O5_4 O 0.99362(11) 0.62942(8) 0.6960(3)
O6_4 O 0.96834(9) 0.56273(8) 0.9317(3)
C6_4 C 0.99406(11) 0.54060(11) 0.6206(3)
C7_4 C 0.98385(12) 0.48552(11) 0.6928(3)
H2_4 H 0.9727 0.4760 0.8255
C8_4 C 0.98504(11) 0.57986(10) 0.7596(3)
O14_5 O 0.56273(8) 0.59438(12) 0.0683(3)
C1_5 C 0.55568(11) 0.54508(16) 0.5770(3)
C2_5 C 0.54060(11) 0.54653(16) 0.3794(3)
C3_5 C 0.48552(11) 0.50166(16) 0.3072(3)
H1_5 H 0.4760 0.5032 0.1745
C4_5 C 0.57986(10) 0.59481(15) 0.2404(3)
O4_5 O 0.39231(8) 0.41445(11) 0.3389(2)
O5_5 O 0.37058(8) 0.36421(14) 0.6960(3)
O6_5 O 0.43727(8) 0.40562(12) 0.9317(3)
C5_5 C 0.44432(11) 0.45492(16) 0.4230(3)
C6_5 C 0.45940(11) 0.45347(16) 0.6206(3)
C7_5 C 0.51448(11) 0.49834(16) 0.6928(3)
H2_5 H 0.5240 0.4968 0.8255
C8_5 C 0.42014(10) 0.40519(15) 0.7596(3)
O9_5 O 0.64453(8) 0.72565(14) 0.9945(2)
C1_6 C 0.45492(16) 0.01059(11) 0.5770(3)
O5_6 O 0.63579(14) 0.00638(11) 0.6960(3)
O6_6 O 0.59438(12) 0.03166(9) 0.9317(3)
C6_6 C 0.54653(16) 0.00594(11) 0.6206(3)
C7_6 C 0.50166(16) 0.01615(12) 0.6928(3)
H2_6 H 0.5032 0.0273 0.8255
C8_6 C 0.59481(15) 0.01496(11) 0.7596(3)
O14_6 O 0.40562(12) 0.96834(9) 0.0683(3)
C2_6 C 0.45347(16) 0.99406(11) 0.3794(3)
C3_6 C 0.49834(16) 0.98385(12) 0.3072(3)
H1_6 H 0.4968 0.9727 0.1745
C4_6 C 0.40519(15) 0.98504(11) 0.2404(3)
O4_6 O 0.58555(11) 0.97787(8) 0.3389(2)
C5_6 C 0.54508(16) 0.98941(11) 0.4230(3)
O9_6 O 0.27435(14) 0.91889(11) 0.9945(2)
O5_7 O 0.66029(11) 0.96275(8) 0.0293(3)
O6_7 O 0.63501(9) 0.89606(8) 0.2650(3)
C7_7 C 0.65052(12) 0.81885(11) 0.0261(3)
H2_7 H 0.6394 0.8093 0.1588
C8_7 C 0.65171(11) 0.91319(10) 0.0929(3)
O14_7 O 0.69832(9) 0.77061(8) 0.4017(3)
C1_7 C 0.65607(11) 0.77766(11) 0.9104(3)
C2_7 C 0.67260(11) 0.79274(11) 0.7128(3)
C3_7 C 0.68281(12) 0.84782(11) 0.6406(3)
H1_7 H 0.6939 0.8574 0.5079
C4_7 C 0.68162(11) 0.75348(10) 0.5738(3)
O4_7 O 0.68880(8) 0.94102(8) 0.6722(2)
C5_7 C 0.67726(11) 0.88901(11) 0.7563(3)
C6_7 C 0.66073(11) 0.87393(11) 0.9539(3)
O5_8 O 0.03725(8) 0.69754(14) 0.0293(3)
O6_8 O 0.10394(8) 0.73895(12) 0.2650(3)
C7_8 C 0.18115(11) 0.83167(16) 0.0261(3)
H2_8 H 0.1907 0.8301 0.1588
C8_8 C 0.08681(10) 0.73852(15) 0.0929(3)
O14_8 O 0.22939(8) 0.92772(12) 0.4017(3)
C1_8 C 0.22234(11) 0.87842(16) 0.9104(3)
C2_8 C 0.20726(11) 0.87987(16) 0.7128(3)
C3_8 C 0.15218(11) 0.83500(16) 0.6406(3)
H1_8 H 0.1426 0.8366 0.5079
C4_8 C 0.24652(10) 0.92815(15) 0.5738(3)
O4_8 O 0.05898(8) 0.74778(11) 0.6722(2)
C5_8 C 0.11099(11) 0.78825(16) 0.7563(3)
C6_8 C 0.12607(11) 0.78680(16) 0.9539(3)
O5_9 O 0.30246(14) 0.33971(11) 0.0293(3)
O6_9 O 0.26105(12) 0.36499(9) 0.2650(3)
C7_9 C 0.16833(16) 0.34948(12) 0.0261(3)
H2_9 H 0.1699 0.3606 0.1588
C8_9 C 0.26148(15) 0.34829(11) 0.0929(3)
O14_9 O 0.07228(12) 0.30168(9) 0.4017(3)
C1_9 C 0.12158(16) 0.34393(11) 0.9104(3)
C2_9 C 0.12013(16) 0.32740(11) 0.7128(3)
C3_9 C 0.16500(16) 0.31719(12) 0.6406(3)
H1_9 H 0.1634 0.3061 0.5079
C4_9 C 0.07185(15) 0.31838(11) 0.5738(3)
O4_9 O 0.25222(11) 0.31120(8) 0.6722(2)
C5_9 C 0.21175(16) 0.32274(11) 0.7563(3)
C6_9 C 0.21320(16) 0.33927(11) 0.9539(3)
loop_
_geom_bond_atom_site_label_1
_geom_bond_atom_site_label_2
_geom_bond_site_symmetry_1
_geom_bond_site_symmetry_2
O1 C1 1_555 1_555
C1 C2 1_555 1_555
O4 C5 1_555 1_555
O5 C8 1_555 1_555
O6 C8 1_555 1_555
C6 C5 1_555 1_555
C7 C1 1_555 1_555
H2 C7 1_555 1_555
C8 C6 1_555 1_555
Co2 O1 1_555 1_555
Co5 O5 1_555 1_555
Co7 O6 1_555 1_555
Co8 O4 1_555 1_555
O9 Co2 1_555 1_555
O14 Co2 1_555 1_555
O5 Co8 1_555 1_555
C6 C7 1_555 1_555
O2 C4 1_555 1_555
O14 C4 1_555 1_555
C3 H1 1_555 1_555
Co4 O11 1_555 1_555
Co3 O13 1_555 1_555
Co4_2 O11_2 1_555 1_555
Co3_2 O13_2 1_555 1_555
O1_2 C1_2 1_555 1_555
C1_2 C2_2 1_555 1_555
O4_2 C5_2 1_555 1_555
O5_2 C8_2 1_555 1_555
O6_2 C8_2 1_555 1_555
C6_2 C5_2 1_555 1_555
C7_2 C1_2 1_555 1_555
H2_2 C7_2 1_555 1_555
C8_2 C6_2 1_555 1_555
Co2_2 O1_2 1_555 1_555
Co7_2 O6_2 1_555 1_555
Co8_2 O4_2 1_555 1_555
O9_2 Co2_2 1_555 1_555
O14_2 Co2_2 1_555 1_555
O5_2 Co8_2 1_555 1_555
C6_2 C7_2 1_555 1_555
O2_2 C4_2 1_555 1_555
O14_2 C4_2 1_555 1_555
C3_2 H1_2 1_555 1_555
O1_3 C1_3 1_555 1_555
C1_3 C2_3 1_555 1_555
O4_3 C5_3 1_555 1_555
O5_3 C8_3 1_555 1_555
O6_3 C8_3 1_555 1_555
C6_3 C5_3 1_555 1_555
C7_3 C1_3 1_555 1_555
H2_3 C7_3 1_555 1_555
C8_3 C6_3 1_555 1_555
Co2_3 O1_3 1_555 1_555
Co4_3 O1_3 1_555 1_555
Co7_3 O6_3 1_555 1_555
Co8_3 O4_3 1_555 1_555
O9_3 Co2_3 1_555 1_555
O11_3 Co2_3 1_555 1_555
O13_3 Co2_3 1_555 1_555
O14_3 Co2_3 1_555 1_555
O5_3 Co8_3 1_555 1_555
C6_3 C7_3 1_555 1_555
Co4_3 O11_3 1_555 1_555
O2_3 C4_3 1_555 1_555
O14_3 C4_3 1_555 1_555
C3_3 H1_3 1_555 1_555
Co3_3 O2_3 1_555 1_555
Co3_3 O9_3 1_555 1_555
Co3_3 O13_3 1_555 1_555
O11_2 C4_4 1_555 1_555
O14_4 C4_4 1_555 1_555
C2_4 C3_4 1_555 1_555
C3_4 H1_4 1_555 1_555
C4_4 C2_4 1_555 1_555
O4_4 C5_4 1_555 1_555
C5_4 C3_4 1_555 1_555
Co5_3 O4_4 1_555 1_555
O9_4 Co3_2 1_555 1_555
O9_2 C1_4 1_555 1_555
O5_4 C8_4 1_555 1_555
O6_4 C8_4 1_555 1_555
C7_4 C1_4 1_555 1_555
H2_4 C7_4 1_555 1_555
C8_4 C6_4 1_555 1_555
Co7_3 O5_4 1_555 1_555
C6_4 C7_4 1_555 1_555
O9_3 C1_5 1_555 1_555
O11_3 C4_5 1_555 1_555
O14_5 C4_5 1_555 1_555
C1_5 C2_5 1_555 1_555
C2_5 C3_5 1_555 1_555
C3_5 H1_5 1_555 1_555
C4_5 C2_5 1_555 1_555
O4_5 C5_5 1_555 1_555
O5_5 C8_5 1_555 1_555
O6_5 C8_5 1_555 1_555
C5_5 C3_5 1_555 1_555
C6_5 C5_5 1_555 1_555
C7_5 C1_5 1_555 1_555
H2_5 C7_5 1_555 1_555
C8_5 C6_5 1_555 1_555
Co7 O5_5 1_555 1_555
Co8 O4_5 1_555 1_555
Co5 O4_5 1_555 1_555
O9_5 Co3_3 1_555 1_555
O5_5 Co5 1_555 1_555
C6_5 C7_5 1_555 1_555
O9 C1_6 1_555 1_555
O5_6 C8_6 1_555 1_555
O6_6 C8_6 1_555 1_555
C7_6 C1_6 1_555 1_555
H2_6 C7_6 1_555 1_555
C8_6 C6_6 1_555 1_555
Co7_2 O5_6 1_555 1_555
C6_6 C7_6 1_555 1_555
O11 C4_6 1_555 1_555
O14_6 C4_6 1_555 1_555
C2_6 C3_6 1_555 1_555
C3_6 H1_6 1_555 1_555
C4_6 C2_6 1_555 1_555
O4_6 C5_6 1_555 1_555
C5_6 C3_6 1_555 1_555
Co5_2 O4_6 1_555 1_555
O9_6 Co3 1_555 1_555
O5_7 C8_7 1_555 1_555
O6_7 C8_7 1_555 1_555
H2_7 C7_7 1_555 1_555
Co5_2 O6_7 1_555 1_555
O14_7 Co4_3 1_555 1_555
O9_5 C1_7 1_555 1_555
O13_3 C4_7 1_555 1_555
O14_7 C4_7 1_555 1_555
C1_7 C2_7 1_555 1_555
C2_7 C3_7 1_555 1_555
C3_7 H1_7 1_555 1_555
C4_7 C2_7 1_555 1_555
O4_7 C5_7 1_555 1_555
C5_7 C3_7 1_555 1_555
C6_7 C5_7 1_555 1_555
Co5_2 O4_7 1_555 1_555
O5_8 C8_8 1_555 1_555
O6_8 C8_8 1_555 1_555
H2_8 C7_8 1_555 1_555
Co5_3 O6_8 1_555 1_555
O14_8 Co4 1_555 1_555
O9_6 C1_8 1_555 1_555
O13 C4_8 1_555 1_555
O14_8 C4_8 1_555 1_555
C1_8 C2_8 1_555 1_555
C2_8 C3_8 1_555 1_555
C3_8 H1_8 1_555 1_555
C4_8 C2_8 1_555 1_555
O4_8 C5_8 1_555 1_555
C5_8 C3_8 1_555 1_555
C6_8 C5_8 1_555 1_555
Co5_3 O4_8 1_555 1_555
O5_9 C8_9 1_555 1_555
O6_9 C8_9 1_555 1_555
H2_9 C7_9 1_555 1_555
Co8 O5_9 1_555 1_555
Co5 O6_9 1_555 1_555
O14_9 Co4_2 1_555 1_555
O9_4 C1_9 1_555 1_555
O13_2 C4_9 1_555 1_555
O14_9 C4_9 1_555 1_555
C1_9 C2_9 1_555 1_555
C2_9 C3_9 1_555 1_555
C3_9 H1_9 1_555 1_555
C4_9 C2_9 1_555 1_555
O4_9 C5_9 1_555 1_555
C5_9 C3_9 1_555 1_555
C6_9 C5_9 1_555 1_555
Co5 O4_9 1_555 1_555
Co7 O4_9 1_555 1_555

#END
