
###############################################################################
#
# This file contains modified crystal structure data generated from the
# MOF subset of the Cambridge Structural Database (CSD) v543 
# hosted by the Cambridge Crystallographic Data Centre (CCDC).
#
# This work is licensed under the Creative Commons
# Attribution-NonCommercial-ShareAlike 4.0 International License.
# To view a copy of this license, visit
# http://creativecommons.org/licenses/by-nc-sa/4.0/
# or send a letter to
# Creative Commons, PO Box 1866, Mountain View, CA 94042, USA.
#
# CIF created using the CSD Python API on 29 September 2022
# The structure has been converted into the P1 space group
# The structure has a 3D framework
# The original CSD entry VAMQUY is in the rhombohedral crystal system
# The framework has been calculated to contain at least 10.0% void space
# The void calculation uses a probe of radius 1.32A, grid spacing 0.4
#
###############################################################################

data_VAMQUY
_chemical_formula_moiety         '(C72 H18 Co5 O54)n'
_symmetry_cell_setting           triclinic
_symmetry_space_group_name_H-M   'P 1'
_symmetry_Int_Tables_number      1
_space_group_name_Hall           'P 1'
loop_
_symmetry_equiv_pos_site_id
_symmetry_equiv_pos_as_xyz
1 x,y,z
_cell_length_a                   25.853(3)
_cell_length_b                   25.853(3)
_cell_length_c                   6.8494(7)
_cell_angle_alpha                90
_cell_angle_beta                 90
_cell_angle_gamma                120
_cell_volume                     3964.65
loop_
_atom_site_label
_atom_site_type_symbol
_atom_site_fract_x
_atom_site_fract_y
_atom_site_fract_z
O1 O 0.03778(7) 0.34128(8) 0.0262(2)
O3 O 0.10390(12) 0.36531(9) 0.2629(2)
C2 C 0.18100(10) 0.34957(11) 0.0249(3)
H1 H 0.1907 0.3609 0.1578
C4 C 0.08722(9) 0.34921(10) 0.0915(3)
Co4 Co 0.04975(3) 0.36412(2) 0.47715(4)
Co7 Co 0.28359(3) 0.30254(2) 0.18951(4)
O10 O 0.02161(8) 0.41430(14) 0.3379(2)
O13 O 0.40526(15) 0.43723(12) 0.0704(2)
O2 O 0.05935(11) 0.31172(8) 0.6712(2)
C1 C 0.12612(10) 0.33960(11) 0.9537(3)
C3 C 0.11145(10) 0.32291(10) 0.7561(3)
O4 O 0.29555(7) 0.32539(8) 0.6405(2)
O5 O 0.27398(11) 0.35495(8) 0.9955(2)
O6 O 0.22943(12) 0.30136(9) 0.4038(2)
C5 C 0.20721(10) 0.32707(11) 0.7130(3)
C6 C 0.15233(10) 0.31710(11) 0.6418(3)
H2 H 0.1426 0.3058 0.5089
C7 C 0.22188(10) 0.34376(10) 0.9106(3)
C8 C 0.24611(9) 0.31746(10) 0.5752(3)
Co2 Co 0.35229(2) 0.38308(3) 0.85618(4)
Co8 Co 0.36412(2) 0.31438(2) 0.52285(4)
O8 O 0.34128(8) 0.30350(11) 0.9738(2)
O11 O 0.41430(14) 0.39268(11) 0.6621(2)
Co1 Co 0.96921(2) 0.35229(2) 0.14382(4)
O7 O 0.97017(11) 0.29555(7) 0.3595(2)
O9 O 0.91904(14) 0.27398(11) 0.0045(2)
Co5 Co 0.98104(2) 0.28359(3) 0.81049(4)
O12 O 0.96802(9) 0.40526(15) 0.9296(2)
Co8_2 Co 0.68562(2) 0.04975(3) 0.52285(4)
O8_2 O 0.69650(11) 0.03778(14) 0.9738(2)
O11_2 O 0.60732(11) 0.02161(18) 0.6621(2)
Co1_2 Co 0.64771(2) 0.61692(3) 0.14382(4)
O1_2 O 0.65872(8) 0.69650(11) 0.0262(2)
O3_2 O 0.63469(9) 0.73859(15) 0.2629(2)
C2_2 C 0.65043(11) 0.83143(15) 0.0249(3)
H1_2 H 0.6391 0.8298 0.1578
C4_2 C 0.65079(10) 0.73801(13) 0.0915(3)
Co4_2 Co 0.63588(2) 0.68562(4) 0.47715(4)
Co7_2 Co 0.69746(2) 0.98104(4) 0.18951(4)
O7_2 O 0.70445(7) 0.67461(13) 0.3595(2)
O9_2 O 0.72602(11) 0.64505(18) 0.0045(2)
O10_2 O 0.58570(14) 0.60732(16) 0.3379(2)
O13_2 O 0.56277(12) 0.96802(19) 0.0704(2)
O2_2 O 0.68828(8) 0.74763(14) 0.6712(2)
C1_2 C 0.66040(11) 0.78652(15) 0.9537(3)
C3_2 C 0.67709(10) 0.78854(14) 0.7561(3)
O4_2 O 0.67461(8) 0.97017(11) 0.6405(2)
O5_2 O 0.64505(8) 0.91904(14) 0.9955(2)
O6_2 O 0.69864(9) 0.92808(15) 0.4038(2)
C5_2 C 0.67293(11) 0.88015(15) 0.7130(3)
C6_2 C 0.68290(11) 0.83524(15) 0.6418(3)
H2_2 H 0.6942 0.8369 0.5089
C7_2 C 0.65624(10) 0.87813(14) 0.9106(3)
C8_2 C 0.68254(10) 0.92866(13) 0.5752(3)
Co2_2 Co 0.61692(3) 0.96921(4) 0.85618(4)
Co5_2 Co 0.71641(3) 0.69746(4) 0.81049(4)
O12_2 O 0.59474(15) 0.56277(17) 0.9296(2)
Co1_3 Co 0.38308(3) 0.03079(2) 0.14382(4)
O7_3 O 0.32539(13) 0.02983(11) 0.3595(2)
O9_3 O 0.35495(18) 0.08096(14) 0.0045(2)
Co5_3 Co 0.30254(4) 0.01896(2) 0.81049(4)
O12_3 O 0.43723(17) 0.03198(9) 0.9296(2)
O1_3 O 0.30350(11) 0.96222(7) 0.0262(2)
O3_3 O 0.26141(15) 0.89610(12) 0.2629(2)
C2_3 C 0.16857(15) 0.81900(10) 0.0249(3)
H1_3 H 0.1702 0.8093 0.1578
C4_3 C 0.26199(13) 0.91278(9) 0.0915(3)
Co4_3 Co 0.31438(4) 0.95025(3) 0.47715(4)
Co7_3 Co 0.01896(4) 0.71641(3) 0.18951(4)
O10_3 O 0.39268(16) 0.97839(8) 0.3379(2)
O13_3 O 0.03198(19) 0.59474(15) 0.0704(2)
O2_3 O 0.25237(14) 0.94065(11) 0.6712(2)
C1_3 C 0.21348(15) 0.87388(10) 0.9537(3)
C3_3 C 0.21146(14) 0.88855(10) 0.7561(3)
O4_3 O 0.02983(11) 0.70445(7) 0.6405(2)
O5_3 O 0.08096(14) 0.72602(11) 0.9955(2)
O6_3 O 0.07192(15) 0.77057(12) 0.4038(2)
C5_3 C 0.11985(15) 0.79279(10) 0.7130(3)
C6_3 C 0.16476(15) 0.84767(10) 0.6418(3)
H2_3 H 0.1631 0.8574 0.5089
C7_3 C 0.12187(14) 0.77812(10) 0.9106(3)
C8_3 C 0.07134(13) 0.75389(9) 0.5752(3)
Co2_3 Co 0.03079(4) 0.64771(2) 0.85618(4)
Co8_3 Co 0.95025(3) 0.63588(2) 0.52285(4)
O8_3 O 0.96222(14) 0.65872(8) 0.9738(2)
O11_3 O 0.97839(18) 0.58570(14) 0.6621(2)
O8_4 O 0.00795(8) 0.63683(11) 0.3071(2)
O3_4 O 0.77057(12) 0.69864(9) 0.5962(2)
C1_4 C 0.79279(10) 0.67293(11) 0.2870(3)
C2_4 C 0.84767(10) 0.68290(11) 0.3582(3)
H1_4 H 0.8574 0.6942 0.4911
C3_4 C 0.77812(10) 0.65624(10) 0.0894(3)
C4_4 C 0.75389(9) 0.68254(10) 0.4248(3)
O5_4 O 0.94065(11) 0.68828(8) 0.3288(2)
C5_4 C 0.87388(10) 0.66040(11) 0.0463(3)
C7_4 C 0.88855(10) 0.67709(10) 0.2439(3)
O7_4 O 0.63683(11) 0.62889(7) 0.6929(2)
O6_4 O 0.89610(12) 0.63469(9) 0.7371(2)
C6_4 C 0.81900(10) 0.65043(11) 0.9751(3)
H2_4 H 0.8093 0.6391 0.8422
C8_4 C 0.91278(9) 0.65079(10) 0.9085(3)
O3_5 O 0.30136(9) 0.07192(15) 0.5962(2)
C1_5 C 0.32707(11) 0.11985(15) 0.2870(3)
C2_5 C 0.31710(11) 0.16476(15) 0.3582(3)
H1_5 H 0.3058 0.1631 0.4911
C3_5 C 0.34376(10) 0.12187(14) 0.0894(3)
C4_5 C 0.31746(10) 0.07134(13) 0.4248(3)
O5_5 O 0.31172(8) 0.25237(14) 0.3288(2)
C5_5 C 0.33960(11) 0.21348(15) 0.0463(3)
C7_5 C 0.32291(10) 0.21146(14) 0.2439(3)
O7_5 O 0.37111(7) 0.00795(13) 0.6929(2)
O8_5 O 0.36317(11) 0.37111(14) 0.3071(2)
O6_5 O 0.36531(9) 0.26141(15) 0.7371(2)
C6_5 C 0.34957(11) 0.16857(15) 0.9751(3)
H2_5 H 0.3609 0.1702 0.8422
C8_5 C 0.34921(10) 0.26199(13) 0.9085(3)
O3_6 O 0.92808(15) 0.22943(12) 0.5962(2)
C1_6 C 0.88015(15) 0.20721(10) 0.2870(3)
C2_6 C 0.83524(15) 0.15233(10) 0.3582(3)
H1_6 H 0.8369 0.1426 0.4911
C3_6 C 0.87813(14) 0.22188(10) 0.0894(3)
C4_6 C 0.92866(13) 0.24611(9) 0.4248(3)
O5_6 O 0.74763(14) 0.05935(11) 0.3288(2)
C5_6 C 0.78652(15) 0.12612(10) 0.0463(3)
C7_6 C 0.78854(14) 0.11145(10) 0.2439(3)
O7_6 O 0.99205(13) 0.36317(11) 0.6929(2)
O6_6 O 0.73859(15) 0.10390(12) 0.7371(2)
C6_6 C 0.83143(15) 0.18100(10) 0.9751(3)
H2_6 H 0.8298 0.1907 0.8422
C8_6 C 0.73801(13) 0.08722(9) 0.9085(3)
O8_6 O 0.62889(14) 0.99205(8) 0.3071(2)
C1_7 C 0.45945(10) 0.00627(11) 0.6204(3)
C2_7 C 0.51433(10) 0.01624(11) 0.6916(3)
H1_7 H 0.5240 0.0276 0.8245
C4_7 C 0.42055(9) 0.01588(10) 0.7582(3)
C7_7 C 0.55522(10) 0.01042(10) 0.5772(3)
C3_7 C 0.44478(10) 0.98958(10) 0.4228(3)
C5_7 C 0.54055(10) 0.99373(11) 0.3796(3)
C6_7 C 0.48567(10) 0.98376(11) 0.3084(3)
H2_7 H 0.4760 0.9724 0.1755
C8_7 C 0.57945(9) 0.98412(10) 0.2418(3)
C3_8 C 0.01042(10) 0.45521(14) 0.4228(3)
C5_8 C 0.00627(11) 0.54681(15) 0.3796(3)
C6_8 C 0.01624(11) 0.50190(15) 0.3084(3)
H2_8 H 0.0276 0.5035 0.1755
C8_8 C 0.01588(10) 0.59532(13) 0.2418(3)
C1_8 C 0.99373(11) 0.45319(15) 0.6204(3)
C2_8 C 0.98376(11) 0.49810(15) 0.6916(3)
H1_8 H 0.9724 0.4965 0.8245
C4_8 C 0.98412(10) 0.40468(13) 0.7582(3)
C7_8 C 0.98958(10) 0.54479(14) 0.5772(3)
C1_9 C 0.54681(15) 0.54055(10) 0.6204(3)
C2_9 C 0.50190(15) 0.48567(10) 0.6916(3)
H1_9 H 0.5035 0.4760 0.8245
C3_9 C 0.54479(14) 0.55522(10) 0.4228(3)
C4_9 C 0.59532(13) 0.57945(9) 0.7582(3)
C5_9 C 0.45319(15) 0.45945(10) 0.3796(3)
C6_9 C 0.49810(15) 0.51433(10) 0.3084(3)
H2_9 H 0.4965 0.5240 0.1755
C7_9 C 0.45521(14) 0.44478(10) 0.5772(3)
C8_9 C 0.40468(13) 0.42055(9) 0.2418(3)
loop_
_geom_bond_atom_site_label_1
_geom_bond_atom_site_label_2
_geom_bond_site_symmetry_1
_geom_bond_site_symmetry_2
O1 C4 1_555 1_555
O3 C4 1_555 1_555
C2 H1 1_555 1_555
Co4 O3 1_555 1_555
Co4 O10 1_555 1_555
O2 C3 1_555 1_555
C3 C1 1_555 1_555
O4 C8 1_555 1_555
O5 C7 1_555 1_555
O6 C8 1_555 1_555
C5 C6 1_555 1_555
C6 C3 1_555 1_555
H2 C6 1_555 1_555
C8 C5 1_555 1_555
Co2 O4 1_555 1_555
Co4 O2 1_555 1_555
Co7 O6 1_555 1_555
Co8 O4 1_555 1_555
O8 Co2 1_555 1_555
O11 Co2 1_555 1_555
O5 Co2 1_555 1_555
C5 C7 1_555 1_555
Co8 O11 1_555 1_555
O7 Co1 1_555 1_555
O9 Co1 1_555 1_555
Co8_2 O11_2 1_555 1_555
Co1_2 O1_2 1_555 1_555
O1_2 C4_2 1_555 1_555
O3_2 C4_2 1_555 1_555
C2_2 H1_2 1_555 1_555
Co4_2 O3_2 1_555 1_555
O7_2 Co1_2 1_555 1_555
O9_2 Co1_2 1_555 1_555
O10_2 Co1_2 1_555 1_555
Co4_2 O7_2 1_555 1_555
Co4_2 O10_2 1_555 1_555
O2_2 C3_2 1_555 1_555
C3_2 C1_2 1_555 1_555
O4_2 C8_2 1_555 1_555
O5_2 C7_2 1_555 1_555
O6_2 C8_2 1_555 1_555
C5_2 C6_2 1_555 1_555
C6_2 C3_2 1_555 1_555
H2_2 C6_2 1_555 1_555
C8_2 C5_2 1_555 1_555
Co2_2 O4_2 1_555 1_555
Co4_2 O2_2 1_555 1_555
Co7_2 O6_2 1_555 1_555
O2_2 Co5_2 1_555 1_555
O5_2 Co2_2 1_555 1_555
C5_2 C7_2 1_555 1_555
O7_3 Co1_3 1_555 1_555
O9_3 Co1_3 1_555 1_555
O1_3 C4_3 1_555 1_555
O3_3 C4_3 1_555 1_555
C2_3 H1_3 1_555 1_555
Co4_3 O3_3 1_555 1_555
Co4_3 O10_3 1_555 1_555
O2_3 C3_3 1_555 1_555
C3_3 C1_3 1_555 1_555
O4_3 C8_3 1_555 1_555
O5_3 C7_3 1_555 1_555
O6_3 C8_3 1_555 1_555
C5_3 C6_3 1_555 1_555
C6_3 C3_3 1_555 1_555
H2_3 C6_3 1_555 1_555
C8_3 C5_3 1_555 1_555
Co2_3 O4_3 1_555 1_555
Co4_3 O2_3 1_555 1_555
Co7_3 O6_3 1_555 1_555
O5_3 Co2_3 1_555 1_555
C5_3 C7_3 1_555 1_555
Co8_3 O11_3 1_555 1_555
O8_4 Co7_3 1_555 1_555
O7_2 C4_4 1_555 1_555
O9_2 C3_4 1_555 1_555
O3_4 C4_4 1_555 1_555
C1_4 C2_4 1_555 1_555
C2_4 H1_4 1_555 1_555
C3_4 C1_4 1_555 1_555
C4_4 C1_4 1_555 1_555
O5_4 C7_4 1_555 1_555
C7_4 C2_4 1_555 1_555
Co5_2 O3_4 1_555 1_555
Co8_3 O5_4 1_555 1_555
O7_4 Co4_2 1_555 1_555
C5_4 C7_4 1_555 1_555
Co5_2 O7_4 1_555 1_555
O8_3 C8_4 1_555 1_555
O6_4 C8_4 1_555 1_555
H2_4 C6_4 1_555 1_555
Co8_3 O6_4 1_555 1_555
O7_3 C4_5 1_555 1_555
O9_3 C3_5 1_555 1_555
O3_5 C4_5 1_555 1_555
C1_5 C2_5 1_555 1_555
C2_5 H1_5 1_555 1_555
C3_5 C1_5 1_555 1_555
C4_5 C1_5 1_555 1_555
O5_5 C7_5 1_555 1_555
C7_5 C2_5 1_555 1_555
Co5_3 O3_5 1_555 1_555
Co8 O5_5 1_555 1_555
O8_5 Co7 1_555 1_555
O5_5 Co7 1_555 1_555
C5_5 C7_5 1_555 1_555
Co5_3 O7_5 1_555 1_555
Co8 O8_5 1_555 1_555
O8 C8_5 1_555 1_555
O6_5 C8_5 1_555 1_555
H2_5 C6_5 1_555 1_555
Co8 O6_5 1_555 1_555
O7 C4_6 1_555 1_555
O9 C3_6 1_555 1_555
O3_6 C4_6 1_555 1_555
C1_6 C2_6 1_555 1_555
C2_6 H1_6 1_555 1_555
C3_6 C1_6 1_555 1_555
C4_6 C1_6 1_555 1_555
O5_6 C7_6 1_555 1_555
C7_6 C2_6 1_555 1_555
Co5 O3_6 1_555 1_555
Co8_2 O5_6 1_555 1_555
C5_6 C7_6 1_555 1_555
Co5 O7_6 1_555 1_555
O8_2 C8_6 1_555 1_555
O6_6 C8_6 1_555 1_555
H2_6 C6_6 1_555 1_555
Co8_2 O6_6 1_555 1_555
O8_6 Co7_2 1_555 1_555
O7_5 C4_7 1_555 1_555
O12_3 C4_7 1_555 1_555
C1_7 C2_7 1_555 1_555
C2_7 H1_7 1_555 1_555
C4_7 C1_7 1_555 1_555
O11_2 C7_7 1_555 1_555
C7_7 C2_7 1_555 1_555
O10_3 C3_7 1_555 1_555
O8_6 C8_7 1_555 1_555
O13_2 C8_7 1_555 1_555
C5_7 C6_7 1_555 1_555
C6_7 C3_7 1_555 1_555
H2_7 C6_7 1_555 1_555
C8_7 C5_7 1_555 1_555
O10 C3_8 1_555 1_555
O8_4 C8_8 1_555 1_555
O13_3 C8_8 1_555 1_555
C5_8 C6_8 1_555 1_555
C6_8 C3_8 1_555 1_555
H2_8 C6_8 1_555 1_555
C8_8 C5_8 1_555 1_555
O7_6 C4_8 1_555 1_555
O12 C4_8 1_555 1_555
C1_8 C2_8 1_555 1_555
C2_8 H1_8 1_555 1_555
C4_8 C1_8 1_555 1_555
O11_3 C7_8 1_555 1_555
C7_8 C2_8 1_555 1_555
O7_4 C4_9 1_555 1_555
O10_2 C3_9 1_555 1_555
O12_2 C4_9 1_555 1_555
C1_9 C2_9 1_555 1_555
C2_9 H1_9 1_555 1_555
C3_9 C1_9 1_555 1_555
C4_9 C1_9 1_555 1_555
O8_5 C8_9 1_555 1_555
O11 C7_9 1_555 1_555
O13 C8_9 1_555 1_555
C5_9 C6_9 1_555 1_555
C6_9 C3_9 1_555 1_555
H2_9 C6_9 1_555 1_555
C7_9 C2_9 1_555 1_555
C8_9 C5_9 1_555 1_555
C5_9 C7_9 1_555 1_555

#END
