
###############################################################################
#
# This file contains modified crystal structure data generated from the
# MOF subset of the Cambridge Structural Database (CSD) v543 
# hosted by the Cambridge Crystallographic Data Centre (CCDC).
#
# This work is licensed under the Creative Commons
# Attribution-NonCommercial-ShareAlike 4.0 International License.
# To view a copy of this license, visit
# http://creativecommons.org/licenses/by-nc-sa/4.0/
# or send a letter to
# Creative Commons, PO Box 1866, Mountain View, CA 94042, USA.
#
# CIF created using the CSD Python API on 29 September 2022
# The structure has been converted into the P1 space group
# The structure has a 3D framework
# The original CSD entry VAMQEI is in the rhombohedral crystal system
# The framework has been calculated to contain at least 10.0% void space
# The void calculation uses a probe of radius 1.32A, grid spacing 0.4
#
###############################################################################

data_VAMQEI
_chemical_formula_moiety         '(C72 H18 Co12 O54)n'
_symmetry_cell_setting           triclinic
_symmetry_space_group_name_H-M   'P 1'
_symmetry_Int_Tables_number      1
_space_group_name_Hall           'P 1'
loop_
_symmetry_equiv_pos_site_id
_symmetry_equiv_pos_as_xyz
1 x,y,z
_cell_length_a                   25.8262(16)
_cell_length_b                   25.8262(16)
_cell_length_c                   6.8315(4)
_cell_angle_alpha                90
_cell_angle_beta                 90
_cell_angle_gamma                120
_cell_volume                     3946.1
loop_
_atom_site_label
_atom_site_type_symbol
_atom_site_fract_x
_atom_site_fract_y
_atom_site_fract_z
Co1 Co 0.64738(2) 0.02996(2) 0.14363(3)
O8 O 0.72567(9) 0.08107(5) 0.00555(14)
O12 O 0.70391(9) 0.03058(7) 0.36147(15)
O2 O 0.63609(7) 0.00667(5) 0.69480(15)
O3 O 0.59458(5) 0.03194(5) 0.93161(15)
C2 C 0.54670(6) 0.00630(7) 0.6213(2)
C3 C 0.50191(7) 0.01632(7) 0.6928(2)
H1 H 0.5035 0.0275 0.8260
C4 C 0.59511(6) 0.01553(7) 0.7587(2)
O4 O 0.41440(5) 0.02206(7) 0.66112(14)
C5 C 0.45498(6) 0.01060(7) 0.5775(2)
Co5 Co 0.71591(3) 0.01929(2) 0.81030(3)
Co8 Co 0.36329(2) 0.04925(3) 0.52304(3)
O14 O 0.34000(5) 0.03725(9) 0.97187(15)
O7 O 0.58560(5) 0.97794(7) 0.33888(14)
O11 O 0.66000(5) 0.96275(9) 0.02813(15)
C1 C 0.54502(6) 0.98940(7) 0.4225(2)
O5 O 0.36391(7) 0.99333(5) 0.30520(15)
O6 O 0.40542(5) 0.96806(5) 0.06839(15)
C6 C 0.45330(6) 0.99370(7) 0.3787(2)
C7 C 0.49809(7) 0.98368(7) 0.3072(2)
H2 H 0.4965 0.9725 0.1740
C8 C 0.40489(6) 0.98447(7) 0.2413(2)
Co4 Co 0.63671(2) 0.95075(3) 0.47696(3)
Co6 Co 0.35262(2) 0.97004(2) 0.85637(3)
Co7 Co 0.28409(3) 0.98071(2) 0.18970(3)
O10 O 0.27433(9) 0.91893(5) 0.99445(14)
O13 O 0.29609(9) 0.96942(7) 0.63853(15)
O7_2 O 0.02206(7) 0.60766(9) 0.33888(14)
O11_2 O 0.03725(9) 0.69724(10) 0.02813(15)
C1_2 C 0.01060(7) 0.55562(9) 0.4225(2)
O5_2 O 0.00667(5) 0.37058(9) 0.30520(15)
O6_2 O 0.03194(5) 0.43736(7) 0.06839(15)
C6_2 C 0.00630(7) 0.45960(9) 0.3787(2)
C7_2 C 0.01632(7) 0.51441(10) 0.3072(2)
H2_2 H 0.0275 0.5240 0.1740
C8_2 C 0.01553(7) 0.42042(9) 0.2413(2)
Co4_2 Co 0.04925(3) 0.68595(4) 0.47696(3)
Co6_2 Co 0.02996(2) 0.38258(3) 0.85637(3)
Co7_2 Co 0.01929(2) 0.30337(4) 0.18970(3)
O10_2 O 0.08107(5) 0.35539(10) 0.99445(14)
O13_2 O 0.03058(7) 0.32666(11) 0.63853(15)
Co1_2 Co 0.97004(2) 0.61742(3) 0.14363(3)
O8_2 O 0.91893(5) 0.64461(10) 0.00555(14)
O12_2 O 0.96942(7) 0.67334(11) 0.36147(15)
O2_2 O 0.99333(5) 0.62942(9) 0.69480(15)
O3_2 O 0.96806(5) 0.56264(7) 0.93161(15)
C2_2 C 0.99370(7) 0.54040(9) 0.6213(2)
C3_2 C 0.98368(7) 0.48559(10) 0.6928(2)
H1_2 H 0.9725 0.4760 0.8260
C4_2 C 0.98447(7) 0.57958(9) 0.7587(2)
O4_2 O 0.97794(7) 0.39234(9) 0.66112(14)
C5_2 C 0.98940(7) 0.44438(9) 0.5775(2)
Co5_2 Co 0.98071(2) 0.69663(4) 0.81030(3)
Co8_2 Co 0.95075(3) 0.31405(4) 0.52304(3)
O14_2 O 0.96275(9) 0.30276(10) 0.97187(15)
Co1_3 Co 0.38258(3) 0.35262(2) 0.14363(3)
O7_3 O 0.39234(9) 0.41440(5) 0.33888(14)
O8_3 O 0.35539(10) 0.27433(9) 0.00555(14)
O11_3 O 0.30276(10) 0.34000(5) 0.02813(15)
O12_3 O 0.32666(11) 0.29609(9) 0.36147(15)
O2_3 O 0.37058(9) 0.36391(7) 0.69480(15)
O3_3 O 0.43736(7) 0.40542(5) 0.93161(15)
C1_3 C 0.44438(9) 0.45498(6) 0.4225(2)
C2_3 C 0.45960(9) 0.45330(6) 0.6213(2)
C3_3 C 0.51441(10) 0.49809(7) 0.6928(2)
H1_3 H 0.5240 0.4965 0.8260
C4_3 C 0.42042(9) 0.40489(6) 0.7587(2)
O4_3 O 0.60766(9) 0.58560(5) 0.66112(14)
O5_3 O 0.62942(9) 0.63609(7) 0.30520(15)
O6_3 O 0.56264(7) 0.59458(5) 0.06839(15)
C5_3 C 0.55562(9) 0.54502(6) 0.5775(2)
C6_3 C 0.54040(9) 0.54670(6) 0.3787(2)
C7_3 C 0.48559(10) 0.50191(7) 0.3072(2)
H2_3 H 0.4760 0.5035 0.1740
C8_3 C 0.57958(9) 0.59511(6) 0.2413(2)
Co4_3 Co 0.31405(4) 0.36329(2) 0.47696(3)
Co5_3 Co 0.30337(4) 0.28409(3) 0.81030(3)
Co6_3 Co 0.61742(3) 0.64738(2) 0.85637(3)
Co7_3 Co 0.69663(4) 0.71591(3) 0.18970(3)
Co8_3 Co 0.68595(4) 0.63671(2) 0.52304(3)
O10_3 O 0.64461(10) 0.72567(9) 0.99445(14)
O13_3 O 0.67334(11) 0.70391(9) 0.63853(15)
O14_3 O 0.69724(10) 0.66000(5) 0.97187(15)
O3_4 O 0.26125(5) 0.36527(5) 0.26494(15)
C3_4 C 0.16858(7) 0.34965(7) 0.0261(2)
H1_4 H 0.1702 0.3608 0.1593
C4_4 C 0.26178(6) 0.34886(7) 0.0920(2)
O7_4 O 0.25227(5) 0.31127(7) 0.67221(14)
C1_4 C 0.21169(6) 0.32273(7) 0.7558(2)
C2_4 C 0.21337(6) 0.33963(7) 0.9546(2)
O6_4 O 0.07209(5) 0.30139(5) 0.40172(15)
C5_4 C 0.12165(6) 0.34393(7) 0.9108(2)
C6_4 C 0.11997(6) 0.32703(7) 0.7120(2)
C7_4 C 0.16476(7) 0.31701(7) 0.6405(2)
H2_4 H 0.1632 0.3058 0.5073
C8_4 C 0.07156(6) 0.31780(7) 0.5746(2)
O10_4 O 0.94099(9) 0.25227(5) 0.32779(14)
O3_5 O 0.63473(5) 0.89597(7) 0.26494(15)
C3_5 C 0.65035(7) 0.81892(10) 0.0261(2)
H1_5 H 0.6392 0.8093 0.1593
C4_5 C 0.65114(7) 0.91291(9) 0.0920(2)
O7_5 O 0.68873(7) 0.94099(9) 0.67221(14)
C1_5 C 0.67727(7) 0.88895(9) 0.7558(2)
C2_5 C 0.66037(7) 0.87373(9) 0.9546(2)
O6_5 O 0.69861(5) 0.77069(7) 0.40172(15)
C5_5 C 0.65607(7) 0.77771(9) 0.9108(2)
C6_5 C 0.67297(7) 0.79293(9) 0.7120(2)
C7_5 C 0.68299(7) 0.84774(10) 0.6405(2)
H2_5 H 0.6942 0.8573 0.5073
C8_5 C 0.68220(7) 0.75375(9) 0.5746(2)
O10_5 O 0.74773(5) 0.68873(10) 0.32779(14)
O10_6 O 0.31127(10) 0.05901(9) 0.32779(14)
O3_6 O 0.10403(7) 0.73875(5) 0.26494(15)
C3_6 C 0.18108(10) 0.83142(7) 0.0261(2)
H1_6 H 0.1907 0.8298 0.1593
C4_6 C 0.08709(9) 0.73822(6) 0.0920(2)
O7_6 O 0.05901(9) 0.74773(5) 0.67221(14)
C1_6 C 0.11105(9) 0.78831(6) 0.7558(2)
C2_6 C 0.12627(9) 0.78663(6) 0.9546(2)
O6_6 O 0.22931(7) 0.92791(5) 0.40172(15)
C5_6 C 0.22229(9) 0.87835(6) 0.9108(2)
C6_6 C 0.20707(9) 0.88003(6) 0.7120(2)
C7_6 C 0.15226(10) 0.83524(7) 0.6405(2)
H2_6 H 0.1427 0.8368 0.5073
C8_6 C 0.24625(9) 0.92844(6) 0.5746(2)
O3_7 O 0.92791(5) 0.69861(5) 0.59828(15)
C1_7 C 0.87835(6) 0.65607(7) 0.0892(2)
C2_7 C 0.88003(6) 0.67297(7) 0.2880(2)
C3_7 C 0.83524(7) 0.68299(7) 0.3595(2)
H1_7 H 0.8368 0.6942 0.4927
C4_7 C 0.92844(6) 0.68220(7) 0.4254(2)
C5_7 C 0.78831(6) 0.67727(7) 0.2442(2)
C6_7 C 0.78663(6) 0.66037(7) 0.0454(2)
O6_7 O 0.73875(5) 0.63473(5) 0.73506(15)
C7_7 C 0.83142(7) 0.65035(7) 0.9739(2)
H2_7 H 0.8298 0.6392 0.8407
C8_7 C 0.73822(6) 0.65114(7) 0.9080(2)
O3_8 O 0.30139(5) 0.22931(7) 0.59828(15)
C1_8 C 0.34393(7) 0.22229(9) 0.0892(2)
C2_8 C 0.32703(7) 0.20707(9) 0.2880(2)
C3_8 C 0.31701(7) 0.15226(10) 0.3595(2)
H1_8 H 0.3058 0.1427 0.4927
C4_8 C 0.31780(7) 0.24625(9) 0.4254(2)
C5_8 C 0.32273(7) 0.11105(9) 0.2442(2)
C6_8 C 0.33963(7) 0.12627(9) 0.0454(2)
O6_8 O 0.36527(5) 0.10403(7) 0.73506(15)
C7_8 C 0.34965(7) 0.18108(10) 0.9739(2)
H2_8 H 0.3608 0.1907 0.8407
C8_8 C 0.34886(7) 0.08709(9) 0.9080(2)
O3_9 O 0.77069(7) 0.07209(5) 0.59828(15)
C1_9 C 0.77771(9) 0.12165(6) 0.0892(2)
C2_9 C 0.79293(9) 0.11997(6) 0.2880(2)
C3_9 C 0.84774(10) 0.16476(7) 0.3595(2)
H1_9 H 0.8573 0.1632 0.4927
C4_9 C 0.75375(9) 0.07156(6) 0.4254(2)
C5_9 C 0.88895(9) 0.21169(6) 0.2442(2)
C6_9 C 0.87373(9) 0.21337(6) 0.0454(2)
O6_9 O 0.89597(7) 0.26125(5) 0.73506(15)
C7_9 C 0.81892(10) 0.16858(7) 0.9739(2)
H2_9 H 0.8093 0.1702 0.8407
C8_9 C 0.91291(9) 0.26178(6) 0.9080(2)
loop_
_geom_bond_atom_site_label_1
_geom_bond_atom_site_label_2
_geom_bond_site_symmetry_1
_geom_bond_site_symmetry_2
O8 Co1 1_555 1_555
O12 Co1 1_555 1_555
O2 C4 1_555 1_555
O3 C4 1_555 1_555
C2 C3 1_555 1_555
C3 H1 1_555 1_555
C4 C2 1_555 1_555
O4 C5 1_555 1_555
C5 C3 1_555 1_555
Co5 O2 1_555 1_555
Co8 O4 1_555 1_555
O7 C1 1_555 1_555
O5 C8 1_555 1_555
O6 C8 1_555 1_555
C7 C1 1_555 1_555
H2 C7 1_555 1_555
C8 C6 1_555 1_555
Co4 O7 1_555 1_555
Co7 O5 1_555 1_555
C6 C7 1_555 1_555
O10 Co6 1_555 1_555
O13 Co6 1_555 1_555
O7_2 C1_2 1_555 1_555
O5_2 C8_2 1_555 1_555
O6_2 C8_2 1_555 1_555
C7_2 C1_2 1_555 1_555
H2_2 C7_2 1_555 1_555
C8_2 C6_2 1_555 1_555
Co4_2 O7_2 1_555 1_555
Co7_2 O5_2 1_555 1_555
C6_2 C7_2 1_555 1_555
O10_2 Co6_2 1_555 1_555
O13_2 Co6_2 1_555 1_555
O8_2 Co1_2 1_555 1_555
O12_2 Co1_2 1_555 1_555
O2_2 C4_2 1_555 1_555
O3_2 C4_2 1_555 1_555
C2_2 C3_2 1_555 1_555
C3_2 H1_2 1_555 1_555
C4_2 C2_2 1_555 1_555
O4_2 C5_2 1_555 1_555
C5_2 C3_2 1_555 1_555
Co5_2 O2_2 1_555 1_555
Co8_2 O4_2 1_555 1_555
O7_3 Co1_3 1_555 1_555
O8_3 Co1_3 1_555 1_555
O11_3 Co1_3 1_555 1_555
O12_3 Co1_3 1_555 1_555
O7_3 C1_3 1_555 1_555
O2_3 C4_3 1_555 1_555
O3_3 C4_3 1_555 1_555
C1_3 C2_3 1_555 1_555
C2_3 C3_3 1_555 1_555
C3_3 H1_3 1_555 1_555
C4_3 C2_3 1_555 1_555
O4_3 C5_3 1_555 1_555
O5_3 C8_3 1_555 1_555
O6_3 C8_3 1_555 1_555
C5_3 C3_3 1_555 1_555
C6_3 C5_3 1_555 1_555
C7_3 C1_3 1_555 1_555
H2_3 C7_3 1_555 1_555
C8_3 C6_3 1_555 1_555
Co4_3 O7_3 1_555 1_555
Co5_3 O2_3 1_555 1_555
Co6_3 O4_3 1_555 1_555
Co7_3 O5_3 1_555 1_555
Co8_3 O4_3 1_555 1_555
O2_3 Co4_3 1_555 1_555
O5_3 Co8_3 1_555 1_555
C6_3 C7_3 1_555 1_555
O10_3 Co6_3 1_555 1_555
O13_3 Co6_3 1_555 1_555
O14_3 Co6_3 1_555 1_555
Co4_3 O3_4 1_555 1_555
O11_3 C4_4 1_555 1_555
O3_4 C4_4 1_555 1_555
C3_4 H1_4 1_555 1_555
O7_4 Co4_3 1_555 1_555
O12_3 Co4_3 1_555 1_555
O7_4 C1_4 1_555 1_555
C1_4 C2_4 1_555 1_555
O10_2 C5_4 1_555 1_555
O13_2 C8_4 1_555 1_555
O6_4 C8_4 1_555 1_555
C6_4 C5_4 1_555 1_555
C7_4 C1_4 1_555 1_555
H2_4 C7_4 1_555 1_555
C8_4 C6_4 1_555 1_555
Co7_2 O6_4 1_555 1_555
Co5_3 O7_4 1_555 1_555
C6_4 C7_4 1_555 1_555
Co8_2 O10_4 1_555 1_555
Co4 O3_5 1_555 1_555
O11 C4_5 1_555 1_555
O3_5 C4_5 1_555 1_555
C3_5 H1_5 1_555 1_555
O7_5 Co4 1_555 1_555
O7_5 C1_5 1_555 1_555
C1_5 C2_5 1_555 1_555
O10_3 C5_5 1_555 1_555
O13_3 C8_5 1_555 1_555
O6_5 C8_5 1_555 1_555
C6_5 C5_5 1_555 1_555
C7_5 C1_5 1_555 1_555
H2_5 C7_5 1_555 1_555
C8_5 C6_5 1_555 1_555
Co7_3 O6_5 1_555 1_555
Co8_3 O13_3 1_555 1_555
O10_5 Co7_3 1_555 1_555
C6_5 C7_5 1_555 1_555
Co8_3 O10_5 1_555 1_555
Co8 O10_6 1_555 1_555
Co4_2 O3_6 1_555 1_555
O11_2 C4_6 1_555 1_555
O3_6 C4_6 1_555 1_555
C3_6 H1_6 1_555 1_555
O7_6 Co4_2 1_555 1_555
O7_6 C1_6 1_555 1_555
C1_6 C2_6 1_555 1_555
O10 C5_6 1_555 1_555
O13 C8_6 1_555 1_555
O6_6 C8_6 1_555 1_555
C6_6 C5_6 1_555 1_555
C7_6 C1_6 1_555 1_555
H2_6 C7_6 1_555 1_555
C8_6 C6_6 1_555 1_555
Co7 O6_6 1_555 1_555
C6_6 C7_6 1_555 1_555
Co5_2 O3_7 1_555 1_555
O8_2 C1_7 1_555 1_555
O12_2 C4_7 1_555 1_555
O3_7 C4_7 1_555 1_555
C1_7 C2_7 1_555 1_555
C2_7 C3_7 1_555 1_555
C3_7 H1_7 1_555 1_555
C4_7 C2_7 1_555 1_555
O10_5 C5_7 1_555 1_555
C5_7 C3_7 1_555 1_555
C6_7 C5_7 1_555 1_555
O14_3 C8_7 1_555 1_555
O6_7 C8_7 1_555 1_555
H2_7 C7_7 1_555 1_555
Co8_3 O6_7 1_555 1_555
Co5_3 O3_8 1_555 1_555
O8_3 C1_8 1_555 1_555
O12_3 C4_8 1_555 1_555
O3_8 C4_8 1_555 1_555
C1_8 C2_8 1_555 1_555
C2_8 C3_8 1_555 1_555
C3_8 H1_8 1_555 1_555
C4_8 C2_8 1_555 1_555
O10_6 C5_8 1_555 1_555
C5_8 C3_8 1_555 1_555
C6_8 C5_8 1_555 1_555
O14 C8_8 1_555 1_555
O6_8 C8_8 1_555 1_555
H2_8 C7_8 1_555 1_555
Co8 O6_8 1_555 1_555
Co5 O3_9 1_555 1_555
O8 C1_9 1_555 1_555
O12 C4_9 1_555 1_555
O3_9 C4_9 1_555 1_555
C1_9 C2_9 1_555 1_555
C2_9 C3_9 1_555 1_555
C3_9 H1_9 1_555 1_555
C4_9 C2_9 1_555 1_555
O10_4 C5_9 1_555 1_555
C5_9 C3_9 1_555 1_555
C6_9 C5_9 1_555 1_555
O14_2 C8_9 1_555 1_555
O6_9 C8_9 1_555 1_555
H2_9 C7_9 1_555 1_555
Co8_2 O6_9 1_555 1_555

#END
