
###############################################################################
#
# This file contains modified crystal structure data generated from the
# MOF subset of the Cambridge Structural Database (CSD) v543 
# hosted by the Cambridge Crystallographic Data Centre (CCDC).
#
# This work is licensed under the Creative Commons
# Attribution-NonCommercial-ShareAlike 4.0 International License.
# To view a copy of this license, visit
# http://creativecommons.org/licenses/by-nc-sa/4.0/
# or send a letter to
# Creative Commons, PO Box 1866, Mountain View, CA 94042, USA.
#
# CIF created using the CSD Python API on 29 September 2022
# The structure has been converted into the P1 space group
# The structure has a 3D framework
# The original CSD entry VAMRAF is in the rhombohedral crystal system
# The framework has been calculated to contain at least 10.0% void space
# The void calculation uses a probe of radius 1.32A, grid spacing 0.4
#
###############################################################################

data_VAMRAF
_chemical_formula_moiety         '(C72 H18 Co9 O54)n'
_symmetry_cell_setting           triclinic
_symmetry_space_group_name_H-M   'P 1'
_symmetry_Int_Tables_number      1
_space_group_name_Hall           'P 1'
loop_
_symmetry_equiv_pos_site_id
_symmetry_equiv_pos_as_xyz
1 x,y,z
_cell_length_a                   25.7348(8)
_cell_length_b                   25.7348(8)
_cell_length_c                   6.8385(2)
_cell_angle_alpha                90
_cell_angle_beta                 90
_cell_angle_gamma                120
_cell_volume                     3922.23
loop_
_atom_site_label
_atom_site_type_symbol
_atom_site_fract_x
_atom_site_fract_y
_atom_site_fract_z
Co5 Co 0.38371(3) 0.03138(4) 0.14686(8)
O2 O 0.37117(17) 0.00876(18) 0.6930(5)
O3 O 0.43759(16) 0.03149(18) 0.9315(5)
C2 C 0.4591(2) 0.0059(2) 0.6208(6)
C3 C 0.5141(2) 0.0161(2) 0.6928(6)
H1 H 0.523280 0.026829 0.826517
C4 C 0.4203(2) 0.0156(2) 0.7582(6)
O4 O 0.60794(16) 0.02320(17) 0.6621(4)
C5 C 0.5563(2) 0.0113(2) 0.5783(6)
Co2 Co 0.68567(3) 0.05038(3) 0.51981(8)
Co3 Co 0.30196(4) 0.01900(3) 0.81352(8)
O8 O 0.74859(23) 0.05873(16) 0.3288(4)
O9 O 0.32457(18) 0.02908(25) 0.3597(5)
O12 O 0.73943(24) 0.10426(16) 0.7352(5)
Co1 Co 0.31433(3) 0.94962(3) 0.48019(8)
O1 O 0.39206(16) 0.97680(17) 0.3379(4)
C1 C 0.4437(2) 0.9887(2) 0.4217(6)
O5 O 0.62883(17) 0.99124(18) 0.3070(5)
O6 O 0.56241(16) 0.96851(18) 0.0685(5)
C6 C 0.5409(2) 0.9941(2) 0.3792(6)
C7 C 0.4859(2) 0.9839(2) 0.3072(6)
H2 H 0.476720 0.973171 0.173483
C8 C 0.5797(2) 0.9844(2) 0.2418(6)
Co7 Co 0.61629(3) 0.96862(4) 0.85314(8)
Co8 Co 0.69804(4) 0.98100(3) 0.18648(8)
O7 O 0.25141(23) 0.94127(16) 0.6712(4)
O10 O 0.67543(18) 0.97092(25) 0.6403(5)
O11 O 0.26057(24) 0.89574(16) 0.2648(5)
Co1_2 Co 0.05038(3) 0.36471(4) 0.48019(8)
O1_2 O 0.02320(17) 0.41526(23) 0.3379(4)
C1_2 C 0.0113(2) 0.4550(3) 0.4217(6)
O5_2 O 0.00876(18) 0.63759(25) 0.3070(5)
O6_2 O 0.03149(18) 0.59390(24) 0.0685(5)
C6_2 C 0.0059(2) 0.5468(3) 0.3792(6)
C7_2 C 0.0161(2) 0.5020(3) 0.3072(6)
H2_2 H 0.026829 0.503549 0.173483
C8_2 C 0.0156(2) 0.5953(3) 0.2418(6)
Co7_2 Co 0.03138(4) 0.64766(5) 0.85314(8)
Co8_2 Co 0.01900(3) 0.71705(5) 0.18648(8)
O7_2 O 0.05873(16) 0.31013(28) 0.6712(4)
O10_2 O 0.02908(25) 0.70450(31) 0.6403(5)
O11_2 O 0.10426(16) 0.36482(29) 0.2648(5)
Co5_2 Co 0.96862(4) 0.35234(5) 0.14686(8)
O2_2 O 0.99124(18) 0.36241(25) 0.6930(5)
O3_2 O 0.96851(18) 0.40610(24) 0.9315(5)
C2_2 C 0.9941(2) 0.4532(3) 0.6208(6)
C3_2 C 0.9839(2) 0.4980(3) 0.6928(6)
H1_2 H 0.973171 0.496451 0.826517
C4_2 C 0.9844(2) 0.4047(3) 0.7582(6)
O4_2 O 0.97680(17) 0.58474(23) 0.6621(4)
C5_2 C 0.9887(2) 0.5450(3) 0.5783(6)
Co2_2 Co 0.94962(3) 0.63529(4) 0.51981(8)
Co3_2 Co 0.98100(3) 0.28295(5) 0.81352(8)
O8_2 O 0.94127(16) 0.68987(28) 0.3288(4)
O9_2 O 0.97092(25) 0.29550(31) 0.3597(5)
O12_2 O 0.89574(16) 0.63518(29) 0.7352(5)
Co5_3 Co 0.64766(5) 0.61629(3) 0.14686(8)
Co1_3 Co 0.63529(4) 0.68567(3) 0.48019(8)
O1_3 O 0.58474(23) 0.60794(16) 0.3379(4)
O2_3 O 0.63759(25) 0.62883(17) 0.6930(5)
O3_3 O 0.59390(24) 0.56241(16) 0.9315(5)
C1_3 C 0.5450(3) 0.5563(2) 0.4217(6)
C2_3 C 0.5468(3) 0.5409(2) 0.6208(6)
C3_3 C 0.5020(3) 0.4859(2) 0.6928(6)
H1_3 H 0.503549 0.476720 0.826517
C4_3 C 0.5953(3) 0.5797(2) 0.7582(6)
O4_3 O 0.41526(23) 0.39206(16) 0.6621(4)
O5_3 O 0.36241(25) 0.37117(17) 0.3070(5)
O6_3 O 0.40610(24) 0.43759(16) 0.0685(5)
C5_3 C 0.4550(3) 0.4437(2) 0.5783(6)
C6_3 C 0.4532(3) 0.4591(2) 0.3792(6)
C7_3 C 0.4980(3) 0.5141(2) 0.3072(6)
H2_3 H 0.496451 0.523280 0.173483
C8_3 C 0.4047(3) 0.4203(2) 0.2418(6)
Co2_3 Co 0.36471(4) 0.31433(3) 0.51981(8)
Co3_3 Co 0.71705(5) 0.69804(4) 0.81352(8)
Co7_3 Co 0.35234(5) 0.38371(3) 0.85314(8)
Co8_3 Co 0.28295(5) 0.30196(4) 0.18648(8)
O7_3 O 0.68987(28) 0.74859(23) 0.6712(4)
O8_3 O 0.31013(28) 0.25141(23) 0.3288(4)
O9_3 O 0.70450(31) 0.67543(18) 0.3597(5)
O10_3 O 0.29550(31) 0.32457(18) 0.6403(5)
O11_3 O 0.63518(29) 0.73943(24) 0.2648(5)
O12_3 O 0.36482(29) 0.26057(24) 0.7352(5)
O2_4 O 0.03784(17) 0.34209(18) 0.0263(5)
C3_4 C 0.1808(2) 0.3494(2) 0.0261(6)
H1_4 H 0.189947 0.360162 0.159850
C4_4 C 0.0870(2) 0.3489(2) 0.0915(6)
C1_4 C 0.1104(2) 0.3220(2) 0.7550(6)
C2_4 C 0.1258(2) 0.3392(2) 0.9541(6)
O4_4 O 0.27461(16) 0.35653(17) 0.9954(4)
O6_4 O 0.22908(16) 0.30184(18) 0.4018(5)
C5_4 C 0.2230(2) 0.3446(2) 0.9116(6)
C6_4 C 0.2076(2) 0.3274(2) 0.7125(6)
C7_4 C 0.1526(2) 0.3172(2) 0.6405(6)
H2_4 H 0.143387 0.306504 0.506816
C8_4 C 0.2464(2) 0.3177(2) 0.5751(6)
O10_4 O 0.34209(18) 0.30426(25) 0.9737(5)
O7_4 O 0.91807(23) 0.27461(16) 0.0046(4)
O11_4 O 0.92723(24) 0.22908(16) 0.5982(5)
O10_5 O 0.69574(25) 0.03784(31) 0.9737(5)
O2_5 O 0.65791(18) 0.69574(25) 0.0263(5)
C3_5 C 0.6506(2) 0.8313(3) 0.0261(6)
H1_5 H 0.639838 0.829784 0.159850
C4_5 C 0.6511(2) 0.7380(3) 0.0915(6)
O7_5 O 0.72539(16) 0.64347(28) 0.0046(4)
C1_5 C 0.6780(2) 0.7883(3) 0.7550(6)
C2_5 C 0.6608(2) 0.7865(3) 0.9541(6)
O4_5 O 0.64347(17) 0.91807(23) 0.9954(4)
O6_5 O 0.69816(18) 0.92723(24) 0.4018(5)
C5_5 C 0.6554(2) 0.8783(3) 0.9116(6)
C6_5 C 0.6726(2) 0.8801(3) 0.7125(6)
C7_5 C 0.6828(2) 0.8353(3) 0.6405(6)
H2_5 H 0.693496 0.836882 0.506816
C8_5 C 0.6823(2) 0.9286(3) 0.5751(6)
O11_5 O 0.77092(16) 0.69816(29) 0.5982(5)
O7_6 O 0.35653(28) 0.08193(23) 0.0046(4)
O11_6 O 0.30184(29) 0.07277(24) 0.5982(5)
O2_6 O 0.30426(25) 0.96216(17) 0.0263(5)
C3_6 C 0.1687(3) 0.8192(2) 0.0261(6)
H1_6 H 0.170216 0.810053 0.159850
C4_6 C 0.2620(3) 0.9130(2) 0.0915(6)
C1_6 C 0.2117(3) 0.8896(2) 0.7550(6)
C2_6 C 0.2135(3) 0.8742(2) 0.9541(6)
O4_6 O 0.08193(23) 0.72539(16) 0.9954(4)
O6_6 O 0.07277(24) 0.77092(16) 0.4018(5)
C5_6 C 0.1217(3) 0.7770(2) 0.9116(6)
C6_6 C 0.1199(3) 0.7924(2) 0.7125(6)
C7_6 C 0.1647(3) 0.8474(2) 0.6405(6)
H2_6 H 0.163118 0.856613 0.506816
C8_6 C 0.0714(3) 0.7536(2) 0.5751(6)
O10_6 O 0.96216(31) 0.65791(18) 0.9737(5)
C1_7 C 0.7770(2) 0.6554(2) 0.0884(6)
C2_7 C 0.7924(2) 0.6726(2) 0.2875(6)
C3_7 C 0.8474(2) 0.6828(2) 0.3595(6)
H1_7 H 0.856613 0.693496 0.493184
C4_7 C 0.7536(2) 0.6823(2) 0.4249(6)
C5_7 C 0.8896(2) 0.6780(2) 0.2450(6)
C6_7 C 0.8742(2) 0.6608(2) 0.0459(6)
C7_7 C 0.8192(2) 0.6506(2) 0.9739(6)
H2_7 H 0.810053 0.639838 0.840150
C8_7 C 0.9130(2) 0.6511(2) 0.9085(6)
C1_8 C 0.3446(2) 0.1217(3) 0.0884(6)
C2_8 C 0.3274(2) 0.1199(3) 0.2875(6)
C3_8 C 0.3172(2) 0.1647(3) 0.3595(6)
H1_8 H 0.306504 0.163118 0.493184
C4_8 C 0.3177(2) 0.0714(3) 0.4249(6)
C5_8 C 0.3220(2) 0.2117(3) 0.2450(6)
C6_8 C 0.3392(2) 0.2135(3) 0.0459(6)
C7_8 C 0.3494(2) 0.1687(3) 0.9739(6)
H2_8 H 0.360162 0.170216 0.840150
C8_8 C 0.3489(2) 0.2620(3) 0.9085(6)
C1_9 C 0.8783(3) 0.2230(2) 0.0884(6)
C2_9 C 0.8801(3) 0.2076(2) 0.2875(6)
C3_9 C 0.8353(3) 0.1526(2) 0.3595(6)
H1_9 H 0.836882 0.143387 0.493184
C4_9 C 0.9286(3) 0.2464(2) 0.4249(6)
C5_9 C 0.7883(3) 0.1104(2) 0.2450(6)
C6_9 C 0.7865(3) 0.1258(2) 0.0459(6)
C7_9 C 0.8313(3) 0.1808(2) 0.9739(6)
H2_9 H 0.829784 0.189947 0.840150
C8_9 C 0.7380(3) 0.0870(2) 0.9085(6)
loop_
_geom_bond_atom_site_label_1
_geom_bond_atom_site_label_2
_geom_bond_site_symmetry_1
_geom_bond_site_symmetry_2
O3 C4 1_555 1_555
C2 C3 1_555 1_555
C3 H1 1_555 1_555
C4 O2 1_555 1_555
O4 C5 1_555 1_555
C5 C3 1_555 1_555
Co2 O4 1_555 1_555
Co3 O2 1_555 1_555
O8 Co2 1_555 1_555
O12 Co2 1_555 1_555
C2 C4 1_555 1_555
Co5 O9 1_555 1_555
Co1 O1 1_555 1_555
O1 C1 1_555 1_555
O5 C8 1_555 1_555
O6 C8 1_555 1_555
C7 C1 1_555 1_555
H2 C7 1_555 1_555
C8 C6 1_555 1_555
Co8 O5 1_555 1_555
O7 Co1 1_555 1_555
O11 Co1 1_555 1_555
C6 C7 1_555 1_555
Co7 O10 1_555 1_555
Co1_2 O1_2 1_555 1_555
O1_2 C1_2 1_555 1_555
O5_2 C8_2 1_555 1_555
O6_2 C8_2 1_555 1_555
C7_2 C1_2 1_555 1_555
H2_2 C7_2 1_555 1_555
C8_2 C6_2 1_555 1_555
Co8_2 O5_2 1_555 1_555
O7_2 Co1_2 1_555 1_555
O11_2 Co1_2 1_555 1_555
C6_2 C7_2 1_555 1_555
Co7_2 O10_2 1_555 1_555
O3_2 C4_2 1_555 1_555
C2_2 C3_2 1_555 1_555
C3_2 H1_2 1_555 1_555
C4_2 O2_2 1_555 1_555
O4_2 C5_2 1_555 1_555
C5_2 C3_2 1_555 1_555
Co2_2 O4_2 1_555 1_555
Co3_2 O2_2 1_555 1_555
O8_2 Co2_2 1_555 1_555
O12_2 Co2_2 1_555 1_555
C2_2 C4_2 1_555 1_555
Co5_2 O9_2 1_555 1_555
Co1_3 O1_3 1_555 1_555
O1_3 C1_3 1_555 1_555
O2_3 Co1_3 1_555 1_555
O3_3 C4_3 1_555 1_555
C1_3 C2_3 1_555 1_555
C2_3 C3_3 1_555 1_555
C3_3 H1_3 1_555 1_555
C4_3 O2_3 1_555 1_555
O4_3 C5_3 1_555 1_555
O5_3 C8_3 1_555 1_555
O6_3 C8_3 1_555 1_555
C5_3 C3_3 1_555 1_555
C6_3 C5_3 1_555 1_555
C7_3 C1_3 1_555 1_555
H2_3 C7_3 1_555 1_555
C8_3 C6_3 1_555 1_555
Co2_3 O4_3 1_555 1_555
Co3_3 O2_3 1_555 1_555
Co5_3 O1_3 1_555 1_555
Co7_3 O4_3 1_555 1_555
Co8_3 O5_3 1_555 1_555
O7_3 Co1_3 1_555 1_555
O8_3 Co2_3 1_555 1_555
O9_3 Co1_3 1_555 1_555
O10_3 Co2_3 1_555 1_555
O11_3 Co1_3 1_555 1_555
O12_3 Co2_3 1_555 1_555
C2_3 C4_3 1_555 1_555
O5_3 Co2_3 1_555 1_555
C6_3 C7_3 1_555 1_555
Co3_3 O7_3 1_555 1_555
Co5_3 O9_3 1_555 1_555
Co7_3 O10_3 1_555 1_555
Co8_3 O8_3 1_555 1_555
O11_2 C4_4 1_555 1_555
C3_4 H1_4 1_555 1_555
C4_4 O2_4 1_555 1_555
O7_2 C1_4 1_555 1_555
C1_4 C2_4 1_555 1_555
O4_4 C5_4 1_555 1_555
O10_3 C8_4 1_555 1_555
O6_4 C8_4 1_555 1_555
C6_4 C5_4 1_555 1_555
C7_4 C1_4 1_555 1_555
H2_4 C7_4 1_555 1_555
C8_4 C6_4 1_555 1_555
Co7_3 O4_4 1_555 1_555
Co8_3 O6_4 1_555 1_555
O10_4 Co7_3 1_555 1_555
C6_4 C7_4 1_555 1_555
Co5_2 O7_4 1_555 1_555
O11_4 Co3_2 1_555 1_555
O11_3 C4_5 1_555 1_555
C3_5 H1_5 1_555 1_555
C4_5 O2_5 1_555 1_555
Co5_3 O2_5 1_555 1_555
Co5_3 O7_5 1_555 1_555
O7_3 C1_5 1_555 1_555
C1_5 C2_5 1_555 1_555
O4_5 C5_5 1_555 1_555
O10 C8_5 1_555 1_555
O6_5 C8_5 1_555 1_555
C6_5 C5_5 1_555 1_555
C7_5 C1_5 1_555 1_555
H2_5 C7_5 1_555 1_555
C8_5 C6_5 1_555 1_555
Co7 O4_5 1_555 1_555
Co8 O6_5 1_555 1_555
O11_5 Co3_3 1_555 1_555
C6_5 C7_5 1_555 1_555
Co5 O7_6 1_555 1_555
O11_6 Co3 1_555 1_555
O11 C4_6 1_555 1_555
C3_6 H1_6 1_555 1_555
C4_6 O2_6 1_555 1_555
O7 C1_6 1_555 1_555
C1_6 C2_6 1_555 1_555
O4_6 C5_6 1_555 1_555
O10_2 C8_6 1_555 1_555
O6_6 C8_6 1_555 1_555
C6_6 C5_6 1_555 1_555
C7_6 C1_6 1_555 1_555
H2_6 C7_6 1_555 1_555
C8_6 C6_6 1_555 1_555
Co7_2 O4_6 1_555 1_555
Co8_2 O6_6 1_555 1_555
C6_6 C7_6 1_555 1_555
O7_5 C1_7 1_555 1_555
O11_5 C4_7 1_555 1_555
C1_7 C2_7 1_555 1_555
C2_7 C3_7 1_555 1_555
C3_7 H1_7 1_555 1_555
C4_7 O9_3 1_555 1_555
O8_2 C5_7 1_555 1_555
C5_7 C3_7 1_555 1_555
C6_7 C5_7 1_555 1_555
C2_7 C4_7 1_555 1_555
O10_6 C8_7 1_555 1_555
O12_2 C8_7 1_555 1_555
H2_7 C7_7 1_555 1_555
O7_6 C1_8 1_555 1_555
O11_6 C4_8 1_555 1_555
C1_8 C2_8 1_555 1_555
C2_8 C3_8 1_555 1_555
C3_8 H1_8 1_555 1_555
C4_8 O9 1_555 1_555
O8_3 C5_8 1_555 1_555
C5_8 C3_8 1_555 1_555
C6_8 C5_8 1_555 1_555
C2_8 C4_8 1_555 1_555
O10_4 C8_8 1_555 1_555
O12_3 C8_8 1_555 1_555
H2_8 C7_8 1_555 1_555
O7_4 C1_9 1_555 1_555
O11_4 C4_9 1_555 1_555
C1_9 C2_9 1_555 1_555
C2_9 C3_9 1_555 1_555
C3_9 H1_9 1_555 1_555
C4_9 O9_2 1_555 1_555
O8 C5_9 1_555 1_555
C5_9 C3_9 1_555 1_555
C6_9 C5_9 1_555 1_555
C2_9 C4_9 1_555 1_555
O10_5 C8_9 1_555 1_555
O12 C8_9 1_555 1_555
H2_9 C7_9 1_555 1_555

#END
