
###############################################################################
#
# This file contains modified crystal structure data generated from the
# MOF subset of the Cambridge Structural Database (CSD) v543 
# hosted by the Cambridge Crystallographic Data Centre (CCDC).
#
# This work is licensed under the Creative Commons
# Attribution-NonCommercial-ShareAlike 4.0 International License.
# To view a copy of this license, visit
# http://creativecommons.org/licenses/by-nc-sa/4.0/
# or send a letter to
# Creative Commons, PO Box 1866, Mountain View, CA 94042, USA.
#
# CIF created using the CSD Python API on 29 September 2022
# The structure has been converted into the P1 space group
# The structure has a 3D framework
# The original CSD entry VANGUQ is in the hexagonal crystal system
# The original CSD entry VANGUQ is in a Sohncke space group
# The framework has been calculated to contain at least 10.0% void space
# The void calculation uses a probe of radius 1.32A, grid spacing 0.4
#
###############################################################################

data_VANGUQ
_chemical_formula_moiety         '(C24 H24 O36 Rb17)n'
_symmetry_cell_setting           triclinic
_symmetry_space_group_name_H-M   'P 1'
_symmetry_Int_Tables_number      1
_space_group_name_Hall           'P 1'
loop_
_symmetry_equiv_pos_site_id
_symmetry_equiv_pos_as_xyz
1 x,y,z
_cell_length_a                   10.7651(2)
_cell_length_b                   10.7651(2)
_cell_length_c                   22.4373(7)
_cell_angle_alpha                90
_cell_angle_beta                 90
_cell_angle_gamma                120
_cell_volume                     2251.84
loop_
_atom_site_label
_atom_site_type_symbol
_atom_site_fract_x
_atom_site_fract_y
_atom_site_fract_z
O7 O 0.5464(2) 0.6920(3) 0.00550(10)
O11 O 0.3521(2) 0.8809(3) 0.00044(9)
Rb2 Rb 0.34872(2) 0.69744(4) 0.7500
O1 O 0.1456(2) 0.4536(2) 0.67217(10)
O2 O 0.0229(2) 0.2150(2) 0.67227(10)
C1 C 0.1298(4) 0.3331(4) 0.66932(18)
H1 H 0.196(3) 0.334(3) 0.6915(10)
Rb3 Rb 0.33433(4) 0.66567(2) 0.9167
O3 O 0.1191(3) 0.6479(2) 0.83289(9)
C2 C 0.0000(7) 0.5432(5) 0.8334
H2 H 0.000(3) 0.457(2) 0.8334
O5 O 0.4536(2) 0.1456(2) 0.66116(10)
O6 O 0.2150(2) 0.0229(2) 0.66106(10)
C3 C 0.3331(4) 0.1298(4) 0.66401(18)
H3 H 0.334(3) 0.196(3) 0.6418(10)
Rb5 Rb 0.69744(4) 0.34872(4) 0.5833
O8 O 0.3080(3) 0.4536(2) 0.82783(10)
O10 O 0.1921(3) 0.2150(2) 0.82773(10)
Rb7 Rb 0.33134(4) 0.66567(4) 0.5834
Rb9 Rb 0.66567(2) 0.33134(4) 0.7500
O12 O 0.5288(4) 0.6479(2) 0.66711(9)
C2_2 C 1.0000(7) 0.5432(5) 0.8334
H2_2 H 1.000(3) 0.457(2) 0.8334
O4 O 0.8809(3) 0.5288(4) 0.83378(9)
Rb6 Rb 0.65128(4) 0.34872(2) 0.9167
O9 O 0.8079(3) 0.0229(2) 0.83894(10)
Rb1 Rb 0.98792(2) 0.97584(4) 0.7500
Rb4 Rb 0.97584(4) 0.98792(4) 0.5833
Rb1_2 Rb 0.02416(4) 0.01208(4) 0.0833
Rb9_2 Rb 0.66866(4) 0.33433(4) 0.0834
O5_2 O 0.8544(2) 0.3080(3) 0.99450(10)
O6_2 O 0.9771(2) 0.1921(3) 0.99440(10)
C3_2 C 0.8702(4) 0.2033(6) 0.99735(18)
H3_2 H 0.804(3) 0.138(4) 0.9752(10)
Rb2_2 Rb 0.30256(4) 0.65128(4) 0.0833
O2_2 O 0.7850(2) 0.8079(3) 0.00560(10)
C1_2 C 0.6669(4) 0.7967(6) 0.00265(18)
H1_2 H 0.666(3) 0.862(4) 0.0248(10)
Rb3_2 Rb 0.33433(2) 0.66866(4) 0.2500
O3_2 O 0.3521(2) 0.4712(4) 0.16622(9)
C2_3 C 0.4568(5) 0.4568(9) 0.1667
H2_3 H 0.543(2) 0.543(4) 0.1667
O4_2 O 0.4712(4) 0.3521(5) 0.16711(9)
Rb6_2 Rb 0.65128(2) 0.30256(4) 0.2500
O7_2 O 0.3080(3) 0.8544(4) 0.33884(10)
O8_2 O 0.5464(2) 0.8544(4) 0.16116(10)
O9_2 O 0.9771(2) 0.7850(4) 0.17227(10)
O10_2 O 0.7850(2) 0.9771(4) 0.16106(10)
O11_2 O 0.1191(3) 0.4712(4) 0.33378(9)
C2_4 C 0.5432(9) 0.0000(7) 0.5001
H2_4 H 0.457(4) 0.000(3) 0.5001
O4_3 O 0.6479(5) 0.1191(3) 0.50044(9)
Rb4_2 Rb 0.01208(6) 0.02416(4) 0.2500
O9_3 O 0.2150(4) 0.1921(3) 0.50560(10)
Rb8 Rb 0.66567(4) 0.33433(2) 0.4167
Rb2_3 Rb 0.34872(4) 0.65128(2) 0.4167
O2_3 O 0.1921(3) 0.9771(2) 0.33894(10)
C1_3 C 0.2033(6) 0.8702(4) 0.33599(18)
H1_3 H 0.138(4) 0.804(3) 0.3582(10)
O3_3 O 0.5288(4) 0.8809(3) 0.49956(9)
C2_5 C 0.5432(9) 1.0000(7) 0.5001
H2_5 H 0.457(4) 1.000(3) 0.5001
O8_3 O 0.1456(4) 0.6920(3) 0.49450(10)
O10_3 O 0.0229(4) 0.8079(3) 0.49440(10)
O5_3 O 0.6920(3) 0.5464(2) 0.32783(10)
O6_3 O 0.8079(3) 0.7850(2) 0.32773(10)
C3_3 C 0.7967(6) 0.6669(4) 0.33068(18)
H3_3 H 0.862(4) 0.666(3) 0.3085(10)
C2_6 C -0.0000(7) 0.4568(5) 0.3334
H2_6 H -0.000(3) 0.543(2) 0.3334
O1_2 O 0.8544(2) 0.5464(2) 0.17217(10)
C1_4 C 0.8702(4) 0.6669(4) 0.16932(18)
H1_4 H 0.804(3) 0.666(3) 0.1915(10)
O3_4 O 0.8809(3) 0.3521(2) 0.33289(9)
C2_7 C 1.0000(7) 0.4568(5) 0.3334
H2_7 H 1.000(3) 0.543(2) 0.3334
C3_4 C 0.6669(4) 0.8702(4) 0.16401(18)
H3_4 H 0.666(3) 0.804(3) 0.1418(10)
O7_3 O 0.4536(2) 0.3080(3) 0.50550(10)
C1_5 C 0.3331(4) 0.2033(6) 0.50265(18)
H1_5 H 0.334(3) 0.138(4) 0.5248(10)
O3_5 O 0.6479(2) 0.5288(4) 0.66622(9)
C2_8 C 0.5432(5) 0.5432(9) 0.6667
H2_8 H 0.457(2) 0.457(4) 0.6667
O7_4 O 0.6920(3) 0.1456(4) 0.83884(10)
C3_5 C 0.1298(4) 0.7967(6) 0.49735(18)
H3_5 H 0.196(3) 0.862(4) 0.4752(10)
C3_6 C 0.2033(6) 0.3331(4) 0.83068(18)
H3_6 H 0.138(4) 0.334(3) 0.8085(10)
C2_9 C 0.4568(9) 0.0000(7) 0.0001
H2_9 H 0.543(4) 0.000(3) 0.0001
C1_6 C 0.7967(6) 0.1298(4) 0.83599(18)
H1_6 H 0.862(4) 0.196(3) 0.8582(10)
O3_6 O 0.4712(4) 0.1191(3) 0.99956(9)
C2_10 C 0.4568(9) 1.0000(7) 0.0001
H2_10 H 0.543(4) 1.000(3) 0.0001
C2_11 C 0.4568(5) 0.0000(7) 0.9999
H2_11 H 0.543(2) 0.000(3) 0.9999
C2_12 C 0.4568(5) 1.0000(7) 0.9999
H2_12 H 0.543(2) 1.000(3) 0.9999
Rb4_3 Rb 0.01208(4) 0.98792(6) 0.9167
Rb1_3 Rb 0.98792(4) 0.01208(2) 0.4167
loop_
_geom_bond_atom_site_label_1
_geom_bond_atom_site_label_2
_geom_bond_site_symmetry_1
_geom_bond_site_symmetry_2
Rb2 O1 1_555 1_555
O1 C1 1_555 1_555
O2 C1 1_555 1_555
C1 H1 1_555 1_555
Rb3 O3 1_555 1_555
O3 Rb2 1_555 1_555
C2 O3 1_555 1_555
H2 C2 1_555 1_555
O5 C3 1_555 1_555
C3 O6 1_555 1_555
H3 C3 1_555 1_555
Rb5 O5 1_555 1_555
O8 Rb2 1_555 1_555
Rb7 O1 1_555 1_555
Rb9 O5 1_555 1_555
O12 Rb2 1_555 1_555
Rb3 O8 1_555 1_555
Rb7 O12 1_555 1_555
H2_2 C2_2 1_555 1_555
O4 C2_2 1_555 1_555
Rb6 O4 1_555 1_555
Rb9 O4 1_555 1_555
O5_2 C3_2 1_555 1_555
C3_2 O6_2 1_555 1_555
H3_2 C3_2 1_555 1_555
Rb6 O5_2 1_555 1_555
Rb2_2 O7 1_555 1_555
O7 C1_2 1_555 1_555
O2_2 C1_2 1_555 1_555
C1_2 H1_2 1_555 1_555
Rb3_2 O3_2 1_555 1_555
O3_2 Rb2_2 1_555 1_555
C2_3 O3_2 1_555 1_555
H2_3 C2_3 1_555 1_555
O4_2 C2_3 1_555 1_555
Rb6_2 O4_2 1_555 1_555
O7_2 Rb3_2 1_555 1_555
O8_2 Rb2_2 1_555 1_555
Rb9_2 O4_2 1_555 1_555
O11_2 Rb3_2 1_555 1_555
O11 Rb2_2 1_555 1_555
Rb3_2 O8_2 1_555 1_555
H2_4 C2_4 1_555 1_555
O4_3 C2_4 1_555 1_555
Rb5 O4_3 1_555 1_555
Rb8 O4_3 1_555 1_555
Rb2_3 O7_2 1_555 1_555
O7_2 C1_3 1_555 1_555
O2_3 C1_3 1_555 1_555
C1_3 H1_3 1_555 1_555
Rb7 O3_3 1_555 1_555
O3_3 Rb2_3 1_555 1_555
C2_5 O3_3 1_555 1_555
H2_5 C2_5 1_555 1_555
O8_3 Rb2_3 1_555 1_555
O11_2 Rb2_3 1_555 1_555
Rb7 O8_3 1_555 1_555
O5_3 C3_3 1_555 1_555
C3_3 O6_3 1_555 1_555
H3_3 C3_3 1_555 1_555
Rb6_2 O5_3 1_555 1_555
Rb8 O5_3 1_555 1_555
H2_6 C2_6 1_555 1_555
O11_2 C2_6 1_555 1_555
Rb6_2 O1_2 1_555 1_555
O1_2 C1_4 1_555 1_555
O9_2 C1_4 1_555 1_555
C1_4 H1_4 1_555 1_555
Rb8 O3_4 1_555 1_555
O3_4 Rb6_2 1_555 1_555
C2_7 O3_4 1_555 1_555
H2_7 C2_7 1_555 1_555
O8_2 C3_4 1_555 1_555
C3_4 O10_2 1_555 1_555
H3_4 C3_4 1_555 1_555
O7_3 Rb8 1_555 1_555
Rb9_2 O1_2 1_555 1_555
Rb5 O7_3 1_555 1_555
O7_3 C1_5 1_555 1_555
O9_3 C1_5 1_555 1_555
C1_5 H1_5 1_555 1_555
Rb9 O3_5 1_555 1_555
O3_5 Rb5 1_555 1_555
C2_8 O3_5 1_555 1_555
H2_8 C2_8 1_555 1_555
O12 C2_8 1_555 1_555
O7_4 Rb9 1_555 1_555
O8_3 C3_5 1_555 1_555
C3_5 O10_3 1_555 1_555
H3_5 C3_5 1_555 1_555
O8 C3_6 1_555 1_555
C3_6 O10 1_555 1_555
H3_6 C3_6 1_555 1_555
H2_9 C2_9 1_555 1_555
Rb6 O7_4 1_555 1_555
O7_4 C1_6 1_555 1_555
O9 C1_6 1_555 1_555
C1_6 H1_6 1_555 1_555
O3_6 Rb6 1_555 1_555
H2_10 C2_10 1_555 1_555
O11 C2_10 1_555 1_555
H2_11 C2_11 1_555 1_555
O3_6 C2_11 1_555 1_555
H2_12 C2_12 1_555 1_555

#END
