
###############################################################################
#
# This file contains modified crystal structure data generated from the
# MOF subset of the Cambridge Structural Database (CSD) v543 
# hosted by the Cambridge Crystallographic Data Centre (CCDC).
#
# This work is licensed under the Creative Commons
# Attribution-NonCommercial-ShareAlike 4.0 International License.
# To view a copy of this license, visit
# http://creativecommons.org/licenses/by-nc-sa/4.0/
# or send a letter to
# Creative Commons, PO Box 1866, Mountain View, CA 94042, USA.
#
# CIF created using the CSD Python API on 29 September 2022
# The structure has been converted into the P1 space group
# The structure has a 3D framework
# The original CSD entry VAPROW is in the tetragonal crystal system
# The original CSD entry VAPROW is in a Sohncke space group
# The framework has been calculated to contain at least 10.0% void space
# The void calculation uses a probe of radius 1.32A, grid spacing 0.4
#
###############################################################################

data_VAPROW
_chemical_formula_moiety         '(C128 H112 Cl5 N24 Nd5 O40)n'
_symmetry_cell_setting           triclinic
_symmetry_space_group_name_H-M   'P 1'
_symmetry_Int_Tables_number      1
_space_group_name_Hall           'P 1'
loop_
_symmetry_equiv_pos_site_id
_symmetry_equiv_pos_as_xyz
1 x,y,z
_cell_length_a                   17.3987(6)
_cell_length_b                   17.3987(6)
_cell_length_c                   16.0803(15)
_cell_angle_alpha                90
_cell_angle_beta                 90
_cell_angle_gamma                90
_cell_volume                     4867.74
loop_
_atom_site_label
_atom_site_type_symbol
_atom_site_fract_x
_atom_site_fract_y
_atom_site_fract_z
Nd1 Nd 0.19890(3) 0.80110(3) 0.2500
Cl1 Cl 0.08174(14) 0.91826(14) 0.2500
O1 O 0.2661(4) 0.7820(5) 0.1034(5)
O2 O 0.2276(4) 0.6676(4) 0.2230(5)
O3 O 0.1452(5) 0.8024(6) 0.1026(5)
O5 O 0.2405(4) 0.4231(4) 0.5322(5)
N1 N 0.2072(7) 0.7911(6) 0.0622(6)
N2 N 0.2981(6) 0.5580(4) 0.4940(6)
N3 N 0.3175(5) 0.5839(6) 0.3141(6)
C1 C 0.2874(7) 0.5264(7) 0.2722(9)
H1 H 0.3034 0.4770 0.2857
C2 C 0.3817(7) 0.5790(9) 0.3740(11)
H2 H 0.4001 0.5264 0.3764
H3 H 0.4237 0.6112 0.3549
C3 C 0.3582(8) 0.6037(8) 0.4577(10)
H4 H 0.4027 0.6020 0.4940
H5 H 0.3410 0.6566 0.4549
C4 C 0.2347(8) 0.5853(7) 0.5208(8)
H6 H 0.2256 0.6377 0.5157
C5 C 0.1780(7) 0.5386(7) 0.5578(7)
C6 C 0.1819(6) 0.4594(6) 0.5630(6)
C7 C 0.1197(7) 0.4228(8) 0.6019(8)
H7 H 0.1208 0.3696 0.6068
C8 C 0.0598(9) 0.4601(10) 0.6317(8)
H8 H 0.0196 0.4324 0.6553
C9 C 0.0554(10) 0.5386(12) 0.6288(9)
H9 H 0.0138 0.5642 0.6524
C10 C 0.1114(10) 0.5781(9) 0.5917(9)
H10 H 0.1079 0.6313 0.5875
C11 C 0.1529(6) 0.6088(4) 0.1186(6)
H11 H 0.1339 0.6561 0.1014
C12 C 0.2052(5) 0.6051(4) 0.1839(5)
C13 C 0.2337(5) 0.5343(5) 0.2097(5)
C14 C 0.2099(7) 0.4673(4) 0.1703(7)
H12 H 0.2290 0.4200 0.1876
C15 C 0.1577(7) 0.4711(5) 0.1050(7)
H13 H 0.1417 0.4262 0.0787
C16 C 0.1292(6) 0.5418(6) 0.0792(6)
H14 H 0.0942 0.5443 0.0356
O6 O 0.2180(5) 0.7339(4) 0.3966(5)
O7 O 0.3324(4) 0.7724(4) 0.2770(5)
O8 O 0.1976(6) 0.8548(5) 0.3974(5)
O9 O 0.2125(9) 0.7913(7) 0.5125(6)
N4 N 0.2089(6) 0.7928(7) 0.4378(6)
N5 N 0.4420(4) 0.7019(6) 0.0060(6)
N6 N 0.4161(6) 0.6825(5) 0.1859(6)
C17 C 0.4736(7) 0.7126(7) 0.2278(9)
H15 H 0.5230 0.6966 0.2143
C18 C 0.4210(9) 0.6183(7) 0.1260(11)
H16 H 0.4736 0.5999 0.1236
H17 H 0.3888 0.5763 0.1451
C19 C 0.3963(8) 0.6418(8) 0.0423(10)
H18 H 0.3980 0.5973 0.0060
H19 H 0.3434 0.6590 0.0451
C27 C 0.3912(4) 0.8471(6) 0.3814(6)
H25 H 0.3439 0.8661 0.3986
C28 C 0.3949(4) 0.7948(5) 0.3161(5)
C29 C 0.4657(5) 0.7663(5) 0.2903(5)
C30 C 0.5327(4) 0.7901(7) 0.3297(7)
H26 H 0.5800 0.7710 0.3124
C31 C 0.5289(5) 0.8423(7) 0.3950(7)
H27 H 0.5738 0.8583 0.4213
C32 C 0.4582(6) 0.8708(6) 0.4208(6)
H28 H 0.4557 0.9058 0.4644
Nd2 Nd 0.69890(3) 0.69890(3) 0.0000
Nd3 Nd 0.30110(3) 0.30110(3) 0.5000
O11 O 0.0769(4) 0.7405(4) 0.2822(5)
O12 O 0.2595(4) 0.9231(4) 0.2178(5)
O4 O 0.2087(7) 0.7875(9) 0.9875(6)
O10 O 0.5769(4) 0.7595(4) 0.9678(5)
C20 C 0.4147(7) 0.7653(8) 0.9792(8)
H20 H 0.3623 0.7744 0.9843
C21 C 0.4614(7) 0.8220(7) 0.9422(7)
C22 C 0.5406(6) 0.8181(6) 0.9370(6)
C23 C 0.5772(8) 0.8803(7) 0.8981(8)
H21 H 0.6304 0.8792 0.8932
C24 C 0.5399(10) 0.9402(9) 0.8683(8)
H22 H 0.5676 0.9804 0.8447
C25 C 0.4614(12) 0.9446(10) 0.8712(9)
H23 H 0.4358 0.9862 0.8476
C26 C 0.4219(9) 0.8886(10) 0.9083(9)
H24 H 0.3687 0.8921 0.9125
Nd2_2 Nd 0.69890(3) 0.69890(3) 1.0000
H1_2 H 0.0230 0.8034 0.0357
C6_2 C 0.0406(6) 0.6819(6) 0.3130(6)
C7_2 C 0.0772(8) 0.6197(7) 0.3519(8)
H7_2 H 0.1304 0.6208 0.3568
C8_2 C 0.0399(10) 0.5598(9) 0.3817(8)
H8_2 H 0.0676 0.5196 0.4053
O10_2 O 0.7405(4) 0.0769(4) 0.7178(5)
H15_2 H 0.8034 0.0230 0.9643
C22_2 C 0.6819(6) 0.0406(6) 0.6870(6)
C23_2 C 0.6197(7) 0.0772(8) 0.6481(8)
H21_2 H 0.6208 0.1304 0.6432
C24_2 C 0.5598(9) 0.0399(10) 0.6183(8)
H22_2 H 0.5196 0.0676 0.5947
Nd2_3 Nd 0.80110(3) 0.19890(3) 0.7500
Cl1_2 Cl 0.58174(14) 0.58174(14) 0.0000
N2_2 N 0.9420(4) 0.7981(6) 0.2440(6)
N3_2 N 0.9161(6) 0.8175(5) 0.0641(6)
C1_2 C 0.9736(7) 0.7874(7) 0.0222(9)
C2_2 C 0.9210(9) 0.8817(7) 0.1240(11)
H2_2 H 0.9736 0.9001 0.1264
H3_2 H 0.8888 0.9237 0.1049
C3_2 C 0.8963(8) 0.8582(8) 0.2077(10)
H4_2 H 0.8980 0.9027 0.2440
H5_2 H 0.8434 0.8410 0.2049
C4_2 C 0.9147(7) 0.7347(8) 0.2708(8)
H6_2 H 0.8623 0.7256 0.2657
C5_2 C 0.9614(7) 0.6780(7) 0.3078(7)
C9_2 C 0.9614(12) 0.5554(10) 0.3788(9)
H9_2 H 0.9358 0.5138 0.4024
C10_2 C 0.9219(9) 0.6114(10) 0.3417(9)
H10_2 H 0.8687 0.6079 0.3375
O6_2 O 0.7661(4) 0.7180(5) 0.1466(5)
O7_2 O 0.7276(4) 0.8324(4) 0.0270(5)
O8_2 O 0.6452(5) 0.6976(6) 0.1474(5)
O9_2 O 0.7087(7) 0.7125(9) 0.2625(6)
N4_2 N 0.7072(7) 0.7089(6) 0.1878(6)
C27_2 C 0.6529(6) 0.8912(4) 0.1314(6)
H25_2 H 0.6339 0.8439 0.1486
C28_2 C 0.7052(5) 0.8949(4) 0.0661(5)
C29_2 C 0.7337(5) 0.9657(5) 0.0403(5)
C32_2 C 0.6292(6) 0.9582(6) 0.1708(6)
H28_2 H 0.5942 0.9557 0.2144
O11_2 O 0.7595(4) 0.5769(4) 0.0322(5)
Cl1_3 Cl 0.58174(14) 0.58174(14) 1.0000
O1_2 O 0.7180(5) 0.7661(4) 0.8534(5)
O2_2 O 0.8324(4) 0.7276(4) 0.9730(5)
O3_2 O 0.6976(6) 0.6452(5) 0.8526(5)
O4_2 O 0.7125(9) 0.7087(7) 0.7375(6)
N1_2 N 0.7089(6) 0.7072(7) 0.8122(6)
C11_2 C 0.8912(4) 0.6529(6) 0.8686(6)
H11_2 H 0.8439 0.6339 0.8514
C12_2 C 0.8949(4) 0.7052(5) 0.9339(5)
C13_2 C 0.9657(5) 0.7337(5) 0.9597(5)
C16_2 C 0.9582(6) 0.6292(6) 0.8292(6)
H14_2 H 0.9557 0.5942 0.7856
N5_2 N 0.7981(6) 0.9420(4) 0.7560(6)
N6_2 N 0.8175(5) 0.9161(6) 0.9359(6)
C17_2 C 0.7874(7) 0.9736(7) 0.9778(9)
C18_2 C 0.8817(7) 0.9210(9) 0.8760(11)
H16_2 H 0.9001 0.9736 0.8736
H17_2 H 0.9237 0.8888 0.8951
C19_2 C 0.8582(8) 0.8963(8) 0.7923(10)
H18_2 H 0.9027 0.8980 0.7560
H19_2 H 0.8410 0.8434 0.7951
C20_2 C 0.7347(8) 0.9147(7) 0.7292(8)
H20_2 H 0.7256 0.8623 0.7343
C21_2 C 0.6780(7) 0.9614(7) 0.6922(7)
C25_2 C 0.5554(10) 0.9614(12) 0.6212(9)
H23_2 H 0.5138 0.9358 0.5976
C26_2 C 0.6114(10) 0.9219(9) 0.6583(9)
H24_2 H 0.6079 0.8687 0.6625
C4_3 C 0.7653(8) 0.4147(7) 0.0208(8)
H6_3 H 0.7744 0.3623 0.0157
C5_3 C 0.8220(7) 0.4614(7) 0.0578(7)
C6_3 C 0.8181(6) 0.5406(6) 0.0630(6)
C7_3 C 0.8803(7) 0.5772(8) 0.1019(8)
H7_3 H 0.8792 0.6304 0.1068
C8_3 C 0.9402(9) 0.5399(10) 0.1317(8)
H8_3 H 0.9804 0.5676 0.1553
C9_3 C 0.9446(10) 0.4614(12) 0.1288(9)
H9_3 H 0.9862 0.4358 0.1524
C10_3 C 0.8886(10) 0.4219(9) 0.0917(9)
H10_3 H 0.8921 0.3687 0.0875
O9_3 O 0.7875(9) 0.2087(7) 0.0125(6)
Cl1_4 Cl 0.91826(14) 0.08174(14) 0.7500
O1_3 O 0.7339(4) 0.2180(5) 0.6034(5)
O2_3 O 0.7724(4) 0.3324(4) 0.7230(5)
O3_3 O 0.8548(5) 0.1976(6) 0.6026(5)
O4_3 O 0.7913(7) 0.2125(9) 0.4875(6)
N1_3 N 0.7928(7) 0.2089(6) 0.5622(6)
N2_3 N 0.7019(6) 0.4420(4) 0.9940(6)
N3_3 N 0.6825(5) 0.4161(6) 0.8141(6)
C1_3 C 0.7126(7) 0.4736(7) 0.7722(9)
H1_3 H 0.6966 0.5230 0.7857
C2_3 C 0.6183(7) 0.4210(9) 0.8740(11)
H2_3 H 0.5999 0.4736 0.8764
H3_3 H 0.5763 0.3888 0.8549
C3_3 C 0.6418(8) 0.3963(8) 0.9577(10)
H4_3 H 0.5973 0.3980 0.9940
H5_3 H 0.6590 0.3434 0.9549
C11_3 C 0.8471(6) 0.3912(4) 0.6186(6)
H11_3 H 0.8661 0.3439 0.6014
C12_3 C 0.7948(5) 0.3949(4) 0.6839(5)
C13_3 C 0.7663(5) 0.4657(5) 0.7097(5)
C14_2 C 0.7901(7) 0.5327(4) 0.6703(7)
H12_2 H 0.7710 0.5800 0.6876
C15_2 C 0.8423(7) 0.5289(5) 0.6050(7)
H13_2 H 0.8583 0.5738 0.5787
C16_3 C 0.8708(6) 0.4582(6) 0.5792(6)
H14_3 H 0.9058 0.4557 0.5356
O6_3 O 0.7820(5) 0.2661(4) 0.8966(5)
O7_3 O 0.6676(4) 0.2276(4) 0.7770(5)
O8_3 O 0.8024(6) 0.1452(5) 0.8974(5)
O10_3 O 0.4231(4) 0.2405(4) 0.4678(5)
N4_3 N 0.7911(6) 0.2072(7) 0.9378(6)
N5_3 N 0.5580(4) 0.2981(6) 0.5060(6)
N6_3 N 0.5839(6) 0.3175(5) 0.6859(6)
C17_3 C 0.5264(7) 0.2874(7) 0.7278(9)
H15_3 H 0.4770 0.3034 0.7143
C18_3 C 0.5790(9) 0.3817(7) 0.6260(11)
H16_3 H 0.5264 0.4001 0.6236
H17_3 H 0.6112 0.4237 0.6451
C19_3 C 0.6037(8) 0.3582(8) 0.5423(10)
H18_3 H 0.6020 0.4027 0.5060
H19_3 H 0.6566 0.3410 0.5451
C20_3 C 0.5853(7) 0.2347(8) 0.4792(8)
H20_3 H 0.6377 0.2256 0.4843
C21_3 C 0.5386(7) 0.1780(7) 0.4422(7)
C22_3 C 0.4594(6) 0.1819(6) 0.4370(6)
C23_3 C 0.4228(8) 0.1197(7) 0.3981(8)
H21_3 H 0.3696 0.1208 0.3932
C24_3 C 0.4601(10) 0.0598(9) 0.3683(8)
H22_3 H 0.4324 0.0196 0.3447
C25_3 C 0.5386(12) 0.0554(10) 0.3712(9)
H23_3 H 0.5642 0.0138 0.3476
C26_3 C 0.5781(9) 0.1114(10) 0.4083(9)
H24_3 H 0.6313 0.1079 0.4125
C27_3 C 0.6088(4) 0.1529(6) 0.8814(6)
H25_3 H 0.6561 0.1339 0.8986
C28_3 C 0.6051(4) 0.2052(5) 0.8161(5)
C29_3 C 0.5343(5) 0.2337(5) 0.7903(5)
C30_2 C 0.4673(4) 0.2099(7) 0.8297(7)
H26_2 H 0.4200 0.2290 0.8124
C31_2 C 0.4711(5) 0.1577(7) 0.8950(7)
H27_2 H 0.4262 0.1417 0.9213
C32_3 C 0.5418(6) 0.1292(6) 0.9208(6)
H28_3 H 0.5443 0.0942 0.9644
O11_3 O 0.9231(4) 0.2595(4) 0.7822(5)
Cl1_5 Cl 0.41826(14) 0.41826(14) 0.5000
O1_4 O 0.2820(5) 0.2339(4) 0.3534(5)
O2_4 O 0.1676(4) 0.2724(4) 0.4730(5)
O3_4 O 0.3024(6) 0.3548(5) 0.3526(5)
O4_4 O 0.2875(9) 0.2913(7) 0.2375(6)
N1_4 N 0.2911(6) 0.2928(7) 0.3122(6)
N2_4 N 0.0580(4) 0.2019(6) 0.7440(6)
N3_4 N 0.0839(6) 0.1825(5) 0.5641(6)
C1_4 C 0.0264(7) 0.2126(7) 0.5222(9)
C2_4 C 0.0790(9) 0.1183(7) 0.6240(11)
H2_4 H 0.0264 0.0999 0.6264
H3_4 H 0.1112 0.0763 0.6049
C3_4 C 0.1037(8) 0.1418(8) 0.7077(10)
H4_4 H 0.1020 0.0973 0.7440
H5_4 H 0.1566 0.1590 0.7049
C4_4 C 0.0853(7) 0.2653(8) 0.7708(8)
H6_4 H 0.1377 0.2744 0.7657
C5_4 C 0.0386(7) 0.3220(7) 0.8078(7)
C9_4 C 0.0386(12) 0.4446(10) 0.8788(9)
H9_4 H 0.0642 0.4862 0.9024
C10_4 C 0.0781(9) 0.3886(10) 0.8417(9)
H10_4 H 0.1313 0.3921 0.8375
C11_4 C 0.1088(4) 0.3471(6) 0.3686(6)
H11_4 H 0.1561 0.3661 0.3514
C12_4 C 0.1051(4) 0.2948(5) 0.4339(5)
C13_4 C 0.0343(5) 0.2663(5) 0.4597(5)
C16_4 C 0.0418(6) 0.3708(6) 0.3292(6)
H14_4 H 0.0443 0.4058 0.2856
O6_4 O 0.2339(4) 0.2820(5) 0.6466(5)
O7_4 O 0.2724(4) 0.1676(4) 0.5270(5)
O8_4 O 0.3548(5) 0.3024(6) 0.6474(5)
O9_4 O 0.2913(7) 0.2875(9) 0.7625(6)
N4_4 N 0.2928(7) 0.2911(6) 0.6878(6)
N5_4 N 0.2019(6) 0.0580(4) 0.2560(6)
N6_4 N 0.1825(5) 0.0839(6) 0.4359(6)
C17_4 C 0.2126(7) 0.0264(7) 0.4778(9)
C18_4 C 0.1183(7) 0.0790(9) 0.3760(11)
H16_4 H 0.0999 0.0264 0.3736
H17_4 H 0.0763 0.1112 0.3951
C19_4 C 0.1418(8) 0.1037(8) 0.2923(10)
H18_4 H 0.0973 0.1020 0.2560
H19_4 H 0.1590 0.1566 0.2951
C20_4 C 0.2653(8) 0.0853(7) 0.2292(8)
H20_4 H 0.2744 0.1377 0.2343
C21_4 C 0.3220(7) 0.0386(7) 0.1922(7)
C25_4 C 0.4446(10) 0.0386(12) 0.1212(9)
H23_4 H 0.4862 0.0642 0.0976
C26_4 C 0.3886(10) 0.0781(9) 0.1583(9)
H24_4 H 0.3921 0.1313 0.1625
C27_4 C 0.3471(6) 0.1088(4) 0.6314(6)
H25_4 H 0.3661 0.1561 0.6486
C28_4 C 0.2948(5) 0.1051(4) 0.5661(5)
C29_4 C 0.2663(5) 0.0343(5) 0.5403(5)
C32_4 C 0.3708(6) 0.0418(6) 0.6708(6)
H28_4 H 0.4058 0.0443 0.7144
H15_4 H 0.1966 0.9770 0.4643
C22_4 C 0.3181(6) 0.9594(6) 0.1870(6)
C23_4 C 0.3803(7) 0.9228(8) 0.1481(8)
H21_4 H 0.3792 0.8696 0.1432
C24_4 C 0.4402(9) 0.9601(10) 0.1183(8)
H22_4 H 0.4804 0.9324 0.0947
C30_3 C 0.2901(7) 0.9673(4) 0.5797(7)
H26_3 H 0.2710 0.9200 0.5624
C31_3 C 0.3423(7) 0.9711(5) 0.6450(7)
H27_3 H 0.3583 0.9262 0.6713
H1_4 H 0.9770 0.1966 0.5357
C6_4 C 0.9594(6) 0.3181(6) 0.8130(6)
C7_4 C 0.9228(8) 0.3803(7) 0.8519(8)
H7_4 H 0.8696 0.3792 0.8568
C8_4 C 0.9601(10) 0.4402(9) 0.8817(8)
H8_4 H 0.9324 0.4804 0.9053
C14_3 C 0.9673(4) 0.2901(7) 0.4203(7)
H12_3 H 0.9200 0.2710 0.4376
C15_3 C 0.9711(5) 0.3423(7) 0.3550(7)
H13_3 H 0.9262 0.3583 0.3287
C14_4 C 0.0327(4) 0.7099(7) 0.9203(7)
H12_4 H 0.0800 0.7290 0.9376
C15_4 C 0.0289(5) 0.6577(7) 0.8550(7)
H13_4 H 0.0738 0.6417 0.8287
C30_4 C 0.7099(7) 0.0327(4) 0.0797(7)
H26_4 H 0.7290 0.0800 0.0624
C31_4 C 0.6577(7) 0.0289(5) 0.1450(7)
H27_4 H 0.6417 0.0738 0.1713
loop_
_geom_bond_atom_site_label_1
_geom_bond_atom_site_label_2
_geom_bond_site_symmetry_1
_geom_bond_site_symmetry_2
Nd1 Cl1 1_555 1_555
O1 Nd1 1_555 1_555
O2 Nd1 1_555 1_555
O3 Nd1 1_555 1_555
O5 C6 1_555 1_555
N1 O1 1_555 1_555
N2 C3 1_555 1_555
N3 C1 1_555 1_555
C1 H1 1_555 1_555
C2 N3 1_555 1_555
H2 C2 1_555 1_555
H3 C2 1_555 1_555
C3 C2 1_555 1_555
H4 C3 1_555 1_555
H5 C3 1_555 1_555
C4 N2 1_555 1_555
H6 C4 1_555 1_555
C5 C4 1_555 1_555
C6 C5 1_555 1_555
C7 C6 1_555 1_555
H7 C7 1_555 1_555
C8 C7 1_555 1_555
H8 C8 1_555 1_555
C9 C8 1_555 1_555
H9 C9 1_555 1_555
C10 C5 1_555 1_555
H10 C10 1_555 1_555
C11 H11 1_555 1_555
C12 O2 1_555 1_555
C13 C1 1_555 1_555
C14 C13 1_555 1_555
H12 C14 1_555 1_555
C15 C14 1_555 1_555
H13 C15 1_555 1_555
C16 C11 1_555 1_555
H14 C16 1_555 1_555
O6 Nd1 1_555 1_555
O7 Nd1 1_555 1_555
O8 Nd1 1_555 1_555
O9 N4 1_555 1_555
N4 O6 1_555 1_555
N5 C19 1_555 1_555
N6 C17 1_555 1_555
C17 H15 1_555 1_555
C18 N6 1_555 1_555
H16 C18 1_555 1_555
H17 C18 1_555 1_555
C19 C18 1_555 1_555
H18 C19 1_555 1_555
H19 C19 1_555 1_555
C27 H25 1_555 1_555
C28 O7 1_555 1_555
C29 C17 1_555 1_555
C30 C29 1_555 1_555
H26 C30 1_555 1_555
C31 C30 1_555 1_555
H27 C31 1_555 1_555
C32 C27 1_555 1_555
H28 C32 1_555 1_555
Nd3 O5 1_555 1_555
O11 Nd1 1_555 1_555
O12 Nd1 1_555 1_555
O3 N1 1_555 1_555
C9 C10 1_555 1_555
C11 C12 1_555 1_555
C12 C13 1_555 1_555
C15 C16 1_555 1_555
O8 N4 1_555 1_555
C27 C28 1_555 1_555
C28 C29 1_555 1_555
C31 C32 1_555 1_555
O10 C22 1_555 1_555
H20 C20 1_555 1_555
C21 C20 1_555 1_555
C22 C21 1_555 1_555
C23 C22 1_555 1_555
H21 C23 1_555 1_555
C24 C23 1_555 1_555
H22 C24 1_555 1_555
C25 C24 1_555 1_555
H23 C25 1_555 1_555
C26 C21 1_555 1_555
H24 C26 1_555 1_555
Nd2_2 O10 1_555 1_555
C25 C26 1_555 1_555
O11 C6_2 1_555 1_555
C7_2 C6_2 1_555 1_555
H7_2 C7_2 1_555 1_555
C8_2 C7_2 1_555 1_555
H8_2 C8_2 1_555 1_555
O10_2 C22_2 1_555 1_555
C23_2 C22_2 1_555 1_555
H21_2 C23_2 1_555 1_555
C24_2 C23_2 1_555 1_555
H22_2 C24_2 1_555 1_555
Nd2_3 O10_2 1_555 1_555
Nd2 Cl1_2 1_555 1_555
N2_2 C3_2 1_555 1_555
N3_2 C1_2 1_555 1_555
C2_2 N3_2 1_555 1_555
H2_2 C2_2 1_555 1_555
H3_2 C2_2 1_555 1_555
C3_2 C2_2 1_555 1_555
H4_2 C3_2 1_555 1_555
H5_2 C3_2 1_555 1_555
C4_2 N2_2 1_555 1_555
H6_2 C4_2 1_555 1_555
C5_2 C4_2 1_555 1_555
H9_2 C9_2 1_555 1_555
C10_2 C5_2 1_555 1_555
H10_2 C10_2 1_555 1_555
O6_2 Nd2 1_555 1_555
O7_2 Nd2 1_555 1_555
O8_2 Nd2 1_555 1_555
O9_2 N4_2 1_555 1_555
N4_2 O6_2 1_555 1_555
C27_2 H25_2 1_555 1_555
C28_2 O7_2 1_555 1_555
C32_2 C27_2 1_555 1_555
H28_2 C32_2 1_555 1_555
O11_2 Nd2 1_555 1_555
C9_2 C10_2 1_555 1_555
O8_2 N4_2 1_555 1_555
C27_2 C28_2 1_555 1_555
C28_2 C29_2 1_555 1_555
Nd2_2 Cl1_3 1_555 1_555
O1_2 Nd2_2 1_555 1_555
O2_2 Nd2_2 1_555 1_555
O3_2 Nd2_2 1_555 1_555
O4_2 N1_2 1_555 1_555
N1_2 O1_2 1_555 1_555
C11_2 H11_2 1_555 1_555
C12_2 O2_2 1_555 1_555
C16_2 C11_2 1_555 1_555
H14_2 C16_2 1_555 1_555
N5_2 C19_2 1_555 1_555
N6_2 C17_2 1_555 1_555
C18_2 N6_2 1_555 1_555
H16_2 C18_2 1_555 1_555
H17_2 C18_2 1_555 1_555
C19_2 C18_2 1_555 1_555
H18_2 C19_2 1_555 1_555
H19_2 C19_2 1_555 1_555
C20_2 N5_2 1_555 1_555
H20_2 C20_2 1_555 1_555
C21_2 C20_2 1_555 1_555
H23_2 C25_2 1_555 1_555
C26_2 C21_2 1_555 1_555
H24_2 C26_2 1_555 1_555
O3_2 N1_2 1_555 1_555
C11_2 C12_2 1_555 1_555
C12_2 C13_2 1_555 1_555
C25_2 C26_2 1_555 1_555
O11_2 C6_3 1_555 1_555
H6_3 C4_3 1_555 1_555
C5_3 C4_3 1_555 1_555
C6_3 C5_3 1_555 1_555
C7_3 C6_3 1_555 1_555
H7_3 C7_3 1_555 1_555
C8_3 C7_3 1_555 1_555
H8_3 C8_3 1_555 1_555
C9_3 C8_3 1_555 1_555
H9_3 C9_3 1_555 1_555
C10_3 C5_3 1_555 1_555
H10_3 C10_3 1_555 1_555
C9_3 C10_3 1_555 1_555
Nd2_3 Cl1_4 1_555 1_555
O1_3 Nd2_3 1_555 1_555
O2_3 Nd2_3 1_555 1_555
O3_3 Nd2_3 1_555 1_555
O4_3 N1_3 1_555 1_555
N1_3 O1_3 1_555 1_555
N2_3 C3_3 1_555 1_555
N3_3 C1_3 1_555 1_555
C1_3 H1_3 1_555 1_555
C2_3 N3_3 1_555 1_555
H2_3 C2_3 1_555 1_555
H3_3 C2_3 1_555 1_555
C3_3 C2_3 1_555 1_555
H4_3 C3_3 1_555 1_555
H5_3 C3_3 1_555 1_555
C11_3 H11_3 1_555 1_555
C12_3 O2_3 1_555 1_555
C13_3 C1_3 1_555 1_555
C14_2 C13_3 1_555 1_555
H12_2 C14_2 1_555 1_555
C15_2 C14_2 1_555 1_555
H13_2 C15_2 1_555 1_555
C16_3 C11_3 1_555 1_555
H14_3 C16_3 1_555 1_555
O6_3 Nd2_3 1_555 1_555
O7_3 Nd2_3 1_555 1_555
O8_3 Nd2_3 1_555 1_555
O10_3 C22_3 1_555 1_555
N4_3 O6_3 1_555 1_555
N5_3 C19_3 1_555 1_555
N6_3 C17_3 1_555 1_555
C17_3 H15_3 1_555 1_555
C18_3 N6_3 1_555 1_555
H16_3 C18_3 1_555 1_555
H17_3 C18_3 1_555 1_555
C19_3 C18_3 1_555 1_555
H18_3 C19_3 1_555 1_555
H19_3 C19_3 1_555 1_555
C20_3 N5_3 1_555 1_555
H20_3 C20_3 1_555 1_555
C21_3 C20_3 1_555 1_555
C22_3 C21_3 1_555 1_555
C23_3 C22_3 1_555 1_555
H21_3 C23_3 1_555 1_555
C24_3 C23_3 1_555 1_555
H22_3 C24_3 1_555 1_555
C25_3 C24_3 1_555 1_555
H23_3 C25_3 1_555 1_555
C26_3 C21_3 1_555 1_555
H24_3 C26_3 1_555 1_555
C27_3 H25_3 1_555 1_555
C28_3 O7_3 1_555 1_555
C29_3 C17_3 1_555 1_555
C30_2 C29_3 1_555 1_555
H26_2 C30_2 1_555 1_555
C31_2 C30_2 1_555 1_555
H27_2 C31_2 1_555 1_555
C32_3 C27_3 1_555 1_555
H28_3 C32_3 1_555 1_555
Nd3 O10_3 1_555 1_555
O11_3 Nd2_3 1_555 1_555
O3_3 N1_3 1_555 1_555
C11_3 C12_3 1_555 1_555
C12_3 C13_3 1_555 1_555
C15_2 C16_3 1_555 1_555
O8_3 N4_3 1_555 1_555
C25_3 C26_3 1_555 1_555
C27_3 C28_3 1_555 1_555
C28_3 C29_3 1_555 1_555
C31_2 C32_3 1_555 1_555
Nd3 Cl1_5 1_555 1_555
O1_4 Nd3 1_555 1_555
O2_4 Nd3 1_555 1_555
O3_4 Nd3 1_555 1_555
O4_4 N1_4 1_555 1_555
N1_4 O1_4 1_555 1_555
N2_4 C3_4 1_555 1_555
N3_4 C1_4 1_555 1_555
C2_4 N3_4 1_555 1_555
H2_4 C2_4 1_555 1_555
H3_4 C2_4 1_555 1_555
C3_4 C2_4 1_555 1_555
H4_4 C3_4 1_555 1_555
H5_4 C3_4 1_555 1_555
C4_4 N2_4 1_555 1_555
H6_4 C4_4 1_555 1_555
C5_4 C4_4 1_555 1_555
H9_4 C9_4 1_555 1_555
C10_4 C5_4 1_555 1_555
H10_4 C10_4 1_555 1_555
C11_4 H11_4 1_555 1_555
C12_4 O2_4 1_555 1_555
C13_4 C1_4 1_555 1_555
C16_4 C11_4 1_555 1_555
H14_4 C16_4 1_555 1_555
O6_4 Nd3 1_555 1_555
O7_4 Nd3 1_555 1_555
O8_4 Nd3 1_555 1_555
O9_4 N4_4 1_555 1_555
N4_4 O6_4 1_555 1_555
N5_4 C19_4 1_555 1_555
N6_4 C17_4 1_555 1_555
C18_4 N6_4 1_555 1_555
H16_4 C18_4 1_555 1_555
H17_4 C18_4 1_555 1_555
C19_4 C18_4 1_555 1_555
H18_4 C19_4 1_555 1_555
H19_4 C19_4 1_555 1_555
C20_4 N5_4 1_555 1_555
H20_4 C20_4 1_555 1_555
C21_4 C20_4 1_555 1_555
H23_4 C25_4 1_555 1_555
C26_4 C21_4 1_555 1_555
H24_4 C26_4 1_555 1_555
C27_4 H25_4 1_555 1_555
C28_4 O7_4 1_555 1_555
C29_4 C17_4 1_555 1_555
C32_4 C27_4 1_555 1_555
H28_4 C32_4 1_555 1_555
O3_4 N1_4 1_555 1_555
C9_4 C10_4 1_555 1_555
C11_4 C12_4 1_555 1_555
C12_4 C13_4 1_555 1_555
O8_4 N4_4 1_555 1_555
C25_4 C26_4 1_555 1_555
C27_4 C28_4 1_555 1_555
C28_4 C29_4 1_555 1_555
O12 C22_4 1_555 1_555
C23_4 C22_4 1_555 1_555
H21_4 C23_4 1_555 1_555
C24_4 C23_4 1_555 1_555
H22_4 C24_4 1_555 1_555
H26_3 C30_3 1_555 1_555
C31_3 C30_3 1_555 1_555
H27_3 C31_3 1_555 1_555
O11_3 C6_4 1_555 1_555
C7_4 C6_4 1_555 1_555
H7_4 C7_4 1_555 1_555
C8_4 C7_4 1_555 1_555
H8_4 C8_4 1_555 1_555
H12_3 C14_3 1_555 1_555
C15_3 C14_3 1_555 1_555
H13_3 C15_3 1_555 1_555
H12_4 C14_4 1_555 1_555
C15_4 C14_4 1_555 1_555
H13_4 C15_4 1_555 1_555
H26_4 C30_4 1_555 1_555
C31_4 C30_4 1_555 1_555
H27_4 C31_4 1_555 1_555

#END
