
###############################################################################
#
# This file contains modified crystal structure data generated from the
# MOF subset of the Cambridge Structural Database (CSD) v543 
# hosted by the Cambridge Crystallographic Data Centre (CCDC).
#
# This work is licensed under the Creative Commons
# Attribution-NonCommercial-ShareAlike 4.0 International License.
# To view a copy of this license, visit
# http://creativecommons.org/licenses/by-nc-sa/4.0/
# or send a letter to
# Creative Commons, PO Box 1866, Mountain View, CA 94042, USA.
#
# CIF created using the CSD Python API on 29 September 2022
# The structure has been converted into the P1 space group
# The structure has a 3D framework
# The original CSD entry VAPZOF is in the triclinic crystal system
# The framework has been calculated to contain at least 10.0% void space
# The void calculation uses a probe of radius 1.32A, grid spacing 0.4
# The framework is charged, counterions have been retained in the structure
#
###############################################################################

data_VAPZOF
_chemical_formula_moiety         '(C50 H36 N2 O22 Zn6)n'
_symmetry_cell_setting           triclinic
_symmetry_space_group_name_H-M   'P 1'
_symmetry_Int_Tables_number      1
_space_group_name_Hall           'P 1'
loop_
_symmetry_equiv_pos_site_id
_symmetry_equiv_pos_as_xyz
1 x,y,z
_cell_length_a                   12.153(2)
_cell_length_b                   12.643(3)
_cell_length_c                   12.690(3)
_cell_angle_alpha                84.243(3)
_cell_angle_beta                 85.337(3)
_cell_angle_gamma                78.012(3)
_cell_volume                     1894.01
loop_
_atom_site_label
_atom_site_type_symbol
_atom_site_fract_x
_atom_site_fract_y
_atom_site_fract_z
N1 N 0.4182(10) 0.7300(9) 0.1703(10)
H1 H 0.379449 0.686830 0.144648
H2 H 0.468538 0.747792 0.120351
C1 C 0.4712(14) 0.6797(12) 0.2647(13)
H3 H 0.524502 0.615540 0.247254
H4 H 0.414372 0.660140 0.315614
H5 H 0.509372 0.728080 0.294284
C2 C 0.3398(18) 0.8311(15) 0.2107(19)
H6 H 0.272500 0.839908 0.173347
H7 H 0.374770 0.892358 0.191647
H8 H 0.321070 0.825928 0.285777
N1_2 N 0.5818(10) 0.2700(9) 0.8297(10)
H1_2 H 0.620551 0.313170 0.855352
H2_2 H 0.531462 0.252208 0.879649
C1_2 C 0.5288(14) 0.3203(12) 0.7353(13)
H3_2 H 0.475498 0.384460 0.752746
H4_2 H 0.585628 0.339860 0.684386
H5_2 H 0.490628 0.271920 0.705716
C2_2 C 0.6602(18) 0.1689(15) 0.7893(19)
H6_2 H 0.727500 0.160092 0.826653
H7_2 H 0.625230 0.107642 0.808353
H8_2 H 0.678930 0.174072 0.714223
O1 O 0.2025(3) 0.1577(2) 0.4932(3)
O2 O 0.0874(3) 0.2101(3) 0.3606(3)
C3 C 0.1392(4) 0.1402(3) 0.4231(3)
C4 C 0.1315(4) 0.0232(3) 0.4208(3)
H10 H 0.008658 0.047005 0.316503
Zn7 Zn 0.21950(4) 0.30194(3) 0.51204(4)
O5 O 0.2805(6) 0.6001(5) 0.1162(4)
O9 O 0.1757(3) 0.4835(3) 0.1748(2)
C23 C 0.2194(5) 0.5381(5) 0.1012(4)
H18 H 0.118120 0.396846 0.032728
Zn11 Zn 0.21557(4) 0.49422(4) 0.31711(3)
Zn1 Zn 0.000000 0.500000 0.500000
O3 O 0.1262(2) 0.4060(2) 0.4122(2)
H9 H 0.089728 0.362141 0.387823
O4 O 0.2121(3) 0.3437(3) 0.6572(3)
O6 O 0.0268(3) 0.6549(2) 0.4245(3)
O7 O 0.2092(3) 0.6332(3) 0.3719(3)
O8 O 0.1100(3) 0.5079(3) 0.6125(3)
O10 O 0.6188(3) 0.6986(3) 0.5296(3)
O11 O 0.6266(3) 0.5771(3) 0.6711(3)
C5 C 0.0544(4) 0.9942(3) 0.3587(4)
C6 C 0.2642(3) 0.7526(3) 0.5562(3)
C7 C 0.2141(3) 0.6921(3) 0.6380(3)
H11 H 0.136096 0.699815 0.644102
C8 C 0.2796(4) 0.6201(3) 0.7106(3)
C9 C 0.3964(4) 0.6096(3) 0.7010(3)
H12 H 0.440371 0.564095 0.750512
C10 C 0.3821(3) 0.7401(3) 0.5463(3)
H13 H 0.416009 0.780409 0.492647
C11 C 0.1941(3) 0.8337(3) 0.4836(3)
C12 C 0.1996(3) 0.9425(3) 0.4833(3)
H14 H 0.249773 0.961988 0.525727
C13 C 0.1169(3) 0.8058(3) 0.4203(3)
C14 C 0.0465(4) 0.8866(4) 0.3604(4)
C15 C 0.2292(4) 0.5554(3) 0.7995(3)
C16 C 0.1768(4) 0.4703(4) 0.7853(3)
C17 C 0.2429(4) 0.5762(4) 0.9042(3)
H16 H 0.279894 0.631005 0.915763
C18 C 0.1341(5) 0.4109(5) 0.8714(4)
H17 H 0.097510 0.355452 0.860913
C19 C 0.1149(3) 0.6884(3) 0.4065(3)
C20 C 0.1651(4) 0.4388(3) 0.6755(3)
C21 C 0.4486(4) 0.6669(3) 0.6174(3)
C22 C 0.5742(4) 0.6471(3) 0.6048(4)
C24 C 0.2016(4) 0.5156(4) 0.9908(3)
C25 C 0.1472(5) 0.4357(5) 0.9747(4)
H25 H 0.006588 0.132222 0.679160
Zn9 Zn 0.78050(4) 0.69806(3) 0.48796(4)
Zn13 Zn 0.78443(4) 0.50578(4) 0.68289(3)
O28 O 0.3812(3) 0.3014(3) 0.4704(3)
O30 O 0.3734(3) 0.4229(3) 0.3289(3)
Zn1_2 Zn 1.000000 0.500000 0.500000
H15 H 0.993412 0.867778 0.320840
O14 O 0.8738(2) 0.5940(2) 0.5878(2)
H19 H 0.910272 0.637859 0.612177
O15 O 0.7879(3) 0.6563(3) 0.3428(3)
O17 O 0.9732(3) 0.3451(2) 0.5755(3)
O18 O 0.7908(3) 0.3668(3) 0.6281(3)
O19 O 0.8900(3) 0.4921(3) 0.3875(3)
C28 C 0.9456(4) 0.0058(3) 0.6413(4)
C29 C 0.7358(3) 0.2474(3) 0.4438(3)
C30 C 0.7859(3) 0.3079(3) 0.3620(3)
H21 H 0.863904 0.300185 0.355898
C31 C 0.7204(4) 0.3799(3) 0.2894(3)
C32 C 0.6036(4) 0.3904(3) 0.2990(3)
H22 H 0.559629 0.435905 0.249488
C33 C 0.6179(3) 0.2599(3) 0.4537(3)
H23 H 0.583991 0.219591 0.507353
C34 C 0.8059(3) 0.1663(3) 0.5164(3)
C35 C 0.8004(3) 0.0575(3) 0.5167(3)
H24 H 0.750227 0.038012 0.474273
C36 C 0.8831(3) 0.1942(3) 0.5797(3)
C37 C 0.9535(4) 0.1134(4) 0.6396(4)
C38 C 0.7708(4) 0.4446(3) 0.2005(3)
C39 C 0.8232(4) 0.5297(4) 0.2147(3)
C40 C 0.7571(4) 0.4238(4) 0.0958(3)
H26 H 0.720106 0.368995 0.084237
C41 C 0.8659(5) 0.5891(5) 0.1286(4)
H27 H 0.902490 0.644548 0.139087
C42 C 0.8851(3) 0.3116(3) 0.5935(3)
C43 C 0.8349(4) 0.5612(3) 0.3245(3)
C44 C 0.5514(4) 0.3331(3) 0.3826(3)
C45 C 0.4258(4) 0.3529(3) 0.3952(4)
C47 C 0.7984(4) 0.4844(4) 0.0092(3)
C48 C 0.8528(5) 0.5643(5) 0.0253(4)
O24 O 0.7975(3) 0.8423(2) 0.5068(3)
O26 O 0.8243(3) 0.5165(3) 0.8252(2)
O16 O 0.7195(6) 0.3999(5) 0.8838(4)
C46 C 0.7806(5) 0.4619(5) 0.8988(4)
H28 H 0.881880 0.603154 0.967272
O13 O 0.9126(3) 0.7899(3) 0.6394(3)
C26 C 0.8608(4) 0.8598(3) 0.5769(3)
C27 C 0.8685(4) 0.9768(3) 0.5792(3)
H20 H 0.991342 0.952995 0.683497
loop_
_geom_bond_atom_site_label_1
_geom_bond_atom_site_label_2
_geom_bond_site_symmetry_1
_geom_bond_site_symmetry_2
N1 H1 1_555 1_555
H2 N1 1_555 1_555
C1 N1 1_555 1_555
H3 C1 1_555 1_555
H4 C1 1_555 1_555
H5 C1 1_555 1_555
C2 N1 1_555 1_555
H6 C2 1_555 1_555
H7 C2 1_555 1_555
H8 C2 1_555 1_555
N1_2 H1_2 1_555 1_555
H2_2 N1_2 1_555 1_555
C1_2 N1_2 1_555 1_555
H3_2 C1_2 1_555 1_555
H4_2 C1_2 1_555 1_555
H5_2 C1_2 1_555 1_555
C2_2 N1_2 1_555 1_555
H6_2 C2_2 1_555 1_555
H7_2 C2_2 1_555 1_555
H8_2 C2_2 1_555 1_555
O1 C3 1_555 1_555
O2 C3 1_555 1_555
C3 C4 1_555 1_555
Zn7 O1 1_555 1_555
O5 C23 1_555 1_555
O9 C23 1_555 1_555
Zn11 O9 1_555 1_555
Zn1 O3 1_555 1_555
Zn7 O3 1_555 1_555
Zn11 O3 1_555 1_555
O3 H9 1_555 1_555
O4 Zn7 1_555 1_555
O6 Zn1 1_555 1_555
O7 Zn11 1_555 1_555
O8 Zn1 1_555 1_555
O10 C22 1_555 1_555
O11 C22 1_555 1_555
C6 C7 1_555 1_555
C7 H11 1_555 1_555
C8 C7 1_555 1_555
C9 C8 1_555 1_555
H12 C9 1_555 1_555
C10 C6 1_555 1_555
H13 C10 1_555 1_555
C11 C6 1_555 1_555
H14 C12 1_555 1_555
C13 C11 1_555 1_555
C14 C5 1_555 1_555
C15 C8 1_555 1_555
C16 C15 1_555 1_555
C17 C15 1_555 1_555
H16 C17 1_555 1_555
C18 C16 1_555 1_555
H17 C18 1_555 1_555
C19 O6 1_555 1_555
C20 O4 1_555 1_555
C21 C9 1_555 1_555
C22 C21 1_555 1_555
C24 C17 1_555 1_555
C25 C18 1_555 1_555
Zn9 O10 1_555 1_555
Zn13 O11 1_555 1_555
O28 Zn7 1_555 1_555
O30 Zn11 1_555 1_555
O7 C19 1_555 1_555
O8 C20 1_555 1_555
C10 C21 1_555 1_555
C11 C12 1_555 1_555
C13 C14 1_555 1_555
C13 C19 1_555 1_555
C16 C20 1_555 1_555
C24 C25 1_555 1_555
Zn9 O14 1_555 1_555
Zn13 O14 1_555 1_555
O14 Zn1_2 1_555 1_555
H19 O14 1_555 1_555
O15 Zn9 1_555 1_555
O17 Zn1_2 1_555 1_555
O18 Zn13 1_555 1_555
O19 Zn1_2 1_555 1_555
O28 C45 1_555 1_555
O30 C45 1_555 1_555
C29 C30 1_555 1_555
C30 H21 1_555 1_555
C31 C30 1_555 1_555
C32 C31 1_555 1_555
H22 C32 1_555 1_555
C33 C29 1_555 1_555
H23 C33 1_555 1_555
C34 C29 1_555 1_555
H24 C35 1_555 1_555
C36 C34 1_555 1_555
C37 C28 1_555 1_555
C38 C31 1_555 1_555
C39 C38 1_555 1_555
C40 C38 1_555 1_555
H26 C40 1_555 1_555
C41 C39 1_555 1_555
H27 C41 1_555 1_555
C42 O17 1_555 1_555
C43 O15 1_555 1_555
C44 C32 1_555 1_555
C45 C44 1_555 1_555
C47 C40 1_555 1_555
C48 C41 1_555 1_555
O24 Zn9 1_555 1_555
O26 Zn13 1_555 1_555
O18 C42 1_555 1_555
O19 C43 1_555 1_555
C33 C44 1_555 1_555
C34 C35 1_555 1_555
C36 C37 1_555 1_555
C36 C42 1_555 1_555
C39 C43 1_555 1_555
C47 C48 1_555 1_555
O16 C46 1_555 1_555
O26 C46 1_555 1_555
O24 C26 1_555 1_555
O13 C26 1_555 1_555
C26 C27 1_555 1_555

#END
