
###############################################################################
#
# This file contains modified crystal structure data generated from the
# MOF subset of the Cambridge Structural Database (CSD) v543 
# hosted by the Cambridge Crystallographic Data Centre (CCDC).
#
# This work is licensed under the Creative Commons
# Attribution-NonCommercial-ShareAlike 4.0 International License.
# To view a copy of this license, visit
# http://creativecommons.org/licenses/by-nc-sa/4.0/
# or send a letter to
# Creative Commons, PO Box 1866, Mountain View, CA 94042, USA.
#
# CIF created using the CSD Python API on 29 September 2022
# The structure has been converted into the P1 space group
# The structure has a 3D framework
# The original CSD entry VARRIP is in the hexagonal crystal system
# The framework has been calculated to contain at least 10.0% void space
# The void calculation uses a probe of radius 1.32A, grid spacing 0.4
#
###############################################################################

data_VARRIP
_chemical_formula_moiety         '(C24 H36 La2 O45 Y9)n'
_symmetry_cell_setting           triclinic
_symmetry_space_group_name_H-M   'P 1'
_symmetry_Int_Tables_number      1
_space_group_name_Hall           'P 1'
loop_
_symmetry_equiv_pos_site_id
_symmetry_equiv_pos_as_xyz
1 x,y,z
_cell_length_a                   9.184(2)
_cell_length_b                   9.184(2)
_cell_length_c                   17.813(7)
_cell_angle_alpha                90
_cell_angle_beta                 90
_cell_angle_gamma                120
_cell_volume                     1301.16
loop_
_atom_site_label
_atom_site_type_symbol
_atom_site_fract_x
_atom_site_fract_y
_atom_site_fract_z
Y1 Y 0.0000 0.0000 0.0000
O24 O 0.2663(6) 0.2663(6) 0.0000
O25 O 0.2009(5) 0.0281(7) 0.0915(2)
Y1_2 Y -0.0000 -0.0000 1.0000
O23 O 0.0281(7) 0.2009(5) 0.9085(2)
O24_2 O 0.2663(6) 0.2663(6) 1.0000
Y1_3 Y -0.0000 1.0000 0.0000
O20 O -0.0000 0.7337(6) 0.0000
Y1_4 Y -0.0000 1.0000 1.0000
C9 C 0.1871(13) 0.8469(15) 0.8954(3)
C10 C 0.0914(9) 0.6955(12) 0.9476(4)
H15 H 0.0251(9) 0.5994(12) 0.9180(4)
H16 H 0.1670(9) 0.6773(12) 0.9763(4)
O18 O 0.1728(5) 0.9719(7) 0.9085(2)
O19 O 0.2669(5) 0.8290(7) 0.8440(3)
O20_2 O -0.0000 0.7337(6) 1.0000
La4 La 0.3333 0.6666 0.7500
O3 O 0.7337(6) 0.0000 0.0000
Y1_5 Y 1.0000 0.0000 0.0000
C3 C 0.6955(12) 0.0914(9) 0.0524(4)
C4 C 0.8469(15) 0.1871(13) 0.1046(3)
O5 O 0.9719(7) 0.1728(5) 0.0915(2)
O6 O 0.8290(7) 0.2669(5) 0.1560(3)
H5 H 0.5994(12) 0.0251(9) 0.0820(4)
H6 H 0.6773(12) 0.1670(9) 0.0237(4)
La2 La 0.6666 0.3333 0.2500
O3_2 O 0.7337(6) -0.0000 1.0000
Y1_6 Y 1.0000 -0.0000 1.0000
H13 H 0.642(17) 0.051(12) 0.7500
H14 H 0.504(15) 0.034(12) 0.7500
O3_3 O 0.7337(6) 1.0000 0.0000
Y1_7 Y 1.0000 1.0000 0.0000
C7 C 0.3959(8) 0.3045(12) 0.0524(4)
C8 C 0.3402(8) 0.1531(15) 0.1046(3)
O12 O 0.4379(5) 0.1710(7) 0.1560(3)
H9 H 0.4257(8) 0.4006(12) 0.0820(4)
H10 H 0.4897(8) 0.3227(12) 0.0237(4)
O20_3 O 1.0000 0.7337(6) 0.0000
C11 C 0.9086(9) 0.6041(8) 0.0524(4)
C12 C 0.8129(13) 0.6598(8) 0.1046(3)
O21 O 0.8272(5) 0.7991(5) 0.0915(2)
O22 O 0.7331(5) 0.5621(5) 0.1560(3)
H17 H 0.9749(9) 0.5743(8) 0.0820(4)
H18 H 0.8330(9) 0.5103(8) 0.0237(4)
C1 C 0.6598(8) 0.8129(13) 0.8954(3)
C2 C 0.6041(8) 0.9086(9) 0.9476(4)
H1 H 0.5743(8) 0.9749(9) 0.9180(4)
H2 H 0.5103(8) 0.8330(9) 0.9763(4)
O1 O 0.7991(5) 0.8272(5) 0.9085(2)
O2 O 0.5621(5) 0.7331(5) 0.8440(3)
O3_4 O 0.7337(6) 1.0000 1.0000
O4 O 0.0079(8) 0.5603(9) 0.7500
Y1_8 Y 1.0000 1.0000 1.0000
C5 C 0.1531(15) 0.3402(8) 0.8954(3)
C6 C 0.3045(12) 0.3959(8) 0.9476(4)
H7 H 0.4006(12) 0.4257(8) 0.9180(4)
H8 H 0.3227(12) 0.4897(8) 0.9763(4)
O9 O 0.1710(7) 0.4379(5) 0.8440(3)
O13 O 0.5621(5) 0.7331(5) 0.6560(3)
O14 O 0.2669(5) 0.8290(7) 0.6560(3)
O15 O 0.1710(7) 0.4379(5) 0.6560(3)
O16 O 0.4397(9) 0.4476(12) 0.7500
H11 H 0.409(12) 0.358(17) 0.7500
H12 H 0.5299(92) 0.496(15) 0.7500
O17 O 0.5524(12) 0.9921(8) 0.7500
O20_4 O 1.0000 0.7337(6) 1.0000
H3 H 0.949(12) 0.591(12) 0.7500
H4 H 0.966(12) 0.4701(92) 0.7500
Y1_9 Y -0.0000 -0.0000 0.5000
O23_2 O 0.0281(7) 0.2009(5) 0.5915(2)
O24_3 O 0.2663(6) 0.2663(6) 0.5000
O25_2 O 0.2009(5) 0.0281(7) 0.4085(2)
Y1_10 Y -0.0000 1.0000 0.5000
C9_2 C 0.1871(13) 0.8469(15) 0.6046(3)
C10_2 C 0.0914(9) 0.6955(12) 0.5524(4)
H15_2 H 0.0251(9) 0.5994(12) 0.5820(4)
H16_2 H 0.1670(9) 0.6773(12) 0.5237(4)
O18_2 O 0.1728(5) 0.9719(7) 0.5915(2)
O20_5 O -0.0000 0.7337(6) 0.5000
O3_5 O 0.7337(6) -0.0000 0.5000
Y1_11 Y 1.0000 -0.0000 0.5000
C3_2 C 0.6955(12) 0.0914(9) 0.4476(4)
C4_2 C 0.8469(15) 0.1871(13) 0.3954(3)
O5_2 O 0.9719(7) 0.1728(5) 0.4085(2)
O6_2 O 0.8290(7) 0.2669(5) 0.3440(3)
H5_2 H 0.5994(12) 0.0251(9) 0.4180(4)
H6_2 H 0.6773(12) 0.1670(9) 0.4763(4)
C1_2 C 0.6598(8) 0.8129(13) 0.6046(3)
C2_2 C 0.6041(8) 0.9086(9) 0.5524(4)
H1_2 H 0.5743(8) 0.9749(9) 0.5820(4)
H2_2 H 0.5103(8) 0.8330(9) 0.5237(4)
O1_2 O 0.7991(5) 0.8272(5) 0.5915(2)
O3_6 O 0.7337(6) 1.0000 0.5000
Y1_12 Y 1.0000 1.0000 0.5000
C5_2 C 0.1531(15) 0.3402(8) 0.6046(3)
C6_2 C 0.3045(12) 0.3959(8) 0.5524(4)
H7_2 H 0.4006(12) 0.4257(8) 0.5820(4)
H8_2 H 0.3227(12) 0.4897(8) 0.5237(4)
C7_2 C 0.3959(8) 0.3045(12) 0.4476(4)
C8_2 C 0.3402(8) 0.1531(15) 0.3954(3)
O12_2 O 0.4379(5) 0.1710(7) 0.3440(3)
H9_2 H 0.4257(8) 0.4006(12) 0.4180(4)
H10_2 H 0.4897(8) 0.3227(12) 0.4763(4)
O20_6 O 1.0000 0.7337(6) 0.5000
C11_2 C 0.9086(9) 0.6041(8) 0.4476(4)
C12_2 C 0.8129(13) 0.6598(8) 0.3954(3)
O21_2 O 0.8272(5) 0.7991(5) 0.4085(2)
O22_2 O 0.7331(5) 0.5621(5) 0.3440(3)
H17_2 H 0.9749(9) 0.5743(8) 0.4180(4)
H18_2 H 0.8330(9) 0.5103(8) 0.4763(4)
H13_2 H 0.051(12) 0.642(17) 0.2500
H14_2 H 0.034(12) 0.504(15) 0.2500
O4_2 O 0.5603(9) 0.0079(8) 0.2500
O16_2 O 0.4476(12) 0.4397(9) 0.2500
H11_2 H 0.358(17) 0.409(12) 0.2500
H12_2 H 0.496(15) 0.5299(92) 0.2500
O17_2 O 0.9921(8) 0.5524(12) 0.2500
H3_2 H 0.591(12) 0.949(12) 0.2500
H4_2 H 0.4701(92) 0.966(12) 0.2500
loop_
_geom_bond_atom_site_label_1
_geom_bond_atom_site_label_2
_geom_bond_site_symmetry_1
_geom_bond_site_symmetry_2
O24 Y1 1_555 1_555
O25 Y1 1_555 1_555
O23 Y1_2 1_555 1_555
O24_2 Y1_2 1_555 1_555
O20 Y1_3 1_555 1_555
C9 C10 1_555 1_555
C10 H15 1_555 1_555
H16 C10 1_555 1_555
O18 Y1_4 1_555 1_555
O19 C9 1_555 1_555
O20_2 Y1_4 1_555 1_555
La4 O19 1_555 1_555
C9 O18 1_555 1_555
C10 O20_2 1_555 1_555
C3 O3 1_555 1_555
C4 C3 1_555 1_555
O5 Y1_5 1_555 1_555
O6 C4 1_555 1_555
H5 C3 1_555 1_555
H6 C3 1_555 1_555
La2 O6 1_555 1_555
O3 Y1_5 1_555 1_555
C4 O5 1_555 1_555
O3_2 Y1_6 1_555 1_555
C7 O24 1_555 1_555
C8 C7 1_555 1_555
O25 C8 1_555 1_555
O12 C8 1_555 1_555
H9 C7 1_555 1_555
H10 C7 1_555 1_555
La2 O12 1_555 1_555
O20_3 Y1_7 1_555 1_555
C11 O20_3 1_555 1_555
C12 C11 1_555 1_555
O21 Y1_7 1_555 1_555
O22 La2 1_555 1_555
H17 C11 1_555 1_555
H18 C11 1_555 1_555
O3_3 Y1_7 1_555 1_555
C12 O21 1_555 1_555
C12 O22 1_555 1_555
C1 C2 1_555 1_555
C2 H1 1_555 1_555
H2 C2 1_555 1_555
O1 C1 1_555 1_555
O2 C1 1_555 1_555
O3_4 C2 1_555 1_555
O4 La4 1_555 1_555
La4 O2 1_555 1_555
Y1_8 O1 1_555 1_555
C5 C6 1_555 1_555
C6 H7 1_555 1_555
H8 C6 1_555 1_555
O23 C5 1_555 1_555
O9 La4 1_555 1_555
O24_2 C6 1_555 1_555
O13 La4 1_555 1_555
O14 La4 1_555 1_555
O15 La4 1_555 1_555
O16 La4 1_555 1_555
H11 O16 1_555 1_555
H12 O16 1_555 1_555
O17 La4 1_555 1_555
O20_4 Y1_8 1_555 1_555
O3_4 Y1_8 1_555 1_555
C5 O9 1_555 1_555
O23_2 Y1_9 1_555 1_555
O24_3 Y1_9 1_555 1_555
O25_2 Y1_9 1_555 1_555
C9_2 C10_2 1_555 1_555
C10_2 H15_2 1_555 1_555
H16_2 C10_2 1_555 1_555
O18_2 Y1_10 1_555 1_555
O14 C9_2 1_555 1_555
O20_5 Y1_10 1_555 1_555
C9_2 O18_2 1_555 1_555
C10_2 O20_5 1_555 1_555
C3_2 O3_5 1_555 1_555
C4_2 C3_2 1_555 1_555
O5_2 Y1_11 1_555 1_555
O6_2 C4_2 1_555 1_555
H5_2 C3_2 1_555 1_555
H6_2 C3_2 1_555 1_555
La2 O6_2 1_555 1_555
O3_5 Y1_11 1_555 1_555
C4_2 O5_2 1_555 1_555
C1_2 C2_2 1_555 1_555
C2_2 H1_2 1_555 1_555
H2_2 C2_2 1_555 1_555
O1_2 C1_2 1_555 1_555
O13 C1_2 1_555 1_555
O3_6 C2_2 1_555 1_555
Y1_12 O1_2 1_555 1_555
C5_2 C6_2 1_555 1_555
C6_2 H7_2 1_555 1_555
H8_2 C6_2 1_555 1_555
O23_2 C5_2 1_555 1_555
O24_3 C6_2 1_555 1_555
C7_2 O24_3 1_555 1_555
C8_2 C7_2 1_555 1_555
O25_2 C8_2 1_555 1_555
O12_2 C8_2 1_555 1_555
H9_2 C7_2 1_555 1_555
H10_2 C7_2 1_555 1_555
La2 O12_2 1_555 1_555
O20_6 Y1_12 1_555 1_555
C11_2 O20_6 1_555 1_555
C12_2 C11_2 1_555 1_555
O21_2 Y1_12 1_555 1_555
O22_2 La2 1_555 1_555
H17_2 C11_2 1_555 1_555
H18_2 C11_2 1_555 1_555
O3_6 Y1_12 1_555 1_555
C5_2 O15 1_555 1_555
C12_2 O21_2 1_555 1_555
C12_2 O22_2 1_555 1_555
O4_2 La2 1_555 1_555
O16_2 La2 1_555 1_555
H11_2 O16_2 1_555 1_555
H12_2 O16_2 1_555 1_555
O17_2 La2 1_555 1_555

#END
