
###############################################################################
#
# This file contains modified crystal structure data generated from the
# MOF subset of the Cambridge Structural Database (CSD) v543 
# hosted by the Cambridge Crystallographic Data Centre (CCDC).
#
# This work is licensed under the Creative Commons
# Attribution-NonCommercial-ShareAlike 4.0 International License.
# To view a copy of this license, visit
# http://creativecommons.org/licenses/by-nc-sa/4.0/
# or send a letter to
# Creative Commons, PO Box 1866, Mountain View, CA 94042, USA.
#
# CIF created using the CSD Python API on 29 September 2022
# The structure has been converted into the P1 space group
# The structure has a 3D framework
# The original CSD entry VASFAZ is in the triclinic crystal system
# The framework has been calculated to contain at least 10.0% void space
# The void calculation uses a probe of radius 1.32A, grid spacing 0.4
# H atom positions have been added when not included in the experimental data
# Generated hydrogen atom positions removed from atoms on special positions
#
###############################################################################

data_VASFAZ
_chemical_formula_moiety         '(C18 H22 Ce2 N6 O16)n'
_symmetry_cell_setting           triclinic
_symmetry_space_group_name_H-M   'P 1'
_symmetry_Int_Tables_number      1
_space_group_name_Hall           'P 1'
loop_
_symmetry_equiv_pos_site_id
_symmetry_equiv_pos_as_xyz
1 x,y,z
_cell_length_a                   6.099(5)
_cell_length_b                   10.501(5)
_cell_length_c                   13.688(5)
_cell_angle_alpha                72.607(5)
_cell_angle_beta                 88.789(5)
_cell_angle_gamma                88.980(5)
_cell_volume                     836.325
loop_
_atom_site_label
_atom_site_type_symbol
_atom_site_fract_x
_atom_site_fract_y
_atom_site_fract_z
_atom_site_U_iso_or_equiv
_atom_site_thermal_displace_type
C2 C 0.1089(7) 0.0517(4) 0.4116(3) 0.0299 Uani
H1 H 0.1894 0.0853 0.3511 0.0360 Uiso
O7 O 0.4390(4) 0.4774(3) 0.3251(2) 0.0269 Uani
O8 O 0.1554(5) 0.3589(3) 0.3011(2) 0.0287 Uani
C7 C 0.2475(6) 0.4326(4) 0.3433(3) 0.0229 Uani
C8 C 0.1166(6) 0.4710(4) 0.4257(3) 0.0233 Uani
N6 N 0.0898(5) 0.5727(4) 0.5587(3) 0.0255 Uani
C18 C 0.2054(6) 0.5442(4) 0.4844(3) 0.0256 Uani
H6 H 0.3490 0.5738 0.4714 0.0310 Uiso
Ce3 Ce 0.74860(3) 0.33898(2) 0.29069(2) 0.0196 Uani
Ce6 Ce 0.25140(3) 0.66102(2) 0.70931(2) 0.0196 Uani
C10 C 0.3993(7) 0.8687(4) 0.4731(3) 0.0259 Uani
O9 O 0.4542(5) 0.7716(3) 0.5471(2) 0.0326 Uani
O10 O 0.5026(6) 0.9106(4) 0.3903(3) 0.0428 Uani
N4 N 0.0786(5) 0.8881(4) 0.5751(3) 0.0274 Uani
C12 C 0.1867(6) 0.9397(4) 0.4864(3) 0.0253 Uani
C1 C 0.6007(7) 0.1313(4) 0.5269(3) 0.0259 Uani
O1 O 0.5458(5) 0.2284(3) 0.4529(2) 0.0326 Uani
O2 O 0.4974(6) 0.0894(4) 0.6097(3) 0.0428 Uani
O3 O 0.9376(5) 0.3024(4) 0.1416(2) 0.0361 Uani
N1 N 0.5656(6) 0.4437(4) 0.1005(3) 0.0278 Uani
N2 N 0.9214(5) 0.1119(4) 0.4249(3) 0.0274 Uani
C3 C 0.8133(6) 0.0603(4) 0.5136(3) 0.0253 Uani
C4 C 0.6826(7) 0.4262(4) 0.0223(3) 0.0265 Uani
C5 C 0.8908(7) 0.3430(4) 0.0481(3) 0.0288 Uani
C6 C 0.3826(7) 0.5177(4) 0.0783(3) 0.0300 Uani
H2 H 0.2971 0.5319 0.1312 0.0360 Uiso
O5 O 0.8471(6) 0.5829(3) 0.2184(2) 0.0366 Uani
O6 O 0.5648(6) 0.1504(3) 0.2521(3) 0.0429 Uani
N3 N 0.9102(5) 0.4273(4) 0.4413(3) 0.0255 Uani
C9 C 0.7946(6) 0.4558(4) 0.5156(3) 0.0256 Uani
H3 H 0.6510 0.4262 0.5286 0.0310 Uiso
O13 O 0.5610(4) 0.5226(3) 0.6749(2) 0.0269 Uani
O14 O 0.8446(5) 0.6411(3) 0.6989(2) 0.0287 Uani
C16 C 0.7525(6) 0.5674(4) 0.6567(3) 0.0229 Uani
C17 C 0.8834(6) 0.5290(4) 0.5743(3) 0.0233 Uani
O11 O 0.0624(5) 0.6976(4) 0.8584(2) 0.0361 Uani
N5 N 0.4344(6) 0.5563(4) 0.8995(3) 0.0278 Uani
C13 C 0.3174(7) 0.5738(4) 0.9777(3) 0.0265 Uani
C14 C 0.1092(7) 0.6570(4) 0.9519(3) 0.0288 Uani
C15 C 0.6174(7) 0.4823(4) 0.9217(3) 0.0300 Uani
H5 H 0.7029 0.4681 0.8688 0.0360 Uiso
O15 O 0.1529(6) 0.4171(3) 0.7816(2) 0.0366 Uani
O16 O 0.4352(6) 0.8496(3) 0.7479(3) 0.0429 Uani
C11 C 0.8911(7) 0.9483(4) 0.5884(3) 0.0299 Uani
H4 H 0.8106 0.9147 0.6489 0.0360 Uiso
H13 H 0.990925 0.408615 0.787721 . .
H13_2 H 0.00907506 0.591385 0.212279 . .
O4 O 0.0015(7) 0.3211(5) 0.9778(3) 0.0507 Uani
O12 O 0.9985(7) 0.6789(5) 0.0222(3) 0.0507 Uani
loop_
_atom_site_aniso_label
_atom_site_aniso_U_11
_atom_site_aniso_U_22
_atom_site_aniso_U_33
_atom_site_aniso_U_23
_atom_site_aniso_U_13
_atom_site_aniso_U_12
C2 0.025 0.035 0.0229 0.0011 0.0068 0.0014
O7 0.019 0.0356 0.0246 -0.0073 0.008 0.0011
O8 0.0235 0.0409 0.0248 -0.0148 0.0017 0.0042
C7 0.0188 0.0312 0.0167 -0.0045 0.0017 0.0079
C8 0.0171 0.0336 0.0176 -0.0057 0.0005 0.0044
N6 0.0175 0.0368 0.0218 -0.0086 0.0024 0.0024
C18 0.0159 0.04 0.0219 -0.011 0.0043 0.0005
Ce3 0.01713 0.02648 0.01351 -0.00376 0.00138 0.00282
Ce6 0.01713 0.02648 0.01351 -0.00376 0.00138 0.00282
C10 0.0229 0.0283 0.0239 -0.0042 0.0022 -0.0006
O9 0.0257 0.0372 0.0262 0.0029 0.0042 0.0062
O10 0.0435 0.0422 0.0314 0.0046 0.0168 0.0109
N4 0.0219 0.0323 0.0229 -0.0008 0.0008 0.0032
C12 0.022 0.0294 0.0223 -0.0044 -0.0005 0.0015
C1 0.0229 0.0283 0.0239 -0.0042 0.0022 -0.0006
O1 0.0257 0.0372 0.0262 0.0029 0.0042 0.0062
O2 0.0435 0.0422 0.0314 0.0046 0.0168 0.0109
O3 0.0295 0.058 0.0209 -0.0127 -0.0008 0.0101
N1 0.0279 0.0365 0.017 -0.005 0.0033 -0.0007
N2 0.0219 0.0323 0.0229 -0.0008 0.0008 0.0032
C3 0.022 0.0294 0.0223 -0.0044 -0.0005 0.0015
C4 0.026 0.0317 0.0207 -0.0062 0.0011 -0.0015
C5 0.027 0.037 0.021 -0.0068 0.0041 0.0017
C6 0.03 0.041 0.0171 -0.0059 0.002 0.0021
O5 0.0423 0.0352 0.0302 -0.0071 0.0091 -0.0019
O6 0.057 0.038 0.032 -0.0073 0.0017 -0.0149
N3 0.0175 0.0368 0.0218 -0.0086 0.0024 0.0024
C9 0.0159 0.04 0.0219 -0.011 0.0043 0.0005
O13 0.019 0.0356 0.0246 -0.0073 0.008 0.0011
O14 0.0235 0.0409 0.0248 -0.0148 0.0017 0.0042
C16 0.0188 0.0312 0.0167 -0.0045 0.0017 0.0079
C17 0.0171 0.0336 0.0176 -0.0057 0.0005 0.0044
O11 0.0295 0.058 0.0209 -0.0127 -0.0008 0.0101
N5 0.0279 0.0365 0.017 -0.005 0.0033 -0.0007
C13 0.026 0.0317 0.0207 -0.0062 0.0011 -0.0015
C14 0.027 0.037 0.021 -0.0068 0.0041 0.0017
C15 0.03 0.041 0.0171 -0.0059 0.002 0.0021
O15 0.0423 0.0352 0.0302 -0.0071 0.0091 -0.0019
O16 0.057 0.038 0.032 -0.0073 0.0017 -0.0149
C11 0.025 0.035 0.0229 0.0011 0.0068 0.0014
O4 0.052 0.073 0.0232 -0.0102 0.008 0.0241
O12 0.052 0.073 0.0232 -0.0102 0.008 0.0241
loop_
_geom_bond_atom_site_label_1
_geom_bond_atom_site_label_2
_geom_bond_site_symmetry_1
_geom_bond_site_symmetry_2
C2 H1 1_555 1_555
O7 C7 1_555 1_555
C7 O8 1_555 1_555
C8 C7 1_555 1_555
C18 C8 1_555 1_555
H6 C18 1_555 1_555
Ce3 O7 1_555 1_555
N6 C18 1_555 1_555
N6 Ce6 1_555 1_555
C10 O9 1_555 1_555
O9 Ce6 1_555 1_555
O10 C10 1_555 1_555
Ce6 N4 1_555 1_555
C10 C12 1_555 1_555
N4 C12 1_555 1_555
Ce3 O1 1_555 1_555
C1 O1 1_555 1_555
O2 C1 1_555 1_555
O3 Ce3 1_555 1_555
N1 Ce3 1_555 1_555
N2 Ce3 1_555 1_555
C3 C1 1_555 1_555
C4 N1 1_555 1_555
C5 O3 1_555 1_555
C6 N1 1_555 1_555
H2 C6 1_555 1_555
O5 Ce3 1_555 1_555
O6 Ce3 1_555 1_555
N3 Ce3 1_555 1_555
C9 N3 1_555 1_555
H3 C9 1_555 1_555
O13 C16 1_555 1_555
O14 C16 1_555 1_555
C16 C17 1_555 1_555
C17 C9 1_555 1_555
Ce6 O13 1_555 1_555
N2 C3 1_555 1_555
C4 C5 1_555 1_555
O11 C14 1_555 1_555
N5 C13 1_555 1_555
C14 C13 1_555 1_555
H5 C15 1_555 1_555
Ce6 O11 1_555 1_555
O15 Ce6 1_555 1_555
O16 Ce6 1_555 1_555
N5 C15 1_555 1_555
N5 Ce6 1_555 1_555
H4 C11 1_555 1_555

#END
