
###############################################################################
#
# This file contains modified crystal structure data generated from the
# MOF subset of the Cambridge Structural Database (CSD) v543 
# hosted by the Cambridge Crystallographic Data Centre (CCDC).
#
# This work is licensed under the Creative Commons
# Attribution-NonCommercial-ShareAlike 4.0 International License.
# To view a copy of this license, visit
# http://creativecommons.org/licenses/by-nc-sa/4.0/
# or send a letter to
# Creative Commons, PO Box 1866, Mountain View, CA 94042, USA.
#
# CIF created using the CSD Python API on 29 September 2022
# The structure has been converted into the P1 space group
# The structure has a 3D framework
# The original CSD entry VASFIH is in the triclinic crystal system
# The framework has been calculated to contain at least 10.0% void space
# The void calculation uses a probe of radius 1.32A, grid spacing 0.4
# H atom positions have been added when not included in the experimental data
# Generated hydrogen atom positions removed from atoms on special positions
#
###############################################################################

data_VASFIH
_chemical_formula_moiety         '(C18 H22 Er2 N6 O16)n'
_symmetry_cell_setting           triclinic
_symmetry_space_group_name_H-M   'P 1'
_symmetry_Int_Tables_number      1
_space_group_name_Hall           'P 1'
loop_
_symmetry_equiv_pos_site_id
_symmetry_equiv_pos_as_xyz
1 x,y,z
_cell_length_a                   6.0327(2)
_cell_length_b                   12.7752(4)
_cell_length_c                   13.1775(5)
_cell_angle_alpha                118.990(4)
_cell_angle_beta                 90.575(3)
_cell_angle_gamma                91.670(2)
_cell_volume                     887.612
loop_
_atom_site_label
_atom_site_type_symbol
_atom_site_fract_x
_atom_site_fract_y
_atom_site_fract_z
_atom_site_U_iso_or_equiv
_atom_site_thermal_displace_type
Er2 Er 0.27633(3) 0.16011(2) 0.32198(2) 0.0179 Uani
N1 N 0.4140(5) 0.0730(3) 0.1091(3) 0.0217 Uani
N2 N 0.0768(5) 0.0479(3) 0.4311(3) 0.0242 Uani
N3 N 0.4305(5) 0.3795(3) 0.4450(3) 0.0255 Uani
O1 O 0.6631(4) 0.1655(3) 0.2973(2) 0.0270 Uani
O2 O 0.4490(5) 0.1790(3) 0.4855(2) 0.0265 Uani
O3 O 0.1919(5) 0.2850(3) 0.2481(3) 0.0321 Uani
O4 O 0.0020(5) 0.2787(3) 0.4502(3) 0.0302 Uani
C1 C 0.6245(6) 0.0397(3) 0.0966(3) 0.0196 Uani
C2 C 0.2901(6) 0.0346(4) 0.0109(3) 0.0222 Uani
C3 C 0.1879(6) 0.0659(3) 0.5267(3) 0.0237 Uani
C5 C 0.3850(7) 0.4507(4) 0.4001(4) 0.0274 Uani
C6 C 0.5443(7) 0.4298(4) 0.5451(4) 0.0288 Uani
C7 C 0.7613(6) 0.0942(3) 0.2073(3) 0.0208 Uani
C8 C 0.4018(6) 0.1397(3) 0.5538(3) 0.0228 Uani
C9 C 0.2496(9) 0.3936(4) 0.2878(4) 0.0363 Uani
H1 H 0.1447 0.0585 0.0156 0.0270 Uiso
H3 H 0.5777 0.3834 0.5796 0.0350 Uiso
O7 O 0.5192(6) 0.1559(3) 0.6387(3) 0.0375 Uani
O8 O 0.2026(9) 0.4566(3) 0.2433(4) 0.0673 Uani
C12 C 0.1107(7) 0.0186(4) 0.5955(4) 0.0261 Uani
C14 C 0.4557(7) 0.5702(4) 0.4549(4) 0.0288 Uani
C15 C 0.6150(7) 0.5493(4) 0.5999(4) 0.0274 Uani
O9 O 0.9605(4) 0.0679(3) 0.2034(2) 0.0247 Uani
H5 H 0.1921 0.0337 0.6619 0.0310 Uiso
N6 N 0.5695(5) 0.6205(3) 0.5550(3) 0.0255 Uani
H6 H 0.4223 0.6166 0.4204 0.0350 Uiso
C18 C 0.7504(9) 0.6064(4) 0.7122(4) 0.0363 Uani
Er5 Er 0.72367(3) 0.83989(2) 0.67802(2) 0.0179 Uani
O14 O 0.8081(5) 0.7150(3) 0.7519(3) 0.0321 Uani
O15 O 0.7974(9) 0.5434(3) 0.7567(4) 0.0673 Uani
H14 H 0.0269681 0.284409 0.527352 . .
O5 O 0.3693(5) 0.9572(3) 0.2402(3) 0.0314 Uani
O16 O 0.0395(4) 0.9321(3) 0.7966(2) 0.0247 Uani
H9 H 0.144139 0.765232 0.574093 . .
H10 H 0.00604976 0.64483 0.551871 . .
C10 C 0.7099(6) 0.9654(4) 0.9891(3) 0.0222 Uani
C11 C 0.3755(6) 0.9603(3) 0.9034(3) 0.0196 Uani
N4 N 0.5860(5) 0.9270(3) 0.8909(3) 0.0217 Uani
H4 H 0.8553 0.9415 0.9844 0.0270 Uiso
C16 C 0.2387(6) 0.9058(3) 0.7927(3) 0.0208 Uani
O10 O 0.3369(4) 0.8345(3) 0.7027(2) 0.0270 Uani
O19 O 0.6307(5) 0.0428(3) 0.7598(3) 0.0314 Uani
H13 H 0.852841 0.241241 0.41866 . .
C4 C 0.8893(7) 0.9814(4) 0.4045(4) 0.0261 Uani
H2 H 0.8079 0.9663 0.3381 0.0310 Uiso
C13 C 0.8121(6) 0.9341(3) 0.4733(3) 0.0237 Uani
N5 N 0.9232(5) 0.9521(3) 0.5689(3) 0.0242 Uani
C17 C 0.5982(6) 0.8603(3) 0.4462(3) 0.0228 Uani
O12 O 0.5510(5) 0.8210(3) 0.5145(2) 0.0265 Uani
O13 O 0.4808(6) 0.8441(3) 0.3613(3) 0.0375 Uani
O20 O 0.9980(5) 0.7213(3) 0.5498(3) 0.0302 Uani
H13_2 H 0.147159 0.758759 0.58134 . .
H9_2 H 0.855861 0.234768 0.425907 . .
H10_2 H 0.99395 0.35517 0.448129 . .
H14_2 H 0.973032 0.715591 0.472648 . .
loop_
_atom_site_aniso_label
_atom_site_aniso_U_11
_atom_site_aniso_U_22
_atom_site_aniso_U_33
_atom_site_aniso_U_23
_atom_site_aniso_U_13
_atom_site_aniso_U_12
Er2 0.01405 0.02241 0.0172 0.00977 -0.00316 -0.00113
N1 0.0153 0.0275 0.0233 0.0133 -0.0017 -0.001
N2 0.0232 0.029 0.0236 0.0153 -0.0002 -0.0001
N3 0.0246 0.0245 0.0274 0.0128 -0.0025 -0.0009
O1 0.0164 0.0387 0.0175 0.0073 -0.0023 -0.0014
O2 0.0264 0.0327 0.026 0.0192 -0.0072 -0.0076
O3 0.0429 0.0248 0.0268 0.0116 -0.0125 -0.0027
O4 0.0221 0.0363 0.0277 0.0119 0.0006 0.0035
C1 0.016 0.0271 0.019 0.0139 -0.0032 -0.0022
C2 0.0158 0.0321 0.0202 0.014 -0.0022 0.0014
C3 0.0254 0.026 0.0206 0.0121 -0.0008 0.0015
C5 0.029 0.0271 0.027 0.014 -0.0046 -0.0019
C6 0.033 0.028 0.028 0.0159 -0.0091 0.0004
C7 0.0157 0.0275 0.0234 0.0158 -0.0015 -0.0033
C8 0.025 0.0254 0.0208 0.0136 -0.0023 -0.0003
C9 0.049 0.03 0.029 0.0141 -0.0118 -0.0021
O7 0.0386 0.0487 0.0362 0.0303 -0.0151 -0.0139
O8 0.115 0.0372 0.055 0.0283 -0.045 -0.015
C12 0.0251 0.033 0.0248 0.018 -0.0033 -0.0025
C14 0.033 0.028 0.028 0.0159 -0.0091 0.0004
C15 0.029 0.0271 0.027 0.014 -0.0046 -0.0019
O9 0.0152 0.0348 0.0222 0.0125 -0.0053 -0.0008
N6 0.0246 0.0245 0.0274 0.0128 -0.0025 -0.0009
C18 0.049 0.03 0.029 0.0141 -0.0118 -0.0021
Er5 0.01405 0.02241 0.0172 0.00977 -0.00316 -0.00113
O14 0.0429 0.0248 0.0268 0.0116 -0.0125 -0.0027
O15 0.115 0.0372 0.055 0.0283 -0.045 -0.015
O5 0.0412 0.0266 0.0292 0.0155 0.0024 0.0067
O16 0.0152 0.0348 0.0222 0.0125 -0.0053 -0.0008
C10 0.0158 0.0321 0.0202 0.014 -0.0022 0.0014
C11 0.016 0.0271 0.019 0.0139 -0.0032 -0.0022
N4 0.0153 0.0275 0.0233 0.0133 -0.0017 -0.001
C16 0.0157 0.0275 0.0234 0.0158 -0.0015 -0.0033
O10 0.0164 0.0387 0.0175 0.0073 -0.0023 -0.0014
O19 0.0412 0.0266 0.0292 0.0155 0.0024 0.0067
C4 0.0251 0.033 0.0248 0.018 -0.0033 -0.0025
C13 0.0254 0.026 0.0206 0.0121 -0.0008 0.0015
N5 0.0232 0.029 0.0236 0.0153 -0.0002 -0.0001
C17 0.025 0.0254 0.0208 0.0136 -0.0023 -0.0003
O12 0.0264 0.0327 0.026 0.0192 -0.0072 -0.0076
O13 0.0386 0.0487 0.0362 0.0303 -0.0151 -0.0139
O20 0.0221 0.0363 0.0277 0.0119 0.0006 0.0035
loop_
_geom_bond_atom_site_label_1
_geom_bond_atom_site_label_2
_geom_bond_site_symmetry_1
_geom_bond_site_symmetry_2
Er2 N1 1_555 1_555
N1 C1 1_555 1_555
N2 Er2 1_555 1_555
N3 Er2 1_555 1_555
O1 Er2 1_555 1_555
O2 Er2 1_555 1_555
O3 Er2 1_555 1_555
O4 Er2 1_555 1_555
C1 C7 1_555 1_555
C2 N1 1_555 1_555
C3 N2 1_555 1_555
C5 N3 1_555 1_555
C6 N3 1_555 1_555
C7 O1 1_555 1_555
C8 O2 1_555 1_555
C9 O3 1_555 1_555
H1 C2 1_555 1_555
H3 C6 1_555 1_555
O7 C8 1_555 1_555
O8 C9 1_555 1_555
C12 C3 1_555 1_555
C14 C5 1_555 1_555
C15 C6 1_555 1_555
O9 C7 1_555 1_555
H5 C12 1_555 1_555
N6 C14 1_555 1_555
H6 C14 1_555 1_555
C18 C15 1_555 1_555
Er5 N6 1_555 1_555
O14 C18 1_555 1_555
O15 C18 1_555 1_555
C3 C8 1_555 1_555
C5 C9 1_555 1_555
C15 N6 1_555 1_555
Er5 O14 1_555 1_555
O4 H14 1_555 1_555
N4 C10 1_555 1_555
H4 C10 1_555 1_555
C16 C11 1_555 1_555
Er5 N4 1_555 1_555
O10 C16 1_555 1_555
O16 C16 1_555 1_555
C11 N4 1_555 1_555
Er5 O10 1_555 1_555
H2 C4 1_555 1_555
C13 C4 1_555 1_555
C17 C13 1_555 1_555
Er5 N5 1_555 1_555
O12 C17 1_555 1_555
O13 C17 1_555 1_555
O20 Er5 1_555 1_555
C13 N5 1_555 1_555
Er5 O12 1_555 1_555
O20 H14_2 1_555 1_555

#END
