
###############################################################################
#
# This file contains modified crystal structure data generated from the
# MOF subset of the Cambridge Structural Database (CSD) v543 
# hosted by the Cambridge Crystallographic Data Centre (CCDC).
#
# This work is licensed under the Creative Commons
# Attribution-NonCommercial-ShareAlike 4.0 International License.
# To view a copy of this license, visit
# http://creativecommons.org/licenses/by-nc-sa/4.0/
# or send a letter to
# Creative Commons, PO Box 1866, Mountain View, CA 94042, USA.
#
# CIF created using the CSD Python API on 29 September 2022
# The structure has been converted into the P1 space group
# The structure has a 3D framework
# The original CSD entry VASFED is in the triclinic crystal system
# The framework has been calculated to contain at least 10.0% void space
# The void calculation uses a probe of radius 1.32A, grid spacing 0.4
# H atom positions have been added when not included in the experimental data
# Generated hydrogen atom positions removed from atoms on special positions
#
###############################################################################

data_VASFED
_chemical_formula_moiety         '(C18 H18 N6 O16 Pr2)n'
_symmetry_cell_setting           triclinic
_symmetry_space_group_name_H-M   'P 1'
_symmetry_Int_Tables_number      1
_space_group_name_Hall           'P 1'
loop_
_symmetry_equiv_pos_site_id
_symmetry_equiv_pos_as_xyz
1 x,y,z
_cell_length_a                   6.0820(5)
_cell_length_b                   10.5091(8)
_cell_length_c                   13.6280(10)
_cell_angle_alpha                72.398(7)
_cell_angle_beta                 88.980(6)
_cell_angle_gamma                89.043(6)
_cell_volume                     830.079
loop_
_atom_site_label
_atom_site_type_symbol
_atom_site_fract_x
_atom_site_fract_y
_atom_site_fract_z
_atom_site_U_iso_or_equiv
_atom_site_thermal_displace_type
O13 O 0.0019(8) 0.3208(5) 0.9792(3) 0.0493 Uani
C10 C 0.1090(9) 0.0526(5) 0.4110(4) 0.0308 Uani
H4 H 0.1895 0.0863 0.3503 0.0370 Uiso
O16 O 0.1542(6) 0.3586(4) 0.3008(3) 0.0290 Uani
C12 C 0.3824(9) 0.5173(5) 0.0787(4) 0.0305 Uani
C13 C 0.6817(8) 0.4268(5) 0.0227(4) 0.0267 Uani
N5 N 0.5660(7) 0.4431(4) 0.1016(3) 0.0275 Uani
H5 H 0.2963 0.5316 0.1315 0.0370 Uiso
C17 C 0.8904(9) 0.3422(5) 0.0494(4) 0.0300 Uani
Pr4 Pr 0.74872(3) 0.33944(2) 0.29122(2) 0.0200 Uani
O12 O 0.9367(7) 0.3018(4) 0.1432(3) 0.0372 Uani
Pr1 Pr 0.25128(3) 0.66056(2) 0.70878(2) 0.0200 Uani
N1 N 0.0782(7) 0.8870(4) 0.5755(3) 0.0269 Uani
N2 N 0.4340(7) 0.5569(4) 0.8984(3) 0.0275 Uani
N3 N 0.0896(7) 0.5722(4) 0.5582(3) 0.0254 Uani
O1 O 0.4534(6) 0.7712(4) 0.5472(3) 0.0333 Uani
O2 O 0.0633(7) 0.6982(4) 0.8568(3) 0.0372 Uani
O4 O 0.1538(7) 0.4181(4) 0.7818(3) 0.0353 Uani
O5 O 0.4379(8) 0.8465(4) 0.7471(3) 0.0421 Uani
O6 O 0.5601(5) 0.5239(4) 0.6754(3) 0.0269 Uani
C1 C 0.1867(8) 0.9400(5) 0.4861(4) 0.0260 Uani
C3 C 0.3183(8) 0.5732(5) 0.9773(4) 0.0267 Uani
C4 C 0.6176(9) 0.4827(5) 0.9213(4) 0.0305 Uani
C6 C 0.2049(8) 0.5435(5) 0.4852(4) 0.0261 Uani
C7 C 0.4000(8) 0.8682(5) 0.4730(4) 0.0269 Uani
C8 C 0.1096(9) 0.6578(5) 0.9506(4) 0.0300 Uani
H2 H 0.7037 0.4684 0.8685 0.0370 Uiso
H3 H 0.3494 0.5723 0.4732 0.0320 Uiso
O7 O 0.5028(7) 0.9113(4) 0.3898(3) 0.0427 Uani
C15 C 0.1172(7) 0.4711(5) 0.4254(3) 0.0228 Uani
C18 C 0.2469(8) 0.4323(5) 0.3438(3) 0.0217 Uani
O15 O 0.4399(5) 0.4761(4) 0.3246(3) 0.0269 Uani
C11 C 0.8133(8) 0.0600(5) 0.5139(4) 0.0260 Uani
N4 N 0.9218(7) 0.1130(4) 0.4245(3) 0.0269 Uani
C16 C 0.6000(8) 0.1318(5) 0.5270(4) 0.0269 Uani
O10 O 0.5466(6) 0.2288(4) 0.4528(3) 0.0333 Uani
O11 O 0.4972(7) 0.0887(4) 0.6102(3) 0.0427 Uani
N7 N 0.9104(7) 0.4278(4) 0.4418(3) 0.0254 Uani
O18 O 0.8462(7) 0.5819(4) 0.2182(3) 0.0353 Uani
O20 O 0.5621(8) 0.1535(4) 0.2529(3) 0.0421 Uani
O3 O 0.8458(6) 0.6414(4) 0.6992(3) 0.0290 Uani
C2 C 0.8910(9) 0.9474(5) 0.5890(4) 0.0308 Uani
C5 C 0.8828(7) 0.5289(5) 0.5746(3) 0.0228 Uani
C9 C 0.7531(8) 0.5677(5) 0.6562(3) 0.0217 Uani
H1 H 0.8105 0.9137 0.6497 0.0370 Uiso
C14 C 0.7951(8) 0.4565(5) 0.5148(4) 0.0261 Uani
H6 H 0.6506 0.4277 0.5268 0.0320 Uiso
O8 O 0.9981(8) 0.6792(5) 0.0208(3) 0.0493 Uani
loop_
_atom_site_aniso_label
_atom_site_aniso_U_11
_atom_site_aniso_U_22
_atom_site_aniso_U_33
_atom_site_aniso_U_23
_atom_site_aniso_U_13
_atom_site_aniso_U_12
O13 0.051 0.07 0.0236 -0.0108 0.0076 0.021
C10 0.029 0.036 0.022 -0.001 0.005 0.001
O16 0.0203 0.043 0.0268 -0.0155 0.0026 0.0026
C12 0.031 0.041 0.018 -0.007 0.0034 0.004
C13 0.023 0.033 0.022 -0.0054 0.0022 -0.0015
N5 0.029 0.034 0.0173 -0.0044 0.0019 -0.0003
C17 0.029 0.038 0.022 -0.008 0.0042 0.002
Pr4 0.01716 0.02685 0.01464 -0.00444 0.00154 0.00292
O12 0.033 0.056 0.0241 -0.0149 -0.0032 0.0107
Pr1 0.01716 0.02685 0.01464 -0.00444 0.00154 0.00292
N1 0.021 0.032 0.023 -0.0017 0.0021 0.0024
N2 0.029 0.034 0.0173 -0.0044 0.0019 -0.0003
N3 0.0161 0.038 0.022 -0.0091 -0.0006 0.0014
O1 0.0269 0.0381 0.0265 0.0022 0.0047 0.0056
O2 0.033 0.056 0.0241 -0.0149 -0.0032 0.0107
O4 0.041 0.0338 0.0289 -0.0062 0.0076 -0.0043
O5 0.051 0.037 0.036 -0.007 0.0007 -0.0151
O6 0.0172 0.0352 0.0271 -0.0083 0.0059 0.0022
C1 0.021 0.03 0.024 -0.0038 0.001 0.0013
C3 0.023 0.033 0.022 -0.0054 0.0022 -0.0015
C4 0.031 0.041 0.018 -0.007 0.0034 0.004
C6 0.018 0.039 0.023 -0.012 0.0013 0.0003
C7 0.023 0.03 0.026 -0.0062 0.0032 0.0001
C8 0.029 0.038 0.022 -0.008 0.0042 0.002
O7 0.042 0.043 0.033 0.0021 0.0149 0.0108
C15 0.013 0.037 0.018 -0.0077 0.0012 0.0015
C18 0.018 0.029 0.016 -0.0038 -0.0013 0.0053
O15 0.0172 0.0352 0.0271 -0.0083 0.0059 0.0022
C11 0.021 0.03 0.024 -0.0038 0.001 0.0013
N4 0.021 0.032 0.023 -0.0017 0.0021 0.0024
C16 0.023 0.03 0.026 -0.0062 0.0032 0.0001
O10 0.0269 0.0381 0.0265 0.0022 0.0047 0.0056
O11 0.042 0.043 0.033 0.0021 0.0149 0.0108
N7 0.0161 0.038 0.022 -0.0091 -0.0006 0.0014
O18 0.041 0.0338 0.0289 -0.0062 0.0076 -0.0043
O20 0.051 0.037 0.036 -0.007 0.0007 -0.0151
O3 0.0203 0.043 0.0268 -0.0155 0.0026 0.0026
C2 0.029 0.036 0.022 -0.001 0.005 0.001
C5 0.013 0.037 0.018 -0.0077 0.0012 0.0015
C9 0.018 0.029 0.016 -0.0038 -0.0013 0.0053
C14 0.018 0.039 0.023 -0.012 0.0013 0.0003
O8 0.051 0.07 0.0236 -0.0108 0.0076 0.021
loop_
_geom_bond_atom_site_label_1
_geom_bond_atom_site_label_2
_geom_bond_site_symmetry_1
_geom_bond_site_symmetry_2
H4 C10 1_555 1_555
N5 C12 1_555 1_555
H5 C12 1_555 1_555
C17 C13 1_555 1_555
Pr4 N5 1_555 1_555
O12 C17 1_555 1_555
C13 N5 1_555 1_555
Pr4 O12 1_555 1_555
Pr1 N1 1_555 1_555
N1 C1 1_555 1_555
N2 Pr1 1_555 1_555
N3 Pr1 1_555 1_555
O1 Pr1 1_555 1_555
O2 Pr1 1_555 1_555
O4 Pr1 1_555 1_555
O5 Pr1 1_555 1_555
O6 Pr1 1_555 1_555
C1 C7 1_555 1_555
C3 N2 1_555 1_555
C4 N2 1_555 1_555
C6 N3 1_555 1_555
C7 O1 1_555 1_555
C8 O2 1_555 1_555
H2 C4 1_555 1_555
H3 C6 1_555 1_555
O7 C7 1_555 1_555
C15 C6 1_555 1_555
C18 C15 1_555 1_555
O16 C18 1_555 1_555
O15 C18 1_555 1_555
Pr4 O15 1_555 1_555
C3 C8 1_555 1_555
C16 C11 1_555 1_555
Pr4 N4 1_555 1_555
O10 C16 1_555 1_555
O11 C16 1_555 1_555
N7 Pr4 1_555 1_555
O18 Pr4 1_555 1_555
O20 Pr4 1_555 1_555
C11 N4 1_555 1_555
Pr4 O10 1_555 1_555
C9 O3 1_555 1_555
H1 C2 1_555 1_555
C14 C5 1_555 1_555
O6 C9 1_555 1_555
H6 C14 1_555 1_555
N7 C14 1_555 1_555
C5 C9 1_555 1_555

#END
