
###############################################################################
#
# This file contains modified crystal structure data generated from the
# MOF subset of the Cambridge Structural Database (CSD) v543 
# hosted by the Cambridge Crystallographic Data Centre (CCDC).
#
# This work is licensed under the Creative Commons
# Attribution-NonCommercial-ShareAlike 4.0 International License.
# To view a copy of this license, visit
# http://creativecommons.org/licenses/by-nc-sa/4.0/
# or send a letter to
# Creative Commons, PO Box 1866, Mountain View, CA 94042, USA.
#
# CIF created using the CSD Python API on 29 September 2022
# The structure has been converted into the P1 space group
# The structure has a 3D framework
# The original CSD entry VASFON is in the triclinic crystal system
# The framework has been calculated to contain at least 10.0% void space
# The void calculation uses a probe of radius 1.32A, grid spacing 0.4
# H atom positions have been added when not included in the experimental data
# Generated hydrogen atom positions removed from atoms on special positions
#
###############################################################################

data_VASFON
_chemical_formula_moiety         '(C18 H18 N6 Nd2 O16)n'
_symmetry_cell_setting           triclinic
_symmetry_space_group_name_H-M   'P 1'
_symmetry_Int_Tables_number      1
_space_group_name_Hall           'P 1'
loop_
_symmetry_equiv_pos_site_id
_symmetry_equiv_pos_as_xyz
1 x,y,z
_cell_length_a                   6.0736(2)
_cell_length_b                   10.4912(3)
_cell_length_c                   13.5790(4)
_cell_angle_alpha                72.133(3)
_cell_angle_beta                 89.023(3)
_cell_angle_gamma                89.009(3)
_cell_volume                     823.33
loop_
_atom_site_label
_atom_site_type_symbol
_atom_site_fract_x
_atom_site_fract_y
_atom_site_fract_z
_atom_site_U_iso_or_equiv
_atom_site_thermal_displace_type
O13 O 0.0012(7) 0.3195(4) 0.9799(3) 0.0465 Uani
C10 C 0.1084(8) 0.0528(5) 0.4107(4) 0.0291 Uani
H4 H 0.1881 0.0867 0.3494 0.0350 Uiso
O16 O 0.1518(5) 0.3587(3) 0.3007(2) 0.0250 Uani
C12 C 0.3830(8) 0.5182(5) 0.0787(3) 0.0273 Uani
C13 C 0.6833(7) 0.4258(4) 0.0230(3) 0.0241 Uani
N5 N 0.5663(6) 0.4432(4) 0.1021(3) 0.0257 Uani
H5 H 0.2981 0.5332 0.1318 0.0330 Uiso
C17 C 0.8902(8) 0.3420(5) 0.0502(3) 0.0274 Uani
Nd4 Nd 0.74906(3) 0.33981(2) 0.29162(2) 0.0170 Uani
O12 O 0.9364(6) 0.3005(4) 0.1447(2) 0.0347 Uani
Nd1 Nd 0.25094(3) 0.66019(2) 0.70838(2) 0.0170 Uani
N1 N 0.0784(6) 0.8864(4) 0.5754(3) 0.0260 Uani
N2 N 0.4337(6) 0.5568(4) 0.8979(3) 0.0257 Uani
N3 N 0.0902(6) 0.5726(4) 0.5591(3) 0.0219 Uani
O1 O 0.4541(5) 0.7703(3) 0.5470(2) 0.0306 Uani
O2 O 0.0636(6) 0.6995(4) 0.8553(2) 0.0347 Uani
O4 O 0.1557(6) 0.4185(3) 0.7820(3) 0.0330 Uani
O5 O 0.4394(7) 0.8440(4) 0.7466(3) 0.0399 Uani
O6 O 0.5598(5) 0.5242(3) 0.6758(2) 0.0245 Uani
C1 C 0.1871(7) 0.9393(4) 0.4862(3) 0.0256 Uani
C3 C 0.3167(7) 0.5742(4) 0.9770(3) 0.0241 Uani
C4 C 0.6170(8) 0.4818(5) 0.9213(3) 0.0273 Uani
C6 C 0.2065(7) 0.5439(5) 0.4844(3) 0.0240 Uani
C7 C 0.3997(7) 0.8690(4) 0.4723(3) 0.0250 Uani
C8 C 0.1098(8) 0.6580(5) 0.9498(3) 0.0274 Uani
H2 H 0.7019 0.4668 0.8682 0.0330 Uiso
H3 H 0.3508 0.5731 0.4714 0.0290 Uiso
O7 O 0.5039(6) 0.9123(4) 0.3897(3) 0.0406 Uani
C15 C 0.1159(7) 0.4710(4) 0.4256(3) 0.0204 Uani
C18 C 0.2460(6) 0.4319(4) 0.3429(3) 0.0191 Uani
O15 O 0.4402(5) 0.4758(3) 0.3242(2) 0.0245 Uani
C11 C 0.8129(7) 0.0607(4) 0.5138(3) 0.0256 Uani
N4 N 0.9216(6) 0.1136(4) 0.4246(3) 0.0260 Uani
C16 C 0.6003(7) 0.1310(4) 0.5277(3) 0.0250 Uani
O10 O 0.5459(5) 0.2297(3) 0.4530(2) 0.0306 Uani
O11 O 0.4961(6) 0.0877(4) 0.6103(3) 0.0406 Uani
N7 N 0.9098(6) 0.4274(4) 0.4409(3) 0.0219 Uani
O17 O 0.8443(6) 0.5815(3) 0.2180(3) 0.0330 Uani
O18 O 0.5606(7) 0.1560(4) 0.2534(3) 0.0399 Uani
O3 O 0.8482(5) 0.6413(3) 0.6993(2) 0.0250 Uani
C2 C 0.8916(8) 0.9472(5) 0.5893(4) 0.0291 Uani
C5 C 0.8841(7) 0.5290(4) 0.5744(3) 0.0204 Uani
C9 C 0.7540(6) 0.5681(4) 0.6571(3) 0.0191 Uani
H1 H 0.8119 0.9133 0.6506 0.0350 Uiso
C14 C 0.7935(7) 0.4561(5) 0.5156(3) 0.0240 Uani
H6 H 0.6492 0.4269 0.5286 0.0290 Uiso
O8 O 0.9988(7) 0.6805(4) 0.0201(3) 0.0465 Uani
loop_
_atom_site_aniso_label
_atom_site_aniso_U_11
_atom_site_aniso_U_22
_atom_site_aniso_U_33
_atom_site_aniso_U_23
_atom_site_aniso_U_13
_atom_site_aniso_U_12
O13 0.049 0.064 0.0223 -0.0084 0.0085 0.02
C10 0.027 0.031 0.023 0.0003 0.0063 0.0032
O16 0.018 0.0355 0.0246 -0.0142 0.0033 0.0011
C12 0.03 0.035 0.0146 -0.0046 0.0033 0.0035
C13 0.026 0.027 0.0184 -0.0055 0.0024 -0.0045
N5 0.03 0.0296 0.0154 -0.0038 0.0025 -0.0015
C17 0.028 0.033 0.02 -0.0066 0.0051 -0.0013
Nd4 0.01521 0.02221 0.01184 -0.00287 0.00148 0.00209
O12 0.0314 0.053 0.0196 -0.0117 0 0.011
Nd1 0.01521 0.02221 0.01184 -0.00287 0.00148 0.00209
N1 0.026 0.0268 0.0221 -0.0029 0.0031 0
N2 0.03 0.0296 0.0154 -0.0038 0.0025 -0.0015
N3 0.0145 0.0336 0.0181 -0.009 0.0014 0.0022
O1 0.026 0.0338 0.0241 0.0022 0.0035 0.0032
O2 0.0314 0.053 0.0196 -0.0117 0 0.011
O4 0.041 0.0292 0.0261 -0.0046 0.0097 -0.0057
O5 0.053 0.0331 0.0305 -0.0046 -0.0008 -0.0103
O6 0.0195 0.0298 0.0239 -0.0081 0.0061 0.0015
C1 0.025 0.028 0.022 -0.0053 0.0022 0.0005
C3 0.026 0.027 0.0184 -0.0055 0.0024 -0.0045
C4 0.03 0.035 0.0146 -0.0046 0.0033 0.0035
C6 0.017 0.036 0.0195 -0.0093 0.0035 0.0006
C7 0.023 0.026 0.024 -0.0047 0.0016 0.0001
C8 0.028 0.033 0.02 -0.0066 0.0051 -0.0013
O7 0.04 0.0392 0.0315 0.0041 0.0163 0.0089
C15 0.017 0.029 0.0143 -0.0056 0.0011 0.0037
C18 0.0139 0.0256 0.0149 -0.0024 0.0027 0.0046
O15 0.0195 0.0298 0.0239 -0.0081 0.0061 0.0015
C11 0.025 0.028 0.022 -0.0053 0.0022 0.0005
N4 0.026 0.0268 0.0221 -0.0029 0.0031 0
C16 0.023 0.026 0.024 -0.0047 0.0016 0.0001
O10 0.026 0.0338 0.0241 0.0022 0.0035 0.0032
O11 0.04 0.0392 0.0315 0.0041 0.0163 0.0089
N7 0.0145 0.0336 0.0181 -0.009 0.0014 0.0022
O17 0.041 0.0292 0.0261 -0.0046 0.0097 -0.0057
O18 0.053 0.0331 0.0305 -0.0046 -0.0008 -0.0103
O3 0.018 0.0355 0.0246 -0.0142 0.0033 0.0011
C2 0.027 0.031 0.023 0.0003 0.0063 0.0032
C5 0.017 0.029 0.0143 -0.0056 0.0011 0.0037
C9 0.0139 0.0256 0.0149 -0.0024 0.0027 0.0046
C14 0.017 0.036 0.0195 -0.0093 0.0035 0.0006
O8 0.049 0.064 0.0223 -0.0084 0.0085 0.02
loop_
_geom_bond_atom_site_label_1
_geom_bond_atom_site_label_2
_geom_bond_site_symmetry_1
_geom_bond_site_symmetry_2
H4 C10 1_555 1_555
N5 C12 1_555 1_555
H5 C12 1_555 1_555
C17 C13 1_555 1_555
Nd4 N5 1_555 1_555
O12 C17 1_555 1_555
C13 N5 1_555 1_555
Nd4 O12 1_555 1_555
Nd1 N1 1_555 1_555
N1 C1 1_555 1_555
N2 Nd1 1_555 1_555
N3 Nd1 1_555 1_555
O1 Nd1 1_555 1_555
O2 Nd1 1_555 1_555
O4 Nd1 1_555 1_555
O5 Nd1 1_555 1_555
O6 Nd1 1_555 1_555
C1 C7 1_555 1_555
C3 N2 1_555 1_555
C4 N2 1_555 1_555
C6 N3 1_555 1_555
C7 O1 1_555 1_555
C8 O2 1_555 1_555
H2 C4 1_555 1_555
H3 C6 1_555 1_555
O7 C7 1_555 1_555
C15 C6 1_555 1_555
C18 C15 1_555 1_555
O16 C18 1_555 1_555
O15 C18 1_555 1_555
Nd4 O15 1_555 1_555
C3 C8 1_555 1_555
C16 C11 1_555 1_555
Nd4 N4 1_555 1_555
O10 C16 1_555 1_555
O11 C16 1_555 1_555
N7 Nd4 1_555 1_555
O17 Nd4 1_555 1_555
O18 Nd4 1_555 1_555
C11 N4 1_555 1_555
Nd4 O10 1_555 1_555
C9 O3 1_555 1_555
H1 C2 1_555 1_555
C14 C5 1_555 1_555
O6 C9 1_555 1_555
H6 C14 1_555 1_555
N7 C14 1_555 1_555
C5 C9 1_555 1_555

#END
