
###############################################################################
#
# This file contains modified crystal structure data generated from the
# MOF subset of the Cambridge Structural Database (CSD) v543 
# hosted by the Cambridge Crystallographic Data Centre (CCDC).
#
# This work is licensed under the Creative Commons
# Attribution-NonCommercial-ShareAlike 4.0 International License.
# To view a copy of this license, visit
# http://creativecommons.org/licenses/by-nc-sa/4.0/
# or send a letter to
# Creative Commons, PO Box 1866, Mountain View, CA 94042, USA.
#
# CIF created using the CSD Python API on 29 September 2022
# The structure has been converted into the P1 space group
# The structure has a 3D framework
# The original CSD entry VASFUT is in the triclinic crystal system
# The framework has been calculated to contain at least 10.0% void space
# The void calculation uses a probe of radius 1.32A, grid spacing 0.4
# H atom positions have been added when not included in the experimental data
# Generated hydrogen atom positions removed from atoms on special positions
#
###############################################################################

data_VASFUT
_chemical_formula_moiety         '(C18 H18 Eu2 N6 O16)n'
_symmetry_cell_setting           triclinic
_symmetry_space_group_name_H-M   'P 1'
_symmetry_Int_Tables_number      1
_space_group_name_Hall           'P 1'
loop_
_symmetry_equiv_pos_site_id
_symmetry_equiv_pos_as_xyz
1 x,y,z
_cell_length_a                   6.0520(2)
_cell_length_b                   10.4994(3)
_cell_length_c                   13.4547(4)
_cell_angle_alpha                71.630(3)
_cell_angle_beta                 89.254(3)
_cell_angle_gamma                89.101(3)
_cell_volume                     811.247
loop_
_atom_site_label
_atom_site_type_symbol
_atom_site_fract_x
_atom_site_fract_y
_atom_site_fract_z
_atom_site_U_iso_or_equiv
_atom_site_thermal_displace_type
O13 O 0.0011(6) 0.3180(4) 0.9827(2) 0.0483 Uani
C10 C 0.1064(7) 0.0539(4) 0.4097(3) 0.0335 Uani
H4 H 0.1854 0.0887 0.3475 0.0400 Uiso
O18 O 0.1483(4) 0.3583(3) 0.3005(2) 0.0283 Uani
C12 C 0.3844(7) 0.5188(4) 0.0791(3) 0.0297 Uani
C13 C 0.6826(7) 0.4256(4) 0.0241(3) 0.0265 Uani
N5 N 0.5667(6) 0.4440(3) 0.1034(3) 0.0279 Uani
H5 H 0.2995 0.5344 0.1323 0.0360 Uiso
C17 C 0.8900(7) 0.3402(4) 0.0528(3) 0.0296 Uani
Eu4 Eu 0.74957(3) 0.34051(2) 0.29293(2) 0.0193 Uani
O12 O 0.9347(5) 0.2981(3) 0.1486(2) 0.0360 Uani
Eu1 Eu 0.25043(3) 0.65949(2) 0.70707(2) 0.0193 Uani
N1 N 0.0802(5) 0.8850(4) 0.5760(3) 0.0292 Uani
N2 N 0.4333(6) 0.5560(3) 0.8966(3) 0.0279 Uani
N3 N 0.0914(5) 0.5730(3) 0.5590(2) 0.0253 Uani
O1 O 0.4508(5) 0.7687(3) 0.5464(2) 0.0329 Uani
O2 O 0.0653(5) 0.7019(3) 0.8514(2) 0.0360 Uani
O4 O 0.1557(5) 0.4213(3) 0.7820(2) 0.0343 Uani
O5 O 0.4445(6) 0.8369(3) 0.7440(2) 0.0406 Uani
O6 O 0.5586(4) 0.5276(3) 0.6763(2) 0.0261 Uani
C1 C 0.1865(7) 0.9393(4) 0.4852(3) 0.0289 Uani
C3 C 0.3174(7) 0.5744(4) 0.9759(3) 0.0265 Uani
C4 C 0.6156(7) 0.4812(4) 0.9209(3) 0.0297 Uani
C6 C 0.2082(6) 0.5437(4) 0.4841(3) 0.0264 Uani
C7 C 0.3986(7) 0.8691(4) 0.4707(3) 0.0298 Uani
C8 C 0.1100(7) 0.6598(4) 0.9472(3) 0.0296 Uani
H2 H 0.7005 0.4656 0.8677 0.0360 Uiso
H3 H 0.3533 0.5727 0.4710 0.0320 Uiso
O7 O 0.5051(6) 0.9143(4) 0.3882(3) 0.0448 Uani
C15 C 0.1165(6) 0.4707(4) 0.4254(3) 0.0232 Uani
C18 C 0.2472(6) 0.4306(4) 0.3429(3) 0.0226 Uani
O15 O 0.4414(4) 0.4724(3) 0.3237(2) 0.0261 Uani
C11 C 0.8135(7) 0.0607(4) 0.5148(3) 0.0289 Uani
N4 N 0.9198(5) 0.1150(4) 0.4240(3) 0.0292 Uani
C16 C 0.6014(7) 0.1309(4) 0.5293(3) 0.0298 Uani
O10 O 0.5492(5) 0.2313(3) 0.4536(2) 0.0329 Uani
O11 O 0.4949(6) 0.0857(4) 0.6118(3) 0.0448 Uani
O16 O 0.8443(5) 0.5787(3) 0.2180(2) 0.0343 Uani
O17 O 0.5555(6) 0.1631(3) 0.2560(2) 0.0406 Uani
N7 N 0.9086(5) 0.4270(3) 0.4410(2) 0.0253 Uani
O3 O 0.8517(4) 0.6417(3) 0.6995(2) 0.0283 Uani
C2 C 0.8936(7) 0.9461(4) 0.5903(3) 0.0335 Uani
C5 C 0.8835(6) 0.5293(4) 0.5746(3) 0.0232 Uani
C9 C 0.7528(6) 0.5694(4) 0.6571(3) 0.0226 Uani
H1 H 0.8146 0.9113 0.6525 0.0400 Uiso
C14 C 0.7918(6) 0.4563(4) 0.5159(3) 0.0264 Uani
H6 H 0.6467 0.4273 0.5290 0.0320 Uiso
O8 O 0.9989(6) 0.6820(4) 0.0173(2) 0.0483 Uani
loop_
_atom_site_aniso_label
_atom_site_aniso_U_11
_atom_site_aniso_U_22
_atom_site_aniso_U_33
_atom_site_aniso_U_23
_atom_site_aniso_U_13
_atom_site_aniso_U_12
O13 0.05 0.067 0.0243 -0.0107 0.0069 0.0201
C10 0.031 0.037 0.027 -0.0024 0.0034 0.0017
O18 0.0231 0.0384 0.0278 -0.0169 0.0036 0.0017
C12 0.029 0.039 0.0193 -0.0067 0.0031 0.0027
C13 0.0265 0.0315 0.0206 -0.007 0.0017 -0.0041
N5 0.0295 0.0319 0.0206 -0.0057 0.002 -0.0016
C17 0.029 0.037 0.0223 -0.0089 0.0042 -0.0008
Eu4 0.01603 0.026 0.01457 -0.00474 0.00116 0.00189
O12 0.031 0.0549 0.0231 -0.0142 0 0.011
Eu1 0.01603 0.026 0.01457 -0.00474 0.00116 0.00189
N1 0.0242 0.0339 0.026 -0.0047 0.0031 -0.0005
N2 0.0295 0.0319 0.0206 -0.0057 0.002 -0.0016
N3 0.0187 0.0368 0.0204 -0.0093 0.0031 0.0009
O1 0.0275 0.0375 0.0275 -0.0018 0.0035 0.0045
O2 0.031 0.0549 0.0231 -0.0142 0 0.011
O4 0.037 0.0329 0.0293 -0.0046 0.0054 -0.0021
O5 0.0508 0.0376 0.0312 -0.007 -0.0008 -0.012
O6 0.0177 0.0342 0.0259 -0.009 0.0053 0.0017
C1 0.0251 0.035 0.026 -0.0087 0.0005 -0.0006
C3 0.0265 0.0315 0.0206 -0.007 0.0017 -0.0041
C4 0.029 0.039 0.0193 -0.0067 0.0031 0.0027
C6 0.0182 0.037 0.0242 -0.0098 0.0023 -0.001
C7 0.029 0.03 0.028 -0.0056 0.0008 -0.001
C8 0.029 0.037 0.0223 -0.0089 0.0042 -0.0008
O7 0.0435 0.0453 0.0343 0.0024 0.0163 0.0106
C15 0.0174 0.0335 0.017 -0.0057 0.0019 0.0048
C18 0.0188 0.0289 0.0174 -0.0037 -0.0002 0.0048
O15 0.0177 0.0342 0.0259 -0.009 0.0053 0.0017
C11 0.0251 0.035 0.026 -0.0087 0.0005 -0.0006
N4 0.0242 0.0339 0.026 -0.0047 0.0031 -0.0005
C16 0.029 0.03 0.028 -0.0056 0.0008 -0.001
O10 0.0275 0.0375 0.0275 -0.0018 0.0035 0.0045
O11 0.0435 0.0453 0.0343 0.0024 0.0163 0.0106
O16 0.037 0.0329 0.0293 -0.0046 0.0054 -0.0021
O17 0.0508 0.0376 0.0312 -0.007 -0.0008 -0.012
N7 0.0187 0.0368 0.0204 -0.0093 0.0031 0.0009
O3 0.0231 0.0384 0.0278 -0.0169 0.0036 0.0017
C2 0.031 0.037 0.027 -0.0024 0.0034 0.0017
C5 0.0174 0.0335 0.017 -0.0057 0.0019 0.0048
C9 0.0188 0.0289 0.0174 -0.0037 -0.0002 0.0048
C14 0.0182 0.037 0.0242 -0.0098 0.0023 -0.001
O8 0.05 0.067 0.0243 -0.0107 0.0069 0.0201
loop_
_geom_bond_atom_site_label_1
_geom_bond_atom_site_label_2
_geom_bond_site_symmetry_1
_geom_bond_site_symmetry_2
H4 C10 1_555 1_555
N5 C12 1_555 1_555
H5 C12 1_555 1_555
C17 C13 1_555 1_555
Eu4 N5 1_555 1_555
O12 C17 1_555 1_555
C13 N5 1_555 1_555
Eu4 O12 1_555 1_555
Eu1 N1 1_555 1_555
N1 C1 1_555 1_555
N2 Eu1 1_555 1_555
N3 Eu1 1_555 1_555
O1 Eu1 1_555 1_555
O2 Eu1 1_555 1_555
O4 Eu1 1_555 1_555
O5 Eu1 1_555 1_555
O6 Eu1 1_555 1_555
C1 C7 1_555 1_555
C3 N2 1_555 1_555
C4 N2 1_555 1_555
C6 N3 1_555 1_555
C7 O1 1_555 1_555
C8 O2 1_555 1_555
H2 C4 1_555 1_555
H3 C6 1_555 1_555
O7 C7 1_555 1_555
C15 C6 1_555 1_555
C18 C15 1_555 1_555
O18 C18 1_555 1_555
O15 C18 1_555 1_555
Eu4 O15 1_555 1_555
C3 C8 1_555 1_555
C16 C11 1_555 1_555
Eu4 N4 1_555 1_555
O10 C16 1_555 1_555
O11 C16 1_555 1_555
O16 Eu4 1_555 1_555
O17 Eu4 1_555 1_555
N7 Eu4 1_555 1_555
C11 N4 1_555 1_555
Eu4 O10 1_555 1_555
C9 O3 1_555 1_555
H1 C2 1_555 1_555
C14 C5 1_555 1_555
O6 C9 1_555 1_555
N7 C14 1_555 1_555
H6 C14 1_555 1_555
C5 C9 1_555 1_555

#END
