
###############################################################################
#
# This file contains modified crystal structure data generated from the
# MOF subset of the Cambridge Structural Database (CSD) v543 
# hosted by the Cambridge Crystallographic Data Centre (CCDC).
#
# This work is licensed under the Creative Commons
# Attribution-NonCommercial-ShareAlike 4.0 International License.
# To view a copy of this license, visit
# http://creativecommons.org/licenses/by-nc-sa/4.0/
# or send a letter to
# Creative Commons, PO Box 1866, Mountain View, CA 94042, USA.
#
# CIF created using the CSD Python API on 29 September 2022
# The structure has been converted into the P1 space group
# The structure has a 3D framework
# The original CSD entry VASJAE is in the monoclinic crystal system
# The framework has been calculated to contain at least 10.0% void space
# The void calculation uses a probe of radius 1.32A, grid spacing 0.4
#
###############################################################################

data_VASJAE
_chemical_formula_moiety         '(C124 H80 Cu9 N12 O24)n'
_symmetry_cell_setting           triclinic
_symmetry_space_group_name_H-M   'P 1'
_symmetry_Int_Tables_number      1
_space_group_name_Hall           'P 1'
loop_
_symmetry_equiv_pos_site_id
_symmetry_equiv_pos_as_xyz
1 x,y,z
_cell_length_a                   8.1275(9)
_cell_length_b                   18.887(2)
_cell_length_c                   21.237(3)
_cell_angle_alpha                90
_cell_angle_beta                 99.453(4)
_cell_angle_gamma                90
_cell_volume                     3215.7
loop_
_atom_site_label
_atom_site_type_symbol
_atom_site_fract_x
_atom_site_fract_y
_atom_site_fract_z
Cu7 Cu 0.37579(10) 0.04548(4) 0.48780(4)
Cu1 Cu 0.62421(10) 0.54548(4) 0.01220(4)
H2 H 0.0527(12) 0.6451(6) 0.3594(5)
C8 C 0.0971(9) 0.7672(4) 0.2878(4)
C9 C 0.2548(9) 0.7543(4) 0.3228(4)
H5 H 0.3066(9) 0.7095(4) 0.3203(4)
C10 C 0.3360(10) 0.8071(4) 0.3614(4)
H6 H 0.4419(10) 0.7978(4) 0.3864(4)
C11 C 0.2639(9) 0.8732(4) 0.3639(4)
C12 C 0.1095(10) 0.8861(4) 0.3287(4)
H7 H 0.0591(10) 0.9312(4) 0.3309(4)
C13 C 0.0902(9) 0.6756(4) 0.2067(4)
C14 C 0.3487(9) 0.9265(3) 0.4108(3)
C15 C 0.0245(10) 0.8326(4) 0.2891(5)
C16 C 0.2530(9) 0.6036(3) 0.1195(3)
C17 C 0.3079(9) 0.6702(3) 0.1436(3)
H9 H 0.4032(9) 0.6911(3) 0.1305(3)
C18 C 0.2268(9) 0.7056(4) 0.1854(4)
H10 H 0.2644(9) 0.7512(4) 0.2001(4)
C19 C 0.1110(9) 0.5764(4) 0.1386(4)
H11 H 0.0681(9) 0.5326(4) 0.1211(4)
C20 C 0.0297(10) 0.6101(4) 0.1817(4)
C21 C 0.3416(8) 0.5653(3) 0.0752(3)
N1 N 0.0101(7) 0.7117(3) 0.2503(3)
O3 O 0.4876(7) 0.9083(3) 0.4385(3)
O4 O 0.2745(6) 0.9836(3) 0.4181(3)
O5 O 0.4843(6) 0.5893(2) 0.0676(2)
O6 O 0.2727(6) 0.5122(2) 0.0467(3)
H35 H 0.0270(9) 0.3842(3) 0.4670(4)
C60 C 0.0783(9) 0.1295(4) 0.5160(4)
H38 H 0.0656(9) 0.0885(4) 0.5406(4)
C61 C 0.2174(9) 0.1894(3) 0.4474(4)
H39 H 0.3043(9) 0.1911(3) 0.4225(4)
C62 C 0.1120(8) 0.2472(3) 0.4471(4)
H40 H 0.1274(8) 0.2879(3) 0.4225(4)
N6 N 0.2002(6) 0.1315(3) 0.4815(3)
Cu11 Cu 0.62421(10) 0.95452(4) 0.51220(4)
N8 N 0.7998(6) 0.6315(3) 0.0185(3)
O15 O 0.7255(6) 0.4836(3) 0.0819(3)
Cu8 Cu 0.37579(10) 0.45452(4) 0.98780(4)
O14 O 0.4876(7) 0.5917(3) 0.9385(3)
O18 O 0.7273(6) 0.4878(2) 0.9533(3)
O13 O 0.5124(7) 0.4083(3) 0.0615(3)
H15 H 0.9730(9) 0.6158(3) 0.5330(4)
C29 C 0.9217(9) 0.8705(4) 0.4840(4)
H18 H 0.9344(9) 0.9115(4) 0.4594(4)
C30 C 0.7826(9) 0.8106(3) 0.5526(4)
H19 H 0.6957(9) 0.8089(3) 0.5775(4)
C31 C 0.8880(8) 0.7528(3) 0.5529(4)
H20 H 0.8726(8) 0.7121(3) 0.5775(4)
N3 N 0.7998(6) 0.8685(3) 0.5185(3)
H22 H 0.9473(12) 0.3549(6) 0.6406(5)
C39 C 0.9029(9) 0.2328(4) 0.7122(4)
C40 C 0.7452(9) 0.2457(4) 0.6772(4)
H25 H 0.6934(9) 0.2905(4) 0.6797(4)
C41 C 0.6640(10) 0.1929(4) 0.6386(4)
H26 H 0.5581(10) 0.2022(4) 0.6136(4)
C42 C 0.7361(9) 0.1268(4) 0.6361(4)
C43 C 0.8905(10) 0.1139(4) 0.6713(4)
H27 H 0.9409(10) 0.0688(4) 0.6691(4)
C44 C 0.9098(9) 0.3244(4) 0.7933(4)
C45 C 0.6513(9) 0.0735(3) 0.5892(3)
C46 C 0.9755(10) 0.1674(4) 0.7109(5)
C47 C 0.7470(9) 0.3964(3) 0.8805(3)
C48 C 0.6921(9) 0.3298(3) 0.8564(3)
H29 H 0.5968(9) 0.3089(3) 0.8695(3)
C49 C 0.7732(9) 0.2944(4) 0.8146(4)
H30 H 0.7356(9) 0.2488(4) 0.7999(4)
C50 C 0.8890(9) 0.4236(4) 0.8614(4)
H31 H 0.9319(9) 0.4674(4) 0.8789(4)
C51 C 0.9703(10) 0.3899(4) 0.8183(4)
C52 C 0.6584(8) 0.4347(3) 0.9248(3)
N4 N 0.9899(7) 0.2883(3) 0.7497(3)
O9 O 0.5124(7) 0.0917(3) 0.5615(3)
O10 O 0.7255(6) 0.0164(3) 0.5819(3)
O11 O 0.5157(6) 0.4107(2) 0.9324(2)
N7 N 0.2002(6) 0.3685(3) 0.9815(3)
O16 O 0.2745(6) 0.5164(3) 0.9181(3)
H15_2 H 0.0270(9) 0.1158(3) 0.9670(4)
C30_2 C 0.2174(9) 0.3106(3) 0.9474(4)
H19_2 H 0.3043(9) 0.3089(3) 0.9225(4)
C31_2 C 0.1120(8) 0.2528(3) 0.9471(4)
H20_2 H 0.1274(8) 0.2121(3) 0.9225(4)
O17 O 0.7273(6) 0.0122(2) 0.4533(3)
H22_2 H 0.0527(12) 0.8549(6) 0.8594(5)
C39_2 C 0.0971(9) 0.7328(4) 0.7878(4)
C40_2 C 0.2548(9) 0.7457(4) 0.8228(4)
H25_2 H 0.3066(9) 0.7905(4) 0.8203(4)
C41_2 C 0.3360(10) 0.6929(4) 0.8614(4)
H26_2 H 0.4419(10) 0.7022(4) 0.8864(4)
C42_2 C 0.2639(9) 0.6268(4) 0.8639(4)
C43_2 C 0.1095(10) 0.6139(4) 0.8287(4)
H27_2 H 0.0591(10) 0.5688(4) 0.8309(4)
C44_2 C 0.0902(9) 0.8244(4) 0.7067(4)
C45_2 C 0.3487(9) 0.5735(3) 0.9108(3)
C46_2 C 0.0245(10) 0.6674(4) 0.7891(5)
C47_2 C 0.2530(9) 0.8964(3) 0.6195(3)
C48_2 C 0.3079(9) 0.8298(3) 0.6436(3)
H29_2 H 0.4032(9) 0.8089(3) 0.6305(3)
C49_2 C 0.2268(9) 0.7944(4) 0.6854(4)
H30_2 H 0.2644(9) 0.7488(4) 0.7001(4)
C50_2 C 0.1110(9) 0.9236(4) 0.6386(4)
H31_2 H 0.0681(9) 0.9674(4) 0.6211(4)
C51_2 C 0.0297(10) 0.8899(4) 0.6817(4)
C52_2 C 0.3416(8) 0.9347(3) 0.5752(3)
N4_2 N 0.0101(7) 0.7883(3) 0.7503(3)
O11_2 O 0.4843(6) 0.9107(2) 0.5676(2)
O12 O 0.2727(6) 0.9878(2) 0.5467(3)
H2_2 H 0.9473(12) 0.1451(6) 0.1406(5)
C8_2 C 0.9029(9) 0.2672(4) 0.2122(4)
C9_2 C 0.7452(9) 0.2543(4) 0.1772(4)
H5_2 H 0.6934(9) 0.2095(4) 0.1797(4)
C10_2 C 0.6640(10) 0.3071(4) 0.1386(4)
H6_2 H 0.5581(10) 0.2978(4) 0.1136(4)
C11_2 C 0.7361(9) 0.3732(4) 0.1361(4)
C12_2 C 0.8905(10) 0.3861(4) 0.1713(4)
H7_2 H 0.9409(10) 0.4312(4) 0.1691(4)
C13_2 C 0.9098(9) 0.1756(4) 0.2933(4)
C14_2 C 0.6513(9) 0.4265(3) 0.0892(3)
C15_2 C 0.9755(10) 0.3326(4) 0.2109(5)
C16_2 C 0.7470(9) 0.1036(3) 0.3805(3)
C17_2 C 0.6921(9) 0.1702(3) 0.3564(3)
H9_2 H 0.5968(9) 0.1911(3) 0.3695(3)
C18_2 C 0.7732(9) 0.2056(4) 0.3146(4)
H10_2 H 0.7356(9) 0.2512(4) 0.2999(4)
C19_2 C 0.8890(9) 0.0764(4) 0.3614(4)
H11_2 H 0.9319(9) 0.0326(4) 0.3789(4)
C20_2 C 0.9703(10) 0.1101(4) 0.3183(4)
C21_2 C 0.6584(8) 0.0653(3) 0.4248(3)
N1_2 N 0.9899(7) 0.2117(3) 0.2497(3)
O5_2 O 0.5157(6) 0.0893(2) 0.4324(2)
H35_2 H 0.9730(9) 0.8842(3) 0.0330(4)
C61_2 C 0.7826(9) 0.6894(3) 0.0526(4)
H39_2 H 0.6957(9) 0.6911(3) 0.0775(4)
C62_2 C 0.8880(8) 0.7472(3) 0.0529(4)
H40_2 H 0.8726(8) 0.7879(3) 0.0775(4)
C1 C 0.5370(10) 0.5784(4) 0.3844(4)
Cu2 Cu 0.500 0.500 0.500
C2 C 0.6600(10) 0.6121(4) 0.3477(4)
C3 C 0.8264(12) 0.6128(6) 0.3721(5)
H1 H 0.8644(12) 0.5904(6) 0.4119(5)
C4 C 0.9383(12) 0.6448(6) 0.3406(5)
C5 C 0.8919(9) 0.6767(4) 0.2829(4)
C6 C 0.7249(11) 0.6732(5) 0.2559(5)
H3 H 0.6881(11) 0.6932(5) 0.2150(5)
C7 C 0.6124(11) 0.6408(5) 0.2882(4)
H4 H 0.4986(11) 0.6382(5) 0.2688(4)
H8 H 0.9190(10) 0.8420(4) 0.2638(5)
H12 H 0.9338(10) 0.5894(4) 0.1944(4)
C22 C 0.3982(9) 0.6493(4) 0.5048(4)
H13 H 0.5084(9) 0.6582(4) 0.4972(4)
C23 C 0.2955(8) 0.7061(3) 0.5084(3)
H14 H 0.3359(8) 0.7529(3) 0.5048(3)
C24 C 0.1332(8) 0.6951(3) 0.5173(3)
C25 C 0.0826(9) 0.6256(3) 0.5252(4)
C26 C 0.1931(9) 0.5716(3) 0.5217(4)
H16 H 0.1570(9) 0.5244(3) 0.5267(4)
C27 C 0.0147(8) 0.7548(3) 0.5173(3)
C28 C 0.0313(9) 0.8143(4) 0.4827(4)
H17 H 0.1179(9) 0.8173(4) 0.4577(4)
N2 N 0.3523(8) 0.5823(3) 0.5112(3)
O1 O 0.6019(7) 0.5500(3) 0.4369(3)
O2 O 0.3858(8) 0.5821(3) 0.3627(3)
C32 C 0.4630(10) 0.4216(4) 0.6156(4)
C33 C 0.3400(10) 0.3879(4) 0.6523(4)
C34 C 0.1736(12) 0.3872(6) 0.6279(5)
H21 H 0.1356(12) 0.4096(6) 0.5881(5)
C35 C 0.0617(12) 0.3552(6) 0.6594(5)
C36 C 0.1081(9) 0.3233(4) 0.7171(4)
C37 C 0.2751(11) 0.3268(5) 0.7441(5)
H23 H 0.3119(11) 0.3068(5) 0.7850(5)
C38 C 0.3876(11) 0.3592(5) 0.7118(4)
H24 H 0.5014(11) 0.3618(5) 0.7312(4)
H28 H 0.0810(10) 0.1580(4) 0.7362(5)
H32 H 0.0662(10) 0.4106(4) 0.8056(4)
C53 C 0.6018(9) 0.3507(4) 0.4952(4)
H33 H 0.4916(9) 0.3418(4) 0.5028(4)
C54 C 0.7045(8) 0.2939(3) 0.4916(3)
H34 H 0.6641(8) 0.2471(3) 0.4952(3)
C55 C 0.8668(8) 0.3049(3) 0.4827(3)
C56 C 0.9174(9) 0.3744(3) 0.4748(4)
C57 C 0.8069(9) 0.4284(3) 0.4783(4)
H36 H 0.8430(9) 0.4756(3) 0.4733(4)
C58 C 0.9853(8) 0.2452(3) 0.4827(3)
C59 C 0.9687(9) 0.1857(4) 0.5173(4)
H37 H 0.8821(9) 0.1827(4) 0.5423(4)
N5 N 0.6477(8) 0.4177(3) 0.4888(3)
O7 O 0.3981(7) 0.4500(3) 0.5631(3)
O8 O 0.6142(8) 0.4179(3) 0.6373(3)
C29_2 C 0.0783(9) 0.3705(4) 0.0160(4)
H18_2 H 0.0656(9) 0.4115(4) 0.0406(4)
C1_2 C 0.4630(10) 0.0784(4) 0.1156(4)
Cu2_2 Cu 0.500 -0.000 0.000
C2_2 C 0.3400(10) 0.1121(4) 0.1523(4)
C3_2 C 0.1736(12) 0.1128(6) 0.1279(5)
H1_2 H 0.1356(12) 0.0904(6) 0.0881(5)
C4_2 C 0.0617(12) 0.1448(6) 0.1594(5)
C5_2 C 0.1081(9) 0.1767(4) 0.2171(4)
C6_2 C 0.2751(11) 0.1732(5) 0.2441(5)
H3_2 H 0.3119(11) 0.1932(5) 0.2850(5)
C7_2 C 0.3876(11) 0.1408(5) 0.2118(4)
H4_2 H 0.5014(11) 0.1382(5) 0.2312(4)
H8_2 H 0.0810(10) 0.3420(4) 0.2362(5)
H12_2 H 0.0662(10) 0.0894(4) 0.3056(4)
H13_2 H 0.4916(9) 0.1582(4) 0.0028(4)
C28_2 C 0.9687(9) 0.3143(4) 0.0173(4)
H17_2 H 0.8821(9) 0.3173(4) 0.0423(4)
O1_2 O 0.3981(7) 0.0500(3) 0.0631(3)
O2_2 O 0.6142(8) 0.0821(3) 0.1373(3)
Cu2_3 Cu 0.500 -0.000 1.000
C22_2 C 0.6018(9) 0.1493(4) 0.9952(4)
C23_2 C 0.7045(8) 0.2061(3) 0.9916(3)
H14_2 H 0.6641(8) 0.2529(3) 0.9952(3)
C24_2 C 0.8668(8) 0.1951(3) 0.9827(3)
C25_2 C 0.9174(9) 0.1256(3) 0.9748(4)
C26_2 C 0.8069(9) 0.0716(3) 0.9783(4)
H16_2 H 0.8430(9) 0.0244(3) 0.9733(4)
C27_2 C 0.9853(8) 0.2548(3) 0.9827(3)
N2_2 N 0.6477(8) 0.0823(3) 0.9888(3)
Cu2_4 Cu 0.500 1.000 0.000
C53_2 C 0.3982(9) 0.8507(4) 0.0048(4)
C54_2 C 0.2955(8) 0.7939(3) 0.0084(3)
H34_2 H 0.3359(8) 0.7471(3) 0.0048(3)
C55_2 C 0.1332(8) 0.8049(3) 0.0173(3)
C56_2 C 0.0826(9) 0.8744(3) 0.0252(4)
C57_2 C 0.1931(9) 0.9284(3) 0.0217(4)
H36_2 H 0.1570(9) 0.9756(3) 0.0267(4)
C58_2 C 0.0147(8) 0.7452(3) 0.0173(3)
N5_2 N 0.3523(8) 0.9177(3) 0.0112(3)
Cu2_5 Cu 0.500 1.000 1.000
C32_2 C 0.5370(10) 0.9216(4) 0.8844(4)
C33_2 C 0.6600(10) 0.8879(4) 0.8477(4)
C34_2 C 0.8264(12) 0.8872(6) 0.8721(5)
H21_2 H 0.8644(12) 0.9096(6) 0.9119(5)
C35_2 C 0.9383(12) 0.8552(6) 0.8406(5)
C36_2 C 0.8919(9) 0.8233(4) 0.7829(4)
C37_2 C 0.7249(11) 0.8268(5) 0.7559(5)
H23_2 H 0.6881(11) 0.8068(5) 0.7150(5)
C38_2 C 0.6124(11) 0.8592(5) 0.7882(4)
H24_2 H 0.4986(11) 0.8618(5) 0.7688(4)
H28_2 H 0.9190(10) 0.6580(4) 0.7638(5)
H32_2 H 0.9338(10) 0.9106(4) 0.6944(4)
H33_2 H 0.5084(9) 0.8418(4) 0.9972(4)
C59_2 C 0.0313(9) 0.6857(4) 0.9827(4)
H37_2 H 0.1179(9) 0.6827(4) 0.9577(4)
O7_2 O 0.6019(7) 0.9500(3) 0.9369(3)
O8_2 O 0.3858(8) 0.9179(3) 0.8627(3)
C60_2 C 0.9217(9) 0.6295(4) 0.9840(4)
H38_2 H 0.9344(9) 0.5885(4) 0.9594(4)
loop_
_geom_bond_atom_site_label_1
_geom_bond_atom_site_label_2
_geom_bond_site_symmetry_1
_geom_bond_site_symmetry_2
Cu1 O5 1_555 1_555
C8 C9 1_555 1_555
C9 H5 1_555 1_555
C10 C9 1_555 1_555
H6 C10 1_555 1_555
C11 C10 1_555 1_555
C12 C11 1_555 1_555
H7 C12 1_555 1_555
C13 C18 1_555 1_555
C14 C11 1_555 1_555
C15 C8 1_555 1_555
C16 C17 1_555 1_555
C17 H9 1_555 1_555
C18 C17 1_555 1_555
H10 C18 1_555 1_555
C19 C16 1_555 1_555
H11 C19 1_555 1_555
C20 C13 1_555 1_555
C21 C16 1_555 1_555
O3 C14 1_555 1_555
O4 C14 1_555 1_555
O5 C21 1_555 1_555
O6 C21 1_555 1_555
H38 C60 1_555 1_555
C61 H39 1_555 1_555
H40 C62 1_555 1_555
N6 C60 1_555 1_555
Cu7 N6 1_555 1_555
Cu11 O3 1_555 1_555
N8 Cu1 1_555 1_555
O15 Cu1 1_555 1_555
C8 N1 1_555 1_555
C12 C15 1_555 1_555
C13 N1 1_555 1_555
C19 C20 1_555 1_555
C61 C62 1_555 1_555
C61 N6 1_555 1_555
H18 C29 1_555 1_555
C30 H19 1_555 1_555
H20 C31 1_555 1_555
N3 C29 1_555 1_555
Cu8 O11 1_555 1_555
C39 C40 1_555 1_555
C40 H25 1_555 1_555
C41 C40 1_555 1_555
H26 C41 1_555 1_555
C42 C41 1_555 1_555
C43 C42 1_555 1_555
H27 C43 1_555 1_555
C44 C49 1_555 1_555
C45 C42 1_555 1_555
C46 C39 1_555 1_555
C47 C48 1_555 1_555
C48 H29 1_555 1_555
C49 C48 1_555 1_555
H30 C49 1_555 1_555
C50 C47 1_555 1_555
H31 C50 1_555 1_555
C51 C44 1_555 1_555
C52 C47 1_555 1_555
O9 C45 1_555 1_555
O10 C45 1_555 1_555
O11 C52 1_555 1_555
O18 C52 1_555 1_555
Cu7 O9 1_555 1_555
Cu11 N3 1_555 1_555
N7 Cu8 1_555 1_555
O16 Cu8 1_555 1_555
C30 C31 1_555 1_555
C30 N3 1_555 1_555
C39 N4 1_555 1_555
C43 C46 1_555 1_555
C44 N4 1_555 1_555
C50 C51 1_555 1_555
C30_2 H19_2 1_555 1_555
H20_2 C31_2 1_555 1_555
C30_2 C31_2 1_555 1_555
C30_2 N7 1_555 1_555
Cu11 O11_2 1_555 1_555
C39_2 C40_2 1_555 1_555
C40_2 H25_2 1_555 1_555
C41_2 C40_2 1_555 1_555
H26_2 C41_2 1_555 1_555
C42_2 C41_2 1_555 1_555
C43_2 C42_2 1_555 1_555
H27_2 C43_2 1_555 1_555
C44_2 C49_2 1_555 1_555
C45_2 C42_2 1_555 1_555
C46_2 C39_2 1_555 1_555
C47_2 C48_2 1_555 1_555
C48_2 H29_2 1_555 1_555
C49_2 C48_2 1_555 1_555
H30_2 C49_2 1_555 1_555
C50_2 C47_2 1_555 1_555
H31_2 C50_2 1_555 1_555
C51_2 C44_2 1_555 1_555
C52_2 C47_2 1_555 1_555
O14 C45_2 1_555 1_555
O16 C45_2 1_555 1_555
O11_2 C52_2 1_555 1_555
O12 C52_2 1_555 1_555
C39_2 N4_2 1_555 1_555
C43_2 C46_2 1_555 1_555
C44_2 N4_2 1_555 1_555
C50_2 C51_2 1_555 1_555
Cu7 O5_2 1_555 1_555
C8_2 C9_2 1_555 1_555
C9_2 H5_2 1_555 1_555
C10_2 C9_2 1_555 1_555
H6_2 C10_2 1_555 1_555
C11_2 C10_2 1_555 1_555
C12_2 C11_2 1_555 1_555
H7_2 C12_2 1_555 1_555
C13_2 C18_2 1_555 1_555
C14_2 C11_2 1_555 1_555
C15_2 C8_2 1_555 1_555
C16_2 C17_2 1_555 1_555
C17_2 H9_2 1_555 1_555
C18_2 C17_2 1_555 1_555
H10_2 C18_2 1_555 1_555
C19_2 C16_2 1_555 1_555
H11_2 C19_2 1_555 1_555
C20_2 C13_2 1_555 1_555
C21_2 C16_2 1_555 1_555
O13 C14_2 1_555 1_555
O15 C14_2 1_555 1_555
O5_2 C21_2 1_555 1_555
O17 C21_2 1_555 1_555
C8_2 N1_2 1_555 1_555
C12_2 C15_2 1_555 1_555
C13_2 N1_2 1_555 1_555
C19_2 C20_2 1_555 1_555
C61_2 H39_2 1_555 1_555
H40_2 C62_2 1_555 1_555
C61_2 C62_2 1_555 1_555
C61_2 N8 1_555 1_555
C1 C2 1_555 1_555
Cu2 N2 1_555 1_555
C2 C3 1_555 1_555
C3 H1 1_555 1_555
C4 C3 1_555 1_555
C5 C4 1_555 1_555
C6 C5 1_555 1_555
H3 C6 1_555 1_555
C7 C2 1_555 1_555
H4 C7 1_555 1_555
C22 H13 1_555 1_555
C23 C22 1_555 1_555
H14 C23 1_555 1_555
C24 C23 1_555 1_555
C25 C24 1_555 1_555
C26 C25 1_555 1_555
H16 C26 1_555 1_555
C27 C24 1_555 1_555
C28 C27 1_555 1_555
H17 C28 1_555 1_555
N2 C22 1_555 1_555
O1 C1 1_555 1_555
O2 C1 1_555 1_555
C32 C33 1_555 1_555
C33 C34 1_555 1_555
C34 H21 1_555 1_555
C35 C34 1_555 1_555
C36 C35 1_555 1_555
C37 C36 1_555 1_555
H23 C37 1_555 1_555
C38 C33 1_555 1_555
H24 C38 1_555 1_555
C53 H33 1_555 1_555
C54 C53 1_555 1_555
H34 C54 1_555 1_555
C55 C54 1_555 1_555
C56 C55 1_555 1_555
C57 C56 1_555 1_555
H36 C57 1_555 1_555
C58 C55 1_555 1_555
C59 C58 1_555 1_555
H37 C59 1_555 1_555
N5 Cu2 1_555 1_555
O7 Cu2 1_555 1_555
O8 C32 1_555 1_555
Cu2 O1 1_555 1_555
C6 C7 1_555 1_555
C26 N2 1_555 1_555
C32 O7 1_555 1_555
C37 C38 1_555 1_555
C53 N5 1_555 1_555
C57 N5 1_555 1_555
H18_2 C29_2 1_555 1_555
C1_2 C2_2 1_555 1_555
C2_2 C3_2 1_555 1_555
C3_2 H1_2 1_555 1_555
C4_2 C3_2 1_555 1_555
C5_2 C4_2 1_555 1_555
C6_2 C5_2 1_555 1_555
H3_2 C6_2 1_555 1_555
C7_2 C2_2 1_555 1_555
H4_2 C7_2 1_555 1_555
H17_2 C28_2 1_555 1_555
O1_2 C1_2 1_555 1_555
O2_2 C1_2 1_555 1_555
Cu2_2 O1_2 1_555 1_555
C6_2 C7_2 1_555 1_555
Cu2_3 N2_2 1_555 1_555
C23_2 C22_2 1_555 1_555
H14_2 C23_2 1_555 1_555
C24_2 C23_2 1_555 1_555
C25_2 C24_2 1_555 1_555
C26_2 C25_2 1_555 1_555
H16_2 C26_2 1_555 1_555
C27_2 C24_2 1_555 1_555
N2_2 C22_2 1_555 1_555
C26_2 N2_2 1_555 1_555
C54_2 C53_2 1_555 1_555
H34_2 C54_2 1_555 1_555
C55_2 C54_2 1_555 1_555
C56_2 C55_2 1_555 1_555
C57_2 C56_2 1_555 1_555
H36_2 C57_2 1_555 1_555
C58_2 C55_2 1_555 1_555
N5_2 Cu2_4 1_555 1_555
C53_2 N5_2 1_555 1_555
C57_2 N5_2 1_555 1_555
C32_2 C33_2 1_555 1_555
C33_2 C34_2 1_555 1_555
C34_2 H21_2 1_555 1_555
C35_2 C34_2 1_555 1_555
C36_2 C35_2 1_555 1_555
C37_2 C36_2 1_555 1_555
H23_2 C37_2 1_555 1_555
C38_2 C33_2 1_555 1_555
H24_2 C38_2 1_555 1_555
H37_2 C59_2 1_555 1_555
O7_2 Cu2_5 1_555 1_555
O8_2 C32_2 1_555 1_555
C32_2 O7_2 1_555 1_555
C37_2 C38_2 1_555 1_555
H38_2 C60_2 1_555 1_555

#END
