
###############################################################################
#
# This file contains modified crystal structure data generated from the
# MOF subset of the Cambridge Structural Database (CSD) v543 
# hosted by the Cambridge Crystallographic Data Centre (CCDC).
#
# This work is licensed under the Creative Commons
# Attribution-NonCommercial-ShareAlike 4.0 International License.
# To view a copy of this license, visit
# http://creativecommons.org/licenses/by-nc-sa/4.0/
# or send a letter to
# Creative Commons, PO Box 1866, Mountain View, CA 94042, USA.
#
# CIF created using the CSD Python API on 29 September 2022
# The structure has been converted into the P1 space group
# The structure has a 3D framework
# The original CSD entry VASKOR is in the orthorhombic crystal system
# The framework has been calculated to contain at least 10.0% void space
# The void calculation uses a probe of radius 1.32A, grid spacing 0.4
# H atom positions have been added when not included in the experimental data
#
###############################################################################

data_VASKOR
_chemical_formula_moiety         '(C32 H22 O18 Sc3)n'
_symmetry_cell_setting           triclinic
_symmetry_space_group_name_H-M   'P 1'
_symmetry_Int_Tables_number      1
_space_group_name_Hall           'P 1'
loop_
_symmetry_equiv_pos_site_id
_symmetry_equiv_pos_as_xyz
1 x,y,z
_cell_length_a                   19.344(2)
_cell_length_b                   9.1802(14)
_cell_length_c                   7.3013(11)
_cell_angle_alpha                90
_cell_angle_beta                 90
_cell_angle_gamma                90
_cell_volume                     1296.58
loop_
_atom_site_label
_atom_site_type_symbol
_atom_site_fract_x
_atom_site_fract_y
_atom_site_fract_z
Sc4 Sc 0.00050(9) 0.0044(3) 0.3539(6)
Sc1 Sc 0.50050(9) 0.4956(3) 0.3539(6)
O1 O 0.4145(4) 0.6130(9) 0.4486(9)
O2 O 0.4175(3) 0.6277(8) 0.7530(9)
C1 C 0.3877(4) 0.6399(9) 0.5986(19)
C2 C 0.3128(4) 0.6905(9) 0.6041(19)
C3 C 0.2850(5) 0.7503(11) 0.7645(15)
H1 H 0.3121 0.7610 0.8721
C4 C 0.2176(5) 0.7924(11) 0.7596(15)
H2 H 0.1972 0.8303 0.8681
C5 C 0.1759(4) 0.7819(9) 0.5976(18)
C6 C 0.2052(5) 0.7293(11) 0.4452(15)
H3 H 0.1790 0.7247 0.3354
C7 C 0.2749(5) 0.6802(11) 0.4448(13)
H4 H 0.2950 0.6410 0.3368
C8 C 0.1031(4) 0.8295(9) 0.5959(18)
O3 O 0.0734(4) 0.8451(9) 0.7532(10)
O4 O 0.0740(4) 0.8497(8) 0.4497(10)
O5 O 0.5084(3) 0.3933(5) 0.6099(13)
H5 H 0.469(4) 0.338(10) 0.654(15)
Sc2 Sc 0.49950(9) 0.5044(3) 0.8539(6)
O6 O 0.5825(3) 0.3723(8) 0.2530(9)
O7 O 0.4266(4) 0.3451(9) 0.2532(10)
O8 O 0.5740(4) 0.6503(8) 0.4497(10)
O9 O 0.4916(3) 0.6067(5) 0.1099(13)
H6 H 0.531(4) 0.662(10) 0.154(15)
H7 H 0.448236 0.663296 0.0946031
Sc3 Sc 0.99950(9) 0.9956(3) 0.8539(6)
C1_2 C 0.6123(4) 0.3601(9) 0.0986(19)
C2_2 C 0.6872(4) 0.3095(9) 0.1041(19)
C3_2 C 0.7150(5) 0.2497(11) 0.2645(15)
H1_2 H 0.6879 0.2390 0.3721
C4_2 C 0.7824(5) 0.2076(11) 0.2596(15)
H2_2 H 0.8028 0.1697 0.3681
C5_2 C 0.8241(4) 0.2181(9) 0.0976(18)
C8_2 C 0.8969(4) 0.1705(9) 0.0959(18)
O3_2 O 0.9266(4) 0.1549(9) 0.2532(10)
O1_2 O 0.5855(4) 0.3870(9) 0.9486(9)
C6_2 C 0.7948(5) 0.2707(11) 0.9452(15)
H3_2 H 0.8210 0.2753 0.8354
C7_2 C 0.7251(5) 0.3198(11) 0.9448(13)
H4_2 H 0.7050 0.3590 0.8368
O4_2 O 0.9260(4) 0.1503(8) 0.9497(10)
O7_2 O 0.5734(4) 0.6549(9) 0.7532(10)
O8_2 O 0.4260(4) 0.3497(8) 0.9497(10)
H7_2 H 0.551764 0.336704 0.594603
O5_2 O 0.0084(3) 0.1067(5) 0.6099(13)
O6_2 O 0.0825(3) 0.1277(8) 0.2530(9)
H6_2 H 0.031(4) 0.838(10) 0.154(15)
H5_2 H 0.969(4) 0.162(10) 0.654(15)
O1_3 O 0.9145(4) 0.8870(9) 0.4486(9)
O2_2 O 0.9175(3) 0.8723(8) 0.7530(9)
C1_3 C 0.8877(4) 0.8601(9) 0.5986(19)
C2_3 C 0.8128(4) 0.8095(9) 0.6041(19)
C3_3 C 0.7850(5) 0.7497(11) 0.7645(15)
H1_3 H 0.8121 0.7390 0.8721
C4_3 C 0.7176(5) 0.7076(11) 0.7596(15)
H2_3 H 0.6972 0.6697 0.8681
C5_3 C 0.6759(4) 0.7181(9) 0.5976(18)
C6_3 C 0.7052(5) 0.7707(11) 0.4452(15)
H3_3 H 0.6790 0.7753 0.3354
C7_3 C 0.7749(5) 0.8198(11) 0.4448(13)
H4_3 H 0.7950 0.8590 0.3368
C8_3 C 0.6031(4) 0.6705(9) 0.5959(18)
O9_2 O 0.9916(3) 0.8933(5) 0.1099(13)
H7_3 H 0.948236 0.836704 0.0946031
C1_4 C 0.1123(4) 0.1399(9) 0.0986(19)
C2_4 C 0.1872(4) 0.1905(9) 0.1041(19)
C3_4 C 0.2150(5) 0.2503(11) 0.2645(15)
H1_4 H 0.1879 0.2610 0.3721
C4_4 C 0.2824(5) 0.2924(11) 0.2596(15)
H2_4 H 0.3028 0.3303 0.3681
C5_4 C 0.3241(4) 0.2819(9) 0.0976(18)
C8_4 C 0.3969(4) 0.3295(9) 0.0959(18)
O1_4 O 0.0855(4) 0.1130(9) 0.9486(9)
C6_4 C 0.2948(5) 0.2293(11) 0.9452(15)
H3_4 H 0.3210 0.2247 0.8354
C7_4 C 0.2251(5) 0.1802(11) 0.9448(13)
H4_4 H 0.2050 0.1410 0.8368
H7_4 H 0.0517636 0.163296 0.594603
loop_
_geom_bond_atom_site_label_1
_geom_bond_atom_site_label_2
_geom_bond_site_symmetry_1
_geom_bond_site_symmetry_2
Sc1 O1 1_555 1_555
O1 C1 1_555 1_555
O2 C1 1_555 1_555
C1 C2 1_555 1_555
C2 C3 1_555 1_555
C3 H1 1_555 1_555
C4 C3 1_555 1_555
H2 C4 1_555 1_555
C5 C4 1_555 1_555
C6 C5 1_555 1_555
H3 C6 1_555 1_555
C7 C2 1_555 1_555
H4 C7 1_555 1_555
C8 C5 1_555 1_555
O3 C8 1_555 1_555
O4 C8 1_555 1_555
O5 Sc1 1_555 1_555
H5 O5 1_555 1_555
Sc2 O2 1_555 1_555
O6 Sc1 1_555 1_555
O7 Sc1 1_555 1_555
O8 Sc1 1_555 1_555
O9 Sc1 1_555 1_555
H6 O9 1_555 1_555
C6 C7 1_555 1_555
O5 Sc2 1_555 1_555
O9 H7 1_555 1_555
O6 C1_2 1_555 1_555
C1_2 C2_2 1_555 1_555
C2_2 C3_2 1_555 1_555
C3_2 H1_2 1_555 1_555
C4_2 C3_2 1_555 1_555
H2_2 C4_2 1_555 1_555
C5_2 C4_2 1_555 1_555
C8_2 C5_2 1_555 1_555
O3_2 C8_2 1_555 1_555
Sc2 O1_2 1_555 1_555
H3_2 C6_2 1_555 1_555
H4_2 C7_2 1_555 1_555
O7_2 Sc2 1_555 1_555
O8_2 Sc2 1_555 1_555
C6_2 C7_2 1_555 1_555
O5 H7_2 1_555 1_555
O5_2 Sc4 1_555 1_555
O6_2 Sc4 1_555 1_555
O1_3 C1_3 1_555 1_555
O2_2 C1_3 1_555 1_555
C1_3 C2_3 1_555 1_555
C2_3 C3_3 1_555 1_555
C3_3 H1_3 1_555 1_555
C4_3 C3_3 1_555 1_555
H2_3 C4_3 1_555 1_555
C5_3 C4_3 1_555 1_555
C6_3 C5_3 1_555 1_555
H3_3 C6_3 1_555 1_555
C7_3 C2_3 1_555 1_555
H4_3 C7_3 1_555 1_555
C8_3 C5_3 1_555 1_555
O7_2 C8_3 1_555 1_555
O8 C8_3 1_555 1_555
Sc3 O2_2 1_555 1_555
C6_3 C7_3 1_555 1_555
O9_2 H7_3 1_555 1_555
O6_2 C1_4 1_555 1_555
C1_4 C2_4 1_555 1_555
C2_4 C3_4 1_555 1_555
C3_4 H1_4 1_555 1_555
C4_4 C3_4 1_555 1_555
H2_4 C4_4 1_555 1_555
C5_4 C4_4 1_555 1_555
C8_4 C5_4 1_555 1_555
O7 C8_4 1_555 1_555
H3_4 C6_4 1_555 1_555
H4_4 C7_4 1_555 1_555
C6_4 C7_4 1_555 1_555
O5_2 H7_4 1_555 1_555

#END
