
###############################################################################
#
# This file contains modified crystal structure data generated from the
# MOF subset of the Cambridge Structural Database (CSD) v543 
# hosted by the Cambridge Crystallographic Data Centre (CCDC).
#
# This work is licensed under the Creative Commons
# Attribution-NonCommercial-ShareAlike 4.0 International License.
# To view a copy of this license, visit
# http://creativecommons.org/licenses/by-nc-sa/4.0/
# or send a letter to
# Creative Commons, PO Box 1866, Mountain View, CA 94042, USA.
#
# CIF created using the CSD Python API on 29 September 2022
# The structure has been converted into the P1 space group
# The structure has a 3D framework
# The original CSD entry VASNIN is in the triclinic crystal system
# The framework has been calculated to contain at least 10.0% void space
# The void calculation uses a probe of radius 1.32A, grid spacing 0.4
#
###############################################################################

data_VASNIN
_chemical_formula_moiety         '(C48 H36 N4 Ni2 O10)n'
_symmetry_cell_setting           triclinic
_symmetry_space_group_name_H-M   'P 1'
_symmetry_Int_Tables_number      1
_space_group_name_Hall           'P 1'
loop_
_symmetry_equiv_pos_site_id
_symmetry_equiv_pos_as_xyz
1 x,y,z
_cell_length_a                   7.6221(16)
_cell_length_b                   11.311(3)
_cell_length_c                   14.001(3)
_cell_angle_alpha                94.787(14)
_cell_angle_beta                 104.00(2)
_cell_angle_gamma                91.319(18)
_cell_volume                     1165.97
loop_
_atom_site_label
_atom_site_type_symbol
_atom_site_fract_x
_atom_site_fract_y
_atom_site_fract_z
_atom_site_U_iso_or_equiv
_atom_site_thermal_displace_type
N4 N 0.0748(5) 0.4843(3) 0.2169(2) 0.0356 Uani
C47 C 0.0148(8) 0.4324(6) 0.1268(4) 0.0882 Uani
H31 H 0.0948 0.3875 0.0999 0.1050 Uiso
Ni5 Ni 0.33071(8) 0.45952(4) 0.30563(4) 0.0283 Uani
C37 C 0.0069(7) 0.0534(4) 0.5122(5) 0.0651 Uani
C38 C 0.0715(7) 0.1464(5) 0.4556(4) 0.0527 Uani
C39 C 0.1000(9) 0.2585(5) 0.4968(4) 0.0720 Uani
C40 C 0.1719(8) 0.3439(5) 0.4523(4) 0.0632 Uani
N3 N 0.2156(5) 0.3245(3) 0.3658(3) 0.0379 Uani
C41 C 0.1806(7) 0.2148(4) 0.3218(4) 0.0555 Uani
C42 C 0.1090(7) 0.1236(4) 0.3642(5) 0.0649 Uani
H25 H 0.0866 0.0479 0.3312 0.0780 Uiso
H26 H 0.2048 0.1981 0.2602 0.0670 Uiso
H27 H 0.1918 0.4202 0.4843 0.0760 Uiso
H28 H 0.0703 0.2785 0.5565 0.0860 Uiso
C26 C 0.6004(7) 0.0922(4) 0.1180(4) 0.0528 Uani
C27 C 0.4864(7) 0.1821(4) 0.1146(3) 0.0423 Uani
C28 C 0.3415(8) 0.1857(5) 0.0313(4) 0.0725 Uani
H19 H 0.2655 0.2492 0.0276 0.0870 Uiso
C29 C 0.5117(7) 0.2761(4) 0.2013(3) 0.0381 Uani
O6 O 0.3906(4) 0.3512(2) 0.19592(19) 0.0372 Uani
O7 O 0.6458(5) 0.2705(3) 0.2718(2) 0.0563 Uani
H20 H 0.6987 0.0914 0.1723 0.0630 Uiso
O10 O 0.5900(4) 0.4416(3) 0.3924(2) 0.0368 Uani
H35 H 0.598(5) 0.419(3) 0.441(3) 0.0090 Uiso
H36 H 0.643(8) 0.371(6) 0.348(5) 0.1000 Uiso
O11 O 0.4202(4) 0.6347(2) 0.2792(2) 0.0351 Uani
O12 O 0.3142(4) 0.6055(2) 0.40848(19) 0.0322 Uani
C10 C 0.5474(6) 0.9954(3) 0.3747(3) 0.0373 Uani
C31 C 0.4666(6) 0.9617(3) 0.5294(3) 0.0303 Uani
C32 C 0.4145(6) 0.8425(3) 0.4899(3) 0.0332 Uani
C33 C 0.4308(5) 0.8017(3) 0.3972(3) 0.0299 Uani
C34 C 0.4979(6) 0.8801(3) 0.3394(3) 0.0371 Uani
H22 H 0.5085 0.8527 0.2766 0.0450 Uiso
C35 C 0.3867(6) 0.6744(3) 0.3593(3) 0.0308 Uani
H23 H 0.3686 0.7913 0.5274 0.0400 Uiso
H24 H 0.4096 0.9540 0.6644 0.0450 Uiso
C43 C 0.5341(6) 0.5194(4) 0.0466(3) 0.0484 Uani
C44 C 0.7192(7) 0.5058(4) 0.1033(3) 0.0447 Uani
C45 C 0.7790(7) 0.5562(6) 0.1985(4) 0.0744 Uani
C46 C 0.9540(7) 0.5431(6) 0.2509(4) 0.0756 Uani
C48 C 0.8420(9) 0.4399(7) 0.0696(4) 0.0977 Uani
H30 H 0.8088 0.3992 0.0070 0.1170 Uiso
H32 H 0.9888 0.5788 0.3153 0.0910 Uiso
H33 H 0.7008 0.5996 0.2279 0.0890 Uiso
H34 H 0.4572 0.5591 0.0794 0.0580 Uiso
C3 C 0.4256(7) 0.0015(4) 0.9593(3) 0.0499 Uani
C4 C 0.3102(9) 0.0974(5) 0.9554(4) 0.0801 Uani
H4 H 0.2126 0.1007 0.9012 0.0960 Uiso
H29 H 0.9752 0.0794 0.5703 0.0780 Uiso
H13 H 0.0248 0.9206 0.4297 0.0780 Uiso
C19 C 0.0460(7) 0.4569(6) 0.7491(4) 0.0756 Uani
H14 H 0.0112 0.4212 0.6847 0.0910 Uiso
C20 C 0.2210(7) 0.4438(6) 0.8015(4) 0.0744 Uani
H15 H 0.2992 0.4004 0.7721 0.0890 Uiso
C21 C 0.2808(7) 0.4942(4) 0.8967(3) 0.0447 Uani
C22 C 0.1580(9) 0.5601(7) 0.9304(4) 0.0977 Uani
H16 H 0.1912 0.6008 0.9930 0.1170 Uiso
C24 C 0.4659(6) 0.4806(4) 0.9534(3) 0.0484 Uani
H18 H 0.5428 0.4409 0.9206 0.0580 Uiso
C25 C 0.5744(7) 0.9985(4) 0.0407(3) 0.0499 Uani
C30 C 0.6898(9) 0.9026(5) 0.0446(4) 0.0801 Uani
H21 H 0.7874 0.8993 0.0988 0.0960 Uiso
Ni1 Ni 0.66929(8) 0.54048(4) 0.69437(4) 0.0283 Uani
O1 O 0.6094(4) 0.6488(2) 0.80408(19) 0.0372 Uani
O2 O 0.3542(5) 0.7295(3) 0.7282(2) 0.0563 Uani
O3 O 0.5798(4) 0.3653(2) 0.7208(2) 0.0351 Uani
O4 O 0.6858(4) 0.3945(2) 0.59152(19) 0.0322 Uani
O5 O 0.4100(4) 0.5584(3) 0.6076(2) 0.0368 Uani
H1 H 0.402(5) 0.581(3) 0.559(3) 0.0090 Uiso
H2 H 0.357(8) 0.629(6) 0.652(5) 0.1000 Uiso
C1 C 0.5136(7) 0.8179(4) 0.8854(3) 0.0423 Uani
C2 C 0.3996(7) 0.9078(4) 0.8820(4) 0.0528 Uani
H3 H 0.3013 0.9086 0.8277 0.0630 Uiso
C5 C 0.6585(8) 0.8143(5) 0.9687(4) 0.0725 Uani
H5 H 0.7345 0.7508 0.9724 0.0870 Uiso
C6 C 0.4883(7) 0.7239(4) 0.7987(3) 0.0381 Uani
C7 C 0.5692(5) 0.1983(3) 0.6028(3) 0.0299 Uani
C8 C 0.5855(6) 0.1575(3) 0.5101(3) 0.0332 Uani
H6 H 0.6314 0.2087 0.4726 0.0400 Uiso
C9 C 0.5334(6) 0.0383(3) 0.4706(3) 0.0303 Uani
H7 H 0.5904 0.0460 0.3356 0.0450 Uiso
C11 C 0.5021(6) 0.1199(3) 0.6606(3) 0.0371 Uani
H8 H 0.4915 0.1473 0.7234 0.0450 Uiso
C12 C 0.6133(6) 0.3256(3) 0.6407(3) 0.0308 Uani
N1 N 0.7844(5) 0.6755(3) 0.6342(3) 0.0379 Uani
C13 C 0.8281(8) 0.6561(5) 0.5477(4) 0.0632 Uani
H9 H 0.8082 0.5798 0.5157 0.0760 Uiso
C14 C 0.9000(9) 0.7415(5) 0.5032(4) 0.0720 Uani
H10 H 0.9297 0.7215 0.4435 0.0860 Uiso
C15 C 0.9285(7) 0.8536(5) 0.5444(4) 0.0527 Uani
C16 C 0.8910(7) 0.8764(4) 0.6358(5) 0.0649 Uani
H11 H 0.9134 0.9521 0.6688 0.0780 Uiso
C17 C 0.8194(7) 0.7852(4) 0.6782(4) 0.0555 Uani
H12 H 0.7952 0.8019 0.7398 0.0670 Uiso
C18 C 0.9931(7) 0.9466(4) 0.4878(5) 0.0651 Uani
N2 N 0.9252(5) 0.5157(3) 0.7831(2) 0.0356 Uani
C23 C 0.9852(8) 0.5676(6) 0.8732(4) 0.0882 Uani
H17 H 0.9052 0.6125 0.9001 0.1050 Uiso
C36 C 0.4526(6) 0.0046(3) 0.6253(3) 0.0373 Uani
loop_
_atom_site_aniso_label
_atom_site_aniso_U_11
_atom_site_aniso_U_22
_atom_site_aniso_U_33
_atom_site_aniso_U_23
_atom_site_aniso_U_13
_atom_site_aniso_U_12
N4 0.04 0.036 0.0305 -0.0027 0.0097 0.004
C47 0.066 0.122 0.056 -0.041 -0.013 0.051
Ni5 0.0382 0.0209 0.0246 -0.00455 0.008 -0.0009
C37 0.047 0.062 0.089 0.002 0.024 0
C38 0.037 0.06 0.069 0.03 0.02 0.004
C39 0.094 0.068 0.059 0.009 0.03 -0.028
C40 0.092 0.054 0.048 -0.005 0.031 -0.019
N3 0.039 0.0293 0.043 0.0016 0.0067 -0.0037
C41 0.072 0.04 0.059 -0.007 0.03 -0.011
C42 0.059 0.024 0.114 0.003 0.028 -0.009
C26 0.061 0.048 0.042 -0.016 0.004 0.015
C27 0.056 0.038 0.031 -0.0085 0.01 0.009
C28 0.089 0.058 0.056 -0.028 -0.002 0.036
C29 0.054 0.028 0.034 -0.0042 0.016 0.004
O6 0.052 0.0293 0.0271 -0.0091 0.0069 0.0064
O7 0.063 0.055 0.0407 -0.0188 -0.0009 0.0227
O10 0.048 0.0328 0.0259 -0.0038 0.004 0.0038
O11 0.0482 0.0255 0.0329 -0.0055 0.0151 0.0005
O12 0.0432 0.0207 0.0319 -0.0042 0.01 -0.0013
C10 0.051 0.025 0.039 -0.001 0.018 0.0028
C31 0.035 0.0218 0.033 -0.0022 0.0078 0.0037
C32 0.039 0.023 0.038 0.0003 0.011 0.0011
C33 0.034 0.024 0.03 -0.005 0.0069 0.005
C34 0.051 0.029 0.032 -0.0058 0.014 0.003
C35 0.032 0.025 0.033 -0.0009 0.0044 0.0035
C43 0.038 0.062 0.044 0.004 0.008 0.004
C44 0.048 0.048 0.037 0.003 0.009 0
C45 0.043 0.11 0.059 -0.029 0.001 0.026
C46 0.048 0.114 0.049 -0.041 -0.004 0.021
C48 0.075 0.137 0.053 -0.049 -0.023 0.044
C3 0.06 0.043 0.042 -0.009 0.006 0.023
C4 0.089 0.075 0.054 -0.029 -0.018 0.045
C19 0.048 0.114 0.049 -0.041 -0.004 0.021
C20 0.043 0.11 0.059 -0.029 0.001 0.026
C21 0.048 0.048 0.037 0.003 0.009 0
C22 0.075 0.137 0.053 -0.049 -0.023 0.044
C24 0.038 0.062 0.044 0.004 0.008 0.004
C25 0.06 0.043 0.042 -0.009 0.006 0.023
C30 0.089 0.075 0.054 -0.029 -0.018 0.045
Ni1 0.0382 0.0209 0.0246 -0.00455 0.008 -0.0009
O1 0.052 0.0293 0.0271 -0.0091 0.0069 0.0064
O2 0.063 0.055 0.0407 -0.0188 -0.0009 0.0227
O3 0.0482 0.0255 0.0329 -0.0055 0.0151 0.0005
O4 0.0432 0.0207 0.0319 -0.0042 0.01 -0.0013
O5 0.048 0.0328 0.0259 -0.0038 0.004 0.0038
C1 0.056 0.038 0.031 -0.0085 0.01 0.009
C2 0.061 0.048 0.042 -0.016 0.004 0.015
C5 0.089 0.058 0.056 -0.028 -0.002 0.036
C6 0.054 0.028 0.034 -0.0042 0.016 0.004
C7 0.034 0.024 0.03 -0.005 0.0069 0.005
C8 0.039 0.023 0.038 0.0003 0.011 0.0011
C9 0.035 0.0218 0.033 -0.0022 0.0078 0.0037
C11 0.051 0.029 0.032 -0.0058 0.014 0.003
C12 0.032 0.025 0.033 -0.0009 0.0044 0.0035
N1 0.039 0.0293 0.043 0.0016 0.0067 -0.0037
C13 0.092 0.054 0.048 -0.005 0.031 -0.019
C14 0.094 0.068 0.059 0.009 0.03 -0.028
C15 0.037 0.06 0.069 0.03 0.02 0.004
C16 0.059 0.024 0.114 0.003 0.028 -0.009
C17 0.072 0.04 0.059 -0.007 0.03 -0.011
C18 0.047 0.062 0.089 0.002 0.024 0
N2 0.04 0.036 0.0305 -0.0027 0.0097 0.004
C23 0.066 0.122 0.056 -0.041 -0.013 0.051
C36 0.051 0.025 0.039 -0.001 0.018 0.0028
loop_
_geom_bond_atom_site_label_1
_geom_bond_atom_site_label_2
_geom_bond_site_symmetry_1
_geom_bond_site_symmetry_2
C47 N4 1_555 1_555
H31 C47 1_555 1_555
Ni5 N4 1_555 1_555
C38 C37 1_555 1_555
C39 C38 1_555 1_555
C40 C39 1_555 1_555
N3 C40 1_555 1_555
C41 N3 1_555 1_555
C42 C38 1_555 1_555
H25 C42 1_555 1_555
H26 C41 1_555 1_555
H27 C40 1_555 1_555
H28 C39 1_555 1_555
Ni5 N3 1_555 1_555
C41 C42 1_555 1_555
C27 C26 1_555 1_555
H19 C28 1_555 1_555
C29 C27 1_555 1_555
O6 C29 1_555 1_555
O7 C29 1_555 1_555
H20 C26 1_555 1_555
Ni5 O6 1_555 1_555
O10 Ni5 1_555 1_555
H35 O10 1_555 1_555
H36 O10 1_555 1_555
O11 Ni5 1_555 1_555
O12 Ni5 1_555 1_555
C27 C28 1_555 1_555
C32 C31 1_555 1_555
C33 C32 1_555 1_555
C34 C10 1_555 1_555
H22 C34 1_555 1_555
C35 C33 1_555 1_555
O11 C35 1_555 1_555
O12 C35 1_555 1_555
H23 C32 1_555 1_555
C33 C34 1_555 1_555
C44 C43 1_555 1_555
C45 C44 1_555 1_555
C46 C45 1_555 1_555
C48 C44 1_555 1_555
H30 C48 1_555 1_555
H32 C46 1_555 1_555
H33 C45 1_555 1_555
H34 C43 1_555 1_555
C4 C3 1_555 1_555
H4 C4 1_555 1_555
H14 C19 1_555 1_555
C20 C19 1_555 1_555
H15 C20 1_555 1_555
C21 C20 1_555 1_555
C22 C21 1_555 1_555
H16 C22 1_555 1_555
C24 C21 1_555 1_555
H18 C24 1_555 1_555
H21 C30 1_555 1_555
C25 C30 1_555 1_555
Ni1 O1 1_555 1_555
O1 C6 1_555 1_555
O2 C6 1_555 1_555
O3 Ni1 1_555 1_555
O4 Ni1 1_555 1_555
O5 Ni1 1_555 1_555
H1 O5 1_555 1_555
H2 O5 1_555 1_555
C1 C2 1_555 1_555
C2 H3 1_555 1_555
C5 C1 1_555 1_555
H5 C5 1_555 1_555
C6 C1 1_555 1_555
C7 C8 1_555 1_555
C8 H6 1_555 1_555
C9 C8 1_555 1_555
C11 C7 1_555 1_555
H8 C11 1_555 1_555
C12 O3 1_555 1_555
N1 Ni1 1_555 1_555
C13 N1 1_555 1_555
H9 C13 1_555 1_555
C14 C13 1_555 1_555
H10 C14 1_555 1_555
C15 C14 1_555 1_555
C16 C15 1_555 1_555
H11 C16 1_555 1_555
C17 N1 1_555 1_555
H12 C17 1_555 1_555
C18 C15 1_555 1_555
N2 Ni1 1_555 1_555
C23 N2 1_555 1_555
H17 C23 1_555 1_555
C36 C11 1_555 1_555
O4 C12 1_555 1_555
C7 C12 1_555 1_555
C16 C17 1_555 1_555

#END
