
###############################################################################
#
# This file contains modified crystal structure data generated from the
# MOF subset of the Cambridge Structural Database (CSD) v543 
# hosted by the Cambridge Crystallographic Data Centre (CCDC).
#
# This work is licensed under the Creative Commons
# Attribution-NonCommercial-ShareAlike 4.0 International License.
# To view a copy of this license, visit
# http://creativecommons.org/licenses/by-nc-sa/4.0/
# or send a letter to
# Creative Commons, PO Box 1866, Mountain View, CA 94042, USA.
#
# CIF created using the CSD Python API on 29 September 2022
# The structure has been converted into the P1 space group
# The structure has a 3D framework
# The original CSD entry VATLUB is in the trigonal crystal system
# The original CSD entry VATLUB is in a Sohncke space group
# The framework has been calculated to contain at least 10.0% void space
# The void calculation uses a probe of radius 1.32A, grid spacing 0.4
# The framework is charged, counterions have been retained in the structure
#
###############################################################################

data_VATLUB
_chemical_formula_moiety         '(C96 H36 Dy6 O46 4-)n'
_symmetry_cell_setting           triclinic
_symmetry_space_group_name_H-M   'P 1'
_symmetry_Int_Tables_number      1
_space_group_name_Hall           'P 1'
loop_
_symmetry_equiv_pos_site_id
_symmetry_equiv_pos_as_xyz
1 x,y,z
_cell_length_a                   13.6910(15)
_cell_length_b                   13.6910(15)
_cell_length_c                   22.725(2)
_cell_angle_alpha                90
_cell_angle_beta                 90
_cell_angle_gamma                120
_cell_volume                     3688.97
loop_
_atom_site_label
_atom_site_type_symbol
_atom_site_fract_x
_atom_site_fract_y
_atom_site_fract_z
C16 C 0.1062(10) 0.2630(13) 0.0003(5)
O15 O 0.1771(14) 0.2738(9) 0.0377(3)
Dy6 Dy 0.33316(4) 0.30490(4) 0.08951(2)
O14 O 0.1229(11) 0.2699(7) 0.9463(3)
Dy5 Dy 0.30490(4) 0.33316(4) 0.91049(2)
O1 O 0.4170(8) 0.2295(7) 0.1571(3)
O2 O 0.4759(8) 0.4092(8) 0.1606(4)
O3 O 0.1903(14) 0.2199(8) 0.1684(3)
O4 O 0.4892(14) 0.3251(8) 0.0378(3)
O5 O 0.2615(16) 0.3998(9) 0.1523(4)
O6 O 0.2699(7) 0.1229(11) 0.0537(3)
O7 O 0.3967(6) 0.4769(10) 0.0484(3)
H2 H 0.649296 0.285004 0.033155
C9 C 0.8409(14) 0.2804(10) 0.0121(5)
C10 C 0.7965(16) 0.2217(11) 0.0645(4)
H4 H 0.730379 0.215459 0.079387
C12 C 0.8487(14) 0.1723(10) 0.0950(5)
C13 C 0.9954(13) 0.2444(9) 0.0224(4)
C14 C 0.7952(16) 0.1080(11) 0.1490(5)
C15 C 0.9513(14) 0.1857(10) 0.0749(4)
H6 H 0.988948 0.156170 0.095888
O12 O 0.8097(14) 0.0296(16) 0.1649(3)
O13 O 0.7385(16) 0.1383(18) 0.1810(4)
C1 C 0.5261(9) 0.3654(13) 0.9871(4)
C2 C 0.6343(11) 0.3772(10) 0.9685(5)
C3 C 0.6878(11) 0.4386(10) 0.9186(5)
C4 C 0.6837(11) 0.3254(9) 0.9992(5)
C5 C 0.7859(11) 0.4514(10) 0.8988(5)
H1 H 0.654246 0.472555 0.897731
C6 C 0.7837(11) 0.3327(10) 0.9801(5)
C7 C 0.8475(11) 0.5213(10) 0.8462(5)
C8 C 0.8356(10) 0.3987(11) 0.9294(5)
H3 H 0.903776 0.407165 0.916215
C11 C 0.9403(14) 0.2885(10) 0.9921(5)
H5 H 0.970640 0.325358 0.956706
O9 O 0.4769(10) 0.3967(6) 0.9516(3)
O10 O 0.9333(11) 0.5241(8) 0.8273(4)
O11 O 0.8125(11) 0.5830(8) 0.8238(3)
Dy4 Dy 0.97174(6) 0.66684(4) 0.75618(2)
Dy3 Dy 0.66684(4) 0.97174(6) 0.24382(2)
Dy3_2 Dy 0.02826(6) 0.69510(7) 0.57716(2)
Dy6_2 Dy 0.69510(4) 0.02826(6) 0.42284(2)
O1_2 O 0.7705(7) 0.1875(11) 0.4904(3)
O2_2 O 0.5908(8) 0.0667(11) 0.4939(4)
O4_2 O 0.6749(8) 0.1641(16) 0.3711(3)
O6_2 O 0.8771(11) 0.1470(13) 0.3870(3)
C1_2 C 0.6346(13) 0.1607(16) 0.3204(4)
C2_2 C 0.6228(10) 0.2571(15) 0.3018(5)
C3_2 C 0.5614(10) 0.2492(15) 0.2519(5)
C4_2 C 0.6746(9) 0.3583(14) 0.3325(5)
C5_2 C 0.5486(10) 0.3345(15) 0.2321(5)
H1_2 H 0.527445 0.181691 0.231064
C6_2 C 0.6673(10) 0.4510(15) 0.3134(5)
H2_2 H 0.714996 0.364292 0.366488
C7_2 C 0.4787(10) 0.3262(15) 0.1795(5)
C8_2 C 0.6013(11) 0.4369(15) 0.2627(5)
C9_2 C 0.7196(10) 0.5605(17) 0.3454(5)
H3_2 H 0.592835 0.496611 0.249548
C10_2 C 0.7783(11) 0.5748(19) 0.3978(4)
C11_2 C 0.7115(10) 0.6518(17) 0.3254(5)
H4_2 H 0.784541 0.514920 0.412720
C12_2 C 0.8277(10) 0.6764(17) 0.4283(5)
C13_2 C 0.7556(9) 0.7510(16) 0.3557(4)
H5_2 H 0.674642 0.645282 0.290039
C14_2 C 0.8920(11) 0.6872(19) 0.4823(5)
C15_2 C 0.8143(10) 0.7656(17) 0.4082(4)
C16_2 C 0.7370(13) 0.8432(16) 0.3336(5)
H6_2 H 0.843830 0.832778 0.429221
O9_2 O 0.6033(6) 0.0802(12) 0.2849(3)
O12_2 O 0.9704(16) 0.7801(21) 0.4983(3)
O13_2 O 0.8617(18) 0.6002(24) 0.5144(4)
O14_2 O 0.7301(7) 0.8530(13) 0.2796(3)
O15_2 O 0.7262(9) 0.9033(17) 0.3710(3)
O3_2 O 0.7801(8) 0.9704(16) 0.5017(3)
O5_2 O 0.6002(9) 0.8617(18) 0.4856(4)
O7_2 O 0.5231(10) 0.9198(12) 0.3817(3)
O3_3 O 0.0296(16) 0.8097(14) 0.8351(3)
O5_3 O 0.1383(18) 0.7385(16) 0.8190(4)
O7_3 O 0.0802(12) 0.6033(6) 0.7151(3)
O8 O 0.0967(17) 0.8229(14) 0.7044(3)
O4_3 O 0.8359(16) 0.5108(14) 0.7045(3)
O6_3 O 0.8530(13) 0.7301(7) 0.7204(3)
C1_3 C 0.8393(16) 0.4739(9) 0.6538(4)
C2_3 C 0.7429(15) 0.3657(11) 0.6352(5)
C3_3 C 0.7508(15) 0.3122(11) 0.5853(5)
C4_3 C 0.6417(14) 0.3163(11) 0.6659(5)
C5_3 C 0.6655(15) 0.2141(11) 0.5655(5)
H1_3 H 0.818309 0.345754 0.564398
C6_3 C 0.5490(15) 0.2163(11) 0.6468(5)
H2_3 H 0.635708 0.350704 0.699822
C7_3 C 0.6738(15) 0.1525(11) 0.5129(5)
C8_3 C 0.5631(15) 0.1644(10) 0.5961(5)
C9_3 C 0.4395(17) 0.1591(14) 0.6788(5)
H3_3 H 0.503389 0.096224 0.582882
C10_3 C 0.4252(19) 0.2035(16) 0.7312(4)
C11_3 C 0.3482(17) 0.0597(14) 0.6588(5)
H4_3 H 0.485080 0.269621 0.746054
C12_3 C 0.3236(17) 0.1513(14) 0.7617(5)
C13_3 C 0.2490(16) 0.0046(13) 0.6891(4)
H5_3 H 0.354718 0.029360 0.623373
C14_3 C 0.3128(19) 0.2048(16) 0.8157(5)
C15_3 C 0.2344(17) 0.0487(14) 0.7416(4)
H6_3 H 0.167222 0.011052 0.762555
O9_3 O 0.9198(12) 0.5231(10) 0.6183(3)
O12_3 O 0.2199(21) 0.1903(14) 0.8316(3)
O13_3 O 0.3998(24) 0.2615(16) 0.8477(4)
C16_3 C 0.1568(16) 0.8938(10) 0.6670(5)
O14_3 O 0.1470(13) 0.8771(11) 0.6130(3)
C16_4 C 0.2630(13) 0.1062(10) 0.9997(5)
O15_3 O 0.2738(9) 0.1771(14) 0.9623(3)
C1_4 C 0.3654(13) 0.5261(9) 0.0129(4)
C2_4 C 0.3772(10) 0.6343(11) 0.0315(5)
C3_4 C 0.4386(10) 0.6878(11) 0.0814(5)
C4_4 C 0.3254(9) 0.6837(11) 0.0008(5)
C5_4 C 0.4514(10) 0.7859(11) 0.1012(5)
H1_4 H 0.472555 0.654246 0.102269
C6_4 C 0.3327(10) 0.7837(11) 0.0199(5)
C7_4 C 0.5213(10) 0.8475(11) 0.1538(5)
C8_4 C 0.3987(11) 0.8356(10) 0.0706(5)
H3_4 H 0.407165 0.903776 0.083785
C11_4 C 0.2885(10) 0.9403(14) 0.0079(5)
H5_4 H 0.325358 0.970640 0.043294
O10_2 O 0.5241(8) 0.9333(11) 0.1727(4)
O11_2 O 0.5830(8) 0.8125(11) 0.1762(3)
O1_3 O 0.2295(7) 0.4170(8) 0.8429(3)
O2_3 O 0.4092(8) 0.4759(8) 0.8394(4)
O4_4 O 0.3251(8) 0.4892(14) 0.9622(3)
H2_4 H 0.285004 0.649296 0.966845
C9_4 C 0.2804(10) 0.8409(14) 0.9879(5)
C10_4 C 0.2217(11) 0.7965(16) 0.9355(4)
H4_4 H 0.215459 0.730379 0.920613
C12_4 C 0.1723(10) 0.8487(14) 0.9050(5)
C13_4 C 0.2444(9) 0.9954(13) 0.9776(4)
C14_4 C 0.1080(11) 0.7952(16) 0.8510(5)
C15_4 C 0.1857(10) 0.9513(14) 0.9251(4)
H6_4 H 0.156170 0.988948 0.904112
O1_4 O 0.1875(11) 0.7705(7) 0.5096(3)
O2_4 O 0.0667(11) 0.5908(8) 0.5061(4)
O4_5 O 0.1641(16) 0.6749(8) 0.6289(3)
C1_5 C 0.1607(16) 0.6346(13) 0.6796(4)
C2_5 C 0.2571(15) 0.6228(10) 0.6982(5)
C3_5 C 0.2492(15) 0.5614(10) 0.7481(5)
C4_5 C 0.3583(14) 0.6746(9) 0.6675(5)
C5_5 C 0.3345(15) 0.5486(10) 0.7679(5)
H1_5 H 0.181691 0.527445 0.768936
C6_5 C 0.4510(15) 0.6673(10) 0.6866(5)
H2_5 H 0.364292 0.714996 0.633512
C7_5 C 0.3262(15) 0.4787(10) 0.8205(5)
C8_5 C 0.4369(15) 0.6013(11) 0.7373(5)
C9_5 C 0.5605(17) 0.7196(10) 0.6546(5)
H3_5 H 0.496611 0.592835 0.750452
C10_5 C 0.5748(19) 0.7783(11) 0.6022(4)
C11_5 C 0.6518(17) 0.7115(10) 0.6746(5)
H4_5 H 0.514920 0.784541 0.587280
C12_5 C 0.6764(17) 0.8277(10) 0.5717(5)
C13_5 C 0.7510(16) 0.7556(9) 0.6443(4)
H5_5 H 0.645282 0.674642 0.709961
C14_5 C 0.6872(19) 0.8920(11) 0.5177(5)
C15_5 C 0.7656(17) 0.8143(10) 0.5918(4)
C16_5 C 0.8432(16) 0.7370(13) 0.6664(5)
H6_5 H 0.832778 0.843830 0.570779
O15_4 O 0.9033(17) 0.7262(9) 0.6290(3)
O8_2 O 0.8229(14) 0.0967(17) 0.2956(3)
O4_6 O 0.5108(14) 0.8359(16) 0.2955(3)
C1_6 C 0.4739(9) 0.8393(16) 0.3462(4)
C2_6 C 0.3657(11) 0.7429(15) 0.3648(5)
C3_6 C 0.3122(11) 0.7508(15) 0.4147(5)
C4_6 C 0.3163(11) 0.6417(14) 0.3341(5)
C5_6 C 0.2141(11) 0.6655(15) 0.4345(5)
H1_6 H 0.345754 0.818309 0.435602
C6_6 C 0.2163(11) 0.5490(15) 0.3532(5)
H2_6 H 0.350704 0.635708 0.300178
C7_6 C 0.1525(11) 0.6738(15) 0.4871(5)
C8_6 C 0.1644(10) 0.5631(15) 0.4039(5)
C9_6 C 0.1591(14) 0.4395(17) 0.3212(5)
H3_6 H 0.096224 0.503389 0.417118
C10_6 C 0.2035(16) 0.4252(19) 0.2688(4)
C11_6 C 0.0597(14) 0.3482(17) 0.3412(5)
H4_6 H 0.269621 0.485080 0.253946
C12_6 C 0.1513(14) 0.3236(17) 0.2383(5)
C13_6 C 0.0046(13) 0.2490(16) 0.3109(4)
H5_6 H 0.029360 0.354718 0.376627
C14_6 C 0.2048(16) 0.3128(19) 0.1843(5)
C15_6 C 0.0487(14) 0.2344(17) 0.2584(4)
H6_6 H 0.011052 0.167222 0.237445
C16_6 C 0.8938(10) 0.1568(16) 0.3330(5)
loop_
_geom_bond_atom_site_label_1
_geom_bond_atom_site_label_2
_geom_bond_site_symmetry_1
_geom_bond_site_symmetry_2
O15 C16 1_555 1_555
Dy6 O15 1_555 1_555
Dy5 O14 1_555 1_555
Dy6 O1 1_555 1_555
O2 Dy6 1_555 1_555
O3 Dy6 1_555 1_555
O4 Dy6 1_555 1_555
O5 Dy6 1_555 1_555
O6 Dy6 1_555 1_555
O7 Dy6 1_555 1_555
C10 C9 1_555 1_555
H4 C10 1_555 1_555
C12 C10 1_555 1_555
C14 C12 1_555 1_555
C15 C12 1_555 1_555
H6 C15 1_555 1_555
O12 C14 1_555 1_555
O13 C14 1_555 1_555
C13 C15 1_555 1_555
C2 C1 1_555 1_555
C3 C2 1_555 1_555
C4 C2 1_555 1_555
C5 C3 1_555 1_555
H1 C3 1_555 1_555
C6 C4 1_555 1_555
C7 C5 1_555 1_555
C8 C5 1_555 1_555
H3 C8 1_555 1_555
H5 C11 1_555 1_555
O9 C1 1_555 1_555
Dy5 O9 1_555 1_555
O10 C7 1_555 1_555
O11 C7 1_555 1_555
Dy4 O10 1_555 1_555
C6 C8 1_555 1_555
O11 Dy4 1_555 1_555
Dy6_2 O1_2 1_555 1_555
O2_2 Dy6_2 1_555 1_555
O4_2 Dy6_2 1_555 1_555
O6_2 Dy6_2 1_555 1_555
C1_2 O4_2 1_555 1_555
C2_2 C1_2 1_555 1_555
C3_2 C2_2 1_555 1_555
C4_2 C2_2 1_555 1_555
C5_2 C3_2 1_555 1_555
H1_2 C3_2 1_555 1_555
C6_2 C4_2 1_555 1_555
H2_2 C4_2 1_555 1_555
C7_2 C5_2 1_555 1_555
C8_2 C5_2 1_555 1_555
C9_2 C6_2 1_555 1_555
H3_2 C8_2 1_555 1_555
C10_2 C9_2 1_555 1_555
C11_2 C9_2 1_555 1_555
H4_2 C10_2 1_555 1_555
C12_2 C10_2 1_555 1_555
C13_2 C11_2 1_555 1_555
H5_2 C11_2 1_555 1_555
C14_2 C12_2 1_555 1_555
C15_2 C12_2 1_555 1_555
C16_2 C13_2 1_555 1_555
H6_2 C15_2 1_555 1_555
O9_2 C1_2 1_555 1_555
O2 C7_2 1_555 1_555
O1 C7_2 1_555 1_555
O12_2 C14_2 1_555 1_555
O13_2 C14_2 1_555 1_555
O14_2 C16_2 1_555 1_555
O15_2 C16_2 1_555 1_555
Dy3 O14_2 1_555 1_555
C6_2 C8_2 1_555 1_555
C13_2 C15_2 1_555 1_555
O4_3 Dy4 1_555 1_555
O6_3 Dy4 1_555 1_555
C1_3 O4_3 1_555 1_555
C2_3 C1_3 1_555 1_555
C3_3 C2_3 1_555 1_555
C4_3 C2_3 1_555 1_555
C5_3 C3_3 1_555 1_555
H1_3 C3_3 1_555 1_555
C6_3 C4_3 1_555 1_555
H2_3 C4_3 1_555 1_555
C7_3 C5_3 1_555 1_555
C8_3 C5_3 1_555 1_555
C9_3 C6_3 1_555 1_555
H3_3 C8_3 1_555 1_555
C10_3 C9_3 1_555 1_555
C11_3 C9_3 1_555 1_555
H4_3 C10_3 1_555 1_555
C12_3 C10_3 1_555 1_555
C13_3 C11_3 1_555 1_555
H5_3 C11_3 1_555 1_555
C14_3 C12_3 1_555 1_555
C15_3 C12_3 1_555 1_555
H6_3 C15_3 1_555 1_555
O9_3 C1_3 1_555 1_555
O2_2 C7_3 1_555 1_555
O1_2 C7_3 1_555 1_555
Dy5 O12_3 1_555 1_555
O12_3 C14_3 1_555 1_555
O13_3 C14_3 1_555 1_555
C6_3 C8_3 1_555 1_555
C13_3 C15_3 1_555 1_555
Dy5 O13_3 1_555 1_555
O14_3 C16_3 1_555 1_555
O8 C16_3 1_555 1_555
Dy3_2 O14_3 1_555 1_555
O15_3 C16_4 1_555 1_555
Dy5 O15_3 1_555 1_555
C2_4 C1_4 1_555 1_555
C3_4 C2_4 1_555 1_555
C4_4 C2_4 1_555 1_555
C5_4 C3_4 1_555 1_555
H1_4 C3_4 1_555 1_555
C6_4 C4_4 1_555 1_555
C7_4 C5_4 1_555 1_555
C8_4 C5_4 1_555 1_555
H3_4 C8_4 1_555 1_555
H5_4 C11_4 1_555 1_555
O7 C1_4 1_555 1_555
O10_2 C7_4 1_555 1_555
O11_2 C7_4 1_555 1_555
Dy3 O10_2 1_555 1_555
C6_4 C8_4 1_555 1_555
O11_2 Dy3 1_555 1_555
Dy5 O1_3 1_555 1_555
O2_3 Dy5 1_555 1_555
O4_4 Dy5 1_555 1_555
C10_4 C9_4 1_555 1_555
H4_4 C10_4 1_555 1_555
C12_4 C10_4 1_555 1_555
C14_4 C12_4 1_555 1_555
C15_4 C12_4 1_555 1_555
H6_4 C15_4 1_555 1_555
O3_3 C14_4 1_555 1_555
O5_3 C14_4 1_555 1_555
C13_4 C15_4 1_555 1_555
Dy3_2 O1_4 1_555 1_555
O2_4 Dy3_2 1_555 1_555
O4_5 Dy3_2 1_555 1_555
C1_5 O4_5 1_555 1_555
C2_5 C1_5 1_555 1_555
C3_5 C2_5 1_555 1_555
C4_5 C2_5 1_555 1_555
C5_5 C3_5 1_555 1_555
H1_5 C3_5 1_555 1_555
C6_5 C4_5 1_555 1_555
H2_5 C4_5 1_555 1_555
C7_5 C5_5 1_555 1_555
C8_5 C5_5 1_555 1_555
C9_5 C6_5 1_555 1_555
H3_5 C8_5 1_555 1_555
C10_5 C9_5 1_555 1_555
C11_5 C9_5 1_555 1_555
H4_5 C10_5 1_555 1_555
C12_5 C10_5 1_555 1_555
C13_5 C11_5 1_555 1_555
H5_5 C11_5 1_555 1_555
C14_5 C12_5 1_555 1_555
C15_5 C12_5 1_555 1_555
C16_5 C13_5 1_555 1_555
H6_5 C15_5 1_555 1_555
O7_3 C1_5 1_555 1_555
O2_3 C7_5 1_555 1_555
O1_3 C7_5 1_555 1_555
O3_2 C14_5 1_555 1_555
O5_2 C14_5 1_555 1_555
O6_3 C16_5 1_555 1_555
O15_4 C16_5 1_555 1_555
C6_5 C8_5 1_555 1_555
C13_5 C15_5 1_555 1_555
O4_6 Dy3 1_555 1_555
C1_6 O4_6 1_555 1_555
C2_6 C1_6 1_555 1_555
C3_6 C2_6 1_555 1_555
C4_6 C2_6 1_555 1_555
C5_6 C3_6 1_555 1_555
H1_6 C3_6 1_555 1_555
C6_6 C4_6 1_555 1_555
H2_6 C4_6 1_555 1_555
C7_6 C5_6 1_555 1_555
C8_6 C5_6 1_555 1_555
C9_6 C6_6 1_555 1_555
H3_6 C8_6 1_555 1_555
C10_6 C9_6 1_555 1_555
C11_6 C9_6 1_555 1_555
H4_6 C10_6 1_555 1_555
C12_6 C10_6 1_555 1_555
C13_6 C11_6 1_555 1_555
H5_6 C11_6 1_555 1_555
C14_6 C12_6 1_555 1_555
C15_6 C12_6 1_555 1_555
H6_6 C15_6 1_555 1_555
O7_2 C1_6 1_555 1_555
O2_4 C7_6 1_555 1_555
O1_4 C7_6 1_555 1_555
O3 C14_6 1_555 1_555
O5 C14_6 1_555 1_555
C6_6 C8_6 1_555 1_555
C13_6 C15_6 1_555 1_555
O6_2 C16_6 1_555 1_555
O8_2 C16_6 1_555 1_555

#END
