
###############################################################################
#
# This file contains modified crystal structure data generated from the
# MOF subset of the Cambridge Structural Database (CSD) v543 
# hosted by the Cambridge Crystallographic Data Centre (CCDC).
#
# This work is licensed under the Creative Commons
# Attribution-NonCommercial-ShareAlike 4.0 International License.
# To view a copy of this license, visit
# http://creativecommons.org/licenses/by-nc-sa/4.0/
# or send a letter to
# Creative Commons, PO Box 1866, Mountain View, CA 94042, USA.
#
# CIF created using the CSD Python API on 29 September 2022
# The structure has been converted into the P1 space group
# The structure has a 3D framework
# The original CSD entry VATLOV is in the trigonal crystal system
# The original CSD entry VATLOV is in a Sohncke space group
# The framework has been calculated to contain at least 10.0% void space
# The void calculation uses a probe of radius 1.32A, grid spacing 0.4
# The framework is charged, counterions have been retained in the structure
#
###############################################################################

data_VATLOV
_chemical_formula_moiety         '(C96 H36 Eu6 O44 6-)n'
_symmetry_cell_setting           triclinic
_symmetry_space_group_name_H-M   'P 1'
_symmetry_Int_Tables_number      1
_space_group_name_Hall           'P 1'
loop_
_symmetry_equiv_pos_site_id
_symmetry_equiv_pos_as_xyz
1 x,y,z
_cell_length_a                   13.819(2)
_cell_length_b                   13.819(2)
_cell_length_c                   22.950(5)
_cell_angle_alpha                90
_cell_angle_beta                 90
_cell_angle_gamma                120
_cell_volume                     3795.48
loop_
_atom_site_label
_atom_site_type_symbol
_atom_site_fract_x
_atom_site_fract_y
_atom_site_fract_z
O2 O 0.1207(4) 0.2692(5) 0.5537(2)
O3 O 0.1770(5) 0.2747(7) 0.4631(2)
C2 C 0.1048(6) 0.2627(7) 0.5001(4)
Eu2 Eu 0.33338(3) 0.30568(3) 0.41035(2)
Eu5 Eu 0.30568(3) 0.33338(3) 0.58965(2)
O1 O 0.4918(5) 0.3258(6) 0.4619(3)
O4 O 0.4790(4) 0.3950(5) 0.5481(2)
O5 O 0.8150(4) 0.5836(6) 0.6731(2)
O6 O 0.8151(6) 0.0336(6) 0.3349(2)
O7 O 0.9282(7) 0.5147(7) 0.6736(3)
C1 C 0.7962(7) 0.1099(9) 0.3520(4)
O8 O 0.7279(7) 0.1269(6) 0.3250(3)
C3 C 0.8497(7) 0.1754(8) 0.4057(4)
C4 C 0.6906(7) 0.4430(8) 0.5796(3)
H1 H 0.658794 0.479228 0.599085
C5 C 0.7894(8) 0.4529(8) 0.5994(4)
C6 C 0.9952(7) 0.2456(7) 0.4772(3)
C7 C 0.6389(7) 0.3794(7) 0.5309(4)
C8 C 0.8373(8) 0.4021(7) 0.5678(3)
H2 H 0.905418 0.411580 0.580569
C9 C 0.8477(8) 0.5213(9) 0.6523(4)
C10 C 0.9511(7) 0.1885(8) 0.4259(3)
H3 H 0.988249 0.159190 0.405086
C11 C 0.9411(7) 0.2907(9) 0.5081(4)
H4 H 0.970173 0.325843 0.543540
C12 C 0.5287(7) 0.3655(8) 0.5115(4)
C13 C 0.6880(7) 0.3280(7) 0.4999(3)
H5 H 0.652950 0.286804 0.466684
C14 C 0.8438(7) 0.2844(8) 0.4867(3)
C15 C 0.7993(9) 0.2232(8) 0.4352(4)
H6 H 0.732760 0.215179 0.420727
C16 C 0.7895(8) 0.3376(8) 0.5183(4)
Eu3 Eu 0.97230(4) 0.66662(3) 0.74368(2)
O9 O 0.2692(5) 0.1207(4) 0.4463(2)
O11 O 0.3950(5) 0.4790(4) 0.4519(2)
O12 O 0.4164(6) 0.2314(7) 0.3398(2)
O13 O 0.1849(6) 0.2185(8) 0.3318(2)
O14 O 0.4853(7) 0.4135(10) 0.3403(3)
O15 O 0.2721(7) 0.3990(9) 0.3417(3)
Eu6 Eu 0.66662(3) 0.97230(4) 0.25632(2)
Eu6_2 Eu 0.02770(4) 0.69432(5) 0.92298(2)
Eu2_2 Eu 0.69432(3) 0.02770(4) 0.07702(2)
O1_2 O 0.6742(6) 0.1660(8) 0.1286(3)
O2_2 O 0.7308(5) 0.8515(6) 0.2204(2)
O3_2 O 0.7253(7) 0.9023(9) 0.1298(2)
O4_2 O 0.6050(5) 0.0840(6) 0.2148(2)
O6_2 O 0.9664(6) 0.7815(8) 0.0016(2)
C1_2 C 0.8901(9) 0.6863(11) 0.0187(4)
C2_2 C 0.7373(7) 0.8421(9) 0.1668(4)
C3_2 C 0.8246(8) 0.6743(11) 0.0724(4)
C4_2 C 0.5570(8) 0.2476(11) 0.2463(3)
H1_2 H 0.520772 0.179566 0.265752
C5_2 C 0.5471(8) 0.3365(11) 0.2661(4)
C6_2 C 0.7544(7) 0.7496(10) 0.1439(3)
C7_2 C 0.6206(7) 0.2595(10) 0.1976(4)
C8_2 C 0.5979(7) 0.4352(11) 0.2345(3)
H2_2 H 0.588420 0.493838 0.247236
C9_2 C 0.4787(9) 0.3264(12) 0.3190(4)
C10_2 C 0.8115(8) 0.7626(11) 0.0926(3)
H3_2 H 0.840810 0.829059 0.071753
C11_2 C 0.7093(9) 0.6504(11) 0.1748(4)
H4_2 H 0.674157 0.644330 0.210207
C12_2 C 0.6345(8) 0.1632(11) 0.1782(4)
C13_2 C 0.6720(7) 0.3600(10) 0.1666(3)
H5_2 H 0.713196 0.366146 0.133351
C14_2 C 0.7156(8) 0.5594(11) 0.1534(3)
C15_2 C 0.7768(8) 0.5761(12) 0.1019(4)
H6_2 H 0.784821 0.517581 0.087394
C16_2 C 0.6624(8) 0.4519(11) 0.1850(4)
O9_2 O 0.8793(4) 0.1485(6) 0.1130(2)
O12_2 O 0.7686(7) 0.1850(9) 0.0064(2)
O14_2 O 0.5865(10) 0.0718(12) 0.0069(3)
O8_2 O 0.8731(6) 0.6010(9) 0.9917(3)
O11_2 O 0.5210(4) 0.9160(6) 0.1186(2)
O15_2 O 0.6010(9) 0.8731(11) 0.0083(3)
O13_2 O 0.7815(8) 0.9664(10) 0.9984(2)
O10 O 0.0977(9) 0.8230(5) 0.7964(2)
O11_3 O 0.0840(6) 0.6050(5) 0.7852(2)
O13_3 O 0.0336(10) 0.8151(6) 0.6651(2)
O15_3 O 0.1269(11) 0.7279(7) 0.6750(3)
O1_3 O 0.8340(8) 0.5082(5) 0.7952(3)
O4_3 O 0.9160(6) 0.5210(4) 0.8814(2)
O6_3 O 0.2185(8) 0.1849(6) 0.6682(2)
C1_3 C 0.3137(11) 0.2038(7) 0.6853(4)
O8_3 O 0.3990(9) 0.2721(7) 0.6583(3)
C3_3 C 0.3257(11) 0.1503(7) 0.7390(4)
C4_3 C 0.7524(11) 0.3094(7) 0.9129(3)
H1_3 H 0.820434 0.341206 0.932418
C5_3 C 0.6635(11) 0.2106(8) 0.9327(4)
C6_3 C 0.2504(10) 0.0048(7) 0.8105(3)
C7_3 C 0.7405(10) 0.3611(7) 0.8642(4)
C8_3 C 0.5648(11) 0.1627(8) 0.9011(3)
H2_3 H 0.506162 0.094582 0.913902
C9_3 C 0.6736(12) 0.1523(8) 0.9856(4)
C10_3 C 0.2374(11) 0.0489(7) 0.7592(3)
H3_3 H 0.170941 0.011751 0.738419
C11_3 C 0.3496(11) 0.0589(7) 0.8414(4)
H4_3 H 0.355670 0.029827 0.876873
C12_3 C 0.8368(11) 0.4713(7) 0.8448(4)
C13_3 C 0.6400(10) 0.3120(7) 0.8332(3)
H5_3 H 0.633854 0.347050 0.800017
C14_3 C 0.4406(11) 0.1562(7) 0.8200(3)
C15_3 C 0.4239(12) 0.2007(9) 0.7685(4)
H6_3 H 0.482419 0.267240 0.754060
C16_3 C 0.5481(11) 0.2105(8) 0.8516(4)
O9_3 O 0.8515(6) 0.7308(5) 0.7796(2)
O2_3 O 0.1485(6) 0.8793(4) 0.8870(2)
C2_3 C 0.1579(9) 0.8952(6) 0.8334(4)
O3_3 O 0.2747(7) 0.1770(5) 0.5369(2)
C2_4 C 0.2627(7) 0.1048(6) 0.4999(4)
O1_4 O 0.3258(6) 0.4918(5) 0.5381(3)
O5_2 O 0.5836(6) 0.8150(4) 0.3269(2)
O7_2 O 0.5147(7) 0.9282(7) 0.3264(3)
C1_4 C 0.1099(9) 0.7962(7) 0.6480(4)
C3_4 C 0.1754(8) 0.8497(7) 0.5943(4)
C4_4 C 0.4430(8) 0.6906(7) 0.4204(3)
H1_4 H 0.479228 0.658794 0.400915
C5_4 C 0.4529(8) 0.7894(8) 0.4006(4)
C6_4 C 0.2456(7) 0.9952(7) 0.5228(3)
C7_4 C 0.3794(7) 0.6389(7) 0.4691(4)
C8_4 C 0.4021(7) 0.8373(8) 0.4322(3)
H2_4 H 0.411580 0.905418 0.419431
C9_4 C 0.5213(9) 0.8477(8) 0.3477(4)
C10_4 C 0.1885(8) 0.9511(7) 0.5741(3)
H3_4 H 0.159190 0.988249 0.594914
C11_4 C 0.2907(9) 0.9411(7) 0.4919(4)
H4_4 H 0.325843 0.970173 0.456460
C12_4 C 0.3655(8) 0.5287(7) 0.4885(4)
C13_4 C 0.3280(7) 0.6880(7) 0.5001(3)
H5_4 H 0.286804 0.652950 0.533316
C14_4 C 0.2844(8) 0.8438(7) 0.5133(3)
C15_4 C 0.2232(8) 0.7993(9) 0.5648(4)
H6_4 H 0.215179 0.732760 0.579273
C16_4 C 0.3376(8) 0.7895(8) 0.4817(4)
O12_3 O 0.2314(7) 0.4164(6) 0.6602(2)
O14_3 O 0.4135(10) 0.4853(7) 0.6597(3)
O1_5 O 0.1660(8) 0.6742(6) 0.8714(3)
O3_4 O 0.9023(9) 0.7253(7) 0.8702(2)
C1_5 C 0.6863(11) 0.8901(9) 0.9813(4)
C2_5 C 0.8421(9) 0.7373(7) 0.8332(4)
C3_5 C 0.6743(11) 0.8246(8) 0.9276(4)
C4_5 C 0.2476(11) 0.5570(8) 0.7537(3)
H1_5 H 0.179566 0.520772 0.734248
C5_5 C 0.3365(11) 0.5471(8) 0.7339(4)
C6_5 C 0.7496(10) 0.7544(7) 0.8561(3)
C7_5 C 0.2595(10) 0.6206(7) 0.8024(4)
C8_5 C 0.4352(11) 0.5979(7) 0.7655(3)
H2_5 H 0.493838 0.588420 0.752764
C9_5 C 0.3264(12) 0.4787(9) 0.6810(4)
C10_5 C 0.7626(11) 0.8115(8) 0.9074(3)
H3_5 H 0.829059 0.840810 0.928247
C11_5 C 0.6504(11) 0.7093(9) 0.8252(4)
H4_5 H 0.644330 0.674157 0.789793
C12_5 C 0.1632(11) 0.6345(8) 0.8218(4)
C13_5 C 0.3600(10) 0.6720(7) 0.8334(3)
H5_5 H 0.366146 0.713196 0.866649
C14_5 C 0.5594(11) 0.7156(8) 0.8466(3)
C15_5 C 0.5761(12) 0.7768(8) 0.8981(4)
H6_5 H 0.517581 0.784821 0.912606
C16_5 C 0.4519(11) 0.6624(8) 0.8150(4)
O12_4 O 0.1850(9) 0.7686(7) 0.9936(2)
O14_4 O 0.0718(12) 0.5865(10) 0.9931(3)
O10_2 O 0.8230(5) 0.0977(9) 0.2036(2)
O1_6 O 0.5082(5) 0.8340(8) 0.2048(3)
C1_6 C 0.2038(7) 0.3137(11) 0.3147(4)
C3_6 C 0.1503(7) 0.3257(11) 0.2610(4)
C4_6 C 0.3094(7) 0.7524(11) 0.0871(3)
H1_6 H 0.341206 0.820434 0.067582
C5_6 C 0.2106(8) 0.6635(11) 0.0673(4)
C6_6 C 0.0048(7) 0.2504(10) 0.1895(3)
C7_6 C 0.3611(7) 0.7405(10) 0.1358(4)
C8_6 C 0.1627(8) 0.5648(11) 0.0989(3)
H2_6 H 0.094582 0.506162 0.086098
C9_6 C 0.1523(8) 0.6736(12) 0.0144(4)
C10_6 C 0.0489(7) 0.2374(11) 0.2408(3)
H3_6 H 0.011751 0.170941 0.261581
C11_6 C 0.0589(7) 0.3496(11) 0.1586(4)
H4_6 H 0.029827 0.355670 0.123127
C12_6 C 0.4713(7) 0.8368(11) 0.1552(4)
C13_6 C 0.3120(7) 0.6400(10) 0.1668(3)
H5_6 H 0.347050 0.633854 0.199983
C14_6 C 0.1562(7) 0.4406(11) 0.1800(3)
C15_6 C 0.2007(9) 0.4239(12) 0.2315(4)
H6_6 H 0.267240 0.482419 0.245940
C16_6 C 0.2105(8) 0.5481(11) 0.1484(4)
C2_6 C 0.8952(6) 0.1579(9) 0.1666(4)
loop_
_geom_bond_atom_site_label_1
_geom_bond_atom_site_label_2
_geom_bond_site_symmetry_1
_geom_bond_site_symmetry_2
O2 C2 1_555 1_555
O3 C2 1_555 1_555
Eu2 O3 1_555 1_555
Eu5 O2 1_555 1_555
Eu2 O1 1_555 1_555
O1 C12 1_555 1_555
O4 C12 1_555 1_555
O5 C9 1_555 1_555
O6 C1 1_555 1_555
O7 C9 1_555 1_555
C1 O8 1_555 1_555
C3 C1 1_555 1_555
C4 H1 1_555 1_555
C5 C4 1_555 1_555
C6 C10 1_555 1_555
C7 C4 1_555 1_555
C8 C5 1_555 1_555
H2 C8 1_555 1_555
C9 C5 1_555 1_555
C10 C3 1_555 1_555
H3 C10 1_555 1_555
C11 C6 1_555 1_555
H4 C11 1_555 1_555
C12 C7 1_555 1_555
C13 C7 1_555 1_555
H5 C13 1_555 1_555
C14 C11 1_555 1_555
C15 C3 1_555 1_555
H6 C15 1_555 1_555
C16 C8 1_555 1_555
Eu3 O5 1_555 1_555
Eu5 O4 1_555 1_555
O9 Eu2 1_555 1_555
O11 Eu2 1_555 1_555
O12 Eu2 1_555 1_555
O13 Eu2 1_555 1_555
O14 Eu2 1_555 1_555
O15 Eu2 1_555 1_555
O7 Eu3 1_555 1_555
C13 C16 1_555 1_555
C14 C15 1_555 1_555
C14 C16 1_555 1_555
Eu2_2 O1_2 1_555 1_555
O1_2 C12_2 1_555 1_555
O2_2 C2_2 1_555 1_555
O3_2 C2_2 1_555 1_555
O4_2 C12_2 1_555 1_555
O12 C9_2 1_555 1_555
O6_2 C1_2 1_555 1_555
O14 C9_2 1_555 1_555
C2_2 C6_2 1_555 1_555
C3_2 C1_2 1_555 1_555
C4_2 H1_2 1_555 1_555
C5_2 C4_2 1_555 1_555
C6_2 C10_2 1_555 1_555
C7_2 C4_2 1_555 1_555
C8_2 C5_2 1_555 1_555
H2_2 C8_2 1_555 1_555
C9_2 C5_2 1_555 1_555
C10_2 C3_2 1_555 1_555
H3_2 C10_2 1_555 1_555
C11_2 C6_2 1_555 1_555
H4_2 C11_2 1_555 1_555
C12_2 C7_2 1_555 1_555
C13_2 C7_2 1_555 1_555
H5_2 C13_2 1_555 1_555
C14_2 C11_2 1_555 1_555
C15_2 C3_2 1_555 1_555
H6_2 C15_2 1_555 1_555
C16_2 C8_2 1_555 1_555
Eu6 O2_2 1_555 1_555
O9_2 Eu2_2 1_555 1_555
O12_2 Eu2_2 1_555 1_555
O14_2 Eu2_2 1_555 1_555
C13_2 C16_2 1_555 1_555
C14_2 C15_2 1_555 1_555
C14_2 C16_2 1_555 1_555
Eu3 O1_3 1_555 1_555
O1_3 C12_3 1_555 1_555
O4_3 C12_3 1_555 1_555
O6_3 C1_3 1_555 1_555
C1_3 O8_3 1_555 1_555
O8_3 Eu5 1_555 1_555
C3_3 C1_3 1_555 1_555
C4_3 H1_3 1_555 1_555
C5_3 C4_3 1_555 1_555
C6_3 C10_3 1_555 1_555
C7_3 C4_3 1_555 1_555
C8_3 C5_3 1_555 1_555
H2_3 C8_3 1_555 1_555
C9_3 C5_3 1_555 1_555
C10_3 C3_3 1_555 1_555
H3_3 C10_3 1_555 1_555
C11_3 C6_3 1_555 1_555
H4_3 C11_3 1_555 1_555
C12_3 C7_3 1_555 1_555
C13_3 C7_3 1_555 1_555
H5_3 C13_3 1_555 1_555
C14_3 C11_3 1_555 1_555
C15_3 C3_3 1_555 1_555
H6_3 C15_3 1_555 1_555
C16_3 C8_3 1_555 1_555
Eu5 O6_3 1_555 1_555
O9_3 Eu3 1_555 1_555
C13_3 C16_3 1_555 1_555
C14_3 C15_3 1_555 1_555
C14_3 C16_3 1_555 1_555
O2_3 C2_3 1_555 1_555
O10 C2_3 1_555 1_555
Eu6_2 O2_3 1_555 1_555
O9 C2_4 1_555 1_555
O3_3 C2_4 1_555 1_555
Eu5 O3_3 1_555 1_555
Eu5 O1_4 1_555 1_555
O1_4 C12_4 1_555 1_555
O11 C12_4 1_555 1_555
O5_2 C9_4 1_555 1_555
O13_3 C1_4 1_555 1_555
O7_2 C9_4 1_555 1_555
C1_4 O15_3 1_555 1_555
C3_4 C1_4 1_555 1_555
C4_4 H1_4 1_555 1_555
C5_4 C4_4 1_555 1_555
C6_4 C10_4 1_555 1_555
C7_4 C4_4 1_555 1_555
C8_4 C5_4 1_555 1_555
H2_4 C8_4 1_555 1_555
C9_4 C5_4 1_555 1_555
C10_4 C3_4 1_555 1_555
H3_4 C10_4 1_555 1_555
C11_4 C6_4 1_555 1_555
H4_4 C11_4 1_555 1_555
C12_4 C7_4 1_555 1_555
C13_4 C7_4 1_555 1_555
H5_4 C13_4 1_555 1_555
C14_4 C11_4 1_555 1_555
C15_4 C3_4 1_555 1_555
H6_4 C15_4 1_555 1_555
C16_4 C8_4 1_555 1_555
Eu6 O5_2 1_555 1_555
O12_3 Eu5 1_555 1_555
O14_3 Eu5 1_555 1_555
O7_2 Eu6 1_555 1_555
C13_4 C16_4 1_555 1_555
C14_4 C15_4 1_555 1_555
C14_4 C16_4 1_555 1_555
Eu6_2 O1_5 1_555 1_555
O1_5 C12_5 1_555 1_555
O9_3 C2_5 1_555 1_555
O3_4 C2_5 1_555 1_555
O11_3 C12_5 1_555 1_555
O12_3 C9_5 1_555 1_555
O13_2 C1_5 1_555 1_555
O14_3 C9_5 1_555 1_555
C2_5 C6_5 1_555 1_555
C3_5 C1_5 1_555 1_555
C4_5 H1_5 1_555 1_555
C5_5 C4_5 1_555 1_555
C6_5 C10_5 1_555 1_555
C7_5 C4_5 1_555 1_555
C8_5 C5_5 1_555 1_555
H2_5 C8_5 1_555 1_555
C9_5 C5_5 1_555 1_555
C10_5 C3_5 1_555 1_555
H3_5 C10_5 1_555 1_555
C11_5 C6_5 1_555 1_555
H4_5 C11_5 1_555 1_555
C12_5 C7_5 1_555 1_555
C13_5 C7_5 1_555 1_555
H5_5 C13_5 1_555 1_555
C14_5 C11_5 1_555 1_555
C15_5 C3_5 1_555 1_555
H6_5 C15_5 1_555 1_555
C16_5 C8_5 1_555 1_555
O12_4 Eu6_2 1_555 1_555
O14_4 Eu6_2 1_555 1_555
C13_5 C16_5 1_555 1_555
C14_5 C15_5 1_555 1_555
C14_5 C16_5 1_555 1_555
Eu6 O1_6 1_555 1_555
O1_6 C12_6 1_555 1_555
O11_2 C12_6 1_555 1_555
O13 C1_6 1_555 1_555
C1_6 O15 1_555 1_555
C3_6 C1_6 1_555 1_555
C4_6 H1_6 1_555 1_555
C5_6 C4_6 1_555 1_555
C6_6 C10_6 1_555 1_555
C7_6 C4_6 1_555 1_555
C8_6 C5_6 1_555 1_555
H2_6 C8_6 1_555 1_555
C9_6 C5_6 1_555 1_555
C10_6 C3_6 1_555 1_555
H3_6 C10_6 1_555 1_555
C11_6 C6_6 1_555 1_555
H4_6 C11_6 1_555 1_555
C12_6 C7_6 1_555 1_555
C13_6 C7_6 1_555 1_555
H5_6 C13_6 1_555 1_555
C14_6 C11_6 1_555 1_555
C15_6 C3_6 1_555 1_555
H6_6 C15_6 1_555 1_555
C16_6 C8_6 1_555 1_555
C13_6 C16_6 1_555 1_555
C14_6 C15_6 1_555 1_555
C14_6 C16_6 1_555 1_555
O9_2 C2_6 1_555 1_555
O10_2 C2_6 1_555 1_555

#END
