
###############################################################################
#
# This file contains modified crystal structure data generated from the
# MOF subset of the Cambridge Structural Database (CSD) v543 
# hosted by the Cambridge Crystallographic Data Centre (CCDC).
#
# This work is licensed under the Creative Commons
# Attribution-NonCommercial-ShareAlike 4.0 International License.
# To view a copy of this license, visit
# http://creativecommons.org/licenses/by-nc-sa/4.0/
# or send a letter to
# Creative Commons, PO Box 1866, Mountain View, CA 94042, USA.
#
# CIF created using the CSD Python API on 29 September 2022
# The structure has been converted into the P1 space group
# The structure has a 3D framework
# The original CSD entry VATMAI is in the trigonal crystal system
# The original CSD entry VATMAI is in a Sohncke space group
# The framework has been calculated to contain at least 10.0% void space
# The void calculation uses a probe of radius 1.32A, grid spacing 0.4
# The framework is charged, counterions have been retained in the structure
#
###############################################################################

data_VATMAI
_chemical_formula_moiety         '(C96 H36 O46 Tm6 4-)n'
_symmetry_cell_setting           triclinic
_symmetry_space_group_name_H-M   'P 1'
_symmetry_Int_Tables_number      1
_space_group_name_Hall           'P 1'
loop_
_symmetry_equiv_pos_site_id
_symmetry_equiv_pos_as_xyz
1 x,y,z
_cell_length_a                   13.6120(14)
_cell_length_b                   13.6120(14)
_cell_length_c                   22.641(2)
_cell_angle_alpha                90
_cell_angle_beta                 90
_cell_angle_gamma                120
_cell_volume                     3633.04
loop_
_atom_site_label
_atom_site_type_symbol
_atom_site_fract_x
_atom_site_fract_y
_atom_site_fract_z
Tm2 Tm 0.33408(4) 0.02899(4) 0.24393(2)
O4 O 0.1797(11) 0.9057(8) 0.2942(3)
O5 O 0.1242(9) 0.8563(6) 0.3870(3)
C1 C 0.1086(13) 0.8446(9) 0.3326(5)
Tm5 Tm 0.30509(6) 0.97101(4) 0.42274(2)
O1 O 0.4869(7) 0.1624(7) 0.2956(3)
O2 O 0.4761(5) 0.0785(6) 0.3825(3)
O3 O 0.8130(6) 0.2304(8) 0.5104(3)
O6 O 0.7316(9) 0.6000(8) 0.1536(4)
O7 O 0.8057(8) 0.7828(7) 0.1674(3)
C2 C 0.7947(10) 0.6891(11) 0.1839(5)
C3 C 0.6338(9) 0.2574(9) 0.3656(4)
O8 O 0.9315(8) 0.4110(8) 0.5080(4)
C4 C 0.8479(10) 0.6779(10) 0.2387(5)
C5 C 0.6846(9) 0.2476(10) 0.4161(5)
H1 H 0.650461 0.179640 0.436908
C6 C 0.9422(10) 0.6536(11) 0.3419(5)
H2 H 0.973682 0.646535 0.377017
C7 C 0.9510(9) 0.7675(10) 0.2579(5)
H3 H 0.988869 0.834360 0.236281
C8 C 0.9961(9) 0.7541(9) 0.3109(4)
C9 C 0.8466(10) 0.3262(10) 0.4887(4)
C10 C 0.8046(9) 0.5827(10) 0.2698(5)
H4 H 0.740240 0.521494 0.253685
C11 C 0.6827(10) 0.3580(10) 0.3344(5)
H5 H 0.648019 0.363774 0.300225
C12 C 0.8401(9) 0.5616(10) 0.3212(5)
C13 C 0.7831(10) 0.4506(10) 0.3536(5)
C14 C 0.5246(9) 0.1595(9) 0.3463(4)
C15 C 0.8368(11) 0.4415(11) 0.4052(5)
H6 H 0.904407 0.502469 0.418723
C16 C 0.7837(10) 0.3355(10) 0.4359(5)
Tm3 Tm 0.97101(4) 0.30509(6) 0.57726(2)
Tm6 Tm 0.66592(4) 0.69491(6) 0.08940(2)
O10 O 0.4174(10) 0.1870(6) 0.1771(3)
O12 O 0.2679(11) 0.1437(6) 0.2797(3)
O15 O 0.4795(11) 0.0685(8) 0.1747(4)
O9 O 0.3976(8) 0.9215(6) 0.2842(3)
O13 O 0.2684(9) 0.8684(12) 0.1797(4)
O14 O 0.1943(8) 0.9771(11) 0.1659(3)
Tm4 Tm 0.02899(4) 0.33408(7) 0.75607(2)
O9_2 O 0.0785(6) 0.4761(10) 0.6175(3)
O11 O 0.0943(8) 0.2740(14) 0.6275(3)
O13_2 O 0.1316(12) 0.4000(15) 0.5131(4)
O14_2 O 0.0229(11) 0.2172(14) 0.4993(3)
O1_2 O 0.8376(7) 0.3245(10) 0.6289(3)
O2_2 O 0.9215(6) 0.3976(8) 0.7158(3)
O3_2 O 0.7696(8) 0.5826(10) 0.8437(3)
O5_2 O 0.1437(6) 0.2679(11) 0.7203(3)
C1_2 C 0.1554(9) 0.2640(16) 0.6659(5)
O6_2 O 0.4000(8) 0.1316(12) 0.4869(4)
O7_2 O 0.2172(7) 0.0229(11) 0.5007(3)
C2_2 C 0.3109(11) 0.1056(15) 0.5172(5)
C3_2 C 0.7426(9) 0.3764(13) 0.6989(4)
O8_2 O 0.5890(8) 0.5205(11) 0.8413(4)
C4_2 C 0.3221(10) 0.1700(14) 0.5720(5)
C5_2 C 0.7524(10) 0.4370(13) 0.7494(5)
H1_2 H 0.820360 0.470821 0.770241
C6_2 C 0.3464(11) 0.2886(15) 0.6752(5)
H2_2 H 0.353465 0.327147 0.710350
C7_2 C 0.2325(10) 0.1835(13) 0.5912(5)
H3_2 H 0.165640 0.154509 0.569614
C8_2 C 0.2459(9) 0.2420(13) 0.6442(4)
C9_2 C 0.6738(10) 0.5204(14) 0.8220(4)
C10_2 C 0.4173(10) 0.2219(13) 0.6031(5)
H4_2 H 0.478506 0.218746 0.587018
C11_2 C 0.6420(10) 0.3247(14) 0.6677(5)
H5_2 H 0.636226 0.284245 0.633558
C12_2 C 0.4384(10) 0.2785(13) 0.6545(5)
C13_2 C 0.5494(10) 0.3325(14) 0.6869(5)
C14_2 C 0.8405(9) 0.3651(13) 0.6796(4)
C15_2 C 0.5585(11) 0.3953(16) 0.7385(5)
H6_2 H 0.497531 0.401938 0.752056
C16_2 C 0.6645(10) 0.4482(14) 0.7692(5)
Tm3_2 Tm 0.69491(6) 0.66592(7) 0.91060(2)
O12_2 O 0.8563(6) 0.1242(13) 0.6130(3)
O2_3 O 0.6024(8) 0.5239(5) 0.0492(3)
C3_3 C 0.6236(13) 0.3662(9) 0.0323(4)
C5_3 C 0.5630(13) 0.3154(9) 0.0828(5)
H1_3 H 0.529179 0.349539 0.103575
C6_3 C 0.7114(15) 0.0578(10) 0.0086(5)
H2_3 H 0.672853 0.026318 0.043684
C9_3 C 0.4796(14) 0.1534(10) 0.1554(4)
C11_3 C 0.6753(14) 0.3173(10) 0.0011(5)
C13_3 C 0.6675(14) 0.2169(10) 0.0203(5)
C14_3 C 0.6349(13) 0.4754(9) 0.0130(4)
C15_3 C 0.6047(16) 0.1632(11) 0.0719(5)
H6_3 H 0.598062 0.095593 0.085390
C16_3 C 0.5518(14) 0.2163(10) 0.1026(5)
O1_3 O 0.6755(10) 0.5131(7) 0.9623(3)
O6_3 O 0.8684(12) 0.2684(9) 0.8203(4)
O7_3 O 0.9771(11) 0.1943(8) 0.8341(3)
C2_3 C 0.8944(15) 0.2053(10) 0.8506(5)
C4_3 C 0.8300(14) 0.1521(10) 0.9054(5)
C7_3 C 0.8165(13) 0.0490(9) 0.9246(5)
H3_3 H 0.845491 0.011131 0.902948
C8_3 C 0.7580(13) 0.0039(9) 0.9776(4)
C10_3 C 0.7781(13) 0.1954(9) 0.9365(5)
H4_3 H 0.781254 0.259760 0.920352
H5_3 H 0.715755 0.351981 0.966892
C12_3 C 0.7215(13) 0.1599(9) 0.9879(5)
O9_3 O 0.5239(10) 0.6024(8) 0.9508(3)
O11_2 O 0.7260(14) 0.8203(11) 0.9609(3)
O12_3 O 0.8758(13) 0.7321(11) 0.9463(3)
O13_3 O 0.6000(15) 0.7316(9) 0.8464(4)
O14_3 O 0.7828(14) 0.8057(8) 0.8326(3)
O5_3 O 0.7321(11) 0.8758(9) 0.0537(3)
C1_3 C 0.7360(16) 0.8914(13) 0.9993(5)
O11_3 O 0.2740(14) 0.0943(8) 0.3725(3)
O1_4 O 0.3245(10) 0.8376(7) 0.3711(3)
O3_3 O 0.5826(10) 0.7696(8) 0.1563(3)
C1_4 C 0.2640(16) 0.1554(9) 0.3341(5)
C2_4 C 0.1056(15) 0.3109(11) 0.4828(5)
C3_4 C 0.3764(13) 0.7426(9) 0.3011(4)
O8_3 O 0.5205(11) 0.5890(8) 0.1587(4)
C4_4 C 0.1700(14) 0.3221(10) 0.4280(5)
C5_4 C 0.4370(13) 0.7524(10) 0.2506(5)
H1_4 H 0.470821 0.820360 0.229759
C6_4 C 0.2886(15) 0.3464(11) 0.3248(5)
H2_4 H 0.327147 0.353465 0.289650
C7_4 C 0.1835(13) 0.2325(10) 0.4088(5)
H3_4 H 0.154509 0.165640 0.430386
C8_4 C 0.2420(13) 0.2459(9) 0.3558(4)
C9_4 C 0.5204(14) 0.6738(10) 0.1780(4)
C10_4 C 0.2219(13) 0.4173(10) 0.3969(5)
H4_4 H 0.218746 0.478506 0.412982
C11_4 C 0.3247(14) 0.6420(10) 0.3323(5)
H5_4 H 0.284245 0.636226 0.366442
C12_4 C 0.2785(13) 0.4384(10) 0.3455(5)
C13_4 C 0.3325(14) 0.5494(10) 0.3131(5)
C14_4 C 0.3651(13) 0.8405(9) 0.3204(4)
C15_4 C 0.3953(16) 0.5585(11) 0.2615(5)
H6_4 H 0.401938 0.497531 0.247944
C16_4 C 0.4482(14) 0.6645(10) 0.2308(5)
O10_2 O 0.2304(12) 0.8130(6) 0.4896(3)
O15_2 O 0.4110(14) 0.9315(8) 0.4920(4)
O1_5 O 0.5131(7) 0.6755(10) 0.0377(3)
C2_5 C 0.2053(10) 0.8944(15) 0.1494(5)
C4_5 C 0.1521(10) 0.8300(14) 0.0946(5)
C7_5 C 0.0490(9) 0.8165(13) 0.0754(5)
H3_5 H 0.011131 0.845491 0.097052
C8_5 C 0.0039(9) 0.7580(13) 0.0224(4)
C10_5 C 0.1954(9) 0.7781(13) 0.0635(5)
H4_5 H 0.259760 0.781254 0.079648
H5_5 H 0.351981 0.715755 0.033108
C12_5 C 0.1599(9) 0.7215(13) 0.0121(5)
O11_4 O 0.8203(11) 0.7260(14) 0.0391(3)
O3_4 O 0.1870(6) 0.4174(10) 0.8229(3)
C3_5 C 0.3662(9) 0.6236(13) 0.9677(4)
O8_4 O 0.0685(8) 0.4795(11) 0.8253(4)
C5_5 C 0.3154(9) 0.5630(13) 0.9172(5)
H1_5 H 0.349539 0.529179 0.896425
C6_5 C 0.0578(10) 0.7114(15) 0.9914(5)
H2_5 H 0.026318 0.672853 0.956316
C9_5 C 0.1534(10) 0.4796(14) 0.8446(4)
C11_5 C 0.3173(10) 0.6753(14) 0.9989(5)
C13_5 C 0.2169(10) 0.6675(14) 0.9797(5)
C14_5 C 0.4754(9) 0.6349(13) 0.9870(4)
C15_5 C 0.1632(11) 0.6047(16) 0.9281(5)
H6_5 H 0.095593 0.598062 0.914610
C16_5 C 0.2163(10) 0.5518(14) 0.8974(5)
C1_5 C 0.8914(13) 0.7360(16) 0.0007(5)
O4_2 O 0.9057(8) 0.1797(11) 0.7058(3)
C1_6 C 0.8446(9) 0.1086(13) 0.6674(5)
O1_6 O 0.1624(7) 0.4869(7) 0.7044(3)
C2_6 C 0.6891(11) 0.7947(10) 0.8161(5)
C3_6 C 0.2574(9) 0.6338(9) 0.6344(4)
C4_6 C 0.6779(10) 0.8479(10) 0.7613(5)
C5_6 C 0.2476(10) 0.6846(9) 0.5839(5)
H1_6 H 0.179640 0.650461 0.563092
C6_6 C 0.6536(11) 0.9422(10) 0.6581(5)
H2_6 H 0.646535 0.973682 0.622983
C7_6 C 0.7675(10) 0.9510(9) 0.7421(5)
H3_6 H 0.834360 0.988869 0.763719
C8_6 C 0.7541(9) 0.9961(9) 0.6891(4)
C9_6 C 0.3262(10) 0.8466(10) 0.5113(4)
C10_6 C 0.5827(10) 0.8046(9) 0.7302(5)
H4_6 H 0.521494 0.740240 0.746315
C11_6 C 0.3580(10) 0.6827(10) 0.6656(5)
H5_6 H 0.363774 0.648019 0.699775
C12_6 C 0.5616(10) 0.8401(9) 0.6788(5)
C13_6 C 0.4506(10) 0.7831(10) 0.6464(5)
C14_6 C 0.1595(9) 0.5246(9) 0.6537(4)
C15_6 C 0.4415(11) 0.8368(11) 0.5948(5)
H6_6 H 0.502469 0.904407 0.581277
C16_6 C 0.3355(10) 0.7837(10) 0.5641(5)
loop_
_geom_bond_atom_site_label_1
_geom_bond_atom_site_label_2
_geom_bond_site_symmetry_1
_geom_bond_site_symmetry_2
O4 C1 1_555 1_555
O5 C1 1_555 1_555
Tm5 O5 1_555 1_555
Tm2 O1 1_555 1_555
O1 C14 1_555 1_555
O2 C14 1_555 1_555
O3 C9 1_555 1_555
O6 C2 1_555 1_555
O7 C2 1_555 1_555
C2 C4 1_555 1_555
C3 C5 1_555 1_555
O8 C9 1_555 1_555
C4 C7 1_555 1_555
C5 H1 1_555 1_555
C6 H2 1_555 1_555
C7 H3 1_555 1_555
C8 C6 1_555 1_555
C9 C16 1_555 1_555
C10 C4 1_555 1_555
H4 C10 1_555 1_555
C11 C3 1_555 1_555
H5 C11 1_555 1_555
C12 C6 1_555 1_555
C13 C11 1_555 1_555
C14 C3 1_555 1_555
C15 C13 1_555 1_555
H6 C15 1_555 1_555
C16 C5 1_555 1_555
Tm3 O3 1_555 1_555
Tm6 O6 1_555 1_555
O10 Tm2 1_555 1_555
O12 Tm2 1_555 1_555
O15 Tm2 1_555 1_555
O7 Tm6 1_555 1_555
O8 Tm3 1_555 1_555
C7 C8 1_555 1_555
C10 C12 1_555 1_555
C12 C13 1_555 1_555
C15 C16 1_555 1_555
Tm3 O1_2 1_555 1_555
O1_2 C14_2 1_555 1_555
O2_2 C14_2 1_555 1_555
O3_2 C9_2 1_555 1_555
O11 C1_2 1_555 1_555
O5_2 C1_2 1_555 1_555
C1_2 C8_2 1_555 1_555
O6_2 C2_2 1_555 1_555
O7_2 C2_2 1_555 1_555
C2_2 C4_2 1_555 1_555
C3_2 C5_2 1_555 1_555
O8_2 C9_2 1_555 1_555
C4_2 C7_2 1_555 1_555
C5_2 H1_2 1_555 1_555
C6_2 H2_2 1_555 1_555
C7_2 H3_2 1_555 1_555
C8_2 C6_2 1_555 1_555
C9_2 C16_2 1_555 1_555
C10_2 C4_2 1_555 1_555
H4_2 C10_2 1_555 1_555
C11_2 C3_2 1_555 1_555
H5_2 C11_2 1_555 1_555
C12_2 C6_2 1_555 1_555
C13_2 C11_2 1_555 1_555
C14_2 C3_2 1_555 1_555
C15_2 C13_2 1_555 1_555
H6_2 C15_2 1_555 1_555
C16_2 C5_2 1_555 1_555
Tm3_2 O3_2 1_555 1_555
Tm4 O5_2 1_555 1_555
O12_2 Tm3 1_555 1_555
O8_2 Tm3_2 1_555 1_555
C7_2 C8_2 1_555 1_555
C10_2 C12_2 1_555 1_555
C12_2 C13_2 1_555 1_555
C15_2 C16_2 1_555 1_555
O2_3 C14_3 1_555 1_555
O10 C9_3 1_555 1_555
C3_3 C5_3 1_555 1_555
O15 C9_3 1_555 1_555
C5_3 H1_3 1_555 1_555
C6_3 H2_3 1_555 1_555
C9_3 C16_3 1_555 1_555
C11_3 C3_3 1_555 1_555
C13_3 C11_3 1_555 1_555
C14_3 C3_3 1_555 1_555
C15_3 C13_3 1_555 1_555
H6_3 C15_3 1_555 1_555
C16_3 C5_3 1_555 1_555
Tm6 O2_3 1_555 1_555
C15_3 C16_3 1_555 1_555
Tm3_2 O1_3 1_555 1_555
O6_3 C2_3 1_555 1_555
O7_3 C2_3 1_555 1_555
C2_3 C4_3 1_555 1_555
C4_3 C7_3 1_555 1_555
C7_3 H3_3 1_555 1_555
C10_3 C4_3 1_555 1_555
H4_3 C10_3 1_555 1_555
O9_3 Tm3_2 1_555 1_555
O11_2 Tm3_2 1_555 1_555
O12_3 Tm3_2 1_555 1_555
O13_3 Tm3_2 1_555 1_555
O14_3 Tm3_2 1_555 1_555
C7_3 C8_3 1_555 1_555
C10_3 C12_3 1_555 1_555
Tm6 O5_3 1_555 1_555
O11_2 C1_3 1_555 1_555
Tm5 O1_4 1_555 1_555
O1_4 C14_4 1_555 1_555
O9 C14_4 1_555 1_555
O3_3 C9_4 1_555 1_555
O11_3 C1_4 1_555 1_555
O12 C1_4 1_555 1_555
C1_4 C8_4 1_555 1_555
O13_2 C2_4 1_555 1_555
O14_2 C2_4 1_555 1_555
C2_4 C4_4 1_555 1_555
C3_4 C5_4 1_555 1_555
O8_3 C9_4 1_555 1_555
C4_4 C7_4 1_555 1_555
C5_4 H1_4 1_555 1_555
C6_4 H2_4 1_555 1_555
C7_4 H3_4 1_555 1_555
C8_4 C6_4 1_555 1_555
C9_4 C16_4 1_555 1_555
C10_4 C4_4 1_555 1_555
H4_4 C10_4 1_555 1_555
C11_4 C3_4 1_555 1_555
H5_4 C11_4 1_555 1_555
C12_4 C6_4 1_555 1_555
C13_4 C11_4 1_555 1_555
C14_4 C3_4 1_555 1_555
C15_4 C13_4 1_555 1_555
H6_4 C15_4 1_555 1_555
C16_4 C5_4 1_555 1_555
Tm6 O3_3 1_555 1_555
O10_2 Tm5 1_555 1_555
O15_2 Tm5 1_555 1_555
O8_3 Tm6 1_555 1_555
C7_4 C8_4 1_555 1_555
C10_4 C12_4 1_555 1_555
C12_4 C13_4 1_555 1_555
C15_4 C16_4 1_555 1_555
Tm6 O1_5 1_555 1_555
O13 C2_5 1_555 1_555
O14 C2_5 1_555 1_555
C2_5 C4_5 1_555 1_555
C4_5 C7_5 1_555 1_555
C7_5 H3_5 1_555 1_555
C10_5 C4_5 1_555 1_555
H4_5 C10_5 1_555 1_555
O11_4 Tm6 1_555 1_555
C7_5 C8_5 1_555 1_555
C10_5 C12_5 1_555 1_555
O9_3 C14_5 1_555 1_555
O3_4 C9_5 1_555 1_555
C3_5 C5_5 1_555 1_555
O8_4 C9_5 1_555 1_555
C5_5 H1_5 1_555 1_555
C6_5 H2_5 1_555 1_555
C9_5 C16_5 1_555 1_555
C11_5 C3_5 1_555 1_555
C13_5 C11_5 1_555 1_555
C14_5 C3_5 1_555 1_555
C15_5 C13_5 1_555 1_555
H6_5 C15_5 1_555 1_555
C16_5 C5_5 1_555 1_555
Tm4 O3_4 1_555 1_555
O8_4 Tm4 1_555 1_555
C15_5 C16_5 1_555 1_555
O11_4 C1_5 1_555 1_555
O4_2 C1_6 1_555 1_555
O12_2 C1_6 1_555 1_555
Tm4 O1_6 1_555 1_555
O1_6 C14_6 1_555 1_555
O9_2 C14_6 1_555 1_555
O10_2 C9_6 1_555 1_555
O13_3 C2_6 1_555 1_555
O14_3 C2_6 1_555 1_555
C2_6 C4_6 1_555 1_555
C3_6 C5_6 1_555 1_555
O15_2 C9_6 1_555 1_555
C4_6 C7_6 1_555 1_555
C5_6 H1_6 1_555 1_555
C6_6 H2_6 1_555 1_555
C7_6 H3_6 1_555 1_555
C8_6 C6_6 1_555 1_555
C9_6 C16_6 1_555 1_555
C10_6 C4_6 1_555 1_555
H4_6 C10_6 1_555 1_555
C11_6 C3_6 1_555 1_555
H5_6 C11_6 1_555 1_555
C12_6 C6_6 1_555 1_555
C13_6 C11_6 1_555 1_555
C14_6 C3_6 1_555 1_555
C15_6 C13_6 1_555 1_555
H6_6 C15_6 1_555 1_555
C16_6 C5_6 1_555 1_555
C7_6 C8_6 1_555 1_555
C10_6 C12_6 1_555 1_555
C12_6 C13_6 1_555 1_555
C15_6 C16_6 1_555 1_555

#END
