
###############################################################################
#
# This file contains modified crystal structure data generated from the
# MOF subset of the Cambridge Structural Database (CSD) v543 
# hosted by the Cambridge Crystallographic Data Centre (CCDC).
#
# This work is licensed under the Creative Commons
# Attribution-NonCommercial-ShareAlike 4.0 International License.
# To view a copy of this license, visit
# http://creativecommons.org/licenses/by-nc-sa/4.0/
# or send a letter to
# Creative Commons, PO Box 1866, Mountain View, CA 94042, USA.
#
# CIF created using the CSD Python API on 29 September 2022
# The structure has been converted into the P1 space group
# The structure has a 3D framework
# The original CSD entry VATMIQ is in the trigonal crystal system
# The original CSD entry VATMIQ is in a Sohncke space group
# The framework has been calculated to contain at least 10.0% void space
# The void calculation uses a probe of radius 1.32A, grid spacing 0.4
# The framework is charged, counterions have been retained in the structure
# H atom positions have been added when not included in the experimental data
#
###############################################################################

data_VATMIQ
_chemical_formula_moiety         '(C96 H36 Er6 O46 6-)n'
_symmetry_cell_setting           triclinic
_symmetry_space_group_name_H-M   'P 1'
_symmetry_Int_Tables_number      1
_space_group_name_Hall           'P 1'
loop_
_symmetry_equiv_pos_site_id
_symmetry_equiv_pos_as_xyz
1 x,y,z
_cell_length_a                   13.7040(12)
_cell_length_b                   13.7040(12)
_cell_length_c                   22.762(2)
_cell_angle_alpha                90
_cell_angle_beta                 90
_cell_angle_gamma                120
_cell_volume                     3701.99
loop_
_atom_site_label
_atom_site_type_symbol
_atom_site_fract_x
_atom_site_fract_y
_atom_site_fract_z
Er6 Er 0.33353(3) 0.02841(4) 0.74382(2)
Er1 Er 0.66647(3) 0.69488(3) 0.58951(2)
O1 O 0.5133(6) 0.6781(6) 0.5370(3)
O2 O 0.5246(5) 0.6029(5) 0.4514(2)
O3 O 0.1870(6) 0.9717(6) 0.6667(3)
O4 O 0.1834(5) 0.4129(7) 0.3257(3)
O5 O 0.2764(7) 0.8776(8) 0.6755(4)
C1 C 0.3134(8) 0.5602(9) 0.4189(4)
H1 H 0.346632 0.526014 0.398085
C3 C 0.1509(9) 0.8293(9) 0.5944(4)
C4 C 0.1584(9) 0.5984(9) 0.4305(4)
C5 C 0.3653(8) 0.6226(8) 0.4683(4)
C6 C 0.2050(8) 0.8959(9) 0.6495(5)
C7 C 0.2126(9) 0.5482(10) 0.4000(5)
O6 O 0.0751(7) 0.4859(8) 0.3234(3)
C8 C 0.0480(8) 0.8142(9) 0.5751(4)
H2 H 0.010068 0.842872 0.596413
C9 C 0.1583(8) 0.7178(10) 0.5126(4)
C10 C 0.1530(9) 0.4777(10) 0.3462(4)
C11 C 0.0029(8) 0.7551(9) 0.5228(4)
C12 C 0.0584(8) 0.7105(10) 0.4920(4)
H3 H 0.028487 0.674400 0.456460
C13 C 0.3154(8) 0.6743(9) 0.5000(4)
C14 C 0.1968(8) 0.7778(8) 0.5640(4)
H4 H 0.262203 0.783496 0.579616
C15 C 0.4754(8) 0.6353(8) 0.4874(3)
C16 C 0.2128(8) 0.6616(9) 0.4809(4)
Er3 Er 0.02841(4) 0.33353(3) 0.25618(2)
Er5 Er 0.69488(3) 0.66647(3) 0.41049(2)
O9 O 0.6029(5) 0.5246(5) 0.5486(2)
O10 O 0.8130(6) 0.7847(8) 0.6666(3)
O11 O 0.5871(7) 0.7705(9) 0.6590(3)
O12 O 0.7236(7) 0.6012(11) 0.6578(4)
O13 O 0.5141(8) 0.5892(11) 0.6567(3)
O14 O 0.7316(5) 0.8761(5) 0.5540(2)
O15 O 0.8197(5) 0.7237(7) 0.5388(3)
H5 H 0.0784172 0.588391 0.415534
H6 H 0.356328 0.723801 0.539089
C2 C 0.8916(7) 0.7348(8) 0.5004(4)
O7 O 0.8761(5) 0.7316(5) 0.4460(2)
O10_2 O 0.2153(8) 0.0283(10) -0.0000(3)
O9_2 O 0.4754(5) 0.0783(7) 0.8819(2)
O10_3 O 0.2153(8) 0.0283(10) 1.0000(3)
O12_2 O 0.3988(11) 0.1224(13) 0.9912(4)
O15_2 O 0.2763(7) 0.0960(9) 0.8721(3)
O3_2 O 0.0283(6) 0.2153(8) 0.0000(3)
O5_2 O 0.1224(8) 0.3988(11) 0.0088(4)
Er1_2 Er 0.30512(3) 0.97159(4) 0.92284(2)
O1_2 O 0.3219(6) 0.8352(8) 0.8703(3)
O2_2 O 0.3971(5) 0.9217(7) 0.7847(2)
O3_3 O 0.0283(6) 0.2153(8) 1.0000(3)
C1_2 C 0.4398(9) 0.7532(12) 0.7522(4)
H1_2 H 0.473986 0.820618 0.731418
C2_2 C 0.2652(8) 0.1568(11) 0.8337(4)
C3_2 C 0.1707(9) 0.3216(13) 0.9277(4)
C4_2 C 0.4016(9) 0.5600(13) 0.7638(4)
C5_2 C 0.3774(8) 0.7427(11) 0.8016(4)
C6_2 C 0.1041(9) 0.3091(12) 0.9828(5)
C7_2 C 0.4518(10) 0.6644(13) 0.7333(5)
C8_2 C 0.1858(9) 0.2338(12) 0.9084(4)
H2_2 H 0.157128 0.167196 0.929746
C9_2 C 0.2822(10) 0.4405(13) 0.8459(4)
C10_2 C 0.5223(10) 0.6753(13) 0.6795(4)
C11_2 C 0.2449(9) 0.2478(12) 0.8561(4)
C12_2 C 0.2895(10) 0.3479(13) 0.8253(4)
H3_2 H 0.325600 0.354087 0.789793
C13_2 C 0.3257(9) 0.6411(12) 0.8333(4)
C14_2 C 0.2222(8) 0.4190(11) 0.8973(4)
H4_2 H 0.216504 0.478707 0.912949
C15_2 C 0.3647(8) 0.8401(11) 0.8207(3)
C16_2 C 0.3384(9) 0.5512(12) 0.8142(4)
O7_2 O 0.2684(5) 0.1445(7) 0.7793(2)
O11_2 O 0.2295(9) 0.8166(11) 0.9924(3)
O13_2 O 0.4108(11) 0.9249(14) 0.9901(3)
O14_2 O 0.1239(5) 0.8555(7) 0.8873(2)
H5_2 H 0.411609 0.490026 0.748867
H6_2 H 0.276199 0.632526 0.872422
Er6_2 Er 0.97159(4) 0.30512(5) 0.07716(2)
C2_3 C 0.8432(11) 0.1084(7) 0.1671(4)
O7_3 O 0.8555(7) 0.1239(5) 0.1127(2)
O8 O 0.9040(9) 0.1803(5) 0.2055(3)
O1_3 O 0.1648(8) 0.4867(6) 0.2037(3)
O2_3 O 0.0783(7) 0.4754(5) 0.1181(2)
O3_4 O 0.7847(8) 0.8130(6) 0.3334(3)
O5_3 O 0.6012(11) 0.7236(7) 0.3422(4)
C1_3 C 0.2468(12) 0.6866(8) 0.0856(4)
H1_3 H 0.179382 0.653368 0.064752
C3_3 C 0.6784(13) 0.8491(9) 0.2611(4)
C4_3 C 0.4400(13) 0.8416(9) 0.0972(4)
C5_3 C 0.2573(11) 0.6347(8) 0.1350(4)
C6_3 C 0.6909(12) 0.7950(8) 0.3162(5)
C7_3 C 0.3356(13) 0.7874(9) 0.0667(5)
C8_3 C 0.7662(12) 0.9520(8) 0.2418(4)
H2_3 H 0.832804 0.989932 0.263080
C9_3 C 0.5595(13) 0.8417(8) 0.1793(4)
C10_3 C 0.3247(13) 0.8470(9) 0.0129(4)
C11_3 C 0.7522(12) 0.9971(8) 0.1895(4)
C12_3 C 0.6521(13) 0.9416(8) 0.1587(4)
H3_3 H 0.645913 0.971513 0.123127
C13_3 C 0.3589(12) 0.6846(8) 0.1667(4)
C14_3 C 0.5810(11) 0.8032(8) 0.2307(4)
H4_3 H 0.521293 0.737797 0.246283
C15_3 C 0.1599(11) 0.5246(8) 0.1541(3)
C16_3 C 0.4488(12) 0.7872(8) 0.1476(4)
O14_3 O 0.1445(7) 0.2684(5) 0.2207(2)
H5_3 H 0.509974 0.921583 0.0822004
H6_3 H 0.367474 0.643672 0.205756
O9_3 O 0.9217(7) 0.3971(5) 0.2153(2)
O10_4 O 0.9717(10) 0.1870(6) 0.3333(3)
O12_3 O 0.8776(13) 0.2764(7) 0.3245(4)
O1_4 O 0.6781(6) 0.5133(6) 0.4630(3)
O4_2 O 0.4129(7) 0.1834(5) 0.6743(3)
C1_4 C 0.5602(9) 0.3134(8) 0.5811(4)
H1_4 H 0.526014 0.346632 0.601915
C3_4 C 0.8293(9) 0.1509(9) 0.4056(4)
C4_4 C 0.5984(9) 0.1584(9) 0.5695(4)
C5_4 C 0.6226(8) 0.3653(8) 0.5317(4)
C6_4 C 0.8959(9) 0.2050(8) 0.3505(5)
C7_4 C 0.5482(10) 0.2126(9) 0.6000(5)
O6_2 O 0.4859(8) 0.0751(7) 0.6766(3)
C8_4 C 0.8142(9) 0.0480(8) 0.4249(4)
H2_4 H 0.842872 0.010068 0.403587
C9_4 C 0.7178(10) 0.1583(8) 0.4874(4)
C10_4 C 0.4777(10) 0.1530(9) 0.6538(4)
C11_4 C 0.7551(9) 0.0029(8) 0.4772(4)
C12_4 C 0.7105(10) 0.0584(8) 0.5080(4)
H3_4 H 0.674400 0.028487 0.543540
C13_4 C 0.6743(9) 0.3154(8) 0.5000(4)
C14_4 C 0.7778(8) 0.1968(8) 0.4360(4)
H4_4 H 0.783496 0.262203 0.420384
C15_4 C 0.6353(8) 0.4754(8) 0.5126(3)
C16_4 C 0.6616(9) 0.2128(8) 0.5191(4)
O11_3 O 0.7705(9) 0.5871(7) 0.3410(3)
O13_3 O 0.5892(11) 0.5141(8) 0.3433(3)
O15_3 O 0.7237(7) 0.8197(5) 0.4612(3)
H5_4 H 0.588391 0.0784172 0.584466
H6_4 H 0.723801 0.356328 0.460911
C2_4 C 0.7348(8) 0.8916(7) 0.4996(4)
O15_4 O 0.0960(9) 0.2763(7) 0.1279(3)
O1_5 O 0.8352(8) 0.3219(6) 0.1297(3)
C1_5 C 0.7532(12) 0.4398(9) 0.2478(4)
H1_5 H 0.820618 0.473986 0.268582
C2_5 C 0.1568(11) 0.2652(8) 0.1663(4)
C3_5 C 0.3216(13) 0.1707(9) 0.0723(4)
C4_5 C 0.5600(13) 0.4016(9) 0.2362(4)
C5_5 C 0.7427(11) 0.3774(8) 0.1984(4)
C6_5 C 0.3091(12) 0.1041(9) 0.0172(5)
C7_5 C 0.6644(13) 0.4518(10) 0.2667(5)
C8_5 C 0.2338(12) 0.1858(9) 0.0916(4)
H2_5 H 0.167196 0.157128 0.070254
C9_5 C 0.4405(13) 0.2822(10) 0.1541(4)
C10_5 C 0.6753(13) 0.5223(10) 0.3205(4)
C11_5 C 0.2478(12) 0.2449(9) 0.1439(4)
C12_5 C 0.3479(13) 0.2895(10) 0.1747(4)
H3_5 H 0.354087 0.325600 0.210207
C13_5 C 0.6411(12) 0.3257(9) 0.1667(4)
C14_5 C 0.4190(11) 0.2222(8) 0.1027(4)
H4_5 H 0.478707 0.216504 0.087051
C15_5 C 0.8401(11) 0.3647(8) 0.1793(3)
C16_5 C 0.5512(12) 0.3384(9) 0.1858(4)
O11_4 O 0.8166(11) 0.2295(9) 0.0076(3)
O13_4 O 0.9249(14) 0.4108(11) 0.0099(3)
H5_5 H 0.490026 0.411609 0.251133
H6_5 H 0.632526 0.276199 0.127578
C2_6 C 0.1084(7) 0.8432(11) 0.8329(4)
O8_2 O 0.1803(5) 0.9040(9) 0.7945(3)
O1_6 O 0.4867(6) 0.1648(8) 0.7963(3)
C1_6 C 0.6866(8) 0.2468(12) 0.9144(4)
H1_6 H 0.653368 0.179382 0.935248
C3_6 C 0.8491(9) 0.6784(13) 0.7389(4)
C4_6 C 0.8416(9) 0.4400(13) 0.9028(4)
C5_6 C 0.6347(8) 0.2573(11) 0.8650(4)
C6_6 C 0.7950(8) 0.6909(12) 0.6838(5)
C7_6 C 0.7874(9) 0.3356(13) 0.9333(5)
C8_6 C 0.9520(8) 0.7662(12) 0.7582(4)
H2_6 H 0.989932 0.832804 0.736920
C9_6 C 0.8417(8) 0.5595(13) 0.8207(4)
C10_6 C 0.8470(9) 0.3247(13) 0.9871(4)
C11_6 C 0.9971(8) 0.7522(12) 0.8105(4)
C12_6 C 0.9416(8) 0.6521(13) 0.8413(4)
H3_6 H 0.971513 0.645913 0.876873
C13_6 C 0.6846(8) 0.3589(12) 0.8333(4)
C14_6 C 0.8032(8) 0.5810(11) 0.7693(4)
H4_6 H 0.737797 0.521293 0.753717
C15_6 C 0.5246(8) 0.1599(11) 0.8459(3)
C16_6 C 0.7872(8) 0.4488(12) 0.8524(4)
H5_6 H 0.921583 0.509974 0.9178
H6_6 H 0.643672 0.367474 0.794244
loop_
_geom_bond_atom_site_label_1
_geom_bond_atom_site_label_2
_geom_bond_site_symmetry_1
_geom_bond_site_symmetry_2
Er1 O1 1_555 1_555
O1 C15 1_555 1_555
O2 C15 1_555 1_555
O3 C6 1_555 1_555
O4 C10 1_555 1_555
O5 C6 1_555 1_555
C1 H1 1_555 1_555
C3 C6 1_555 1_555
C4 C7 1_555 1_555
C5 C1 1_555 1_555
C7 C1 1_555 1_555
O6 C10 1_555 1_555
C8 C3 1_555 1_555
H2 C8 1_555 1_555
C9 C12 1_555 1_555
C10 C7 1_555 1_555
C11 C8 1_555 1_555
C12 C11 1_555 1_555
H3 C12 1_555 1_555
C13 C5 1_555 1_555
C14 C3 1_555 1_555
H4 C14 1_555 1_555
C15 C5 1_555 1_555
C16 C4 1_555 1_555
Er3 O4 1_555 1_555
Er5 O2 1_555 1_555
O9 Er1 1_555 1_555
O10 Er1 1_555 1_555
O11 Er1 1_555 1_555
O12 Er1 1_555 1_555
O13 Er1 1_555 1_555
O14 Er1 1_555 1_555
O15 Er1 1_555 1_555
O6 Er3 1_555 1_555
C9 C14 1_555 1_555
C9 C16 1_555 1_555
C13 C16 1_555 1_555
C4 H5 1_555 1_555
C13 H6 1_555 1_555
O7 C2 1_555 1_555
O15 C2 1_555 1_555
Er5 O7 1_555 1_555
Er1_2 O1_2 1_555 1_555
O1_2 C15_2 1_555 1_555
O2_2 C15_2 1_555 1_555
O3_3 C6_2 1_555 1_555
O11 C10_2 1_555 1_555
C1_2 H1_2 1_555 1_555
C2_2 C11_2 1_555 1_555
C3_2 C6_2 1_555 1_555
C4_2 C7_2 1_555 1_555
C5_2 C1_2 1_555 1_555
C7_2 C1_2 1_555 1_555
O13 C10_2 1_555 1_555
C8_2 C3_2 1_555 1_555
H2_2 C8_2 1_555 1_555
C9_2 C12_2 1_555 1_555
C10_2 C7_2 1_555 1_555
C11_2 C8_2 1_555 1_555
C12_2 C11_2 1_555 1_555
H3_2 C12_2 1_555 1_555
C13_2 C5_2 1_555 1_555
C14_2 C3_2 1_555 1_555
H4_2 C14_2 1_555 1_555
C15_2 C5_2 1_555 1_555
C16_2 C4_2 1_555 1_555
O7_2 C2_2 1_555 1_555
O15_2 C2_2 1_555 1_555
Er6 O7_2 1_555 1_555
O11_2 Er1_2 1_555 1_555
O13_2 Er1_2 1_555 1_555
O14_2 Er1_2 1_555 1_555
C9_2 C14_2 1_555 1_555
C9_2 C16_2 1_555 1_555
C13_2 C16_2 1_555 1_555
C4_2 H5_2 1_555 1_555
C13_2 H6_2 1_555 1_555
O7_3 C2_3 1_555 1_555
O8 C2_3 1_555 1_555
Er6_2 O7_3 1_555 1_555
Er3 O1_3 1_555 1_555
O1_3 C15_3 1_555 1_555
O2_3 C15_3 1_555 1_555
O3_4 C6_3 1_555 1_555
O5_3 C6_3 1_555 1_555
C1_3 H1_3 1_555 1_555
C3_3 C6_3 1_555 1_555
C4_3 C7_3 1_555 1_555
C5_3 C1_3 1_555 1_555
C7_3 C1_3 1_555 1_555
C8_3 C3_3 1_555 1_555
H2_3 C8_3 1_555 1_555
C9_3 C12_3 1_555 1_555
C10_3 C7_3 1_555 1_555
C11_3 C8_3 1_555 1_555
C12_3 C11_3 1_555 1_555
H3_3 C12_3 1_555 1_555
C13_3 C5_3 1_555 1_555
C14_3 C3_3 1_555 1_555
H4_3 C14_3 1_555 1_555
C15_3 C5_3 1_555 1_555
C16_3 C4_3 1_555 1_555
Er5 O3_4 1_555 1_555
O14_3 Er3 1_555 1_555
O5_3 Er5 1_555 1_555
C9_3 C14_3 1_555 1_555
C9_3 C16_3 1_555 1_555
C13_3 C16_3 1_555 1_555
C4_3 H5_3 1_555 1_555
C13_3 H6_3 1_555 1_555
Er5 O1_4 1_555 1_555
O1_4 C15_4 1_555 1_555
O9 C15_4 1_555 1_555
O10_4 C6_4 1_555 1_555
O4_2 C10_4 1_555 1_555
O12_3 C6_4 1_555 1_555
C1_4 H1_4 1_555 1_555
C3_4 C6_4 1_555 1_555
C4_4 C7_4 1_555 1_555
C5_4 C1_4 1_555 1_555
C7_4 C1_4 1_555 1_555
O6_2 C10_4 1_555 1_555
C8_4 C3_4 1_555 1_555
H2_4 C8_4 1_555 1_555
C9_4 C12_4 1_555 1_555
C10_4 C7_4 1_555 1_555
C11_4 C8_4 1_555 1_555
C12_4 C11_4 1_555 1_555
H3_4 C12_4 1_555 1_555
C13_4 C5_4 1_555 1_555
C14_4 C3_4 1_555 1_555
H4_4 C14_4 1_555 1_555
C15_4 C5_4 1_555 1_555
C16_4 C4_4 1_555 1_555
Er6 O4_2 1_555 1_555
O11_3 Er5 1_555 1_555
O13_3 Er5 1_555 1_555
O15_3 Er5 1_555 1_555
O6_2 Er6 1_555 1_555
C9_4 C14_4 1_555 1_555
C9_4 C16_4 1_555 1_555
C13_4 C16_4 1_555 1_555
C4_4 H5_4 1_555 1_555
C13_4 H6_4 1_555 1_555
O14 C2_4 1_555 1_555
O15_3 C2_4 1_555 1_555
Er6_2 O1_5 1_555 1_555
O1_5 C15_5 1_555 1_555
O9_3 C15_5 1_555 1_555
O10_2 C6_5 1_555 1_555
O11_3 C10_5 1_555 1_555
C1_5 H1_5 1_555 1_555
C2_5 C11_5 1_555 1_555
C3_5 C6_5 1_555 1_555
C4_5 C7_5 1_555 1_555
C5_5 C1_5 1_555 1_555
C7_5 C1_5 1_555 1_555
O13_3 C10_5 1_555 1_555
C8_5 C3_5 1_555 1_555
H2_5 C8_5 1_555 1_555
C9_5 C12_5 1_555 1_555
C10_5 C7_5 1_555 1_555
C11_5 C8_5 1_555 1_555
C12_5 C11_5 1_555 1_555
H3_5 C12_5 1_555 1_555
C13_5 C5_5 1_555 1_555
C14_5 C3_5 1_555 1_555
H4_5 C14_5 1_555 1_555
C15_5 C5_5 1_555 1_555
C16_5 C4_5 1_555 1_555
O14_3 C2_5 1_555 1_555
O15_4 C2_5 1_555 1_555
O11_4 Er6_2 1_555 1_555
O13_4 Er6_2 1_555 1_555
C9_5 C14_5 1_555 1_555
C9_5 C16_5 1_555 1_555
C13_5 C16_5 1_555 1_555
C4_5 H5_5 1_555 1_555
C13_5 H6_5 1_555 1_555
O14_2 C2_6 1_555 1_555
O8_2 C2_6 1_555 1_555
Er6 O1_6 1_555 1_555
O1_6 C15_6 1_555 1_555
O9_2 C15_6 1_555 1_555
O10 C6_6 1_555 1_555
O12 C6_6 1_555 1_555
C1_6 H1_6 1_555 1_555
C3_6 C6_6 1_555 1_555
C4_6 C7_6 1_555 1_555
C5_6 C1_6 1_555 1_555
C7_6 C1_6 1_555 1_555
C8_6 C3_6 1_555 1_555
H2_6 C8_6 1_555 1_555
C9_6 C12_6 1_555 1_555
C10_6 C7_6 1_555 1_555
C11_6 C8_6 1_555 1_555
C12_6 C11_6 1_555 1_555
H3_6 C12_6 1_555 1_555
C13_6 C5_6 1_555 1_555
C14_6 C3_6 1_555 1_555
H4_6 C14_6 1_555 1_555
C15_6 C5_6 1_555 1_555
C16_6 C4_6 1_555 1_555
C9_6 C14_6 1_555 1_555
C9_6 C16_6 1_555 1_555
C13_6 C16_6 1_555 1_555
C4_6 H5_6 1_555 1_555
C13_6 H6_6 1_555 1_555

#END
