
###############################################################################
#
# This file contains modified crystal structure data generated from the
# MOF subset of the Cambridge Structural Database (CSD) v543 
# hosted by the Cambridge Crystallographic Data Centre (CCDC).
#
# This work is licensed under the Creative Commons
# Attribution-NonCommercial-ShareAlike 4.0 International License.
# To view a copy of this license, visit
# http://creativecommons.org/licenses/by-nc-sa/4.0/
# or send a letter to
# Creative Commons, PO Box 1866, Mountain View, CA 94042, USA.
#
# CIF created using the CSD Python API on 29 September 2022
# The structure has been converted into the P1 space group
# The structure has a 3D framework
# The original CSD entry VATMEM is in the trigonal crystal system
# The original CSD entry VATMEM is in a Sohncke space group
# The framework has been calculated to contain at least 10.0% void space
# The void calculation uses a probe of radius 1.32A, grid spacing 0.4
# The framework is charged, counterions have been retained in the structure
#
###############################################################################

data_VATMEM
_chemical_formula_moiety         '(C96 H36 Lu2 O44 4-)n'
_symmetry_cell_setting           triclinic
_symmetry_space_group_name_H-M   'P 1'
_symmetry_Int_Tables_number      1
_space_group_name_Hall           'P 1'
loop_
_symmetry_equiv_pos_site_id
_symmetry_equiv_pos_as_xyz
1 x,y,z
_cell_length_a                   13.7117(12)
_cell_length_b                   13.7117(12)
_cell_length_c                   22.700(2)
_cell_angle_alpha                90
_cell_angle_beta                 90
_cell_angle_gamma                120
_cell_volume                     3696.06
loop_
_atom_site_label
_atom_site_type_symbol
_atom_site_fract_x
_atom_site_fract_y
_atom_site_fract_z
Lu3 Lu 0.33391(4) 0.02783(6) 0.74396(2)
C2 C 0.0033(10) 0.7584(10) 0.5226(4)
C3 C 0.0580(10) 0.7120(11) 0.4919(5)
C4 C 0.0494(9) 0.8163(10) 0.5747(4)
H1 H 0.027467 0.674005 0.456785
C5 C 0.1586(9) 0.7214(9) 0.5131(4)
C6 C 0.1502(10) 0.8275(11) 0.5963(4)
H2 H 0.013318 0.847874 0.595384
C7 C 0.2031(12) 0.7803(12) 0.5653(4)
C8 C 0.2122(10) 0.6622(10) 0.4817(5)
C9 C 0.2054(11) 0.8960(11) 0.6502(5)
H3 H 0.270089 0.788071 0.579741
C10 C 0.1621(11) 0.5976(12) 0.4310(4)
C11 C 0.3151(10) 0.6719(10) 0.5002(4)
C12 C 0.2109(10) 0.5456(11) 0.3999(5)
H4 H 0.094257 0.589494 0.417763
C13 C 0.3626(10) 0.6204(11) 0.4691(5)
H5 H 0.350845 0.713448 0.533698
C14 C 0.3113(10) 0.5579(11) 0.4194(4)
C15 C 0.1521(11) 0.4768(12) 0.3461(5)
C16 C 0.4744(11) 0.6324(11) 0.4880(5)
H6 H 0.345008 0.523825 0.398903
O10 O 0.2748(8) 0.8752(11) 0.6770(4)
O11 O 0.1873(8) 0.9711(11) 0.6683(3)
O12 O 0.0710(16) 0.4836(13) 0.3244(4)
O13 O 0.1801(14) 0.4102(11) 0.3248(3)
O14 O 0.5233(6) 0.6030(9) 0.4506(3)
O15 O 0.5148(7) 0.6762(10) 0.5378(3)
Lu4 Lu 0.02783(6) 0.33391(4) 0.25604(2)
Lu5 Lu 0.69392(4) 0.66609(4) 0.41063(2)
Lu6 Lu 0.66609(4) 0.69392(4) 0.58937(2)
O1 O 0.7252(8) 0.6004(8) 0.6563(4)
O2 O 0.8127(8) 0.7838(8) 0.6650(3)
O3 O 0.8190(6) 0.7240(10) 0.5392(3)
O4 O 0.7303(8) 0.8742(6) 0.5535(3)
O5 O 0.5164(13) 0.5874(9) 0.6577(4)
O6 O 0.5898(11) 0.7699(9) 0.6581(3)
O7 O 0.6030(9) 0.5233(6) 0.5494(3)
C1 C 0.8910(10) 0.7365(10) 0.5002(5)
O9 O 0.8742(6) 0.7303(8) 0.4465(3)
O10_2 O 0.1248(11) 0.3996(14) 0.0104(4)
O11_2 O 0.0289(11) 0.2162(14) 0.0017(3)
O1_2 O 0.3996(8) 0.1248(11) 0.9896(4)
O2_2 O 0.2162(8) 0.0289(11) 0.9983(3)
O3_2 O 0.2760(10) 0.0950(12) 0.8725(3)
O7_2 O 0.4767(6) 0.0797(11) 0.8827(3)
C1_2 C 0.2635(10) 0.1545(14) 0.8335(5)
C2_2 C 0.2416(10) 0.2449(14) 0.8559(4)
C3_2 C 0.2880(11) 0.3460(15) 0.8252(5)
C4_2 C 0.1837(10) 0.2331(13) 0.9080(4)
H1_2 H 0.325995 0.353462 0.790118
C5_2 C 0.2786(9) 0.4372(13) 0.8464(4)
C6_2 C 0.1725(11) 0.3227(15) 0.9296(4)
H2_2 H 0.152126 0.165444 0.928717
C7_2 C 0.2197(12) 0.4228(17) 0.8986(4)
C8_2 C 0.3378(10) 0.5500(14) 0.8150(5)
C9_2 C 0.1040(11) 0.3094(16) 0.9835(5)
H3_2 H 0.211929 0.482018 0.913074
C10_2 C 0.4024(12) 0.5645(16) 0.7643(4)
C11_2 C 0.3281(10) 0.6432(14) 0.8335(4)
C12_2 C 0.4544(11) 0.6653(15) 0.7332(5)
H4_2 H 0.410506 0.504763 0.751096
C13_2 C 0.3796(11) 0.7422(15) 0.8024(5)
H5_2 H 0.286552 0.637397 0.867031
C14_2 C 0.4421(11) 0.7534(15) 0.7527(4)
C15_2 C 0.5232(12) 0.6753(16) 0.6794(5)
C16_2 C 0.3676(11) 0.8420(16) 0.8213(5)
H6_2 H 0.476175 0.821183 0.732236
O9_2 O 0.2697(8) 0.1439(10) 0.7798(3)
O14_2 O 0.3970(9) 0.9203(11) 0.7839(3)
O15_2 O 0.3238(10) 0.8386(12) 0.8711(3)
Lu6_2 Lu 0.30608(4) 0.97217(6) 0.92270(2)
O4_2 O 0.1258(6) 0.8561(10) 0.8868(3)
O5_2 O 0.4126(9) 0.9290(16) 0.9910(4)
O6_2 O 0.2301(9) 0.8199(14) 0.9914(3)
Lu3_2 Lu 0.97217(6) 0.30608(7) 0.07730(2)
O4_3 O 0.1439(10) 0.2697(8) 0.2202(3)
O8 O 0.1614(12) 0.4852(7) 0.2045(3)
O1_3 O 0.8752(11) 0.2748(8) 0.3230(4)
O2_3 O 0.9711(11) 0.1873(8) 0.3317(3)
O3_3 O 0.9050(12) 0.1810(6) 0.2059(3)
O7_3 O 0.9203(11) 0.3970(9) 0.2161(3)
C1_3 C 0.8455(14) 0.1090(10) 0.1669(5)
O9_3 O 0.8561(10) 0.1258(6) 0.1132(3)
C2_3 C 0.7551(14) 0.9967(10) 0.1893(4)
C3_3 C 0.6540(15) 0.9420(10) 0.1586(5)
C4_3 C 0.7669(13) 0.9506(9) 0.2414(4)
H1_3 H 0.646538 0.972533 0.123452
C5_3 C 0.5628(13) 0.8414(9) 0.1798(4)
C6_3 C 0.6773(15) 0.8498(10) 0.2630(4)
H2_3 H 0.834556 0.986682 0.262051
C7_3 C 0.5772(17) 0.7969(12) 0.2320(4)
C8_3 C 0.4500(14) 0.7878(10) 0.1484(5)
C9_3 C 0.6906(16) 0.7946(11) 0.3169(5)
H3_3 H 0.517982 0.729911 0.246408
C10_3 C 0.4355(16) 0.8379(11) 0.0977(4)
C11_3 C 0.3568(14) 0.6849(10) 0.1669(4)
C12_3 C 0.3347(15) 0.7891(10) 0.0666(5)
H4_3 H 0.495237 0.905743 0.084430
C13_3 C 0.2578(15) 0.6374(10) 0.1358(5)
H5_3 H 0.362603 0.649155 0.200365
C14_3 C 0.2466(15) 0.6887(10) 0.0861(4)
C15_3 C 0.3247(16) 0.8479(11) 0.0128(5)
C16_3 C 0.1580(16) 0.5256(11) 0.1547(5)
H6_3 H 0.178817 0.654992 0.065570
O10_3 O 0.6004(14) 0.7252(8) 0.3437(4)
O11_3 O 0.7838(14) 0.8127(8) 0.3350(3)
O14_3 O 0.0797(11) 0.4767(6) 0.1173(3)
C2_4 C 0.7584(10) 0.0033(10) 0.4774(4)
C3_4 C 0.7120(11) 0.0580(10) 0.5081(5)
C4_4 C 0.8163(10) 0.0494(9) 0.4253(4)
H1_4 H 0.674005 0.027467 0.543215
C5_4 C 0.7214(9) 0.1586(9) 0.4869(4)
C6_4 C 0.8275(11) 0.1502(10) 0.4037(4)
H2_4 H 0.847874 0.013318 0.404616
C7_4 C 0.7803(12) 0.2031(12) 0.4347(4)
C8_4 C 0.6622(10) 0.2122(10) 0.5183(5)
C9_4 C 0.8960(11) 0.2054(11) 0.3498(5)
H3_4 H 0.788071 0.270089 0.420259
C10_4 C 0.5976(12) 0.1621(11) 0.5690(4)
C11_4 C 0.6719(10) 0.3151(10) 0.4998(4)
C12_4 C 0.5456(11) 0.2109(10) 0.6001(5)
H4_4 H 0.589494 0.094257 0.582237
C13_4 C 0.6204(11) 0.3626(10) 0.5309(5)
H5_4 H 0.713448 0.350845 0.466302
C14_4 C 0.5579(11) 0.3113(10) 0.5806(4)
C15_4 C 0.4768(12) 0.1521(11) 0.6539(5)
C16_4 C 0.6324(11) 0.4744(11) 0.5120(5)
H6_4 H 0.523825 0.345008 0.601097
O12_2 O 0.4836(13) 0.0710(16) 0.6756(4)
O13_2 O 0.4102(11) 0.1801(14) 0.6752(3)
O15_3 O 0.6762(10) 0.5148(7) 0.4622(3)
O3_4 O 0.7240(10) 0.8190(6) 0.4608(3)
O5_3 O 0.5874(9) 0.5164(13) 0.3423(4)
O6_3 O 0.7699(9) 0.5898(11) 0.3419(3)
C1_4 C 0.7365(10) 0.8910(10) 0.4998(5)
O3_5 O 0.0950(12) 0.2760(10) 0.1275(3)
C1_5 C 0.1545(14) 0.2635(10) 0.1665(5)
C2_5 C 0.2449(14) 0.2416(10) 0.1441(4)
C3_5 C 0.3460(15) 0.2880(11) 0.1748(5)
C4_5 C 0.2331(13) 0.1837(10) 0.0920(4)
H1_5 H 0.353462 0.325995 0.209882
C5_5 C 0.4372(13) 0.2786(9) 0.1536(4)
C6_5 C 0.3227(15) 0.1725(11) 0.0704(4)
H2_5 H 0.165444 0.152126 0.071283
C7_5 C 0.4228(17) 0.2197(12) 0.1014(4)
C8_5 C 0.5500(14) 0.3378(10) 0.1850(5)
C9_5 C 0.3094(16) 0.1040(11) 0.0165(5)
H3_5 H 0.482018 0.211929 0.086926
C10_5 C 0.5645(16) 0.4024(12) 0.2357(4)
C11_5 C 0.6432(14) 0.3281(10) 0.1665(4)
C12_5 C 0.6653(15) 0.4544(11) 0.2668(5)
H4_5 H 0.504763 0.410506 0.248904
C13_5 C 0.7422(15) 0.3796(11) 0.1976(5)
H5_5 H 0.637397 0.286552 0.132969
C14_5 C 0.7534(15) 0.4421(11) 0.2473(4)
C15_5 C 0.6753(16) 0.5232(12) 0.3206(5)
C16_5 C 0.8420(16) 0.3676(11) 0.1787(5)
H6_5 H 0.821183 0.476175 0.267764
O15_4 O 0.8386(12) 0.3238(10) 0.1289(3)
O5_4 O 0.9290(16) 0.4126(9) 0.0090(4)
O6_4 O 0.8199(14) 0.2301(9) 0.0086(3)
O8_2 O 0.4852(7) 0.1614(12) 0.7955(3)
O3_6 O 0.1810(6) 0.9050(12) 0.7941(3)
C1_6 C 0.1090(10) 0.8455(14) 0.8331(5)
C2_6 C 0.9967(10) 0.7551(14) 0.8107(4)
C3_6 C 0.9420(10) 0.6540(15) 0.8414(5)
C4_6 C 0.9506(9) 0.7669(13) 0.7586(4)
H1_6 H 0.972533 0.646538 0.876548
C5_6 C 0.8414(9) 0.5628(13) 0.8202(4)
C6_6 C 0.8498(10) 0.6773(15) 0.7370(4)
H2_6 H 0.986682 0.834556 0.737949
C7_6 C 0.7969(12) 0.5772(17) 0.7680(4)
C8_6 C 0.7878(10) 0.4500(14) 0.8516(5)
C9_6 C 0.7946(11) 0.6906(16) 0.6831(5)
H3_6 H 0.729911 0.517982 0.753592
C10_6 C 0.8379(11) 0.4355(16) 0.9023(4)
C11_6 C 0.6849(10) 0.3568(14) 0.8331(4)
C12_6 C 0.7891(10) 0.3347(15) 0.9334(5)
H4_6 H 0.905743 0.495237 0.915570
C13_6 C 0.6374(10) 0.2578(15) 0.8642(5)
H5_6 H 0.649155 0.362603 0.799635
C14_6 C 0.6887(10) 0.2466(15) 0.9139(4)
C15_6 C 0.8479(11) 0.3247(16) 0.9872(5)
C16_6 C 0.5256(11) 0.1580(16) 0.8453(5)
H6_6 H 0.654992 0.178817 0.934430
loop_
_geom_bond_atom_site_label_1
_geom_bond_atom_site_label_2
_geom_bond_site_symmetry_1
_geom_bond_site_symmetry_2
C3 C2 1_555 1_555
C4 C2 1_555 1_555
H1 C3 1_555 1_555
C5 C3 1_555 1_555
C6 C4 1_555 1_555
H2 C4 1_555 1_555
C7 C5 1_555 1_555
C8 C5 1_555 1_555
C9 C6 1_555 1_555
H3 C7 1_555 1_555
C10 C8 1_555 1_555
C11 C8 1_555 1_555
C12 C10 1_555 1_555
H4 C10 1_555 1_555
C13 C11 1_555 1_555
H5 C11 1_555 1_555
C14 C12 1_555 1_555
C15 C12 1_555 1_555
C16 C13 1_555 1_555
H6 C14 1_555 1_555
O10 C9 1_555 1_555
O11 C9 1_555 1_555
O12 C15 1_555 1_555
O13 C15 1_555 1_555
O14 C16 1_555 1_555
O15 C16 1_555 1_555
Lu4 O12 1_555 1_555
Lu5 O14 1_555 1_555
Lu6 O15 1_555 1_555
C6 C7 1_555 1_555
C13 C14 1_555 1_555
O13 Lu4 1_555 1_555
Lu6 O1 1_555 1_555
O2 Lu6 1_555 1_555
O3 Lu6 1_555 1_555
O4 Lu6 1_555 1_555
O5 Lu6 1_555 1_555
O6 Lu6 1_555 1_555
O7 Lu6 1_555 1_555
C1 O3 1_555 1_555
O9 C1 1_555 1_555
Lu5 O9 1_555 1_555
C1_2 O3_2 1_555 1_555
C2_2 C1_2 1_555 1_555
C3_2 C2_2 1_555 1_555
C4_2 C2_2 1_555 1_555
H1_2 C3_2 1_555 1_555
C5_2 C3_2 1_555 1_555
C6_2 C4_2 1_555 1_555
H2_2 C4_2 1_555 1_555
C7_2 C5_2 1_555 1_555
C8_2 C5_2 1_555 1_555
C9_2 C6_2 1_555 1_555
H3_2 C7_2 1_555 1_555
C10_2 C8_2 1_555 1_555
C11_2 C8_2 1_555 1_555
C12_2 C10_2 1_555 1_555
H4_2 C10_2 1_555 1_555
C13_2 C11_2 1_555 1_555
H5_2 C11_2 1_555 1_555
C14_2 C12_2 1_555 1_555
C15_2 C12_2 1_555 1_555
C16_2 C13_2 1_555 1_555
H6_2 C14_2 1_555 1_555
O9_2 C1_2 1_555 1_555
Lu3 O9_2 1_555 1_555
O5 C15_2 1_555 1_555
O6 C15_2 1_555 1_555
O14_2 C16_2 1_555 1_555
O15_2 C16_2 1_555 1_555
Lu6_2 O15_2 1_555 1_555
C6_2 C7_2 1_555 1_555
C13_2 C14_2 1_555 1_555
O4_2 Lu6_2 1_555 1_555
O5_2 Lu6_2 1_555 1_555
O6_2 Lu6_2 1_555 1_555
O4_3 Lu4 1_555 1_555
O8 Lu4 1_555 1_555
C1_3 O3_3 1_555 1_555
O9_3 C1_3 1_555 1_555
Lu3_2 O9_3 1_555 1_555
C3_3 C2_3 1_555 1_555
C4_3 C2_3 1_555 1_555
H1_3 C3_3 1_555 1_555
C5_3 C3_3 1_555 1_555
C6_3 C4_3 1_555 1_555
H2_3 C4_3 1_555 1_555
C7_3 C5_3 1_555 1_555
C8_3 C5_3 1_555 1_555
C9_3 C6_3 1_555 1_555
H3_3 C7_3 1_555 1_555
C10_3 C8_3 1_555 1_555
C11_3 C8_3 1_555 1_555
C12_3 C10_3 1_555 1_555
H4_3 C10_3 1_555 1_555
C13_3 C11_3 1_555 1_555
H5_3 C11_3 1_555 1_555
C14_3 C12_3 1_555 1_555
C15_3 C12_3 1_555 1_555
C16_3 C13_3 1_555 1_555
H6_3 C14_3 1_555 1_555
O10_3 C9_3 1_555 1_555
O11_3 C9_3 1_555 1_555
Lu5 O10_3 1_555 1_555
O14_3 C16_3 1_555 1_555
O8 C16_3 1_555 1_555
C6_3 C7_3 1_555 1_555
C13_3 C14_3 1_555 1_555
O11_3 Lu5 1_555 1_555
C3_4 C2_4 1_555 1_555
C4_4 C2_4 1_555 1_555
H1_4 C3_4 1_555 1_555
C5_4 C3_4 1_555 1_555
C6_4 C4_4 1_555 1_555
H2_4 C4_4 1_555 1_555
C7_4 C5_4 1_555 1_555
C8_4 C5_4 1_555 1_555
C9_4 C6_4 1_555 1_555
H3_4 C7_4 1_555 1_555
C10_4 C8_4 1_555 1_555
C11_4 C8_4 1_555 1_555
C12_4 C10_4 1_555 1_555
H4_4 C10_4 1_555 1_555
C13_4 C11_4 1_555 1_555
H5_4 C11_4 1_555 1_555
C14_4 C12_4 1_555 1_555
C15_4 C12_4 1_555 1_555
C16_4 C13_4 1_555 1_555
H6_4 C14_4 1_555 1_555
O1_3 C9_4 1_555 1_555
O2_3 C9_4 1_555 1_555
O12_2 C15_4 1_555 1_555
O13_2 C15_4 1_555 1_555
O7 C16_4 1_555 1_555
O15_3 C16_4 1_555 1_555
Lu3 O12_2 1_555 1_555
Lu5 O15_3 1_555 1_555
C6_4 C7_4 1_555 1_555
C13_4 C14_4 1_555 1_555
O13_2 Lu3 1_555 1_555
O3_4 Lu5 1_555 1_555
O5_3 Lu5 1_555 1_555
O6_3 Lu5 1_555 1_555
C1_4 O3_4 1_555 1_555
O4 C1_4 1_555 1_555
C1_5 O3_5 1_555 1_555
C2_5 C1_5 1_555 1_555
C3_5 C2_5 1_555 1_555
C4_5 C2_5 1_555 1_555
H1_5 C3_5 1_555 1_555
C5_5 C3_5 1_555 1_555
C6_5 C4_5 1_555 1_555
H2_5 C4_5 1_555 1_555
C7_5 C5_5 1_555 1_555
C8_5 C5_5 1_555 1_555
C9_5 C6_5 1_555 1_555
H3_5 C7_5 1_555 1_555
C10_5 C8_5 1_555 1_555
C11_5 C8_5 1_555 1_555
C12_5 C10_5 1_555 1_555
H4_5 C10_5 1_555 1_555
C13_5 C11_5 1_555 1_555
H5_5 C11_5 1_555 1_555
C14_5 C12_5 1_555 1_555
C15_5 C12_5 1_555 1_555
C16_5 C13_5 1_555 1_555
H6_5 C14_5 1_555 1_555
O4_3 C1_5 1_555 1_555
O5_3 C15_5 1_555 1_555
O6_3 C15_5 1_555 1_555
O7_3 C16_5 1_555 1_555
O15_4 C16_5 1_555 1_555
Lu3_2 O15_4 1_555 1_555
C6_5 C7_5 1_555 1_555
C13_5 C14_5 1_555 1_555
O5_4 Lu3_2 1_555 1_555
O6_4 Lu3_2 1_555 1_555
O8_2 Lu3 1_555 1_555
C1_6 O3_6 1_555 1_555
O4_2 C1_6 1_555 1_555
C3_6 C2_6 1_555 1_555
C4_6 C2_6 1_555 1_555
H1_6 C3_6 1_555 1_555
C5_6 C3_6 1_555 1_555
C6_6 C4_6 1_555 1_555
H2_6 C4_6 1_555 1_555
C7_6 C5_6 1_555 1_555
C8_6 C5_6 1_555 1_555
C9_6 C6_6 1_555 1_555
H3_6 C7_6 1_555 1_555
C10_6 C8_6 1_555 1_555
C11_6 C8_6 1_555 1_555
C12_6 C10_6 1_555 1_555
H4_6 C10_6 1_555 1_555
C13_6 C11_6 1_555 1_555
H5_6 C11_6 1_555 1_555
C14_6 C12_6 1_555 1_555
C15_6 C12_6 1_555 1_555
C16_6 C13_6 1_555 1_555
H6_6 C14_6 1_555 1_555
O1 C9_6 1_555 1_555
O2 C9_6 1_555 1_555
O7_2 C16_6 1_555 1_555
O8_2 C16_6 1_555 1_555
C6_6 C7_6 1_555 1_555
C13_6 C14_6 1_555 1_555

#END
