
###############################################################################
#
# This file contains modified crystal structure data generated from the
# MOF subset of the Cambridge Structural Database (CSD) v543 
# hosted by the Cambridge Crystallographic Data Centre (CCDC).
#
# This work is licensed under the Creative Commons
# Attribution-NonCommercial-ShareAlike 4.0 International License.
# To view a copy of this license, visit
# http://creativecommons.org/licenses/by-nc-sa/4.0/
# or send a letter to
# Creative Commons, PO Box 1866, Mountain View, CA 94042, USA.
#
# CIF created using the CSD Python API on 29 September 2022
# The structure has been converted into the P1 space group
# The structure has a 3D framework
# The original CSD entry VATNAJ is in the trigonal crystal system
# The original CSD entry VATNAJ is in a Sohncke space group
# The framework has been calculated to contain at least 10.0% void space
# The void calculation uses a probe of radius 1.32A, grid spacing 0.4
# The framework is charged, counterions have been retained in the structure
#
###############################################################################

data_VATNAJ
_chemical_formula_moiety         '(C96 H36 Gd6 O44 2-)n'
_symmetry_cell_setting           triclinic
_symmetry_space_group_name_H-M   'P 1'
_symmetry_Int_Tables_number      1
_space_group_name_Hall           'P 1'
loop_
_symmetry_equiv_pos_site_id
_symmetry_equiv_pos_as_xyz
1 x,y,z
_cell_length_a                   13.7535(13)
_cell_length_b                   13.7535(13)
_cell_length_c                   22.8353(19)
_cell_angle_alpha                90
_cell_angle_beta                 90
_cell_angle_gamma                120
_cell_volume                     3740.79
loop_
_atom_site_label
_atom_site_type_symbol
_atom_site_fract_x
_atom_site_fract_y
_atom_site_fract_z
Gd1 Gd 0.33239(4) 0.30430(4) 0.08963(2)
O1 O 0.4179(7) 0.2293(7) 0.1579(3)
O2 O 0.4759(7) 0.4082(7) 0.1618(3)
O3 O 0.1902(12) 0.2198(7) 0.1696(3)
O4 O 0.2614(14) 0.4014(8) 0.1537(4)
O5 O 0.2679(5) 0.1202(9) 0.0539(3)
O6 O 0.3952(6) 0.4754(8) 0.0479(3)
O7 O 0.4924(8) 0.3263(6) 0.0385(3)
O8 O 0.1764(12) 0.2728(8) 0.0360(3)
C1 C 0.2652(9) 0.1060(12) 0.0001(5)
O9 O 0.2728(8) 0.1764(12) 0.9640(3)
Gd2 Gd 0.30430(4) 0.33239(4) 0.91037(2)
C3 C 0.2889(13) 0.9415(9) 0.0082(4)
H1 H 0.324454 0.971166 0.043729
C8 C 0.3343(9) 0.7834(9) 0.0189(5)
C10 C 0.3993(10) 0.8345(11) 0.0702(5)
C11 C 0.3254(9) 0.6849(9) 0.0007(5)
C12 C 0.4531(11) 0.7852(10) 0.1012(5)
H4 H 0.406575 0.901709 0.083558
C13 C 0.3784(9) 0.6362(9) 0.0315(5)
C14 C 0.5207(10) 0.8460(10) 0.1528(4)
C15 C 0.4396(9) 0.6885(9) 0.0816(5)
C16 C 0.3668(8) 0.5277(8) 0.0124(4)
H6 H 0.472546 0.654148 0.102266
Gd3 Gd 0.66761(4) 0.97191(6) 0.24370(2)
O12 O 0.5821(7) 0.8114(10) 0.1754(3)
O13 O 0.5241(7) 0.9323(10) 0.1715(3)
C2 C 0.2452(12) 0.9951(9) 0.9776(4)
C4 C 0.1865(13) 0.9512(9) 0.9253(4)
C5 C 0.2811(13) 0.8403(9) 0.9870(5)
C6 C 0.1738(13) 0.8464(10) 0.9049(5)
H2 H 0.156637 0.988317 0.904472
C7 C 0.2237(16) 0.7965(11) 0.9348(4)
C9 C 0.1082(14) 0.7963(10) 0.8505(5)
H3 H 0.218955 0.731427 0.919725
H5 H 0.283685 0.649575 0.967421
O10 O 0.0296(14) 0.8098(12) 0.8363(3)
O11 O 0.1400(16) 0.7386(14) 0.8204(4)
O14 O 0.3263(6) 0.4924(8) 0.9615(3)
Gd4 Gd 0.97191(6) 0.66761(4) 0.75630(2)
Gd6 Gd 0.69570(4) 0.02809(6) 0.42296(2)
C2_2 C 0.0049(9) 0.2501(15) 0.3109(4)
C3_2 C 0.0585(9) 0.3474(16) 0.3415(4)
C4_2 C 0.0488(9) 0.2353(16) 0.2586(4)
C5_2 C 0.1597(9) 0.4408(16) 0.3203(5)
H1_2 H 0.028834 0.353288 0.377062
C6_2 C 0.1536(10) 0.3274(16) 0.2382(5)
H2_2 H 0.011683 0.168320 0.237805
C7_2 C 0.2035(11) 0.4272(19) 0.2681(4)
C8_2 C 0.2166(9) 0.5509(13) 0.3522(5)
C9_2 C 0.2037(10) 0.3119(17) 0.1838(5)
H3_2 H 0.268573 0.487528 0.253058
C10_2 C 0.1655(11) 0.5648(15) 0.4035(5)
C11_2 C 0.3151(9) 0.6405(13) 0.3340(5)
C12_2 C 0.2148(10) 0.6679(15) 0.4345(5)
H4_2 H 0.098291 0.504866 0.416891
C13_2 C 0.3638(9) 0.7422(13) 0.3648(5)
H5_2 H 0.350425 0.634110 0.300754
C14_2 C 0.1540(10) 0.6747(14) 0.4861(4)
C15_2 C 0.3115(9) 0.7511(13) 0.4149(5)
C16_2 C 0.4723(8) 0.8391(11) 0.3457(4)
H6_2 H 0.345852 0.818398 0.435599
Gd3_2 Gd 0.02809(6) 0.69570(7) 0.57704(2)
O12_2 O 0.1886(10) 0.7707(12) 0.5088(3)
O13_2 O 0.0677(10) 0.5918(12) 0.5049(3)
O14_2 O 0.5076(8) 0.8339(10) 0.2948(3)
O15 O 0.5246(8) 0.9198(10) 0.3812(3)
O1_2 O 0.7707(7) 0.1886(10) 0.4912(3)
O2_2 O 0.5918(7) 0.0677(10) 0.4951(3)
O5_2 O 0.8798(9) 0.1477(10) 0.3872(3)
O7_2 O 0.6737(6) 0.1661(10) 0.3718(3)
C1_2 C 0.8940(12) 0.1592(15) 0.3334(5)
O9_2 O 0.8236(12) 0.0964(14) 0.2973(3)
O3_2 O 0.7802(7) 0.9704(14) 0.5029(3)
O4_2 O 0.5986(8) 0.8600(16) 0.4870(4)
O8_2 O 0.7272(8) 0.9036(14) 0.3693(3)
O6_2 O 0.0802(10) 0.6048(6) 0.7146(3)
O8_3 O 0.0964(14) 0.8236(12) 0.7027(3)
O1_3 O 0.8114(10) 0.5821(7) 0.8246(3)
O2_3 O 0.9323(10) 0.5241(7) 0.8285(3)
O5_3 O 0.8523(10) 0.7321(5) 0.7206(3)
O7_3 O 0.8339(10) 0.5076(8) 0.7052(3)
C1_3 C 0.8408(15) 0.7348(9) 0.6668(5)
C2_3 C 0.7499(15) 0.7548(12) 0.6443(4)
C3_3 C 0.6526(16) 0.7111(13) 0.6749(4)
C4_3 C 0.7647(16) 0.8135(13) 0.5920(4)
C5_3 C 0.5592(16) 0.7189(13) 0.6537(5)
H1_3 H 0.646712 0.675546 0.710396
C6_3 C 0.6726(16) 0.8262(13) 0.5716(5)
H2_3 H 0.831680 0.843363 0.571139
C7_3 C 0.5728(19) 0.7763(16) 0.6015(4)
C8_3 C 0.4491(13) 0.6657(9) 0.6856(5)
C9_3 C 0.6881(17) 0.8918(14) 0.5172(5)
H3_3 H 0.512472 0.781045 0.586392
C10_3 C 0.4352(15) 0.6007(10) 0.7369(5)
C11_3 C 0.3595(13) 0.6746(9) 0.6674(5)
C12_3 C 0.3321(15) 0.5469(11) 0.7679(5)
H4_3 H 0.495134 0.593425 0.750225
C13_3 C 0.2578(13) 0.6216(9) 0.6982(5)
H5_3 H 0.365890 0.716315 0.634088
C14_3 C 0.3253(14) 0.4793(10) 0.8195(4)
C15_3 C 0.2489(13) 0.5604(9) 0.7483(5)
C16_3 C 0.1609(11) 0.6332(8) 0.6791(4)
H6_3 H 0.181602 0.527454 0.768933
O9_3 O 0.9036(14) 0.7272(8) 0.6307(3)
O12_3 O 0.2293(12) 0.4179(7) 0.8421(3)
O13_3 O 0.4082(12) 0.4759(7) 0.8382(3)
O14_3 O 0.1661(10) 0.6737(6) 0.6282(3)
O3_3 O 0.2198(7) 0.1902(12) 0.8304(3)
O4_3 O 0.4014(8) 0.2614(14) 0.8463(4)
O5_4 O 0.1202(9) 0.2679(5) 0.9461(3)
O6_3 O 0.4754(8) 0.3952(6) 0.9521(3)
C1_4 C 0.1060(12) 0.2652(9) 0.9999(5)
C2_4 C 0.9951(9) 0.2452(12) 0.0224(4)
C4_4 C 0.9512(9) 0.1865(13) 0.0747(4)
C5_4 C 0.8403(9) 0.2811(13) 0.0130(5)
C6_4 C 0.8464(10) 0.1738(13) 0.0951(5)
H2_4 H 0.988317 0.156637 0.095528
C7_4 C 0.7965(11) 0.2237(16) 0.0652(4)
C9_4 C 0.7963(10) 0.1082(14) 0.1495(5)
H3_4 H 0.731427 0.218955 0.080275
H5_4 H 0.649575 0.283685 0.032579
O10_2 O 0.8098(12) 0.0296(14) 0.1637(3)
O11_2 O 0.7386(14) 0.1400(16) 0.1796(4)
C3_4 C 0.9415(9) 0.2889(13) 0.9918(4)
H1_4 H 0.971166 0.324454 0.956271
C8_4 C 0.7834(9) 0.3343(9) 0.9811(5)
C10_4 C 0.8345(11) 0.3993(10) 0.9298(5)
C11_4 C 0.6849(9) 0.3254(9) 0.9993(5)
C12_4 C 0.7852(10) 0.4531(11) 0.8988(5)
H4_4 H 0.901709 0.406575 0.916442
C13_4 C 0.6362(9) 0.3784(9) 0.9685(5)
C14_4 C 0.8460(10) 0.5207(10) 0.8472(4)
C15_4 C 0.6885(9) 0.4396(9) 0.9184(5)
C16_4 C 0.5277(8) 0.3668(8) 0.9876(4)
H6_4 H 0.654148 0.472546 0.897734
C2_5 C 0.2501(15) 0.0049(9) 0.6891(4)
C3_5 C 0.3474(16) 0.0585(9) 0.6585(4)
C4_5 C 0.2353(16) 0.0488(9) 0.7414(4)
C5_5 C 0.4408(16) 0.1597(9) 0.6797(5)
H1_5 H 0.353288 0.028834 0.622938
C6_5 C 0.3274(16) 0.1536(10) 0.7618(5)
H2_5 H 0.168320 0.011683 0.762195
C7_5 C 0.4272(19) 0.2035(11) 0.7319(4)
C8_5 C 0.5509(13) 0.2166(9) 0.6478(5)
C9_5 C 0.3119(17) 0.2037(10) 0.8162(5)
H3_5 H 0.487528 0.268573 0.746942
C10_5 C 0.5648(15) 0.1655(11) 0.5965(5)
C11_5 C 0.6405(13) 0.3151(9) 0.6660(5)
C12_5 C 0.6679(15) 0.2148(10) 0.5655(5)
H4_5 H 0.504866 0.098291 0.583109
C13_5 C 0.7422(13) 0.3638(9) 0.6352(5)
H5_5 H 0.634110 0.350425 0.699246
C14_5 C 0.6747(14) 0.1540(10) 0.5139(4)
C15_5 C 0.7511(13) 0.3115(9) 0.5851(5)
C16_5 C 0.8391(11) 0.4723(8) 0.6543(4)
H6_5 H 0.818398 0.345852 0.564401
O15_2 O 0.9198(10) 0.5246(8) 0.6188(3)
O5_5 O 0.1477(10) 0.8798(9) 0.6128(3)
C1_5 C 0.1592(15) 0.8940(12) 0.6666(5)
O3_4 O 0.9704(14) 0.7802(7) 0.4971(3)
O4_4 O 0.8600(16) 0.5986(8) 0.5130(4)
O6_4 O 0.6048(6) 0.0802(10) 0.2854(3)
O5_6 O 0.7321(5) 0.8523(10) 0.2794(3)
C1_6 C 0.7348(9) 0.8408(15) 0.3332(5)
C2_6 C 0.7548(12) 0.7499(15) 0.3557(4)
C3_6 C 0.7111(13) 0.6526(16) 0.3251(4)
C4_6 C 0.8135(13) 0.7647(16) 0.4080(4)
C5_6 C 0.7189(13) 0.5592(16) 0.3463(5)
H1_6 H 0.675546 0.646712 0.289604
C6_6 C 0.8262(13) 0.6726(16) 0.4284(5)
H2_6 H 0.843363 0.831680 0.428861
C7_6 C 0.7763(16) 0.5728(19) 0.3985(4)
C8_6 C 0.6657(9) 0.4491(13) 0.3144(5)
C9_6 C 0.8918(14) 0.6881(17) 0.4828(5)
H3_6 H 0.781045 0.512472 0.413608
C10_6 C 0.6007(10) 0.4352(15) 0.2631(5)
C11_6 C 0.6746(9) 0.3595(13) 0.3326(5)
C12_6 C 0.5469(11) 0.3321(15) 0.2321(5)
H4_6 H 0.593425 0.495134 0.249775
C13_6 C 0.6216(9) 0.2578(13) 0.3018(5)
H5_6 H 0.716315 0.365890 0.365912
C14_6 C 0.4793(10) 0.3253(14) 0.1805(4)
C15_6 C 0.5604(9) 0.2489(13) 0.2517(5)
C16_6 C 0.6332(8) 0.1609(11) 0.3209(4)
H6_6 H 0.527454 0.181602 0.231067
loop_
_geom_bond_atom_site_label_1
_geom_bond_atom_site_label_2
_geom_bond_site_symmetry_1
_geom_bond_site_symmetry_2
Gd1 O1 1_555 1_555
O2 Gd1 1_555 1_555
O3 Gd1 1_555 1_555
O4 Gd1 1_555 1_555
O5 Gd1 1_555 1_555
O6 Gd1 1_555 1_555
O7 Gd1 1_555 1_555
O8 Gd1 1_555 1_555
C1 O5 1_555 1_555
Gd2 O9 1_555 1_555
H1 C3 1_555 1_555
C10 C8 1_555 1_555
C11 C8 1_555 1_555
C12 C10 1_555 1_555
H4 C10 1_555 1_555
C13 C11 1_555 1_555
C14 C12 1_555 1_555
C15 C12 1_555 1_555
C16 C13 1_555 1_555
H6 C15 1_555 1_555
Gd3 O12 1_555 1_555
O12 C14 1_555 1_555
O13 C14 1_555 1_555
O6 C16 1_555 1_555
C13 C15 1_555 1_555
Gd3 O13 1_555 1_555
C4 C2 1_555 1_555
C6 C4 1_555 1_555
H2 C4 1_555 1_555
C7 C5 1_555 1_555
C9 C6 1_555 1_555
H3 C7 1_555 1_555
O10 C9 1_555 1_555
O11 C9 1_555 1_555
Gd2 O14 1_555 1_555
C6 C7 1_555 1_555
C3_2 C2_2 1_555 1_555
C4_2 C2_2 1_555 1_555
C5_2 C3_2 1_555 1_555
H1_2 C3_2 1_555 1_555
C6_2 C4_2 1_555 1_555
H2_2 C4_2 1_555 1_555
C7_2 C5_2 1_555 1_555
C8_2 C5_2 1_555 1_555
C9_2 C6_2 1_555 1_555
H3_2 C7_2 1_555 1_555
C10_2 C8_2 1_555 1_555
C11_2 C8_2 1_555 1_555
C12_2 C10_2 1_555 1_555
H4_2 C10_2 1_555 1_555
C13_2 C11_2 1_555 1_555
H5_2 C11_2 1_555 1_555
C14_2 C12_2 1_555 1_555
C15_2 C12_2 1_555 1_555
C16_2 C13_2 1_555 1_555
H6_2 C15_2 1_555 1_555
O3 C9_2 1_555 1_555
O4 C9_2 1_555 1_555
Gd3_2 O12_2 1_555 1_555
O12_2 C14_2 1_555 1_555
O13_2 C14_2 1_555 1_555
O14_2 C16_2 1_555 1_555
O15 C16_2 1_555 1_555
Gd3 O14_2 1_555 1_555
C6_2 C7_2 1_555 1_555
C13_2 C15_2 1_555 1_555
Gd3_2 O13_2 1_555 1_555
Gd6 O1_2 1_555 1_555
O2_2 Gd6 1_555 1_555
O5_2 Gd6 1_555 1_555
O7_2 Gd6 1_555 1_555
C1_2 O5_2 1_555 1_555
O9_2 C1_2 1_555 1_555
Gd4 O1_3 1_555 1_555
O2_3 Gd4 1_555 1_555
O5_3 Gd4 1_555 1_555
O7_3 Gd4 1_555 1_555
C1_3 O5_3 1_555 1_555
C2_3 C1_3 1_555 1_555
C3_3 C2_3 1_555 1_555
C4_3 C2_3 1_555 1_555
C5_3 C3_3 1_555 1_555
H1_3 C3_3 1_555 1_555
C6_3 C4_3 1_555 1_555
H2_3 C4_3 1_555 1_555
C7_3 C5_3 1_555 1_555
C8_3 C5_3 1_555 1_555
C9_3 C6_3 1_555 1_555
H3_3 C7_3 1_555 1_555
C10_3 C8_3 1_555 1_555
C11_3 C8_3 1_555 1_555
C12_3 C10_3 1_555 1_555
H4_3 C10_3 1_555 1_555
C13_3 C11_3 1_555 1_555
H5_3 C11_3 1_555 1_555
C14_3 C12_3 1_555 1_555
C15_3 C12_3 1_555 1_555
C16_3 C13_3 1_555 1_555
H6_3 C15_3 1_555 1_555
O9_3 C1_3 1_555 1_555
O3_2 C9_3 1_555 1_555
O4_2 C9_3 1_555 1_555
Gd2 O12_3 1_555 1_555
O12_3 C14_3 1_555 1_555
O13_3 C14_3 1_555 1_555
O14_3 C16_3 1_555 1_555
O6_2 C16_3 1_555 1_555
Gd3_2 O14_3 1_555 1_555
C6_3 C7_3 1_555 1_555
C13_3 C15_3 1_555 1_555
Gd2 O13_3 1_555 1_555
O3_3 Gd2 1_555 1_555
O4_3 Gd2 1_555 1_555
O5_4 Gd2 1_555 1_555
O6_3 Gd2 1_555 1_555
C1_4 O5_4 1_555 1_555
C4_4 C2_4 1_555 1_555
C6_4 C4_4 1_555 1_555
H2_4 C4_4 1_555 1_555
C7_4 C5_4 1_555 1_555
C9_4 C6_4 1_555 1_555
H3_4 C7_4 1_555 1_555
O10_2 C9_4 1_555 1_555
O11_2 C9_4 1_555 1_555
C6_4 C7_4 1_555 1_555
H1_4 C3_4 1_555 1_555
C10_4 C8_4 1_555 1_555
C11_4 C8_4 1_555 1_555
C12_4 C10_4 1_555 1_555
H4_4 C10_4 1_555 1_555
C13_4 C11_4 1_555 1_555
C14_4 C12_4 1_555 1_555
C15_4 C12_4 1_555 1_555
C16_4 C13_4 1_555 1_555
H6_4 C15_4 1_555 1_555
O1_3 C14_4 1_555 1_555
O2_3 C14_4 1_555 1_555
O6_3 C16_4 1_555 1_555
C13_4 C15_4 1_555 1_555
C3_5 C2_5 1_555 1_555
C4_5 C2_5 1_555 1_555
C5_5 C3_5 1_555 1_555
H1_5 C3_5 1_555 1_555
C6_5 C4_5 1_555 1_555
H2_5 C4_5 1_555 1_555
C7_5 C5_5 1_555 1_555
C8_5 C5_5 1_555 1_555
C9_5 C6_5 1_555 1_555
H3_5 C7_5 1_555 1_555
C10_5 C8_5 1_555 1_555
C11_5 C8_5 1_555 1_555
C12_5 C10_5 1_555 1_555
H4_5 C10_5 1_555 1_555
C13_5 C11_5 1_555 1_555
H5_5 C11_5 1_555 1_555
C14_5 C12_5 1_555 1_555
C15_5 C12_5 1_555 1_555
C16_5 C13_5 1_555 1_555
H6_5 C15_5 1_555 1_555
O3_3 C9_5 1_555 1_555
O4_3 C9_5 1_555 1_555
O1_2 C14_5 1_555 1_555
O2_2 C14_5 1_555 1_555
O7_3 C16_5 1_555 1_555
O15_2 C16_5 1_555 1_555
C6_5 C7_5 1_555 1_555
C13_5 C15_5 1_555 1_555
O5_5 Gd3_2 1_555 1_555
C1_5 O5_5 1_555 1_555
O8_3 C1_5 1_555 1_555
O5_6 Gd3 1_555 1_555
C1_6 O5_6 1_555 1_555
C2_6 C1_6 1_555 1_555
C3_6 C2_6 1_555 1_555
C4_6 C2_6 1_555 1_555
C5_6 C3_6 1_555 1_555
H1_6 C3_6 1_555 1_555
C6_6 C4_6 1_555 1_555
H2_6 C4_6 1_555 1_555
C7_6 C5_6 1_555 1_555
C8_6 C5_6 1_555 1_555
C9_6 C6_6 1_555 1_555
H3_6 C7_6 1_555 1_555
C10_6 C8_6 1_555 1_555
C11_6 C8_6 1_555 1_555
C12_6 C10_6 1_555 1_555
H4_6 C10_6 1_555 1_555
C13_6 C11_6 1_555 1_555
H5_6 C11_6 1_555 1_555
C14_6 C12_6 1_555 1_555
C15_6 C12_6 1_555 1_555
C16_6 C13_6 1_555 1_555
H6_6 C15_6 1_555 1_555
O8_2 C1_6 1_555 1_555
O3_4 C9_6 1_555 1_555
O4_4 C9_6 1_555 1_555
O1 C14_6 1_555 1_555
O2 C14_6 1_555 1_555
O7_2 C16_6 1_555 1_555
O6_4 C16_6 1_555 1_555
C6_6 C7_6 1_555 1_555
C13_6 C15_6 1_555 1_555

#END
