
###############################################################################
#
# This file contains modified crystal structure data generated from the
# MOF subset of the Cambridge Structural Database (CSD) v543 
# hosted by the Cambridge Crystallographic Data Centre (CCDC).
#
# This work is licensed under the Creative Commons
# Attribution-NonCommercial-ShareAlike 4.0 International License.
# To view a copy of this license, visit
# http://creativecommons.org/licenses/by-nc-sa/4.0/
# or send a letter to
# Creative Commons, PO Box 1866, Mountain View, CA 94042, USA.
#
# CIF created using the CSD Python API on 29 September 2022
# The structure has been converted into the P1 space group
# The structure has a 3D framework
# The original CSD entry VATNEN is in the trigonal crystal system
# The original CSD entry VATNEN is in a Sohncke space group
# The framework has been calculated to contain at least 10.0% void space
# The void calculation uses a probe of radius 1.32A, grid spacing 0.4
#
###############################################################################

data_VATNEN
_chemical_formula_moiety         '(C108 H84 Ho2 N6 O44 2+)n'
_symmetry_cell_setting           triclinic
_symmetry_space_group_name_H-M   'P 1'
_symmetry_Int_Tables_number      1
_space_group_name_Hall           'P 1'
loop_
_symmetry_equiv_pos_site_id
_symmetry_equiv_pos_as_xyz
1 x,y,z
_cell_length_a                   13.72(3)
_cell_length_b                   13.72(3)
_cell_length_c                   22.85(6)
_cell_angle_alpha                90
_cell_angle_beta                 90
_cell_angle_gamma                120
_cell_volume                     3724.99
loop_
_atom_site_label
_atom_site_type_symbol
_atom_site_fract_x
_atom_site_fract_y
_atom_site_fract_z
Ho1 Ho 0.02746(8) 0.69394(8) 0.07707(3)
O1 O 0.0741(13) 0.5899(13) 0.0074(7)
O2 O 0.1813(12) 0.7653(12) 0.0069(6)
O4 O 0.1650(15) 0.6763(21) 0.1285(7)
O8 O 0.1444(13) 0.8750(12) 0.1130(7)
O3 O 0.9199(13) 0.5226(12) 0.1185(6)
O5 O 0.8727(21) 0.6003(15) 0.0107(7)
O6 O 0.9682(20) 0.7846(14) 0.0003(7)
O7 O 0.9021(16) 0.7234(21) 0.1289(6)
C1 C 0.8405(10) 0.4665(9) 0.1552(6)
C2 C 0.7454(8) 0.3605(8) 0.1384(4)
C3 C 0.7546(9) 0.3102(8) 0.0881(4)
C4 C 0.6472(7) 0.3168(8) 0.1704(4)
C5 C 0.6631(9) 0.2140(8) 0.0687(4)
H1 H 0.822232 0.341506 0.067641
C6 C 0.5547(6) 0.2178(7) 0.1492(3)
H2 H 0.642558 0.351309 0.204507
C7 C 0.6716(13) 0.1590(12) 0.0142(6)
C8 C 0.5644(7) 0.1687(8) 0.0988(4)
C9 C 0.4411(7) 0.1601(7) 0.1804(3)
H3 H 0.502333 0.103262 0.084963
C10 C 0.4315(8) 0.2036(8) 0.2331(4)
C11 C 0.3515(8) 0.0629(8) 0.1589(4)
C12 C 0.3319(10) 0.1493(9) 0.2640(4)
H4 H 0.491916 0.269347 0.247703
C13 C 0.2526(9) 0.0088(8) 0.1897(5)
H5 H 0.358072 0.033707 0.123338
C14 C 0.309(2) 0.203(2) 0.3154(10)
C15 C 0.2428(10) 0.0519(9) 0.2417(5)
H6 H 0.175396 0.015374 0.262369
O9 O 0.8350(15) 0.5113(26) 0.2048(7)
Ho2 Ho 0.97254(8) 0.66648(11) 0.25626(3)
O12 O 0.2154(14) 0.1836(24) 0.3336(7)
O13 O 0.3997(15) 0.2724(26) 0.3440(7)
Ho4 Ho 0.30606(8) 0.33352(11) 0.41040(3)
O10 O 0.7653(12) 0.1813(12) 0.9931(6)
O11 O 0.5899(13) 0.0741(13) 0.9926(7)
Ho3 Ho 0.69394(8) 0.02746(8) 0.92293(3)
C16 C 0.1590(19) 0.896(2) 0.1662(10)
O14 O 0.0979(16) 0.8213(26) 0.2044(6)
C16_2 C 0.104(2) 0.2630(28) 0.4995(10)
O14_2 O 0.1787(26) 0.2766(31) 0.5378(6)
O15 O 0.1250(12) 0.2694(18) 0.4463(7)
Ho5 Ho 0.33352(11) 0.30606(14) 0.58960(3)
O1_2 O 0.4101(13) 0.4842(18) 0.3407(7)
O2_2 O 0.2347(12) 0.4160(17) 0.3402(6)
O3_2 O 0.4774(12) 0.3973(18) 0.4518(6)
O4_2 O 0.3237(21) 0.4887(26) 0.4618(7)
O7_2 O 0.2766(21) 0.1787(26) 0.4622(6)
C1_2 C 0.5335(9) 0.3740(13) 0.4885(6)
C2_2 C 0.6395(8) 0.3849(11) 0.4717(4)
C3_2 C 0.6898(8) 0.4444(12) 0.4214(4)
C4_2 C 0.6832(8) 0.3304(11) 0.5037(4)
C5_2 C 0.7860(8) 0.4491(12) 0.4020(4)
H1_2 H 0.658494 0.480726 0.400974
C6_2 C 0.7822(7) 0.3369(9) 0.4825(3)
H2_2 H 0.648691 0.291249 0.537840
C7_2 C 0.8410(12) 0.5126(18) 0.3475(6)
C8_2 C 0.8313(8) 0.3957(11) 0.4321(4)
C9_2 C 0.8399(7) 0.2810(10) 0.5137(3)
H3_2 H 0.896738 0.399071 0.418296
C10_2 C 0.7964(8) 0.2279(11) 0.5664(4)
C11_2 C 0.9371(8) 0.2886(11) 0.4922(4)
C12_2 C 0.8507(9) 0.1826(13) 0.5973(4)
H4_2 H 0.730653 0.222569 0.581036
C13_2 C 0.9912(8) 0.2438(12) 0.5230(5)
H5_2 H 0.966293 0.324365 0.456671
C14_2 C 0.797(2) 0.106(3) 0.6487(10)
C15_2 C 0.9481(9) 0.1909(13) 0.5750(5)
H6_2 H 0.984626 0.160022 0.595702
O9_2 O 0.4887(26) 0.3237(30) 0.5382(7)
O10_2 O 0.8187(12) 0.5840(17) 0.3264(6)
O11_2 O 0.9259(13) 0.5158(18) 0.3259(7)
O12_2 O 0.8164(24) 0.0318(28) 0.6670(7)
O13_2 O 0.7276(26) 0.1273(30) 0.6774(7)
Ho4_2 Ho 0.66648(11) 0.97254(14) 0.74374(3)
O3_3 O 0.6027(18) 0.0801(13) 0.7852(6)
O7_3 O 0.8213(26) 0.0979(16) 0.7956(6)
C1_3 C 0.6260(13) 0.1595(10) 0.8219(6)
C2_3 C 0.6151(11) 0.2546(8) 0.8051(4)
C3_3 C 0.5556(12) 0.2454(9) 0.7548(4)
C4_3 C 0.6696(11) 0.3528(7) 0.8371(4)
C5_3 C 0.5509(12) 0.3369(9) 0.7354(4)
H1_3 H 0.519274 0.177768 0.734308
C6_3 C 0.6631(9) 0.4453(6) 0.8159(3)
H2_3 H 0.708751 0.357442 0.871174
C7_3 C 0.4874(18) 0.3284(13) 0.6809(6)
C8_3 C 0.6043(11) 0.4356(7) 0.7655(4)
C9_3 C 0.7190(10) 0.5589(7) 0.8471(3)
H3_3 H 0.600929 0.497667 0.751630
C10_3 C 0.7721(11) 0.5685(8) 0.8998(4)
C11_3 C 0.7114(11) 0.6485(8) 0.8256(4)
C12_3 C 0.8174(13) 0.6681(10) 0.9307(4)
H4_3 H 0.777431 0.508084 0.914370
C13_3 C 0.7562(12) 0.7474(9) 0.8564(5)
H5_3 H 0.675635 0.641928 0.790005
C14_3 C 0.894(3) 0.691(2) 0.9821(10)
C15_3 C 0.8091(13) 0.7572(10) 0.9084(5)
C16_3 C 0.7370(28) 0.8410(19) 0.8329(10)
H6_3 H 0.839978 0.824604 0.929036
O9_3 O 0.6763(30) 0.1650(15) 0.8715(7)
O10_3 O 0.4160(17) 0.2347(12) 0.6598(6)
O11_3 O 0.4842(18) 0.4101(13) 0.6593(7)
O14_3 O 0.7234(31) 0.9021(16) 0.8711(6)
O15_2 O 0.7306(18) 0.8556(13) 0.7797(7)
O1_3 O 0.5158(18) 0.9259(13) 0.6741(7)
O2_3 O 0.5840(17) 0.8187(12) 0.6736(6)
O4_3 O 0.5113(26) 0.8350(15) 0.7952(7)
O8_2 O 0.8750(12) 0.1444(13) 0.8870(7)
O3_4 O 0.5226(12) 0.9199(13) 0.8815(6)
O5_2 O 0.6003(15) 0.8727(21) 0.9893(7)
O6_2 O 0.7846(14) 0.9682(20) 0.9997(7)
C1_4 C 0.4665(9) 0.8405(10) 0.8448(6)
C2_4 C 0.3605(8) 0.7454(8) 0.8616(4)
C3_4 C 0.3102(8) 0.7546(9) 0.9119(4)
C4_4 C 0.3168(8) 0.6472(7) 0.8296(4)
C5_4 C 0.2140(8) 0.6631(9) 0.9313(4)
H1_4 H 0.341506 0.822232 0.932359
C6_4 C 0.2178(7) 0.5547(6) 0.8508(3)
H2_4 H 0.351309 0.642558 0.795493
C7_4 C 0.1590(12) 0.6716(13) 0.9858(6)
C8_4 C 0.1687(8) 0.5644(7) 0.9012(4)
C9_4 C 0.1601(7) 0.4411(7) 0.8196(3)
H3_4 H 0.103262 0.502333 0.915037
C10_4 C 0.2036(8) 0.4315(8) 0.7669(4)
C11_4 C 0.0629(8) 0.3515(8) 0.8411(4)
C12_4 C 0.1493(9) 0.3319(10) 0.7360(4)
H4_4 H 0.269347 0.491916 0.752297
C13_4 C 0.0088(8) 0.2526(9) 0.8103(5)
H5_4 H 0.033707 0.358072 0.876662
C14_4 C 0.203(2) 0.309(2) 0.6846(10)
C15_4 C 0.0519(9) 0.2428(10) 0.7583(5)
H6_4 H 0.015374 0.175396 0.737631
O12_3 O 0.1836(24) 0.2154(14) 0.6664(7)
O13_3 O 0.2724(26) 0.3997(15) 0.6560(7)
C16_4 C 0.896(2) 0.1590(19) 0.8338(10)
C16_5 C 0.2630(28) 0.104(2) 0.5005(10)
O15_3 O 0.2694(18) 0.1250(12) 0.5537(7)
O3_5 O 0.3973(18) 0.4774(12) 0.5482(6)
C1_5 C 0.3740(13) 0.5335(9) 0.5115(6)
C2_5 C 0.3849(11) 0.6395(8) 0.5283(4)
C3_5 C 0.4444(12) 0.6898(8) 0.5786(4)
C4_5 C 0.3304(11) 0.6832(8) 0.4963(4)
C5_5 C 0.4491(12) 0.7860(8) 0.5980(4)
H1_5 H 0.480726 0.658494 0.599026
C6_5 C 0.3369(9) 0.7822(7) 0.5175(3)
H2_5 H 0.291249 0.648691 0.462160
C7_5 C 0.5126(18) 0.8410(12) 0.6525(6)
C8_5 C 0.3957(11) 0.8313(8) 0.5679(4)
C9_5 C 0.2810(10) 0.8399(7) 0.4863(3)
H3_5 H 0.399071 0.896738 0.581704
C10_5 C 0.2279(11) 0.7964(8) 0.4336(4)
C11_5 C 0.2886(11) 0.9371(8) 0.5078(4)
C12_5 C 0.1826(13) 0.8507(9) 0.4027(4)
H4_5 H 0.222569 0.730653 0.418964
C13_5 C 0.2438(12) 0.9912(8) 0.4770(5)
H5_5 H 0.324365 0.966293 0.543329
C14_5 C 0.106(3) 0.797(2) 0.3513(10)
C15_5 C 0.1909(13) 0.9481(9) 0.4250(5)
H6_5 H 0.160022 0.984626 0.404298
O12_4 O 0.0318(28) 0.8164(24) 0.3330(7)
O13_4 O 0.1273(30) 0.7276(26) 0.3226(7)
O3_6 O 0.0801(13) 0.6027(18) 0.2148(6)
C1_6 C 0.1595(10) 0.6260(13) 0.1781(6)
C2_6 C 0.2546(8) 0.6151(11) 0.1949(4)
C3_6 C 0.2454(9) 0.5556(12) 0.2452(4)
C4_6 C 0.3528(7) 0.6696(11) 0.1629(4)
C5_6 C 0.3369(9) 0.5509(12) 0.2646(4)
H1_6 H 0.177768 0.519274 0.265692
C6_6 C 0.4453(6) 0.6631(9) 0.1841(3)
H2_6 H 0.357442 0.708751 0.128826
C7_6 C 0.3284(13) 0.4874(18) 0.3191(6)
C8_6 C 0.4356(7) 0.6043(11) 0.2345(4)
C9_6 C 0.5589(7) 0.7190(10) 0.1529(3)
H3_6 H 0.497667 0.600929 0.248370
C10_6 C 0.5685(8) 0.7721(11) 0.1002(4)
C11_6 C 0.6485(8) 0.7114(11) 0.1744(4)
C12_6 C 0.6681(10) 0.8174(13) 0.0693(4)
H4_6 H 0.508084 0.777431 0.085630
C13_6 C 0.7474(9) 0.7562(12) 0.1436(5)
H5_6 H 0.641928 0.675635 0.209995
C14_6 C 0.691(2) 0.894(3) 0.0179(10)
C15_6 C 0.7572(10) 0.8091(13) 0.0916(5)
C16_6 C 0.8410(19) 0.7370(28) 0.1671(10)
H6_6 H 0.824604 0.839978 0.070964
O15_4 O 0.8556(13) 0.7306(18) 0.2203(7)
C18 C 0.289(3) 0.565(3) 0.0371(13)
H10 H 0.279428 0.624355 0.053127
H11 H 0.316147 0.535452 0.067178
H12 H 0.218902 0.506452 0.022304
H13 H 0.438037 0.660622 0.004131
C17 C 0.381(3) 0.520(2) 0.9602(13)
H7 H 0.320225 0.481136 0.933124
H8 H 0.378972 0.467195 0.988799
H9 H 0.451528 0.551841 0.939377
N1 N 0.371(2) 0.6099(18) 0.9898(10)
H14 H 0.350294 0.644422 0.963931
C17_2 C 0.480(2) 0.861(4) 0.2935(13)
H7_2 H 0.518864 0.839089 0.266457
H8_2 H 0.532805 0.911777 0.322132
H9_2 H 0.448159 0.899687 0.272710
C18_2 C 0.435(3) 0.724(4) 0.3704(13)
H10_2 H 0.375645 0.655073 0.386460
H11_2 H 0.464548 0.780695 0.400511
H12_2 H 0.493548 0.712450 0.355637
N1_2 N 0.3901(18) 0.7611(27) 0.3231(10)
H13_2 H 0.339378 0.777415 0.337464
H14_2 H 0.355578 0.705872 0.297264
C17_3 C 0.139(4) 0.619(3) 0.6269(13)
H7_3 H 0.160911 0.679775 0.599791
H8_3 H 0.088223 0.621028 0.655466
H9_3 H 0.100313 0.548472 0.606044
C18_3 C 0.276(4) 0.711(3) 0.7038(13)
H10_3 H 0.344927 0.720572 0.719794
H11_3 H 0.219305 0.683853 0.733845
H12_3 H 0.287550 0.781098 0.688971
N1_3 N 0.2389(27) 0.629(2) 0.6565(10)
H13_3 H 0.222585 0.561963 0.670798
H14_3 H 0.294128 0.649706 0.630598
C17_4 C 0.520(2) 0.381(3) 0.0398(13)
H7_4 H 0.481136 0.320225 0.066876
H8_4 H 0.467195 0.378972 0.011201
H9_4 H 0.551841 0.451528 0.060623
N1_4 N 0.6099(18) 0.371(2) 0.0102(10)
H14_4 H 0.644422 0.350294 0.036069
C18_4 C 0.565(3) 0.289(3) 0.9629(13)
H10_4 H 0.624355 0.279428 0.946873
H11_4 H 0.535452 0.316147 0.932822
H12_4 H 0.506452 0.218902 0.977696
H13_4 H 0.660622 0.438037 0.995869
C17_5 C 0.861(4) 0.480(2) 0.7065(13)
H7_5 H 0.839089 0.518864 0.733543
H8_5 H 0.911777 0.532805 0.677868
H9_5 H 0.899687 0.448159 0.727290
C18_5 C 0.724(4) 0.435(3) 0.6296(13)
H10_5 H 0.655073 0.375645 0.613540
H11_5 H 0.780695 0.464548 0.599489
H12_5 H 0.712450 0.493548 0.644363
N1_5 N 0.7611(27) 0.3901(18) 0.6769(10)
H13_5 H 0.777415 0.339378 0.662536
H14_5 H 0.705872 0.355578 0.702736
C17_6 C 0.619(3) 0.139(4) 0.3731(13)
H7_6 H 0.679775 0.160911 0.400209
H8_6 H 0.621028 0.088223 0.344534
H9_6 H 0.548472 0.100313 0.393956
C18_6 C 0.711(3) 0.276(4) 0.2962(13)
H10_6 H 0.720572 0.344927 0.280206
H11_6 H 0.683853 0.219305 0.266155
H12_6 H 0.781098 0.287550 0.311029
N1_6 N 0.629(2) 0.2389(27) 0.3435(10)
H13_6 H 0.561963 0.222585 0.329202
H14_6 H 0.649706 0.294128 0.369402
loop_
_geom_bond_atom_site_label_1
_geom_bond_atom_site_label_2
_geom_bond_site_symmetry_1
_geom_bond_site_symmetry_2
Ho1 O1 1_555 1_555
O2 Ho1 1_555 1_555
O4 Ho1 1_555 1_555
O8 Ho1 1_555 1_555
C1 O3 1_555 1_555
C2 C1 1_555 1_555
C3 C2 1_555 1_555
C4 C2 1_555 1_555
C5 C3 1_555 1_555
H1 C3 1_555 1_555
C6 C4 1_555 1_555
H2 C4 1_555 1_555
C7 C5 1_555 1_555
C8 C5 1_555 1_555
C9 C6 1_555 1_555
H3 C8 1_555 1_555
C10 C9 1_555 1_555
C11 C9 1_555 1_555
C12 C10 1_555 1_555
H4 C10 1_555 1_555
C13 C11 1_555 1_555
H5 C11 1_555 1_555
C14 C12 1_555 1_555
C15 C12 1_555 1_555
H6 C15 1_555 1_555
O9 C1 1_555 1_555
Ho2 O9 1_555 1_555
O12 C14 1_555 1_555
O13 C14 1_555 1_555
Ho4 O12 1_555 1_555
C6 C8 1_555 1_555
C13 C15 1_555 1_555
O13 Ho4 1_555 1_555
Ho3 O10 1_555 1_555
O11 Ho3 1_555 1_555
O14 C16 1_555 1_555
O8 C16 1_555 1_555
O14_2 C16_2 1_555 1_555
O15 C16_2 1_555 1_555
Ho5 O14_2 1_555 1_555
Ho4 O15 1_555 1_555
Ho4 O1_2 1_555 1_555
O2_2 Ho4 1_555 1_555
O3_2 Ho4 1_555 1_555
O4_2 Ho4 1_555 1_555
O7_2 Ho4 1_555 1_555
C1_2 O3_2 1_555 1_555
C2_2 C1_2 1_555 1_555
C3_2 C2_2 1_555 1_555
C4_2 C2_2 1_555 1_555
C5_2 C3_2 1_555 1_555
H1_2 C3_2 1_555 1_555
C6_2 C4_2 1_555 1_555
H2_2 C4_2 1_555 1_555
C7_2 C5_2 1_555 1_555
C8_2 C5_2 1_555 1_555
C9_2 C6_2 1_555 1_555
H3_2 C8_2 1_555 1_555
C10_2 C9_2 1_555 1_555
C11_2 C9_2 1_555 1_555
C12_2 C10_2 1_555 1_555
H4_2 C10_2 1_555 1_555
C13_2 C11_2 1_555 1_555
H5_2 C11_2 1_555 1_555
C14_2 C12_2 1_555 1_555
C15_2 C12_2 1_555 1_555
H6_2 C15_2 1_555 1_555
O9_2 C1_2 1_555 1_555
Ho5 O9_2 1_555 1_555
O10_2 C7_2 1_555 1_555
O11_2 C7_2 1_555 1_555
Ho2 O10_2 1_555 1_555
O12_2 C14_2 1_555 1_555
O13_2 C14_2 1_555 1_555
C6_2 C8_2 1_555 1_555
C13_2 C15_2 1_555 1_555
O11_2 Ho2 1_555 1_555
C1_3 O3_3 1_555 1_555
C2_3 C1_3 1_555 1_555
C3_3 C2_3 1_555 1_555
C4_3 C2_3 1_555 1_555
C5_3 C3_3 1_555 1_555
H1_3 C3_3 1_555 1_555
C6_3 C4_3 1_555 1_555
H2_3 C4_3 1_555 1_555
C7_3 C5_3 1_555 1_555
C8_3 C5_3 1_555 1_555
C9_3 C6_3 1_555 1_555
H3_3 C8_3 1_555 1_555
C10_3 C9_3 1_555 1_555
C11_3 C9_3 1_555 1_555
C12_3 C10_3 1_555 1_555
H4_3 C10_3 1_555 1_555
C13_3 C11_3 1_555 1_555
H5_3 C11_3 1_555 1_555
C14_3 C12_3 1_555 1_555
C15_3 C12_3 1_555 1_555
C16_3 C13_3 1_555 1_555
H6_3 C15_3 1_555 1_555
O9_3 C1_3 1_555 1_555
Ho3 O9_3 1_555 1_555
O10_3 C7_3 1_555 1_555
O11_3 C7_3 1_555 1_555
Ho5 O10_3 1_555 1_555
O14_3 C16_3 1_555 1_555
O15_2 C16_3 1_555 1_555
Ho4_2 O15_2 1_555 1_555
C6_3 C8_3 1_555 1_555
C13_3 C15_3 1_555 1_555
O11_3 Ho5 1_555 1_555
Ho4_2 O1_3 1_555 1_555
O2_3 Ho4_2 1_555 1_555
O4_3 Ho4_2 1_555 1_555
O8_2 Ho3 1_555 1_555
C1_4 O3_4 1_555 1_555
C2_4 C1_4 1_555 1_555
C3_4 C2_4 1_555 1_555
C4_4 C2_4 1_555 1_555
C5_4 C3_4 1_555 1_555
H1_4 C3_4 1_555 1_555
C6_4 C4_4 1_555 1_555
H2_4 C4_4 1_555 1_555
C7_4 C5_4 1_555 1_555
C8_4 C5_4 1_555 1_555
C9_4 C6_4 1_555 1_555
H3_4 C8_4 1_555 1_555
C10_4 C9_4 1_555 1_555
C11_4 C9_4 1_555 1_555
C12_4 C10_4 1_555 1_555
H4_4 C10_4 1_555 1_555
C13_4 C11_4 1_555 1_555
H5_4 C11_4 1_555 1_555
C14_4 C12_4 1_555 1_555
C15_4 C12_4 1_555 1_555
H6_4 C15_4 1_555 1_555
O4_3 C1_4 1_555 1_555
O12_3 C14_4 1_555 1_555
O13_3 C14_4 1_555 1_555
Ho5 O12_3 1_555 1_555
C6_4 C8_4 1_555 1_555
C13_4 C15_4 1_555 1_555
O13_3 Ho5 1_555 1_555
O7_3 C16_4 1_555 1_555
O8_2 C16_4 1_555 1_555
O7_2 C16_5 1_555 1_555
O15_3 C16_5 1_555 1_555
Ho5 O15_3 1_555 1_555
O3_5 Ho5 1_555 1_555
C1_5 O3_5 1_555 1_555
C2_5 C1_5 1_555 1_555
C3_5 C2_5 1_555 1_555
C4_5 C2_5 1_555 1_555
C5_5 C3_5 1_555 1_555
H1_5 C3_5 1_555 1_555
C6_5 C4_5 1_555 1_555
H2_5 C4_5 1_555 1_555
C7_5 C5_5 1_555 1_555
C8_5 C5_5 1_555 1_555
C9_5 C6_5 1_555 1_555
H3_5 C8_5 1_555 1_555
C10_5 C9_5 1_555 1_555
C11_5 C9_5 1_555 1_555
C12_5 C10_5 1_555 1_555
H4_5 C10_5 1_555 1_555
C13_5 C11_5 1_555 1_555
H5_5 C11_5 1_555 1_555
C14_5 C12_5 1_555 1_555
C15_5 C12_5 1_555 1_555
H6_5 C15_5 1_555 1_555
O4_2 C1_5 1_555 1_555
O2_3 C7_5 1_555 1_555
O1_3 C7_5 1_555 1_555
O12_4 C14_5 1_555 1_555
O13_4 C14_5 1_555 1_555
C6_5 C8_5 1_555 1_555
C13_5 C15_5 1_555 1_555
C1_6 O3_6 1_555 1_555
C2_6 C1_6 1_555 1_555
C3_6 C2_6 1_555 1_555
C4_6 C2_6 1_555 1_555
C5_6 C3_6 1_555 1_555
H1_6 C3_6 1_555 1_555
C6_6 C4_6 1_555 1_555
H2_6 C4_6 1_555 1_555
C7_6 C5_6 1_555 1_555
C8_6 C5_6 1_555 1_555
C9_6 C6_6 1_555 1_555
H3_6 C8_6 1_555 1_555
C10_6 C9_6 1_555 1_555
C11_6 C9_6 1_555 1_555
C12_6 C10_6 1_555 1_555
H4_6 C10_6 1_555 1_555
C13_6 C11_6 1_555 1_555
H5_6 C11_6 1_555 1_555
C14_6 C12_6 1_555 1_555
C15_6 C12_6 1_555 1_555
C16_6 C13_6 1_555 1_555
H6_6 C15_6 1_555 1_555
O4 C1_6 1_555 1_555
O2_2 C7_6 1_555 1_555
O1_2 C7_6 1_555 1_555
O7 C16_6 1_555 1_555
O15_4 C16_6 1_555 1_555
Ho2 O15_4 1_555 1_555
C6_6 C8_6 1_555 1_555
C13_6 C15_6 1_555 1_555
C18 H10 1_555 1_555
H11 C18 1_555 1_555
H12 C18 1_555 1_555
C17 H7 1_555 1_555
H8 C17 1_555 1_555
H9 C17 1_555 1_555
N1 C17 1_555 1_555
H14 N1 1_555 1_555
C17_2 H7_2 1_555 1_555
H8_2 C17_2 1_555 1_555
H9_2 C17_2 1_555 1_555
C18_2 H10_2 1_555 1_555
H11_2 C18_2 1_555 1_555
H12_2 C18_2 1_555 1_555
N1_2 C17_2 1_555 1_555
H13_2 N1_2 1_555 1_555
H14_2 N1_2 1_555 1_555
C18_2 N1_2 1_555 1_555
C17_3 H7_3 1_555 1_555
H8_3 C17_3 1_555 1_555
H9_3 C17_3 1_555 1_555
C18_3 H10_3 1_555 1_555
H11_3 C18_3 1_555 1_555
H12_3 C18_3 1_555 1_555
N1_3 C17_3 1_555 1_555
H13_3 N1_3 1_555 1_555
H14_3 N1_3 1_555 1_555
C18_3 N1_3 1_555 1_555
C17_4 H7_4 1_555 1_555
H8_4 C17_4 1_555 1_555
H9_4 C17_4 1_555 1_555
N1_4 C17_4 1_555 1_555
H14_4 N1_4 1_555 1_555
C18_4 H10_4 1_555 1_555
H11_4 C18_4 1_555 1_555
H12_4 C18_4 1_555 1_555
C17_5 H7_5 1_555 1_555
H8_5 C17_5 1_555 1_555
H9_5 C17_5 1_555 1_555
C18_5 H10_5 1_555 1_555
H11_5 C18_5 1_555 1_555
H12_5 C18_5 1_555 1_555
N1_5 C17_5 1_555 1_555
H13_5 N1_5 1_555 1_555
H14_5 N1_5 1_555 1_555
C18_5 N1_5 1_555 1_555
C17_6 H7_6 1_555 1_555
H8_6 C17_6 1_555 1_555
H9_6 C17_6 1_555 1_555
C18_6 H10_6 1_555 1_555
H11_6 C18_6 1_555 1_555
H12_6 C18_6 1_555 1_555
N1_6 C17_6 1_555 1_555
H13_6 N1_6 1_555 1_555
H14_6 N1_6 1_555 1_555
C18_6 N1_6 1_555 1_555

#END
