
###############################################################################
#
# This file contains modified crystal structure data generated from the
# MOF subset of the Cambridge Structural Database (CSD) v543 
# hosted by the Cambridge Crystallographic Data Centre (CCDC).
#
# This work is licensed under the Creative Commons
# Attribution-NonCommercial-ShareAlike 4.0 International License.
# To view a copy of this license, visit
# http://creativecommons.org/licenses/by-nc-sa/4.0/
# or send a letter to
# Creative Commons, PO Box 1866, Mountain View, CA 94042, USA.
#
# CIF created using the CSD Python API on 29 September 2022
# The structure has been converted into the P1 space group
# The structure has a 3D framework
# The original CSD entry VATNIQ is in the cubic crystal system
# The framework has been calculated to contain at least 10.0% void space
# The void calculation uses a probe of radius 1.32A, grid spacing 0.4
# The framework is charged, counterions have been retained in the structure
#
###############################################################################

data_VATNIQ
_chemical_formula_moiety         '(C144 H48 O4 Pb24 S48 6-)n'
_symmetry_cell_setting           triclinic
_symmetry_space_group_name_H-M   'P 1'
_symmetry_Int_Tables_number      1
_space_group_name_Hall           'P 1'
loop_
_symmetry_equiv_pos_site_id
_symmetry_equiv_pos_as_xyz
1 x,y,z
_cell_length_a                   19.88410(10)
_cell_length_b                   19.88410(10)
_cell_length_c                   19.88410(10)
_cell_angle_alpha                90
_cell_angle_beta                 90
_cell_angle_gamma                90
_cell_volume                     7861.72
loop_
_atom_site_label
_atom_site_type_symbol
_atom_site_fract_x
_atom_site_fract_y
_atom_site_fract_z
S7 S 0.03164(17) 0.82283(15) 0.04536(16)
H7 H 0.1193 0.7150 0.0237
Pb9 Pb 0.38299(2) 0.47063(2) 0.08982(2)
S12 S 0.29992(14) 0.57573(15) 0.08459(15)
C34 C 0.2471(5) 0.5642(5) 0.0143(6)
C36 C 0.1946(5) 0.6109(5) 0.0066(6)
H12 H 0.1902 0.6454 0.0379
O5 O 0.4614(4) 0.5386(4) 0.0386(4)
Pb1 Pb 0.11701(2) 0.52937(2) 0.58982(2)
O1 O 0.0386(4) 0.4614(4) 0.5386(4)
S1 S 0.17717(15) 0.54536(16) 0.46836(17)
S2 S 0.20008(14) 0.42427(15) 0.58459(15)
C1 C 0.2426(6) 0.4888(6) 0.4638(6)
C2 C 0.2529(5) 0.4358(5) 0.5143(6)
C3 C 0.2899(5) 0.4901(6) 0.4129(6)
C4 C 0.3054(5) 0.3891(5) 0.5066(6)
C5 C 0.3444(6) 0.4465(6) 0.4044(6)
H1 H 0.2850 0.5237 0.3807
H2 H 0.3098 0.3546 0.5379
C6 C 0.3510(6) 0.3932(6) 0.4534(6)
S3 S 0.46836(17) 0.17717(15) 0.54536(16)
S4 S 0.58459(15) 0.20008(14) 0.42427(15)
C7 C 0.4638(6) 0.2426(6) 0.4888(6)
C8 C 0.5143(6) 0.2529(5) 0.4358(5)
C9 C 0.4129(6) 0.2899(5) 0.4901(6)
C10 C 0.5066(6) 0.3054(5) 0.3891(5)
C11 C 0.4044(6) 0.3444(6) 0.4465(6)
H3 H 0.3807 0.2850 0.5237
H4 H 0.5379 0.3098 0.3546
C12 C 0.4534(6) 0.3510(6) 0.3932(6)
S5 S 0.54536(16) 0.46836(17) 0.17717(15)
S6 S 0.42427(15) 0.58459(15) 0.20008(14)
C13 C 0.4888(6) 0.4638(6) 0.2426(6)
C14 C 0.4358(5) 0.5143(6) 0.2529(5)
C15 C 0.4901(6) 0.4129(6) 0.2899(5)
C16 C 0.3891(5) 0.5066(6) 0.3054(5)
C17 C 0.4465(6) 0.4044(6) 0.3444(6)
H5 H 0.5237 0.3807 0.2850
H6 H 0.3546 0.5379 0.3098
C18 C 0.3932(6) 0.4534(6) 0.3510(6)
Pb2 Pb 0.58982(2) 0.11701(2) 0.52937(2)
Pb3 Pb 0.52937(2) 0.58982(2) 0.11701(2)
Pb4 Pb 0.08982(2) 0.38299(2) 0.47063(2)
O3 O 0.5386(4) 0.0386(4) 0.4614(4)
Pb7 Pb 0.02937(2) 0.91018(2) 0.88299(2)
C19 C 0.0362(6) 0.7574(6) 0.9888(6)
C21 C 0.0871(6) 0.7101(5) 0.9901(6)
C23 C 0.0956(6) 0.6556(6) 0.9465(6)
C24 C 0.0466(6) 0.6490(6) 0.8932(6)
C25 C 0.1490(6) 0.6068(6) 0.9534(6)
C26 C 0.0535(6) 0.5956(6) 0.8444(6)
C27 C 0.0112(6) 0.5362(6) 0.7426(6)
S10 S 0.07573(15) 0.41541(15) 0.70008(14)
C28 C 0.0642(5) 0.4857(6) 0.7529(5)
C29 C 0.0099(6) 0.5871(6) 0.7899(5)
C30 C 0.1109(5) 0.4934(6) 0.8054(5)
H10 H 0.1454 0.4621 0.8098
C31 C 0.1068(6) 0.5466(6) 0.8510(6)
C32 C 0.1556(6) 0.5535(6) 0.9044(6)
S11 S 0.32283(15) 0.45464(16) 0.96836(17)
C33 C 0.2574(6) 0.5112(6) 0.9638(6)
C35 C 0.2101(5) 0.5099(6) 0.9129(6)
H11 H 0.2150 0.4763 0.8807
Pb8 Pb 0.88299(2) 0.02937(2) 0.91018(2)
Pb6 Pb 0.91018(2) 0.88299(2) 0.02937(2)
Pb5 Pb 0.97063(2) 0.41018(2) 0.61701(2)
O4 O 0.9614(4) 0.9614(4) 0.9614(4)
S8 S 0.91541(15) 0.79992(14) 0.92427(15)
C20 C 0.9857(6) 0.7471(5) 0.9358(5)
C22 C 0.9934(6) 0.6946(5) 0.8891(5)
H8 H 0.9621 0.6902 0.8546
S9 S 0.95464(16) 0.53164(17) 0.67717(15)
H9 H 0.9763 0.6193 0.7850
Pb7_2 Pb 0.47063(2) 0.08982(2) 0.38299(2)
Pb4_2 Pb 0.41018(2) 0.61701(2) 0.97063(2)
Pb8_2 Pb 0.61701(2) 0.97063(2) 0.41018(2)
S8_2 S 0.08459(15) 0.29992(14) 0.57573(15)
C20_2 C 0.0143(6) 0.2471(5) 0.5642(5)
C22_2 C 0.0066(6) 0.1946(5) 0.6109(5)
H8_2 H 0.0379 0.1902 0.6454
S9_2 S 0.04536(16) 0.03164(17) 0.82283(15)
H9_2 H 0.0237 0.1193 0.7150
S1_2 S 0.82283(15) 0.04536(16) 0.03164(17)
H1_2 H 0.7150 0.0237 0.1193
S6_2 S 0.57573(15) 0.08459(15) 0.29992(14)
C14_2 C 0.5642(5) 0.0143(6) 0.2471(5)
C16_2 C 0.6109(5) 0.0066(6) 0.1946(5)
H6_2 H 0.6454 0.0379 0.1902
S7_2 S 0.96836(17) 0.32283(15) 0.45464(16)
C19_2 C 0.9638(6) 0.2574(6) 0.5112(6)
C21_2 C 0.9129(6) 0.2101(5) 0.5099(6)
C23_2 C 0.9044(6) 0.1556(6) 0.5535(6)
H7_2 H 0.8807 0.2150 0.4763
C24_2 C 0.9534(6) 0.1490(6) 0.6068(6)
C25_2 C 0.8510(6) 0.1068(6) 0.5466(6)
C26_2 C 0.9465(6) 0.0956(6) 0.6556(6)
C27_2 C 0.9888(6) 0.0362(6) 0.7574(6)
C29_2 C 0.9901(6) 0.0871(6) 0.7101(5)
C31_2 C 0.8932(6) 0.0466(6) 0.6490(6)
C32_2 C 0.8444(6) 0.0535(6) 0.5956(6)
C33_2 C 0.7426(6) 0.0112(6) 0.5362(6)
S12_2 S 0.70008(14) 0.07573(15) 0.41541(15)
C34_2 C 0.7529(5) 0.0642(5) 0.4857(6)
C35_2 C 0.7899(5) 0.0099(6) 0.5871(6)
C36_2 C 0.8054(5) 0.1109(5) 0.4934(6)
H12_2 H 0.8098 0.1454 0.4621
C1_2 C 0.7574(6) 0.9888(6) 0.0362(6)
C3_2 C 0.7101(5) 0.9901(6) 0.0871(6)
C5_2 C 0.6556(6) 0.9465(6) 0.0956(6)
C6_2 C 0.6490(6) 0.8932(6) 0.0466(6)
S4_2 S 0.41541(15) 0.70008(14) 0.07573(15)
C7_2 C 0.5362(6) 0.7426(6) 0.0112(6)
C8_2 C 0.4857(6) 0.7529(5) 0.0642(5)
C9_2 C 0.5871(6) 0.7899(5) 0.0099(6)
C10_2 C 0.4934(6) 0.8054(5) 0.1109(5)
C11_2 C 0.5956(6) 0.8444(6) 0.0535(6)
H4_2 H 0.4621 0.8098 0.1454
C12_2 C 0.5466(6) 0.8510(6) 0.1068(6)
S5_2 S 0.45464(16) 0.96836(17) 0.32283(15)
C13_2 C 0.5112(6) 0.9638(6) 0.2574(6)
C15_2 C 0.5099(6) 0.9129(6) 0.2101(5)
C17_2 C 0.5535(6) 0.9044(6) 0.1556(6)
H5_2 H 0.4763 0.8807 0.2150
C18_2 C 0.6068(6) 0.9534(6) 0.1490(6)
S2_2 S 0.79992(14) 0.92427(15) 0.91541(15)
C2_2 C 0.7471(5) 0.9358(5) 0.9857(6)
C4_2 C 0.6946(5) 0.8891(5) 0.9934(6)
H2_2 H 0.6902 0.8546 0.9621
S3_2 S 0.53164(17) 0.67717(15) 0.95464(16)
H3_2 H 0.6193 0.7850 0.9763
S10_2 S 0.92427(15) 0.91541(15) 0.79992(14)
C28_2 C 0.9358(5) 0.9857(6) 0.7471(5)
C30_2 C 0.8891(5) 0.9934(6) 0.6946(5)
H10_2 H 0.8546 0.9621 0.6902
S11_2 S 0.67717(15) 0.95464(16) 0.53164(17)
H11_2 H 0.7850 0.9763 0.6193
Pb5_2 Pb 0.02937(2) 0.58982(2) 0.38299(2)
O4_2 O 0.0386(4) 0.0386(4) 0.0386(4)
S8_3 S 0.08459(15) 0.20008(14) 0.07573(15)
C20_3 C 0.0143(6) 0.2529(5) 0.0642(5)
C22_3 C 0.0066(6) 0.3054(5) 0.1109(5)
H8_3 H 0.0379 0.3098 0.1454
S9_3 S 0.04536(16) 0.46836(17) 0.32283(15)
H9_3 H 0.0237 0.3807 0.2150
Pb6_2 Pb 0.08982(2) 0.11701(2) 0.97063(2)
Pb8_3 Pb 0.11701(2) 0.97063(2) 0.08982(2)
Pb1_2 Pb 0.88299(2) 0.47063(2) 0.41018(2)
O1_2 O 0.9614(4) 0.5386(4) 0.4614(4)
S1_3 S 0.82283(15) 0.45464(16) 0.53164(17)
S2_3 S 0.79992(14) 0.57573(15) 0.41541(15)
C1_3 C 0.7574(6) 0.5112(6) 0.5362(6)
C2_3 C 0.7471(5) 0.5642(5) 0.4857(6)
C3_3 C 0.7101(5) 0.5099(6) 0.5871(6)
C4_3 C 0.6946(5) 0.6109(5) 0.4934(6)
C5_3 C 0.6556(6) 0.5535(6) 0.5956(6)
H1_3 H 0.7150 0.4763 0.6193
H2_3 H 0.6902 0.6454 0.4621
C6_3 C 0.6490(6) 0.6068(6) 0.5466(6)
S3_3 S 0.53164(17) 0.82283(15) 0.45464(16)
S4_3 S 0.41541(15) 0.79992(14) 0.57573(15)
C7_3 C 0.5362(6) 0.7574(6) 0.5112(6)
C8_3 C 0.4857(6) 0.7471(5) 0.5642(5)
C9_3 C 0.5871(6) 0.7101(5) 0.5099(6)
C10_3 C 0.4934(6) 0.6946(5) 0.6109(5)
C11_3 C 0.5956(6) 0.6556(6) 0.5535(6)
H3_3 H 0.6193 0.7150 0.4763
H4_3 H 0.4621 0.6902 0.6454
C12_3 C 0.5466(6) 0.6490(6) 0.6068(6)
S5_3 S 0.45464(16) 0.53164(17) 0.82283(15)
S6_3 S 0.57573(15) 0.41541(15) 0.79992(14)
C13_3 C 0.5112(6) 0.5362(6) 0.7574(6)
C14_3 C 0.5642(5) 0.4857(6) 0.7471(5)
C15_3 C 0.5099(6) 0.5871(6) 0.7101(5)
C16_3 C 0.6109(5) 0.4934(6) 0.6946(5)
C17_3 C 0.5535(6) 0.5956(6) 0.6556(6)
H5_3 H 0.4763 0.6193 0.7150
H6_3 H 0.6454 0.4621 0.6902
C18_3 C 0.6068(6) 0.5466(6) 0.6490(6)
Pb2_2 Pb 0.41018(2) 0.88299(2) 0.47063(2)
Pb3_2 Pb 0.47063(2) 0.41018(2) 0.88299(2)
Pb4_3 Pb 0.91018(2) 0.61701(2) 0.52937(2)
O2 O 0.5386(4) 0.4614(4) 0.9614(4)
O3_2 O 0.4614(4) 0.9614(4) 0.5386(4)
Pb7_3 Pb 0.97063(2) 0.08982(2) 0.11701(2)
C19_3 C 0.9638(6) 0.2426(6) 0.0112(6)
C21_3 C 0.9129(6) 0.2899(5) 0.0099(6)
C23_3 C 0.9044(6) 0.3444(6) 0.0535(6)
C24_3 C 0.9534(6) 0.3510(6) 0.1068(6)
C25_3 C 0.8510(6) 0.3932(6) 0.0466(6)
C26_3 C 0.9465(6) 0.4044(6) 0.1556(6)
C27_3 C 0.9888(6) 0.4638(6) 0.2574(6)
S10_3 S 0.92427(15) 0.58459(15) 0.29992(14)
C28_3 C 0.9358(5) 0.5143(6) 0.2471(5)
C29_3 C 0.9901(6) 0.4129(6) 0.2101(5)
C30_3 C 0.8891(5) 0.5066(6) 0.1946(5)
H10_3 H 0.8546 0.5379 0.1902
C31_3 C 0.8932(6) 0.4534(6) 0.1490(6)
C32_3 C 0.8444(6) 0.4465(6) 0.0956(6)
S11_3 S 0.67717(15) 0.54536(16) 0.03164(17)
C33_3 C 0.7426(6) 0.4888(6) 0.0362(6)
C35_3 C 0.7899(5) 0.4901(6) 0.0871(6)
H11_3 H 0.7850 0.5237 0.1193
S7_3 S 0.96836(17) 0.17717(15) 0.95464(16)
H7_3 H 0.8807 0.2850 0.9763
Pb9_2 Pb 0.61701(2) 0.52937(2) 0.91018(2)
S12_3 S 0.70008(14) 0.42427(15) 0.91541(15)
C34_3 C 0.7529(5) 0.4358(5) 0.9857(6)
C36_3 C 0.8054(5) 0.3891(5) 0.9934(6)
H12_3 H 0.8098 0.3546 0.9621
Pb8_4 Pb 0.38299(2) 0.02937(2) 0.58982(2)
Pb4_4 Pb 0.58982(2) 0.38299(2) 0.02937(2)
Pb7_4 Pb 0.52937(2) 0.91018(2) 0.61701(2)
S2_4 S 0.20008(14) 0.07573(15) 0.08459(15)
C2_4 C 0.2529(5) 0.0642(5) 0.0143(6)
C4_4 C 0.3054(5) 0.1109(5) 0.0066(6)
H2_4 H 0.3098 0.1454 0.0379
S3_4 S 0.46836(17) 0.32283(15) 0.04536(16)
H3_4 H 0.3807 0.2150 0.0237
S10_4 S 0.07573(15) 0.08459(15) 0.20008(14)
C28_4 C 0.0642(5) 0.0143(6) 0.2529(5)
C30_4 C 0.1109(5) 0.0066(6) 0.3054(5)
H10_4 H 0.1454 0.0379 0.3098
S11_4 S 0.32283(15) 0.04536(16) 0.46836(17)
H11_4 H 0.2150 0.0237 0.3807
C1_4 C 0.2426(6) 0.0112(6) 0.9638(6)
C3_4 C 0.2899(5) 0.0099(6) 0.9129(6)
C5_4 C 0.3444(6) 0.0535(6) 0.9044(6)
C6_4 C 0.3510(6) 0.1068(6) 0.9534(6)
S4_4 S 0.58459(15) 0.29992(14) 0.92427(15)
C7_4 C 0.4638(6) 0.2574(6) 0.9888(6)
C8_4 C 0.5143(6) 0.2471(5) 0.9358(5)
C9_4 C 0.4129(6) 0.2101(5) 0.9901(6)
C10_4 C 0.5066(6) 0.1946(5) 0.8891(5)
C11_4 C 0.4044(6) 0.1556(6) 0.9465(6)
H4_4 H 0.5379 0.1902 0.8546
C12_4 C 0.4534(6) 0.1490(6) 0.8932(6)
S5_4 S 0.54536(16) 0.03164(17) 0.67717(15)
C13_4 C 0.4888(6) 0.0362(6) 0.7426(6)
C15_4 C 0.4901(6) 0.0871(6) 0.7899(5)
C17_4 C 0.4465(6) 0.0956(6) 0.8444(6)
H5_4 H 0.5237 0.1193 0.7850
C18_4 C 0.3932(6) 0.0466(6) 0.8510(6)
S7_4 S 0.03164(17) 0.67717(15) 0.54536(16)
C19_4 C 0.0362(6) 0.7426(6) 0.4888(6)
C21_4 C 0.0871(6) 0.7899(5) 0.4901(6)
C23_4 C 0.0956(6) 0.8444(6) 0.4465(6)
H7_4 H 0.1193 0.7850 0.5237
C24_4 C 0.0466(6) 0.8510(6) 0.3932(6)
C25_4 C 0.1490(6) 0.8932(6) 0.4534(6)
C26_4 C 0.0535(6) 0.9044(6) 0.3444(6)
C27_4 C 0.0112(6) 0.9638(6) 0.2426(6)
C29_4 C 0.0099(6) 0.9129(6) 0.2899(5)
C31_4 C 0.1068(6) 0.9534(6) 0.3510(6)
C32_4 C 0.1556(6) 0.9465(6) 0.4044(6)
C33_4 C 0.2574(6) 0.9888(6) 0.4638(6)
S12_4 S 0.29992(14) 0.92427(15) 0.58459(15)
C34_4 C 0.2471(5) 0.9358(5) 0.5143(6)
C35_4 C 0.2101(5) 0.9901(6) 0.4129(6)
C36_4 C 0.1946(5) 0.8891(5) 0.5066(6)
H12_4 H 0.1902 0.8546 0.5379
S1_4 S 0.17717(15) 0.95464(16) 0.96836(17)
H1_4 H 0.2850 0.9763 0.8807
S6_4 S 0.42427(15) 0.91541(15) 0.70008(14)
C14_4 C 0.4358(5) 0.9857(6) 0.7529(5)
C16_4 C 0.3891(5) 0.9934(6) 0.8054(5)
H6_4 H 0.3546 0.9621 0.8098
S8_4 S 0.91541(15) 0.70008(14) 0.42427(15)
C20_4 C 0.9857(6) 0.7529(5) 0.4358(5)
C22_4 C 0.9934(6) 0.8054(5) 0.3891(5)
H8_4 H 0.9621 0.8098 0.3546
S9_4 S 0.95464(16) 0.96836(17) 0.17717(15)
H9_4 H 0.9763 0.8807 0.2850
loop_
_geom_bond_atom_site_label_1
_geom_bond_atom_site_label_2
_geom_bond_site_symmetry_1
_geom_bond_site_symmetry_2
S12 Pb9 1_555 1_555
C34 S12 1_555 1_555
H12 C36 1_555 1_555
O5 Pb9 1_555 1_555
C34 C36 1_555 1_555
Pb1 O1 1_555 1_555
O1 Pb4 1_555 1_555
S1 Pb1 1_555 1_555
S2 Pb1 1_555 1_555
C1 S1 1_555 1_555
C2 S2 1_555 1_555
C3 C1 1_555 1_555
C4 C2 1_555 1_555
C5 C3 1_555 1_555
H1 C3 1_555 1_555
H2 C4 1_555 1_555
C6 C4 1_555 1_555
S3 C7 1_555 1_555
S4 C8 1_555 1_555
C7 C8 1_555 1_555
C8 C10 1_555 1_555
C9 C7 1_555 1_555
C10 H4 1_555 1_555
C11 C6 1_555 1_555
H3 C9 1_555 1_555
C12 C10 1_555 1_555
S5 C13 1_555 1_555
S6 C14 1_555 1_555
C13 C14 1_555 1_555
C14 C16 1_555 1_555
C15 C13 1_555 1_555
C16 H6 1_555 1_555
C17 C12 1_555 1_555
H5 C15 1_555 1_555
C18 C5 1_555 1_555
Pb2 S3 1_555 1_555
Pb3 S5 1_555 1_555
O5 Pb3 1_555 1_555
O3 Pb2 1_555 1_555
C21 C19 1_555 1_555
C23 C21 1_555 1_555
C25 C23 1_555 1_555
C26 C24 1_555 1_555
C28 C27 1_555 1_555
C29 C26 1_555 1_555
C30 C28 1_555 1_555
H10 C30 1_555 1_555
C31 C26 1_555 1_555
C32 C25 1_555 1_555
S11 C33 1_555 1_555
C35 C32 1_555 1_555
H11 C35 1_555 1_555
C1 C2 1_555 1_555
C5 C6 1_555 1_555
S4 Pb2 1_555 1_555
C9 C11 1_555 1_555
C11 C12 1_555 1_555
S6 Pb3 1_555 1_555
C15 C17 1_555 1_555
C16 C18 1_555 1_555
C17 C18 1_555 1_555
C23 C24 1_555 1_555
C27 C29 1_555 1_555
S10 C28 1_555 1_555
C30 C31 1_555 1_555
C31 C32 1_555 1_555
C33 C35 1_555 1_555
C20 S8 1_555 1_555
C22 C20 1_555 1_555
H8 C22 1_555 1_555
S9 Pb5 1_555 1_555
O3 Pb7_2 1_555 1_555
S8_2 Pb4 1_555 1_555
C20_2 S8_2 1_555 1_555
C22_2 C20_2 1_555 1_555
H8_2 C22_2 1_555 1_555
S6_2 C14_2 1_555 1_555
C14_2 C16_2 1_555 1_555
C16_2 H6_2 1_555 1_555
S6_2 Pb7_2 1_555 1_555
C19_2 S7_2 1_555 1_555
C21_2 C19_2 1_555 1_555
C23_2 C21_2 1_555 1_555
H7_2 C21_2 1_555 1_555
C25_2 C23_2 1_555 1_555
C26_2 C24_2 1_555 1_555
C29_2 C26_2 1_555 1_555
C31_2 C26_2 1_555 1_555
C32_2 C25_2 1_555 1_555
C33_2 C34_2 1_555 1_555
C34_2 S12_2 1_555 1_555
C35_2 C32_2 1_555 1_555
C36_2 C25_2 1_555 1_555
H12_2 C36_2 1_555 1_555
C23_2 C24_2 1_555 1_555
C27_2 C29_2 1_555 1_555
C31_2 C32_2 1_555 1_555
C33_2 C35_2 1_555 1_555
C34_2 C36_2 1_555 1_555
C3_2 C1_2 1_555 1_555
C5_2 C3_2 1_555 1_555
S4_2 C8_2 1_555 1_555
C7_2 C8_2 1_555 1_555
C8_2 C10_2 1_555 1_555
C9_2 C7_2 1_555 1_555
C10_2 H4_2 1_555 1_555
C11_2 C6_2 1_555 1_555
C12_2 C10_2 1_555 1_555
S5_2 C13_2 1_555 1_555
C15_2 C13_2 1_555 1_555
C17_2 C12_2 1_555 1_555
H5_2 C15_2 1_555 1_555
C18_2 C5_2 1_555 1_555
C5_2 C6_2 1_555 1_555
C9_2 C11_2 1_555 1_555
C11_2 C12_2 1_555 1_555
C15_2 C17_2 1_555 1_555
C17_2 C18_2 1_555 1_555
C2_2 S2_2 1_555 1_555
C4_2 C2_2 1_555 1_555
H2_2 C4_2 1_555 1_555
Pb4_2 S3_2 1_555 1_555
C30_2 C28_2 1_555 1_555
H10_2 C30_2 1_555 1_555
Pb8_2 S11_2 1_555 1_555
S10_2 C28_2 1_555 1_555
C20_3 S8_3 1_555 1_555
C22_3 C20_3 1_555 1_555
H8_3 C22_3 1_555 1_555
S9_3 Pb5_2 1_555 1_555
Pb1_2 O1_2 1_555 1_555
O1_2 Pb4_3 1_555 1_555
S1_3 Pb1_2 1_555 1_555
S2_3 Pb1_2 1_555 1_555
C1_3 S1_3 1_555 1_555
C2_3 S2_3 1_555 1_555
C3_3 C1_3 1_555 1_555
C4_3 C2_3 1_555 1_555
C5_3 C3_3 1_555 1_555
H1_3 C3_3 1_555 1_555
H2_3 C4_3 1_555 1_555
C6_3 C4_3 1_555 1_555
S3_3 C7_3 1_555 1_555
S4_3 C8_3 1_555 1_555
C7_3 C8_3 1_555 1_555
C8_3 C10_3 1_555 1_555
C9_3 C7_3 1_555 1_555
C10_3 H4_3 1_555 1_555
C11_3 C6_3 1_555 1_555
H3_3 C9_3 1_555 1_555
C12_3 C10_3 1_555 1_555
S5_3 C13_3 1_555 1_555
S6_3 C14_3 1_555 1_555
C13_3 C14_3 1_555 1_555
C14_3 C16_3 1_555 1_555
C15_3 C13_3 1_555 1_555
C16_3 H6_3 1_555 1_555
C17_3 C12_3 1_555 1_555
H5_3 C15_3 1_555 1_555
C18_3 C5_3 1_555 1_555
Pb2_2 S3_3 1_555 1_555
Pb3_2 S5_3 1_555 1_555
O2 Pb3_2 1_555 1_555
O3_2 Pb2_2 1_555 1_555
C21_3 C19_3 1_555 1_555
C23_3 C21_3 1_555 1_555
C25_3 C23_3 1_555 1_555
C26_3 C24_3 1_555 1_555
C28_3 C27_3 1_555 1_555
C29_3 C26_3 1_555 1_555
C30_3 C28_3 1_555 1_555
H10_3 C30_3 1_555 1_555
C31_3 C26_3 1_555 1_555
C32_3 C25_3 1_555 1_555
S11_3 C33_3 1_555 1_555
C35_3 C32_3 1_555 1_555
H11_3 C35_3 1_555 1_555
C1_3 C2_3 1_555 1_555
C5_3 C6_3 1_555 1_555
S4_3 Pb2_2 1_555 1_555
C9_3 C11_3 1_555 1_555
C11_3 C12_3 1_555 1_555
S6_3 Pb3_2 1_555 1_555
C15_3 C17_3 1_555 1_555
C16_3 C18_3 1_555 1_555
C17_3 C18_3 1_555 1_555
C23_3 C24_3 1_555 1_555
C27_3 C29_3 1_555 1_555
S10_3 C28_3 1_555 1_555
C30_3 C31_3 1_555 1_555
C31_3 C32_3 1_555 1_555
C33_3 C35_3 1_555 1_555
S12_3 Pb9_2 1_555 1_555
C34_3 S12_3 1_555 1_555
H12_3 C36_3 1_555 1_555
O2 Pb9_2 1_555 1_555
C34_3 C36_3 1_555 1_555
O3_2 Pb7_4 1_555 1_555
C2_4 S2_4 1_555 1_555
C4_4 C2_4 1_555 1_555
H2_4 C4_4 1_555 1_555
Pb4_4 S3_4 1_555 1_555
C30_4 C28_4 1_555 1_555
H10_4 C30_4 1_555 1_555
Pb8_4 S11_4 1_555 1_555
S10_4 C28_4 1_555 1_555
C3_4 C1_4 1_555 1_555
C5_4 C3_4 1_555 1_555
S4_4 C8_4 1_555 1_555
C7_4 C8_4 1_555 1_555
C8_4 C10_4 1_555 1_555
C9_4 C7_4 1_555 1_555
C10_4 H4_4 1_555 1_555
C11_4 C6_4 1_555 1_555
C12_4 C10_4 1_555 1_555
S5_4 C13_4 1_555 1_555
C15_4 C13_4 1_555 1_555
C17_4 C12_4 1_555 1_555
H5_4 C15_4 1_555 1_555
C18_4 C5_4 1_555 1_555
C5_4 C6_4 1_555 1_555
C9_4 C11_4 1_555 1_555
C11_4 C12_4 1_555 1_555
C15_4 C17_4 1_555 1_555
C17_4 C18_4 1_555 1_555
C19_4 S7_4 1_555 1_555
C21_4 C19_4 1_555 1_555
C23_4 C21_4 1_555 1_555
H7_4 C21_4 1_555 1_555
C25_4 C23_4 1_555 1_555
C26_4 C24_4 1_555 1_555
C29_4 C26_4 1_555 1_555
C31_4 C26_4 1_555 1_555
C32_4 C25_4 1_555 1_555
C33_4 C34_4 1_555 1_555
C34_4 S12_4 1_555 1_555
C35_4 C32_4 1_555 1_555
C36_4 C25_4 1_555 1_555
H12_4 C36_4 1_555 1_555
C23_4 C24_4 1_555 1_555
C27_4 C29_4 1_555 1_555
C31_4 C32_4 1_555 1_555
C33_4 C35_4 1_555 1_555
C34_4 C36_4 1_555 1_555
S6_4 C14_4 1_555 1_555
C14_4 C16_4 1_555 1_555
C16_4 H6_4 1_555 1_555
S6_4 Pb7_4 1_555 1_555
S8_4 Pb4_3 1_555 1_555
C20_4 S8_4 1_555 1_555
C22_4 C20_4 1_555 1_555
H8_4 C22_4 1_555 1_555

#END
