
###############################################################################
#
# This file contains modified crystal structure data generated from the
# MOF subset of the Cambridge Structural Database (CSD) v543 
# hosted by the Cambridge Crystallographic Data Centre (CCDC).
#
# This work is licensed under the Creative Commons
# Attribution-NonCommercial-ShareAlike 4.0 International License.
# To view a copy of this license, visit
# http://creativecommons.org/licenses/by-nc-sa/4.0/
# or send a letter to
# Creative Commons, PO Box 1866, Mountain View, CA 94042, USA.
#
# CIF created using the CSD Python API on 29 September 2022
# The structure has been converted into the P1 space group
# The structure has a 3D framework
# The original CSD entry VATNIR is in the trigonal crystal system
# The original CSD entry VATNIR is in a Sohncke space group
# The framework has been calculated to contain at least 10.0% void space
# The void calculation uses a probe of radius 1.32A, grid spacing 0.4
# The framework is charged, counterions have been retained in the structure
#
###############################################################################

data_VATNIR
_chemical_formula_moiety         '(C96 H36 O44 Yb6 6-)n'
_symmetry_cell_setting           triclinic
_symmetry_space_group_name_H-M   'P 1'
_symmetry_Int_Tables_number      1
_space_group_name_Hall           'P 1'
loop_
_symmetry_equiv_pos_site_id
_symmetry_equiv_pos_as_xyz
1 x,y,z
_cell_length_a                   13.6908(19)
_cell_length_b                   13.6908(19)
_cell_length_c                   22.680(5)
_cell_angle_alpha                90
_cell_angle_beta                 90
_cell_angle_gamma                120
_cell_volume                     3681.56
loop_
_atom_site_label
_atom_site_type_symbol
_atom_site_fract_x
_atom_site_fract_y
_atom_site_fract_z
Yb5 Yb 0.69398(8) 0.02852(5) 0.07716(2)
O9 O 0.6031(13) 0.0785(10) 0.2165(4)
O10 O 0.8199(15) 0.0971(10) 0.2072(4)
O13 O 0.7258(14) 0.1215(24) 0.3238(7)
O15 O 0.8116(11) 0.0291(19) 0.3329(5)
Yb1 Yb 0.66546(6) 0.97148(5) 0.25617(2)
O1 O 0.5086(10) 0.8353(10) 0.2046(5)
O2 O 0.5246(8) 0.9215(10) 0.1168(4)
O6 O 0.2742(14) 0.3957(19) 0.3429(7)
C2 C 0.3619(13) 0.7437(14) 0.1351(8)
C3 C 0.2035(17) 0.3068(25) 0.3167(8)
C4 C 0.2137(7) 0.6652(7) 0.0665(3)
C5 C 0.1604(7) 0.4418(10) 0.1797(4)
C6 C 0.0507(6) 0.2324(9) 0.2430(3)
H1 H 0.014457 0.164825 0.263760
C7 C 0.2051(6) 0.4260(8) 0.2327(3)
H2 H 0.270650 0.485486 0.248353
C8 C 0.1516(5) 0.6714(7) 0.0142(2)
C9 C 0.3127(7) 0.7519(6) 0.0859(3)
H3 H 0.347386 0.818751 0.064396
C10 C 0.1519(5) 0.3219(7) 0.2617(3)
C11 C 0.0035(7) 0.2492(10) 0.1888(3)
C12 C 0.0556(7) 0.3436(10) 0.1589(3)
H4 H 0.025157 0.348563 0.123063
C13 C 0.1635(7) 0.5635(7) 0.0989(3)
H5 H 0.094544 0.504416 0.086144
C14 C 0.3134(6) 0.6395(6) 0.1677(3)
H6 H 0.348644 0.632591 0.201225
C15 C 0.2113(7) 0.5486(6) 0.1474(3)
C16 C 0.4745(5) 0.8446(6) 0.1538(2)
O8 O 0.1884(11) 0.2175(16) 0.3338(5)
Yb6 Yb 0.33454(6) 0.30602(8) 0.41050(2)
O11 O 0.7299(16) 0.8587(9) 0.2204(4)
O12 O 0.5892(17) 0.8182(9) 0.3250(5)
O14 O 0.5123(22) 0.9279(13) 0.3231(6)
O5 O 0.1818(9) 0.7710(14) 0.9917(5)
O7 O 0.0721(13) 0.5844(18) 0.9898(6)
Yb3 Yb 0.02852(5) 0.69398(8) 0.92284(2)
O4 O 0.8712(13) 0.1413(9) 0.1129(4)
C1 C 0.8903(23) 0.1571(16) 0.1681(9)
O6_2 O 0.6043(19) 0.8785(24) 0.0096(7)
O8_2 O 0.7825(16) 0.9709(19) 0.0005(5)
O1_2 O 0.1647(10) 0.6733(14) 0.8713(5)
O2_2 O 0.0785(10) 0.6031(13) 0.7835(4)
O3 O 0.9029(10) 0.7228(18) 0.8739(4)
O4_2 O 0.8587(9) 0.7299(16) 0.7796(4)
O5_2 O 0.2290(14) 0.4108(17) 0.6584(5)
C1_2 C 0.8429(16) 0.7332(28) 0.8348(9)
O7_2 O 0.4156(18) 0.4877(22) 0.6565(6)
C2_2 C 0.2563(14) 0.6182(19) 0.8018(8)
C3_2 C 0.6932(25) 0.8967(30) 0.9834(8)
C4_2 C 0.3348(7) 0.5485(10) 0.7332(3)
C5_2 C 0.5582(10) 0.7186(12) 0.8464(4)
C6_2 C 0.7676(9) 0.8183(11) 0.9097(3)
H1_2 H 0.835175 0.849632 0.930427
C7_2 C 0.5740(8) 0.7791(10) 0.8994(3)
H2_2 H 0.514514 0.785164 0.915020
C8_2 C 0.3286(7) 0.4802(9) 0.6809(2)
C9_2 C 0.2481(6) 0.5608(9) 0.7526(3)
H3_2 H 0.181249 0.528635 0.731063
C10_2 C 0.6781(7) 0.8300(9) 0.9284(3)
C11_2 C 0.7508(10) 0.7543(12) 0.8555(3)
C12_2 C 0.6564(10) 0.7120(12) 0.8256(3)
H4_2 H 0.651437 0.676594 0.789730
C13_2 C 0.4365(7) 0.6000(10) 0.7656(3)
H5_2 H 0.495584 0.590128 0.752811
C14_2 C 0.3605(6) 0.6739(8) 0.8344(3)
H6_2 H 0.367409 0.716053 0.867892
C15_2 C 0.4514(6) 0.6627(9) 0.8141(3)
C16_2 C 0.1554(6) 0.6299(8) 0.8205(2)
Yb3_2 Yb 0.30602(8) 0.33454(9) 0.58950(2)
Yb4 Yb 0.97148(5) 0.66546(9) 0.74383(2)
O11_2 O 0.1413(9) 0.8712(18) 0.8871(4)
O9_2 O 0.9215(10) 0.5246(16) 0.8832(4)
O13_2 O 0.8785(24) 0.6043(28) 0.9904(7)
O15_2 O 0.9709(19) 0.7825(22) 0.9995(5)
O3_2 O 0.2772(18) 0.1801(15) 0.5405(4)
O4_3 O 0.2701(16) 0.1288(13) 0.4462(4)
C1_3 C 0.2668(28) 0.1097(23) 0.5014(9)
O1_3 O 0.3267(14) 0.4914(10) 0.5379(5)
O2_3 O 0.3969(13) 0.4754(8) 0.4501(4)
O6_3 O 0.1215(24) 0.7258(14) 0.6762(7)
C2_3 C 0.3818(19) 0.6381(13) 0.4684(8)
C3_3 C 0.1033(30) 0.7965(17) 0.6500(8)
C4_3 C 0.4515(10) 0.7863(7) 0.3998(3)
C5_3 C 0.2814(12) 0.8396(7) 0.5130(4)
C6_3 C 0.1817(11) 0.9493(6) 0.5763(3)
H1_3 H 0.150368 0.985543 0.597093
C7_3 C 0.2209(10) 0.7949(6) 0.5660(3)
H2_3 H 0.214836 0.729350 0.581686
C8_3 C 0.5198(9) 0.8484(5) 0.3475(2)
C9_3 C 0.4392(9) 0.6873(7) 0.4192(3)
H3_3 H 0.471365 0.652614 0.397729
C10_3 C 0.1700(9) 0.8481(5) 0.5950(3)
C11_3 C 0.2457(12) 0.9965(7) 0.5221(3)
C12_3 C 0.2880(12) 0.9444(7) 0.4922(3)
H4_3 H 0.323406 0.974843 0.456396
C13_3 C 0.4000(10) 0.8365(7) 0.4322(3)
H5_3 H 0.409872 0.905456 0.419477
C14_3 C 0.3261(8) 0.6866(6) 0.5010(3)
H6_3 H 0.283947 0.651356 0.534558
C15_3 C 0.3373(9) 0.7887(7) 0.4807(3)
C16_3 C 0.3701(8) 0.5255(5) 0.4871(2)
O8_3 O 0.0291(19) 0.8116(11) 0.6671(5)
O9_3 O 0.4754(16) 0.3969(13) 0.5499(4)
O11_3 O 0.1288(18) 0.2701(16) 0.5538(4)
O13_3 O 0.3957(28) 0.2742(14) 0.6571(7)
O15_3 O 0.2175(22) 0.1884(11) 0.6662(5)
O10_2 O 0.0971(10) 0.8199(15) 0.7928(4)
O5_3 O 0.7710(14) 0.1818(9) 0.0083(5)
O7_3 O 0.5844(18) 0.0721(13) 0.0102(6)
O1_4 O 0.8353(10) 0.5086(10) 0.7954(5)
C2_4 C 0.7437(14) 0.3619(13) 0.8649(8)
C3_4 C 0.3068(25) 0.2035(17) 0.6833(8)
C4_4 C 0.6652(7) 0.2137(7) 0.9335(3)
C5_4 C 0.4418(10) 0.1604(7) 0.8203(4)
C6_4 C 0.2324(9) 0.0507(6) 0.7570(3)
H1_4 H 0.164825 0.014457 0.736240
C7_4 C 0.4260(8) 0.2051(6) 0.7673(3)
H2_4 H 0.485486 0.270650 0.751647
C8_4 C 0.6714(7) 0.1516(5) 0.9858(2)
C9_4 C 0.7519(6) 0.3127(7) 0.9141(3)
H3_4 H 0.818751 0.347386 0.935604
C10_4 C 0.3219(7) 0.1519(5) 0.7383(3)
C11_4 C 0.2492(10) 0.0035(7) 0.8112(3)
C12_4 C 0.3436(10) 0.0556(7) 0.8411(3)
H4_4 H 0.348563 0.025157 0.876937
C13_4 C 0.5635(7) 0.1635(7) 0.9011(3)
H5_4 H 0.504416 0.094544 0.913856
C14_4 C 0.6395(6) 0.3134(6) 0.8323(3)
H6_4 H 0.632591 0.348644 0.798775
C15_4 C 0.5486(6) 0.2113(7) 0.8526(3)
C16_4 C 0.8446(6) 0.4745(5) 0.8462(2)
O12_2 O 0.8182(9) 0.5892(17) 0.6750(5)
O14_2 O 0.9279(13) 0.5123(22) 0.6769(6)
C1_4 C 0.1571(16) 0.8903(23) 0.8319(9)
O1_5 O 0.6733(14) 0.1647(10) 0.1287(5)
O3_3 O 0.7228(18) 0.9029(10) 0.1261(4)
O5_4 O 0.4108(17) 0.2290(14) 0.3416(5)
C1_5 C 0.7332(28) 0.8429(16) 0.1652(9)
O7_4 O 0.4877(22) 0.4156(18) 0.3435(6)
C2_5 C 0.6182(19) 0.2563(14) 0.1982(8)
C3_5 C 0.8967(30) 0.6932(25) 0.0166(8)
C4_5 C 0.5485(10) 0.3348(7) 0.2668(3)
C5_5 C 0.7186(12) 0.5582(10) 0.1536(4)
C6_5 C 0.8183(11) 0.7676(9) 0.0903(3)
H1_5 H 0.849632 0.835175 0.069573
C7_5 C 0.7791(10) 0.5740(8) 0.1006(3)
H2_5 H 0.785164 0.514514 0.084980
C8_5 C 0.4802(9) 0.3286(7) 0.3191(2)
C9_5 C 0.5608(9) 0.2481(6) 0.2474(3)
H3_5 H 0.528635 0.181249 0.268937
C10_5 C 0.8300(9) 0.6781(7) 0.0716(3)
C11_5 C 0.7543(12) 0.7508(10) 0.1445(3)
C12_5 C 0.7120(12) 0.6564(10) 0.1744(3)
H4_5 H 0.676594 0.651437 0.210270
C13_5 C 0.6000(10) 0.4365(7) 0.2344(3)
H5_5 H 0.590128 0.495584 0.247189
C14_5 C 0.6739(8) 0.3605(6) 0.1656(3)
H6_5 H 0.716053 0.367409 0.132108
C15_5 C 0.6627(9) 0.4514(6) 0.1859(3)
C16_5 C 0.6299(8) 0.1554(6) 0.1795(2)
O3_4 O 0.1801(15) 0.2772(18) 0.4595(4)
C1_6 C 0.1097(23) 0.2668(28) 0.4986(9)
O1_6 O 0.4914(10) 0.3267(14) 0.4621(5)
C2_6 C 0.6381(13) 0.3818(19) 0.5316(8)
C3_6 C 0.7965(17) 0.1033(30) 0.3500(8)
C4_6 C 0.7863(7) 0.4515(10) 0.6002(3)
C5_6 C 0.8396(7) 0.2814(12) 0.4870(4)
C6_6 C 0.9493(6) 0.1817(11) 0.4237(3)
H1_6 H 0.985543 0.150368 0.402907
C7_6 C 0.7949(6) 0.2209(10) 0.4340(3)
H2_6 H 0.729350 0.214836 0.418314
C8_6 C 0.8484(5) 0.5198(9) 0.6525(2)
C9_6 C 0.6873(7) 0.4392(9) 0.5808(3)
H3_6 H 0.652614 0.471365 0.602271
C10_6 C 0.8481(5) 0.1700(9) 0.4050(3)
C11_6 C 0.9965(7) 0.2457(12) 0.4779(3)
C12_6 C 0.9444(7) 0.2880(12) 0.5078(3)
H4_6 H 0.974843 0.323406 0.543604
C13_6 C 0.8365(7) 0.4000(10) 0.5678(3)
H5_6 H 0.905456 0.409872 0.580523
C14_6 C 0.6866(6) 0.3261(8) 0.4990(3)
H6_6 H 0.651356 0.283947 0.465442
C15_6 C 0.7887(7) 0.3373(9) 0.5193(3)
C16_6 C 0.5255(5) 0.3701(8) 0.5129(2)
loop_
_geom_bond_atom_site_label_1
_geom_bond_atom_site_label_2
_geom_bond_site_symmetry_1
_geom_bond_site_symmetry_2
Yb1 O1 1_555 1_555
O1 C16 1_555 1_555
O2 C16 1_555 1_555
O6 C3 1_555 1_555
C2 C9 1_555 1_555
C3 C10 1_555 1_555
C4 C8 1_555 1_555
C5 C7 1_555 1_555
C6 H1 1_555 1_555
C7 H2 1_555 1_555
C9 C4 1_555 1_555
H3 C9 1_555 1_555
C10 C6 1_555 1_555
C11 C6 1_555 1_555
C12 C5 1_555 1_555
H4 C12 1_555 1_555
C13 C4 1_555 1_555
H5 C13 1_555 1_555
C14 C2 1_555 1_555
H6 C14 1_555 1_555
C15 C5 1_555 1_555
C16 C2 1_555 1_555
O8 C3 1_555 1_555
Yb6 O6 1_555 1_555
O11 Yb1 1_555 1_555
O12 Yb1 1_555 1_555
O14 Yb1 1_555 1_555
C7 C10 1_555 1_555
C11 C12 1_555 1_555
C13 C15 1_555 1_555
C14 C15 1_555 1_555
O8 Yb6 1_555 1_555
Yb3 O5 1_555 1_555
O7 Yb3 1_555 1_555
O10 C1 1_555 1_555
O4 C1 1_555 1_555
Yb5 O4 1_555 1_555
Yb3 O1_2 1_555 1_555
O1_2 C16_2 1_555 1_555
O2_2 C16_2 1_555 1_555
O3 C1_2 1_555 1_555
O4_2 C1_2 1_555 1_555
O5_2 C8_2 1_555 1_555
C1_2 C11_2 1_555 1_555
O7_2 C8_2 1_555 1_555
C2_2 C9_2 1_555 1_555
C3_2 C10_2 1_555 1_555
C4_2 C8_2 1_555 1_555
C5_2 C7_2 1_555 1_555
C6_2 H1_2 1_555 1_555
C7_2 H2_2 1_555 1_555
C9_2 C4_2 1_555 1_555
H3_2 C9_2 1_555 1_555
C10_2 C6_2 1_555 1_555
C11_2 C6_2 1_555 1_555
C12_2 C5_2 1_555 1_555
H4_2 C12_2 1_555 1_555
C13_2 C4_2 1_555 1_555
H5_2 C13_2 1_555 1_555
C14_2 C2_2 1_555 1_555
H6_2 C14_2 1_555 1_555
C15_2 C5_2 1_555 1_555
C16_2 C2_2 1_555 1_555
Yb3_2 O5_2 1_555 1_555
Yb4 O4_2 1_555 1_555
O11_2 Yb3 1_555 1_555
O7_2 Yb3_2 1_555 1_555
C7_2 C10_2 1_555 1_555
C11_2 C12_2 1_555 1_555
C13_2 C15_2 1_555 1_555
C14_2 C15_2 1_555 1_555
O3_2 C1_3 1_555 1_555
O4_3 C1_3 1_555 1_555
Yb3_2 O3_2 1_555 1_555
Yb6 O4_3 1_555 1_555
Yb3_2 O1_3 1_555 1_555
O1_3 C16_3 1_555 1_555
O2_3 C16_3 1_555 1_555
O12 C8_3 1_555 1_555
O6_3 C3_3 1_555 1_555
O14 C8_3 1_555 1_555
C2_3 C9_3 1_555 1_555
C3_3 C10_3 1_555 1_555
C4_3 C8_3 1_555 1_555
C5_3 C7_3 1_555 1_555
C6_3 H1_3 1_555 1_555
C7_3 H2_3 1_555 1_555
C9_3 C4_3 1_555 1_555
H3_3 C9_3 1_555 1_555
C10_3 C6_3 1_555 1_555
C11_3 C6_3 1_555 1_555
C12_3 C5_3 1_555 1_555
H4_3 C12_3 1_555 1_555
C13_3 C4_3 1_555 1_555
H5_3 C13_3 1_555 1_555
C14_3 C2_3 1_555 1_555
H6_3 C14_3 1_555 1_555
C15_3 C5_3 1_555 1_555
C16_3 C2_3 1_555 1_555
O8_3 C3_3 1_555 1_555
Yb6 O2_3 1_555 1_555
O9_3 Yb3_2 1_555 1_555
O11_3 Yb3_2 1_555 1_555
O13_3 Yb3_2 1_555 1_555
O15_3 Yb3_2 1_555 1_555
C7_3 C10_3 1_555 1_555
C11_3 C12_3 1_555 1_555
C13_3 C15_3 1_555 1_555
C14_3 C15_3 1_555 1_555
Yb5 O5_3 1_555 1_555
O7_3 Yb5 1_555 1_555
Yb4 O1_4 1_555 1_555
O1_4 C16_4 1_555 1_555
O9_2 C16_4 1_555 1_555
O13_3 C3_4 1_555 1_555
C2_4 C9_4 1_555 1_555
C3_4 C10_4 1_555 1_555
C4_4 C8_4 1_555 1_555
C5_4 C7_4 1_555 1_555
C6_4 H1_4 1_555 1_555
C7_4 H2_4 1_555 1_555
C9_4 C4_4 1_555 1_555
H3_4 C9_4 1_555 1_555
C10_4 C6_4 1_555 1_555
C11_4 C6_4 1_555 1_555
C12_4 C5_4 1_555 1_555
H4_4 C12_4 1_555 1_555
C13_4 C4_4 1_555 1_555
H5_4 C13_4 1_555 1_555
C14_4 C2_4 1_555 1_555
H6_4 C14_4 1_555 1_555
C15_4 C5_4 1_555 1_555
C16_4 C2_4 1_555 1_555
O15_3 C3_4 1_555 1_555
O12_2 Yb4 1_555 1_555
O14_2 Yb4 1_555 1_555
C7_4 C10_4 1_555 1_555
C11_4 C12_4 1_555 1_555
C13_4 C15_4 1_555 1_555
C14_4 C15_4 1_555 1_555
O10_2 C1_4 1_555 1_555
O11_2 C1_4 1_555 1_555
Yb5 O1_5 1_555 1_555
O1_5 C16_5 1_555 1_555
O9 C16_5 1_555 1_555
O3_3 C1_5 1_555 1_555
O11 C1_5 1_555 1_555
O5_4 C8_5 1_555 1_555
C1_5 C11_5 1_555 1_555
O7_4 C8_5 1_555 1_555
C2_5 C9_5 1_555 1_555
C3_5 C10_5 1_555 1_555
C4_5 C8_5 1_555 1_555
C5_5 C7_5 1_555 1_555
C6_5 H1_5 1_555 1_555
C7_5 H2_5 1_555 1_555
C9_5 C4_5 1_555 1_555
H3_5 C9_5 1_555 1_555
C10_5 C6_5 1_555 1_555
C11_5 C6_5 1_555 1_555
C12_5 C5_5 1_555 1_555
H4_5 C12_5 1_555 1_555
C13_5 C4_5 1_555 1_555
H5_5 C13_5 1_555 1_555
C14_5 C2_5 1_555 1_555
H6_5 C14_5 1_555 1_555
C15_5 C5_5 1_555 1_555
C16_5 C2_5 1_555 1_555
Yb6 O5_4 1_555 1_555
O7_4 Yb6 1_555 1_555
C7_5 C10_5 1_555 1_555
C11_5 C12_5 1_555 1_555
C13_5 C15_5 1_555 1_555
C14_5 C15_5 1_555 1_555
O3_4 C1_6 1_555 1_555
O11_3 C1_6 1_555 1_555
Yb6 O3_4 1_555 1_555
Yb6 O1_6 1_555 1_555
O1_6 C16_6 1_555 1_555
O9_3 C16_6 1_555 1_555
O12_2 C8_6 1_555 1_555
O13 C3_6 1_555 1_555
O14_2 C8_6 1_555 1_555
C2_6 C9_6 1_555 1_555
C3_6 C10_6 1_555 1_555
C4_6 C8_6 1_555 1_555
C5_6 C7_6 1_555 1_555
C6_6 H1_6 1_555 1_555
C7_6 H2_6 1_555 1_555
C9_6 C4_6 1_555 1_555
H3_6 C9_6 1_555 1_555
C10_6 C6_6 1_555 1_555
C11_6 C6_6 1_555 1_555
C12_6 C5_6 1_555 1_555
H4_6 C12_6 1_555 1_555
C13_6 C4_6 1_555 1_555
H5_6 C13_6 1_555 1_555
C14_6 C2_6 1_555 1_555
H6_6 C14_6 1_555 1_555
C15_6 C5_6 1_555 1_555
C16_6 C2_6 1_555 1_555
O15 C3_6 1_555 1_555
C7_6 C10_6 1_555 1_555
C11_6 C12_6 1_555 1_555
C13_6 C15_6 1_555 1_555
C14_6 C15_6 1_555 1_555

#END
