
###############################################################################
#
# This file contains modified crystal structure data generated from the
# MOF subset of the Cambridge Structural Database (CSD) v543 
# hosted by the Cambridge Crystallographic Data Centre (CCDC).
#
# This work is licensed under the Creative Commons
# Attribution-NonCommercial-ShareAlike 4.0 International License.
# To view a copy of this license, visit
# http://creativecommons.org/licenses/by-nc-sa/4.0/
# or send a letter to
# Creative Commons, PO Box 1866, Mountain View, CA 94042, USA.
#
# CIF created using the CSD Python API on 29 September 2022
# The structure has been converted into the P1 space group
# The structure has a 3D framework
# The original CSD entry VATQAM is in the tetragonal crystal system
# The framework has been calculated to contain at least 10.0% void space
# The void calculation uses a probe of radius 1.32A, grid spacing 0.4
# The framework is charged, counterions have been retained in the structure
# H atom positions have been added when not included in the experimental data
# Generated hydrogen atom positions removed from atoms on special positions
#
###############################################################################

data_VATQAM
_chemical_formula_moiety         '(C120 H64 In17 N8 O76 1-)n'
_symmetry_cell_setting           triclinic
_symmetry_space_group_name_H-M   'P 1'
_symmetry_Int_Tables_number      1
_space_group_name_Hall           'P 1'
loop_
_symmetry_equiv_pos_site_id
_symmetry_equiv_pos_as_xyz
1 x,y,z
_cell_length_a                   24.6039(12)
_cell_length_b                   24.6039(12)
_cell_length_c                   6.8178(6)
_cell_angle_alpha                90
_cell_angle_beta                 90
_cell_angle_gamma                90
_cell_volume                     4127.17
loop_
_atom_site_label
_atom_site_type_symbol
_atom_site_fract_x
_atom_site_fract_y
_atom_site_fract_z
In1 In 0.20056(3) 0.67202(3) 0.00949(17)
O9 O 0.1353(5) 0.6477(5) 0.201(2)
In3 In 0.79944(3) 0.32798(3) 0.00949(17)
O18 O 0.8647(5) 0.3523(5) 0.201(2)
O43 O 0.7429(4) 0.3851(4) 0.1657(16)
O44 O 0.2571(4) 0.6149(4) 0.1657(16)
O49 O 0.7698(4) 0.2690(4) 0.2357(15)
O50 O 0.2302(4) 0.7310(4) 0.2357(15)
O3 O 0.5848(4) 0.7882(5) 0.0813(17)
O5 O 0.3905(5) 0.7870(4) 0.000(2)
O6 O 0.3471(5) 0.8323(5) 0.2343(18)
O7 O 0.2733(4) 0.6829(4) 0.8414(18)
O8 O 0.2698(4) 0.7690(4) 0.7357(15)
N1 N 0.3408(4) 0.7487(5) 0.4595(18)
C1 C 0.4467(5) 0.6399(5) 0.014(3)
H1 H 0.419149 0.614372 0.030241
C2 C 0.4465(6) 0.6864(6) 0.131(2)
C3 C 0.4890(6) 0.7244(6) 0.110(2)
H2 H 0.489863 0.755675 0.186460
C9 C 0.4051(6) 0.6940(6) 0.290(2)
C10 C 0.3963(7) 0.6544(6) 0.422(3)
H4 H 0.416559 0.622578 0.415775
C11 C 0.3578(6) 0.6601(6) 0.567(2)
H5 H 0.350458 0.631892 0.653792
C12 C 0.3303(6) 0.7090(6) 0.580(2)
C13 C 0.3741(6) 0.7433(6) 0.307(2)
C14 C 0.3710(7) 0.7914(7) 0.172(2)
C15 C 0.2888(6) 0.7213(6) 0.732(2)
O12 O 0.4152(4) 0.2118(5) 0.0813(17)
O14 O 0.6095(5) 0.2130(4) 0.000(2)
O15 O 0.6529(5) 0.1677(5) 0.2343(18)
O16 O 0.7267(4) 0.3171(4) 0.8414(18)
O17 O 0.7302(4) 0.2310(4) 0.7357(15)
N2 N 0.6592(4) 0.2513(5) 0.4595(18)
C16 C 0.5533(5) 0.3601(5) 0.014(3)
H6 H 0.580851 0.385628 0.030241
C17 C 0.5535(6) 0.3136(6) 0.131(2)
C18 C 0.5110(6) 0.2756(6) 0.110(2)
H7 H 0.510137 0.244325 0.186460
C24 C 0.5949(6) 0.3060(6) 0.290(2)
C25 C 0.6037(7) 0.3456(6) 0.422(3)
H9 H 0.583441 0.377422 0.415775
C26 C 0.6422(6) 0.3399(6) 0.567(2)
H10 H 0.649542 0.368108 0.653792
C27 C 0.6697(6) 0.2910(6) 0.580(2)
C28 C 0.6259(6) 0.2567(6) 0.307(2)
C29 C 0.6290(7) 0.2086(7) 0.172(2)
C30 C 0.7112(6) 0.2787(6) 0.732(2)
In10 In 0.70056(3) 0.17202(3) 0.50949(17)
In11 In 0.29944(3) 0.82798(3) 0.50949(17)
O39 O 0.7882(5) 0.4152(4) 0.9187(17)
O40 O 0.2118(5) 0.5848(4) 0.9187(17)
O45 O 0.8471(5) 0.3323(5) 0.7343(18)
O46 O 0.1529(5) 0.6677(5) 0.7343(18)
N5 N 0.8408(4) 0.2487(5) 0.9595(18)
N6 N 0.1592(4) 0.7513(5) 0.9595(18)
In2 In 0.500000 0.500000 0.500000
O1 O 0.4497(5) 0.5459(5) 0.7769(17)
O2 O 0.5236(4) 0.5740(4) 0.6340(17)
O4 O 0.6149(4) 0.7429(4) 0.8343(16)
O5_2 O 0.3905(5) 0.7870(4) 1.000(2)
C4 C 0.5307(5) 0.7143(5) 0.969(2)
C5 C 0.5277(6) 0.6675(6) 0.849(2)
H3 H 0.553722 0.661750 0.752142
C6 C 0.4866(5) 0.6305(6) 0.875(2)
C7 C 0.4860(6) 0.5810(6) 0.759(2)
C8 C 0.5789(6) 0.7510(5) 0.956(2)
O10 O 0.5503(5) 0.4541(5) 0.7769(17)
O11 O 0.4764(4) 0.4260(4) 0.6340(17)
O13 O 0.3851(4) 0.2571(4) 0.8343(16)
O14_2 O 0.6095(5) 0.2130(4) 1.000(2)
C19 C 0.4693(5) 0.2857(5) 0.969(2)
C20 C 0.4723(6) 0.3325(6) 0.849(2)
H8 H 0.446278 0.338250 0.752142
C21 C 0.5134(5) 0.3695(6) 0.875(2)
C22 C 0.5140(6) 0.4190(6) 0.759(2)
C23 C 0.4211(6) 0.2490(5) 0.956(2)
O19 O 0.5459(5) 0.5503(5) 0.2231(17)
O20 O 0.5740(4) 0.4764(4) 0.3660(17)
O23 O 0.7870(4) 0.6095(5) 0.000(2)
C34 C 0.7143(5) 0.4693(5) 0.031(2)
C35 C 0.6675(6) 0.4723(6) 0.151(2)
H13 H 0.661750 0.446278 0.247858
C36 C 0.6305(6) 0.5134(5) 0.125(2)
C37 C 0.5810(6) 0.5140(6) 0.241(2)
C38 C 0.7510(5) 0.4211(6) 0.044(2)
O28 O 0.4541(5) 0.4497(5) 0.2231(17)
O29 O 0.4260(4) 0.5236(4) 0.3660(17)
O32 O 0.2130(4) 0.3905(5) 0.000(2)
C49 C 0.2857(5) 0.5307(5) 0.031(2)
C50 C 0.3325(6) 0.5277(6) 0.151(2)
H18 H 0.338250 0.553722 0.247858
C51 C 0.3695(6) 0.4866(5) 0.125(2)
C52 C 0.4190(6) 0.4860(6) 0.241(2)
C53 C 0.2490(5) 0.5789(6) 0.044(2)
In8 In 0.67202(3) 0.79944(3) 0.99051(17)
In9 In 0.32798(3) 0.20056(3) 0.99051(17)
O23_2 O 0.7870(4) 0.6095(5) 1.000(2)
O24 O 0.8323(5) 0.6529(5) 0.7657(18)
O25 O 0.6829(4) 0.7267(4) 0.1586(18)
O26 O 0.7690(4) 0.7302(4) 0.2643(15)
N3 N 0.7487(5) 0.6592(4) 0.5405(18)
C31 C 0.6399(5) 0.5533(5) 0.986(3)
H11 H 0.614372 0.580851 0.969759
C32 C 0.6864(6) 0.5535(6) 0.869(2)
C33 C 0.7244(6) 0.5110(6) 0.890(2)
H12 H 0.755675 0.510137 0.813540
C39 C 0.6940(6) 0.5949(6) 0.710(2)
C40 C 0.6544(6) 0.6037(7) 0.578(3)
H14 H 0.622578 0.583441 0.584225
C41 C 0.6601(6) 0.6422(6) 0.433(2)
H15 H 0.631892 0.649542 0.346208
C42 C 0.7090(6) 0.6697(6) 0.420(2)
C43 C 0.7433(6) 0.6259(6) 0.693(2)
C44 C 0.7914(7) 0.6290(7) 0.828(2)
C45 C 0.7213(6) 0.7112(6) 0.268(2)
O32_2 O 0.2130(4) 0.3905(5) 1.000(2)
O33 O 0.1677(5) 0.3471(5) 0.7657(18)
O34 O 0.3171(4) 0.2733(4) 0.1586(18)
O35 O 0.2310(4) 0.2698(4) 0.2643(15)
N4 N 0.2513(5) 0.3408(4) 0.5405(18)
C46 C 0.3601(5) 0.4467(5) 0.986(3)
H16 H 0.385628 0.419149 0.969759
C47 C 0.3136(6) 0.4465(6) 0.869(2)
C48 C 0.2756(6) 0.4890(6) 0.890(2)
H17 H 0.244325 0.489863 0.813540
C54 C 0.3060(6) 0.4051(6) 0.710(2)
C55 C 0.3456(6) 0.3963(7) 0.578(3)
H19 H 0.377422 0.416559 0.584225
C56 C 0.3399(6) 0.3578(6) 0.433(2)
H20 H 0.368108 0.350458 0.346208
C57 C 0.2910(6) 0.3303(6) 0.420(2)
C58 C 0.2567(6) 0.3741(6) 0.693(2)
C59 C 0.2086(7) 0.3710(7) 0.828(2)
C60 C 0.2787(6) 0.2888(6) 0.268(2)
In12 In 0.17202(3) 0.29944(3) 0.49051(17)
In13 In 0.82798(3) 0.70056(3) 0.49051(17)
O47 O 0.3323(5) 0.1529(5) 0.2657(18)
O48 O 0.6677(5) 0.8471(5) 0.2657(18)
N7 N 0.2487(5) 0.1592(4) 0.0405(18)
N8 N 0.7513(5) 0.8408(4) 0.0405(18)
O27 O 0.6477(5) 0.8647(5) 0.799(2)
O36 O 0.3523(5) 0.1353(5) 0.799(2)
O51 O 0.2690(4) 0.2302(4) 0.7643(15)
O52 O 0.7310(4) 0.7698(4) 0.7643(15)
In2_2 In -0.000000 0.000000 0.000000
O2_2 O 0.0236(4) 0.0740(4) 0.1340(17)
O3_2 O 0.0848(4) 0.2882(5) 0.5813(17)
O4_2 O 0.1149(4) 0.2429(4) 0.3343(16)
C4_2 C 0.0307(5) 0.2143(5) 0.469(2)
C5_2 C 0.0277(6) 0.1675(6) 0.349(2)
H3_2 H 0.053722 0.161750 0.252142
C8_2 C 0.0789(6) 0.2510(5) 0.456(2)
In2_3 In -0.000000 0.000000 1.000000
O19_2 O 0.0459(5) 0.0503(5) 0.7231(17)
O23_3 O 0.2870(4) 0.1095(5) 0.500(2)
C31_2 C 0.1399(5) 0.0533(5) 0.486(3)
H11_2 H 0.114372 0.080851 0.469759
C32_2 C 0.1864(6) 0.0535(6) 0.369(2)
C33_2 C 0.2244(6) 0.0110(6) 0.390(2)
H12_2 H 0.255675 0.010137 0.313540
C36_2 C 0.1305(6) 0.0134(5) 0.625(2)
C37_2 C 0.0810(6) 0.0140(6) 0.741(2)
C39_2 C 0.1940(6) 0.0949(6) 0.210(2)
C40_2 C 0.1544(6) 0.1037(7) 0.078(3)
H14_2 H 0.122578 0.083441 0.084225
C43_2 C 0.2433(6) 0.1259(6) 0.193(2)
C44_2 C 0.2914(7) 0.1290(7) 0.328(2)
O25_2 O 0.1829(4) 0.2267(4) 0.6586(18)
C41_2 C 0.1601(6) 0.1422(6) 0.933(2)
H15_2 H 0.131892 0.149542 0.846208
C42_2 C 0.2090(6) 0.1697(6) 0.920(2)
C45_2 C 0.2213(6) 0.2112(6) 0.768(2)
O27_2 O 0.1477(5) 0.3647(5) 0.299(2)
O16_2 O 0.2267(4) 0.8171(4) 0.3414(18)
C26_2 C 0.1422(6) 0.8399(6) 0.067(2)
H10_2 H 0.149542 0.868108 0.153792
C27_2 C 0.1697(6) 0.7910(6) 0.080(2)
C30_2 C 0.2112(6) 0.7787(6) 0.232(2)
O18_2 O 0.3647(5) 0.8523(5) 0.701(2)
O39_2 O 0.2882(5) 0.9152(4) 0.4187(17)
O43_2 O 0.2429(4) 0.8851(4) 0.6657(16)
In2_4 In -0.000000 1.000000 0.000000
O10_2 O 0.0503(5) 0.9541(5) 0.2769(17)
O14_3 O 0.1095(5) 0.7130(4) 0.500(2)
C16_2 C 0.0533(5) 0.8601(5) 0.514(3)
H6_2 H 0.080851 0.885628 0.530241
C17_2 C 0.0535(6) 0.8136(6) 0.631(2)
C18_2 C 0.0110(6) 0.7756(6) 0.610(2)
H7_2 H 0.010137 0.744325 0.686460
C21_2 C 0.0134(5) 0.8695(6) 0.375(2)
C22_2 C 0.0140(6) 0.9190(6) 0.259(2)
C24_2 C 0.0949(6) 0.8060(6) 0.790(2)
C25_2 C 0.1037(7) 0.8456(6) 0.922(3)
H9_2 H 0.083441 0.877422 0.915775
C28_2 C 0.1259(6) 0.7567(6) 0.807(2)
C29_2 C 0.1290(7) 0.7086(7) 0.672(2)
In2_5 In -0.000000 1.000000 1.000000
O20_2 O 0.0740(4) 0.9764(4) 0.8660(17)
C34_2 C 0.2143(5) 0.9693(5) 0.531(2)
C35_2 C 0.1675(6) 0.9723(6) 0.651(2)
H13_2 H 0.161750 0.946278 0.747858
C38_2 C 0.2510(5) 0.9211(6) 0.544(2)
O7_2 O 0.7733(4) 0.1829(4) 0.3414(18)
C11_2 C 0.8578(6) 0.1601(6) 0.067(2)
H5_2 H 0.850458 0.131892 0.153792
C12_2 C 0.8303(6) 0.2090(6) 0.080(2)
C15_2 C 0.7888(6) 0.2213(6) 0.232(2)
O9_2 O 0.6353(5) 0.1477(5) 0.701(2)
O40_2 O 0.7118(5) 0.0848(4) 0.4187(17)
O44_2 O 0.7571(4) 0.1149(4) 0.6657(16)
In2_6 In 1.000000 0.000000 0.000000
O1_2 O 0.9497(5) 0.0459(5) 0.2769(17)
O5_3 O 0.8905(5) 0.2870(4) 0.500(2)
C1_2 C 0.9467(5) 0.1399(5) 0.514(3)
H1_2 H 0.919149 0.114372 0.530241
C2_2 C 0.9465(6) 0.1864(6) 0.631(2)
C3_2 C 0.9890(6) 0.2244(6) 0.610(2)
H2_2 H 0.989863 0.255675 0.686460
C6_2 C 0.9866(5) 0.1305(6) 0.375(2)
C7_2 C 0.9860(6) 0.0810(6) 0.259(2)
C9_2 C 0.9051(6) 0.1940(6) 0.790(2)
C10_2 C 0.8963(7) 0.1544(6) 0.922(3)
H4_2 H 0.916559 0.122578 0.915775
C13_2 C 0.8741(6) 0.2433(6) 0.807(2)
C14_2 C 0.8710(7) 0.2914(7) 0.672(2)
In2_7 In 1.000000 0.000000 1.000000
O29_2 O 0.9260(4) 0.0236(4) 0.8660(17)
C49_2 C 0.7857(5) 0.0307(5) 0.531(2)
C50_2 C 0.8325(6) 0.0277(6) 0.651(2)
H18_2 H 0.838250 0.053722 0.747858
C53_2 C 0.7490(5) 0.0789(6) 0.544(2)
In2_8 In 1.000000 1.000000 0.000000
O11_2 O 0.9764(4) 0.9260(4) 0.1340(17)
O12_2 O 0.9152(4) 0.7118(5) 0.5813(17)
O13_2 O 0.8851(4) 0.7571(4) 0.3343(16)
C19_2 C 0.9693(5) 0.7857(5) 0.469(2)
C20_2 C 0.9723(6) 0.8325(6) 0.349(2)
H8_2 H 0.946278 0.838250 0.252142
C23_2 C 0.9211(6) 0.7490(5) 0.456(2)
In2_9 In 1.000000 1.000000 1.000000
O28_2 O 0.9541(5) 0.9497(5) 0.7231(17)
O32_3 O 0.7130(4) 0.8905(5) 0.500(2)
C46_2 C 0.8601(5) 0.9467(5) 0.486(3)
H16_2 H 0.885628 0.919149 0.469759
C47_2 C 0.8136(6) 0.9465(6) 0.369(2)
C48_2 C 0.7756(6) 0.9890(6) 0.390(2)
H17_2 H 0.744325 0.989863 0.313540
C51_2 C 0.8695(6) 0.9866(5) 0.625(2)
C52_2 C 0.9190(6) 0.9860(6) 0.741(2)
C54_2 C 0.8060(6) 0.9051(6) 0.210(2)
C55_2 C 0.8456(6) 0.8963(7) 0.078(3)
H19_2 H 0.877422 0.916559 0.084225
C58_2 C 0.7567(6) 0.8741(6) 0.193(2)
C59_2 C 0.7086(7) 0.8710(7) 0.328(2)
O34_2 O 0.8171(4) 0.7733(4) 0.6586(18)
C56_2 C 0.8399(6) 0.8578(6) 0.933(2)
H20_2 H 0.868108 0.850458 0.846208
C57_2 C 0.7910(6) 0.8303(6) 0.920(2)
C60_2 C 0.7787(6) 0.7888(6) 0.768(2)
O36_2 O 0.8523(5) 0.6353(5) 0.299(2)
loop_
_geom_bond_atom_site_label_1
_geom_bond_atom_site_label_2
_geom_bond_site_symmetry_1
_geom_bond_site_symmetry_2
O9 In1 1_555 1_555
O18 In3 1_555 1_555
O43 In3 1_555 1_555
O44 In1 1_555 1_555
O49 In3 1_555 1_555
O50 In1 1_555 1_555
O5 C14 1_555 1_555
O6 C14 1_555 1_555
O7 C15 1_555 1_555
O8 C15 1_555 1_555
N1 C12 1_555 1_555
C1 H1 1_555 1_555
C2 C1 1_555 1_555
C3 C2 1_555 1_555
H2 C3 1_555 1_555
C9 C2 1_555 1_555
C10 C9 1_555 1_555
H4 C10 1_555 1_555
C11 C10 1_555 1_555
H5 C11 1_555 1_555
C12 C11 1_555 1_555
C13 N1 1_555 1_555
C14 C13 1_555 1_555
C15 C12 1_555 1_555
O14 C29 1_555 1_555
O15 C29 1_555 1_555
O16 C30 1_555 1_555
O17 C30 1_555 1_555
N2 C27 1_555 1_555
C16 H6 1_555 1_555
C17 C16 1_555 1_555
C18 C17 1_555 1_555
H7 C18 1_555 1_555
C24 C17 1_555 1_555
C25 C24 1_555 1_555
H9 C25 1_555 1_555
C26 C25 1_555 1_555
H10 C26 1_555 1_555
C27 C26 1_555 1_555
C28 N2 1_555 1_555
C29 C28 1_555 1_555
C30 C27 1_555 1_555
In10 O15 1_555 1_555
In11 O6 1_555 1_555
O8 In11 1_555 1_555
N1 In11 1_555 1_555
C9 C13 1_555 1_555
O17 In10 1_555 1_555
N2 In10 1_555 1_555
C24 C28 1_555 1_555
In2 O1 1_555 1_555
O1 C7 1_555 1_555
O2 In2 1_555 1_555
O4 C8 1_555 1_555
C5 C4 1_555 1_555
H3 C5 1_555 1_555
C7 O2 1_555 1_555
C8 C4 1_555 1_555
O10 In2 1_555 1_555
O11 In2 1_555 1_555
O13 C23 1_555 1_555
C20 C19 1_555 1_555
H8 C20 1_555 1_555
C22 O10 1_555 1_555
C23 C19 1_555 1_555
O19 In2 1_555 1_555
O20 In2 1_555 1_555
O43 C38 1_555 1_555
C35 C34 1_555 1_555
H13 C35 1_555 1_555
C37 O19 1_555 1_555
C38 C34 1_555 1_555
O28 In2 1_555 1_555
O29 In2 1_555 1_555
O44 C53 1_555 1_555
C50 C49 1_555 1_555
H18 C50 1_555 1_555
C52 O28 1_555 1_555
C53 C49 1_555 1_555
O4 In8 1_555 1_555
C5 C6 1_555 1_555
C6 C7 1_555 1_555
O11 C22 1_555 1_555
O13 In9 1_555 1_555
C20 C21 1_555 1_555
C21 C22 1_555 1_555
O20 C37 1_555 1_555
C35 C36 1_555 1_555
C36 C37 1_555 1_555
O29 C52 1_555 1_555
C50 C51 1_555 1_555
C51 C52 1_555 1_555
O23_2 C44 1_555 1_555
O24 C44 1_555 1_555
O25 C45 1_555 1_555
O26 C45 1_555 1_555
N3 C42 1_555 1_555
C31 H11 1_555 1_555
C32 C31 1_555 1_555
C33 C32 1_555 1_555
H12 C33 1_555 1_555
C39 C32 1_555 1_555
C40 C39 1_555 1_555
H14 C40 1_555 1_555
C41 C40 1_555 1_555
H15 C41 1_555 1_555
C42 C41 1_555 1_555
C43 N3 1_555 1_555
C44 C43 1_555 1_555
C45 C42 1_555 1_555
O32_2 C59 1_555 1_555
O33 C59 1_555 1_555
O34 C60 1_555 1_555
O35 C60 1_555 1_555
N4 C57 1_555 1_555
C46 H16 1_555 1_555
C47 C46 1_555 1_555
C48 C47 1_555 1_555
H17 C48 1_555 1_555
C54 C47 1_555 1_555
C55 C54 1_555 1_555
H19 C55 1_555 1_555
C56 C55 1_555 1_555
H20 C56 1_555 1_555
C57 C56 1_555 1_555
C58 N4 1_555 1_555
C59 C58 1_555 1_555
C60 C57 1_555 1_555
In12 O33 1_555 1_555
In13 O24 1_555 1_555
O26 In13 1_555 1_555
N3 In13 1_555 1_555
C39 C43 1_555 1_555
O35 In12 1_555 1_555
N4 In12 1_555 1_555
C54 C58 1_555 1_555
O27 In8 1_555 1_555
O36 In9 1_555 1_555
O51 In9 1_555 1_555
O52 In8 1_555 1_555
O2_2 In2_2 1_555 1_555
O3_2 C8_2 1_555 1_555
O4_2 C8_2 1_555 1_555
C5_2 C4_2 1_555 1_555
H3_2 C5_2 1_555 1_555
C8_2 C4_2 1_555 1_555
In12 O3_2 1_555 1_555
O4_2 In12 1_555 1_555
O19_2 In2_3 1_555 1_555
O23_3 C44_2 1_555 1_555
O47 C44_2 1_555 1_555
C31_2 H11_2 1_555 1_555
C32_2 C31_2 1_555 1_555
C33_2 C32_2 1_555 1_555
H12_2 C33_2 1_555 1_555
C36_2 C31_2 1_555 1_555
C37_2 O19_2 1_555 1_555
C39_2 C32_2 1_555 1_555
C40_2 C39_2 1_555 1_555
H14_2 C40_2 1_555 1_555
C43_2 N7 1_555 1_555
C44_2 C43_2 1_555 1_555
C36_2 C37_2 1_555 1_555
C39_2 C43_2 1_555 1_555
In12 O25_2 1_555 1_555
O25_2 C45_2 1_555 1_555
O51 C45_2 1_555 1_555
H15_2 C41_2 1_555 1_555
C42_2 C41_2 1_555 1_555
C45_2 C42_2 1_555 1_555
O27_2 In12 1_555 1_555
In11 O16_2 1_555 1_555
O16_2 C30_2 1_555 1_555
O50 C30_2 1_555 1_555
H10_2 C26_2 1_555 1_555
C27_2 C26_2 1_555 1_555
C30_2 C27_2 1_555 1_555
O18_2 In11 1_555 1_555
O39_2 In11 1_555 1_555
O43_2 In11 1_555 1_555
O10_2 In2_4 1_555 1_555
O14_3 C29_2 1_555 1_555
O46 C29_2 1_555 1_555
C16_2 H6_2 1_555 1_555
C17_2 C16_2 1_555 1_555
C18_2 C17_2 1_555 1_555
H7_2 C18_2 1_555 1_555
C21_2 C16_2 1_555 1_555
C22_2 O10_2 1_555 1_555
C24_2 C17_2 1_555 1_555
C25_2 C24_2 1_555 1_555
H9_2 C25_2 1_555 1_555
C28_2 N6 1_555 1_555
C29_2 C28_2 1_555 1_555
C21_2 C22_2 1_555 1_555
C24_2 C28_2 1_555 1_555
O20_2 In2_5 1_555 1_555
O39_2 C38_2 1_555 1_555
O43_2 C38_2 1_555 1_555
C35_2 C34_2 1_555 1_555
H13_2 C35_2 1_555 1_555
C38_2 C34_2 1_555 1_555
In10 O7_2 1_555 1_555
O7_2 C15_2 1_555 1_555
O49 C15_2 1_555 1_555
H5_2 C11_2 1_555 1_555
C12_2 C11_2 1_555 1_555
C15_2 C12_2 1_555 1_555
O9_2 In10 1_555 1_555
O40_2 In10 1_555 1_555
O44_2 In10 1_555 1_555
In2_6 O1_2 1_555 1_555
O1_2 C7_2 1_555 1_555
O5_3 C14_2 1_555 1_555
O45 C14_2 1_555 1_555
C1_2 H1_2 1_555 1_555
C2_2 C1_2 1_555 1_555
C3_2 C2_2 1_555 1_555
H2_2 C3_2 1_555 1_555
C6_2 C1_2 1_555 1_555
C9_2 C2_2 1_555 1_555
C10_2 C9_2 1_555 1_555
H4_2 C10_2 1_555 1_555
C13_2 N5 1_555 1_555
C14_2 C13_2 1_555 1_555
C6_2 C7_2 1_555 1_555
C9_2 C13_2 1_555 1_555
O29_2 In2_7 1_555 1_555
O40_2 C53_2 1_555 1_555
O44_2 C53_2 1_555 1_555
C50_2 C49_2 1_555 1_555
H18_2 C50_2 1_555 1_555
C53_2 C49_2 1_555 1_555
O11_2 In2_8 1_555 1_555
O12_2 C23_2 1_555 1_555
O13_2 C23_2 1_555 1_555
C20_2 C19_2 1_555 1_555
H8_2 C20_2 1_555 1_555
C23_2 C19_2 1_555 1_555
In13 O12_2 1_555 1_555
O13_2 In13 1_555 1_555
O28_2 In2_9 1_555 1_555
O32_3 C59_2 1_555 1_555
O48 C59_2 1_555 1_555
C46_2 H16_2 1_555 1_555
C47_2 C46_2 1_555 1_555
C48_2 C47_2 1_555 1_555
H17_2 C48_2 1_555 1_555
C51_2 C46_2 1_555 1_555
C52_2 O28_2 1_555 1_555
C54_2 C47_2 1_555 1_555
C55_2 C54_2 1_555 1_555
H19_2 C55_2 1_555 1_555
C58_2 N8 1_555 1_555
C59_2 C58_2 1_555 1_555
C51_2 C52_2 1_555 1_555
C54_2 C58_2 1_555 1_555
In13 O34_2 1_555 1_555
O34_2 C60_2 1_555 1_555
O52 C60_2 1_555 1_555
H20_2 C56_2 1_555 1_555
C57_2 C56_2 1_555 1_555
C60_2 C57_2 1_555 1_555
O36_2 In13 1_555 1_555

#END
