
###############################################################################
#
# This file contains modified crystal structure data generated from the
# MOF subset of the Cambridge Structural Database (CSD) v543 
# hosted by the Cambridge Crystallographic Data Centre (CCDC).
#
# This work is licensed under the Creative Commons
# Attribution-NonCommercial-ShareAlike 4.0 International License.
# To view a copy of this license, visit
# http://creativecommons.org/licenses/by-nc-sa/4.0/
# or send a letter to
# Creative Commons, PO Box 1866, Mountain View, CA 94042, USA.
#
# CIF created using the CSD Python API on 29 September 2022
# The structure has been converted into the P1 space group
# The structure has a 3D framework
# The original CSD entry VATVUK is in the orthorhombic crystal system
# The framework has been calculated to contain at least 10.0% void space
# The void calculation uses a probe of radius 1.32A, grid spacing 0.4
#
###############################################################################

data_VATVUK
_chemical_formula_moiety         '(C104 H60 Mn4 N12 O22)n'
_symmetry_cell_setting           triclinic
_symmetry_space_group_name_H-M   'P 1'
_symmetry_Int_Tables_number      1
_space_group_name_Hall           'P 1'
loop_
_symmetry_equiv_pos_site_id
_symmetry_equiv_pos_as_xyz
1 x,y,z
_cell_length_a                   23.6408(13)
_cell_length_b                   16.3714(8)
_cell_length_c                   6.5870(4)
_cell_angle_alpha                90
_cell_angle_beta                 90
_cell_angle_gamma                90
_cell_volume                     2549.39
loop_
_atom_site_label
_atom_site_type_symbol
_atom_site_fract_x
_atom_site_fract_y
_atom_site_fract_z
N3 N 0.81870(13) 0.02928(19) 0.8961(9)
C18 C 0.66268(19) 0.0298(3) 0.8741(12)
C19 C 0.71899(16) 0.0012(2) 0.8785(10)
C20 C 0.6519(2) 0.1152(3) 0.8840(14)
H11 H 0.6148 0.1339 0.8789
C21 C 0.6943(2) 0.1689(3) 0.9003(11)
H12 H 0.6860 0.2243 0.9108
C22 C 0.7529(2) 0.1426(3) 0.9021(11)
C23 C 0.76515(17) 0.0594(2) 0.8945(9)
C24 C 0.7977(3) 0.1962(3) 0.9177(11)
H13 H 0.7908 0.2520 0.9244
C25 C 0.8522(3) 0.1677(3) 0.9235(9)
H14 H 0.8825 0.2036 0.9349
C26 C 0.8614(2) 0.0820(3) 0.9117(8)
H15 H 0.8983 0.0622 0.9149
O4 O 0.66580(14) 0.3715(2) 0.0508(6)
Mn3 Mn 0.67444(2) 0.38930(3) 0.38490(14)
O7 O 0.83028(14) 0.8691(2) 0.2154(6)
Mn1 Mn 0.82556(2) 0.88930(3) 0.88490(14)
N1 N 0.61270(14) 0.6529(2) 0.9519(7)
N2 N 0.73239(13) 0.92159(19) 0.8680(9)
O1 O 0.79903(10) 0.76030(13) 0.8859(7)
O2 O 0.87305(10) 0.67748(16) 0.9100(8)
H1 H 0.8906 0.7207 0.9114
O3 O 0.66972(14) 0.3691(2) 0.7154(6)
O5 O 0.41514(10) 0.59869(16) 0.8773(9)
O6 O 0.44590(12) 0.72055(19) 0.9873(7)
C1 C 0.81950(14) 0.6924(2) 0.8967(11)
C2 C 0.78319(14) 0.61694(19) 0.8914(10)
C3 C 0.80696(15) 0.5391(2) 0.8773(10)
H2 H 0.8460 0.5327 0.8701
C4 C 0.77175(14) 0.4719(2) 0.8742(9)
H3 H 0.7874 0.4199 0.8655
C5 C 0.71315(13) 0.48031(19) 0.8839(9)
C6 C 0.67963(13) 0.40150(19) 0.8829(12)
C7 C 0.68849(14) 0.5588(2) 0.8980(9)
C8 C 0.72517(14) 0.6251(2) 0.9012(8)
H4 H 0.7099 0.6774 0.9104
C9 C 0.62608(14) 0.5755(2) 0.9042(9)
C10 C 0.58441(15) 0.5180(2) 0.8661(12)
H5 H 0.5944 0.4642 0.8382
C11 C 0.52843(14) 0.5401(2) 0.8694(10)
H6 H 0.5006 0.5020 0.8377
C12 C 0.51360(15) 0.6185(2) 0.9195(8)
C13 C 0.55787(16) 0.6726(3) 0.9579(9)
H7 H 0.5486 0.7262 0.9900
C14 C 0.45352(16) 0.6475(3) 0.9275(7)
C15 C 0.6903(2) 0.8686(3) 0.8503(12)
H8 H 0.6993 0.8133 0.8452
C16 C 0.6334(2) 0.8906(3) 0.8388(15)
H9 H 0.6054 0.8513 0.8230
C17 C 0.62012(19) 0.9710(4) 0.8513(12)
H10 H 0.5825 0.9872 0.8447
Mn4 Mn 0.32556(2) 0.61070(3) 0.88490(14)
O8 O 0.83420(14) 0.8715(2) 0.5508(6)
O9 O 0.91514(10) 0.90131(16) 0.8773(9)
Mn1_2 Mn 0.17444(2) 0.11070(3) 0.38490(14)
N1_2 N 0.38730(14) 0.3471(2) 0.4519(7)
N2_2 N 0.26761(13) 0.07841(19) 0.3680(9)
O1_2 O 0.20097(10) 0.23970(13) 0.3859(7)
O2_2 O 0.12695(10) 0.32252(16) 0.4100(8)
H1_2 H 0.1094 0.2793 0.4114
O3_2 O 0.33028(14) 0.6309(2) 0.2154(6)
O4_2 O 0.33420(14) 0.6285(2) 0.5508(6)
O5_2 O 0.58486(10) 0.40131(16) 0.3773(9)
O6_2 O 0.55410(12) 0.27945(19) 0.4873(7)
C1_2 C 0.18050(14) 0.3076(2) 0.3967(11)
C2_2 C 0.21681(14) 0.38306(19) 0.3914(10)
C3_2 C 0.19304(15) 0.4609(2) 0.3773(10)
H2_2 H 0.1540 0.4673 0.3701
C4_2 C 0.22825(14) 0.5281(2) 0.3742(9)
H3_2 H 0.2126 0.5801 0.3655
C5_2 C 0.28685(13) 0.51969(19) 0.3839(9)
C6_2 C 0.32037(13) 0.59850(19) 0.3829(12)
C7_2 C 0.31151(14) 0.4412(2) 0.3980(9)
C8_2 C 0.27483(14) 0.3749(2) 0.4012(8)
H4_2 H 0.2901 0.3226 0.4104
C9_2 C 0.37392(14) 0.4245(2) 0.4042(9)
C10_2 C 0.41559(15) 0.4820(2) 0.3661(12)
H5_2 H 0.4056 0.5358 0.3382
C11_2 C 0.47157(14) 0.4599(2) 0.3694(10)
H6_2 H 0.4994 0.4980 0.3377
C12_2 C 0.48640(15) 0.3815(2) 0.4195(8)
C13_2 C 0.44213(16) 0.3274(3) 0.4579(9)
H7_2 H 0.4514 0.2738 0.4900
C14_2 C 0.54648(16) 0.3525(3) 0.4275(7)
C15_2 C 0.3097(2) 0.1314(3) 0.3503(12)
H8_2 H 0.3007 0.1867 0.3452
C16_2 C 0.3666(2) 0.1094(3) 0.3388(15)
H9_2 H 0.3946 0.1487 0.3230
C17_2 C 0.37988(19) 0.0290(4) 0.3513(12)
H10_2 H 0.4175 0.0128 0.3447
O7_2 O 0.16972(14) 0.1309(2) 0.7154(6)
O8_2 O 0.16580(14) 0.1285(2) 0.0508(6)
O9_2 O 0.08486(10) 0.09869(16) 0.3773(9)
O6_3 O 0.05410(12) 0.22055(19) 0.4873(7)
C14_3 C 0.04648(16) 0.1475(3) 0.4275(7)
N1_3 N 0.88730(14) 0.1529(2) 0.4519(7)
N2_3 N 0.76761(13) 0.42159(19) 0.3680(9)
N3_2 N 0.68130(13) 0.52928(19) 0.3961(9)
O1_3 O 0.70097(10) 0.26030(13) 0.3859(7)
O2_3 O 0.62695(10) 0.17748(16) 0.4100(8)
H1_3 H 0.6094 0.2207 0.4114
C1_3 C 0.68050(14) 0.1924(2) 0.3967(11)
C2_3 C 0.71681(14) 0.11694(19) 0.3914(10)
C3_3 C 0.69304(15) 0.0391(2) 0.3773(10)
H2_3 H 0.6540 0.0327 0.3701
C7_3 C 0.81151(14) 0.0588(2) 0.3980(9)
C8_3 C 0.77483(14) 0.1251(2) 0.4012(8)
H4_3 H 0.7901 0.1774 0.4104
C9_3 C 0.87392(14) 0.0755(2) 0.4042(9)
C10_3 C 0.91559(15) 0.0180(2) 0.3661(12)
C11_3 C 0.97157(14) 0.0401(2) 0.3694(10)
H6_3 H 0.9994 0.0020 0.3377
C12_3 C 0.98640(15) 0.1185(2) 0.4195(8)
C13_3 C 0.94213(16) 0.1726(3) 0.4579(9)
H7_3 H 0.9514 0.2262 0.4900
C15_3 C 0.8097(2) 0.3686(3) 0.3503(12)
H8_3 H 0.8007 0.3133 0.3452
C16_3 C 0.8666(2) 0.3906(3) 0.3388(15)
H9_3 H 0.8946 0.3513 0.3230
C17_3 C 0.87988(19) 0.4710(4) 0.3513(12)
H10_3 H 0.9175 0.4872 0.3447
C18_2 C 0.83732(19) 0.5298(3) 0.3741(12)
C19_2 C 0.78101(16) 0.5012(2) 0.3785(10)
C20_2 C 0.8481(2) 0.6152(3) 0.3840(14)
H11_2 H 0.8852 0.6339 0.3789
C21_2 C 0.8057(2) 0.6689(3) 0.4003(11)
H12_2 H 0.8140 0.7243 0.4108
C22_2 C 0.7471(2) 0.6426(3) 0.4021(11)
C23_2 C 0.73485(17) 0.5594(2) 0.3945(9)
C24_2 C 0.7023(3) 0.6962(3) 0.4177(11)
H13_2 H 0.7092 0.7520 0.4244
C25_2 C 0.6478(3) 0.6677(3) 0.4235(9)
H14_2 H 0.6175 0.7036 0.4349
C26_2 C 0.6386(2) 0.5820(3) 0.4117(8)
H15_2 H 0.6017 0.5622 0.4149
C4_3 C 0.72825(14) 0.9719(2) 0.3742(9)
H3_3 H 0.7126 0.9199 0.3655
C5_3 C 0.78685(13) 0.98031(19) 0.3839(9)
C6_3 C 0.82037(13) 0.90150(19) 0.3829(12)
H5_3 H 0.9056 0.9642 0.3382
C4_4 C 0.27175(14) 0.0281(2) 0.8742(9)
H3_4 H 0.2874 0.0801 0.8655
C5_4 C 0.21315(13) 0.01969(19) 0.8839(9)
C6_4 C 0.17963(13) 0.09850(19) 0.8829(12)
H5_4 H 0.0944 0.0358 0.8382
N1_4 N 0.11270(14) 0.8471(2) 0.9519(7)
N2_4 N 0.23239(13) 0.57841(19) 0.8680(9)
N3_3 N 0.31870(13) 0.47072(19) 0.8961(9)
O1_4 O 0.29903(10) 0.73970(13) 0.8859(7)
O2_4 O 0.37305(10) 0.82252(16) 0.9100(8)
H1_4 H 0.3906 0.7793 0.9114
C1_4 C 0.31950(14) 0.8076(2) 0.8967(11)
C2_4 C 0.28319(14) 0.88306(19) 0.8914(10)
C3_4 C 0.30696(15) 0.9609(2) 0.8773(10)
H2_4 H 0.3460 0.9673 0.8701
C7_4 C 0.18849(14) 0.9412(2) 0.8980(9)
C8_4 C 0.22517(14) 0.8749(2) 0.9012(8)
H4_4 H 0.2099 0.8226 0.9104
C9_4 C 0.12608(14) 0.9245(2) 0.9042(9)
C10_4 C 0.08441(15) 0.9820(2) 0.8661(12)
C11_4 C 0.02843(14) 0.9599(2) 0.8694(10)
H6_4 H 0.0006 0.9980 0.8377
C12_4 C 0.01360(15) 0.8815(2) 0.9195(8)
C13_4 C 0.05787(16) 0.8274(3) 0.9579(9)
H7_4 H 0.0486 0.7738 0.9900
C15_4 C 0.1903(2) 0.6314(3) 0.8503(12)
H8_4 H 0.1993 0.6867 0.8452
C16_4 C 0.1334(2) 0.6094(3) 0.8388(15)
H9_4 H 0.1054 0.6487 0.8230
C17_4 C 0.12012(19) 0.5290(4) 0.8513(12)
H10_4 H 0.0825 0.5128 0.8447
C18_3 C 0.16268(19) 0.4702(3) 0.8741(12)
C19_3 C 0.21899(16) 0.4988(2) 0.8785(10)
C20_3 C 0.1519(2) 0.3848(3) 0.8840(14)
H11_3 H 0.1148 0.3661 0.8789
C21_3 C 0.1943(2) 0.3311(3) 0.9003(11)
H12_3 H 0.1860 0.2757 0.9108
C22_3 C 0.2529(2) 0.3574(3) 0.9021(11)
C23_3 C 0.26515(17) 0.4406(2) 0.8945(9)
C24_3 C 0.2977(3) 0.3038(3) 0.9177(11)
H13_3 H 0.2908 0.2480 0.9244
C25_3 C 0.3522(3) 0.3323(3) 0.9235(9)
H14_3 H 0.3825 0.2964 0.9349
C26_3 C 0.3614(2) 0.4180(3) 0.9117(8)
H15_3 H 0.3983 0.4378 0.9149
O6_4 O 0.94590(12) 0.77945(19) 0.9873(7)
C14_4 C 0.95352(16) 0.8525(3) 0.9275(7)
N3_4 N 0.18130(13) 0.97072(19) 0.3961(9)
C18_4 C 0.33732(19) 0.9702(3) 0.3741(12)
C19_4 C 0.28101(16) 0.9988(2) 0.3785(10)
C20_4 C 0.3481(2) 0.8848(3) 0.3840(14)
H11_4 H 0.3852 0.8661 0.3789
C21_4 C 0.3057(2) 0.8311(3) 0.4003(11)
H12_4 H 0.3140 0.7757 0.4108
C22_4 C 0.2471(2) 0.8574(3) 0.4021(11)
C23_4 C 0.23485(17) 0.9406(2) 0.3945(9)
C24_4 C 0.2023(3) 0.8038(3) 0.4177(11)
H13_4 H 0.2092 0.7480 0.4244
C25_4 C 0.1478(3) 0.8323(3) 0.4235(9)
H14_4 H 0.1175 0.7964 0.4349
C26_4 C 0.1386(2) 0.9180(3) 0.4117(8)
H15_4 H 0.1017 0.9378 0.4149
loop_
_geom_bond_atom_site_label_1
_geom_bond_atom_site_label_2
_geom_bond_site_symmetry_1
_geom_bond_site_symmetry_2
C20 C18 1_555 1_555
H11 C20 1_555 1_555
C21 C20 1_555 1_555
H12 C21 1_555 1_555
C22 C21 1_555 1_555
C23 N3 1_555 1_555
C24 C22 1_555 1_555
H13 C24 1_555 1_555
C25 C24 1_555 1_555
H14 C25 1_555 1_555
C26 N3 1_555 1_555
H15 C26 1_555 1_555
C18 C19 1_555 1_555
C19 C23 1_555 1_555
C22 C23 1_555 1_555
C25 C26 1_555 1_555
Mn3 O4 1_555 1_555
Mn1 N2 1_555 1_555
N1 C9 1_555 1_555
N2 C15 1_555 1_555
O1 Mn1 1_555 1_555
O2 H1 1_555 1_555
O3 C6 1_555 1_555
O5 C14 1_555 1_555
O6 C14 1_555 1_555
C1 O1 1_555 1_555
C2 C1 1_555 1_555
C3 C2 1_555 1_555
H2 C3 1_555 1_555
C4 C3 1_555 1_555
H3 C4 1_555 1_555
C5 C4 1_555 1_555
C6 C5 1_555 1_555
C7 C5 1_555 1_555
C8 C2 1_555 1_555
H4 C8 1_555 1_555
C9 C7 1_555 1_555
C10 C9 1_555 1_555
H5 C10 1_555 1_555
C11 C10 1_555 1_555
H6 C11 1_555 1_555
C12 C11 1_555 1_555
C13 N1 1_555 1_555
H7 C13 1_555 1_555
C14 C12 1_555 1_555
C15 H8 1_555 1_555
C16 C15 1_555 1_555
H9 C16 1_555 1_555
C17 C16 1_555 1_555
H10 C17 1_555 1_555
Mn3 O3 1_555 1_555
Mn4 O5 1_555 1_555
O8 Mn1 1_555 1_555
O9 Mn1 1_555 1_555
O2 C1 1_555 1_555
C7 C8 1_555 1_555
C12 C13 1_555 1_555
Mn1_2 N2_2 1_555 1_555
N1_2 C9_2 1_555 1_555
N2_2 C15_2 1_555 1_555
O1_2 Mn1_2 1_555 1_555
O2_2 H1_2 1_555 1_555
O3_2 C6_2 1_555 1_555
O4_2 C6_2 1_555 1_555
O5_2 C14_2 1_555 1_555
O6_2 C14_2 1_555 1_555
C1_2 O1_2 1_555 1_555
C2_2 C1_2 1_555 1_555
C3_2 C2_2 1_555 1_555
H2_2 C3_2 1_555 1_555
C4_2 C3_2 1_555 1_555
H3_2 C4_2 1_555 1_555
C5_2 C4_2 1_555 1_555
C6_2 C5_2 1_555 1_555
C7_2 C5_2 1_555 1_555
C8_2 C2_2 1_555 1_555
H4_2 C8_2 1_555 1_555
C9_2 C7_2 1_555 1_555
C10_2 C9_2 1_555 1_555
H5_2 C10_2 1_555 1_555
C11_2 C10_2 1_555 1_555
H6_2 C11_2 1_555 1_555
C12_2 C11_2 1_555 1_555
C13_2 N1_2 1_555 1_555
H7_2 C13_2 1_555 1_555
C14_2 C12_2 1_555 1_555
C15_2 H8_2 1_555 1_555
C16_2 C15_2 1_555 1_555
H9_2 C16_2 1_555 1_555
C17_2 C16_2 1_555 1_555
H10_2 C17_2 1_555 1_555
Mn4 O4_2 1_555 1_555
Mn3 O5_2 1_555 1_555
O7_2 Mn1_2 1_555 1_555
O8_2 Mn1_2 1_555 1_555
O9_2 Mn1_2 1_555 1_555
O2_2 C1_2 1_555 1_555
C7_2 C8_2 1_555 1_555
C12_2 C13_2 1_555 1_555
O9_2 C14_3 1_555 1_555
O6_3 C14_3 1_555 1_555
Mn3 N2_3 1_555 1_555
N1_3 C9_3 1_555 1_555
N2_3 C15_3 1_555 1_555
N3_2 Mn3 1_555 1_555
O1_3 Mn3 1_555 1_555
O2_3 H1_3 1_555 1_555
C1_3 O1_3 1_555 1_555
C2_3 C1_3 1_555 1_555
C3_3 C2_3 1_555 1_555
H2_3 C3_3 1_555 1_555
C8_3 C2_3 1_555 1_555
H4_3 C8_3 1_555 1_555
C9_3 C7_3 1_555 1_555
C10_3 C9_3 1_555 1_555
C11_3 C10_3 1_555 1_555
H6_3 C11_3 1_555 1_555
C12_3 C11_3 1_555 1_555
C13_3 N1_3 1_555 1_555
H7_3 C13_3 1_555 1_555
C15_3 H8_3 1_555 1_555
C16_3 C15_3 1_555 1_555
H9_3 C16_3 1_555 1_555
C17_3 C16_3 1_555 1_555
H10_3 C17_3 1_555 1_555
C18_2 C17_3 1_555 1_555
C19_2 N2_3 1_555 1_555
C20_2 C18_2 1_555 1_555
H11_2 C20_2 1_555 1_555
C21_2 C20_2 1_555 1_555
H12_2 C21_2 1_555 1_555
C22_2 C21_2 1_555 1_555
C23_2 N3_2 1_555 1_555
C24_2 C22_2 1_555 1_555
H13_2 C24_2 1_555 1_555
C25_2 C24_2 1_555 1_555
H14_2 C25_2 1_555 1_555
C26_2 N3_2 1_555 1_555
H15_2 C26_2 1_555 1_555
O2_3 C1_3 1_555 1_555
C7_3 C8_3 1_555 1_555
C12_3 C13_3 1_555 1_555
C18_2 C19_2 1_555 1_555
C19_2 C23_2 1_555 1_555
C22_2 C23_2 1_555 1_555
C25_2 C26_2 1_555 1_555
O7 C6_3 1_555 1_555
O8 C6_3 1_555 1_555
H3_3 C4_3 1_555 1_555
C5_3 C4_3 1_555 1_555
C6_3 C5_3 1_555 1_555
O7_2 C6_4 1_555 1_555
H3_4 C4_4 1_555 1_555
C5_4 C4_4 1_555 1_555
C6_4 C5_4 1_555 1_555
Mn4 N2_4 1_555 1_555
N1_4 C9_4 1_555 1_555
N2_4 C15_4 1_555 1_555
N3_3 Mn4 1_555 1_555
O1_4 Mn4 1_555 1_555
O2_4 H1_4 1_555 1_555
C1_4 O1_4 1_555 1_555
C2_4 C1_4 1_555 1_555
C3_4 C2_4 1_555 1_555
H2_4 C3_4 1_555 1_555
C8_4 C2_4 1_555 1_555
H4_4 C8_4 1_555 1_555
C9_4 C7_4 1_555 1_555
C10_4 C9_4 1_555 1_555
C11_4 C10_4 1_555 1_555
H6_4 C11_4 1_555 1_555
C12_4 C11_4 1_555 1_555
C13_4 N1_4 1_555 1_555
H7_4 C13_4 1_555 1_555
C15_4 H8_4 1_555 1_555
C16_4 C15_4 1_555 1_555
H9_4 C16_4 1_555 1_555
C17_4 C16_4 1_555 1_555
H10_4 C17_4 1_555 1_555
C18_3 C17_4 1_555 1_555
C19_3 N2_4 1_555 1_555
C20_3 C18_3 1_555 1_555
H11_3 C20_3 1_555 1_555
C21_3 C20_3 1_555 1_555
H12_3 C21_3 1_555 1_555
C22_3 C21_3 1_555 1_555
C23_3 N3_3 1_555 1_555
C24_3 C22_3 1_555 1_555
H13_3 C24_3 1_555 1_555
C25_3 C24_3 1_555 1_555
H14_3 C25_3 1_555 1_555
C26_3 N3_3 1_555 1_555
H15_3 C26_3 1_555 1_555
O2_4 C1_4 1_555 1_555
C7_4 C8_4 1_555 1_555
C12_4 C13_4 1_555 1_555
C18_3 C19_3 1_555 1_555
C19_3 C23_3 1_555 1_555
C22_3 C23_3 1_555 1_555
C25_3 C26_3 1_555 1_555
O9 C14_4 1_555 1_555
O6_4 C14_4 1_555 1_555
C20_4 C18_4 1_555 1_555
H11_4 C20_4 1_555 1_555
C21_4 C20_4 1_555 1_555
H12_4 C21_4 1_555 1_555
C22_4 C21_4 1_555 1_555
C23_4 N3_4 1_555 1_555
C24_4 C22_4 1_555 1_555
H13_4 C24_4 1_555 1_555
C25_4 C24_4 1_555 1_555
H14_4 C25_4 1_555 1_555
C26_4 N3_4 1_555 1_555
H15_4 C26_4 1_555 1_555
C18_4 C19_4 1_555 1_555
C19_4 C23_4 1_555 1_555
C22_4 C23_4 1_555 1_555
C25_4 C26_4 1_555 1_555

#END
