
###############################################################################
#
# This file contains modified crystal structure data generated from the
# MOF subset of the Cambridge Structural Database (CSD) v543 
# hosted by the Cambridge Crystallographic Data Centre (CCDC).
#
# This work is licensed under the Creative Commons
# Attribution-NonCommercial-ShareAlike 4.0 International License.
# To view a copy of this license, visit
# http://creativecommons.org/licenses/by-nc-sa/4.0/
# or send a letter to
# Creative Commons, PO Box 1866, Mountain View, CA 94042, USA.
#
# CIF created using the CSD Python API on 29 September 2022
# The structure has been converted into the P1 space group
# The structure has a 3D framework
# The original CSD entry VATYOI is in the monoclinic crystal system
# The framework has been calculated to contain at least 10.0% void space
# The void calculation uses a probe of radius 1.32A, grid spacing 0.4
#
###############################################################################

data_VATYOI
_chemical_formula_moiety         '(C152 H116 N28 Ni4 O20)n'
_symmetry_cell_setting           triclinic
_symmetry_space_group_name_H-M   'P 1'
_symmetry_Int_Tables_number      1
_space_group_name_Hall           'P 1'
loop_
_symmetry_equiv_pos_site_id
_symmetry_equiv_pos_as_xyz
1 x,y,z
_cell_length_a                   12.6581(7)
_cell_length_b                   38.284(2)
_cell_length_c                   8.1537(4)
_cell_angle_alpha                90
_cell_angle_beta                 101.3020(10)
_cell_angle_gamma                90
_cell_volume                     3874.68
loop_
_atom_site_label
_atom_site_type_symbol
_atom_site_fract_x
_atom_site_fract_y
_atom_site_fract_z
N12 N 0.10207(18) 0.21937(5) 0.0417(3)
N13 N 0.22817(16) 0.18002(5) 0.1233(3)
C64 C 0.0013(2) 0.23691(7) 0.0329(3)
H53 H 0.0609 0.2863 0.0228
C75 C 0.2570(2) 0.20061(8) 0.0040(4)
C76 C 0.1344(2) 0.19181(6) 0.1429(3)
H57 H 0.0949 0.1824 0.2171
Ni4 Ni 0.31171(2) 0.13855(2) 0.26501(3)
O3 O 0.05107(15) 0.11263(6) 0.2212(2)
O4 O 0.19221(14) 0.13496(5) 0.3998(2)
C10 C 0.03950(19) 0.12012(6) 0.5067(3)
C11 C 0.0977(2) 0.12234(6) 0.3644(3)
C13 C 0.0851(2) 0.13425(7) 0.6627(3)
H9 H 0.1537 0.1440 0.6793
C14 C 0.0296(2) 0.13394(7) 0.7920(3)
H10 H 0.0609 0.1439 0.8941
O1 O 0.43674(14) 0.14265(5) 0.1426(2)
O5 O 0.23641(15) 0.10151(5) 0.0882(2)
H2 H 0.1609 0.1006 0.0903
N1 N 0.39044(16) 0.17539(5) 0.4355(2)
N2 N 0.51953(18) 0.21268(6) 0.5328(3)
N5 N 0.39259(17) 0.09799(5) 0.4021(2)
N6 N 0.44795(17) 0.06016(5) 0.6042(2)
C3 C 0.6408(2) 0.12412(7) 0.1010(3)
H3 H 0.6264 0.1231 0.2084
C6 C 0.7450(2) 0.11969(7) 0.0786(3)
H5 H 0.7995 0.1155 0.1709
C15 C 0.4866(2) 0.18692(7) 0.4238(3)
H11 H 0.5268 0.1782 0.3489
C16 C 0.3612(2) 0.19469(8) 0.5599(4)
H12 H 0.2970 0.1921 0.5978
C17 C 0.4391(3) 0.21807(9) 0.6204(4)
H13 H 0.4382 0.2345 0.7043
C19 C 0.6207(2) 0.23030(7) 0.5448(4)
C20 C 0.8089(2) 0.22833(7) 0.5345(4)
C21 C 0.8125(2) 0.26515(7) 0.5417(4)
C22 C 0.7102(2) 0.21148(7) 0.5375(4)
H14 H 0.7066 0.1872 0.5343
C23 C 0.9113(2) 0.28210(7) 0.5380(4)
H15 H 0.9146 0.3064 0.5391
C24 C 0.9034(2) 0.20948(7) 0.5252(4)
H16 H 0.9007 0.1852 0.5182
C25 C 0.6236(2) 0.26700(8) 0.5538(4)
H17 H 0.5618 0.2795 0.5618
C26 C 0.9986(2) 0.22631(7) 0.5263(4)
C27 C 0.7173(2) 0.28388(8) 0.5507(5)
H19 H 0.7192 0.3082 0.5547
C31 C 0.4665(2) 0.07561(7) 0.3540(3)
H23 H 0.4889 0.0764 0.2521
C32 C 0.5013(2) 0.05243(7) 0.4776(3)
H24 H 0.5515 0.0347 0.4769
C33 C 0.3833(2) 0.08792(6) 0.5521(3)
H25 H 0.3381 0.0984 0.6149
C34 C 0.4548(2) 0.04133(6) 0.7567(3)
C36 C 0.5376(2) 0.01832(7) 0.8063(3)
H26 H 0.5918 0.0161 0.7446
C37 C 0.3745(2) 0.04594(7) 0.8517(3)
H27 H 0.3193 0.0619 0.8175
C38 C 0.3775(2) 0.02692(7) 0.9946(3)
H29 H 0.925(2) 0.1170(7) 0.007(4)
C56 C 0.03950(19) 0.37988(6) 0.0067(3)
C59 C 0.0851(2) 0.36575(7) 0.1627(3)
H44 H 0.1537 0.3560 0.1793
C60 C 0.0296(2) 0.36606(7) 0.2920(3)
H45 H 0.0609 0.3561 0.3941
C74 C 0.1806(2) 0.22539(8) 0.9532(4)
H55 H 0.1819 0.2428 0.8743
H56 H 0.3200 0.1981 0.9627
O8 O 0.05107(15) 0.38737(6) 0.7212(2)
O9 O 0.19221(14) 0.36504(5) 0.8998(2)
C57 C 0.0977(2) 0.37766(6) 0.8644(3)
Ni5 Ni 0.31171(2) 0.36145(2) 0.76501(3)
N8 N 0.39259(17) 0.40201(5) 0.9021(2)
C39 C 0.4665(2) 0.42439(7) 0.8540(3)
H30 H 0.4889 0.4236 0.7521
C40 C 0.5013(2) 0.44757(7) 0.9776(3)
H31 H 0.5515 0.4653 0.9769
O6 O 0.43674(14) 0.35735(5) 0.6426(2)
O7 O 0.36528(15) 0.36888(5) 0.3755(2)
O10 O 0.23641(15) 0.39849(5) 0.5882(2)
H36 H 0.2459 0.3917 0.4787
H37 H 0.1609 0.3994 0.5903
N10 N 0.39044(16) 0.32461(5) 0.9355(2)
N14 N 0.87855(18) 0.38111(7) 0.4121(3)
C47 C 0.4431(2) 0.36518(6) 0.4935(3)
C48 C 0.55606(19) 0.36981(6) 0.4655(3)
C49 C 0.6408(2) 0.37588(7) 0.6010(3)
H38 H 0.6264 0.3769 0.7084
C50 C 0.7700(2) 0.37864(7) 0.4201(3)
C51 C 0.6864(2) 0.37266(7) 0.2839(3)
H39 H 0.7009 0.3716 0.1765
C52 C 0.7450(2) 0.38031(7) 0.5786(3)
H40 H 0.7995 0.3845 0.6709
C53 C 0.5817(2) 0.36835(7) 0.3081(3)
H41 H 0.5270 0.3644 0.2158
C54 C 0.9273(2) 0.38098(7) 0.2731(3)
C58 C 0.8830(2) 0.39673(7) 0.1203(3)
H43 H 0.8162 0.4076 0.1060
C61 C 0.4866(2) 0.31308(7) 0.9238(3)
H46 H 0.5268 0.3218 0.8489
H58 H 0.925(2) 0.3830(7) 0.507(4)
N15 N 0.22817(16) 0.31998(5) 0.6233(3)
N3 N 0.10207(18) 0.28063(5) 0.5417(3)
C18 C 0.0013(2) 0.26309(7) 0.5329(3)
H18 H 0.0609 0.2137 0.5228
C28 C 0.1806(2) 0.27461(8) 0.4532(4)
H20 H 0.1819 0.2572 0.3743
C29 C 0.2570(2) 0.29939(8) 0.5040(4)
H21 H 0.3200 0.3019 0.4627
C30 C 0.1344(2) 0.30819(6) 0.6429(3)
H22 H 0.0949 0.3176 0.7171
C9 C 0.0610(2) 0.60398(7) 0.0095(3)
H7 H 0.0911 0.5934 0.1104
Ni1 Ni 0.68829(2) 0.63855(2) 0.23499(3)
O1_2 O 0.56326(14) 0.64265(5) 0.3574(2)
O2 O 0.63472(15) 0.63112(5) 0.6245(2)
O5_2 O 0.76359(15) 0.60151(5) 0.4118(2)
H1 H 0.7541 0.6083 0.5213
H2_2 H 0.8391 0.6006 0.4097
N1_2 N 0.60956(16) 0.67539(5) 0.0645(2)
N5_2 N 0.60741(17) 0.59799(5) 0.0979(2)
N7 N 0.12145(18) 0.61889(7) 0.5879(3)
C1 C 0.5569(2) 0.63482(6) 0.5065(3)
C2 C 0.44394(19) 0.63019(6) 0.5345(3)
C3_2 C 0.3592(2) 0.62412(7) 0.3990(3)
H3_2 H 0.3736 0.6231 0.2916
C4 C 0.2300(2) 0.62136(7) 0.5799(3)
C5 C 0.3136(2) 0.62734(7) 0.7161(3)
H4 H 0.2991 0.6284 0.8235
C6_2 C 0.2550(2) 0.61969(7) 0.4214(3)
H5_2 H 0.2005 0.6155 0.3291
C7 C 0.4183(2) 0.63165(7) 0.6919(3)
H6 H 0.4730 0.6356 0.7842
C8 C 0.0727(2) 0.61902(7) 0.7269(3)
C12 C 0.1170(2) 0.60327(7) 0.8797(3)
H8 H 0.1838 0.5924 0.8940
C15_2 C 0.5134(2) 0.68692(7) 0.0762(3)
H11_2 H 0.4732 0.6782 0.1511
C31_2 C 0.5335(2) 0.57561(7) 0.1460(3)
H23_2 H 0.5111 0.5764 0.2479
C32_2 C 0.4987(2) 0.55243(7) 0.0224(3)
H24_2 H 0.4485 0.5347 0.0231
H29_2 H 0.075(2) 0.6170(7) 0.493(4)
O11 O 0.80779(14) 0.63496(5) 0.1002(2)
N16 N 0.77183(16) 0.68002(5) 0.3767(3)
O3_2 O 0.94893(15) 0.61263(6) 0.2788(2)
C11_2 C 0.9023(2) 0.62234(6) 0.1356(3)
N12_2 N 0.89793(18) 0.71937(5) 0.4583(3)
C64_2 C 0.9987(2) 0.73691(7) 0.4671(3)
H53_2 H 0.9391 0.7863 0.4772
C74_2 C 0.8194(2) 0.72539(8) 0.5468(4)
H55_2 H 0.8181 0.7428 0.6257
C75_2 C 0.7430(2) 0.70061(8) 0.4960(4)
H56_2 H 0.6800 0.6981 0.5373
C76_2 C 0.8656(2) 0.69181(6) 0.3571(3)
H57_2 H 0.9051 0.6824 0.2829
N2_2 N 0.48047(18) 0.71268(6) 0.9672(3)
N6_2 N 0.55205(17) 0.56016(5) 0.8958(2)
C16_2 C 0.6388(2) 0.69469(8) 0.9401(4)
H12_2 H 0.7030 0.6921 0.9022
C17_2 C 0.5609(3) 0.71807(9) 0.8796(4)
H13_2 H 0.5618 0.7345 0.7957
C19_2 C 0.3793(2) 0.73030(7) 0.9552(4)
C20_2 C 0.1911(2) 0.72833(7) 0.9655(4)
C21_2 C 0.1875(2) 0.76515(7) 0.9583(4)
C22_2 C 0.2898(2) 0.71148(7) 0.9625(4)
H14_2 H 0.2934 0.6872 0.9657
C23_2 C 0.0887(2) 0.78210(7) 0.9620(4)
H15_2 H 0.0854 0.8064 0.9609
C24_2 C 0.0966(2) 0.70948(7) 0.9748(4)
H16_2 H 0.0993 0.6852 0.9818
C25_2 C 0.3764(2) 0.76700(8) 0.9462(4)
H17_2 H 0.4382 0.7795 0.9382
C26_2 C 0.0014(2) 0.72631(7) 0.9737(4)
C27_2 C 0.2827(2) 0.78388(8) 0.9493(5)
H19_2 H 0.2808 0.8082 0.9453
C33_2 C 0.6167(2) 0.58792(6) 0.9479(3)
H25_2 H 0.6619 0.5984 0.8851
C34_2 C 0.5452(2) 0.54133(6) 0.7433(3)
C35 C 0.5405(2) 0.50217(6) 0.4520(3)
C36_2 C 0.4624(2) 0.51832(7) 0.6937(3)
H26_2 H 0.4082 0.5161 0.7554
C37_2 C 0.6255(2) 0.54594(7) 0.6483(3)
H27_2 H 0.6807 0.5619 0.6825
C38_2 C 0.6225(2) 0.52692(7) 0.5054(3)
H28 H 0.6755 0.5304 0.4425
N9 N 0.44795(17) 0.43984(5) 0.1042(2)
C41 C 0.3833(2) 0.41208(6) 0.0521(3)
H32 H 0.3381 0.4016 0.1149
C42 C 0.4548(2) 0.45867(6) 0.2567(3)
C43 C 0.4595(2) 0.49783(6) 0.5480(3)
C44 C 0.5376(2) 0.48168(7) 0.3063(3)
H33 H 0.5918 0.4839 0.2446
C45 C 0.3745(2) 0.45406(7) 0.3517(3)
H34 H 0.3193 0.4381 0.3175
C46 C 0.3775(2) 0.47308(7) 0.4946(3)
H35 H 0.3245 0.4696 0.5575
N11 N 0.51953(18) 0.28732(6) 0.0328(3)
C62 C 0.3612(2) 0.30531(8) 0.0599(4)
H47 H 0.2970 0.3079 0.0978
C63 C 0.4391(3) 0.28193(9) 0.1204(4)
H48 H 0.4382 0.2655 0.2043
C65 C 0.6207(2) 0.26970(7) 0.0448(4)
C66 C 0.8089(2) 0.27167(7) 0.0345(4)
C67 C 0.8125(2) 0.23485(7) 0.0417(4)
C68 C 0.7102(2) 0.28852(7) 0.0375(4)
H49 H 0.7066 0.3128 0.0343
C69 C 0.9113(2) 0.21790(7) 0.0380(4)
H50 H 0.9146 0.1936 0.0391
C70 C 0.9034(2) 0.29052(7) 0.0252(4)
H51 H 0.9007 0.3148 0.0182
C71 C 0.6236(2) 0.23300(8) 0.0538(4)
H52 H 0.5618 0.2205 0.0618
C72 C 0.9986(2) 0.27369(7) 0.0263(4)
C73 C 0.7173(2) 0.21612(8) 0.0507(5)
H54 H 0.7192 0.1918 0.0547
C55 C 0.9390(2) 0.39602(7) 0.9905(3)
H42 H 0.9089 0.4066 0.8896
C10_2 C 0.96050(19) 0.62012(6) 0.9933(3)
C13_2 C 0.9149(2) 0.63425(7) 0.8373(3)
H9_2 H 0.8463 0.6440 0.8207
C14_2 C 0.9704(2) 0.63394(7) 0.7080(3)
H10_2 H 0.9391 0.6439 0.6059
C28_2 C 0.8194(2) 0.77461(8) 0.0468(4)
H20_2 H 0.8181 0.7572 0.1257
H21_2 H 0.6800 0.8019 0.0373
N3_2 N 0.89793(18) 0.78063(5) 0.9583(3)
N4 N 0.77183(16) 0.81998(5) 0.8767(3)
C18_2 C 0.9987(2) 0.76309(7) 0.9671(3)
H18_2 H 0.9391 0.7137 0.9772
C29_2 C 0.7430(2) 0.79939(8) 0.9960(4)
C30_2 C 0.8656(2) 0.80819(6) 0.8571(3)
H22_2 H 0.9051 0.8176 0.7829
Ni6 Ni 0.68829(2) 0.86145(2) 0.73499(3)
N8_2 N 0.60741(17) 0.90201(5) 0.5979(2)
N9_2 N 0.55205(17) 0.93984(5) 0.3958(2)
C39_2 C 0.5335(2) 0.92439(7) 0.6460(3)
H30_2 H 0.5111 0.9236 0.7479
C40_2 C 0.4987(2) 0.94757(7) 0.5224(3)
H31_2 H 0.4485 0.9653 0.5231
C41_2 C 0.6167(2) 0.91208(6) 0.4479(3)
H32_2 H 0.6619 0.9016 0.3851
C42_2 C 0.5452(2) 0.95867(6) 0.2433(3)
C44_2 C 0.4624(2) 0.98168(7) 0.1937(3)
H33_2 H 0.4082 0.9839 0.2554
C45_2 C 0.6255(2) 0.95406(7) 0.1483(3)
H34_2 H 0.6807 0.9381 0.1825
C46_2 C 0.6225(2) 0.97308(7) 0.0054(3)
O6_2 O 0.56326(14) 0.85735(5) 0.8574(2)
O10_2 O 0.76359(15) 0.89849(5) 0.9118(2)
H37_2 H 0.8391 0.8994 0.9097
N10_2 N 0.60956(16) 0.82461(5) 0.5645(2)
N11_2 N 0.48047(18) 0.78732(6) 0.4672(3)
C49_2 C 0.3592(2) 0.87588(7) 0.8990(3)
H38_2 H 0.3736 0.8769 0.7916
C52_2 C 0.2550(2) 0.88031(7) 0.9214(3)
H40_2 H 0.2005 0.8845 0.8291
C61_2 C 0.5134(2) 0.81308(7) 0.5762(3)
H46_2 H 0.4732 0.8218 0.6511
C62_2 C 0.6388(2) 0.80531(8) 0.4401(4)
H47_2 H 0.7030 0.8079 0.4022
C63_2 C 0.5609(3) 0.78193(9) 0.3796(4)
H48_2 H 0.5618 0.7655 0.2957
C65_2 C 0.3793(2) 0.76970(7) 0.4552(4)
C66_2 C 0.1911(2) 0.77167(7) 0.4655(4)
C67_2 C 0.1875(2) 0.73485(7) 0.4583(4)
C68_2 C 0.2898(2) 0.78852(7) 0.4625(4)
H49_2 H 0.2934 0.8128 0.4657
C69_2 C 0.0887(2) 0.71790(7) 0.4620(4)
H50_2 H 0.0854 0.6936 0.4609
C70_2 C 0.0966(2) 0.79052(7) 0.4748(4)
H51_2 H 0.0993 0.8148 0.4818
C71_2 C 0.3764(2) 0.73300(8) 0.4462(4)
H52_2 H 0.4382 0.7205 0.4382
C72_2 C 0.0014(2) 0.77369(7) 0.4737(4)
C73_2 C 0.2827(2) 0.71612(8) 0.4493(5)
H54_2 H 0.2808 0.6918 0.4453
H58_2 H 0.075(2) 0.8830(7) 0.993(4)
O12 O 0.80779(14) 0.86504(5) 0.6002(2)
O8_2 O 0.94893(15) 0.88737(6) 0.7788(2)
C56_2 C 0.96050(19) 0.87988(6) 0.4933(3)
C57_2 C 0.9023(2) 0.87766(6) 0.6356(3)
C59_2 C 0.9149(2) 0.86575(7) 0.3373(3)
H44_2 H 0.8463 0.8560 0.3207
C60_2 C 0.9704(2) 0.86606(7) 0.2080(3)
H45_2 H 0.9391 0.8561 0.1059
C35_2 C 0.4595(2) 0.00217(6) 0.0480(3)
H28_2 H 0.3245 0.0304 0.0575
O2_2 O 0.36528(15) 0.13112(5) 0.8755(2)
H1_2 H 0.2459 0.1083 0.9787
N7_2 N 0.87855(18) 0.11889(7) 0.9121(3)
C1_2 C 0.4431(2) 0.13482(6) 0.9935(3)
C2_2 C 0.55606(19) 0.13019(6) 0.9655(3)
C4_2 C 0.7700(2) 0.12136(7) 0.9201(3)
C5_2 C 0.6864(2) 0.12734(7) 0.7839(3)
H4_2 H 0.7009 0.1284 0.6765
C7_2 C 0.5817(2) 0.13165(7) 0.8081(3)
H6_2 H 0.5270 0.1356 0.7158
C8_2 C 0.9273(2) 0.11902(7) 0.7731(3)
C9_2 C 0.9390(2) 0.10398(7) 0.4905(3)
H7_2 H 0.9089 0.0934 0.3896
C12_2 C 0.8830(2) 0.10327(7) 0.6203(3)
H8_2 H 0.8162 0.0924 0.6060
O7_2 O 0.63472(15) 0.86888(5) 0.1245(2)
H36_2 H 0.7541 0.8917 0.0213
N14_2 N 0.12145(18) 0.88111(7) 0.0879(3)
C47_2 C 0.5569(2) 0.86518(6) 0.0065(3)
C48_2 C 0.44394(19) 0.86981(6) 0.0345(3)
C50_2 C 0.2300(2) 0.87864(7) 0.0799(3)
C51_2 C 0.3136(2) 0.87266(7) 0.2161(3)
H39_2 H 0.2991 0.8716 0.3235
C53_2 C 0.4183(2) 0.86835(7) 0.1919(3)
H41_2 H 0.4730 0.8644 0.2842
C54_2 C 0.0727(2) 0.88098(7) 0.2269(3)
C55_2 C 0.0610(2) 0.89602(7) 0.5095(3)
H42_2 H 0.0911 0.9066 0.6104
C58_2 C 0.1170(2) 0.89673(7) 0.3797(3)
H43_2 H 0.1838 0.9076 0.3940
C43_2 C 0.5405(2) 0.99783(6) 0.9520(3)
H35_2 H 0.6755 0.9696 0.9425
loop_
_geom_bond_atom_site_label_1
_geom_bond_atom_site_label_2
_geom_bond_site_symmetry_1
_geom_bond_site_symmetry_2
N12 C64 1_555 1_555
N13 C75 1_555 1_555
C76 N12 1_555 1_555
H57 C76 1_555 1_555
Ni4 N13 1_555 1_555
N13 C76 1_555 1_555
O3 C11 1_555 1_555
O4 C11 1_555 1_555
C11 C10 1_555 1_555
C13 C10 1_555 1_555
H9 C13 1_555 1_555
H10 C14 1_555 1_555
Ni4 O4 1_555 1_555
C13 C14 1_555 1_555
Ni4 O1 1_555 1_555
O5 Ni4 1_555 1_555
H2 O5 1_555 1_555
N1 Ni4 1_555 1_555
N2 C15 1_555 1_555
N5 Ni4 1_555 1_555
N6 C32 1_555 1_555
C3 H3 1_555 1_555
C6 C3 1_555 1_555
H5 C6 1_555 1_555
C15 N1 1_555 1_555
H11 C15 1_555 1_555
C16 N1 1_555 1_555
H12 C16 1_555 1_555
C17 N2 1_555 1_555
H13 C17 1_555 1_555
C19 N2 1_555 1_555
C20 C21 1_555 1_555
C21 C23 1_555 1_555
C22 C19 1_555 1_555
H14 C22 1_555 1_555
C23 H15 1_555 1_555
C24 C20 1_555 1_555
H16 C24 1_555 1_555
C25 C19 1_555 1_555
H17 C25 1_555 1_555
C27 C21 1_555 1_555
H19 C27 1_555 1_555
C31 N5 1_555 1_555
H23 C31 1_555 1_555
C32 C31 1_555 1_555
H24 C32 1_555 1_555
C33 N5 1_555 1_555
H25 C33 1_555 1_555
C34 N6 1_555 1_555
C36 C34 1_555 1_555
H26 C36 1_555 1_555
C37 C34 1_555 1_555
H27 C37 1_555 1_555
C38 C37 1_555 1_555
N6 C33 1_555 1_555
C16 C17 1_555 1_555
C20 C22 1_555 1_555
C24 C26 1_555 1_555
C25 C27 1_555 1_555
C59 C56 1_555 1_555
H44 C59 1_555 1_555
H45 C60 1_555 1_555
H55 C74 1_555 1_555
C59 C60 1_555 1_555
O8 C57 1_555 1_555
O9 C57 1_555 1_555
Ni5 O9 1_555 1_555
N8 C39 1_555 1_555
C39 H30 1_555 1_555
C40 C39 1_555 1_555
H31 C40 1_555 1_555
Ni5 N8 1_555 1_555
O6 Ni5 1_555 1_555
O7 C47 1_555 1_555
O10 Ni5 1_555 1_555
H36 O10 1_555 1_555
H37 O10 1_555 1_555
N10 Ni5 1_555 1_555
N14 C50 1_555 1_555
C47 O6 1_555 1_555
C48 C47 1_555 1_555
C49 C48 1_555 1_555
H38 C49 1_555 1_555
C50 C51 1_555 1_555
C51 H39 1_555 1_555
C52 C49 1_555 1_555
H40 C52 1_555 1_555
C53 C48 1_555 1_555
H41 C53 1_555 1_555
C54 N14 1_555 1_555
C58 C54 1_555 1_555
H43 C58 1_555 1_555
C61 N10 1_555 1_555
H46 C61 1_555 1_555
H58 N14 1_555 1_555
N15 Ni5 1_555 1_555
C50 C52 1_555 1_555
C51 C53 1_555 1_555
N3 C18 1_555 1_555
N15 C29 1_555 1_555
C28 N3 1_555 1_555
H20 C28 1_555 1_555
C29 C28 1_555 1_555
H21 C29 1_555 1_555
C30 N3 1_555 1_555
H22 C30 1_555 1_555
N15 C30 1_555 1_555
C9 H7 1_555 1_555
Ni1 O1_2 1_555 1_555
O1_2 C1 1_555 1_555
O2 C1 1_555 1_555
O5_2 Ni1 1_555 1_555
H1 O5_2 1_555 1_555
H2_2 O5_2 1_555 1_555
N1_2 Ni1 1_555 1_555
N5_2 Ni1 1_555 1_555
N7 C4 1_555 1_555
C1 C2 1_555 1_555
C2 C3_2 1_555 1_555
C3_2 H3_2 1_555 1_555
C4 C5 1_555 1_555
C5 H4 1_555 1_555
C6_2 C3_2 1_555 1_555
H5_2 C6_2 1_555 1_555
C7 C2 1_555 1_555
H6 C7 1_555 1_555
C8 N7 1_555 1_555
C12 C8 1_555 1_555
H8 C12 1_555 1_555
C15_2 N1_2 1_555 1_555
H11_2 C15_2 1_555 1_555
C31_2 N5_2 1_555 1_555
H23_2 C31_2 1_555 1_555
C32_2 C31_2 1_555 1_555
H24_2 C32_2 1_555 1_555
H29_2 N7 1_555 1_555
O11 Ni1 1_555 1_555
N16 Ni1 1_555 1_555
C4 C6_2 1_555 1_555
C5 C7 1_555 1_555
O3_2 C11_2 1_555 1_555
O11 C11_2 1_555 1_555
N12_2 C64_2 1_555 1_555
N16 C75_2 1_555 1_555
C74_2 N12_2 1_555 1_555
H55_2 C74_2 1_555 1_555
C75_2 C74_2 1_555 1_555
H56_2 C75_2 1_555 1_555
C76_2 N12_2 1_555 1_555
H57_2 C76_2 1_555 1_555
N16 C76_2 1_555 1_555
H12_2 C16_2 1_555 1_555
C17_2 N2_2 1_555 1_555
H13_2 C17_2 1_555 1_555
C19_2 N2_2 1_555 1_555
C20_2 C21_2 1_555 1_555
C21_2 C23_2 1_555 1_555
C22_2 C19_2 1_555 1_555
H14_2 C22_2 1_555 1_555
C23_2 H15_2 1_555 1_555
C24_2 C20_2 1_555 1_555
H16_2 C24_2 1_555 1_555
C25_2 C19_2 1_555 1_555
H17_2 C25_2 1_555 1_555
C27_2 C21_2 1_555 1_555
H19_2 C27_2 1_555 1_555
H25_2 C33_2 1_555 1_555
C34_2 N6_2 1_555 1_555
C35 C38_2 1_555 1_555
C36_2 C34_2 1_555 1_555
H26_2 C36_2 1_555 1_555
C37_2 C34_2 1_555 1_555
H27_2 C37_2 1_555 1_555
C38_2 C37_2 1_555 1_555
H28 C38_2 1_555 1_555
H32 C41 1_555 1_555
C42 N9 1_555 1_555
C43 C35 1_555 1_555
C44 C35 1_555 1_555
H33 C44 1_555 1_555
C45 C42 1_555 1_555
H34 C45 1_555 1_555
C46 C43 1_555 1_555
H35 C46 1_555 1_555
H47 C62 1_555 1_555
C63 N11 1_555 1_555
H48 C63 1_555 1_555
C65 N11 1_555 1_555
C66 C67 1_555 1_555
C67 C69 1_555 1_555
C68 C65 1_555 1_555
H49 C68 1_555 1_555
C69 H50 1_555 1_555
C70 C66 1_555 1_555
H51 C70 1_555 1_555
C71 C65 1_555 1_555
H52 C71 1_555 1_555
C73 C67 1_555 1_555
H54 C73 1_555 1_555
N6_2 C33_2 1_555 1_555
C16_2 C17_2 1_555 1_555
C20_2 C22_2 1_555 1_555
C24_2 C26_2 1_555 1_555
C25_2 C27_2 1_555 1_555
C36_2 C43 1_555 1_555
N9 C41 1_555 1_555
C42 C44 1_555 1_555
C45 C46 1_555 1_555
C62 C63 1_555 1_555
C66 C68 1_555 1_555
C70 C72 1_555 1_555
C71 C73 1_555 1_555
C55 H42 1_555 1_555
C13_2 C10_2 1_555 1_555
H9_2 C13_2 1_555 1_555
H10_2 C14_2 1_555 1_555
H20_2 C28_2 1_555 1_555
C13_2 C14_2 1_555 1_555
N3_2 C18_2 1_555 1_555
N4 C29_2 1_555 1_555
C30_2 N3_2 1_555 1_555
H22_2 C30_2 1_555 1_555
Ni6 N4 1_555 1_555
N4 C30_2 1_555 1_555
N8_2 C39_2 1_555 1_555
N9_2 C40_2 1_555 1_555
C39_2 H30_2 1_555 1_555
C40_2 C39_2 1_555 1_555
H31_2 C40_2 1_555 1_555
C41_2 N8_2 1_555 1_555
H32_2 C41_2 1_555 1_555
C42_2 N9_2 1_555 1_555
H33_2 C44_2 1_555 1_555
C45_2 C42_2 1_555 1_555
H34_2 C45_2 1_555 1_555
Ni6 N8_2 1_555 1_555
O6_2 Ni6 1_555 1_555
O10_2 Ni6 1_555 1_555
H37_2 O10_2 1_555 1_555
N10_2 Ni6 1_555 1_555
N11_2 C61_2 1_555 1_555
H38_2 C49_2 1_555 1_555
C52_2 C49_2 1_555 1_555
H40_2 C52_2 1_555 1_555
C61_2 N10_2 1_555 1_555
H46_2 C61_2 1_555 1_555
C62_2 N10_2 1_555 1_555
H47_2 C62_2 1_555 1_555
C63_2 N11_2 1_555 1_555
H48_2 C63_2 1_555 1_555
C65_2 N11_2 1_555 1_555
C66_2 C67_2 1_555 1_555
C67_2 C69_2 1_555 1_555
C68_2 C65_2 1_555 1_555
H49_2 C68_2 1_555 1_555
C69_2 H50_2 1_555 1_555
C70_2 C66_2 1_555 1_555
H51_2 C70_2 1_555 1_555
C71_2 C65_2 1_555 1_555
H52_2 C71_2 1_555 1_555
C73_2 C67_2 1_555 1_555
H54_2 C73_2 1_555 1_555
O12 Ni6 1_555 1_555
N9_2 C41_2 1_555 1_555
C42_2 C44_2 1_555 1_555
C45_2 C46_2 1_555 1_555
C62_2 C63_2 1_555 1_555
C66_2 C68_2 1_555 1_555
C70_2 C72_2 1_555 1_555
C71_2 C73_2 1_555 1_555
O8_2 C57_2 1_555 1_555
O12 C57_2 1_555 1_555
C57_2 C56_2 1_555 1_555
C59_2 C56_2 1_555 1_555
H44_2 C59_2 1_555 1_555
H45_2 C60_2 1_555 1_555
C59_2 C60_2 1_555 1_555
O2_2 C1_2 1_555 1_555
N7_2 C4_2 1_555 1_555
C1_2 C2_2 1_555 1_555
C4_2 C5_2 1_555 1_555
C5_2 H4_2 1_555 1_555
C7_2 C2_2 1_555 1_555
H6_2 C7_2 1_555 1_555
C8_2 N7_2 1_555 1_555
C9_2 H7_2 1_555 1_555
C12_2 C8_2 1_555 1_555
H8_2 C12_2 1_555 1_555
C5_2 C7_2 1_555 1_555
C9_2 C12_2 1_555 1_555
O7_2 C47_2 1_555 1_555
N14_2 C50_2 1_555 1_555
C48_2 C47_2 1_555 1_555
C50_2 C51_2 1_555 1_555
C51_2 H39_2 1_555 1_555
C53_2 C48_2 1_555 1_555
H41_2 C53_2 1_555 1_555
C54_2 N14_2 1_555 1_555
C55_2 H42_2 1_555 1_555
C58_2 C54_2 1_555 1_555
H43_2 C58_2 1_555 1_555
C51_2 C53_2 1_555 1_555
C55_2 C58_2 1_555 1_555

#END
