
###############################################################################
#
# This file contains modified crystal structure data generated from the
# MOF subset of the Cambridge Structural Database (CSD) v543 
# hosted by the Cambridge Crystallographic Data Centre (CCDC).
#
# This work is licensed under the Creative Commons
# Attribution-NonCommercial-ShareAlike 4.0 International License.
# To view a copy of this license, visit
# http://creativecommons.org/licenses/by-nc-sa/4.0/
# or send a letter to
# Creative Commons, PO Box 1866, Mountain View, CA 94042, USA.
#
# CIF created using the CSD Python API on 29 September 2022
# The structure has been converted into the P1 space group
# The structure has a 3D framework
# The original CSD entry VAXJAI is in the monoclinic crystal system
# The framework has been calculated to contain at least 10.0% void space
# The void calculation uses a probe of radius 1.32A, grid spacing 0.4
#
###############################################################################

data_VAXJAI
_chemical_formula_moiety         '(C144 H96 N4 O42 Zn10)n'
_symmetry_cell_setting           triclinic
_symmetry_space_group_name_H-M   'P 1'
_symmetry_Int_Tables_number      1
_space_group_name_Hall           'P 1'
loop_
_symmetry_equiv_pos_site_id
_symmetry_equiv_pos_as_xyz
1 x,y,z
_cell_length_a                   12.9122(10)
_cell_length_b                   32.256(3)
_cell_length_c                   25.611(2)
_cell_angle_alpha                90
_cell_angle_beta                 95.978(7)
_cell_angle_gamma                90
_cell_volume                     10608.9
loop_
_atom_site_label
_atom_site_type_symbol
_atom_site_fract_x
_atom_site_fract_y
_atom_site_fract_z
Zn2 Zn 0.12958(10) 0.39890(3) 0.17173(5)
Zn3 Zn 0.03855(10) 0.54159(3) 0.78998(5)
Zn4 Zn 0.16300(10) 0.43619(4) 0.28806(5)
O1 O 0.0579(4) 0.41419(14) 0.23183(19)
O2 O 0.1341(7) 0.3977(2) 0.3505(3)
O4 O 0.0006(7) 0.3548(2) 0.3272(3)
O5 O 0.0818(7) 0.4315(2) 0.1080(2)
O7 O 0.0935(6) 0.1584(2) 0.6492(3)
O8 O 0.0487(8) 0.4923(3) 0.7497(3)
O9 O 0.8169(5) 0.4396(3) 0.2073(3)
O10 O 0.8296(6) 0.3772(2) 0.2443(3)
O11 O 0.2813(6) 0.4001(2) 0.1766(4)
O13 O 0.2926(7) 0.4031(3) 0.2626(4)
C1 C 0.0156(11) 0.4608(3) 0.1023(4)
N1 N 0.0358(7) 0.3472(3) 0.5803(3)
C2 C 0.0631(13) 0.3708(4) 0.3611(5)
C3 C 0.0081(9) 0.4817(3) 0.0534(4)
C5 C 0.7763(12) 0.4069(4) 0.2264(4)
C6 C 0.0459(9) 0.1863(3) 0.6741(5)
C7 C 0.0026(6) 0.3339(2) 0.4314(3)
C8 C 0.0655(6) 0.3661(2) 0.4170(3)
C9 C 0.1190(5) 0.39069(19) 0.4554(4)
H2 H 0.1611 0.4122 0.4458
C10 C 0.1096(6) 0.3832(2) 0.5081(3)
H3 H 0.1455 0.3997 0.5338
C11 C 0.0467(7) 0.3511(3) 0.5225(2)
C13 C 0.3361(14) 0.4023(4) 0.2249(7)
C14 C 0.0996(6) 0.2362(3) 0.6056(4)
H5 H 0.1386 0.2151 0.5925
C15 C 0.0449(7) 0.2289(2) 0.6486(4)
C18 C 0.0379(7) 0.3067(2) 0.6016(4)
C19 C 0.0961(6) 0.2751(4) 0.5821(2)
H8 H 0.1328 0.2800 0.5533
C20 C 0.4889(11) 0.4177(3) 0.1798(4)
H9 H 0.4460 0.4286 0.1517
C21 C 0.5964(12) 0.4190(3) 0.1796(4)
C22 C 0.6605(8) 0.4028(3) 0.2216(6)
C23 C 0.6171(12) 0.3853(3) 0.2639(4)
H10 H 0.6600 0.3745 0.2921
C24 C 0.5095(13) 0.3841(3) 0.2642(4)
C25 C 0.4454(8) 0.4003(3) 0.2221(6)
C26 C 0.0832(10) 0.4759(3) 0.0213(5)
H11 H 0.1426 0.4611 0.0337
C28 C 0.4653(13) 0.3641(6) 0.3092(7)
H12 H 0.4488 0.3357 0.3008
H13 H 0.4032 0.3785 0.3163
H14 H 0.5153 0.3652 0.3397
C29 C 0.6412(12) 0.4409(7) 0.1299(7)
H15 H 0.6433 0.4211 0.1021
H16 H 0.7101 0.4511 0.1401
H17 H 0.5967 0.4636 0.1179
C31 C 0.0237(8) 0.3830(2) 0.6091(4)
C32 C 0.0767(6) 0.3860(2) 0.6591(4)
H21 H 0.1199 0.3645 0.6721
C33 C 0.0651(6) 0.4210(3) 0.6895(3)
H22 H 0.1005 0.4230 0.7229
C34 C 0.0005(6) 0.4532(2) 0.6699(3)
Zn9 Zn 0.98084(10) 0.36744(3) 0.25466(4)
Zn14 Zn 0.12958(10) 0.10110(3) 0.67173(5)
Zn18 Zn 0.96145(10) 0.45841(3) 0.21002(5)
O32 O 0.0321(6) 0.5244(2) 0.8626(3)
O34 O 0.0935(6) 0.3416(2) 0.1492(3)
O36 O 0.1831(5) 0.5604(3) 0.7927(3)
O40 O 0.0619(7) 0.4800(3) 0.3165(3)
C40 C 0.0737(11) 0.4931(4) 0.9646(6)
C41 C 0.1703(13) 0.4830(6) 0.9351(5)
H26 H 0.1988 0.5083 0.9230
H27 H 0.2220 0.4692 0.9585
H28 H 0.1497 0.4654 0.9056
Zn5 Zn 0.01916(10) 0.63256(3) 0.74534(4)
O18 O 0.0039(6) 0.8178(2) 0.2882(3)
C43 C 0.0015(12) 0.5092(3) 0.2924(6)
H29 H 0.0332 0.6825 0.5943
C51 C 0.0068(6) 0.6736(2) 0.5158(3)
H32 H 0.0489 0.6951 0.5062
C55 C 0.0133(6) 0.7395(4) 0.3318(3)
H34 H 0.0499 0.7444 0.3031
C56 C 0.0168(6) 0.7006(3) 0.3554(4)
H35 H 0.0558 0.6795 0.3423
C71 C 0.0524(5) 0.5498(3) 0.3801(4)
H47 H 0.0956 0.5283 0.3931
C72 C 0.0409(7) 0.5848(4) 0.4105(3)
H48 H 0.0763 0.5868 0.4439
Zn10 Zn 0.01916(10) 0.86744(3) 0.24534(4)
O29 O 0.0039(6) 0.6822(2) 0.7882(3)
O38 O 0.1704(6) 0.6228(2) 0.7557(3)
O3 O 0.9961(6) 0.1822(2) 0.7118(3)
O6 O 0.9679(6) 0.4756(2) 0.1374(3)
O12 O 0.9381(7) 0.5200(3) 0.6835(3)
C4 C 0.9985(12) 0.4908(3) 0.7076(6)
H1 H 0.9668 0.3175 0.4057
C12 C 0.9932(6) 0.3264(2) 0.4842(3)
H4 H 0.9511 0.3049 0.4938
C16 C 0.9867(6) 0.2605(4) 0.6682(3)
H6 H 0.9501 0.2556 0.6969
C17 C 0.9832(6) 0.2994(3) 0.6446(4)
H7 H 0.9442 0.3205 0.6577
C27 C 0.9263(11) 0.5069(4) 0.0354(6)
C30 C 0.8297(13) 0.5170(6) 0.0649(5)
H18 H 0.8012 0.4917 0.0770
H19 H 0.7780 0.5308 0.0415
H20 H 0.8503 0.5346 0.0944
C35 C 0.9476(5) 0.4502(3) 0.6199(4)
H23 H 0.9044 0.4717 0.6069
C36 C 0.9591(7) 0.4152(4) 0.5895(3)
H24 H 0.9237 0.4132 0.5561
Zn12 Zn 0.98084(10) 0.13256(3) 0.75466(4)
Zn20 Zn 0.83700(10) 0.56381(4) 0.71194(5)
O28 O 0.9421(4) 0.58581(14) 0.76817(19)
O30 O 0.9961(6) 0.3178(2) 0.2118(3)
O14 O 0.9182(7) 0.5685(2) 0.8920(2)
C37 C 0.9844(11) 0.5392(3) 0.8977(4)
C38 C 0.9919(9) 0.5183(3) 0.9466(4)
C39 C 0.9168(10) 0.5241(3) 0.9787(5)
H25 H 0.8574 0.5389 0.9663
Zn6 Zn 0.87042(10) 0.60110(3) 0.82827(5)
O17 O 0.8659(7) 0.6023(2) 0.6495(3)
O19 O 0.9994(7) 0.6452(2) 0.6728(3)
O20 O 0.9065(6) 0.8416(2) 0.3508(3)
O21 O 0.9513(8) 0.5077(3) 0.2503(3)
O24 O 0.7187(6) 0.5999(2) 0.8234(4)
O26 O 0.7074(7) 0.5969(3) 0.7374(4)
N2 N 0.9642(7) 0.6528(3) 0.4197(3)
C42 C 0.9369(13) 0.6292(4) 0.6389(5)
C44 C 0.2237(12) 0.5931(4) 0.7736(4)
C45 C 0.9541(9) 0.8137(3) 0.3259(5)
C46 C 0.9974(6) 0.6661(2) 0.5686(3)
C47 C 0.9345(6) 0.6339(2) 0.5830(3)
C48 C 0.8810(5) 0.60931(19) 0.5446(4)
H30 H 0.8389 0.5878 0.5542
C49 C 0.8904(6) 0.6168(2) 0.4919(3)
H31 H 0.8545 0.6003 0.4662
C50 C 0.9533(7) 0.6489(3) 0.4775(2)
C52 C 0.6639(14) 0.5977(4) 0.7751(7)
C53 C 0.9004(6) 0.7638(3) 0.3944(4)
H33 H 0.8614 0.7849 0.4075
C54 C 0.9551(7) 0.7711(2) 0.3514(4)
C57 C 0.9621(7) 0.6933(2) 0.3984(4)
C58 C 0.9039(6) 0.7249(4) 0.4179(2)
H36 H 0.8672 0.7200 0.4467
C59 C 0.5111(11) 0.5823(3) 0.8202(4)
H37 H 0.5540 0.5714 0.8483
C60 C 0.4036(12) 0.5810(3) 0.8204(4)
C61 C 0.3395(8) 0.5972(3) 0.7784(6)
C62 C 0.3829(12) 0.6147(3) 0.7361(4)
H38 H 0.3400 0.6255 0.7079
C63 C 0.4905(13) 0.6159(3) 0.7358(4)
C64 C 0.5546(8) 0.5997(3) 0.7779(6)
C65 C 0.5347(13) 0.6359(6) 0.6908(7)
H39 H 0.5512 0.6643 0.6992
H40 H 0.5968 0.6215 0.6837
H41 H 0.4847 0.6348 0.6603
C66 C 0.3588(12) 0.5591(7) 0.8701(7)
H42 H 0.3567 0.5789 0.8979
H43 H 0.2899 0.5489 0.8599
H44 H 0.4033 0.5364 0.8821
C67 C 0.9763(8) 0.6170(2) 0.3909(4)
C68 C 0.9233(6) 0.6140(2) 0.3409(4)
H45 H 0.8801 0.6355 0.3279
C69 C 0.9349(6) 0.5790(3) 0.3105(3)
H46 H 0.8995 0.5770 0.2771
C70 C 0.9995(6) 0.5468(2) 0.3301(3)
Zn13 Zn 0.87042(10) 0.89890(3) 0.32827(5)
O33 O 0.9065(6) 0.6584(2) 0.8508(3)
O21_2 O 0.0487(8) 0.0077(3) 0.2497(3)
N2_2 N 0.0358(7) 0.1528(3) 0.0803(3)
C45_2 C 0.0459(9) 0.3137(3) 0.1741(5)
C49_2 C 0.1096(6) 0.1168(2) 0.0081(3)
H31_2 H 0.1455 0.1003 0.0338
C50_2 C 0.0467(7) 0.1489(3) 0.0225(2)
C53_2 C 0.0996(6) 0.2638(3) 0.1056(4)
H33_2 H 0.1386 0.2849 0.0925
C54_2 C 0.0449(7) 0.2711(2) 0.1486(4)
C57_2 C 0.0379(7) 0.1933(2) 0.1016(4)
C58_2 C 0.0961(6) 0.2249(4) 0.0821(2)
H36_2 H 0.1328 0.2200 0.0533
C67_2 C 0.0237(8) 0.1170(2) 0.1091(4)
C68_2 C 0.0767(6) 0.1140(2) 0.1591(4)
H45_2 H 0.1199 0.1355 0.1721
C69_2 C 0.0651(6) 0.0790(3) 0.1895(3)
H46_2 H 0.1005 0.0770 0.2229
C70_2 C 0.0005(6) 0.0468(2) 0.1699(3)
C27_2 C 0.0737(11) 0.0069(4) 0.4646(6)
C30_2 C 0.1703(13) 0.0170(6) 0.4351(5)
H19_2 H 0.2220 0.0308 0.4585
H20_2 H 0.1497 0.0346 0.4056
O14_2 O 0.0818(7) 0.0685(2) 0.6080(2)
C37_2 C 0.0156(11) 0.0392(3) 0.6023(4)
C38_2 C 0.0081(9) 0.0183(3) 0.5534(4)
C39_2 C 0.0832(10) 0.0241(3) 0.5213(5)
H25_2 H 0.1426 0.0389 0.5337
Zn8 Zn 0.16300(10) 0.06381(4) 0.78806(5)
O16 O 0.0579(4) 0.08581(14) 0.73183(19)
O17_2 O 0.1341(7) 0.1023(2) 0.8505(3)
O19_2 O 0.0006(7) 0.1452(2) 0.8272(3)
O22 O 0.8169(5) 0.0604(3) 0.7073(3)
O23 O 0.8296(6) 0.1228(2) 0.7443(3)
O24_2 O 0.2813(6) 0.0999(2) 0.6766(4)
O26_2 O 0.2926(7) 0.0969(3) 0.7626(4)
C42_2 C 0.0631(13) 0.1292(4) 0.8611(5)
C44_2 C 0.7763(12) 0.0931(4) 0.7264(4)
C46_2 C 0.0026(6) 0.1661(2) 0.9314(3)
C47_2 C 0.0655(6) 0.1339(2) 0.9170(3)
C48_2 C 0.1190(5) 0.10931(19) 0.9554(4)
H30_2 H 0.1611 0.0878 0.9458
C52_2 C 0.3361(14) 0.0977(4) 0.7249(7)
C59_2 C 0.4889(11) 0.0823(3) 0.6798(4)
H37_2 H 0.4460 0.0714 0.6517
C60_2 C 0.5964(12) 0.0810(3) 0.6796(4)
C61_2 C 0.6605(8) 0.0972(3) 0.7216(6)
C62_2 C 0.6171(12) 0.1147(3) 0.7639(4)
H38_2 H 0.6600 0.1255 0.7921
C63_2 C 0.5095(13) 0.1159(3) 0.7642(4)
C64_2 C 0.4454(8) 0.0997(3) 0.7221(6)
C65_2 C 0.4653(13) 0.1359(6) 0.8092(7)
H39_2 H 0.4488 0.1643 0.8008
H40_2 H 0.4032 0.1215 0.8163
H41_2 H 0.5153 0.1348 0.8397
C66_2 C 0.6412(12) 0.0591(7) 0.6299(7)
H42_2 H 0.6433 0.0789 0.6021
H43_2 H 0.7101 0.0489 0.6401
H44_2 H 0.5967 0.0364 0.6179
Zn15 Zn 0.96145(10) 0.04159(3) 0.71002(5)
O39 O 0.0619(7) 0.0200(3) 0.8165(3)
Zn7 Zn 0.03855(10) 0.95841(3) 0.28998(5)
O31 O 0.0321(6) 0.9756(2) 0.3626(3)
O35 O 0.1831(5) 0.9396(3) 0.2927(3)
H1_2 H 0.0332 0.8175 0.0943
C12_2 C 0.0068(6) 0.8264(2) 0.0158(3)
H4_2 H 0.0489 0.8049 0.0062
H18_2 H 0.1988 0.9917 0.4230
O37 O 0.1704(6) 0.8772(2) 0.2557(3)
C4_2 C 0.0015(12) 0.9908(3) 0.7924(6)
C16_2 C 0.0133(6) 0.7605(4) 0.8318(3)
H6_2 H 0.0499 0.7556 0.8031
C17_2 C 0.0168(6) 0.7994(3) 0.8554(4)
H7_2 H 0.0558 0.8205 0.8423
C35_2 C 0.0524(5) 0.9502(3) 0.8801(4)
H23_2 H 0.0956 0.9717 0.8931
C36_2 C 0.0409(7) 0.9152(4) 0.9105(3)
H24_2 H 0.0763 0.9132 0.9439
C43_2 C 0.9985(12) 0.0092(3) 0.2076(6)
C55_2 C 0.9867(6) 0.2395(4) 0.1682(3)
H34_2 H 0.9501 0.2444 0.1969
C56_2 C 0.9832(6) 0.2006(3) 0.1446(4)
H35_2 H 0.9442 0.1795 0.1577
C71_2 C 0.9476(5) 0.0498(3) 0.1199(4)
H47_2 H 0.9044 0.0283 0.1069
C72_2 C 0.9591(7) 0.0848(4) 0.0895(3)
H48_2 H 0.9237 0.0868 0.0561
O15 O 0.9679(6) 0.0244(2) 0.6374(3)
H26_2 H 0.8012 0.0083 0.5770
H29_2 H 0.9668 0.1825 0.9057
C51_2 C 0.9932(6) 0.1736(2) 0.9842(3)
H32_2 H 0.9511 0.1951 0.9938
O25 O 0.9381(7) 0.9800(3) 0.1835(3)
Zn19 Zn 0.83700(10) 0.93619(4) 0.21194(5)
O27 O 0.9421(4) 0.91419(14) 0.26817(19)
O2_2 O 0.8659(7) 0.8977(2) 0.1495(3)
O4_2 O 0.9994(7) 0.8548(2) 0.1728(3)
O5_2 O 0.9182(7) 0.9315(2) 0.3920(2)
O11_2 O 0.7187(6) 0.9001(2) 0.3234(4)
O13_2 O 0.7074(7) 0.9031(3) 0.2374(4)
C1_2 C 0.9844(11) 0.9608(3) 0.3977(4)
C2_2 C 0.9369(13) 0.8708(4) 0.1389(5)
C3_2 C 0.9919(9) 0.9817(3) 0.4466(4)
C5_2 C 0.2237(12) 0.9069(4) 0.2736(4)
C7_2 C 0.9974(6) 0.8339(2) 0.0686(3)
C8_2 C 0.9345(6) 0.8661(2) 0.0830(3)
C9_2 C 0.8810(5) 0.89069(19) 0.0446(4)
H2_2 H 0.8389 0.9122 0.0542
C13_2 C 0.6639(14) 0.9023(4) 0.2751(7)
C20_2 C 0.5111(11) 0.9177(3) 0.3202(4)
H9_2 H 0.5540 0.9286 0.3483
C21_2 C 0.4036(12) 0.9190(3) 0.3204(4)
C22_2 C 0.3395(8) 0.9028(3) 0.2784(6)
C23_2 C 0.3829(12) 0.8853(3) 0.2361(4)
H10_2 H 0.3400 0.8745 0.2079
C24_2 C 0.4905(13) 0.8841(3) 0.2358(4)
C25_2 C 0.5546(8) 0.9003(3) 0.2779(6)
C26_2 C 0.9168(10) 0.9759(3) 0.4787(5)
H11_2 H 0.8574 0.9611 0.4663
C28_2 C 0.5347(13) 0.8641(6) 0.1908(7)
H12_2 H 0.5512 0.8357 0.1992
H13_2 H 0.5968 0.8785 0.1837
H14_2 H 0.4847 0.8652 0.1603
C29_2 C 0.3588(12) 0.9409(7) 0.3701(7)
H15_2 H 0.3567 0.9211 0.3979
H16_2 H 0.2899 0.9511 0.3599
H17_2 H 0.4033 0.9636 0.3821
C40_2 C 0.9263(11) 0.9931(4) 0.5354(6)
C41_2 C 0.8297(13) 0.9830(6) 0.5649(5)
H27_2 H 0.7780 0.9692 0.5415
H28_2 H 0.8503 0.9654 0.5944
O8_2 O 0.9513(8) 0.9923(3) 0.7503(3)
N1_2 N 0.9642(7) 0.8472(3) 0.9197(3)
C6_2 C 0.9541(9) 0.6863(3) 0.8259(5)
C10_2 C 0.8904(6) 0.8832(2) 0.9919(3)
H3_2 H 0.8545 0.8997 0.9662
C11_2 C 0.9533(7) 0.8511(3) 0.9775(2)
C14_2 C 0.9004(6) 0.7362(3) 0.8944(4)
H5_2 H 0.8614 0.7151 0.9075
C15_2 C 0.9551(7) 0.7289(2) 0.8514(4)
C18_2 C 0.9621(7) 0.8067(2) 0.8984(4)
C19_2 C 0.9039(6) 0.7751(4) 0.9179(2)
H8_2 H 0.8672 0.7800 0.9467
C31_2 C 0.9763(8) 0.8830(2) 0.8909(4)
C32_2 C 0.9233(6) 0.8860(2) 0.8409(4)
H21_2 H 0.8801 0.8645 0.8279
C33_2 C 0.9349(6) 0.9210(3) 0.8105(3)
H22_2 H 0.8995 0.9230 0.7771
C34_2 C 0.9995(6) 0.9532(2) 0.8301(3)
loop_
_geom_bond_atom_site_label_1
_geom_bond_atom_site_label_2
_geom_bond_site_symmetry_1
_geom_bond_site_symmetry_2
Zn2 O1 1_555 1_555
Zn3 O8 1_555 1_555
Zn4 O1 1_555 1_555
O2 Zn4 1_555 1_555
O5 Zn2 1_555 1_555
O7 C6 1_555 1_555
O9 C5 1_555 1_555
O10 C5 1_555 1_555
O11 Zn2 1_555 1_555
O13 Zn4 1_555 1_555
C1 O5 1_555 1_555
N1 C11 1_555 1_555
C2 O2 1_555 1_555
C3 C1 1_555 1_555
C5 C22 1_555 1_555
C6 C15 1_555 1_555
C8 C2 1_555 1_555
C9 C8 1_555 1_555
H2 C9 1_555 1_555
C10 C9 1_555 1_555
H3 C10 1_555 1_555
C11 C10 1_555 1_555
C13 O11 1_555 1_555
C14 H5 1_555 1_555
C15 C14 1_555 1_555
C18 N1 1_555 1_555
C19 C14 1_555 1_555
H8 C19 1_555 1_555
C20 H9 1_555 1_555
C21 C20 1_555 1_555
C22 C21 1_555 1_555
C23 C22 1_555 1_555
H10 C23 1_555 1_555
C24 C23 1_555 1_555
C25 C13 1_555 1_555
C26 C3 1_555 1_555
H11 C26 1_555 1_555
C28 C24 1_555 1_555
H12 C28 1_555 1_555
H13 C28 1_555 1_555
H14 C28 1_555 1_555
C29 C21 1_555 1_555
H15 C29 1_555 1_555
H16 C29 1_555 1_555
H17 C29 1_555 1_555
C31 N1 1_555 1_555
C32 C31 1_555 1_555
H21 C32 1_555 1_555
C33 C32 1_555 1_555
H22 C33 1_555 1_555
C34 C33 1_555 1_555
Zn9 O10 1_555 1_555
Zn14 O7 1_555 1_555
Zn18 O9 1_555 1_555
O32 Zn3 1_555 1_555
O34 Zn2 1_555 1_555
O36 Zn3 1_555 1_555
O40 Zn4 1_555 1_555
O4 C2 1_555 1_555
O13 C13 1_555 1_555
C7 C8 1_555 1_555
C18 C19 1_555 1_555
C20 C25 1_555 1_555
C24 C25 1_555 1_555
C41 C40 1_555 1_555
H26 C41 1_555 1_555
H27 C41 1_555 1_555
H28 C41 1_555 1_555
O40 C43 1_555 1_555
H32 C51 1_555 1_555
H34 C55 1_555 1_555
C56 C55 1_555 1_555
H35 C56 1_555 1_555
H47 C71 1_555 1_555
H48 C72 1_555 1_555
Zn10 O18 1_555 1_555
O29 Zn5 1_555 1_555
O38 Zn5 1_555 1_555
C71 C72 1_555 1_555
O12 C4 1_555 1_555
H4 C12 1_555 1_555
H6 C16 1_555 1_555
C17 C16 1_555 1_555
H7 C17 1_555 1_555
C30 C27 1_555 1_555
H18 C30 1_555 1_555
H19 C30 1_555 1_555
H20 C30 1_555 1_555
H23 C35 1_555 1_555
H24 C36 1_555 1_555
Zn12 O3 1_555 1_555
Zn18 O6 1_555 1_555
Zn20 O12 1_555 1_555
O30 Zn9 1_555 1_555
C35 C36 1_555 1_555
Zn20 O28 1_555 1_555
O14 C37 1_555 1_555
C37 C38 1_555 1_555
C38 C39 1_555 1_555
H25 C39 1_555 1_555
Zn6 O14 1_555 1_555
Zn18 O21 1_555 1_555
O28 Zn6 1_555 1_555
O17 Zn20 1_555 1_555
O20 C45 1_555 1_555
O36 C44 1_555 1_555
O38 C44 1_555 1_555
O24 Zn6 1_555 1_555
O26 Zn20 1_555 1_555
N2 C50 1_555 1_555
C42 O17 1_555 1_555
C44 C61 1_555 1_555
C45 C54 1_555 1_555
C47 C42 1_555 1_555
C48 C47 1_555 1_555
H30 C48 1_555 1_555
C49 C48 1_555 1_555
H31 C49 1_555 1_555
C50 C49 1_555 1_555
C52 O24 1_555 1_555
C53 H33 1_555 1_555
C54 C53 1_555 1_555
C57 N2 1_555 1_555
C58 C53 1_555 1_555
H36 C58 1_555 1_555
C59 H37 1_555 1_555
C60 C59 1_555 1_555
C61 C60 1_555 1_555
C62 C61 1_555 1_555
H38 C62 1_555 1_555
C63 C62 1_555 1_555
C64 C52 1_555 1_555
C65 C63 1_555 1_555
H39 C65 1_555 1_555
H40 C65 1_555 1_555
H41 C65 1_555 1_555
C66 C60 1_555 1_555
H42 C66 1_555 1_555
H43 C66 1_555 1_555
H44 C66 1_555 1_555
C67 N2 1_555 1_555
C68 C67 1_555 1_555
H45 C68 1_555 1_555
C69 C68 1_555 1_555
H46 C69 1_555 1_555
C70 C69 1_555 1_555
Zn13 O20 1_555 1_555
O33 Zn6 1_555 1_555
O19 C42 1_555 1_555
O26 C52 1_555 1_555
C46 C47 1_555 1_555
C57 C58 1_555 1_555
C59 C64 1_555 1_555
C63 C64 1_555 1_555
O34 C45_2 1_555 1_555
N2_2 C50_2 1_555 1_555
C45_2 C54_2 1_555 1_555
H31_2 C49_2 1_555 1_555
C50_2 C49_2 1_555 1_555
C53_2 H33_2 1_555 1_555
C54_2 C53_2 1_555 1_555
C57_2 N2_2 1_555 1_555
C58_2 C53_2 1_555 1_555
H36_2 C58_2 1_555 1_555
C67_2 N2_2 1_555 1_555
C68_2 C67_2 1_555 1_555
H45_2 C68_2 1_555 1_555
C69_2 C68_2 1_555 1_555
H46_2 C69_2 1_555 1_555
C70_2 C69_2 1_555 1_555
C57_2 C58_2 1_555 1_555
C30_2 C27_2 1_555 1_555
H19_2 C30_2 1_555 1_555
H20_2 C30_2 1_555 1_555
O14_2 C37_2 1_555 1_555
C37_2 C38_2 1_555 1_555
C38_2 C39_2 1_555 1_555
C39_2 C27_2 1_555 1_555
H25_2 C39_2 1_555 1_555
Zn14 O14_2 1_555 1_555
Zn8 O16 1_555 1_555
O16 Zn14 1_555 1_555
O17_2 Zn8 1_555 1_555
O22 C44_2 1_555 1_555
O23 C44_2 1_555 1_555
O24_2 Zn14 1_555 1_555
O26_2 Zn8 1_555 1_555
C42_2 O17_2 1_555 1_555
C44_2 C61_2 1_555 1_555
C47_2 C42_2 1_555 1_555
C48_2 C47_2 1_555 1_555
H30_2 C48_2 1_555 1_555
C52_2 O24_2 1_555 1_555
C59_2 H37_2 1_555 1_555
C60_2 C59_2 1_555 1_555
C61_2 C60_2 1_555 1_555
C62_2 C61_2 1_555 1_555
H38_2 C62_2 1_555 1_555
C63_2 C62_2 1_555 1_555
C64_2 C52_2 1_555 1_555
C65_2 C63_2 1_555 1_555
H39_2 C65_2 1_555 1_555
H40_2 C65_2 1_555 1_555
H41_2 C65_2 1_555 1_555
C66_2 C60_2 1_555 1_555
H42_2 C66_2 1_555 1_555
H43_2 C66_2 1_555 1_555
H44_2 C66_2 1_555 1_555
Zn12 O23 1_555 1_555
Zn15 O22 1_555 1_555
O39 Zn8 1_555 1_555
O19_2 C42_2 1_555 1_555
O26_2 C52_2 1_555 1_555
C46_2 C47_2 1_555 1_555
C59_2 C64_2 1_555 1_555
C63_2 C64_2 1_555 1_555
O31 Zn7 1_555 1_555
O35 Zn7 1_555 1_555
H4_2 C12_2 1_555 1_555
O37 Zn10 1_555 1_555
H6_2 C16_2 1_555 1_555
C17_2 C16_2 1_555 1_555
H7_2 C17_2 1_555 1_555
H23_2 C35_2 1_555 1_555
H24_2 C36_2 1_555 1_555
C35_2 C36_2 1_555 1_555
H34_2 C55_2 1_555 1_555
C56_2 C55_2 1_555 1_555
H35_2 C56_2 1_555 1_555
H47_2 C71_2 1_555 1_555
H48_2 C72_2 1_555 1_555
C71_2 C72_2 1_555 1_555
H32_2 C51_2 1_555 1_555
Zn15 O15 1_555 1_555
Zn19 O25 1_555 1_555
Zn19 O27 1_555 1_555
Zn13 O27 1_555 1_555
O2_2 Zn19 1_555 1_555
O5_2 Zn13 1_555 1_555
O35 C5_2 1_555 1_555
O37 C5_2 1_555 1_555
O11_2 Zn13 1_555 1_555
O13_2 Zn19 1_555 1_555
C1_2 O5_2 1_555 1_555
C2_2 O2_2 1_555 1_555
C3_2 C1_2 1_555 1_555
C5_2 C22_2 1_555 1_555
C8_2 C2_2 1_555 1_555
C9_2 C8_2 1_555 1_555
H2_2 C9_2 1_555 1_555
C13_2 O11_2 1_555 1_555
C20_2 H9_2 1_555 1_555
C21_2 C20_2 1_555 1_555
C22_2 C21_2 1_555 1_555
C23_2 C22_2 1_555 1_555
H10_2 C23_2 1_555 1_555
C24_2 C23_2 1_555 1_555
C25_2 C13_2 1_555 1_555
C26_2 C3_2 1_555 1_555
H11_2 C26_2 1_555 1_555
C28_2 C24_2 1_555 1_555
H12_2 C28_2 1_555 1_555
H13_2 C28_2 1_555 1_555
H14_2 C28_2 1_555 1_555
C29_2 C21_2 1_555 1_555
H15_2 C29_2 1_555 1_555
H16_2 C29_2 1_555 1_555
H17_2 C29_2 1_555 1_555
C40_2 C26_2 1_555 1_555
C41_2 C40_2 1_555 1_555
H27_2 C41_2 1_555 1_555
H28_2 C41_2 1_555 1_555
O4_2 C2_2 1_555 1_555
O13_2 C13_2 1_555 1_555
C7_2 C8_2 1_555 1_555
C20_2 C25_2 1_555 1_555
C24_2 C25_2 1_555 1_555
O33 C6_2 1_555 1_555
N1_2 C11_2 1_555 1_555
C6_2 C15_2 1_555 1_555
H3_2 C10_2 1_555 1_555
C11_2 C10_2 1_555 1_555
C14_2 H5_2 1_555 1_555
C15_2 C14_2 1_555 1_555
C18_2 N1_2 1_555 1_555
C19_2 C14_2 1_555 1_555
H8_2 C19_2 1_555 1_555
C31_2 N1_2 1_555 1_555
C32_2 C31_2 1_555 1_555
H21_2 C32_2 1_555 1_555
C33_2 C32_2 1_555 1_555
H22_2 C33_2 1_555 1_555
C34_2 C33_2 1_555 1_555
C18_2 C19_2 1_555 1_555

#END
