
###############################################################################
#
# This file contains modified crystal structure data generated from the
# MOF subset of the Cambridge Structural Database (CSD) v543 
# hosted by the Cambridge Crystallographic Data Centre (CCDC).
#
# This work is licensed under the Creative Commons
# Attribution-NonCommercial-ShareAlike 4.0 International License.
# To view a copy of this license, visit
# http://creativecommons.org/licenses/by-nc-sa/4.0/
# or send a letter to
# Creative Commons, PO Box 1866, Mountain View, CA 94042, USA.
#
# CIF created using the CSD Python API on 29 September 2022
# The structure has been converted into the P1 space group
# The structure has a 3D framework
# The original CSD entry VAXVOJ is in the monoclinic crystal system
# The original CSD entry VAXVOJ is in a Sohncke space group
# The framework has been calculated to contain at least 10.0% void space
# The void calculation uses a probe of radius 1.32A, grid spacing 0.4
# H atom positions have been added when not included in the experimental data
#
###############################################################################

data_VAXVOJ
_chemical_formula_moiety         '(C108 H80 N16 O36 Zn6)n'
_symmetry_cell_setting           triclinic
_symmetry_space_group_name_H-M   'P 1'
_symmetry_Int_Tables_number      1
_space_group_name_Hall           'P 1'
loop_
_symmetry_equiv_pos_site_id
_symmetry_equiv_pos_as_xyz
1 x,y,z
_cell_length_a                   10.589(5)
_cell_length_b                   17.347(7)
_cell_length_c                   16.501(5)
_cell_angle_alpha                90
_cell_angle_beta                 91.35(3)
_cell_angle_gamma                90
_cell_volume                     3030.18
loop_
_atom_site_label
_atom_site_type_symbol
_atom_site_fract_x
_atom_site_fract_y
_atom_site_fract_z
Zn2 Zn 0.03056(10) 0.79566(7) 0.08579(6)
O20 O 0.1963(6) 0.7519(4) 0.1193(4)
N9 N 0.1515(8) 0.9144(5) 0.0711(5)
O3 O 0.0300(6) 0.7787(5) 0.9670(4)
O6 O 0.1388(6) 0.7275(5) 0.5547(4)
O10 O 0.0412(7) 0.8021(6) 0.3800(5)
C1 C 0.0266(9) 0.7330(6) 0.5786(5)
C3 C 0.0027(9) 0.7444(6) 0.6680(5)
C10 C 0.0738(9) 0.7344(6) 0.8064(5)
H5 H 0.136106 0.721341 0.844613
C16 C 0.0944(9) 0.7234(7) 0.7252(6)
H9 H 0.169872 0.701842 0.708578
Zn8 Zn 0.29012(10) 0.79673(6) 0.57004(6)
N10 N 0.0448(8) 0.6235(6) 0.3722(5)
H39 H 0.0152596 0.848613 0.410487
H40 H 0.131557 0.790801 0.392324
O5 O 0.5262(9) 0.5981(6) 0.0021(6)
O11 O 0.9192(7) 0.7026(5) 0.1195(5)
O15 O 0.7187(8) 0.6405(5) 0.0270(4)
N4 N 0.0812(8) 0.9703(6) 0.1046(6)
O16 O 0.7970(11) 0.3868(6) 0.3501(5)
O17 O 0.6189(12) 0.3269(6) 0.3176(6)
C9 C 0.6265(11) 0.5963(6) 0.0403(7)
C14 C 0.2667(10) 0.9336(6) 0.0572(7)
H7 H 0.292651 0.983122 0.071454
C19 C 0.6471(11) 0.5393(6) 0.1085(7)
C22 C 0.3586(9) 0.8829(6) 0.0207(6)
H13 H 0.659304 0.860073 0.006437
C30 C 0.7624(11) 0.5220(7) 0.1374(7)
H16 H 0.832268 0.546068 0.115453
C35 C 0.6803(13) 0.4325(7) 0.2332(7)
C36 C 0.7808(13) 0.4676(8) 0.2013(8)
H21 H 0.861894 0.456441 0.220741
C39 C 0.5392(12) 0.5018(8) 0.1406(8)
H24 H 0.458291 0.512895 0.120815
C40 C 0.5585(14) 0.4482(7) 0.2023(8)
H25 H 0.489632 0.422357 0.223440
C52 C 0.7050(18) 0.3790(7) 0.3073(9)
C53 C 0.4850(10) 0.8986(7) 0.0318(8)
H35 H 0.511101 0.941975 0.060756
Zn7 Zn 0.70988(10) 0.29673(6) 0.42996(6)
N11 N 0.9198(8) 0.8832(6) 0.1270(5)
H37 H 0.960009 0.653799 0.102682
H38 H 0.909913 0.702732 0.179242
Zn1 Zn 0.67635(10) 0.70539(6) 0.93117(6)
Zn4 Zn 0.93247(10) 0.70964(7) 0.41365(6)
O1 O 0.8232(6) 0.7769(4) 0.9445(4)
O2 O 0.7664(7) 0.7525(4) 0.3809(4)
N1 N 0.5429(7) 0.7851(5) 0.9585(5)
O4 O 0.9329(6) 0.7288(5) 0.5323(4)
O8 O 0.6245(8) 0.6624(5) 0.8247(5)
O9 O 0.1462(7) 0.8095(6) 0.2321(4)
O12 O 0.8089(8) 0.6109(5) 0.8528(5)
O13 O 0.7547(9) 0.3612(5) 0.5269(4)
O14 O 0.8174(7) 0.6967(6) 0.2673(5)
N5 N 0.1135(9) 0.0340(5) 0.6045(6)
C2 C 0.3933(9) 0.1205(6) 0.5217(6)
C4 C 0.9331(8) 0.7733(6) 0.9195(5)
N7 N 0.1852(8) 0.0890(6) 0.5710(5)
O18 O 0.5656(10) 0.4005(6) 0.4969(6)
C5 C 0.5232(11) 0.1042(8) 0.5356(8)
H3 H 0.548325 0.061235 0.565581
C7 C 0.7130(12) 0.6160(7) 0.8087(7)
C8 C 0.5672(9) 0.7184(7) 0.2020(6)
H4 H 0.626252 0.695896 0.168577
N8 N 0.5787(7) 0.2162(5) 0.4584(5)
C11 C 0.6061(9) 0.7427(6) 0.2798(6)
C12 C 0.4196(9) 0.7721(7) 0.9458(7)
H6 H 0.396316 0.728752 0.915806
C13 C 0.9590(8) 0.7653(6) 0.8313(5)
C15 C 0.3620(9) 0.1821(7) 0.4726(6)
H8 H 0.277720 0.192679 0.460025
C17 C 0.6975(11) 0.5653(7) 0.7363(7)
C18 C 0.8665(8) 0.7845(6) 0.7746(5)
H10 H 0.789466 0.804200 0.790909
C20 C 0.5166(9) 0.7774(7) 0.3265(6)
H11 H 0.538641 0.793083 0.378805
C21 C 0.7393(9) 0.7294(6) 0.3092(6)
C23 C 0.3587(9) 0.7624(6) 0.2196(6)
C24 C 0.2222(9) 0.7763(6) 0.1906(6)
C25 C 0.4464(9) 0.7266(7) 0.1737(6)
H12 H 0.423415 0.707700 0.122735
C26 C 0.5741(9) 0.8484(6) 0.9992(7)
C27 C 0.3236(9) 0.8190(7) 0.9744(6)
H14 H 0.239099 0.808016 0.963019
C28 C 0.8900(9) 0.7740(6) 0.6923(6)
H15 H 0.828346 0.787313 0.653687
C31 C 0.6109(10) 0.1530(7) 0.5039(8)
H17 H 0.696093 0.142672 0.513767
C32 C 0.3943(9) 0.7898(8) 0.2975(6)
H18 H 0.336343 0.815714 0.329023
C33 C 0.3042(10) 0.0696(7) 0.5608(6)
H19 H 0.332020 0.021693 0.579255
C38 C 0.8054(12) 0.5349(7) 0.7012(8)
H23 H 0.885731 0.548268 0.720303
C41 C 0.6756(11) 0.4615(7) 0.6068(7)
C42 C 0.7889(13) 0.4842(8) 0.6369(7)
H26 H 0.860772 0.464650 0.613037
C43 C 0.6649(12) 0.4045(7) 0.5407(7)
C44 C 0.5803(12) 0.5444(8) 0.7038(8)
H27 H 0.506963 0.564968 0.724988
C46 C 0.4543(10) 0.2272(7) 0.4427(7)
H29 H 0.430622 0.268251 0.409356
C49 C 0.5726(13) 0.4926(8) 0.6397(8)
H32 H 0.493316 0.479007 0.618878
Zn9 Zn 0.06753(10) 0.20964(7) 0.58635(6)
O19 O 0.8612(6) 0.2275(5) 0.4453(4)
N12 N 0.8148(8) 0.5890(6) 0.4290(5)
C29 C 0.9618(10) 0.9535(7) 0.1307(7)
C37 C 0.8039(11) 0.8699(9) 0.1559(7)
H22 H 0.772483 0.819861 0.153430
C48 C 0.7295(12) 0.9261(9) 0.1888(9)
H31 H 0.649833 0.914075 0.207767
N3 N 0.9552(8) 0.1235(6) 0.6278(5)
C6 C 0.9959(10) 0.0501(8) 0.6347(7)
C47 C 0.8404(10) 0.1381(8) 0.6592(7)
H30 H 0.811330 0.188683 0.657324
C50 C 0.8091(14) 0.0072(9) 0.6946(9)
C54 C 0.7629(13) 0.0832(10) 0.6939(9)
H36 H 0.685157 0.095893 0.715304
N6 N 0.0802(8) 0.3832(6) 0.8730(5)
C29_2 C 0.0382(10) 0.4535(7) 0.8693(7)
C37_2 C 0.1961(11) 0.3699(9) 0.8441(7)
H22_2 H 0.227517 0.319861 0.846570
C45 C 0.1068(13) 0.5144(8) 0.8352(9)
H28 H 0.071956 0.563517 0.832173
C48_2 C 0.2705(12) 0.4261(9) 0.8112(9)
H31_2 H 0.350167 0.414075 0.792233
C51 C 0.2250(14) 0.5010(11) 0.8066(10)
H34 H 0.272932 0.540591 0.784939
C6_2 C 0.0041(10) 0.5501(8) 0.3653(7)
C34 C 0.0732(12) 0.4906(8) 0.3322(8)
H20 H 0.040442 0.440925 0.328462
C47_2 C 0.1596(10) 0.6381(8) 0.3408(7)
H30_2 H 0.188670 0.688683 0.342676
C50_2 C 0.1909(14) 0.5072(9) 0.3054(9)
H33 H 0.241481 0.467642 0.286295
C54_2 C 0.2371(13) 0.5832(10) 0.3061(9)
H36_2 H 0.314843 0.595893 0.284696
Zn1_2 Zn 0.32365(10) 0.20539(6) 0.06883(6)
O1_2 O 0.1768(6) 0.2769(4) 0.0555(4)
O2_2 O 0.2336(7) 0.2525(4) 0.6191(4)
N1_2 N 0.4571(7) 0.2851(5) 0.0415(5)
O4_2 O 0.0671(6) 0.2288(5) 0.4677(4)
O7 O 0.8037(6) 0.2519(4) 0.8807(4)
O8_2 O 0.3755(8) 0.1624(5) 0.1753(5)
O9_2 O 0.8538(7) 0.3095(6) 0.7679(4)
O12_2 O 0.1911(8) 0.1109(5) 0.1472(5)
O14_2 O 0.1826(7) 0.1967(6) 0.7327(5)
C4_2 C 0.0669(8) 0.2733(6) 0.0805(5)
C7_2 C 0.2870(12) 0.1160(7) 0.1913(7)
C8_2 C 0.4328(9) 0.2184(7) 0.7980(6)
H4_2 H 0.373748 0.195896 0.831423
C11_2 C 0.3939(9) 0.2427(6) 0.7202(6)
C12_2 C 0.5804(9) 0.2721(7) 0.0542(7)
H6_2 H 0.603684 0.228752 0.084194
C13_2 C 0.0410(8) 0.2653(6) 0.1687(5)
C17_2 C 0.3025(11) 0.0653(7) 0.2637(7)
C18_2 C 0.1335(8) 0.2845(6) 0.2254(5)
H10_2 H 0.210534 0.304200 0.209091
C20_2 C 0.4834(9) 0.2774(7) 0.6735(6)
H11_2 H 0.461359 0.293083 0.621195
C21_2 C 0.2607(9) 0.2294(6) 0.6908(6)
C23_2 C 0.6413(9) 0.2624(6) 0.7804(6)
C24_2 C 0.7778(9) 0.2763(6) 0.8094(6)
C25_2 C 0.5536(9) 0.2266(7) 0.8263(6)
H12_2 H 0.576585 0.207700 0.877265
C26_2 C 0.4259(9) 0.3484(6) 0.0008(7)
C27_2 C 0.6764(9) 0.3190(7) 0.0256(6)
H14_2 H 0.760901 0.308016 0.036981
C28_2 C 0.1100(9) 0.2740(6) 0.3077(6)
H15_2 H 0.171654 0.287313 0.346313
C32_2 C 0.6057(9) 0.2898(8) 0.7025(6)
H18_2 H 0.663657 0.315714 0.670977
C38_2 C 0.1946(12) 0.0349(7) 0.2988(8)
H23_2 H 0.114269 0.048268 0.279697
C44_2 C 0.4197(12) 0.0444(8) 0.2962(8)
H27_2 H 0.493037 0.064968 0.275012
Zn5 Zn 0.96944(10) 0.29566(7) 0.91421(6)
O5_2 O 0.4738(9) 0.0981(6) 0.9979(6)
O11_2 O 0.0808(7) 0.2026(5) 0.8805(5)
N2 N 0.8485(8) 0.4144(5) 0.9289(5)
O15_2 O 0.2813(8) 0.1405(5) 0.9730(4)
N4_2 N 0.9188(8) 0.4703(6) 0.8954(6)
H1 H 0.889131 0.516198 0.890290
C9_2 C 0.3735(11) 0.0963(6) 0.9597(7)
C14_2 C 0.7333(10) 0.4336(6) 0.9428(7)
H7_2 H 0.707349 0.483122 0.928546
C19_2 C 0.3529(11) 0.0393(6) 0.8915(7)
C22_2 C 0.6414(9) 0.3829(6) 0.9793(6)
H13_2 H 0.340696 0.360073 0.993563
C30_2 C 0.2376(11) 0.0220(7) 0.8626(7)
H16_2 H 0.167732 0.046068 0.884547
C39_2 C 0.4608(12) 0.0018(8) 0.8594(8)
H24_2 H 0.541709 0.012895 0.879185
C53_2 C 0.5150(10) 0.3986(7) 0.9682(8)
H35_2 H 0.488899 0.441975 0.939244
H37_2 H 0.0399915 0.153799 0.897318
H38_2 H 0.0900873 0.202732 0.820758
O13_2 O 0.2453(9) 0.8612(5) 0.4731(4)
N5_2 N 0.8865(9) 0.5340(5) 0.3955(6)
H2 H 0.858276 0.487586 0.392853
C2_2 C 0.6067(9) 0.6205(6) 0.4783(6)
O18_2 O 0.4344(10) 0.9005(6) 0.5031(6)
C5_2 C 0.4768(11) 0.6042(8) 0.4644(8)
H3_2 H 0.451675 0.561235 0.434419
N8_2 N 0.4213(7) 0.7162(5) 0.5416(5)
C15_2 C 0.6380(9) 0.6821(7) 0.5274(6)
H8_2 H 0.722280 0.692679 0.539975
C31_2 C 0.3891(10) 0.6530(7) 0.4961(8)
H17_2 H 0.303907 0.642672 0.486233
C33_2 C 0.6958(10) 0.5696(7) 0.4392(6)
H19_2 H 0.667980 0.521693 0.420745
C41_2 C 0.3244(11) 0.9615(7) 0.3932(7)
C42_2 C 0.2111(13) 0.9842(8) 0.3631(7)
H26_2 H 0.139228 0.964650 0.386963
C43_2 C 0.3351(12) 0.9045(7) 0.4593(7)
C46_2 C 0.5457(10) 0.7272(7) 0.5573(7)
H29_2 H 0.569378 0.768251 0.590644
C49_2 C 0.4274(13) 0.9926(8) 0.3603(8)
H32_2 H 0.506684 0.979007 0.381122
O21 O 0.2030(11) 0.8868(6) 0.6499(5)
O22 O 0.3811(12) 0.8269(6) 0.6824(6)
C35_2 C 0.3197(13) 0.9325(7) 0.7668(7)
C36_2 C 0.2192(13) 0.9676(8) 0.7987(8)
H21_2 H 0.138106 0.956441 0.779259
C40_2 C 0.4415(14) 0.9482(7) 0.7977(8)
H25_2 H 0.510368 0.922357 0.776560
C52_2 C 0.2950(18) 0.8790(7) 0.6927(9)
O3_2 O 0.9700(6) 0.2787(5) 0.0330(4)
O10_2 O 0.9588(7) 0.3021(6) 0.6200(5)
C1_2 C 0.9734(9) 0.2330(6) 0.4214(5)
C3_2 C 0.9973(9) 0.2444(6) 0.3320(5)
C10_2 C 0.9262(9) 0.2344(6) 0.1936(5)
H5_2 H 0.863894 0.221341 0.155387
C16_2 C 0.9056(9) 0.2234(7) 0.2748(6)
H9_2 H 0.830128 0.201842 0.291422
H39_2 H 0.98474 0.348613 0.589513
H40_2 H 0.868443 0.290801 0.607676
H1_2 H 0.110869 0.016198 0.109710
H2_2 H 0.141724 0.987586 0.607147
C45_2 C 0.8932(13) 0.0144(8) 0.1648(9)
H28_2 H 0.928044 0.063517 0.167827
C51_2 C 0.7750(14) 0.0010(11) 0.1934(10)
H34_2 H 0.727068 0.040591 0.215061
C34_2 C 0.9268(12) 0.9906(8) 0.6678(8)
H20_2 H 0.959558 0.940925 0.671538
H33_2 H 0.758519 0.967642 0.713705
loop_
_geom_bond_atom_site_label_1
_geom_bond_atom_site_label_2
_geom_bond_site_symmetry_1
_geom_bond_site_symmetry_2
O20 Zn2 1_555 1_555
N9 Zn2 1_555 1_555
O6 C1 1_555 1_555
C3 C1 1_555 1_555
C10 H5 1_555 1_555
C16 C3 1_555 1_555
H9 C16 1_555 1_555
Zn8 O6 1_555 1_555
C10 C16 1_555 1_555
O10 H39 1_555 1_555
O10 H40 1_555 1_555
O5 C9 1_555 1_555
N9 N4 1_555 1_555
O16 C52 1_555 1_555
O17 C52 1_555 1_555
C9 O15 1_555 1_555
C14 N9 1_555 1_555
H7 C14 1_555 1_555
C19 C9 1_555 1_555
C22 C14 1_555 1_555
C30 C19 1_555 1_555
H16 C30 1_555 1_555
C35 C36 1_555 1_555
C36 C30 1_555 1_555
H21 C36 1_555 1_555
C39 C19 1_555 1_555
H24 C39 1_555 1_555
C40 C35 1_555 1_555
H25 C40 1_555 1_555
C52 C35 1_555 1_555
C53 C22 1_555 1_555
H35 C53 1_555 1_555
Zn7 O16 1_555 1_555
O17 Zn7 1_555 1_555
C39 C40 1_555 1_555
O11 H37 1_555 1_555
O11 H38 1_555 1_555
Zn1 O1 1_555 1_555
Zn7 O13 1_555 1_555
Zn4 O2 1_555 1_555
O1 C4 1_555 1_555
O2 C21 1_555 1_555
N1 Zn1 1_555 1_555
O4 Zn4 1_555 1_555
O20 C24 1_555 1_555
O8 Zn1 1_555 1_555
O9 C24 1_555 1_555
O12 Zn1 1_555 1_555
O13 C43 1_555 1_555
O14 C21 1_555 1_555
C2 C5 1_555 1_555
C4 C13 1_555 1_555
N7 N5 1_555 1_555
O18 C43 1_555 1_555
C5 H3 1_555 1_555
C7 O8 1_555 1_555
C8 H4 1_555 1_555
N8 Zn7 1_555 1_555
C11 C8 1_555 1_555
C12 N1 1_555 1_555
H6 C12 1_555 1_555
C15 C2 1_555 1_555
H8 C15 1_555 1_555
C17 C7 1_555 1_555
C18 C13 1_555 1_555
H10 C18 1_555 1_555
C20 C11 1_555 1_555
H11 C20 1_555 1_555
C21 C11 1_555 1_555
C23 C24 1_555 1_555
C25 C8 1_555 1_555
H12 C25 1_555 1_555
C26 N1 1_555 1_555
C27 C12 1_555 1_555
H14 C27 1_555 1_555
H15 C28 1_555 1_555
C31 C5 1_555 1_555
H17 C31 1_555 1_555
C32 C20 1_555 1_555
H18 C32 1_555 1_555
C33 C2 1_555 1_555
H19 C33 1_555 1_555
C38 C17 1_555 1_555
H23 C38 1_555 1_555
C41 C42 1_555 1_555
C42 C38 1_555 1_555
H26 C42 1_555 1_555
C43 C41 1_555 1_555
C44 C17 1_555 1_555
H27 C44 1_555 1_555
C46 N8 1_555 1_555
H29 C46 1_555 1_555
C49 C41 1_555 1_555
H32 C49 1_555 1_555
O19 Zn7 1_555 1_555
N12 Zn4 1_555 1_555
O12 C7 1_555 1_555
N7 C33 1_555 1_555
N7 Zn9 1_555 1_555
N8 C31 1_555 1_555
C15 C46 1_555 1_555
C18 C28 1_555 1_555
C23 C25 1_555 1_555
C23 C32 1_555 1_555
C44 C49 1_555 1_555
N11 C29 1_555 1_555
C37 N11 1_555 1_555
H22 C37 1_555 1_555
C48 C37 1_555 1_555
H31 C48 1_555 1_555
N3 C6 1_555 1_555
C47 N3 1_555 1_555
H30 C47 1_555 1_555
C54 C47 1_555 1_555
H36 C54 1_555 1_555
C50 C54 1_555 1_555
N6 C29_2 1_555 1_555
C37_2 N6 1_555 1_555
H22_2 C37_2 1_555 1_555
C45 C29_2 1_555 1_555
H28 C45 1_555 1_555
C48_2 C37_2 1_555 1_555
H31_2 C48_2 1_555 1_555
C51 C45 1_555 1_555
H34 C51 1_555 1_555
C48_2 C51 1_555 1_555
N10 C6_2 1_555 1_555
C34 C6_2 1_555 1_555
H20 C34 1_555 1_555
C47_2 N10 1_555 1_555
H30_2 C47_2 1_555 1_555
C50_2 C34 1_555 1_555
H33 C50_2 1_555 1_555
C54_2 C47_2 1_555 1_555
H36_2 C54_2 1_555 1_555
C50_2 C54_2 1_555 1_555
Zn1_2 O1_2 1_555 1_555
Zn9 O2_2 1_555 1_555
O1_2 C4_2 1_555 1_555
O2_2 C21_2 1_555 1_555
N1_2 Zn1_2 1_555 1_555
O4_2 Zn9 1_555 1_555
O7 C24_2 1_555 1_555
O8_2 Zn1_2 1_555 1_555
O9_2 C24_2 1_555 1_555
O12_2 Zn1_2 1_555 1_555
O14_2 C21_2 1_555 1_555
C4_2 C13_2 1_555 1_555
C7_2 O8_2 1_555 1_555
C8_2 H4_2 1_555 1_555
C11_2 C8_2 1_555 1_555
C12_2 N1_2 1_555 1_555
H6_2 C12_2 1_555 1_555
C17_2 C7_2 1_555 1_555
C18_2 C13_2 1_555 1_555
H10_2 C18_2 1_555 1_555
C20_2 C11_2 1_555 1_555
H11_2 C20_2 1_555 1_555
C21_2 C11_2 1_555 1_555
C23_2 C24_2 1_555 1_555
C25_2 C8_2 1_555 1_555
H12_2 C25_2 1_555 1_555
C26_2 N1_2 1_555 1_555
C27_2 C12_2 1_555 1_555
H14_2 C27_2 1_555 1_555
H15_2 C28_2 1_555 1_555
C32_2 C20_2 1_555 1_555
H18_2 C32_2 1_555 1_555
C38_2 C17_2 1_555 1_555
H23_2 C38_2 1_555 1_555
C44_2 C17_2 1_555 1_555
H27_2 C44_2 1_555 1_555
Zn5 O7 1_555 1_555
O12_2 C7_2 1_555 1_555
C18_2 C28_2 1_555 1_555
C23_2 C25_2 1_555 1_555
C23_2 C32_2 1_555 1_555
O5_2 C9_2 1_555 1_555
N2 N4_2 1_555 1_555
N4_2 H1 1_555 1_555
C9_2 O15_2 1_555 1_555
C14_2 N2 1_555 1_555
H7_2 C14_2 1_555 1_555
C19_2 C9_2 1_555 1_555
C22_2 C14_2 1_555 1_555
C30_2 C19_2 1_555 1_555
H16_2 C30_2 1_555 1_555
C39_2 C19_2 1_555 1_555
H24_2 C39_2 1_555 1_555
C53_2 C22_2 1_555 1_555
H35_2 C53_2 1_555 1_555
Zn5 N2 1_555 1_555
O11_2 H37_2 1_555 1_555
O11_2 H38_2 1_555 1_555
Zn8 O13_2 1_555 1_555
O13_2 C43_2 1_555 1_555
N5_2 H2 1_555 1_555
C2_2 C5_2 1_555 1_555
N12 N5_2 1_555 1_555
O18_2 C43_2 1_555 1_555
C5_2 H3_2 1_555 1_555
N8_2 Zn8 1_555 1_555
C15_2 C2_2 1_555 1_555
H8_2 C15_2 1_555 1_555
C31_2 C5_2 1_555 1_555
H17_2 C31_2 1_555 1_555
C33_2 C2_2 1_555 1_555
H19_2 C33_2 1_555 1_555
C41_2 C42_2 1_555 1_555
H26_2 C42_2 1_555 1_555
C43_2 C41_2 1_555 1_555
C46_2 N8_2 1_555 1_555
H29_2 C46_2 1_555 1_555
C49_2 C41_2 1_555 1_555
H32_2 C49_2 1_555 1_555
O21 Zn8 1_555 1_555
O22 Zn8 1_555 1_555
N12 C33_2 1_555 1_555
N8_2 C31_2 1_555 1_555
C15_2 C46_2 1_555 1_555
O21 C52_2 1_555 1_555
O22 C52_2 1_555 1_555
C35_2 C36_2 1_555 1_555
H21_2 C36_2 1_555 1_555
C40_2 C35_2 1_555 1_555
H25_2 C40_2 1_555 1_555
C52_2 C35_2 1_555 1_555
O19 C1_2 1_555 1_555
C3_2 C1_2 1_555 1_555
C10_2 H5_2 1_555 1_555
C16_2 C3_2 1_555 1_555
H9_2 C16_2 1_555 1_555
C10_2 C16_2 1_555 1_555
O10_2 H39_2 1_555 1_555
O10_2 H40_2 1_555 1_555
H28_2 C45_2 1_555 1_555
C51_2 C45_2 1_555 1_555
H34_2 C51_2 1_555 1_555
H20_2 C34_2 1_555 1_555

#END
