
###############################################################################
#
# This file contains modified crystal structure data generated from the
# MOF subset of the Cambridge Structural Database (CSD) v543 
# hosted by the Cambridge Crystallographic Data Centre (CCDC).
#
# This work is licensed under the Creative Commons
# Attribution-NonCommercial-ShareAlike 4.0 International License.
# To view a copy of this license, visit
# http://creativecommons.org/licenses/by-nc-sa/4.0/
# or send a letter to
# Creative Commons, PO Box 1866, Mountain View, CA 94042, USA.
#
# CIF created using the CSD Python API on 29 September 2022
# The structure has been converted into the P1 space group
# The structure has a 3D framework
# The original CSD entry VAYNOY01 is in the monoclinic crystal system
# The framework has been calculated to contain at least 10.0% void space
# The void calculation uses a probe of radius 1.32A, grid spacing 0.4
#
###############################################################################

data_VAYNOY01
_chemical_formula_moiety         '(C8 H16 F5 O22 Tb5)n'
_symmetry_cell_setting           triclinic
_symmetry_space_group_name_H-M   'P 1'
_symmetry_Int_Tables_number      1
_space_group_name_Hall           'P 1'
loop_
_symmetry_equiv_pos_site_id
_symmetry_equiv_pos_as_xyz
1 x,y,z
_cell_length_a                   12.0378(4)
_cell_length_b                   11.1234(4)
_cell_length_c                   8.2428(3)
_cell_angle_alpha                90
_cell_angle_beta                 128.902(3)
_cell_angle_gamma                90
_cell_volume                     858.939
loop_
_atom_site_label
_atom_site_type_symbol
_atom_site_fract_x
_atom_site_fract_y
_atom_site_fract_z
Tb1 Tb 0.5000 0.06512(2) 0.2500
O2 O 0.39592(18) 0.22795(15) 0.0054(3)
F1 F 0.5000 0.0000 0.0000
C2 C 0.2208(3) 0.2277(2) 0.0569(4)
O5 O 0.29456(17) 0.15188(15) 0.1973(3)
O7 O 0.60408(18) 0.22795(15) 0.4946(3)
F2 F 0.5000 0.0000 0.5000
O8 O 0.70544(17) 0.15188(15) 0.3027(3)
F1_2 F 0.5000 0.0000 1.0000
O3 O 0.20544(17) 0.34812(15) 0.8027(3)
C1 C 0.2792(3) 0.2723(2) 0.9431(4)
O4 O 0.10408(18) 0.27205(15) 0.9946(3)
Tb3 Tb 0.0000 0.43488(2) 0.7500
O1 O 0.6853(3) 0.9186(2) 0.4508(4)
F1_3 F 0.5000 1.0000 0.0000
H1 H 0.751(5) 0.907(4) 0.457(7)
H2 H 0.704(4) 0.904(3) 0.555(7)
O6 O 0.3147(3) 0.9186(2) 0.0492(4)
H3 H 0.249(5) 0.907(4) 0.043(7)
F2_2 F 0.5000 1.0000 0.5000
F1_4 F 0.5000 1.0000 1.0000
H4 H 0.296(4) 0.904(3) 0.945(7)
Tb2 Tb 0.5000 0.93488(2) 0.7500
Tb3_2 Tb 1.0000 0.43488(2) 0.7500
O3_2 O 0.79456(17) 0.34812(15) 0.6973(3)
C1_2 C 0.7208(3) 0.2723(2) 0.5569(4)
O4_2 O 0.89592(18) 0.27205(15) 0.5054(3)
C2_2 C 0.7792(3) 0.2277(2) 0.4431(4)
Tb1_2 Tb -0.0000 0.56512(2) 0.2500
O1_2 O 0.1853(3) 0.4186(2) 0.4508(4)
F1_5 F -0.0000 0.5000 0.0000
H1_2 H 0.251(5) 0.407(4) 0.457(7)
H2_2 H 0.204(4) 0.404(3) 0.555(7)
O7_2 O 0.10408(18) 0.72795(15) 0.4946(3)
F2_3 F 0.0000 0.5000 0.5000
O8_2 O 0.20544(17) 0.65188(15) 0.3027(3)
F1_6 F -0.0000 0.5000 1.0000
Tb1_3 Tb 1.0000 0.56512(2) 0.2500
O2_2 O 0.89592(18) 0.72795(15) 0.0054(3)
F1_7 F 1.0000 0.5000 0.0000
C2_3 C 0.7208(3) 0.7277(2) 0.0569(4)
O5_2 O 0.79456(17) 0.65188(15) 0.1973(3)
O6_2 O 0.8147(3) 0.4186(2) 0.0492(4)
H3_2 H 0.749(5) 0.407(4) 0.043(7)
F2_4 F 1.0000 0.5000 0.5000
F1_8 F 1.0000 0.5000 1.0000
O3_3 O 0.70544(17) 0.84812(15) 0.8027(3)
C1_3 C 0.7792(3) 0.7723(2) 0.9431(4)
O4_3 O 0.60408(18) 0.77205(15) 0.9946(3)
H4_2 H 0.796(4) 0.404(3) 0.945(7)
O3_4 O 0.29456(17) 0.84812(15) 0.6973(3)
C1_4 C 0.2208(3) 0.7723(2) 0.5569(4)
O4_4 O 0.39592(18) 0.77205(15) 0.5054(3)
C2_4 C 0.2792(3) 0.7277(2) 0.4431(4)
H4_3 H 0.704(4) 0.096(3) 0.055(7)
O1_3 O 0.3147(3) 0.0814(2) 0.5492(4)
H1_3 H 0.249(5) 0.093(4) 0.543(7)
H2_3 H 0.296(4) 0.096(3) 0.445(7)
O6_3 O 0.6853(3) 0.0814(2) 0.9508(4)
H3_3 H 0.751(5) 0.093(4) 0.957(7)
H4_4 H 0.204(4) 0.596(3) 0.055(7)
O6_4 O 0.1853(3) 0.5814(2) 0.9508(4)
H3_4 H 0.251(5) 0.593(4) 0.957(7)
O1_4 O 0.8147(3) 0.5814(2) 0.5492(4)
H1_4 H 0.749(5) 0.593(4) 0.543(7)
H2_4 H 0.796(4) 0.596(3) 0.445(7)
loop_
_geom_bond_atom_site_label_1
_geom_bond_atom_site_label_2
_geom_bond_site_symmetry_1
_geom_bond_site_symmetry_2
O2 Tb1 1_555 1_555
F1 Tb1 1_555 1_555
O5 Tb1 1_555 1_555
O7 Tb1 1_555 1_555
F2 Tb1 1_555 1_555
O8 Tb1 1_555 1_555
C2 O5 1_555 1_555
O3 C1 1_555 1_555
Tb3 O3 1_555 1_555
O4 Tb3 1_555 1_555
O1 H1 1_555 1_555
H2 O1 1_555 1_555
H3 O6 1_555 1_555
Tb2 F1_4 1_555 1_555
O3_2 C1_2 1_555 1_555
C1_2 O7 1_555 1_555
O4_2 C2_2 1_555 1_555
C2_2 C1_2 1_555 1_555
Tb3_2 O3_2 1_555 1_555
O4_2 Tb3_2 1_555 1_555
C2_2 O8 1_555 1_555
Tb2 F2_2 1_555 1_555
Tb1_2 O1_2 1_555 1_555
O1_2 H1_2 1_555 1_555
F1_5 Tb1_2 1_555 1_555
H2_2 O1_2 1_555 1_555
O7_2 Tb1_2 1_555 1_555
F2_3 Tb1_2 1_555 1_555
O8_2 Tb1_2 1_555 1_555
Tb3 F1_6 1_555 1_555
O2_2 Tb1_3 1_555 1_555
F1_7 Tb1_3 1_555 1_555
O5_2 Tb1_3 1_555 1_555
O6_2 Tb1_3 1_555 1_555
H3_2 O6_2 1_555 1_555
F2_4 Tb1_3 1_555 1_555
C2_3 O5_2 1_555 1_555
O3_3 C1_3 1_555 1_555
Tb3_2 F1_8 1_555 1_555
Tb2 O3_3 1_555 1_555
O4_3 Tb2 1_555 1_555
O3_4 C1_4 1_555 1_555
C1_4 O7_2 1_555 1_555
O4_4 C2_4 1_555 1_555
C2_4 C1_4 1_555 1_555
Tb3 F2_3 1_555 1_555
Tb2 O3_4 1_555 1_555
O4_4 Tb2 1_555 1_555
C2_4 O8_2 1_555 1_555
Tb3_2 F2_4 1_555 1_555
O1_3 H1_3 1_555 1_555
H2_3 O1_3 1_555 1_555
H3_3 O6_3 1_555 1_555
O6_4 Tb3 1_555 1_555
H3_4 O6_4 1_555 1_555
Tb3_2 O1_4 1_555 1_555
O1_4 H1_4 1_555 1_555
H2_4 O1_4 1_555 1_555

#END
