
###############################################################################
#
# This file contains modified crystal structure data generated from the
# MOF subset of the Cambridge Structural Database (CSD) v543 
# hosted by the Cambridge Crystallographic Data Centre (CCDC).
#
# This work is licensed under the Creative Commons
# Attribution-NonCommercial-ShareAlike 4.0 International License.
# To view a copy of this license, visit
# http://creativecommons.org/licenses/by-nc-sa/4.0/
# or send a letter to
# Creative Commons, PO Box 1866, Mountain View, CA 94042, USA.
#
# CIF created using the CSD Python API on 29 September 2022
# The structure has been converted into the P1 space group
# The structure has a 3D framework
# The original CSD entry VAYNUE02 is in the monoclinic crystal system
# The framework has been calculated to contain at least 10.0% void space
# The void calculation uses a probe of radius 1.32A, grid spacing 0.4
#
###############################################################################

data_VAYNUE02
_chemical_formula_moiety         '(C8 H16 Dy5 F5 O20)n'
_symmetry_cell_setting           triclinic
_symmetry_space_group_name_H-M   'P 1'
_symmetry_Int_Tables_number      1
_space_group_name_Hall           'P 1'
loop_
_symmetry_equiv_pos_site_id
_symmetry_equiv_pos_as_xyz
1 x,y,z
_cell_length_a                   12.0047(4)
_cell_length_b                   11.0842(4)
_cell_length_c                   8.2182(3)
_cell_angle_alpha                90
_cell_angle_beta                 129.021(3)
_cell_angle_gamma                90
_cell_volume                     849.583
loop_
_atom_site_label
_atom_site_type_symbol
_atom_site_fract_x
_atom_site_fract_y
_atom_site_fract_z
F1 F 0.5000 0.0000 -0.0000
Dy1 Dy 0.5000 0.06406(2) 0.7500
F1_2 F 0.5000 0.0000 1.0000
O1 O 0.2935(2) 0.15057(18) 0.6959(3)
O2 O 0.1037(2) 0.27280(19) 0.4946(3)
C1 C 0.2206(3) 0.2271(3) 0.5559(5)
O4 O 0.2065(2) 0.34943(18) 0.3041(3)
C2 C 0.2794(3) 0.2729(3) 0.4441(5)
O5 O 0.3963(2) 0.22720(19) 0.5054(3)
Dy3 Dy -0.0000 0.43594(2) 0.2500
F2 F 0.5000 0.0000 0.5000
O7 O 0.7065(2) 0.15057(18) 0.8041(3)
O8 O 0.6037(2) 0.22720(19) 0.9946(3)
F1_3 F 0.5000 1.0000 -0.0000
H4 H 0.717(6) 0.880(5) 0.062(6)
Dy2 Dy 0.5000 0.93594(2) 0.2500
F1_4 F 0.5000 1.0000 1.0000
O3 O 0.3154(3) 0.9173(2) 0.5498(4)
H1 H 0.2519 0.9225 0.5710
H2 H 0.283(6) 0.880(5) 0.438(6)
O6 O 0.6846(3) 0.9173(2) 0.9502(4)
H3 H 0.7481 0.9225 0.9290
F2_2 F 0.5000 1.0000 0.5000
Dy3_2 Dy 1.0000 0.43594(2) 0.2500
O2_2 O 0.8963(2) 0.27280(19) 0.0054(3)
O4_2 O 0.7935(2) 0.34943(18) 0.1959(3)
C2_2 C 0.7206(3) 0.2729(3) 0.0559(5)
C1_2 C 0.7794(3) 0.2271(3) 0.9441(5)
F1_5 F -0.0000 0.5000 -0.0000
H4_2 H 0.217(6) 0.380(5) 0.062(6)
Dy1_2 Dy -0.0000 0.56406(2) 0.7500
F1_6 F -0.0000 0.5000 1.0000
O6_2 O 0.1846(3) 0.4173(2) 0.9502(4)
H3_2 H 0.2481 0.4225 0.9290
F2_3 F -0.0000 0.5000 0.5000
O7_2 O 0.2065(2) 0.65057(18) 0.8041(3)
O8_2 O 0.1037(2) 0.72720(19) 0.9946(3)
F1_7 F 1.0000 0.5000 -0.0000
Dy1_3 Dy 1.0000 0.56406(2) 0.7500
F1_8 F 1.0000 0.5000 1.0000
O1_2 O 0.7935(2) 0.65057(18) 0.6959(3)
O2_3 O 0.6037(2) 0.77280(19) 0.4946(3)
O3_2 O 0.8154(3) 0.4173(2) 0.5498(4)
H1_2 H 0.7519 0.4225 0.5710
C1_3 C 0.7206(3) 0.7271(3) 0.5559(5)
H2_2 H 0.783(6) 0.380(5) 0.438(6)
O4_3 O 0.7065(2) 0.84943(18) 0.3041(3)
C2_3 C 0.7794(3) 0.7729(3) 0.4441(5)
O5_2 O 0.8963(2) 0.72720(19) 0.5054(3)
F2_4 F 1.0000 0.5000 0.5000
O2_4 O 0.3963(2) 0.77280(19) 0.0054(3)
O4_4 O 0.2935(2) 0.84943(18) 0.1959(3)
C2_4 C 0.2206(3) 0.7729(3) 0.0559(5)
C1_4 C 0.2794(3) 0.7271(3) 0.9441(5)
O3_3 O 0.6846(3) 0.0827(2) 0.4502(4)
H1_3 H 0.7481 0.0775 0.4290
H2_3 H 0.717(6) 0.120(5) 0.562(6)
O6_3 O 0.3154(3) 0.0827(2) 0.0498(4)
H3_3 H 0.2519 0.0775 0.0710
H4_3 H 0.283(6) 0.120(5) 0.938(6)
O3_4 O 0.1846(3) 0.5827(2) 0.4502(4)
H1_4 H 0.2481 0.5775 0.4290
H2_4 H 0.217(6) 0.620(5) 0.562(6)
O6_4 O 0.8154(3) 0.5827(2) 0.0498(4)
H3_4 H 0.7519 0.5775 0.0710
H4_4 H 0.783(6) 0.620(5) 0.938(6)
loop_
_geom_bond_atom_site_label_1
_geom_bond_atom_site_label_2
_geom_bond_site_symmetry_1
_geom_bond_site_symmetry_2
Dy1 F1_2 1_555 1_555
O1 Dy1 1_555 1_555
O2 C1 1_555 1_555
C1 O1 1_555 1_555
O4 C2 1_555 1_555
C2 C1 1_555 1_555
O5 Dy1 1_555 1_555
Dy3 O2 1_555 1_555
F2 Dy1 1_555 1_555
O7 Dy1 1_555 1_555
O8 Dy1 1_555 1_555
O4 Dy3 1_555 1_555
C2 O5 1_555 1_555
F1_3 Dy2 1_555 1_555
H1 O3 1_555 1_555
H2 O3 1_555 1_555
H3 O6 1_555 1_555
O4_2 C2_2 1_555 1_555
Dy3_2 O2_2 1_555 1_555
O4_2 Dy3_2 1_555 1_555
C1_2 O7 1_555 1_555
F2_2 Dy2 1_555 1_555
F1_5 Dy3 1_555 1_555
Dy1_2 F1_6 1_555 1_555
O6_2 Dy1_2 1_555 1_555
H3_2 O6_2 1_555 1_555
F2_3 Dy1_2 1_555 1_555
O7_2 Dy1_2 1_555 1_555
O8_2 Dy1_2 1_555 1_555
F1_7 Dy3_2 1_555 1_555
Dy1_3 F1_8 1_555 1_555
O1_2 Dy1_3 1_555 1_555
O2_3 C1_3 1_555 1_555
O3_2 Dy1_3 1_555 1_555
H1_2 O3_2 1_555 1_555
C1_3 O1_2 1_555 1_555
H2_2 O3_2 1_555 1_555
O4_3 C2_3 1_555 1_555
C2_3 C1_3 1_555 1_555
O5_2 Dy1_3 1_555 1_555
Dy2 O2_3 1_555 1_555
F2_4 Dy1_3 1_555 1_555
O4_3 Dy2 1_555 1_555
C2_3 O5_2 1_555 1_555
O4_4 C2_4 1_555 1_555
Dy2 O2_4 1_555 1_555
O4_4 Dy2 1_555 1_555
F2_3 Dy3 1_555 1_555
C1_4 O7_2 1_555 1_555
F2_4 Dy3_2 1_555 1_555
H1_3 O3_3 1_555 1_555
H2_3 O3_3 1_555 1_555
H3_3 O6_3 1_555 1_555
O3_4 Dy3 1_555 1_555
H1_4 O3_4 1_555 1_555
H2_4 O3_4 1_555 1_555
O6_4 Dy3_2 1_555 1_555
H3_4 O6_4 1_555 1_555

#END
