
###############################################################################
#
# This file contains modified crystal structure data generated from the
# MOF subset of the Cambridge Structural Database (CSD) v543 
# hosted by the Cambridge Crystallographic Data Centre (CCDC).
#
# This work is licensed under the Creative Commons
# Attribution-NonCommercial-ShareAlike 4.0 International License.
# To view a copy of this license, visit
# http://creativecommons.org/licenses/by-nc-sa/4.0/
# or send a letter to
# Creative Commons, PO Box 1866, Mountain View, CA 94042, USA.
#
# CIF created using the CSD Python API on 29 September 2022
# The structure has been converted into the P1 space group
# The structure has a 3D framework
# The original CSD entry VAZHIQ is in the triclinic crystal system
# The framework has been calculated to contain at least 10.0% void space
# The void calculation uses a probe of radius 1.32A, grid spacing 0.4
#
###############################################################################

data_VAZHIQ
_chemical_formula_moiety         '(C144 H96 N8 O16 Zn4)n'
_symmetry_cell_setting           triclinic
_symmetry_space_group_name_H-M   'P 1'
_symmetry_Int_Tables_number      1
_space_group_name_Hall           'P 1'
loop_
_symmetry_equiv_pos_site_id
_symmetry_equiv_pos_as_xyz
1 x,y,z
_cell_length_a                   10.2572(5)
_cell_length_b                   14.7820(7)
_cell_length_c                   20.3522(10)
_cell_angle_alpha                85.1690(19)
_cell_angle_beta                 86.297(2)
_cell_angle_gamma                77.8590(19)
_cell_volume                     3002.62
loop_
_atom_site_label
_atom_site_type_symbol
_atom_site_fract_x
_atom_site_fract_y
_atom_site_fract_z
C18 C 0.07233(19) 0.93736(14) 0.10993(9)
H12 H 0.1510 0.9470 0.0855
C19 C 0.05817(19) 0.94899(13) 0.17877(9)
H13 H 0.1276 0.9666 0.2002
H23 H 0.0252 0.5793 0.4144
C45 C 0.01209(18) 0.64333(12) 0.05861(8)
H31 H 0.0189 0.6364 0.0125
C46 C 0.11225(19) 0.67132(13) 0.08721(9)
H32 H 0.1888 0.6818 0.0613
C47 C 0.10189(19) 0.68482(14) 0.15572(9)
H33 H 0.1708 0.7055 0.1754
O11 O 0.63509(13) 0.04308(8) 0.63679(6)
O12 O 0.85044(13) 0.01545(9) 0.65505(7)
Zn1 Zn 0.71322(2) 0.90175(2) 0.64979(2)
Zn2 Zn 0.76598(2) 0.63557(2) 0.63362(2)
O1 O 0.52311(11) 0.87572(8) 0.65350(6)
O2 O 0.59945(11) 0.73330(8) 0.62017(6)
O5 O 0.78510(14) 0.49929(9) 0.64539(6)
O6 O 0.59159(15) 0.51732(10) 0.59569(10)
N1 N 0.74653(14) 0.89474(10) 0.54610(7)
N3 N 0.79421(15) 0.64017(10) 0.52828(7)
C1 C 0.64074(17) 0.90882(12) 0.50810(8)
H1 H 0.5541 0.9256 0.5286
C2 C 0.65106(17) 0.90016(12) 0.44067(8)
H2 H 0.5732 0.9116 0.4158
C3 C 0.77733(17) 0.87445(12) 0.40963(8)
C4 C 0.88773(17) 0.86160(13) 0.44879(8)
H3 H 0.9756 0.8451 0.4296
C5 C 0.86813(17) 0.87313(13) 0.51588(8)
H4 H 0.9442 0.8654 0.5416
C6 C 0.79796(18) 0.86078(12) 0.33851(8)
H5 H 0.8814 0.8253 0.3237
C7 C 0.70775(18) 0.89469(12) 0.29337(8)
H6 H 0.6236 0.9285 0.3088
C8 C 0.72764(17) 0.88411(11) 0.22151(8)
C9 C 0.62683(17) 0.85593(11) 0.18860(8)
C10 C 0.51105(18) 0.83392(12) 0.22432(8)
H7 H 0.5019 0.8383 0.2708
C11 C 0.41407(19) 0.80693(13) 0.19284(9)
H8 H 0.3373 0.7941 0.2174
C12 C 0.42638(19) 0.79778(13) 0.12382(9)
H9 H 0.3583 0.7785 0.1025
C13 C 0.53539(17) 0.81660(12) 0.08809(8)
H10 H 0.5429 0.8092 0.0420
C14 C 0.63931(17) 0.84736(11) 0.11839(8)
C15 C 0.75342(17) 0.86719(11) 0.08208(8)
C16 C 0.85531(17) 0.89328(12) 0.11487(8)
C17 C 0.97271(18) 0.91232(13) 0.07891(9)
H11 H 0.9813 0.9074 0.0325
C20 C 0.94604(18) 0.93509(12) 0.21437(8)
H14 H 0.9365 0.9466 0.2598
C21 C 0.84201(17) 0.90341(11) 0.18480(8)
C22 C 0.76946(17) 0.85964(12) 0.00978(8)
C29 C 0.6900(2) 0.65357(16) 0.48968(9)
H21 H 0.6030 0.6733 0.5091
C30 C 0.7027(2) 0.64019(17) 0.42298(10)
H22 H 0.6255 0.6505 0.3977
C31 C 0.82891(18) 0.61159(13) 0.39294(8)
C32 C 0.93707(18) 0.59874(13) 0.43260(9)
C33 C 0.91611(18) 0.61437(13) 0.49905(9)
H24 H 0.9917 0.6064 0.5252
C34 C 0.84989(19) 0.59491(13) 0.32222(9)
H25 H 0.9316 0.5566 0.3081
C35 C 0.76131(18) 0.63023(12) 0.27683(8)
H26 H 0.6800 0.6680 0.2920
C36 C 0.77648(18) 0.61680(12) 0.20527(8)
C37 C 0.67175(18) 0.59001(12) 0.17500(8)
C38 C 0.55844(19) 0.56837(13) 0.21351(9)
H27 H 0.5555 0.5703 0.2601
C39 C 0.4551(2) 0.54510(14) 0.18462(10)
H28 H 0.3802 0.5325 0.2109
C40 C 0.4594(2) 0.53966(13) 0.11515(10)
H29 H 0.3865 0.5242 0.0951
C41 C 0.56695(19) 0.55643(13) 0.07700(9)
H30 H 0.5689 0.5506 0.0308
C42 C 0.67728(18) 0.58265(12) 0.10469(8)
C43 C 0.79078(18) 0.59965(11) 0.06613(8)
C44 C 0.89690(17) 0.62416(12) 0.09644(8)
C48 C 0.99369(18) 0.66830(13) 0.19329(9)
H34 H 0.9876 0.6792 0.2388
C49 C 0.88869(17) 0.63496(12) 0.16626(8)
C57 C 0.50701(15) 0.79794(11) 0.63771(7)
C58 C 0.36715(16) 0.78109(11) 0.64014(8)
C59 C 0.25690(16) 0.85255(11) 0.65175(8)
H41 H 0.2698 0.9130 0.6578
C60 C 0.12825(16) 0.83534(11) 0.65446(8)
H42 H 0.0533 0.8840 0.6619
C61 C 0.11020(16) 0.74593(11) 0.64617(8)
C62 C 0.22016(17) 0.67476(12) 0.63454(9)
H43 H 0.2073 0.6142 0.6288
C63 C 0.34864(16) 0.69220(12) 0.63137(9)
H44 H 0.4235 0.6437 0.6232
C65 C 0.69214(19) 0.46901(13) 0.62028(10)
C66 C 0.71338(17) 0.36445(12) 0.62263(9)
C67 C 0.80051(19) 0.30900(13) 0.66589(9)
H45 H 0.8512 0.3366 0.6929
C68 C 0.81425(17) 0.21317(12) 0.67009(9)
H46 H 0.8763 0.1754 0.6988
C69 C 0.73759(17) 0.17265(11) 0.63239(8)
C70 C 0.6536(2) 0.22803(13) 0.58666(10)
H47 H 0.6037 0.2002 0.5594
C71 C 0.6429(2) 0.32354(13) 0.58095(11)
H48 H 0.5880 0.3609 0.5489
C72 C 0.74360(18) 0.07007(11) 0.64192(8)
O9 O 0.87427(11) 0.79189(8) 0.65913(6)
O10 O 0.96023(12) 0.64494(8) 0.64068(6)
N5 N 0.70667(14) 0.89350(9) 0.75598(7)
N6 N 0.73491(14) 0.63930(10) 0.74072(7)
H15 H 0.8485 0.8210 0.9931
C23 C 0.68086(18) 0.90324(12) 0.96643(8)
H16 H 0.6023 0.9418 0.9838
C24 C 0.59338(18) 0.93173(12) 0.78875(8)
H17 H 0.5168 0.9572 0.7642
C25 C 0.58289(19) 0.93572(13) 0.85681(9)
H18 H 0.5009 0.9644 0.8777
C26 C 0.69284(18) 0.89750(11) 0.89460(8)
C27 C 0.81003(17) 0.85642(12) 0.86026(8)
H19 H 0.8873 0.8285 0.8836
C28 C 0.81298(17) 0.85661(12) 0.79222(8)
H20 H 0.8941 0.8294 0.7699
C50 C 0.80107(18) 0.59358(12) 0.99364(8)
H35 H 0.8777 0.5539 0.9755
C51 C 0.71086(18) 0.63960(12) 0.95178(8)
H36 H 0.6325 0.6771 0.9702
C52 C 0.62832(17) 0.68609(12) 0.77396(8)
H37 H 0.5557 0.7202 0.7496
C53 C 0.61883(17) 0.68722(12) 0.84220(8)
H38 H 0.5416 0.7222 0.8634
C54 C 0.72289(17) 0.63691(11) 0.87959(8)
C55 C 0.83273(18) 0.58627(13) 0.84494(8)
H39 H 0.9055 0.5497 0.8680
C56 C 0.83443(18) 0.58996(12) 0.77667(8)
H40 H 0.9103 0.5556 0.7540
C64 C 0.97166(16) 0.72677(11) 0.64878(7)
O3 O 0.12573(11) 0.20811(8) 0.34087(6)
O4 O 0.03977(12) 0.35506(8) 0.35932(6)
C64_2 C 0.02834(16) 0.27323(11) 0.35122(7)
Zn3 Zn 0.28678(2) 0.09825(2) 0.35021(2)
Zn6 Zn 0.23402(2) 0.36443(2) 0.36638(2)
N2 N 0.29333(14) 0.10650(9) 0.24402(7)
N4 N 0.26509(14) 0.36070(10) 0.25928(7)
H15_2 H 0.1515 0.1790 0.0069
C23_2 C 0.31914(18) 0.09676(12) 0.03357(8)
H16_2 H 0.3977 0.0582 0.0162
C24_2 C 0.40662(18) 0.06827(12) 0.21125(8)
H17_2 H 0.4832 0.0428 0.2358
C25_2 C 0.41711(19) 0.06428(13) 0.14319(9)
H18_2 H 0.4991 0.0356 0.1223
C26_2 C 0.30716(18) 0.10250(11) 0.10540(8)
C27_2 C 0.18997(17) 0.14358(12) 0.13974(8)
H19_2 H 0.1127 0.1715 0.1164
C28_2 C 0.18702(17) 0.14339(12) 0.20778(8)
H20_2 H 0.1059 0.1706 0.2301
C50_2 C 0.19893(18) 0.40642(12) 0.00636(8)
H35_2 H 0.1223 0.4461 0.0245
C51_2 C 0.28914(18) 0.36040(12) 0.04822(8)
H36_2 H 0.3675 0.3229 0.0298
C52_2 C 0.37168(17) 0.31391(12) 0.22604(8)
H37_2 H 0.4443 0.2798 0.2504
C53_2 C 0.38117(17) 0.31278(12) 0.15780(8)
H38_2 H 0.4584 0.2778 0.1366
C54_2 C 0.27711(17) 0.36309(11) 0.12041(8)
C55_2 C 0.16727(18) 0.41373(13) 0.15506(8)
H39_2 H 0.0945 0.4503 0.1320
C56_2 C 0.16557(18) 0.41004(12) 0.22333(8)
H40_2 H 0.0897 0.4444 0.2460
O1_2 O 0.47689(11) 0.12428(8) 0.34650(6)
O2_2 O 0.40055(11) 0.26670(8) 0.37983(6)
O5_2 O 0.21490(14) 0.50071(9) 0.35461(6)
O6_2 O 0.40841(15) 0.48268(10) 0.40431(10)
O7 O 0.36491(13) 0.95692(8) 0.36321(6)
O8 O 0.14956(13) 0.98455(9) 0.34495(7)
N1_2 N 0.25347(14) 0.10526(10) 0.45390(7)
N3_2 N 0.20579(15) 0.35983(10) 0.47172(7)
C1_2 C 0.35926(17) 0.09118(12) 0.49190(8)
H1_2 H 0.4459 0.0744 0.4714
C2_2 C 0.34894(17) 0.09984(12) 0.55933(8)
H2_2 H 0.4268 0.0884 0.5842
C3_2 C 0.22267(17) 0.12555(12) 0.59037(8)
C4_2 C 0.11227(17) 0.13840(13) 0.55121(8)
H3_2 H 0.0244 0.1549 0.5704
C5_2 C 0.13187(17) 0.12687(13) 0.48412(8)
H4_2 H 0.0558 0.1346 0.4584
C6_2 C 0.20204(18) 0.13922(12) 0.66149(8)
H5_2 H 0.1186 0.1747 0.6763
C7_2 C 0.29225(18) 0.10531(12) 0.70663(8)
H6_2 H 0.3764 0.0715 0.6912
C8_2 C 0.27236(17) 0.11589(11) 0.77849(8)
C9_2 C 0.37317(17) 0.14407(11) 0.81140(8)
C10_2 C 0.48895(18) 0.16608(12) 0.77568(8)
H7_2 H 0.4981 0.1617 0.7292
C11_2 C 0.58593(19) 0.19307(13) 0.80716(9)
H8_2 H 0.6627 0.2059 0.7826
C12_2 C 0.57362(19) 0.20222(13) 0.87618(9)
H9_2 H 0.6417 0.2215 0.8975
C13_2 C 0.46461(17) 0.18340(12) 0.91191(8)
H10_2 H 0.4571 0.1908 0.9580
C14_2 C 0.36069(17) 0.15264(11) 0.88161(8)
C15_2 C 0.24658(17) 0.13281(11) 0.91792(8)
C16_2 C 0.14469(17) 0.10672(12) 0.88513(8)
C17_2 C 0.02729(18) 0.08768(13) 0.92109(9)
H11_2 H 0.0187 0.0926 0.9675
C20_2 C 0.05396(18) 0.06491(12) 0.78563(8)
H14_2 H 0.0635 0.0534 0.7402
C21_2 C 0.15799(17) 0.09659(11) 0.81520(8)
C22_2 C 0.23054(17) 0.14036(12) 0.99022(8)
C29_2 C 0.3100(2) 0.34643(16) 0.51032(9)
H21_2 H 0.3970 0.3267 0.4909
C30_2 C 0.2973(2) 0.35981(17) 0.57702(10)
H22_2 H 0.3745 0.3495 0.6023
C31_2 C 0.17109(18) 0.38841(13) 0.60706(8)
C32_2 C 0.06293(18) 0.40126(13) 0.56740(9)
C33_2 C 0.08389(18) 0.38563(13) 0.50095(9)
H24_2 H 0.0083 0.3936 0.4748
C34_2 C 0.15011(19) 0.40509(13) 0.67778(9)
H25_2 H 0.0684 0.4434 0.6919
C35_2 C 0.23869(18) 0.36977(12) 0.72317(8)
H26_2 H 0.3200 0.3320 0.7080
C36_2 C 0.22352(18) 0.38320(12) 0.79473(8)
C37_2 C 0.32825(18) 0.40999(12) 0.82500(8)
C38_2 C 0.44156(19) 0.43163(13) 0.78649(9)
H27_2 H 0.4445 0.4297 0.7399
C39_2 C 0.5449(2) 0.45490(14) 0.81538(10)
H28_2 H 0.6198 0.4675 0.7891
C40_2 C 0.5406(2) 0.46034(13) 0.88485(10)
H29_2 H 0.6135 0.4758 0.9049
C41_2 C 0.43305(19) 0.44357(13) 0.92300(9)
H30_2 H 0.4311 0.4494 0.9692
C42_2 C 0.32272(18) 0.41735(12) 0.89531(8)
C43_2 C 0.20922(18) 0.40035(11) 0.93387(8)
C44_2 C 0.10310(17) 0.37584(12) 0.90356(8)
C48_2 C 0.00631(18) 0.33170(13) 0.80671(9)
H34_2 H 0.0124 0.3208 0.7612
C49_2 C 0.11131(17) 0.36504(12) 0.83374(8)
C57_2 C 0.49299(15) 0.20206(11) 0.36229(7)
C58_2 C 0.63285(16) 0.21891(11) 0.35986(8)
C59_2 C 0.74310(16) 0.14745(11) 0.34825(8)
H41_2 H 0.7302 0.0870 0.3422
C60_2 C 0.87175(16) 0.16466(11) 0.34554(8)
H42_2 H 0.9467 0.1160 0.3381
C61_2 C 0.88980(16) 0.25407(11) 0.35383(8)
C62_2 C 0.77984(17) 0.32524(12) 0.36546(9)
H43_2 H 0.7927 0.3858 0.3712
C63_2 C 0.65136(16) 0.30780(12) 0.36863(9)
H44_2 H 0.5765 0.3563 0.3768
C65_2 C 0.30786(19) 0.53099(13) 0.37972(10)
C66_2 C 0.28662(17) 0.63555(12) 0.37737(9)
C67_2 C 0.19949(19) 0.69100(13) 0.33411(9)
H45_2 H 0.1488 0.6634 0.3071
C68_2 C 0.18575(17) 0.78683(12) 0.32991(9)
H46_2 H 0.1237 0.8246 0.3012
C69_2 C 0.26241(17) 0.82735(11) 0.36761(8)
C70_2 C 0.3464(2) 0.77197(13) 0.41334(10)
H47_2 H 0.3963 0.7998 0.4406
C71_2 C 0.3571(2) 0.67646(13) 0.41905(11)
H48_2 H 0.4120 0.6391 0.4511
C72_2 C 0.25640(18) 0.92993(11) 0.35808(8)
C18_2 C 0.92767(19) 0.06264(14) 0.89007(9)
H12_2 H 0.8490 0.0530 0.9145
C19_2 C 0.94183(19) 0.05101(13) 0.82123(9)
H13_2 H 0.8724 0.0334 0.7998
H23_2 H 0.9748 0.4207 0.5856
C45_2 C 0.98791(18) 0.35667(12) 0.94139(8)
H31_2 H 0.9811 0.3636 0.9875
C46_2 C 0.88775(19) 0.32868(13) 0.91279(9)
H32_2 H 0.8112 0.3182 0.9387
C47_2 C 0.89811(19) 0.31518(14) 0.84428(9)
H33_2 H 0.8292 0.2945 0.8246
loop_
_geom_bond_atom_site_label_1
_geom_bond_atom_site_label_2
_geom_bond_site_symmetry_1
_geom_bond_site_symmetry_2
H12 C18 1_555 1_555
C19 C18 1_555 1_555
H13 C19 1_555 1_555
H31 C45 1_555 1_555
C46 C45 1_555 1_555
H32 C46 1_555 1_555
C47 C46 1_555 1_555
H33 C47 1_555 1_555
Zn1 O1 1_555 1_555
Zn2 O2 1_555 1_555
O1 C57 1_555 1_555
O2 C57 1_555 1_555
O5 Zn2 1_555 1_555
O6 C65 1_555 1_555
O11 C72 1_555 1_555
O12 C72 1_555 1_555
N1 Zn1 1_555 1_555
N3 Zn2 1_555 1_555
C1 N1 1_555 1_555
H1 C1 1_555 1_555
C2 C1 1_555 1_555
H2 C2 1_555 1_555
C3 C2 1_555 1_555
C4 C3 1_555 1_555
H3 C4 1_555 1_555
C5 N1 1_555 1_555
H4 C5 1_555 1_555
C6 C3 1_555 1_555
H5 C6 1_555 1_555
C7 C6 1_555 1_555
H6 C7 1_555 1_555
C8 C7 1_555 1_555
C9 C8 1_555 1_555
C10 C9 1_555 1_555
H7 C10 1_555 1_555
C11 C10 1_555 1_555
H8 C11 1_555 1_555
C12 C11 1_555 1_555
H9 C12 1_555 1_555
C13 C12 1_555 1_555
H10 C13 1_555 1_555
C14 C9 1_555 1_555
C15 C14 1_555 1_555
C16 C15 1_555 1_555
C17 C16 1_555 1_555
H11 C17 1_555 1_555
H14 C20 1_555 1_555
C21 C8 1_555 1_555
C22 C15 1_555 1_555
C29 N3 1_555 1_555
H21 C29 1_555 1_555
C30 C29 1_555 1_555
H22 C30 1_555 1_555
C31 C30 1_555 1_555
C32 C31 1_555 1_555
C33 N3 1_555 1_555
H24 C33 1_555 1_555
C34 C31 1_555 1_555
H25 C34 1_555 1_555
C35 C34 1_555 1_555
H26 C35 1_555 1_555
C36 C35 1_555 1_555
C37 C36 1_555 1_555
C38 C37 1_555 1_555
H27 C38 1_555 1_555
C39 C38 1_555 1_555
H28 C39 1_555 1_555
C40 C39 1_555 1_555
H29 C40 1_555 1_555
C41 C40 1_555 1_555
H30 C41 1_555 1_555
C42 C37 1_555 1_555
C43 C42 1_555 1_555
C44 C43 1_555 1_555
H34 C48 1_555 1_555
C49 C36 1_555 1_555
C57 C58 1_555 1_555
C58 C59 1_555 1_555
C59 H41 1_555 1_555
C60 C59 1_555 1_555
H42 C60 1_555 1_555
C61 C60 1_555 1_555
C62 C61 1_555 1_555
H43 C62 1_555 1_555
C63 C58 1_555 1_555
H44 C63 1_555 1_555
C65 O5 1_555 1_555
C66 C65 1_555 1_555
C67 C66 1_555 1_555
H45 C67 1_555 1_555
C68 C67 1_555 1_555
H46 C68 1_555 1_555
C69 C68 1_555 1_555
C70 C69 1_555 1_555
H47 C70 1_555 1_555
C71 C66 1_555 1_555
H48 C71 1_555 1_555
C72 C69 1_555 1_555
O9 Zn1 1_555 1_555
O10 Zn2 1_555 1_555
N5 Zn1 1_555 1_555
N6 Zn2 1_555 1_555
C4 C5 1_555 1_555
C13 C14 1_555 1_555
C16 C21 1_555 1_555
C20 C21 1_555 1_555
C32 C33 1_555 1_555
C41 C42 1_555 1_555
C44 C49 1_555 1_555
C48 C49 1_555 1_555
C62 C63 1_555 1_555
C70 C71 1_555 1_555
N5 C24 1_555 1_555
N6 C52 1_555 1_555
H16 C23 1_555 1_555
C24 H17 1_555 1_555
C25 C24 1_555 1_555
H18 C25 1_555 1_555
C26 C23 1_555 1_555
C27 C26 1_555 1_555
H19 C27 1_555 1_555
C28 N5 1_555 1_555
H20 C28 1_555 1_555
H35 C50 1_555 1_555
C51 C50 1_555 1_555
H36 C51 1_555 1_555
C52 H37 1_555 1_555
C53 C52 1_555 1_555
H38 C53 1_555 1_555
C54 C51 1_555 1_555
C55 C54 1_555 1_555
H39 C55 1_555 1_555
C56 N6 1_555 1_555
H40 C56 1_555 1_555
C25 C26 1_555 1_555
C27 C28 1_555 1_555
C53 C54 1_555 1_555
C55 C56 1_555 1_555
O9 C64 1_555 1_555
O10 C64 1_555 1_555
O3 C64_2 1_555 1_555
O4 C64_2 1_555 1_555
Zn3 O3 1_555 1_555
Zn6 O4 1_555 1_555
N2 C24_2 1_555 1_555
N4 C52_2 1_555 1_555
H16_2 C23_2 1_555 1_555
C24_2 H17_2 1_555 1_555
C25_2 C24_2 1_555 1_555
H18_2 C25_2 1_555 1_555
C26_2 C23_2 1_555 1_555
C27_2 C26_2 1_555 1_555
H19_2 C27_2 1_555 1_555
C28_2 N2 1_555 1_555
H20_2 C28_2 1_555 1_555
H35_2 C50_2 1_555 1_555
C51_2 C50_2 1_555 1_555
H36_2 C51_2 1_555 1_555
C52_2 H37_2 1_555 1_555
C53_2 C52_2 1_555 1_555
H38_2 C53_2 1_555 1_555
C54_2 C51_2 1_555 1_555
C55_2 C54_2 1_555 1_555
H39_2 C55_2 1_555 1_555
C56_2 N4 1_555 1_555
H40_2 C56_2 1_555 1_555
Zn3 N2 1_555 1_555
Zn6 N4 1_555 1_555
C25_2 C26_2 1_555 1_555
C27_2 C28_2 1_555 1_555
C53_2 C54_2 1_555 1_555
C55_2 C56_2 1_555 1_555
Zn3 O1_2 1_555 1_555
Zn6 O2_2 1_555 1_555
O1_2 C57_2 1_555 1_555
O2_2 C57_2 1_555 1_555
O5_2 Zn6 1_555 1_555
O6_2 C65_2 1_555 1_555
O7 C72_2 1_555 1_555
O8 C72_2 1_555 1_555
N1_2 Zn3 1_555 1_555
N3_2 Zn6 1_555 1_555
C1_2 N1_2 1_555 1_555
H1_2 C1_2 1_555 1_555
C2_2 C1_2 1_555 1_555
H2_2 C2_2 1_555 1_555
C3_2 C2_2 1_555 1_555
C4_2 C3_2 1_555 1_555
H3_2 C4_2 1_555 1_555
C5_2 N1_2 1_555 1_555
H4_2 C5_2 1_555 1_555
C6_2 C3_2 1_555 1_555
H5_2 C6_2 1_555 1_555
C7_2 C6_2 1_555 1_555
H6_2 C7_2 1_555 1_555
C8_2 C7_2 1_555 1_555
C9_2 C8_2 1_555 1_555
C10_2 C9_2 1_555 1_555
H7_2 C10_2 1_555 1_555
C11_2 C10_2 1_555 1_555
H8_2 C11_2 1_555 1_555
C12_2 C11_2 1_555 1_555
H9_2 C12_2 1_555 1_555
C13_2 C12_2 1_555 1_555
H10_2 C13_2 1_555 1_555
C14_2 C9_2 1_555 1_555
C15_2 C14_2 1_555 1_555
C16_2 C15_2 1_555 1_555
C17_2 C16_2 1_555 1_555
H11_2 C17_2 1_555 1_555
H14_2 C20_2 1_555 1_555
C21_2 C8_2 1_555 1_555
C22_2 C15_2 1_555 1_555
C29_2 N3_2 1_555 1_555
H21_2 C29_2 1_555 1_555
C30_2 C29_2 1_555 1_555
H22_2 C30_2 1_555 1_555
C31_2 C30_2 1_555 1_555
C32_2 C31_2 1_555 1_555
C33_2 N3_2 1_555 1_555
H24_2 C33_2 1_555 1_555
C34_2 C31_2 1_555 1_555
H25_2 C34_2 1_555 1_555
C35_2 C34_2 1_555 1_555
H26_2 C35_2 1_555 1_555
C36_2 C35_2 1_555 1_555
C37_2 C36_2 1_555 1_555
C38_2 C37_2 1_555 1_555
H27_2 C38_2 1_555 1_555
C39_2 C38_2 1_555 1_555
H28_2 C39_2 1_555 1_555
C40_2 C39_2 1_555 1_555
H29_2 C40_2 1_555 1_555
C41_2 C40_2 1_555 1_555
H30_2 C41_2 1_555 1_555
C42_2 C37_2 1_555 1_555
C43_2 C42_2 1_555 1_555
C44_2 C43_2 1_555 1_555
H34_2 C48_2 1_555 1_555
C49_2 C36_2 1_555 1_555
C57_2 C58_2 1_555 1_555
C58_2 C59_2 1_555 1_555
C59_2 H41_2 1_555 1_555
C60_2 C59_2 1_555 1_555
H42_2 C60_2 1_555 1_555
C61_2 C60_2 1_555 1_555
C62_2 C61_2 1_555 1_555
H43_2 C62_2 1_555 1_555
C63_2 C58_2 1_555 1_555
H44_2 C63_2 1_555 1_555
C65_2 O5_2 1_555 1_555
C66_2 C65_2 1_555 1_555
C67_2 C66_2 1_555 1_555
H45_2 C67_2 1_555 1_555
C68_2 C67_2 1_555 1_555
H46_2 C68_2 1_555 1_555
C69_2 C68_2 1_555 1_555
C70_2 C69_2 1_555 1_555
H47_2 C70_2 1_555 1_555
C71_2 C66_2 1_555 1_555
H48_2 C71_2 1_555 1_555
C72_2 C69_2 1_555 1_555
C4_2 C5_2 1_555 1_555
C13_2 C14_2 1_555 1_555
C16_2 C21_2 1_555 1_555
C20_2 C21_2 1_555 1_555
C32_2 C33_2 1_555 1_555
C41_2 C42_2 1_555 1_555
C44_2 C49_2 1_555 1_555
C48_2 C49_2 1_555 1_555
C62_2 C63_2 1_555 1_555
C70_2 C71_2 1_555 1_555
H12_2 C18_2 1_555 1_555
C19_2 C18_2 1_555 1_555
H13_2 C19_2 1_555 1_555
H31_2 C45_2 1_555 1_555
C46_2 C45_2 1_555 1_555
H32_2 C46_2 1_555 1_555
C47_2 C46_2 1_555 1_555
H33_2 C47_2 1_555 1_555

#END
