
###############################################################################
#
# This file contains modified crystal structure data generated from the
# MOF subset of the Cambridge Structural Database (CSD) v543 
# hosted by the Cambridge Crystallographic Data Centre (CCDC).
#
# This work is licensed under the Creative Commons
# Attribution-NonCommercial-ShareAlike 4.0 International License.
# To view a copy of this license, visit
# http://creativecommons.org/licenses/by-nc-sa/4.0/
# or send a letter to
# Creative Commons, PO Box 1866, Mountain View, CA 94042, USA.
#
# CIF created using the CSD Python API on 29 September 2022
# The structure has been converted into the P1 space group
# The structure has a 3D framework
# The original CSD entry VAZJAK is in the monoclinic crystal system
# The framework has been calculated to contain at least 10.0% void space
# The void calculation uses a probe of radius 1.32A, grid spacing 0.4
# H atom positions have been added when not included in the experimental data
#
###############################################################################

data_VAZJAK
_chemical_formula_moiety         '(C116 H80 N8 O22 Zn4)n'
_symmetry_cell_setting           triclinic
_symmetry_space_group_name_H-M   'P 1'
_symmetry_Int_Tables_number      1
_space_group_name_Hall           'P 1'
loop_
_symmetry_equiv_pos_site_id
_symmetry_equiv_pos_as_xyz
1 x,y,z
_cell_length_a                   20.1931(9)
_cell_length_b                   9.9746(4)
_cell_length_c                   16.5025(6)
_cell_angle_alpha                90
_cell_angle_beta                 94.952(2)
_cell_angle_gamma                90
_cell_volume                     3311.5
loop_
_atom_site_label
_atom_site_type_symbol
_atom_site_fract_x
_atom_site_fract_y
_atom_site_fract_z
O3 O 0.3476(3) 0.2865(5) 0.0116(3)
C3 C 0.3447(5) 0.1923(8) 0.0609(5)
O5 O 0.3427(4) 0.0691(6) 0.0406(3)
C6 C 0.3431(5) 0.2205(7) 0.1490(5)
C8 C 0.3427(5) 0.1134(7) 0.2041(5)
C9 C 0.3418(4) 0.3522(8) 0.1767(4)
C11 C 0.3409(5) 0.1390(8) 0.2868(5)
H5 H 0.3437 0.0237 0.1850
C12 C 0.3397(5) 0.3763(7) 0.2598(5)
H6 H 0.3423 0.4248 0.1395
C14 C 0.3411(6) 0.0232(8) 0.3437(5)
C15 C 0.3385(5) 0.2680(8) 0.3136(5)
C16 C 0.3372(5) 0.5156(7) 0.2918(5)
O6 O 0.3503(5) 0.0579(7) 0.4187(4)
H9 H 0.3359 0.2847 0.3699
O8 O 0.3334(3) 0.6154(5) 0.2457(4)
O9 O 0.3419(3) 0.5325(5) 0.3683(3)
Zn3 Zn 0.34228(4) 0.72751(7) 0.38846(4)
H39 H 0.314222 0.119624 0.43205
Zn1 Zn 0.34228(4) 0.27249(7) 0.88846(4)
O1 O 0.3419(3) 0.4675(5) 0.8683(3)
O2 O 0.3334(3) 0.3846(5) 0.7457(4)
N1 N 0.2364(4) 0.2568(10) 0.8816(5)
O4 O 0.3370(3) 0.0901(5) 0.8230(3)
N2 N 0.4477(4) 0.2523(7) 0.8858(4)
C1 C 0.2022(6) 0.2369(13) 0.9418(7)
C2 C 0.2016(5) 0.2667(13) 0.8066(6)
H1 H 0.2258 0.2188 0.9929
C4 C 0.1328(6) 0.2393(15) 0.9392(8)
C5 C 0.1331(6) 0.2652(14) 0.7973(7)
H2 H 0.2254 0.2748 0.7597
H3 H 0.1109 0.2308 0.9877
C7 C 0.0963(7) 0.2543(17) 0.8643(8)
H4 H 0.1108 0.2718 0.7444
C10 C 0.0230(7) 0.2623(17) 0.8538(9)
H7 H 0.0027 0.2746 0.8002
H8 H 0.0058 0.2428 0.9659
O7 O 0.3370(3) 0.9099(5) 0.3230(3)
C13 C 0.9840(6) 0.2536(16) 0.9129(9)
C17 C 0.9131(7) 0.2580(18) 0.9088(9)
C18 C 0.8841(7) 0.2377(18) 0.9806(9)
C19 C 0.8725(6) 0.2709(16) 0.8399(8)
C20 C 0.8159(7) 0.2405(17) 0.9842(9)
C21 C 0.8032(6) 0.2734(15) 0.8438(8)
H11 H 0.8906 0.2782 0.7889
C22 C 0.7738(7) 0.2612(16) 0.9160(9)
H13 H 0.7755 0.2840 0.7947
C23 C 0.7015(6) 0.2562(14) 0.9204(7)
H14 H 0.6869 0.2560 0.9736
C24 C 0.6571(5) 0.2523(10) 0.8634(6)
H15 H 0.6711 0.2498 0.8100
C25 C 0.5830(5) 0.2510(9) 0.8705(6)
C26 C 0.5579(5) 0.2304(9) 0.9449(6)
C27 C 0.5402(5) 0.2648(9) 0.8032(6)
C28 C 0.4891(5) 0.2319(9) 0.9488(5)
H16 H 0.5869 0.2155 0.9925
H17 H 0.5563 0.2739 0.7511
C29 C 0.4721(5) 0.2656(9) 0.8116(5)
H18 H 0.4720 0.2174 0.9999
H19 H 0.4419 0.2757 0.7645
N1_2 N 0.2364(4) 0.7432(10) 0.3816(5)
O3_2 O 0.3476(3) 0.7135(5) 0.5116(3)
N2_2 N 0.4477(4) 0.7477(7) 0.3858(4)
C1_2 C 0.2022(6) 0.7631(13) 0.4418(7)
C2_2 C 0.2016(5) 0.7333(13) 0.3066(6)
C3_2 C 0.3447(5) 0.8077(8) 0.5609(5)
H1_2 H 0.2258 0.7812 0.4929
C4_2 C 0.1328(6) 0.7607(15) 0.4392(8)
C5_2 C 0.1331(6) 0.7348(14) 0.2973(7)
H2_2 H 0.2254 0.7252 0.2597
O5_2 O 0.3427(4) 0.9309(6) 0.5406(3)
C6_2 C 0.3431(5) 0.7795(7) 0.6490(5)
H3_2 H 0.1109 0.7692 0.4877
C7_2 C 0.0963(7) 0.7457(17) 0.3643(8)
H4_2 H 0.1108 0.7282 0.2444
C8_2 C 0.3427(5) 0.8866(7) 0.7041(5)
C9_2 C 0.3418(4) 0.6478(8) 0.6767(4)
C10_2 C 0.0230(7) 0.7377(17) 0.3538(9)
C11_2 C 0.3409(5) 0.8610(8) 0.7868(5)
H5_2 H 0.3437 0.9763 0.6850
C12_2 C 0.3397(5) 0.6237(7) 0.7598(5)
H6_2 H 0.3423 0.5752 0.6395
H7_2 H 0.0027 0.7254 0.3002
C14_2 C 0.3411(6) 0.9768(8) 0.8437(5)
C15_2 C 0.3385(5) 0.7320(8) 0.8136(5)
C16_2 C 0.3372(5) 0.4844(7) 0.7918(5)
H8_2 H 0.0058 0.7572 0.4659
O6_2 O 0.3503(5) 0.9421(7) 0.9187(4)
H9_2 H 0.3359 0.7153 0.8699
H39_2 H 0.314222 0.880376 0.93205
C13_2 C 0.9840(6) 0.7464(16) 0.4129(9)
C17_2 C 0.9131(7) 0.7420(18) 0.4088(9)
C18_2 C 0.8841(7) 0.7623(18) 0.4806(9)
C19_2 C 0.8725(6) 0.7291(16) 0.3399(8)
H10 H 0.9118 0.7787 0.5290
C20_2 C 0.8159(7) 0.7595(17) 0.4842(9)
C21_2 C 0.8032(6) 0.7266(15) 0.3438(8)
H11_2 H 0.8906 0.7218 0.2889
H12 H 0.7981 0.7722 0.5351
C22_2 C 0.7738(7) 0.7388(16) 0.4160(9)
H13_2 H 0.7755 0.7160 0.2947
C23_2 C 0.7015(6) 0.7438(14) 0.4204(7)
H14_2 H 0.6869 0.7440 0.4736
C24_2 C 0.6571(5) 0.7477(10) 0.3634(6)
H15_2 H 0.6711 0.7502 0.3100
C25_2 C 0.5830(5) 0.7490(9) 0.3705(6)
C26_2 C 0.5579(5) 0.7696(9) 0.4449(6)
C27_2 C 0.5402(5) 0.7352(9) 0.3032(6)
C28_2 C 0.4891(5) 0.7681(9) 0.4488(5)
H16_2 H 0.5869 0.7845 0.4925
H17_2 H 0.5563 0.7261 0.2511
C29_2 C 0.4721(5) 0.7344(9) 0.3116(5)
H18_2 H 0.4720 0.7826 0.4999
H19_2 H 0.4419 0.7243 0.2645
H10_2 H 0.9118 0.2213 0.0290
H12_2 H 0.7981 0.2278 0.0351
C35 C 0.0043(10) 0.2432(19) 0.5860(13)
H24 H 0.0246 0.1602 0.6017
C36 C 0.0344(8) 0.3428(17) 0.5598(10)
H25 H 0.0151 0.4257 0.5420
C37 C 0.1140(10) 0.302(2) 0.5621(9)
C38 C 0.1514(14) 0.410(3) 0.5470(13)
H26 H 0.1320 0.4964 0.5411
C39 C 0.2228(12) 0.389(2) 0.5399(14)
H27 H 0.2482 0.4593 0.5184
C40 C 0.2536(14) 0.271(2) 0.5638(15)
C41 C 0.2133(10) 0.167(2) 0.5781(13)
H28 H 0.2353 0.0845 0.5912
C42 C 0.1429(11) 0.163(2) 0.5764(15)
H29 H 0.1175 0.0843 0.5832
C43 C 0.3232(11) 0.2576(19) 0.5636(12)
H30 H 0.3409 0.1742 0.5832
C44 C 0.3669(8) 0.3431(16) 0.5405(9)
H31 H 0.3502 0.4244 0.5168
N5 N 0.5773(13) 0.282(2) 0.5673(12)
C45 C 0.5356(12) 0.1914(19) 0.5842(12)
H32 H 0.5536 0.1082 0.6036
C46 C 0.4698(10) 0.2024(16) 0.5772(11)
H33 H 0.4428 0.1298 0.5917
C47 C 0.4403(9) 0.3254(18) 0.5477(9)
C48 C 0.4816(8) 0.4256(16) 0.5269(10)
H34 H 0.4633 0.5081 0.5067
C49 C 0.5534(9) 0.4073(17) 0.5353(10)
H35 H 0.5827 0.4756 0.5202
Zn7 Zn 0.68333(4) 0.29125(7) 0.59249(4)
O10 O 0.686(2) 0.119(2) 0.6667(14)
N4 N 0.7870(7) 0.2895(12) 0.5896(9)
C30 C 0.8179(8) 0.3849(16) 0.5524(10)
H20 H 0.7929 0.4569 0.5275
C31 C 0.8892(8) 0.3823(18) 0.5487(11)
H21 H 0.9112 0.4490 0.5198
C32 C 0.9247(11) 0.2779(19) 0.5890(14)
C33 C 0.8954(9) 0.176(2) 0.6140(12)
H22 H 0.9193 0.0951 0.6260
C34 C 0.8252(8) 0.1830(17) 0.6241(11)
H23 H 0.8048 0.1157 0.6542
C50 C 0.6787(10) 0.006(2) 0.6353(10)
O16 O 0.682(2) 0.276(3) 0.459(2)
O17 O 0.6851(3) 0.4089(5) 0.7081(3)
O18 O 0.6865(3) 0.5080(5) 0.5900(3)
Zn8 Zn 0.68333(4) 0.70875(7) 0.09249(4)
O11 O 0.6713(7) 0.9804(10) 0.5599(7)
O12 O 0.7241(6) 0.9215(9) 0.9370(6)
O13 O 0.682(2) 0.724(3) 0.959(2)
C51 C 0.6884(5) 0.8857(7) 0.6917(5)
C52 C 0.6899(5) 0.9019(8) 0.7731(5)
H36 H 0.6901 0.9891 0.7963
C53 C 0.6912(6) 0.7879(8) 0.8226(6)
C54 C 0.6899(5) 0.6615(8) 0.7893(5)
H37 H 0.6891 0.5846 0.8232
C55 C 0.6897(5) 0.6475(8) 0.7054(5)
C56 C 0.6873(5) 0.7587(8) 0.6573(5)
H38 H 0.6850 0.7492 0.5998
C57 C 0.7003(9) 0.8105(14) 0.9129(10)
C58 C 0.6853(5) 0.5100(7) 0.6654(5)
H40 H 0.764853 0.906259 0.97398
C35_2 C 0.0043(10) 0.7568(19) 0.0860(13)
H24_2 H 0.0246 0.8398 0.1017
C36_2 C 0.0344(8) 0.6572(17) 0.0598(10)
H25_2 H 0.0151 0.5743 0.0420
C37_2 C 0.1140(10) 0.698(2) 0.0621(9)
C38_2 C 0.1514(14) 0.590(3) 0.0470(13)
H26_2 H 0.1320 0.5036 0.0411
C39_2 C 0.2228(12) 0.611(2) 0.0399(14)
H27_2 H 0.2482 0.5407 0.0184
C40_2 C 0.2536(14) 0.729(2) 0.0638(15)
C41_2 C 0.2133(10) 0.833(2) 0.0781(13)
H28_2 H 0.2353 0.9155 0.0912
C42_2 C 0.1429(11) 0.837(2) 0.0764(15)
H29_2 H 0.1175 0.9157 0.0832
C43_2 C 0.3232(11) 0.7424(19) 0.0636(12)
H30_2 H 0.3409 0.8258 0.0832
C44_2 C 0.3669(8) 0.6569(16) 0.0405(9)
H31_2 H 0.3502 0.5756 0.0168
N5_2 N 0.5773(13) 0.718(2) 0.0673(12)
C45_2 C 0.5356(12) 0.8086(19) 0.0842(12)
H32_2 H 0.5536 0.8918 0.1036
C46_2 C 0.4698(10) 0.7976(16) 0.0772(11)
H33_2 H 0.4428 0.8702 0.0917
C47_2 C 0.4403(9) 0.6746(18) 0.0477(9)
C48_2 C 0.4816(8) 0.5744(16) 0.0269(10)
H34_2 H 0.4633 0.4919 0.0067
C49_2 C 0.5534(9) 0.5927(17) 0.0353(10)
H35_2 H 0.5827 0.5244 0.0202
O11_2 O 0.6713(7) 0.0196(10) 0.0599(7)
O12_2 O 0.7241(6) 0.0785(9) 0.4370(6)
O14 O 0.6851(3) 0.5911(5) 0.2081(3)
O15 O 0.6865(3) 0.4920(5) 0.0900(3)
C51_2 C 0.6884(5) 0.1143(7) 0.1917(5)
C52_2 C 0.6899(5) 0.0981(8) 0.2731(5)
H36_2 H 0.6901 0.0109 0.2963
C53_2 C 0.6912(6) 0.2121(8) 0.3226(6)
C54_2 C 0.6899(5) 0.3385(8) 0.2893(5)
H37_2 H 0.6891 0.4154 0.3232
C55_2 C 0.6897(5) 0.3525(8) 0.2054(5)
C56_2 C 0.6873(5) 0.2413(8) 0.1573(5)
H38_2 H 0.6850 0.2508 0.0998
C57_2 C 0.7003(9) 0.1895(14) 0.4129(10)
C58_2 C 0.6853(5) 0.4900(7) 0.1654(5)
H40_2 H 0.764853 0.0937407 0.47398
O10_2 O 0.686(2) 0.881(2) 0.1667(14)
N4_2 N 0.7870(7) 0.7105(12) 0.0896(9)
C30_2 C 0.8179(8) 0.6151(16) 0.0524(10)
H20_2 H 0.7929 0.5431 0.0275
C31_2 C 0.8892(8) 0.6177(18) 0.0487(11)
H21_2 H 0.9112 0.5510 0.0198
C32_2 C 0.9247(11) 0.7221(19) 0.0890(14)
C33_2 C 0.8954(9) 0.824(2) 0.1140(12)
H22_2 H 0.9193 0.9049 0.1260
C34_2 C 0.8252(8) 0.8170(17) 0.1241(11)
H23_2 H 0.8048 0.8843 0.1542
C50_2 C 0.6787(10) 0.994(2) 0.1353(10)
loop_
_geom_bond_atom_site_label_1
_geom_bond_atom_site_label_2
_geom_bond_site_symmetry_1
_geom_bond_site_symmetry_2
C3 O3 1_555 1_555
O5 C3 1_555 1_555
C6 C3 1_555 1_555
C8 C6 1_555 1_555
C9 C6 1_555 1_555
C11 C8 1_555 1_555
H5 C8 1_555 1_555
C12 C9 1_555 1_555
H6 C9 1_555 1_555
C14 C11 1_555 1_555
C15 C11 1_555 1_555
C16 C12 1_555 1_555
O6 C14 1_555 1_555
H9 C15 1_555 1_555
O8 C16 1_555 1_555
O9 C16 1_555 1_555
Zn3 O8 1_555 1_555
C12 C15 1_555 1_555
O9 Zn3 1_555 1_555
O6 H39 1_555 1_555
Zn1 O1 1_555 1_555
O2 Zn1 1_555 1_555
N1 Zn1 1_555 1_555
O4 Zn1 1_555 1_555
N2 Zn1 1_555 1_555
C1 N1 1_555 1_555
C2 N1 1_555 1_555
H1 C1 1_555 1_555
C4 C1 1_555 1_555
C5 C2 1_555 1_555
H2 C2 1_555 1_555
H3 C4 1_555 1_555
C7 C4 1_555 1_555
H4 C5 1_555 1_555
C10 C7 1_555 1_555
H7 C10 1_555 1_555
C5 C7 1_555 1_555
Zn3 O7 1_555 1_555
C17 C13 1_555 1_555
C18 C17 1_555 1_555
C19 C17 1_555 1_555
C20 C18 1_555 1_555
C21 C19 1_555 1_555
H11 C19 1_555 1_555
C22 C20 1_555 1_555
H13 C21 1_555 1_555
C23 C22 1_555 1_555
H14 C23 1_555 1_555
C24 C23 1_555 1_555
H15 C24 1_555 1_555
C25 C24 1_555 1_555
C26 C25 1_555 1_555
C27 C25 1_555 1_555
C28 C26 1_555 1_555
H16 C26 1_555 1_555
H17 C27 1_555 1_555
C29 C27 1_555 1_555
H18 C28 1_555 1_555
H19 C29 1_555 1_555
N2 C28 1_555 1_555
C21 C22 1_555 1_555
C29 N2 1_555 1_555
N1_2 Zn3 1_555 1_555
O3_2 Zn3 1_555 1_555
N2_2 Zn3 1_555 1_555
C1_2 N1_2 1_555 1_555
C2_2 N1_2 1_555 1_555
C3_2 O3_2 1_555 1_555
H1_2 C1_2 1_555 1_555
C4_2 C1_2 1_555 1_555
C5_2 C2_2 1_555 1_555
H2_2 C2_2 1_555 1_555
O5_2 C3_2 1_555 1_555
C6_2 C3_2 1_555 1_555
H3_2 C4_2 1_555 1_555
C7_2 C4_2 1_555 1_555
H4_2 C5_2 1_555 1_555
C8_2 C6_2 1_555 1_555
C9_2 C6_2 1_555 1_555
C10_2 C7_2 1_555 1_555
C11_2 C8_2 1_555 1_555
H5_2 C8_2 1_555 1_555
C12_2 C9_2 1_555 1_555
H6_2 C9_2 1_555 1_555
H7_2 C10_2 1_555 1_555
C14_2 C11_2 1_555 1_555
C15_2 C11_2 1_555 1_555
C16_2 C12_2 1_555 1_555
O6_2 C14_2 1_555 1_555
H9_2 C15_2 1_555 1_555
O2 C16_2 1_555 1_555
O1 C16_2 1_555 1_555
C5_2 C7_2 1_555 1_555
C12_2 C15_2 1_555 1_555
O6_2 H39_2 1_555 1_555
C17_2 C13_2 1_555 1_555
C18_2 C17_2 1_555 1_555
C19_2 C17_2 1_555 1_555
H10 C18_2 1_555 1_555
C20_2 C18_2 1_555 1_555
C21_2 C19_2 1_555 1_555
H11_2 C19_2 1_555 1_555
H12 C20_2 1_555 1_555
C22_2 C20_2 1_555 1_555
H13_2 C21_2 1_555 1_555
C23_2 C22_2 1_555 1_555
H14_2 C23_2 1_555 1_555
C24_2 C23_2 1_555 1_555
H15_2 C24_2 1_555 1_555
C25_2 C24_2 1_555 1_555
C26_2 C25_2 1_555 1_555
C27_2 C25_2 1_555 1_555
C28_2 C26_2 1_555 1_555
H16_2 C26_2 1_555 1_555
H17_2 C27_2 1_555 1_555
C29_2 C27_2 1_555 1_555
H18_2 C28_2 1_555 1_555
H19_2 C29_2 1_555 1_555
N2_2 C28_2 1_555 1_555
C21_2 C22_2 1_555 1_555
C29_2 N2_2 1_555 1_555
H24 C35 1_555 1_555
C36 C35 1_555 1_555
H25 C36 1_555 1_555
C37 C36 1_555 1_555
C38 C37 1_555 1_555
H26 C38 1_555 1_555
C39 C38 1_555 1_555
H27 C39 1_555 1_555
C40 C39 1_555 1_555
C41 C40 1_555 1_555
H28 C41 1_555 1_555
C42 C37 1_555 1_555
H29 C42 1_555 1_555
C43 C40 1_555 1_555
H30 C43 1_555 1_555
C44 C43 1_555 1_555
H31 C44 1_555 1_555
N5 C45 1_555 1_555
C45 H32 1_555 1_555
C46 C45 1_555 1_555
H33 C46 1_555 1_555
C47 C44 1_555 1_555
C48 C47 1_555 1_555
H34 C48 1_555 1_555
C49 N5 1_555 1_555
H35 C49 1_555 1_555
Zn7 N5 1_555 1_555
C41 C42 1_555 1_555
C46 C47 1_555 1_555
C48 C49 1_555 1_555
Zn7 O10 1_555 1_555
O10 C50 1_555 1_555
N4 Zn7 1_555 1_555
C30 N4 1_555 1_555
H20 C30 1_555 1_555
C31 C30 1_555 1_555
H21 C31 1_555 1_555
C32 C31 1_555 1_555
C33 C32 1_555 1_555
H22 C33 1_555 1_555
C34 N4 1_555 1_555
H23 C34 1_555 1_555
O16 Zn7 1_555 1_555
O17 Zn7 1_555 1_555
O18 Zn7 1_555 1_555
C33 C34 1_555 1_555
O12 C57 1_555 1_555
O13 C57 1_555 1_555
O17 C58 1_555 1_555
O18 C58 1_555 1_555
C51 C52 1_555 1_555
C52 H36 1_555 1_555
C53 C52 1_555 1_555
C54 C53 1_555 1_555
H37 C54 1_555 1_555
C55 C54 1_555 1_555
C56 C51 1_555 1_555
H38 C56 1_555 1_555
C57 C53 1_555 1_555
C58 C55 1_555 1_555
C55 C56 1_555 1_555
O12 H40 1_555 1_555
H24_2 C35_2 1_555 1_555
C36_2 C35_2 1_555 1_555
H25_2 C36_2 1_555 1_555
C37_2 C36_2 1_555 1_555
C38_2 C37_2 1_555 1_555
H26_2 C38_2 1_555 1_555
C39_2 C38_2 1_555 1_555
H27_2 C39_2 1_555 1_555
C40_2 C39_2 1_555 1_555
C41_2 C40_2 1_555 1_555
H28_2 C41_2 1_555 1_555
C42_2 C37_2 1_555 1_555
H29_2 C42_2 1_555 1_555
C43_2 C40_2 1_555 1_555
H30_2 C43_2 1_555 1_555
C44_2 C43_2 1_555 1_555
H31_2 C44_2 1_555 1_555
N5_2 C45_2 1_555 1_555
C45_2 H32_2 1_555 1_555
C46_2 C45_2 1_555 1_555
H33_2 C46_2 1_555 1_555
C47_2 C44_2 1_555 1_555
C48_2 C47_2 1_555 1_555
H34_2 C48_2 1_555 1_555
C49_2 N5_2 1_555 1_555
H35_2 C49_2 1_555 1_555
Zn8 N5_2 1_555 1_555
C41_2 C42_2 1_555 1_555
C46_2 C47_2 1_555 1_555
C48_2 C49_2 1_555 1_555
O12_2 C57_2 1_555 1_555
O16 C57_2 1_555 1_555
O14 C58_2 1_555 1_555
O15 C58_2 1_555 1_555
C51_2 C52_2 1_555 1_555
C52_2 H36_2 1_555 1_555
C53_2 C52_2 1_555 1_555
C54_2 C53_2 1_555 1_555
H37_2 C54_2 1_555 1_555
C55_2 C54_2 1_555 1_555
C56_2 C51_2 1_555 1_555
H38_2 C56_2 1_555 1_555
C57_2 C53_2 1_555 1_555
C58_2 C55_2 1_555 1_555
Zn8 O14 1_555 1_555
O15 Zn8 1_555 1_555
C55_2 C56_2 1_555 1_555
O12_2 H40_2 1_555 1_555
Zn8 O10_2 1_555 1_555
O10_2 C50_2 1_555 1_555
N4_2 Zn8 1_555 1_555
C30_2 N4_2 1_555 1_555
H20_2 C30_2 1_555 1_555
C31_2 C30_2 1_555 1_555
H21_2 C31_2 1_555 1_555
C32_2 C31_2 1_555 1_555
C33_2 C32_2 1_555 1_555
H22_2 C33_2 1_555 1_555
C34_2 N4_2 1_555 1_555
H23_2 C34_2 1_555 1_555
C33_2 C34_2 1_555 1_555

#END
