
###############################################################################
#
# This file contains modified crystal structure data generated from the
# MOF subset of the Cambridge Structural Database (CSD) v543 
# hosted by the Cambridge Crystallographic Data Centre (CCDC).
#
# This work is licensed under the Creative Commons
# Attribution-NonCommercial-ShareAlike 4.0 International License.
# To view a copy of this license, visit
# http://creativecommons.org/licenses/by-nc-sa/4.0/
# or send a letter to
# Creative Commons, PO Box 1866, Mountain View, CA 94042, USA.
#
# CIF created using the CSD Python API on 29 September 2022
# The structure has been converted into the P1 space group
# The structure has a 3D framework
# The original CSD entry VEBLIB is in the hexagonal crystal system
# The original CSD entry VEBLIB is in a Sohncke space group
# The framework has been calculated to contain at least 10.0% void space
# The void calculation uses a probe of radius 1.32A, grid spacing 0.4
# H atom positions have been added when not included in the experimental data
#
###############################################################################

data_VEBLIB
_chemical_formula_moiety         '(C66 H84 Cu12 N8 O42 S12 Sr2)n'
_symmetry_cell_setting           triclinic
_symmetry_space_group_name_H-M   'P 1'
_symmetry_Int_Tables_number      1
_space_group_name_Hall           'P 1'
loop_
_symmetry_equiv_pos_site_id
_symmetry_equiv_pos_as_xyz
1 x,y,z
_cell_length_a                   18.0282(8)
_cell_length_b                   18.0282(8)
_cell_length_c                   13.0723(8)
_cell_angle_alpha                90
_cell_angle_beta                 90
_cell_angle_gamma                120
_cell_volume                     3679.49
loop_
_atom_site_label
_atom_site_type_symbol
_atom_site_fract_x
_atom_site_fract_y
_atom_site_fract_z
O11 O 0.5586(8) 0.2315(11) 0.2400(10)
O12 O 0.4938(10) 0.0965(14) 0.1347(13)
O13 O 0.4917(10) 0.2905(13) 0.1539(10)
N4 N 0.5721(7) 0.0218(10) 0.2234(10)
C14 C 0.5042(10) 0.2284(14) 0.1723(14)
C15 C 0.4559(10) 0.1424(14) 0.1123(15)
H14 H 0.459410 0.153921 0.037155
C16 C 0.4758(10) 0.0224(13) 0.0970(11)
C18 C 0.3648(13) 0.1037(22) 0.1480(19)
H15 H 0.328030 0.061781 0.095550
H16 H 0.350345 0.149986 0.148598
C19 C 0.3982(15) 0.0418(21) 0.382(3)
H17 H 0.360096 0.007324 0.437647
H18 H 0.430419 0.014843 0.357152
H19 H 0.438188 0.099460 0.407198
S3 S 0.333(3) 0.049(4) 0.275(2)
Sr4 Sr 0.666667 0.333333 0.3733(3)
Cu8 Cu 0.55470(13) 0.42009(14) 0.2431(2)
Cu10 Cu 0.57991(14) 0.13461(19) 0.2431(2)
Cu1 Cu 0.44609(12) 0.58103(12) 0.0044(2)
O2 O 0.3248(6) 0.5607(7) 0.0086(8)
O3 O 0.4061(7) 0.5007(8) 0.1123(9)
O4 O 0.6729(8) 0.4414(8) 0.2400(10)
O5 O 0.6027(10) 0.5062(10) 0.1347(13)
O6 O 0.7988(8) 0.5083(10) 0.1539(10)
O7 O 0.2026(8) 0.4872(8) 0.0908(11)
N1 N 0.5600(7) 0.5799(7) 0.0244(9)
N2 N 0.4497(7) 0.4279(7) 0.2234(10)
C1 C 0.2778(11) 0.5110(12) 0.0800(15)
C2 C 0.3159(8) 0.4707(3) 0.1524(14)
H1 H 0.322452 0.497807 0.220997
C3 C 0.7242(10) 0.4958(10) 0.1723(14)
C4 C 0.6865(10) 0.5441(10) 0.1123(15)
H2 H 0.694511 0.540590 0.037155
C5 C 0.5466(9) 0.5242(10) 0.0970(11)
C6 C 0.4605(10) 0.4789(9) 0.1498(14)
C7 C 0.7389(18) 0.6352(13) 0.1480(19)
H3 H 0.733751 0.671970 0.095550
H4 H 0.799641 0.649655 0.148598
C8 C 0.6436(15) 0.6018(15) 0.382(3)
H5 H 0.647228 0.639904 0.437647
H6 H 0.584424 0.569581 0.357152
H7 H 0.661272 0.561812 0.407198
C9 C 0.2574(12) 0.3735(2) 0.1671(14)
H8 H 0.197243 0.360106 0.174390
H9 H 0.273730 0.355266 0.230555
C10 C 0.2646(6) 0.3246(9) 0.0764(2)
C11 C 0.1216(10) 0.2619(18) 0.0059(19)
H11 H 0.116653 0.209686 0.035521
H12 H 0.115343 0.295994 0.060040
S1 S 0.716(3) 0.667(3) 0.275(2)
Cu3 Cu 0.41897(12) 0.86506(17) 0.0044(2)
O9 O 0.4393(7) 0.7641(9) 0.0086(8)
O10 O 0.4993(8) 0.9054(11) 0.1123(9)
O14 O 0.5128(8) 0.7154(11) 0.0908(11)
N3 N 0.4201(7) 0.9801(10) 0.0244(9)
C12 C 0.4890(12) 0.7668(16) 0.0800(15)
C13 C 0.5293(3) 0.8452(9) 0.1524(14)
H13 H 0.502193 0.824645 0.220997
C17 C 0.5211(9) 0.9816(13) 0.1498(14)
C20 C 0.6265(2) 0.8839(12) 0.1671(14)
H20 H 0.639894 0.837137 0.174390
H21 H 0.644734 0.918464 0.230555
C21 C 0.6754(9) 0.9400(11) 0.0764(2)
C22 C 0.7381(18) 0.8597(21) 0.0059(19)
H23 H 0.790314 0.906967 0.035521
H24 H 0.704006 0.819349 0.060040
Cu5 Cu 0.13494(17) 0.55391(12) 0.0044(2)
O16 O 0.2359(9) 0.6752(6) 0.0086(8)
O17 O 0.0946(11) 0.5939(7) 0.1123(9)
O21 O 0.2846(11) 0.7974(8) 0.0908(11)
N5 N 0.0199(10) 0.4400(7) 0.0244(9)
C23 C 0.2332(16) 0.7222(11) 0.0800(15)
C24 C 0.1548(9) 0.6841(8) 0.1524(14)
H25 H 0.175355 0.677548 0.220997
C28 C 0.0184(13) 0.5395(10) 0.1498(14)
C31 C 0.1161(12) 0.7426(12) 0.1671(14)
H32 H 0.162863 0.802757 0.174390
H33 H 0.081536 0.726270 0.230555
C32 C 0.0600(11) 0.7354(6) 0.0764(2)
C33 C 0.1403(21) 0.8784(10) 0.0059(19)
H35 H 0.093033 0.883347 0.035521
H36 H 0.180651 0.884657 0.060040
Cu12 Cu 0.86539(19) 0.44530(13) 0.2431(2)
H37 H 0.230501 0.257597 0.099535
H38 H 0.332674 0.346458 0.0695189
H39 H 0.742403 0.972904 0.099535
H40 H 0.653542 0.986216 0.0695189
H41 H 0.0270964 0.769499 0.099535
H42 H 0.0137836 0.667326 0.0695189
Sr1 Sr 0.333333 0.666667 0.8733(3)
Cu2 Cu 0.44530(13) 0.57991(14) 0.7431(2)
O1 O 0.4682(4) 0.6381(4) 0.8719(11)
H10 H 0.076536 0.246474 0.954618
S2 S 0.2280(6) 0.3254(11) 0.9444(2)
Cu4 Cu 0.42009(14) 0.86539(19) 0.7431(2)
O8 O 0.3619(4) 0.8301(6) 0.8719(11)
H22 H 0.753526 0.830062 0.954618
S4 S 0.6746(11) 0.9026(13) 0.9444(2)
Cu6 Cu 0.13461(19) 0.55470(13) 0.7431(2)
O15 O 0.1699(6) 0.5318(4) 0.8719(11)
H34 H 0.169938 0.923464 0.954618
S6 S 0.0974(13) 0.7720(6) 0.9444(2)
O22 O 0.3271(8) 0.5586(8) 0.7400(10)
O23 O 0.4414(8) 0.7685(11) 0.7400(10)
O24 O 0.2315(11) 0.6729(8) 0.7400(10)
O25 O 0.3973(10) 0.4938(10) 0.6347(13)
O26 O 0.5062(10) 0.9035(14) 0.6347(13)
O27 O 0.0965(14) 0.6027(10) 0.6347(13)
O28 O 0.2012(8) 0.4917(10) 0.6539(10)
O29 O 0.5083(10) 0.7095(13) 0.6539(10)
O30 O 0.2905(13) 0.7988(8) 0.6539(10)
N7 N 0.5503(7) 0.5721(7) 0.7234(10)
N8 N 0.4279(7) 0.9782(10) 0.7234(10)
N9 N 0.0218(10) 0.4497(7) 0.7234(10)
O18 O 0.7685(11) 0.3271(8) 0.2400(10)
O19 O 0.9035(14) 0.3973(10) 0.1347(13)
O20 O 0.7095(13) 0.2012(8) 0.1539(10)
N6 N 0.9782(10) 0.5503(7) 0.2234(10)
C25 C 0.7716(14) 0.2758(10) 0.1723(14)
C26 C 0.8576(14) 0.3135(10) 0.1123(15)
H26 H 0.846079 0.305489 0.037155
C27 C 0.9776(13) 0.4534(9) 0.0970(11)
C29 C 0.8963(22) 0.2611(18) 0.1480(19)
H27 H 0.938219 0.266249 0.095550
H28 H 0.850014 0.200359 0.148598
C30 C 0.9582(21) 0.3564(15) 0.382(3)
H29 H 0.992676 0.352772 0.437647
H30 H 0.985157 0.415576 0.357152
H31 H 0.900540 0.338728 0.407198
S5 S 0.951(4) 0.284(3) 0.275(2)
C25_2 C 0.2284(14) 0.7242(10) 0.6723(14)
C26_2 C 0.1424(14) 0.6865(10) 0.6123(15)
H26_2 H 0.153921 0.694511 0.537155
C27_2 C 0.0224(13) 0.5466(9) 0.5970(11)
C29_2 C 0.1037(22) 0.7389(18) 0.6480(19)
H27_2 H 0.061781 0.733751 0.595550
H28_2 H 0.149986 0.799641 0.648598
C30_2 C 0.0418(21) 0.6436(15) 0.882(3)
H29_2 H 0.007324 0.647228 0.937647
H30_2 H 0.014843 0.584424 0.857152
H31_2 H 0.099460 0.661272 0.907198
S5_2 S 0.049(4) 0.716(3) 0.775(2)
Cu1_2 Cu 0.55391(12) 0.41897(12) 0.5044(2)
O1_2 O 0.5318(4) 0.3619(4) 0.3719(11)
O2_2 O 0.6752(6) 0.4393(7) 0.5086(8)
O3_2 O 0.5939(7) 0.4993(8) 0.6123(9)
O7_2 O 0.7974(8) 0.5128(8) 0.5908(11)
N1_2 N 0.4400(7) 0.4201(7) 0.5244(9)
C1_2 C 0.7222(11) 0.4890(12) 0.5800(15)
C2_2 C 0.6841(8) 0.5293(3) 0.6524(14)
H1_2 H 0.677548 0.502193 0.720997
C3_2 C 0.2758(10) 0.5042(10) 0.6723(14)
C4_2 C 0.3135(10) 0.4559(10) 0.6123(15)
H2_2 H 0.305489 0.459410 0.537155
C5_2 C 0.4534(9) 0.4758(10) 0.5970(11)
C6_2 C 0.5395(10) 0.5211(9) 0.6498(14)
C7_2 C 0.2611(18) 0.3648(13) 0.6480(19)
H3_2 H 0.266249 0.328030 0.595550
H4_2 H 0.200359 0.350345 0.648598
C8_2 C 0.3564(15) 0.3982(15) 0.882(3)
H5_2 H 0.352772 0.360096 0.937647
H6_2 H 0.415576 0.430419 0.857152
H7_2 H 0.338728 0.438188 0.907198
C9_2 C 0.7426(12) 0.6265(2) 0.6671(14)
H8_2 H 0.802757 0.639894 0.674390
H9_2 H 0.726270 0.644734 0.730555
C10_2 C 0.7354(6) 0.6754(9) 0.5764(2)
C11_2 C 0.8784(10) 0.7381(18) 0.5059(19)
H10_2 H 0.923464 0.753526 0.454618
H11_2 H 0.883347 0.790314 0.535521
H12_2 H 0.884657 0.704006 0.560040
S1_2 S 0.284(3) 0.333(3) 0.775(2)
S2_2 S 0.7720(6) 0.6746(11) 0.4444(2)
Cu3_2 Cu 0.58103(12) 0.13494(17) 0.5044(2)
O8_2 O 0.6381(4) 0.1699(6) 0.3719(11)
O9_2 O 0.5607(7) 0.2359(9) 0.5086(8)
O10_2 O 0.5007(8) 0.0946(11) 0.6123(9)
O14_2 O 0.4872(8) 0.2846(11) 0.5908(11)
N3_2 N 0.5799(7) 0.0199(10) 0.5244(9)
C12_2 C 0.5110(12) 0.2332(16) 0.5800(15)
C13_2 C 0.4707(3) 0.1548(9) 0.6524(14)
H13_2 H 0.497807 0.175355 0.720997
C17_2 C 0.4789(9) 0.0184(13) 0.6498(14)
C20_2 C 0.3735(2) 0.1161(12) 0.6671(14)
H20_2 H 0.360106 0.162863 0.674390
H21_2 H 0.355266 0.081536 0.730555
C21_2 C 0.3246(9) 0.0600(11) 0.5764(2)
C22_2 C 0.2619(18) 0.1403(21) 0.5059(19)
H22_2 H 0.246474 0.169938 0.454618
H23_2 H 0.209686 0.093033 0.535521
H24_2 H 0.295994 0.180651 0.560040
S4_2 S 0.3254(11) 0.0974(13) 0.4444(2)
Cu5_2 Cu 0.86506(17) 0.44609(12) 0.5044(2)
O15_2 O 0.8301(6) 0.4682(4) 0.3719(11)
O16_2 O 0.7641(9) 0.3248(6) 0.5086(8)
O17_2 O 0.9054(11) 0.4061(7) 0.6123(9)
O21_2 O 0.7154(11) 0.2026(8) 0.5908(11)
N5_2 N 0.9801(10) 0.5600(7) 0.5244(9)
C23_2 C 0.7668(16) 0.2778(11) 0.5800(15)
C24_2 C 0.8452(9) 0.3159(8) 0.6524(14)
H25_2 H 0.824645 0.322452 0.720997
C28_2 C 0.9816(13) 0.4605(10) 0.6498(14)
C31_2 C 0.8839(12) 0.2574(12) 0.6671(14)
H32_2 H 0.837137 0.197243 0.674390
H33_2 H 0.918464 0.273730 0.730555
C32_2 C 0.9400(11) 0.2646(6) 0.5764(2)
C33_2 C 0.8597(21) 0.1216(10) 0.5059(19)
H34_2 H 0.830062 0.076536 0.454618
H35_2 H 0.906967 0.116653 0.535521
H36_2 H 0.819349 0.115343 0.560040
S6_2 S 0.9026(13) 0.2280(6) 0.4444(2)
H37_2 H 0.769499 0.742403 0.599535
H38_2 H 0.667326 0.653542 0.569519
H39_2 H 0.257597 0.0270964 0.599535
H40_2 H 0.346458 0.0137836 0.569519
H41_2 H 0.972904 0.230501 0.599535
H42_2 H 0.986216 0.332674 0.569519
C14_2 C 0.4958(10) 0.7716(14) 0.6723(14)
C15_2 C 0.5441(10) 0.8576(14) 0.6123(15)
H14_2 H 0.540590 0.846079 0.537155
C16_2 C 0.5242(10) 0.9776(13) 0.5970(11)
C18_2 C 0.6352(13) 0.8963(22) 0.6480(19)
H15_2 H 0.671970 0.938219 0.595550
H16_2 H 0.649655 0.850014 0.648598
C19_2 C 0.6018(15) 0.9582(21) 0.882(3)
H17_2 H 0.639904 0.992676 0.937647
H18_2 H 0.569581 0.985157 0.857152
H19_2 H 0.561812 0.900540 0.907198
S3_2 S 0.667(3) 0.951(4) 0.775(2)
loop_
_geom_bond_atom_site_label_1
_geom_bond_atom_site_label_2
_geom_bond_site_symmetry_1
_geom_bond_site_symmetry_2
O11 C14 1_555 1_555
O12 C15 1_555 1_555
O13 C14 1_555 1_555
C14 C15 1_555 1_555
C15 H14 1_555 1_555
C16 O12 1_555 1_555
C18 C15 1_555 1_555
H15 C18 1_555 1_555
H16 C18 1_555 1_555
C19 H17 1_555 1_555
H18 C19 1_555 1_555
H19 C19 1_555 1_555
S3 C18 1_555 1_555
Sr4 O11 1_555 1_555
Cu8 O13 1_555 1_555
Cu10 O11 1_555 1_555
O12 Cu10 1_555 1_555
N4 Cu10 1_555 1_555
C19 S3 1_555 1_555
O3 Cu1 1_555 1_555
O4 C3 1_555 1_555
O5 C4 1_555 1_555
O6 C3 1_555 1_555
O7 C1 1_555 1_555
N1 Cu1 1_555 1_555
N2 C6 1_555 1_555
C1 O2 1_555 1_555
C2 O3 1_555 1_555
H1 C2 1_555 1_555
C3 C4 1_555 1_555
C4 H2 1_555 1_555
C5 O5 1_555 1_555
C6 O3 1_555 1_555
C7 C4 1_555 1_555
H3 C7 1_555 1_555
H4 C7 1_555 1_555
C8 H5 1_555 1_555
H6 C8 1_555 1_555
H7 C8 1_555 1_555
C9 C2 1_555 1_555
H8 C9 1_555 1_555
H9 C9 1_555 1_555
C10 C9 1_555 1_555
H11 C11 1_555 1_555
H12 C11 1_555 1_555
S1 C7 1_555 1_555
O10 Cu3 1_555 1_555
O14 Cu1 1_555 1_555
N3 Cu3 1_555 1_555
C12 O9 1_555 1_555
C13 O10 1_555 1_555
H13 C13 1_555 1_555
C17 O10 1_555 1_555
C20 C13 1_555 1_555
H20 C20 1_555 1_555
H21 C20 1_555 1_555
C21 C20 1_555 1_555
H23 C22 1_555 1_555
H24 C22 1_555 1_555
Cu5 O7 1_555 1_555
O17 Cu5 1_555 1_555
O21 Cu3 1_555 1_555
N5 Cu5 1_555 1_555
C23 O16 1_555 1_555
C24 O17 1_555 1_555
H25 C24 1_555 1_555
C28 O17 1_555 1_555
C31 C24 1_555 1_555
H32 C31 1_555 1_555
H33 C31 1_555 1_555
C32 C31 1_555 1_555
H35 C33 1_555 1_555
H36 C33 1_555 1_555
Sr4 O4 1_555 1_555
Cu8 O4 1_555 1_555
Cu12 O6 1_555 1_555
Cu1 O2 1_555 1_555
O5 Cu8 1_555 1_555
N1 C5 1_555 1_555
N2 Cu8 1_555 1_555
C1 C2 1_555 1_555
C5 C6 1_555 1_555
C8 S1 1_555 1_555
Cu3 O9 1_555 1_555
O14 C12 1_555 1_555
C12 C13 1_555 1_555
Cu5 O16 1_555 1_555
O21 C23 1_555 1_555
C23 C24 1_555 1_555
C10 H37 1_555 1_555
C10 H38 1_555 1_555
C21 H39 1_555 1_555
C21 H40 1_555 1_555
C32 H41 1_555 1_555
C32 H42 1_555 1_555
Sr1 O1 1_555 1_555
Cu2 O1 1_555 1_555
Cu4 O8 1_555 1_555
O8 Sr1 1_555 1_555
Cu6 O15 1_555 1_555
O15 Sr1 1_555 1_555
O22 Sr1 1_555 1_555
O23 Sr1 1_555 1_555
O24 Sr1 1_555 1_555
O25 Cu2 1_555 1_555
O26 Cu4 1_555 1_555
O27 Cu6 1_555 1_555
O28 Cu6 1_555 1_555
O29 Cu2 1_555 1_555
O30 Cu4 1_555 1_555
N7 Cu2 1_555 1_555
N8 Cu4 1_555 1_555
N9 Cu6 1_555 1_555
Cu2 O22 1_555 1_555
Cu4 O23 1_555 1_555
Cu6 O24 1_555 1_555
O18 C25 1_555 1_555
O19 C26 1_555 1_555
O20 C25 1_555 1_555
C25 C26 1_555 1_555
C26 H26 1_555 1_555
C27 O19 1_555 1_555
C29 C26 1_555 1_555
H27 C29 1_555 1_555
H28 C29 1_555 1_555
C30 H29 1_555 1_555
H30 C30 1_555 1_555
H31 C30 1_555 1_555
S5 C29 1_555 1_555
Sr4 O18 1_555 1_555
Cu10 O20 1_555 1_555
Cu12 O18 1_555 1_555
O19 Cu12 1_555 1_555
N6 Cu12 1_555 1_555
C30 S5 1_555 1_555
O24 C25_2 1_555 1_555
O27 C26_2 1_555 1_555
O30 C25_2 1_555 1_555
C25_2 C26_2 1_555 1_555
C26_2 H26_2 1_555 1_555
C27_2 O27 1_555 1_555
C29_2 C26_2 1_555 1_555
H27_2 C29_2 1_555 1_555
H28_2 C29_2 1_555 1_555
C30_2 H29_2 1_555 1_555
H30_2 C30_2 1_555 1_555
H31_2 C30_2 1_555 1_555
S5_2 C29_2 1_555 1_555
C30_2 S5_2 1_555 1_555
Sr4 O1_2 1_555 1_555
Cu1_2 O1_2 1_555 1_555
Cu8 O1_2 1_555 1_555
O2_2 Sr4 1_555 1_555
O3_2 Cu1_2 1_555 1_555
O22 C3_2 1_555 1_555
O25 C4_2 1_555 1_555
O28 C3_2 1_555 1_555
O7_2 C1_2 1_555 1_555
N1_2 Cu1_2 1_555 1_555
N7 C6_2 1_555 1_555
C1_2 O2_2 1_555 1_555
C2_2 O3_2 1_555 1_555
H1_2 C2_2 1_555 1_555
C3_2 C4_2 1_555 1_555
C4_2 H2_2 1_555 1_555
C5_2 O25 1_555 1_555
C6_2 O3_2 1_555 1_555
C7_2 C4_2 1_555 1_555
H3_2 C7_2 1_555 1_555
H4_2 C7_2 1_555 1_555
C8_2 H5_2 1_555 1_555
H6_2 C8_2 1_555 1_555
H7_2 C8_2 1_555 1_555
C9_2 C2_2 1_555 1_555
H8_2 C9_2 1_555 1_555
H9_2 C9_2 1_555 1_555
C10_2 C9_2 1_555 1_555
C11_2 H10_2 1_555 1_555
H11_2 C11_2 1_555 1_555
H12_2 C11_2 1_555 1_555
S1_2 C7_2 1_555 1_555
S2_2 C10_2 1_555 1_555
Cu3_2 O8_2 1_555 1_555
Cu10 O8_2 1_555 1_555
O8_2 Sr4 1_555 1_555
O9_2 Sr4 1_555 1_555
O10_2 Cu3_2 1_555 1_555
O14_2 Cu1_2 1_555 1_555
N3_2 Cu3_2 1_555 1_555
C12_2 O9_2 1_555 1_555
C13_2 O10_2 1_555 1_555
H13_2 C13_2 1_555 1_555
C17_2 O10_2 1_555 1_555
C20_2 C13_2 1_555 1_555
H20_2 C20_2 1_555 1_555
H21_2 C20_2 1_555 1_555
C21_2 C20_2 1_555 1_555
C22_2 H22_2 1_555 1_555
H23_2 C22_2 1_555 1_555
H24_2 C22_2 1_555 1_555
S4_2 C21_2 1_555 1_555
Cu5_2 O7_2 1_555 1_555
Cu12 O15_2 1_555 1_555
O15_2 Sr4 1_555 1_555
O16_2 Sr4 1_555 1_555
O17_2 Cu5_2 1_555 1_555
O21_2 Cu3_2 1_555 1_555
N5_2 Cu5_2 1_555 1_555
C23_2 O16_2 1_555 1_555
C24_2 O17_2 1_555 1_555
H25_2 C24_2 1_555 1_555
C28_2 O17_2 1_555 1_555
C31_2 C24_2 1_555 1_555
H32_2 C31_2 1_555 1_555
H33_2 C31_2 1_555 1_555
C32_2 C31_2 1_555 1_555
C33_2 H34_2 1_555 1_555
H35_2 C33_2 1_555 1_555
H36_2 C33_2 1_555 1_555
S6_2 C32_2 1_555 1_555
Cu1_2 O2_2 1_555 1_555
N1_2 C5_2 1_555 1_555
C1_2 C2_2 1_555 1_555
C5_2 C6_2 1_555 1_555
C8_2 S1_2 1_555 1_555
C11_2 S2_2 1_555 1_555
Cu3_2 O9_2 1_555 1_555
O14_2 C12_2 1_555 1_555
C12_2 C13_2 1_555 1_555
C22_2 S4_2 1_555 1_555
Cu5_2 O15_2 1_555 1_555
Cu5_2 O16_2 1_555 1_555
O21_2 C23_2 1_555 1_555
C23_2 C24_2 1_555 1_555
C33_2 S6_2 1_555 1_555
C10_2 H37_2 1_555 1_555
C10_2 H38_2 1_555 1_555
C21_2 H39_2 1_555 1_555
C21_2 H40_2 1_555 1_555
C32_2 H41_2 1_555 1_555
C32_2 H42_2 1_555 1_555
O23 C14_2 1_555 1_555
O26 C15_2 1_555 1_555
O29 C14_2 1_555 1_555
C14_2 C15_2 1_555 1_555
C15_2 H14_2 1_555 1_555
C16_2 O26 1_555 1_555
C18_2 C15_2 1_555 1_555
H15_2 C18_2 1_555 1_555
H16_2 C18_2 1_555 1_555
C19_2 H17_2 1_555 1_555
H18_2 C19_2 1_555 1_555
H19_2 C19_2 1_555 1_555
S3_2 C18_2 1_555 1_555
C19_2 S3_2 1_555 1_555

#END
