
###############################################################################
#
# This file contains modified crystal structure data generated from the
# MOF subset of the Cambridge Structural Database (CSD) v543 
# hosted by the Cambridge Crystallographic Data Centre (CCDC).
#
# This work is licensed under the Creative Commons
# Attribution-NonCommercial-ShareAlike 4.0 International License.
# To view a copy of this license, visit
# http://creativecommons.org/licenses/by-nc-sa/4.0/
# or send a letter to
# Creative Commons, PO Box 1866, Mountain View, CA 94042, USA.
#
# CIF created using the CSD Python API on 29 September 2022
# The structure has been converted into the P1 space group
# The structure has a 3D framework
# The original CSD entry VEBLEX is in the hexagonal crystal system
# The original CSD entry VEBLEX is in a Sohncke space group
# The framework has been calculated to contain at least 10.0% void space
# The void calculation uses a probe of radius 1.32A, grid spacing 0.4
#
###############################################################################

data_VEBLEX
_chemical_formula_moiety         '(C66 H84 Cu12 N12 O34 S12 Sr2)n'
_symmetry_cell_setting           triclinic
_symmetry_space_group_name_H-M   'P 1'
_symmetry_Int_Tables_number      1
_space_group_name_Hall           'P 1'
loop_
_symmetry_equiv_pos_site_id
_symmetry_equiv_pos_as_xyz
1 x,y,z
_cell_length_a                   17.82070(5)
_cell_length_b                   17.82070(5)
_cell_length_c                   12.95380(6)
_cell_angle_alpha                90
_cell_angle_beta                 90
_cell_angle_gamma                120
_cell_volume                     3562.68
loop_
_atom_site_label
_atom_site_type_symbol
_atom_site_fract_x
_atom_site_fract_y
_atom_site_fract_z
O19 O 0.5584(5) 0.2329(3) 0.4616(4)
O20 O 0.4910(7) 0.2867(4) 0.5449(5)
O21 O 0.5753(6) 0.0198(3) 0.4701(5)
N6 N 0.5000(7) 0.0963(4) 0.5641(5)
C25 C 0.4777(7) 0.0178(5) 0.6014(6)
C26 C 0.5112(9) 0.2334(5) 0.5294(8)
C27 C 0.4681(13) 0.1543(7) 0.6086(8)
H30 H 0.483125 0.170367 0.682788
C32 C 0.3611(31) 0.1118(19) 0.579(2)
H38 H 0.340794 0.148166 0.613134
H39 H 0.329030 0.053563 0.610628
C33 C 0.2237(29) 0.0068(17) 0.479(2)
H42 H 0.194888 0.025164 0.528984
S6 S 0.3283(21) 0.1008(13) 0.441(2)
Cu8 Cu 0.58334(5) 0.13580(5) 0.45606(4)
Cu12 Cu 0.55246(7) 0.41666(5) 0.45606(4)
Sr4 Sr 0.666667 0.333333 0.32423(13)
O25 O 0.2867(4) 0.7957(6) 0.0449(5)
O26 O 0.2043(6) 0.4910(7) 0.0449(5)
O27 O 0.5090(7) 0.7133(4) 0.0449(5)
N7 N 0.0963(4) 0.5963(6) 0.0641(5)
N8 N 0.4037(6) 0.5000(7) 0.0641(5)
N9 N 0.5000(7) 0.9037(4) 0.0641(5)
Cu1 Cu 0.13576(6) 0.55531(5) 0.69315(5)
Cu2 Cu 0.41666(5) 0.86420(5) 0.95606(4)
Sr1 Sr 0.333333 0.666667 0.82423(13)
O1 O 0.36135(18) 0.82920(17) 0.8224(5)
O2 O 0.2358(3) 0.6753(3) 0.6922(4)
O3 O 0.2921(4) 0.8016(3) 0.6010(4)
O4 O 0.0210(3) 0.4476(4) 0.6741(5)
N1 N 0.0954(4) 0.5976(5) 0.5820(6)
C1 C 0.2307(5) 0.7241(5) 0.6164(7)
C2 C 0.1497(6) 0.6849(5) 0.5574(7)
H1 H 0.118455 0.712345 0.590002
C6 C 0.0233(5) 0.5463(7) 0.5465(7)
C7 C 0.1565(18) 0.7142(19) 0.4452(18)
H3 H 0.099004 0.691172 0.412309
H4 H 0.189939 0.778018 0.438248
C8 C 0.2054(12) 0.6716(18) 0.404(2)
H5 H 0.259463 0.711003 0.441742
H6 H 0.214941 0.698728 0.335291
C9 C 0.1194(12) 0.5003(17) 0.363(2)
H7 H 0.117643 0.446395 0.342672
H8 H 0.093584 0.493354 0.431303
H9 H 0.086664 0.513750 0.312486
H12 H 0.017008 0.203979 0.417585
H13 H 0.037589 0.271232 0.509891
S1 S 0.2423(8) 0.5968(13) 0.366(2)
Cu3 Cu 0.44469(5) 0.58045(8) 0.69315(5)
Cu4 Cu 0.13580(5) 0.55246(7) 0.95606(4)
O8 O 0.17080(17) 0.53215(25) 0.8224(5)
O9 O 0.3247(3) 0.5605(4) 0.6922(4)
O10 O 0.1984(3) 0.4905(5) 0.6010(4)
O11 O 0.5524(4) 0.5734(5) 0.6741(5)
O12 O 0.6745(4) 0.4416(5) 0.4616(4)
O13 O 0.7957(6) 0.5090(7) 0.5449(5)
O14 O 0.4445(5) 0.4247(6) 0.4701(5)
N3 N 0.4024(5) 0.4978(6) 0.5820(6)
N4 N 0.5963(6) 0.5000(7) 0.5641(5)
C12 C 0.2759(5) 0.5066(7) 0.6164(7)
C13 C 0.3151(5) 0.4648(8) 0.5574(7)
H15 H 0.287655 0.406110 0.590002
C14 C 0.5401(5) 0.5223(7) 0.6014(6)
C15 C 0.7222(8) 0.4888(9) 0.5294(8)
C16 C 0.6862(11) 0.5319(13) 0.6086(8)
H16 H 0.687242 0.516875 0.682788
C17 C 0.4537(7) 0.4770(9) 0.5465(7)
C18 C 0.2858(19) 0.4423(26) 0.4452(18)
H17 H 0.308828 0.407832 0.412309
H18 H 0.221982 0.411921 0.438248
C19 C 0.3284(18) 0.5338(22) 0.404(2)
H19 H 0.288997 0.548460 0.441742
H20 H 0.301272 0.516213 0.335291
C20 C 0.4997(17) 0.6191(21) 0.363(2)
H21 H 0.553605 0.671248 0.342672
H22 H 0.506646 0.600230 0.431303
H23 H 0.486250 0.572914 0.312486
C21 C 0.7507(24) 0.6389(31) 0.579(2)
H24 H 0.807372 0.659206 0.613134
H25 H 0.724533 0.670970 0.610628
C22 C 0.7831(23) 0.7763(29) 0.479(2)
H26 H 0.796021 0.813029 0.417585
H27 H 0.728768 0.766357 0.509891
H28 H 0.830276 0.805112 0.528984
S3 S 0.4032(13) 0.6455(15) 0.366(2)
S4 S 0.7725(16) 0.6717(21) 0.441(2)
Cu5 Cu 0.41955(8) 0.86424(6) 0.69315(5)
Cu6 Cu 0.44754(7) 0.58334(5) 0.95606(4)
O15 O 0.46785(25) 0.63865(18) 0.8224(5)
O16 O 0.4395(4) 0.7642(3) 0.6922(4)
O17 O 0.5095(5) 0.7079(4) 0.6010(4)
O18 O 0.4266(5) 0.9790(3) 0.6741(5)
N5 N 0.5022(6) 0.9046(4) 0.5820(6)
C23 C 0.4934(7) 0.7693(5) 0.6164(7)
C24 C 0.5352(8) 0.8503(6) 0.5574(7)
H29 H 0.593890 0.881545 0.590002
C28 C 0.5230(9) 0.9767(5) 0.5465(7)
C29 C 0.5577(26) 0.8435(18) 0.4452(18)
H31 H 0.592168 0.900996 0.412309
H32 H 0.588079 0.810061 0.438248
C30 C 0.4662(22) 0.7946(12) 0.404(2)
H33 H 0.451540 0.740537 0.441742
H34 H 0.483787 0.785059 0.335291
C31 C 0.3809(21) 0.8806(12) 0.363(2)
H35 H 0.328752 0.882357 0.342672
H36 H 0.399770 0.906416 0.431303
H37 H 0.427086 0.913336 0.312486
H40 H 0.186971 0.982992 0.417585
H41 H 0.233643 0.962411 0.509891
S5 S 0.3545(15) 0.7577(8) 0.366(2)
Cu10 Cu 0.86420(5) 0.44754(7) 0.45606(4)
O22 O 0.2329(3) 0.6745(4) 0.9616(4)
O23 O 0.3255(4) 0.5584(5) 0.9616(4)
O24 O 0.4416(5) 0.7671(3) 0.9616(4)
O28 O 0.0198(3) 0.4445(5) 0.9701(5)
O29 O 0.5555(5) 0.5753(6) 0.9701(5)
O30 O 0.4247(6) 0.9802(3) 0.9701(5)
O5 O 0.7671(3) 0.3255(4) 0.4616(4)
O6 O 0.7133(4) 0.2043(6) 0.5449(5)
O7 O 0.9802(3) 0.5555(5) 0.4701(5)
N2 N 0.9037(4) 0.4037(6) 0.5641(5)
C3 C 0.9822(5) 0.4599(5) 0.6014(6)
C4 C 0.7666(5) 0.2778(8) 0.5294(8)
C5 C 0.8457(7) 0.3138(11) 0.6086(8)
H2 H 0.829633 0.312758 0.682788
C10 C 0.8882(19) 0.2493(24) 0.579(2)
H10 H 0.851834 0.192628 0.613134
H11 H 0.946437 0.275467 0.610628
C11 C 0.9932(17) 0.2169(23) 0.479(2)
H14 H 0.974836 0.169724 0.528984
S2 S 0.8992(13) 0.2275(16) 0.441(2)
C3_2 C 0.0178(5) 0.5401(5) 0.1014(6)
C4_2 C 0.2334(5) 0.7222(8) 0.0294(8)
C5_2 C 0.1543(7) 0.6862(11) 0.1086(8)
H2_2 H 0.170367 0.687242 0.182788
C10_2 C 0.1118(19) 0.7507(24) 0.079(2)
H10_2 H 0.148166 0.807372 0.113134
H11_2 H 0.053563 0.724533 0.110628
H14_2 H 0.025164 0.830276 0.028984
C11_2 C 0.0068(17) 0.7831(23) 0.979(2)
S2_2 S 0.1008(13) 0.7725(16) 0.941(2)
Cu1_2 Cu 0.86424(6) 0.44469(5) 0.19315(5)
O1_2 O 0.63865(18) 0.17080(17) 0.3224(5)
O2_2 O 0.7642(3) 0.3247(3) 0.1922(4)
O3_2 O 0.7079(4) 0.1984(3) 0.1010(4)
O4_2 O 0.9790(3) 0.5524(4) 0.1741(5)
N1_2 N 0.9046(4) 0.4024(5) 0.0820(6)
C1_2 C 0.7693(5) 0.2759(5) 0.1164(7)
C2_2 C 0.8503(6) 0.3151(5) 0.0574(7)
H1_2 H 0.881545 0.287655 0.090002
C6_2 C 0.9767(5) 0.4537(7) 0.0465(7)
H13_2 H 0.962411 0.728768 0.009891
Cu3_2 Cu 0.55531(5) 0.41955(8) 0.19315(5)
O8_2 O 0.82920(17) 0.46785(25) 0.3224(5)
O9_2 O 0.6753(3) 0.4395(4) 0.1922(4)
O10_2 O 0.8016(3) 0.5095(5) 0.1010(4)
O11_2 O 0.4476(4) 0.4266(5) 0.1741(5)
N3_2 N 0.5976(5) 0.5022(6) 0.0820(6)
C12_2 C 0.7241(5) 0.4934(7) 0.1164(7)
C13_2 C 0.6849(5) 0.5352(8) 0.0574(7)
H15_2 H 0.712345 0.593890 0.090002
C14_2 C 0.4599(5) 0.4777(7) 0.1014(6)
C15_2 C 0.2778(8) 0.5112(9) 0.0294(8)
C16_2 C 0.3138(11) 0.4681(13) 0.1086(8)
H16_2 H 0.312758 0.483125 0.182788
C17_2 C 0.5463(7) 0.5230(9) 0.0465(7)
C21_2 C 0.2493(24) 0.3611(31) 0.079(2)
H24_2 H 0.192628 0.340794 0.113134
H25_2 H 0.275467 0.329030 0.110628
H27_2 H 0.271232 0.233643 0.009891
H28_2 H 0.169724 0.194888 0.028984
Cu5_2 Cu 0.58045(8) 0.13576(6) 0.19315(5)
O15_2 O 0.53215(25) 0.36135(18) 0.3224(5)
O16_2 O 0.5605(4) 0.2358(3) 0.1922(4)
O17_2 O 0.4905(5) 0.2921(4) 0.1010(4)
O18_2 O 0.5734(5) 0.0210(3) 0.1741(5)
N5_2 N 0.4978(6) 0.0954(4) 0.0820(6)
C23_2 C 0.5066(7) 0.2307(5) 0.1164(7)
C24_2 C 0.4648(8) 0.1497(6) 0.0574(7)
H29_2 H 0.406110 0.118455 0.090002
C28_2 C 0.4770(9) 0.0233(5) 0.0465(7)
H41_2 H 0.766357 0.037589 0.009891
C7_2 C 0.8435(18) 0.2858(19) 0.9452(18)
H3_2 H 0.900996 0.308828 0.912309
H4_2 H 0.810061 0.221982 0.938248
C8_2 C 0.7946(12) 0.3284(18) 0.904(2)
H5_2 H 0.740537 0.288997 0.941742
H6_2 H 0.785059 0.301272 0.835291
C9_2 C 0.8806(12) 0.4997(17) 0.863(2)
H7_2 H 0.882357 0.553605 0.842672
H8_2 H 0.906416 0.506646 0.931303
H9_2 H 0.913336 0.486250 0.812486
H12_2 H 0.982992 0.796021 0.917585
S1_2 S 0.7577(8) 0.4032(13) 0.866(2)
C18_2 C 0.7142(19) 0.5577(26) 0.9452(18)
H17_2 H 0.691172 0.592168 0.912309
H18_2 H 0.778018 0.588079 0.938248
C19_2 C 0.6716(18) 0.4662(22) 0.904(2)
H19_2 H 0.711003 0.451540 0.941742
H20_2 H 0.698728 0.483787 0.835291
C20_2 C 0.5003(17) 0.3809(21) 0.863(2)
H21_2 H 0.446395 0.328752 0.842672
H22_2 H 0.493354 0.399770 0.931303
H23_2 H 0.513750 0.427086 0.812486
C22_2 C 0.2169(23) 0.2237(29) 0.979(2)
H26_2 H 0.203979 0.186971 0.917585
S3_2 S 0.5968(13) 0.3545(15) 0.866(2)
S4_2 S 0.2275(16) 0.3283(21) 0.941(2)
C29_2 C 0.4423(26) 0.1565(18) 0.9452(18)
H31_2 H 0.407832 0.099004 0.912309
H32_2 H 0.411921 0.189939 0.938248
C30_2 C 0.5338(22) 0.2054(12) 0.904(2)
H33_2 H 0.548460 0.259463 0.941742
H34_2 H 0.516213 0.214941 0.835291
C31_2 C 0.6191(21) 0.1194(12) 0.863(2)
H35_2 H 0.671248 0.117643 0.842672
H36_2 H 0.600230 0.093584 0.931303
H37_2 H 0.572914 0.086664 0.812486
H40_2 H 0.813029 0.017008 0.917585
S5_2 S 0.6455(15) 0.2423(8) 0.866(2)
C25_2 C 0.5223(7) 0.9822(5) 0.1014(6)
C26_2 C 0.4888(9) 0.7666(5) 0.0294(8)
C27_2 C 0.5319(13) 0.8457(7) 0.1086(8)
H30_2 H 0.516875 0.829633 0.182788
C32_2 C 0.6389(31) 0.8882(19) 0.079(2)
H38_2 H 0.659206 0.851834 0.113134
H39_2 H 0.670970 0.946437 0.110628
H42_2 H 0.805112 0.974836 0.028984
C33_2 C 0.7763(29) 0.9932(17) 0.979(2)
S6_2 S 0.6717(21) 0.8992(13) 0.941(2)
loop_
_geom_bond_atom_site_label_1
_geom_bond_atom_site_label_2
_geom_bond_site_symmetry_1
_geom_bond_site_symmetry_2
O19 C26 1_555 1_555
O20 C26 1_555 1_555
N6 C25 1_555 1_555
C26 C27 1_555 1_555
C27 N6 1_555 1_555
H30 C27 1_555 1_555
C32 C27 1_555 1_555
H38 C32 1_555 1_555
H39 C32 1_555 1_555
H42 C33 1_555 1_555
S6 C32 1_555 1_555
Cu8 O19 1_555 1_555
Cu12 O20 1_555 1_555
Sr4 O19 1_555 1_555
O21 Cu8 1_555 1_555
N6 Cu8 1_555 1_555
C33 S6 1_555 1_555
Cu1 O2 1_555 1_555
Cu2 O1 1_555 1_555
Sr1 O1 1_555 1_555
O1 Cu5 1_555 1_555
O2 Sr1 1_555 1_555
O3 C1 1_555 1_555
O4 Cu1 1_555 1_555
N1 Cu1 1_555 1_555
C1 O2 1_555 1_555
C2 N1 1_555 1_555
H1 C2 1_555 1_555
C6 N1 1_555 1_555
C7 C2 1_555 1_555
H3 C7 1_555 1_555
H4 C7 1_555 1_555
C8 C7 1_555 1_555
H5 C8 1_555 1_555
H6 C8 1_555 1_555
C9 H7 1_555 1_555
H8 C9 1_555 1_555
H9 C9 1_555 1_555
S1 C8 1_555 1_555
Cu3 O9 1_555 1_555
Cu4 O8 1_555 1_555
O8 Cu1 1_555 1_555
O9 Sr1 1_555 1_555
O10 Cu1 1_555 1_555
O11 Cu3 1_555 1_555
O12 C15 1_555 1_555
O13 C15 1_555 1_555
O14 C17 1_555 1_555
N3 Cu3 1_555 1_555
N4 C14 1_555 1_555
C12 O9 1_555 1_555
C13 N3 1_555 1_555
H15 C13 1_555 1_555
C14 O11 1_555 1_555
C15 C16 1_555 1_555
C16 N4 1_555 1_555
H16 C16 1_555 1_555
C17 N3 1_555 1_555
C18 C13 1_555 1_555
H17 C18 1_555 1_555
H18 C18 1_555 1_555
C19 C18 1_555 1_555
H19 C19 1_555 1_555
H20 C19 1_555 1_555
C20 H21 1_555 1_555
H22 C20 1_555 1_555
H23 C20 1_555 1_555
C21 C16 1_555 1_555
H24 C21 1_555 1_555
H25 C21 1_555 1_555
C22 H26 1_555 1_555
H27 C22 1_555 1_555
H28 C22 1_555 1_555
S3 C19 1_555 1_555
S4 C21 1_555 1_555
Cu5 O3 1_555 1_555
Cu6 O15 1_555 1_555
O15 Sr1 1_555 1_555
O16 Sr1 1_555 1_555
O17 Cu3 1_555 1_555
O18 Cu5 1_555 1_555
N5 Cu5 1_555 1_555
C23 O16 1_555 1_555
C24 N5 1_555 1_555
H29 C24 1_555 1_555
C28 N5 1_555 1_555
C29 C24 1_555 1_555
H31 C29 1_555 1_555
H32 C29 1_555 1_555
C30 C29 1_555 1_555
H33 C30 1_555 1_555
H34 C30 1_555 1_555
C31 H35 1_555 1_555
H36 C31 1_555 1_555
H37 C31 1_555 1_555
S5 C30 1_555 1_555
Cu10 O13 1_555 1_555
Cu12 O12 1_555 1_555
Sr4 O12 1_555 1_555
O22 Sr1 1_555 1_555
O23 Sr1 1_555 1_555
O24 Cu2 1_555 1_555
O28 Cu4 1_555 1_555
O29 Cu6 1_555 1_555
O30 Cu2 1_555 1_555
Sr1 O8 1_555 1_555
Sr1 O24 1_555 1_555
C1 C2 1_555 1_555
C9 S1 1_555 1_555
Cu3 O15 1_555 1_555
Cu4 O22 1_555 1_555
O10 C12 1_555 1_555
O14 Cu12 1_555 1_555
N4 Cu12 1_555 1_555
C12 C13 1_555 1_555
C14 C17 1_555 1_555
C20 S3 1_555 1_555
C22 S4 1_555 1_555
Cu5 O16 1_555 1_555
Cu6 O23 1_555 1_555
O17 C23 1_555 1_555
C23 C24 1_555 1_555
C31 S5 1_555 1_555
O5 C4 1_555 1_555
O6 C4 1_555 1_555
N2 C3 1_555 1_555
C4 C5 1_555 1_555
C5 N2 1_555 1_555
H2 C5 1_555 1_555
C10 C5 1_555 1_555
H10 C10 1_555 1_555
H11 C10 1_555 1_555
H14 C11 1_555 1_555
S2 C10 1_555 1_555
Cu8 O6 1_555 1_555
Cu10 O5 1_555 1_555
Sr4 O5 1_555 1_555
O7 Cu10 1_555 1_555
N2 Cu10 1_555 1_555
C11 S2 1_555 1_555
O25 C4_2 1_555 1_555
N7 C3_2 1_555 1_555
C4_2 C5_2 1_555 1_555
C5_2 N7 1_555 1_555
H2_2 C5_2 1_555 1_555
C10_2 C5_2 1_555 1_555
H10_2 C10_2 1_555 1_555
H11_2 C10_2 1_555 1_555
C11_2 S2_2 1_555 1_555
Cu1_2 O2_2 1_555 1_555
Cu8 O1_2 1_555 1_555
Sr4 O1_2 1_555 1_555
O1_2 Cu5_2 1_555 1_555
O2_2 Sr4 1_555 1_555
O3_2 C1_2 1_555 1_555
O4_2 Cu1_2 1_555 1_555
N1_2 Cu1_2 1_555 1_555
C1_2 O2_2 1_555 1_555
C2_2 N1_2 1_555 1_555
H1_2 C2_2 1_555 1_555
C6_2 N1_2 1_555 1_555
Cu3_2 O9_2 1_555 1_555
Cu10 O8_2 1_555 1_555
O8_2 Cu1_2 1_555 1_555
O9_2 Sr4 1_555 1_555
O10_2 Cu1_2 1_555 1_555
O11_2 Cu3_2 1_555 1_555
O26 C15_2 1_555 1_555
N3_2 Cu3_2 1_555 1_555
N8 C14_2 1_555 1_555
C12_2 O9_2 1_555 1_555
C13_2 N3_2 1_555 1_555
H15_2 C13_2 1_555 1_555
C14_2 O11_2 1_555 1_555
C15_2 C16_2 1_555 1_555
C16_2 N8 1_555 1_555
H16_2 C16_2 1_555 1_555
C17_2 N3_2 1_555 1_555
C21_2 C16_2 1_555 1_555
H24_2 C21_2 1_555 1_555
H25_2 C21_2 1_555 1_555
Cu5_2 O3_2 1_555 1_555
Cu12 O15_2 1_555 1_555
O15_2 Sr4 1_555 1_555
O16_2 Sr4 1_555 1_555
O17_2 Cu3_2 1_555 1_555
O18_2 Cu5_2 1_555 1_555
N5_2 Cu5_2 1_555 1_555
C23_2 O16_2 1_555 1_555
C24_2 N5_2 1_555 1_555
H29_2 C24_2 1_555 1_555
C28_2 N5_2 1_555 1_555
Sr4 O8_2 1_555 1_555
C1_2 C2_2 1_555 1_555
Cu3_2 O15_2 1_555 1_555
O10_2 C12_2 1_555 1_555
C12_2 C13_2 1_555 1_555
C14_2 C17_2 1_555 1_555
Cu5_2 O16_2 1_555 1_555
O17_2 C23_2 1_555 1_555
C23_2 C24_2 1_555 1_555
H3_2 C7_2 1_555 1_555
H4_2 C7_2 1_555 1_555
C8_2 C7_2 1_555 1_555
H5_2 C8_2 1_555 1_555
H6_2 C8_2 1_555 1_555
C9_2 H7_2 1_555 1_555
H8_2 C9_2 1_555 1_555
H9_2 C9_2 1_555 1_555
S1_2 C8_2 1_555 1_555
H17_2 C18_2 1_555 1_555
H18_2 C18_2 1_555 1_555
C19_2 C18_2 1_555 1_555
H19_2 C19_2 1_555 1_555
H20_2 C19_2 1_555 1_555
C20_2 H21_2 1_555 1_555
H22_2 C20_2 1_555 1_555
H23_2 C20_2 1_555 1_555
C22_2 H26_2 1_555 1_555
S3_2 C19_2 1_555 1_555
H31_2 C29_2 1_555 1_555
H32_2 C29_2 1_555 1_555
C30_2 C29_2 1_555 1_555
H33_2 C30_2 1_555 1_555
H34_2 C30_2 1_555 1_555
C31_2 H35_2 1_555 1_555
H36_2 C31_2 1_555 1_555
H37_2 C31_2 1_555 1_555
S5_2 C30_2 1_555 1_555
C9_2 S1_2 1_555 1_555
C20_2 S3_2 1_555 1_555
C22_2 S4_2 1_555 1_555
C31_2 S5_2 1_555 1_555
O27 C26_2 1_555 1_555
N9 C25_2 1_555 1_555
C26_2 C27_2 1_555 1_555
C27_2 N9 1_555 1_555
H30_2 C27_2 1_555 1_555
C32_2 C27_2 1_555 1_555
H38_2 C32_2 1_555 1_555
H39_2 C32_2 1_555 1_555
C33_2 S6_2 1_555 1_555

#END
