
###############################################################################
#
# This file contains modified crystal structure data generated from the
# MOF subset of the Cambridge Structural Database (CSD) v543 
# hosted by the Cambridge Crystallographic Data Centre (CCDC).
#
# This work is licensed under the Creative Commons
# Attribution-NonCommercial-ShareAlike 4.0 International License.
# To view a copy of this license, visit
# http://creativecommons.org/licenses/by-nc-sa/4.0/
# or send a letter to
# Creative Commons, PO Box 1866, Mountain View, CA 94042, USA.
#
# CIF created using the CSD Python API on 29 September 2022
# The structure has been converted into the P1 space group
# The structure has a 3D framework
# The original CSD entry VEBPEB is in the orthorhombic crystal system
# The framework has been calculated to contain at least 10.0% void space
# The void calculation uses a probe of radius 1.32A, grid spacing 0.4
#
###############################################################################

data_VEBPEB
_chemical_formula_moiety         '(C24 H20 Co4 N8 O6)n'
_symmetry_cell_setting           triclinic
_symmetry_space_group_name_H-M   'P 1'
_symmetry_Int_Tables_number      1
_space_group_name_Hall           'P 1'
loop_
_symmetry_equiv_pos_site_id
_symmetry_equiv_pos_as_xyz
1 x,y,z
_cell_length_a                   12.200(2)
_cell_length_b                   6.7830(14)
_cell_length_c                   10.707(2)
_cell_angle_alpha                90
_cell_angle_beta                 90
_cell_angle_gamma                90
_cell_volume                     886.032
loop_
_atom_site_label
_atom_site_type_symbol
_atom_site_fract_x
_atom_site_fract_y
_atom_site_fract_z
Co3 Co -0.000000 0.500000 0.77944(12)
Co1 Co 0.500000 -0.000000 0.27944(12)
H5 H 0.609671 0.078083 0.525487
N3 N 0.2523(3) 0.6074(5) 0.4264(3)
H6 H 0.202302 0.666012 0.469086
H7 H 0.281527 0.665451 0.363230
C7 C 0.2830(3) 0.1278(5) 0.5832(3)
H8 H 0.255824 0.055427 0.650192
C8 C 0.2425(2) 0.3160(4) 0.5603(3)
C9 C 0.2851(3) 0.4238(4) 0.4586(3)
C10 C 0.3656(2) 0.3288(5) 0.3851(3)
H9 H 0.394487 0.396623 0.317134
C11 C 0.1547(2) 0.3971(5) 0.6422(3)
O3 O 0.11262(17) 0.2852(4) 0.7258(2)
N4 N 0.40227(19) 0.1472(4) 0.4078(2)
C12 C 0.3631(3) 0.0468(6) 0.5076(3)
O4 O 0.1200(2) 0.5705(4) 0.6286(2)
O6 O 0.61262(17) 0.2148(4) 0.2258(2)
O7 O 0.3800(2) 0.0705(4) 0.1286(2)
C3 C 0.2149(3) 0.9238(4) 0.9586(3)
C4 C 0.1344(2) 0.8288(5) 0.8851(3)
H4 H 0.105513 0.896623 0.817134
N2 N 0.09773(19) 0.6472(4) 0.9078(2)
C7_2 C 0.7830(3) 0.3722(5) 0.0832(3)
H8_2 H 0.755824 0.444573 0.150192
C8_2 C 0.7425(2) 0.1840(4) 0.0603(3)
C11_2 C 0.6547(2) 0.1029(5) 0.1422(3)
C12_2 C 0.8631(3) 0.4532(6) 0.0076(3)
H10 H 0.890329 0.578083 0.025487
N1 N 0.7477(3) 0.3926(5) 0.4264(3)
H1 H 0.797698 0.333988 0.469086
H2 H 0.718473 0.334549 0.363230
C1 C 0.7170(3) 0.8722(5) 0.5832(3)
H3 H 0.744176 0.944573 0.650192
C2 C 0.7575(2) 0.6840(4) 0.5603(3)
C3_2 C 0.7149(3) 0.5762(4) 0.4586(3)
C4_2 C 0.6344(2) 0.6712(5) 0.3851(3)
H4_2 H 0.605513 0.603377 0.317134
C5 C 0.8453(2) 0.6029(5) 0.6422(3)
Co1_2 Co 0.500000 1.000000 0.27944(12)
O1 O 0.88738(17) 0.7148(4) 0.7258(2)
N2_2 N 0.59773(19) 0.8528(4) 0.4078(2)
C6 C 0.6369(3) 0.9532(6) 0.5076(3)
O2 O 0.8800(2) 0.4295(4) 0.6286(2)
H10_2 H 0.390329 0.921917 0.525487
Co3_2 Co 1.000000 0.500000 0.77944(12)
O5 O 0.38738(17) 0.7852(4) 0.2258(2)
O8 O 0.6200(2) 0.9295(4) 0.1286(2)
C1_2 C 0.2170(3) 0.6278(5) 0.0832(3)
H3_2 H 0.244176 0.555427 0.150192
C2_2 C 0.2575(2) 0.8160(4) 0.0603(3)
C5_2 C 0.3453(2) 0.8971(5) 0.1422(3)
C6_2 C 0.1369(3) 0.5468(6) 0.0076(3)
H5_2 H 0.109671 0.421917 0.025487
C9_2 C 0.7851(3) 0.0762(4) 0.9586(3)
C10_2 C 0.8656(2) 0.1712(5) 0.8851(3)
H9_2 H 0.894487 0.103377 0.817134
N4_2 N 0.90227(19) 0.3528(4) 0.9078(2)
N1_2 N 0.2477(3) 0.1074(5) 0.9264(3)
H1_2 H 0.297698 0.166012 0.969086
H2_2 H 0.218473 0.165451 0.863230
N3_2 N 0.7523(3) 0.8926(5) 0.9264(3)
H6_2 H 0.702302 0.833988 0.969086
H7_2 H 0.781527 0.834549 0.863230
loop_
_geom_bond_atom_site_label_1
_geom_bond_atom_site_label_2
_geom_bond_site_symmetry_1
_geom_bond_site_symmetry_2
N3 H6 1_555 1_555
H7 N3 1_555 1_555
C7 H8 1_555 1_555
C8 C7 1_555 1_555
C9 N3 1_555 1_555
C10 C9 1_555 1_555
H9 C10 1_555 1_555
C11 C8 1_555 1_555
O3 C11 1_555 1_555
N4 Co1 1_555 1_555
C12 C7 1_555 1_555
O4 C11 1_555 1_555
Co3 O3 1_555 1_555
O6 Co1 1_555 1_555
O7 Co1 1_555 1_555
C8 C9 1_555 1_555
C10 N4 1_555 1_555
N4 C12 1_555 1_555
O4 Co3 1_555 1_555
C4 C3 1_555 1_555
H4 C4 1_555 1_555
Co3 N2 1_555 1_555
N2 C4 1_555 1_555
C7_2 H8_2 1_555 1_555
C8_2 C7_2 1_555 1_555
C11_2 C8_2 1_555 1_555
O6 C11_2 1_555 1_555
C12_2 C7_2 1_555 1_555
H10 C12_2 1_555 1_555
N1 H1 1_555 1_555
H2 N1 1_555 1_555
C1 H3 1_555 1_555
C2 C1 1_555 1_555
C3_2 N1 1_555 1_555
C4_2 C3_2 1_555 1_555
H4_2 C4_2 1_555 1_555
C5 C2 1_555 1_555
Co1_2 N2_2 1_555 1_555
O1 C5 1_555 1_555
N2_2 C4_2 1_555 1_555
C6 C1 1_555 1_555
O2 C5 1_555 1_555
Co3_2 O1 1_555 1_555
O5 Co1_2 1_555 1_555
O8 Co1_2 1_555 1_555
C2 C3_2 1_555 1_555
N2_2 C6 1_555 1_555
O2 Co3_2 1_555 1_555
C1_2 H3_2 1_555 1_555
C2_2 C1_2 1_555 1_555
C5_2 C2_2 1_555 1_555
O5 C5_2 1_555 1_555
C6_2 C1_2 1_555 1_555
H5_2 C6_2 1_555 1_555
C10_2 C9_2 1_555 1_555
H9_2 C10_2 1_555 1_555
N4_2 Co3_2 1_555 1_555
C10_2 N4_2 1_555 1_555
N1_2 H1_2 1_555 1_555
H2_2 N1_2 1_555 1_555
N3_2 H6_2 1_555 1_555
H7_2 N3_2 1_555 1_555

#END
