
###############################################################################
#
# This file contains modified crystal structure data generated from the
# MOF subset of the Cambridge Structural Database (CSD) v543 
# hosted by the Cambridge Crystallographic Data Centre (CCDC).
#
# This work is licensed under the Creative Commons
# Attribution-NonCommercial-ShareAlike 4.0 International License.
# To view a copy of this license, visit
# http://creativecommons.org/licenses/by-nc-sa/4.0/
# or send a letter to
# Creative Commons, PO Box 1866, Mountain View, CA 94042, USA.
#
# CIF created using the CSD Python API on 29 September 2022
# The structure has been converted into the P1 space group
# The structure has a 3D framework
# The original CSD entry VECCAL is in the monoclinic crystal system
# The framework has been calculated to contain at least 10.0% void space
# The void calculation uses a probe of radius 1.32A, grid spacing 0.4
#
###############################################################################

data_VECCAL
_chemical_formula_moiety         '(C52 H32 Cd4 N20 O18)n'
_symmetry_cell_setting           triclinic
_symmetry_space_group_name_H-M   'P 1'
_symmetry_Int_Tables_number      1
_space_group_name_Hall           'P 1'
loop_
_symmetry_equiv_pos_site_id
_symmetry_equiv_pos_as_xyz
1 x,y,z
_cell_length_a                   10.0457(13)
_cell_length_b                   14.9500(15)
_cell_length_c                   13.2054(17)
_cell_angle_alpha                90
_cell_angle_beta                 97.794(12)
_cell_angle_gamma                90
_cell_volume                     1964.91
loop_
_atom_site_label
_atom_site_type_symbol
_atom_site_fract_x
_atom_site_fract_y
_atom_site_fract_z
O2 O 0.1232(14) 0.4961(8) 0.6951(10)
O3 O 0.0485(11) 0.5171(9) 0.8413(9)
C9 C 0.028(2) 0.4975(11) 0.7474(15)
Cd4 Cd 0.29434(14) 0.52360(9) 0.83232(10)
Cd1 Cd 0.70566(14) 0.47640(9) 0.16768(10)
O1 O 0.6914(15) 0.4254(9) 0.0038(10)
O4 O 0.5420(11) 0.5139(8) 0.8447(9)
O5 O 0.4160(12) 0.4848(8) 0.6984(9)
N1 N 0.7065(18) 0.3270(10) 0.2220(11)
N2 N 0.7417(19) 0.1810(10) 0.1923(12)
N3 N 0.7973(17) 0.1304(10) 0.3699(12)
N4 N 0.7960(18) 0.2496(10) 0.4925(12)
N5 N 0.7225(17) 0.3934(10) 0.4472(12)
H3 H 0.69(2) 0.436(13) 0.397(15)
C1 C 0.708(3) 0.2642(13) 0.1519(16)
H4 H 0.688551 0.275054 0.082136
C2 C 0.761(2) 0.1932(12) 0.2975(14)
C3 C 0.815(2) 0.1650(13) 0.4633(15)
H5 H 0.845385 0.125337 0.515700
C4 C 0.753(2) 0.3110(12) 0.4183(14)
C5 C 0.740(2) 0.2824(12) 0.3147(14)
C6 C 0.7424(19) 0.4236(12) 0.5514(14)
C7 C 0.8708(18) 0.4431(11) 0.5982(14)
H6 H 0.944244 0.434165 0.563388
C8 C 0.8892(18) 0.4760(12) 0.6974(13)
C10 C 0.7789(19) 0.4906(11) 0.7489(13)
H7 H 0.791222 0.512141 0.815609
C11 C 0.6513(18) 0.4729(12) 0.7003(13)
C12 C 0.5285(19) 0.4908(10) 0.7514(14)
C13 C 0.6321(19) 0.4386(11) 0.6015(14)
H8 H 0.545979 0.425897 0.569368
O6 O 0.8768(14) 0.5039(8) 0.3049(10)
O7 O 0.9515(11) 0.4829(9) 0.1587(9)
O8 O 0.4580(11) 0.4861(8) 0.1553(9)
O9 O 0.5840(12) 0.5152(8) 0.3016(9)
N6 N 0.7027(17) 0.6304(10) 0.1301(12)
Cd2 Cd 0.79434(14) 0.97640(9) 0.33232(10)
Cd3 Cd 0.20566(14) 0.02360(9) 0.66768(10)
O8_2 O 0.0420(11) 0.9861(8) 0.3447(9)
O5_2 O 0.0840(12) 0.9848(8) 0.8016(9)
O6_2 O 0.6232(14) 0.0039(8) 0.1951(10)
O9_2 O 0.9160(12) 0.0152(8) 0.1984(9)
O3_2 O 0.4515(11) 0.0171(9) 0.6587(9)
O4_2 O 0.9580(11) 0.0139(8) 0.6553(9)
H7_2 H 0.708778 0.012141 0.684391
O1_2 O 0.8086(15) 0.9254(9) 0.4962(10)
H1 H 0.855(19) 0.956(12) 0.545(12)
H2 H 0.731(13) 0.911(14) 0.518(16)
N1_2 N 0.7935(18) 0.8270(10) 0.2780(11)
N2_2 N 0.7583(19) 0.6810(10) 0.3077(12)
N4_2 N 0.7040(18) 0.7496(10) 0.0075(12)
N5_2 N 0.7775(17) 0.8934(10) 0.0528(12)
H3_2 H 0.81(2) 0.936(13) 0.103(15)
C1_2 C 0.792(3) 0.7642(13) 0.3481(16)
H4_2 H 0.811449 0.775054 0.417864
C2_2 C 0.739(2) 0.6932(12) 0.2025(14)
C3_2 C 0.685(2) 0.6650(13) 0.0367(15)
C4_2 C 0.747(2) 0.8110(12) 0.0817(14)
C5_2 C 0.760(2) 0.7824(12) 0.1853(14)
O7_2 O 0.5485(11) 0.9829(9) 0.3413(9)
O2_2 O 0.3768(14) 0.9961(8) 0.8049(10)
H5_2 H 0.654615 0.625337 0.984300
C6_2 C 0.7576(19) 0.9236(12) 0.9486(14)
C7_2 C 0.6292(18) 0.9431(11) 0.9018(14)
H6_2 H 0.555756 0.934165 0.936612
C8_2 C 0.6108(18) 0.9760(12) 0.8026(13)
C9_2 C 0.472(2) 0.9975(11) 0.7526(15)
C10_2 C 0.7211(19) 0.9906(11) 0.7511(13)
C11_2 C 0.8487(18) 0.9729(12) 0.7997(13)
C12_2 C 0.9715(19) 0.9908(10) 0.7486(14)
C13_2 C 0.8679(19) 0.9386(11) 0.8985(14)
H8_2 H 0.954021 0.925897 0.930632
O1_3 O 0.3086(15) 0.5746(9) 0.9962(10)
N1_3 N 0.2935(18) 0.6730(10) 0.7780(11)
N2_3 N 0.2583(19) 0.8190(10) 0.8077(12)
N3_2 N 0.2027(17) 0.8696(10) 0.6301(12)
N4_3 N 0.2040(18) 0.7504(10) 0.5075(12)
N5_3 N 0.2775(17) 0.6066(10) 0.5528(12)
H3_3 H 0.31(2) 0.564(13) 0.603(15)
C1_3 C 0.292(3) 0.7358(13) 0.8481(16)
H4_3 H 0.311449 0.724946 0.917864
C2_3 C 0.239(2) 0.8068(12) 0.7025(14)
C3_3 C 0.185(2) 0.8350(13) 0.5367(15)
H5_3 H 0.154615 0.874663 0.484300
C4_3 C 0.247(2) 0.6890(12) 0.5817(14)
C5_3 C 0.260(2) 0.7176(12) 0.6853(14)
C6_3 C 0.2576(19) 0.5764(12) 0.4486(14)
C7_3 C 0.1292(18) 0.5569(11) 0.4018(14)
H6_3 H 0.055756 0.565835 0.436612
C8_3 C 0.1108(18) 0.5240(12) 0.3026(13)
C10_3 C 0.2211(19) 0.5094(11) 0.2511(13)
H7_3 H 0.208778 0.487859 0.184391
C11_3 C 0.3487(18) 0.5271(12) 0.2997(13)
C12_3 C 0.4715(19) 0.5092(10) 0.2486(14)
C13_3 C 0.3679(19) 0.5614(11) 0.3985(14)
H8_3 H 0.454021 0.574103 0.430632
N6_2 N 0.2973(17) 0.3696(10) 0.8699(12)
C9_3 C 0.972(2) 0.5025(11) 0.2526(15)
H5_4 H 0.345385 0.374663 0.015700
C6_4 C 0.2424(19) 0.0764(12) 0.0514(14)
C7_4 C 0.3708(18) 0.0569(11) 0.0982(14)
H6_4 H 0.444244 0.065835 0.063388
C8_4 C 0.3892(18) 0.0240(12) 0.1974(13)
C9_4 C 0.528(2) 0.0025(11) 0.2474(15)
C10_4 C 0.2789(19) 0.0094(11) 0.2489(13)
C11_4 C 0.1513(18) 0.0271(12) 0.2003(13)
C12_4 C 0.0285(19) 0.0092(10) 0.2514(14)
C13_4 C 0.1321(19) 0.0614(11) 0.1015(14)
H8_4 H 0.045979 0.074103 0.069368
O1_4 O 0.1914(15) 0.0746(9) 0.5038(10)
H1_2 H 0.145(19) 0.044(12) 0.455(12)
H2_2 H 0.269(13) 0.089(14) 0.482(16)
N1_4 N 0.2065(18) 0.1730(10) 0.7220(11)
N2_4 N 0.2417(19) 0.3190(10) 0.6923(12)
N4_4 N 0.2960(18) 0.2504(10) 0.9925(12)
N5_4 N 0.2225(17) 0.1066(10) 0.9472(12)
H3_4 H 0.19(2) 0.064(13) 0.897(15)
C1_4 C 0.208(3) 0.2358(13) 0.6519(16)
H4_4 H 0.188551 0.224946 0.582136
C2_4 C 0.261(2) 0.3068(12) 0.7975(14)
C3_4 C 0.315(2) 0.3350(13) 0.9633(15)
C4_4 C 0.253(2) 0.1890(12) 0.9183(14)
C5_4 C 0.240(2) 0.2176(12) 0.8147(14)
H7_4 H 0.291222 0.987859 0.315609
H1_3 H 0.645(19) 0.456(12) 0.955(12)
H2_3 H 0.769(13) 0.411(14) 0.982(16)
H1_4 H 0.355(19) 0.544(12) 0.045(12)
H2_4 H 0.231(13) 0.589(14) 0.018(16)
loop_
_geom_bond_atom_site_label_1
_geom_bond_atom_site_label_2
_geom_bond_site_symmetry_1
_geom_bond_site_symmetry_2
O2 C9 1_555 1_555
O3 C9 1_555 1_555
Cd4 O2 1_555 1_555
O3 Cd4 1_555 1_555
Cd1 O1 1_555 1_555
O4 C12 1_555 1_555
O5 C12 1_555 1_555
N1 Cd1 1_555 1_555
N2 C1 1_555 1_555
N3 C2 1_555 1_555
N4 C3 1_555 1_555
N5 H3 1_555 1_555
C1 N1 1_555 1_555
H4 C1 1_555 1_555
C2 N2 1_555 1_555
C3 N3 1_555 1_555
H5 C3 1_555 1_555
C4 N4 1_555 1_555
C5 N1 1_555 1_555
C6 N5 1_555 1_555
C7 C6 1_555 1_555
H6 C7 1_555 1_555
C8 C7 1_555 1_555
C10 C8 1_555 1_555
H7 C10 1_555 1_555
C11 C10 1_555 1_555
C12 C11 1_555 1_555
C13 C6 1_555 1_555
H8 C13 1_555 1_555
Cd4 O4 1_555 1_555
O6 Cd1 1_555 1_555
O7 Cd1 1_555 1_555
O8 Cd1 1_555 1_555
O9 Cd1 1_555 1_555
N6 Cd1 1_555 1_555
O5 Cd4 1_555 1_555
N5 C4 1_555 1_555
C2 C5 1_555 1_555
C4 C5 1_555 1_555
C11 C13 1_555 1_555
O3_2 Cd3 1_555 1_555
Cd2 O1_2 1_555 1_555
O1_2 H1 1_555 1_555
H2 O1_2 1_555 1_555
N1_2 Cd2 1_555 1_555
N2_2 C1_2 1_555 1_555
N6 C2_2 1_555 1_555
N4_2 C3_2 1_555 1_555
N5_2 H3_2 1_555 1_555
C1_2 N1_2 1_555 1_555
H4_2 C1_2 1_555 1_555
C2_2 N2_2 1_555 1_555
C3_2 N6 1_555 1_555
C4_2 N4_2 1_555 1_555
C5_2 N1_2 1_555 1_555
O7_2 Cd2 1_555 1_555
N5_2 C4_2 1_555 1_555
C2_2 C5_2 1_555 1_555
C4_2 C5_2 1_555 1_555
O2_2 C9_2 1_555 1_555
C7_2 C6_2 1_555 1_555
H6_2 C7_2 1_555 1_555
C8_2 C7_2 1_555 1_555
C9_2 C8_2 1_555 1_555
C10_2 C8_2 1_555 1_555
C11_2 C10_2 1_555 1_555
C12_2 C11_2 1_555 1_555
C13_2 C6_2 1_555 1_555
H8_2 C13_2 1_555 1_555
C11_2 C13_2 1_555 1_555
Cd4 O1_3 1_555 1_555
O8 C12_3 1_555 1_555
O9 C12_3 1_555 1_555
N1_3 Cd4 1_555 1_555
N2_3 C1_3 1_555 1_555
N3_2 C2_3 1_555 1_555
N4_3 C3_3 1_555 1_555
N5_3 H3_3 1_555 1_555
C1_3 N1_3 1_555 1_555
H4_3 C1_3 1_555 1_555
C2_3 N2_3 1_555 1_555
C3_3 N3_2 1_555 1_555
H5_3 C3_3 1_555 1_555
C4_3 N4_3 1_555 1_555
C5_3 N1_3 1_555 1_555
C6_3 N5_3 1_555 1_555
C7_3 C6_3 1_555 1_555
H6_3 C7_3 1_555 1_555
C8_3 C7_3 1_555 1_555
C10_3 C8_3 1_555 1_555
H7_3 C10_3 1_555 1_555
C11_3 C10_3 1_555 1_555
C12_3 C11_3 1_555 1_555
C13_3 C6_3 1_555 1_555
H8_3 C13_3 1_555 1_555
N6_2 Cd4 1_555 1_555
N5_3 C4_3 1_555 1_555
C2_3 C5_3 1_555 1_555
C4_3 C5_3 1_555 1_555
C11_3 C13_3 1_555 1_555
O6 C9_3 1_555 1_555
O7 C9_3 1_555 1_555
O6_2 C9_4 1_555 1_555
C7_4 C6_4 1_555 1_555
H6_4 C7_4 1_555 1_555
C8_4 C7_4 1_555 1_555
C9_4 C8_4 1_555 1_555
C10_4 C8_4 1_555 1_555
C11_4 C10_4 1_555 1_555
C12_4 C11_4 1_555 1_555
C13_4 C6_4 1_555 1_555
H8_4 C13_4 1_555 1_555
C11_4 C13_4 1_555 1_555
Cd3 O1_4 1_555 1_555
O1_4 H1_2 1_555 1_555
H2_2 O1_4 1_555 1_555
N1_4 Cd3 1_555 1_555
N2_4 C1_4 1_555 1_555
N6_2 C2_4 1_555 1_555
N4_4 C3_4 1_555 1_555
N5_4 H3_4 1_555 1_555
C1_4 N1_4 1_555 1_555
H4_4 C1_4 1_555 1_555
C2_4 N2_4 1_555 1_555
C3_4 N6_2 1_555 1_555
C4_4 N4_4 1_555 1_555
C5_4 N1_4 1_555 1_555
N5_4 C4_4 1_555 1_555
C2_4 C5_4 1_555 1_555
C4_4 C5_4 1_555 1_555

#END
