
###############################################################################
#
# This file contains modified crystal structure data generated from the
# MOF subset of the Cambridge Structural Database (CSD) v543 
# hosted by the Cambridge Crystallographic Data Centre (CCDC).
#
# This work is licensed under the Creative Commons
# Attribution-NonCommercial-ShareAlike 4.0 International License.
# To view a copy of this license, visit
# http://creativecommons.org/licenses/by-nc-sa/4.0/
# or send a letter to
# Creative Commons, PO Box 1866, Mountain View, CA 94042, USA.
#
# CIF created using the CSD Python API on 29 September 2022
# The structure has been converted into the P1 space group
# The structure has a 3D framework
# The original CSD entry VECGOC is in the monoclinic crystal system
# The framework has been calculated to contain at least 10.0% void space
# The void calculation uses a probe of radius 1.32A, grid spacing 0.4
#
###############################################################################

data_VECGOC
_chemical_formula_moiety         '(C20 H68 Eu4 N4 O44 P8 S4)n'
_symmetry_cell_setting           triclinic
_symmetry_space_group_name_H-M   'P 1'
_symmetry_Int_Tables_number      1
_space_group_name_Hall           'P 1'
loop_
_symmetry_equiv_pos_site_id
_symmetry_equiv_pos_as_xyz
1 x,y,z
_cell_length_a                   8.3245(11)
_cell_length_b                   10.0478(13)
_cell_length_c                   24.972(3)
_cell_angle_alpha                90
_cell_angle_beta                 95.151(4)
_cell_angle_gamma                90
_cell_volume                     2080.3
loop_
_atom_site_label
_atom_site_type_symbol
_atom_site_fract_x
_atom_site_fract_y
_atom_site_fract_z
H4 H 0.010(4) 0.554(4) 0.1820(14)
Eu6 Eu 0.22673(2) 0.26235(2) 0.76125(2)
O27 O 0.0088(3) 0.6558(3) 0.28216(11)
O8 O 0.3482(3) 0.0339(2) 0.25631(11)
Eu5 Eu 0.22673(2) 0.23765(2) 0.26125(2)
Eu1 Eu 0.77327(2) 0.73765(2) 0.23875(2)
O1 O 0.6404(3) 0.7617(3) 0.14870(11)
H1 H 0.5309(18) 0.737(4) 0.1418(15)
H2 H 0.695(4) 0.750(4) 0.1175(10)
O2 O 0.9220(3) 0.6123(3) 0.17462(11)
H3 H 0.900(5) 0.623(4) 0.1370(5)
S1 S 0.79632(11) 0.83819(9) 0.35792(4)
P1 P 0.36127(11) 0.88633(9) 0.25811(4)
P2 P 0.10077(11) 0.55438(9) 0.31586(4)
O3 O 0.7166(3) 0.7139(2) 0.33678(10)
O4 O 0.8441(3) 0.9105(3) 0.31007(11)
O5 O 0.9400(3) 0.8029(3) 0.39364(11)
O6 O 0.6840(3) 0.9179(3) 0.38616(11)
O7 O 0.5183(3) 0.8265(2) 0.24718(11)
O9 O 0.2292(3) 0.8199(3) 0.21734(11)
H5 H 0.126(3) 0.859(4) 0.2167(17)
O11 O 0.0777(3) 0.4117(2) 0.29848(11)
O12 O 0.0611(3) 0.5667(3) 0.37562(11)
H6 H 0.019(5) 0.653(2) 0.3812(18)
N1 N 0.3884(4) 0.7062(3) 0.34403(13)
H7 H 0.497(2) 0.710(4) 0.3358(16)
C1 C 0.3184(5) 0.8380(4) 0.32586(15)
H8 H 0.3611 0.9075 0.3514
H9 H 0.2000 0.8346 0.3273
C2 C 0.3160(4) 0.5872(4) 0.31364(15)
H10 H 0.3755 0.5071 0.3274
H11 H 0.3367 0.5976 0.2754
C3 C 0.3920(5) 0.6961(4) 0.40449(15)
H12 H 0.2814 0.7094 0.4151
H13 H 0.4604 0.7685 0.4209
C4 C 0.4558(5) 0.5638(4) 0.42676(16)
H14 H 0.5606 0.5441 0.4126
H15 H 0.3793 0.4919 0.4149
C5 C 0.4774(6) 0.5676(4) 0.48791(17)
H16 H 0.5628 0.6327 0.4995
H17 H 0.3757 0.5982 0.5017
P3 P 0.63873(11) 0.11367(9) 0.74189(4)
P4 P 0.89923(11) 0.44562(9) 0.68414(4)
O13 O 0.4817(3) 0.1735(2) 0.75282(11)
O15 O 0.7708(3) 0.1801(3) 0.78266(11)
H18 H 0.874(3) 0.141(4) 0.7833(17)
O16 O 0.9912(3) 0.3442(3) 0.71784(11)
O17 O 0.9223(3) 0.5883(2) 0.70152(11)
O18 O 0.9389(3) 0.4333(3) 0.62438(11)
H19 H 0.981(5) 0.347(2) 0.6188(18)
N2 N 0.6116(4) 0.2938(3) 0.65597(13)
H20 H 0.503(2) 0.290(4) 0.6642(16)
C6 C 0.6816(5) 0.1620(4) 0.67414(15)
H21 H 0.6389 0.0925 0.6486
H22 H 0.8000 0.1654 0.6727
C7 C 0.6840(4) 0.4128(4) 0.68636(15)
H23 H 0.6245 0.4929 0.6726
H24 H 0.6633 0.4024 0.7246
C8 C 0.6080(5) 0.3039(4) 0.59551(15)
H25 H 0.7186 0.2906 0.5849
H26 H 0.5396 0.2315 0.5791
C9 C 0.5442(5) 0.4362(4) 0.57324(16)
H27 H 0.4394 0.4559 0.5874
H28 H 0.6207 0.5081 0.5851
C10 C 0.5226(6) 0.4324(4) 0.51209(17)
H29 H 0.4372 0.3673 0.5005
H30 H 0.6243 0.4018 0.4983
O19 O 0.3596(3) 0.2383(3) 0.85130(11)
H31 H 0.4691(18) 0.263(4) 0.8582(15)
H32 H 0.305(4) 0.250(4) 0.8825(10)
O20 O 0.0780(3) 0.3877(3) 0.82538(11)
H33 H 0.100(5) 0.377(4) 0.8630(5)
S2 S 0.20368(11) 0.16181(9) 0.64208(4)
O21 O 0.2834(3) 0.2861(2) 0.66322(10)
O22 O 0.1559(3) 0.0895(3) 0.68993(11)
O23 O 0.0600(3) 0.1971(3) 0.60636(11)
O24 O 0.3160(3) 0.0821(3) 0.61384(11)
Eu8 Eu 0.77327(2) 0.76235(2) 0.73875(2)
O25 O 0.6518(3) 0.5339(2) 0.24369(11)
O26 O 0.3482(3) 0.4661(2) 0.75631(11)
O29 O 0.9223(3) 0.9117(2) 0.20152(11)
O30 O 0.0777(3) 0.0883(2) 0.79848(11)
O14 O 0.6518(3) 0.9661(2) 0.74369(11)
H34 H 0.990(4) 0.446(4) 0.8180(14)
H34_2 H 0.010(4) 0.946(4) 0.6820(14)
O28 O 0.0088(3) 0.8442(3) 0.78216(11)
O1_2 O 0.3596(3) 0.2617(3) 0.35130(11)
H1_2 H 0.4691(18) 0.237(4) 0.3582(15)
H2_2 H 0.305(4) 0.250(4) 0.3825(10)
O2_2 O 0.0780(3) 0.1123(3) 0.32538(11)
H3_2 H 0.100(5) 0.123(4) 0.3630(5)
S1_2 S 0.20368(11) 0.33819(9) 0.14208(4)
P1_2 P 0.63873(11) 0.38633(9) 0.24189(4)
P2_2 P 0.89923(11) 0.05438(9) 0.18414(4)
O3_2 O 0.2834(3) 0.2139(2) 0.16322(10)
O4_2 O 0.1559(3) 0.4105(3) 0.18993(11)
O5_2 O 0.0600(3) 0.3029(3) 0.10636(11)
O6_2 O 0.3160(3) 0.4179(3) 0.11384(11)
O7_2 O 0.4817(3) 0.3265(2) 0.25282(11)
O9_2 O 0.7708(3) 0.3199(3) 0.28266(11)
H5_2 H 0.874(3) 0.359(4) 0.2833(17)
O10 O 0.9912(3) 0.1558(3) 0.21784(11)
O12_2 O 0.9389(3) 0.0667(3) 0.12438(11)
H6_2 H 0.981(5) 0.153(2) 0.1188(18)
N1_2 N 0.6116(4) 0.2062(3) 0.15597(13)
H7_2 H 0.503(2) 0.210(4) 0.1642(16)
C1_2 C 0.6816(5) 0.3380(4) 0.17414(15)
H8_2 H 0.6389 0.4075 0.1486
H9_2 H 0.8000 0.3346 0.1727
C2_2 C 0.6840(4) 0.0872(4) 0.18636(15)
H10_2 H 0.6245 0.0071 0.1726
H11_2 H 0.6633 0.0976 0.2246
C3_2 C 0.6080(5) 0.1961(4) 0.09551(15)
H12_2 H 0.7186 0.2094 0.0849
H13_2 H 0.5396 0.2685 0.0791
C4_2 C 0.5442(5) 0.0638(4) 0.07324(16)
H14_2 H 0.4394 0.0441 0.0874
C5_2 C 0.5226(6) 0.0676(4) 0.01209(17)
H16_2 H 0.4372 0.1327 0.0005
H17_2 H 0.6243 0.0982 0.9983
H28_2 H 0.3793 0.0081 0.9149
H15_2 H 0.6207 0.9919 0.0851
H30_2 H 0.3757 0.9018 0.0017
P3_2 P 0.36127(11) 0.61367(9) 0.75811(4)
P4_2 P 0.10077(11) 0.94562(9) 0.81586(4)
O13_2 O 0.5183(3) 0.6735(2) 0.74718(11)
O15_2 O 0.2292(3) 0.6801(3) 0.71734(11)
H18_2 H 0.126(3) 0.641(4) 0.7167(17)
O18_2 O 0.0611(3) 0.9333(3) 0.87562(11)
H19_2 H 0.019(5) 0.847(2) 0.8812(18)
N2_2 N 0.3884(4) 0.7938(3) 0.84403(13)
H20_2 H 0.497(2) 0.790(4) 0.8358(16)
C6_2 C 0.3184(5) 0.6620(4) 0.82586(15)
H21_2 H 0.3611 0.5925 0.8514
H22_2 H 0.2000 0.6654 0.8273
C7_2 C 0.3160(4) 0.9128(4) 0.81364(15)
H23_2 H 0.3755 0.9929 0.8274
H24_2 H 0.3367 0.9024 0.7754
C8_2 C 0.3920(5) 0.8039(4) 0.90449(15)
H25_2 H 0.2814 0.7906 0.9151
H26_2 H 0.4604 0.7315 0.9209
C9_2 C 0.4558(5) 0.9362(4) 0.92676(16)
H27_2 H 0.5606 0.9559 0.9126
C10_2 C 0.4774(6) 0.9324(4) 0.98791(17)
H29_2 H 0.5628 0.8673 0.9995
O19_2 O 0.6404(3) 0.7383(3) 0.64870(11)
H31_2 H 0.5309(18) 0.763(4) 0.6418(15)
H32_2 H 0.695(4) 0.750(4) 0.6175(10)
O20_2 O 0.9220(3) 0.8877(3) 0.67462(11)
H33_2 H 0.900(5) 0.877(4) 0.6370(5)
S2_2 S 0.79632(11) 0.66181(9) 0.85792(4)
O21_2 O 0.7166(3) 0.7861(2) 0.83678(10)
O22_2 O 0.8441(3) 0.5895(3) 0.81007(11)
O23_2 O 0.9400(3) 0.6971(3) 0.89364(11)
O24_2 O 0.6840(3) 0.5821(3) 0.88616(11)
H4_2 H 0.990(4) 0.054(4) 0.3180(14)
loop_
_geom_bond_atom_site_label_1
_geom_bond_atom_site_label_2
_geom_bond_site_symmetry_1
_geom_bond_site_symmetry_2
Eu5 O8 1_555 1_555
Eu1 O1 1_555 1_555
O1 H1 1_555 1_555
H2 O1 1_555 1_555
O2 Eu1 1_555 1_555
H3 O2 1_555 1_555
S1 O3 1_555 1_555
P1 O7 1_555 1_555
P2 O27 1_555 1_555
O3 Eu1 1_555 1_555
O4 Eu1 1_555 1_555
O5 S1 1_555 1_555
O6 S1 1_555 1_555
O7 Eu1 1_555 1_555
O9 P1 1_555 1_555
H5 O9 1_555 1_555
O11 P2 1_555 1_555
O12 P2 1_555 1_555
H6 O12 1_555 1_555
N1 H7 1_555 1_555
C1 P1 1_555 1_555
H8 C1 1_555 1_555
H9 C1 1_555 1_555
C2 P2 1_555 1_555
H10 C2 1_555 1_555
H11 C2 1_555 1_555
C3 N1 1_555 1_555
H12 C3 1_555 1_555
H13 C3 1_555 1_555
C4 C3 1_555 1_555
H14 C4 1_555 1_555
H15 C4 1_555 1_555
C5 C4 1_555 1_555
H16 C5 1_555 1_555
H17 C5 1_555 1_555
P3 O13 1_555 1_555
P4 O16 1_555 1_555
O13 Eu6 1_555 1_555
O15 P3 1_555 1_555
H18 O15 1_555 1_555
O17 P4 1_555 1_555
O18 P4 1_555 1_555
H19 O18 1_555 1_555
N2 H20 1_555 1_555
C6 P3 1_555 1_555
H21 C6 1_555 1_555
H22 C6 1_555 1_555
C7 P4 1_555 1_555
H23 C7 1_555 1_555
H24 C7 1_555 1_555
C8 N2 1_555 1_555
H25 C8 1_555 1_555
H26 C8 1_555 1_555
C9 C8 1_555 1_555
H27 C9 1_555 1_555
H28 C9 1_555 1_555
C10 C5 1_555 1_555
H29 C10 1_555 1_555
H30 C10 1_555 1_555
Eu6 O19 1_555 1_555
O19 H31 1_555 1_555
H32 O19 1_555 1_555
O20 Eu6 1_555 1_555
H33 O20 1_555 1_555
S2 O21 1_555 1_555
O21 Eu6 1_555 1_555
O22 Eu6 1_555 1_555
O23 S2 1_555 1_555
O24 S2 1_555 1_555
Eu5 O11 1_555 1_555
Eu8 O17 1_555 1_555
O25 Eu1 1_555 1_555
O26 Eu6 1_555 1_555
O29 Eu1 1_555 1_555
O30 Eu6 1_555 1_555
S1 O4 1_555 1_555
N1 C1 1_555 1_555
N1 C2 1_555 1_555
N2 C6 1_555 1_555
N2 C7 1_555 1_555
C9 C10 1_555 1_555
S2 O22 1_555 1_555
Eu8 O14 1_555 1_555
Eu5 O1_2 1_555 1_555
O1_2 H1_2 1_555 1_555
H2_2 O1_2 1_555 1_555
O2_2 Eu5 1_555 1_555
H3_2 O2_2 1_555 1_555
S1_2 O3_2 1_555 1_555
P1_2 O7_2 1_555 1_555
P2_2 O10 1_555 1_555
O3_2 Eu5 1_555 1_555
O4_2 Eu5 1_555 1_555
O5_2 S1_2 1_555 1_555
O6_2 S1_2 1_555 1_555
O7_2 Eu5 1_555 1_555
O25 P1_2 1_555 1_555
O9_2 P1_2 1_555 1_555
H5_2 O9_2 1_555 1_555
O12_2 P2_2 1_555 1_555
H6_2 O12_2 1_555 1_555
N1_2 H7_2 1_555 1_555
C1_2 P1_2 1_555 1_555
H8_2 C1_2 1_555 1_555
H9_2 C1_2 1_555 1_555
C2_2 P2_2 1_555 1_555
H10_2 C2_2 1_555 1_555
H11_2 C2_2 1_555 1_555
C3_2 N1_2 1_555 1_555
H12_2 C3_2 1_555 1_555
H13_2 C3_2 1_555 1_555
C4_2 C3_2 1_555 1_555
H14_2 C4_2 1_555 1_555
C5_2 C4_2 1_555 1_555
H16_2 C5_2 1_555 1_555
S1_2 O4_2 1_555 1_555
N1_2 C1_2 1_555 1_555
N1_2 C2_2 1_555 1_555
P3_2 O13_2 1_555 1_555
P4_2 O28 1_555 1_555
O13_2 Eu8 1_555 1_555
O26 P3_2 1_555 1_555
O15_2 P3_2 1_555 1_555
H18_2 O15_2 1_555 1_555
O18_2 P4_2 1_555 1_555
H19_2 O18_2 1_555 1_555
N2_2 H20_2 1_555 1_555
C6_2 P3_2 1_555 1_555
H21_2 C6_2 1_555 1_555
H22_2 C6_2 1_555 1_555
C7_2 P4_2 1_555 1_555
H23_2 C7_2 1_555 1_555
H24_2 C7_2 1_555 1_555
C8_2 N2_2 1_555 1_555
H25_2 C8_2 1_555 1_555
H26_2 C8_2 1_555 1_555
C9_2 C8_2 1_555 1_555
H27_2 C9_2 1_555 1_555
H29_2 C10_2 1_555 1_555
Eu8 O19_2 1_555 1_555
O19_2 H31_2 1_555 1_555
H32_2 O19_2 1_555 1_555
O20_2 Eu8 1_555 1_555
H33_2 O20_2 1_555 1_555
S2_2 O21_2 1_555 1_555
O21_2 Eu8 1_555 1_555
O22_2 Eu8 1_555 1_555
O23_2 S2_2 1_555 1_555
O24_2 S2_2 1_555 1_555
N2_2 C6_2 1_555 1_555
N2_2 C7_2 1_555 1_555
C9_2 C10_2 1_555 1_555
S2_2 O22_2 1_555 1_555

#END
