
###############################################################################
#
# This file contains modified crystal structure data generated from the
# MOF subset of the Cambridge Structural Database (CSD) v543 
# hosted by the Cambridge Crystallographic Data Centre (CCDC).
#
# This work is licensed under the Creative Commons
# Attribution-NonCommercial-ShareAlike 4.0 International License.
# To view a copy of this license, visit
# http://creativecommons.org/licenses/by-nc-sa/4.0/
# or send a letter to
# Creative Commons, PO Box 1866, Mountain View, CA 94042, USA.
#
# CIF created using the CSD Python API on 29 September 2022
# The structure has been converted into the P1 space group
# The structure has a 3D framework
# The original CSD entry VECWUZ is in the monoclinic crystal system
# The framework has been calculated to contain at least 10.0% void space
# The void calculation uses a probe of radius 1.32A, grid spacing 0.4
#
###############################################################################

data_VECWUZ
_chemical_formula_moiety         '(C56 H25 Co10 N8 O33)n'
_symmetry_cell_setting           triclinic
_symmetry_space_group_name_H-M   'P 1'
_symmetry_Int_Tables_number      1
_space_group_name_Hall           'P 1'
loop_
_symmetry_equiv_pos_site_id
_symmetry_equiv_pos_as_xyz
1 x,y,z
_cell_length_a                   19.6026(9)
_cell_length_b                   9.2014(9)
_cell_length_c                   11.0368(3)
_cell_angle_alpha                90
_cell_angle_beta                 99.434(3)
_cell_angle_gamma                90
_cell_volume                     1963.8
loop_
_atom_site_label
_atom_site_type_symbol
_atom_site_fract_x
_atom_site_fract_y
_atom_site_fract_z
O15 O 0.0675(3) 0.0288(11) 0.2095(6)
Co2 Co 0.000000 0.8599(3) 0.250000
O6 O 0.4792(3) 0.3776(10) 0.0574(6)
H5 H 0.470(2) 0.304(15) 0.026(6)
O7 O 0.3800(3) 0.6315(10) 0.1196(6)
O8 O 0.4325(3) 0.5288(11) 0.2905(6)
O9 O 0.1313(3) 0.7722(12) 0.1105(6)
O10 O 0.0802(4) 0.7076(12) 0.2683(7)
N2 N 0.3264(4) 0.5629(14) 0.4058(7)
C8 C 0.1316(5) 0.7209(17) 0.2132(9)
C9 C 0.2576(4) 0.6619(15) 0.2256(8)
H6 H 0.254262 0.693443 0.144812
C10 C 0.1996(5) 0.6617(16) 0.2826(7)
C11 C 0.2699(5) 0.5673(17) 0.4587(10)
H7 H 0.274124 0.537043 0.539938
C12 C 0.3203(5) 0.6151(16) 0.2888(8)
C13 C 0.2058(5) 0.6136(18) 0.4013(9)
H8 H 0.167821 0.612080 0.442066
C14 C 0.3820(5) 0.5882(16) 0.2272(9)
Co5 Co 0.42285(6) 0.4536(2) 0.47085(11)
Co7 Co 0.57715(6) 0.4536(2) 0.02915(11)
Co9 Co 0.07715(6) 0.9536(2) 0.02915(11)
Co11 Co 0.500000 0.3599(3) 0.250000
O11 O 0.0208(3) 0.8776(10) 0.4426(6)
Co3 Co 0.42285(6) 0.5464(2) 0.97085(11)
O14 O 0.5208(3) 0.6224(10) 0.9426(6)
O17 O 0.4325(3) 0.4712(11) 0.7905(6)
O20 O 0.3687(3) 0.7278(12) 0.8895(6)
N3 N 0.3264(4) 0.4371(14) 0.9058(7)
O16 O 0.9325(3) 0.0288(11) 0.2905(6)
Co1 Co 0.57715(6) 0.5464(2) 0.52915(11)
Co2_2 Co 1.000000 0.8599(3) 0.250000
O1 O 0.5208(3) 0.3776(10) 0.4426(6)
H1 H 0.530(2) 0.304(15) 0.474(6)
O2 O 0.6200(3) 0.6315(10) 0.3804(6)
O3 O 0.5675(3) 0.5288(11) 0.2095(6)
O4 O 0.8687(3) 0.7722(12) 0.3895(6)
O5 O 0.9198(4) 0.7076(12) 0.2317(7)
N1 N 0.6736(4) 0.5629(14) 0.0942(7)
C1 C 0.8684(5) 0.7209(17) 0.2868(9)
C2 C 0.7424(4) 0.6619(15) 0.2744(8)
H2 H 0.745738 0.693443 0.355188
C3 C 0.8004(5) 0.6617(16) 0.2174(7)
C4 C 0.7301(5) 0.5673(17) 0.0413(10)
C5 C 0.6797(5) 0.6151(16) 0.2112(8)
C6 C 0.7942(5) 0.6136(18) 0.0987(9)
H4 H 0.832179 0.612080 0.057934
C7 C 0.6180(5) 0.5882(16) 0.2728(9)
Co8 Co 0.92285(6) 0.9536(2) 0.47085(11)
O12 O 0.9792(3) 0.8776(10) 0.0574(6)
O13 O 0.4792(3) 0.6224(10) 0.5574(6)
O18 O 0.5675(3) 0.4712(11) 0.7095(6)
O19 O 0.6313(3) 0.7278(12) 0.6105(6)
N4 N 0.6736(4) 0.4371(14) 0.5942(7)
O14_2 O 0.0208(3) 0.1224(10) 0.9426(6)
Co1_2 Co 0.07715(6) 0.0464(2) 0.52915(11)
O2_2 O 0.1200(3) 0.1315(10) 0.3804(6)
O4_2 O 0.3687(3) 0.2722(12) 0.3895(6)
O5_2 O 0.4198(4) 0.2076(12) 0.2317(7)
N1_2 N 0.1736(4) 0.0629(14) 0.0942(7)
C1_2 C 0.3684(5) 0.2209(17) 0.2868(9)
C2_2 C 0.2424(4) 0.1619(15) 0.2744(8)
H2_2 H 0.245738 0.193443 0.355188
C3_2 C 0.3004(5) 0.1617(16) 0.2174(7)
C4_2 C 0.2301(5) 0.0673(17) 0.0413(10)
C5_2 C 0.1797(5) 0.1151(16) 0.2112(8)
C6_2 C 0.2942(5) 0.1136(18) 0.0987(9)
H4_2 H 0.332179 0.112080 0.057934
C7_2 C 0.1180(5) 0.0882(16) 0.2728(9)
O7_2 O 0.8800(3) 0.1315(10) 0.1196(6)
O9_2 O 0.6313(3) 0.2722(12) 0.1105(6)
O10_2 O 0.5802(4) 0.2076(12) 0.2683(7)
N2_2 N 0.8264(4) 0.0629(14) 0.4058(7)
C8_2 C 0.6316(5) 0.2209(17) 0.2132(9)
C9_2 C 0.7576(4) 0.1619(15) 0.2256(8)
H6_2 H 0.754262 0.193443 0.144812
C10_2 C 0.6996(5) 0.1617(16) 0.2826(7)
C11_2 C 0.7699(5) 0.0673(17) 0.4587(10)
H7_2 H 0.774124 0.037043 0.539938
C12_2 C 0.8203(5) 0.1151(16) 0.2888(8)
C13_2 C 0.7058(5) 0.1136(18) 0.4013(9)
H8_2 H 0.667821 0.112080 0.442066
C14_2 C 0.8820(5) 0.0882(16) 0.2272(9)
O19_2 O 0.1313(3) 0.2278(12) 0.6105(6)
H3 H 0.225876 0.037043 0.960062
Co3_2 Co 0.92285(6) 0.0464(2) 0.97085(11)
O20_2 O 0.8687(3) 0.2278(12) 0.8895(6)
H1_2 H 0.030(2) 0.804(15) 0.474(6)
H5_2 H 0.970(2) 0.804(15) 0.026(6)
O18_2 O 0.0675(3) 0.9712(11) 0.7095(6)
N4_2 N 0.1736(4) 0.9371(14) 0.5942(7)
O17_2 O 0.9325(3) 0.9712(11) 0.7905(6)
N3_2 N 0.8264(4) 0.9371(14) 0.9058(7)
O13_2 O 0.9792(3) 0.1224(10) 0.5574(6)
Co2_3 Co -0.000000 0.1401(3) 0.750000
H1_3 H 0.470(2) 0.696(15) 0.526(6)
O2_3 O 0.3800(3) 0.3685(10) 0.6196(6)
O5_3 O 0.0802(4) 0.2924(12) 0.7683(7)
C1_3 C 0.1316(5) 0.2791(17) 0.7132(9)
C2_3 C 0.2576(4) 0.3381(15) 0.7256(8)
H2_3 H 0.254262 0.306557 0.644812
C3_3 C 0.1996(5) 0.3383(16) 0.7826(7)
C4_3 C 0.2699(5) 0.4327(17) 0.9587(10)
C5_3 C 0.3203(5) 0.3849(16) 0.7888(8)
C6_3 C 0.2058(5) 0.3864(18) 0.9013(9)
H4_3 H 0.167821 0.387920 0.942066
C7_3 C 0.3820(5) 0.4118(16) 0.7272(9)
Co10 Co 0.500000 0.6401(3) 0.750000
Co2_4 Co 1.000000 0.1401(3) 0.750000
H5_3 H 0.530(2) 0.696(15) 0.974(6)
O7_3 O 0.6200(3) 0.3685(10) 0.8804(6)
O10_3 O 0.9198(4) 0.2924(12) 0.7317(7)
C8_3 C 0.8684(5) 0.2791(17) 0.7868(9)
C9_3 C 0.7424(4) 0.3381(15) 0.7744(8)
H6_3 H 0.745738 0.306557 0.855188
C10_3 C 0.8004(5) 0.3383(16) 0.7174(7)
C11_3 C 0.7301(5) 0.4327(17) 0.5413(10)
H7_3 H 0.725876 0.462957 0.460062
C12_3 C 0.6797(5) 0.3849(16) 0.7112(8)
C13_3 C 0.7942(5) 0.3864(18) 0.5987(9)
H8_3 H 0.832179 0.387920 0.557934
C14_3 C 0.6180(5) 0.4118(16) 0.7728(9)
H1_4 H 0.970(2) 0.196(15) 0.526(6)
H5_4 H 0.030(2) 0.196(15) 0.974(6)
H3_2 H 0.774124 0.962957 0.039938
O2_4 O 0.8800(3) 0.8685(10) 0.6196(6)
O5_4 O 0.5802(4) 0.7924(12) 0.7683(7)
C1_4 C 0.6316(5) 0.7791(17) 0.7132(9)
C2_4 C 0.7576(4) 0.8381(15) 0.7256(8)
H2_4 H 0.754262 0.806557 0.644812
C3_4 C 0.6996(5) 0.8383(16) 0.7826(7)
C4_4 C 0.7699(5) 0.9327(17) 0.9587(10)
C5_4 C 0.8203(5) 0.8849(16) 0.7888(8)
C6_4 C 0.7058(5) 0.8864(18) 0.9013(9)
H4_4 H 0.667821 0.887920 0.942066
C7_4 C 0.8820(5) 0.9118(16) 0.7272(9)
O7_4 O 0.1200(3) 0.8685(10) 0.8804(6)
O10_4 O 0.4198(4) 0.7924(12) 0.7317(7)
C8_4 C 0.3684(5) 0.7791(17) 0.7868(9)
C9_4 C 0.2424(4) 0.8381(15) 0.7744(8)
H6_4 H 0.245738 0.806557 0.855188
C10_4 C 0.3004(5) 0.8383(16) 0.7174(7)
C11_4 C 0.2301(5) 0.9327(17) 0.5413(10)
H7_4 H 0.225876 0.962957 0.460062
C12_4 C 0.1797(5) 0.8849(16) 0.7112(8)
C13_4 C 0.2942(5) 0.8864(18) 0.5987(9)
H8_4 H 0.332179 0.887920 0.557934
C14_4 C 0.1180(5) 0.9118(16) 0.7728(9)
H3_3 H 0.725876 0.537043 0.960062
H3_4 H 0.274124 0.462957 0.039938
loop_
_geom_bond_atom_site_label_1
_geom_bond_atom_site_label_2
_geom_bond_site_symmetry_1
_geom_bond_site_symmetry_2
O6 H5 1_555 1_555
O8 C14 1_555 1_555
O9 C8 1_555 1_555
O10 Co2 1_555 1_555
N2 C11 1_555 1_555
C8 O10 1_555 1_555
C9 H6 1_555 1_555
C10 C8 1_555 1_555
C11 H7 1_555 1_555
C12 N2 1_555 1_555
C13 C10 1_555 1_555
H8 C13 1_555 1_555
C14 O7 1_555 1_555
Co5 O8 1_555 1_555
Co7 O6 1_555 1_555
Co9 O9 1_555 1_555
Co11 O6 1_555 1_555
O11 Co2 1_555 1_555
O8 Co11 1_555 1_555
N2 Co5 1_555 1_555
C9 C10 1_555 1_555
C9 C12 1_555 1_555
C11 C13 1_555 1_555
C12 C14 1_555 1_555
O14 Co3 1_555 1_555
O17 Co3 1_555 1_555
O20 Co3 1_555 1_555
N3 Co3 1_555 1_555
Co1 O1 1_555 1_555
Co2_2 O5 1_555 1_555
O1 H1 1_555 1_555
O2 Co1 1_555 1_555
O3 C7 1_555 1_555
O4 C1 1_555 1_555
O5 C1 1_555 1_555
N1 C4 1_555 1_555
C1 C3 1_555 1_555
C2 H2 1_555 1_555
C3 C2 1_555 1_555
C5 N1 1_555 1_555
C6 C3 1_555 1_555
H4 C6 1_555 1_555
C7 O2 1_555 1_555
Co5 O1 1_555 1_555
Co7 O3 1_555 1_555
Co8 O4 1_555 1_555
Co11 O1 1_555 1_555
O12 Co2_2 1_555 1_555
O13 Co1 1_555 1_555
O18 Co1 1_555 1_555
O19 Co1 1_555 1_555
N4 Co1 1_555 1_555
O3 Co11 1_555 1_555
N1 Co7 1_555 1_555
C2 C5 1_555 1_555
C4 C6 1_555 1_555
C5 C7 1_555 1_555
Co5 O13 1_555 1_555
Co11 O5_2 1_555 1_555
O2_2 Co1_2 1_555 1_555
O15 C7_2 1_555 1_555
O4_2 C1_2 1_555 1_555
O5_2 C1_2 1_555 1_555
N1_2 C4_2 1_555 1_555
C1_2 C3_2 1_555 1_555
C2_2 H2_2 1_555 1_555
C3_2 C2_2 1_555 1_555
C5_2 N1_2 1_555 1_555
C6_2 C3_2 1_555 1_555
H4_2 C6_2 1_555 1_555
C7_2 O2_2 1_555 1_555
O16 C14_2 1_555 1_555
O9_2 C8_2 1_555 1_555
O10_2 Co11 1_555 1_555
N2_2 C11_2 1_555 1_555
C8_2 O10_2 1_555 1_555
C9_2 H6_2 1_555 1_555
C10_2 C8_2 1_555 1_555
C11_2 H7_2 1_555 1_555
C12_2 N2_2 1_555 1_555
C13_2 C10_2 1_555 1_555
H8_2 C13_2 1_555 1_555
C14_2 O7_2 1_555 1_555
Co5 O4_2 1_555 1_555
Co7 O9_2 1_555 1_555
O19_2 Co1_2 1_555 1_555
C2_2 C5_2 1_555 1_555
C4_2 C6_2 1_555 1_555
C5_2 C7_2 1_555 1_555
C9_2 C10_2 1_555 1_555
C9_2 C12_2 1_555 1_555
C11_2 C13_2 1_555 1_555
C12_2 C14_2 1_555 1_555
O20_2 Co3_2 1_555 1_555
O11 H1_2 1_555 1_555
O12 H5_2 1_555 1_555
Co2_3 O5_3 1_555 1_555
O13 H1_3 1_555 1_555
O2_3 Co5 1_555 1_555
O17 C7_3 1_555 1_555
O19_2 C1_3 1_555 1_555
O5_3 C1_3 1_555 1_555
N3 C4_3 1_555 1_555
C1_3 C3_3 1_555 1_555
C2_3 H2_3 1_555 1_555
C3_3 C2_3 1_555 1_555
C5_3 N3 1_555 1_555
C6_3 C3_3 1_555 1_555
H4_3 C6_3 1_555 1_555
C7_3 O2_3 1_555 1_555
Co10 O13 1_555 1_555
O14_2 Co2_3 1_555 1_555
O17 Co10 1_555 1_555
C2_3 C5_3 1_555 1_555
C4_3 C6_3 1_555 1_555
C5_3 C7_3 1_555 1_555
O14 H5_3 1_555 1_555
O18 C14_3 1_555 1_555
O20_2 C8_3 1_555 1_555
O10_3 Co2_4 1_555 1_555
N4 C11_3 1_555 1_555
C8_3 O10_3 1_555 1_555
C9_3 H6_3 1_555 1_555
C10_3 C8_3 1_555 1_555
C11_3 H7_3 1_555 1_555
C12_3 N4 1_555 1_555
C13_3 C10_3 1_555 1_555
H8_3 C13_3 1_555 1_555
C14_3 O7_3 1_555 1_555
Co10 O14 1_555 1_555
O13_2 Co2_4 1_555 1_555
O18 Co10 1_555 1_555
C9_3 C10_3 1_555 1_555
C9_3 C12_3 1_555 1_555
C11_3 C13_3 1_555 1_555
C12_3 C14_3 1_555 1_555
O13_2 H1_4 1_555 1_555
O14_2 H5_4 1_555 1_555
Co10 O5_4 1_555 1_555
O2_4 Co8 1_555 1_555
O17_2 C7_4 1_555 1_555
O19 C1_4 1_555 1_555
O5_4 C1_4 1_555 1_555
N3_2 C4_4 1_555 1_555
C1_4 C3_4 1_555 1_555
C2_4 H2_4 1_555 1_555
C3_4 C2_4 1_555 1_555
C5_4 N3_2 1_555 1_555
C6_4 C3_4 1_555 1_555
H4_4 C6_4 1_555 1_555
C7_4 O2_4 1_555 1_555
O18_2 C14_4 1_555 1_555
O20 C8_4 1_555 1_555
O10_4 Co10 1_555 1_555
N4_2 C11_4 1_555 1_555
C8_4 O10_4 1_555 1_555
C9_4 H6_4 1_555 1_555
C10_4 C8_4 1_555 1_555
C11_4 H7_4 1_555 1_555
C12_4 N4_2 1_555 1_555
C13_4 C10_4 1_555 1_555
H8_4 C13_4 1_555 1_555
C14_4 O7_4 1_555 1_555
C2_4 C5_4 1_555 1_555
C4_4 C6_4 1_555 1_555
C5_4 C7_4 1_555 1_555
C9_4 C10_4 1_555 1_555
C9_4 C12_4 1_555 1_555
C11_4 C13_4 1_555 1_555
C12_4 C14_4 1_555 1_555

#END
