
###############################################################################
#
# This file contains modified crystal structure data generated from the
# MOF subset of the Cambridge Structural Database (CSD) v543 
# hosted by the Cambridge Crystallographic Data Centre (CCDC).
#
# This work is licensed under the Creative Commons
# Attribution-NonCommercial-ShareAlike 4.0 International License.
# To view a copy of this license, visit
# http://creativecommons.org/licenses/by-nc-sa/4.0/
# or send a letter to
# Creative Commons, PO Box 1866, Mountain View, CA 94042, USA.
#
# CIF created using the CSD Python API on 29 September 2022
# The structure has been converted into the P1 space group
# The structure has a 3D framework
# The original CSD entry VECWOT is in the monoclinic crystal system
# The framework has been calculated to contain at least 10.0% void space
# The void calculation uses a probe of radius 1.32A, grid spacing 0.4
#
###############################################################################

data_VECWOT
_chemical_formula_moiety         '(C56 H25 Co10 N8 O33)n'
_symmetry_cell_setting           triclinic
_symmetry_space_group_name_H-M   'P 1'
_symmetry_Int_Tables_number      1
_space_group_name_Hall           'P 1'
loop_
_symmetry_equiv_pos_site_id
_symmetry_equiv_pos_as_xyz
1 x,y,z
_cell_length_a                   18.974(3)
_cell_length_b                   11.0427(15)
_cell_length_c                   10.9677(6)
_cell_angle_alpha                90
_cell_angle_beta                 100.796(9)
_cell_angle_gamma                90
_cell_volume                     2257.32
loop_
_atom_site_label
_atom_site_type_symbol
_atom_site_fract_x
_atom_site_fract_y
_atom_site_fract_z
Co5 Co 0.000000 0.61579(18) 0.750000
Co7 Co 0.08169(7) 0.53719(13) 0.53603(9)
O17 O 0.0197(4) 0.3959(6) 0.4444(5)
H3 H 0.768993 0.453632 0.031999
Co3 Co 0.08169(7) 0.46281(13) 0.03603(9)
O13 O 0.0697(4) 0.5199(7) 0.2143(5)
N3 N 0.1783(6) 0.5661(8) 0.1003(6)
O20 O 0.1393(5) 0.3101(8) 0.1221(5)
Co1 Co 0.500000 0.11579(18) 0.750000
Co2 Co 0.91831(7) 0.46281(13) 0.46397(9)
O1 O 0.9303(4) 0.4801(7) 0.7857(5)
O2 O 0.9803(4) 0.6041(6) 0.5556(5)
O3 O 0.8751(4) 0.3923(7) 0.6098(5)
O4 O 0.5806(5) 0.2473(7) 0.7723(6)
N1 N 0.8217(6) 0.4339(8) 0.8997(6)
O5 O 0.6393(5) 0.1899(8) 0.6221(5)
C1 C 0.8767(6) 0.4210(10) 0.7214(7)
C2 C 0.6974(6) 0.3117(11) 0.7815(7)
C3 C 0.8174(7) 0.3886(11) 0.7814(8)
C4 C 0.7577(6) 0.3277(10) 0.7205(8)
H1 H 0.756295 0.297259 0.641000
C5 C 0.7025(7) 0.3600(10) 0.8980(9)
H2 H 0.664637 0.352930 0.940440
C6 C 0.7665(8) 0.4210(13) 0.9531(9)
C7 C 0.6332(8) 0.2457(10) 0.7182(8)
H4 H 0.961(7) 0.671(6) 0.504(8)
O6 O 0.0697(4) 0.4801(7) 0.7143(5)
O7 O 0.0197(4) 0.6041(6) 0.9444(5)
O8 O 0.1249(4) 0.3923(7) 0.8902(5)
O9 O 0.4194(5) 0.2473(7) 0.7277(6)
N2 N 0.1783(6) 0.4339(8) 0.6003(6)
O10 O 0.3607(5) 0.1899(8) 0.8779(5)
C8 C 0.1233(6) 0.4210(10) 0.7786(7)
C9 C 0.3026(6) 0.3117(11) 0.7185(7)
C10 C 0.1826(7) 0.3886(11) 0.7186(8)
C11 C 0.2423(6) 0.3277(10) 0.7795(8)
H5 H 0.243705 0.297259 0.859000
C12 C 0.2975(7) 0.3600(10) 0.6020(9)
H6 H 0.335363 0.352930 0.559560
C13 C 0.2335(8) 0.4210(13) 0.5469(9)
H7 H 0.231007 0.453632 0.468001
C14 C 0.3668(8) 0.2457(10) 0.7818(8)
H8 H 0.039(7) 0.671(6) 0.996(8)
Co5_2 Co 1.000000 0.61579(18) 0.750000
Co9 Co 0.91831(7) 0.53719(13) 0.96397(9)
Co10 Co 0.58169(7) 0.03719(13) 0.53603(9)
Co11 Co 0.41831(7) 0.03719(13) 0.96397(9)
O14 O 0.9303(4) 0.5199(7) 0.2857(5)
O15 O 0.4803(4) 0.1041(6) 0.5556(5)
O16 O 0.5197(4) 0.1041(6) 0.9444(5)
N4 N 0.8217(6) 0.5661(8) 0.3997(6)
O19 O 0.8607(5) 0.3101(8) 0.3779(5)
O11 O 0.4303(4) 0.9801(7) 0.7857(5)
O12 O 0.5697(4) 0.9801(7) 0.7143(5)
O18 O 0.9803(4) 0.3959(6) 0.0556(5)
H4_2 H 0.461(7) 0.171(6) 0.504(8)
O14_2 O 0.4303(4) 0.0199(7) 0.2857(5)
N4_2 N 0.3217(6) 0.0661(8) 0.3997(6)
Co2_2 Co 0.41831(7) 0.96281(13) 0.46397(9)
O3_2 O 0.3751(4) 0.8923(7) 0.6098(5)
O4_2 O 0.0806(5) 0.7473(7) 0.7723(6)
N1_2 N 0.3217(6) 0.9339(8) 0.8997(6)
O5_2 O 0.1393(5) 0.6899(8) 0.6221(5)
C1_2 C 0.3767(6) 0.9210(10) 0.7214(7)
C2_2 C 0.1974(6) 0.8117(11) 0.7815(7)
C3_2 C 0.3174(7) 0.8886(11) 0.7814(8)
C4_2 C 0.2577(6) 0.8277(10) 0.7205(8)
H1_2 H 0.256295 0.797259 0.641000
C5_2 C 0.2025(7) 0.8600(10) 0.8980(9)
H2_2 H 0.164637 0.852930 0.940440
C6_2 C 0.2665(8) 0.9210(13) 0.9531(9)
C7_2 C 0.1332(8) 0.7457(10) 0.7182(8)
O17_2 O 0.5197(4) 0.8959(6) 0.4444(5)
O19_2 O 0.3607(5) 0.8101(8) 0.3779(5)
O13_2 O 0.5697(4) 0.0199(7) 0.2143(5)
N3_2 N 0.6783(6) 0.0661(8) 0.1003(6)
H8_2 H 0.539(7) 0.171(6) 0.996(8)
Co3_2 Co 0.58169(7) 0.96281(13) 0.03603(9)
O18_2 O 0.4803(4) 0.8959(6) 0.0556(5)
O20_2 O 0.6393(5) 0.8101(8) 0.1221(5)
O8_2 O 0.6249(4) 0.8923(7) 0.8902(5)
O9_2 O 0.9194(5) 0.7473(7) 0.7277(6)
N2_2 N 0.6783(6) 0.9339(8) 0.6003(6)
O10_2 O 0.8607(5) 0.6899(8) 0.8779(5)
C8_2 C 0.6233(6) 0.9210(10) 0.7786(7)
C9_2 C 0.8026(6) 0.8117(11) 0.7185(7)
C10_2 C 0.6826(7) 0.8886(11) 0.7186(8)
C11_2 C 0.7423(6) 0.8277(10) 0.7795(8)
H5_2 H 0.743705 0.797259 0.859000
C12_2 C 0.7975(7) 0.8600(10) 0.6020(9)
H6_2 H 0.835363 0.852930 0.559560
C13_2 C 0.7335(8) 0.9210(13) 0.5469(9)
H7_2 H 0.731007 0.953632 0.468001
C14_2 C 0.8668(8) 0.7457(10) 0.7818(8)
Co4 Co -0.000000 0.38421(18) 0.250000
Co1_2 Co 0.500000 0.88421(18) 0.250000
O3_3 O 0.1249(4) 0.6077(7) 0.3902(5)
O4_3 O 0.4194(5) 0.7527(7) 0.2277(6)
C1_3 C 0.1233(6) 0.5790(10) 0.2786(7)
C2_3 C 0.3026(6) 0.6883(11) 0.2185(7)
C3_3 C 0.1826(7) 0.6114(11) 0.2186(8)
C4_3 C 0.2423(6) 0.6723(10) 0.2795(8)
H1_3 H 0.243705 0.702741 0.359000
C5_3 C 0.2975(7) 0.6400(10) 0.1020(9)
H2_3 H 0.335363 0.647070 0.059560
C6_3 C 0.2335(8) 0.5790(13) 0.0469(9)
C7_3 C 0.3668(8) 0.7543(10) 0.2818(8)
H4_3 H 0.039(7) 0.329(6) 0.496(8)
O8_3 O 0.8751(4) 0.6077(7) 0.1098(5)
O9_3 O 0.5806(5) 0.7527(7) 0.2723(6)
C8_3 C 0.8767(6) 0.5790(10) 0.2214(7)
C9_3 C 0.6974(6) 0.6883(11) 0.2815(7)
C10_3 C 0.8174(7) 0.6114(11) 0.2814(8)
C11_3 C 0.7577(6) 0.6723(10) 0.2205(8)
H5_3 H 0.756295 0.702741 0.141000
C12_3 C 0.7025(7) 0.6400(10) 0.3980(9)
H6_3 H 0.664637 0.647070 0.440440
C13_3 C 0.7665(8) 0.5790(13) 0.4531(9)
H7_3 H 0.768993 0.546368 0.531999
C14_3 C 0.6332(8) 0.7543(10) 0.2182(8)
H8_3 H 0.961(7) 0.329(6) 0.004(8)
Co4_2 Co 1.000000 0.38421(18) 0.250000
H3_2 H 0.231007 0.546368 0.968001
O8_4 O 0.3751(4) 0.1077(7) 0.1098(5)
O9_4 O 0.0806(5) 0.2527(7) 0.2723(6)
C8_4 C 0.3767(6) 0.0790(10) 0.2214(7)
C9_4 C 0.1974(6) 0.1883(11) 0.2815(7)
C10_4 C 0.3174(7) 0.1114(11) 0.2814(8)
C11_4 C 0.2577(6) 0.1723(10) 0.2205(8)
H5_4 H 0.256295 0.202741 0.141000
C12_4 C 0.2025(7) 0.1400(10) 0.3980(9)
H6_4 H 0.164637 0.147070 0.440440
C13_4 C 0.2665(8) 0.0790(13) 0.4531(9)
H7_4 H 0.268993 0.046368 0.531999
C14_4 C 0.1332(8) 0.2543(10) 0.2182(8)
H8_4 H 0.461(7) 0.829(6) 0.004(8)
O3_4 O 0.6249(4) 0.1077(7) 0.3902(5)
O4_4 O 0.9194(5) 0.2527(7) 0.2277(6)
C1_4 C 0.6233(6) 0.0790(10) 0.2786(7)
C2_4 C 0.8026(6) 0.1883(11) 0.2185(7)
C3_4 C 0.6826(7) 0.1114(11) 0.2186(8)
C4_4 C 0.7423(6) 0.1723(10) 0.2795(8)
H1_4 H 0.743705 0.202741 0.359000
C5_4 C 0.7975(7) 0.1400(10) 0.1020(9)
H2_4 H 0.835363 0.147070 0.059560
C6_4 C 0.7335(8) 0.0790(13) 0.0469(9)
C7_4 C 0.8668(8) 0.2543(10) 0.2818(8)
H4_4 H 0.539(7) 0.829(6) 0.496(8)
H3_3 H 0.268993 0.953632 0.031999
H3_4 H 0.731007 0.046368 0.968001
loop_
_geom_bond_atom_site_label_1
_geom_bond_atom_site_label_2
_geom_bond_site_symmetry_1
_geom_bond_site_symmetry_2
Co7 O17 1_555 1_555
O13 Co3 1_555 1_555
N3 Co3 1_555 1_555
O20 Co3 1_555 1_555
Co1 O4 1_555 1_555
Co2 O2 1_555 1_555
O1 C1 1_555 1_555
O2 H4 1_555 1_555
O3 Co2 1_555 1_555
O4 C7 1_555 1_555
N1 C3 1_555 1_555
O5 C7 1_555 1_555
C1 O3 1_555 1_555
C2 C4 1_555 1_555
C3 C1 1_555 1_555
C4 C3 1_555 1_555
H1 C4 1_555 1_555
C5 C2 1_555 1_555
H2 C5 1_555 1_555
C6 N1 1_555 1_555
C7 C2 1_555 1_555
O6 C8 1_555 1_555
O7 H8 1_555 1_555
O9 Co1 1_555 1_555
N2 C10 1_555 1_555
O10 C14 1_555 1_555
C8 O8 1_555 1_555
C9 C11 1_555 1_555
C10 C8 1_555 1_555
C11 C10 1_555 1_555
H5 C11 1_555 1_555
C12 C9 1_555 1_555
H6 C12 1_555 1_555
C13 N2 1_555 1_555
H7 C13 1_555 1_555
C14 O9 1_555 1_555
Co5 O6 1_555 1_555
Co5_2 O1 1_555 1_555
Co7 O6 1_555 1_555
Co9 O1 1_555 1_555
Co10 O5 1_555 1_555
Co11 O10 1_555 1_555
O14 Co2 1_555 1_555
O15 Co1 1_555 1_555
O16 Co1 1_555 1_555
N4 Co2 1_555 1_555
O19 Co2 1_555 1_555
O2 Co5_2 1_555 1_555
N1 Co9 1_555 1_555
C5 C6 1_555 1_555
O7 Co5 1_555 1_555
N2 Co7 1_555 1_555
C9 C14 1_555 1_555
C12 C13 1_555 1_555
Co10 O15 1_555 1_555
Co11 O16 1_555 1_555
O15 H4_2 1_555 1_555
Co5 O4_2 1_555 1_555
O11 C1_2 1_555 1_555
O3_2 Co2_2 1_555 1_555
O4_2 C7_2 1_555 1_555
N1_2 C3_2 1_555 1_555
O5_2 C7_2 1_555 1_555
C1_2 O3_2 1_555 1_555
C2_2 C4_2 1_555 1_555
C3_2 C1_2 1_555 1_555
C4_2 C3_2 1_555 1_555
H1_2 C4_2 1_555 1_555
C5_2 C2_2 1_555 1_555
H2_2 C5_2 1_555 1_555
C6_2 N1_2 1_555 1_555
C7_2 C2_2 1_555 1_555
Co7 O5_2 1_555 1_555
O17_2 Co2_2 1_555 1_555
O19_2 Co2_2 1_555 1_555
C5_2 C6_2 1_555 1_555
O16 H8_2 1_555 1_555
O18_2 Co3_2 1_555 1_555
O20_2 Co3_2 1_555 1_555
O12 C8_2 1_555 1_555
O9_2 Co5_2 1_555 1_555
N2_2 C10_2 1_555 1_555
O10_2 C14_2 1_555 1_555
C8_2 O8_2 1_555 1_555
C9_2 C11_2 1_555 1_555
C10_2 C8_2 1_555 1_555
C11_2 C10_2 1_555 1_555
H5_2 C11_2 1_555 1_555
C12_2 C9_2 1_555 1_555
H6_2 C12_2 1_555 1_555
C13_2 N2_2 1_555 1_555
H7_2 C13_2 1_555 1_555
C14_2 O9_2 1_555 1_555
Co9 O10_2 1_555 1_555
C9_2 C14_2 1_555 1_555
C12_2 C13_2 1_555 1_555
Co1_2 O4_3 1_555 1_555
O13 C1_3 1_555 1_555
O17 H4_3 1_555 1_555
O3_3 Co7 1_555 1_555
O4_3 C7_3 1_555 1_555
N3 C3_3 1_555 1_555
O19_2 C7_3 1_555 1_555
C1_3 O3_3 1_555 1_555
C2_3 C4_3 1_555 1_555
C3_3 C1_3 1_555 1_555
C4_3 C3_3 1_555 1_555
H1_3 C4_3 1_555 1_555
C5_3 C2_3 1_555 1_555
H2_3 C5_3 1_555 1_555
C6_3 N3 1_555 1_555
C7_3 C2_3 1_555 1_555
O14 C8_3 1_555 1_555
O18 H8_3 1_555 1_555
O9_3 Co1_2 1_555 1_555
N4 C10_3 1_555 1_555
O20_2 C14_3 1_555 1_555
C8_3 O8_3 1_555 1_555
C9_3 C11_3 1_555 1_555
C10_3 C8_3 1_555 1_555
C11_3 C10_3 1_555 1_555
H5_3 C11_3 1_555 1_555
C12_3 C9_3 1_555 1_555
H6_3 C12_3 1_555 1_555
C13_3 N4 1_555 1_555
H7_3 C13_3 1_555 1_555
C14_3 O9_3 1_555 1_555
Co4_2 O14 1_555 1_555
Co4 O13 1_555 1_555
O17_2 Co1_2 1_555 1_555
O18_2 Co1_2 1_555 1_555
O17 Co4 1_555 1_555
C5_3 C6_3 1_555 1_555
O18 Co4_2 1_555 1_555
C9_3 C14_3 1_555 1_555
C12_3 C13_3 1_555 1_555
O14_2 C8_4 1_555 1_555
O9_4 Co4 1_555 1_555
N4_2 C10_4 1_555 1_555
O20 C14_4 1_555 1_555
C8_4 O8_4 1_555 1_555
C9_4 C11_4 1_555 1_555
C10_4 C8_4 1_555 1_555
C11_4 C10_4 1_555 1_555
H5_4 C11_4 1_555 1_555
C12_4 C9_4 1_555 1_555
H6_4 C12_4 1_555 1_555
C13_4 N4_2 1_555 1_555
H7_4 C13_4 1_555 1_555
C14_4 O9_4 1_555 1_555
C9_4 C14_4 1_555 1_555
C12_4 C13_4 1_555 1_555
O18_2 H8_4 1_555 1_555
Co4_2 O4_4 1_555 1_555
O13_2 C1_4 1_555 1_555
O3_4 Co10 1_555 1_555
O4_4 C7_4 1_555 1_555
N3_2 C3_4 1_555 1_555
O19 C7_4 1_555 1_555
C1_4 O3_4 1_555 1_555
C2_4 C4_4 1_555 1_555
C3_4 C1_4 1_555 1_555
C4_4 C3_4 1_555 1_555
H1_4 C4_4 1_555 1_555
C5_4 C2_4 1_555 1_555
H2_4 C5_4 1_555 1_555
C6_4 N3_2 1_555 1_555
C7_4 C2_4 1_555 1_555
C5_4 C6_4 1_555 1_555
O17_2 H4_4 1_555 1_555

#END
