
###############################################################################
#
# This file contains modified crystal structure data generated from the
# MOF subset of the Cambridge Structural Database (CSD) v543 
# hosted by the Cambridge Crystallographic Data Centre (CCDC).
#
# This work is licensed under the Creative Commons
# Attribution-NonCommercial-ShareAlike 4.0 International License.
# To view a copy of this license, visit
# http://creativecommons.org/licenses/by-nc-sa/4.0/
# or send a letter to
# Creative Commons, PO Box 1866, Mountain View, CA 94042, USA.
#
# CIF created using the CSD Python API on 29 September 2022
# The structure has been converted into the P1 space group
# The structure has a 3D framework
# The original CSD entry VEDHIZ is in the monoclinic crystal system
# The framework has been calculated to contain at least 10.0% void space
# The void calculation uses a probe of radius 1.32A, grid spacing 0.4
#
###############################################################################

data_VEDHIZ
_chemical_formula_moiety         '(C72 H48 Cu6 N56)n'
_symmetry_cell_setting           triclinic
_symmetry_space_group_name_H-M   'P 1'
_symmetry_Int_Tables_number      1
_space_group_name_Hall           'P 1'
loop_
_symmetry_equiv_pos_site_id
_symmetry_equiv_pos_as_xyz
1 x,y,z
_cell_length_a                   22.834(2)
_cell_length_b                   14.4584(12)
_cell_length_c                   6.9109(7)
_cell_angle_alpha                90
_cell_angle_beta                 95.391(4)
_cell_angle_gamma                90
_cell_volume                     2271.49
loop_
_atom_site_label
_atom_site_type_symbol
_atom_site_fract_x
_atom_site_fract_y
_atom_site_fract_z
N1 N 0.05487(15) 0.1868(2) 0.1626(5)
C1 C 0.0446(2) 0.2551(3) 0.0306(7)
C2 C 0.11098(18) 0.1955(3) 0.2201(6)
H2 H 0.1327 0.1564 0.3111
C3 C 0.2034(2) 0.3937(3) 0.1034(7)
H3 H 0.1728 0.4320 0.0456
C4 C 0.19168(17) 0.3036(3) 0.1589(6)
C5 C 0.23607(19) 0.2464(3) 0.2424(6)
H4 H 0.2278 0.1845 0.2774
C6 C 0.29240(18) 0.2813(3) 0.2734(6)
H5 H 0.3229 0.2429 0.3316
C7 C 0.2609(2) 0.4265(3) 0.1342(7)
H6 H 0.2696 0.4876 0.0948
C8 C 0.30574(18) 0.3714(3) 0.2214(6)
C9 C 0.36590(19) 0.4061(3) 0.2668(6)
Cu1 Cu 0.0000 0.08806(5) 0.2500
N2 N 0.40735(14) 0.3585(2) 0.3759(5)
N3 N 0.45416(15) 0.4136(2) 0.3942(5)
N4 N 0.44122(14) 0.4899(2) 0.2953(5)
N5 N 0.38583(14) 0.4886(2) 0.2120(5)
N6 N 0.13305(15) 0.2683(2) 0.1304(5)
N7 N 0.08978(17) 0.3069(3) 0.0077(7)
Cu3 Cu 0.5000 0.58806(5) 0.2500
Cu5 Cu 0.5000 0.41194(5) 0.7500
N15 N 0.04584(15) 0.0864(2) 0.6058(5)
N18 N 0.05878(14) 0.9899(2) 0.2047(5)
Cu1_2 Cu 1.0000 0.08806(5) 0.2500
N8 N 0.94513(15) 0.1868(2) 0.3374(5)
C10 C 0.9554(2) 0.2551(3) 0.4694(7)
H7 H 0.9927 0.2644 0.5398
C11 C 0.88902(18) 0.1955(3) 0.2799(6)
H8 H 0.8673 0.1564 0.1889
C12 C 0.7966(2) 0.3937(3) 0.3966(7)
H9 H 0.8272 0.4320 0.4544
C13 C 0.80832(17) 0.3036(3) 0.3411(6)
C14 C 0.76393(19) 0.2464(3) 0.2576(6)
H10 H 0.7722 0.1845 0.2226
C15 C 0.70760(18) 0.2813(3) 0.2266(6)
H11 H 0.6771 0.2429 0.1684
C16 C 0.7391(2) 0.4265(3) 0.3658(7)
H12 H 0.7304 0.4876 0.4052
C17 C 0.69426(18) 0.3714(3) 0.2786(6)
C18 C 0.63410(19) 0.4061(3) 0.2332(6)
N9 N 0.59265(14) 0.3585(2) 0.1241(5)
N10 N 0.54584(15) 0.4136(2) 0.1058(5)
N11 N 0.55878(14) 0.4899(2) 0.2047(5)
N12 N 0.61417(14) 0.4886(2) 0.2880(5)
N13 N 0.86695(15) 0.2683(2) 0.3696(5)
N14 N 0.91022(17) 0.3069(3) 0.4923(7)
N16 N 0.95416(15) 0.0864(2) 0.8942(5)
N17 N 0.94122(14) 0.9899(2) 0.2953(5)
Cu5_2 Cu 0.0000 0.91194(5) 0.7500
N1_2 N 0.55487(15) 0.6868(2) 0.1626(5)
C1_2 C 0.5446(2) 0.7551(3) 0.0306(7)
C2_2 C 0.61098(18) 0.6955(3) 0.2201(6)
H2_2 H 0.6327 0.6564 0.3111
C3_2 C 0.7034(2) 0.8937(3) 0.1034(7)
H3_2 H 0.6728 0.9320 0.0456
C4_2 C 0.69168(17) 0.8036(3) 0.1589(6)
C5_2 C 0.73607(19) 0.7464(3) 0.2424(6)
H4_2 H 0.7278 0.6845 0.2774
C6_2 C 0.79240(18) 0.7813(3) 0.2734(6)
H5_2 H 0.8229 0.7429 0.3316
C7_2 C 0.7609(2) 0.9265(3) 0.1342(7)
H6_2 H 0.7696 0.9876 0.0948
C8_2 C 0.80574(18) 0.8714(3) 0.2214(6)
C9_2 C 0.86590(19) 0.9061(3) 0.2668(6)
N2_2 N 0.90735(14) 0.8585(2) 0.3759(5)
N3_2 N 0.95416(15) 0.9136(2) 0.3942(5)
N5_2 N 0.88583(14) 0.9886(2) 0.2120(5)
N6_2 N 0.63305(15) 0.7683(2) 0.1304(5)
N7_2 N 0.58978(17) 0.8069(3) 0.0077(7)
N8_2 N 0.44513(15) 0.6868(2) 0.3374(5)
C10_2 C 0.4554(2) 0.7551(3) 0.4694(7)
H7_2 H 0.4927 0.7644 0.5398
C11_2 C 0.38902(18) 0.6955(3) 0.2799(6)
H8_2 H 0.3673 0.6564 0.1889
C12_2 C 0.2966(2) 0.8937(3) 0.3966(7)
H9_2 H 0.3272 0.9320 0.4544
C13_2 C 0.30832(17) 0.8036(3) 0.3411(6)
C14_2 C 0.26393(19) 0.7464(3) 0.2576(6)
H10_2 H 0.2722 0.6845 0.2226
C15_2 C 0.20760(18) 0.7813(3) 0.2266(6)
H11_2 H 0.1771 0.7429 0.1684
C16_2 C 0.2391(2) 0.9265(3) 0.3658(7)
H12_2 H 0.2304 0.9876 0.4052
C17_2 C 0.19426(18) 0.8714(3) 0.2786(6)
C18_2 C 0.13410(19) 0.9061(3) 0.2332(6)
N9_2 N 0.09265(14) 0.8585(2) 0.1241(5)
N10_2 N 0.04584(15) 0.9136(2) 0.1058(5)
N12_2 N 0.11417(14) 0.9886(2) 0.2880(5)
N13_2 N 0.36695(15) 0.7683(2) 0.3696(5)
N14_2 N 0.41022(17) 0.8069(3) 0.4923(7)
Cu5_3 Cu 1.0000 0.91194(5) 0.7500
N15_2 N 0.54584(15) 0.5864(2) 0.6058(5)
H1 H 0.5073 0.7644 0.9602
N16_2 N 0.45416(15) 0.5864(2) 0.8942(5)
N17_2 N 0.05878(14) 0.0101(2) 0.7047(5)
N8_3 N 0.05487(15) 0.8132(2) 0.6626(5)
C10_3 C 0.0446(2) 0.7449(3) 0.5306(7)
H7_3 H 0.0073 0.7356 0.4602
C11_3 C 0.11098(18) 0.8045(3) 0.7201(6)
H8_3 H 0.1327 0.8436 0.8111
C12_3 C 0.2034(2) 0.6063(3) 0.6034(7)
H9_3 H 0.1728 0.5680 0.5456
C13_3 C 0.19168(17) 0.6964(3) 0.6589(6)
C14_3 C 0.23607(19) 0.7536(3) 0.7424(6)
H10_3 H 0.2278 0.8155 0.7774
C15_3 C 0.29240(18) 0.7187(3) 0.7734(6)
H11_3 H 0.3229 0.7571 0.8316
C16_3 C 0.2609(2) 0.5735(3) 0.6342(7)
H12_3 H 0.2696 0.5124 0.5948
C17_3 C 0.30574(18) 0.6286(3) 0.7214(6)
C18_3 C 0.36590(19) 0.5939(3) 0.7668(6)
N9_3 N 0.40735(14) 0.6415(2) 0.8759(5)
N11_2 N 0.44122(14) 0.5101(2) 0.7953(5)
N12_3 N 0.38583(14) 0.5114(2) 0.7120(5)
N13_3 N 0.13305(15) 0.7317(2) 0.6304(5)
N14_3 N 0.08978(17) 0.6931(3) 0.5077(7)
N18_2 N 0.94122(14) 0.0101(2) 0.7953(5)
N1_3 N 0.94513(15) 0.8132(2) 0.8374(5)
C1_3 C 0.9554(2) 0.7449(3) 0.9694(7)
C2_3 C 0.88902(18) 0.8045(3) 0.7799(6)
H2_3 H 0.8673 0.8436 0.6889
C3_3 C 0.7966(2) 0.6063(3) 0.8966(7)
H3_3 H 0.8272 0.5680 0.9544
C4_3 C 0.80832(17) 0.6964(3) 0.8411(6)
C5_3 C 0.76393(19) 0.7536(3) 0.7576(6)
H4_3 H 0.7722 0.8155 0.7226
C6_3 C 0.70760(18) 0.7187(3) 0.7266(6)
H5_3 H 0.6771 0.7571 0.6684
C7_3 C 0.7391(2) 0.5735(3) 0.8658(7)
H6_3 H 0.7304 0.5124 0.9052
C8_3 C 0.69426(18) 0.6286(3) 0.7786(6)
C9_3 C 0.63410(19) 0.5939(3) 0.7332(6)
N2_3 N 0.59265(14) 0.6415(2) 0.6241(5)
N4_2 N 0.55878(14) 0.5101(2) 0.7047(5)
N5_3 N 0.61417(14) 0.5114(2) 0.7880(5)
N6_3 N 0.86695(15) 0.7317(2) 0.8696(5)
N7_3 N 0.91022(17) 0.6931(3) 0.9923(7)
H1_2 H 0.4927 0.2356 0.0398
N1_4 N 0.44513(15) 0.3132(2) 0.8374(5)
C1_4 C 0.4554(2) 0.2449(3) 0.9694(7)
C2_4 C 0.38902(18) 0.3045(3) 0.7799(6)
H2_4 H 0.3673 0.3436 0.6889
C3_4 C 0.2966(2) 0.1063(3) 0.8966(7)
H3_4 H 0.3272 0.0680 0.9544
C4_4 C 0.30832(17) 0.1964(3) 0.8411(6)
C5_4 C 0.26393(19) 0.2536(3) 0.7576(6)
H4_4 H 0.2722 0.3155 0.7226
C6_4 C 0.20760(18) 0.2187(3) 0.7266(6)
H5_4 H 0.1771 0.2571 0.6684
C7_4 C 0.2391(2) 0.0735(3) 0.8658(7)
H6_4 H 0.2304 0.0124 0.9052
C8_4 C 0.19426(18) 0.1286(3) 0.7786(6)
C9_4 C 0.13410(19) 0.0939(3) 0.7332(6)
N2_4 N 0.09265(14) 0.1415(2) 0.6241(5)
N5_4 N 0.11417(14) 0.0114(2) 0.7880(5)
N6_4 N 0.36695(15) 0.2317(2) 0.8696(5)
N7_4 N 0.41022(17) 0.1931(3) 0.9923(7)
N8_4 N 0.55487(15) 0.3132(2) 0.6626(5)
C10_4 C 0.5446(2) 0.2449(3) 0.5306(7)
H7_4 H 0.5073 0.2356 0.4602
C11_4 C 0.61098(18) 0.3045(3) 0.7201(6)
H8_4 H 0.6327 0.3436 0.8111
C12_4 C 0.7034(2) 0.1063(3) 0.6034(7)
H9_4 H 0.6728 0.0680 0.5456
C13_4 C 0.69168(17) 0.1964(3) 0.6589(6)
C14_4 C 0.73607(19) 0.2536(3) 0.7424(6)
H10_4 H 0.7278 0.3155 0.7774
C15_4 C 0.79240(18) 0.2187(3) 0.7734(6)
H11_4 H 0.8229 0.2571 0.8316
C16_4 C 0.7609(2) 0.0735(3) 0.6342(7)
H12_4 H 0.7696 0.0124 0.5948
C17_4 C 0.80574(18) 0.1286(3) 0.7214(6)
C18_4 C 0.86590(19) 0.0939(3) 0.7668(6)
N9_4 N 0.90735(14) 0.1415(2) 0.8759(5)
N12_4 N 0.88583(14) 0.0114(2) 0.7120(5)
N13_4 N 0.63305(15) 0.2317(2) 0.6304(5)
N14_4 N 0.58978(17) 0.1931(3) 0.5077(7)
H1_3 H 0.0073 0.2644 0.9602
H1_4 H 0.9927 0.7356 0.0398
loop_
_geom_bond_atom_site_label_1
_geom_bond_atom_site_label_2
_geom_bond_site_symmetry_1
_geom_bond_site_symmetry_2
N1 C1 1_555 1_555
C2 N1 1_555 1_555
H2 C2 1_555 1_555
C3 H3 1_555 1_555
C4 C3 1_555 1_555
C5 C4 1_555 1_555
H4 C5 1_555 1_555
C6 C5 1_555 1_555
H5 C6 1_555 1_555
C7 C3 1_555 1_555
H6 C7 1_555 1_555
C8 C6 1_555 1_555
C9 C8 1_555 1_555
Cu1 N1 1_555 1_555
N2 C9 1_555 1_555
N3 N2 1_555 1_555
N4 N3 1_555 1_555
N5 C9 1_555 1_555
N6 C2 1_555 1_555
N7 C1 1_555 1_555
Cu3 N4 1_555 1_555
Cu5 N3 1_555 1_555
N15 Cu1 1_555 1_555
C4 N6 1_555 1_555
C7 C8 1_555 1_555
N4 N5 1_555 1_555
N6 N7 1_555 1_555
N8 Cu1_2 1_555 1_555
C10 N8 1_555 1_555
H7 C10 1_555 1_555
C11 N8 1_555 1_555
H8 C11 1_555 1_555
C12 H9 1_555 1_555
C13 C12 1_555 1_555
C14 C13 1_555 1_555
H10 C14 1_555 1_555
C15 C14 1_555 1_555
H11 C15 1_555 1_555
C16 C12 1_555 1_555
H12 C16 1_555 1_555
C17 C15 1_555 1_555
C18 C17 1_555 1_555
N9 C18 1_555 1_555
N10 N9 1_555 1_555
N11 N10 1_555 1_555
N12 C18 1_555 1_555
N13 C11 1_555 1_555
N14 C10 1_555 1_555
Cu3 N11 1_555 1_555
C13 N13 1_555 1_555
C16 C17 1_555 1_555
N11 N12 1_555 1_555
N13 N14 1_555 1_555
N1_2 C1_2 1_555 1_555
C2_2 N1_2 1_555 1_555
H2_2 C2_2 1_555 1_555
C3_2 H3_2 1_555 1_555
C4_2 C3_2 1_555 1_555
C5_2 C4_2 1_555 1_555
H4_2 C5_2 1_555 1_555
C6_2 C5_2 1_555 1_555
H5_2 C6_2 1_555 1_555
C7_2 C3_2 1_555 1_555
H6_2 C7_2 1_555 1_555
C8_2 C6_2 1_555 1_555
C9_2 C8_2 1_555 1_555
Cu3 N1_2 1_555 1_555
N2_2 C9_2 1_555 1_555
N3_2 N2_2 1_555 1_555
N17 N3_2 1_555 1_555
N5_2 C9_2 1_555 1_555
N6_2 C2_2 1_555 1_555
N7_2 C1_2 1_555 1_555
N8_2 Cu3 1_555 1_555
C10_2 N8_2 1_555 1_555
H7_2 C10_2 1_555 1_555
C11_2 N8_2 1_555 1_555
H8_2 C11_2 1_555 1_555
C12_2 H9_2 1_555 1_555
C13_2 C12_2 1_555 1_555
C14_2 C13_2 1_555 1_555
H10_2 C14_2 1_555 1_555
C15_2 C14_2 1_555 1_555
H11_2 C15_2 1_555 1_555
C16_2 C12_2 1_555 1_555
H12_2 C16_2 1_555 1_555
C17_2 C15_2 1_555 1_555
C18_2 C17_2 1_555 1_555
N9_2 C18_2 1_555 1_555
N10_2 N9_2 1_555 1_555
N18 N10_2 1_555 1_555
N12_2 C18_2 1_555 1_555
N13_2 C11_2 1_555 1_555
N14_2 C10_2 1_555 1_555
Cu5_3 N3_2 1_555 1_555
N15_2 Cu3 1_555 1_555
C4_2 N6_2 1_555 1_555
C7_2 C8_2 1_555 1_555
N17 N5_2 1_555 1_555
N6_2 N7_2 1_555 1_555
C13_2 N13_2 1_555 1_555
C16_2 C17_2 1_555 1_555
N18 N12_2 1_555 1_555
N13_2 N14_2 1_555 1_555
N8_3 Cu5_2 1_555 1_555
C10_3 N8_3 1_555 1_555
H7_3 C10_3 1_555 1_555
C11_3 N8_3 1_555 1_555
H8_3 C11_3 1_555 1_555
C12_3 H9_3 1_555 1_555
C13_3 C12_3 1_555 1_555
C14_3 C13_3 1_555 1_555
H10_3 C14_3 1_555 1_555
C15_3 C14_3 1_555 1_555
H11_3 C15_3 1_555 1_555
C16_3 C12_3 1_555 1_555
H12_3 C16_3 1_555 1_555
C17_3 C15_3 1_555 1_555
C18_3 C17_3 1_555 1_555
N9_3 C18_3 1_555 1_555
N16_2 N9_3 1_555 1_555
N11_2 N16_2 1_555 1_555
N12_3 C18_3 1_555 1_555
N13_3 C11_3 1_555 1_555
N14_3 C10_3 1_555 1_555
Cu5 N11_2 1_555 1_555
C13_3 N13_3 1_555 1_555
C16_3 C17_3 1_555 1_555
N11_2 N12_3 1_555 1_555
N13_3 N14_3 1_555 1_555
N1_3 C1_3 1_555 1_555
C2_3 N1_3 1_555 1_555
H2_3 C2_3 1_555 1_555
C3_3 H3_3 1_555 1_555
C4_3 C3_3 1_555 1_555
C5_3 C4_3 1_555 1_555
H4_3 C5_3 1_555 1_555
C6_3 C5_3 1_555 1_555
H5_3 C6_3 1_555 1_555
C7_3 C3_3 1_555 1_555
H6_3 C7_3 1_555 1_555
C8_3 C6_3 1_555 1_555
C9_3 C8_3 1_555 1_555
Cu5_3 N1_3 1_555 1_555
N2_3 C9_3 1_555 1_555
N15_2 N2_3 1_555 1_555
N4_2 N15_2 1_555 1_555
N5_3 C9_3 1_555 1_555
N6_3 C2_3 1_555 1_555
N7_3 C1_3 1_555 1_555
Cu5 N4_2 1_555 1_555
C4_3 N6_3 1_555 1_555
C7_3 C8_3 1_555 1_555
N4_2 N5_3 1_555 1_555
N6_3 N7_3 1_555 1_555
N1_4 C1_4 1_555 1_555
C2_4 N1_4 1_555 1_555
H2_4 C2_4 1_555 1_555
C3_4 H3_4 1_555 1_555
C4_4 C3_4 1_555 1_555
C5_4 C4_4 1_555 1_555
H4_4 C5_4 1_555 1_555
C6_4 C5_4 1_555 1_555
H5_4 C6_4 1_555 1_555
C7_4 C3_4 1_555 1_555
H6_4 C7_4 1_555 1_555
C8_4 C6_4 1_555 1_555
C9_4 C8_4 1_555 1_555
Cu5 N1_4 1_555 1_555
N2_4 C9_4 1_555 1_555
N15 N2_4 1_555 1_555
N17_2 N15 1_555 1_555
N5_4 C9_4 1_555 1_555
N6_4 C2_4 1_555 1_555
N7_4 C1_4 1_555 1_555
N8_4 Cu5 1_555 1_555
C10_4 N8_4 1_555 1_555
H7_4 C10_4 1_555 1_555
C11_4 N8_4 1_555 1_555
H8_4 C11_4 1_555 1_555
C12_4 H9_4 1_555 1_555
C13_4 C12_4 1_555 1_555
C14_4 C13_4 1_555 1_555
H10_4 C14_4 1_555 1_555
C15_4 C14_4 1_555 1_555
H11_4 C15_4 1_555 1_555
C16_4 C12_4 1_555 1_555
H12_4 C16_4 1_555 1_555
C17_4 C15_4 1_555 1_555
C18_4 C17_4 1_555 1_555
N9_4 C18_4 1_555 1_555
N16 N9_4 1_555 1_555
N18_2 N16 1_555 1_555
N12_4 C18_4 1_555 1_555
N13_4 C11_4 1_555 1_555
N14_4 C10_4 1_555 1_555
C4_4 N6_4 1_555 1_555
C7_4 C8_4 1_555 1_555
N17_2 N5_4 1_555 1_555
N6_4 N7_4 1_555 1_555
C13_4 N13_4 1_555 1_555
C16_4 C17_4 1_555 1_555
N18_2 N12_4 1_555 1_555
N13_4 N14_4 1_555 1_555

#END
