
###############################################################################
#
# This file contains modified crystal structure data generated from the
# MOF subset of the Cambridge Structural Database (CSD) v543 
# hosted by the Cambridge Crystallographic Data Centre (CCDC).
#
# This work is licensed under the Creative Commons
# Attribution-NonCommercial-ShareAlike 4.0 International License.
# To view a copy of this license, visit
# http://creativecommons.org/licenses/by-nc-sa/4.0/
# or send a letter to
# Creative Commons, PO Box 1866, Mountain View, CA 94042, USA.
#
# CIF created using the CSD Python API on 29 September 2022
# The structure has been converted into the P1 space group
# The structure has a 3D framework
# The original CSD entry VEDROP is in the monoclinic crystal system
# The original CSD entry VEDROP is in a Sohncke space group
# The framework has been calculated to contain at least 10.0% void space
# The void calculation uses a probe of radius 1.32A, grid spacing 0.4
#
###############################################################################

data_VEDROP
_chemical_formula_moiety         '(C96 H36 N7 Na3 O54 P7 Tb5)n'
_symmetry_cell_setting           triclinic
_symmetry_space_group_name_H-M   'P 1'
_symmetry_Int_Tables_number      1
_space_group_name_Hall           'P 1'
loop_
_symmetry_equiv_pos_site_id
_symmetry_equiv_pos_as_xyz
1 x,y,z
_cell_length_a                   16.9560(7)
_cell_length_b                   21.4248(14)
_cell_length_c                   12.6214(6)
_cell_angle_alpha                90
_cell_angle_beta                 121.167(3)
_cell_angle_gamma                90
_cell_volume                     3923.29
loop_
_atom_site_label
_atom_site_type_symbol
_atom_site_fract_x
_atom_site_fract_y
_atom_site_fract_z
Tb2 Tb -0.0 0.47787(10) 0.0
O38 O 0.0367(8) 0.4529(8) 0.2126(12)
O40 O 0.1363(10) 0.5078(8) 0.1987(12)
O45 O 0.0933(10) 0.3960(9) 0.0088(13)
Tb2_2 Tb 0.0 0.47787(10) 1.0
Tb3 Tb 0.000 0.29109(6) 0.500
O35 O 0.0840(11) 0.5428(9) 0.9586(15)
Na4 Na 0.0775(5) 0.3874(6) 0.7945(7)
Tb2_3 Tb 1.0 0.47787(10) 0.0
C8 C 0.8590(19) 0.5864(15) 0.023(2)
O3 O 0.9160(11) 0.5428(9) 0.0414(15)
O4 O 0.873(2) 0.6367(14) 0.079(3)
O15 O 0.8060(13) 0.3475(11) 0.0087(15)
Na6 Na 0.9225(5) 0.3874(6) 0.2055(7)
Tb2_4 Tb 1.0 0.47787(10) 1.0
P1 P 0.5028(2) 0.4499(2) 0.6121(4)
P2 P 0.500 0.3376(3) 0.500
C1 C 0.6311(12) 0.5256(9) 0.7752(16)
C2 C 0.5846(13) 0.5807(9) 0.7187(17)
H1 H 0.5222 0.5791 0.6529
C3 C 0.6272(13) 0.6353(10) 0.756(2)
C4 C 0.7153(16) 0.6378(12) 0.850(2)
H2 H 0.7463 0.6768 0.8746
C5 C 0.7597(18) 0.5859(13) 0.910(3)
C6 C 0.7219(13) 0.5289(10) 0.868(2)
H3 H 0.7575 0.492 0.901
C7 C 0.5752(14) 0.6963(10) 0.679(2)
O1 O 0.6234(10) 0.7421(7) 0.7041(16)
O2 O 0.4927(10) 0.6922(8) 0.6006(15)
C9 C 0.3354(10) 0.4640(9) 0.5761(13)
C10 C 0.3026(10) 0.4388(9) 0.6472(14)
H4 H 0.3434 0.4302 0.7326
C11 C 0.2089(11) 0.4266(9) 0.5913(15)
C12 C 0.1496(11) 0.4418(9) 0.4687(13)
H5 H 0.0852 0.4353 0.4324
C13 C 0.1826(11) 0.4664(9) 0.3983(14)
C14 C 0.2771(10) 0.4794(10) 0.4544(14)
H6 H 0.3003 0.4987 0.4083
C15 C 0.1740(13) 0.3974(12) 0.6672(17)
C16 C 0.1153(12) 0.4776(11) 0.2635(16)
C17 C 0.6714(10) 0.3040(9) 0.6289(15)
C18 C 0.7068(10) 0.3221(10) 0.7471(16)
H7 H 0.6687 0.3237 0.7817
C19 C 0.7992(11) 0.3384(10) 0.8182(16)
C20 C 0.8565(9) 0.3304(9) 0.7691(15)
H8 H 0.9203 0.3403 0.8178
C21 C 0.8200(9) 0.3085(8) 0.6511(14)
C22 C 0.7248(9) 0.2936(11) 0.5763(14)
H9 H 0.6991 0.2775 0.4948
C23 C 0.8386(12) 0.3614(11) 0.9480(16)
C24 C 0.8796(10) 0.2999(11) 0.5943(16)
N1 N 0.500 0.4839(11) 0.500
N2 N 0.4947(8) 0.3801(8) 0.6039(13)
O5 O 0.5935(7) 0.4667(6) 0.7380(10)
O6 O 0.4288(6) 0.4782(6) 0.6391(9)
O7 O 0.5788(6) 0.2862(6) 0.5581(10)
O8 O 0.0899(9) 0.3799(7) 0.6101(12)
O9 O 0.2246(13) 0.3913(12) 0.7789(15)
O12 O 0.9620(7) 0.3189(7) 0.6604(11)
O13 O 0.8468(7) 0.2789(6) 0.4887(10)
O14 O 0.9067(10) 0.3960(9) 0.9912(13)
P3 P 0.4972(2) 0.4499(2) 0.3879(4)
C25 C 0.3689(12) 0.5256(9) 0.2248(16)
C26 C 0.4154(13) 0.5807(9) 0.2813(17)
H10 H 0.4778 0.5791 0.3471
C27 C 0.3728(13) 0.6353(10) 0.244(2)
C28 C 0.2847(16) 0.6378(12) 0.150(2)
H11 H 0.2537 0.6768 0.1254
C29 C 0.2403(18) 0.5859(13) 0.090(3)
C30 C 0.2781(13) 0.5289(10) 0.132(2)
H12 H 0.2425 0.492 0.099
C31 C 0.4248(14) 0.6963(10) 0.321(2)
O16 O 0.3766(10) 0.7421(7) 0.2959(16)
O17 O 0.5073(10) 0.6922(8) 0.3994(15)
C33 C 0.6646(10) 0.4640(9) 0.4239(13)
C34 C 0.6974(10) 0.4388(9) 0.3528(14)
H13 H 0.6566 0.4302 0.2674
C35 C 0.7911(11) 0.4266(9) 0.4087(15)
C36 C 0.8504(11) 0.4418(9) 0.5313(13)
H14 H 0.9148 0.4353 0.5676
C37 C 0.8174(11) 0.4664(9) 0.6017(14)
C38 C 0.7229(10) 0.4794(10) 0.5456(14)
H15 H 0.6997 0.4987 0.5917
C39 C 0.8260(13) 0.3974(12) 0.3328(17)
C40 C 0.8847(12) 0.4776(11) 0.7365(16)
C41 C 0.3286(10) 0.3040(9) 0.3711(15)
C42 C 0.2932(10) 0.3221(10) 0.2529(16)
H16 H 0.3313 0.3237 0.2183
C43 C 0.2008(11) 0.3384(10) 0.1818(16)
C44 C 0.1435(9) 0.3304(9) 0.2309(15)
H17 H 0.0797 0.3403 0.1822
C45 C 0.1800(9) 0.3085(8) 0.3489(14)
C46 C 0.2752(9) 0.2936(11) 0.4237(14)
H18 H 0.3009 0.2775 0.5052
C47 C 0.1614(12) 0.3614(11) 0.0520(16)
C48 C 0.1204(10) 0.2999(11) 0.4057(16)
N3 N 0.5053(8) 0.3801(8) 0.3961(13)
O20 O 0.4065(7) 0.4667(6) 0.2620(10)
O21 O 0.5712(6) 0.4782(6) 0.3609(9)
O22 O 0.4212(6) 0.2862(6) 0.4419(10)
O23 O 0.9101(9) 0.3799(7) 0.3899(12)
O24 O 0.7754(13) 0.3913(12) 0.2211(15)
O25 O 0.9633(8) 0.4529(8) 0.7874(12)
O26 O 0.8637(10) 0.5078(8) 0.8013(12)
O27 O 0.0380(7) 0.3189(7) 0.3396(11)
O28 O 0.1532(7) 0.2789(6) 0.5113(10)
Tb3_2 Tb 1.000 0.29109(6) 0.500
Tb4 Tb 0.500 0.79109(6) 0.500
O31 O 0.1234(10) 0.2421(7) 0.7041(16)
O34 O 0.0073(10) 0.1922(8) 0.3994(15)
O47 O 0.1940(13) 0.3475(11) 0.9913(15)
C32 C 0.1410(19) 0.5864(15) 0.977(2)
O19 O 0.127(2) 0.6367(14) 0.921(3)
O32 O 0.8766(10) 0.2421(7) 0.2959(16)
O33 O 0.9927(10) 0.1922(8) 0.6006(15)
C8_2 C 0.3590(19) 0.0864(15) 0.023(2)
O3_2 O 0.4160(11) 0.0428(9) 0.0414(15)
O4_2 O 0.373(2) 0.1367(14) 0.079(3)
O40_2 O 0.6363(10) 0.0078(8) 0.1987(12)
C1_2 C 0.1311(12) 0.0256(9) 0.7752(16)
C2_2 C 0.0846(13) 0.0807(9) 0.7187(17)
H1_2 H 0.0222 0.0791 0.6529
C3_2 C 0.1272(13) 0.1353(10) 0.756(2)
C4_2 C 0.2153(16) 0.1378(12) 0.850(2)
H2_2 H 0.2463 0.1768 0.8746
C5_2 C 0.2597(18) 0.0859(13) 0.910(3)
C6_2 C 0.2219(13) 0.0289(10) 0.868(2)
C7_2 C 0.0752(14) 0.1963(10) 0.679(2)
O26_2 O 0.3637(10) 0.0078(8) 0.8013(12)
O35_2 O 0.5840(11) 0.0428(9) 0.9586(15)
Tb2_5 Tb 0.5 0.97787(10) 0.0
O15_2 O 0.3060(13) 0.8475(11) 0.0087(15)
O38_2 O 0.5367(8) 0.9529(8) 0.2126(12)
O45_2 O 0.5933(10) 0.8960(9) 0.0088(13)
Na6_2 Na 0.4225(5) 0.8874(6) 0.2055(7)
Tb2_6 Tb 0.5 0.97787(10) 1.0
P1_2 P 0.0028(2) 0.9499(2) 0.6121(4)
P2_2 P 0.000 0.8376(3) 0.500
H3_2 H 0.2575 0.992 0.901
C17_2 C 0.1714(10) 0.8040(9) 0.6289(15)
C18_2 C 0.2068(10) 0.8221(10) 0.7471(16)
H7_2 H 0.1687 0.8237 0.7817
C19_2 C 0.2992(11) 0.8384(10) 0.8182(16)
C20_2 C 0.3565(9) 0.8304(9) 0.7691(15)
H8_2 H 0.4203 0.8403 0.8178
C21_2 C 0.3200(9) 0.8085(8) 0.6511(14)
C22_2 C 0.2248(9) 0.7936(11) 0.5763(14)
H9_2 H 0.1991 0.7775 0.4948
C23_2 C 0.3386(12) 0.8614(11) 0.9480(16)
C24_2 C 0.3796(10) 0.7999(11) 0.5943(16)
N1_2 N -0.000 0.9839(11) 0.500
O5_2 O 0.0935(7) 0.9667(6) 0.7380(10)
O7_2 O 0.0788(6) 0.7862(6) 0.5581(10)
O12_2 O 0.4620(7) 0.8189(7) 0.6604(11)
O13_2 O 0.3468(7) 0.7789(6) 0.4887(10)
O14_2 O 0.4067(10) 0.8960(9) 0.9912(13)
C33_2 C 0.1646(10) 0.9640(9) 0.4239(13)
C34_2 C 0.1974(10) 0.9388(9) 0.3528(14)
H13_2 H 0.1566 0.9302 0.2674
C35_2 C 0.2911(11) 0.9266(9) 0.4087(15)
C36_2 C 0.3504(11) 0.9418(9) 0.5313(13)
H14_2 H 0.4148 0.9353 0.5676
C37_2 C 0.3174(11) 0.9664(9) 0.6017(14)
C38_2 C 0.2229(10) 0.9794(10) 0.5456(14)
H15_2 H 0.1997 0.9987 0.5917
C39_2 C 0.3260(13) 0.8974(12) 0.3328(17)
C40_2 C 0.3847(12) 0.9776(11) 0.7365(16)
N3_2 N 0.0053(8) 0.8801(8) 0.3961(13)
O21_2 O 0.0712(6) 0.9782(6) 0.3609(9)
O23_2 O 0.4101(9) 0.8799(7) 0.3899(12)
O24_2 O 0.2754(13) 0.8913(12) 0.2211(15)
O25_2 O 0.4633(8) 0.9529(8) 0.7874(12)
Na4_2 Na 0.5775(5) 0.8874(6) 0.7945(7)
C25_2 C 0.8689(12) 0.0256(9) 0.2248(16)
C26_2 C 0.9154(13) 0.0807(9) 0.2813(17)
H10_2 H 0.9778 0.0791 0.3471
C27_2 C 0.8728(13) 0.1353(10) 0.244(2)
C28_2 C 0.7847(16) 0.1378(12) 0.150(2)
H11_2 H 0.7537 0.1768 0.1254
C29_2 C 0.7403(18) 0.0859(13) 0.090(3)
C30_2 C 0.7781(13) 0.0289(10) 0.132(2)
C31_2 C 0.9248(14) 0.1963(10) 0.321(2)
C32_2 C 0.6410(19) 0.0864(15) 0.977(2)
O19_2 O 0.627(2) 0.1367(14) 0.921(3)
P2_3 P 1.000 0.8376(3) 0.500
C9_2 C 0.8354(10) 0.9640(9) 0.5761(13)
C10_2 C 0.8026(10) 0.9388(9) 0.6472(14)
H4_2 H 0.8434 0.9302 0.7326
C11_2 C 0.7089(11) 0.9266(9) 0.5913(15)
C12_2 C 0.6496(11) 0.9418(9) 0.4687(13)
H5_2 H 0.5852 0.9353 0.4324
C13_2 C 0.6826(11) 0.9664(9) 0.3983(14)
C14_2 C 0.7771(10) 0.9794(10) 0.4544(14)
H6_2 H 0.8003 0.9987 0.4083
C15_2 C 0.6740(13) 0.8974(12) 0.6672(17)
C16_2 C 0.6153(12) 0.9776(11) 0.2635(16)
N1_3 N 1.000 0.9839(11) 0.500
N2_2 N 0.9947(8) 0.8801(8) 0.6039(13)
O6_2 O 0.9288(6) 0.9782(6) 0.6391(9)
O8_2 O 0.5899(9) 0.8799(7) 0.6101(12)
O9_2 O 0.7246(13) 0.8913(12) 0.7789(15)
P3_2 P 0.9972(2) 0.9499(2) 0.3879(4)
H12_2 H 0.7425 0.992 0.099
C41_2 C 0.8286(10) 0.8040(9) 0.3711(15)
C42_2 C 0.7932(10) 0.8221(10) 0.2529(16)
H16_2 H 0.8313 0.8237 0.2183
C43_2 C 0.7008(11) 0.8384(10) 0.1818(16)
C44_2 C 0.6435(9) 0.8304(9) 0.2309(15)
H17_2 H 0.5797 0.8403 0.1822
C45_2 C 0.6800(9) 0.8085(8) 0.3489(14)
C46_2 C 0.7752(9) 0.7936(11) 0.4237(14)
H18_2 H 0.8009 0.7775 0.5052
C47_2 C 0.6614(12) 0.8614(11) 0.0520(16)
C48_2 C 0.6204(10) 0.7999(11) 0.4057(16)
O20_2 O 0.9065(7) 0.9667(6) 0.2620(10)
O22_2 O 0.9212(6) 0.7862(6) 0.4419(10)
O27_2 O 0.5380(7) 0.8189(7) 0.3396(11)
O28_2 O 0.6532(7) 0.7789(6) 0.5113(10)
O47_2 O 0.6940(13) 0.8475(11) 0.9913(15)
loop_
_geom_bond_atom_site_label_1
_geom_bond_atom_site_label_2
_geom_bond_site_symmetry_1
_geom_bond_site_symmetry_2
O38 Tb2 1_555 1_555
O40 Tb2 1_555 1_555
O45 Tb2 1_555 1_555
O35 Tb2_2 1_555 1_555
Tb2_3 O3 1_555 1_555
O3 C8 1_555 1_555
O4 C8 1_555 1_555
O15 Na6 1_555 1_555
Tb3 O8 1_555 1_555
P1 N1 1_555 1_555
P2 N2 1_555 1_555
C1 C2 1_555 1_555
C2 H1 1_555 1_555
C3 C2 1_555 1_555
C4 C3 1_555 1_555
H2 C4 1_555 1_555
C5 C4 1_555 1_555
C6 C1 1_555 1_555
H3 C6 1_555 1_555
C7 C3 1_555 1_555
O1 C7 1_555 1_555
O2 C7 1_555 1_555
C9 C10 1_555 1_555
C10 H4 1_555 1_555
C11 C10 1_555 1_555
C12 C11 1_555 1_555
H5 C12 1_555 1_555
C13 C12 1_555 1_555
C14 C9 1_555 1_555
H6 C14 1_555 1_555
C15 C11 1_555 1_555
C16 C13 1_555 1_555
C17 C18 1_555 1_555
C18 H7 1_555 1_555
C19 C18 1_555 1_555
C20 C19 1_555 1_555
H8 C20 1_555 1_555
C21 C20 1_555 1_555
C22 C17 1_555 1_555
H9 C22 1_555 1_555
C23 C19 1_555 1_555
C24 C21 1_555 1_555
N1 P3 1_555 1_555
N2 P1 1_555 1_555
O5 P1 1_555 1_555
O6 P1 1_555 1_555
O7 P2 1_555 1_555
O8 C15 1_555 1_555
O9 C15 1_555 1_555
O38 C16 1_555 1_555
O40 C16 1_555 1_555
O12 C24 1_555 1_555
O13 C24 1_555 1_555
O14 Tb2_4 1_555 1_555
Na4 O8 1_555 1_555
P3 N3 1_555 1_555
C25 C26 1_555 1_555
C26 H10 1_555 1_555
C27 C26 1_555 1_555
C28 C27 1_555 1_555
H11 C28 1_555 1_555
C29 C28 1_555 1_555
C30 C25 1_555 1_555
H12 C30 1_555 1_555
C31 C27 1_555 1_555
O16 C31 1_555 1_555
O17 C31 1_555 1_555
C33 C34 1_555 1_555
C34 H13 1_555 1_555
C35 C34 1_555 1_555
C36 C35 1_555 1_555
H14 C36 1_555 1_555
C37 C36 1_555 1_555
C38 C33 1_555 1_555
H15 C38 1_555 1_555
C39 C35 1_555 1_555
C40 C37 1_555 1_555
C41 C42 1_555 1_555
C42 H16 1_555 1_555
C43 C42 1_555 1_555
C44 C43 1_555 1_555
H17 C44 1_555 1_555
C45 C44 1_555 1_555
C46 C41 1_555 1_555
H18 C46 1_555 1_555
C47 C43 1_555 1_555
C48 C45 1_555 1_555
N3 P2 1_555 1_555
O20 P3 1_555 1_555
O21 P3 1_555 1_555
O22 P2 1_555 1_555
O23 C39 1_555 1_555
O24 C39 1_555 1_555
O25 Tb2_4 1_555 1_555
O26 Tb2_4 1_555 1_555
O27 Tb3 1_555 1_555
O28 Tb3 1_555 1_555
O45 C47 1_555 1_555
Tb3_2 O12 1_555 1_555
Tb4 O1 1_555 1_555
O31 Tb3 1_555 1_555
O34 Tb3 1_555 1_555
O47 Na4 1_555 1_555
Na6 O23 1_555 1_555
C1 O5 1_555 1_555
C5 C6 1_555 1_555
O2 Tb4 1_555 1_555
C9 O6 1_555 1_555
C13 C14 1_555 1_555
C17 O7 1_555 1_555
C21 C22 1_555 1_555
C23 O14 1_555 1_555
O9 Na4 1_555 1_555
O13 Tb3_2 1_555 1_555
C25 O20 1_555 1_555
C29 C30 1_555 1_555
O16 Tb4 1_555 1_555
O17 Tb4 1_555 1_555
C33 O21 1_555 1_555
C37 C38 1_555 1_555
C40 O25 1_555 1_555
C40 O26 1_555 1_555
C41 O22 1_555 1_555
C45 C46 1_555 1_555
C48 O27 1_555 1_555
C48 O28 1_555 1_555
O23 Tb3_2 1_555 1_555
O24 Na6 1_555 1_555
O35 C32 1_555 1_555
O19 C32 1_555 1_555
O32 Tb3_2 1_555 1_555
O33 Tb3_2 1_555 1_555
O3_2 C8_2 1_555 1_555
O4_2 C8_2 1_555 1_555
C1_2 C2_2 1_555 1_555
C2_2 H1_2 1_555 1_555
C3_2 C2_2 1_555 1_555
C4_2 C3_2 1_555 1_555
H2_2 C4_2 1_555 1_555
C5_2 C4_2 1_555 1_555
C6_2 C1_2 1_555 1_555
C7_2 C3_2 1_555 1_555
O31 C7_2 1_555 1_555
C5_2 C6_2 1_555 1_555
O38_2 Tb2_5 1_555 1_555
O45_2 Tb2_5 1_555 1_555
O15_2 Na6_2 1_555 1_555
O38_2 Na6_2 1_555 1_555
P1_2 N1_2 1_555 1_555
C17_2 C18_2 1_555 1_555
C18_2 H7_2 1_555 1_555
C19_2 C18_2 1_555 1_555
C20_2 C19_2 1_555 1_555
H8_2 C20_2 1_555 1_555
C21_2 C20_2 1_555 1_555
C22_2 C17_2 1_555 1_555
H9_2 C22_2 1_555 1_555
C23_2 C19_2 1_555 1_555
C24_2 C21_2 1_555 1_555
O5_2 P1_2 1_555 1_555
O7_2 P2_2 1_555 1_555
O12_2 C24_2 1_555 1_555
O13_2 C24_2 1_555 1_555
O14_2 Tb2_6 1_555 1_555
C33_2 C34_2 1_555 1_555
C34_2 H13_2 1_555 1_555
C35_2 C34_2 1_555 1_555
C36_2 C35_2 1_555 1_555
H14_2 C36_2 1_555 1_555
C37_2 C36_2 1_555 1_555
C38_2 C33_2 1_555 1_555
H15_2 C38_2 1_555 1_555
C39_2 C35_2 1_555 1_555
C40_2 C37_2 1_555 1_555
N3_2 P2_2 1_555 1_555
O23_2 C39_2 1_555 1_555
O24_2 C39_2 1_555 1_555
O25_2 Tb2_6 1_555 1_555
Tb4 O12_2 1_555 1_555
Na4_2 O12_2 1_555 1_555
Na6_2 O23_2 1_555 1_555
C17_2 O7_2 1_555 1_555
C21_2 C22_2 1_555 1_555
C23_2 O14_2 1_555 1_555
O13_2 Tb4 1_555 1_555
C33_2 O21_2 1_555 1_555
C37_2 C38_2 1_555 1_555
C40_2 O25_2 1_555 1_555
O23_2 Tb4 1_555 1_555
O24_2 Na6_2 1_555 1_555
O25_2 Na4_2 1_555 1_555
C25_2 C26_2 1_555 1_555
C26_2 H10_2 1_555 1_555
C27_2 C26_2 1_555 1_555
C28_2 C27_2 1_555 1_555
H11_2 C28_2 1_555 1_555
C29_2 C28_2 1_555 1_555
C30_2 C25_2 1_555 1_555
C31_2 C27_2 1_555 1_555
O32 C31_2 1_555 1_555
C29_2 C30_2 1_555 1_555
O35_2 C32_2 1_555 1_555
O19_2 C32_2 1_555 1_555
Tb4 O8_2 1_555 1_555
P2_3 N2_2 1_555 1_555
C9_2 C10_2 1_555 1_555
C10_2 H4_2 1_555 1_555
C11_2 C10_2 1_555 1_555
C12_2 C11_2 1_555 1_555
H5_2 C12_2 1_555 1_555
C13_2 C12_2 1_555 1_555
C14_2 C9_2 1_555 1_555
H6_2 C14_2 1_555 1_555
C15_2 C11_2 1_555 1_555
C16_2 C13_2 1_555 1_555
N1_3 P3_2 1_555 1_555
O8_2 C15_2 1_555 1_555
O9_2 C15_2 1_555 1_555
O38_2 C16_2 1_555 1_555
Na4_2 O8_2 1_555 1_555
C41_2 C42_2 1_555 1_555
C42_2 H16_2 1_555 1_555
C43_2 C42_2 1_555 1_555
C44_2 C43_2 1_555 1_555
H17_2 C44_2 1_555 1_555
C45_2 C44_2 1_555 1_555
C46_2 C41_2 1_555 1_555
H18_2 C46_2 1_555 1_555
C47_2 C43_2 1_555 1_555
C48_2 C45_2 1_555 1_555
O20_2 P3_2 1_555 1_555
O22_2 P2_3 1_555 1_555
O27_2 Tb4 1_555 1_555
O28_2 Tb4 1_555 1_555
O45_2 C47_2 1_555 1_555
O47_2 Na4_2 1_555 1_555
C9_2 O6_2 1_555 1_555
C13_2 C14_2 1_555 1_555
O9_2 Na4_2 1_555 1_555
C41_2 O22_2 1_555 1_555
C45_2 C46_2 1_555 1_555
C48_2 O27_2 1_555 1_555
C48_2 O28_2 1_555 1_555
O27_2 Na6_2 1_555 1_555

#END
