
###############################################################################
#
# This file contains modified crystal structure data generated from the
# MOF subset of the Cambridge Structural Database (CSD) v543 
# hosted by the Cambridge Crystallographic Data Centre (CCDC).
#
# This work is licensed under the Creative Commons
# Attribution-NonCommercial-ShareAlike 4.0 International License.
# To view a copy of this license, visit
# http://creativecommons.org/licenses/by-nc-sa/4.0/
# or send a letter to
# Creative Commons, PO Box 1866, Mountain View, CA 94042, USA.
#
# CIF created using the CSD Python API on 29 September 2022
# The structure has been converted into the P1 space group
# The structure has a 3D framework
# The original CSD entry VEFJOG is in the triclinic crystal system
# The framework has been calculated to contain at least 10.0% void space
# The void calculation uses a probe of radius 1.32A, grid spacing 0.4
# The framework is charged, counterions have been retained in the structure
# H atom positions have been added when not included in the experimental data
#
###############################################################################

data_VEFJOG
_chemical_formula_moiety         '(C87 H51 Ag4 F12 N18 O12 S4)n'
_symmetry_cell_setting           triclinic
_symmetry_space_group_name_H-M   'P 1'
_symmetry_Int_Tables_number      1
_space_group_name_Hall           'P 1'
loop_
_symmetry_equiv_pos_site_id
_symmetry_equiv_pos_as_xyz
1 x,y,z
_cell_length_a                   10.410(3)
_cell_length_b                   13.126(4)
_cell_length_c                   19.282(6)
_cell_angle_alpha                86.692(6)
_cell_angle_beta                 78.256(6)
_cell_angle_gamma                76.867(5)
_cell_volume                     2511.92
loop_
_atom_site_label
_atom_site_type_symbol
_atom_site_fract_x
_atom_site_fract_y
_atom_site_fract_z
H25 H 0.0107 0.6441 0.8643
Ag4 Ag 0.08914(6) 0.18552(5) 0.61685(4)
N1 N -0.0000(6) 0.7304(5) 0.2234(4)
H1 H 0.0055 0.7948 0.2183
C3 C 0.0267(9) 0.4008(6) 0.1614(5)
C4 C 0.0780(8) 0.4841(6) 0.1252(5)
H5 H 0.0683 0.4992 0.0760
C5 C 0.0427(8) 0.5674(6) 0.1735(5)
C6 C 0.0556(7) 0.6694(6) 0.1665(4)
C7 C 0.1236(8) 0.7177(6) 0.1026(4)
C8 C 0.2468(9) 0.6641(6) 0.0681(5)
H6 H 0.2866 0.6001 0.0862
C9 C 0.3127(9) 0.7050(7) 0.0061(5)
C12 C 0.1339(11) 0.8567(8) 0.0172(6)
H8 H 0.0951 0.9221 0.0007
C13 C 0.0685(9) 0.8149(7) 0.0776(5)
H13 H 0.0130 0.4563 0.3835
Ag6 Ag 0.28039(8) 0.37187(6) 0.14838(4)
N9 N 0.0118(7) 0.6960(5) 0.4643(4)
N10 N 0.0072(7) 0.9497(5) 0.3959(4)
Ag2 Ag 0.71961(8) 0.62813(6) 0.85162(4)
N4 N 0.5402(9) 0.6092(7) 0.9368(5)
O1 O 0.6566(7) 0.4099(5) 0.7868(4)
O2 O 0.7201(10) 0.4313(8) 0.6640(4)
O3 O 0.6929(9) 0.5721(6) 0.7415(5)
C10 C 0.4398(11) 0.6505(8) 0.9682(5)
C11 C 0.2547(11) 0.8032(8) 0.9814(5)
H7 H 0.2984 0.8320 0.9407
C43 C 0.478(2) 0.5195(13) 0.7255(10)
F1 F 0.4370(9) 0.4397(8) 0.7138(6)
F2 F 0.4732(9) 0.5816(7) 0.6678(6)
F3 F 0.4137(11) 0.5682(10) 0.7779(7)
S1 S 0.6584(3) 0.4789(2) 0.72856(16)
N11 N 0.6670(9) 0.8042(6) 0.8321(4)
C44 C 0.9733(9) 0.5992(6) 0.8386(5)
C45 C 0.9220(8) 0.5159(6) 0.8748(5)
H26 H 0.9317 0.5008 0.9240
H27 H 0.971337 0.613455 0.782585
H28 H 0.872474 0.469241 0.848416
N7 N 0.9928(7) 0.0503(5) 0.6041(4)
N8 N 0.3330(9) 0.1958(6) 0.1679(4)
H17 H 0.4527 0.0412 0.2966
C31 C 0.3467(8) 0.0133(6) 0.2263(5)
C32 C 0.3396(9) 0.1130(7) 0.1922(5)
Ag1 Ag 0.91086(6) 0.81448(5) 0.38315(4)
N1_2 N 1.0000(6) 0.7304(5) 0.2234(4)
N2 N 0.9358(6) 0.7022(5) 0.2884(3)
N3 N 0.9882(7) 0.3040(5) 0.5357(4)
N5 N 0.6009(6) 0.8964(4) 0.3758(3)
H2 H 0.6352 0.9214 0.3358
N6 N 0.6757(6) 0.8842(4) 0.4271(4)
C1 C 0.9729(7) 0.5327(6) 0.2392(4)
C2 C 0.9626(8) 0.4310(6) 0.2310(5)
H3 H 0.9208 0.3900 0.2654
H4 H 0.9893 0.3559 0.1357
H9 H 0.9863 0.8526 0.1017
C14 C 0.9255(7) 0.6025(6) 0.2953(4)
C15 C 0.8579(8) 0.5699(5) 0.3656(4)
C16 C 0.7267(8) 0.6153(5) 0.3932(4)
H10 H 0.6810 0.6703 0.3688
C17 C 0.6614(8) 0.5808(6) 0.4564(5)
H11 H 0.5723 0.6123 0.4748
C18 C 0.7300(9) 0.4987(6) 0.4924(4)
H12 H 0.6862 0.4742 0.5348
C19 C 0.8629(8) 0.4529(6) 0.4658(5)
C20 C 0.9323(9) 0.3690(6) 0.5045(4)
C21 C 0.9244(8) 0.4882(6) 0.4023(4)
C22 C 0.6217(8) 0.8533(5) 0.4907(5)
C23 C 0.4917(8) 0.8313(5) 0.5041(4)
C24 C 0.4066(8) 0.8028(6) 0.5650(5)
H14 H 0.4234 0.7955 0.6108
C25 C 0.2923(8) 0.7878(6) 0.5435(5)
H15 H 0.2199 0.7682 0.5738
C26 C 0.3002(7) 0.8057(6) 0.4706(5)
H16 H 0.2371 0.7988 0.4443
C27 C 0.4228(7) 0.8364(5) 0.4450(5)
C28 C 0.4805(8) 0.8741(5) 0.3801(4)
C29 C 0.4171(7) 0.8968(6) 0.3180(5)
C30 C 0.4120(7) 0.9918(6) 0.2825(4)
C33 C 0.2883(8) 0.9414(7) 0.2033(5)
H18 H 0.2470 0.9566 0.1643
C34 C 0.2909(9) 0.8472(7) 0.2380(5)
H19 H 0.2491 0.7987 0.2237
C35 C 0.3570(8) 0.8244(6) 0.2951(5)
H20 H 0.3607 0.7598 0.3181
C36 C 0.7062(7) 0.8439(5) 0.5444(4)
C37 C 0.7140(7) 0.7618(6) 0.5939(4)
H21 H 0.6622 0.7127 0.5939
C38 C 0.7957(8) 0.7516(6) 0.6425(4)
H22 H 0.7992 0.6961 0.6748
C39 C 0.8725(8) 0.8239(6) 0.6431(4)
H23 H 0.9290 0.8171 0.6756
C40 C 0.8654(7) 0.9070(6) 0.5953(4)
C41 C 0.9396(8) 0.9872(6) 0.6000(4)
C42 C 0.7827(7) 0.9171(5) 0.5457(4)
H24 H 0.7789 0.9728 0.5135
N1_3 N 0.0000(6) 0.2696(5) 0.7766(4)
N2_2 N 0.0642(6) 0.2978(5) 0.7116(3)
N5_2 N 0.3991(6) 0.1036(4) 0.6242(3)
H2_2 H 0.3648 0.0786 0.6642
N6_2 N 0.3243(6) 0.1158(4) 0.5729(4)
C1_2 C 0.0271(7) 0.4673(6) 0.7608(4)
C2_2 C 0.0374(8) 0.5690(6) 0.7690(5)
H3_2 H 0.0792 0.6100 0.7346
H9_2 H 0.0137 0.1474 0.8983
C14_2 C 0.0745(7) 0.3975(6) 0.7047(4)
C15_2 C 0.1421(8) 0.4301(5) 0.6344(4)
C16_2 C 0.2733(8) 0.3847(5) 0.6068(4)
H10_2 H 0.3190 0.3297 0.6312
C17_2 C 0.3386(8) 0.4192(6) 0.5436(5)
H11_2 H 0.4277 0.3877 0.5252
C18_2 C 0.2700(9) 0.5013(6) 0.5076(4)
H12_2 H 0.3138 0.5258 0.4652
C19_2 C 0.1371(8) 0.5471(6) 0.5342(5)
C20_2 C 0.0677(9) 0.6310(6) 0.4955(4)
C21_2 C 0.0756(8) 0.5118(6) 0.5977(4)
C22_2 C 0.3783(8) 0.1467(5) 0.5093(5)
C23_2 C 0.5083(8) 0.1687(5) 0.4959(4)
C24_2 C 0.5934(8) 0.1972(6) 0.4350(5)
H14_2 H 0.5766 0.2045 0.3892
C25_2 C 0.7077(8) 0.2122(6) 0.4565(5)
H15_2 H 0.7801 0.2318 0.4262
C26_2 C 0.6998(7) 0.1943(6) 0.5294(5)
H16_2 H 0.7629 0.2012 0.5557
C27_2 C 0.5772(7) 0.1636(5) 0.5550(5)
C28_2 C 0.5195(8) 0.1259(5) 0.6199(4)
C29_2 C 0.5829(7) 0.1032(6) 0.6820(5)
C30_2 C 0.5880(7) 0.0082(6) 0.7175(4)
C33_2 C 0.7117(8) 0.0586(7) 0.7967(5)
H18_2 H 0.7530 0.0434 0.8357
C34_2 C 0.7091(9) 0.1528(7) 0.7620(5)
H19_2 H 0.7509 0.2013 0.7763
C35_2 C 0.6430(8) 0.1756(6) 0.7049(5)
H20_2 H 0.6393 0.2402 0.6819
C36_2 C 0.2938(7) 0.1561(5) 0.4556(4)
C37_2 C 0.2860(7) 0.2382(6) 0.4061(4)
H21_2 H 0.3378 0.2873 0.4061
C38_2 C 0.2043(8) 0.2484(6) 0.3575(4)
H22_2 H 0.2008 0.3039 0.3252
C39_2 C 0.1275(8) 0.1761(6) 0.3569(4)
H23_2 H 0.0710 0.1829 0.3244
C40_2 C 0.1346(7) 0.0930(6) 0.4047(4)
C41_2 C 0.0604(8) 0.0128(6) 0.4000(4)
C42_2 C 0.2173(7) 0.0829(5) 0.4543(4)
H24_2 H 0.2211 0.0272 0.4865
H17_2 H 0.5473 0.9588 0.7034
C31_2 C 0.6533(8) 0.9867(6) 0.7737(5)
C32_2 C 0.6604(9) 0.8870(7) 0.8078(5)
N4_2 N 0.4598(9) 0.3908(7) 0.0632(5)
O1_2 O 0.3434(7) 0.5901(5) 0.2132(4)
O2_2 O 0.2799(10) 0.5687(8) 0.3360(4)
O3_2 O 0.3071(9) 0.4279(6) 0.2585(5)
C10_2 C 0.5602(11) 0.3495(8) 0.0318(5)
C11_2 C 0.7453(11) 0.1968(8) 0.0186(5)
H7_2 H 0.7016 0.1680 0.0593
C43_2 C 0.522(2) 0.4805(13) 0.2745(10)
F1_2 F 0.5630(9) 0.5603(8) 0.2862(6)
F2_2 F 0.5268(9) 0.4184(7) 0.3322(6)
F3_2 F 0.5863(11) 0.4318(10) 0.2221(7)
S1_2 S 0.3416(3) 0.5211(2) 0.27144(16)
H27_2 H 0.0286628 0.386545 0.217415
H28_2 H 0.127526 0.530759 0.151584
N1_4 N 1.0000(6) 0.2696(5) 0.7766(4)
H1_2 H 0.9945 0.2052 0.7817
C5_2 C 0.9573(8) 0.4326(6) 0.8265(5)
C6_2 C 0.9444(7) 0.3306(6) 0.8335(4)
C7_2 C 0.8764(8) 0.2823(6) 0.8974(4)
C8_2 C 0.7532(9) 0.3359(6) 0.9319(5)
H6_2 H 0.7134 0.3999 0.9138
C9_2 C 0.6873(9) 0.2950(7) 0.9939(5)
C12_2 C 0.8661(11) 0.1433(8) 0.9828(6)
H8_2 H 0.9049 0.0779 0.9993
C13_2 C 0.9315(9) 0.1851(7) 0.9224(5)
H13_2 H 0.9870 0.5437 0.6165
O4 O 0.8173(8) 0.0148(6) 0.1371(4)
O6 O 0.7150(8) 0.0101(6) 0.2630(4)
C46 C 0.8529(16) 0.1418(12) 0.2178(10)
F4 F 0.8603(8) 0.1580(6) 0.2863(5)
F5 F 0.9661(11) 0.1527(7) 0.1804(7)
F6 F 0.7621(10) 0.2127(5) 0.1986(5)
S2 S 0.8302(3) 0.01539(19) 0.21234(17)
O5 O 0.9501(7) 0.9507(5) 0.2304(4)
O5_2 O 0.0499(7) 0.0493(5) 0.7696(4)
O4_2 O 0.1827(8) 0.9852(6) 0.8629(4)
O6_2 O 0.2850(8) 0.9899(6) 0.7370(4)
C46_2 C 0.1471(16) 0.8582(12) 0.7822(10)
F4_2 F 0.1397(8) 0.8420(6) 0.7137(5)
F5_2 F 0.0339(11) 0.8473(7) 0.8196(7)
F6_2 F 0.2379(10) 0.7873(5) 0.8014(5)
S2_2 S 0.1698(3) 0.98461(19) 0.78766(17)
loop_
_geom_bond_atom_site_label_1
_geom_bond_atom_site_label_2
_geom_bond_site_symmetry_1
_geom_bond_site_symmetry_2
N1 H1 1_555 1_555
C4 C3 1_555 1_555
H5 C4 1_555 1_555
C6 N1 1_555 1_555
C7 C6 1_555 1_555
C8 C7 1_555 1_555
H6 C8 1_555 1_555
C9 C8 1_555 1_555
H8 C12 1_555 1_555
C13 C7 1_555 1_555
Ag6 C3 1_555 1_555
C4 C5 1_555 1_555
C4 Ag6 1_555 1_555
C5 C6 1_555 1_555
C12 C13 1_555 1_555
Ag2 N4 1_555 1_555
N4 C10 1_555 1_555
O1 S1 1_555 1_555
O2 S1 1_555 1_555
O3 Ag2 1_555 1_555
H7 C11 1_555 1_555
C43 F1 1_555 1_555
F2 C43 1_555 1_555
F3 C43 1_555 1_555
S1 O3 1_555 1_555
N11 Ag2 1_555 1_555
C44 Ag2 1_555 1_555
C45 Ag2 1_555 1_555
H26 C45 1_555 1_555
C43 S1 1_555 1_555
C44 C45 1_555 1_555
C44 H27 1_555 1_555
C45 H28 1_555 1_555
N8 C32 1_555 1_555
C32 C31 1_555 1_555
Ag6 N8 1_555 1_555
Ag1 N2 1_555 1_555
N2 N1_2 1_555 1_555
N3 C20 1_555 1_555
N5 H2 1_555 1_555
N6 Ag1 1_555 1_555
C1 C2 1_555 1_555
C2 H3 1_555 1_555
C14 N2 1_555 1_555
C15 C14 1_555 1_555
C16 C15 1_555 1_555
H10 C16 1_555 1_555
C17 C16 1_555 1_555
H11 C17 1_555 1_555
C18 C17 1_555 1_555
H12 C18 1_555 1_555
C19 C18 1_555 1_555
C20 C19 1_555 1_555
C21 C15 1_555 1_555
C22 N6 1_555 1_555
C23 C22 1_555 1_555
C24 C23 1_555 1_555
H14 C24 1_555 1_555
C25 C24 1_555 1_555
H15 C25 1_555 1_555
C26 C25 1_555 1_555
H16 C26 1_555 1_555
C27 C23 1_555 1_555
C28 N5 1_555 1_555
C29 C28 1_555 1_555
C30 C29 1_555 1_555
H18 C33 1_555 1_555
C34 C33 1_555 1_555
H19 C34 1_555 1_555
C35 C29 1_555 1_555
H20 C35 1_555 1_555
C36 C22 1_555 1_555
C37 C36 1_555 1_555
H21 C37 1_555 1_555
C38 C37 1_555 1_555
H22 C38 1_555 1_555
C39 C38 1_555 1_555
H23 C39 1_555 1_555
C40 C39 1_555 1_555
C41 C40 1_555 1_555
C42 C36 1_555 1_555
H24 C42 1_555 1_555
N5 N6 1_555 1_555
C1 C14 1_555 1_555
C19 C21 1_555 1_555
C26 C27 1_555 1_555
C27 C28 1_555 1_555
C34 C35 1_555 1_555
C40 C42 1_555 1_555
Ag4 N2_2 1_555 1_555
N2_2 N1_3 1_555 1_555
N9 C20_2 1_555 1_555
N5_2 H2_2 1_555 1_555
N6_2 Ag4 1_555 1_555
C1_2 C2_2 1_555 1_555
C2_2 H3_2 1_555 1_555
C14_2 N2_2 1_555 1_555
C15_2 C14_2 1_555 1_555
C16_2 C15_2 1_555 1_555
H10_2 C16_2 1_555 1_555
C17_2 C16_2 1_555 1_555
H11_2 C17_2 1_555 1_555
C18_2 C17_2 1_555 1_555
H12_2 C18_2 1_555 1_555
C19_2 C18_2 1_555 1_555
C20_2 C19_2 1_555 1_555
C21_2 C15_2 1_555 1_555
C22_2 N6_2 1_555 1_555
C23_2 C22_2 1_555 1_555
C24_2 C23_2 1_555 1_555
H14_2 C24_2 1_555 1_555
C25_2 C24_2 1_555 1_555
H15_2 C25_2 1_555 1_555
C26_2 C25_2 1_555 1_555
H16_2 C26_2 1_555 1_555
C27_2 C23_2 1_555 1_555
C28_2 N5_2 1_555 1_555
C29_2 C28_2 1_555 1_555
C30_2 C29_2 1_555 1_555
H18_2 C33_2 1_555 1_555
C34_2 C33_2 1_555 1_555
H19_2 C34_2 1_555 1_555
C35_2 C29_2 1_555 1_555
H20_2 C35_2 1_555 1_555
C36_2 C22_2 1_555 1_555
C37_2 C36_2 1_555 1_555
H21_2 C37_2 1_555 1_555
C38_2 C37_2 1_555 1_555
H22_2 C38_2 1_555 1_555
C39_2 C38_2 1_555 1_555
H23_2 C39_2 1_555 1_555
C40_2 C39_2 1_555 1_555
C41_2 C40_2 1_555 1_555
C42_2 C36_2 1_555 1_555
H24_2 C42_2 1_555 1_555
N5_2 N6_2 1_555 1_555
C1_2 C14_2 1_555 1_555
C19_2 C21_2 1_555 1_555
C26_2 C27_2 1_555 1_555
C27_2 C28_2 1_555 1_555
C34_2 C35_2 1_555 1_555
C40_2 C42_2 1_555 1_555
N11 C32_2 1_555 1_555
C32_2 C31_2 1_555 1_555
Ag6 N4_2 1_555 1_555
N4_2 C10_2 1_555 1_555
O1_2 S1_2 1_555 1_555
O2_2 S1_2 1_555 1_555
O3_2 Ag6 1_555 1_555
H7_2 C11_2 1_555 1_555
C43_2 F1_2 1_555 1_555
F2_2 C43_2 1_555 1_555
F3_2 C43_2 1_555 1_555
S1_2 O3_2 1_555 1_555
C43_2 S1_2 1_555 1_555
C3 H27_2 1_555 1_555
C4 H28_2 1_555 1_555
N1_4 H1_2 1_555 1_555
C6_2 N1_4 1_555 1_555
C7_2 C6_2 1_555 1_555
C8_2 C7_2 1_555 1_555
H6_2 C8_2 1_555 1_555
C9_2 C8_2 1_555 1_555
H8_2 C12_2 1_555 1_555
C13_2 C7_2 1_555 1_555
C45 C5_2 1_555 1_555
C5_2 C6_2 1_555 1_555
C12_2 C13_2 1_555 1_555
O4 S2 1_555 1_555
O6 S2 1_555 1_555
C46 F4 1_555 1_555
F5 C46 1_555 1_555
F6 C46 1_555 1_555
S2 C46 1_555 1_555
O4_2 S2_2 1_555 1_555
O6_2 S2_2 1_555 1_555
C46_2 F4_2 1_555 1_555
F5_2 C46_2 1_555 1_555
F6_2 C46_2 1_555 1_555
S2_2 C46_2 1_555 1_555

#END
