
###############################################################################
#
# This file contains modified crystal structure data generated from the
# MOF subset of the Cambridge Structural Database (CSD) v543 
# hosted by the Cambridge Crystallographic Data Centre (CCDC).
#
# This work is licensed under the Creative Commons
# Attribution-NonCommercial-ShareAlike 4.0 International License.
# To view a copy of this license, visit
# http://creativecommons.org/licenses/by-nc-sa/4.0/
# or send a letter to
# Creative Commons, PO Box 1866, Mountain View, CA 94042, USA.
#
# CIF created using the CSD Python API on 29 September 2022
# The structure has been converted into the P1 space group
# The structure has a 3D framework
# The original CSD entry VEFTUZ02 is in the orthorhombic crystal system
# The framework has been calculated to contain at least 10.0% void space
# The void calculation uses a probe of radius 1.32A, grid spacing 0.4
# The framework is charged, counterions have been retained in the structure
#
###############################################################################

data_VEFTUZ02
_chemical_formula_moiety         '(C24 Mn10 N36 8+)n'
_symmetry_cell_setting           triclinic
_symmetry_space_group_name_H-M   'P 1'
_symmetry_Int_Tables_number      1
_space_group_name_Hall           'P 1'
loop_
_symmetry_equiv_pos_site_id
_symmetry_equiv_pos_as_xyz
1 x,y,z
_cell_length_a                   11.6485(6)
_cell_length_b                   12.2688(5)
_cell_length_c                   16.6697(7)
_cell_angle_alpha                90
_cell_angle_beta                 90
_cell_angle_gamma                90
_cell_volume                     2382.32
loop_
_atom_site_label
_atom_site_type_symbol
_atom_site_fract_x
_atom_site_fract_y
_atom_site_fract_z
Mn4 Mn 0.0000 0.0000 0.0000
Mn4_2 Mn 0.0000 0.0000 1.0000
Mn4_3 Mn 0.0000 1.0000 0.0000
Mn4_4 Mn 0.0000 1.0000 1.0000
Mn1 Mn 0.5000 0.5000 0.0000
N4 N 0.4750(3) 0.5738(2) 0.11960(17)
N5 N 0.4297(8) 0.6487(6) 0.2500
C1 C 0.4477(3) 0.5980(2) 0.1830(2)
N6 N 0.4750(3) 0.5738(2) 0.38040(17)
C4 C 0.4477(3) 0.5980(2) 0.3170(2)
N7 N 0.6016(3) 0.3647(2) 0.0523(2)
N8 N 0.6630(6) 0.1754(5) 0.0595(5)
N9 N 0.8409(3) 0.0944(2) 0.0227(2)
C5 C 0.7691(3) 0.1436(3) 0.0478(3)
C6 C 0.6431(3) 0.2839(3) 0.0625(2)
Mn2 Mn 0.5000 0.5000 0.5000
Mn4_5 Mn 1.0000 0.0000 0.0000
N10 N 0.3409(3) 0.4056(2) 0.0227(2)
Mn1_2 Mn 0.5000 0.5000 1.0000
N1 N 0.3984(3) 0.6353(2) 0.9477(2)
N2 N 0.3370(6) 0.8246(5) 0.9405(5)
N3 N 0.1591(3) 0.9056(2) 0.9773(2)
C2 C 0.2309(3) 0.8564(3) 0.9522(3)
C3 C 0.3569(3) 0.7161(3) 0.9375(2)
Mn4_6 Mn 1.0000 0.0000 1.0000
N11 N 0.6591(3) 0.5944(2) 0.9773(2)
N12 N 0.5250(3) 0.4262(2) 0.88040(17)
Mn4_7 Mn 1.0000 1.0000 0.0000
Mn4_8 Mn 1.0000 1.0000 1.0000
Mn3 Mn 0.0000 0.0000 0.5000
Mn3_2 Mn 0.0000 1.0000 0.5000
N1_2 N 0.6016(3) 0.3647(2) 0.4477(2)
N2_2 N 0.6630(6) 0.1754(5) 0.4405(5)
N3_2 N 0.8409(3) 0.0944(2) 0.4773(2)
N4_2 N 0.5250(3) 0.4262(2) 0.61960(17)
N5_2 N 0.5703(8) 0.3513(6) 0.7500
C1_2 C 0.5523(3) 0.4020(2) 0.6830(2)
C2_2 C 0.7691(3) 0.1436(3) 0.4522(3)
C3_2 C 0.6431(3) 0.2839(3) 0.4375(2)
C4_2 C 0.5523(3) 0.4020(2) 0.8170(2)
N7_2 N 0.3984(3) 0.6353(2) 0.5523(2)
N8_2 N 0.3370(6) 0.8246(5) 0.5595(5)
N9_2 N 0.1591(3) 0.9056(2) 0.5227(2)
C5_2 C 0.2309(3) 0.8564(3) 0.5478(3)
C6_2 C 0.3569(3) 0.7161(3) 0.5625(2)
Mn3_3 Mn 1.0000 0.0000 0.5000
N10_2 N 0.6591(3) 0.5944(2) 0.5227(2)
N11_2 N 0.3409(3) 0.4056(2) 0.4773(2)
Mn3_4 Mn 1.0000 1.0000 0.5000
N7_3 N 0.1016(3) 0.1353(2) 0.4477(2)
N8_3 N 0.1630(6) 0.3246(5) 0.4405(5)
C5_3 C 0.2691(3) 0.3564(3) 0.4522(3)
C6_3 C 0.1431(3) 0.2161(3) 0.4375(2)
N12_2 N 0.0250(3) 0.0738(2) 0.61960(17)
N1_3 N 0.8984(3) 0.8647(2) 0.5523(2)
N2_3 N 0.8370(6) 0.6754(5) 0.5595(5)
N4_3 N 0.9750(3) 0.9262(2) 0.38040(17)
N5_3 N 0.9297(8) 0.8513(6) 0.2500
C1_3 C 0.9477(3) 0.9020(2) 0.3170(2)
C2_3 C 0.7309(3) 0.6436(3) 0.5478(3)
C3_3 C 0.8569(3) 0.7839(3) 0.5625(2)
N6_2 N 0.9750(3) 0.9262(2) 0.11960(17)
C4_3 C 0.9477(3) 0.9020(2) 0.1830(2)
N1_4 N 0.1016(3) 0.1353(2) 0.0523(2)
N2_4 N 0.1630(6) 0.3246(5) 0.0595(5)
C2_4 C 0.2691(3) 0.3564(3) 0.0478(3)
C3_4 C 0.1431(3) 0.2161(3) 0.0625(2)
N4_4 N 0.0250(3) 0.0738(2) 0.88040(17)
N5_4 N 0.0703(8) 0.1487(6) 0.7500
C1_4 C 0.0523(3) 0.0980(2) 0.8170(2)
C4_4 C 0.0523(3) 0.0980(2) 0.6830(2)
N7_4 N 0.8984(3) 0.8647(2) 0.9477(2)
N8_4 N 0.8370(6) 0.6754(5) 0.9405(5)
C5_4 C 0.7309(3) 0.6436(3) 0.9522(3)
C6_4 C 0.8569(3) 0.7839(3) 0.9375(2)
loop_
_geom_bond_atom_site_label_1
_geom_bond_atom_site_label_2
_geom_bond_site_symmetry_1
_geom_bond_site_symmetry_2
N4 Mn1 1_555 1_555
N5 C1 1_555 1_555
C1 N4 1_555 1_555
N6 C4 1_555 1_555
C4 N5 1_555 1_555
N7 Mn1 1_555 1_555
N8 C5 1_555 1_555
N9 C5 1_555 1_555
C6 N7 1_555 1_555
Mn2 N6 1_555 1_555
Mn4_5 N9 1_555 1_555
N10 Mn1 1_555 1_555
N8 C6 1_555 1_555
Mn1_2 N1 1_555 1_555
N1 C3 1_555 1_555
N2 C2 1_555 1_555
N3 C2 1_555 1_555
C3 N2 1_555 1_555
Mn4_4 N3 1_555 1_555
N11 Mn1_2 1_555 1_555
N12 Mn1_2 1_555 1_555
Mn2 N1_2 1_555 1_555
N1_2 C3_2 1_555 1_555
N2_2 C2_2 1_555 1_555
N3_2 C2_2 1_555 1_555
N4_2 Mn2 1_555 1_555
N5_2 C1_2 1_555 1_555
C1_2 N4_2 1_555 1_555
C3_2 N2_2 1_555 1_555
N12 C4_2 1_555 1_555
C4_2 N5_2 1_555 1_555
N7_2 Mn2 1_555 1_555
N8_2 C5_2 1_555 1_555
N9_2 C5_2 1_555 1_555
C6_2 N7_2 1_555 1_555
Mn3_3 N3_2 1_555 1_555
Mn3_2 N9_2 1_555 1_555
N10_2 Mn2 1_555 1_555
N11_2 Mn2 1_555 1_555
N8_2 C6_2 1_555 1_555
N7_3 Mn3 1_555 1_555
N8_3 C5_3 1_555 1_555
N11_2 C5_3 1_555 1_555
C6_3 N7_3 1_555 1_555
N12_2 Mn3 1_555 1_555
N8_3 C6_3 1_555 1_555
Mn3_4 N1_3 1_555 1_555
N1_3 C3_3 1_555 1_555
N2_3 C2_3 1_555 1_555
N10_2 C2_3 1_555 1_555
N4_3 Mn3_4 1_555 1_555
N5_3 C1_3 1_555 1_555
C1_3 N4_3 1_555 1_555
C3_3 N2_3 1_555 1_555
N6_2 C4_3 1_555 1_555
C4_3 N5_3 1_555 1_555
Mn4_7 N6_2 1_555 1_555
Mn4 N1_4 1_555 1_555
N1_4 C3_4 1_555 1_555
N2_4 C2_4 1_555 1_555
N10 C2_4 1_555 1_555
C3_4 N2_4 1_555 1_555
N4_4 Mn4_2 1_555 1_555
N5_4 C1_4 1_555 1_555
C1_4 N4_4 1_555 1_555
N12_2 C4_4 1_555 1_555
C4_4 N5_4 1_555 1_555
N7_4 Mn4_8 1_555 1_555
N8_4 C5_4 1_555 1_555
N11 C5_4 1_555 1_555
C6_4 N7_4 1_555 1_555
N8_4 C6_4 1_555 1_555

#END
