
###############################################################################
#
# This file contains modified crystal structure data generated from the
# MOF subset of the Cambridge Structural Database (CSD) v543 
# hosted by the Cambridge Crystallographic Data Centre (CCDC).
#
# This work is licensed under the Creative Commons
# Attribution-NonCommercial-ShareAlike 4.0 International License.
# To view a copy of this license, visit
# http://creativecommons.org/licenses/by-nc-sa/4.0/
# or send a letter to
# Creative Commons, PO Box 1866, Mountain View, CA 94042, USA.
#
# CIF created using the CSD Python API on 29 September 2022
# The structure has been converted into the P1 space group
# The structure has a 3D framework
# The original CSD entry VEFTIN is in the tetragonal crystal system
# The framework has been calculated to contain at least 10.0% void space
# The void calculation uses a probe of radius 1.32A, grid spacing 0.4
# The framework is charged, counterions have been retained in the structure
#
###############################################################################

data_VEFTIN
_chemical_formula_moiety         '(C48 Mn8 N72 8-)n'
_symmetry_cell_setting           triclinic
_symmetry_space_group_name_H-M   'P 1'
_symmetry_Int_Tables_number      1
_space_group_name_Hall           'P 1'
loop_
_symmetry_equiv_pos_site_id
_symmetry_equiv_pos_as_xyz
1 x,y,z
_cell_length_a                   16.1196(3)
_cell_length_b                   16.1196(3)
_cell_length_c                   17.5219(6)
_cell_angle_alpha                90
_cell_angle_beta                 90
_cell_angle_gamma                90
_cell_volume                     4552.92
loop_
_atom_site_label
_atom_site_type_symbol
_atom_site_fract_x
_atom_site_fract_y
_atom_site_fract_z
N5 N 0.1240(3) 0.3054(3) 0.2761(3)
C4 C 0.0624(4) 0.3390(3) 0.2678(4)
Mn3 Mn 0.23979(5) 0.23298(4) 0.27834(4)
N2 N 0.9956(4) 0.3808(3) 0.2647(5)
N3 N 0.6153(3) 0.5210(3) 0.2418(4)
C1 C 0.6502(3) 0.4494(3) 0.2282(3)
Mn1 Mn 0.73979(5) 0.26702(4) 0.22166(4)
N6 N 0.6878(3) 0.6504(3) 0.2702(3)
N7 N 0.7480(3) 0.2593(3) 0.09579(19)
N8 N 0.6701(3) 0.3870(3) 0.2167(3)
N9 N 0.8601(3) 0.3369(3) 0.2270(3)
C2 C 0.6567(3) 0.5871(3) 0.2571(3)
C3 C 0.9252(4) 0.3553(3) 0.2464(3)
C5 C 0.7642(5) 0.2406(6) 0.0379(3)
Mn2 Mn 0.76021(5) 0.76702(4) 0.27834(4)
N10 N 0.7332(4) 0.2744(4) 0.3470(2)
N11 N 0.6240(3) 0.1946(3) 0.2239(3)
N12 N 0.8122(3) 0.1504(3) 0.2298(3)
N1 N 0.7760(10) 0.1851(6) 0.9775(4)
N4 N 0.7744(4) 0.2332(4) 0.8470(2)
C6 C 0.7746(7) 0.2266(7) 0.9071(3)
Mn4 Mn 0.76702(4) 0.23979(5) 0.72166(4)
N2_2 N 0.0044(4) 0.6192(3) 0.2647(5)
N3_2 N 0.3847(3) 0.4790(3) 0.2418(4)
C1_2 C 0.3498(3) 0.5506(3) 0.2282(3)
Mn1_2 Mn 0.26021(5) 0.73298(4) 0.22166(4)
N6_2 N 0.3122(3) 0.3496(3) 0.2702(3)
N7_2 N 0.2520(3) 0.7407(3) 0.09579(19)
N8_2 N 0.3299(3) 0.6130(3) 0.2167(3)
N9_2 N 0.1399(3) 0.6631(3) 0.2270(3)
C2_2 C 0.3433(3) 0.4129(3) 0.2571(3)
C3_2 C 0.0748(4) 0.6447(3) 0.2464(3)
C5_2 C 0.2358(5) 0.7594(6) 0.0379(3)
N10_2 N 0.2668(4) 0.7256(4) 0.3470(2)
N11_2 N 0.3760(3) 0.8054(3) 0.2239(3)
N12_2 N 0.1878(3) 0.8496(3) 0.2298(3)
N1_2 N 0.2240(10) 0.8149(6) 0.9775(4)
N4_2 N 0.2256(4) 0.7668(4) 0.8470(2)
C6_2 C 0.2254(7) 0.7734(7) 0.9071(3)
Mn4_2 Mn 0.23298(4) 0.76021(5) 0.72166(4)
N5_2 N 0.8760(3) 0.6946(3) 0.2761(3)
C4_2 C 0.9376(4) 0.6610(3) 0.2678(4)
N1_3 N 0.1851(6) 0.2240(10) 0.0225(4)
N4_3 N 0.2332(4) 0.2256(4) 0.1530(2)
C6_3 C 0.2266(7) 0.2254(7) 0.0929(3)
N2_3 N 0.3808(3) 0.0044(4) 0.7353(5)
N3_3 N 0.5210(3) 0.3847(3) 0.7582(4)
C1_3 C 0.4494(3) 0.3498(3) 0.7718(3)
Mn1_3 Mn 0.26702(4) 0.26021(5) 0.77834(4)
N6_3 N 0.6504(3) 0.3122(3) 0.7298(3)
N7_3 N 0.2593(3) 0.2520(3) 0.90421(19)
N8_3 N 0.3870(3) 0.3299(3) 0.7833(3)
N9_3 N 0.3369(3) 0.1399(3) 0.7730(3)
C2_3 C 0.5871(3) 0.3433(3) 0.7429(3)
C3_3 C 0.3553(3) 0.0748(4) 0.7536(3)
C5_3 C 0.2406(6) 0.2358(5) 0.9621(3)
N10_3 N 0.2744(4) 0.2668(4) 0.6530(2)
N11_3 N 0.1946(3) 0.3760(3) 0.7761(3)
N12_3 N 0.1504(3) 0.1878(3) 0.7702(3)
N5_3 N 0.3054(3) 0.8760(3) 0.7239(3)
C4_3 C 0.3390(3) 0.9376(4) 0.7322(4)
N5_4 N 0.6946(3) 0.1240(3) 0.7239(3)
C4_4 C 0.6610(3) 0.0624(4) 0.7322(4)
N1_4 N 0.8149(6) 0.7760(10) 0.0225(4)
N4_4 N 0.7668(4) 0.7744(4) 0.1530(2)
C6_4 C 0.7734(7) 0.7746(7) 0.0929(3)
N2_4 N 0.6192(3) 0.9956(4) 0.7353(5)
N3_4 N 0.4790(3) 0.6153(3) 0.7582(4)
C1_4 C 0.5506(3) 0.6502(3) 0.7718(3)
Mn1_4 Mn 0.73298(4) 0.73979(5) 0.77834(4)
N6_4 N 0.3496(3) 0.6878(3) 0.7298(3)
N7_4 N 0.7407(3) 0.7480(3) 0.90421(19)
N8_4 N 0.6130(3) 0.6701(3) 0.7833(3)
N9_4 N 0.6631(3) 0.8601(3) 0.7730(3)
C2_4 C 0.4129(3) 0.6567(3) 0.7429(3)
C3_4 C 0.6447(3) 0.9252(4) 0.7536(3)
C5_4 C 0.7594(6) 0.7642(5) 0.9621(3)
N10_4 N 0.7256(4) 0.7332(4) 0.6530(2)
N11_4 N 0.8054(3) 0.6240(3) 0.7761(3)
N12_4 N 0.8496(3) 0.8122(3) 0.7702(3)
N3_5 N 0.8847(3) 0.0210(3) 0.2582(4)
C2_5 C 0.8433(3) 0.0871(3) 0.2429(3)
N1_5 N 0.7240(10) 0.6851(6) 0.5225(4)
N2_5 N 0.5044(4) 0.8808(3) 0.2353(5)
C1_5 C 0.8498(3) 0.9494(3) 0.2718(3)
N7_5 N 0.7520(3) 0.7593(3) 0.40421(19)
N8_5 N 0.8299(3) 0.8870(3) 0.2833(3)
N9_5 N 0.6399(3) 0.8369(3) 0.2730(3)
C3_5 C 0.5748(4) 0.8553(3) 0.2536(3)
C4_5 C 0.4376(4) 0.8390(3) 0.2322(4)
C5_5 C 0.7358(5) 0.7406(6) 0.4621(3)
C6_5 C 0.7254(7) 0.7266(7) 0.5929(3)
N1_6 N 0.2760(10) 0.3149(6) 0.5225(4)
N2_6 N 0.4956(4) 0.1192(3) 0.2353(5)
C1_6 C 0.1502(3) 0.0506(3) 0.2718(3)
N7_6 N 0.2480(3) 0.2407(3) 0.40421(19)
N8_6 N 0.1701(3) 0.1130(3) 0.2833(3)
N9_6 N 0.3601(3) 0.1631(3) 0.2730(3)
C3_6 C 0.4252(4) 0.1447(3) 0.2536(3)
C4_6 C 0.5624(4) 0.1610(3) 0.2322(4)
C5_6 C 0.2642(5) 0.2594(6) 0.4621(3)
C6_6 C 0.2746(7) 0.2734(7) 0.5929(3)
N3_6 N 0.1153(3) 0.9790(3) 0.2582(4)
C2_6 C 0.1567(3) 0.9129(3) 0.2429(3)
N1_7 N 0.3149(6) 0.7240(10) 0.4775(4)
N2_7 N 0.1192(3) 0.5044(4) 0.7647(5)
C1_7 C 0.0506(3) 0.8498(3) 0.7282(3)
N7_7 N 0.2407(3) 0.7520(3) 0.59579(19)
N8_7 N 0.1130(3) 0.8299(3) 0.7167(3)
N9_7 N 0.1631(3) 0.6399(3) 0.7270(3)
C3_7 C 0.1447(3) 0.5748(4) 0.7464(3)
C4_7 C 0.1610(3) 0.4376(4) 0.7678(4)
C5_7 C 0.2594(6) 0.7358(5) 0.5379(3)
C6_7 C 0.2734(7) 0.7254(7) 0.4071(3)
N3_7 N 0.9790(3) 0.8847(3) 0.7418(4)
C2_7 C 0.9129(3) 0.8433(3) 0.7571(3)
N3_8 N 0.0210(3) 0.1153(3) 0.7418(4)
C2_8 C 0.0871(3) 0.1567(3) 0.7571(3)
N1_8 N 0.6851(6) 0.2760(10) 0.4775(4)
N2_8 N 0.8808(3) 0.4956(4) 0.7647(5)
C1_8 C 0.9494(3) 0.1502(3) 0.7282(3)
N7_8 N 0.7593(3) 0.2480(3) 0.59579(19)
N8_8 N 0.8870(3) 0.1701(3) 0.7167(3)
N9_8 N 0.8369(3) 0.3601(3) 0.7270(3)
C3_8 C 0.8553(3) 0.4252(4) 0.7464(3)
C4_8 C 0.8390(3) 0.5624(4) 0.7678(4)
C5_8 C 0.7406(6) 0.2642(5) 0.5379(3)
C6_8 C 0.7266(7) 0.2746(7) 0.4071(3)
loop_
_geom_bond_atom_site_label_1
_geom_bond_atom_site_label_2
_geom_bond_site_symmetry_1
_geom_bond_site_symmetry_2
N5 C4 1_555 1_555
Mn3 N5 1_555 1_555
N2 C3 1_555 1_555
N3 C1 1_555 1_555
C1 N8 1_555 1_555
Mn1 N7 1_555 1_555
N6 C2 1_555 1_555
N7 C5 1_555 1_555
N8 Mn1 1_555 1_555
N9 Mn1 1_555 1_555
C2 N3 1_555 1_555
C3 N9 1_555 1_555
Mn2 N6 1_555 1_555
N10 Mn1 1_555 1_555
N11 Mn1 1_555 1_555
N12 Mn1 1_555 1_555
N4 C6 1_555 1_555
C6 N1 1_555 1_555
Mn4 N4 1_555 1_555
N2_2 C3_2 1_555 1_555
N3_2 C1_2 1_555 1_555
C1_2 N8_2 1_555 1_555
Mn1_2 N7_2 1_555 1_555
N6_2 C2_2 1_555 1_555
N7_2 C5_2 1_555 1_555
N8_2 Mn1_2 1_555 1_555
N9_2 Mn1_2 1_555 1_555
C2_2 N3_2 1_555 1_555
C3_2 N9_2 1_555 1_555
Mn3 N6_2 1_555 1_555
N10_2 Mn1_2 1_555 1_555
N11_2 Mn1_2 1_555 1_555
N12_2 Mn1_2 1_555 1_555
N4_2 C6_2 1_555 1_555
C6_2 N1_2 1_555 1_555
Mn4_2 N4_2 1_555 1_555
N5_2 C4_2 1_555 1_555
Mn2 N5_2 1_555 1_555
N4_3 C6_3 1_555 1_555
C6_3 N1_3 1_555 1_555
Mn3 N4_3 1_555 1_555
N2_3 C3_3 1_555 1_555
N3_3 C1_3 1_555 1_555
C1_3 N8_3 1_555 1_555
Mn1_3 N7_3 1_555 1_555
N6_3 C2_3 1_555 1_555
N7_3 C5_3 1_555 1_555
N8_3 Mn1_3 1_555 1_555
N9_3 Mn1_3 1_555 1_555
C2_3 N3_3 1_555 1_555
C3_3 N9_3 1_555 1_555
Mn4 N6_3 1_555 1_555
N10_3 Mn1_3 1_555 1_555
N11_3 Mn1_3 1_555 1_555
N12_3 Mn1_3 1_555 1_555
N5_3 C4_3 1_555 1_555
Mn4_2 N5_3 1_555 1_555
N5_4 C4_4 1_555 1_555
Mn4 N5_4 1_555 1_555
N4_4 C6_4 1_555 1_555
C6_4 N1_4 1_555 1_555
Mn2 N4_4 1_555 1_555
N2_4 C3_4 1_555 1_555
N3_4 C1_4 1_555 1_555
C1_4 N8_4 1_555 1_555
Mn1_4 N7_4 1_555 1_555
N6_4 C2_4 1_555 1_555
N7_4 C5_4 1_555 1_555
N8_4 Mn1_4 1_555 1_555
N9_4 Mn1_4 1_555 1_555
C2_4 N3_4 1_555 1_555
C3_4 N9_4 1_555 1_555
Mn4_2 N6_4 1_555 1_555
N10_4 Mn1_4 1_555 1_555
N11_4 Mn1_4 1_555 1_555
N12_4 Mn1_4 1_555 1_555
N12 C2_5 1_555 1_555
C2_5 N3_5 1_555 1_555
N1_5 C5_5 1_555 1_555
N2_5 C3_5 1_555 1_555
C1_5 N8_5 1_555 1_555
Mn2 N7_5 1_555 1_555
N10_4 C6_5 1_555 1_555
N11_2 C4_5 1_555 1_555
N7_5 C5_5 1_555 1_555
N8_5 Mn2 1_555 1_555
N9_5 Mn2 1_555 1_555
C3_5 N9_5 1_555 1_555
C4_5 N2_5 1_555 1_555
C6_5 N1_5 1_555 1_555
N1_6 C5_6 1_555 1_555
N2_6 C3_6 1_555 1_555
C1_6 N8_6 1_555 1_555
Mn3 N7_6 1_555 1_555
N10_3 C6_6 1_555 1_555
N11 C4_6 1_555 1_555
N7_6 C5_6 1_555 1_555
N8_6 Mn3 1_555 1_555
N9_6 Mn3 1_555 1_555
C3_6 N9_6 1_555 1_555
C4_6 N2_6 1_555 1_555
C6_6 N1_6 1_555 1_555
N12_2 C2_6 1_555 1_555
C2_6 N3_6 1_555 1_555
N1_7 C5_7 1_555 1_555
N2_7 C3_7 1_555 1_555
C1_7 N8_7 1_555 1_555
Mn4_2 N7_7 1_555 1_555
N10_2 C6_7 1_555 1_555
N11_3 C4_7 1_555 1_555
N7_7 C5_7 1_555 1_555
N8_7 Mn4_2 1_555 1_555
N9_7 Mn4_2 1_555 1_555
C3_7 N9_7 1_555 1_555
C4_7 N2_7 1_555 1_555
C6_7 N1_7 1_555 1_555
N12_4 C2_7 1_555 1_555
C2_7 N3_7 1_555 1_555
N12_3 C2_8 1_555 1_555
C2_8 N3_8 1_555 1_555
N1_8 C5_8 1_555 1_555
N2_8 C3_8 1_555 1_555
C1_8 N8_8 1_555 1_555
Mn4 N7_8 1_555 1_555
N10 C6_8 1_555 1_555
N11_4 C4_8 1_555 1_555
N7_8 C5_8 1_555 1_555
N8_8 Mn4 1_555 1_555
N9_8 Mn4 1_555 1_555
C3_8 N9_8 1_555 1_555
C4_8 N2_8 1_555 1_555
C6_8 N1_8 1_555 1_555

#END
