
###############################################################################
#
# This file contains modified crystal structure data generated from the
# MOF subset of the Cambridge Structural Database (CSD) v543 
# hosted by the Cambridge Crystallographic Data Centre (CCDC).
#
# This work is licensed under the Creative Commons
# Attribution-NonCommercial-ShareAlike 4.0 International License.
# To view a copy of this license, visit
# http://creativecommons.org/licenses/by-nc-sa/4.0/
# or send a letter to
# Creative Commons, PO Box 1866, Mountain View, CA 94042, USA.
#
# CIF created using the CSD Python API on 29 September 2022
# The structure has been converted into the P1 space group
# The structure has a 3D framework
# The original CSD entry VEFTUZ01 is in the orthorhombic crystal system
# The original CSD entry VEFTUZ01 is in a Sohncke space group
# The framework has been calculated to contain at least 10.0% void space
# The void calculation uses a probe of radius 1.32A, grid spacing 0.4
# The framework is charged, counterions have been retained in the structure
#
###############################################################################

data_VEFTUZ01
_chemical_formula_moiety         '(C24 Mn4 N36 4-)n'
_symmetry_cell_setting           triclinic
_symmetry_space_group_name_H-M   'P 1'
_symmetry_Int_Tables_number      1
_space_group_name_Hall           'P 1'
loop_
_symmetry_equiv_pos_site_id
_symmetry_equiv_pos_as_xyz
1 x,y,z
_cell_length_a                   11.6357(6)
_cell_length_b                   12.2736(6)
_cell_length_c                   16.6608(7)
_cell_angle_alpha                90
_cell_angle_beta                 90
_cell_angle_gamma                90
_cell_volume                     2379.36
loop_
_atom_site_label
_atom_site_type_symbol
_atom_site_fract_x
_atom_site_fract_y
_atom_site_fract_z
N3 N 0.14551(16) 0.13745(13) 0.30878(10)
C5 C 0.10521(17) 0.21974(15) 0.31462(12)
N8 N 0.0711(2) 0.31615(17) 0.33023(15)
Mn4 Mn 0.24833(3) 0.003039(17) 0.254804(11)
Mn1 Mn 0.75167(3) 0.503039(17) 0.245196(11)
C1 C 0.80366(18) 0.59925(14) 0.42748(10)
N1 N 0.77593(17) 0.57801(12) 0.36503(8)
C2 C 0.80126(17) 0.59599(13) 0.56377(9)
N2 N 0.77179(16) 0.57133(12) 0.62510(8)
N4 N 0.84471(18) 0.63226(16) 0.49589(9)
N5 N 0.34852(15) 0.86790(13) 0.20339(10)
C3 C 0.52174(19) 0.65081(16) 0.19767(12)
C4 C 0.98386(18) 0.36194(15) 0.29459(13)
N6 N 0.59468(15) 0.59910(12) 0.22033(10)
N7 N 0.91165(15) 0.41082(13) 0.26615(11)
C6 C 0.39147(18) 0.78899(17) 0.18957(12)
N9 N 0.43665(19) 0.69875(18) 0.16385(14)
Mn2 Mn 0.74833(3) 0.496961(17) 0.745196(11)
N10 N 0.72821(16) 0.42867(12) 0.12510(8)
N11 N 0.85449(16) 0.63745(13) 0.19122(10)
N12 N 0.65148(15) 0.36790(13) 0.29661(10)
N5_2 N 0.15148(15) 0.13210(13) 0.70339(10)
C6_2 C 0.10853(18) 0.21101(17) 0.68957(12)
N9_2 N 0.06335(19) 0.30125(18) 0.66385(14)
Mn3 Mn 0.25167(3) 0.996961(17) 0.754804(11)
C2_2 C 0.69874(17) 0.40401(13) 0.06377(9)
C1_2 C 0.69634(18) 0.40075(14) 0.92748(10)
N1_2 N 0.72407(17) 0.42199(12) 0.86503(8)
N3_2 N 0.35449(16) 0.86255(13) 0.80878(10)
N4_2 N 0.65529(18) 0.36774(16) 0.99589(9)
C3_2 C 0.97826(19) 0.34919(16) 0.69767(12)
C4_2 C 0.51614(18) 0.63806(15) 0.79459(13)
N6_2 N 0.90532(15) 0.40090(12) 0.72033(10)
N7_2 N 0.58835(15) 0.58918(13) 0.76615(11)
C5_2 C 0.39479(17) 0.78026(15) 0.81462(12)
N8_2 N 0.4289(2) 0.68385(17) 0.83023(15)
N11_2 N 0.64551(16) 0.36255(13) 0.69122(10)
N12_2 N 0.84852(15) 0.63210(13) 0.79661(10)
C1_3 C 0.19634(18) 0.09925(14) 0.07252(10)
N1_3 N 0.22407(17) 0.07801(12) 0.13497(8)
N4_3 N 0.15529(18) 0.13226(16) 0.00411(9)
C3_3 C 0.47826(19) 0.15081(16) 0.30233(12)
N6_3 N 0.40532(15) 0.09910(12) 0.27967(10)
C6_3 C 0.60853(18) 0.28899(17) 0.31043(12)
N9_3 N 0.56335(19) 0.19875(18) 0.33615(14)
C2_3 C 0.19874(17) 0.09599(13) 0.93623(9)
N2_2 N 0.22821(16) 0.07133(12) 0.87490(8)
C4_3 C 0.01614(18) 0.86194(15) 0.20541(13)
N7_3 N 0.08835(15) 0.91082(13) 0.23385(11)
N10_2 N 0.27179(16) 0.92867(12) 0.37490(8)
C5_3 C 0.89479(17) 0.71974(15) 0.18538(12)
N8_3 N 0.9289(2) 0.81615(17) 0.16977(15)
C4_4 C 0.48386(18) 0.13806(15) 0.70541(13)
N7_4 N 0.41165(15) 0.08918(13) 0.73385(11)
C5_4 C 0.60521(17) 0.28026(15) 0.68538(12)
N8_4 N 0.5711(2) 0.18385(17) 0.66977(15)
C1_4 C 0.30366(18) 0.90075(14) 0.57252(10)
N1_4 N 0.27593(17) 0.92199(12) 0.63497(8)
C2_4 C 0.30126(17) 0.90401(13) 0.43623(9)
N4_4 N 0.34471(18) 0.86774(16) 0.50411(9)
C3_4 C 0.02174(19) 0.84919(16) 0.80233(12)
N6_4 N 0.09468(15) 0.90090(12) 0.77967(10)
C6_4 C 0.89147(18) 0.71101(17) 0.81043(12)
N9_4 N 0.93665(19) 0.80125(18) 0.83615(14)
loop_
_geom_bond_atom_site_label_1
_geom_bond_atom_site_label_2
_geom_bond_site_symmetry_1
_geom_bond_site_symmetry_2
N3 C5 1_555 1_555
C5 N8 1_555 1_555
Mn4 N3 1_555 1_555
Mn1 N1 1_555 1_555
C1 N1 1_555 1_555
C2 N2 1_555 1_555
N2 Mn2 1_555 1_555
N4 C1 1_555 1_555
N5 C6 1_555 1_555
C3 N6 1_555 1_555
C4 N7 1_555 1_555
N6 Mn1 1_555 1_555
N7 Mn1 1_555 1_555
C6 N9 1_555 1_555
N9 C3 1_555 1_555
N10 Mn1 1_555 1_555
N11 Mn1 1_555 1_555
N12 Mn1 1_555 1_555
C2 N4 1_555 1_555
N5_2 C6_2 1_555 1_555
C6_2 N9_2 1_555 1_555
C2_2 N10 1_555 1_555
Mn2 N1_2 1_555 1_555
C1_2 N1_2 1_555 1_555
N3_2 C5_2 1_555 1_555
N4_2 C1_2 1_555 1_555
C3_2 N6_2 1_555 1_555
C4_2 N7_2 1_555 1_555
N6_2 Mn2 1_555 1_555
N7_2 Mn2 1_555 1_555
C5_2 N8_2 1_555 1_555
N8_2 C4_2 1_555 1_555
Mn3 N3_2 1_555 1_555
N11_2 Mn2 1_555 1_555
N12_2 Mn2 1_555 1_555
Mn4 N1_3 1_555 1_555
C1_3 N1_3 1_555 1_555
N4_3 C1_3 1_555 1_555
N12 C6_3 1_555 1_555
C3_3 N6_3 1_555 1_555
N6_3 Mn4 1_555 1_555
C6_3 N9_3 1_555 1_555
N9_3 C3_3 1_555 1_555
C2_3 N2_2 1_555 1_555
C4_3 N7_3 1_555 1_555
N11 C5_3 1_555 1_555
C5_3 N8_3 1_555 1_555
N11_2 C5_4 1_555 1_555
C4_4 N7_4 1_555 1_555
C5_4 N8_4 1_555 1_555
N8_4 C4_4 1_555 1_555
Mn3 N1_4 1_555 1_555
C1_4 N1_4 1_555 1_555
C2_4 N10_2 1_555 1_555
N4_4 C1_4 1_555 1_555
C3_4 N6_4 1_555 1_555
N6_4 Mn3 1_555 1_555
C2_4 N4_4 1_555 1_555
N12_2 C6_4 1_555 1_555
C6_4 N9_4 1_555 1_555

#END
