
###############################################################################
#
# This file contains modified crystal structure data generated from the
# MOF subset of the Cambridge Structural Database (CSD) v543 
# hosted by the Cambridge Crystallographic Data Centre (CCDC).
#
# This work is licensed under the Creative Commons
# Attribution-NonCommercial-ShareAlike 4.0 International License.
# To view a copy of this license, visit
# http://creativecommons.org/licenses/by-nc-sa/4.0/
# or send a letter to
# Creative Commons, PO Box 1866, Mountain View, CA 94042, USA.
#
# CIF created using the CSD Python API on 29 September 2022
# The structure has been converted into the P1 space group
# The structure has a 3D framework
# The original CSD entry VEGHAT is in the monoclinic crystal system
# The framework has been calculated to contain at least 10.0% void space
# The void calculation uses a probe of radius 1.32A, grid spacing 0.4
#
###############################################################################

data_VEGHAT
_chemical_formula_moiety         '(C102 H70 N14 O12 Zn4)n'
_symmetry_cell_setting           triclinic
_symmetry_space_group_name_H-M   'P 1'
_symmetry_Int_Tables_number      1
_space_group_name_Hall           'P 1'
loop_
_symmetry_equiv_pos_site_id
_symmetry_equiv_pos_as_xyz
1 x,y,z
_cell_length_a                   15.8676(8)
_cell_length_b                   8.6063(4)
_cell_length_c                   17.7881(9)
_cell_angle_alpha                90
_cell_angle_beta                 94.8570(10)
_cell_angle_gamma                90
_cell_volume                     2420.44
loop_
_atom_site_label
_atom_site_type_symbol
_atom_site_fract_x
_atom_site_fract_y
_atom_site_fract_z
C8 C 0.1867(3) 0.3449(7) 0.1012(4)
H5 H 0.2362 0.3990 0.0947
C9 C 0.1621(3) 0.2314(8) 0.0530(3)
H6 H 0.1946 0.2085 0.0133
C10 C 0.1403(3) 0.3829(5) 0.1598(4)
H7 H 0.1586 0.4617 0.1931
C11 C 0.0869(3) 0.1449(6) 0.0616(3)
H8 H 0.0700 0.0648 0.0286
C12 C 0.0664(2) 0.3042(4) 0.1695(2)
H9 H 0.0342 0.3313 0.2088
C13 C 0.04005(17) 0.1841(4) 0.12070(18)
C1 C 0.00232(17) 0.6545(4) 0.37363(16)
C3 C 0.0109(2) 0.7330(4) 0.23774(18)
H1 H 0.0304 0.6338 0.2280
C4 C 0.0001(2) 0.8406(4) 0.17924(18)
H2 H 0.0116 0.8124 0.1307
O2 O 0.03771(14) 0.5270(3) 0.36068(12)
Zn4 Zn 0.042818(17) 0.38487(3) 0.453840(16)
C6 C 0.95618(19) 0.0295(4) 0.26616(17)
H3 H 0.9386 0.1299 0.2762
C14 C 0.88523(16) 0.1687(3) 0.11273(15)
C15 C 0.87866(19) 0.2987(4) 0.06576(19)
H10 H 0.9272 0.3420 0.0486
C16 C 0.81084(18) 0.1064(3) 0.13681(17)
H11 H 0.8134 0.0183 0.1672
C17 C 0.80070(19) 0.3638(4) 0.04452(19)
H12 H 0.7976 0.4495 0.0125
C18 C 0.73363(17) 0.1740(3) 0.11594(16)
H13 H 0.6850 0.1313 0.1332
C19 C 0.72657(16) 0.3042(3) 0.06985(15)
C20 C 0.64265(17) 0.3758(3) 0.04612(16)
C21 C 0.3705(3) 0.0737(5) 0.0277(2)
C22 C 0.36482(16) 0.1567(3) 0.14038(14)
H15 H 0.3709 0.2181 0.1835
C25 C 0.2500 0.0238(4) 0.2500
H17 H 0.2500 0.1318 0.2500
N1 N 0.96351(14) 0.0997(3) 0.13257(14)
N2 N 0.39368(15) 0.1938(3) 0.07596(13)
N3 N 0.32514(15) 0.0182(3) 0.13616(13)
O4 O 0.57834(12) 0.3194(3) 0.07344(12)
Zn1 Zn 0.457182(17) 0.38487(3) 0.046160(16)
C27 C 0.1295(3) 0.0737(5) 0.4723(2)
H19 H 0.1178 0.0681 0.5226
C28 C 0.13518(16) 0.1567(3) 0.35962(14)
H20 H 0.1291 0.2181 0.3165
N5 N 0.10632(15) 0.1938(3) 0.42404(13)
N6 N 0.17486(15) 0.0182(3) 0.36384(13)
O9 O 0.02631(14) 0.3082(3) 0.56558(11)
O12 O 0.46229(14) 0.5270(3) 0.13932(12)
O13 O 0.35828(12) 0.5134(2) 0.00027(12)
O14 O 0.14172(12) 0.5134(2) 0.49973(12)
C32 C 0.49768(17) 0.6545(4) 0.12637(16)
C33 C 0.50713(17) 0.7717(3) 0.18971(15)
C34 C 0.4891(2) 0.7330(4) 0.26226(18)
H23 H 0.4696 0.6338 0.2720
C35 C 0.4999(2) 0.8406(4) 0.32076(18)
H24 H 0.4884 0.8124 0.3693
C36 C 0.52739(16) 0.9880(3) 0.30689(16)
C38 C 0.5339(2) 0.9216(4) 0.17626(17)
H26 H 0.5455 0.9500 0.1277
O5 O 0.52631(14) 0.6918(3) 0.06558(11)
C37 C 0.45618(19) 0.9705(4) 0.76616(17)
H25 H 0.4386 0.8701 0.7762
C39 C 0.6867(3) 0.6551(7) 0.6012(4)
H27 H 0.7362 0.6010 0.5947
C40 C 0.6621(3) 0.7686(8) 0.5530(3)
H28 H 0.6946 0.7915 0.5133
C41 C 0.6403(3) 0.6171(5) 0.6598(4)
H29 H 0.6586 0.5383 0.6931
C42 C 0.5869(3) 0.8551(6) 0.5616(3)
H30 H 0.5700 0.9352 0.5286
C43 C 0.5664(2) 0.6958(4) 0.6695(2)
H31 H 0.5342 0.6687 0.7088
C44 C 0.54005(17) 0.8159(4) 0.62070(18)
C45 C 0.38523(16) 0.8313(3) 0.61273(15)
C46 C 0.37866(19) 0.7013(4) 0.56576(19)
H32 H 0.4272 0.6580 0.5486
C47 C 0.31084(18) 0.8936(3) 0.63681(17)
H33 H 0.3134 0.9817 0.6672
C48 C 0.30070(19) 0.6362(4) 0.54452(19)
H34 H 0.2976 0.5505 0.5125
C49 C 0.23363(17) 0.8260(3) 0.61594(16)
H35 H 0.1850 0.8687 0.6332
C50 C 0.22657(16) 0.6958(3) 0.56985(15)
C51 C 0.14265(17) 0.6242(3) 0.54612(16)
N7 N 0.46351(14) 0.9003(3) 0.63257(14)
O8 O 0.07834(12) 0.6806(3) 0.57344(12)
C2 C 0.00713(17) 0.2283(3) 0.68971(15)
C5 C 0.02739(16) 0.0120(3) 0.80689(16)
C7 C 0.0339(2) 0.0784(4) 0.67626(17)
H4 H 0.0455 0.0500 0.6277
C23 C 0.6717(3) 0.0340(4) 0.9361(2)
H16 H 0.6944 0.1262 0.9562
C24 C 0.71383(16) 0.0594(3) 0.80534(15)
C26 C 0.71518(19) 0.2207(3) 0.80351(19)
H18 H 0.6908 0.2753 0.8412
N4 N 0.7500 0.2999(4) 0.7500
C29 C 0.8283(3) 0.0340(4) 0.5639(2)
H21 H 0.8056 0.1262 0.5438
C30 C 0.78617(16) 0.0594(3) 0.69466(15)
C31 C 0.78482(19) 0.2207(3) 0.69649(19)
H22 H 0.8092 0.2753 0.6588
H14 H 0.6178 0.9319 0.0226
H14_2 H 0.3822 0.0681 0.9774
O3 O 0.64172(12) 0.4866(2) 0.99973(12)
O10 O 0.47369(14) 0.3082(3) 0.93442(11)
Zn6 Zn 0.542818(17) 0.61513(3) 0.953840(16)
C2_2 C 0.99287(17) 0.7717(3) 0.31029(15)
C5_2 C 0.97261(16) 0.9880(3) 0.19311(16)
C7_2 C 0.9661(2) 0.9216(4) 0.32374(17)
H4_2 H 0.9545 0.9500 0.3723
C23_2 C 0.3283(3) 0.9660(4) 0.0639(2)
H16_2 H 0.3056 0.8738 0.0438
C24_2 C 0.28617(16) 0.9406(3) 0.19466(15)
C26_2 C 0.28482(19) 0.7793(3) 0.19649(19)
H18_2 H 0.3092 0.7247 0.1588
N4_2 N 0.2500 0.7001(4) 0.2500
O1 O 0.97369(14) 0.6918(3) 0.43442(11)
C29_2 C 0.1717(3) 0.9660(4) 0.4361(2)
H21_2 H 0.1944 0.8738 0.4562
C30_2 C 0.21383(16) 0.9406(3) 0.30534(15)
C31_2 C 0.21518(19) 0.7793(3) 0.30351(19)
H22_2 H 0.1908 0.7247 0.3412
Zn8 Zn 0.957182(17) 0.61513(3) 0.546160(16)
C37_2 C 0.54382(19) 0.0295(4) 0.23384(17)
H25_2 H 0.5614 0.1299 0.2238
C39_2 C 0.3133(3) 0.3449(7) 0.3988(4)
H27_2 H 0.2638 0.3990 0.4053
C40_2 C 0.3379(3) 0.2314(8) 0.4470(3)
H28_2 H 0.3054 0.2085 0.4867
C41_2 C 0.3597(3) 0.3829(5) 0.3402(4)
H29_2 H 0.3414 0.4617 0.3069
C42_2 C 0.4131(3) 0.1449(6) 0.4384(3)
H30_2 H 0.4300 0.0648 0.4714
C43_2 C 0.4336(2) 0.3042(4) 0.3305(2)
H31_2 H 0.4658 0.3313 0.2912
C44_2 C 0.45995(17) 0.1841(4) 0.37930(18)
C45_2 C 0.61477(16) 0.1687(3) 0.38727(15)
C46_2 C 0.62134(19) 0.2987(4) 0.43424(19)
H32_2 H 0.5728 0.3420 0.4514
C47_2 C 0.68916(18) 0.1064(3) 0.36319(17)
H33_2 H 0.6866 0.0183 0.3328
C48_2 C 0.69930(19) 0.3638(4) 0.45548(19)
H34_2 H 0.7024 0.4495 0.4875
C49_2 C 0.76637(17) 0.1740(3) 0.38406(16)
H35_2 H 0.8150 0.1313 0.3668
C50_2 C 0.77343(16) 0.3042(3) 0.43015(15)
C51_2 C 0.85735(17) 0.3758(3) 0.45388(16)
N7_2 N 0.53649(14) 0.0997(3) 0.36743(14)
O7 O 0.85828(12) 0.4866(2) 0.50027(12)
O8_2 O 0.92166(12) 0.3194(3) 0.42656(12)
C32_2 C 0.50232(17) 0.3455(4) 0.87363(16)
C33_2 C 0.49287(17) 0.2283(3) 0.81029(15)
C34_2 C 0.5109(2) 0.2670(4) 0.73774(18)
H23_2 H 0.5304 0.3662 0.7280
C35_2 C 0.5001(2) 0.1594(4) 0.67924(18)
H24_2 H 0.5116 0.1876 0.6307
C36_2 C 0.47261(16) 0.0120(3) 0.69311(16)
C38_2 C 0.4661(2) 0.0784(4) 0.82374(17)
H26_2 H 0.4545 0.0500 0.8723
O6 O 0.53771(14) 0.4730(3) 0.86068(12)
C6_2 C 0.04382(19) 0.9705(4) 0.73384(17)
H3_2 H 0.0614 0.8701 0.7238
C14_2 C 0.11477(16) 0.8313(3) 0.88727(15)
C15_2 C 0.12134(19) 0.7013(4) 0.93424(19)
H10_2 H 0.0728 0.6580 0.9514
C16_2 C 0.18916(18) 0.8936(3) 0.86319(17)
H11_2 H 0.1866 0.9817 0.8328
C17_2 C 0.19930(19) 0.6362(4) 0.95548(19)
H12_2 H 0.2024 0.5505 0.9875
C18_2 C 0.26637(17) 0.8260(3) 0.88406(16)
H13_2 H 0.3150 0.8687 0.8668
C19_2 C 0.27343(16) 0.6958(3) 0.93015(15)
C20_2 C 0.35735(17) 0.6242(3) 0.95388(16)
C21_2 C 0.6295(3) 0.9263(5) 0.9723(2)
C22_2 C 0.63518(16) 0.8433(3) 0.85962(14)
H15_2 H 0.6291 0.7819 0.8165
C25_2 C 0.7500 0.9762(4) 0.7500
H17_2 H 0.7500 0.8682 0.7500
N1_2 N 0.03649(14) 0.9003(3) 0.86743(14)
N2_2 N 0.60632(15) 0.8062(3) 0.92404(13)
N3_2 N 0.67486(15) 0.9818(3) 0.86384(13)
O4_2 O 0.42166(12) 0.6806(3) 0.92656(12)
C27_2 C 0.8705(3) 0.9263(5) 0.5277(2)
H19_2 H 0.8822 0.9319 0.4774
C28_2 C 0.86482(16) 0.8433(3) 0.64038(14)
H20_2 H 0.8709 0.7819 0.6835
N5_2 N 0.89368(15) 0.8062(3) 0.57596(13)
N6_2 N 0.82514(15) 0.9818(3) 0.63616(13)
O11 O 0.96229(14) 0.4730(3) 0.63932(12)
C1_2 C 0.99768(17) 0.3455(4) 0.62637(16)
C3_2 C 0.9891(2) 0.2670(4) 0.76226(18)
H1_2 H 0.9696 0.3662 0.7720
C4_2 C 0.9999(2) 0.1594(4) 0.82076(18)
H2_2 H 0.9884 0.1876 0.8693
C8_2 C 0.8133(3) 0.6551(7) 0.8988(4)
H5_2 H 0.7638 0.6010 0.9053
C9_2 C 0.8379(3) 0.7686(8) 0.9470(3)
H6_2 H 0.8054 0.7915 0.9867
C10_2 C 0.8597(3) 0.6171(5) 0.8402(4)
H7_2 H 0.8414 0.5383 0.8069
C11_2 C 0.9131(3) 0.8551(6) 0.9384(3)
H8_2 H 0.9300 0.9352 0.9714
C12_2 C 0.9336(2) 0.6958(4) 0.8305(2)
H9_2 H 0.9658 0.6687 0.7912
C13_2 C 0.95995(17) 0.8159(4) 0.87930(18)
loop_
_geom_bond_atom_site_label_1
_geom_bond_atom_site_label_2
_geom_bond_site_symmetry_1
_geom_bond_site_symmetry_2
C8 H5 1_555 1_555
C9 C8 1_555 1_555
H6 C9 1_555 1_555
C10 C8 1_555 1_555
H7 C10 1_555 1_555
C11 C9 1_555 1_555
H8 C11 1_555 1_555
C12 C10 1_555 1_555
H9 C12 1_555 1_555
C13 C11 1_555 1_555
C12 C13 1_555 1_555
C3 H1 1_555 1_555
C4 C3 1_555 1_555
H2 C4 1_555 1_555
O2 C1 1_555 1_555
Zn4 O2 1_555 1_555
H3 C6 1_555 1_555
C14 C15 1_555 1_555
C15 H10 1_555 1_555
C16 C14 1_555 1_555
H11 C16 1_555 1_555
C17 C15 1_555 1_555
H12 C17 1_555 1_555
C18 C16 1_555 1_555
H13 C18 1_555 1_555
C19 C17 1_555 1_555
C20 C19 1_555 1_555
C22 H15 1_555 1_555
C25 H17 1_555 1_555
N2 C21 1_555 1_555
N3 C22 1_555 1_555
O4 C20 1_555 1_555
Zn1 N2 1_555 1_555
C27 H19 1_555 1_555
C28 H20 1_555 1_555
N5 C27 1_555 1_555
N6 C28 1_555 1_555
Zn4 N5 1_555 1_555
O9 Zn4 1_555 1_555
O12 Zn1 1_555 1_555
O13 Zn1 1_555 1_555
O14 Zn4 1_555 1_555
C14 N1 1_555 1_555
C18 C19 1_555 1_555
C22 N2 1_555 1_555
O4 Zn1 1_555 1_555
C28 N5 1_555 1_555
C32 C33 1_555 1_555
C33 C34 1_555 1_555
C34 H23 1_555 1_555
C35 C34 1_555 1_555
H24 C35 1_555 1_555
C36 C35 1_555 1_555
C38 C33 1_555 1_555
H26 C38 1_555 1_555
O5 C32 1_555 1_555
O12 C32 1_555 1_555
H25 C37 1_555 1_555
C39 H27 1_555 1_555
C40 C39 1_555 1_555
H28 C40 1_555 1_555
C41 C39 1_555 1_555
H29 C41 1_555 1_555
C42 C40 1_555 1_555
H30 C42 1_555 1_555
C43 C41 1_555 1_555
H31 C43 1_555 1_555
C44 C42 1_555 1_555
C45 C46 1_555 1_555
C46 H32 1_555 1_555
C47 C45 1_555 1_555
H33 C47 1_555 1_555
C48 C46 1_555 1_555
H34 C48 1_555 1_555
C49 C47 1_555 1_555
H35 C49 1_555 1_555
C50 C48 1_555 1_555
C51 C50 1_555 1_555
O14 C51 1_555 1_555
O8 C51 1_555 1_555
C43 C44 1_555 1_555
C44 N7 1_555 1_555
C45 N7 1_555 1_555
C49 C50 1_555 1_555
C7 C2 1_555 1_555
H4 C7 1_555 1_555
H16 C23 1_555 1_555
C26 C24 1_555 1_555
H18 C26 1_555 1_555
N4 C26 1_555 1_555
H21 C29 1_555 1_555
C31 N4 1_555 1_555
H22 C31 1_555 1_555
C30 C31 1_555 1_555
Zn6 O3 1_555 1_555
C7_2 C2_2 1_555 1_555
H4_2 C7_2 1_555 1_555
H16_2 C23_2 1_555 1_555
C26_2 C24_2 1_555 1_555
H18_2 C26_2 1_555 1_555
N4_2 C26_2 1_555 1_555
H21_2 C29_2 1_555 1_555
C31_2 N4_2 1_555 1_555
H22_2 C31_2 1_555 1_555
Zn8 O1 1_555 1_555
C30_2 C31_2 1_555 1_555
H25_2 C37_2 1_555 1_555
C39_2 H27_2 1_555 1_555
C40_2 C39_2 1_555 1_555
H28_2 C40_2 1_555 1_555
C41_2 C39_2 1_555 1_555
H29_2 C41_2 1_555 1_555
C42_2 C40_2 1_555 1_555
H30_2 C42_2 1_555 1_555
C43_2 C41_2 1_555 1_555
H31_2 C43_2 1_555 1_555
C44_2 C42_2 1_555 1_555
C45_2 C46_2 1_555 1_555
C46_2 H32_2 1_555 1_555
C47_2 C45_2 1_555 1_555
H33_2 C47_2 1_555 1_555
C48_2 C46_2 1_555 1_555
H34_2 C48_2 1_555 1_555
C49_2 C47_2 1_555 1_555
H35_2 C49_2 1_555 1_555
C50_2 C48_2 1_555 1_555
C51_2 C50_2 1_555 1_555
O7 C51_2 1_555 1_555
O8_2 C51_2 1_555 1_555
Zn8 O7 1_555 1_555
C43_2 C44_2 1_555 1_555
C44_2 N7_2 1_555 1_555
C45_2 N7_2 1_555 1_555
C49_2 C50_2 1_555 1_555
C32_2 C33_2 1_555 1_555
C33_2 C34_2 1_555 1_555
C34_2 H23_2 1_555 1_555
C35_2 C34_2 1_555 1_555
H24_2 C35_2 1_555 1_555
C36_2 C35_2 1_555 1_555
C38_2 C33_2 1_555 1_555
H26_2 C38_2 1_555 1_555
O10 C32_2 1_555 1_555
O6 C32_2 1_555 1_555
Zn6 O6 1_555 1_555
H3_2 C6_2 1_555 1_555
C14_2 C15_2 1_555 1_555
C15_2 H10_2 1_555 1_555
C16_2 C14_2 1_555 1_555
H11_2 C16_2 1_555 1_555
C17_2 C15_2 1_555 1_555
H12_2 C17_2 1_555 1_555
C18_2 C16_2 1_555 1_555
H13_2 C18_2 1_555 1_555
C19_2 C17_2 1_555 1_555
C20_2 C19_2 1_555 1_555
C22_2 H15_2 1_555 1_555
C25_2 H17_2 1_555 1_555
N2_2 C21_2 1_555 1_555
N3_2 C22_2 1_555 1_555
O4_2 C20_2 1_555 1_555
Zn6 N2_2 1_555 1_555
C27_2 H19_2 1_555 1_555
C28_2 H20_2 1_555 1_555
N5_2 C27_2 1_555 1_555
N6_2 C28_2 1_555 1_555
Zn8 N5_2 1_555 1_555
O11 Zn8 1_555 1_555
C14_2 N1_2 1_555 1_555
C18_2 C19_2 1_555 1_555
C22_2 N2_2 1_555 1_555
O4_2 Zn6 1_555 1_555
C28_2 N5_2 1_555 1_555
C3_2 H1_2 1_555 1_555
C4_2 C3_2 1_555 1_555
H2_2 C4_2 1_555 1_555
O11 C1_2 1_555 1_555
C8_2 H5_2 1_555 1_555
C9_2 C8_2 1_555 1_555
H6_2 C9_2 1_555 1_555
C10_2 C8_2 1_555 1_555
H7_2 C10_2 1_555 1_555
C11_2 C9_2 1_555 1_555
H8_2 C11_2 1_555 1_555
C12_2 C10_2 1_555 1_555
H9_2 C12_2 1_555 1_555
C13_2 C11_2 1_555 1_555
C12_2 C13_2 1_555 1_555

#END
