
###############################################################################
#
# This file contains modified crystal structure data generated from the
# MOF subset of the Cambridge Structural Database (CSD) v543 
# hosted by the Cambridge Crystallographic Data Centre (CCDC).
#
# This work is licensed under the Creative Commons
# Attribution-NonCommercial-ShareAlike 4.0 International License.
# To view a copy of this license, visit
# http://creativecommons.org/licenses/by-nc-sa/4.0/
# or send a letter to
# Creative Commons, PO Box 1866, Mountain View, CA 94042, USA.
#
# CIF created using the CSD Python API on 29 September 2022
# The structure has been converted into the P1 space group
# The structure has a 3D framework
# The original CSD entry VEGQIL is in the monoclinic crystal system
# The original CSD entry VEGQIL is in a Sohncke space group
# The framework has been calculated to contain at least 10.0% void space
# The void calculation uses a probe of radius 1.32A, grid spacing 0.4
# The framework is charged, counterions have been retained in the structure
#
###############################################################################

data_VEGQIL
_chemical_formula_moiety         '(C92 H76 Co4 N18 O24)n'
_symmetry_cell_setting           triclinic
_symmetry_space_group_name_H-M   'P 1'
_symmetry_Int_Tables_number      1
_space_group_name_Hall           'P 1'
loop_
_symmetry_equiv_pos_site_id
_symmetry_equiv_pos_as_xyz
1 x,y,z
_cell_length_a                   10.19700(10)
_cell_length_b                   25.0123(3)
_cell_length_c                   11.43370(10)
_cell_angle_alpha                90
_cell_angle_beta                 91.6080(10)
_cell_angle_gamma                90
_cell_volume                     2915.02
loop_
_atom_site_label
_atom_site_type_symbol
_atom_site_fract_x
_atom_site_fract_y
_atom_site_fract_z
N1 N 0.4944(7) 0.6909(3) 0.2428(6)
O1 O 0.3819(5) 0.6732(3) 0.2585(6)
O2 O 0.5755(5) 0.6939(2) 0.3296(5)
O3 O 0.5290(8) 0.7049(4) 0.1450(7)
N1_2 N 0.5056(7) 0.1909(3) 0.7572(6)
O1_2 O 0.6181(5) 0.1732(3) 0.7415(6)
O2_2 O 0.4245(5) 0.1939(2) 0.6704(5)
O3_2 O 0.4710(8) 0.2049(4) 0.8550(7)
N2 N -0.0000(9) 0.5155(5) 0.8602(9)
O5 O 0.0431(11) 0.5164(6) 0.9647(10)
O6 O 0.0764(9) 0.5213(6) 0.7778(10)
N2_2 N 1.0000(9) 0.5155(5) 0.8602(9)
O4 O 0.8808(10) 0.5112(7) 0.8368(12)
N2_3 N 0.0000(9) 0.0155(5) 0.1398(9)
O4_2 O 0.1192(10) 0.0112(7) 0.1632(12)
N2_4 N 1.0000(9) 0.0155(5) 0.1398(9)
O5_2 O 0.9569(11) 0.0164(6) 0.0353(10)
O6_2 O 0.9236(9) 0.0213(6) 0.2222(10)
H29 H 0.021(7) 0.547(3) 0.635(4)
Co2 Co 0.46473(9) 0.55790(4) 0.52222(8)
C1 C 0.0809(7) 0.6337(4) 0.2916(6)
H1 H 0.160037 0.624793 0.332810
C2 C 0.0830(7) 0.6372(4) 0.1725(6)
H2 H 0.162362 0.630775 0.133298
C11 C 0.5727(7) 0.5665(4) 0.2735(6)
H9 H 0.650520 0.576133 0.315921
N5 N 0.4655(5) 0.5560(2) 0.3341(4)
C12 C 0.5772(7) 0.5641(4) 0.1533(6)
H10 H 0.656798 0.571647 0.115280
C13 C 0.4651(6) 0.5508(3) 0.0876(6)
C14 C 0.3513(7) 0.5412(3) 0.1491(6)
H11 H 0.271313 0.532944 0.108361
C16 C 0.3560(7) 0.5437(3) 0.2696(6)
H12 H 0.277814 0.536414 0.309966
C17 C 0.3406(8) 0.7553(3) 0.6692(9)
H13 H 0.293116 0.770727 0.605031
C18 C 0.4785(12) 0.7119(4) 0.8589(9)
H14 H 0.524465 0.696103 0.923580
C19 C 0.4168(11) 0.7612(5) 0.8710(10)
H15 H 0.422351 0.780037 0.943208
C20 C 0.3484(10) 0.7820(4) 0.7775(11)
H16 H 0.305066 0.815405 0.785584
C21 C 0.4016(7) 0.7068(3) 0.6566(7)
C22 C 0.0978(8) 0.3094(3) 0.5134(9)
H17 H 0.045042 0.337218 0.543413
C23 C 0.0472(7) 0.2594(3) 0.5013(8)
N6 N 0.1155(5) 0.2177(2) 0.4629(5)
C24 C 0.2387(6) 0.2279(3) 0.4319(7)
H19 H 0.288972 0.199066 0.402951
C25 C 0.2969(7) 0.2773(3) 0.4391(7)
H20 H 0.384475 0.282084 0.414688
C26 C 0.2269(7) 0.3203(3) 0.4822(6)
C27 C 0.2601(8) 0.4697(3) 0.5087(10)
H21 H 0.203172 0.499700 0.510660
C28 C 0.2047(8) 0.4184(3) 0.4997(12)
H22 H 0.112157 0.414014 0.497853
C29 C 0.2845(6) 0.3749(2) 0.4936(6)
C30 C 0.4170(8) 0.3824(3) 0.5001(10)
H23 H 0.475152 0.352785 0.499157
C31 C 0.4658(7) 0.4352(3) 0.5084(10)
H24 H 0.558141 0.440426 0.509541
N7 N 0.3886(5) 0.4778(2) 0.5146(5)
O7 O 0.6550(4) 0.53325(17) 0.5222(4)
O8 O 0.7785(4) 0.60698(17) 0.5281(4)
C36 C 0.7636(6) 0.5572(3) 0.5306(5)
O9 O 0.9973(4) 0.5537(2) 0.5632(5)
C37 C 0.8831(6) 0.5211(3) 0.5479(7)
H30 H 0.871936 0.499359 0.620294
C38 C 0.9469(11) 0.4975(5) 0.3455(12)
H31 H 0.978529 0.533045 0.338748
C39 C 0.9584(18) 0.4638(9) 0.2472(18)
H32 H 0.991229 0.475613 0.174644
C40 C 0.915(2) 0.4090(7) 0.268(2)
H33 H 0.926924 0.382645 0.209589
C41 C 0.8578(14) 0.3950(5) 0.3675(19)
H34 H 0.822344 0.360065 0.374623
C42 C 0.8495(9) 0.4304(4) 0.4606(13)
H35 H 0.813668 0.419377 0.532577
C43 C 0.8964(7) 0.4839(3) 0.4455(10)
O10 O 0.2788(4) 0.59139(17) 0.5234(4)
O11 O 0.1581(4) 0.66511(17) 0.5471(4)
C44 C 0.2647(6) 0.6412(3) 0.5377(5)
O12 O 0.5020(4) 0.64411(19) 0.5223(4)
H36 H 0.525(8) 0.652(3) 0.437(7)
C45 C 0.3896(6) 0.6764(3) 0.5418(6)
H37 H 0.381868 0.703087 0.476955
C46 C 0.4723(8) 0.6861(3) 0.7522(7)
H38 H 0.517641 0.653248 0.743771
Co4 Co 0.96704(9) 0.63938(4) 0.54297(8)
Co5 Co 0.03296(9) 0.13938(4) 0.45703(8)
N11 N 0.4677(5) 0.5518(2) 0.7122(4)
C7 C 0.0807(7) 0.6637(4) 0.9168(7)
H5 H 0.159214 0.674384 0.956989
C8 C 0.0756(8) 0.6607(4) 0.7965(7)
H6 H 0.152421 0.669741 0.755645
C15 C 0.4655(6) 0.5493(3) 0.9583(6)
C32 C 0.3514(7) 0.5577(4) 0.8919(6)
H25 H 0.270174 0.562850 0.929005
C33 C 0.3570(7) 0.5585(4) 0.7706(6)
H26 H 0.277721 0.564117 0.726701
C34 C 0.5767(7) 0.5416(3) 0.7764(6)
H27 H 0.655894 0.535053 0.736979
C35 C 0.5797(7) 0.5402(3) 0.8978(6)
H28 H 0.659720 0.533086 0.939467
N3 N 0.9720(5) 0.6423(2) 0.3542(5)
C3 C 0.9695(6) 0.6501(3) 0.1083(6)
C4 C 0.8583(7) 0.6604(3) 0.1718(6)
H3 H 0.778312 0.669871 0.132473
C5 C 0.8642(7) 0.6569(3) 0.2923(6)
H4 H 0.787500 0.665324 0.333824
H18 H 0.958405 0.253783 0.521116
N9 N 0.9687(5) 0.6459(2) 0.7333(5)
N10 N 0.8845(5) 0.7177(2) 0.5371(5)
C6 C 0.9684(7) 0.6507(3) 0.9794(6)
C9 C 0.8603(6) 0.6364(3) 0.7926(6)
H7 H 0.781822 0.628082 0.749659
C10 C 0.8562(6) 0.6382(4) 0.9132(6)
H8 H 0.776425 0.630778 0.951022
C6_2 C 0.0316(7) 0.1507(3) 0.0206(6)
N4 N 0.0313(5) 0.1459(2) 0.2667(5)
C9_2 C 0.1397(6) 0.1364(3) 0.2074(6)
H7_2 H 0.218178 0.128082 0.250341
C10_2 C 0.1438(6) 0.1382(4) 0.0868(6)
H8_2 H 0.223575 0.130778 0.048978
N3_2 N 0.0280(5) 0.1423(2) 0.6458(5)
C3_2 C 0.0305(6) 0.1501(3) 0.8917(6)
C4_2 C 0.1417(7) 0.1604(3) 0.8282(6)
H3_2 H 0.221688 0.169871 0.867527
C5_2 C 0.1358(7) 0.1569(3) 0.7077(6)
H4_2 H 0.212500 0.165324 0.666176
O13 O 0.2215(4) 0.10698(17) 0.4719(4)
O14 O 0.0027(4) 0.0537(2) 0.4368(5)
C7_2 C 0.9193(7) 0.1637(4) 0.0832(7)
H5_2 H 0.840786 0.174384 0.043011
C8_2 C 0.9244(8) 0.1607(4) 0.2035(7)
H6_2 H 0.847579 0.169741 0.244355
C15_2 C 0.5345(6) 0.0493(3) 0.0417(6)
C32_2 C 0.6486(7) 0.0577(4) 0.1081(6)
H25_2 H 0.729826 0.062850 0.070995
C33_2 C 0.6430(7) 0.0585(4) 0.2294(6)
H26_2 H 0.722279 0.064117 0.273299
N8 N 0.5323(5) 0.0518(2) 0.2878(4)
C34_2 C 0.4233(7) 0.0416(3) 0.2236(6)
H27_2 H 0.344106 0.035053 0.263021
C35_2 C 0.4203(7) 0.0402(3) 0.1022(6)
H28_2 H 0.340280 0.033086 0.060533
Co6 Co 0.53527(9) 0.05790(4) 0.47778(8)
C1_2 C 0.9191(7) 0.1337(4) 0.7084(6)
H1_2 H 0.839963 0.124793 0.667190
C2_2 C 0.9170(7) 0.1372(4) 0.8275(6)
H2_2 H 0.837638 0.130775 0.866702
C11_2 C 0.4273(7) 0.0665(4) 0.7265(6)
H9_2 H 0.349480 0.076133 0.684079
N5_2 N 0.5345(5) 0.0560(2) 0.6659(4)
C12_2 C 0.4228(7) 0.0641(4) 0.8467(6)
H10_2 H 0.343202 0.071647 0.884720
C13_2 C 0.5349(6) 0.0508(3) 0.9124(6)
C14_2 C 0.6487(7) 0.0412(3) 0.8509(6)
H11_2 H 0.728687 0.032944 0.891639
C16_2 C 0.6440(7) 0.0437(3) 0.7304(6)
H12_2 H 0.722186 0.036414 0.690034
C17_2 C 0.6594(8) 0.2553(3) 0.3308(9)
H13_2 H 0.706884 0.270727 0.394969
C18_2 C 0.5215(12) 0.2119(4) 0.1411(9)
H14_2 H 0.475535 0.196103 0.076420
C19_2 C 0.5832(11) 0.2612(5) 0.1290(10)
H15_2 H 0.577649 0.280037 0.056792
C20_2 C 0.6516(10) 0.2820(4) 0.2225(11)
H16_2 H 0.694934 0.315405 0.214416
C21_2 C 0.5984(7) 0.2068(3) 0.3434(7)
O7_2 O 0.3450(4) 0.03325(17) 0.4778(4)
C36_2 C 0.2364(6) 0.0572(3) 0.4694(5)
C37_2 C 0.1169(6) 0.0211(3) 0.4521(7)
H31_2 H 0.021471 0.033045 0.661252
O10_2 O 0.7212(4) 0.09139(17) 0.4766(4)
O11_2 O 0.8419(4) 0.16511(17) 0.4529(4)
C44_2 C 0.7353(6) 0.1412(3) 0.4623(5)
O12_2 O 0.4980(4) 0.14411(19) 0.4777(4)
H36_2 H 0.475(8) 0.152(3) 0.563(7)
C45_2 C 0.6104(6) 0.1764(3) 0.4582(6)
H37_2 H 0.618132 0.203087 0.523045
C46_2 C 0.5277(8) 0.1861(3) 0.2478(7)
H38_2 H 0.482359 0.153248 0.256229
C22_2 C 0.9022(8) 0.8094(3) 0.4866(9)
H17_2 H 0.954958 0.837218 0.456587
C23_2 C 0.9528(7) 0.7594(3) 0.4987(8)
C24_2 C 0.7613(6) 0.7279(3) 0.5681(7)
H19_2 H 0.711028 0.699066 0.597049
C25_2 C 0.7031(7) 0.7773(3) 0.5609(7)
H20_2 H 0.615525 0.782084 0.585312
C26_2 C 0.7731(7) 0.8203(3) 0.5178(6)
C27_2 C 0.7399(8) 0.9697(3) 0.4913(10)
H21_2 H 0.796828 0.999700 0.489340
C28_2 C 0.7953(8) 0.9184(3) 0.5003(12)
H22_2 H 0.887843 0.914014 0.502147
C29_2 C 0.7155(6) 0.8749(2) 0.5064(6)
C30_2 C 0.5830(8) 0.8824(3) 0.4999(10)
H23_2 H 0.524848 0.852785 0.500843
C31_2 C 0.5342(7) 0.9352(3) 0.4916(10)
H24_2 H 0.441859 0.940426 0.490459
N7_2 N 0.6114(5) 0.9778(2) 0.4854(5)
H30_2 H 0.128064 0.999359 0.379706
C38_2 C 0.0531(11) 0.9975(5) 0.6545(12)
C39_2 C 0.0416(18) 0.9638(9) 0.7528(18)
H32_2 H 0.008771 0.975613 0.825356
C40_2 C 0.085(2) 0.9090(7) 0.732(2)
H33_2 H 0.073076 0.882645 0.790411
C41_2 C 0.1422(14) 0.8950(5) 0.6325(19)
H34_2 H 0.177656 0.860065 0.625377
C42_2 C 0.1505(9) 0.9304(4) 0.5394(13)
H35_2 H 0.186332 0.919377 0.467423
C43_2 C 0.1036(7) 0.9839(3) 0.5545(10)
H18_2 H 0.041595 0.753783 0.478884
H29_2 H 0.979(7) 0.047(3) 0.365(4)
loop_
_geom_bond_atom_site_label_1
_geom_bond_atom_site_label_2
_geom_bond_site_symmetry_1
_geom_bond_site_symmetry_2
N1 O1 1_555 1_555
O2 N1 1_555 1_555
O3 N1 1_555 1_555
N1_2 O1_2 1_555 1_555
O2_2 N1_2 1_555 1_555
O3_2 N1_2 1_555 1_555
O5 N2 1_555 1_555
O6 N2 1_555 1_555
N2_2 O4 1_555 1_555
N2_3 O4_2 1_555 1_555
O5_2 N2_4 1_555 1_555
O6_2 N2_4 1_555 1_555
Co2 N5 1_555 1_555
C1 H1 1_555 1_555
C2 C1 1_555 1_555
H2 C2 1_555 1_555
C11 H9 1_555 1_555
N5 C11 1_555 1_555
C12 C11 1_555 1_555
H10 C12 1_555 1_555
C13 C12 1_555 1_555
C14 C13 1_555 1_555
H11 C14 1_555 1_555
C16 N5 1_555 1_555
H12 C16 1_555 1_555
C17 H13 1_555 1_555
C18 H14 1_555 1_555
C19 C18 1_555 1_555
H15 C19 1_555 1_555
C20 C17 1_555 1_555
H16 C20 1_555 1_555
C21 C17 1_555 1_555
C22 H17 1_555 1_555
C23 C22 1_555 1_555
N6 C23 1_555 1_555
C24 N6 1_555 1_555
H19 C24 1_555 1_555
C25 C24 1_555 1_555
H20 C25 1_555 1_555
C26 C22 1_555 1_555
C27 H21 1_555 1_555
C28 C27 1_555 1_555
H22 C28 1_555 1_555
C29 C26 1_555 1_555
C30 C29 1_555 1_555
H23 C30 1_555 1_555
C31 C30 1_555 1_555
H24 C31 1_555 1_555
N7 Co2 1_555 1_555
O7 Co2 1_555 1_555
O8 C36 1_555 1_555
C36 O7 1_555 1_555
C37 C36 1_555 1_555
H30 C37 1_555 1_555
C38 H31 1_555 1_555
C39 C38 1_555 1_555
H32 C39 1_555 1_555
C40 C39 1_555 1_555
H33 C40 1_555 1_555
C41 C40 1_555 1_555
H34 C41 1_555 1_555
C42 C41 1_555 1_555
H35 C42 1_555 1_555
C43 C37 1_555 1_555
O10 Co2 1_555 1_555
C44 O10 1_555 1_555
O12 Co2 1_555 1_555
H36 O12 1_555 1_555
C45 C21 1_555 1_555
H37 C45 1_555 1_555
C46 C18 1_555 1_555
H38 C46 1_555 1_555
Co4 O8 1_555 1_555
Co5 N6 1_555 1_555
N11 Co2 1_555 1_555
C14 C16 1_555 1_555
C19 C20 1_555 1_555
C21 C46 1_555 1_555
C25 C26 1_555 1_555
C27 N7 1_555 1_555
C28 C29 1_555 1_555
C31 N7 1_555 1_555
O9 C37 1_555 1_555
O9 Co4 1_555 1_555
C38 C43 1_555 1_555
C42 C43 1_555 1_555
O11 C44 1_555 1_555
C44 C45 1_555 1_555
O12 C45 1_555 1_555
H5 C7 1_555 1_555
C8 C7 1_555 1_555
H6 C8 1_555 1_555
C32 C15 1_555 1_555
H25 C32 1_555 1_555
C33 C32 1_555 1_555
H26 C33 1_555 1_555
N11 C33 1_555 1_555
C34 N11 1_555 1_555
H27 C34 1_555 1_555
C35 C15 1_555 1_555
H28 C35 1_555 1_555
C34 C35 1_555 1_555
Co4 N3 1_555 1_555
C4 C3 1_555 1_555
H3 C4 1_555 1_555
C5 N3 1_555 1_555
H4 C5 1_555 1_555
N9 Co4 1_555 1_555
N10 Co4 1_555 1_555
C4 C5 1_555 1_555
C9 N9 1_555 1_555
H7 C9 1_555 1_555
C10 C6 1_555 1_555
H8 C10 1_555 1_555
C9 C10 1_555 1_555
C9_2 N4 1_555 1_555
H7_2 C9_2 1_555 1_555
C10_2 C6_2 1_555 1_555
H8_2 C10_2 1_555 1_555
Co5 N4 1_555 1_555
C9_2 C10_2 1_555 1_555
Co5 N3_2 1_555 1_555
C4_2 C3_2 1_555 1_555
H3_2 C4_2 1_555 1_555
C5_2 N3_2 1_555 1_555
H4_2 C5_2 1_555 1_555
O13 Co5 1_555 1_555
O14 Co5 1_555 1_555
C4_2 C5_2 1_555 1_555
H5_2 C7_2 1_555 1_555
C8_2 C7_2 1_555 1_555
H6_2 C8_2 1_555 1_555
C32_2 C15_2 1_555 1_555
H25_2 C32_2 1_555 1_555
C33_2 C32_2 1_555 1_555
H26_2 C33_2 1_555 1_555
N8 C33_2 1_555 1_555
C34_2 N8 1_555 1_555
H27_2 C34_2 1_555 1_555
C35_2 C15_2 1_555 1_555
H28_2 C35_2 1_555 1_555
Co6 N8 1_555 1_555
C34_2 C35_2 1_555 1_555
Co6 N5_2 1_555 1_555
C1_2 H1_2 1_555 1_555
C2_2 C1_2 1_555 1_555
H2_2 C2_2 1_555 1_555
C11_2 H9_2 1_555 1_555
N5_2 C11_2 1_555 1_555
C12_2 C11_2 1_555 1_555
H10_2 C12_2 1_555 1_555
C13_2 C12_2 1_555 1_555
C14_2 C13_2 1_555 1_555
H11_2 C14_2 1_555 1_555
C16_2 N5_2 1_555 1_555
H12_2 C16_2 1_555 1_555
C17_2 H13_2 1_555 1_555
C18_2 H14_2 1_555 1_555
C19_2 C18_2 1_555 1_555
H15_2 C19_2 1_555 1_555
C20_2 C17_2 1_555 1_555
H16_2 C20_2 1_555 1_555
C21_2 C17_2 1_555 1_555
O7_2 Co6 1_555 1_555
O13 C36_2 1_555 1_555
C36_2 O7_2 1_555 1_555
C37_2 C36_2 1_555 1_555
O10_2 Co6 1_555 1_555
C44_2 O10_2 1_555 1_555
O12_2 Co6 1_555 1_555
H36_2 O12_2 1_555 1_555
C45_2 C21_2 1_555 1_555
H37_2 C45_2 1_555 1_555
C46_2 C18_2 1_555 1_555
H38_2 C46_2 1_555 1_555
C14_2 C16_2 1_555 1_555
C19_2 C20_2 1_555 1_555
C21_2 C46_2 1_555 1_555
O14 C37_2 1_555 1_555
O11_2 C44_2 1_555 1_555
C44_2 C45_2 1_555 1_555
O12_2 C45_2 1_555 1_555
C22_2 H17_2 1_555 1_555
C23_2 C22_2 1_555 1_555
N10 C23_2 1_555 1_555
C24_2 N10 1_555 1_555
H19_2 C24_2 1_555 1_555
C25_2 C24_2 1_555 1_555
H20_2 C25_2 1_555 1_555
C26_2 C22_2 1_555 1_555
C27_2 H21_2 1_555 1_555
C28_2 C27_2 1_555 1_555
H22_2 C28_2 1_555 1_555
C29_2 C26_2 1_555 1_555
C30_2 C29_2 1_555 1_555
H23_2 C30_2 1_555 1_555
C31_2 C30_2 1_555 1_555
H24_2 C31_2 1_555 1_555
C39_2 C38_2 1_555 1_555
H32_2 C39_2 1_555 1_555
C40_2 C39_2 1_555 1_555
H33_2 C40_2 1_555 1_555
C41_2 C40_2 1_555 1_555
H34_2 C41_2 1_555 1_555
C42_2 C41_2 1_555 1_555
H35_2 C42_2 1_555 1_555
C25_2 C26_2 1_555 1_555
C27_2 N7_2 1_555 1_555
C28_2 C29_2 1_555 1_555
C31_2 N7_2 1_555 1_555
C38_2 C43_2 1_555 1_555
C42_2 C43_2 1_555 1_555

#END
