
###############################################################################
#
# This file contains modified crystal structure data generated from the
# MOF subset of the Cambridge Structural Database (CSD) v543 
# hosted by the Cambridge Crystallographic Data Centre (CCDC).
#
# This work is licensed under the Creative Commons
# Attribution-NonCommercial-ShareAlike 4.0 International License.
# To view a copy of this license, visit
# http://creativecommons.org/licenses/by-nc-sa/4.0/
# or send a letter to
# Creative Commons, PO Box 1866, Mountain View, CA 94042, USA.
#
# CIF created using the CSD Python API on 29 September 2022
# The structure has been converted into the P1 space group
# The structure has a 3D framework
# The original CSD entry VEGQAD is in the monoclinic crystal system
# The original CSD entry VEGQAD is in a Sohncke space group
# The framework has been calculated to contain at least 10.0% void space
# The void calculation uses a probe of radius 1.32A, grid spacing 0.4
# The framework is charged, counterions have been retained in the structure
#
###############################################################################

data_VEGQAD
_chemical_formula_moiety         '(C92 H76 Co4 N16 O24)n'
_symmetry_cell_setting           triclinic
_symmetry_space_group_name_H-M   'P 1'
_symmetry_Int_Tables_number      1
_space_group_name_Hall           'P 1'
loop_
_symmetry_equiv_pos_site_id
_symmetry_equiv_pos_as_xyz
1 x,y,z
_cell_length_a                   10.19140(10)
_cell_length_b                   25.0599(4)
_cell_length_c                   11.42750(10)
_cell_angle_alpha                90
_cell_angle_beta                 91.9200(10)
_cell_angle_gamma                90
_cell_volume                     2916.89
loop_
_atom_site_label
_atom_site_type_symbol
_atom_site_fract_x
_atom_site_fract_y
_atom_site_fract_z
Co1 Co 0.03424(14) 0.62285(6) 0.44970(12)
N1 N 0.0339(8) 0.6303(4) 0.2607(8)
C3 C 0.0323(9) 0.6353(4) 0.0136(8)
C4 C 0.1462(9) 0.6227(5) 0.0793(9)
H3 H 0.225941 0.615319 0.041775
C5 C 0.1405(10) 0.6210(5) 0.1995(8)
H4 H 0.219264 0.612588 0.242310
H21 H 0.038979 0.235900 0.475539
N7 N 0.0283(7) 0.6256(4) 0.6389(6)
N9 N 0.1158(8) 0.7010(3) 0.4594(7)
O7 O 0.0025(6) 0.5370(3) 0.4268(7)
O8 O 0.2209(7) 0.5899(3) 0.4662(6)
C6 C 0.0311(9) 0.6353(4) 0.8857(9)
C9 C 0.1369(10) 0.6398(4) 0.7012(9)
H7 H 0.214339 0.647031 0.660009
C10 C 0.1424(10) 0.6444(4) 0.8220(9)
H8 H 0.222649 0.653802 0.861398
C16 C 0.5373(9) 0.5334(4) 0.0321(8)
N4 N 0.5340(8) 0.5340(4) 0.2784(8)
C17 C 0.6452(9) 0.5414(5) 0.2210(8)
H13 H 0.723826 0.547964 0.265693
C18 C 0.6516(10) 0.5401(5) 0.0986(9)
H14 H 0.733433 0.543823 0.062064
C19 C 0.4246(9) 0.5245(4) 0.2109(9)
H15 H 0.345031 0.517239 0.248983
C20 C 0.4223(10) 0.5248(4) 0.0928(9)
H16 H 0.341709 0.519069 0.050373
Co6 Co 0.53657(14) 0.54080(6) 0.46710(12)
C1 C 0.9281(11) 0.6448(5) 0.1955(10)
H1 H 0.850326 0.652769 0.235615
C2 C 0.9226(11) 0.6490(5) 0.0766(9)
H2 H 0.844702 0.661080 0.037093
N3 N 0.5357(7) 0.5389(3) 0.6560(6)
C11 C 0.6523(9) 0.5267(4) 0.8390(9)
H9 H 0.732687 0.518579 0.879564
C12 C 0.6465(10) 0.5295(4) 0.7193(9)
H10 H 0.725434 0.524615 0.678725
C13 C 0.5371(10) 0.5360(4) 0.9015(8)
C14 C 0.4235(10) 0.5479(5) 0.8348(9)
H11 H 0.344282 0.555630 0.872866
C15 C 0.4252(9) 0.5486(5) 0.7134(9)
H12 H 0.346352 0.556098 0.669843
N5 N 0.6132(8) 0.4607(3) 0.4764(8)
C21 C 0.7970(10) 0.4021(4) 0.4928(11)
H17 H 0.889665 0.397854 0.494366
C22 C 0.7416(11) 0.4522(5) 0.4811(10)
H18 H 0.798509 0.482117 0.476325
C23 C 0.7726(9) 0.3037(4) 0.5151(10)
C24 C 0.7028(10) 0.2611(4) 0.5605(10)
H19 H 0.615506 0.266277 0.584856
C25 C 0.7605(9) 0.2114(4) 0.5700(8)
H20 H 0.709611 0.182840 0.599172
N6 N 0.8842(8) 0.2010(3) 0.5406(7)
C26 C 0.9513(10) 0.2422(4) 0.4975(11)
C27 C 0.9028(10) 0.2923(4) 0.4832(11)
H22 H 0.955966 0.319590 0.451858
C28 C 0.6020(10) 0.6892(4) 0.3306(9)
C29 C 0.5335(12) 0.6684(5) 0.2341(11)
H23 H 0.486541 0.635857 0.240968
C30 C 0.5334(16) 0.6955(6) 0.1251(11)
H24 H 0.486321 0.681344 0.058982
C31 C 0.6015(16) 0.7420(6) 0.1165(13)
H25 H 0.603455 0.759852 0.043199
C32 C 0.6667(13) 0.7633(6) 0.2112(13)
H26 H 0.711189 0.796419 0.203903
C33 C 0.6688(11) 0.7374(5) 0.3180(10)
H27 H 0.716015 0.752370 0.383096
C34 C 0.6125(9) 0.6594(4) 0.4458(9)
H28 H 0.619525 0.686136 0.510577
O1 O 0.4989(6) 0.6270(3) 0.4633(7)
H29 H 0.458(12) 0.640(5) 0.530(11)
C35 C 0.7357(8) 0.6241(4) 0.4521(7)
O2 O 0.7237(6) 0.5748(3) 0.4679(6)
O3 O 0.8429(6) 0.6486(3) 0.4448(6)
C36 C 0.1047(10) 0.4673(4) 0.5463(10)
C37 C 0.0560(13) 0.4842(5) 0.6500(12)
H30 H 0.026526 0.520007 0.656324
C38 C 0.0481(17) 0.4512(7) 0.7454(14)
H31 H 0.013548 0.464100 0.816188
C39 C 0.0910(17) 0.3988(7) 0.7377(16)
H32 H 0.085561 0.375502 0.802899
C40 C 0.1408(13) 0.3812(5) 0.6360(14)
H33 H 0.169040 0.345216 0.630422
C41 C 0.1513(11) 0.4145(5) 0.5408(13)
H34 H 0.189877 0.401766 0.471562
C42 C 0.1181(9) 0.5045(4) 0.4422(10)
H35 H 0.129184 0.482568 0.370037
C43 C 0.2386(9) 0.5408(4) 0.4604(8)
O6 O 0.3460(6) 0.5165(3) 0.4653(6)
C44 C 0.7158(10) 0.3583(4) 0.5021(10)
C45 C 0.5813(11) 0.3659(4) 0.4928(13)
H37 H 0.523068 0.336369 0.494303
C46 C 0.5327(10) 0.4177(5) 0.4814(12)
H38 H 0.440340 0.423094 0.476899
Co5 Co 0.96576(14) 0.12285(6) 0.55030(12)
Co2 Co 0.46343(14) 0.04080(6) 0.53290(12)
C1_2 C 0.0719(11) 0.1448(5) 0.8045(10)
H1_2 H 0.149674 0.152769 0.764385
C2_2 C 0.0774(11) 0.1490(5) 0.9234(9)
H2_2 H 0.155298 0.161080 0.962907
N3_2 N 0.4643(7) 0.0389(3) 0.3440(6)
C11_2 C 0.3477(9) 0.0267(4) 0.1610(9)
H9_2 H 0.267313 0.018579 0.120436
C12_2 C 0.3535(10) 0.0295(4) 0.2807(9)
H10_2 H 0.274566 0.024615 0.321275
C13_2 C 0.4629(10) 0.0360(4) 0.0985(8)
C14_2 C 0.5765(10) 0.0479(5) 0.1652(9)
H11_2 H 0.655718 0.055630 0.127134
C15_2 C 0.5748(9) 0.0486(5) 0.2866(9)
H12_2 H 0.653648 0.056098 0.330157
C28_2 C 0.3980(10) 0.1892(4) 0.6694(9)
C29_2 C 0.4665(12) 0.1684(5) 0.7659(11)
H23_2 H 0.513459 0.135857 0.759032
C30_2 C 0.4666(16) 0.1955(6) 0.8749(11)
H24_2 H 0.513679 0.181344 0.941018
C31_2 C 0.3985(16) 0.2420(6) 0.8835(13)
H25_2 H 0.396545 0.259852 0.956801
C32_2 C 0.3333(13) 0.2633(6) 0.7888(13)
H26_2 H 0.288811 0.296419 0.796097
C33_2 C 0.3312(11) 0.2374(5) 0.6820(10)
H27_2 H 0.283985 0.252370 0.616904
C34_2 C 0.3875(9) 0.1594(4) 0.5542(9)
H28_2 H 0.380475 0.186136 0.489423
O1_2 O 0.5011(6) 0.1270(3) 0.5367(7)
H29_2 H 0.542(12) 0.140(5) 0.470(11)
C35_2 C 0.2643(8) 0.1241(4) 0.5479(7)
O2_2 O 0.2763(6) 0.0748(3) 0.5321(6)
O3_2 O 0.1571(6) 0.1486(3) 0.5552(6)
H30_2 H 0.973474 0.020007 0.343676
C42_2 C 0.8819(9) 0.0045(4) 0.5578(10)
O4 O 0.9975(6) 0.0370(3) 0.5732(7)
C43_2 C 0.7614(9) 0.0408(4) 0.5396(8)
O5 O 0.7791(7) 0.0899(3) 0.5338(6)
O6_2 O 0.6540(6) 0.0165(3) 0.5347(6)
N8 N 0.4660(8) 0.0340(4) 0.7216(8)
C16_2 C 0.4627(9) 0.0334(4) 0.9679(8)
C17_2 C 0.3548(9) 0.0414(5) 0.7790(8)
H13_2 H 0.276174 0.047964 0.734307
C18_2 C 0.3484(10) 0.0401(5) 0.9014(9)
H14_2 H 0.266567 0.043823 0.937936
C19_2 C 0.5754(9) 0.0245(4) 0.7891(9)
H15_2 H 0.654969 0.017239 0.751017
C20_2 C 0.5777(10) 0.0248(4) 0.9072(9)
H16_2 H 0.658291 0.019069 0.949627
N5_2 N 0.3868(8) 0.9607(3) 0.5236(8)
C21_2 C 0.2030(10) 0.9021(4) 0.5072(11)
H17_2 H 0.110335 0.897854 0.505634
C22_2 C 0.2584(11) 0.9522(5) 0.5189(10)
H18_2 H 0.201491 0.982117 0.523675
C23_2 C 0.2274(9) 0.8037(4) 0.4849(10)
C24_2 C 0.2972(10) 0.7611(4) 0.4395(10)
H19_2 H 0.384494 0.766277 0.415144
C25_2 C 0.2395(9) 0.7114(4) 0.4300(8)
H20_2 H 0.290389 0.682840 0.400828
C26_2 C 0.0487(10) 0.7422(4) 0.5025(11)
C27_2 C 0.0972(10) 0.7923(4) 0.5168(11)
H22_2 H 0.044034 0.819590 0.548142
C36_2 C 0.8953(10) 0.9673(4) 0.4537(10)
C37_2 C 0.9440(13) 0.9842(5) 0.3500(12)
C38_2 C 0.9519(17) 0.9512(7) 0.2546(14)
H31_2 H 0.986452 0.964100 0.183812
C39_2 C 0.9090(17) 0.8988(7) 0.2623(16)
H32_2 H 0.914439 0.875502 0.197101
C40_2 C 0.8592(13) 0.8812(5) 0.3640(14)
H33_2 H 0.830960 0.845216 0.369578
C41_2 C 0.8487(11) 0.9145(5) 0.4592(13)
H34_2 H 0.810123 0.901766 0.528438
H35_2 H 0.870816 0.982568 0.629963
C44_2 C 0.2842(10) 0.8583(4) 0.4979(10)
C45_2 C 0.4187(11) 0.8659(4) 0.5072(13)
H37_2 H 0.476932 0.836369 0.505697
C46_2 C 0.4673(10) 0.9177(5) 0.5186(12)
H38_2 H 0.559660 0.923094 0.523101
C6_2 C 0.9689(9) 0.1353(4) 0.1143(9)
N2 N 0.9717(7) 0.1256(4) 0.3611(6)
C9_2 C 0.8631(10) 0.1398(4) 0.2988(9)
H7_2 H 0.785661 0.147031 0.339991
C10_2 C 0.8576(10) 0.1444(4) 0.1780(9)
H8_2 H 0.777351 0.153802 0.138602
N1_2 N 0.9661(8) 0.1303(4) 0.7393(8)
C3_2 C 0.9677(9) 0.1353(4) 0.9864(8)
C4_2 C 0.8538(9) 0.1227(5) 0.9207(9)
H3_2 H 0.774059 0.115319 0.958225
C5_2 C 0.8595(10) 0.1210(5) 0.8005(8)
H4_2 H 0.780736 0.112588 0.757690
C7 C 0.9179(10) 0.6246(5) 0.8195(8)
H5 H 0.837688 0.620445 0.858409
C8 C 0.9170(11) 0.6198(5) 0.7016(10)
H6 H 0.836433 0.612131 0.660935
H36 H 0.975(12) 0.532(5) 0.357(4)
H36_2 H 0.025(12) 0.032(5) 0.643(4)
C7_2 C 0.0821(10) 0.1246(5) 0.1805(8)
H5_2 H 0.162312 0.120445 0.141591
C8_2 C 0.0830(11) 0.1198(5) 0.2984(10)
H6_2 H 0.163567 0.112131 0.339065
H21_2 H 0.961021 0.735900 0.524461
N10 N 0.0105(11) 0.5045(5) 0.1219(10)
O11 O 0.1259(9) 0.4955(5) 0.1456(11)
O9 O 0.9281(8) 0.5084(4) 0.2059(9)
O10 O 0.9695(11) 0.5078(5) 0.0168(9)
O9_2 O 0.0719(8) 0.0084(4) 0.7941(9)
O10_2 O 0.0305(11) 0.0078(5) 0.9832(9)
N10_2 N 0.9895(11) 0.0045(5) 0.8781(10)
O11_2 O 0.8741(9) 0.9955(5) 0.8544(11)
N11 N 0.5053(9) 0.6727(4) 0.7430(9)
O12 O 0.4685(9) 0.6867(5) 0.8397(8)
O13 O 0.4268(7) 0.6750(3) 0.6559(7)
O14 O 0.6204(7) 0.6565(4) 0.7290(8)
N11_2 N 0.4947(9) 0.1727(4) 0.2570(9)
O12_2 O 0.5315(9) 0.1867(5) 0.1603(8)
O13_2 O 0.5732(7) 0.1750(3) 0.3441(7)
O14_2 O 0.3796(7) 0.1565(4) 0.2710(8)
loop_
_geom_bond_atom_site_label_1
_geom_bond_atom_site_label_2
_geom_bond_site_symmetry_1
_geom_bond_site_symmetry_2
Co1 N1 1_555 1_555
C4 C3 1_555 1_555
H3 C4 1_555 1_555
C5 N1 1_555 1_555
H4 C5 1_555 1_555
N7 Co1 1_555 1_555
N9 Co1 1_555 1_555
O7 Co1 1_555 1_555
O8 Co1 1_555 1_555
C4 C5 1_555 1_555
C9 N7 1_555 1_555
H7 C9 1_555 1_555
C10 C6 1_555 1_555
H8 C10 1_555 1_555
C9 C10 1_555 1_555
N4 C17 1_555 1_555
C17 H13 1_555 1_555
C18 C16 1_555 1_555
H14 C18 1_555 1_555
C19 N4 1_555 1_555
H15 C19 1_555 1_555
C20 C16 1_555 1_555
H16 C20 1_555 1_555
Co6 N4 1_555 1_555
C17 C18 1_555 1_555
C19 C20 1_555 1_555
Co6 N3 1_555 1_555
C1 H1 1_555 1_555
C2 C1 1_555 1_555
H2 C2 1_555 1_555
N3 C12 1_555 1_555
C11 H9 1_555 1_555
C12 C11 1_555 1_555
H10 C12 1_555 1_555
C13 C11 1_555 1_555
C14 C13 1_555 1_555
H11 C14 1_555 1_555
C15 N3 1_555 1_555
H12 C15 1_555 1_555
N5 Co6 1_555 1_555
C21 H17 1_555 1_555
C22 N5 1_555 1_555
H18 C22 1_555 1_555
C23 C24 1_555 1_555
C24 H19 1_555 1_555
C25 C24 1_555 1_555
H20 C25 1_555 1_555
N6 C25 1_555 1_555
C26 N6 1_555 1_555
C27 C23 1_555 1_555
H22 C27 1_555 1_555
C28 C29 1_555 1_555
C29 H23 1_555 1_555
C30 C29 1_555 1_555
H24 C30 1_555 1_555
C31 C30 1_555 1_555
H25 C31 1_555 1_555
C32 C31 1_555 1_555
H26 C32 1_555 1_555
C33 C28 1_555 1_555
H27 C33 1_555 1_555
C34 C28 1_555 1_555
H28 C34 1_555 1_555
O1 Co6 1_555 1_555
H29 O1 1_555 1_555
C35 C34 1_555 1_555
O2 Co6 1_555 1_555
C36 C37 1_555 1_555
C37 H30 1_555 1_555
C38 C37 1_555 1_555
H31 C38 1_555 1_555
C39 C38 1_555 1_555
H32 C39 1_555 1_555
C40 C39 1_555 1_555
H33 C40 1_555 1_555
C41 C36 1_555 1_555
H34 C41 1_555 1_555
C42 C36 1_555 1_555
H35 C42 1_555 1_555
O7 C42 1_555 1_555
C43 C42 1_555 1_555
O8 C43 1_555 1_555
O6 Co6 1_555 1_555
C44 C21 1_555 1_555
C45 C44 1_555 1_555
H37 C45 1_555 1_555
C46 N5 1_555 1_555
H38 C46 1_555 1_555
Co5 N6 1_555 1_555
C14 C15 1_555 1_555
C21 C22 1_555 1_555
C23 C44 1_555 1_555
C26 C27 1_555 1_555
C32 C33 1_555 1_555
C34 O1 1_555 1_555
C35 O2 1_555 1_555
C35 O3 1_555 1_555
C40 C41 1_555 1_555
C43 O6 1_555 1_555
C45 C46 1_555 1_555
Co2 N3_2 1_555 1_555
C1_2 H1_2 1_555 1_555
C2_2 C1_2 1_555 1_555
H2_2 C2_2 1_555 1_555
N3_2 C12_2 1_555 1_555
C11_2 H9_2 1_555 1_555
C12_2 C11_2 1_555 1_555
H10_2 C12_2 1_555 1_555
C13_2 C11_2 1_555 1_555
C14_2 C13_2 1_555 1_555
H11_2 C14_2 1_555 1_555
C15_2 N3_2 1_555 1_555
H12_2 C15_2 1_555 1_555
C28_2 C29_2 1_555 1_555
C29_2 H23_2 1_555 1_555
C30_2 C29_2 1_555 1_555
H24_2 C30_2 1_555 1_555
C31_2 C30_2 1_555 1_555
H25_2 C31_2 1_555 1_555
C32_2 C31_2 1_555 1_555
H26_2 C32_2 1_555 1_555
C33_2 C28_2 1_555 1_555
H27_2 C33_2 1_555 1_555
C34_2 C28_2 1_555 1_555
H28_2 C34_2 1_555 1_555
O1_2 Co2 1_555 1_555
H29_2 O1_2 1_555 1_555
C35_2 C34_2 1_555 1_555
O2_2 Co2 1_555 1_555
O4 C42_2 1_555 1_555
C43_2 C42_2 1_555 1_555
O5 C43_2 1_555 1_555
O6_2 Co2 1_555 1_555
Co5 O4 1_555 1_555
N8 Co2 1_555 1_555
C14_2 C15_2 1_555 1_555
C32_2 C33_2 1_555 1_555
C34_2 O1_2 1_555 1_555
C35_2 O2_2 1_555 1_555
C35_2 O3_2 1_555 1_555
C43_2 O6_2 1_555 1_555
O5 Co5 1_555 1_555
N8 C17_2 1_555 1_555
C17_2 H13_2 1_555 1_555
C18_2 C16_2 1_555 1_555
H14_2 C18_2 1_555 1_555
C19_2 N8 1_555 1_555
H15_2 C19_2 1_555 1_555
C20_2 C16_2 1_555 1_555
H16_2 C20_2 1_555 1_555
C17_2 C18_2 1_555 1_555
C19_2 C20_2 1_555 1_555
C21_2 H17_2 1_555 1_555
C22_2 N5_2 1_555 1_555
H18_2 C22_2 1_555 1_555
C23_2 C24_2 1_555 1_555
C24_2 H19_2 1_555 1_555
C25_2 C24_2 1_555 1_555
H20_2 C25_2 1_555 1_555
N9 C25_2 1_555 1_555
C26_2 N9 1_555 1_555
C27_2 C23_2 1_555 1_555
H22_2 C27_2 1_555 1_555
C36_2 C37_2 1_555 1_555
C38_2 C37_2 1_555 1_555
H31_2 C38_2 1_555 1_555
C39_2 C38_2 1_555 1_555
H32_2 C39_2 1_555 1_555
C40_2 C39_2 1_555 1_555
H33_2 C40_2 1_555 1_555
C41_2 C36_2 1_555 1_555
H34_2 C41_2 1_555 1_555
C44_2 C21_2 1_555 1_555
C45_2 C44_2 1_555 1_555
H37_2 C45_2 1_555 1_555
C46_2 N5_2 1_555 1_555
H38_2 C46_2 1_555 1_555
C21_2 C22_2 1_555 1_555
C23_2 C44_2 1_555 1_555
C26_2 C27_2 1_555 1_555
C40_2 C41_2 1_555 1_555
C45_2 C46_2 1_555 1_555
C9_2 N2 1_555 1_555
H7_2 C9_2 1_555 1_555
C10_2 C6_2 1_555 1_555
H8_2 C10_2 1_555 1_555
Co5 N2 1_555 1_555
C9_2 C10_2 1_555 1_555
Co5 N1_2 1_555 1_555
C4_2 C3_2 1_555 1_555
H3_2 C4_2 1_555 1_555
C5_2 N1_2 1_555 1_555
H4_2 C5_2 1_555 1_555
C4_2 C5_2 1_555 1_555
H5 C7 1_555 1_555
C8 C7 1_555 1_555
H6 C8 1_555 1_555
H5_2 C7_2 1_555 1_555
C8_2 C7_2 1_555 1_555
H6_2 C8_2 1_555 1_555
O11 N10 1_555 1_555
N11 O12 1_555 1_555
O13 N11 1_555 1_555
O14 N11 1_555 1_555
N11_2 O12_2 1_555 1_555
O13_2 N11_2 1_555 1_555
O14_2 N11_2 1_555 1_555

#END
