
###############################################################################
#
# This file contains modified crystal structure data generated from the
# MOF subset of the Cambridge Structural Database (CSD) v543 
# hosted by the Cambridge Crystallographic Data Centre (CCDC).
#
# This work is licensed under the Creative Commons
# Attribution-NonCommercial-ShareAlike 4.0 International License.
# To view a copy of this license, visit
# http://creativecommons.org/licenses/by-nc-sa/4.0/
# or send a letter to
# Creative Commons, PO Box 1866, Mountain View, CA 94042, USA.
#
# CIF created using the CSD Python API on 29 September 2022
# The structure has been converted into the P1 space group
# The structure has a 3D framework
# The original CSD entry VEGQOR is in the monoclinic crystal system
# The original CSD entry VEGQOR is in a Sohncke space group
# The framework has been calculated to contain at least 10.0% void space
# The void calculation uses a probe of radius 1.32A, grid spacing 0.4
# The framework is charged, counterions have been retained in the structure
#
###############################################################################

data_VEGQOR
_chemical_formula_moiety         '(C92 H76 Co4 N16 O24)n'
_symmetry_cell_setting           triclinic
_symmetry_space_group_name_H-M   'P 1'
_symmetry_Int_Tables_number      1
_space_group_name_Hall           'P 1'
loop_
_symmetry_equiv_pos_site_id
_symmetry_equiv_pos_as_xyz
1 x,y,z
_cell_length_a                   10.19210(10)
_cell_length_b                   24.8616(3)
_cell_length_c                   11.44350(10)
_cell_angle_alpha                90
_cell_angle_beta                 91.1810(10)
_cell_angle_gamma                90
_cell_volume                     2899.07
loop_
_atom_site_label
_atom_site_type_symbol
_atom_site_fract_x
_atom_site_fract_y
_atom_site_fract_z
H31 H 0.044(8) 0.647(4) 0.617(5)
N1 N 0.4695(6) 0.6298(3) 0.3306(5)
C1 C 0.3519(7) 0.6421(5) 0.1468(7)
H1 H 0.270183 0.647400 0.106932
C2 C 0.3576(8) 0.6394(5) 0.2662(8)
H2 H 0.278361 0.644492 0.307087
C3 C 0.4685(7) 0.6371(3) 0.0834(6)
C4 C 0.5804(8) 0.6292(6) 0.1482(7)
H3 H 0.662235 0.626475 0.110471
C6 C 0.5758(9) 0.6253(6) 0.2676(7)
H4 H 0.656272 0.618712 0.308463
C13 C 0.0840(8) 0.5474(6) 0.1744(7)
H11 H 0.164831 0.551135 0.135240
C15 C 0.0824(8) 0.5507(6) 0.2931(7)
H12 H 0.162857 0.557748 0.333686
H20 H 0.044131 0.434456 0.481651
C31 C 0.8982(8) 0.7043(3) 0.4383(9)
C32 C 0.9509(12) 0.6878(5) 0.3366(11)
H25 H 0.980722 0.651787 0.329531
C33 C 0.9626(18) 0.7234(7) 0.2403(14)
H26 H 0.998418 0.711632 0.168681
C34 C 0.921(2) 0.7752(8) 0.2540(19)
H27 H 0.932275 0.800074 0.192092
C35 C 0.8635(16) 0.7920(6) 0.3519(18)
H28 H 0.831200 0.827731 0.356270
C36 C 0.8508(10) 0.7578(4) 0.4470(13)
H29 H 0.811131 0.770061 0.516556
C37 C 0.8849(6) 0.6683(3) 0.5424(7)
H30 H 0.873636 0.691178 0.613403
O1 O 0.9990(5) 0.6357(2) 0.5591(5)
C38 C 0.7653(6) 0.6311(3) 0.5287(5)
O2 O 0.6573(4) 0.65510(19) 0.5171(4)
O3 O 0.7808(4) 0.58157(19) 0.5309(4)
C39 C 0.4036(7) 0.4821(3) 0.6606(7)
C40 C 0.3405(8) 0.4324(4) 0.6754(10)
H32 H 0.295262 0.415903 0.611469
C41 C 0.3449(11) 0.4077(5) 0.7836(12)
H33 H 0.300793 0.374427 0.793606
C42 C 0.4117(11) 0.4303(5) 0.8777(11)
H34 H 0.413215 0.412802 0.951465
C43 C 0.4758(11) 0.4782(5) 0.8636(9)
H35 H 0.522559 0.493896 0.927582
C44 C 0.4725(8) 0.5037(3) 0.7555(8)
H36 H 0.518312 0.536685 0.746353
C45 C 0.3913(6) 0.5113(3) 0.5449(6)
H37 H 0.384267 0.483615 0.481618
O4 O 0.5039(5) 0.5434(2) 0.5237(4)
H38 H 0.518(9) 0.538(4) 0.451(3)
C46 C 0.2676(6) 0.5463(3) 0.5382(5)
O5 O 0.2818(4) 0.59621(19) 0.5213(4)
O6 O 0.1600(4) 0.52284(19) 0.5501(4)
Co1 Co 0.46751(9) 0.63005(4) 0.51853(9)
N7 N 0.4697(6) 0.6385(2) 0.7088(5)
N9 N 0.3904(6) 0.7099(2) 0.5071(5)
Co6 Co 0.96916(9) 0.54918(4) 0.54524(9)
C5 C 0.4683(7) 0.6395(3) 0.9540(6)
C7 C 0.3531(7) 0.6328(4) 0.8879(6)
H5 H 0.271521 0.628434 0.925350
C8 C 0.3586(7) 0.6326(4) 0.7672(6)
H6 H 0.279046 0.628133 0.723558
C9 C 0.5784(7) 0.6481(4) 0.7721(7)
H7 H 0.657725 0.654383 0.732179
C10 C 0.5817(8) 0.6495(4) 0.8931(7)
H8 H 0.661424 0.657326 0.934166
C19 C 0.0775(8) 0.5300(4) 0.7984(7)
H15 H 0.155039 0.521841 0.757383
C20 C 0.0810(8) 0.5263(4) 0.9196(7)
H16 H 0.158780 0.515131 0.959793
N3 N 0.9728(5) 0.5444(3) 0.3569(5)
C11 C 0.8585(7) 0.5298(4) 0.1749(7)
H9 H 0.777496 0.521641 0.136290
C12 C 0.8652(7) 0.5328(3) 0.2934(6)
H10 H 0.786838 0.526088 0.334503
C14 C 0.9703(7) 0.5387(3) 0.1103(6)
N5 N 0.8876(5) 0.4704(2) 0.5432(5)
C21 C 0.7650(7) 0.4606(3) 0.5767(8)
H17 H 0.715761 0.489718 0.607103
C22 C 0.7055(7) 0.4108(3) 0.5698(8)
H18 H 0.617845 0.406195 0.594663
C23 C 0.7748(7) 0.3676(3) 0.5263(7)
C24 C 0.9044(8) 0.3782(3) 0.4918(9)
H19 H 0.956165 0.350133 0.460554
C25 C 0.9557(7) 0.4288(3) 0.5032(8)
C26 C 0.7162(7) 0.3131(3) 0.5151(7)
C27 C 0.5835(8) 0.3059(3) 0.5062(11)
H21 H 0.526027 0.336010 0.506628
C28 C 0.5325(8) 0.2529(3) 0.4963(11)
H22 H 0.440039 0.248090 0.491917
N6 N 0.6096(6) 0.2099(2) 0.4929(5)
C29 C 0.7381(8) 0.2180(3) 0.5022(12)
H23 H 0.794621 0.187613 0.501477
C30 C 0.7934(8) 0.2683(4) 0.5129(12)
H24 H 0.886083 0.271848 0.518816
N8 N 0.9703(6) 0.5446(3) 0.7365(5)
Co4 Co 0.53249(9) 0.13005(4) 0.48147(9)
C16 C 0.9686(7) 0.5392(3) 0.9816(6)
C17 C 0.8571(7) 0.5525(4) 0.9165(6)
H13 H 0.777119 0.559929 0.954548
C18 C 0.8625(7) 0.5549(4) 0.7947(6)
H14 H 0.785138 0.564450 0.751758
C16_2 C 0.0314(7) 0.0392(3) 0.0184(6)
C17_2 C 0.1429(7) 0.0525(4) 0.0835(6)
H13_2 H 0.222881 0.059929 0.045452
C18_2 C 0.1375(7) 0.0549(4) 0.2053(6)
H14_2 H 0.214862 0.064450 0.248242
N4 N 0.0297(6) 0.0446(3) 0.2635(5)
Co5 Co 0.03084(9) 0.04918(4) 0.45476(9)
N3_2 N 0.0272(5) 0.0444(3) 0.6431(5)
C11_2 C 0.1415(7) 0.0298(4) 0.8251(7)
H9_2 H 0.222504 0.021641 0.863710
C12_2 C 0.1348(7) 0.0328(3) 0.7066(6)
H10_2 H 0.213162 0.026088 0.665497
C14_2 C 0.0297(7) 0.0387(3) 0.8897(6)
O7 O 0.0010(5) 0.1357(2) 0.4409(5)
O8 O 0.2192(4) 0.08157(19) 0.4691(4)
N5_2 N 0.1124(5) 0.9704(2) 0.4568(5)
C21_2 C 0.2350(7) 0.9606(3) 0.4233(8)
H17_2 H 0.284239 0.989718 0.392897
C22_2 C 0.2945(7) 0.9108(3) 0.4302(8)
H18_2 H 0.382155 0.906195 0.405337
C23_2 C 0.2252(7) 0.8676(3) 0.4737(7)
C24_2 C 0.0956(8) 0.8782(3) 0.5082(9)
H19_2 H 0.043835 0.850133 0.539446
C25_2 C 0.0443(7) 0.9288(3) 0.4968(8)
C26_2 C 0.2838(7) 0.8131(3) 0.4849(7)
C27_2 C 0.4165(8) 0.8059(3) 0.4938(11)
H21_2 H 0.473973 0.836010 0.493372
C28_2 C 0.4675(8) 0.7529(3) 0.5037(11)
H22_2 H 0.559961 0.748090 0.508083
C29_2 C 0.2619(8) 0.7180(3) 0.4978(12)
H23_2 H 0.205379 0.687613 0.498523
C30_2 C 0.2066(8) 0.7683(4) 0.4871(12)
H24_2 H 0.113917 0.771848 0.481184
C5_2 C 0.5317(7) 0.1395(3) 0.0460(6)
C7_2 C 0.6469(7) 0.1328(4) 0.1121(6)
H5_2 H 0.728479 0.128434 0.074650
C8_2 C 0.6414(7) 0.1326(4) 0.2328(6)
H6_2 H 0.720954 0.128133 0.276442
N2 N 0.5303(6) 0.1385(2) 0.2912(5)
C9_2 C 0.4216(7) 0.1481(4) 0.2279(7)
H7_2 H 0.342275 0.154383 0.267821
C10_2 C 0.4183(8) 0.1495(4) 0.1069(7)
H8_2 H 0.338576 0.157326 0.065834
C19_2 C 0.9225(8) 0.0300(4) 0.2016(7)
H15_2 H 0.844961 0.021841 0.242617
C20_2 C 0.9190(8) 0.0263(4) 0.0804(7)
H16_2 H 0.841220 0.015131 0.040207
N1_2 N 0.5305(6) 0.1298(3) 0.6694(5)
C1_2 C 0.6481(7) 0.1421(5) 0.8532(7)
H1_2 H 0.729817 0.147400 0.893068
C2_2 C 0.6424(8) 0.1394(5) 0.7338(8)
H2_2 H 0.721639 0.144492 0.692913
C3_2 C 0.5315(7) 0.1371(3) 0.9166(6)
C4_2 C 0.4196(8) 0.1292(6) 0.8518(7)
H3_2 H 0.337765 0.126475 0.889529
C6_2 C 0.4242(9) 0.1253(6) 0.7324(7)
H4_2 H 0.343728 0.118712 0.691537
C13_2 C 0.9160(8) 0.0474(6) 0.8256(7)
H11_2 H 0.835169 0.051135 0.864760
C15_2 C 0.9176(8) 0.0507(6) 0.7069(7)
H12_2 H 0.837143 0.057748 0.666314
C31_2 C 0.1018(8) 0.2043(3) 0.5617(9)
C32_2 C 0.0491(12) 0.1878(5) 0.6634(11)
H25_2 H 0.019278 0.151787 0.670469
C33_2 C 0.0374(18) 0.2234(7) 0.7597(14)
H26_2 H 0.001582 0.211632 0.831319
C34_2 C 0.079(2) 0.2752(8) 0.7460(19)
H27_2 H 0.067725 0.300074 0.807908
C35_2 C 0.1365(16) 0.2920(6) 0.6481(18)
H28_2 H 0.168800 0.327731 0.643730
C36_2 C 0.1492(10) 0.2578(4) 0.5530(13)
H29_2 H 0.188869 0.270061 0.483444
C37_2 C 0.1151(6) 0.1683(3) 0.4576(7)
H30_2 H 0.126364 0.191178 0.386597
C38_2 C 0.2347(6) 0.1311(3) 0.4713(5)
O2_2 O 0.3427(4) 0.15510(19) 0.4829(4)
C44_2 C 0.5275(8) 0.0037(3) 0.2445(8)
H36_2 H 0.481688 0.036685 0.253647
C45_2 C 0.6087(6) 0.0113(3) 0.4551(6)
O4_2 O 0.4961(5) 0.0434(2) 0.4763(4)
H38_2 H 0.482(9) 0.038(4) 0.549(3)
C46_2 C 0.7324(6) 0.0463(3) 0.4618(5)
O5_2 O 0.7182(4) 0.09621(19) 0.4787(4)
O6_2 O 0.8400(4) 0.02284(19) 0.4499(4)
H20_2 H 0.955869 0.934456 0.518349
C39_2 C 0.5964(7) 0.9821(3) 0.3394(7)
C40_2 C 0.6595(8) 0.9324(4) 0.3246(10)
H32_2 H 0.704738 0.915903 0.388531
C41_2 C 0.6551(11) 0.9077(5) 0.2164(12)
H33_2 H 0.699207 0.874427 0.206394
C42_2 C 0.5883(11) 0.9303(5) 0.1223(11)
H34_2 H 0.586785 0.912802 0.048535
C43_2 C 0.5242(11) 0.9782(5) 0.1364(9)
H35_2 H 0.477441 0.993896 0.072418
H37_2 H 0.615733 0.983615 0.518382
H31_2 H 0.956(8) 0.147(4) 0.383(5)
N10 N 0.4927(8) 0.4932(4) 0.2463(7)
O9 O 0.3779(8) 0.5057(6) 0.2644(9)
O10 O 0.5286(10) 0.4853(5) 0.1460(8)
O11 O 0.5766(6) 0.4916(3) 0.3307(6)
O9_2 O 0.6221(8) 0.0057(6) 0.7356(9)
N10_2 N 0.5073(8) 0.9932(4) 0.7537(7)
O10_2 O 0.4714(10) 0.9853(5) 0.8540(8)
O11_2 O 0.4234(6) 0.9916(3) 0.6693(6)
O13 O 0.0769(8) 0.6696(6) 0.7747(10)
O14 O 0.0411(11) 0.6740(6) 0.9582(10)
N11 N 0.9981(10) 0.6774(5) 0.8549(10)
O12 O 0.8799(12) 0.6848(10) 0.8303(13)
N11_2 N 0.0019(10) 0.1774(5) 0.1451(10)
O12_2 O 0.1201(12) 0.1848(10) 0.1697(13)
O13_2 O 0.9231(8) 0.1696(6) 0.2253(10)
O14_2 O 0.9589(11) 0.1740(6) 0.0418(10)
loop_
_geom_bond_atom_site_label_1
_geom_bond_atom_site_label_2
_geom_bond_site_symmetry_1
_geom_bond_site_symmetry_2
N1 C2 1_555 1_555
C1 H1 1_555 1_555
C2 C1 1_555 1_555
H2 C2 1_555 1_555
C3 C1 1_555 1_555
C4 C3 1_555 1_555
H3 C4 1_555 1_555
C6 N1 1_555 1_555
H4 C6 1_555 1_555
C13 H11 1_555 1_555
H12 C15 1_555 1_555
C31 C32 1_555 1_555
C32 H25 1_555 1_555
C33 C32 1_555 1_555
H26 C33 1_555 1_555
C34 C33 1_555 1_555
H27 C34 1_555 1_555
C35 C34 1_555 1_555
H28 C35 1_555 1_555
C36 C31 1_555 1_555
H29 C36 1_555 1_555
C37 C31 1_555 1_555
H30 C37 1_555 1_555
O1 C37 1_555 1_555
C38 C37 1_555 1_555
O2 C38 1_555 1_555
O3 C38 1_555 1_555
C39 C40 1_555 1_555
C40 H32 1_555 1_555
C41 C40 1_555 1_555
H33 C41 1_555 1_555
C42 C41 1_555 1_555
H34 C42 1_555 1_555
C43 C42 1_555 1_555
H35 C43 1_555 1_555
C44 C39 1_555 1_555
H36 C44 1_555 1_555
C45 C39 1_555 1_555
H37 C45 1_555 1_555
O4 C45 1_555 1_555
H38 O4 1_555 1_555
C46 C45 1_555 1_555
O5 C46 1_555 1_555
O6 C46 1_555 1_555
Co1 N1 1_555 1_555
N7 Co1 1_555 1_555
N9 Co1 1_555 1_555
Co6 O1 1_555 1_555
C4 C6 1_555 1_555
C13 C15 1_555 1_555
C35 C36 1_555 1_555
O2 Co1 1_555 1_555
O3 Co6 1_555 1_555
C43 C44 1_555 1_555
O4 Co1 1_555 1_555
O5 Co1 1_555 1_555
C7 C5 1_555 1_555
H5 C7 1_555 1_555
C8 C7 1_555 1_555
H6 C8 1_555 1_555
N7 C8 1_555 1_555
C9 N7 1_555 1_555
H7 C9 1_555 1_555
C10 C5 1_555 1_555
H8 C10 1_555 1_555
H15 C19 1_555 1_555
H16 C20 1_555 1_555
C9 C10 1_555 1_555
C19 C20 1_555 1_555
N3 C12 1_555 1_555
C11 H9 1_555 1_555
C12 C11 1_555 1_555
H10 C12 1_555 1_555
C14 C11 1_555 1_555
N5 C21 1_555 1_555
C21 H17 1_555 1_555
C22 C21 1_555 1_555
H18 C22 1_555 1_555
C23 C22 1_555 1_555
C24 C23 1_555 1_555
H19 C24 1_555 1_555
C25 N5 1_555 1_555
C26 C23 1_555 1_555
C27 C26 1_555 1_555
H21 C27 1_555 1_555
C28 C27 1_555 1_555
H22 C28 1_555 1_555
N6 C28 1_555 1_555
C29 N6 1_555 1_555
H23 C29 1_555 1_555
C30 C26 1_555 1_555
H24 C30 1_555 1_555
Co6 N3 1_555 1_555
N8 Co6 1_555 1_555
Co4 N6 1_555 1_555
N5 Co6 1_555 1_555
C24 C25 1_555 1_555
C29 C30 1_555 1_555
C17 C16 1_555 1_555
H13 C17 1_555 1_555
C18 C17 1_555 1_555
H14 C18 1_555 1_555
N8 C18 1_555 1_555
C17_2 C16_2 1_555 1_555
H13_2 C17_2 1_555 1_555
C18_2 C17_2 1_555 1_555
H14_2 C18_2 1_555 1_555
N4 C18_2 1_555 1_555
Co5 N4 1_555 1_555
N3_2 C12_2 1_555 1_555
C11_2 H9_2 1_555 1_555
C12_2 C11_2 1_555 1_555
H10_2 C12_2 1_555 1_555
C14_2 C11_2 1_555 1_555
Co5 N3_2 1_555 1_555
O7 Co5 1_555 1_555
O8 Co5 1_555 1_555
N5_2 C21_2 1_555 1_555
C21_2 H17_2 1_555 1_555
C22_2 C21_2 1_555 1_555
H18_2 C22_2 1_555 1_555
C23_2 C22_2 1_555 1_555
C24_2 C23_2 1_555 1_555
H19_2 C24_2 1_555 1_555
C25_2 N5_2 1_555 1_555
C26_2 C23_2 1_555 1_555
C27_2 C26_2 1_555 1_555
H21_2 C27_2 1_555 1_555
C28_2 C27_2 1_555 1_555
H22_2 C28_2 1_555 1_555
N9 C28_2 1_555 1_555
C29_2 N9 1_555 1_555
H23_2 C29_2 1_555 1_555
C30_2 C26_2 1_555 1_555
H24_2 C30_2 1_555 1_555
C24_2 C25_2 1_555 1_555
C29_2 C30_2 1_555 1_555
C7_2 C5_2 1_555 1_555
H5_2 C7_2 1_555 1_555
C8_2 C7_2 1_555 1_555
H6_2 C8_2 1_555 1_555
N2 C8_2 1_555 1_555
C9_2 N2 1_555 1_555
H7_2 C9_2 1_555 1_555
C10_2 C5_2 1_555 1_555
H8_2 C10_2 1_555 1_555
H15_2 C19_2 1_555 1_555
H16_2 C20_2 1_555 1_555
Co4 N2 1_555 1_555
C9_2 C10_2 1_555 1_555
C19_2 C20_2 1_555 1_555
N1_2 C2_2 1_555 1_555
C1_2 H1_2 1_555 1_555
C2_2 C1_2 1_555 1_555
H2_2 C2_2 1_555 1_555
C3_2 C1_2 1_555 1_555
C4_2 C3_2 1_555 1_555
H3_2 C4_2 1_555 1_555
C6_2 N1_2 1_555 1_555
H4_2 C6_2 1_555 1_555
C13_2 H11_2 1_555 1_555
H12_2 C15_2 1_555 1_555
C31_2 C32_2 1_555 1_555
C32_2 H25_2 1_555 1_555
C33_2 C32_2 1_555 1_555
H26_2 C33_2 1_555 1_555
C34_2 C33_2 1_555 1_555
H27_2 C34_2 1_555 1_555
C35_2 C34_2 1_555 1_555
H28_2 C35_2 1_555 1_555
C36_2 C31_2 1_555 1_555
H29_2 C36_2 1_555 1_555
C37_2 C31_2 1_555 1_555
H30_2 C37_2 1_555 1_555
O7 C37_2 1_555 1_555
C38_2 C37_2 1_555 1_555
O2_2 C38_2 1_555 1_555
O8 C38_2 1_555 1_555
H36_2 C44_2 1_555 1_555
O4_2 C45_2 1_555 1_555
H38_2 O4_2 1_555 1_555
C46_2 C45_2 1_555 1_555
O5_2 C46_2 1_555 1_555
O6_2 C46_2 1_555 1_555
Co4 N1_2 1_555 1_555
C4_2 C6_2 1_555 1_555
C13_2 C15_2 1_555 1_555
C35_2 C36_2 1_555 1_555
O2_2 Co4 1_555 1_555
O4_2 Co4 1_555 1_555
O5_2 Co4 1_555 1_555
C39_2 C40_2 1_555 1_555
C40_2 H32_2 1_555 1_555
C41_2 C40_2 1_555 1_555
H33_2 C41_2 1_555 1_555
C42_2 C41_2 1_555 1_555
H34_2 C42_2 1_555 1_555
C43_2 C42_2 1_555 1_555
H35_2 C43_2 1_555 1_555
N10 O9 1_555 1_555
O10 N10 1_555 1_555
O11 N10 1_555 1_555
O10_2 N10_2 1_555 1_555
O11_2 N10_2 1_555 1_555
N11 O12 1_555 1_555
N11_2 O12_2 1_555 1_555

#END
