
###############################################################################
#
# This file contains modified crystal structure data generated from the
# MOF subset of the Cambridge Structural Database (CSD) v543 
# hosted by the Cambridge Crystallographic Data Centre (CCDC).
#
# This work is licensed under the Creative Commons
# Attribution-NonCommercial-ShareAlike 4.0 International License.
# To view a copy of this license, visit
# http://creativecommons.org/licenses/by-nc-sa/4.0/
# or send a letter to
# Creative Commons, PO Box 1866, Mountain View, CA 94042, USA.
#
# CIF created using the CSD Python API on 29 September 2022
# The structure has been converted into the P1 space group
# The structure has a 3D framework
# The original CSD entry VEGQEH is in the monoclinic crystal system
# The original CSD entry VEGQEH is in a Sohncke space group
# The framework has been calculated to contain at least 10.0% void space
# The void calculation uses a probe of radius 1.32A, grid spacing 0.4
# The framework is charged, counterions have been retained in the structure
#
###############################################################################

data_VEGQEH
_chemical_formula_moiety         '(C92 H76 Co4 N16 O24)n'
_symmetry_cell_setting           triclinic
_symmetry_space_group_name_H-M   'P 1'
_symmetry_Int_Tables_number      1
_space_group_name_Hall           'P 1'
loop_
_symmetry_equiv_pos_site_id
_symmetry_equiv_pos_as_xyz
1 x,y,z
_cell_length_a                   10.20900(10)
_cell_length_b                   24.9298(3)
_cell_length_c                   11.44310(10)
_cell_angle_alpha                90
_cell_angle_beta                 92.1620(10)
_cell_angle_gamma                90
_cell_volume                     2910.29
loop_
_atom_site_label
_atom_site_type_symbol
_atom_site_fract_x
_atom_site_fract_y
_atom_site_fract_z
O4 O 0.0051(4) 0.42682(19) 0.5432(4)
H38 H 0.053(8) 0.413(3) 0.611(7)
Co2 Co 0.47173(9) 0.43079(3) 0.51235(8)
H4 H 0.044817 0.628039 0.463294
C14 C 0.0927(7) 0.5104(4) 0.1597(6)
H11 H 0.172285 0.504105 0.121559
C15 C 0.0901(7) 0.5086(4) 0.2808(6)
H12 H 0.169515 0.501411 0.323997
N5 N 0.4733(5) 0.4292(2) 0.3235(5)
C21 C 0.3652(7) 0.4182(3) 0.2591(6)
H17 H 0.286404 0.412390 0.298845
C22 C 0.3599(7) 0.4146(3) 0.1374(6)
H18 H 0.280037 0.406043 0.096301
C23 C 0.4743(6) 0.4237(3) 0.0772(6)
C24 C 0.5857(7) 0.4359(4) 0.1447(6)
H19 H 0.665884 0.442504 0.107740
C25 C 0.5818(7) 0.4386(4) 0.2645(6)
H20 H 0.660132 0.447505 0.307604
C31 C 0.4082(6) 0.5790(3) 0.6505(7)
C32 C 0.4846(8) 0.5580(3) 0.7434(7)
H25 H 0.535204 0.526543 0.732141
C33 C 0.4873(11) 0.5830(4) 0.8531(9)
H26 H 0.535870 0.567191 0.916634
C34 C 0.4211(12) 0.6295(5) 0.8697(10)
H27 H 0.426843 0.647249 0.943150
C35 C 0.3452(9) 0.6507(4) 0.7781(10)
H28 H 0.295483 0.682308 0.789915
C36 C 0.3412(8) 0.6261(3) 0.6684(8)
H29 H 0.291717 0.641936 0.605438
C37 C 0.3960(6) 0.5498(3) 0.5337(6)
H30 H 0.389068 0.577179 0.469898
O1 O 0.5081(5) 0.5169(2) 0.5150(4)
H31 H 0.529(9) 0.524(4) 0.466(8)
C38 C 0.2725(6) 0.5147(3) 0.5267(5)
O2 O 0.1655(4) 0.53867(18) 0.5348(4)
O3 O 0.2859(4) 0.46461(18) 0.5112(4)
C39 C 0.8973(7) 0.3560(3) 0.4307(8)
C40 C 0.9450(11) 0.3710(4) 0.3277(10)
H32 H 0.976068 0.406619 0.318880
C41 C 0.9502(14) 0.3357(7) 0.2336(12)
H33 H 0.982453 0.346671 0.160616
C42 C 0.9045(14) 0.2820(6) 0.2520(15)
H34 H 0.905965 0.256887 0.189520
C43 C 0.8592(11) 0.2663(5) 0.3565(15)
H35 H 0.831888 0.230234 0.366932
C44 C 0.8525(8) 0.3027(3) 0.4492(11)
H36 H 0.819068 0.292147 0.522126
C45 C 0.8911(6) 0.3940(3) 0.5316(6)
H37 H 0.884033 0.372539 0.604897
C46 C 0.7705(6) 0.4301(3) 0.5186(5)
O5 O 0.7854(4) 0.47971(18) 0.5130(4)
O6 O 0.6619(4) 0.40602(18) 0.5156(4)
Co4 Co 0.97433(9) 0.51256(3) 0.52838(8)
N7 N 0.3931(5) 0.3509(2) 0.5057(5)
N9 N 0.4750(5) 0.4248(2) 0.7019(4)
C19 C 0.0833(8) 0.5318(4) 0.7825(6)
H15 H 0.159519 0.541593 0.742458
C20 C 0.0875(8) 0.5338(4) 0.9030(7)
H16 H 0.166510 0.543767 0.943856
C26 C 0.4745(6) 0.4226(3) 0.9488(6)
C27 C 0.3622(7) 0.4335(4) 0.8810(6)
H21 H 0.281809 0.440341 0.917467
C28 C 0.3671(7) 0.4345(4) 0.7606(6)
H22 H 0.288650 0.442656 0.716862
C29 C 0.5829(7) 0.4121(3) 0.7682(6)
H23 H 0.660845 0.403735 0.729147
C30 C 0.5872(7) 0.4104(4) 0.8885(6)
H24 H 0.666145 0.401111 0.930252
N1 N 0.8905(5) 0.5910(2) 0.5248(4)
C1 C 0.7677(7) 0.6002(3) 0.5559(7)
H1 H 0.719141 0.570678 0.583983
C2 C 0.7068(7) 0.6493(3) 0.5503(7)
H2 H 0.618629 0.652966 0.572942
C3 C 0.9033(7) 0.6842(3) 0.4744(7)
H3 H 0.952732 0.712556 0.442414
C4 C 0.7752(6) 0.6936(3) 0.5112(6)
C5 C 0.9569(7) 0.6333(3) 0.4851(8)
C6 C 0.7154(6) 0.7477(3) 0.5035(6)
C7 C 0.5792(7) 0.7545(3) 0.4858(8)
H5 H 0.522628 0.724455 0.475534
C8 C 0.5300(7) 0.8065(3) 0.4838(7)
H6 H 0.437849 0.811321 0.474576
C9 C 0.7347(7) 0.8432(3) 0.5032(8)
H7 H 0.790464 0.873754 0.505332
N2 N 0.6069(5) 0.8509(2) 0.4943(5)
C10 C 0.7923(7) 0.7921(3) 0.5096(8)
H8 H 0.884831 0.788533 0.518081
C11 C 0.8713(7) 0.5298(3) 0.2765(6)
H9 H 0.794126 0.537917 0.316854
N3 N 0.9811(5) 0.5164(2) 0.3394(4)
C12 C 0.8671(7) 0.5323(3) 0.1562(6)
H10 H 0.787321 0.541365 0.115493
C13 C 0.9778(6) 0.5216(3) 0.0941(6)
Co6 Co 0.52827(9) 0.93079(3) 0.48765(8)
N8 N 0.9763(5) 0.5167(2) 0.7195(4)
C16 C 0.9772(7) 0.5215(3) 0.9651(5)
C17 C 0.8657(7) 0.5074(4) 0.8989(6)
H13 H 0.786912 0.498576 0.936067
C18 C 0.8705(7) 0.5063(4) 0.7787(6)
H14 H 0.792246 0.497427 0.735396
C16_2 C 0.0228(7) 0.0215(3) 0.0349(5)
C17_2 C 0.1343(7) 0.0074(4) 0.1011(6)
C18_2 C 0.1295(7) 0.0063(4) 0.2213(6)
N4 N 0.0237(5) 0.0167(2) 0.2805(4)
Co3 Co 0.02567(9) 0.01256(3) 0.47162(8)
N1_2 N 0.1095(5) 0.0910(2) 0.4752(4)
C1_2 C 0.2323(7) 0.1002(3) 0.4441(7)
H1_2 H 0.280859 0.070678 0.416017
C2_2 C 0.2932(7) 0.1493(3) 0.4497(7)
H2_2 H 0.381371 0.152966 0.427058
C3_2 C 0.0967(7) 0.1842(3) 0.5256(7)
H3_2 H 0.047268 0.212556 0.557586
C4_2 C 0.2248(6) 0.1936(3) 0.4888(6)
C5_2 C 0.0431(7) 0.1333(3) 0.5149(8)
C6_2 C 0.2846(6) 0.2477(3) 0.4965(6)
C7_2 C 0.4208(7) 0.2545(3) 0.5142(8)
H5_2 H 0.477372 0.224455 0.524466
C8_2 C 0.4700(7) 0.3065(3) 0.5162(7)
H6_2 H 0.562151 0.311321 0.525424
C9_2 C 0.2653(7) 0.3432(3) 0.4968(8)
H7_2 H 0.209536 0.373754 0.494668
C10_2 C 0.2077(7) 0.2921(3) 0.4904(8)
H8_2 H 0.115169 0.288533 0.481919
C11_2 C 0.1287(7) 0.0298(3) 0.7235(6)
H9_2 H 0.205874 0.037917 0.683146
N3_2 N 0.0189(5) 0.0164(2) 0.6606(4)
C12_2 C 0.1329(7) 0.0323(3) 0.8438(6)
H10_2 H 0.212679 0.041365 0.884507
C13_2 C 0.0222(6) 0.0216(3) 0.9059(6)
O8 O 0.2146(4) 0.97971(18) 0.4870(4)
H4_2 H 0.955183 0.128039 0.536706
C14_2 C 0.9073(7) 0.0104(4) 0.8403(6)
H11_2 H 0.827715 0.004105 0.878441
C15_2 C 0.9099(7) 0.0086(4) 0.7192(6)
H12_2 H 0.830485 0.001411 0.676003
C31_2 C 0.5918(6) 0.0790(3) 0.3495(7)
C32_2 C 0.5154(8) 0.0580(3) 0.2566(7)
H25_2 H 0.464796 0.026543 0.267859
C33_2 C 0.5127(11) 0.0830(4) 0.1469(9)
H26_2 H 0.464130 0.067191 0.083366
C34_2 C 0.5789(12) 0.1295(5) 0.1303(10)
H27_2 H 0.573157 0.147249 0.056850
C35_2 C 0.6548(9) 0.1507(4) 0.2219(10)
H28_2 H 0.704517 0.182308 0.210085
C36_2 C 0.6588(8) 0.1261(3) 0.3316(8)
H29_2 H 0.708283 0.141936 0.394562
C37_2 C 0.6040(6) 0.0498(3) 0.4663(6)
H30_2 H 0.610932 0.077179 0.530102
O1_2 O 0.4919(5) 0.0169(2) 0.4850(4)
H31_2 H 0.471(9) 0.024(4) 0.534(8)
C38_2 C 0.7275(6) 0.0147(3) 0.4733(5)
O2_2 O 0.8345(4) 0.03867(18) 0.4652(4)
C26_2 C 0.5255(6) 0.9226(3) 0.0512(6)
C27_2 C 0.6378(7) 0.9335(4) 0.1190(6)
H21_2 H 0.718191 0.940341 0.082533
C28_2 C 0.6329(7) 0.9345(4) 0.2394(6)
H22_2 H 0.711350 0.942656 0.283138
N6 N 0.5250(5) 0.9248(2) 0.2981(4)
C29_2 C 0.4171(7) 0.9121(3) 0.2318(6)
H23_2 H 0.339155 0.903735 0.270853
C30_2 C 0.4128(7) 0.9104(4) 0.1115(6)
H24_2 H 0.333855 0.901111 0.069748
N5_2 N 0.5267(5) 0.9292(2) 0.6765(5)
C21_2 C 0.6348(7) 0.9182(3) 0.7409(6)
H17_2 H 0.713596 0.912390 0.701155
C22_2 C 0.6401(7) 0.9146(3) 0.8626(6)
H18_2 H 0.719963 0.906043 0.903699
C23_2 C 0.5257(6) 0.9237(3) 0.9228(6)
C24_2 C 0.4143(7) 0.9359(4) 0.8553(6)
H19_2 H 0.334116 0.942504 0.892260
C25_2 C 0.4182(7) 0.9386(4) 0.7355(6)
H20_2 H 0.339868 0.947505 0.692396
O3_2 O 0.7141(4) 0.96461(18) 0.4888(4)
C39_2 C 0.1027(7) 0.8560(3) 0.5693(8)
C40_2 C 0.0550(11) 0.8710(4) 0.6723(10)
H32_2 H 0.023932 0.906619 0.681120
C41_2 C 0.0498(14) 0.8357(7) 0.7664(12)
H33_2 H 0.017547 0.846671 0.839384
C42_2 C 0.0955(14) 0.7820(6) 0.7480(15)
H34_2 H 0.094035 0.756887 0.810480
C43_2 C 0.1408(11) 0.7663(5) 0.6435(15)
H35_2 H 0.168112 0.730234 0.633068
C44_2 C 0.1475(8) 0.8027(3) 0.5508(11)
H36_2 H 0.180932 0.792147 0.477874
C45_2 C 0.1089(6) 0.8940(3) 0.4684(6)
H37_2 H 0.115967 0.872539 0.395103
C46_2 C 0.2295(6) 0.9301(3) 0.4814(5)
O6_2 O 0.3381(4) 0.90602(18) 0.4844(4)
O7 O 0.9949(4) 0.92682(19) 0.4568(4)
H38_2 H 0.947(8) 0.913(3) 0.389(7)
H13_2 H 0.213088 0.998576 0.063933
H14_2 H 0.207754 0.997427 0.264604
C19_2 C 0.9167(8) 0.0318(4) 0.2175(6)
H15_2 H 0.840481 0.041593 0.257542
C20_2 C 0.9125(8) 0.0338(4) 0.0970(7)
H16_2 H 0.833490 0.043767 0.056144
N10 N 0.5074(7) 0.5666(3) 0.2368(7)
O9 O 0.3943(6) 0.5488(3) 0.2460(6)
O10 O 0.5481(9) 0.5834(5) 0.1430(8)
O11 O 0.5845(5) 0.5676(3) 0.3265(5)
N10_2 N 0.4926(7) 0.0666(3) 0.7632(7)
O9_2 O 0.6057(6) 0.0488(3) 0.7540(6)
O10_2 O 0.4519(9) 0.0834(5) 0.8570(8)
O11_2 O 0.4155(5) 0.0676(3) 0.6735(5)
O14 O 0.071(3) 0.384(2) 0.986(3)
O13 O 0.879(2) 0.4029(11) 0.038(2)
N11 N 0.950(2) 0.3894(11) 0.959(2)
O12 O 0.907(5) 0.377(2) 0.857(3)
N11_2 N 0.050(2) 0.8894(11) 0.041(2)
O12_2 O 0.093(5) 0.877(2) 0.143(3)
O13_2 O 0.121(2) 0.9029(11) 0.962(2)
O14_2 O 0.929(3) 0.884(2) 0.014(3)
loop_
_geom_bond_atom_site_label_1
_geom_bond_atom_site_label_2
_geom_bond_site_symmetry_1
_geom_bond_site_symmetry_2
H38 O4 1_555 1_555
Co2 N5 1_555 1_555
H11 C14 1_555 1_555
H12 C15 1_555 1_555
N5 C21 1_555 1_555
C21 H17 1_555 1_555
C22 C21 1_555 1_555
H18 C22 1_555 1_555
C23 C22 1_555 1_555
C24 C23 1_555 1_555
H19 C24 1_555 1_555
C25 N5 1_555 1_555
H20 C25 1_555 1_555
C31 C32 1_555 1_555
C32 H25 1_555 1_555
C33 C32 1_555 1_555
H26 C33 1_555 1_555
C34 C33 1_555 1_555
H27 C34 1_555 1_555
C35 C34 1_555 1_555
H28 C35 1_555 1_555
C36 C31 1_555 1_555
H29 C36 1_555 1_555
C37 C31 1_555 1_555
H30 C37 1_555 1_555
O1 Co2 1_555 1_555
H31 O1 1_555 1_555
C38 C37 1_555 1_555
O3 Co2 1_555 1_555
C39 C40 1_555 1_555
C40 H32 1_555 1_555
C41 C40 1_555 1_555
H33 C41 1_555 1_555
C42 C41 1_555 1_555
H34 C42 1_555 1_555
C43 C42 1_555 1_555
H35 C43 1_555 1_555
C44 C39 1_555 1_555
H36 C44 1_555 1_555
C45 C39 1_555 1_555
H37 C45 1_555 1_555
C46 C45 1_555 1_555
O5 C46 1_555 1_555
O6 Co2 1_555 1_555
N7 Co2 1_555 1_555
N9 Co2 1_555 1_555
C14 C15 1_555 1_555
C24 C25 1_555 1_555
C35 C36 1_555 1_555
C37 O1 1_555 1_555
C38 O2 1_555 1_555
C38 O3 1_555 1_555
C43 C44 1_555 1_555
C46 O6 1_555 1_555
O5 Co4 1_555 1_555
H15 C19 1_555 1_555
H16 C20 1_555 1_555
C27 C26 1_555 1_555
H21 C27 1_555 1_555
C28 C27 1_555 1_555
H22 C28 1_555 1_555
N9 C28 1_555 1_555
C29 N9 1_555 1_555
H23 C29 1_555 1_555
C30 C26 1_555 1_555
H24 C30 1_555 1_555
C19 C20 1_555 1_555
C29 C30 1_555 1_555
Co4 N1 1_555 1_555
N1 C1 1_555 1_555
C1 H1 1_555 1_555
C2 C1 1_555 1_555
H2 C2 1_555 1_555
C3 H3 1_555 1_555
C4 C2 1_555 1_555
C5 N1 1_555 1_555
C6 C4 1_555 1_555
C7 C6 1_555 1_555
H5 C7 1_555 1_555
C8 C7 1_555 1_555
H6 C8 1_555 1_555
C9 H7 1_555 1_555
N2 C8 1_555 1_555
C10 C6 1_555 1_555
H8 C10 1_555 1_555
C11 H9 1_555 1_555
N3 Co4 1_555 1_555
C12 C11 1_555 1_555
H10 C12 1_555 1_555
C13 C12 1_555 1_555
Co6 N2 1_555 1_555
N8 Co4 1_555 1_555
C3 C4 1_555 1_555
C3 C5 1_555 1_555
C9 N2 1_555 1_555
C9 C10 1_555 1_555
C11 N3 1_555 1_555
C17 C16 1_555 1_555
H13 C17 1_555 1_555
C18 C17 1_555 1_555
H14 C18 1_555 1_555
N8 C18 1_555 1_555
C17_2 C16_2 1_555 1_555
C18_2 C17_2 1_555 1_555
N4 C18_2 1_555 1_555
Co3 N4 1_555 1_555
Co3 N1_2 1_555 1_555
N1_2 C1_2 1_555 1_555
C1_2 H1_2 1_555 1_555
C2_2 C1_2 1_555 1_555
H2_2 C2_2 1_555 1_555
C3_2 H3_2 1_555 1_555
C4_2 C2_2 1_555 1_555
C5_2 N1_2 1_555 1_555
C6_2 C4_2 1_555 1_555
C7_2 C6_2 1_555 1_555
H5_2 C7_2 1_555 1_555
C8_2 C7_2 1_555 1_555
H6_2 C8_2 1_555 1_555
C9_2 H7_2 1_555 1_555
N7 C8_2 1_555 1_555
C10_2 C6_2 1_555 1_555
H8_2 C10_2 1_555 1_555
C11_2 H9_2 1_555 1_555
N3_2 Co3 1_555 1_555
C12_2 C11_2 1_555 1_555
H10_2 C12_2 1_555 1_555
C13_2 C12_2 1_555 1_555
C3_2 C4_2 1_555 1_555
C3_2 C5_2 1_555 1_555
C9_2 N7 1_555 1_555
C9_2 C10_2 1_555 1_555
C11_2 N3_2 1_555 1_555
H11_2 C14_2 1_555 1_555
H12_2 C15_2 1_555 1_555
C31_2 C32_2 1_555 1_555
C32_2 H25_2 1_555 1_555
C33_2 C32_2 1_555 1_555
H26_2 C33_2 1_555 1_555
C34_2 C33_2 1_555 1_555
H27_2 C34_2 1_555 1_555
C35_2 C34_2 1_555 1_555
H28_2 C35_2 1_555 1_555
C36_2 C31_2 1_555 1_555
H29_2 C36_2 1_555 1_555
C37_2 C31_2 1_555 1_555
H30_2 C37_2 1_555 1_555
H31_2 O1_2 1_555 1_555
C38_2 C37_2 1_555 1_555
C14_2 C15_2 1_555 1_555
C35_2 C36_2 1_555 1_555
C37_2 O1_2 1_555 1_555
C38_2 O2_2 1_555 1_555
C27_2 C26_2 1_555 1_555
H21_2 C27_2 1_555 1_555
C28_2 C27_2 1_555 1_555
H22_2 C28_2 1_555 1_555
N6 C28_2 1_555 1_555
C29_2 N6 1_555 1_555
H23_2 C29_2 1_555 1_555
C30_2 C26_2 1_555 1_555
H24_2 C30_2 1_555 1_555
Co6 N6 1_555 1_555
C29_2 C30_2 1_555 1_555
Co6 N5_2 1_555 1_555
N5_2 C21_2 1_555 1_555
C21_2 H17_2 1_555 1_555
C22_2 C21_2 1_555 1_555
H18_2 C22_2 1_555 1_555
C23_2 C22_2 1_555 1_555
C24_2 C23_2 1_555 1_555
H19_2 C24_2 1_555 1_555
C25_2 N5_2 1_555 1_555
H20_2 C25_2 1_555 1_555
O3_2 Co6 1_555 1_555
C39_2 C40_2 1_555 1_555
C40_2 H32_2 1_555 1_555
C41_2 C40_2 1_555 1_555
H33_2 C41_2 1_555 1_555
C42_2 C41_2 1_555 1_555
H34_2 C42_2 1_555 1_555
C43_2 C42_2 1_555 1_555
H35_2 C43_2 1_555 1_555
C44_2 C39_2 1_555 1_555
H36_2 C44_2 1_555 1_555
C45_2 C39_2 1_555 1_555
H37_2 C45_2 1_555 1_555
C46_2 C45_2 1_555 1_555
O8 C46_2 1_555 1_555
O6_2 Co6 1_555 1_555
C24_2 C25_2 1_555 1_555
C43_2 C44_2 1_555 1_555
C46_2 O6_2 1_555 1_555
H38_2 O7 1_555 1_555
H15_2 C19_2 1_555 1_555
H16_2 C20_2 1_555 1_555
C19_2 C20_2 1_555 1_555
N10 O9 1_555 1_555
O10 N10 1_555 1_555
O11 N10 1_555 1_555
N10_2 O9_2 1_555 1_555
O10_2 N10_2 1_555 1_555
O11_2 N10_2 1_555 1_555
N11 O12 1_555 1_555
N11_2 O12_2 1_555 1_555

#END
