
###############################################################################
#
# This file contains modified crystal structure data generated from the
# MOF subset of the Cambridge Structural Database (CSD) v543 
# hosted by the Cambridge Crystallographic Data Centre (CCDC).
#
# This work is licensed under the Creative Commons
# Attribution-NonCommercial-ShareAlike 4.0 International License.
# To view a copy of this license, visit
# http://creativecommons.org/licenses/by-nc-sa/4.0/
# or send a letter to
# Creative Commons, PO Box 1866, Mountain View, CA 94042, USA.
#
# CIF created using the CSD Python API on 29 September 2022
# The structure has been converted into the P1 space group
# The structure has a 3D framework
# The original CSD entry VEGRAE is in the monoclinic crystal system
# The original CSD entry VEGRAE is in a Sohncke space group
# The framework has been calculated to contain at least 10.0% void space
# The void calculation uses a probe of radius 1.32A, grid spacing 0.4
# The framework is charged, counterions have been retained in the structure
#
###############################################################################

data_VEGRAE
_chemical_formula_moiety         '(C92 H76 Co4 N16 O24)n'
_symmetry_cell_setting           triclinic
_symmetry_space_group_name_H-M   'P 1'
_symmetry_Int_Tables_number      1
_space_group_name_Hall           'P 1'
loop_
_symmetry_equiv_pos_site_id
_symmetry_equiv_pos_as_xyz
1 x,y,z
_cell_length_a                   10.1997(2)
_cell_length_b                   24.6572(6)
_cell_length_c                   11.4298(2)
_cell_angle_alpha                90
_cell_angle_beta                 92.469(2)
_cell_angle_gamma                90
_cell_volume                     2871.88
loop_
_atom_site_label
_atom_site_type_symbol
_atom_site_fract_x
_atom_site_fract_y
_atom_site_fract_z
N1 N 0.5137(11) 0.4548(5) 0.7281(10)
O1 O 0.4794(13) 0.4512(6) 0.8313(10)
O2 O 0.6262(10) 0.4600(6) 0.7046(10)
O3 O 0.4254(9) 0.4521(5) 0.6465(8)
N1_2 N 0.4863(11) 0.9548(5) 0.2719(10)
O1_2 O 0.5206(13) 0.9512(6) 0.1687(10)
O2_2 O 0.3738(10) 0.9600(6) 0.2954(10)
O3_2 O 0.5746(9) 0.9521(5) 0.3535(8)
N2 N 0.0041(15) 0.6234(7) 0.1068(12)
O5 O 0.1160(14) 0.6291(10) 0.1294(16)
O4 O 0.9208(13) 0.6240(7) 0.1865(14)
O6 O 0.9618(17) 0.6099(8) 0.0049(13)
O4_2 O 0.0792(13) 0.1240(7) 0.8135(14)
O6_2 O 0.0382(17) 0.1099(8) 0.9951(13)
N2_2 N 0.9959(15) 0.1234(7) 0.8932(12)
O5_2 O 0.8840(14) 0.1291(10) 0.8706(16)
Co1 Co 0.02809(17) 0.49999(7) 0.42687(15)
N3 N 0.1108(10) 0.4203(4) 0.4410(9)
C1 C 0.0456(12) 0.3809(5) 0.4963(13)
C2 C 0.0993(14) 0.3312(6) 0.5196(14)
H2 H 0.051755 0.304904 0.561232
C3 C 0.2242(13) 0.3193(5) 0.4821(11)
C4 C 0.2905(13) 0.3595(6) 0.4242(12)
H3 H 0.375730 0.353073 0.396877
C5 C 0.2291(12) 0.4096(5) 0.4070(11)
H4 H 0.275421 0.437348 0.368718
C6 C 0.2856(13) 0.2652(5) 0.5060(12)
C7 C 0.2064(14) 0.2204(6) 0.5168(18)
H5 H 0.113633 0.223872 0.509273
C8 C 0.2641(16) 0.1696(6) 0.5391(16)
H6 H 0.208517 0.139220 0.549435
N4 N 0.3914(10) 0.1623(4) 0.5463(9)
C9 C 0.4685(14) 0.2061(6) 0.5344(16)
H7 H 0.561037 0.201543 0.539680
C10 C 0.4175(15) 0.2575(5) 0.5149(16)
H8 H 0.474973 0.287545 0.507688
N5 N 0.0307(10) 0.4920(4) 0.2378(8)
C11 C 0.1359(13) 0.5072(6) 0.1773(10)
H9 H 0.210373 0.520887 0.220438
C12 C 0.1419(12) 0.5041(7) 0.0582(10)
H10 H 0.219767 0.514155 0.020900
Co6 Co 0.46809(17) 0.08094(7) 0.55628(15)
N10 N 0.0227(10) 0.4986(4) 0.6174(9)
O14 O 0.2155(8) 0.5334(3) 0.4412(7)
C13 C 0.0317(12) 0.4860(5) 0.9917(11)
C16 C 0.0299(13) 0.4876(5) 0.8623(11)
C17 C 0.1417(13) 0.4832(6) 0.7985(11)
H13 H 0.224079 0.476507 0.837907
C18 C 0.1345(12) 0.4883(6) 0.6788(11)
H14 H 0.212796 0.484326 0.637501
C26 C 0.5333(12) 0.5890(6) 0.0071(10)
C27 C 0.4223(14) 0.6038(6) 0.0688(12)
H21 H 0.344649 0.615410 0.027268
C28 C 0.4260(13) 0.6013(6) 0.1889(11)
H22 H 0.349352 0.611150 0.228234
N8 N 0.5329(10) 0.5856(5) 0.2541(8)
C29 C 0.6415(12) 0.5733(6) 0.1943(10)
H23 H 0.719117 0.563302 0.237895
C30 C 0.6448(13) 0.5747(6) 0.0752(12)
H24 H 0.723700 0.565769 0.038321
Co5 Co 0.53191(17) 0.58094(7) 0.44372(15)
H1 H 0.959069 0.388117 0.519881
C14 C 0.9299(13) 0.4718(6) 0.1740(11)
H11 H 0.856340 0.459033 0.214131
C15 C 0.9250(13) 0.4683(6) 0.0525(11)
H12 H 0.849642 0.453880 0.011703
N7 N 0.5313(10) 0.5850(5) 0.6317(8)
C21 C 0.4206(14) 0.5811(8) 0.6906(12)
H17 H 0.339896 0.577668 0.646510
C22 C 0.4166(15) 0.5816(8) 0.8125(12)
H18 H 0.335814 0.577223 0.849782
C23 C 0.5327(13) 0.5887(6) 0.8782(11)
C24 C 0.6481(12) 0.5956(6) 0.8170(11)
H19 H 0.729601 0.601565 0.858388
C25 C 0.6419(12) 0.5937(6) 0.6973(11)
H20 H 0.721134 0.598789 0.657904
C31 C 0.5918(12) 0.4320(5) 0.3096(11)
C32 C 0.6676(14) 0.3864(6) 0.2883(13)
H25 H 0.725080 0.372578 0.348787
C33 C 0.6605(17) 0.3607(7) 0.1804(16)
H26 H 0.714497 0.330166 0.166630
C34 C 0.5749(17) 0.3796(8) 0.0930(16)
H27 H 0.570077 0.361866 0.019224
C35 C 0.4978(17) 0.4231(6) 0.1112(13)
H28 H 0.438444 0.435617 0.050745
C36 C 0.5060(13) 0.4500(6) 0.2217(12)
H29 H 0.451885 0.480603 0.234743
C37 C 0.6066(13) 0.4609(5) 0.4250(11)
H30 H 0.615349 0.433068 0.488515
O7 O 0.4957(8) 0.4939(4) 0.4461(7)
H31 H 0.462(14) 0.488(7) 0.510(7)
C38 C 0.7323(11) 0.4968(5) 0.4299(8)
O8 O 0.8383(7) 0.4735(4) 0.4197(7)
O9 O 0.7179(8) 0.5469(4) 0.4481(7)
C39 C 0.1059(12) 0.6564(5) 0.5295(13)
C40 C 0.1539(15) 0.7083(6) 0.5248(15)
H32 H 0.189260 0.721388 0.454632
C41 C 0.1509(19) 0.7426(7) 0.625(2)
H33 H 0.182442 0.778814 0.621303
C42 C 0.102(2) 0.7228(9) 0.726(2)
H34 H 0.101965 0.745287 0.793228
C43 C 0.052(2) 0.6703(9) 0.7322(16)
H35 H 0.017446 0.656567 0.802296
C44 C 0.0539(18) 0.6387(7) 0.6307(14)
H36 H 0.017602 0.603292 0.632331
C45 C 0.1121(11) 0.6197(5) 0.4212(11)
H37 H 0.121098 0.643129 0.350514
C46 C 0.2335(11) 0.5836(5) 0.4354(8)
O12 O 0.3421(8) 0.6072(4) 0.4376(7)
N9 N 0.6086(10) 0.6623(4) 0.4537(9)
O13 O 0.9974(8) 0.5873(4) 0.4045(8)
H38 H 0.960(11) 0.595(6) 0.339(7)
O10 O 0.0026(8) 0.0873(4) 0.5955(8)
H38_2 H 0.040(11) 0.095(6) 0.661(7)
N7_2 N 0.4687(10) 0.0850(5) 0.3683(8)
C21_2 C 0.5794(14) 0.0811(8) 0.3094(12)
H17_2 H 0.660104 0.077668 0.353490
C22_2 C 0.5834(15) 0.0816(8) 0.1875(12)
H18_2 H 0.664186 0.077223 0.150218
C23_2 C 0.4673(13) 0.0887(6) 0.1218(11)
C24_2 C 0.3519(12) 0.0956(6) 0.1830(11)
H19_2 H 0.270399 0.101565 0.141612
C25_2 C 0.3581(12) 0.0937(6) 0.3027(11)
H20_2 H 0.278866 0.098789 0.342096
O9_2 O 0.2821(8) 0.0469(4) 0.5519(7)
C39_2 C 0.8941(12) 0.1564(5) 0.4705(13)
C40_2 C 0.8461(15) 0.2083(6) 0.4752(15)
H32_2 H 0.810740 0.221388 0.545368
C41_2 C 0.8491(19) 0.2426(7) 0.375(2)
H33_2 H 0.817558 0.278814 0.378697
C42_2 C 0.898(2) 0.2228(9) 0.274(2)
H34_2 H 0.898035 0.245287 0.206772
C43_2 C 0.948(2) 0.1703(9) 0.2678(16)
H35_2 H 0.982554 0.156567 0.197704
C44_2 C 0.9461(18) 0.1387(7) 0.3693(14)
H36_2 H 0.982398 0.103292 0.367669
C45_2 C 0.8879(11) 0.1197(5) 0.5788(11)
H37_2 H 0.878902 0.143129 0.649486
C46_2 C 0.7665(11) 0.0836(5) 0.5646(8)
O11 O 0.7845(8) 0.0334(3) 0.5588(7)
O12_2 O 0.6579(8) 0.1072(4) 0.5624(7)
Co3 Co 0.97191(17) -0.00001(7) 0.57313(15)
N11 N 0.4671(10) 0.0856(5) 0.7459(8)
C26_2 C 0.4667(12) 0.0890(6) 0.9929(10)
C27_2 C 0.5777(14) 0.1038(6) 0.9312(12)
H21_2 H 0.655351 0.115410 0.972732
C28_2 C 0.5740(13) 0.1013(6) 0.8111(11)
H22_2 H 0.650648 0.111150 0.771766
C29_2 C 0.3585(12) 0.0733(6) 0.8057(10)
H23_2 H 0.280883 0.063302 0.762105
C30_2 C 0.3552(13) 0.0747(6) 0.9248(12)
H24_2 H 0.276300 0.065769 0.961679
H1_2 H 0.040931 0.888117 0.480119
C14_2 C 0.0701(13) 0.9718(6) 0.8260(11)
H11_2 H 0.143660 0.959033 0.785869
C15_2 C 0.0750(13) 0.9683(6) 0.9475(11)
H12_2 H 0.150358 0.953880 0.988297
C31_2 C 0.4082(12) 0.9320(5) 0.6904(11)
C32_2 C 0.3324(14) 0.8864(6) 0.7117(13)
H25_2 H 0.274920 0.872578 0.651213
C33_2 C 0.3395(17) 0.8607(7) 0.8196(16)
H26_2 H 0.285503 0.830166 0.833370
C34_2 C 0.4251(17) 0.8796(8) 0.9070(16)
H27_2 H 0.429923 0.861866 0.980776
C35_2 C 0.5022(17) 0.9231(6) 0.8888(13)
H28_2 H 0.561556 0.935617 0.949255
C36_2 C 0.4940(13) 0.9500(6) 0.7783(12)
H29_2 H 0.548115 0.980603 0.765257
C37_2 C 0.3934(13) 0.9609(5) 0.5750(11)
H30_2 H 0.384651 0.933068 0.511485
O7_2 O 0.5043(8) 0.9939(4) 0.5539(7)
H31_2 H 0.538(14) 0.988(7) 0.490(7)
C38_2 C 0.2677(11) 0.9968(5) 0.5701(8)
O8_2 O 0.1617(7) 0.9735(4) 0.5803(7)
Co3_2 Co 0.97191(17) 0.99999(7) 0.57313(15)
C11_2 C 0.8641(13) 0.0072(6) 0.8227(10)
H9_2 H 0.789627 0.020887 0.779562
C12_2 C 0.8581(12) 0.0041(7) 0.9418(10)
H10_2 H 0.780233 0.014155 0.979100
C13_2 C 0.9683(12) 0.9860(5) 0.0083(11)
C16_2 C 0.9701(13) 0.9876(5) 0.1377(11)
C17_2 C 0.8583(13) 0.9832(6) 0.2015(11)
H13_2 H 0.775921 0.976507 0.162093
C18_2 C 0.8655(12) 0.9883(6) 0.3212(11)
H14_2 H 0.787204 0.984326 0.362499
N6 N 0.9773(10) 0.9986(4) 0.3826(9)
N3_2 N 0.8892(10) 0.9203(4) 0.5590(9)
C1_2 C 0.9544(12) 0.8809(5) 0.5037(13)
C2_2 C 0.9007(14) 0.8312(6) 0.4804(14)
H2_2 H 0.948245 0.804904 0.438768
C3_2 C 0.7758(13) 0.8193(5) 0.5179(11)
C4_2 C 0.7095(13) 0.8595(6) 0.5758(12)
H3_2 H 0.624270 0.853073 0.603123
C5_2 C 0.7709(12) 0.9096(5) 0.5930(11)
H4_2 H 0.724579 0.937348 0.631282
C6_2 C 0.7144(13) 0.7652(5) 0.4940(12)
C7_2 C 0.7936(14) 0.7204(6) 0.4832(18)
H5_2 H 0.886367 0.723872 0.490727
C8_2 C 0.7359(16) 0.6696(6) 0.4609(16)
H6_2 H 0.791483 0.639220 0.450565
C9_2 C 0.5315(14) 0.7061(6) 0.4656(16)
H7_2 H 0.438963 0.701543 0.460320
C10_2 C 0.5825(15) 0.7575(5) 0.4851(16)
H8_2 H 0.525027 0.787545 0.492312
N5_2 N 0.9693(10) 0.9920(4) 0.7622(8)
C19 C 0.9143(13) 0.5022(7) 0.6767(11)
H15 H 0.833771 0.509498 0.634864
C20 C 0.9130(12) 0.4955(6) 0.7993(11)
H16 H 0.832494 0.496487 0.838117
C19_2 C 0.0857(13) 0.0022(7) 0.3233(11)
H15_2 H 0.166229 0.009498 0.365136
C20_2 C 0.0870(12) 0.9955(6) 0.2007(11)
H16_2 H 0.167506 0.996487 0.161883
loop_
_geom_bond_atom_site_label_1
_geom_bond_atom_site_label_2
_geom_bond_site_symmetry_1
_geom_bond_site_symmetry_2
N1 O1 1_555 1_555
O2 N1 1_555 1_555
O3 N1 1_555 1_555
N1_2 O1_2 1_555 1_555
O2_2 N1_2 1_555 1_555
O3_2 N1_2 1_555 1_555
O5 N2 1_555 1_555
O5_2 N2_2 1_555 1_555
Co1 N3 1_555 1_555
N3 C1 1_555 1_555
C2 C1 1_555 1_555
H2 C2 1_555 1_555
C3 C2 1_555 1_555
C4 C3 1_555 1_555
H3 C4 1_555 1_555
C5 N3 1_555 1_555
H4 C5 1_555 1_555
C6 C3 1_555 1_555
C7 C6 1_555 1_555
H5 C7 1_555 1_555
C8 C7 1_555 1_555
H6 C8 1_555 1_555
N4 C8 1_555 1_555
C9 N4 1_555 1_555
H7 C9 1_555 1_555
C10 C6 1_555 1_555
H8 C10 1_555 1_555
N5 Co1 1_555 1_555
C11 N5 1_555 1_555
H9 C11 1_555 1_555
C12 C11 1_555 1_555
H10 C12 1_555 1_555
Co6 N4 1_555 1_555
N10 Co1 1_555 1_555
O14 Co1 1_555 1_555
C4 C5 1_555 1_555
C9 C10 1_555 1_555
C16 C13 1_555 1_555
C17 C16 1_555 1_555
H13 C17 1_555 1_555
C18 C17 1_555 1_555
H14 C18 1_555 1_555
N10 C18 1_555 1_555
C27 C26 1_555 1_555
H21 C27 1_555 1_555
C28 C27 1_555 1_555
H22 C28 1_555 1_555
N8 C28 1_555 1_555
C29 N8 1_555 1_555
H23 C29 1_555 1_555
C30 C26 1_555 1_555
H24 C30 1_555 1_555
Co5 N8 1_555 1_555
C29 C30 1_555 1_555
Co5 N7 1_555 1_555
H11 C14 1_555 1_555
H12 C15 1_555 1_555
N7 C21 1_555 1_555
C21 H17 1_555 1_555
C22 C21 1_555 1_555
H18 C22 1_555 1_555
C23 C22 1_555 1_555
C24 C23 1_555 1_555
H19 C24 1_555 1_555
C25 N7 1_555 1_555
H20 C25 1_555 1_555
C31 C32 1_555 1_555
C32 H25 1_555 1_555
C33 C32 1_555 1_555
H26 C33 1_555 1_555
C34 C33 1_555 1_555
H27 C34 1_555 1_555
C35 C34 1_555 1_555
H28 C35 1_555 1_555
C36 C31 1_555 1_555
H29 C36 1_555 1_555
C37 C31 1_555 1_555
H30 C37 1_555 1_555
O7 Co5 1_555 1_555
H31 O7 1_555 1_555
C38 C37 1_555 1_555
O9 Co5 1_555 1_555
C39 C40 1_555 1_555
C40 H32 1_555 1_555
C41 C40 1_555 1_555
H33 C41 1_555 1_555
C42 C41 1_555 1_555
H34 C42 1_555 1_555
C43 C42 1_555 1_555
H35 C43 1_555 1_555
C44 C39 1_555 1_555
H36 C44 1_555 1_555
C45 C39 1_555 1_555
H37 C45 1_555 1_555
C46 C45 1_555 1_555
O14 C46 1_555 1_555
O12 Co5 1_555 1_555
N9 Co5 1_555 1_555
C14 C15 1_555 1_555
C24 C25 1_555 1_555
C35 C36 1_555 1_555
C37 O7 1_555 1_555
C38 O8 1_555 1_555
C38 O9 1_555 1_555
C43 C44 1_555 1_555
C46 O12 1_555 1_555
H38 O13 1_555 1_555
H38_2 O10 1_555 1_555
Co6 N7_2 1_555 1_555
N7_2 C21_2 1_555 1_555
C21_2 H17_2 1_555 1_555
C22_2 C21_2 1_555 1_555
H18_2 C22_2 1_555 1_555
C23_2 C22_2 1_555 1_555
C24_2 C23_2 1_555 1_555
H19_2 C24_2 1_555 1_555
C25_2 N7_2 1_555 1_555
H20_2 C25_2 1_555 1_555
O9_2 Co6 1_555 1_555
C39_2 C40_2 1_555 1_555
C40_2 H32_2 1_555 1_555
C41_2 C40_2 1_555 1_555
H33_2 C41_2 1_555 1_555
C42_2 C41_2 1_555 1_555
H34_2 C42_2 1_555 1_555
C43_2 C42_2 1_555 1_555
H35_2 C43_2 1_555 1_555
C44_2 C39_2 1_555 1_555
H36_2 C44_2 1_555 1_555
C45_2 C39_2 1_555 1_555
H37_2 C45_2 1_555 1_555
C46_2 C45_2 1_555 1_555
O11 C46_2 1_555 1_555
O12_2 Co6 1_555 1_555
N11 Co6 1_555 1_555
C24_2 C25_2 1_555 1_555
C43_2 C44_2 1_555 1_555
C46_2 O12_2 1_555 1_555
O11 Co3 1_555 1_555
C27_2 C26_2 1_555 1_555
H21_2 C27_2 1_555 1_555
C28_2 C27_2 1_555 1_555
H22_2 C28_2 1_555 1_555
N11 C28_2 1_555 1_555
C29_2 N11 1_555 1_555
H23_2 C29_2 1_555 1_555
C30_2 C26_2 1_555 1_555
H24_2 C30_2 1_555 1_555
C29_2 C30_2 1_555 1_555
H11_2 C14_2 1_555 1_555
H12_2 C15_2 1_555 1_555
C31_2 C32_2 1_555 1_555
C32_2 H25_2 1_555 1_555
C33_2 C32_2 1_555 1_555
H26_2 C33_2 1_555 1_555
C34_2 C33_2 1_555 1_555
H27_2 C34_2 1_555 1_555
C35_2 C34_2 1_555 1_555
H28_2 C35_2 1_555 1_555
C36_2 C31_2 1_555 1_555
H29_2 C36_2 1_555 1_555
C37_2 C31_2 1_555 1_555
H30_2 C37_2 1_555 1_555
H31_2 O7_2 1_555 1_555
C38_2 C37_2 1_555 1_555
C14_2 C15_2 1_555 1_555
C35_2 C36_2 1_555 1_555
C37_2 O7_2 1_555 1_555
C38_2 O8_2 1_555 1_555
H9_2 C11_2 1_555 1_555
C12_2 C11_2 1_555 1_555
H10_2 C12_2 1_555 1_555
C16_2 C13_2 1_555 1_555
C17_2 C16_2 1_555 1_555
H13_2 C17_2 1_555 1_555
C18_2 C17_2 1_555 1_555
H14_2 C18_2 1_555 1_555
N6 C18_2 1_555 1_555
Co3_2 N6 1_555 1_555
Co3_2 N3_2 1_555 1_555
N3_2 C1_2 1_555 1_555
C2_2 C1_2 1_555 1_555
H2_2 C2_2 1_555 1_555
C3_2 C2_2 1_555 1_555
C4_2 C3_2 1_555 1_555
H3_2 C4_2 1_555 1_555
C5_2 N3_2 1_555 1_555
H4_2 C5_2 1_555 1_555
C6_2 C3_2 1_555 1_555
C7_2 C6_2 1_555 1_555
H5_2 C7_2 1_555 1_555
C8_2 C7_2 1_555 1_555
H6_2 C8_2 1_555 1_555
N9 C8_2 1_555 1_555
C9_2 N9 1_555 1_555
H7_2 C9_2 1_555 1_555
C10_2 C6_2 1_555 1_555
H8_2 C10_2 1_555 1_555
N5_2 Co3_2 1_555 1_555
C4_2 C5_2 1_555 1_555
C9_2 C10_2 1_555 1_555
H15 C19 1_555 1_555
H16 C20 1_555 1_555
C19 C20 1_555 1_555
H15_2 C19_2 1_555 1_555
H16_2 C20_2 1_555 1_555

#END
