
###############################################################################
#
# This file contains modified crystal structure data generated from the
# MOF subset of the Cambridge Structural Database (CSD) v543 
# hosted by the Cambridge Crystallographic Data Centre (CCDC).
#
# This work is licensed under the Creative Commons
# Attribution-NonCommercial-ShareAlike 4.0 International License.
# To view a copy of this license, visit
# http://creativecommons.org/licenses/by-nc-sa/4.0/
# or send a letter to
# Creative Commons, PO Box 1866, Mountain View, CA 94042, USA.
#
# CIF created using the CSD Python API on 29 September 2022
# The structure has been converted into the P1 space group
# The structure has a 3D framework
# The original CSD entry VEHKAX is in the triclinic crystal system
# The framework has been calculated to contain at least 10.0% void space
# The void calculation uses a probe of radius 1.32A, grid spacing 0.4
#
###############################################################################

data_VEHKAX
_chemical_formula_moiety         '(C40 H46 Cd2 N8 O8)n'
_symmetry_cell_setting           triclinic
_symmetry_space_group_name_H-M   'P 1'
_symmetry_Int_Tables_number      1
_space_group_name_Hall           'P 1'
loop_
_symmetry_equiv_pos_site_id
_symmetry_equiv_pos_as_xyz
1 x,y,z
_cell_length_a                   9.3143(3)
_cell_length_b                   10.0568(5)
_cell_length_c                   14.4571(6)
_cell_angle_alpha                107.235(4)
_cell_angle_beta                 91.298(3)
_cell_angle_gamma                116.799(4)
_cell_volume                     1134.94
loop_
_atom_site_label
_atom_site_type_symbol
_atom_site_fract_x
_atom_site_fract_y
_atom_site_fract_z
_atom_site_U_iso_or_equiv
_atom_site_thermal_displace_type
N7 N 0.6608(3) 0.2417(3) 0.46542(18) 0.0385 Uani
N8 N 0.5743(3) 0.0730(3) 0.31451(19) 0.0426 Uani
C35 C 0.7019(4) 0.1971(4) 0.3806(2) 0.0429 Uani
H36 H 0.8071 0.2458 0.3677 0.0510 Uiso
C36 C 0.4966(4) 0.1414(4) 0.4525(2) 0.0480 Uani
H37 H 0.4323 0.1449 0.5005 0.0580 Uiso
C37 C 0.4421(4) 0.0366(4) 0.3593(3) 0.0522 Uani
H39 H 0.6810 -0.0000 0.2065 0.0650 Uiso
C39 C 0.5363(5) 0.0643(4) 0.1432(2) 0.0520 Uani
H41 H 0.4337 0.0651 0.1519 0.0620 Uiso
H42 H 0.6216 0.1731 0.1590 0.0620 Uiso
Cd7 Cd 0.82399(2) 0.43952(2) 0.60573(2) 0.0274 Uani
Cd1 Cd 0.17601(2) 0.56048(2) 0.39427(2) 0.0274 Uani
O1 O 0.1785(3) 0.6653(3) 0.26337(14) 0.0397 Uani
O2 O 0.0121(3) 0.4106(3) 0.22876(16) 0.0480 Uani
C1 C 0.0793(3) 0.5308(4) 0.20432(19) 0.0327 Uani
C2 C 0.0379(3) 0.5148(3) 0.09798(18) 0.0293 Uani
C3 C 0.0960(3) 0.6475(3) 0.0696(2) 0.0352 Uani
H1 H 0.1613 0.7475 0.1164 0.0420 Uiso
O3 O 0.1064(3) 0.3307(3) 0.41394(17) 0.0443 Uani
O4 O 0.0410(2) 0.3990(2) 0.56045(17) 0.0370 Uani
C5 C 0.0608(3) 0.3044(3) 0.4902(2) 0.0304 Uani
C6 C 0.0298(3) 0.1467(3) 0.4957(2) 0.0278 Uani
C7 C 0.0651(4) 0.0459(3) 0.4234(2) 0.0396 Uani
H3 H 0.1086 0.0763 0.3712 0.0470 Uiso
N1 N 0.4052(3) 0.5474(3) 0.3414(2) 0.0428 Uani
N2 N 0.6212(3) 0.5969(4) 0.2710(2) 0.0545 Uani
C9 C 0.4971(4) 0.6284(5) 0.2897(3) 0.0496 Uani
H5 H 0.4786 0.6990 0.2685 0.0590 Uiso
C10 C 0.4751(5) 0.4595(5) 0.3570(3) 0.0563 Uani
H6 H 0.4371 0.3910 0.3927 0.0670 Uiso
C11 C 0.6049(5) 0.4869(5) 0.3137(3) 0.0636 Uani
H7 H 0.6718 0.4405 0.3125 0.0770 Uiso
C12 C 0.7379(5) 0.6561(7) 0.2072(3) 0.0783 Uani
H8 H 0.8405 0.6619 0.2290 0.0930 Uiso
H9 H 0.7594 0.7625 0.2135 0.0930 Uiso
C13 C 0.6741(6) 0.5512(7) 0.1006(3) 0.0840 Uani
H10 H 0.7608 0.5863 0.0634 0.1010 Uiso
H11 H 0.6460 0.4436 0.0955 0.1010 Uiso
C14 C 0.5273(5) 0.5500(7) 0.0547(3) 0.0756 Uani
H12 H 0.5530 0.6580 0.0627 0.0900 Uiso
H13 H 0.4379 0.5084 0.0889 0.0900 Uiso
N3 N 0.3392(3) 0.7583(3) 0.53458(18) 0.0385 Uani
N4 N 0.4257(3) 0.9270(3) 0.68549(19) 0.0426 Uani
C15 C 0.2981(4) 0.8029(4) 0.6194(2) 0.0429 Uani
H14 H 0.1929 0.7542 0.6323 0.0510 Uiso
C16 C 0.5034(4) 0.8586(4) 0.5475(2) 0.0480 Uani
H15 H 0.5677 0.8551 0.4995 0.0580 Uiso
C17 C 0.5579(4) 0.9634(4) 0.6407(3) 0.0522 Uani
H17 H 0.3190 1.0000 0.7935 0.0650 Uiso
C19 C 0.4637(5) 0.9357(4) 0.8568(2) 0.0520 Uani
H19 H 0.5663 0.9349 0.8481 0.0620 Uiso
H20 H 0.3784 0.8269 0.8410 0.0620 Uiso
C24 C 0.0586(3) 0.6339(3) 0.9736(2) 0.0359 Uani
H24 H 0.0980 0.7244 0.9562 0.0430 Uiso
N5 N 0.5948(3) 0.4526(3) 0.6586(2) 0.0428 Uani
N6 N 0.3788(3) 0.4031(4) 0.7290(2) 0.0545 Uani
C29 C 0.5029(4) 0.3716(5) 0.7103(3) 0.0496 Uani
H27 H 0.5214 0.3010 0.7315 0.0590 Uiso
C30 C 0.5249(5) 0.5405(5) 0.6430(3) 0.0563 Uani
H28 H 0.5629 0.6090 0.6073 0.0670 Uiso
C31 C 0.3951(5) 0.5131(5) 0.6863(3) 0.0636 Uani
H29 H 0.3282 0.5595 0.6875 0.0770 Uiso
C32 C 0.2621(5) 0.3439(7) 0.7928(3) 0.0783 Uani
H30 H 0.1595 0.3381 0.7710 0.0930 Uiso
H31 H 0.2406 0.2375 0.7865 0.0930 Uiso
C33 C 0.3259(6) 0.4488(7) 0.8994(3) 0.0840 Uani
H32 H 0.2392 0.4137 0.9366 0.1010 Uiso
H33 H 0.3540 0.5564 0.9045 0.1010 Uiso
C34 C 0.4727(5) 0.4500(7) 0.9453(3) 0.0756 Uani
H34 H 0.4470 0.3420 0.9373 0.0900 Uiso
H35 H 0.5621 0.4916 0.9111 0.0900 Uiso
C28 C 0.0368(4) 0.9009(3) 0.4276(2) 0.0377 Uani
H26 H 0.0623 0.8350 0.3789 0.0450 Uiso
C4 C 0.9414(3) 0.3661(3) 0.0264(2) 0.0359 Uani
H2 H 0.9020 0.2756 0.0438 0.0430 Uiso
C8 C 0.9632(4) 0.0991(3) 0.5724(2) 0.0377 Uani
H4 H 0.9377 0.1650 0.6211 0.0450 Uiso
O12 O 0.9590(2) 0.6010(2) 0.43955(17) 0.0370 Uani
O5 O 0.8215(3) 0.3347(3) 0.73663(14) 0.0397 Uani
O6 O 0.9879(3) 0.5894(3) 0.77124(16) 0.0480 Uani
C21 C 0.9207(3) 0.4692(4) 0.79568(19) 0.0327 Uani
C22 C 0.9621(3) 0.4852(3) 0.90202(18) 0.0293 Uani
C23 C 0.9040(3) 0.3525(3) 0.9304(2) 0.0352 Uani
H23 H 0.8387 0.2525 0.8836 0.0420 Uiso
O7 O 0.8936(3) 0.6693(3) 0.58606(17) 0.0443 Uani
C25 C 0.9392(3) 0.6956(3) 0.5098(2) 0.0304 Uani
C26 C 0.9702(3) 0.8533(3) 0.5043(2) 0.0278 Uani
C27 C 0.9349(4) 0.9541(3) 0.5766(2) 0.0396 Uani
H25 H 0.8914 0.9237 0.6288 0.0470 Uiso
H16 H 0.6643 0.0440 0.6684 0.0630 Uiso
C18 C 0.4255(5) 0.0068(5) 0.7881(2) 0.0536 Uani
H17_2 H 0.3190 -0.0000 0.7935 0.0650 Uiso
H18 H 0.5059 0.1182 0.8079 0.0650 Uiso
C20 C 0.4762(5) 0.0299(4) 0.9636(2) 0.0522 Uani
H21 H 0.5565 0.1400 0.9774 0.0630 Uiso
H22 H 0.3715 0.0257 0.9723 0.0630 Uiso
H38 H 0.3357 0.9560 0.3316 0.0630 Uiso
C38 C 0.5745(5) 0.9932(5) 0.2119(2) 0.0536 Uani
H39_2 H 0.6810 1.0000 0.2065 0.0650 Uiso
H40 H 0.4941 0.8818 0.1921 0.0650 Uiso
C40 C 0.5238(5) 0.9701(4) 0.0364(2) 0.0522 Uani
H43 H 0.4435 0.8600 0.0226 0.0630 Uiso
H44 H 0.6285 0.9743 0.0277 0.0630 Uiso
loop_
_atom_site_aniso_label
_atom_site_aniso_U_11
_atom_site_aniso_U_22
_atom_site_aniso_U_33
_atom_site_aniso_U_23
_atom_site_aniso_U_13
_atom_site_aniso_U_12
N7 0.0387 0.0407 0.027 0.0088 -0.0002 0.0137
N8 0.0482 0.0429 0.0273 0.0051 -0.0045 0.0189
C35 0.0357 0.0518 0.0291 0.0077 0.0002 0.0152
C36 0.0395 0.0501 0.0379 0.0135 0.0062 0.0091
C37 0.0413 0.049 0.0396 0.0084 0.0018 0.0044
C39 0.067 0.052 0.0293 0.0085 0.0041 0.0258
Cd7 0.03534 0.02601 0.02116 0.00987 0.00263 0.01392
Cd1 0.03534 0.02601 0.02116 0.00987 0.00263 0.01392
O1 0.0501 0.0422 0.0223 0.0078 -0.0035 0.0208
O2 0.0683 0.0451 0.0274 0.0176 0.0023 0.0217
C1 0.0412 0.0443 0.0215 0.0129 0.0052 0.0269
C2 0.033 0.0375 0.0192 0.0101 0.0032 0.0183
C3 0.0407 0.0291 0.0258 0.0068 -0.0017 0.0105
O3 0.064 0.0364 0.0452 0.0268 0.0176 0.0263
O4 0.0386 0.0288 0.0467 0.0109 0.0053 0.0201
C5 0.0287 0.0291 0.037 0.0165 0.0025 0.0139
C6 0.0321 0.025 0.0312 0.0141 0.0077 0.0148
C7 0.0599 0.0358 0.0386 0.0232 0.0265 0.0285
N1 0.0488 0.0516 0.0398 0.0197 0.0116 0.031
N2 0.0445 0.078 0.0433 0.0095 0.0076 0.0381
C9 0.0571 0.065 0.0478 0.0254 0.0213 0.0423
C10 0.067 0.059 0.055 0.0201 0.0014 0.0403
C11 0.065 0.08 0.058 0.008 -0.0053 0.055
C12 0.0409 0.12 0.06 0.016 0.0162 0.036
C13 0.066 0.137 0.054 0.017 0.021 0.062
C14 0.062 0.11 0.054 0.017 0.019 0.047
N3 0.0387 0.0407 0.027 0.0088 -0.0002 0.0137
N4 0.0482 0.0429 0.0273 0.0051 -0.0045 0.0189
C15 0.0357 0.0518 0.0291 0.0077 0.0002 0.0152
C16 0.0395 0.0501 0.0379 0.0135 0.0062 0.0091
C17 0.0413 0.049 0.0396 0.0084 0.0018 0.0044
C19 0.067 0.052 0.0293 0.0085 0.0041 0.0258
C24 0.0451 0.0329 0.0262 0.0136 0.0013 0.014
N5 0.0488 0.0516 0.0398 0.0197 0.0116 0.031
N6 0.0445 0.078 0.0433 0.0095 0.0076 0.0381
C29 0.0571 0.065 0.0478 0.0254 0.0213 0.0423
C30 0.067 0.059 0.055 0.0201 0.0014 0.0403
C31 0.065 0.08 0.058 0.008 -0.0053 0.055
C32 0.0409 0.12 0.06 0.016 0.0162 0.036
C33 0.066 0.137 0.054 0.017 0.021 0.062
C34 0.062 0.11 0.054 0.017 0.019 0.047
C28 0.0556 0.0352 0.0363 0.0184 0.0223 0.0287
C4 0.0451 0.0329 0.0262 0.0136 0.0013 0.014
C8 0.0556 0.0352 0.0363 0.0184 0.0223 0.0287
O12 0.0386 0.0288 0.0467 0.0109 0.0053 0.0201
O5 0.0501 0.0422 0.0223 0.0078 -0.0035 0.0208
O6 0.0683 0.0451 0.0274 0.0176 0.0023 0.0217
C21 0.0412 0.0443 0.0215 0.0129 0.0052 0.0269
C22 0.033 0.0375 0.0192 0.0101 0.0032 0.0183
C23 0.0407 0.0291 0.0258 0.0068 -0.0017 0.0105
O7 0.064 0.0364 0.0452 0.0268 0.0176 0.0263
C25 0.0287 0.0291 0.037 0.0165 0.0025 0.0139
C26 0.0321 0.025 0.0312 0.0141 0.0077 0.0148
C27 0.0599 0.0358 0.0386 0.0232 0.0265 0.0285
C18 0.068 0.057 0.0296 0.0028 -0.0006 0.0327
C20 0.064 0.049 0.0326 0.0088 0.0051 0.0214
C38 0.068 0.057 0.0296 0.0028 -0.0006 0.0327
C40 0.064 0.049 0.0326 0.0088 0.0051 0.0214
loop_
_geom_bond_atom_site_label_1
_geom_bond_atom_site_label_2
_geom_bond_site_symmetry_1
_geom_bond_site_symmetry_2
N7 C35 1_555 1_555
N8 C35 1_555 1_555
C35 H36 1_555 1_555
C36 N7 1_555 1_555
H37 C36 1_555 1_555
C37 N8 1_555 1_555
H41 C39 1_555 1_555
H42 C39 1_555 1_555
Cd7 N7 1_555 1_555
C36 C37 1_555 1_555
Cd1 O1 1_555 1_555
O1 C1 1_555 1_555
O2 Cd1 1_555 1_555
C1 O2 1_555 1_555
C2 C1 1_555 1_555
C3 C2 1_555 1_555
H1 C3 1_555 1_555
O3 Cd1 1_555 1_555
O4 C5 1_555 1_555
C5 O3 1_555 1_555
C6 C5 1_555 1_555
C7 C6 1_555 1_555
H3 C7 1_555 1_555
N1 Cd1 1_555 1_555
N2 C9 1_555 1_555
C9 N1 1_555 1_555
H5 C9 1_555 1_555
C10 N1 1_555 1_555
H6 C10 1_555 1_555
C11 N2 1_555 1_555
H7 C11 1_555 1_555
C12 N2 1_555 1_555
H8 C12 1_555 1_555
H9 C12 1_555 1_555
C13 C12 1_555 1_555
H10 C13 1_555 1_555
H11 C13 1_555 1_555
C14 C13 1_555 1_555
H12 C14 1_555 1_555
H13 C14 1_555 1_555
N3 Cd1 1_555 1_555
N4 C15 1_555 1_555
C15 N3 1_555 1_555
H14 C15 1_555 1_555
C16 N3 1_555 1_555
H15 C16 1_555 1_555
C17 N4 1_555 1_555
H19 C19 1_555 1_555
H20 C19 1_555 1_555
C10 C11 1_555 1_555
C16 C17 1_555 1_555
H24 C24 1_555 1_555
N5 C29 1_555 1_555
N6 C29 1_555 1_555
C29 H27 1_555 1_555
C30 N5 1_555 1_555
H28 C30 1_555 1_555
C31 N6 1_555 1_555
H29 C31 1_555 1_555
C32 N6 1_555 1_555
H30 C32 1_555 1_555
H31 C32 1_555 1_555
C33 C32 1_555 1_555
H32 C33 1_555 1_555
H33 C33 1_555 1_555
H34 C34 1_555 1_555
H35 C34 1_555 1_555
Cd7 N5 1_555 1_555
C30 C31 1_555 1_555
C33 C34 1_555 1_555
H26 C28 1_555 1_555
H2 C4 1_555 1_555
H4 C8 1_555 1_555
O5 C21 1_555 1_555
O6 C21 1_555 1_555
C21 C22 1_555 1_555
C22 C23 1_555 1_555
H23 C23 1_555 1_555
Cd7 O5 1_555 1_555
O6 Cd7 1_555 1_555
O7 C25 1_555 1_555
O12 C25 1_555 1_555
C25 C26 1_555 1_555
C26 C27 1_555 1_555
H25 C27 1_555 1_555
Cd7 O7 1_555 1_555
H17_2 C18 1_555 1_555
H18 C18 1_555 1_555
H21 C20 1_555 1_555
H22 C20 1_555 1_555
H39_2 C38 1_555 1_555
H40 C38 1_555 1_555
H43 C40 1_555 1_555
H44 C40 1_555 1_555

#END
