
###############################################################################
#
# This file contains modified crystal structure data generated from the
# MOF subset of the Cambridge Structural Database (CSD) v543 
# hosted by the Cambridge Crystallographic Data Centre (CCDC).
#
# This work is licensed under the Creative Commons
# Attribution-NonCommercial-ShareAlike 4.0 International License.
# To view a copy of this license, visit
# http://creativecommons.org/licenses/by-nc-sa/4.0/
# or send a letter to
# Creative Commons, PO Box 1866, Mountain View, CA 94042, USA.
#
# CIF created using the CSD Python API on 29 September 2022
# The structure has been converted into the P1 space group
# The structure has a 3D framework
# The original CSD entry VEHPUU is in the monoclinic crystal system
# The framework has been calculated to contain at least 10.0% void space
# The void calculation uses a probe of radius 1.32A, grid spacing 0.4
#
###############################################################################

data_VEHPUU
_chemical_formula_moiety         '(C48 H28 Cu4 N12 O12)n'
_symmetry_cell_setting           triclinic
_symmetry_space_group_name_H-M   'P 1'
_symmetry_Int_Tables_number      1
_space_group_name_Hall           'P 1'
loop_
_symmetry_equiv_pos_site_id
_symmetry_equiv_pos_as_xyz
1 x,y,z
_cell_length_a                   4.7109(5)
_cell_length_b                   31.858(3)
_cell_length_c                   11.002(1)
_cell_angle_alpha                90
_cell_angle_beta                 96.008(8)
_cell_angle_gamma                90
_cell_volume                     1642.11
loop_
_atom_site_label
_atom_site_type_symbol
_atom_site_fract_x
_atom_site_fract_y
_atom_site_fract_z
_atom_site_U_iso_or_equiv
_atom_site_thermal_displace_type
Cu3 Cu 0.499(2) 0.3042(2) 0.0890(6) 0.0041 Uiso
O3 O 0.29181 0.28265 0.99211 0.0152 Uiso
C7 C 0.0317 0.2916 0.9428 0.0152 Uiso
O4 O 0.89418 0.30276 0.01101 0.0152 Uiso
Cu1 Cu 0.499(2) 0.1958(2) 0.5890(6) 0.0041 Uiso
O1 O 0.68515 0.17704 0.75584 0.0152 Uiso
O2 O 0.98073 0.1997 0.93007 0.0152 Uiso
N1 N 0.5605 0.2519 0.666 0.0152 Uiso
N2 N 0.7767 0.3257 0.7736 0.0152 Uiso
N3 N 0.3983 0.1361 0.5754 0.0152 Uiso
C1 C 0.11732 0.00659 0.51945 0.0152 Uiso
C2 C 0.7835 0.2053 0.823 0.0152 Uiso
C3 C 0.7326 0.2507 0.7706 0.0152 Uiso
C4 C 0.4905 0.2902 0.6133 0.0152 Uiso
C5 C 0.6025 0.3267 0.6714 0.0152 Uiso
C6 C 0.8448 0.2879 0.8247 0.0152 Uiso
C8 C 0.2511 0.1162 0.6628 0.0152 Uiso
C9 C 0.4477 0.115 0.4685 0.0152 Uiso
C10 C 0.35 0.074 0.449 0.0152 Uiso
C11 C 0.1534 0.0752 0.6432 0.0152 Uiso
C12 C 0.2029 0.0541 0.5363 0.0152 Uiso
H1 H 0.3687 0.2919 0.539 0.0152 Uiso
H2 H 0.5511 0.3532 0.6359 0.0152 Uiso
H4 H 0.5479 0.1286 0.4091 0.0152 Uiso
H5 H 0.3837 0.0596 0.3762 0.0152 Uiso
H6 H 0.2175 0.1306 0.7356 0.0152 Uiso
H7 H 0.0532 0.0616 0.7027 0.0152 Uiso
O7 O 0.29181 0.21735 0.49211 0.0152 Uiso
O10 O 0.89418 0.19724 0.51101 0.0152 Uiso
C19 C 0.0317 0.2084 0.4428 0.0152 Uiso
H3 H 0.2667 0.987 0.5394 0.0152 Uiso
O5 O 0.68515 0.32296 0.25584 0.0152 Uiso
O6 O 0.98073 0.3003 0.43007 0.0152 Uiso
N4 N 0.5605 0.2481 0.166 0.0152 Uiso
N5 N 0.7767 0.1743 0.2736 0.0152 Uiso
N7 N 0.3983 0.3639 0.0754 0.0152 Uiso
C14 C 0.7835 0.2947 0.323 0.0152 Uiso
C15 C 0.7326 0.2493 0.2706 0.0152 Uiso
C16 C 0.4905 0.2098 0.1133 0.0152 Uiso
C17 C 0.6025 0.1733 0.1714 0.0152 Uiso
C18 C 0.8448 0.2121 0.3247 0.0152 Uiso
H8 H 0.3687 0.2081 0.039 0.0152 Uiso
H9 H 0.5511 0.1468 0.1359 0.0152 Uiso
H10 H 0.7333 0.013 0.4606 0.0152 Uiso
Cu5 Cu 0.501(2) 0.8042(2) 0.4110(6) 0.0041 Uiso
N6 N 0.6017 0.8639 0.4246 0.0152 Uiso
C13 C 0.88268 0.99341 0.48055 0.0152 Uiso
C20 C 0.7489 0.8838 0.3372 0.0152 Uiso
C21 C 0.5523 0.885 0.5315 0.0152 Uiso
C22 C 0.65 0.926 0.551 0.0152 Uiso
C23 C 0.8466 0.9248 0.3568 0.0152 Uiso
C24 C 0.7971 0.9459 0.4637 0.0152 Uiso
H11 H 0.4521 0.8714 0.5909 0.0152 Uiso
H12 H 0.6163 0.9404 0.6238 0.0152 Uiso
H13 H 0.7825 0.8694 0.2644 0.0152 Uiso
H14 H 0.9468 0.9384 0.2973 0.0152 Uiso
O5_2 O 0.31485 0.82296 0.24416 0.0152 Uiso
O6_2 O 0.01927 0.8003 0.06993 0.0152 Uiso
O8 O 0.70819 0.78265 0.50789 0.0152 Uiso
O11 O 0.10582 0.80276 0.48899 0.0152 Uiso
N4_2 N 0.4395 0.7481 0.334 0.0152 Uiso
N5_2 N 0.2233 0.6743 0.2264 0.0152 Uiso
C13_2 C 0.11732 0.49341 0.01945 0.0152 Uiso
C14_2 C 0.2165 0.7947 0.177 0.0152 Uiso
C15_2 C 0.2674 0.7493 0.2294 0.0152 Uiso
C16_2 C 0.5095 0.7098 0.3867 0.0152 Uiso
C17_2 C 0.3975 0.6733 0.3286 0.0152 Uiso
C18_2 C 0.1552 0.7121 0.1753 0.0152 Uiso
C20_2 C 0.2511 0.3838 0.1628 0.0152 Uiso
C23_2 C 0.1534 0.4248 0.1432 0.0152 Uiso
C24_2 C 0.2029 0.4459 0.0363 0.0152 Uiso
H8_2 H 0.6313 0.7081 0.461 0.0152 Uiso
H9_2 H 0.4489 0.6468 0.3641 0.0152 Uiso
H10_2 H 0.2667 0.513 0.0394 0.0152 Uiso
H13_2 H 0.2175 0.3694 0.2356 0.0152 Uiso
H14_2 H 0.0532 0.4384 0.2027 0.0152 Uiso
Cu6 Cu 0.501(2) 0.6958(2) 0.9110(6) 0.0041 Uiso
O9 O 0.10582 0.69724 0.98899 0.0152 Uiso
C21_2 C 0.4477 0.385 0.9685 0.0152 Uiso
C22_2 C 0.35 0.426 0.949 0.0152 Uiso
H11_2 H 0.5479 0.3714 0.9091 0.0152 Uiso
H12_2 H 0.3837 0.4404 0.8762 0.0152 Uiso
C9_2 C 0.5523 0.615 0.0315 0.0152 Uiso
C10_2 C 0.65 0.574 0.051 0.0152 Uiso
H4_2 H 0.4521 0.6286 0.0909 0.0152 Uiso
H5_2 H 0.6163 0.5596 0.1238 0.0152 Uiso
O7_2 O 0.70819 0.71735 0.00789 0.0152 Uiso
C19_2 C 0.9683 0.7084 0.0572 0.0152 Uiso
O1_2 O 0.31485 0.67704 0.74416 0.0152 Uiso
O2_2 O 0.01927 0.6997 0.56993 0.0152 Uiso
N1_2 N 0.4395 0.7519 0.834 0.0152 Uiso
N2_2 N 0.2233 0.8257 0.7264 0.0152 Uiso
N3_2 N 0.6017 0.6361 0.9246 0.0152 Uiso
C1_2 C 0.88268 0.50659 0.98055 0.0152 Uiso
C2_2 C 0.2165 0.7053 0.677 0.0152 Uiso
C3_2 C 0.2674 0.7507 0.7294 0.0152 Uiso
C4_2 C 0.5095 0.7902 0.8867 0.0152 Uiso
C5_2 C 0.3975 0.8267 0.8286 0.0152 Uiso
C6_2 C 0.1552 0.7879 0.6753 0.0152 Uiso
C8_2 C 0.7489 0.6162 0.8372 0.0152 Uiso
C11_2 C 0.8466 0.5752 0.8568 0.0152 Uiso
C12_2 C 0.7971 0.5541 0.9637 0.0152 Uiso
H1_2 H 0.6313 0.7919 0.961 0.0152 Uiso
H2_2 H 0.4489 0.8532 0.8641 0.0152 Uiso
H3_2 H 0.7333 0.487 0.9606 0.0152 Uiso
H6_2 H 0.7825 0.6306 0.7644 0.0152 Uiso
H7_2 H 0.9468 0.5616 0.7973 0.0152 Uiso
C7_2 C 0.9683 0.7916 0.5572 0.0152 Uiso
loop_
_geom_bond_atom_site_label_1
_geom_bond_atom_site_label_2
_geom_bond_site_symmetry_1
_geom_bond_site_symmetry_2
O3 C7 1_555 1_555
Cu3 O4 1_555 1_555
Cu1 O1 1_555 1_555
O1 C2 1_555 1_555
O2 C2 1_555 1_555
N1 Cu1 1_555 1_555
N2 C5 1_555 1_555
N3 Cu1 1_555 1_555
C1 C12 1_555 1_555
C2 C3 1_555 1_555
C3 N1 1_555 1_555
C4 N1 1_555 1_555
C5 C4 1_555 1_555
C6 N2 1_555 1_555
C8 N3 1_555 1_555
C9 N3 1_555 1_555
C10 C9 1_555 1_555
C11 C8 1_555 1_555
C12 C10 1_555 1_555
H1 C4 1_555 1_555
H2 C5 1_555 1_555
H4 C9 1_555 1_555
H5 C10 1_555 1_555
H6 C8 1_555 1_555
H7 C11 1_555 1_555
O7 Cu1 1_555 1_555
O10 Cu1 1_555 1_555
C19 O7 1_555 1_555
C3 C6 1_555 1_555
C11 C12 1_555 1_555
Cu3 O5 1_555 1_555
O5 C14 1_555 1_555
O6 C14 1_555 1_555
N4 Cu3 1_555 1_555
N5 C17 1_555 1_555
N7 Cu3 1_555 1_555
C14 C15 1_555 1_555
C15 N4 1_555 1_555
C16 N4 1_555 1_555
C17 C16 1_555 1_555
C18 N5 1_555 1_555
H8 C16 1_555 1_555
H9 C17 1_555 1_555
C15 C18 1_555 1_555
Cu5 N6 1_555 1_555
N6 C20 1_555 1_555
C20 C23 1_555 1_555
C21 N6 1_555 1_555
C22 C21 1_555 1_555
C23 C24 1_555 1_555
C24 C13 1_555 1_555
H11 C21 1_555 1_555
H12 C22 1_555 1_555
H13 C20 1_555 1_555
H14 C23 1_555 1_555
C22 C24 1_555 1_555
Cu5 O5_2 1_555 1_555
O5_2 C14_2 1_555 1_555
O6_2 C14_2 1_555 1_555
O8 Cu5 1_555 1_555
O11 Cu5 1_555 1_555
N4_2 Cu5 1_555 1_555
N5_2 C17_2 1_555 1_555
N7 C20_2 1_555 1_555
C14_2 C15_2 1_555 1_555
C15_2 N4_2 1_555 1_555
C16_2 N4_2 1_555 1_555
C17_2 C16_2 1_555 1_555
C18_2 N5_2 1_555 1_555
C20_2 C23_2 1_555 1_555
C23_2 C24_2 1_555 1_555
C24_2 C13_2 1_555 1_555
H8_2 C16_2 1_555 1_555
H9_2 C17_2 1_555 1_555
H10_2 C13_2 1_555 1_555
H13_2 C20_2 1_555 1_555
H14_2 C23_2 1_555 1_555
C15_2 C18_2 1_555 1_555
Cu6 O9 1_555 1_555
C22_2 C21_2 1_555 1_555
H11_2 C21_2 1_555 1_555
H12_2 C22_2 1_555 1_555
C10_2 C9_2 1_555 1_555
H4_2 C9_2 1_555 1_555
H5_2 C10_2 1_555 1_555
C19_2 O7_2 1_555 1_555
Cu6 O1_2 1_555 1_555
O1_2 C2_2 1_555 1_555
O2_2 C2_2 1_555 1_555
N1_2 Cu6 1_555 1_555
N2_2 C5_2 1_555 1_555
N3_2 Cu6 1_555 1_555
C1_2 C12_2 1_555 1_555
C2_2 C3_2 1_555 1_555
C3_2 N1_2 1_555 1_555
C4_2 N1_2 1_555 1_555
C5_2 C4_2 1_555 1_555
C6_2 N2_2 1_555 1_555
C8_2 N3_2 1_555 1_555
C11_2 C8_2 1_555 1_555
H1_2 C4_2 1_555 1_555
H2_2 C5_2 1_555 1_555
H3_2 C1_2 1_555 1_555
H6_2 C8_2 1_555 1_555
H7_2 C11_2 1_555 1_555
C3_2 C6_2 1_555 1_555
C11_2 C12_2 1_555 1_555
O8 C7_2 1_555 1_555

#END
