####################################################################### 
# 
# This file contains crystal structure data downloaded from the 
# Cambridge Structural Database (CSD) hosted by the Cambridge 
# Crystallographic Data Centre (CCDC).
# 
# Full information about CCDC data access policies and citation 
# guidelines are available at http://www.ccdc.cam.ac.uk/access/V1 
# 
# Audit and citation data items may have been added by the CCDC. 
# Please retain this information to preserve the provenance of 
# this file and to allow appropriate attribution of the data. 
# 
#######################################################################

data_RIETAN_phase_1
_audit_block_doi                 10.5517/cc9xx25
_database_code_depnum_ccdc_archive 'CCDC 295897'
loop_
_citation_id
_citation_doi
_citation_year
1 10.1002/anie.200600333 2006
_audit_update_record             
;
2006-01-23 deposited with the CCDC.	2024-07-13 downloaded from the CCDC.
;

_pd_block_id                     
2003-04-15|PHASE_01|..creator_name..|..instr_name..

_pd_phase_name                   dpe
_cell_length_a                   4.7109(5)
_cell_length_b                   31.858(3)
_cell_length_c                   11.002(1)
_cell_angle_alpha                90.0
_cell_angle_beta                 96.008(8)
_cell_angle_gamma                90.0
_cell_volume                     1642.0(3)
_cell_formula_units_Z            4
_symmetry_cell_setting           monoclinic
_symmetry_space_group_name_H-M   'P 21/c'
_symmetry_Int_Tables_number      14

loop_
_symmetry_equiv_pos_site_id
_symmetry_equiv_pos_as_xyz
1 x,y,z
2 -x,y+1/2,-z+1/2
3 -x,-y,-z
4 x,-y+1/2,z+1/2

loop_
_atom_site_label
_atom_site_symmetry_multiplicity
_atom_site_occupancy
_atom_site_fract_x
_atom_site_fract_y
_atom_site_fract_z
_atom_site_thermal_displace_type
_atom_site_B_iso_or_equiv
_atom_site_type_symbol
Cu1 4 1.0 0.499(2) 0.1958(2) 0.5890(6) Biso 0.327 Cu
O1 4 1.0 0.68515 0.17704 0.75584 Biso 1.2 O
O2 4 1.0 0.98073 0.1997 0.93007 Biso 1.2 O
O3 4 1.0 1.29181 0.28265 0.99211 Biso 1.2 O
O4 4 1.0 0.89418 0.30276 1.01101 Biso 1.2 O
N1 4 1.0 0.5605 0.2519 0.666 Biso 1.2 N
N2 4 1.0 0.7767 0.3257 0.7736 Biso 1.2 N
N3 4 1.0 0.3983 0.1361 0.5754 Biso 1.2 N
C12 4 1.0 0.11732 0.00659 0.51945 Biso 1.2 C
C1 4 1.0 0.7835 0.2053 0.823 Biso 1.2 C
C2 4 1.0 0.7326 0.2507 0.7706 Biso 1.2 C
C3 4 1.0 0.4905 0.2902 0.6133 Biso 1.2 C
C4 4 1.0 0.6025 0.3267 0.6714 Biso 1.2 C
C5 4 1.0 0.8448 0.2879 0.8247 Biso 1.2 C
C6 4 1.0 1.0317 0.2916 0.9428 Biso 1.2 C
C7 4 1.0 0.2511 0.1162 0.6628 Biso 1.2 C
C8 4 1.0 0.4477 0.115 0.4685 Biso 1.2 C
C9 4 1.0 0.35 0.074 0.449 Biso 1.2 C
C10 4 1.0 0.1534 0.0752 0.6432 Biso 1.2 C
C11 4 1.0 0.2029 0.0541 0.5363 Biso 1.2 C
O5 4 1.0 0.665(6) 0.9022(8) 1.075(2) Biso 7.54(6) O
O6 4 1.0 0.573(8) 1.0153(9) 0.124(3) Biso 7.54(6) O
O7 4 1.0 0.041(7) 1.0479(8) 0.032(3) Biso 7.54(6) O
H1 4 1.0 0.3687 0.2919 0.539 Biso 1.2 H
H2 4 1.0 0.5511 0.3532 0.6359 Biso 1.2 H
H3 4 1.0 0.2667 -0.013 0.5394 Biso 1.2 H
H4 4 1.0 0.5479 0.1286 0.4091 Biso 1.2 H
H5 4 1.0 0.3837 0.0596 0.3762 Biso 1.2 H
H6 4 1.0 0.2175 0.1306 0.7356 Biso 1.2 H
H7 4 1.0 0.0532 0.0616 0.7027 Biso 1.2 H
_chemical_name_common            
'Copper pyrazinedicarboxylate dipyridylethylene'
