
###############################################################################
#
# This file contains modified crystal structure data generated from the
# MOF subset of the Cambridge Structural Database (CSD) v543 
# hosted by the Cambridge Crystallographic Data Centre (CCDC).
#
# This work is licensed under the Creative Commons
# Attribution-NonCommercial-ShareAlike 4.0 International License.
# To view a copy of this license, visit
# http://creativecommons.org/licenses/by-nc-sa/4.0/
# or send a letter to
# Creative Commons, PO Box 1866, Mountain View, CA 94042, USA.
#
# CIF created using the CSD Python API on 29 September 2022
# The structure has been converted into the P1 space group
# The structure has a 3D framework
# The original CSD entry VEJYUF10 is in the orthorhombic crystal system
# The framework has been calculated to contain at least 10.0% void space
# The void calculation uses a probe of radius 1.32A, grid spacing 0.4
#
###############################################################################

data_VEJYUF10
_chemical_formula_moiety         '(C96 H96 N64 Zn16)n'
_symmetry_cell_setting           triclinic
_symmetry_space_group_name_H-M   'P 1'
_symmetry_Int_Tables_number      1
_space_group_name_Hall           'P 1'
loop_
_symmetry_equiv_pos_site_id
_symmetry_equiv_pos_as_xyz
1 x,y,z
_cell_length_a                   15.6595(5)
_cell_length_b                   14.6464(4)
_cell_length_c                   18.3890(7)
_cell_angle_alpha                90
_cell_angle_beta                 90
_cell_angle_gamma                90
_cell_volume                     4217.61
loop_
_atom_site_label
_atom_site_type_symbol
_atom_site_fract_x
_atom_site_fract_y
_atom_site_fract_z
Zn1 Zn 0.50737(2) 0.33720(2) 0.30748(2)
Zn2 Zn 0.20422(2) 0.14374(2) 0.41707(2)
N1 N 0.44180(8) 0.23492(9) 0.35162(7)
N2 N 0.32660(8) 0.16531(9) 0.39708(8)
N3 N 0.60040(8) 0.36580(10) 0.37707(7)
N4 N 0.67656(8) 0.37363(9) 0.47948(7)
N5 N 0.42355(8) 0.43923(9) 0.30453(7)
N6 N 0.33323(8) 0.53849(9) 0.35587(7)
N7 N 0.55793(8) 0.31521(10) 0.21094(7)
N8 N 0.63436(8) 0.24486(9) 0.12501(7)
C1 C 0.35648(9) 0.23495(11) 0.35819(8)
H1 H 0.320841 0.280295 0.337127
C2 C 0.46847(10) 0.15937(12) 0.39040(10)
H2 H 0.525965 0.140188 0.396600
C3 C 0.39814(10) 0.11697(12) 0.41829(10)
H3 H 0.398335 0.063344 0.447346
C4 C 0.60421(9) 0.34583(11) 0.44772(8)
H4 H 0.559924 0.314918 0.473023
C5 C 0.67625(11) 0.40921(14) 0.36210(10)
H5 H 0.693319 0.431939 0.315953
C6 C 0.72280(11) 0.41414(14) 0.42452(9)
H6 H 0.777752 0.440939 0.429343
C7 C 0.40504(9) 0.49038(11) 0.36261(8)
H7 H 0.439892 0.492279 0.404869
C8 C 0.35849(11) 0.45646(13) 0.25628(9)
H8 H 0.352809 0.430723 0.209106
C9 C 0.30349(11) 0.51689(13) 0.28778(10)
H9 H 0.252895 0.540203 0.266155
C10 C 0.59779(9) 0.23879(11) 0.19059(8)
H10 H 0.599982 0.185345 0.219808
C11 C 0.56990(12) 0.37523(12) 0.15408(10)
H11 H 0.549345 0.436198 0.151892
C12 C 0.61642(12) 0.33203(12) 0.10135(10)
H12 H 0.633430 0.357717 0.056174
Zn3 Zn 0.70422(2) 0.35626(2) 0.58293(2)
Zn4 Zn 0.70422(2) 0.14374(2) 0.08293(2)
Zn5 Zn 0.29578(2) 0.64374(2) 0.41707(2)
N9 N 0.17656(8) 0.12637(9) 0.52052(7)
N10 N 0.16677(8) 0.03849(9) 0.35587(7)
N11 N 0.13436(8) 0.24486(9) 0.37499(7)
N9_2 N 0.32344(8) 0.87363(9) 0.02052(7)
Zn2_2 Zn 0.29578(2) 0.85626(2) 0.91707(2)
N1_2 N 0.05820(8) 0.76508(9) 0.85162(7)
N2_2 N 0.17340(8) 0.83469(9) 0.89708(8)
N5_2 N 0.07645(8) 0.56077(9) 0.80453(7)
N6_2 N 0.16677(8) 0.46151(9) 0.85587(7)
C1_2 C 0.14352(9) 0.76505(11) 0.85819(8)
H1_2 H 0.179159 0.719705 0.837127
C2_2 C 0.03153(10) 0.84063(12) 0.89040(10)
C3_2 C 0.10186(10) 0.88303(12) 0.91829(10)
H3_2 H 0.101665 0.936656 0.947346
C7_2 C 0.09496(9) 0.50962(11) 0.86261(8)
H7_2 H 0.060108 0.507721 0.904869
C8_2 C 0.14151(11) 0.54354(13) 0.75628(9)
H8_2 H 0.147191 0.569277 0.709106
C9_2 C 0.19651(11) 0.48311(13) 0.78778(10)
H9_2 H 0.247105 0.459797 0.766155
Zn5_2 Zn 0.20422(2) 0.35626(2) 0.91707(2)
N10_2 N 0.33323(8) 0.96151(9) 0.85587(7)
N11_2 N 0.36564(8) 0.75514(9) 0.87499(7)
Zn3_2 Zn 0.79578(2) 0.64374(2) 0.08293(2)
Zn1_2 Zn 0.99263(2) 0.66280(2) 0.80748(2)
N3_2 N 0.89960(8) 0.63420(10) 0.87707(7)
N4_2 N 0.82344(8) 0.62637(9) 0.97948(7)
N7_2 N 0.94207(8) 0.68479(10) 0.71094(7)
N8_2 N 0.86564(8) 0.75514(9) 0.62501(7)
H2_2 H 0.974035 0.859812 0.896600
C4_2 C 0.89579(9) 0.65417(11) 0.94772(8)
H4_2 H 0.940076 0.685082 0.973023
C5_2 C 0.82375(11) 0.59079(14) 0.86210(10)
H5_2 H 0.806681 0.568061 0.815953
C6_2 C 0.77720(11) 0.58586(14) 0.92452(9)
H6_2 H 0.722248 0.559061 0.929343
C10_2 C 0.90221(9) 0.76121(11) 0.69059(8)
H10_2 H 0.900018 0.814655 0.719808
C11_2 C 0.93010(12) 0.62477(12) 0.65408(10)
H11_2 H 0.950655 0.563802 0.651892
C12_2 C 0.88358(12) 0.66797(12) 0.60135(10)
H12_2 H 0.866570 0.642283 0.556174
Zn4_2 Zn 0.79578(2) 0.85626(2) 0.58293(2)
Zn1_3 Zn 0.00737(2) 0.16280(2) 0.69252(2)
N3_3 N 0.10040(8) 0.13420(10) 0.62293(7)
N7_3 N 0.05793(8) 0.18479(10) 0.78906(7)
N8_3 N 0.13436(8) 0.25514(9) 0.87499(7)
H2_3 H 0.025965 0.359812 0.603400
C4_3 C 0.10421(9) 0.15417(11) 0.55228(8)
H4_3 H 0.059924 0.185082 0.526977
C5_3 C 0.17625(11) 0.09079(14) 0.63790(10)
H5_3 H 0.193319 0.068061 0.684047
C6_3 C 0.22280(11) 0.08586(14) 0.57548(9)
H6_3 H 0.277752 0.059061 0.570657
C10_3 C 0.09779(9) 0.26121(11) 0.80941(8)
H10_3 H 0.099982 0.314655 0.780192
C11_3 C 0.06990(12) 0.12477(12) 0.84592(10)
H11_3 H 0.049345 0.063802 0.848108
C12_3 C 0.11642(12) 0.16797(12) 0.89865(10)
H12_3 H 0.133430 0.142283 0.943826
N1_3 N 0.94180(8) 0.26508(9) 0.64838(7)
N2_3 N 0.82660(8) 0.33469(9) 0.60292(8)
N5_3 N 0.92355(8) 0.06077(9) 0.69547(7)
C1_3 C 0.85648(9) 0.26505(11) 0.64181(8)
H1_3 H 0.820841 0.219705 0.662873
C2_3 C 0.96847(10) 0.34063(12) 0.60960(10)
C3_3 C 0.89814(10) 0.38303(12) 0.58171(10)
H3_3 H 0.898335 0.436656 0.552654
C7_3 C 0.90504(9) 0.00962(11) 0.63739(8)
H7_3 H 0.939892 0.007721 0.595131
C8_3 C 0.85849(11) 0.04354(13) 0.74372(9)
H8_3 H 0.852809 0.069277 0.790894
N10_3 N 0.66677(8) 0.46151(9) 0.64413(7)
N11_3 N 0.63436(8) 0.25514(9) 0.62501(7)
N6_3 N 0.83323(8) 0.96151(9) 0.64413(7)
C9_3 C 0.80349(11) 0.98311(13) 0.71222(10)
H9_3 H 0.752895 0.959797 0.733845
N6_4 N 0.66677(8) 0.03849(9) 0.14413(7)
C9_4 C 0.69651(11) 0.01689(13) 0.21222(10)
H9_4 H 0.747105 0.040203 0.233845
Zn1_4 Zn 0.49263(2) 0.83720(2) 0.19252(2)
N1_4 N 0.55820(8) 0.73492(9) 0.14838(7)
N2_4 N 0.67340(8) 0.66531(9) 0.10292(8)
N3_4 N 0.39960(8) 0.86580(10) 0.12293(7)
N5_4 N 0.57645(8) 0.93923(9) 0.19547(7)
N7_4 N 0.44207(8) 0.81521(10) 0.28906(7)
N8_4 N 0.36564(8) 0.74486(9) 0.37499(7)
C1_4 C 0.64352(9) 0.73495(11) 0.14181(8)
H1_4 H 0.679159 0.780295 0.162873
C2_4 C 0.53153(10) 0.65937(12) 0.10960(10)
H2_4 H 0.474035 0.640188 0.103400
C3_4 C 0.60186(10) 0.61697(12) 0.08171(10)
H3_4 H 0.601665 0.563344 0.052654
C4_4 C 0.39579(9) 0.84583(11) 0.05228(8)
H4_4 H 0.440076 0.814918 0.026977
C5_4 C 0.32375(11) 0.90921(14) 0.13790(10)
H5_4 H 0.306681 0.931939 0.184047
C6_4 C 0.27720(11) 0.91414(14) 0.07548(9)
H6_4 H 0.222248 0.940939 0.070657
C7_4 C 0.59496(9) 0.99038(11) 0.13739(8)
H7_4 H 0.560108 0.992279 0.095131
C8_4 C 0.64151(11) 0.95646(13) 0.24372(9)
H8_4 H 0.647191 0.930723 0.290894
C10_4 C 0.40221(9) 0.73879(11) 0.30941(8)
H10_4 H 0.400018 0.685345 0.280192
C11_4 C 0.43010(12) 0.87523(12) 0.34592(10)
H11_4 H 0.450655 0.936198 0.348108
C12_4 C 0.38358(12) 0.83203(12) 0.39865(10)
H12_4 H 0.366570 0.857717 0.443826
N10_4 N 0.83323(8) 0.53849(9) 0.14413(7)
N11_4 N 0.86564(8) 0.74486(9) 0.12501(7)
Zn1_5 Zn 0.49263(2) 0.66280(2) 0.69252(2)
N1_5 N 0.55820(8) 0.76508(9) 0.64838(7)
N2_5 N 0.67340(8) 0.83469(9) 0.60292(8)
N3_5 N 0.39960(8) 0.63420(10) 0.62293(7)
N4_3 N 0.32344(8) 0.62637(9) 0.52052(7)
N5_5 N 0.57645(8) 0.56077(9) 0.69547(7)
N7_5 N 0.44207(8) 0.68479(10) 0.78906(7)
C1_5 C 0.64352(9) 0.76505(11) 0.64181(8)
H1_5 H 0.679159 0.719705 0.662873
C2_5 C 0.53153(10) 0.84063(12) 0.60960(10)
H2_5 H 0.474035 0.859812 0.603400
C3_5 C 0.60186(10) 0.88303(12) 0.58171(10)
H3_5 H 0.601665 0.936656 0.552654
C4_5 C 0.39579(9) 0.65417(11) 0.55228(8)
H4_5 H 0.440076 0.685082 0.526977
C5_5 C 0.32375(11) 0.59079(14) 0.63790(10)
H5_5 H 0.306681 0.568061 0.684047
C6_5 C 0.27720(11) 0.58586(14) 0.57548(9)
H6_5 H 0.222248 0.559061 0.570657
C7_5 C 0.59496(9) 0.50962(11) 0.63739(8)
H7_5 H 0.560108 0.507721 0.595131
C8_5 C 0.64151(11) 0.54354(13) 0.74372(9)
H8_5 H 0.647191 0.569277 0.790894
C9_5 C 0.69651(11) 0.48311(13) 0.71222(10)
H9_5 H 0.747105 0.459797 0.733845
C10_5 C 0.40221(9) 0.76121(11) 0.80941(8)
H10_5 H 0.400018 0.814655 0.780192
C11_5 C 0.43010(12) 0.62477(12) 0.84592(10)
H11_5 H 0.450655 0.563802 0.848108
C12_5 C 0.38358(12) 0.66797(12) 0.89865(10)
H12_5 H 0.366570 0.642283 0.943826
N9_3 N 0.82344(8) 0.87363(9) 0.47948(7)
Zn1_6 Zn 0.00737(2) 0.33720(2) 0.19252(2)
N3_6 N 0.10040(8) 0.36580(10) 0.12293(7)
N4_4 N 0.17656(8) 0.37363(9) 0.02052(7)
N7_6 N 0.05793(8) 0.31521(10) 0.28906(7)
H2_6 H 0.025965 0.140188 0.103400
C4_6 C 0.10421(9) 0.34583(11) 0.05228(8)
H4_6 H 0.059924 0.314918 0.026977
C5_6 C 0.17625(11) 0.40921(14) 0.13790(10)
H5_6 H 0.193319 0.431939 0.184047
C6_6 C 0.22280(11) 0.41414(14) 0.07548(9)
H6_6 H 0.277752 0.440939 0.070657
C10_6 C 0.09779(9) 0.23879(11) 0.30941(8)
H10_6 H 0.099982 0.185345 0.280192
C11_6 C 0.06990(12) 0.37523(12) 0.34592(10)
H11_6 H 0.049345 0.436198 0.348108
C12_6 C 0.11642(12) 0.33203(12) 0.39865(10)
H12_6 H 0.133430 0.357717 0.443826
N1_6 N 0.94180(8) 0.23492(9) 0.14838(7)
N2_6 N 0.82660(8) 0.16531(9) 0.10292(8)
N5_6 N 0.92355(8) 0.43923(9) 0.19547(7)
C1_6 C 0.85648(9) 0.23495(11) 0.14181(8)
H1_6 H 0.820841 0.280295 0.162873
C2_6 C 0.96847(10) 0.15937(12) 0.10960(10)
C3_6 C 0.89814(10) 0.11697(12) 0.08171(10)
H3_6 H 0.898335 0.063344 0.052654
C7_6 C 0.90504(9) 0.49038(11) 0.13739(8)
H7_6 H 0.939892 0.492279 0.095131
C8_6 C 0.85849(11) 0.45646(13) 0.24372(9)
H8_6 H 0.852809 0.430723 0.290894
C9_6 C 0.80349(11) 0.51689(13) 0.21222(10)
H9_6 H 0.752895 0.540203 0.233845
N9_4 N 0.67656(8) 0.12637(9) 0.97948(7)
C9_7 C 0.19651(11) 0.01689(13) 0.28778(10)
H9_7 H 0.247105 0.040203 0.266155
N1_7 N 0.05820(8) 0.73492(9) 0.35162(7)
N2_7 N 0.17340(8) 0.66531(9) 0.39708(8)
N5_7 N 0.07645(8) 0.93923(9) 0.30453(7)
C1_7 C 0.14352(9) 0.73495(11) 0.35819(8)
H1_7 H 0.179159 0.780295 0.337127
C2_7 C 0.03153(10) 0.65937(12) 0.39040(10)
C3_7 C 0.10186(10) 0.61697(12) 0.41829(10)
H3_7 H 0.101665 0.563344 0.447346
C7_7 C 0.09496(9) 0.99038(11) 0.36261(8)
H7_7 H 0.060108 0.992279 0.404869
C8_7 C 0.14151(11) 0.95646(13) 0.25628(9)
H8_7 H 0.147191 0.930723 0.209106
Zn1_7 Zn 0.99263(2) 0.83720(2) 0.30748(2)
N3_7 N 0.89960(8) 0.86580(10) 0.37707(7)
N7_7 N 0.94207(8) 0.81521(10) 0.21094(7)
H2_7 H 0.974035 0.640188 0.396600
C4_7 C 0.89579(9) 0.84583(11) 0.44772(8)
H4_7 H 0.940076 0.814918 0.473023
C5_7 C 0.82375(11) 0.90921(14) 0.36210(10)
H5_7 H 0.806681 0.931939 0.315953
C6_7 C 0.77720(11) 0.91414(14) 0.42452(9)
H6_7 H 0.722248 0.940939 0.429343
C10_7 C 0.90221(9) 0.73879(11) 0.19059(8)
H10_7 H 0.900018 0.685345 0.219808
C11_7 C 0.93010(12) 0.87523(12) 0.15408(10)
H11_7 H 0.950655 0.936198 0.151892
C12_7 C 0.88358(12) 0.83203(12) 0.10135(10)
H12_7 H 0.866570 0.857717 0.056174
Zn1_8 Zn 0.50737(2) 0.16280(2) 0.80748(2)
N1_8 N 0.44180(8) 0.26508(9) 0.85162(7)
N2_8 N 0.32660(8) 0.33469(9) 0.89708(8)
N3_8 N 0.60040(8) 0.13420(10) 0.87707(7)
N5_8 N 0.42355(8) 0.06077(9) 0.80453(7)
N7_8 N 0.55793(8) 0.18479(10) 0.71094(7)
C1_8 C 0.35648(9) 0.26505(11) 0.85819(8)
H1_8 H 0.320841 0.219705 0.837127
C2_8 C 0.46847(10) 0.34063(12) 0.89040(10)
H2_8 H 0.525965 0.359812 0.896600
C3_8 C 0.39814(10) 0.38303(12) 0.91829(10)
H3_8 H 0.398335 0.436656 0.947346
C4_8 C 0.60421(9) 0.15417(11) 0.94772(8)
H4_8 H 0.559924 0.185082 0.973023
C5_8 C 0.67625(11) 0.09079(14) 0.86210(10)
H5_8 H 0.693319 0.068061 0.815953
C6_8 C 0.72280(11) 0.08586(14) 0.92452(9)
H6_8 H 0.777752 0.059061 0.929343
C7_8 C 0.40504(9) 0.00962(11) 0.86261(8)
H7_8 H 0.439892 0.007721 0.904869
C8_8 C 0.35849(11) 0.04354(13) 0.75628(9)
H8_8 H 0.352809 0.069277 0.709106
C10_8 C 0.59779(9) 0.26121(11) 0.69059(8)
H10_8 H 0.599982 0.314655 0.719808
C11_8 C 0.56990(12) 0.12477(12) 0.65408(10)
H11_8 H 0.549345 0.063802 0.651892
C12_8 C 0.61642(12) 0.16797(12) 0.60135(10)
H12_8 H 0.633430 0.142283 0.556174
C9_8 C 0.30349(11) 0.98311(13) 0.78778(10)
H9_8 H 0.252895 0.959797 0.766155
loop_
_geom_bond_atom_site_label_1
_geom_bond_atom_site_label_2
_geom_bond_site_symmetry_1
_geom_bond_site_symmetry_2
Zn1 N1 1_555 1_555
Zn2 N2 1_555 1_555
N1 C1 1_555 1_555
N2 C1 1_555 1_555
N3 Zn1 1_555 1_555
N4 C4 1_555 1_555
N5 Zn1 1_555 1_555
N6 C7 1_555 1_555
N7 Zn1 1_555 1_555
N8 C10 1_555 1_555
C1 H1 1_555 1_555
C2 N1 1_555 1_555
H2 C2 1_555 1_555
C3 N2 1_555 1_555
H3 C3 1_555 1_555
C4 N3 1_555 1_555
H4 C4 1_555 1_555
C5 N3 1_555 1_555
H5 C5 1_555 1_555
C6 N4 1_555 1_555
H6 C6 1_555 1_555
C7 N5 1_555 1_555
H7 C7 1_555 1_555
C8 N5 1_555 1_555
H8 C8 1_555 1_555
C9 N6 1_555 1_555
H9 C9 1_555 1_555
C10 N7 1_555 1_555
H10 C10 1_555 1_555
C11 N7 1_555 1_555
H11 C11 1_555 1_555
C12 N8 1_555 1_555
H12 C12 1_555 1_555
Zn3 N4 1_555 1_555
Zn4 N8 1_555 1_555
Zn5 N6 1_555 1_555
N9 Zn2 1_555 1_555
N10 Zn2 1_555 1_555
N11 Zn2 1_555 1_555
C2 C3 1_555 1_555
C5 C6 1_555 1_555
C8 C9 1_555 1_555
C11 C12 1_555 1_555
Zn2_2 N2_2 1_555 1_555
N1_2 C1_2 1_555 1_555
N2_2 C1_2 1_555 1_555
N6_2 C7_2 1_555 1_555
C1_2 H1_2 1_555 1_555
C2_2 N1_2 1_555 1_555
C3_2 N2_2 1_555 1_555
H3_2 C3_2 1_555 1_555
C7_2 N5_2 1_555 1_555
H7_2 C7_2 1_555 1_555
C8_2 N5_2 1_555 1_555
H8_2 C8_2 1_555 1_555
C9_2 N6_2 1_555 1_555
H9_2 C9_2 1_555 1_555
Zn5_2 N6_2 1_555 1_555
N10_2 Zn2_2 1_555 1_555
N11_2 Zn2_2 1_555 1_555
C2_2 C3_2 1_555 1_555
C8_2 C9_2 1_555 1_555
N3_2 Zn1_2 1_555 1_555
N4_2 C4_2 1_555 1_555
N7_2 Zn1_2 1_555 1_555
N8_2 C10_2 1_555 1_555
C4_2 N3_2 1_555 1_555
H4_2 C4_2 1_555 1_555
C5_2 N3_2 1_555 1_555
H5_2 C5_2 1_555 1_555
C6_2 N4_2 1_555 1_555
H6_2 C6_2 1_555 1_555
C10_2 N7_2 1_555 1_555
H10_2 C10_2 1_555 1_555
C11_2 N7_2 1_555 1_555
H11_2 C11_2 1_555 1_555
C12_2 N8_2 1_555 1_555
H12_2 C12_2 1_555 1_555
Zn4_2 N8_2 1_555 1_555
C5_2 C6_2 1_555 1_555
C11_2 C12_2 1_555 1_555
N3_3 Zn1_3 1_555 1_555
N9 C4_3 1_555 1_555
N7_3 Zn1_3 1_555 1_555
N8_3 C10_3 1_555 1_555
C4_3 N3_3 1_555 1_555
H4_3 C4_3 1_555 1_555
C5_3 N3_3 1_555 1_555
H5_3 C5_3 1_555 1_555
C6_3 N9 1_555 1_555
H6_3 C6_3 1_555 1_555
C10_3 N7_3 1_555 1_555
H10_3 C10_3 1_555 1_555
C11_3 N7_3 1_555 1_555
H11_3 C11_3 1_555 1_555
C12_3 N8_3 1_555 1_555
H12_3 C12_3 1_555 1_555
Zn5_2 N8_3 1_555 1_555
C5_3 C6_3 1_555 1_555
C11_3 C12_3 1_555 1_555
Zn3 N2_3 1_555 1_555
N1_3 C1_3 1_555 1_555
N2_3 C1_3 1_555 1_555
C1_3 H1_3 1_555 1_555
C2_3 N1_3 1_555 1_555
C3_3 N2_3 1_555 1_555
H3_3 C3_3 1_555 1_555
C7_3 N5_3 1_555 1_555
H7_3 C7_3 1_555 1_555
C8_3 N5_3 1_555 1_555
H8_3 C8_3 1_555 1_555
N10_3 Zn3 1_555 1_555
N11_3 Zn3 1_555 1_555
C2_3 C3_3 1_555 1_555
C9_3 N6_3 1_555 1_555
H9_3 C9_3 1_555 1_555
Zn4_2 N6_3 1_555 1_555
C9_4 N6_4 1_555 1_555
H9_4 C9_4 1_555 1_555
Zn4 N6_4 1_555 1_555
Zn1_4 N1_4 1_555 1_555
Zn3_2 N2_4 1_555 1_555
N1_4 C1_4 1_555 1_555
N2_4 C1_4 1_555 1_555
N3_4 Zn1_4 1_555 1_555
N9_2 C4_4 1_555 1_555
N5_4 Zn1_4 1_555 1_555
N7_4 Zn1_4 1_555 1_555
N8_4 C10_4 1_555 1_555
C1_4 H1_4 1_555 1_555
C2_4 N1_4 1_555 1_555
H2_4 C2_4 1_555 1_555
C3_4 N2_4 1_555 1_555
H3_4 C3_4 1_555 1_555
C4_4 N3_4 1_555 1_555
H4_4 C4_4 1_555 1_555
C5_4 N3_4 1_555 1_555
H5_4 C5_4 1_555 1_555
C6_4 N9_2 1_555 1_555
H6_4 C6_4 1_555 1_555
C7_4 N5_4 1_555 1_555
H7_4 C7_4 1_555 1_555
C8_4 N5_4 1_555 1_555
H8_4 C8_4 1_555 1_555
C10_4 N7_4 1_555 1_555
H10_4 C10_4 1_555 1_555
C11_4 N7_4 1_555 1_555
H11_4 C11_4 1_555 1_555
C12_4 N8_4 1_555 1_555
H12_4 C12_4 1_555 1_555
Zn5 N8_4 1_555 1_555
N10_4 Zn3_2 1_555 1_555
N11_4 Zn3_2 1_555 1_555
C2_4 C3_4 1_555 1_555
C5_4 C6_4 1_555 1_555
C11_4 C12_4 1_555 1_555
Zn1_5 N1_5 1_555 1_555
Zn4_2 N2_5 1_555 1_555
N1_5 C1_5 1_555 1_555
N2_5 C1_5 1_555 1_555
N3_5 Zn1_5 1_555 1_555
N4_3 C4_5 1_555 1_555
N5_5 Zn1_5 1_555 1_555
N10_3 C7_5 1_555 1_555
N7_5 Zn1_5 1_555 1_555
N11_2 C10_5 1_555 1_555
C1_5 H1_5 1_555 1_555
C2_5 N1_5 1_555 1_555
H2_5 C2_5 1_555 1_555
C3_5 N2_5 1_555 1_555
H3_5 C3_5 1_555 1_555
C4_5 N3_5 1_555 1_555
H4_5 C4_5 1_555 1_555
C5_5 N3_5 1_555 1_555
H5_5 C5_5 1_555 1_555
C6_5 N4_3 1_555 1_555
H6_5 C6_5 1_555 1_555
C7_5 N5_5 1_555 1_555
H7_5 C7_5 1_555 1_555
C8_5 N5_5 1_555 1_555
H8_5 C8_5 1_555 1_555
C9_5 N10_3 1_555 1_555
H9_5 C9_5 1_555 1_555
C10_5 N7_5 1_555 1_555
H10_5 C10_5 1_555 1_555
C11_5 N7_5 1_555 1_555
H11_5 C11_5 1_555 1_555
C12_5 N11_2 1_555 1_555
H12_5 C12_5 1_555 1_555
Zn5 N4_3 1_555 1_555
N9_3 Zn4_2 1_555 1_555
C2_5 C3_5 1_555 1_555
C5_5 C6_5 1_555 1_555
C8_5 C9_5 1_555 1_555
C11_5 C12_5 1_555 1_555
N3_6 Zn1_6 1_555 1_555
N4_4 C4_6 1_555 1_555
N7_6 Zn1_6 1_555 1_555
N11 C10_6 1_555 1_555
C4_6 N3_6 1_555 1_555
H4_6 C4_6 1_555 1_555
C5_6 N3_6 1_555 1_555
H5_6 C5_6 1_555 1_555
C6_6 N4_4 1_555 1_555
H6_6 C6_6 1_555 1_555
C10_6 N7_6 1_555 1_555
H10_6 C10_6 1_555 1_555
C11_6 N7_6 1_555 1_555
H11_6 C11_6 1_555 1_555
C12_6 N11 1_555 1_555
H12_6 C12_6 1_555 1_555
C5_6 C6_6 1_555 1_555
C11_6 C12_6 1_555 1_555
Zn4 N2_6 1_555 1_555
N1_6 C1_6 1_555 1_555
N2_6 C1_6 1_555 1_555
N10_4 C7_6 1_555 1_555
C1_6 H1_6 1_555 1_555
C2_6 N1_6 1_555 1_555
C3_6 N2_6 1_555 1_555
H3_6 C3_6 1_555 1_555
C7_6 N5_6 1_555 1_555
H7_6 C7_6 1_555 1_555
C8_6 N5_6 1_555 1_555
H8_6 C8_6 1_555 1_555
C9_6 N10_4 1_555 1_555
H9_6 C9_6 1_555 1_555
C2_6 C3_6 1_555 1_555
C8_6 C9_6 1_555 1_555
C9_7 N10 1_555 1_555
H9_7 C9_7 1_555 1_555
Zn5 N2_7 1_555 1_555
N1_7 C1_7 1_555 1_555
N2_7 C1_7 1_555 1_555
C1_7 H1_7 1_555 1_555
C2_7 N1_7 1_555 1_555
C3_7 N2_7 1_555 1_555
H3_7 C3_7 1_555 1_555
C7_7 N5_7 1_555 1_555
H7_7 C7_7 1_555 1_555
C8_7 N5_7 1_555 1_555
H8_7 C8_7 1_555 1_555
C2_7 C3_7 1_555 1_555
N3_7 Zn1_7 1_555 1_555
N9_3 C4_7 1_555 1_555
N7_7 Zn1_7 1_555 1_555
N11_4 C10_7 1_555 1_555
C4_7 N3_7 1_555 1_555
H4_7 C4_7 1_555 1_555
C5_7 N3_7 1_555 1_555
H5_7 C5_7 1_555 1_555
C6_7 N9_3 1_555 1_555
H6_7 C6_7 1_555 1_555
C10_7 N7_7 1_555 1_555
H10_7 C10_7 1_555 1_555
C11_7 N7_7 1_555 1_555
H11_7 C11_7 1_555 1_555
C12_7 N11_4 1_555 1_555
H12_7 C12_7 1_555 1_555
C5_7 C6_7 1_555 1_555
C11_7 C12_7 1_555 1_555
Zn1_8 N1_8 1_555 1_555
Zn5_2 N2_8 1_555 1_555
N1_8 C1_8 1_555 1_555
N2_8 C1_8 1_555 1_555
N3_8 Zn1_8 1_555 1_555
N9_4 C4_8 1_555 1_555
N5_8 Zn1_8 1_555 1_555
N7_8 Zn1_8 1_555 1_555
N11_3 C10_8 1_555 1_555
C1_8 H1_8 1_555 1_555
C2_8 N1_8 1_555 1_555
H2_8 C2_8 1_555 1_555
C3_8 N2_8 1_555 1_555
H3_8 C3_8 1_555 1_555
C4_8 N3_8 1_555 1_555
H4_8 C4_8 1_555 1_555
C5_8 N3_8 1_555 1_555
H5_8 C5_8 1_555 1_555
C6_8 N9_4 1_555 1_555
H6_8 C6_8 1_555 1_555
C7_8 N5_8 1_555 1_555
H7_8 C7_8 1_555 1_555
C8_8 N5_8 1_555 1_555
H8_8 C8_8 1_555 1_555
C10_8 N7_8 1_555 1_555
H10_8 C10_8 1_555 1_555
C11_8 N7_8 1_555 1_555
H11_8 C11_8 1_555 1_555
C12_8 N11_3 1_555 1_555
H12_8 C12_8 1_555 1_555
C2_8 C3_8 1_555 1_555
C5_8 C6_8 1_555 1_555
C11_8 C12_8 1_555 1_555
C9_8 N10_2 1_555 1_555
H9_8 C9_8 1_555 1_555

#END
