
###############################################################################
#
# This file contains modified crystal structure data generated from the
# MOF subset of the Cambridge Structural Database (CSD) v543 
# hosted by the Cambridge Crystallographic Data Centre (CCDC).
#
# This work is licensed under the Creative Commons
# Attribution-NonCommercial-ShareAlike 4.0 International License.
# To view a copy of this license, visit
# http://creativecommons.org/licenses/by-nc-sa/4.0/
# or send a letter to
# Creative Commons, PO Box 1866, Mountain View, CA 94042, USA.
#
# CIF created using the CSD Python API on 29 September 2022
# The structure has been converted into the P1 space group
# The structure has a 3D framework
# The original CSD entry VEJYUV04 is in the monoclinic crystal system
# The framework has been calculated to contain at least 10.0% void space
# The void calculation uses a probe of radius 1.32A, grid spacing 0.4
#
###############################################################################

data_VEJYUV04
_chemical_formula_moiety         '(C96 H96 N64 Zn16)n'
_symmetry_cell_setting           triclinic
_symmetry_space_group_name_H-M   'P 1'
_symmetry_Int_Tables_number      1
_space_group_name_Hall           'P 1'
loop_
_symmetry_equiv_pos_site_id
_symmetry_equiv_pos_as_xyz
1 x,y,z
_cell_length_a                   17.4068(18)
_cell_length_b                   14.0783(17)
_cell_length_c                   14.5050(17)
_cell_angle_alpha                90
_cell_angle_beta                 101.853(9)
_cell_angle_gamma                90
_cell_volume                     3478.78
loop_
_atom_site_label
_atom_site_type_symbol
_atom_site_fract_x
_atom_site_fract_y
_atom_site_fract_z
Zn1 Zn 0.2036(6) 0.0287(6) 0.3943(7)
Zn4 Zn 0.4113(6) 0.1924(6) 0.2016(7)
C1 C 0.317(2) 0.123(2) 0.329(2)
C2 C 0.381(3) 0.0214(17) 0.4236(17)
C3 C 0.4307(19) 0.064(3) 0.376(2)
C7 C 0.070(3) 0.160(3) 0.4054(15)
C8 C 0.115(3) 0.285(2) 0.4818(17)
C9 C 0.176(2) 0.228(3) 0.4750(18)
C12 C 0.102(2) 0.045(3) 0.185(4)
C16 C 0.356(2) 0.083(2) 0.021(3)
C17 C 0.271(3) 0.092(2) 0.107(3)
C18 C 0.2405(19) 0.039(2) 0.030(3)
C19 C 0.559(3) 0.119(3) 0.175(2)
C20 C 0.599(3) 0.201(4) 0.071(2)
C21 C 0.532(3) 0.241(2) 0.088(3)
C22 C 0.3391(12) 0.366(3) 0.280(2)
C23 C 0.3286(12) 0.467(3) 0.169(3)
C24 C 0.3573(11) 0.386(4) 0.140(2)
N1 N 0.308(2) 0.058(3) 0.394(2)
N2 N 0.391(3) 0.129(2) 0.3162(19)
N5 N 0.149(3) 0.148(3) 0.427(2)
N6 N 0.047(2) 0.242(4) 0.438(2)
N12 N 0.344(3) 0.1196(16) 0.102(3)
N13 N 0.616(2) 0.123(3) 0.126(3)
N14 N 0.5064(19) 0.190(4) 0.154(3)
N15 N 0.3169(8) 0.456(3) 0.257(3)
N16 N 0.3642(9) 0.321(2) 0.210(3)
H1 H 0.2755 0.1616 0.2951
H3 H 0.4851 0.0500 0.3855
H7 H 0.0364 0.1109 0.3758
H8 H 0.1164 0.3470 0.5071
H9 H 0.2294 0.2452 0.4975
H11 H 0.0460 0.0055 0.0560
H12 H 0.0991 0.1124 0.1873
H16 H 0.4043 0.0896 0.0001
H17 H 0.2432 0.1087 0.1548
H18 H 0.1900 0.0108 0.0161
H19 H 0.5568 0.0719 0.2211
H20 H 0.6281 0.2239 0.0270
H21 H 0.5069 0.2957 0.0571
H22 H 0.3377 0.3362 0.3381
H23 H 0.3188 0.5248 0.1341
H24 H 0.3693 0.3764 0.0796
Zn13 Zn 0.7081(6) 0.0372(7) 0.1433(7)
Zn15 Zn 0.2919(6) 0.5372(7) 0.3567(7)
N30 N 0.294(3) 0.0329(18) 0.975(2)
N39 N 0.3169(8) 0.044(3) 0.757(3)
Zn2 Zn 0.0662(6) 0.7312(6) 0.5968(7)
Zn3 Zn 0.2919(6) 0.9628(7) 0.8567(7)
C4 C 0.122(2) 0.875(4) 0.4817(16)
C5 C 0.240(2) 0.835(4) 0.4799(16)
C6 C 0.204(3) 0.761(3) 0.5129(13)
C10 C 0.139(2) 0.906(4) 0.232(4)
C11 C 0.0740(15) 0.982(5) 0.115(3)
C13 C 0.180(3) 0.860(3) 0.737(3)
C14 C 0.120(3) 0.893(2) 0.847(3)
C15 C 0.073(2) 0.837(3) 0.783(4)
N3 N 0.189(3) 0.908(3) 0.4597(11)
N4 N 0.129(3) 0.786(4) 0.5144(13)
N7 N 0.1435(17) 0.998(5) 0.260(3)
N8 N 0.097(2) 0.894(3) 0.145(5)
N9 N 0.110(4) 0.8154(19) 0.713(3)
N10 N 0.188(3) 0.908(2) 0.818(4)
H2 H 0.3931 0.9726 0.4695
H4 H 0.0754 0.9117 0.4772
H5 H 0.2921 0.8362 0.4696
H6 H 0.2275 0.7015 0.5307
H10 H 0.1578 0.8506 0.2669
H13 H 0.2160 0.8564 0.6964
H14 H 0.1109 0.9186 0.9046
H15 H 0.0224 0.8172 0.7920
Zn8 Zn 0.0662(6) 0.7688(6) 0.0968(7)
N26 N 0.097(2) 0.606(3) 0.645(5)
N35 N 0.384(2) 0.877(3) 0.874(3)
Zn6 Zn 0.9338(6) 0.2688(6) 0.4032(7)
Zn7 Zn 0.9338(6) 0.2312(6) 0.9032(7)
C28 C 0.878(2) 0.125(4) 0.5183(16)
C29 C 0.760(2) 0.165(4) 0.5201(16)
C30 C 0.796(3) 0.239(3) 0.4871(13)
C34 C 0.861(2) 0.094(4) 0.768(4)
C35 C 0.9260(15) 0.018(5) 0.885(3)
C37 C 0.820(3) 0.140(3) 0.263(3)
C38 C 0.880(3) 0.107(2) 0.153(3)
C39 C 0.927(2) 0.163(3) 0.217(4)
N19 N 0.811(3) 0.092(3) 0.5403(11)
N20 N 0.871(3) 0.214(4) 0.4856(13)
N23 N 0.8565(17) 0.002(5) 0.740(3)
N24 N 0.903(2) 0.106(3) 0.855(5)
N25 N 0.903(2) 0.394(3) 0.355(5)
N27 N 0.890(4) 0.1846(19) 0.287(3)
N28 N 0.812(3) 0.092(2) 0.182(4)
H26 H 0.6069 0.0274 0.5305
H28 H 0.9246 0.0883 0.5228
H29 H 0.7079 0.1638 0.5304
H30 H 0.7725 0.2985 0.4693
H34 H 0.8422 0.1494 0.7331
H37 H 0.7840 0.1436 0.3036
H38 H 0.8891 0.0814 0.0954
H39 H 0.9776 0.1828 0.2080
N29 N 0.706(3) 0.9671(18) 0.025(2)
Zn5 Zn 0.7964(6) 0.9713(6) 0.6057(7)
Zn14 Zn 0.7081(6) 0.4628(7) 0.6433(7)
Zn16 Zn 0.5887(6) 0.8076(6) 0.7984(7)
C25 C 0.683(2) 0.877(2) 0.671(2)
C26 C 0.619(3) 0.9786(17) 0.5764(17)
C27 C 0.5693(19) 0.936(3) 0.624(2)
C31 C 0.930(3) 0.840(3) 0.5946(15)
C32 C 0.885(3) 0.715(2) 0.5182(17)
C33 C 0.824(2) 0.772(3) 0.5250(18)
C36 C 0.898(2) 0.955(3) 0.815(4)
C40 C 0.644(2) 0.917(2) 0.979(3)
C41 C 0.729(3) 0.908(2) 0.893(3)
C42 C 0.7595(19) 0.961(2) 0.970(3)
C43 C 0.441(3) 0.881(3) 0.825(2)
C44 C 0.401(3) 0.799(4) 0.929(2)
C45 C 0.468(3) 0.759(2) 0.912(3)
C46 C 0.6609(12) 0.634(3) 0.720(2)
C47 C 0.6714(12) 0.533(3) 0.831(3)
C48 C 0.6427(11) 0.614(4) 0.860(2)
N17 N 0.692(2) 0.942(3) 0.606(2)
N18 N 0.609(3) 0.871(2) 0.6838(19)
N21 N 0.851(3) 0.852(3) 0.573(2)
N22 N 0.953(2) 0.758(4) 0.562(2)
N32 N 0.656(3) 0.8804(16) 0.898(3)
N36 N 0.4936(19) 0.810(4) 0.846(3)
N37 N 0.6831(8) 0.544(3) 0.743(3)
N38 N 0.6831(8) 0.956(3) 0.243(3)
N40 N 0.6358(9) 0.679(2) 0.790(3)
H25 H 0.7245 0.8384 0.7049
H27 H 0.5149 0.9500 0.6145
H31 H 0.9636 0.8891 0.6242
H32 H 0.8836 0.6530 0.4929
H33 H 0.7706 0.7548 0.5025
H35 H 0.9540 0.9945 0.9440
H36 H 0.9009 0.8876 0.8127
H40 H 0.5957 0.9104 0.9999
H41 H 0.7568 0.8913 0.8452
H42 H 0.8100 0.9892 0.9839
H43 H 0.4432 0.9281 0.7789
H44 H 0.3719 0.7761 0.9730
H45 H 0.4931 0.7043 0.9429
H46 H 0.6623 0.6638 0.6619
H47 H 0.6812 0.4752 0.8659
H48 H 0.6307 0.6236 0.9204
C30_2 C 0.204(3) 0.739(3) 0.0129(13)
C37_2 C 0.180(3) 0.640(3) 0.237(3)
C38_2 C 0.120(3) 0.607(2) 0.347(3)
C39_2 C 0.073(2) 0.663(3) 0.283(4)
N20_2 N 0.129(3) 0.714(4) 0.0144(13)
N27_2 N 0.110(4) 0.6846(19) 0.213(3)
N28_2 N 0.188(3) 0.592(2) 0.318(4)
N31 N 0.294(3) 0.4671(18) 0.475(2)
N34 N 0.384(2) 0.623(3) 0.374(3)
H30_2 H 0.2275 0.7985 0.0307
H32_2 H 0.1164 0.1530 0.0071
H37_2 H 0.2160 0.6436 0.1964
H38_2 H 0.1109 0.5814 0.4046
H39_2 H 0.0224 0.6828 0.2920
Zn5_2 Zn 0.2036(6) 0.4713(6) 0.8943(7)
Zn16_2 Zn 0.4113(6) 0.3076(6) 0.7016(7)
C25_2 C 0.317(2) 0.377(2) 0.829(2)
C26_2 C 0.381(3) 0.4786(17) 0.9236(17)
C27_2 C 0.4307(19) 0.436(3) 0.876(2)
C28_2 C 0.122(2) 0.625(4) 0.9817(16)
C29_2 C 0.240(2) 0.665(4) 0.9799(16)
C31_2 C 0.070(3) 0.340(3) 0.9054(15)
C32_2 C 0.115(3) 0.215(2) 0.9818(17)
C33_2 C 0.176(2) 0.272(3) 0.9750(18)
C34_2 C 0.139(2) 0.594(4) 0.732(4)
C35_2 C 0.0740(15) 0.518(5) 0.615(3)
C36_2 C 0.102(2) 0.455(3) 0.685(4)
C40_2 C 0.356(2) 0.417(2) 0.521(3)
C41_2 C 0.271(3) 0.408(2) 0.607(3)
C42_2 C 0.2405(19) 0.461(2) 0.530(3)
C43_2 C 0.559(3) 0.381(3) 0.675(2)
C44_2 C 0.599(3) 0.299(4) 0.571(2)
C45_2 C 0.532(3) 0.259(2) 0.588(3)
C46_2 C 0.3391(12) 0.134(3) 0.780(2)
C47_2 C 0.3286(12) 0.033(3) 0.669(3)
C48_2 C 0.3573(11) 0.114(4) 0.640(2)
N17_2 N 0.308(2) 0.442(3) 0.894(2)
N18_2 N 0.391(3) 0.371(2) 0.8162(19)
N19_2 N 0.189(3) 0.592(3) 0.9597(11)
N21_2 N 0.149(3) 0.352(3) 0.927(2)
N22_2 N 0.047(2) 0.258(4) 0.938(2)
N23_2 N 0.1435(17) 0.502(5) 0.760(3)
N32_2 N 0.344(3) 0.3804(16) 0.602(3)
N33 N 0.616(2) 0.377(3) 0.626(3)
N36_2 N 0.5064(19) 0.310(4) 0.654(3)
N40_2 N 0.3642(9) 0.179(2) 0.710(3)
H25_2 H 0.2755 0.3384 0.7951
H26_2 H 0.3931 0.5274 0.9695
H27_2 H 0.4851 0.4500 0.8855
H28_2 H 0.0754 0.5883 0.9772
H29_2 H 0.2921 0.6638 0.9696
H31_2 H 0.0364 0.3891 0.8758
H33_2 H 0.2294 0.2548 0.9975
H34_2 H 0.1578 0.6494 0.7669
H35_2 H 0.0460 0.4945 0.5560
H36_2 H 0.0991 0.3876 0.6873
H40_2 H 0.4043 0.4104 0.5001
H41_2 H 0.2432 0.3913 0.6548
H42_2 H 0.1900 0.4892 0.5161
H43_2 H 0.5568 0.4281 0.7211
H44_2 H 0.6281 0.2761 0.5270
H45_2 H 0.5069 0.2043 0.5571
H46_2 H 0.3377 0.1638 0.8381
H48_2 H 0.3693 0.1236 0.5796
H47_2 H 0.3188 0.9752 0.6341
H23_2 H 0.6812 0.0248 0.3659
Zn1_2 Zn 0.7964(6) 0.5287(6) 0.1057(7)
Zn4_2 Zn 0.5887(6) 0.6924(6) 0.2984(7)
C1_2 C 0.683(2) 0.623(2) 0.171(2)
C2_2 C 0.619(3) 0.5214(17) 0.0764(17)
C3_2 C 0.5693(19) 0.564(3) 0.124(2)
C4_2 C 0.878(2) 0.375(4) 0.0183(16)
C5_2 C 0.760(2) 0.335(4) 0.0201(16)
C7_2 C 0.930(3) 0.660(3) 0.0946(15)
C8_2 C 0.885(3) 0.785(2) 0.0182(17)
C9_2 C 0.824(2) 0.728(3) 0.0250(18)
C10_2 C 0.861(2) 0.406(4) 0.268(4)
C11_2 C 0.9260(15) 0.482(5) 0.385(3)
C12_2 C 0.898(2) 0.545(3) 0.315(4)
C16_2 C 0.644(2) 0.583(2) 0.479(3)
C17_2 C 0.729(3) 0.592(2) 0.393(3)
C18_2 C 0.7595(19) 0.539(2) 0.470(3)
C19_2 C 0.441(3) 0.619(3) 0.325(2)
C20_2 C 0.401(3) 0.701(4) 0.429(2)
C21_2 C 0.468(3) 0.741(2) 0.412(3)
C22_2 C 0.6609(12) 0.866(3) 0.220(2)
C23_2 C 0.6714(12) 0.967(3) 0.331(3)
C24_2 C 0.6427(11) 0.886(4) 0.360(2)
N1_2 N 0.692(2) 0.558(3) 0.106(2)
N2_2 N 0.609(3) 0.629(2) 0.1838(19)
N3_2 N 0.811(3) 0.408(3) 0.0403(11)
N5_2 N 0.851(3) 0.648(3) 0.073(2)
N6_2 N 0.953(2) 0.742(4) 0.062(2)
N7_2 N 0.8565(17) 0.498(5) 0.240(3)
N11 N 0.706(3) 0.5329(18) 0.525(2)
N12_2 N 0.656(3) 0.6196(16) 0.398(3)
N14_2 N 0.4936(19) 0.690(4) 0.346(3)
N16_2 N 0.6358(9) 0.821(2) 0.290(3)
H1_2 H 0.7245 0.6616 0.2049
H2_2 H 0.6069 0.4726 0.0305
H3_2 H 0.5149 0.5500 0.1145
H4_2 H 0.9246 0.4117 0.0228
H5_2 H 0.7079 0.3362 0.0304
H7_2 H 0.9636 0.6109 0.1242
H9_2 H 0.7706 0.7452 0.0025
H10_2 H 0.8422 0.3506 0.2331
H11_2 H 0.9540 0.5055 0.4440
H12_2 H 0.9009 0.6124 0.3127
H16_2 H 0.5957 0.5896 0.4999
H17_2 H 0.7568 0.6087 0.3452
H18_2 H 0.8100 0.5108 0.4839
H19_2 H 0.4432 0.5719 0.2789
H20_2 H 0.3719 0.7239 0.4730
H21_2 H 0.4931 0.7957 0.4429
H22_2 H 0.6623 0.8362 0.1619
H24_2 H 0.6307 0.8764 0.4204
C6_2 C 0.796(3) 0.261(3) 0.9871(13)
C13_2 C 0.820(3) 0.360(3) 0.763(3)
C14_2 C 0.880(3) 0.393(2) 0.653(3)
C15_2 C 0.927(2) 0.337(3) 0.717(4)
N4_2 N 0.871(3) 0.286(4) 0.9856(13)
N9_2 N 0.890(4) 0.3154(19) 0.787(3)
N10_2 N 0.812(3) 0.408(2) 0.682(4)
H6_2 H 0.7725 0.2015 0.9693
H8_2 H 0.8836 0.8470 0.9929
H13_2 H 0.7840 0.3564 0.8036
H14_2 H 0.8891 0.4186 0.5954
H15_2 H 0.9776 0.3172 0.7080
loop_
_geom_bond_atom_site_label_1
_geom_bond_atom_site_label_2
_geom_bond_site_symmetry_1
_geom_bond_site_symmetry_2
Zn1 N1 1_555 1_555
Zn4 N2 1_555 1_555
C1 N1 1_555 1_555
C2 C3 1_555 1_555
C3 N2 1_555 1_555
C7 N5 1_555 1_555
C8 C9 1_555 1_555
C9 N5 1_555 1_555
C17 C18 1_555 1_555
C19 N13 1_555 1_555
C20 C21 1_555 1_555
C21 N14 1_555 1_555
C22 N15 1_555 1_555
C23 C24 1_555 1_555
C24 N16 1_555 1_555
N1 C2 1_555 1_555
N2 C1 1_555 1_555
N5 Zn1 1_555 1_555
N6 C7 1_555 1_555
N12 Zn4 1_555 1_555
N13 C20 1_555 1_555
N14 Zn4 1_555 1_555
N15 C23 1_555 1_555
N16 Zn4 1_555 1_555
H1 C1 1_555 1_555
H3 C3 1_555 1_555
H7 C7 1_555 1_555
H8 C8 1_555 1_555
H9 C9 1_555 1_555
H12 C12 1_555 1_555
H16 C16 1_555 1_555
H17 C17 1_555 1_555
H18 C18 1_555 1_555
H19 C19 1_555 1_555
H20 C20 1_555 1_555
H21 C21 1_555 1_555
H22 C22 1_555 1_555
H23 C23 1_555 1_555
H24 C24 1_555 1_555
Zn13 N13 1_555 1_555
Zn15 N15 1_555 1_555
C8 N6 1_555 1_555
C16 N12 1_555 1_555
C17 N12 1_555 1_555
C19 N14 1_555 1_555
C22 N16 1_555 1_555
Zn2 N4 1_555 1_555
Zn3 N10 1_555 1_555
C4 N3 1_555 1_555
C5 C6 1_555 1_555
C6 N4 1_555 1_555
C10 N7 1_555 1_555
C13 N9 1_555 1_555
C14 C15 1_555 1_555
C15 N9 1_555 1_555
N4 C4 1_555 1_555
N8 C10 1_555 1_555
N9 Zn2 1_555 1_555
N10 C13 1_555 1_555
H4 C4 1_555 1_555
H5 C5 1_555 1_555
H6 C6 1_555 1_555
H10 C10 1_555 1_555
H13 C13 1_555 1_555
H14 C14 1_555 1_555
H15 C15 1_555 1_555
Zn8 N8 1_555 1_555
N26 Zn2 1_555 1_555
N35 Zn3 1_555 1_555
C5 N3 1_555 1_555
C11 N8 1_555 1_555
C14 N10 1_555 1_555
Zn7 N24 1_555 1_555
Zn13 N28 1_555 1_555
C28 N19 1_555 1_555
C29 C30 1_555 1_555
C30 N20 1_555 1_555
C34 N23 1_555 1_555
C37 N27 1_555 1_555
C38 C39 1_555 1_555
C39 N27 1_555 1_555
N20 Zn6 1_555 1_555
N24 C34 1_555 1_555
N25 Zn6 1_555 1_555
N27 Zn6 1_555 1_555
N28 C37 1_555 1_555
H28 C28 1_555 1_555
H29 C29 1_555 1_555
H30 C30 1_555 1_555
H34 C34 1_555 1_555
H37 C37 1_555 1_555
H38 C38 1_555 1_555
H39 C39 1_555 1_555
C28 N20 1_555 1_555
C29 N19 1_555 1_555
C35 N24 1_555 1_555
C38 N28 1_555 1_555
Zn5 N17 1_555 1_555
Zn14 N37 1_555 1_555
Zn16 N18 1_555 1_555
C25 N17 1_555 1_555
C26 C27 1_555 1_555
C27 N18 1_555 1_555
C31 N21 1_555 1_555
C32 C33 1_555 1_555
C33 N21 1_555 1_555
C41 C42 1_555 1_555
C43 N35 1_555 1_555
C44 C45 1_555 1_555
C45 N36 1_555 1_555
C46 N37 1_555 1_555
C47 C48 1_555 1_555
C48 N40 1_555 1_555
N17 C26 1_555 1_555
N18 C25 1_555 1_555
N21 Zn5 1_555 1_555
N32 Zn16 1_555 1_555
N35 C44 1_555 1_555
N36 Zn16 1_555 1_555
N37 C47 1_555 1_555
N40 Zn16 1_555 1_555
H25 C25 1_555 1_555
H27 C27 1_555 1_555
H31 C31 1_555 1_555
H32 C32 1_555 1_555
H33 C33 1_555 1_555
H36 C36 1_555 1_555
H40 C40 1_555 1_555
H41 C41 1_555 1_555
H42 C42 1_555 1_555
H43 C43 1_555 1_555
H44 C44 1_555 1_555
H45 C45 1_555 1_555
H46 C46 1_555 1_555
H47 C47 1_555 1_555
H48 C48 1_555 1_555
C31 N22 1_555 1_555
C32 N22 1_555 1_555
C40 N32 1_555 1_555
C41 N32 1_555 1_555
C43 N36 1_555 1_555
C46 N40 1_555 1_555
Zn15 N28_2 1_555 1_555
C30_2 N20_2 1_555 1_555
C37_2 N27_2 1_555 1_555
C38_2 C39_2 1_555 1_555
C39_2 N27_2 1_555 1_555
N20_2 Zn8 1_555 1_555
N27_2 Zn8 1_555 1_555
N28_2 C37_2 1_555 1_555
N31 Zn15 1_555 1_555
N34 Zn15 1_555 1_555
H30_2 C30_2 1_555 1_555
H37_2 C37_2 1_555 1_555
H38_2 C38_2 1_555 1_555
H39_2 C39_2 1_555 1_555
C38_2 N28_2 1_555 1_555
Zn5_2 N17_2 1_555 1_555
Zn14 N33 1_555 1_555
Zn16_2 N18_2 1_555 1_555
C25_2 N17_2 1_555 1_555
C26_2 C27_2 1_555 1_555
C27_2 N18_2 1_555 1_555
C28_2 N19_2 1_555 1_555
C31_2 N21_2 1_555 1_555
C32_2 C33_2 1_555 1_555
C33_2 N21_2 1_555 1_555
C34_2 N23_2 1_555 1_555
C35_2 C36_2 1_555 1_555
C36_2 N23_2 1_555 1_555
C40_2 N31 1_555 1_555
C41_2 C42_2 1_555 1_555
C42_2 N31 1_555 1_555
C43_2 N33 1_555 1_555
C44_2 C45_2 1_555 1_555
C45_2 N36_2 1_555 1_555
C46_2 N39 1_555 1_555
C47_2 C48_2 1_555 1_555
C48_2 N40_2 1_555 1_555
N17_2 C26_2 1_555 1_555
N18_2 C25_2 1_555 1_555
N19_2 Zn5_2 1_555 1_555
N21_2 Zn5_2 1_555 1_555
N23_2 Zn5_2 1_555 1_555
N26 C34_2 1_555 1_555
N32_2 Zn16_2 1_555 1_555
N33 C44_2 1_555 1_555
N36_2 Zn16_2 1_555 1_555
N39 C47_2 1_555 1_555
N40_2 Zn16_2 1_555 1_555
H25_2 C25_2 1_555 1_555
H26_2 C26_2 1_555 1_555
H27_2 C27_2 1_555 1_555
H28_2 C28_2 1_555 1_555
H29_2 C29_2 1_555 1_555
H31_2 C31_2 1_555 1_555
H33_2 C33_2 1_555 1_555
H34_2 C34_2 1_555 1_555
H35_2 C35_2 1_555 1_555
H36_2 C36_2 1_555 1_555
H40_2 C40_2 1_555 1_555
H41_2 C41_2 1_555 1_555
H42_2 C42_2 1_555 1_555
H43_2 C43_2 1_555 1_555
H44_2 C44_2 1_555 1_555
H45_2 C45_2 1_555 1_555
H46_2 C46_2 1_555 1_555
H48_2 C48_2 1_555 1_555
C29_2 N19_2 1_555 1_555
C31_2 N22_2 1_555 1_555
C32_2 N22_2 1_555 1_555
C35_2 N26 1_555 1_555
C40_2 N32_2 1_555 1_555
C41_2 N32_2 1_555 1_555
C43_2 N36_2 1_555 1_555
C46_2 N40_2 1_555 1_555
Zn1_2 N1_2 1_555 1_555
Zn4_2 N2_2 1_555 1_555
C1_2 N1_2 1_555 1_555
C2_2 C3_2 1_555 1_555
C3_2 N2_2 1_555 1_555
C4_2 N3_2 1_555 1_555
C7_2 N5_2 1_555 1_555
C8_2 C9_2 1_555 1_555
C9_2 N5_2 1_555 1_555
C10_2 N7_2 1_555 1_555
C11_2 C12_2 1_555 1_555
C12_2 N7_2 1_555 1_555
C16_2 N11 1_555 1_555
C17_2 C18_2 1_555 1_555
C18_2 N11 1_555 1_555
C19_2 N34 1_555 1_555
C20_2 C21_2 1_555 1_555
C21_2 N14_2 1_555 1_555
C22_2 N38 1_555 1_555
C23_2 C24_2 1_555 1_555
C24_2 N16_2 1_555 1_555
N1_2 C2_2 1_555 1_555
N2_2 C1_2 1_555 1_555
N3_2 Zn1_2 1_555 1_555
N5_2 Zn1_2 1_555 1_555
N6_2 C7_2 1_555 1_555
N7_2 Zn1_2 1_555 1_555
N25 C10_2 1_555 1_555
N11 Zn14 1_555 1_555
N12_2 Zn4_2 1_555 1_555
N34 C20_2 1_555 1_555
N14_2 Zn4_2 1_555 1_555
N38 C23_2 1_555 1_555
N16_2 Zn4_2 1_555 1_555
H1_2 C1_2 1_555 1_555
H2_2 C2_2 1_555 1_555
H3_2 C3_2 1_555 1_555
H4_2 C4_2 1_555 1_555
H5_2 C5_2 1_555 1_555
H7_2 C7_2 1_555 1_555
H9_2 C9_2 1_555 1_555
H10_2 C10_2 1_555 1_555
H11_2 C11_2 1_555 1_555
H12_2 C12_2 1_555 1_555
H16_2 C16_2 1_555 1_555
H17_2 C17_2 1_555 1_555
H18_2 C18_2 1_555 1_555
H19_2 C19_2 1_555 1_555
H20_2 C20_2 1_555 1_555
H21_2 C21_2 1_555 1_555
H22_2 C22_2 1_555 1_555
H24_2 C24_2 1_555 1_555
C5_2 N3_2 1_555 1_555
C8_2 N6_2 1_555 1_555
C11_2 N25 1_555 1_555
C16_2 N12_2 1_555 1_555
C17_2 N12_2 1_555 1_555
C19_2 N14_2 1_555 1_555
C22_2 N16_2 1_555 1_555
Zn7 N4_2 1_555 1_555
Zn14 N10_2 1_555 1_555
C6_2 N4_2 1_555 1_555
C13_2 N9_2 1_555 1_555
C14_2 C15_2 1_555 1_555
C15_2 N9_2 1_555 1_555
N9_2 Zn7 1_555 1_555
N10_2 C13_2 1_555 1_555
H6_2 C6_2 1_555 1_555
H13_2 C13_2 1_555 1_555
H14_2 C14_2 1_555 1_555
H15_2 C15_2 1_555 1_555
C14_2 N10_2 1_555 1_555

#END
