
###############################################################################
#
# This file contains modified crystal structure data generated from the
# MOF subset of the Cambridge Structural Database (CSD) v543 
# hosted by the Cambridge Crystallographic Data Centre (CCDC).
#
# This work is licensed under the Creative Commons
# Attribution-NonCommercial-ShareAlike 4.0 International License.
# To view a copy of this license, visit
# http://creativecommons.org/licenses/by-nc-sa/4.0/
# or send a letter to
# Creative Commons, PO Box 1866, Mountain View, CA 94042, USA.
#
# CIF created using the CSD Python API on 29 September 2022
# The structure has been converted into the P1 space group
# The structure has a 3D framework
# The original CSD entry VEJYUF02 is in the orthorhombic crystal system
# The framework has been calculated to contain at least 10.0% void space
# The void calculation uses a probe of radius 1.32A, grid spacing 0.4
#
###############################################################################

data_VEJYUF02
_chemical_formula_moiety         '(C96 H96 N64 Zn12)n'
_symmetry_cell_setting           triclinic
_symmetry_space_group_name_H-M   'P 1'
_symmetry_Int_Tables_number      1
_space_group_name_Hall           'P 1'
loop_
_symmetry_equiv_pos_site_id
_symmetry_equiv_pos_as_xyz
1 x,y,z
_cell_length_a                   15.3486(14)
_cell_length_b                   15.1069(17)
_cell_length_c                   18.3430(19)
_cell_angle_alpha                90
_cell_angle_beta                 90
_cell_angle_gamma                90
_cell_volume                     4253.19
loop_
_atom_site_label
_atom_site_type_symbol
_atom_site_fract_x
_atom_site_fract_y
_atom_site_fract_z
Zn1 Zn 0.20565(15) 0.13848(17) 0.40844(13)
Zn2 Zn 0.51268(15) 0.33706(17) 0.31330(13)
N1 N 0.4461(8) 0.2344(10) 0.3538(8)
N2 N 0.3306(6) 0.1608(9) 0.3901(9)
N3 N 0.1058(8) 0.1310(11) 0.6165(6)
N4 N 0.1790(10) 0.1225(13) 0.5127(6)
N6 N 0.1630(10) 0.0369(10) 0.3492(7)
N7 N 0.0644(11) 0.3127(10) 0.2824(7)
N8 N 0.1395(10) 0.2406(9) 0.3660(7)
C1 C 0.3614(8) 0.2341(10) 0.3611(10)
C2 C 0.4004(9) 0.1135(10) 0.4048(12)
C3 C 0.4718(7) 0.1586(12) 0.3826(12)
C4 C 0.1096(10) 0.1520(13) 0.5474(7)
C5 C 0.2223(12) 0.0812(18) 0.5639(9)
C6 C 0.1790(13) 0.0874(18) 0.6278(7)
C8 C 0.1898(12) 0.0146(14) 0.2834(9)
C10 C 0.1033(13) 0.2385(10) 0.3011(8)
C11 C 0.0791(16) 0.3661(9) 0.3374(10)
C12 C 0.1217(15) 0.3208(11) 0.3899(8)
H1 H 0.3261 0.2811 0.3469
H2 H 0.4007 0.0582 0.4271
H3 H 0.5291 0.1394 0.3866
H4 H 0.0668 0.1855 0.5244
H5 H 0.2752 0.0523 0.5573
H6 H 0.1973 0.0643 0.6723
H8 H 0.2384 0.0376 0.2598
H10 H 0.1054 0.1890 0.2710
H11 H 0.0633 0.4254 0.3396
H12 H 0.1358 0.3428 0.4358
Zn4 Zn 0.01268(15) 0.16294(17) 0.68670(13)
Zn5 Zn 0.01268(15) 0.33706(17) 0.18670(13)
N9 N 0.6058(8) 0.3690(11) 0.3835(6)
N10 N 0.4241(9) 0.4331(10) 0.3053(8)
N11 N 0.5644(11) 0.3127(10) 0.2176(7)
N5 N 0.0759(9) 0.9331(10) 0.3053(8)
C7 C 0.0966(11) 0.9843(12) 0.3606(7)
C9 C 0.1353(13) 0.9527(14) 0.2564(8)
H7 H 0.0662 0.9832 0.4045
H9 H 0.1391 0.9281 0.2100
Zn3 Zn 0.98732(15) 0.83706(17) 0.31330(13)
H3_2 H 0.0291 0.3606 0.6134
N11_2 N 0.0644(11) 0.1873(10) 0.7824(7)
Zn1_2 Zn 0.70565(15) 0.36152(17) 0.59156(13)
N1_2 N 0.9461(8) 0.2656(10) 0.6462(8)
N2_2 N 0.8306(6) 0.3392(9) 0.6099(9)
N4_2 N 0.6790(10) 0.3775(13) 0.4873(6)
N5_2 N 0.5759(9) 0.5669(10) 0.6947(8)
N6_2 N 0.6630(10) 0.4631(10) 0.6508(7)
N7_2 N 0.5644(11) 0.1873(10) 0.7176(7)
N8_2 N 0.6395(10) 0.2594(9) 0.6340(7)
C1_2 C 0.8614(8) 0.2659(10) 0.6389(10)
C2_2 C 0.9004(9) 0.3865(10) 0.5952(12)
C3_2 C 0.9718(7) 0.3414(12) 0.6174(12)
C4_2 C 0.6096(10) 0.3480(13) 0.4526(7)
C5_2 C 0.7223(12) 0.4188(18) 0.4361(9)
C6_2 C 0.6790(13) 0.4126(18) 0.3722(7)
C7_2 C 0.5966(11) 0.5157(12) 0.6394(7)
C8_2 C 0.6898(12) 0.4854(14) 0.7166(9)
C9_2 C 0.6353(13) 0.5473(14) 0.7436(8)
C10_2 C 0.6033(13) 0.2615(10) 0.6989(8)
C11_2 C 0.5791(16) 0.1339(9) 0.6626(10)
C12_2 C 0.6217(15) 0.1792(11) 0.6101(8)
H1_2 H 0.8261 0.2189 0.6531
H2_2 H 0.9007 0.4418 0.5729
H4_2 H 0.5668 0.3145 0.4756
H5_2 H 0.7752 0.4477 0.4427
H6_2 H 0.6973 0.4357 0.3277
H7_2 H 0.5662 0.5168 0.5955
H8_2 H 0.7384 0.4624 0.7402
H9_2 H 0.6391 0.5719 0.7900
H10_2 H 0.6054 0.3110 0.7290
H11_2 H 0.5633 0.0746 0.6604
H12_2 H 0.6358 0.1572 0.5642
Zn3_2 Zn 0.48732(15) 0.66294(17) 0.68670(13)
Zn5_2 Zn 0.51268(15) 0.16294(17) 0.81330(13)
N10_2 N 0.9241(9) 0.0669(10) 0.6947(8)
Zn1_3 Zn 0.79435(15) 0.63848(17) 0.09156(13)
Zn2_2 Zn 0.48732(15) 0.83706(17) 0.18670(13)
N1_3 N 0.5539(8) 0.7344(10) 0.1462(8)
N2_3 N 0.6694(6) 0.6608(9) 0.1099(9)
N5_3 N 0.9241(9) 0.4331(10) 0.1947(8)
N6_3 N 0.8370(10) 0.5369(10) 0.1508(7)
N7_3 N 0.9356(11) 0.8127(10) 0.2176(7)
N8_3 N 0.8605(10) 0.7406(9) 0.1340(7)
C1_3 C 0.6386(8) 0.7341(10) 0.1389(10)
C2_3 C 0.5996(9) 0.6135(10) 0.0952(12)
C3_3 C 0.5282(7) 0.6586(12) 0.1174(12)
C7_3 C 0.9034(11) 0.4843(12) 0.1394(7)
C8_3 C 0.8102(12) 0.5146(14) 0.2166(9)
C9_3 C 0.8647(13) 0.4527(14) 0.2436(8)
C10_3 C 0.8967(13) 0.7385(10) 0.1989(8)
C11_3 C 0.9209(16) 0.8661(9) 0.1626(10)
C12_3 C 0.8783(15) 0.8208(11) 0.1101(8)
H1_3 H 0.6739 0.7811 0.1531
H2_3 H 0.5993 0.5582 0.0729
H3_3 H 0.4709 0.6394 0.1134
H7_3 H 0.9338 0.4832 0.0955
H8_3 H 0.7616 0.5376 0.2402
H9_3 H 0.8609 0.4281 0.2900
H10_3 H 0.8946 0.6890 0.2290
H11_3 H 0.9367 0.9254 0.1604
H12_3 H 0.8642 0.8428 0.0642
N9_2 N 0.3942(8) 0.8690(11) 0.1165(6)
N10_3 N 0.5759(9) 0.9331(10) 0.1947(8)
N11_3 N 0.4356(11) 0.8127(10) 0.2824(7)
N3_2 N 0.8942(8) 0.6310(11) 0.8835(6)
N4_3 N 0.8210(10) 0.6225(13) 0.9873(6)
C4_3 C 0.8904(10) 0.6520(13) 0.9526(7)
C5_3 C 0.7777(12) 0.5812(18) 0.9361(9)
C6_3 C 0.8210(13) 0.5874(18) 0.8722(7)
H4_3 H 0.9332 0.6855 0.9756
H5_3 H 0.7248 0.5523 0.9427
H6_3 H 0.8027 0.5643 0.8277
Zn4_2 Zn 0.98732(15) 0.66294(17) 0.81330(13)
N5_4 N 0.4241(9) 0.0669(10) 0.8053(8)
C7_4 C 0.4034(11) 0.0157(12) 0.8606(7)
C9_4 C 0.3647(13) 0.0473(14) 0.7564(8)
H7_4 H 0.4338 0.0168 0.9045
H9_4 H 0.3609 0.0719 0.7100
N4_4 N 0.3210(10) 0.8775(13) 0.0127(6)
C4_4 C 0.3904(10) 0.8480(13) 0.0474(7)
C5_4 C 0.2777(12) 0.9188(18) 0.0639(9)
C6_4 C 0.3210(13) 0.9126(18) 0.1278(7)
H4_4 H 0.4332 0.8145 0.0244
H5_4 H 0.2248 0.9477 0.0573
H6_4 H 0.3027 0.9357 0.1723
Zn1_4 Zn 0.29435(15) 0.86152(17) 0.90844(13)
N1_4 N 0.0539(8) 0.7656(10) 0.8538(8)
N2_4 N 0.1694(6) 0.8392(9) 0.8901(9)
N6_4 N 0.3370(10) 0.9631(10) 0.8492(7)
N7_4 N 0.4356(11) 0.6873(10) 0.7824(7)
N8_4 N 0.3605(10) 0.7594(9) 0.8660(7)
C1_4 C 0.1386(8) 0.7659(10) 0.8611(10)
C2_4 C 0.0996(9) 0.8865(10) 0.9048(12)
C3_4 C 0.0282(7) 0.8414(12) 0.8826(12)
C8_4 C 0.3102(12) 0.9854(14) 0.7834(9)
C10_4 C 0.3967(13) 0.7615(10) 0.8011(8)
C11_4 C 0.4209(16) 0.6339(9) 0.8374(10)
C12_4 C 0.3783(15) 0.6792(11) 0.8899(8)
H1_4 H 0.1739 0.7189 0.8469
H2_4 H 0.0993 0.9418 0.9271
H8_4 H 0.2616 0.9624 0.7598
H10_4 H 0.3946 0.8110 0.7710
H11_4 H 0.4367 0.5746 0.8396
H12_4 H 0.3642 0.6572 0.9358
N10_4 N 0.0759(9) 0.5669(10) 0.8053(8)
H3_4 H 0.9709 0.8606 0.8866
N11_4 N 0.9356(11) 0.6873(10) 0.7176(7)
C7_5 C 0.9034(11) 0.0157(12) 0.6394(7)
C9_5 C 0.8647(13) 0.0473(14) 0.7436(8)
H7_5 H 0.9338 0.0168 0.5955
H9_5 H 0.8609 0.0719 0.7900
Zn1_5 Zn 0.79435(15) 0.86152(17) 0.59156(13)
N1_5 N 0.5539(8) 0.7656(10) 0.6462(8)
N2_5 N 0.6694(6) 0.8392(9) 0.6099(9)
N3_3 N 0.8942(8) 0.8690(11) 0.3835(6)
N4_5 N 0.8210(10) 0.8775(13) 0.4873(6)
N6_5 N 0.8370(10) 0.9631(10) 0.6508(7)
N8_5 N 0.8605(10) 0.7594(9) 0.6340(7)
C1_5 C 0.6386(8) 0.7659(10) 0.6389(10)
C2_5 C 0.5996(9) 0.8865(10) 0.5952(12)
C3_5 C 0.5282(7) 0.8414(12) 0.6174(12)
C4_5 C 0.8904(10) 0.8480(13) 0.4526(7)
C5_5 C 0.7777(12) 0.9188(18) 0.4361(9)
C6_5 C 0.8210(13) 0.9126(18) 0.3722(7)
C8_5 C 0.8102(12) 0.9854(14) 0.7166(9)
C10_5 C 0.8967(13) 0.7615(10) 0.6989(8)
C11_5 C 0.9209(16) 0.6339(9) 0.6626(10)
C12_5 C 0.8783(15) 0.6792(11) 0.6101(8)
H1_5 H 0.6739 0.7189 0.6531
H2_5 H 0.5993 0.9418 0.5729
H3_5 H 0.4709 0.8606 0.6134
H4_5 H 0.9332 0.8145 0.4756
H5_5 H 0.7248 0.9477 0.4427
H6_5 H 0.8027 0.9357 0.3277
H8_5 H 0.7616 0.9624 0.7402
H10_5 H 0.8946 0.8110 0.7290
H11_5 H 0.9367 0.5746 0.6604
H12_5 H 0.8642 0.6572 0.5642
N9_3 N 0.3942(8) 0.6310(11) 0.6165(6)
Zn1_6 Zn 0.29435(15) 0.63848(17) 0.40844(13)
N1_6 N 0.0539(8) 0.7344(10) 0.3538(8)
N2_6 N 0.1694(6) 0.6608(9) 0.3901(9)
N4_6 N 0.3210(10) 0.6225(13) 0.5127(6)
N6_6 N 0.3370(10) 0.5369(10) 0.3492(7)
N8_6 N 0.3605(10) 0.7406(9) 0.3660(7)
C1_6 C 0.1386(8) 0.7341(10) 0.3611(10)
C2_6 C 0.0996(9) 0.6135(10) 0.4048(12)
C3_6 C 0.0282(7) 0.6586(12) 0.3826(12)
C4_6 C 0.3904(10) 0.6520(13) 0.5474(7)
C5_6 C 0.2777(12) 0.5812(18) 0.5639(9)
C6_6 C 0.3210(13) 0.5874(18) 0.6278(7)
C7_6 C 0.4034(11) 0.4843(12) 0.3606(7)
C8_6 C 0.3102(12) 0.5146(14) 0.2834(9)
C9_6 C 0.3647(13) 0.4527(14) 0.2564(8)
C10_6 C 0.3967(13) 0.7385(10) 0.3011(8)
C11_6 C 0.4209(16) 0.8661(9) 0.3374(10)
C12_6 C 0.3783(15) 0.8208(11) 0.3899(8)
H1_6 H 0.1739 0.7811 0.3469
H2_6 H 0.0993 0.5582 0.4271
H4_6 H 0.4332 0.6855 0.5244
H5_6 H 0.2248 0.5523 0.5573
H6_6 H 0.3027 0.5643 0.6723
H7_6 H 0.4338 0.4832 0.4045
H8_6 H 0.2616 0.5376 0.2598
H9_6 H 0.3609 0.4281 0.2100
H10_6 H 0.3946 0.6890 0.2710
H11_6 H 0.4367 0.9254 0.3396
H12_6 H 0.3642 0.8428 0.4358
H3_6 H 0.9709 0.6394 0.3866
N3_4 N 0.1058(8) 0.3690(11) 0.1165(6)
N4_7 N 0.1790(10) 0.3775(13) 0.0127(6)
C4_7 C 0.1096(10) 0.3480(13) 0.0474(7)
C5_7 C 0.2223(12) 0.4188(18) 0.0639(9)
C6_7 C 0.1790(13) 0.4126(18) 0.1278(7)
H4_7 H 0.0668 0.3145 0.0244
H5_7 H 0.2752 0.4477 0.0573
H6_7 H 0.1973 0.4357 0.1723
Zn1_7 Zn 0.20565(15) 0.36152(17) 0.90844(13)
N1_7 N 0.4461(8) 0.2656(10) 0.8538(8)
N2_7 N 0.3306(6) 0.3392(9) 0.8901(9)
N6_7 N 0.1630(10) 0.4631(10) 0.8492(7)
N8_7 N 0.1395(10) 0.2594(9) 0.8660(7)
C1_7 C 0.3614(8) 0.2659(10) 0.8611(10)
C2_7 C 0.4004(9) 0.3865(10) 0.9048(12)
C3_7 C 0.4718(7) 0.3414(12) 0.8826(12)
C7_7 C 0.0966(11) 0.5157(12) 0.8606(7)
C8_7 C 0.1898(12) 0.4854(14) 0.7834(9)
C9_7 C 0.1353(13) 0.5473(14) 0.7564(8)
C10_7 C 0.1033(13) 0.2615(10) 0.8011(8)
C11_7 C 0.0791(16) 0.1339(9) 0.8374(10)
C12_7 C 0.1217(15) 0.1792(11) 0.8899(8)
H1_7 H 0.3261 0.2189 0.8469
H2_7 H 0.4007 0.4418 0.9271
H3_7 H 0.5291 0.3606 0.8866
H7_7 H 0.0662 0.5168 0.9045
H8_7 H 0.2384 0.4624 0.7598
H9_7 H 0.1391 0.5719 0.7100
H10_7 H 0.1054 0.3110 0.7710
H11_7 H 0.0633 0.0746 0.8396
H12_7 H 0.1358 0.1572 0.9358
N9_4 N 0.6058(8) 0.1310(11) 0.8835(6)
H3_8 H 0.0291 0.1394 0.1134
Zn1_8 Zn 0.70565(15) 0.13848(17) 0.09156(13)
N1_8 N 0.9461(8) 0.2344(10) 0.1462(8)
N2_8 N 0.8306(6) 0.1608(9) 0.1099(9)
N6_8 N 0.6630(10) 0.0369(10) 0.1508(7)
N8_8 N 0.6395(10) 0.2406(9) 0.1340(7)
C1_8 C 0.8614(8) 0.2341(10) 0.1389(10)
C2_8 C 0.9004(9) 0.1135(10) 0.0952(12)
C3_8 C 0.9718(7) 0.1586(12) 0.1174(12)
C8_8 C 0.6898(12) 0.0146(14) 0.2166(9)
C10_8 C 0.6033(13) 0.2385(10) 0.1989(8)
C11_8 C 0.5791(16) 0.3661(9) 0.1626(10)
C12_8 C 0.6217(15) 0.3208(11) 0.1101(8)
H1_8 H 0.8261 0.2811 0.1531
H2_8 H 0.9007 0.0582 0.0729
H8_8 H 0.7384 0.0376 0.2402
H10_8 H 0.6054 0.1890 0.2290
H11_8 H 0.5633 0.4254 0.1604
H12_8 H 0.6358 0.3428 0.0642
N4_8 N 0.6790(10) 0.1225(13) 0.9873(6)
C4_8 C 0.6096(10) 0.1520(13) 0.9526(7)
C5_8 C 0.7223(12) 0.0812(18) 0.9361(9)
C6_8 C 0.6790(13) 0.0874(18) 0.8722(7)
H4_8 H 0.5668 0.1855 0.9756
H5_8 H 0.7752 0.0523 0.9427
H6_8 H 0.6973 0.0643 0.8277
C7_8 C 0.5966(11) 0.9843(12) 0.1394(7)
C9_8 C 0.6353(13) 0.9527(14) 0.2436(8)
H7_8 H 0.5662 0.9832 0.0955
H9_8 H 0.6391 0.9281 0.2900
loop_
_geom_bond_atom_site_label_1
_geom_bond_atom_site_label_2
_geom_bond_site_symmetry_1
_geom_bond_site_symmetry_2
Zn1 N2 1_555 1_555
Zn2 N1 1_555 1_555
N1 C1 1_555 1_555
N2 C1 1_555 1_555
N3 C4 1_555 1_555
N4 Zn1 1_555 1_555
N6 Zn1 1_555 1_555
N7 C10 1_555 1_555
N8 Zn1 1_555 1_555
C1 H1 1_555 1_555
C2 N2 1_555 1_555
C3 N1 1_555 1_555
C4 N4 1_555 1_555
C5 N4 1_555 1_555
C6 N3 1_555 1_555
C8 N6 1_555 1_555
C10 N8 1_555 1_555
C11 N7 1_555 1_555
C12 N8 1_555 1_555
H2 C2 1_555 1_555
H3 C3 1_555 1_555
H4 C4 1_555 1_555
H5 C5 1_555 1_555
H6 C6 1_555 1_555
H8 C8 1_555 1_555
H10 C10 1_555 1_555
H11 C11 1_555 1_555
H12 C12 1_555 1_555
Zn4 N3 1_555 1_555
Zn5 N7 1_555 1_555
N9 Zn2 1_555 1_555
N10 Zn2 1_555 1_555
N11 Zn2 1_555 1_555
C2 C3 1_555 1_555
C5 C6 1_555 1_555
C11 C12 1_555 1_555
N5 C7 1_555 1_555
C9 N5 1_555 1_555
H7 C7 1_555 1_555
H9 C9 1_555 1_555
N11_2 Zn4 1_555 1_555
Zn1_2 N2_2 1_555 1_555
N1_2 C1_2 1_555 1_555
N2_2 C1_2 1_555 1_555
N9 C4_2 1_555 1_555
N4_2 Zn1_2 1_555 1_555
N5_2 C7_2 1_555 1_555
N6_2 Zn1_2 1_555 1_555
N7_2 C10_2 1_555 1_555
N8_2 Zn1_2 1_555 1_555
C1_2 H1_2 1_555 1_555
C2_2 N2_2 1_555 1_555
C3_2 N1_2 1_555 1_555
C4_2 N4_2 1_555 1_555
C5_2 N4_2 1_555 1_555
C6_2 N9 1_555 1_555
C7_2 N6_2 1_555 1_555
C8_2 N6_2 1_555 1_555
C9_2 N5_2 1_555 1_555
C10_2 N8_2 1_555 1_555
C11_2 N7_2 1_555 1_555
C12_2 N8_2 1_555 1_555
H2_2 C2_2 1_555 1_555
H4_2 C4_2 1_555 1_555
H5_2 C5_2 1_555 1_555
H6_2 C6_2 1_555 1_555
H7_2 C7_2 1_555 1_555
H8_2 C8_2 1_555 1_555
H9_2 C9_2 1_555 1_555
H10_2 C10_2 1_555 1_555
H11_2 C11_2 1_555 1_555
H12_2 C12_2 1_555 1_555
Zn3_2 N5_2 1_555 1_555
Zn5_2 N7_2 1_555 1_555
C2_2 C3_2 1_555 1_555
C5_2 C6_2 1_555 1_555
C8_2 C9_2 1_555 1_555
C11_2 C12_2 1_555 1_555
Zn1_3 N2_3 1_555 1_555
Zn2_2 N1_3 1_555 1_555
N1_3 C1_3 1_555 1_555
N2_3 C1_3 1_555 1_555
N5_3 C7_3 1_555 1_555
N6_3 Zn1_3 1_555 1_555
N7_3 C10_3 1_555 1_555
N8_3 Zn1_3 1_555 1_555
C1_3 H1_3 1_555 1_555
C2_3 N2_3 1_555 1_555
C3_3 N1_3 1_555 1_555
C7_3 N6_3 1_555 1_555
C8_3 N6_3 1_555 1_555
C9_3 N5_3 1_555 1_555
C10_3 N8_3 1_555 1_555
C11_3 N7_3 1_555 1_555
C12_3 N8_3 1_555 1_555
H2_3 C2_3 1_555 1_555
H3_3 C3_3 1_555 1_555
H7_3 C7_3 1_555 1_555
H8_3 C8_3 1_555 1_555
H9_3 C9_3 1_555 1_555
H10_3 C10_3 1_555 1_555
H11_3 C11_3 1_555 1_555
H12_3 C12_3 1_555 1_555
Zn3 N7_3 1_555 1_555
N9_2 Zn2_2 1_555 1_555
N10_3 Zn2_2 1_555 1_555
N11_3 Zn2_2 1_555 1_555
C2_3 C3_3 1_555 1_555
C8_3 C9_3 1_555 1_555
C11_3 C12_3 1_555 1_555
N3_2 C4_3 1_555 1_555
C4_3 N4_3 1_555 1_555
C5_3 N4_3 1_555 1_555
C6_3 N3_2 1_555 1_555
H4_3 C4_3 1_555 1_555
H5_3 C5_3 1_555 1_555
H6_3 C6_3 1_555 1_555
Zn4_2 N3_2 1_555 1_555
C5_3 C6_3 1_555 1_555
N5_4 C7_4 1_555 1_555
C9_4 N5_4 1_555 1_555
H7_4 C7_4 1_555 1_555
H9_4 C9_4 1_555 1_555
Zn5_2 N5_4 1_555 1_555
N9_2 C4_4 1_555 1_555
C4_4 N4_4 1_555 1_555
C5_4 N4_4 1_555 1_555
C6_4 N9_2 1_555 1_555
H4_4 C4_4 1_555 1_555
H5_4 C5_4 1_555 1_555
H6_4 C6_4 1_555 1_555
C5_4 C6_4 1_555 1_555
Zn1_4 N2_4 1_555 1_555
N1_4 C1_4 1_555 1_555
N2_4 C1_4 1_555 1_555
N6_4 Zn1_4 1_555 1_555
N7_4 C10_4 1_555 1_555
N8_4 Zn1_4 1_555 1_555
C1_4 H1_4 1_555 1_555
C2_4 N2_4 1_555 1_555
C3_4 N1_4 1_555 1_555
C8_4 N6_4 1_555 1_555
C10_4 N8_4 1_555 1_555
C11_4 N7_4 1_555 1_555
C12_4 N8_4 1_555 1_555
H2_4 C2_4 1_555 1_555
H8_4 C8_4 1_555 1_555
H10_4 C10_4 1_555 1_555
H11_4 C11_4 1_555 1_555
H12_4 C12_4 1_555 1_555
Zn3_2 N7_4 1_555 1_555
C2_4 C3_4 1_555 1_555
C11_4 C12_4 1_555 1_555
N11_4 Zn4_2 1_555 1_555
N10_2 C7_5 1_555 1_555
C9_5 N10_2 1_555 1_555
H7_5 C7_5 1_555 1_555
H9_5 C9_5 1_555 1_555
Zn1_5 N2_5 1_555 1_555
Zn3_2 N1_5 1_555 1_555
N1_5 C1_5 1_555 1_555
N2_5 C1_5 1_555 1_555
N3_3 C4_5 1_555 1_555
N4_5 Zn1_5 1_555 1_555
N6_5 Zn1_5 1_555 1_555
N11_4 C10_5 1_555 1_555
N8_5 Zn1_5 1_555 1_555
C1_5 H1_5 1_555 1_555
C2_5 N2_5 1_555 1_555
C3_5 N1_5 1_555 1_555
C4_5 N4_5 1_555 1_555
C5_5 N4_5 1_555 1_555
C6_5 N3_3 1_555 1_555
C8_5 N6_5 1_555 1_555
C10_5 N8_5 1_555 1_555
C11_5 N11_4 1_555 1_555
C12_5 N8_5 1_555 1_555
H2_5 C2_5 1_555 1_555
H3_5 C3_5 1_555 1_555
H4_5 C4_5 1_555 1_555
H5_5 C5_5 1_555 1_555
H6_5 C6_5 1_555 1_555
H8_5 C8_5 1_555 1_555
H10_5 C10_5 1_555 1_555
H11_5 C11_5 1_555 1_555
H12_5 C12_5 1_555 1_555
Zn3 N3_3 1_555 1_555
N9_3 Zn3_2 1_555 1_555
C2_5 C3_5 1_555 1_555
C5_5 C6_5 1_555 1_555
C11_5 C12_5 1_555 1_555
Zn1_6 N2_6 1_555 1_555
N1_6 C1_6 1_555 1_555
N2_6 C1_6 1_555 1_555
N9_3 C4_6 1_555 1_555
N4_6 Zn1_6 1_555 1_555
N10 C7_6 1_555 1_555
N6_6 Zn1_6 1_555 1_555
N11_3 C10_6 1_555 1_555
N8_6 Zn1_6 1_555 1_555
C1_6 H1_6 1_555 1_555
C2_6 N2_6 1_555 1_555
C3_6 N1_6 1_555 1_555
C4_6 N4_6 1_555 1_555
C5_6 N4_6 1_555 1_555
C6_6 N9_3 1_555 1_555
C7_6 N6_6 1_555 1_555
C8_6 N6_6 1_555 1_555
C9_6 N10 1_555 1_555
C10_6 N8_6 1_555 1_555
C11_6 N11_3 1_555 1_555
C12_6 N8_6 1_555 1_555
H2_6 C2_6 1_555 1_555
H4_6 C4_6 1_555 1_555
H5_6 C5_6 1_555 1_555
H6_6 C6_6 1_555 1_555
H7_6 C7_6 1_555 1_555
H8_6 C8_6 1_555 1_555
H9_6 C9_6 1_555 1_555
H10_6 C10_6 1_555 1_555
H11_6 C11_6 1_555 1_555
H12_6 C12_6 1_555 1_555
C2_6 C3_6 1_555 1_555
C5_6 C6_6 1_555 1_555
C8_6 C9_6 1_555 1_555
C11_6 C12_6 1_555 1_555
N3_4 C4_7 1_555 1_555
C4_7 N4_7 1_555 1_555
C5_7 N4_7 1_555 1_555
C6_7 N3_4 1_555 1_555
H4_7 C4_7 1_555 1_555
H5_7 C5_7 1_555 1_555
H6_7 C6_7 1_555 1_555
Zn5 N3_4 1_555 1_555
C5_7 C6_7 1_555 1_555
Zn1_7 N2_7 1_555 1_555
Zn5_2 N1_7 1_555 1_555
N1_7 C1_7 1_555 1_555
N2_7 C1_7 1_555 1_555
N10_4 C7_7 1_555 1_555
N6_7 Zn1_7 1_555 1_555
N11_2 C10_7 1_555 1_555
N8_7 Zn1_7 1_555 1_555
C1_7 H1_7 1_555 1_555
C2_7 N2_7 1_555 1_555
C3_7 N1_7 1_555 1_555
C7_7 N6_7 1_555 1_555
C8_7 N6_7 1_555 1_555
C9_7 N10_4 1_555 1_555
C10_7 N8_7 1_555 1_555
C11_7 N11_2 1_555 1_555
C12_7 N8_7 1_555 1_555
H2_7 C2_7 1_555 1_555
H3_7 C3_7 1_555 1_555
H7_7 C7_7 1_555 1_555
H8_7 C8_7 1_555 1_555
H9_7 C9_7 1_555 1_555
H10_7 C10_7 1_555 1_555
H11_7 C11_7 1_555 1_555
H12_7 C12_7 1_555 1_555
N9_4 Zn5_2 1_555 1_555
C2_7 C3_7 1_555 1_555
C8_7 C9_7 1_555 1_555
C11_7 C12_7 1_555 1_555
Zn1_8 N2_8 1_555 1_555
N1_8 C1_8 1_555 1_555
N2_8 C1_8 1_555 1_555
N6_8 Zn1_8 1_555 1_555
N11 C10_8 1_555 1_555
N8_8 Zn1_8 1_555 1_555
C1_8 H1_8 1_555 1_555
C2_8 N2_8 1_555 1_555
C3_8 N1_8 1_555 1_555
C8_8 N6_8 1_555 1_555
C10_8 N8_8 1_555 1_555
C11_8 N11 1_555 1_555
C12_8 N8_8 1_555 1_555
H2_8 C2_8 1_555 1_555
H8_8 C8_8 1_555 1_555
H10_8 C10_8 1_555 1_555
H11_8 C11_8 1_555 1_555
H12_8 C12_8 1_555 1_555
C2_8 C3_8 1_555 1_555
C11_8 C12_8 1_555 1_555
N9_4 C4_8 1_555 1_555
C4_8 N4_8 1_555 1_555
C5_8 N4_8 1_555 1_555
C6_8 N9_4 1_555 1_555
H4_8 C4_8 1_555 1_555
H5_8 C5_8 1_555 1_555
H6_8 C6_8 1_555 1_555
C5_8 C6_8 1_555 1_555
N10_3 C7_8 1_555 1_555
C9_8 N10_3 1_555 1_555
H7_8 C7_8 1_555 1_555
H9_8 C9_8 1_555 1_555

#END
