
###############################################################################
#
# This file contains modified crystal structure data generated from the
# MOF subset of the Cambridge Structural Database (CSD) v543 
# hosted by the Cambridge Crystallographic Data Centre (CCDC).
#
# This work is licensed under the Creative Commons
# Attribution-NonCommercial-ShareAlike 4.0 International License.
# To view a copy of this license, visit
# http://creativecommons.org/licenses/by-nc-sa/4.0/
# or send a letter to
# Creative Commons, PO Box 1866, Mountain View, CA 94042, USA.
#
# CIF created using the CSD Python API on 29 September 2022
# The structure has been converted into the P1 space group
# The structure has a 3D framework
# The original CSD entry VEJYUV05 is in the monoclinic crystal system
# The framework has been calculated to contain at least 10.0% void space
# The void calculation uses a probe of radius 1.32A, grid spacing 0.4
#
###############################################################################

data_VEJYUV05
_chemical_formula_moiety         '(C96 H96 N64 Zn16)n'
_symmetry_cell_setting           triclinic
_symmetry_space_group_name_H-M   'P 1'
_symmetry_Int_Tables_number      1
_space_group_name_Hall           'P 1'
loop_
_symmetry_equiv_pos_site_id
_symmetry_equiv_pos_as_xyz
1 x,y,z
_cell_length_a                   17.450(5)
_cell_length_b                   13.912(5)
_cell_length_c                   14.118(5)
_cell_angle_alpha                90
_cell_angle_beta                 102.18(3)
_cell_angle_gamma                90
_cell_volume                     3350.2
loop_
_atom_site_label
_atom_site_type_symbol
_atom_site_fract_x
_atom_site_fract_y
_atom_site_fract_z
Zn1 Zn 0.2055(6) 0.0291(7) 0.3997(8)
Zn4 Zn 0.4145(6) 0.1932(7) 0.2062(8)
C1 C 0.328(2) 0.126(2) 0.335(2)
C2 C 0.384(3) 0.0142(19) 0.4278(17)
C3 C 0.4379(19) 0.057(3) 0.386(2)
C7 C 0.072(3) 0.158(3) 0.4117(16)
C8 C 0.113(4) 0.287(3) 0.4878(19)
C9 C 0.176(2) 0.231(4) 0.483(2)
C11 C 0.0650(16) 0.008(5) 0.117(3)
C12 C 0.103(2) 0.057(3) 0.196(4)
C16 C 0.355(2) 0.082(2) 0.024(3)
C17 C 0.268(3) 0.092(2) 0.109(3)
C18 C 0.238(2) 0.042(2) 0.028(4)
C19 C 0.556(3) 0.113(3) 0.1669(19)
C20 C 0.600(3) 0.215(4) 0.0804(18)
C21 C 0.534(3) 0.251(3) 0.103(3)
C22 C 0.3503(15) 0.370(4) 0.285(3)
C23 C 0.3280(13) 0.469(3) 0.167(4)
C24 C 0.3564(15) 0.387(5) 0.136(3)
N1 N 0.314(2) 0.058(3) 0.396(2)
N2 N 0.403(3) 0.128(2) 0.3267(19)
N5 N 0.151(4) 0.149(3) 0.435(2)
N6 N 0.047(3) 0.242(4) 0.443(3)
N12 N 0.342(3) 0.1179(16) 0.108(3)
N13 N 0.615(2) 0.127(4) 0.121(3)
N14 N 0.505(2) 0.186(5) 0.158(3)
N15 N 0.3238(11) 0.459(4) 0.261(4)
N16 N 0.3709(10) 0.323(3) 0.211(5)
H1 H 0.2891 0.1689 0.3014
H3 H 0.4917 0.0394 0.3961
H7 H 0.0384 0.1107 0.3771
H8 H 0.1156 0.3483 0.5179
H9 H 0.2295 0.2470 0.5094
H11 H 0.0314 0.0348 0.0620
H12 H 0.0994 0.1249 0.2050
H16 H 0.4028 0.0885 0.0027
H17 H 0.2413 0.1073 0.1597
H18 H 0.1861 0.0155 0.0123
H19 H 0.5509 0.0560 0.2027
H20 H 0.6311 0.2468 0.0420
H21 H 0.5110 0.3116 0.0827
H22 H 0.3542 0.3427 0.3472
H23 H 0.3132 0.5252 0.1287
H24 H 0.3648 0.3759 0.0729
Zn13 Zn 0.7076(6) 0.0426(7) 0.1410(8)
Zn15 Zn 0.2924(6) 0.5426(7) 0.3590(8)
N30 N 0.292(3) 0.0343(17) 0.973(2)
N39 N 0.3238(11) 0.041(4) 0.761(4)
Zn2 Zn 0.0635(6) 0.7239(6) 0.5924(8)
Zn3 Zn 0.2924(6) 0.9574(7) 0.8590(8)
C4 C 0.120(3) 0.873(5) 0.4777(12)
C5 C 0.238(2) 0.838(5) 0.4713(11)
C6 C 0.201(4) 0.757(3) 0.4917(11)
C10 C 0.132(2) 0.909(3) 0.217(5)
C13 C 0.175(3) 0.845(2) 0.727(3)
C14 C 0.118(3) 0.891(2) 0.838(2)
C15 C 0.067(2) 0.839(2) 0.773(4)
N3 N 0.187(4) 0.912(3) 0.4623(9)
N4 N 0.127(3) 0.779(4) 0.4962(9)
N7 N 0.1453(17) 0.996(5) 0.261(3)
N8 N 0.083(3) 0.914(4) 0.130(4)
N9 N 0.102(3) 0.8091(17) 0.702(3)
N10 N 0.187(2) 0.896(2) 0.809(3)
H2 H 0.3934 0.9622 0.4723
H4 H 0.0735 0.9089 0.4759
H5 H 0.2908 0.8416 0.4644
H6 H 0.2244 0.6946 0.5012
H10 H 0.1543 0.8511 0.2462
H13 H 0.2137 0.8357 0.6892
H14 H 0.1080 0.9201 0.8953
H15 H 0.0141 0.8251 0.7773
Zn8 Zn 0.0635(6) 0.7761(6) 0.0924(8)
N26 N 0.083(3) 0.586(4) 0.630(4)
N35 N 0.385(2) 0.873(4) 0.879(3)
Zn6 Zn 0.9365(6) 0.2761(6) 0.4076(8)
Zn7 Zn 0.9365(6) 0.2239(6) 0.9076(8)
C28 C 0.880(3) 0.127(5) 0.5223(12)
C29 C 0.762(2) 0.162(5) 0.5287(11)
C30 C 0.799(4) 0.243(3) 0.5083(11)
C34 C 0.868(2) 0.091(3) 0.783(5)
C37 C 0.825(3) 0.155(2) 0.273(3)
C38 C 0.882(3) 0.109(2) 0.162(2)
C39 C 0.933(2) 0.161(2) 0.227(4)
N19 N 0.813(4) 0.088(3) 0.5377(9)
N20 N 0.873(3) 0.221(4) 0.5038(9)
N23 N 0.8547(17) 0.004(5) 0.739(3)
N24 N 0.917(3) 0.086(4) 0.870(4)
N25 N 0.917(3) 0.414(4) 0.370(4)
N27 N 0.898(3) 0.1909(17) 0.298(3)
N28 N 0.813(2) 0.104(2) 0.191(3)
H26 H 0.6066 0.0378 0.5277
H28 H 0.9265 0.0911 0.5241
H29 H 0.7092 0.1584 0.5356
H30 H 0.7756 0.3054 0.4988
H34 H 0.8457 0.1489 0.7538
H37 H 0.7863 0.1643 0.3108
H38 H 0.8920 0.0799 0.1047
H39 H 0.9859 0.1749 0.2227
N29 N 0.708(3) 0.9657(17) 0.027(2)
Zn5 Zn 0.7945(6) 0.9709(7) 0.6003(8)
Zn14 Zn 0.7076(6) 0.4574(7) 0.6410(8)
Zn16 Zn 0.5855(6) 0.8068(7) 0.7938(8)
C25 C 0.672(2) 0.874(2) 0.665(2)
C26 C 0.616(3) 0.9858(19) 0.5722(17)
C27 C 0.5621(19) 0.943(3) 0.614(2)
C31 C 0.928(3) 0.842(3) 0.5883(16)
C32 C 0.887(4) 0.713(3) 0.5122(19)
C33 C 0.824(2) 0.769(4) 0.517(2)
C35 C 0.9350(16) 0.992(5) 0.883(3)
C36 C 0.897(2) 0.943(3) 0.804(4)
C40 C 0.645(2) 0.918(2) 0.976(3)
C41 C 0.732(3) 0.908(2) 0.891(3)
C42 C 0.762(2) 0.958(2) 0.972(4)
C43 C 0.444(3) 0.887(3) 0.8331(19)
C44 C 0.400(3) 0.785(4) 0.9196(18)
C45 C 0.466(3) 0.749(3) 0.897(3)
C46 C 0.6497(15) 0.630(4) 0.715(3)
C47 C 0.6720(13) 0.531(3) 0.833(4)
C48 C 0.6436(15) 0.613(5) 0.864(3)
N17 N 0.686(2) 0.942(3) 0.604(2)
N18 N 0.597(3) 0.872(2) 0.6733(19)
N21 N 0.849(4) 0.851(3) 0.565(2)
N22 N 0.953(3) 0.758(4) 0.557(3)
N32 N 0.658(3) 0.8821(16) 0.892(3)
N36 N 0.495(2) 0.814(5) 0.842(3)
N37 N 0.6762(11) 0.541(4) 0.739(4)
N38 N 0.6762(11) 0.959(4) 0.239(4)
N40 N 0.6291(10) 0.677(3) 0.789(5)
H25 H 0.7109 0.8311 0.6986
H27 H 0.5083 0.9606 0.6039
H31 H 0.9616 0.8893 0.6229
H32 H 0.8844 0.6517 0.4821
H33 H 0.7705 0.7530 0.4906
H35 H 0.9686 0.9652 0.9380
H36 H 0.9006 0.8751 0.7950
H40 H 0.5972 0.9115 0.9973
H41 H 0.7587 0.8927 0.8403
H42 H 0.8139 0.9845 0.9877
H43 H 0.4491 0.9440 0.7973
H44 H 0.3689 0.7532 0.9580
H45 H 0.4890 0.6884 0.9173
H46 H 0.6458 0.6573 0.6528
H47 H 0.6868 0.4748 0.8713
H48 H 0.6352 0.6241 0.9271
C37_2 C 0.175(3) 0.655(2) 0.227(3)
C38_2 C 0.118(3) 0.609(2) 0.338(2)
C39_2 C 0.067(2) 0.661(2) 0.273(4)
N27_2 N 0.102(3) 0.6909(17) 0.202(3)
N28_2 N 0.187(2) 0.604(2) 0.309(3)
N31 N 0.292(3) 0.4657(17) 0.473(2)
N34 N 0.385(2) 0.627(4) 0.379(3)
H30_2 H 0.2244 0.8054 0.0012
H32_2 H 0.1156 0.1517 0.0179
H33_2 H 0.2295 0.2530 0.0094
H37_2 H 0.2137 0.6643 0.1892
H38_2 H 0.1080 0.5799 0.3953
H39_2 H 0.0141 0.6749 0.2773
Zn5_2 Zn 0.2055(6) 0.4709(7) 0.8997(8)
Zn16_2 Zn 0.4145(6) 0.3068(7) 0.7062(8)
C25_2 C 0.328(2) 0.374(2) 0.835(2)
C26_2 C 0.384(3) 0.4858(19) 0.9278(17)
C27_2 C 0.4379(19) 0.443(3) 0.886(2)
C28_2 C 0.120(3) 0.627(5) 0.9777(12)
C29_2 C 0.238(2) 0.662(5) 0.9713(11)
C30_2 C 0.201(4) 0.743(3) 0.9917(11)
C31_2 C 0.072(3) 0.342(3) 0.9117(16)
C32_2 C 0.113(4) 0.213(3) 0.9878(19)
C33_2 C 0.176(2) 0.269(4) 0.983(2)
C34_2 C 0.132(2) 0.591(3) 0.717(5)
C35_2 C 0.0650(16) 0.492(5) 0.617(3)
C36_2 C 0.103(2) 0.443(3) 0.696(4)
C40_2 C 0.355(2) 0.418(2) 0.524(3)
C41_2 C 0.268(3) 0.408(2) 0.609(3)
C42_2 C 0.238(2) 0.458(2) 0.528(4)
C43_2 C 0.556(3) 0.387(3) 0.6669(19)
C44_2 C 0.600(3) 0.285(4) 0.5804(18)
C45_2 C 0.534(3) 0.249(3) 0.603(3)
C46_2 C 0.3503(15) 0.130(4) 0.785(3)
C47_2 C 0.3280(13) 0.031(3) 0.667(4)
C48_2 C 0.3564(15) 0.113(5) 0.636(3)
N17_2 N 0.314(2) 0.442(3) 0.896(2)
N18_2 N 0.403(3) 0.372(2) 0.8267(19)
N19_2 N 0.187(4) 0.588(3) 0.9623(9)
N20_2 N 0.127(3) 0.721(4) 0.9962(9)
N21_2 N 0.151(4) 0.351(3) 0.935(2)
N22_2 N 0.047(3) 0.258(4) 0.943(3)
N23_2 N 0.1453(17) 0.504(5) 0.761(3)
N32_2 N 0.342(3) 0.3821(16) 0.608(3)
N33 N 0.615(2) 0.373(4) 0.621(3)
N36_2 N 0.505(2) 0.314(5) 0.658(3)
N40_2 N 0.3709(10) 0.177(3) 0.711(5)
H25_2 H 0.2891 0.3311 0.8014
H26_2 H 0.3934 0.5378 0.9723
H27_2 H 0.4917 0.4606 0.8961
H28_2 H 0.0735 0.5911 0.9759
H29_2 H 0.2908 0.6584 0.9644
H31_2 H 0.0384 0.3893 0.8771
H34_2 H 0.1543 0.6489 0.7462
H35_2 H 0.0314 0.4652 0.5620
H36_2 H 0.0994 0.3751 0.7050
H40_2 H 0.4028 0.4115 0.5027
H41_2 H 0.2413 0.3927 0.6597
H42_2 H 0.1861 0.4845 0.5123
H43_2 H 0.5509 0.4440 0.7027
H44_2 H 0.6311 0.2532 0.5420
H45_2 H 0.5110 0.1884 0.5827
H46_2 H 0.3542 0.1573 0.8472
H48_2 H 0.3648 0.1241 0.5729
H47_2 H 0.3132 0.9748 0.6287
H23_2 H 0.6868 0.0252 0.3713
Zn1_2 Zn 0.7945(6) 0.5291(7) 0.1003(8)
Zn4_2 Zn 0.5855(6) 0.6932(7) 0.2938(8)
C1_2 C 0.672(2) 0.626(2) 0.165(2)
C2_2 C 0.616(3) 0.5142(19) 0.0722(17)
C3_2 C 0.5621(19) 0.557(3) 0.114(2)
C4_2 C 0.880(3) 0.373(5) 0.0223(12)
C5_2 C 0.762(2) 0.338(5) 0.0287(11)
C6_2 C 0.799(4) 0.257(3) 0.0083(11)
C7_2 C 0.928(3) 0.658(3) 0.0883(16)
C8_2 C 0.887(4) 0.787(3) 0.0122(19)
C9_2 C 0.824(2) 0.731(4) 0.017(2)
C10_2 C 0.868(2) 0.409(3) 0.283(5)
C11_2 C 0.9350(16) 0.508(5) 0.383(3)
C12_2 C 0.897(2) 0.557(3) 0.304(4)
C16_2 C 0.645(2) 0.582(2) 0.476(3)
C17_2 C 0.732(3) 0.592(2) 0.391(3)
C18_2 C 0.762(2) 0.542(2) 0.472(4)
C19_2 C 0.444(3) 0.613(3) 0.3331(19)
C20_2 C 0.400(3) 0.715(4) 0.4196(18)
C21_2 C 0.466(3) 0.751(3) 0.397(3)
C22_2 C 0.6497(15) 0.870(4) 0.215(3)
C23_2 C 0.6720(13) 0.969(3) 0.333(4)
C24_2 C 0.6436(15) 0.887(5) 0.364(3)
N1_2 N 0.686(2) 0.558(3) 0.104(2)
N2_2 N 0.597(3) 0.628(2) 0.1733(19)
N3_2 N 0.813(4) 0.412(3) 0.0377(9)
N4_2 N 0.873(3) 0.279(4) 0.0038(9)
N5_2 N 0.849(4) 0.649(3) 0.065(2)
N6_2 N 0.953(3) 0.742(4) 0.057(3)
N7_2 N 0.8547(17) 0.496(5) 0.239(3)
N11 N 0.708(3) 0.5343(17) 0.527(2)
N12_2 N 0.658(3) 0.6179(16) 0.392(3)
N14_2 N 0.495(2) 0.686(5) 0.342(3)
N16_2 N 0.6291(10) 0.823(3) 0.289(5)
H1_2 H 0.7109 0.6689 0.1986
H2_2 H 0.6066 0.4622 0.0277
H3_2 H 0.5083 0.5394 0.1039
H4_2 H 0.9265 0.4089 0.0241
H5_2 H 0.7092 0.3416 0.0356
H7_2 H 0.9616 0.6107 0.1229
H10_2 H 0.8457 0.3511 0.2538
H11_2 H 0.9686 0.5348 0.4380
H12_2 H 0.9006 0.6249 0.2950
H16_2 H 0.5972 0.5885 0.4973
H17_2 H 0.7587 0.6073 0.3403
H18_2 H 0.8139 0.5155 0.4877
H19_2 H 0.4491 0.5560 0.2973
H20_2 H 0.3689 0.7468 0.4580
H21_2 H 0.4890 0.8116 0.4173
H22_2 H 0.6458 0.8427 0.1528
H24_2 H 0.6352 0.8759 0.4271
C13_2 C 0.825(3) 0.345(2) 0.773(3)
C14_2 C 0.882(3) 0.391(2) 0.662(2)
C15_2 C 0.933(2) 0.339(2) 0.727(4)
N9_2 N 0.898(3) 0.3091(17) 0.798(3)
N10_2 N 0.813(2) 0.396(2) 0.691(3)
H6_2 H 0.7756 0.1946 0.9988
H8_2 H 0.8844 0.8483 0.9821
H9_2 H 0.7705 0.7470 0.9906
H13_2 H 0.7863 0.3357 0.8108
H14_2 H 0.8920 0.4201 0.6047
H15_2 H 0.9859 0.3251 0.7227
loop_
_geom_bond_atom_site_label_1
_geom_bond_atom_site_label_2
_geom_bond_site_symmetry_1
_geom_bond_site_symmetry_2
Zn1 N1 1_555 1_555
Zn4 N2 1_555 1_555
C1 N1 1_555 1_555
C2 C3 1_555 1_555
C3 N2 1_555 1_555
C7 N5 1_555 1_555
C8 C9 1_555 1_555
C9 N5 1_555 1_555
C11 C12 1_555 1_555
C17 C18 1_555 1_555
C19 N13 1_555 1_555
C20 C21 1_555 1_555
C21 N14 1_555 1_555
C22 N15 1_555 1_555
C23 C24 1_555 1_555
C24 N16 1_555 1_555
N1 C2 1_555 1_555
N2 C1 1_555 1_555
N5 Zn1 1_555 1_555
N6 C7 1_555 1_555
N12 Zn4 1_555 1_555
N13 C20 1_555 1_555
N14 Zn4 1_555 1_555
N15 C23 1_555 1_555
N16 Zn4 1_555 1_555
H1 C1 1_555 1_555
H3 C3 1_555 1_555
H7 C7 1_555 1_555
H8 C8 1_555 1_555
H9 C9 1_555 1_555
H11 C11 1_555 1_555
H12 C12 1_555 1_555
H16 C16 1_555 1_555
H17 C17 1_555 1_555
H18 C18 1_555 1_555
H19 C19 1_555 1_555
H20 C20 1_555 1_555
H21 C21 1_555 1_555
H22 C22 1_555 1_555
H23 C23 1_555 1_555
H24 C24 1_555 1_555
Zn13 N13 1_555 1_555
Zn15 N15 1_555 1_555
C8 N6 1_555 1_555
C16 N12 1_555 1_555
C17 N12 1_555 1_555
C19 N14 1_555 1_555
C22 N16 1_555 1_555
Zn2 N4 1_555 1_555
Zn3 N10 1_555 1_555
C4 N3 1_555 1_555
C5 C6 1_555 1_555
C6 N4 1_555 1_555
C10 N7 1_555 1_555
C13 N9 1_555 1_555
C14 C15 1_555 1_555
C15 N9 1_555 1_555
N4 C4 1_555 1_555
N8 C10 1_555 1_555
N9 Zn2 1_555 1_555
N10 C13 1_555 1_555
H4 C4 1_555 1_555
H5 C5 1_555 1_555
H6 C6 1_555 1_555
H10 C10 1_555 1_555
H13 C13 1_555 1_555
H14 C14 1_555 1_555
H15 C15 1_555 1_555
Zn8 N8 1_555 1_555
N26 Zn2 1_555 1_555
N35 Zn3 1_555 1_555
C5 N3 1_555 1_555
C14 N10 1_555 1_555
Zn7 N24 1_555 1_555
Zn13 N28 1_555 1_555
C28 N19 1_555 1_555
C29 C30 1_555 1_555
C30 N20 1_555 1_555
C34 N23 1_555 1_555
C37 N27 1_555 1_555
C38 C39 1_555 1_555
C39 N27 1_555 1_555
N20 Zn6 1_555 1_555
N24 C34 1_555 1_555
N25 Zn6 1_555 1_555
N27 Zn6 1_555 1_555
N28 C37 1_555 1_555
H28 C28 1_555 1_555
H29 C29 1_555 1_555
H30 C30 1_555 1_555
H34 C34 1_555 1_555
H37 C37 1_555 1_555
H38 C38 1_555 1_555
H39 C39 1_555 1_555
C28 N20 1_555 1_555
C29 N19 1_555 1_555
C38 N28 1_555 1_555
Zn5 N17 1_555 1_555
Zn14 N37 1_555 1_555
Zn16 N18 1_555 1_555
C25 N17 1_555 1_555
C26 C27 1_555 1_555
C27 N18 1_555 1_555
C31 N21 1_555 1_555
C32 C33 1_555 1_555
C33 N21 1_555 1_555
C35 C36 1_555 1_555
C41 C42 1_555 1_555
C43 N35 1_555 1_555
C44 C45 1_555 1_555
C45 N36 1_555 1_555
C46 N37 1_555 1_555
C47 C48 1_555 1_555
C48 N40 1_555 1_555
N17 C26 1_555 1_555
N18 C25 1_555 1_555
N21 Zn5 1_555 1_555
N32 Zn16 1_555 1_555
N35 C44 1_555 1_555
N36 Zn16 1_555 1_555
N37 C47 1_555 1_555
N40 Zn16 1_555 1_555
H25 C25 1_555 1_555
H27 C27 1_555 1_555
H31 C31 1_555 1_555
H32 C32 1_555 1_555
H33 C33 1_555 1_555
H35 C35 1_555 1_555
H36 C36 1_555 1_555
H40 C40 1_555 1_555
H41 C41 1_555 1_555
H42 C42 1_555 1_555
H43 C43 1_555 1_555
H44 C44 1_555 1_555
H45 C45 1_555 1_555
H46 C46 1_555 1_555
H47 C47 1_555 1_555
H48 C48 1_555 1_555
C31 N22 1_555 1_555
C32 N22 1_555 1_555
C40 N32 1_555 1_555
C41 N32 1_555 1_555
C43 N36 1_555 1_555
C46 N40 1_555 1_555
Zn15 N28_2 1_555 1_555
C37_2 N27_2 1_555 1_555
C38_2 C39_2 1_555 1_555
C39_2 N27_2 1_555 1_555
N27_2 Zn8 1_555 1_555
N28_2 C37_2 1_555 1_555
N31 Zn15 1_555 1_555
N34 Zn15 1_555 1_555
H37_2 C37_2 1_555 1_555
H38_2 C38_2 1_555 1_555
H39_2 C39_2 1_555 1_555
C38_2 N28_2 1_555 1_555
Zn5_2 N17_2 1_555 1_555
Zn14 N33 1_555 1_555
Zn16_2 N18_2 1_555 1_555
C25_2 N17_2 1_555 1_555
C26_2 C27_2 1_555 1_555
C27_2 N18_2 1_555 1_555
C28_2 N19_2 1_555 1_555
C29_2 C30_2 1_555 1_555
C30_2 N20_2 1_555 1_555
C31_2 N21_2 1_555 1_555
C32_2 C33_2 1_555 1_555
C33_2 N21_2 1_555 1_555
C34_2 N23_2 1_555 1_555
C35_2 C36_2 1_555 1_555
C36_2 N23_2 1_555 1_555
C40_2 N31 1_555 1_555
C41_2 C42_2 1_555 1_555
C42_2 N31 1_555 1_555
C43_2 N33 1_555 1_555
C44_2 C45_2 1_555 1_555
C45_2 N36_2 1_555 1_555
C46_2 N39 1_555 1_555
C47_2 C48_2 1_555 1_555
C48_2 N40_2 1_555 1_555
N17_2 C26_2 1_555 1_555
N18_2 C25_2 1_555 1_555
N19_2 Zn5_2 1_555 1_555
N21_2 Zn5_2 1_555 1_555
N23_2 Zn5_2 1_555 1_555
N26 C34_2 1_555 1_555
N32_2 Zn16_2 1_555 1_555
N33 C44_2 1_555 1_555
N36_2 Zn16_2 1_555 1_555
N39 C47_2 1_555 1_555
N40_2 Zn16_2 1_555 1_555
H25_2 C25_2 1_555 1_555
H26_2 C26_2 1_555 1_555
H27_2 C27_2 1_555 1_555
H28_2 C28_2 1_555 1_555
H29_2 C29_2 1_555 1_555
H31_2 C31_2 1_555 1_555
H34_2 C34_2 1_555 1_555
H35_2 C35_2 1_555 1_555
H36_2 C36_2 1_555 1_555
H40_2 C40_2 1_555 1_555
H41_2 C41_2 1_555 1_555
H42_2 C42_2 1_555 1_555
H43_2 C43_2 1_555 1_555
H44_2 C44_2 1_555 1_555
H45_2 C45_2 1_555 1_555
H46_2 C46_2 1_555 1_555
H48_2 C48_2 1_555 1_555
C28_2 N20_2 1_555 1_555
C29_2 N19_2 1_555 1_555
C31_2 N22_2 1_555 1_555
C32_2 N22_2 1_555 1_555
C35_2 N26 1_555 1_555
C40_2 N32_2 1_555 1_555
C41_2 N32_2 1_555 1_555
C43_2 N36_2 1_555 1_555
C46_2 N40_2 1_555 1_555
Zn1_2 N1_2 1_555 1_555
Zn4_2 N2_2 1_555 1_555
C1_2 N1_2 1_555 1_555
C2_2 C3_2 1_555 1_555
C3_2 N2_2 1_555 1_555
C4_2 N3_2 1_555 1_555
C5_2 C6_2 1_555 1_555
C6_2 N4_2 1_555 1_555
C7_2 N5_2 1_555 1_555
C8_2 C9_2 1_555 1_555
C9_2 N5_2 1_555 1_555
C10_2 N7_2 1_555 1_555
C11_2 C12_2 1_555 1_555
C12_2 N7_2 1_555 1_555
C16_2 N11 1_555 1_555
C17_2 C18_2 1_555 1_555
C18_2 N11 1_555 1_555
C19_2 N34 1_555 1_555
C20_2 C21_2 1_555 1_555
C21_2 N14_2 1_555 1_555
C22_2 N38 1_555 1_555
C23_2 C24_2 1_555 1_555
C24_2 N16_2 1_555 1_555
N1_2 C2_2 1_555 1_555
N2_2 C1_2 1_555 1_555
N3_2 Zn1_2 1_555 1_555
N4_2 C4_2 1_555 1_555
N5_2 Zn1_2 1_555 1_555
N6_2 C7_2 1_555 1_555
N7_2 Zn1_2 1_555 1_555
N25 C10_2 1_555 1_555
N11 Zn14 1_555 1_555
N12_2 Zn4_2 1_555 1_555
N34 C20_2 1_555 1_555
N14_2 Zn4_2 1_555 1_555
N38 C23_2 1_555 1_555
N16_2 Zn4_2 1_555 1_555
H1_2 C1_2 1_555 1_555
H2_2 C2_2 1_555 1_555
H3_2 C3_2 1_555 1_555
H4_2 C4_2 1_555 1_555
H5_2 C5_2 1_555 1_555
H7_2 C7_2 1_555 1_555
H10_2 C10_2 1_555 1_555
H11_2 C11_2 1_555 1_555
H12_2 C12_2 1_555 1_555
H16_2 C16_2 1_555 1_555
H17_2 C17_2 1_555 1_555
H18_2 C18_2 1_555 1_555
H19_2 C19_2 1_555 1_555
H20_2 C20_2 1_555 1_555
H21_2 C21_2 1_555 1_555
H22_2 C22_2 1_555 1_555
H24_2 C24_2 1_555 1_555
C5_2 N3_2 1_555 1_555
C8_2 N6_2 1_555 1_555
C11_2 N25 1_555 1_555
C16_2 N12_2 1_555 1_555
C17_2 N12_2 1_555 1_555
C19_2 N14_2 1_555 1_555
C22_2 N16_2 1_555 1_555
Zn14 N10_2 1_555 1_555
C13_2 N9_2 1_555 1_555
C14_2 C15_2 1_555 1_555
C15_2 N9_2 1_555 1_555
N9_2 Zn7 1_555 1_555
N10_2 C13_2 1_555 1_555
H13_2 C13_2 1_555 1_555
H14_2 C14_2 1_555 1_555
H15_2 C15_2 1_555 1_555
C14_2 N10_2 1_555 1_555

#END
