
###############################################################################
#
# This file contains modified crystal structure data generated from the
# MOF subset of the Cambridge Structural Database (CSD) v543 
# hosted by the Cambridge Crystallographic Data Centre (CCDC).
#
# This work is licensed under the Creative Commons
# Attribution-NonCommercial-ShareAlike 4.0 International License.
# To view a copy of this license, visit
# http://creativecommons.org/licenses/by-nc-sa/4.0/
# or send a letter to
# Creative Commons, PO Box 1866, Mountain View, CA 94042, USA.
#
# CIF created using the CSD Python API on 29 September 2022
# The structure has been converted into the P1 space group
# The structure has a 3D framework
# The original CSD entry VELGIF is in the triclinic crystal system
# The framework has been calculated to contain at least 10.0% void space
# The void calculation uses a probe of radius 1.32A, grid spacing 0.4
# H atom positions have been added when not included in the experimental data
#
###############################################################################

data_VELGIF
_chemical_formula_moiety         '(C92 H64 Co12 N32 O16)n'
_symmetry_cell_setting           triclinic
_symmetry_space_group_name_H-M   'P 1'
_symmetry_Int_Tables_number      1
_space_group_name_Hall           'P 1'
loop_
_symmetry_equiv_pos_site_id
_symmetry_equiv_pos_as_xyz
1 x,y,z
_cell_length_a                   11.521(17)
_cell_length_b                   13.83(2)
_cell_length_c                   20.23(3)
_cell_angle_alpha                75.788(17)
_cell_angle_beta                 87.093(18)
_cell_angle_gamma                85.692(19)
_cell_volume                     3114.14
loop_
_atom_site_label
_atom_site_type_symbol
_atom_site_fract_x
_atom_site_fract_y
_atom_site_fract_z
Co7 Co -0.0000 -0.0000 0.0000
Co7_2 Co 0.0000 -0.0000 1.0000
C3 C 0.0047(9) 0.2257(6) 0.0057(5)
C6 C 0.0245(10) 0.4503(7) 0.0674(5)
C57 C 0.0321(10) 0.5547(7) 0.0455(5)
N22 N 0.3661(6) 0.6394(5) 0.1640(3)
N30 N 0.3693(7) 0.5568(6) 0.0837(4)
C72 C 0.3272(11) 0.4401(8) 0.0175(5)
H48 H 0.3299 0.3888 0.0571
C73 C 0.3470(10) 0.5321(7) 0.0210(5)
C75 C 0.4107(11) 0.4897(8) 0.1418(5)
H50 H 0.4352 0.4228 0.1465
C76 C 0.4077(10) 0.5434(8) 0.1908(5)
H51 H 0.4306 0.5181 0.2355
C77 C 0.3460(9) 0.6447(7) 0.1007(5)
H52 H 0.3185 0.7029 0.0702
Co7_3 Co 0.0000 1.0000 0.0000
Co10 Co 0.31173(9) 0.75447(8) 0.21697(5)
H62 H 0.0430701 0.410966 0.119751
H64 H 0.057284 0.597068 0.0806983
H3 H 0.0195 0.2441 0.9588
N19 N 0.0015(7) 0.8677(5) 0.9603(4)
N20 N 0.0117(8) 0.7084(5) 0.9568(4)
C53 C 0.0337(13) 0.8604(8) 0.8943(6)
H36 H 0.0501 0.9138 0.8578
C54 C 0.0373(14) 0.7634(8) 0.8916(6)
H37 H 0.0539 0.7386 0.8531
C56 C 0.0075(9) 0.6021(7) 0.9796(5)
Co5 Co 0.19277(9) 0.26299(8) 0.71946(5)
Co6 Co 0.68827(9) 0.24553(8) 0.78303(5)
N21 N 0.2295(7) 0.3860(5) 0.7613(4)
N23 N 0.1530(7) 0.1466(5) 0.6705(3)
N25 N 0.0441(6) 0.0863(5) 0.9047(3)
N26 N 0.1134(6) 0.1888(5) 0.8096(3)
N27 N 0.5373(6) 0.4230(5) 0.5991(3)
N28 N 0.6068(5) 0.3255(5) 0.6953(3)
N29 N 0.2627(7) 0.4709(5) 0.8364(4)
N31 N 0.1451(7) 0.0617(6) 0.5922(3)
O9 O 0.3504(5) 0.1904(4) 0.7471(3)
O10 O 0.5207(5) 0.1887(4) 0.7954(3)
O11 O 0.3364(5) 0.4443(4) 0.5384(3)
O12 O 0.2443(5) 0.3452(4) 0.6243(3)
O13 O 0.0179(5) 0.3242(5) 0.7087(3)
C59 C 0.1364(7) 0.1181(6) 0.8656(4)
H39 H 0.2119 0.0925 0.8766
C62 C 0.0944(11) 0.0616(8) 0.6977(5)
H40 H 0.0682 0.0388 0.7427
C63 C 0.0843(12) 0.0239(11) 0.6521(6)
C64 C 0.1791(9) 0.1452(7) 0.6078(5)
H42 H 0.2168 0.1954 0.5770
C65 C 0.1635(8) 0.0356(7) 0.5287(5)
C66 C 0.1878(12) 0.1096(8) 0.4714(5)
H43 H 0.1930 0.1750 0.4745
C67 C 0.2046(12) 0.0849(8) 0.4077(5)
H44 H 0.2229 0.1330 0.3684
C71 C 0.2143(13) 0.0281(8) 0.2780(5)
H47 H 0.2011 0.0972 0.2693
C74 C 0.3371(11) 0.6102(8) 0.9628(5)
H49 H 0.3460 0.6755 0.9651
H54 H 0.2480 0.0022 0.1853
C82 C 0.6278(7) 0.3947(6) 0.6387(4)
H55 H 0.7001 0.4212 0.6277
C83 C 0.4492(7) 0.3681(5) 0.6319(3)
C84 C 0.4909(7) 0.3056(6) 0.6920(4)
C85 C 0.4509(7) 0.2225(6) 0.7487(4)
C86 C 0.3333(7) 0.3841(5) 0.5983(3)
C87 C 0.3140(10) 0.5893(8) 0.9013(5)
H56 H 0.3123 0.6402 0.8615
C88 C 0.2930(10) 0.4912(7) 0.8990(5)
C89 C 0.3026(10) 0.4182(7) 0.9565(5)
H57 H 0.2926 0.3525 0.9554
C90 C 0.2212(12) 0.5381(8) 0.7795(5)
H58 H 0.2100 0.6070 0.7732
C91 C 0.2002(12) 0.4854(7) 0.7353(5)
H59 H 0.1697 0.5124 0.6925
C92 C 0.2662(9) 0.3823(7) 0.8228(4)
H60 H 0.2918 0.3234 0.8532
Co7_4 Co 0.0000 1.0000 1.0000
Co15 Co 0.5000 0.5000 0.5000
N33 N 0.6339(6) 0.3606(5) 0.8360(3)
N37 N 0.7482(7) 0.1247(6) 0.7373(4)
O19 O 0.8394(5) 0.3170(4) 0.7543(3)
O21 O 0.7408(5) 0.1575(4) 0.8756(3)
O6 O 0.1606(5) 0.6830(4) 0.2457(3)
O7 O 0.2592(5) 0.8425(4) 0.1244(3)
O8 O 0.1656(5) 0.9484(4) 0.0415(3)
C8 C 0.0496(6) 0.8595(5) 0.1300(3)
C9 C 0.0071(6) 0.7955(5) 0.1877(4)
C32 C 0.0569(7) 0.7148(5) 0.2445(4)
C33 C 0.1672(7) 0.8838(5) 0.0975(3)
N24 N 0.2518(7) 0.8753(6) 0.2627(4)
N32 N 0.2113(8) 0.9631(6) 0.3395(4)
H41 H 0.0372 0.9708 0.6565
C68 C 0.1928(10) 0.9859(7) 0.4055(5)
C69 C 0.1653(10) 0.9146(7) 0.4618(5)
H45 H 0.1564 0.8496 0.4585
C70 C 0.1505(11) 0.9387(7) 0.5242(5)
H46 H 0.1317 0.8899 0.5631
C80 C 0.2330(9) 0.8712(7) 0.3275(5)
H53 H 0.2344 0.8120 0.3614
C81 C 0.2396(12) 0.9751(7) 0.2320(5)
Co7_5 Co 1.0000 -0.0000 0.0000
Co7_6 Co 1.0000 -0.0000 1.0000
N5 N 0.9985(7) 0.1323(5) 0.0397(4)
N15 N 0.7887(8) 0.0369(6) 0.6605(4)
N16 N 0.9883(8) 0.2916(5) 0.0432(4)
C1 C 0.9663(13) 0.1396(8) 0.1057(6)
H1 H 0.9499 0.0862 0.1422
C2 C 0.9627(14) 0.2366(8) 0.1084(6)
H2 H 0.9461 0.2614 0.1469
C4 C 0.9925(9) 0.3979(7) 0.0204(5)
H6 H 0.9628 0.0292 0.3435
C16 C 0.8072(10) 0.0141(7) 0.5945(5)
C17 C 0.8347(10) 0.0854(7) 0.5382(5)
H10 H 0.8436 0.1504 0.5415
C18 C 0.8495(11) 0.0613(7) 0.4758(5)
H11 H 0.8683 0.1101 0.4369
C34 C 0.7670(9) 0.1288(7) 0.6725(5)
H23 H 0.7656 0.1880 0.6386
C35 C 0.7604(12) 0.0249(7) 0.7680(5)
H38 H 0.9805 0.7559 0.0412
Co7_7 Co 1.0000 1.0000 0.0000
C5 C 0.9679(10) 0.4453(7) 0.9545(5)
C55 C 0.9953(9) 0.7743(6) 0.9943(5)
C58 C 0.9755(10) 0.5497(7) 0.9326(5)
O16 O 0.8344(5) 0.0516(4) 0.9585(3)
C60 C 0.9504(6) 0.1405(5) 0.8700(3)
C61 C 0.9929(6) 0.2045(5) 0.8123(4)
C78 C 0.9431(7) 0.2852(5) 0.7555(4)
C79 C 0.8328(7) 0.1162(5) 0.9025(3)
Co7_8 Co 1.0000 1.0000 1.0000
H61 H 0.942716 0.402932 0.919302
H63 H 0.95693 0.589034 0.880249
Co1 Co 0.80723(9) 0.73701(8) 0.28054(5)
N1 N 0.7705(7) 0.6140(5) 0.2387(4)
N3 N 0.5425(7) 0.3635(5) 0.4669(4)
N4 N 0.8470(7) 0.8534(5) 0.3295(3)
N7 N 0.9559(6) 0.9137(5) 0.0953(3)
N8 N 0.8866(6) 0.8112(5) 0.1904(3)
N9 N 0.4627(6) 0.5770(5) 0.4009(3)
N10 N 0.3932(5) 0.6745(5) 0.3047(3)
N11 N 0.7373(7) 0.5291(5) 0.1636(4)
N13 N 0.5480(7) 0.2052(5) 0.4619(4)
N14 N 0.8549(7) 0.9383(6) 0.4078(3)
O1 O 0.6496(5) 0.8096(4) 0.2529(3)
O2 O 0.4793(5) 0.8113(4) 0.2046(3)
O3 O 0.6636(5) 0.5557(4) 0.4616(3)
O4 O 0.7557(5) 0.6548(4) 0.3757(3)
O5 O 0.9821(5) 0.6758(5) 0.2913(3)
C7 C 0.8636(7) 0.8819(6) 0.1344(4)
H4 H 0.7881 0.9075 0.1234
C10 C 0.9056(11) 0.9384(8) 0.3023(5)
H5 H 0.9318 0.9612 0.2573
C11 C 0.9157(12) 0.9761(11) 0.3479(6)
C12 C 0.8209(9) 0.8548(7) 0.3922(5)
H7 H 0.7832 0.8046 0.4230
C13 C 0.8365(8) 0.9644(7) 0.4713(5)
C14 C 0.8122(12) 0.8904(8) 0.5286(5)
H8 H 0.8070 0.8250 0.5255
C15 C 0.7954(12) 0.9151(8) 0.5923(5)
H9 H 0.7771 0.8670 0.6316
C19 C 0.7857(13) 0.9719(8) 0.7220(5)
H12 H 0.7989 0.9028 0.7307
C21 C 0.5237(10) 0.0463(6) 0.4322(5)
H14 H 0.5411 0.0770 0.3869
C22 C 0.5253(9) 0.1002(7) 0.4817(5)
C23 C 0.5204(10) 0.2735(7) 0.4970(5)
H15 H 0.4870 0.2571 0.5408
C24 C 0.6010(13) 0.2550(8) 0.4040(6)
H16 H 0.6321 0.2283 0.3686
C25 C 0.6002(14) 0.3524(9) 0.4075(6)
H17 H 0.6335 0.4034 0.3750
C28 C 0.6629(11) 0.3898(8) 0.0372(5)
H19 H 0.6540 0.3245 0.0349
H24 H 0.7520 0.9978 0.8147
C36 C 0.3722(7) 0.6053(6) 0.3613(4)
H25 H 0.2999 0.5788 0.3723
C37 C 0.5508(7) 0.6319(5) 0.3681(3)
C38 C 0.5091(7) 0.6944(6) 0.3080(4)
C39 C 0.5491(7) 0.7775(6) 0.2513(4)
C40 C 0.6667(7) 0.6159(5) 0.4017(3)
C41 C 0.6860(10) 0.4107(8) 0.0987(5)
H26 H 0.6877 0.3598 0.1385
C42 C 0.7070(10) 0.5088(7) 0.1010(5)
C43 C 0.6974(10) 0.5818(7) 0.0435(5)
H27 H 0.7074 0.6475 0.0446
C44 C 0.7788(12) 0.4619(8) 0.2205(5)
H28 H 0.7900 0.3930 0.2268
C45 C 0.7998(12) 0.5146(7) 0.2647(5)
H29 H 0.8303 0.4876 0.3075
C46 C 0.7338(9) 0.6177(7) 0.1772(4)
H30 H 0.7082 0.6766 0.1468
C47 C 0.5039(10) 0.0543(7) 0.5497(5)
H31 H 0.5078 0.0896 0.5831
N35 N 0.4575(7) 0.6365(5) 0.5331(4)
N12 N 0.6307(7) 0.4432(6) 0.9163(4)
C26 C 0.6728(11) 0.5599(8) 0.9825(5)
H18 H 0.6701 0.6112 0.9429
C27 C 0.6530(10) 0.4679(7) 0.9790(5)
C29 C 0.5893(11) 0.5103(8) 0.8582(5)
H20 H 0.5648 0.5772 0.8535
C30 C 0.5923(10) 0.4566(8) 0.8092(5)
H21 H 0.5694 0.4819 0.7645
C31 C 0.6540(9) 0.3553(7) 0.8993(5)
H22 H 0.6815 0.2971 0.9298
C20 C 0.4961(10) 0.9457(7) 0.4503(5)
H13 H 0.4922 0.9104 0.4169
N18 N 0.4520(7) 0.7948(5) 0.5381(4)
C48 C 0.4763(10) 0.9537(6) 0.5678(5)
H32 H 0.4589 0.9230 0.6131
C49 C 0.4747(9) 0.8998(7) 0.5183(5)
C50 C 0.4796(10) 0.7265(7) 0.5030(5)
H33 H 0.5130 0.7429 0.4592
C51 C 0.3990(13) 0.7450(8) 0.5960(6)
H34 H 0.3679 0.7717 0.6314
C52 C 0.3998(14) 0.6476(9) 0.5925(6)
H35 H 0.3665 0.5966 0.6250
loop_
_geom_bond_atom_site_label_1
_geom_bond_atom_site_label_2
_geom_bond_site_symmetry_1
_geom_bond_site_symmetry_2
C57 C6 1_555 1_555
N22 C76 1_555 1_555
N30 C73 1_555 1_555
C72 H48 1_555 1_555
C73 C72 1_555 1_555
C75 N30 1_555 1_555
H50 C75 1_555 1_555
C76 C75 1_555 1_555
H51 C76 1_555 1_555
C77 N22 1_555 1_555
H52 C77 1_555 1_555
Co10 N22 1_555 1_555
N30 C77 1_555 1_555
C6 H62 1_555 1_555
C57 H64 1_555 1_555
N19 C53 1_555 1_555
N20 C54 1_555 1_555
C53 H36 1_555 1_555
C54 C53 1_555 1_555
H37 C54 1_555 1_555
C56 N20 1_555 1_555
Co5 N21 1_555 1_555
Co6 N28 1_555 1_555
N21 C91 1_555 1_555
N23 Co5 1_555 1_555
N25 Co7_2 1_555 1_555
N26 Co5 1_555 1_555
N27 C82 1_555 1_555
N28 C82 1_555 1_555
N29 C88 1_555 1_555
N31 C63 1_555 1_555
O9 Co5 1_555 1_555
O10 Co6 1_555 1_555
O11 C86 1_555 1_555
O12 Co5 1_555 1_555
O13 Co5 1_555 1_555
C59 N25 1_555 1_555
H39 C59 1_555 1_555
C62 N23 1_555 1_555
H40 C62 1_555 1_555
C63 C62 1_555 1_555
C64 N23 1_555 1_555
H42 C64 1_555 1_555
C65 N31 1_555 1_555
C66 C65 1_555 1_555
H43 C66 1_555 1_555
C67 C66 1_555 1_555
H44 C67 1_555 1_555
H47 C71 1_555 1_555
H49 C74 1_555 1_555
C82 H55 1_555 1_555
C83 N27 1_555 1_555
C84 N28 1_555 1_555
C85 O9 1_555 1_555
C86 O12 1_555 1_555
C87 C74 1_555 1_555
H56 C87 1_555 1_555
C88 C87 1_555 1_555
H57 C89 1_555 1_555
C90 N29 1_555 1_555
H58 C90 1_555 1_555
C91 C90 1_555 1_555
H59 C91 1_555 1_555
C92 N21 1_555 1_555
H60 C92 1_555 1_555
Co7_4 N19 1_555 1_555
Co15 N27 1_555 1_555
N33 Co6 1_555 1_555
N37 Co6 1_555 1_555
O19 Co6 1_555 1_555
O21 Co6 1_555 1_555
N26 C59 1_555 1_555
N29 C92 1_555 1_555
N31 C64 1_555 1_555
O10 C85 1_555 1_555
O11 Co15 1_555 1_555
C83 C84 1_555 1_555
C83 C86 1_555 1_555
C84 C85 1_555 1_555
C88 C89 1_555 1_555
O6 C32 1_555 1_555
O7 C33 1_555 1_555
O8 Co7_3 1_555 1_555
C33 O8 1_555 1_555
Co10 O6 1_555 1_555
O7 Co10 1_555 1_555
C8 C9 1_555 1_555
C8 C33 1_555 1_555
C9 C32 1_555 1_555
N24 C80 1_555 1_555
N32 C68 1_555 1_555
C69 C68 1_555 1_555
H45 C69 1_555 1_555
H46 C70 1_555 1_555
C80 N32 1_555 1_555
H53 C80 1_555 1_555
C81 N24 1_555 1_555
Co10 N24 1_555 1_555
C69 C70 1_555 1_555
Co7_5 N5 1_555 1_555
N5 C1 1_555 1_555
N37 C34 1_555 1_555
N15 C16 1_555 1_555
N16 C2 1_555 1_555
C1 H1 1_555 1_555
C2 C1 1_555 1_555
H2 C2 1_555 1_555
C4 N16 1_555 1_555
C17 C16 1_555 1_555
H10 C17 1_555 1_555
H11 C18 1_555 1_555
C34 N15 1_555 1_555
H23 C34 1_555 1_555
C35 N37 1_555 1_555
C17 C18 1_555 1_555
C58 C5 1_555 1_555
O19 C78 1_555 1_555
O21 C79 1_555 1_555
O16 Co7_6 1_555 1_555
C79 O16 1_555 1_555
C60 C61 1_555 1_555
C60 C79 1_555 1_555
C61 C78 1_555 1_555
C5 H61 1_555 1_555
C58 H63 1_555 1_555
Co1 N1 1_555 1_555
Co10 N10 1_555 1_555
Co15 N3 1_555 1_555
N1 C45 1_555 1_555
N3 C23 1_555 1_555
N4 Co1 1_555 1_555
N7 Co7_7 1_555 1_555
N8 Co1 1_555 1_555
N9 Co15 1_555 1_555
N10 C36 1_555 1_555
N11 C42 1_555 1_555
N13 C22 1_555 1_555
N14 C11 1_555 1_555
O1 Co1 1_555 1_555
O2 Co10 1_555 1_555
O3 Co15 1_555 1_555
O4 Co1 1_555 1_555
O5 Co1 1_555 1_555
C7 N7 1_555 1_555
H4 C7 1_555 1_555
C10 N4 1_555 1_555
H5 C10 1_555 1_555
C11 C10 1_555 1_555
C12 N4 1_555 1_555
H7 C12 1_555 1_555
C13 N14 1_555 1_555
C14 C13 1_555 1_555
H8 C14 1_555 1_555
C15 C14 1_555 1_555
H9 C15 1_555 1_555
H12 C19 1_555 1_555
H14 C21 1_555 1_555
C22 C21 1_555 1_555
C23 N13 1_555 1_555
H15 C23 1_555 1_555
C24 N13 1_555 1_555
H16 C24 1_555 1_555
C25 N3 1_555 1_555
H17 C25 1_555 1_555
H19 C28 1_555 1_555
C36 N9 1_555 1_555
H25 C36 1_555 1_555
C37 N9 1_555 1_555
C38 N10 1_555 1_555
C39 O1 1_555 1_555
C40 O3 1_555 1_555
C41 C28 1_555 1_555
H26 C41 1_555 1_555
C42 C41 1_555 1_555
H27 C43 1_555 1_555
C44 N11 1_555 1_555
H28 C44 1_555 1_555
C45 C44 1_555 1_555
H29 C45 1_555 1_555
C46 N1 1_555 1_555
H30 C46 1_555 1_555
C47 C22 1_555 1_555
H31 C47 1_555 1_555
N35 Co15 1_555 1_555
N8 C7 1_555 1_555
N11 C46 1_555 1_555
N14 C12 1_555 1_555
O2 C39 1_555 1_555
O4 C40 1_555 1_555
C24 C25 1_555 1_555
C37 C38 1_555 1_555
C37 C40 1_555 1_555
C38 C39 1_555 1_555
C42 C43 1_555 1_555
N33 C30 1_555 1_555
N12 C27 1_555 1_555
C26 H18 1_555 1_555
C27 C26 1_555 1_555
C29 N12 1_555 1_555
H20 C29 1_555 1_555
C30 C29 1_555 1_555
H21 C30 1_555 1_555
C31 N33 1_555 1_555
H22 C31 1_555 1_555
N12 C31 1_555 1_555
C20 H13 1_555 1_555
N35 C50 1_555 1_555
N18 C49 1_555 1_555
H32 C48 1_555 1_555
C49 C20 1_555 1_555
C50 N18 1_555 1_555
H33 C50 1_555 1_555
C51 N18 1_555 1_555
H34 C51 1_555 1_555
C52 N35 1_555 1_555
H35 C52 1_555 1_555
C48 C49 1_555 1_555
C51 C52 1_555 1_555

#END
