
###############################################################################
#
# This file contains modified crystal structure data generated from the
# MOF subset of the Cambridge Structural Database (CSD) v543 
# hosted by the Cambridge Crystallographic Data Centre (CCDC).
#
# This work is licensed under the Creative Commons
# Attribution-NonCommercial-ShareAlike 4.0 International License.
# To view a copy of this license, visit
# http://creativecommons.org/licenses/by-nc-sa/4.0/
# or send a letter to
# Creative Commons, PO Box 1866, Mountain View, CA 94042, USA.
#
# CIF created using the CSD Python API on 29 September 2022
# The structure has been converted into the P1 space group
# The structure has a 3D framework
# The original CSD entry VELQIQ is in the monoclinic crystal system
# The framework has been calculated to contain at least 10.0% void space
# The void calculation uses a probe of radius 1.32A, grid spacing 0.4
#
###############################################################################

data_VELQIQ
_chemical_formula_moiety         '(C64 H96 Cd8 O37)n'
_symmetry_cell_setting           triclinic
_symmetry_space_group_name_H-M   'P 1'
_symmetry_Int_Tables_number      1
_space_group_name_Hall           'P 1'
loop_
_symmetry_equiv_pos_site_id
_symmetry_equiv_pos_as_xyz
1 x,y,z
_cell_length_a                   10.6697(5)
_cell_length_b                   22.4618(11)
_cell_length_c                   9.6558(5)
_cell_angle_alpha                90
_cell_angle_beta                 113.017(6)
_cell_angle_gamma                90
_cell_volume                     2129.89
loop_
_atom_site_label
_atom_site_type_symbol
_atom_site_fract_x
_atom_site_fract_y
_atom_site_fract_z
O20 O 0.24629(16) 0.76491(8) 0.00016(16)
Cd11 Cd 0.42763(2) 0.74170(2) 0.21610(2)
C28 C 0.0240(2) 0.70573(11) 0.7730(3)
H42 H 0.027918 0.701048 0.876562
H43 H 0.085176 0.675692 0.757504
C29 C 0.0723(2) 0.76804(11) 0.7543(2)
H44 H 0.071858 0.771639 0.650895
H45 H 0.004635 0.854909 0.755516
C32 C 0.2145(2) 0.78121(10) 0.8683(2)
O19 O 0.29229(15) 0.81155(7) 0.81982(16)
Cd5 Cd 0.44577(2) 0.87624(2) 0.97627(2)
Cd10 Cd 0.42763(2) 0.75830(2) 0.71610(2)
H7 H 0.006923 0.464177 0.685906
C4 C 0.0780(3) 0.54081(13) 0.6213(3)
H8 H 0.038901 0.579968 0.579186
H9 H 0.148891 0.547553 0.723058
O11 O 0.29794(18) 0.59595(8) 0.59090(18)
O12 O 0.30326(17) 0.53774(8) 0.41241(17)
C17 C 0.2546(2) 0.55128(11) 0.5079(2)
C18 C 0.1431(2) 0.51301(11) 0.5219(2)
H25 H 0.185640 0.474581 0.569624
C19 C 0.0337(3) 0.49836(13) 0.3664(3)
H26 H 0.076479 0.477625 0.305556
Cd6 Cd 0.44577(2) 0.62376(2) 0.47627(2)
H10 H 0.622356 0.435084 0.045036
H11 H 0.408615 0.408138 0.042915
C8 C 0.4378(2) 0.49675(11) 0.1103(3)
H13 H 0.517232 0.487694 0.204121
H14 H 0.356369 0.499370 0.135309
O13 O 0.51125(17) 0.59651(8) 0.29314(16)
O14 O 0.44831(17) 0.65928(7) 0.09946(16)
C21 C 0.4750(2) 0.60749(11) 0.1569(2)
C22 C 0.4602(2) 0.55663(11) 0.0481(2)
C23 C 0.5818(2) 0.55353(11) 0.0026(3)
H32 H 0.666060 0.546590 0.092840
O15 O 0.63587(18) 0.57626(8) 0.62860(18)
H35 H 0.689(2) 0.5833(12) 0.717(2)
H36 H 0.653(3) 0.5407(8) 0.611(3)
O16 O 0.35326(18) 0.82040(8) 0.30317(17)
H37 H 0.333(3) 0.8533(9) 0.257(3)
H38 H 0.383(3) 0.8303(11) 0.3962(18)
O17 O 0.55537(15) 0.70365(7) 0.61203(16)
O18 O 0.61629(16) 0.73731(8) 0.42981(17)
C25 C 0.6405(2) 0.72781(11) 0.5647(2)
C26 C 0.7817(2) 0.74150(11) 0.6797(2)
H39 H 0.781429 0.737230 0.782692
C27 C 0.8787(2) 0.69527(11) 0.6604(3)
H40 H 0.875955 0.697596 0.556844
H41 H 0.848894 0.654894 0.675202
C30 C 0.9754(2) 0.81477(11) 0.7730(3)
H46 H 0.980028 0.813402 0.877407
C31 C 0.8285(2) 0.80407(11) 0.6632(3)
H47 H 0.821763 0.809870 0.558910
H48 H 0.768012 0.833465 0.682390
O23 O 0.55537(15) 0.79635(7) 0.11203(16)
O25 O 0.29229(15) 0.68845(7) 0.31982(16)
C12 C 0.0240(2) 0.79427(11) 0.2730(3)
H18 H 0.027918 0.798952 0.376562
H19 H 0.085176 0.824308 0.257504
C13 C 0.0723(2) 0.73196(11) 0.2543(2)
H20 H 0.071858 0.728361 0.150895
H21 H 0.004635 0.645091 0.255516
C16 C 0.2145(2) 0.71879(10) 0.3683(2)
O10 O 0.24629(16) 0.73509(8) 0.50016(16)
O1 O 0.63587(18) 0.92374(8) 0.12860(18)
H1 H 0.689(2) 0.9167(12) 0.217(2)
H2 H 0.653(3) 0.9593(8) 0.111(3)
O3 O 0.29794(18) 0.90405(8) 0.09090(18)
C1 C 0.2546(2) 0.94872(11) 0.0079(2)
C2 C 0.1431(2) 0.98699(11) 0.0219(2)
C9 C 0.6405(2) 0.77219(11) 0.0647(2)
C10 C 0.7817(2) 0.75850(11) 0.1797(2)
H15 H 0.781429 0.762770 0.282692
C11 C 0.8787(2) 0.80473(11) 0.1604(3)
H16 H 0.875955 0.802404 0.056844
H17 H 0.848894 0.845106 0.175202
C14 C 0.9754(2) 0.68523(11) 0.2730(3)
H22 H 0.980028 0.686598 0.377407
C15 C 0.8285(2) 0.69593(11) 0.1632(3)
H23 H 0.821763 0.690130 0.058910
H24 H 0.768012 0.666535 0.182390
C20 C 0.0780(3) 0.95919(13) 0.1213(3)
H28 H 0.038901 0.920032 0.079186
H29 H 0.148891 0.952447 0.223058
O2 O 0.35326(18) 0.67960(8) 0.80317(17)
H3 H 0.333(3) 0.6467(9) 0.757(3)
H4 H 0.383(3) 0.6697(11) 0.8962(18)
O4 O 0.30326(17) 0.96226(8) 0.91241(17)
O5 O 0.51125(17) 0.90349(8) 0.79314(16)
O6 O 0.44831(17) 0.84072(7) 0.59946(16)
C5 C 0.4750(2) 0.89251(11) 0.6569(2)
C6 C 0.4602(2) 0.94337(11) 0.5481(2)
H10_2 H 0.377644 0.935084 0.454964
C7 C 0.5818(2) 0.94647(11) 0.5026(3)
H11_2 H 0.591385 0.908138 0.457085
H12 H 0.666060 0.953410 0.592840
C8_2 C 0.5622(2) 0.99675(11) 0.3897(3)
H13_2 H 0.482768 0.987694 0.295879
H14_2 H 0.643631 0.999370 0.364691
O8 O 0.61629(16) 0.76269(8) 0.92981(17)
C19_2 C 0.9663(3) 0.99836(13) 0.1336(3)
H26_2 H 0.923521 0.977625 0.194444
Cd1 Cd 0.55423(2) 0.37624(2) 0.52373(2)
Cd2 Cd 0.57237(2) 0.25830(2) 0.78390(2)
O1_2 O 0.36413(18) 0.42374(8) 0.37140(18)
H1_2 H 0.311(2) 0.4167(12) 0.283(2)
H2_2 H 0.347(3) 0.4593(8) 0.389(3)
O2_2 O 0.64674(18) 0.17960(8) 0.69683(17)
H3_2 H 0.667(3) 0.1467(9) 0.743(3)
H4_2 H 0.617(3) 0.1697(11) 0.6038(18)
O3_2 O 0.70206(18) 0.40405(8) 0.40910(18)
O4_2 O 0.69674(17) 0.46226(8) 0.58759(17)
C1_2 C 0.7454(2) 0.44872(11) 0.4921(2)
C2_2 C 0.8569(2) 0.48699(11) 0.4781(2)
H5 H 0.814360 0.525419 0.430376
C3 C 0.9663(3) 0.50164(13) 0.6336(3)
H6 H 0.923521 0.522375 0.694444
O5_2 O 0.48875(17) 0.40349(8) 0.70686(16)
O6_2 O 0.55169(17) 0.34072(7) 0.90054(16)
C5_2 C 0.5250(2) 0.39251(11) 0.8431(2)
C6_2 C 0.5398(2) 0.44337(11) 0.9519(2)
C7_2 C 0.4182(2) 0.44647(11) 0.9974(3)
H12_2 H 0.333940 0.453410 0.907160
O7 O 0.44463(15) 0.29635(7) 0.38797(16)
O8_2 O 0.38371(16) 0.26269(8) 0.57019(17)
C9_2 C 0.3595(2) 0.27219(11) 0.4353(2)
C10_2 C 0.2183(2) 0.25850(11) 0.3203(2)
H15_2 H 0.218571 0.262770 0.217308
C11_2 C 0.1213(2) 0.30473(11) 0.3396(3)
H16_2 H 0.124045 0.302404 0.443156
H17_2 H 0.151106 0.345106 0.324798
C14_2 C 0.0246(2) 0.18523(11) 0.2270(3)
H22_2 H 0.019972 0.186598 0.122593
C15_2 C 0.1715(2) 0.19593(11) 0.3368(3)
H23_2 H 0.178237 0.190130 0.441090
H24_2 H 0.231988 0.166535 0.317610
H27 H 0.993077 0.535823 0.314094
C20_2 C 0.9220(3) 0.45919(13) 0.3787(3)
H28_2 H 0.961099 0.420032 0.420814
H29_2 H 0.851109 0.452447 0.276942
H30 H 0.377644 0.564916 0.954964
H31 H 0.591385 0.591862 0.957085
C24 C 0.5622(2) 0.50325(11) 0.8897(3)
H33 H 0.482768 0.512306 0.795879
H34 H 0.643631 0.500630 0.864691
Cd13 Cd 0.57237(2) 0.24170(2) 0.28390(2)
O24 O 0.44463(15) 0.20365(7) 0.88797(16)
O26 O 0.70771(15) 0.31155(7) 0.68018(16)
O27 O 0.75371(16) 0.23509(8) 0.99984(16)
C12_2 C 0.9760(2) 0.29427(11) 0.2270(3)
H18_2 H 0.972082 0.298952 0.123438
H19_2 H 0.914824 0.324308 0.242496
C13_2 C 0.9277(2) 0.23196(11) 0.2457(2)
H20_2 H 0.928142 0.228361 0.349105
H21_2 H 0.995365 0.145091 0.244484
C16_2 C 0.7855(2) 0.21879(10) 0.1317(2)
O9 O 0.70771(15) 0.18845(7) 0.18018(16)
Cd7 Cd 0.55423(2) 0.12376(2) 0.02373(2)
C3_2 C 0.0337(3) 0.00164(13) 0.8664(3)
H6_2 H 0.076479 0.022375 0.805556
O13_2 O 0.48875(17) 0.09651(8) 0.20686(16)
O14_2 O 0.55169(17) 0.15928(7) 0.40054(16)
C21_2 C 0.5250(2) 0.10749(11) 0.3431(2)
C22_2 C 0.5398(2) 0.05663(11) 0.4519(2)
H30_2 H 0.622356 0.064916 0.545036
C23_2 C 0.4182(2) 0.05353(11) 0.4974(3)
H31_2 H 0.408615 0.091862 0.542915
H32_2 H 0.333940 0.046590 0.407160
C24_2 C 0.4378(2) 0.00325(11) 0.6103(3)
H33_2 H 0.517232 0.012306 0.704121
H34_2 H 0.356369 0.000630 0.635309
O16_2 O 0.64674(18) 0.32040(8) 0.19683(17)
H37_2 H 0.667(3) 0.3533(9) 0.243(3)
H38_2 H 0.617(3) 0.3303(11) 0.1038(18)
O18_2 O 0.38371(16) 0.23731(8) 0.07019(17)
O22 O 0.69674(17) 0.03774(8) 0.08759(17)
O28 O 0.75371(16) 0.26491(8) 0.49984(16)
O15_2 O 0.36413(18) 0.07626(8) 0.87140(18)
H35_2 H 0.311(2) 0.0833(12) 0.783(2)
H36_2 H 0.347(3) 0.0407(8) 0.889(3)
C25_2 C 0.3595(2) 0.22781(11) 0.9353(2)
C26_2 C 0.2183(2) 0.24150(11) 0.8203(2)
H39_2 H 0.218571 0.237230 0.717308
C27_2 C 0.1213(2) 0.19527(11) 0.8396(3)
H40_2 H 0.124045 0.197596 0.943156
H41_2 H 0.151106 0.154894 0.824798
C30_2 C 0.0246(2) 0.31477(11) 0.7270(3)
H46_2 H 0.019972 0.313402 0.622593
C31_2 C 0.1715(2) 0.30407(11) 0.8368(3)
H47_2 H 0.178237 0.309870 0.941090
H48_2 H 0.231988 0.333465 0.817610
O21 O 0.70206(18) 0.09595(8) 0.90910(18)
C4_2 C 0.9220(3) 0.04081(13) 0.8787(3)
H8_2 H 0.961099 0.079968 0.920814
H9_2 H 0.851109 0.047553 0.776942
C17_2 C 0.7454(2) 0.05128(11) 0.9921(2)
C18_2 C 0.8569(2) 0.01301(11) 0.9781(2)
C28_2 C 0.9760(2) 0.20573(11) 0.7270(3)
H42_2 H 0.972082 0.201048 0.623438
H43_2 H 0.914824 0.175692 0.742496
C29_2 C 0.9277(2) 0.26804(11) 0.7457(2)
H44_2 H 0.928142 0.271639 0.849105
H45_2 H 0.995365 0.354909 0.744484
C32_2 C 0.7855(2) 0.28121(10) 0.6317(2)
H5_2 H 0.185640 0.025419 0.069624
H27_2 H 0.006923 0.035823 0.185906
H7_2 H 0.993077 0.964177 0.814094
H25_2 H 0.814360 0.974581 0.930376
loop_
_geom_bond_atom_site_label_1
_geom_bond_atom_site_label_2
_geom_bond_site_symmetry_1
_geom_bond_site_symmetry_2
Cd11 O20 1_555 1_555
H42 C28 1_555 1_555
H43 C28 1_555 1_555
C29 C28 1_555 1_555
H44 C29 1_555 1_555
C32 C29 1_555 1_555
O19 C32 1_555 1_555
Cd5 O19 1_555 1_555
Cd10 O19 1_555 1_555
H8 C4 1_555 1_555
H9 C4 1_555 1_555
O11 C17 1_555 1_555
O12 C17 1_555 1_555
C17 C18 1_555 1_555
C18 C4 1_555 1_555
H25 C18 1_555 1_555
C19 C18 1_555 1_555
H26 C19 1_555 1_555
Cd6 O11 1_555 1_555
O12 Cd6 1_555 1_555
H13 C8 1_555 1_555
H14 C8 1_555 1_555
O13 C21 1_555 1_555
O14 C21 1_555 1_555
C21 C22 1_555 1_555
C22 C8 1_555 1_555
C23 C22 1_555 1_555
H32 C23 1_555 1_555
Cd6 O13 1_555 1_555
Cd11 O14 1_555 1_555
O15 Cd6 1_555 1_555
H35 O15 1_555 1_555
H36 O15 1_555 1_555
O16 Cd11 1_555 1_555
H37 O16 1_555 1_555
H38 O16 1_555 1_555
O17 Cd6 1_555 1_555
O18 Cd11 1_555 1_555
C25 O17 1_555 1_555
C26 C25 1_555 1_555
H39 C26 1_555 1_555
C27 C26 1_555 1_555
H40 C27 1_555 1_555
H41 C27 1_555 1_555
H46 C30 1_555 1_555
C31 C26 1_555 1_555
H47 C31 1_555 1_555
H48 C31 1_555 1_555
Cd10 O17 1_555 1_555
O23 Cd11 1_555 1_555
O25 Cd6 1_555 1_555
Cd11 O25 1_555 1_555
O18 C25 1_555 1_555
C30 C31 1_555 1_555
H18 C12 1_555 1_555
H19 C12 1_555 1_555
C13 C12 1_555 1_555
H20 C13 1_555 1_555
C16 C13 1_555 1_555
O25 C16 1_555 1_555
O10 C16 1_555 1_555
Cd10 O10 1_555 1_555
O1 H1 1_555 1_555
H2 O1 1_555 1_555
C1 O3 1_555 1_555
C2 C1 1_555 1_555
C9 O23 1_555 1_555
C10 C9 1_555 1_555
H15 C10 1_555 1_555
C11 C10 1_555 1_555
H16 C11 1_555 1_555
H17 C11 1_555 1_555
H22 C14 1_555 1_555
C15 C10 1_555 1_555
H23 C15 1_555 1_555
H24 C15 1_555 1_555
C20 C2 1_555 1_555
H28 C20 1_555 1_555
H29 C20 1_555 1_555
C14 C15 1_555 1_555
Cd10 O2 1_555 1_555
O2 H3 1_555 1_555
H4 O2 1_555 1_555
O4 Cd5 1_555 1_555
O5 Cd5 1_555 1_555
O6 Cd10 1_555 1_555
C5 O5 1_555 1_555
C6 C5 1_555 1_555
H10_2 C6 1_555 1_555
C7 C6 1_555 1_555
H11_2 C7 1_555 1_555
H12 C7 1_555 1_555
C8_2 C7 1_555 1_555
H13_2 C8_2 1_555 1_555
H14_2 C8_2 1_555 1_555
O8 Cd10 1_555 1_555
O6 C5 1_555 1_555
H26_2 C19_2 1_555 1_555
Cd1 O1_2 1_555 1_555
Cd2 O2_2 1_555 1_555
O1_2 H1_2 1_555 1_555
H2_2 O1_2 1_555 1_555
O2_2 H3_2 1_555 1_555
H4_2 O2_2 1_555 1_555
O3_2 Cd1 1_555 1_555
O4_2 Cd1 1_555 1_555
C1_2 O3_2 1_555 1_555
C2_2 C1_2 1_555 1_555
H5 C2_2 1_555 1_555
C3 C2_2 1_555 1_555
H6 C3 1_555 1_555
O5_2 Cd1 1_555 1_555
O6_2 Cd2 1_555 1_555
C5_2 O5_2 1_555 1_555
C6_2 C5_2 1_555 1_555
C7_2 C6_2 1_555 1_555
H12_2 C7_2 1_555 1_555
O7 Cd1 1_555 1_555
O8_2 Cd2 1_555 1_555
C9_2 O7 1_555 1_555
C10_2 C9_2 1_555 1_555
H15_2 C10_2 1_555 1_555
C11_2 C10_2 1_555 1_555
H16_2 C11_2 1_555 1_555
H17_2 C11_2 1_555 1_555
H22_2 C14_2 1_555 1_555
C15_2 C10_2 1_555 1_555
H23_2 C15_2 1_555 1_555
H24_2 C15_2 1_555 1_555
C20_2 C2_2 1_555 1_555
H28_2 C20_2 1_555 1_555
H29_2 C20_2 1_555 1_555
C24 C6_2 1_555 1_555
H33 C24 1_555 1_555
H34 C24 1_555 1_555
Cd13 O7 1_555 1_555
O24 Cd2 1_555 1_555
O26 Cd1 1_555 1_555
O27 Cd2 1_555 1_555
Cd2 O26 1_555 1_555
O4_2 C1_2 1_555 1_555
O6_2 C5_2 1_555 1_555
O8_2 C9_2 1_555 1_555
C14_2 C15_2 1_555 1_555
H18_2 C12_2 1_555 1_555
H19_2 C12_2 1_555 1_555
C13_2 C12_2 1_555 1_555
H20_2 C13_2 1_555 1_555
C16_2 C13_2 1_555 1_555
O9 C16_2 1_555 1_555
Cd7 O9 1_555 1_555
Cd13 O9 1_555 1_555
H6_2 C3_2 1_555 1_555
O13_2 C21_2 1_555 1_555
O14_2 C21_2 1_555 1_555
C21_2 C22_2 1_555 1_555
H30_2 C22_2 1_555 1_555
C23_2 C22_2 1_555 1_555
H31_2 C23_2 1_555 1_555
H32_2 C23_2 1_555 1_555
H33_2 C24_2 1_555 1_555
H34_2 C24_2 1_555 1_555
Cd7 O13_2 1_555 1_555
Cd13 O14_2 1_555 1_555
O16_2 Cd13 1_555 1_555
H37_2 O16_2 1_555 1_555
H38_2 O16_2 1_555 1_555
O18_2 Cd13 1_555 1_555
O22 Cd7 1_555 1_555
O28 Cd13 1_555 1_555
C23_2 C24_2 1_555 1_555
H35_2 O15_2 1_555 1_555
H36_2 O15_2 1_555 1_555
C25_2 O24 1_555 1_555
C26_2 C25_2 1_555 1_555
H39_2 C26_2 1_555 1_555
C27_2 C26_2 1_555 1_555
H40_2 C27_2 1_555 1_555
H41_2 C27_2 1_555 1_555
H46_2 C30_2 1_555 1_555
C31_2 C26_2 1_555 1_555
H47_2 C31_2 1_555 1_555
H48_2 C31_2 1_555 1_555
C30_2 C31_2 1_555 1_555
H8_2 C4_2 1_555 1_555
H9_2 C4_2 1_555 1_555
O21 C17_2 1_555 1_555
C17_2 C18_2 1_555 1_555
C18_2 C4_2 1_555 1_555
H42_2 C28_2 1_555 1_555
H43_2 C28_2 1_555 1_555
C29_2 C28_2 1_555 1_555
H44_2 C29_2 1_555 1_555
C32_2 C29_2 1_555 1_555
O26 C32_2 1_555 1_555
O28 C32_2 1_555 1_555

#END
