
###############################################################################
#
# This file contains modified crystal structure data generated from the
# MOF subset of the Cambridge Structural Database (CSD) v543 
# hosted by the Cambridge Crystallographic Data Centre (CCDC).
#
# This work is licensed under the Creative Commons
# Attribution-NonCommercial-ShareAlike 4.0 International License.
# To view a copy of this license, visit
# http://creativecommons.org/licenses/by-nc-sa/4.0/
# or send a letter to
# Creative Commons, PO Box 1866, Mountain View, CA 94042, USA.
#
# CIF created using the CSD Python API on 29 September 2022
# The structure has been converted into the P1 space group
# The structure has a 3D framework
# The original CSD entry VEMHOL is in the hexagonal crystal system
# The framework has been calculated to contain at least 10.0% void space
# The void calculation uses a probe of radius 1.32A, grid spacing 0.4
# The framework is charged, counterions have been retained in the structure
#
###############################################################################

data_VEMHOL
_chemical_formula_moiety         '(C18 H36 Cd10 N98 O6 1+)n'
_symmetry_cell_setting           triclinic
_symmetry_space_group_name_H-M   'P 1'
_symmetry_Int_Tables_number      1
_space_group_name_Hall           'P 1'
loop_
_symmetry_equiv_pos_site_id
_symmetry_equiv_pos_as_xyz
1 x,y,z
_cell_length_a                   13.1198(4)
_cell_length_b                   13.1198(4)
_cell_length_c                   13.6007(7)
_cell_angle_alpha                90
_cell_angle_beta                 90
_cell_angle_gamma                120
_cell_volume                     2027.43
loop_
_atom_site_label
_atom_site_type_symbol
_atom_site_fract_x
_atom_site_fract_y
_atom_site_fract_z
Cd9 Cd -0.00000(4) 0.51275(3) -0.0000
H13 H 0.0203 0.7362 0.1295
H2 H 0.0203 0.7362 0.3705
Cd7 Cd -0.00000(4) 0.51275(3) 0.5000
Cd9_2 Cd -0.00000(4) 0.51275(3) 1.0000
C4 C 0.0134(8) 0.5170(6) 0.7500
N10 N 0.1347(12) 0.5752(8) 0.7500
H7 H 0.1567 0.5864 0.6980
H8 H 0.1567 0.5864 0.8020
Cd11 Cd 0.51275(3) -0.00000(4) 0.5000
H12 H 0.7362 0.0203 0.6295
Cd5 Cd 0.48725(3) 0.48725(3) -0.0000
Cd8 Cd 0.51275(3) 0.00000(4) -0.0000
Cd9_3 Cd 1.00000(4) 0.51275(3) -0.0000
C9 C 0.8612(4) 0.6523(5) 0.0816(4)
N17 N 0.4620(4) 0.5150(3) 0.1693(2)
N28 N 0.9549(5) 0.7364(5) 0.1299(5)
H18 H 0.9495 0.7905 0.1611
N33 N 0.8567(4) 0.5642(3) 0.0308(3)
N34 N 0.4358(3) 0.2925(5) 0.0308(3)
N41 N 0.7444(3) 0.4988(4) 0.0009(2)
N42 N 0.5012(4) 0.2456(5) 0.0009(2)
N43 N 0.7544(5) 0.2556(3) 0.0009(2)
N48 N 0.6842(4) 0.5458(3) 0.0335(3)
N55 N 0.7535(4) 0.6411(4) 0.0877(4)
Cd1 Cd 0.6667 0.3333 0.60206(3)
Cd2 Cd 0.48725(3) 0.48725(3) 0.5000
C1 C 0.4830(6) 0.4964(5) 0.7500
C2 C 0.8612(4) 0.6523(5) 0.4184(4)
N1 N 0.4248(8) 0.5595(9) 0.7500
H1 H 0.4136 0.5703 0.6980
N2 N 0.5150(3) 0.4620(4) 0.6693(2)
N3 N 0.5716(4) 0.4071(4) 0.7020(2)
N4 N 0.9549(5) 0.7364(5) 0.3701(5)
H3 H 0.9495 0.7905 0.3389
N5 N 0.8567(4) 0.5642(3) 0.4692(3)
N6 N 0.7444(3) 0.4988(4) 0.4991(2)
N7 N 0.6842(4) 0.5458(3) 0.4665(3)
N8 N 0.7535(4) 0.6411(4) 0.4123(4)
Cd3 Cd 0.6667 0.3333 0.89794(3)
Cd4 Cd 0.3333 0.6667 0.39794(3)
Cd5_2 Cd 0.48725(3) 0.48725(3) 1.0000
Cd7_2 Cd 1.00000(4) 0.51275(3) 0.5000
Cd8_2 Cd 0.51275(3) 0.00000(4) 1.0000
Cd9_4 Cd 1.00000(4) 0.51275(3) 1.0000
Cd11_2 Cd 0.51275(3) 1.00000(4) 0.5000
C5 C 0.7911(6) 0.1388(4) 0.4184(4)
C6 C 0.3477(5) 0.2089(6) 0.4184(4)
C7 C 0.2089(6) 0.3477(5) 0.5816(4)
C8 C 0.6523(5) 0.8612(4) 0.5816(4)
H4 H 0.4136 0.5703 0.8020
N11 N 0.5150(3) 0.4620(4) 0.8307(2)
N12 N 0.5380(4) 0.0530(5) 0.6693(2)
N13 N 0.5380(4) 0.0530(5) 0.8307(2)
N14 N 0.9470(5) 0.4850(3) 0.6693(2)
N15 N 0.9470(5) 0.4850(3) 0.8307(2)
N16 N 0.4620(4) 0.5150(3) 0.3307(2)
N19 N 0.5716(4) 0.4071(4) 0.7980(2)
N20 N 0.5929(4) 0.1645(6) 0.7020(2)
N21 N 0.5929(4) 0.1645(6) 0.7980(2)
N22 N 0.8355(6) 0.4284(4) 0.7020(2)
N23 N 0.8355(6) 0.4284(4) 0.7980(2)
N24 N 0.7815(7) 0.0451(5) 0.3701(5)
N25 N 0.2636(5) 0.2185(7) 0.3701(5)
N26 N 0.2185(7) 0.2636(5) 0.6299(5)
N27 N 0.7364(5) 0.9549(5) 0.6299(5)
H10 H 0.2638 0.2841 0.3705
H11 H 0.2841 0.2638 0.6295
H14 H 0.8410 0.0505 0.3389
H15 H 0.2095 0.1590 0.3389
H16 H 0.1590 0.2095 0.6611
H17 H 0.7905 0.9495 0.6611
N29 N 0.7075(5) 0.1433(4) 0.4692(3)
N30 N 0.4358(3) 0.2925(5) 0.4692(3)
N31 N 0.2925(5) 0.4358(3) 0.5308(3)
N32 N 0.5642(3) 0.8567(4) 0.5308(3)
N35 N 0.2925(5) 0.4358(3) 0.9692(3)
N37 N 0.7544(5) 0.2556(3) 0.4991(2)
N38 N 0.5012(4) 0.2456(5) 0.4991(2)
N39 N 0.2456(5) 0.5012(4) 0.5009(2)
N40 N 0.4988(4) 0.7444(3) 0.5009(2)
N44 N 0.8616(5) 0.3158(4) 0.4665(3)
N45 N 0.4542(3) 0.1384(5) 0.4665(3)
N46 N 0.1384(5) 0.4542(3) 0.5335(3)
N47 N 0.5458(3) 0.6842(4) 0.5335(3)
N49 N 0.5458(3) 0.6842(4) 0.9665(3)
N51 N 0.8876(6) 0.2465(4) 0.4123(4)
N52 N 0.3589(4) 0.1124(6) 0.4123(4)
N53 N 0.1124(6) 0.3589(4) 0.5877(4)
N54 N 0.6411(4) 0.7535(4) 0.5877(4)
Cd8_3 Cd 0.51275(3) 1.00000(4) -0.0000
Cd8_4 Cd 0.51275(3) 1.00000(4) 1.0000
C3 C 0.5036(5) 0.9866(8) 0.7500
N9 N 0.4405(9) 0.8653(12) 0.7500
H5 H 0.4297 0.8433 0.6980
H6 H 0.4297 0.8433 0.8020
N18 N 0.4850(3) 0.9470(5) 0.3307(2)
H9 H 0.7159 0.9797 0.3705
N50 N 0.3158(4) 0.8616(5) 0.5335(3)
N18_2 N 0.0530(5) 0.5380(6) 0.3307(2)
N36 N 0.1433(4) 0.7075(5) 0.5308(3)
C9_2 C 0.3477(5) 0.2089(6) 0.0816(4)
N28_2 N 0.2636(5) 0.2185(7) 0.1299(5)
H13_2 H 0.2638 0.2841 0.1295
H18_2 H 0.2095 0.1590 0.1611
N34_2 N 0.7075(5) 0.1433(6) 0.0308(3)
N48_2 N 0.4542(3) 0.1384(5) 0.0335(3)
N55_2 N 0.3589(4) 0.1124(6) 0.0877(4)
N17_2 N 0.4850(3) 0.9470(5) 0.1693(2)
C8_2 C 0.1388(4) 0.7911(6) 0.5816(4)
N27_2 N 0.0451(5) 0.7815(7) 0.6299(5)
H17_2 H 0.0505 0.8410 0.6611
N35_2 N 0.5642(3) 0.8567(6) 0.9692(3)
N40_2 N 0.2556(3) 0.7544(5) 0.5009(2)
N49_2 N 0.3158(4) 0.8616(5) 0.9665(3)
N54_2 N 0.2465(4) 0.8876(6) 0.5877(4)
H12_2 H 0.9797 0.7159 0.6295
N17_3 N 0.0530(5) 0.5380(4) 0.1693(2)
N35_3 N 0.1433(6) 0.7075(5) 0.9692(3)
N49_3 N 0.1384(5) 0.4542(3) 0.9665(3)
C9_3 C 0.7911(6) 0.1388(4) 0.0816(4)
N28_3 N 0.7815(7) 0.0451(5) 0.1299(5)
H18_3 H 0.8410 0.0505 0.1611
N48_3 N 0.8616(5) 0.3158(4) 0.0335(3)
N55_3 N 0.8876(6) 0.2465(4) 0.0877(4)
H13_3 H 0.7159 0.9797 0.1295
H12_3 H 0.7362 0.0203 0.8705
Cd4_2 Cd 0.3333 0.6667 0.10206(3)
C7_2 C 0.2089(6) 0.3477(5) 0.9184(4)
C8_3 C 0.6523(5) 0.8612(4) 0.9184(4)
N26_2 N 0.2185(7) 0.2636(5) 0.8701(5)
N27_3 N 0.7364(5) 0.9549(5) 0.8701(5)
H11_2 H 0.2841 0.2638 0.8705
H16_2 H 0.1590 0.2095 0.8389
H17_3 H 0.7905 0.9495 0.8389
N39_2 N 0.2456(5) 0.5012(4) 0.9991(2)
N40_3 N 0.4988(4) 0.7444(3) 0.9991(2)
N53_2 N 0.1124(6) 0.3589(4) 0.9123(4)
N54_3 N 0.6411(4) 0.7535(4) 0.9123(4)
C8_4 C 0.1388(4) 0.7911(6) 0.9184(4)
N27_4 N 0.0451(5) 0.7815(7) 0.8701(5)
H17_4 H 0.0505 0.8410 0.8389
N40_4 N 0.2556(3) 0.7544(5) 0.9991(2)
N54_4 N 0.2465(4) 0.8876(6) 0.9123(4)
H12_4 H 0.9797 0.7159 0.8705
C4_2 C 0.5170(6) 0.0134(8) 0.2500
N10_2 N 0.5752(8) 0.1347(12) 0.2500
H7_2 H 0.5864 0.1567 0.3020
H8_2 H 0.5864 0.1567 0.1980
C1_2 C 0.4964(5) 0.4830(6) 0.2500
N1_2 N 0.5595(9) 0.4248(8) 0.2500
H1_2 H 0.5703 0.4136 0.3020
N3_2 N 0.4071(4) 0.5716(4) 0.2980(2)
H4_2 H 0.5703 0.4136 0.1980
N19_2 N 0.4071(4) 0.5716(4) 0.2020(2)
N20_2 N 0.1645(6) 0.5929(4) 0.2980(2)
N21_2 N 0.1645(6) 0.5929(4) 0.2020(2)
N22_2 N 0.4284(4) 0.8355(6) 0.2980(2)
N23_2 N 0.4284(4) 0.8355(6) 0.2020(2)
C3_2 C 0.9866(8) 0.5036(5) 0.2500
N9_2 N 0.8653(12) 0.4405(9) 0.2500
H5_2 H 0.8433 0.4297 0.3020
H6_2 H 0.8433 0.4297 0.1980
N56 N -0.0000 -0.0000 0.7500
O2 O 0.0956(8) 0.0050(11) 0.7500
N56_2 N -0.0000 1.0000 0.7500
N56_3 N 1.0000 -0.0000 0.7500
O3 O 0.9950(11) 0.0906(8) 0.7500
N56_4 N 1.0000 1.0000 0.7500
O1 O 0.9094(8) 0.9044(8) 0.7500
N56_5 N -0.0000 -0.0000 0.2500
O2_2 O 0.0050(11) 0.0956(8) 0.2500
N56_6 N -0.0000 1.0000 0.2500
O3_2 O 0.0906(8) 0.9950(11) 0.2500
N56_7 N 1.0000 -0.0000 0.2500
N56_8 N 1.0000 1.0000 0.2500
O1_2 O 0.9044(8) 0.9094(8) 0.2500
loop_
_geom_bond_atom_site_label_1
_geom_bond_atom_site_label_2
_geom_bond_site_symmetry_1
_geom_bond_site_symmetry_2
C4 N10 1_555 1_555
N10 H7 1_555 1_555
H8 N10 1_555 1_555
C9 N28 1_555 1_555
N17 Cd5 1_555 1_555
H18 N28 1_555 1_555
N33 Cd9_3 1_555 1_555
N34 Cd5 1_555 1_555
N48 Cd5 1_555 1_555
N55 C9 1_555 1_555
C9 N33 1_555 1_555
N33 N41 1_555 1_555
N34 N42 1_555 1_555
N41 N48 1_555 1_555
N48 N55 1_555 1_555
Cd1 N3 1_555 1_555
Cd2 N2 1_555 1_555
C1 N1 1_555 1_555
C2 N4 1_555 1_555
N1 H1 1_555 1_555
N2 C1 1_555 1_555
N3 N2 1_555 1_555
H3 N4 1_555 1_555
N5 C2 1_555 1_555
N6 Cd1 1_555 1_555
N7 Cd2 1_555 1_555
N8 C2 1_555 1_555
Cd3 N19 1_555 1_555
Cd4 N39 1_555 1_555
Cd5_2 N11 1_555 1_555
Cd11 N12 1_555 1_555
Cd7_2 N5 1_555 1_555
Cd8_2 N13 1_555 1_555
Cd9_4 N15 1_555 1_555
Cd7 N46 1_555 1_555
Cd11_2 N32 1_555 1_555
C5 N24 1_555 1_555
C6 N25 1_555 1_555
C7 N26 1_555 1_555
C8 N27 1_555 1_555
H4 N1 1_555 1_555
N11 C1 1_555 1_555
N14 Cd7_2 1_555 1_555
N16 Cd2 1_555 1_555
N19 N3 1_555 1_555
N20 Cd1 1_555 1_555
N21 Cd3 1_555 1_555
N22 Cd1 1_555 1_555
N23 Cd3 1_555 1_555
N25 H10 1_555 1_555
N26 H11 1_555 1_555
H14 N24 1_555 1_555
H15 N25 1_555 1_555
H16 N26 1_555 1_555
H17 N27 1_555 1_555
N29 Cd11 1_555 1_555
N30 Cd2 1_555 1_555
N31 Cd2 1_555 1_555
N32 C8 1_555 1_555
N35 Cd5_2 1_555 1_555
N37 Cd1 1_555 1_555
N38 Cd1 1_555 1_555
N39 N31 1_555 1_555
N40 Cd4 1_555 1_555
N44 Cd7_2 1_555 1_555
N45 Cd11 1_555 1_555
N46 N39 1_555 1_555
N47 Cd2 1_555 1_555
N49 Cd5_2 1_555 1_555
N51 C5 1_555 1_555
N52 C6 1_555 1_555
N53 C7 1_555 1_555
N54 C8 1_555 1_555
N5 N6 1_555 1_555
N6 N7 1_555 1_555
N7 N8 1_555 1_555
C5 N29 1_555 1_555
C6 N30 1_555 1_555
C7 N31 1_555 1_555
N11 N19 1_555 1_555
N12 N20 1_555 1_555
N13 N21 1_555 1_555
N14 N22 1_555 1_555
N15 N23 1_555 1_555
N20 N21 1_555 1_555
N22 N23 1_555 1_555
N29 N37 1_555 1_555
N30 N38 1_555 1_555
N32 N40 1_555 1_555
N37 N44 1_555 1_555
N38 N45 1_555 1_555
N40 N47 1_555 1_555
N44 N51 1_555 1_555
N45 N52 1_555 1_555
N46 N53 1_555 1_555
N47 N54 1_555 1_555
C3 N9 1_555 1_555
N9 H5 1_555 1_555
H6 N9 1_555 1_555
N18 Cd11_2 1_555 1_555
N50 Cd11_2 1_555 1_555
N18_2 Cd7 1_555 1_555
N36 Cd7 1_555 1_555
C9_2 N28_2 1_555 1_555
N28_2 H13_2 1_555 1_555
H18_2 N28_2 1_555 1_555
N34_2 Cd8 1_555 1_555
N48_2 Cd8 1_555 1_555
N55_2 C9_2 1_555 1_555
C9_2 N34 1_555 1_555
N34_2 N43 1_555 1_555
N42 N48_2 1_555 1_555
N48_2 N55_2 1_555 1_555
N17_2 Cd8_3 1_555 1_555
C8_2 N27_2 1_555 1_555
H17_2 N27_2 1_555 1_555
N36 C8_2 1_555 1_555
N35_2 Cd8_4 1_555 1_555
N40_2 Cd4 1_555 1_555
N49_2 Cd8_4 1_555 1_555
N54_2 C8_2 1_555 1_555
N36 N40_2 1_555 1_555
N40_2 N50 1_555 1_555
N50 N54_2 1_555 1_555
N17_3 Cd9 1_555 1_555
N35_3 Cd9_2 1_555 1_555
N49_3 Cd9_2 1_555 1_555
C9_3 N28_3 1_555 1_555
H18_3 N28_3 1_555 1_555
N48_3 Cd9_3 1_555 1_555
N55_3 C9_3 1_555 1_555
C9_3 N34_2 1_555 1_555
N43 N48_3 1_555 1_555
N48_3 N55_3 1_555 1_555
C7_2 N26_2 1_555 1_555
C8_3 N27_3 1_555 1_555
N26_2 H11_2 1_555 1_555
H16_2 N26_2 1_555 1_555
H17_3 N27_3 1_555 1_555
N35_2 C8_3 1_555 1_555
N39_2 N35 1_555 1_555
N49_3 N39_2 1_555 1_555
N53_2 C7_2 1_555 1_555
N54_3 C8_3 1_555 1_555
C7_2 N35 1_555 1_555
N35_2 N40_3 1_555 1_555
N40_3 N49 1_555 1_555
N49_3 N53_2 1_555 1_555
N49 N54_3 1_555 1_555
C8_4 N27_4 1_555 1_555
H17_4 N27_4 1_555 1_555
N35_3 C8_4 1_555 1_555
N54_4 C8_4 1_555 1_555
N35_3 N40_4 1_555 1_555
N40_4 N49_2 1_555 1_555
N49_2 N54_4 1_555 1_555
C4_2 N10_2 1_555 1_555
N10_2 H7_2 1_555 1_555
H8_2 N10_2 1_555 1_555
Cd4 N3_2 1_555 1_555
C1_2 N1_2 1_555 1_555
N1_2 H1_2 1_555 1_555
N16 C1_2 1_555 1_555
N3_2 N16 1_555 1_555
Cd4_2 N19_2 1_555 1_555
H4_2 N1_2 1_555 1_555
N17 C1_2 1_555 1_555
N19_2 N3_2 1_555 1_555
N20_2 Cd4 1_555 1_555
N21_2 Cd4_2 1_555 1_555
N22_2 Cd4 1_555 1_555
N23_2 Cd4_2 1_555 1_555
N17 N19_2 1_555 1_555
N18_2 N20_2 1_555 1_555
N17_3 N21_2 1_555 1_555
N18 N22_2 1_555 1_555
N17_2 N23_2 1_555 1_555
N20_2 N21_2 1_555 1_555
N22_2 N23_2 1_555 1_555
C3_2 N9_2 1_555 1_555
N9_2 H5_2 1_555 1_555
H6_2 N9_2 1_555 1_555
O2 N56 1_555 1_555
O3 N56_3 1_555 1_555
N56_4 O1 1_555 1_555
O2_2 N56_5 1_555 1_555
O3_2 N56_6 1_555 1_555
N56_8 O1_2 1_555 1_555

#END
