
###############################################################################
#
# This file contains modified crystal structure data generated from the
# MOF subset of the Cambridge Structural Database (CSD) v543 
# hosted by the Cambridge Crystallographic Data Centre (CCDC).
#
# This work is licensed under the Creative Commons
# Attribution-NonCommercial-ShareAlike 4.0 International License.
# To view a copy of this license, visit
# http://creativecommons.org/licenses/by-nc-sa/4.0/
# or send a letter to
# Creative Commons, PO Box 1866, Mountain View, CA 94042, USA.
#
# CIF created using the CSD Python API on 29 September 2022
# The structure has been converted into the P1 space group
# The structure has a 3D framework
# The original CSD entry VERGAD is in the triclinic crystal system
# The framework has been calculated to contain at least 10.0% void space
# The void calculation uses a probe of radius 1.32A, grid spacing 0.4
# H atom positions have been added when not included in the experimental data
# Generated hydrogen atom positions removed from atoms on special positions
#
###############################################################################

data_VERGAD
_chemical_formula_moiety         '(C90 H74 Cd4 N12 O18 P2)n'
_symmetry_cell_setting           triclinic
_symmetry_space_group_name_H-M   'P 1'
_symmetry_Int_Tables_number      1
_space_group_name_Hall           'P 1'
loop_
_symmetry_equiv_pos_site_id
_symmetry_equiv_pos_as_xyz
1 x,y,z
_cell_length_a                   10.6823(7)
_cell_length_b                   15.8149(9)
_cell_length_c                   15.9776(10)
_cell_angle_alpha                63.8890(10)
_cell_angle_beta                 79.1640(10)
_cell_angle_gamma                72.1500(10)
_cell_volume                     2302.64
loop_
_atom_site_label
_atom_site_type_symbol
_atom_site_fract_x
_atom_site_fract_y
_atom_site_fract_z
H23 H 0.0008 0.2849 0.3614
O20 O 0.0246(3) 0.39906(19) 0.99973(19)
H7 H 0.1201 0.1617 0.9535
C14 C 0.0529(4) 0.3324(3) 0.9682(3)
O4 O 0.0242(5) 0.3445(2) 0.8925(3)
Cd9 Cd 0.17446(2) 0.497681(19) 0.979559(18)
C1 C 0.5498(4) 0.6239(3) 0.0822(3)
C2 C 0.4848(4) 0.7020(3) 0.1189(3)
C3 C 0.5612(4) 0.7529(3) 0.1295(3)
H1 H 0.6505 0.7413 0.1111
C4 C 0.5057(4) 0.8212(3) 0.1673(3)
H2 H 0.5577 0.8548 0.1745
C5 C 0.3708(4) 0.8390(3) 0.1945(3)
C6 C 0.2944(4) 0.7886(3) 0.1836(3)
H3 H 0.2049 0.8005 0.2013
C7 C 0.3515(4) 0.7196(3) 0.1458(3)
H4 H 0.2999 0.6855 0.1388
C15 C 0.1644(4) 0.9076(3) 0.3204(3)
C16 C 0.0484(4) 0.9139(3) 0.2868(3)
H9 H 0.0482 0.9207 0.2259
C19 C 0.0473(4) 0.8940(3) 0.4692(3)
H11 H 0.0468 0.8873 0.5301
C20 C 0.1624(4) 0.8982(3) 0.4116(3)
H12 H 0.2389 0.8948 0.4341
O1 O 0.4835(3) 0.5692(2) 0.0860(2)
O2 O 0.6677(3) 0.6205(2) 0.0518(2)
O7 O 0.4167(3) 0.9246(2) 0.2969(2)
O8 O 0.6625(3) 0.4156(2) 0.0558(2)
P1 P 0.31116(9) 0.92708(7) 0.24543(7)
Cd1 Cd 0.82554(2) 0.502319(19) 0.020441(18)
N13 N 0.8617(3) 0.4351(3) 0.1767(2)
O22 O 0.9754(3) 0.60094(19) 0.00027(19)
C22 C 0.6745(4) 0.6563(3) 0.8271(3)
H13 H 0.6219 0.6968 0.8553
C23 C 0.6682(4) 0.6703(4) 0.7383(3)
H14 H 0.6130 0.7216 0.6940
C24 C 0.8202(4) 0.5370(3) 0.8076(3)
H15 H 0.8875 0.4805 0.8178
C25 C 0.7850(4) 0.5731(4) 0.6453(4)
C26 C 0.8069(6) 0.4861(5) 0.6486(5)
H16 H 0.8079 0.4333 0.7061
C27 C 0.8314(5) 0.4700(3) 0.5576(4)
C28 C 0.8268(5) 0.5517(4) 0.4789(4)
C29 C 0.8070(6) 0.6440(4) 0.4724(4)
H17 H 0.8097 0.6961 0.4147
C30 C 0.7833(5) 0.6569(5) 0.5533(4)
H18 H 0.7658 0.7193 0.5508
C31 C 0.8505(6) 0.3758(4) 0.5688(4)
H19 H 0.8511 0.3251 0.6278
C32 C 0.8683(6) 0.3597(4) 0.4900(4)
H20 H 0.8823 0.2974 0.4931
C33 C 0.8647(5) 0.4467(6) 0.3971(5)
C34 C 0.8504(5) 0.5302(4) 0.3934(4)
H21 H 0.8545 0.5812 0.3351
C35 C 0.8302(4) 0.4822(4) 0.2317(3)
H22 H 0.7785 0.5457 0.2153
C36 C 0.9531(4) 0.3382(4) 0.3139(3)
C37 C 0.9390(4) 0.3450(3) 0.2282(3)
H24 H 0.9763 0.2957 0.2074
N1 N 0.7711(3) 0.5726(3) 0.8702(2)
N2 N 0.7610(3) 0.5926(3) 0.7265(2)
N3 N 0.8840(4) 0.4244(3) 0.3160(3)
Cd10 Cd 0.5000 -0.0000 0.5000
C38 C 0.6540(4) 0.2646(3) 0.3544(3)
H25 H 0.6995 0.3054 0.3058
C39 C 0.6540(4) 0.1731(3) 0.3707(3)
H26 H 0.7019 0.1397 0.3346
C40 C 0.5256(4) 0.2056(3) 0.4792(3)
H27 H 0.4677 0.2010 0.5314
C41 C 0.5463(4) 0.3723(4) 0.4379(4)
C42 C 0.5377(5) 0.3695(3) 0.5228(3)
H28 H 0.5518 0.3091 0.5733
C43 C 0.5072(4) 0.4564(4) 0.5411(3)
C44 C 0.4980(5) 0.4522(3) 0.6287(3)
H29 H 0.5089 0.3924 0.6798
C45 C 0.4727(5) 0.5363(3) 0.6422(3)
H30 H 0.4680 0.5338 0.7019
N5 N 0.5725(3) 0.1364(2) 0.4488(2)
N6 N 0.5729(3) 0.2846(3) 0.4243(3)
C46 C 0.3460(4) 0.7354(3) 0.6456(3)
H31 H 0.3005 0.6946 0.6942
C47 C 0.3460(4) 0.8269(3) 0.6293(3)
H32 H 0.2981 0.8603 0.6654
C48 C 0.4744(4) 0.7944(3) 0.5208(3)
H33 H 0.5323 0.7990 0.4686
C49 C 0.4537(4) 0.6277(4) 0.5621(4)
C50 C 0.4623(5) 0.6305(3) 0.4772(3)
H34 H 0.4482 0.6909 0.4267
C51 C 0.4928(4) 0.5436(4) 0.4589(3)
C52 C 0.5020(5) 0.5478(3) 0.3713(3)
H35 H 0.4911 0.6076 0.3202
C53 C 0.5273(5) 0.4637(3) 0.3578(3)
H36 H 0.5320 0.4662 0.2981
N7 N 0.4275(3) 0.8636(2) 0.5512(2)
N8 N 0.4271(3) 0.7154(3) 0.5757(3)
C70 C 0.0658(4) 0.0903(3) 0.6558(3)
H46 H 0.1426 0.0863 0.6783
C71 C 0.0671(4) 0.1003(3) 0.5650(3)
C74 C 0.1947(4) 0.1012(3) 0.5038(3)
O14 O 0.2985(3) 0.0768(2) 0.5454(2)
O15 O 0.1877(3) 0.1260(2) 0.4191(2)
O18 O 0.4279(3) 0.0629(2) 0.35116(19)
Cd10_2 Cd 0.5000 1.0000 0.5000
C17 C 0.9342(4) 0.9097(3) 0.3442(3)
H10 H 0.8574 0.9137 0.3217
C18 C 0.9329(4) 0.8997(3) 0.4350(3)
C21 C 0.8053(4) 0.8988(3) 0.4962(3)
O5 O 0.7015(3) 0.9232(2) 0.4546(2)
O6 O 0.8123(3) 0.8740(2) 0.5809(2)
O9 O 0.5721(3) 0.9371(2) 0.64884(19)
C75 C 0.3255(4) 0.3437(3) 0.1729(3)
H49 H 0.3781 0.3032 0.1447
C76 C 0.3318(4) 0.3297(4) 0.2617(3)
H50 H 0.3870 0.2784 0.3060
C77 C 0.1798(4) 0.4630(3) 0.1924(3)
H51 H 0.1125 0.5195 0.1822
C78 C 0.2150(4) 0.4269(4) 0.3547(4)
C79 C 0.1931(6) 0.5139(5) 0.3514(5)
H52 H 0.1921 0.5667 0.2939
C80 C 0.1686(5) 0.5300(3) 0.4424(4)
C81 C 0.1732(5) 0.4483(4) 0.5211(4)
C82 C 0.1930(6) 0.3560(4) 0.5276(4)
H53 H 0.1903 0.3039 0.5853
C83 C 0.2167(5) 0.3431(5) 0.4467(4)
H54 H 0.2342 0.2807 0.4492
C84 C 0.1495(6) 0.6242(4) 0.4312(4)
H55 H 0.1489 0.6749 0.3722
C85 C 0.1317(6) 0.6403(4) 0.5100(4)
H56 H 0.1177 0.7026 0.5069
C86 C 0.1353(5) 0.5533(6) 0.6029(5)
C87 C 0.1496(5) 0.4698(4) 0.6066(4)
H57 H 0.1455 0.4188 0.6649
C88 C 0.1698(4) 0.5178(4) 0.7683(3)
H58 H 0.2215 0.4543 0.7847
C89 C 0.0469(4) 0.6618(4) 0.6861(3)
C90 C 0.0610(4) 0.6550(3) 0.7718(3)
H60 H 0.0237 0.7043 0.7926
N9 N 0.2289(3) 0.4274(3) 0.1298(2)
N10 N 0.2390(3) 0.4074(3) 0.2735(2)
N11 N 0.1160(4) 0.5756(3) 0.6840(3)
N12 N 0.1383(3) 0.5649(3) 0.8233(2)
C54 C 0.4502(4) 0.3761(3) 0.9178(3)
C55 C 0.5152(4) 0.2980(3) 0.8811(3)
C56 C 0.4388(4) 0.2471(3) 0.8705(3)
H37 H 0.3495 0.2587 0.8889
C57 C 0.4943(4) 0.1788(3) 0.8327(3)
H38 H 0.4423 0.1452 0.8255
C58 C 0.6292(4) 0.1610(3) 0.8055(3)
C59 C 0.7056(4) 0.2114(3) 0.8164(3)
H39 H 0.7951 0.1995 0.7987
C60 C 0.6485(4) 0.2804(3) 0.8542(3)
H40 H 0.7001 0.3145 0.8612
C68 C 0.8356(4) 0.0924(3) 0.6796(3)
C69 C 0.9516(4) 0.0861(3) 0.7132(3)
H45 H 0.9518 0.0793 0.7741
C72 C 0.9527(4) 0.1060(3) 0.5308(3)
H47 H 0.9532 0.1127 0.4699
C73 C 0.8376(4) 0.1018(3) 0.5884(3)
H48 H 0.7611 0.1052 0.5659
O10 O 0.5165(3) 0.4308(2) 0.9140(2)
O11 O 0.3323(3) 0.3795(2) 0.9482(2)
O16 O 0.5833(3) 0.0754(2) 0.7031(2)
O17 O 0.3375(3) 0.5844(2) 0.9442(2)
P2 P 0.68884(9) 0.07292(7) 0.75457(7)
H43 H 0.8799 0.8383 0.0465
C67 C 0.9471(4) 0.6676(3) 0.0318(3)
O13 O 0.9758(5) 0.6555(2) 0.1075(3)
H59 H 0.9992 0.7151 0.6386
C8 C 0.2521(4) 0.0448(3) 0.1537(3)
C9 C 0.2367(5) 0.1264(3) 0.1728(3)
H5 H 0.2671 0.1184 0.2273
C10 C 0.1774(4) 0.2172(3) 0.1113(3)
H6 H 0.1696 0.2705 0.1244
C11 C 0.1289(4) 0.2322(3) 0.0309(3)
C12 C 0.1490(5) 0.1527(3) 0.0089(3)
C13 C 0.2118(5) 0.0603(3) 0.0694(3)
H8 H 0.2272 0.0080 0.0532
C61 C 0.7479(4) 0.9552(3) 0.8463(3)
C62 C 0.7633(5) 0.8736(3) 0.8272(3)
H41 H 0.7329 0.8816 0.7727
C63 C 0.8226(4) 0.7828(3) 0.8887(3)
H42 H 0.8304 0.7295 0.8756
C64 C 0.8711(4) 0.7678(3) 0.9691(3)
C65 C 0.8510(5) 0.8473(3) 0.9911(3)
C66 C 0.7882(5) 0.9397(3) 0.9306(3)
H44 H 0.7728 0.9920 0.9468
loop_
_geom_bond_atom_site_label_1
_geom_bond_atom_site_label_2
_geom_bond_site_symmetry_1
_geom_bond_site_symmetry_2
O20 C14 1_555 1_555
O4 C14 1_555 1_555
Cd9 O20 1_555 1_555
C1 C2 1_555 1_555
C2 C3 1_555 1_555
C3 H1 1_555 1_555
C4 C3 1_555 1_555
H2 C4 1_555 1_555
C5 C4 1_555 1_555
C6 C5 1_555 1_555
H3 C6 1_555 1_555
C7 C2 1_555 1_555
H4 C7 1_555 1_555
C15 C16 1_555 1_555
C16 H9 1_555 1_555
H11 C19 1_555 1_555
C20 C15 1_555 1_555
H12 C20 1_555 1_555
O1 C1 1_555 1_555
O2 C1 1_555 1_555
O7 P1 1_555 1_555
O8 Cd1 1_555 1_555
P1 C5 1_555 1_555
N13 Cd1 1_555 1_555
O22 Cd1 1_555 1_555
C6 C7 1_555 1_555
C15 P1 1_555 1_555
C19 C20 1_555 1_555
O2 Cd1 1_555 1_555
C22 H13 1_555 1_555
C23 C22 1_555 1_555
H14 C23 1_555 1_555
C24 H15 1_555 1_555
C25 C26 1_555 1_555
C26 H16 1_555 1_555
C27 C26 1_555 1_555
C28 C27 1_555 1_555
C29 C28 1_555 1_555
H17 C29 1_555 1_555
C30 C25 1_555 1_555
H18 C30 1_555 1_555
C31 C27 1_555 1_555
H19 C31 1_555 1_555
C32 C31 1_555 1_555
H20 C32 1_555 1_555
C33 C32 1_555 1_555
C34 C28 1_555 1_555
H21 C34 1_555 1_555
C35 H22 1_555 1_555
C37 C36 1_555 1_555
H24 C37 1_555 1_555
N1 C22 1_555 1_555
N2 C23 1_555 1_555
N3 C33 1_555 1_555
N13 C35 1_555 1_555
C24 N1 1_555 1_555
C24 N2 1_555 1_555
C25 N2 1_555 1_555
C29 C30 1_555 1_555
C33 C34 1_555 1_555
C35 N3 1_555 1_555
C36 N3 1_555 1_555
C37 N13 1_555 1_555
C38 H25 1_555 1_555
C39 C38 1_555 1_555
H26 C39 1_555 1_555
C40 H27 1_555 1_555
C41 C42 1_555 1_555
C42 H28 1_555 1_555
C43 C42 1_555 1_555
C44 C43 1_555 1_555
H29 C44 1_555 1_555
C45 C44 1_555 1_555
H30 C45 1_555 1_555
N5 C39 1_555 1_555
N6 C38 1_555 1_555
Cd10 N5 1_555 1_555
C46 H31 1_555 1_555
C47 C46 1_555 1_555
H32 C47 1_555 1_555
C48 H33 1_555 1_555
C49 C45 1_555 1_555
C50 C49 1_555 1_555
H34 C50 1_555 1_555
C51 C43 1_555 1_555
C52 C51 1_555 1_555
H35 C52 1_555 1_555
C53 C41 1_555 1_555
H36 C53 1_555 1_555
N7 C47 1_555 1_555
N8 C46 1_555 1_555
H46 C70 1_555 1_555
C71 C70 1_555 1_555
C74 C71 1_555 1_555
O14 Cd10 1_555 1_555
O15 C74 1_555 1_555
O18 Cd10 1_555 1_555
Cd10_2 N7 1_555 1_555
C40 N5 1_555 1_555
C40 N6 1_555 1_555
C41 N6 1_555 1_555
C48 N7 1_555 1_555
C48 N8 1_555 1_555
C49 N8 1_555 1_555
C50 C51 1_555 1_555
C52 C53 1_555 1_555
C74 O14 1_555 1_555
H10 C17 1_555 1_555
C18 C17 1_555 1_555
C21 C18 1_555 1_555
O5 C21 1_555 1_555
O6 C21 1_555 1_555
O9 Cd10_2 1_555 1_555
O5 Cd10_2 1_555 1_555
C75 H49 1_555 1_555
C76 C75 1_555 1_555
H50 C76 1_555 1_555
C77 H51 1_555 1_555
C78 C79 1_555 1_555
C79 H52 1_555 1_555
C80 C79 1_555 1_555
C81 C80 1_555 1_555
C82 C81 1_555 1_555
H53 C82 1_555 1_555
C83 C78 1_555 1_555
H54 C83 1_555 1_555
C84 C80 1_555 1_555
H55 C84 1_555 1_555
C85 C84 1_555 1_555
H56 C85 1_555 1_555
C86 C85 1_555 1_555
C87 C81 1_555 1_555
H57 C87 1_555 1_555
C88 H58 1_555 1_555
C90 C89 1_555 1_555
H60 C90 1_555 1_555
N9 C75 1_555 1_555
N10 C76 1_555 1_555
N11 C86 1_555 1_555
N12 C88 1_555 1_555
Cd9 N12 1_555 1_555
C77 N9 1_555 1_555
C77 N10 1_555 1_555
C78 N10 1_555 1_555
C82 C83 1_555 1_555
C86 C87 1_555 1_555
C88 N11 1_555 1_555
C89 N11 1_555 1_555
C90 N12 1_555 1_555
C54 C55 1_555 1_555
C55 C56 1_555 1_555
C56 H37 1_555 1_555
C57 C56 1_555 1_555
H38 C57 1_555 1_555
C58 C57 1_555 1_555
C59 C58 1_555 1_555
H39 C59 1_555 1_555
C60 C55 1_555 1_555
H40 C60 1_555 1_555
C68 C69 1_555 1_555
C69 H45 1_555 1_555
H47 C72 1_555 1_555
C73 C68 1_555 1_555
H48 C73 1_555 1_555
O10 C54 1_555 1_555
O11 C54 1_555 1_555
O16 P2 1_555 1_555
O17 Cd9 1_555 1_555
P2 C58 1_555 1_555
C59 C60 1_555 1_555
C68 P2 1_555 1_555
C72 C73 1_555 1_555
O11 Cd9 1_555 1_555
O22 C67 1_555 1_555
O13 C67 1_555 1_555
C8 C9 1_555 1_555
C9 H5 1_555 1_555
C10 C9 1_555 1_555
H6 C10 1_555 1_555
C11 C10 1_555 1_555
C12 C11 1_555 1_555
C13 C8 1_555 1_555
H8 C13 1_555 1_555
C12 C13 1_555 1_555
C61 C62 1_555 1_555
C62 H41 1_555 1_555
C63 C62 1_555 1_555
H42 C63 1_555 1_555
C64 C63 1_555 1_555
C65 C64 1_555 1_555
C66 C61 1_555 1_555
H44 C66 1_555 1_555
C65 C66 1_555 1_555

#END
