
###############################################################################
#
# This file contains modified crystal structure data generated from the
# MOF subset of the Cambridge Structural Database (CSD) v543 
# hosted by the Cambridge Crystallographic Data Centre (CCDC).
#
# This work is licensed under the Creative Commons
# Attribution-NonCommercial-ShareAlike 4.0 International License.
# To view a copy of this license, visit
# http://creativecommons.org/licenses/by-nc-sa/4.0/
# or send a letter to
# Creative Commons, PO Box 1866, Mountain View, CA 94042, USA.
#
# CIF created using the CSD Python API on 29 September 2022
# The structure has been converted into the P1 space group
# The structure has a 3D framework
# The original CSD entry VESKEM is in the monoclinic crystal system
# The framework has been calculated to contain at least 10.0% void space
# The void calculation uses a probe of radius 1.32A, grid spacing 0.4
#
###############################################################################

data_VESKEM
_chemical_formula_moiety         '(C112 H112 N8 Ni4 O28 S4)n'
_symmetry_cell_setting           triclinic
_symmetry_space_group_name_H-M   'P 1'
_symmetry_Int_Tables_number      1
_space_group_name_Hall           'P 1'
loop_
_symmetry_equiv_pos_site_id
_symmetry_equiv_pos_as_xyz
1 x,y,z
_cell_length_a                   10.2810(2)
_cell_length_b                   23.5073(5)
_cell_length_c                   12.3557(2)
_cell_angle_alpha                90
_cell_angle_beta                 95.674(2)
_cell_angle_gamma                90
_cell_volume                     2971.48
loop_
_atom_site_label
_atom_site_type_symbol
_atom_site_fract_x
_atom_site_fract_y
_atom_site_fract_z
C28 C 0.0356(2) 0.27073(12) 0.3438(2)
H23 H 0.0228 0.2623 0.2675
H24 H 0.0596 0.2366 0.3836
H25 H 0.1040 0.2984 0.3569
C1 C 0.4692(2) 0.20471(12) 0.35664(19)
H1 H 0.5027 0.2022 0.4292
C2 C 0.3510(2) 0.17916(12) 0.32597(19)
H2 H 0.3068 0.1605 0.3777
C3 C 0.2968(2) 0.18089(10) 0.21819(18)
C4 C 0.3628(2) 0.21536(11) 0.1499(2)
H3 H 0.3269 0.2220 0.0790
C5 C 0.4814(2) 0.23979(10) 0.18668(19)
H4 H 0.5234 0.2621 0.1386
C6 C 0.1799(2) 0.14712(9) 0.17857(18)
C7 C 0.1044(2) 0.11951(10) 0.25195(18)
H5 H 0.1239 0.1243 0.3265
C8 C 0.0015(2) 0.08530(9) 0.21254(17)
C10 C 0.0429(2) 0.10554(9) 0.02689(18)
C11 C 0.1474(2) 0.13887(10) 0.06659(18)
H7 H 0.1979 0.1564 0.0177
H8 H 0.0500 0.0259 0.4031
N1 N 0.53889(18) 0.23304(8) 0.28799(15)
Ni1 Ni 0.73221(3) 0.26092(2) 0.33202(3)
O3 O 0.72141(14) 0.22520(7) 0.48372(11)
O4 O 0.74612(15) 0.21042(6) 0.67592(12)
O5 O 0.91173(16) 0.17564(7) 0.56826(13)
O6 O 0.88783(16) 0.27725(7) 0.59425(12)
O7 O 0.91715(15) 0.29293(7) 0.37878(12)
H28 H 0.9274 0.2977 0.4466
S1 S 0.81885(5) 0.22197(2) 0.58076(4)
N3 N 0.64818(18) 0.33844(8) 0.37255(15)
Ni4 Ni 0.73221(3) 0.23908(2) 0.83202(3)
O8 O 0.81179(15) 0.18421(6) 0.28478(12)
O9 O 0.74612(15) 0.28958(6) 0.17592(12)
C9 C 0.9691(2) 0.07832(9) 0.10036(17)
C12 C 0.9128(2) 0.04926(9) 0.27703(17)
C13 C 0.9912(2) 0.00542(10) 0.35055(18)
C15 C 0.8321(2) 0.08531(10) 0.35113(18)
H12 H 0.7779 0.0597 0.3888
H13 H 0.8924 0.1035 0.4058
C16 C 0.7447(2) 0.13086(10) 0.2962(2)
H14 H 0.7104 0.1175 0.2247
H15 H 0.6712 0.1371 0.3383
C17 C 0.8249(2) 0.02164(9) 0.18539(18)
C18 C 0.8575(2) 0.04007(9) 0.08320(18)
H26 H 0.8919 0.1844 0.2558
H9 H 0.9305 0.9844 0.3908
C21 C 0.6501(2) 0.96445(9) 0.09732(18)
C22 C 0.7222(2) 0.98435(9) 0.19269(18)
H18 H 0.7008 0.9724 0.2605
C23 C 0.5432(2) 0.92275(9) 0.10493(18)
C24 C 0.4753(2) 0.91916(10) 0.19721(19)
H19 H 0.4929 0.9451 0.2536
C25 C 0.3826(2) 0.87761(10) 0.20528(18)
H20 H 0.3389 0.8765 0.2677
C26 C 0.4125(2) 0.84368(10) 0.03599(18)
C27 C 0.5054(2) 0.88438(10) 0.02178(18)
N2 N 0.35182(18) 0.83844(8) 0.12745(15)
Ni3 Ni 0.26779(3) 0.76092(2) 0.16798(3)
C9_2 C 0.0309(2) 0.57832(9) 0.39964(17)
C12_2 C 0.0872(2) 0.54926(9) 0.22297(17)
C13_2 C 0.0088(2) 0.50542(10) 0.14945(18)
H9_2 H 0.0695 0.4844 0.1092
C15_2 C 0.1679(2) 0.58531(10) 0.14887(18)
H12_2 H 0.2221 0.5597 0.1112
H13_2 H 0.1076 0.6035 0.0942
C16_2 C 0.2553(2) 0.63086(10) 0.2038(2)
H14_2 H 0.2896 0.6175 0.2753
H15_2 H 0.3288 0.6371 0.1617
C17_2 C 0.1751(2) 0.52164(9) 0.31461(18)
C18_2 C 0.1425(2) 0.54007(9) 0.41680(18)
C19 C 0.2152(2) 0.52163(10) 0.51157(18)
H16 H 0.1953 0.5345 0.5792
C20 C 0.3173(2) 0.48391(10) 0.50387(18)
H17 H 0.3652 0.4712 0.5671
C21_2 C 0.3499(2) 0.46445(9) 0.40268(18)
C22_2 C 0.2778(2) 0.48435(9) 0.30731(18)
H18_2 H 0.2992 0.4724 0.2395
C23_2 C 0.4568(2) 0.42275(9) 0.39507(18)
C24_2 C 0.5247(2) 0.41916(10) 0.30279(19)
H19_2 H 0.5071 0.4451 0.2464
C25_2 C 0.6174(2) 0.37761(10) 0.29472(18)
H20_2 H 0.6611 0.3765 0.2323
C26_2 C 0.5875(2) 0.34368(10) 0.46401(18)
H21 H 0.6097 0.3183 0.5206
C27_2 C 0.4946(2) 0.38438(10) 0.47822(18)
H22 H 0.4570 0.3863 0.5435
O1 O 0.18821(15) 0.68421(6) 0.21522(12)
H26_2 H 0.1081 0.6844 0.2442
C1_2 C 0.5308(2) 0.70471(12) 0.14336(19)
H1_2 H 0.4973 0.7022 0.0708
C2_2 C 0.6490(2) 0.67916(12) 0.17403(19)
H2_2 H 0.6932 0.6605 0.1223
C3_2 C 0.7032(2) 0.68089(10) 0.28181(18)
C4_2 C 0.6372(2) 0.71536(11) 0.3501(2)
H3_2 H 0.6731 0.7220 0.4210
C5_2 C 0.5186(2) 0.73979(10) 0.31332(19)
H4_2 H 0.4766 0.7621 0.3614
C6_2 C 0.8201(2) 0.64712(9) 0.32143(18)
C7_2 C 0.8956(2) 0.61951(10) 0.24805(18)
H5_2 H 0.8761 0.6243 0.1735
C8_2 C 0.9985(2) 0.58530(9) 0.28746(17)
C10_2 C 0.9571(2) 0.60554(9) 0.47311(18)
H6 H 0.9781 0.6013 0.5476
C11_2 C 0.8526(2) 0.63887(10) 0.43341(18)
H7_2 H 0.8021 0.6564 0.4823
H8_2 H 0.9500 0.5259 0.0969
C14 C 0.9290(3) 0.46301(11) 0.2083(2)
H10 H 0.9873 0.4363 0.2483
H11 H 0.8806 0.4830 0.2601
N1_2 N 0.46111(18) 0.73304(8) 0.21201(15)
O2 O 0.83995(19) 0.43275(8) 0.13325(15)
H27 H 0.8734 0.4027 0.1168
O3_2 O 0.27859(14) 0.72520(7) 0.01628(11)
O7_2 O 0.08285(15) 0.79293(7) 0.12122(12)
H28_2 H 0.0726 0.7977 0.0534
O9_2 O 0.25388(15) 0.78958(6) 0.32408(12)
O4_2 O 0.25388(15) 0.71042(6) 0.82408(12)
O5_2 O 0.08827(16) 0.67564(7) 0.93174(13)
O6_2 O 0.11217(16) 0.77725(7) 0.90575(12)
S1_2 S 0.18115(5) 0.72197(2) 0.91924(4)
Ni4_2 Ni 0.26779(3) 0.73908(2) 0.66798(3)
H9_3 H 0.0695 0.0156 0.6092
C21_3 C 0.3499(2) 0.03555(9) 0.90268(18)
C22_3 C 0.2778(2) 0.01565(9) 0.80731(18)
H18_3 H 0.2992 0.0276 0.7395
C23_3 C 0.4568(2) 0.07725(9) 0.89507(18)
C24_3 C 0.5247(2) 0.08084(10) 0.80279(19)
H19_3 H 0.5071 0.0549 0.7464
C25_3 C 0.6174(2) 0.12239(10) 0.79472(18)
H20_3 H 0.6611 0.1235 0.7323
C26_3 C 0.5875(2) 0.15632(10) 0.96401(18)
C27_3 C 0.4946(2) 0.11562(10) 0.97822(18)
N2_2 N 0.64818(18) 0.16156(8) 0.87255(15)
C9_3 C 0.0309(2) 0.92168(9) 0.89964(17)
C12_3 C 0.0872(2) 0.95074(9) 0.72297(17)
C13_3 C 0.0088(2) 0.99458(10) 0.64945(18)
C15_3 C 0.1679(2) 0.91469(10) 0.64887(18)
H12_3 H 0.2221 0.9403 0.6112
H13_3 H 0.1076 0.8965 0.5942
C16_3 C 0.2553(2) 0.86914(10) 0.7038(2)
H14_3 H 0.2896 0.8825 0.7753
H15_3 H 0.3288 0.8629 0.6617
C17_3 C 0.1751(2) 0.97836(9) 0.81461(18)
C18_3 C 0.1425(2) 0.95993(9) 0.91680(18)
O1_2 O 0.18821(15) 0.81579(6) 0.71522(12)
H26_3 H 0.1081 0.8156 0.7442
C1_3 C 0.5308(2) 0.79529(12) 0.64336(19)
H1_3 H 0.4973 0.7978 0.5708
C2_3 C 0.6490(2) 0.82084(12) 0.67403(19)
H2_3 H 0.6932 0.8395 0.6223
C3_3 C 0.7032(2) 0.81911(10) 0.78181(18)
C4_3 C 0.6372(2) 0.78464(11) 0.8501(2)
H3_3 H 0.6731 0.7780 0.9210
C5_3 C 0.5186(2) 0.76021(10) 0.81332(19)
H4_3 H 0.4766 0.7379 0.8614
C6_3 C 0.8201(2) 0.85288(9) 0.82143(18)
C7_3 C 0.8956(2) 0.88049(10) 0.74805(18)
H5_3 H 0.8761 0.8757 0.6735
C8_3 C 0.9985(2) 0.91470(9) 0.78746(17)
C10_3 C 0.9571(2) 0.89446(9) 0.97311(18)
C11_3 C 0.8526(2) 0.86113(10) 0.93341(18)
H7_3 H 0.8021 0.8436 0.9823
H8_3 H 0.9500 0.9741 0.5969
N1_3 N 0.46111(18) 0.76696(8) 0.71201(15)
O3_3 O 0.27859(14) 0.77480(7) 0.51628(11)
O5_3 O 0.08827(16) 0.82436(7) 0.43174(13)
O6_3 O 0.11217(16) 0.72275(7) 0.40575(12)
O7_3 O 0.08285(15) 0.70707(7) 0.62122(12)
H28_3 H 0.0726 0.7023 0.5534
S1_3 S 0.18115(5) 0.77803(2) 0.41924(4)
N3_2 N 0.35182(18) 0.66156(8) 0.62745(15)
O5_4 O 0.91173(16) 0.32436(7) 0.06826(13)
O6_4 O 0.88783(16) 0.22275(7) 0.09425(12)
S1_4 S 0.81885(5) 0.27803(2) 0.08076(4)
C1_4 C 0.4692(2) 0.29529(12) 0.85664(19)
H1_4 H 0.5027 0.2978 0.9292
C2_4 C 0.3510(2) 0.32084(12) 0.82597(19)
H2_4 H 0.3068 0.3395 0.8777
C3_4 C 0.2968(2) 0.31911(10) 0.71819(18)
C4_4 C 0.3628(2) 0.28464(11) 0.6499(2)
H3_4 H 0.3269 0.2780 0.5790
C5_4 C 0.4814(2) 0.26021(10) 0.68668(19)
H4_4 H 0.5234 0.2379 0.6386
C6_4 C 0.1799(2) 0.35288(9) 0.67857(18)
C7_4 C 0.1044(2) 0.38049(10) 0.75195(18)
H5_4 H 0.1239 0.3757 0.8265
C8_4 C 0.0015(2) 0.41470(9) 0.71254(17)
C10_4 C 0.0429(2) 0.39446(9) 0.52689(18)
H6_2 H 0.0219 0.3987 0.4524
C11_4 C 0.1474(2) 0.36113(10) 0.56659(18)
H7_4 H 0.1979 0.3436 0.5177
H8_4 H 0.0500 0.4741 0.9031
C14_2 C 0.0710(3) 0.53699(11) 0.7917(2)
H10_2 H 0.0127 0.5637 0.7517
H11_2 H 0.1194 0.5170 0.7399
N1_4 N 0.53889(18) 0.26696(8) 0.78799(15)
O2_2 O 0.16005(19) 0.56725(8) 0.86675(15)
H27_2 H 0.1266 0.5973 0.8832
O3_4 O 0.72141(14) 0.27480(7) 0.98372(11)
O7_4 O 0.91715(15) 0.20707(7) 0.87878(12)
H28_4 H 0.9274 0.2023 0.9466
O8_2 O 0.81179(15) 0.31579(6) 0.78478(12)
C9_4 C 0.9691(2) 0.42168(9) 0.60036(17)
C12_4 C 0.9128(2) 0.45074(9) 0.77703(17)
C13_4 C 0.9912(2) 0.49458(10) 0.85055(18)
H9_4 H 0.9305 0.5156 0.8908
C15_4 C 0.8321(2) 0.41469(10) 0.85113(18)
H12_4 H 0.7779 0.4403 0.8888
H13_4 H 0.8924 0.3965 0.9058
C16_4 C 0.7447(2) 0.36914(10) 0.7962(2)
H14_4 H 0.7104 0.3825 0.7247
H15_4 H 0.6712 0.3629 0.8383
C17_4 C 0.8249(2) 0.47836(9) 0.68539(18)
C18_4 C 0.8575(2) 0.45993(9) 0.58320(18)
C19_2 C 0.7848(2) 0.47837(10) 0.48843(18)
H16_2 H 0.8047 0.4655 0.4208
C20_2 C 0.6827(2) 0.51609(10) 0.49613(18)
H17_2 H 0.6348 0.5288 0.4329
C21_4 C 0.6501(2) 0.53555(9) 0.59732(18)
C22_4 C 0.7222(2) 0.51565(9) 0.69269(18)
H18_4 H 0.7008 0.5276 0.7605
C23_4 C 0.5432(2) 0.57725(9) 0.60493(18)
C24_4 C 0.4753(2) 0.58084(10) 0.69721(19)
H19_4 H 0.4929 0.5549 0.7536
C25_4 C 0.3826(2) 0.62239(10) 0.70528(18)
H20_4 H 0.3389 0.6235 0.7677
C26_4 C 0.4125(2) 0.65632(10) 0.53599(18)
H21_2 H 0.3903 0.6817 0.4794
C27_4 C 0.5054(2) 0.61562(10) 0.52178(18)
H22_2 H 0.5430 0.6137 0.4565
H26_4 H 0.8919 0.3156 0.7558
H6_3 H 0.0219 0.1013 0.9524
C14_3 C 0.0710(3) 0.96301(11) 0.2917(2)
H10_3 H 0.0127 0.9363 0.2517
H11_3 H 0.1194 0.9830 0.2399
O2_3 O 0.16005(19) 0.93275(8) 0.36675(15)
H27_3 H 0.1266 0.9027 0.3832
C19_3 C 0.7848(2) 0.02163(10) 0.98843(18)
H16_3 H 0.8047 0.0345 0.9208
C20_3 C 0.6827(2) 0.98391(10) 0.99613(18)
H17_3 H 0.6348 0.9712 0.9329
H21_3 H 0.3903 0.8183 0.9794
H22_3 H 0.5430 0.8863 0.9565
C28_2 C 0.9644(2) 0.77073(12) 0.1562(2)
H23_2 H 0.9772 0.7623 0.2325
H24_2 H 0.9404 0.7366 0.1164
H25_2 H 0.8960 0.7984 0.1431
C20_4 C 0.3173(2) 0.01609(10) 0.00387(18)
H17_4 H 0.3652 0.0288 0.0671
H21_4 H 0.6097 0.1817 0.0206
H22_4 H 0.4570 0.1137 0.0435
C19_4 C 0.2152(2) 0.97837(10) 0.01157(18)
H16_4 H 0.1953 0.9655 0.0792
C14_4 C 0.9290(3) 0.03699(11) 0.7083(2)
H10_4 H 0.9873 0.0637 0.7483
H11_4 H 0.8806 0.0170 0.7601
O2_4 O 0.83995(19) 0.06725(8) 0.63325(15)
H27_4 H 0.8734 0.0973 0.6168
H6_4 H 0.9781 0.8987 0.0476
C28_3 C 0.9644(2) 0.72927(12) 0.6562(2)
H23_3 H 0.9772 0.7377 0.7325
H24_3 H 0.9404 0.7634 0.6164
H25_3 H 0.8960 0.7016 0.6431
C28_4 C 0.0356(2) 0.22927(12) 0.8438(2)
H23_4 H 0.0228 0.2377 0.7675
H24_4 H 0.0596 0.2634 0.8836
H25_4 H 0.1040 0.2016 0.8569
loop_
_geom_bond_atom_site_label_1
_geom_bond_atom_site_label_2
_geom_bond_site_symmetry_1
_geom_bond_site_symmetry_2
C28 H23 1_555 1_555
H24 C28 1_555 1_555
H25 C28 1_555 1_555
C1 H1 1_555 1_555
C2 C1 1_555 1_555
H2 C2 1_555 1_555
C3 C2 1_555 1_555
C4 C3 1_555 1_555
H3 C4 1_555 1_555
C5 C4 1_555 1_555
H4 C5 1_555 1_555
C6 C3 1_555 1_555
C7 C6 1_555 1_555
H5 C7 1_555 1_555
C8 C7 1_555 1_555
C11 C6 1_555 1_555
H7 C11 1_555 1_555
N1 C1 1_555 1_555
Ni1 N1 1_555 1_555
O3 Ni1 1_555 1_555
O4 S1 1_555 1_555
O5 S1 1_555 1_555
O6 S1 1_555 1_555
H28 O7 1_555 1_555
S1 O3 1_555 1_555
N3 Ni1 1_555 1_555
Ni4 O4 1_555 1_555
O8 Ni1 1_555 1_555
O9 Ni1 1_555 1_555
C5 N1 1_555 1_555
C10 C11 1_555 1_555
Ni1 O7 1_555 1_555
C13 C12 1_555 1_555
C15 C12 1_555 1_555
H12 C15 1_555 1_555
H13 C15 1_555 1_555
C16 C15 1_555 1_555
H14 C16 1_555 1_555
H15 C16 1_555 1_555
C17 C12 1_555 1_555
C18 C9 1_555 1_555
O8 C16 1_555 1_555
H26 O8 1_555 1_555
C17 C18 1_555 1_555
H18 C22 1_555 1_555
C23 C21 1_555 1_555
C24 C23 1_555 1_555
H19 C24 1_555 1_555
C25 C24 1_555 1_555
H20 C25 1_555 1_555
C27 C23 1_555 1_555
N2 C25 1_555 1_555
Ni3 N2 1_555 1_555
C21 C22 1_555 1_555
C26 C27 1_555 1_555
C26 N2 1_555 1_555
C13_2 C12_2 1_555 1_555
H9_2 C13_2 1_555 1_555
C15_2 C12_2 1_555 1_555
H12_2 C15_2 1_555 1_555
H13_2 C15_2 1_555 1_555
C16_2 C15_2 1_555 1_555
H14_2 C16_2 1_555 1_555
H15_2 C16_2 1_555 1_555
C17_2 C12_2 1_555 1_555
C18_2 C9_2 1_555 1_555
C19 C18_2 1_555 1_555
H16 C19 1_555 1_555
C20 C19 1_555 1_555
H17 C20 1_555 1_555
C21_2 C20 1_555 1_555
C22_2 C17_2 1_555 1_555
H18_2 C22_2 1_555 1_555
C23_2 C21_2 1_555 1_555
C24_2 C23_2 1_555 1_555
H19_2 C24_2 1_555 1_555
C25_2 C24_2 1_555 1_555
H20_2 C25_2 1_555 1_555
C26_2 H21 1_555 1_555
C27_2 C23_2 1_555 1_555
H22 C27_2 1_555 1_555
N3 C25_2 1_555 1_555
O1 C16_2 1_555 1_555
H26_2 O1 1_555 1_555
Ni3 O1 1_555 1_555
C17_2 C18_2 1_555 1_555
C21_2 C22_2 1_555 1_555
C26_2 C27_2 1_555 1_555
C26_2 N3 1_555 1_555
C1_2 H1_2 1_555 1_555
C2_2 C1_2 1_555 1_555
H2_2 C2_2 1_555 1_555
C3_2 C2_2 1_555 1_555
C4_2 C3_2 1_555 1_555
H3_2 C4_2 1_555 1_555
C5_2 C4_2 1_555 1_555
H4_2 C5_2 1_555 1_555
C6_2 C3_2 1_555 1_555
C7_2 C6_2 1_555 1_555
H5_2 C7_2 1_555 1_555
C8_2 C7_2 1_555 1_555
H6 C10_2 1_555 1_555
C11_2 C6_2 1_555 1_555
H7_2 C11_2 1_555 1_555
H10 C14 1_555 1_555
H11 C14 1_555 1_555
N1_2 C1_2 1_555 1_555
Ni3 N1_2 1_555 1_555
O2 C14 1_555 1_555
H27 O2 1_555 1_555
O3_2 Ni3 1_555 1_555
H28_2 O7_2 1_555 1_555
O9_2 Ni3 1_555 1_555
C5_2 N1_2 1_555 1_555
C10_2 C11_2 1_555 1_555
Ni3 O7_2 1_555 1_555
O4_2 S1_2 1_555 1_555
O5_2 S1_2 1_555 1_555
O6_2 S1_2 1_555 1_555
Ni4_2 O4_2 1_555 1_555
H18_3 C22_3 1_555 1_555
C23_3 C21_3 1_555 1_555
C24_3 C23_3 1_555 1_555
H19_3 C24_3 1_555 1_555
C25_3 C24_3 1_555 1_555
H20_3 C25_3 1_555 1_555
C27_3 C23_3 1_555 1_555
N2_2 C25_3 1_555 1_555
Ni4 N2_2 1_555 1_555
C21_3 C22_3 1_555 1_555
C26_3 C27_3 1_555 1_555
C26_3 N2_2 1_555 1_555
C13_3 C12_3 1_555 1_555
C15_3 C12_3 1_555 1_555
H12_3 C15_3 1_555 1_555
H13_3 C15_3 1_555 1_555
C16_3 C15_3 1_555 1_555
H14_3 C16_3 1_555 1_555
H15_3 C16_3 1_555 1_555
C17_3 C12_3 1_555 1_555
C18_3 C9_3 1_555 1_555
O1_2 C16_3 1_555 1_555
H26_3 O1_2 1_555 1_555
Ni4_2 O1_2 1_555 1_555
C17_3 C18_3 1_555 1_555
C1_3 H1_3 1_555 1_555
C2_3 C1_3 1_555 1_555
H2_3 C2_3 1_555 1_555
C3_3 C2_3 1_555 1_555
C4_3 C3_3 1_555 1_555
H3_3 C4_3 1_555 1_555
C5_3 C4_3 1_555 1_555
H4_3 C5_3 1_555 1_555
C6_3 C3_3 1_555 1_555
C7_3 C6_3 1_555 1_555
H5_3 C7_3 1_555 1_555
C8_3 C7_3 1_555 1_555
C11_3 C6_3 1_555 1_555
H7_3 C11_3 1_555 1_555
N1_3 C1_3 1_555 1_555
Ni4_2 N1_3 1_555 1_555
O3_3 Ni4_2 1_555 1_555
O9_2 S1_3 1_555 1_555
O5_3 S1_3 1_555 1_555
O6_3 S1_3 1_555 1_555
H28_3 O7_3 1_555 1_555
S1_3 O3_3 1_555 1_555
N3_2 Ni4_2 1_555 1_555
C5_3 N1_3 1_555 1_555
C10_3 C11_3 1_555 1_555
Ni4_2 O7_3 1_555 1_555
O9 S1_4 1_555 1_555
O5_4 S1_4 1_555 1_555
O6_4 S1_4 1_555 1_555
C1_4 H1_4 1_555 1_555
C2_4 C1_4 1_555 1_555
H2_4 C2_4 1_555 1_555
C3_4 C2_4 1_555 1_555
C4_4 C3_4 1_555 1_555
H3_4 C4_4 1_555 1_555
C5_4 C4_4 1_555 1_555
H4_4 C5_4 1_555 1_555
C6_4 C3_4 1_555 1_555
C7_4 C6_4 1_555 1_555
H5_4 C7_4 1_555 1_555
C8_4 C7_4 1_555 1_555
H6_2 C10_4 1_555 1_555
C11_4 C6_4 1_555 1_555
H7_4 C11_4 1_555 1_555
H10_2 C14_2 1_555 1_555
H11_2 C14_2 1_555 1_555
N1_4 C1_4 1_555 1_555
Ni4 N1_4 1_555 1_555
O2_2 C14_2 1_555 1_555
H27_2 O2_2 1_555 1_555
O3_4 Ni4 1_555 1_555
H28_4 O7_4 1_555 1_555
O8_2 Ni4 1_555 1_555
C5_4 N1_4 1_555 1_555
C10_4 C11_4 1_555 1_555
Ni4 O7_4 1_555 1_555
C13_4 C12_4 1_555 1_555
H9_4 C13_4 1_555 1_555
C15_4 C12_4 1_555 1_555
H12_4 C15_4 1_555 1_555
H13_4 C15_4 1_555 1_555
C16_4 C15_4 1_555 1_555
H14_4 C16_4 1_555 1_555
H15_4 C16_4 1_555 1_555
C17_4 C12_4 1_555 1_555
C18_4 C9_4 1_555 1_555
C19_2 C18_4 1_555 1_555
H16_2 C19_2 1_555 1_555
C20_2 C19_2 1_555 1_555
H17_2 C20_2 1_555 1_555
C21_4 C20_2 1_555 1_555
C22_4 C17_4 1_555 1_555
H18_4 C22_4 1_555 1_555
C23_4 C21_4 1_555 1_555
C24_4 C23_4 1_555 1_555
H19_4 C24_4 1_555 1_555
C25_4 C24_4 1_555 1_555
H20_4 C25_4 1_555 1_555
C26_4 H21_2 1_555 1_555
C27_4 C23_4 1_555 1_555
H22_2 C27_4 1_555 1_555
N3_2 C25_4 1_555 1_555
O8_2 C16_4 1_555 1_555
H26_4 O8_2 1_555 1_555
C17_4 C18_4 1_555 1_555
C21_4 C22_4 1_555 1_555
C26_4 C27_4 1_555 1_555
C26_4 N3_2 1_555 1_555
H10_3 C14_3 1_555 1_555
H11_3 C14_3 1_555 1_555
O2_3 C14_3 1_555 1_555
H27_3 O2_3 1_555 1_555
H16_3 C19_3 1_555 1_555
H17_3 C20_3 1_555 1_555
C28_2 H23_2 1_555 1_555
H24_2 C28_2 1_555 1_555
H25_2 C28_2 1_555 1_555
H17_4 C20_4 1_555 1_555
H16_4 C19_4 1_555 1_555
H10_4 C14_4 1_555 1_555
H11_4 C14_4 1_555 1_555
O2_4 C14_4 1_555 1_555
H27_4 O2_4 1_555 1_555
C28_3 H23_3 1_555 1_555
H24_3 C28_3 1_555 1_555
H25_3 C28_3 1_555 1_555
C28_4 H23_4 1_555 1_555
H24_4 C28_4 1_555 1_555
H25_4 C28_4 1_555 1_555

#END
