
###############################################################################
#
# This file contains modified crystal structure data generated from the
# MOF subset of the Cambridge Structural Database (CSD) v543 
# hosted by the Cambridge Crystallographic Data Centre (CCDC).
#
# This work is licensed under the Creative Commons
# Attribution-NonCommercial-ShareAlike 4.0 International License.
# To view a copy of this license, visit
# http://creativecommons.org/licenses/by-nc-sa/4.0/
# or send a letter to
# Creative Commons, PO Box 1866, Mountain View, CA 94042, USA.
#
# CIF created using the CSD Python API on 29 September 2022
# The structure has been converted into the P1 space group
# The structure has a 3D framework
# The original CSD entry VETJAI is in the triclinic crystal system
# The framework has been calculated to contain at least 10.0% void space
# The void calculation uses a probe of radius 1.32A, grid spacing 0.4
#
###############################################################################

data_VETJAI
_chemical_formula_moiety         '(C68 H24 F32 N4 O16 Zn4)n'
_symmetry_cell_setting           triclinic
_symmetry_space_group_name_H-M   'P 1'
_symmetry_Int_Tables_number      1
_space_group_name_Hall           'P 1'
loop_
_symmetry_equiv_pos_site_id
_symmetry_equiv_pos_as_xyz
1 x,y,z
_cell_length_a                   9.7098(19)
_cell_length_b                   15.254(3)
_cell_length_c                   15.257(3)
_cell_angle_alpha                81.81(3)
_cell_angle_beta                 88.66(3)
_cell_angle_gamma                84.56(3)
_cell_volume                     2226.53
loop_
_atom_site_label
_atom_site_type_symbol
_atom_site_fract_x
_atom_site_fract_y
_atom_site_fract_z
Zn7 Zn 0.09011(9) 0.19968(6) 0.28732(5)
O7 O 0.3781(6) 0.0585(4) 0.2735(3)
O8 O 0.1513(6) 0.0639(4) 0.3149(3)
C28 C 0.2639(9) 0.0248(6) 0.2916(5)
Zn4 Zn 0.40218(9) 0.18927(6) 0.28303(5)
F1 F 0.4632(6) 0.1053(5) 0.0287(3)
O1 O 0.3597(6) 0.2164(4) 0.1496(3)
O2 O 0.1373(6) 0.1858(4) 0.1568(3)
C1 C 0.2496(8) 0.2020(6) 0.1165(4)
C2 C 0.2512(8) 0.1950(6) 0.0192(5)
F2 F 0.4599(7) 0.0915(5) 0.8552(3)
F3 F 0.0397(6) 0.2706(5) 0.8251(3)
F4 F 0.0324(6) 0.2797(4) 0.9991(3)
F5 F 0.0564(6) 0.1008(4) 0.7503(3)
F6 F 0.0499(6) 0.1005(4) 0.5752(3)
F7 F 0.4515(7) 0.2559(6) 0.5430(3)
F8 F 0.4511(7) 0.2573(6) 0.7180(3)
F9 F 0.4067(6) 0.4711(4) 0.1665(4)
F10 F 0.4139(7) 0.6463(4) 0.1675(3)
F11 F 0.0414(6) 0.6412(3) 0.3745(3)
F12 F 0.0396(6) 0.4653(3) 0.3778(4)
F13 F 0.2218(7) 0.7850(4) 0.1200(3)
F14 F 0.2420(6) 0.9583(3) 0.1302(3)
F15 F 0.2747(5) 0.8905(3) 0.4426(3)
F16 F 0.2577(6) 0.7169(3) 0.4333(3)
O3 O 0.1130(6) 0.3335(4) 0.2598(3)
O4 O 0.1311(5) 0.2069(4) 0.4168(3)
O5 O 0.3420(6) 0.3200(4) 0.2924(4)
O6 O 0.3593(5) 0.1613(4) 0.4165(3)
C3 C 0.3568(9) 0.1473(6) 0.9791(4)
C4 C 0.3561(9) 0.1415(7) 0.8901(5)
C5 C 0.2526(9) 0.1849(7) 0.8361(5)
C6 C 0.1463(9) 0.2303(7) 0.8756(5)
C7 C 0.1420(10) 0.2347(7) 0.9656(5)
C8 C 0.2540(9) 0.1807(7) 0.7381(5)
C9 C 0.1540(9) 0.1407(6) 0.6989(4)
C10 C 0.1521(8) 0.1398(5) 0.6090(4)
C11 C 0.2479(8) 0.1804(6) 0.5520(4)
C12 C 0.3489(11) 0.2174(8) 0.5921(5)
C13 C 0.3545(10) 0.2177(8) 0.6825(5)
C14 C 0.2458(8) 0.1819(6) 0.4534(4)
C15 C 0.2249(9) 0.3648(6) 0.2744(5)
C16 C 0.2218(9) 0.4622(5) 0.2724(5)
C17 C 0.3150(9) 0.5110(6) 0.2199(5)
C18 C 0.3190(11) 0.6008(6) 0.2195(5)
C19 C 0.2282(10) 0.6492(6) 0.2725(5)
C20 C 0.1361(9) 0.6006(6) 0.3249(5)
C21 C 0.1297(10) 0.5100(6) 0.3229(6)
C22 C 0.2368(10) 0.7447(6) 0.2762(5)
C23 C 0.2378(11) 0.8083(6) 0.2006(5)
C24 C 0.2491(10) 0.8977(6) 0.2062(5)
C25 C 0.2609(9) 0.9275(6) 0.2861(5)
C26 C 0.2617(10) 0.8657(6) 0.3618(5)
C27 C 0.2477(9) 0.7768(6) 0.3571(5)
N1 N 0.6140(6) 0.1931(4) 0.2850(3)
N2 N 0.8782(7) 0.1991(4) 0.2857(3)
C29 C 0.6835(11) 0.1015(8) 0.3004(11)
H1 H 0.6567 0.0679 0.2535
H2 H 0.6527 0.0709 0.3581
C30 C 0.8424(12) 0.1027(9) 0.2999(11)
H3 H 0.8803 0.0719 0.3570
H4 H 0.8839 0.0713 0.2519
C31 C 0.6659(10) 0.2384(9) 0.1992(6)
H5 H 0.6211 0.3000 0.1878
H6 H 0.6415 0.2065 0.1505
C32 C 0.8249(11) 0.2407(10) 0.2014(6)
H7 H 0.8685 0.2093 0.1539
H8 H 0.8481 0.3032 0.1904
C33 C 0.6546(10) 0.2397(8) 0.3568(7)
H9 H 0.6219 0.2096 0.4142
H10 H 0.6107 0.3015 0.3481
C34 C 0.8124(10) 0.2405(9) 0.3581(7)
H11 H 0.8362 0.3027 0.3534
H12 H 0.8481 0.2083 0.4152
N3 N 0.1218(7) 0.8009(4) 0.7143(3)
Zn1 Zn 0.59782(9) 0.81073(6) 0.71697(5)
Zn2 Zn 0.90989(9) 0.80032(6) 0.71268(5)
F2_2 F 0.5401(7) 0.9085(5) 0.1448(3)
F3_2 F 0.9603(6) 0.7294(5) 0.1749(3)
F4_2 F 0.9676(6) 0.7203(4) 0.0009(3)
F5_2 F 0.9436(6) 0.8992(4) 0.2497(3)
F6_2 F 0.9501(6) 0.8995(4) 0.4248(3)
F7_2 F 0.5485(7) 0.7441(6) 0.4570(3)
F8_2 F 0.5489(7) 0.7427(6) 0.2820(3)
F9_2 F 0.5933(6) 0.5289(4) 0.8335(4)
F10_2 F 0.5861(7) 0.3537(4) 0.8325(3)
F11_2 F 0.9586(6) 0.3588(3) 0.6255(3)
F12_2 F 0.9604(6) 0.5347(3) 0.6222(4)
F13_2 F 0.7782(7) 0.2150(4) 0.8800(3)
F14_2 F 0.7580(6) 0.0417(3) 0.8698(3)
F15_2 F 0.7253(5) 0.1095(3) 0.5574(3)
F16_2 F 0.7423(6) 0.2831(3) 0.5667(3)
O3_2 O 0.8870(6) 0.6665(4) 0.7402(3)
O4_2 O 0.8689(5) 0.7931(4) 0.5832(3)
O5_2 O 0.6580(6) 0.6800(4) 0.7076(4)
O6_2 O 0.6407(5) 0.8387(4) 0.5835(3)
C3_2 C 0.6432(9) 0.8527(6) 0.0209(4)
C4_2 C 0.6439(9) 0.8585(7) 0.1099(5)
C5_2 C 0.7474(9) 0.8151(7) 0.1639(5)
C6_2 C 0.8537(9) 0.7697(7) 0.1244(5)
C7_2 C 0.8580(10) 0.7653(7) 0.0344(5)
C8_2 C 0.7460(9) 0.8193(7) 0.2619(5)
C9_2 C 0.8460(9) 0.8593(6) 0.3011(4)
C10_2 C 0.8479(8) 0.8602(5) 0.3910(4)
C11_2 C 0.7521(8) 0.8196(6) 0.4480(4)
C12_2 C 0.6511(11) 0.7826(8) 0.4079(5)
C13_2 C 0.6455(10) 0.7823(8) 0.3175(5)
C14_2 C 0.7542(8) 0.8181(6) 0.5466(4)
C15_2 C 0.7751(9) 0.6352(6) 0.7256(5)
C16_2 C 0.7782(9) 0.5378(5) 0.7276(5)
C17_2 C 0.6850(9) 0.4890(6) 0.7801(5)
C18_2 C 0.6810(11) 0.3992(6) 0.7805(5)
C19_2 C 0.7718(10) 0.3508(6) 0.7275(5)
C20_2 C 0.8639(9) 0.3994(6) 0.6751(5)
C21_2 C 0.8703(10) 0.4900(6) 0.6771(6)
C22_2 C 0.7632(10) 0.2553(6) 0.7238(5)
C23_2 C 0.7622(11) 0.1917(6) 0.7994(5)
C24_2 C 0.7509(10) 0.1023(6) 0.7938(5)
C25_2 C 0.7391(9) 0.0725(6) 0.7139(5)
C26_2 C 0.7383(10) 0.1343(6) 0.6382(5)
C27_2 C 0.7523(9) 0.2232(6) 0.6429(5)
N1_2 N 0.3860(6) 0.8069(4) 0.7150(3)
C29_2 C 0.3165(11) 0.8985(8) 0.6996(11)
H1_2 H 0.3433 0.9321 0.7465
H2_2 H 0.3473 0.9291 0.6419
C30_2 C 0.1576(12) 0.8973(9) 0.7001(11)
H3_2 H 0.1197 0.9281 0.6430
H4_2 H 0.1161 0.9287 0.7481
C31_2 C 0.3341(10) 0.7616(9) 0.8008(6)
H5_2 H 0.3789 0.7000 0.8122
H6_2 H 0.3585 0.7935 0.8495
C32_2 C 0.1751(11) 0.7593(10) 0.7986(6)
H7_2 H 0.1315 0.7907 0.8461
H8_2 H 0.1519 0.6968 0.8096
C33_2 C 0.3454(10) 0.7603(8) 0.6432(7)
H9_2 H 0.3781 0.7904 0.5858
H10_2 H 0.3893 0.6985 0.6519
C34_2 C 0.1876(10) 0.7595(9) 0.6419(7)
H11_2 H 0.1638 0.6973 0.6466
H12_2 H 0.1519 0.7917 0.5848
O9 O 0.6403(6) 0.7836(4) 0.8504(3)
O10 O 0.8627(6) 0.8142(4) 0.8432(3)
O11 O 0.6219(6) 0.9415(4) 0.7265(3)
O12 O 0.8487(6) 0.9361(4) 0.6851(3)
F1_2 F 0.5368(6) 0.8947(5) 0.9713(3)
C1_2 C 0.7504(8) 0.7980(6) 0.8835(4)
C2_2 C 0.7488(8) 0.8050(6) 0.9808(5)
C28_2 C 0.7361(9) 0.9752(6) 0.7084(5)
loop_
_geom_bond_atom_site_label_1
_geom_bond_atom_site_label_2
_geom_bond_site_symmetry_1
_geom_bond_site_symmetry_2
O7 C28 1_555 1_555
O8 C28 1_555 1_555
Zn4 O7 1_555 1_555
Zn7 O8 1_555 1_555
O1 C1 1_555 1_555
O2 C1 1_555 1_555
C1 C2 1_555 1_555
Zn4 O1 1_555 1_555
Zn7 O2 1_555 1_555
Zn4 O5 1_555 1_555
Zn7 O3 1_555 1_555
F2 C4 1_555 1_555
F3 C6 1_555 1_555
F4 C7 1_555 1_555
F5 C9 1_555 1_555
F6 C10 1_555 1_555
F7 C12 1_555 1_555
F8 C13 1_555 1_555
F9 C17 1_555 1_555
F10 C18 1_555 1_555
F11 C20 1_555 1_555
F12 C21 1_555 1_555
F13 C23 1_555 1_555
F14 C24 1_555 1_555
F15 C26 1_555 1_555
F16 C27 1_555 1_555
O3 C15 1_555 1_555
O4 Zn7 1_555 1_555
O5 C15 1_555 1_555
O6 Zn4 1_555 1_555
C3 C4 1_555 1_555
C4 C5 1_555 1_555
C5 C6 1_555 1_555
C6 C7 1_555 1_555
C8 C5 1_555 1_555
C9 C8 1_555 1_555
C10 C9 1_555 1_555
C11 C10 1_555 1_555
C12 C11 1_555 1_555
C13 C8 1_555 1_555
C14 O4 1_555 1_555
C15 C16 1_555 1_555
C16 C17 1_555 1_555
C17 C18 1_555 1_555
C18 C19 1_555 1_555
C19 C20 1_555 1_555
C20 C21 1_555 1_555
C21 C16 1_555 1_555
C22 C19 1_555 1_555
C23 C22 1_555 1_555
C24 C23 1_555 1_555
C25 C24 1_555 1_555
C26 C25 1_555 1_555
C27 C22 1_555 1_555
N1 Zn4 1_555 1_555
N2 C30 1_555 1_555
C29 N1 1_555 1_555
H1 C29 1_555 1_555
H2 C29 1_555 1_555
C30 C29 1_555 1_555
H3 C30 1_555 1_555
H4 C30 1_555 1_555
C31 N1 1_555 1_555
H5 C31 1_555 1_555
H6 C31 1_555 1_555
C32 N2 1_555 1_555
H7 C32 1_555 1_555
H8 C32 1_555 1_555
C33 N1 1_555 1_555
H9 C33 1_555 1_555
H10 C33 1_555 1_555
C34 N2 1_555 1_555
H11 C34 1_555 1_555
H12 C34 1_555 1_555
O6 C14 1_555 1_555
C11 C14 1_555 1_555
C12 C13 1_555 1_555
C26 C27 1_555 1_555
C31 C32 1_555 1_555
C33 C34 1_555 1_555
Zn1 O5_2 1_555 1_555
Zn2 O3_2 1_555 1_555
F2_2 C4_2 1_555 1_555
F3_2 C6_2 1_555 1_555
F4_2 C7_2 1_555 1_555
F5_2 C9_2 1_555 1_555
F6_2 C10_2 1_555 1_555
F7_2 C12_2 1_555 1_555
F8_2 C13_2 1_555 1_555
F9_2 C17_2 1_555 1_555
F10_2 C18_2 1_555 1_555
F11_2 C20_2 1_555 1_555
F12_2 C21_2 1_555 1_555
F13_2 C23_2 1_555 1_555
F14_2 C24_2 1_555 1_555
F15_2 C26_2 1_555 1_555
F16_2 C27_2 1_555 1_555
O3_2 C15_2 1_555 1_555
O4_2 Zn2 1_555 1_555
O5_2 C15_2 1_555 1_555
O6_2 Zn1 1_555 1_555
C3_2 C4_2 1_555 1_555
C4_2 C5_2 1_555 1_555
C5_2 C6_2 1_555 1_555
C6_2 C7_2 1_555 1_555
C8_2 C5_2 1_555 1_555
C9_2 C8_2 1_555 1_555
C10_2 C9_2 1_555 1_555
C11_2 C10_2 1_555 1_555
C12_2 C11_2 1_555 1_555
C13_2 C8_2 1_555 1_555
C14_2 O4_2 1_555 1_555
C15_2 C16_2 1_555 1_555
C16_2 C17_2 1_555 1_555
C17_2 C18_2 1_555 1_555
C18_2 C19_2 1_555 1_555
C19_2 C20_2 1_555 1_555
C20_2 C21_2 1_555 1_555
C21_2 C16_2 1_555 1_555
C22_2 C19_2 1_555 1_555
C23_2 C22_2 1_555 1_555
C24_2 C23_2 1_555 1_555
C25_2 C24_2 1_555 1_555
C26_2 C25_2 1_555 1_555
C27_2 C22_2 1_555 1_555
N1_2 Zn1 1_555 1_555
N3 C30_2 1_555 1_555
C29_2 N1_2 1_555 1_555
H1_2 C29_2 1_555 1_555
H2_2 C29_2 1_555 1_555
C30_2 C29_2 1_555 1_555
H3_2 C30_2 1_555 1_555
H4_2 C30_2 1_555 1_555
C31_2 N1_2 1_555 1_555
H5_2 C31_2 1_555 1_555
H6_2 C31_2 1_555 1_555
C32_2 N3 1_555 1_555
H7_2 C32_2 1_555 1_555
H8_2 C32_2 1_555 1_555
C33_2 N1_2 1_555 1_555
H9_2 C33_2 1_555 1_555
H10_2 C33_2 1_555 1_555
C34_2 N3 1_555 1_555
H11_2 C34_2 1_555 1_555
H12_2 C34_2 1_555 1_555
O9 Zn1 1_555 1_555
O10 Zn2 1_555 1_555
O11 Zn1 1_555 1_555
O12 Zn2 1_555 1_555
O6_2 C14_2 1_555 1_555
C11_2 C14_2 1_555 1_555
C12_2 C13_2 1_555 1_555
C26_2 C27_2 1_555 1_555
C31_2 C32_2 1_555 1_555
C33_2 C34_2 1_555 1_555
O9 C1_2 1_555 1_555
O10 C1_2 1_555 1_555
C1_2 C2_2 1_555 1_555
O11 C28_2 1_555 1_555
O12 C28_2 1_555 1_555

#END
