
###############################################################################
#
# This file contains modified crystal structure data generated from the
# MOF subset of the Cambridge Structural Database (CSD) v543 
# hosted by the Cambridge Crystallographic Data Centre (CCDC).
#
# This work is licensed under the Creative Commons
# Attribution-NonCommercial-ShareAlike 4.0 International License.
# To view a copy of this license, visit
# http://creativecommons.org/licenses/by-nc-sa/4.0/
# or send a letter to
# Creative Commons, PO Box 1866, Mountain View, CA 94042, USA.
#
# CIF created using the CSD Python API on 29 September 2022
# The structure has been converted into the P1 space group
# The structure has a 3D framework
# The original CSD entry VEWVOK is in the monoclinic crystal system
# The framework has been calculated to contain at least 10.0% void space
# The void calculation uses a probe of radius 1.32A, grid spacing 0.4
#
###############################################################################

data_VEWVOK
_chemical_formula_moiety         '(C44 H28 N12 O26 Y4)n'
_symmetry_cell_setting           triclinic
_symmetry_space_group_name_H-M   'P 1'
_symmetry_Int_Tables_number      1
_space_group_name_Hall           'P 1'
loop_
_symmetry_equiv_pos_site_id
_symmetry_equiv_pos_as_xyz
1 x,y,z
_cell_length_a                   8.3428(8)
_cell_length_b                   14.6144(15)
_cell_length_c                   11.4870(10)
_cell_angle_alpha                90
_cell_angle_beta                 90.781(9)
_cell_angle_gamma                90
_cell_volume                     1400.42
loop_
_atom_site_label
_atom_site_type_symbol
_atom_site_fract_x
_atom_site_fract_y
_atom_site_fract_z
H7 H 0.025(7) 0.216(4) 0.130(5)
O7 O 0.1437(4) 0.9470(2) 0.0880(3)
C11 C 0.0247(5) 0.9968(3) 0.0642(4)
C18 C 0.7308(7) 0.6328(4) 0.2180(5)
H9 H 0.7239 0.5885 0.2758
C19 C 0.6405(7) 0.6207(3) 0.1173(4)
H10 H 0.5787 0.5684 0.1063
C20 C 0.7422(5) 0.7644(3) 0.0530(4)
C21 C 0.6446(5) 0.6885(3) 0.0331(4)
N6 N 0.8259(5) 0.7032(3) 0.2370(4)
C22 C 0.8301(6) 0.7682(4) 0.1550(5)
H12 H 0.8960 0.8186 0.1677
O15 O 0.2766(4) 0.7618(2) 0.0853(3)
O19 O 0.4873(4) 0.9100(2) 0.0450(3)
O8 O 0.0548(4) 0.9583(2) 0.8649(3)
Y2 Y 0.27497(4) 0.86760(2) 0.93398(3)
O10 O 0.2663(4) 0.8343(2) 0.7332(2)
O11 O 0.2766(4) 0.7382(2) 0.5853(3)
C13 C 0.5036(5) 0.6242(2) 0.7455(4)
C14 C 0.3140(4) 0.7612(2) 0.6859(3)
N4 N 0.4572(4) 0.7399(2) 0.8720(3)
C15 C 0.4226(5) 0.7057(3) 0.7621(3)
N5 N 0.5857(4) 0.6089(2) 0.8496(3)
H8 H 0.6446 0.5621 0.8656
O12 O 0.6140(4) 0.4925(2) 0.6655(3)
C16 C 0.5334(5) 0.5638(3) 0.6445(4)
C17 C 0.5573(5) 0.6794(3) 0.9208(4)
O13 O 0.4873(4) 0.5900(2) 0.5450(3)
H11 H 0.7478 0.8114 0.9986
O14 O 0.0568(4) 0.7686(2) 0.9068(3)
H13 H 0.0897 0.7168 0.8936
Y4 Y 0.27497(4) 0.63240(2) 0.43398(3)
Y6 Y 0.72503(4) 0.36760(2) 0.56602(3)
O18 O 0.3860(4) 0.9925(2) 0.8345(3)
Y1 Y 0.72503(4) 0.13240(2) 0.06602(3)
O1 O 0.7337(4) 0.1657(2) 0.2668(2)
O2 O 0.7234(4) 0.2618(2) 0.4147(3)
C1 C 0.4964(5) 0.3758(2) 0.2545(4)
C2 C 0.6860(4) 0.2388(2) 0.3141(3)
N1 N 0.5428(4) 0.2601(2) 0.1280(3)
C3 C 0.5774(5) 0.2943(3) 0.2379(3)
N2 N 0.4143(4) 0.3911(2) 0.1504(3)
H1 H 0.3554 0.4379 0.1344
O3 O 0.3860(4) 0.5075(2) 0.3345(3)
C4 C 0.4666(5) 0.4362(3) 0.3555(4)
C5 C 0.4427(5) 0.3206(3) 0.0792(4)
O4 O 0.5127(4) 0.4100(2) 0.4550(3)
H4 H 0.2522 0.1886 0.0014
O5 O 0.9452(4) 0.0417(2) 0.1351(3)
O6 O 0.9432(4) 0.2314(2) 0.0932(3)
H6 H 0.9103 0.2832 0.1064
O17 O 0.6140(4) 0.0075(2) 0.1655(3)
C6 C 0.2692(7) 0.3672(4) 0.7820(5)
H2 H 0.2761 0.4115 0.7242
C7 C 0.3595(7) 0.3793(3) 0.8827(4)
H3 H 0.4213 0.4316 0.8937
C8 C 0.2578(5) 0.2356(3) 0.9470(4)
C9 C 0.3554(5) 0.3115(3) 0.9669(4)
N3 N 0.1741(5) 0.2968(3) 0.7630(4)
C10 C 0.1699(6) 0.2318(4) 0.8450(5)
H5 H 0.1040 0.1814 0.8323
C12 C 0.9753(5) 0.0032(3) 0.9358(4)
O9 O 0.8563(4) 0.0530(2) 0.9120(3)
O16 O 0.7234(4) 0.2382(2) 0.9147(3)
O20 O 0.5127(4) 0.0900(2) 0.9550(3)
O1_2 O 0.2663(4) 0.6657(2) 0.2332(2)
C1_2 C 0.5036(5) 0.8758(2) 0.2455(4)
C2_2 C 0.3140(4) 0.7388(2) 0.1859(3)
N1_2 N 0.4572(4) 0.7601(2) 0.3720(3)
C3_2 C 0.4226(5) 0.7943(3) 0.2621(3)
N2_2 N 0.5857(4) 0.8911(2) 0.3496(3)
H1_2 H 0.6446 0.9379 0.3656
C4_2 C 0.5334(5) 0.9362(3) 0.1445(4)
C5_2 C 0.5573(5) 0.8206(3) 0.4208(4)
C6_2 C 0.7308(7) 0.8672(4) 0.7180(5)
H2_2 H 0.7239 0.9115 0.7758
C7_2 C 0.6405(7) 0.8793(3) 0.6173(4)
H3_2 H 0.5787 0.9316 0.6063
C8_2 C 0.7422(5) 0.7356(3) 0.5530(4)
H4_2 H 0.7478 0.6886 0.4986
C9_2 C 0.6446(5) 0.8115(3) 0.5331(4)
N3_2 N 0.8259(5) 0.7968(3) 0.7370(4)
C10_2 C 0.8301(6) 0.7318(4) 0.6550(5)
H5_2 H 0.8960 0.6814 0.6677
O5_2 O 0.0548(4) 0.5417(2) 0.3649(3)
O6_2 O 0.0568(4) 0.7314(2) 0.4068(3)
H6_2 H 0.0897 0.7832 0.3936
C12_2 C 0.0247(5) 0.5032(3) 0.5642(4)
O9_2 O 0.1437(4) 0.5530(2) 0.5880(3)
H14 H 0.025(7) 0.284(4) 0.630(5)
O7_2 O 0.8563(4) 0.4470(2) 0.4120(3)
C11_2 C 0.9753(5) 0.4968(3) 0.4358(4)
H7_2 H 0.975(7) 0.716(4) 0.370(5)
O8_2 O 0.9452(4) 0.4583(2) 0.6351(3)
O10_2 O 0.7337(4) 0.3343(2) 0.7668(2)
C13_2 C 0.4964(5) 0.1242(2) 0.7545(4)
C14_2 C 0.6860(4) 0.2612(2) 0.8141(3)
N4_2 N 0.5428(4) 0.2399(2) 0.6280(3)
C15_2 C 0.5774(5) 0.2057(3) 0.7379(3)
N5_2 N 0.4143(4) 0.1089(2) 0.6504(3)
H8_2 H 0.3554 0.0621 0.6344
C16_2 C 0.4666(5) 0.0638(3) 0.8555(4)
C17_2 C 0.4427(5) 0.1794(3) 0.5792(4)
C18_2 C 0.2692(7) 0.1328(4) 0.2820(5)
H9_2 H 0.2761 0.0885 0.2242
C19_2 C 0.3595(7) 0.1207(3) 0.3827(4)
H10_2 H 0.4213 0.0684 0.3937
C20_2 C 0.2578(5) 0.2644(3) 0.4470(4)
H11_2 H 0.2522 0.3114 0.5014
C21_2 C 0.3554(5) 0.1885(3) 0.4669(4)
N6_2 N 0.1741(5) 0.2032(3) 0.2630(4)
C22_2 C 0.1699(6) 0.2682(4) 0.3450(5)
H12_2 H 0.1040 0.3186 0.3323
O14_2 O 0.9432(4) 0.2686(2) 0.5932(3)
H13_2 H 0.9103 0.2168 0.6064
H14_2 H 0.975(7) 0.784(4) 0.870(5)
loop_
_geom_bond_atom_site_label_1
_geom_bond_atom_site_label_2
_geom_bond_site_symmetry_1
_geom_bond_site_symmetry_2
O7 C11 1_555 1_555
C18 H9 1_555 1_555
C19 C18 1_555 1_555
H10 C19 1_555 1_555
N6 C18 1_555 1_555
C22 C20 1_555 1_555
H12 C22 1_555 1_555
C19 C21 1_555 1_555
C20 C21 1_555 1_555
N6 C22 1_555 1_555
O10 Y2 1_555 1_555
O11 C14 1_555 1_555
C13 C15 1_555 1_555
C14 O10 1_555 1_555
N4 Y2 1_555 1_555
C15 C14 1_555 1_555
N5 C13 1_555 1_555
H8 N5 1_555 1_555
O12 C16 1_555 1_555
C16 C13 1_555 1_555
C17 N4 1_555 1_555
O13 C16 1_555 1_555
O14 Y2 1_555 1_555
H13 O14 1_555 1_555
Y4 O11 1_555 1_555
Y6 O12 1_555 1_555
O18 Y2 1_555 1_555
O8 Y2 1_555 1_555
N4 C15 1_555 1_555
N5 C17 1_555 1_555
O13 Y4 1_555 1_555
Y1 O1 1_555 1_555
O1 C2 1_555 1_555
O2 C2 1_555 1_555
C1 C3 1_555 1_555
C2 C3 1_555 1_555
N1 Y1 1_555 1_555
C3 N1 1_555 1_555
N2 C1 1_555 1_555
H1 N2 1_555 1_555
O3 C4 1_555 1_555
C4 C1 1_555 1_555
C5 N1 1_555 1_555
O4 C4 1_555 1_555
O5 Y1 1_555 1_555
O6 Y1 1_555 1_555
H6 O6 1_555 1_555
Y4 O3 1_555 1_555
Y6 O2 1_555 1_555
O17 Y1 1_555 1_555
N2 C5 1_555 1_555
O4 Y6 1_555 1_555
C6 H2 1_555 1_555
C7 C6 1_555 1_555
H3 C7 1_555 1_555
N3 C6 1_555 1_555
C10 C8 1_555 1_555
H5 C10 1_555 1_555
C7 C9 1_555 1_555
C8 C9 1_555 1_555
N3 C10 1_555 1_555
C12 O9 1_555 1_555
Y4 O1_2 1_555 1_555
O1_2 C2_2 1_555 1_555
O15 C2_2 1_555 1_555
C1_2 C3_2 1_555 1_555
C2_2 C3_2 1_555 1_555
N1_2 Y4 1_555 1_555
C3_2 N1_2 1_555 1_555
N2_2 C1_2 1_555 1_555
H1_2 N2_2 1_555 1_555
C4_2 C1_2 1_555 1_555
C5_2 N1_2 1_555 1_555
O19 C4_2 1_555 1_555
C6_2 H2_2 1_555 1_555
C7_2 C6_2 1_555 1_555
H3_2 C7_2 1_555 1_555
C8_2 H4_2 1_555 1_555
C9_2 C5_2 1_555 1_555
N3_2 C6_2 1_555 1_555
C10_2 C8_2 1_555 1_555
H5_2 C10_2 1_555 1_555
O5_2 Y4 1_555 1_555
O6_2 Y4 1_555 1_555
H6_2 O6_2 1_555 1_555
O9_2 Y4 1_555 1_555
N2_2 C5_2 1_555 1_555
C7_2 C9_2 1_555 1_555
C8_2 C9_2 1_555 1_555
N3_2 C10_2 1_555 1_555
C12_2 O9_2 1_555 1_555
O7_2 C11_2 1_555 1_555
Y6 O7_2 1_555 1_555
O10_2 Y6 1_555 1_555
O16 C14_2 1_555 1_555
C13_2 C15_2 1_555 1_555
C14_2 O10_2 1_555 1_555
N4_2 Y6 1_555 1_555
C15_2 C14_2 1_555 1_555
N5_2 C13_2 1_555 1_555
H8_2 N5_2 1_555 1_555
C16_2 C13_2 1_555 1_555
C17_2 N4_2 1_555 1_555
O20 C16_2 1_555 1_555
C18_2 H9_2 1_555 1_555
C19_2 C18_2 1_555 1_555
H10_2 C19_2 1_555 1_555
C20_2 H11_2 1_555 1_555
C21_2 C17_2 1_555 1_555
N6_2 C18_2 1_555 1_555
C22_2 C20_2 1_555 1_555
H12_2 C22_2 1_555 1_555
O14_2 Y6 1_555 1_555
H13_2 O14_2 1_555 1_555
O8_2 Y6 1_555 1_555
N4_2 C15_2 1_555 1_555
N5_2 C17_2 1_555 1_555
C19_2 C21_2 1_555 1_555
C20_2 C21_2 1_555 1_555
N6_2 C22_2 1_555 1_555

#END
