
###############################################################################
#
# This file contains modified crystal structure data generated from the
# MOF subset of the Cambridge Structural Database (CSD) v543 
# hosted by the Cambridge Crystallographic Data Centre (CCDC).
#
# This work is licensed under the Creative Commons
# Attribution-NonCommercial-ShareAlike 4.0 International License.
# To view a copy of this license, visit
# http://creativecommons.org/licenses/by-nc-sa/4.0/
# or send a letter to
# Creative Commons, PO Box 1866, Mountain View, CA 94042, USA.
#
# CIF created using the CSD Python API on 29 September 2022
# The structure has been converted into the P1 space group
# The structure has a 3D framework
# The original CSD entry VIBCER is in the monoclinic crystal system
# The framework has been calculated to contain at least 10.0% void space
# The void calculation uses a probe of radius 1.32A, grid spacing 0.4
#
###############################################################################

data_VIBCER
_chemical_formula_moiety         '(C76 H60 N16 O16 Zn4)n'
_symmetry_cell_setting           triclinic
_symmetry_space_group_name_H-M   'P 1'
_symmetry_Int_Tables_number      1
_space_group_name_Hall           'P 1'
loop_
_symmetry_equiv_pos_site_id
_symmetry_equiv_pos_as_xyz
1 x,y,z
_cell_length_a                   11.7690(10)
_cell_length_b                   16.0746(10)
_cell_length_c                   12.0545(9)
_cell_angle_alpha                90
_cell_angle_beta                 92.020(6)
_cell_angle_gamma                90
_cell_volume                     2279.08
loop_
_atom_site_label
_atom_site_type_symbol
_atom_site_fract_x
_atom_site_fract_y
_atom_site_fract_z
O2 O 0.1825(4) 0.1825(2) 0.0016(3)
O3 O 0.2072(3) 0.0602(2) 0.2189(3)
O4 O 0.0684(3) 0.1528(2) 0.2143(3)
C17 C 0.0591(4) 0.0441(3) 0.0831(3)
C19 C 0.1179(4) 0.0884(3) 0.1774(4)
Zn6 Zn 0.15488(5) 0.20313(3) 0.34392(4)
Zn1 Zn 0.15488(5) 0.29687(3) 0.84392(4)
O1 O 0.0517(3) 0.20093(19) 0.8692(3)
N1 N 0.3004(4) 0.2518(3) 0.7887(4)
N2 N 0.4529(4) 0.2401(3) 0.6916(5)
C1 C 0.3604(6) 0.1859(4) 0.8291(6)
H1 H 0.3404 0.1517 0.8875
C2 C 0.4547(7) 0.1787(5) 0.7692(7)
H2 H 0.5112 0.1387 0.7792
C3 C 0.3583(5) 0.2826(3) 0.7054(5)
H3 H 0.3353 0.3280 0.6625
C4 C 0.5388(6) 0.2570(5) 0.6099(7)
H4 H 0.6099 0.2704 0.6489
H5 H 0.5155 0.3054 0.5669
C5 C 0.5585(5) 0.1875(4) 0.5332(6)
C6 C 0.4713(6) 0.1475(4) 0.4808(6)
H6 H 0.3970 0.1621 0.4962
C7 C 0.4902(6) 0.0856(5) 0.4050(6)
H7 H 0.4291 0.0579 0.3708
C8 C 0.5996(7) 0.0648(4) 0.3798(5)
H8 H 0.6126 0.0241 0.3270
C9 C 0.6907(5) 0.1048(4) 0.4334(5)
C10 C 0.6684(5) 0.1645(4) 0.5092(5)
H9 H 0.7290 0.1909 0.5463
C11 C 0.8116(6) 0.0830(4) 0.4102(6)
H10 H 0.8257 0.0937 0.3327
H11 H 0.8626 0.1178 0.4550
C15 C 0.0954(5) 0.1607(3) 0.9501(4)
C16 C 0.0413(4) 0.0795(3) 0.9783(4)
O10 O 0.0684(3) 0.3472(2) 0.7143(3)
N9 N 0.1514(3) 0.3789(2) 0.9694(3)
N3 N 0.8486(3) 0.8789(2) 0.5306(3)
N4 N 0.8351(4) 0.9940(3) 0.4357(3)
C12 C 0.8564(6) 0.9316(4) 0.3634(5)
H12 H 0.8647 0.9372 0.2873
C13 C 0.8630(5) 0.8624(4) 0.4200(4)
H13 H 0.8756 0.8099 0.3901
C14 C 0.8306(5) 0.9582(3) 0.5356(4)
H14 H 0.8162 0.9868 0.6007
Zn4 Zn 0.84512(5) 0.79687(3) 0.65608(4)
N7 N 0.1514(3) 0.1211(2) 0.4694(3)
N8 N 0.1649(4) 0.0060(3) 0.5643(3)
C36 C 0.1436(6) 0.0684(4) 0.6366(5)
H28 H 0.1353 0.0628 0.7127
C37 C 0.1370(5) 0.1376(4) 0.5800(4)
H29 H 0.1244 0.1901 0.6099
C38 C 0.1694(5) 0.0418(3) 0.4644(4)
H30 H 0.1838 0.0132 0.3993
O5 O 0.9483(3) 0.79907(19) 0.1308(3)
C20 C 0.9046(5) 0.8393(3) 0.0499(4)
C21 C 0.9587(4) 0.9205(3) 0.0217(4)
Zn2 Zn 0.84512(5) 0.70313(3) 0.15608(4)
N5 N 0.6996(4) 0.7482(3) 0.2113(4)
N6 N 0.5471(4) 0.7599(3) 0.3084(5)
C25 C 0.6396(6) 0.8141(4) 0.1709(6)
H17 H 0.6596 0.8483 0.1125
C26 C 0.5453(7) 0.8213(5) 0.2308(7)
H18 H 0.4888 0.8613 0.2208
C27 C 0.6417(5) 0.7174(3) 0.2946(5)
H19 H 0.6647 0.6720 0.3375
C28 C 0.4612(6) 0.7430(5) 0.3901(7)
H20 H 0.3901 0.7296 0.3511
H21 H 0.4845 0.6946 0.4331
C29 C 0.4415(5) 0.8125(4) 0.4668(6)
C30 C 0.5287(6) 0.8525(4) 0.5192(6)
H22 H 0.6030 0.8379 0.5038
C31 C 0.5098(6) 0.9144(5) 0.5950(6)
H23 H 0.5709 0.9421 0.6292
C32 C 0.4004(7) 0.9352(4) 0.6202(5)
H24 H 0.3874 0.9759 0.6730
C33 C 0.3093(5) 0.8952(4) 0.5666(5)
C34 C 0.3316(5) 0.8355(4) 0.4908(5)
H25 H 0.2710 0.8091 0.4537
C35 C 0.1884(6) 0.9170(4) 0.5898(6)
H26 H 0.1743 0.9063 0.6673
H27 H 0.1374 0.8822 0.5450
O9 O 0.9316(3) 0.6528(2) 0.2857(3)
N10 N 0.8486(3) 0.6211(2) 0.0306(3)
O6 O 0.8175(4) 0.8175(2) 0.9984(3)
O7 O 0.7928(3) 0.9398(2) 0.7811(3)
O8 O 0.9316(3) 0.8472(2) 0.7857(3)
C22 C 0.9409(4) 0.9559(3) 0.9169(3)
C24 C 0.8821(4) 0.9116(3) 0.8226(4)
C18 C 0.0177(4) 0.5345(3) 0.6028(4)
H15 H 0.0298 0.5580 0.6727
O5_2 O 0.0517(3) 0.29907(19) 0.3692(3)
O6_2 O 0.1825(4) 0.3175(2) 0.5016(3)
O7_2 O 0.2072(3) 0.4398(2) 0.7189(3)
C20_2 C 0.0954(5) 0.3393(3) 0.4501(4)
C21_2 C 0.0413(4) 0.4205(3) 0.4783(4)
C22_2 C 0.0591(4) 0.4559(3) 0.5831(3)
C24_2 C 0.1179(4) 0.4116(3) 0.6774(4)
N5_2 N 0.3004(4) 0.2482(3) 0.2887(4)
N6_2 N 0.4529(4) 0.2599(3) 0.1916(5)
C25_2 C 0.3604(6) 0.3141(4) 0.3291(6)
H17_2 H 0.3404 0.3483 0.3875
C26_2 C 0.4547(7) 0.3213(5) 0.2692(7)
H18_2 H 0.5112 0.3613 0.2792
C27_2 C 0.3583(5) 0.2174(3) 0.2054(5)
H19_2 H 0.3353 0.1720 0.1625
C28_2 C 0.5388(6) 0.2430(5) 0.1099(7)
H20_2 H 0.6099 0.2296 0.1489
H21_2 H 0.5155 0.1946 0.0669
C29_2 C 0.5585(5) 0.3125(4) 0.0332(6)
C34_2 C 0.6684(5) 0.3355(4) 0.0092(5)
H25_2 H 0.7290 0.3091 0.0463
C38_2 C 0.8306(5) 0.5418(3) 0.0356(4)
H30_2 H 0.8162 0.5132 0.1007
O1_2 O 0.9483(3) 0.70093(19) 0.6308(3)
O2_2 O 0.8175(4) 0.6825(2) 0.4984(3)
O3_2 O 0.7928(3) 0.5602(2) 0.2811(3)
N1_2 N 0.6996(4) 0.7518(3) 0.7113(4)
N2_2 N 0.5471(4) 0.7401(3) 0.8084(5)
C1_2 C 0.6396(6) 0.6859(4) 0.6709(6)
H1_2 H 0.6596 0.6517 0.6125
C2_2 C 0.5453(7) 0.6787(5) 0.7308(7)
H2_2 H 0.4888 0.6387 0.7208
C3_2 C 0.6417(5) 0.7826(3) 0.7946(5)
H3_2 H 0.6647 0.8280 0.8375
C4_2 C 0.4612(6) 0.7570(5) 0.8901(7)
H4_2 H 0.3901 0.7704 0.8511
H5_2 H 0.4845 0.8054 0.9331
C5_2 C 0.4415(5) 0.6875(4) 0.9668(6)
C10_2 C 0.3316(5) 0.6645(4) 0.9908(5)
H9_2 H 0.2710 0.6909 0.9537
C14_2 C 0.1694(5) 0.4582(3) 0.9644(4)
H14_2 H 0.1838 0.4868 0.8993
C15_2 C 0.9046(5) 0.6607(3) 0.5499(4)
C16_2 C 0.9587(4) 0.5795(3) 0.5217(4)
C17_2 C 0.9409(4) 0.5441(3) 0.4169(3)
C19_2 C 0.8821(4) 0.5884(3) 0.3226(4)
C23 C 0.9823(4) 0.4655(3) 0.3972(4)
H16 H 0.9702 0.4420 0.3273
C23_2 C 0.0177(4) 0.9655(3) 0.1028(4)
H16_2 H 0.0298 0.9420 0.1727
C18_2 C 0.9823(4) 0.0345(3) 0.8972(4)
H15_2 H 0.9702 0.0580 0.8273
N8_2 N 0.8351(4) 0.5060(3) 0.9357(3)
C30_2 C 0.4713(6) 0.3525(4) 0.9808(6)
H22_2 H 0.3970 0.3379 0.9962
C31_2 C 0.4902(6) 0.4144(5) 0.9050(6)
H23_2 H 0.4291 0.4421 0.8708
C32_2 C 0.5996(7) 0.4352(4) 0.8798(5)
H24_2 H 0.6126 0.4759 0.8270
C33_2 C 0.6907(5) 0.3952(4) 0.9334(5)
C35_2 C 0.8116(6) 0.4170(4) 0.9102(6)
H26_2 H 0.8257 0.4063 0.8327
H27_2 H 0.8626 0.3822 0.9550
C36_2 C 0.8564(6) 0.5684(4) 0.8634(5)
H28_2 H 0.8647 0.5628 0.7873
C37_2 C 0.8630(5) 0.6376(4) 0.9200(4)
H29_2 H 0.8756 0.6901 0.8901
N4_2 N 0.1649(4) 0.4940(3) 0.0643(3)
C6_2 C 0.5287(6) 0.6475(4) 0.0192(6)
H6_2 H 0.6030 0.6621 0.0038
C7_2 C 0.5098(6) 0.5856(5) 0.0950(6)
H7_2 H 0.5709 0.5579 0.1292
C8_2 C 0.4004(7) 0.5648(4) 0.1202(5)
H8_2 H 0.3874 0.5241 0.1730
C9_2 C 0.3093(5) 0.6048(4) 0.0666(5)
C11_2 C 0.1884(6) 0.5830(4) 0.0898(6)
H10_2 H 0.1743 0.5937 0.1673
H11_2 H 0.1374 0.6178 0.0450
C12_2 C 0.1436(6) 0.4316(4) 0.1366(5)
H12_2 H 0.1353 0.4372 0.2127
C13_2 C 0.1370(5) 0.3624(4) 0.0800(4)
H13_2 H 0.1244 0.3099 0.1099
loop_
_geom_bond_atom_site_label_1
_geom_bond_atom_site_label_2
_geom_bond_site_symmetry_1
_geom_bond_site_symmetry_2
O3 C19 1_555 1_555
O4 C19 1_555 1_555
C17 C19 1_555 1_555
Zn6 O4 1_555 1_555
Zn1 O1 1_555 1_555
O1 C15 1_555 1_555
N1 Zn1 1_555 1_555
N2 C2 1_555 1_555
C1 N1 1_555 1_555
H1 C1 1_555 1_555
C2 C1 1_555 1_555
H2 C2 1_555 1_555
C3 N1 1_555 1_555
H3 C3 1_555 1_555
C4 N2 1_555 1_555
H4 C4 1_555 1_555
H5 C4 1_555 1_555
C5 C4 1_555 1_555
C6 C5 1_555 1_555
H6 C6 1_555 1_555
C7 C6 1_555 1_555
H7 C7 1_555 1_555
C8 C7 1_555 1_555
H8 C8 1_555 1_555
C9 C8 1_555 1_555
C10 C5 1_555 1_555
H9 C10 1_555 1_555
C11 C9 1_555 1_555
H10 C11 1_555 1_555
H11 C11 1_555 1_555
C15 C16 1_555 1_555
O10 Zn1 1_555 1_555
N9 Zn1 1_555 1_555
N2 C3 1_555 1_555
C9 C10 1_555 1_555
N3 C13 1_555 1_555
C12 N4 1_555 1_555
H12 C12 1_555 1_555
C13 C12 1_555 1_555
H13 C13 1_555 1_555
C14 N3 1_555 1_555
H14 C14 1_555 1_555
Zn4 N3 1_555 1_555
N4 C14 1_555 1_555
N7 C37 1_555 1_555
C36 N8 1_555 1_555
H28 C36 1_555 1_555
C37 C36 1_555 1_555
H29 C37 1_555 1_555
C38 N7 1_555 1_555
H30 C38 1_555 1_555
Zn6 N7 1_555 1_555
N8 C38 1_555 1_555
O5 C20 1_555 1_555
C20 C21 1_555 1_555
Zn2 O5 1_555 1_555
N5 Zn2 1_555 1_555
N6 C26 1_555 1_555
C25 N5 1_555 1_555
H17 C25 1_555 1_555
C26 C25 1_555 1_555
H18 C26 1_555 1_555
C27 N5 1_555 1_555
H19 C27 1_555 1_555
C28 N6 1_555 1_555
H20 C28 1_555 1_555
H21 C28 1_555 1_555
C29 C28 1_555 1_555
C30 C29 1_555 1_555
H22 C30 1_555 1_555
C31 C30 1_555 1_555
H23 C31 1_555 1_555
C32 C31 1_555 1_555
H24 C32 1_555 1_555
C33 C32 1_555 1_555
C34 C29 1_555 1_555
H25 C34 1_555 1_555
C35 C33 1_555 1_555
H26 C35 1_555 1_555
H27 C35 1_555 1_555
O9 Zn2 1_555 1_555
N10 Zn2 1_555 1_555
N6 C27 1_555 1_555
C33 C34 1_555 1_555
O7 C24 1_555 1_555
O8 C24 1_555 1_555
C24 C22 1_555 1_555
Zn4 O8 1_555 1_555
H15 C18 1_555 1_555
O5_2 C20_2 1_555 1_555
O6_2 C20_2 1_555 1_555
O7_2 C24_2 1_555 1_555
O10 C24_2 1_555 1_555
C20_2 C21_2 1_555 1_555
C21_2 C22_2 1_555 1_555
C22_2 C18 1_555 1_555
C24_2 C22_2 1_555 1_555
Zn6 O5_2 1_555 1_555
N5_2 Zn6 1_555 1_555
N6_2 C26_2 1_555 1_555
C25_2 N5_2 1_555 1_555
H17_2 C25_2 1_555 1_555
C26_2 C25_2 1_555 1_555
H18_2 C26_2 1_555 1_555
C27_2 N5_2 1_555 1_555
H19_2 C27_2 1_555 1_555
C28_2 N6_2 1_555 1_555
H20_2 C28_2 1_555 1_555
H21_2 C28_2 1_555 1_555
C29_2 C28_2 1_555 1_555
C34_2 C29_2 1_555 1_555
H25_2 C34_2 1_555 1_555
C38_2 N10 1_555 1_555
H30_2 C38_2 1_555 1_555
N6_2 C27_2 1_555 1_555
Zn4 O1_2 1_555 1_555
O1_2 C15_2 1_555 1_555
O2_2 C15_2 1_555 1_555
O3_2 C19_2 1_555 1_555
O9 C19_2 1_555 1_555
N1_2 Zn4 1_555 1_555
N2_2 C2_2 1_555 1_555
C1_2 N1_2 1_555 1_555
H1_2 C1_2 1_555 1_555
C2_2 C1_2 1_555 1_555
H2_2 C2_2 1_555 1_555
C3_2 N1_2 1_555 1_555
H3_2 C3_2 1_555 1_555
C4_2 N2_2 1_555 1_555
H4_2 C4_2 1_555 1_555
H5_2 C4_2 1_555 1_555
C5_2 C4_2 1_555 1_555
C10_2 C5_2 1_555 1_555
H9_2 C10_2 1_555 1_555
C14_2 N9 1_555 1_555
H14_2 C14_2 1_555 1_555
C15_2 C16_2 1_555 1_555
C16_2 C17_2 1_555 1_555
C17_2 C19_2 1_555 1_555
C23 C17_2 1_555 1_555
H16 C23 1_555 1_555
N2_2 C3_2 1_555 1_555
H16_2 C23_2 1_555 1_555
H15_2 C18_2 1_555 1_555
N8_2 C35_2 1_555 1_555
H22_2 C30_2 1_555 1_555
C31_2 C30_2 1_555 1_555
H23_2 C31_2 1_555 1_555
C32_2 C31_2 1_555 1_555
H24_2 C32_2 1_555 1_555
C33_2 C32_2 1_555 1_555
C35_2 C33_2 1_555 1_555
H26_2 C35_2 1_555 1_555
H27_2 C35_2 1_555 1_555
C36_2 N8_2 1_555 1_555
H28_2 C36_2 1_555 1_555
C37_2 C36_2 1_555 1_555
H29_2 C37_2 1_555 1_555
N4_2 C11_2 1_555 1_555
H6_2 C6_2 1_555 1_555
C7_2 C6_2 1_555 1_555
H7_2 C7_2 1_555 1_555
C8_2 C7_2 1_555 1_555
H8_2 C8_2 1_555 1_555
C9_2 C8_2 1_555 1_555
C11_2 C9_2 1_555 1_555
H10_2 C11_2 1_555 1_555
H11_2 C11_2 1_555 1_555
C12_2 N4_2 1_555 1_555
H12_2 C12_2 1_555 1_555
C13_2 C12_2 1_555 1_555
H13_2 C13_2 1_555 1_555

#END
