
###############################################################################
#
# This file contains modified crystal structure data generated from the
# MOF subset of the Cambridge Structural Database (CSD) v543 
# hosted by the Cambridge Crystallographic Data Centre (CCDC).
#
# This work is licensed under the Creative Commons
# Attribution-NonCommercial-ShareAlike 4.0 International License.
# To view a copy of this license, visit
# http://creativecommons.org/licenses/by-nc-sa/4.0/
# or send a letter to
# Creative Commons, PO Box 1866, Mountain View, CA 94042, USA.
#
# CIF created using the CSD Python API on 29 September 2022
# The structure has been converted into the P1 space group
# The structure has a 3D framework
# The original CSD entry VICBEQ is in the rhombohedral crystal system
# The framework has been calculated to contain at least 10.0% void space
# The void calculation uses a probe of radius 1.32A, grid spacing 0.4
#
###############################################################################

data_VICBEQ
_chemical_formula_moiety         '(C22 H22 Fe5 O28)n'
_symmetry_cell_setting           triclinic
_symmetry_space_group_name_H-M   'P 1'
_symmetry_Int_Tables_number      1
_space_group_name_Hall           'P 1'
loop_
_symmetry_equiv_pos_site_id
_symmetry_equiv_pos_as_xyz
1 x,y,z
_cell_length_a                   8.2420(10)
_cell_length_b                   8.2420(10)
_cell_length_c                   22.569(4)
_cell_angle_alpha                90
_cell_angle_beta                 90
_cell_angle_gamma                120
_cell_volume                     1327.73
loop_
_atom_site_label
_atom_site_type_symbol
_atom_site_fract_x
_atom_site_fract_y
_atom_site_fract_z
Fe4 Fe -0.0000 0.0000 0.5000
O4 O 0.00786(14) 0.79046(20) 0.44588(4)
Fe4_2 Fe -0.0000 1.0000 0.5000
Fe4_3 Fe 1.0000 0.0000 0.5000
Fe1 Fe 0.6667 0.3333 0.3333
O1 O 0.65881(14) 0.11594(14) 0.38745(4)
C1 C 0.7893(3) 0.1226(3) 0.4167
H1 H 0.9021 0.2355 0.4167
O3 O 0.88406(14) 0.54287(20) 0.38745(4)
C2 C 0.8774(3) 0.6667(4) 0.4167
H2 H 0.7645 0.6666 0.4167
O5 O 0.45713(20) 0.34119(14) 0.38745(4)
C3 C 0.3333(4) 0.2107(3) 0.4167
H3 H 0.3334 0.0979 0.4167
O6 O 0.20954(20) 0.21739(14) 0.44588(4)
Fe4_4 Fe 1.0000 1.0000 0.5000
O7 O 0.67452(14) 0.55073(14) 0.27922(4)
O8 O 0.44927(14) 0.12380(20) 0.27922(4)
O9 O 0.87620(20) 0.32548(14) 0.27922(4)
O2 O 0.78261(14) 0.99214(14) 0.44588(4)
Fe4_5 Fe 0.0000 -0.0000 -0.0000
Fe4_6 Fe 0.0000 -0.0000 1.0000
Fe4_7 Fe 0.0000 1.0000 -0.0000
Fe4_8 Fe 0.0000 1.0000 1.0000
O4_2 O 0.79046(20) 0.00786(14) 0.05412(4)
Fe4_9 Fe 1.0000 -0.0000 -0.0000
Fe4_10 Fe 1.0000 -0.0000 1.0000
Fe1_2 Fe 0.3333 0.6667 0.1667
O1_2 O 0.11594(14) 0.65881(14) 0.11255(4)
C1_2 C 0.1226(3) 0.7893(3) 0.0833
H1_2 H 0.2355 0.9021 0.0833
O3_2 O 0.54287(20) 0.88406(14) 0.11255(4)
C2_2 C 0.6667(4) 0.8774(3) 0.0833
H2_2 H 0.6666 0.7645 0.0833
O5_2 O 0.34119(14) 0.45713(20) 0.11255(4)
C3_2 C 0.2107(3) 0.3333(4) 0.0833
H3_2 H 0.0979 0.3334 0.0833
O6_2 O 0.21739(14) 0.20954(20) 0.05412(4)
Fe4_11 Fe 1.0000 1.0000 -0.0000
O7_2 O 0.55073(14) 0.67452(14) 0.22078(4)
O8_2 O 0.12380(20) 0.44927(14) 0.22078(4)
O9_2 O 0.32548(14) 0.87620(20) 0.22078(4)
Fe4_12 Fe 1.0000 1.0000 1.0000
O2_2 O 0.99214(14) 0.78261(14) 0.05412(4)
C2_3 C 0.5441(3) 0.0000(4) 0.7500
H2_3 H 0.4312 -0.0001 0.7500
O4_3 O 0.67452(14) 0.12380(20) 0.77922(4)
Fe4_13 Fe 0.6666 0.3334 0.8334
Fe1_3 Fe 0.3334 0.6666 0.6666
O1_3 O 0.32548(14) 0.44927(14) 0.72078(4)
C1_3 C 0.4560(3) 0.4559(3) 0.7500
H1_3 H 0.5688 0.5688 0.7500
O2_3 O 0.44927(14) 0.32548(14) 0.77922(4)
O3_3 O 0.55073(14) 0.87620(20) 0.72078(4)
C2_4 C 0.5441(3) 1.0000(4) 0.7500
H2_4 H 0.4312 0.9999 0.7500
O5_3 O 0.12380(20) 0.67452(14) 0.72078(4)
C3_3 C -0.0000(4) 0.5440(3) 0.7500
H3_3 H 0.0001 0.4312 0.7500
O7_3 O 0.34119(14) 0.88406(14) 0.61255(4)
O8_3 O 0.11594(14) 0.45713(20) 0.61255(4)
O9_3 O 0.54287(20) 0.65881(14) 0.61255(4)
C3_4 C 1.0000(4) 0.5440(3) 0.7500
H3_4 H 1.0001 0.4312 0.7500
O6_3 O 0.87620(20) 0.55073(14) 0.77922(4)
O7_4 O 0.21739(14) 0.00786(14) 0.55412(4)
O9_4 O 0.99214(14) 0.20954(20) 0.55412(4)
O8_4 O 0.79046(20) 0.78261(14) 0.55412(4)
O7_5 O 0.00786(14) 0.21739(14) 0.94588(4)
O9_5 O 0.20954(20) 0.99214(14) 0.94588(4)
O8_5 O 0.78261(14) 0.79046(20) 0.94588(4)
O7_6 O 0.88406(14) 0.34119(14) 0.88745(4)
O8_6 O 0.45713(20) 0.11594(14) 0.88745(4)
O9_6 O 0.65881(14) 0.54287(20) 0.88745(4)
C1_4 C 0.2107(3) 0.8774(3) 0.5833
H1_4 H 0.0979 0.7645 0.5833
C2_5 C 0.1226(3) 0.3333(4) 0.5833
H2_5 H 0.2355 0.3334 0.5833
C3_5 C 0.6667(4) 0.7893(3) 0.5833
H3_5 H 0.6666 0.9021 0.5833
C1_5 C 0.8774(3) 0.2107(3) 0.9167
H1_5 H 0.7645 0.0979 0.9167
C2_6 C 0.3333(4) 0.1226(3) 0.9167
H2_6 H 0.3334 0.2355 0.9167
C3_6 C 0.7893(3) 0.6667(4) 0.9167
H3_6 H 0.9021 0.6666 0.9167
C3_7 C 0.0000(4) 0.4560(3) 0.2500
H3_7 H -0.0001 0.5688 0.2500
C1_6 C 0.5440(3) 0.5441(3) 0.2500
H1_6 H 0.4312 0.4312 0.2500
C2_7 C 0.4559(3) -0.0000(4) 0.2500
H2_7 H 0.5688 0.0001 0.2500
C3_8 C 1.0000(4) 0.4560(3) 0.2500
H3_8 H 0.9999 0.5688 0.2500
C2_8 C 0.4559(3) 1.0000(4) 0.2500
H2_8 H 0.5688 1.0001 0.2500
loop_
_geom_bond_atom_site_label_1
_geom_bond_atom_site_label_2
_geom_bond_site_symmetry_1
_geom_bond_site_symmetry_2
Fe4_2 O4 1_555 1_555
Fe1 O1 1_555 1_555
O1 C1 1_555 1_555
C1 H1 1_555 1_555
O3 Fe1 1_555 1_555
C2 O3 1_555 1_555
H2 C2 1_555 1_555
O5 Fe1 1_555 1_555
C3 O5 1_555 1_555
H3 C3 1_555 1_555
O6 C3 1_555 1_555
Fe4 O6 1_555 1_555
O7 Fe1 1_555 1_555
O8 Fe1 1_555 1_555
O9 Fe1 1_555 1_555
Fe4_4 O2 1_555 1_555
Fe4_9 O4_2 1_555 1_555
Fe1_2 O1_2 1_555 1_555
O1_2 C1_2 1_555 1_555
C1_2 H1_2 1_555 1_555
O3_2 Fe1_2 1_555 1_555
C2_2 O3_2 1_555 1_555
H2_2 C2_2 1_555 1_555
O5_2 Fe1_2 1_555 1_555
C3_2 O5_2 1_555 1_555
H3_2 C3_2 1_555 1_555
O6_2 C3_2 1_555 1_555
Fe4_5 O6_2 1_555 1_555
O7_2 Fe1_2 1_555 1_555
O8_2 Fe1_2 1_555 1_555
O9_2 Fe1_2 1_555 1_555
Fe4_11 O2_2 1_555 1_555
H2_3 C2_3 1_555 1_555
O4_3 C2_3 1_555 1_555
Fe4_13 O4_3 1_555 1_555
Fe1_3 O1_3 1_555 1_555
O1_3 C1_3 1_555 1_555
C1_3 H1_3 1_555 1_555
O2_3 C1_3 1_555 1_555
O3_3 Fe1_3 1_555 1_555
C2_4 O3_3 1_555 1_555
H2_4 C2_4 1_555 1_555
O5_3 Fe1_3 1_555 1_555
C3_3 O5_3 1_555 1_555
H3_3 C3_3 1_555 1_555
Fe4_13 O2_3 1_555 1_555
O7_3 Fe1_3 1_555 1_555
O8_3 Fe1_3 1_555 1_555
O9_3 Fe1_3 1_555 1_555
H3_4 C3_4 1_555 1_555
O6_3 C3_4 1_555 1_555
Fe4_13 O6_3 1_555 1_555
O7_4 Fe4 1_555 1_555
O9_4 Fe4_3 1_555 1_555
O8_4 Fe4_4 1_555 1_555
O7_5 Fe4_6 1_555 1_555
O9_5 Fe4_8 1_555 1_555
O8_5 Fe4_12 1_555 1_555
O7_6 Fe4_13 1_555 1_555
O8_6 Fe4_13 1_555 1_555
O9_6 Fe4_13 1_555 1_555
O7_3 C1_4 1_555 1_555
C1_4 H1_4 1_555 1_555
C2_5 O8_3 1_555 1_555
H2_5 C2_5 1_555 1_555
C3_5 O9_3 1_555 1_555
H3_5 C3_5 1_555 1_555
O8_4 C3_5 1_555 1_555
O7_6 C1_5 1_555 1_555
C1_5 H1_5 1_555 1_555
C2_6 O8_6 1_555 1_555
H2_6 C2_6 1_555 1_555
C3_6 O9_6 1_555 1_555
H3_6 C3_6 1_555 1_555
O8_5 C3_6 1_555 1_555
H3_7 C3_7 1_555 1_555
O8_2 C3_7 1_555 1_555
O7 C1_6 1_555 1_555
C1_6 H1_6 1_555 1_555
O7_2 C1_6 1_555 1_555
C2_7 O8 1_555 1_555
H2_7 C2_7 1_555 1_555
C3_8 O9 1_555 1_555
H3_8 C3_8 1_555 1_555
H2_8 C2_8 1_555 1_555
O9_2 C2_8 1_555 1_555

#END
