
###############################################################################
#
# This file contains modified crystal structure data generated from the
# MOF subset of the Cambridge Structural Database (CSD) v543 
# hosted by the Cambridge Crystallographic Data Centre (CCDC).
#
# This work is licensed under the Creative Commons
# Attribution-NonCommercial-ShareAlike 4.0 International License.
# To view a copy of this license, visit
# http://creativecommons.org/licenses/by-nc-sa/4.0/
# or send a letter to
# Creative Commons, PO Box 1866, Mountain View, CA 94042, USA.
#
# CIF created using the CSD Python API on 29 September 2022
# The structure has been converted into the P1 space group
# The structure has a 3D framework
# The original CSD entry VICYUD is in the monoclinic crystal system
# The framework has been calculated to contain at least 10.0% void space
# The void calculation uses a probe of radius 1.32A, grid spacing 0.4
#
###############################################################################

data_VICYUD
_chemical_formula_moiety         '(C112 H64 N16 O40 Zn6)n'
_symmetry_cell_setting           triclinic
_symmetry_space_group_name_H-M   'P 1'
_symmetry_Int_Tables_number      1
_space_group_name_Hall           'P 1'
loop_
_symmetry_equiv_pos_site_id
_symmetry_equiv_pos_as_xyz
1 x,y,z
_cell_length_a                   13.8359(19)
_cell_length_b                   12.9970(18)
_cell_length_c                   24.900(3)
_cell_angle_alpha                90
_cell_angle_beta                 118.689(6)
_cell_angle_gamma                90
_cell_volume                     3927.96
loop_
_atom_site_label
_atom_site_type_symbol
_atom_site_fract_x
_atom_site_fract_y
_atom_site_fract_z
H4 H 0.2600 0.0006 0.9452
C16 C 0.1765(13) 0.0617(12) 0.8310(8)
O7 O 0.2231(8) 0.1380(8) 0.8618(5)
O8 O 0.1536(7) 0.0480(7) 0.7758(5)
Zn3 Zn 0.26552(13) 0.27667(12) 0.83873(8)
Zn7 Zn 0.22303(13) 0.10640(12) 0.72825(8)
Zn1 Zn 0.73448(13) 0.72333(12) 0.16127(8)
Zn2 Zn 0.22303(13) 0.39360(12) 0.22825(8)
C1 C 0.5922(14) 0.7845(12) 0.2251(9)
C2 C 0.4832(11) 0.7533(10) 0.1876(7)
C3 C 0.4366(13) 0.6799(11) 0.2100(7)
H1 H 0.4788 0.6592 0.2505
C4 C 0.335(2) 0.6365(14) 0.1776(12)
C5 C 0.2690(18) 0.6676(14) 0.1189(12)
H2 H 0.2010 0.6363 0.0953
C6 C 0.3050(14) 0.7494(16) 0.0937(7)
C7 C 0.4199(14) 0.7896(11) 0.1302(8)
H3 H 0.4473 0.8386 0.1137
C14 C 0.299(2) 0.5523(18) 0.2002(13)
C17 C 0.5576(16) 0.7679(15) 0.0272(9)
H7 H 0.6018 0.8231 0.0288
C20 C 0.4265(15) 0.6115(15) 0.0123(9)
C21 C 0.3626(17) 0.5150(17) 0.0180(11)
C22 C 0.396(2) 0.4594(19) 0.0683(14)
H11 H 0.3524 0.4045 0.0681
C23 C 0.4925(16) 0.4802(13) 0.1211(12)
C24 C 0.520(2) 0.4272(17) 0.1747(13)
H12 H 0.4758 0.3742 0.1756
C25 C 0.613(2) 0.4537(17) 0.2254(12)
H13 H 0.6329 0.4197 0.2622
C26 C 0.6815(15) 0.5361(14) 0.2225(10)
H14 H 0.7478 0.5505 0.2574
C27 C 0.5589(14) 0.5680(13) 0.1220(10)
C28 C 0.5266(14) 0.6306(13) 0.0691(8)
N1 N 0.5894(10) 0.7124(10) 0.0742(7)
N2 N 0.6543(12) 0.5907(9) 0.1733(7)
N3 N 0.2272(14) 0.7738(12) 0.0296(8)
N4 N 0.2487(14) 0.8465(12) 0.0086(8)
O1 O 0.6466(8) 0.8194(7) 0.2001(5)
O2 O 0.6348(9) 0.7907(9) 0.2803(6)
O3 O 0.3607(12) 0.5292(10) 0.2569(8)
O4 O 0.2195(12) 0.5087(10) 0.1719(7)
O9 O 0.3249(15) 0.9274(14) 0.0358(9)
O10 O 0.8214(11) 0.6300(12) 0.1312(7)
H15 H 0.8360 0.6136 0.1028
H16 H 0.8082 0.6806 0.1070
Zn5 Zn 0.77697(13) 0.89360(12) 0.27175(8)
O11 O 0.3534(8) 0.3194(7) 0.2999(5)
O12 O 0.3652(9) 0.2907(9) 0.2197(6)
O13 O 0.1029(7) 0.3024(7) 0.1728(4)
O14 O 0.8669(8) 0.7015(7) 0.2486(5)
O15 O 0.7769(8) 0.8620(8) 0.1382(5)
O16 O 0.1536(7) 0.4520(7) 0.2758(5)
C15 C 0.9198(12) 0.7720(11) 0.8023(8)
O5 O 0.8971(7) 0.6976(7) 0.8272(4)
O6 O 0.8669(8) 0.7985(7) 0.7486(5)
Zn4 Zn 0.73448(13) 0.77667(12) 0.66127(8)
Zn6 Zn 0.77697(13) 0.60640(12) 0.77175(8)
C15_2 C 0.0802(12) 0.2720(11) 0.6977(8)
O5_2 O 0.1029(7) 0.1976(7) 0.6728(4)
O6_2 O 0.1331(8) 0.2985(7) 0.7514(5)
Zn1_2 Zn 0.26552(13) 0.22333(12) 0.33873(8)
C1_2 C 0.4078(14) 0.2845(12) 0.2749(9)
C2_2 C 0.5168(11) 0.2533(10) 0.3124(7)
C3_2 C 0.5634(13) 0.1799(11) 0.2900(7)
H1_2 H 0.5212 0.1592 0.2495
C4_2 C 0.665(2) 0.1365(14) 0.3224(12)
C5_2 C 0.7310(18) 0.1676(14) 0.3811(12)
H2_2 H 0.7990 0.1363 0.4047
C6_2 C 0.6950(14) 0.2494(16) 0.4063(7)
C7_2 C 0.5801(14) 0.2896(11) 0.3698(8)
H3_2 H 0.5527 0.3386 0.3863
C8 C 0.8235(16) 0.3726(13) 0.5571(9)
C9 C 0.7977(12) 0.4578(12) 0.5805(7)
H4_2 H 0.7400 0.5006 0.5548
C10 C 0.8577(12) 0.4795(10) 0.6421(7)
C11 C 0.9501(11) 0.4155(11) 0.6802(7)
H5 H 0.9894 0.4282 0.7220
C12 C 0.9817(11) 0.3349(10) 0.6553(7)
C13 C 0.9191(12) 0.3113(11) 0.5950(7)
H6 H 0.9379 0.2558 0.5783
C14_2 C 0.701(2) 0.0523(18) 0.2998(13)
C16_2 C 0.8235(13) 0.5617(12) 0.6690(8)
C17_2 C 0.4424(16) 0.2679(15) 0.4728(9)
H7_2 H 0.3982 0.3231 0.4712
C18 C 0.5385(18) 0.2517(17) 0.5265(10)
H8 H 0.5583 0.3007 0.5572
C19 C 0.5965(19) 0.1824(19) 0.5365(10)
H9 H 0.6566 0.1727 0.5752
C20_2 C 0.5735(15) 0.1115(15) 0.4877(9)
C21_2 C 0.6374(17) 0.0150(17) 0.4820(11)
C26_2 C 0.3185(15) 0.0361(14) 0.2775(10)
H14_2 H 0.2522 0.0505 0.2426
C27_2 C 0.4411(14) 0.0680(13) 0.3780(10)
C28_2 C 0.4734(14) 0.1306(13) 0.4309(8)
N1_2 N 0.4106(10) 0.2124(10) 0.4258(7)
N2_2 N 0.3457(12) 0.0907(9) 0.3267(7)
N3_2 N 0.7728(14) 0.2738(12) 0.4704(8)
N4_2 N 0.7513(14) 0.3465(12) 0.4914(8)
O3_2 O 0.6393(12) 0.0292(10) 0.2431(8)
O4_2 O 0.7805(12) 0.0087(10) 0.3281(7)
O7_2 O 0.7769(8) 0.6380(8) 0.6382(5)
O8_2 O 0.8464(7) 0.5480(7) 0.7242(5)
O9_2 O 0.6751(15) 0.4274(14) 0.4642(9)
O10_2 O 0.1786(11) 0.1300(12) 0.3688(7)
H15_2 H 0.1640 0.1136 0.3972
H16_2 H 0.1918 0.1806 0.3930
O14_2 O 0.1331(8) 0.2015(7) 0.2514(5)
O15_2 O 0.2231(8) 0.3620(8) 0.3618(5)
H10 H 0.7026 0.9960 0.5163
C22_2 C 0.604(2) 0.9594(19) 0.4317(14)
H11_2 H 0.6476 0.9045 0.4319
C23_2 C 0.5075(16) 0.9802(13) 0.3789(12)
C24_2 C 0.480(2) 0.9272(17) 0.3253(13)
H12_2 H 0.5242 0.8742 0.3244
C25_2 C 0.387(2) 0.9537(17) 0.2746(12)
H13_2 H 0.3671 0.9197 0.2378
O13_2 O 0.8971(7) 0.8024(7) 0.3272(4)
O16_2 O 0.8464(7) 0.9520(7) 0.2242(5)
C15_3 C 0.0802(12) 0.2280(11) 0.1977(8)
C1_3 C 0.4078(14) 0.2155(12) 0.7749(9)
C2_3 C 0.5168(11) 0.2467(10) 0.8124(7)
C3_3 C 0.5634(13) 0.3201(11) 0.7900(7)
H1_3 H 0.5212 0.3408 0.7495
C4_3 C 0.665(2) 0.3635(14) 0.8224(12)
C5_3 C 0.7310(18) 0.3324(14) 0.8811(12)
H2_3 H 0.7990 0.3637 0.9047
C6_3 C 0.6950(14) 0.2506(16) 0.9063(7)
C7_3 C 0.5801(14) 0.2104(11) 0.8698(8)
H3_3 H 0.5527 0.1614 0.8863
C14_3 C 0.701(2) 0.4477(18) 0.7998(13)
C17_3 C 0.4424(16) 0.2321(15) 0.9728(9)
H7_3 H 0.3982 0.1769 0.9712
C20_3 C 0.5735(15) 0.3885(15) 0.9877(9)
C21_3 C 0.6374(17) 0.4850(17) 0.9820(11)
C22_3 C 0.604(2) 0.5406(19) 0.9317(14)
H11_3 H 0.6476 0.5955 0.9319
C23_3 C 0.5075(16) 0.5198(13) 0.8789(12)
C24_3 C 0.480(2) 0.5728(17) 0.8253(13)
H12_3 H 0.5242 0.6258 0.8244
C25_3 C 0.387(2) 0.5463(17) 0.7746(12)
H13_3 H 0.3671 0.5803 0.7378
C26_3 C 0.3185(15) 0.4639(14) 0.7775(10)
H14_3 H 0.2522 0.4495 0.7426
C27_3 C 0.4411(14) 0.4320(13) 0.8780(10)
C28_3 C 0.4734(14) 0.3694(13) 0.9309(8)
N1_3 N 0.4106(10) 0.2876(10) 0.9258(7)
N2_3 N 0.3457(12) 0.4093(9) 0.8267(7)
N3_3 N 0.7728(14) 0.2262(12) 0.9704(8)
N4_3 N 0.7513(14) 0.1535(12) 0.9914(8)
O1_2 O 0.3534(8) 0.1806(7) 0.7999(5)
O2_2 O 0.3652(9) 0.2093(9) 0.7197(6)
O3_3 O 0.6393(12) 0.4708(10) 0.7431(8)
O4_3 O 0.7805(12) 0.4913(10) 0.8281(7)
O9_3 O 0.6751(15) 0.0726(14) 0.9642(9)
O10_3 O 0.1786(11) 0.3700(12) 0.8688(7)
H15_3 H 0.1640 0.3864 0.8972
H16_3 H 0.1918 0.3194 0.8930
O11_2 O 0.6466(8) 0.6806(7) 0.7001(5)
O12_2 O 0.6348(9) 0.7093(9) 0.7803(6)
H4_3 H 0.7400 0.9994 0.0548
C16_3 C 0.8235(13) 0.9383(12) 0.1690(8)
H10_2 H 0.2974 0.0040 0.4837
C22_4 C 0.396(2) 0.0406(19) 0.5683(14)
H11_4 H 0.3524 0.0955 0.5681
C23_4 C 0.4925(16) 0.0198(13) 0.6211(12)
C24_4 C 0.520(2) 0.0728(17) 0.6747(13)
H12_4 H 0.4758 0.1258 0.6756
C25_4 C 0.613(2) 0.0463(17) 0.7254(12)
H13_4 H 0.6329 0.0803 0.7622
C1_4 C 0.5922(14) 0.7155(12) 0.7251(9)
C2_4 C 0.4832(11) 0.7467(10) 0.6876(7)
C3_4 C 0.4366(13) 0.8201(11) 0.7100(7)
H1_4 H 0.4788 0.8408 0.7505
C4_4 C 0.335(2) 0.8635(14) 0.6776(12)
C5_4 C 0.2690(18) 0.8324(14) 0.6189(12)
H2_4 H 0.2010 0.8637 0.5953
C6_4 C 0.3050(14) 0.7506(16) 0.5937(7)
C7_4 C 0.4199(14) 0.7104(11) 0.6302(8)
H3_4 H 0.4473 0.6614 0.6137
C8_2 C 0.1765(16) 0.6274(13) 0.4429(9)
C9_2 C 0.2023(12) 0.5422(12) 0.4195(7)
H4_4 H 0.2600 0.4994 0.4452
C10_2 C 0.1423(12) 0.5205(10) 0.3579(7)
C11_2 C 0.0499(11) 0.5845(11) 0.3198(7)
H5_2 H 0.0106 0.5718 0.2780
C12_2 C 0.0183(11) 0.6651(10) 0.3447(7)
C13_2 C 0.0809(12) 0.6887(11) 0.4050(7)
H6_2 H 0.0621 0.7442 0.4217
C14_4 C 0.299(2) 0.9477(18) 0.7002(13)
C16_4 C 0.1765(13) 0.4383(12) 0.3310(8)
C17_4 C 0.5576(16) 0.7321(15) 0.5272(9)
H7_4 H 0.6018 0.6769 0.5288
C18_2 C 0.4615(18) 0.7483(17) 0.4735(10)
H8_2 H 0.4417 0.6993 0.4428
C19_2 C 0.4035(19) 0.8176(19) 0.4635(10)
H9_2 H 0.3434 0.8273 0.4248
C20_4 C 0.4265(15) 0.8885(15) 0.5123(9)
C21_4 C 0.3626(17) 0.9850(17) 0.5180(11)
C26_4 C 0.6815(15) 0.9639(14) 0.7225(10)
H14_4 H 0.7478 0.9495 0.7574
C27_4 C 0.5589(14) 0.9320(13) 0.6220(10)
C28_4 C 0.5266(14) 0.8694(13) 0.5691(8)
N1_4 N 0.5894(10) 0.7876(10) 0.5742(7)
N2_4 N 0.6543(12) 0.9093(9) 0.6733(7)
N3_4 N 0.2272(14) 0.7262(12) 0.5296(8)
N4_4 N 0.2487(14) 0.6535(12) 0.5086(8)
O3_4 O 0.3607(12) 0.9708(10) 0.7569(8)
O4_4 O 0.2195(12) 0.9913(10) 0.6719(7)
O9_4 O 0.3249(15) 0.5726(14) 0.5358(9)
O10_4 O 0.8214(11) 0.8700(12) 0.6312(7)
H15_4 H 0.8360 0.8864 0.6028
H16_4 H 0.8082 0.8194 0.6070
C15_4 C 0.9198(12) 0.7280(11) 0.3023(8)
C8_3 C 0.1765(16) 0.8726(13) 0.9429(9)
C9_3 C 0.2023(12) 0.9578(12) 0.9195(7)
C10_3 C 0.1423(12) 0.9795(10) 0.8579(7)
C11_3 C 0.0499(11) 0.9155(11) 0.8198(7)
H5_3 H 0.0106 0.9282 0.7780
C12_3 C 0.0183(11) 0.8349(10) 0.8447(7)
C13_3 C 0.0809(12) 0.8113(11) 0.9050(7)
H6_3 H 0.0621 0.7558 0.9217
C18_3 C 0.4615(18) 0.7517(17) 0.9735(10)
H8_3 H 0.4417 0.8007 0.9428
C19_3 C 0.4035(19) 0.6824(19) 0.9635(10)
H9_3 H 0.3434 0.6727 0.9248
H10_3 H 0.2974 0.4960 0.9837
C8_4 C 0.8235(16) 0.1274(13) 0.0571(9)
C9_4 C 0.7977(12) 0.0422(12) 0.0805(7)
C10_4 C 0.8577(12) 0.0205(10) 0.1421(7)
C11_4 C 0.9501(11) 0.0845(11) 0.1802(7)
H5_4 H 0.9894 0.0718 0.2220
C12_4 C 0.9817(11) 0.1651(10) 0.1553(7)
C13_4 C 0.9191(12) 0.1887(11) 0.0950(7)
H6_4 H 0.9379 0.2442 0.0783
C18_4 C 0.5385(18) 0.2483(17) 0.0265(10)
H8_4 H 0.5583 0.1993 0.0572
C19_4 C 0.5965(19) 0.3176(19) 0.0365(10)
H9_4 H 0.6566 0.3273 0.0752
H10_4 H 0.7026 0.5040 0.0163
loop_
_geom_bond_atom_site_label_1
_geom_bond_atom_site_label_2
_geom_bond_site_symmetry_1
_geom_bond_site_symmetry_2
O7 C16 1_555 1_555
O8 C16 1_555 1_555
Zn3 O7 1_555 1_555
Zn7 O8 1_555 1_555
Zn1 N1 1_555 1_555
Zn2 O3 1_555 1_555
C1 C2 1_555 1_555
C2 C3 1_555 1_555
C3 H1 1_555 1_555
C4 C3 1_555 1_555
C5 C4 1_555 1_555
H2 C5 1_555 1_555
C6 C5 1_555 1_555
C7 C2 1_555 1_555
H3 C7 1_555 1_555
C14 C4 1_555 1_555
C17 H7 1_555 1_555
C21 C20 1_555 1_555
C22 C21 1_555 1_555
H11 C22 1_555 1_555
C23 C22 1_555 1_555
C24 C23 1_555 1_555
H12 C24 1_555 1_555
C25 C24 1_555 1_555
H13 C25 1_555 1_555
C26 C25 1_555 1_555
H14 C26 1_555 1_555
C27 C23 1_555 1_555
C28 C20 1_555 1_555
N1 C17 1_555 1_555
N2 Zn1 1_555 1_555
N3 C6 1_555 1_555
O1 Zn1 1_555 1_555
O2 C1 1_555 1_555
O3 C14 1_555 1_555
O4 Zn2 1_555 1_555
O9 N4 1_555 1_555
O10 Zn1 1_555 1_555
H15 O10 1_555 1_555
H16 O10 1_555 1_555
Zn5 O1 1_555 1_555
O11 Zn2 1_555 1_555
O12 Zn2 1_555 1_555
O13 Zn2 1_555 1_555
O14 Zn1 1_555 1_555
O15 Zn1 1_555 1_555
O16 Zn2 1_555 1_555
C1 O1 1_555 1_555
C6 C7 1_555 1_555
C14 O4 1_555 1_555
C26 N2 1_555 1_555
C27 C28 1_555 1_555
C27 N2 1_555 1_555
C28 N1 1_555 1_555
N3 N4 1_555 1_555
O2 Zn5 1_555 1_555
O5 C15 1_555 1_555
O6 C15 1_555 1_555
Zn4 O6 1_555 1_555
Zn6 O5 1_555 1_555
O5_2 C15_2 1_555 1_555
O6_2 C15_2 1_555 1_555
Zn3 O6_2 1_555 1_555
Zn7 O5_2 1_555 1_555
Zn1_2 N1_2 1_555 1_555
C1_2 C2_2 1_555 1_555
C2_2 C3_2 1_555 1_555
C3_2 H1_2 1_555 1_555
C4_2 C3_2 1_555 1_555
C5_2 C4_2 1_555 1_555
H2_2 C5_2 1_555 1_555
C6_2 C5_2 1_555 1_555
C7_2 C2_2 1_555 1_555
H3_2 C7_2 1_555 1_555
C8 C9 1_555 1_555
C9 H4_2 1_555 1_555
C10 C9 1_555 1_555
C11 C10 1_555 1_555
H5 C11 1_555 1_555
C12 C11 1_555 1_555
C13 C8 1_555 1_555
H6 C13 1_555 1_555
C14_2 C4_2 1_555 1_555
C16_2 C10 1_555 1_555
C17_2 H7_2 1_555 1_555
C18 C17_2 1_555 1_555
H8 C18 1_555 1_555
C19 C18 1_555 1_555
H9 C19 1_555 1_555
C20_2 C19 1_555 1_555
C21_2 C20_2 1_555 1_555
H14_2 C26_2 1_555 1_555
C28_2 C20_2 1_555 1_555
N1_2 C17_2 1_555 1_555
N2_2 Zn1_2 1_555 1_555
N3_2 C6_2 1_555 1_555
N4_2 C8 1_555 1_555
O11 Zn1_2 1_555 1_555
O12 C1_2 1_555 1_555
O3_2 C14_2 1_555 1_555
O7_2 C16_2 1_555 1_555
O8_2 C16_2 1_555 1_555
O9_2 N4_2 1_555 1_555
O10_2 Zn1_2 1_555 1_555
H15_2 O10_2 1_555 1_555
H16_2 O10_2 1_555 1_555
Zn4 O7_2 1_555 1_555
Zn6 O8_2 1_555 1_555
O14_2 Zn1_2 1_555 1_555
O15_2 Zn1_2 1_555 1_555
C1_2 O11 1_555 1_555
C6_2 C7_2 1_555 1_555
C12 C13 1_555 1_555
C14_2 O4_2 1_555 1_555
C26_2 N2_2 1_555 1_555
C27_2 C28_2 1_555 1_555
C27_2 N2_2 1_555 1_555
C28_2 N1_2 1_555 1_555
N3_2 N4_2 1_555 1_555
H11_2 C22_2 1_555 1_555
C23_2 C22_2 1_555 1_555
C24_2 C23_2 1_555 1_555
H12_2 C24_2 1_555 1_555
C25_2 C24_2 1_555 1_555
H13_2 C25_2 1_555 1_555
O13_2 Zn5 1_555 1_555
O16_2 Zn5 1_555 1_555
O13 C15_3 1_555 1_555
O14_2 C15_3 1_555 1_555
Zn3 N1_3 1_555 1_555
Zn6 O3_3 1_555 1_555
C1_3 C2_3 1_555 1_555
C2_3 C3_3 1_555 1_555
C3_3 H1_3 1_555 1_555
C4_3 C3_3 1_555 1_555
C5_3 C4_3 1_555 1_555
H2_3 C5_3 1_555 1_555
C6_3 C5_3 1_555 1_555
C7_3 C2_3 1_555 1_555
H3_3 C7_3 1_555 1_555
C14_3 C4_3 1_555 1_555
C17_3 H7_3 1_555 1_555
C21_3 C20_3 1_555 1_555
C22_3 C21_3 1_555 1_555
H11_3 C22_3 1_555 1_555
C23_3 C22_3 1_555 1_555
C24_3 C23_3 1_555 1_555
H12_3 C24_3 1_555 1_555
C25_3 C24_3 1_555 1_555
H13_3 C25_3 1_555 1_555
C26_3 C25_3 1_555 1_555
H14_3 C26_3 1_555 1_555
C27_3 C23_3 1_555 1_555
C28_3 C20_3 1_555 1_555
N1_3 C17_3 1_555 1_555
N2_3 Zn3 1_555 1_555
N3_3 C6_3 1_555 1_555
O1_2 Zn3 1_555 1_555
O2_2 C1_3 1_555 1_555
O3_3 C14_3 1_555 1_555
O4_3 Zn6 1_555 1_555
O9_3 N4_3 1_555 1_555
O10_3 Zn3 1_555 1_555
H15_3 O10_3 1_555 1_555
H16_3 O10_3 1_555 1_555
Zn7 O1_2 1_555 1_555
O11_2 Zn6 1_555 1_555
O12_2 Zn6 1_555 1_555
C1_3 O1_2 1_555 1_555
C6_3 C7_3 1_555 1_555
C14_3 O4_3 1_555 1_555
C26_3 N2_3 1_555 1_555
C27_3 C28_3 1_555 1_555
C27_3 N2_3 1_555 1_555
C28_3 N1_3 1_555 1_555
N3_3 N4_3 1_555 1_555
O2_2 Zn7 1_555 1_555
O15 C16_3 1_555 1_555
O16_2 C16_3 1_555 1_555
H11_4 C22_4 1_555 1_555
C23_4 C22_4 1_555 1_555
C24_4 C23_4 1_555 1_555
H12_4 C24_4 1_555 1_555
C25_4 C24_4 1_555 1_555
H13_4 C25_4 1_555 1_555
Zn4 N1_4 1_555 1_555
C1_4 C2_4 1_555 1_555
C2_4 C3_4 1_555 1_555
C3_4 H1_4 1_555 1_555
C4_4 C3_4 1_555 1_555
C5_4 C4_4 1_555 1_555
H2_4 C5_4 1_555 1_555
C6_4 C5_4 1_555 1_555
C7_4 C2_4 1_555 1_555
H3_4 C7_4 1_555 1_555
C8_2 C9_2 1_555 1_555
C9_2 H4_4 1_555 1_555
C10_2 C9_2 1_555 1_555
C11_2 C10_2 1_555 1_555
H5_2 C11_2 1_555 1_555
C12_2 C11_2 1_555 1_555
C13_2 C8_2 1_555 1_555
H6_2 C13_2 1_555 1_555
C14_4 C4_4 1_555 1_555
C16_4 C10_2 1_555 1_555
C17_4 H7_4 1_555 1_555
C18_2 C17_4 1_555 1_555
H8_2 C18_2 1_555 1_555
C19_2 C18_2 1_555 1_555
H9_2 C19_2 1_555 1_555
C20_4 C19_2 1_555 1_555
C21_4 C20_4 1_555 1_555
H14_4 C26_4 1_555 1_555
C28_4 C20_4 1_555 1_555
N1_4 C17_4 1_555 1_555
N2_4 Zn4 1_555 1_555
N3_4 C6_4 1_555 1_555
N4_4 C8_2 1_555 1_555
O11_2 Zn4 1_555 1_555
O12_2 C1_4 1_555 1_555
O3_4 C14_4 1_555 1_555
O15_2 C16_4 1_555 1_555
O16 C16_4 1_555 1_555
O9_4 N4_4 1_555 1_555
O10_4 Zn4 1_555 1_555
H15_4 O10_4 1_555 1_555
H16_4 O10_4 1_555 1_555
C1_4 O11_2 1_555 1_555
C6_4 C7_4 1_555 1_555
C12_2 C13_2 1_555 1_555
C14_4 O4_4 1_555 1_555
C26_4 N2_4 1_555 1_555
C27_4 C28_4 1_555 1_555
C27_4 N2_4 1_555 1_555
C28_4 N1_4 1_555 1_555
N3_4 N4_4 1_555 1_555
O13_2 C15_4 1_555 1_555
O14 C15_4 1_555 1_555
C8_3 C9_3 1_555 1_555
C10_3 C9_3 1_555 1_555
C11_3 C10_3 1_555 1_555
H5_3 C11_3 1_555 1_555
C12_3 C11_3 1_555 1_555
C13_3 C8_3 1_555 1_555
H6_3 C13_3 1_555 1_555
H8_3 C18_3 1_555 1_555
C19_3 C18_3 1_555 1_555
H9_3 C19_3 1_555 1_555
C12_3 C13_3 1_555 1_555
C8_4 C9_4 1_555 1_555
C10_4 C9_4 1_555 1_555
C11_4 C10_4 1_555 1_555
H5_4 C11_4 1_555 1_555
C12_4 C11_4 1_555 1_555
C13_4 C8_4 1_555 1_555
H6_4 C13_4 1_555 1_555
H8_4 C18_4 1_555 1_555
C19_4 C18_4 1_555 1_555
H9_4 C19_4 1_555 1_555
C12_4 C13_4 1_555 1_555

#END
