
###############################################################################
#
# This file contains modified crystal structure data generated from the
# MOF subset of the Cambridge Structural Database (CSD) v543 
# hosted by the Cambridge Crystallographic Data Centre (CCDC).
#
# This work is licensed under the Creative Commons
# Attribution-NonCommercial-ShareAlike 4.0 International License.
# To view a copy of this license, visit
# http://creativecommons.org/licenses/by-nc-sa/4.0/
# or send a letter to
# Creative Commons, PO Box 1866, Mountain View, CA 94042, USA.
#
# CIF created using the CSD Python API on 29 September 2022
# The structure has been converted into the P1 space group
# The structure has a 3D framework
# The original CSD entry VIFBUJ is in the monoclinic crystal system
# The framework has been calculated to contain at least 10.0% void space
# The void calculation uses a probe of radius 1.32A, grid spacing 0.4
# H atom positions have been added when not included in the experimental data
# Generated hydrogen atom positions removed from atoms on special positions
#
###############################################################################

data_VIFBUJ
_chemical_formula_moiety         '(C60 H92 O64 Tm8)n'
_symmetry_cell_setting           triclinic
_symmetry_space_group_name_H-M   'P 1'
_symmetry_Int_Tables_number      1
_space_group_name_Hall           'P 1'
loop_
_symmetry_equiv_pos_site_id
_symmetry_equiv_pos_as_xyz
1 x,y,z
_cell_length_a                   11.2874(4)
_cell_length_b                   17.5352(3)
_cell_length_c                   11.8917(4)
_cell_angle_alpha                90
_cell_angle_beta                 106.7230(10)
_cell_angle_gamma                90
_cell_volume                     2254.14
loop_
_atom_site_label
_atom_site_type_symbol
_atom_site_fract_x
_atom_site_fract_y
_atom_site_fract_z
O1 O 0.6202(4) 0.1054(2) 0.6089(3)
O5 O 0.2801(4) 0.1101(2) 0.4754(4)
O6 O 0.1070(4) 0.0519(2) 0.4684(3)
O7 O 0.6539(4) 0.0574(2) 0.4521(3)
O12 O 0.4305(5) 0.1036(2) 0.1489(4)
C1 C 0.0455(5) 0.1809(3) 0.6054(5)
O13 O 0.1104(5) 0.0735(2) 0.2252(4)
C2 C 0.1330(5) 0.1804(3) 0.5419(5)
O16 O 0.3925(4) 0.0542(2) 0.3066(4)
C4 C 0.0751(5) 0.1813(3) 0.0994(4)
O17 O 0.0669(4) 0.0618(2) 0.7068(4)
C5 C 0.1416(5) 0.1810(3) 0.0167(5)
C6 C 0.0035(7) 0.25000 0.6359(7)
C7 C 0.1754(5) 0.1100(3) 0.4948(5)
C8 C 0.5538(5) 0.1802(3) 0.4352(4)
C9 C 0.4374(8) 0.25000 0.2630(7)
H2 H 0.3857 0.25000 0.1864
C10 C 0.4290(5) 0.1075(3) 0.2525(5)
C11 C 0.0446(8) 0.25000 0.1407(7)
H3 H 0.0026 0.25000 0.1975
C12 C 0.0332(6) 0.1114(3) 0.1506(5)
C13 C 0.4758(5) 0.1805(3) 0.3198(4)
C15 C 0.1758(8) 0.25000 0.5112(7)
H4 H 0.2339 0.25000 0.4694
C16 C 0.6093(5) 0.1104(3) 0.5011(5)
C18 C 0.5913(8) 0.25000 0.4921(7)
H5 H 0.642 0.25000 0.5692
O18 O 0.2801(4) 0.3899(2) 0.4754(4)
O19 O 0.1070(4) 0.4481(2) 0.4684(3)
C19 C 0.1330(5) 0.3196(3) 0.5419(5)
C20 C 0.1754(5) 0.3900(3) 0.4948(5)
C21 C 0.0455(5) 0.3191(3) 0.6054(5)
O21 O 0.0669(4) 0.4382(2) 0.7068(4)
O22 O 0.4305(5) 0.3964(2) 0.1489(4)
O23 O 0.3925(4) 0.4458(2) 0.3066(4)
C23 C 0.5538(5) 0.3198(3) 0.4352(4)
C24 C 0.4290(5) 0.3925(3) 0.2525(5)
C25 C 0.4758(5) 0.3195(3) 0.3198(4)
O24 O 0.6202(4) 0.3946(2) 0.6089(3)
O25 O 0.6539(4) 0.4426(2) 0.4521(3)
C26 C 0.6093(5) 0.3896(3) 0.5011(5)
O26 O 0.1104(5) 0.4265(2) 0.2252(4)
C27 C 0.0751(5) 0.3187(3) 0.0994(4)
C28 C 0.1416(5) 0.3190(3) 0.0167(5)
C29 C 0.0332(6) 0.3886(3) 0.1506(5)
Tm4 Tm 0.76145(2) 0.001746(12) 0.64343(2)
O34 O 0.8123(5) 0.0670(3) 0.8269(4)
Tm6 Tm 0.76145(2) 0.498254(12) 0.64343(2)
Tm8 Tm 0.23855(2) 0.501746(12) 0.35657(2)
Tm10 Tm 0.20569(2) 0.512803(13) 0.83216(2)
O43 O 0.8787(4) 0.1030(2) 0.6142(4)
O4 O 0.1105(4) 0.0500(2) 0.9641(4)
O8 O 0.2523(4) 0.1122(2) 0.9069(3)
C14 C 0.1696(6) 0.1102(3) 0.9610(5)
C17 C 0.1750(8) 0.25000 0.9771(7)
O28 O 0.1105(4) 0.4500(2) 0.9641(4)
O29 O 0.2523(4) 0.3878(2) 0.9069(3)
C30 C 0.1696(6) 0.3898(3) 0.9610(5)
O30 O 0.3541(4) 0.0267(2) 0.7446(4)
H16 H 0.228279 0.25 0.913931
Tm1 Tm 0.23855(2) 0.998254(12) 0.35657(2)
O10 O 0.1877(5) 0.9330(3) 0.1731(4)
O33 O 0.3534(5) 0.9767(3) 0.0159(4)
Tm11 Tm 0.20569(2) 0.987197(13) 0.83216(2)
O35 O 0.3798(4) 0.8946(2) 0.3911(3)
O37 O 0.7199(4) 0.8899(2) 0.5246(4)
O38 O 0.8930(4) 0.9481(2) 0.5316(3)
O39 O 0.3461(4) 0.9426(2) 0.5479(3)
O41 O 0.8896(5) 0.9265(2) 0.7748(4)
O44 O 0.1213(4) 0.8970(2) 0.3858(4)
O45 O 0.6075(4) 0.9458(2) 0.6934(4)
O31 O 0.3176(4) 0.8720(2) 0.8369(4)
O32 O 0.1359(4) 0.9207(2) 0.6489(4)
O42 O 0.0814(4) 0.9000(2) 0.8781(4)
H24 H 0.370914 0.98493 0.69492
Tm2 Tm 0.79431(2) 0.012803(13) 0.16784(2)
O3 O 0.6824(4) 0.1280(2) 0.1631(4)
O9 O 0.8641(4) 0.0793(2) 0.3511(4)
O14 O 0.9186(4) 0.1000(2) 0.1219(4)
C3 C 0.9931(6) 0.1088(3) 0.6437(5)
H1 H 0.9457 0.25000 0.678
O20 O 0.8787(4) 0.3970(2) 0.6142(4)
C22 C 0.9931(6) 0.3912(3) 0.6437(5)
O27 O 0.9186(4) 0.4000(2) 0.1219(4)
Tm12 Tm 0.79431(2) 0.487197(13) 0.16784(2)
O11 O 0.6466(5) 0.0233(3) 0.9841(4)
O2 O 0.6459(4) 0.9733(2) 0.2554(4)
O36 O 0.8895(4) 0.9500(2) 0.0359(4)
O40 O 0.7477(4) 0.8878(2) 0.0931(3)
O47 O 0.9331(4) 0.9382(2) 0.2932(4)
O11_2 O 0.3534(5) 0.5233(3) 0.0159(4)
O2_2 O 0.3541(4) 0.4733(2) 0.7446(4)
O3_2 O 0.3176(4) 0.6280(2) 0.8369(4)
O9_2 O 0.1359(4) 0.5793(2) 0.6489(4)
O14_2 O 0.0814(4) 0.6000(2) 0.8781(4)
O15 O 0.1213(4) 0.6030(2) 0.3858(4)
C3_2 C 0.0069(6) 0.6088(3) 0.3563(5)
H1_2 H 0.0543 0.75000 0.322
C22_2 C 0.0069(6) 0.8912(3) 0.3563(5)
O4_2 O 0.8895(4) 0.5500(2) 0.0359(4)
O8_2 O 0.7477(4) 0.6122(2) 0.0931(3)
C14_2 C 0.8304(6) 0.6102(3) 0.0390(5)
C17_2 C 0.8250(8) 0.75000 0.0229(7)
C30_2 C 0.8304(6) 0.8898(3) 0.0390(5)
O30_2 O 0.6459(4) 0.5267(2) 0.2554(4)
O31_2 O 0.6824(4) 0.3720(2) 0.1631(4)
O32_2 O 0.8641(4) 0.4207(2) 0.3511(4)
O46 O 0.9331(4) 0.5618(2) 0.2932(4)
H16_2 H 0.771721 0.75 0.0860691
O1_2 O 0.3798(4) 0.6054(2) 0.3911(3)
O5_2 O 0.7199(4) 0.6101(2) 0.5246(4)
O6_2 O 0.8930(4) 0.5519(2) 0.5316(3)
O7_2 O 0.3461(4) 0.5574(2) 0.5479(3)
O10_2 O 0.8123(5) 0.4330(3) 0.8269(4)
O12_2 O 0.5695(5) 0.6036(2) 0.8511(4)
C1_2 C 0.9545(5) 0.6809(3) 0.3946(5)
O13_2 O 0.8896(5) 0.5735(2) 0.7748(4)
C2_2 C 0.8670(5) 0.6804(3) 0.4581(5)
O16_2 O 0.6075(4) 0.5542(2) 0.6934(4)
C4_2 C 0.9249(5) 0.6813(3) 0.9006(4)
C5_2 C 0.8584(5) 0.6810(3) 0.9833(5)
C6_2 C 0.9965(7) 0.75000 0.3641(7)
C7_2 C 0.8246(5) 0.6100(3) 0.5052(5)
C8_2 C 0.4462(5) 0.6802(3) 0.5648(4)
C9_2 C 0.5626(8) 0.75000 0.7370(7)
H2_2 H 0.6143 0.75000 0.8136
C10_2 C 0.5710(5) 0.6075(3) 0.7475(5)
C11_2 C 0.9554(8) 0.75000 0.8593(7)
H3_2 H 0.9974 0.75000 0.8025
C12_2 C 0.9668(6) 0.6114(3) 0.8494(5)
C13_2 C 0.5242(5) 0.6805(3) 0.6802(4)
C15_2 C 0.8242(8) 0.75000 0.4888(7)
H4_2 H 0.7661 0.75000 0.5306
C16_2 C 0.3907(5) 0.6104(3) 0.4989(5)
C18_2 C 0.4087(8) 0.75000 0.5079(7)
H5_2 H 0.358 0.75000 0.4308
C19_2 C 0.8670(5) 0.8196(3) 0.4581(5)
C20_2 C 0.8246(5) 0.8900(3) 0.5052(5)
C21_2 C 0.9545(5) 0.8191(3) 0.3946(5)
O22_2 O 0.5695(5) 0.8964(2) 0.8511(4)
C23_2 C 0.4462(5) 0.8198(3) 0.5648(4)
C24_2 C 0.5710(5) 0.8925(3) 0.7475(5)
C25_2 C 0.5242(5) 0.8195(3) 0.6802(4)
C26_2 C 0.3907(5) 0.8896(3) 0.4989(5)
C27_2 C 0.9249(5) 0.8187(3) 0.9006(4)
C28_2 C 0.8584(5) 0.8190(3) 0.9833(5)
C29_2 C 0.9668(6) 0.8886(3) 0.8494(5)
O33_2 O 0.6466(5) 0.4767(3) 0.9841(4)
O34_2 O 0.1877(5) 0.5670(3) 0.1731(4)
H24_2 H 0.629086 0.0150705 0.30508
loop_
_geom_bond_atom_site_label_1
_geom_bond_atom_site_label_2
_geom_bond_site_symmetry_1
_geom_bond_site_symmetry_2
O1 C16 1_555 1_555
O5 C7 1_555 1_555
O7 C16 1_555 1_555
O12 C10 1_555 1_555
C1 C2 1_555 1_555
C2 C7 1_555 1_555
C4 C5 1_555 1_555
C6 C1 1_555 1_555
C7 O6 1_555 1_555
C8 C13 1_555 1_555
C9 H2 1_555 1_555
C10 O16 1_555 1_555
C11 C4 1_555 1_555
H3 C11 1_555 1_555
C12 O13 1_555 1_555
C13 C9 1_555 1_555
C15 C2 1_555 1_555
H4 C15 1_555 1_555
C16 C8 1_555 1_555
C18 C8 1_555 1_555
H5 C18 1_555 1_555
O18 C20 1_555 1_555
O19 C20 1_555 1_555
C19 C15 1_555 1_555
C20 C19 1_555 1_555
C21 C6 1_555 1_555
O22 C24 1_555 1_555
O23 C24 1_555 1_555
C23 C18 1_555 1_555
C24 C25 1_555 1_555
C25 C9 1_555 1_555
O24 C26 1_555 1_555
O25 C26 1_555 1_555
C26 C23 1_555 1_555
O26 C29 1_555 1_555
C27 C11 1_555 1_555
C29 C27 1_555 1_555
Tm4 O1 1_555 1_555
O34 Tm4 1_555 1_555
Tm6 O24 1_555 1_555
Tm8 O18 1_555 1_555
Tm10 O21 1_555 1_555
O43 Tm4 1_555 1_555
O7 Tm4 1_555 1_555
C4 C12 1_555 1_555
C10 C13 1_555 1_555
O19 Tm8 1_555 1_555
C19 C21 1_555 1_555
O23 Tm8 1_555 1_555
C23 C25 1_555 1_555
O25 Tm6 1_555 1_555
O26 Tm8 1_555 1_555
C27 C28 1_555 1_555
O4 C14 1_555 1_555
O8 C14 1_555 1_555
O28 C30 1_555 1_555
O29 C30 1_555 1_555
Tm10 O28 1_555 1_555
O29 Tm10 1_555 1_555
C17 H16 1_555 1_555
O10 Tm1 1_555 1_555
O35 Tm1 1_555 1_555
O39 Tm1 1_555 1_555
O44 Tm1 1_555 1_555
O31 Tm11 1_555 1_555
O32 Tm11 1_555 1_555
O42 Tm11 1_555 1_555
O3 Tm2 1_555 1_555
O9 Tm2 1_555 1_555
O14 Tm2 1_555 1_555
O43 C3 1_555 1_555
O20 C22 1_555 1_555
Tm6 O20 1_555 1_555
Tm12 O27 1_555 1_555
Tm10 O2_2 1_555 1_555
O3_2 Tm10 1_555 1_555
O9_2 Tm10 1_555 1_555
O14_2 Tm10 1_555 1_555
O15 C3_2 1_555 1_555
O44 C22_2 1_555 1_555
Tm8 O15 1_555 1_555
O4_2 C14_2 1_555 1_555
O8_2 C14_2 1_555 1_555
O36 C30_2 1_555 1_555
O40 C30_2 1_555 1_555
Tm12 O4_2 1_555 1_555
O30_2 Tm12 1_555 1_555
O31_2 Tm12 1_555 1_555
O32_2 Tm12 1_555 1_555
O46 Tm12 1_555 1_555
O8_2 Tm12 1_555 1_555
C17_2 H16_2 1_555 1_555
Tm6 O5_2 1_555 1_555
O1_2 C16_2 1_555 1_555
O5_2 C7_2 1_555 1_555
O6_2 Tm6 1_555 1_555
O7_2 C16_2 1_555 1_555
O10_2 Tm6 1_555 1_555
O12_2 C10_2 1_555 1_555
C1_2 C2_2 1_555 1_555
O13_2 Tm6 1_555 1_555
C2_2 C7_2 1_555 1_555
O16_2 Tm6 1_555 1_555
C4_2 C5_2 1_555 1_555
C6_2 C1_2 1_555 1_555
C7_2 O6_2 1_555 1_555
C8_2 C13_2 1_555 1_555
C9_2 H2_2 1_555 1_555
C10_2 O16_2 1_555 1_555
C11_2 C4_2 1_555 1_555
H3_2 C11_2 1_555 1_555
C12_2 O13_2 1_555 1_555
C13_2 C9_2 1_555 1_555
C15_2 C2_2 1_555 1_555
H4_2 C15_2 1_555 1_555
C16_2 C8_2 1_555 1_555
C18_2 C8_2 1_555 1_555
H5_2 C18_2 1_555 1_555
O37 C20_2 1_555 1_555
O38 C20_2 1_555 1_555
C19_2 C15_2 1_555 1_555
C20_2 C19_2 1_555 1_555
C21_2 C6_2 1_555 1_555
O22_2 C24_2 1_555 1_555
O45 C24_2 1_555 1_555
C23_2 C18_2 1_555 1_555
C24_2 C25_2 1_555 1_555
C25_2 C9_2 1_555 1_555
O35 C26_2 1_555 1_555
O39 C26_2 1_555 1_555
C26_2 C23_2 1_555 1_555
O41 C29_2 1_555 1_555
C27_2 C11_2 1_555 1_555
C29_2 C27_2 1_555 1_555
Tm8 O1_2 1_555 1_555
O34_2 Tm8 1_555 1_555
O7_2 Tm8 1_555 1_555
C4_2 C12_2 1_555 1_555
C10_2 C13_2 1_555 1_555
C19_2 C21_2 1_555 1_555
C23_2 C25_2 1_555 1_555
C27_2 C28_2 1_555 1_555

#END
