
###############################################################################
#
# This file contains modified crystal structure data generated from the
# MOF subset of the Cambridge Structural Database (CSD) v543 
# hosted by the Cambridge Crystallographic Data Centre (CCDC).
#
# This work is licensed under the Creative Commons
# Attribution-NonCommercial-ShareAlike 4.0 International License.
# To view a copy of this license, visit
# http://creativecommons.org/licenses/by-nc-sa/4.0/
# or send a letter to
# Creative Commons, PO Box 1866, Mountain View, CA 94042, USA.
#
# CIF created using the CSD Python API on 29 September 2022
# The structure has been converted into the P1 space group
# The structure has a 3D framework
# The original CSD entry VIFPUY03 is in the orthorhombic crystal system
# The framework has been calculated to contain at least 10.0% void space
# The void calculation uses a probe of radius 1.32A, grid spacing 0.4
#
###############################################################################

data_VIFPUY03
_chemical_formula_moiety         '(C96 H48 In20 O62)n'
_symmetry_cell_setting           triclinic
_symmetry_space_group_name_H-M   'P 1'
_symmetry_Int_Tables_number      1
_space_group_name_Hall           'P 1'
loop_
_symmetry_equiv_pos_site_id
_symmetry_equiv_pos_as_xyz
1 x,y,z
_cell_length_a                   21.851(4)
_cell_length_b                   37.882(13)
_cell_length_c                   7.2460(15)
_cell_angle_alpha                90
_cell_angle_beta                 90
_cell_angle_gamma                90
_cell_volume                     5997.95
loop_
_atom_site_label
_atom_site_type_symbol
_atom_site_fract_x
_atom_site_fract_y
_atom_site_fract_z
H4 H 0.1737 0.1442 0.0232
H5 H 0.1213 0.0909 0.0256
H6 H 0.4474 0.2365 0.0243
H8 H 0.5526 0.2365 0.0243
In5 In 0.7500 0.2500 0.0000
In6 In 0.2500 0.2500 0.0000
In9 In -0.0000 -0.0000 0.0000
In1 In 0.2500 0.2500 0.5000
In2 In -0.0000 -0.0000 0.5000
O1 O 0.0648(3) 0.03891(14) 0.5954(8)
O2 O 0.2208(3) 0.19856(8) 0.5968(8)
O3 O 0.34142(11) 0.23892(18) 0.5962(7)
O4 O 0.2724(4) 0.22461(12) 0.2500
C1 C 0.3671(5) 0.2377(3) 0.7500
C2 C 0.0790(5) 0.0516(3) 0.7500
C3 C 0.1151(5) 0.0858(2) 0.7500
C4 C 0.4684(3) 0.2362(3) 0.5873(11)
H1 H 0.4474 0.2365 0.4757
C5 C 0.1627(5) 0.1336(2) 0.5878(11)
H2 H 0.1737 0.1442 0.4768
C6 C 0.2082(5) 0.1858(3) 0.7500
C7 C 0.1313(5) 0.1016(2) 0.5860(11)
H3 H 0.1213 0.0909 0.4744
C8 C 0.1776(5) 0.1496(3) 0.7500
C9 C 0.4364(5) 0.2356(3) 0.7500
O6 O 0.0648(3) 0.03891(14) 0.9046(8)
O7 O 0.2208(3) 0.19856(8) 0.9032(8)
C10 C 0.1627(5) 0.1336(2) 0.9122(11)
C11 C 0.1313(5) 0.1016(2) 0.9140(11)
O8 O 0.34142(11) 0.23892(18) 0.9038(7)
C12 C 0.4684(3) 0.2362(3) 0.9127(11)
O9 O 0.65858(11) 0.23892(18) 0.5962(7)
C13 C 0.6329(5) 0.2377(3) 0.7500
C14 C 0.5316(3) 0.2362(3) 0.5873(11)
H7 H 0.5526 0.2365 0.4757
C15 C 0.5636(5) 0.2356(3) 0.7500
O10 O 0.65858(11) 0.23892(18) 0.9038(7)
C16 C 0.5316(3) 0.2362(3) 0.9127(11)
O15 O 0.2276(4) 0.27539(12) 0.7500
In5_2 In 0.7500 0.2500 1.0000
In6_2 In 0.2500 0.2500 1.0000
In8 In 0.7500 0.2500 0.5000
In9_2 In -0.0000 -0.0000 1.0000
O18 O 0.2792(3) 0.30144(8) 0.0968(8)
O20 O 0.2792(3) 0.30144(8) 0.4032(8)
O21 O 0.15858(11) 0.26108(18) 0.0962(7)
O23 O 0.15858(11) 0.26108(18) 0.4038(7)
O25 O -0.0000 0.02534(6) 0.2500
In9_3 In -0.0000 1.0000 0.0000
In2_2 In -0.0000 1.0000 0.5000
O5 O -0.0000 0.97466(6) 0.7500
In9_4 In -0.0000 1.0000 1.0000
O16 O 0.0648(3) 0.96109(14) 0.4046(8)
H11 H 0.8263 0.1442 0.0232
H12 H 0.8787 0.0909 0.0256
In9_5 In 1.0000 -0.0000 0.0000
In2_3 In 1.0000 -0.0000 0.5000
O11 O 0.9352(3) 0.03891(14) 0.5954(8)
O12 O 0.7792(3) 0.19856(8) 0.5968(8)
C17 C 0.9210(5) 0.0516(3) 0.7500
C18 C 0.8849(5) 0.0858(2) 0.7500
C19 C 0.8373(5) 0.1336(2) 0.5878(11)
H9 H 0.8263 0.1442 0.4768
C20 C 0.7918(5) 0.1858(3) 0.7500
C21 C 0.8687(5) 0.1016(2) 0.5860(11)
H10 H 0.8787 0.0909 0.4744
C22 C 0.8224(5) 0.1496(3) 0.7500
O13 O 0.9352(3) 0.03891(14) 0.9046(8)
O14 O 0.7792(3) 0.19856(8) 0.9032(8)
C23 C 0.8373(5) 0.1336(2) 0.9122(11)
C24 C 0.8687(5) 0.1016(2) 0.9140(11)
In9_6 In 1.0000 -0.0000 1.0000
O25_2 O 1.0000 0.02534(6) 0.2500
In9_7 In 1.0000 1.0000 0.0000
In2_4 In 1.0000 1.0000 0.5000
O5_2 O 1.0000 0.97466(6) 0.7500
In9_8 In 1.0000 1.0000 1.0000
O17 O 0.9352(3) 0.96109(14) 0.4046(8)
O11_2 O 0.0648(3) 0.96109(14) 0.0954(8)
O12_2 O 0.2208(3) 0.80144(8) 0.0968(8)
C17_2 C 0.0790(5) 0.9484(3) 0.2500
C18_2 C 0.1151(5) 0.9142(2) 0.2500
C19_2 C 0.1627(5) 0.8664(2) 0.0878(11)
C20_2 C 0.2082(5) 0.8142(3) 0.2500
C21_2 C 0.1313(5) 0.8984(2) 0.0860(11)
C22_2 C 0.1776(5) 0.8504(3) 0.2500
O14_2 O 0.2208(3) 0.80144(8) 0.4032(8)
C23_2 C 0.1627(5) 0.8664(2) 0.4122(11)
H11_2 H 0.1737 0.8558 0.5232
C24_2 C 0.1313(5) 0.8984(2) 0.4140(11)
H12_2 H 0.1213 0.9091 0.5256
In4 In 0.2500 0.7500 0.5000
In7 In 0.2500 0.7500 0.0000
H9_2 H 0.1737 0.8558 0.9768
H10_2 H 0.1213 0.9091 0.9744
In7_2 In 0.2500 0.7500 1.0000
In1_2 In 0.7500 0.7500 0.0000
O1_2 O 0.9352(3) 0.96109(14) 0.0954(8)
O2_2 O 0.7792(3) 0.80144(8) 0.0968(8)
O3_2 O 0.65858(11) 0.76108(18) 0.0962(7)
C1_2 C 0.6329(5) 0.7623(3) 0.2500
C2_2 C 0.9210(5) 0.9484(3) 0.2500
C3_2 C 0.8849(5) 0.9142(2) 0.2500
C4_2 C 0.5316(3) 0.7638(3) 0.0873(11)
C5_2 C 0.8373(5) 0.8664(2) 0.0878(11)
C6_2 C 0.7918(5) 0.8142(3) 0.2500
C7_2 C 0.8687(5) 0.8984(2) 0.0860(11)
C8_2 C 0.8224(5) 0.8504(3) 0.2500
C9_2 C 0.5636(5) 0.7644(3) 0.2500
O7_2 O 0.7792(3) 0.80144(8) 0.4032(8)
C10_2 C 0.8373(5) 0.8664(2) 0.4122(11)
H4_2 H 0.8263 0.8558 0.5232
C11_2 C 0.8687(5) 0.8984(2) 0.4140(11)
H5_2 H 0.8787 0.9091 0.5256
O8_2 O 0.65858(11) 0.76108(18) 0.4038(7)
C12_2 C 0.5316(3) 0.7638(3) 0.4127(11)
H6_2 H 0.5526 0.7635 0.5243
O9_2 O 0.34142(11) 0.76108(18) 0.0962(7)
C13_2 C 0.3671(5) 0.7623(3) 0.2500
C14_2 C 0.4684(3) 0.7638(3) 0.0873(11)
C15_2 C 0.4364(5) 0.7644(3) 0.2500
O10_2 O 0.34142(11) 0.76108(18) 0.4038(7)
C16_2 C 0.4684(3) 0.7638(3) 0.4127(11)
H8_2 H 0.4474 0.7635 0.5243
O15_2 O 0.7724(4) 0.72461(12) 0.2500
In6_3 In 0.7500 0.7500 0.5000
In1_3 In 0.7500 0.7500 1.0000
O4_2 O 0.7276(4) 0.77539(12) 0.7500
H1_2 H 0.5526 0.7635 0.9757
H2_2 H 0.8263 0.8558 0.9768
H3_2 H 0.8787 0.9091 0.9744
H7_2 H 0.4474 0.7635 0.9757
O18_2 O 0.7208(3) 0.69856(8) 0.5968(8)
O20_2 O 0.7208(3) 0.69856(8) 0.9032(8)
O21_2 O 0.84142(11) 0.73892(18) 0.5962(7)
O23_2 O 0.84142(11) 0.73892(18) 0.9038(7)
O24 O 0.2276(4) 0.72461(12) 0.2500
O4_3 O 0.2724(4) 0.77539(12) 0.7500
O18_3 O 0.2792(3) 0.69856(8) 0.9032(8)
O20_3 O 0.2792(3) 0.69856(8) 0.5968(8)
O21_3 O 0.15858(11) 0.73892(18) 0.9038(7)
O23_3 O 0.15858(11) 0.73892(18) 0.5962(7)
O4_4 O 0.7276(4) 0.22461(12) 0.2500
O18_4 O 0.7208(3) 0.30144(8) 0.4032(8)
O20_4 O 0.7208(3) 0.30144(8) 0.0968(8)
O21_4 O 0.84142(11) 0.26108(18) 0.4038(7)
O23_4 O 0.84142(11) 0.26108(18) 0.0962(7)
O24_2 O 0.7724(4) 0.27539(12) 0.7500
H8_3 H 0.0526 0.7365 0.0243
C13_3 C 0.1329(5) 0.7377(3) 0.7500
C14_3 C 0.0316(3) 0.7362(3) 0.5873(11)
H7_3 H 0.0526 0.7365 0.4757
C15_3 C 0.0636(5) 0.7356(3) 0.7500
C16_3 C 0.0316(3) 0.7362(3) 0.9127(11)
H4_3 H 0.6737 0.6442 0.0232
H5_3 H 0.6213 0.5909 0.0256
H6_3 H 0.9474 0.7365 0.0243
H11_3 H 0.3263 0.6442 0.0232
H12_3 H 0.3787 0.5909 0.0256
In9_9 In 0.5000 0.5000 0.0000
In2_5 In 0.5000 0.5000 0.5000
O1_3 O 0.5648(3) 0.53891(14) 0.5954(8)
O5_3 O 0.5000 0.47466(6) 0.7500
C1_3 C 0.8671(5) 0.7377(3) 0.7500
C2_3 C 0.5790(5) 0.5516(3) 0.7500
C3_3 C 0.6151(5) 0.5858(2) 0.7500
C4_3 C 0.9684(3) 0.7362(3) 0.5873(11)
H1_3 H 0.9474 0.7365 0.4757
C5_3 C 0.6627(5) 0.6336(2) 0.5878(11)
H2_3 H 0.6737 0.6442 0.4768
C6_3 C 0.7082(5) 0.6858(3) 0.7500
C7_3 C 0.6313(5) 0.6016(2) 0.5860(11)
H3_3 H 0.6213 0.5909 0.4744
C8_3 C 0.6776(5) 0.6496(3) 0.7500
C9_3 C 0.9364(5) 0.7356(3) 0.7500
O6_2 O 0.5648(3) 0.53891(14) 0.9046(8)
C10_3 C 0.6627(5) 0.6336(2) 0.9122(11)
C11_3 C 0.6313(5) 0.6016(2) 0.9140(11)
C12_3 C 0.9684(3) 0.7362(3) 0.9127(11)
O11_3 O 0.4352(3) 0.53891(14) 0.5954(8)
C17_3 C 0.4210(5) 0.5516(3) 0.7500
C18_3 C 0.3849(5) 0.5858(2) 0.7500
C19_3 C 0.3373(5) 0.6336(2) 0.5878(11)
H9_3 H 0.3263 0.6442 0.4768
C20_3 C 0.2918(5) 0.6858(3) 0.7500
C21_3 C 0.3687(5) 0.6016(2) 0.5860(11)
H10_3 H 0.3787 0.5909 0.4744
C22_3 C 0.3224(5) 0.6496(3) 0.7500
O13_2 O 0.4352(3) 0.53891(14) 0.9046(8)
C23_3 C 0.3373(5) 0.6336(2) 0.9122(11)
C24_3 C 0.3687(5) 0.6016(2) 0.9140(11)
In9_10 In 0.5000 0.5000 1.0000
O16_2 O 0.5648(3) 0.46109(14) 0.4046(8)
O17_2 O 0.4352(3) 0.46109(14) 0.4046(8)
O25_3 O 0.5000 0.52534(6) 0.2500
O1_4 O 0.4352(3) 0.46109(14) 0.0954(8)
C1_4 C 0.1329(5) 0.2623(3) 0.2500
C2_4 C 0.4210(5) 0.4484(3) 0.2500
C3_4 C 0.3849(5) 0.4142(2) 0.2500
C4_4 C 0.0316(3) 0.2638(3) 0.0873(11)
C5_4 C 0.3373(5) 0.3664(2) 0.0878(11)
C6_4 C 0.2918(5) 0.3142(3) 0.2500
C7_4 C 0.3687(5) 0.3984(2) 0.0860(11)
C8_4 C 0.3224(5) 0.3504(3) 0.2500
C9_4 C 0.0636(5) 0.2644(3) 0.2500
C10_4 C 0.3373(5) 0.3664(2) 0.4122(11)
H4_4 H 0.3263 0.3558 0.5232
C11_4 C 0.3687(5) 0.3984(2) 0.4140(11)
H5_4 H 0.3787 0.4091 0.5256
C12_4 C 0.0316(3) 0.2638(3) 0.4127(11)
H6_4 H 0.0526 0.2635 0.5243
O11_4 O 0.5648(3) 0.46109(14) 0.0954(8)
C17_4 C 0.5790(5) 0.4484(3) 0.2500
C18_4 C 0.6151(5) 0.4142(2) 0.2500
C19_4 C 0.6627(5) 0.3664(2) 0.0878(11)
C20_4 C 0.7082(5) 0.3142(3) 0.2500
C21_4 C 0.6313(5) 0.3984(2) 0.0860(11)
C22_4 C 0.6776(5) 0.3504(3) 0.2500
C23_4 C 0.6627(5) 0.3664(2) 0.4122(11)
H11_4 H 0.6737 0.3558 0.5232
C24_4 C 0.6313(5) 0.3984(2) 0.4140(11)
H12_4 H 0.6213 0.4091 0.5256
H1_4 H 0.0526 0.2635 0.9757
H2_4 H 0.3263 0.3558 0.9768
H3_4 H 0.3787 0.4091 0.9744
H9_4 H 0.6737 0.3558 0.9768
H10_4 H 0.6213 0.4091 0.9744
C13_4 C 0.8671(5) 0.2623(3) 0.2500
C14_4 C 0.9684(3) 0.2638(3) 0.0873(11)
C15_4 C 0.9364(5) 0.2644(3) 0.2500
C16_4 C 0.9684(3) 0.2638(3) 0.4127(11)
H8_4 H 0.9474 0.2635 0.5243
H7_4 H 0.9474 0.2635 0.9757
loop_
_geom_bond_atom_site_label_1
_geom_bond_atom_site_label_2
_geom_bond_site_symmetry_1
_geom_bond_site_symmetry_2
In1 O2 1_555 1_555
In2 O1 1_555 1_555
O1 C2 1_555 1_555
O2 C6 1_555 1_555
O3 In1 1_555 1_555
O4 In1 1_555 1_555
C1 O3 1_555 1_555
C2 C3 1_555 1_555
C3 C7 1_555 1_555
C4 H1 1_555 1_555
C5 H2 1_555 1_555
C6 C8 1_555 1_555
C7 C5 1_555 1_555
H3 C7 1_555 1_555
C8 C5 1_555 1_555
C9 C1 1_555 1_555
O6 C2 1_555 1_555
O7 C6 1_555 1_555
C10 C8 1_555 1_555
C11 C3 1_555 1_555
O8 C1 1_555 1_555
C12 C9 1_555 1_555
O9 C13 1_555 1_555
C13 C15 1_555 1_555
C14 C4 1_555 1_555
H7 C14 1_555 1_555
C15 C14 1_555 1_555
O10 C13 1_555 1_555
C16 C12 1_555 1_555
In6 O4 1_555 1_555
O15 In1 1_555 1_555
In5_2 O10 1_555 1_555
In6_2 O7 1_555 1_555
In8 O9 1_555 1_555
O18 In6 1_555 1_555
O20 In1 1_555 1_555
O21 In6 1_555 1_555
O23 In1 1_555 1_555
O25 In2 1_555 1_555
C4 C9 1_555 1_555
O6 In9_2 1_555 1_555
C10 C11 1_555 1_555
O8 In6_2 1_555 1_555
C15 C16 1_555 1_555
O15 In6_2 1_555 1_555
O5 In2_2 1_555 1_555
In9_4 O5 1_555 1_555
O16 In2_2 1_555 1_555
O11 In2_3 1_555 1_555
O12 C20 1_555 1_555
C17 O11 1_555 1_555
C18 C17 1_555 1_555
C19 H9 1_555 1_555
C20 C22 1_555 1_555
C21 C18 1_555 1_555
H10 C21 1_555 1_555
C22 C19 1_555 1_555
O13 C17 1_555 1_555
O14 C20 1_555 1_555
C23 C22 1_555 1_555
C24 C18 1_555 1_555
In5_2 O14 1_555 1_555
In8 O12 1_555 1_555
O25_2 In2_3 1_555 1_555
C19 C21 1_555 1_555
O13 In9_6 1_555 1_555
C23 C24 1_555 1_555
O5_2 In2_4 1_555 1_555
In9_8 O5_2 1_555 1_555
O17 In2_4 1_555 1_555
O25 In9 1_555 1_555
O11_2 In9_3 1_555 1_555
O12_2 C20_2 1_555 1_555
C17_2 O11_2 1_555 1_555
C18_2 C17_2 1_555 1_555
C20_2 C22_2 1_555 1_555
C21_2 C18_2 1_555 1_555
C22_2 C19_2 1_555 1_555
O16 C17_2 1_555 1_555
O14_2 C20_2 1_555 1_555
C23_2 C22_2 1_555 1_555
H11_2 C23_2 1_555 1_555
C24_2 C18_2 1_555 1_555
H12_2 C24_2 1_555 1_555
In4 O14_2 1_555 1_555
In7 O12_2 1_555 1_555
C19_2 C21_2 1_555 1_555
C23_2 C24_2 1_555 1_555
O25_2 In9_5 1_555 1_555
In1_2 O2_2 1_555 1_555
In9_7 O1_2 1_555 1_555
O1_2 C2_2 1_555 1_555
O2_2 C6_2 1_555 1_555
O3_2 In1_2 1_555 1_555
C1_2 O3_2 1_555 1_555
C2_2 C3_2 1_555 1_555
C3_2 C7_2 1_555 1_555
C6_2 C8_2 1_555 1_555
C7_2 C5_2 1_555 1_555
C8_2 C5_2 1_555 1_555
C9_2 C1_2 1_555 1_555
O17 C2_2 1_555 1_555
O7_2 C6_2 1_555 1_555
C10_2 C8_2 1_555 1_555
H4_2 C10_2 1_555 1_555
C11_2 C3_2 1_555 1_555
H5_2 C11_2 1_555 1_555
O8_2 C1_2 1_555 1_555
C12_2 C9_2 1_555 1_555
H6_2 C12_2 1_555 1_555
O9_2 C13_2 1_555 1_555
C13_2 C15_2 1_555 1_555
C14_2 C4_2 1_555 1_555
C15_2 C14_2 1_555 1_555
O10_2 C13_2 1_555 1_555
C16_2 C12_2 1_555 1_555
H8_2 C16_2 1_555 1_555
O15_2 In1_2 1_555 1_555
In4 O10_2 1_555 1_555
In6_3 O7_2 1_555 1_555
In7 O9_2 1_555 1_555
C4_2 C9_2 1_555 1_555
C10_2 C11_2 1_555 1_555
O8_2 In6_3 1_555 1_555
C15_2 C16_2 1_555 1_555
O15_2 In6_3 1_555 1_555
O4_2 In1_3 1_555 1_555
In6_3 O4_2 1_555 1_555
O18_2 In6_3 1_555 1_555
O20_2 In1_3 1_555 1_555
O21_2 In6_3 1_555 1_555
O23_2 In1_3 1_555 1_555
O24 In7 1_555 1_555
O4_3 In4 1_555 1_555
In7_2 O4_3 1_555 1_555
O24 In4 1_555 1_555
O18_3 In7_2 1_555 1_555
O20_3 In4 1_555 1_555
O21_3 In7_2 1_555 1_555
O23_3 In4 1_555 1_555
O4_4 In5 1_555 1_555
In8 O4_4 1_555 1_555
O18_4 In8 1_555 1_555
O20_4 In5 1_555 1_555
O21_4 In8 1_555 1_555
O23_4 In5 1_555 1_555
O24_2 In8 1_555 1_555
O24_2 In5_2 1_555 1_555
O23_3 C13_3 1_555 1_555
C13_3 C15_3 1_555 1_555
H7_3 C14_3 1_555 1_555
C15_3 C14_3 1_555 1_555
O21_3 C13_3 1_555 1_555
C15_3 C16_3 1_555 1_555
In2_5 O1_3 1_555 1_555
O1_3 C2_3 1_555 1_555
O18_2 C6_3 1_555 1_555
O5_3 In2_5 1_555 1_555
C1_3 O21_2 1_555 1_555
C2_3 C3_3 1_555 1_555
C3_3 C7_3 1_555 1_555
C4_3 H1_3 1_555 1_555
C5_3 H2_3 1_555 1_555
C6_3 C8_3 1_555 1_555
C7_3 C5_3 1_555 1_555
H3_3 C7_3 1_555 1_555
C8_3 C5_3 1_555 1_555
C9_3 C1_3 1_555 1_555
O6_2 C2_3 1_555 1_555
O20_2 C6_3 1_555 1_555
C10_3 C8_3 1_555 1_555
C11_3 C3_3 1_555 1_555
O23_2 C1_3 1_555 1_555
C12_3 C9_3 1_555 1_555
O11_3 In2_5 1_555 1_555
O20_3 C20_3 1_555 1_555
C17_3 O11_3 1_555 1_555
C18_3 C17_3 1_555 1_555
C19_3 H9_3 1_555 1_555
C20_3 C22_3 1_555 1_555
C21_3 C18_3 1_555 1_555
H10_3 C21_3 1_555 1_555
C22_3 C19_3 1_555 1_555
O13_2 C17_3 1_555 1_555
O18_3 C20_3 1_555 1_555
C23_3 C22_3 1_555 1_555
C24_3 C18_3 1_555 1_555
In9_10 O5_3 1_555 1_555
O16_2 In2_5 1_555 1_555
O17_2 In2_5 1_555 1_555
O25_3 In2_5 1_555 1_555
C4_3 C9_3 1_555 1_555
O6_2 In9_10 1_555 1_555
C10_3 C11_3 1_555 1_555
C19_3 C21_3 1_555 1_555
O13_2 In9_10 1_555 1_555
C23_3 C24_3 1_555 1_555
In9_9 O1_4 1_555 1_555
O1_4 C2_4 1_555 1_555
O18 C6_4 1_555 1_555
O25_3 In9_9 1_555 1_555
C1_4 O21 1_555 1_555
C2_4 C3_4 1_555 1_555
C3_4 C7_4 1_555 1_555
C6_4 C8_4 1_555 1_555
C7_4 C5_4 1_555 1_555
C8_4 C5_4 1_555 1_555
C9_4 C1_4 1_555 1_555
O17_2 C2_4 1_555 1_555
O20 C6_4 1_555 1_555
C10_4 C8_4 1_555 1_555
H4_4 C10_4 1_555 1_555
C11_4 C3_4 1_555 1_555
H5_4 C11_4 1_555 1_555
O23 C1_4 1_555 1_555
C12_4 C9_4 1_555 1_555
H6_4 C12_4 1_555 1_555
O11_4 In9_9 1_555 1_555
O20_4 C20_4 1_555 1_555
C17_4 O11_4 1_555 1_555
C18_4 C17_4 1_555 1_555
C20_4 C22_4 1_555 1_555
C21_4 C18_4 1_555 1_555
C22_4 C19_4 1_555 1_555
O16_2 C17_4 1_555 1_555
O18_4 C20_4 1_555 1_555
C23_4 C22_4 1_555 1_555
H11_4 C23_4 1_555 1_555
C24_4 C18_4 1_555 1_555
H12_4 C24_4 1_555 1_555
C4_4 C9_4 1_555 1_555
C10_4 C11_4 1_555 1_555
C19_4 C21_4 1_555 1_555
C23_4 C24_4 1_555 1_555
O23_4 C13_4 1_555 1_555
C13_4 C15_4 1_555 1_555
C15_4 C14_4 1_555 1_555
O21_4 C13_4 1_555 1_555
H8_4 C16_4 1_555 1_555
C15_4 C16_4 1_555 1_555

#END
