
###############################################################################
#
# This file contains modified crystal structure data generated from the
# MOF subset of the Cambridge Structural Database (CSD) v543 
# hosted by the Cambridge Crystallographic Data Centre (CCDC).
#
# This work is licensed under the Creative Commons
# Attribution-NonCommercial-ShareAlike 4.0 International License.
# To view a copy of this license, visit
# http://creativecommons.org/licenses/by-nc-sa/4.0/
# or send a letter to
# Creative Commons, PO Box 1866, Mountain View, CA 94042, USA.
#
# CIF created using the CSD Python API on 29 September 2022
# The structure has been converted into the P1 space group
# The structure has a 3D framework
# The original CSD entry VIFSIO is in the monoclinic crystal system
# The framework has been calculated to contain at least 10.0% void space
# The void calculation uses a probe of radius 1.32A, grid spacing 0.4
#
###############################################################################

data_VIFSIO
_chemical_formula_moiety         '(C80 H76 Co6 N16 O18)n'
_symmetry_cell_setting           triclinic
_symmetry_space_group_name_H-M   'P 1'
_symmetry_Int_Tables_number      1
_space_group_name_Hall           'P 1'
loop_
_symmetry_equiv_pos_site_id
_symmetry_equiv_pos_as_xyz
1 x,y,z
_cell_length_a                   9.2407(14)
_cell_length_b                   15.876(2)
_cell_length_c                   15.9418(18)
_cell_angle_alpha                90
_cell_angle_beta                 110.773(7)
_cell_angle_gamma                90
_cell_volume                     2186.71
loop_
_atom_site_label
_atom_site_type_symbol
_atom_site_fract_x
_atom_site_fract_y
_atom_site_fract_z
Co3 Co 0.0000 0.57187(6) 0.2500
Co2 Co 0.0000 0.01892(6) 0.7500
N10 N 0.1675(6) 0.0994(3) 0.8305(3)
O11 O 0.1093(6) 0.9138(3) 0.8421(3)
O12 O 0.0995(6) 0.9746(3) 0.6582(3)
N5 N 0.8296(6) 0.4907(3) 0.1789(3)
N6 N 0.6659(6) 0.4161(3) 0.0704(3)
C21 C 0.7708(7) 0.4776(4) 0.0922(4)
H20 H 0.7990 0.5078 0.0504
C22 C 0.6561(10) 0.3923(5) 0.1492(5)
H21 H 0.5890 0.3516 0.1562
C23 C 0.7561(10) 0.4356(5) 0.2153(5)
H22 H 0.7731 0.4294 0.2761
H25 H 0.4952 0.2839 0.0280
Co3_2 Co 1.0000 0.57187(6) 0.2500
Co2_2 Co 1.0000 0.01892(6) 0.7500
O5 O 0.5000 0.4380(3) 0.7500
N1 N 0.1704(6) 0.4907(3) 0.3211(3)
N2 N 0.3341(6) 0.4161(3) 0.4296(3)
N3 N 0.6657(6) 0.2016(3) 0.6149(3)
N4 N 0.8325(6) 0.0994(3) 0.6695(3)
C2 C 0.0083(9) 0.8557(4) 0.5601(5)
H1 H 0.0673 0.8818 0.5267
C3 C 0.0902(11) 0.7778(5) 0.6019(6)
H2 H 0.0369 0.7526 0.6382
H3 H 0.1941 0.7922 0.6413
C4 C 0.1001(11) 0.7131(5) 0.5327(6)
H4 H 0.1666 0.7347 0.5023
H5 H 0.1459 0.6614 0.5632
C9 C 0.2292(7) 0.4776(4) 0.4078(4)
H11 H 0.2010 0.5078 0.4496
C10 C 0.3439(10) 0.3923(5) 0.3508(5)
H12 H 0.4110 0.3516 0.3438
C11 C 0.2439(10) 0.4356(5) 0.2847(5)
H13 H 0.2269 0.4294 0.2239
C12 C 0.4215(7) 0.3847(4) 0.5168(4)
C13 C 0.4193(7) 0.4266(4) 0.5923(4)
H14 H 0.3625 0.4759 0.5870
C14 C 0.5029(7) 0.3938(4) 0.6761(4)
C15 C 0.5891(7) 0.3206(4) 0.6843(4)
H15 H 0.6467 0.2993 0.7406
C16 C 0.5877(7) 0.2803(4) 0.6081(4)
C17 C 0.5044(7) 0.3117(4) 0.5233(4)
H16 H 0.5048 0.2839 0.4720
C18 C 0.6200(9) 0.1353(4) 0.5569(5)
H17 H 0.5340 0.1336 0.5042
C19 C 0.7212(9) 0.0739(4) 0.5899(5)
H18 H 0.7177 0.0214 0.5634
C20 C 0.7939(7) 0.1763(4) 0.6813(4)
H19 H 0.8489 0.2096 0.7301
N7 N 0.3343(6) 0.2016(3) 0.8851(3)
C24 C 0.5785(7) 0.3847(4) 0.9832(4)
C25 C 0.5807(7) 0.4266(4) 0.9077(4)
H23 H 0.6375 0.4759 0.9130
C26 C 0.4971(7) 0.3938(4) 0.8239(4)
C27 C 0.4109(7) 0.3206(4) 0.8157(4)
H24 H 0.3533 0.2993 0.7594
C28 C 0.4123(7) 0.2803(4) 0.8919(4)
C29 C 0.4956(7) 0.3117(4) 0.9767(4)
C30 C 0.3800(9) 0.1353(4) 0.9431(5)
H26 H 0.4660 0.1336 0.9958
C31 C 0.2788(9) 0.0739(4) 0.9101(5)
H27 H 0.2823 0.0214 0.9366
C32 C 0.2061(7) 0.1763(4) 0.8187(4)
H28 H 0.1511 0.2096 0.7699
O8 O 0.0835(11) 0.5551(8) 0.0978(15)
O9 O 0.028(2) 0.6594(6) 0.1699(6)
C37 C 0.0577(9) 0.6942(5) 0.0356(5)
H34 H 0.1184 0.6667 0.0039
C38 C 0.1399(11) 0.7733(5) 0.0760(5)
H35 H 0.2437 0.7596 0.1160
H36 H 0.0860 0.7997 0.1115
C39 C 0.1498(10) 0.8358(6) 0.0054(5)
H37 H 0.1992 0.8872 0.0346
C40 C 0.0488(12) 0.6339(6) 0.1072(7)
C33 C 0.0011(9) 0.9185(4) 0.8711(5)
H38 H 0.2125 0.8120 0.9737
O10 O 0.8907(6) 0.9138(3) 0.6579(3)
O13 O 0.9005(6) 0.9746(3) 0.8418(3)
O3 O 0.9165(11) 0.5551(8) 0.4022(15)
O4 O 0.972(2) 0.6594(6) 0.3301(6)
C1 C 0.9989(9) 0.9185(4) 0.6289(5)
C5 C 0.9423(9) 0.6942(5) 0.4644(5)
H6 H 0.8816 0.6667 0.4961
C6 C 0.8601(11) 0.7733(5) 0.4240(5)
H7 H 0.7563 0.7596 0.3840
H8 H 0.9140 0.7997 0.3885
C7 C 0.8502(10) 0.8358(6) 0.4946(5)
H9 H 0.8008 0.8872 0.4654
H10 H 0.7875 0.8120 0.5263
C8 C 0.9512(12) 0.6339(6) 0.3928(7)
C34 C 0.9917(9) 0.8557(4) 0.9399(5)
H29 H 0.9327 0.8818 0.9733
C35 C 0.9098(11) 0.7778(5) 0.8981(6)
H30 H 0.9631 0.7526 0.8618
H31 H 0.8059 0.7922 0.8587
C36 C 0.8999(11) 0.7131(5) 0.9673(6)
H32 H 0.8334 0.7347 0.9977
H33 H 0.8541 0.6614 0.9368
O7 O 0.0995(6) 0.0254(3) 0.1582(3)
C34_2 C 0.0083(9) 0.1443(4) 0.0601(5)
H29_2 H 0.0673 0.1182 0.0267
C35_2 C 0.0902(11) 0.2222(5) 0.1019(6)
H30_2 H 0.0369 0.2474 0.1382
H31_2 H 0.1941 0.2078 0.1413
C36_2 C 0.1001(11) 0.2869(5) 0.0327(6)
H32_2 H 0.1666 0.2653 0.0023
H33_2 H 0.1459 0.3386 0.0632
Co1 Co -0.0000 0.42813(6) 0.7500
O1 O 0.1093(6) 0.0862(3) 0.3421(3)
O3_2 O 0.0835(11) 0.4449(8) 0.5978(15)
O4_2 O 0.028(2) 0.3406(6) 0.6699(6)
C1_2 C 0.0011(9) 0.0815(4) 0.3711(5)
C5_2 C 0.0577(9) 0.3058(5) 0.5356(5)
H6_2 H 0.1184 0.3333 0.5039
C6_2 C 0.1399(11) 0.2267(5) 0.5760(5)
H7_2 H 0.2437 0.2404 0.6160
H8_2 H 0.0860 0.2003 0.6115
C7_2 C 0.1498(10) 0.1642(6) 0.5054(5)
H9_2 H 0.1992 0.1128 0.5346
H10_2 H 0.2125 0.1880 0.4737
C8_2 C 0.0488(12) 0.3661(6) 0.6072(7)
Co4 Co -0.0000 0.98108(6) 0.2500
N9 N 0.1704(6) 0.5093(3) 0.8211(3)
O6 O 0.8907(6) 0.0862(3) 0.1579(3)
C33_2 C 0.9989(9) 0.0815(4) 0.1289(5)
H38_2 H 0.7875 0.1880 0.0263
Co1_2 Co 1.0000 0.42813(6) 0.7500
O2 O 0.9005(6) 0.0254(3) 0.3418(3)
O5_2 O 0.5000 0.5620(3) 0.2500
N1_2 N 0.8296(6) 0.5093(3) 0.6789(3)
N2_2 N 0.6659(6) 0.5839(3) 0.5704(3)
N3_2 N 0.3343(6) 0.7984(3) 0.3851(3)
N4_2 N 0.1675(6) 0.9006(3) 0.3305(3)
C2_2 C 0.9917(9) 0.1443(4) 0.4399(5)
H1_2 H 0.9327 0.1182 0.4733
C3_2 C 0.9098(11) 0.2222(5) 0.3981(6)
H2_2 H 0.9631 0.2474 0.3618
H3_2 H 0.8059 0.2078 0.3587
C4_2 C 0.8999(11) 0.2869(5) 0.4673(6)
H4_2 H 0.8334 0.2653 0.4977
H5_2 H 0.8541 0.3386 0.4368
C9_2 C 0.7708(7) 0.5224(4) 0.5922(4)
H11_2 H 0.7990 0.4922 0.5504
C10_2 C 0.6561(10) 0.6077(5) 0.6492(5)
H12_2 H 0.5890 0.6484 0.6562
C11_2 C 0.7561(10) 0.5644(5) 0.7153(5)
H13_2 H 0.7731 0.5706 0.7761
C12_2 C 0.5785(7) 0.6153(4) 0.4832(4)
C13_2 C 0.5807(7) 0.5734(4) 0.4077(4)
H14_2 H 0.6375 0.5241 0.4130
C14_2 C 0.4971(7) 0.6062(4) 0.3239(4)
C15_2 C 0.4109(7) 0.6794(4) 0.3157(4)
H15_2 H 0.3533 0.7007 0.2594
C16_2 C 0.4123(7) 0.7197(4) 0.3919(4)
C17_2 C 0.4956(7) 0.6883(4) 0.4767(4)
H16_2 H 0.4952 0.7161 0.5280
C18_2 C 0.3800(9) 0.8647(4) 0.4431(5)
H17_2 H 0.4660 0.8664 0.4958
C19_2 C 0.2788(9) 0.9261(4) 0.4101(5)
H18_2 H 0.2823 0.9786 0.4366
C20_2 C 0.2061(7) 0.8237(4) 0.3187(4)
H19_2 H 0.1511 0.7904 0.2699
N7_2 N 0.6657(6) 0.7984(3) 0.1149(3)
N8 N 0.8325(6) 0.9006(3) 0.1695(3)
C24_2 C 0.4215(7) 0.6153(4) 0.0168(4)
C25_2 C 0.4193(7) 0.5734(4) 0.0923(4)
H23_2 H 0.3625 0.5241 0.0870
C26_2 C 0.5029(7) 0.6062(4) 0.1761(4)
C27_2 C 0.5891(7) 0.6794(4) 0.1843(4)
H24_2 H 0.6467 0.7007 0.2406
C28_2 C 0.5877(7) 0.7197(4) 0.1081(4)
C29_2 C 0.5044(7) 0.6883(4) 0.0233(4)
C30_2 C 0.6200(9) 0.8647(4) 0.0569(5)
H26_2 H 0.5340 0.8664 0.0042
C31_2 C 0.7212(9) 0.9261(4) 0.0899(5)
H27_2 H 0.7177 0.9786 0.0634
C32_2 C 0.7939(7) 0.8237(4) 0.1813(4)
H28_2 H 0.8489 0.7904 0.2301
O8_2 O 0.9165(11) 0.4449(8) 0.9022(15)
O9_2 O 0.972(2) 0.3406(6) 0.8301(6)
C37_2 C 0.9423(9) 0.3058(5) 0.9644(5)
H34_2 H 0.8816 0.3333 0.9961
C38_2 C 0.8601(11) 0.2267(5) 0.9240(5)
H35_2 H 0.7563 0.2404 0.8840
H36_2 H 0.9140 0.2003 0.8885
C39_2 C 0.8502(10) 0.1642(6) 0.9946(5)
H37_2 H 0.8008 0.1128 0.9654
C40_2 C 0.9512(12) 0.3661(6) 0.8928(7)
Co4_2 Co 1.0000 0.98108(6) 0.2500
N6_2 N 0.3341(6) 0.5839(3) 0.9296(3)
C21_2 C 0.2292(7) 0.5224(4) 0.9078(4)
H20_2 H 0.2010 0.4922 0.9496
C22_2 C 0.3439(10) 0.6077(5) 0.8508(5)
H21_2 H 0.4110 0.6484 0.8438
C23_2 C 0.2439(10) 0.5644(5) 0.7847(5)
H22_2 H 0.2269 0.5706 0.7239
H25_2 H 0.5048 0.7161 0.9720
loop_
_geom_bond_atom_site_label_1
_geom_bond_atom_site_label_2
_geom_bond_site_symmetry_1
_geom_bond_site_symmetry_2
N10 Co2 1_555 1_555
N5 C21 1_555 1_555
N6 C21 1_555 1_555
C21 H20 1_555 1_555
C22 N6 1_555 1_555
H21 C22 1_555 1_555
C23 N5 1_555 1_555
H22 C23 1_555 1_555
Co3_2 N5 1_555 1_555
C22 C23 1_555 1_555
Co2_2 N4 1_555 1_555
O5 C14 1_555 1_555
N1 Co3 1_555 1_555
N2 C9 1_555 1_555
N3 C16 1_555 1_555
N4 C19 1_555 1_555
C2 H1 1_555 1_555
C3 C2 1_555 1_555
H2 C3 1_555 1_555
H3 C3 1_555 1_555
C4 C3 1_555 1_555
H4 C4 1_555 1_555
H5 C4 1_555 1_555
C9 N1 1_555 1_555
H11 C9 1_555 1_555
C10 N2 1_555 1_555
H12 C10 1_555 1_555
C11 N1 1_555 1_555
H13 C11 1_555 1_555
C12 N2 1_555 1_555
C13 C12 1_555 1_555
H14 C13 1_555 1_555
C14 C13 1_555 1_555
C15 C14 1_555 1_555
H15 C15 1_555 1_555
C16 C15 1_555 1_555
C17 C12 1_555 1_555
H16 C17 1_555 1_555
C18 N3 1_555 1_555
H17 C18 1_555 1_555
C19 C18 1_555 1_555
H18 C19 1_555 1_555
C20 N3 1_555 1_555
H19 C20 1_555 1_555
N7 C28 1_555 1_555
N10 C31 1_555 1_555
C25 C24 1_555 1_555
H23 C25 1_555 1_555
C26 O5 1_555 1_555
C27 C26 1_555 1_555
H24 C27 1_555 1_555
C28 C27 1_555 1_555
C29 C24 1_555 1_555
C30 N7 1_555 1_555
H26 C30 1_555 1_555
C31 C30 1_555 1_555
H27 C31 1_555 1_555
C32 N7 1_555 1_555
H28 C32 1_555 1_555
O8 C40 1_555 1_555
O9 Co3 1_555 1_555
H34 C37 1_555 1_555
C38 C37 1_555 1_555
H35 C38 1_555 1_555
H36 C38 1_555 1_555
H37 C39 1_555 1_555
C40 O9 1_555 1_555
N4 C20 1_555 1_555
C10 C11 1_555 1_555
C16 C17 1_555 1_555
N10 C32 1_555 1_555
C25 C26 1_555 1_555
C28 C29 1_555 1_555
C37 C40 1_555 1_555
C38 C39 1_555 1_555
O11 C33 1_555 1_555
Co3_2 O4 1_555 1_555
O10 C1 1_555 1_555
O3 C8 1_555 1_555
O4 C8 1_555 1_555
H6 C5 1_555 1_555
C6 C5 1_555 1_555
H7 C6 1_555 1_555
H8 C6 1_555 1_555
H9 C7 1_555 1_555
H10 C7 1_555 1_555
C8 C5 1_555 1_555
C6 C7 1_555 1_555
C34 H29 1_555 1_555
C35 C34 1_555 1_555
H30 C35 1_555 1_555
H31 C35 1_555 1_555
C36 C35 1_555 1_555
H32 C36 1_555 1_555
H33 C36 1_555 1_555
C34_2 H29_2 1_555 1_555
C35_2 C34_2 1_555 1_555
H30_2 C35_2 1_555 1_555
H31_2 C35_2 1_555 1_555
C36_2 C35_2 1_555 1_555
H32_2 C36_2 1_555 1_555
H33_2 C36_2 1_555 1_555
Co1 O4_2 1_555 1_555
O1 C1_2 1_555 1_555
O3_2 C8_2 1_555 1_555
O4_2 C8_2 1_555 1_555
H6_2 C5_2 1_555 1_555
C6_2 C5_2 1_555 1_555
H7_2 C6_2 1_555 1_555
H8_2 C6_2 1_555 1_555
H9_2 C7_2 1_555 1_555
H10_2 C7_2 1_555 1_555
C8_2 C5_2 1_555 1_555
N9 Co1 1_555 1_555
C6_2 C7_2 1_555 1_555
O6 C33_2 1_555 1_555
Co4 N4_2 1_555 1_555
O5_2 C14_2 1_555 1_555
N1_2 Co1_2 1_555 1_555
N2_2 C9_2 1_555 1_555
N3_2 C16_2 1_555 1_555
N4_2 C19_2 1_555 1_555
C2_2 H1_2 1_555 1_555
C3_2 C2_2 1_555 1_555
H2_2 C3_2 1_555 1_555
H3_2 C3_2 1_555 1_555
C4_2 C3_2 1_555 1_555
H4_2 C4_2 1_555 1_555
H5_2 C4_2 1_555 1_555
C9_2 N1_2 1_555 1_555
H11_2 C9_2 1_555 1_555
C10_2 N2_2 1_555 1_555
H12_2 C10_2 1_555 1_555
C11_2 N1_2 1_555 1_555
H13_2 C11_2 1_555 1_555
C12_2 N2_2 1_555 1_555
C13_2 C12_2 1_555 1_555
H14_2 C13_2 1_555 1_555
C14_2 C13_2 1_555 1_555
C15_2 C14_2 1_555 1_555
H15_2 C15_2 1_555 1_555
C16_2 C15_2 1_555 1_555
C17_2 C12_2 1_555 1_555
H16_2 C17_2 1_555 1_555
C18_2 N3_2 1_555 1_555
H17_2 C18_2 1_555 1_555
C19_2 C18_2 1_555 1_555
H18_2 C19_2 1_555 1_555
C20_2 N3_2 1_555 1_555
H19_2 C20_2 1_555 1_555
N7_2 C28_2 1_555 1_555
N8 C31_2 1_555 1_555
C25_2 C24_2 1_555 1_555
H23_2 C25_2 1_555 1_555
C26_2 O5_2 1_555 1_555
C27_2 C26_2 1_555 1_555
H24_2 C27_2 1_555 1_555
C28_2 C27_2 1_555 1_555
C29_2 C24_2 1_555 1_555
C30_2 N7_2 1_555 1_555
H26_2 C30_2 1_555 1_555
C31_2 C30_2 1_555 1_555
H27_2 C31_2 1_555 1_555
C32_2 N7_2 1_555 1_555
H28_2 C32_2 1_555 1_555
O8_2 C40_2 1_555 1_555
O9_2 Co1_2 1_555 1_555
H34_2 C37_2 1_555 1_555
C38_2 C37_2 1_555 1_555
H35_2 C38_2 1_555 1_555
H36_2 C38_2 1_555 1_555
H37_2 C39_2 1_555 1_555
C40_2 O9_2 1_555 1_555
Co4_2 N8 1_555 1_555
N4_2 C20_2 1_555 1_555
C10_2 C11_2 1_555 1_555
C16_2 C17_2 1_555 1_555
N8 C32_2 1_555 1_555
C25_2 C26_2 1_555 1_555
C28_2 C29_2 1_555 1_555
C37_2 C40_2 1_555 1_555
C38_2 C39_2 1_555 1_555
N9 C21_2 1_555 1_555
N6_2 C21_2 1_555 1_555
C21_2 H20_2 1_555 1_555
C22_2 N6_2 1_555 1_555
H21_2 C22_2 1_555 1_555
C23_2 N9 1_555 1_555
H22_2 C23_2 1_555 1_555
C22_2 C23_2 1_555 1_555

#END
