
###############################################################################
#
# This file contains modified crystal structure data generated from the
# MOF subset of the Cambridge Structural Database (CSD) v543 
# hosted by the Cambridge Crystallographic Data Centre (CCDC).
#
# This work is licensed under the Creative Commons
# Attribution-NonCommercial-ShareAlike 4.0 International License.
# To view a copy of this license, visit
# http://creativecommons.org/licenses/by-nc-sa/4.0/
# or send a letter to
# Creative Commons, PO Box 1866, Mountain View, CA 94042, USA.
#
# CIF created using the CSD Python API on 29 September 2022
# The structure has been converted into the P1 space group
# The structure has a 3D framework
# The original CSD entry VIGXOA is in the triclinic crystal system
# The framework has been calculated to contain at least 10.0% void space
# The void calculation uses a probe of radius 1.32A, grid spacing 0.4
#
###############################################################################

data_VIGXOA
_chemical_formula_moiety         '(C78 H80 Cu4 N12 O22)n'
_symmetry_cell_setting           triclinic
_symmetry_space_group_name_H-M   'P 1'
_symmetry_Int_Tables_number      1
_space_group_name_Hall           'P 1'
loop_
_symmetry_equiv_pos_site_id
_symmetry_equiv_pos_as_xyz
1 x,y,z
_cell_length_a                   10.3498(7)
_cell_length_b                   10.8338(8)
_cell_length_c                   20.2124(15)
_cell_angle_alpha                84.1010(10)
_cell_angle_beta                 78.4860(10)
_cell_angle_gamma                76.1720(10)
_cell_volume                     2152.78
loop_
_atom_site_label
_atom_site_type_symbol
_atom_site_fract_x
_atom_site_fract_y
_atom_site_fract_z
H37 H 0.0349 0.1262 0.4980
O14 O 0.11927(16) 0.35967(16) 0.42793(8)
Cu1 Cu 0.93949(3) 0.36390(3) 0.410112(13)
O2 O 0.6820(2) 0.19500(18) 0.74295(10)
O4 O 0.8499(2) 0.55906(18) 0.45296(10)
H1 H 0.867(3) 0.575(3) 0.4890(11)
H2 H 0.843(3) 0.624(2) 0.4272(13)
O5 O 0.17807(18) 0.16575(19) 0.39124(10)
O6 O 0.89410(17) 0.15788(17) 0.34103(10)
O10 O 0.77501(16) 0.33670(15) 0.38703(8)
N6 N 0.88484(19) 0.27866(19) 0.50262(10)
C1 C 0.4225(3) 0.2716(3) 0.32802(13)
H5 H 0.4279 0.1904 0.3081
H6 H 0.3680 0.3412 0.3028
C4 C 0.5784(3) 0.1772(3) 0.43653(14)
H10 H 0.6323 0.1033 0.4594
H11 H 0.5726 0.2538 0.4608
C5 C 0.4358(3) 0.1565(3) 0.44043(15)
H12 H 0.4412 0.0754 0.4204
H13 H 0.3904 0.1513 0.4883
C8 C 0.7264(3) 0.2873(2) 0.60607(14)
H16 H 0.6474 0.3326 0.6336
C9 C 0.5644(3) 0.2943(3) 0.32192(13)
H17 H 0.6092 0.2927 0.2738
H18 H 0.5577 0.3797 0.3375
C12 C 0.6507(2) 0.1942(2) 0.36344(13)
H22 H 0.6703 0.1110 0.3420
C18 C 0.3546(2) 0.2665(2) 0.40224(12)
H29 H 0.3554 0.3474 0.4218
C20 C 0.7969(2) 0.1715(2) 0.62965(12)
C22 C 0.9126(3) 0.1102(2) 0.58823(12)
H31 H 0.9630 0.0300 0.6024
C23 C 0.7713(3) 0.3362(2) 0.54262(14)
H32 H 0.7198 0.4142 0.5264
C29 C 0.1529(2) 0.0949(2) 0.99996(13)
H36 H 0.1722 0.1545 0.9636
C30 C 0.9539(2) 0.1676(2) 0.52572(12)
C32 C 0.7461(3) 0.1216(2) 0.69996(12)
C34 C 0.2089(2) 0.2597(2) 0.40736(11)
H40 H 0.5792 0.0502 0.8154
C36 C 0.7845(2) 0.2293(2) 0.36290(12)
O12 O 0.46034(16) 0.10912(14) 0.95680(8)
N7 N 0.98241(19) 0.46675(18) 0.32009(10)
Cu2 Cu 0.42774(3) 0.94191(2) 0.944977(13)
O3 O 0.3277(2) 0.82626(17) 0.84590(11)
O7 O 0.35546(19) 0.18033(16) 0.87035(9)
O8 O 0.40432(18) 0.77085(15) 0.94197(8)
N4 N 0.6032(2) 0.89533(18) 0.87747(10)
N5 N 0.7781(2) 0.9952(2) 0.71065(10)
H4 H 0.812(3) 0.948(2) 0.6762(11)
C2 C 0.4992(3) 0.5279(2) 0.86546(14)
H7 H 0.5548 0.5315 0.8995
H8 H 0.5417 0.5629 0.8216
C6 C 0.7960(3) 0.7329(3) 0.83943(14)
H14 H 0.8512 0.6510 0.8472
C7 C 0.8284(3) 0.8057(2) 0.78146(13)
H15 H 0.9057 0.7747 0.7485
C10 C 0.2884(3) 0.5531(2) 0.95340(13)
H19 H 0.3394 0.5565 0.9895
H20 H 0.1953 0.6046 0.9664
C14 C 0.4250(2) 0.3326(2) 0.92453(12)
H24 H 0.4793 0.3290 0.9607
C16 C 0.2832(2) 0.4156(2) 0.94670(13)
H25 H 0.2262 0.4133 0.9131
H26 H 0.2410 0.3806 0.9907
C17 C 0.4957(3) 0.3893(2) 0.85899(13)
H27 H 0.4476 0.3850 0.8219
H28 H 0.5894 0.3384 0.8473
C24 C 0.3565(3) 0.6088(2) 0.88666(12)
H33 H 0.3027 0.6054 0.8512
C26 C 0.7465(3) 0.9249(2) 0.77190(12)
C28 C 0.6829(3) 0.7800(2) 0.88613(13)
H35 H 0.6605 0.7288 0.9259
C35 C 0.6346(2) 0.9677(2) 0.82145(12)
C37 C 0.3619(2) 0.7466(2) 0.89076(12)
C38 C 0.4128(2) 0.1989(2) 0.91536(12)
C3 C 0.9334(3) 0.5585(3) 0.21298(14)
H9 H 0.8827 0.5632 0.1781
C31 C 0.9123(3) 0.4795(3) 0.26998(13)
H38 H 0.8448 0.4319 0.2739
O1 O 0.9341(3) 0.3230(2) 0.91189(10)
N1 N 0.7573(2) 0.01581(18) 0.99471(10)
N2 N 0.9310(2) 0.1687(2) 0.84449(10)
H3 H 0.961(3) 0.143(3) 0.8047(10)
C13 C 0.8987(3) 0.3810(3) 0.74179(13)
H23 H 0.8317 0.3332 0.7443
C15 C 0.9712(3) 0.3693(2) 0.79310(12)
C21 C 0.9444(3) 0.2847(2) 0.85596(13)
C25 C 0.9247(3) 0.4635(3) 0.68653(13)
H34 H 0.8741 0.4710 0.6514
C27 C 0.9055(2) 0.0760(2) 0.89706(12)
C33 C 0.7871(2) 0.1000(2) 0.94413(12)
H39 H 0.7245 0.1792 0.9404
C11 C 0.0036(3) 0.0395(2) 0.09840(13)
C19 C 0.0331(3) 0.1252(2) 0.04559(14)
C29_2 C 0.1529(2) 0.0949(2) -0.00004(13)
O1_2 O 0.0659(3) 0.6770(2) 0.08811(10)
N1_2 N 0.2427(2) 0.98419(18) 0.00529(10)
N2_2 N 0.0690(2) 0.8313(2) 0.15551(10)
H3_2 H 0.039(3) 0.857(3) 0.1953(10)
C13_2 C 0.1013(3) 0.6190(3) 0.25821(13)
H23_2 H 0.1683 0.6668 0.2557
C15_2 C 0.0288(3) 0.6307(2) 0.20690(12)
C21_2 C 0.0556(3) 0.7153(2) 0.14404(13)
C25_2 C 0.0753(3) 0.5365(3) 0.31347(13)
H34_2 H 0.1259 0.5290 0.3486
C27_2 C 0.0945(2) 0.9240(2) 0.10294(12)
C33_2 C 0.2129(2) 0.9000(2) 0.05587(12)
H39_2 H 0.2755 0.8208 0.0596
Cu6 Cu 0.57226(3) 0.05809(2) 0.055023(13)
O13 O 0.53966(16) 0.89088(14) 0.04320(8)
N3 N 0.01759(19) 0.53325(18) 0.67991(10)
C3_2 C 0.0666(3) 0.4415(3) 0.78702(14)
H9_2 H 0.1173 0.4368 0.8219
C31_2 C 0.0877(3) 0.5205(3) 0.73002(13)
H38_2 H 0.1552 0.5681 0.7261
Cu3 Cu 0.06051(3) 0.63610(3) 0.589888(13)
O3_2 O 0.6723(2) 0.17374(17) 0.15410(11)
O7_2 O 0.64454(19) 0.81967(16) 0.12965(9)
O8_2 O 0.59568(18) 0.22915(15) 0.05803(8)
N4_2 N 0.3968(2) 0.10467(18) 0.12253(10)
N5_2 N 0.2219(2) 0.0048(2) 0.28935(10)
H4_2 H 0.188(3) 0.052(2) 0.3238(11)
C2_2 C 0.5008(3) 0.4721(2) 0.13454(14)
H7_2 H 0.4452 0.4685 0.1005
H8_2 H 0.4583 0.4371 0.1784
C6_2 C 0.2040(3) 0.2671(3) 0.16057(14)
H14_2 H 0.1488 0.3490 0.1528
C7_2 C 0.1716(3) 0.1943(2) 0.21854(13)
H15_2 H 0.0943 0.2253 0.2515
C10_2 C 0.7116(3) 0.4469(2) 0.04660(13)
H19_2 H 0.6606 0.4435 0.0105
H20_2 H 0.8047 0.3954 0.0336
C14_2 C 0.5750(2) 0.6674(2) 0.07547(12)
H24_2 H 0.5207 0.6710 0.0393
C16_2 C 0.7168(2) 0.5844(2) 0.05330(13)
H25_2 H 0.7738 0.5867 0.0869
H26_2 H 0.7590 0.6194 0.0093
C17_2 C 0.5043(3) 0.6107(2) 0.14101(13)
H27_2 H 0.5524 0.6150 0.1781
H28_2 H 0.4106 0.6616 0.1527
C24_2 C 0.6435(3) 0.3912(2) 0.11334(12)
H33_2 H 0.6973 0.3946 0.1488
C26_2 C 0.2535(3) 0.0751(2) 0.22810(12)
C28_2 C 0.3171(3) 0.2200(2) 0.11387(13)
H35_2 H 0.3395 0.2712 0.0741
C35_2 C 0.3654(2) 0.0323(2) 0.17855(12)
C37_2 C 0.6381(2) 0.2534(2) 0.10924(12)
C38_2 C 0.5872(2) 0.8011(2) 0.08464(12)
O2_2 O 0.3180(2) 0.80500(18) 0.25705(10)
O4_2 O 0.1501(2) 0.44094(18) 0.54704(10)
H1_2 H 0.133(3) 0.425(3) 0.5110(11)
H2_2 H 0.157(3) 0.376(2) 0.5728(13)
O5_2 O 0.82193(18) 0.83425(19) 0.60876(10)
O6_2 O 0.10590(17) 0.84212(17) 0.65897(10)
O10_2 O 0.22499(16) 0.66330(15) 0.61297(8)
O11 O 0.88073(16) 0.64033(16) 0.57207(8)
N6_2 N 0.11516(19) 0.72134(19) 0.49738(10)
C1_2 C 0.5775(3) 0.7284(3) 0.67198(13)
H5_2 H 0.5721 0.8096 0.6919
H6_2 H 0.6320 0.6588 0.6972
C4_2 C 0.4216(3) 0.8228(3) 0.56347(14)
H10_2 H 0.3677 0.8967 0.5406
H11_2 H 0.4274 0.7462 0.5392
C5_2 C 0.5642(3) 0.8435(3) 0.55957(15)
H12_2 H 0.5588 0.9246 0.5796
H13_2 H 0.6096 0.8487 0.5117
C8_2 C 0.2736(3) 0.7127(2) 0.39393(14)
H16_2 H 0.3526 0.6674 0.3664
C9_2 C 0.4356(3) 0.7057(3) 0.67808(13)
H17_2 H 0.3908 0.7073 0.7262
H18_2 H 0.4423 0.6203 0.6625
C12_2 C 0.3493(2) 0.8058(2) 0.63656(13)
H22_2 H 0.3297 0.8890 0.6580
C18_2 C 0.6454(2) 0.7335(2) 0.59776(12)
H29_2 H 0.6446 0.6526 0.5782
C20_2 C 0.2031(2) 0.8285(2) 0.37035(12)
C22_2 C 0.0874(3) 0.8898(2) 0.41177(12)
H31_2 H 0.0370 0.9700 0.3976
C23_2 C 0.2287(3) 0.6638(2) 0.45738(14)
H32_2 H 0.2802 0.5858 0.4736
C29_3 C 0.8471(2) 0.9051(2) 0.00004(13)
H36_2 H 0.8278 0.8455 0.0364
C30_2 C 0.0461(2) 0.8324(2) 0.47428(12)
C32_2 C 0.2539(3) 0.8784(2) 0.30004(12)
C34_2 C 0.7911(2) 0.7403(2) 0.59264(11)
H40_2 H 0.4208 0.9498 0.1846
C36_2 C 0.2155(2) 0.7707(2) 0.63710(12)
H37_2 H 0.9651 0.8738 0.5020
H21 H 0.9227 0.0594 0.1309
H30 H 0.9715 0.2046 0.0406
H21_2 H 0.0773 0.9406 0.8691
H30_2 H 0.0285 0.7954 0.9594
C11_2 C 0.9964(3) 0.9605(2) 0.90160(13)
C19_2 C 0.9669(3) 0.8748(2) 0.95441(14)
C29_4 C 0.8471(2) 0.9051(2) 1.00004(13)
loop_
_geom_bond_atom_site_label_1
_geom_bond_atom_site_label_2
_geom_bond_site_symmetry_1
_geom_bond_site_symmetry_2
Cu1 O4 1_555 1_555
O2 C32 1_555 1_555
O4 H1 1_555 1_555
H2 O4 1_555 1_555
O5 C34 1_555 1_555
O6 C36 1_555 1_555
O10 Cu1 1_555 1_555
O14 C34 1_555 1_555
N6 Cu1 1_555 1_555
C1 H5 1_555 1_555
H6 C1 1_555 1_555
C4 H10 1_555 1_555
H11 C4 1_555 1_555
C5 C4 1_555 1_555
H12 C5 1_555 1_555
H13 C5 1_555 1_555
C8 H16 1_555 1_555
C9 C1 1_555 1_555
H17 C9 1_555 1_555
H18 C9 1_555 1_555
C12 C4 1_555 1_555
H22 C12 1_555 1_555
C18 C1 1_555 1_555
H29 C18 1_555 1_555
C20 C8 1_555 1_555
C22 C20 1_555 1_555
H31 C22 1_555 1_555
C23 N6 1_555 1_555
H32 C23 1_555 1_555
H36 C29 1_555 1_555
C30 N6 1_555 1_555
C34 C18 1_555 1_555
C36 O10 1_555 1_555
N7 Cu1 1_555 1_555
C5 C18 1_555 1_555
C8 C23 1_555 1_555
C9 C12 1_555 1_555
C12 C36 1_555 1_555
C20 C32 1_555 1_555
C22 C30 1_555 1_555
Cu2 O8 1_555 1_555
O3 C37 1_555 1_555
O7 C38 1_555 1_555
O8 C37 1_555 1_555
O12 C38 1_555 1_555
N4 Cu2 1_555 1_555
N5 H4 1_555 1_555
C2 H7 1_555 1_555
H8 C2 1_555 1_555
C6 H14 1_555 1_555
C7 C6 1_555 1_555
H15 C7 1_555 1_555
C10 H19 1_555 1_555
H20 C10 1_555 1_555
C14 H24 1_555 1_555
C16 C10 1_555 1_555
H25 C16 1_555 1_555
H26 C16 1_555 1_555
C17 C2 1_555 1_555
H27 C17 1_555 1_555
H28 C17 1_555 1_555
C24 C2 1_555 1_555
H33 C24 1_555 1_555
C26 N5 1_555 1_555
C28 N4 1_555 1_555
H35 C28 1_555 1_555
C35 N4 1_555 1_555
C37 C24 1_555 1_555
C38 C14 1_555 1_555
C6 C28 1_555 1_555
C7 C26 1_555 1_555
C10 C24 1_555 1_555
C14 C16 1_555 1_555
C14 C17 1_555 1_555
C26 C35 1_555 1_555
C3 H9 1_555 1_555
C31 N7 1_555 1_555
H38 C31 1_555 1_555
C3 C31 1_555 1_555
O1 C21 1_555 1_555
N2 H3 1_555 1_555
C13 H23 1_555 1_555
C21 N2 1_555 1_555
C25 C13 1_555 1_555
H34 C25 1_555 1_555
C27 N2 1_555 1_555
C33 N1 1_555 1_555
H39 C33 1_555 1_555
C13 C15 1_555 1_555
C15 C21 1_555 1_555
C27 C33 1_555 1_555
C19 C11 1_555 1_555
C19 C29_2 1_555 1_555
O1_2 C21_2 1_555 1_555
N2_2 H3_2 1_555 1_555
C13_2 H23_2 1_555 1_555
C21_2 N2_2 1_555 1_555
C25_2 C13_2 1_555 1_555
H34_2 C25_2 1_555 1_555
C27_2 N2_2 1_555 1_555
C33_2 N1_2 1_555 1_555
H39_2 C33_2 1_555 1_555
C13_2 C15_2 1_555 1_555
C15_2 C21_2 1_555 1_555
C27_2 C33_2 1_555 1_555
C3_2 H9_2 1_555 1_555
C31_2 N3 1_555 1_555
H38_2 C31_2 1_555 1_555
Cu3 N3 1_555 1_555
C3_2 C31_2 1_555 1_555
Cu6 O8_2 1_555 1_555
O3_2 C37_2 1_555 1_555
O7_2 C38_2 1_555 1_555
O8_2 C37_2 1_555 1_555
O13 C38_2 1_555 1_555
N4_2 Cu6 1_555 1_555
N5_2 H4_2 1_555 1_555
C2_2 H7_2 1_555 1_555
H8_2 C2_2 1_555 1_555
C6_2 H14_2 1_555 1_555
C7_2 C6_2 1_555 1_555
H15_2 C7_2 1_555 1_555
C10_2 H19_2 1_555 1_555
H20_2 C10_2 1_555 1_555
C14_2 H24_2 1_555 1_555
C16_2 C10_2 1_555 1_555
H25_2 C16_2 1_555 1_555
H26_2 C16_2 1_555 1_555
C17_2 C2_2 1_555 1_555
H27_2 C17_2 1_555 1_555
H28_2 C17_2 1_555 1_555
C24_2 C2_2 1_555 1_555
H33_2 C24_2 1_555 1_555
C26_2 N5_2 1_555 1_555
C28_2 N4_2 1_555 1_555
H35_2 C28_2 1_555 1_555
C35_2 N4_2 1_555 1_555
C37_2 C24_2 1_555 1_555
C38_2 C14_2 1_555 1_555
C6_2 C28_2 1_555 1_555
C7_2 C26_2 1_555 1_555
C10_2 C24_2 1_555 1_555
C14_2 C16_2 1_555 1_555
C14_2 C17_2 1_555 1_555
C26_2 C35_2 1_555 1_555
Cu3 O4_2 1_555 1_555
O2_2 C32_2 1_555 1_555
O4_2 H1_2 1_555 1_555
H2_2 O4_2 1_555 1_555
O5_2 C34_2 1_555 1_555
O6_2 C36_2 1_555 1_555
O10_2 Cu3 1_555 1_555
O11 C34_2 1_555 1_555
N6_2 Cu3 1_555 1_555
C1_2 H5_2 1_555 1_555
H6_2 C1_2 1_555 1_555
C4_2 H10_2 1_555 1_555
H11_2 C4_2 1_555 1_555
C5_2 C4_2 1_555 1_555
H12_2 C5_2 1_555 1_555
H13_2 C5_2 1_555 1_555
C8_2 H16_2 1_555 1_555
C9_2 C1_2 1_555 1_555
H17_2 C9_2 1_555 1_555
H18_2 C9_2 1_555 1_555
C12_2 C4_2 1_555 1_555
H22_2 C12_2 1_555 1_555
C18_2 C1_2 1_555 1_555
H29_2 C18_2 1_555 1_555
C20_2 C8_2 1_555 1_555
C22_2 C20_2 1_555 1_555
H31_2 C22_2 1_555 1_555
C23_2 N6_2 1_555 1_555
H32_2 C23_2 1_555 1_555
H36_2 C29_3 1_555 1_555
C30_2 N6_2 1_555 1_555
C34_2 C18_2 1_555 1_555
C36_2 O10_2 1_555 1_555
C5_2 C18_2 1_555 1_555
C8_2 C23_2 1_555 1_555
C9_2 C12_2 1_555 1_555
C12_2 C36_2 1_555 1_555
C20_2 C32_2 1_555 1_555
C22_2 C30_2 1_555 1_555
C19_2 C11_2 1_555 1_555
C19_2 C29_4 1_555 1_555

#END
