
###############################################################################
#
# This file contains modified crystal structure data generated from the
# MOF subset of the Cambridge Structural Database (CSD) v543 
# hosted by the Cambridge Crystallographic Data Centre (CCDC).
#
# This work is licensed under the Creative Commons
# Attribution-NonCommercial-ShareAlike 4.0 International License.
# To view a copy of this license, visit
# http://creativecommons.org/licenses/by-nc-sa/4.0/
# or send a letter to
# Creative Commons, PO Box 1866, Mountain View, CA 94042, USA.
#
# CIF created using the CSD Python API on 29 September 2022
# The structure has been converted into the P1 space group
# The structure has a 3D framework
# The original CSD entry VINKEL is in the orthorhombic crystal system
# The framework has been calculated to contain at least 10.0% void space
# The void calculation uses a probe of radius 1.32A, grid spacing 0.4
#
###############################################################################

data_VINKEL
_chemical_formula_moiety         '(C48 H32 Ca6 O20 S6)n'
_symmetry_cell_setting           triclinic
_symmetry_space_group_name_H-M   'P 1'
_symmetry_Int_Tables_number      1
_space_group_name_Hall           'P 1'
loop_
_symmetry_equiv_pos_site_id
_symmetry_equiv_pos_as_xyz
1 x,y,z
_cell_length_a                   12.4476(9)
_cell_length_b                   13.9099(8)
_cell_length_c                   7.1000(5)
_cell_angle_alpha                90
_cell_angle_beta                 90
_cell_angle_gamma                90
_cell_volume                     1229.33
loop_
_atom_site_label
_atom_site_type_symbol
_atom_site_fract_x
_atom_site_fract_y
_atom_site_fract_z
H5 H 0.2746 0.0930 0.0341
H6 H 0.1263 0.1920 0.0329
Ca2 Ca -0.0000 0.5000 -0.0000
Ca6 Ca 0.5000 0.0000 -0.0000
Ca1 Ca -0.0000 0.5000 0.5000
S1 S -0.0000 0.27663(8) 0.7500
O1 O 0.3813(2) 0.02868(19) 0.7500
O2 O -0.0000 0.33218(19) 0.5763(5)
C1 C 0.2938(3) 0.0833(2) 0.7500
C2 C 0.2459(3) 0.1134(2) 0.5800(5)
H1 H 0.2746 0.0930 0.4659
C3 C 0.1569(2) 0.1726(2) 0.5804(4)
H2 H 0.1263 0.1920 0.4671
C4 C 0.1130(3) 0.2034(3) 0.7500
O4 O -0.0000 0.33218(19) 0.9237(5)
C9 C 0.2459(3) 0.1134(2) 0.9200(5)
C10 C 0.1569(2) 0.1726(2) 0.9196(4)
Ca2_2 Ca -0.0000 0.5000 1.0000
Ca4 Ca 0.5000 0.0000 0.5000
Ca6_2 Ca 0.5000 0.0000 1.0000
O6 O 0.1187(2) 0.47132(19) 0.2500
O8 O 0.1187(2) 0.52868(19) 0.7500
O9 O -0.0000 0.66782(19) 0.4237(5)
Ca6_3 Ca 0.5000 1.0000 -0.0000
Ca4_2 Ca 0.5000 1.0000 0.5000
Ca6_4 Ca 0.5000 1.0000 1.0000
H3 H 0.7254 0.0930 0.0341
H4 H 0.8737 0.1920 0.0329
Ca2_3 Ca 1.0000 0.5000 -0.0000
Ca1_2 Ca 1.0000 0.5000 0.5000
S1_2 S 1.0000 0.27663(8) 0.7500
O2_2 O 1.0000 0.33218(19) 0.5763(5)
O3 O 0.6187(2) 0.02868(19) 0.7500
O4_2 O 1.0000 0.33218(19) 0.9237(5)
C5 C 0.7062(3) 0.0833(2) 0.7500
C6 C 0.7541(3) 0.1134(2) 0.9200(5)
C7 C 0.8431(2) 0.1726(2) 0.9196(4)
C8 C 0.8870(3) 0.2034(3) 0.7500
C11 C 0.7541(3) 0.1134(2) 0.5800(5)
H7 H 0.7254 0.0930 0.4659
C12 C 0.8431(2) 0.1726(2) 0.5804(4)
H8 H 0.8737 0.1920 0.4671
Ca2_4 Ca 1.0000 0.5000 1.0000
O5 O 0.8813(2) 0.52868(19) 0.7500
O7 O 0.8813(2) 0.47132(19) 0.2500
O9_2 O 1.0000 0.66782(19) 0.4237(5)
S1_3 S -0.0000 0.72337(8) 0.2500
O2_3 O 0.0000 0.66782(19) 0.0763(5)
O3_2 O 0.3813(2) 0.97132(19) 0.2500
C5_2 C 0.2938(3) 0.9167(2) 0.2500
C6_2 C 0.2459(3) 0.8866(2) 0.4200(5)
H3_2 H 0.2746 0.9070 0.5341
C7_2 C 0.1569(2) 0.8274(2) 0.4196(4)
H4_2 H 0.1263 0.8080 0.5329
C8_2 C 0.1130(3) 0.7966(3) 0.2500
C11_2 C 0.2459(3) 0.8866(2) 0.0800(5)
C12_2 C 0.1569(2) 0.8274(2) 0.0804(4)
H7_2 H 0.2746 0.9070 0.9659
H8_2 H 0.1263 0.8080 0.9671
S1_4 S 1.0000 0.72337(8) 0.2500
O1_2 O 0.6187(2) 0.97132(19) 0.2500
O2_4 O 1.0000 0.66782(19) 0.0763(5)
C1_2 C 0.7062(3) 0.9167(2) 0.2500
C2_2 C 0.7541(3) 0.8866(2) 0.0800(5)
C3_2 C 0.8431(2) 0.8274(2) 0.0804(4)
C4_2 C 0.8870(3) 0.7966(3) 0.2500
C9_2 C 0.7541(3) 0.8866(2) 0.4200(5)
H5_2 H 0.7254 0.9070 0.5341
C10_2 C 0.8431(2) 0.8274(2) 0.4196(4)
H6_2 H 0.8737 0.8080 0.5329
H1_2 H 0.7254 0.9070 0.9659
H2_2 H 0.8737 0.8080 0.9671
O9_3 O 0.5000 0.16782(19) 0.4237(5)
H3_3 H 0.2254 0.5930 0.0341
H4_3 H 0.3737 0.6920 0.0329
H5_3 H 0.7746 0.5930 0.0341
H6_3 H 0.6263 0.6920 0.0329
S1_5 S 0.5000 0.77663(8) 0.7500
O2_5 O 0.5000 0.83218(19) 0.5763(5)
C1_3 C 0.7938(3) 0.5833(2) 0.7500
C2_3 C 0.7459(3) 0.6134(2) 0.5800(5)
H1_3 H 0.7746 0.5930 0.4659
C3_3 C 0.6569(2) 0.6726(2) 0.5804(4)
H2_3 H 0.6263 0.6920 0.4671
C4_3 C 0.6130(3) 0.7034(3) 0.7500
O4_3 O 0.5000 0.83218(19) 0.9237(5)
C5_3 C 0.2062(3) 0.5833(2) 0.7500
C6_3 C 0.2541(3) 0.6134(2) 0.9200(5)
C7_3 C 0.3431(2) 0.6726(2) 0.9196(4)
C8_3 C 0.3870(3) 0.7034(3) 0.7500
C9_3 C 0.7459(3) 0.6134(2) 0.9200(5)
C10_3 C 0.6569(2) 0.6726(2) 0.9196(4)
C11_3 C 0.2541(3) 0.6134(2) 0.5800(5)
H7_3 H 0.2254 0.5930 0.4659
C12_3 C 0.3431(2) 0.6726(2) 0.5804(4)
H8_3 H 0.3737 0.6920 0.4671
S1_6 S 0.5000 0.22337(8) 0.2500
O2_6 O 0.5000 0.16782(19) 0.0763(5)
C1_4 C 0.2062(3) 0.4167(2) 0.2500
C2_4 C 0.2541(3) 0.3866(2) 0.0800(5)
C3_4 C 0.3431(2) 0.3274(2) 0.0804(4)
C4_4 C 0.3870(3) 0.2966(3) 0.2500
C5_4 C 0.7938(3) 0.4167(2) 0.2500
C6_4 C 0.7459(3) 0.3866(2) 0.4200(5)
H3_4 H 0.7746 0.4070 0.5341
C7_4 C 0.6569(2) 0.3274(2) 0.4196(4)
H4_4 H 0.6263 0.3080 0.5329
C8_4 C 0.6130(3) 0.2966(3) 0.2500
C9_4 C 0.2541(3) 0.3866(2) 0.4200(5)
H5_4 H 0.2254 0.4070 0.5341
C10_4 C 0.3431(2) 0.3274(2) 0.4196(4)
H6_4 H 0.3737 0.3080 0.5329
C11_4 C 0.7459(3) 0.3866(2) 0.0800(5)
C12_4 C 0.6569(2) 0.3274(2) 0.0804(4)
H1_4 H 0.2254 0.4070 0.9659
H2_4 H 0.3737 0.3080 0.9671
H7_4 H 0.7746 0.4070 0.9659
H8_4 H 0.6263 0.3080 0.9671
loop_
_geom_bond_atom_site_label_1
_geom_bond_atom_site_label_2
_geom_bond_site_symmetry_1
_geom_bond_site_symmetry_2
Ca1 O2 1_555 1_555
S1 O2 1_555 1_555
O1 C1 1_555 1_555
C1 C2 1_555 1_555
C2 H1 1_555 1_555
C3 C2 1_555 1_555
H2 C3 1_555 1_555
C4 S1 1_555 1_555
O4 S1 1_555 1_555
C9 C1 1_555 1_555
C10 C4 1_555 1_555
Ca2_2 O4 1_555 1_555
Ca4 O1 1_555 1_555
Ca6_2 O1 1_555 1_555
O6 Ca1 1_555 1_555
O8 Ca1 1_555 1_555
O9 Ca1 1_555 1_555
C3 C4 1_555 1_555
C9 C10 1_555 1_555
Ca2_2 O8 1_555 1_555
Ca1_2 O2_2 1_555 1_555
S1_2 O2_2 1_555 1_555
O3 C5 1_555 1_555
O4_2 S1_2 1_555 1_555
C5 C6 1_555 1_555
C7 C6 1_555 1_555
C8 S1_2 1_555 1_555
C11 C5 1_555 1_555
H7 C11 1_555 1_555
C12 C8 1_555 1_555
H8 C12 1_555 1_555
Ca2_4 O4_2 1_555 1_555
Ca4 O3 1_555 1_555
Ca6_2 O3 1_555 1_555
O5 Ca1_2 1_555 1_555
O7 Ca1_2 1_555 1_555
O9_2 Ca1_2 1_555 1_555
C7 C8 1_555 1_555
C11 C12 1_555 1_555
Ca2_4 O5 1_555 1_555
Ca2 O2_3 1_555 1_555
S1_3 O2_3 1_555 1_555
O3_2 C5_2 1_555 1_555
O9 S1_3 1_555 1_555
C5_2 C6_2 1_555 1_555
C6_2 H3_2 1_555 1_555
C7_2 C6_2 1_555 1_555
H4_2 C7_2 1_555 1_555
C8_2 S1_3 1_555 1_555
C11_2 C5_2 1_555 1_555
C12_2 C8_2 1_555 1_555
Ca6_3 O3_2 1_555 1_555
Ca4_2 O3_2 1_555 1_555
O6 Ca2 1_555 1_555
C7_2 C8_2 1_555 1_555
C11_2 C12_2 1_555 1_555
Ca2_3 O2_4 1_555 1_555
S1_4 O2_4 1_555 1_555
O1_2 C1_2 1_555 1_555
C1_2 C2_2 1_555 1_555
C3_2 C2_2 1_555 1_555
C4_2 S1_4 1_555 1_555
O9_2 S1_4 1_555 1_555
C9_2 C1_2 1_555 1_555
H5_2 C9_2 1_555 1_555
C10_2 C4_2 1_555 1_555
H6_2 C10_2 1_555 1_555
Ca6_3 O1_2 1_555 1_555
Ca4_2 O1_2 1_555 1_555
O7 Ca2_3 1_555 1_555
C3_2 C4_2 1_555 1_555
C9_2 C10_2 1_555 1_555
O9_3 Ca4 1_555 1_555
Ca4_2 O2_5 1_555 1_555
S1_5 O2_5 1_555 1_555
O5 C1_3 1_555 1_555
C1_3 C2_3 1_555 1_555
C2_3 H1_3 1_555 1_555
C3_3 C2_3 1_555 1_555
H2_3 C3_3 1_555 1_555
C4_3 S1_5 1_555 1_555
O8 C5_3 1_555 1_555
O4_3 S1_5 1_555 1_555
C5_3 C6_3 1_555 1_555
C7_3 C6_3 1_555 1_555
C8_3 S1_5 1_555 1_555
C9_3 C1_3 1_555 1_555
C10_3 C4_3 1_555 1_555
C11_3 C5_3 1_555 1_555
H7_3 C11_3 1_555 1_555
C12_3 C8_3 1_555 1_555
H8_3 C12_3 1_555 1_555
Ca6_4 O4_3 1_555 1_555
C3_3 C4_3 1_555 1_555
C7_3 C8_3 1_555 1_555
C9_3 C10_3 1_555 1_555
C11_3 C12_3 1_555 1_555
Ca6 O2_6 1_555 1_555
S1_6 O2_6 1_555 1_555
O6 C1_4 1_555 1_555
C1_4 C2_4 1_555 1_555
C3_4 C2_4 1_555 1_555
C4_4 S1_6 1_555 1_555
O7 C5_4 1_555 1_555
O9_3 S1_6 1_555 1_555
C5_4 C6_4 1_555 1_555
C6_4 H3_4 1_555 1_555
C7_4 C6_4 1_555 1_555
H4_4 C7_4 1_555 1_555
C8_4 S1_6 1_555 1_555
C9_4 C1_4 1_555 1_555
H5_4 C9_4 1_555 1_555
C10_4 C4_4 1_555 1_555
H6_4 C10_4 1_555 1_555
C11_4 C5_4 1_555 1_555
C12_4 C8_4 1_555 1_555
C3_4 C4_4 1_555 1_555
C7_4 C8_4 1_555 1_555
C9_4 C10_4 1_555 1_555
C11_4 C12_4 1_555 1_555

#END
