
###############################################################################
#
# This file contains modified crystal structure data generated from the
# MOF subset of the Cambridge Structural Database (CSD) v543 
# hosted by the Cambridge Crystallographic Data Centre (CCDC).
#
# This work is licensed under the Creative Commons
# Attribution-NonCommercial-ShareAlike 4.0 International License.
# To view a copy of this license, visit
# http://creativecommons.org/licenses/by-nc-sa/4.0/
# or send a letter to
# Creative Commons, PO Box 1866, Mountain View, CA 94042, USA.
#
# CIF created using the CSD Python API on 29 September 2022
# The structure has been converted into the P1 space group
# The structure has a 3D framework
# The original CSD entry VIPXUO is in the monoclinic crystal system
# The framework has been calculated to contain at least 10.0% void space
# The void calculation uses a probe of radius 1.32A, grid spacing 0.4
#
###############################################################################

data_VIPXUO
_chemical_formula_moiety         '(C68 H64 Co4 N8 O24)n'
_symmetry_cell_setting           triclinic
_symmetry_space_group_name_H-M   'P 1'
_symmetry_Int_Tables_number      1
_space_group_name_Hall           'P 1'
loop_
_symmetry_equiv_pos_site_id
_symmetry_equiv_pos_as_xyz
1 x,y,z
_cell_length_a                   8.6864(10)
_cell_length_b                   14.2414(18)
_cell_length_c                   16.885(2)
_cell_angle_alpha                90
_cell_angle_beta                 100.046(3)
_cell_angle_gamma                90
_cell_volume                     2056.76
loop_
_atom_site_label
_atom_site_type_symbol
_atom_site_fract_x
_atom_site_fract_y
_atom_site_fract_z
C6 C 0.0613(3) 0.4668(2) 0.52250(19)
H2 H 0.0905 0.4230 0.4829
C7 C 0.2111(3) 0.5189(2) 0.56138(16)
H3 H 0.2585 0.5478 0.5195
H4 H 0.1837 0.5685 0.5958
H7 H 0.0437 0.2795 0.5463
C13 C 0.3276(4) 0.4546(2) 0.61015(17)
C14 C 0.4166(3) 0.39395(19) 0.57378(17)
H9 H 0.4086 0.3937 0.5181
C15 C 0.5177(4) 0.33352(19) 0.62055(16)
H10 H 0.5754 0.2923 0.5946
C16 C 0.4517(3) 0.3894(2) 0.73770(17)
H11 H 0.4616 0.3884 0.7934
C17 C 0.3474(4) 0.45207(19) 0.69305(16)
H12 H 0.2900 0.4929 0.7196
Co1 Co 0.28635(5) 0.75969(3) 0.23315(3)
N2 N 0.5384(3) 0.33027(18) 0.70114(15)
O5 O 0.4404(2) 0.79892(13) 0.15183(10)
H13 H 0.3956 0.7885 0.1037
H14 H 0.5240 0.7668 0.1621
O6 O 0.1138(2) 0.85766(14) 0.18445(11)
H15 H 0.0369 0.8541 0.2093
H16 H 0.1519 0.9127 0.1894
C25 C 0.1311(4) 0.6003(2) 0.30344(18)
H21 H 0.1737 0.5693 0.2638
C26 C 0.0684(3) 0.5466(2) 0.35671(16)
H22 H 0.0692 0.4814 0.3530
C27 C 0.0037(4) 0.5905(2) 0.41635(18)
C28 C 0.0017(3) 0.6877(2) 0.41608(15)
C29 C 0.0680(3) 0.7356(2) 0.35917(16)
H24 H 0.0651 0.8009 0.3596
Co3 Co 0.71365(5) 0.24031(3) 0.76685(3)
N3 N 0.1358(3) 0.69335(17) 0.30382(15)
N6 N 0.4616(3) 0.66973(18) 0.29886(15)
O7 O 0.1941(2) 0.66228(15) 0.14598(13)
O12 O 0.3784(2) 0.86386(15) 0.31734(12)
C18 C 0.2638(4) 0.1249(2) 0.41388(19)
C19 C 0.3799(4) 0.0556(2) 0.45798(17)
C20 C 0.5899(4) 0.0320(2) 0.57238(18)
C21 C 0.6856(4) 0.0730(2) 0.64812(18)
C22 C 0.4686(4) 0.0856(2) 0.52999(18)
H17 H 0.4462 0.1435 0.5507
Co7 Co 0.21365(5) 0.25969(3) 0.26685(3)
O9 O 0.3059(2) 0.16228(15) 0.35402(13)
O10 O 0.1431(2) 0.14588(14) 0.44206(11)
O11 O 0.8206(2) 0.04230(14) 0.66926(12)
O13 O 0.6216(2) 0.13614(15) 0.68266(12)
C1 C 0.7362(4) 0.8751(2) 0.58612(19)
C2 C 0.6201(4) 0.9444(2) 0.54202(17)
C3 C 0.4101(4) 0.9680(2) 0.42762(18)
C4 C 0.3144(4) 0.9270(2) 0.35188(18)
C5 C 0.5314(4) 0.9144(2) 0.47001(18)
H1 H 0.5538 0.8565 0.4493
C8 C 0.8689(4) 0.3997(2) 0.69656(18)
H5 H 0.8263 0.4307 0.7362
C9 C 0.9316(3) 0.4534(2) 0.64329(16)
H6 H 0.9308 0.5186 0.6470
C10 C 0.9963(4) 0.4095(2) 0.58365(18)
C11 C 0.9983(3) 0.3123(2) 0.58392(15)
C12 C 0.9320(3) 0.2644(2) 0.64083(16)
H8 H 0.9349 0.1991 0.6404
N1 N 0.8642(3) 0.30665(17) 0.69618(15)
O1 O 0.6941(2) 0.83772(15) 0.64598(13)
O2 O 0.8569(2) 0.85412(14) 0.55794(11)
O3 O 0.1794(2) 0.95770(14) 0.33074(12)
C23 C 0.9387(3) 0.5332(2) 0.47750(19)
H18 H 0.9095 0.5770 0.5171
C24 C 0.7889(3) 0.4811(2) 0.43862(16)
H19 H 0.7415 0.4522 0.4805
H20 H 0.8163 0.4315 0.4042
H23 H 0.9563 0.7205 0.4537
C30 C 0.6724(4) 0.5454(2) 0.38985(17)
C31 C 0.5834(3) 0.60605(19) 0.42622(17)
H25 H 0.5914 0.6063 0.4819
C32 C 0.4823(4) 0.66648(19) 0.37945(16)
H26 H 0.4246 0.7077 0.4054
C33 C 0.5483(3) 0.6106(2) 0.26230(17)
H27 H 0.5384 0.6116 0.2066
C34 C 0.6526(4) 0.54793(19) 0.30695(16)
H28 H 0.7100 0.5071 0.2804
Co4 Co 0.78635(5) 0.74031(3) 0.73315(3)
C3_2 C 0.0899(4) 0.4680(2) 0.07238(18)
C4_2 C 0.1856(4) 0.4270(2) 0.14812(18)
O3_2 O 0.3206(2) 0.45770(14) 0.16926(12)
O4 O 0.1216(2) 0.36386(15) 0.18266(12)
C18_2 C 0.2362(4) 0.6249(2) 0.08612(19)
C19_2 C 0.1201(4) 0.5556(2) 0.04202(17)
C32_2 C 0.0177(4) 0.16648(19) 0.12055(16)
H26_2 H 0.0754 0.2077 0.0946
N4 N 0.3642(3) 0.19335(17) 0.19618(15)
N5 N 0.0384(3) 0.16973(18) 0.20114(15)
O10_2 O 0.3569(2) 0.64588(14) 0.05794(11)
O14 O 0.0596(2) 0.29892(13) 0.34817(10)
H29 H 0.1044 0.2885 0.3963
O15 O 0.3862(2) 0.35766(14) 0.31555(11)
H31 H 0.4631 0.3541 0.2907
H32 H 0.3481 0.4127 0.3106
C22_2 C 0.0314(4) 0.5856(2) 0.97001(18)
H17_2 H 0.0538 0.6435 0.9493
C5_2 C 0.9686(4) 0.4144(2) 0.02999(18)
H1_2 H 0.9462 0.3565 0.0507
C23_2 C 0.5613(3) 0.0332(2) 0.02250(19)
C25_2 C 0.3689(4) 0.1003(2) 0.19656(18)
H21_2 H 0.3263 0.0693 0.2362
C26_2 C 0.4316(3) 0.0466(2) 0.14329(16)
C27_2 C 0.4963(4) 0.0905(2) 0.08365(18)
C28_2 C 0.4983(3) 0.1877(2) 0.08392(15)
H23_2 H 0.5437 0.2205 0.0463
C29_2 C 0.4320(3) 0.2356(2) 0.14083(16)
H24_2 H 0.4349 0.3009 0.1404
C30_2 C 0.8276(4) 0.0454(2) 0.11015(17)
C31_2 C 0.9166(3) 0.10605(19) 0.07378(17)
H25_2 H 0.9086 0.1063 0.0181
C33_2 C 0.9517(3) 0.1106(2) 0.23770(17)
H27_2 H 0.9616 0.1116 0.2934
C34_2 C 0.8474(4) 0.04793(19) 0.19305(16)
H28_2 H 0.7900 0.0071 0.2196
H30 H 0.9760 0.2668 0.3379
C1_2 C 0.7638(4) 0.3751(2) 0.91388(19)
C2_2 C 0.8799(4) 0.4444(2) 0.95798(17)
C7_2 C 0.2889(3) 0.0189(2) 0.93862(16)
H3_2 H 0.2415 0.0478 0.9805
H4_2 H 0.3163 0.0685 0.9042
H6_2 H 0.5692 0.0186 0.8530
O1_2 O 0.8059(2) 0.33772(15) 0.85402(13)
O2_2 O 0.6431(2) 0.35412(14) 0.94206(11)
C20_2 C 0.9101(4) 0.5320(2) 0.92762(18)
C21_2 C 0.8144(4) 0.5730(2) 0.85188(18)
H18_2 H 0.5905 0.0770 0.9829
O11_2 O 0.6794(2) 0.54230(14) 0.83074(12)
O13_2 O 0.8784(2) 0.63614(15) 0.81734(12)
H2_2 H 0.4095 0.9230 0.0171
C24_2 C 0.7111(3) 0.9811(2) 0.06138(16)
H19_2 H 0.7585 0.9522 0.0195
H20_2 H 0.6837 0.9315 0.0958
H22_2 H 0.4308 0.9814 0.1470
C6_2 C 0.4387(3) 0.9668(2) 0.97750(19)
C8_2 C 0.6311(4) 0.8997(2) 0.80344(18)
H5_2 H 0.6737 0.9307 0.7638
C9_2 C 0.5684(3) 0.9534(2) 0.85671(16)
C10_2 C 0.5037(4) 0.9095(2) 0.91635(18)
C11_2 C 0.5017(3) 0.8123(2) 0.91608(15)
H7_2 H 0.4563 0.7795 0.9537
C12_2 C 0.5680(3) 0.7644(2) 0.85917(16)
H8_2 H 0.5651 0.6991 0.8596
C13_2 C 0.1724(4) 0.9546(2) 0.88985(17)
C14_2 C 0.0834(3) 0.89395(19) 0.92622(17)
H9_2 H 0.0914 0.8937 0.9819
C16_2 C 0.0483(3) 0.8894(2) 0.76230(17)
H11_2 H 0.0384 0.8884 0.7066
C17_2 C 0.1526(4) 0.95207(19) 0.80695(16)
H12_2 H 0.2100 0.9929 0.7804
N1_2 N 0.6358(3) 0.80665(17) 0.80382(15)
C15_2 C 0.9823(4) 0.83352(19) 0.87945(16)
H10_2 H 0.9246 0.7923 0.9054
N2_2 N 0.9616(3) 0.83027(18) 0.79886(15)
O14_2 O 0.5596(2) 0.20108(13) 0.84817(10)
H29_2 H 0.6044 0.2115 0.8963
H30_2 H 0.4760 0.2332 0.8379
O15_2 O 0.8862(2) 0.14234(14) 0.81555(11)
H31_2 H 0.9631 0.1459 0.7907
H32_2 H 0.8481 0.0873 0.8106
H14_2 H 0.0240 0.7332 0.6621
O5_2 O 0.9404(2) 0.70108(13) 0.65183(10)
H13_2 H 0.8956 0.7115 0.6037
O6_2 O 0.6138(2) 0.64234(14) 0.68445(11)
H15_2 H 0.5369 0.6459 0.7093
H16_2 H 0.6519 0.5873 0.6894
loop_
_geom_bond_atom_site_label_1
_geom_bond_atom_site_label_2
_geom_bond_site_symmetry_1
_geom_bond_site_symmetry_2
C6 H2 1_555 1_555
C7 C6 1_555 1_555
H3 C7 1_555 1_555
H4 C7 1_555 1_555
C13 C7 1_555 1_555
C14 C13 1_555 1_555
H9 C14 1_555 1_555
C15 C14 1_555 1_555
H10 C15 1_555 1_555
C16 H11 1_555 1_555
C17 C13 1_555 1_555
H12 C17 1_555 1_555
Co1 O5 1_555 1_555
N2 C15 1_555 1_555
O5 H13 1_555 1_555
H14 O5 1_555 1_555
O6 Co1 1_555 1_555
H15 O6 1_555 1_555
H16 O6 1_555 1_555
C25 H21 1_555 1_555
C26 C25 1_555 1_555
H22 C26 1_555 1_555
C28 C27 1_555 1_555
C29 C28 1_555 1_555
H24 C29 1_555 1_555
Co3 N2 1_555 1_555
N3 Co1 1_555 1_555
N6 Co1 1_555 1_555
O7 Co1 1_555 1_555
O12 Co1 1_555 1_555
C16 C17 1_555 1_555
C16 N2 1_555 1_555
C25 N3 1_555 1_555
C26 C27 1_555 1_555
C29 N3 1_555 1_555
C18 C19 1_555 1_555
C21 C20 1_555 1_555
C22 C19 1_555 1_555
H17 C22 1_555 1_555
Co3 O13 1_555 1_555
Co7 O9 1_555 1_555
O9 C18 1_555 1_555
O10 C18 1_555 1_555
O11 C21 1_555 1_555
O13 C21 1_555 1_555
C20 C22 1_555 1_555
C1 C2 1_555 1_555
C2 C5 1_555 1_555
C3 C4 1_555 1_555
C4 O3 1_555 1_555
C5 C3 1_555 1_555
H1 C5 1_555 1_555
C8 H5 1_555 1_555
C9 C8 1_555 1_555
H6 C9 1_555 1_555
C11 C10 1_555 1_555
C12 C11 1_555 1_555
H8 C12 1_555 1_555
N1 C8 1_555 1_555
O1 C1 1_555 1_555
O2 C1 1_555 1_555
O12 C4 1_555 1_555
H18 C23 1_555 1_555
C24 C23 1_555 1_555
H19 C24 1_555 1_555
H20 C24 1_555 1_555
C30 C24 1_555 1_555
C31 C30 1_555 1_555
H25 C31 1_555 1_555
C32 C31 1_555 1_555
H26 C32 1_555 1_555
C33 H27 1_555 1_555
C34 C30 1_555 1_555
H28 C34 1_555 1_555
Co3 N1 1_555 1_555
Co4 O1 1_555 1_555
N6 C32 1_555 1_555
C9 C10 1_555 1_555
C12 N1 1_555 1_555
C33 C34 1_555 1_555
C33 N6 1_555 1_555
C3_2 C4_2 1_555 1_555
C4_2 O3_2 1_555 1_555
O4 C4_2 1_555 1_555
C18_2 C19_2 1_555 1_555
C19_2 C3_2 1_555 1_555
H26_2 C32_2 1_555 1_555
Co7 O4 1_555 1_555
N4 Co7 1_555 1_555
N5 C32_2 1_555 1_555
O7 C18_2 1_555 1_555
O10_2 C18_2 1_555 1_555
O14 Co7 1_555 1_555
H29 O14 1_555 1_555
O15 Co7 1_555 1_555
H31 O15 1_555 1_555
H32 O15 1_555 1_555
Co7 N5 1_555 1_555
H17_2 C22_2 1_555 1_555
H1_2 C5_2 1_555 1_555
C25_2 H21_2 1_555 1_555
C26_2 C25_2 1_555 1_555
C27_2 C23_2 1_555 1_555
C28_2 C27_2 1_555 1_555
H23_2 C28_2 1_555 1_555
C29_2 C28_2 1_555 1_555
H24_2 C29_2 1_555 1_555
C31_2 C30_2 1_555 1_555
H25_2 C31_2 1_555 1_555
C33_2 H27_2 1_555 1_555
C34_2 C30_2 1_555 1_555
H28_2 C34_2 1_555 1_555
C25_2 N4 1_555 1_555
C26_2 C27_2 1_555 1_555
C29_2 N4 1_555 1_555
C33_2 C34_2 1_555 1_555
C1_2 C2_2 1_555 1_555
H3_2 C7_2 1_555 1_555
H4_2 C7_2 1_555 1_555
O1_2 C1_2 1_555 1_555
O2_2 C1_2 1_555 1_555
C20_2 C2_2 1_555 1_555
C21_2 C20_2 1_555 1_555
Co3 O1_2 1_555 1_555
Co4 O13_2 1_555 1_555
O11_2 C21_2 1_555 1_555
O13_2 C21_2 1_555 1_555
H19_2 C24_2 1_555 1_555
H20_2 C24_2 1_555 1_555
C8_2 H5_2 1_555 1_555
C9_2 C8_2 1_555 1_555
C10_2 C6_2 1_555 1_555
C11_2 C10_2 1_555 1_555
H7_2 C11_2 1_555 1_555
C12_2 C11_2 1_555 1_555
H8_2 C12_2 1_555 1_555
C14_2 C13_2 1_555 1_555
H9_2 C14_2 1_555 1_555
C16_2 H11_2 1_555 1_555
C17_2 C13_2 1_555 1_555
H12_2 C17_2 1_555 1_555
N1_2 C8_2 1_555 1_555
Co4 N1_2 1_555 1_555
C9_2 C10_2 1_555 1_555
C12_2 N1_2 1_555 1_555
C16_2 C17_2 1_555 1_555
H10_2 C15_2 1_555 1_555
N2_2 C15_2 1_555 1_555
Co4 N2_2 1_555 1_555
O14_2 Co3 1_555 1_555
H29_2 O14_2 1_555 1_555
H30_2 O14_2 1_555 1_555
O15_2 Co3 1_555 1_555
H31_2 O15_2 1_555 1_555
H32_2 O15_2 1_555 1_555
Co4 O5_2 1_555 1_555
O5_2 H13_2 1_555 1_555
O6_2 Co4 1_555 1_555
H15_2 O6_2 1_555 1_555
H16_2 O6_2 1_555 1_555

#END
