
###############################################################################
#
# This file contains modified crystal structure data generated from the
# MOF subset of the Cambridge Structural Database (CSD) v543 
# hosted by the Cambridge Crystallographic Data Centre (CCDC).
#
# This work is licensed under the Creative Commons
# Attribution-NonCommercial-ShareAlike 4.0 International License.
# To view a copy of this license, visit
# http://creativecommons.org/licenses/by-nc-sa/4.0/
# or send a letter to
# Creative Commons, PO Box 1866, Mountain View, CA 94042, USA.
#
# CIF created using the CSD Python API on 29 September 2022
# The structure has been converted into the P1 space group
# The structure has a 3D framework
# The original CSD entry VIWHAN is in the monoclinic crystal system
# The framework has been calculated to contain at least 10.0% void space
# The void calculation uses a probe of radius 1.32A, grid spacing 0.4
#
###############################################################################

data_VIWHAN
_chemical_formula_moiety         '(C120 H80 N16 O21 Zn2)n'
_symmetry_cell_setting           triclinic
_symmetry_space_group_name_H-M   'P 1'
_symmetry_Int_Tables_number      1
_space_group_name_Hall           'P 1'
loop_
_symmetry_equiv_pos_site_id
_symmetry_equiv_pos_as_xyz
1 x,y,z
_cell_length_a                   18.5726(12)
_cell_length_b                   7.2486(5)
_cell_length_c                   24.1290(17)
_cell_angle_alpha                90
_cell_angle_beta                 110.335(5)
_cell_angle_gamma                90
_cell_volume                     3045.93
loop_
_atom_site_label
_atom_site_type_symbol
_atom_site_fract_x
_atom_site_fract_y
_atom_site_fract_z
O6 O 0.11041(11) 0.9324(3) 0.03761(9)
C27 C 0.11528(14) 0.7833(3) 0.01475(10)
C28 C 0.05538(13) 0.6363(3) 0.00713(10)
Zn2 Zn 0.250000 0.91339(5) 0.000000
Zn1 Zn 0.750000 0.08661(5) 0.000000
O2 O 0.83102(10) 0.2577(3) 0.00415(9)
C29 C 0.98930(14) 0.6732(4) 0.01960(11)
H19 H 0.981671 0.792164 0.033132
C30 C 0.93465(14) 0.5377(3) 0.01239(11)
H20 H 0.889547 0.564345 0.020974
O3 O 0.61041(11) 0.0676(3) 0.03761(9)
C12 C 0.61528(14) 0.2167(3) 0.01475(10)
C13 C 0.55538(13) 0.3637(3) 0.00713(10)
C14 C 0.48930(14) 0.3268(4) 0.01960(11)
H9 H 0.481671 0.207836 0.033132
C15 C 0.43465(14) 0.4623(3) 0.01239(11)
H10 H 0.389547 0.435655 0.020974
O5 O 0.33102(10) 0.7423(3) 0.00415(9)
C14_2 C 0.01070(14) 0.3268(4) 0.98040(11)
H9_2 H 0.018329 0.207836 0.966868
C15_2 C 0.06535(14) 0.4623(3) 0.98761(11)
H10_2 H 0.110453 0.435655 0.979026
O5_2 O 0.16898(10) 0.7423(3) 0.99585(9)
Zn2_2 Zn 0.250000 0.91339(5) 1.000000
Zn1_2 Zn 0.750000 0.08661(5) 1.000000
O3_2 O 0.88959(11) 0.0676(3) 0.96239(9)
C12_2 C 0.88472(14) 0.2167(3) 0.98525(10)
C13_2 C 0.94462(13) 0.3637(3) 0.99287(10)
O7 O 0.66898(10) 0.2577(3) 0.99585(9)
O6_2 O 0.38959(11) 0.9324(3) 0.96239(9)
C27_2 C 0.38472(14) 0.7833(3) 0.98525(10)
C28_2 C 0.44462(13) 0.6363(3) 0.99287(10)
C29_2 C 0.51070(14) 0.6732(4) 0.98040(11)
H19_2 H 0.518329 0.792164 0.966868
C30_2 C 0.56535(14) 0.5377(3) 0.98761(11)
H20_2 H 0.610453 0.564345 0.979026
H1 H 0.008864 0.829305 0.147956
C2 C 0.14929(14) 0.7401(4) 0.19746(11)
H3 H 0.121873 0.757648 0.156495
C7 C 0.02533(15) 0.6607(4) 0.21284(12)
C8 C 0.11027(14) 0.6929(4) 0.23372(11)
C9 C 0.22971(14) 0.7637(4) 0.21949(10)
C10 C 0.27148(16) 0.8116(4) 0.18277(11)
H7 H 0.245066 0.829178 0.141663
C11 C 0.34900(16) 0.8331(4) 0.20525(12)
H8 H 0.376056 0.865928 0.179747
O4 O 0.50242(12) 0.9453(3) 0.26146(10)
N3 N 0.70577(11) 0.5968(3) 0.43262(9)
N4 N 0.51662(11) 0.7419(3) 0.33574(8)
H11 H 0.491136 0.670695 0.352044
C16 C 0.75150(16) 0.7184(4) 0.42010(14)
H12 H 0.805487 0.708717 0.439382
C17 C 0.35071(14) 0.7599(4) 0.30254(11)
H13 H 0.378127 0.742352 0.343505
C18 C 0.72248(19) 0.8577(5) 0.37996(19)
H14 H 0.756208 0.945335 0.372735
C19 C 0.64480(18) 0.8705(5) 0.35023(16)
H15 H 0.624526 0.965004 0.321779
C20 C 0.59666(15) 0.7444(4) 0.36225(11)
C21 C 0.63020(13) 0.6099(3) 0.40443(10)
H16 H 0.597676 0.523174 0.413614
C22 C 0.47467(15) 0.8393(4) 0.28716(12)
C23 C 0.38973(14) 0.8071(4) 0.26628(11)
C24 C 0.27029(14) 0.7363(4) 0.28051(10)
C25 C 0.22852(16) 0.6884(4) 0.31723(11)
H17 H 0.254934 0.670822 0.358337
C26 C 0.15100(16) 0.6669(4) 0.29475(12)
H18 H 0.123944 0.634072 0.320253
Zn3 Zn 0.750000 0.41339(5) 0.500000
O4_2 O 0.99758(12) 0.9453(3) 0.73854(10)
N3_2 N 0.79423(11) 0.5968(3) 0.56738(9)
N4_2 N 0.98338(11) 0.7419(3) 0.66426(8)
C16_2 C 0.74850(16) 0.7184(4) 0.57990(14)
H12_2 H 0.694513 0.708717 0.560618
C18_2 C 0.77752(19) 0.8577(5) 0.62004(19)
H14_2 H 0.743792 0.945335 0.627265
C19_2 C 0.85520(18) 0.8705(5) 0.64977(16)
H15_2 H 0.875474 0.965004 0.678221
C20_2 C 0.90334(15) 0.7444(4) 0.63775(11)
C21_2 C 0.86980(13) 0.6099(3) 0.59557(10)
H16_2 H 0.902324 0.523174 0.586386
O5_3 O 0.66898(10) 0.2423(3) 0.49585(9)
O6_3 O 0.61041(11) 0.4324(3) 0.53761(9)
C27_3 C 0.61528(14) 0.2833(3) 0.51475(10)
C28_3 C 0.55538(13) 0.1363(3) 0.50713(10)
C29_3 C 0.48930(14) 0.1732(4) 0.51960(11)
H19_3 H 0.481671 0.292164 0.533132
C30_3 C 0.43465(14) 0.0377(3) 0.51239(11)
H20_3 H 0.389547 0.064345 0.520974
O5_4 O 0.83102(10) 0.2423(3) 0.50415(9)
O6_4 O 0.88959(11) 0.4324(3) 0.46239(9)
C27_4 C 0.88472(14) 0.2833(3) 0.48525(10)
C28_4 C 0.94462(13) 0.1363(3) 0.49287(10)
O1 O 0.99758(12) 0.5547(3) 0.23854(10)
N1 N 0.79423(11) 0.9032(3) 0.06738(9)
N2 N 0.98338(11) 0.7581(3) 0.16426(8)
C1 C 0.74850(16) 0.7816(4) 0.07990(14)
H2 H 0.694513 0.791283 0.060618
C3 C 0.77752(19) 0.6423(5) 0.12004(19)
H4 H 0.743792 0.554665 0.127265
C4 C 0.85520(18) 0.6295(5) 0.14977(16)
H5 H 0.875474 0.534996 0.178221
C5 C 0.90334(15) 0.7556(4) 0.13775(11)
C6 C 0.86980(13) 0.8901(3) 0.09557(10)
H6 H 0.902324 0.976826 0.086386
N5 N 0.70577(11) 0.9032(3) 0.93262(9)
O1_2 O 0.50242(12) 0.5547(3) 0.76146(10)
N2_2 N 0.51662(11) 0.7581(3) 0.83574(8)
H1_2 H 0.491136 0.829305 0.852044
C1_2 C 0.75150(16) 0.7816(4) 0.92010(14)
H2_2 H 0.805487 0.791283 0.939382
C2_2 C 0.35071(14) 0.7401(4) 0.80254(11)
H3_2 H 0.378127 0.757648 0.843505
C3_2 C 0.72248(19) 0.6423(5) 0.87996(19)
H4_2 H 0.756208 0.554665 0.872735
C4_2 C 0.64480(18) 0.6295(5) 0.85023(16)
H5_2 H 0.624526 0.534996 0.821779
C5_2 C 0.59666(15) 0.7556(4) 0.86225(11)
C6_2 C 0.63020(13) 0.8901(3) 0.90443(10)
H6_2 H 0.597676 0.976826 0.913614
C7_2 C 0.47467(15) 0.6607(4) 0.78716(12)
C8_2 C 0.38973(14) 0.6929(4) 0.76628(11)
C9_2 C 0.27029(14) 0.7637(4) 0.78051(10)
C10_2 C 0.22852(16) 0.8116(4) 0.81723(11)
H7_2 H 0.254934 0.829178 0.858337
C11_2 C 0.15100(16) 0.8331(4) 0.79475(12)
H8_2 H 0.123944 0.865928 0.820253
H11_2 H 0.008864 0.670695 0.647956
C17_2 C 0.14929(14) 0.7599(4) 0.69746(11)
H13_2 H 0.121873 0.742352 0.656495
C22_2 C 0.02533(15) 0.8393(4) 0.71284(12)
C23_2 C 0.11027(14) 0.8071(4) 0.73372(11)
C24_2 C 0.22971(14) 0.7363(4) 0.71949(10)
C25_2 C 0.27148(16) 0.6884(4) 0.68277(11)
H17_2 H 0.245066 0.670822 0.641663
C26_2 C 0.34900(16) 0.6669(4) 0.70525(12)
H18_2 H 0.376056 0.634072 0.679747
C29_4 C 0.01070(14) 0.1732(4) 0.48040(11)
H19_4 H 0.018329 0.292164 0.466868
C30_4 C 0.06535(14) 0.0377(3) 0.48761(11)
H20_4 H 0.110453 0.064345 0.479026
O4_3 O 0.00242(12) 0.4453(3) 0.76146(10)
N3_3 N 0.20577(11) 0.0968(3) 0.93262(9)
N4_3 N 0.01662(11) 0.2419(3) 0.83574(8)
C16_3 C 0.25150(16) 0.2184(4) 0.92010(14)
H12_3 H 0.305487 0.208717 0.939382
C18_3 C 0.22248(19) 0.3577(5) 0.87996(19)
H14_3 H 0.256208 0.445335 0.872735
C19_3 C 0.14480(18) 0.3705(5) 0.85023(16)
H15_3 H 0.124526 0.465004 0.821779
C20_3 C 0.09666(15) 0.2444(4) 0.86225(11)
C21_3 C 0.13020(13) 0.1099(3) 0.90443(10)
H16_3 H 0.097676 0.023174 0.913614
Zn1_3 Zn 0.250000 0.58661(5) 0.500000
O1_3 O 0.49758(12) 0.0547(3) 0.73854(10)
O2_2 O 0.33102(10) 0.7577(3) 0.50415(9)
O3_3 O 0.38959(11) 0.5676(3) 0.46239(9)
N1_2 N 0.29423(11) 0.4032(3) 0.56738(9)
N2_3 N 0.48338(11) 0.2581(3) 0.66426(8)
H1_3 H 0.508864 0.329305 0.647956
C1_3 C 0.24850(16) 0.2816(4) 0.57990(14)
H2_3 H 0.194513 0.291283 0.560618
C2_3 C 0.64929(14) 0.2401(4) 0.69746(11)
H3_3 H 0.621873 0.257648 0.656495
C3_3 C 0.27752(19) 0.1423(5) 0.62004(19)
H4_3 H 0.243792 0.054665 0.627265
C4_3 C 0.35520(18) 0.1295(5) 0.64977(16)
H5_3 H 0.375474 0.034996 0.678221
C5_3 C 0.40334(15) 0.2556(4) 0.63775(11)
C6_3 C 0.36980(13) 0.3901(3) 0.59557(10)
H6_3 H 0.402324 0.476826 0.586386
C7_3 C 0.52533(15) 0.1607(4) 0.71284(12)
C8_3 C 0.61027(14) 0.1929(4) 0.73372(11)
C9_3 C 0.72971(14) 0.2637(4) 0.71949(10)
C10_3 C 0.77148(16) 0.3116(4) 0.68277(11)
H7_3 H 0.745066 0.329178 0.641663
C11_3 C 0.84900(16) 0.3331(4) 0.70525(12)
H8_3 H 0.876056 0.365928 0.679747
C12_3 C 0.38472(14) 0.7167(3) 0.48525(10)
C13_3 C 0.44462(13) 0.8637(3) 0.49287(10)
C14_3 C 0.51070(14) 0.8268(4) 0.48040(11)
H9_3 H 0.518329 0.707836 0.466868
C15_3 C 0.56535(14) 0.9623(3) 0.48761(11)
H10_3 H 0.610453 0.935655 0.479026
H11_3 H 0.991136 0.170695 0.852044
C17_3 C 0.85071(14) 0.2599(4) 0.80254(11)
H13_3 H 0.878127 0.242352 0.843505
C22_3 C 0.97467(15) 0.3393(4) 0.78716(12)
C23_3 C 0.88973(14) 0.3071(4) 0.76628(11)
C24_3 C 0.77029(14) 0.2363(4) 0.78051(10)
C25_3 C 0.72852(16) 0.1884(4) 0.81723(11)
H17_3 H 0.754934 0.170822 0.858337
C26_3 C 0.65100(16) 0.1669(4) 0.79475(12)
H18_3 H 0.623944 0.134072 0.820253
O7_2 O 0.16898(10) 0.7577(3) 0.49585(9)
N5_2 N 0.20577(11) 0.4032(3) 0.43262(9)
O1_4 O 0.00242(12) 0.0547(3) 0.26146(10)
O3_4 O 0.11041(11) 0.5676(3) 0.53761(9)
N2_4 N 0.01662(11) 0.2581(3) 0.33574(8)
C1_4 C 0.25150(16) 0.2816(4) 0.42010(14)
H2_4 H 0.305487 0.291283 0.439382
C3_4 C 0.22248(19) 0.1423(5) 0.37996(19)
H4_4 H 0.256208 0.054665 0.372735
C4_4 C 0.14480(18) 0.1295(5) 0.35023(16)
H5_4 H 0.124526 0.034996 0.321779
C5_4 C 0.09666(15) 0.2556(4) 0.36225(11)
C6_4 C 0.13020(13) 0.3901(3) 0.40443(10)
H6_4 H 0.097676 0.476826 0.413614
C12_4 C 0.11528(14) 0.7167(3) 0.51475(10)
C13_4 C 0.05538(13) 0.8637(3) 0.50713(10)
H1_4 H 0.991136 0.329305 0.352044
C2_4 C 0.85071(14) 0.2401(4) 0.30254(11)
H3_4 H 0.878127 0.257648 0.343505
C7_4 C 0.97467(15) 0.1607(4) 0.28716(12)
C8_4 C 0.88973(14) 0.1929(4) 0.26628(11)
C9_4 C 0.77029(14) 0.2637(4) 0.28051(10)
C10_4 C 0.72852(16) 0.3116(4) 0.31723(11)
H7_4 H 0.754934 0.329178 0.358337
C11_4 C 0.65100(16) 0.3331(4) 0.29475(12)
H8_4 H 0.623944 0.365928 0.320253
C14_4 C 0.98930(14) 0.8268(4) 0.51960(11)
H9_4 H 0.981671 0.707836 0.533132
C15_4 C 0.93465(14) 0.9623(3) 0.51239(11)
H10_4 H 0.889547 0.935655 0.520974
O4_4 O 0.49758(12) 0.4453(3) 0.23854(10)
N3_4 N 0.29423(11) 0.0968(3) 0.06738(9)
N4_4 N 0.48338(11) 0.2419(3) 0.16426(8)
H11_4 H 0.508864 0.170695 0.147956
C16_4 C 0.24850(16) 0.2184(4) 0.07990(14)
H12_4 H 0.194513 0.208717 0.060618
C17_4 C 0.64929(14) 0.2599(4) 0.19746(11)
H13_4 H 0.621873 0.242352 0.156495
C18_4 C 0.27752(19) 0.3577(5) 0.12004(19)
H14_4 H 0.243792 0.445335 0.127265
C19_4 C 0.35520(18) 0.3705(5) 0.14977(16)
H15_4 H 0.375474 0.465004 0.178221
C20_4 C 0.40334(15) 0.2444(4) 0.13775(11)
C21_4 C 0.36980(13) 0.1099(3) 0.09557(10)
H16_4 H 0.402324 0.023174 0.086386
C22_4 C 0.52533(15) 0.3393(4) 0.21284(12)
C23_4 C 0.61027(14) 0.3071(4) 0.23372(11)
C24_4 C 0.72971(14) 0.2363(4) 0.21949(10)
C25_4 C 0.77148(16) 0.1884(4) 0.18277(11)
H17_4 H 0.745066 0.170822 0.141663
C26_4 C 0.84900(16) 0.1669(4) 0.20525(12)
H18_4 H 0.876056 0.134072 0.179747
loop_
_geom_bond_atom_site_label_1
_geom_bond_atom_site_label_2
_geom_bond_site_symmetry_1
_geom_bond_site_symmetry_2
O6 C27 1_555 1_555
C27 C28 1_555 1_555
Zn1 O2 1_555 1_555
H19 C29 1_555 1_555
H20 C30 1_555 1_555
C29 C30 1_555 1_555
O3 C12 1_555 1_555
C12 C13 1_555 1_555
C13 C14 1_555 1_555
C14 H9 1_555 1_555
C15 C14 1_555 1_555
H10 C15 1_555 1_555
Zn2 O5 1_555 1_555
C14_2 H9_2 1_555 1_555
C15_2 C14_2 1_555 1_555
H10_2 C15_2 1_555 1_555
Zn2_2 O5_2 1_555 1_555
O3_2 C12_2 1_555 1_555
C12_2 C13_2 1_555 1_555
O7 Zn1_2 1_555 1_555
O6_2 C27_2 1_555 1_555
C27_2 C28_2 1_555 1_555
C29_2 C28_2 1_555 1_555
H19_2 C29_2 1_555 1_555
H20_2 C30_2 1_555 1_555
C29_2 C30_2 1_555 1_555
C2 H3 1_555 1_555
C8 C2 1_555 1_555
C9 C2 1_555 1_555
C10 C9 1_555 1_555
H7 C10 1_555 1_555
C11 C10 1_555 1_555
H8 C11 1_555 1_555
O4 C22 1_555 1_555
N3 C16 1_555 1_555
N4 H11 1_555 1_555
C16 H12 1_555 1_555
C17 H13 1_555 1_555
C18 C16 1_555 1_555
H14 C18 1_555 1_555
C19 C18 1_555 1_555
H15 C19 1_555 1_555
C20 N4 1_555 1_555
C21 N3 1_555 1_555
H16 C21 1_555 1_555
C22 N4 1_555 1_555
C23 C11 1_555 1_555
C24 C9 1_555 1_555
C25 C24 1_555 1_555
H17 C25 1_555 1_555
C26 C8 1_555 1_555
H18 C26 1_555 1_555
Zn3 N3 1_555 1_555
C7 C8 1_555 1_555
C17 C23 1_555 1_555
C17 C24 1_555 1_555
C19 C20 1_555 1_555
C20 C21 1_555 1_555
C22 C23 1_555 1_555
C25 C26 1_555 1_555
N3_2 C16_2 1_555 1_555
C16_2 H12_2 1_555 1_555
C18_2 C16_2 1_555 1_555
H14_2 C18_2 1_555 1_555
C19_2 C18_2 1_555 1_555
H15_2 C19_2 1_555 1_555
C20_2 N4_2 1_555 1_555
C21_2 N3_2 1_555 1_555
H16_2 C21_2 1_555 1_555
Zn3 N3_2 1_555 1_555
C19_2 C20_2 1_555 1_555
C20_2 C21_2 1_555 1_555
O5_3 C27_3 1_555 1_555
O6_3 C27_3 1_555 1_555
C27_3 C28_3 1_555 1_555
C29_3 C28_3 1_555 1_555
H19_3 C29_3 1_555 1_555
H20_3 C30_3 1_555 1_555
Zn3 O5_3 1_555 1_555
C29_3 C30_3 1_555 1_555
O5_4 C27_4 1_555 1_555
O6_4 C27_4 1_555 1_555
C27_4 C28_4 1_555 1_555
Zn3 O5_4 1_555 1_555
C1 N1 1_555 1_555
H2 C1 1_555 1_555
C3 C1 1_555 1_555
H4 C3 1_555 1_555
C4 C3 1_555 1_555
H5 C4 1_555 1_555
C5 N2 1_555 1_555
C6 N1 1_555 1_555
H6 C6 1_555 1_555
C4 C5 1_555 1_555
C5 C6 1_555 1_555
O1_2 C7_2 1_555 1_555
N2_2 H1_2 1_555 1_555
C1_2 N5 1_555 1_555
H2_2 C1_2 1_555 1_555
C2_2 H3_2 1_555 1_555
C3_2 C1_2 1_555 1_555
H4_2 C3_2 1_555 1_555
C4_2 C3_2 1_555 1_555
H5_2 C4_2 1_555 1_555
C5_2 N2_2 1_555 1_555
C6_2 N5 1_555 1_555
H6_2 C6_2 1_555 1_555
C7_2 N2_2 1_555 1_555
C8_2 C2_2 1_555 1_555
C9_2 C2_2 1_555 1_555
C10_2 C9_2 1_555 1_555
H7_2 C10_2 1_555 1_555
C11_2 C10_2 1_555 1_555
H8_2 C11_2 1_555 1_555
C17_2 H13_2 1_555 1_555
C23_2 C11_2 1_555 1_555
C24_2 C9_2 1_555 1_555
C25_2 C24_2 1_555 1_555
H17_2 C25_2 1_555 1_555
C26_2 C8_2 1_555 1_555
H18_2 C26_2 1_555 1_555
C4_2 C5_2 1_555 1_555
C5_2 C6_2 1_555 1_555
C7_2 C8_2 1_555 1_555
C17_2 C23_2 1_555 1_555
C17_2 C24_2 1_555 1_555
C22_2 C23_2 1_555 1_555
C25_2 C26_2 1_555 1_555
H19_4 C29_4 1_555 1_555
H20_4 C30_4 1_555 1_555
C29_4 C30_4 1_555 1_555
N3_3 C16_3 1_555 1_555
C16_3 H12_3 1_555 1_555
C18_3 C16_3 1_555 1_555
H14_3 C18_3 1_555 1_555
C19_3 C18_3 1_555 1_555
H15_3 C19_3 1_555 1_555
C20_3 N4_3 1_555 1_555
C21_3 N3_3 1_555 1_555
H16_3 C21_3 1_555 1_555
C19_3 C20_3 1_555 1_555
C20_3 C21_3 1_555 1_555
Zn1_3 O2_2 1_555 1_555
O1_3 C7_3 1_555 1_555
O2_2 C12_3 1_555 1_555
O3_3 C12_3 1_555 1_555
N1_2 Zn1_3 1_555 1_555
N2_3 H1_3 1_555 1_555
C1_3 N1_2 1_555 1_555
H2_3 C1_3 1_555 1_555
C2_3 H3_3 1_555 1_555
C3_3 C1_3 1_555 1_555
H4_3 C3_3 1_555 1_555
C4_3 C3_3 1_555 1_555
H5_3 C4_3 1_555 1_555
C5_3 N2_3 1_555 1_555
C6_3 N1_2 1_555 1_555
H6_3 C6_3 1_555 1_555
C7_3 N2_3 1_555 1_555
C8_3 C2_3 1_555 1_555
C9_3 C2_3 1_555 1_555
C10_3 C9_3 1_555 1_555
H7_3 C10_3 1_555 1_555
C11_3 C10_3 1_555 1_555
H8_3 C11_3 1_555 1_555
C12_3 C13_3 1_555 1_555
C13_3 C14_3 1_555 1_555
C14_3 H9_3 1_555 1_555
C15_3 C14_3 1_555 1_555
H10_3 C15_3 1_555 1_555
C17_3 H13_3 1_555 1_555
C23_3 C11_3 1_555 1_555
C24_3 C9_3 1_555 1_555
C25_3 C24_3 1_555 1_555
H17_3 C25_3 1_555 1_555
C26_3 C8_3 1_555 1_555
H18_3 C26_3 1_555 1_555
O7_2 Zn1_3 1_555 1_555
N5_2 Zn1_3 1_555 1_555
C4_3 C5_3 1_555 1_555
C5_3 C6_3 1_555 1_555
C7_3 C8_3 1_555 1_555
C17_3 C23_3 1_555 1_555
C17_3 C24_3 1_555 1_555
C22_3 C23_3 1_555 1_555
C25_3 C26_3 1_555 1_555
O7_2 C12_4 1_555 1_555
O3_4 C12_4 1_555 1_555
C1_4 N5_2 1_555 1_555
H2_4 C1_4 1_555 1_555
C3_4 C1_4 1_555 1_555
H4_4 C3_4 1_555 1_555
C4_4 C3_4 1_555 1_555
H5_4 C4_4 1_555 1_555
C5_4 N2_4 1_555 1_555
C6_4 N5_2 1_555 1_555
H6_4 C6_4 1_555 1_555
C12_4 C13_4 1_555 1_555
C4_4 C5_4 1_555 1_555
C5_4 C6_4 1_555 1_555
C2_4 H3_4 1_555 1_555
C8_4 C2_4 1_555 1_555
C9_4 C2_4 1_555 1_555
C10_4 C9_4 1_555 1_555
H7_4 C10_4 1_555 1_555
C11_4 C10_4 1_555 1_555
H8_4 C11_4 1_555 1_555
C14_4 H9_4 1_555 1_555
C15_4 C14_4 1_555 1_555
H10_4 C15_4 1_555 1_555
O4_4 C22_4 1_555 1_555
N3_4 C16_4 1_555 1_555
N4_4 H11_4 1_555 1_555
C16_4 H12_4 1_555 1_555
C17_4 H13_4 1_555 1_555
C18_4 C16_4 1_555 1_555
H14_4 C18_4 1_555 1_555
C19_4 C18_4 1_555 1_555
H15_4 C19_4 1_555 1_555
C20_4 N4_4 1_555 1_555
C21_4 N3_4 1_555 1_555
H16_4 C21_4 1_555 1_555
C22_4 N4_4 1_555 1_555
C23_4 C11_4 1_555 1_555
C24_4 C9_4 1_555 1_555
C25_4 C24_4 1_555 1_555
H17_4 C25_4 1_555 1_555
C26_4 C8_4 1_555 1_555
H18_4 C26_4 1_555 1_555
C7_4 C8_4 1_555 1_555
C17_4 C23_4 1_555 1_555
C17_4 C24_4 1_555 1_555
C19_4 C20_4 1_555 1_555
C20_4 C21_4 1_555 1_555
C22_4 C23_4 1_555 1_555
C25_4 C26_4 1_555 1_555

#END
