
###############################################################################
#
# This file contains modified crystal structure data generated from the
# MOF subset of the Cambridge Structural Database (CSD) v543 
# hosted by the Cambridge Crystallographic Data Centre (CCDC).
#
# This work is licensed under the Creative Commons
# Attribution-NonCommercial-ShareAlike 4.0 International License.
# To view a copy of this license, visit
# http://creativecommons.org/licenses/by-nc-sa/4.0/
# or send a letter to
# Creative Commons, PO Box 1866, Mountain View, CA 94042, USA.
#
# CIF created using the CSD Python API on 29 September 2022
# The structure has been converted into the P1 space group
# The structure has a 3D framework
# The original CSD entry VIWKOD is in the monoclinic crystal system
# The framework has been calculated to contain at least 10.0% void space
# The void calculation uses a probe of radius 1.32A, grid spacing 0.4
# The framework is charged, counterions have been retained in the structure
# H atom positions have been added when not included in the experimental data
# Generated hydrogen atom positions removed from atoms on special positions
#
###############################################################################

data_VIWKOD
_chemical_formula_moiety         '(C100 H192 Ce8 Cu8 O130)n'
_symmetry_cell_setting           triclinic
_symmetry_space_group_name_H-M   'P 1'
_symmetry_Int_Tables_number      1
_space_group_name_Hall           'P 1'
loop_
_symmetry_equiv_pos_site_id
_symmetry_equiv_pos_as_xyz
1 x,y,z
_cell_length_a                   10.994(2)
_cell_length_b                   23.098(5)
_cell_length_c                   19.838(4)
_cell_angle_alpha                90
_cell_angle_beta                 99.89(3)
_cell_angle_gamma                90
_cell_volume                     4962.79
loop_
_atom_site_label
_atom_site_type_symbol
_atom_site_fract_x
_atom_site_fract_y
_atom_site_fract_z
O70 O 0.0080(4) 0.2085(2) 0.0966(2)
O72 O 0.0935(5) 0.1443(2) 0.1723(3)
Ce8 Ce 0.03963(3) 0.354718(12) 0.898967(15)
Ce2 Ce 0.85265(3) 0.144201(14) 0.145959(17)
C25 C 0.7088(5) 0.2609(3) 0.0350(3)
O19 O 0.7401(4) 0.2164(2) 0.0700(2)
O20 O 0.7242(4) 0.3120(2) 0.05621(19)
O25 O 0.6604(6) 0.1770(3) 0.1953(4)
O26 O 0.8767(11) 0.1068(4) 0.2674(4)
O27 O 0.9253(10) 0.0393(3) 0.1582(5)
O28 O 0.6709(8) 0.0810(4) 0.1003(6)
O29 O 0.8915(8) 0.1043(3) 0.0347(3)
Cu8 Cu 0.80292(6) 0.32070(3) 0.15118(3)
O76 O 0.9101(4) 0.2271(2) 0.2220(2)
Cu1 Cu 0.09132(6) 0.17861(3) 0.89849(3)
Cu2 Cu 0.30292(6) 0.17930(3) 0.65118(3)
C10 C 0.0463(5) 0.1739(3) 0.6643(3)
C13 C 0.0492(5) 0.0489(3) 0.4751(4)
H3 H 0.0818 0.0821 0.4585
C16 C 0.4634(5) 0.2096(2) 0.8901(3)
C17 C 0.4922(5) 0.2410(3) 0.8341(3)
C18 C 0.5928(5) 0.2785(3) 0.8439(3)
H4 H 0.6101 0.3003 0.8073
C19 C 0.6674(5) 0.2840(3) 0.9072(3)
C20 C 0.6392(5) 0.2532(3) 0.9636(3)
C21 C 0.5367(5) 0.2160(3) 0.9543(3)
H5 H 0.5175 0.1955 0.9914
C22 C 0.3501(5) 0.1722(3) 0.8866(3)
C23 C 0.4232(4) 0.2315(3) 0.7633(3)
C24 C 0.7875(5) 0.3167(3) 0.9127(3)
O6 O 0.0073(4) 0.17959(19) 0.8030(2)
O7 O 0.1444(3) 0.20324(19) 0.6789(2)
O8 O 0.0392(4) 0.1214(2) 0.6509(3)
O13 O 0.2479(4) 0.1974(2) 0.8665(2)
O14 O 0.3619(5) 0.1216(2) 0.9062(3)
O15 O 0.3857(4) 0.18114(19) 0.7468(2)
O16 O 0.4101(4) 0.2729(2) 0.7220(2)
O17 O 0.7962(4) 0.3613(2) 0.8774(3)
O18 O 0.8811(3) 0.2957(2) 0.9510(2)
O31 O 0.1142(10) 0.0842(5) 0.9057(5)
O32 O 0.2697(5) 0.0843(3) 0.6501(3)
O33 O 0.4704(4) 0.1789(2) 0.6203(2)
C26 C 0.1263(5) 0.0037(3) 0.4989(3)
C29 C 0.2612(5) 0.0097(3) 0.4919(3)
O34 O 0.3296(4) 0.0397(2) 0.5370(3)
Ce12 Ce 0.35265(3) 0.355799(14) 0.645959(17)
O68 O 0.1736(4) 0.1884(2) 0.9935(2)
O82 O 0.2242(4) 0.1880(2) 0.55621(19)
C27 C 0.0784(5) 0.9545(3) 0.5243(4)
C30 C 0.1577(6) 0.9050(3) 0.5538(5)
O35 O 0.2976(4) 0.9874(2) 0.4414(3)
O36 O 0.2729(4) 0.9108(2) 0.5603(3)
O37 O 0.1053(6) 0.8614(3) 0.5720(7)
Ce3 Ce 0.46037(3) 0.854718(12) 0.601033(15)
C31 C 0.2472(4) 0.7497(3) 0.4150(2)
C32 C 0.2789(5) 0.7199(2) 0.3584(3)
C33 C 0.2065(5) 0.7260(3) 0.2942(3)
H7 H 0.2270 0.7059 0.2571
C34 C 0.1031(4) 0.7621(2) 0.2849(3)
C35 C 0.0710(5) 0.7915(2) 0.3408(3)
C36 C 0.1429(5) 0.7850(3) 0.4056(3)
H8 H 0.1210 0.8045 0.4428
C37 C 0.3152(4) 0.7402(3) 0.4863(2)
C38 C 0.3987(5) 0.6878(3) 0.3635(3)
C39 C 0.0350(5) 0.7709(3) 0.2137(3)
O38 O 0.3528(4) 0.7834(2) 0.5218(2)
O39 O 0.3264(4) 0.6884(2) 0.5065(2)
O40 O 0.4920(4) 0.7085(2) 0.4034(2)
O41 O 0.4065(5) 0.6443(2) 0.3277(3)
O42 O 0.0267(4) 0.7287(2) 0.1733(2)
O54 O 0.4771(4) 0.89755(19) 0.4820(2)
O55 O 0.5170(5) 0.9615(2) 0.6129(3)
O56 O 0.4785(6) 0.8917(3) 0.7230(3)
O57 O 0.2798(4) 0.8132(2) 0.6550(3)
O63 O 0.0707(4) 0.8192(2) 0.0679(2)
Ce10 Ce 0.64735(3) 0.644201(14) 0.354041(17)
Cu5 Cu 0.40868(6) 0.67861(3) 0.60151(3)
O73 O 0.5267(4) 0.7713(2) 0.6733(2)
O77 O 0.7038(4) 0.8613(2) 0.6226(3)
O79 O 0.6189(3) 0.7957(2) 0.5490(2)
Ce1 Ce 0.53963(3) 0.145282(12) 0.398967(15)
C1 C 0.7528(4) 0.2503(3) 0.5850(2)
C2 C 0.7211(5) 0.2801(2) 0.6416(3)
C3 C 0.7935(5) 0.2740(3) 0.7058(3)
H1 H 0.7730 0.2941 0.7429
C4 C 0.8969(4) 0.2379(2) 0.7151(3)
C5 C 0.9290(5) 0.2085(2) 0.6592(3)
C6 C 0.8571(5) 0.2150(3) 0.5944(3)
H2 H 0.8790 0.1955 0.5572
C7 C 0.6848(4) 0.2598(3) 0.5137(2)
C8 C 0.6013(5) 0.3122(3) 0.6365(3)
C9 C 0.9650(5) 0.2291(3) 0.7863(3)
C12 C 0.9216(5) 0.0455(3) 0.4757(4)
C15 C 0.8423(6) 0.0950(3) 0.4462(5)
O1 O 0.6472(4) 0.2166(2) 0.4782(2)
O2 O 0.6736(4) 0.3116(2) 0.4935(2)
O3 O 0.5080(4) 0.2915(2) 0.5966(2)
O4 O 0.5935(5) 0.3557(2) 0.6723(3)
O5 O 0.9733(4) 0.2713(2) 0.8267(2)
O10 O 0.7024(4) 0.0126(2) 0.5586(3)
O11 O 0.7271(4) 0.0892(2) 0.4397(3)
O12 O 0.8947(6) 0.1386(3) 0.4280(7)
O21 O 0.5229(4) 0.10245(19) 0.5180(2)
O22 O 0.4830(5) 0.0385(2) 0.3871(3)
O23 O 0.5215(6) 0.1083(3) 0.2770(3)
O24 O 0.7202(4) 0.1868(2) 0.3450(3)
O30 O 0.9293(4) 0.1808(2) 0.9321(2)
Cu6 Cu 0.59132(6) 0.32139(3) 0.39849(3)
O74 O 0.4733(4) 0.2287(2) 0.3267(2)
O78 O 0.2962(4) 0.1387(2) 0.3774(3)
O80 O 0.3811(3) 0.2043(2) 0.4510(2)
C11 C 0.8737(5) 0.9963(3) 0.5011(3)
C14 C 0.7388(5) 0.9903(3) 0.5081(3)
O9 O 0.6704(4) 0.9603(2) 0.4630(3)
C28 C 0.9508(5) 0.9511(3) 0.5249(4)
H6 H 0.9182 0.9179 0.5415
Cu3 Cu 0.90868(6) 0.82139(3) 0.10151(3)
Cu4 Cu 0.69708(6) 0.82070(3) 0.34882(3)
C40 C 0.9537(5) 0.8261(3) 0.3357(3)
C41 C 0.5366(5) 0.7904(2) 0.1099(3)
C42 C 0.5078(5) 0.7590(3) 0.1659(3)
C43 C 0.4072(5) 0.7215(3) 0.1561(3)
H9 H 0.3899 0.6997 0.1927
C44 C 0.3326(5) 0.7160(3) 0.0928(3)
C45 C 0.3608(5) 0.7468(3) 0.0364(3)
C46 C 0.4633(5) 0.7840(3) 0.0457(3)
H10 H 0.4825 0.8045 0.0086
C47 C 0.6499(5) 0.8278(3) 0.1134(3)
C48 C 0.5768(4) 0.7685(3) 0.2367(3)
C49 C 0.2125(5) 0.6833(3) 0.0873(3)
O43 O 0.9927(4) 0.82041(19) 0.1970(2)
O44 O 0.8556(3) 0.79676(19) 0.3211(2)
O45 O 0.9608(4) 0.8786(2) 0.3491(3)
O46 O 0.7521(4) 0.8026(2) 0.1335(2)
O47 O 0.6381(5) 0.8784(2) 0.0938(3)
O48 O 0.6143(4) 0.81886(19) 0.2532(2)
O49 O 0.5899(4) 0.7271(2) 0.2780(2)
O50 O 0.2038(4) 0.6387(2) 0.1226(3)
O51 O 0.1189(3) 0.7043(2) 0.0490(2)
O64 O 0.8858(10) 0.9158(5) 0.0943(5)
O65 O 0.7303(5) 0.9157(3) 0.3499(3)
O66 O 0.5296(4) 0.8211(2) 0.3797(2)
Ce6 Ce 0.96037(3) 0.645282(12) 0.101033(15)
O67 O 0.8264(4) 0.8116(2) 0.0065(2)
O81 O 0.7758(4) 0.8120(2) 0.44379(19)
Ce4 Ce 0.14735(3) 0.855799(14) 0.854041(17)
C50 C 0.2912(5) 0.7391(3) 0.9650(3)
O52 O 0.2599(4) 0.7836(2) 0.9300(2)
O53 O 0.2758(4) 0.6880(2) 0.94379(19)
O58 O 0.3396(6) 0.8230(3) 0.8047(4)
O59 O 0.1233(11) 0.8932(4) 0.7326(4)
O60 O 0.0747(10) 0.9607(3) 0.8418(5)
O61 O 0.3291(8) 0.9190(4) 0.8997(6)
O62 O 0.1085(8) 0.8957(3) 0.9653(3)
Cu7 Cu 0.19708(6) 0.67930(3) 0.84882(3)
O75 O 0.0899(4) 0.7729(2) 0.7780(2)
O69 O 0.9920(4) 0.7915(2) 0.9034(2)
O71 O 0.9065(5) 0.8557(2) 0.8277(3)
O22_2 O 0.0170(5) 0.5385(2) 0.1129(3)
C43_2 C 0.0928(5) 0.2215(3) 0.3439(3)
H9_2 H 0.1101 0.1997 0.3073
C44_2 C 0.1674(5) 0.2160(3) 0.4072(3)
C45_2 C 0.1392(5) 0.2468(3) 0.4636(3)
C46_2 C 0.0367(5) 0.2840(3) 0.4543(3)
H10_2 H 0.0175 0.3045 0.4914
C49_2 C 0.2875(5) 0.1833(3) 0.4127(3)
C50_2 C 0.2088(5) 0.2391(3) 0.5350(3)
O52_2 O 0.2401(4) 0.2836(2) 0.5700(2)
O58_2 O 0.1604(6) 0.3230(3) 0.6953(4)
O59_2 O 0.3767(11) 0.3932(4) 0.7674(4)
O60_2 O 0.4253(10) 0.4607(3) 0.6582(5)
O61_2 O 0.1709(8) 0.4190(4) 0.6003(6)
O62_2 O 0.3915(8) 0.3957(3) 0.5347(3)
H18 H 0.0397364 0.576337 0.230526
H13 H 0.0216457 0.630133 0.956657
H14 H 0.0230473 0.565276 0.988069
C12_2 C 0.5784(5) 0.5455(3) 0.0243(4)
C13_2 C 0.4508(5) 0.5489(3) 0.0249(4)
H3_2 H 0.4182 0.5821 0.0415
C15_2 C 0.6577(6) 0.5950(3) 0.0538(5)
O1_2 O 0.8528(4) 0.7166(2) 0.0218(2)
O9_2 O 0.8296(4) 0.4603(2) 0.0370(3)
O11_2 O 0.7729(4) 0.5892(2) 0.0603(3)
O12_2 O 0.6053(6) 0.6386(3) 0.0720(7)
O23_2 O 0.9785(6) 0.6083(3) 0.2230(3)
O24_2 O 0.7798(4) 0.6868(2) 0.1550(3)
C26_2 C 0.3737(5) 0.5037(3) 0.0011(3)
C29_2 C 0.2388(5) 0.5097(3) 0.0081(3)
O35_2 O 0.2024(4) 0.4874(2) 0.0586(3)
C31_2 C 0.2528(4) 0.2497(3) 0.0850(2)
C32_2 C 0.2211(5) 0.2199(2) 0.1416(3)
C33_2 C 0.2935(5) 0.2260(3) 0.2058(3)
H7_2 H 0.2730 0.2059 0.2429
C34_2 C 0.3969(4) 0.2621(2) 0.2151(3)
C35_2 C 0.4290(5) 0.2915(2) 0.1592(3)
C36_2 C 0.3571(5) 0.2850(3) 0.0944(3)
H8_2 H 0.3790 0.3045 0.0572
C37_2 C 0.1848(4) 0.2402(3) 0.0137(2)
C38_2 C 0.1013(5) 0.1878(3) 0.1365(3)
C39_2 C 0.4650(5) 0.2709(3) 0.2863(3)
C40_2 C 0.5463(5) 0.3261(3) 0.1643(3)
C41_2 C 0.9634(5) 0.2904(2) 0.3901(3)
C42_2 C 0.9922(5) 0.2590(3) 0.3341(3)
C47_2 C 0.8501(5) 0.3278(3) 0.3866(3)
C48_2 C 0.9232(4) 0.2685(3) 0.2633(3)
O43_2 O 0.5073(4) 0.32041(19) 0.3030(2)
O44_2 O 0.6444(3) 0.29676(19) 0.1789(2)
O45_2 O 0.5392(4) 0.3786(2) 0.1509(3)
O46_2 O 0.7479(4) 0.3026(2) 0.3665(2)
O47_2 O 0.8619(5) 0.3784(2) 0.4062(3)
O48_2 O 0.8857(4) 0.31886(19) 0.2468(2)
O54_2 O 0.0229(4) 0.39755(19) 0.0180(2)
O63_2 O 0.4293(4) 0.3192(2) 0.4321(2)
O64_2 O 0.6142(10) 0.4158(5) 0.4057(5)
O65_2 O 0.7697(5) 0.4157(3) 0.1501(3)
O66_2 O 0.9704(4) 0.3211(2) 0.1203(2)
H17 H 0.896918 0.593813 0.230636
H41 H 0.0266288 0.440456 0.0159545
H49 H 0.96272 0.302639 0.0745587
H50 H 0.999179 0.361648 0.117584
C1_2 C 0.7472(4) 0.7503(3) 0.9150(2)
C2_2 C 0.7789(5) 0.7801(2) 0.8584(3)
C3_2 C 0.7065(5) 0.7740(3) 0.7942(3)
H1_2 H 0.7270 0.7941 0.7571
C4_2 C 0.6031(4) 0.7379(2) 0.7849(3)
C5_2 C 0.5710(5) 0.7085(2) 0.8408(3)
C6_2 C 0.6429(5) 0.7150(3) 0.9056(3)
H2_2 H 0.6210 0.6955 0.9428
C7_2 C 0.8152(4) 0.7598(3) 0.9863(2)
C8_2 C 0.8987(5) 0.8122(3) 0.8635(3)
C9_2 C 0.5350(5) 0.7291(3) 0.7137(3)
C10_2 C 0.4537(5) 0.6739(3) 0.8357(3)
C11_2 C 0.6263(5) 0.4963(3) 0.9989(3)
C14_2 C 0.7612(5) 0.4903(3) 0.9919(3)
C16_2 C 0.0366(5) 0.7096(2) 0.6099(3)
C17_2 C 0.0078(5) 0.7410(3) 0.6659(3)
C22_2 C 0.1499(5) 0.6722(3) 0.6134(3)
C23_2 C 0.0768(4) 0.7315(3) 0.7367(3)
O6_2 O 0.4927(4) 0.67959(19) 0.6970(2)
O7_2 O 0.3556(3) 0.70324(19) 0.8211(2)
O8_2 O 0.4608(4) 0.6214(2) 0.8491(3)
O10_2 O 0.7976(4) 0.5126(2) 0.9414(3)
O13_2 O 0.2521(4) 0.6974(2) 0.6335(2)
O14_2 O 0.1381(5) 0.6216(2) 0.5938(3)
O15_2 O 0.1143(4) 0.68114(19) 0.7532(2)
O21_2 O 0.9771(4) 0.60245(19) 0.9820(2)
O30_2 O 0.5707(4) 0.6808(2) 0.5679(2)
O31_2 O 0.3858(10) 0.5842(5) 0.5943(5)
O32_2 O 0.2303(5) 0.5843(3) 0.8499(3)
O33_2 O 0.0296(4) 0.6789(2) 0.8797(2)
C27_2 C 0.4216(5) 0.4545(3) 0.9757(4)
C28_2 C 0.5492(5) 0.4511(3) 0.9751(4)
H6_2 H 0.5818 0.4179 0.9585
C30_2 C 0.3423(6) 0.4050(3) 0.9462(5)
O34_2 O 0.1704(4) 0.5397(2) 0.9630(3)
O36_2 O 0.2271(4) 0.4108(2) 0.9397(3)
O37_2 O 0.3947(6) 0.3614(3) 0.9280(7)
O38_2 O 0.1472(4) 0.2834(2) 0.9782(2)
O56_2 O 0.0215(6) 0.3917(3) 0.7770(3)
O57_2 O 0.2202(4) 0.3132(2) 0.8450(3)
H32 H 0.000821104 0.638352 0.882416
H37 H 0.0327267 0.480483 0.856056
H39 H 0.0966846 0.380817 0.758464
H42 H 0.943331 0.385561 0.031007
C18_2 C 0.9072(5) 0.7785(3) 0.6561(3)
H4_2 H 0.8899 0.8003 0.6927
C19_2 C 0.8326(5) 0.7840(3) 0.5928(3)
C20_2 C 0.8608(5) 0.7532(3) 0.5364(3)
C21_2 C 0.9633(5) 0.7160(3) 0.5457(3)
H5_2 H 0.9825 0.6955 0.5086
C24_2 C 0.7125(5) 0.8167(3) 0.5873(3)
C25_2 C 0.7912(5) 0.7609(3) 0.4650(3)
O19_2 O 0.7599(4) 0.7164(2) 0.4300(2)
O25_2 O 0.8396(6) 0.6770(3) 0.3047(4)
O26_2 O 0.6233(11) 0.6068(4) 0.2326(4)
O27_2 O 0.5747(10) 0.5393(3) 0.3418(5)
O28_2 O 0.8291(8) 0.5810(4) 0.3997(6)
O29_2 O 0.6085(8) 0.6043(3) 0.4653(3)
O55_2 O 0.9830(5) 0.4615(2) 0.8871(3)
H31 H 0.969092 0.700792 0.84629
H40 H 0.9478 0.374233 0.748238
H31_2 H 0.0309081 0.299208 0.15371
H40_2 H 0.0522003 0.625767 0.251762
H42_2 H 0.0566691 0.614439 0.968993
H37_2 H 0.967273 0.519517 0.143944
H39_2 H 0.903315 0.619183 0.241536
H17_2 H 0.103082 0.406187 0.769364
H41_2 H 0.973371 0.559544 0.984046
H49_2 H 0.0372805 0.697361 0.925441
H13_2 H 0.978354 0.369867 0.0433433
H14_2 H 0.976953 0.434724 0.0119314
H18_2 H 0.960264 0.423663 0.769474
loop_
_geom_bond_atom_site_label_1
_geom_bond_atom_site_label_2
_geom_bond_site_symmetry_1
_geom_bond_site_symmetry_2
Ce2 O19 1_555 1_555
O19 C25 1_555 1_555
O20 C25 1_555 1_555
O25 Ce2 1_555 1_555
O26 Ce2 1_555 1_555
O27 Ce2 1_555 1_555
O28 Ce2 1_555 1_555
O29 Ce2 1_555 1_555
Cu8 O20 1_555 1_555
O76 Ce2 1_555 1_555
Cu8 O76 1_555 1_555
Cu2 O7 1_555 1_555
C13 H3 1_555 1_555
C16 C17 1_555 1_555
C17 C18 1_555 1_555
C18 H4 1_555 1_555
C19 C18 1_555 1_555
C20 C19 1_555 1_555
C21 C16 1_555 1_555
H5 C21 1_555 1_555
C22 C16 1_555 1_555
C23 C17 1_555 1_555
C24 C19 1_555 1_555
O6 Cu1 1_555 1_555
O7 C10 1_555 1_555
O8 C10 1_555 1_555
O13 Cu1 1_555 1_555
O14 C22 1_555 1_555
O15 Cu2 1_555 1_555
O16 Cu2 1_555 1_555
O17 C24 1_555 1_555
O18 C24 1_555 1_555
O31 Cu1 1_555 1_555
O32 Cu2 1_555 1_555
O33 Cu2 1_555 1_555
C26 C13 1_555 1_555
C29 C26 1_555 1_555
O34 C29 1_555 1_555
Ce12 O16 1_555 1_555
O68 Cu1 1_555 1_555
O82 Cu2 1_555 1_555
C20 C21 1_555 1_555
C22 O13 1_555 1_555
C23 O15 1_555 1_555
C23 O16 1_555 1_555
C30 C27 1_555 1_555
O36 C30 1_555 1_555
O37 C30 1_555 1_555
Ce3 O36 1_555 1_555
C31 C32 1_555 1_555
C32 C33 1_555 1_555
C33 H7 1_555 1_555
C34 C33 1_555 1_555
C35 C34 1_555 1_555
C36 C31 1_555 1_555
H8 C36 1_555 1_555
C37 C31 1_555 1_555
C38 C32 1_555 1_555
C39 C34 1_555 1_555
O38 Ce3 1_555 1_555
O39 C37 1_555 1_555
O40 C38 1_555 1_555
O41 C38 1_555 1_555
O42 C39 1_555 1_555
O54 Ce3 1_555 1_555
O55 Ce3 1_555 1_555
O56 Ce3 1_555 1_555
O57 Ce3 1_555 1_555
Ce10 O40 1_555 1_555
Cu5 O39 1_555 1_555
O73 Ce3 1_555 1_555
O77 Ce3 1_555 1_555
O79 Ce3 1_555 1_555
C35 C36 1_555 1_555
C37 O38 1_555 1_555
O41 Ce10 1_555 1_555
Cu5 O73 1_555 1_555
Ce1 O1 1_555 1_555
C1 C2 1_555 1_555
C2 C3 1_555 1_555
C3 H1 1_555 1_555
C4 C3 1_555 1_555
C5 C4 1_555 1_555
C6 C1 1_555 1_555
H2 C6 1_555 1_555
C7 C1 1_555 1_555
C8 C2 1_555 1_555
C9 C4 1_555 1_555
C15 C12 1_555 1_555
O1 C7 1_555 1_555
O2 C7 1_555 1_555
O3 C8 1_555 1_555
O4 C8 1_555 1_555
O5 C9 1_555 1_555
O11 Ce1 1_555 1_555
O12 C15 1_555 1_555
O21 Ce1 1_555 1_555
O22 Ce1 1_555 1_555
O23 Ce1 1_555 1_555
O24 Ce1 1_555 1_555
Ce12 O3 1_555 1_555
Cu6 O2 1_555 1_555
O74 Ce1 1_555 1_555
O78 Ce1 1_555 1_555
O80 Ce1 1_555 1_555
C5 C6 1_555 1_555
C15 O11 1_555 1_555
O4 Ce12 1_555 1_555
Cu6 O74 1_555 1_555
C14 C11 1_555 1_555
O9 C14 1_555 1_555
C28 C11 1_555 1_555
H6 C28 1_555 1_555
Cu4 O44 1_555 1_555
C41 C42 1_555 1_555
C42 C43 1_555 1_555
C43 H9 1_555 1_555
C44 C43 1_555 1_555
C45 C44 1_555 1_555
C46 C41 1_555 1_555
H10 C46 1_555 1_555
C47 C41 1_555 1_555
C48 C42 1_555 1_555
C49 C44 1_555 1_555
O43 Cu3 1_555 1_555
O44 C40 1_555 1_555
O45 C40 1_555 1_555
O46 Cu3 1_555 1_555
O47 C47 1_555 1_555
O48 Cu4 1_555 1_555
O49 Cu4 1_555 1_555
O50 C49 1_555 1_555
O51 C49 1_555 1_555
O64 Cu3 1_555 1_555
O65 Cu4 1_555 1_555
O66 Cu4 1_555 1_555
Ce10 O49 1_555 1_555
O67 Cu3 1_555 1_555
O81 Cu4 1_555 1_555
C45 C46 1_555 1_555
C47 O46 1_555 1_555
C48 O48 1_555 1_555
C48 O49 1_555 1_555
Ce4 O52 1_555 1_555
O52 C50 1_555 1_555
O53 C50 1_555 1_555
O58 Ce4 1_555 1_555
O59 Ce4 1_555 1_555
O60 Ce4 1_555 1_555
O61 Ce4 1_555 1_555
O62 Ce4 1_555 1_555
Cu7 O53 1_555 1_555
O75 Ce4 1_555 1_555
Cu7 O75 1_555 1_555
Ce12 O52_2 1_555 1_555
C43_2 H9_2 1_555 1_555
C44_2 C43_2 1_555 1_555
C45_2 C44_2 1_555 1_555
H10_2 C46_2 1_555 1_555
C49_2 C44_2 1_555 1_555
C50_2 C45_2 1_555 1_555
O78 C49_2 1_555 1_555
O80 C49_2 1_555 1_555
O52_2 C50_2 1_555 1_555
O82 C50_2 1_555 1_555
O58_2 Ce12 1_555 1_555
O59_2 Ce12 1_555 1_555
O60_2 Ce12 1_555 1_555
O61_2 Ce12 1_555 1_555
O62_2 Ce12 1_555 1_555
C45_2 C46_2 1_555 1_555
Ce6 O1_2 1_555 1_555
C12_2 C13_2 1_555 1_555
C13_2 H3_2 1_555 1_555
C15_2 C12_2 1_555 1_555
O11_2 Ce6 1_555 1_555
O12_2 C15_2 1_555 1_555
O23_2 Ce6 1_555 1_555
O24_2 Ce6 1_555 1_555
C26_2 C13_2 1_555 1_555
C29_2 C26_2 1_555 1_555
O35_2 C29_2 1_555 1_555
Cu8 O44_2 1_555 1_555
C31_2 C32_2 1_555 1_555
C32_2 C33_2 1_555 1_555
C33_2 H7_2 1_555 1_555
C34_2 C33_2 1_555 1_555
C35_2 C34_2 1_555 1_555
C36_2 C31_2 1_555 1_555
H8_2 C36_2 1_555 1_555
C37_2 C31_2 1_555 1_555
C38_2 C32_2 1_555 1_555
C39_2 C34_2 1_555 1_555
C40_2 C35_2 1_555 1_555
C41_2 C42_2 1_555 1_555
C47_2 C41_2 1_555 1_555
C48_2 C42_2 1_555 1_555
O70 C38_2 1_555 1_555
O72 C38_2 1_555 1_555
O74 C39_2 1_555 1_555
O43_2 Cu6 1_555 1_555
O44_2 C40_2 1_555 1_555
O45_2 C40_2 1_555 1_555
O46_2 Cu6 1_555 1_555
O47_2 C47_2 1_555 1_555
O48_2 Cu8 1_555 1_555
O63_2 Cu6 1_555 1_555
O64_2 Cu6 1_555 1_555
O65_2 Cu8 1_555 1_555
O66_2 Cu8 1_555 1_555
C15_2 O11_2 1_555 1_555
C35_2 C36_2 1_555 1_555
C39_2 O43_2 1_555 1_555
C47_2 O46_2 1_555 1_555
C48_2 O48_2 1_555 1_555
C48_2 O76 1_555 1_555
O23_2 H17 1_555 1_555
O54_2 H41 1_555 1_555
O66_2 H49 1_555 1_555
O66_2 H50 1_555 1_555
Cu7 O7_2 1_555 1_555
C1_2 C2_2 1_555 1_555
C2_2 C3_2 1_555 1_555
C3_2 H1_2 1_555 1_555
C4_2 C3_2 1_555 1_555
C5_2 C4_2 1_555 1_555
C6_2 C1_2 1_555 1_555
H2_2 C6_2 1_555 1_555
C7_2 C1_2 1_555 1_555
C8_2 C2_2 1_555 1_555
C9_2 C4_2 1_555 1_555
C10_2 C5_2 1_555 1_555
C14_2 C11_2 1_555 1_555
C16_2 C17_2 1_555 1_555
C22_2 C16_2 1_555 1_555
C23_2 C17_2 1_555 1_555
O69 C8_2 1_555 1_555
O71 C8_2 1_555 1_555
O73 C9_2 1_555 1_555
O6_2 Cu5 1_555 1_555
O7_2 C10_2 1_555 1_555
O8_2 C10_2 1_555 1_555
O10_2 C14_2 1_555 1_555
O13_2 Cu5 1_555 1_555
O14_2 C22_2 1_555 1_555
O15_2 Cu7 1_555 1_555
O30_2 Cu5 1_555 1_555
O31_2 Cu5 1_555 1_555
O32_2 Cu7 1_555 1_555
O33_2 Cu7 1_555 1_555
C28_2 C11_2 1_555 1_555
H6_2 C28_2 1_555 1_555
C30_2 C27_2 1_555 1_555
O36_2 C30_2 1_555 1_555
O37_2 C30_2 1_555 1_555
Ce8 O36_2 1_555 1_555
O38_2 Ce8 1_555 1_555
O56_2 Ce8 1_555 1_555
O57_2 Ce8 1_555 1_555
C5_2 C6_2 1_555 1_555
C9_2 O6_2 1_555 1_555
C22_2 O13_2 1_555 1_555
C23_2 O15_2 1_555 1_555
C23_2 O75 1_555 1_555
C27_2 C28_2 1_555 1_555
O33_2 H32 1_555 1_555
O56_2 H39 1_555 1_555
Ce10 O19_2 1_555 1_555
C18_2 H4_2 1_555 1_555
C19_2 C18_2 1_555 1_555
C20_2 C19_2 1_555 1_555
H5_2 C21_2 1_555 1_555
C24_2 C19_2 1_555 1_555
C25_2 C20_2 1_555 1_555
O77 C24_2 1_555 1_555
O79 C24_2 1_555 1_555
O19_2 C25_2 1_555 1_555
O81 C25_2 1_555 1_555
O25_2 Ce10 1_555 1_555
O26_2 Ce10 1_555 1_555
O27_2 Ce10 1_555 1_555
O28_2 Ce10 1_555 1_555
O29_2 Ce10 1_555 1_555
C20_2 C21_2 1_555 1_555
O23_2 H39_2 1_555 1_555
O56_2 H17_2 1_555 1_555
O21_2 H41_2 1_555 1_555
O33_2 H49_2 1_555 1_555

#END
