
###############################################################################
#
# This file contains modified crystal structure data generated from the
# MOF subset of the Cambridge Structural Database (CSD) v543 
# hosted by the Cambridge Crystallographic Data Centre (CCDC).
#
# This work is licensed under the Creative Commons
# Attribution-NonCommercial-ShareAlike 4.0 International License.
# To view a copy of this license, visit
# http://creativecommons.org/licenses/by-nc-sa/4.0/
# or send a letter to
# Creative Commons, PO Box 1866, Mountain View, CA 94042, USA.
#
# CIF created using the CSD Python API on 29 September 2022
# The structure has been converted into the P1 space group
# The structure has a 3D framework
# The original CSD entry VIWLAQ is in the monoclinic crystal system
# The framework has been calculated to contain at least 10.0% void space
# The void calculation uses a probe of radius 1.32A, grid spacing 0.4
# The framework is charged, counterions have been retained in the structure
# H atom positions have been added when not included in the experimental data
# Generated hydrogen atom positions removed from atoms on special positions
#
###############################################################################

data_VIWLAQ
_chemical_formula_moiety         '(C100 H192 Cu8 Nd8 O130)n'
_symmetry_cell_setting           triclinic
_symmetry_space_group_name_H-M   'P 1'
_symmetry_Int_Tables_number      1
_space_group_name_Hall           'P 1'
loop_
_symmetry_equiv_pos_site_id
_symmetry_equiv_pos_as_xyz
1 x,y,z
_cell_length_a                   10.856(2)
_cell_length_b                   22.799(5)
_cell_length_c                   19.706(4)
_cell_angle_alpha                90
_cell_angle_beta                 99.49(3)
_cell_angle_gamma                90
_cell_volume                     4810.6
loop_
_atom_site_label
_atom_site_type_symbol
_atom_site_fract_x
_atom_site_fract_y
_atom_site_fract_z
O70 O 0.0068(5) 0.2073(2) 0.1037(3)
O72 O 0.0897(6) 0.1421(2) 0.1793(3)
Nd8 Nd 0.04126(4) 0.351489(18) 0.90327(2)
Nd2 Nd 0.85039(4) 0.144419(18) 0.15264(2)
C25 C 0.7094(7) 0.2602(3) 0.0407(4)
O19 O 0.7406(5) 0.2163(3) 0.0764(3)
O20 O 0.7260(5) 0.3132(2) 0.0607(3)
O25 O 0.6606(7) 0.1780(3) 0.1991(4)
O26 O 0.8733(9) 0.1112(3) 0.2751(4)
O27 O 0.8962(9) 0.0377(3) 0.1691(4)
O28 O 0.6673(8) 0.0845(4) 0.1010(5)
O29 O 0.9001(7) 0.1012(3) 0.0454(3)
Cu8 Cu 0.80630(9) 0.32299(4) 0.15588(5)
O76 O 0.9084(6) 0.2290(2) 0.2260(3)
Cu1 Cu 0.09005(9) 0.17319(4) 0.90412(5)
Cu2 Cu 0.30630(9) 0.17701(4) 0.65588(5)
C10 C 0.0459(8) 0.1722(4) 0.6676(4)
C13 C 0.0523(8) 0.0517(4) 0.4795(5)
H3 H 0.0867 0.0863 0.4661
C16 C 0.4638(8) 0.2067(3) 0.8952(4)
C17 C 0.4912(8) 0.2394(3) 0.8389(4)
C18 C 0.5917(7) 0.2782(3) 0.8484(4)
H4 H 0.6087 0.3005 0.8115
C19 C 0.6674(7) 0.2840(3) 0.9129(4)
C20 C 0.6389(7) 0.2524(3) 0.9693(4)
C21 C 0.5372(7) 0.2141(3) 0.9601(4)
H5 H 0.5179 0.1931 0.9974
C22 C 0.3511(8) 0.1681(4) 0.8918(4)
C23 C 0.4240(7) 0.2288(3) 0.7682(4)
C24 C 0.7874(7) 0.3169(3) 0.9179(4)
O6 O 0.0038(5) 0.1748(2) 0.8073(3)
O7 O 0.1462(5) 0.2012(2) 0.6851(3)
O8 O 0.0392(6) 0.1195(3) 0.6517(3)
O13 O 0.2475(5) 0.1923(2) 0.8708(3)
O14 O 0.3643(6) 0.1167(3) 0.9128(4)
O15 O 0.3887(6) 0.1771(2) 0.7524(3)
O16 O 0.4084(6) 0.2710(2) 0.7260(3)
O17 O 0.7990(6) 0.3616(2) 0.8820(3)
O18 O 0.8825(5) 0.2944(2) 0.9555(3)
O31 O 0.1080(10) 0.0763(3) 0.9137(4)
O32 O 0.2693(6) 0.0809(3) 0.6543(3)
O33 O 0.4750(5) 0.1788(2) 0.6249(3)
C26 C 0.1277(8) 0.0034(4) 0.4986(4)
C29 C 0.2625(8) 0.0095(3) 0.4933(4)
O34 O 0.3316(6) 0.0390(3) 0.5394(3)
Nd12 Nd 0.35039(4) 0.355581(18) 0.65264(2)
O68 O 0.1757(6) 0.1844(3) 0.9994(3)
O82 O 0.2260(5) 0.1868(2) 0.5607(3)
C27 C 0.0766(8) 0.9522(4) 0.5195(5)
C30 C 0.1558(8) 0.9013(4) 0.5460(6)
O35 O 0.3015(6) 0.9876(3) 0.4418(3)
O36 O 0.2740(5) 0.9080(3) 0.5553(3)
O37 O 0.1043(7) 0.8543(3) 0.5594(6)
Nd3 Nd 0.45874(4) 0.851489(18) 0.59673(2)
C31 C 0.2462(8) 0.7474(4) 0.4093(4)
C32 C 0.2796(8) 0.7191(4) 0.3524(4)
C33 C 0.2065(8) 0.7254(4) 0.2883(4)
H7 H 0.2256 0.7044 0.2510
C34 C 0.1039(8) 0.7634(3) 0.2795(4)
C35 C 0.0714(8) 0.7923(4) 0.3362(4)
C36 C 0.1413(8) 0.7841(4) 0.4015(4)
H8 H 0.1185 0.8028 0.4395
C37 C 0.3143(7) 0.7372(4) 0.4819(4)
C38 C 0.4001(8) 0.6861(4) 0.3573(4)
C39 C 0.0364(8) 0.7741(4) 0.2083(4)
O38 O 0.3532(5) 0.7804(2) 0.5176(3)
O39 O 0.3243(6) 0.6844(3) 0.5006(3)
O40 O 0.4932(5) 0.7073(2) 0.3963(3)
O41 O 0.4103(6) 0.6421(2) 0.3207(3)
O42 O 0.0245(6) 0.7319(3) 0.1670(3)
O54 O 0.4752(5) 0.8955(2) 0.4788(3)
O55 O 0.5106(6) 0.9584(3) 0.6095(3)
O56 O 0.4764(7) 0.8874(3) 0.7177(3)
O57 O 0.2752(6) 0.8098(3) 0.6473(3)
O63 O 0.0720(6) 0.8221(3) 0.0609(3)
Cu5 Cu 0.40995(9) 0.67319(4) 0.59588(5)
Nd10 Nd 0.64961(4) 0.644419(18) 0.34736(2)
O73 O 0.5245(6) 0.7681(3) 0.6670(3)
O77 O 0.7010(6) 0.8616(2) 0.6180(3)
O79 O 0.6175(5) 0.7944(2) 0.5445(3)
Nd1 Nd 0.54126(4) 0.148511(18) 0.40327(2)
C1 C 0.7538(8) 0.2526(4) 0.5907(4)
C2 C 0.7204(8) 0.2809(4) 0.6476(4)
C3 C 0.7935(8) 0.2746(4) 0.7117(4)
H1 H 0.7744 0.2956 0.7490
C4 C 0.8961(8) 0.2366(3) 0.7205(4)
C5 C 0.9286(8) 0.2077(4) 0.6638(4)
C6 C 0.8587(8) 0.2159(4) 0.5985(4)
H2 H 0.8815 0.1972 0.5605
C7 C 0.6857(7) 0.2628(4) 0.5181(4)
C8 C 0.5999(8) 0.3139(4) 0.6427(4)
C9 C 0.9636(8) 0.2259(4) 0.7917(4)
C12 C 0.9234(8) 0.0478(4) 0.4805(5)
C15 C 0.8442(8) 0.0987(4) 0.4540(6)
O1 O 0.6468(5) 0.2196(2) 0.4824(3)
O2 O 0.6757(6) 0.3156(3) 0.4994(3)
O3 O 0.5068(5) 0.2927(2) 0.6037(3)
O4 O 0.5897(6) 0.3579(2) 0.6793(3)
O5 O 0.9755(6) 0.2681(3) 0.8330(3)
O10 O 0.6985(6) 0.0124(3) 0.5582(3)
O11 O 0.7260(5) 0.0920(3) 0.4447(3)
O12 O 0.8957(7) 0.1457(3) 0.4406(6)
O21 O 0.5248(5) 0.1045(2) 0.5212(3)
O22 O 0.4894(6) 0.0416(3) 0.3905(3)
O23 O 0.5236(7) 0.1126(3) 0.2823(3)
O24 O 0.7248(6) 0.1902(3) 0.3527(3)
O30 O 0.9280(6) 0.1779(3) 0.9391(3)
Cu6 Cu 0.59005(9) 0.32681(4) 0.40412(5)
O74 O 0.4755(6) 0.2319(3) 0.3330(3)
O78 O 0.2990(6) 0.1384(2) 0.3820(3)
O80 O 0.3825(5) 0.2056(2) 0.4555(3)
C11 C 0.8723(8) 0.9966(4) 0.5014(4)
C14 C 0.7375(8) 0.9905(3) 0.5067(4)
O9 O 0.6684(6) 0.9610(3) 0.4606(3)
C28 C 0.9477(8) 0.9483(4) 0.5205(5)
H6 H 0.9133 0.9137 0.5339
Cu3 Cu 0.90995(9) 0.82681(4) 0.09588(5)
Cu4 Cu 0.69370(9) 0.82299(4) 0.34412(5)
C40 C 0.9541(8) 0.8278(4) 0.3324(4)
C41 C 0.5362(8) 0.7933(3) 0.1048(4)
C42 C 0.5088(8) 0.7606(3) 0.1611(4)
C43 C 0.4083(7) 0.7218(3) 0.1516(4)
H9 H 0.3913 0.6995 0.1885
C44 C 0.3326(7) 0.7160(3) 0.0871(4)
C45 C 0.3611(7) 0.7476(3) 0.0307(4)
C46 C 0.4628(7) 0.7859(3) 0.0399(4)
H10 H 0.4821 0.8069 0.0026
C47 C 0.6489(8) 0.8319(4) 0.1082(4)
C48 C 0.5760(7) 0.7712(3) 0.2318(4)
C49 C 0.2126(7) 0.6831(3) 0.0821(4)
O43 O 0.9962(5) 0.8252(2) 0.1927(3)
O44 O 0.8538(5) 0.7988(2) 0.3149(3)
O45 O 0.9608(6) 0.8805(3) 0.3483(3)
O46 O 0.7525(5) 0.8077(2) 0.1292(3)
O47 O 0.6357(6) 0.8833(3) 0.0872(4)
O48 O 0.6113(6) 0.8229(2) 0.2476(3)
O49 O 0.5916(6) 0.7290(2) 0.2740(3)
O50 O 0.2010(6) 0.6384(2) 0.1180(3)
O51 O 0.1175(5) 0.7056(2) 0.0445(3)
O64 O 0.8920(10) 0.9237(3) 0.0863(4)
O65 O 0.7307(6) 0.9191(3) 0.3457(3)
O66 O 0.5250(5) 0.8212(2) 0.3751(3)
Nd6 Nd 0.95874(4) 0.648511(18) 0.09673(2)
O67 O 0.8243(6) 0.8156(3) 0.0006(3)
O81 O 0.7740(5) 0.8132(2) 0.4393(3)
Nd4 Nd 0.14961(4) 0.855581(18) 0.84736(2)
C50 C 0.2906(7) 0.7398(3) 0.9593(4)
O52 O 0.2594(5) 0.7837(3) 0.9236(3)
O53 O 0.2740(5) 0.6868(2) 0.9393(3)
O58 O 0.3394(7) 0.8220(3) 0.8009(4)
O59 O 0.1267(9) 0.8888(3) 0.7249(4)
O60 O 0.1038(9) 0.9623(3) 0.8309(4)
O61 O 0.3327(8) 0.9155(4) 0.8990(5)
O62 O 0.0999(7) 0.8988(3) 0.9546(3)
Cu7 Cu 0.19370(9) 0.67701(4) 0.84412(5)
O75 O 0.0916(6) 0.7710(2) 0.7740(3)
O69 O 0.9932(5) 0.7927(2) 0.8963(3)
O71 O 0.9103(6) 0.8579(2) 0.8207(3)
O22_2 O 0.0106(6) 0.5416(3) 0.1095(3)
C43_2 C 0.0917(7) 0.2218(3) 0.3484(4)
H9_2 H 0.1087 0.1995 0.3115
C44_2 C 0.1674(7) 0.2160(3) 0.4129(4)
C45_2 C 0.1389(7) 0.2476(3) 0.4693(4)
C46_2 C 0.0372(7) 0.2859(3) 0.4601(4)
H10_2 H 0.0179 0.3069 0.4974
C49_2 C 0.2874(7) 0.1831(3) 0.4179(4)
C50_2 C 0.2094(7) 0.2398(3) 0.5407(4)
O52_2 O 0.2406(5) 0.2837(3) 0.5764(3)
O58_2 O 0.1606(7) 0.3220(3) 0.6991(4)
O59_2 O 0.3733(9) 0.3888(3) 0.7751(4)
O60_2 O 0.3962(9) 0.4623(3) 0.6691(4)
O61_2 O 0.1673(8) 0.4155(4) 0.6010(5)
O62_2 O 0.4001(7) 0.3988(3) 0.5454(3)
H28 H 0.0375989 0.579921 0.225262
H58 H 0.00437285 0.361962 0.119793
H13 H 0.0209599 0.632081 0.95291
H14 H 0.020918 0.566654 0.985178
C12_2 C 0.5766(8) 0.5478(4) 0.0195(5)
C13_2 C 0.4477(8) 0.5517(4) 0.0205(5)
H3_2 H 0.4133 0.5863 0.0339
C15_2 C 0.6558(8) 0.5987(4) 0.0460(6)
O1_2 O 0.8532(5) 0.7196(2) 0.0176(3)
O9_2 O 0.8316(6) 0.4610(3) 0.0394(3)
O11_2 O 0.7740(5) 0.5920(3) 0.0553(3)
O12_2 O 0.6043(7) 0.6457(3) 0.0594(6)
O23_2 O 0.9764(7) 0.6126(3) 0.2177(3)
O24_2 O 0.7752(6) 0.6902(3) 0.1473(3)
C26_2 C 0.3723(8) 0.5034(4) 0.0014(4)
C29_2 C 0.2375(8) 0.5095(3) 0.0067(4)
O35_2 O 0.1985(6) 0.4876(3) 0.0582(3)
C31_2 C 0.2538(8) 0.2474(4) 0.0907(4)
C32_2 C 0.2204(8) 0.2191(4) 0.1476(4)
C33_2 C 0.2935(8) 0.2254(4) 0.2117(4)
H7_2 H 0.2744 0.2044 0.2490
C34_2 C 0.3961(8) 0.2634(3) 0.2205(4)
C35_2 C 0.4286(8) 0.2923(4) 0.1638(4)
C36_2 C 0.3587(8) 0.2841(4) 0.0985(4)
H8_2 H 0.3815 0.3028 0.0605
C37_2 C 0.1857(7) 0.2372(4) 0.0181(4)
C38_2 C 0.0999(8) 0.1861(4) 0.1427(4)
C39_2 C 0.4636(8) 0.2741(4) 0.2917(4)
C40_2 C 0.5459(8) 0.3278(4) 0.1676(4)
C41_2 C 0.9638(8) 0.2933(3) 0.3952(4)
C42_2 C 0.9912(8) 0.2606(3) 0.3389(4)
C47_2 C 0.8511(8) 0.3319(4) 0.3918(4)
C48_2 C 0.9240(7) 0.2712(3) 0.2682(4)
O43_2 O 0.5038(5) 0.3252(2) 0.3073(3)
O44_2 O 0.6462(5) 0.2988(2) 0.1851(3)
O45_2 O 0.5392(6) 0.3805(3) 0.1517(3)
O46_2 O 0.7475(5) 0.3077(2) 0.3708(3)
O47_2 O 0.8643(6) 0.3833(3) 0.4128(4)
O48_2 O 0.8887(6) 0.3229(2) 0.2524(3)
O54_2 O 0.0248(5) 0.3955(2) 0.0212(3)
O63_2 O 0.4280(6) 0.3221(3) 0.4391(3)
O64_2 O 0.6080(10) 0.4237(3) 0.4137(4)
O65_2 O 0.7693(6) 0.4191(3) 0.1543(3)
O66_2 O 0.9750(5) 0.3212(2) 0.1249(3)
H27 H 0.89361 0.598474 0.225945
H47 H 0.0287521 0.438939 0.0185948
H57 H 0.967561 0.300571 0.0800283
C1_2 C 0.7462(8) 0.7526(4) 0.9093(4)
C2_2 C 0.7796(8) 0.7809(4) 0.8524(4)
C3_2 C 0.7065(8) 0.7746(4) 0.7883(4)
H1_2 H 0.7256 0.7956 0.7510
C4_2 C 0.6039(8) 0.7366(3) 0.7795(4)
C5_2 C 0.5714(8) 0.7077(4) 0.8362(4)
C6_2 C 0.6413(8) 0.7159(4) 0.9015(4)
H2_2 H 0.6185 0.6972 0.9395
C7_2 C 0.8143(7) 0.7628(4) 0.9819(4)
C8_2 C 0.9001(8) 0.8139(4) 0.8573(4)
C9_2 C 0.5364(8) 0.7259(4) 0.7083(4)
C10_2 C 0.4541(8) 0.6722(4) 0.8324(4)
C11_2 C 0.6277(8) 0.4966(4) 0.9986(4)
C14_2 C 0.7625(8) 0.4905(3) 0.9933(4)
C16_2 C 0.0362(8) 0.7067(3) 0.6048(4)
C17_2 C 0.0088(8) 0.7394(3) 0.6611(4)
C22_2 C 0.1489(8) 0.6681(4) 0.6082(4)
C23_2 C 0.0760(7) 0.7288(3) 0.7318(4)
O6_2 O 0.4962(5) 0.6748(2) 0.6927(3)
O7_2 O 0.3538(5) 0.7012(2) 0.8149(3)
O8_2 O 0.4608(6) 0.6195(3) 0.8483(3)
O10_2 O 0.8015(6) 0.5124(3) 0.9418(3)
O13_2 O 0.2525(5) 0.6923(2) 0.6292(3)
O14_2 O 0.1357(6) 0.6167(3) 0.5872(4)
O15_2 O 0.1113(6) 0.6771(2) 0.7476(3)
O21_2 O 0.9752(5) 0.6045(2) 0.9788(3)
O30_2 O 0.5720(6) 0.6779(3) 0.5609(3)
O31_2 O 0.3920(10) 0.5763(3) 0.5863(4)
O32_2 O 0.2307(6) 0.5809(3) 0.8457(3)
O33_2 O 0.0250(5) 0.6788(2) 0.8751(3)
C27_2 C 0.4234(8) 0.4522(4) 0.9805(5)
C28_2 C 0.5523(8) 0.4483(4) 0.9795(5)
H6_2 H 0.5867 0.4137 0.9661
C30_2 C 0.3442(8) 0.4013(4) 0.9540(6)
O34_2 O 0.1684(6) 0.5390(3) 0.9606(3)
O36_2 O 0.2260(5) 0.4080(3) 0.9447(3)
O37_2 O 0.3957(7) 0.3543(3) 0.9406(6)
O38_2 O 0.1468(5) 0.2804(2) 0.9824(3)
O56_2 O 0.0236(7) 0.3874(3) 0.7823(3)
O57_2 O 0.2248(6) 0.3098(3) 0.8527(3)
H39 H 0.0422491 0.476981 0.85991
H43 H 0.100241 0.376662 0.763753
H48 H 0.944278 0.383624 0.0347712
C18_2 C 0.9083(7) 0.7782(3) 0.6516(4)
H4_2 H 0.8913 0.8005 0.6885
C19_2 C 0.8326(7) 0.7840(3) 0.5871(4)
C20_2 C 0.8611(7) 0.7524(3) 0.5307(4)
C21_2 C 0.9628(7) 0.7141(3) 0.5399(4)
H5_2 H 0.9821 0.6931 0.5026
C24_2 C 0.7126(7) 0.8169(3) 0.5821(4)
C25_2 C 0.7906(7) 0.7602(3) 0.4593(4)
O19_2 O 0.7594(5) 0.7163(3) 0.4236(3)
O25_2 O 0.8394(7) 0.6780(3) 0.3009(4)
O26_2 O 0.6267(9) 0.6112(3) 0.2249(4)
O27_2 O 0.6038(9) 0.5377(3) 0.3309(4)
O28_2 O 0.8327(8) 0.5845(4) 0.3990(5)
O29_2 O 0.5999(7) 0.6012(3) 0.4546(3)
O55_2 O 0.9894(6) 0.4584(3) 0.8905(3)
H23 H 0.964173 0.699812 0.840319
H24 H 0.995627 0.638038 0.880207
H44 H 0.949795 0.369107 0.753617
H23_2 H 0.0358272 0.300188 0.159681
H44_2 H 0.0502047 0.630893 0.246383
H48_2 H 0.0557217 0.616376 0.965229
H39_2 H 0.957751 0.523019 0.14009
H43_2 H 0.899759 0.623338 0.236247
H27_2 H 0.10639 0.401526 0.774055
H47_2 H 0.971248 0.561061 0.981405
H57_2 H 0.032439 0.699429 0.919972
H13_2 H 0.97904 0.367919 0.04709
H14_2 H 0.979082 0.433346 0.0148216
H28_2 H 0.962401 0.420079 0.774738
loop_
_geom_bond_atom_site_label_1
_geom_bond_atom_site_label_2
_geom_bond_site_symmetry_1
_geom_bond_site_symmetry_2
Nd2 O19 1_555 1_555
O19 C25 1_555 1_555
O20 C25 1_555 1_555
O25 Nd2 1_555 1_555
O26 Nd2 1_555 1_555
O27 Nd2 1_555 1_555
O28 Nd2 1_555 1_555
O29 Nd2 1_555 1_555
Cu8 O20 1_555 1_555
O76 Nd2 1_555 1_555
Cu8 O76 1_555 1_555
Cu2 O7 1_555 1_555
C13 H3 1_555 1_555
C16 C17 1_555 1_555
C17 C18 1_555 1_555
C18 H4 1_555 1_555
C19 C18 1_555 1_555
C20 C19 1_555 1_555
C21 C16 1_555 1_555
H5 C21 1_555 1_555
C22 C16 1_555 1_555
C23 C17 1_555 1_555
C24 C19 1_555 1_555
O6 Cu1 1_555 1_555
O7 C10 1_555 1_555
O8 C10 1_555 1_555
O13 Cu1 1_555 1_555
O14 C22 1_555 1_555
O15 Cu2 1_555 1_555
O16 Cu2 1_555 1_555
O17 C24 1_555 1_555
O18 C24 1_555 1_555
O31 Cu1 1_555 1_555
O32 Cu2 1_555 1_555
O33 Cu2 1_555 1_555
C26 C13 1_555 1_555
C29 C26 1_555 1_555
O34 C29 1_555 1_555
Nd12 O16 1_555 1_555
O68 Cu1 1_555 1_555
O82 Cu2 1_555 1_555
C20 C21 1_555 1_555
C22 O13 1_555 1_555
C23 O15 1_555 1_555
C23 O16 1_555 1_555
C30 C27 1_555 1_555
O36 C30 1_555 1_555
O37 C30 1_555 1_555
Nd3 O36 1_555 1_555
C31 C32 1_555 1_555
C32 C33 1_555 1_555
C33 H7 1_555 1_555
C34 C33 1_555 1_555
C35 C34 1_555 1_555
C36 C31 1_555 1_555
H8 C36 1_555 1_555
C37 C31 1_555 1_555
C38 C32 1_555 1_555
C39 C34 1_555 1_555
O38 Nd3 1_555 1_555
O39 C37 1_555 1_555
O40 C38 1_555 1_555
O41 C38 1_555 1_555
O42 C39 1_555 1_555
O54 Nd3 1_555 1_555
O55 Nd3 1_555 1_555
O56 Nd3 1_555 1_555
O57 Nd3 1_555 1_555
Cu5 O39 1_555 1_555
Nd10 O40 1_555 1_555
O73 Nd3 1_555 1_555
O77 Nd3 1_555 1_555
O79 Nd3 1_555 1_555
C35 C36 1_555 1_555
C37 O38 1_555 1_555
O41 Nd10 1_555 1_555
Cu5 O73 1_555 1_555
Nd1 O1 1_555 1_555
C1 C2 1_555 1_555
C2 C3 1_555 1_555
C3 H1 1_555 1_555
C4 C3 1_555 1_555
C5 C4 1_555 1_555
C6 C1 1_555 1_555
H2 C6 1_555 1_555
C7 C1 1_555 1_555
C8 C2 1_555 1_555
C9 C4 1_555 1_555
C15 C12 1_555 1_555
O1 C7 1_555 1_555
O2 C7 1_555 1_555
O3 C8 1_555 1_555
O4 C8 1_555 1_555
O5 C9 1_555 1_555
O11 Nd1 1_555 1_555
O12 C15 1_555 1_555
O21 Nd1 1_555 1_555
O22 Nd1 1_555 1_555
O23 Nd1 1_555 1_555
O24 Nd1 1_555 1_555
Cu6 O2 1_555 1_555
Nd12 O3 1_555 1_555
O74 Nd1 1_555 1_555
O78 Nd1 1_555 1_555
O80 Nd1 1_555 1_555
C5 C6 1_555 1_555
C15 O11 1_555 1_555
O4 Nd12 1_555 1_555
Cu6 O74 1_555 1_555
C14 C11 1_555 1_555
O9 C14 1_555 1_555
C28 C11 1_555 1_555
H6 C28 1_555 1_555
Cu4 O44 1_555 1_555
C41 C42 1_555 1_555
C42 C43 1_555 1_555
C43 H9 1_555 1_555
C44 C43 1_555 1_555
C45 C44 1_555 1_555
C46 C41 1_555 1_555
H10 C46 1_555 1_555
C47 C41 1_555 1_555
C48 C42 1_555 1_555
C49 C44 1_555 1_555
O43 Cu3 1_555 1_555
O44 C40 1_555 1_555
O45 C40 1_555 1_555
O46 Cu3 1_555 1_555
O47 C47 1_555 1_555
O48 Cu4 1_555 1_555
O49 Cu4 1_555 1_555
O50 C49 1_555 1_555
O51 C49 1_555 1_555
O64 Cu3 1_555 1_555
O65 Cu4 1_555 1_555
O66 Cu4 1_555 1_555
Nd10 O49 1_555 1_555
O67 Cu3 1_555 1_555
O81 Cu4 1_555 1_555
C45 C46 1_555 1_555
C47 O46 1_555 1_555
C48 O48 1_555 1_555
C48 O49 1_555 1_555
Nd4 O52 1_555 1_555
O52 C50 1_555 1_555
O53 C50 1_555 1_555
O58 Nd4 1_555 1_555
O59 Nd4 1_555 1_555
O60 Nd4 1_555 1_555
O61 Nd4 1_555 1_555
O62 Nd4 1_555 1_555
Cu7 O53 1_555 1_555
O75 Nd4 1_555 1_555
Cu7 O75 1_555 1_555
Nd12 O52_2 1_555 1_555
C43_2 H9_2 1_555 1_555
C44_2 C43_2 1_555 1_555
C45_2 C44_2 1_555 1_555
H10_2 C46_2 1_555 1_555
C49_2 C44_2 1_555 1_555
C50_2 C45_2 1_555 1_555
O78 C49_2 1_555 1_555
O80 C49_2 1_555 1_555
O52_2 C50_2 1_555 1_555
O82 C50_2 1_555 1_555
O58_2 Nd12 1_555 1_555
O59_2 Nd12 1_555 1_555
O60_2 Nd12 1_555 1_555
O61_2 Nd12 1_555 1_555
O62_2 Nd12 1_555 1_555
C45_2 C46_2 1_555 1_555
Nd6 O1_2 1_555 1_555
C12_2 C13_2 1_555 1_555
C13_2 H3_2 1_555 1_555
C15_2 C12_2 1_555 1_555
O11_2 Nd6 1_555 1_555
O12_2 C15_2 1_555 1_555
O23_2 Nd6 1_555 1_555
O24_2 Nd6 1_555 1_555
C26_2 C13_2 1_555 1_555
C29_2 C26_2 1_555 1_555
O35_2 C29_2 1_555 1_555
Cu8 O44_2 1_555 1_555
C31_2 C32_2 1_555 1_555
C32_2 C33_2 1_555 1_555
C33_2 H7_2 1_555 1_555
C34_2 C33_2 1_555 1_555
C35_2 C34_2 1_555 1_555
C36_2 C31_2 1_555 1_555
H8_2 C36_2 1_555 1_555
C37_2 C31_2 1_555 1_555
C38_2 C32_2 1_555 1_555
C39_2 C34_2 1_555 1_555
C40_2 C35_2 1_555 1_555
C41_2 C42_2 1_555 1_555
C47_2 C41_2 1_555 1_555
C48_2 C42_2 1_555 1_555
O70 C38_2 1_555 1_555
O72 C38_2 1_555 1_555
O74 C39_2 1_555 1_555
O43_2 Cu6 1_555 1_555
O44_2 C40_2 1_555 1_555
O45_2 C40_2 1_555 1_555
O46_2 Cu6 1_555 1_555
O47_2 C47_2 1_555 1_555
O48_2 Cu8 1_555 1_555
O63_2 Cu6 1_555 1_555
O64_2 Cu6 1_555 1_555
O65_2 Cu8 1_555 1_555
O66_2 Cu8 1_555 1_555
C15_2 O11_2 1_555 1_555
C35_2 C36_2 1_555 1_555
C39_2 O43_2 1_555 1_555
C47_2 O46_2 1_555 1_555
C48_2 O48_2 1_555 1_555
C48_2 O76 1_555 1_555
O23_2 H27 1_555 1_555
O54_2 H47 1_555 1_555
O66_2 H57 1_555 1_555
Cu7 O7_2 1_555 1_555
C1_2 C2_2 1_555 1_555
C2_2 C3_2 1_555 1_555
C3_2 H1_2 1_555 1_555
C4_2 C3_2 1_555 1_555
C5_2 C4_2 1_555 1_555
C6_2 C1_2 1_555 1_555
H2_2 C6_2 1_555 1_555
C7_2 C1_2 1_555 1_555
C8_2 C2_2 1_555 1_555
C9_2 C4_2 1_555 1_555
C10_2 C5_2 1_555 1_555
C14_2 C11_2 1_555 1_555
C16_2 C17_2 1_555 1_555
C22_2 C16_2 1_555 1_555
C23_2 C17_2 1_555 1_555
O69 C8_2 1_555 1_555
O71 C8_2 1_555 1_555
O73 C9_2 1_555 1_555
O6_2 Cu5 1_555 1_555
O7_2 C10_2 1_555 1_555
O8_2 C10_2 1_555 1_555
O10_2 C14_2 1_555 1_555
O13_2 Cu5 1_555 1_555
O14_2 C22_2 1_555 1_555
O15_2 Cu7 1_555 1_555
O30_2 Cu5 1_555 1_555
O31_2 Cu5 1_555 1_555
O32_2 Cu7 1_555 1_555
O33_2 Cu7 1_555 1_555
C28_2 C11_2 1_555 1_555
H6_2 C28_2 1_555 1_555
C30_2 C27_2 1_555 1_555
O36_2 C30_2 1_555 1_555
O37_2 C30_2 1_555 1_555
Nd8 O36_2 1_555 1_555
O38_2 Nd8 1_555 1_555
O56_2 Nd8 1_555 1_555
O57_2 Nd8 1_555 1_555
C5_2 C6_2 1_555 1_555
C9_2 O6_2 1_555 1_555
C22_2 O13_2 1_555 1_555
C23_2 O15_2 1_555 1_555
C23_2 O75 1_555 1_555
C27_2 C28_2 1_555 1_555
O56_2 H43 1_555 1_555
Nd10 O19_2 1_555 1_555
C18_2 H4_2 1_555 1_555
C19_2 C18_2 1_555 1_555
C20_2 C19_2 1_555 1_555
H5_2 C21_2 1_555 1_555
C24_2 C19_2 1_555 1_555
C25_2 C20_2 1_555 1_555
O77 C24_2 1_555 1_555
O79 C24_2 1_555 1_555
O19_2 C25_2 1_555 1_555
O81 C25_2 1_555 1_555
O25_2 Nd10 1_555 1_555
O26_2 Nd10 1_555 1_555
O27_2 Nd10 1_555 1_555
O28_2 Nd10 1_555 1_555
O29_2 Nd10 1_555 1_555
C20_2 C21_2 1_555 1_555
O23_2 H43_2 1_555 1_555
O56_2 H27_2 1_555 1_555
O21_2 H47_2 1_555 1_555
O33_2 H57_2 1_555 1_555

#END
