
###############################################################################
#
# This file contains modified crystal structure data generated from the
# MOF subset of the Cambridge Structural Database (CSD) v543 
# hosted by the Cambridge Crystallographic Data Centre (CCDC).
#
# This work is licensed under the Creative Commons
# Attribution-NonCommercial-ShareAlike 4.0 International License.
# To view a copy of this license, visit
# http://creativecommons.org/licenses/by-nc-sa/4.0/
# or send a letter to
# Creative Commons, PO Box 1866, Mountain View, CA 94042, USA.
#
# CIF created using the CSD Python API on 29 September 2022
# The structure has been converted into the P1 space group
# The structure has a 3D framework
# The original CSD entry VIWLIY is in the monoclinic crystal system
# The framework has been calculated to contain at least 10.0% void space
# The void calculation uses a probe of radius 1.32A, grid spacing 0.4
# The framework is charged, counterions have been retained in the structure
# H atom positions have been added when not included in the experimental data
# Generated hydrogen atom positions removed from atoms on special positions
#
###############################################################################

data_VIWLIY
_chemical_formula_moiety         '(C100 H184 Cu8 La8 O126 4-)n'
_symmetry_cell_setting           triclinic
_symmetry_space_group_name_H-M   'P 1'
_symmetry_Int_Tables_number      1
_space_group_name_Hall           'P 1'
loop_
_symmetry_equiv_pos_site_id
_symmetry_equiv_pos_as_xyz
1 x,y,z
_cell_length_a                   10.985(2)
_cell_length_b                   20.450(4)
_cell_length_c                   19.856(4)
_cell_angle_alpha                90
_cell_angle_beta                 99.73(3)
_cell_angle_gamma                90
_cell_volume                     4396.35
loop_
_atom_site_label
_atom_site_type_symbol
_atom_site_fract_x
_atom_site_fract_y
_atom_site_fract_z
O72 O 0.0813(4) 0.12008(19) 0.1060(2)
La8 La 0.03539(2) 0.373392(12) 0.845065(13)
La2 La 0.84030(2) 0.125996(12) 0.081721(14)
O19 O 0.7300(3) 0.20937(19) 0.00678(18)
O25 O 0.6618(4) 0.1639(2) 0.1429(2)
O26 O 0.8847(7) 0.0786(3) 0.2026(3)
O27 O 0.8885(5) 0.0036(2) 0.0790(2)
O28 O 0.6456(5) 0.0622(3) 0.0368(3)
Cu8 Cu 0.79254(5) 0.32593(3) 0.08927(3)
O70 O 0.9987(3) 0.19452(17) 0.03236(17)
O76 O 0.9075(3) 0.21866(19) 0.15951(18)
H20 H 0.651503 0.0178029 0.0573482
Cu1 Cu 0.08030(5) 0.17460(3) 0.83161(3)
Cu2 Cu 0.29254(5) 0.17407(3) 0.58927(3)
C10 C 0.0353(4) 0.1726(2) 0.6058(2)
C13 C 0.0487(4) 0.0473(2) 0.4626(2)
H3 H 0.0815 0.0790 0.4373
C16 C 0.4553(4) 0.2077(2) 0.8261(2)
C17 C 0.4850(4) 0.2434(2) 0.7712(2)
C18 C 0.5877(4) 0.2849(2) 0.7824(2)
H4 H 0.6069 0.3097 0.7464
C19 C 0.6618(4) 0.2897(2) 0.8464(2)
C20 C 0.6320(4) 0.2532(2) 0.9005(2)
C21 C 0.5292(4) 0.2126(2) 0.8903(2)
H5 H 0.5094 0.1884 0.9266
C22 C 0.3392(4) 0.1673(2) 0.8230(2)
C23 C 0.4166(4) 0.2339(2) 0.7004(2)
C24 C 0.7817(4) 0.3276(2) 0.8534(2)
C25 C 0.7012(4) 0.2600(2) 0.9723(2)
O7 O 0.1358(3) 0.20531(18) 0.61464(17)
O8 O 0.0274(4) 0.1132(2) 0.6020(2)
O13 O 0.2390(3) 0.19868(18) 0.80368(17)
O14 O 0.3463(4) 0.1101(2) 0.8423(2)
O15 O 0.3736(3) 0.17779(17) 0.68468(17)
O16 O 0.4075(3) 0.28134(19) 0.65951(18)
O17 O 0.7895(4) 0.37941(18) 0.8219(2)
O18 O 0.8747(3) 0.30186(18) 0.89015(17)
O20 O 0.7175(3) 0.31729(17) 0.99373(16)
O29 O 0.8831(5) 0.0829(2) 0.9669(2)
O31 O 0.0732(7) 0.0676(3) 0.8102(3)
O32 O 0.4629(3) 0.17851(18) 0.56064(18)
C26 C 0.1259(4) 0.0135(2) 0.5134(2)
C29 C 0.2606(4) 0.0316(2) 0.5247(2)
O33 O 0.3052(3) 0.06582(18) 0.5761(2)
O34 O 0.3210(3) 0.0122(2) 0.4799(2)
La12 La 0.34030(2) 0.374004(12) 0.581721(14)
O66 O 0.1383(3) 0.28349(19) 0.91628(18)
O68 O 0.1609(3) 0.17592(18) 0.92730(17)
O82 O 0.2175(3) 0.18271(17) 0.49373(16)
H19 H 0.636057 0.0584897 0.986316
H31 H 0.118962 0.0579813 0.772286
H32 H 0.111643 0.0434603 0.851788
H37 H 0.437423 0.0192353 0.683125
H38 H 0.581856 0.00896978 0.677787
C27 C 0.0774(4) 0.9657(2) 0.5508(2)
C30 C 0.1580(4) 0.9258(3) 0.6040(3)
O35 O 0.2735(3) 0.92576(19) 0.6036(2)
O36 O 0.1077(4) 0.8928(3) 0.6449(3)
La3 La 0.46461(2) 0.873392(12) 0.654935(13)
C31 C 0.2560(4) 0.7406(2) 0.4785(2)
C32 C 0.2878(4) 0.7048(2) 0.4240(2)
C33 C 0.2143(4) 0.7087(2) 0.3599(2)
H7 H 0.2334 0.6835 0.3242
C34 C 0.1124(4) 0.7501(2) 0.3489(2)
C35 C 0.0798(4) 0.7857(2) 0.4032(2)
C36 C 0.1521(4) 0.7810(2) 0.4678(2)
H8 H 0.1309 0.8049 0.5040
C37 C 0.3256(4) 0.7336(2) 0.5500(2)
C38 C 0.4091(4) 0.6703(2) 0.4298(2)
C39 C 0.0450(4) 0.7593(2) 0.2777(2)
O37 O 0.3617(3) 0.78349(19) 0.58372(18)
O38 O 0.3391(3) 0.67592(18) 0.57270(17)
O39 O 0.5013(3) 0.69452(17) 0.46764(17)
O40 O 0.4187(4) 0.62008(19) 0.3940(2)
O41 O 0.0382(3) 0.7126(2) 0.23703(18)
O42 O 0.0022(3) 0.81510(19) 0.26275(17)
O53 O 0.4883(3) 0.91237(18) 0.53446(18)
O54 O 0.4957(5) 0.9985(2) 0.6564(2)
O55 O 0.4894(6) 0.9206(3) 0.7747(3)
O56 O 0.2876(3) 0.82942(18) 0.71531(18)
O62 O 0.0835(3) 0.8262(2) 0.1348(2)
La10 La 0.65970(2) 0.625996(12) 0.418279(14)
Cu5 Cu 0.41970(5) 0.67460(3) 0.66839(3)
O73 O 0.5382(3) 0.7874(2) 0.73703(18)
O77 O 0.7105(4) 0.87941(18) 0.6781(2)
O79 O 0.6253(3) 0.80186(18) 0.60985(17)
H55 H 0.01417 0.946332 0.203016
La1 La 0.53539(2) 0.126608(12) 0.345065(13)
C1 C 0.7440(4) 0.2594(2) 0.5215(2)
C2 C 0.7122(4) 0.2952(2) 0.5760(2)
C3 C 0.7857(4) 0.2913(2) 0.6401(2)
H1 H 0.7666 0.3165 0.6758
C4 C 0.8876(4) 0.2499(2) 0.6511(2)
C5 C 0.9202(4) 0.2143(2) 0.5968(2)
C6 C 0.8479(4) 0.2190(2) 0.5322(2)
H2 H 0.8691 0.1951 0.4960
C7 C 0.6744(4) 0.2664(2) 0.4500(2)
C8 C 0.5909(4) 0.3297(2) 0.5702(2)
C9 C 0.9550(4) 0.2407(2) 0.7223(2)
C12 C 0.9226(4) 0.0343(2) 0.4492(2)
C15 C 0.8420(4) 0.0742(3) 0.3960(3)
O1 O 0.6383(3) 0.21651(19) 0.41628(18)
O2 O 0.6609(3) 0.32408(18) 0.42730(17)
O3 O 0.4987(3) 0.30548(17) 0.53236(17)
O4 O 0.5813(4) 0.37992(19) 0.6060(2)
O5 O 0.9618(3) 0.2874(2) 0.76297(18)
O6 O 0.9978(3) 0.18490(19) 0.73725(17)
O11 O 0.7265(3) 0.07424(19) 0.3964(2)
O12 O 0.8923(4) 0.1072(3) 0.3551(3)
O21 O 0.5117(3) 0.08763(18) 0.46554(18)
O22 O 0.5043(5) 0.0015(2) 0.3436(2)
O23 O 0.5106(6) 0.0794(3) 0.2253(3)
O24 O 0.7124(3) 0.17058(18) 0.28469(18)
O30 O 0.9165(3) 0.1738(2) 0.8652(2)
Cu6 Cu 0.58030(5) 0.32540(3) 0.33161(3)
O74 O 0.4618(3) 0.2126(2) 0.26297(18)
O78 O 0.2895(4) 0.12059(18) 0.3219(2)
O80 O 0.3747(3) 0.19814(18) 0.39015(17)
C11 C 0.8741(4) 0.9865(2) 0.4866(2)
C14 C 0.7394(4) 0.9684(2) 0.4753(2)
O9 O 0.6948(3) 0.93418(18) 0.4239(2)
O10 O 0.6790(3) 0.9878(2) 0.5201(2)
C28 C 0.9513(4) 0.9527(2) 0.5374(2)
H6 H 0.9185 0.9210 0.5627
Cu3 Cu 0.91970(5) 0.82540(3) 0.16839(3)
Cu4 Cu 0.70746(5) 0.82593(3) 0.41073(3)
C40 C 0.9647(4) 0.8274(2) 0.3942(2)
C41 C 0.5447(4) 0.7923(2) 0.1739(2)
C42 C 0.5150(4) 0.7566(2) 0.2288(2)
C43 C 0.4123(4) 0.7151(2) 0.2176(2)
H9 H 0.3931 0.6903 0.2536
C44 C 0.3382(4) 0.7103(2) 0.1536(2)
C45 C 0.3680(4) 0.7468(2) 0.0995(2)
C46 C 0.4708(4) 0.7874(2) 0.1097(2)
H10 H 0.4906 0.8116 0.0734
C47 C 0.6608(4) 0.8327(2) 0.1770(2)
C48 C 0.5834(4) 0.7661(2) 0.2996(2)
C49 C 0.2183(4) 0.6724(2) 0.1466(2)
C50 C 0.2988(4) 0.7400(2) 0.0277(2)
O43 O 0.8642(3) 0.79469(18) 0.38536(17)
O44 O 0.9726(4) 0.8868(2) 0.3980(2)
O45 O 0.7610(3) 0.80132(18) 0.19632(17)
O46 O 0.6537(4) 0.8899(2) 0.1577(2)
O47 O 0.6264(3) 0.82221(17) 0.31532(17)
O48 O 0.5925(3) 0.71866(19) 0.34049(18)
O49 O 0.2105(4) 0.62059(18) 0.1781(2)
O50 O 0.1253(3) 0.69814(18) 0.10985(17)
O52 O 0.2825(3) 0.68271(17) 0.00627(16)
O61 O 0.1169(5) 0.9171(2) 0.0331(2)
O63 O 0.9268(7) 0.9324(3) 0.1898(3)
O64 O 0.5371(3) 0.82149(18) 0.43936(18)
La6 La 0.96461(2) 0.626608(12) 0.154935(13)
O65 O 0.8617(3) 0.71651(19) 0.08372(18)
O67 O 0.8391(3) 0.82408(18) 0.07270(17)
O81 O 0.7825(3) 0.81729(17) 0.50627(16)
H23 H 0.463912 0.988452 0.382666
H24 H 0.451292 0.988447 0.30011
H56 H 0.888357 0.95654 0.148212
La4 La 0.15970(2) 0.874004(12) 0.918279(14)
O51 O 0.2700(3) 0.79063(19) 0.99322(18)
O57 O 0.3382(4) 0.8361(2) 0.8571(2)
O58 O 0.1153(7) 0.9214(3) 0.7974(3)
O59 O 0.1115(5) 0.9964(2) 0.9210(2)
O60 O 0.3544(5) 0.9378(3) 0.9632(3)
Cu7 Cu 0.20746(5) 0.67407(3) 0.91073(3)
O69 O 0.0013(3) 0.80548(17) 0.96764(17)
O75 O 0.0925(3) 0.78134(19) 0.84049(18)
H49 H 0.427022 0.914681 0.950859
H50 H 0.348497 0.982197 0.942652
O71 O 0.9187(4) 0.87992(19) 0.8940(2)
C43_2 C 0.0877(4) 0.2151(2) 0.2824(2)
H9_2 H 0.1069 0.1903 0.2464
C44_2 C 0.1618(4) 0.2103(2) 0.3464(2)
C45_2 C 0.1320(4) 0.2468(2) 0.4005(2)
C46_2 C 0.0292(4) 0.2874(2) 0.3903(2)
H10_2 H 0.0094 0.3116 0.4266
C49_2 C 0.2817(4) 0.1724(2) 0.3534(2)
C50_2 C 0.2012(4) 0.2400(2) 0.4723(2)
O51_2 O 0.2300(3) 0.29063(19) 0.50678(18)
O57_2 O 0.1618(4) 0.3361(2) 0.6429(2)
O58_2 O 0.3847(7) 0.4214(3) 0.7026(3)
O59_2 O 0.3885(5) 0.4964(2) 0.5790(2)
O60_2 O 0.1456(5) 0.4378(3) 0.5368(3)
O61_2 O 0.3831(5) 0.4171(2) 0.4669(2)
H12 H 0.0438977 0.540389 0.277886
H23_2 H 0.0360879 0.488452 0.117334
H24_2 H 0.0487085 0.488447 0.19989
H27 H 0.0359741 0.620556 0.0129315
H28 H 0.0327339 0.545158 0.0378507
H53 H 0.0230278 0.347059 0.0933281
H2_2 H 0.6309 0.6951 0.0040
C7_2 C 0.8256(4) 0.7664(2) 0.0500(2)
C11_2 C 0.6259(4) 0.4865(2) 0.0134(2)
C12_2 C 0.5774(4) 0.5343(2) 0.0508(2)
C13_2 C 0.4513(4) 0.5473(2) 0.0374(2)
H3_2 H 0.4185 0.5790 0.0627
C14_2 C 0.7606(4) 0.4684(2) 0.0247(2)
C15_2 C 0.6580(4) 0.5742(3) 0.1040(3)
O9_2 O 0.8052(3) 0.43418(18) 0.0761(2)
O11_2 O 0.7735(3) 0.57424(19) 0.1036(2)
O12_2 O 0.6077(4) 0.6072(3) 0.1449(3)
O21_2 O 0.9883(3) 0.58763(18) 0.03446(18)
O22_2 O 0.9957(5) 0.5015(2) 0.1564(2)
O23_2 O 0.9894(6) 0.5794(3) 0.2747(3)
O24_2 O 0.7876(3) 0.67058(18) 0.21531(18)
O34_2 O 0.1790(3) 0.5122(2) 0.0201(2)
C31_2 C 0.2440(4) 0.2406(2) 0.0215(2)
C32_2 C 0.2122(4) 0.2048(2) 0.0760(2)
C33_2 C 0.2857(4) 0.2087(2) 0.1401(2)
H7_2 H 0.2666 0.1835 0.1758
C34_2 C 0.3876(4) 0.2501(2) 0.1511(2)
C35_2 C 0.4202(4) 0.2857(2) 0.0968(2)
C36_2 C 0.3479(4) 0.2810(2) 0.0322(2)
C38_2 C 0.0909(4) 0.1703(2) 0.0702(2)
C39_2 C 0.4550(4) 0.2593(2) 0.2223(2)
C40_2 C 0.5353(4) 0.3274(2) 0.1058(2)
C41_2 C 0.9553(4) 0.2923(2) 0.3261(2)
C42_2 C 0.9850(4) 0.2566(2) 0.2712(2)
C47_2 C 0.8392(4) 0.3327(2) 0.3230(2)
C48_2 C 0.9166(4) 0.2661(2) 0.2004(2)
O42_2 O 0.4978(3) 0.31510(19) 0.23725(17)
O43_2 O 0.6358(3) 0.29469(18) 0.11464(17)
O44_2 O 0.5274(4) 0.3868(2) 0.1020(2)
O45_2 O 0.7390(3) 0.30132(18) 0.30368(17)
O46_2 O 0.8463(4) 0.3899(2) 0.3423(2)
O47_2 O 0.8736(3) 0.32221(17) 0.18468(17)
O62_2 O 0.4165(3) 0.3262(2) 0.3652(2)
O63_2 O 0.5732(7) 0.4324(3) 0.3102(3)
O64_2 O 0.9629(3) 0.32149(18) 0.06064(18)
H11 H 0.907217 0.566544 0.284836
H54 H 0.990308 0.275217 0.0606673
C1_2 C 0.7560(4) 0.7594(2) 0.9785(2)
C2_2 C 0.7878(4) 0.7952(2) 0.9240(2)
C3_2 C 0.7143(4) 0.7913(2) 0.8599(2)
H1_2 H 0.7334 0.8165 0.8242
C4_2 C 0.6124(4) 0.7499(2) 0.8489(2)
C5_2 C 0.5798(4) 0.7143(2) 0.9032(2)
C6_2 C 0.6521(4) 0.7190(2) 0.9678(2)
C8_2 C 0.9091(4) 0.8297(2) 0.9298(2)
C9_2 C 0.5450(4) 0.7407(2) 0.7777(2)
C10_2 C 0.4647(4) 0.6726(2) 0.8942(2)
C16_2 C 0.0447(4) 0.7077(2) 0.6739(2)
C17_2 C 0.0150(4) 0.7434(2) 0.7288(2)
C22_2 C 0.1608(4) 0.6673(2) 0.6770(2)
C23_2 C 0.0834(4) 0.7339(2) 0.7996(2)
O6_2 O 0.5022(3) 0.68490(19) 0.76275(17)
O7_2 O 0.3642(3) 0.70531(18) 0.88536(17)
O8_2 O 0.4726(4) 0.6132(2) 0.8980(2)
O10_2 O 0.8210(3) 0.4878(2) 0.9799(2)
O13_2 O 0.2610(3) 0.69868(18) 0.69632(17)
O14_2 O 0.1537(4) 0.6101(2) 0.6577(2)
O15_2 O 0.1264(3) 0.67779(17) 0.81532(17)
O30_2 O 0.5835(3) 0.6738(2) 0.6348(2)
O31_2 O 0.4268(7) 0.5676(3) 0.6898(3)
O32_2 O 0.0371(3) 0.67851(18) 0.93936(18)
C26_2 C 0.3741(4) 0.5135(2) 0.9866(2)
C27_2 C 0.4226(4) 0.4657(2) 0.9492(2)
C28_2 C 0.5487(4) 0.4527(2) 0.9626(2)
H6_2 H 0.5815 0.4210 0.9373
C29_2 C 0.2394(4) 0.5316(2) 0.9753(2)
C30_2 C 0.3420(4) 0.4258(3) 0.8960(3)
O33_2 O 0.1948(3) 0.56582(18) 0.9239(2)
O35_2 O 0.2265(3) 0.42576(19) 0.8964(2)
O36_2 O 0.3923(4) 0.3928(3) 0.8551(3)
H8_2 H 0.3691 0.3049 0.9960
C37_2 C 0.1744(4) 0.2336(2) 0.9500(2)
O53_2 O 0.0117(3) 0.41237(18) 0.96554(18)
O54_2 O 0.0043(5) 0.4985(2) 0.8436(2)
O55_2 O 0.0106(6) 0.4206(3) 0.7253(3)
O56_2 O 0.2124(3) 0.32942(18) 0.78469(18)
H30 H 0.00520535 0.633506 0.94346
H35 H 0.0828743 0.408146 0.704068
H37_2 H 0.0625775 0.519235 0.816875
H43 H 0.022667 0.460539 0.96859
C18_2 C 0.9123(4) 0.7849(2) 0.7176(2)
H4_2 H 0.8931 0.8097 0.7536
C19_2 C 0.8382(4) 0.7897(2) 0.6536(2)
C20_2 C 0.8680(4) 0.7532(2) 0.5995(2)
C21_2 C 0.9708(4) 0.7126(2) 0.6097(2)
H5_2 H 0.9906 0.6884 0.5734
C24_2 C 0.7183(4) 0.8276(2) 0.6466(2)
C25_2 C 0.7988(4) 0.7600(2) 0.5277(2)
O19_2 O 0.7700(3) 0.70937(19) 0.49322(18)
O25_2 O 0.8382(4) 0.6639(2) 0.3571(2)
O26_2 O 0.6153(7) 0.5786(3) 0.2974(3)
O27_2 O 0.6115(5) 0.5036(2) 0.4210(2)
O28_2 O 0.8544(5) 0.5622(3) 0.4632(3)
O29_2 O 0.6169(5) 0.5829(2) 0.5331(2)
H29 H 0.979435 0.703043 0.904406
H36 H 0.933989 0.403126 0.697351
H38_2 H 0.918144 0.50897 0.822213
H44 H 0.928132 0.400723 0.974481
H49_2 H 0.572978 0.0853193 0.0491407
H23_3 H 0.536088 0.0115475 0.617334
H24_3 H 0.548708 0.0115526 0.69989
H55_2 H 0.98583 0.0536677 0.796984
H19_2 H 0.363943 0.94151 0.0136839
H31_2 H 0.881038 0.942019 0.227714
H37_3 H 0.562577 0.980765 0.316875
H38_3 H 0.418144 0.99103 0.322213
H29_2 H 0.0205648 0.296957 0.0955936
H36_2 H 0.0660108 0.596874 0.302649
H38_4 H 0.0818563 0.49103 0.177787
H44_2 H 0.071868 0.599277 0.025519
H30_2 H 0.994795 0.366494 0.0565399
H35_2 H 0.917126 0.591854 0.295932
H37_4 H 0.937423 0.480765 0.183125
H43_2 H 0.977333 0.539461 0.03141
H11_2 H 0.0927828 0.433456 0.715164
H54_2 H 0.00969243 0.724783 0.939333
H12_2 H 0.956102 0.459611 0.722114
H23_4 H 0.963912 0.511548 0.882666
H24_4 H 0.951292 0.511553 0.80011
H27_2 H 0.964026 0.379444 0.987069
H28_2 H 0.967266 0.454842 0.962149
H53_2 H 0.976972 0.652941 0.906672
H25 H 0.935425 0.994555 0.0414406
H26 H 0.93867 0.990374 0.123277
H47 H 0.810095 0.97841 0.0712269
H47_2 H 0.189905 0.0215899 0.928773
H48 H 0.06133 0.00962572 0.876723
H25_2 H 0.0645752 0.00544491 0.958559
loop_
_geom_bond_atom_site_label_1
_geom_bond_atom_site_label_2
_geom_bond_site_symmetry_1
_geom_bond_site_symmetry_2
La2 O19 1_555 1_555
O25 La2 1_555 1_555
O26 La2 1_555 1_555
O27 La2 1_555 1_555
O28 La2 1_555 1_555
O70 La2 1_555 1_555
O76 La2 1_555 1_555
Cu8 O76 1_555 1_555
O28 H20 1_555 1_555
Cu2 O7 1_555 1_555
C13 H3 1_555 1_555
C16 C17 1_555 1_555
C17 C18 1_555 1_555
C18 H4 1_555 1_555
C19 C18 1_555 1_555
C20 C19 1_555 1_555
C21 C16 1_555 1_555
H5 C21 1_555 1_555
C22 C16 1_555 1_555
C23 C17 1_555 1_555
C24 C19 1_555 1_555
C25 C20 1_555 1_555
O7 C10 1_555 1_555
O8 C10 1_555 1_555
O13 Cu1 1_555 1_555
O14 C22 1_555 1_555
O15 Cu2 1_555 1_555
O16 Cu2 1_555 1_555
O17 C24 1_555 1_555
O18 C24 1_555 1_555
O20 C25 1_555 1_555
O31 Cu1 1_555 1_555
O32 Cu2 1_555 1_555
C26 C13 1_555 1_555
C29 C26 1_555 1_555
O33 Cu2 1_555 1_555
O34 C29 1_555 1_555
La12 O16 1_555 1_555
O66 Cu1 1_555 1_555
O68 Cu1 1_555 1_555
O82 Cu2 1_555 1_555
C20 C21 1_555 1_555
C22 O13 1_555 1_555
C23 O15 1_555 1_555
C23 O16 1_555 1_555
C29 O33 1_555 1_555
La8 O66 1_555 1_555
O31 H31 1_555 1_555
O31 H32 1_555 1_555
C30 C27 1_555 1_555
O35 C30 1_555 1_555
O36 C30 1_555 1_555
La3 O35 1_555 1_555
C31 C32 1_555 1_555
C32 C33 1_555 1_555
C33 H7 1_555 1_555
C34 C33 1_555 1_555
C35 C34 1_555 1_555
C36 C31 1_555 1_555
H8 C36 1_555 1_555
C37 C31 1_555 1_555
C38 C32 1_555 1_555
C39 C34 1_555 1_555
O37 La3 1_555 1_555
O38 C37 1_555 1_555
O39 C38 1_555 1_555
O40 C38 1_555 1_555
O41 C39 1_555 1_555
O42 C39 1_555 1_555
O53 La3 1_555 1_555
O54 La3 1_555 1_555
O55 La3 1_555 1_555
O56 La3 1_555 1_555
La10 O39 1_555 1_555
Cu5 O37 1_555 1_555
O73 La3 1_555 1_555
O77 La3 1_555 1_555
O79 La3 1_555 1_555
C35 C36 1_555 1_555
C37 O37 1_555 1_555
O38 Cu5 1_555 1_555
O40 La10 1_555 1_555
La1 O1 1_555 1_555
C1 C2 1_555 1_555
C2 C3 1_555 1_555
C3 H1 1_555 1_555
C4 C3 1_555 1_555
C5 C4 1_555 1_555
C6 C1 1_555 1_555
H2 C6 1_555 1_555
C7 C1 1_555 1_555
C8 C2 1_555 1_555
C9 C4 1_555 1_555
C15 C12 1_555 1_555
O1 C7 1_555 1_555
O2 C7 1_555 1_555
O3 C8 1_555 1_555
O4 C8 1_555 1_555
O5 C9 1_555 1_555
O6 C9 1_555 1_555
O11 La1 1_555 1_555
O12 C15 1_555 1_555
O21 La1 1_555 1_555
O22 La1 1_555 1_555
O23 La1 1_555 1_555
O24 La1 1_555 1_555
La12 O3 1_555 1_555
Cu6 O1 1_555 1_555
O74 La1 1_555 1_555
O78 La1 1_555 1_555
O80 La1 1_555 1_555
C5 C6 1_555 1_555
C15 O11 1_555 1_555
O2 Cu6 1_555 1_555
O4 La12 1_555 1_555
C14 C11 1_555 1_555
O9 C14 1_555 1_555
O10 C14 1_555 1_555
C28 C11 1_555 1_555
H6 C28 1_555 1_555
Cu4 O9 1_555 1_555
C41 C42 1_555 1_555
C42 C43 1_555 1_555
C43 H9 1_555 1_555
C44 C43 1_555 1_555
C45 C44 1_555 1_555
C46 C41 1_555 1_555
H10 C46 1_555 1_555
C47 C41 1_555 1_555
C48 C42 1_555 1_555
C49 C44 1_555 1_555
C50 C45 1_555 1_555
O43 Cu4 1_555 1_555
O44 C40 1_555 1_555
O45 Cu3 1_555 1_555
O46 C47 1_555 1_555
O47 Cu4 1_555 1_555
O48 Cu4 1_555 1_555
O49 C49 1_555 1_555
O50 C49 1_555 1_555
O52 C50 1_555 1_555
O63 Cu3 1_555 1_555
O64 Cu4 1_555 1_555
La10 O48 1_555 1_555
O65 Cu3 1_555 1_555
O67 Cu3 1_555 1_555
O81 Cu4 1_555 1_555
C40 O43 1_555 1_555
C45 C46 1_555 1_555
C47 O45 1_555 1_555
C48 O47 1_555 1_555
C48 O48 1_555 1_555
La6 O65 1_555 1_555
O63 H56 1_555 1_555
La4 O51 1_555 1_555
O57 La4 1_555 1_555
O58 La4 1_555 1_555
O59 La4 1_555 1_555
O60 La4 1_555 1_555
O69 La4 1_555 1_555
O75 La4 1_555 1_555
Cu7 O75 1_555 1_555
O60 H49 1_555 1_555
O60 H50 1_555 1_555
La12 O51_2 1_555 1_555
C43_2 H9_2 1_555 1_555
C44_2 C43_2 1_555 1_555
C45_2 C44_2 1_555 1_555
H10_2 C46_2 1_555 1_555
C49_2 C44_2 1_555 1_555
C50_2 C45_2 1_555 1_555
O78 C49_2 1_555 1_555
O80 C49_2 1_555 1_555
O51_2 C50_2 1_555 1_555
O82 C50_2 1_555 1_555
O57_2 La12 1_555 1_555
O58_2 La12 1_555 1_555
O59_2 La12 1_555 1_555
O60_2 La12 1_555 1_555
O61_2 La12 1_555 1_555
C45_2 C46_2 1_555 1_555
C11_2 C12_2 1_555 1_555
C12_2 C13_2 1_555 1_555
C13_2 H3_2 1_555 1_555
C14_2 C11_2 1_555 1_555
C15_2 C12_2 1_555 1_555
O65 C7_2 1_555 1_555
O67 C7_2 1_555 1_555
O9_2 C14_2 1_555 1_555
O11_2 La6 1_555 1_555
O12_2 C15_2 1_555 1_555
O21_2 La6 1_555 1_555
O22_2 La6 1_555 1_555
O23_2 La6 1_555 1_555
O24_2 La6 1_555 1_555
Cu6 O42_2 1_555 1_555
Cu8 O9_2 1_555 1_555
C31_2 C32_2 1_555 1_555
C32_2 C33_2 1_555 1_555
C33_2 H7_2 1_555 1_555
C34_2 C33_2 1_555 1_555
C35_2 C34_2 1_555 1_555
C36_2 C31_2 1_555 1_555
C38_2 C32_2 1_555 1_555
C39_2 C34_2 1_555 1_555
C40_2 C35_2 1_555 1_555
C41_2 C42_2 1_555 1_555
C47_2 C41_2 1_555 1_555
C48_2 C42_2 1_555 1_555
O72 C38_2 1_555 1_555
O74 C39_2 1_555 1_555
O42_2 C39_2 1_555 1_555
O43_2 Cu8 1_555 1_555
O44_2 C40_2 1_555 1_555
O45_2 Cu6 1_555 1_555
O46_2 C47_2 1_555 1_555
O47_2 Cu8 1_555 1_555
O62_2 Cu6 1_555 1_555
O63_2 Cu6 1_555 1_555
O64_2 Cu8 1_555 1_555
C15_2 O11_2 1_555 1_555
C35_2 C36_2 1_555 1_555
C40_2 O43_2 1_555 1_555
C47_2 O45_2 1_555 1_555
C48_2 O47_2 1_555 1_555
C48_2 O76 1_555 1_555
O23_2 H11 1_555 1_555
O64_2 H54 1_555 1_555
Cu5 O6_2 1_555 1_555
Cu7 O7_2 1_555 1_555
C1_2 C2_2 1_555 1_555
C2_2 C3_2 1_555 1_555
C3_2 H1_2 1_555 1_555
C4_2 C3_2 1_555 1_555
C5_2 C4_2 1_555 1_555
C6_2 C1_2 1_555 1_555
C8_2 C2_2 1_555 1_555
C9_2 C4_2 1_555 1_555
C10_2 C5_2 1_555 1_555
C16_2 C17_2 1_555 1_555
C22_2 C16_2 1_555 1_555
C23_2 C17_2 1_555 1_555
O71 C8_2 1_555 1_555
O73 C9_2 1_555 1_555
O6_2 C9_2 1_555 1_555
O7_2 C10_2 1_555 1_555
O8_2 C10_2 1_555 1_555
O13_2 Cu5 1_555 1_555
O14_2 C22_2 1_555 1_555
O15_2 Cu7 1_555 1_555
O30_2 Cu5 1_555 1_555
O31_2 Cu5 1_555 1_555
O32_2 Cu7 1_555 1_555
C27_2 C26_2 1_555 1_555
H6_2 C28_2 1_555 1_555
C29_2 C26_2 1_555 1_555
C30_2 C27_2 1_555 1_555
O33_2 Cu7 1_555 1_555
O35_2 C30_2 1_555 1_555
O36_2 C30_2 1_555 1_555
La8 O35_2 1_555 1_555
O68 C37_2 1_555 1_555
O53_2 La8 1_555 1_555
O54_2 La8 1_555 1_555
O55_2 La8 1_555 1_555
O56_2 La8 1_555 1_555
C5_2 C6_2 1_555 1_555
C22_2 O13_2 1_555 1_555
C23_2 O15_2 1_555 1_555
C23_2 O75 1_555 1_555
C27_2 C28_2 1_555 1_555
C29_2 O33_2 1_555 1_555
C37_2 O66 1_555 1_555
O32_2 H30 1_555 1_555
O55_2 H35 1_555 1_555
O54_2 H37_2 1_555 1_555
O53_2 H43 1_555 1_555
La10 O19_2 1_555 1_555
C18_2 H4_2 1_555 1_555
C19_2 C18_2 1_555 1_555
C20_2 C19_2 1_555 1_555
H5_2 C21_2 1_555 1_555
C24_2 C19_2 1_555 1_555
C25_2 C20_2 1_555 1_555
O77 C24_2 1_555 1_555
O79 C24_2 1_555 1_555
O19_2 C25_2 1_555 1_555
O81 C25_2 1_555 1_555
O25_2 La10 1_555 1_555
O26_2 La10 1_555 1_555
O27_2 La10 1_555 1_555
O28_2 La10 1_555 1_555
O29_2 La10 1_555 1_555
C20_2 C21_2 1_555 1_555
O28 H49_2 1_555 1_555
O63 H31_2 1_555 1_555
O64_2 H30_2 1_555 1_555
O23_2 H35_2 1_555 1_555
O22_2 H37_4 1_555 1_555
O21_2 H43_2 1_555 1_555
O55_2 H11_2 1_555 1_555
O32_2 H54_2 1_555 1_555

#END
