
###############################################################################
#
# This file contains modified crystal structure data generated from the
# MOF subset of the Cambridge Structural Database (CSD) v543 
# hosted by the Cambridge Crystallographic Data Centre (CCDC).
#
# This work is licensed under the Creative Commons
# Attribution-NonCommercial-ShareAlike 4.0 International License.
# To view a copy of this license, visit
# http://creativecommons.org/licenses/by-nc-sa/4.0/
# or send a letter to
# Creative Commons, PO Box 1866, Mountain View, CA 94042, USA.
#
# CIF created using the CSD Python API on 29 September 2022
# The structure has been converted into the P1 space group
# The structure has a 3D framework
# The original CSD entry VIWLOE is in the monoclinic crystal system
# The framework has been calculated to contain at least 10.0% void space
# The void calculation uses a probe of radius 1.32A, grid spacing 0.4
# The framework is charged, counterions have been retained in the structure
# H atom positions have been added when not included in the experimental data
# Generated hydrogen atom positions removed from atoms on special positions
#
###############################################################################

data_VIWLOE
_chemical_formula_moiety         '(C100 H184 Ce8 Cu8 O128)n'
_symmetry_cell_setting           triclinic
_symmetry_space_group_name_H-M   'P 1'
_symmetry_Int_Tables_number      1
_space_group_name_Hall           'P 1'
loop_
_symmetry_equiv_pos_site_id
_symmetry_equiv_pos_as_xyz
1 x,y,z
_cell_length_a                   10.9718(2)
_cell_length_b                   20.2668(3)
_cell_length_c                   19.7821(5)
_cell_angle_alpha                90
_cell_angle_beta                 99.312(2)
_cell_angle_gamma                90
_cell_volume                     4340.84
loop_
_atom_site_label
_atom_site_type_symbol
_atom_site_fract_x
_atom_site_fract_y
_atom_site_fract_z
O70 O 0.0002(3) 0.19381(18) 0.0313(2)
O72 O 0.0824(4) 0.11803(19) 0.1054(2)
Ce8 Ce 0.03741(3) 0.373613(14) 0.844202(16)
Ce2 Ce 0.84233(3) 0.124424(14) 0.081666(17)
O19 O 0.7312(3) 0.20790(19) 0.0065(2)
O25 O 0.6654(4) 0.1631(2) 0.1439(2)
O26 O 0.8917(6) 0.0783(2) 0.2026(3)
O27 O 0.8892(5) 0.0014(2) 0.0795(3)
O28 O 0.6464(4) 0.0610(2) 0.0377(3)
Cu8 Cu 0.79567(6) 0.32611(3) 0.08821(3)
O76 O 0.9102(3) 0.21858(19) 0.1587(2)
H54 H 0.651553 0.0162381 0.0583803
Cu1 Cu 0.08106(6) 0.17329(3) 0.83090(3)
Cu2 Cu 0.29567(6) 0.17389(3) 0.58821(3)
C10 C 0.0374(5) 0.1722(3) 0.6053(3)
C13 C 0.0497(5) 0.0462(3) 0.4612(3)
H3 H 0.0834 0.0772 0.4348
C16 C 0.4585(5) 0.2060(3) 0.8257(3)
C17 C 0.4875(5) 0.2427(3) 0.7698(3)
C18 C 0.5898(5) 0.2847(3) 0.7813(3)
H4 H 0.6089 0.3101 0.7452
C19 C 0.6637(5) 0.2894(3) 0.8451(3)
C20 C 0.6347(5) 0.2517(3) 0.8998(3)
C21 C 0.5319(5) 0.2104(3) 0.8893(3)
H5 H 0.5124 0.1855 0.9255
C22 C 0.4190(5) 0.2334(3) 0.6994(3)
C23 C 0.7834(5) 0.3274(3) 0.8527(3)
C24 C 0.7028(4) 0.2589(3) 0.9716(3)
O6 O 0.0001(4) 0.1842(2) 0.7363(2)
O7 O 0.1375(3) 0.20500(19) 0.6136(2)
O8 O 0.0296(4) 0.1119(2) 0.6019(2)
O13 O 0.2413(3) 0.19707(19) 0.8024(2)
O14 O 0.3498(4) 0.1072(2) 0.8399(2)
O15 O 0.3763(3) 0.17686(19) 0.6840(2)
O16 O 0.4102(3) 0.28142(19) 0.6587(2)
O17 O 0.7922(4) 0.38034(18) 0.8211(2)
O18 O 0.8768(3) 0.30132(18) 0.88932(19)
O20 O 0.7204(3) 0.31720(18) 0.99300(18)
O29 O 0.8870(4) 0.0807(2) 0.9664(2)
O31 O 0.0770(9) 0.0670(3) 0.8081(3)
O32 O 0.4656(3) 0.17852(19) 0.5594(2)
C25 C 0.3421(5) 0.1654(3) 0.8217(3)
C26 C 0.1260(5) 0.0130(3) 0.5122(3)
C29 C 0.2613(5) 0.0299(3) 0.5230(3)
O33 O 0.3068(4) 0.06485(19) 0.5740(2)
O34 O 0.3210(4) 0.0096(2) 0.4775(2)
Ce12 Ce 0.34233(3) 0.375576(14) 0.581666(17)
O66 O 0.1408(3) 0.28308(19) 0.91510(19)
O68 O 0.1629(4) 0.17430(19) 0.9264(2)
O82 O 0.2204(3) 0.18280(18) 0.49300(18)
H23 H 0.436275 0.0202842 0.684159
H24 H 0.580807 0.00954417 0.678678
H45 H 0.123844 0.0583025 0.770079
H46 H 0.115243 0.0422735 0.849478
H53 H 0.636608 0.0571451 0.987068
C27 C 0.0764(5) 0.9656(3) 0.5515(3)
C30 C 0.1559(5) 0.9261(3) 0.6052(3)
O35 O 0.2717(3) 0.92602(18) 0.6044(2)
O36 O 0.1055(4) 0.8940(2) 0.6476(2)
Ce3 Ce 0.46259(3) 0.873613(14) 0.655798(16)
C31 C 0.2536(5) 0.7406(3) 0.4798(3)
C32 C 0.2856(5) 0.7041(3) 0.4245(3)
C33 C 0.2124(5) 0.7078(3) 0.3606(3)
H7 H 0.2312 0.6821 0.3248
C34 C 0.1106(5) 0.7499(3) 0.3498(3)
C35 C 0.0784(5) 0.7864(3) 0.4042(3)
C36 C 0.1500(5) 0.7813(3) 0.4689(3)
H8 H 0.1284 0.8053 0.5053
C37 C 0.3232(4) 0.7328(3) 0.5511(3)
C38 C 0.4067(5) 0.6686(3) 0.4308(3)
C39 C 0.0433(5) 0.7595(3) 0.2786(3)
O37 O 0.3592(3) 0.78308(19) 0.58490(19)
O38 O 0.3371(4) 0.67430(19) 0.5736(2)
O39 O 0.4998(3) 0.69381(18) 0.4687(2)
O40 O 0.4176(4) 0.61803(19) 0.3946(2)
O41 O 0.0379(4) 0.7124(2) 0.2374(2)
O53 O 0.4892(3) 0.91262(19) 0.5357(2)
O54 O 0.4947(4) 0.9992(2) 0.6573(2)
O55 O 0.4808(5) 0.9209(2) 0.7761(3)
O56 O 0.2850(3) 0.82799(19) 0.7160(2)
O62 O 0.0836(4) 0.8276(2) 0.1360(2)
Ce10 Ce 0.65767(3) 0.624424(14) 0.418334(17)
Cu5 Cu 0.41894(6) 0.67329(3) 0.66910(3)
O73 O 0.5379(4) 0.7876(2) 0.7374(2)
O77 O 0.7078(4) 0.88034(18) 0.6789(2)
O79 O 0.6232(3) 0.80132(18) 0.61068(19)
H19 H 0.00991908 0.947555 0.205548
Ce1 Ce 0.53741(3) 0.126387(14) 0.344202(16)
C1 C 0.7464(5) 0.2594(3) 0.5202(3)
C2 C 0.7144(5) 0.2959(3) 0.5755(3)
C3 C 0.7876(5) 0.2922(3) 0.6394(3)
H1 H 0.7688 0.3179 0.6752
C4 C 0.8894(5) 0.2501(3) 0.6502(3)
C5 C 0.9216(5) 0.2136(3) 0.5958(3)
C6 C 0.8500(5) 0.2187(3) 0.5311(3)
H2 H 0.8716 0.1947 0.4947
C7 C 0.6768(4) 0.2672(3) 0.4489(3)
C8 C 0.5933(5) 0.3314(3) 0.5692(3)
C9 C 0.9567(5) 0.2405(3) 0.7214(3)
C12 C 0.9236(5) 0.0344(3) 0.4485(3)
C15 C 0.8441(5) 0.0739(3) 0.3948(3)
O1 O 0.6408(3) 0.21692(19) 0.41510(19)
O2 O 0.6629(4) 0.32570(19) 0.4264(2)
O3 O 0.5002(3) 0.30619(18) 0.5313(2)
O4 O 0.5824(4) 0.38197(19) 0.6054(2)
O5 O 0.9621(4) 0.2876(2) 0.7626(2)
O11 O 0.7283(3) 0.07398(18) 0.3956(2)
O12 O 0.8945(4) 0.1060(2) 0.3524(2)
O21 O 0.5108(3) 0.08738(19) 0.4643(2)
O22 O 0.5053(4) 0.0008(2) 0.3427(2)
O23 O 0.5192(5) 0.0791(2) 0.2239(3)
O24 O 0.7150(3) 0.17201(19) 0.2840(2)
O30 O 0.9164(4) 0.1724(2) 0.8640(2)
Cu6 Cu 0.58106(6) 0.32671(3) 0.33090(3)
O74 O 0.4621(4) 0.2124(2) 0.2626(2)
O78 O 0.2922(4) 0.11966(18) 0.3211(2)
O80 O 0.3768(3) 0.19868(18) 0.38932(19)
C11 C 0.8740(5) 0.9870(3) 0.4878(3)
C14 C 0.7387(5) 0.9701(3) 0.4770(3)
O9 O 0.6932(4) 0.93515(19) 0.4260(2)
O10 O 0.6790(4) 0.9904(2) 0.5225(2)
C28 C 0.9503(5) 0.9538(3) 0.5388(3)
H6 H 0.9166 0.9228 0.5652
Cu3 Cu 0.91894(6) 0.82671(3) 0.16910(3)
Cu4 Cu 0.70433(6) 0.82611(3) 0.41179(3)
C40 C 0.9626(5) 0.8278(3) 0.3947(3)
C41 C 0.5415(5) 0.7940(3) 0.1743(3)
C42 C 0.5125(5) 0.7573(3) 0.2302(3)
C43 C 0.4102(5) 0.7153(3) 0.2187(3)
H9 H 0.3911 0.6899 0.2548
C44 C 0.3363(5) 0.7106(3) 0.1549(3)
C45 C 0.3653(5) 0.7483(3) 0.1002(3)
C46 C 0.4681(5) 0.7896(3) 0.1107(3)
H10 H 0.4876 0.8145 0.0745
C47 C 0.5810(5) 0.7666(3) 0.3006(3)
C48 C 0.2166(5) 0.6726(3) 0.1473(3)
C49 C 0.2972(4) 0.7411(3) 0.0284(3)
O42 O 0.9999(4) 0.8158(2) 0.2637(2)
O43 O 0.8625(3) 0.79500(19) 0.3864(2)
O44 O 0.9704(4) 0.8881(2) 0.3981(2)
O45 O 0.7587(3) 0.80293(19) 0.1976(2)
O46 O 0.6502(4) 0.8928(2) 0.1601(2)
O47 O 0.6237(3) 0.82314(19) 0.3160(2)
O48 O 0.5898(3) 0.71858(19) 0.3413(2)
O49 O 0.2078(4) 0.61966(18) 0.1789(2)
O50 O 0.1232(3) 0.69868(18) 0.11068(19)
O52 O 0.2796(3) 0.68280(18) 0.00700(18)
O61 O 0.1130(4) 0.9193(2) 0.0336(2)
O63 O 0.9230(9) 0.9330(3) 0.1919(3)
O64 O 0.5344(3) 0.82148(19) 0.4406(2)
C50 C 0.6579(5) 0.8346(3) 0.1783(3)
Ce6 Ce 0.96259(3) 0.626387(14) 0.155798(16)
O65 O 0.8592(3) 0.71692(19) 0.08490(19)
O67 O 0.8371(4) 0.82570(19) 0.0736(2)
O81 O 0.7796(3) 0.81720(18) 0.50700(18)
H20 H 0.884757 0.957726 0.150522
H55 H 0.464761 0.987724 0.382049
H56 H 0.4522 0.987785 0.29924
Ce4 Ce 0.15767(3) 0.875576(14) 0.918334(17)
O51 O 0.2688(3) 0.79210(19) 0.9935(2)
O57 O 0.3346(4) 0.8369(2) 0.8561(2)
O58 O 0.1083(6) 0.9217(2) 0.7974(3)
O59 O 0.1108(5) 0.9986(2) 0.9205(3)
O60 O 0.3536(4) 0.9390(2) 0.9623(3)
Cu7 Cu 0.20433(6) 0.67389(3) 0.91179(3)
O75 O 0.0898(3) 0.78142(19) 0.8413(2)
H25 H 0.425718 0.91523 0.949572
H26 H 0.348447 0.983762 0.94162
O69 O 0.9998(3) 0.80619(18) 0.9687(2)
O71 O 0.9176(4) 0.88197(19) 0.8946(2)
C43_2 C 0.0898(5) 0.2153(3) 0.2813(3)
H9_2 H 0.1089 0.1899 0.2452
C44_2 C 0.1637(5) 0.2106(3) 0.3451(3)
C45_2 C 0.1347(5) 0.2483(3) 0.3998(3)
C46_2 C 0.0319(5) 0.2896(3) 0.3893(3)
H10_2 H 0.0124 0.3145 0.4255
C48_2 C 0.2834(5) 0.1726(3) 0.3527(3)
C49_2 C 0.2028(4) 0.2411(3) 0.4716(3)
O51_2 O 0.2312(3) 0.29210(19) 0.5065(2)
O57_2 O 0.1654(4) 0.3369(2) 0.6439(2)
O58_2 O 0.3917(6) 0.4217(2) 0.7026(3)
O59_2 O 0.3892(5) 0.4986(2) 0.5795(3)
O60_2 O 0.1464(4) 0.4390(2) 0.5377(3)
O61_2 O 0.3870(4) 0.4193(2) 0.4664(2)
H21 H 0.0253699 0.347637 0.0918092
H50 H 0.0365021 0.540182 0.280388
H55_2 H 0.0352395 0.487724 0.117951
H56_2 H 0.0478001 0.487785 0.20076
H57 H 0.0368304 0.620835 0.0141795
H58 H 0.0343464 0.544734 0.0392321
H2_2 H 0.6284 0.6947 0.0053
C7_2 C 0.8232(4) 0.7672(3) 0.0511(3)
C11_2 C 0.6260(5) 0.4870(3) 0.0122(3)
C12_2 C 0.5764(5) 0.5344(3) 0.0515(3)
C13_2 C 0.4503(5) 0.5462(3) 0.0388(3)
H3_2 H 0.4166 0.5772 0.0652
C14_2 C 0.7613(5) 0.4701(3) 0.0230(3)
C15_2 C 0.6559(5) 0.5739(3) 0.1052(3)
O9_2 O 0.8068(4) 0.43515(19) 0.0740(2)
O11_2 O 0.7717(3) 0.57398(18) 0.1044(2)
O12_2 O 0.6055(4) 0.6060(2) 0.1476(2)
O21_2 O 0.9892(3) 0.58738(19) 0.0357(2)
O22_2 O 0.9947(4) 0.5008(2) 0.1573(2)
O23_2 O 0.9808(5) 0.5791(2) 0.2761(3)
O24_2 O 0.7850(3) 0.67201(19) 0.2160(2)
O34_2 O 0.1790(4) 0.5096(2) 0.0225(2)
C31_2 C 0.2464(5) 0.2406(3) 0.0202(3)
C32_2 C 0.2144(5) 0.2041(3) 0.0755(3)
C33_2 C 0.2876(5) 0.2078(3) 0.1394(3)
H7_2 H 0.2688 0.1821 0.1752
C34_2 C 0.3894(5) 0.2499(3) 0.1502(3)
C35_2 C 0.4216(5) 0.2864(3) 0.0958(3)
C36_2 C 0.3500(5) 0.2813(3) 0.0311(3)
C38_2 C 0.0933(5) 0.1686(3) 0.0692(3)
C39_2 C 0.4567(5) 0.2595(3) 0.2214(3)
C40_2 C 0.5374(5) 0.3278(3) 0.1053(3)
C41_2 C 0.9585(5) 0.2940(3) 0.3257(3)
C42_2 C 0.9875(5) 0.2573(3) 0.2698(3)
C47_2 C 0.9190(5) 0.2666(3) 0.1994(3)
O42_2 O 0.5001(4) 0.3158(2) 0.2363(2)
O43_2 O 0.6375(3) 0.29500(19) 0.1136(2)
O44_2 O 0.5296(4) 0.3881(2) 0.1019(2)
O45_2 O 0.7413(3) 0.30293(19) 0.3024(2)
O46_2 O 0.8498(4) 0.3928(2) 0.3399(2)
O47_2 O 0.8763(3) 0.32314(19) 0.1840(2)
O62_2 O 0.4164(4) 0.3276(2) 0.3640(2)
O63_2 O 0.5770(9) 0.4330(3) 0.3081(3)
O64_2 O 0.9656(3) 0.32148(19) 0.0594(2)
C50_2 C 0.8421(5) 0.3346(3) 0.3217(3)
H22 H 0.993276 0.274809 0.0598826
H49 H 0.897847 0.565493 0.284905
C1_2 C 0.7536(5) 0.7594(3) 0.9798(3)
C2_2 C 0.7856(5) 0.7959(3) 0.9245(3)
C3_2 C 0.7124(5) 0.7922(3) 0.8606(3)
H1_2 H 0.7312 0.8179 0.8248
C4_2 C 0.6106(5) 0.7501(3) 0.8498(3)
C5_2 C 0.5784(5) 0.7136(3) 0.9042(3)
C6_2 C 0.6500(5) 0.7187(3) 0.9689(3)
C8_2 C 0.9067(5) 0.8314(3) 0.9308(3)
C9_2 C 0.5433(5) 0.7405(3) 0.7786(3)
C10_2 C 0.4626(5) 0.6722(3) 0.8947(3)
C16_2 C 0.0415(5) 0.7060(3) 0.6743(3)
C17_2 C 0.0125(5) 0.7427(3) 0.7302(3)
C22_2 C 0.0810(5) 0.7334(3) 0.8006(3)
O6_2 O 0.4999(4) 0.6842(2) 0.7637(2)
O7_2 O 0.3625(3) 0.70500(19) 0.8864(2)
O8_2 O 0.4704(4) 0.6119(2) 0.8981(2)
O10_2 O 0.8210(4) 0.4904(2) 0.9775(2)
O13_2 O 0.2587(3) 0.69707(19) 0.6976(2)
O14_2 O 0.1502(4) 0.6072(2) 0.6601(2)
O15_2 O 0.1237(3) 0.67686(19) 0.8160(2)
O30_2 O 0.5836(4) 0.6724(2) 0.6360(2)
O31_2 O 0.4230(9) 0.5670(3) 0.6919(3)
O32_2 O 0.0344(3) 0.67852(19) 0.9406(2)
C25_2 C 0.1579(5) 0.6654(3) 0.6783(3)
C26_2 C 0.3740(5) 0.5130(3) 0.9878(3)
C27_2 C 0.4236(5) 0.4656(3) 0.9485(3)
C28_2 C 0.5497(5) 0.4538(3) 0.9612(3)
H6_2 H 0.5834 0.4228 0.9348
C29_2 C 0.2387(5) 0.5299(3) 0.9770(3)
C30_2 C 0.3441(5) 0.4261(3) 0.8948(3)
O33_2 O 0.1932(4) 0.56485(19) 0.9260(2)
O35_2 O 0.2283(3) 0.42602(18) 0.8956(2)
O36_2 O 0.3945(4) 0.3940(2) 0.8524(2)
H8_2 H 0.3716 0.3053 0.9947
C37_2 C 0.1768(4) 0.2328(3) 0.9489(3)
O53_2 O 0.0108(3) 0.41262(19) 0.9643(2)
O54_2 O 0.0053(4) 0.4992(2) 0.8427(2)
O55_2 O 0.0192(5) 0.4209(2) 0.7239(3)
O56_2 O 0.2150(3) 0.32799(19) 0.7840(2)
H23_2 H 0.0637252 0.520284 0.815841
H27 H 0.0924076 0.407667 0.703443
H33 H 0.0218662 0.461211 0.967484
H40 H 0.00188952 0.633156 0.94425
C18_2 C 0.9102(5) 0.7847(3) 0.7187(3)
H4_2 H 0.8911 0.8101 0.7548
C19_2 C 0.8363(5) 0.7894(3) 0.6549(3)
C20_2 C 0.8653(5) 0.7517(3) 0.6002(3)
C21_2 C 0.9681(5) 0.7104(3) 0.6107(3)
H5_2 H 0.9876 0.6855 0.5745
C23_2 C 0.7166(5) 0.8274(3) 0.6473(3)
C24_2 C 0.7972(4) 0.7589(3) 0.5284(3)
O19_2 O 0.7688(3) 0.70790(19) 0.4935(2)
O25_2 O 0.8346(4) 0.6631(2) 0.3561(2)
O26_2 O 0.6083(6) 0.5783(2) 0.2974(3)
O27_2 O 0.6108(5) 0.5014(2) 0.4205(3)
O28_2 O 0.8536(4) 0.5610(2) 0.4623(3)
O29_2 O 0.6130(4) 0.5807(2) 0.5336(2)
H24_2 H 0.919193 0.509544 0.821322
H28 H 0.943126 0.403713 0.695254
H34 H 0.926774 0.400919 0.972914
H39 H 0.977329 0.703751 0.905884
H25_2 H 0.574282 0.08477 0.050428
H55_3 H 0.535239 0.0122765 0.617951
H56_3 H 0.5478 0.0122149 0.70076
H19_2 H 0.990081 0.0524451 0.794452
H23_3 H 0.563725 0.979716 0.315841
H24_3 H 0.419193 0.990456 0.321322
H45_2 H 0.876156 0.941697 0.229921
H53_2 H 0.363392 0.942855 0.0129323
H24_4 H 0.0808068 0.490456 0.178678
H28_2 H 0.0568736 0.596287 0.304746
H34_2 H 0.0732265 0.599081 0.027086
H39_2 H 0.0226708 0.296249 0.0941164
H23_4 H 0.936275 0.479716 0.184159
H27_2 H 0.907592 0.592333 0.296557
H33_2 H 0.978134 0.538789 0.0325163
H40_2 H 0.99811 0.366844 0.0557505
H22_2 H 0.00672366 0.725191 0.940117
H49_2 H 0.102153 0.434507 0.715095
H21_2 H 0.97463 0.652363 0.908191
H50_2 H 0.963498 0.459818 0.719612
H55_4 H 0.964761 0.512276 0.882049
H56_4 H 0.9522 0.512215 0.79924
H57_2 H 0.96317 0.379165 0.985821
H58_2 H 0.965654 0.455266 0.960768
H41 H 0.935176 0.9918 0.0413206
H42 H 0.940091 0.988295 0.12361
H15 H 0.810602 0.976152 0.0727251
H15_2 H 0.189398 0.0238475 0.927275
H16 H 0.0599092 0.0117053 0.87639
H41_2 H 0.0648235 0.00820042 0.958679
loop_
_geom_bond_atom_site_label_1
_geom_bond_atom_site_label_2
_geom_bond_site_symmetry_1
_geom_bond_site_symmetry_2
Ce2 O19 1_555 1_555
O25 Ce2 1_555 1_555
O26 Ce2 1_555 1_555
O27 Ce2 1_555 1_555
O28 Ce2 1_555 1_555
O76 Ce2 1_555 1_555
Cu8 O76 1_555 1_555
O28 H54 1_555 1_555
Cu1 O6 1_555 1_555
Cu2 O7 1_555 1_555
C13 H3 1_555 1_555
C16 C17 1_555 1_555
C17 C18 1_555 1_555
C18 H4 1_555 1_555
C19 C18 1_555 1_555
C20 C19 1_555 1_555
C21 C16 1_555 1_555
H5 C21 1_555 1_555
C22 C17 1_555 1_555
C23 C19 1_555 1_555
C24 C20 1_555 1_555
O7 C10 1_555 1_555
O8 C10 1_555 1_555
O13 Cu1 1_555 1_555
O14 C25 1_555 1_555
O15 Cu2 1_555 1_555
O16 Cu2 1_555 1_555
O17 C23 1_555 1_555
O18 C23 1_555 1_555
O20 C24 1_555 1_555
O31 Cu1 1_555 1_555
O32 Cu2 1_555 1_555
C25 C16 1_555 1_555
C26 C13 1_555 1_555
C29 C26 1_555 1_555
O33 Cu2 1_555 1_555
O34 C29 1_555 1_555
Ce12 O16 1_555 1_555
O66 Cu1 1_555 1_555
O68 Cu1 1_555 1_555
O82 Cu2 1_555 1_555
C20 C21 1_555 1_555
C22 O15 1_555 1_555
C22 O16 1_555 1_555
O13 C25 1_555 1_555
C29 O33 1_555 1_555
Ce8 O66 1_555 1_555
O31 H45 1_555 1_555
O31 H46 1_555 1_555
C30 C27 1_555 1_555
O35 C30 1_555 1_555
O36 C30 1_555 1_555
Ce3 O35 1_555 1_555
C31 C32 1_555 1_555
C32 C33 1_555 1_555
C33 H7 1_555 1_555
C34 C33 1_555 1_555
C35 C34 1_555 1_555
C36 C31 1_555 1_555
H8 C36 1_555 1_555
C37 C31 1_555 1_555
C38 C32 1_555 1_555
C39 C34 1_555 1_555
O37 Ce3 1_555 1_555
O38 C37 1_555 1_555
O39 C38 1_555 1_555
O40 C38 1_555 1_555
O41 C39 1_555 1_555
O53 Ce3 1_555 1_555
O54 Ce3 1_555 1_555
O55 Ce3 1_555 1_555
O56 Ce3 1_555 1_555
Ce10 O39 1_555 1_555
Cu5 O37 1_555 1_555
O73 Ce3 1_555 1_555
O77 Ce3 1_555 1_555
O79 Ce3 1_555 1_555
C35 C36 1_555 1_555
C37 O37 1_555 1_555
O38 Cu5 1_555 1_555
O40 Ce10 1_555 1_555
Ce1 O1 1_555 1_555
C1 C2 1_555 1_555
C2 C3 1_555 1_555
C3 H1 1_555 1_555
C4 C3 1_555 1_555
C5 C4 1_555 1_555
C6 C1 1_555 1_555
H2 C6 1_555 1_555
C7 C1 1_555 1_555
C8 C2 1_555 1_555
C9 C4 1_555 1_555
C15 C12 1_555 1_555
O1 C7 1_555 1_555
O2 C7 1_555 1_555
O3 C8 1_555 1_555
O4 C8 1_555 1_555
O5 C9 1_555 1_555
O11 Ce1 1_555 1_555
O12 C15 1_555 1_555
O21 Ce1 1_555 1_555
O22 Ce1 1_555 1_555
O23 Ce1 1_555 1_555
O24 Ce1 1_555 1_555
Ce12 O3 1_555 1_555
Cu6 O1 1_555 1_555
O74 Ce1 1_555 1_555
O78 Ce1 1_555 1_555
O80 Ce1 1_555 1_555
C5 C6 1_555 1_555
C15 O11 1_555 1_555
O2 Cu6 1_555 1_555
O4 Ce12 1_555 1_555
C14 C11 1_555 1_555
O9 C14 1_555 1_555
O10 C14 1_555 1_555
C28 C11 1_555 1_555
H6 C28 1_555 1_555
Cu3 O42 1_555 1_555
Cu4 O9 1_555 1_555
C41 C42 1_555 1_555
C42 C43 1_555 1_555
C43 H9 1_555 1_555
C44 C43 1_555 1_555
C45 C44 1_555 1_555
C46 C41 1_555 1_555
H10 C46 1_555 1_555
C47 C42 1_555 1_555
C48 C44 1_555 1_555
C49 C45 1_555 1_555
O43 Cu4 1_555 1_555
O44 C40 1_555 1_555
O45 Cu3 1_555 1_555
O46 C50 1_555 1_555
O47 Cu4 1_555 1_555
O48 Cu4 1_555 1_555
O49 C48 1_555 1_555
O50 C48 1_555 1_555
O52 C49 1_555 1_555
O63 Cu3 1_555 1_555
O64 Cu4 1_555 1_555
C50 C41 1_555 1_555
Ce10 O48 1_555 1_555
O65 Cu3 1_555 1_555
O67 Cu3 1_555 1_555
O81 Cu4 1_555 1_555
C40 O43 1_555 1_555
C45 C46 1_555 1_555
C47 O47 1_555 1_555
C47 O48 1_555 1_555
O45 C50 1_555 1_555
Ce6 O65 1_555 1_555
O63 H20 1_555 1_555
Ce4 O51 1_555 1_555
O57 Ce4 1_555 1_555
O58 Ce4 1_555 1_555
O59 Ce4 1_555 1_555
O60 Ce4 1_555 1_555
O75 Ce4 1_555 1_555
Cu7 O75 1_555 1_555
O60 H25 1_555 1_555
O60 H26 1_555 1_555
Ce12 O51_2 1_555 1_555
C43_2 H9_2 1_555 1_555
C44_2 C43_2 1_555 1_555
C45_2 C44_2 1_555 1_555
H10_2 C46_2 1_555 1_555
C48_2 C44_2 1_555 1_555
C49_2 C45_2 1_555 1_555
O78 C48_2 1_555 1_555
O80 C48_2 1_555 1_555
O51_2 C49_2 1_555 1_555
O82 C49_2 1_555 1_555
O57_2 Ce12 1_555 1_555
O58_2 Ce12 1_555 1_555
O59_2 Ce12 1_555 1_555
O60_2 Ce12 1_555 1_555
O61_2 Ce12 1_555 1_555
C45_2 C46_2 1_555 1_555
C11_2 C12_2 1_555 1_555
C12_2 C13_2 1_555 1_555
C13_2 H3_2 1_555 1_555
C14_2 C11_2 1_555 1_555
C15_2 C12_2 1_555 1_555
O65 C7_2 1_555 1_555
O67 C7_2 1_555 1_555
O9_2 C14_2 1_555 1_555
O11_2 Ce6 1_555 1_555
O12_2 C15_2 1_555 1_555
O21_2 Ce6 1_555 1_555
O22_2 Ce6 1_555 1_555
O23_2 Ce6 1_555 1_555
O24_2 Ce6 1_555 1_555
Cu6 O42_2 1_555 1_555
Cu8 O9_2 1_555 1_555
C31_2 C32_2 1_555 1_555
C32_2 C33_2 1_555 1_555
C33_2 H7_2 1_555 1_555
C34_2 C33_2 1_555 1_555
C35_2 C34_2 1_555 1_555
C36_2 C31_2 1_555 1_555
C38_2 C32_2 1_555 1_555
C39_2 C34_2 1_555 1_555
C40_2 C35_2 1_555 1_555
C41_2 C42_2 1_555 1_555
C47_2 C42_2 1_555 1_555
O70 C38_2 1_555 1_555
O72 C38_2 1_555 1_555
O74 C39_2 1_555 1_555
O42_2 C39_2 1_555 1_555
O43_2 Cu8 1_555 1_555
O44_2 C40_2 1_555 1_555
O45_2 Cu6 1_555 1_555
O46_2 C50_2 1_555 1_555
O47_2 Cu8 1_555 1_555
O62_2 Cu6 1_555 1_555
O63_2 Cu6 1_555 1_555
O64_2 Cu8 1_555 1_555
C50_2 C41_2 1_555 1_555
C15_2 O11_2 1_555 1_555
C35_2 C36_2 1_555 1_555
C40_2 O43_2 1_555 1_555
C47_2 O47_2 1_555 1_555
C47_2 O76 1_555 1_555
O45_2 C50_2 1_555 1_555
O64_2 H22 1_555 1_555
O23_2 H49 1_555 1_555
Cu5 O6_2 1_555 1_555
Cu7 O7_2 1_555 1_555
C1_2 C2_2 1_555 1_555
C2_2 C3_2 1_555 1_555
C3_2 H1_2 1_555 1_555
C4_2 C3_2 1_555 1_555
C5_2 C4_2 1_555 1_555
C6_2 C1_2 1_555 1_555
C8_2 C2_2 1_555 1_555
C9_2 C4_2 1_555 1_555
C10_2 C5_2 1_555 1_555
C16_2 C17_2 1_555 1_555
C22_2 C17_2 1_555 1_555
O69 C8_2 1_555 1_555
O71 C8_2 1_555 1_555
O73 C9_2 1_555 1_555
O6_2 C9_2 1_555 1_555
O7_2 C10_2 1_555 1_555
O8_2 C10_2 1_555 1_555
O13_2 Cu5 1_555 1_555
O14_2 C25_2 1_555 1_555
O15_2 Cu7 1_555 1_555
O30_2 Cu5 1_555 1_555
O31_2 Cu5 1_555 1_555
O32_2 Cu7 1_555 1_555
C25_2 C16_2 1_555 1_555
C27_2 C26_2 1_555 1_555
H6_2 C28_2 1_555 1_555
C29_2 C26_2 1_555 1_555
C30_2 C27_2 1_555 1_555
O33_2 Cu7 1_555 1_555
O35_2 C30_2 1_555 1_555
O36_2 C30_2 1_555 1_555
Ce8 O35_2 1_555 1_555
O68 C37_2 1_555 1_555
O53_2 Ce8 1_555 1_555
O54_2 Ce8 1_555 1_555
O55_2 Ce8 1_555 1_555
O56_2 Ce8 1_555 1_555
C5_2 C6_2 1_555 1_555
C22_2 O15_2 1_555 1_555
C22_2 O75 1_555 1_555
O13_2 C25_2 1_555 1_555
C27_2 C28_2 1_555 1_555
C29_2 O33_2 1_555 1_555
C37_2 O66 1_555 1_555
O54_2 H23_2 1_555 1_555
O55_2 H27 1_555 1_555
O53_2 H33 1_555 1_555
O32_2 H40 1_555 1_555
Ce10 O19_2 1_555 1_555
C18_2 H4_2 1_555 1_555
C19_2 C18_2 1_555 1_555
C20_2 C19_2 1_555 1_555
H5_2 C21_2 1_555 1_555
C23_2 C19_2 1_555 1_555
C24_2 C20_2 1_555 1_555
O77 C23_2 1_555 1_555
O79 C23_2 1_555 1_555
O19_2 C24_2 1_555 1_555
O81 C24_2 1_555 1_555
O25_2 Ce10 1_555 1_555
O26_2 Ce10 1_555 1_555
O27_2 Ce10 1_555 1_555
O28_2 Ce10 1_555 1_555
O29_2 Ce10 1_555 1_555
C20_2 C21_2 1_555 1_555
O28 H25_2 1_555 1_555
O63 H45_2 1_555 1_555
O22_2 H23_4 1_555 1_555
O23_2 H27_2 1_555 1_555
O21_2 H33_2 1_555 1_555
O64_2 H40_2 1_555 1_555
O32_2 H22_2 1_555 1_555
O55_2 H49_2 1_555 1_555

#END
