
###############################################################################
#
# This file contains modified crystal structure data generated from the
# MOF subset of the Cambridge Structural Database (CSD) v543 
# hosted by the Cambridge Crystallographic Data Centre (CCDC).
#
# This work is licensed under the Creative Commons
# Attribution-NonCommercial-ShareAlike 4.0 International License.
# To view a copy of this license, visit
# http://creativecommons.org/licenses/by-nc-sa/4.0/
# or send a letter to
# Creative Commons, PO Box 1866, Mountain View, CA 94042, USA.
#
# CIF created using the CSD Python API on 29 September 2022
# The structure has been converted into the P1 space group
# The structure has a 3D framework
# The original CSD entry VIXTOO is in the monoclinic crystal system
# The framework has been calculated to contain at least 10.0% void space
# The void calculation uses a probe of radius 1.32A, grid spacing 0.4
#
###############################################################################

data_VIXTOO
_chemical_formula_moiety         '(C104 H52 N16 Nd4 O20 S4)n'
_symmetry_cell_setting           triclinic
_symmetry_space_group_name_H-M   'P 1'
_symmetry_Int_Tables_number      1
_space_group_name_Hall           'P 1'
loop_
_symmetry_equiv_pos_site_id
_symmetry_equiv_pos_as_xyz
1 x,y,z
_cell_length_a                   9.9479(8)
_cell_length_b                   19.3172(16)
_cell_length_c                   13.2336(11)
_cell_angle_alpha                90
_cell_angle_beta                 91.110(2)
_cell_angle_gamma                90
_cell_volume                     2542.57
loop_
_atom_site_label
_atom_site_type_symbol
_atom_site_fract_x
_atom_site_fract_y
_atom_site_fract_z
O2 O 0.3792(3) 0.47378(15) 0.0609(2)
C1 C 0.2620(4) 0.4507(2) 0.0447(3)
C2 C 0.1673(4) 0.4480(2) 0.1331(3)
C3 C 0.1777(6) 0.3978(3) 0.2049(4)
H2 H 0.2423 0.3633 0.1988
C4 C 0.0936(6) 0.3973(3) 0.2864(4)
H3 H 0.1017 0.3621 0.3340
C7 C 0.0705(6) 0.4974(3) 0.1429(4)
H5 H 0.0605 0.5315 0.0936
Nd4 Nd 0.55427(2) 0.546501(12) 0.129475(16)
Nd5 Nd 0.94573(2) 0.046501(12) 0.370525(16)
O5 O 0.4283(3) 0.61498(15) 0.0156(2)
H13 H 0.4294 0.7481 0.0044
N1 N 0.9732(4) 0.01703(18) 0.7985(3)
C11 C 0.8366(4) 0.0189(2) 0.9483(3)
C12 C 0.8968(5) 0.0818(2) 0.9777(3)
C13 C 0.9913(5) 0.1115(2) 0.9175(3)
O9 O 0.8792(3) 0.02622(15) 0.5609(2)
N2 N 0.8650(4) 0.89502(19) 0.7364(3)
C9 C 0.6782(5) 0.9222(2) 0.9724(3)
C15 C 0.8779(4) 0.9880(2) 0.8575(3)
C16 C 0.8190(4) 0.9231(2) 0.8244(3)
C17 C 0.8133(6) 0.8354(3) 0.7064(4)
H9 H 0.8444 0.8161 0.6468
C18 C 0.7149(6) 0.7997(3) 0.7585(4)
H10 H 0.6808 0.7581 0.7338
C19 C 0.6696(6) 0.8268(3) 0.8463(4)
H11 H 0.6049 0.8035 0.8830
C20 C 0.7207(5) 0.8898(2) 0.8809(3)
O10 O 0.9283(3) 0.88502(15) 0.5156(2)
S1 S 0.73503(13) 0.79205(6) 0.29391(9)
O3 O 0.7007(3) 0.58954(15) 0.2699(2)
O4 O 0.6238(3) 0.67214(15) 0.1691(2)
O6 O 0.8409(3) 0.93203(15) 0.3743(2)
N1_2 N 0.4732(4) 0.48297(18) 0.2985(3)
N2_2 N 0.3650(4) 0.60498(19) 0.2364(3)
N3 N 0.0838(4) 0.6005(2) 0.5405(3)
N4 N 0.1765(4) 0.5015(2) 0.5937(3)
H1 H 0.214(4) 0.468(2) 0.633(3)
C5 C 0.0005(4) 0.5527(2) 0.7014(3)
C6 C 0.0129(5) 0.5024(3) 0.7749(4)
H4 H 0.0779 0.4682 0.7691
C8 C 0.0867(4) 0.5529(2) 0.6124(3)
C9_2 C 0.1782(5) 0.5778(2) 0.4724(3)
C10 C 0.2369(4) 0.5162(2) 0.5036(3)
C11_2 C 0.3366(4) 0.4811(2) 0.4483(3)
C12_2 C 0.3968(5) 0.4182(2) 0.4777(3)
H6 H 0.3726 0.3969 0.5376
C13_2 C 0.4913(5) 0.3885(2) 0.4175(3)
H7 H 0.5311 0.3465 0.4349
C14 C 0.5260(5) 0.4232(2) 0.3292(3)
H8 H 0.5909 0.4030 0.2890
C15_2 C 0.3779(4) 0.5120(2) 0.3575(3)
C16_2 C 0.3190(4) 0.5769(2) 0.3244(3)
C17_2 C 0.3133(6) 0.6646(3) 0.2064(4)
H9_2 H 0.3444 0.6839 0.1468
C18_2 C 0.2149(6) 0.7003(3) 0.2585(4)
H10_2 H 0.1808 0.7419 0.2338
C19_2 C 0.1696(6) 0.6732(3) 0.3463(4)
H11_2 H 0.1049 0.6965 0.3830
C20_2 C 0.2207(5) 0.6102(2) 0.3809(3)
C21 C 0.6897(5) 0.6535(2) 0.2458(3)
C22 C 0.7537(5) 0.7047(2) 0.3137(3)
C23 C 0.8317(5) 0.6913(2) 0.3978(3)
H12 H 0.8530 0.6470 0.4204
C24 C 0.8758(5) 0.7519(2) 0.4460(3)
H13_2 H 0.9294 0.7519 0.5044
C25 C 0.8326(4) 0.8107(2) 0.3991(3)
C26 C 0.8688(4) 0.8820(2) 0.4307(3)
O7 O 0.7747(3) 0.56987(18) 0.0398(2)
O11 O 0.6591(3) 0.43203(15) 0.1257(2)
O1 O 0.7253(3) 0.06987(18) 0.4602(2)
N3_2 N 0.4162(4) 0.1005(2) 0.9595(3)
N4_2 N 0.3235(4) 0.0015(2) 0.9063(3)
C1_2 C 0.7620(4) 0.0493(2) 0.5447(3)
C2_2 C 0.6673(4) 0.0520(2) 0.6331(3)
C3_2 C 0.6777(6) 0.1022(3) 0.7049(4)
H2_2 H 0.7423 0.1367 0.6988
C4_2 C 0.5936(6) 0.1027(3) 0.7864(4)
H3_2 H 0.6017 0.1379 0.8340
C5_2 C 0.4995(4) 0.0527(2) 0.7986(3)
C6_2 C 0.4871(5) 0.0024(3) 0.7251(4)
C7_2 C 0.5705(6) 0.0026(3) 0.6429(4)
C8_2 C 0.4133(4) 0.0529(2) 0.8876(3)
C10_2 C 0.2631(4) 0.0162(2) 0.9964(3)
S1_2 S 0.76497(13) 0.29205(6) 0.20609(9)
O3_2 O 0.7993(3) 0.08954(15) 0.2301(2)
O4_2 O 0.8762(3) 0.17214(15) 0.3309(2)
C21_2 C 0.8103(5) 0.1535(2) 0.2542(3)
C22_2 C 0.7463(5) 0.2047(2) 0.1863(3)
C23_2 C 0.6683(5) 0.1913(2) 0.1022(3)
H12_2 H 0.6470 0.1470 0.0796
C24_2 C 0.6242(5) 0.2519(2) 0.0540(3)
C25_2 C 0.6674(4) 0.3107(2) 0.1009(3)
C26_2 C 0.6312(4) 0.3820(2) 0.0693(3)
H7_2 H 0.9689 0.8465 0.0651
C14_2 C 0.9740(5) 0.9232(2) 0.1708(3)
H8_2 H 0.9091 0.9030 0.2110
O1_2 O 0.2253(3) 0.43013(18) 0.9602(2)
Nd2 Nd 0.44573(2) 0.453499(12) 0.870525(16)
S1_3 S 0.26497(13) 0.20795(6) 0.70609(9)
O3_3 O 0.2993(3) 0.41046(15) 0.7301(2)
O4_3 O 0.3762(3) 0.32786(15) 0.8309(2)
O5_2 O 0.0717(3) 0.11498(15) 0.4844(2)
O6_2 O 0.1591(3) 0.06797(15) 0.6257(2)
N1_3 N 0.5268(4) 0.51703(18) 0.7015(3)
N2_3 N 0.6350(4) 0.39502(19) 0.7636(3)
N3_3 N 0.9162(4) 0.3995(2) 0.4595(3)
N4_3 N 0.8235(4) 0.4985(2) 0.4063(3)
H1_2 H 0.786(4) 0.532(2) 0.367(3)
C5_3 C 0.9995(4) 0.4473(2) 0.2986(3)
C6_3 C 0.9871(5) 0.4976(3) 0.2251(4)
H4_2 H 0.9221 0.5318 0.2309
C8_3 C 0.9133(4) 0.4471(2) 0.3876(3)
C9_3 C 0.8218(5) 0.4222(2) 0.5276(3)
C10_3 C 0.7631(4) 0.4838(2) 0.4964(3)
C11_3 C 0.6634(4) 0.5189(2) 0.5517(3)
C12_3 C 0.6032(5) 0.5818(2) 0.5223(3)
H6_2 H 0.6274 0.6031 0.4624
C13_3 C 0.5087(5) 0.6115(2) 0.5825(3)
H7_3 H 0.4689 0.6535 0.5651
C14_3 C 0.4740(5) 0.5768(2) 0.6708(3)
H8_3 H 0.4091 0.5970 0.7110
C15_3 C 0.6221(4) 0.4880(2) 0.6425(3)
C16_3 C 0.6810(4) 0.4231(2) 0.6756(3)
C17_3 C 0.6867(6) 0.3354(3) 0.7936(4)
H9_3 H 0.6556 0.3161 0.8532
C18_3 C 0.7851(6) 0.2997(3) 0.7415(4)
H10_3 H 0.8192 0.2581 0.7662
C19_3 C 0.8304(6) 0.3268(3) 0.6537(4)
H11_3 H 0.8951 0.3035 0.6170
C20_3 C 0.7793(5) 0.3898(2) 0.6191(3)
C21_3 C 0.3103(5) 0.3465(2) 0.7542(3)
C22_3 C 0.2463(5) 0.2953(2) 0.6863(3)
C23_3 C 0.1683(5) 0.3087(2) 0.6022(3)
H12_3 H 0.1470 0.3530 0.5796
C24_3 C 0.1242(5) 0.2481(2) 0.5540(3)
H13_3 H 0.0706 0.2481 0.4956
C25_3 C 0.1674(4) 0.1893(2) 0.6009(3)
C26_3 C 0.1312(4) 0.1180(2) 0.5693(3)
O9_2 O 0.6208(3) 0.52622(15) 0.9391(2)
O10_2 O 0.5717(3) 0.38502(15) 0.9844(2)
O11_2 O 0.3409(3) 0.56797(15) 0.8743(2)
Nd3 Nd 0.05427(2) 0.953499(12) 0.629475(16)
H7_4 H 0.0311 0.1535 0.9349
C14_4 C 0.0260(5) 0.0768(2) 0.8292(3)
H8_4 H 0.0909 0.0970 0.7890
S1_4 S 0.23503(13) 0.70795(6) 0.79391(9)
O3_4 O 0.2007(3) 0.91046(15) 0.7699(2)
O4_4 O 0.1238(3) 0.82786(15) 0.6691(2)
C21_4 C 0.1897(5) 0.8465(2) 0.7458(3)
C22_4 C 0.2537(5) 0.7953(2) 0.8137(3)
C23_4 C 0.3317(5) 0.8087(2) 0.8978(3)
H12_4 H 0.3530 0.8530 0.9204
C24_4 C 0.3758(5) 0.7481(2) 0.9460(3)
C25_4 C 0.3326(4) 0.6893(2) 0.8991(3)
C26_4 C 0.3688(4) 0.6180(2) 0.9307(3)
O7_2 O 0.2747(3) 0.93013(18) 0.5398(2)
O8 O 0.1208(3) 0.97378(15) 0.4391(2)
N3_4 N 0.5838(4) 0.8995(2) 0.0405(3)
N4_4 N 0.6765(4) 0.9985(2) 0.0937(3)
C1_3 C 0.2380(4) 0.9507(2) 0.4553(3)
C2_3 C 0.3327(4) 0.9480(2) 0.3669(3)
C3_3 C 0.3223(6) 0.8978(3) 0.2951(4)
H2_3 H 0.2577 0.8633 0.3012
C4_3 C 0.4064(6) 0.8973(3) 0.2136(4)
H3_3 H 0.3983 0.8621 0.1660
C5_4 C 0.5005(4) 0.9473(2) 0.2014(3)
C6_4 C 0.5129(5) 0.9976(3) 0.2749(4)
C7_3 C 0.4295(6) 0.9974(3) 0.3571(4)
C8_4 C 0.5867(4) 0.9471(2) 0.1124(3)
C10_4 C 0.7369(4) 0.9838(2) 0.0036(3)
C1_4 C 0.7380(4) 0.5493(2) 0.9553(3)
C2_4 C 0.8327(4) 0.5520(2) 0.8669(3)
C3_4 C 0.8223(6) 0.6022(3) 0.7951(4)
H2_4 H 0.7577 0.6367 0.8012
C4_4 C 0.9064(6) 0.6027(3) 0.7136(4)
H3_4 H 0.8983 0.6379 0.6660
C7_4 C 0.9295(6) 0.5026(3) 0.8571(4)
H5_2 H 0.9395 0.4685 0.9064
N2_4 N 0.1350(4) 0.10498(19) 0.2636(3)
C9_4 C 0.3218(5) 0.0778(2) 0.0276(3)
C15_4 C 0.1221(4) 0.0120(2) 0.1425(3)
C16_4 C 0.1810(4) 0.0769(2) 0.1756(3)
C17_4 C 0.1867(6) 0.1646(3) 0.2936(4)
H9_4 H 0.1556 0.1839 0.3532
C18_4 C 0.2851(6) 0.2003(3) 0.2415(4)
H10_4 H 0.3192 0.2419 0.2662
C19_4 C 0.3304(6) 0.1732(3) 0.1537(4)
H11_4 H 0.3951 0.1965 0.1170
C20_4 C 0.2793(5) 0.1102(2) 0.1191(3)
N1_4 N 0.0268(4) 0.98297(18) 0.2015(3)
C11_4 C 0.1634(4) 0.9811(2) 0.0517(3)
C12_4 C 0.1032(5) 0.9182(2) 0.0223(3)
C13_4 C 0.0087(5) 0.8885(2) 0.0825(3)
H13_4 H 0.5706 0.2519 0.9956
H1_3 H 0.714(4) 0.032(2) 0.133(3)
H4_3 H 0.5779 0.0318 0.2691
H5_3 H 0.4395 0.0315 0.4064
H6_3 H 0.8726 0.1031 0.0376
H1_4 H 0.286(4) 0.968(2) 0.867(3)
H4_4 H 0.4221 0.9682 0.7309
H5_4 H 0.5605 0.9685 0.5936
H6_4 H 0.1274 0.8969 0.9624
loop_
_geom_bond_atom_site_label_1
_geom_bond_atom_site_label_2
_geom_bond_site_symmetry_1
_geom_bond_site_symmetry_2
O2 C1 1_555 1_555
C1 C2 1_555 1_555
C2 C3 1_555 1_555
C3 H2 1_555 1_555
C4 C3 1_555 1_555
H3 C4 1_555 1_555
C7 C2 1_555 1_555
H5 C7 1_555 1_555
Nd4 O2 1_555 1_555
Nd4 O5 1_555 1_555
C12 C11 1_555 1_555
C13 C12 1_555 1_555
C16 N2 1_555 1_555
C17 N2 1_555 1_555
H9 C17 1_555 1_555
C18 C17 1_555 1_555
H10 C18 1_555 1_555
C19 C18 1_555 1_555
H11 C19 1_555 1_555
C20 C9 1_555 1_555
C15 C16 1_555 1_555
C16 C20 1_555 1_555
C19 C20 1_555 1_555
Nd4 O3 1_555 1_555
S1 C22 1_555 1_555
O3 C21 1_555 1_555
O4 Nd4 1_555 1_555
O10 C26 1_555 1_555
O6 C26 1_555 1_555
N1_2 Nd4 1_555 1_555
N2_2 Nd4 1_555 1_555
N3 C8 1_555 1_555
N4 H1 1_555 1_555
C6 C5 1_555 1_555
H4 C6 1_555 1_555
C8 N4 1_555 1_555
C9_2 N3 1_555 1_555
C10 N4 1_555 1_555
C11_2 C10 1_555 1_555
C12_2 C11_2 1_555 1_555
H6 C12_2 1_555 1_555
C13_2 C12_2 1_555 1_555
H7 C13_2 1_555 1_555
C14 N1_2 1_555 1_555
H8 C14 1_555 1_555
C15_2 N1_2 1_555 1_555
C16_2 N2_2 1_555 1_555
C17_2 N2_2 1_555 1_555
H9_2 C17_2 1_555 1_555
C18_2 C17_2 1_555 1_555
H10_2 C18_2 1_555 1_555
C19_2 C18_2 1_555 1_555
H11_2 C19_2 1_555 1_555
C20_2 C9_2 1_555 1_555
C21 O4 1_555 1_555
C22 C21 1_555 1_555
C23 C22 1_555 1_555
H12 C23 1_555 1_555
C24 C23 1_555 1_555
H13_2 C24 1_555 1_555
C25 S1 1_555 1_555
C26 C25 1_555 1_555
O7 Nd4 1_555 1_555
O11 Nd4 1_555 1_555
C5 C8 1_555 1_555
C9_2 C10 1_555 1_555
C11_2 C15_2 1_555 1_555
C13_2 C14 1_555 1_555
C15_2 C16_2 1_555 1_555
C16_2 C20_2 1_555 1_555
C19_2 C20_2 1_555 1_555
C24 C25 1_555 1_555
O1 C1_2 1_555 1_555
O9 C1_2 1_555 1_555
N3_2 C8_2 1_555 1_555
C1_2 C2_2 1_555 1_555
C2_2 C3_2 1_555 1_555
C3_2 H2_2 1_555 1_555
C4_2 C3_2 1_555 1_555
H3_2 C4_2 1_555 1_555
C5_2 C4_2 1_555 1_555
C6_2 C5_2 1_555 1_555
C7_2 C2_2 1_555 1_555
C8_2 N4_2 1_555 1_555
C10_2 N4_2 1_555 1_555
Nd5 O1 1_555 1_555
O9 Nd5 1_555 1_555
C5_2 C8_2 1_555 1_555
C6_2 C7_2 1_555 1_555
Nd5 O3_2 1_555 1_555
S1_2 C22_2 1_555 1_555
O3_2 C21_2 1_555 1_555
O4_2 Nd5 1_555 1_555
O11 C26_2 1_555 1_555
C21_2 O4_2 1_555 1_555
C22_2 C21_2 1_555 1_555
C23_2 C22_2 1_555 1_555
H12_2 C23_2 1_555 1_555
C24_2 C23_2 1_555 1_555
C25_2 S1_2 1_555 1_555
C26_2 C25_2 1_555 1_555
C24_2 C25_2 1_555 1_555
H8_2 C14_2 1_555 1_555
Nd2 O1_2 1_555 1_555
Nd2 O3_3 1_555 1_555
S1_3 C22_3 1_555 1_555
O3_3 C21_3 1_555 1_555
O4_3 Nd2 1_555 1_555
O5_2 C26_3 1_555 1_555
O6_2 C26_3 1_555 1_555
N1_3 Nd2 1_555 1_555
N2_3 Nd2 1_555 1_555
N3_3 C8_3 1_555 1_555
N4_3 H1_2 1_555 1_555
C6_3 C5_3 1_555 1_555
H4_2 C6_3 1_555 1_555
C8_3 N4_3 1_555 1_555
C9_3 N3_3 1_555 1_555
C10_3 N4_3 1_555 1_555
C11_3 C10_3 1_555 1_555
C12_3 C11_3 1_555 1_555
H6_2 C12_3 1_555 1_555
C13_3 C12_3 1_555 1_555
H7_3 C13_3 1_555 1_555
C14_3 N1_3 1_555 1_555
H8_3 C14_3 1_555 1_555
C15_3 N1_3 1_555 1_555
C16_3 N2_3 1_555 1_555
C17_3 N2_3 1_555 1_555
H9_3 C17_3 1_555 1_555
C18_3 C17_3 1_555 1_555
H10_3 C18_3 1_555 1_555
C19_3 C18_3 1_555 1_555
H11_3 C19_3 1_555 1_555
C20_3 C9_3 1_555 1_555
C21_3 O4_3 1_555 1_555
C22_3 C21_3 1_555 1_555
C23_3 C22_3 1_555 1_555
H12_3 C23_3 1_555 1_555
C24_3 C23_3 1_555 1_555
H13_3 C24_3 1_555 1_555
C25_3 S1_3 1_555 1_555
C26_3 C25_3 1_555 1_555
O9_2 Nd2 1_555 1_555
O10_2 Nd2 1_555 1_555
O11_2 Nd2 1_555 1_555
C5_3 C8_3 1_555 1_555
C9_3 C10_3 1_555 1_555
C11_3 C15_3 1_555 1_555
C13_3 C14_3 1_555 1_555
C15_3 C16_3 1_555 1_555
C16_3 C20_3 1_555 1_555
C19_3 C20_3 1_555 1_555
C24_3 C25_3 1_555 1_555
H8_4 C14_4 1_555 1_555
Nd3 O3_4 1_555 1_555
S1_4 C22_4 1_555 1_555
O3_4 C21_4 1_555 1_555
O4_4 Nd3 1_555 1_555
O11_2 C26_4 1_555 1_555
C21_4 O4_4 1_555 1_555
C22_4 C21_4 1_555 1_555
C23_4 C22_4 1_555 1_555
H12_4 C23_4 1_555 1_555
C24_4 C23_4 1_555 1_555
C25_4 S1_4 1_555 1_555
C26_4 C25_4 1_555 1_555
O7_2 Nd3 1_555 1_555
O8 Nd3 1_555 1_555
C24_4 C25_4 1_555 1_555
O7_2 C1_3 1_555 1_555
O8 C1_3 1_555 1_555
N3_4 C8_4 1_555 1_555
C1_3 C2_3 1_555 1_555
C2_3 C3_3 1_555 1_555
C3_3 H2_3 1_555 1_555
C4_3 C3_3 1_555 1_555
H3_3 C4_3 1_555 1_555
C5_4 C4_3 1_555 1_555
C6_4 C5_4 1_555 1_555
C7_3 C2_3 1_555 1_555
C8_4 N4_4 1_555 1_555
C10_4 N4_4 1_555 1_555
C5_4 C8_4 1_555 1_555
C6_4 C7_3 1_555 1_555
O9_2 C1_4 1_555 1_555
C1_4 C2_4 1_555 1_555
C2_4 C3_4 1_555 1_555
C3_4 H2_4 1_555 1_555
C4_4 C3_4 1_555 1_555
H3_4 C4_4 1_555 1_555
C7_4 C2_4 1_555 1_555
H5_2 C7_4 1_555 1_555
C16_4 N2_4 1_555 1_555
C17_4 N2_4 1_555 1_555
H9_4 C17_4 1_555 1_555
C18_4 C17_4 1_555 1_555
H10_4 C18_4 1_555 1_555
C19_4 C18_4 1_555 1_555
H11_4 C19_4 1_555 1_555
C20_4 C9_4 1_555 1_555
C15_4 C16_4 1_555 1_555
C16_4 C20_4 1_555 1_555
C19_4 C20_4 1_555 1_555
C12_4 C11_4 1_555 1_555
C13_4 C12_4 1_555 1_555

#END
