
###############################################################################
#
# This file contains modified crystal structure data generated from the
# MOF subset of the Cambridge Structural Database (CSD) v543 
# hosted by the Cambridge Crystallographic Data Centre (CCDC).
#
# This work is licensed under the Creative Commons
# Attribution-NonCommercial-ShareAlike 4.0 International License.
# To view a copy of this license, visit
# http://creativecommons.org/licenses/by-nc-sa/4.0/
# or send a letter to
# Creative Commons, PO Box 1866, Mountain View, CA 94042, USA.
#
# CIF created using the CSD Python API on 29 September 2022
# The structure has been converted into the P1 space group
# The structure has a 3D framework
# The original CSD entry VIXTUU is in the monoclinic crystal system
# The framework has been calculated to contain at least 10.0% void space
# The void calculation uses a probe of radius 1.32A, grid spacing 0.4
#
###############################################################################

data_VIXTUU
_chemical_formula_moiety         '(C104 H52 N16 O20 Pr4 S4)n'
_symmetry_cell_setting           triclinic
_symmetry_space_group_name_H-M   'P 1'
_symmetry_Int_Tables_number      1
_space_group_name_Hall           'P 1'
loop_
_symmetry_equiv_pos_site_id
_symmetry_equiv_pos_as_xyz
1 x,y,z
_cell_length_a                   9.9280(16)
_cell_length_b                   19.404(3)
_cell_length_c                   13.294(2)
_cell_angle_alpha                90
_cell_angle_beta                 91.180(3)
_cell_angle_gamma                90
_cell_volume                     2560.45
loop_
_atom_site_label
_atom_site_type_symbol
_atom_site_fract_x
_atom_site_fract_y
_atom_site_fract_z
O2 O 0.3786(5) 0.4730(2) 0.0610(3)
C1 C 0.2611(7) 0.4499(3) 0.0457(5)
C2 C 0.1663(7) 0.4479(3) 0.1330(5)
C3 C 0.1787(10) 0.3983(5) 0.2049(6)
H2 H 0.2457 0.3650 0.1996
C4 C 0.0929(9) 0.3964(4) 0.2858(6)
H3 H 0.0992 0.3605 0.3320
C7 C 0.0698(9) 0.4967(5) 0.1430(6)
H5 H 0.0585 0.5303 0.0937
Pr4 Pr 0.5548 0.5464 0.1298
Pr5 Pr 0.9452 0.0464 0.3702
O5 O 0.4239(5) 0.6142(2) 0.0162(3)
H13 H 0.4288 0.7474 0.0054
N1 N 0.9725(5) 0.0177(3) 0.7995(4)
C11 C 0.8361(7) 0.0194(3) 0.9489(5)
C12 C 0.8965(8) 0.0816(4) 0.9768(5)
C13 C 0.9895(8) 0.1104(4) 0.9171(5)
O9 O 0.8786(5) 0.0270(2) 0.5610(3)
N2 N 0.8645(6) 0.8953(3) 0.7371(4)
C9 C 0.6772(7) 0.9224(4) 0.9732(5)
C15 C 0.8780(6) 0.9881(3) 0.8583(5)
C16 C 0.8183(7) 0.9237(3) 0.8246(5)
C17 C 0.8108(9) 0.8355(4) 0.7070(6)
H9 H 0.8399 0.8166 0.6470
C18 C 0.7143(10) 0.8000(4) 0.7598(7)
H10 H 0.6811 0.7583 0.7356
C19 C 0.6681(9) 0.8268(4) 0.8481(6)
H11 H 0.6038 0.8033 0.8848
C20 C 0.7193(8) 0.8898(4) 0.8815(5)
O10 O 0.9239(5) 0.8858(2) 0.5162(3)
S1 S 0.7355(2) 0.7920(1) 0.2943(1)
O3 O 0.7021(5) 0.5901(2) 0.2706(3)
O4 O 0.6258(6) 0.6721(2) 0.1703(4)
O6 O 0.8396(5) 0.9314(2) 0.3735(3)
N1_2 N 0.4725(5) 0.4823(3) 0.2995(4)
N2_2 N 0.3645(6) 0.6047(3) 0.2371(4)
N3 N 0.0831(6) 0.5995(3) 0.5401(4)
N4 N 0.1773(6) 0.5007(3) 0.5932(4)
H1 H 0.210(7) 0.471(4) 0.633(5)
C5 C 0.0017(7) 0.5525(3) 0.7017(5)
C6 C 0.0122(9) 0.5031(4) 0.7737(7)
H4 H 0.0758 0.4683 0.7671
C8 C 0.0873(7) 0.5526(3) 0.6122(5)
C9_2 C 0.1772(7) 0.5776(4) 0.4732(5)
C10 C 0.2362(7) 0.5165(4) 0.5035(5)
C11_2 C 0.3361(7) 0.4806(3) 0.4489(5)
C12_2 C 0.3965(8) 0.4184(4) 0.4768(5)
H6 H 0.3728 0.3968 0.5363
C13_2 C 0.4895(8) 0.3896(4) 0.4171(5)
H7 H 0.5293 0.3478 0.4345
C14 C 0.5246(7) 0.4230(3) 0.3299(5)
H8 H 0.5891 0.4025 0.2900
C15_2 C 0.3780(6) 0.5119(3) 0.3583(5)
C16_2 C 0.3183(7) 0.5763(3) 0.3246(5)
C17_2 C 0.3108(9) 0.6645(4) 0.2070(6)
H9_2 H 0.3399 0.6834 0.1470
C18_2 C 0.2143(10) 0.7000(4) 0.2598(7)
H10_2 H 0.1811 0.7417 0.2356
C19_2 C 0.1681(9) 0.6732(4) 0.3481(6)
H11_2 H 0.1038 0.6967 0.3848
C20_2 C 0.2193(8) 0.6102(4) 0.3815(5)
C21 C 0.6901(7) 0.6537(3) 0.2470(5)
C22 C 0.7541(7) 0.7051(3) 0.3145(5)
C23 C 0.8319(7) 0.6917(4) 0.3983(5)
H12 H 0.8535 0.6476 0.4206
C24 C 0.8756(8) 0.7523(3) 0.4470(5)
H13_2 H 0.9288 0.7526 0.5054
C25 C 0.8315(7) 0.8105(3) 0.3994(5)
C26 C 0.8667(7) 0.8820(3) 0.4319(5)
O7 O 0.7767(5) 0.5701(3) 0.0388(4)
O11 O 0.6604(5) 0.4314(2) 0.1265(3)
O1 O 0.7233(5) 0.0701(3) 0.4612(4)
N3_2 N 0.4169(6) 0.0995(3) 0.9599(4)
N4_2 N 0.3227(6) 0.0007(3) 0.9068(4)
C1_2 C 0.7611(7) 0.0501(3) 0.5457(5)
C2_2 C 0.6663(7) 0.0521(3) 0.6330(5)
C3_2 C 0.6787(10) 0.1017(5) 0.7049(6)
H2_2 H 0.7457 0.1350 0.6996
C4_2 C 0.5929(9) 0.1036(4) 0.7858(6)
H3_2 H 0.5992 0.1395 0.8320
C5_2 C 0.4983(7) 0.0525(3) 0.7983(5)
C6_2 C 0.4878(9) 0.0031(4) 0.7263(7)
C7_2 C 0.5698(9) 0.0033(5) 0.6430(6)
C8_2 C 0.4127(7) 0.0526(3) 0.8878(5)
C10_2 C 0.2638(7) 0.0165(4) 0.9965(5)
S1_2 S 0.7645(2) 0.2920(1) 0.2057(1)
O3_2 O 0.7979(5) 0.0901(2) 0.2294(3)
O4_2 O 0.8742(6) 0.1721(2) 0.3297(4)
C21_2 C 0.8099(7) 0.1537(3) 0.2530(5)
C22_2 C 0.7459(7) 0.2051(3) 0.1855(5)
C23_2 C 0.6681(7) 0.1917(4) 0.1017(5)
H12_2 H 0.6465 0.1476 0.0794
C24_2 C 0.6244(8) 0.2523(3) 0.0530(5)
C25_2 C 0.6685(7) 0.3105(3) 0.1006(5)
C26_2 C 0.6333(7) 0.3820(3) 0.0681(5)
H7_2 H 0.9707 0.8478 0.0655
C14_2 C 0.9754(7) 0.9230(3) 0.1701(5)
H8_2 H 0.9109 0.9025 0.2100
O1_2 O 0.2233(5) 0.4299(3) 0.9612(4)
Pr2 Pr 0.4452 0.4536 0.8702
S1_3 S 0.2645(2) 0.2080(1) 0.7057(1)
O3_3 O 0.2979(5) 0.4099(2) 0.7294(3)
O4_3 O 0.3742(6) 0.3279(2) 0.8297(4)
O5_2 O 0.0761(5) 0.1142(2) 0.4838(3)
O6_2 O 0.1604(5) 0.0686(2) 0.6265(3)
N1_3 N 0.5275(5) 0.5177(3) 0.7005(4)
N2_3 N 0.6355(6) 0.3953(3) 0.7629(4)
N3_3 N 0.9169(6) 0.4005(3) 0.4599(4)
N4_3 N 0.8227(6) 0.4993(3) 0.4068(4)
H1_2 H 0.790(7) 0.529(4) 0.367(5)
C5_3 C 0.9983(7) 0.4475(3) 0.2983(5)
C6_3 C 0.9878(9) 0.4969(4) 0.2263(7)
H4_2 H 0.9242 0.5317 0.2329
C8_3 C 0.9127(7) 0.4474(3) 0.3878(5)
C9_3 C 0.8228(7) 0.4224(4) 0.5268(5)
C10_3 C 0.7638(7) 0.4835(4) 0.4965(5)
C11_3 C 0.6639(7) 0.5194(3) 0.5511(5)
C12_3 C 0.6035(8) 0.5816(4) 0.5232(5)
H6_2 H 0.6272 0.6032 0.4637
C13_3 C 0.5105(8) 0.6104(4) 0.5829(5)
H7_3 H 0.4707 0.6522 0.5655
C14_3 C 0.4754(7) 0.5770(3) 0.6701(5)
H8_3 H 0.4109 0.5975 0.7100
C15_3 C 0.6220(6) 0.4881(3) 0.6417(5)
C16_3 C 0.6817(7) 0.4237(3) 0.6754(5)
C17_3 C 0.6892(9) 0.3355(4) 0.7930(6)
H9_3 H 0.6601 0.3166 0.8530
C18_3 C 0.7857(10) 0.3000(4) 0.7402(7)
H10_3 H 0.8189 0.2583 0.7644
C19_3 C 0.8319(9) 0.3268(4) 0.6519(6)
H11_3 H 0.8962 0.3033 0.6152
C20_3 C 0.7807(8) 0.3898(4) 0.6185(5)
C21_3 C 0.3099(7) 0.3463(3) 0.7530(5)
C22_3 C 0.2459(7) 0.2949(3) 0.6855(5)
C23_3 C 0.1681(7) 0.3083(4) 0.6017(5)
H12_3 H 0.1465 0.3524 0.5794
C24_3 C 0.1244(8) 0.2477(3) 0.5530(5)
H13_3 H 0.0712 0.2474 0.4946
C25_3 C 0.1685(7) 0.1895(3) 0.6006(5)
C26_3 C 0.1333(7) 0.1180(3) 0.5681(5)
O9_2 O 0.6214(5) 0.5270(2) 0.9390(3)
O10_2 O 0.5761(5) 0.3858(2) 0.9838(3)
O11_2 O 0.3396(5) 0.5686(2) 0.8735(3)
Pr3 Pr 0.0548 0.9536 0.6298
H7_4 H 0.0293 0.1522 0.9345
C14_4 C 0.0246(7) 0.0770(3) 0.8299(5)
H8_4 H 0.0891 0.0975 0.7900
S1_4 S 0.2355(2) 0.7080(1) 0.7943(1)
O3_4 O 0.2021(5) 0.9099(2) 0.7706(3)
O4_4 O 0.1258(6) 0.8279(2) 0.6703(4)
C21_4 C 0.1901(7) 0.8463(3) 0.7470(5)
C22_4 C 0.2541(7) 0.7949(3) 0.8145(5)
C23_4 C 0.3319(7) 0.8083(4) 0.8983(5)
H12_4 H 0.3535 0.8524 0.9206
C24_4 C 0.3756(8) 0.7477(3) 0.9470(5)
C25_4 C 0.3315(7) 0.6895(3) 0.8994(5)
C26_4 C 0.3667(7) 0.6180(3) 0.9319(5)
O7_2 O 0.2767(5) 0.9299(3) 0.5388(4)
O8 O 0.1214(5) 0.9730(2) 0.4390(3)
N3_4 N 0.5831(6) 0.9005(3) 0.0401(4)
N4_4 N 0.6773(6) 0.9993(3) 0.0932(4)
C1_3 C 0.2389(7) 0.9499(3) 0.4543(5)
C2_3 C 0.3337(7) 0.9479(3) 0.3670(5)
C3_3 C 0.3213(10) 0.8983(5) 0.2951(6)
H2_3 H 0.2543 0.8650 0.3004
C4_3 C 0.4071(9) 0.8964(4) 0.2142(6)
H3_3 H 0.4008 0.8605 0.1680
C5_4 C 0.5017(7) 0.9475(3) 0.2017(5)
C6_4 C 0.5122(9) 0.9969(4) 0.2737(7)
C7_3 C 0.4302(9) 0.9967(5) 0.3570(6)
C8_4 C 0.5873(7) 0.9474(3) 0.1122(5)
C10_4 C 0.7362(7) 0.9835(4) 0.0035(5)
C1_4 C 0.7389(7) 0.5501(3) 0.9543(5)
C2_4 C 0.8337(7) 0.5521(3) 0.8670(5)
C3_4 C 0.8213(10) 0.6017(5) 0.7951(6)
H2_4 H 0.7543 0.6350 0.8004
C4_4 C 0.9071(9) 0.6036(4) 0.7142(6)
H3_4 H 0.9008 0.6395 0.6680
C7_4 C 0.9302(9) 0.5033(5) 0.8570(6)
H5_2 H 0.9415 0.4697 0.9063
N2_4 N 0.1355(6) 0.1047(3) 0.2629(4)
C9_4 C 0.3228(7) 0.0776(4) 0.0268(5)
C15_4 C 0.1220(6) 0.0119(3) 0.1417(5)
C16_4 C 0.1817(7) 0.0763(3) 0.1754(5)
C17_4 C 0.1892(9) 0.1645(4) 0.2930(6)
H9_4 H 0.1601 0.1834 0.3530
C18_4 C 0.2857(10) 0.2000(4) 0.2402(7)
H10_4 H 0.3189 0.2417 0.2644
C19_4 C 0.3319(9) 0.1732(4) 0.1519(6)
H11_4 H 0.3962 0.1967 0.1152
C20_4 C 0.2807(8) 0.1102(4) 0.1185(5)
N1_4 N 0.0275(5) 0.9823(3) 0.2005(4)
C11_4 C 0.1639(7) 0.9806(3) 0.0511(5)
C12_4 C 0.1035(8) 0.9184(4) 0.0232(5)
C13_4 C 0.0105(8) 0.8896(4) 0.0829(5)
H13_4 H 0.5712 0.2526 0.9946
H1_3 H 0.710(7) 0.029(4) 0.133(5)
H4_3 H 0.5758 0.0317 0.2671
H5_3 H 0.4415 0.0303 0.4063
H6_3 H 0.8728 0.1032 0.0363
H1_4 H 0.290(7) 0.971(4) 0.867(5)
H4_4 H 0.4242 0.9683 0.7329
H5_4 H 0.5585 0.9697 0.5937
H6_4 H 0.1272 0.8968 0.9637
loop_
_geom_bond_atom_site_label_1
_geom_bond_atom_site_label_2
_geom_bond_site_symmetry_1
_geom_bond_site_symmetry_2
O2 C1 1_555 1_555
C1 C2 1_555 1_555
C2 C3 1_555 1_555
C3 H2 1_555 1_555
C4 C3 1_555 1_555
H3 C4 1_555 1_555
C7 C2 1_555 1_555
H5 C7 1_555 1_555
Pr4 O2 1_555 1_555
Pr4 O5 1_555 1_555
C12 C11 1_555 1_555
C13 C12 1_555 1_555
C16 N2 1_555 1_555
C17 N2 1_555 1_555
H9 C17 1_555 1_555
C18 C17 1_555 1_555
H10 C18 1_555 1_555
C19 C18 1_555 1_555
H11 C19 1_555 1_555
C20 C9 1_555 1_555
C15 C16 1_555 1_555
C16 C20 1_555 1_555
C19 C20 1_555 1_555
Pr4 O3 1_555 1_555
S1 C22 1_555 1_555
O3 C21 1_555 1_555
O4 Pr4 1_555 1_555
O10 C26 1_555 1_555
O6 C26 1_555 1_555
N1_2 Pr4 1_555 1_555
N2_2 Pr4 1_555 1_555
N3 C8 1_555 1_555
N4 H1 1_555 1_555
C6 C5 1_555 1_555
H4 C6 1_555 1_555
C8 N4 1_555 1_555
C9_2 N3 1_555 1_555
C10 N4 1_555 1_555
C11_2 C10 1_555 1_555
C12_2 C11_2 1_555 1_555
H6 C12_2 1_555 1_555
C13_2 C12_2 1_555 1_555
H7 C13_2 1_555 1_555
C14 N1_2 1_555 1_555
H8 C14 1_555 1_555
C15_2 N1_2 1_555 1_555
C16_2 N2_2 1_555 1_555
C17_2 N2_2 1_555 1_555
H9_2 C17_2 1_555 1_555
C18_2 C17_2 1_555 1_555
H10_2 C18_2 1_555 1_555
C19_2 C18_2 1_555 1_555
H11_2 C19_2 1_555 1_555
C20_2 C9_2 1_555 1_555
C21 O4 1_555 1_555
C22 C21 1_555 1_555
C23 C22 1_555 1_555
H12 C23 1_555 1_555
C24 C23 1_555 1_555
H13_2 C24 1_555 1_555
C25 S1 1_555 1_555
C26 C25 1_555 1_555
O7 Pr4 1_555 1_555
O11 Pr4 1_555 1_555
C5 C8 1_555 1_555
C9_2 C10 1_555 1_555
C11_2 C15_2 1_555 1_555
C13_2 C14 1_555 1_555
C15_2 C16_2 1_555 1_555
C16_2 C20_2 1_555 1_555
C19_2 C20_2 1_555 1_555
C24 C25 1_555 1_555
O1 C1_2 1_555 1_555
O9 C1_2 1_555 1_555
N3_2 C8_2 1_555 1_555
C1_2 C2_2 1_555 1_555
C2_2 C3_2 1_555 1_555
C3_2 H2_2 1_555 1_555
C4_2 C3_2 1_555 1_555
H3_2 C4_2 1_555 1_555
C5_2 C4_2 1_555 1_555
C6_2 C5_2 1_555 1_555
C7_2 C2_2 1_555 1_555
C8_2 N4_2 1_555 1_555
C10_2 N4_2 1_555 1_555
Pr5 O1 1_555 1_555
O9 Pr5 1_555 1_555
C5_2 C8_2 1_555 1_555
C6_2 C7_2 1_555 1_555
Pr5 O3_2 1_555 1_555
S1_2 C22_2 1_555 1_555
O3_2 C21_2 1_555 1_555
O4_2 Pr5 1_555 1_555
O11 C26_2 1_555 1_555
C21_2 O4_2 1_555 1_555
C22_2 C21_2 1_555 1_555
C23_2 C22_2 1_555 1_555
H12_2 C23_2 1_555 1_555
C24_2 C23_2 1_555 1_555
C25_2 S1_2 1_555 1_555
C26_2 C25_2 1_555 1_555
C24_2 C25_2 1_555 1_555
H8_2 C14_2 1_555 1_555
Pr2 O1_2 1_555 1_555
Pr2 O3_3 1_555 1_555
S1_3 C22_3 1_555 1_555
O3_3 C21_3 1_555 1_555
O4_3 Pr2 1_555 1_555
O5_2 C26_3 1_555 1_555
O6_2 C26_3 1_555 1_555
N1_3 Pr2 1_555 1_555
N2_3 Pr2 1_555 1_555
N3_3 C8_3 1_555 1_555
N4_3 H1_2 1_555 1_555
C6_3 C5_3 1_555 1_555
H4_2 C6_3 1_555 1_555
C8_3 N4_3 1_555 1_555
C9_3 N3_3 1_555 1_555
C10_3 N4_3 1_555 1_555
C11_3 C10_3 1_555 1_555
C12_3 C11_3 1_555 1_555
H6_2 C12_3 1_555 1_555
C13_3 C12_3 1_555 1_555
H7_3 C13_3 1_555 1_555
C14_3 N1_3 1_555 1_555
H8_3 C14_3 1_555 1_555
C15_3 N1_3 1_555 1_555
C16_3 N2_3 1_555 1_555
C17_3 N2_3 1_555 1_555
H9_3 C17_3 1_555 1_555
C18_3 C17_3 1_555 1_555
H10_3 C18_3 1_555 1_555
C19_3 C18_3 1_555 1_555
H11_3 C19_3 1_555 1_555
C20_3 C9_3 1_555 1_555
C21_3 O4_3 1_555 1_555
C22_3 C21_3 1_555 1_555
C23_3 C22_3 1_555 1_555
H12_3 C23_3 1_555 1_555
C24_3 C23_3 1_555 1_555
H13_3 C24_3 1_555 1_555
C25_3 S1_3 1_555 1_555
C26_3 C25_3 1_555 1_555
O9_2 Pr2 1_555 1_555
O10_2 Pr2 1_555 1_555
O11_2 Pr2 1_555 1_555
C5_3 C8_3 1_555 1_555
C9_3 C10_3 1_555 1_555
C11_3 C15_3 1_555 1_555
C13_3 C14_3 1_555 1_555
C15_3 C16_3 1_555 1_555
C16_3 C20_3 1_555 1_555
C19_3 C20_3 1_555 1_555
C24_3 C25_3 1_555 1_555
H8_4 C14_4 1_555 1_555
Pr3 O3_4 1_555 1_555
S1_4 C22_4 1_555 1_555
O3_4 C21_4 1_555 1_555
O4_4 Pr3 1_555 1_555
O11_2 C26_4 1_555 1_555
C21_4 O4_4 1_555 1_555
C22_4 C21_4 1_555 1_555
C23_4 C22_4 1_555 1_555
H12_4 C23_4 1_555 1_555
C24_4 C23_4 1_555 1_555
C25_4 S1_4 1_555 1_555
C26_4 C25_4 1_555 1_555
O7_2 Pr3 1_555 1_555
O8 Pr3 1_555 1_555
C24_4 C25_4 1_555 1_555
O7_2 C1_3 1_555 1_555
O8 C1_3 1_555 1_555
N3_4 C8_4 1_555 1_555
C1_3 C2_3 1_555 1_555
C2_3 C3_3 1_555 1_555
C3_3 H2_3 1_555 1_555
C4_3 C3_3 1_555 1_555
H3_3 C4_3 1_555 1_555
C5_4 C4_3 1_555 1_555
C6_4 C5_4 1_555 1_555
C7_3 C2_3 1_555 1_555
C8_4 N4_4 1_555 1_555
C10_4 N4_4 1_555 1_555
C5_4 C8_4 1_555 1_555
C6_4 C7_3 1_555 1_555
O9_2 C1_4 1_555 1_555
C1_4 C2_4 1_555 1_555
C2_4 C3_4 1_555 1_555
C3_4 H2_4 1_555 1_555
C4_4 C3_4 1_555 1_555
H3_4 C4_4 1_555 1_555
C7_4 C2_4 1_555 1_555
H5_2 C7_4 1_555 1_555
C16_4 N2_4 1_555 1_555
C17_4 N2_4 1_555 1_555
H9_4 C17_4 1_555 1_555
C18_4 C17_4 1_555 1_555
H10_4 C18_4 1_555 1_555
C19_4 C18_4 1_555 1_555
H11_4 C19_4 1_555 1_555
C20_4 C9_4 1_555 1_555
C15_4 C16_4 1_555 1_555
C16_4 C20_4 1_555 1_555
C19_4 C20_4 1_555 1_555
C12_4 C11_4 1_555 1_555
C13_4 C12_4 1_555 1_555

#END
