
###############################################################################
#
# This file contains modified crystal structure data generated from the
# MOF subset of the Cambridge Structural Database (CSD) v543 
# hosted by the Cambridge Crystallographic Data Centre (CCDC).
#
# This work is licensed under the Creative Commons
# Attribution-NonCommercial-ShareAlike 4.0 International License.
# To view a copy of this license, visit
# http://creativecommons.org/licenses/by-nc-sa/4.0/
# or send a letter to
# Creative Commons, PO Box 1866, Mountain View, CA 94042, USA.
#
# CIF created using the CSD Python API on 29 September 2022
# The structure has been converted into the P1 space group
# The structure has a 3D framework
# The original CSD entry VIXVUV is in the orthorhombic crystal system
# The framework has been calculated to contain at least 10.0% void space
# The void calculation uses a probe of radius 1.32A, grid spacing 0.4
#
###############################################################################

data_VIXVUV
_chemical_formula_moiety         '(C72 H80 N8 O13 Zn2)n'
_symmetry_cell_setting           triclinic
_symmetry_space_group_name_H-M   'P 1'
_symmetry_Int_Tables_number      1
_space_group_name_Hall           'P 1'
loop_
_symmetry_equiv_pos_site_id
_symmetry_equiv_pos_as_xyz
1 x,y,z
_cell_length_a                   10.5081(9)
_cell_length_b                   16.6714(14)
_cell_length_c                   12.2960(10)
_cell_angle_alpha                90
_cell_angle_beta                 90
_cell_angle_gamma                90
_cell_volume                     2154.07
loop_
_atom_site_label
_atom_site_type_symbol
_atom_site_fract_x
_atom_site_fract_y
_atom_site_fract_z
Zn1 Zn 0.09905(5) 0.2500 0.2500
N1 N 0.2268(3) 0.32221(17) 0.3313(2)
O1 O 0.0233(4) 0.30045(19) 0.1271(3)
C4 C 0.2859(5) 0.3826(3) 0.2805(4)
H5 H 0.2610 0.3955 0.2101
C5 C 0.3817(5) 0.4261(3) 0.3280(4)
H6 H 0.4229 0.4664 0.2892
C6 C 0.4169(4) 0.4094(2) 0.4357(4)
C7 C 0.3539(5) 0.3494(2) 0.4871(3)
H7 H 0.3736 0.3370 0.5589
C8 C 0.2602(5) 0.3065(2) 0.4331(4)
H8 H 0.2192 0.2651 0.4697
C9 C 0.5199(5) 0.4562(2) 0.4904(4)
H9 H 0.5959 0.4550 0.4457
H10 H 0.5400 0.4314 0.5597
N2 N 0.7732(3) 0.67779(17) 0.6687(2)
C10 C 0.7141(5) 0.6174(3) 0.7195(4)
H11 H 0.7390 0.6045 0.7899
C11 C 0.6183(5) 0.5739(3) 0.6720(4)
H12 H 0.5771 0.5336 0.7108
C12 C 0.5831(4) 0.5906(2) 0.5643(4)
C13 C 0.6461(5) 0.6506(2) 0.5129(3)
H13 H 0.6264 0.6630 0.4411
C14 C 0.7398(5) 0.6935(2) 0.5669(4)
H14 H 0.7808 0.7349 0.5303
C15 C 0.4801(5) 0.5438(2) 0.5096(4)
H15 H 0.4041 0.5450 0.5543
H16 H 0.4600 0.5686 0.4403
H17 H 0.0678 0.6325 0.0271
H19 H 0.1065 0.5048 0.0661
Zn3 Zn 0.90095(5) 0.7500 0.7500
N3 N 0.2268(3) 0.17779(17) 0.1687(2)
O5 O 0.0233(4) 0.19955(19) 0.3729(3)
H1 H 0.9322 0.3675 0.9729
H3 H 0.8935 0.4952 0.9339
O3 O 0.9767(4) 0.69955(19) 0.8729(3)
C4_2 C 0.2859(5) 0.1174(3) 0.2195(4)
H5_2 H 0.2610 0.1045 0.2899
C5_2 C 0.3817(5) 0.0739(3) 0.1720(4)
H6_2 H 0.4229 0.0336 0.2108
C6_2 C 0.4169(4) 0.0906(2) 0.0643(4)
C7_2 C 0.3539(5) 0.1506(2) 0.0129(3)
C8_2 C 0.2602(5) 0.1935(2) 0.0669(4)
H8_2 H 0.2192 0.2349 0.0303
C9_2 C 0.5199(5) 0.0438(2) 0.0096(4)
H9_2 H 0.5959 0.0450 0.0543
H20 H 0.1099 0.0194 0.5564
N2_2 N 0.7732(3) 0.82221(17) 0.8313(2)
C10_2 C 0.7141(5) 0.8826(3) 0.7805(4)
H11_2 H 0.7390 0.8955 0.7101
C11_2 C 0.6183(5) 0.9261(3) 0.8280(4)
H12_2 H 0.5771 0.9664 0.7892
C12_2 C 0.5831(4) 0.9094(2) 0.9357(4)
C13_2 C 0.6461(5) 0.8494(2) 0.9871(3)
C14_2 C 0.7398(5) 0.8065(2) 0.9331(4)
H14_2 H 0.7808 0.7651 0.9697
C15_2 C 0.4801(5) 0.9562(2) 0.9904(4)
H15_2 H 0.4041 0.9550 0.9457
H4 H 0.8901 0.9806 0.4436
O3_2 O 0.9767(4) 0.80045(19) 0.6271(3)
O4 O 0.0439(6) 0.5972(3) 0.7782(4)
C16 C 0.0300(4) 0.6329(2) 0.8669(4)
C17 C 0.0922(5) 0.5992(3) 0.9659(5)
H18 H 0.1834 0.6049 0.9569
C18 C 0.0665(6) 0.5143(4) 0.9962(7)
H20_2 H 0.1099 0.4806 0.9436
O2 O 0.9561(6) 0.4028(3) 0.2218(4)
C1 C 0.9700(4) 0.3671(2) 0.1331(4)
C2 C 0.9078(5) 0.4008(3) 0.0341(5)
H2 H 0.8166 0.3951 0.0431
C3 C 0.9335(6) 0.4857(4) 0.0038(7)
H4_2 H 0.8901 0.5194 0.0564
Zn1_2 Zn 0.40095(5) 0.7500 0.2500
N1_2 N 0.2732(3) 0.67779(17) 0.3313(2)
O1_2 O 0.4767(4) 0.69955(19) 0.1271(3)
O2_2 O 0.5439(6) 0.5972(3) 0.2218(4)
C1_2 C 0.5300(4) 0.6329(2) 0.1331(4)
C2_2 C 0.5922(5) 0.5992(3) 0.0341(5)
H2_2 H 0.6834 0.6049 0.0431
C3_2 C 0.5665(6) 0.5143(4) 0.0038(7)
H4_3 H 0.6099 0.4806 0.0564
C4_3 C 0.2141(5) 0.6174(3) 0.2805(4)
H5_3 H 0.2390 0.6045 0.2101
C5_3 C 0.1183(5) 0.5739(3) 0.3280(4)
H6_3 H 0.0771 0.5336 0.2892
C6_3 C 0.0831(4) 0.5906(2) 0.4357(4)
C7_3 C 0.1461(5) 0.6506(2) 0.4871(3)
H7_2 H 0.1264 0.6630 0.5589
C8_3 C 0.2398(5) 0.6935(2) 0.4331(4)
H8_3 H 0.2808 0.7349 0.4697
C15_3 C 0.0199(5) 0.4562(2) 0.5096(4)
H15_3 H 0.0959 0.4550 0.5543
H16_2 H 0.0400 0.4314 0.4403
H17_2 H 0.4322 0.3675 0.0271
H19_2 H 0.3935 0.4952 0.0661
N3_2 N 0.2732(3) 0.82221(17) 0.1687(2)
O5_2 O 0.4767(4) 0.80045(19) 0.3729(3)
O2_3 O 0.5439(6) 0.9028(3) 0.2782(4)
C1_3 C 0.5300(4) 0.8671(2) 0.3669(4)
C2_3 C 0.5922(5) 0.9008(3) 0.4659(5)
H1_2 H 0.5678 0.8675 0.5271
H2_3 H 0.6834 0.8951 0.4569
C3_3 C 0.5665(6) 0.9857(4) 0.4962(7)
H3_2 H 0.6065 0.9952 0.5661
C4_4 C 0.2141(5) 0.8826(3) 0.2195(4)
H5_4 H 0.2390 0.8955 0.2899
C5_4 C 0.1183(5) 0.9261(3) 0.1720(4)
H6_4 H 0.0771 0.9664 0.2108
C6_4 C 0.0831(4) 0.9094(2) 0.0643(4)
C7_4 C 0.1461(5) 0.8494(2) 0.0129(3)
C8_4 C 0.2398(5) 0.8065(2) 0.0669(4)
H8_4 H 0.2808 0.7651 0.0303
H20_3 H 0.3901 0.9806 0.5564
H10_2 H 0.9600 0.9314 0.9403
H1_3 H 0.5678 0.6325 0.9729
H3_3 H 0.6065 0.5048 0.9339
O3_3 O 0.5233(4) 0.30045(19) 0.8729(3)
O4_2 O 0.4561(6) 0.4028(3) 0.7782(4)
C16_2 C 0.4700(4) 0.3671(2) 0.8669(4)
C17_2 C 0.4078(5) 0.4008(3) 0.9659(5)
H18_2 H 0.3166 0.3951 0.9569
C18_2 C 0.4335(6) 0.4857(4) 0.9962(7)
H20_4 H 0.3901 0.5194 0.9436
Zn2 Zn 0.59905(5) 0.2500 0.7500
C9_3 C 0.9801(5) 0.5438(2) 0.4904(4)
H9_3 H 0.9041 0.5450 0.4457
H10_3 H 0.9600 0.5686 0.5597
N2_3 N 0.7268(3) 0.32221(17) 0.6687(2)
C10_3 C 0.7859(5) 0.3826(3) 0.7195(4)
H11_3 H 0.7610 0.3955 0.7899
C11_3 C 0.8817(5) 0.4261(3) 0.6720(4)
H12_3 H 0.9229 0.4664 0.7108
C12_3 C 0.9169(4) 0.4094(2) 0.5643(4)
C13_3 C 0.8539(5) 0.3494(2) 0.5129(3)
H13_2 H 0.8736 0.3370 0.4411
C14_3 C 0.7602(5) 0.3065(2) 0.5669(4)
H14_3 H 0.7192 0.2651 0.5303
H4_4 H 0.6099 0.0194 0.4436
H16_3 H 0.0400 0.0686 0.0597
O3_4 O 0.5233(4) 0.19955(19) 0.6271(3)
O4_3 O 0.4561(6) 0.0972(3) 0.7218(4)
C16_3 C 0.4700(4) 0.1329(2) 0.6331(4)
C17_3 C 0.4078(5) 0.0992(3) 0.5341(5)
H17_3 H 0.4322 0.1325 0.4729
H18_3 H 0.3166 0.1049 0.5431
C18_3 C 0.4335(6) 0.0143(4) 0.5038(7)
H19_3 H 0.3935 0.0048 0.4339
N2_4 N 0.7268(3) 0.17779(17) 0.8313(2)
C10_4 C 0.7859(5) 0.1174(3) 0.7805(4)
H11_4 H 0.7610 0.1045 0.7101
C11_4 C 0.8817(5) 0.0739(3) 0.8280(4)
H12_4 H 0.9229 0.0336 0.7892
C12_4 C 0.9169(4) 0.0906(2) 0.9357(4)
C13_4 C 0.8539(5) 0.1506(2) 0.9871(3)
C14_4 C 0.7602(5) 0.1935(2) 0.9331(4)
H14_4 H 0.7192 0.2349 0.9697
C15_4 C 0.0199(5) 0.0438(2) 0.9904(4)
H15_4 H 0.0959 0.0450 0.9457
H7_3 H 0.1264 0.8370 0.9411
H13_3 H 0.8736 0.1630 0.0589
C9_4 C 0.9801(5) 0.9562(2) 0.0096(4)
H9_4 H 0.9041 0.9550 0.0543
H7_4 H 0.3736 0.1630 0.9411
H10_4 H 0.5400 0.0686 0.9403
O2_4 O 0.9561(6) 0.0972(3) 0.2782(4)
C1_4 C 0.9700(4) 0.1329(2) 0.3669(4)
C2_4 C 0.9078(5) 0.0992(3) 0.4659(5)
H1_4 H 0.9322 0.1325 0.5271
H2_4 H 0.8166 0.1049 0.4569
C3_4 C 0.9335(6) 0.0143(4) 0.4962(7)
H3_4 H 0.8935 0.0048 0.5661
H13_4 H 0.6264 0.8370 0.0589
H16_4 H 0.4600 0.9314 0.0597
O4_4 O 0.0439(6) 0.9028(3) 0.7218(4)
C16_4 C 0.0300(4) 0.8671(2) 0.6331(4)
C17_4 C 0.0922(5) 0.9008(3) 0.5341(5)
H17_4 H 0.0678 0.8675 0.4729
H18_4 H 0.1834 0.8951 0.5431
C18_4 C 0.0665(6) 0.9857(4) 0.5038(7)
H19_4 H 0.1065 0.9952 0.4339
loop_
_geom_bond_atom_site_label_1
_geom_bond_atom_site_label_2
_geom_bond_site_symmetry_1
_geom_bond_site_symmetry_2
Zn1 N1 1_555 1_555
N1 C4 1_555 1_555
O1 Zn1 1_555 1_555
C4 H5 1_555 1_555
C5 C4 1_555 1_555
H6 C5 1_555 1_555
C6 C5 1_555 1_555
C7 C6 1_555 1_555
H7 C7 1_555 1_555
C8 N1 1_555 1_555
H8 C8 1_555 1_555
C9 C6 1_555 1_555
H9 C9 1_555 1_555
H10 C9 1_555 1_555
N2 C10 1_555 1_555
C10 H11 1_555 1_555
C11 C10 1_555 1_555
H12 C11 1_555 1_555
C12 C11 1_555 1_555
C13 C12 1_555 1_555
H13 C13 1_555 1_555
C14 N2 1_555 1_555
H14 C14 1_555 1_555
C15 C9 1_555 1_555
H15 C15 1_555 1_555
H16 C15 1_555 1_555
Zn3 N2 1_555 1_555
N3 Zn1 1_555 1_555
O5 Zn1 1_555 1_555
C7 C8 1_555 1_555
C12 C15 1_555 1_555
C13 C14 1_555 1_555
Zn3 O3 1_555 1_555
N3 C4_2 1_555 1_555
C4_2 H5_2 1_555 1_555
C5_2 C4_2 1_555 1_555
H6_2 C5_2 1_555 1_555
C6_2 C5_2 1_555 1_555
C7_2 C6_2 1_555 1_555
C8_2 N3 1_555 1_555
H8_2 C8_2 1_555 1_555
C9_2 C6_2 1_555 1_555
H9_2 C9_2 1_555 1_555
C7_2 C8_2 1_555 1_555
N2_2 C10_2 1_555 1_555
C10_2 H11_2 1_555 1_555
C11_2 C10_2 1_555 1_555
H12_2 C11_2 1_555 1_555
C12_2 C11_2 1_555 1_555
C13_2 C12_2 1_555 1_555
C14_2 N2_2 1_555 1_555
H14_2 C14_2 1_555 1_555
H15_2 C15_2 1_555 1_555
Zn3 N2_2 1_555 1_555
C12_2 C15_2 1_555 1_555
C13_2 C14_2 1_555 1_555
Zn3 O3_2 1_555 1_555
O4 C16 1_555 1_555
C16 C17 1_555 1_555
H18 C17 1_555 1_555
H20_2 C18 1_555 1_555
C17 C18 1_555 1_555
O2 C1 1_555 1_555
C2 C1 1_555 1_555
H2 C2 1_555 1_555
C3 C2 1_555 1_555
H4_2 C3 1_555 1_555
Zn1_2 N1_2 1_555 1_555
N1_2 C4_3 1_555 1_555
O1_2 Zn1_2 1_555 1_555
O2_2 C1_2 1_555 1_555
C1_2 O1_2 1_555 1_555
C2_2 C1_2 1_555 1_555
H2_2 C2_2 1_555 1_555
C3_2 C2_2 1_555 1_555
H4_3 C3_2 1_555 1_555
C4_3 H5_3 1_555 1_555
C5_3 C4_3 1_555 1_555
H6_3 C5_3 1_555 1_555
C6_3 C5_3 1_555 1_555
C7_3 C6_3 1_555 1_555
H7_2 C7_3 1_555 1_555
C8_3 N1_2 1_555 1_555
H8_3 C8_3 1_555 1_555
H15_3 C15_3 1_555 1_555
H16_2 C15_3 1_555 1_555
N3_2 Zn1_2 1_555 1_555
O5_2 Zn1_2 1_555 1_555
C7_3 C8_3 1_555 1_555
N3_2 C4_4 1_555 1_555
O2_3 C1_3 1_555 1_555
C1_3 O5_2 1_555 1_555
C2_3 C1_3 1_555 1_555
H1_2 C2_3 1_555 1_555
H2_3 C2_3 1_555 1_555
C3_3 C2_3 1_555 1_555
H3_2 C3_3 1_555 1_555
C4_4 H5_4 1_555 1_555
C5_4 C4_4 1_555 1_555
H6_4 C5_4 1_555 1_555
C6_4 C5_4 1_555 1_555
C7_4 C6_4 1_555 1_555
C8_4 N3_2 1_555 1_555
H8_4 C8_4 1_555 1_555
C7_4 C8_4 1_555 1_555
O3_3 C16_2 1_555 1_555
O4_2 C16_2 1_555 1_555
C16_2 C17_2 1_555 1_555
H18_2 C17_2 1_555 1_555
H20_4 C18_2 1_555 1_555
Zn2 O3_3 1_555 1_555
C17_2 C18_2 1_555 1_555
H9_3 C9_3 1_555 1_555
H10_3 C9_3 1_555 1_555
N2_3 C10_3 1_555 1_555
C10_3 H11_3 1_555 1_555
C11_3 C10_3 1_555 1_555
H12_3 C11_3 1_555 1_555
C12_3 C11_3 1_555 1_555
C13_3 C12_3 1_555 1_555
H13_2 C13_3 1_555 1_555
C14_3 N2_3 1_555 1_555
H14_3 C14_3 1_555 1_555
Zn2 N2_3 1_555 1_555
C13_3 C14_3 1_555 1_555
O3_4 C16_3 1_555 1_555
O4_3 C16_3 1_555 1_555
C16_3 C17_3 1_555 1_555
C17_3 H17_3 1_555 1_555
H18_3 C17_3 1_555 1_555
H19_3 C18_3 1_555 1_555
Zn2 O3_4 1_555 1_555
C17_3 C18_3 1_555 1_555
N2_4 C10_4 1_555 1_555
C10_4 H11_4 1_555 1_555
C11_4 C10_4 1_555 1_555
H12_4 C11_4 1_555 1_555
C12_4 C11_4 1_555 1_555
C13_4 C12_4 1_555 1_555
C14_4 N2_4 1_555 1_555
H14_4 C14_4 1_555 1_555
Zn2 N2_4 1_555 1_555
C13_4 C14_4 1_555 1_555
H15_4 C15_4 1_555 1_555
H9_4 C9_4 1_555 1_555
O2_4 C1_4 1_555 1_555
C2_4 C1_4 1_555 1_555
H1_4 C2_4 1_555 1_555
H2_4 C2_4 1_555 1_555
C3_4 C2_4 1_555 1_555
H3_4 C3_4 1_555 1_555
O4_4 C16_4 1_555 1_555
C16_4 C17_4 1_555 1_555
C17_4 H17_4 1_555 1_555
H18_4 C17_4 1_555 1_555
H19_4 C18_4 1_555 1_555
C17_4 C18_4 1_555 1_555

#END
