
###############################################################################
#
# This file contains modified crystal structure data generated from the
# MOF subset of the Cambridge Structural Database (CSD) v543 
# hosted by the Cambridge Crystallographic Data Centre (CCDC).
#
# This work is licensed under the Creative Commons
# Attribution-NonCommercial-ShareAlike 4.0 International License.
# To view a copy of this license, visit
# http://creativecommons.org/licenses/by-nc-sa/4.0/
# or send a letter to
# Creative Commons, PO Box 1866, Mountain View, CA 94042, USA.
#
# CIF created using the CSD Python API on 29 September 2022
# The structure has been converted into the P1 space group
# The structure has a 3D framework
# The original CSD entry VIXVAC is in the monoclinic crystal system
# The framework has been calculated to contain at least 10.0% void space
# The void calculation uses a probe of radius 1.32A, grid spacing 0.4
#
###############################################################################

data_VIXVAC
_chemical_formula_moiety         '(C104 H52 N16 O22 S4 Sm4)n'
_symmetry_cell_setting           triclinic
_symmetry_space_group_name_H-M   'P 1'
_symmetry_Int_Tables_number      1
_space_group_name_Hall           'P 1'
loop_
_symmetry_equiv_pos_site_id
_symmetry_equiv_pos_as_xyz
1 x,y,z
_cell_length_a                   10.0065(6)
_cell_length_b                   19.1887(13)
_cell_length_c                   13.1574(8)
_cell_angle_alpha                90
_cell_angle_beta                 90.9410(10)
_cell_angle_gamma                90
_cell_volume                     2526.03
loop_
_atom_site_label
_atom_site_type_symbol
_atom_site_fract_x
_atom_site_fract_y
_atom_site_fract_z
Sm5 Sm 0.05329(2) 0.546693(12) 0.128925(17)
O11 O 0.7301(4) 0.4310(2) 0.9592(3)
Sm4 Sm 0.94671(2) 0.453307(12) 0.871075(17)
O4 O 0.8013(4) 0.41143(17) 0.7323(2)
O5 O 0.8778(4) 0.32768(19) 0.8316(3)
O6 O 0.8438(4) 0.56691(18) 0.8748(3)
C1 C 0.8121(5) 0.3469(3) 0.7567(4)
C3 C 0.9731(6) 0.5768(3) 0.6706(4)
C6 C 0.7466(5) 0.2957(3) 0.6877(4)
H1 H 0.9076 0.5970 0.7103
S1 S 0.76464(15) 0.20777(7) 0.70669(10)
C11 C 0.6672(6) 0.3099(3) 0.6039(4)
H3 H 0.9697 0.6538 0.5653
C16 C 0.6661(5) 0.1896(3) 0.6020(4)
C17 C 0.6220(6) 0.2495(3) 0.5557(4)
H5 H 0.6461 0.3547 0.5819
C18 C 0.6275(5) 0.1188(3) 0.5686(4)
H8 H 0.5674 0.2497 0.4979
O8 O 0.5664(4) 0.11586(19) 0.4855(3)
O9 O 0.6562(4) 0.06691(18) 0.6252(3)
Sm2 Sm 0.44671(2) 0.046693(12) 0.371075(17)
Sm3 Sm 0.55329(2) 0.953307(12) 0.628925(17)
N1 N 0.4746(4) 0.0169(2) 0.7976(3)
C3_2 C 0.5269(6) 0.0768(3) 0.8294(4)
C7 C 0.3369(5) 0.0188(3) 0.9477(4)
H1_2 H 0.5924 0.0970 0.7897
C8 C 0.4914(6) 0.1113(3) 0.9174(4)
C13 C 0.3977(6) 0.0815(3) 0.9782(4)
H3_2 H 0.5303 0.1538 0.9347
O7 O 0.3799(4) 0.02505(19) 0.5617(3)
O1 O 0.4336(4) 0.88414(19) 0.5145(3)
O2 O 0.6201(4) 0.97495(19) 0.4383(3)
O3 O 0.7699(4) 0.9310(2) 0.5408(3)
O4_2 O 0.6987(4) 0.91143(17) 0.7677(2)
O5_2 O 0.6222(4) 0.82768(19) 0.6684(3)
N2 N 0.3660(5) 0.8942(2) 0.7340(3)
C1_2 C 0.6879(5) 0.8469(3) 0.7433(4)
C2 C 0.3781(5) 0.9879(3) 0.8570(4)
C4 C 0.3199(5) 0.9226(3) 0.8218(4)
C5 C 0.3144(7) 0.8349(3) 0.7026(4)
C6_2 C 0.7534(5) 0.7957(3) 0.8123(4)
C9 C 0.2203(6) 0.8889(3) 0.8797(4)
H2 H 0.3443 0.8161 0.6419
C10 C 0.2165(8) 0.7985(4) 0.7563(5)
S1_2 S 0.73536(15) 0.70777(7) 0.79331(10)
C11_2 C 0.8328(6) 0.8099(3) 0.8961(4)
C14 C 0.1788(5) 0.9223(3) 0.9710(4)
C15 C 0.1694(7) 0.8250(4) 0.8444(5)
H4 H 0.1839 0.7562 0.7315
C16_2 C 0.8339(5) 0.6896(3) 0.8980(4)
C17_2 C 0.8780(6) 0.7495(3) 0.9443(4)
H5_2 H 0.8539 0.8547 0.9181
H7 H 0.1046 0.8013 0.8807
C18_2 C 0.8725(5) 0.6188(3) 0.9314(4)
H12 H 0.9400 0.0319 0.4093
C22 C 0.9046(7) 0.8974(4) 0.2123(5)
C23 C 0.9300(7) 0.9978(4) 0.3595(5)
C24 C 0.8188(7) 0.8990(4) 0.2935(5)
H11 H 0.8961 0.8621 0.1641
C25 C 0.8317(5) 0.9481(3) 0.3679(4)
H13 H 0.7510 0.8661 0.2974
C26 C 0.7365(5) 0.9508(3) 0.4556(4)
O3_2 O 0.2699(4) 0.5690(2) 0.0408(3)
O4_3 O 0.1987(4) 0.58857(17) 0.2677(2)
O5_3 O 0.1222(4) 0.67232(19) 0.1684(3)
O6_2 O 0.1562(4) 0.43309(18) 0.1252(3)
C1_3 C 0.1879(5) 0.6531(3) 0.2433(4)
C3_3 C 0.0269(6) 0.4232(3) 0.3294(4)
C6_3 C 0.2534(5) 0.7043(3) 0.3123(4)
H1_3 H 0.0924 0.4030 0.2897
S1_3 S 0.23536(15) 0.79223(7) 0.29331(10)
C11_3 C 0.3328(6) 0.6901(3) 0.3961(4)
H3_3 H 0.0303 0.3462 0.4347
C16_3 C 0.3339(5) 0.8104(3) 0.3980(4)
C17_3 C 0.3780(6) 0.7505(3) 0.4443(4)
H5_3 H 0.3539 0.6453 0.4181
C18_3 C 0.3725(5) 0.8812(3) 0.4314(4)
H8_2 H 0.4326 0.7503 0.5021
O9_2 O 0.3438(4) 0.93309(18) 0.3748(3)
C22_2 C 0.0954(7) 0.1026(4) 0.7877(5)
C23_2 C 0.0700(7) 0.0022(4) 0.6405(5)
C24_2 C 0.1812(7) 0.1010(4) 0.7065(5)
H11_2 H 0.1039 0.1379 0.8359
C25_2 C 0.1683(5) 0.0519(3) 0.6321(4)
H13_2 H 0.2490 0.1339 0.7026
C26_2 C 0.2635(5) 0.0492(3) 0.5444(4)
O11_2 O 0.2301(4) 0.0690(2) 0.4592(3)
H12_2 H 0.0600 0.9681 0.5907
O4_4 O 0.3013(4) 0.08857(17) 0.2323(2)
O5_4 O 0.3778(4) 0.17232(19) 0.3316(3)
N2_2 N 0.6340(5) 0.1058(2) 0.2660(3)
C1_4 C 0.3121(5) 0.1531(3) 0.2567(4)
C2_2 C 0.6219(5) 0.0121(3) 0.1430(4)
C4_2 C 0.6801(5) 0.0774(3) 0.1782(4)
C5_2 C 0.6856(7) 0.1651(3) 0.2974(4)
C6_4 C 0.2466(5) 0.2043(3) 0.1877(4)
C9_2 C 0.7797(6) 0.1111(3) 0.1203(4)
H2_2 H 0.6557 0.1839 0.3581
C10_2 C 0.7835(8) 0.2015(4) 0.2437(5)
S1_4 S 0.26464(15) 0.29223(7) 0.20669(10)
C11_4 C 0.1672(6) 0.1901(3) 0.1039(4)
C14_2 C 0.8212(5) 0.0777(3) 0.0290(4)
C15_2 C 0.8306(7) 0.1750(4) 0.1556(5)
H4_2 H 0.8161 0.2438 0.2685
C16_4 C 0.1661(5) 0.3104(3) 0.1020(4)
C17_4 C 0.1220(6) 0.2505(3) 0.0557(4)
H5_4 H 0.1461 0.1453 0.0819
H7_2 H 0.8954 0.1987 0.1193
C18_4 C 0.1275(5) 0.3812(3) 0.0686(4)
N1_2 N 0.5254(4) 0.9831(2) 0.2024(3)
C3_4 C 0.4731(6) 0.9232(3) 0.1706(4)
C7_2 C 0.6631(5) 0.9812(3) 0.0523(4)
H1_4 H 0.4076 0.9030 0.2103
C8_2 C 0.5086(6) 0.8887(3) 0.0826(4)
C13_2 C 0.6023(6) 0.9185(3) 0.0218(4)
H3_4 H 0.4697 0.8462 0.0653
O1_2 O 0.0664(4) 0.38414(19) 0.9855(3)
N1_3 N 0.0254(4) 0.5169(2) 0.7024(3)
N2_3 N 0.1340(5) 0.3942(2) 0.7660(3)
C2_3 C 0.1219(5) 0.4879(3) 0.6430(4)
C4_3 C 0.1801(5) 0.4226(3) 0.6782(4)
C5_3 C 0.1856(7) 0.3349(3) 0.7974(4)
C7_3 C 0.1631(5) 0.5188(3) 0.5523(4)
C8_3 C 0.0086(6) 0.6113(3) 0.5826(4)
C9_3 C 0.2797(6) 0.3889(3) 0.6203(4)
H2_3 H 0.1557 0.3161 0.8581
C10_3 C 0.2835(8) 0.2985(4) 0.7437(5)
C12 C 0.2629(5) 0.4826(3) 0.4965(4)
C13_3 C 0.1023(6) 0.5815(3) 0.5218(4)
C14_3 C 0.3212(5) 0.4223(3) 0.5290(4)
C15_3 C 0.3306(7) 0.3250(4) 0.6556(5)
H4_3 H 0.3161 0.2562 0.7685
N3 N 0.3213(4) 0.4979(2) 0.4055(3)
H6 H 0.1255 0.6026 0.4609
N4 N 0.4162(5) 0.3990(3) 0.4607(3)
H7_3 H 0.3954 0.3013 0.6193
C19 C 0.4114(6) 0.4461(3) 0.3877(4)
H9 H 0.292(8) 0.531(3) 0.368(5)
C20 C 0.4982(5) 0.4468(3) 0.2981(4)
C21 C 0.4855(7) 0.4972(4) 0.2233(5)
C22_3 C 0.5954(7) 0.3974(4) 0.2877(5)
C23_3 C 0.5700(7) 0.4978(4) 0.1405(5)
H10 H 0.4195 0.5311 0.2285
C24_3 C 0.6812(7) 0.3990(4) 0.2065(5)
H11_3 H 0.6039 0.3621 0.3359
C25_3 C 0.6683(5) 0.4481(3) 0.1321(4)
H12_3 H 0.5600 0.5319 0.0907
H13_3 H 0.7490 0.3661 0.2026
C26_3 C 0.7635(5) 0.4508(3) 0.0444(4)
O7_2 O 0.1201(4) 0.52505(19) 0.9383(3)
O10 O 0.8799(4) 0.47495(19) 0.0617(3)
C12_2 C 0.2371(5) 0.9826(3) 0.0035(4)
N3_2 N 0.1787(4) 0.9979(2) 0.0945(3)
N4_2 N 0.0838(5) 0.8990(3) 0.0393(3)
H8_3 H 0.9326 0.7497 0.0021
C19_2 C 0.0886(6) 0.9461(3) 0.1123(4)
C20_2 C 0.0018(5) 0.9468(3) 0.2019(4)
C21_2 C 0.0145(7) 0.9972(4) 0.2767(5)
O8_2 O 0.9336(4) 0.61586(19) 0.0145(3)
N1_4 N 0.9746(4) 0.4831(2) 0.2976(3)
N2_4 N 0.8660(5) 0.6058(2) 0.2340(3)
C2_4 C 0.8781(5) 0.5121(3) 0.3570(4)
C4_4 C 0.8199(5) 0.5774(3) 0.3218(4)
C5_4 C 0.8144(7) 0.6651(3) 0.2026(4)
C7_4 C 0.8369(5) 0.4812(3) 0.4477(4)
C8_4 C 0.9914(6) 0.3887(3) 0.4174(4)
C9_4 C 0.7203(6) 0.6111(3) 0.3797(4)
H2_4 H 0.8443 0.6839 0.1419
C10_4 C 0.7165(8) 0.7015(4) 0.2563(5)
C12_3 C 0.7371(5) 0.5174(3) 0.5035(4)
C13_4 C 0.8977(6) 0.4185(3) 0.4782(4)
C14_4 C 0.6788(5) 0.5777(3) 0.4710(4)
C15_4 C 0.6694(7) 0.6750(4) 0.3444(5)
H4_4 H 0.6839 0.7438 0.2315
N3_3 N 0.6787(4) 0.5021(2) 0.5945(3)
H6_2 H 0.8745 0.3974 0.5391
N4_3 N 0.5838(5) 0.6010(3) 0.5393(3)
H7_4 H 0.6046 0.6987 0.3807
C19_3 C 0.5886(6) 0.5539(3) 0.6123(4)
H9_2 H 0.708(8) 0.469(3) 0.632(5)
C20_3 C 0.5018(5) 0.5532(3) 0.7019(4)
C21_3 C 0.5145(7) 0.5028(4) 0.7767(5)
C22_4 C 0.4046(7) 0.6026(4) 0.7123(5)
C23_4 C 0.4300(7) 0.5022(4) 0.8595(5)
H10_2 H 0.5805 0.4689 0.7715
C24_4 C 0.3188(7) 0.6010(4) 0.7935(5)
H11_4 H 0.3961 0.6379 0.6641
C25_4 C 0.3317(5) 0.5519(3) 0.8679(4)
H12_4 H 0.4400 0.4681 0.9093
H13_4 H 0.2510 0.6339 0.7974
C26_4 C 0.2365(5) 0.5492(3) 0.9556(4)
C12_4 C 0.7629(5) 0.0174(3) 0.9965(4)
N3_4 N 0.8213(4) 0.0021(2) 0.9055(3)
N4_4 N 0.9162(5) 0.1010(3) 0.9607(3)
H8_4 H 0.0674 0.2503 0.9979
C19_4 C 0.9114(6) 0.0539(3) 0.8877(4)
C20_4 C 0.9982(5) 0.0532(3) 0.7981(4)
C21_4 C 0.9855(7) 0.0028(4) 0.7233(5)
H6_3 H 0.3745 0.1026 0.0391
H9_3 H 0.208(8) 0.031(3) 0.132(5)
H10_3 H 0.0805 0.0311 0.2715
H6_4 H 0.6255 0.8974 0.9609
H9_4 H 0.792(8) 0.969(3) 0.868(5)
H10_4 H 0.9195 0.9689 0.7285
loop_
_geom_bond_atom_site_label_1
_geom_bond_atom_site_label_2
_geom_bond_site_symmetry_1
_geom_bond_site_symmetry_2
O11 Sm4 1_555 1_555
O4 Sm4 1_555 1_555
O5 Sm4 1_555 1_555
O6 Sm4 1_555 1_555
C1 O4 1_555 1_555
C6 C1 1_555 1_555
H1 C3 1_555 1_555
S1 C6 1_555 1_555
C11 C6 1_555 1_555
C16 S1 1_555 1_555
C17 C11 1_555 1_555
H5 C11 1_555 1_555
C18 C16 1_555 1_555
H8 C17 1_555 1_555
O8 C18 1_555 1_555
O9 C18 1_555 1_555
Sm2 O8 1_555 1_555
O5 C1 1_555 1_555
C16 C17 1_555 1_555
C3_2 N1 1_555 1_555
H1_2 C3_2 1_555 1_555
C8 C3_2 1_555 1_555
C13 C7 1_555 1_555
H3_2 C8 1_555 1_555
C8 C13 1_555 1_555
Sm3 O1 1_555 1_555
O2 Sm3 1_555 1_555
O3 Sm3 1_555 1_555
O4_2 Sm3 1_555 1_555
O5_2 Sm3 1_555 1_555
N2 Sm3 1_555 1_555
C1_2 O4_2 1_555 1_555
C4 N2 1_555 1_555
C5 N2 1_555 1_555
C6_2 C1_2 1_555 1_555
C9 C4 1_555 1_555
H2 C5 1_555 1_555
C10 C5 1_555 1_555
S1_2 C6_2 1_555 1_555
C11_2 C6_2 1_555 1_555
C14 C9 1_555 1_555
C15 C9 1_555 1_555
H4 C10 1_555 1_555
C16_2 S1_2 1_555 1_555
C17_2 C11_2 1_555 1_555
H5_2 C11_2 1_555 1_555
H7 C15 1_555 1_555
C18_2 C16_2 1_555 1_555
O6 C18_2 1_555 1_555
O5_2 C1_2 1_555 1_555
C2 C4 1_555 1_555
C10 C15 1_555 1_555
C16_2 C17_2 1_555 1_555
C24 C22 1_555 1_555
H11 C22 1_555 1_555
C25 C23 1_555 1_555
H13 C24 1_555 1_555
C26 C25 1_555 1_555
O2 C26 1_555 1_555
O3 C26 1_555 1_555
C24 C25 1_555 1_555
O3_2 Sm5 1_555 1_555
O4_3 Sm5 1_555 1_555
O5_3 Sm5 1_555 1_555
O6_2 Sm5 1_555 1_555
C1_3 O4_3 1_555 1_555
C6_3 C1_3 1_555 1_555
H1_3 C3_3 1_555 1_555
S1_3 C6_3 1_555 1_555
C11_3 C6_3 1_555 1_555
C16_3 S1_3 1_555 1_555
C17_3 C11_3 1_555 1_555
H5_3 C11_3 1_555 1_555
C18_3 C16_3 1_555 1_555
H8_2 C17_3 1_555 1_555
O1 C18_3 1_555 1_555
O9_2 C18_3 1_555 1_555
O5_3 C1_3 1_555 1_555
C16_3 C17_3 1_555 1_555
C24_2 C22_2 1_555 1_555
H11_2 C22_2 1_555 1_555
C25_2 C23_2 1_555 1_555
H13_2 C24_2 1_555 1_555
C26_2 C25_2 1_555 1_555
O7 C26_2 1_555 1_555
O11_2 C26_2 1_555 1_555
Sm2 O7 1_555 1_555
C24_2 C25_2 1_555 1_555
O11_2 Sm2 1_555 1_555
O4_4 Sm2 1_555 1_555
O5_4 Sm2 1_555 1_555
N2_2 Sm2 1_555 1_555
C1_4 O4_4 1_555 1_555
C4_2 N2_2 1_555 1_555
C5_2 N2_2 1_555 1_555
C6_4 C1_4 1_555 1_555
C9_2 C4_2 1_555 1_555
H2_2 C5_2 1_555 1_555
C10_2 C5_2 1_555 1_555
S1_4 C6_4 1_555 1_555
C11_4 C6_4 1_555 1_555
C14_2 C9_2 1_555 1_555
C15_2 C9_2 1_555 1_555
H4_2 C10_2 1_555 1_555
C16_4 S1_4 1_555 1_555
C17_4 C11_4 1_555 1_555
H5_4 C11_4 1_555 1_555
H7_2 C15_2 1_555 1_555
C18_4 C16_4 1_555 1_555
O6_2 C18_4 1_555 1_555
O5_4 C1_4 1_555 1_555
C2_2 C4_2 1_555 1_555
C10_2 C15_2 1_555 1_555
C16_4 C17_4 1_555 1_555
C3_4 N1_2 1_555 1_555
H1_4 C3_4 1_555 1_555
C8_2 C3_4 1_555 1_555
C13_2 C7_2 1_555 1_555
H3_4 C8_2 1_555 1_555
C8_2 C13_2 1_555 1_555
C2_3 N1_3 1_555 1_555
C4_3 N2_3 1_555 1_555
C5_3 N2_3 1_555 1_555
C7_3 C2_3 1_555 1_555
C9_3 C4_3 1_555 1_555
H2_3 C5_3 1_555 1_555
C10_3 C5_3 1_555 1_555
C12 C7_3 1_555 1_555
C13_3 C7_3 1_555 1_555
C14_3 C9_3 1_555 1_555
C15_3 C9_3 1_555 1_555
H4_3 C10_3 1_555 1_555
N3 C12 1_555 1_555
H6 C13_3 1_555 1_555
N4 C14_3 1_555 1_555
H7_3 C15_3 1_555 1_555
C19 N3 1_555 1_555
H9 N3 1_555 1_555
C20 C19 1_555 1_555
C21 C20 1_555 1_555
C22_3 C20 1_555 1_555
C23_3 C21 1_555 1_555
H10 C21 1_555 1_555
C24_3 C22_3 1_555 1_555
H11_3 C22_3 1_555 1_555
C25_3 C23_3 1_555 1_555
H12_3 C23_3 1_555 1_555
H13_3 C24_3 1_555 1_555
C26_3 C25_3 1_555 1_555
O10 C26_3 1_555 1_555
C2_3 C4_3 1_555 1_555
C8_3 C13_3 1_555 1_555
C10_3 C15_3 1_555 1_555
C12 C14_3 1_555 1_555
N4 C19 1_555 1_555
C24_3 C25_3 1_555 1_555
N3_2 C12_2 1_555 1_555
C19_2 N3_2 1_555 1_555
C20_2 C19_2 1_555 1_555
C21_2 C20_2 1_555 1_555
N4_2 C19_2 1_555 1_555
C2_4 N1_4 1_555 1_555
C4_4 N2_4 1_555 1_555
C5_4 N2_4 1_555 1_555
C7_4 C2_4 1_555 1_555
C9_4 C4_4 1_555 1_555
H2_4 C5_4 1_555 1_555
C10_4 C5_4 1_555 1_555
C12_3 C7_4 1_555 1_555
C13_4 C7_4 1_555 1_555
C14_4 C9_4 1_555 1_555
C15_4 C9_4 1_555 1_555
H4_4 C10_4 1_555 1_555
N3_3 C12_3 1_555 1_555
H6_2 C13_4 1_555 1_555
N4_3 C14_4 1_555 1_555
H7_4 C15_4 1_555 1_555
C19_3 N3_3 1_555 1_555
H9_2 N3_3 1_555 1_555
C20_3 C19_3 1_555 1_555
C21_3 C20_3 1_555 1_555
C22_4 C20_3 1_555 1_555
C23_4 C21_3 1_555 1_555
H10_2 C21_3 1_555 1_555
C24_4 C22_4 1_555 1_555
H11_4 C22_4 1_555 1_555
C25_4 C23_4 1_555 1_555
H12_4 C23_4 1_555 1_555
H13_4 C24_4 1_555 1_555
C26_4 C25_4 1_555 1_555
O7_2 C26_4 1_555 1_555
C2_4 C4_4 1_555 1_555
C8_4 C13_4 1_555 1_555
C10_4 C15_4 1_555 1_555
C12_3 C14_4 1_555 1_555
N4_3 C19_3 1_555 1_555
C24_4 C25_4 1_555 1_555
N3_4 C12_4 1_555 1_555
C19_4 N3_4 1_555 1_555
C20_4 C19_4 1_555 1_555
C21_4 C20_4 1_555 1_555
N4_4 C19_4 1_555 1_555

#END
