
###############################################################################
#
# This file contains modified crystal structure data generated from the
# MOF subset of the Cambridge Structural Database (CSD) v543 
# hosted by the Cambridge Crystallographic Data Centre (CCDC).
#
# This work is licensed under the Creative Commons
# Attribution-NonCommercial-ShareAlike 4.0 International License.
# To view a copy of this license, visit
# http://creativecommons.org/licenses/by-nc-sa/4.0/
# or send a letter to
# Creative Commons, PO Box 1866, Mountain View, CA 94042, USA.
#
# CIF created using the CSD Python API on 29 September 2022
# The structure has been converted into the P1 space group
# The structure has a 3D framework
# The original CSD entry VOBQIO is in the monoclinic crystal system
# The framework has been calculated to contain at least 10.0% void space
# The void calculation uses a probe of radius 1.32A, grid spacing 0.4
#
###############################################################################

data_VOBQIO
_chemical_formula_moiety         '(C128 H72 Mn12 O61)n'
_symmetry_cell_setting           triclinic
_symmetry_space_group_name_H-M   'P 1'
_symmetry_Int_Tables_number      1
_space_group_name_Hall           'P 1'
loop_
_symmetry_equiv_pos_site_id
_symmetry_equiv_pos_as_xyz
1 x,y,z
_cell_length_a                   34.493(5)
_cell_length_b                   9.953(5)
_cell_length_c                   18.104(5)
_cell_angle_alpha                90
_cell_angle_beta                 93.380(5)
_cell_angle_gamma                90
_cell_volume                     6204.45
loop_
_atom_site_label
_atom_site_type_symbol
_atom_site_fract_x
_atom_site_fract_y
_atom_site_fract_z
Mn5 Mn 0.7500 0.2500 0.0000
O9 O 0.20682(7) 0.0857(3) 0.51594(15)
C27 C 0.71925(12) 0.0144(5) 0.6884(2)
H14 H 0.7408 0.0124 0.6598
C28 C 0.72083(13) 0.0856(5) 0.7537(2)
H15 H 0.7433 0.1322 0.7684
C29 C 0.68956(11) 0.0889(4) 0.7977(2)
C30 C 0.65678(13) 0.0189(5) 0.7748(2)
H16 H 0.6354 0.0195 0.8038
C32 C 0.69072(13) 0.1685(4) 0.8689(2)
O15 O 0.72342(9) 0.2064(3) 0.89331(14)
O16 O 0.65888(8) 0.1938(3) 0.89572(15)
Mn4 Mn 0.2500 0.2500 0.5000
Mn5_2 Mn 0.7500 0.2500 1.0000
Mn8 Mn 0.649570(15) 0.31897(6) 0.98361(3)
Mn10 Mn 0.149570(15) 0.18103(6) 0.48361(3)
C1 C 0.31506(12) 0.1260(4) 0.4069(2)
C2 C 0.31356(11) 0.0528(4) 0.33436(19)
C7 C 0.34496(12) 0.0526(5) 0.2907(2)
H4 H 0.3673 0.1005 0.3053
C9 C 0.30032(12) 0.5199(4) 0.5214(3)
C10 C 0.27383(11) 0.6391(4) 0.5110(2)
C11 C 0.24465(12) 0.6399(4) 0.4540(2)
H5 H 0.2411 0.5654 0.4233
C12 C 0.27854(12) 0.7505(4) 0.5567(2)
H6 H 0.2977 0.7502 0.5951
C13 C 0.42049(14) 0.4086(5) 0.5075(3)
C14 C 0.46182(13) 0.4555(5) 0.5043(3)
C15 C 0.48923(16) 0.4183(8) 0.5530(4)
H7 H 0.4829 0.3598 0.5905
C16 C 0.47231(15) 0.5371(8) 0.4488(4)
H8 H 0.4540 0.5635 0.4119
O1 O 0.28693(8) 0.1190(3) 0.44607(14)
O2 O 0.34591(9) 0.1919(3) 0.42541(16)
O5 O 0.29318(7) 0.4143(3) 0.48406(15)
O6 O 0.32939(9) 0.5251(3) 0.5658(2)
O7 O 0.39569(9) 0.4438(4) 0.4587(2)
O8 O 0.41188(9) 0.3350(4) 0.5567(2)
Mn2 Mn 0.350430(15) 0.31897(6) 0.51639(3)
H9 H 0.3496(11) 0.2730(13) 0.3976(5)
C17 C 0.19968(12) 0.9801(4) 0.4786(3)
C18 C 0.22617(11) 0.8609(4) 0.4890(2)
C19 C 0.25535(12) 0.8601(4) 0.5460(2)
H10 H 0.2589 0.9346 0.5767
C20 C 0.22146(12) 0.7495(4) 0.4433(2)
H11 H 0.2023 0.7498 0.4049
O10 O 0.17061(9) 0.9749(3) 0.4342(2)
C21 C 0.57951(14) 0.5914(5) 0.4925(3)
C22 C 0.53818(13) 0.5445(5) 0.4957(3)
C23 C 0.51077(16) 0.5817(8) 0.4470(4)
H12 H 0.5171 0.6402 0.4095
C24 C 0.52769(15) 0.4629(8) 0.5512(4)
H13 H 0.5460 0.4365 0.5881
O11 O 0.60431(9) 0.5562(4) 0.5413(2)
O12 O 0.58812(9) 0.6650(4) 0.4433(2)
C25 C 0.68494(12) 0.8740(4) 0.5931(2)
C26 C 0.68644(11) 0.9472(4) 0.66564(19)
C31 C 0.65504(12) 0.9474(5) 0.7093(2)
H17 H 0.6327 0.8995 0.6947
O13 O 0.71307(8) 0.8810(3) 0.55393(14)
O14 O 0.65409(9) 0.8081(3) 0.57459(16)
Mn3 Mn 0.649570(15) 0.68103(6) 0.48361(3)
H18 H 0.6504(11) 0.7270(13) 0.6024(5)
O17 O 0.21307(8) 0.3810(3) 0.55393(14)
O18 O 0.22342(9) 0.2936(3) 0.39331(14)
O19 O 0.27658(9) 0.2064(3) 0.60669(14)
O20 O 0.65888(8) 0.8062(3) 0.39572(15)
O21 O 0.34112(8) 0.1938(3) 0.60428(15)
O22 O 0.70682(7) 0.5857(3) 0.51594(15)
O24 O 0.67061(9) 0.4749(3) 0.4342(2)
Mn6 Mn 0.7500 0.7500 0.5000
C3 C 0.28075(12) 0.9856(5) 0.3116(2)
H1 H 0.2592 0.9876 0.3402
C4 C 0.27917(13) 0.9144(5) 0.2463(2)
H2 H 0.2567 0.8678 0.2316
C5 C 0.31044(11) 0.9111(4) 0.2023(2)
C6 C 0.34322(13) 0.9811(5) 0.2252(2)
H3 H 0.3646 0.9805 0.1962
C8 C 0.30928(13) 0.8315(4) 0.1311(2)
O3 O 0.27658(9) 0.7936(3) 0.10669(14)
O4 O 0.34112(8) 0.8062(3) 0.10428(15)
Mn7 Mn 0.2500 0.7500 0.0000
Mn9 Mn 0.350430(15) 0.68103(6) 0.01639(3)
Mn7_2 Mn 0.2500 0.7500 1.0000
Mn10_2 Mn 0.850430(15) 0.18103(6) 0.01639(3)
O9_2 O 0.79318(7) 0.0857(3) 0.98406(15)
C27_2 C 0.28075(12) 0.0144(5) 0.8116(2)
H14_2 H 0.2592 0.0124 0.8402
C28_2 C 0.27917(13) 0.0856(5) 0.7463(2)
H15_2 H 0.2567 0.1322 0.7316
C29_2 C 0.31044(11) 0.0889(4) 0.7023(2)
C30_2 C 0.34322(13) 0.0189(5) 0.7252(2)
H16_2 H 0.3646 0.0195 0.6962
C32_2 C 0.30928(13) 0.1685(4) 0.6311(2)
C1_2 C 0.68494(12) 0.1260(4) 0.0931(2)
C2_2 C 0.68644(11) 0.0528(4) 0.16564(19)
C7_2 C 0.65504(12) 0.0526(5) 0.2093(2)
H4_2 H 0.6327 0.1005 0.1947
C11_2 C 0.75535(12) 0.6399(4) 0.0460(2)
H5_2 H 0.7589 0.5654 0.0767
C16_2 C 0.52769(15) 0.5371(8) 0.0512(4)
H8_2 H 0.5460 0.5635 0.0881
O1_2 O 0.71307(8) 0.1190(3) 0.05393(14)
O2_2 O 0.65409(9) 0.1919(3) 0.07459(16)
O5_2 O 0.70682(7) 0.4143(3) 0.01594(15)
O7_2 O 0.60431(9) 0.4438(4) 0.0413(2)
H9_2 H 0.6504(11) 0.2730(13) 0.1024(5)
C17_2 C 0.80032(12) 0.9801(4) 0.0214(3)
C18_2 C 0.77383(11) 0.8609(4) 0.0110(2)
C20_2 C 0.77854(12) 0.7495(4) 0.0567(2)
H11_2 H 0.7977 0.7498 0.0951
O10_2 O 0.82939(9) 0.9749(3) 0.0658(2)
C21_2 C 0.42049(14) 0.5914(5) 0.0075(3)
C22_2 C 0.46182(13) 0.5445(5) 0.0043(3)
C23_2 C 0.48923(16) 0.5817(8) 0.0530(4)
H12_2 H 0.4829 0.6402 0.0905
O12_2 O 0.41188(9) 0.6650(4) 0.0567(2)
O18_2 O 0.77658(9) 0.2936(3) 0.10669(14)
O24_2 O 0.32939(9) 0.4749(3) 0.0658(2)
C9_2 C 0.69968(12) 0.5199(4) 0.9786(3)
C10_2 C 0.72617(11) 0.6391(4) 0.9890(2)
C12_2 C 0.72146(12) 0.7505(4) 0.9433(2)
H6_2 H 0.7023 0.7502 0.9049
C13_2 C 0.57951(14) 0.4086(5) 0.9925(3)
C14_2 C 0.53818(13) 0.4555(5) 0.9957(3)
C15_2 C 0.51077(16) 0.4183(8) 0.9470(4)
H7_2 H 0.5171 0.3598 0.9095
O6_2 O 0.67061(9) 0.5251(3) 0.9342(2)
O8_2 O 0.58812(9) 0.3350(4) 0.9433(2)
C19_2 C 0.74465(12) 0.8601(4) 0.9540(2)
H10_2 H 0.7411 0.9346 0.9233
C24_2 C 0.47231(15) 0.4629(8) 0.9488(4)
H13_2 H 0.4540 0.4365 0.9119
O11_2 O 0.39569(9) 0.5562(4) 0.9587(2)
C25_2 C 0.31506(12) 0.8740(4) 0.9069(2)
C26_2 C 0.31356(11) 0.9472(4) 0.83436(19)
C31_2 C 0.34496(12) 0.9474(5) 0.7907(2)
H17_2 H 0.3673 0.8995 0.8053
O13_2 O 0.28693(8) 0.8810(3) 0.94607(14)
O14_2 O 0.34591(9) 0.8081(3) 0.92541(16)
H18_2 H 0.3496(11) 0.7270(13) 0.8976(5)
O17_2 O 0.78693(8) 0.3810(3) 0.94607(14)
O22_2 O 0.29318(7) 0.5857(3) 0.98406(15)
C3_2 C 0.71925(12) 0.9856(5) 0.1884(2)
H1_2 H 0.7408 0.9876 0.1598
C4_2 C 0.72083(13) 0.9144(5) 0.2537(2)
H2_2 H 0.7433 0.8678 0.2684
C5_2 C 0.68956(11) 0.9111(4) 0.2977(2)
C6_2 C 0.65678(13) 0.9811(5) 0.2748(2)
H3_2 H 0.6354 0.9805 0.3038
C8_2 C 0.69072(13) 0.8315(4) 0.3689(2)
O3_2 O 0.72342(9) 0.7936(3) 0.39331(14)
C21_3 C 0.07951(14) 0.0914(5) 0.4925(3)
C22_3 C 0.03818(13) 0.0445(5) 0.4957(3)
C23_3 C 0.01077(16) 0.0817(8) 0.4470(4)
H12_3 H 0.0171 0.1402 0.4095
O11_3 O 0.10431(9) 0.0562(4) 0.5413(2)
O12_3 O 0.08812(9) 0.1650(4) 0.4433(2)
C25_3 C 0.18494(12) 0.3740(4) 0.5931(2)
C26_3 C 0.18644(11) 0.4472(4) 0.66564(19)
C27_3 C 0.21925(12) 0.5144(5) 0.6884(2)
H14_3 H 0.2408 0.5124 0.6598
C28_3 C 0.22083(13) 0.5856(5) 0.7537(2)
H15_3 H 0.2433 0.6322 0.7684
C29_3 C 0.18956(11) 0.5889(4) 0.7977(2)
C30_3 C 0.15678(13) 0.5189(5) 0.7748(2)
H16_3 H 0.1354 0.5195 0.8038
C31_3 C 0.15504(12) 0.4474(5) 0.7093(2)
H17_3 H 0.1327 0.3995 0.6947
C32_3 C 0.19072(13) 0.6685(4) 0.8689(2)
O14_3 O 0.15409(9) 0.3081(3) 0.57459(16)
O15_2 O 0.22342(9) 0.7064(3) 0.89331(14)
O16_2 O 0.15888(8) 0.6938(3) 0.89572(15)
H18_3 H 0.1504(11) 0.2270(13) 0.6024(5)
O20_2 O 0.15888(8) 0.3062(3) 0.39572(15)
Mn8_2 Mn 0.149570(15) 0.81897(6) 0.98361(3)
C24_3 C 0.02769(15) 0.9629(8) 0.5512(4)
H13_3 H 0.0460 0.9365 0.5881
C9_3 C 0.80032(12) 0.0199(4) 0.5214(3)
C10_3 C 0.77383(11) 0.1391(4) 0.5110(2)
C11_3 C 0.74465(12) 0.1399(4) 0.4540(2)
H5_3 H 0.7411 0.0654 0.4233
C12_3 C 0.77854(12) 0.2505(4) 0.5567(2)
H6_3 H 0.7977 0.2502 0.5951
C16_3 C 0.97231(15) 0.0371(8) 0.4488(4)
H8_3 H 0.9540 0.0635 0.4119
O6_3 O 0.82939(9) 0.0251(3) 0.5658(2)
C17_3 C 0.69968(12) 0.4801(4) 0.4786(3)
C18_3 C 0.72617(11) 0.3609(4) 0.4890(2)
C19_3 C 0.75535(12) 0.3601(4) 0.5460(2)
H10_3 H 0.7589 0.4346 0.5767
C20_3 C 0.72146(12) 0.2495(4) 0.4433(2)
H11_3 H 0.7023 0.2498 0.4049
C1_3 C 0.81506(12) 0.6260(4) 0.4069(2)
C2_3 C 0.81356(11) 0.5528(4) 0.33436(19)
C3_3 C 0.78075(12) 0.4856(5) 0.3116(2)
H1_3 H 0.7592 0.4876 0.3402
C4_3 C 0.77917(13) 0.4144(5) 0.2463(2)
H2_3 H 0.7567 0.3678 0.2316
C5_3 C 0.81044(11) 0.4111(4) 0.2023(2)
C6_3 C 0.84322(13) 0.4811(5) 0.2252(2)
H3_3 H 0.8646 0.4805 0.1962
C7_3 C 0.84496(12) 0.5526(5) 0.2907(2)
H4_3 H 0.8673 0.6005 0.3053
C8_3 C 0.80928(13) 0.3315(4) 0.1311(2)
C13_3 C 0.92049(14) 0.9086(5) 0.5075(3)
C14_3 C 0.96182(13) 0.9555(5) 0.5043(3)
C15_3 C 0.98923(16) 0.9183(8) 0.5530(4)
H7_3 H 0.9829 0.8598 0.5905
O1_3 O 0.78693(8) 0.6190(3) 0.44607(14)
O2_3 O 0.84591(9) 0.6919(3) 0.42541(16)
O4_2 O 0.84112(8) 0.3062(3) 0.10428(15)
O5_3 O 0.79318(7) 0.9143(3) 0.48406(15)
O7_3 O 0.89569(9) 0.9438(4) 0.4587(2)
O8_3 O 0.91188(9) 0.8350(4) 0.5567(2)
Mn2_2 Mn 0.850430(15) 0.81897(6) 0.51639(3)
H9_3 H 0.8496(11) 0.7730(13) 0.3976(5)
O19_2 O 0.77658(9) 0.7064(3) 0.60669(14)
O21_2 O 0.84112(8) 0.6938(3) 0.60428(15)
C11_4 C 0.25535(12) 0.1399(4) 0.0460(2)
H5_4 H 0.2589 0.0654 0.0767
C16_4 C 0.02769(15) 0.0371(8) 0.0512(4)
H8_4 H 0.0460 0.0635 0.0881
C17_4 C 0.30032(12) 0.4801(4) 0.0214(3)
C18_4 C 0.27383(11) 0.3609(4) 0.0110(2)
C20_4 C 0.27854(12) 0.2495(4) 0.0567(2)
H11_4 H 0.2977 0.2498 0.0951
C9_4 C 0.19968(12) 0.0199(4) 0.9786(3)
C10_4 C 0.22617(11) 0.1391(4) 0.9890(2)
C12_4 C 0.22146(12) 0.2505(4) 0.9433(2)
H6_4 H 0.2023 0.2502 0.9049
O6_4 O 0.17061(9) 0.0251(3) 0.9342(2)
C19_4 C 0.24465(12) 0.3601(4) 0.9540(2)
H10_4 H 0.2411 0.4346 0.9233
C1_4 C 0.18494(12) 0.6260(4) 0.0931(2)
C2_4 C 0.18644(11) 0.5528(4) 0.16564(19)
C3_4 C 0.21925(12) 0.4856(5) 0.1884(2)
H1_4 H 0.2408 0.4876 0.1598
C4_4 C 0.22083(13) 0.4144(5) 0.2537(2)
H2_4 H 0.2433 0.3678 0.2684
C5_4 C 0.18956(11) 0.4111(4) 0.2977(2)
C6_4 C 0.15678(13) 0.4811(5) 0.2748(2)
H3_4 H 0.1354 0.4805 0.3038
C7_4 C 0.15504(12) 0.5526(5) 0.2093(2)
H4_4 H 0.1327 0.6005 0.1947
C8_4 C 0.19072(13) 0.3315(4) 0.3689(2)
O1_4 O 0.21307(8) 0.6190(3) 0.05393(14)
O2_4 O 0.15409(9) 0.6919(3) 0.07459(16)
O5_4 O 0.20682(7) 0.9143(3) 0.01594(15)
O7_4 O 0.10431(9) 0.9438(4) 0.0413(2)
H9_4 H 0.1504(11) 0.7730(13) 0.1024(5)
C13_4 C 0.07951(14) 0.9086(5) 0.9925(3)
C14_4 C 0.03818(13) 0.9555(5) 0.9957(3)
C15_4 C 0.01077(16) 0.9183(8) 0.9470(4)
H7_4 H 0.0171 0.8598 0.9095
O8_4 O 0.08812(9) 0.8350(4) 0.9433(2)
C21_4 C 0.92049(14) 0.0914(5) 0.0075(3)
C22_4 C 0.96182(13) 0.0445(5) 0.0043(3)
C23_4 C 0.98923(16) 0.0817(8) 0.0530(4)
H12_4 H 0.9829 0.1402 0.0905
O12_4 O 0.91188(9) 0.1650(4) 0.0567(2)
O11_4 O 0.89569(9) 0.0562(4) 0.9587(2)
C25_4 C 0.81506(12) 0.3740(4) 0.9069(2)
C26_4 C 0.81356(11) 0.4472(4) 0.83436(19)
C27_4 C 0.78075(12) 0.5144(5) 0.8116(2)
H14_4 H 0.7592 0.5124 0.8402
C28_4 C 0.77917(13) 0.5856(5) 0.7463(2)
H15_4 H 0.7567 0.6322 0.7316
C29_4 C 0.81044(11) 0.5889(4) 0.7023(2)
C30_4 C 0.84322(13) 0.5189(5) 0.7252(2)
H16_4 H 0.8646 0.5195 0.6962
C31_4 C 0.84496(12) 0.4474(5) 0.7907(2)
H17_4 H 0.8673 0.3995 0.8053
C32_4 C 0.80928(13) 0.6685(4) 0.6311(2)
O14_4 O 0.84591(9) 0.3081(3) 0.92541(16)
H18_4 H 0.8496(11) 0.2270(13) 0.8976(5)
C24_4 C 0.97231(15) 0.9629(8) 0.9488(4)
H13_4 H 0.9540 0.9365 0.9119
loop_
_geom_bond_atom_site_label_1
_geom_bond_atom_site_label_2
_geom_bond_site_symmetry_1
_geom_bond_site_symmetry_2
C27 H14 1_555 1_555
C28 C27 1_555 1_555
H15 C28 1_555 1_555
C29 C28 1_555 1_555
C30 C29 1_555 1_555
H16 C30 1_555 1_555
C32 C29 1_555 1_555
O15 C32 1_555 1_555
O16 C32 1_555 1_555
Mn4 O9 1_555 1_555
Mn5_2 O15 1_555 1_555
Mn8 O16 1_555 1_555
Mn10 O9 1_555 1_555
C1 C2 1_555 1_555
C7 C2 1_555 1_555
H4 C7 1_555 1_555
C9 C10 1_555 1_555
C10 C11 1_555 1_555
C11 H5 1_555 1_555
C12 C10 1_555 1_555
H6 C12 1_555 1_555
C13 C14 1_555 1_555
C14 C15 1_555 1_555
C15 H7 1_555 1_555
C16 C14 1_555 1_555
H8 C16 1_555 1_555
O1 C1 1_555 1_555
O2 C1 1_555 1_555
O5 C9 1_555 1_555
O6 C9 1_555 1_555
O7 C13 1_555 1_555
O8 C13 1_555 1_555
Mn4 O1 1_555 1_555
Mn2 O2 1_555 1_555
H9 O2 1_555 1_555
C17 C18 1_555 1_555
C18 C19 1_555 1_555
C19 C12 1_555 1_555
H10 C19 1_555 1_555
C20 C11 1_555 1_555
H11 C20 1_555 1_555
O10 C17 1_555 1_555
C21 C22 1_555 1_555
C22 C23 1_555 1_555
C23 C16 1_555 1_555
H12 C23 1_555 1_555
C24 C15 1_555 1_555
H13 C24 1_555 1_555
O11 C21 1_555 1_555
O12 C21 1_555 1_555
C25 C26 1_555 1_555
C31 C26 1_555 1_555
H17 C31 1_555 1_555
O13 C25 1_555 1_555
O14 C25 1_555 1_555
Mn3 O11 1_555 1_555
H18 O14 1_555 1_555
O17 Mn4 1_555 1_555
O18 Mn4 1_555 1_555
O19 Mn4 1_555 1_555
O20 Mn3 1_555 1_555
O21 Mn2 1_555 1_555
O22 Mn3 1_555 1_555
O24 Mn3 1_555 1_555
Mn6 O13 1_555 1_555
O5 Mn4 1_555 1_555
O5 Mn2 1_555 1_555
O6 Mn2 1_555 1_555
O7 Mn2 1_555 1_555
O8 Mn2 1_555 1_555
C18 C20 1_555 1_555
C22 C24 1_555 1_555
O12 Mn3 1_555 1_555
O14 Mn3 1_555 1_555
O22 Mn6 1_555 1_555
C3 H1 1_555 1_555
C4 C3 1_555 1_555
H2 C4 1_555 1_555
C5 C4 1_555 1_555
C6 C5 1_555 1_555
H3 C6 1_555 1_555
C8 C5 1_555 1_555
O3 C8 1_555 1_555
O4 C8 1_555 1_555
Mn7 O3 1_555 1_555
Mn9 O4 1_555 1_555
C27_2 H14_2 1_555 1_555
C28_2 C27_2 1_555 1_555
H15_2 C28_2 1_555 1_555
C29_2 C28_2 1_555 1_555
C30_2 C29_2 1_555 1_555
H16_2 C30_2 1_555 1_555
C32_2 C29_2 1_555 1_555
O19 C32_2 1_555 1_555
O21 C32_2 1_555 1_555
Mn5_2 O9_2 1_555 1_555
C1_2 C2_2 1_555 1_555
C7_2 C2_2 1_555 1_555
H4_2 C7_2 1_555 1_555
C11_2 H5_2 1_555 1_555
H8_2 C16_2 1_555 1_555
O1_2 C1_2 1_555 1_555
O2_2 C1_2 1_555 1_555
Mn5 O1_2 1_555 1_555
H9_2 O2_2 1_555 1_555
C17_2 C18_2 1_555 1_555
C20_2 C11_2 1_555 1_555
H11_2 C20_2 1_555 1_555
O10_2 C17_2 1_555 1_555
C21_2 C22_2 1_555 1_555
C22_2 C23_2 1_555 1_555
C23_2 C16_2 1_555 1_555
H12_2 C23_2 1_555 1_555
O12_2 C21_2 1_555 1_555
O18_2 Mn5 1_555 1_555
O24_2 Mn9 1_555 1_555
O5_2 Mn5 1_555 1_555
C18_2 C20_2 1_555 1_555
O12_2 Mn9 1_555 1_555
C9_2 C10_2 1_555 1_555
C12_2 C10_2 1_555 1_555
H6_2 C12_2 1_555 1_555
C13_2 C14_2 1_555 1_555
C14_2 C15_2 1_555 1_555
C15_2 H7_2 1_555 1_555
O6_2 C9_2 1_555 1_555
O8_2 C13_2 1_555 1_555
C19_2 C12_2 1_555 1_555
H10_2 C19_2 1_555 1_555
C24_2 C15_2 1_555 1_555
H13_2 C24_2 1_555 1_555
C25_2 C26_2 1_555 1_555
C31_2 C26_2 1_555 1_555
H17_2 C31_2 1_555 1_555
O13_2 C25_2 1_555 1_555
O14_2 C25_2 1_555 1_555
H18_2 O14_2 1_555 1_555
O17_2 Mn5_2 1_555 1_555
Mn7_2 O13_2 1_555 1_555
O6_2 Mn8 1_555 1_555
O8_2 Mn8 1_555 1_555
O22_2 Mn7_2 1_555 1_555
C3_2 H1_2 1_555 1_555
C4_2 C3_2 1_555 1_555
H2_2 C4_2 1_555 1_555
C5_2 C4_2 1_555 1_555
C6_2 C5_2 1_555 1_555
H3_2 C6_2 1_555 1_555
C8_2 C5_2 1_555 1_555
O3_2 C8_2 1_555 1_555
O20 C8_2 1_555 1_555
Mn6 O3_2 1_555 1_555
C21_3 C22_3 1_555 1_555
C22_3 C23_3 1_555 1_555
H12_3 C23_3 1_555 1_555
O11_3 C21_3 1_555 1_555
O12_3 C21_3 1_555 1_555
C25_3 C26_3 1_555 1_555
C26_3 C27_3 1_555 1_555
C27_3 H14_3 1_555 1_555
C28_3 C27_3 1_555 1_555
H15_3 C28_3 1_555 1_555
C29_3 C28_3 1_555 1_555
C30_3 C29_3 1_555 1_555
H16_3 C30_3 1_555 1_555
C31_3 C26_3 1_555 1_555
H17_3 C31_3 1_555 1_555
C32_3 C29_3 1_555 1_555
O17 C25_3 1_555 1_555
O14_3 C25_3 1_555 1_555
O15_2 C32_3 1_555 1_555
O16_2 C32_3 1_555 1_555
Mn10 O11_3 1_555 1_555
H18_3 O14_3 1_555 1_555
O20_2 Mn10 1_555 1_555
Mn7_2 O15_2 1_555 1_555
Mn8_2 O16_2 1_555 1_555
O12_3 Mn10 1_555 1_555
C30_3 C31_3 1_555 1_555
O14_3 Mn10 1_555 1_555
H13_3 C24_3 1_555 1_555
C9_3 C10_3 1_555 1_555
C10_3 C11_3 1_555 1_555
C11_3 H5_3 1_555 1_555
C12_3 C10_3 1_555 1_555
H6_3 C12_3 1_555 1_555
H8_3 C16_3 1_555 1_555
O6_3 C9_3 1_555 1_555
C17_3 C18_3 1_555 1_555
C18_3 C19_3 1_555 1_555
C19_3 C12_3 1_555 1_555
H10_3 C19_3 1_555 1_555
C20_3 C11_3 1_555 1_555
H11_3 C20_3 1_555 1_555
O22 C17_3 1_555 1_555
O24 C17_3 1_555 1_555
C18_3 C20_3 1_555 1_555
C1_3 C2_3 1_555 1_555
C2_3 C3_3 1_555 1_555
C3_3 H1_3 1_555 1_555
C4_3 C3_3 1_555 1_555
H2_3 C4_3 1_555 1_555
C5_3 C4_3 1_555 1_555
C6_3 C5_3 1_555 1_555
H3_3 C6_3 1_555 1_555
C7_3 C2_3 1_555 1_555
H4_3 C7_3 1_555 1_555
C8_3 C5_3 1_555 1_555
C13_3 C14_3 1_555 1_555
C14_3 C15_3 1_555 1_555
C15_3 H7_3 1_555 1_555
O1_3 C1_3 1_555 1_555
O2_3 C1_3 1_555 1_555
O18_2 C8_3 1_555 1_555
O4_2 C8_3 1_555 1_555
O7_3 C13_3 1_555 1_555
O8_3 C13_3 1_555 1_555
Mn6 O1_3 1_555 1_555
Mn2_2 O2_3 1_555 1_555
H9_3 O2_3 1_555 1_555
O19_2 Mn6 1_555 1_555
O21_2 Mn2_2 1_555 1_555
Mn10_2 O4_2 1_555 1_555
C6_3 C7_3 1_555 1_555
O5_3 Mn6 1_555 1_555
O5_3 Mn2_2 1_555 1_555
O7_3 Mn2_2 1_555 1_555
O8_3 Mn2_2 1_555 1_555
C11_4 H5_4 1_555 1_555
H8_4 C16_4 1_555 1_555
C17_4 C18_4 1_555 1_555
C20_4 C11_4 1_555 1_555
H11_4 C20_4 1_555 1_555
O24_2 C17_4 1_555 1_555
C18_4 C20_4 1_555 1_555
C9_4 C10_4 1_555 1_555
C12_4 C10_4 1_555 1_555
H6_4 C12_4 1_555 1_555
O6_4 C9_4 1_555 1_555
C19_4 C12_4 1_555 1_555
H10_4 C19_4 1_555 1_555
C1_4 C2_4 1_555 1_555
C2_4 C3_4 1_555 1_555
C3_4 H1_4 1_555 1_555
C4_4 C3_4 1_555 1_555
H2_4 C4_4 1_555 1_555
C5_4 C4_4 1_555 1_555
C6_4 C5_4 1_555 1_555
H3_4 C6_4 1_555 1_555
C7_4 C2_4 1_555 1_555
H4_4 C7_4 1_555 1_555
C8_4 C5_4 1_555 1_555
O1_4 C1_4 1_555 1_555
O2_4 C1_4 1_555 1_555
O18 C8_4 1_555 1_555
O20_2 C8_4 1_555 1_555
Mn7 O1_4 1_555 1_555
H9_4 O2_4 1_555 1_555
C6_4 C7_4 1_555 1_555
O5_4 Mn7 1_555 1_555
C13_4 C14_4 1_555 1_555
C14_4 C15_4 1_555 1_555
C15_4 H7_4 1_555 1_555
O8_4 C13_4 1_555 1_555
O8_4 Mn8_2 1_555 1_555
C21_4 C22_4 1_555 1_555
C22_4 C23_4 1_555 1_555
H12_4 C23_4 1_555 1_555
O12_4 C21_4 1_555 1_555
O12_4 Mn10_2 1_555 1_555
C25_4 C26_4 1_555 1_555
C26_4 C27_4 1_555 1_555
C27_4 H14_4 1_555 1_555
C28_4 C27_4 1_555 1_555
H15_4 C28_4 1_555 1_555
C29_4 C28_4 1_555 1_555
C30_4 C29_4 1_555 1_555
H16_4 C30_4 1_555 1_555
C31_4 C26_4 1_555 1_555
H17_4 C31_4 1_555 1_555
C32_4 C29_4 1_555 1_555
O17_2 C25_4 1_555 1_555
O14_4 C25_4 1_555 1_555
O19_2 C32_4 1_555 1_555
O21_2 C32_4 1_555 1_555
H18_4 O14_4 1_555 1_555
C30_4 C31_4 1_555 1_555
H13_4 C24_4 1_555 1_555

#END
