
###############################################################################
#
# This file contains modified crystal structure data generated from the
# MOF subset of the Cambridge Structural Database (CSD) v543 
# hosted by the Cambridge Crystallographic Data Centre (CCDC).
#
# This work is licensed under the Creative Commons
# Attribution-NonCommercial-ShareAlike 4.0 International License.
# To view a copy of this license, visit
# http://creativecommons.org/licenses/by-nc-sa/4.0/
# or send a letter to
# Creative Commons, PO Box 1866, Mountain View, CA 94042, USA.
#
# CIF created using the CSD Python API on 29 September 2022
# The structure has been converted into the P1 space group
# The structure has a 3D framework
# The original CSD entry VOBQEK is in the triclinic crystal system
# The framework has been calculated to contain at least 10.0% void space
# The void calculation uses a probe of radius 1.32A, grid spacing 0.4
#
###############################################################################

data_VOBQEK
_chemical_formula_moiety         '(C28 H28 Mn7 O15)n'
_symmetry_cell_setting           triclinic
_symmetry_space_group_name_H-M   'P 1'
_symmetry_Int_Tables_number      1
_space_group_name_Hall           'P 1'
loop_
_symmetry_equiv_pos_site_id
_symmetry_equiv_pos_as_xyz
1 x,y,z
_cell_length_a                   9.806
_cell_length_b                   9.998
_cell_length_c                   10.674
_cell_angle_alpha                99.98
_cell_angle_beta                 111.38
_cell_angle_gamma                108.56
_cell_volume                     872.754
loop_
_atom_site_label
_atom_site_type_symbol
_atom_site_fract_x
_atom_site_fract_y
_atom_site_fract_z
Mn6 Mn -0.0000 -0.0000 -0.0000
Mn6_2 Mn 0.0000 -0.0000 1.0000
Mn6_3 Mn 0.0000 1.0000 -0.0000
Mn6_4 Mn 0.0000 1.0000 1.0000
Mn8 Mn 0.07009(4) 0.88684(4) 0.70196(4)
Mn6_5 Mn 1.0000 -0.0000 -0.0000
C1 C 0.2180(3) 0.0330(2) 0.3183(2)
C2 C 0.3644(3) 0.0159(2) 0.4129(2)
C4 C 0.4084(3) 0.0425(3) 0.5579(2)
H2 H 0.3471 0.0709 0.5967
C5 C 0.0160(3) 0.3096(3) 0.1744(3)
C6 C 0.0108(3) 0.4088(2) 0.0846(3)
C8 C 0.0965(3) 0.5630(3) 0.1459(3)
H4 H 0.1607 0.6055 0.2438
C13 C 0.0793(4) 0.3090(3) 0.6210(3)
H7 H 0.0733 0.3092 0.7088
H8 H 0.0567 0.3890 0.5934
H9 H 0.1854 0.3225 0.6336
O1 O 0.1211(2) 0.0435(2) 0.36892(18)
O2 O 0.19940(19) 0.03499(18) 0.19674(17)
O4 O 0.0788(2) 0.36152(19) 0.30721(18)
C17 C 0.5430(3) 0.0266(3) 0.6435(2)
H15 H 0.5718 0.0446 0.7401
C21 C 0.0862(3) 0.6532(3) 0.0613(3)
H17 H 0.1448 0.7561 0.1024
Mn6_6 Mn 1.0000 -0.0000 1.0000
O11 O 0.05511(19) 0.83169(17) 0.88845(17)
O22 O 0.16858(19) 0.17398(18) 0.96959(18)
Mn6_7 Mn 1.0000 1.0000 -0.0000
C3 C 0.4570(3) 0.9734(3) 0.3565(2)
H1 H 0.4282 0.9554 0.2599
C15 C 0.7820(3) 0.9670(2) 0.6817(2)
C16 C 0.6356(3) 0.9841(2) 0.5871(2)
C18 C 0.5916(3) 0.9575(3) 0.4421(2)
H16 H 0.6529 0.9291 0.4033
O9 O 0.8789(2) 0.9565(2) 0.63108(18)
O10 O 0.80060(19) 0.96501(18) 0.80326(17)
Mn6_8 Mn 1.0000 1.0000 1.0000
C14 C 0.6372(4) 0.2053(5) 0.1408(3)
H10 H 0.5650 0.2424 0.1595
H11 H 0.5760 0.1098 0.0671
H12 H 0.7013 0.2741 0.1105
O3 O 0.94489(19) 0.16831(17) 0.11155(17)
O7 O 0.7389(2) 0.1903(2) 0.26611(19)
O8 O 0.9659(2) 0.1722(2) 0.51445(18)
Mn2 Mn 0.92991(4) 0.11316(4) 0.29804(4)
H13 H 0.741(3) 0.244(3) 0.340(2)
H14 H 0.934(3) 0.103(2) 0.549(3)
C7 C 0.9138(3) 0.3468(3) 0.9387(3)
H3 H 0.8552 0.2439 0.8976
C19 C 0.9840(3) 0.6904(3) 0.8256(3)
C20 C 0.9892(3) 0.5912(2) 0.9154(3)
C22 C 0.9035(3) 0.4370(3) 0.8541(3)
H18 H 0.8393 0.3945 0.7562
O12 O 0.9212(2) 0.63848(19) 0.69279(18)
C9 C 0.7449(3) 0.8011(2) 0.0931(2)
C10 C 0.6176(3) 0.6448(2) 0.0446(2)
C12 C 0.5109(3) 0.6124(3) 0.1041(3)
H6 H 0.5175 0.6878 0.1737
O5 O 0.83142(19) 0.82602(18) 0.03041(18)
O6 O 0.7542(2) 0.89578(18) 0.19411(19)
C25 C 0.3951(3) 0.4684(3) 0.0601(3)
H19 H 0.3253 0.4476 0.1012
C11 C 0.6049(3) 0.5316(3) 0.9399(3)
H5 H 0.6747 0.5524 0.8988
C23 C 0.2551(3) 0.1989(2) 0.9069(2)
C24 C 0.3824(3) 0.3552(2) 0.9554(2)
C26 C 0.4891(3) 0.3876(3) 0.8959(3)
H20 H 0.4825 0.3122 0.8263
O14 O 0.2458(2) 0.10422(18) 0.80589(19)
C28 C 0.3628(4) 0.7947(5) 0.8592(3)
H24 H 0.4350 0.7576 0.8405
H25 H 0.4240 0.8902 0.9329
H26 H 0.2987 0.7259 0.8895
O15 O 0.2611(2) 0.8097(2) 0.73389(19)
O16 O 0.0341(2) 0.8278(2) 0.48555(18)
H27 H 0.259(3) 0.756(3) 0.660(2)
H28 H 0.066(3) 0.897(2) 0.451(3)
C27 C 0.9207(4) 0.6910(3) 0.3790(3)
H21 H 0.9267 0.6908 0.2912
H22 H 0.9433 0.6110 0.4066
H23 H 0.8146 0.6775 0.3664
loop_
_geom_bond_atom_site_label_1
_geom_bond_atom_site_label_2
_geom_bond_site_symmetry_1
_geom_bond_site_symmetry_2
C1 C2 1_555 1_555
C4 C2 1_555 1_555
H2 C4 1_555 1_555
C5 C6 1_555 1_555
C8 C6 1_555 1_555
H4 C8 1_555 1_555
C13 H7 1_555 1_555
H8 C13 1_555 1_555
H9 C13 1_555 1_555
O1 C1 1_555 1_555
O2 C1 1_555 1_555
O4 C5 1_555 1_555
Mn6 O2 1_555 1_555
C17 C4 1_555 1_555
H15 C17 1_555 1_555
C21 C8 1_555 1_555
H17 C21 1_555 1_555
O22 Mn6_2 1_555 1_555
Mn6_4 O11 1_555 1_555
Mn8 O11 1_555 1_555
C3 H1 1_555 1_555
C15 C16 1_555 1_555
C18 C3 1_555 1_555
H16 C18 1_555 1_555
O9 C15 1_555 1_555
O10 C15 1_555 1_555
Mn6_8 O10 1_555 1_555
C16 C18 1_555 1_555
C14 H10 1_555 1_555
H11 C14 1_555 1_555
H12 C14 1_555 1_555
O7 C14 1_555 1_555
H13 O7 1_555 1_555
H14 O8 1_555 1_555
O3 Mn6_5 1_555 1_555
O3 Mn2 1_555 1_555
O7 Mn2 1_555 1_555
O8 Mn2 1_555 1_555
C7 H3 1_555 1_555
C19 C20 1_555 1_555
C22 C7 1_555 1_555
H18 C22 1_555 1_555
O12 C19 1_555 1_555
C20 C22 1_555 1_555
C9 C10 1_555 1_555
C12 C10 1_555 1_555
H6 C12 1_555 1_555
O5 C9 1_555 1_555
O6 C9 1_555 1_555
C25 C12 1_555 1_555
H19 C25 1_555 1_555
O5 Mn6_7 1_555 1_555
C11 H5 1_555 1_555
C23 C24 1_555 1_555
C26 C11 1_555 1_555
H20 C26 1_555 1_555
O22 C23 1_555 1_555
O14 C23 1_555 1_555
C24 C26 1_555 1_555
C28 H24 1_555 1_555
H25 C28 1_555 1_555
H26 C28 1_555 1_555
O15 C28 1_555 1_555
H27 O15 1_555 1_555
H28 O16 1_555 1_555
O15 Mn8 1_555 1_555
O16 Mn8 1_555 1_555
C27 H21 1_555 1_555
H22 C27 1_555 1_555
H23 C27 1_555 1_555

#END
