
###############################################################################
#
# This file contains modified crystal structure data generated from the
# MOF subset of the Cambridge Structural Database (CSD) v543 
# hosted by the Cambridge Crystallographic Data Centre (CCDC).
#
# This work is licensed under the Creative Commons
# Attribution-NonCommercial-ShareAlike 4.0 International License.
# To view a copy of this license, visit
# http://creativecommons.org/licenses/by-nc-sa/4.0/
# or send a letter to
# Creative Commons, PO Box 1866, Mountain View, CA 94042, USA.
#
# CIF created using the CSD Python API on 29 September 2022
# The structure has been converted into the P1 space group
# The structure has a 3D framework
# The original CSD entry VOBTAJ is in the hexagonal crystal system
# The original CSD entry VOBTAJ is in a Sohncke space group
# The framework has been calculated to contain at least 10.0% void space
# The void calculation uses a probe of radius 1.32A, grid spacing 0.4
#
###############################################################################

data_VOBTAJ
_chemical_formula_moiety         '(C18 H36 Cu18 N90)n'
_symmetry_cell_setting           triclinic
_symmetry_space_group_name_H-M   'P 1'
_symmetry_Int_Tables_number      1
_space_group_name_Hall           'P 1'
loop_
_symmetry_equiv_pos_site_id
_symmetry_equiv_pos_as_xyz
1 x,y,z
_cell_length_a                   11.4708(6)
_cell_length_b                   11.4708(6)
_cell_length_c                   18.4672(17)
_cell_angle_alpha                90
_cell_angle_beta                 90
_cell_angle_gamma                120
_cell_volume                     2104.36
loop_
_atom_site_label
_atom_site_type_symbol
_atom_site_fract_x
_atom_site_fract_y
_atom_site_fract_z
Cu1 Cu 0.10134(6) 0.41000(6) 0.06106(4)
N2 N 0.2981(4) 0.7019(4) 0.0833
N5 N 0.1981(5) 0.6068(5) 0.0674(3)
N12 N 0.3932(5) 0.8019(5) 0.0993(3)
Cu6 Cu 0.59000(6) 0.89866(6) 0.10561(4)
N19 N 0.1981(6) 0.3117(8) 0.0655(3)
Cu2 Cu 0.18169(9) 0.59084(4) 0.9167
N6 N 0.0818(4) 0.3944(5) 0.9305(3)
N16 N 0.3844(3) 0.6922(2) 0.9166
N18 N 0.0818(4) 0.6874(6) 0.9028(3)
N1 N 0.8989(3) 0.3074(3) 0.0792(2)
N3 N 0.6922(2) 0.3078(2) 0.0833
N4 N 0.8948(3) 0.1052(3) 0.0833
H1 H 0.9852 0.1501 0.0806
C1 C 0.8284(3) 0.1716(3) 0.0833
N7 N 0.8938(4) 0.5034(4) 0.0779(3)
H2 H 0.9803 0.5465 0.0763
H3 H 0.8506 0.5467 0.0782
C2 C 0.8271(4) 0.3701(4) 0.0798(2)
N10 N 0.6926(3) 0.1011(3) 0.0875(2)
H4 H 0.8499 0.0148 0.0861
N11 N 0.4966(4) 0.1062(4) 0.0888(3)
H5 H 0.4535 0.0197 0.0904
H6 H 0.4533 0.1494 0.0885
C3 C 0.6299(4) 0.1729(4) 0.0869(2)
N14 N 0.8019(6) 0.1136(6) 0.2679(3)
N15 N 0.6995(4) 0.0170(4) 0.2523(2)
Cu5 Cu 0.89866(6) 0.30866(8) 0.27227(4)
Cu8 Cu 0.59084(4) 0.40915(10) 0.0834
N8 N 0.8864(6) 0.1981(6) 0.8988(3)
N9 N 0.9830(4) 0.3005(4) 0.9144(2)
Cu4 Cu 0.69134(8) 0.10134(6) 0.89439(4)
N13 N 0.6056(5) 0.9182(4) 0.2362(3)
Cu7 Cu 0.40915(10) 0.81831(9) 0.2500
N20 N 0.6883(8) 0.8019(6) 0.1012(3)
Cu3 Cu 0.10134(6) 0.69134(8) 0.77227(4)
N17 N 0.1981(5) 0.5913(7) 0.7659(3)
N20_2 N 0.1981(6) 0.8864(10) 0.7679(3)
Cu1_2 Cu 0.59000(6) 0.69134(8) 0.72773(4)
Cu2_2 Cu 0.40916(4) 0.59085(10) 0.5834
N1_2 N 0.6926(3) 0.5915(4) 0.7459(2)
N2_2 N 0.2981(4) 0.5962(6) 0.7500
N3_2 N 0.6922(2) 0.3844(3) 0.7500
N4_2 N 0.8948(3) 0.7896(4) 0.7500
H1_2 H 0.8499 0.8351 0.7473
N5_2 N 0.3932(5) 0.5913(7) 0.7341(3)
N6_2 N 0.6056(5) 0.6874(6) 0.5972(3)
C1_2 C 0.8284(3) 0.6568(4) 0.7500
N7_2 N 0.4966(4) 0.3904(6) 0.7446(3)
H2_2 H 0.4535 0.4338 0.7430
H3_2 H 0.4533 0.3039 0.7449
C2_2 C 0.6299(4) 0.4570(6) 0.7465(2)
N8_2 N 0.8019(6) 0.6883(8) 0.5655(3)
N9_2 N 0.6995(4) 0.6825(6) 0.5811(2)
N10_2 N 0.8989(3) 0.5915(4) 0.7541(2)
H4_2 H 0.9852 0.8351 0.7527
N11_2 N 0.8938(4) 0.3904(6) 0.7554(3)
H5_2 H 0.9803 0.4338 0.7570
H6_2 H 0.8506 0.3039 0.7551
C3_2 C 0.8271(4) 0.4570(6) 0.7535(2)
N14_2 N 0.8864(6) 0.6883(8) 0.9345(3)
N15_2 N 0.9830(4) 0.6825(6) 0.9189(2)
Cu4_2 Cu 0.89866(6) 0.59000(10) 0.56106(4)
Cu5_2 Cu 0.69134(8) 0.59000(10) 0.93894(4)
Cu8_2 Cu 0.59085(10) 0.18169(11) 0.7500
N16_2 N 0.3078(2) 0.6922(4) 0.5833
N18_2 N 0.3126(6) 0.3944(7) 0.5695(3)
N19_2 N 0.6883(8) 0.8864(10) 0.7321(3)
N1_3 N 0.4085(4) 0.1011(3) 0.4125(2)
N3_3 N 0.6156(3) 0.3078(2) 0.4166
N4_3 N 0.2104(4) 0.1052(3) 0.4166
H1_3 H 0.1649 0.0148 0.4139
C1_3 C 0.3432(4) 0.1716(3) 0.4166
N7_3 N 0.6096(6) 0.1062(4) 0.4112(3)
H2_3 H 0.5662 0.0197 0.4096
H3_3 H 0.6961 0.1494 0.4115
C2_3 C 0.5430(6) 0.1729(4) 0.4131(2)
N8_3 N 0.3117(8) 0.1136(6) 0.2321(3)
N9_3 N 0.3175(6) 0.0170(4) 0.2477(2)
N10_3 N 0.4085(4) 0.3074(3) 0.4208(2)
H4_3 H 0.1649 0.1501 0.4194
N11_3 N 0.6096(6) 0.5034(4) 0.4221(3)
H5_3 H 0.5662 0.5465 0.4237
H6_3 H 0.6961 0.5467 0.4218
C3_3 C 0.5430(6) 0.3701(4) 0.4202(2)
Cu3_2 Cu 0.30866(8) 0.41000(6) 0.43894(4)
N14_3 N 0.3117(8) 0.1981(6) 0.6012(3)
N15_3 N 0.3175(6) 0.3005(4) 0.5856(2)
Cu4_3 Cu 0.41000(10) 0.30866(8) 0.22773(4)
Cu5_3 Cu 0.41000(10) 0.10134(6) 0.60561(4)
Cu8_3 Cu 0.81831(11) 0.40916(4) 0.4167
N17_2 N 0.4087(7) 0.6068(5) 0.4326(3)
N20_3 N 0.1136(10) 0.3117(8) 0.4345(3)
Cu1_3 Cu 0.30866(8) 0.89866(6) 0.39439(4)
N2_3 N 0.4038(6) 0.7019(4) 0.4166
N5_3 N 0.4087(7) 0.8019(5) 0.4007(3)
N6_3 N 0.3126(6) 0.9182(4) 0.2638(3)
N16_3 N 0.3078(4) 0.6156(3) 0.2500
N19_3 N 0.1136(10) 0.8019(6) 0.3988(3)
N13_2 N 0.3944(5) 0.0818(4) 0.7362(3)
N17_3 N 0.6068(5) 0.1981(5) 0.5993(3)
N1_4 N 0.1011(3) 0.6926(3) 0.5792(2)
N4_4 N 0.1052(3) 0.8948(3) 0.5833
H1_4 H 0.0148 0.8499 0.5806
C1_4 C 0.1716(3) 0.8284(3) 0.5833
N7_4 N 0.1062(4) 0.4966(4) 0.5779(3)
H2_4 H 0.0197 0.4535 0.5763
H3_4 H 0.1494 0.4533 0.5782
C2_4 C 0.1729(4) 0.6299(4) 0.5798(2)
N9_4 N 0.0170(4) 0.6995(4) 0.4144(2)
N10_4 N 0.3074(3) 0.8989(3) 0.5875(2)
H4_4 H 0.1501 0.9852 0.5861
N11_4 N 0.5034(4) 0.8938(4) 0.5888(3)
H5_4 H 0.5465 0.9803 0.5904
H6_4 H 0.5467 0.8506 0.5885
C3_4 C 0.3701(4) 0.8271(4) 0.5869(2)
N15_4 N 0.3005(4) 0.9830(4) 0.7523(2)
N2_4 N 0.7019(4) 0.2981(4) 0.5833
N5_4 N 0.8019(5) 0.3932(5) 0.5674(3)
N6_4 N 0.9182(4) 0.6056(5) 0.4305(3)
N18_3 N 0.9182(4) 0.3126(6) 0.4028(3)
N1_5 N 0.3074(3) 0.4085(4) 0.2459(2)
N2_5 N 0.7019(4) 0.4038(6) 0.2500
N4_5 N 0.1052(3) 0.2104(4) 0.2500
H1_5 H 0.1501 0.1649 0.2473
N5_5 N 0.6068(5) 0.4087(7) 0.2341(3)
N6_5 N 0.3944(5) 0.3126(6) 0.0972(3)
C1_5 C 0.1716(3) 0.3432(4) 0.2500
N7_5 N 0.5034(4) 0.6096(6) 0.2446(3)
H2_5 H 0.5465 0.5662 0.2430
H3_5 H 0.5467 0.6961 0.2449
C2_5 C 0.3701(4) 0.5430(6) 0.2465(2)
N9_5 N 0.3005(4) 0.3175(6) 0.0811(2)
N10_5 N 0.1011(3) 0.4085(4) 0.2541(2)
H4_5 H 0.0148 0.1649 0.2527
N11_5 N 0.1062(4) 0.6096(6) 0.2554(3)
H5_5 H 0.0197 0.5662 0.2570
H6_5 H 0.1494 0.6961 0.2551
C3_5 C 0.1729(4) 0.5430(6) 0.2535(2)
N12_2 N 0.8019(5) 0.4087(7) 0.2659(3)
N15_5 N 0.0170(4) 0.3175(6) 0.4189(2)
N18_4 N 0.6874(6) 0.6056(7) 0.0695(3)
N2_6 N 0.5962(6) 0.2981(4) 0.9166
N5_6 N 0.5913(7) 0.1981(5) 0.9007(3)
N6_6 N 0.6874(6) 0.0818(4) 0.7638(3)
N12_3 N 0.5913(7) 0.3932(5) 0.9326(3)
N15_6 N 0.6825(6) 0.6995(4) 0.0856(2)
N1_6 N 0.5915(4) 0.8989(3) 0.9125(2)
N4_6 N 0.7896(4) 0.8948(3) 0.9166
H1_6 H 0.8351 0.9852 0.9139
C1_6 C 0.6568(4) 0.8284(3) 0.9166
N7_6 N 0.3904(6) 0.8938(4) 0.9112(3)
H2_6 H 0.4338 0.9803 0.9096
H3_6 H 0.3039 0.8506 0.9115
C2_6 C 0.4570(6) 0.8271(4) 0.9131(2)
N9_6 N 0.6825(6) 0.9830(4) 0.7477(2)
N10_6 N 0.5915(4) 0.6926(3) 0.9208(2)
H4_6 H 0.8351 0.8499 0.9194
N11_6 N 0.3904(6) 0.4966(4) 0.9221(3)
H5_6 H 0.4338 0.4535 0.9237
H6_6 H 0.3039 0.4533 0.9218
C3_6 C 0.4570(6) 0.6299(4) 0.9202(2)
loop_
_geom_bond_atom_site_label_1
_geom_bond_atom_site_label_2
_geom_bond_site_symmetry_1
_geom_bond_site_symmetry_2
N2 N5 1_555 1_555
N5 Cu1 1_555 1_555
N12 N2 1_555 1_555
Cu6 N12 1_555 1_555
N19 Cu1 1_555 1_555
Cu2 N6 1_555 1_555
N16 Cu2 1_555 1_555
N18 Cu2 1_555 1_555
N1 C1 1_555 1_555
N3 C2 1_555 1_555
N4 H1 1_555 1_555
C1 N4 1_555 1_555
N7 H2 1_555 1_555
H3 N7 1_555 1_555
C2 N1 1_555 1_555
N10 C1 1_555 1_555
H4 N4 1_555 1_555
N11 H5 1_555 1_555
H6 N11 1_555 1_555
C3 N3 1_555 1_555
N14 N15 1_555 1_555
Cu5 N14 1_555 1_555
Cu8 N3 1_555 1_555
N7 C2 1_555 1_555
N10 C3 1_555 1_555
N11 C3 1_555 1_555
N8 N9 1_555 1_555
Cu4 N8 1_555 1_555
N13 Cu6 1_555 1_555
Cu7 N13 1_555 1_555
N20 Cu6 1_555 1_555
N18 Cu3 1_555 1_555
N17 Cu3 1_555 1_555
N20_2 Cu3 1_555 1_555
Cu1_2 N1_2 1_555 1_555
Cu2_2 N6_2 1_555 1_555
N1_2 C1_2 1_555 1_555
N2_2 N5_2 1_555 1_555
N3_2 C2_2 1_555 1_555
N4_2 H1_2 1_555 1_555
N5_2 Cu1_2 1_555 1_555
N6_2 Cu1_2 1_555 1_555
C1_2 N4_2 1_555 1_555
N7_2 H2_2 1_555 1_555
H3_2 N7_2 1_555 1_555
C2_2 N1_2 1_555 1_555
N8_2 N9_2 1_555 1_555
N9_2 N6_2 1_555 1_555
N10_2 C1_2 1_555 1_555
H4_2 N4_2 1_555 1_555
N11_2 H5_2 1_555 1_555
H6_2 N11_2 1_555 1_555
C3_2 N3_2 1_555 1_555
N17 N2_2 1_555 1_555
N14_2 N15_2 1_555 1_555
Cu4_2 N8_2 1_555 1_555
Cu5_2 N14_2 1_555 1_555
Cu8_2 N3_2 1_555 1_555
N16_2 Cu2_2 1_555 1_555
N18_2 Cu2_2 1_555 1_555
N19_2 Cu1_2 1_555 1_555
N7_2 C2_2 1_555 1_555
N10_2 C3_2 1_555 1_555
N11_2 C3_2 1_555 1_555
N1_3 C1_3 1_555 1_555
N3_3 C2_3 1_555 1_555
N4_3 H1_3 1_555 1_555
C1_3 N4_3 1_555 1_555
N7_3 H2_3 1_555 1_555
H3_3 N7_3 1_555 1_555
C2_3 N1_3 1_555 1_555
N8_3 N9_3 1_555 1_555
N10_3 C1_3 1_555 1_555
H4_3 N4_3 1_555 1_555
N11_3 H5_3 1_555 1_555
H6_3 N11_3 1_555 1_555
C3_3 N3_3 1_555 1_555
Cu3_2 N10_3 1_555 1_555
N18_2 Cu3_2 1_555 1_555
N14_3 N15_3 1_555 1_555
N15_3 N18_2 1_555 1_555
Cu4_3 N8_3 1_555 1_555
Cu5_3 N14_3 1_555 1_555
Cu8_3 N3_3 1_555 1_555
N17_2 Cu3_2 1_555 1_555
N20_3 Cu3_2 1_555 1_555
N7_3 C2_3 1_555 1_555
N10_3 C3_3 1_555 1_555
N11_3 C3_3 1_555 1_555
Cu7 N6_3 1_555 1_555
N2_3 N5_3 1_555 1_555
N5_3 Cu1_3 1_555 1_555
N6_3 Cu1_3 1_555 1_555
N17_2 N2_3 1_555 1_555
N16_3 Cu7 1_555 1_555
N19_3 Cu1_3 1_555 1_555
N13_2 Cu5_3 1_555 1_555
Cu8_2 N13_2 1_555 1_555
N17_3 Cu5_3 1_555 1_555
N1_4 C1_4 1_555 1_555
N16_2 C2_4 1_555 1_555
N4_4 H1_4 1_555 1_555
C1_4 N4_4 1_555 1_555
N7_4 H2_4 1_555 1_555
H3_4 N7_4 1_555 1_555
C2_4 N1_4 1_555 1_555
N19_3 N9_4 1_555 1_555
N10_4 C1_4 1_555 1_555
H4_4 N4_4 1_555 1_555
N11_4 H5_4 1_555 1_555
H6_4 N11_4 1_555 1_555
C3_4 N16_2 1_555 1_555
N20_2 N15_4 1_555 1_555
N7_4 C2_4 1_555 1_555
N10_4 C3_4 1_555 1_555
N11_4 C3_4 1_555 1_555
Cu8_3 N6_4 1_555 1_555
N2_4 N5_4 1_555 1_555
N5_4 Cu4_2 1_555 1_555
N6_4 Cu4_2 1_555 1_555
N17_3 N2_4 1_555 1_555
N18_3 Cu8_3 1_555 1_555
Cu4_3 N1_5 1_555 1_555
Cu8 N6_5 1_555 1_555
N1_5 C1_5 1_555 1_555
N2_5 N5_5 1_555 1_555
N16_3 C2_5 1_555 1_555
N4_5 H1_5 1_555 1_555
N5_5 Cu4_3 1_555 1_555
N6_5 Cu4_3 1_555 1_555
C1_5 N4_5 1_555 1_555
N7_5 H2_5 1_555 1_555
H3_5 N7_5 1_555 1_555
C2_5 N1_5 1_555 1_555
N19 N9_5 1_555 1_555
N9_5 N6_5 1_555 1_555
N10_5 C1_5 1_555 1_555
H4_5 N4_5 1_555 1_555
N11_5 H5_5 1_555 1_555
H6_5 N11_5 1_555 1_555
C3_5 N16_3 1_555 1_555
N12_2 N2_5 1_555 1_555
N20_3 N15_5 1_555 1_555
Cu5 N12_2 1_555 1_555
N18_4 Cu8 1_555 1_555
N7_5 C2_5 1_555 1_555
N10_5 C3_5 1_555 1_555
N11_5 C3_5 1_555 1_555
N18_3 Cu5 1_555 1_555
Cu8_2 N6_6 1_555 1_555
N2_6 N5_6 1_555 1_555
N5_6 Cu4 1_555 1_555
N6_6 Cu4 1_555 1_555
N12_3 N2_6 1_555 1_555
Cu5_2 N12_3 1_555 1_555
N20 N15_6 1_555 1_555
N15_6 N18_4 1_555 1_555
N1_6 C1_6 1_555 1_555
N16 C2_6 1_555 1_555
N4_6 H1_6 1_555 1_555
C1_6 N4_6 1_555 1_555
N7_6 H2_6 1_555 1_555
H3_6 N7_6 1_555 1_555
C2_6 N1_6 1_555 1_555
N19_2 N9_6 1_555 1_555
N10_6 C1_6 1_555 1_555
H4_6 N4_6 1_555 1_555
N11_6 H5_6 1_555 1_555
H6_6 N11_6 1_555 1_555
C3_6 N16 1_555 1_555
Cu5_2 N10_6 1_555 1_555
N7_6 C2_6 1_555 1_555
N10_6 C3_6 1_555 1_555
N11_6 C3_6 1_555 1_555

#END
