
###############################################################################
#
# This file contains modified crystal structure data generated from the
# MOF subset of the Cambridge Structural Database (CSD) v543 
# hosted by the Cambridge Crystallographic Data Centre (CCDC).
#
# This work is licensed under the Creative Commons
# Attribution-NonCommercial-ShareAlike 4.0 International License.
# To view a copy of this license, visit
# http://creativecommons.org/licenses/by-nc-sa/4.0/
# or send a letter to
# Creative Commons, PO Box 1866, Mountain View, CA 94042, USA.
#
# CIF created using the CSD Python API on 29 September 2022
# The structure has been converted into the P1 space group
# The structure has a 3D framework
# The original CSD entry VOCKUT is in the triclinic crystal system
# The framework has been calculated to contain at least 10.0% void space
# The void calculation uses a probe of radius 1.32A, grid spacing 0.4
#
###############################################################################

data_VOCKUT
_chemical_formula_moiety         '(C48 H36 Co4 N8 O18)n'
_symmetry_cell_setting           triclinic
_symmetry_space_group_name_H-M   'P 1'
_symmetry_Int_Tables_number      1
_space_group_name_Hall           'P 1'
loop_
_symmetry_equiv_pos_site_id
_symmetry_equiv_pos_as_xyz
1 x,y,z
_cell_length_a                   10.53440(10)
_cell_length_b                   11.9073(2)
_cell_length_c                   14.0461(3)
_cell_angle_alpha                106.6450(10)
_cell_angle_beta                 101.9770(10)
_cell_angle_gamma                112.0780(10)
_cell_volume                     1462.4
loop_
_atom_site_label
_atom_site_type_symbol
_atom_site_fract_x
_atom_site_fract_y
_atom_site_fract_z
Co2 Co 0.55129(8) 0.27080(7) 0.31163(5)
O1 O 0.4012(4) 0.3005(4) 0.3818(3)
O2 O 0.2152(4) 0.1112(4) 0.3602(3)
O5 O 0.2159(4) 0.1358(4) 0.1508(3)
O6 O 0.4466(4) 0.2541(4) 0.1623(3)
O9 O 0.4252(4) 0.0602(4) 0.2584(3)
H1 H 0.436(9) 0.025(8) 0.210(7)
H2 H 0.476(9) 0.045(8) 0.311(7)
N1 N 0.3293(5) 0.5177(4) 0.6310(3)
C1 C 0.2996(6) 0.2333(5) 0.4061(4)
C2 C 0.2758(6) 0.3076(6) 0.5019(4)
C3 C 0.1996(9) 0.2432(7) 0.5556(6)
H3 H 0.1542 0.1494 0.5301
C4 C 0.1911(11) 0.3184(7) 0.6468(6)
H4 H 0.1388 0.2769 0.6849
C5 C 0.2589(8) 0.4536(6) 0.6820(5)
H5 H 0.2551 0.5040 0.7464
C6 C 0.3362(6) 0.4436(5) 0.5416(4)
H6 H 0.3858 0.4877 0.5036
C13 C 0.3092(6) 0.1830(5) 0.1118(4)
O10 O 0.6665(4) 0.2843(4) 0.4565(3)
N6 N 0.6707(5) 0.4823(4) 0.3690(3)
N7 N 0.7214(5) 0.2489(4) 0.2516(3)
Co4 Co 0.44871(8) 0.72920(7) 0.68837(5)
Co1 Co 0.19149(8) 0.99136(7) 0.21280(5)
O3 O 0.4027(5) 0.9295(4) 0.5763(3)
O4 O 0.3335(4) 0.7157(4) 0.5435(3)
O7 O 0.1610(4) 0.8664(4) 0.0598(3)
O8 O 0.3918(4) 0.9195(5) 0.0692(3)
N2 N 0.1640(5) 0.8376(5) 0.2679(3)
C7 C 0.3331(6) 0.8094(6) 0.5187(4)
C8 C 0.2371(6) 0.7700(6) 0.4061(4)
C9 C 0.1439(7) 0.6381(6) 0.3378(5)
H7 H 0.1382 0.5696 0.3612
C10 C 0.0598(8) 0.6076(6) 0.2356(5)
C11 C 0.0740(7) 0.7090(6) 0.2040(5)
H9 H 0.0173 0.6875 0.1332
C12 C 0.2428(6) 0.8655(6) 0.3679(4)
H10 H 0.3056 0.9557 0.4144
C19 C 0.2569(6) 0.8693(5) 0.0196(4)
N4 N 0.2786(5) 0.7511(4) 0.7484(3)
C20 C 0.2076(6) 0.8108(5) 0.8999(4)
C21 C 0.0665(6) 0.7690(6) 0.8333(4)
C22 C 0.0354(6) 0.7199(6) 0.7243(4)
C23 C 0.1420(6) 0.7109(6) 0.6855(4)
H17 H 0.1179 0.6746 0.6107
C24 C 0.3097(6) 0.8022(5) 0.8540(4)
H18 H 0.4071 0.8342 0.8996
Co5 Co 0.80851(8) 0.00864(7) 0.78720(5)
C20_2 C 0.7924(6) 0.1892(5) 0.1001(4)
C21_2 C 0.9335(6) 0.2310(6) 0.1667(4)
C22_2 C 0.9646(6) 0.2801(6) 0.2757(4)
C23_2 C 0.8580(6) 0.2891(6) 0.3145(4)
H17_2 H 0.8821 0.3254 0.3893
C24_2 C 0.6903(6) 0.1978(5) 0.1460(4)
H18_2 H 0.5929 0.1658 0.1004
O3_2 O 0.5973(5) 0.0705(4) 0.4237(3)
O7_2 O 0.8390(4) 0.1336(4) 0.9402(3)
O8_2 O 0.6082(4) 0.0805(5) 0.9308(3)
N2_2 N 0.8360(5) 0.1624(5) 0.7321(3)
C7_2 C 0.6669(6) 0.1906(6) 0.4813(4)
C8_2 C 0.7629(6) 0.2300(6) 0.5939(4)
C9_2 C 0.8561(7) 0.3619(6) 0.6622(5)
H7_2 H 0.8618 0.4304 0.6388
C10_2 C 0.9402(8) 0.3924(6) 0.7644(5)
C11_2 C 0.9260(7) 0.2910(6) 0.7960(5)
H9_2 H 0.9827 0.3125 0.8668
C12_2 C 0.7572(6) 0.1345(6) 0.6321(4)
H10_2 H 0.6944 0.0443 0.5856
C19_2 C 0.7431(6) 0.1307(5) 0.9804(4)
O1_2 O 0.5988(4) 0.6995(4) 0.6182(3)
O2_2 O 0.7848(4) 0.8888(4) 0.6398(3)
O5_2 O 0.7841(4) 0.8642(4) 0.8492(3)
O6_2 O 0.5534(4) 0.7459(4) 0.8377(3)
O9_2 O 0.5748(4) 0.9398(4) 0.7416(3)
H1_2 H 0.564(9) 0.975(8) 0.790(7)
H2_2 H 0.524(9) 0.955(8) 0.689(7)
C1_2 C 0.7004(6) 0.7667(5) 0.5939(4)
C2_2 C 0.7242(6) 0.6924(6) 0.4981(4)
C3_2 C 0.8004(9) 0.7568(7) 0.4444(6)
H3_2 H 0.8458 0.8506 0.4699
C4_2 C 0.8089(11) 0.6816(7) 0.3532(6)
H4_2 H 0.8612 0.7231 0.3151
C5_2 C 0.7411(8) 0.5464(6) 0.3180(5)
H5_2 H 0.7449 0.4960 0.2536
C6_2 C 0.6638(6) 0.5564(5) 0.4584(4)
H6_2 H 0.6142 0.5123 0.4964
C13_2 C 0.6908(6) 0.8170(5) 0.8882(4)
N3 N 0.0395(5) 0.0714(5) 0.8419(3)
C14 C 0.2526(6) 0.1497(5) 0.9944(4)
C15 C 0.3375(6) 0.1513(6) 0.9311(5)
H11 H 0.4396 0.1806 0.9611
C16 C 0.2688(7) 0.1088(7) 0.8221(5)
H12 H 0.3232 0.1059 0.7761
C17 C 0.1218(6) 0.0712(6) 0.7818(4)
H13 H 0.0768 0.0438 0.7075
C18 C 0.1054(6) 0.1089(5) 0.9463(4)
H14 H 0.0473 0.1072 0.9898
H8 H 0.0063 0.4816 0.8117
H8_2 H 0.9937 0.5184 0.1883
N5 N 0.9605(5) 0.9286(5) 0.1581(3)
C14_2 C 0.7474(6) 0.8503(5) 0.0056(4)
C15_2 C 0.6625(6) 0.8487(6) 0.0689(5)
H11_2 H 0.5604 0.8194 0.0389
C16_2 C 0.7312(7) 0.8912(7) 0.1779(5)
H12_2 H 0.6768 0.8941 0.2239
C17_2 C 0.8782(6) 0.9288(6) 0.2182(4)
H13_2 H 0.9232 0.9562 0.2925
C18_2 C 0.8946(6) 0.8911(5) 0.0537(4)
H14_2 H 0.9527 0.8928 0.0102
H15 H 0.9933 0.7738 0.8616
H16 H 0.9406 0.6926 0.6768
H15_2 H 0.0067 0.2262 0.1384
H16_2 H 0.0594 0.3074 0.3232
loop_
_geom_bond_atom_site_label_1
_geom_bond_atom_site_label_2
_geom_bond_site_symmetry_1
_geom_bond_site_symmetry_2
Co2 O1 1_555 1_555
O1 C1 1_555 1_555
O2 C1 1_555 1_555
O6 Co2 1_555 1_555
H1 O9 1_555 1_555
H2 O9 1_555 1_555
N1 C5 1_555 1_555
C1 C2 1_555 1_555
C2 C3 1_555 1_555
C3 H3 1_555 1_555
C4 C3 1_555 1_555
H4 C4 1_555 1_555
C5 C4 1_555 1_555
H5 C5 1_555 1_555
C6 N1 1_555 1_555
H6 C6 1_555 1_555
C13 O5 1_555 1_555
O10 Co2 1_555 1_555
N6 Co2 1_555 1_555
N7 Co2 1_555 1_555
Co4 N1 1_555 1_555
Co2 O9 1_555 1_555
O6 C13 1_555 1_555
C2 C6 1_555 1_555
O3 C7 1_555 1_555
O4 C7 1_555 1_555
O7 Co1 1_555 1_555
O8 C19 1_555 1_555
N2 Co1 1_555 1_555
C7 C8 1_555 1_555
C8 C9 1_555 1_555
C9 H7 1_555 1_555
C10 C9 1_555 1_555
C11 N2 1_555 1_555
H9 C11 1_555 1_555
C12 N2 1_555 1_555
H10 C12 1_555 1_555
C19 O7 1_555 1_555
Co4 O4 1_555 1_555
C8 C12 1_555 1_555
C10 C11 1_555 1_555
N4 C23 1_555 1_555
C21 C20 1_555 1_555
C22 C21 1_555 1_555
C23 C22 1_555 1_555
H17 C23 1_555 1_555
C24 N4 1_555 1_555
H18 C24 1_555 1_555
Co4 N4 1_555 1_555
C20 C24 1_555 1_555
N7 C23_2 1_555 1_555
C21_2 C20_2 1_555 1_555
C22_2 C21_2 1_555 1_555
C23_2 C22_2 1_555 1_555
H17_2 C23_2 1_555 1_555
C24_2 N7 1_555 1_555
H18_2 C24_2 1_555 1_555
C20_2 C24_2 1_555 1_555
O3_2 C7_2 1_555 1_555
O10 C7_2 1_555 1_555
O7_2 Co5 1_555 1_555
O8_2 C19_2 1_555 1_555
N2_2 Co5 1_555 1_555
C7_2 C8_2 1_555 1_555
C8_2 C9_2 1_555 1_555
C9_2 H7_2 1_555 1_555
C10_2 C9_2 1_555 1_555
C11_2 N2_2 1_555 1_555
H9_2 C11_2 1_555 1_555
C12_2 N2_2 1_555 1_555
H10_2 C12_2 1_555 1_555
C19_2 O7_2 1_555 1_555
C8_2 C12_2 1_555 1_555
C10_2 C11_2 1_555 1_555
Co4 O1_2 1_555 1_555
O1_2 C1_2 1_555 1_555
O2_2 C1_2 1_555 1_555
O6_2 Co4 1_555 1_555
H1_2 O9_2 1_555 1_555
H2_2 O9_2 1_555 1_555
N6 C5_2 1_555 1_555
C1_2 C2_2 1_555 1_555
C2_2 C3_2 1_555 1_555
C3_2 H3_2 1_555 1_555
C4_2 C3_2 1_555 1_555
H4_2 C4_2 1_555 1_555
C5_2 C4_2 1_555 1_555
H5_2 C5_2 1_555 1_555
C6_2 N6 1_555 1_555
H6_2 C6_2 1_555 1_555
C13_2 O5_2 1_555 1_555
Co4 O9_2 1_555 1_555
O6_2 C13_2 1_555 1_555
C2_2 C6_2 1_555 1_555
N3 C17 1_555 1_555
C15 C14 1_555 1_555
H11 C15 1_555 1_555
C16 C15 1_555 1_555
H12 C16 1_555 1_555
C17 C16 1_555 1_555
H13 C17 1_555 1_555
C18 N3 1_555 1_555
H14 C18 1_555 1_555
C14 C18 1_555 1_555
N5 C17_2 1_555 1_555
C15_2 C14_2 1_555 1_555
H11_2 C15_2 1_555 1_555
C16_2 C15_2 1_555 1_555
H12_2 C16_2 1_555 1_555
C17_2 C16_2 1_555 1_555
H13_2 C17_2 1_555 1_555
C18_2 N5 1_555 1_555
H14_2 C18_2 1_555 1_555
C14_2 C18_2 1_555 1_555

#END
