
###############################################################################
#
# This file contains modified crystal structure data generated from the
# MOF subset of the Cambridge Structural Database (CSD) v543 
# hosted by the Cambridge Crystallographic Data Centre (CCDC).
#
# This work is licensed under the Creative Commons
# Attribution-NonCommercial-ShareAlike 4.0 International License.
# To view a copy of this license, visit
# http://creativecommons.org/licenses/by-nc-sa/4.0/
# or send a letter to
# Creative Commons, PO Box 1866, Mountain View, CA 94042, USA.
#
# CIF created using the CSD Python API on 29 September 2022
# The structure has been converted into the P1 space group
# The structure has a 3D framework
# The original CSD entry VOCXUH is in the hexagonal crystal system
# The framework has been calculated to contain at least 10.0% void space
# The void calculation uses a probe of radius 1.32A, grid spacing 0.4
#
###############################################################################

data_VOCXUH
_chemical_formula_moiety         '(C100 H46 Co8 N10 O36)n'
_symmetry_cell_setting           triclinic
_symmetry_space_group_name_H-M   'P 1'
_symmetry_Int_Tables_number      1
_space_group_name_Hall           'P 1'
loop_
_symmetry_equiv_pos_site_id
_symmetry_equiv_pos_as_xyz
1 x,y,z
_cell_length_a                   16.6736(16)
_cell_length_b                   16.6736(16)
_cell_length_c                   11.389(2)
_cell_angle_alpha                90
_cell_angle_beta                 90
_cell_angle_gamma                120
_cell_volume                     2742.05
loop_
_atom_site_label
_atom_site_type_symbol
_atom_site_fract_x
_atom_site_fract_y
_atom_site_fract_z
O10 O 0.1147(5) 0.4493(5) 0.0000
N8 N -0.0000 0.3243(4) 0.1889(6)
O18 O 0.0762(4) 0.2487(6) 0.0000
Co3 Co -0.0000 0.32235(8) 0.0000
O10_2 O 0.1147(5) 0.4493(5) 1.0000
N9 N -0.0000 0.3243(4) 0.8111(6)
O18_2 O 0.0762(4) 0.2487(6) 1.0000
Co3_2 Co -0.0000 0.32235(8) 1.0000
Co6 Co 0.32235(8) 0.0000 0.0000
Co10 Co 0.67765(8) 0.67765(8) 0.0000
C1 C 0.0839(8) 0.0000 0.0000
C2 C 0.6018(7) 0.2391(6) 0.0000
C3 C 0.6959(7) 0.2686(7) 0.0000
H1 H 0.7156 0.2253 0.0000
C5 C 0.366(3) 0.0802(14) 0.3706(15)
H3 H 0.3928 0.1374 0.4082
C6 C 0.1736(8) 0.0000 0.0000
C7 C 0.367(2) 0.0755(13) 0.2476(15)
H4 H 0.4011 0.1305 0.2062
O1 O 0.4493(5) 0.1147(5) 0.0000
C8 C 0.3243(6) 0.0000 0.4347(9)
C9 C 0.5322(7) 0.1377(6) 0.0000
N1 N 0.3243(4) 0.0000 0.1889(6)
O3 O 0.5630(7) 0.0838(6) 0.0000
C11 C -0.0000 0.0839(8) 0.0000
C12 C 0.7609(6) 0.3627(9) 0.0000
C13 C 0.6373(9) 0.3982(7) 0.0000
C17 C 0.7314(7) 0.4273(10) 0.0000
C18 C 0.5727(10) 0.3041(7) 0.0000
H5 H 0.5097 0.2844 0.0000
H6 H 0.7747 0.4903 0.0000
C23 C 0.0826(7) 0.0826(7) 0.0000
H10 H 0.1383 0.1383 0.0000
C25 C 0.366(3) 0.0802(14) 0.6294(15)
C31 C 0.7142(33) 0.634(3) 0.3706(15)
C32 C 0.634(3) 0.7142(33) 0.3706(15)
C33 C 0.7142(33) 0.634(3) 0.6294(15)
C34 C 0.634(3) 0.7142(33) 0.6294(15)
H13 H 0.3928 0.1374 0.5918
H19 H 0.7446 0.6072 0.4082
H20 H 0.6072 0.7446 0.4082
H21 H 0.7446 0.6072 0.5918
H22 H 0.6072 0.7446 0.5918
C35 C -0.0000 0.1736(8) 0.0000
C38 C 0.367(2) 0.0755(13) 0.7524(15)
C44 C 0.7085(24) 0.633(2) 0.2476(15)
C45 C 0.633(2) 0.7085(24) 0.2476(15)
C46 C 0.7085(24) 0.633(2) 0.7524(15)
C47 C 0.633(2) 0.7085(24) 0.7524(15)
H23 H 0.4011 0.1305 0.7938
H30 H 0.7294 0.5989 0.2062
H31 H 0.7294 0.5989 0.7938
H32 H 0.5989 0.7294 0.7938
H33 H 0.5989 0.7294 0.2062
O4 O 0.6654(7) 0.5507(5) 0.0000
O5 O 0.8853(5) 0.3346(7) 0.0000
O9 O 0.5507(5) 0.6654(7) 0.0000
C48 C 0.3243(6) 0.0000 0.5653(9)
C51 C 0.6757(6) 0.6757(6) 0.4347(9)
C52 C 0.6757(6) 0.6757(6) 0.5653(9)
C53 C 0.6055(9) 0.4678(7) 0.0000
C54 C 0.8623(6) 0.3945(9) 0.0000
N2 N 0.3243(4) 0.0000 0.8111(6)
N5 N 0.6757(4) 0.6757(4) 0.1889(6)
N6 N 0.6757(4) 0.6757(4) 0.8111(6)
N8_2 N 1.0000 0.3243(4) 0.1889(6)
O11 O 0.2487(6) 0.0762(4) 0.0000
O16 O 0.7513(6) 0.8275(4) 0.0000
O17 O 0.8275(4) 0.7513(6) 0.0000
O19 O 0.9238(4) 0.1725(4) 0.0000
Co3_3 Co 1.0000 0.32235(8) 0.0000
Co6_2 Co 0.32235(8) 0.0000 1.0000
Co10_2 Co 0.67765(8) 0.67765(8) 1.0000
O20 O 0.5208(9) 0.4370(7) 0.0000
O21 O 0.9162(6) 0.4792(9) 0.0000
C1_2 C 0.0839(8) 0.0000 1.0000
C2_2 C 0.6018(7) 0.2391(6) 1.0000
C3_2 C 0.6959(7) 0.2686(7) 1.0000
H1_2 H 0.7156 0.2253 1.0000
C6_2 C 0.1736(8) 0.0000 1.0000
O1_2 O 0.4493(5) 0.1147(5) 1.0000
C9_2 C 0.5322(7) 0.1377(6) 1.0000
O3_2 O 0.5630(7) 0.0838(6) 1.0000
C11_2 C -0.0000 0.0839(8) 1.0000
C12_2 C 0.7609(6) 0.3627(9) 1.0000
C13_2 C 0.6373(9) 0.3982(7) 1.0000
C17_2 C 0.7314(7) 0.4273(10) 1.0000
C18_2 C 0.5727(10) 0.3041(7) 1.0000
H5_2 H 0.5097 0.2844 1.0000
H6_2 H 0.7747 0.4903 1.0000
C23_2 C 0.0826(7) 0.0826(7) 1.0000
H10_2 H 0.1383 0.1383 1.0000
C35_2 C -0.0000 0.1736(8) 1.0000
O4_2 O 0.6654(7) 0.5507(5) 1.0000
O5_2 O 0.8853(5) 0.3346(7) 1.0000
O9_2 O 0.5507(5) 0.6654(7) 1.0000
C53_2 C 0.6055(9) 0.4678(7) 1.0000
C54_2 C 0.8623(6) 0.3945(9) 1.0000
N9_2 N 1.0000 0.3243(4) 0.8111(6)
O11_2 O 0.2487(6) 0.0762(4) 1.0000
O16_2 O 0.7513(6) 0.8275(4) 1.0000
O17_2 O 0.8275(4) 0.7513(6) 1.0000
O19_2 O 0.9238(4) 0.1725(4) 1.0000
Co3_4 Co 1.0000 0.32235(8) 1.0000
O20_2 O 0.5208(9) 0.4370(7) 1.0000
O21_2 O 0.9162(6) 0.4792(9) 1.0000
Co6_3 Co 0.32235(8) 1.0000 0.0000
C1_3 C 0.0839(8) 1.0000 0.0000
C4 C -0.0000 0.9174(7) 0.0000
H2 H -0.0000 0.8617 0.0000
C6_3 C 0.1736(8) 1.0000 0.0000
C8_2 C 0.3243(6) 1.0000 0.4347(9)
N1_2 N 0.3243(4) 1.0000 0.1889(6)
O2 O 0.1725(4) 0.9238(4) 0.0000
C14 C 0.3627(9) 0.7609(6) 0.0000
C15 C 0.3982(7) 0.6373(9) 0.0000
C16 C 0.2391(6) 0.6018(7) 0.0000
C19 C 0.4273(10) 0.7314(7) 0.0000
C20 C 0.3041(7) 0.5727(10) 0.0000
C21 C 0.2686(7) 0.6959(7) 0.0000
H7 H 0.4903 0.7747 0.0000
H8 H 0.2253 0.7156 0.0000
H9 H 0.2844 0.5097 0.0000
C24 C 0.2858(33) 0.9198(14) 0.3706(15)
C26 C 0.2858(33) 0.9198(14) 0.6294(15)
H12 H 0.2554 0.8626 0.4082
H14 H 0.2554 0.8626 0.5918
C37 C 0.2915(24) 0.9245(13) 0.2476(15)
C39 C 0.2915(24) 0.9245(13) 0.7524(15)
H24 H 0.2706 0.8695 0.7938
H25 H 0.2706 0.8695 0.2062
O6 O 0.3346(7) 0.8853(5) 0.0000
C48_2 C 0.3243(6) 1.0000 0.5653(9)
C55 C 0.3945(9) 0.8623(6) 0.0000
C56 C 0.1377(6) 0.5322(7) 0.0000
C57 C 0.4678(7) 0.6055(9) 0.0000
N2_2 N 0.3243(4) 1.0000 0.8111(6)
Co6_4 Co 0.32235(8) 1.0000 1.0000
O22 O 0.4792(9) 0.9162(6) 0.0000
O23 O 0.0838(6) 0.5630(7) 0.0000
O24 O 0.4370(7) 0.5208(9) 0.0000
C1_4 C 0.0839(8) 1.0000 1.0000
C4_2 C -0.0000 0.9174(7) 1.0000
H2_2 H -0.0000 0.8617 1.0000
C6_4 C 0.1736(8) 1.0000 1.0000
O2_2 O 0.1725(4) 0.9238(4) 1.0000
C14_2 C 0.3627(9) 0.7609(6) 1.0000
C15_2 C 0.3982(7) 0.6373(9) 1.0000
C16_2 C 0.2391(6) 0.6018(7) 1.0000
C19_2 C 0.4273(10) 0.7314(7) 1.0000
C20_2 C 0.3041(7) 0.5727(10) 1.0000
C21_2 C 0.2686(7) 0.6959(7) 1.0000
H7_2 H 0.4903 0.7747 1.0000
H8_2 H 0.2253 0.7156 1.0000
H9_2 H 0.2844 0.5097 1.0000
O6_2 O 0.3346(7) 0.8853(5) 1.0000
C55_2 C 0.3945(9) 0.8623(6) 1.0000
C56_2 C 0.1377(6) 0.5322(7) 1.0000
C57_2 C 0.4678(7) 0.6055(9) 1.0000
O22_2 O 0.4792(9) 0.9162(6) 1.0000
O23_2 O 0.0838(6) 0.5630(7) 1.0000
O24_2 O 0.4370(7) 0.5208(9) 1.0000
C11_3 C 1.0000 0.0839(8) 0.0000
C22 C 0.9174(7) 0.0000 0.0000
H11 H 0.8617 0.0000 0.0000
C35_3 C 1.0000 0.1736(8) 0.0000
C11_4 C 1.0000 0.0839(8) 1.0000
C22_2 C 0.9174(7) 0.0000 1.0000
H11_2 H 0.8617 0.0000 1.0000
C35_4 C 1.0000 0.1736(8) 1.0000
C4_3 C 1.0000 0.9174(7) 0.0000
H2_3 H 1.0000 0.8617 0.0000
C10 C 0.9161(8) 0.9161(8) 0.0000
C22_3 C 0.9174(7) 1.0000 0.0000
H11_3 H 0.8617 1.0000 0.0000
C36 C 0.8264(8) 0.8264(8) 0.0000
C4_4 C 1.0000 0.9174(7) 1.0000
H2_4 H 1.0000 0.8617 1.0000
C10_2 C 0.9161(8) 0.9161(8) 1.0000
C22_4 C 0.9174(7) 1.0000 1.0000
H11_4 H 0.8617 1.0000 1.0000
C36_2 C 0.8264(8) 0.8264(8) 1.0000
C32_2 C 0.0802(45) 0.366(3) 0.6294(15)
C34_2 C 0.0802(45) 0.366(3) 0.3706(15)
H20_2 H 0.1374 0.3928 0.5918
H22_2 H 0.1374 0.3928 0.4082
C45_2 C 0.0755(31) 0.367(2) 0.7524(15)
C47_2 C 0.0755(31) 0.367(2) 0.2476(15)
H32_2 H 0.1305 0.4011 0.2062
H33_2 H 0.1305 0.4011 0.7938
C51_2 C -0.0000(8) 0.3243(6) 0.5653(9)
C52_2 C -0.0000(8) 0.3243(6) 0.4347(9)
C31_2 C 0.9198(45) 0.2858(33) 0.6294(15)
C33_2 C 0.9198(45) 0.2858(33) 0.3706(15)
H19_2 H 0.8626 0.2554 0.5918
H21_2 H 0.8626 0.2554 0.4082
C44_2 C 0.9245(31) 0.2915(24) 0.7524(15)
C46_2 C 0.9245(31) 0.2915(24) 0.2476(15)
H30_2 H 0.8695 0.2706 0.7938
H31_2 H 0.8695 0.2706 0.2062
C51_3 C 1.0000(8) 0.3243(6) 0.5653(9)
C52_3 C 1.0000(8) 0.3243(6) 0.4347(9)
loop_
_geom_bond_atom_site_label_1
_geom_bond_atom_site_label_2
_geom_bond_site_symmetry_1
_geom_bond_site_symmetry_2
O10 Co3 1_555 1_555
N8 Co3 1_555 1_555
O18 Co3 1_555 1_555
O10_2 Co3_2 1_555 1_555
N9 Co3_2 1_555 1_555
O18_2 Co3_2 1_555 1_555
C2 C3 1_555 1_555
C3 H1 1_555 1_555
C5 H3 1_555 1_555
C6 C1 1_555 1_555
C7 C5 1_555 1_555
H4 C7 1_555 1_555
O1 C9 1_555 1_555
C8 C5 1_555 1_555
C9 C2 1_555 1_555
N1 C7 1_555 1_555
Co6 O1 1_555 1_555
O3 C9 1_555 1_555
C12 C3 1_555 1_555
C13 C17 1_555 1_555
C17 C12 1_555 1_555
C18 C2 1_555 1_555
H5 C18 1_555 1_555
H6 C17 1_555 1_555
C23 C1 1_555 1_555
H10 C23 1_555 1_555
C25 H13 1_555 1_555
C31 H19 1_555 1_555
C32 H20 1_555 1_555
C33 H21 1_555 1_555
C34 H22 1_555 1_555
C35 C11 1_555 1_555
C38 C25 1_555 1_555
C44 C31 1_555 1_555
C45 C32 1_555 1_555
C46 C33 1_555 1_555
C47 C34 1_555 1_555
H23 C38 1_555 1_555
H30 C44 1_555 1_555
H31 C46 1_555 1_555
H32 C47 1_555 1_555
H33 C45 1_555 1_555
O4 C53 1_555 1_555
O5 C54 1_555 1_555
O9 Co10 1_555 1_555
C48 C8 1_555 1_555
C51 C31 1_555 1_555
C52 C33 1_555 1_555
C53 C13 1_555 1_555
C54 C12 1_555 1_555
N2 C38 1_555 1_555
N5 C44 1_555 1_555
N6 C46 1_555 1_555
N8_2 Co3_3 1_555 1_555
O11 C6 1_555 1_555
O18 C35 1_555 1_555
O16 Co10 1_555 1_555
O17 Co10 1_555 1_555
O19 Co3_3 1_555 1_555
Co10 O4 1_555 1_555
Co3_3 O5 1_555 1_555
Co6_2 N2 1_555 1_555
Co10_2 N6 1_555 1_555
O20 C53 1_555 1_555
O21 C54 1_555 1_555
N1 Co6 1_555 1_555
Co6 O11 1_555 1_555
C11 C23 1_555 1_555
C13 C18 1_555 1_555
C25 C48 1_555 1_555
C32 C51 1_555 1_555
C34 C52 1_555 1_555
C45 N5 1_555 1_555
C47 N6 1_555 1_555
C51 C52 1_555 1_555
N5 Co10 1_555 1_555
C2_2 C3_2 1_555 1_555
C3_2 H1_2 1_555 1_555
C6_2 C1_2 1_555 1_555
O1_2 C9_2 1_555 1_555
C9_2 C2_2 1_555 1_555
Co6_2 O1_2 1_555 1_555
O3_2 C9_2 1_555 1_555
C12_2 C3_2 1_555 1_555
C13_2 C17_2 1_555 1_555
C17_2 C12_2 1_555 1_555
C18_2 C2_2 1_555 1_555
H5_2 C18_2 1_555 1_555
H6_2 C17_2 1_555 1_555
C23_2 C1_2 1_555 1_555
H10_2 C23_2 1_555 1_555
C35_2 C11_2 1_555 1_555
O4_2 C53_2 1_555 1_555
O5_2 C54_2 1_555 1_555
O9_2 Co10_2 1_555 1_555
C53_2 C13_2 1_555 1_555
C54_2 C12_2 1_555 1_555
N9_2 Co3_4 1_555 1_555
O11_2 C6_2 1_555 1_555
O18_2 C35_2 1_555 1_555
O16_2 Co10_2 1_555 1_555
O17_2 Co10_2 1_555 1_555
O19_2 Co3_4 1_555 1_555
Co10_2 O4_2 1_555 1_555
Co3_4 O5_2 1_555 1_555
O20_2 C53_2 1_555 1_555
O21_2 C54_2 1_555 1_555
Co6_2 O11_2 1_555 1_555
C11_2 C23_2 1_555 1_555
C13_2 C18_2 1_555 1_555
C1_3 C4 1_555 1_555
C4 H2 1_555 1_555
C6_3 C1_3 1_555 1_555
O2 C6_3 1_555 1_555
C14 C19 1_555 1_555
C15 C19 1_555 1_555
C16 C20 1_555 1_555
C19 H7 1_555 1_555
C20 C15 1_555 1_555
C21 C14 1_555 1_555
H8 C21 1_555 1_555
H9 C20 1_555 1_555
C24 C8_2 1_555 1_555
C26 H14 1_555 1_555
H12 C24 1_555 1_555
C37 N1_2 1_555 1_555
C39 C26 1_555 1_555
H24 C39 1_555 1_555
H25 C37 1_555 1_555
O6 Co6_3 1_555 1_555
O10 C56 1_555 1_555
O9 C57 1_555 1_555
C48_2 C8_2 1_555 1_555
C55 C14 1_555 1_555
C56 C16 1_555 1_555
C57 C15 1_555 1_555
Co6_4 N2_2 1_555 1_555
O22 C55 1_555 1_555
O23 C56 1_555 1_555
O24 C57 1_555 1_555
N1_2 Co6_3 1_555 1_555
O2 Co6_3 1_555 1_555
C16 C21 1_555 1_555
C24 C37 1_555 1_555
C26 C48_2 1_555 1_555
C39 N2_2 1_555 1_555
O6 C55 1_555 1_555
C1_4 C4_2 1_555 1_555
C4_2 H2_2 1_555 1_555
C6_4 C1_4 1_555 1_555
O2_2 C6_4 1_555 1_555
C14_2 C19_2 1_555 1_555
C15_2 C19_2 1_555 1_555
C16_2 C20_2 1_555 1_555
C19_2 H7_2 1_555 1_555
C20_2 C15_2 1_555 1_555
C21_2 C14_2 1_555 1_555
H8_2 C21_2 1_555 1_555
H9_2 C20_2 1_555 1_555
O6_2 Co6_4 1_555 1_555
O10_2 C56_2 1_555 1_555
O9_2 C57_2 1_555 1_555
C55_2 C14_2 1_555 1_555
C56_2 C16_2 1_555 1_555
C57_2 C15_2 1_555 1_555
O22_2 C55_2 1_555 1_555
O23_2 C56_2 1_555 1_555
O24_2 C57_2 1_555 1_555
O2_2 Co6_4 1_555 1_555
C16_2 C21_2 1_555 1_555
O6_2 C55_2 1_555 1_555
C11_3 C22 1_555 1_555
H11 C22 1_555 1_555
C35_3 C11_3 1_555 1_555
O19 C35_3 1_555 1_555
C11_4 C22_2 1_555 1_555
H11_2 C22_2 1_555 1_555
C35_4 C11_4 1_555 1_555
O19_2 C35_4 1_555 1_555
C4_3 H2_3 1_555 1_555
C10 C4_3 1_555 1_555
C22_3 C10 1_555 1_555
H11_3 C22_3 1_555 1_555
C36 C10 1_555 1_555
O16 C36 1_555 1_555
O17 C36 1_555 1_555
C4_4 H2_4 1_555 1_555
C10_2 C4_4 1_555 1_555
C22_4 C10_2 1_555 1_555
H11_4 C22_4 1_555 1_555
C36_2 C10_2 1_555 1_555
O16_2 C36_2 1_555 1_555
O17_2 C36_2 1_555 1_555
C32_2 H20_2 1_555 1_555
C34_2 H22_2 1_555 1_555
C45_2 C32_2 1_555 1_555
C47_2 C34_2 1_555 1_555
H32_2 C47_2 1_555 1_555
H33_2 C45_2 1_555 1_555
C32_2 C51_2 1_555 1_555
C34_2 C52_2 1_555 1_555
C45_2 N9 1_555 1_555
C47_2 N8 1_555 1_555
C51_2 C52_2 1_555 1_555
C31_2 H19_2 1_555 1_555
C33_2 H21_2 1_555 1_555
C44_2 C31_2 1_555 1_555
C46_2 C33_2 1_555 1_555
H30_2 C44_2 1_555 1_555
H31_2 C46_2 1_555 1_555
C51_3 C31_2 1_555 1_555
C52_3 C33_2 1_555 1_555
N9_2 C44_2 1_555 1_555
N8_2 C46_2 1_555 1_555
C51_3 C52_3 1_555 1_555

#END
