
###############################################################################
#
# This file contains modified crystal structure data generated from the
# MOF subset of the Cambridge Structural Database (CSD) v543 
# hosted by the Cambridge Crystallographic Data Centre (CCDC).
#
# This work is licensed under the Creative Commons
# Attribution-NonCommercial-ShareAlike 4.0 International License.
# To view a copy of this license, visit
# http://creativecommons.org/licenses/by-nc-sa/4.0/
# or send a letter to
# Creative Commons, PO Box 1866, Mountain View, CA 94042, USA.
#
# CIF created using the CSD Python API on 29 September 2022
# The structure has been converted into the P1 space group
# The structure has a 3D framework
# The original CSD entry VODQIP is in the triclinic crystal system
# The framework has been calculated to contain at least 10.0% void space
# The void calculation uses a probe of radius 1.32A, grid spacing 0.4
#
###############################################################################

data_VODQIP
_chemical_formula_moiety         '(C108 H104 N8 Nd4 O42 S6)n'
_symmetry_cell_setting           triclinic
_symmetry_space_group_name_H-M   'P 1'
_symmetry_Int_Tables_number      1
_space_group_name_Hall           'P 1'
loop_
_symmetry_equiv_pos_site_id
_symmetry_equiv_pos_as_xyz
1 x,y,z
_cell_length_a                   14.883(3)
_cell_length_b                   16.795(4)
_cell_length_c                   17.490(4)
_cell_angle_alpha                93.192(4)
_cell_angle_beta                 114.063(3)
_cell_angle_gamma                103.782(4)
_cell_volume                     3818.95
loop_
_atom_site_label
_atom_site_type_symbol
_atom_site_fract_x
_atom_site_fract_y
_atom_site_fract_z
N4 N 0.008(3) 0.734(2) 0.2353(13)
C53 C 0.001(4) 0.721(4) 0.3163(17)
H48 H 0.0170 0.7735 0.3504
H49 H 0.0487 0.6913 0.3468
C54 C 0.109(3) 0.779(4) 0.237(3)
H50 H 0.1018 0.7782 0.1802
H51 H 0.1594 0.7518 0.2676
H52 H 0.1299 0.8355 0.2652
Nd4 Nd 0.12611(4) 0.46511(3) 0.00367(3)
O24 O 0.0470(6) 0.5982(4) 0.0133(4)
C48 C 0.0772(9) 0.2685(11) 0.3364(9)
H36 H 0.0899 0.2399 0.3841
H37 H 0.0863 0.3260 0.3546
H38 H 0.1245 0.2643 0.3130
O25 O 0.0470(5) 0.0962(4) 0.5341(4)
O2 O 0.0124(6) 0.9816(6) 0.6427(4)
O11 O 0.0249(6) 0.4970(5) 0.8659(4)
H4 H 0.0107 0.9571 0.7775
H15 H 0.0297 0.4912 0.7298
Nd3 Nd 0.12450(4) 0.96545(3) 0.57907(3)
H7 H 0.9989 0.2628 0.0051
O21 O 0.7549(8) 0.5146(6) 0.0653(6)
N3 N 0.6340(17) 0.4737(15) 0.1135(13)
C49 C 0.6656(15) 0.482(3) 0.0432(15)
C50 C 0.550(4) 0.400(3) 0.106(3)
H40 H 0.5215 0.3662 0.0508
H41 H 0.4969 0.4183 0.1130
H42 H 0.5767 0.3677 0.1490
C51 C 0.686(4) 0.539(3) 0.192(2)
H43 H 0.7401 0.5803 0.1872
H44 H 0.7154 0.5135 0.2404
H45 H 0.6376 0.5640 0.1972
O22 O 0.9351(8) 0.6623(5) 0.1056(6)
C52 C 0.916(2) 0.703(3) 0.1523(16)
H46 H 0.8525 0.7125 0.1389
H47 H 0.9325 0.6886 0.3039
O26 O 0.9751(6) 0.5030(5) 0.1341(4)
Nd1 Nd 0.87550(4) 0.03455(3) 0.42093(3)
Nd2 Nd 0.87389(4) 0.53489(3) 0.99633(3)
S3 S 0.4371(2) 0.2892(2) 0.47426(19)
O5 O 0.7911(6) 0.3819(4) 0.9636(5)
O6 O 0.9530(6) 0.4018(4) 0.9867(4)
O13 O 0.8309(5) 0.1505(4) 0.4841(5)
O14 O 0.7022(5) 0.0457(5) 0.3995(5)
O15 O 0.3539(7) 0.2292(6) 0.4783(6)
O16 O 0.4921(7) 0.3640(6) 0.5373(5)
O17 O 0.1751(7) 0.3489(5) 0.0785(5)
O18 O 0.3014(6) 0.4657(6) 0.1206(5)
C8 C 0.8132(9) 0.0902(6) 0.9307(6)
C9 C 0.7309(9) 0.1212(7) 0.9118(7)
H5 H 0.6644 0.0857 0.8891
C10 C 0.7489(9) 0.2064(7) 0.9272(7)
H6 H 0.6937 0.2283 0.9152
C11 C 0.8492(8) 0.2609(6) 0.9606(6)
C12 C 0.9321(8) 0.2278(6) 0.9817(6)
C13 C 0.9141(8) 0.1416(7) 0.9674(6)
H8 H 0.9688 0.1188 0.9823
C14 C 0.8658(9) 0.3545(7) 0.9705(6)
C29 C 0.7364(8) 0.1151(6) 0.4476(6)
C30 C 0.6630(7) 0.1568(6) 0.4601(6)
C31 C 0.5652(8) 0.1127(7) 0.4405(8)
H17 H 0.5447 0.0554 0.4233
C32 C 0.4951(9) 0.1519(8) 0.4457(9)
H18 H 0.4279 0.1213 0.4316
C33 C 0.5264(8) 0.2368(7) 0.4721(6)
C34 C 0.6262(9) 0.2812(6) 0.4938(7)
H19 H 0.6477 0.3384 0.5122
C35 C 0.6946(8) 0.2407(6) 0.4884(7)
H20 H 0.7624 0.2707 0.5041
C36 C 0.3899(8) 0.3195(7) 0.3740(7)
C37 C 0.3075(9) 0.2647(8) 0.3057(8)
H21 H 0.2795 0.2116 0.3131
C38 C 0.2655(9) 0.2878(8) 0.2254(7)
H22 H 0.2091 0.2514 0.1801
C39 C 0.3115(8) 0.3681(7) 0.2154(6)
C40 C 0.3953(8) 0.4226(7) 0.2842(7)
H23 H 0.4246 0.4754 0.2772
C41 C 0.4355(8) 0.3980(7) 0.3638(7)
H24 H 0.4921 0.4340 0.4093
C42 C 0.2622(10) 0.3958(8) 0.1337(8)
O19 O 0.7686(6) 0.0018(5) 0.2632(4)
H29 H 0.7193 0.0493 0.1097
O20 O 0.9142(7) 0.1613(5) 0.3614(5)
N2 N 0.9700(9) 0.2298(8) 0.2703(6)
C46 C 0.8947(9) 0.1737(8) 0.2913(7)
H32 H 0.8297 0.1472 0.2483
C47 C 0.9418(13) 0.2450(12) 0.1809(7)
H33 H 0.9928 0.2365 0.1637
H34 H 0.9381 0.3011 0.1780
H35 H 0.8762 0.2070 0.1438
H39 H 0.6193 0.4639 0.9864
O23 O 0.9876(6) 0.0184(6) 0.3573(4)
O27 O 0.8712(6) 0.5055(5) 0.8562(4)
O28 O 0.8249(7) 0.6511(5) 0.9215(5)
O29 O 0.6986(6) 0.5343(6) 0.8794(5)
S1 S 0.7917(2) 0.98070(16) 0.90682(18)
S2 S 0.7890(2) 0.48967(14) 0.44720(14)
O1 O 0.8621(5) 0.9975(4) 0.5508(4)
O3 O 0.8659(7) 0.9546(5) 0.9779(5)
O4 O 0.6824(7) 0.9418(5) 0.8765(5)
O7 O 0.9530(5) 0.9038(4) 0.4659(4)
O8 O 0.7896(5) 0.8810(4) 0.3814(4)
O9 O 0.6800(5) 0.4502(4) 0.4049(4)
O10 O 0.8570(6) 0.4569(4) 0.4237(4)
C1 C 0.9214(9) 0.9856(7) 0.6201(6)
C2 C 0.8840(7) 0.9781(6) 0.6909(6)
C3 C 0.7894(8) 0.9875(6) 0.6760(6)
H1 H 0.7463 0.9958 0.6228
C4 C 0.7589(8) 0.9845(6) 0.7412(6)
H2 H 0.6948 0.9903 0.7318
C5 C 0.8235(8) 0.9728(6) 0.8199(6)
C6 C 0.9183(9) 0.9626(7) 0.8324(6)
H3 H 0.9621 0.9544 0.8853
C7 C 0.9475(8) 0.9647(7) 0.7687(6)
C15 C 0.8631(8) 0.8559(5) 0.4247(6)
C16 C 0.8463(7) 0.7631(6) 0.4275(5)
C17 C 0.9279(7) 0.7289(6) 0.4547(6)
H9 H 0.9940 0.7623 0.4692
C18 C 0.9109(7) 0.6448(6) 0.4603(6)
H10 H 0.9652 0.6214 0.4794
C19 C 0.8105(7) 0.5966(5) 0.4367(5)
C20 C 0.7276(8) 0.6289(7) 0.4089(6)
H11 H 0.6613 0.5958 0.3942
C21 C 0.7479(8) 0.7127(6) 0.4041(7)
H12 H 0.6935 0.7359 0.3844
C22 C 0.8304(7) 0.4931(6) 0.5583(5)
C23 C 0.7640(7) 0.4997(6) 0.5941(6)
H13 H 0.6981 0.5028 0.5607
C24 C 0.7989(8) 0.5017(6) 0.6819(6)
H14 H 0.7556 0.5057 0.7071
C25 C 0.8966(8) 0.4978(6) 0.7310(6)
C26 C 0.9632(8) 0.4926(7) 0.6960(6)
C27 C 0.9277(8) 0.4895(7) 0.6068(6)
H16 H 0.9708 0.4850 0.5814
C28 C 0.9332(9) 0.5006(6) 0.8272(6)
N1 N 0.6358(9) 0.9490(10) 0.1339(7)
C43 C 0.6829(10) 0.9610(12) 0.2271(7)
H25 H 0.6463 0.9373 0.2564
C44 C 0.5237(11) 0.9025(17) 0.0850(11)
H26 H 0.5119 0.8472 0.0978
H27 H 0.5043 0.8997 0.0252
H28 H 0.4834 0.9310 0.1008
C45 C 0.6919(14) 0.9908(13) 0.0872(10)
H30 H 0.6456 0.9826 0.0280
H31 H 0.7470 0.9676 0.0935
S1_2 S 0.2083(2) 0.01930(16) 0.09318(18)
S2_2 S 0.2110(2) 0.51033(14) 0.55280(14)
O1_2 O 0.1379(5) 0.0025(4) 0.4492(4)
O3_2 O 0.1341(7) 0.0454(5) 0.0221(5)
O4_2 O 0.3176(7) 0.0582(5) 0.1235(5)
O8_2 O 0.2104(5) 0.1190(4) 0.6186(4)
O9_2 O 0.3200(5) 0.5498(4) 0.5951(4)
O10_2 O 0.1430(6) 0.5431(4) 0.5763(4)
O12 O 0.1288(6) 0.4945(5) 0.1438(4)
C1_2 C 0.0786(9) 0.0144(7) 0.3799(6)
C2_2 C 0.1160(7) 0.0219(6) 0.3091(6)
C3_2 C 0.2106(8) 0.0125(6) 0.3240(6)
H1_2 H 0.2537 0.0042 0.3772
C4_2 C 0.2411(8) 0.0155(6) 0.2588(6)
H2_2 H 0.3052 0.0097 0.2682
C5_2 C 0.1765(8) 0.0272(6) 0.1801(6)
C6_2 C 0.0817(9) 0.0374(7) 0.1676(6)
H3_2 H 0.0379 0.0456 0.1147
C7_2 C 0.0525(8) 0.0353(7) 0.2313(6)
C15_2 C 0.1369(8) 0.1441(5) 0.5753(6)
C16_2 C 0.1537(7) 0.2369(6) 0.5725(5)
C17_2 C 0.0721(7) 0.2711(6) 0.5453(6)
H9_2 H 0.0060 0.2377 0.5308
C18_2 C 0.0891(7) 0.3552(6) 0.5397(6)
H10_2 H 0.0348 0.3786 0.5206
C19_2 C 0.1895(7) 0.4034(5) 0.5633(5)
C20_2 C 0.2724(8) 0.3711(7) 0.5911(6)
H11_2 H 0.3387 0.4042 0.6058
C21_2 C 0.2521(8) 0.2873(6) 0.5959(7)
H12_2 H 0.3065 0.2641 0.6156
C22_2 C 0.1696(7) 0.5069(6) 0.4417(5)
C23_2 C 0.2360(7) 0.5003(6) 0.4059(6)
H13_2 H 0.3019 0.4972 0.4393
C24_2 C 0.2011(8) 0.4983(6) 0.3181(6)
H14_2 H 0.2444 0.4943 0.2929
C25_2 C 0.1034(8) 0.5022(6) 0.2690(6)
C26_2 C 0.0368(8) 0.5074(7) 0.3040(6)
C27_2 C 0.0723(8) 0.5105(7) 0.3932(6)
H16_2 H 0.0292 0.5150 0.4186
C28_2 C 0.0668(9) 0.4994(6) 0.1728(6)
N1_2 N 0.3642(9) 0.0510(10) 0.8661(7)
C43_2 C 0.3171(10) 0.0390(12) 0.7729(7)
H25_2 H 0.3537 0.0627 0.7436
C44_2 C 0.4763(11) 0.0975(17) 0.9150(11)
H26_2 H 0.4881 0.1528 0.9022
H27_2 H 0.4957 0.1003 0.9748
H28_2 H 0.5166 0.0690 0.8992
C45_2 C 0.3081(14) 0.0092(13) 0.9128(10)
H30_2 H 0.3544 0.0174 0.9720
H31_2 H 0.2530 0.0324 0.9065
S3_2 S 0.5629(2) 0.7108(2) 0.52574(19)
O5_2 O 0.2089(6) 0.6181(4) 0.0364(5)
O13_2 O 0.1691(5) 0.8495(4) 0.5159(5)
O14_2 O 0.2978(5) 0.9543(5) 0.6005(5)
O15_2 O 0.6461(7) 0.7708(6) 0.5217(6)
O16_2 O 0.5079(7) 0.6360(6) 0.4627(5)
C8_2 C 0.1868(9) 0.9098(6) 0.0693(6)
C9_2 C 0.2691(9) 0.8788(7) 0.0882(7)
H5_2 H 0.3356 0.9143 0.1109
C10_2 C 0.2511(9) 0.7936(7) 0.0728(7)
H6_2 H 0.3063 0.7717 0.0848
C11_2 C 0.1508(8) 0.7391(6) 0.0394(6)
C12_2 C 0.0679(8) 0.7722(6) 0.0183(6)
C13_2 C 0.0859(8) 0.8584(7) 0.0326(6)
H8_2 H 0.0312 0.8812 0.0177
C14_2 C 0.1342(9) 0.6455(7) 0.0295(6)
C29_2 C 0.2636(8) 0.8849(6) 0.5524(6)
C30_2 C 0.3370(7) 0.8432(6) 0.5399(6)
C31_2 C 0.4348(8) 0.8873(7) 0.5595(8)
H17_2 H 0.4553 0.9446 0.5767
C32_2 C 0.5049(9) 0.8481(8) 0.5543(9)
H18_2 H 0.5721 0.8787 0.5684
C33_2 C 0.4736(8) 0.7632(7) 0.5279(6)
C34_2 C 0.3738(9) 0.7188(6) 0.5062(7)
H19_2 H 0.3523 0.6616 0.4878
C35_2 C 0.3054(8) 0.7593(6) 0.5116(7)
H20_2 H 0.2376 0.7293 0.4959
C36_2 C 0.6101(8) 0.6805(7) 0.6260(7)
C37_2 C 0.6925(9) 0.7353(8) 0.6943(8)
H21_2 H 0.7205 0.7884 0.6869
C38_2 C 0.7345(9) 0.7122(8) 0.7746(7)
H22_2 H 0.7909 0.7486 0.8199
C39_2 C 0.6885(8) 0.6319(7) 0.7846(6)
C40_2 C 0.6047(8) 0.5774(7) 0.7158(7)
H23_2 H 0.5754 0.5246 0.7228
C41_2 C 0.5645(8) 0.6020(7) 0.6362(7)
H24_2 H 0.5079 0.5660 0.5907
C42_2 C 0.7378(10) 0.6042(8) 0.8663(8)
O19_2 O 0.2314(6) 0.9982(5) 0.7368(4)
H29_2 H 0.2807 0.9507 0.8903
O20_2 O 0.0858(7) 0.8387(5) 0.6386(5)
N2_2 N 0.0300(9) 0.7702(8) 0.7297(6)
C46_2 C 0.1053(9) 0.8263(8) 0.7087(7)
H32_2 H 0.1703 0.8528 0.7517
C47_2 C 0.0582(13) 0.7550(12) 0.8191(7)
H33_2 H 0.0072 0.7635 0.8363
H34_2 H 0.0619 0.6989 0.8220
H35_2 H 0.1238 0.7930 0.8562
H39_2 H 0.3807 0.5361 0.0136
H7_2 H 0.0011 0.7372 0.9949
O21_2 O 0.2451(8) 0.4854(6) 0.9347(6)
N3_2 N 0.3660(17) 0.5263(15) 0.8865(13)
C49_2 C 0.3344(15) 0.518(3) 0.9568(15)
C50_2 C 0.450(4) 0.600(3) 0.894(3)
H40_2 H 0.4785 0.6338 0.9492
H41_2 H 0.5031 0.5817 0.8870
H42_2 H 0.4233 0.6323 0.8510
C51_2 C 0.314(4) 0.461(3) 0.808(2)
H43_2 H 0.2599 0.4197 0.8128
H44_2 H 0.2846 0.4865 0.7596
H45_2 H 0.3624 0.4360 0.8028
O22_2 O 0.0649(8) 0.3377(5) 0.8944(6)
C52_2 C 0.084(2) 0.297(3) 0.8477(16)
H46_2 H 0.1475 0.2875 0.8611
H47_2 H 0.0675 0.3114 0.6961
H4_2 H 0.9893 0.0429 0.2225
H15_2 H 0.9703 0.5088 0.2702
C48_2 C 0.9228(9) 0.7315(11) 0.6636(9)
H36_2 H 0.9101 0.7601 0.6159
H37_2 H 0.9137 0.6740 0.6454
H38_2 H 0.8755 0.7357 0.6870
N4_2 N 0.992(3) 0.266(2) 0.7647(13)
C53_2 C 0.999(4) 0.279(4) 0.6837(17)
H48_2 H 0.9830 0.2265 0.6496
H49_2 H 0.9513 0.3087 0.6532
C54_2 C 0.891(3) 0.221(4) 0.763(3)
H50_2 H 0.8982 0.2218 0.8198
H51_2 H 0.8406 0.2482 0.7324
H52_2 H 0.8701 0.1645 0.7348
loop_
_geom_bond_atom_site_label_1
_geom_bond_atom_site_label_2
_geom_bond_site_symmetry_1
_geom_bond_site_symmetry_2
C53 N4 1_555 1_555
H48 C53 1_555 1_555
H49 C53 1_555 1_555
C54 N4 1_555 1_555
H50 C54 1_555 1_555
H51 C54 1_555 1_555
H52 C54 1_555 1_555
Nd4 O24 1_555 1_555
H36 C48 1_555 1_555
H37 C48 1_555 1_555
H38 C48 1_555 1_555
Nd3 O2 1_555 1_555
N3 C49 1_555 1_555
C49 O21 1_555 1_555
C50 N3 1_555 1_555
H40 C50 1_555 1_555
H41 C50 1_555 1_555
H42 C50 1_555 1_555
C51 N3 1_555 1_555
H43 C51 1_555 1_555
H44 C51 1_555 1_555
H45 C51 1_555 1_555
C52 O22 1_555 1_555
H46 C52 1_555 1_555
Nd2 O5 1_555 1_555
S3 O15 1_555 1_555
O5 C14 1_555 1_555
O6 Nd2 1_555 1_555
O13 Nd1 1_555 1_555
O14 Nd1 1_555 1_555
O16 S3 1_555 1_555
O17 C42 1_555 1_555
O18 C42 1_555 1_555
C9 C8 1_555 1_555
H5 C9 1_555 1_555
C10 C9 1_555 1_555
H6 C10 1_555 1_555
C11 C10 1_555 1_555
C12 C11 1_555 1_555
C13 C8 1_555 1_555
H8 C13 1_555 1_555
C14 O6 1_555 1_555
C29 O13 1_555 1_555
C30 C29 1_555 1_555
C31 C30 1_555 1_555
H17 C31 1_555 1_555
C32 C31 1_555 1_555
H18 C32 1_555 1_555
C33 S3 1_555 1_555
C34 C33 1_555 1_555
H19 C34 1_555 1_555
C35 C30 1_555 1_555
H20 C35 1_555 1_555
C36 S3 1_555 1_555
C37 C36 1_555 1_555
H21 C37 1_555 1_555
C38 C37 1_555 1_555
H22 C38 1_555 1_555
C39 C38 1_555 1_555
C40 C39 1_555 1_555
H23 C40 1_555 1_555
C41 C36 1_555 1_555
H24 C41 1_555 1_555
C42 C39 1_555 1_555
O19 Nd1 1_555 1_555
O20 Nd1 1_555 1_555
N2 C46 1_555 1_555
C46 O20 1_555 1_555
H32 C46 1_555 1_555
C47 N2 1_555 1_555
H33 C47 1_555 1_555
H34 C47 1_555 1_555
H35 C47 1_555 1_555
Nd4 O17 1_555 1_555
O23 Nd1 1_555 1_555
O27 Nd2 1_555 1_555
O28 Nd2 1_555 1_555
O29 Nd2 1_555 1_555
O14 C29 1_555 1_555
O18 Nd4 1_555 1_555
C11 C14 1_555 1_555
C12 C13 1_555 1_555
C32 C33 1_555 1_555
C34 C35 1_555 1_555
C40 C41 1_555 1_555
S1 O3 1_555 1_555
S2 O9 1_555 1_555
O1 C1 1_555 1_555
O4 S1 1_555 1_555
O10 S2 1_555 1_555
O27 C28 1_555 1_555
C1 C2 1_555 1_555
C2 C3 1_555 1_555
C3 H1 1_555 1_555
C4 C3 1_555 1_555
H2 C4 1_555 1_555
C5 S1 1_555 1_555
C6 C5 1_555 1_555
H3 C6 1_555 1_555
C7 C2 1_555 1_555
C15 O7 1_555 1_555
C16 C15 1_555 1_555
C17 C16 1_555 1_555
H9 C17 1_555 1_555
C18 C17 1_555 1_555
H10 C18 1_555 1_555
C19 S2 1_555 1_555
C20 C19 1_555 1_555
H11 C20 1_555 1_555
C21 C16 1_555 1_555
H12 C21 1_555 1_555
C22 S2 1_555 1_555
C23 C22 1_555 1_555
H13 C23 1_555 1_555
C24 C23 1_555 1_555
H14 C24 1_555 1_555
C25 C24 1_555 1_555
C26 C25 1_555 1_555
C27 C22 1_555 1_555
H16 C27 1_555 1_555
C28 C25 1_555 1_555
N1 C43 1_555 1_555
H25 C43 1_555 1_555
C44 N1 1_555 1_555
H26 C44 1_555 1_555
H27 C44 1_555 1_555
H28 C44 1_555 1_555
C45 N1 1_555 1_555
H30 C45 1_555 1_555
H31 C45 1_555 1_555
O8 C15 1_555 1_555
C4 C5 1_555 1_555
C6 C7 1_555 1_555
C18 C19 1_555 1_555
C20 C21 1_555 1_555
C26 C27 1_555 1_555
S1_2 O3_2 1_555 1_555
S2_2 O9_2 1_555 1_555
O1_2 C1_2 1_555 1_555
O4_2 S1_2 1_555 1_555
O10_2 S2_2 1_555 1_555
O12 C28_2 1_555 1_555
C1_2 C2_2 1_555 1_555
C2_2 C3_2 1_555 1_555
C3_2 H1_2 1_555 1_555
C4_2 C3_2 1_555 1_555
H2_2 C4_2 1_555 1_555
C5_2 S1_2 1_555 1_555
C6_2 C5_2 1_555 1_555
H3_2 C6_2 1_555 1_555
C7_2 C2_2 1_555 1_555
C15_2 O25 1_555 1_555
C16_2 C15_2 1_555 1_555
C17_2 C16_2 1_555 1_555
H9_2 C17_2 1_555 1_555
C18_2 C17_2 1_555 1_555
H10_2 C18_2 1_555 1_555
C19_2 S2_2 1_555 1_555
C20_2 C19_2 1_555 1_555
H11_2 C20_2 1_555 1_555
C21_2 C16_2 1_555 1_555
H12_2 C21_2 1_555 1_555
C22_2 S2_2 1_555 1_555
C23_2 C22_2 1_555 1_555
H13_2 C23_2 1_555 1_555
C24_2 C23_2 1_555 1_555
H14_2 C24_2 1_555 1_555
C25_2 C24_2 1_555 1_555
C26_2 C25_2 1_555 1_555
C27_2 C22_2 1_555 1_555
H16_2 C27_2 1_555 1_555
C28_2 C25_2 1_555 1_555
N1_2 C43_2 1_555 1_555
H25_2 C43_2 1_555 1_555
C44_2 N1_2 1_555 1_555
H26_2 C44_2 1_555 1_555
H27_2 C44_2 1_555 1_555
H28_2 C44_2 1_555 1_555
C45_2 N1_2 1_555 1_555
H30_2 C45_2 1_555 1_555
H31_2 C45_2 1_555 1_555
Nd4 O12 1_555 1_555
O8_2 C15_2 1_555 1_555
C4_2 C5_2 1_555 1_555
C6_2 C7_2 1_555 1_555
C18_2 C19_2 1_555 1_555
C20_2 C21_2 1_555 1_555
C26_2 C27_2 1_555 1_555
Nd4 O5_2 1_555 1_555
S3_2 O15_2 1_555 1_555
O5_2 C14_2 1_555 1_555
O13_2 Nd3 1_555 1_555
O14_2 Nd3 1_555 1_555
O16_2 S3_2 1_555 1_555
O28 C42_2 1_555 1_555
O29 C42_2 1_555 1_555
C9_2 C8_2 1_555 1_555
H5_2 C9_2 1_555 1_555
C10_2 C9_2 1_555 1_555
H6_2 C10_2 1_555 1_555
C11_2 C10_2 1_555 1_555
C12_2 C11_2 1_555 1_555
C13_2 C8_2 1_555 1_555
H8_2 C13_2 1_555 1_555
C14_2 O24 1_555 1_555
C29_2 O13_2 1_555 1_555
C30_2 C29_2 1_555 1_555
C31_2 C30_2 1_555 1_555
H17_2 C31_2 1_555 1_555
C32_2 C31_2 1_555 1_555
H18_2 C32_2 1_555 1_555
C33_2 S3_2 1_555 1_555
C34_2 C33_2 1_555 1_555
H19_2 C34_2 1_555 1_555
C35_2 C30_2 1_555 1_555
H20_2 C35_2 1_555 1_555
C36_2 S3_2 1_555 1_555
C37_2 C36_2 1_555 1_555
H21_2 C37_2 1_555 1_555
C38_2 C37_2 1_555 1_555
H22_2 C38_2 1_555 1_555
C39_2 C38_2 1_555 1_555
C40_2 C39_2 1_555 1_555
H23_2 C40_2 1_555 1_555
C41_2 C36_2 1_555 1_555
H24_2 C41_2 1_555 1_555
C42_2 C39_2 1_555 1_555
O19_2 Nd3 1_555 1_555
O20_2 Nd3 1_555 1_555
N2_2 C46_2 1_555 1_555
C46_2 O20_2 1_555 1_555
H32_2 C46_2 1_555 1_555
C47_2 N2_2 1_555 1_555
H33_2 C47_2 1_555 1_555
H34_2 C47_2 1_555 1_555
H35_2 C47_2 1_555 1_555
O14_2 C29_2 1_555 1_555
C11_2 C14_2 1_555 1_555
C12_2 C13_2 1_555 1_555
C32_2 C33_2 1_555 1_555
C34_2 C35_2 1_555 1_555
C40_2 C41_2 1_555 1_555
N3_2 C49_2 1_555 1_555
C49_2 O21_2 1_555 1_555
C50_2 N3_2 1_555 1_555
H40_2 C50_2 1_555 1_555
H41_2 C50_2 1_555 1_555
H42_2 C50_2 1_555 1_555
C51_2 N3_2 1_555 1_555
H43_2 C51_2 1_555 1_555
H44_2 C51_2 1_555 1_555
H45_2 C51_2 1_555 1_555
C52_2 O22_2 1_555 1_555
H46_2 C52_2 1_555 1_555
H36_2 C48_2 1_555 1_555
H37_2 C48_2 1_555 1_555
H38_2 C48_2 1_555 1_555
C53_2 N4_2 1_555 1_555
H48_2 C53_2 1_555 1_555
H49_2 C53_2 1_555 1_555
C54_2 N4_2 1_555 1_555
H50_2 C54_2 1_555 1_555
H51_2 C54_2 1_555 1_555
H52_2 C54_2 1_555 1_555

#END
