
###############################################################################
#
# This file contains modified crystal structure data generated from the
# MOF subset of the Cambridge Structural Database (CSD) v543 
# hosted by the Cambridge Crystallographic Data Centre (CCDC).
#
# This work is licensed under the Creative Commons
# Attribution-NonCommercial-ShareAlike 4.0 International License.
# To view a copy of this license, visit
# http://creativecommons.org/licenses/by-nc-sa/4.0/
# or send a letter to
# Creative Commons, PO Box 1866, Mountain View, CA 94042, USA.
#
# CIF created using the CSD Python API on 29 September 2022
# The structure has been converted into the P1 space group
# The structure has a 3D framework
# The original CSD entry VOFHAC is in the monoclinic crystal system
# The framework has been calculated to contain at least 10.0% void space
# The void calculation uses a probe of radius 1.32A, grid spacing 0.4
#
###############################################################################

data_VOFHAC
_chemical_formula_moiety         '(C64 H56 N8 O32 P8 Zn4)n'
_symmetry_cell_setting           triclinic
_symmetry_space_group_name_H-M   'P 1'
_symmetry_Int_Tables_number      1
_space_group_name_Hall           'P 1'
loop_
_symmetry_equiv_pos_site_id
_symmetry_equiv_pos_as_xyz
1 x,y,z
_cell_length_a                   26.027(2)
_cell_length_b                   10.6307(9)
_cell_length_c                   9.0300(7)
_cell_angle_alpha                90
_cell_angle_beta                 95.901(8)
_cell_angle_gamma                90
_cell_volume                     2485.23
loop_
_atom_site_label
_atom_site_type_symbol
_atom_site_fract_x
_atom_site_fract_y
_atom_site_fract_z
Zn1 Zn 0.23534(2) 0.08369(3) 0.07546(3)
O10 O 0.24501(9) 0.21350(19) 0.2211(2)
C1 C 0.13915(13) 0.1692(3) 0.8911(4)
H1 H 0.147629 0.249608 0.926142
C2 C 0.09825(13) 0.1556(3) 0.7834(4)
H2 H 0.079632 0.225913 0.747818
C3 C 0.08465(12) 0.0375(3) 0.7278(3)
C6 C 0.04151(12) 0.0186(3) 0.6106(3)
C7 C 0.01907(14) 0.1186(3) 0.5296(4)
H5 H 0.031544 0.199553 0.548762
N1 N 0.16700(9) 0.0733(2) 0.9473(3)
O1 O 0.28600(8) 0.09821(19) 0.9301(2)
O2 O 0.33180(8) 0.1588(2) 0.7197(2)
H7 H 0.329272 0.157104 0.625711
O3 O 0.25499(9) 0.28650(19) 0.7789(2)
O4 O 0.24112(8) 0.07784(18) 0.6673(2)
P1 P 0.27659(3) 0.15429(7) 0.77457(8)
Zn6 Zn 0.26466(2) 0.41631(3) 0.92454(3)
O12 O 0.24112(8) 0.92216(18) 0.1673(2)
C4 C 0.11416(13) 0.9381(3) 0.7876(4)
H3 H 0.106849 0.856722 0.754084
C5 C 0.15394(13) 0.9587(3) 0.8956(3)
H4 H 0.172787 0.889940 0.934876
C8 C 0.02143(13) 0.9000(3) 0.5789(4)
H6 H 0.035590 0.831235 0.632118
Zn5 Zn 0.23534(2) 0.91631(3) 0.57546(3)
C12 C 0.88584(13) 0.0619(3) 0.2124(4)
H10 H 0.893151 0.143278 0.245916
C13 C 0.84606(13) 0.0413(3) 0.1044(3)
H11 H 0.827213 0.110060 0.065124
C16 C 0.97857(13) 0.1000(3) 0.4211(4)
H13 H 0.964410 0.168765 0.367882
Zn3 Zn 0.76466(2) 0.08369(3) 0.42454(3)
O11 O 0.75888(8) 0.07784(18) 0.8327(2)
C9 C 0.86085(13) 0.8308(3) 0.1089(4)
H8 H 0.852371 0.750392 0.073858
C10 C 0.90175(13) 0.8444(3) 0.2166(4)
H9 H 0.920368 0.774087 0.252182
C11 C 0.91535(12) 0.9625(3) 0.2722(3)
C14 C 0.95849(12) 0.9814(3) 0.3894(3)
C15 C 0.98093(14) 0.8814(3) 0.4704(4)
H12 H 0.968456 0.800447 0.451238
N2 N 0.83300(9) 0.9267(2) 0.0527(3)
O5 O 0.71400(8) 0.90179(19) 0.0699(2)
O6 O 0.66820(8) 0.8412(2) 0.2803(2)
H14 H 0.670728 0.842896 0.374289
O7 O 0.74501(9) 0.71350(19) 0.2211(2)
O8 O 0.75888(8) 0.92216(18) 0.3327(2)
P2 P 0.72341(3) 0.84571(7) 0.22543(8)
Zn4 Zn 0.73534(2) 0.58369(3) 0.07546(3)
Zn2 Zn 0.76466(2) 0.91631(3) 0.92454(3)
O9 O 0.75499(9) 0.78650(19) 0.7789(2)
C12_2 C 0.11416(13) 0.0619(3) 0.2876(4)
H10_2 H 0.106849 0.143278 0.254084
C13_2 C 0.15394(13) 0.0413(3) 0.3956(3)
H11_2 H 0.172787 0.110060 0.434876
C16_2 C 0.02143(13) 0.1000(3) 0.0789(4)
H13_2 H 0.035590 0.168765 0.132118
C9_2 C 0.13915(13) 0.8308(3) 0.3911(4)
H8_2 H 0.147629 0.750392 0.426142
C10_2 C 0.09825(13) 0.8444(3) 0.2834(4)
H9_2 H 0.079632 0.774087 0.247818
C11_2 C 0.08465(12) 0.9625(3) 0.2278(3)
C14_2 C 0.04151(12) 0.9814(3) 0.1106(3)
C15_2 C 0.01907(14) 0.8814(3) 0.0296(4)
H12_2 H 0.031544 0.800447 0.048762
N2_2 N 0.16700(9) 0.9267(2) 0.4473(3)
O5_2 O 0.28600(8) 0.90179(19) 0.4301(2)
O6_2 O 0.33180(8) 0.8412(2) 0.2197(2)
H14_2 H 0.329272 0.842896 0.125711
O7_2 O 0.25499(9) 0.71350(19) 0.2789(2)
P2_2 P 0.27659(3) 0.84571(7) 0.27457(8)
O9_2 O 0.24501(9) 0.78650(19) 0.7211(2)
Zn4_2 Zn 0.26466(2) 0.58369(3) 0.42454(3)
C1_2 C 0.86085(13) 0.1692(3) 0.6089(4)
H1_2 H 0.852371 0.249608 0.573858
C2_2 C 0.90175(13) 0.1556(3) 0.7166(4)
H2_2 H 0.920368 0.225913 0.752182
C3_2 C 0.91535(12) 0.0375(3) 0.7722(3)
C6_2 C 0.95849(12) 0.0186(3) 0.8894(3)
C7_2 C 0.98093(14) 0.1186(3) 0.9704(4)
H5_2 H 0.968456 0.199553 0.951238
N1_2 N 0.83300(9) 0.0733(2) 0.5527(3)
O1_2 O 0.71400(8) 0.09821(19) 0.5699(2)
O2_2 O 0.66820(8) 0.1588(2) 0.7803(2)
H7_2 H 0.670728 0.157104 0.874289
O3_2 O 0.74501(9) 0.28650(19) 0.7211(2)
P1_2 P 0.72341(3) 0.15429(7) 0.72543(8)
O10_2 O 0.75499(9) 0.21350(19) 0.2789(2)
Zn6_2 Zn 0.73534(2) 0.41631(3) 0.57546(3)
C4_2 C 0.88584(13) 0.9381(3) 0.7124(4)
H3_2 H 0.893151 0.856722 0.745916
C5_2 C 0.84606(13) 0.9587(3) 0.6044(3)
H4_2 H 0.827213 0.889940 0.565124
C8_2 C 0.97857(13) 0.9000(3) 0.9211(4)
H6_2 H 0.964410 0.831235 0.867882
O12_2 O 0.74112(8) 0.42216(18) 0.1673(2)
C1_3 C 0.63915(13) 0.6692(3) 0.8911(4)
H1_3 H 0.647629 0.749608 0.926142
C2_3 C 0.59825(13) 0.6556(3) 0.7834(4)
H2_3 H 0.579632 0.725913 0.747818
C3_3 C 0.58465(12) 0.5375(3) 0.7278(3)
C4_3 C 0.61416(13) 0.4381(3) 0.7876(4)
H3_3 H 0.606849 0.356722 0.754084
C5_3 C 0.65394(13) 0.4587(3) 0.8956(3)
H4_3 H 0.672787 0.389940 0.934876
C6_3 C 0.54151(12) 0.5186(3) 0.6106(3)
C7_3 C 0.51907(14) 0.6186(3) 0.5296(4)
H5_3 H 0.531544 0.699553 0.548762
C8_3 C 0.52143(13) 0.4000(3) 0.5789(4)
H6_3 H 0.535590 0.331235 0.632118
N1_3 N 0.66700(9) 0.5733(2) 0.9473(3)
O1_3 O 0.78600(8) 0.59821(19) 0.9301(2)
O2_3 O 0.83180(8) 0.6588(2) 0.7197(2)
H7_3 H 0.829272 0.657104 0.625711
O4_2 O 0.74112(8) 0.57784(18) 0.6673(2)
P1_3 P 0.77659(3) 0.65429(7) 0.77457(8)
C9_3 C 0.36085(13) 0.3308(3) 0.1089(4)
H8_3 H 0.352371 0.250392 0.073858
C10_3 C 0.40175(13) 0.3444(3) 0.2166(4)
H9_3 H 0.420368 0.274087 0.252182
C11_3 C 0.41535(12) 0.4625(3) 0.2722(3)
C12_3 C 0.38584(13) 0.5619(3) 0.2124(4)
H10_3 H 0.393151 0.643278 0.245916
C13_3 C 0.34606(13) 0.5413(3) 0.1044(3)
H11_3 H 0.327213 0.610060 0.065124
C14_3 C 0.45849(12) 0.4814(3) 0.3894(3)
C15_3 C 0.48093(14) 0.3814(3) 0.4704(4)
H12_3 H 0.468456 0.300447 0.451238
C16_3 C 0.47857(13) 0.6000(3) 0.4211(4)
H13_3 H 0.464410 0.668765 0.367882
N2_3 N 0.33300(9) 0.4267(2) 0.0527(3)
O5_3 O 0.21400(8) 0.40179(19) 0.0699(2)
O6_3 O 0.16820(8) 0.3412(2) 0.2803(2)
H14_3 H 0.170728 0.342896 0.374289
O8_2 O 0.25888(8) 0.42216(18) 0.3327(2)
P2_3 P 0.22341(3) 0.34571(7) 0.22543(8)
O11_2 O 0.25888(8) 0.57784(18) 0.8327(2)
C9_4 C 0.63915(13) 0.3308(3) 0.3911(4)
H8_4 H 0.647629 0.250392 0.426142
C10_4 C 0.59825(13) 0.3444(3) 0.2834(4)
H9_4 H 0.579632 0.274087 0.247818
C11_4 C 0.58465(12) 0.4625(3) 0.2278(3)
C12_4 C 0.61416(13) 0.5619(3) 0.2876(4)
H10_4 H 0.606849 0.643278 0.254084
C13_4 C 0.65394(13) 0.5413(3) 0.3956(3)
H11_4 H 0.672787 0.610060 0.434876
C14_4 C 0.54151(12) 0.4814(3) 0.1106(3)
C15_4 C 0.51907(14) 0.3814(3) 0.0296(4)
H12_4 H 0.531544 0.300447 0.048762
C16_4 C 0.52143(13) 0.6000(3) 0.0789(4)
H13_4 H 0.535590 0.668765 0.132118
N2_4 N 0.66700(9) 0.4267(2) 0.4473(3)
O5_4 O 0.78600(8) 0.40179(19) 0.4301(2)
O6_4 O 0.83180(8) 0.3412(2) 0.2197(2)
H14_4 H 0.829272 0.342896 0.125711
P2_4 P 0.77659(3) 0.34571(7) 0.27457(8)
C1_4 C 0.36085(13) 0.6692(3) 0.6089(4)
H1_4 H 0.352371 0.749608 0.573858
C2_4 C 0.40175(13) 0.6556(3) 0.7166(4)
H2_4 H 0.420368 0.725913 0.752182
C3_4 C 0.41535(12) 0.5375(3) 0.7722(3)
C4_4 C 0.38584(13) 0.4381(3) 0.7124(4)
H3_4 H 0.393151 0.356722 0.745916
C5_4 C 0.34606(13) 0.4587(3) 0.6044(3)
H4_4 H 0.327213 0.389940 0.565124
C6_4 C 0.45849(12) 0.5186(3) 0.8894(3)
C7_4 C 0.48093(14) 0.6186(3) 0.9704(4)
H5_4 H 0.468456 0.699553 0.951238
C8_4 C 0.47857(13) 0.4000(3) 0.9211(4)
H6_4 H 0.464410 0.331235 0.867882
N1_4 N 0.33300(9) 0.5733(2) 0.5527(3)
O1_4 O 0.21400(8) 0.59821(19) 0.5699(2)
O2_4 O 0.16820(8) 0.6588(2) 0.7803(2)
H7_4 H 0.170728 0.657104 0.874289
P1_4 P 0.22341(3) 0.65429(7) 0.72543(8)
loop_
_geom_bond_atom_site_label_1
_geom_bond_atom_site_label_2
_geom_bond_site_symmetry_1
_geom_bond_site_symmetry_2
O10 Zn1 1_555 1_555
C1 H1 1_555 1_555
C2 C1 1_555 1_555
H2 C2 1_555 1_555
C3 C2 1_555 1_555
C6 C3 1_555 1_555
C7 C6 1_555 1_555
H5 C7 1_555 1_555
N1 C1 1_555 1_555
O1 P1 1_555 1_555
O2 H7 1_555 1_555
O3 P1 1_555 1_555
O4 P1 1_555 1_555
P1 O2 1_555 1_555
Zn6 O3 1_555 1_555
H3 C4 1_555 1_555
C5 C4 1_555 1_555
H4 C5 1_555 1_555
H6 C8 1_555 1_555
H10 C12 1_555 1_555
C13 C12 1_555 1_555
H11 C13 1_555 1_555
H13 C16 1_555 1_555
C9 H8 1_555 1_555
C10 C9 1_555 1_555
H9 C10 1_555 1_555
C11 C10 1_555 1_555
C14 C11 1_555 1_555
H12 C15 1_555 1_555
N2 C9 1_555 1_555
O5 P2 1_555 1_555
O6 H14 1_555 1_555
O7 P2 1_555 1_555
O8 P2 1_555 1_555
P2 O6 1_555 1_555
Zn4 O7 1_555 1_555
C14 C15 1_555 1_555
O9 Zn2 1_555 1_555
H10_2 C12_2 1_555 1_555
C13_2 C12_2 1_555 1_555
H11_2 C13_2 1_555 1_555
H13_2 C16_2 1_555 1_555
C9_2 H8_2 1_555 1_555
C10_2 C9_2 1_555 1_555
H9_2 C10_2 1_555 1_555
C11_2 C10_2 1_555 1_555
C14_2 C11_2 1_555 1_555
H12_2 C15_2 1_555 1_555
N2_2 C9_2 1_555 1_555
O5_2 P2_2 1_555 1_555
O6_2 H14_2 1_555 1_555
O7_2 P2_2 1_555 1_555
O12 P2_2 1_555 1_555
P2_2 O6_2 1_555 1_555
Zn5 N2_2 1_555 1_555
O9_2 Zn5 1_555 1_555
Zn4_2 O7_2 1_555 1_555
C14_2 C15_2 1_555 1_555
O5_2 Zn5 1_555 1_555
C1_2 H1_2 1_555 1_555
C2_2 C1_2 1_555 1_555
H2_2 C2_2 1_555 1_555
C3_2 C2_2 1_555 1_555
C6_2 C3_2 1_555 1_555
C7_2 C6_2 1_555 1_555
H5_2 C7_2 1_555 1_555
N1_2 C1_2 1_555 1_555
O1_2 P1_2 1_555 1_555
O2_2 H7_2 1_555 1_555
O3_2 P1_2 1_555 1_555
O11 P1_2 1_555 1_555
P1_2 O2_2 1_555 1_555
Zn3 N1_2 1_555 1_555
O10_2 Zn3 1_555 1_555
Zn6_2 O3_2 1_555 1_555
O1_2 Zn3 1_555 1_555
H3_2 C4_2 1_555 1_555
C5_2 C4_2 1_555 1_555
H4_2 C5_2 1_555 1_555
H6_2 C8_2 1_555 1_555
O12_2 Zn4 1_555 1_555
C1_3 H1_3 1_555 1_555
C2_3 C1_3 1_555 1_555
H2_3 C2_3 1_555 1_555
C3_3 C2_3 1_555 1_555
C4_3 C3_3 1_555 1_555
H3_3 C4_3 1_555 1_555
C5_3 C4_3 1_555 1_555
H4_3 C5_3 1_555 1_555
C6_3 C3_3 1_555 1_555
C7_3 C6_3 1_555 1_555
H5_3 C7_3 1_555 1_555
C8_3 C6_3 1_555 1_555
H6_3 C8_3 1_555 1_555
N1_3 C1_3 1_555 1_555
O1_3 P1_3 1_555 1_555
O2_3 H7_3 1_555 1_555
O9 P1_3 1_555 1_555
O4_2 P1_3 1_555 1_555
P1_3 O2_3 1_555 1_555
C9_3 H8_3 1_555 1_555
C10_3 C9_3 1_555 1_555
H9_3 C10_3 1_555 1_555
C11_3 C10_3 1_555 1_555
C12_3 C11_3 1_555 1_555
H10_3 C12_3 1_555 1_555
C13_3 C12_3 1_555 1_555
H11_3 C13_3 1_555 1_555
C14_3 C11_3 1_555 1_555
C15_3 C8_3 1_555 1_555
H12_3 C15_3 1_555 1_555
C16_3 C7_3 1_555 1_555
H13_3 C16_3 1_555 1_555
N2_3 C9_3 1_555 1_555
O5_3 P2_3 1_555 1_555
O6_3 H14_3 1_555 1_555
O10 P2_3 1_555 1_555
O8_2 P2_3 1_555 1_555
P2_3 O6_3 1_555 1_555
Zn4_2 O8_2 1_555 1_555
Zn6_2 O4_2 1_555 1_555
C5_3 N1_3 1_555 1_555
C13_3 N2_3 1_555 1_555
C14_3 C15_3 1_555 1_555
C14_3 C16_3 1_555 1_555
O11_2 Zn6 1_555 1_555
C9_4 H8_4 1_555 1_555
C10_4 C9_4 1_555 1_555
H9_4 C10_4 1_555 1_555
C11_4 C10_4 1_555 1_555
C12_4 C11_4 1_555 1_555
H10_4 C12_4 1_555 1_555
C13_4 C12_4 1_555 1_555
H11_4 C13_4 1_555 1_555
C14_4 C11_4 1_555 1_555
H12_4 C15_4 1_555 1_555
H13_4 C16_4 1_555 1_555
N2_4 C9_4 1_555 1_555
O5_4 P2_4 1_555 1_555
O6_4 H14_4 1_555 1_555
O10_2 P2_4 1_555 1_555
O12_2 P2_4 1_555 1_555
P2_4 O6_4 1_555 1_555
Zn6_2 N2_4 1_555 1_555
C13_4 N2_4 1_555 1_555
C14_4 C15_4 1_555 1_555
C14_4 C16_4 1_555 1_555
O5_4 Zn6_2 1_555 1_555
C1_4 H1_4 1_555 1_555
C2_4 C1_4 1_555 1_555
H2_4 C2_4 1_555 1_555
C3_4 C2_4 1_555 1_555
C4_4 C3_4 1_555 1_555
H3_4 C4_4 1_555 1_555
C5_4 C4_4 1_555 1_555
H4_4 C5_4 1_555 1_555
C6_4 C3_4 1_555 1_555
C7_4 C6_4 1_555 1_555
H5_4 C7_4 1_555 1_555
C8_4 C6_4 1_555 1_555
H6_4 C8_4 1_555 1_555
N1_4 C1_4 1_555 1_555
O1_4 P1_4 1_555 1_555
O2_4 H7_4 1_555 1_555
O9_2 P1_4 1_555 1_555
O11_2 P1_4 1_555 1_555
P1_4 O2_4 1_555 1_555
Zn4_2 N1_4 1_555 1_555
C5_4 N1_4 1_555 1_555
O1_4 Zn4_2 1_555 1_555

#END
