
###############################################################################
#
# This file contains modified crystal structure data generated from the
# MOF subset of the Cambridge Structural Database (CSD) v543 
# hosted by the Cambridge Crystallographic Data Centre (CCDC).
#
# This work is licensed under the Creative Commons
# Attribution-NonCommercial-ShareAlike 4.0 International License.
# To view a copy of this license, visit
# http://creativecommons.org/licenses/by-nc-sa/4.0/
# or send a letter to
# Creative Commons, PO Box 1866, Mountain View, CA 94042, USA.
#
# CIF created using the CSD Python API on 29 September 2022
# The structure has been converted into the P1 space group
# The structure has a 3D framework
# The original CSD entry VOFXEW is in the monoclinic crystal system
# The framework has been calculated to contain at least 10.0% void space
# The void calculation uses a probe of radius 1.32A, grid spacing 0.4
#
###############################################################################

data_VOFXEW
_chemical_formula_moiety         '(C136 H104 N24 O38 Pb8)n'
_symmetry_cell_setting           triclinic
_symmetry_space_group_name_H-M   'P 1'
_symmetry_Int_Tables_number      1
_space_group_name_Hall           'P 1'
loop_
_symmetry_equiv_pos_site_id
_symmetry_equiv_pos_as_xyz
1 x,y,z
_cell_length_a                   25.380(5)
_cell_length_b                   7.6287(13)
_cell_length_c                   21.209(4)
_cell_angle_alpha                90
_cell_angle_beta                 115.063(3)
_cell_angle_gamma                90
_cell_volume                     3719.76
loop_
_atom_site_label
_atom_site_type_symbol
_atom_site_fract_x
_atom_site_fract_y
_atom_site_fract_z
Pb2 Pb 0.73297(2) 0.01681(2) 0.03227(2)
O3 O 0.6934(2) 0.0236(5) 0.8991(2)
Pb1 Pb 0.26703(2) 0.01681(2) 0.46773(2)
O1 O 0.36583(16) 0.0668(5) 0.4957(2)
O2 O 0.68624(16) 0.7730(5) 0.94849(19)
N1 N 0.65392(18) 0.3799(5) 0.6349(2)
O4 O 0.33209(16) 0.3245(5) 0.5108(2)
N2 N 0.6777(2) 0.2691(6) 0.6902(3)
C1 C 0.3733(2) 0.2253(7) 0.5155(3)
C2 C 0.6087(2) 0.5105(6) 0.6296(3)
H1 H 0.6082 0.6015 0.5954
C3 C 0.6246(2) 0.6033(6) 0.6985(3)
C4 C 0.6577(2) 0.8629(7) 0.7685(3)
H2 H 0.6696 0.9821 0.7731
C5 C 0.4345(2) 0.2978(7) 0.5456(3)
N3 N 0.70778(18) 0.2019(6) 0.6077(2)
C6 C 0.6716(2) 0.3382(7) 0.5866(3)
H3 H 0.6602 0.3966 0.5432
C7 C 0.6793(2) 0.8625(7) 0.8952(3)
C8 C 0.5482(2) 0.4275(7) 0.6004(3)
C9 C 0.6557(2) 0.7757(7) 0.8248(3)
C10 C 0.6207(3) 0.5180(6) 0.7544(3)
H4 H 0.6068 0.4007 0.7492
C11 C 0.6368(2) 0.6029(7) 0.8175(3)
H5 H 0.6349 0.5431 0.8558
C12 C 0.5020(2) 0.5325(7) 0.5967(3)
H6 H 0.5093 0.6500 0.6130
C13 C 0.4458(2) 0.4686(7) 0.5698(3)
H7 H 0.4149 0.5418 0.5678
C14 C 0.5367(2) 0.2567(7) 0.5757(3)
H8 H 0.5676 0.1835 0.5774
C15 C 0.7102(2) 0.1666(7) 0.6705(3)
H9 H 0.7335 0.0749 0.6990
C16 C 0.6424(2) 0.7765(7) 0.7052(3)
H10 H 0.6441 0.8364 0.6669
C17 C 0.4806(2) 0.1933(7) 0.5485(3)
H11 H 0.4732 0.0764 0.5316
O5 O 0.2463(2) 0.2356(6) 0.3482(2)
H12 H 0.2757 0.1711 0.3561
H13 H 0.2215 0.2217 0.3064
Pb4 Pb 0.76703(2) 0.48319(2) 0.96773(2)
O8 O 0.3066(2) 0.0236(5) 0.6009(2)
Pb3 Pb 0.73297(2) 0.98319(2) 0.53227(2)
O6 O 0.31376(16) 0.7730(5) 0.55151(19)
O7 O 0.18624(16) 0.7270(5) 0.44849(19)
N4 N 0.29222(18) 0.7981(6) 0.3923(2)
O1_2 O 0.63417(16) 0.0668(5) 0.0043(2)
O5_2 O 0.7537(2) 0.2356(6) 0.1518(2)
H12_2 H 0.7243 0.1711 0.1439
H13_2 H 0.7785 0.2217 0.1936
N1_2 N 0.34608(18) 0.3799(5) 0.8651(2)
O4_2 O 0.66791(16) 0.3245(5) 0.9892(2)
N2_2 N 0.3223(2) 0.2691(6) 0.8098(3)
C1_2 C 0.6267(2) 0.2253(7) 0.9845(3)
C2_2 C 0.3913(2) 0.5105(6) 0.8704(3)
H1_2 H 0.3918 0.6015 0.9046
C3_2 C 0.3754(2) 0.6033(6) 0.8015(3)
C4_2 C 0.3423(2) 0.8629(7) 0.7315(3)
H2_2 H 0.3304 0.9821 0.7269
C5_2 C 0.5655(2) 0.2978(7) 0.9544(3)
N3_2 N 0.29222(18) 0.2019(6) 0.8923(2)
C6_2 C 0.3284(2) 0.3382(7) 0.9134(3)
H3_2 H 0.3398 0.3966 0.9568
C7_2 C 0.3207(2) 0.8625(7) 0.6048(3)
C8_2 C 0.4518(2) 0.4275(7) 0.8996(3)
C9_2 C 0.3443(2) 0.7757(7) 0.6752(3)
C10_2 C 0.3793(3) 0.5180(6) 0.7456(3)
H4_2 H 0.3932 0.4007 0.7508
C11_2 C 0.3632(2) 0.6029(7) 0.6825(3)
H5_2 H 0.3651 0.5431 0.6442
C12_2 C 0.4980(2) 0.5325(7) 0.9033(3)
H6_2 H 0.4907 0.6500 0.8870
C13_2 C 0.5542(2) 0.4686(7) 0.9302(3)
H7_2 H 0.5851 0.5418 0.9322
C14_2 C 0.4633(2) 0.2567(7) 0.9243(3)
H8_2 H 0.4324 0.1835 0.9226
C15_2 C 0.2898(2) 0.1666(7) 0.8295(3)
H9_2 H 0.2665 0.0749 0.8010
C16_2 C 0.3576(2) 0.7765(7) 0.7948(3)
H10_2 H 0.3559 0.8364 0.8331
C17_2 C 0.5194(2) 0.1933(7) 0.9515(3)
H11_2 H 0.5268 0.0764 0.9684
Pb4_2 Pb 0.23297(2) 0.48319(2) 0.53227(2)
O7_2 O 0.81376(16) 0.7270(5) 0.05151(19)
N4_2 N 0.70778(18) 0.7981(6) 0.1077(2)
Pb3_2 Pb 0.26703(2) 0.98319(2) 0.96773(2)
Pb2_2 Pb 0.23297(2) 0.51681(2) 0.03227(2)
O2_2 O 0.18624(16) 0.2730(5) 0.94849(19)
O3_2 O 0.1934(2) 0.5236(5) 0.8991(2)
C2_3 C 0.1087(2) 0.0105(6) 0.6296(3)
H1_3 H 0.1082 0.1015 0.5954
C3_3 C 0.1246(2) 0.1033(6) 0.6985(3)
C4_3 C 0.1577(2) 0.3629(7) 0.7685(3)
H2_3 H 0.1696 0.4821 0.7731
C7_3 C 0.1793(2) 0.3625(7) 0.8952(3)
C9_3 C 0.1557(2) 0.2757(7) 0.8248(3)
C10_3 C 0.1207(3) 0.0180(6) 0.7544(3)
C11_3 C 0.1368(2) 0.1029(7) 0.8175(3)
H5_3 H 0.1349 0.0431 0.8558
C12_3 C 0.0020(2) 0.0325(7) 0.5967(3)
H6_3 H 0.0093 0.1500 0.6130
C16_3 C 0.1424(2) 0.2765(7) 0.7052(3)
H10_3 H 0.1441 0.3364 0.6669
N1_3 N 0.15392(18) 0.8799(5) 0.6349(2)
N2_3 N 0.1777(2) 0.7691(6) 0.6902(3)
N3_3 N 0.20778(18) 0.7019(6) 0.6077(2)
C6_3 C 0.1716(2) 0.8382(7) 0.5866(3)
H3_3 H 0.1602 0.8966 0.5432
C8_3 C 0.0482(2) 0.9275(7) 0.6004(3)
H4_3 H 0.1068 0.9007 0.7492
C14_3 C 0.0367(2) 0.7567(7) 0.5757(3)
H8_3 H 0.0676 0.6835 0.5774
C15_3 C 0.2102(2) 0.6666(7) 0.6705(3)
H9_3 H 0.2335 0.5749 0.6990
Pb1_2 Pb 0.76703(2) 0.51681(2) 0.46773(2)
O1_3 O 0.86583(16) 0.5668(5) 0.4957(2)
O4_3 O 0.83209(16) 0.8245(5) 0.5108(2)
C1_3 C 0.8733(2) 0.7253(7) 0.5155(3)
C5_3 C 0.9345(2) 0.7978(7) 0.5456(3)
C13_3 C 0.9458(2) 0.9686(7) 0.5698(3)
C17_3 C 0.9806(2) 0.6933(7) 0.5485(3)
H11_3 H 0.9732 0.5764 0.5316
O5_3 O 0.7463(2) 0.7356(6) 0.3482(2)
H12_3 H 0.7757 0.6711 0.3561
H13_3 H 0.7215 0.7217 0.3064
O6_2 O 0.81376(16) 0.2730(5) 0.55151(19)
O7_3 O 0.68624(16) 0.2270(5) 0.44849(19)
O8_2 O 0.8066(2) 0.5236(5) 0.6009(2)
N4_3 N 0.79222(18) 0.2981(6) 0.3923(2)
O1_4 O 0.13417(16) 0.5668(5) 0.0043(2)
O5_4 O 0.2537(2) 0.7356(6) 0.1518(2)
H12_4 H 0.2243 0.6711 0.1439
H13_4 H 0.2785 0.7217 0.1936
O7_4 O 0.31376(16) 0.2270(5) 0.05151(19)
N4_4 N 0.20778(18) 0.2981(6) 0.1077(2)
O4_4 O 0.16791(16) 0.8245(5) 0.9892(2)
C1_4 C 0.1267(2) 0.7253(7) 0.9845(3)
C5_4 C 0.0655(2) 0.7978(7) 0.9544(3)
C13_4 C 0.0542(2) 0.9686(7) 0.9302(3)
C17_4 C 0.0194(2) 0.6933(7) 0.9515(3)
H11_4 H 0.0268 0.5764 0.9684
C2_4 C 0.8913(2) 0.0105(6) 0.8704(3)
H1_4 H 0.8918 0.1015 0.9046
C3_4 C 0.8754(2) 0.1033(6) 0.8015(3)
C4_4 C 0.8423(2) 0.3629(7) 0.7315(3)
H2_4 H 0.8304 0.4821 0.7269
C7_4 C 0.8207(2) 0.3625(7) 0.6048(3)
C9_4 C 0.8443(2) 0.2757(7) 0.6752(3)
C10_4 C 0.8793(3) 0.0180(6) 0.7456(3)
C11_4 C 0.8632(2) 0.1029(7) 0.6825(3)
H5_4 H 0.8651 0.0431 0.6442
C12_4 C 0.9980(2) 0.0325(7) 0.9033(3)
H6_4 H 0.9907 0.1500 0.8870
C16_4 C 0.8576(2) 0.2765(7) 0.7948(3)
H10_4 H 0.8559 0.3364 0.8331
N1_4 N 0.84608(18) 0.8799(5) 0.8651(2)
N2_4 N 0.8223(2) 0.7691(6) 0.8098(3)
N3_4 N 0.79222(18) 0.7019(6) 0.8923(2)
C6_4 C 0.8284(2) 0.8382(7) 0.9134(3)
H3_4 H 0.8398 0.8966 0.9568
C8_4 C 0.9518(2) 0.9275(7) 0.8996(3)
H4_4 H 0.8932 0.9007 0.7508
C14_4 C 0.9633(2) 0.7567(7) 0.9243(3)
H8_4 H 0.9324 0.6835 0.9226
C15_4 C 0.7898(2) 0.6666(7) 0.8295(3)
H9_4 H 0.7665 0.5749 0.8010
O1_5 O 0.63417(16) 0.9332(5) 0.5043(2)
N1_5 N 0.34608(18) 0.6201(5) 0.3651(2)
O4_5 O 0.66791(16) 0.6755(5) 0.4892(2)
N2_5 N 0.3223(2) 0.7309(6) 0.3098(3)
C1_5 C 0.6267(2) 0.7747(7) 0.4845(3)
C2_5 C 0.3913(2) 0.4895(6) 0.3704(3)
H1_5 H 0.3918 0.3985 0.4046
C3_5 C 0.3754(2) 0.3967(6) 0.3015(3)
C4_5 C 0.3423(2) 0.1371(7) 0.2315(3)
H2_5 H 0.3304 0.0179 0.2269
C5_5 C 0.5655(2) 0.7022(7) 0.4544(3)
C6_5 C 0.3284(2) 0.6618(7) 0.4134(3)
H3_5 H 0.3398 0.6034 0.4568
C7_5 C 0.3207(2) 0.1375(7) 0.1048(3)
C8_5 C 0.4518(2) 0.5725(7) 0.3996(3)
C9_5 C 0.3443(2) 0.2243(7) 0.1752(3)
C10_5 C 0.3793(3) 0.4820(6) 0.2456(3)
H4_5 H 0.3932 0.5993 0.2508
C11_5 C 0.3632(2) 0.3971(7) 0.1825(3)
H5_5 H 0.3651 0.4569 0.1442
C12_5 C 0.4980(2) 0.4675(7) 0.4033(3)
H6_5 H 0.4907 0.3500 0.3870
C13_5 C 0.5542(2) 0.5314(7) 0.4302(3)
H7_3 H 0.5851 0.4582 0.4322
C14_5 C 0.4633(2) 0.7433(7) 0.4243(3)
H8_5 H 0.4324 0.8165 0.4226
C15_5 C 0.2898(2) 0.8334(7) 0.3295(3)
H9_5 H 0.2665 0.9251 0.3010
C16_5 C 0.3576(2) 0.2235(7) 0.2948(3)
H10_5 H 0.3559 0.1636 0.3331
C17_5 C 0.5194(2) 0.8067(7) 0.4515(3)
H11_5 H 0.5268 0.9236 0.4684
O5_5 O 0.7537(2) 0.7644(6) 0.6518(2)
H12_5 H 0.7243 0.8289 0.6439
H13_5 H 0.7785 0.7783 0.6936
O8_3 O 0.6934(2) 0.9764(5) 0.3991(2)
O3_3 O 0.3066(2) 0.9764(5) 0.1009(2)
N1_6 N 0.65392(18) 0.6201(5) 0.1349(2)
O4_6 O 0.33209(16) 0.6755(5) 0.0108(2)
N2_6 N 0.6777(2) 0.7309(6) 0.1902(3)
C1_6 C 0.3733(2) 0.7747(7) 0.0155(3)
C2_6 C 0.6087(2) 0.4895(6) 0.1296(3)
H1_6 H 0.6082 0.3985 0.0954
C3_6 C 0.6246(2) 0.3967(6) 0.1985(3)
C4_6 C 0.6577(2) 0.1371(7) 0.2685(3)
H2_6 H 0.6696 0.0179 0.2731
C5_6 C 0.4345(2) 0.7022(7) 0.0456(3)
C6_6 C 0.6716(2) 0.6618(7) 0.0866(3)
H3_6 H 0.6602 0.6034 0.0432
C7_6 C 0.6793(2) 0.1375(7) 0.3952(3)
C8_6 C 0.5482(2) 0.5725(7) 0.1004(3)
C9_6 C 0.6557(2) 0.2243(7) 0.3248(3)
C10_6 C 0.6207(3) 0.4820(6) 0.2544(3)
H4_6 H 0.6068 0.5993 0.2492
C11_6 C 0.6368(2) 0.3971(7) 0.3175(3)
H5_6 H 0.6349 0.4569 0.3558
C12_6 C 0.5020(2) 0.4675(7) 0.0967(3)
H6_6 H 0.5093 0.3500 0.1130
C13_6 C 0.4458(2) 0.5314(7) 0.0698(3)
H7_4 H 0.4149 0.4582 0.0678
C14_6 C 0.5367(2) 0.7433(7) 0.0757(3)
H8_6 H 0.5676 0.8165 0.0774
C15_6 C 0.7102(2) 0.8334(7) 0.1705(3)
H9_6 H 0.7335 0.9251 0.1990
C16_6 C 0.6424(2) 0.2235(7) 0.2052(3)
H10_6 H 0.6441 0.1636 0.1669
C17_6 C 0.4806(2) 0.8067(7) 0.0485(3)
H11_6 H 0.4732 0.9236 0.0316
O1_6 O 0.36583(16) 0.9332(5) 0.9957(2)
O5_6 O 0.2463(2) 0.7644(6) 0.8482(2)
H12_6 H 0.2757 0.8289 0.8561
H13_6 H 0.2215 0.7783 0.8064
O1_7 O 0.13417(16) 0.4332(5) 0.5043(2)
O4_7 O 0.16791(16) 0.1755(5) 0.4892(2)
C1_7 C 0.1267(2) 0.2747(7) 0.4845(3)
C5_7 C 0.0655(2) 0.2022(7) 0.4544(3)
C13_7 C 0.0542(2) 0.0314(7) 0.4302(3)
C17_7 C 0.0194(2) 0.3067(7) 0.4515(3)
H11_7 H 0.0268 0.4236 0.4684
O5_7 O 0.2537(2) 0.2644(6) 0.6518(2)
H12_7 H 0.2243 0.3289 0.6439
H13_7 H 0.2785 0.2783 0.6936
O8_4 O 0.1934(2) 0.4764(5) 0.3991(2)
N1_7 N 0.84608(18) 0.1201(5) 0.3651(2)
N2_7 N 0.8223(2) 0.2309(6) 0.3098(3)
C6_7 C 0.8284(2) 0.1618(7) 0.4134(3)
H3_7 H 0.8398 0.1034 0.4568
C8_7 C 0.9518(2) 0.0725(7) 0.3996(3)
H4_7 H 0.8932 0.0993 0.2508
C14_7 C 0.9633(2) 0.2433(7) 0.4243(3)
H8_7 H 0.9324 0.3165 0.4226
C15_7 C 0.7898(2) 0.3334(7) 0.3295(3)
H9_7 H 0.7665 0.4251 0.3010
O3_4 O 0.8066(2) 0.4764(5) 0.1009(2)
C2_7 C 0.8913(2) 0.9895(6) 0.3704(3)
H1_7 H 0.8918 0.8985 0.4046
C3_7 C 0.8754(2) 0.8967(6) 0.3015(3)
C4_7 C 0.8423(2) 0.6371(7) 0.2315(3)
H2_7 H 0.8304 0.5179 0.2269
C7_7 C 0.8207(2) 0.6375(7) 0.1048(3)
C9_7 C 0.8443(2) 0.7243(7) 0.1752(3)
C10_7 C 0.8793(3) 0.9820(6) 0.2456(3)
C11_7 C 0.8632(2) 0.8971(7) 0.1825(3)
H5_7 H 0.8651 0.9569 0.1442
C12_7 C 0.9980(2) 0.9675(7) 0.4033(3)
H6_7 H 0.9907 0.8500 0.3870
C16_7 C 0.8576(2) 0.7235(7) 0.2948(3)
H10_7 H 0.8559 0.6636 0.3331
N1_8 N 0.15392(18) 0.1201(5) 0.1349(2)
N2_8 N 0.1777(2) 0.2309(6) 0.1902(3)
C6_8 C 0.1716(2) 0.1618(7) 0.0866(3)
H3_8 H 0.1602 0.1034 0.0432
C8_8 C 0.0482(2) 0.0725(7) 0.1004(3)
H4_8 H 0.1068 0.0993 0.2492
C14_8 C 0.0367(2) 0.2433(7) 0.0757(3)
H8_8 H 0.0676 0.3165 0.0774
C15_8 C 0.2102(2) 0.3334(7) 0.1705(3)
H9_8 H 0.2335 0.4251 0.1990
C2_8 C 0.1087(2) 0.9895(6) 0.1296(3)
H1_8 H 0.1082 0.8985 0.0954
C3_8 C 0.1246(2) 0.8967(6) 0.1985(3)
C4_8 C 0.1577(2) 0.6371(7) 0.2685(3)
H2_8 H 0.1696 0.5179 0.2731
C7_8 C 0.1793(2) 0.6375(7) 0.3952(3)
C9_8 C 0.1557(2) 0.7243(7) 0.3248(3)
C10_8 C 0.1207(3) 0.9820(6) 0.2544(3)
C11_8 C 0.1368(2) 0.8971(7) 0.3175(3)
H5_8 H 0.1349 0.9569 0.3558
C12_8 C 0.0020(2) 0.9675(7) 0.0967(3)
H6_8 H 0.0093 0.8500 0.1130
C16_8 C 0.1424(2) 0.7235(7) 0.2052(3)
H10_8 H 0.1441 0.6636 0.1669
O4_8 O 0.83209(16) 0.1755(5) 0.0108(2)
C1_8 C 0.8733(2) 0.2747(7) 0.0155(3)
C5_8 C 0.9345(2) 0.2022(7) 0.0456(3)
C13_8 C 0.9458(2) 0.0314(7) 0.0698(3)
C17_8 C 0.9806(2) 0.3067(7) 0.0485(3)
H11_8 H 0.9732 0.4236 0.0316
O1_8 O 0.86583(16) 0.4332(5) 0.9957(2)
O5_8 O 0.7463(2) 0.2644(6) 0.8482(2)
H12_8 H 0.7757 0.3289 0.8561
H13_8 H 0.7215 0.2783 0.8064
H7_5 H 0.9149 0.0418 0.5678
H7_6 H 0.0851 0.0418 0.9322
H7_7 H 0.0851 0.9582 0.4322
H7_8 H 0.9149 0.9582 0.0678
loop_
_geom_bond_atom_site_label_1
_geom_bond_atom_site_label_2
_geom_bond_site_symmetry_1
_geom_bond_site_symmetry_2
Pb1 O1 1_555 1_555
O1 C1 1_555 1_555
O2 C7 1_555 1_555
N1 N2 1_555 1_555
O4 Pb1 1_555 1_555
N2 C15 1_555 1_555
C1 O4 1_555 1_555
C2 N1 1_555 1_555
H1 C2 1_555 1_555
C3 C2 1_555 1_555
C4 H2 1_555 1_555
C5 C1 1_555 1_555
N3 C6 1_555 1_555
C6 N1 1_555 1_555
H3 C6 1_555 1_555
C7 C9 1_555 1_555
C8 C2 1_555 1_555
C9 C4 1_555 1_555
C10 C3 1_555 1_555
H4 C10 1_555 1_555
C11 C9 1_555 1_555
H5 C11 1_555 1_555
C12 C8 1_555 1_555
H6 C12 1_555 1_555
C13 C5 1_555 1_555
H7 C13 1_555 1_555
C14 C8 1_555 1_555
H8 C14 1_555 1_555
C15 N3 1_555 1_555
H9 C15 1_555 1_555
C16 C3 1_555 1_555
H10 C16 1_555 1_555
C17 C5 1_555 1_555
H11 C17 1_555 1_555
O5 Pb1 1_555 1_555
H12 O5 1_555 1_555
H13 O5 1_555 1_555
Pb4 O2 1_555 1_555
O8 Pb1 1_555 1_555
C4 C16 1_555 1_555
C10 C11 1_555 1_555
C12 C13 1_555 1_555
C14 C17 1_555 1_555
Pb2 O1_2 1_555 1_555
O5_2 Pb2 1_555 1_555
H12_2 O5_2 1_555 1_555
H13_2 O5_2 1_555 1_555
O6 C7_2 1_555 1_555
N1_2 N2_2 1_555 1_555
N2_2 C15_2 1_555 1_555
C1_2 O4_2 1_555 1_555
C2_2 N1_2 1_555 1_555
H1_2 C2_2 1_555 1_555
C3_2 C2_2 1_555 1_555
C4_2 H2_2 1_555 1_555
C5_2 C1_2 1_555 1_555
N3_2 C6_2 1_555 1_555
C6_2 N1_2 1_555 1_555
H3_2 C6_2 1_555 1_555
C7_2 C9_2 1_555 1_555
C8_2 C2_2 1_555 1_555
C9_2 C4_2 1_555 1_555
C10_2 C3_2 1_555 1_555
H4_2 C10_2 1_555 1_555
C11_2 C9_2 1_555 1_555
H5_2 C11_2 1_555 1_555
C12_2 C8_2 1_555 1_555
H6_2 C12_2 1_555 1_555
C13_2 C5_2 1_555 1_555
H7_2 C13_2 1_555 1_555
C14_2 C8_2 1_555 1_555
H8_2 C14_2 1_555 1_555
C15_2 N3_2 1_555 1_555
H9_2 C15_2 1_555 1_555
C16_2 C3_2 1_555 1_555
H10_2 C16_2 1_555 1_555
C17_2 C5_2 1_555 1_555
H11_2 C17_2 1_555 1_555
Pb4_2 O6 1_555 1_555
C4_2 C16_2 1_555 1_555
C10_2 C11_2 1_555 1_555
C12_2 C13_2 1_555 1_555
C14_2 C17_2 1_555 1_555
O2_2 C7_3 1_555 1_555
O3_2 C7_3 1_555 1_555
H1_3 C2_3 1_555 1_555
C3_3 C2_3 1_555 1_555
C4_3 H2_3 1_555 1_555
C7_3 C9_3 1_555 1_555
C9_3 C4_3 1_555 1_555
C10_3 C3_3 1_555 1_555
C11_3 C9_3 1_555 1_555
H5_3 C11_3 1_555 1_555
H6_3 C12_3 1_555 1_555
C16_3 C3_3 1_555 1_555
H10_3 C16_3 1_555 1_555
C4_3 C16_3 1_555 1_555
C10_3 C11_3 1_555 1_555
N1_3 N2_3 1_555 1_555
N2_3 C15_3 1_555 1_555
N3_3 C6_3 1_555 1_555
C6_3 N1_3 1_555 1_555
H3_3 C6_3 1_555 1_555
C14_3 C8_3 1_555 1_555
H8_3 C14_3 1_555 1_555
C15_3 N3_3 1_555 1_555
H9_3 C15_3 1_555 1_555
Pb4_2 N3_3 1_555 1_555
Pb1_2 O1_3 1_555 1_555
O1_3 C1_3 1_555 1_555
O4_3 Pb1_2 1_555 1_555
C1_3 O4_3 1_555 1_555
C5_3 C1_3 1_555 1_555
C13_3 C5_3 1_555 1_555
C17_3 C5_3 1_555 1_555
H11_3 C17_3 1_555 1_555
O5_3 Pb1_2 1_555 1_555
H12_3 O5_3 1_555 1_555
H13_3 O5_3 1_555 1_555
O6_2 Pb1_2 1_555 1_555
O7_3 Pb1_2 1_555 1_555
O8_2 Pb1_2 1_555 1_555
N4_3 Pb1_2 1_555 1_555
Pb2_2 O1_4 1_555 1_555
O5_4 Pb2_2 1_555 1_555
H12_4 O5_4 1_555 1_555
H13_4 O5_4 1_555 1_555
O7_4 Pb2_2 1_555 1_555
N4_4 Pb2_2 1_555 1_555
C1_4 O4_4 1_555 1_555
C5_4 C1_4 1_555 1_555
C13_4 C5_4 1_555 1_555
C17_4 C5_4 1_555 1_555
H11_4 C17_4 1_555 1_555
O6_2 C7_4 1_555 1_555
O8_2 C7_4 1_555 1_555
H1_4 C2_4 1_555 1_555
C3_4 C2_4 1_555 1_555
C4_4 H2_4 1_555 1_555
C7_4 C9_4 1_555 1_555
C9_4 C4_4 1_555 1_555
C10_4 C3_4 1_555 1_555
C11_4 C9_4 1_555 1_555
H5_4 C11_4 1_555 1_555
H6_4 C12_4 1_555 1_555
C16_4 C3_4 1_555 1_555
H10_4 C16_4 1_555 1_555
C4_4 C16_4 1_555 1_555
C10_4 C11_4 1_555 1_555
N1_4 N2_4 1_555 1_555
N2_4 C15_4 1_555 1_555
N3_4 C6_4 1_555 1_555
C6_4 N1_4 1_555 1_555
H3_4 C6_4 1_555 1_555
C14_4 C8_4 1_555 1_555
H8_4 C14_4 1_555 1_555
C15_4 N3_4 1_555 1_555
H9_4 C15_4 1_555 1_555
Pb4 N3_4 1_555 1_555
Pb3 O1_5 1_555 1_555
O1_5 C1_5 1_555 1_555
O7_4 C7_5 1_555 1_555
N1_5 N2_5 1_555 1_555
O4_5 Pb3 1_555 1_555
N2_5 C15_5 1_555 1_555
C1_5 O4_5 1_555 1_555
C2_5 N1_5 1_555 1_555
H1_5 C2_5 1_555 1_555
C3_5 C2_5 1_555 1_555
C4_5 H2_5 1_555 1_555
C5_5 C1_5 1_555 1_555
N4 C6_5 1_555 1_555
C6_5 N1_5 1_555 1_555
H3_5 C6_5 1_555 1_555
C7_5 C9_5 1_555 1_555
C8_5 C2_5 1_555 1_555
C9_5 C4_5 1_555 1_555
C10_5 C3_5 1_555 1_555
H4_5 C10_5 1_555 1_555
C11_5 C9_5 1_555 1_555
H5_5 C11_5 1_555 1_555
C12_5 C8_5 1_555 1_555
H6_5 C12_5 1_555 1_555
C13_5 C5_5 1_555 1_555
H7_3 C13_5 1_555 1_555
C14_5 C8_5 1_555 1_555
H8_5 C14_5 1_555 1_555
C15_5 N4 1_555 1_555
H9_5 C15_5 1_555 1_555
C16_5 C3_5 1_555 1_555
H10_5 C16_5 1_555 1_555
C17_5 C5_5 1_555 1_555
H11_5 C17_5 1_555 1_555
O5_5 Pb3 1_555 1_555
H12_5 O5_5 1_555 1_555
H13_5 O5_5 1_555 1_555
O8_3 Pb3 1_555 1_555
C4_5 C16_5 1_555 1_555
C10_5 C11_5 1_555 1_555
C12_5 C13_5 1_555 1_555
C14_5 C17_5 1_555 1_555
O7_3 C7_6 1_555 1_555
N1_6 N2_6 1_555 1_555
N2_6 C15_6 1_555 1_555
C1_6 O4_6 1_555 1_555
C2_6 N1_6 1_555 1_555
H1_6 C2_6 1_555 1_555
C3_6 C2_6 1_555 1_555
C4_6 H2_6 1_555 1_555
C5_6 C1_6 1_555 1_555
N4_2 C6_6 1_555 1_555
C6_6 N1_6 1_555 1_555
H3_6 C6_6 1_555 1_555
C7_6 C9_6 1_555 1_555
C8_6 C2_6 1_555 1_555
C9_6 C4_6 1_555 1_555
C10_6 C3_6 1_555 1_555
H4_6 C10_6 1_555 1_555
C11_6 C9_6 1_555 1_555
H5_6 C11_6 1_555 1_555
C12_6 C8_6 1_555 1_555
H6_6 C12_6 1_555 1_555
C13_6 C5_6 1_555 1_555
H7_4 C13_6 1_555 1_555
C14_6 C8_6 1_555 1_555
H8_6 C14_6 1_555 1_555
C15_6 N4_2 1_555 1_555
H9_6 C15_6 1_555 1_555
C16_6 C3_6 1_555 1_555
H10_6 C16_6 1_555 1_555
C17_6 C5_6 1_555 1_555
H11_6 C17_6 1_555 1_555
C4_6 C16_6 1_555 1_555
C10_6 C11_6 1_555 1_555
C12_6 C13_6 1_555 1_555
C14_6 C17_6 1_555 1_555
Pb3_2 O1_6 1_555 1_555
O5_6 Pb3_2 1_555 1_555
H12_6 O5_6 1_555 1_555
H13_6 O5_6 1_555 1_555
Pb4_2 O1_7 1_555 1_555
O1_7 C1_7 1_555 1_555
O4_7 Pb4_2 1_555 1_555
C1_7 O4_7 1_555 1_555
C5_7 C1_7 1_555 1_555
C13_7 C5_7 1_555 1_555
C17_7 C5_7 1_555 1_555
H11_7 C17_7 1_555 1_555
O5_7 Pb4_2 1_555 1_555
H12_7 O5_7 1_555 1_555
H13_7 O5_7 1_555 1_555
O7 Pb4_2 1_555 1_555
O8_4 Pb4_2 1_555 1_555
N1_7 N2_7 1_555 1_555
N2_7 C15_7 1_555 1_555
N4_3 C6_7 1_555 1_555
C6_7 N1_7 1_555 1_555
H3_7 C6_7 1_555 1_555
C14_7 C8_7 1_555 1_555
H8_7 C14_7 1_555 1_555
C15_7 N4_3 1_555 1_555
H9_7 C15_7 1_555 1_555
O7_2 C7_7 1_555 1_555
O3_4 C7_7 1_555 1_555
H1_7 C2_7 1_555 1_555
C3_7 C2_7 1_555 1_555
C4_7 H2_7 1_555 1_555
C7_7 C9_7 1_555 1_555
C9_7 C4_7 1_555 1_555
C10_7 C3_7 1_555 1_555
C11_7 C9_7 1_555 1_555
H5_7 C11_7 1_555 1_555
H6_7 C12_7 1_555 1_555
C16_7 C3_7 1_555 1_555
H10_7 C16_7 1_555 1_555
C4_7 C16_7 1_555 1_555
C10_7 C11_7 1_555 1_555
N1_8 N2_8 1_555 1_555
N2_8 C15_8 1_555 1_555
N4_4 C6_8 1_555 1_555
C6_8 N1_8 1_555 1_555
H3_8 C6_8 1_555 1_555
C14_8 C8_8 1_555 1_555
H8_8 C14_8 1_555 1_555
C15_8 N4_4 1_555 1_555
H9_8 C15_8 1_555 1_555
O7 C7_8 1_555 1_555
O8_4 C7_8 1_555 1_555
H1_8 C2_8 1_555 1_555
C3_8 C2_8 1_555 1_555
C4_8 H2_8 1_555 1_555
C7_8 C9_8 1_555 1_555
C9_8 C4_8 1_555 1_555
C10_8 C3_8 1_555 1_555
C11_8 C9_8 1_555 1_555
H5_8 C11_8 1_555 1_555
H6_8 C12_8 1_555 1_555
C16_8 C3_8 1_555 1_555
H10_8 C16_8 1_555 1_555
C4_8 C16_8 1_555 1_555
C10_8 C11_8 1_555 1_555
C1_8 O4_8 1_555 1_555
C5_8 C1_8 1_555 1_555
C13_8 C5_8 1_555 1_555
C17_8 C5_8 1_555 1_555
H11_8 C17_8 1_555 1_555
Pb4 O1_8 1_555 1_555
O5_8 Pb4 1_555 1_555
H12_8 O5_8 1_555 1_555
H13_8 O5_8 1_555 1_555

#END
