
###############################################################################
#
# This file contains modified crystal structure data generated from the
# MOF subset of the Cambridge Structural Database (CSD) v543 
# hosted by the Cambridge Crystallographic Data Centre (CCDC).
#
# This work is licensed under the Creative Commons
# Attribution-NonCommercial-ShareAlike 4.0 International License.
# To view a copy of this license, visit
# http://creativecommons.org/licenses/by-nc-sa/4.0/
# or send a letter to
# Creative Commons, PO Box 1866, Mountain View, CA 94042, USA.
#
# CIF created using the CSD Python API on 29 September 2022
# The structure has been converted into the P1 space group
# The structure has a 3D framework
# The original CSD entry VOFXEW01 is in the monoclinic crystal system
# The framework has been calculated to contain at least 10.0% void space
# The void calculation uses a probe of radius 1.32A, grid spacing 0.4
# H atom positions have been added when not included in the experimental data
#
###############################################################################

data_VOFXEW01
_chemical_formula_moiety         '(C136 H104 N24 O34 Pb8)n'
_symmetry_cell_setting           triclinic
_symmetry_space_group_name_H-M   'P 1'
_symmetry_Int_Tables_number      1
_space_group_name_Hall           'P 1'
loop_
_symmetry_equiv_pos_site_id
_symmetry_equiv_pos_as_xyz
1 x,y,z
_cell_length_a                   25.182(4)
_cell_length_b                   7.5625(11)
_cell_length_c                   21.189(3)
_cell_angle_alpha                90
_cell_angle_beta                 114.029(2)
_cell_angle_gamma                90
_cell_volume                     3685.52
loop_
_atom_site_label
_atom_site_type_symbol
_atom_site_fract_x
_atom_site_fract_y
_atom_site_fract_z
Pb4 Pb 0.732352(5) 0.016961(15) 0.032349(6)
O3 O 0.69230(13) 0.0234(3) 0.90061(13)
N1 N 0.70841(12) 0.2034(4) 0.60927(15)
C1 C 0.60873(14) 0.5109(4) 0.63198(17)
H1 H 0.6089 0.6013 0.5989
N2 N 0.67815(15) 0.2699(4) 0.69198(16)
C2 C 0.50151(16) 0.5357(5) 0.59484(19)
H2 H 0.5080 0.6534 0.6086
N3 N 0.65408(12) 0.3814(4) 0.63731(14)
C3 C 0.67282(15) 0.3395(5) 0.58920(18)
H3 H 0.6623 0.3979 0.5472
C4 C 0.71058(17) 0.1676(5) 0.67238(19)
H4 H 0.7333 0.0771 0.7000
C5 C 0.54822(15) 0.4277(5) 0.60259(17)
C6 C 0.44508(15) 0.4704(5) 0.56684(19)
H5 H 0.4142 0.5441 0.5625
C7 C 0.43446(15) 0.2957(5) 0.54523(17)
C8 C 0.53757(16) 0.2537(5) 0.5815(2)
H6 H 0.5685 0.1795 0.5864
C9 C 0.48107(16) 0.1881(5) 0.5531(2)
H7 H 0.4746 0.0704 0.5393
C10 C 0.37310(15) 0.2258(5) 0.51363(18)
O1 O 0.36626(11) 0.0688(4) 0.49193(15)
O2 O 0.33207(11) 0.3239(4) 0.51010(14)
C11 C 0.61889(15) 0.5178(5) 0.75575(18)
H8 H 0.6054 0.4020 0.7506
C12 C 0.62301(14) 0.6047(5) 0.70066(17)
C13 C 0.63500(15) 0.6035(5) 0.81922(18)
H9 H 0.6331 0.5437 0.8566
C14 C 0.63939(17) 0.7803(5) 0.70708(18)
H10 H 0.6404 0.8408 0.6694
C15 C 0.65426(17) 0.8663(5) 0.76951(18)
H11 H 0.6648 0.9850 0.7735
C16 C 0.65359(15) 0.7759(5) 0.82648(17)
O4 O 0.68486(11) 0.7722(3) 0.94926(12)
C17 C 0.67772(15) 0.8634(5) 0.89643(17)
Pb2 Pb 0.767648(5) 0.483039(15) 0.967651(6)
Pb3 Pb 0.267648(5) 0.016961(15) 0.467651(6)
O9 O 0.81514(11) 0.2722(3) 0.55074(12)
O10 O 0.68486(11) 0.2278(3) 0.44926(12)
Pb1 Pb 0.732352(5) 0.983039(15) 0.532349(6)
O5 O 0.75323(14) 0.7631(4) 0.65178(15)
O6 O 0.63374(11) 0.9312(4) 0.50807(15)
O7 O 0.66793(11) 0.6761(4) 0.48990(14)
O8 O 0.69230(13) 0.9766(3) 0.40061(13)
H12 H 0.716933 0.753186 0.659342
H13 H 0.765694 0.643594 0.643884
O3_2 O 0.30770(13) 0.0234(3) 0.59939(13)
O1_2 O 0.63374(11) 0.0688(4) 0.00807(15)
O10_2 O 0.31514(11) 0.2278(3) 0.05074(12)
N1_2 N 0.29159(12) 0.2034(4) 0.89073(15)
C1_2 C 0.39127(14) 0.5109(4) 0.86802(17)
H1_2 H 0.3911 0.6013 0.9011
N2_2 N 0.32185(15) 0.2699(4) 0.80802(16)
C2_2 C 0.49849(16) 0.5357(5) 0.90516(19)
H2_2 H 0.4920 0.6534 0.8914
N3_2 N 0.34592(12) 0.3814(4) 0.86269(14)
C3_2 C 0.32718(15) 0.3395(5) 0.91080(18)
H3_2 H 0.3377 0.3979 0.9528
C4_2 C 0.28942(17) 0.1676(5) 0.82762(19)
H4_2 H 0.2667 0.0771 0.8000
C5_2 C 0.45178(15) 0.4277(5) 0.89741(17)
C6_2 C 0.55492(15) 0.4704(5) 0.93316(19)
H5_2 H 0.5858 0.5441 0.9375
C7_2 C 0.56554(15) 0.2957(5) 0.95477(17)
C8_2 C 0.46243(16) 0.2537(5) 0.9185(2)
H6_2 H 0.4315 0.1795 0.9136
C9_2 C 0.51893(16) 0.1881(5) 0.9469(2)
H7_2 H 0.5254 0.0704 0.9607
C10_2 C 0.62690(15) 0.2258(5) 0.98637(18)
O2_2 O 0.66793(11) 0.3239(4) 0.98990(14)
C11_2 C 0.38111(15) 0.5178(5) 0.74425(18)
H8_2 H 0.3946 0.4020 0.7494
C12_2 C 0.37699(14) 0.6047(5) 0.79934(17)
C13_2 C 0.36500(15) 0.6035(5) 0.68078(18)
H9_2 H 0.3669 0.5437 0.6434
C14_2 C 0.36061(17) 0.7803(5) 0.79292(18)
H10_2 H 0.3596 0.8408 0.8306
C15_2 C 0.34574(17) 0.8663(5) 0.73049(18)
H11_2 H 0.3352 0.9850 0.7265
C16_2 C 0.34641(15) 0.7759(5) 0.67352(17)
O4_2 O 0.31514(11) 0.7722(3) 0.55074(12)
C17_2 C 0.32228(15) 0.8634(5) 0.60357(17)
Pb2_2 Pb 0.232352(5) 0.483039(15) 0.532349(6)
O9_2 O 0.18486(11) 0.2722(3) 0.94926(12)
O7_2 O 0.33207(11) 0.6761(4) 0.01010(14)
O8_2 O 0.30770(13) 0.9766(3) 0.09939(13)
Pb1_2 Pb 0.267648(5) 0.983039(15) 0.967651(6)
O5_2 O 0.24677(14) 0.7631(4) 0.84822(15)
O6_2 O 0.36626(11) 0.9312(4) 0.99193(15)
H12_2 H 0.283067 0.753186 0.840658
H13_2 H 0.234306 0.643594 0.856116
Pb4_2 Pb 0.232352(5) 0.516961(15) 0.032349(6)
C1_3 C 0.10873(14) 0.0109(4) 0.63198(17)
H1_3 H 0.1089 0.1013 0.5989
C2_3 C 0.00151(16) 0.0357(5) 0.59484(19)
H2_3 H 0.0080 0.1534 0.6086
C11_3 C 0.11889(15) 0.0178(5) 0.75575(18)
C12_3 C 0.12301(14) 0.1047(5) 0.70066(17)
C13_3 C 0.13500(15) 0.1035(5) 0.81922(18)
H9_3 H 0.1331 0.0437 0.8566
C14_3 C 0.13939(17) 0.2803(5) 0.70708(18)
H10_3 H 0.1404 0.3408 0.6694
C15_3 C 0.15426(17) 0.3663(5) 0.76951(18)
H11_3 H 0.1648 0.4850 0.7735
C16_3 C 0.15359(15) 0.2759(5) 0.82648(17)
O3_3 O 0.19230(13) 0.5234(3) 0.90061(13)
C17_3 C 0.17772(15) 0.3634(5) 0.89643(17)
N1_3 N 0.20841(12) 0.7034(4) 0.60927(15)
N2_3 N 0.17815(15) 0.7699(4) 0.69198(16)
N3_3 N 0.15408(12) 0.8814(4) 0.63731(14)
C3_3 C 0.17282(15) 0.8395(5) 0.58920(18)
H3_3 H 0.1623 0.8979 0.5472
C4_3 C 0.21058(17) 0.6676(5) 0.67238(19)
H4_3 H 0.2333 0.5771 0.7000
C5_3 C 0.04822(15) 0.9277(5) 0.60259(17)
C8_3 C 0.03757(16) 0.7537(5) 0.5815(2)
H6_3 H 0.0685 0.6795 0.5864
H8_3 H 0.1054 0.9020 0.7506
O5_3 O 0.25323(14) 0.2631(4) 0.65178(15)
O6_3 O 0.13374(11) 0.4312(4) 0.50807(15)
O7_3 O 0.16793(11) 0.1761(4) 0.48990(14)
O8_3 O 0.19230(13) 0.4766(3) 0.40061(13)
O10_3 O 0.18486(11) 0.7278(3) 0.44926(12)
H12_3 H 0.216933 0.253186 0.659342
H13_3 H 0.265694 0.143594 0.643884
C6_3 C 0.94508(15) 0.9704(5) 0.56684(19)
C7_3 C 0.93446(15) 0.7957(5) 0.54523(17)
C9_3 C 0.98107(16) 0.6881(5) 0.5531(2)
H7_3 H 0.9746 0.5704 0.5393
C10_3 C 0.87310(15) 0.7258(5) 0.51363(18)
O1_3 O 0.86626(11) 0.5688(4) 0.49193(15)
O2_3 O 0.83207(11) 0.8239(4) 0.51010(14)
Pb3_2 Pb 0.767648(5) 0.516961(15) 0.467651(6)
O1_4 O 0.13374(11) 0.5688(4) 0.00807(15)
C6_4 C 0.05492(15) 0.9704(5) 0.93316(19)
C7_4 C 0.06554(15) 0.7957(5) 0.95477(17)
C9_4 C 0.01893(16) 0.6881(5) 0.9469(2)
H7_4 H 0.0254 0.5704 0.9607
C10_4 C 0.12690(15) 0.7258(5) 0.98637(18)
O2_4 O 0.16793(11) 0.8239(4) 0.98990(14)
C1_4 C 0.89127(14) 0.0109(4) 0.86802(17)
H1_4 H 0.8911 0.1013 0.9011
C2_4 C 0.99849(16) 0.0357(5) 0.90516(19)
H2_4 H 0.9920 0.1534 0.8914
C11_4 C 0.88111(15) 0.0178(5) 0.74425(18)
C12_4 C 0.87699(14) 0.1047(5) 0.79934(17)
C13_4 C 0.86500(15) 0.1035(5) 0.68078(18)
H9_4 H 0.8669 0.0437 0.6434
C14_4 C 0.86061(17) 0.2803(5) 0.79292(18)
H10_4 H 0.8596 0.3408 0.8306
C15_4 C 0.84574(17) 0.3663(5) 0.73049(18)
H11_4 H 0.8352 0.4850 0.7265
C16_4 C 0.84641(15) 0.2759(5) 0.67352(17)
O3_4 O 0.80770(13) 0.5234(3) 0.59939(13)
C17_4 C 0.82228(15) 0.3634(5) 0.60357(17)
O7_4 O 0.83207(11) 0.1761(4) 0.01010(14)
O8_4 O 0.80770(13) 0.4766(3) 0.09939(13)
O10_4 O 0.81514(11) 0.7278(3) 0.05074(12)
N1_4 N 0.79159(12) 0.7034(4) 0.89073(15)
N2_4 N 0.82185(15) 0.7699(4) 0.80802(16)
N3_4 N 0.84592(12) 0.8814(4) 0.86269(14)
C3_4 C 0.82718(15) 0.8395(5) 0.91080(18)
H3_4 H 0.8377 0.8979 0.9528
C4_4 C 0.78942(17) 0.6676(5) 0.82762(19)
H4_4 H 0.7667 0.5771 0.8000
C5_4 C 0.95178(15) 0.9277(5) 0.89741(17)
C8_4 C 0.96243(16) 0.7537(5) 0.9185(2)
H6_4 H 0.9315 0.6795 0.9136
H8_4 H 0.8946 0.9020 0.7494
O5_4 O 0.74677(14) 0.2631(4) 0.84822(15)
O6_4 O 0.86626(11) 0.4312(4) 0.99193(15)
H12_4 H 0.783067 0.253186 0.840658
H13_4 H 0.734306 0.143594 0.856116
O5_5 O 0.24677(14) 0.2369(4) 0.34822(15)
H12_5 H 0.283067 0.246814 0.340658
H13_5 H 0.234306 0.356406 0.356116
N1_5 N 0.29159(12) 0.7966(4) 0.39073(15)
C1_5 C 0.39127(14) 0.4891(4) 0.36802(17)
H1_5 H 0.3911 0.3987 0.4011
N2_5 N 0.32185(15) 0.7301(4) 0.30802(16)
C2_5 C 0.49849(16) 0.4643(5) 0.40516(19)
H2_5 H 0.4920 0.3466 0.3914
N3_5 N 0.34592(12) 0.6186(4) 0.36269(14)
C3_5 C 0.32718(15) 0.6605(5) 0.41080(18)
H3_5 H 0.3377 0.6021 0.4528
C4_5 C 0.28942(17) 0.8324(5) 0.32762(19)
H4_5 H 0.2667 0.9229 0.3000
C5_5 C 0.45178(15) 0.5723(5) 0.39741(17)
C6_5 C 0.55492(15) 0.5296(5) 0.43316(19)
H5_3 H 0.5858 0.4559 0.4375
C7_5 C 0.56554(15) 0.7043(5) 0.45477(17)
C8_5 C 0.46243(16) 0.7463(5) 0.4185(2)
H6_5 H 0.4315 0.8205 0.4136
C9_5 C 0.51893(16) 0.8119(5) 0.4469(2)
H7_5 H 0.5254 0.9296 0.4607
C10_5 C 0.62690(15) 0.7742(5) 0.48637(18)
C11_5 C 0.38111(15) 0.4822(5) 0.24425(18)
H8_5 H 0.3946 0.5980 0.2494
C12_5 C 0.37699(14) 0.3953(5) 0.29934(17)
C13_5 C 0.36500(15) 0.3965(5) 0.18078(18)
H9_5 H 0.3669 0.4563 0.1434
C14_5 C 0.36061(17) 0.2197(5) 0.29292(18)
H10_5 H 0.3596 0.1592 0.3306
C15_5 C 0.34574(17) 0.1337(5) 0.23049(18)
H11_5 H 0.3352 0.0150 0.2265
C16_5 C 0.34641(15) 0.2241(5) 0.17352(17)
C17_5 C 0.32228(15) 0.1366(5) 0.10357(17)
O5_6 O 0.75323(14) 0.2369(4) 0.15178(15)
H12_6 H 0.716933 0.246814 0.159342
H13_6 H 0.765694 0.356406 0.143884
N1_6 N 0.70841(12) 0.7966(4) 0.10927(15)
C1_6 C 0.60873(14) 0.4891(4) 0.13198(17)
H1_6 H 0.6089 0.3987 0.0989
N2_6 N 0.67815(15) 0.7301(4) 0.19198(16)
C2_6 C 0.50151(16) 0.4643(5) 0.09484(19)
H2_6 H 0.5080 0.3466 0.1086
N3_6 N 0.65408(12) 0.6186(4) 0.13731(14)
C3_6 C 0.67282(15) 0.6605(5) 0.08920(18)
H3_6 H 0.6623 0.6021 0.0472
C4_6 C 0.71058(17) 0.8324(5) 0.17238(19)
H4_6 H 0.7333 0.9229 0.2000
C5_6 C 0.54822(15) 0.5723(5) 0.10259(17)
C6_6 C 0.44508(15) 0.5296(5) 0.06684(19)
H5_4 H 0.4142 0.4559 0.0625
C7_6 C 0.43446(15) 0.7043(5) 0.04523(17)
C8_6 C 0.53757(16) 0.7463(5) 0.0815(2)
H6_6 H 0.5685 0.8205 0.0864
C9_6 C 0.48107(16) 0.8119(5) 0.0531(2)
H7_6 H 0.4746 0.9296 0.0393
C10_6 C 0.37310(15) 0.7742(5) 0.01363(18)
C11_6 C 0.61889(15) 0.4822(5) 0.25575(18)
H8_6 H 0.6054 0.5980 0.2506
C12_6 C 0.62301(14) 0.3953(5) 0.20066(17)
C13_6 C 0.63500(15) 0.3965(5) 0.31922(18)
H9_6 H 0.6331 0.4563 0.3566
C14_6 C 0.63939(17) 0.2197(5) 0.20708(18)
H10_6 H 0.6404 0.1592 0.1694
C15_6 C 0.65426(17) 0.1337(5) 0.26951(18)
H11_6 H 0.6648 0.0150 0.2735
C16_6 C 0.65359(15) 0.2241(5) 0.32648(17)
C17_6 C 0.67772(15) 0.1366(5) 0.39643(17)
C6_7 C 0.05492(15) 0.0296(5) 0.43316(19)
C7_7 C 0.06554(15) 0.2043(5) 0.45477(17)
C9_7 C 0.01893(16) 0.3119(5) 0.4469(2)
H7_7 H 0.0254 0.4296 0.4607
C10_7 C 0.12690(15) 0.2742(5) 0.48637(18)
N1_7 N 0.79159(12) 0.2966(4) 0.39073(15)
N2_7 N 0.82185(15) 0.2301(4) 0.30802(16)
N3_7 N 0.84592(12) 0.1186(4) 0.36269(14)
C3_7 C 0.82718(15) 0.1605(5) 0.41080(18)
H3_7 H 0.8377 0.1021 0.4528
C4_7 C 0.78942(17) 0.3324(5) 0.32762(19)
H4_7 H 0.7667 0.4229 0.3000
C5_7 C 0.95178(15) 0.0723(5) 0.39741(17)
C8_7 C 0.96243(16) 0.2463(5) 0.4185(2)
H6_7 H 0.9315 0.3205 0.4136
H8_7 H 0.8946 0.0980 0.2494
O5_7 O 0.74677(14) 0.7369(4) 0.34822(15)
H12_7 H 0.783067 0.746814 0.340658
H13_7 H 0.734306 0.856406 0.356116
C1_7 C 0.89127(14) 0.9891(4) 0.36802(17)
H1_7 H 0.8911 0.8987 0.4011
C2_7 C 0.99849(16) 0.9643(5) 0.40516(19)
H2_7 H 0.9920 0.8466 0.3914
C11_7 C 0.88111(15) 0.9822(5) 0.24425(18)
C12_7 C 0.87699(14) 0.8953(5) 0.29934(17)
C13_7 C 0.86500(15) 0.8965(5) 0.18078(18)
H9_7 H 0.8669 0.9563 0.1434
C14_7 C 0.86061(17) 0.7197(5) 0.29292(18)
H10_7 H 0.8596 0.6592 0.3306
C15_7 C 0.84574(17) 0.6337(5) 0.23049(18)
H11_7 H 0.8352 0.5150 0.2265
C16_7 C 0.84641(15) 0.7241(5) 0.17352(17)
C17_7 C 0.82228(15) 0.6366(5) 0.10357(17)
N1_8 N 0.20841(12) 0.2966(4) 0.10927(15)
N2_8 N 0.17815(15) 0.2301(4) 0.19198(16)
N3_8 N 0.15408(12) 0.1186(4) 0.13731(14)
C3_8 C 0.17282(15) 0.1605(5) 0.08920(18)
H3_8 H 0.1623 0.1021 0.0472
C4_8 C 0.21058(17) 0.3324(5) 0.17238(19)
H4_8 H 0.2333 0.4229 0.2000
C5_8 C 0.04822(15) 0.0723(5) 0.10259(17)
C8_8 C 0.03757(16) 0.2463(5) 0.0815(2)
H6_8 H 0.0685 0.3205 0.0864
H8_8 H 0.1054 0.0980 0.2506
O5_8 O 0.25323(14) 0.7369(4) 0.15178(15)
H12_8 H 0.216933 0.746814 0.159342
H13_8 H 0.265694 0.856406 0.143884
C1_8 C 0.10873(14) 0.9891(4) 0.13198(17)
H1_8 H 0.1089 0.8987 0.0989
C2_8 C 0.00151(16) 0.9643(5) 0.09484(19)
H2_8 H 0.0080 0.8466 0.1086
C11_8 C 0.11889(15) 0.9822(5) 0.25575(18)
C12_8 C 0.12301(14) 0.8953(5) 0.20066(17)
C13_8 C 0.13500(15) 0.8965(5) 0.31922(18)
H9_8 H 0.1331 0.9563 0.3566
C14_8 C 0.13939(17) 0.7197(5) 0.20708(18)
H10_8 H 0.1404 0.6592 0.1694
C15_8 C 0.15426(17) 0.6337(5) 0.26951(18)
H11_8 H 0.1648 0.5150 0.2735
C16_8 C 0.15359(15) 0.7241(5) 0.32648(17)
C17_8 C 0.17772(15) 0.6366(5) 0.39643(17)
C6_8 C 0.94508(15) 0.0296(5) 0.06684(19)
C7_8 C 0.93446(15) 0.2043(5) 0.04523(17)
C9_8 C 0.98107(16) 0.3119(5) 0.0531(2)
H7_8 H 0.9746 0.4296 0.0393
C10_8 C 0.87310(15) 0.2742(5) 0.01363(18)
H5_5 H 0.9142 0.0441 0.5625
H5_6 H 0.0858 0.0441 0.9375
H5_7 H 0.0858 0.9559 0.4375
H5_8 H 0.9142 0.9559 0.0625
loop_
_geom_bond_atom_site_label_1
_geom_bond_atom_site_label_2
_geom_bond_site_symmetry_1
_geom_bond_site_symmetry_2
N1 C3 1_555 1_555
C1 H1 1_555 1_555
N2 N3 1_555 1_555
C2 H2 1_555 1_555
N3 C1 1_555 1_555
C3 N3 1_555 1_555
H3 C3 1_555 1_555
C4 N1 1_555 1_555
H4 C4 1_555 1_555
C5 C1 1_555 1_555
C6 C2 1_555 1_555
H5 C6 1_555 1_555
C7 C6 1_555 1_555
C8 C5 1_555 1_555
H6 C8 1_555 1_555
C9 C7 1_555 1_555
H7 C9 1_555 1_555
C10 C7 1_555 1_555
O1 C10 1_555 1_555
O2 C10 1_555 1_555
C11 H8 1_555 1_555
C12 C1 1_555 1_555
C13 C11 1_555 1_555
H9 C13 1_555 1_555
C14 C12 1_555 1_555
H10 C14 1_555 1_555
C15 C14 1_555 1_555
H11 C15 1_555 1_555
C16 C13 1_555 1_555
O4 C17 1_555 1_555
C17 C16 1_555 1_555
Pb2 O4 1_555 1_555
Pb3 O1 1_555 1_555
N2 C4 1_555 1_555
C2 C5 1_555 1_555
C8 C9 1_555 1_555
O2 Pb3 1_555 1_555
C11 C12 1_555 1_555
C15 C16 1_555 1_555
O5 Pb1 1_555 1_555
O6 Pb1 1_555 1_555
O7 Pb1 1_555 1_555
O8 Pb1 1_555 1_555
O5 H12 1_555 1_555
O5 H13 1_555 1_555
Pb3 O3_2 1_555 1_555
Pb4 O1_2 1_555 1_555
N1_2 C3_2 1_555 1_555
C1_2 H1_2 1_555 1_555
N2_2 N3_2 1_555 1_555
C2_2 H2_2 1_555 1_555
N3_2 C1_2 1_555 1_555
C3_2 N3_2 1_555 1_555
H3_2 C3_2 1_555 1_555
C4_2 N1_2 1_555 1_555
H4_2 C4_2 1_555 1_555
C5_2 C1_2 1_555 1_555
C6_2 C2_2 1_555 1_555
H5_2 C6_2 1_555 1_555
C7_2 C6_2 1_555 1_555
C8_2 C5_2 1_555 1_555
H6_2 C8_2 1_555 1_555
C9_2 C7_2 1_555 1_555
H7_2 C9_2 1_555 1_555
C10_2 C7_2 1_555 1_555
O2_2 C10_2 1_555 1_555
C11_2 H8_2 1_555 1_555
C12_2 C1_2 1_555 1_555
C13_2 C11_2 1_555 1_555
H9_2 C13_2 1_555 1_555
C14_2 C12_2 1_555 1_555
H10_2 C14_2 1_555 1_555
C15_2 C14_2 1_555 1_555
H11_2 C15_2 1_555 1_555
C16_2 C13_2 1_555 1_555
O4_2 C17_2 1_555 1_555
C17_2 C16_2 1_555 1_555
Pb2_2 O4_2 1_555 1_555
N2_2 C4_2 1_555 1_555
C2_2 C5_2 1_555 1_555
C8_2 C9_2 1_555 1_555
C11_2 C12_2 1_555 1_555
C15_2 C16_2 1_555 1_555
O5_2 Pb1_2 1_555 1_555
O6_2 Pb1_2 1_555 1_555
O5_2 H12_2 1_555 1_555
O5_2 H13_2 1_555 1_555
C1_3 H1_3 1_555 1_555
C2_3 H2_3 1_555 1_555
C12_3 C1_3 1_555 1_555
C13_3 C11_3 1_555 1_555
H9_3 C13_3 1_555 1_555
C14_3 C12_3 1_555 1_555
H10_3 C14_3 1_555 1_555
C15_3 C14_3 1_555 1_555
H11_3 C15_3 1_555 1_555
C16_3 C13_3 1_555 1_555
O3_3 C17_3 1_555 1_555
O9_2 C17_3 1_555 1_555
C17_3 C16_3 1_555 1_555
C11_3 C12_3 1_555 1_555
C15_3 C16_3 1_555 1_555
Pb2_2 N1_3 1_555 1_555
N1_3 C3_3 1_555 1_555
N2_3 N3_3 1_555 1_555
C3_3 N3_3 1_555 1_555
H3_3 C3_3 1_555 1_555
C4_3 N1_3 1_555 1_555
H4_3 C4_3 1_555 1_555
C8_3 C5_3 1_555 1_555
H6_3 C8_3 1_555 1_555
O5_3 Pb2_2 1_555 1_555
O6_3 Pb2_2 1_555 1_555
O7_3 Pb2_2 1_555 1_555
O8_3 Pb2_2 1_555 1_555
O10_3 Pb2_2 1_555 1_555
N2_3 C4_3 1_555 1_555
O5_3 H12_3 1_555 1_555
O5_3 H13_3 1_555 1_555
C7_3 C6_3 1_555 1_555
C9_3 C7_3 1_555 1_555
H7_3 C9_3 1_555 1_555
C10_3 C7_3 1_555 1_555
O1_3 C10_3 1_555 1_555
O2_3 C10_3 1_555 1_555
Pb3_2 O1_3 1_555 1_555
O2_3 Pb3_2 1_555 1_555
Pb4_2 O1_4 1_555 1_555
C7_4 C6_4 1_555 1_555
C9_4 C7_4 1_555 1_555
H7_4 C9_4 1_555 1_555
C10_4 C7_4 1_555 1_555
O2_4 C10_4 1_555 1_555
C1_4 H1_4 1_555 1_555
C2_4 H2_4 1_555 1_555
C12_4 C1_4 1_555 1_555
C13_4 C11_4 1_555 1_555
H9_4 C13_4 1_555 1_555
C14_4 C12_4 1_555 1_555
H10_4 C14_4 1_555 1_555
C15_4 C14_4 1_555 1_555
H11_4 C15_4 1_555 1_555
C16_4 C13_4 1_555 1_555
O3_4 C17_4 1_555 1_555
O9 C17_4 1_555 1_555
C17_4 C16_4 1_555 1_555
Pb3_2 O3_4 1_555 1_555
C11_4 C12_4 1_555 1_555
C15_4 C16_4 1_555 1_555
O9 Pb3_2 1_555 1_555
Pb2 N1_4 1_555 1_555
N1_4 C3_4 1_555 1_555
N2_4 N3_4 1_555 1_555
C3_4 N3_4 1_555 1_555
H3_4 C3_4 1_555 1_555
C4_4 N1_4 1_555 1_555
H4_4 C4_4 1_555 1_555
C8_4 C5_4 1_555 1_555
H6_4 C8_4 1_555 1_555
O5_4 Pb2 1_555 1_555
O6_4 Pb2 1_555 1_555
N2_4 C4_4 1_555 1_555
O5_4 H12_4 1_555 1_555
O5_4 H13_4 1_555 1_555
O5_5 Pb3 1_555 1_555
O5_5 H12_5 1_555 1_555
O5_5 H13_5 1_555 1_555
N1_5 C3_5 1_555 1_555
C1_5 H1_5 1_555 1_555
N2_5 N3_5 1_555 1_555
C2_5 H2_5 1_555 1_555
N3_5 C1_5 1_555 1_555
C3_5 N3_5 1_555 1_555
H3_5 C3_5 1_555 1_555
C4_5 N1_5 1_555 1_555
H4_5 C4_5 1_555 1_555
C5_5 C1_5 1_555 1_555
C6_5 C2_5 1_555 1_555
H5_3 C6_5 1_555 1_555
C7_5 C6_5 1_555 1_555
C8_5 C5_5 1_555 1_555
H6_5 C8_5 1_555 1_555
C9_5 C7_5 1_555 1_555
H7_5 C9_5 1_555 1_555
C10_5 C7_5 1_555 1_555
O6 C10_5 1_555 1_555
O7 C10_5 1_555 1_555
C11_5 H8_5 1_555 1_555
C12_5 C1_5 1_555 1_555
C13_5 C11_5 1_555 1_555
H9_5 C13_5 1_555 1_555
C14_5 C12_5 1_555 1_555
H10_5 C14_5 1_555 1_555
C15_5 C14_5 1_555 1_555
H11_5 C15_5 1_555 1_555
C16_5 C13_5 1_555 1_555
O10_2 C17_5 1_555 1_555
C17_5 C16_5 1_555 1_555
Pb4_2 O10_2 1_555 1_555
N2_5 C4_5 1_555 1_555
C2_5 C5_5 1_555 1_555
C8_5 C9_5 1_555 1_555
C11_5 C12_5 1_555 1_555
C15_5 C16_5 1_555 1_555
O5_6 Pb4 1_555 1_555
O5_6 H12_6 1_555 1_555
O5_6 H13_6 1_555 1_555
N1_6 C3_6 1_555 1_555
C1_6 H1_6 1_555 1_555
N2_6 N3_6 1_555 1_555
C2_6 H2_6 1_555 1_555
N3_6 C1_6 1_555 1_555
C3_6 N3_6 1_555 1_555
H3_6 C3_6 1_555 1_555
C4_6 N1_6 1_555 1_555
H4_6 C4_6 1_555 1_555
C5_6 C1_6 1_555 1_555
C6_6 C2_6 1_555 1_555
H5_4 C6_6 1_555 1_555
C7_6 C6_6 1_555 1_555
C8_6 C5_6 1_555 1_555
H6_6 C8_6 1_555 1_555
C9_6 C7_6 1_555 1_555
H7_6 C9_6 1_555 1_555
C10_6 C7_6 1_555 1_555
O7_2 C10_6 1_555 1_555
C11_6 H8_6 1_555 1_555
C12_6 C1_6 1_555 1_555
C13_6 C11_6 1_555 1_555
H9_6 C13_6 1_555 1_555
C14_6 C12_6 1_555 1_555
H10_6 C14_6 1_555 1_555
C15_6 C14_6 1_555 1_555
H11_6 C15_6 1_555 1_555
C16_6 C13_6 1_555 1_555
O10 C17_6 1_555 1_555
C17_6 C16_6 1_555 1_555
Pb3_2 O10 1_555 1_555
N2_6 C4_6 1_555 1_555
C2_6 C5_6 1_555 1_555
C8_6 C9_6 1_555 1_555
C11_6 C12_6 1_555 1_555
C15_6 C16_6 1_555 1_555
C7_7 C6_7 1_555 1_555
C9_7 C7_7 1_555 1_555
H7_7 C9_7 1_555 1_555
C10_7 C7_7 1_555 1_555
O6_3 C10_7 1_555 1_555
O7_3 C10_7 1_555 1_555
Pb3_2 N1_7 1_555 1_555
N1_7 C3_7 1_555 1_555
N2_7 N3_7 1_555 1_555
C3_7 N3_7 1_555 1_555
H3_7 C3_7 1_555 1_555
C4_7 N1_7 1_555 1_555
H4_7 C4_7 1_555 1_555
C8_7 C5_7 1_555 1_555
H6_7 C8_7 1_555 1_555
O5_7 Pb3_2 1_555 1_555
N2_7 C4_7 1_555 1_555
O5_7 H12_7 1_555 1_555
O5_7 H13_7 1_555 1_555
C1_7 H1_7 1_555 1_555
C2_7 H2_7 1_555 1_555
C12_7 C1_7 1_555 1_555
C13_7 C11_7 1_555 1_555
H9_7 C13_7 1_555 1_555
C14_7 C12_7 1_555 1_555
H10_7 C14_7 1_555 1_555
C15_7 C14_7 1_555 1_555
H11_7 C15_7 1_555 1_555
C16_7 C13_7 1_555 1_555
O8_4 C17_7 1_555 1_555
O10_4 C17_7 1_555 1_555
C17_7 C16_7 1_555 1_555
C11_7 C12_7 1_555 1_555
C15_7 C16_7 1_555 1_555
Pb4_2 N1_8 1_555 1_555
N1_8 C3_8 1_555 1_555
N2_8 N3_8 1_555 1_555
C3_8 N3_8 1_555 1_555
H3_8 C3_8 1_555 1_555
C4_8 N1_8 1_555 1_555
H4_8 C4_8 1_555 1_555
C8_8 C5_8 1_555 1_555
H6_8 C8_8 1_555 1_555
O5_8 Pb4_2 1_555 1_555
N2_8 C4_8 1_555 1_555
O5_8 H12_8 1_555 1_555
O5_8 H13_8 1_555 1_555
C1_8 H1_8 1_555 1_555
C2_8 H2_8 1_555 1_555
C12_8 C1_8 1_555 1_555
C13_8 C11_8 1_555 1_555
H9_8 C13_8 1_555 1_555
C14_8 C12_8 1_555 1_555
H10_8 C14_8 1_555 1_555
C15_8 C14_8 1_555 1_555
H11_8 C15_8 1_555 1_555
C16_8 C13_8 1_555 1_555
O8_3 C17_8 1_555 1_555
O10_3 C17_8 1_555 1_555
C17_8 C16_8 1_555 1_555
C11_8 C12_8 1_555 1_555
C15_8 C16_8 1_555 1_555
C7_8 C6_8 1_555 1_555
C9_8 C7_8 1_555 1_555
H7_8 C9_8 1_555 1_555
C10_8 C7_8 1_555 1_555
O7_4 C10_8 1_555 1_555

#END
