
###############################################################################
#
# This file contains modified crystal structure data generated from the
# MOF subset of the Cambridge Structural Database (CSD) v543 
# hosted by the Cambridge Crystallographic Data Centre (CCDC).
#
# This work is licensed under the Creative Commons
# Attribution-NonCommercial-ShareAlike 4.0 International License.
# To view a copy of this license, visit
# http://creativecommons.org/licenses/by-nc-sa/4.0/
# or send a letter to
# Creative Commons, PO Box 1866, Mountain View, CA 94042, USA.
#
# CIF created using the CSD Python API on 29 September 2022
# The structure has been converted into the P1 space group
# The structure has a 3D framework
# The original CSD entry VOGTIV is in the rhombohedral crystal system
# The framework has been calculated to contain at least 10.0% void space
# The void calculation uses a probe of radius 1.32A, grid spacing 0.4
# H atom positions have been added when not included in the experimental data
# Generated hydrogen atom positions removed from atoms on special positions
#
###############################################################################

data_VOGTIV
_chemical_formula_moiety         '(C72 H72 Mg18 O72)n'
_symmetry_cell_setting           triclinic
_symmetry_space_group_name_H-M   'P 1'
_symmetry_Int_Tables_number      1
_space_group_name_Hall           'P 1'
loop_
_symmetry_equiv_pos_site_id
_symmetry_equiv_pos_as_xyz
1 x,y,z
_cell_length_a                   26.02607(6)
_cell_length_b                   26.02607(6)
_cell_length_c                   6.758722(30)
_cell_angle_alpha                90
_cell_angle_beta                 90
_cell_angle_gamma                120
_cell_volume                     3964.72
loop_
_atom_site_label
_atom_site_type_symbol
_atom_site_fract_x
_atom_site_fract_y
_atom_site_fract_z
_atom_site_U_iso_or_equiv
_atom_site_thermal_displace_type
C1 C 0.59887(24) 0.58042(25) 0.2532(8) 0.0004 Uiso
C2 C 0.54667(28) 0.54219(29) 0.1138(9) 0.0123 Uiso
C3 C 0.50380(30) 0.48402(30) 0.2109(8) 0.0111 Uiso
Mg1 Mg 0.65048(9) 0.61512(9) 0.64538(28) 0.0190 Uiso
O1 O 0.59584(14) 0.56041(17) 0.4326(5) 0.0151 Uiso
O2 O 0.63820(16) 0.62880(15) 0.1891(5) 0.0164 Uiso
O4 O 0.65528(16) 0.54450(14) 0.7926(5) 0.0172 Uiso
C8 C 0.45783(30) 0.44788(29) 0.0742(11) 0.0285 Uiso
Mg4 Mg 0.71821(9) 0.70203(13) 0.31205(28) 0.0190 Uiso
Mg7 Mg 0.36869(13) 0.31715(9) 0.02129(28) 0.0190 Uiso
Mg8 Mg 0.34952(9) 0.38488(9) 0.35462(28) 0.0190 Uiso
O7 O 0.65727(22) 0.69513(16) 0.5224(5) 0.0164 Uiso
O8 O 0.70453(15) 0.67607(22) 0.8558(5) 0.0164 Uiso
O11 O 0.41627(17) 0.39388(17) 0.1574(6) 0.0317 Uiso
O12 O 0.58373(17) 0.60612(17) 0.8426(6) 0.0317 Uiso
O13 O 0.72721(17) 0.64428(24) 0.5093(6) 0.0317 Uiso
H6 H 0.50734 0.471501 0.361878 . .
C4 C 0.54217(30) 0.55212(29) 0.9258(11) 0.0285 Uiso
C5 C 0.40113(24) 0.41958(25) 0.7468(8) 0.0004 Uiso
C6 C 0.45333(28) 0.45781(29) 0.8862(9) 0.0123 Uiso
C7 C 0.49620(30) 0.51598(30) 0.7891(8) 0.0111 Uiso
Mg3 Mg 0.63131(13) 0.68285(9) 0.97871(28) 0.0190 Uiso
Mg6 Mg 0.28179(9) 0.29797(13) 0.68795(28) 0.0190 Uiso
O5 O 0.40416(14) 0.43959(17) 0.5674(5) 0.0151 Uiso
O6 O 0.36180(16) 0.37120(15) 0.8109(5) 0.0164 Uiso
O9 O 0.29547(15) 0.32393(22) 0.1442(5) 0.0164 Uiso
O10 O 0.34273(22) 0.30487(16) 0.4776(5) 0.0164 Uiso
O14 O 0.27279(17) 0.35572(24) 0.4907(6) 0.0317 Uiso
O16 O 0.34472(16) 0.45550(14) 0.2074(5) 0.0172 Uiso
H1 H 0.49266 0.528499 0.638122 . .
C1_2 C 0.41958(25) 0.01845(35) 0.2532(8) 0.0004 Uiso
C2_2 C 0.45781(29) 0.00448(40) 0.1138(9) 0.0123 Uiso
C3_2 C 0.51598(30) 0.01978(42) 0.2109(8) 0.0111 Uiso
Mg1_2 Mg 0.38488(9) 0.03536(13) 0.64538(28) 0.0190 Uiso
O1_2 O 0.43959(17) 0.03543(22) 0.4326(5) 0.0151 Uiso
O2_2 O 0.37120(15) 0.00940(22) 0.1891(5) 0.0164 Uiso
O4_2 O 0.45550(14) 0.11078(21) 0.7926(5) 0.0172 Uiso
C8_2 C 0.55212(29) 0.00995(42) 0.0742(11) 0.0285 Uiso
Mg4_2 Mg 0.29797(13) 0.01619(16) 0.31205(28) 0.0190 Uiso
Mg7_2 Mg 0.68285(9) 0.05155(16) 0.02129(28) 0.0190 Uiso
O8_2 O 0.32393(22) 0.02847(27) 0.8558(5) 0.0164 Uiso
O11_2 O 0.60612(17) 0.02239(24) 0.1574(6) 0.0317 Uiso
O13_2 O 0.35572(24) 0.08294(29) 0.5093(6) 0.0317 Uiso
H6_2 H 0.528499 0.0358386 0.361878 . .
O10_2 O 0.69513(16) 0.03787(27) 0.4776(5) 0.0164 Uiso
Mg8_2 Mg 0.61512(9) 0.96464(13) 0.35462(28) 0.0190 Uiso
O7_2 O 0.30487(16) 0.96213(27) 0.5224(5) 0.0164 Uiso
O12_2 O 0.39388(17) 0.97761(24) 0.8426(6) 0.0317 Uiso
C4_2 C 0.44788(29) 0.99005(42) 0.9258(11) 0.0285 Uiso
C5_2 C 0.58042(25) 0.98155(35) 0.7468(8) 0.0004 Uiso
C6_2 C 0.54219(29) 0.99552(40) 0.8862(9) 0.0123 Uiso
C7_2 C 0.48402(30) 0.98022(42) 0.7891(8) 0.0111 Uiso
Mg3_2 Mg 0.31715(9) 0.94845(16) 0.97871(28) 0.0190 Uiso
Mg6_2 Mg 0.70203(13) 0.98381(16) 0.68795(28) 0.0190 Uiso
O5_2 O 0.56041(17) 0.96457(22) 0.5674(5) 0.0151 Uiso
O6_2 O 0.62880(15) 0.99060(22) 0.8109(5) 0.0164 Uiso
O9_2 O 0.67607(22) 0.97153(27) 0.1442(5) 0.0164 Uiso
O14_2 O 0.64428(24) 0.91706(29) 0.4907(6) 0.0317 Uiso
O16_2 O 0.54450(14) 0.88922(21) 0.2074(5) 0.0172 Uiso
H1_2 H 0.471501 0.964161 0.638122 . .
Mg8_3 Mg 0.03536(13) 0.65048(9) 0.35462(28) 0.0190 Uiso
O7_3 O 0.03787(27) 0.34273(22) 0.5224(5) 0.0164 Uiso
O12_3 O 0.02239(24) 0.41627(17) 0.8426(6) 0.0317 Uiso
C4_3 C 0.00995(42) 0.45783(30) 0.9258(11) 0.0285 Uiso
C5_3 C 0.01845(35) 0.59887(24) 0.7468(8) 0.0004 Uiso
C6_3 C 0.00448(40) 0.54667(28) 0.8862(9) 0.0123 Uiso
C7_3 C 0.01978(42) 0.50380(30) 0.7891(8) 0.0111 Uiso
Mg3_3 Mg 0.05155(16) 0.36869(13) 0.97871(28) 0.0190 Uiso
Mg6_3 Mg 0.01619(16) 0.71821(9) 0.68795(28) 0.0190 Uiso
O5_3 O 0.03543(22) 0.59584(14) 0.5674(5) 0.0151 Uiso
O6_3 O 0.00940(22) 0.63820(16) 0.8109(5) 0.0164 Uiso
O9_3 O 0.02847(27) 0.70453(15) 0.1442(5) 0.0164 Uiso
O14_3 O 0.08294(29) 0.72721(17) 0.4907(6) 0.0317 Uiso
O16_3 O 0.11078(21) 0.65528(16) 0.2074(5) 0.0172 Uiso
H1_3 H 0.0358386 0.50734 0.638122 . .
C1_3 C 0.98155(35) 0.40113(24) 0.2532(8) 0.0004 Uiso
C2_3 C 0.99552(40) 0.45333(28) 0.1138(9) 0.0123 Uiso
C3_3 C 0.98022(42) 0.49620(30) 0.2109(8) 0.0111 Uiso
Mg1_3 Mg 0.96464(13) 0.34952(9) 0.64538(28) 0.0190 Uiso
O1_3 O 0.96457(22) 0.40416(14) 0.4326(5) 0.0151 Uiso
O2_3 O 0.99060(22) 0.36180(16) 0.1891(5) 0.0164 Uiso
O4_3 O 0.88922(21) 0.34472(16) 0.7926(5) 0.0172 Uiso
C8_3 C 0.99005(42) 0.54217(30) 0.0742(11) 0.0285 Uiso
Mg4_3 Mg 0.98381(16) 0.28179(9) 0.31205(28) 0.0190 Uiso
Mg7_3 Mg 0.94845(16) 0.63131(13) 0.02129(28) 0.0190 Uiso
O8_3 O 0.97153(27) 0.29547(15) 0.8558(5) 0.0164 Uiso
O11_3 O 0.97761(24) 0.58373(17) 0.1574(6) 0.0317 Uiso
O13_3 O 0.91706(29) 0.27279(17) 0.5093(6) 0.0317 Uiso
H6_3 H 0.964161 0.49266 0.361878 . .
O10_3 O 0.96213(27) 0.65727(22) 0.4776(5) 0.0164 Uiso
O13_4 O 0.06055(17) 0.31094(24) 0.1759(6) 0.0317 Uiso
H2 H 0.00527565 0.193454 0.367395 . .
H3 H 0.0145663 0.227116 0.577436 . .
O1_4 O 0.92917(14) 0.22708(17) 0.0993(5) 0.0151 Uiso
O4_4 O 0.98861(16) 0.21117(14) 0.4593(5) 0.0172 Uiso
H6_4 H 0.840673 0.138168 0.0285452 . .
C1_4 C 0.93220(24) 0.24709(25) 0.9199(8) 0.0004 Uiso
C2_4 C 0.88000(28) 0.20886(29) 0.7805(9) 0.0123 Uiso
C3_4 C 0.83713(30) 0.15069(30) 0.8776(8) 0.0111 Uiso
C4_4 C 0.87550(30) 0.21879(29) 0.5925(11) 0.0285 Uiso
C5_4 C 0.73446(24) 0.08625(25) 0.4135(8) 0.0004 Uiso
C6_4 C 0.78666(28) 0.12448(29) 0.5529(9) 0.0123 Uiso
C7_4 C 0.82953(30) 0.18265(30) 0.4558(8) 0.0111 Uiso
C8_4 C 0.79116(30) 0.11455(29) 0.7409(11) 0.0285 Uiso
O5_4 O 0.73749(14) 0.10626(17) 0.2341(5) 0.0151 Uiso
O11_4 O 0.74960(17) 0.06055(17) 0.8241(6) 0.0317 Uiso
H1_4 H 0.825994 0.195166 0.304788 . .
O16_4 O 0.67805(16) 0.12217(14) 0.8741(5) 0.0172 Uiso
O4_5 O 0.32195(16) 0.87783(14) 0.1259(5) 0.0172 Uiso
O12_4 O 0.25040(17) 0.93945(17) 0.1759(6) 0.0317 Uiso
C1_5 C 0.26554(24) 0.91375(25) 0.5865(8) 0.0004 Uiso
C2_5 C 0.21334(28) 0.87552(29) 0.4471(9) 0.0123 Uiso
C3_5 C 0.17047(30) 0.81735(30) 0.5442(8) 0.0111 Uiso
C4_5 C 0.20884(30) 0.88545(29) 0.2591(11) 0.0285 Uiso
O1_5 O 0.26251(14) 0.89374(17) 0.7659(5) 0.0151 Uiso
C5_5 C 0.06780(24) 0.75291(25) 0.0801(8) 0.0004 Uiso
C6_5 C 0.12000(28) 0.79114(29) 0.2195(9) 0.0123 Uiso
C7_5 C 0.16287(30) 0.84931(30) 0.1224(8) 0.0111 Uiso
C8_5 C 0.12450(30) 0.78121(29) 0.4075(11) 0.0285 Uiso
H6_5 H 0.174006 0.804834 0.695212 . .
O5_5 O 0.07083(14) 0.77292(17) 0.9007(5) 0.0151 Uiso
O16_5 O 0.01139(16) 0.78883(14) 0.5407(5) 0.0172 Uiso
H1_5 H 0.159327 0.861832 0.971455 . .
H4 H 0.0517829 0.819718 0.498969 . .
O14_4 O 0.93945(17) 0.68906(24) 0.8241(6) 0.0317 Uiso
H5 H 0.985434 0.772884 0.422564 . .
O4_6 O 0.12217(14) 0.44411(21) 0.1259(5) 0.0172 Uiso
C1_6 C 0.08625(25) 0.35178(35) 0.5865(8) 0.0004 Uiso
C2_6 C 0.12448(29) 0.33781(40) 0.4471(9) 0.0123 Uiso
C3_6 C 0.18265(30) 0.35311(42) 0.5442(8) 0.0111 Uiso
C4_6 C 0.11455(29) 0.32338(42) 0.2591(11) 0.0285 Uiso
O1_6 O 0.10626(17) 0.36876(22) 0.7659(5) 0.0151 Uiso
C5_6 C 0.24709(25) 0.31488(35) 0.0801(8) 0.0004 Uiso
C6_6 C 0.20886(29) 0.32885(40) 0.2195(9) 0.0123 Uiso
C7_6 C 0.15069(30) 0.31355(42) 0.1224(8) 0.0111 Uiso
C8_6 C 0.21879(29) 0.34328(42) 0.4075(11) 0.0285 Uiso
H6_6 H 0.195166 0.369172 0.695212 . .
O5_6 O 0.22708(17) 0.29790(22) 0.9007(5) 0.0151 Uiso
O14_5 O 0.31094(24) 0.25040(29) 0.8241(6) 0.0317 Uiso
O16_6 O 0.21117(14) 0.22255(21) 0.5407(5) 0.0172 Uiso
H1_6 H 0.138168 0.297495 0.971455 . .
H5_2 H 0.78745 0.0145663 0.422564 . .
O4_7 O 0.55589(21) 0.67805(16) 0.1259(5) 0.0172 Uiso
O12_5 O 0.68906(24) 0.74960(17) 0.1759(6) 0.0317 Uiso
C1_7 C 0.64822(35) 0.73446(24) 0.5865(8) 0.0004 Uiso
C2_7 C 0.66219(40) 0.78666(28) 0.4471(9) 0.0123 Uiso
C3_7 C 0.64689(42) 0.82953(30) 0.5442(8) 0.0111 Uiso
C4_7 C 0.67662(42) 0.79116(30) 0.2591(11) 0.0285 Uiso
O1_7 O 0.63124(22) 0.73749(14) 0.7659(5) 0.0151 Uiso
C5_7 C 0.68512(35) 0.93220(24) 0.0801(8) 0.0004 Uiso
C6_7 C 0.67115(40) 0.88000(28) 0.2195(9) 0.0123 Uiso
C7_7 C 0.68645(42) 0.83713(30) 0.1224(8) 0.0111 Uiso
C8_7 C 0.65672(42) 0.87550(30) 0.4075(11) 0.0285 Uiso
H6_7 H 0.630828 0.825994 0.695212 . .
O5_7 O 0.70210(22) 0.92917(14) 0.9007(5) 0.0151 Uiso
O16_7 O 0.77745(21) 0.98861(16) 0.5407(5) 0.0172 Uiso
H1_7 H 0.702505 0.840673 0.971455 . .
H4_2 H 0.767936 0.948217 0.498969 . .
O1_8 O 0.77292(17) 0.70210(22) 0.0993(5) 0.0151 Uiso
O4_8 O 0.78883(14) 0.77745(21) 0.4593(5) 0.0172 Uiso
H6_8 H 0.861832 0.702505 0.0285452 . .
C1_8 C 0.75291(25) 0.68512(35) 0.9199(8) 0.0004 Uiso
C2_8 C 0.79114(29) 0.67115(40) 0.7805(9) 0.0123 Uiso
C3_8 C 0.84931(30) 0.68645(42) 0.8776(8) 0.0111 Uiso
C4_8 C 0.78121(29) 0.65672(42) 0.5925(11) 0.0285 Uiso
C5_8 C 0.91375(25) 0.64822(35) 0.4135(8) 0.0004 Uiso
C6_8 C 0.87552(29) 0.66219(40) 0.5529(9) 0.0123 Uiso
C7_8 C 0.81735(30) 0.64689(42) 0.4558(8) 0.0111 Uiso
C8_8 C 0.88545(29) 0.67662(42) 0.7409(11) 0.0285 Uiso
O5_8 O 0.89374(17) 0.63124(22) 0.2341(5) 0.0151 Uiso
H1_8 H 0.804834 0.630828 0.304788 . .
O16_8 O 0.87783(14) 0.55589(21) 0.8741(5) 0.0172 Uiso
O1_9 O 0.29790(22) 0.07083(14) 0.0993(5) 0.0151 Uiso
O4_9 O 0.22255(21) 0.01139(16) 0.4593(5) 0.0172 Uiso
H6_9 H 0.297495 0.159327 0.0285452 . .
C1_9 C 0.31488(35) 0.06780(24) 0.9199(8) 0.0004 Uiso
C2_9 C 0.32885(40) 0.12000(28) 0.7805(9) 0.0123 Uiso
C3_9 C 0.31355(42) 0.16287(30) 0.8776(8) 0.0111 Uiso
C4_9 C 0.34328(42) 0.12450(30) 0.5925(11) 0.0285 Uiso
C5_9 C 0.35178(35) 0.26554(24) 0.4135(8) 0.0004 Uiso
C6_9 C 0.33781(40) 0.21334(28) 0.5529(9) 0.0123 Uiso
C7_9 C 0.35311(42) 0.17047(30) 0.4558(8) 0.0111 Uiso
C8_9 C 0.32338(42) 0.20884(30) 0.7409(11) 0.0285 Uiso
O5_9 O 0.36876(22) 0.26251(14) 0.2341(5) 0.0151 Uiso
H1_9 H 0.369172 0.174006 0.304788 . .
O16_9 O 0.44411(21) 0.32195(16) 0.8741(5) 0.0172 Uiso
H2_2 H 0.188178 0.994724 0.367395 . .
H3_2 H 0.21255 0.985434 0.577436 . .
H2_3 H 0.994724 0.806546 0.632605 . .
H4_3 H 0.948217 0.180282 0.501031 . .
H4_4 H 0.232064 0.0517829 0.501031 . .
H2_4 H 0.811822 0.00527565 0.632605 . .
loop_
_geom_bond_atom_site_label_1
_geom_bond_atom_site_label_2
_geom_bond_site_symmetry_1
_geom_bond_site_symmetry_2
C1 C2 1_555 1_555
C2 C3 1_555 1_555
C3 C8 1_555 1_555
Mg1 O1 1_555 1_555
O1 C1 1_555 1_555
O2 C1 1_555 1_555
O4 Mg1 1_555 1_555
Mg4 O2 1_555 1_555
Mg8 O11 1_555 1_555
O7 Mg1 1_555 1_555
O8 Mg1 1_555 1_555
O11 C8 1_555 1_555
O12 Mg1 1_555 1_555
O13 Mg1 1_555 1_555
Mg4 O7 1_555 1_555
Mg4 O13 1_555 1_555
Mg7 O11 1_555 1_555
C3 H6 1_555 1_555
O12 C4 1_555 1_555
C5 C6 1_555 1_555
C6 C7 1_555 1_555
C7 C4 1_555 1_555
Mg8 O5 1_555 1_555
Mg6 O6 1_555 1_555
O5 C5 1_555 1_555
O6 C5 1_555 1_555
O9 Mg8 1_555 1_555
O10 Mg8 1_555 1_555
O14 Mg8 1_555 1_555
O16 Mg8 1_555 1_555
O12 Mg3 1_555 1_555
Mg6 O10 1_555 1_555
Mg6 O14 1_555 1_555
C7 H1 1_555 1_555
C1_2 C2_2 1_555 1_555
C2_2 C3_2 1_555 1_555
C3_2 C8_2 1_555 1_555
Mg1_2 O1_2 1_555 1_555
O1_2 C1_2 1_555 1_555
O2_2 C1_2 1_555 1_555
O4_2 Mg1_2 1_555 1_555
Mg4_2 O2_2 1_555 1_555
O8_2 Mg1_2 1_555 1_555
O11_2 C8_2 1_555 1_555
O13_2 Mg1_2 1_555 1_555
Mg4_2 O13_2 1_555 1_555
Mg7_2 O11_2 1_555 1_555
C3_2 H6_2 1_555 1_555
O12_2 C4_2 1_555 1_555
C5_2 C6_2 1_555 1_555
C6_2 C7_2 1_555 1_555
C7_2 C4_2 1_555 1_555
Mg8_2 O5_2 1_555 1_555
Mg6_2 O6_2 1_555 1_555
O5_2 C5_2 1_555 1_555
O6_2 C5_2 1_555 1_555
O9_2 Mg8_2 1_555 1_555
O14_2 Mg8_2 1_555 1_555
O16_2 Mg8_2 1_555 1_555
O12_2 Mg3_2 1_555 1_555
Mg6_2 O14_2 1_555 1_555
C7_2 H1_2 1_555 1_555
O12_3 C4_3 1_555 1_555
C5_3 C6_3 1_555 1_555
C6_3 C7_3 1_555 1_555
C7_3 C4_3 1_555 1_555
Mg8_3 O5_3 1_555 1_555
Mg6_3 O6_3 1_555 1_555
O5_3 C5_3 1_555 1_555
O6_3 C5_3 1_555 1_555
O9_3 Mg8_3 1_555 1_555
O14_3 Mg8_3 1_555 1_555
O16_3 Mg8_3 1_555 1_555
O12_3 Mg3_3 1_555 1_555
Mg6_3 O14_3 1_555 1_555
C7_3 H1_3 1_555 1_555
C1_3 C2_3 1_555 1_555
C2_3 C3_3 1_555 1_555
C3_3 C8_3 1_555 1_555
Mg1_3 O1_3 1_555 1_555
O1_3 C1_3 1_555 1_555
O2_3 C1_3 1_555 1_555
O4_3 Mg1_3 1_555 1_555
Mg4_3 O2_3 1_555 1_555
O8_3 Mg1_3 1_555 1_555
O11_3 C8_3 1_555 1_555
O13_3 Mg1_3 1_555 1_555
Mg4_3 O13_3 1_555 1_555
Mg7_3 O11_3 1_555 1_555
C3_3 H6_3 1_555 1_555
Mg4_3 O1_4 1_555 1_555
O4_4 Mg4_3 1_555 1_555
C1_4 C2_4 1_555 1_555
C2_4 C3_4 1_555 1_555
C3_4 C8_4 1_555 1_555
C4_4 C2_4 1_555 1_555
O8_3 C1_4 1_555 1_555
O13_3 C4_4 1_555 1_555
C5_4 C6_4 1_555 1_555
C6_4 C7_4 1_555 1_555
C7_4 C4_4 1_555 1_555
C8_4 C6_4 1_555 1_555
Mg7_2 O5_4 1_555 1_555
O5_4 C5_4 1_555 1_555
O10_2 C5_4 1_555 1_555
O11_4 C8_4 1_555 1_555
C7_4 H1_4 1_555 1_555
C1_5 C2_5 1_555 1_555
C2_5 C3_5 1_555 1_555
C3_5 C8_5 1_555 1_555
C4_5 C2_5 1_555 1_555
Mg3_2 O1_5 1_555 1_555
O1_5 C1_5 1_555 1_555
O7_2 C1_5 1_555 1_555
O12_4 C4_5 1_555 1_555
C5_5 C6_5 1_555 1_555
C6_5 C7_5 1_555 1_555
C7_5 C4_5 1_555 1_555
C8_5 C6_5 1_555 1_555
O9_3 C5_5 1_555 1_555
O14_3 C8_5 1_555 1_555
C3_5 H6_5 1_555 1_555
Mg6_3 O5_5 1_555 1_555
O16_5 Mg6_3 1_555 1_555
O16_5 H4 1_555 1_555
C1_6 C2_6 1_555 1_555
C2_6 C3_6 1_555 1_555
C3_6 C8_6 1_555 1_555
C4_6 C2_6 1_555 1_555
Mg3_3 O1_6 1_555 1_555
O1_6 C1_6 1_555 1_555
O7_3 C1_6 1_555 1_555
O13_4 C4_6 1_555 1_555
C5_6 C6_6 1_555 1_555
C6_6 C7_6 1_555 1_555
C7_6 C4_6 1_555 1_555
C8_6 C6_6 1_555 1_555
Mg7 O9 1_555 1_555
O9 C5_6 1_555 1_555
O14 C8_6 1_555 1_555
C3_6 H6_6 1_555 1_555
Mg6 O5_6 1_555 1_555
O14_5 Mg6 1_555 1_555
O16_6 Mg6 1_555 1_555
C1_7 C2_7 1_555 1_555
C2_7 C3_7 1_555 1_555
C3_7 C8_7 1_555 1_555
C4_7 C2_7 1_555 1_555
Mg3 O1_7 1_555 1_555
O1_7 C1_7 1_555 1_555
O7 C1_7 1_555 1_555
O12_5 C4_7 1_555 1_555
C5_7 C6_7 1_555 1_555
C6_7 C7_7 1_555 1_555
C7_7 C4_7 1_555 1_555
C8_7 C6_7 1_555 1_555
O9_2 C5_7 1_555 1_555
O8 Mg3 1_555 1_555
O14_2 C8_7 1_555 1_555
O12_5 Mg4 1_555 1_555
C3_7 H6_7 1_555 1_555
Mg6_2 O5_7 1_555 1_555
O16_7 Mg6_2 1_555 1_555
O16_7 H4_2 1_555 1_555
Mg4 O1_8 1_555 1_555
O4_8 Mg4 1_555 1_555
C1_8 C2_8 1_555 1_555
C2_8 C3_8 1_555 1_555
C3_8 C8_8 1_555 1_555
C4_8 C2_8 1_555 1_555
O8 C1_8 1_555 1_555
O13 C4_8 1_555 1_555
C5_8 C6_8 1_555 1_555
C6_8 C7_8 1_555 1_555
C7_8 C4_8 1_555 1_555
C8_8 C6_8 1_555 1_555
Mg7_3 O5_8 1_555 1_555
O5_8 C5_8 1_555 1_555
O10_3 C5_8 1_555 1_555
O14_4 C8_8 1_555 1_555
C7_8 H1_8 1_555 1_555
Mg4_2 O1_9 1_555 1_555
O4_9 Mg4_2 1_555 1_555
C1_9 C2_9 1_555 1_555
C2_9 C3_9 1_555 1_555
C3_9 C8_9 1_555 1_555
C4_9 C2_9 1_555 1_555
O8_2 C1_9 1_555 1_555
O13_2 C4_9 1_555 1_555
C5_9 C6_9 1_555 1_555
C6_9 C7_9 1_555 1_555
C7_9 C4_9 1_555 1_555
C8_9 C6_9 1_555 1_555
Mg7 O5_9 1_555 1_555
O5_9 C5_9 1_555 1_555
O10 C5_9 1_555 1_555
O14_5 C8_9 1_555 1_555
C7_9 H1_9 1_555 1_555
O4_4 H4_3 1_555 1_555
O4_9 H4_4 1_555 1_555

#END
