
###############################################################################
#
# This file contains modified crystal structure data generated from the
# MOF subset of the Cambridge Structural Database (CSD) v543 
# hosted by the Cambridge Crystallographic Data Centre (CCDC).
#
# This work is licensed under the Creative Commons
# Attribution-NonCommercial-ShareAlike 4.0 International License.
# To view a copy of this license, visit
# http://creativecommons.org/licenses/by-nc-sa/4.0/
# or send a letter to
# Creative Commons, PO Box 1866, Mountain View, CA 94042, USA.
#
# CIF created using the CSD Python API on 29 September 2022
# The structure has been converted into the P1 space group
# The structure has a 3D framework
# The original CSD entry VOJLOY is in the rhombohedral crystal system
# The framework has been calculated to contain at least 10.0% void space
# The void calculation uses a probe of radius 1.32A, grid spacing 0.4
#
###############################################################################

data_VOJLOY
_chemical_formula_moiety         '(C22 H22 Mn9 O32)n'
_symmetry_cell_setting           triclinic
_symmetry_space_group_name_H-M   'P 1'
_symmetry_Int_Tables_number      1
_space_group_name_Hall           'P 1'
loop_
_symmetry_equiv_pos_site_id
_symmetry_equiv_pos_as_xyz
1 x,y,z
_cell_length_a                   8.3281(4)
_cell_length_b                   8.3281(4)
_cell_length_c                   22.892(2)
_cell_angle_alpha                90
_cell_angle_beta                 90
_cell_angle_gamma                120
_cell_volume                     1375.01
loop_
_atom_site_label
_atom_site_type_symbol
_atom_site_fract_x
_atom_site_fract_y
_atom_site_fract_z
Mn1 Mn 0.0000 -0.0000 0.0000
O3 O 0.2204(7) 0.2105(10) 0.0547(2)
C2 C 0.2156(12) 0.3334(17) 0.0833
H2 H 0.1039 0.3333 0.0833
O4 O 0.3432(7) 0.4562(10) 0.1120(2)
Mn4 Mn 0.3333 0.6667 0.1667
Mn1_2 Mn 0.0000 -0.0000 1.0000
O7 O 0.0099(7) 0.2204(7) 0.9453(2)
Mn1_3 Mn 0.0000 1.0000 0.0000
C1 C 0.1178(12) 0.7844(12) 0.0833
H1 H 0.2294 0.8961 0.0833
O2 O 0.1129(7) 0.6568(7) 0.1120(2)
Mn1_4 Mn 0.0000 1.0000 1.0000
O9 O 0.2105(10) 0.9901(7) 0.9453(2)
Mn1_5 Mn 1.0000 -0.0000 0.0000
O5 O 0.7895(10) 0.0099(7) 0.0547(2)
Mn1_6 Mn 1.0000 -0.0000 1.0000
Mn1_7 Mn 1.0000 1.0000 0.0000
O1 O 0.9901(7) 0.7796(7) 0.0547(2)
C3 C 0.6666(17) 0.8822(12) 0.0833
H3 H 0.6667 0.7706 0.0833
O6 O 0.5438(10) 0.8871(7) 0.1120(2)
Mn1_8 Mn 1.0000 1.0000 1.0000
O8 O 0.7796(7) 0.7895(10) 0.9453(2)
Mn1_9 Mn -0.0000 0.0000 0.5000
O3_2 O 0.2105(10) 0.2204(7) 0.4453(2)
C2_2 C 0.3334(17) 0.2156(12) 0.4167
H2_2 H 0.3333 0.1039 0.4167
O4_2 O 0.4562(10) 0.3432(7) 0.3880(2)
Mn4_2 Mn 0.6667 0.3333 0.3333
O7_2 O 0.2204(7) 0.0099(7) 0.5547(2)
Mn1_10 Mn -0.0000 1.0000 0.5000
O5_2 O 0.0099(7) 0.7895(10) 0.4453(2)
Mn1_11 Mn 1.0000 0.0000 0.5000
C1_2 C 0.7844(12) 0.1178(12) 0.4167
H1_2 H 0.8961 0.2294 0.4167
O2_2 O 0.6568(7) 0.1129(7) 0.3880(2)
O9_2 O 0.9901(7) 0.2105(10) 0.5547(2)
Mn1_12 Mn 1.0000 1.0000 0.5000
O1_2 O 0.7796(7) 0.9901(7) 0.4453(2)
C3_2 C 0.8822(12) 0.6666(17) 0.4167
H3_2 H 0.7706 0.6667 0.4167
O6_2 O 0.8871(7) 0.5438(10) 0.3880(2)
O8_2 O 0.7895(10) 0.7796(7) 0.5547(2)
O7_3 O 0.6766(7) 0.5537(7) 0.2786(2)
O8_3 O 0.4463(7) 0.1228(10) 0.2786(2)
O9_3 O 0.8772(10) 0.3234(7) 0.2786(2)
C2_3 C 0.0001(17) 0.5489(12) 0.7500
H2_3 H -0.0000 0.4372 0.7500
O4_3 O 0.1228(10) 0.6766(7) 0.7214(2)
Mn4_3 Mn 0.3333 0.6667 0.6667
Mn1_13 Mn 0.6667 0.3333 0.8333
O1_3 O 0.4463(7) 0.3234(7) 0.7786(2)
C1_3 C 0.4511(12) 0.4511(12) 0.7500
H1_3 H 0.5628 0.5627 0.7500
O2_3 O 0.3234(7) 0.4463(7) 0.7214(2)
O3_3 O 0.8772(10) 0.5537(7) 0.7786(2)
C2_4 C 1.0001(17) 0.5489(12) 0.7500
H2_4 H 1.0000 0.4372 0.7500
O5_3 O 0.6766(7) 0.1228(10) 0.7786(2)
C3_3 C 0.5489(12) -0.0001(17) 0.7500
H3_3 H 0.4373 0.0000 0.7500
O7_4 O 0.8871(7) 0.3432(7) 0.8880(2)
O8_4 O 0.4562(10) 0.1129(7) 0.8880(2)
O9_4 O 0.6568(7) 0.5438(10) 0.8880(2)
C3_4 C 0.5489(12) 0.9999(17) 0.7500
H3_4 H 0.4373 1.0000 0.7500
O6_3 O 0.5537(7) 0.8772(10) 0.7214(2)
O7_5 O 0.3432(7) 0.8871(7) 0.6120(2)
O8_5 O 0.1129(7) 0.4562(10) 0.6120(2)
O9_5 O 0.5438(10) 0.6568(7) 0.6120(2)
O7_6 O 0.5537(7) 0.6766(7) 0.2214(2)
O8_6 O 0.1228(10) 0.4463(7) 0.2214(2)
O9_6 O 0.3234(7) 0.8772(10) 0.2214(2)
C3_5 C 0.3334(17) 0.1178(12) 0.9167
H3_5 H 0.3333 0.2294 0.9167
C1_4 C 0.8822(12) 0.2156(12) 0.9167
H1_4 H 0.7706 0.1039 0.9167
C2_5 C 0.7844(12) 0.6666(17) 0.9167
H2_5 H 0.8961 0.6667 0.9167
C3_6 C 0.1178(12) 0.3334(17) 0.5833
H3_6 H 0.2294 0.3333 0.5833
C1_5 C 0.2156(12) 0.8822(12) 0.5833
H1_5 H 0.1039 0.7706 0.5833
C2_6 C 0.6666(17) 0.7844(12) 0.5833
H2_6 H 0.6667 0.8961 0.5833
C3_7 C 0.4511(12) 0.0001(17) 0.2500
H3_7 H 0.5627 -0.0000 0.2500
C1_6 C 0.5489(12) 0.5489(12) 0.2500
H1_6 H 0.4372 0.4373 0.2500
C2_7 C -0.0001(17) 0.4511(12) 0.2500
H2_7 H 0.0000 0.5628 0.2500
C3_8 C 0.4511(12) 1.0001(17) 0.2500
H3_8 H 0.5627 1.0000 0.2500
C2_8 C 0.9999(17) 0.4511(12) 0.2500
H2_8 H 1.0000 0.5628 0.2500
loop_
_geom_bond_atom_site_label_1
_geom_bond_atom_site_label_2
_geom_bond_site_symmetry_1
_geom_bond_site_symmetry_2
O3 Mn1 1_555 1_555
C2 O3 1_555 1_555
H2 C2 1_555 1_555
O4 C2 1_555 1_555
Mn4 O4 1_555 1_555
O7 Mn1_2 1_555 1_555
C1 H1 1_555 1_555
O2 C1 1_555 1_555
Mn4 O2 1_555 1_555
O9 Mn1_4 1_555 1_555
O5 Mn1_5 1_555 1_555
Mn1_7 O1 1_555 1_555
H3 C3 1_555 1_555
O6 C3 1_555 1_555
Mn4 O6 1_555 1_555
O8 Mn1_8 1_555 1_555
O3_2 Mn1_9 1_555 1_555
C2_2 O3_2 1_555 1_555
H2_2 C2_2 1_555 1_555
O4_2 C2_2 1_555 1_555
Mn4_2 O4_2 1_555 1_555
O7_2 Mn1_9 1_555 1_555
O5_2 Mn1_10 1_555 1_555
C1_2 H1_2 1_555 1_555
O2_2 C1_2 1_555 1_555
Mn4_2 O2_2 1_555 1_555
O9_2 Mn1_11 1_555 1_555
Mn1_12 O1_2 1_555 1_555
H3_2 C3_2 1_555 1_555
O6_2 C3_2 1_555 1_555
Mn4_2 O6_2 1_555 1_555
O8_2 Mn1_12 1_555 1_555
O7_3 Mn4_2 1_555 1_555
O8_3 Mn4_2 1_555 1_555
O9_3 Mn4_2 1_555 1_555
H2_3 C2_3 1_555 1_555
O4_3 C2_3 1_555 1_555
Mn4_3 O4_3 1_555 1_555
Mn1_13 O1_3 1_555 1_555
O1_3 C1_3 1_555 1_555
C1_3 H1_3 1_555 1_555
O2_3 C1_3 1_555 1_555
O3_3 Mn1_13 1_555 1_555
C2_4 O3_3 1_555 1_555
H2_4 C2_4 1_555 1_555
O5_3 Mn1_13 1_555 1_555
C3_3 O5_3 1_555 1_555
H3_3 C3_3 1_555 1_555
Mn4_3 O2_3 1_555 1_555
O7_4 Mn1_13 1_555 1_555
O8_4 Mn1_13 1_555 1_555
O9_4 Mn1_13 1_555 1_555
H3_4 C3_4 1_555 1_555
O6_3 C3_4 1_555 1_555
Mn4_3 O6_3 1_555 1_555
O7_5 Mn4_3 1_555 1_555
O8_5 Mn4_3 1_555 1_555
O9_5 Mn4_3 1_555 1_555
O7_6 Mn4 1_555 1_555
O8_6 Mn4 1_555 1_555
O9_6 Mn4 1_555 1_555
H3_5 C3_5 1_555 1_555
O8_4 C3_5 1_555 1_555
C1_4 H1_4 1_555 1_555
O7_4 C1_4 1_555 1_555
C2_5 O8 1_555 1_555
H2_5 C2_5 1_555 1_555
O9_4 C2_5 1_555 1_555
H3_6 C3_6 1_555 1_555
O8_5 C3_6 1_555 1_555
C1_5 H1_5 1_555 1_555
O7_5 C1_5 1_555 1_555
C2_6 O8_2 1_555 1_555
H2_6 C2_6 1_555 1_555
O9_5 C2_6 1_555 1_555
H3_7 C3_7 1_555 1_555
O8_3 C3_7 1_555 1_555
O7_6 C1_6 1_555 1_555
C1_6 H1_6 1_555 1_555
O7_3 C1_6 1_555 1_555
C2_7 O8_6 1_555 1_555
H2_7 C2_7 1_555 1_555
C3_8 O9_6 1_555 1_555
H3_8 C3_8 1_555 1_555
H2_8 C2_8 1_555 1_555
O9_3 C2_8 1_555 1_555

#END
