
###############################################################################
#
# This file contains modified crystal structure data generated from the
# MOF subset of the Cambridge Structural Database (CSD) v543 
# hosted by the Cambridge Crystallographic Data Centre (CCDC).
#
# This work is licensed under the Creative Commons
# Attribution-NonCommercial-ShareAlike 4.0 International License.
# To view a copy of this license, visit
# http://creativecommons.org/licenses/by-nc-sa/4.0/
# or send a letter to
# Creative Commons, PO Box 1866, Mountain View, CA 94042, USA.
#
# CIF created using the CSD Python API on 29 September 2022
# The structure has been converted into the P1 space group
# The structure has a 3D framework
# The original CSD entry VOLPAP is in the orthorhombic crystal system
# The framework has been calculated to contain at least 10.0% void space
# The void calculation uses a probe of radius 1.32A, grid spacing 0.4
#
###############################################################################

data_VOLPAP
_chemical_formula_moiety         '(C96 H32 O61 S16 Zn17)n'
_symmetry_cell_setting           triclinic
_symmetry_space_group_name_H-M   'P 1'
_symmetry_Int_Tables_number      1
_space_group_name_Hall           'P 1'
loop_
_symmetry_equiv_pos_site_id
_symmetry_equiv_pos_as_xyz
1 x,y,z
_cell_length_a                   14.6561(5)
_cell_length_b                   23.4491(6)
_cell_length_c                   16.0392(7)
_cell_angle_alpha                90
_cell_angle_beta                 90
_cell_angle_gamma                90
_cell_volume                     5512.23
loop_
_atom_site_label
_atom_site_type_symbol
_atom_site_fract_x
_atom_site_fract_y
_atom_site_fract_z
Zn3 Zn 0.0000 0.5000 0.10651(6)
O13 O 0.0975(3) 0.52117(18) 0.1922(3)
O14 O 0.1610(3) 0.60588(17) 0.1619(3)
O15 O 0.3257(3) 0.43259(17) 0.4644(3)
O16 O 0.4040(3) 0.50883(16) 0.5069(3)
C1 C 0.3509(4) 0.4850(3) 0.4596(4)
C6 C 0.1547(4) 0.5603(3) 0.2021(4)
C9 C 0.3111(4) 0.5187(3) 0.3913(4)
C11 C 0.2821(5) 0.5917(3) 0.2982(5)
H4 H 0.2919 0.6267 0.2723
C12 C 0.3318(5) 0.5726(3) 0.3681(4)
H5 H 0.3747 0.5950 0.3957
C20 C 0.2185(4) 0.5538(2) 0.2727(4)
S2 S 0.22592(11) 0.49151(6) 0.32915(11)
O25 O 0.0571(3) 0.42013(17) 0.1155(3)
O26 O 0.0112(3) 0.34929(17) 0.0350(4)
O27 O 0.3050(3) 0.18477(17) 0.0472(4)
O28 O 0.4123(5) 0.2237(3) 0.1280(5)
C37 C 0.1578(4) 0.3473(2) 0.0902(5)
C38 C 0.2326(6) 0.3679(3) 0.1277(7)
H13 H 0.2365 0.4043 0.1504
C39 C 0.0680(4) 0.3755(2) 0.0789(4)
C40 C 0.2837(5) 0.2789(3) 0.0940(6)
C41 C 0.3381(6) 0.2232(3) 0.0883(6)
C42 C 0.3040(6) 0.3285(4) 0.1287(7)
H14 H 0.3608 0.3365 0.1517
S7 S 0.17482(11) 0.27905(6) 0.05587(14)
Zn7 Zn 0.11752(4) 0.63395(2) 0.05774(5)
Zn9 Zn 0.37262(4) 0.38570(2) 0.55613(5)
Zn12 Zn 0.37262(4) 0.11430(2) 0.05613(5)
Zn15 Zn 0.5000 0.5000 0.60548(6)
O37 O 0.0895(4) 0.5161(3) 0.0074(3)
Zn17 Zn 0.5000 -0.0000 0.10548(6)
Zn1 Zn 0.88248(4) 0.36605(2) 0.05774(5)
Zn3_2 Zn 1.0000 0.5000 0.10651(6)
O1 O 0.5033(2) 0.09134(15) 0.1048(3)
O3 O 0.8159(3) 0.29436(18) 0.0462(3)
O4 O 0.9058(4) 0.2519(3) 0.1382(5)
O8 O 0.9105(4) 0.4839(3) 0.0074(3)
O9 O 0.9429(3) 0.57987(17) 0.1155(3)
O10 O 0.9888(3) 0.65071(17) 0.0350(4)
O11 O 0.6950(3) 0.81523(17) 0.0472(4)
O12 O 0.5877(5) 0.7763(3) 0.1280(5)
C4 C 0.5436(4) 0.1276(2) 0.0544(6)
C5 C 0.8422(4) 0.6527(2) 0.0902(5)
C7 C 0.7674(6) 0.6321(3) 0.1277(7)
H1 H 0.7635 0.5957 0.1504
C10 C 0.6955(5) 0.1244(3) 0.1337(6)
H3 H 0.6855 0.0905 0.1623
C14 C 0.9320(4) 0.6245(2) 0.0789(4)
C15 C 0.7708(4) 0.2056(3) 0.0952(5)
C16 C 0.6359(4) 0.1464(2) 0.0771(4)
C17 C 0.7740(5) 0.1582(3) 0.1445(6)
H6 H 0.8218 0.1494 0.1805
C18 C 0.7163(5) 0.7211(3) 0.0940(6)
C22 C 0.8356(5) 0.2563(3) 0.0908(5)
C23 C 0.6619(6) 0.7768(3) 0.0883(6)
C24 C 0.6960(6) 0.6715(4) 0.1287(7)
H8 H 0.6392 0.6635 0.1517
S3 S 0.67438(11) 0.20883(6) 0.03939(12)
S4 S 0.82518(11) 0.72095(6) 0.05587(14)
O17 O 0.4967(2) 0.90866(15) 0.1048(3)
O19 O 0.1841(3) 0.70564(18) 0.0462(3)
O20 O 0.0942(4) 0.7481(3) 0.1382(5)
C27 C 0.4564(4) 0.8724(2) 0.0544(6)
C29 C 0.3045(5) 0.8756(3) 0.1337(6)
H10 H 0.3145 0.9095 0.1623
C31 C 0.2292(4) 0.7944(3) 0.0952(5)
C32 C 0.3641(4) 0.8536(2) 0.0771(4)
C33 C 0.2260(5) 0.8418(3) 0.1445(6)
H11 H 0.1782 0.8506 0.1805
C36 C 0.1644(5) 0.7437(3) 0.0908(5)
S6 S 0.32562(11) 0.79117(6) 0.03939(12)
O29 O 0.9025(3) 0.47883(18) 0.1922(3)
O30 O 0.8390(3) 0.39412(17) 0.1619(3)
O31 O 0.6743(3) 0.56741(17) 0.4644(3)
O32 O 0.5960(3) 0.49117(16) 0.5069(3)
C43 C 0.6491(4) 0.5150(3) 0.4596(4)
C44 C 0.8453(4) 0.4397(3) 0.2021(4)
C45 C 0.6889(4) 0.4813(3) 0.3913(4)
C46 C 0.7179(5) 0.4083(3) 0.2982(5)
H15 H 0.7081 0.3733 0.2723
C47 C 0.6682(5) 0.4274(3) 0.3681(4)
H16 H 0.6253 0.4050 0.3957
C48 C 0.7815(4) 0.4462(2) 0.2727(4)
S8 S 0.77408(11) 0.50849(6) 0.32915(11)
Zn8 Zn 0.62738(4) 0.61430(2) 0.55613(5)
Zn10 Zn 0.62738(4) 0.88570(2) 0.05613(5)
Zn17_2 Zn 0.5000 1.0000 0.10548(6)
O2 O 0.5053(3) 0.1484(2) 0.9927(4)
O5 O 0.6030(3) 0.50499(16) 0.6915(3)
O6 O 0.6860(3) 0.58247(19) 0.6566(3)
O7 O 0.8279(3) 0.4113(2) 0.9657(3)
C2 C 0.6672(4) 0.5393(2) 0.7004(4)
C3 C 0.8560(5) 0.4607(4) 0.9608(4)
C8 C 0.7964(5) 0.5682(3) 0.7976(5)
H2 H 0.8088 0.6030 0.7720
C13 C 0.8177(4) 0.4965(3) 0.8913(4)
C19 C 0.7312(4) 0.5319(3) 0.7705(4)
C21 C 0.8436(5) 0.5484(3) 0.8683(5)
H7 H 0.8882 0.5694 0.8959
S1 S 0.73168(10) 0.47069(7) 0.82984(11)
O18 O 0.4947(3) 0.8516(2) 0.9927(4)
O21 O 0.3970(3) 0.49501(16) 0.6915(3)
O22 O 0.3140(3) 0.41753(19) 0.6566(3)
O23 O 0.1721(3) 0.5887(2) 0.9657(3)
C25 C 0.3328(4) 0.4607(2) 0.7004(4)
C26 C 0.1440(5) 0.5393(4) 0.9608(4)
C28 C 0.2036(5) 0.4318(3) 0.7976(5)
H9 H 0.1912 0.3970 0.7720
C30 C 0.1823(4) 0.5035(3) 0.8913(4)
C34 C 0.2688(4) 0.4681(3) 0.7705(4)
C35 C 0.1564(5) 0.4516(3) 0.8683(5)
H12 H 0.1118 0.4306 0.8959
S5 S 0.26832(10) 0.52931(7) 0.82984(11)
O33 O 0.5033(2) 0.40866(15) 0.6048(3)
O34 O 0.4967(2) 0.59134(15) 0.6048(3)
O35 O 0.5053(3) 0.3516(2) 0.4927(4)
O36 O 0.4947(3) 0.6484(2) 0.4927(4)
O39 O 0.6950(3) 0.68477(17) 0.5472(4)
O40 O 0.3050(3) 0.31523(17) 0.5472(4)
Zn3_3 Zn 0.0000 0.0000 0.60651(6)
O15_2 O 0.3257(3) 0.06741(17) 0.9644(3)
C1_2 C 0.3509(4) 0.0150(3) 0.9596(4)
S2_2 S 0.22592(11) 0.00849(6) 0.82915(11)
O25_2 O 0.0571(3) 0.07987(17) 0.6155(3)
O26_2 O 0.0112(3) 0.15071(17) 0.5350(4)
O28_2 O 0.4123(5) 0.2763(3) 0.6280(5)
C37_2 C 0.1578(4) 0.1527(2) 0.5902(5)
C38_2 C 0.2326(6) 0.1321(3) 0.6277(7)
H13_2 H 0.2365 0.0957 0.6504
C39_2 C 0.0680(4) 0.1245(2) 0.5789(4)
C40_2 C 0.2837(5) 0.2211(3) 0.5940(6)
C41_2 C 0.3381(6) 0.2768(3) 0.5883(6)
C42_2 C 0.3040(6) 0.1715(4) 0.6287(7)
H14_2 H 0.3608 0.1635 0.6517
S7_2 S 0.17482(11) 0.22095(6) 0.55587(14)
O16_2 O 0.4040(3) 0.99117(16) 0.0069(3)
Zn3_4 Zn -0.0000 1.0000 0.60651(6)
O13_2 O 0.0975(3) 0.97883(18) 0.6922(3)
O14_2 O 0.1610(3) 0.89412(17) 0.6619(3)
C6_2 C 0.1547(4) 0.9397(3) 0.7021(4)
C9_2 C 0.3111(4) 0.9813(3) 0.8913(4)
C11_2 C 0.2821(5) 0.9083(3) 0.7982(5)
H4_2 H 0.2919 0.8733 0.7723
C12_2 C 0.3318(5) 0.9274(3) 0.8681(4)
H5_2 H 0.3747 0.9050 0.8957
C20_2 C 0.2185(4) 0.9462(2) 0.7727(4)
Zn7_2 Zn 0.11752(4) 0.86605(2) 0.55774(5)
O37_2 O 0.0895(4) 0.9839(3) 0.5074(3)
O32_2 O 0.5960(3) 0.00883(16) 0.0069(3)
Zn1_2 Zn 0.88248(4) 0.13395(2) 0.55774(5)
Zn3_5 Zn 1.0000 0.0000 0.60651(6)
O3_2 O 0.8159(3) 0.20564(18) 0.5462(3)
O4_2 O 0.9058(4) 0.2481(3) 0.6382(5)
O7_2 O 0.8279(3) 0.0887(2) 0.4657(3)
O8_2 O 0.9105(4) 0.0161(3) 0.5074(3)
C3_2 C 0.8560(5) 0.0393(4) 0.4608(4)
C4_2 C 0.5436(4) 0.3724(2) 0.5544(6)
C10_2 C 0.6955(5) 0.3756(3) 0.6337(6)
H3_2 H 0.6855 0.4095 0.6623
C13_2 C 0.8177(4) 0.0035(3) 0.3913(4)
C15_2 C 0.7708(4) 0.2944(3) 0.5952(5)
C16_2 C 0.6359(4) 0.3536(2) 0.5771(4)
C17_2 C 0.7740(5) 0.3418(3) 0.6445(6)
H6_2 H 0.8218 0.3506 0.6805
C22_2 C 0.8356(5) 0.2437(3) 0.5908(5)
S1_2 S 0.73168(10) 0.02931(7) 0.32984(11)
S3_2 S 0.67438(11) 0.29117(6) 0.53939(12)
O21_2 O 0.3970(3) 0.00499(16) 0.1915(3)
O22_2 O 0.3140(3) 0.08247(19) 0.1566(3)
C25_2 C 0.3328(4) 0.0393(2) 0.2004(4)
C28_2 C 0.2036(5) 0.0682(3) 0.2976(5)
H9_2 H 0.1912 0.1030 0.2720
C34_2 C 0.2688(4) 0.0319(3) 0.2705(4)
C35_2 C 0.1564(5) 0.0484(3) 0.3683(5)
H12_2 H 0.1118 0.0694 0.3959
O29_2 O 0.9025(3) 0.02117(18) 0.6922(3)
O30_2 O 0.8390(3) 0.10588(17) 0.6619(3)
C44_2 C 0.8453(4) 0.0603(3) 0.7021(4)
C45_2 C 0.6889(4) 0.0187(3) 0.8913(4)
C46_2 C 0.7179(5) 0.0917(3) 0.7982(5)
H15_2 H 0.7081 0.1267 0.7723
C47_2 C 0.6682(5) 0.0726(3) 0.8681(4)
H16_2 H 0.6253 0.0950 0.8957
C48_2 C 0.7815(4) 0.0538(2) 0.7727(4)
Zn3_6 Zn 1.0000 1.0000 0.60651(6)
O5_2 O 0.6030(3) 0.99501(16) 0.1915(3)
O6_2 O 0.6860(3) 0.91753(19) 0.1566(3)
O9_2 O 0.9429(3) 0.92013(17) 0.6155(3)
O10_2 O 0.9888(3) 0.84929(17) 0.5350(4)
O12_2 O 0.5877(5) 0.7237(3) 0.6280(5)
C2_2 C 0.6672(4) 0.9607(2) 0.2004(4)
C5_2 C 0.8422(4) 0.8473(2) 0.5902(5)
C7_2 C 0.7674(6) 0.8679(3) 0.6277(7)
H1_2 H 0.7635 0.9043 0.6504
C8_2 C 0.7964(5) 0.9318(3) 0.2976(5)
H2_2 H 0.8088 0.8970 0.2720
C14_2 C 0.9320(4) 0.8755(2) 0.5789(4)
C18_2 C 0.7163(5) 0.7789(3) 0.5940(6)
C19_2 C 0.7312(4) 0.9681(3) 0.2705(4)
C21_2 C 0.8436(5) 0.9516(3) 0.3683(5)
H7_2 H 0.8882 0.9306 0.3959
C23_2 C 0.6619(6) 0.7232(3) 0.5883(6)
C24_2 C 0.6960(6) 0.8285(4) 0.6287(7)
H8_2 H 0.6392 0.8365 0.6517
S4_2 S 0.82518(11) 0.77905(6) 0.55587(14)
O19_2 O 0.1841(3) 0.79436(18) 0.5462(3)
O20_2 O 0.0942(4) 0.7519(3) 0.6382(5)
O23_2 O 0.1721(3) 0.9113(2) 0.4657(3)
C26_2 C 0.1440(5) 0.9607(4) 0.4608(4)
C27_2 C 0.4564(4) 0.6276(2) 0.5544(6)
C29_2 C 0.3045(5) 0.6244(3) 0.6337(6)
H10_2 H 0.3145 0.5905 0.6623
C30_2 C 0.1823(4) 0.9965(3) 0.3913(4)
C31_2 C 0.2292(4) 0.7056(3) 0.5952(5)
C32_2 C 0.3641(4) 0.6464(2) 0.5771(4)
C33_2 C 0.2260(5) 0.6582(3) 0.6445(6)
H11_2 H 0.1782 0.6494 0.6805
C36_2 C 0.1644(5) 0.7563(3) 0.5908(5)
S5_2 S 0.26832(10) 0.97069(7) 0.32984(11)
S6_2 S 0.32562(11) 0.70883(6) 0.53939(12)
O31_2 O 0.6743(3) 0.93259(17) 0.9644(3)
C43_2 C 0.6491(4) 0.9850(3) 0.9596(4)
S8_2 S 0.77408(11) 0.99151(6) 0.82915(11)
loop_
_geom_bond_atom_site_label_1
_geom_bond_atom_site_label_2
_geom_bond_site_symmetry_1
_geom_bond_site_symmetry_2
O13 Zn3 1_555 1_555
O14 C6 1_555 1_555
O15 C1 1_555 1_555
O16 C1 1_555 1_555
C1 C9 1_555 1_555
C6 O13 1_555 1_555
C9 C12 1_555 1_555
C11 H4 1_555 1_555
C12 C11 1_555 1_555
H5 C12 1_555 1_555
C20 C6 1_555 1_555
S2 C9 1_555 1_555
O25 Zn3 1_555 1_555
O27 C41 1_555 1_555
O28 C41 1_555 1_555
C37 C38 1_555 1_555
C38 H13 1_555 1_555
C39 O25 1_555 1_555
C40 C41 1_555 1_555
C42 C38 1_555 1_555
H14 C42 1_555 1_555
S7 C37 1_555 1_555
Zn9 O15 1_555 1_555
Zn12 O27 1_555 1_555
Zn15 O16 1_555 1_555
O37 Zn3 1_555 1_555
O14 Zn7 1_555 1_555
C11 C20 1_555 1_555
C20 S2 1_555 1_555
O26 C39 1_555 1_555
C37 C39 1_555 1_555
C40 C42 1_555 1_555
C40 S7 1_555 1_555
Zn1 O3 1_555 1_555
Zn3_2 O8 1_555 1_555
O1 C4 1_555 1_555
O3 C22 1_555 1_555
O4 C22 1_555 1_555
O9 Zn3_2 1_555 1_555
O10 C14 1_555 1_555
O11 C23 1_555 1_555
O12 C23 1_555 1_555
C4 C16 1_555 1_555
C5 C7 1_555 1_555
C7 H1 1_555 1_555
C10 H3 1_555 1_555
C14 O9 1_555 1_555
C15 C17 1_555 1_555
C16 C10 1_555 1_555
C17 C10 1_555 1_555
H6 C17 1_555 1_555
C18 C23 1_555 1_555
C22 C15 1_555 1_555
C24 C7 1_555 1_555
H8 C24 1_555 1_555
S3 C15 1_555 1_555
S4 C5 1_555 1_555
Zn7 O19 1_555 1_555
O17 C27 1_555 1_555
O19 C36 1_555 1_555
O20 C36 1_555 1_555
C27 C32 1_555 1_555
C29 H10 1_555 1_555
C31 C33 1_555 1_555
C32 C29 1_555 1_555
C33 C29 1_555 1_555
H11 C33 1_555 1_555
C36 C31 1_555 1_555
S6 C31 1_555 1_555
O29 Zn3_2 1_555 1_555
O30 Zn1 1_555 1_555
O31 C43 1_555 1_555
O32 C43 1_555 1_555
C43 C45 1_555 1_555
C44 O29 1_555 1_555
C45 C47 1_555 1_555
C46 H15 1_555 1_555
C47 C46 1_555 1_555
H16 C47 1_555 1_555
C48 C44 1_555 1_555
S8 C45 1_555 1_555
Zn8 O31 1_555 1_555
Zn10 O11 1_555 1_555
Zn12 O1 1_555 1_555
Zn15 O32 1_555 1_555
Zn17 O1 1_555 1_555
Zn17_2 O17 1_555 1_555
C5 C14 1_555 1_555
C16 S3 1_555 1_555
C18 C24 1_555 1_555
C18 S4 1_555 1_555
O17 Zn10 1_555 1_555
C32 S6 1_555 1_555
O30 C44 1_555 1_555
C46 C48 1_555 1_555
C48 S8 1_555 1_555
Zn8 O6 1_555 1_555
Zn15 O5 1_555 1_555
O5 C2 1_555 1_555
O6 C2 1_555 1_555
C2 C19 1_555 1_555
C3 O7 1_555 1_555
C8 H2 1_555 1_555
C13 C3 1_555 1_555
C19 C8 1_555 1_555
C21 C8 1_555 1_555
H7 C21 1_555 1_555
S1 C13 1_555 1_555
Zn9 O22 1_555 1_555
O21 Zn15 1_555 1_555
O22 C25 1_555 1_555
C25 O21 1_555 1_555
C26 O23 1_555 1_555
C28 H9 1_555 1_555
C30 C26 1_555 1_555
C34 C25 1_555 1_555
C35 C28 1_555 1_555
H12 C35 1_555 1_555
S5 C30 1_555 1_555
O33 Zn15 1_555 1_555
O34 Zn8 1_555 1_555
O35 Zn9 1_555 1_555
O36 Zn8 1_555 1_555
O39 Zn8 1_555 1_555
O40 Zn9 1_555 1_555
Zn15 O34 1_555 1_555
C13 C21 1_555 1_555
C19 S1 1_555 1_555
Zn9 O33 1_555 1_555
C28 C34 1_555 1_555
C30 C35 1_555 1_555
C34 S5 1_555 1_555
O15_2 C1_2 1_555 1_555
O25_2 Zn3_3 1_555 1_555
O40 C41_2 1_555 1_555
O28_2 C41_2 1_555 1_555
C37_2 C38_2 1_555 1_555
C38_2 H13_2 1_555 1_555
C39_2 O25_2 1_555 1_555
C40_2 C41_2 1_555 1_555
C42_2 C38_2 1_555 1_555
H14_2 C42_2 1_555 1_555
S7_2 C37_2 1_555 1_555
O26_2 C39_2 1_555 1_555
C37_2 C39_2 1_555 1_555
C40_2 C42_2 1_555 1_555
C40_2 S7_2 1_555 1_555
Zn17_2 O16_2 1_555 1_555
O13_2 Zn3_4 1_555 1_555
O14_2 C6_2 1_555 1_555
C6_2 O13_2 1_555 1_555
C9_2 C12_2 1_555 1_555
C11_2 H4_2 1_555 1_555
C12_2 C11_2 1_555 1_555
H5_2 C12_2 1_555 1_555
C20_2 C6_2 1_555 1_555
O37_2 Zn3_4 1_555 1_555
O14_2 Zn7_2 1_555 1_555
C11_2 C20_2 1_555 1_555
Zn17 O32_2 1_555 1_555
Zn1_2 O3_2 1_555 1_555
Zn3_5 O8_2 1_555 1_555
O33 C4_2 1_555 1_555
O35 C4_2 1_555 1_555
O3_2 C22_2 1_555 1_555
O4_2 C22_2 1_555 1_555
O7_2 Zn1_2 1_555 1_555
O8_2 C3_2 1_555 1_555
C3_2 O7_2 1_555 1_555
C4_2 C16_2 1_555 1_555
C10_2 H3_2 1_555 1_555
C13_2 C3_2 1_555 1_555
C15_2 C17_2 1_555 1_555
C16_2 C10_2 1_555 1_555
C17_2 C10_2 1_555 1_555
H6_2 C17_2 1_555 1_555
C22_2 C15_2 1_555 1_555
S1_2 C13_2 1_555 1_555
S3_2 C15_2 1_555 1_555
Zn12 O22_2 1_555 1_555
O21_2 Zn17 1_555 1_555
O22_2 C25_2 1_555 1_555
C25_2 O21_2 1_555 1_555
C28_2 H9_2 1_555 1_555
C34_2 C25_2 1_555 1_555
C35_2 C28_2 1_555 1_555
H12_2 C35_2 1_555 1_555
O29_2 Zn3_5 1_555 1_555
O30_2 Zn1_2 1_555 1_555
C44_2 O29_2 1_555 1_555
C45_2 C47_2 1_555 1_555
C46_2 H15_2 1_555 1_555
C47_2 C46_2 1_555 1_555
H16_2 C47_2 1_555 1_555
C48_2 C44_2 1_555 1_555
C16_2 S3_2 1_555 1_555
C28_2 C34_2 1_555 1_555
O30_2 C44_2 1_555 1_555
C46_2 C48_2 1_555 1_555
Zn10 O6_2 1_555 1_555
Zn17_2 O5_2 1_555 1_555
O5_2 C2_2 1_555 1_555
O6_2 C2_2 1_555 1_555
O9_2 Zn3_6 1_555 1_555
O10_2 C14_2 1_555 1_555
O39 C23_2 1_555 1_555
O12_2 C23_2 1_555 1_555
C2_2 C19_2 1_555 1_555
C5_2 C7_2 1_555 1_555
C7_2 H1_2 1_555 1_555
C8_2 H2_2 1_555 1_555
C14_2 O9_2 1_555 1_555
C18_2 C23_2 1_555 1_555
C19_2 C8_2 1_555 1_555
C21_2 C8_2 1_555 1_555
H7_2 C21_2 1_555 1_555
C24_2 C7_2 1_555 1_555
H8_2 C24_2 1_555 1_555
S4_2 C5_2 1_555 1_555
Zn7_2 O19_2 1_555 1_555
O34 C27_2 1_555 1_555
O36 C27_2 1_555 1_555
O19_2 C36_2 1_555 1_555
O20_2 C36_2 1_555 1_555
O23_2 Zn7_2 1_555 1_555
O37_2 C26_2 1_555 1_555
C26_2 O23_2 1_555 1_555
C27_2 C32_2 1_555 1_555
C29_2 H10_2 1_555 1_555
C30_2 C26_2 1_555 1_555
C31_2 C33_2 1_555 1_555
C32_2 C29_2 1_555 1_555
C33_2 C29_2 1_555 1_555
H11_2 C33_2 1_555 1_555
C36_2 C31_2 1_555 1_555
S5_2 C30_2 1_555 1_555
S6_2 C31_2 1_555 1_555
O31_2 C43_2 1_555 1_555
C5_2 C14_2 1_555 1_555
C18_2 C24_2 1_555 1_555
C18_2 S4_2 1_555 1_555
C32_2 S6_2 1_555 1_555

#END
