
###############################################################################
#
# This file contains modified crystal structure data generated from the
# MOF subset of the Cambridge Structural Database (CSD) v543 
# hosted by the Cambridge Crystallographic Data Centre (CCDC).
#
# This work is licensed under the Creative Commons
# Attribution-NonCommercial-ShareAlike 4.0 International License.
# To view a copy of this license, visit
# http://creativecommons.org/licenses/by-nc-sa/4.0/
# or send a letter to
# Creative Commons, PO Box 1866, Mountain View, CA 94042, USA.
#
# CIF created using the CSD Python API on 29 September 2022
# The structure has been converted into the P1 space group
# The structure has a 3D framework
# The original CSD entry VORBIO is in the monoclinic crystal system
# The framework has been calculated to contain at least 10.0% void space
# The void calculation uses a probe of radius 1.32A, grid spacing 0.4
#
###############################################################################

data_VORBIO
_chemical_formula_moiety         '(C48 H48 Mn18 O72)n'
_symmetry_cell_setting           triclinic
_symmetry_space_group_name_H-M   'P 1'
_symmetry_Int_Tables_number      1
_space_group_name_Hall           'P 1'
loop_
_symmetry_equiv_pos_site_id
_symmetry_equiv_pos_as_xyz
1 x,y,z
_cell_length_a                   11.5921(2)
_cell_length_b                   11.8471(2)
_cell_length_c                   16.5666(7)
_cell_angle_alpha                90
_cell_angle_beta                 90.084(1)
_cell_angle_gamma                90
_cell_volume                     2275.13
loop_
_atom_site_label
_atom_site_type_symbol
_atom_site_fract_x
_atom_site_fract_y
_atom_site_fract_z
Mn5 Mn 0.2500 0.2500 0.0000
Mn10 Mn 0.0000 0.50860(3) 0.2500
Mn3 Mn 0.0000 0.49140(3) 0.7500
O6 O 0.18034(10) 0.07779(10) 0.99444(9)
C6 C 0.08123(14) 0.03576(14) 0.99754(12)
Mn5_2 Mn 0.2500 0.2500 1.0000
O12 O 0.11181(12) 0.36195(11) 0.69979(7)
O17 O 0.11822(12) 0.61680(12) 0.70032(8)
O25 O 0.07866(12) 0.49202(10) 0.86726(8)
H11 H 0.1205(15) 0.4254(9) 0.8823(14)
H12 H 0.1301(14) 0.5527(10) 0.8801(14)
Mn4 Mn 0.2500 0.7500 0.0000
O18 O 0.07924(10) 0.82348(10) 0.00473(9)
C11 C 0.03701(15) 0.92058(14) 0.00221(11)
Mn4_2 Mn 0.2500 0.7500 1.0000
Mn1 Mn 0.7500 0.2500 0.0000
O7 O 0.66944(12) 0.09739(10) 0.04113(8)
H1 H 0.7073(19) 0.0258(11) 0.0401(13)
H2 H 0.6353(18) 0.1034(17) 0.0932(7)
Mn7 Mn 0.7500 0.2500 0.5000
Mn9 Mn 0.5000 0.00860(3) 0.2500
Mn10_2 Mn 1.0000 0.50860(3) 0.2500
O10 O 0.79324(12) 0.31326(11) 0.12066(7)
O11 O 0.61181(12) 0.13805(11) 0.19979(7)
O13 O 0.69377(12) 0.21316(12) 0.37813(7)
O15 O 0.88178(12) 0.38320(12) 0.29968(8)
O19 O 0.57924(10) 0.32348(10) 0.00473(9)
C7 C 0.76617(15) 0.28490(15) 0.19115(10)
C8 C 0.68391(15) 0.20657(14) 0.22756(10)
C9 C 0.72220(15) 0.24096(14) 0.30811(10)
C10 C 0.80590(15) 0.31814(14) 0.27175(10)
Mn1_2 Mn 0.7500 0.2500 1.0000
Mn3_2 Mn 1.0000 0.49140(3) 0.7500
O1 O 0.70676(12) 0.18674(11) 0.87934(7)
O2 O 0.88819(12) 0.36195(11) 0.80021(7)
O3 O 0.80623(12) 0.28684(12) 0.62187(7)
O4 O 0.61822(12) 0.11680(12) 0.70032(8)
O5 O 0.92076(10) 0.17652(10) 0.99527(9)
O8 O 0.90821(11) 0.32748(11) 0.46212(8)
H3 H 0.9154(18) 0.3510(19) 0.4078(6)
H4 H 0.9787(12) 0.2929(19) 0.4773(12)
O9 O 0.92134(12) 0.49202(10) 0.63274(8)
H5 H 0.8795(15) 0.4254(9) 0.6177(14)
H6 H 0.8699(14) 0.5527(10) 0.6199(14)
C1 C 0.73383(15) 0.21510(15) 0.80885(10)
C2 C 0.81609(15) 0.29343(14) 0.77244(10)
C3 C 0.77780(15) 0.25904(14) 0.69189(10)
C4 C 0.69410(15) 0.18186(14) 0.72825(10)
C5 C 0.96299(15) 0.07942(14) 0.99779(11)
O16 O 0.88178(12) 0.61680(12) 0.79968(8)
O21 O 0.68034(10) 0.42221(10) 0.49444(9)
O22 O 0.81966(10) 0.07779(10) 0.50556(9)
O23 O 0.83056(12) 0.40261(10) 0.95887(8)
H7 H 0.7927(19) 0.4742(11) 0.9599(13)
H8 H 0.8647(18) 0.3966(17) 0.9068(7)
O24 O 0.59179(11) 0.17252(11) 0.53788(8)
H9 H 0.5846(18) 0.1490(19) 0.5922(6)
H10 H 0.5213(12) 0.2071(19) 0.5227(12)
Mn6 Mn 0.7500 0.7500 0.0000
O20 O 0.81966(10) 0.92221(10) 0.00556(9)
C12 C 0.91877(14) 0.96424(14) 0.00246(12)
Mn6_2 Mn 0.7500 0.7500 1.0000
Mn8 Mn 0.5000 0.99140(3) 0.7500
H6_2 H 0.3699(14) 0.0527(10) 0.6199(14)
O16_2 O 0.38178(12) 0.11680(12) 0.79968(8)
H12_2 H 0.6301(14) 0.0527(10) 0.8801(14)
O7_2 O 0.16944(12) 0.59739(10) 0.04113(8)
H1_2 H 0.2073(19) 0.5258(11) 0.0401(13)
H2_2 H 0.1353(18) 0.6034(17) 0.0932(7)
Mn7_2 Mn 0.2500 0.7500 0.5000
O10_2 O 0.29324(12) 0.81326(11) 0.12066(7)
O11_2 O 0.11181(12) 0.63805(11) 0.19979(7)
O13_2 O 0.19377(12) 0.71316(12) 0.37813(7)
O15_2 O 0.38178(12) 0.88320(12) 0.29968(8)
O20_2 O 0.31966(10) 0.42221(10) 0.00556(9)
C7_2 C 0.26617(15) 0.78490(15) 0.19115(10)
C8_2 C 0.18391(15) 0.70657(14) 0.22756(10)
C9_2 C 0.22220(15) 0.74096(14) 0.30811(10)
C10_2 C 0.30590(15) 0.81814(14) 0.27175(10)
C11_2 C 0.53701(15) 0.42058(14) 0.00221(11)
C12_2 C 0.41877(14) 0.46424(14) 0.00246(12)
O1_2 O 0.20676(12) 0.68674(11) 0.87934(7)
O2_2 O 0.38819(12) 0.86195(11) 0.80021(7)
O3_2 O 0.30623(12) 0.78684(12) 0.62187(7)
O5_2 O 0.42076(10) 0.67652(10) 0.99527(9)
O6_2 O 0.68034(10) 0.57779(10) 0.99444(9)
O8_2 O 0.40821(11) 0.82748(11) 0.46212(8)
H3_2 H 0.4154(18) 0.8510(19) 0.4078(6)
H4_2 H 0.4787(12) 0.7929(19) 0.4773(12)
O9_2 O 0.42134(12) 0.99202(10) 0.63274(8)
H5_2 H 0.3795(15) 0.9254(9) 0.6177(14)
C1_2 C 0.23383(15) 0.71510(15) 0.80885(10)
C2_2 C 0.31609(15) 0.79343(14) 0.77244(10)
C3_2 C 0.27780(15) 0.75904(14) 0.69189(10)
C4_2 C 0.19410(15) 0.68186(14) 0.72825(10)
C5_2 C 0.46299(15) 0.57942(14) 0.99779(11)
C6_2 C 0.58123(14) 0.53576(14) 0.99754(12)
O12_2 O 0.61181(12) 0.86195(11) 0.69979(7)
O21_2 O 0.18034(10) 0.92221(10) 0.49444(9)
O22_2 O 0.31966(10) 0.57779(10) 0.50556(9)
O23_2 O 0.33056(12) 0.90261(10) 0.95887(8)
H7_2 H 0.2927(19) 0.9742(11) 0.9599(13)
H8_2 H 0.3647(18) 0.8966(17) 0.9068(7)
O24_2 O 0.09179(11) 0.67252(11) 0.53788(8)
H9_2 H 0.0846(18) 0.6490(19) 0.5922(6)
H10_2 H 0.0213(12) 0.7071(19) 0.5227(12)
O25_2 O 0.57866(12) 0.99202(10) 0.86726(8)
H11_2 H 0.6205(15) 0.9254(9) 0.8823(14)
O8_3 O 0.09179(11) 0.32748(11) 0.03788(8)
H3_3 H 0.0846(18) 0.3510(19) 0.0922(6)
H4_3 H 0.0213(12) 0.2929(19) 0.0227(12)
O14 O 0.30623(12) 0.21316(12) 0.12187(7)
Mn1_3 Mn 0.2500 0.2500 0.5000
O1_3 O 0.29324(12) 0.18674(11) 0.62066(7)
O3_3 O 0.19377(12) 0.28684(12) 0.87813(7)
O5_3 O 0.07924(10) 0.17652(10) 0.50473(9)
O7_3 O 0.33056(12) 0.09739(10) 0.45887(8)
H1_3 H 0.2927(19) 0.0258(11) 0.4599(13)
H2_3 H 0.3647(18) 0.1034(17) 0.4068(7)
C1_3 C 0.26617(15) 0.21510(15) 0.69115(10)
C2_3 C 0.18391(15) 0.29343(14) 0.72756(10)
C3_3 C 0.22220(15) 0.25904(14) 0.80811(10)
C4_3 C 0.30590(15) 0.18186(14) 0.77175(10)
C5_3 C 0.03701(15) 0.07942(14) 0.50221(11)
O10_3 O 0.20676(12) 0.31326(11) 0.37934(7)
O11_3 O 0.38819(12) 0.13805(11) 0.30021(7)
O15_3 O 0.11822(12) 0.38320(12) 0.20032(8)
O19_2 O 0.42076(10) 0.32348(10) 0.49527(9)
O23_3 O 0.16944(12) 0.40261(10) 0.54113(8)
H7_3 H 0.2073(19) 0.4742(11) 0.5401(13)
H8_3 H 0.1353(18) 0.3966(17) 0.5932(7)
O24_3 O 0.40821(11) 0.17252(11) 0.96212(8)
H9_3 H 0.4154(18) 0.1490(19) 0.9078(6)
H10_3 H 0.4787(12) 0.2071(19) 0.9773(12)
C7_3 C 0.23383(15) 0.28490(15) 0.30885(10)
C8_3 C 0.31609(15) 0.20657(14) 0.27244(10)
C9_3 C 0.27780(15) 0.24096(14) 0.19189(10)
C10_3 C 0.19410(15) 0.31814(14) 0.22825(10)
C12_3 C 0.08123(14) 0.96424(14) 0.49754(12)
C6_3 C 0.91877(14) 0.03576(14) 0.50246(12)
Mn4_3 Mn 0.7500 0.7500 0.5000
O18_2 O 0.92076(10) 0.82348(10) 0.49527(9)
C11_3 C 0.96299(15) 0.92058(14) 0.49779(11)
O8_4 O 0.59179(11) 0.82748(11) 0.03788(8)
H3_4 H 0.5846(18) 0.8510(19) 0.0922(6)
H4_4 H 0.5213(12) 0.7929(19) 0.0227(12)
O14_2 O 0.80623(12) 0.71316(12) 0.12187(7)
O1_4 O 0.79324(12) 0.68674(11) 0.62066(7)
O3_4 O 0.69377(12) 0.78684(12) 0.87813(7)
O5_4 O 0.57924(10) 0.67652(10) 0.50473(9)
O7_4 O 0.83056(12) 0.59739(10) 0.45887(8)
H1_4 H 0.7927(19) 0.5258(11) 0.4599(13)
H2_4 H 0.8647(18) 0.6034(17) 0.4068(7)
C1_4 C 0.76617(15) 0.71510(15) 0.69115(10)
C2_4 C 0.68391(15) 0.79343(14) 0.72756(10)
C3_4 C 0.72220(15) 0.75904(14) 0.80811(10)
C4_4 C 0.80590(15) 0.68186(14) 0.77175(10)
C5_4 C 0.53701(15) 0.57942(14) 0.50221(11)
C6_4 C 0.41877(14) 0.53576(14) 0.50246(12)
O10_4 O 0.70676(12) 0.81326(11) 0.37934(7)
O11_4 O 0.88819(12) 0.63805(11) 0.30021(7)
O15_4 O 0.61822(12) 0.88320(12) 0.20032(8)
O23_4 O 0.66944(12) 0.90261(10) 0.54113(8)
H7_4 H 0.7073(19) 0.9742(11) 0.5401(13)
H8_4 H 0.6353(18) 0.8966(17) 0.5932(7)
O24_4 O 0.90821(11) 0.67252(11) 0.96212(8)
H9_4 H 0.9154(18) 0.6490(19) 0.9078(6)
H10_4 H 0.9787(12) 0.7071(19) 0.9773(12)
C7_4 C 0.73383(15) 0.78490(15) 0.30885(10)
C8_4 C 0.81609(15) 0.70657(14) 0.27244(10)
C9_4 C 0.77780(15) 0.74096(14) 0.19189(10)
C10_4 C 0.69410(15) 0.81814(14) 0.22825(10)
C11_4 C 0.46299(15) 0.42058(14) 0.49779(11)
C12_4 C 0.58123(14) 0.46424(14) 0.49754(12)
O9_3 O 0.07866(12) 0.50798(10) 0.36726(8)
H5_3 H 0.1205(15) 0.5746(9) 0.3823(14)
H6_3 H 0.1301(14) 0.4473(10) 0.3801(14)
O25_3 O 0.92134(12) 0.50798(10) 0.13274(8)
H11_3 H 0.8795(15) 0.5746(9) 0.1177(14)
H12_3 H 0.8699(14) 0.4473(10) 0.1199(14)
O9_4 O 0.57866(12) 0.00798(10) 0.36726(8)
H5_4 H 0.6205(15) 0.0746(9) 0.3823(14)
O25_4 O 0.42134(12) 0.00798(10) 0.13274(8)
H11_4 H 0.3795(15) 0.0746(9) 0.1177(14)
H6_4 H 0.6301(14) 0.9473(10) 0.3801(14)
H12_4 H 0.3699(14) 0.9473(10) 0.1199(14)
loop_
_geom_bond_atom_site_label_1
_geom_bond_atom_site_label_2
_geom_bond_site_symmetry_1
_geom_bond_site_symmetry_2
O6 C6 1_555 1_555
Mn5_2 O6 1_555 1_555
O12 Mn3 1_555 1_555
O17 Mn3 1_555 1_555
O25 Mn3 1_555 1_555
H11 O25 1_555 1_555
H12 O25 1_555 1_555
Mn4 O18 1_555 1_555
O18 C11 1_555 1_555
O7 Mn1 1_555 1_555
H1 O7 1_555 1_555
H2 O7 1_555 1_555
Mn7 O13 1_555 1_555
Mn9 O11 1_555 1_555
Mn10_2 O15 1_555 1_555
O10 Mn1 1_555 1_555
O11 C8 1_555 1_555
O13 C9 1_555 1_555
O15 C10 1_555 1_555
O19 Mn1 1_555 1_555
C7 O10 1_555 1_555
C8 C7 1_555 1_555
C9 C8 1_555 1_555
C10 C7 1_555 1_555
C9 C10 1_555 1_555
Mn1_2 O1 1_555 1_555
Mn7 O3 1_555 1_555
Mn3_2 O2 1_555 1_555
O1 C1 1_555 1_555
O2 C2 1_555 1_555
O3 C3 1_555 1_555
O4 C4 1_555 1_555
O5 Mn1_2 1_555 1_555
O8 Mn7 1_555 1_555
H3 O8 1_555 1_555
H4 O8 1_555 1_555
O9 Mn3_2 1_555 1_555
H5 O9 1_555 1_555
H6 O9 1_555 1_555
C1 C2 1_555 1_555
C2 C3 1_555 1_555
C3 C4 1_555 1_555
C4 C1 1_555 1_555
C5 O5 1_555 1_555
O16 Mn3_2 1_555 1_555
O21 Mn7 1_555 1_555
O22 Mn7 1_555 1_555
O23 Mn1_2 1_555 1_555
H7 O23 1_555 1_555
H8 O23 1_555 1_555
O24 Mn7 1_555 1_555
H9 O24 1_555 1_555
H10 O24 1_555 1_555
Mn6 O20 1_555 1_555
O20 C12 1_555 1_555
O7_2 Mn4 1_555 1_555
H1_2 O7_2 1_555 1_555
H2_2 O7_2 1_555 1_555
Mn5 O20_2 1_555 1_555
Mn7_2 O13_2 1_555 1_555
Mn10 O11_2 1_555 1_555
O10_2 Mn4 1_555 1_555
O11_2 C8_2 1_555 1_555
O13_2 C9_2 1_555 1_555
O15_2 C10_2 1_555 1_555
O19 C11_2 1_555 1_555
O20_2 C12_2 1_555 1_555
C7_2 O10_2 1_555 1_555
C8_2 C7_2 1_555 1_555
C9_2 C8_2 1_555 1_555
C10_2 C7_2 1_555 1_555
C9_2 C10_2 1_555 1_555
C11_2 C12_2 1_555 1_555
Mn4_2 O1_2 1_555 1_555
Mn7_2 O3_2 1_555 1_555
Mn8 O2_2 1_555 1_555
O1_2 C1_2 1_555 1_555
O2_2 C2_2 1_555 1_555
O3_2 C3_2 1_555 1_555
O17 C4_2 1_555 1_555
O5_2 Mn4_2 1_555 1_555
O6_2 C6_2 1_555 1_555
O8_2 Mn7_2 1_555 1_555
H3_2 O8_2 1_555 1_555
H4_2 O8_2 1_555 1_555
O9_2 Mn8 1_555 1_555
H5_2 O9_2 1_555 1_555
C1_2 C2_2 1_555 1_555
C2_2 C3_2 1_555 1_555
C3_2 C4_2 1_555 1_555
C4_2 C1_2 1_555 1_555
C5_2 O5_2 1_555 1_555
C6_2 C5_2 1_555 1_555
Mn6_2 O6_2 1_555 1_555
O12_2 Mn8 1_555 1_555
O21_2 Mn7_2 1_555 1_555
O22_2 Mn7_2 1_555 1_555
O23_2 Mn4_2 1_555 1_555
H7_2 O23_2 1_555 1_555
H8_2 O23_2 1_555 1_555
O24_2 Mn7_2 1_555 1_555
H9_2 O24_2 1_555 1_555
H10_2 O24_2 1_555 1_555
O25_2 Mn8 1_555 1_555
H11_2 O25_2 1_555 1_555
O8_3 Mn5 1_555 1_555
H3_3 O8_3 1_555 1_555
H4_3 O8_3 1_555 1_555
O14 Mn5 1_555 1_555
Mn1_3 O1_3 1_555 1_555
Mn5_2 O3_3 1_555 1_555
O1_3 C1_3 1_555 1_555
O12 C2_3 1_555 1_555
O3_3 C3_3 1_555 1_555
O16_2 C4_3 1_555 1_555
O5_3 Mn1_3 1_555 1_555
O7_3 Mn1_3 1_555 1_555
H1_3 O7_3 1_555 1_555
H2_3 O7_3 1_555 1_555
C1_3 C2_3 1_555 1_555
C2_3 C3_3 1_555 1_555
C3_3 C4_3 1_555 1_555
C4_3 C1_3 1_555 1_555
C5_3 O5_3 1_555 1_555
Mn9 O11_3 1_555 1_555
Mn10 O15_3 1_555 1_555
O10_3 Mn1_3 1_555 1_555
O11_3 C8_3 1_555 1_555
O14 C9_3 1_555 1_555
O15_3 C10_3 1_555 1_555
O19_2 Mn1_3 1_555 1_555
O23_3 Mn1_3 1_555 1_555
H7_3 O23_3 1_555 1_555
H8_3 O23_3 1_555 1_555
O24_3 Mn5_2 1_555 1_555
H9_3 O24_3 1_555 1_555
H10_3 O24_3 1_555 1_555
C7_3 O10_3 1_555 1_555
C8_3 C7_3 1_555 1_555
C9_3 C8_3 1_555 1_555
C10_3 C7_3 1_555 1_555
C9_3 C10_3 1_555 1_555
O21_2 C12_3 1_555 1_555
O22 C6_3 1_555 1_555
Mn4_3 O18_2 1_555 1_555
O18_2 C11_3 1_555 1_555
O8_4 Mn6 1_555 1_555
H3_4 O8_4 1_555 1_555
H4_4 O8_4 1_555 1_555
O14_2 Mn6 1_555 1_555
Mn4_3 O1_4 1_555 1_555
Mn6_2 O3_4 1_555 1_555
O1_4 C1_4 1_555 1_555
O12_2 C2_4 1_555 1_555
O3_4 C3_4 1_555 1_555
O16 C4_4 1_555 1_555
O5_4 Mn4_3 1_555 1_555
O22_2 C6_4 1_555 1_555
O7_4 Mn4_3 1_555 1_555
H1_4 O7_4 1_555 1_555
H2_4 O7_4 1_555 1_555
C1_4 C2_4 1_555 1_555
C2_4 C3_4 1_555 1_555
C3_4 C4_4 1_555 1_555
C4_4 C1_4 1_555 1_555
C5_4 O5_4 1_555 1_555
C6_4 C5_4 1_555 1_555
Mn10_2 O11_4 1_555 1_555
O10_4 Mn4_3 1_555 1_555
O11_4 C8_4 1_555 1_555
O14_2 C9_4 1_555 1_555
O15_4 C10_4 1_555 1_555
O19_2 C11_4 1_555 1_555
O21 C12_4 1_555 1_555
O23_4 Mn4_3 1_555 1_555
H7_4 O23_4 1_555 1_555
H8_4 O23_4 1_555 1_555
O24_4 Mn6_2 1_555 1_555
H9_4 O24_4 1_555 1_555
H10_4 O24_4 1_555 1_555
C7_4 O10_4 1_555 1_555
C8_4 C7_4 1_555 1_555
C9_4 C8_4 1_555 1_555
C10_4 C7_4 1_555 1_555
C11_4 C6_4 1_555 1_555
C12_4 C5_4 1_555 1_555
C9_4 C10_4 1_555 1_555
C11_4 C12_4 1_555 1_555
O9_3 Mn10 1_555 1_555
H5_3 O9_3 1_555 1_555
H6_3 O9_3 1_555 1_555
O25_3 Mn10_2 1_555 1_555
H11_3 O25_3 1_555 1_555
H12_3 O25_3 1_555 1_555
O9_4 Mn9 1_555 1_555
H5_4 O9_4 1_555 1_555
O25_4 Mn9 1_555 1_555
H11_4 O25_4 1_555 1_555

#END
