
###############################################################################
#
# This file contains modified crystal structure data generated from the
# MOF subset of the Cambridge Structural Database (CSD) v543 
# hosted by the Cambridge Crystallographic Data Centre (CCDC).
#
# This work is licensed under the Creative Commons
# Attribution-NonCommercial-ShareAlike 4.0 International License.
# To view a copy of this license, visit
# http://creativecommons.org/licenses/by-nc-sa/4.0/
# or send a letter to
# Creative Commons, PO Box 1866, Mountain View, CA 94042, USA.
#
# CIF created using the CSD Python API on 29 September 2022
# The structure has been converted into the P1 space group
# The structure has a 3D framework
# The original CSD entry VOSWAE is in the tetragonal crystal system
# The original CSD entry VOSWAE is in a Sohncke space group
# The framework has been calculated to contain at least 10.0% void space
# The void calculation uses a probe of radius 1.32A, grid spacing 0.4
# H atom positions have been added when not included in the experimental data
#
###############################################################################

data_VOSWAE
_chemical_formula_moiety         '(C36 H24 Eu4 N4 O26)n'
_symmetry_cell_setting           triclinic
_symmetry_space_group_name_H-M   'P 1'
_symmetry_Int_Tables_number      1
_space_group_name_Hall           'P 1'
loop_
_symmetry_equiv_pos_site_id
_symmetry_equiv_pos_as_xyz
1 x,y,z
_cell_length_a                   10.4323(4)
_cell_length_b                   10.4323(4)
_cell_length_c                   14.3109(8)
_cell_angle_alpha                90
_cell_angle_beta                 90
_cell_angle_gamma                90
_cell_volume                     1557.5
loop_
_atom_site_label
_atom_site_type_symbol
_atom_site_fract_x
_atom_site_fract_y
_atom_site_fract_z
O3 O 0.5724(8) 0.2528(5) 0.7253(3)
O4 O 0.6078(5) 0.4247(4) 0.6312(4)
O5 O 0.4130(4) 0.4172(3) 0.3141(2)
O6 O 0.4017(7) 0.2419(7) 0.2452(4)
N1 N 0.3901(9) 0.0391(7) 0.3302(5)
H1 H 0.3255 0.0852 0.2788
C2 C 0.4809(7) 0.0292(4) 0.4926(4)
C3 C 0.5213(6) 0.0952(6) 0.5682(4)
H3 H 0.5378 0.0516 0.6236
C4 C 0.5396(6) 0.2349(6) 0.5642(5)
C5 C 0.4996(11) 0.2952(3) 0.4891(6)
H4 H 0.4933 0.3841 0.4911
C6 C 0.4647(7) 0.2301(5) 0.4031(3)
C7 C 0.4456(5) 0.0943(5) 0.4076(3)
C8 C 0.5640(6) 0.3038(6) 0.6551(4)
C9 C 0.4138(6) 0.3097(6) 0.3250(4)
Eu2 Eu 0.36333(2) 0.63526(2) 0.35875(11)
Eu3 Eu 0.36474(2) 0.36333(2) 0.10875(11)
Eu4 Eu 0.63667(2) 0.36474(2) 0.85875(11)
Eu6 Eu 0.63526(2) 0.63667(2) 0.60875(11)
O1 O 0.4203(5) 0.8246(3) 0.4291(3)
O2 O 0.5368(5) 0.8276(4) 0.5571(3)
O7 O 0.2095(6) 0.8127(7) 0.3430(8)
H2 H 0.3182 0.9543 0.3226
C1 C 0.4801(7) 0.8827(4) 0.4886(6)
O8 O 0.1724(4) 0.5368(5) 0.3071(3)
O9 O 0.4276(8) 0.7472(5) 0.2253(3)
O10 O 0.5753(4) 0.6078(5) 0.3812(4)
O12 O 0.2419(7) 0.5983(7) 0.4952(4)
H5 H 0.251363 0.885756 0.310641
H6 H 0.134396 0.783583 0.306031
O1_2 O 0.1754(3) 0.4203(5) 0.1791(3)
O7_2 O 0.1873(7) 0.2095(6) 0.0930(8)
H2_2 H 0.0457 0.3182 0.0726
C1_2 C 0.1173(4) 0.4801(7) 0.2386(6)
O8_2 O 0.4632(5) 0.1724(4) 0.0571(3)
O10_2 O 0.3922(5) 0.5753(4) 0.1312(4)
O11 O 0.5828(3) 0.4130(4) 0.0641(2)
H5_2 H 0.114244 0.251363 0.0606407
H6_2 H 0.216417 0.134396 0.0560314
O9_2 O 0.2528(5) 0.4276(8) 0.9753(3)
O3_2 O 0.7472(5) 0.5724(8) 0.4753(3)
N1_2 N 0.9609(7) 0.3901(9) 0.0802(5)
H1_2 H 0.9148 0.3255 0.0288
C2_2 C 0.9708(4) 0.4809(7) 0.2426(4)
C3_2 C 0.9048(6) 0.5213(6) 0.3182(4)
H3_2 H 0.9484 0.5378 0.3736
C4_2 C 0.7651(6) 0.5396(6) 0.3142(5)
C5_2 C 0.7048(3) 0.4996(11) 0.2391(6)
H4_2 H 0.6159 0.4933 0.2411
C6_2 C 0.7699(5) 0.4647(7) 0.1531(3)
C7_2 C 0.9057(5) 0.4456(5) 0.1576(3)
C8_2 C 0.6962(6) 0.5640(6) 0.4051(4)
C9_2 C 0.6903(6) 0.4138(6) 0.0750(4)
O6_2 O 0.7581(7) 0.4017(7) 0.9952(4)
O1_3 O 0.5797(5) 0.1754(3) 0.9291(3)
O7_3 O 0.7905(6) 0.1873(7) 0.8430(8)
H2_3 H 0.6818 0.0457 0.8226
C1_3 C 0.5199(7) 0.1173(4) 0.9886(6)
O8_3 O 0.8276(4) 0.4632(5) 0.8071(3)
O10_3 O 0.4247(4) 0.3922(5) 0.8812(4)
O11_2 O 0.5870(4) 0.5828(3) 0.8141(2)
H5_3 H 0.748637 0.114244 0.810641
H6_3 H 0.865604 0.216417 0.806031
C3_3 C 0.4787(6) 0.9048(6) 0.0682(4)
H3_3 H 0.4622 0.9484 0.1236
C4_3 C 0.4604(6) 0.7651(6) 0.0642(5)
C8_3 C 0.4360(6) 0.6962(6) 0.1551(4)
O6_3 O 0.5983(7) 0.7581(7) 0.7452(4)
N1_3 N 0.6099(9) 0.9609(7) 0.8302(5)
H1_3 H 0.6745 0.9148 0.7788
C2_3 C 0.5191(7) 0.9708(4) 0.9926(4)
C5_3 C 0.5004(11) 0.7048(3) 0.9891(6)
H4_3 H 0.5067 0.6159 0.9911
C6_3 C 0.5353(7) 0.7699(5) 0.9031(3)
C7_3 C 0.5544(5) 0.9057(5) 0.9076(3)
C9_3 C 0.5862(6) 0.6903(6) 0.8250(4)
O5_2 O 0.4172(3) 0.5870(4) 0.5641(2)
N1_4 N 0.0391(7) 0.6099(9) 0.5802(5)
H1_4 H 0.0852 0.6745 0.5288
C2_4 C 0.0292(4) 0.5191(7) 0.7426(4)
C3_4 C 0.0952(6) 0.4787(6) 0.8182(4)
H3_4 H 0.0516 0.4622 0.8736
C4_4 C 0.2349(6) 0.4604(6) 0.8142(5)
C5_4 C 0.2952(3) 0.5004(11) 0.7391(6)
H4_4 H 0.3841 0.5067 0.7411
C6_4 C 0.2301(5) 0.5353(7) 0.6531(3)
C7_4 C 0.0943(5) 0.5544(5) 0.6576(3)
C8_4 C 0.3038(6) 0.4360(6) 0.9051(4)
C9_4 C 0.3097(6) 0.5862(6) 0.5750(4)
O1_4 O 0.8246(3) 0.5797(5) 0.6791(3)
O7_4 O 0.8127(7) 0.7905(6) 0.5930(8)
H2_4 H 0.9543 0.6818 0.5726
C1_4 C 0.8827(4) 0.5199(7) 0.7386(6)
H5_4 H 0.885756 0.748637 0.560641
H6_4 H 0.783583 0.865604 0.556031
loop_
_geom_bond_atom_site_label_1
_geom_bond_atom_site_label_2
_geom_bond_site_symmetry_1
_geom_bond_site_symmetry_2
O3 C8 1_555 1_555
O4 C8 1_555 1_555
O5 C9 1_555 1_555
O6 C9 1_555 1_555
N1 H1 1_555 1_555
C2 C3 1_555 1_555
C3 H3 1_555 1_555
C4 C3 1_555 1_555
C5 C4 1_555 1_555
H4 C5 1_555 1_555
C6 C5 1_555 1_555
C7 N1 1_555 1_555
C8 C4 1_555 1_555
C9 C6 1_555 1_555
Eu2 O5 1_555 1_555
Eu3 O6 1_555 1_555
Eu4 O3 1_555 1_555
Eu6 O4 1_555 1_555
C2 C7 1_555 1_555
C6 C7 1_555 1_555
Eu2 O1 1_555 1_555
O1 C1 1_555 1_555
O2 C1 1_555 1_555
O7 Eu2 1_555 1_555
Eu6 O2 1_555 1_555
O8 Eu2 1_555 1_555
O9 Eu2 1_555 1_555
O10 Eu2 1_555 1_555
O12 Eu2 1_555 1_555
O7 H5 1_555 1_555
O7 H6 1_555 1_555
Eu3 O1_2 1_555 1_555
O1_2 C1_2 1_555 1_555
O8 C1_2 1_555 1_555
O7_2 Eu3 1_555 1_555
O8_2 Eu3 1_555 1_555
O10_2 Eu3 1_555 1_555
O11 Eu3 1_555 1_555
O7_2 H5_2 1_555 1_555
O7_2 H6_2 1_555 1_555
O3_2 C8_2 1_555 1_555
O10 C8_2 1_555 1_555
O11 C9_2 1_555 1_555
N1_2 H1_2 1_555 1_555
C2_2 C3_2 1_555 1_555
C3_2 H3_2 1_555 1_555
C4_2 C3_2 1_555 1_555
C5_2 C4_2 1_555 1_555
H4_2 C5_2 1_555 1_555
C6_2 C5_2 1_555 1_555
C7_2 N1_2 1_555 1_555
C8_2 C4_2 1_555 1_555
C9_2 C6_2 1_555 1_555
Eu6 O3_2 1_555 1_555
C2_2 C7_2 1_555 1_555
C6_2 C7_2 1_555 1_555
Eu4 O6_2 1_555 1_555
Eu4 O1_3 1_555 1_555
O1_3 C1_3 1_555 1_555
O7_3 Eu4 1_555 1_555
O8_3 Eu4 1_555 1_555
O10_3 Eu4 1_555 1_555
O11_2 Eu4 1_555 1_555
O7_3 H5_3 1_555 1_555
O7_3 H6_3 1_555 1_555
O9 C8_3 1_555 1_555
O10_2 C8_3 1_555 1_555
C3_3 H3_3 1_555 1_555
C4_3 C3_3 1_555 1_555
C8_3 C4_3 1_555 1_555
O11_2 C9_3 1_555 1_555
O6_3 C9_3 1_555 1_555
N1_3 H1_3 1_555 1_555
H4_3 C5_3 1_555 1_555
C6_3 C5_3 1_555 1_555
C7_3 N1_3 1_555 1_555
C9_3 C6_3 1_555 1_555
Eu6 O6_3 1_555 1_555
C2_3 C7_3 1_555 1_555
C6_3 C7_3 1_555 1_555
O9_2 C8_4 1_555 1_555
O10_3 C8_4 1_555 1_555
O5_2 C9_4 1_555 1_555
O12 C9_4 1_555 1_555
N1_4 H1_4 1_555 1_555
C2_4 C3_4 1_555 1_555
C3_4 H3_4 1_555 1_555
C4_4 C3_4 1_555 1_555
C5_4 C4_4 1_555 1_555
H4_4 C5_4 1_555 1_555
C6_4 C5_4 1_555 1_555
C7_4 N1_4 1_555 1_555
C8_4 C4_4 1_555 1_555
C9_4 C6_4 1_555 1_555
Eu6 O5_2 1_555 1_555
C2_4 C7_4 1_555 1_555
C6_4 C7_4 1_555 1_555
Eu6 O1_4 1_555 1_555
O1_4 C1_4 1_555 1_555
O8_3 C1_4 1_555 1_555
O7_4 Eu6 1_555 1_555
O7_4 H5_4 1_555 1_555
O7_4 H6_4 1_555 1_555

#END
