
###############################################################################
#
# This file contains modified crystal structure data generated from the
# MOF subset of the Cambridge Structural Database (CSD) v543 
# hosted by the Cambridge Crystallographic Data Centre (CCDC).
#
# This work is licensed under the Creative Commons
# Attribution-NonCommercial-ShareAlike 4.0 International License.
# To view a copy of this license, visit
# http://creativecommons.org/licenses/by-nc-sa/4.0/
# or send a letter to
# Creative Commons, PO Box 1866, Mountain View, CA 94042, USA.
#
# CIF created using the CSD Python API on 29 September 2022
# The structure has been converted into the P1 space group
# The structure has a 3D framework
# The original CSD entry VOVXAI is in the monoclinic crystal system
# The framework has been calculated to contain at least 10.0% void space
# The void calculation uses a probe of radius 1.32A, grid spacing 0.4
#
###############################################################################

data_VOVXAI
_chemical_formula_moiety         '(C104 H76 Cd8 N8 O28)n'
_symmetry_cell_setting           triclinic
_symmetry_space_group_name_H-M   'P 1'
_symmetry_Int_Tables_number      1
_space_group_name_Hall           'P 1'
loop_
_symmetry_equiv_pos_site_id
_symmetry_equiv_pos_as_xyz
1 x,y,z
_cell_length_a                   16.2511(14)
_cell_length_b                   11.6120(11)
_cell_length_c                   20.2609(18)
_cell_angle_alpha                90
_cell_angle_beta                 124.020(5)
_cell_angle_gamma                90
_cell_volume                     3168.99
loop_
_atom_site_label
_atom_site_type_symbol
_atom_site_fract_x
_atom_site_fract_y
_atom_site_fract_z
Cd2 Cd 0.000000 0.14470(12) 0.250000
O5 O 0.0120(4) 0.1630(6) 0.4980(3)
O6 O 0.0125(5) 0.1411(7) 0.3683(3)
O7 O 0.1116(5) 0.2511(7) 0.3598(4)
H7 H 0.017635 0.080784 0.585108
C10 C 0.1036(7) 0.2133(9) 0.5356(5)
C11 C 0.1371(6) 0.2377(9) 0.4861(5)
C12 C 0.2288(7) 0.2890(9) 0.5215(5)
H8 H 0.253706 0.307050 0.491122
C13 C 0.2853(7) 0.3144(9) 0.6037(6)
H9 H 0.346668 0.350206 0.627011
C14 C 0.2509(7) 0.2871(9) 0.6484(6)
H10 H 0.289555 0.302900 0.702684
C15 C 0.1609(7) 0.2369(9) 0.6159(5)
H11 H 0.137972 0.218596 0.647592
C16 C 0.0826(7) 0.2094(10) 0.4008(5)
O11 O 0.4034(4) 0.0016(5) 0.2701(3)
O12 O 0.2595(4) 0.0192(5) 0.2495(3)
O16 O 0.1144(5) 0.0086(6) 0.2760(4)
H20 H 0.144668 0.014912 0.252909
H21 H 0.158018 0.002034 0.325669
C28 C 0.2799(6) 0.0322(7) 0.0251(5)
C29 C 0.3228(6) 0.0175(7) 0.1039(4)
C30 C 0.2672(6) 0.0374(8) 0.1368(4)
C31 C 0.1697(6) 0.0762(7) 0.0875(4)
H23 H 0.132975 0.091062 0.108935
C32 C 0.1278(6) 0.0925(7) 0.0086(5)
C34 C 0.3135(7) 0.0164(8) 0.2247(5)
Cd3 Cd 0.40370(4) 0.00061(5) 0.88355(3)
O9 O 0.2899(4) 0.0104(4) 0.9154(3)
C27 C 0.3356(6) 0.0097(7) 0.9883(4)
C33 C 0.1832(6) 0.0718(8) 0.9777(5)
H24 H 0.155084 0.084789 0.923865
C35 C 0.0242(6) 0.1379(9) 0.9548(5)
H25 H 0.024336 0.206881 0.927902
N6 N 0.4074(5) 0.1988(5) 0.8876(4)
O18 O 0.5731(4) 0.0063(4) 0.9684(3)
O10 O 0.4269(4) 0.9937(4) 0.0316(3)
H22 H 0.388736 0.994268 0.136450
Cd7 Cd 0.40370(4) 0.99939(5) 0.38355(3)
Cd9 Cd 0.59630(4) 0.99939(5) 0.11645(3)
N3 N 0.4116(5) 0.8038(6) 0.8934(4)
C43 C 0.4872(6) 0.7433(7) 0.9038(5)
H31 H 0.541941 0.782731 0.911838
C44 C 0.4886(7) 0.6263(8) 0.9033(6)
H32 H 0.544387 0.587870 0.912685
C45 C 0.4086(6) 0.5646(8) 0.8893(5)
C46 C 0.3314(7) 0.6282(8) 0.8796(6)
H33 H 0.276387 0.591133 0.872671
C47 C 0.3350(7) 0.7436(8) 0.8800(5)
H34 H 0.279733 0.783839 0.870232
C48 C 0.4873(7) 0.3771(8) 0.9039(6)
H35 H 0.544837 0.415358 0.917016
C49 C 0.4845(7) 0.2582(8) 0.9013(6)
H36 H 0.539237 0.218543 0.909548
C50 C 0.3304(7) 0.2598(8) 0.8711(6)
H37 H 0.273127 0.220357 0.857557
C51 C 0.3283(7) 0.3756(8) 0.8724(6)
H38 H 0.271947 0.412770 0.862861
C52 C 0.4068(6) 0.4386(7) 0.8874(5)
O19 O 0.4034(4) 0.9984(5) 0.7701(3)
O21 O 0.2595(4) 0.9808(5) 0.7495(3)
Cd1 Cd 0.59630(4) 0.00061(5) 0.61645(3)
Cd2_2 Cd 1.000000 0.14470(12) 0.250000
O1 O 0.7101(4) 0.0104(4) 0.5846(3)
O3 O 0.5966(4) 0.0016(5) 0.2299(3)
O4 O 0.7405(4) 0.0192(5) 0.2505(3)
O8 O 0.8856(5) 0.0086(6) 0.2240(4)
H1 H 0.855332 0.014912 0.247091
H2 H 0.841982 0.002034 0.174331
C1 C 0.6644(6) 0.0097(7) 0.5117(4)
C2 C 0.7201(6) 0.0322(7) 0.4749(5)
C3 C 0.6772(6) 0.0175(7) 0.3961(4)
C4 C 0.7328(6) 0.0374(8) 0.3632(4)
C5 C 0.8303(6) 0.0762(7) 0.4125(4)
H4 H 0.867025 0.091062 0.391065
C6 C 0.8722(6) 0.0925(7) 0.4914(5)
C7 C 0.8168(6) 0.0718(8) 0.5223(5)
H5 H 0.844916 0.084789 0.576135
C8 C 0.6865(7) 0.0164(8) 0.2753(5)
C9 C 0.9758(6) 0.1379(9) 0.5452(5)
H6 H 0.975664 0.206881 0.572098
O13 O 0.9880(4) 0.1630(6) 0.0020(3)
O14 O 0.9875(5) 0.1411(7) 0.1317(3)
O15 O 0.8884(5) 0.2511(7) 0.1402(4)
C37 C 0.8629(6) 0.2377(9) 0.0139(5)
H27 H 0.746294 0.307050 0.008878
C42 C 0.9174(7) 0.2094(10) 0.0992(5)
N5 N 0.5926(5) 0.1988(5) 0.6124(4)
O17 O 0.4269(4) 0.0063(4) 0.5316(3)
N1 N 0.5884(5) 0.8038(6) 0.6066(4)
O2 O 0.5731(4) 0.9937(4) 0.4684(3)
H3 H 0.611264 0.994268 0.363550
C17 C 0.5128(6) 0.7433(7) 0.5962(5)
H12 H 0.458059 0.782731 0.588162
C18 C 0.5114(7) 0.6263(8) 0.5967(6)
H13 H 0.455613 0.587870 0.587315
C19 C 0.5914(6) 0.5646(8) 0.6107(5)
C20 C 0.6686(7) 0.6282(8) 0.6204(6)
H14 H 0.723613 0.591133 0.627329
C21 C 0.6650(7) 0.7436(8) 0.6200(5)
H15 H 0.720267 0.783839 0.629768
C22 C 0.5127(7) 0.3771(8) 0.5961(6)
H16 H 0.455163 0.415358 0.582984
C23 C 0.5155(7) 0.2582(8) 0.5987(6)
H17 H 0.460763 0.218543 0.590452
C24 C 0.6696(7) 0.2598(8) 0.6289(6)
H18 H 0.726873 0.220357 0.642443
C25 C 0.6717(7) 0.3756(8) 0.6276(6)
H19 H 0.728053 0.412770 0.637139
C26 C 0.5932(6) 0.4386(7) 0.6126(5)
O20 O 0.5966(4) 0.9984(5) 0.7299(3)
O22 O 0.7405(4) 0.9808(5) 0.7505(3)
N1_2 N 0.4116(5) 0.1962(6) 0.3934(4)
N2 N 0.4074(5) 0.8012(5) 0.3876(4)
H3_2 H 0.388736 0.005732 0.636450
C17_2 C 0.4872(6) 0.2567(7) 0.4038(5)
H12_2 H 0.541941 0.217269 0.411838
C18_2 C 0.4886(7) 0.3737(8) 0.4033(6)
H13_2 H 0.544387 0.412130 0.412685
C19_2 C 0.4086(6) 0.4354(8) 0.3893(5)
C20_2 C 0.3314(7) 0.3718(8) 0.3796(6)
H14_2 H 0.276387 0.408867 0.372671
C21_2 C 0.3350(7) 0.2564(8) 0.3800(5)
H15_2 H 0.279733 0.216161 0.370232
C22_2 C 0.4873(7) 0.6229(8) 0.4039(6)
H16_2 H 0.544837 0.584642 0.417016
C23_2 C 0.4845(7) 0.7418(8) 0.4013(6)
H17_2 H 0.539237 0.781457 0.409548
C24_2 C 0.3304(7) 0.7402(8) 0.3711(6)
H18_2 H 0.273127 0.779643 0.357557
C25_2 C 0.3283(7) 0.6244(8) 0.3724(6)
H19_2 H 0.271947 0.587230 0.362861
C26_2 C 0.4068(6) 0.5614(7) 0.3874(5)
Cd2_3 Cd 0.000000 0.85530(12) 0.750000
O1_2 O 0.2899(4) 0.9896(4) 0.4154(3)
O8_2 O 0.1144(5) 0.9914(6) 0.7760(4)
H1_2 H 0.144668 0.985088 0.752909
H2_2 H 0.158018 0.997966 0.825669
C1_2 C 0.3356(6) 0.9903(7) 0.4883(4)
C2_2 C 0.2799(6) 0.9678(7) 0.5251(5)
C3_2 C 0.3228(6) 0.9825(7) 0.6039(4)
C4_2 C 0.2672(6) 0.9626(8) 0.6368(4)
C5_2 C 0.1697(6) 0.9238(7) 0.5875(4)
H4_2 H 0.132975 0.908938 0.608935
C6_2 C 0.1278(6) 0.9075(7) 0.5086(5)
C7_2 C 0.1832(6) 0.9282(8) 0.4777(5)
H5_2 H 0.155084 0.915211 0.423865
C8_2 C 0.3135(7) 0.9836(8) 0.7247(5)
C9_2 C 0.0242(6) 0.8621(9) 0.4548(5)
H6_2 H 0.024336 0.793119 0.427902
O13_2 O 0.0120(4) 0.8370(6) 0.9980(3)
O14_2 O 0.0125(5) 0.8589(7) 0.8683(3)
O15_2 O 0.1116(5) 0.7489(7) 0.8598(4)
C37_2 C 0.1371(6) 0.7623(9) 0.9861(5)
H27_2 H 0.253706 0.692950 0.991122
C42_2 C 0.0826(7) 0.7906(10) 0.9008(5)
N3_2 N 0.5884(5) 0.1962(6) 0.1066(4)
N4 N 0.5926(5) 0.8012(5) 0.1124(4)
C43_2 C 0.5128(6) 0.2567(7) 0.0962(5)
H31_2 H 0.458059 0.217269 0.088162
C44_2 C 0.5114(7) 0.3737(8) 0.0967(6)
H32_2 H 0.455613 0.412130 0.087315
C45_2 C 0.5914(6) 0.4354(8) 0.1107(5)
C46_2 C 0.6686(7) 0.3718(8) 0.1204(6)
H33_2 H 0.723613 0.408867 0.127329
C47_2 C 0.6650(7) 0.2564(8) 0.1200(5)
H34_2 H 0.720267 0.216161 0.129768
C48_2 C 0.5127(7) 0.6229(8) 0.0961(6)
H35_2 H 0.455163 0.584642 0.082984
C49_2 C 0.5155(7) 0.7418(8) 0.0987(6)
H36_2 H 0.460763 0.781457 0.090452
C50_2 C 0.6696(7) 0.7402(8) 0.1289(6)
H37_2 H 0.726873 0.779643 0.142443
C51_2 C 0.6717(7) 0.6244(8) 0.1276(6)
H38_2 H 0.728053 0.587230 0.137139
C52_2 C 0.5932(6) 0.5614(7) 0.1126(5)
H22_2 H 0.611264 0.005732 0.863550
O9_2 O 0.7101(4) 0.9896(4) 0.0846(3)
C27_2 C 0.6644(6) 0.9903(7) 0.0117(4)
C33_2 C 0.8168(6) 0.9282(8) 0.0223(5)
H24_2 H 0.844916 0.915211 0.076135
C35_2 C 0.9758(6) 0.8621(9) 0.0452(5)
H25_2 H 0.975664 0.793119 0.072098
Cd2_4 Cd 1.000000 0.85530(12) 0.750000
O5_2 O 0.9880(4) 0.8370(6) 0.5020(3)
O6_2 O 0.9875(5) 0.8589(7) 0.6317(3)
O7_2 O 0.8884(5) 0.7489(7) 0.6402(4)
H7_2 H 0.982365 0.919216 0.414892
C10_2 C 0.8964(7) 0.7867(9) 0.4644(5)
C11_2 C 0.8629(6) 0.7623(9) 0.5139(5)
C12_2 C 0.7712(7) 0.7110(9) 0.4785(5)
H8_2 H 0.746294 0.692950 0.508878
C13_2 C 0.7147(7) 0.6856(9) 0.3963(6)
H9_2 H 0.653332 0.649794 0.372989
C14_2 C 0.7491(7) 0.7129(9) 0.3516(6)
H10_2 H 0.710445 0.697100 0.297316
C15_2 C 0.8391(7) 0.7631(9) 0.3841(5)
H11_2 H 0.862028 0.781404 0.352408
C16_2 C 0.9174(7) 0.7906(10) 0.5992(5)
O16_2 O 0.8856(5) 0.9914(6) 0.7240(4)
H20_2 H 0.855332 0.985088 0.747091
H21_2 H 0.841982 0.997966 0.674331
C28_2 C 0.7201(6) 0.9678(7) 0.9749(5)
C29_2 C 0.6772(6) 0.9825(7) 0.8961(4)
C30_2 C 0.7328(6) 0.9626(8) 0.8632(4)
C31_2 C 0.8303(6) 0.9238(7) 0.9125(4)
H23_2 H 0.867025 0.908938 0.891065
C32_2 C 0.8722(6) 0.9075(7) 0.9914(5)
C34_2 C 0.6865(7) 0.9836(8) 0.7753(5)
H26 H 0.982365 0.080784 0.914892
C36 C 0.8964(7) 0.2133(9) 0.9644(5)
C38 C 0.7712(7) 0.2890(9) 0.9785(5)
C39 C 0.7147(7) 0.3144(9) 0.8963(6)
H28 H 0.653332 0.350206 0.872989
C40 C 0.7491(7) 0.2871(9) 0.8516(6)
H29 H 0.710445 0.302900 0.797316
C41 C 0.8391(7) 0.2369(9) 0.8841(5)
H30 H 0.862028 0.218596 0.852408
H26_2 H 0.017635 0.919216 0.085108
C36_2 C 0.1036(7) 0.7867(9) 0.0356(5)
C38_2 C 0.2288(7) 0.7110(9) 0.0215(5)
C39_2 C 0.2853(7) 0.6856(9) 0.1037(6)
H28_2 H 0.346668 0.649794 0.127011
C40_2 C 0.2509(7) 0.7129(9) 0.1484(6)
H29_2 H 0.289555 0.697100 0.202684
C41_2 C 0.1609(7) 0.7631(9) 0.1159(5)
H30_2 H 0.137972 0.781404 0.147592
loop_
_geom_bond_atom_site_label_1
_geom_bond_atom_site_label_2
_geom_bond_site_symmetry_1
_geom_bond_site_symmetry_2
Cd2 O6 1_555 1_555
O6 C16 1_555 1_555
O7 Cd2 1_555 1_555
C10 O5 1_555 1_555
C11 C10 1_555 1_555
C12 C11 1_555 1_555
H8 C12 1_555 1_555
C13 C12 1_555 1_555
H9 C13 1_555 1_555
C14 C13 1_555 1_555
H10 C14 1_555 1_555
C15 C10 1_555 1_555
H11 C15 1_555 1_555
C16 O7 1_555 1_555
O11 C34 1_555 1_555
O12 C34 1_555 1_555
O16 Cd2 1_555 1_555
H20 O16 1_555 1_555
H21 O16 1_555 1_555
C29 C28 1_555 1_555
C30 C29 1_555 1_555
C31 C30 1_555 1_555
H23 C31 1_555 1_555
C32 C31 1_555 1_555
C34 C30 1_555 1_555
C11 C16 1_555 1_555
C14 C15 1_555 1_555
O9 Cd3 1_555 1_555
C27 O9 1_555 1_555
H24 C33 1_555 1_555
H25 C35 1_555 1_555
N6 Cd3 1_555 1_555
O18 Cd3 1_555 1_555
Cd9 O10 1_555 1_555
N3 C43 1_555 1_555
N6 C49 1_555 1_555
C43 H31 1_555 1_555
C44 C43 1_555 1_555
H32 C44 1_555 1_555
C45 C44 1_555 1_555
C46 C45 1_555 1_555
H33 C46 1_555 1_555
C47 N3 1_555 1_555
H34 C47 1_555 1_555
C48 H35 1_555 1_555
C49 C48 1_555 1_555
H36 C49 1_555 1_555
C50 N6 1_555 1_555
H37 C50 1_555 1_555
C51 C50 1_555 1_555
H38 C51 1_555 1_555
C52 C45 1_555 1_555
C46 C47 1_555 1_555
C48 C52 1_555 1_555
C51 C52 1_555 1_555
O1 Cd1 1_555 1_555
O3 C8 1_555 1_555
O4 C8 1_555 1_555
O8 Cd2_2 1_555 1_555
H1 O8 1_555 1_555
H2 O8 1_555 1_555
C1 O1 1_555 1_555
C2 C1 1_555 1_555
C3 C2 1_555 1_555
C4 C3 1_555 1_555
C5 C4 1_555 1_555
H4 C5 1_555 1_555
C6 C5 1_555 1_555
C7 C2 1_555 1_555
H5 C7 1_555 1_555
C8 C4 1_555 1_555
C9 C6 1_555 1_555
H6 C9 1_555 1_555
O14 Cd2_2 1_555 1_555
O15 Cd2_2 1_555 1_555
C42 O14 1_555 1_555
N5 Cd1 1_555 1_555
O17 Cd1 1_555 1_555
C6 C7 1_555 1_555
O15 C42 1_555 1_555
C37 C42 1_555 1_555
N1 C17 1_555 1_555
N5 C23 1_555 1_555
C17 H12 1_555 1_555
C18 C17 1_555 1_555
H13 C18 1_555 1_555
C19 C18 1_555 1_555
C20 C19 1_555 1_555
H14 C20 1_555 1_555
C21 N1 1_555 1_555
H15 C21 1_555 1_555
C22 H16 1_555 1_555
C23 C22 1_555 1_555
H17 C23 1_555 1_555
C24 N5 1_555 1_555
H18 C24 1_555 1_555
C25 C24 1_555 1_555
H19 C25 1_555 1_555
C26 C19 1_555 1_555
Cd7 O2 1_555 1_555
C20 C21 1_555 1_555
C22 C26 1_555 1_555
C25 C26 1_555 1_555
N1_2 C17_2 1_555 1_555
N2 C23_2 1_555 1_555
C17_2 H12_2 1_555 1_555
C18_2 C17_2 1_555 1_555
H13_2 C18_2 1_555 1_555
C19_2 C18_2 1_555 1_555
C20_2 C19_2 1_555 1_555
H14_2 C20_2 1_555 1_555
C21_2 N1_2 1_555 1_555
H15_2 C21_2 1_555 1_555
C22_2 H16_2 1_555 1_555
C23_2 C22_2 1_555 1_555
H17_2 C23_2 1_555 1_555
C24_2 N2 1_555 1_555
H18_2 C24_2 1_555 1_555
C25_2 C24_2 1_555 1_555
H19_2 C25_2 1_555 1_555
C26_2 C19_2 1_555 1_555
Cd7 N2 1_555 1_555
C20_2 C21_2 1_555 1_555
C22_2 C26_2 1_555 1_555
C25_2 C26_2 1_555 1_555
O1_2 Cd7 1_555 1_555
O19 C8_2 1_555 1_555
O21 C8_2 1_555 1_555
O8_2 Cd2_3 1_555 1_555
H1_2 O8_2 1_555 1_555
H2_2 O8_2 1_555 1_555
C1_2 O1_2 1_555 1_555
C2_2 C1_2 1_555 1_555
C3_2 C2_2 1_555 1_555
C4_2 C3_2 1_555 1_555
C5_2 C4_2 1_555 1_555
H4_2 C5_2 1_555 1_555
C6_2 C5_2 1_555 1_555
C7_2 C2_2 1_555 1_555
H5_2 C7_2 1_555 1_555
C8_2 C4_2 1_555 1_555
C9_2 C6_2 1_555 1_555
H6_2 C9_2 1_555 1_555
O14_2 Cd2_3 1_555 1_555
O15_2 Cd2_3 1_555 1_555
C42_2 O14_2 1_555 1_555
C6_2 C7_2 1_555 1_555
O15_2 C42_2 1_555 1_555
C37_2 C42_2 1_555 1_555
N3_2 C43_2 1_555 1_555
N4 C49_2 1_555 1_555
C43_2 H31_2 1_555 1_555
C44_2 C43_2 1_555 1_555
H32_2 C44_2 1_555 1_555
C45_2 C44_2 1_555 1_555
C46_2 C45_2 1_555 1_555
H33_2 C46_2 1_555 1_555
C47_2 N3_2 1_555 1_555
H34_2 C47_2 1_555 1_555
C48_2 H35_2 1_555 1_555
C49_2 C48_2 1_555 1_555
H36_2 C49_2 1_555 1_555
C50_2 N4 1_555 1_555
H37_2 C50_2 1_555 1_555
C51_2 C50_2 1_555 1_555
H38_2 C51_2 1_555 1_555
C52_2 C45_2 1_555 1_555
Cd9 N4 1_555 1_555
C46_2 C47_2 1_555 1_555
C48_2 C52_2 1_555 1_555
C51_2 C52_2 1_555 1_555
O9_2 Cd9 1_555 1_555
C27_2 O9_2 1_555 1_555
H24_2 C33_2 1_555 1_555
H25_2 C35_2 1_555 1_555
Cd2_4 O6_2 1_555 1_555
O6_2 C16_2 1_555 1_555
O7_2 Cd2_4 1_555 1_555
C10_2 O5_2 1_555 1_555
C11_2 C10_2 1_555 1_555
C12_2 C11_2 1_555 1_555
H8_2 C12_2 1_555 1_555
C13_2 C12_2 1_555 1_555
H9_2 C13_2 1_555 1_555
C14_2 C13_2 1_555 1_555
H10_2 C14_2 1_555 1_555
C15_2 C10_2 1_555 1_555
H11_2 C15_2 1_555 1_555
C16_2 O7_2 1_555 1_555
O20 C34_2 1_555 1_555
O22 C34_2 1_555 1_555
O16_2 Cd2_4 1_555 1_555
H20_2 O16_2 1_555 1_555
H21_2 O16_2 1_555 1_555
C29_2 C28_2 1_555 1_555
C30_2 C29_2 1_555 1_555
C31_2 C30_2 1_555 1_555
H23_2 C31_2 1_555 1_555
C32_2 C31_2 1_555 1_555
C34_2 C30_2 1_555 1_555
C11_2 C16_2 1_555 1_555
C14_2 C15_2 1_555 1_555
C39 C38 1_555 1_555
H28 C39 1_555 1_555
C40 C39 1_555 1_555
H29 C40 1_555 1_555
C41 C36 1_555 1_555
H30 C41 1_555 1_555
C40 C41 1_555 1_555
C39_2 C38_2 1_555 1_555
H28_2 C39_2 1_555 1_555
C40_2 C39_2 1_555 1_555
H29_2 C40_2 1_555 1_555
C41_2 C36_2 1_555 1_555
H30_2 C41_2 1_555 1_555
C40_2 C41_2 1_555 1_555

#END
