
###############################################################################
#
# This file contains modified crystal structure data generated from the
# MOF subset of the Cambridge Structural Database (CSD) v543 
# hosted by the Cambridge Crystallographic Data Centre (CCDC).
#
# This work is licensed under the Creative Commons
# Attribution-NonCommercial-ShareAlike 4.0 International License.
# To view a copy of this license, visit
# http://creativecommons.org/licenses/by-nc-sa/4.0/
# or send a letter to
# Creative Commons, PO Box 1866, Mountain View, CA 94042, USA.
#
# CIF created using the CSD Python API on 29 September 2022
# The structure has been converted into the P1 space group
# The structure has a 3D framework
# The original CSD entry VOWLAX is in the monoclinic crystal system
# The framework has been calculated to contain at least 10.0% void space
# The void calculation uses a probe of radius 1.32A, grid spacing 0.4
#
###############################################################################

data_VOWLAX
_chemical_formula_moiety         '(C50 H48 La6 N6 O32)n'
_symmetry_cell_setting           triclinic
_symmetry_space_group_name_H-M   'P 1'
_symmetry_Int_Tables_number      1
_space_group_name_Hall           'P 1'
loop_
_symmetry_equiv_pos_site_id
_symmetry_equiv_pos_as_xyz
1 x,y,z
_cell_length_a                   9.9422(7)
_cell_length_b                   20.9667(14)
_cell_length_c                   8.9413(6)
_cell_angle_alpha                90
_cell_angle_beta                 115.090(3)
_cell_angle_gamma                90
_cell_volume                     1687.99
loop_
_atom_site_label
_atom_site_type_symbol
_atom_site_fract_x
_atom_site_fract_y
_atom_site_fract_z
La2 La -0.000000 0.48632(2) 0.250000
La4 La 0.000000 0.51368(2) 0.750000
La5 La 0.500000 0.01368(2) 0.750000
La2_2 La 1.000000 0.48632(2) 0.250000
O1 O 0.1449(4) 0.51502(17) 0.5534(5)
O2 O 0.6089(4) 0.90087(17) 0.7449(5)
O3 O 0.2725(5) 0.5447(2) 0.8117(5)
N1 N 0.500000 0.6005(3) 0.750000
C1 C 0.500000 0.8719(3) 0.750000
C2 C 0.2581(6) 0.5395(3) 0.6651(8)
C3 C 0.500000 0.6654(3) 0.750000
C4 C 0.6327(6) 0.7004(3) 0.8014(8)
H3 H 0.722854 0.678845 0.839204
C5 C 0.500000 0.8003(4) 0.750000
C6 C 0.6317(6) 0.7660(3) 0.7969(7)
H4 H 0.720622 0.787877 0.825587
C7 C 0.3805(7) 0.5648(3) 0.6216(8)
H5 H 0.424245 0.528903 0.589949
H6 H 0.335189 0.592149 0.525592
O5 O 0.8551(4) 0.51502(17) 0.9466(5)
O6 O 0.3911(4) 0.90087(17) 0.7551(5)
O7 O 0.7275(5) 0.5447(2) 0.6883(5)
C8 C 0.7419(6) 0.5395(3) 0.8349(8)
C9 C 0.3673(6) 0.7004(3) 0.6986(8)
H7 H 0.277146 0.678845 0.660796
C10 C 0.3683(6) 0.7660(3) 0.7031(7)
H8 H 0.279378 0.787877 0.674413
C11 C 0.6195(7) 0.5648(3) 0.8784(8)
H9 H 0.575755 0.528903 0.910051
H10 H 0.664811 0.592149 0.974408
O8 O 0.0603(7) 0.3846(2) 0.4220(6)
H11 H 0.024939 0.345518 0.371338
H12 H 0.117730 0.386536 0.535392
La4_2 La 1.000000 0.51368(2) 0.750000
O11 O 0.1449(4) 0.48498(17) 0.0534(5)
O13 O 0.1089(4) 0.59913(17) 0.2449(5)
O15 O 0.2725(5) 0.4553(2) 0.3117(5)
O4 O 0.9397(7) 0.3846(2) 0.0780(6)
H1 H 0.975061 0.345518 0.128662
O10 O 0.8551(4) 0.48498(17) 0.4466(5)
O12 O 0.8911(4) 0.59913(17) 0.2551(5)
O14 O 0.7275(5) 0.4553(2) 0.1883(5)
H2 H 0.882270 0.386536 0.964608
O2_2 O 0.1089(4) 0.40087(17) 0.7449(5)
N1_2 N 0.000000 0.1005(3) 0.750000
C1_2 C 0.000000 0.3719(3) 0.750000
C3_2 C 0.000000 0.1654(3) 0.750000
C4_2 C 0.1327(6) 0.2004(3) 0.8014(8)
H3_2 H 0.222854 0.178845 0.839204
C5_2 C 0.000000 0.3003(4) 0.750000
C6_2 C 0.1317(6) 0.2660(3) 0.7969(7)
H4_2 H 0.220622 0.287877 0.825587
O5_2 O 0.3551(4) 0.01502(17) 0.9466(5)
O7_2 O 0.2275(5) 0.0447(2) 0.6883(5)
C8_2 C 0.2419(6) 0.0395(3) 0.8349(8)
C11_2 C 0.1195(7) 0.0648(3) 0.8784(8)
H9_2 H 0.075755 0.028903 0.910051
H10_2 H 0.164811 0.092149 0.974408
La2_3 La 0.500000 0.98632(2) 0.250000
O1_2 O 0.6449(4) 0.01502(17) 0.5534(5)
O3_2 O 0.7725(5) 0.0447(2) 0.8117(5)
N1_3 N 1.000000 0.1005(3) 0.750000
C1_3 C 1.000000 0.3719(3) 0.750000
C2_2 C 0.7581(6) 0.0395(3) 0.6651(8)
C3_3 C 1.000000 0.1654(3) 0.750000
C5_3 C 1.000000 0.3003(4) 0.750000
C7_2 C 0.8805(7) 0.0648(3) 0.6216(8)
H5_2 H 0.924245 0.028903 0.589949
H6_2 H 0.835189 0.092149 0.525592
O6_2 O 0.8911(4) 0.40087(17) 0.7551(5)
C9_2 C 0.8673(6) 0.2004(3) 0.6986(8)
H7_2 H 0.777146 0.178845 0.660796
C10_2 C 0.8683(6) 0.2660(3) 0.7031(7)
H8_2 H 0.779378 0.287877 0.674413
O12_2 O 0.3911(4) 0.09913(17) 0.2551(5)
O13_2 O 0.6089(4) 0.09913(17) 0.2449(5)
O4_2 O 0.4397(7) 0.8846(2) 0.0780(6)
H1_2 H 0.475061 0.845518 0.128662
O8_2 O 0.5603(7) 0.8846(2) 0.4220(6)
H11_2 H 0.524939 0.845518 0.371338
H12_2 H 0.617730 0.886536 0.535392
O10_2 O 0.3551(4) 0.98498(17) 0.4466(5)
O11_2 O 0.6449(4) 0.98498(17) 0.0534(5)
O14_2 O 0.2275(5) 0.9553(2) 0.1883(5)
O15_2 O 0.7725(5) 0.9553(2) 0.3117(5)
H2_2 H 0.117730 0.613464 0.035392
O4_3 O 0.0603(7) 0.6154(2) 0.9220(6)
H1_3 H 0.024939 0.654482 0.871338
N1_4 N 0.500000 0.3995(3) 0.250000
C1_4 C 0.500000 0.1281(3) 0.250000
C2_3 C 0.7419(6) 0.4605(3) 0.3349(8)
C3_4 C 0.500000 0.3346(3) 0.250000
C4_3 C 0.3673(6) 0.2996(3) 0.1986(8)
H3_3 H 0.277146 0.321155 0.160796
C5_4 C 0.500000 0.1997(4) 0.250000
C6_3 C 0.3683(6) 0.2340(3) 0.2031(7)
H4_3 H 0.279378 0.212123 0.174413
C7_3 C 0.6195(7) 0.4352(3) 0.3784(8)
H5_3 H 0.575755 0.471097 0.410051
H6_3 H 0.664811 0.407851 0.474408
C8_3 C 0.2581(6) 0.4605(3) 0.1651(8)
C9_3 C 0.6327(6) 0.2996(3) 0.3014(8)
H7_3 H 0.722854 0.321155 0.339204
C10_3 C 0.6317(6) 0.2340(3) 0.2969(7)
H8_3 H 0.720622 0.212123 0.325587
C11_3 C 0.3805(7) 0.4352(3) 0.1216(8)
H9_3 H 0.424245 0.471097 0.089949
H10_3 H 0.335189 0.407851 0.025592
O8_3 O 0.9397(7) 0.6154(2) 0.5780(6)
H11_3 H 0.975061 0.654482 0.628662
H12_3 H 0.882270 0.613464 0.464608
O4_4 O 0.5603(7) 0.1154(2) 0.9220(6)
H1_4 H 0.524939 0.154482 0.871338
O8_4 O 0.4397(7) 0.1154(2) 0.5780(6)
H11_4 H 0.475061 0.154482 0.628662
H12_4 H 0.382270 0.113464 0.464608
N1_5 N -0.000000 0.8995(3) 0.250000
C1_5 C -0.000000 0.6281(3) 0.250000
C2_4 C 0.2419(6) 0.9605(3) 0.3349(8)
C3_5 C -0.000000 0.8346(3) 0.250000
C5_5 C -0.000000 0.6997(4) 0.250000
C7_4 C 0.1195(7) 0.9352(3) 0.3784(8)
H5_4 H 0.075755 0.971097 0.410051
H6_4 H 0.164811 0.907851 0.474408
C9_4 C 0.1327(6) 0.7996(3) 0.3014(8)
H7_4 H 0.222854 0.821155 0.339204
C10_4 C 0.1317(6) 0.7340(3) 0.2969(7)
H8_4 H 0.220622 0.712123 0.325587
N1_6 N 1.000000 0.8995(3) 0.250000
C1_6 C 1.000000 0.6281(3) 0.250000
C3_6 C 1.000000 0.8346(3) 0.250000
C4_4 C 0.8673(6) 0.7996(3) 0.1986(8)
H3_4 H 0.777146 0.821155 0.160796
C5_6 C 1.000000 0.6997(4) 0.250000
C6_4 C 0.8683(6) 0.7340(3) 0.2031(7)
H4_4 H 0.779378 0.712123 0.174413
C8_4 C 0.7581(6) 0.9605(3) 0.1651(8)
C11_4 C 0.8805(7) 0.9352(3) 0.1216(8)
H9_4 H 0.924245 0.971097 0.089949
H10_4 H 0.835189 0.907851 0.025592
H2_3 H 0.382270 0.886536 0.964608
H2_4 H 0.617730 0.113464 0.035392
loop_
_geom_bond_atom_site_label_1
_geom_bond_atom_site_label_2
_geom_bond_site_symmetry_1
_geom_bond_site_symmetry_2
La2 O1 1_555 1_555
O1 C2 1_555 1_555
O2 C1 1_555 1_555
O3 C2 1_555 1_555
N1 C3 1_555 1_555
C1 C5 1_555 1_555
C2 C7 1_555 1_555
C3 C4 1_555 1_555
C4 H3 1_555 1_555
C5 C6 1_555 1_555
C6 C4 1_555 1_555
H4 C6 1_555 1_555
C7 N1 1_555 1_555
H5 C7 1_555 1_555
H6 C7 1_555 1_555
O5 C8 1_555 1_555
O6 C1 1_555 1_555
O7 C8 1_555 1_555
C8 C11 1_555 1_555
C9 C3 1_555 1_555
H7 C9 1_555 1_555
C10 C5 1_555 1_555
H8 C10 1_555 1_555
C11 N1 1_555 1_555
H9 C11 1_555 1_555
H10 C11 1_555 1_555
O8 La2 1_555 1_555
H11 O8 1_555 1_555
H12 O8 1_555 1_555
La4 O1 1_555 1_555
La4_2 O5 1_555 1_555
O11 La2 1_555 1_555
O13 La2 1_555 1_555
O15 La2 1_555 1_555
O3 La4 1_555 1_555
O7 La4_2 1_555 1_555
C9 C10 1_555 1_555
O4 La2_2 1_555 1_555
H1 O4 1_555 1_555
O10 La2_2 1_555 1_555
O12 La2_2 1_555 1_555
O14 La2_2 1_555 1_555
La4_2 O10 1_555 1_555
O2_2 C1_2 1_555 1_555
N1_2 C3_2 1_555 1_555
C1_2 C5_2 1_555 1_555
C3_2 C4_2 1_555 1_555
C4_2 H3_2 1_555 1_555
C5_2 C6_2 1_555 1_555
C6_2 C4_2 1_555 1_555
H4_2 C6_2 1_555 1_555
O5_2 C8_2 1_555 1_555
O7_2 C8_2 1_555 1_555
C8_2 C11_2 1_555 1_555
C11_2 N1_2 1_555 1_555
H9_2 C11_2 1_555 1_555
H10_2 C11_2 1_555 1_555
La5 O5_2 1_555 1_555
La4 O2_2 1_555 1_555
O7_2 La5 1_555 1_555
O1_2 C2_2 1_555 1_555
O3_2 C2_2 1_555 1_555
N1_3 C3_3 1_555 1_555
C1_3 C5_3 1_555 1_555
C2_2 C7_2 1_555 1_555
C7_2 N1_3 1_555 1_555
H5_2 C7_2 1_555 1_555
H6_2 C7_2 1_555 1_555
O6_2 C1_3 1_555 1_555
C9_2 C3_3 1_555 1_555
H7_2 C9_2 1_555 1_555
C10_2 C5_3 1_555 1_555
H8_2 C10_2 1_555 1_555
La5 O1_2 1_555 1_555
O3_2 La5 1_555 1_555
O6_2 La4_2 1_555 1_555
C9_2 C10_2 1_555 1_555
O4_2 La2_3 1_555 1_555
H1_2 O4_2 1_555 1_555
O8_2 La2_3 1_555 1_555
H11_2 O8_2 1_555 1_555
H12_2 O8_2 1_555 1_555
O10_2 La2_3 1_555 1_555
O11_2 La2_3 1_555 1_555
O14_2 La2_3 1_555 1_555
O15_2 La2_3 1_555 1_555
O4_3 La4 1_555 1_555
H1_3 O4_3 1_555 1_555
O10 C2_3 1_555 1_555
O12_2 C1_4 1_555 1_555
O14 C2_3 1_555 1_555
N1_4 C3_4 1_555 1_555
C1_4 C5_4 1_555 1_555
C2_3 C7_3 1_555 1_555
C3_4 C4_3 1_555 1_555
C4_3 H3_3 1_555 1_555
C5_4 C6_3 1_555 1_555
C6_3 C4_3 1_555 1_555
H4_3 C6_3 1_555 1_555
C7_3 N1_4 1_555 1_555
H5_3 C7_3 1_555 1_555
H6_3 C7_3 1_555 1_555
O11 C8_3 1_555 1_555
O13_2 C1_4 1_555 1_555
O15 C8_3 1_555 1_555
C8_3 C11_3 1_555 1_555
C9_3 C3_4 1_555 1_555
H7_3 C9_3 1_555 1_555
C10_3 C5_4 1_555 1_555
H8_3 C10_3 1_555 1_555
C11_3 N1_4 1_555 1_555
H9_3 C11_3 1_555 1_555
H10_3 C11_3 1_555 1_555
O8_3 La4_2 1_555 1_555
H11_3 O8_3 1_555 1_555
H12_3 O8_3 1_555 1_555
C9_3 C10_3 1_555 1_555
O4_4 La5 1_555 1_555
H1_4 O4_4 1_555 1_555
O8_4 La5 1_555 1_555
H11_4 O8_4 1_555 1_555
H12_4 O8_4 1_555 1_555
O10_2 C2_4 1_555 1_555
O14_2 C2_4 1_555 1_555
N1_5 C3_5 1_555 1_555
C1_5 C5_5 1_555 1_555
C2_4 C7_4 1_555 1_555
C7_4 N1_5 1_555 1_555
H5_4 C7_4 1_555 1_555
H6_4 C7_4 1_555 1_555
O13 C1_5 1_555 1_555
C9_4 C3_5 1_555 1_555
H7_4 C9_4 1_555 1_555
C10_4 C5_5 1_555 1_555
H8_4 C10_4 1_555 1_555
C9_4 C10_4 1_555 1_555
O12 C1_6 1_555 1_555
N1_6 C3_6 1_555 1_555
C1_6 C5_6 1_555 1_555
C3_6 C4_4 1_555 1_555
C4_4 H3_4 1_555 1_555
C5_6 C6_4 1_555 1_555
C6_4 C4_4 1_555 1_555
H4_4 C6_4 1_555 1_555
O11_2 C8_4 1_555 1_555
O15_2 C8_4 1_555 1_555
C8_4 C11_4 1_555 1_555
C11_4 N1_6 1_555 1_555
H9_4 C11_4 1_555 1_555
H10_4 C11_4 1_555 1_555

#END
