
###############################################################################
#
# This file contains modified crystal structure data generated from the
# MOF subset of the Cambridge Structural Database (CSD) v543 
# hosted by the Cambridge Crystallographic Data Centre (CCDC).
#
# This work is licensed under the Creative Commons
# Attribution-NonCommercial-ShareAlike 4.0 International License.
# To view a copy of this license, visit
# http://creativecommons.org/licenses/by-nc-sa/4.0/
# or send a letter to
# Creative Commons, PO Box 1866, Mountain View, CA 94042, USA.
#
# CIF created using the CSD Python API on 29 September 2022
# The structure has been converted into the P1 space group
# The structure has a 3D framework
# The original CSD entry VOXKIE is in the monoclinic crystal system
# The framework has been calculated to contain at least 10.0% void space
# The void calculation uses a probe of radius 1.32A, grid spacing 0.4
# H atom positions have been added when not included in the experimental data
# Generated hydrogen atom positions removed from atoms on special positions
#
###############################################################################

data_VOXKIE
_chemical_formula_moiety         '(C104 H112 O64 Tb8)n'
_symmetry_cell_setting           triclinic
_symmetry_space_group_name_H-M   'P 1'
_symmetry_Int_Tables_number      1
_space_group_name_Hall           'P 1'
loop_
_symmetry_equiv_pos_site_id
_symmetry_equiv_pos_as_xyz
1 x,y,z
_cell_length_a                   23.7544(7)
_cell_length_b                   10.5386(2)
_cell_length_c                   19.7584(6)
_cell_angle_alpha                90
_cell_angle_beta                 125.8050(10)
_cell_angle_gamma                90
_cell_volume                     4011.5
loop_
_atom_site_label
_atom_site_type_symbol
_atom_site_fract_x
_atom_site_fract_y
_atom_site_fract_z
Tb7 Tb 0.001319(7) 0.453411(12) 0.873525(10)
Tb3 Tb 0.498681(7) 0.046589(12) 0.126475(10)
Tb4 Tb 0.501319(7) 0.046589(12) 0.373525(10)
O1 O 0.38641(15) 0.0291(3) 0.1042(2)
C1 C 0.5000 0.8219(4) 0.2500
O4 O 0.44564(14) 0.1533(3) 0.00356(17)
O7 O 0.48112(17) 0.2187(3) 0.1835(2)
C2 C 0.5000 0.2726(4) 0.2500
O8 O 0.51722(17) 0.8776(2) 0.2091(2)
C3 C 0.5000 0.4146(4) 0.2500
C4 C 0.5000 0.6794(4) 0.2500
C6 C 0.5090(3) 0.6139(3) 0.1963(3)
H1 H 0.5157 0.6582 0.1609
C10 C 0.5079(3) 0.4816(3) 0.1951(3)
H3 H 0.5124 0.4379 0.1576
O9 O 0.51888(17) 0.2187(3) 0.3165(2)
C15 C 0.4910(3) 0.6139(3) 0.3037(3)
H7 H 0.4843 0.6582 0.3391
C16 C 0.4921(3) 0.4816(3) 0.3049(3)
H8 H 0.4876 0.4379 0.3424
O10 O 0.48278(17) 0.8776(2) 0.2909(2)
O11 O 0.61359(15) 0.0291(3) 0.3958(2)
O12 O 0.88786(14) 0.4111(3) 0.74377(18)
O13 O 0.91337(15) 0.2953(3) 0.85084(19)
O14 O 0.55436(14) 0.1533(3) 0.49644(17)
O15 O 0.57317(16) 0.0588(3) 0.6081(2)
C17 C 0.59168(17) 0.1271(3) 0.5730(2)
C18 C 0.66396(17) 0.1806(3) 0.6264(2)
C19 C 0.6870(2) 0.2614(4) 0.5918(3)
H9 H 0.6576 0.2829 0.5356
C20 C 0.7086(2) 0.1497(5) 0.7104(3)
C21 C 0.79845(18) 0.2778(4) 0.7242(2)
C22 C 0.7541(2) 0.3101(5) 0.6414(3)
H10 H 0.7690 0.3652 0.6181
C23 C 0.7754(2) 0.1963(5) 0.7585(3)
H11 H 0.8054 0.1729 0.8143
C24 C 0.87043(18) 0.3297(4) 0.7759(2)
H12 H 0.696(3) 0.090(5) 0.736(4)
O17 O 0.38786(14) 0.0889(3) 0.24377(18)
O18 O 0.61214(14) 0.0889(3) 0.25623(18)
O19 O 0.41337(15) 0.2047(3) 0.35084(19)
O20 O 0.58663(15) 0.2047(3) 0.14916(19)
H17 H 0.642961 0.103031 0.428735
O2 O 0.11214(14) 0.4111(3) 0.75623(18)
O3 O 0.08663(15) 0.2953(3) 0.64916(19)
O5 O 0.42683(16) 0.0588(3) 0.8919(2)
C5 C 0.40832(17) 0.1271(3) 0.9270(2)
C7 C 0.33604(17) 0.1806(3) 0.8736(2)
C8 C 0.3130(2) 0.2614(4) 0.9082(3)
H2 H 0.3424 0.2829 0.9644
C9 C 0.2914(2) 0.1497(5) 0.7896(3)
C11 C 0.20155(18) 0.2778(4) 0.7758(2)
C12 C 0.2459(2) 0.3101(5) 0.8586(3)
H4 H 0.2310 0.3652 0.8819
C13 C 0.2246(2) 0.1963(5) 0.7415(3)
H5 H 0.1946 0.1729 0.6857
C14 C 0.12957(18) 0.3297(4) 0.7241(2)
H6 H 0.304(3) 0.090(5) 0.764(4)
O6 O 0.42722(18) 0.8846(3) 0.0211(2)
O16 O 0.57278(18) 0.8846(3) 0.4789(2)
Tb6 Tb 0.498681(7) 0.953411(12) 0.626475(10)
O21 O 0.57317(16) 0.9412(3) 0.1081(2)
O22 O 0.42683(16) 0.9412(3) 0.3919(2)
H13 H 0.35351 0.982224 0.0515365
H14 H 0.392202 0.982654 0.151634
H16 H 0.453338 0.846968 0.00107274
H18 H 0.636962 0.949607 0.426687
Tb5 Tb 0.501319(7) 0.953411(12) 0.873525(10)
H15 H 0.383821 0.924012 0.973449
Tb8 Tb 0.998681(7) 0.453411(12) 0.626475(10)
H17_2 H 0.357039 0.103031 0.0712653
H13_2 H 0.64649 0.982224 0.448463
H14_2 H 0.607798 0.982654 0.348366
H18_2 H 0.363038 0.949607 0.0733128
H20 H 0.45748 0.826376 0.0160988
H19 H 0.39359 0.926165 0.966478
C1_2 C 0.0000 0.3219(4) 0.2500
O8_2 O 0.01722(17) 0.3776(2) 0.2091(2)
C4_2 C 0.0000 0.1794(4) 0.2500
C6_2 C 0.0090(3) 0.1139(3) 0.1963(3)
H1_2 H 0.0157 0.1582 0.1609
Tb4_2 Tb 0.001319(7) 0.546589(12) 0.373525(10)
C2_2 C 0.0000 0.7726(4) 0.2500
C3_2 C 0.0000 0.9146(4) 0.2500
C10_2 C 0.0079(3) 0.9816(3) 0.1951(3)
H3_2 H 0.0124 0.9379 0.1576
O9_2 O 0.01888(17) 0.7187(3) 0.3165(2)
O11_2 O 0.11359(15) 0.5291(3) 0.3958(2)
O12_2 O 0.38786(14) 0.9111(3) 0.74377(18)
O13_2 O 0.41337(15) 0.7953(3) 0.85084(19)
O14_2 O 0.05436(14) 0.6533(3) 0.49644(17)
O15_2 O 0.07317(16) 0.5588(3) 0.6081(2)
O16_2 O 0.07278(18) 0.3846(3) 0.4789(2)
C17_2 C 0.09168(17) 0.6271(3) 0.5730(2)
C18_2 C 0.16396(17) 0.6806(3) 0.6264(2)
C19_2 C 0.1870(2) 0.7614(4) 0.5918(3)
H9_2 H 0.1576 0.7829 0.5356
C20_2 C 0.2086(2) 0.6497(5) 0.7104(3)
C21_2 C 0.29845(18) 0.7778(4) 0.7242(2)
C22_2 C 0.2541(2) 0.8101(5) 0.6414(3)
H10_2 H 0.2690 0.8652 0.6181
C23_2 C 0.2754(2) 0.6963(5) 0.7585(3)
H11_2 H 0.3054 0.6729 0.8143
C24_2 C 0.37043(18) 0.8297(4) 0.7759(2)
H12_2 H 0.196(3) 0.590(5) 0.736(4)
O18_2 O 0.11214(14) 0.5889(3) 0.25623(18)
O20_2 O 0.08663(15) 0.7047(3) 0.14916(19)
O21_2 O 0.07317(16) 0.4412(3) 0.1081(2)
C1_3 C 1.0000 0.3219(4) 0.2500
C4_3 C 1.0000 0.1794(4) 0.2500
C15_2 C 0.9910(3) 0.1139(3) 0.3037(3)
H7_2 H 0.9843 0.1582 0.3391
O10_2 O 0.98278(17) 0.3776(2) 0.2909(2)
Tb3_2 Tb 0.998681(7) 0.546589(12) 0.126475(10)
O1_2 O 0.88641(15) 0.5291(3) 0.1042(2)
O4_2 O 0.94564(14) 0.6533(3) 0.00356(17)
O6_2 O 0.92722(18) 0.3846(3) 0.0211(2)
O7_2 O 0.98112(17) 0.7187(3) 0.1835(2)
C2_3 C 1.0000 0.7726(4) 0.2500
C3_3 C 1.0000 0.9146(4) 0.2500
C16_2 C 0.9921(3) 0.9816(3) 0.3049(3)
H8_2 H 0.9876 0.9379 0.3424
O17_2 O 0.88786(14) 0.5889(3) 0.24377(18)
O19_2 O 0.91337(15) 0.7047(3) 0.35084(19)
O22_2 O 0.92683(16) 0.4412(3) 0.3919(2)
H16_2 H 0.953338 0.346968 0.00107274
O2_2 O 0.61214(14) 0.9111(3) 0.75623(18)
O3_2 O 0.58663(15) 0.7953(3) 0.64916(19)
O5_2 O 0.92683(16) 0.5588(3) 0.8919(2)
C5_2 C 0.90832(17) 0.6271(3) 0.9270(2)
C7_2 C 0.83604(17) 0.6806(3) 0.8736(2)
C8_2 C 0.8130(2) 0.7614(4) 0.9082(3)
H2_2 H 0.8424 0.7829 0.9644
C9_2 C 0.7914(2) 0.6497(5) 0.7896(3)
C11_2 C 0.70155(18) 0.7778(4) 0.7758(2)
C12_2 C 0.7459(2) 0.8101(5) 0.8586(3)
H4_2 H 0.7310 0.8652 0.8819
C13_2 C 0.7246(2) 0.6963(5) 0.7415(3)
H5_2 H 0.6946 0.6729 0.6857
C14_2 C 0.62957(18) 0.8297(4) 0.7241(2)
H6_2 H 0.804(3) 0.590(5) 0.764(4)
H15_2 H 0.883821 0.424012 0.973449
H20_2 H 0.95748 0.326376 0.0160988
H19_2 H 0.89359 0.426165 0.966478
H15_3 H 0.616179 0.0759881 0.0265508
O6_3 O 0.57278(18) 0.1154(3) 0.9789(2)
O16_3 O 0.42722(18) 0.1154(3) 0.5211(2)
O23 O 0.48278(17) 0.1224(2) 0.7909(2)
O24 O 0.51722(17) 0.1224(2) 0.7091(2)
H13_3 H 0.64649 0.0177758 0.948463
H14_3 H 0.607798 0.0173465 0.848366
H16_3 H 0.546662 0.153032 0.998927
H18_3 H 0.363038 0.0503926 0.573313
C5_3 C 0.59168(17) 0.8729(3) 0.0730(2)
C7_3 C 0.66396(17) 0.8194(3) 0.1264(2)
C8_3 C 0.6870(2) 0.7386(4) 0.0918(3)
H2_3 H 0.6576 0.7171 0.0356
C9_3 C 0.7086(2) 0.8503(5) 0.2104(3)
C11_3 C 0.79845(18) 0.7222(4) 0.2242(2)
C12_3 C 0.7541(2) 0.6899(5) 0.1414(3)
H4_3 H 0.7690 0.6348 0.1181
C13_3 C 0.7754(2) 0.8037(5) 0.2585(3)
H5_3 H 0.8054 0.8271 0.3143
C14_3 C 0.87043(18) 0.6703(4) 0.2759(2)
H6_3 H 0.696(3) 0.910(5) 0.236(4)
O1_3 O 0.61359(15) 0.9709(3) 0.8958(2)
C1_4 C 0.5000 0.1781(4) 0.7500
O4_3 O 0.55436(14) 0.8467(3) 0.99644(17)
O7_3 O 0.51888(17) 0.7813(3) 0.8165(2)
C2_4 C 0.5000 0.7274(4) 0.7500
C3_4 C 0.5000 0.5854(4) 0.7500
C4_4 C 0.5000 0.3206(4) 0.7500
C6_3 C 0.4910(3) 0.3861(3) 0.8037(3)
H1_3 H 0.4843 0.3418 0.8391
C10_3 C 0.4921(3) 0.5184(3) 0.8049(3)
H3_3 H 0.4876 0.5621 0.8424
O9_3 O 0.48112(17) 0.7813(3) 0.6835(2)
C15_3 C 0.5090(3) 0.3861(3) 0.6963(3)
H7_3 H 0.5157 0.3418 0.6609
C16_3 C 0.5079(3) 0.5184(3) 0.6951(3)
H8_3 H 0.5124 0.5621 0.6576
O11_3 O 0.38641(15) 0.9709(3) 0.6042(2)
O14_3 O 0.44564(14) 0.8467(3) 0.50356(17)
C17_3 C 0.40832(17) 0.8729(3) 0.4270(2)
C18_3 C 0.33604(17) 0.8194(3) 0.3736(2)
C19_3 C 0.3130(2) 0.7386(4) 0.4082(3)
H9_3 H 0.3424 0.7171 0.4644
C20_3 C 0.2914(2) 0.8503(5) 0.2896(3)
C21_3 C 0.20155(18) 0.7222(4) 0.2758(2)
C22_3 C 0.2459(2) 0.6899(5) 0.3586(3)
H10_3 H 0.2310 0.6348 0.3819
C23_3 C 0.2246(2) 0.8037(5) 0.2415(3)
H11_3 H 0.1946 0.8271 0.1857
C24_3 C 0.12957(18) 0.6703(4) 0.2241(2)
H12_3 H 0.304(3) 0.910(5) 0.264(4)
H17_3 H 0.357039 0.896969 0.571265
H19_3 H 0.60641 0.0738348 0.0335225
H13_4 H 0.35351 0.0177758 0.551537
H14_4 H 0.392202 0.0173465 0.651634
H18_4 H 0.636962 0.0503926 0.926687
H20_3 H 0.54252 0.173624 0.983901
H17_4 H 0.642961 0.896969 0.928735
C5_4 C 0.09168(17) 0.3729(3) 0.0730(2)
C7_4 C 0.16396(17) 0.3194(3) 0.1264(2)
C8_4 C 0.1870(2) 0.2386(4) 0.0918(3)
H2_4 H 0.1576 0.2171 0.0356
C9_4 C 0.2086(2) 0.3503(5) 0.2104(3)
C11_4 C 0.29845(18) 0.2222(4) 0.2242(2)
C12_4 C 0.2541(2) 0.1899(5) 0.1414(3)
H4_4 H 0.2690 0.1348 0.1181
C13_4 C 0.2754(2) 0.3037(5) 0.2585(3)
H5_4 H 0.3054 0.3271 0.3143
C14_4 C 0.37043(18) 0.1703(4) 0.2759(2)
H6_4 H 0.196(3) 0.410(5) 0.236(4)
H15_4 H 0.116179 0.575988 0.0265508
O1_4 O 0.11359(15) 0.4709(3) 0.8958(2)
O4_4 O 0.05436(14) 0.3467(3) 0.99644(17)
O6_4 O 0.07278(18) 0.6154(3) 0.9789(2)
O7_4 O 0.01888(17) 0.2813(3) 0.8165(2)
C2_5 C 0.0000 0.2274(4) 0.7500
C3_5 C 0.0000 0.0854(4) 0.7500
C16_4 C 0.0079(3) 0.0184(3) 0.6951(3)
H8_4 H 0.0124 0.0621 0.6576
O24_2 O 0.01722(17) 0.6224(2) 0.7091(2)
H16_4 H 0.0466618 0.653032 0.998927
C1_5 C 0.0000 0.6781(4) 0.7500
C4_5 C 0.0000 0.8206(4) 0.7500
C15_4 C 0.0090(3) 0.8861(3) 0.6963(3)
H7_4 H 0.0157 0.8418 0.6609
C2_6 C 1.0000 0.2274(4) 0.7500
C3_6 C 1.0000 0.0854(4) 0.7500
C10_4 C 0.9921(3) 0.0184(3) 0.8049(3)
H3_4 H 0.9876 0.0621 0.8424
O9_4 O 0.98112(17) 0.2813(3) 0.6835(2)
O11_4 O 0.88641(15) 0.4709(3) 0.6042(2)
O14_4 O 0.94564(14) 0.3467(3) 0.50356(17)
O16_4 O 0.92722(18) 0.6154(3) 0.5211(2)
C17_4 C 0.90832(17) 0.3729(3) 0.4270(2)
C18_4 C 0.83604(17) 0.3194(3) 0.3736(2)
C19_4 C 0.8130(2) 0.2386(4) 0.4082(3)
H9_4 H 0.8424 0.2171 0.4644
C20_4 C 0.7914(2) 0.3503(5) 0.2896(3)
C21_4 C 0.70155(18) 0.2222(4) 0.2758(2)
C22_4 C 0.7459(2) 0.1899(5) 0.3586(3)
H10_4 H 0.7310 0.1348 0.3819
C23_4 C 0.7246(2) 0.3037(5) 0.2415(3)
H11_4 H 0.6946 0.3271 0.1857
C24_4 C 0.62957(18) 0.1703(4) 0.2241(2)
H12_4 H 0.804(3) 0.410(5) 0.264(4)
O23_2 O 0.98278(17) 0.6224(2) 0.7909(2)
C1_6 C 1.0000 0.6781(4) 0.7500
C4_6 C 1.0000 0.8206(4) 0.7500
C6_4 C 0.9910(3) 0.8861(3) 0.8037(3)
H1_4 H 0.9843 0.8418 0.8391
H19_4 H 0.10641 0.573835 0.0335225
H20_4 H 0.0425204 0.673624 0.983901
loop_
_geom_bond_atom_site_label_1
_geom_bond_atom_site_label_2
_geom_bond_site_symmetry_1
_geom_bond_site_symmetry_2
Tb3 O1 1_555 1_555
C1 O8 1_555 1_555
O4 Tb3 1_555 1_555
O7 Tb3 1_555 1_555
C2 O7 1_555 1_555
C3 C2 1_555 1_555
C4 C1 1_555 1_555
C6 C4 1_555 1_555
H1 C6 1_555 1_555
C10 C3 1_555 1_555
H3 C10 1_555 1_555
O9 C2 1_555 1_555
C15 C4 1_555 1_555
H7 C15 1_555 1_555
C16 C3 1_555 1_555
H8 C16 1_555 1_555
O10 C1 1_555 1_555
Tb4 O9 1_555 1_555
O11 Tb4 1_555 1_555
O12 C24 1_555 1_555
O13 C24 1_555 1_555
O14 Tb4 1_555 1_555
O15 C17 1_555 1_555
C17 O14 1_555 1_555
C18 C17 1_555 1_555
C19 C18 1_555 1_555
H9 C19 1_555 1_555
C20 C18 1_555 1_555
C21 C22 1_555 1_555
C22 C19 1_555 1_555
H10 C22 1_555 1_555
C23 C20 1_555 1_555
H11 C23 1_555 1_555
C24 C21 1_555 1_555
H12 C20 1_555 1_555
O17 Tb4 1_555 1_555
O18 Tb3 1_555 1_555
O19 Tb4 1_555 1_555
O20 Tb3 1_555 1_555
C6 C10 1_555 1_555
C15 C16 1_555 1_555
C21 C23 1_555 1_555
O11 H17 1_555 1_555
O2 C14 1_555 1_555
O3 C14 1_555 1_555
O5 C5 1_555 1_555
C7 C5 1_555 1_555
C8 C7 1_555 1_555
H2 C8 1_555 1_555
C9 C7 1_555 1_555
C11 C12 1_555 1_555
C12 C8 1_555 1_555
H4 C12 1_555 1_555
C13 C9 1_555 1_555
H5 C13 1_555 1_555
C14 C11 1_555 1_555
H6 C9 1_555 1_555
C11 C13 1_555 1_555
O6 H16 1_555 1_555
O1 H17_2 1_555 1_555
O6 H20 1_555 1_555
C1_2 O8_2 1_555 1_555
C4_2 C1_2 1_555 1_555
C6_2 C4_2 1_555 1_555
H1_2 C6_2 1_555 1_555
C3_2 C2_2 1_555 1_555
C10_2 C3_2 1_555 1_555
H3_2 C10_2 1_555 1_555
O9_2 C2_2 1_555 1_555
Tb4_2 O9_2 1_555 1_555
O11_2 Tb4_2 1_555 1_555
O12_2 C24_2 1_555 1_555
O13_2 C24_2 1_555 1_555
O14_2 Tb4_2 1_555 1_555
O15_2 C17_2 1_555 1_555
O16_2 Tb4_2 1_555 1_555
C17_2 O14_2 1_555 1_555
C18_2 C17_2 1_555 1_555
C19_2 C18_2 1_555 1_555
H9_2 C19_2 1_555 1_555
C20_2 C18_2 1_555 1_555
C21_2 C22_2 1_555 1_555
C22_2 C19_2 1_555 1_555
H10_2 C22_2 1_555 1_555
C23_2 C20_2 1_555 1_555
H11_2 C23_2 1_555 1_555
C24_2 C21_2 1_555 1_555
H12_2 C20_2 1_555 1_555
Tb5 O12_2 1_555 1_555
O13_2 Tb5 1_555 1_555
C21_2 C23_2 1_555 1_555
C4_3 C1_3 1_555 1_555
C15_2 C4_3 1_555 1_555
H7_2 C15_2 1_555 1_555
O10_2 C1_3 1_555 1_555
Tb3_2 O1_2 1_555 1_555
O4_2 Tb3_2 1_555 1_555
O6_2 Tb3_2 1_555 1_555
O7_2 Tb3_2 1_555 1_555
C2_3 O7_2 1_555 1_555
C3_3 C2_3 1_555 1_555
C16_2 C3_3 1_555 1_555
H8_2 C16_2 1_555 1_555
O6_2 H16_2 1_555 1_555
O2_2 C14_2 1_555 1_555
O3_2 C14_2 1_555 1_555
O5_2 C5_2 1_555 1_555
C7_2 C5_2 1_555 1_555
C8_2 C7_2 1_555 1_555
H2_2 C8_2 1_555 1_555
C9_2 C7_2 1_555 1_555
C11_2 C12_2 1_555 1_555
C12_2 C8_2 1_555 1_555
H4_2 C12_2 1_555 1_555
C13_2 C9_2 1_555 1_555
H5_2 C13_2 1_555 1_555
C14_2 C11_2 1_555 1_555
H6_2 C9_2 1_555 1_555
Tb6 O2_2 1_555 1_555
O3_2 Tb6 1_555 1_555
C11_2 C13_2 1_555 1_555
O6_2 H20_2 1_555 1_555
O6_3 H16_3 1_555 1_555
O17_2 C14_3 1_555 1_555
O19_2 C14_3 1_555 1_555
O21 C5_3 1_555 1_555
C7_3 C5_3 1_555 1_555
C8_3 C7_3 1_555 1_555
H2_3 C8_3 1_555 1_555
C9_3 C7_3 1_555 1_555
C11_3 C12_3 1_555 1_555
C12_3 C8_3 1_555 1_555
H4_3 C12_3 1_555 1_555
C13_3 C9_3 1_555 1_555
H5_3 C13_3 1_555 1_555
C14_3 C11_3 1_555 1_555
H6_3 C9_3 1_555 1_555
C11_3 C13_3 1_555 1_555
Tb5 O1_3 1_555 1_555
C1_4 O23 1_555 1_555
O4_3 Tb5 1_555 1_555
O7_3 Tb5 1_555 1_555
C2_4 O7_3 1_555 1_555
C3_4 C2_4 1_555 1_555
C4_4 C1_4 1_555 1_555
C6_3 C4_4 1_555 1_555
H1_3 C6_3 1_555 1_555
C10_3 C3_4 1_555 1_555
H3_3 C10_3 1_555 1_555
O9_3 C2_4 1_555 1_555
C15_3 C4_4 1_555 1_555
H7_3 C15_3 1_555 1_555
C16_3 C3_4 1_555 1_555
H8_3 C16_3 1_555 1_555
O24 C1_4 1_555 1_555
Tb6 O9_3 1_555 1_555
O11_3 Tb6 1_555 1_555
O18_2 C24_3 1_555 1_555
O20_2 C24_3 1_555 1_555
O14_3 Tb6 1_555 1_555
O22 C17_3 1_555 1_555
C17_3 O14_3 1_555 1_555
C18_3 C17_3 1_555 1_555
C19_3 C18_3 1_555 1_555
H9_3 C19_3 1_555 1_555
C20_3 C18_3 1_555 1_555
C21_3 C22_3 1_555 1_555
C22_3 C19_3 1_555 1_555
H10_3 C22_3 1_555 1_555
C23_3 C20_3 1_555 1_555
H11_3 C23_3 1_555 1_555
C24_3 C21_3 1_555 1_555
H12_3 C20_3 1_555 1_555
C6_3 C10_3 1_555 1_555
C15_3 C16_3 1_555 1_555
C21_3 C23_3 1_555 1_555
O11_3 H17_3 1_555 1_555
O6_3 H20_3 1_555 1_555
O1_3 H17_4 1_555 1_555
O17 C14_4 1_555 1_555
O19 C14_4 1_555 1_555
O21_2 C5_4 1_555 1_555
C7_4 C5_4 1_555 1_555
C8_4 C7_4 1_555 1_555
H2_4 C8_4 1_555 1_555
C9_4 C7_4 1_555 1_555
C11_4 C12_4 1_555 1_555
C12_4 C8_4 1_555 1_555
H4_4 C12_4 1_555 1_555
C13_4 C9_4 1_555 1_555
H5_4 C13_4 1_555 1_555
C14_4 C11_4 1_555 1_555
H6_4 C9_4 1_555 1_555
C11_4 C13_4 1_555 1_555
Tb7 O1_4 1_555 1_555
O4_4 Tb7 1_555 1_555
O6_4 Tb7 1_555 1_555
O7_4 Tb7 1_555 1_555
C2_5 O7_4 1_555 1_555
C3_5 C2_5 1_555 1_555
C16_4 C3_5 1_555 1_555
H8_4 C16_4 1_555 1_555
O6_4 H16_4 1_555 1_555
C4_5 C1_5 1_555 1_555
C15_4 C4_5 1_555 1_555
H7_4 C15_4 1_555 1_555
O24_2 C1_5 1_555 1_555
C3_6 C2_6 1_555 1_555
C10_4 C3_6 1_555 1_555
H3_4 C10_4 1_555 1_555
O9_4 C2_6 1_555 1_555
Tb8 O9_4 1_555 1_555
O11_4 Tb8 1_555 1_555
O18 C24_4 1_555 1_555
O20 C24_4 1_555 1_555
O14_4 Tb8 1_555 1_555
O22_2 C17_4 1_555 1_555
O16_4 Tb8 1_555 1_555
C17_4 O14_4 1_555 1_555
C18_4 C17_4 1_555 1_555
C19_4 C18_4 1_555 1_555
H9_4 C19_4 1_555 1_555
C20_4 C18_4 1_555 1_555
C21_4 C22_4 1_555 1_555
C22_4 C19_4 1_555 1_555
H10_4 C22_4 1_555 1_555
C23_4 C20_4 1_555 1_555
H11_4 C23_4 1_555 1_555
C24_4 C21_4 1_555 1_555
H12_4 C20_4 1_555 1_555
C21_4 C23_4 1_555 1_555
C1_6 O23_2 1_555 1_555
C4_6 C1_6 1_555 1_555
C6_4 C4_6 1_555 1_555
H1_4 C6_4 1_555 1_555
O6_4 H20_4 1_555 1_555

#END
