
###############################################################################
#
# This file contains modified crystal structure data generated from the
# MOF subset of the Cambridge Structural Database (CSD) v543 
# hosted by the Cambridge Crystallographic Data Centre (CCDC).
#
# This work is licensed under the Creative Commons
# Attribution-NonCommercial-ShareAlike 4.0 International License.
# To view a copy of this license, visit
# http://creativecommons.org/licenses/by-nc-sa/4.0/
# or send a letter to
# Creative Commons, PO Box 1866, Mountain View, CA 94042, USA.
#
# CIF created using the CSD Python API on 29 September 2022
# The structure has been converted into the P1 space group
# The structure has a 3D framework
# The original CSD entry VOXRAE is in the monoclinic crystal system
# The framework has been calculated to contain at least 10.0% void space
# The void calculation uses a probe of radius 1.32A, grid spacing 0.4
#
###############################################################################

data_VOXRAE
_chemical_formula_moiety         '(C132 H88 Cd4 N16 O20)n'
_symmetry_cell_setting           triclinic
_symmetry_space_group_name_H-M   'P 1'
_symmetry_Int_Tables_number      1
_space_group_name_Hall           'P 1'
loop_
_symmetry_equiv_pos_site_id
_symmetry_equiv_pos_as_xyz
1 x,y,z
_cell_length_a                   14.2197(7)
_cell_length_b                   14.0407(7)
_cell_length_c                   17.1630(9)
_cell_angle_alpha                90
_cell_angle_beta                 103.887(3)
_cell_angle_gamma                90
_cell_volume                     3326.51
loop_
_atom_site_label
_atom_site_type_symbol
_atom_site_fract_x
_atom_site_fract_y
_atom_site_fract_z
C1 C 0.2867(3) 0.1086(3) 0.2328(3)
H1 H 0.240482 0.068472 0.201767
C2 C 0.4091(3) 0.1993(3) 0.2708(3)
H2 H 0.464887 0.233841 0.270802
C3 C 0.3647(3) 0.1962(3) 0.3324(3)
H3 H 0.383327 0.227685 0.381325
C4 C 0.2148(3) 0.1119(3) 0.3503(3)
C5 C 0.2378(3) 0.1142(3) 0.4325(3)
H4 H 0.299684 0.132025 0.460647
C6 C 0.1682(3) 0.0896(3) 0.4737(3)
H5 H 0.183611 0.092489 0.529460
C7 C 0.0765(3) 0.0610(3) 0.4333(3)
C8 C 0.0547(3) 0.0605(4) 0.3507(3)
C9 C 0.1237(3) 0.0860(4) 0.3094(3)
H7 H 0.107883 0.085308 0.253536
Cd1 Cd 0.39773(2) 0.10952(2) 0.09207(2)
N3 N 0.2861(2) 0.1368(2) 0.3073(2)
N4 N 0.3601(3) 0.1444(3) 0.2089(2)
O2 O 0.2236(2) 0.1239(2) 0.02936(19)
O12 O 0.5135(2) 0.2308(2) 0.1043(2)
O14 O 0.5660(2) 0.0874(2) 0.1399(2)
H38 H 0.057687 0.799490 0.174147
C60 C 0.1346(5) 0.7854(6) 0.3254(3)
C61 C 0.1443(4) 0.6904(6) 0.3152(4)
H41 H 0.089912 0.651850 0.298866
C62 C 0.4183(3) 0.6738(3) 0.3705(2)
C63 C 0.3169(3) 0.7105(4) 0.3522(3)
C64 C 0.2407(4) 0.6499(5) 0.3300(4)
H42 H 0.250006 0.584890 0.324605
C65 C 0.2982(5) 0.8056(5) 0.3628(5)
H43 H 0.350715 0.846583 0.378737
C66 C 0.2080(5) 0.8427(6) 0.3513(6)
H44 H 0.198567 0.906619 0.361410
O8 O 0.4865(2) 0.7308(2) 0.3957(2)
O9 O 0.4340(2) 0.5874(2) 0.3601(2)
O10 O 0.0385(3) 0.8170(5) 0.3217(2)
Cd4 Cd 0.60227(2) 0.60952(2) 0.40793(2)
H6 H 0.993007 0.042897 0.322154
C10 C 0.9980(3) 0.0373(3) 0.4754(3)
C11 C 0.9157(3) 0.1066(3) 0.4579(2)
C12 C 0.9306(3) 0.1951(3) 0.4951(3)
H8 H 0.990428 0.209343 0.528973
C13 C 0.8270(3) 0.0892(3) 0.4053(3)
H9 H 0.816822 0.031414 0.378040
C23 C 0.5541(3) 0.3800(3) 0.4167(3)
H15 H 0.489272 0.390754 0.415582
C24 C 0.5968(3) 0.2940(3) 0.4229(3)
H16 H 0.567674 0.235439 0.426568
C25 C 0.7027(3) 0.4045(3) 0.4167(3)
H17 H 0.760825 0.434429 0.415840
C26 C 0.7681(3) 0.2414(3) 0.4322(2)
C27 C 0.8574(3) 0.2621(3) 0.4822(3)
H18 H 0.868220 0.321244 0.507148
C28 C 0.7533(3) 0.1558(3) 0.3923(3)
H19 H 0.694228 0.142747 0.356806
N1 N 0.6202(2) 0.4497(2) 0.4121(2)
N2 N 0.6923(2) 0.3102(2) 0.4227(2)
N10 N 0.6202(2) 0.0503(2) 0.9121(2)
C1_2 C 0.7133(3) 0.6086(3) 0.2672(3)
H1_2 H 0.759518 0.568472 0.298233
C2_2 C 0.5909(3) 0.6993(3) 0.2292(3)
H2_2 H 0.535113 0.733841 0.229198
C3_2 C 0.6353(3) 0.6962(3) 0.1676(3)
H3_2 H 0.616673 0.727685 0.118675
C4_2 C 0.7852(3) 0.6119(3) 0.1497(3)
C5_2 C 0.7622(3) 0.6142(3) 0.0675(3)
H4_2 H 0.700316 0.632025 0.039353
C6_2 C 0.8318(3) 0.5896(3) 0.0263(3)
C7_2 C 0.9235(3) 0.5610(3) 0.0667(3)
C8_2 C 0.9453(3) 0.5605(4) 0.1493(3)
C9_2 C 0.8763(3) 0.5860(4) 0.1906(3)
H7_2 H 0.892117 0.585308 0.246464
C14 C 0.7533(3) 0.6350(3) 0.5366(3)
C15 C 0.8300(3) 0.6458(3) 0.6119(3)
C16 C 0.9241(3) 0.6694(3) 0.6086(3)
H10 H 0.938962 0.675279 0.558866
C17 C 0.9952(3) 0.6841(5) 0.6770(3)
C18 C 0.9726(3) 0.6742(5) 0.7494(3)
C19 C 0.8793(3) 0.6508(4) 0.7547(3)
H12 H 0.865070 0.644163 0.804599
C20 C 0.8093(3) 0.6377(3) 0.6864(3)
H13 H 0.746527 0.623143 0.689642
N3_2 N 0.7139(2) 0.6368(2) 0.1927(2)
N4_2 N 0.6399(3) 0.6444(3) 0.2911(2)
O1 O 0.66560(19) 0.6375(2) 0.54080(17)
O2_2 O 0.7764(2) 0.6239(2) 0.47064(19)
H30 H 0.990428 0.290657 0.028973
H35 H 0.868220 0.178756 0.007148
H5_2 H 0.816389 0.592489 0.970540
H28 H 0.993007 0.457103 0.822154
C43 C 0.9980(3) 0.4627(3) 0.9754(3)
C44 C 0.9157(3) 0.3934(3) 0.9579(2)
C45 C 0.9306(3) 0.3049(3) 0.9951(3)
C46 C 0.8270(3) 0.4108(3) 0.9053(3)
H31 H 0.816822 0.468586 0.878040
C47 C 0.5541(3) 0.1200(3) 0.9167(3)
H32 H 0.489272 0.109246 0.915582
C48 C 0.5968(3) 0.2060(3) 0.9229(3)
H33 H 0.567674 0.264561 0.926568
C49 C 0.7027(3) 0.0955(3) 0.9167(3)
H34 H 0.760825 0.065571 0.915840
C50 C 0.7681(3) 0.2586(3) 0.9322(2)
C51 C 0.8574(3) 0.2379(3) 0.9822(3)
C52 C 0.7533(3) 0.3442(3) 0.8923(3)
H36 H 0.694228 0.357253 0.856806
N8 N 0.6923(2) 0.1898(2) 0.9227(2)
H38_2 H 0.942313 0.299490 0.325853
C60_2 C 0.8654(5) 0.2854(6) 0.1746(3)
C61_2 C 0.8557(4) 0.1904(6) 0.1848(4)
H41_2 H 0.910088 0.151850 0.201134
C62_2 C 0.5817(3) 0.1738(3) 0.1295(2)
C63_2 C 0.6831(3) 0.2105(4) 0.1478(3)
C64_2 C 0.7593(4) 0.1499(5) 0.1700(4)
H42_2 H 0.749994 0.084890 0.175395
C65_2 C 0.7018(5) 0.3056(5) 0.1372(5)
H43_2 H 0.649285 0.346583 0.121263
C66_2 C 0.7920(5) 0.3427(6) 0.1487(6)
H44_2 H 0.801433 0.406619 0.138590
O10_2 O 0.9615(3) 0.3170(5) 0.1783(2)
C14_2 C 0.2467(3) 0.1350(3) 0.9634(3)
C15_2 C 0.1700(3) 0.1458(3) 0.8881(3)
C16_2 C 0.0759(3) 0.1694(3) 0.8914(3)
H10_2 H 0.061038 0.175279 0.941134
C17_2 C 0.0048(3) 0.1841(5) 0.8230(3)
C18_2 C 0.0274(3) 0.1742(5) 0.7506(3)
C19_2 C 0.1207(3) 0.1508(4) 0.7453(3)
H12_2 H 0.134930 0.144163 0.695401
C20_2 C 0.1907(3) 0.1377(3) 0.8136(3)
H13_2 H 0.253473 0.123143 0.810358
O1_2 O 0.33440(19) 0.1375(2) 0.95920(17)
H28_2 H 0.006993 0.957103 0.677846
C43_2 C 0.0020(3) 0.9627(3) 0.5246(3)
C44_2 C 0.0843(3) 0.8934(3) 0.5421(2)
C45_2 C 0.0694(3) 0.8049(3) 0.5049(3)
H30_2 H 0.009572 0.790657 0.471027
C46_2 C 0.1730(3) 0.9108(3) 0.5947(3)
H31_2 H 0.183178 0.968586 0.621960
C47_2 C 0.4459(3) 0.6200(3) 0.5833(3)
H32_2 H 0.510728 0.609246 0.584418
C48_2 C 0.4032(3) 0.7060(3) 0.5771(3)
H33_2 H 0.432326 0.764561 0.573432
C49_2 C 0.2973(3) 0.5955(3) 0.5833(3)
H34_2 H 0.239175 0.565571 0.584160
C50_2 C 0.2319(3) 0.7586(3) 0.5678(2)
C51_2 C 0.1426(3) 0.7379(3) 0.5178(3)
H35_2 H 0.131780 0.678756 0.492852
C52_2 C 0.2467(3) 0.8442(3) 0.6077(3)
H36_2 H 0.305772 0.857253 0.643194
N7 N 0.3798(2) 0.5503(2) 0.5879(2)
N8_2 N 0.3077(2) 0.6898(2) 0.5773(2)
Cd6 Cd 0.39773(2) 0.39048(2) 0.59207(2)
N9 N 0.3798(2) 0.9497(2) 0.0879(2)
H11 H 0.942313 0.200510 0.825853
C21 C 0.8654(5) 0.2146(6) 0.6746(3)
C22 C 0.8557(4) 0.3096(6) 0.6848(4)
H14 H 0.910088 0.348150 0.701134
C29 C 0.5817(3) 0.3262(3) 0.6295(2)
C30 C 0.6831(3) 0.2895(4) 0.6478(3)
C31 C 0.7593(4) 0.3501(5) 0.6700(4)
H20 H 0.749994 0.415110 0.675395
C32 C 0.7018(5) 0.1944(5) 0.6372(5)
H21 H 0.649285 0.153417 0.621263
C33 C 0.7920(5) 0.1573(6) 0.6487(6)
H22 H 0.801433 0.093381 0.638590
O3 O 0.5135(2) 0.2692(2) 0.6043(2)
O4 O 0.5660(2) 0.4126(2) 0.6399(2)
O5 O 0.9615(3) 0.1830(5) 0.6783(2)
C34 C 0.7133(3) 0.8914(3) 0.7672(3)
H23 H 0.759518 0.931528 0.798233
C35 C 0.5909(3) 0.8007(3) 0.7292(3)
H24 H 0.535113 0.766159 0.729198
C36 C 0.6353(3) 0.8038(3) 0.6676(3)
H25 H 0.616673 0.772315 0.618675
C37 C 0.7852(3) 0.8881(3) 0.6497(3)
C38 C 0.7622(3) 0.8858(3) 0.5675(3)
H26 H 0.700316 0.867975 0.539353
C39 C 0.8318(3) 0.9104(3) 0.5263(3)
H27 H 0.816389 0.907511 0.470540
C40 C 0.9235(3) 0.9390(3) 0.5667(3)
C41 C 0.9453(3) 0.9395(4) 0.6493(3)
C42 C 0.8763(3) 0.9140(4) 0.6906(3)
H29 H 0.892117 0.914692 0.746464
N5 N 0.7139(2) 0.8632(2) 0.6927(2)
N6 N 0.6399(3) 0.8556(3) 0.7911(2)
Cd2 Cd 0.60227(2) 0.89048(2) 0.90793(2)
O7 O 0.7764(2) 0.8761(2) 0.97064(19)
O11 O 0.4865(2) 0.7692(2) 0.8957(2)
O13 O 0.4340(2) 0.9126(2) 0.8601(2)
H6_2 H 0.006993 0.542897 0.177846
C10_2 C 0.0020(3) 0.5373(3) 0.0246(3)
C11_2 C 0.0843(3) 0.6066(3) 0.0421(2)
C12_2 C 0.0694(3) 0.6951(3) 0.0049(3)
C13_2 C 0.1730(3) 0.5892(3) 0.0947(3)
H9_2 H 0.183178 0.531414 0.121960
H11_2 H 0.057687 0.700510 0.674147
C21_2 C 0.1346(5) 0.7146(6) 0.8254(3)
C22_2 C 0.1443(4) 0.8096(6) 0.8152(4)
H14_2 H 0.089912 0.848150 0.798866
C23_2 C 0.4459(3) 0.8800(3) 0.0833(3)
H15_2 H 0.510728 0.890754 0.084418
C24_2 C 0.4032(3) 0.7940(3) 0.0771(3)
H16_2 H 0.432326 0.735439 0.073432
C25_2 C 0.2973(3) 0.9045(3) 0.0833(3)
H17_2 H 0.239175 0.934429 0.084160
C26_2 C 0.2319(3) 0.7414(3) 0.0678(2)
C27_2 C 0.1426(3) 0.7621(3) 0.0178(3)
C28_2 C 0.2467(3) 0.6558(3) 0.1077(3)
H19_2 H 0.305772 0.642747 0.143194
C29_2 C 0.4183(3) 0.8262(3) 0.8705(2)
C30_2 C 0.3169(3) 0.7895(4) 0.8522(3)
C31_2 C 0.2407(4) 0.8501(5) 0.8300(4)
H20_2 H 0.250006 0.915110 0.824605
C32_2 C 0.2982(5) 0.6944(5) 0.8628(5)
H21_2 H 0.350715 0.653417 0.878737
C33_2 C 0.2080(5) 0.6573(6) 0.8513(6)
H22_2 H 0.198567 0.593381 0.861410
N2_2 N 0.3077(2) 0.8102(2) 0.0773(2)
O5_2 O 0.0385(3) 0.6830(5) 0.8217(2)
H27_2 H 0.183611 0.407511 0.029460
H8_2 H 0.009572 0.709343 0.971027
H18_2 H 0.131780 0.821244 0.992852
C34_2 C 0.2867(3) 0.3914(3) 0.7328(3)
H23_2 H 0.240482 0.431528 0.701767
C35_2 C 0.4091(3) 0.3007(3) 0.7708(3)
H24_2 H 0.464887 0.266159 0.770802
C36_2 C 0.3647(3) 0.3038(3) 0.8324(3)
H25_2 H 0.383327 0.272315 0.881325
C37_2 C 0.2148(3) 0.3881(3) 0.8503(3)
C38_2 C 0.2378(3) 0.3858(3) 0.9325(3)
H26_2 H 0.299684 0.367975 0.960647
C39_2 C 0.1682(3) 0.4104(3) 0.9737(3)
C40_2 C 0.0765(3) 0.4390(3) 0.9333(3)
C41_2 C 0.0547(3) 0.4395(4) 0.8507(3)
C42_2 C 0.1237(3) 0.4140(4) 0.8094(3)
H29_2 H 0.107883 0.414692 0.753536
N5_2 N 0.2861(2) 0.3632(2) 0.8073(2)
N6_2 N 0.3601(3) 0.3556(3) 0.7089(2)
C53 C 0.2467(3) 0.3650(3) 0.4634(3)
C54 C 0.1700(3) 0.3542(3) 0.3881(3)
C55 C 0.0759(3) 0.3306(3) 0.3914(3)
H37 H 0.061038 0.324721 0.441134
C56 C 0.0048(3) 0.3159(5) 0.3230(3)
C57 C 0.0274(3) 0.3258(5) 0.2506(3)
C58 C 0.1207(3) 0.3492(4) 0.2453(3)
H39 H 0.134930 0.355837 0.195401
C59 C 0.1907(3) 0.3623(3) 0.3136(3)
H40 H 0.253473 0.376857 0.310358
O6 O 0.33440(19) 0.3625(2) 0.45920(17)
O7_2 O 0.2236(2) 0.3761(2) 0.52936(19)
C53_2 C 0.7533(3) 0.8650(3) 0.0366(3)
C54_2 C 0.8300(3) 0.8542(3) 0.1119(3)
C55_2 C 0.9241(3) 0.8306(3) 0.1086(3)
H37_2 H 0.938962 0.824721 0.058866
C56_2 C 0.9952(3) 0.8159(5) 0.1770(3)
C57_2 C 0.9726(3) 0.8258(5) 0.2494(3)
C58_2 C 0.8793(3) 0.8492(4) 0.2547(3)
H39_2 H 0.865070 0.855837 0.304599
C59_2 C 0.8093(3) 0.8623(3) 0.1864(3)
H40_2 H 0.746527 0.876857 0.189642
O6_2 O 0.66560(19) 0.8625(2) 0.04080(17)
loop_
_geom_bond_atom_site_label_1
_geom_bond_atom_site_label_2
_geom_bond_site_symmetry_1
_geom_bond_site_symmetry_2
C1 H1 1_555 1_555
C2 H2 1_555 1_555
C3 C2 1_555 1_555
H3 C3 1_555 1_555
C4 C5 1_555 1_555
C5 H4 1_555 1_555
C6 C5 1_555 1_555
H5 C6 1_555 1_555
C7 C6 1_555 1_555
C8 C7 1_555 1_555
C9 C4 1_555 1_555
H7 C9 1_555 1_555
Cd1 N4 1_555 1_555
N3 C1 1_555 1_555
N4 C1 1_555 1_555
O12 Cd1 1_555 1_555
O14 Cd1 1_555 1_555
C2 N4 1_555 1_555
C3 N3 1_555 1_555
C4 N3 1_555 1_555
C8 C9 1_555 1_555
Cd1 O2 1_555 1_555
C60 C61 1_555 1_555
C61 H41 1_555 1_555
C62 C63 1_555 1_555
C63 C64 1_555 1_555
C64 C61 1_555 1_555
H42 C64 1_555 1_555
C65 C63 1_555 1_555
H43 C65 1_555 1_555
C66 C60 1_555 1_555
H44 C66 1_555 1_555
O8 C62 1_555 1_555
O9 C62 1_555 1_555
Cd4 O8 1_555 1_555
C60 O10 1_555 1_555
C65 C66 1_555 1_555
O9 Cd4 1_555 1_555
C11 C10 1_555 1_555
C12 C11 1_555 1_555
H8 C12 1_555 1_555
C13 C11 1_555 1_555
H9 C13 1_555 1_555
C23 H15 1_555 1_555
C24 C23 1_555 1_555
H16 C24 1_555 1_555
C25 H17 1_555 1_555
C26 C27 1_555 1_555
C27 C12 1_555 1_555
H18 C27 1_555 1_555
C28 C13 1_555 1_555
H19 C28 1_555 1_555
N1 C23 1_555 1_555
N2 C24 1_555 1_555
Cd4 N1 1_555 1_555
C25 N1 1_555 1_555
C25 N2 1_555 1_555
C26 C28 1_555 1_555
C26 N2 1_555 1_555
C1_2 H1_2 1_555 1_555
C2_2 H2_2 1_555 1_555
C3_2 C2_2 1_555 1_555
H3_2 C3_2 1_555 1_555
C4_2 C5_2 1_555 1_555
C5_2 H4_2 1_555 1_555
C6_2 C5_2 1_555 1_555
C7_2 C6_2 1_555 1_555
C8_2 C7_2 1_555 1_555
C9_2 C4_2 1_555 1_555
H7_2 C9_2 1_555 1_555
C14 C15 1_555 1_555
C15 C16 1_555 1_555
C16 H10 1_555 1_555
C17 C16 1_555 1_555
C18 C17 1_555 1_555
C19 C18 1_555 1_555
H12 C19 1_555 1_555
C20 C15 1_555 1_555
H13 C20 1_555 1_555
Cd4 N4_2 1_555 1_555
N3_2 C1_2 1_555 1_555
N4_2 C1_2 1_555 1_555
O1 C14 1_555 1_555
O2_2 C14 1_555 1_555
C2_2 N4_2 1_555 1_555
C3_2 N3_2 1_555 1_555
C4_2 N3_2 1_555 1_555
C8_2 C9_2 1_555 1_555
C19 C20 1_555 1_555
Cd4 O1 1_555 1_555
Cd4 O2_2 1_555 1_555
C44 C43 1_555 1_555
C45 C44 1_555 1_555
C46 C44 1_555 1_555
H31 C46 1_555 1_555
C47 H32 1_555 1_555
C48 C47 1_555 1_555
H33 C48 1_555 1_555
C49 H34 1_555 1_555
C50 C51 1_555 1_555
C51 C45 1_555 1_555
C52 C46 1_555 1_555
H36 C52 1_555 1_555
N10 C47 1_555 1_555
N8 C48 1_555 1_555
C60_2 C61_2 1_555 1_555
C61_2 H41_2 1_555 1_555
C62_2 C63_2 1_555 1_555
C63_2 C64_2 1_555 1_555
C64_2 C61_2 1_555 1_555
H42_2 C64_2 1_555 1_555
C65_2 C63_2 1_555 1_555
H43_2 C65_2 1_555 1_555
C66_2 C60_2 1_555 1_555
H44_2 C66_2 1_555 1_555
O12 C62_2 1_555 1_555
O14 C62_2 1_555 1_555
C49 N10 1_555 1_555
C49 N8 1_555 1_555
C50 C52 1_555 1_555
C50 N8 1_555 1_555
C60_2 O10_2 1_555 1_555
C65_2 C66_2 1_555 1_555
C14_2 C15_2 1_555 1_555
C15_2 C16_2 1_555 1_555
C16_2 H10_2 1_555 1_555
C17_2 C16_2 1_555 1_555
C18_2 C17_2 1_555 1_555
C19_2 C18_2 1_555 1_555
H12_2 C19_2 1_555 1_555
C20_2 C15_2 1_555 1_555
H13_2 C20_2 1_555 1_555
O1_2 C14_2 1_555 1_555
C19_2 C20_2 1_555 1_555
C44_2 C43_2 1_555 1_555
C45_2 C44_2 1_555 1_555
H30_2 C45_2 1_555 1_555
C46_2 C44_2 1_555 1_555
H31_2 C46_2 1_555 1_555
C47_2 H32_2 1_555 1_555
C48_2 C47_2 1_555 1_555
H33_2 C48_2 1_555 1_555
C49_2 H34_2 1_555 1_555
C50_2 C51_2 1_555 1_555
C51_2 C45_2 1_555 1_555
H35_2 C51_2 1_555 1_555
C52_2 C46_2 1_555 1_555
H36_2 C52_2 1_555 1_555
N7 C47_2 1_555 1_555
N8_2 C48_2 1_555 1_555
Cd6 N7 1_555 1_555
C49_2 N7 1_555 1_555
C49_2 N8_2 1_555 1_555
C50_2 C52_2 1_555 1_555
C50_2 N8_2 1_555 1_555
C21 C22 1_555 1_555
C22 H14 1_555 1_555
C29 C30 1_555 1_555
C30 C31 1_555 1_555
C31 C22 1_555 1_555
H20 C31 1_555 1_555
C32 C30 1_555 1_555
H21 C32 1_555 1_555
C33 C21 1_555 1_555
H22 C33 1_555 1_555
O3 C29 1_555 1_555
O4 C29 1_555 1_555
Cd6 O3 1_555 1_555
C21 O5 1_555 1_555
C32 C33 1_555 1_555
O4 Cd6 1_555 1_555
C34 H23 1_555 1_555
C35 H24 1_555 1_555
C36 C35 1_555 1_555
H25 C36 1_555 1_555
C37 C38 1_555 1_555
C38 H26 1_555 1_555
C39 C38 1_555 1_555
H27 C39 1_555 1_555
C40 C39 1_555 1_555
C41 C40 1_555 1_555
C42 C37 1_555 1_555
H29 C42 1_555 1_555
N5 C34 1_555 1_555
N6 C34 1_555 1_555
Cd2 N6 1_555 1_555
O11 Cd2 1_555 1_555
O13 Cd2 1_555 1_555
C35 N6 1_555 1_555
C36 N5 1_555 1_555
C37 N5 1_555 1_555
C41 C42 1_555 1_555
Cd2 O7 1_555 1_555
C11_2 C10_2 1_555 1_555
C12_2 C11_2 1_555 1_555
C13_2 C11_2 1_555 1_555
H9_2 C13_2 1_555 1_555
C21_2 C22_2 1_555 1_555
C22_2 H14_2 1_555 1_555
C23_2 H15_2 1_555 1_555
C24_2 C23_2 1_555 1_555
H16_2 C24_2 1_555 1_555
C25_2 H17_2 1_555 1_555
C26_2 C27_2 1_555 1_555
C27_2 C12_2 1_555 1_555
C28_2 C13_2 1_555 1_555
H19_2 C28_2 1_555 1_555
C29_2 C30_2 1_555 1_555
C30_2 C31_2 1_555 1_555
C31_2 C22_2 1_555 1_555
H20_2 C31_2 1_555 1_555
C32_2 C30_2 1_555 1_555
H21_2 C32_2 1_555 1_555
C33_2 C21_2 1_555 1_555
H22_2 C33_2 1_555 1_555
N9 C23_2 1_555 1_555
N2_2 C24_2 1_555 1_555
O11 C29_2 1_555 1_555
O13 C29_2 1_555 1_555
C21_2 O5_2 1_555 1_555
C25_2 N9 1_555 1_555
C25_2 N2_2 1_555 1_555
C26_2 C28_2 1_555 1_555
C26_2 N2_2 1_555 1_555
C32_2 C33_2 1_555 1_555
C34_2 H23_2 1_555 1_555
C35_2 H24_2 1_555 1_555
C36_2 C35_2 1_555 1_555
H25_2 C36_2 1_555 1_555
C37_2 C38_2 1_555 1_555
C38_2 H26_2 1_555 1_555
C39_2 C38_2 1_555 1_555
C40_2 C39_2 1_555 1_555
C41_2 C40_2 1_555 1_555
C42_2 C37_2 1_555 1_555
H29_2 C42_2 1_555 1_555
N5_2 C34_2 1_555 1_555
N6_2 C34_2 1_555 1_555
C53 C54 1_555 1_555
C54 C55 1_555 1_555
C55 H37 1_555 1_555
C56 C55 1_555 1_555
C57 C56 1_555 1_555
C58 C57 1_555 1_555
H39 C58 1_555 1_555
C59 C54 1_555 1_555
H40 C59 1_555 1_555
Cd6 N6_2 1_555 1_555
O6 C53 1_555 1_555
O7_2 C53 1_555 1_555
C35_2 N6_2 1_555 1_555
C36_2 N5_2 1_555 1_555
C37_2 N5_2 1_555 1_555
C41_2 C42_2 1_555 1_555
C58 C59 1_555 1_555
Cd6 O6 1_555 1_555
Cd6 O7_2 1_555 1_555
C53_2 C54_2 1_555 1_555
C54_2 C55_2 1_555 1_555
C55_2 H37_2 1_555 1_555
C56_2 C55_2 1_555 1_555
C57_2 C56_2 1_555 1_555
C58_2 C57_2 1_555 1_555
H39_2 C58_2 1_555 1_555
C59_2 C54_2 1_555 1_555
H40_2 C59_2 1_555 1_555
O6_2 C53_2 1_555 1_555
C58_2 C59_2 1_555 1_555

#END
