
###############################################################################
#
# This file contains modified crystal structure data generated from the
# MOF subset of the Cambridge Structural Database (CSD) v543 
# hosted by the Cambridge Crystallographic Data Centre (CCDC).
#
# This work is licensed under the Creative Commons
# Attribution-NonCommercial-ShareAlike 4.0 International License.
# To view a copy of this license, visit
# http://creativecommons.org/licenses/by-nc-sa/4.0/
# or send a letter to
# Creative Commons, PO Box 1866, Mountain View, CA 94042, USA.
#
# CIF created using the CSD Python API on 29 September 2022
# The structure has been converted into the P1 space group
# The structure has a 3D framework
# The original CSD entry VOZDUM is in the triclinic crystal system
# The framework has been calculated to contain at least 10.0% void space
# The void calculation uses a probe of radius 1.32A, grid spacing 0.4
#
###############################################################################

data_VOZDUM
_chemical_formula_moiety         '(C52 H56 Co8 Cr2 N8 O8)n'
_symmetry_cell_setting           triclinic
_symmetry_space_group_name_H-M   'P 1'
_symmetry_Int_Tables_number      1
_space_group_name_Hall           'P 1'
loop_
_symmetry_equiv_pos_site_id
_symmetry_equiv_pos_as_xyz
1 x,y,z
_cell_length_a                   12.376(4)
_cell_length_b                   12.928(4)
_cell_length_c                   13.450(4)
_cell_angle_alpha                62.463(5)
_cell_angle_beta                 65.132(5)
_cell_angle_gamma                78.494(5)
_cell_volume                     1731.21
loop_
_atom_site_label
_atom_site_type_symbol
_atom_site_fract_x
_atom_site_fract_y
_atom_site_fract_z
H23 H 0.0429 0.1458 0.4143
C25 C 0.0651(11) 0.1339(11) 0.1126(12)
H27 H 0.1241 0.1656 0.0356
C26 C 0.0625(11) 0.1618(12) 0.2008(12)
H28 H 0.1215 0.2092 0.1833
Co7 Co 0.0000 0.0000 0.0000
Co7_2 Co -0.0000 -0.0000 1.0000
H13 H 0.0773 0.2427 0.7704
H14 H 0.0110 0.4141 0.6622
Co7_3 Co 0.0000 1.0000 0.0000
Co7_4 Co -0.0000 1.0000 1.0000
Co1 Co 0.5000 -0.0000 0.0000
N5 N 0.4429(9) 0.1411(9) 0.0569(10)
N6 N 0.0693(9) 0.8300(9) 0.0938(10)
C28 C 0.3722(12) 0.3325(12) 0.0249(13)
C29 C 0.3875(13) 0.3243(13) 0.1271(14)
C30 C 0.4276(13) 0.2191(13) 0.1948(14)
H31 H 0.4377 0.2079 0.2639
C31 C 0.4527(12) 0.1303(13) 0.1578(13)
H32 H 0.4778 0.0587 0.2053
C32 C 0.3599(13) 0.4292(13) 0.1594(15)
H33 H 0.3553 0.4998 0.0903
H34 H 0.4237 0.4382 0.1787
C33 C 0.2447(14) 0.4119(13) 0.2653(14)
H35 H 0.1811 0.4067 0.2437
H36 H 0.2482 0.3383 0.3321
C34 C 0.2149(14) 0.5087(11) 0.3073(13)
H37 H 0.1569 0.4803 0.3899
H38 H 0.2863 0.5294 0.3069
C35 C 0.1633(13) 0.6211(12) 0.2244(12)
C36 C 0.2360(12) 0.7026(12) 0.1194(13)
H39 H 0.3177 0.6892 0.0908
C37 C 0.1897(11) 0.8025(12) 0.0569(11)
C38 C 0.0042(11) 0.7432(12) 0.1999(13)
C39 C 0.0413(12) 0.6405(11) 0.2672(12)
H54 H 0.1646 0.0256 0.7433
Co1_2 Co 0.5000 -0.0000 1.0000
Cr1 Cr 0.30315(17) 0.11113(19) 0.83031(19)
O1 O 0.3748(6) 0.0514(6) 0.9243(6)
O2 O 0.3684(8) 0.0754(9) 0.7164(7)
O3 O 0.3005(8) 0.2528(7) 0.7800(9)
O4 O 0.1643(6) 0.0635(6) 0.9017(6)
N3 N 0.6275(9) 0.1130(9) 0.8286(9)
N4 N 0.9845(10) 0.0621(9) 0.1349(9)
C14 C 0.7470(11) 0.0869(11) 0.8025(11)
H15 H 0.7679 0.0228 0.8618
C15 C 0.8383(11) 0.1480(11) 0.6960(11)
H16 H 0.9173 0.1247 0.6833
C16 C 0.8089(11) 0.2427(11) 0.6108(11)
C17 C 0.6910(11) 0.2720(11) 0.6295(12)
H17 H 0.6692 0.3347 0.5701
C18 C 0.6065(11) 0.2055(11) 0.7389(12)
H18 H 0.5273 0.2276 0.7512
C19 C 0.9055(11) 0.3158(11) 0.4877(11)
H19 H 0.9820 0.3018 0.4956
H20 H 0.8865 0.3981 0.4652
C20 C 0.9135(11) 0.2830(11) 0.3850(11)
H21 H 0.9657 0.3371 0.3069
H22 H 0.8352 0.2887 0.3828
C21 C 0.9646(13) 0.1514(12) 0.4119(13)
H24 H 0.9123 0.0974 0.4901
C22 C 0.9724(12) 0.1199(12) 0.3165(13)
C23 C 0.8829(12) 0.0508(12) 0.3375(12)
H25 H 0.8187 0.0248 0.4113
C24 C 0.8926(12) 0.0215(12) 0.2432(13)
C27 C 0.3991(11) 0.2422(11) 0.9899(12)
H29 H 0.3876 0.2504 0.9225
H30 H 0.3426 0.4019 0.9792
H40 H 0.2415 0.8563 0.9849
Co7_5 Co 1.0000 0.0000 0.0000
Co7_6 Co 1.0000 -0.0000 1.0000
Co1_3 Co 0.5000 1.0000 0.0000
C1 C 0.6009(11) 0.7578(11) 0.0101(12)
H1 H 0.6124 0.7496 0.0775
H2 H 0.6574 0.5981 0.0208
H12 H 0.7585 0.1437 0.0151
N7 N 0.3725(9) 0.8870(9) 0.1714(9)
N8 N 0.0155(10) 0.9379(9) 0.8651(9)
C40 C 0.2530(11) 0.9131(11) 0.1975(11)
H43 H 0.2321 0.9772 0.1382
C41 C 0.1617(11) 0.8520(11) 0.3040(11)
H44 H 0.0827 0.8753 0.3167
C42 C 0.1911(11) 0.7573(11) 0.3892(11)
C43 C 0.3090(11) 0.7280(11) 0.3705(12)
H45 H 0.3308 0.6653 0.4299
C44 C 0.3935(11) 0.7945(11) 0.2611(12)
H46 H 0.4727 0.7724 0.2488
C45 C 0.0945(11) 0.6842(11) 0.5123(11)
H47 H 0.0180 0.6982 0.5044
H48 H 0.1135 0.6019 0.5348
C46 C 0.0865(11) 0.7170(11) 0.6150(11)
H49 H 0.0343 0.6629 0.6931
H50 H 0.1648 0.7113 0.6172
C47 C 0.0354(13) 0.8486(12) 0.5881(13)
H52 H 0.0877 0.9026 0.5099
C48 C 0.0276(12) 0.8801(12) 0.6835(13)
C49 C 0.1171(12) 0.9492(12) 0.6625(12)
H53 H 0.1813 0.9752 0.5887
C50 C 0.1074(12) 0.9785(12) 0.7568(13)
O9 O 0.6252(6) 0.9486(6) 0.0757(6)
Co1_4 Co 0.5000 1.0000 1.0000
N1 N 0.5571(9) 0.8589(9) 0.9431(10)
N2 N 0.9307(9) 0.1700(9) 0.9062(10)
C2 C 0.6278(12) 0.6675(12) 0.9751(13)
C3 C 0.6125(13) 0.6757(13) 0.8729(14)
C4 C 0.5724(13) 0.7809(13) 0.8052(14)
H3 H 0.5623 0.7921 0.7361
C5 C 0.5473(12) 0.8697(13) 0.8422(13)
H4 H 0.5222 0.9413 0.7947
C6 C 0.6401(13) 0.5708(13) 0.8406(15)
H5 H 0.6447 0.5002 0.9097
H6 H 0.5763 0.5618 0.8213
C7 C 0.7553(14) 0.5881(13) 0.7347(14)
H7 H 0.8189 0.5933 0.7563
H8 H 0.7518 0.6617 0.6679
C8 C 0.7851(14) 0.4913(11) 0.6927(13)
H9 H 0.8431 0.5197 0.6101
H10 H 0.7137 0.4706 0.6931
C9 C 0.8367(13) 0.3789(12) 0.7756(12)
C10 C 0.7640(12) 0.2974(12) 0.8806(13)
H11 H 0.6823 0.3108 0.9092
C11 C 0.8103(11) 0.1975(12) 0.9431(11)
C12 C 0.9958(11) 0.2568(12) 0.8001(13)
C13 C 0.9587(12) 0.3595(11) 0.7328(12)
H26 H 0.8354 0.9744 0.2567
Co7_7 Co 1.0000 1.0000 0.0000
Co7_8 Co 1.0000 1.0000 1.0000
H41 H 0.9227 0.7573 0.2296
H42 H 0.9890 0.5859 0.3378
Cr2 Cr 0.69685(17) 0.88887(19) 0.16969(19)
O6 O 0.6316(8) 0.9246(9) 0.2836(7)
O7 O 0.6995(8) 0.7472(7) 0.2200(9)
O8 O 0.8357(6) 0.9365(6) 0.0983(6)
H51 H 0.9571 0.8542 0.5857
C51 C 0.9349(11) 0.8661(11) 0.8874(12)
H55 H 0.8759 0.8344 0.9644
C52 C 0.9375(11) 0.8382(12) 0.7992(12)
H56 H 0.8785 0.7908 0.8167
loop_
_geom_bond_atom_site_label_1
_geom_bond_atom_site_label_2
_geom_bond_site_symmetry_1
_geom_bond_site_symmetry_2
H27 C25 1_555 1_555
H28 C26 1_555 1_555
C25 C26 1_555 1_555
N5 Co1 1_555 1_555
N6 C37 1_555 1_555
C29 C28 1_555 1_555
C30 C29 1_555 1_555
H31 C30 1_555 1_555
C31 N5 1_555 1_555
H32 C31 1_555 1_555
C32 C29 1_555 1_555
H33 C32 1_555 1_555
H34 C32 1_555 1_555
C33 C32 1_555 1_555
H35 C33 1_555 1_555
H36 C33 1_555 1_555
C34 C33 1_555 1_555
H37 C34 1_555 1_555
H38 C34 1_555 1_555
C35 C34 1_555 1_555
C36 C35 1_555 1_555
H39 C36 1_555 1_555
C37 C36 1_555 1_555
C38 N6 1_555 1_555
C39 C35 1_555 1_555
Co7_3 N6 1_555 1_555
C30 C31 1_555 1_555
C38 C39 1_555 1_555
Co1_2 O1 1_555 1_555
Co7_2 O4 1_555 1_555
Cr1 O1 1_555 1_555
O2 Cr1 1_555 1_555
O3 Cr1 1_555 1_555
O4 Cr1 1_555 1_555
N3 Co1_2 1_555 1_555
N4 C24 1_555 1_555
C14 N3 1_555 1_555
H15 C14 1_555 1_555
C15 C14 1_555 1_555
H16 C15 1_555 1_555
C16 C15 1_555 1_555
C17 C16 1_555 1_555
H17 C17 1_555 1_555
C18 N3 1_555 1_555
H18 C18 1_555 1_555
C19 C16 1_555 1_555
H19 C19 1_555 1_555
H20 C19 1_555 1_555
C20 C19 1_555 1_555
H21 C20 1_555 1_555
H22 C20 1_555 1_555
C21 C20 1_555 1_555
H24 C21 1_555 1_555
C22 C21 1_555 1_555
C23 C22 1_555 1_555
H25 C23 1_555 1_555
C24 C23 1_555 1_555
H29 C27 1_555 1_555
Co7_5 N4 1_555 1_555
C17 C18 1_555 1_555
H1 C1 1_555 1_555
N7 Co1_3 1_555 1_555
N8 C50 1_555 1_555
C40 N7 1_555 1_555
H43 C40 1_555 1_555
C41 C40 1_555 1_555
H44 C41 1_555 1_555
C42 C41 1_555 1_555
C43 C42 1_555 1_555
H45 C43 1_555 1_555
C44 N7 1_555 1_555
H46 C44 1_555 1_555
C45 C42 1_555 1_555
H47 C45 1_555 1_555
H48 C45 1_555 1_555
C46 C45 1_555 1_555
H49 C46 1_555 1_555
H50 C46 1_555 1_555
C47 C46 1_555 1_555
H52 C47 1_555 1_555
C48 C47 1_555 1_555
C49 C48 1_555 1_555
H53 C49 1_555 1_555
C50 C49 1_555 1_555
Co7_4 N8 1_555 1_555
O9 Co1_3 1_555 1_555
C43 C44 1_555 1_555
N1 Co1_4 1_555 1_555
N2 C11 1_555 1_555
C3 C2 1_555 1_555
C4 C3 1_555 1_555
H3 C4 1_555 1_555
C5 N1 1_555 1_555
H4 C5 1_555 1_555
C6 C3 1_555 1_555
H5 C6 1_555 1_555
H6 C6 1_555 1_555
C7 C6 1_555 1_555
H7 C7 1_555 1_555
H8 C7 1_555 1_555
C8 C7 1_555 1_555
H9 C8 1_555 1_555
H10 C8 1_555 1_555
C9 C8 1_555 1_555
C10 C9 1_555 1_555
H11 C10 1_555 1_555
C11 C10 1_555 1_555
C12 N2 1_555 1_555
C13 C9 1_555 1_555
Co7_6 N2 1_555 1_555
C4 C5 1_555 1_555
C12 C13 1_555 1_555
Cr2 O9 1_555 1_555
O6 Cr2 1_555 1_555
O7 Cr2 1_555 1_555
O8 Co7_7 1_555 1_555
H55 C51 1_555 1_555
H56 C52 1_555 1_555
Cr2 O8 1_555 1_555
C51 C52 1_555 1_555

#END
