
###############################################################################
#
# This file contains modified crystal structure data generated from the
# MOF subset of the Cambridge Structural Database (CSD) v543 
# hosted by the Cambridge Crystallographic Data Centre (CCDC).
#
# This work is licensed under the Creative Commons
# Attribution-NonCommercial-ShareAlike 4.0 International License.
# To view a copy of this license, visit
# http://creativecommons.org/licenses/by-nc-sa/4.0/
# or send a letter to
# Creative Commons, PO Box 1866, Mountain View, CA 94042, USA.
#
# CIF created using the CSD Python API on 29 September 2022
# The structure has been converted into the P1 space group
# The structure has a 3D framework
# The original CSD entry VUCDEE is in the rhombohedral crystal system
# The framework has been calculated to contain at least 10.0% void space
# The void calculation uses a probe of radius 1.32A, grid spacing 0.4
#
###############################################################################

data_VUCDEE
_chemical_formula_moiety         '(C54 H90 Co6 N18 O68 Pr20 6+)n'
_symmetry_cell_setting           triclinic
_symmetry_space_group_name_H-M   'P 1'
_symmetry_Int_Tables_number      1
_space_group_name_Hall           'P 1'
loop_
_symmetry_equiv_pos_site_id
_symmetry_equiv_pos_as_xyz
1 x,y,z
_cell_length_a                   10.18210(10)
_cell_length_b                   10.18210(10)
_cell_length_c                   30.9216(6)
_cell_angle_alpha                90
_cell_angle_beta                 90
_cell_angle_gamma                120
_cell_volume                     2776.31
loop_
_atom_site_label
_atom_site_type_symbol
_atom_site_fract_x
_atom_site_fract_y
_atom_site_fract_z
Pr1 Pr 0.0000 0.0000 0.0000
Pr2 Pr 0.0000 0.0000 0.132003(2)
O1 O 0.27781(10) 0.18659(10) 0.02133(3)
O2 O 0.16268(7) 0.00656(8) 0.06990(2)
O3 O 0.25444(8) 0.24843(9) 0.13144(3)
O4 O 0.49701(9) 0.35411(9) 0.14869(2)
C1 C 0.27828(9) 0.12737(10) 0.05658(3)
C2 C 0.41594(10) 0.20272(11) 0.08518(3)
H1 H 0.5003 0.2813 0.0690
H2 H 0.4436 0.1286 0.0942
C3 C 0.38606(9) 0.27214(9) 0.12480(2)
Pr9 Pr 0.6667 0.3333 0.201330(2)
O29 O 0.02078(9) 0.19043(13) 0.18464(2)
Pr1_2 Pr 0.0000 0.0000 1.0000
Pr3 Pr 0.0000 0.0000 0.867997(2)
O21 O 0.09122(14) 0.27781(10) 0.97867(3)
O22 O 0.15612(11) 0.16268(7) 0.93010(2)
O23 O 0.00601(12) 0.25444(8) 0.86856(3)
O24 O 0.14290(13) 0.49701(9) 0.85131(2)
C16 C 0.15091(13) 0.27828(9) 0.94342(3)
C17 C 0.21322(15) 0.41594(10) 0.91482(3)
H11 H 0.2190 0.5003 0.9310
H12 H 0.3150 0.4436 0.9058
C18 C 0.11392(13) 0.38606(9) 0.87520(2)
Pr6 Pr 0.3333 0.6667 0.798670(2)
O27 O 0.19043(13) 0.16966(9) 0.81536(2)
Pr1_3 Pr 0.0000 1.0000 0.0000
Pr2_2 Pr 0.0000 1.0000 0.132003(2)
O28 O 0.16966(9) 0.97922(9) 0.18464(2)
Pr1_4 Pr 0.0000 1.0000 1.0000
Pr3_2 Pr 0.0000 1.0000 0.867997(2)
O17 O 0.18659(10) 0.90878(14) 0.97867(3)
O18 O 0.00656(8) 0.84388(11) 0.93010(2)
O19 O 0.24843(9) 0.99399(12) 0.86856(3)
O20 O 0.35411(9) 0.85710(13) 0.85131(2)
C13 C 0.12737(10) 0.84909(13) 0.94342(3)
C14 C 0.20272(11) 0.78678(15) 0.91482(3)
H9 H 0.2813 0.7810 0.9310
H10 H 0.1286 0.6850 0.9058
C15 C 0.27214(9) 0.88608(13) 0.87520(2)
Pr1_5 Pr 1.0000 0.0000 0.0000
Pr2_3 Pr 1.0000 0.0000 0.132003(2)
O5 O 0.81341(10) 0.09122(14) 0.02133(3)
O6 O 0.99344(8) 0.15612(11) 0.06990(2)
O7 O 0.75157(9) 0.00601(12) 0.13144(3)
O8 O 0.64589(9) 0.14290(13) 0.14869(2)
C4 C 0.87263(10) 0.15091(13) 0.05658(3)
C5 C 0.79728(11) 0.21322(15) 0.08518(3)
H3 H 0.7187 0.2190 0.0690
H4 H 0.8714 0.3150 0.0942
C6 C 0.72786(9) 0.11392(13) 0.12480(2)
Pr1_6 Pr 1.0000 0.0000 1.0000
Pr3_3 Pr 1.0000 0.0000 0.867997(2)
O25 O 0.83034(9) 0.02078(9) 0.81536(2)
Pr1_7 Pr 1.0000 1.0000 0.0000
Pr2_4 Pr 1.0000 1.0000 0.132003(2)
O9 O 0.90878(14) 0.72219(10) 0.02133(3)
O10 O 0.84388(11) 0.83732(7) 0.06990(2)
O11 O 0.99399(12) 0.74556(8) 0.13144(3)
O12 O 0.85710(13) 0.50299(9) 0.14869(2)
C7 C 0.84909(13) 0.72172(9) 0.05658(3)
C8 C 0.78678(15) 0.58406(10) 0.08518(3)
H5 H 0.7810 0.4997 0.0690
H6 H 0.6850 0.5564 0.0942
C9 C 0.88608(13) 0.61394(9) 0.12480(2)
O30 O 0.80957(13) 0.83034(9) 0.18464(2)
Pr1_8 Pr 1.0000 1.0000 1.0000
Pr3_4 Pr 1.0000 1.0000 0.867997(2)
O13 O 0.72219(10) 0.81341(10) 0.97867(3)
O14 O 0.83732(7) 0.99344(8) 0.93010(2)
O15 O 0.74556(8) 0.75157(9) 0.86856(3)
O16 O 0.50299(9) 0.64589(9) 0.85131(2)
C10 C 0.72172(9) 0.87263(10) 0.94342(3)
C11 C 0.58406(10) 0.79728(11) 0.91482(3)
H7 H 0.4997 0.7187 0.9310
H8 H 0.5564 0.8714 0.9058
C12 C 0.61394(9) 0.72786(9) 0.87520(2)
O26 O 0.97922(9) 0.80957(13) 0.81536(2)
O4_2 O 0.16368(9) 0.68744(9) 0.48202(2)
C2_2 C 0.08261(10) 0.53605(11) 0.41851(3)
H1_2 H 0.1670 0.6146 0.4023
H2_2 H 0.1103 0.4619 0.4275
C3_2 C 0.05273(9) 0.60547(9) 0.45813(2)
Pr9_2 Pr 0.3333 0.6667 0.534664(2)
Pr1_9 Pr 0.6667 0.3333 0.3333
Pr2_5 Pr 0.6667 0.3333 0.465336(2)
O1_2 O 0.94448(10) 0.51992(10) 0.35466(3)
O2_2 O 0.82935(7) 0.33989(8) 0.40323(2)
O3_2 O 0.92111(8) 0.58176(9) 0.46477(3)
C1_2 C 0.94495(9) 0.46070(10) 0.38991(3)
O5_2 O 0.48008(10) 0.42455(14) 0.35466(3)
O6_2 O 0.66011(8) 0.48945(11) 0.40323(2)
O7_2 O 0.41824(9) 0.33934(12) 0.46477(3)
O8_2 O 0.31256(9) 0.47623(13) 0.48202(2)
C4_2 C 0.53930(10) 0.48424(13) 0.38991(3)
C5_2 C 0.46395(11) 0.54655(15) 0.41851(3)
H3_2 H 0.3854 0.5523 0.4023
H4_2 H 0.5381 0.6483 0.4275
C6_2 C 0.39453(9) 0.44725(13) 0.45813(2)
O9_2 O 0.57545(14) 0.05552(10) 0.35466(3)
O10_2 O 0.51055(11) 0.17065(7) 0.40323(2)
O11_2 O 0.66066(12) 0.07889(8) 0.46477(3)
C7_2 C 0.51576(13) 0.05505(9) 0.38991(3)
O13_2 O 0.38886(10) 0.14674(10) 0.31200(3)
O14_2 O 0.50399(7) 0.32677(8) 0.26343(2)
O15_2 O 0.41223(8) 0.08490(9) 0.20189(3)
C10_2 C 0.38839(9) 0.20596(10) 0.27675(3)
C11_2 C 0.25073(10) 0.13061(11) 0.24815(3)
H7_2 H 0.1664 0.0520 0.2643
H8_2 H 0.2231 0.2047 0.2391
C12_2 C 0.28061(9) 0.06119(9) 0.20853(2)
O17_2 O 0.85326(10) 0.24211(14) 0.31200(3)
O18_2 O 0.67323(8) 0.17721(11) 0.26343(2)
O19_2 O 0.91510(9) 0.32732(12) 0.20189(3)
C13_2 C 0.79404(10) 0.18242(13) 0.27675(3)
C14_2 C 0.86939(11) 0.12011(15) 0.24815(3)
H9_2 H 0.9480 0.1143 0.2643
H10_2 H 0.7953 0.0183 0.2391
C15_2 C 0.93881(9) 0.21941(13) 0.20853(2)
O21_2 O 0.75789(14) 0.61114(10) 0.31200(3)
O22_2 O 0.82279(11) 0.49601(7) 0.26343(2)
O23_2 O 0.67268(12) 0.58777(8) 0.20189(3)
C16_2 C 0.81758(13) 0.61161(9) 0.27675(3)
C17_2 C 0.87989(15) 0.74927(10) 0.24815(3)
H11_2 H 0.8857 0.8336 0.2643
H12_2 H 0.9817 0.7769 0.2391
C18_2 C 0.78059(13) 0.71939(9) 0.20853(2)
O28_2 O 0.83632(9) 0.31256(9) 0.51798(2)
O29_2 O 0.68744(9) 0.52377(13) 0.51798(2)
O30_2 O 0.47623(13) 0.16368(9) 0.51798(2)
O12_2 O 0.52377(13) 0.83632(9) 0.48202(2)
C8_2 C 0.45345(15) 0.91739(10) 0.41851(3)
H5_2 H 0.4477 0.8330 0.4023
H6_2 H 0.3517 0.8897 0.4275
C9_2 C 0.55275(13) 0.94727(9) 0.45813(2)
C17_3 C 0.54655(15) 0.08261(10) 0.58149(3)
H11_3 H 0.5523 0.1670 0.5977
H12_3 H 0.6483 0.1103 0.5725
C18_3 C 0.44725(13) 0.05273(9) 0.54187(2)
Pr1_10 Pr 0.3333 0.6667 0.6667
O1_3 O 0.61114(10) 0.85326(10) 0.68800(3)
O2_3 O 0.49601(7) 0.67323(8) 0.73657(2)
O3_3 O 0.58777(8) 0.91510(9) 0.79811(3)
C1_3 C 0.61161(9) 0.79404(10) 0.72325(3)
C2_3 C 0.74927(10) 0.86939(11) 0.75185(3)
H1_3 H 0.8336 0.9480 0.7357
H2_3 H 0.7769 0.7953 0.7609
C3_3 C 0.71939(9) 0.93881(9) 0.79147(2)
O5_3 O 0.14674(10) 0.75789(14) 0.68800(3)
O6_3 O 0.32677(8) 0.82279(11) 0.73657(2)
O7_3 O 0.08490(9) 0.67268(12) 0.79811(3)
C4_3 C 0.20596(10) 0.81758(13) 0.72325(3)
C5_3 C 0.13061(11) 0.87989(15) 0.75185(3)
H3_3 H 0.0520 0.8857 0.7357
H4_3 H 0.2047 0.9817 0.7609
C6_3 C 0.06119(9) 0.78059(13) 0.79147(2)
O9_3 O 0.24211(14) 0.38886(10) 0.68800(3)
O10_3 O 0.17721(11) 0.50399(7) 0.73657(2)
O11_3 O 0.32732(12) 0.41223(8) 0.79811(3)
C7_3 C 0.18242(13) 0.38839(9) 0.72325(3)
C8_3 C 0.12011(15) 0.25073(10) 0.75185(3)
H5_3 H 0.1143 0.1664 0.7357
H6_3 H 0.0183 0.2231 0.7609
C9_3 C 0.21941(13) 0.28061(9) 0.79147(2)
O13_3 O 0.05552(10) 0.48008(10) 0.64534(3)
O14_3 O 0.17065(7) 0.66011(8) 0.59677(2)
O15_3 O 0.07889(8) 0.41824(9) 0.53523(3)
C10_3 C 0.05505(9) 0.53930(10) 0.61009(3)
O17_3 O 0.51992(10) 0.57545(14) 0.64534(3)
O18_3 O 0.33989(8) 0.51055(11) 0.59677(2)
O19_3 O 0.58176(9) 0.66066(12) 0.53523(3)
C13_3 C 0.46070(10) 0.51576(13) 0.61009(3)
C14_3 C 0.53605(11) 0.45345(15) 0.58149(3)
H9_3 H 0.6146 0.4477 0.5977
H10_3 H 0.4619 0.3517 0.5725
C15_3 C 0.60547(9) 0.55275(13) 0.54187(2)
O21_3 O 0.42455(14) 0.94448(10) 0.64534(3)
O22_3 O 0.48945(11) 0.82935(7) 0.59677(2)
O23_3 O 0.33934(12) 0.92111(8) 0.53523(3)
C16_3 C 0.48424(13) 0.94495(9) 0.61009(3)
C11_3 C 0.91739(10) 0.46395(11) 0.58149(3)
H7_3 H 0.8330 0.3854 0.5977
H8_3 H 0.8897 0.5381 0.5725
C12_3 C 0.94727(9) 0.39453(9) 0.54187(2)
Co1 Co 0.3333 0.6667 0.1667
N1 N 0.33603(12) 0.82715(11) 0.13063(4)
H13 H 0.4049 0.9174 0.1408
H14 H 0.2450 0.8193 0.1312
H15 H 0.3594 0.8173 0.1035
N2 N 0.17285(11) 0.50888(16) 0.13063(4)
H16 H 0.0826 0.4875 0.1408
H17 H 0.1807 0.4257 0.1312
H18 H 0.1827 0.5421 0.1035
N3 N 0.49112(16) 0.66397(12) 0.13063(4)
H19 H 0.5125 0.5951 0.1408
H20 H 0.5743 0.7550 0.1312
H21 H 0.4579 0.6406 0.1035
N4 N 0.33064(12) 0.50618(11) 0.20270(4)
H22 H 0.2618 0.4159 0.1925
H23 H 0.4217 0.5140 0.2021
H24 H 0.3073 0.5160 0.2298
N5 N 0.49382(11) 0.82445(16) 0.20270(4)
H25 H 0.5841 0.8458 0.1925
H26 H 0.4860 0.9076 0.2021
H27 H 0.4840 0.7912 0.2298
N6 N 0.17555(16) 0.66936(12) 0.20270(4)
H28 H 0.1542 0.7382 0.1925
H29 H 0.0924 0.5783 0.2021
H30 H 0.2088 0.6927 0.2298
Co1_2 Co -0.0000 0.0000 0.5000
N1_2 N 0.00270(12) 0.16048(11) 0.46396(4)
H13_2 H 0.0716 0.2507 0.4741
H15_2 H 0.0261 0.1506 0.4368
H20_2 H 0.2410 0.0883 0.4645
N5_2 N 0.16048(11) 0.15779(16) 0.53604(4)
H25_2 H 0.2507 0.1792 0.5259
H26_2 H 0.1526 0.2410 0.5355
H27_2 H 0.1506 0.1246 0.5632
Co1_3 Co -0.0000 1.0000 0.5000
N3_2 N 0.15779(16) 0.99730(12) 0.46396(4)
H19_2 H 0.1792 0.9284 0.4741
H21_2 H 0.1246 0.9739 0.4368
H23_2 H 0.0883 0.8474 0.5355
Co1_4 Co 1.0000 0.0000 0.5000
H14_2 H 0.9117 0.1526 0.4645
N6_2 N 0.84221(16) 0.00270(12) 0.53604(4)
H28_2 H 0.8208 0.0716 0.5259
H30_2 H 0.8754 0.0261 0.5632
Co1_5 Co 1.0000 1.0000 0.5000
N2_2 N 0.83952(11) 0.84221(16) 0.46396(4)
H16_2 H 0.7493 0.8208 0.4741
H17_2 H 0.8474 0.7590 0.4645
H18_2 H 0.8494 0.8754 0.4368
N4_2 N 0.99730(12) 0.83952(11) 0.53604(4)
H22_2 H 0.9284 0.7493 0.5259
H24_2 H 0.9739 0.8494 0.5632
H29_2 H 0.7590 0.9117 0.5355
Co1_6 Co 0.6666 0.3334 0.8334
N1_3 N 0.66936(12) 0.49382(11) 0.79730(4)
H13_3 H 0.7382 0.5841 0.8075
H14_3 H 0.5783 0.4860 0.7979
H15_3 H 0.6927 0.4840 0.7702
N2_3 N 0.50618(11) 0.17555(16) 0.79730(4)
H16_3 H 0.4159 0.1542 0.8075
H17_3 H 0.5140 0.0924 0.7979
H18_3 H 0.5160 0.2088 0.7702
N3_3 N 0.82445(16) 0.33064(12) 0.79730(4)
H19_3 H 0.8458 0.2618 0.8075
H20_3 H 0.9076 0.4217 0.7979
H21_3 H 0.7912 0.3073 0.7702
N4_3 N 0.66397(12) 0.17285(11) 0.86937(4)
H22_3 H 0.5951 0.0826 0.8592
H23_3 H 0.7550 0.1807 0.8688
H24_3 H 0.6406 0.1827 0.8965
N5_3 N 0.82715(11) 0.49112(16) 0.86937(4)
H25_3 H 0.9174 0.5125 0.8592
H26_3 H 0.8193 0.5743 0.8688
H27_3 H 0.8173 0.4579 0.8965
N6_3 N 0.50888(16) 0.33603(12) 0.86937(4)
H28_3 H 0.4875 0.4049 0.8592
H29_3 H 0.4257 0.2450 0.8688
H30_3 H 0.5421 0.3594 0.8965
loop_
_geom_bond_atom_site_label_1
_geom_bond_atom_site_label_2
_geom_bond_site_symmetry_1
_geom_bond_site_symmetry_2
Pr1 O1 1_555 1_555
Pr2 O2 1_555 1_555
O1 C1 1_555 1_555
O2 Pr1 1_555 1_555
O3 Pr2 1_555 1_555
O4 C3 1_555 1_555
C1 O2 1_555 1_555
C2 C1 1_555 1_555
H1 C2 1_555 1_555
H2 C2 1_555 1_555
C3 O3 1_555 1_555
Pr9 O4 1_555 1_555
O29 Pr2 1_555 1_555
C2 C3 1_555 1_555
O21 Pr1_2 1_555 1_555
O22 Pr1_2 1_555 1_555
O23 Pr3 1_555 1_555
O24 C18 1_555 1_555
C16 O21 1_555 1_555
C17 C16 1_555 1_555
H11 C17 1_555 1_555
H12 C17 1_555 1_555
C18 O23 1_555 1_555
Pr6 O24 1_555 1_555
O27 Pr3 1_555 1_555
Pr3 O22 1_555 1_555
O22 C16 1_555 1_555
C17 C18 1_555 1_555
O28 Pr2_2 1_555 1_555
O17 Pr1_4 1_555 1_555
O18 Pr1_4 1_555 1_555
O19 Pr3_2 1_555 1_555
O20 C15 1_555 1_555
C13 O17 1_555 1_555
C14 C13 1_555 1_555
H9 C14 1_555 1_555
H10 C14 1_555 1_555
C15 O19 1_555 1_555
Pr6 O20 1_555 1_555
Pr3_2 O18 1_555 1_555
O18 C13 1_555 1_555
C14 C15 1_555 1_555
O5 Pr1_5 1_555 1_555
O6 Pr1_5 1_555 1_555
O7 Pr2_3 1_555 1_555
O8 C6 1_555 1_555
C4 O5 1_555 1_555
C5 C4 1_555 1_555
H3 C5 1_555 1_555
H4 C5 1_555 1_555
C6 O7 1_555 1_555
Pr9 O8 1_555 1_555
Pr2_3 O6 1_555 1_555
O6 C4 1_555 1_555
C5 C6 1_555 1_555
O25 Pr3_3 1_555 1_555
O9 Pr1_7 1_555 1_555
O10 Pr1_7 1_555 1_555
O11 Pr2_4 1_555 1_555
O12 C9 1_555 1_555
C7 O9 1_555 1_555
C8 C7 1_555 1_555
H5 C8 1_555 1_555
H6 C8 1_555 1_555
C9 O11 1_555 1_555
Pr9 O12 1_555 1_555
O30 Pr2_4 1_555 1_555
Pr2_4 O10 1_555 1_555
O10 C7 1_555 1_555
C8 C9 1_555 1_555
Pr3_4 O14 1_555 1_555
O13 Pr1_8 1_555 1_555
O14 Pr1_8 1_555 1_555
O15 Pr3_4 1_555 1_555
O16 C12 1_555 1_555
C10 O13 1_555 1_555
C11 C10 1_555 1_555
H7 C11 1_555 1_555
H8 C11 1_555 1_555
C12 O15 1_555 1_555
Pr6 O16 1_555 1_555
O26 Pr3_4 1_555 1_555
O14 C10 1_555 1_555
C11 C12 1_555 1_555
O4_2 C3_2 1_555 1_555
H1_2 C2_2 1_555 1_555
H2_2 C2_2 1_555 1_555
Pr9_2 O4_2 1_555 1_555
C2_2 C3_2 1_555 1_555
Pr1_9 O1_2 1_555 1_555
Pr2_5 O2_2 1_555 1_555
O1_2 C1_2 1_555 1_555
O2_2 Pr1_9 1_555 1_555
O3_2 Pr2_5 1_555 1_555
C1_2 O2_2 1_555 1_555
O5_2 Pr1_9 1_555 1_555
O6_2 Pr1_9 1_555 1_555
O7_2 Pr2_5 1_555 1_555
O8_2 C6_2 1_555 1_555
C4_2 O5_2 1_555 1_555
C5_2 C4_2 1_555 1_555
H3_2 C5_2 1_555 1_555
H4_2 C5_2 1_555 1_555
C6_2 O7_2 1_555 1_555
O9_2 Pr1_9 1_555 1_555
O10_2 Pr1_9 1_555 1_555
O11_2 Pr2_5 1_555 1_555
C7_2 O9_2 1_555 1_555
Pr9 O14_2 1_555 1_555
O13_2 Pr1_9 1_555 1_555
O14_2 Pr1_9 1_555 1_555
O15_2 Pr9 1_555 1_555
C10_2 O13_2 1_555 1_555
C11_2 C10_2 1_555 1_555
H7_2 C11_2 1_555 1_555
H8_2 C11_2 1_555 1_555
C12_2 O15_2 1_555 1_555
O17_2 Pr1_9 1_555 1_555
O18_2 Pr1_9 1_555 1_555
O19_2 Pr9 1_555 1_555
C13_2 O17_2 1_555 1_555
C14_2 C13_2 1_555 1_555
H9_2 C14_2 1_555 1_555
H10_2 C14_2 1_555 1_555
C15_2 O19_2 1_555 1_555
O21_2 Pr1_9 1_555 1_555
O22_2 Pr1_9 1_555 1_555
O23_2 Pr9 1_555 1_555
O30 C18_2 1_555 1_555
C16_2 O21_2 1_555 1_555
C17_2 C16_2 1_555 1_555
H11_2 C17_2 1_555 1_555
H12_2 C17_2 1_555 1_555
C18_2 O23_2 1_555 1_555
Pr9_2 O8_2 1_555 1_555
O28_2 Pr2_5 1_555 1_555
O29_2 Pr2_5 1_555 1_555
O30_2 Pr2_5 1_555 1_555
Pr2_5 O6_2 1_555 1_555
Pr2_5 O10_2 1_555 1_555
O6_2 C4_2 1_555 1_555
C5_2 C6_2 1_555 1_555
O10_2 C7_2 1_555 1_555
Pr9 O18_2 1_555 1_555
Pr9 O22_2 1_555 1_555
O14_2 C10_2 1_555 1_555
C11_2 C12_2 1_555 1_555
O18_2 C13_2 1_555 1_555
C14_2 C15_2 1_555 1_555
O22_2 C16_2 1_555 1_555
C17_2 C18_2 1_555 1_555
O12_2 C9_2 1_555 1_555
H5_2 C8_2 1_555 1_555
H6_2 C8_2 1_555 1_555
Pr9_2 O12_2 1_555 1_555
C8_2 C9_2 1_555 1_555
O30_2 C18_3 1_555 1_555
H11_3 C17_3 1_555 1_555
H12_3 C17_3 1_555 1_555
C17_3 C18_3 1_555 1_555
Pr1_10 O1_3 1_555 1_555
Pr6 O2_3 1_555 1_555
O1_3 C1_3 1_555 1_555
O2_3 Pr1_10 1_555 1_555
O3_3 Pr6 1_555 1_555
C1_3 O2_3 1_555 1_555
C2_3 C1_3 1_555 1_555
H1_3 C2_3 1_555 1_555
H2_3 C2_3 1_555 1_555
C3_3 O3_3 1_555 1_555
O5_3 Pr1_10 1_555 1_555
O6_3 Pr1_10 1_555 1_555
O7_3 Pr6 1_555 1_555
C4_3 O5_3 1_555 1_555
C5_3 C4_3 1_555 1_555
H3_3 C5_3 1_555 1_555
H4_3 C5_3 1_555 1_555
C6_3 O7_3 1_555 1_555
O9_3 Pr1_10 1_555 1_555
O10_3 Pr1_10 1_555 1_555
O11_3 Pr6 1_555 1_555
O27 C9_3 1_555 1_555
C7_3 O9_3 1_555 1_555
C8_3 C7_3 1_555 1_555
H5_3 C8_3 1_555 1_555
H6_3 C8_3 1_555 1_555
C9_3 O11_3 1_555 1_555
Pr9_2 O14_3 1_555 1_555
O13_3 Pr1_10 1_555 1_555
O14_3 Pr1_10 1_555 1_555
O15_3 Pr9_2 1_555 1_555
C10_3 O13_3 1_555 1_555
O17_3 Pr1_10 1_555 1_555
O18_3 Pr1_10 1_555 1_555
O19_3 Pr9_2 1_555 1_555
O29_2 C15_3 1_555 1_555
C13_3 O17_3 1_555 1_555
C14_3 C13_3 1_555 1_555
H9_3 C14_3 1_555 1_555
H10_3 C14_3 1_555 1_555
C15_3 O19_3 1_555 1_555
O21_3 Pr1_10 1_555 1_555
O22_3 Pr1_10 1_555 1_555
O23_3 Pr9_2 1_555 1_555
C16_3 O21_3 1_555 1_555
Pr6 O6_3 1_555 1_555
Pr6 O10_3 1_555 1_555
C2_3 C3_3 1_555 1_555
O6_3 C4_3 1_555 1_555
C5_3 C6_3 1_555 1_555
O10_3 C7_3 1_555 1_555
C8_3 C9_3 1_555 1_555
Pr9_2 O18_3 1_555 1_555
Pr9_2 O22_3 1_555 1_555
O14_3 C10_3 1_555 1_555
O18_3 C13_3 1_555 1_555
C14_3 C15_3 1_555 1_555
O22_3 C16_3 1_555 1_555
O28_2 C12_3 1_555 1_555
H7_3 C11_3 1_555 1_555
H8_3 C11_3 1_555 1_555
C11_3 C12_3 1_555 1_555
Co1 N1 1_555 1_555
N1 H13 1_555 1_555
H14 N1 1_555 1_555
H15 N1 1_555 1_555
N2 Co1 1_555 1_555
H16 N2 1_555 1_555
H17 N2 1_555 1_555
H18 N2 1_555 1_555
N3 Co1 1_555 1_555
H19 N3 1_555 1_555
H20 N3 1_555 1_555
H21 N3 1_555 1_555
N4 Co1 1_555 1_555
H22 N4 1_555 1_555
H23 N4 1_555 1_555
H24 N4 1_555 1_555
N5 Co1 1_555 1_555
H25 N5 1_555 1_555
H26 N5 1_555 1_555
H27 N5 1_555 1_555
N6 Co1 1_555 1_555
H28 N6 1_555 1_555
H29 N6 1_555 1_555
H30 N6 1_555 1_555
Co1_2 N1_2 1_555 1_555
N1_2 H13_2 1_555 1_555
H15_2 N1_2 1_555 1_555
N5_2 Co1_2 1_555 1_555
H25_2 N5_2 1_555 1_555
H26_2 N5_2 1_555 1_555
H27_2 N5_2 1_555 1_555
N3_2 Co1_3 1_555 1_555
H19_2 N3_2 1_555 1_555
H21_2 N3_2 1_555 1_555
N6_2 Co1_4 1_555 1_555
H28_2 N6_2 1_555 1_555
H30_2 N6_2 1_555 1_555
N2_2 Co1_5 1_555 1_555
H16_2 N2_2 1_555 1_555
H17_2 N2_2 1_555 1_555
H18_2 N2_2 1_555 1_555
N4_2 Co1_5 1_555 1_555
H22_2 N4_2 1_555 1_555
H24_2 N4_2 1_555 1_555
Co1_6 N1_3 1_555 1_555
N1_3 H13_3 1_555 1_555
H14_3 N1_3 1_555 1_555
H15_3 N1_3 1_555 1_555
N2_3 Co1_6 1_555 1_555
H16_3 N2_3 1_555 1_555
H17_3 N2_3 1_555 1_555
H18_3 N2_3 1_555 1_555
N3_3 Co1_6 1_555 1_555
H19_3 N3_3 1_555 1_555
H20_3 N3_3 1_555 1_555
H21_3 N3_3 1_555 1_555
N4_3 Co1_6 1_555 1_555
H22_3 N4_3 1_555 1_555
H23_3 N4_3 1_555 1_555
H24_3 N4_3 1_555 1_555
N5_3 Co1_6 1_555 1_555
H25_3 N5_3 1_555 1_555
H26_3 N5_3 1_555 1_555
H27_3 N5_3 1_555 1_555
N6_3 Co1_6 1_555 1_555
H28_3 N6_3 1_555 1_555
H29_3 N6_3 1_555 1_555
H30_3 N6_3 1_555 1_555

#END
