
###############################################################################
#
# This file contains modified crystal structure data generated from the
# MOF subset of the Cambridge Structural Database (CSD) v543 
# hosted by the Cambridge Crystallographic Data Centre (CCDC).
#
# This work is licensed under the Creative Commons
# Attribution-NonCommercial-ShareAlike 4.0 International License.
# To view a copy of this license, visit
# http://creativecommons.org/licenses/by-nc-sa/4.0/
# or send a letter to
# Creative Commons, PO Box 1866, Mountain View, CA 94042, USA.
#
# CIF created using the CSD Python API on 29 September 2022
# The structure has been converted into the P1 space group
# The structure has a 3D framework
# The original CSD entry VUCHEJ is in the monoclinic crystal system
# The framework has been calculated to contain at least 10.0% void space
# The void calculation uses a probe of radius 1.32A, grid spacing 0.4
#
###############################################################################

data_VUCHEJ
_chemical_formula_moiety         '(C48 H16 O37 S8 Sc12)n'
_symmetry_cell_setting           triclinic
_symmetry_space_group_name_H-M   'P 1'
_symmetry_Int_Tables_number      1
_space_group_name_Hall           'P 1'
loop_
_symmetry_equiv_pos_site_id
_symmetry_equiv_pos_as_xyz
1 x,y,z
_cell_length_a                   13.579(3)
_cell_length_b                   16.643(5)
_cell_length_c                   13.902(4)
_cell_angle_alpha                90
_cell_angle_beta                 104.682(17)
_cell_angle_gamma                90
_cell_volume                     3039.2
loop_
_atom_site_label
_atom_site_type_symbol
_atom_site_fract_x
_atom_site_fract_y
_atom_site_fract_z
Sc11 Sc 0.0000 0.5000 0.0000
O1 O 0.1494(2) 0.47111(19) 0.8278(2)
O2 O 0.0109(2) 0.43048(19) 0.8741(2)
C1 C 0.0762(3) 0.4237(3) 0.8250(3)
Sc2 Sc 0.0000 -0.0000 0.5000
O3 O 0.0234(2) 0.10535(19) 0.5857(2)
C4 C 0.0242(3) 0.2271(3) 0.6700(3)
C7 C 0.1134(4) 0.2581(3) 0.6586(4)
H1 H 0.1529 0.2337 0.6211
C8 C 0.1387(4) 0.3298(3) 0.7087(4)
H2 H 0.1966 0.3593 0.7079
C10 C 0.0694(3) 0.3528(3) 0.7597(3)
O24 O 0.0109(2) 0.06952(19) 0.3741(2)
Sc6 Sc 0.23150(5) 0.55509(5) 0.92886(6)
Sc11_2 Sc 0.0000 0.5000 1.0000
Sc2_2 Sc 0.0000 1.0000 0.5000
O26 O 0.1551(2) 0.97851(18) 0.5318(2)
Sc11_3 Sc 1.0000 0.5000 0.0000
Sc1 Sc 0.76850(5) 0.05509(5) 0.57114(6)
Sc2_3 Sc 1.0000 -0.0000 0.5000
Sc3 Sc 0.5000 -0.0000 0.5000
S1 S 0.66394(8) 0.27243(8) 0.32211(10)
S2 S 0.97138(8) 0.28652(7) 0.74364(10)
O4 O 0.8449(2) 0.02149(18) 0.4682(2)
O5 O 0.5339(2) 0.4366(2) 0.1338(3)
O6 O 0.5230(2) 0.1065(2) 0.4304(3)
O8 O 0.6958(2) 0.3982(2) 0.1798(2)
O9 O 0.6871(2) 0.14223(19) 0.4719(2)
O10 O 0.8833(2) 0.14205(19) 0.6309(2)
C2 C 0.5954(3) 0.1511(3) 0.4233(4)
C3 C 0.9736(3) 0.1528(3) 0.6248(3)
C5 C 0.5709(3) 0.2171(3) 0.3548(4)
C6 C 0.6039(3) 0.3930(3) 0.1827(3)
C9 C 0.5771(3) 0.3310(3) 0.2441(4)
C11 C 0.4783(4) 0.3099(4) 0.2443(5)
H3 H 0.4206 0.3362 0.2075
C12 C 0.4762(4) 0.2449(4) 0.3062(5)
H4 H 0.4161 0.2222 0.3140
O17 O 0.34654(19) 0.02639(17) 0.4776(2)
O22 O 0.1494(2) 0.02889(19) 0.3278(2)
Sc8 Sc 0.76850(5) 0.44491(5) 0.07114(6)
Sc11_4 Sc 1.0000 0.5000 1.0000
Sc13 Sc 0.5000 0.5000 0.0000
O28 O 0.5339(2) 0.0634(2) 0.6338(3)
O30 O 0.6958(2) 0.1018(2) 0.6798(2)
Sc13_2 Sc 0.5000 0.5000 1.0000
Sc2_4 Sc 1.0000 1.0000 0.5000
Sc3_2 Sc 0.5000 1.0000 0.5000
O7 O 0.65346(19) 0.97361(17) 0.5224(2)
Sc4 Sc 0.23150(5) 0.94491(5) 0.42886(6)
S3 S 0.33606(8) 0.72757(8) 0.67789(10)
S4 S 0.02862(8) 0.71348(7) 0.25636(10)
O15 O 0.4661(2) 0.5634(2) 0.8662(3)
O16 O 0.4770(2) 0.8935(2) 0.5696(3)
O18 O 0.3042(2) 0.6018(2) 0.8202(2)
O19 O 0.3129(2) 0.85777(19) 0.5281(2)
O20 O 0.1167(2) 0.85795(19) 0.3691(2)
C14 C 0.4046(3) 0.8489(3) 0.5767(4)
C15 C 0.0264(3) 0.8472(3) 0.3752(3)
C17 C 0.4291(3) 0.7829(3) 0.6452(4)
C18 C 0.3961(3) 0.6070(3) 0.8173(3)
C21 C 0.4229(3) 0.6690(3) 0.7559(4)
C23 C 0.5217(4) 0.6901(4) 0.7557(5)
H7 H 0.5794 0.6638 0.7925
C24 C 0.5238(4) 0.7551(4) 0.6938(5)
H8 H 0.5839 0.7778 0.6860
O21 O 0.8506(2) 0.97111(19) 0.6722(2)
O23 O 0.9891(2) 0.93048(19) 0.6259(2)
O25 O 0.9766(2) 0.89465(19) 0.4143(2)
O27 O 0.4661(2) 0.9366(2) 0.3662(3)
O29 O 0.3042(2) 0.8982(2) 0.3202(2)
O11 O 0.8506(2) 0.52889(19) 0.1722(2)
O12 O 0.9891(2) 0.56952(19) 0.1259(2)
C13 C 0.9238(3) 0.5763(3) 0.1750(3)
C16 C 0.9758(3) 0.7729(3) 0.3300(3)
C19 C 0.8866(4) 0.7419(3) 0.3414(4)
H5 H 0.8471 0.7663 0.3789
C20 C 0.8613(4) 0.6702(3) 0.2913(4)
H6 H 0.8034 0.6407 0.2921
C22 C 0.9306(3) 0.6472(3) 0.2403(3)
C13_2 C 0.0762(3) 0.0763(3) 0.3250(3)
O13 O 0.0234(2) 0.39465(19) 0.0857(2)
C16_2 C 0.0242(3) 0.2729(3) 0.1700(3)
C19_2 C 0.1134(4) 0.2419(3) 0.1586(4)
H5_2 H 0.1529 0.2663 0.1211
C20_2 C 0.1387(4) 0.1702(3) 0.2087(4)
H6_2 H 0.1966 0.1407 0.2079
C22_2 C 0.0694(3) 0.1472(3) 0.2597(3)
S1_2 S 0.33606(8) 0.77243(8) 0.17789(10)
O4_2 O 0.1551(2) 0.52149(18) 0.0318(2)
O6_2 O 0.4770(2) 0.6065(2) 0.0696(3)
O9_2 O 0.3129(2) 0.64223(19) 0.0281(2)
C2_2 C 0.4046(3) 0.6511(3) 0.0767(4)
C5_2 C 0.4291(3) 0.7171(3) 0.1452(4)
C6_2 C 0.3961(3) 0.8930(3) 0.3173(3)
C9_2 C 0.4229(3) 0.8310(3) 0.2559(4)
C11_2 C 0.5217(4) 0.8099(4) 0.2557(5)
H3_2 H 0.5794 0.8362 0.2925
C12_2 C 0.5238(4) 0.7449(4) 0.1938(5)
H4_2 H 0.5839 0.7222 0.1860
S4_2 S 0.97138(8) 0.21348(7) 0.24364(10)
O17_2 O 0.65346(19) 0.52639(17) 0.0224(2)
O20_2 O 0.8833(2) 0.35795(19) 0.1309(2)
C15_2 C 0.9736(3) 0.3472(3) 0.1248(3)
S2_2 S 0.02862(8) 0.78652(7) 0.75636(10)
O7_2 O 0.34654(19) 0.47361(17) 0.9776(2)
O10_2 O 0.1167(2) 0.64205(19) 0.8691(2)
C3_2 C 0.0264(3) 0.6528(3) 0.8752(3)
S3_2 S 0.66394(8) 0.22757(8) 0.82211(10)
O14 O 0.8449(2) 0.47851(18) 0.9682(2)
O16_2 O 0.5230(2) 0.3935(2) 0.9304(3)
O19_2 O 0.6871(2) 0.35777(19) 0.9719(2)
C14_2 C 0.5954(3) 0.3489(3) 0.9233(4)
C17_2 C 0.5709(3) 0.2829(3) 0.8548(4)
C18_2 C 0.6039(3) 0.1070(3) 0.6827(3)
C21_2 C 0.5771(3) 0.1690(3) 0.7441(4)
C23_2 C 0.4783(4) 0.1901(4) 0.7443(5)
H7_2 H 0.4206 0.1638 0.7075
C24_2 C 0.4762(4) 0.2551(4) 0.8062(5)
H8_2 H 0.4161 0.2778 0.8140
C1_2 C 0.9238(3) 0.9237(3) 0.6750(3)
O3_2 O 0.9766(2) 0.60535(19) 0.9143(2)
C4_2 C 0.9758(3) 0.7271(3) 0.8300(3)
C7_2 C 0.8866(4) 0.7581(3) 0.8414(4)
H1_2 H 0.8471 0.7337 0.8789
C8_2 C 0.8613(4) 0.8298(3) 0.7913(4)
H2_2 H 0.8034 0.8593 0.7921
C10_2 C 0.9306(3) 0.8528(3) 0.7403(3)
loop_
_geom_bond_atom_site_label_1
_geom_bond_atom_site_label_2
_geom_bond_site_symmetry_1
_geom_bond_site_symmetry_2
O1 C1 1_555 1_555
O2 C1 1_555 1_555
C1 C10 1_555 1_555
Sc2 O3 1_555 1_555
C7 C4 1_555 1_555
H1 C7 1_555 1_555
C8 C7 1_555 1_555
H2 C8 1_555 1_555
O24 Sc2 1_555 1_555
Sc6 O1 1_555 1_555
Sc11_2 O2 1_555 1_555
C8 C10 1_555 1_555
O26 Sc2_2 1_555 1_555
Sc1 O4 1_555 1_555
Sc3 O6 1_555 1_555
S1 C5 1_555 1_555
O4 Sc2_3 1_555 1_555
O5 C6 1_555 1_555
O6 C2 1_555 1_555
O8 C6 1_555 1_555
O9 Sc1 1_555 1_555
O10 Sc1 1_555 1_555
C2 O9 1_555 1_555
C3 O10 1_555 1_555
C5 C2 1_555 1_555
C6 C9 1_555 1_555
C9 S1 1_555 1_555
C11 C9 1_555 1_555
H3 C11 1_555 1_555
C12 C5 1_555 1_555
H4 C12 1_555 1_555
O17 Sc3 1_555 1_555
Sc8 O8 1_555 1_555
Sc13 O5 1_555 1_555
O28 Sc3 1_555 1_555
O30 Sc1 1_555 1_555
C11 C12 1_555 1_555
Sc4 O26 1_555 1_555
S3 C17 1_555 1_555
O15 C18 1_555 1_555
O16 Sc3_2 1_555 1_555
O18 C18 1_555 1_555
O19 Sc4 1_555 1_555
O20 Sc4 1_555 1_555
C14 O16 1_555 1_555
C15 O20 1_555 1_555
C17 C14 1_555 1_555
C18 C21 1_555 1_555
C21 S3 1_555 1_555
C23 C21 1_555 1_555
H7 C23 1_555 1_555
C24 C17 1_555 1_555
H8 C24 1_555 1_555
O23 Sc2_4 1_555 1_555
Sc6 O18 1_555 1_555
Sc13_2 O15 1_555 1_555
O25 Sc2_4 1_555 1_555
O27 Sc3_2 1_555 1_555
O29 Sc4 1_555 1_555
Sc3_2 O7 1_555 1_555
O19 C14 1_555 1_555
C23 C24 1_555 1_555
O11 C13 1_555 1_555
O12 C13 1_555 1_555
C13 C22 1_555 1_555
C19 C16 1_555 1_555
H5 C19 1_555 1_555
C20 C19 1_555 1_555
H6 C20 1_555 1_555
Sc8 O11 1_555 1_555
Sc11_3 O12 1_555 1_555
C20 C22 1_555 1_555
O22 C13_2 1_555 1_555
O24 C13_2 1_555 1_555
C13_2 C22_2 1_555 1_555
C19_2 C16_2 1_555 1_555
H5_2 C19_2 1_555 1_555
C20_2 C19_2 1_555 1_555
H6_2 C20_2 1_555 1_555
Sc11 O13 1_555 1_555
C20_2 C22_2 1_555 1_555
Sc13 O6_2 1_555 1_555
S1_2 C5_2 1_555 1_555
O4_2 Sc11 1_555 1_555
O27 C6_2 1_555 1_555
O6_2 C2_2 1_555 1_555
O29 C6_2 1_555 1_555
C2_2 O9_2 1_555 1_555
C5_2 C2_2 1_555 1_555
C6_2 C9_2 1_555 1_555
C9_2 S1_2 1_555 1_555
C11_2 C9_2 1_555 1_555
H3_2 C11_2 1_555 1_555
C12_2 C5_2 1_555 1_555
H4_2 C12_2 1_555 1_555
O17_2 Sc13 1_555 1_555
O20_2 Sc8 1_555 1_555
C15_2 O20_2 1_555 1_555
C11_2 C12_2 1_555 1_555
Sc8 O17_2 1_555 1_555
O7_2 Sc6 1_555 1_555
O10_2 Sc6 1_555 1_555
C3_2 O10_2 1_555 1_555
S3_2 C17_2 1_555 1_555
O14 Sc11_4 1_555 1_555
O28 C18_2 1_555 1_555
O16_2 Sc13_2 1_555 1_555
O30 C18_2 1_555 1_555
C14_2 O16_2 1_555 1_555
C17_2 C14_2 1_555 1_555
C18_2 C21_2 1_555 1_555
C21_2 S3_2 1_555 1_555
C23_2 C21_2 1_555 1_555
H7_2 C23_2 1_555 1_555
C24_2 C17_2 1_555 1_555
H8_2 C24_2 1_555 1_555
Sc13_2 O7_2 1_555 1_555
O19_2 C14_2 1_555 1_555
C23_2 C24_2 1_555 1_555
O21 C1_2 1_555 1_555
O23 C1_2 1_555 1_555
C1_2 C10_2 1_555 1_555
Sc11_4 O3_2 1_555 1_555
C7_2 C4_2 1_555 1_555
H1_2 C7_2 1_555 1_555
C8_2 C7_2 1_555 1_555
H2_2 C8_2 1_555 1_555
C8_2 C10_2 1_555 1_555

#END
