
###############################################################################
#
# This file contains modified crystal structure data generated from the
# MOF subset of the Cambridge Structural Database (CSD) v543 
# hosted by the Cambridge Crystallographic Data Centre (CCDC).
#
# This work is licensed under the Creative Commons
# Attribution-NonCommercial-ShareAlike 4.0 International License.
# To view a copy of this license, visit
# http://creativecommons.org/licenses/by-nc-sa/4.0/
# or send a letter to
# Creative Commons, PO Box 1866, Mountain View, CA 94042, USA.
#
# CIF created using the CSD Python API on 29 September 2022
# The structure has been converted into the P1 space group
# The structure has a 3D framework
# The original CSD entry VUCYOK is in the monoclinic crystal system
# The framework has been calculated to contain at least 10.0% void space
# The void calculation uses a probe of radius 1.32A, grid spacing 0.4
# The framework is charged, counterions have been retained in the structure
#
###############################################################################

data_VUCYOK
_chemical_formula_moiety         '(C128 H116 N28 O8 Zn4 8+)n'
_symmetry_cell_setting           triclinic
_symmetry_space_group_name_H-M   'P 1'
_symmetry_Int_Tables_number      1
_space_group_name_Hall           'P 1'
loop_
_symmetry_equiv_pos_site_id
_symmetry_equiv_pos_as_xyz
1 x,y,z
_cell_length_a                   11.9804(14)
_cell_length_b                   13.4380(13)
_cell_length_c                   21.0607(17)
_cell_angle_alpha                90
_cell_angle_beta                 97.313(11)
_cell_angle_gamma                90
_cell_volume                     3363.04
loop_
_atom_site_label
_atom_site_type_symbol
_atom_site_fract_x
_atom_site_fract_y
_atom_site_fract_z
N2 N 0.3563(5) 0.2242(4) 0.5508(2)
C1 C 0.2587(6) 0.2208(4) 0.5826(3)
C2 C 0.2695(6) 0.1982(6) 0.6472(3)
H1 H 0.340605 0.190590 0.670116
C3 C 0.1754(6) 0.1870(6) 0.6776(3)
H2 H 0.182547 0.173695 0.721282
C4 C 0.0717(7) 0.1954(5) 0.6434(3)
C5 C 0.0600(6) 0.2223(5) 0.5802(3)
C6 C 0.1547(6) 0.2341(5) 0.5489(3)
H4 H 0.147246 0.250694 0.505723
C10 C 0.3683(6) 0.3001(5) 0.5056(3)
C11 C 0.3325(6) 0.3961(5) 0.5151(3)
H8 H 0.295498 0.410073 0.550325
C12 C 0.3507(6) 0.4719(5) 0.4730(3)
H9 H 0.328444 0.536774 0.480355
C13 C 0.4027(5) 0.4491(5) 0.4199(3)
C14 C 0.4383(6) 0.3543(5) 0.4087(3)
H10 H 0.474285 0.340897 0.373065
C15 C 0.4204(6) 0.2789(5) 0.4510(3)
H11 H 0.442708 0.214225 0.443254
N4 N 0.4255(5) 0.5278(4) 0.3769(2)
C16 C 0.3605(6) 0.6034(5) 0.3568(3)
H12 H 0.291234 0.615983 0.370701
N5 N 0.4044(5) 0.6595(4) 0.3147(2)
C17 C 0.5058(6) 0.6183(5) 0.3074(3)
H13 H 0.556162 0.642153 0.280850
C18 C 0.5210(6) 0.5355(6) 0.3457(3)
H14 H 0.582747 0.492990 0.350050
C19 C 0.4391(5) 0.1496(5) 0.5641(3)
C20 C 0.5531(6) 0.1707(5) 0.5634(3)
H15 H 0.574147 0.234263 0.552203
C21 C 0.6367(6) 0.0989(5) 0.5792(3)
H16 H 0.712173 0.112923 0.577248
C22 C 0.6020(6) 0.0048(5) 0.5980(3)
C24 C 0.4113(6) 0.0541(5) 0.5808(3)
H18 H 0.335627 0.038296 0.580311
Zn5 Zn 0.33145(7) 0.76512(6) 0.25549(3)
O3 O 0.3851(7) 0.9122(8) 0.2393(3)
O4 O 0.5128(8) 0.8075(7) 0.2178(4)
C33 C 0.4735(10) 0.8950(9) 0.2258(4)
C34 C 0.5532(7) 0.9820(7) 0.2131(3)
H30 H 0.619738 0.978577 0.244502
C35 C 0.5896(8) 0.9840(7) 0.1486(4)
H32 H 0.635637 0.925570 0.144420
C36 C 0.5021(8) 0.9870(7) 0.0927(3)
H34 H 0.458014 0.926448 0.092579
C37 C 0.5420(8) 0.9973(8) 0.0282(3)
H36 H 0.590925 0.941325 0.022603
N8 N 0.1865(5) 0.8103(4) 0.2862(2)
N10 N 0.0276(5) 0.8258(4) 0.3258(2)
H40 H 0.011310 0.767369 0.441859
C44 C 0.1148(6) 0.7665(6) 0.3182(3)
H42 H 0.123028 0.701844 0.333933
C45 C 0.1440(7) 0.9017(6) 0.2733(3)
H43 H 0.177213 0.949938 0.250227
C46 C 0.0490(7) 0.9139(6) 0.2978(4)
H44 H 0.005336 0.971278 0.296313
N18 N 0.2816(5) 0.6822(4) 0.1770(2)
C57 C 0.0531(6) 0.3293(5) 0.0634(3)
H52 H 0.074147 0.265737 0.052203
C58 C 0.1367(6) 0.4011(5) 0.0792(3)
H53 H 0.212173 0.387077 0.077248
C59 C 0.1020(6) 0.4952(5) 0.0980(3)
N13 N 0.1898(5) 0.5657(4) 0.1185(2)
C62 C 0.1894(6) 0.6262(5) 0.1690(3)
H56 H 0.132297 0.628611 0.195001
C63 C 0.3419(6) 0.6563(5) 0.1274(3)
H57 H 0.410338 0.683895 0.120117
C64 C 0.2859(6) 0.5852(6) 0.0915(3)
H58 H 0.307989 0.555012 0.055391
C23 C 0.4907(6) 0.9807(5) 0.5982(3)
H17 H 0.469298 0.917363 0.609639
N6 N 0.6898(5) 0.9343(4) 0.6185(2)
C25 C 0.6894(6) 0.8738(5) 0.6690(3)
H19 H 0.632297 0.871389 0.695001
N7 N 0.7816(5) 0.8178(4) 0.6770(2)
C26 C 0.8419(6) 0.8437(5) 0.6274(3)
H20 H 0.910338 0.816105 0.620117
C27 C 0.7859(6) 0.9148(6) 0.5915(3)
H21 H 0.807989 0.944988 0.555391
Zn4 Zn 0.83145(7) 0.73488(6) 0.75549(3)
H46 H 0.828444 0.963226 0.980355
N11 N 0.9255(5) 0.9722(4) 0.8769(2)
C53 C 0.8605(6) 0.8966(5) 0.8568(3)
H49 H 0.791234 0.884017 0.870701
N12 N 0.9044(5) 0.8405(4) 0.8147(2)
O1 O 0.8851(7) 0.5878(8) 0.7393(3)
N1 N 0.6865(5) 0.6897(4) 0.7862(2)
N2_2 N 0.1437(5) 0.7242(4) 0.9492(2)
C1_2 C 0.2413(6) 0.7208(4) 0.9174(3)
C2_2 C 0.2305(6) 0.6982(6) 0.8528(3)
H1_2 H 0.159395 0.690590 0.829884
C3_2 C 0.3246(6) 0.6870(6) 0.8224(3)
H2_2 H 0.317453 0.673695 0.778718
C4_2 C 0.4283(7) 0.6954(5) 0.8566(3)
N3 N 0.5276(5) 0.6742(4) 0.8258(2)
C5_2 C 0.4400(6) 0.7223(5) 0.9198(3)
H3 H 0.511310 0.732631 0.941859
C6_2 C 0.3453(6) 0.7341(5) 0.9511(3)
H4_2 H 0.352754 0.750694 0.994277
C7 C 0.6148(6) 0.7335(6) 0.8182(3)
H5 H 0.623028 0.798156 0.833933
C8 C 0.6440(7) 0.5983(6) 0.7733(3)
H6 H 0.677213 0.550062 0.750227
C9 C 0.5490(7) 0.5861(6) 0.7978(4)
H7 H 0.505336 0.528722 0.796313
C10_2 C 0.1317(6) 0.8001(5) 0.9944(3)
C11_2 C 0.1675(6) 0.8961(5) 0.9849(3)
H8_2 H 0.204502 0.910073 0.949675
C19_2 C 0.0609(5) 0.6496(5) 0.9359(3)
C23_2 C 0.0093(6) 0.4807(5) 0.9018(3)
H17_2 H 0.030702 0.417363 0.890361
C24_2 C 0.0887(6) 0.5541(5) 0.9192(3)
H18_2 H 0.164373 0.538296 0.919689
C28 C 0.9735(10) 0.6050(9) 0.7258(4)
H26 H 0.958014 0.573552 0.592579
H27 H 0.952164 0.457780 0.598285
O4_2 O 0.9872(8) 0.3075(7) 0.2822(4)
C34_2 C 0.9468(7) 0.4820(7) 0.2869(3)
H30_2 H 0.880262 0.478577 0.255498
H31 H 0.984554 0.544275 0.280232
C35_2 C 0.9104(8) 0.4840(7) 0.3514(4)
H32_2 H 0.864363 0.425570 0.355580
H33 H 0.862384 0.541672 0.353700
C36_2 C 0.9979(8) 0.4870(7) 0.4073(3)
C37_2 C 0.9580(8) 0.4973(8) 0.4718(3)
H36_2 H 0.909075 0.441325 0.477397
H37 H 0.912164 0.556955 0.470980
H31_2 H 0.515446 0.044275 0.219768
H33_2 H 0.637616 0.041672 0.146300
H35 H 0.452164 0.042220 0.098285
H37_2 H 0.587836 0.056955 0.029020
Zn1 Zn 0.66855(7) 0.23488(6) 0.74451(3)
O1_2 O 0.6149(7) 0.0878(8) 0.7607(3)
O2 O 0.4872(8) 0.1925(7) 0.7822(4)
N1_2 N 0.8135(5) 0.1897(4) 0.7138(2)
N3_2 N 0.9724(5) 0.1742(4) 0.6742(2)
H3_2 H 0.988690 0.232631 0.558141
C7_2 C 0.8852(6) 0.2335(6) 0.6818(3)
H5_2 H 0.876972 0.298156 0.666067
C8_2 C 0.8560(7) 0.0983(6) 0.7267(3)
H6_2 H 0.822787 0.050062 0.749773
C9_2 C 0.9510(7) 0.0861(6) 0.7022(4)
H7_2 H 0.994664 0.028722 0.703687
C28_2 C 0.5265(10) 0.1050(9) 0.7742(4)
C29 C 0.4468(7) 0.0180(7) 0.7869(3)
H22 H 0.380262 0.021423 0.755498
C30 C 0.4104(8) 0.0160(7) 0.8514(4)
H24 H 0.364363 0.074430 0.855580
C31 C 0.4979(8) 0.0130(7) 0.9073(3)
H26_2 H 0.541986 0.073552 0.907421
C32 C 0.4580(8) 0.0027(8) 0.9718(3)
H28 H 0.409075 0.058675 0.977397
N16 N 0.5956(5) 0.3405(4) 0.6853(2)
N17 N 0.7184(5) 0.3178(4) 0.8230(2)
N9 N 0.6437(5) 0.7758(4) 0.4492(2)
C38 C 0.7413(6) 0.7792(4) 0.4174(3)
C39 C 0.7305(6) 0.8018(6) 0.3528(3)
H38 H 0.659395 0.809410 0.329884
C40 C 0.8246(6) 0.8130(6) 0.3224(3)
H39 H 0.817453 0.826305 0.278718
C41 C 0.9283(7) 0.8046(5) 0.3566(3)
C42 C 0.9400(6) 0.7777(5) 0.4198(3)
C43 C 0.8453(6) 0.7659(5) 0.4511(3)
H41 H 0.852754 0.749306 0.494277
C47 C 0.6317(6) 0.6999(5) 0.4944(3)
C48 C 0.6675(6) 0.6039(5) 0.4849(3)
H45 H 0.704502 0.589927 0.449675
C49 C 0.6493(6) 0.5281(5) 0.5270(3)
H46_2 H 0.671556 0.463226 0.519645
C50 C 0.5973(5) 0.5509(5) 0.5801(3)
C51 C 0.5617(6) 0.6457(5) 0.5913(3)
H47 H 0.525715 0.659103 0.626935
C52 C 0.5796(6) 0.7211(5) 0.5490(3)
H48 H 0.557292 0.785775 0.556746
N11_2 N 0.5745(5) 0.4722(4) 0.6231(2)
C53_2 C 0.6395(6) 0.3966(5) 0.6432(3)
H49_2 H 0.708766 0.384017 0.629299
C54 C 0.4942(6) 0.3817(5) 0.6926(3)
H50 H 0.443838 0.357847 0.719150
C55 C 0.4790(6) 0.4645(6) 0.6543(3)
H51 H 0.417253 0.507010 0.649950
C56 C 0.5609(5) 0.8504(5) 0.4359(3)
C57_2 C 0.4469(6) 0.8293(5) 0.4366(3)
H52_2 H 0.425853 0.765737 0.447797
C58_2 C 0.3633(6) 0.9011(5) 0.4208(3)
H53_2 H 0.287827 0.887077 0.422752
C59_2 C 0.3980(6) 0.9952(5) 0.4020(3)
C61 C 0.5887(6) 0.9459(5) 0.4192(3)
H55 H 0.664373 0.961704 0.419689
C20_2 C 0.9469(6) 0.6707(5) 0.9366(3)
H15_2 H 0.925853 0.734263 0.947797
C21_2 C 0.8633(6) 0.5989(5) 0.9208(3)
H16_2 H 0.787827 0.612923 0.922752
C22_2 C 0.8980(6) 0.5048(5) 0.9020(3)
N6_2 N 0.8102(5) 0.4343(4) 0.8815(2)
C25_2 C 0.8106(6) 0.3738(5) 0.8310(3)
H19_2 H 0.867703 0.371389 0.804999
C26_2 C 0.6581(6) 0.3437(5) 0.8726(3)
H20_2 H 0.589662 0.316105 0.879883
C27_2 C 0.7141(6) 0.4148(6) 0.9085(3)
H21_2 H 0.692011 0.444988 0.944609
H23 H 0.484554 0.955725 0.780232
H25 H 0.362384 0.958328 0.853700
H27_2 H 0.547836 0.957780 0.901715
H29 H 0.412164 0.943045 0.970980
C60 C 0.5093(6) 0.0193(5) 0.4018(3)
H54 H 0.530702 0.082637 0.390361
N13_2 N 0.3102(5) 0.0657(4) 0.3815(2)
C62_2 C 0.3106(6) 0.1262(5) 0.3310(3)
H56_2 H 0.367703 0.128611 0.304999
N14 N 0.2184(5) 0.1822(4) 0.3230(2)
C63_2 C 0.1581(6) 0.1563(5) 0.3726(3)
H57_2 H 0.089662 0.183895 0.379883
C64_2 C 0.2141(6) 0.0852(6) 0.4085(3)
H58_2 H 0.192011 0.055012 0.444609
Zn6 Zn 0.16855(7) 0.26512(6) 0.24451(3)
O2_2 O 0.0128(8) 0.6925(7) 0.7178(4)
C29_2 C 0.0532(7) 0.5180(7) 0.7131(3)
H22_2 H 0.119738 0.521423 0.744502
H23_2 H 0.015446 0.455725 0.719768
C30_2 C 0.0896(8) 0.5160(7) 0.6486(4)
H24_2 H 0.135637 0.574430 0.644420
H25_2 H 0.137616 0.458328 0.646300
C31_2 C 0.0021(8) 0.5130(7) 0.5927(3)
C32_2 C 0.0420(8) 0.5027(8) 0.5282(3)
H28_2 H 0.090925 0.558675 0.522603
H29_2 H 0.087836 0.443045 0.529020
O3_2 O 0.1149(7) 0.4122(8) 0.2607(3)
C33_2 C 0.0265(10) 0.3950(9) 0.2742(4)
H34_2 H 0.041986 0.426448 0.407421
H35_2 H 0.047836 0.542220 0.401715
N8_2 N 0.3135(5) 0.3103(4) 0.2138(2)
N9_2 N 0.8563(5) 0.2758(4) 0.0508(2)
C38_2 C 0.7587(6) 0.2792(4) 0.0826(3)
C39_2 C 0.7695(6) 0.3018(6) 0.1472(3)
H38_2 H 0.840605 0.309410 0.170116
C40_2 C 0.6754(6) 0.3130(6) 0.1776(3)
H39_2 H 0.682547 0.326305 0.221282
C41_2 C 0.5717(7) 0.3046(5) 0.1434(3)
N10_2 N 0.4724(5) 0.3258(4) 0.1742(2)
C42_2 C 0.5600(6) 0.2777(5) 0.0802(3)
H40_2 H 0.488690 0.267369 0.058141
C43_2 C 0.6547(6) 0.2659(5) 0.0489(3)
H41_2 H 0.647246 0.249306 0.005723
C44_2 C 0.3852(6) 0.2665(6) 0.1818(3)
H42_2 H 0.376972 0.201844 0.166067
C45_2 C 0.3560(7) 0.4017(6) 0.2267(3)
H43_2 H 0.322787 0.449938 0.249773
C46_2 C 0.4510(7) 0.4139(6) 0.2022(4)
H44_2 H 0.494664 0.471278 0.203687
C47_2 C 0.8683(6) 0.1999(5) 0.0056(3)
C48_2 C 0.8325(6) 0.1039(5) 0.0151(3)
H45_2 H 0.795498 0.089927 0.050325
C56_2 C 0.9391(5) 0.3504(5) 0.0641(3)
C60_2 C 0.9907(6) 0.5193(5) 0.0982(3)
H54_2 H 0.969298 0.582637 0.109639
C61_2 C 0.9113(6) 0.4459(5) 0.0808(3)
H55_2 H 0.835627 0.461704 0.080311
N15 N 0.0956(5) 0.1595(4) 0.1853(2)
H9_2 H 0.171556 0.036774 0.019645
N4_2 N 0.0745(5) 0.0278(4) 0.1231(2)
C16_2 C 0.1395(6) 0.1034(5) 0.1432(3)
H12_2 H 0.208766 0.115983 0.129299
H51_2 H 0.082747 0.007010 0.850050
C54_2 C 0.0058(6) 0.8817(5) 0.8074(3)
H50_2 H 0.056162 0.857847 0.780850
C55_2 C 0.0210(6) 0.9645(6) 0.8457(3)
C49_2 C 0.8507(6) 0.0281(5) 0.9730(3)
C50_2 C 0.9027(5) 0.0509(5) 0.9199(3)
C51_2 C 0.9383(6) 0.1457(5) 0.9087(3)
H47_2 H 0.974285 0.159103 0.873065
C52_2 C 0.9204(6) 0.2211(5) 0.9510(3)
H48_2 H 0.942708 0.285775 0.943254
C12_2 C 0.1493(6) 0.9719(5) 0.0270(3)
C13_2 C 0.0973(5) 0.9491(5) 0.0801(3)
C14_2 C 0.0617(6) 0.8543(5) 0.0913(3)
H10_2 H 0.025715 0.840897 0.126935
C15_2 C 0.0796(6) 0.7789(5) 0.0490(3)
H11_2 H 0.057292 0.714225 0.056746
C17_2 C 0.9942(6) 0.1183(5) 0.1926(3)
H13_2 H 0.943838 0.142153 0.219150
C18_2 C 0.9790(6) 0.0355(6) 0.1543(3)
H14_2 H 0.917253 0.992990 0.149950
loop_
_geom_bond_atom_site_label_1
_geom_bond_atom_site_label_2
_geom_bond_site_symmetry_1
_geom_bond_site_symmetry_2
N2 C1 1_555 1_555
C1 C2 1_555 1_555
C2 H1 1_555 1_555
C3 C2 1_555 1_555
H2 C3 1_555 1_555
C4 C3 1_555 1_555
C5 C4 1_555 1_555
C6 C1 1_555 1_555
H4 C6 1_555 1_555
C10 N2 1_555 1_555
C11 C10 1_555 1_555
H8 C11 1_555 1_555
C12 C11 1_555 1_555
H9 C12 1_555 1_555
C13 C12 1_555 1_555
C14 C13 1_555 1_555
H10 C14 1_555 1_555
C15 C10 1_555 1_555
H11 C15 1_555 1_555
N4 C13 1_555 1_555
C16 N4 1_555 1_555
H12 C16 1_555 1_555
N5 C16 1_555 1_555
C17 N5 1_555 1_555
H13 C17 1_555 1_555
C18 N4 1_555 1_555
H14 C18 1_555 1_555
C19 N2 1_555 1_555
C20 C19 1_555 1_555
H15 C20 1_555 1_555
C21 C20 1_555 1_555
H16 C21 1_555 1_555
C22 C21 1_555 1_555
C24 C19 1_555 1_555
H18 C24 1_555 1_555
Zn5 N5 1_555 1_555
C5 C6 1_555 1_555
C14 C15 1_555 1_555
C17 C18 1_555 1_555
O3 C33 1_555 1_555
O4 C33 1_555 1_555
C33 C34 1_555 1_555
C34 H30 1_555 1_555
C35 C34 1_555 1_555
H32 C35 1_555 1_555
C36 C35 1_555 1_555
H34 C36 1_555 1_555
H36 C37 1_555 1_555
Zn5 O3 1_555 1_555
N8 Zn5 1_555 1_555
C44 N8 1_555 1_555
H42 C44 1_555 1_555
C45 N8 1_555 1_555
H43 C45 1_555 1_555
C46 N10 1_555 1_555
H44 C46 1_555 1_555
N18 Zn5 1_555 1_555
O4 Zn5 1_555 1_555
C36 C37 1_555 1_555
N10 C44 1_555 1_555
C45 C46 1_555 1_555
H52 C57 1_555 1_555
C58 C57 1_555 1_555
H53 C58 1_555 1_555
C59 C58 1_555 1_555
N13 C59 1_555 1_555
C62 N13 1_555 1_555
H56 C62 1_555 1_555
N18 C62 1_555 1_555
C63 N18 1_555 1_555
H57 C63 1_555 1_555
C64 N13 1_555 1_555
H58 C64 1_555 1_555
C63 C64 1_555 1_555
H17 C23 1_555 1_555
C25 N6 1_555 1_555
H19 C25 1_555 1_555
N7 C25 1_555 1_555
C26 N7 1_555 1_555
H20 C26 1_555 1_555
C27 N6 1_555 1_555
H21 C27 1_555 1_555
Zn4 N7 1_555 1_555
C26 C27 1_555 1_555
C53 N11 1_555 1_555
H49 C53 1_555 1_555
N12 C53 1_555 1_555
Zn4 N12 1_555 1_555
Zn4 O1 1_555 1_555
O1 C28 1_555 1_555
N1 Zn4 1_555 1_555
N2_2 C1_2 1_555 1_555
C1_2 C2_2 1_555 1_555
C2_2 H1_2 1_555 1_555
C3_2 C2_2 1_555 1_555
H2_2 C3_2 1_555 1_555
C4_2 C3_2 1_555 1_555
N3 C4_2 1_555 1_555
C5_2 C4_2 1_555 1_555
H3 C5_2 1_555 1_555
C6_2 C1_2 1_555 1_555
H4_2 C6_2 1_555 1_555
C7 N1 1_555 1_555
H5 C7 1_555 1_555
C8 N1 1_555 1_555
H6 C8 1_555 1_555
C9 N3 1_555 1_555
H7 C9 1_555 1_555
C10_2 N2_2 1_555 1_555
C11_2 C10_2 1_555 1_555
H8_2 C11_2 1_555 1_555
C19_2 N2_2 1_555 1_555
H17_2 C23_2 1_555 1_555
C24_2 C19_2 1_555 1_555
H18_2 C24_2 1_555 1_555
C34_2 H30_2 1_555 1_555
H31 C34_2 1_555 1_555
C35_2 C34_2 1_555 1_555
H32_2 C35_2 1_555 1_555
H33 C35_2 1_555 1_555
C36_2 C35_2 1_555 1_555
H36_2 C37_2 1_555 1_555
H37 C37_2 1_555 1_555
N3 C7 1_555 1_555
C5_2 C6_2 1_555 1_555
C8 C9 1_555 1_555
C23_2 C24_2 1_555 1_555
C36_2 C37_2 1_555 1_555
Zn1 O1_2 1_555 1_555
O1_2 C28_2 1_555 1_555
O2 Zn1 1_555 1_555
N1_2 Zn1 1_555 1_555
C7_2 N1_2 1_555 1_555
H5_2 C7_2 1_555 1_555
C8_2 N1_2 1_555 1_555
H6_2 C8_2 1_555 1_555
C9_2 N3_2 1_555 1_555
H7_2 C9_2 1_555 1_555
C28_2 O2 1_555 1_555
C29 C28_2 1_555 1_555
H22 C29 1_555 1_555
C30 C29 1_555 1_555
H24 C30 1_555 1_555
C31 C30 1_555 1_555
H26_2 C31 1_555 1_555
C32 C31 1_555 1_555
H28 C32 1_555 1_555
N16 Zn1 1_555 1_555
N17 Zn1 1_555 1_555
N3_2 C7_2 1_555 1_555
C8_2 C9_2 1_555 1_555
N9 C38 1_555 1_555
C38 C39 1_555 1_555
C39 H38 1_555 1_555
C40 C39 1_555 1_555
H39 C40 1_555 1_555
C41 C40 1_555 1_555
C42 C41 1_555 1_555
C43 C38 1_555 1_555
H41 C43 1_555 1_555
C47 N9 1_555 1_555
C48 C47 1_555 1_555
H45 C48 1_555 1_555
C49 C48 1_555 1_555
H46_2 C49 1_555 1_555
C50 C49 1_555 1_555
C51 C50 1_555 1_555
H47 C51 1_555 1_555
C52 C47 1_555 1_555
H48 C52 1_555 1_555
N11_2 C50 1_555 1_555
C53_2 N11_2 1_555 1_555
H49_2 C53_2 1_555 1_555
N16 C53_2 1_555 1_555
C54 N16 1_555 1_555
H50 C54 1_555 1_555
C55 N11_2 1_555 1_555
H51 C55 1_555 1_555
C56 N9 1_555 1_555
C57_2 C56 1_555 1_555
H52_2 C57_2 1_555 1_555
C58_2 C57_2 1_555 1_555
H53_2 C58_2 1_555 1_555
C59_2 C58_2 1_555 1_555
C61 C56 1_555 1_555
H55 C61 1_555 1_555
C42 C43 1_555 1_555
C51 C52 1_555 1_555
C54 C55 1_555 1_555
H15_2 C20_2 1_555 1_555
C21_2 C20_2 1_555 1_555
H16_2 C21_2 1_555 1_555
C22_2 C21_2 1_555 1_555
N6_2 C22_2 1_555 1_555
C25_2 N6_2 1_555 1_555
H19_2 C25_2 1_555 1_555
N17 C25_2 1_555 1_555
C26_2 N17 1_555 1_555
H20_2 C26_2 1_555 1_555
C27_2 N6_2 1_555 1_555
H21_2 C27_2 1_555 1_555
C26_2 C27_2 1_555 1_555
H54 C60 1_555 1_555
C62_2 N13_2 1_555 1_555
H56_2 C62_2 1_555 1_555
N14 C62_2 1_555 1_555
C63_2 N14 1_555 1_555
H57_2 C63_2 1_555 1_555
C64_2 N13_2 1_555 1_555
H58_2 C64_2 1_555 1_555
Zn6 N14 1_555 1_555
C63_2 C64_2 1_555 1_555
H22_2 C29_2 1_555 1_555
H23_2 C29_2 1_555 1_555
C30_2 C29_2 1_555 1_555
H24_2 C30_2 1_555 1_555
H25_2 C30_2 1_555 1_555
C31_2 C30_2 1_555 1_555
C32_2 C31_2 1_555 1_555
H28_2 C32_2 1_555 1_555
H29_2 C32_2 1_555 1_555
O3_2 C33_2 1_555 1_555
Zn6 O3_2 1_555 1_555
N8_2 Zn6 1_555 1_555
N9_2 C38_2 1_555 1_555
C38_2 C39_2 1_555 1_555
C39_2 H38_2 1_555 1_555
C40_2 C39_2 1_555 1_555
H39_2 C40_2 1_555 1_555
C41_2 C40_2 1_555 1_555
N10_2 C41_2 1_555 1_555
C42_2 C41_2 1_555 1_555
H40_2 C42_2 1_555 1_555
C43_2 C38_2 1_555 1_555
H41_2 C43_2 1_555 1_555
C44_2 N8_2 1_555 1_555
H42_2 C44_2 1_555 1_555
C45_2 N8_2 1_555 1_555
H43_2 C45_2 1_555 1_555
C46_2 N10_2 1_555 1_555
H44_2 C46_2 1_555 1_555
C47_2 N9_2 1_555 1_555
C48_2 C47_2 1_555 1_555
H45_2 C48_2 1_555 1_555
C56_2 N9_2 1_555 1_555
H54_2 C60_2 1_555 1_555
C61_2 C56_2 1_555 1_555
H55_2 C61_2 1_555 1_555
N15 Zn6 1_555 1_555
N10_2 C44_2 1_555 1_555
C42_2 C43_2 1_555 1_555
C45_2 C46_2 1_555 1_555
C60_2 C61_2 1_555 1_555
C16_2 N4_2 1_555 1_555
H12_2 C16_2 1_555 1_555
N15 C16_2 1_555 1_555
H50_2 C54_2 1_555 1_555
C54_2 C55_2 1_555 1_555
C50_2 C49_2 1_555 1_555
C51_2 C50_2 1_555 1_555
H47_2 C51_2 1_555 1_555
H48_2 C52_2 1_555 1_555
C51_2 C52_2 1_555 1_555
C13_2 C12_2 1_555 1_555
C14_2 C13_2 1_555 1_555
H10_2 C14_2 1_555 1_555
H11_2 C15_2 1_555 1_555
C14_2 C15_2 1_555 1_555
H13_2 C17_2 1_555 1_555
C17_2 C18_2 1_555 1_555

#END
