
###############################################################################
#
# This file contains modified crystal structure data generated from the
# MOF subset of the Cambridge Structural Database (CSD) v543 
# hosted by the Cambridge Crystallographic Data Centre (CCDC).
#
# This work is licensed under the Creative Commons
# Attribution-NonCommercial-ShareAlike 4.0 International License.
# To view a copy of this license, visit
# http://creativecommons.org/licenses/by-nc-sa/4.0/
# or send a letter to
# Creative Commons, PO Box 1866, Mountain View, CA 94042, USA.
#
# CIF created using the CSD Python API on 29 September 2022
# The structure has been converted into the P1 space group
# The structure has a 3D framework
# The original CSD entry VUDPIW is in the tetragonal crystal system
# The framework has been calculated to contain at least 10.0% void space
# The void calculation uses a probe of radius 1.32A, grid spacing 0.4
#
###############################################################################

data_VUDPIW
_chemical_formula_moiety         '(C34 H8 N6 O16 Zn4)n'
_symmetry_cell_setting           triclinic
_symmetry_space_group_name_H-M   'P 1'
_symmetry_Int_Tables_number      1
_space_group_name_Hall           'P 1'
loop_
_symmetry_equiv_pos_site_id
_symmetry_equiv_pos_as_xyz
1 x,y,z
_cell_length_a                   7.224(2)
_cell_length_b                   7.224(2)
_cell_length_c                   20.201(8)
_cell_angle_alpha                90
_cell_angle_beta                 90
_cell_angle_gamma                90
_cell_volume                     1054.21
loop_
_atom_site_label
_atom_site_type_symbol
_atom_site_fract_x
_atom_site_fract_y
_atom_site_fract_z
Zn1 Zn 0.5000 0.5000 0.72210(5)
N1 N 0.0000 0.0000 0.6767(4)
O1 O 0.3484(6) 0.3484(6) 0.6612(2)
O2 O 0.2148(6) 0.2148(6) 0.7504(2)
C1 C 0.2354(9) 0.2354(9) 0.6897(3)
C2 C 0.1142(8) 0.1142(8) 0.6438(3)
C3 C 0.1204(8) 0.1204(8) 0.5742(4)
H1 H 0.2010 0.2010 0.5528
C4 C 0.0000 0.0000 0.5360(5)
N2 N -0.0000 0.0000 0.3233(4)
O5 O 0.3484(6) 0.3484(6) 0.3388(2)
O6 O 0.2148(6) 0.2148(6) 0.2496(2)
C8 C 0.2354(9) 0.2354(9) 0.3103(3)
C9 C 0.1142(8) 0.1142(8) 0.3562(3)
C10 C 0.1204(8) 0.1204(8) 0.4258(4)
H3 H 0.2010 0.2010 0.4472
C11 C 0.0000 0.0000 0.4640(5)
Zn2 Zn 0.5000 0.5000 0.27790(5)
Zn4 Zn 0.0000 0.0000 0.22210(5)
Zn5 Zn 0.0000 0.0000 0.77790(5)
N3 N 0.5000 0.5000 0.1767(4)
N4 N 0.5000 0.5000 0.8233(4)
O9 O 0.6516(6) 0.6516(6) 0.6612(2)
O10 O 0.6516(6) 0.6516(6) 0.3388(2)
O11 O 0.2852(6) 0.7148(6) 0.2504(2)
O12 O 0.7148(6) 0.2852(6) 0.2504(2)
O13 O 0.2852(6) 0.7148(6) 0.7496(2)
O14 O 0.7148(6) 0.2852(6) 0.7496(2)
N1_2 N -0.0000 1.0000 0.6767(4)
C4_2 C -0.0000 1.0000 0.5360(5)
N2_2 N 0.0000 1.0000 0.3233(4)
C11_2 C -0.0000 1.0000 0.4640(5)
Zn4_2 Zn 0.0000 1.0000 0.22210(5)
Zn5_2 Zn -0.0000 1.0000 0.77790(5)
N1_3 N 1.0000 0.0000 0.6767(4)
C4_3 C 1.0000 0.0000 0.5360(5)
N2_3 N 1.0000 0.0000 0.3233(4)
C11_3 C 1.0000 0.0000 0.4640(5)
Zn4_3 Zn 1.0000 0.0000 0.22210(5)
Zn5_3 Zn 1.0000 0.0000 0.77790(5)
N1_4 N 1.0000 1.0000 0.6767(4)
C4_4 C 1.0000 1.0000 0.5360(5)
O4 O 0.7852(6) 0.7852(6) 0.7504(2)
C5 C 0.7646(9) 0.7646(9) 0.6897(3)
C6 C 0.8858(8) 0.8858(8) 0.6438(3)
C7 C 0.8796(8) 0.8796(8) 0.5742(4)
H2 H 0.7990 0.7990 0.5528
N2_4 N 1.0000 1.0000 0.3233(4)
C11_4 C 1.0000 1.0000 0.4640(5)
O8 O 0.7852(6) 0.7852(6) 0.2496(2)
C12 C 0.7646(9) 0.7646(9) 0.3103(3)
C13 C 0.8858(8) 0.8858(8) 0.3562(3)
C14 C 0.8796(8) 0.8796(8) 0.4258(4)
H4 H 0.7990 0.7990 0.4472
Zn4_4 Zn 1.0000 1.0000 0.22210(5)
Zn5_4 Zn 1.0000 1.0000 0.77790(5)
O1_2 O 0.1516(6) 0.8484(6) 0.1612(2)
C1_2 C 0.2646(9) 0.7354(9) 0.1897(3)
C2_2 C 0.3858(8) 0.6142(8) 0.1438(3)
C3_2 C 0.3796(8) 0.6204(8) 0.0742(4)
H1_2 H 0.2990 0.7010 0.0528
C4_5 C 0.5000 0.5000 0.0360(5)
O3 O 0.8484(6) 0.1516(6) 0.1612(2)
C5_2 C 0.7354(9) 0.2646(9) 0.1897(3)
C6_2 C 0.6142(8) 0.3858(8) 0.1438(3)
C7_2 C 0.6204(8) 0.3796(8) 0.0742(4)
H2_2 H 0.7010 0.2990 0.0528
O5_2 O 0.1516(6) 0.8484(6) 0.8388(2)
C8_2 C 0.2646(9) 0.7354(9) 0.8103(3)
C9_2 C 0.3858(8) 0.6142(8) 0.8562(3)
C10_2 C 0.3796(8) 0.6204(8) 0.9258(4)
H3_2 H 0.2990 0.7010 0.9472
C11_5 C 0.5000 0.5000 0.9640(5)
O7 O 0.8484(6) 0.1516(6) 0.8388(2)
C12_2 C 0.7354(9) 0.2646(9) 0.8103(3)
C13_2 C 0.6142(8) 0.3858(8) 0.8562(3)
C14_2 C 0.6204(8) 0.3796(8) 0.9258(4)
H4_2 H 0.7010 0.2990 0.9472
loop_
_geom_bond_atom_site_label_1
_geom_bond_atom_site_label_2
_geom_bond_site_symmetry_1
_geom_bond_site_symmetry_2
Zn1 O1 1_555 1_555
N1 C2 1_555 1_555
O1 C1 1_555 1_555
O2 C1 1_555 1_555
C1 C2 1_555 1_555
C2 C3 1_555 1_555
C3 H1 1_555 1_555
C4 C3 1_555 1_555
N2 C9 1_555 1_555
O5 C8 1_555 1_555
O6 C8 1_555 1_555
C8 C9 1_555 1_555
C9 C10 1_555 1_555
C10 H3 1_555 1_555
C11 C4 1_555 1_555
Zn2 O5 1_555 1_555
Zn4 N2 1_555 1_555
Zn5 N1 1_555 1_555
N3 Zn2 1_555 1_555
N4 Zn1 1_555 1_555
O9 Zn1 1_555 1_555
O10 Zn2 1_555 1_555
O11 Zn2 1_555 1_555
O12 Zn2 1_555 1_555
O13 Zn1 1_555 1_555
O14 Zn1 1_555 1_555
O2 Zn5 1_555 1_555
O6 Zn4 1_555 1_555
C10 C11 1_555 1_555
C11_2 C4_2 1_555 1_555
Zn4_2 N2_2 1_555 1_555
Zn5_2 N1_2 1_555 1_555
C11_3 C4_3 1_555 1_555
Zn4_3 N2_3 1_555 1_555
Zn5_3 N1_3 1_555 1_555
O9 C5 1_555 1_555
O4 C5 1_555 1_555
C5 C6 1_555 1_555
C6 N1_4 1_555 1_555
C7 C4_4 1_555 1_555
H2 C7 1_555 1_555
C11_4 C4_4 1_555 1_555
O10 C12 1_555 1_555
O8 C12 1_555 1_555
C12 C13 1_555 1_555
C13 N2_4 1_555 1_555
C14 C11_4 1_555 1_555
H4 C14 1_555 1_555
Zn4_4 N2_4 1_555 1_555
Zn5_4 N1_4 1_555 1_555
O4 Zn5_4 1_555 1_555
C6 C7 1_555 1_555
O8 Zn4_4 1_555 1_555
C13 C14 1_555 1_555
Zn4_2 O1_2 1_555 1_555
N3 C2_2 1_555 1_555
O1_2 C1_2 1_555 1_555
O11 C1_2 1_555 1_555
C1_2 C2_2 1_555 1_555
C2_2 C3_2 1_555 1_555
C3_2 H1_2 1_555 1_555
C4_5 C3_2 1_555 1_555
O3 C5_2 1_555 1_555
O12 C5_2 1_555 1_555
C5_2 C6_2 1_555 1_555
C6_2 N3 1_555 1_555
C7_2 C4_5 1_555 1_555
H2_2 C7_2 1_555 1_555
Zn4_3 O3 1_555 1_555
C6_2 C7_2 1_555 1_555
N4 C9_2 1_555 1_555
O5_2 C8_2 1_555 1_555
O13 C8_2 1_555 1_555
C8_2 C9_2 1_555 1_555
C9_2 C10_2 1_555 1_555
C10_2 H3_2 1_555 1_555
O7 C12_2 1_555 1_555
O14 C12_2 1_555 1_555
C12_2 C13_2 1_555 1_555
C13_2 N4 1_555 1_555
C14_2 C11_5 1_555 1_555
H4_2 C14_2 1_555 1_555
Zn5_2 O5_2 1_555 1_555
Zn5_3 O7 1_555 1_555
C10_2 C11_5 1_555 1_555
C13_2 C14_2 1_555 1_555

#END
