
###############################################################################
#
# This file contains modified crystal structure data generated from the
# MOF subset of the Cambridge Structural Database (CSD) v543 
# hosted by the Cambridge Crystallographic Data Centre (CCDC).
#
# This work is licensed under the Creative Commons
# Attribution-NonCommercial-ShareAlike 4.0 International License.
# To view a copy of this license, visit
# http://creativecommons.org/licenses/by-nc-sa/4.0/
# or send a letter to
# Creative Commons, PO Box 1866, Mountain View, CA 94042, USA.
#
# CIF created using the CSD Python API on 29 September 2022
# The structure has been converted into the P1 space group
# The structure has a 3D framework
# The original CSD entry VUDQOD is in the tetragonal crystal system
# The framework has been calculated to contain at least 10.0% void space
# The void calculation uses a probe of radius 1.32A, grid spacing 0.4
#
###############################################################################

data_VUDQOD
_chemical_formula_moiety         '(C34 H8 N6 O16 Zn4)n'
_symmetry_cell_setting           triclinic
_symmetry_space_group_name_H-M   'P 1'
_symmetry_Int_Tables_number      1
_space_group_name_Hall           'P 1'
loop_
_symmetry_equiv_pos_site_id
_symmetry_equiv_pos_as_xyz
1 x,y,z
_cell_length_a                   7.159(2)
_cell_length_b                   7.159(2)
_cell_length_c                   20.180(9)
_cell_angle_alpha                90
_cell_angle_beta                 90
_cell_angle_gamma                90
_cell_volume                     1034.25
loop_
_atom_site_label
_atom_site_type_symbol
_atom_site_fract_x
_atom_site_fract_y
_atom_site_fract_z
N1 N -0.0000 -0.0000 0.3235(4)
C3 C -0.0000 -0.0000 0.4638(4)
O3 O 0.2145(5) 0.2145(5) 0.24959(19)
O4 O 0.3481(6) 0.3481(6) 0.3392(2)
C5 C 0.2375(9) 0.2375(9) 0.3114(3)
C6 C 0.1149(8) 0.1149(8) 0.3560(3)
C7 C 0.1187(8) 0.1187(8) 0.4266(3)
H2 H 0.1996 0.1996 0.4484
N2 N -0.0000 -0.0000 0.6765(4)
C10 C -0.0000 -0.0000 0.5362(4)
O7 O 0.2145(5) 0.2145(5) 0.75041(19)
O8 O 0.3481(6) 0.3481(6) 0.6608(2)
C12 C 0.2375(9) 0.2375(9) 0.6886(3)
C13 C 0.1149(8) 0.1149(8) 0.6440(3)
C14 C 0.1187(8) 0.1187(8) 0.5734(3)
H4 H 0.1996 0.1996 0.5516
Zn3 Zn 0.5000 0.5000 0.27816(5)
Zn4 Zn -0.0000 -0.0000 0.77816(5)
Zn5 Zn -0.0000 -0.0000 0.22184(5)
Zn6 Zn 0.5000 0.5000 0.72184(5)
N1_2 N -0.0000 1.0000 0.3235(4)
C3_2 C -0.0000 1.0000 0.4638(4)
N2_2 N -0.0000 1.0000 0.6765(4)
C10_2 C -0.0000 1.0000 0.5362(4)
Zn4_2 Zn -0.0000 1.0000 0.77816(5)
Zn5_2 Zn -0.0000 1.0000 0.22184(5)
N1_3 N 1.0000 -0.0000 0.3235(4)
C3_3 C 1.0000 -0.0000 0.4638(4)
N2_3 N 1.0000 -0.0000 0.6765(4)
C10_3 C 1.0000 -0.0000 0.5362(4)
Zn4_3 Zn 1.0000 -0.0000 0.77816(5)
Zn5_3 Zn 1.0000 -0.0000 0.22184(5)
O1 O 0.7855(5) 0.7855(5) 0.24959(19)
O2 O 0.6519(6) 0.6519(6) 0.3392(2)
N1_4 N 1.0000 1.0000 0.3235(4)
C1 C 0.7625(9) 0.7625(9) 0.3114(3)
C2 C 0.8851(8) 0.8851(8) 0.3560(3)
C3_4 C 1.0000 1.0000 0.4638(4)
C4 C 0.8813(8) 0.8813(8) 0.4266(3)
H1 H 0.8004 0.8004 0.4484
O5 O 0.7855(5) 0.7855(5) 0.75041(19)
O6 O 0.6519(6) 0.6519(6) 0.6608(2)
N2_4 N 1.0000 1.0000 0.6765(4)
C8 C 0.7625(9) 0.7625(9) 0.6886(3)
C9 C 0.8851(8) 0.8851(8) 0.6440(3)
C10_4 C 1.0000 1.0000 0.5362(4)
C11 C 0.8813(8) 0.8813(8) 0.5734(3)
H3 H 0.8004 0.8004 0.5516
Zn4_4 Zn 1.0000 1.0000 0.77816(5)
Zn5_4 Zn 1.0000 1.0000 0.22184(5)
O9 O 0.7145(5) 0.2855(5) 0.74959(19)
O10 O 0.2855(5) 0.7145(5) 0.74959(19)
O11 O 0.7145(5) 0.2855(5) 0.25041(19)
O12 O 0.2855(5) 0.7145(5) 0.25041(19)
N3 N 0.5000 0.5000 0.8235(4)
N4 N 0.5000 0.5000 0.1765(4)
O14 O 0.1519(6) 0.8481(6) 0.1608(2)
O13 O 0.1519(6) 0.8481(6) 0.8392(2)
O6_2 O 0.8481(6) 0.1519(6) 0.1608(2)
C8_2 C 0.7375(9) 0.2625(9) 0.1886(3)
C9_2 C 0.6149(8) 0.3851(8) 0.1440(3)
C10_5 C 0.5000 0.5000 0.0362(4)
C11_2 C 0.6187(8) 0.3813(8) 0.0734(3)
H3_2 H 0.6996 0.3004 0.0516
C12_2 C 0.2625(9) 0.7375(9) 0.1886(3)
C13_2 C 0.3851(8) 0.6149(8) 0.1440(3)
C14_2 C 0.3813(8) 0.6187(8) 0.0734(3)
H4_2 H 0.3004 0.6996 0.0516
O2_2 O 0.8481(6) 0.1519(6) 0.8392(2)
C1_2 C 0.7375(9) 0.2625(9) 0.8114(3)
C2_2 C 0.6149(8) 0.3851(8) 0.8560(3)
C3_5 C 0.5000 0.5000 0.9638(4)
C4_2 C 0.6187(8) 0.3813(8) 0.9266(3)
H1_2 H 0.6996 0.3004 0.9484
C5_2 C 0.2625(9) 0.7375(9) 0.8114(3)
C6_2 C 0.3851(8) 0.6149(8) 0.8560(3)
C7_2 C 0.3813(8) 0.6187(8) 0.9266(3)
H2_2 H 0.3004 0.6996 0.9484
loop_
_geom_bond_atom_site_label_1
_geom_bond_atom_site_label_2
_geom_bond_site_symmetry_1
_geom_bond_site_symmetry_2
O3 C5 1_555 1_555
O4 C5 1_555 1_555
C5 C6 1_555 1_555
C6 N1 1_555 1_555
C7 C3 1_555 1_555
H2 C7 1_555 1_555
C10 C3 1_555 1_555
O7 C12 1_555 1_555
O8 C12 1_555 1_555
C12 C13 1_555 1_555
C13 N2 1_555 1_555
C14 C10 1_555 1_555
H4 C14 1_555 1_555
Zn3 O4 1_555 1_555
Zn6 O8 1_555 1_555
N1 Zn5 1_555 1_555
O3 Zn5 1_555 1_555
C6 C7 1_555 1_555
N2 Zn4 1_555 1_555
O7 Zn4 1_555 1_555
C13 C14 1_555 1_555
C10_2 C3_2 1_555 1_555
N1_2 Zn5_2 1_555 1_555
N2_2 Zn4_2 1_555 1_555
C10_3 C3_3 1_555 1_555
N1_3 Zn5_3 1_555 1_555
N2_3 Zn4_3 1_555 1_555
Zn3 O2 1_555 1_555
O1 C1 1_555 1_555
O2 C1 1_555 1_555
N1_4 C2 1_555 1_555
C1 C2 1_555 1_555
C2 C4 1_555 1_555
C3_4 C4 1_555 1_555
C4 H1 1_555 1_555
O5 C8 1_555 1_555
O6 C8 1_555 1_555
N2_4 C9 1_555 1_555
C8 C9 1_555 1_555
C9 C11 1_555 1_555
C10_4 C3_4 1_555 1_555
C11 C10_4 1_555 1_555
H3 C11 1_555 1_555
Zn6 O6 1_555 1_555
Zn4_4 O5 1_555 1_555
Zn5_4 O1 1_555 1_555
O9 Zn6 1_555 1_555
O10 Zn6 1_555 1_555
O11 Zn3 1_555 1_555
O12 Zn3 1_555 1_555
N3 Zn6 1_555 1_555
N4 Zn3 1_555 1_555
N1_4 Zn5_4 1_555 1_555
N2_4 Zn4_4 1_555 1_555
O14 Zn5_2 1_555 1_555
O13 Zn4_2 1_555 1_555
O11 C8_2 1_555 1_555
O6_2 C8_2 1_555 1_555
N4 C9_2 1_555 1_555
C8_2 C9_2 1_555 1_555
C9_2 C11_2 1_555 1_555
C11_2 C10_5 1_555 1_555
H3_2 C11_2 1_555 1_555
O12 C12_2 1_555 1_555
O14 C12_2 1_555 1_555
C12_2 C13_2 1_555 1_555
C13_2 N4 1_555 1_555
C14_2 C10_5 1_555 1_555
H4_2 C14_2 1_555 1_555
Zn5_3 O6_2 1_555 1_555
C13_2 C14_2 1_555 1_555
Zn4_3 O2_2 1_555 1_555
O9 C1_2 1_555 1_555
O2_2 C1_2 1_555 1_555
N3 C2_2 1_555 1_555
C1_2 C2_2 1_555 1_555
C2_2 C4_2 1_555 1_555
C3_5 C4_2 1_555 1_555
C4_2 H1_2 1_555 1_555
O10 C5_2 1_555 1_555
O13 C5_2 1_555 1_555
C5_2 C6_2 1_555 1_555
C6_2 N3 1_555 1_555
C7_2 C3_5 1_555 1_555
H2_2 C7_2 1_555 1_555
C6_2 C7_2 1_555 1_555

#END
