
###############################################################################
#
# This file contains modified crystal structure data generated from the
# MOF subset of the Cambridge Structural Database (CSD) v543 
# hosted by the Cambridge Crystallographic Data Centre (CCDC).
#
# This work is licensed under the Creative Commons
# Attribution-NonCommercial-ShareAlike 4.0 International License.
# To view a copy of this license, visit
# http://creativecommons.org/licenses/by-nc-sa/4.0/
# or send a letter to
# Creative Commons, PO Box 1866, Mountain View, CA 94042, USA.
#
# CIF created using the CSD Python API on 29 September 2022
# The structure has been converted into the P1 space group
# The structure has a 3D framework
# The original CSD entry VUDWUP is in the tetragonal crystal system
# The framework has been calculated to contain at least 10.0% void space
# The void calculation uses a probe of radius 1.32A, grid spacing 0.4
#
###############################################################################

data_VUDWUP
_chemical_formula_moiety         '(C34 H8 N6 O16 Zn4)n'
_symmetry_cell_setting           triclinic
_symmetry_space_group_name_H-M   'P 1'
_symmetry_Int_Tables_number      1
_space_group_name_Hall           'P 1'
loop_
_symmetry_equiv_pos_site_id
_symmetry_equiv_pos_as_xyz
1 x,y,z
_cell_length_a                   7.1448(17)
_cell_length_b                   7.1448(17)
_cell_length_c                   19.970(7)
_cell_angle_alpha                90
_cell_angle_beta                 90
_cell_angle_gamma                90
_cell_volume                     1019.43
loop_
_atom_site_label
_atom_site_type_symbol
_atom_site_fract_x
_atom_site_fract_y
_atom_site_fract_z
N1 N -0.0000 -0.0000 0.3248(7)
C3 C -0.0000 -0.0000 0.4676(8)
O3 O 0.2104(10) 0.2104(10) 0.2491(3)
O4 O 0.3429(10) 0.3429(10) 0.3398(3)
C5 C 0.2368(16) 0.2368(16) 0.3107(5)
C6 C 0.1133(14) 0.1133(14) 0.3563(4)
C7 C 0.1204(12) 0.1204(12) 0.4267(5)
H2 H 0.2027 0.2027 0.4475
N2 N -0.0000 -0.0000 0.6752(7)
C10 C -0.0000 -0.0000 0.5324(8)
O7 O 0.2104(10) 0.2104(10) 0.7509(3)
O8 O 0.3429(10) 0.3429(10) 0.6602(3)
C12 C 0.2368(16) 0.2368(16) 0.6893(5)
C13 C 0.1133(14) 0.1133(14) 0.6437(4)
C14 C 0.1204(12) 0.1204(12) 0.5733(5)
H4 H 0.2027 0.2027 0.5525
Zn3 Zn 0.5000 0.5000 0.27876(11)
Zn4 Zn -0.0000 -0.0000 0.77876(11)
Zn5 Zn -0.0000 0.0000 0.22124(11)
Zn6 Zn 0.5000 0.5000 0.72124(11)
N1_2 N -0.0000 1.0000 0.3248(7)
C3_2 C -0.0000 1.0000 0.4676(8)
N2_2 N -0.0000 1.0000 0.6752(7)
C10_2 C -0.0000 1.0000 0.5324(8)
Zn4_2 Zn -0.0000 1.0000 0.77876(11)
Zn5_2 Zn -0.0000 1.0000 0.22124(11)
N1_3 N 1.0000 -0.0000 0.3248(7)
C3_3 C 1.0000 -0.0000 0.4676(8)
N2_3 N 1.0000 -0.0000 0.6752(7)
C10_3 C 1.0000 -0.0000 0.5324(8)
Zn4_3 Zn 1.0000 -0.0000 0.77876(11)
Zn5_3 Zn 1.0000 0.0000 0.22124(11)
O1 O 0.7896(10) 0.7896(10) 0.2491(3)
O2 O 0.6571(10) 0.6571(10) 0.3398(3)
N1_4 N 1.0000 1.0000 0.3248(7)
C1 C 0.7632(16) 0.7632(16) 0.3107(5)
C2 C 0.8867(14) 0.8867(14) 0.3563(4)
C3_4 C 1.0000 1.0000 0.4676(8)
C4 C 0.8796(12) 0.8796(12) 0.4267(5)
H1 H 0.7973 0.7973 0.4475
O5 O 0.7896(10) 0.7896(10) 0.7509(3)
O6 O 0.6571(10) 0.6571(10) 0.6602(3)
N2_4 N 1.0000 1.0000 0.6752(7)
C8 C 0.7632(16) 0.7632(16) 0.6893(5)
C9 C 0.8867(14) 0.8867(14) 0.6437(4)
C10_4 C 1.0000 1.0000 0.5324(8)
C11 C 0.8796(12) 0.8796(12) 0.5733(5)
H3 H 0.7973 0.7973 0.5525
Zn4_4 Zn 1.0000 1.0000 0.77876(11)
Zn5_4 Zn 1.0000 1.0000 0.22124(11)
O9 O 0.7104(10) 0.2896(10) 0.7491(3)
O10 O 0.2896(10) 0.7104(10) 0.7491(3)
O11 O 0.7104(10) 0.2896(10) 0.2509(3)
O12 O 0.2896(10) 0.7104(10) 0.2509(3)
N3 N 0.5000 0.5000 0.8248(7)
N4 N 0.5000 0.5000 0.1752(7)
O14 O 0.1571(10) 0.8429(10) 0.1602(3)
O13 O 0.1571(10) 0.8429(10) 0.8398(3)
O6_2 O 0.8429(10) 0.1571(10) 0.1602(3)
C8_2 C 0.7368(16) 0.2632(16) 0.1893(5)
C9_2 C 0.6133(14) 0.3867(14) 0.1437(4)
C10_5 C 0.5000 0.5000 0.0324(8)
C11_2 C 0.6204(12) 0.3796(12) 0.0733(5)
H3_2 H 0.7027 0.2973 0.0525
C12_2 C 0.2632(16) 0.7368(16) 0.1893(5)
C13_2 C 0.3867(14) 0.6133(14) 0.1437(4)
C14_2 C 0.3796(12) 0.6204(12) 0.0733(5)
H4_2 H 0.2973 0.7027 0.0525
O2_2 O 0.8429(10) 0.1571(10) 0.8398(3)
C1_2 C 0.7368(16) 0.2632(16) 0.8107(5)
C2_2 C 0.6133(14) 0.3867(14) 0.8563(4)
C3_5 C 0.5000 0.5000 0.9676(8)
C4_2 C 0.6204(12) 0.3796(12) 0.9267(5)
H1_2 H 0.7027 0.2973 0.9475
C5_2 C 0.2632(16) 0.7368(16) 0.8107(5)
C6_2 C 0.3867(14) 0.6133(14) 0.8563(4)
C7_2 C 0.3796(12) 0.6204(12) 0.9267(5)
H2_2 H 0.2973 0.7027 0.9475
loop_
_geom_bond_atom_site_label_1
_geom_bond_atom_site_label_2
_geom_bond_site_symmetry_1
_geom_bond_site_symmetry_2
O3 C5 1_555 1_555
O4 C5 1_555 1_555
C5 C6 1_555 1_555
C6 N1 1_555 1_555
C7 C3 1_555 1_555
H2 C7 1_555 1_555
C10 C3 1_555 1_555
O7 C12 1_555 1_555
O8 C12 1_555 1_555
C12 C13 1_555 1_555
C13 N2 1_555 1_555
C14 C10 1_555 1_555
H4 C14 1_555 1_555
Zn3 O4 1_555 1_555
Zn6 O8 1_555 1_555
N1 Zn5 1_555 1_555
O3 Zn5 1_555 1_555
C6 C7 1_555 1_555
N2 Zn4 1_555 1_555
O7 Zn4 1_555 1_555
C13 C14 1_555 1_555
C10_2 C3_2 1_555 1_555
N1_2 Zn5_2 1_555 1_555
N2_2 Zn4_2 1_555 1_555
C10_3 C3_3 1_555 1_555
N1_3 Zn5_3 1_555 1_555
N2_3 Zn4_3 1_555 1_555
Zn3 O2 1_555 1_555
O1 C1 1_555 1_555
O2 C1 1_555 1_555
N1_4 C2 1_555 1_555
C1 C2 1_555 1_555
C2 C4 1_555 1_555
C3_4 C4 1_555 1_555
C4 H1 1_555 1_555
O5 C8 1_555 1_555
O6 C8 1_555 1_555
N2_4 C9 1_555 1_555
C8 C9 1_555 1_555
C9 C11 1_555 1_555
C10_4 C3_4 1_555 1_555
C11 C10_4 1_555 1_555
H3 C11 1_555 1_555
Zn6 O6 1_555 1_555
Zn4_4 O5 1_555 1_555
Zn5_4 O1 1_555 1_555
O9 Zn6 1_555 1_555
O10 Zn6 1_555 1_555
O11 Zn3 1_555 1_555
O12 Zn3 1_555 1_555
N3 Zn6 1_555 1_555
N4 Zn3 1_555 1_555
N1_4 Zn5_4 1_555 1_555
N2_4 Zn4_4 1_555 1_555
O14 Zn5_2 1_555 1_555
O13 Zn4_2 1_555 1_555
O11 C8_2 1_555 1_555
O6_2 C8_2 1_555 1_555
N4 C9_2 1_555 1_555
C8_2 C9_2 1_555 1_555
C9_2 C11_2 1_555 1_555
C11_2 C10_5 1_555 1_555
H3_2 C11_2 1_555 1_555
O12 C12_2 1_555 1_555
O14 C12_2 1_555 1_555
C12_2 C13_2 1_555 1_555
C13_2 N4 1_555 1_555
C14_2 C10_5 1_555 1_555
H4_2 C14_2 1_555 1_555
Zn5_3 O6_2 1_555 1_555
C13_2 C14_2 1_555 1_555
Zn4_3 O2_2 1_555 1_555
O9 C1_2 1_555 1_555
O2_2 C1_2 1_555 1_555
N3 C2_2 1_555 1_555
C1_2 C2_2 1_555 1_555
C2_2 C4_2 1_555 1_555
C3_5 C4_2 1_555 1_555
C4_2 H1_2 1_555 1_555
O10 C5_2 1_555 1_555
O13 C5_2 1_555 1_555
C5_2 C6_2 1_555 1_555
C6_2 N3 1_555 1_555
C7_2 C3_5 1_555 1_555
H2_2 C7_2 1_555 1_555
C6_2 C7_2 1_555 1_555

#END
