
###############################################################################
#
# This file contains modified crystal structure data generated from the
# MOF subset of the Cambridge Structural Database (CSD) v543 
# hosted by the Cambridge Crystallographic Data Centre (CCDC).
#
# This work is licensed under the Creative Commons
# Attribution-NonCommercial-ShareAlike 4.0 International License.
# To view a copy of this license, visit
# http://creativecommons.org/licenses/by-nc-sa/4.0/
# or send a letter to
# Creative Commons, PO Box 1866, Mountain View, CA 94042, USA.
#
# CIF created using the CSD Python API on 29 September 2022
# The structure has been converted into the P1 space group
# The structure has a 3D framework
# The original CSD entry VUDXAW is in the tetragonal crystal system
# The framework has been calculated to contain at least 10.0% void space
# The void calculation uses a probe of radius 1.32A, grid spacing 0.4
#
###############################################################################

data_VUDXAW
_chemical_formula_moiety         '(C34 H8 N6 O16 Zn4)n'
_symmetry_cell_setting           triclinic
_symmetry_space_group_name_H-M   'P 1'
_symmetry_Int_Tables_number      1
_space_group_name_Hall           'P 1'
loop_
_symmetry_equiv_pos_site_id
_symmetry_equiv_pos_as_xyz
1 x,y,z
_cell_length_a                   7.1410(18)
_cell_length_b                   7.1410(18)
_cell_length_c                   19.986(7)
_cell_angle_alpha                90
_cell_angle_beta                 90
_cell_angle_gamma                90
_cell_volume                     1019.16
loop_
_atom_site_label
_atom_site_type_symbol
_atom_site_fract_x
_atom_site_fract_y
_atom_site_fract_z
Zn1 Zn 0.5000 0.5000 0.72199(6)
N1 N 0.0000 0.0000 0.6762(5)
O1 O 0.3489(7) 0.3489(7) 0.6610(3)
O2 O 0.2148(7) 0.2148(7) 0.7505(2)
C1 C 0.2351(11) 0.2351(11) 0.6896(4)
C2 C 0.1127(10) 0.1127(10) 0.6437(4)
C3 C 0.1202(10) 0.1202(10) 0.5741(4)
H1 H 0.2018 0.2018 0.5525
C4 C 0.0000 0.0000 0.5365(6)
N2 N 0.0000 0.0000 0.3238(5)
O5 O 0.3489(7) 0.3489(7) 0.3390(3)
O6 O 0.2148(7) 0.2148(7) 0.2495(2)
C8 C 0.2351(11) 0.2351(11) 0.3104(4)
C9 C 0.1127(10) 0.1127(10) 0.3563(4)
C10 C 0.1202(10) 0.1202(10) 0.4259(4)
H3 H 0.2018 0.2018 0.4475
C11 C 0.0000 0.0000 0.4635(6)
Zn2 Zn 0.5000 0.5000 0.27801(6)
Zn4 Zn 0.0000 0.0000 0.22199(6)
Zn5 Zn 0.0000 0.0000 0.77801(6)
N3 N 0.5000 0.5000 0.1762(5)
N4 N 0.5000 0.5000 0.8238(5)
O9 O 0.6511(7) 0.6511(7) 0.6610(3)
O10 O 0.6511(7) 0.6511(7) 0.3390(3)
O11 O 0.2852(7) 0.7148(7) 0.2505(2)
O12 O 0.7148(7) 0.2852(7) 0.2505(2)
O13 O 0.2852(7) 0.7148(7) 0.7495(2)
O14 O 0.7148(7) 0.2852(7) 0.7495(2)
N1_2 N 0.0000 1.0000 0.6762(5)
C4_2 C 0.0000 1.0000 0.5365(6)
N2_2 N 0.0000 1.0000 0.3238(5)
C11_2 C 0.0000 1.0000 0.4635(6)
Zn4_2 Zn 0.0000 1.0000 0.22199(6)
Zn5_2 Zn 0.0000 1.0000 0.77801(6)
N1_3 N 1.0000 0.0000 0.6762(5)
C4_3 C 1.0000 0.0000 0.5365(6)
N2_3 N 1.0000 0.0000 0.3238(5)
C11_3 C 1.0000 0.0000 0.4635(6)
Zn4_3 Zn 1.0000 0.0000 0.22199(6)
Zn5_3 Zn 1.0000 0.0000 0.77801(6)
N1_4 N 1.0000 1.0000 0.6762(5)
C4_4 C 1.0000 1.0000 0.5365(6)
O4 O 0.7852(7) 0.7852(7) 0.7505(2)
C5 C 0.7649(11) 0.7649(11) 0.6896(4)
C6 C 0.8873(10) 0.8873(10) 0.6437(4)
C7 C 0.8798(10) 0.8798(10) 0.5741(4)
H2 H 0.7982 0.7982 0.5525
N2_4 N 1.0000 1.0000 0.3238(5)
C11_4 C 1.0000 1.0000 0.4635(6)
O8 O 0.7852(7) 0.7852(7) 0.2495(2)
C12 C 0.7649(11) 0.7649(11) 0.3104(4)
C13 C 0.8873(10) 0.8873(10) 0.3563(4)
C14 C 0.8798(10) 0.8798(10) 0.4259(4)
H4 H 0.7982 0.7982 0.4475
Zn4_4 Zn 1.0000 1.0000 0.22199(6)
Zn5_4 Zn 1.0000 1.0000 0.77801(6)
O1_2 O 0.1511(7) 0.8489(7) 0.1610(3)
C1_2 C 0.2649(11) 0.7351(11) 0.1896(4)
C2_2 C 0.3873(10) 0.6127(10) 0.1437(4)
C3_2 C 0.3798(10) 0.6202(10) 0.0741(4)
H1_2 H 0.2982 0.7018 0.0525
C4_5 C 0.5000 0.5000 0.0365(6)
O3 O 0.8489(7) 0.1511(7) 0.1610(3)
C5_2 C 0.7351(11) 0.2649(11) 0.1896(4)
C6_2 C 0.6127(10) 0.3873(10) 0.1437(4)
C7_2 C 0.6202(10) 0.3798(10) 0.0741(4)
H2_2 H 0.7018 0.2982 0.0525
O5_2 O 0.1511(7) 0.8489(7) 0.8390(3)
C8_2 C 0.2649(11) 0.7351(11) 0.8104(4)
C9_2 C 0.3873(10) 0.6127(10) 0.8563(4)
C10_2 C 0.3798(10) 0.6202(10) 0.9259(4)
H3_2 H 0.2982 0.7018 0.9475
C11_5 C 0.5000 0.5000 0.9635(6)
O7 O 0.8489(7) 0.1511(7) 0.8390(3)
C12_2 C 0.7351(11) 0.2649(11) 0.8104(4)
C13_2 C 0.6127(10) 0.3873(10) 0.8563(4)
C14_2 C 0.6202(10) 0.3798(10) 0.9259(4)
H4_2 H 0.7018 0.2982 0.9475
loop_
_geom_bond_atom_site_label_1
_geom_bond_atom_site_label_2
_geom_bond_site_symmetry_1
_geom_bond_site_symmetry_2
Zn1 O1 1_555 1_555
N1 C2 1_555 1_555
O1 C1 1_555 1_555
O2 C1 1_555 1_555
C1 C2 1_555 1_555
C2 C3 1_555 1_555
C3 H1 1_555 1_555
C4 C3 1_555 1_555
N2 C9 1_555 1_555
O5 C8 1_555 1_555
O6 C8 1_555 1_555
C8 C9 1_555 1_555
C9 C10 1_555 1_555
C10 H3 1_555 1_555
C11 C4 1_555 1_555
Zn2 O5 1_555 1_555
Zn4 N2 1_555 1_555
Zn5 N1 1_555 1_555
N3 Zn2 1_555 1_555
N4 Zn1 1_555 1_555
O9 Zn1 1_555 1_555
O10 Zn2 1_555 1_555
O11 Zn2 1_555 1_555
O12 Zn2 1_555 1_555
O13 Zn1 1_555 1_555
O14 Zn1 1_555 1_555
O2 Zn5 1_555 1_555
O6 Zn4 1_555 1_555
C10 C11 1_555 1_555
C11_2 C4_2 1_555 1_555
Zn4_2 N2_2 1_555 1_555
Zn5_2 N1_2 1_555 1_555
C11_3 C4_3 1_555 1_555
Zn4_3 N2_3 1_555 1_555
Zn5_3 N1_3 1_555 1_555
O9 C5 1_555 1_555
O4 C5 1_555 1_555
C5 C6 1_555 1_555
C6 N1_4 1_555 1_555
C7 C4_4 1_555 1_555
H2 C7 1_555 1_555
C11_4 C4_4 1_555 1_555
O10 C12 1_555 1_555
O8 C12 1_555 1_555
C12 C13 1_555 1_555
C13 N2_4 1_555 1_555
C14 C11_4 1_555 1_555
H4 C14 1_555 1_555
Zn4_4 N2_4 1_555 1_555
Zn5_4 N1_4 1_555 1_555
O4 Zn5_4 1_555 1_555
C6 C7 1_555 1_555
O8 Zn4_4 1_555 1_555
C13 C14 1_555 1_555
Zn4_2 O1_2 1_555 1_555
N3 C2_2 1_555 1_555
O1_2 C1_2 1_555 1_555
O11 C1_2 1_555 1_555
C1_2 C2_2 1_555 1_555
C2_2 C3_2 1_555 1_555
C3_2 H1_2 1_555 1_555
C4_5 C3_2 1_555 1_555
O3 C5_2 1_555 1_555
O12 C5_2 1_555 1_555
C5_2 C6_2 1_555 1_555
C6_2 N3 1_555 1_555
C7_2 C4_5 1_555 1_555
H2_2 C7_2 1_555 1_555
Zn4_3 O3 1_555 1_555
C6_2 C7_2 1_555 1_555
N4 C9_2 1_555 1_555
O5_2 C8_2 1_555 1_555
O13 C8_2 1_555 1_555
C8_2 C9_2 1_555 1_555
C9_2 C10_2 1_555 1_555
C10_2 H3_2 1_555 1_555
O7 C12_2 1_555 1_555
O14 C12_2 1_555 1_555
C12_2 C13_2 1_555 1_555
C13_2 N4 1_555 1_555
C14_2 C11_5 1_555 1_555
H4_2 C14_2 1_555 1_555
Zn5_2 O5_2 1_555 1_555
Zn5_3 O7 1_555 1_555
C10_2 C11_5 1_555 1_555
C13_2 C14_2 1_555 1_555

#END
