
###############################################################################
#
# This file contains modified crystal structure data generated from the
# MOF subset of the Cambridge Structural Database (CSD) v543 
# hosted by the Cambridge Crystallographic Data Centre (CCDC).
#
# This work is licensed under the Creative Commons
# Attribution-NonCommercial-ShareAlike 4.0 International License.
# To view a copy of this license, visit
# http://creativecommons.org/licenses/by-nc-sa/4.0/
# or send a letter to
# Creative Commons, PO Box 1866, Mountain View, CA 94042, USA.
#
# CIF created using the CSD Python API on 29 September 2022
# The structure has been converted into the P1 space group
# The structure has a 3D framework
# The original CSD entry VUDYEB is in the monoclinic crystal system
# The framework has been calculated to contain at least 10.0% void space
# The void calculation uses a probe of radius 1.32A, grid spacing 0.4
#
###############################################################################

data_VUDYEB
_chemical_formula_moiety         '(C100 H68 Cu4 N12 O24)n'
_symmetry_cell_setting           triclinic
_symmetry_space_group_name_H-M   'P 1'
_symmetry_Int_Tables_number      1
_space_group_name_Hall           'P 1'
loop_
_symmetry_equiv_pos_site_id
_symmetry_equiv_pos_as_xyz
1 x,y,z
_cell_length_a                   11.1281(9)
_cell_length_b                   12.2813(10)
_cell_length_c                   19.3697(15)
_cell_angle_alpha                90
_cell_angle_beta                 102.4030(10)
_cell_angle_gamma                90
_cell_volume                     2585.43
loop_
_atom_site_label
_atom_site_type_symbol
_atom_site_fract_x
_atom_site_fract_y
_atom_site_fract_z
O2 O 0.0018(3) 0.7235(3) 0.33363(17)
H1 H 0.0686 0.8275 0.2346
H2 H 0.0440 0.9444 0.1396
O3 O 0.46567(18) 0.05643(17) 0.30334(9)
O4 O 0.4998(2) 0.23501(18) 0.30511(10)
O6 O 0.5047(2) 0.40656(15) 0.07242(12)
C8 C 0.5910(2) 0.0293(2) 0.11462(14)
C9 C 0.5578(3) 0.0367(2) 0.17989(14)
C10 C 0.5207(2) 0.1356(2) 0.20307(13)
C11 C 0.5146(2) 0.2275(2) 0.16020(13)
H8 H 0.4917 0.2942 0.1761
C12 C 0.5427(2) 0.2197(2) 0.09379(13)
C13 C 0.5823(2) 0.1210(2) 0.07158(13)
H9 H 0.6030 0.1161 0.0277
C14 C 0.4921(2) 0.1444(2) 0.27552(14)
C15 C 0.5265(2) 0.3188(2) 0.04723(13)
Cu3 Cu 0.50492(2) 0.58227(2) 0.090717(15)
Cu4 Cu 0.49508(2) 0.08227(2) 0.409283(15)
Cu1 Cu 0.49508(2) 0.41773(2) 0.909283(15)
O5 O 0.52936(17) 0.30278(15) 0.98244(9)
N2 N 0.3125(2) 0.41662(18) 0.90730(12)
C16 C 0.2406(3) 0.4934(3) 0.87148(19)
H10 H 0.2754 0.5434 0.8455
C17 C 0.1163(3) 0.5021(3) 0.8712(2)
H11 H 0.0701 0.5586 0.8467
C18 C 0.0610(2) 0.4264(2) 0.90752(16)
C19 C 0.1368(2) 0.3474(2) 0.94475(16)
H12 H 0.1044 0.2955 0.9706
C20 C 0.2600(2) 0.3455(2) 0.94370(15)
H13 H 0.3091 0.2919 0.9696
O7 O 0.46567(18) 0.44357(17) 0.80334(9)
O8 O 0.4998(2) 0.26499(18) 0.80511(10)
O9 O 0.4953(2) 0.59344(15) 0.92758(12)
N4 N 0.6777(2) 0.42755(18) 0.91166(13)
C21 C 0.9276(2) 0.4290(2) 0.90790(16)
C22 C 0.8549(3) 0.5194(3) 0.89042(19)
H14 H 0.8886 0.5832 0.8770
C23 C 0.7319(3) 0.5159(3) 0.89272(18)
H15 H 0.6846 0.5782 0.8805
C24 C 0.7462(3) 0.3379(3) 0.9260(2)
H16 H 0.7092 0.2744 0.9373
C25 C 0.8691(3) 0.3356(3) 0.9246(3)
H17 H 0.9133 0.2713 0.9348
N3 N 0.3223(2) 0.92755(18) 0.58834(13)
C21_2 C 0.0724(2) 0.9290(2) 0.59210(16)
C24_2 C 0.2538(3) 0.8379(3) 0.5740(2)
H16_2 H 0.2908 0.7744 0.5627
C25_2 C 0.1309(3) 0.8356(3) 0.5754(3)
H17_2 H 0.0867 0.7713 0.5652
Cu2 Cu 0.50492(2) 0.91773(2) 0.590717(15)
H10_2 H 0.7246 0.0434 0.6545
C17_2 C 0.8837(3) 0.0021(3) 0.6288(2)
H11_2 H 0.9299 0.0586 0.6533
O9_2 O 0.5047(2) 0.09344(15) 0.57242(12)
O1 O 0.2009(3) 0.2055(4) 0.18984(19)
O3_2 O 0.53433(18) 0.55643(17) 0.19666(9)
O4_2 O 0.5002(2) 0.73501(18) 0.19489(10)
O5_2 O 0.47064(17) 0.80278(15) 0.51756(9)
O6_2 O 0.4953(2) 0.90656(15) 0.42758(12)
N1 N 0.2395(2) 0.39396(19) 0.36637(13)
N2_2 N 0.6875(2) 0.91662(18) 0.59270(12)
C1 C 0.1033(4) 0.2354(3) 0.2028(2)
C2 C 0.1125(3) 0.3031(3) 0.26980(17)
C3 C 0.0099(3) 0.3456(3) 0.2904(2)
C4 C 0.0245(4) 0.4142(3) 0.3473(2)
C5 C 0.1409(3) 0.4381(3) 0.38504(19)
H3 H 0.1512 0.4849 0.4236
C6 C 0.2276(3) 0.3280(2) 0.30999(16)
H4 H 0.2974 0.2988 0.2979
C7 C 0.3649(3) 0.4214(2) 0.40840(15)
H5 H 0.4222 0.3645 0.4023
H6 H 0.3628 0.4250 0.4582
C8_2 C 0.4090(2) 0.5293(2) 0.38538(14)
C9_2 C 0.4422(3) 0.5367(2) 0.32011(14)
H7 H 0.4395 0.4750 0.2920
C10_2 C 0.4793(2) 0.6356(2) 0.29693(13)
C11_2 C 0.4854(2) 0.7275(2) 0.33980(13)
H8_2 H 0.5083 0.7942 0.3239
C12_2 C 0.4573(2) 0.7197(2) 0.40621(13)
C13_2 C 0.4177(2) 0.6210(2) 0.42842(13)
H9_2 H 0.3970 0.6161 0.4723
C14_2 C 0.5079(2) 0.6444(2) 0.22448(14)
C15_2 C 0.4735(2) 0.8188(2) 0.45277(13)
C16_2 C 0.7594(3) 0.9934(3) 0.62852(19)
C18_2 C 0.9390(2) 0.9264(2) 0.59248(16)
C19_2 C 0.8632(2) 0.8474(2) 0.55525(16)
H12_2 H 0.8956 0.7955 0.5294
C20_2 C 0.7400(2) 0.8455(2) 0.55630(15)
H13_2 H 0.6909 0.7919 0.5304
O7_2 O 0.53433(18) 0.94357(17) 0.69666(9)
O8_2 O 0.5002(2) 0.76499(18) 0.69489(10)
N3_2 N 0.3223(2) 0.57245(18) 0.08834(13)
C21_3 C 0.0724(2) 0.5710(2) 0.09210(16)
C22_2 C 0.1451(3) 0.4806(3) 0.10958(19)
H14_2 H 0.1114 0.4168 0.1230
C23_2 C 0.2681(3) 0.4841(3) 0.10728(18)
H15_2 H 0.3154 0.4218 0.1195
C24_3 C 0.2538(3) 0.6621(3) 0.0740(2)
H16_3 H 0.2908 0.7256 0.0627
C25_3 C 0.1309(3) 0.6644(3) 0.0754(3)
H17_3 H 0.0867 0.7287 0.0652
O5_3 O 0.47064(17) 0.69722(15) 0.01756(9)
N2_3 N 0.6875(2) 0.58338(18) 0.09270(12)
C16_3 C 0.7594(3) 0.5066(3) 0.12852(19)
H10_3 H 0.7246 0.4566 0.1545
C17_3 C 0.8837(3) 0.4979(3) 0.1288(2)
H11_3 H 0.9299 0.4414 0.1533
C18_3 C 0.9390(2) 0.5736(2) 0.09248(16)
C19_3 C 0.8632(2) 0.6526(2) 0.05525(16)
H12_3 H 0.8956 0.7045 0.0294
C20_3 C 0.7400(2) 0.6545(2) 0.05630(15)
H13_3 H 0.6909 0.7081 0.0304
C8_3 C 0.4090(2) 0.9707(2) 0.88538(14)
C9_3 C 0.4422(3) 0.9633(2) 0.82011(14)
C10_3 C 0.4793(2) 0.8644(2) 0.79693(13)
C11_3 C 0.4854(2) 0.7725(2) 0.83980(13)
H8_3 H 0.5083 0.7058 0.8239
C12_3 C 0.4573(2) 0.7803(2) 0.90621(13)
C13_3 C 0.4177(2) 0.8790(2) 0.92842(13)
H9_3 H 0.3970 0.8839 0.9723
C14_3 C 0.5079(2) 0.8556(2) 0.72448(14)
C15_3 C 0.4735(2) 0.6812(2) 0.95277(13)
O1_2 O 0.7991(3) 0.7945(4) 0.81016(19)
O5_4 O 0.52936(17) 0.19722(15) 0.48244(9)
N1_2 N 0.7605(2) 0.60604(19) 0.63363(13)
N2_4 N 0.3125(2) 0.08338(18) 0.40730(12)
C1_2 C 0.8967(4) 0.7646(3) 0.7972(2)
C2_2 C 0.8875(3) 0.6969(3) 0.73020(17)
C3_2 C 0.9901(3) 0.6544(3) 0.7096(2)
C4_2 C 0.9755(4) 0.5858(3) 0.6527(2)
C5_2 C 0.8591(3) 0.5619(3) 0.61496(19)
H3_2 H 0.8488 0.5151 0.5764
C6_2 C 0.7724(3) 0.6720(2) 0.69001(16)
H4_2 H 0.7026 0.7012 0.7021
C7_2 C 0.6351(3) 0.5786(2) 0.59160(15)
H5_2 H 0.5778 0.6355 0.5977
H6_2 H 0.6372 0.5750 0.5418
C8_4 C 0.5910(2) 0.4707(2) 0.61462(14)
C9_4 C 0.5578(3) 0.4633(2) 0.67989(14)
H7_2 H 0.5605 0.5250 0.7080
C10_4 C 0.5207(2) 0.3644(2) 0.70307(13)
C11_4 C 0.5146(2) 0.2725(2) 0.66020(13)
H8_4 H 0.4917 0.2058 0.6761
C12_4 C 0.5427(2) 0.2803(2) 0.59379(13)
C13_4 C 0.5823(2) 0.3790(2) 0.57158(13)
H9_4 H 0.6030 0.3839 0.5277
C14_4 C 0.4921(2) 0.3556(2) 0.77552(14)
C15_4 C 0.5265(2) 0.1812(2) 0.54723(13)
C16_4 C 0.2406(3) 0.0066(3) 0.37148(19)
C18_4 C 0.0610(2) 0.0736(2) 0.40752(16)
C19_4 C 0.1368(2) 0.1526(2) 0.44475(16)
H12_4 H 0.1044 0.2045 0.4706
C20_4 C 0.2600(2) 0.1545(2) 0.44370(15)
H13_4 H 0.3091 0.2081 0.4696
N4_2 N 0.6777(2) 0.07245(18) 0.41166(13)
H10_4 H 0.2754 0.9566 0.3455
C17_4 C 0.1163(3) 0.9979(3) 0.3712(2)
H11_4 H 0.0701 0.9414 0.3467
C21_4 C 0.9276(2) 0.0710(2) 0.40790(16)
C24_4 C 0.7462(3) 0.1621(3) 0.4260(2)
H16_4 H 0.7092 0.2256 0.4373
C25_4 C 0.8691(3) 0.1644(3) 0.4246(3)
H17_4 H 0.9133 0.2287 0.4348
O1_3 O 0.7991(3) 0.7055(4) 0.31016(19)
N1_3 N 0.7605(2) 0.89396(19) 0.13363(13)
C1_3 C 0.8967(4) 0.7354(3) 0.2972(2)
C2_3 C 0.8875(3) 0.8031(3) 0.23020(17)
C3_3 C 0.9901(3) 0.8456(3) 0.2096(2)
C4_3 C 0.9755(4) 0.9142(3) 0.1527(2)
C5_3 C 0.8591(3) 0.9381(3) 0.11496(19)
H3_3 H 0.8488 0.9849 0.0764
C6_3 C 0.7724(3) 0.8280(2) 0.19001(16)
H4_3 H 0.7026 0.7988 0.2021
C7_3 C 0.6351(3) 0.9214(2) 0.09160(15)
H5_3 H 0.5778 0.8645 0.0977
H6_3 H 0.6372 0.9250 0.0418
H7_3 H 0.5605 0.9750 0.2080
C22_3 C 0.1451(3) 0.0194(3) 0.60958(19)
H14_3 H 0.1114 0.0832 0.6230
C23_3 C 0.2681(3) 0.0159(3) 0.60728(18)
H15_3 H 0.3154 0.0782 0.6195
O2_2 O 0.9982(3) 0.2235(3) 0.16637(17)
H1_2 H 0.9314 0.3275 0.2654
H2_2 H 0.9560 0.4444 0.3604
O1_4 O 0.2009(3) 0.2945(4) 0.68984(19)
N1_4 N 0.2395(2) 0.10604(19) 0.86637(13)
C1_4 C 0.1033(4) 0.2646(3) 0.7028(2)
C2_4 C 0.1125(3) 0.1969(3) 0.76980(17)
C3_4 C 0.0099(3) 0.1544(3) 0.7904(2)
C4_4 C 0.0245(4) 0.0858(3) 0.8473(2)
C5_4 C 0.1409(3) 0.0619(3) 0.88504(19)
H3_4 H 0.1512 0.0151 0.9236
C6_4 C 0.2276(3) 0.1720(2) 0.80999(16)
H4_4 H 0.2974 0.2012 0.7979
C7_4 C 0.3649(3) 0.0786(2) 0.90840(15)
H5_4 H 0.4222 0.1355 0.9023
H6_4 H 0.3628 0.0750 0.9582
H7_4 H 0.4395 0.0250 0.7920
O2_3 O 0.9982(3) 0.2765(3) 0.66637(17)
H1_3 H 0.9314 0.1725 0.7654
H2_3 H 0.9560 0.0556 0.8604
O2_4 O 0.0018(3) 0.7765(3) 0.83363(17)
H1_4 H 0.0686 0.6725 0.7346
H2_4 H 0.0440 0.5556 0.6396
C22_4 C 0.8549(3) 0.9806(3) 0.39042(19)
H14_4 H 0.8886 0.9168 0.3770
C23_4 C 0.7319(3) 0.9841(3) 0.39272(18)
H15_4 H 0.6846 0.9218 0.3805
loop_
_geom_bond_atom_site_label_1
_geom_bond_atom_site_label_2
_geom_bond_site_symmetry_1
_geom_bond_site_symmetry_2
O3 C14 1_555 1_555
O4 C14 1_555 1_555
O6 C15 1_555 1_555
C9 C8 1_555 1_555
C10 C9 1_555 1_555
C11 C10 1_555 1_555
H8 C11 1_555 1_555
C12 C11 1_555 1_555
C13 C8 1_555 1_555
H9 C13 1_555 1_555
C14 C10 1_555 1_555
C15 C12 1_555 1_555
Cu3 O6 1_555 1_555
Cu4 O3 1_555 1_555
O4 Cu4 1_555 1_555
C12 C13 1_555 1_555
Cu1 O5 1_555 1_555
N2 Cu1 1_555 1_555
C16 N2 1_555 1_555
H10 C16 1_555 1_555
C17 C16 1_555 1_555
H11 C17 1_555 1_555
C18 C17 1_555 1_555
C19 C18 1_555 1_555
H12 C19 1_555 1_555
C20 N2 1_555 1_555
H13 C20 1_555 1_555
O7 Cu1 1_555 1_555
O8 Cu1 1_555 1_555
O9 Cu1 1_555 1_555
N4 Cu1 1_555 1_555
C19 C20 1_555 1_555
N4 C23 1_555 1_555
C22 C21 1_555 1_555
H14 C22 1_555 1_555
C23 C22 1_555 1_555
H15 C23 1_555 1_555
C24 N4 1_555 1_555
H16 C24 1_555 1_555
C25 C21 1_555 1_555
H17 C25 1_555 1_555
C24 C25 1_555 1_555
C24_2 N3 1_555 1_555
H16_2 C24_2 1_555 1_555
C25_2 C21_2 1_555 1_555
H17_2 C25_2 1_555 1_555
Cu2 N3 1_555 1_555
C24_2 C25_2 1_555 1_555
H11_2 C17_2 1_555 1_555
Cu2 O5_2 1_555 1_555
O1 C1 1_555 1_555
O3_2 C14_2 1_555 1_555
O4_2 C14_2 1_555 1_555
O5_2 C15_2 1_555 1_555
O6_2 C15_2 1_555 1_555
N1 C5 1_555 1_555
N2_2 Cu2 1_555 1_555
C1 C2 1_555 1_555
C2 C3 1_555 1_555
C4 C3 1_555 1_555
C5 C4 1_555 1_555
H3 C5 1_555 1_555
C6 N1 1_555 1_555
H4 C6 1_555 1_555
C7 N1 1_555 1_555
H5 C7 1_555 1_555
H6 C7 1_555 1_555
C8_2 C7 1_555 1_555
C9_2 C8_2 1_555 1_555
H7 C9_2 1_555 1_555
C10_2 C9_2 1_555 1_555
C11_2 C10_2 1_555 1_555
H8_2 C11_2 1_555 1_555
C12_2 C11_2 1_555 1_555
C13_2 C8_2 1_555 1_555
H9_2 C13_2 1_555 1_555
C14_2 C10_2 1_555 1_555
C15_2 C12_2 1_555 1_555
C16_2 N2_2 1_555 1_555
C19_2 C18_2 1_555 1_555
H12_2 C19_2 1_555 1_555
C20_2 N2_2 1_555 1_555
H13_2 C20_2 1_555 1_555
Cu3 O3_2 1_555 1_555
O7_2 Cu2 1_555 1_555
O8_2 Cu2 1_555 1_555
O4_2 Cu3 1_555 1_555
C2 C6 1_555 1_555
C12_2 C13_2 1_555 1_555
C19_2 C20_2 1_555 1_555
N3_2 C23_2 1_555 1_555
C22_2 C21_3 1_555 1_555
H14_2 C22_2 1_555 1_555
C23_2 C22_2 1_555 1_555
H15_2 C23_2 1_555 1_555
C24_3 N3_2 1_555 1_555
H16_3 C24_3 1_555 1_555
C25_3 C21_3 1_555 1_555
H17_3 C25_3 1_555 1_555
Cu3 N3_2 1_555 1_555
C24_3 C25_3 1_555 1_555
Cu3 O5_3 1_555 1_555
N2_3 Cu3 1_555 1_555
C16_3 N2_3 1_555 1_555
H10_3 C16_3 1_555 1_555
C17_3 C16_3 1_555 1_555
H11_3 C17_3 1_555 1_555
C18_3 C17_3 1_555 1_555
C19_3 C18_3 1_555 1_555
H12_3 C19_3 1_555 1_555
C20_3 N2_3 1_555 1_555
H13_3 C20_3 1_555 1_555
C19_3 C20_3 1_555 1_555
O7_2 C14_3 1_555 1_555
O8_2 C14_3 1_555 1_555
O9 C15_3 1_555 1_555
C9_3 C8_3 1_555 1_555
C10_3 C9_3 1_555 1_555
C11_3 C10_3 1_555 1_555
H8_3 C11_3 1_555 1_555
C12_3 C11_3 1_555 1_555
C13_3 C8_3 1_555 1_555
H9_3 C13_3 1_555 1_555
C14_3 C10_3 1_555 1_555
C15_3 C12_3 1_555 1_555
C12_3 C13_3 1_555 1_555
Cu4 O5_4 1_555 1_555
O1_2 C1_2 1_555 1_555
O7 C14_4 1_555 1_555
O8 C14_4 1_555 1_555
O5_4 C15_4 1_555 1_555
O9_2 C15_4 1_555 1_555
N1_2 C5_2 1_555 1_555
N2_4 Cu4 1_555 1_555
C1_2 C2_2 1_555 1_555
C2_2 C3_2 1_555 1_555
C4_2 C3_2 1_555 1_555
C5_2 C4_2 1_555 1_555
H3_2 C5_2 1_555 1_555
C6_2 N1_2 1_555 1_555
H4_2 C6_2 1_555 1_555
C7_2 N1_2 1_555 1_555
H5_2 C7_2 1_555 1_555
H6_2 C7_2 1_555 1_555
C8_4 C7_2 1_555 1_555
C9_4 C8_4 1_555 1_555
H7_2 C9_4 1_555 1_555
C10_4 C9_4 1_555 1_555
C11_4 C10_4 1_555 1_555
H8_4 C11_4 1_555 1_555
C12_4 C11_4 1_555 1_555
C13_4 C8_4 1_555 1_555
H9_4 C13_4 1_555 1_555
C14_4 C10_4 1_555 1_555
C15_4 C12_4 1_555 1_555
C16_4 N2_4 1_555 1_555
C19_4 C18_4 1_555 1_555
H12_4 C19_4 1_555 1_555
C20_4 N2_4 1_555 1_555
H13_4 C20_4 1_555 1_555
N4_2 Cu4 1_555 1_555
C2_2 C6_2 1_555 1_555
C12_4 C13_4 1_555 1_555
C19_4 C20_4 1_555 1_555
H11_4 C17_4 1_555 1_555
C24_4 N4_2 1_555 1_555
H16_4 C24_4 1_555 1_555
C25_4 C21_4 1_555 1_555
H17_4 C25_4 1_555 1_555
C24_4 C25_4 1_555 1_555
O1_3 C1_3 1_555 1_555
N1_3 C5_3 1_555 1_555
C1_3 C2_3 1_555 1_555
C2_3 C3_3 1_555 1_555
C4_3 C3_3 1_555 1_555
C5_3 C4_3 1_555 1_555
H3_3 C5_3 1_555 1_555
C6_3 N1_3 1_555 1_555
H4_3 C6_3 1_555 1_555
C7_3 N1_3 1_555 1_555
H5_3 C7_3 1_555 1_555
H6_3 C7_3 1_555 1_555
C2_3 C6_3 1_555 1_555
H14_3 C22_3 1_555 1_555
C23_3 C22_3 1_555 1_555
H15_3 C23_3 1_555 1_555
O1_4 C1_4 1_555 1_555
N1_4 C5_4 1_555 1_555
C1_4 C2_4 1_555 1_555
C2_4 C3_4 1_555 1_555
C4_4 C3_4 1_555 1_555
C5_4 C4_4 1_555 1_555
H3_4 C5_4 1_555 1_555
C6_4 N1_4 1_555 1_555
H4_4 C6_4 1_555 1_555
C7_4 N1_4 1_555 1_555
H5_4 C7_4 1_555 1_555
H6_4 C7_4 1_555 1_555
C2_4 C6_4 1_555 1_555
H14_4 C22_4 1_555 1_555
C23_4 C22_4 1_555 1_555
H15_4 C23_4 1_555 1_555

#END
