
###############################################################################
#
# This file contains modified crystal structure data generated from the
# MOF subset of the Cambridge Structural Database (CSD) v543 
# hosted by the Cambridge Crystallographic Data Centre (CCDC).
#
# This work is licensed under the Creative Commons
# Attribution-NonCommercial-ShareAlike 4.0 International License.
# To view a copy of this license, visit
# http://creativecommons.org/licenses/by-nc-sa/4.0/
# or send a letter to
# Creative Commons, PO Box 1866, Mountain View, CA 94042, USA.
#
# CIF created using the CSD Python API on 29 September 2022
# The structure has been converted into the P1 space group
# The structure has a 3D framework
# The original CSD entry VUGPOF is in the monoclinic crystal system
# The framework has been calculated to contain at least 10.0% void space
# The void calculation uses a probe of radius 1.32A, grid spacing 0.4
#
###############################################################################

data_VUGPOF
_chemical_formula_moiety         '(C92 H88 Cu4 N4 O26 P12 S4)n'
_symmetry_cell_setting           triclinic
_symmetry_space_group_name_H-M   'P 1'
_symmetry_Int_Tables_number      1
_space_group_name_Hall           'P 1'
loop_
_symmetry_equiv_pos_site_id
_symmetry_equiv_pos_as_xyz
1 x,y,z
_cell_length_a                   10.7768(2)
_cell_length_b                   18.1026(4)
_cell_length_c                   13.3128(3)
_cell_angle_alpha                90
_cell_angle_beta                 95.8064(17)
_cell_angle_gamma                90
_cell_volume                     2583.84
loop_
_atom_site_label
_atom_site_type_symbol
_atom_site_fract_x
_atom_site_fract_y
_atom_site_fract_z
H2 H 0.0171 0.6890 0.4799
C20 C 0.0630(3) 0.8164(2) 0.3854(3)
H11 H 0.0516 0.8620 0.4230
H12 H 0.0777 0.8286 0.3158
H13 H 0.1348 0.7891 0.4177
Cu4 Cu 0.12251(4) 0.57282(3) 0.63080(4)
O9 O 0.0561(2) 0.43657(13) 0.42130(19)
Cu1 Cu 0.87749(4) 0.42718(3) 0.36920(4)
P1 P 0.34526(7) 0.65626(4) 0.50775(6)
P2 P 0.84151(7) 0.57514(4) 0.49638(6)
P3 P 0.62313(7) 0.75465(5) 0.21368(6)
O1 O 0.2280(2) 0.61504(13) 0.52212(18)
O2 O 0.3528(2) 0.73407(13) 0.5544(2)
O3 O 0.9439(2) 0.56343(13) 0.57870(19)
O4 O 0.6752(2) 0.71234(14) 0.12823(19)
H1 H 0.7535 0.7129 0.1368
O5 O 0.5892(2) 0.83299(14) 0.1896(2)
O6 O 0.8401(2) 0.52612(13) 0.40416(19)
N1 N 0.6006(2) 0.65890(14) 0.4138(2)
C1 C 0.5930(3) 0.61359(16) 0.5025(2)
C2 C 0.7294(3) 0.74636(17) 0.3228(3)
C3 C 0.3684(3) 0.66476(18) 0.3785(3)
C4 C 0.7189(3) 0.68967(16) 0.3947(2)
C5 C 0.4896(3) 0.67724(17) 0.3489(2)
C6 C 0.6958(3) 0.57297(16) 0.5469(3)
C7 C 0.9430(3) 0.70580(18) 0.4421(3)
C8 C 0.8324(3) 0.66551(17) 0.4463(2)
C9 C 0.5820(3) 0.52873(18) 0.6844(3)
C10 C 0.9475(3) 0.76935(19) 0.3846(3)
C11 C 0.4787(3) 0.56562(17) 0.6386(3)
H3 H 0.4020 0.5619 0.6678
C12 C 0.4919(3) 0.70788(18) 0.2524(3)
C13 C 0.6898(3) 0.53298(18) 0.6365(3)
H4 H 0.7624 0.5079 0.6653
C14 C 0.8407(3) 0.78588(18) 0.3209(3)
H5 H 0.8435 0.8255 0.2744
C15 C 0.2619(3) 0.6715(2) 0.3098(3)
H6 H 0.1830 0.6600 0.3318
C16 C 0.5787(3) 0.4875(2) 0.7826(3)
H7 H 0.6583 0.4620 0.7993
H8 H 0.5109 0.4512 0.7758
H9 H 0.5649 0.5225 0.8365
C17 C 0.4824(3) 0.60807(18) 0.5513(2)
C18 C 0.3829(3) 0.7156(2) 0.1862(3)
H10 H 0.3891 0.7362 0.1213
C19 C 0.2669(3) 0.6942(2) 0.2115(3)
C21 C 0.1525(4) 0.7008(3) 0.1369(4)
H14 H 0.1331 0.6525 0.1058
H15 H 0.1682 0.7366 0.0845
H16 H 0.0819 0.7175 0.1720
S1 S 0.75974(9) 0.53384(6) 0.19780(8)
O7 O 0.7939(3) 0.45372(16) 0.2261(2)
C22 C 0.9033(4) 0.5815(3) 0.1902(4)
H17 H 0.8862 0.6332 0.1723
H18 H 0.9536 0.5790 0.2557
H19 H 0.9490 0.5583 0.1385
C23 C 0.7124(6) 0.5264(3) 0.0655(4)
H20 H 0.6879 0.5752 0.0384
H21 H 0.7819 0.5074 0.0309
H22 H 0.6415 0.4925 0.0546
Cu2 Cu 0.62251(4) 0.92718(3) 0.13080(4)
O8 O 0.7720(2) 0.38496(13) 0.47788(18)
O10 O 0.9108(2) 0.33299(14) 0.3104(2)
P1_2 P 0.15474(7) 0.15626(4) 0.99225(6)
O1_2 O 0.2720(2) 0.11504(13) 0.97788(18)
O2_2 O 0.1472(2) 0.23407(13) 0.9456(2)
C11_2 C 0.0213(3) 0.06562(17) 0.8614(3)
H3_2 H 0.0980 0.0619 0.8322
C17_2 C 0.0176(3) 0.10807(18) 0.9487(2)
Cu3 Cu 0.37749(4) 0.07282(3) 0.86920(4)
P2_2 P 0.65849(7) 0.07514(4) 0.00362(6)
P3_2 P 0.87687(7) 0.25465(5) 0.28632(6)
O4_2 O 0.8248(2) 0.21234(14) 0.37177(19)
H1_2 H 0.7465 0.2129 0.3632
O6_2 O 0.6599(2) 0.02612(13) 0.09584(19)
N1_2 N 0.8994(2) 0.15890(14) 0.0862(2)
C2_2 C 0.7706(3) 0.24636(17) 0.1772(3)
C4_2 C 0.7811(3) 0.18967(16) 0.1053(2)
C7_2 C 0.5570(3) 0.20580(18) 0.0579(3)
H2_2 H 0.4829 0.1890 0.0201
C8_2 C 0.6676(3) 0.16551(17) 0.0537(2)
C10_2 C 0.5525(3) 0.26935(19) 0.1154(3)
C14_2 C 0.6593(3) 0.28588(18) 0.1791(3)
H5_2 H 0.6565 0.3255 0.2256
C20_2 C 0.4370(3) 0.3164(2) 0.1146(3)
H11_2 H 0.4484 0.3620 0.0770
H12_2 H 0.4223 0.3286 0.1842
H13_2 H 0.3652 0.2891 0.0823
S1_2 S 0.74026(9) 0.03384(6) 0.30220(8)
C22_2 C 0.5967(4) 0.0815(3) 0.3098(4)
H17_2 H 0.6138 0.1332 0.3277
H18_2 H 0.5464 0.0790 0.2443
H19_2 H 0.5510 0.0583 0.3615
C23_2 C 0.7876(6) 0.0264(3) 0.4345(4)
H20_2 H 0.8121 0.0752 0.4616
H21_2 H 0.7181 0.0074 0.4691
O3_2 O 0.5561(2) 0.06343(13) 0.92130(19)
C1_2 C 0.9070(3) 0.11359(16) 0.9975(2)
C6_2 C 0.8042(3) 0.07297(16) 0.9531(3)
C9_2 C 0.9180(3) 0.02873(18) 0.8156(3)
C13_2 C 0.8102(3) 0.03298(18) 0.8635(3)
H4_2 H 0.7376 0.0079 0.8347
H9_2 H 0.9351 0.0225 0.6635
O7_2 O 0.7061(3) 0.95372(16) 0.2739(2)
H22_2 H 0.8585 0.9925 0.4454
O8_2 O 0.7280(2) 0.88496(13) 0.02212(18)
O9_2 O 0.4439(2) 0.93657(13) 0.07870(19)
P1_3 P 0.65474(7) 0.34374(4) 0.49225(6)
P2_3 P 0.15849(7) 0.42486(4) 0.50362(6)
P3_3 P 0.37687(7) 0.24535(5) 0.78632(6)
O2_3 O 0.6472(2) 0.26593(13) 0.4456(2)
O4_3 O 0.3248(2) 0.28766(14) 0.87177(19)
H1_3 H 0.2465 0.2871 0.8632
O5_2 O 0.4108(2) 0.16701(14) 0.8104(2)
O6_3 O 0.1599(2) 0.47388(13) 0.59584(19)
N1_3 N 0.3994(2) 0.34110(14) 0.5862(2)
C1_3 C 0.4070(3) 0.38641(16) 0.4975(2)
C2_3 C 0.2706(3) 0.25364(17) 0.6772(3)
C3_2 C 0.6316(3) 0.33524(18) 0.6215(3)
C4_3 C 0.2811(3) 0.31033(16) 0.6053(2)
C5_2 C 0.5104(3) 0.32276(17) 0.6511(2)
C6_3 C 0.3042(3) 0.42703(16) 0.4531(3)
C7_3 C 0.0570(3) 0.29420(18) 0.5579(3)
C8_3 C 0.1676(3) 0.33449(17) 0.5537(2)
C9_3 C 0.4180(3) 0.47127(18) 0.3156(3)
C10_3 C 0.0525(3) 0.23065(19) 0.6154(3)
C11_3 C 0.5213(3) 0.43438(17) 0.3614(3)
H3_3 H 0.5980 0.4381 0.3322
C12_2 C 0.5081(3) 0.29212(18) 0.7476(3)
C13_3 C 0.3102(3) 0.46702(18) 0.3635(3)
H4_3 H 0.2376 0.4921 0.3347
C14_3 C 0.1593(3) 0.21412(18) 0.6791(3)
H5_3 H 0.1565 0.1745 0.7256
C15_2 C 0.7381(3) 0.3285(2) 0.6902(3)
H6_2 H 0.8170 0.3400 0.6682
C16_2 C 0.4213(3) 0.5125(2) 0.2174(3)
H7_2 H 0.3417 0.5380 0.2007
H8_2 H 0.4891 0.5488 0.2242
H9_3 H 0.4351 0.4775 0.1635
C17_3 C 0.5176(3) 0.39193(18) 0.4487(2)
C18_2 C 0.6171(3) 0.2844(2) 0.8138(3)
H10_2 H 0.6109 0.2638 0.8787
C19_2 C 0.7331(3) 0.3058(2) 0.7885(3)
C21_2 C 0.8475(4) 0.2992(3) 0.8631(4)
H14_2 H 0.8669 0.3475 0.8942
H15_2 H 0.8318 0.2634 0.9155
H16_2 H 0.9181 0.2825 0.8280
S1_3 S 0.24026(9) 0.46616(6) 0.80220(8)
O7_3 O 0.2061(3) 0.54628(16) 0.7739(2)
C22_3 C 0.0967(4) 0.4185(3) 0.8098(4)
H17_3 H 0.1138 0.3668 0.8277
H18_3 H 0.0464 0.4210 0.7443
H19_3 H 0.0510 0.4417 0.8615
C23_3 C 0.2876(6) 0.4736(3) 0.9345(4)
H20_3 H 0.3121 0.4248 0.9616
H21_3 H 0.2181 0.4926 0.9691
H22_3 H 0.3585 0.5075 0.9454
O10_2 O 0.0892(2) 0.66701(14) 0.6896(2)
H2_3 H 0.9829 0.3110 0.5201
C20_3 C 0.9370(3) 0.1836(2) 0.6146(3)
H11_3 H 0.9484 0.1380 0.5770
H12_3 H 0.9223 0.1714 0.6842
H13_3 H 0.8652 0.2109 0.5823
O7_4 O 0.2939(3) 0.04628(16) 0.7261(2)
H22_4 H 0.1415 0.0075 0.5546
C1_4 C 0.0930(3) 0.88641(16) 0.0025(2)
C6_4 C 0.1958(3) 0.92703(16) 0.0469(3)
C9_4 C 0.0820(3) 0.97127(18) 0.1844(3)
C13_4 C 0.1898(3) 0.96702(18) 0.1365(3)
H4_4 H 0.2624 0.9921 0.1653
H9_4 H 0.0649 0.9775 0.3365
P2_4 P 0.34151(7) 0.92486(4) 0.99638(6)
P3_4 P 0.12313(7) 0.74535(5) 0.71368(6)
O4_4 O 0.1752(2) 0.78766(14) 0.62823(19)
H1_4 H 0.2535 0.7871 0.6368
O6_4 O 0.3401(2) 0.97388(13) 0.90416(19)
N1_4 N 0.1006(2) 0.84110(14) 0.9138(2)
C2_4 C 0.2294(3) 0.75364(17) 0.8228(3)
C4_4 C 0.2189(3) 0.81033(16) 0.8947(2)
C7_4 C 0.4430(3) 0.79420(18) 0.9421(3)
H2_4 H 0.5171 0.8110 0.9799
C8_4 C 0.3324(3) 0.83449(17) 0.9463(2)
C10_4 C 0.4475(3) 0.73065(19) 0.8846(3)
C14_4 C 0.3407(3) 0.71412(18) 0.8209(3)
H5_4 H 0.3435 0.6745 0.7744
C20_4 C 0.5630(3) 0.6836(2) 0.8854(3)
H11_4 H 0.5516 0.6380 0.9230
H12_4 H 0.5777 0.6714 0.8158
H13_4 H 0.6348 0.7109 0.9177
S1_4 S 0.25974(9) 0.96616(6) 0.69780(8)
C22_4 C 0.4033(4) 0.9185(3) 0.6902(4)
H17_4 H 0.3862 0.8668 0.6723
H18_4 H 0.4536 0.9210 0.7557
H19_4 H 0.4490 0.9417 0.6385
C23_4 C 0.2124(6) 0.9736(3) 0.5655(4)
H20_4 H 0.1879 0.9248 0.5384
H21_4 H 0.2819 0.9926 0.5309
P1_4 P 0.84526(7) 0.84374(4) 0.00775(6)
O2_4 O 0.8528(2) 0.76593(13) 0.0544(2)
C11_4 C 0.9787(3) 0.93438(17) 0.1386(3)
H3_4 H 0.9020 0.9381 0.1678
C17_4 C 0.9824(3) 0.89193(18) 0.0513(2)
C3_3 C 0.1316(3) 0.16476(18) 0.1215(3)
C5_3 C 0.0104(3) 0.17724(17) 0.1511(2)
C12_3 C 0.0081(3) 0.20788(18) 0.2476(3)
C15_3 C 0.2381(3) 0.1715(2) 0.1902(3)
H6_3 H 0.3170 0.1600 0.1682
C18_3 C 0.1171(3) 0.2156(2) 0.3138(3)
H10_3 H 0.1109 0.2362 0.3787
C19_3 C 0.2331(3) 0.1942(2) 0.2885(3)
C21_3 C 0.3475(4) 0.2008(3) 0.3631(4)
H14_3 H 0.3669 0.1525 0.3942
H15_3 H 0.3318 0.2366 0.4155
H16_3 H 0.4181 0.2175 0.3280
C16_3 C 0.9213(3) 0.9875(2) 0.7174(3)
H7_3 H 0.8417 0.9620 0.7007
H8_3 H 0.9891 0.9512 0.7242
C16_4 C 0.0787(3) 0.0125(2) 0.2826(3)
H7_4 H 0.1583 0.0380 0.2993
H8_4 H 0.0109 0.0488 0.2758
C3_4 C 0.8684(3) 0.83524(18) 0.8785(3)
C5_4 C 0.9896(3) 0.82276(17) 0.8489(2)
C12_4 C 0.9919(3) 0.79212(18) 0.7524(3)
C15_4 C 0.7619(3) 0.8285(2) 0.8098(3)
H6_4 H 0.6830 0.8400 0.8318
C18_4 C 0.8829(3) 0.7844(2) 0.6862(3)
H10_4 H 0.8891 0.7638 0.6213
C19_4 C 0.7669(3) 0.8058(2) 0.7115(3)
C21_4 C 0.6525(4) 0.7992(3) 0.6369(4)
H14_4 H 0.6331 0.8475 0.6058
H15_4 H 0.6682 0.7634 0.5845
H16_4 H 0.5819 0.7825 0.6720
loop_
_geom_bond_atom_site_label_1
_geom_bond_atom_site_label_2
_geom_bond_site_symmetry_1
_geom_bond_site_symmetry_2
H11 C20 1_555 1_555
H12 C20 1_555 1_555
H13 C20 1_555 1_555
Cu1 O6 1_555 1_555
P1 O1 1_555 1_555
P2 O3 1_555 1_555
P3 O4 1_555 1_555
O1 Cu4 1_555 1_555
O2 P1 1_555 1_555
O4 H1 1_555 1_555
O5 P3 1_555 1_555
O6 P2 1_555 1_555
N1 C1 1_555 1_555
C1 C6 1_555 1_555
C2 P3 1_555 1_555
C3 P1 1_555 1_555
C4 N1 1_555 1_555
C5 N1 1_555 1_555
C6 P2 1_555 1_555
C8 P2 1_555 1_555
C9 C11 1_555 1_555
C10 C7 1_555 1_555
C11 H3 1_555 1_555
C12 P3 1_555 1_555
C13 C6 1_555 1_555
H4 C13 1_555 1_555
C14 C2 1_555 1_555
H5 C14 1_555 1_555
C15 C3 1_555 1_555
H6 C15 1_555 1_555
C16 C9 1_555 1_555
H7 C16 1_555 1_555
H8 C16 1_555 1_555
H9 C16 1_555 1_555
C17 P1 1_555 1_555
C18 C12 1_555 1_555
H10 C18 1_555 1_555
C19 C15 1_555 1_555
C21 C19 1_555 1_555
H14 C21 1_555 1_555
H15 C21 1_555 1_555
H16 C21 1_555 1_555
S1 O7 1_555 1_555
O7 Cu1 1_555 1_555
C22 S1 1_555 1_555
H17 C22 1_555 1_555
H18 C22 1_555 1_555
H19 C22 1_555 1_555
C23 S1 1_555 1_555
H20 C23 1_555 1_555
H21 C23 1_555 1_555
H22 C23 1_555 1_555
Cu2 O5 1_555 1_555
O8 Cu1 1_555 1_555
O10 Cu1 1_555 1_555
C1 C17 1_555 1_555
C2 C4 1_555 1_555
C3 C5 1_555 1_555
C4 C8 1_555 1_555
C5 C12 1_555 1_555
C7 C8 1_555 1_555
C9 C13 1_555 1_555
C10 C14 1_555 1_555
C11 C17 1_555 1_555
C18 C19 1_555 1_555
P1_2 O1_2 1_555 1_555
O1_2 Cu3 1_555 1_555
O2_2 P1_2 1_555 1_555
C11_2 H3_2 1_555 1_555
C17_2 P1_2 1_555 1_555
C11_2 C17_2 1_555 1_555
P3_2 O4_2 1_555 1_555
O4_2 H1_2 1_555 1_555
O10 P3_2 1_555 1_555
O6_2 P2_2 1_555 1_555
C2_2 P3_2 1_555 1_555
C4_2 N1_2 1_555 1_555
C7_2 H2_2 1_555 1_555
C8_2 P2_2 1_555 1_555
C10_2 C7_2 1_555 1_555
C14_2 C2_2 1_555 1_555
H5_2 C14_2 1_555 1_555
C20_2 C10_2 1_555 1_555
H11_2 C20_2 1_555 1_555
H12_2 C20_2 1_555 1_555
H13_2 C20_2 1_555 1_555
C22_2 S1_2 1_555 1_555
H17_2 C22_2 1_555 1_555
H18_2 C22_2 1_555 1_555
H19_2 C22_2 1_555 1_555
C23_2 S1_2 1_555 1_555
H20_2 C23_2 1_555 1_555
H21_2 C23_2 1_555 1_555
C2_2 C4_2 1_555 1_555
C4_2 C8_2 1_555 1_555
C7_2 C8_2 1_555 1_555
C10_2 C14_2 1_555 1_555
O3_2 Cu3 1_555 1_555
C1_2 C6_2 1_555 1_555
C13_2 C6_2 1_555 1_555
H4_2 C13_2 1_555 1_555
C9_2 C13_2 1_555 1_555
O7_2 Cu2 1_555 1_555
O8_2 Cu2 1_555 1_555
O9_2 Cu2 1_555 1_555
Cu4 O6_3 1_555 1_555
P1_3 O8 1_555 1_555
P2_3 O9 1_555 1_555
P3_3 O4_3 1_555 1_555
O2_3 P1_3 1_555 1_555
O4_3 H1_3 1_555 1_555
O5_2 P3_3 1_555 1_555
O6_3 P2_3 1_555 1_555
N1_3 C1_3 1_555 1_555
C1_3 C6_3 1_555 1_555
C2_3 P3_3 1_555 1_555
C3_2 P1_3 1_555 1_555
C4_3 N1_3 1_555 1_555
C5_2 N1_3 1_555 1_555
C6_3 P2_3 1_555 1_555
C8_3 P2_3 1_555 1_555
C9_3 C11_3 1_555 1_555
C10_3 C7_3 1_555 1_555
C11_3 H3_3 1_555 1_555
C12_2 P3_3 1_555 1_555
C13_3 C6_3 1_555 1_555
H4_3 C13_3 1_555 1_555
C14_3 C2_3 1_555 1_555
H5_3 C14_3 1_555 1_555
C15_2 C3_2 1_555 1_555
H6_2 C15_2 1_555 1_555
C16_2 C9_3 1_555 1_555
H7_2 C16_2 1_555 1_555
H8_2 C16_2 1_555 1_555
H9_3 C16_2 1_555 1_555
C17_3 P1_3 1_555 1_555
C18_2 C12_2 1_555 1_555
H10_2 C18_2 1_555 1_555
C19_2 C15_2 1_555 1_555
C21_2 C19_2 1_555 1_555
H14_2 C21_2 1_555 1_555
H15_2 C21_2 1_555 1_555
H16_2 C21_2 1_555 1_555
S1_3 O7_3 1_555 1_555
O7_3 Cu4 1_555 1_555
C22_3 S1_3 1_555 1_555
H17_3 C22_3 1_555 1_555
H18_3 C22_3 1_555 1_555
H19_3 C22_3 1_555 1_555
C23_3 S1_3 1_555 1_555
H20_3 C23_3 1_555 1_555
H21_3 C23_3 1_555 1_555
H22_3 C23_3 1_555 1_555
Cu3 O5_2 1_555 1_555
O10_2 Cu4 1_555 1_555
C1_3 C17_3 1_555 1_555
C2_3 C4_3 1_555 1_555
C3_2 C5_2 1_555 1_555
C4_3 C8_3 1_555 1_555
C5_2 C12_2 1_555 1_555
C7_3 C8_3 1_555 1_555
C9_3 C13_3 1_555 1_555
C10_3 C14_3 1_555 1_555
C11_3 C17_3 1_555 1_555
C18_2 C19_2 1_555 1_555
H11_3 C20_3 1_555 1_555
H12_3 C20_3 1_555 1_555
H13_3 C20_3 1_555 1_555
O7_4 Cu3 1_555 1_555
C1_4 C6_4 1_555 1_555
C13_4 C6_4 1_555 1_555
H4_4 C13_4 1_555 1_555
C9_4 C13_4 1_555 1_555
P3_4 O4_4 1_555 1_555
O4_4 H1_4 1_555 1_555
O10_2 P3_4 1_555 1_555
O6_4 P2_4 1_555 1_555
C2_4 P3_4 1_555 1_555
C4_4 N1_4 1_555 1_555
C7_4 H2_4 1_555 1_555
C8_4 P2_4 1_555 1_555
C10_4 C7_4 1_555 1_555
C14_4 C2_4 1_555 1_555
H5_4 C14_4 1_555 1_555
C20_4 C10_4 1_555 1_555
H11_4 C20_4 1_555 1_555
H12_4 C20_4 1_555 1_555
H13_4 C20_4 1_555 1_555
C22_4 S1_4 1_555 1_555
H17_4 C22_4 1_555 1_555
H18_4 C22_4 1_555 1_555
H19_4 C22_4 1_555 1_555
C23_4 S1_4 1_555 1_555
H20_4 C23_4 1_555 1_555
H21_4 C23_4 1_555 1_555
C2_4 C4_4 1_555 1_555
C4_4 C8_4 1_555 1_555
C7_4 C8_4 1_555 1_555
C10_4 C14_4 1_555 1_555
P1_4 O8_2 1_555 1_555
O2_4 P1_4 1_555 1_555
C11_4 H3_4 1_555 1_555
C17_4 P1_4 1_555 1_555
C11_4 C17_4 1_555 1_555
C15_3 C3_3 1_555 1_555
H6_3 C15_3 1_555 1_555
C18_3 C12_3 1_555 1_555
H10_3 C18_3 1_555 1_555
C19_3 C15_3 1_555 1_555
C21_3 C19_3 1_555 1_555
H14_3 C21_3 1_555 1_555
H15_3 C21_3 1_555 1_555
H16_3 C21_3 1_555 1_555
C3_3 C5_3 1_555 1_555
C5_3 C12_3 1_555 1_555
C18_3 C19_3 1_555 1_555
H7_3 C16_3 1_555 1_555
H8_3 C16_3 1_555 1_555
H7_4 C16_4 1_555 1_555
H8_4 C16_4 1_555 1_555
C15_4 C3_4 1_555 1_555
H6_4 C15_4 1_555 1_555
C18_4 C12_4 1_555 1_555
H10_4 C18_4 1_555 1_555
C19_4 C15_4 1_555 1_555
C21_4 C19_4 1_555 1_555
H14_4 C21_4 1_555 1_555
H15_4 C21_4 1_555 1_555
H16_4 C21_4 1_555 1_555
C3_4 C5_4 1_555 1_555
C5_4 C12_4 1_555 1_555
C18_4 C19_4 1_555 1_555

#END
