
###############################################################################
#
# This file contains modified crystal structure data generated from the
# MOF subset of the Cambridge Structural Database (CSD) v543 
# hosted by the Cambridge Crystallographic Data Centre (CCDC).
#
# This work is licensed under the Creative Commons
# Attribution-NonCommercial-ShareAlike 4.0 International License.
# To view a copy of this license, visit
# http://creativecommons.org/licenses/by-nc-sa/4.0/
# or send a letter to
# Creative Commons, PO Box 1866, Mountain View, CA 94042, USA.
#
# CIF created using the CSD Python API on 29 September 2022
# The structure has been converted into the P1 space group
# The structure has a 3D framework
# The original CSD entry VUGQAS is in the monoclinic crystal system
# The framework has been calculated to contain at least 10.0% void space
# The void calculation uses a probe of radius 1.32A, grid spacing 0.4
#
###############################################################################

data_VUGQAS
_chemical_formula_moiety         '(C92 H88 Cu4 N4 O26 P12 S4)n'
_symmetry_cell_setting           triclinic
_symmetry_space_group_name_H-M   'P 1'
_symmetry_Int_Tables_number      1
_space_group_name_Hall           'P 1'
loop_
_symmetry_equiv_pos_site_id
_symmetry_equiv_pos_as_xyz
1 x,y,z
_cell_length_a                   10.817(6)
_cell_length_b                   18.163(10)
_cell_length_c                   13.340(8)
_cell_angle_alpha                90
_cell_angle_beta                 95.688(7)
_cell_angle_gamma                90
_cell_volume                     2607.99
loop_
_atom_site_label
_atom_site_type_symbol
_atom_site_fract_x
_atom_site_fract_y
_atom_site_fract_z
H6 H 0.0158 0.6899 0.4810
C18 C 0.0629(6) 0.8167(4) 0.3860(6)
H10 H 0.0573 0.8575 0.4335
H11 H 0.0688 0.8364 0.3183
H12 H 0.1368 0.7871 0.4067
O10 O 0.0562(4) 0.4357(3) 0.4214(4)
Cu4 Cu 0.12271(7) 0.57302(4) 0.62989(6)
P1 P 0.84174(13) 0.57499(8) 0.49610(12)
P2 P 0.34599(14) 0.65573(9) 0.50777(12)
P3 P 0.62398(14) 0.75474(9) 0.21401(13)
S1 S 0.76156(18) 0.53343(11) 0.19713(15)
O1 O 0.5900(4) 0.8332(3) 0.1892(4)
O2 O 0.8409(4) 0.5257(2) 0.4040(4)
O3 O 0.2282(4) 0.6146(3) 0.5209(4)
O4 O 0.3529(4) 0.7334(3) 0.5539(4)
H1 H 0.3034 0.7363 0.5985
O5 O 0.9438(4) 0.5643(3) 0.5786(4)
O6 O 0.6771(4) 0.7121(3) 0.1292(4)
O7 O 0.7967(5) 0.4536(3) 0.2261(4)
N1 N 0.6011(4) 0.6587(3) 0.4148(4)
C1 C 0.5919(5) 0.6138(3) 0.5035(5)
C2 C 0.5838(6) 0.5284(3) 0.6851(5)
C3 C 0.7287(5) 0.7471(3) 0.3240(5)
C4 C 0.7191(6) 0.6900(3) 0.3950(5)
C5 C 0.8325(5) 0.6657(3) 0.4473(5)
C6 C 0.6965(5) 0.5721(3) 0.5470(5)
C7 C 0.4800(6) 0.5651(3) 0.6376(5)
H2 H 0.4031 0.5607 0.6659
C8 C 0.3687(6) 0.6643(3) 0.3785(5)
C9 C 0.4895(5) 0.6771(3) 0.3494(5)
C10 C 0.4933(5) 0.7080(3) 0.2530(5)
C11 C 0.8397(6) 0.7856(3) 0.3217(5)
H3 H 0.8429 0.8250 0.2751
C12 C 0.6893(6) 0.5326(4) 0.6363(5)
H4 H 0.7614 0.5074 0.6646
C13 C 0.4834(6) 0.6075(4) 0.5518(5)
C14 C 0.2632(6) 0.6721(4) 0.3110(5)
H5 H 0.1844 0.6616 0.3334
C15 C 0.9422(6) 0.7063(4) 0.4428(5)
C16 C 0.9476(6) 0.7687(4) 0.3855(5)
C17 C 0.5790(6) 0.4871(4) 0.7822(5)
H7 H 0.6585 0.4621 0.7999
H8 H 0.5121 0.4506 0.7743
H9 H 0.5632 0.5217 0.8359
C19 C 0.3839(6) 0.7160(4) 0.1855(5)
H13 H 0.3899 0.7365 0.1206
C20 C 0.2684(6) 0.6947(4) 0.2126(5)
C21 C 0.1537(7) 0.7012(6) 0.1352(6)
H14 H 0.1671 0.7405 0.0871
H15 H 0.0806 0.7128 0.1701
H16 H 0.1403 0.6544 0.0991
C22 C 0.7134(10) 0.5255(6) 0.0637(7)
H17 H 0.7783 0.5004 0.0304
H18 H 0.6997 0.5748 0.0347
H19 H 0.6361 0.4971 0.0537
C23 C 0.9039(9) 0.5822(5) 0.1897(8)
H20 H 0.9503 0.5842 0.2566
H21 H 0.8858 0.6324 0.1656
H22 H 0.9538 0.5568 0.1429
Cu1 Cu 0.87729(7) 0.42698(4) 0.37011(6)
O8 O 0.9100(4) 0.3332(3) 0.3108(4)
O9 O 0.7718(4) 0.3854(3) 0.4791(4)
Cu2 Cu 0.62271(7) 0.92698(4) 0.12989(6)
P2_2 P 0.15401(14) 0.15573(9) 0.99223(12)
O3_2 O 0.2718(4) 0.1146(3) 0.9791(4)
O4_2 O 0.1471(4) 0.2334(3) 0.9461(4)
H1_2 H 0.1966 0.2363 0.9015
C7_2 C 0.0200(6) 0.0651(3) 0.8624(5)
H2_2 H 0.0969 0.0607 0.8341
C13_2 C 0.0166(6) 0.1075(4) 0.9482(5)
Cu3 Cu 0.37729(7) 0.07302(4) 0.87011(6)
P1_2 P 0.65826(13) 0.07499(8) 0.00390(12)
P3_2 P 0.87602(14) 0.25474(9) 0.28599(13)
S1_2 S 0.73844(18) 0.03343(11) 0.30287(15)
O2_2 O 0.6591(4) 0.0257(2) 0.0960(4)
O6_2 O 0.8229(4) 0.2121(3) 0.3708(4)
N1_2 N 0.8989(4) 0.1587(3) 0.0852(4)
C3_2 C 0.7713(5) 0.2471(3) 0.1760(5)
C4_2 C 0.7809(6) 0.1900(3) 0.1050(5)
C5_2 C 0.6675(5) 0.1657(3) 0.0527(5)
C11_2 C 0.6603(6) 0.2856(3) 0.1783(5)
H3_2 H 0.6571 0.3250 0.2249
C15_2 C 0.5578(6) 0.2063(4) 0.0572(5)
H6_2 H 0.4842 0.1899 0.0190
C16_2 C 0.5524(6) 0.2687(4) 0.1145(5)
C18_2 C 0.4371(6) 0.3167(4) 0.1140(6)
H10_2 H 0.4427 0.3575 0.0665
H11_2 H 0.4312 0.3364 0.1817
H12_2 H 0.3632 0.2871 0.0933
C22_2 C 0.7866(10) 0.0255(6) 0.4363(7)
H17_2 H 0.7217 0.0004 0.4696
H18_2 H 0.8003 0.0748 0.4653
C23_2 C 0.5961(9) 0.0822(5) 0.3103(8)
H20_2 H 0.5497 0.0842 0.2434
H21_2 H 0.6142 0.1324 0.3344
H22_2 H 0.5462 0.0568 0.3571
O5_2 O 0.5562(4) 0.0643(3) 0.9214(4)
C1_2 C 0.9081(5) 0.1138(3) 0.9965(5)
C2_2 C 0.9162(6) 0.0284(3) 0.8149(5)
C6_2 C 0.8035(5) 0.0721(3) 0.9530(5)
C12_2 C 0.8107(6) 0.0326(4) 0.8637(5)
H4_2 H 0.7386 0.0074 0.8354
H9_2 H 0.9368 0.0217 0.6641
O7_2 O 0.7033(5) 0.9536(3) 0.2739(4)
H19_2 H 0.8639 0.9971 0.4463
O9_2 O 0.7282(4) 0.8854(3) 0.0209(4)
O10_2 O 0.4438(4) 0.9357(3) 0.0786(4)
P1_3 P 0.15826(13) 0.42501(8) 0.50390(12)
P2_3 P 0.65401(14) 0.34427(9) 0.49223(12)
P3_3 P 0.37602(14) 0.24526(9) 0.78599(13)
S1_3 S 0.23844(18) 0.46657(11) 0.80287(15)
O1_2 O 0.4100(4) 0.1668(3) 0.8108(4)
O2_3 O 0.1591(4) 0.4743(2) 0.5960(4)
O4_3 O 0.6471(4) 0.2666(3) 0.4461(4)
H1_3 H 0.6966 0.2637 0.4015
O6_3 O 0.3229(4) 0.2879(3) 0.8708(4)
O7_3 O 0.2033(5) 0.5464(3) 0.7739(4)
N1_3 N 0.3989(4) 0.3413(3) 0.5852(4)
C1_3 C 0.4081(5) 0.3862(3) 0.4965(5)
C2_3 C 0.4162(6) 0.4716(3) 0.3149(5)
C3_3 C 0.2713(5) 0.2529(3) 0.6760(5)
C4_3 C 0.2809(6) 0.3100(3) 0.6050(5)
C5_3 C 0.1675(5) 0.3343(3) 0.5527(5)
C6_3 C 0.3035(5) 0.4279(3) 0.4530(5)
C7_3 C 0.5200(6) 0.4349(3) 0.3624(5)
H2_3 H 0.5969 0.4393 0.3341
C8_2 C 0.6313(6) 0.3357(3) 0.6215(5)
C9_2 C 0.5105(5) 0.3229(3) 0.6506(5)
C10_2 C 0.5067(5) 0.2920(3) 0.7470(5)
C11_3 C 0.1603(6) 0.2144(3) 0.6783(5)
H3_3 H 0.1571 0.1750 0.7249
C12_3 C 0.3107(6) 0.4674(4) 0.3637(5)
H4_3 H 0.2386 0.4926 0.3354
C13_3 C 0.5166(6) 0.3925(4) 0.4482(5)
C14_2 C 0.7368(6) 0.3279(4) 0.6890(5)
H5_2 H 0.8156 0.3384 0.6666
C15_3 C 0.0578(6) 0.2937(4) 0.5572(5)
C16_3 C 0.0524(6) 0.2313(4) 0.6145(5)
C17_2 C 0.4210(6) 0.5129(4) 0.2178(5)
H7_2 H 0.3415 0.5379 0.2001
H8_2 H 0.4879 0.5494 0.2257
H9_3 H 0.4368 0.4783 0.1641
C19_2 C 0.6161(6) 0.2840(4) 0.8145(5)
H13_2 H 0.6101 0.2635 0.8794
C20_2 C 0.7316(6) 0.3053(4) 0.7874(5)
C21_2 C 0.8463(7) 0.2988(6) 0.8648(6)
H14_2 H 0.8329 0.2595 0.9129
H15_2 H 0.9194 0.2872 0.8299
H16_2 H 0.8597 0.3456 0.9009
C22_3 C 0.2866(10) 0.4745(6) 0.9363(7)
H17_3 H 0.2217 0.4996 0.9696
H18_3 H 0.3003 0.4252 0.9653
H19_3 H 0.3639 0.5029 0.9463
C23_3 C 0.0961(9) 0.4178(5) 0.8103(8)
H20_3 H 0.0497 0.4158 0.7434
H21_3 H 0.1142 0.3676 0.8344
H22_3 H 0.0462 0.4432 0.8571
O8_2 O 0.0900(4) 0.6668(3) 0.6892(4)
H6_3 H 0.9842 0.3101 0.5190
C18_3 C 0.9371(6) 0.1833(4) 0.6140(6)
H10_3 H 0.9427 0.1425 0.5665
H11_3 H 0.9312 0.1636 0.6817
H12_3 H 0.8632 0.2129 0.5933
O7_4 O 0.2967(5) 0.0464(3) 0.7261(4)
H19_4 H 0.1361 0.0029 0.5537
C1_4 C 0.0919(5) 0.8862(3) 0.0035(5)
C2_4 C 0.0838(6) 0.9716(3) 0.1851(5)
C6_4 C 0.1965(5) 0.9279(3) 0.0470(5)
C12_4 C 0.1893(6) 0.9674(4) 0.1363(5)
H4_4 H 0.2614 0.9926 0.1646
H9_4 H 0.0632 0.9783 0.3359
P1_4 P 0.34174(13) 0.92501(8) 0.99610(12)
P3_4 P 0.12398(14) 0.74526(9) 0.71401(13)
S1_4 S 0.26156(18) 0.96657(11) 0.69713(15)
O2_4 O 0.3409(4) 0.9743(2) 0.9040(4)
O6_4 O 0.1771(4) 0.7879(3) 0.6292(4)
N1_4 N 0.1011(4) 0.8413(3) 0.9148(4)
C3_4 C 0.2287(5) 0.7529(3) 0.8240(5)
C4_4 C 0.2191(6) 0.8100(3) 0.8950(5)
C5_4 C 0.3325(5) 0.8343(3) 0.9473(5)
C11_4 C 0.3397(6) 0.7144(3) 0.8217(5)
H3_4 H 0.3429 0.6750 0.7751
C15_4 C 0.4422(6) 0.7937(4) 0.9428(5)
H6_4 H 0.5158 0.8101 0.9810
C16_4 C 0.4476(6) 0.7313(4) 0.8855(5)
C18_4 C 0.5629(6) 0.6833(4) 0.8860(6)
H10_4 H 0.5573 0.6425 0.9335
H11_4 H 0.5688 0.6636 0.8183
H12_4 H 0.6368 0.7129 0.9067
C22_4 C 0.2134(10) 0.9745(6) 0.5637(7)
H17_4 H 0.2783 0.9996 0.5304
H18_4 H 0.1997 0.9252 0.5347
C23_4 C 0.4039(9) 0.9178(5) 0.6897(8)
H20_4 H 0.4503 0.9158 0.7566
H21_4 H 0.3858 0.8676 0.6656
H22_4 H 0.4538 0.9432 0.6429
P2_4 P 0.84599(14) 0.84427(9) 0.00777(12)
O4_4 O 0.8529(4) 0.7666(3) 0.0539(4)
H1_4 H 0.8034 0.7637 0.0985
C7_4 C 0.9800(6) 0.9349(3) 0.1376(5)
H2_4 H 0.9031 0.9393 0.1659
C13_4 C 0.9834(6) 0.8925(4) 0.0518(5)
C8_3 C 0.1313(6) 0.1643(3) 0.1215(5)
C9_3 C 0.0105(5) 0.1771(3) 0.1506(5)
C10_3 C 0.0067(5) 0.2080(3) 0.2470(5)
C14_3 C 0.2368(6) 0.1721(4) 0.1890(5)
H5_3 H 0.3156 0.1616 0.1666
C19_3 C 0.1161(6) 0.2160(4) 0.3145(5)
H13_3 H 0.1101 0.2365 0.3794
C20_3 C 0.2316(6) 0.1947(4) 0.2874(5)
C21_3 C 0.3463(7) 0.2012(6) 0.3648(6)
H14_3 H 0.3329 0.2405 0.4129
H15_3 H 0.4194 0.2128 0.3299
H16_3 H 0.3597 0.1544 0.4009
C17_3 C 0.9210(6) 0.9871(4) 0.7178(5)
H7_3 H 0.8415 0.9621 0.7001
H8_3 H 0.9879 0.9506 0.7257
C17_4 C 0.0790(6) 0.0129(4) 0.2822(5)
H7_4 H 0.1585 0.0379 0.2999
H8_4 H 0.0121 0.0494 0.2743
C8_4 C 0.8687(6) 0.8357(3) 0.8785(5)
C9_4 C 0.9895(5) 0.8229(3) 0.8494(5)
C10_4 C 0.9933(5) 0.7920(3) 0.7530(5)
C14_4 C 0.7632(6) 0.8279(4) 0.8110(5)
H5_4 H 0.6844 0.8384 0.8334
C19_4 C 0.8839(6) 0.7840(4) 0.6855(5)
H13_4 H 0.8899 0.7635 0.6206
C20_4 C 0.7684(6) 0.8053(4) 0.7126(5)
C21_4 C 0.6537(7) 0.7988(6) 0.6352(6)
H14_4 H 0.6671 0.7595 0.5871
H15_4 H 0.5806 0.7872 0.6701
H16_4 H 0.6403 0.8456 0.5991
loop_
_geom_bond_atom_site_label_1
_geom_bond_atom_site_label_2
_geom_bond_site_symmetry_1
_geom_bond_site_symmetry_2
H10 C18 1_555 1_555
H11 C18 1_555 1_555
H12 C18 1_555 1_555
P1 O2 1_555 1_555
P2 O3 1_555 1_555
P3 O1 1_555 1_555
S1 O7 1_555 1_555
O1 Cu2 1_555 1_555
O2 Cu1 1_555 1_555
O3 Cu4 1_555 1_555
O4 P2 1_555 1_555
H1 O4 1_555 1_555
O5 P1 1_555 1_555
O6 P3 1_555 1_555
O7 Cu1 1_555 1_555
N1 C1 1_555 1_555
C1 C6 1_555 1_555
C2 C7 1_555 1_555
C3 P3 1_555 1_555
C4 N1 1_555 1_555
C5 P1 1_555 1_555
C6 P1 1_555 1_555
C7 H2 1_555 1_555
C8 P2 1_555 1_555
C9 N1 1_555 1_555
C10 P3 1_555 1_555
C11 C3 1_555 1_555
H3 C11 1_555 1_555
C12 C2 1_555 1_555
H4 C12 1_555 1_555
C13 P2 1_555 1_555
C14 C8 1_555 1_555
H5 C14 1_555 1_555
C15 C5 1_555 1_555
C16 C11 1_555 1_555
C17 C2 1_555 1_555
H7 C17 1_555 1_555
H8 C17 1_555 1_555
H9 C17 1_555 1_555
C19 C10 1_555 1_555
H13 C19 1_555 1_555
C20 C14 1_555 1_555
C21 C20 1_555 1_555
H14 C21 1_555 1_555
H15 C21 1_555 1_555
H16 C21 1_555 1_555
C22 S1 1_555 1_555
H17 C22 1_555 1_555
H18 C22 1_555 1_555
H19 C22 1_555 1_555
C23 S1 1_555 1_555
H20 C23 1_555 1_555
H21 C23 1_555 1_555
H22 C23 1_555 1_555
Cu1 O8 1_555 1_555
O9 Cu1 1_555 1_555
C1 C13 1_555 1_555
C3 C4 1_555 1_555
C4 C5 1_555 1_555
C6 C12 1_555 1_555
C7 C13 1_555 1_555
C8 C9 1_555 1_555
C9 C10 1_555 1_555
C15 C16 1_555 1_555
C19 C20 1_555 1_555
P2_2 O3_2 1_555 1_555
O3_2 Cu3 1_555 1_555
O4_2 P2_2 1_555 1_555
H1_2 O4_2 1_555 1_555
C7_2 H2_2 1_555 1_555
C13_2 P2_2 1_555 1_555
C7_2 C13_2 1_555 1_555
P1_2 O2_2 1_555 1_555
P3_2 O8 1_555 1_555
O6_2 P3_2 1_555 1_555
C3_2 P3_2 1_555 1_555
C4_2 N1_2 1_555 1_555
C5_2 P1_2 1_555 1_555
C11_2 C3_2 1_555 1_555
H3_2 C11_2 1_555 1_555
C15_2 C5_2 1_555 1_555
H6_2 C15_2 1_555 1_555
C16_2 C11_2 1_555 1_555
C18_2 C16_2 1_555 1_555
H10_2 C18_2 1_555 1_555
H11_2 C18_2 1_555 1_555
H12_2 C18_2 1_555 1_555
C22_2 S1_2 1_555 1_555
H17_2 C22_2 1_555 1_555
H18_2 C22_2 1_555 1_555
C23_2 S1_2 1_555 1_555
H20_2 C23_2 1_555 1_555
H21_2 C23_2 1_555 1_555
H22_2 C23_2 1_555 1_555
C3_2 C4_2 1_555 1_555
C4_2 C5_2 1_555 1_555
C15_2 C16_2 1_555 1_555
C1_2 C6_2 1_555 1_555
C12_2 C2_2 1_555 1_555
H4_2 C12_2 1_555 1_555
Cu3 O5_2 1_555 1_555
C6_2 C12_2 1_555 1_555
O7_2 Cu2 1_555 1_555
O9_2 Cu2 1_555 1_555
O10_2 Cu2 1_555 1_555
P1_3 O2_3 1_555 1_555
P2_3 O9 1_555 1_555
P3_3 O1_2 1_555 1_555
S1_3 O7_3 1_555 1_555
O1_2 Cu3 1_555 1_555
O2_3 Cu4 1_555 1_555
O4_3 P2_3 1_555 1_555
H1_3 O4_3 1_555 1_555
O10 P1_3 1_555 1_555
O6_3 P3_3 1_555 1_555
O7_3 Cu4 1_555 1_555
N1_3 C1_3 1_555 1_555
C1_3 C6_3 1_555 1_555
C2_3 C7_3 1_555 1_555
C3_3 P3_3 1_555 1_555
C4_3 N1_3 1_555 1_555
C5_3 P1_3 1_555 1_555
C6_3 P1_3 1_555 1_555
C7_3 H2_3 1_555 1_555
C8_2 P2_3 1_555 1_555
C9_2 N1_3 1_555 1_555
C10_2 P3_3 1_555 1_555
C11_3 C3_3 1_555 1_555
H3_3 C11_3 1_555 1_555
C12_3 C2_3 1_555 1_555
H4_3 C12_3 1_555 1_555
C13_3 P2_3 1_555 1_555
C14_2 C8_2 1_555 1_555
H5_2 C14_2 1_555 1_555
C15_3 C5_3 1_555 1_555
C16_3 C11_3 1_555 1_555
C17_2 C2_3 1_555 1_555
H7_2 C17_2 1_555 1_555
H8_2 C17_2 1_555 1_555
H9_3 C17_2 1_555 1_555
C19_2 C10_2 1_555 1_555
H13_2 C19_2 1_555 1_555
C20_2 C14_2 1_555 1_555
C21_2 C20_2 1_555 1_555
H14_2 C21_2 1_555 1_555
H15_2 C21_2 1_555 1_555
H16_2 C21_2 1_555 1_555
C22_3 S1_3 1_555 1_555
H17_3 C22_3 1_555 1_555
H18_3 C22_3 1_555 1_555
H19_3 C22_3 1_555 1_555
C23_3 S1_3 1_555 1_555
H20_3 C23_3 1_555 1_555
H21_3 C23_3 1_555 1_555
H22_3 C23_3 1_555 1_555
Cu4 O8_2 1_555 1_555
C1_3 C13_3 1_555 1_555
C3_3 C4_3 1_555 1_555
C4_3 C5_3 1_555 1_555
C6_3 C12_3 1_555 1_555
C7_3 C13_3 1_555 1_555
C8_2 C9_2 1_555 1_555
C9_2 C10_2 1_555 1_555
C15_3 C16_3 1_555 1_555
C19_2 C20_2 1_555 1_555
H10_3 C18_3 1_555 1_555
H11_3 C18_3 1_555 1_555
H12_3 C18_3 1_555 1_555
O7_4 Cu3 1_555 1_555
C1_4 C6_4 1_555 1_555
C12_4 C2_4 1_555 1_555
H4_4 C12_4 1_555 1_555
C6_4 C12_4 1_555 1_555
P1_4 O2_4 1_555 1_555
P3_4 O8_2 1_555 1_555
O6_4 P3_4 1_555 1_555
C3_4 P3_4 1_555 1_555
C4_4 N1_4 1_555 1_555
C5_4 P1_4 1_555 1_555
C11_4 C3_4 1_555 1_555
H3_4 C11_4 1_555 1_555
C15_4 C5_4 1_555 1_555
H6_4 C15_4 1_555 1_555
C16_4 C11_4 1_555 1_555
C18_4 C16_4 1_555 1_555
H10_4 C18_4 1_555 1_555
H11_4 C18_4 1_555 1_555
H12_4 C18_4 1_555 1_555
C22_4 S1_4 1_555 1_555
H17_4 C22_4 1_555 1_555
H18_4 C22_4 1_555 1_555
C23_4 S1_4 1_555 1_555
H20_4 C23_4 1_555 1_555
H21_4 C23_4 1_555 1_555
H22_4 C23_4 1_555 1_555
C3_4 C4_4 1_555 1_555
C4_4 C5_4 1_555 1_555
C15_4 C16_4 1_555 1_555
P2_4 O9_2 1_555 1_555
O4_4 P2_4 1_555 1_555
H1_4 O4_4 1_555 1_555
C7_4 H2_4 1_555 1_555
C13_4 P2_4 1_555 1_555
C7_4 C13_4 1_555 1_555
C14_3 C8_3 1_555 1_555
H5_3 C14_3 1_555 1_555
C19_3 C10_3 1_555 1_555
H13_3 C19_3 1_555 1_555
C20_3 C14_3 1_555 1_555
C21_3 C20_3 1_555 1_555
H14_3 C21_3 1_555 1_555
H15_3 C21_3 1_555 1_555
H16_3 C21_3 1_555 1_555
C8_3 C9_3 1_555 1_555
C9_3 C10_3 1_555 1_555
C19_3 C20_3 1_555 1_555
H7_3 C17_3 1_555 1_555
H8_3 C17_3 1_555 1_555
H7_4 C17_4 1_555 1_555
H8_4 C17_4 1_555 1_555
C14_4 C8_4 1_555 1_555
H5_4 C14_4 1_555 1_555
C19_4 C10_4 1_555 1_555
H13_4 C19_4 1_555 1_555
C20_4 C14_4 1_555 1_555
C21_4 C20_4 1_555 1_555
H14_4 C21_4 1_555 1_555
H15_4 C21_4 1_555 1_555
H16_4 C21_4 1_555 1_555
C8_4 C9_4 1_555 1_555
C9_4 C10_4 1_555 1_555
C19_4 C20_4 1_555 1_555

#END
