
###############################################################################
#
# This file contains modified crystal structure data generated from the
# MOF subset of the Cambridge Structural Database (CSD) v543 
# hosted by the Cambridge Crystallographic Data Centre (CCDC).
#
# This work is licensed under the Creative Commons
# Attribution-NonCommercial-ShareAlike 4.0 International License.
# To view a copy of this license, visit
# http://creativecommons.org/licenses/by-nc-sa/4.0/
# or send a letter to
# Creative Commons, PO Box 1866, Mountain View, CA 94042, USA.
#
# CIF created using the CSD Python API on 29 September 2022
# The structure has been converted into the P1 space group
# The structure has a 3D framework
# The original CSD entry VUJSID is in the monoclinic crystal system
# The framework has been calculated to contain at least 10.0% void space
# The void calculation uses a probe of radius 1.32A, grid spacing 0.4
#
###############################################################################

data_VUJSID
_chemical_formula_moiety         '(C80 H56 N6 O32 Zn8)n'
_symmetry_cell_setting           triclinic
_symmetry_space_group_name_H-M   'P 1'
_symmetry_Int_Tables_number      1
_space_group_name_Hall           'P 1'
loop_
_symmetry_equiv_pos_site_id
_symmetry_equiv_pos_as_xyz
1 x,y,z
_cell_length_a                   16.4332(9)
_cell_length_b                   10.7749(9)
_cell_length_c                   13.7840(12)
_cell_angle_alpha                90
_cell_angle_beta                 104.979(7)
_cell_angle_gamma                90
_cell_volume                     2357.75
loop_
_atom_site_label
_atom_site_type_symbol
_atom_site_fract_x
_atom_site_fract_y
_atom_site_fract_z
_atom_site_U_iso_or_equiv
_atom_site_thermal_displace_type
Zn7 Zn 0.15574(16) 0.7453(6) 0.48513(28) 0.1012 Uiso
N2 N 0.03313(26) 0.7359(12) 0.4821(7) 0.0883 Uiso
H10 H 0.0323(4) 0.8878(12) 0.5604(10) 0.1766 Uiso
H13 H 0.0060(6) 0.5851(13) 0.3996(10) 0.1766 Uiso
Zn4 Zn 0.34426(16) 0.2453(6) 0.01487(28) 0.1012 Uiso
Zn6 Zn 0.15574(16) 0.2547(6) 0.98513(28) 0.1012 Uiso
C12 C 0.2764(6) 0.0050(6) 0.7159(5) 0.0844 Uiso
H8 H 0.3327(6) 0.0251(13) 0.7505(8) 0.1689 Uiso
C13 C 0.2139(6) 0.0466(7) 0.7507(5) 0.0844 Uiso
H9 H 0.1577(6) 0.0278(13) 0.7147(9) 0.1689 Uiso
C14 C 0.2278(6) 0.1253(6) 0.8423(5) 0.0844 Uiso
O7 O 0.1656(6) 0.1427(10) 0.8762(7) 0.0844 Uiso
O10 O 0.3021(6) 0.1603(10) 0.8821(7) 0.0844 Uiso
Zn1 Zn 0.34426(16) 0.7547(6) 0.51487(28) 0.1012 Uiso
O1 O 0.3154(7) 0.5966(10) 0.4207(7) 0.0844 Uiso
O2 O 0.1778(7) 0.5882(12) 0.4126(8) 0.0844 Uiso
C1 C 0.2396(7) 0.5676(7) 0.3790(5) 0.0844 Uiso
C2 C 0.2236(6) 0.4950(6) 0.2841(5) 0.0844 Uiso
H1 H 0.1673(6) 0.4749(13) 0.2495(8) 0.1689 Uiso
C3 C 0.2861(6) 0.4534(7) 0.2493(5) 0.0844 Uiso
H2 H 0.3423(6) 0.4722(13) 0.2853(9) 0.1689 Uiso
C4 C 0.2722(6) 0.3747(6) 0.1577(5) 0.0844 Uiso
O3 O 0.3344(6) 0.3573(10) 0.1238(7) 0.0844 Uiso
O4 O 0.1979(6) 0.3397(10) 0.1179(7) 0.0844 Uiso
N1 N 0.46687(26) 0.7641(12) 0.5179(7) 0.0883 Uiso
C5 C 0.50269(27) 0.6760(11) 0.4757(6) 0.0883 Uiso
H3 H 0.4677(4) 0.6122(12) 0.4396(10) 0.1766 Uiso
C6 C 0.58754(27) 0.6735(7) 0.4784(5) 0.0883 Uiso
H4 H 0.6091(4) 0.6104(8) 0.4439(7) 0.1766 Uiso
C7 C 0.63927(23) 0.7675(6) 0.5263(5) 0.0883 Uiso
C8 C 0.6035(4) 0.8553(7) 0.5755(5) 0.0883 Uiso
H5 H 0.6370(5) 0.9205(7) 0.6115(8) 0.1766 Uiso
C9 C 0.5174(4) 0.8532(10) 0.5663(8) 0.0883 Uiso
H6 H 0.4940(6) 0.9149(13) 0.6004(10) 0.1766 Uiso
C10 C 0.73036(15) 0.7751(6) 0.53251(28) 0.0883 Uiso
H7 H 0.76401(30) 0.8225(18) 0.5862(11) 0.1766 Uiso
O5 O 0.1846(7) 0.9034(10) 0.5793(7) 0.0844 Uiso
O6 O 0.3222(7) 0.9118(12) 0.5874(8) 0.0844 Uiso
C11 C 0.2604(7) 0.9324(7) 0.6210(5) 0.0844 Uiso
O8 O 0.3344(6) 0.6427(10) 0.6238(7) 0.0844 Uiso
O9 O 0.1656(6) 0.8573(10) 0.3762(7) 0.0844 Uiso
O11 O 0.1979(6) 0.6603(10) 0.6179(7) 0.0844 Uiso
O12 O 0.3021(6) 0.8397(10) 0.3821(7) 0.0844 Uiso
C15 C 0.99731(27) 0.8240(11) 0.5243(6) 0.0883 Uiso
C16 C 0.91246(27) 0.8265(7) 0.5216(5) 0.0883 Uiso
H11 H 0.8909(4) 0.8896(8) 0.5561(7) 0.1766 Uiso
C17 C 0.86073(23) 0.7325(6) 0.4737(5) 0.0883 Uiso
C18 C 0.8965(4) 0.6447(7) 0.4245(5) 0.0883 Uiso
H12 H 0.8630(5) 0.5795(7) 0.3885(8) 0.1766 Uiso
C19 C 0.9826(4) 0.6468(10) 0.4337(8) 0.0883 Uiso
C20 C 0.76964(15) 0.7249(6) 0.46749(28) 0.0883 Uiso
H14 H 0.73599(30) 0.6775(18) 0.4138(11) 0.1766 Uiso
O1_2 O 0.1846(7) 0.0966(10) 0.0793(7) 0.0844 Uiso
O2_2 O 0.3222(7) 0.0882(12) 0.0874(8) 0.0844 Uiso
C1_2 C 0.2604(7) 0.0676(7) 0.1210(5) 0.0844 Uiso
H3_2 H 0.0323(4) 0.1122(12) 0.0604(10) 0.1766 Uiso
N3 N 0.46687(26) 0.2359(12) 0.0179(7) 0.0883 Uiso
N1_2 N 0.03313(26) 0.2641(12) 0.9821(7) 0.0883 Uiso
H6_2 H 0.0060(6) 0.4149(13) 0.8996(10) 0.1766 Uiso
O5_2 O 0.3154(7) 0.4034(10) 0.9207(7) 0.0844 Uiso
O6_2 O 0.1778(7) 0.4118(12) 0.9126(8) 0.0844 Uiso
C11_2 C 0.2396(7) 0.4324(7) 0.8790(5) 0.0844 Uiso
C12_2 C 0.2236(6) 0.5050(6) 0.7841(5) 0.0844 Uiso
H8_2 H 0.1673(6) 0.5251(13) 0.7495(8) 0.1689 Uiso
C13_2 C 0.2861(6) 0.5466(7) 0.7493(5) 0.0844 Uiso
H9_2 H 0.3423(6) 0.5278(13) 0.7853(9) 0.1689 Uiso
C14_2 C 0.2722(6) 0.6253(6) 0.6577(5) 0.0844 Uiso
C2_2 C 0.2764(6) 0.9950(6) 0.2159(5) 0.0844 Uiso
H1_2 H 0.3327(6) 0.9749(13) 0.2505(8) 0.1689 Uiso
C3_2 C 0.2139(6) 0.9534(7) 0.2507(5) 0.0844 Uiso
H2_2 H 0.1577(6) 0.9722(13) 0.2147(9) 0.1689 Uiso
C4_2 C 0.2278(6) 0.8747(6) 0.3423(5) 0.0844 Uiso
C5_2 C 0.99731(27) 0.1760(11) 0.0243(6) 0.0883 Uiso
C6_2 C 0.91246(27) 0.1735(7) 0.0216(5) 0.0883 Uiso
H4_2 H 0.8909(4) 0.1104(8) 0.0561(7) 0.1766 Uiso
C17_2 C 0.63927(23) 0.2325(6) 0.0263(5) 0.0883 Uiso
C18_2 C 0.6035(4) 0.1447(7) 0.0755(5) 0.0883 Uiso
H12_2 H 0.6370(5) 0.0795(7) 0.1115(8) 0.1766 Uiso
C19_2 C 0.5174(4) 0.1468(10) 0.0663(8) 0.0883 Uiso
H13_2 H 0.4940(6) 0.0851(13) 0.1004(10) 0.1766 Uiso
C20_2 C 0.73036(15) 0.2249(6) 0.03251(28) 0.0883 Uiso
H14_2 H 0.76401(30) 0.1775(18) 0.0862(11) 0.1766 Uiso
C7_2 C 0.86073(23) 0.2675(6) 0.9737(5) 0.0883 Uiso
C8_2 C 0.8965(4) 0.3553(7) 0.9245(5) 0.0883 Uiso
H5_2 H 0.8630(5) 0.4205(7) 0.8885(8) 0.1766 Uiso
C9_2 C 0.9826(4) 0.3532(10) 0.9337(8) 0.0883 Uiso
C10_2 C 0.76964(15) 0.2751(6) 0.96749(28) 0.0883 Uiso
H7_2 H 0.73599(30) 0.3225(18) 0.9138(11) 0.1766 Uiso
C15_2 C 0.50269(27) 0.3240(11) 0.9757(6) 0.0883 Uiso
H10_2 H 0.4677(4) 0.3878(12) 0.9396(10) 0.1766 Uiso
C16_2 C 0.58754(27) 0.3265(7) 0.9784(5) 0.0883 Uiso
H11_2 H 0.6091(4) 0.3896(8) 0.9439(7) 0.1766 Uiso
Zn4_2 Zn 0.65574(16) 0.2453(6) 0.48513(28) 0.1012 Uiso
Zn6_2 Zn 0.84426(16) 0.2547(6) 0.51487(28) 0.1012 Uiso
C12_3 C 0.7236(6) 0.0050(6) 0.7841(5) 0.0844 Uiso
H8_3 H 0.6673(6) 0.0251(13) 0.7495(8) 0.1689 Uiso
C13_3 C 0.7861(6) 0.0466(7) 0.7493(5) 0.0844 Uiso
H9_3 H 0.8423(6) 0.0278(13) 0.7853(9) 0.1689 Uiso
C14_3 C 0.7722(6) 0.1253(6) 0.6577(5) 0.0844 Uiso
O7_2 O 0.8344(6) 0.1427(10) 0.6238(7) 0.0844 Uiso
O10_2 O 0.6979(6) 0.1603(10) 0.6179(7) 0.0844 Uiso
O1_3 O 0.6846(7) 0.5966(10) 0.0793(7) 0.0844 Uiso
O2_3 O 0.8222(7) 0.5882(12) 0.0874(8) 0.0844 Uiso
C1_3 C 0.7604(7) 0.5676(7) 0.1210(5) 0.0844 Uiso
C2_3 C 0.7764(6) 0.4950(6) 0.2159(5) 0.0844 Uiso
H1_3 H 0.8327(6) 0.4749(13) 0.2505(8) 0.1689 Uiso
C3_3 C 0.7139(6) 0.4534(7) 0.2507(5) 0.0844 Uiso
H2_3 H 0.6577(6) 0.4722(13) 0.2147(9) 0.1689 Uiso
C4_3 C 0.7278(6) 0.3747(6) 0.3423(5) 0.0844 Uiso
O3_2 O 0.6656(6) 0.3573(10) 0.3762(7) 0.0844 Uiso
O4_2 O 0.8021(6) 0.3397(10) 0.3821(7) 0.0844 Uiso
C5_3 C 0.49731(27) 0.6760(11) 0.0243(6) 0.0883 Uiso
H3_3 H 0.5323(4) 0.6122(12) 0.0604(10) 0.1766 Uiso
C6_3 C 0.41246(27) 0.6735(7) 0.0216(5) 0.0883 Uiso
H4_3 H 0.3909(4) 0.6104(8) 0.0561(7) 0.1766 Uiso
Zn2 Zn 0.84426(16) 0.7453(6) 0.01487(28) 0.1012 Uiso
O9_2 O 0.8344(6) 0.8573(10) 0.1238(7) 0.0844 Uiso
O12_2 O 0.6979(6) 0.8397(10) 0.1179(7) 0.0844 Uiso
N3_2 N 0.96687(26) 0.7359(12) 0.0179(7) 0.0883 Uiso
C17_3 C 0.13927(23) 0.7325(6) 0.0263(5) 0.0883 Uiso
C18_3 C 0.1035(4) 0.6447(7) 0.0755(5) 0.0883 Uiso
H12_3 H 0.1370(5) 0.5795(7) 0.1115(8) 0.1766 Uiso
C19_3 C 0.0174(4) 0.6468(10) 0.0663(8) 0.0883 Uiso
C20_3 C 0.23036(15) 0.7249(6) 0.03251(28) 0.0883 Uiso
H14_3 H 0.26401(30) 0.6775(18) 0.0862(11) 0.1766 Uiso
Zn1_2 Zn 0.65574(16) 0.7547(6) 0.98513(28) 0.1012 Uiso
N1_3 N 0.53313(26) 0.7641(12) 0.9821(7) 0.0883 Uiso
C7_3 C 0.36073(23) 0.7675(6) 0.9737(5) 0.0883 Uiso
C8_3 C 0.3965(4) 0.8553(7) 0.9245(5) 0.0883 Uiso
H5_3 H 0.3630(5) 0.9205(7) 0.8885(8) 0.1766 Uiso
C9_3 C 0.4826(4) 0.8532(10) 0.9337(8) 0.0883 Uiso
H6_3 H 0.5060(6) 0.9149(13) 0.8996(10) 0.1766 Uiso
C10_3 C 0.26964(15) 0.7751(6) 0.96749(28) 0.0883 Uiso
H7_3 H 0.23599(30) 0.8225(18) 0.9138(11) 0.1766 Uiso
O5_3 O 0.8154(7) 0.9034(10) 0.9207(7) 0.0844 Uiso
O6_3 O 0.6778(7) 0.9118(12) 0.9126(8) 0.0844 Uiso
C11_3 C 0.7396(7) 0.9324(7) 0.8790(5) 0.0844 Uiso
O8_2 O 0.6656(6) 0.6427(10) 0.8762(7) 0.0844 Uiso
O11_2 O 0.8021(6) 0.6603(10) 0.8821(7) 0.0844 Uiso
C15_3 C 0.00269(27) 0.8240(11) 0.9757(6) 0.0883 Uiso
C16_3 C 0.08754(27) 0.8265(7) 0.9784(5) 0.0883 Uiso
H11_3 H 0.1091(4) 0.8896(8) 0.9439(7) 0.1766 Uiso
H13_3 H 0.9940(6) 0.5851(13) 0.1004(10) 0.1766 Uiso
H10_3 H 0.9677(4) 0.8878(12) 0.9396(10) 0.1766 Uiso
C5_4 C 0.00269(27) 0.1760(11) 0.4757(6) 0.0883 Uiso
C6_4 C 0.08754(27) 0.1735(7) 0.4784(5) 0.0883 Uiso
H4_4 H 0.1091(4) 0.1104(8) 0.4439(7) 0.1766 Uiso
C7_4 C 0.13927(23) 0.2675(6) 0.5263(5) 0.0883 Uiso
C8_4 C 0.1035(4) 0.3553(7) 0.5755(5) 0.0883 Uiso
H5_4 H 0.1370(5) 0.4205(7) 0.6115(8) 0.1766 Uiso
C9_4 C 0.0174(4) 0.3532(10) 0.5663(8) 0.0883 Uiso
C10_4 C 0.23036(15) 0.2751(6) 0.53251(28) 0.0883 Uiso
H7_4 H 0.26401(30) 0.3225(18) 0.5862(11) 0.1766 Uiso
N2_2 N 0.53313(26) 0.2359(12) 0.4821(7) 0.0883 Uiso
C15_4 C 0.49731(27) 0.3240(11) 0.5243(6) 0.0883 Uiso
H10_4 H 0.5323(4) 0.3878(12) 0.5604(10) 0.1766 Uiso
C16_4 C 0.41246(27) 0.3265(7) 0.5216(5) 0.0883 Uiso
H11_4 H 0.3909(4) 0.3896(8) 0.5561(7) 0.1766 Uiso
C17_4 C 0.36073(23) 0.2325(6) 0.4737(5) 0.0883 Uiso
C18_4 C 0.3965(4) 0.1447(7) 0.4245(5) 0.0883 Uiso
H12_4 H 0.3630(5) 0.0795(7) 0.3885(8) 0.1766 Uiso
C19_4 C 0.4826(4) 0.1468(10) 0.4337(8) 0.0883 Uiso
H13_4 H 0.5060(6) 0.0851(13) 0.3996(10) 0.1766 Uiso
C20_4 C 0.26964(15) 0.2249(6) 0.46749(28) 0.0883 Uiso
H14_4 H 0.23599(30) 0.1775(18) 0.4138(11) 0.1766 Uiso
O1_4 O 0.8154(7) 0.0966(10) 0.4207(7) 0.0844 Uiso
O2_4 O 0.6778(7) 0.0882(12) 0.4126(8) 0.0844 Uiso
C1_4 C 0.7396(7) 0.0676(7) 0.3790(5) 0.0844 Uiso
N1_4 N 0.96687(26) 0.2641(12) 0.5179(7) 0.0883 Uiso
H3_4 H 0.9677(4) 0.1122(12) 0.4396(10) 0.1766 Uiso
H6_4 H 0.9940(6) 0.4149(13) 0.6004(10) 0.1766 Uiso
O5_4 O 0.6846(7) 0.4034(10) 0.5793(7) 0.0844 Uiso
O6_4 O 0.8222(7) 0.4118(12) 0.5874(8) 0.0844 Uiso
C11_4 C 0.7604(7) 0.4324(7) 0.6210(5) 0.0844 Uiso
C12_4 C 0.7764(6) 0.5050(6) 0.7159(5) 0.0844 Uiso
H8_4 H 0.8327(6) 0.5251(13) 0.7505(8) 0.1689 Uiso
C13_4 C 0.7139(6) 0.5466(7) 0.7507(5) 0.0844 Uiso
H9_4 H 0.6577(6) 0.5278(13) 0.7147(9) 0.1689 Uiso
C14_4 C 0.7278(6) 0.6253(6) 0.8423(5) 0.0844 Uiso
C2_4 C 0.7236(6) 0.9950(6) 0.2841(5) 0.0844 Uiso
H1_4 H 0.6673(6) 0.9749(13) 0.2495(8) 0.1689 Uiso
C3_4 C 0.7861(6) 0.9534(7) 0.2493(5) 0.0844 Uiso
H2_4 H 0.8423(6) 0.9722(13) 0.2853(9) 0.1689 Uiso
C4_4 C 0.7722(6) 0.8747(6) 0.1577(5) 0.0844 Uiso
loop_
_geom_bond_atom_site_label_1
_geom_bond_atom_site_label_2
_geom_bond_site_symmetry_1
_geom_bond_site_symmetry_2
Zn7 N2 1_555 1_555
Zn6 O7 1_555 1_555
H8 C12 1_555 1_555
C13 C12 1_555 1_555
H9 C13 1_555 1_555
C14 C13 1_555 1_555
O7 C14 1_555 1_555
O10 C14 1_555 1_555
Zn1 O1 1_555 1_555
O1 C1 1_555 1_555
O2 C1 1_555 1_555
C1 C2 1_555 1_555
C2 H1 1_555 1_555
C3 C2 1_555 1_555
H2 C3 1_555 1_555
C4 C3 1_555 1_555
O3 C4 1_555 1_555
O4 C4 1_555 1_555
N1 Zn1 1_555 1_555
C5 N1 1_555 1_555
H3 C5 1_555 1_555
C6 C5 1_555 1_555
H4 C6 1_555 1_555
C7 C6 1_555 1_555
C8 C7 1_555 1_555
H5 C8 1_555 1_555
C9 N1 1_555 1_555
H6 C9 1_555 1_555
C10 C7 1_555 1_555
H7 C10 1_555 1_555
Zn7 O2 1_555 1_555
Zn4 O3 1_555 1_555
O5 Zn7 1_555 1_555
O6 Zn1 1_555 1_555
C11 O5 1_555 1_555
O8 Zn1 1_555 1_555
O9 Zn7 1_555 1_555
O11 Zn7 1_555 1_555
O12 Zn1 1_555 1_555
C16 C15 1_555 1_555
H11 C16 1_555 1_555
C17 C16 1_555 1_555
C18 C17 1_555 1_555
H12 C18 1_555 1_555
C20 C10 1_555 1_555
H14 C20 1_555 1_555
C8 C9 1_555 1_555
O6 C11 1_555 1_555
C17 C20 1_555 1_555
C18 C19 1_555 1_555
O1_2 C1_2 1_555 1_555
O2_2 C1_2 1_555 1_555
Zn4 O2_2 1_555 1_555
N3 Zn4 1_555 1_555
N1_2 Zn6 1_555 1_555
O6_2 Zn6 1_555 1_555
C11_2 O5_2 1_555 1_555
C12_2 C11_2 1_555 1_555
H8_2 C12_2 1_555 1_555
C13_2 C12_2 1_555 1_555
H9_2 C13_2 1_555 1_555
C14_2 C13_2 1_555 1_555
O8 C14_2 1_555 1_555
O11 C14_2 1_555 1_555
O6_2 C11_2 1_555 1_555
C2_2 H1_2 1_555 1_555
C3_2 C2_2 1_555 1_555
H2_2 C3_2 1_555 1_555
C4_2 C3_2 1_555 1_555
O9 C4_2 1_555 1_555
O12 C4_2 1_555 1_555
C6_2 C5_2 1_555 1_555
H4_2 C6_2 1_555 1_555
C18_2 C17_2 1_555 1_555
H12_2 C18_2 1_555 1_555
C19_2 N3 1_555 1_555
H13_2 C19_2 1_555 1_555
H14_2 C20_2 1_555 1_555
C17_2 C20_2 1_555 1_555
C18_2 C19_2 1_555 1_555
C8_2 C7_2 1_555 1_555
H5_2 C8_2 1_555 1_555
C10_2 C7_2 1_555 1_555
H7_2 C10_2 1_555 1_555
C15_2 H10_2 1_555 1_555
C16_2 C15_2 1_555 1_555
H11_2 C16_2 1_555 1_555
C8_2 C9_2 1_555 1_555
Zn4_2 O10_2 1_555 1_555
Zn6_2 O7_2 1_555 1_555
H8_3 C12_3 1_555 1_555
C13_3 C12_3 1_555 1_555
H9_3 C13_3 1_555 1_555
C14_3 C13_3 1_555 1_555
O7_2 C14_3 1_555 1_555
O10_2 C14_3 1_555 1_555
O1_3 C1_3 1_555 1_555
O2_3 C1_3 1_555 1_555
C1_3 C2_3 1_555 1_555
C2_3 H1_3 1_555 1_555
C3_3 C2_3 1_555 1_555
H2_3 C3_3 1_555 1_555
C4_3 C3_3 1_555 1_555
O3_2 C4_3 1_555 1_555
O4_2 C4_3 1_555 1_555
H3_3 C5_3 1_555 1_555
C6_3 C5_3 1_555 1_555
H4_3 C6_3 1_555 1_555
Zn2 O2_3 1_555 1_555
Zn4_2 O3_2 1_555 1_555
Zn6_2 O4_2 1_555 1_555
O9_2 Zn2 1_555 1_555
N3_2 Zn2 1_555 1_555
C18_3 C17_3 1_555 1_555
H12_3 C18_3 1_555 1_555
H14_3 C20_3 1_555 1_555
C17_3 C20_3 1_555 1_555
C18_3 C19_3 1_555 1_555
N1_3 Zn1_2 1_555 1_555
C8_3 C7_3 1_555 1_555
H5_3 C8_3 1_555 1_555
C9_3 N1_3 1_555 1_555
H6_3 C9_3 1_555 1_555
C10_3 C7_3 1_555 1_555
H7_3 C10_3 1_555 1_555
O6_3 Zn1_2 1_555 1_555
C11_3 O5_3 1_555 1_555
O8_2 Zn1_2 1_555 1_555
C16_3 C15_3 1_555 1_555
H11_3 C16_3 1_555 1_555
C8_3 C9_3 1_555 1_555
O6_3 C11_3 1_555 1_555
C6_4 C5_4 1_555 1_555
H4_4 C6_4 1_555 1_555
C7_4 C6_4 1_555 1_555
C8_4 C7_4 1_555 1_555
H5_4 C8_4 1_555 1_555
C10_4 C7_4 1_555 1_555
H7_4 C10_4 1_555 1_555
Zn4_2 N2_2 1_555 1_555
N2_2 C15_4 1_555 1_555
C15_4 H10_4 1_555 1_555
C16_4 C15_4 1_555 1_555
H11_4 C16_4 1_555 1_555
C17_4 C16_4 1_555 1_555
C18_4 C17_4 1_555 1_555
H12_4 C18_4 1_555 1_555
C19_4 N2_2 1_555 1_555
H13_4 C19_4 1_555 1_555
C20_4 C10_4 1_555 1_555
H14_4 C20_4 1_555 1_555
C8_4 C9_4 1_555 1_555
C17_4 C20_4 1_555 1_555
C18_4 C19_4 1_555 1_555
Zn6_2 O1_4 1_555 1_555
O1_4 C1_4 1_555 1_555
O2_4 C1_4 1_555 1_555
N1_4 Zn6_2 1_555 1_555
Zn4_2 O2_4 1_555 1_555
O5_4 Zn4_2 1_555 1_555
O6_4 Zn6_2 1_555 1_555
C11_4 O5_4 1_555 1_555
C12_4 C11_4 1_555 1_555
H8_4 C12_4 1_555 1_555
C13_4 C12_4 1_555 1_555
H9_4 C13_4 1_555 1_555
C14_4 C13_4 1_555 1_555
O8_2 C14_4 1_555 1_555
O11_2 C14_4 1_555 1_555
O6_4 C11_4 1_555 1_555
C2_4 H1_4 1_555 1_555
C3_4 C2_4 1_555 1_555
H2_4 C3_4 1_555 1_555
C4_4 C3_4 1_555 1_555
O9_2 C4_4 1_555 1_555
O12_2 C4_4 1_555 1_555

#END
