
###############################################################################
#
# This file contains modified crystal structure data generated from the
# MOF subset of the Cambridge Structural Database (CSD) v543 
# hosted by the Cambridge Crystallographic Data Centre (CCDC).
#
# This work is licensed under the Creative Commons
# Attribution-NonCommercial-ShareAlike 4.0 International License.
# To view a copy of this license, visit
# http://creativecommons.org/licenses/by-nc-sa/4.0/
# or send a letter to
# Creative Commons, PO Box 1866, Mountain View, CA 94042, USA.
#
# CIF created using the CSD Python API on 29 September 2022
# The structure has been converted into the P1 space group
# The structure has a 3D framework
# The original CSD entry VUMCEM is in the monoclinic crystal system
# The framework has been calculated to contain at least 10.0% void space
# The void calculation uses a probe of radius 1.32A, grid spacing 0.4
# The framework is charged, counterions have been retained in the structure
#
###############################################################################

data_VUMCEM
_chemical_formula_moiety         '(C72 H60 Cl4 Co7 N24 O16 10+)n'
_symmetry_cell_setting           triclinic
_symmetry_space_group_name_H-M   'P 1'
_symmetry_Int_Tables_number      1
_space_group_name_Hall           'P 1'
loop_
_symmetry_equiv_pos_site_id
_symmetry_equiv_pos_as_xyz
1 x,y,z
_cell_length_a                   8.0960(16)
_cell_length_b                   21.507(4)
_cell_length_c                   13.935(5)
_cell_angle_alpha                90
_cell_angle_beta                 111.81(3)
_cell_angle_gamma                90
_cell_volume                     2252.69
loop_
_atom_site_label
_atom_site_type_symbol
_atom_site_fract_x
_atom_site_fract_y
_atom_site_fract_z
Co4 Co 0.0000 -0.0000 0.0000
Co4_2 Co 0.0000 -0.0000 1.0000
Co4_3 Co 0.0000 1.0000 0.0000
Co4_4 Co 0.0000 1.0000 1.0000
Co2 Co 1.0000 0.5000 0.5000
C26 C 0.9884(3) 0.49474(12) 0.26949(19)
H22 H 0.9007 0.5252 0.2484
C30 C 0.9747(3) 0.54436(12) 0.0656(2)
H25 H 0.9581 0.5739 0.1099
N1 N 0.7604(3) 0.54506(10) 0.39994(16)
N2 N 0.5732(3) 0.61258(10) 0.29665(17)
N3 N 0.9460(3) 0.52862(10) 0.63624(15)
N4 N 0.9356(3) 0.53108(10) 0.79280(16)
N5 N 0.1486(3) 0.91560(9) 0.01008(16)
N6 N 0.3062(3) 0.83074(10) 0.07222(17)
C1 C 0.7411(3) 0.60195(12) 0.3635(2)
H1 H 0.8317 0.6314 0.3814
C2 C 0.5940(3) 0.51780(13) 0.3547(2)
H2 H 0.5660 0.4773 0.3667
C3 C 0.4788(4) 0.55866(13) 0.2906(2)
H3 H 0.3596 0.5517 0.2505
C4 C 0.5062(4) 0.66929(12) 0.2420(2)
C5 C 0.3348(4) 0.68828(13) 0.2265(2)
H4 H 0.2645 0.6649 0.2527
C6 C 0.6134(4) 0.70385(13) 0.2045(2)
H5 H 0.7280 0.6905 0.2148
C7 C 0.5481(4) 0.75850(13) 0.1516(2)
H6 H 0.6199 0.7829 0.1278
C9 C 0.8224(4) 0.57231(12) 0.6389(2)
H8 H 0.7538 0.5966 0.5831
C10 C 0.8156(4) 0.57469(13) 0.7341(2)
H9 H 0.7443 0.6006 0.7558
C11 C 0.9690(3) 0.51518(12) 0.89857(19)
C13 C 0.9431(4) 0.55964(13) 0.9637(2)
H11 H 0.9049 0.5994 0.9392
C14 C 0.1849(3) 0.87145(12) 0.0806(2)
H12 H 0.1334 0.8686 0.1300
C17 C 0.3757(4) 0.77666(12) 0.1342(2)
C18 C 0.2687(4) 0.74233(13) 0.1715(2)
H15 H 0.1533 0.7553 0.1599
N13 N 0.8514(3) 0.41560(9) 0.48992(16)
C15 C 0.2533(4) 0.90206(13) 0.9538(2)
H13 H 0.2565 0.9254 0.8983
C16 C 0.3503(4) 0.85023(14) 0.9904(2)
H14 H 0.4302 0.8315 0.9657
N1_2 N 0.2396(3) 0.04506(10) 0.10006(16)
N2_2 N 0.4268(3) 0.11258(10) 0.20335(17)
N6_2 N 0.6938(3) 0.33074(10) 0.42778(17)
C1_2 C 0.2589(3) 0.10195(12) 0.1365(2)
H1_2 H 0.1683 0.1314 0.1186
C2_2 C 0.4060(3) 0.01780(13) 0.1453(2)
C3_2 C 0.5212(4) 0.05866(13) 0.2094(2)
H3_2 H 0.6404 0.0517 0.2495
C4_2 C 0.4938(4) 0.16929(12) 0.2580(2)
C5_2 C 0.6652(4) 0.18828(13) 0.2735(2)
H4_2 H 0.7355 0.1649 0.2473
C6_2 C 0.3866(4) 0.20385(13) 0.2955(2)
H5_2 H 0.2720 0.1905 0.2852
C7_2 C 0.4519(4) 0.25850(13) 0.3484(2)
H6_2 H 0.3801 0.2829 0.3722
C14_2 C 0.8151(3) 0.37145(12) 0.4194(2)
H12_2 H 0.8666 0.3686 0.3700
C15_2 C 0.7467(4) 0.40206(13) 0.5462(2)
H13_2 H 0.7435 0.4254 0.6017
C16_2 C 0.6497(4) 0.35023(14) 0.5096(2)
H14_2 H 0.5698 0.3315 0.5343
C17_2 C 0.6243(4) 0.27666(12) 0.3658(2)
C18_2 C 0.7313(4) 0.24233(13) 0.3285(2)
H15_2 H 0.8467 0.2553 0.3401
N3_2 N 0.0540(3) 0.02862(10) 0.86376(15)
N4_2 N 0.0644(3) 0.03108(10) 0.70720(16)
C9_2 C 0.1776(4) 0.07231(12) 0.8611(2)
H8_2 H 0.2462 0.0966 0.9169
C10_2 C 0.1844(4) 0.07469(13) 0.7659(2)
H9_2 H 0.2557 0.1006 0.7442
C11_2 C 0.0310(3) 0.01518(12) 0.60143(19)
C13_2 C 0.0569(4) 0.05964(13) 0.5363(2)
H11_2 H 0.0951 0.0994 0.5608
H22_2 H 0.0993 0.0252 0.2516
C30_2 C 0.0253(3) 0.04436(12) 0.4344(2)
H25_2 H 0.0419 0.0739 0.3901
H2_2 H 0.4340 0.9773 0.1333
C26_2 C 0.0116(3) 0.99474(12) 0.23051(19)
Co2_2 Co -0.0000 0.5000 0.5000
Co4_5 Co 1.0000 -0.0000 0.0000
N9 N 0.0540(3) 0.47138(10) 0.36376(15)
N11 N 0.0644(3) 0.46892(10) 0.20720(16)
C27 C 0.1776(4) 0.42769(12) 0.3611(2)
H23 H 0.2462 0.4034 0.4169
C28 C 0.1844(4) 0.42531(13) 0.2659(2)
H24 H 0.2557 0.3994 0.2442
C29 C 0.0310(3) 0.48482(12) 0.10143(19)
C31 C 0.0569(4) 0.44036(13) 0.0363(2)
H26 H 0.0951 0.4006 0.0608
C33 C 0.7467(4) 0.09794(13) 0.0462(2)
H28 H 0.7435 0.0746 0.1017
C34 C 0.6497(4) 0.14977(14) 0.0096(2)
H29 H 0.5698 0.1685 0.0343
C8 C 0.0116(3) 0.50526(12) 0.73051(19)
H7 H 0.0993 0.4748 0.7516
C12 C 0.0253(3) 0.45564(12) 0.9344(2)
H10 H 0.0419 0.4261 0.8901
Co4_6 Co 1.0000 -0.0000 1.0000
N7 N 0.2396(3) 0.45494(10) 0.60006(16)
N8 N 0.4268(3) 0.38742(10) 0.70335(17)
N12 N 0.8514(3) 0.08440(9) 0.98992(16)
N14 N 0.1486(3) 0.58440(9) 0.51008(16)
N15 N 0.6938(3) 0.16926(10) 0.92778(17)
C19 C 0.2589(3) 0.39805(12) 0.6365(2)
H16 H 0.1683 0.3686 0.6186
C20 C 0.4060(3) 0.48220(13) 0.6453(2)
H17 H 0.4340 0.5227 0.6333
C21 C 0.5212(4) 0.44134(13) 0.7094(2)
H18 H 0.6404 0.4483 0.7495
C22 C 0.4938(4) 0.33071(12) 0.7580(2)
C23 C 0.6652(4) 0.31172(13) 0.7735(2)
H19 H 0.7355 0.3351 0.7473
C24 C 0.3866(4) 0.29615(13) 0.7955(2)
H20 H 0.2720 0.3095 0.7852
C25 C 0.4519(4) 0.24150(13) 0.8484(2)
H21 H 0.3801 0.2171 0.8722
C32 C 0.8151(3) 0.12855(12) 0.9194(2)
H27 H 0.8666 0.1314 0.8700
C35 C 0.6243(4) 0.22334(12) 0.8658(2)
C36 C 0.7313(4) 0.25767(13) 0.8285(2)
H30 H 0.8467 0.2447 0.8401
Co4_7 Co 1.0000 1.0000 0.0000
Co4_8 Co 1.0000 1.0000 1.0000
C8_2 C 0.9884(3) 0.00526(12) 0.76949(19)
H17_2 H 0.5660 0.0227 0.8667
N10 N 0.9460(3) 0.97138(10) 0.13624(15)
H7_2 H 0.9007 0.9748 0.7484
C12_2 C 0.9747(3) 0.95564(12) 0.5656(2)
H10_2 H 0.9581 0.9261 0.6099
N7_2 N 0.7604(3) 0.95494(10) 0.89994(16)
N8_2 N 0.5732(3) 0.88742(10) 0.79665(17)
N11_2 N 0.9356(3) 0.96892(10) 0.29280(16)
N15_2 N 0.3062(3) 0.66926(10) 0.57222(17)
C19_2 C 0.7411(3) 0.89805(12) 0.8635(2)
H16_2 H 0.8317 0.8686 0.8814
C20_2 C 0.5940(3) 0.98220(13) 0.8547(2)
C21_2 C 0.4788(4) 0.94134(13) 0.7906(2)
H18_2 H 0.3596 0.9483 0.7505
C22_2 C 0.5062(4) 0.83071(12) 0.7420(2)
C23_2 C 0.3348(4) 0.81172(13) 0.7265(2)
H19_2 H 0.2645 0.8351 0.7527
C24_2 C 0.6134(4) 0.79615(13) 0.7045(2)
H20_2 H 0.7280 0.8095 0.7148
C25_2 C 0.5481(4) 0.74150(13) 0.6516(2)
H21_2 H 0.6199 0.7171 0.6278
C27_2 C 0.8224(4) 0.92769(12) 0.1389(2)
H23_2 H 0.7538 0.9034 0.0831
C28_2 C 0.8156(4) 0.92531(13) 0.2341(2)
H24_2 H 0.7443 0.8994 0.2558
C29_2 C 0.9690(3) 0.98482(12) 0.39857(19)
C31_2 C 0.9431(4) 0.94036(13) 0.4637(2)
H26_2 H 0.9049 0.9006 0.4392
C32_2 C 0.1849(3) 0.62855(12) 0.5806(2)
H27_2 H 0.1334 0.6314 0.6300
C33_2 C 0.2533(4) 0.59794(13) 0.4538(2)
H28_2 H 0.2565 0.5746 0.3983
C34_2 C 0.3503(4) 0.64977(14) 0.4904(2)
H29_2 H 0.4302 0.6685 0.4657
C35_2 C 0.3757(4) 0.72334(12) 0.6342(2)
C36_2 C 0.2687(4) 0.75767(13) 0.6715(2)
H30_2 H 0.1533 0.7447 0.6599
Cl1 Cl 0.80448(10) 0.76059(4) 0.48113(7)
O1 O 0.8403(6) 0.81478(19) 0.5464(3)
O2 O 0.8543(4) 0.70643(14) 0.5542(3)
O3 O 0.6165(4) 0.75478(17) 0.4270(2)
O4 O 0.9051(7) 0.7574(3) 0.4202(4)
Cl1_2 Cl 0.19552(10) 0.26059(4) 0.01887(7)
O3_2 O 0.3835(4) 0.25478(17) 0.0730(2)
O4_2 O 0.0949(7) 0.2574(3) 0.0798(4)
O1_2 O 0.1597(6) 0.31478(19) 0.9536(3)
O2_2 O 0.1457(4) 0.20643(14) 0.9458(3)
Cl1_3 Cl 0.19552(10) 0.23941(4) 0.51887(7)
O1_3 O 0.1597(6) 0.18522(19) 0.4536(3)
O2_3 O 0.1457(4) 0.29357(14) 0.4458(3)
O3_3 O 0.3835(4) 0.24522(17) 0.5730(2)
O4_3 O 0.0949(7) 0.2426(3) 0.5798(4)
O1_4 O 0.8403(6) 0.68522(19) 0.0464(3)
O2_4 O 0.8543(4) 0.79357(14) 0.0542(3)
Cl1_4 Cl 0.80448(10) 0.73941(4) 0.98113(7)
O3_4 O 0.6165(4) 0.74522(17) 0.9270(2)
O4_4 O 0.9051(7) 0.7426(3) 0.9202(4)
loop_
_geom_bond_atom_site_label_1
_geom_bond_atom_site_label_2
_geom_bond_site_symmetry_1
_geom_bond_site_symmetry_2
C26 H22 1_555 1_555
H25 C30 1_555 1_555
Co2 N1 1_555 1_555
N1 C1 1_555 1_555
N2 C1 1_555 1_555
N3 Co2 1_555 1_555
N5 C14 1_555 1_555
N6 C14 1_555 1_555
C1 H1 1_555 1_555
C2 N1 1_555 1_555
H2 C2 1_555 1_555
C3 N2 1_555 1_555
H3 C3 1_555 1_555
C4 N2 1_555 1_555
C5 C4 1_555 1_555
H4 C5 1_555 1_555
C6 C4 1_555 1_555
H5 C6 1_555 1_555
C7 C6 1_555 1_555
H6 C7 1_555 1_555
C9 N3 1_555 1_555
H8 C9 1_555 1_555
C10 N4 1_555 1_555
H9 C10 1_555 1_555
C11 N4 1_555 1_555
C13 C11 1_555 1_555
H11 C13 1_555 1_555
C14 H12 1_555 1_555
C17 N6 1_555 1_555
C18 C5 1_555 1_555
H15 C18 1_555 1_555
Co4_3 N5 1_555 1_555
N13 Co2 1_555 1_555
C2 C3 1_555 1_555
C7 C17 1_555 1_555
C9 C10 1_555 1_555
C17 C18 1_555 1_555
H13 C15 1_555 1_555
H14 C16 1_555 1_555
C15 C16 1_555 1_555
Co4 N1_2 1_555 1_555
N1_2 C1_2 1_555 1_555
N2_2 C1_2 1_555 1_555
N13 C14_2 1_555 1_555
N6_2 C14_2 1_555 1_555
C1_2 H1_2 1_555 1_555
C2_2 N1_2 1_555 1_555
C3_2 N2_2 1_555 1_555
H3_2 C3_2 1_555 1_555
C4_2 N2_2 1_555 1_555
C5_2 C4_2 1_555 1_555
H4_2 C5_2 1_555 1_555
C6_2 C4_2 1_555 1_555
H5_2 C6_2 1_555 1_555
C7_2 C6_2 1_555 1_555
H6_2 C7_2 1_555 1_555
C14_2 H12_2 1_555 1_555
C15_2 N13 1_555 1_555
H13_2 C15_2 1_555 1_555
C16_2 N6_2 1_555 1_555
H14_2 C16_2 1_555 1_555
C17_2 N6_2 1_555 1_555
C18_2 C5_2 1_555 1_555
H15_2 C18_2 1_555 1_555
C2_2 C3_2 1_555 1_555
C7_2 C17_2 1_555 1_555
C15_2 C16_2 1_555 1_555
C17_2 C18_2 1_555 1_555
N3_2 Co4_2 1_555 1_555
C9_2 N3_2 1_555 1_555
H8_2 C9_2 1_555 1_555
C10_2 N4_2 1_555 1_555
H9_2 C10_2 1_555 1_555
C11_2 N4_2 1_555 1_555
C13_2 C11_2 1_555 1_555
H11_2 C13_2 1_555 1_555
C30_2 C13_2 1_555 1_555
H25_2 C30_2 1_555 1_555
C9_2 C10_2 1_555 1_555
Co2_2 N9 1_555 1_555
C27 N9 1_555 1_555
H23 C27 1_555 1_555
C28 N11 1_555 1_555
H24 C28 1_555 1_555
C29 N11 1_555 1_555
H26 C31 1_555 1_555
H28 C33 1_555 1_555
H29 C34 1_555 1_555
C27 C28 1_555 1_555
C29 C31 1_555 1_555
C33 C34 1_555 1_555
H7 C8 1_555 1_555
H10 C12 1_555 1_555
Co4_6 N12 1_555 1_555
N7 Co2_2 1_555 1_555
N8 C19 1_555 1_555
N12 C32 1_555 1_555
N14 Co2_2 1_555 1_555
N15 C32 1_555 1_555
C19 N7 1_555 1_555
H16 C19 1_555 1_555
C20 N7 1_555 1_555
H17 C20 1_555 1_555
C21 N8 1_555 1_555
H18 C21 1_555 1_555
C22 N8 1_555 1_555
C23 C22 1_555 1_555
H19 C23 1_555 1_555
C24 C22 1_555 1_555
H20 C24 1_555 1_555
C25 C24 1_555 1_555
H21 C25 1_555 1_555
C32 H27 1_555 1_555
C35 N15 1_555 1_555
C36 C23 1_555 1_555
H30 C36 1_555 1_555
C20 C21 1_555 1_555
C25 C35 1_555 1_555
C35 C36 1_555 1_555
N10 Co4_7 1_555 1_555
H10_2 C12_2 1_555 1_555
N7_2 Co4_8 1_555 1_555
N8_2 C19_2 1_555 1_555
N14 C32_2 1_555 1_555
N15_2 C32_2 1_555 1_555
C19_2 N7_2 1_555 1_555
H16_2 C19_2 1_555 1_555
C20_2 N7_2 1_555 1_555
C21_2 N8_2 1_555 1_555
H18_2 C21_2 1_555 1_555
C22_2 N8_2 1_555 1_555
C23_2 C22_2 1_555 1_555
H19_2 C23_2 1_555 1_555
C24_2 C22_2 1_555 1_555
H20_2 C24_2 1_555 1_555
C25_2 C24_2 1_555 1_555
H21_2 C25_2 1_555 1_555
C27_2 N10 1_555 1_555
H23_2 C27_2 1_555 1_555
C28_2 N11_2 1_555 1_555
H24_2 C28_2 1_555 1_555
C29_2 N11_2 1_555 1_555
C31_2 C12_2 1_555 1_555
H26_2 C31_2 1_555 1_555
C32_2 H27_2 1_555 1_555
C33_2 N14 1_555 1_555
H28_2 C33_2 1_555 1_555
C34_2 N15_2 1_555 1_555
H29_2 C34_2 1_555 1_555
C35_2 N15_2 1_555 1_555
C36_2 C23_2 1_555 1_555
H30_2 C36_2 1_555 1_555
C20_2 C21_2 1_555 1_555
C25_2 C35_2 1_555 1_555
C27_2 C28_2 1_555 1_555
C29_2 C31_2 1_555 1_555
C33_2 C34_2 1_555 1_555
C35_2 C36_2 1_555 1_555
Cl1 O1 1_555 1_555
O2 Cl1 1_555 1_555
O3 Cl1 1_555 1_555
O4 Cl1 1_555 1_555
O3_2 Cl1_2 1_555 1_555
O4_2 Cl1_2 1_555 1_555
Cl1_3 O1_3 1_555 1_555
O2_3 Cl1_3 1_555 1_555
O3_3 Cl1_3 1_555 1_555
O4_3 Cl1_3 1_555 1_555
O3_4 Cl1_4 1_555 1_555
O4_4 Cl1_4 1_555 1_555

#END
