
###############################################################################
#
# This file contains modified crystal structure data generated from the
# MOF subset of the Cambridge Structural Database (CSD) v543 
# hosted by the Cambridge Crystallographic Data Centre (CCDC).
#
# This work is licensed under the Creative Commons
# Attribution-NonCommercial-ShareAlike 4.0 International License.
# To view a copy of this license, visit
# http://creativecommons.org/licenses/by-nc-sa/4.0/
# or send a letter to
# Creative Commons, PO Box 1866, Mountain View, CA 94042, USA.
#
# CIF created using the CSD Python API on 29 September 2022
# The structure has been converted into the P1 space group
# The structure has a 3D framework
# The original CSD entry VUMPOL is in the monoclinic crystal system
# The original CSD entry VUMPOL is in a Sohncke space group
# The framework has been calculated to contain at least 10.0% void space
# The void calculation uses a probe of radius 1.32A, grid spacing 0.4
# The framework is charged, counterions have been retained in the structure
# H atom positions have been added when not included in the experimental data
#
###############################################################################

data_VUMPOL
_chemical_formula_moiety         '(C48 H56 La6 O56 S8)n'
_symmetry_cell_setting           triclinic
_symmetry_space_group_name_H-M   'P 1'
_symmetry_Int_Tables_number      1
_space_group_name_Hall           'P 1'
loop_
_symmetry_equiv_pos_site_id
_symmetry_equiv_pos_as_xyz
1 x,y,z
_cell_length_a                   7.1983(3)
_cell_length_b                   24.1419(10)
_cell_length_c                   11.8444(6)
_cell_angle_alpha                90
_cell_angle_beta                 92.530(4)
_cell_angle_gamma                90
_cell_volume                     2056.32
loop_
_atom_site_label
_atom_site_type_symbol
_atom_site_fract_x
_atom_site_fract_y
_atom_site_fract_z
La9 La 0.22145(10) 0.61378(3) 0.05441(6)
O23 O 0.4694(14) 0.5443(4) 0.0301(8)
O24 O 0.7427(13) 0.5080(4) 0.0738(8)
O28 O 0.5371(15) 0.6548(5) 0.0128(9)
O29 O 0.8572(14) 0.6252(4) 0.0042(8)
C23 C 0.6284(18) 0.5290(6) 0.0025(11)
La7 La 0.54411(10) 0.48885(3) 0.24160(6)
La1 La 0.71310(10) 0.33339(3) 0.42011(6)
S1 S 0.0582(4) 0.44844(14) 0.3446(3)
S2 S 0.2052(5) 0.40613(15) 0.7813(3)
S3 S 0.5540(5) 0.69864(14) 0.5120(3)
S4 S 0.7067(5) 0.65797(14) 0.9515(3)
O1 O 0.2894(13) 0.5579(4) 0.2632(8)
O2 O 0.6069(18) 0.3179(5) 0.6277(9)
O3 O 0.0244(12) 0.6006(4) 0.2238(8)
O4 O 0.9785(15) 0.3007(5) 0.5643(10)
O5 O 0.1934(15) 0.6051(4) 0.8448(8)
O6 O 0.9762(16) 0.2829(4) 0.3174(10)
O7 O 0.144(2) 0.6871(5) 0.7728(10)
O8 O 0.3599(14) 0.3369(5) 0.4173(11)
O9 O 0.4404(15) 0.4222(5) 0.0772(10)
O10 O 0.2291(13) 0.4446(4) 0.2814(8)
O11 O 0.6635(14) 0.5869(4) 0.2671(10)
O15 O 0.0434(18) 0.3694(6) 0.7651(11)
O16 O 0.3196(17) 0.6879(5) 0.2072(9)
O17 O 0.3741(17) 0.3762(5) 0.7609(11)
O18 O 0.0962(14) 0.5176(4) 0.0320(9)
O19 O 0.2099(18) 0.4342(5) 0.8876(9)
O20 O 0.5957(16) 0.2834(5) 0.2299(10)
O21 O 0.5710(14) 0.4991(4) 0.4479(9)
O22 O 0.6877(14) 0.4211(5) 0.5190(9)
O25 O 0.5046(15) 0.6688(5) 0.4093(9)
O26 O 0.7246(15) 0.7309(4) 0.5058(10)
O27 O 0.3988(14) 0.7320(4) 0.5494(9)
O30 O 0.7591(14) 0.7149(5) 0.9332(9)
O31 O 0.6161(12) 0.3974(4) 0.2803(7)
C1 C 0.0962(18) 0.5795(6) 0.4156(11)
C2 C 0.0569(19) 0.6325(6) 0.4504(12)
H1 H 0.022097 0.658868 0.396229
C3 C 0.0674(19) 0.6477(6) 0.5622(11)
H2 H 0.038809 0.684108 0.580695
C4 C 0.1181(18) 0.6117(6) 0.6479(11)
C5 C 0.1372(18) 0.5535(6) 0.6188(11)
C6 C 0.172(2) 0.5123(6) 0.7029(12)
H3 H 0.189264 0.522943 0.778105
C7 C 0.1789(18) 0.4580(6) 0.6757(11)
C8 C 0.1496(18) 0.4402(6) 0.5637(12)
H4 H 0.150907 0.402589 0.546918
C9 C 0.1185(17) 0.4787(5) 0.4776(10)
C10 C 0.1196(18) 0.5366(6) 0.4999(11)
C11 C 0.1329(17) 0.5761(5) 0.2961(11)
C12 C 0.1504(19) 0.6352(6) 0.7623(11)
C13 C 0.6697(18) 0.5269(5) 0.8777(11)
C14 C 0.7080(18) 0.4738(5) 0.8454(11)
H5 H 0.737725 0.447433 0.900645
C15 C 0.703(2) 0.4579(6) 0.7302(11)
H6 H 0.730696 0.421557 0.710635
C16 C 0.6595(17) 0.4956(6) 0.6483(11)
C17 C 0.6373(17) 0.5524(5) 0.6788(11)
C18 C 0.6022(18) 0.5926(5) 0.5915(11)
H7 H 0.583863 0.581225 0.516802
C19 C 0.5956(19) 0.6486(6) 0.6180(13)
C20 C 0.6307(19) 0.6661(6) 0.7292(11)
H8 H 0.637598 0.703809 0.745328
C21 C 0.6553(18) 0.6281(5) 0.8153(11)
C22 C 0.6507(18) 0.5694(5) 0.7933(11)
C24 C 0.6355(19) 0.4708(6) 0.5284(12)
La5 La 0.28690(10) 0.83339(3) 0.57989(6)
O33 O 0.9146(13) 0.4832(4) 0.2901(8)
O34 O 0.9950(13) 0.3929(4) 0.3697(8)
O37 O 0.6012(14) 0.2320(4) 0.4506(9)
H9 H 0.949105 0.242591 0.313893
H10 H 0.983245 0.297766 0.239536
H11 H 0.319837 0.367372 0.467013
H12 H 0.310625 0.343585 0.338855
H13 H 0.419379 0.443822 0.00646836
H14 H 0.539006 0.394165 0.0664558
H15 H 0.678619 0.342834 0.680118
H16 H 0.472182 0.326244 0.631103
H17 H 0.624905 0.601647 0.340738
H18 H 0.801322 0.586957 0.265634
H19 H 0.945102 0.264197 0.596294
H21 H 0.460267 0.289935 0.216787
H22 H 0.663464 0.29862 0.165585
H23 H 0.273554 0.735397 0.0130565
H25 H 0.446158 0.679215 0.239075
H26 H 0.31981 0.725193 0.171841
O14 O 0.1649(15) 0.7121(4) 0.9896(8)
H24 H 0.147147 0.712882 0.905998
H28 H 0.0413261 0.512813 0.954216
H27 H 0.998957 0.511299 0.0875113
O39 O 0.1428(14) 0.1252(4) 0.9958(8)
H27_2 H 0.00104262 0.0112991 0.912489
O12 O 0.0854(13) 0.9832(4) 0.7099(8)
O13 O 0.0050(13) 0.8929(4) 0.6303(8)
La6 La 0.45589(10) 0.98885(3) 0.75840(6)
O14_2 O 0.8351(15) 0.2121(4) 0.0104(8)
O32 O 0.8066(15) 0.1051(4) 0.1552(8)
H24_2 H 0.852853 0.212882 0.0940023
H28_2 H 0.958674 0.0128125 0.0457836
La3 La 0.77855(10) 0.11378(3) 0.94559(6)
S3_2 S 0.4460(5) 0.19864(14) 0.4880(3)
S4_2 S 0.2933(5) 0.15797(14) 0.0485(3)
O1_2 O 0.7106(13) 0.0579(4) 0.7368(8)
O3_2 O 0.9756(12) 0.1006(4) 0.7762(8)
O7_2 O 0.856(2) 0.1871(5) 0.2272(10)
O11_2 O 0.3365(14) 0.0869(4) 0.7329(10)
O16_2 O 0.6804(17) 0.1879(5) 0.7928(9)
O18_2 O 0.9038(14) 0.0176(4) 0.9680(9)
O25_2 O 0.4954(15) 0.1688(5) 0.5907(9)
O26_2 O 0.2754(15) 0.2309(4) 0.4942(10)
O30_2 O 0.2409(14) 0.2149(5) 0.0668(9)
C1_2 C 0.9038(18) 0.0795(6) 0.5844(11)
C2_2 C 0.9431(19) 0.1325(6) 0.5496(12)
H1_2 H 0.977903 0.158868 0.603771
C3_2 C 0.9326(19) 0.1477(6) 0.4378(11)
H2_2 H 0.961191 0.184108 0.419305
C4_2 C 0.8819(18) 0.1117(6) 0.3521(11)
C5_2 C 0.8628(18) 0.0535(6) 0.3812(11)
C6_2 C 0.828(2) 0.0123(6) 0.2971(12)
H3_2 H 0.810736 0.022943 0.221895
C10_2 C 0.8804(18) 0.0366(6) 0.5001(11)
C11_2 C 0.8671(17) 0.0761(5) 0.7039(11)
C12_2 C 0.8496(19) 0.1352(6) 0.2377(11)
C13_2 C 0.3303(18) 0.0269(5) 0.1223(11)
C17_2 C 0.3627(17) 0.0524(5) 0.3212(11)
C18_2 C 0.3978(18) 0.0926(5) 0.4085(11)
H7_2 H 0.416137 0.081225 0.483198
C19_2 C 0.4044(19) 0.1486(6) 0.3820(13)
C20_2 C 0.3693(19) 0.1661(6) 0.2708(11)
H8_2 H 0.362402 0.203809 0.254672
C21_2 C 0.3447(18) 0.1281(5) 0.1847(11)
C22_2 C 0.3493(18) 0.0694(5) 0.2067(11)
O35 O 0.5306(14) 0.0443(4) 0.9699(8)
O36 O 0.2573(13) 0.0080(4) 0.9262(8)
O38 O 0.4629(15) 0.1548(5) 0.9872(9)
H17_2 H 0.375095 0.101647 0.659262
H18_2 H 0.198678 0.0869568 0.734366
H23_2 H 0.726446 0.235397 0.986943
H25_2 H 0.553842 0.179215 0.760925
H26_2 H 0.68019 0.225193 0.828159
C23_2 C 0.3716(18) 0.0290(6) 0.9975(11)
S1_2 S 0.9418(4) 0.94844(14) 0.6554(3)
S2_2 S 0.7948(5) 0.90613(15) 0.2187(3)
O2_2 O 0.3931(18) 0.8179(5) 0.3723(9)
O4_2 O 0.0215(15) 0.8007(5) 0.4357(10)
O6_2 O 0.0238(16) 0.7829(4) 0.6826(10)
O8_2 O 0.6401(14) 0.8369(5) 0.5827(11)
O9_2 O 0.5596(15) 0.9222(5) 0.9228(10)
O10_2 O 0.7709(13) 0.9446(4) 0.7186(8)
O15_2 O 0.9566(18) 0.8694(6) 0.2349(11)
O17_2 O 0.6259(17) 0.8762(5) 0.2391(11)
O19_2 O 0.7901(18) 0.9342(5) 0.1124(9)
O20_2 O 0.4043(16) 0.7834(5) 0.7701(10)
O21_2 O 0.4290(14) 0.9991(4) 0.5521(9)
O22_2 O 0.3123(14) 0.9211(5) 0.4810(9)
O31_2 O 0.3839(12) 0.8974(4) 0.7197(7)
C7_2 C 0.8211(18) 0.9580(6) 0.3243(11)
C8_2 C 0.8504(18) 0.9402(6) 0.4363(12)
H4_2 H 0.849093 0.902589 0.453082
C9_2 C 0.8815(17) 0.9787(5) 0.5224(10)
C14_2 C 0.2920(18) 0.9738(5) 0.1546(11)
H5_2 H 0.262275 0.947433 0.099355
C15_2 C 0.297(2) 0.9579(6) 0.2698(11)
H6_2 H 0.269304 0.921557 0.289365
C16_2 C 0.3405(17) 0.9956(6) 0.3517(11)
C24_2 C 0.3645(19) 0.9708(6) 0.4716(12)
H9_2 H 0.0508953 0.742591 0.686107
H10_2 H 0.0167554 0.797766 0.760464
H11_2 H 0.680163 0.867372 0.532987
H12_2 H 0.689375 0.843585 0.661145
H13_2 H 0.580621 0.943822 0.993532
H14_2 H 0.460994 0.894165 0.933544
H15_2 H 0.321381 0.842834 0.319882
H16_2 H 0.527818 0.826244 0.368897
H19_2 H 0.0548983 0.764197 0.403706
H21_2 H 0.539733 0.789935 0.783213
H22_2 H 0.336536 0.79862 0.834415
H20 H 0.0968523 0.297296 0.524848
H20_2 H 0.903148 0.797296 0.475152
loop_
_geom_bond_atom_site_label_1
_geom_bond_atom_site_label_2
_geom_bond_site_symmetry_1
_geom_bond_site_symmetry_2
O23 C23 1_555 1_555
O24 C23 1_555 1_555
O28 La9 1_555 1_555
La7 O23 1_555 1_555
O23 La9 1_555 1_555
O24 La7 1_555 1_555
La1 O2 1_555 1_555
La7 O1 1_555 1_555
La9 O1 1_555 1_555
S1 O10 1_555 1_555
S2 O15 1_555 1_555
S3 O25 1_555 1_555
O1 C11 1_555 1_555
O3 La9 1_555 1_555
O4 La1 1_555 1_555
O5 C12 1_555 1_555
O6 La1 1_555 1_555
O7 C12 1_555 1_555
O8 La1 1_555 1_555
O9 La7 1_555 1_555
O10 La7 1_555 1_555
O11 La7 1_555 1_555
O16 La9 1_555 1_555
O17 S2 1_555 1_555
O18 La9 1_555 1_555
O19 S2 1_555 1_555
O20 La1 1_555 1_555
O21 La7 1_555 1_555
O22 La1 1_555 1_555
O26 S3 1_555 1_555
O27 S3 1_555 1_555
O30 S4 1_555 1_555
O31 La1 1_555 1_555
C1 C2 1_555 1_555
C2 H1 1_555 1_555
C3 C2 1_555 1_555
H2 C3 1_555 1_555
C4 C3 1_555 1_555
C5 C4 1_555 1_555
C6 C5 1_555 1_555
H3 C6 1_555 1_555
C7 S2 1_555 1_555
C8 C7 1_555 1_555
H4 C8 1_555 1_555
C9 S1 1_555 1_555
C10 C1 1_555 1_555
C11 O3 1_555 1_555
C12 C4 1_555 1_555
C13 C14 1_555 1_555
C14 H5 1_555 1_555
C15 C14 1_555 1_555
H6 C15 1_555 1_555
C16 C15 1_555 1_555
C17 C16 1_555 1_555
C18 C17 1_555 1_555
H7 C18 1_555 1_555
C19 S3 1_555 1_555
C20 C19 1_555 1_555
H8 C20 1_555 1_555
C21 S4 1_555 1_555
C22 C13 1_555 1_555
C24 O21 1_555 1_555
La5 O27 1_555 1_555
O33 La7 1_555 1_555
O34 La1 1_555 1_555
O37 La1 1_555 1_555
La7 O31 1_555 1_555
O22 C24 1_555 1_555
C1 C11 1_555 1_555
C5 C10 1_555 1_555
C6 C7 1_555 1_555
C8 C9 1_555 1_555
C9 C10 1_555 1_555
C16 C24 1_555 1_555
C17 C22 1_555 1_555
C18 C19 1_555 1_555
C20 C21 1_555 1_555
C21 C22 1_555 1_555
O6 H9 1_555 1_555
O6 H10 1_555 1_555
O8 H11 1_555 1_555
O8 H12 1_555 1_555
O9 H13 1_555 1_555
O9 H14 1_555 1_555
O2 H15 1_555 1_555
O2 H16 1_555 1_555
O11 H17 1_555 1_555
O11 H18 1_555 1_555
O4 H19 1_555 1_555
O20 H21 1_555 1_555
O20 H22 1_555 1_555
O16 H25 1_555 1_555
O16 H26 1_555 1_555
O14 H24 1_555 1_555
La5 O13 1_555 1_555
La6 O12 1_555 1_555
O14_2 H24_2 1_555 1_555
La3 O1_2 1_555 1_555
S3_2 O25_2 1_555 1_555
O1_2 C11_2 1_555 1_555
O3_2 La3 1_555 1_555
O32 C12_2 1_555 1_555
O7_2 C12_2 1_555 1_555
O16_2 La3 1_555 1_555
O18_2 La3 1_555 1_555
O26_2 S3_2 1_555 1_555
O37 S3_2 1_555 1_555
O30_2 S4_2 1_555 1_555
C1_2 C2_2 1_555 1_555
C2_2 H1_2 1_555 1_555
C3_2 C2_2 1_555 1_555
H2_2 C3_2 1_555 1_555
C4_2 C3_2 1_555 1_555
C5_2 C4_2 1_555 1_555
C6_2 C5_2 1_555 1_555
H3_2 C6_2 1_555 1_555
C10_2 C1_2 1_555 1_555
C11_2 O3_2 1_555 1_555
C12_2 C4_2 1_555 1_555
C18_2 C17_2 1_555 1_555
H7_2 C18_2 1_555 1_555
C19_2 S3_2 1_555 1_555
C20_2 C19_2 1_555 1_555
H8_2 C20_2 1_555 1_555
C21_2 S4_2 1_555 1_555
C22_2 C13_2 1_555 1_555
O38 La3 1_555 1_555
La3 O35 1_555 1_555
C1_2 C11_2 1_555 1_555
C5_2 C10_2 1_555 1_555
C17_2 C22_2 1_555 1_555
C18_2 C19_2 1_555 1_555
C20_2 C21_2 1_555 1_555
C21_2 C22_2 1_555 1_555
O11_2 H17_2 1_555 1_555
O11_2 H18_2 1_555 1_555
O16_2 H25_2 1_555 1_555
O16_2 H26_2 1_555 1_555
O35 C23_2 1_555 1_555
O36 C23_2 1_555 1_555
La5 O2_2 1_555 1_555
S1_2 O10_2 1_555 1_555
S2_2 O15_2 1_555 1_555
O4_2 La5 1_555 1_555
O6_2 La5 1_555 1_555
O8_2 La5 1_555 1_555
O9_2 La6 1_555 1_555
O10_2 La6 1_555 1_555
O17_2 S2_2 1_555 1_555
O19_2 S2_2 1_555 1_555
O20_2 La5 1_555 1_555
O21_2 La6 1_555 1_555
O22_2 La5 1_555 1_555
O31_2 La5 1_555 1_555
C7_2 S2_2 1_555 1_555
C8_2 C7_2 1_555 1_555
H4_2 C8_2 1_555 1_555
C9_2 S1_2 1_555 1_555
C14_2 H5_2 1_555 1_555
C15_2 C14_2 1_555 1_555
H6_2 C15_2 1_555 1_555
C16_2 C15_2 1_555 1_555
C24_2 O21_2 1_555 1_555
La6 O31_2 1_555 1_555
O22_2 C24_2 1_555 1_555
C8_2 C9_2 1_555 1_555
C16_2 C24_2 1_555 1_555
O6_2 H9_2 1_555 1_555
O6_2 H10_2 1_555 1_555
O8_2 H11_2 1_555 1_555
O8_2 H12_2 1_555 1_555
O9_2 H13_2 1_555 1_555
O9_2 H14_2 1_555 1_555
O2_2 H15_2 1_555 1_555
O2_2 H16_2 1_555 1_555
O4_2 H19_2 1_555 1_555
O20_2 H21_2 1_555 1_555
O20_2 H22_2 1_555 1_555

#END
