
###############################################################################
#
# This file contains modified crystal structure data generated from the
# MOF subset of the Cambridge Structural Database (CSD) v543 
# hosted by the Cambridge Crystallographic Data Centre (CCDC).
#
# This work is licensed under the Creative Commons
# Attribution-NonCommercial-ShareAlike 4.0 International License.
# To view a copy of this license, visit
# http://creativecommons.org/licenses/by-nc-sa/4.0/
# or send a letter to
# Creative Commons, PO Box 1866, Mountain View, CA 94042, USA.
#
# CIF created using the CSD Python API on 29 September 2022
# The structure has been converted into the P1 space group
# The structure has a 3D framework
# The original CSD entry VUMPUR is in the monoclinic crystal system
# The original CSD entry VUMPUR is in a Sohncke space group
# The framework has been calculated to contain at least 10.0% void space
# The void calculation uses a probe of radius 1.32A, grid spacing 0.4
# The framework is charged, counterions have been retained in the structure
# H atom positions have been added when not included in the experimental data
#
###############################################################################

data_VUMPUR
_chemical_formula_moiety         '(C48 H52 Nd6 O54 S8)n'
_symmetry_cell_setting           triclinic
_symmetry_space_group_name_H-M   'P 1'
_symmetry_Int_Tables_number      1
_space_group_name_Hall           'P 1'
loop_
_symmetry_equiv_pos_site_id
_symmetry_equiv_pos_as_xyz
1 x,y,z
_cell_length_a                   7.1126(5)
_cell_length_b                   24.0391(16)
_cell_length_c                   11.7687(8)
_cell_angle_alpha                90
_cell_angle_beta                 92.582(6)
_cell_angle_gamma                90
_cell_volume                     2010.18
loop_
_atom_site_label
_atom_site_type_symbol
_atom_site_fract_x
_atom_site_fract_y
_atom_site_fract_z
Nd9 Nd 0.19792(19) 0.61240(6) 0.07288(10)
O22 O 0.444(3) 0.5443(9) 0.0506(15)
O23 O 0.719(3) 0.5068(8) 0.0918(16)
O27 O 0.505(3) 0.6555(9) 0.0312(18)
O28 O 0.833(3) 0.6231(9) 0.0267(16)
C23 C 0.607(4) 0.5285(11) 0.021(2)
Nd7 Nd 0.52567(18) 0.48787(6) 0.25932(10)
Nd1 Nd 0.6893(2) 0.33629(6) 0.43699(12)
S1 S 0.0421(9) 0.4459(3) 0.3652(5)
S2 S 0.1809(11) 0.4049(3) 0.8066(6)
S3 S 0.5558(10) 0.6995(3) 0.5279(5)
S4 S 0.6823(9) 0.6578(3) 0.9722(5)
O1 O 0.276(3) 0.5559(8) 0.2815(16)
O2 O 0.551(5) 0.3160(12) 0.627(2)
O3 O 0.006(2) 0.5994(8) 0.2421(15)
O4 O 0.947(4) 0.2956(11) 0.560(2)
O5 O 0.169(3) 0.6038(8) 0.8701(15)
O6 O 0.854(5) 0.2886(11) 0.294(2)
O7 O 0.145(5) 0.6865(10) 0.7942(19)
O8 O 0.349(4) 0.3311(15) 0.405(3)
O9 O 0.430(3) 0.4227(10) 0.1011(16)
O10 O 0.220(3) 0.4426(8) 0.3052(16)
O11 O 0.645(3) 0.5839(9) 0.2832(18)
O14 O 0.134(3) 0.7099(10) 0.0109(18)
O15 O 0.019(4) 0.3700(13) 0.794(3)
O16 O 0.295(3) 0.6828(10) 0.226(2)
O17 O 0.347(4) 0.3717(12) 0.785(2)
O18 O 0.075(3) 0.5190(8) 0.0503(16)
O19 O 0.200(4) 0.4353(11) 0.9123(18)
O20 O 0.551(3) 0.4991(8) 0.4640(16)
O21 O 0.657(3) 0.4203(8) 0.5358(17)
O24 O 0.503(3) 0.6699(9) 0.4247(17)
O25 O 0.735(3) 0.7287(10) 0.525(2)
O26 O 0.404(3) 0.7360(9) 0.5639(18)
O29 O 0.732(3) 0.7160(9) 0.9568(17)
O30 O 0.601(3) 0.3986(7) 0.2959(14)
C1 C 0.082(3) 0.5770(10) 0.436(2)
C2 C 0.052(4) 0.6322(10) 0.470(2)
H1 H 0.021997 0.658629 0.414359
C3 C 0.067(3) 0.6488(10) 0.584(2)
H2 H 0.046307 0.685660 0.603850
C4 C 0.114(3) 0.6092(11) 0.6668(19)
C5 C 0.124(3) 0.5531(10) 0.640(2)
C6 C 0.149(4) 0.5097(11) 0.726(2)
H3 H 0.160643 0.519977 0.802475
C7 C 0.154(4) 0.4565(11) 0.700(2)
C8 C 0.128(4) 0.4381(12) 0.586(2)
H4 H 0.131232 0.400484 0.567341
C9 C 0.097(4) 0.4777(12) 0.503(2)
C10 C 0.105(4) 0.5340(11) 0.522(2)
C11 C 0.122(3) 0.5724(10) 0.310(2)
C12 C 0.136(4) 0.6360(12) 0.780(2)
C13 C 0.647(4) 0.5255(11) 0.898(2)
C14 C 0.677(4) 0.4730(11) 0.864(2)
H5 H 0.697788 0.445566 0.918956
C15 C 0.679(4) 0.4574(13) 0.746(2)
H6 H 0.709879 0.421178 0.726641
C16 C 0.636(4) 0.4948(11) 0.6641(19)
C17 C 0.621(4) 0.5517(10) 0.695(2)
C18 C 0.593(4) 0.5936(12) 0.609(2)
H7 H 0.577988 0.582718 0.533624
C19 C 0.587(4) 0.6497(11) 0.635(2)
C20 C 0.608(4) 0.6664(12) 0.749(2)
H8 H 0.606616 0.704096 0.767062
C21 C 0.631(3) 0.6283(9) 0.8337(19)
C22 C 0.631(4) 0.5697(11) 0.812(2)
C24 C 0.611(3) 0.4704(9) 0.5442(18)
Nd5 Nd 0.3107(2) 0.83629(6) 0.56301(12)
O32 O 0.902(3) 0.4805(8) 0.3093(14)
O33 O 0.982(3) 0.3907(8) 0.3881(16)
O36 O 0.596(3) 0.2360(9) 0.4361(18)
H9 H 0.910592 0.257668 0.584165
H11 H 0.620788 0.337338 0.687589
H12 H 0.416408 0.327111 0.624385
H13 H 0.409161 0.444062 0.0294197
H14 H 0.531044 0.394814 0.0914772
H15 H 0.775544 0.257396 0.263351
H16 H 0.880651 0.314813 0.231531
H17 H 0.243225 0.733743 0.033841
H19 H 0.288224 0.359869 0.451508
H20 H 0.315742 0.337635 0.323237
H21 H 0.607309 0.598855 0.357462
H22 H 0.784398 0.583816 0.280982
H23 H 0.424104 0.674118 0.256518
H24 H 0.292851 0.720771 0.192744
H18 H 0.113486 0.711001 0.926909
H26 H 0.0166575 0.514627 0.972562
H25 H 0.978795 0.512278 0.107323
O38 O 0.167(3) 0.1231(9) 0.9733(16)
H25_2 H 0.0212045 0.0122784 0.892677
O12 O 0.098(3) 0.9805(8) 0.6907(14)
O13 O 0.018(3) 0.8907(8) 0.6119(16)
Nd6 Nd 0.47433(18) 0.98787(6) 0.74068(10)
O31 O 0.831(3) 0.1038(8) 0.1299(15)
H18_2 H 0.886514 0.211001 0.0730906
H26_2 H 0.983342 0.0146271 0.0274385
Nd3 Nd 0.80208(19) 0.11240(6) 0.92712(10)
S3_2 S 0.4442(10) 0.1995(3) 0.4721(5)
S4_2 S 0.3177(9) 0.1578(3) 0.0278(5)
O1_2 O 0.724(3) 0.0559(8) 0.7185(16)
O3_2 O 0.994(2) 0.0994(8) 0.7579(15)
O7_2 O 0.855(5) 0.1865(10) 0.2058(19)
O11_2 O 0.355(3) 0.0839(9) 0.7168(18)
O14_2 O 0.866(3) 0.2099(10) 0.9891(18)
O16_2 O 0.705(3) 0.1828(10) 0.774(2)
O18_2 O 0.925(3) 0.0190(8) 0.9497(16)
O24_2 O 0.497(3) 0.1699(9) 0.5753(17)
O25_2 O 0.265(3) 0.2287(10) 0.475(2)
O29_2 O 0.268(3) 0.2160(9) 0.0432(17)
C1_2 C 0.918(3) 0.0770(10) 0.564(2)
C2_2 C 0.948(4) 0.1322(10) 0.530(2)
H1_2 H 0.978003 0.158629 0.585641
C3_2 C 0.933(3) 0.1488(10) 0.416(2)
H2_2 H 0.953693 0.185660 0.396150
C4_2 C 0.886(3) 0.1092(11) 0.3332(19)
C5_2 C 0.876(3) 0.0531(10) 0.360(2)
C6_2 C 0.851(4) 0.0097(11) 0.274(2)
H3_2 H 0.839357 0.019977 0.197525
C10_2 C 0.895(4) 0.0340(11) 0.478(2)
C11_2 C 0.878(3) 0.0724(10) 0.690(2)
C12_2 C 0.864(4) 0.1360(12) 0.220(2)
C13_2 C 0.353(4) 0.0255(11) 0.102(2)
C17_2 C 0.379(4) 0.0517(10) 0.305(2)
C18_2 C 0.407(4) 0.0936(12) 0.391(2)
H7_2 H 0.422012 0.082718 0.466376
C19_2 C 0.413(4) 0.1497(11) 0.365(2)
C20_2 C 0.392(4) 0.1664(12) 0.251(2)
H8_2 H 0.393384 0.204096 0.232938
C21_2 C 0.369(3) 0.1283(9) 0.1663(19)
C22_2 C 0.369(4) 0.0697(11) 0.188(2)
O34 O 0.556(3) 0.0443(9) 0.9494(15)
O35 O 0.281(3) 0.0068(8) 0.9082(16)
O37 O 0.495(3) 0.1555(9) 0.9688(18)
H17_2 H 0.756775 0.233743 0.966159
H21_2 H 0.392691 0.0988551 0.642538
H22_2 H 0.215602 0.0838162 0.719018
H23_2 H 0.575896 0.174118 0.743482
H24_2 H 0.707149 0.220771 0.807256
C23_2 C 0.393(4) 0.0285(11) 0.979(2)
S1_2 S 0.9579(9) 0.9459(3) 0.6348(5)
S2_2 S 0.8191(11) 0.9049(3) 0.1934(6)
O2_2 O 0.449(5) 0.8160(12) 0.373(2)
O4_2 O 0.053(4) 0.7956(11) 0.440(2)
O6_2 O 0.146(5) 0.7886(11) 0.706(2)
O8_2 O 0.651(4) 0.8311(15) 0.595(3)
O9_2 O 0.570(3) 0.9227(10) 0.8989(16)
O10_2 O 0.780(3) 0.9426(8) 0.6948(16)
O15_2 O 0.981(4) 0.8700(13) 0.206(3)
O17_2 O 0.653(4) 0.8717(12) 0.215(2)
O19_2 O 0.800(4) 0.9353(11) 0.0877(18)
O20_2 O 0.449(3) 0.9991(8) 0.5360(16)
O21_2 O 0.343(3) 0.9203(8) 0.4642(17)
O30_2 O 0.399(3) 0.8986(7) 0.7041(14)
C7_2 C 0.846(4) 0.9565(11) 0.300(2)
C8_2 C 0.872(4) 0.9381(12) 0.414(2)
H4_2 H 0.868768 0.900484 0.432659
C9_2 C 0.903(4) 0.9777(12) 0.497(2)
C14_2 C 0.323(4) 0.9730(11) 0.136(2)
H5_2 H 0.302212 0.945566 0.081044
C15_2 C 0.321(4) 0.9574(13) 0.254(2)
H6_2 H 0.290121 0.921178 0.273359
C16_2 C 0.364(4) 0.9948(11) 0.3359(19)
C24_2 C 0.389(3) 0.9704(9) 0.4558(18)
H9_2 H 0.0894083 0.757668 0.415835
H11_2 H 0.379212 0.837338 0.312411
H12_2 H 0.583592 0.827111 0.375615
H13_2 H 0.590839 0.944062 0.97058
H14_2 H 0.468956 0.894814 0.908523
H15_2 H 0.224456 0.757396 0.736649
H16_2 H 0.119349 0.814813 0.768469
H19_2 H 0.711776 0.859869 0.548492
H20_2 H 0.684258 0.837635 0.676763
H10 H 0.0635591 0.293454 0.516829
H10_2 H 0.936441 0.793454 0.483171
loop_
_geom_bond_atom_site_label_1
_geom_bond_atom_site_label_2
_geom_bond_site_symmetry_1
_geom_bond_site_symmetry_2
O22 C23 1_555 1_555
O23 C23 1_555 1_555
O27 Nd9 1_555 1_555
Nd7 O22 1_555 1_555
O22 Nd9 1_555 1_555
O23 Nd7 1_555 1_555
Nd1 O2 1_555 1_555
Nd7 O1 1_555 1_555
Nd9 O1 1_555 1_555
S1 O10 1_555 1_555
S2 O15 1_555 1_555
S3 O24 1_555 1_555
O1 C11 1_555 1_555
O3 Nd9 1_555 1_555
O4 Nd1 1_555 1_555
O5 C12 1_555 1_555
O6 Nd1 1_555 1_555
O7 C12 1_555 1_555
O8 Nd1 1_555 1_555
O9 Nd7 1_555 1_555
O10 Nd7 1_555 1_555
O11 Nd7 1_555 1_555
O14 Nd9 1_555 1_555
O16 Nd9 1_555 1_555
O17 S2 1_555 1_555
O18 Nd9 1_555 1_555
O19 S2 1_555 1_555
O20 Nd7 1_555 1_555
O21 Nd1 1_555 1_555
O25 S3 1_555 1_555
O26 S3 1_555 1_555
O29 S4 1_555 1_555
O30 Nd1 1_555 1_555
C1 C2 1_555 1_555
C2 H1 1_555 1_555
C3 C2 1_555 1_555
H2 C3 1_555 1_555
C4 C3 1_555 1_555
C5 C4 1_555 1_555
C6 C5 1_555 1_555
H3 C6 1_555 1_555
C7 S2 1_555 1_555
C8 C7 1_555 1_555
H4 C8 1_555 1_555
C9 S1 1_555 1_555
C10 C1 1_555 1_555
C11 O3 1_555 1_555
C12 C4 1_555 1_555
C13 C14 1_555 1_555
C14 H5 1_555 1_555
C15 C14 1_555 1_555
H6 C15 1_555 1_555
C16 C15 1_555 1_555
C17 C16 1_555 1_555
C18 C17 1_555 1_555
H7 C18 1_555 1_555
C19 S3 1_555 1_555
C20 C19 1_555 1_555
H8 C20 1_555 1_555
C21 S4 1_555 1_555
C22 C13 1_555 1_555
C24 O20 1_555 1_555
Nd5 O26 1_555 1_555
O32 Nd7 1_555 1_555
O33 Nd1 1_555 1_555
O36 Nd1 1_555 1_555
Nd7 O30 1_555 1_555
O21 C24 1_555 1_555
C1 C11 1_555 1_555
C5 C10 1_555 1_555
C6 C7 1_555 1_555
C8 C9 1_555 1_555
C9 C10 1_555 1_555
C16 C24 1_555 1_555
C17 C22 1_555 1_555
C18 C19 1_555 1_555
C20 C21 1_555 1_555
C21 C22 1_555 1_555
O4 H9 1_555 1_555
O2 H11 1_555 1_555
O2 H12 1_555 1_555
O9 H13 1_555 1_555
O9 H14 1_555 1_555
O6 H15 1_555 1_555
O6 H16 1_555 1_555
O14 H17 1_555 1_555
O8 H19 1_555 1_555
O8 H20 1_555 1_555
O11 H21 1_555 1_555
O11 H22 1_555 1_555
O16 H23 1_555 1_555
O16 H24 1_555 1_555
Nd5 O13 1_555 1_555
Nd6 O12 1_555 1_555
Nd3 O1_2 1_555 1_555
S3_2 O24_2 1_555 1_555
O1_2 C11_2 1_555 1_555
O3_2 Nd3 1_555 1_555
O31 C12_2 1_555 1_555
O7_2 C12_2 1_555 1_555
O14_2 Nd3 1_555 1_555
O16_2 Nd3 1_555 1_555
O18_2 Nd3 1_555 1_555
O25_2 S3_2 1_555 1_555
O36 S3_2 1_555 1_555
O29_2 S4_2 1_555 1_555
C1_2 C2_2 1_555 1_555
C2_2 H1_2 1_555 1_555
C3_2 C2_2 1_555 1_555
H2_2 C3_2 1_555 1_555
C4_2 C3_2 1_555 1_555
C5_2 C4_2 1_555 1_555
C6_2 C5_2 1_555 1_555
H3_2 C6_2 1_555 1_555
C10_2 C1_2 1_555 1_555
C11_2 O3_2 1_555 1_555
C12_2 C4_2 1_555 1_555
C18_2 C17_2 1_555 1_555
H7_2 C18_2 1_555 1_555
C19_2 S3_2 1_555 1_555
C20_2 C19_2 1_555 1_555
H8_2 C20_2 1_555 1_555
C21_2 S4_2 1_555 1_555
C22_2 C13_2 1_555 1_555
O37 Nd3 1_555 1_555
Nd3 O34 1_555 1_555
C1_2 C11_2 1_555 1_555
C5_2 C10_2 1_555 1_555
C17_2 C22_2 1_555 1_555
C18_2 C19_2 1_555 1_555
C20_2 C21_2 1_555 1_555
C21_2 C22_2 1_555 1_555
O14_2 H17_2 1_555 1_555
O11_2 H21_2 1_555 1_555
O11_2 H22_2 1_555 1_555
O16_2 H23_2 1_555 1_555
O16_2 H24_2 1_555 1_555
O34 C23_2 1_555 1_555
O35 C23_2 1_555 1_555
Nd5 O2_2 1_555 1_555
S1_2 O10_2 1_555 1_555
S2_2 O15_2 1_555 1_555
O4_2 Nd5 1_555 1_555
O6_2 Nd5 1_555 1_555
O8_2 Nd5 1_555 1_555
O9_2 Nd6 1_555 1_555
O10_2 Nd6 1_555 1_555
O17_2 S2_2 1_555 1_555
O19_2 S2_2 1_555 1_555
O20_2 Nd6 1_555 1_555
O21_2 Nd5 1_555 1_555
O30_2 Nd5 1_555 1_555
C7_2 S2_2 1_555 1_555
C8_2 C7_2 1_555 1_555
H4_2 C8_2 1_555 1_555
C9_2 S1_2 1_555 1_555
C14_2 H5_2 1_555 1_555
C15_2 C14_2 1_555 1_555
H6_2 C15_2 1_555 1_555
C16_2 C15_2 1_555 1_555
C24_2 O20_2 1_555 1_555
Nd6 O30_2 1_555 1_555
O21_2 C24_2 1_555 1_555
C8_2 C9_2 1_555 1_555
C16_2 C24_2 1_555 1_555
O4_2 H9_2 1_555 1_555
O2_2 H11_2 1_555 1_555
O2_2 H12_2 1_555 1_555
O9_2 H13_2 1_555 1_555
O9_2 H14_2 1_555 1_555
O6_2 H15_2 1_555 1_555
O6_2 H16_2 1_555 1_555
O8_2 H19_2 1_555 1_555
O8_2 H20_2 1_555 1_555

#END
