
###############################################################################
#
# This file contains modified crystal structure data generated from the
# MOF subset of the Cambridge Structural Database (CSD) v543 
# hosted by the Cambridge Crystallographic Data Centre (CCDC).
#
# This work is licensed under the Creative Commons
# Attribution-NonCommercial-ShareAlike 4.0 International License.
# To view a copy of this license, visit
# http://creativecommons.org/licenses/by-nc-sa/4.0/
# or send a letter to
# Creative Commons, PO Box 1866, Mountain View, CA 94042, USA.
#
# CIF created using the CSD Python API on 29 September 2022
# The structure has been converted into the P1 space group
# The structure has a 3D framework
# The original CSD entry VUMQAY is in the monoclinic crystal system
# The original CSD entry VUMQAY is in a Sohncke space group
# The framework has been calculated to contain at least 10.0% void space
# The void calculation uses a probe of radius 1.32A, grid spacing 0.4
# The framework is charged, counterions have been retained in the structure
# H atom positions have been added when not included in the experimental data
#
###############################################################################

data_VUMQAY
_chemical_formula_moiety         '(C48 H52 O54 S8 Sm6)n'
_symmetry_cell_setting           triclinic
_symmetry_space_group_name_H-M   'P 1'
_symmetry_Int_Tables_number      1
_space_group_name_Hall           'P 1'
loop_
_symmetry_equiv_pos_site_id
_symmetry_equiv_pos_as_xyz
1 x,y,z
_cell_length_a                   7.07610(10)
_cell_length_b                   23.9242(5)
_cell_length_c                   11.7549(2)
_cell_angle_alpha                90
_cell_angle_beta                 92.739(2)
_cell_angle_gamma                90
_cell_volume                     1987.71
loop_
_atom_site_label
_atom_site_type_symbol
_atom_site_fract_x
_atom_site_fract_y
_atom_site_fract_z
Sm9 Sm 0.19923(6) 0.61202(2) 0.07338(3)
O22 O 0.4449(9) 0.5451(3) 0.0508(6)
O23 O 0.7163(8) 0.5058(3) 0.0952(5)
O27 O 0.5021(9) 0.6558(3) 0.0304(6)
O28 O 0.8301(9) 0.6240(3) 0.0296(6)
C23 C 0.6048(12) 0.5292(4) 0.0220(7)
Sm7 Sm 0.52976(6) 0.48765(2) 0.26099(3)
Sm1 Sm 0.69086(6) 0.33688(2) 0.43734(4)
S1 S 0.0470(3) 0.44580(9) 0.36607(17)
S2 S 0.1853(4) 0.40409(11) 0.8083(2)
S3 S 0.5615(3) 0.70051(10) 0.52843(19)
S4 S 0.6809(3) 0.65788(10) 0.97393(18)
O1 O 0.2810(9) 0.5546(3) 0.2822(6)
O2 O 0.5598(16) 0.3165(4) 0.6262(8)
O3 O 0.0151(8) 0.5988(3) 0.2421(5)
O4 O 0.9525(11) 0.2948(4) 0.5536(8)
O5 O 0.1635(10) 0.6037(3) 0.8739(5)
O6 O 0.8384(16) 0.2892(4) 0.2854(8)
O7 O 0.1535(16) 0.6867(3) 0.7963(6)
O8 O 0.3566(12) 0.3310(5) 0.3875(13)
O9 O 0.4272(11) 0.4224(4) 0.1046(6)
O10 O 0.2234(9) 0.4412(3) 0.3069(6)
O11 O 0.6514(9) 0.5822(3) 0.2842(6)
O14 O 0.1334(10) 0.7091(3) 0.0137(6)
O15 O 0.0197(15) 0.3696(5) 0.7964(12)
O16 O 0.3039(11) 0.6812(4) 0.2242(6)
O17 O 0.3548(12) 0.3733(4) 0.7872(7)
O18 O 0.0729(9) 0.5200(3) 0.0517(6)
O19 O 0.1990(16) 0.4348(4) 0.9142(6)
O20 O 0.5587(9) 0.4991(3) 0.4637(5)
O21 O 0.6615(11) 0.4192(3) 0.5386(6)
O24 O 0.5161(12) 0.6703(3) 0.4231(6)
O25 O 0.7385(10) 0.7311(3) 0.5270(7)
O26 O 0.4088(9) 0.7366(3) 0.5615(6)
O29 O 0.7388(9) 0.7154(3) 0.9577(6)
O30 O 0.6102(8) 0.3985(2) 0.2976(5)
C1 C 0.0889(11) 0.5778(4) 0.4377(7)
C2 C 0.0594(13) 0.6326(4) 0.4705(8)
H1 H 0.032320 0.659411 0.414744
C3 C 0.0691(13) 0.6490(4) 0.5853(7)
H2 H 0.045204 0.685975 0.604583
C4 C 0.1139(11) 0.6104(4) 0.6695(7)
C5 C 0.1262(12) 0.5528(4) 0.6411(8)
C6 C 0.1542(12) 0.5107(4) 0.7277(8)
H3 H 0.168757 0.521348 0.803731
C7 C 0.1597(12) 0.4559(4) 0.7001(8)
C8 C 0.1307(13) 0.4376(4) 0.5882(8)
H4 H 0.129042 0.399578 0.571939
C9 C 0.1045(11) 0.4761(4) 0.5015(7)
C10 C 0.1086(11) 0.5352(4) 0.5238(7)
C11 C 0.1251(11) 0.5744(4) 0.3131(7)
C12 C 0.1452(13) 0.6351(4) 0.7882(8)
C13 C 0.6473(11) 0.5260(4) 0.8982(7)
C14 C 0.6831(13) 0.4724(4) 0.8654(7)
H5 H 0.708755 0.445309 0.920842
C15 C 0.6820(13) 0.4572(4) 0.7502(8)
H6 H 0.709901 0.420486 0.730815
C16 C 0.6408(11) 0.4952(4) 0.6656(7)
C17 C 0.6214(11) 0.5527(4) 0.6953(7)
C18 C 0.5969(12) 0.5934(4) 0.6093(8)
H7 H 0.585269 0.582344 0.533418
C19 C 0.5897(12) 0.6497(4) 0.6362(8)
C20 C 0.6151(12) 0.6673(4) 0.7496(8)
H8 H 0.617274 0.705270 0.766686
C21 C 0.6365(12) 0.6289(4) 0.8353(8)
C22 C 0.6329(11) 0.5689(4) 0.8136(7)
C24 C 0.6188(12) 0.4700(4) 0.5455(7)
Sm5 Sm 0.30914(6) 0.83688(2) 0.56266(4)
O32 O 0.9059(8) 0.4807(3) 0.3089(5)
O33 O 0.9805(9) 0.3893(3) 0.3898(5)
O36 O 0.5912(9) 0.2366(3) 0.4385(6)
H9 H 0.614311 0.597441 0.358476
H10 H 0.791504 0.581647 0.282056
H11 H 0.433956 0.67181 0.253544
H12 H 0.302919 0.719388 0.191082
H15 H 0.242997 0.733139 0.0368478
H17 H 0.633173 0.337354 0.68652
H18 H 0.425155 0.328254 0.62538
H19 H 0.915906 0.256645 0.577482
H21 H 0.288033 0.359751 0.430386
H22 H 0.334866 0.337537 0.304483
H23 H 0.404147 0.443798 0.0328929
H24 H 0.527752 0.394184 0.0939741
H25 H 0.751594 0.259952 0.253434
H26 H 0.866913 0.316399 0.224756
H14 H 0.0120305 0.515887 0.974276
H16 H 0.111906 0.710518 0.929651
H13 H 0.977509 0.513571 0.109578
O38 O 0.1699(9) 0.1240(3) 0.9704(6)
H13_2 H 0.022491 0.0135707 0.890422
O12 O 0.0941(8) 0.9807(3) 0.6911(5)
O13 O 0.0195(9) 0.8893(3) 0.6102(5)
Sm6 Sm 0.47024(6) 0.98765(2) 0.73901(3)
O31 O 0.8365(10) 0.1037(3) 0.1261(5)
H14_2 H 0.987969 0.0158869 0.0257244
H16_2 H 0.888094 0.210518 0.0703494
Sm3 Sm 0.80077(6) 0.11202(2) 0.92662(3)
S3_2 S 0.4385(3) 0.20051(10) 0.47157(19)
S4_2 S 0.3191(3) 0.15788(10) 0.02607(18)
O1_2 O 0.7190(9) 0.0546(3) 0.7178(6)
O3_2 O 0.9849(8) 0.0988(3) 0.7579(5)
O7_2 O 0.8465(16) 0.1867(3) 0.2037(6)
O11_2 O 0.3486(9) 0.0822(3) 0.7158(6)
O14_2 O 0.8666(10) 0.2091(3) 0.9863(6)
O16_2 O 0.6961(11) 0.1812(4) 0.7758(6)
O18_2 O 0.9271(9) 0.0200(3) 0.9483(6)
O24_2 O 0.4839(12) 0.1703(3) 0.5769(6)
O25_2 O 0.2615(10) 0.2311(3) 0.4730(7)
O29_2 O 0.2612(9) 0.2154(3) 0.0423(6)
C1_2 C 0.9111(11) 0.0778(4) 0.5623(7)
C2_2 C 0.9406(13) 0.1326(4) 0.5295(8)
H1_2 H 0.967680 0.159411 0.585256
C3_2 C 0.9309(13) 0.1490(4) 0.4147(7)
H2_2 H 0.954796 0.185975 0.395417
C4_2 C 0.8861(11) 0.1104(4) 0.3305(7)
C5_2 C 0.8738(12) 0.0528(4) 0.3589(8)
C6_2 C 0.8458(12) 0.0107(4) 0.2723(8)
H3_2 H 0.831243 0.021348 0.196269
C10_2 C 0.8914(11) 0.0352(4) 0.4762(7)
C11_2 C 0.8749(11) 0.0744(4) 0.6869(7)
C12_2 C 0.8548(13) 0.1351(4) 0.2118(8)
C13_2 C 0.3527(11) 0.0260(4) 0.1018(7)
C17_2 C 0.3786(11) 0.0527(4) 0.3047(7)
C18_2 C 0.4031(12) 0.0934(4) 0.3907(8)
H7_2 H 0.414731 0.082344 0.466582
C19_2 C 0.4103(12) 0.1497(4) 0.3638(8)
C20_2 C 0.3849(12) 0.1673(4) 0.2504(8)
H8_2 H 0.382726 0.205270 0.233314
C21_2 C 0.3635(12) 0.1289(4) 0.1647(8)
C22_2 C 0.3671(11) 0.0689(4) 0.1864(7)
O34 O 0.5551(9) 0.0451(3) 0.9492(6)
O35 O 0.2837(8) 0.0058(3) 0.9048(5)
O37 O 0.4979(9) 0.1558(3) 0.9696(6)
H9_2 H 0.385689 0.0974415 0.641524
H10_2 H 0.208496 0.0816474 0.717944
H11_2 H 0.566044 0.17181 0.746456
H12_2 H 0.697081 0.219388 0.808918
H15_2 H 0.757003 0.233139 0.963152
C23_2 C 0.3952(12) 0.0292(4) 0.9780(7)
S1_2 S 0.9530(3) 0.94580(9) 0.63393(17)
S2_2 S 0.8147(4) 0.90409(11) 0.1917(2)
O2_2 O 0.4402(16) 0.8165(4) 0.3738(8)
O4_2 O 0.0475(11) 0.7948(4) 0.4464(8)
O6_2 O 0.1616(16) 0.7892(4) 0.7146(8)
O8_2 O 0.6434(12) 0.8310(5) 0.6125(13)
O9_2 O 0.5728(11) 0.9224(4) 0.8954(6)
O10_2 O 0.7766(9) 0.9412(3) 0.6931(6)
O15_2 O 0.9803(15) 0.8696(5) 0.2036(12)
O17_2 O 0.6452(12) 0.8733(4) 0.2128(7)
O19_2 O 0.8010(16) 0.9348(4) 0.0858(6)
O20_2 O 0.4413(9) 0.9991(3) 0.5363(5)
O21_2 O 0.3385(11) 0.9192(3) 0.4614(6)
O30_2 O 0.3898(8) 0.8985(2) 0.7024(5)
C7_2 C 0.8403(12) 0.9559(4) 0.2999(8)
C8_2 C 0.8693(13) 0.9376(4) 0.4118(8)
H4_2 H 0.870958 0.899578 0.428061
C9_2 C 0.8955(11) 0.9761(4) 0.4985(7)
C14_2 C 0.3169(13) 0.9724(4) 0.1346(7)
H5_2 H 0.291245 0.945309 0.079158
C15_2 C 0.3180(13) 0.9572(4) 0.2498(8)
H6_2 H 0.290099 0.920486 0.269185
C16_2 C 0.3592(11) 0.9952(4) 0.3344(7)
C24_2 C 0.3812(12) 0.9700(4) 0.4545(7)
H17_2 H 0.366827 0.837354 0.31348
H18_2 H 0.574845 0.828254 0.37462
H19_2 H 0.0840937 0.756645 0.422518
H21_2 H 0.711967 0.859751 0.569614
H22_2 H 0.665134 0.837537 0.695517
H23_2 H 0.595853 0.943798 0.967107
H24_2 H 0.472248 0.894184 0.906026
H25_2 H 0.248406 0.759952 0.746566
H26_2 H 0.133087 0.816399 0.775244
H20 H 0.0668958 0.292571 0.508062
H20_2 H 0.933104 0.792571 0.491938
loop_
_geom_bond_atom_site_label_1
_geom_bond_atom_site_label_2
_geom_bond_site_symmetry_1
_geom_bond_site_symmetry_2
O22 C23 1_555 1_555
O23 C23 1_555 1_555
O27 Sm9 1_555 1_555
Sm7 O22 1_555 1_555
O22 Sm9 1_555 1_555
O23 Sm7 1_555 1_555
Sm1 O2 1_555 1_555
Sm7 O1 1_555 1_555
Sm9 O1 1_555 1_555
S1 O10 1_555 1_555
S2 O15 1_555 1_555
S3 O24 1_555 1_555
O1 C11 1_555 1_555
O3 Sm9 1_555 1_555
O4 Sm1 1_555 1_555
O5 C12 1_555 1_555
O6 Sm1 1_555 1_555
O7 C12 1_555 1_555
O8 Sm1 1_555 1_555
O9 Sm7 1_555 1_555
O10 Sm7 1_555 1_555
O11 Sm7 1_555 1_555
O14 Sm9 1_555 1_555
O16 Sm9 1_555 1_555
O17 S2 1_555 1_555
O18 Sm9 1_555 1_555
O19 S2 1_555 1_555
O20 Sm7 1_555 1_555
O21 Sm1 1_555 1_555
O25 S3 1_555 1_555
O26 S3 1_555 1_555
O29 S4 1_555 1_555
O30 Sm1 1_555 1_555
C1 C2 1_555 1_555
C2 H1 1_555 1_555
C3 C2 1_555 1_555
H2 C3 1_555 1_555
C4 C3 1_555 1_555
C5 C4 1_555 1_555
C6 C5 1_555 1_555
H3 C6 1_555 1_555
C7 S2 1_555 1_555
C8 C7 1_555 1_555
H4 C8 1_555 1_555
C9 S1 1_555 1_555
C10 C1 1_555 1_555
C11 O3 1_555 1_555
C12 C4 1_555 1_555
C13 C14 1_555 1_555
C14 H5 1_555 1_555
C15 C14 1_555 1_555
H6 C15 1_555 1_555
C16 C15 1_555 1_555
C17 C16 1_555 1_555
C18 C17 1_555 1_555
H7 C18 1_555 1_555
C19 S3 1_555 1_555
C20 C19 1_555 1_555
H8 C20 1_555 1_555
C21 S4 1_555 1_555
C22 C13 1_555 1_555
C24 O20 1_555 1_555
Sm5 O26 1_555 1_555
O32 Sm7 1_555 1_555
O33 Sm1 1_555 1_555
O36 Sm1 1_555 1_555
Sm7 O30 1_555 1_555
O21 C24 1_555 1_555
C1 C11 1_555 1_555
C5 C10 1_555 1_555
C6 C7 1_555 1_555
C8 C9 1_555 1_555
C9 C10 1_555 1_555
C16 C24 1_555 1_555
C17 C22 1_555 1_555
C18 C19 1_555 1_555
C20 C21 1_555 1_555
C21 C22 1_555 1_555
O11 H9 1_555 1_555
O11 H10 1_555 1_555
O16 H11 1_555 1_555
O16 H12 1_555 1_555
O14 H15 1_555 1_555
O2 H17 1_555 1_555
O2 H18 1_555 1_555
O4 H19 1_555 1_555
O8 H21 1_555 1_555
O8 H22 1_555 1_555
O9 H23 1_555 1_555
O9 H24 1_555 1_555
O6 H25 1_555 1_555
O6 H26 1_555 1_555
Sm5 O13 1_555 1_555
Sm6 O12 1_555 1_555
Sm3 O1_2 1_555 1_555
S3_2 O24_2 1_555 1_555
O1_2 C11_2 1_555 1_555
O3_2 Sm3 1_555 1_555
O31 C12_2 1_555 1_555
O7_2 C12_2 1_555 1_555
O14_2 Sm3 1_555 1_555
O16_2 Sm3 1_555 1_555
O18_2 Sm3 1_555 1_555
O25_2 S3_2 1_555 1_555
O36 S3_2 1_555 1_555
O29_2 S4_2 1_555 1_555
C1_2 C2_2 1_555 1_555
C2_2 H1_2 1_555 1_555
C3_2 C2_2 1_555 1_555
H2_2 C3_2 1_555 1_555
C4_2 C3_2 1_555 1_555
C5_2 C4_2 1_555 1_555
C6_2 C5_2 1_555 1_555
H3_2 C6_2 1_555 1_555
C10_2 C1_2 1_555 1_555
C11_2 O3_2 1_555 1_555
C12_2 C4_2 1_555 1_555
C18_2 C17_2 1_555 1_555
H7_2 C18_2 1_555 1_555
C19_2 S3_2 1_555 1_555
C20_2 C19_2 1_555 1_555
H8_2 C20_2 1_555 1_555
C21_2 S4_2 1_555 1_555
C22_2 C13_2 1_555 1_555
O37 Sm3 1_555 1_555
Sm3 O34 1_555 1_555
C1_2 C11_2 1_555 1_555
C5_2 C10_2 1_555 1_555
C17_2 C22_2 1_555 1_555
C18_2 C19_2 1_555 1_555
C20_2 C21_2 1_555 1_555
C21_2 C22_2 1_555 1_555
O11_2 H9_2 1_555 1_555
O11_2 H10_2 1_555 1_555
O16_2 H11_2 1_555 1_555
O16_2 H12_2 1_555 1_555
O14_2 H15_2 1_555 1_555
O34 C23_2 1_555 1_555
O35 C23_2 1_555 1_555
Sm5 O2_2 1_555 1_555
S1_2 O10_2 1_555 1_555
S2_2 O15_2 1_555 1_555
O4_2 Sm5 1_555 1_555
O6_2 Sm5 1_555 1_555
O8_2 Sm5 1_555 1_555
O9_2 Sm6 1_555 1_555
O10_2 Sm6 1_555 1_555
O17_2 S2_2 1_555 1_555
O19_2 S2_2 1_555 1_555
O20_2 Sm6 1_555 1_555
O21_2 Sm5 1_555 1_555
O30_2 Sm5 1_555 1_555
C7_2 S2_2 1_555 1_555
C8_2 C7_2 1_555 1_555
H4_2 C8_2 1_555 1_555
C9_2 S1_2 1_555 1_555
C14_2 H5_2 1_555 1_555
C15_2 C14_2 1_555 1_555
H6_2 C15_2 1_555 1_555
C16_2 C15_2 1_555 1_555
C24_2 O20_2 1_555 1_555
Sm6 O30_2 1_555 1_555
O21_2 C24_2 1_555 1_555
C8_2 C9_2 1_555 1_555
C16_2 C24_2 1_555 1_555
O2_2 H17_2 1_555 1_555
O2_2 H18_2 1_555 1_555
O4_2 H19_2 1_555 1_555
O8_2 H21_2 1_555 1_555
O8_2 H22_2 1_555 1_555
O9_2 H23_2 1_555 1_555
O9_2 H24_2 1_555 1_555
O6_2 H25_2 1_555 1_555
O6_2 H26_2 1_555 1_555

#END
