
###############################################################################
#
# This file contains modified crystal structure data generated from the
# MOF subset of the Cambridge Structural Database (CSD) v543 
# hosted by the Cambridge Crystallographic Data Centre (CCDC).
#
# This work is licensed under the Creative Commons
# Attribution-NonCommercial-ShareAlike 4.0 International License.
# To view a copy of this license, visit
# http://creativecommons.org/licenses/by-nc-sa/4.0/
# or send a letter to
# Creative Commons, PO Box 1866, Mountain View, CA 94042, USA.
#
# CIF created using the CSD Python API on 29 September 2022
# The structure has been converted into the P1 space group
# The structure has a 3D framework
# The original CSD entry VUMQEC is in the monoclinic crystal system
# The original CSD entry VUMQEC is in a Sohncke space group
# The framework has been calculated to contain at least 10.0% void space
# The void calculation uses a probe of radius 1.32A, grid spacing 0.4
# The framework is charged, counterions have been retained in the structure
# H atom positions have been added when not included in the experimental data
#
###############################################################################

data_VUMQEC
_chemical_formula_moiety         '(C48 H52 Eu6 O54 S8)n'
_symmetry_cell_setting           triclinic
_symmetry_space_group_name_H-M   'P 1'
_symmetry_Int_Tables_number      1
_space_group_name_Hall           'P 1'
loop_
_symmetry_equiv_pos_site_id
_symmetry_equiv_pos_as_xyz
1 x,y,z
_cell_length_a                   7.0508(4)
_cell_length_b                   23.8840(9)
_cell_length_c                   11.7398(4)
_cell_angle_alpha                90
_cell_angle_beta                 92.732(4)
_cell_angle_gamma                90
_cell_volume                     1974.75
loop_
_atom_site_label
_atom_site_type_symbol
_atom_site_fract_x
_atom_site_fract_y
_atom_site_fract_z
Eu9 Eu 0.19810(11) 0.61192(3) 0.07356(6)
O22 O 0.4446(16) 0.5461(5) 0.0506(9)
O23 O 0.7167(15) 0.5058(5) 0.0972(8)
O27 O 0.5010(15) 0.6562(5) 0.0300(10)
O28 O 0.8295(16) 0.6229(5) 0.0325(9)
C23 C 0.601(2) 0.5298(6) 0.0240(12)
Eu7 Eu 0.53020(11) 0.48771(3) 0.26287(5)
Eu1 Eu 0.68920(11) 0.33700(3) 0.43781(6)
S1 S 0.0462(5) 0.44551(16) 0.3674(3)
S2 S 0.1854(7) 0.40483(18) 0.8110(3)
S3 S 0.5613(6) 0.70034(17) 0.5291(3)
S4 S 0.6798(6) 0.65795(17) 0.9749(3)
O1 O 0.2818(16) 0.5535(5) 0.2840(9)
O2 O 0.557(2) 0.3173(6) 0.6243(12)
O3 O 0.0165(14) 0.5992(5) 0.2435(8)
O4 O 0.9497(19) 0.2939(6) 0.5500(11)
O5 O 0.1592(17) 0.6045(5) 0.8768(8)
O6 O 0.829(2) 0.2908(6) 0.2843(12)
O7 O 0.151(2) 0.6871(5) 0.7983(9)
O8 O 0.356(2) 0.3309(7) 0.3905(15)
O9 O 0.4290(19) 0.4231(6) 0.1084(9)
O10 O 0.2261(16) 0.4405(5) 0.3100(9)
O11 O 0.6537(16) 0.5810(5) 0.2847(9)
O14 O 0.1316(17) 0.7090(5) 0.0146(9)
O15 O 0.013(2) 0.3710(7) 0.8039(15)
O16 O 0.3064(19) 0.6801(5) 0.2252(10)
O17 O 0.3544(19) 0.3734(6) 0.7883(10)
O18 O 0.0686(15) 0.5198(5) 0.0524(9)
O19 O 0.202(2) 0.4359(6) 0.9181(9)
O20 O 0.5589(15) 0.4986(4) 0.4647(8)
O21 O 0.6597(16) 0.4183(5) 0.5400(9)
O24 O 0.5143(19) 0.6691(5) 0.4231(9)
O25 O 0.7382(18) 0.7302(5) 0.5288(10)
O26 O 0.4057(17) 0.7359(5) 0.5605(9)
O29 O 0.7386(18) 0.7163(5) 0.9583(9)
O30 O 0.6103(13) 0.3991(4) 0.3001(7)
C1 C 0.087(2) 0.5775(7) 0.4366(12)
C2 C 0.061(2) 0.6330(7) 0.4702(12)
H1 H 0.034389 0.660252 0.414993
C3 C 0.073(2) 0.6484(7) 0.5858(13)
H2 H 0.054768 0.685770 0.604883
C4 C 0.112(2) 0.6108(7) 0.6714(11)
C5 C 0.126(2) 0.5523(6) 0.6441(12)
C6 C 0.153(2) 0.5105(7) 0.7292(12)
H3 H 0.168866 0.521359 0.805117
C7 C 0.158(2) 0.4563(7) 0.7036(12)
C8 C 0.128(2) 0.4382(7) 0.5901(13)
H4 H 0.125995 0.400126 0.573368
C9 C 0.103(2) 0.4765(7) 0.5044(11)
C10 C 0.110(2) 0.5350(6) 0.5242(11)
C11 C 0.125(2) 0.5741(6) 0.3135(12)
C12 C 0.145(2) 0.6348(6) 0.7866(13)
C13 C 0.648(2) 0.5260(7) 0.8997(13)
C14 C 0.684(2) 0.4725(6) 0.8676(11)
H5 H 0.710877 0.445636 0.923333
C15 C 0.682(2) 0.4569(7) 0.7520(12)
H6 H 0.710054 0.420248 0.732159
C16 C 0.639(2) 0.4958(6) 0.6683(11)
C17 C 0.621(2) 0.5512(7) 0.6951(12)
C18 C 0.595(2) 0.5938(7) 0.6111(13)
H7 H 0.581646 0.583068 0.535012
C19 C 0.589(2) 0.6497(6) 0.6365(12)
C20 C 0.615(2) 0.6668(7) 0.7487(13)
H8 H 0.617396 0.704808 0.765479
C21 C 0.638(2) 0.6287(6) 0.8355(12)
C22 C 0.636(2) 0.5688(6) 0.8146(12)
C24 C 0.617(2) 0.4693(7) 0.5469(12)
Eu5 Eu 0.31080(11) 0.83700(3) 0.56219(6)
O32 O 0.9070(14) 0.4810(5) 0.3102(8)
O33 O 0.9796(15) 0.3891(5) 0.3925(8)
O36 O 0.5943(17) 0.2359(5) 0.4395(9)
H9 H 0.617652 0.596512 0.359106
H10 H 0.794223 0.580077 0.282061
H11 H 0.436861 0.67023 0.253953
H12 H 0.306295 0.7185 0.192772
H13 H 0.631655 0.337704 0.684966
H14 H 0.422628 0.329814 0.623335
H15 H 0.738527 0.262786 0.250718
H16 H 0.860148 0.318649 0.225231
H17 H 0.911932 0.25572 0.573572
H21 H 0.241545 0.73309 0.0377998
H23 H 0.405122 0.444527 0.0366597
H24 H 0.530349 0.394999 0.0975351
H25 H 0.287825 0.359804 0.433536
H26 H 0.332722 0.337192 0.307398
H20 H 0.00642483 0.515797 0.975142
H22 H 0.109775 0.710537 0.930469
H19 H 0.973515 0.513566 0.110832
O38 O 0.1705(16) 0.1229(5) 0.9675(9)
H19_2 H 0.0264854 0.0135658 0.889168
O12 O 0.0930(14) 0.9810(5) 0.6898(8)
O13 O 0.0204(15) 0.8891(5) 0.6075(8)
Eu6 Eu 0.46980(11) 0.98771(3) 0.73713(5)
O31 O 0.8408(17) 0.1045(5) 0.1232(8)
H20_2 H 0.993575 0.0157973 0.0248578
H22_2 H 0.890225 0.210537 0.0695309
Eu3 Eu 0.80190(11) 0.11192(3) 0.92644(6)
S3_2 S 0.4387(6) 0.20034(17) 0.4709(3)
S4_2 S 0.3202(6) 0.15795(17) 0.0251(3)
O1_2 O 0.7182(16) 0.0535(5) 0.7160(9)
O3_2 O 0.9835(14) 0.0992(5) 0.7565(8)
O7_2 O 0.849(2) 0.1871(5) 0.2017(9)
O11_2 O 0.3463(16) 0.0810(5) 0.7153(9)
O14_2 O 0.8684(17) 0.2090(5) 0.9854(9)
O16_2 O 0.6936(19) 0.1801(5) 0.7748(10)
O18_2 O 0.9314(15) 0.0198(5) 0.9476(9)
O24_2 O 0.4857(19) 0.1691(5) 0.5769(9)
O25_2 O 0.2618(18) 0.2302(5) 0.4712(10)
O29_2 O 0.2614(18) 0.2163(5) 0.0417(9)
C1_2 C 0.913(2) 0.0775(7) 0.5634(12)
C2_2 C 0.939(2) 0.1330(7) 0.5298(12)
H1_2 H 0.965611 0.160252 0.585007
C3_2 C 0.927(2) 0.1484(7) 0.4142(13)
H2_2 H 0.945232 0.185770 0.395117
C4_2 C 0.888(2) 0.1108(7) 0.3286(11)
C5_2 C 0.874(2) 0.0523(6) 0.3559(12)
C6_2 C 0.847(2) 0.0105(7) 0.2708(12)
H3_2 H 0.831134 0.021359 0.194883
C10_2 C 0.890(2) 0.0350(6) 0.4758(11)
C11_2 C 0.875(2) 0.0741(6) 0.6865(12)
C12_2 C 0.855(2) 0.1348(6) 0.2134(13)
C13_2 C 0.352(2) 0.0260(7) 0.1003(13)
C17_2 C 0.379(2) 0.0512(7) 0.3049(12)
C18_2 C 0.405(2) 0.0938(7) 0.3889(13)
H7_2 H 0.418354 0.083068 0.464988
C19_2 C 0.411(2) 0.1497(6) 0.3635(12)
C20_2 C 0.385(2) 0.1668(7) 0.2513(13)
H8_2 H 0.382604 0.204808 0.234521
C21_2 C 0.362(2) 0.1287(6) 0.1645(12)
C22_2 C 0.364(2) 0.0688(6) 0.1854(12)
O34 O 0.5554(16) 0.0461(5) 0.9494(9)
O35 O 0.2833(15) 0.0058(5) 0.9028(8)
O37 O 0.4990(15) 0.1562(5) 0.9700(10)
H9_2 H 0.382348 0.0965122 0.640894
H10_2 H 0.205777 0.0800773 0.717939
H11_2 H 0.563139 0.17023 0.746047
H12_2 H 0.693705 0.2185 0.807228
H21_2 H 0.758455 0.23309 0.9622
C23_2 C 0.399(2) 0.0298(6) 0.9760(12)
S1_2 S 0.9538(5) 0.94551(16) 0.6326(3)
S2_2 S 0.8146(7) 0.90483(18) 0.1890(3)
O2_2 O 0.443(2) 0.8173(6) 0.3757(12)
O4_2 O 0.0503(19) 0.7939(6) 0.4500(11)
O6_2 O 0.171(2) 0.7908(6) 0.7157(12)
O8_2 O 0.644(2) 0.8309(7) 0.6095(15)
O9_2 O 0.5710(19) 0.9231(6) 0.8916(9)
O10_2 O 0.7739(16) 0.9405(5) 0.6900(9)
O15_2 O 0.987(2) 0.8710(7) 0.1961(15)
O17_2 O 0.6456(19) 0.8734(6) 0.2117(10)
O19_2 O 0.798(2) 0.9359(6) 0.0819(9)
O20_2 O 0.4411(15) 0.9986(4) 0.5353(8)
O21_2 O 0.3403(16) 0.9183(5) 0.4600(9)
O30_2 O 0.3897(13) 0.8991(4) 0.6999(7)
C7_2 C 0.842(2) 0.9563(7) 0.2964(12)
C8_2 C 0.872(2) 0.9382(7) 0.4099(13)
H4_2 H 0.874005 0.900126 0.426632
C9_2 C 0.897(2) 0.9765(7) 0.4956(11)
C14_2 C 0.316(2) 0.9725(6) 0.1324(11)
H5_2 H 0.289123 0.945636 0.076667
C15_2 C 0.318(2) 0.9569(7) 0.2480(12)
H6_2 H 0.289946 0.920248 0.267841
C16_2 C 0.361(2) 0.9958(6) 0.3317(11)
C24_2 C 0.383(2) 0.9693(7) 0.4531(12)
H13_2 H 0.368345 0.837704 0.315034
H14_2 H 0.577372 0.829814 0.376665
H15_2 H 0.261473 0.762786 0.749282
H16_2 H 0.139852 0.818649 0.774769
H17_2 H 0.0880685 0.75572 0.426428
H23_2 H 0.594878 0.944527 0.96334
H24_2 H 0.469651 0.894999 0.902465
H25_2 H 0.712175 0.859804 0.566464
H26_2 H 0.667278 0.837192 0.692602
H18 H 0.0632105 0.29144 0.503326
H18_2 H 0.936789 0.79144 0.496674
loop_
_geom_bond_atom_site_label_1
_geom_bond_atom_site_label_2
_geom_bond_site_symmetry_1
_geom_bond_site_symmetry_2
O22 C23 1_555 1_555
O23 C23 1_555 1_555
O27 Eu9 1_555 1_555
Eu7 O22 1_555 1_555
O22 Eu9 1_555 1_555
O23 Eu7 1_555 1_555
Eu1 O2 1_555 1_555
Eu7 O1 1_555 1_555
Eu9 O1 1_555 1_555
S1 O10 1_555 1_555
S2 O15 1_555 1_555
S3 O24 1_555 1_555
O1 C11 1_555 1_555
O3 Eu9 1_555 1_555
O4 Eu1 1_555 1_555
O5 C12 1_555 1_555
O6 Eu1 1_555 1_555
O7 C12 1_555 1_555
O8 Eu1 1_555 1_555
O9 Eu7 1_555 1_555
O10 Eu7 1_555 1_555
O11 Eu7 1_555 1_555
O14 Eu9 1_555 1_555
O16 Eu9 1_555 1_555
O17 S2 1_555 1_555
O18 Eu9 1_555 1_555
O19 S2 1_555 1_555
O20 Eu7 1_555 1_555
O21 Eu1 1_555 1_555
O25 S3 1_555 1_555
O26 S3 1_555 1_555
O29 S4 1_555 1_555
O30 Eu1 1_555 1_555
C1 C2 1_555 1_555
C2 H1 1_555 1_555
C3 C2 1_555 1_555
H2 C3 1_555 1_555
C4 C3 1_555 1_555
C5 C4 1_555 1_555
C6 C5 1_555 1_555
H3 C6 1_555 1_555
C7 S2 1_555 1_555
C8 C7 1_555 1_555
H4 C8 1_555 1_555
C9 S1 1_555 1_555
C10 C1 1_555 1_555
C11 O3 1_555 1_555
C12 C4 1_555 1_555
C13 C14 1_555 1_555
C14 H5 1_555 1_555
C15 C14 1_555 1_555
H6 C15 1_555 1_555
C16 C15 1_555 1_555
C17 C16 1_555 1_555
C18 C17 1_555 1_555
H7 C18 1_555 1_555
C19 S3 1_555 1_555
C20 C19 1_555 1_555
H8 C20 1_555 1_555
C21 S4 1_555 1_555
C22 C13 1_555 1_555
C24 O20 1_555 1_555
Eu5 O26 1_555 1_555
O32 Eu7 1_555 1_555
O33 Eu1 1_555 1_555
O36 Eu1 1_555 1_555
Eu7 O30 1_555 1_555
O21 C24 1_555 1_555
C1 C11 1_555 1_555
C5 C10 1_555 1_555
C6 C7 1_555 1_555
C8 C9 1_555 1_555
C9 C10 1_555 1_555
C16 C24 1_555 1_555
C17 C22 1_555 1_555
C18 C19 1_555 1_555
C20 C21 1_555 1_555
C21 C22 1_555 1_555
O11 H9 1_555 1_555
O11 H10 1_555 1_555
O16 H11 1_555 1_555
O16 H12 1_555 1_555
O2 H13 1_555 1_555
O2 H14 1_555 1_555
O6 H15 1_555 1_555
O6 H16 1_555 1_555
O4 H17 1_555 1_555
O14 H21 1_555 1_555
O9 H23 1_555 1_555
O9 H24 1_555 1_555
O8 H25 1_555 1_555
O8 H26 1_555 1_555
Eu5 O13 1_555 1_555
Eu6 O12 1_555 1_555
Eu3 O1_2 1_555 1_555
S3_2 O24_2 1_555 1_555
O1_2 C11_2 1_555 1_555
O3_2 Eu3 1_555 1_555
O31 C12_2 1_555 1_555
O7_2 C12_2 1_555 1_555
O14_2 Eu3 1_555 1_555
O16_2 Eu3 1_555 1_555
O18_2 Eu3 1_555 1_555
O25_2 S3_2 1_555 1_555
O36 S3_2 1_555 1_555
O29_2 S4_2 1_555 1_555
C1_2 C2_2 1_555 1_555
C2_2 H1_2 1_555 1_555
C3_2 C2_2 1_555 1_555
H2_2 C3_2 1_555 1_555
C4_2 C3_2 1_555 1_555
C5_2 C4_2 1_555 1_555
C6_2 C5_2 1_555 1_555
H3_2 C6_2 1_555 1_555
C10_2 C1_2 1_555 1_555
C11_2 O3_2 1_555 1_555
C12_2 C4_2 1_555 1_555
C18_2 C17_2 1_555 1_555
H7_2 C18_2 1_555 1_555
C19_2 S3_2 1_555 1_555
C20_2 C19_2 1_555 1_555
H8_2 C20_2 1_555 1_555
C21_2 S4_2 1_555 1_555
C22_2 C13_2 1_555 1_555
O37 Eu3 1_555 1_555
Eu3 O34 1_555 1_555
C1_2 C11_2 1_555 1_555
C5_2 C10_2 1_555 1_555
C17_2 C22_2 1_555 1_555
C18_2 C19_2 1_555 1_555
C20_2 C21_2 1_555 1_555
C21_2 C22_2 1_555 1_555
O11_2 H9_2 1_555 1_555
O11_2 H10_2 1_555 1_555
O16_2 H11_2 1_555 1_555
O16_2 H12_2 1_555 1_555
O14_2 H21_2 1_555 1_555
O34 C23_2 1_555 1_555
O35 C23_2 1_555 1_555
Eu5 O2_2 1_555 1_555
S1_2 O10_2 1_555 1_555
S2_2 O15_2 1_555 1_555
O4_2 Eu5 1_555 1_555
O6_2 Eu5 1_555 1_555
O8_2 Eu5 1_555 1_555
O9_2 Eu6 1_555 1_555
O10_2 Eu6 1_555 1_555
O17_2 S2_2 1_555 1_555
O19_2 S2_2 1_555 1_555
O20_2 Eu6 1_555 1_555
O21_2 Eu5 1_555 1_555
O30_2 Eu5 1_555 1_555
C7_2 S2_2 1_555 1_555
C8_2 C7_2 1_555 1_555
H4_2 C8_2 1_555 1_555
C9_2 S1_2 1_555 1_555
C14_2 H5_2 1_555 1_555
C15_2 C14_2 1_555 1_555
H6_2 C15_2 1_555 1_555
C16_2 C15_2 1_555 1_555
C24_2 O20_2 1_555 1_555
Eu6 O30_2 1_555 1_555
O21_2 C24_2 1_555 1_555
C8_2 C9_2 1_555 1_555
C16_2 C24_2 1_555 1_555
O2_2 H13_2 1_555 1_555
O2_2 H14_2 1_555 1_555
O6_2 H15_2 1_555 1_555
O6_2 H16_2 1_555 1_555
O4_2 H17_2 1_555 1_555
O9_2 H23_2 1_555 1_555
O9_2 H24_2 1_555 1_555
O8_2 H25_2 1_555 1_555
O8_2 H26_2 1_555 1_555

#END
