
###############################################################################
#
# This file contains modified crystal structure data generated from the
# MOF subset of the Cambridge Structural Database (CSD) v543 
# hosted by the Cambridge Crystallographic Data Centre (CCDC).
#
# This work is licensed under the Creative Commons
# Attribution-NonCommercial-ShareAlike 4.0 International License.
# To view a copy of this license, visit
# http://creativecommons.org/licenses/by-nc-sa/4.0/
# or send a letter to
# Creative Commons, PO Box 1866, Mountain View, CA 94042, USA.
#
# CIF created using the CSD Python API on 29 September 2022
# The structure has been converted into the P1 space group
# The structure has a 3D framework
# The original CSD entry VUMYIN is in the triclinic crystal system
# The framework has been calculated to contain at least 10.0% void space
# The void calculation uses a probe of radius 1.32A, grid spacing 0.4
# The framework is charged, counterions have been retained in the structure
#
###############################################################################

data_VUMYIN
_chemical_formula_moiety         '(C80 H70 Ag15 K2 N40 9+)n'
_symmetry_cell_setting           triclinic
_symmetry_space_group_name_H-M   'P 1'
_symmetry_Int_Tables_number      1
_space_group_name_Hall           'P 1'
loop_
_symmetry_equiv_pos_site_id
_symmetry_equiv_pos_as_xyz
1 x,y,z
_cell_length_a                   14.554(5)
_cell_length_b                   14.649(5)
_cell_length_c                   20.459(7)
_cell_angle_alpha                83.042(7)
_cell_angle_beta                 77.036(7)
_cell_angle_gamma                64.534(6)
_cell_volume                     3836.2
loop_
_atom_site_label
_atom_site_type_symbol
_atom_site_fract_x
_atom_site_fract_y
_atom_site_fract_z
K1 K 0.0145(5) 0.6669(4) 0.1879(3)
K1_2 K 0.9855(5) 0.3331(4) 0.8121(3)
C5 C 0.0067(17) 0.2260(16) 0.1827(11)
Ag5 Ag 0.0000 0.0000 0.5000
C10 C 0.115(2) 0.1538(19) 0.1581(13)
C16 C 0.198(2) 0.1721(19) 0.1673(14)
C17 C 0.125(3) 0.067(2) 0.1292(15)
C22 C 0.295(3) 0.097(3) 0.1459(17)
C23 C 0.182(3) 0.264(3) 0.2017(18)
H7 H 0.0682 0.0567 0.1249
H10 H 0.3527 0.1055 0.1512
C30 C 0.311(3) 0.011(3) 0.117(2)
H11 H 0.1096 0.3062 0.2137
H12 H 0.2157 0.3017 0.1718
H13 H 0.2120 0.2439 0.2414
N23 N 0.0924(15) 0.3583(13) 0.9580(9)
Ag1 Ag 0.12897(16) 0.79214(17) 0.27448(11)
C1 C 0.2904(19) 0.728(2) 0.3191(13)
C2 C 0.286(2) 0.812(2) 0.2746(13)
Ag5_2 Ag 0.0000 1.0000 0.5000
C24 C 0.230(3) 0.994(3) 0.107(2)
H14 H 0.2432 0.9365 0.0849
H15 H 0.0132 0.7756 0.0248
H21 H 0.3782 0.9628 0.1050
H22 H 0.0460 0.9010 0.0600
N21 N 0.1409(14) 0.9057(13) 0.5272(10)
Ag10 Ag 0.00932(18) 0.60656(15) 0.94260(10)
H35 H 0.4894 0.0014 0.2699
C64 C 0.204(3) 0.0195(18) 0.3951(16)
N39 N 0.0968(15) 0.0509(14) 0.7242(10)
C66 C 0.1924(18) 0.0436(16) 0.7256(11)
H50 H 0.2016 0.0661 0.3575
H51 H 0.1377 0.0427 0.4247
H52 H 0.2558 0.0155 0.4188
N41 N 0.0285(14) 0.1452(12) 0.7419(10)
N42 N 0.1854(15) 0.1275(14) 0.7478(11)
C71 C 0.329(2) 0.030(2) 0.5961(13)
N43 N 0.0825(15) 0.1903(13) 0.7594(11)
Ag23 Ag 0.28638(15) 0.18890(15) 0.77752(10)
H55 H 0.2668 0.0858 0.6147
H56 H 0.3855 0.0496 0.5846
H57 H 0.3190 0.0087 0.5565
N44 N 0.2080(15) 0.2934(14) 0.8687(10)
C78 C 0.4804(18) 0.1383(16) 0.7614(11)
C79 C 0.145(2) 0.2759(19) 0.9223(13)
N45 N 0.1890(15) 0.3896(15) 0.8701(11)
C80 C 0.134(2) 0.1773(19) 0.9317(12)
N47 N 0.1203(15) 0.4281(14) 0.9241(9)
Ag24 Ag 0.25942(17) 0.46894(15) 0.78937(10)
C81 C 0.031(3) 0.187(2) 0.9350(16)
C82 C 0.212(3) 0.085(2) 0.9317(17)
C83 C 0.019(3) 0.097(3) 0.9375(19)
C85 C 0.320(3) 0.067(3) 0.9306(19)
C86 C 0.103(3) 0.008(3) 0.936(2)
H67 H 0.3244 0.1309 0.9302
H68 H 0.3425 0.0280 0.9697
H69 H 0.3642 0.0311 0.8911
Ag2 Ag 0.93286(17) 0.07901(14) 0.29500(12)
N5 N 0.8435(14) 0.1172(14) 0.4085(10)
N6 N 0.9368(15) 0.2071(15) 0.2305(9)
C4 C 0.7128(18) 0.0525(18) 0.2929(12)
N7 N 0.7535(15) 0.1940(14) 0.4102(9)
N8 N 0.8591(14) 0.0943(13) 0.4728(10)
N9 N 0.8487(16) 0.2914(13) 0.2366(10)
C6 C 0.6926(18) 0.1367(18) 0.2515(11)
C7 C 0.6475(19) 0.0548(17) 0.3544(11)
Ag4 Ag 0.70774(16) 0.30100(14) 0.31599(10)
N11 N 0.7082(13) 0.2244(13) 0.4742(9)
Ag5_3 Ag 1.0000 0.0000 0.5000
C9 C 0.7759(16) 0.1615(15) 0.5118(10)
N12 N 0.9615(15) 0.3217(14) 0.1578(9)
N13 N 0.8626(15) 0.3613(15) 0.1935(9)
H1 H 0.7379 0.1318 0.2106
C11 C 0.612(2) 0.2249(19) 0.2660(13)
C12 C 0.5587(18) 0.148(2) 0.3697(14)
N15 N 0.6370(14) 0.4708(13) 0.3448(10)
Ag6 Ag 0.57732(14) 0.37679(13) 0.48880(9)
C15 C 0.7598(18) 0.1673(16) 0.5847(13)
Ag7 Ag 0.99068(18) 0.39344(15) 0.05740(10)
Ag8 Ag 0.74058(17) 0.53106(15) 0.21063(10)
H2 H 0.5835 0.2630 0.2271
C18 C 0.540(2) 0.233(2) 0.3237(15)
H3 H 0.5124 0.1529 0.4102
N18 N 0.5768(14) 0.4902(14) 0.4028(8)
N19 N 0.6368(14) 0.5518(14) 0.3097(10)
N20 N 0.4685(14) 0.4067(13) 0.5919(8)
C20 C 0.7337(18) 0.2598(17) 0.6113(14)
C21 C 0.7690(19) 0.0824(19) 0.6293(13)
H8 H 0.4795 0.2923 0.3327
C27 C 0.5682(16) 0.6312(17) 0.3479(11)
H9 H 0.7322 0.3146 0.5826
C28 C 0.748(2) 0.095(2) 0.6961(14)
C32 C 0.797(3) 0.009(2) 0.0676(18)
C34 C 0.5420(17) 0.7355(16) 0.3309(12)
H16 H 0.6910 0.3346 0.6981
H17 H 0.7567 0.0382 0.7243
H23 H 0.7413 0.0730 0.0697
C36 C 0.5437(16) 0.7634(16) 0.2599(12)
C37 C 0.5179(18) 0.8145(17) 0.3744(12)
H27 H 0.6943 0.1951 0.7716
H28 H 0.9100 0.0497 0.0615
H29 H 0.5613 0.7142 0.2290
C38 C 0.494(2) 0.9124(18) 0.3518(14)
C39 C 0.520(2) 0.7971(18) 0.4474(13)
H30 H 0.5166 0.8800 0.1937
C40 C 0.499(2) 0.9360(19) 0.2852(16)
H31 H 0.4735 0.9630 0.3822
H32 H 0.5008 0.8603 0.4675
H33 H 0.5892 0.7516 0.4533
H34 H 0.4727 0.7681 0.4685
N22 N 0.8797(15) 0.5719(14) 0.0759(9)
N24 N 0.8110(15) 0.6104(15) 0.1299(11)
N25 N 0.5315(14) 0.5933(13) 0.4081(8)
C41 C 0.4318(16) 0.3688(17) 0.6521(11)
N26 N 0.4232(14) 0.5098(14) 0.5972(8)
C42 C 0.7096(19) 0.272(2) 0.6809(13)
Ag12 Ag 0.42268(14) 0.62321(13) 0.51120(9)
C43 C 0.4580(17) 0.2645(16) 0.6691(12)
N27 N 0.3632(14) 0.4482(14) 0.6903(10)
N28 N 0.3630(14) 0.5292(13) 0.6552(10)
C44 C 0.714(2) 0.188(2) 0.7254(13)
Ag13 Ag 0.87103(16) 0.20786(17) 0.72552(11)
Ag14 Ag 0.71362(15) 0.81110(15) 0.22248(10)
N29 N 0.2918(13) 0.7756(13) 0.5258(9)
C45 C 0.4563(16) 0.2366(16) 0.7401(12)
C46 C 0.4821(18) 0.1855(17) 0.6256(12)
Ag16 Ag 0.29226(16) 0.69900(14) 0.68401(10)
C47 C 0.5196(18) 0.8617(16) 0.2386(11)
C48 C 0.2241(16) 0.8385(15) 0.4882(10)
N30 N 0.2465(15) 0.8060(14) 0.5898(9)
H36 H 0.4387 0.2858 0.7710
C50 C 0.506(2) 0.0876(18) 0.6482(14)
C51 C 0.480(2) 0.2029(18) 0.5526(13)
N31 N 0.1374(15) 0.6387(15) 0.8065(9)
C52 C 0.388(2) 0.7751(19) 0.7340(13)
N33 N 0.1513(16) 0.7086(13) 0.7634(10)
C53 C 0.2402(18) 0.8327(16) 0.4153(13)
N35 N 0.1565(14) 0.8828(14) 0.5915(10)
H37 H 0.4834 0.1200 0.8063
C54 C 0.501(2) 0.0640(19) 0.7148(16)
H38 H 0.5265 0.0370 0.6178
H39 H 0.4992 0.1397 0.5325
H40 H 0.4108 0.2484 0.5467
H41 H 0.5273 0.2319 0.5315
N36 N 0.0385(15) 0.6783(14) 0.8422(9)
C55 C 0.3074(18) 0.8633(18) 0.7485(11)
H42 H 0.4165 0.7370 0.7729
C56 C 0.460(2) 0.767(2) 0.6763(15)
N38 N 0.0632(15) 0.7929(15) 0.7695(9)
C57 C 0.2663(18) 0.7402(17) 0.3887(14)
C58 C 0.2310(19) 0.9176(19) 0.3707(13)
Ag19 Ag 0.06714(17) 0.92099(14) 0.70500(12)
C60 C 0.2872(18) 0.9475(18) 0.7071(12)
H44 H 0.2621 0.8682 0.7894
H45 H 0.5205 0.7077 0.6673
C61 C 0.4413(18) 0.852(2) 0.6303(14)
H46 H 0.2678 0.6854 0.4174
C63 C 0.252(2) 0.905(2) 0.3039(14)
C67 C 0.3525(19) 0.9452(17) 0.6456(11)
H47 H 0.4876 0.8471 0.5898
H48 H 0.3090 0.6654 0.3019
H49 H 0.2433 0.9618 0.2757
H53 H 0.3057 0.8049 0.2284
C84 C 0.203(3) 0.991(2) 0.9324(18)
H66 H 0.2587 0.9270 0.9303
H70 H 0.0900 0.9503 0.9385
N1 N 0.9715(14) 0.8548(12) 0.2581(10)
N2 N 0.9032(15) 0.9491(14) 0.2758(10)
N3 N 0.9175(15) 0.8097(13) 0.2406(11)
C3 C 0.8076(18) 0.9564(16) 0.2744(11)
N4 N 0.8146(15) 0.8725(14) 0.2522(11)
N10 N 0.7920(15) 0.7066(14) 0.1313(10)
Ag5_4 Ag 1.0000 1.0000 0.5000
C13 C 0.671(2) 0.970(2) 0.4039(13)
C14 C 0.855(2) 0.7241(19) 0.0777(13)
H4 H 0.7332 0.9142 0.3853
H5 H 0.6145 0.9504 0.4154
H6 H 0.6810 0.9913 0.4435
C19 C 0.866(2) 0.8227(19) 0.0683(12)
N16 N 0.9076(15) 0.6417(13) 0.0420(9)
C25 C 0.969(3) 0.813(2) 0.0650(16)
C26 C 0.788(3) 0.915(2) 0.0683(17)
C29 C 0.796(3) 0.9805(18) 0.6049(16)
C31 C 0.981(3) 0.903(3) 0.0625(19)
C33 C 0.680(3) 0.933(3) 0.0694(19)
H18 H 0.7984 0.9339 0.6425
H19 H 0.8623 0.9573 0.5753
H20 H 0.7442 0.9845 0.5812
C35 C 0.897(3) 0.992(3) 0.064(2)
H24 H 0.6756 0.8691 0.0698
H25 H 0.6575 0.9720 0.0303
H26 H 0.6358 0.9689 0.1089
H43 H 0.5106 0.9986 0.7301
C74 C 0.770(3) 0.006(3) 0.893(2)
H62 H 0.7568 0.0635 0.9151
H63 H 0.6218 0.0372 0.8950
H64 H 0.9868 0.2244 0.9752
H65 H 0.9540 0.0990 0.9400
C59 C 0.9933(17) 0.7740(16) 0.8173(11)
C65 C 0.885(2) 0.8462(19) 0.8419(13)
C69 C 0.802(2) 0.8279(19) 0.8327(14)
C70 C 0.875(3) 0.933(2) 0.8708(15)
C72 C 0.705(3) 0.903(3) 0.8541(17)
C73 C 0.818(3) 0.736(3) 0.7983(18)
H54 H 0.9318 0.9433 0.8751
H58 H 0.6473 0.8945 0.8488
C77 C 0.689(3) 0.989(3) 0.883(2)
H59 H 0.8904 0.6938 0.7863
H60 H 0.7843 0.6983 0.8282
H61 H 0.7880 0.7561 0.7586
loop_
_geom_bond_atom_site_label_1
_geom_bond_atom_site_label_2
_geom_bond_site_symmetry_1
_geom_bond_site_symmetry_2
C10 C5 1_555 1_555
C16 C10 1_555 1_555
C17 C10 1_555 1_555
C22 C16 1_555 1_555
C23 C16 1_555 1_555
H7 C17 1_555 1_555
H10 C22 1_555 1_555
C30 C22 1_555 1_555
H11 C23 1_555 1_555
H12 C23 1_555 1_555
H13 C23 1_555 1_555
C1 Ag1 1_555 1_555
C2 Ag1 1_555 1_555
H14 C24 1_555 1_555
N21 Ag5_2 1_555 1_555
C1 C2 1_555 1_555
H50 C64 1_555 1_555
H51 C64 1_555 1_555
H52 C64 1_555 1_555
N41 N39 1_555 1_555
N42 C66 1_555 1_555
N43 N41 1_555 1_555
Ag23 N42 1_555 1_555
H55 C71 1_555 1_555
H56 C71 1_555 1_555
H57 C71 1_555 1_555
N44 Ag23 1_555 1_555
C78 Ag23 1_555 1_555
C79 N44 1_555 1_555
N45 N44 1_555 1_555
C80 C79 1_555 1_555
N23 C79 1_555 1_555
N47 N45 1_555 1_555
Ag24 N45 1_555 1_555
C81 C80 1_555 1_555
C82 C80 1_555 1_555
Ag10 N47 1_555 1_555
C83 C81 1_555 1_555
C85 C82 1_555 1_555
C86 C83 1_555 1_555
H67 C85 1_555 1_555
H68 C85 1_555 1_555
H69 C85 1_555 1_555
N39 C66 1_555 1_555
N42 N43 1_555 1_555
N23 N47 1_555 1_555
Ag2 N5 1_555 1_555
N5 N7 1_555 1_555
N6 Ag2 1_555 1_555
N7 Ag4 1_555 1_555
N8 N5 1_555 1_555
N9 N6 1_555 1_555
C6 C4 1_555 1_555
C7 C4 1_555 1_555
Ag4 N9 1_555 1_555
N11 N7 1_555 1_555
Ag5_3 N8 1_555 1_555
C9 N8 1_555 1_555
N13 N9 1_555 1_555
H1 C6 1_555 1_555
C11 C6 1_555 1_555
C12 C7 1_555 1_555
N15 Ag4 1_555 1_555
Ag6 N11 1_555 1_555
C15 C9 1_555 1_555
Ag7 N12 1_555 1_555
Ag8 N13 1_555 1_555
H2 C11 1_555 1_555
C18 C11 1_555 1_555
H3 C12 1_555 1_555
N18 N15 1_555 1_555
N19 N15 1_555 1_555
N20 Ag6 1_555 1_555
C20 C15 1_555 1_555
C21 C15 1_555 1_555
H8 C18 1_555 1_555
C27 N19 1_555 1_555
H9 C20 1_555 1_555
C28 C21 1_555 1_555
C34 C27 1_555 1_555
H16 C42 1_555 1_555
H17 C28 1_555 1_555
H23 C32 1_555 1_555
C36 C34 1_555 1_555
C37 C34 1_555 1_555
H27 C44 1_555 1_555
H29 C36 1_555 1_555
C38 C37 1_555 1_555
C39 C37 1_555 1_555
H30 C47 1_555 1_555
C40 C38 1_555 1_555
H31 C38 1_555 1_555
H32 C39 1_555 1_555
H33 C39 1_555 1_555
H34 C39 1_555 1_555
N22 Ag7 1_555 1_555
N24 Ag8 1_555 1_555
N25 N18 1_555 1_555
C41 N20 1_555 1_555
N26 N20 1_555 1_555
C42 C20 1_555 1_555
Ag12 N25 1_555 1_555
C43 C41 1_555 1_555
N27 C41 1_555 1_555
N28 N26 1_555 1_555
C44 C28 1_555 1_555
Ag13 C42 1_555 1_555
Ag14 C47 1_555 1_555
N29 Ag12 1_555 1_555
C45 C43 1_555 1_555
C46 C43 1_555 1_555
Ag24 N27 1_555 1_555
Ag16 N28 1_555 1_555
C47 C36 1_555 1_555
C48 N29 1_555 1_555
N30 N29 1_555 1_555
H36 C45 1_555 1_555
C78 C45 1_555 1_555
C50 C46 1_555 1_555
C51 C46 1_555 1_555
N31 Ag24 1_555 1_555
C52 Ag16 1_555 1_555
N33 Ag16 1_555 1_555
C53 C48 1_555 1_555
N21 C48 1_555 1_555
N35 N30 1_555 1_555
H37 C78 1_555 1_555
C54 C78 1_555 1_555
H38 C50 1_555 1_555
H39 C51 1_555 1_555
H40 C51 1_555 1_555
H41 C51 1_555 1_555
N36 N31 1_555 1_555
C55 C52 1_555 1_555
H42 C52 1_555 1_555
C56 C52 1_555 1_555
N38 N33 1_555 1_555
C57 C53 1_555 1_555
C58 C53 1_555 1_555
Ag19 N35 1_555 1_555
Ag10 N36 1_555 1_555
C60 C55 1_555 1_555
H44 C55 1_555 1_555
H45 C56 1_555 1_555
C61 C56 1_555 1_555
H46 C57 1_555 1_555
C1 C57 1_555 1_555
C63 C58 1_555 1_555
C67 C60 1_555 1_555
H47 C61 1_555 1_555
H48 C1 1_555 1_555
H49 C63 1_555 1_555
H53 C2 1_555 1_555
H66 C84 1_555 1_555
Ag4 C11 1_555 1_555
N11 C9 1_555 1_555
N12 N13 1_555 1_555
C12 C18 1_555 1_555
Ag6 N18 1_555 1_555
Ag8 N19 1_555 1_555
C27 N25 1_555 1_555
C40 C47 1_555 1_555
N22 N24 1_555 1_555
N26 Ag12 1_555 1_555
C42 C44 1_555 1_555
N27 N28 1_555 1_555
C44 Ag13 1_555 1_555
Ag16 N30 1_555 1_555
C50 C54 1_555 1_555
N31 N33 1_555 1_555
N21 N35 1_555 1_555
N38 Ag19 1_555 1_555
C61 C67 1_555 1_555
C63 C2 1_555 1_555
N1 N2 1_555 1_555
N3 N1 1_555 1_555
C3 N2 1_555 1_555
N4 N3 1_555 1_555
Ag14 N4 1_555 1_555
N10 Ag14 1_555 1_555
C14 N10 1_555 1_555
N24 N10 1_555 1_555
H4 C13 1_555 1_555
H5 C13 1_555 1_555
H6 C13 1_555 1_555
C19 C14 1_555 1_555
N16 C14 1_555 1_555
C25 C19 1_555 1_555
C26 C19 1_555 1_555
C31 C25 1_555 1_555
C33 C26 1_555 1_555
H18 C29 1_555 1_555
H19 C29 1_555 1_555
H20 C29 1_555 1_555
C35 C31 1_555 1_555
H24 C33 1_555 1_555
H25 C33 1_555 1_555
H26 C33 1_555 1_555
C3 N4 1_555 1_555
N16 N22 1_555 1_555
H62 C74 1_555 1_555
C65 C59 1_555 1_555
C69 C65 1_555 1_555
C70 C65 1_555 1_555
C72 C69 1_555 1_555
C73 C69 1_555 1_555
H54 C70 1_555 1_555
H58 C72 1_555 1_555
C77 C72 1_555 1_555
H59 C73 1_555 1_555
H60 C73 1_555 1_555
H61 C73 1_555 1_555

#END
