
###############################################################################
#
# This file contains modified crystal structure data generated from the
# MOF subset of the Cambridge Structural Database (CSD) v543 
# hosted by the Cambridge Crystallographic Data Centre (CCDC).
#
# This work is licensed under the Creative Commons
# Attribution-NonCommercial-ShareAlike 4.0 International License.
# To view a copy of this license, visit
# http://creativecommons.org/licenses/by-nc-sa/4.0/
# or send a letter to
# Creative Commons, PO Box 1866, Mountain View, CA 94042, USA.
#
# CIF created using the CSD Python API on 29 September 2022
# The structure has been converted into the P1 space group
# The structure has a 3D framework
# The original CSD entry VUNKOG is in the monoclinic crystal system
# The framework has been calculated to contain at least 10.0% void space
# The void calculation uses a probe of radius 1.32A, grid spacing 0.4
#
###############################################################################

data_VUNKOG
_chemical_formula_moiety         '(C40 H52 N16 Nd4 O28 S8)n'
_symmetry_cell_setting           triclinic
_symmetry_space_group_name_H-M   'P 1'
_symmetry_Int_Tables_number      1
_space_group_name_Hall           'P 1'
loop_
_symmetry_equiv_pos_site_id
_symmetry_equiv_pos_as_xyz
1 x,y,z
_cell_length_a                   8.5939(2)
_cell_length_b                   22.9953(5)
_cell_length_c                   10.1832(2)
_cell_angle_alpha                90
_cell_angle_beta                 112.8380(10)
_cell_angle_gamma                90
_cell_volume                     1854.64
loop_
_atom_site_label
_atom_site_type_symbol
_atom_site_fract_x
_atom_site_fract_y
_atom_site_fract_z
S2 S 0.24972(6) 0.16191(2) 0.94152(6)
N4 N 0.04347(18) 0.25205(6) 0.89356(17)
H5 H 0.1340 0.2717 0.9372
C5 C 0.0603(2) 0.19410(7) 0.88184(18)
Nd4 Nd 0.082952(10) 0.413206(3) 0.989277(9)
Nd1 Nd 0.582952(10) 0.086794(3) 0.489277(9)
S1 S 0.26864(6) 0.29730(2) 0.63587(7)
O2 O 0.33762(17) 0.08973(5) 0.56418(18)
N1 N 0.28675(17) 0.18399(6) 0.59814(17)
H1 H 0.3938 0.1898 0.6282
N2 N 0.02074(18) 0.21867(6) 0.54845(16)
C1 C 0.1882(2) 0.23049(7) 0.59216(19)
C3 C 0.0577(2) 0.11749(7) 0.5220(2)
H3 H 0.0152 0.0799 0.5005
C4 C 0.2295(2) 0.12789(7) 0.55984(19)
O3 O 0.89919(17) 0.33634(6) 0.86413(15)
O4 O 0.63186(15) 0.15794(6) 0.68606(15)
N3 N 0.91358(18) 0.16503(6) 0.81545(16)
H4 H 0.9183 0.1277 0.8119
C6 C 0.8919(2) 0.28256(7) 0.84097(18)
C7 C 0.7458(2) 0.25061(8) 0.76699(19)
H6 H 0.6421 0.2694 0.7275
C8 C 0.7553(2) 0.19114(7) 0.75245(18)
O6 O 0.83389(18) 0.04996(6) 0.71316(17)
C9 C 0.7683(2) 0.00203(8) 0.71925(19)
O7 O 0.75948(18) 0.01827(6) 0.41904(17)
H11 H 0.760(3) 0.0178(11) 0.337(2)
O8 O 0.5556(3) 0.09771(8) 0.22648(19)
H12 H 0.600(3) 0.1319(11) 0.206(3)
H13 H 0.467(3) 0.0851(11) 0.158(3)
O9 O 0.79214(15) 0.15943(5) 0.48602(14)
O10 O 0.39919(17) 0.16366(6) 0.36413(15)
O11 O 0.38489(16) 0.00777(6) 0.36386(14)
O5 O 0.61511(16) 0.99223(6) 0.63614(14)
C10 C 0.8663(3) 0.95493(11) 0.8188(3)
H7 H 0.7929 0.9338 0.8527
H8 H 0.9567 0.9719 0.8981
H9 H 0.9120 0.9289 0.7693
H10 H 0.729(3) 0.9837(9) 0.432(3)
Nd3 Nd 0.417048(10) 0.913206(3) 0.510723(9)
H2 H 0.9535 0.2474 0.5399
C2 C 0.9504(2) 0.16343(7) 0.51661(17)
O1 O 0.70786(15) 0.65943(5) 0.01398(14)
H13_2 H 0.033(3) 0.5851(11) 0.342(3)
Nd2 Nd 0.917048(10) 0.586794(3) 0.010723(9)
O10_2 O 0.10081(17) 0.66366(6) 0.13587(15)
O11_2 O 0.11511(16) 0.50777(6) 0.13614(14)
S1_2 S 0.23136(6) 0.79730(2) 0.86413(7)
O2_2 O 0.16238(17) 0.58973(5) 0.93582(18)
N1_2 N 0.21325(17) 0.68399(6) 0.90186(17)
H1_2 H 0.1062 0.6898 0.8718
N2_2 N 0.47926(18) 0.71867(6) 0.95155(16)
H2_2 H 0.5465 0.7474 0.9601
C1_2 C 0.3118(2) 0.73049(7) 0.90784(19)
C2_2 C 0.5496(2) 0.66343(7) 0.98339(17)
C3_2 C 0.4423(2) 0.61749(7) 0.9780(2)
H3_2 H 0.4848 0.5799 0.9995
C4_2 C 0.2705(2) 0.62789(7) 0.94016(19)
O7_2 O 0.74052(18) 0.51827(6) 0.08096(17)
H10_2 H 0.771(3) 0.4837(9) 0.068(3)
H11_2 H 0.740(3) 0.5178(11) 0.163(2)
O8_2 O 0.9444(3) 0.59771(8) 0.27352(19)
H12_2 H 0.900(3) 0.6319(11) 0.294(3)
S2_2 S 0.25028(6) 0.66191(2) 0.55848(6)
O3_2 O 0.60081(17) 0.83634(6) 0.63587(15)
O4_2 O 0.86814(15) 0.65794(6) 0.81394(15)
N3_2 N 0.58642(18) 0.66503(6) 0.68455(16)
H4_2 H 0.5817 0.6277 0.6881
N4_2 N 0.45653(18) 0.75205(6) 0.60644(17)
H5_2 H 0.3660 0.7717 0.5628
C5_2 C 0.4397(2) 0.69410(7) 0.61816(18)
C6_2 C 0.6081(2) 0.78256(7) 0.65903(18)
C7_2 C 0.7542(2) 0.75061(8) 0.73301(19)
H6_2 H 0.8579 0.7694 0.7725
C8_2 C 0.7447(2) 0.69114(7) 0.74755(18)
O5_2 O 0.88489(16) 0.49223(6) 0.86386(14)
O6_2 O 0.66611(18) 0.54996(6) 0.78684(17)
C9_2 C 0.7317(2) 0.50203(8) 0.78075(19)
C10_2 C 0.6337(3) 0.45493(11) 0.6812(3)
H7_2 H 0.7071 0.4338 0.6473
H8_2 H 0.5433 0.4719 0.6019
H9_2 H 0.5880 0.4289 0.7307
O1_2 O 0.20786(15) 0.84057(5) 0.51398(14)
H2_3 H 0.0465 0.7526 0.4601
C2_3 C 0.0496(2) 0.83657(7) 0.48339(17)
C10_3 C 0.1337(3) 0.04507(11) 0.1812(3)
H7_3 H 0.2071 0.0662 0.1473
H8_3 H 0.0433 0.0281 0.1019
H9_3 H 0.0880 0.0711 0.2307
H10_3 H 0.271(3) 0.0163(9) 0.568(3)
S1_3 S 0.73136(6) 0.70270(2) 0.36413(7)
O2_3 O 0.66238(17) 0.91027(5) 0.43582(18)
N1_3 N 0.71325(17) 0.81601(6) 0.40186(17)
H1_3 H 0.6062 0.8102 0.3718
N2_3 N 0.97926(18) 0.78133(6) 0.45155(16)
C1_3 C 0.8118(2) 0.76951(7) 0.40784(19)
C3_3 C 0.9423(2) 0.88251(7) 0.4780(2)
H3_3 H 0.9848 0.9201 0.4995
C4_3 C 0.7705(2) 0.87211(7) 0.44016(19)
O4_3 O 0.36814(15) 0.84206(6) 0.31394(15)
N3_3 N 0.08642(18) 0.83497(6) 0.18455(16)
H4_3 H 0.0817 0.8723 0.1881
C6_3 C 0.1081(2) 0.71744(7) 0.15903(18)
C7_3 C 0.2542(2) 0.74939(8) 0.23301(19)
H6_3 H 0.3579 0.7306 0.2725
C8_3 C 0.2447(2) 0.80886(7) 0.24755(18)
O6_3 O 0.16611(18) 0.95004(6) 0.28684(17)
C9_3 C 0.2317(2) 0.99797(8) 0.28075(19)
O7_3 O 0.24052(18) 0.98173(6) 0.58096(17)
H11_3 H 0.240(3) 0.9822(11) 0.663(2)
O8_3 O 0.4444(3) 0.90229(8) 0.77352(19)
H12_3 H 0.400(3) 0.8681(11) 0.794(3)
H13_3 H 0.533(3) 0.9149(11) 0.842(3)
S2_3 S 0.75028(6) 0.83809(2) 0.05848(6)
N4_3 N 0.95653(18) 0.74795(6) 0.10644(17)
H5_3 H 0.8660 0.7283 0.0628
C5_3 C 0.9397(2) 0.80590(7) 0.11816(18)
S2_4 S 0.74972(6) 0.33809(2) 0.44152(6)
O4_4 O 0.13186(15) 0.34206(6) 0.18606(15)
N3_4 N 0.41358(18) 0.33497(6) 0.31545(16)
H4_4 H 0.4183 0.3723 0.3119
N4_4 N 0.54347(18) 0.24795(6) 0.39356(17)
H5_4 H 0.6340 0.2283 0.4372
C5_4 C 0.5603(2) 0.30590(7) 0.38184(18)
C6_4 C 0.3919(2) 0.21744(7) 0.34097(18)
C7_4 C 0.2458(2) 0.24939(8) 0.26699(19)
H6_4 H 0.1421 0.2306 0.2275
C8_4 C 0.2553(2) 0.30886(7) 0.25245(18)
O6_4 O 0.33389(18) 0.45004(6) 0.21316(17)
C9_4 C 0.2683(2) 0.49797(8) 0.21925(19)
C10_4 C 0.3663(3) 0.54507(11) 0.3188(3)
H7_4 H 0.2929 0.5662 0.3527
H8_4 H 0.4567 0.5281 0.3981
H9_4 H 0.4120 0.5711 0.2693
O7_4 O 0.25948(18) 0.48173(6) 0.91904(17)
H10_4 H 0.229(3) 0.5163(9) 0.932(3)
H11_4 H 0.260(3) 0.4822(11) 0.837(2)
O8_4 O 0.0556(3) 0.40229(8) 0.72648(19)
H12_4 H 0.100(3) 0.3681(11) 0.706(3)
O9_2 O 0.29214(15) 0.34057(5) 0.98602(14)
S1_4 S 0.76864(6) 0.20270(2) 0.13587(7)
O2_4 O 0.83762(17) 0.41027(5) 0.06418(18)
N1_4 N 0.78675(17) 0.31601(6) 0.09814(17)
H1_4 H 0.8938 0.3102 0.1282
N2_4 N 0.52074(18) 0.28133(6) 0.04845(16)
H2_4 H 0.4535 0.2526 0.0399
C1_4 C 0.6882(2) 0.26951(7) 0.09216(19)
C2_4 C 0.4504(2) 0.33657(7) 0.01661(17)
C3_4 C 0.5577(2) 0.38251(7) 0.0220(2)
H3_4 H 0.5152 0.4201 0.0005
C4_4 C 0.7295(2) 0.37211(7) 0.05984(19)
H13_4 H 0.967(3) 0.4149(11) 0.658(3)
loop_
_geom_bond_atom_site_label_1
_geom_bond_atom_site_label_2
_geom_bond_site_symmetry_1
_geom_bond_site_symmetry_2
S2 C5 1_555 1_555
N4 H5 1_555 1_555
N4 C5 1_555 1_555
Nd1 O2 1_555 1_555
S1 C1 1_555 1_555
O2 C4 1_555 1_555
N1 H1 1_555 1_555
C1 N1 1_555 1_555
H3 C3 1_555 1_555
C4 N1 1_555 1_555
O3 C6 1_555 1_555
O4 Nd1 1_555 1_555
N3 H4 1_555 1_555
C7 C6 1_555 1_555
H6 C7 1_555 1_555
C8 O4 1_555 1_555
O6 Nd1 1_555 1_555
O7 Nd1 1_555 1_555
H11 O7 1_555 1_555
O8 Nd1 1_555 1_555
H12 O8 1_555 1_555
H13 O8 1_555 1_555
O9 Nd1 1_555 1_555
O10 Nd1 1_555 1_555
O11 Nd1 1_555 1_555
N2 C1 1_555 1_555
C3 C4 1_555 1_555
N3 C8 1_555 1_555
C7 C8 1_555 1_555
O6 C9 1_555 1_555
H7 C10 1_555 1_555
H8 C10 1_555 1_555
H9 C10 1_555 1_555
Nd3 O5 1_555 1_555
O9 C2 1_555 1_555
Nd2 O1 1_555 1_555
S1_2 C1_2 1_555 1_555
O2_2 C4_2 1_555 1_555
N1_2 H1_2 1_555 1_555
N2_2 H2_2 1_555 1_555
C1_2 N1_2 1_555 1_555
C2_2 N2_2 1_555 1_555
C3_2 C2_2 1_555 1_555
H3_2 C3_2 1_555 1_555
C4_2 N1_2 1_555 1_555
N2_2 C1_2 1_555 1_555
C3_2 C4_2 1_555 1_555
O7_2 Nd2 1_555 1_555
H10_2 O7_2 1_555 1_555
H11_2 O7_2 1_555 1_555
O8_2 Nd2 1_555 1_555
H12_2 O8_2 1_555 1_555
S2_2 C5_2 1_555 1_555
O3_2 C6_2 1_555 1_555
N3_2 H4_2 1_555 1_555
N4_2 H5_2 1_555 1_555
C5_2 N3_2 1_555 1_555
C6_2 N4_2 1_555 1_555
C7_2 C6_2 1_555 1_555
H6_2 C7_2 1_555 1_555
C8_2 O4_2 1_555 1_555
C9_2 O5_2 1_555 1_555
C10_2 C9_2 1_555 1_555
H7_2 C10_2 1_555 1_555
H8_2 C10_2 1_555 1_555
H9_2 C10_2 1_555 1_555
Nd3 O3_2 1_555 1_555
N3_2 C8_2 1_555 1_555
N4_2 C5_2 1_555 1_555
C7_2 C8_2 1_555 1_555
O6_2 C9_2 1_555 1_555
O1_2 C2_3 1_555 1_555
Nd3 O1_2 1_555 1_555
H7_3 C10_3 1_555 1_555
H8_3 C10_3 1_555 1_555
H9_3 C10_3 1_555 1_555
Nd3 O2_3 1_555 1_555
S1_3 C1_3 1_555 1_555
O2_3 C4_3 1_555 1_555
N1_3 H1_3 1_555 1_555
C1_3 N1_3 1_555 1_555
H3_3 C3_3 1_555 1_555
C4_3 N1_3 1_555 1_555
O10_2 C6_3 1_555 1_555
O4_3 Nd3 1_555 1_555
N3_3 H4_3 1_555 1_555
C7_3 C6_3 1_555 1_555
H6_3 C7_3 1_555 1_555
C8_3 O4_3 1_555 1_555
O6_3 Nd3 1_555 1_555
O7_3 Nd3 1_555 1_555
H11_3 O7_3 1_555 1_555
O8_3 Nd3 1_555 1_555
H12_3 O8_3 1_555 1_555
H13_3 O8_3 1_555 1_555
N2_3 C1_3 1_555 1_555
C3_3 C4_3 1_555 1_555
N3_3 C8_3 1_555 1_555
C7_3 C8_3 1_555 1_555
O6_3 C9_3 1_555 1_555
S2_3 C5_3 1_555 1_555
N4_3 H5_3 1_555 1_555
N4_3 C5_3 1_555 1_555
S2_4 C5_4 1_555 1_555
O10 C6_4 1_555 1_555
N3_4 H4_4 1_555 1_555
N4_4 H5_4 1_555 1_555
C5_4 N3_4 1_555 1_555
C6_4 N4_4 1_555 1_555
C7_4 C6_4 1_555 1_555
H6_4 C7_4 1_555 1_555
C8_4 O4_4 1_555 1_555
C9_4 O11_2 1_555 1_555
C10_4 C9_4 1_555 1_555
H7_4 C10_4 1_555 1_555
H8_4 C10_4 1_555 1_555
H9_4 C10_4 1_555 1_555
N3_4 C8_4 1_555 1_555
N4_4 C5_4 1_555 1_555
C7_4 C8_4 1_555 1_555
O6_4 C9_4 1_555 1_555
O7_4 Nd4 1_555 1_555
H10_4 O7_4 1_555 1_555
H11_4 O7_4 1_555 1_555
O8_4 Nd4 1_555 1_555
H12_4 O8_4 1_555 1_555
O9_2 Nd4 1_555 1_555
S1_4 C1_4 1_555 1_555
O2_4 C4_4 1_555 1_555
N1_4 H1_4 1_555 1_555
N2_4 H2_4 1_555 1_555
C1_4 N1_4 1_555 1_555
C2_4 N2_4 1_555 1_555
C3_4 C2_4 1_555 1_555
H3_4 C3_4 1_555 1_555
C4_4 N1_4 1_555 1_555
N2_4 C1_4 1_555 1_555
C3_4 C4_4 1_555 1_555

#END
