
###############################################################################
#
# This file contains modified crystal structure data generated from the
# MOF subset of the Cambridge Structural Database (CSD) v543 
# hosted by the Cambridge Crystallographic Data Centre (CCDC).
#
# This work is licensed under the Creative Commons
# Attribution-NonCommercial-ShareAlike 4.0 International License.
# To view a copy of this license, visit
# http://creativecommons.org/licenses/by-nc-sa/4.0/
# or send a letter to
# Creative Commons, PO Box 1866, Mountain View, CA 94042, USA.
#
# CIF created using the CSD Python API on 29 September 2022
# The structure has been converted into the P1 space group
# The structure has a 3D framework
# The original CSD entry VUPNAX is in the cubic crystal system
# The original CSD entry VUPNAX is in a Sohncke space group
# The framework has been calculated to contain at least 10.0% void space
# The void calculation uses a probe of radius 1.32A, grid spacing 0.4
# The framework is charged, counterions have been retained in the structure
#
###############################################################################

data_VUPNAX
_chemical_formula_moiety         '(C120 H84 Cr4 Fe4 Mn4 N36 O48 4+)n'
_symmetry_cell_setting           triclinic
_symmetry_space_group_name_H-M   'P 1'
_symmetry_Int_Tables_number      1
_space_group_name_Hall           'P 1'
loop_
_symmetry_equiv_pos_site_id
_symmetry_equiv_pos_as_xyz
1 x,y,z
_cell_length_a                   15.1533(6)
_cell_length_b                   15.1533(6)
_cell_length_c                   15.1533(6)
_cell_angle_alpha                90
_cell_angle_beta                 90
_cell_angle_gamma                90
_cell_volume                     3479.54
loop_
_atom_site_label
_atom_site_type_symbol
_atom_site_fract_x
_atom_site_fract_y
_atom_site_fract_z
Fe1 Fe 0.1239(7) 0.3761(7) 0.6239(7)
N1 N 0.108(5) 0.365(4) 0.749(4)
N2 N 0.001(3) 0.379(4) 0.623(5)
C1 C 0.023(4) 0.370(5) 0.788(4)
C2 C 0.169(4) 0.339(8) 0.815(6)
N3 N 0.032(5) 0.346(5) 0.879(4)
C5 C 0.122(6) 0.327(8) 0.895(5)
H1 H 0.2306 0.3303 0.8063
H4 H 0.1468 0.3093 0.9497
N4 N 0.249(4) 0.392(5) 0.635(4)
N5 N 0.123(5) 0.499(3) 0.621(4)
N6 N 0.135(4) 0.251(4) 0.608(5)
N7 N 0.121(4) 0.377(5) 0.501(3)
C9 C 0.288(4) 0.477(4) 0.630(5)
C10 C 0.315(6) 0.331(4) 0.661(8)
C11 C 0.209(4) 0.531(5) 0.624(5)
C12 C 0.053(4) 0.558(5) 0.626(5)
C13 C 0.130(5) 0.212(4) 0.523(4)
C14 C 0.161(8) 0.185(6) 0.669(4)
C15 C 0.124(5) 0.291(4) 0.469(5)
C16 C 0.126(5) 0.447(4) 0.442(5)
N8 N 0.379(4) 0.468(5) 0.654(5)
C17 C 0.395(5) 0.378(6) 0.673(8)
H8 H 0.3063 0.2694 0.6697
C18 C 0.225(4) 0.621(6) 0.633(7)
C19 C 0.068(5) 0.648(4) 0.635(5)
N9 N 0.154(5) 0.121(4) 0.532(5)
C20 C 0.173(8) 0.105(5) 0.622(6)
H10 H 0.1697 0.1937 0.7306
C21 C 0.133(7) 0.275(4) 0.379(6)
C22 C 0.135(5) 0.432(5) 0.352(4)
H11 H 0.1239 0.5060 0.4640
H12 H 0.4177 0.5111 0.6564
H13 H 0.4497 0.3532 0.6907
H14 H 0.2837 0.6425 0.6353
C23 C 0.154(7) 0.679(3) 0.639(6)
H15 H 0.0201 0.6875 0.6391
H16 H 0.1564 0.0823 0.4889
H17 H 0.1907 0.0503 0.6468
H18 H 0.1353 0.2163 0.3575
C24 C 0.139(6) 0.346(7) 0.321(3)
H19 H 0.1391 0.4799 0.3125
H20 H 0.1649 0.7407 0.6448
H21 H 0.1448 0.3351 0.2593
C3 C 0.969(5) 0.376(5) 0.709(4)
C4 C 0.942(5) 0.374(5) 0.553(4)
C6 C 0.879(6) 0.367(7) 0.725(4)
C7 C 0.852(4) 0.365(5) 0.568(5)
H2 H 0.9640 0.3761 0.4940
H3 H 0.9889 0.3436 0.9177
H5 H 0.8575 0.3647 0.7837
C8 C 0.821(3) 0.361(6) 0.654(7)
H6 H 0.8125 0.3609 0.5201
H7 H 0.7593 0.3552 0.6649
H9 H 0.9940 0.5360 0.6239
Fe1_2 Fe 0.3761(7) 0.6239(7) 0.1239(7)
N1_2 N 0.392(5) 0.635(4) 0.249(4)
N2_2 N 0.499(3) 0.621(4) 0.123(5)
C1_2 C 0.477(4) 0.630(5) 0.288(4)
C2_2 C 0.331(4) 0.661(8) 0.315(6)
C3_2 C 0.531(5) 0.624(5) 0.209(4)
C4_2 C 0.558(5) 0.626(5) 0.053(4)
N3_2 N 0.468(5) 0.654(5) 0.379(4)
C5_2 C 0.378(6) 0.673(8) 0.395(5)
H1_2 H 0.2694 0.6697 0.3063
C6_2 C 0.621(6) 0.633(7) 0.225(4)
C7_2 C 0.648(4) 0.635(5) 0.068(5)
H3_2 H 0.5111 0.6564 0.4177
H4_2 H 0.3532 0.6907 0.4497
H5_2 H 0.6425 0.6353 0.2837
C8_2 C 0.679(3) 0.639(6) 0.154(7)
H6_2 H 0.6875 0.6391 0.0201
H7_2 H 0.7407 0.6448 0.1649
N4_2 N 0.251(4) 0.608(5) 0.135(4)
N5_2 N 0.377(5) 0.501(3) 0.121(4)
N6_2 N 0.365(4) 0.749(4) 0.108(5)
N7_2 N 0.379(4) 0.623(5) 0.001(3)
C9_2 C 0.212(4) 0.523(4) 0.130(5)
C10_2 C 0.185(6) 0.669(4) 0.161(8)
C11_2 C 0.291(4) 0.469(5) 0.124(5)
C12_2 C 0.447(4) 0.442(5) 0.126(5)
C13_2 C 0.370(5) 0.788(4) 0.023(4)
C14_2 C 0.339(8) 0.815(6) 0.169(4)
N8_2 N 0.121(4) 0.532(5) 0.154(5)
C17_2 C 0.105(5) 0.622(6) 0.173(8)
H8_2 H 0.1937 0.7306 0.1697
C18_2 C 0.275(4) 0.379(6) 0.133(7)
C19_2 C 0.432(5) 0.352(4) 0.135(5)
H9_2 H 0.5060 0.4640 0.1239
N9_2 N 0.346(5) 0.879(4) 0.032(5)
C20_2 C 0.327(8) 0.895(5) 0.122(6)
H10_2 H 0.3303 0.8063 0.2306
H12_2 H 0.0823 0.4889 0.1564
H13_2 H 0.0503 0.6468 0.1907
H14_2 H 0.2163 0.3575 0.1353
C23_2 C 0.346(7) 0.321(3) 0.139(6)
H15_2 H 0.4799 0.3125 0.1391
H17_2 H 0.3093 0.9497 0.1468
H20_2 H 0.3351 0.2593 0.1448
H2_2 H 0.5360 0.6239 0.9940
C15_2 C 0.376(5) 0.709(4) 0.969(5)
C16_2 C 0.374(5) 0.553(4) 0.942(5)
C21_2 C 0.367(7) 0.725(4) 0.879(6)
C22_2 C 0.365(5) 0.568(5) 0.852(4)
H11_2 H 0.3761 0.4940 0.9640
H16_2 H 0.3436 0.9177 0.9889
H18_2 H 0.3647 0.7837 0.8575
C24_2 C 0.361(6) 0.654(7) 0.821(3)
H19_2 H 0.3609 0.5201 0.8125
H21_2 H 0.3552 0.6649 0.7593
H9_3 H 0.0060 0.0360 0.8761
H2_3 H 0.0360 0.8761 0.0060
C3_3 C 0.031(5) 0.876(5) 0.791(4)
C4_3 C 0.058(5) 0.874(5) 0.947(4)
C6_3 C 0.121(6) 0.867(7) 0.775(4)
C7_3 C 0.148(4) 0.865(5) 0.932(5)
H3_3 H 0.0111 0.8436 0.5823
H5_3 H 0.1425 0.8647 0.7163
C8_3 C 0.179(3) 0.861(6) 0.846(7)
H6_3 H 0.1875 0.8609 0.9799
H7_3 H 0.2407 0.8552 0.8351
H11_3 H 0.8761 0.0060 0.0360
C11_3 C 0.791(4) 0.031(5) 0.876(5)
C12_3 C 0.947(4) 0.058(5) 0.874(5)
C18_3 C 0.775(4) 0.121(6) 0.867(7)
C19_3 C 0.932(5) 0.148(4) 0.865(5)
H12_3 H 0.5823 0.0111 0.8436
H14_3 H 0.7163 0.1425 0.8647
C23_3 C 0.846(7) 0.179(3) 0.861(6)
H15_3 H 0.9799 0.1875 0.8609
H20_3 H 0.8351 0.2407 0.8552
C15_3 C 0.876(5) 0.791(4) 0.031(5)
C16_3 C 0.874(5) 0.947(4) 0.058(5)
C21_3 C 0.867(7) 0.775(4) 0.121(6)
C22_3 C 0.865(5) 0.932(5) 0.148(4)
H16_3 H 0.8436 0.5823 0.0111
H18_3 H 0.8647 0.7163 0.1425
C24_3 C 0.861(6) 0.846(7) 0.179(3)
H19_3 H 0.8609 0.9799 0.1875
H21_3 H 0.8552 0.8351 0.2407
Fe1_3 Fe 0.8761(7) 0.8761(7) 0.8761(7)
N1_3 N 0.892(5) 0.865(4) 0.751(4)
N2_3 N 0.999(3) 0.879(4) 0.877(5)
C1_3 C 0.977(4) 0.870(5) 0.712(4)
C2_3 C 0.831(4) 0.839(8) 0.685(6)
N3_3 N 0.968(5) 0.846(5) 0.621(4)
C5_3 C 0.878(6) 0.827(8) 0.605(5)
H1_3 H 0.7694 0.8303 0.6937
H4_3 H 0.8532 0.8093 0.5503
N4_3 N 0.751(4) 0.892(5) 0.865(4)
N5_3 N 0.877(5) 0.999(3) 0.879(4)
N6_3 N 0.865(4) 0.751(4) 0.892(5)
N7_3 N 0.879(4) 0.877(5) 0.999(3)
C9_3 C 0.712(4) 0.977(4) 0.870(5)
C10_3 C 0.685(6) 0.831(4) 0.839(8)
C13_3 C 0.870(5) 0.712(4) 0.977(4)
C14_3 C 0.839(8) 0.685(6) 0.831(4)
N8_3 N 0.621(4) 0.968(5) 0.846(5)
C17_3 C 0.605(5) 0.878(6) 0.827(8)
H8_3 H 0.6937 0.7694 0.8303
N9_3 N 0.846(5) 0.621(4) 0.968(5)
C20_3 C 0.827(8) 0.605(5) 0.878(6)
H10_3 H 0.8303 0.6937 0.7694
H13_3 H 0.5503 0.8532 0.8093
H17_3 H 0.8093 0.5503 0.8532
Fe1_4 Fe 0.6239(7) 0.1239(7) 0.3761(7)
N1_4 N 0.608(5) 0.135(4) 0.251(4)
N2_4 N 0.501(3) 0.121(4) 0.377(5)
C1_4 C 0.523(4) 0.130(5) 0.212(4)
C2_4 C 0.669(4) 0.161(8) 0.185(6)
C3_4 C 0.469(5) 0.124(5) 0.291(4)
C4_4 C 0.442(5) 0.126(5) 0.447(4)
N3_4 N 0.532(5) 0.154(5) 0.121(4)
C5_4 C 0.622(6) 0.173(8) 0.105(5)
H1_4 H 0.7306 0.1697 0.1937
C6_4 C 0.379(6) 0.133(7) 0.275(4)
C7_4 C 0.352(4) 0.135(5) 0.432(5)
H2_4 H 0.4640 0.1239 0.5060
H3_4 H 0.4889 0.1564 0.0823
H4_4 H 0.6468 0.1907 0.0503
H5_4 H 0.3575 0.1353 0.2163
C8_4 C 0.321(3) 0.139(6) 0.346(7)
H6_4 H 0.3125 0.1391 0.4799
H7_4 H 0.2593 0.1448 0.3351
N4_4 N 0.749(4) 0.108(5) 0.365(4)
N5_4 N 0.623(5) 0.001(3) 0.379(4)
N6_4 N 0.635(4) 0.249(4) 0.392(5)
N7_4 N 0.621(4) 0.123(5) 0.499(3)
C9_4 C 0.788(4) 0.023(4) 0.370(5)
C10_4 C 0.815(6) 0.169(4) 0.339(8)
C13_4 C 0.630(5) 0.288(4) 0.477(4)
C14_4 C 0.661(8) 0.315(6) 0.331(4)
C15_4 C 0.624(5) 0.209(4) 0.531(5)
C16_4 C 0.626(5) 0.053(4) 0.558(5)
N8_4 N 0.879(4) 0.032(5) 0.346(5)
C17_4 C 0.895(5) 0.122(6) 0.327(8)
H8_4 H 0.8063 0.2306 0.3303
N9_4 N 0.654(5) 0.379(4) 0.468(5)
C20_4 C 0.673(8) 0.395(5) 0.378(6)
H10_4 H 0.6697 0.3063 0.2694
C21_4 C 0.633(7) 0.225(4) 0.621(6)
C22_4 C 0.635(5) 0.068(5) 0.648(4)
H13_4 H 0.9497 0.1468 0.3093
H16_4 H 0.6564 0.4177 0.5111
H17_4 H 0.6907 0.4497 0.3532
H18_4 H 0.6353 0.2837 0.6425
C24_4 C 0.639(6) 0.154(7) 0.679(3)
H19_4 H 0.6391 0.0201 0.6875
H21_4 H 0.6448 0.1649 0.7407
C11_4 C 0.709(4) 0.969(5) 0.376(5)
C12_4 C 0.553(4) 0.942(5) 0.374(5)
C18_4 C 0.725(4) 0.879(6) 0.367(7)
C19_4 C 0.568(5) 0.852(4) 0.365(5)
H9_4 H 0.4940 0.9640 0.3761
H11_4 H 0.6239 0.9940 0.5360
H12_4 H 0.9177 0.9889 0.3436
H14_4 H 0.7837 0.8575 0.3647
C23_4 C 0.654(7) 0.821(3) 0.361(6)
H15_4 H 0.5201 0.8125 0.3609
H20_4 H 0.6649 0.7593 0.3552
O11 O 0.2570(15) 0.1212(18) 0.112(2)
O12 O 0.361(2) 0.1219(19) 0.0079(18)
C30 C 0.290(3) 0.122(3) 0.038(3)
O14 O 0.630(2) 0.3832(19) 0.0185(17)
Cr3 Cr 0.1205(5) 0.1205(5) 0.1205(5)
Cr1 Cr 0.6205(5) 0.3795(5) 0.8795(5)
Mn1 Mn 0.3723(5) 0.1277(5) 0.8723(5)
O1 O 0.4815(17) 0.370(2) 0.8832(19)
O2 O 0.379(2) 0.2652(15) 0.8759(18)
O3 O 0.612(2) 0.2430(15) 0.8788(18)
O4 O 0.5079(18) 0.139(2) 0.8781(19)
C25 C 0.456(3) 0.290(3) 0.879(3)
C26 C 0.538(3) 0.210(3) 0.878(3)
O5 O 0.3832(19) 0.0185(17) 0.630(2)
O6 O 0.3759(18) 0.121(2) 0.7348(15)
C27 C 0.379(3) 0.044(3) 0.710(3)
O9 O 0.130(2) 0.1168(19) 0.9815(17)
O10 O 0.2348(15) 0.1241(18) 0.879(2)
C29 C 0.210(3) 0.121(3) 0.956(3)
O13 O 0.6168(19) 0.5185(17) 0.870(2)
O15 O 0.6212(18) 0.388(2) 0.7430(15)
O16 O 0.7570(15) 0.3788(18) 0.888(2)
O7 O 0.3788(18) 0.888(2) 0.7570(15)
O8 O 0.3781(19) 0.9921(18) 0.861(2)
C28 C 0.378(3) 0.962(3) 0.790(3)
Cr2 Cr 0.3795(5) 0.8795(5) 0.6205(5)
O7_2 O 0.1212(18) 0.112(2) 0.2570(15)
O8_2 O 0.1219(19) 0.0079(18) 0.361(2)
C28_2 C 0.122(3) 0.038(3) 0.290(3)
Mn1_2 Mn 0.1277(5) 0.8723(5) 0.3723(5)
O1_2 O 0.0185(17) 0.630(2) 0.3832(19)
O2_2 O 0.121(2) 0.7348(15) 0.3759(18)
C25_2 C 0.044(3) 0.710(3) 0.379(3)
O5_2 O 0.1168(19) 0.9815(17) 0.130(2)
O6_2 O 0.1241(18) 0.879(2) 0.2348(15)
C27_2 C 0.121(3) 0.956(3) 0.210(3)
O9_2 O 0.370(2) 0.8832(19) 0.4815(17)
O10_2 O 0.2652(15) 0.8759(18) 0.379(2)
O11_2 O 0.2430(15) 0.8788(18) 0.612(2)
O12_2 O 0.139(2) 0.8781(19) 0.5079(18)
C29_2 C 0.290(3) 0.879(3) 0.456(3)
C30_2 C 0.210(3) 0.878(3) 0.538(3)
Cr1_2 Cr 0.8795(5) 0.6205(5) 0.3795(5)
O3_2 O 0.888(2) 0.7570(15) 0.3788(18)
O4_2 O 0.9921(18) 0.861(2) 0.3781(19)
C26_2 C 0.962(3) 0.790(3) 0.378(3)
O13_2 O 0.8832(19) 0.4815(17) 0.370(2)
O14_2 O 0.870(2) 0.6168(19) 0.5185(17)
O15_2 O 0.8788(18) 0.612(2) 0.2430(15)
O16_2 O 0.7430(15) 0.6212(18) 0.388(2)
Mn1_3 Mn 0.6277(5) 0.6277(5) 0.6277(5)
O1_3 O 0.5185(17) 0.870(2) 0.6168(19)
O2_3 O 0.621(2) 0.7652(15) 0.6241(18)
O3_3 O 0.388(2) 0.7430(15) 0.6212(18)
O4_3 O 0.4921(18) 0.639(2) 0.6219(19)
C25_3 C 0.544(3) 0.790(3) 0.621(3)
C26_3 C 0.462(3) 0.710(3) 0.622(3)
O6_3 O 0.6241(18) 0.621(2) 0.7652(15)
O8_3 O 0.6219(19) 0.4921(18) 0.639(2)
C27_3 C 0.621(3) 0.544(3) 0.790(3)
C28_3 C 0.622(3) 0.462(3) 0.710(3)
O10_3 O 0.7652(15) 0.6241(18) 0.621(2)
O12_3 O 0.639(2) 0.6219(19) 0.4921(18)
C29_3 C 0.790(3) 0.621(3) 0.544(3)
C30_3 C 0.710(3) 0.622(3) 0.462(3)
O3_4 O 0.112(2) 0.2570(15) 0.1212(18)
O4_4 O 0.0079(18) 0.361(2) 0.1219(19)
C26_4 C 0.038(3) 0.290(3) 0.122(3)
Mn1_4 Mn 0.8723(5) 0.3723(5) 0.1277(5)
O1_4 O 0.9815(17) 0.130(2) 0.1168(19)
O2_4 O 0.879(2) 0.2348(15) 0.1241(18)
C25_4 C 0.956(3) 0.210(3) 0.121(3)
O6_4 O 0.8759(18) 0.379(2) 0.2652(15)
O8_4 O 0.8781(19) 0.5079(18) 0.139(2)
C27_4 C 0.879(3) 0.456(3) 0.290(3)
C28_4 C 0.878(3) 0.538(3) 0.210(3)
O10_4 O 0.7348(15) 0.3759(18) 0.121(2)
C29_4 C 0.710(3) 0.379(3) 0.044(3)
O12_4 O 0.861(2) 0.3781(19) 0.9921(18)
C30_4 C 0.790(3) 0.378(3) 0.962(3)
loop_
_geom_bond_atom_site_label_1
_geom_bond_atom_site_label_2
_geom_bond_site_symmetry_1
_geom_bond_site_symmetry_2
Fe1 N1 1_555 1_555
N1 C1 1_555 1_555
N2 Fe1 1_555 1_555
C2 N1 1_555 1_555
N3 C1 1_555 1_555
C5 C2 1_555 1_555
H1 C2 1_555 1_555
H4 C5 1_555 1_555
N4 Fe1 1_555 1_555
N5 Fe1 1_555 1_555
N6 Fe1 1_555 1_555
N7 Fe1 1_555 1_555
C9 N4 1_555 1_555
C10 N4 1_555 1_555
C11 N5 1_555 1_555
C12 N5 1_555 1_555
C13 N6 1_555 1_555
C14 N6 1_555 1_555
C15 N7 1_555 1_555
C16 N7 1_555 1_555
N8 C9 1_555 1_555
C17 C10 1_555 1_555
H8 C10 1_555 1_555
C18 C11 1_555 1_555
C19 C12 1_555 1_555
N9 C13 1_555 1_555
C20 C14 1_555 1_555
H10 C14 1_555 1_555
C21 C15 1_555 1_555
C22 C16 1_555 1_555
H11 C16 1_555 1_555
H12 N8 1_555 1_555
H13 C17 1_555 1_555
H14 C18 1_555 1_555
C23 C18 1_555 1_555
H15 C19 1_555 1_555
H16 N9 1_555 1_555
H17 C20 1_555 1_555
H18 C21 1_555 1_555
C24 C21 1_555 1_555
H19 C22 1_555 1_555
H20 C23 1_555 1_555
H21 C24 1_555 1_555
N3 C5 1_555 1_555
C9 C11 1_555 1_555
C13 C15 1_555 1_555
N8 C17 1_555 1_555
C19 C23 1_555 1_555
N9 C20 1_555 1_555
C22 C24 1_555 1_555
C6 C3 1_555 1_555
C7 C4 1_555 1_555
H2 C4 1_555 1_555
H5 C6 1_555 1_555
C8 C6 1_555 1_555
H6 C7 1_555 1_555
H7 C8 1_555 1_555
C7 C8 1_555 1_555
Fe1_2 N1_2 1_555 1_555
N1_2 C1_2 1_555 1_555
N2_2 Fe1_2 1_555 1_555
C1_2 C3_2 1_555 1_555
C2_2 N1_2 1_555 1_555
C3_2 N2_2 1_555 1_555
C4_2 N2_2 1_555 1_555
N3_2 C1_2 1_555 1_555
C5_2 C2_2 1_555 1_555
H1_2 C2_2 1_555 1_555
C6_2 C3_2 1_555 1_555
C7_2 C4_2 1_555 1_555
H3_2 N3_2 1_555 1_555
H4_2 C5_2 1_555 1_555
H5_2 C6_2 1_555 1_555
C8_2 C6_2 1_555 1_555
H6_2 C7_2 1_555 1_555
H7_2 C8_2 1_555 1_555
N4_2 Fe1_2 1_555 1_555
N5_2 Fe1_2 1_555 1_555
N6_2 Fe1_2 1_555 1_555
N7_2 Fe1_2 1_555 1_555
C9_2 N4_2 1_555 1_555
C10_2 N4_2 1_555 1_555
C11_2 N5_2 1_555 1_555
C12_2 N5_2 1_555 1_555
C13_2 N6_2 1_555 1_555
C14_2 N6_2 1_555 1_555
N8_2 C9_2 1_555 1_555
C17_2 C10_2 1_555 1_555
H8_2 C10_2 1_555 1_555
C18_2 C11_2 1_555 1_555
C19_2 C12_2 1_555 1_555
H9_2 C12_2 1_555 1_555
N9_2 C13_2 1_555 1_555
C20_2 C14_2 1_555 1_555
H10_2 C14_2 1_555 1_555
H12_2 N8_2 1_555 1_555
H13_2 C17_2 1_555 1_555
H14_2 C18_2 1_555 1_555
C23_2 C18_2 1_555 1_555
H15_2 C19_2 1_555 1_555
H17_2 C20_2 1_555 1_555
H20_2 C23_2 1_555 1_555
N3_2 C5_2 1_555 1_555
C7_2 C8_2 1_555 1_555
C9_2 C11_2 1_555 1_555
N8_2 C17_2 1_555 1_555
C19_2 C23_2 1_555 1_555
N9_2 C20_2 1_555 1_555
C21_2 C15_2 1_555 1_555
C22_2 C16_2 1_555 1_555
H11_2 C16_2 1_555 1_555
H18_2 C21_2 1_555 1_555
C24_2 C21_2 1_555 1_555
H19_2 C22_2 1_555 1_555
H21_2 C24_2 1_555 1_555
C22_2 C24_2 1_555 1_555
C6_3 C3_3 1_555 1_555
C7_3 C4_3 1_555 1_555
H5_3 C6_3 1_555 1_555
C8_3 C6_3 1_555 1_555
H6_3 C7_3 1_555 1_555
H7_3 C8_3 1_555 1_555
C7_3 C8_3 1_555 1_555
C18_3 C11_3 1_555 1_555
C19_3 C12_3 1_555 1_555
H14_3 C18_3 1_555 1_555
C23_3 C18_3 1_555 1_555
H15_3 C19_3 1_555 1_555
H20_3 C23_3 1_555 1_555
C19_3 C23_3 1_555 1_555
C21_3 C15_3 1_555 1_555
C22_3 C16_3 1_555 1_555
H18_3 C21_3 1_555 1_555
C24_3 C21_3 1_555 1_555
H19_3 C22_3 1_555 1_555
H21_3 C24_3 1_555 1_555
C22_3 C24_3 1_555 1_555
Fe1_3 N1_3 1_555 1_555
N1_3 C1_3 1_555 1_555
N2_3 Fe1_3 1_555 1_555
C2_3 N1_3 1_555 1_555
N3_3 C1_3 1_555 1_555
C5_3 C2_3 1_555 1_555
H1_3 C2_3 1_555 1_555
H4_3 C5_3 1_555 1_555
N4_3 Fe1_3 1_555 1_555
N5_3 Fe1_3 1_555 1_555
N6_3 Fe1_3 1_555 1_555
N7_3 Fe1_3 1_555 1_555
C9_3 N4_3 1_555 1_555
C10_3 N4_3 1_555 1_555
C13_3 N6_3 1_555 1_555
C14_3 N6_3 1_555 1_555
N8_3 C9_3 1_555 1_555
C17_3 C10_3 1_555 1_555
H8_3 C10_3 1_555 1_555
N9_3 C13_3 1_555 1_555
C20_3 C14_3 1_555 1_555
H10_3 C14_3 1_555 1_555
H13_3 C17_3 1_555 1_555
H17_3 C20_3 1_555 1_555
N3_3 C5_3 1_555 1_555
N8_3 C17_3 1_555 1_555
N9_3 C20_3 1_555 1_555
Fe1_4 N1_4 1_555 1_555
N1_4 C1_4 1_555 1_555
N2_4 Fe1_4 1_555 1_555
C1_4 C3_4 1_555 1_555
C2_4 N1_4 1_555 1_555
C3_4 N2_4 1_555 1_555
C4_4 N2_4 1_555 1_555
N3_4 C1_4 1_555 1_555
C5_4 C2_4 1_555 1_555
H1_4 C2_4 1_555 1_555
C6_4 C3_4 1_555 1_555
C7_4 C4_4 1_555 1_555
H2_4 C4_4 1_555 1_555
H3_4 N3_4 1_555 1_555
H4_4 C5_4 1_555 1_555
H5_4 C6_4 1_555 1_555
C8_4 C6_4 1_555 1_555
H6_4 C7_4 1_555 1_555
H7_4 C8_4 1_555 1_555
N4_4 Fe1_4 1_555 1_555
N5_4 Fe1_4 1_555 1_555
N6_4 Fe1_4 1_555 1_555
N7_4 Fe1_4 1_555 1_555
C9_4 N4_4 1_555 1_555
C10_4 N4_4 1_555 1_555
C13_4 N6_4 1_555 1_555
C14_4 N6_4 1_555 1_555
C15_4 N7_4 1_555 1_555
C16_4 N7_4 1_555 1_555
N8_4 C9_4 1_555 1_555
C17_4 C10_4 1_555 1_555
H8_4 C10_4 1_555 1_555
N9_4 C13_4 1_555 1_555
C20_4 C14_4 1_555 1_555
H10_4 C14_4 1_555 1_555
C21_4 C15_4 1_555 1_555
C22_4 C16_4 1_555 1_555
H13_4 C17_4 1_555 1_555
H16_4 N9_4 1_555 1_555
H17_4 C20_4 1_555 1_555
H18_4 C21_4 1_555 1_555
C24_4 C21_4 1_555 1_555
H19_4 C22_4 1_555 1_555
H21_4 C24_4 1_555 1_555
N3_4 C5_4 1_555 1_555
C7_4 C8_4 1_555 1_555
C13_4 C15_4 1_555 1_555
N8_4 C17_4 1_555 1_555
N9_4 C20_4 1_555 1_555
C22_4 C24_4 1_555 1_555
C18_4 C11_4 1_555 1_555
C19_4 C12_4 1_555 1_555
H9_4 C12_4 1_555 1_555
H14_4 C18_4 1_555 1_555
C23_4 C18_4 1_555 1_555
H15_4 C19_4 1_555 1_555
H20_4 C23_4 1_555 1_555
C19_4 C23_4 1_555 1_555
O11 C30 1_555 1_555
C30 O12 1_555 1_555
O11 Cr3 1_555 1_555
Cr1 O1 1_555 1_555
Mn1 O2 1_555 1_555
O1 C25 1_555 1_555
O2 C25 1_555 1_555
O3 Cr1 1_555 1_555
O4 Mn1 1_555 1_555
C25 C26 1_555 1_555
C26 O3 1_555 1_555
O5 C27 1_555 1_555
O6 Mn1 1_555 1_555
C27 O6 1_555 1_555
O9 C29 1_555 1_555
O10 Mn1 1_555 1_555
C29 O10 1_555 1_555
O13 Cr1 1_555 1_555
O15 Cr1 1_555 1_555
O16 Cr1 1_555 1_555
O4 C26 1_555 1_555
O7 C28 1_555 1_555
C28 O8 1_555 1_555
O7 Cr2 1_555 1_555
O7_2 C28_2 1_555 1_555
C28_2 O8_2 1_555 1_555
O7_2 Cr3 1_555 1_555
Mn1_2 O2_2 1_555 1_555
O1_2 C25_2 1_555 1_555
O2_2 C25_2 1_555 1_555
O5_2 C27_2 1_555 1_555
O6_2 Mn1_2 1_555 1_555
C27_2 O6_2 1_555 1_555
O9_2 C29_2 1_555 1_555
O10_2 Mn1_2 1_555 1_555
O11_2 C30_2 1_555 1_555
O12_2 Mn1_2 1_555 1_555
C29_2 O10_2 1_555 1_555
C30_2 O12_2 1_555 1_555
Cr2 O9_2 1_555 1_555
O11_2 Cr2 1_555 1_555
C29_2 C30_2 1_555 1_555
O3_2 Cr1_2 1_555 1_555
C26_2 O3_2 1_555 1_555
O13_2 Cr1_2 1_555 1_555
O14_2 Cr1_2 1_555 1_555
O15_2 Cr1_2 1_555 1_555
O16_2 Cr1_2 1_555 1_555
O4_2 C26_2 1_555 1_555
Cr2 O1_3 1_555 1_555
Mn1_3 O2_3 1_555 1_555
O1_3 C25_3 1_555 1_555
O2_3 C25_3 1_555 1_555
O3_3 Cr2 1_555 1_555
O4_3 Mn1_3 1_555 1_555
C25_3 C26_3 1_555 1_555
C26_3 O3_3 1_555 1_555
O13 C27_3 1_555 1_555
O6_3 Mn1_3 1_555 1_555
O15 C28_3 1_555 1_555
O8_3 Mn1_3 1_555 1_555
C27_3 O6_3 1_555 1_555
C28_3 O8_3 1_555 1_555
O14_2 C29_3 1_555 1_555
O10_3 Mn1_3 1_555 1_555
O16_2 C30_3 1_555 1_555
O12_3 Mn1_3 1_555 1_555
C29_3 O10_3 1_555 1_555
C30_3 O12_3 1_555 1_555
O4_3 C26_3 1_555 1_555
C27_3 C28_3 1_555 1_555
C29_3 C30_3 1_555 1_555
O3_4 Cr3 1_555 1_555
C26_4 O3_4 1_555 1_555
O4_4 C26_4 1_555 1_555
Mn1_4 O2_4 1_555 1_555
O1_4 C25_4 1_555 1_555
O2_4 C25_4 1_555 1_555
O13_2 C27_4 1_555 1_555
O6_4 Mn1_4 1_555 1_555
O15_2 C28_4 1_555 1_555
O8_4 Mn1_4 1_555 1_555
C27_4 O6_4 1_555 1_555
C28_4 O8_4 1_555 1_555
O14 C29_4 1_555 1_555
O10_4 Mn1_4 1_555 1_555
C29_4 O10_4 1_555 1_555
C27_4 C28_4 1_555 1_555
O16 C30_4 1_555 1_555
C30_4 O12_4 1_555 1_555

#END
