
###############################################################################
#
# This file contains modified crystal structure data generated from the
# MOF subset of the Cambridge Structural Database (CSD) v543 
# hosted by the Cambridge Crystallographic Data Centre (CCDC).
#
# This work is licensed under the Creative Commons
# Attribution-NonCommercial-ShareAlike 4.0 International License.
# To view a copy of this license, visit
# http://creativecommons.org/licenses/by-nc-sa/4.0/
# or send a letter to
# Creative Commons, PO Box 1866, Mountain View, CA 94042, USA.
#
# CIF created using the CSD Python API on 29 September 2022
# The structure has been converted into the P1 space group
# The structure has a 3D framework
# The original CSD entry VUPSEH is in the triclinic crystal system
# The framework has been calculated to contain at least 10.0% void space
# The void calculation uses a probe of radius 1.32A, grid spacing 0.4
#
###############################################################################

data_VUPSEH
_chemical_formula_moiety         '(C24 H16 Cu3 Mo4 N4 O11)n'
_symmetry_cell_setting           triclinic
_symmetry_space_group_name_H-M   'P 1'
_symmetry_Int_Tables_number      1
_space_group_name_Hall           'P 1'
loop_
_symmetry_equiv_pos_site_id
_symmetry_equiv_pos_as_xyz
1 x,y,z
_cell_length_a                   7.4173(5)
_cell_length_b                   9.2259(7)
_cell_length_c                   13.8144(10)
_cell_angle_alpha                72.173(8)
_cell_angle_beta                 89.886(6)
_cell_angle_gamma                73.221(7)
_cell_volume                     857.753
loop_
_atom_site_label
_atom_site_type_symbol
_atom_site_fract_x
_atom_site_fract_y
_atom_site_fract_z
O2 O 0.315(4) 0.158(3) 0.101(2)
O6 O 0.300(5) 0.479(4) 0.034(2)
Cu9 Cu 0.2016(10) 0.6646(8) 0.0737(6)
Mo1 Mo 0.2993(7) 0.3138(5) 0.9946(3)
O1 O 0.079(5) 0.382(4) 0.914(2)
O5 O 0.496(4) 0.277(3) 0.929(2)
Cu6 Cu 0.6042(10) 0.0655(8) 0.8994(6)
Cu7 Cu 0.7984(10) 0.3354(8) 0.9263(6)
O14 O 0.322(5) 0.038(4) 0.948(2)
Cu1 Cu 0.3958(10) 0.9345(8) 0.1006(6)
O3 O 0.107(5) 0.879(4) 0.099(2)
O11 O 0.504(4) 0.723(3) 0.071(2)
O13 O 0.678(5) 0.962(4) 0.052(2)
N3 N 0.468(7) 0.840(6) 0.243(4)
N1 N 0.724(6) 0.459(5) 0.780(3)
C1 C 0.453(7) 0.833(6) 0.424(4)
H1 H 0.4001 0.8899 0.4673
C2 C 0.799(9) 0.405(7) 0.713(5)
H2 H 0.8958 0.3089 0.7345
C3 C 0.381(8) 0.902(6) 0.315(4)
H3 H 0.2732 0.9899 0.2955
C4 C 0.609(8) 0.691(7) 0.296(4)
H4 H 0.6778 0.6335 0.2565
C5 C 0.749(9) 0.480(7) 0.599(5)
C6 C 0.612(8) 0.598(7) 0.740(4)
H5 H 0.5754 0.6584 0.7834
C7 C 0.536(8) 0.673(7) 0.636(4)
H6 H 0.4253 0.7585 0.6201
C8 C 0.616(8) 0.626(6) 0.563(5)
C9 C 0.848(10) 0.406(9) 0.537(5)
H7 H 0.9371 0.3057 0.5638
C10 C 0.648(8) 0.630(7) 0.396(4)
C11 C 0.808(10) 0.496(8) 0.415(5)
H8 H 0.8786 0.4635 0.3656
C12 C 0.594(7) 0.692(6) 0.465(4)
O9 O 0.893(5) 0.121(4) 0.901(2)
O12 O 0.700(5) 0.521(4) 0.966(2)
O7 O 0.844(5) 0.943(4) 0.238(3)
O7_2 O 0.156(5) 0.057(4) 0.762(3)
N1_2 N 0.276(6) 0.541(5) 0.220(3)
C1_2 C 0.547(7) 0.167(6) 0.576(4)
H1_2 H 0.5999 0.1101 0.5327
C2_2 C 0.201(9) 0.595(7) 0.287(5)
H2_2 H 0.1042 0.6911 0.2655
C3_2 C 0.619(8) 0.098(6) 0.685(4)
H3_2 H 0.7268 0.0101 0.7045
N2 N 0.532(7) 0.160(6) 0.757(4)
C4_2 C 0.391(8) 0.309(7) 0.704(4)
H4_2 H 0.3222 0.3665 0.7435
C5_2 C 0.251(9) 0.520(7) 0.401(5)
C6_2 C 0.388(8) 0.402(7) 0.260(4)
H5_2 H 0.4246 0.3416 0.2166
C7_2 C 0.464(8) 0.327(7) 0.364(4)
H6_2 H 0.5747 0.2415 0.3799
C8_2 C 0.384(8) 0.374(6) 0.437(5)
C9_2 C 0.152(10) 0.594(9) 0.463(5)
H7_2 H 0.0629 0.6943 0.4362
C10_2 C 0.352(8) 0.370(7) 0.604(4)
C11_2 C 0.192(10) 0.504(8) 0.585(5)
H8_2 H 0.1214 0.5365 0.6344
C12_2 C 0.406(7) 0.308(6) 0.535(4)
Mo1_2 Mo 0.7007(7) 0.6862(5) 0.0054(3)
O1_2 O 0.921(5) 0.618(4) 0.086(2)
O2_2 O 0.685(4) 0.842(3) 0.899(2)
Mo2 Mo 0.8716(7) 0.0029(5) 0.1110(4)
O4 O 0.849(5) 0.211(4) 0.072(2)
Mo2_2 Mo 0.1284(7) 0.9971(5) 0.8890(4)
O4_2 O 0.151(5) 0.789(4) 0.928(2)
loop_
_geom_bond_atom_site_label_1
_geom_bond_atom_site_label_2
_geom_bond_site_symmetry_1
_geom_bond_site_symmetry_2
Cu9 O6 1_555 1_555
Mo1 O1 1_555 1_555
O5 Mo1 1_555 1_555
Cu6 O5 1_555 1_555
Cu7 O5 1_555 1_555
Cu6 O14 1_555 1_555
O3 Cu1 1_555 1_555
Cu9 O3 1_555 1_555
O11 Cu1 1_555 1_555
O13 Cu1 1_555 1_555
N3 Cu1 1_555 1_555
Cu9 O11 1_555 1_555
N1 Cu7 1_555 1_555
C1 H1 1_555 1_555
C2 N1 1_555 1_555
H2 C2 1_555 1_555
C3 C1 1_555 1_555
H3 C3 1_555 1_555
N3 C3 1_555 1_555
C4 N3 1_555 1_555
H4 C4 1_555 1_555
C5 C2 1_555 1_555
C6 N1 1_555 1_555
H5 C6 1_555 1_555
C7 C6 1_555 1_555
H6 C7 1_555 1_555
C8 C5 1_555 1_555
C9 C5 1_555 1_555
H7 C9 1_555 1_555
C10 C4 1_555 1_555
C11 C9 1_555 1_555
H8 C11 1_555 1_555
C12 C1 1_555 1_555
O9 Cu7 1_555 1_555
O12 Cu7 1_555 1_555
C7 C8 1_555 1_555
C8 C12 1_555 1_555
C10 C11 1_555 1_555
C10 C12 1_555 1_555
Cu6 O9 1_555 1_555
N1_2 Cu9 1_555 1_555
C1_2 H1_2 1_555 1_555
C2_2 N1_2 1_555 1_555
H2_2 C2_2 1_555 1_555
C3_2 C1_2 1_555 1_555
H3_2 C3_2 1_555 1_555
N2 C3_2 1_555 1_555
C4_2 N2 1_555 1_555
H4_2 C4_2 1_555 1_555
C5_2 C2_2 1_555 1_555
C6_2 N1_2 1_555 1_555
H5_2 C6_2 1_555 1_555
C7_2 C6_2 1_555 1_555
H6_2 C7_2 1_555 1_555
C8_2 C5_2 1_555 1_555
C9_2 C5_2 1_555 1_555
H7_2 C9_2 1_555 1_555
C10_2 C4_2 1_555 1_555
C11_2 C9_2 1_555 1_555
H8_2 C11_2 1_555 1_555
C12_2 C1_2 1_555 1_555
Cu6 N2 1_555 1_555
C7_2 C8_2 1_555 1_555
C8_2 C12_2 1_555 1_555
C10_2 C11_2 1_555 1_555
C10_2 C12_2 1_555 1_555
Mo1_2 O1_2 1_555 1_555
O11 Mo1_2 1_555 1_555
O4 Mo2 1_555 1_555
O4_2 Mo2_2 1_555 1_555

#END
