
###############################################################################
#
# This file contains modified crystal structure data generated from the
# MOF subset of the Cambridge Structural Database (CSD) v543 
# hosted by the Cambridge Crystallographic Data Centre (CCDC).
#
# This work is licensed under the Creative Commons
# Attribution-NonCommercial-ShareAlike 4.0 International License.
# To view a copy of this license, visit
# http://creativecommons.org/licenses/by-nc-sa/4.0/
# or send a letter to
# Creative Commons, PO Box 1866, Mountain View, CA 94042, USA.
#
# CIF created using the CSD Python API on 29 September 2022
# The structure has been converted into the P1 space group
# The structure has a 3D framework
# The original CSD entry VUQQEG is in the orthorhombic crystal system
# The framework has been calculated to contain at least 10.0% void space
# The void calculation uses a probe of radius 1.32A, grid spacing 0.4
#
###############################################################################

data_VUQQEG
_chemical_formula_moiety         '(C128 H92 N28 O52 Zn16)n'
_symmetry_cell_setting           triclinic
_symmetry_space_group_name_H-M   'P 1'
_symmetry_Int_Tables_number      1
_space_group_name_Hall           'P 1'
loop_
_symmetry_equiv_pos_site_id
_symmetry_equiv_pos_as_xyz
1 x,y,z
_cell_length_a                   15.156(3)
_cell_length_b                   17.222(4)
_cell_length_c                   19.343(4)
_cell_angle_alpha                90
_cell_angle_beta                 90
_cell_angle_gamma                90
_cell_volume                     5048.84
loop_
_atom_site_label
_atom_site_type_symbol
_atom_site_fract_x
_atom_site_fract_y
_atom_site_fract_z
O7 O 0.0415(3) 0.1768(3) 0.5000
H12 H 0.0932 0.1907 0.5000
O13 O 0.0272(3) 0.2421(3) 0.6646(2)
O14 O 0.0272(3) 0.2421(3) 0.3354(2)
Zn1 Zn 0.85655(3) 0.01882(3) 0.58234(2)
Zn2 Zn 0.97294(4) 0.19743(3) 0.58293(3)
C1 C 0.6135(4) 0.1830(3) 0.7606(2)
C2 C 0.5790(4) 0.2212(4) 0.7040(3)
H1 H 0.5391 0.2615 0.7105
C3 C 0.6034(4) 0.1999(4) 0.6369(3)
H2 H 0.5797 0.2260 0.5992
C4 C 0.6629(3) 0.1396(3) 0.6266(2)
C5 C 0.6971(3) 0.1012(3) 0.6834(2)
H3 H 0.7369 0.0608 0.6771
C6 C 0.6724(4) 0.1227(3) 0.7499(3)
H4 H 0.6957 0.0962 0.7876
C7 C 0.5856(4) 0.2065(3) 0.8325(3)
C8 C 0.6864(3) 0.1199(3) 0.5545(2)
C9 C 0.7414(3) 0.3719(3) 0.7609(2)
C10 C 0.7156(4) 0.4169(3) 0.7047(3)
H5 H 0.6837 0.4623 0.7118
C11 C 0.7377(4) 0.3942(3) 0.6377(3)
H6 H 0.7209 0.4249 0.6004
C12 C 0.7846(3) 0.3257(3) 0.6262(2)
C13 C 0.7894(4) 0.3039(3) 0.7492(2)
H7 H 0.8079 0.2741 0.7865
C14 C 0.8097(3) 0.2805(3) 0.6828(2)
H8 H 0.8403 0.2344 0.6758
C15 C 0.7209(3) 0.3991(3) 0.8330(2)
C16 C 0.8077(3) 0.3056(3) 0.5542(2)
N1 N 0.7508(3) 0.0711(2) 0.53580(17)
N2 N 0.6442(4) 0.1515(4) 0.5000
N3 N 0.8748(3) 0.2606(2) 0.53554(19)
N4 N 0.7647(4) 0.3355(4) 0.5000
O1 O 0.5272(3) 0.2579(3) 0.8354(2)
O2 O 0.9232(3) 0.1036(2) 0.62091(19)
H9 H 0.9369 0.0914 0.6605
H10 H 0.9574 0.0832 0.5935
O3 O 0.6192(5) 0.1763(4) 0.8826(3)
O4 O 0.6596(3) 0.4499(2) 0.83816(18)
O5 O 0.7661(3) 0.3746(3) 0.8814(2)
C17 C 0.6135(4) 0.1830(3) 0.2394(2)
C18 C 0.5790(4) 0.2212(4) 0.2960(3)
H13 H 0.5391 0.2615 0.2895
C19 C 0.6034(4) 0.1999(4) 0.3631(3)
H14 H 0.5797 0.2260 0.4008
C20 C 0.6629(3) 0.1396(3) 0.3734(2)
C21 C 0.6971(3) 0.1012(3) 0.3166(2)
H15 H 0.7369 0.0608 0.3229
C22 C 0.6724(4) 0.1227(3) 0.2501(3)
H16 H 0.6957 0.0962 0.2124
C23 C 0.5856(4) 0.2065(3) 0.1675(3)
C24 C 0.6864(3) 0.1199(3) 0.4455(2)
N5 N 0.7508(3) 0.0711(2) 0.46420(17)
O8 O 0.5272(3) 0.2579(3) 0.1646(2)
O9 O 0.6192(5) 0.1763(4) 0.1174(3)
C25 C 0.7414(3) 0.3719(3) 0.2391(2)
C26 C 0.7156(4) 0.4169(3) 0.2953(3)
H17 H 0.6837 0.4623 0.2882
C27 C 0.7377(4) 0.3942(3) 0.3623(3)
H18 H 0.7209 0.4249 0.3996
C28 C 0.7846(3) 0.3257(3) 0.3738(2)
C29 C 0.7894(4) 0.3039(3) 0.2508(2)
H19 H 0.8079 0.2741 0.2135
C30 C 0.8097(3) 0.2805(3) 0.3172(2)
H20 H 0.8403 0.2344 0.3242
C31 C 0.7209(3) 0.3991(3) 0.1670(2)
C32 C 0.8077(3) 0.3056(3) 0.4458(2)
N6 N 0.8748(3) 0.2606(2) 0.46446(19)
O10 O 0.6596(3) 0.4499(2) 0.16184(18)
O11 O 0.7661(3) 0.3746(3) 0.1186(2)
Zn3 Zn 0.85655(3) 0.01882(3) 0.41766(2)
Zn4 Zn 0.97294(4) 0.19743(3) 0.41707(3)
O12 O 0.9232(3) 0.1036(2) 0.37909(19)
H21 H 0.9369 0.0914 0.3395
H22 H 0.9574 0.0832 0.4065
Zn5 Zn 0.64345(3) 0.51882(3) 0.91766(2)
Zn6 Zn 0.64345(3) 0.51882(3) 0.08234(2)
Zn7 Zn 0.47294(4) 0.30257(3) 0.91707(3)
Zn8 Zn 0.47294(4) 0.30257(3) 0.08293(3)
O6 O 0.9129(3) 0.9770(3) 0.5000
H11 H 0.9651 0.9644 0.5000
O15 O 0.8404(3) 0.9499(2) 0.66184(18)
O16 O 0.8404(3) 0.9499(2) 0.33816(18)
O6_2 O 0.0871(3) 0.0230(3) 0.5000
H11_2 H 0.0349 0.0356 0.5000
O15_2 O 0.1596(3) 0.0501(2) 0.66184(18)
O16_2 O 0.1596(3) 0.0501(2) 0.33816(18)
Zn1_2 Zn 0.14345(3) 0.98118(3) 0.58234(2)
Zn2_2 Zn 0.02706(4) 0.80257(3) 0.58293(3)
C1_2 C 0.3865(4) 0.8170(3) 0.7606(2)
C2_2 C 0.4210(4) 0.7788(4) 0.7040(3)
H1_2 H 0.4609 0.7385 0.7105
C3_2 C 0.3966(4) 0.8001(4) 0.6369(3)
H2_2 H 0.4203 0.7740 0.5992
C4_2 C 0.3371(3) 0.8604(3) 0.6266(2)
C5_2 C 0.3029(3) 0.8988(3) 0.6834(2)
H3_2 H 0.2631 0.9392 0.6771
C6_2 C 0.3276(4) 0.8773(3) 0.7499(3)
H4_2 H 0.3043 0.9038 0.7876
C7_2 C 0.4144(4) 0.7935(3) 0.8325(3)
C8_2 C 0.3136(3) 0.8801(3) 0.5545(2)
C9_2 C 0.2586(3) 0.6281(3) 0.7609(2)
C10_2 C 0.2844(4) 0.5831(3) 0.7047(3)
H5_2 H 0.3163 0.5377 0.7118
C11_2 C 0.2623(4) 0.6058(3) 0.6377(3)
H6_2 H 0.2791 0.5751 0.6004
C12_2 C 0.2154(3) 0.6743(3) 0.6262(2)
C13_2 C 0.2106(4) 0.6961(3) 0.7492(2)
H7_2 H 0.1921 0.7259 0.7865
C14_2 C 0.1903(3) 0.7195(3) 0.6828(2)
H8_2 H 0.1597 0.7656 0.6758
C15_2 C 0.2791(3) 0.6009(3) 0.8330(2)
C16_2 C 0.1923(3) 0.6944(3) 0.5542(2)
N1_2 N 0.2492(3) 0.9289(2) 0.53580(17)
N2_2 N 0.3558(4) 0.8485(4) 0.5000
N3_2 N 0.1252(3) 0.7394(2) 0.53554(19)
N4_2 N 0.2353(4) 0.6645(4) 0.5000
O1_2 O 0.4728(3) 0.7421(3) 0.8354(2)
O2_2 O 0.0768(3) 0.8964(2) 0.62091(19)
H9_2 H 0.0631 0.9086 0.6605
H10_2 H 0.0426 0.9168 0.5935
O3_2 O 0.3808(5) 0.8237(4) 0.8826(3)
O4_2 O 0.3404(3) 0.5501(2) 0.83816(18)
O5_2 O 0.2339(3) 0.6254(3) 0.8814(2)
C17_2 C 0.3865(4) 0.8170(3) 0.2394(2)
C18_2 C 0.4210(4) 0.7788(4) 0.2960(3)
H13_2 H 0.4609 0.7385 0.2895
C19_2 C 0.3966(4) 0.8001(4) 0.3631(3)
H14_2 H 0.4203 0.7740 0.4008
C20_2 C 0.3371(3) 0.8604(3) 0.3734(2)
C21_2 C 0.3029(3) 0.8988(3) 0.3166(2)
H15_2 H 0.2631 0.9392 0.3229
C22_2 C 0.3276(4) 0.8773(3) 0.2501(3)
H16_2 H 0.3043 0.9038 0.2124
C23_2 C 0.4144(4) 0.7935(3) 0.1675(3)
C24_2 C 0.3136(3) 0.8801(3) 0.4455(2)
N5_2 N 0.2492(3) 0.9289(2) 0.46420(17)
O8_2 O 0.4728(3) 0.7421(3) 0.1646(2)
O9_2 O 0.3808(5) 0.8237(4) 0.1174(3)
C25_2 C 0.2586(3) 0.6281(3) 0.2391(2)
C26_2 C 0.2844(4) 0.5831(3) 0.2953(3)
H17_2 H 0.3163 0.5377 0.2882
C27_2 C 0.2623(4) 0.6058(3) 0.3623(3)
H18_2 H 0.2791 0.5751 0.3996
C28_2 C 0.2154(3) 0.6743(3) 0.3738(2)
C29_2 C 0.2106(4) 0.6961(3) 0.2508(2)
H19_2 H 0.1921 0.7259 0.2135
C30_2 C 0.1903(3) 0.7195(3) 0.3172(2)
H20_2 H 0.1597 0.7656 0.3242
C31_2 C 0.2791(3) 0.6009(3) 0.1670(2)
C32_2 C 0.1923(3) 0.6944(3) 0.4458(2)
N6_2 N 0.1252(3) 0.7394(2) 0.46446(19)
O10_2 O 0.3404(3) 0.5501(2) 0.16184(18)
O11_2 O 0.2339(3) 0.6254(3) 0.1186(2)
Zn3_2 Zn 0.14345(3) 0.98118(3) 0.41766(2)
Zn4_2 Zn 0.02706(4) 0.80257(3) 0.41707(3)
O12_2 O 0.0768(3) 0.8964(2) 0.37909(19)
H21_2 H 0.0631 0.9086 0.3395
H22_2 H 0.0426 0.9168 0.4065
Zn5_2 Zn 0.35655(3) 0.48118(3) 0.91766(2)
Zn6_2 Zn 0.35655(3) 0.48118(3) 0.08234(2)
Zn7_2 Zn 0.52706(4) 0.69743(3) 0.91707(3)
Zn8_2 Zn 0.52706(4) 0.69743(3) 0.08293(3)
O7_2 O 0.9585(3) 0.8232(3) 0.5000
H12_2 H 0.9068 0.8093 0.5000
O13_2 O 0.9728(3) 0.7579(3) 0.6646(2)
O14_2 O 0.9728(3) 0.7579(3) 0.3354(2)
N2_3 N 0.8558(4) 0.6515(4) -0.0000
N4_3 N 0.7353(4) 0.8355(4) -0.0000
O6_3 O 0.5871(3) 0.4770(3) -0.0000
H11_3 H 0.5349 0.4644 -0.0000
O7_3 O 0.4585(3) 0.6768(3) -0.0000
H12_3 H 0.4068 0.6907 -0.0000
C17_3 C 0.8865(4) 0.6830(3) 0.2606(2)
C18_3 C 0.9210(4) 0.7212(4) 0.2040(3)
H13_3 H 0.9609 0.7615 0.2105
C19_3 C 0.8966(4) 0.6999(4) 0.1369(3)
H14_3 H 0.9203 0.7260 0.0992
C20_3 C 0.8371(3) 0.6396(3) 0.1266(2)
C21_3 C 0.8029(3) 0.6012(3) 0.1834(2)
H15_3 H 0.7631 0.5608 0.1771
C22_3 C 0.8276(4) 0.6227(3) 0.2499(3)
H16_3 H 0.8043 0.5962 0.2876
C23_3 C 0.9144(4) 0.7065(3) 0.3325(3)
C24_3 C 0.8136(3) 0.6199(3) 0.0545(2)
N5_3 N 0.7492(3) 0.5711(2) 0.03580(17)
O9_3 O 0.8808(5) 0.6763(4) 0.3826(3)
C25_3 C 0.7586(3) 0.8719(3) 0.2609(2)
C26_3 C 0.7844(4) 0.9169(3) 0.2047(3)
H17_3 H 0.8163 0.9623 0.2118
C27_3 C 0.7623(4) 0.8942(3) 0.1377(3)
H18_3 H 0.7791 0.9249 0.1004
C28_3 C 0.7154(3) 0.8257(3) 0.1262(2)
C29_3 C 0.7106(4) 0.8039(3) 0.2492(2)
H19_3 H 0.6921 0.7741 0.2865
C30_3 C 0.6903(3) 0.7805(3) 0.1828(2)
H20_3 H 0.6597 0.7344 0.1758
C31_3 C 0.7791(3) 0.8991(3) 0.3330(2)
C32_3 C 0.6923(3) 0.8056(3) 0.0542(2)
N6_3 N 0.6252(3) 0.7606(2) 0.03554(19)
O11_3 O 0.7339(3) 0.8746(3) 0.3814(2)
O12_3 O 0.5768(3) 0.6036(2) 0.12091(19)
H21_3 H 0.5631 0.5914 0.1605
H22_3 H 0.5426 0.5832 0.0935
C1_3 C 0.8865(4) 0.6830(3) 0.7394(2)
C2_3 C 0.9210(4) 0.7212(4) 0.7960(3)
H1_3 H 0.9609 0.7615 0.7895
C3_3 C 0.8966(4) 0.6999(4) 0.8631(3)
H2_3 H 0.9203 0.7260 0.9008
C4_3 C 0.8371(3) 0.6396(3) 0.8734(2)
C5_3 C 0.8029(3) 0.6012(3) 0.8166(2)
H3_3 H 0.7631 0.5608 0.8229
C6_3 C 0.8276(4) 0.6227(3) 0.7501(3)
H4_3 H 0.8043 0.5962 0.7124
C7_3 C 0.9144(4) 0.7065(3) 0.6675(3)
C8_3 C 0.8136(3) 0.6199(3) 0.9455(2)
C9_3 C 0.7586(3) 0.8719(3) 0.7391(2)
C10_3 C 0.7844(4) 0.9169(3) 0.7953(3)
H5_3 H 0.8163 0.9623 0.7882
C11_3 C 0.7623(4) 0.8942(3) 0.8623(3)
H6_3 H 0.7791 0.9249 0.8996
C12_3 C 0.7154(3) 0.8257(3) 0.8738(2)
C13_3 C 0.7106(4) 0.8039(3) 0.7508(2)
H7_3 H 0.6921 0.7741 0.7135
C14_3 C 0.6903(3) 0.7805(3) 0.8172(2)
H8_3 H 0.6597 0.7344 0.8242
C15_3 C 0.7791(3) 0.8991(3) 0.6670(2)
C16_3 C 0.6923(3) 0.8056(3) 0.9458(2)
N1_3 N 0.7492(3) 0.5711(2) 0.96420(17)
N2_4 N 0.8558(4) 0.6515(4) 1.0000
N3_3 N 0.6252(3) 0.7606(2) 0.96446(19)
N4_4 N 0.7353(4) 0.8355(4) 1.0000
O2_3 O 0.5768(3) 0.6036(2) 0.87909(19)
H9_3 H 0.5631 0.5914 0.8395
H10_3 H 0.5426 0.5832 0.9065
O3_3 O 0.8808(5) 0.6763(4) 0.6174(3)
O5_3 O 0.7339(3) 0.8746(3) 0.6186(2)
O6_4 O 0.5871(3) 0.4770(3) 1.0000
H11_4 H 0.5349 0.4644 1.0000
O7_4 O 0.4585(3) 0.6768(3) 1.0000
H12_4 H 0.4068 0.6907 1.0000
N2_5 N 0.1442(4) 0.3485(4) -0.0000
N4_5 N 0.2647(4) 0.1645(4) -0.0000
O6_5 O 0.4129(3) 0.5230(3) -0.0000
H11_5 H 0.4651 0.5356 -0.0000
O7_5 O 0.5415(3) 0.3232(3) -0.0000
H12_5 H 0.5932 0.3093 -0.0000
C17_4 C 0.1135(4) 0.3170(3) 0.2606(2)
C18_4 C 0.0790(4) 0.2788(4) 0.2040(3)
H13_4 H 0.0391 0.2385 0.2105
C19_4 C 0.1034(4) 0.3001(4) 0.1369(3)
H14_4 H 0.0797 0.2740 0.0992
C20_4 C 0.1629(3) 0.3604(3) 0.1266(2)
C21_4 C 0.1971(3) 0.3988(3) 0.1834(2)
H15_4 H 0.2369 0.4392 0.1771
C22_4 C 0.1724(4) 0.3773(3) 0.2499(3)
H16_4 H 0.1957 0.4038 0.2876
C23_4 C 0.0856(4) 0.2935(3) 0.3325(3)
C24_4 C 0.1864(3) 0.3801(3) 0.0545(2)
N5_4 N 0.2508(3) 0.4289(2) 0.03580(17)
O9_4 O 0.1192(5) 0.3237(4) 0.3826(3)
C25_4 C 0.2414(3) 0.1281(3) 0.2609(2)
C26_4 C 0.2156(4) 0.0831(3) 0.2047(3)
H17_4 H 0.1837 0.0377 0.2118
C27_4 C 0.2377(4) 0.1058(3) 0.1377(3)
H18_4 H 0.2209 0.0751 0.1004
C28_4 C 0.2846(3) 0.1743(3) 0.1262(2)
C29_4 C 0.2894(4) 0.1961(3) 0.2492(2)
H19_4 H 0.3079 0.2259 0.2865
C30_4 C 0.3097(3) 0.2195(3) 0.1828(2)
H20_4 H 0.3403 0.2656 0.1758
C31_4 C 0.2209(3) 0.1009(3) 0.3330(2)
C32_4 C 0.3077(3) 0.1944(3) 0.0542(2)
N6_4 N 0.3748(3) 0.2394(2) 0.03554(19)
O11_4 O 0.2661(3) 0.1254(3) 0.3814(2)
O12_4 O 0.4232(3) 0.3964(2) 0.12091(19)
H21_4 H 0.4369 0.4086 0.1605
H22_4 H 0.4574 0.4168 0.0935
C1_4 C 0.1135(4) 0.3170(3) 0.7394(2)
C2_4 C 0.0790(4) 0.2788(4) 0.7960(3)
H1_4 H 0.0391 0.2385 0.7895
C3_4 C 0.1034(4) 0.3001(4) 0.8631(3)
H2_4 H 0.0797 0.2740 0.9008
C4_4 C 0.1629(3) 0.3604(3) 0.8734(2)
C5_4 C 0.1971(3) 0.3988(3) 0.8166(2)
H3_4 H 0.2369 0.4392 0.8229
C6_4 C 0.1724(4) 0.3773(3) 0.7501(3)
H4_4 H 0.1957 0.4038 0.7124
C7_4 C 0.0856(4) 0.2935(3) 0.6675(3)
C8_4 C 0.1864(3) 0.3801(3) 0.9455(2)
C9_4 C 0.2414(3) 0.1281(3) 0.7391(2)
C10_4 C 0.2156(4) 0.0831(3) 0.7953(3)
H5_4 H 0.1837 0.0377 0.7882
C11_4 C 0.2377(4) 0.1058(3) 0.8623(3)
H6_4 H 0.2209 0.0751 0.8996
C12_4 C 0.2846(3) 0.1743(3) 0.8738(2)
C13_4 C 0.2894(4) 0.1961(3) 0.7508(2)
H7_4 H 0.3079 0.2259 0.7135
C14_4 C 0.3097(3) 0.2195(3) 0.8172(2)
H8_4 H 0.3403 0.2656 0.8242
C15_4 C 0.2209(3) 0.1009(3) 0.6670(2)
C16_4 C 0.3077(3) 0.1944(3) 0.9458(2)
N1_4 N 0.2508(3) 0.4289(2) 0.96420(17)
N2_6 N 0.1442(4) 0.3485(4) 1.0000
N3_4 N 0.3748(3) 0.2394(2) 0.96446(19)
N4_6 N 0.2647(4) 0.1645(4) 1.0000
O2_4 O 0.4232(3) 0.3964(2) 0.87909(19)
H9_4 H 0.4369 0.4086 0.8395
H10_4 H 0.4574 0.4168 0.9065
O3_4 O 0.1192(5) 0.3237(4) 0.6174(3)
O5_4 O 0.2661(3) 0.1254(3) 0.6186(2)
O6_6 O 0.4129(3) 0.5230(3) 1.0000
H11_6 H 0.4651 0.5356 1.0000
O7_6 O 0.5415(3) 0.3232(3) 1.0000
H12_6 H 0.5932 0.3093 1.0000
loop_
_geom_bond_atom_site_label_1
_geom_bond_atom_site_label_2
_geom_bond_site_symmetry_1
_geom_bond_site_symmetry_2
H12 O7 1_555 1_555
Zn1 N1 1_555 1_555
Zn2 N3 1_555 1_555
C1 C2 1_555 1_555
C2 H1 1_555 1_555
C3 C2 1_555 1_555
H2 C3 1_555 1_555
C4 C3 1_555 1_555
C5 C4 1_555 1_555
H3 C5 1_555 1_555
C6 C1 1_555 1_555
H4 C6 1_555 1_555
C7 C1 1_555 1_555
C8 C4 1_555 1_555
C9 C10 1_555 1_555
C10 H5 1_555 1_555
C11 C10 1_555 1_555
H6 C11 1_555 1_555
C12 C11 1_555 1_555
C13 C9 1_555 1_555
H7 C13 1_555 1_555
C14 C12 1_555 1_555
H8 C14 1_555 1_555
C15 C9 1_555 1_555
C16 C12 1_555 1_555
N1 C8 1_555 1_555
N2 C8 1_555 1_555
N3 C16 1_555 1_555
N4 C16 1_555 1_555
O1 C7 1_555 1_555
O2 Zn1 1_555 1_555
H9 O2 1_555 1_555
H10 O2 1_555 1_555
O3 C7 1_555 1_555
O4 C15 1_555 1_555
O5 C15 1_555 1_555
C17 C18 1_555 1_555
C18 H13 1_555 1_555
C19 C18 1_555 1_555
H14 C19 1_555 1_555
C20 C19 1_555 1_555
C21 C20 1_555 1_555
H15 C21 1_555 1_555
C22 C17 1_555 1_555
H16 C22 1_555 1_555
C23 C17 1_555 1_555
C24 N2 1_555 1_555
N5 N1 1_555 1_555
O8 C23 1_555 1_555
O9 C23 1_555 1_555
C25 C26 1_555 1_555
C26 H17 1_555 1_555
C27 C26 1_555 1_555
H18 C27 1_555 1_555
C28 C27 1_555 1_555
C29 C25 1_555 1_555
H19 C29 1_555 1_555
C30 C28 1_555 1_555
H20 C30 1_555 1_555
C31 C25 1_555 1_555
C32 N4 1_555 1_555
N6 N3 1_555 1_555
O10 C31 1_555 1_555
O11 C31 1_555 1_555
O12 Zn3 1_555 1_555
H21 O12 1_555 1_555
H22 O12 1_555 1_555
Zn5 O4 1_555 1_555
Zn6 O10 1_555 1_555
Zn7 O1 1_555 1_555
Zn8 O8 1_555 1_555
Zn2 O2 1_555 1_555
C5 C6 1_555 1_555
C13 C14 1_555 1_555
C20 C24 1_555 1_555
C21 C22 1_555 1_555
C24 N5 1_555 1_555
N5 Zn3 1_555 1_555
C28 C32 1_555 1_555
C29 C30 1_555 1_555
C32 N6 1_555 1_555
N6 Zn4 1_555 1_555
Zn4 O12 1_555 1_555
H11 O6 1_555 1_555
H11_2 O6_2 1_555 1_555
Zn1_2 N1_2 1_555 1_555
Zn2_2 N3_2 1_555 1_555
C1_2 C2_2 1_555 1_555
C2_2 H1_2 1_555 1_555
C3_2 C2_2 1_555 1_555
H2_2 C3_2 1_555 1_555
C4_2 C3_2 1_555 1_555
C5_2 C4_2 1_555 1_555
H3_2 C5_2 1_555 1_555
C6_2 C1_2 1_555 1_555
H4_2 C6_2 1_555 1_555
C7_2 C1_2 1_555 1_555
C8_2 C4_2 1_555 1_555
C9_2 C10_2 1_555 1_555
C10_2 H5_2 1_555 1_555
C11_2 C10_2 1_555 1_555
H6_2 C11_2 1_555 1_555
C12_2 C11_2 1_555 1_555
C13_2 C9_2 1_555 1_555
H7_2 C13_2 1_555 1_555
C14_2 C12_2 1_555 1_555
H8_2 C14_2 1_555 1_555
C15_2 C9_2 1_555 1_555
C16_2 C12_2 1_555 1_555
N1_2 C8_2 1_555 1_555
N2_2 C8_2 1_555 1_555
N3_2 C16_2 1_555 1_555
N4_2 C16_2 1_555 1_555
O1_2 C7_2 1_555 1_555
O2_2 Zn1_2 1_555 1_555
H9_2 O2_2 1_555 1_555
H10_2 O2_2 1_555 1_555
O3_2 C7_2 1_555 1_555
O4_2 C15_2 1_555 1_555
O5_2 C15_2 1_555 1_555
C17_2 C18_2 1_555 1_555
C18_2 H13_2 1_555 1_555
C19_2 C18_2 1_555 1_555
H14_2 C19_2 1_555 1_555
C20_2 C19_2 1_555 1_555
C21_2 C20_2 1_555 1_555
H15_2 C21_2 1_555 1_555
C22_2 C17_2 1_555 1_555
H16_2 C22_2 1_555 1_555
C23_2 C17_2 1_555 1_555
C24_2 N2_2 1_555 1_555
N5_2 N1_2 1_555 1_555
O8_2 C23_2 1_555 1_555
O9_2 C23_2 1_555 1_555
C25_2 C26_2 1_555 1_555
C26_2 H17_2 1_555 1_555
C27_2 C26_2 1_555 1_555
H18_2 C27_2 1_555 1_555
C28_2 C27_2 1_555 1_555
C29_2 C25_2 1_555 1_555
H19_2 C29_2 1_555 1_555
C30_2 C28_2 1_555 1_555
H20_2 C30_2 1_555 1_555
C31_2 C25_2 1_555 1_555
C32_2 N4_2 1_555 1_555
N6_2 N3_2 1_555 1_555
O10_2 C31_2 1_555 1_555
O11_2 C31_2 1_555 1_555
O12_2 Zn3_2 1_555 1_555
H21_2 O12_2 1_555 1_555
H22_2 O12_2 1_555 1_555
Zn5_2 O4_2 1_555 1_555
Zn6_2 O10_2 1_555 1_555
Zn7_2 O1_2 1_555 1_555
Zn8_2 O8_2 1_555 1_555
Zn2_2 O2_2 1_555 1_555
C5_2 C6_2 1_555 1_555
C13_2 C14_2 1_555 1_555
C20_2 C24_2 1_555 1_555
C21_2 C22_2 1_555 1_555
C24_2 N5_2 1_555 1_555
N5_2 Zn3_2 1_555 1_555
C28_2 C32_2 1_555 1_555
C29_2 C30_2 1_555 1_555
C32_2 N6_2 1_555 1_555
N6_2 Zn4_2 1_555 1_555
Zn4_2 O12_2 1_555 1_555
H12_2 O7_2 1_555 1_555
H11_3 O6_3 1_555 1_555
H12_3 O7_3 1_555 1_555
C17_3 C18_3 1_555 1_555
C18_3 H13_3 1_555 1_555
C19_3 C18_3 1_555 1_555
H14_3 C19_3 1_555 1_555
C20_3 C19_3 1_555 1_555
C21_3 C20_3 1_555 1_555
H15_3 C21_3 1_555 1_555
C22_3 C17_3 1_555 1_555
H16_3 C22_3 1_555 1_555
C23_3 C17_3 1_555 1_555
C24_3 N2_3 1_555 1_555
O14_2 C23_3 1_555 1_555
O9_3 C23_3 1_555 1_555
C25_3 C26_3 1_555 1_555
C26_3 H17_3 1_555 1_555
C27_3 C26_3 1_555 1_555
H18_3 C27_3 1_555 1_555
C28_3 C27_3 1_555 1_555
C29_3 C25_3 1_555 1_555
H19_3 C29_3 1_555 1_555
C30_3 C28_3 1_555 1_555
H20_3 C30_3 1_555 1_555
C31_3 C25_3 1_555 1_555
C32_3 N4_3 1_555 1_555
O16 C31_3 1_555 1_555
O11_3 C31_3 1_555 1_555
Zn6 O6_3 1_555 1_555
Zn8_2 O7_3 1_555 1_555
O12_3 Zn6 1_555 1_555
H21_3 O12_3 1_555 1_555
H22_3 O12_3 1_555 1_555
C20_3 C24_3 1_555 1_555
C21_3 C22_3 1_555 1_555
C24_3 N5_3 1_555 1_555
N5_3 Zn6 1_555 1_555
C28_3 C32_3 1_555 1_555
C29_3 C30_3 1_555 1_555
C32_3 N6_3 1_555 1_555
N6_3 Zn8_2 1_555 1_555
Zn8_2 O12_3 1_555 1_555
Zn5 N1_3 1_555 1_555
Zn7_2 N3_3 1_555 1_555
C1_3 C2_3 1_555 1_555
C2_3 H1_3 1_555 1_555
C3_3 C2_3 1_555 1_555
H2_3 C3_3 1_555 1_555
C4_3 C3_3 1_555 1_555
C5_3 C4_3 1_555 1_555
H3_3 C5_3 1_555 1_555
C6_3 C1_3 1_555 1_555
H4_3 C6_3 1_555 1_555
C7_3 C1_3 1_555 1_555
C8_3 C4_3 1_555 1_555
C9_3 C10_3 1_555 1_555
C10_3 H5_3 1_555 1_555
C11_3 C10_3 1_555 1_555
H6_3 C11_3 1_555 1_555
C12_3 C11_3 1_555 1_555
C13_3 C9_3 1_555 1_555
H7_3 C13_3 1_555 1_555
C14_3 C12_3 1_555 1_555
H8_3 C14_3 1_555 1_555
C15_3 C9_3 1_555 1_555
C16_3 C12_3 1_555 1_555
N1_3 C8_3 1_555 1_555
N2_4 C8_3 1_555 1_555
N3_3 C16_3 1_555 1_555
N4_4 C16_3 1_555 1_555
O13_2 C7_3 1_555 1_555
O2_3 Zn5 1_555 1_555
H9_3 O2_3 1_555 1_555
H10_3 O2_3 1_555 1_555
O3_3 C7_3 1_555 1_555
O15 C15_3 1_555 1_555
O5_3 C15_3 1_555 1_555
O6_4 Zn5 1_555 1_555
H11_4 O6_4 1_555 1_555
O7_4 Zn7_2 1_555 1_555
H12_4 O7_4 1_555 1_555
Zn7_2 O2_3 1_555 1_555
C5_3 C6_3 1_555 1_555
C13_3 C14_3 1_555 1_555
H11_5 O6_5 1_555 1_555
H12_5 O7_5 1_555 1_555
C17_4 C18_4 1_555 1_555
C18_4 H13_4 1_555 1_555
C19_4 C18_4 1_555 1_555
H14_4 C19_4 1_555 1_555
C20_4 C19_4 1_555 1_555
C21_4 C20_4 1_555 1_555
H15_4 C21_4 1_555 1_555
C22_4 C17_4 1_555 1_555
H16_4 C22_4 1_555 1_555
C23_4 C17_4 1_555 1_555
C24_4 N2_5 1_555 1_555
O14 C23_4 1_555 1_555
O9_4 C23_4 1_555 1_555
C25_4 C26_4 1_555 1_555
C26_4 H17_4 1_555 1_555
C27_4 C26_4 1_555 1_555
H18_4 C27_4 1_555 1_555
C28_4 C27_4 1_555 1_555
C29_4 C25_4 1_555 1_555
H19_4 C29_4 1_555 1_555
C30_4 C28_4 1_555 1_555
H20_4 C30_4 1_555 1_555
C31_4 C25_4 1_555 1_555
C32_4 N4_5 1_555 1_555
O16_2 C31_4 1_555 1_555
O11_4 C31_4 1_555 1_555
Zn6_2 O6_5 1_555 1_555
Zn8 O7_5 1_555 1_555
O12_4 Zn6_2 1_555 1_555
H21_4 O12_4 1_555 1_555
H22_4 O12_4 1_555 1_555
C20_4 C24_4 1_555 1_555
C21_4 C22_4 1_555 1_555
C24_4 N5_4 1_555 1_555
N5_4 Zn6_2 1_555 1_555
C28_4 C32_4 1_555 1_555
C29_4 C30_4 1_555 1_555
C32_4 N6_4 1_555 1_555
N6_4 Zn8 1_555 1_555
Zn8 O12_4 1_555 1_555
Zn5_2 N1_4 1_555 1_555
Zn7 N3_4 1_555 1_555
C1_4 C2_4 1_555 1_555
C2_4 H1_4 1_555 1_555
C3_4 C2_4 1_555 1_555
H2_4 C3_4 1_555 1_555
C4_4 C3_4 1_555 1_555
C5_4 C4_4 1_555 1_555
H3_4 C5_4 1_555 1_555
C6_4 C1_4 1_555 1_555
H4_4 C6_4 1_555 1_555
C7_4 C1_4 1_555 1_555
C8_4 C4_4 1_555 1_555
C9_4 C10_4 1_555 1_555
C10_4 H5_4 1_555 1_555
C11_4 C10_4 1_555 1_555
H6_4 C11_4 1_555 1_555
C12_4 C11_4 1_555 1_555
C13_4 C9_4 1_555 1_555
H7_4 C13_4 1_555 1_555
C14_4 C12_4 1_555 1_555
H8_4 C14_4 1_555 1_555
C15_4 C9_4 1_555 1_555
C16_4 C12_4 1_555 1_555
N1_4 C8_4 1_555 1_555
N2_6 C8_4 1_555 1_555
N3_4 C16_4 1_555 1_555
N4_6 C16_4 1_555 1_555
O13 C7_4 1_555 1_555
O2_4 Zn5_2 1_555 1_555
H9_4 O2_4 1_555 1_555
H10_4 O2_4 1_555 1_555
O3_4 C7_4 1_555 1_555
O15_2 C15_4 1_555 1_555
O5_4 C15_4 1_555 1_555
O6_6 Zn5_2 1_555 1_555
H11_6 O6_6 1_555 1_555
O7_6 Zn7 1_555 1_555
H12_6 O7_6 1_555 1_555
Zn7 O2_4 1_555 1_555
C5_4 C6_4 1_555 1_555
C13_4 C14_4 1_555 1_555

#END
