
###############################################################################
#
# This file contains modified crystal structure data generated from the
# MOF subset of the Cambridge Structural Database (CSD) v543 
# hosted by the Cambridge Crystallographic Data Centre (CCDC).
#
# This work is licensed under the Creative Commons
# Attribution-NonCommercial-ShareAlike 4.0 International License.
# To view a copy of this license, visit
# http://creativecommons.org/licenses/by-nc-sa/4.0/
# or send a letter to
# Creative Commons, PO Box 1866, Mountain View, CA 94042, USA.
#
# CIF created using the CSD Python API on 29 September 2022
# The structure has been converted into the P1 space group
# The structure has a 3D framework
# The original CSD entry VUQXUD is in the triclinic crystal system
# The framework has been calculated to contain at least 10.0% void space
# The void calculation uses a probe of radius 1.32A, grid spacing 0.4
#
###############################################################################

data_VUQXUD
_chemical_formula_moiety         '(C66 H52 N12 O18 Zn4)n'
_symmetry_cell_setting           triclinic
_symmetry_space_group_name_H-M   'P 1'
_symmetry_Int_Tables_number      1
_space_group_name_Hall           'P 1'
loop_
_symmetry_equiv_pos_site_id
_symmetry_equiv_pos_as_xyz
1 x,y,z
_cell_length_a                   9.1529(10)
_cell_length_b                   11.8036(12)
_cell_length_c                   18.2564(19)
_cell_angle_alpha                98.223(2)
_cell_angle_beta                 91.0830(10)
_cell_angle_gamma                102.808(2)
_cell_volume                     1900.9
loop_
_atom_site_label
_atom_site_type_symbol
_atom_site_fract_x
_atom_site_fract_y
_atom_site_fract_z
_atom_site_U_iso_or_equiv
_atom_site_thermal_displace_type
C38 C 0.1501(5) 0.0604(4) 0.5033(3) 0.0400 Uani
C39 C 0.0648(6) 0.0715(4) 0.5638(3) 0.0487 Uani
H29 H 0.1075 0.1196 0.6072 0.0580 Uiso
C41 C 0.3130(6) 0.1230(4) 0.5066(3) 0.0412 Uani
O12 O 0.3980(4) 0.0894(3) 0.46137(19) 0.0498 Uani
O13 O 0.3546(3) 0.2100(3) 0.5584(2) 0.0537 Uani
Zn9 Zn 0.57581(6) 0.24949(5) 0.56545(3) 0.0378 Uani
C26 C 0.6066(5) 0.9666(4) 0.0425(3) 0.0356 Uani
C29 C 0.7207(5) 0.9317(4) 0.0888(3) 0.0378 Uani
O5 O 0.8233(4) 0.8919(3) 0.05461(18) 0.0466 Uani
O6 O 0.7173(4) 0.9448(3) 0.15733(19) 0.0522 Uani
Zn1 Zn 0.99766(6) 0.89246(5) 0.12097(3) 0.0322 Uani
N16 N 0.9502(4) 0.7909(3) 0.1992(2) 0.0364 Uani
C42 C 0.8030(5) 0.2991(4) 0.1370(3) 0.0349 Uani
C43 C 0.8358(5) 0.2283(4) 0.1853(3) 0.0363 Uani
H31 H 0.8655 0.1596 0.1673 0.0440 Uiso
C44 C 0.8249(5) 0.2584(4) 0.2606(3) 0.0333 Uani
C45 C 0.7811(5) 0.3613(4) 0.2869(3) 0.0371 Uani
H32 H 0.7747 0.3831 0.3375 0.0440 Uiso
C46 C 0.7470(5) 0.4312(4) 0.2375(3) 0.0372 Uani
C47 C 0.7573(5) 0.4006(4) 0.1627(3) 0.0414 Uani
H33 H 0.7338 0.4479 0.1297 0.0500 Uiso
C48 C 0.7305(6) 0.2945(5) 0.0044(3) 0.0596 Uani
H34 H 0.6577 0.3384 0.0102 0.0720 Uiso
C50 C 0.9050(5) 0.2020(4) 0.0268(2) 0.0343 Uani
H36 H 0.9717 0.1709 0.0524 0.0410 Uiso
C51 C 0.8645(6) 0.1774(4) 0.3108(3) 0.0454 Uani
H37 H 0.9683 0.1732 0.3048 0.0540 Uiso
H38 H 0.8025 0.0991 0.2956 0.0540 Uiso
C52 C 0.9460(6) 0.2911(5) 0.4372(3) 0.0501 Uani
C53 C 0.8745(6) 0.3111(5) 0.4999(3) 0.0505 Uani
H40 H 0.9174 0.3602 0.5430 0.0610 Uiso
C54 C 0.7153(5) 0.1914(4) 0.4226(3) 0.0377 Uani
H41 H 0.6272 0.1415 0.4010 0.0450 Uiso
C55 C 0.7075(6) 0.5468(4) 0.2664(3) 0.0444 Uani
H42 H 0.6938 0.5514 0.3193 0.0530 Uiso
H43 H 0.6137 0.5505 0.2423 0.0530 Uiso
C56 C 0.9676(7) 0.6742(5) 0.2821(3) 0.0610 Uani
C58 C 0.8207(6) 0.7164(4) 0.2033(3) 0.0405 Uani
H46 H 0.7351 0.7138 0.1742 0.0480 Uiso
N8 N 0.8132(4) 0.2667(3) 0.0588(2) 0.0386 Uani
N9 N 0.7296(4) 0.2483(3) 0.4905(2) 0.0351 Uani
N10 N 0.8440(4) 0.2147(3) 0.3887(2) 0.0365 Uani
N12 N 0.8254(5) 0.6462(3) 0.2528(2) 0.0385 Uani
C59 C 0.7492(5) 0.8025(4) 0.7598(3) 0.0342 Uani
C60 C 0.7825(5) 0.7068(4) 0.7861(3) 0.0463 Uani
H47 H 0.8331 0.7167 0.8321 0.0560 Uiso
C61 C 0.7408(6) 0.5956(4) 0.7442(3) 0.0461 Uani
H48 H 0.7606 0.5310 0.7630 0.0560 Uiso
C62 C 0.6703(5) 0.5806(4) 0.6750(3) 0.0389 Uani
C63 C 0.6356(5) 0.6760(4) 0.6490(3) 0.0464 Uani
H49 H 0.5859 0.6664 0.6028 0.0560 Uiso
C64 C 0.6747(5) 0.7860(4) 0.6916(3) 0.0430 Uani
H50 H 0.6503 0.8498 0.6738 0.0520 Uiso
C65 C 0.8058(5) 0.9242(4) 0.8012(3) 0.0367 Uani
C66 C 0.6329(5) 0.4627(5) 0.6269(3) 0.0446 Uani
O15 O 0.9169(3) 0.9393(3) 0.84788(17) 0.0404 Uani
O16 O 0.5851(4) 0.4523(3) 0.5623(2) 0.0589 Uani
O17 O 0.6494(4) 0.3750(3) 0.65536(19) 0.0531 Uani
O18 O 0.6075(4) 0.1166(3) 0.61839(17) 0.0505 Uani
H51 H 0.5432 0.1041 0.6522 0.0760 Uiso
H52 H 0.5866 0.0512 0.5879 0.0760 Uiso
C40 C 0.0846(6) 0.9884(4) 0.4390(3) 0.0470 Uani
H30 H 0.1410 0.9801 0.3975 0.0560 Uiso
C32 C 0.9154(6) 0.0116(4) 0.5610(3) 0.0470 Uani
H24 H 0.8590 0.0199 0.6025 0.0560 Uiso
C18 C 0.2508(5) 0.1975(4) 0.2402(3) 0.0342 Uani
C19 C 0.2175(5) 0.2932(4) 0.2139(3) 0.0463 Uani
H17 H 0.1669 0.2833 0.1679 0.0560 Uiso
C20 C 0.2592(6) 0.4044(4) 0.2558(3) 0.0461 Uani
H18 H 0.2394 0.4690 0.2370 0.0560 Uiso
C21 C 0.3297(5) 0.4194(4) 0.3250(3) 0.0389 Uani
C22 C 0.3644(5) 0.3240(4) 0.3510(3) 0.0464 Uani
H19 H 0.4141 0.3336 0.3972 0.0560 Uiso
C23 C 0.3253(5) 0.2140(4) 0.3084(3) 0.0430 Uani
H20 H 0.3497 0.1502 0.3262 0.0520 Uiso
C24 C 0.1942(5) 0.0758(4) 0.1988(3) 0.0367 Uani
C25 C 0.3671(5) 0.5373(5) 0.3731(3) 0.0446 Uani
C30 C 0.8499(5) 0.9396(4) 0.4967(3) 0.0400 Uani
C31 C 0.9352(6) 0.9285(4) 0.4362(3) 0.0487 Uani
H23 H 0.8925 0.8804 0.3928 0.0580 Uiso
C33 C 0.6870(6) 0.8770(4) 0.4934(3) 0.0412 Uani
O2 O 0.0831(3) 0.0607(3) 0.15212(17) 0.0404 Uani
O3 O 0.4149(4) 0.5477(3) 0.4377(2) 0.0589 Uani
O4 O 0.3506(4) 0.6250(3) 0.34464(19) 0.0531 Uani
O7 O 0.6020(4) 0.9106(3) 0.53863(19) 0.0498 Uani
O8 O 0.6454(3) 0.7900(3) 0.4416(2) 0.0537 Uani
O9 O 0.3925(4) 0.8834(3) 0.38161(17) 0.0505 Uani
H25 H 0.4568 0.8959 0.3478 0.0760 Uiso
H26 H 0.4134 0.9488 0.4121 0.0760 Uiso
Zn2 Zn 0.42419(6) 0.75051(5) 0.43455(3) 0.0378 Uani
N13 N 0.2704(4) 0.7517(3) 0.5095(2) 0.0351 Uani
C1 C 0.1970(5) 0.7009(4) 0.8630(3) 0.0349 Uani
C2 C 0.1642(5) 0.7717(4) 0.8147(3) 0.0363 Uani
H1 H 0.1345 0.8404 0.8327 0.0440 Uiso
C3 C 0.1751(5) 0.7416(4) 0.7394(3) 0.0333 Uani
C4 C 0.2189(5) 0.6387(4) 0.7131(3) 0.0371 Uani
H2 H 0.2253 0.6169 0.6625 0.0440 Uiso
C5 C 0.2530(5) 0.5688(4) 0.7625(3) 0.0372 Uani
C6 C 0.2427(5) 0.5994(4) 0.8373(3) 0.0414 Uani
H3 H 0.2662 0.5521 0.8703 0.0500 Uiso
C7 C 0.2695(6) 0.7055(5) 0.9956(3) 0.0596 Uani
H4 H 0.3423 0.6616 0.9898 0.0720 Uiso
C9 C 0.0950(5) 0.7980(4) 0.9732(2) 0.0343 Uani
H6 H 0.0283 0.8291 0.9476 0.0410 Uiso
C10 C 0.1355(6) 0.8226(4) 0.6892(3) 0.0454 Uani
H7 H 0.0317 0.8268 0.6952 0.0540 Uiso
H8 H 0.1975 0.9009 0.7044 0.0540 Uiso
C11 C 0.0540(6) 0.7089(5) 0.5628(3) 0.0501 Uani
C12 C 0.1255(6) 0.6889(5) 0.5001(3) 0.0505 Uani
H10 H 0.0826 0.6398 0.4570 0.0610 Uiso
C13 C 0.2847(5) 0.8086(4) 0.5774(3) 0.0377 Uani
H11 H 0.3728 0.8585 0.5990 0.0450 Uiso
C14 C 0.2925(6) 0.4532(4) 0.7336(3) 0.0444 Uani
H12 H 0.3062 0.4486 0.6807 0.0530 Uiso
H13 H 0.3863 0.4495 0.7577 0.0530 Uiso
C15 C 0.0324(7) 0.3258(5) 0.7179(3) 0.0610 Uani
C17 C 0.1793(6) 0.2836(4) 0.7967(3) 0.0405 Uani
H16 H 0.2649 0.2862 0.8258 0.0480 Uiso
N2 N 0.1868(4) 0.7333(3) 0.9412(2) 0.0386 Uani
N4 N 0.1560(4) 0.7853(3) 0.6113(2) 0.0365 Uani
N5 N 0.0498(4) 0.2091(3) 0.8008(2) 0.0364 Uani
N6 N 0.1746(5) 0.3538(3) 0.7472(2) 0.0385 Uani
Zn6 Zn 0.00234(6) 0.10754(5) 0.87903(3) 0.0322 Uani
C34 C 0.3934(5) 0.0334(4) 0.9575(3) 0.0356 Uani
C37 C 0.2793(5) 0.0683(4) 0.9112(3) 0.0378 Uani
O10 O 0.1767(4) 0.1081(3) 0.94539(18) 0.0466 Uani
O11 O 0.2827(4) 0.0552(3) 0.84267(19) 0.0522 Uani
C8 C 0.2245(6) 0.7547(5) 0.0596(3) 0.0590 Uani
H5 H 0.2633 0.7510 0.1064 0.0700 Uiso
N1 N 0.1126(4) 0.8113(3) 0.0459(2) 0.0352 Uani
O1 O 0.2513(4) 0.9946(3) 0.21170(18) 0.0494 Uani
C35 C 0.5096(5) 0.0316(4) 0.0752(3) 0.0433 Uani
H27 H 0.5163 0.0538 0.1264 0.0520 Uiso
C36 C 0.4043(5) 0.0635(4) 0.0334(3) 0.0418 Uani
H28 H 0.3392 0.1060 0.0565 0.0500 Uiso
H39 H 0.0455 0.3233 0.4289 0.0600 Uiso
H44 H 0.0053 0.6390 0.3184 0.0730 Uiso
C57 C 0.0454(6) 0.7626(5) 0.2491(3) 0.0538 Uani
H45 H 0.1466 0.7983 0.2586 0.0640 Uiso
H9 H 0.9545 0.6767 0.5711 0.0600 Uiso
H14 H 0.9947 0.3610 0.6816 0.0730 Uiso
C16 C 0.9546(6) 0.2374(5) 0.7509(3) 0.0538 Uani
H15 H 0.8534 0.2017 0.7414 0.0640 Uiso
C27 C 0.4904(5) 0.9684(4) 0.9248(3) 0.0433 Uani
H21 H 0.4837 0.9462 0.8736 0.0520 Uiso
C28 C 0.5957(5) 0.9365(4) 0.9666(3) 0.0418 Uani
H22 H 0.6608 0.8940 0.9435 0.0500 Uiso
C49 C 0.7755(6) 0.2453(5) 0.9404(3) 0.0590 Uani
H35 H 0.7367 0.2490 0.8936 0.0700 Uiso
N7 N 0.8874(4) 0.1887(3) 0.9541(2) 0.0352 Uani
O14 O 0.7487(4) 0.0054(3) 0.78830(18) 0.0494 Uani
loop_
_atom_site_aniso_label
_atom_site_aniso_U_11
_atom_site_aniso_U_22
_atom_site_aniso_U_33
_atom_site_aniso_U_23
_atom_site_aniso_U_13
_atom_site_aniso_U_12
C38 0.035 0.031 0.051 -0.002 -0.002 0.007
C39 0.038 0.042 0.053 -0.018 -0.004 -0.002
C41 0.037 0.032 0.052 0.008 -0.008 0.002
O12 0.036 0.048 0.061 -0.001 0.0116 0.0053
O13 0.032 0.042 0.076 -0.018 -0.0005 0.0022
Zn9 0.0356 0.0379 0.0347 -0.002 0.002 0.0019
C26 0.025 0.043 0.039 0.011 0.001 0.005
C29 0.032 0.03 0.051 0.009 -0.007 0.005
O5 0.036 0.064 0.046 0.006 -0.0065 0.0265
O6 0.057 0.07 0.038 0.011 -0.0044 0.031
Zn1 0.0362 0.0311 0.0293 0.0007 -0.0021 0.0101
N16 0.037 0.042 0.034 0.012 0 0.013
C42 0.039 0.033 0.034 0.003 0.005 0.012
C43 0.039 0.034 0.037 0.001 0.003 0.013
C44 0.031 0.037 0.034 0.008 0.008 0.01
C45 0.048 0.036 0.028 0.004 0.012 0.011
C46 0.044 0.029 0.04 0.004 0.015 0.011
C47 0.054 0.04 0.037 0.011 0.011 0.021
C48 0.072 0.081 0.042 0.006 0 0.054
C50 0.039 0.036 0.031 0.004 0.001 0.016
C51 0.056 0.048 0.04 0.01 0.013 0.025
C52 0.033 0.068 0.048 0.013 0 0.006
C53 0.045 0.063 0.039 0.003 -0.005 0.006
C54 0.036 0.038 0.038 0.004 0.002 0.007
C55 0.062 0.036 0.041 0.01 0.02 0.019
C56 0.083 0.052 0.051 0.023 -0.017 0.014
C58 0.041 0.042 0.042 0.01 -0.003 0.015
N8 0.05 0.042 0.029 0.003 0 0.023
N9 0.029 0.043 0.031 0.007 0.0057 0.002
N10 0.037 0.041 0.035 0.009 0.005 0.014
N12 0.051 0.033 0.035 0.008 0.003 0.015
C59 0.035 0.031 0.036 0.002 0.002 0.008
C60 0.049 0.041 0.044 0.002 -0.012 0.004
C61 0.055 0.029 0.055 0.009 -0.008 0.01
C62 0.036 0.039 0.037 -0.001 -0.003 0.003
C63 0.05 0.046 0.04 0 -0.008 0.009
C64 0.047 0.034 0.047 -0.001 -0.004 0.012
C65 0.037 0.037 0.035 0.003 0.009 0.007
C66 0.03 0.046 0.052 0.003 0.003 -0.001
O15 0.042 0.0285 0.047 -0.0062 -0.0076 0.0085
O16 0.074 0.05 0.047 -0.008 -0.014 0.013
O17 0.074 0.028 0.052 -0.0043 -0.006 0.0074
O18 0.065 0.047 0.04 0.0057 0.014 0.0133
C40 0.036 0.049 0.049 -0.01 0.01 0.005
C32 0.036 0.049 0.049 -0.01 0.01 0.005
C18 0.035 0.031 0.036 0.002 0.002 0.008
C19 0.049 0.041 0.044 0.002 -0.012 0.004
C20 0.055 0.029 0.055 0.009 -0.008 0.01
C21 0.036 0.039 0.037 -0.001 -0.003 0.003
C22 0.05 0.046 0.04 0 -0.008 0.009
C23 0.047 0.034 0.047 -0.001 -0.004 0.012
C24 0.037 0.037 0.035 0.003 0.009 0.007
C25 0.03 0.046 0.052 0.003 0.003 -0.001
C30 0.035 0.031 0.051 -0.002 -0.002 0.007
C31 0.038 0.042 0.053 -0.018 -0.004 -0.002
C33 0.037 0.032 0.052 0.008 -0.008 0.002
O2 0.042 0.0285 0.047 -0.0062 -0.0076 0.0085
O3 0.074 0.05 0.047 -0.008 -0.014 0.013
O4 0.074 0.028 0.052 -0.0043 -0.006 0.0074
O7 0.036 0.048 0.061 -0.001 0.0116 0.0053
O8 0.032 0.042 0.076 -0.018 -0.0005 0.0022
O9 0.065 0.047 0.04 0.0057 0.014 0.0133
Zn2 0.0356 0.0379 0.0347 -0.002 0.002 0.0019
N13 0.029 0.043 0.031 0.007 0.0057 0.002
C1 0.039 0.033 0.034 0.003 0.005 0.012
C2 0.039 0.034 0.037 0.001 0.003 0.013
C3 0.031 0.037 0.034 0.008 0.008 0.01
C4 0.048 0.036 0.028 0.004 0.012 0.011
C5 0.044 0.029 0.04 0.004 0.015 0.011
C6 0.054 0.04 0.037 0.011 0.011 0.021
C7 0.072 0.081 0.042 0.006 0 0.054
C9 0.039 0.036 0.031 0.004 0.001 0.016
C10 0.056 0.048 0.04 0.01 0.013 0.025
C11 0.033 0.068 0.048 0.013 0 0.006
C12 0.045 0.063 0.039 0.003 -0.005 0.006
C13 0.036 0.038 0.038 0.004 0.002 0.007
C14 0.062 0.036 0.041 0.01 0.02 0.019
C15 0.083 0.052 0.051 0.023 -0.017 0.014
C17 0.041 0.042 0.042 0.01 -0.003 0.015
N2 0.05 0.042 0.029 0.003 0 0.023
N4 0.037 0.041 0.035 0.009 0.005 0.014
N5 0.037 0.042 0.034 0.012 0 0.013
N6 0.051 0.033 0.035 0.008 0.003 0.015
Zn6 0.0362 0.0311 0.0293 0.0007 -0.0021 0.0101
C34 0.025 0.043 0.039 0.011 0.001 0.005
C37 0.032 0.03 0.051 0.009 -0.007 0.005
O10 0.036 0.064 0.046 0.006 -0.0065 0.0265
O11 0.057 0.07 0.038 0.011 -0.0044 0.031
C8 0.066 0.078 0.045 0.008 -0.006 0.043
N1 0.033 0.044 0.03 0 0.0015 0.015
O1 0.055 0.033 0.06 0.003 -0.0058 0.0131
C35 0.045 0.058 0.032 0.011 0.002 0.02
C36 0.039 0.057 0.035 0.008 0.003 0.022
C57 0.052 0.05 0.057 0.01 -0.019 0.007
C16 0.052 0.05 0.057 0.01 -0.019 0.007
C27 0.045 0.058 0.032 0.011 0.002 0.02
C28 0.039 0.057 0.035 0.008 0.003 0.022
C49 0.066 0.078 0.045 0.008 -0.006 0.043
N7 0.033 0.044 0.03 0 0.0015 0.015
O14 0.055 0.033 0.06 0.003 -0.0058 0.0131
loop_
_geom_bond_atom_site_label_1
_geom_bond_atom_site_label_2
_geom_bond_site_symmetry_1
_geom_bond_site_symmetry_2
C38 C39 1_555 1_555
H29 C39 1_555 1_555
C41 C38 1_555 1_555
O12 C41 1_555 1_555
O13 C41 1_555 1_555
Zn9 O13 1_555 1_555
C29 C26 1_555 1_555
O5 C29 1_555 1_555
O6 C29 1_555 1_555
N16 Zn1 1_555 1_555
O5 Zn1 1_555 1_555
C42 C43 1_555 1_555
C43 H31 1_555 1_555
C44 C43 1_555 1_555
C45 C44 1_555 1_555
H32 C45 1_555 1_555
C46 C45 1_555 1_555
C47 C42 1_555 1_555
H33 C47 1_555 1_555
C48 H34 1_555 1_555
C50 H36 1_555 1_555
C51 C44 1_555 1_555
H37 C51 1_555 1_555
H38 C51 1_555 1_555
C53 C52 1_555 1_555
H40 C53 1_555 1_555
C54 H41 1_555 1_555
C55 C46 1_555 1_555
H42 C55 1_555 1_555
H43 C55 1_555 1_555
C58 H46 1_555 1_555
N8 C42 1_555 1_555
N9 C53 1_555 1_555
N10 C51 1_555 1_555
N12 C55 1_555 1_555
Zn9 N9 1_555 1_555
C46 C47 1_555 1_555
C48 N8 1_555 1_555
C50 N8 1_555 1_555
C52 N10 1_555 1_555
C54 N9 1_555 1_555
C54 N10 1_555 1_555
C56 N12 1_555 1_555
C58 N16 1_555 1_555
C58 N12 1_555 1_555
C59 C60 1_555 1_555
C60 H47 1_555 1_555
C61 C60 1_555 1_555
H48 C61 1_555 1_555
C62 C61 1_555 1_555
C63 C62 1_555 1_555
H49 C63 1_555 1_555
C64 C59 1_555 1_555
H50 C64 1_555 1_555
C65 C59 1_555 1_555
C66 C62 1_555 1_555
O15 C65 1_555 1_555
O16 C66 1_555 1_555
O17 C66 1_555 1_555
O18 H51 1_555 1_555
H52 O18 1_555 1_555
Zn9 O16 1_555 1_555
C63 C64 1_555 1_555
O17 Zn9 1_555 1_555
O18 Zn9 1_555 1_555
H30 C40 1_555 1_555
H24 C32 1_555 1_555
C18 C19 1_555 1_555
C19 H17 1_555 1_555
C20 C19 1_555 1_555
H18 C20 1_555 1_555
C21 C20 1_555 1_555
C22 C21 1_555 1_555
H19 C22 1_555 1_555
C23 C18 1_555 1_555
H20 C23 1_555 1_555
C24 C18 1_555 1_555
C25 C21 1_555 1_555
C30 C31 1_555 1_555
C31 H23 1_555 1_555
C33 C30 1_555 1_555
O2 C24 1_555 1_555
O3 C25 1_555 1_555
O4 C25 1_555 1_555
O7 C33 1_555 1_555
O8 C33 1_555 1_555
O9 H25 1_555 1_555
H26 O9 1_555 1_555
Zn2 O3 1_555 1_555
N13 Zn2 1_555 1_555
C22 C23 1_555 1_555
O4 Zn2 1_555 1_555
O8 Zn2 1_555 1_555
O9 Zn2 1_555 1_555
C1 C2 1_555 1_555
C2 H1 1_555 1_555
C3 C2 1_555 1_555
C4 C3 1_555 1_555
H2 C4 1_555 1_555
C5 C4 1_555 1_555
C6 C1 1_555 1_555
H3 C6 1_555 1_555
C7 H4 1_555 1_555
C9 H6 1_555 1_555
C10 C3 1_555 1_555
H7 C10 1_555 1_555
H8 C10 1_555 1_555
C12 C11 1_555 1_555
H10 C12 1_555 1_555
C13 H11 1_555 1_555
C14 C5 1_555 1_555
H12 C14 1_555 1_555
H13 C14 1_555 1_555
C17 H16 1_555 1_555
N2 C1 1_555 1_555
N13 C12 1_555 1_555
N4 C10 1_555 1_555
N6 C14 1_555 1_555
Zn6 N5 1_555 1_555
C5 C6 1_555 1_555
C7 N2 1_555 1_555
C9 N2 1_555 1_555
C11 N4 1_555 1_555
C13 N13 1_555 1_555
C13 N4 1_555 1_555
C15 N6 1_555 1_555
C17 N5 1_555 1_555
C17 N6 1_555 1_555
C37 C34 1_555 1_555
O10 C37 1_555 1_555
O11 C37 1_555 1_555
Zn6 O10 1_555 1_555
H5 C8 1_555 1_555
N1 C8 1_555 1_555
H27 C35 1_555 1_555
H28 C36 1_555 1_555
H45 C57 1_555 1_555
C35 C36 1_555 1_555
H15 C16 1_555 1_555
C27 H21 1_555 1_555
C28 C27 1_555 1_555
H22 C28 1_555 1_555
H35 C49 1_555 1_555
N7 C49 1_555 1_555

#END
