
###############################################################################
#
# This file contains modified crystal structure data generated from the
# MOF subset of the Cambridge Structural Database (CSD) v543 
# hosted by the Cambridge Crystallographic Data Centre (CCDC).
#
# This work is licensed under the Creative Commons
# Attribution-NonCommercial-ShareAlike 4.0 International License.
# To view a copy of this license, visit
# http://creativecommons.org/licenses/by-nc-sa/4.0/
# or send a letter to
# Creative Commons, PO Box 1866, Mountain View, CA 94042, USA.
#
# CIF created using the CSD Python API on 29 September 2022
# The structure has been converted into the P1 space group
# The structure has a 3D framework
# The original CSD entry VUTLIG is in the triclinic crystal system
# The framework has been calculated to contain at least 10.0% void space
# The void calculation uses a probe of radius 1.32A, grid spacing 0.4
#
###############################################################################

data_VUTLIG
_chemical_formula_moiety         '(C30 H42 N12 Ni2 O12 V4)n'
_symmetry_cell_setting           triclinic
_symmetry_space_group_name_H-M   'P 1'
_symmetry_Int_Tables_number      1
_space_group_name_Hall           'P 1'
loop_
_symmetry_equiv_pos_site_id
_symmetry_equiv_pos_as_xyz
1 x,y,z
_cell_length_a                   9.01810(10)
_cell_length_b                   10.5762(2)
_cell_length_c                   11.8915(2)
_cell_angle_alpha                87.6740(10)
_cell_angle_beta                 81.3840(10)
_cell_angle_gamma                85.2410(10)
_cell_volume                     1117.06
loop_
_atom_site_label
_atom_site_type_symbol
_atom_site_fract_x
_atom_site_fract_y
_atom_site_fract_z
_atom_site_U_iso_or_equiv
_atom_site_thermal_displace_type
H34 H 0.3391 0.6766 0.0262 0.0360 Uiso
C29 C 0.1888(2) 0.4497(2) 0.05633(16) 0.0310 Uani
H39 H 0.1906 0.3591 0.0457 0.0370 Uiso
H40 H 0.2192 0.4620 0.1298 0.0370 Uiso
C30 C 0.0298(2) 0.5089(2) 0.05579(16) 0.0332 Uani
H42 H 0.0277 0.5990 0.0690 0.0400 Uiso
H16 H 0.5528 0.0477 0.1727 0.0310 Uiso
H17 H 0.3893 0.0044 0.1810 0.0310 Uiso
H20 H 0.0363 0.5286 0.8822 0.0400 Uiso
Ni5 Ni 0.54030(2) 0.495951(19) 0.632947(17) 0.0125 Uani
C23 C 0.4413(2) 0.63452(19) 0.86416(16) 0.0264 Uani
H31 H 0.4955 0.7044 0.8409 0.0320 Uiso
C24 C 0.3472(2) 0.45534(18) 0.86500(15) 0.0221 Uani
H32 H 0.3228 0.3772 0.8430 0.0270 Uiso
C26 C 0.3550(2) 0.6198(2) 0.96712(17) 0.0300 Uani
N10 N 0.43634(16) 0.53021(14) 0.79967(12) 0.0176 Uani
N12 N 0.29618(18) 0.50510(16) 0.96662(13) 0.0234 Uani
C16 C 0.34532(19) 0.26378(16) 0.65894(14) 0.0181 Uani
H22 H 0.2715 0.3033 0.6198 0.0220 Uiso
C17 C 0.3322(2) 0.15420(17) 0.72194(15) 0.0214 Uani
H23 H 0.2494 0.1058 0.7343 0.0260 Uiso
C19 C 0.4747(2) 0.05584(17) 0.96319(15) 0.0250 Uani
H25 H 0.5282 0.1289 0.9749 0.0300 Uiso
H26 H 0.3679 0.0778 0.9852 0.0300 Uiso
C20 C 0.55406(19) 0.22380(16) 0.72597(14) 0.0179 Uani
H27 H 0.6507 0.2293 0.7429 0.0210 Uiso
C28 C 0.5049(2) 0.02279(17) 0.83901(16) 0.0257 Uani
N7 N 0.48494(16) 0.30799(13) 0.66156(12) 0.0153 Uani
N9 N 0.46610(17) 0.12933(14) 0.76368(12) 0.0191 Uani
Ni1 Ni 0.45970(2) 0.504049(19) 0.367053(17) 0.0125 Uani
V1 V 0.08865(3) 0.63331(3) 0.35296(2) 0.0146 Uani
V2 V 0.17564(3) 0.59812(3) 0.60025(2) 0.0141 Uani
C1 C 0.65468(19) 0.73622(16) 0.34106(14) 0.0181 Uani
H1 H 0.7285 0.6967 0.3802 0.0220 Uiso
C2 C 0.6678(2) 0.84580(17) 0.27806(15) 0.0214 Uani
H2 H 0.7506 0.8942 0.2657 0.0260 Uiso
C3 C 0.26555(19) 0.28349(16) 0.37596(15) 0.0184 Uani
H3 H 0.1835 0.3386 0.3634 0.0220 Uiso
C4 C 0.5253(2) 0.94416(17) 0.03681(15) 0.0250 Uani
H4 H 0.4718 0.8711 0.0251 0.0300 Uiso
H5 H 0.6321 0.9222 0.0148 0.0300 Uiso
C5 C 0.44594(19) 0.77620(16) 0.27403(14) 0.0179 Uani
H6 H 0.3493 0.7707 0.2571 0.0210 Uiso
C6 C 0.1317(2) 0.08450(17) 0.38433(16) 0.0220 Uani
H7 H 0.1579 0.0172 0.3302 0.0260 Uiso
H8 H 0.0518 0.1404 0.3588 0.0260 Uiso
C7 C 0.4040(2) 0.10865(17) 0.40528(15) 0.0199 Uani
H9 H 0.4358 0.0238 0.4167 0.0240 Uiso
C8 C 0.5587(2) 0.36548(19) 0.13584(16) 0.0264 Uani
H10 H 0.5045 0.2956 0.1591 0.0320 Uiso
C9 C 0.6528(2) 0.54466(18) 0.13500(15) 0.0221 Uani
H11 H 0.6772 0.6228 0.1570 0.0270 Uiso
C10 C 0.48804(19) 0.20986(16) 0.40336(15) 0.0188 Uani
H12 H 0.5889 0.2056 0.4127 0.0230 Uiso
C11 C 0.6450(2) 0.3802(2) 0.03288(17) 0.0300 Uani
C12 C 0.07548(19) 0.02719(17) 0.50048(16) 0.0220 Uani
H14 H 0.0647 0.0919 0.5573 0.0260 Uiso
C13 C 0.4951(2) 0.97721(17) 0.16099(16) 0.0257 Uani
N1 N 0.51506(16) 0.69201(13) 0.33844(12) 0.0153 Uani
N2 N 0.53390(17) 0.87067(14) 0.23632(12) 0.0191 Uani
N3 N 0.56366(16) 0.46979(14) 0.20033(12) 0.0176 Uani
N4 N 0.70382(18) 0.49490(16) 0.03338(13) 0.0234 Uani
N5 N 0.40030(16) 0.31973(13) 0.38542(12) 0.0161 Uani
N6 N 0.26313(16) 0.15619(14) 0.38698(13) 0.0184 Uani
O1 O 0.06470(16) 0.75408(13) 0.26602(12) 0.0292 Uani
O3 O 0.16926(15) 0.68812(13) 0.70761(11) 0.0269 Uani
O4 O 0.09610(14) 0.69181(12) 0.49209(11) 0.0219 Uani
O5 O 0.25405(13) 0.55582(12) 0.31381(10) 0.0189 Uani
O6 O 0.35463(13) 0.54208(11) 0.55125(10) 0.0151 Uani
V4 V 0.82436(3) 0.40188(3) 0.39975(2) 0.0141 Uani
H41 H 0.9637 0.4714 0.1178 0.0400 Uiso
N14 N 0.59970(16) 0.68027(13) 0.61458(12) 0.0161 Uani
O8 O 0.05978(14) 0.47041(13) 0.63940(12) 0.0272 Uani
O12 O 0.74595(13) 0.44418(12) 0.68619(10) 0.0189 Uani
O13 O 0.64537(13) 0.45792(11) 0.44875(10) 0.0151 Uani
H15 H 0.1481 0.9604 0.5205 0.0260 Uiso
O2 O 0.94022(14) 0.52959(13) 0.36060(12) 0.0272 Uani
V3 V 0.91135(3) 0.36669(3) 0.64704(2) 0.0146 Uani
H36 H 0.8519 0.0396 0.4795 0.0260 Uiso
O7 O 0.93530(16) 0.24592(13) 0.73398(12) 0.0292 Uani
O9 O 0.83074(15) 0.31188(13) 0.29239(11) 0.0269 Uani
O10 O 0.90390(14) 0.30819(12) 0.50791(11) 0.0219 Uani
C18 C 0.73445(19) 0.71651(16) 0.62404(15) 0.0184 Uani
H24 H 0.8165 0.6614 0.6366 0.0220 Uiso
C21 C 0.8683(2) 0.91550(17) 0.61567(16) 0.0220 Uani
H28 H 0.8421 0.9828 0.6698 0.0260 Uiso
H29 H 0.9482 0.8596 0.6412 0.0260 Uiso
C22 C 0.5960(2) 0.89135(17) 0.59472(15) 0.0199 Uani
H30 H 0.5642 0.9762 0.5833 0.0240 Uiso
C25 C 0.51196(19) 0.79014(16) 0.59664(15) 0.0188 Uani
H33 H 0.4111 0.7944 0.5873 0.0230 Uiso
C27 C 0.92452(19) 0.97281(17) 0.49952(16) 0.0220 Uani
H35 H 0.9353 0.9081 0.4427 0.0260 Uiso
N15 N 0.73687(16) 0.84381(14) 0.61302(13) 0.0184 Uani
H13 H 0.6609 0.3234 0.9738 0.0360 Uiso
C14 C 0.8112(2) 0.5503(2) 0.94367(16) 0.0310 Uani
H18 H 0.8094 0.6409 0.9543 0.0370 Uiso
H19 H 0.7808 0.5380 0.8702 0.0370 Uiso
C15 C 0.9702(2) 0.4911(2) 0.94421(16) 0.0332 Uani
H21 H 0.9723 0.4010 0.9310 0.0400 Uiso
H37 H 0.4472 0.9523 0.8273 0.0310 Uiso
H38 H 0.6107 0.9956 0.8190 0.0310 Uiso
loop_
_atom_site_aniso_label
_atom_site_aniso_U_11
_atom_site_aniso_U_22
_atom_site_aniso_U_33
_atom_site_aniso_U_23
_atom_site_aniso_U_13
_atom_site_aniso_U_12
C29 0.0298 0.047 0.0151 0.0007 0.0037 -0.0104
C30 0.0248 0.0556 0.0183 -0.0066 0.0048 -0.0102
Ni5 0.01011 0.01303 0.01431 0.00093 -0.0017 -0.00225
C23 0.0298 0.0252 0.0248 -0.0063 -0.0013 -0.0076
C24 0.0221 0.0256 0.0179 -0.0036 0.0021 -0.0049
C26 0.0322 0.034 0.0243 -0.0117 -0.001 -0.0063
N10 0.0152 0.0209 0.0166 -0.0011 -0.0016 -0.0012
N12 0.021 0.0326 0.0158 -0.0027 0.0016 -0.0048
C16 0.0176 0.0194 0.0179 0.0013 -0.0041 -0.0037
C17 0.0217 0.0225 0.0206 0.0004 -0.0019 -0.0087
C19 0.037 0.0192 0.0178 0.0038 -0.003 -0.0006
C20 0.0186 0.0178 0.0174 0.0008 -0.0029 -0.0027
C28 0.0392 0.0165 0.0206 0.0057 -0.0043 -0.0011
N7 0.0169 0.0147 0.0143 0.0006 -0.0016 -0.0022
N9 0.0249 0.0159 0.0166 0.0036 -0.0031 -0.0038
Ni1 0.01011 0.01303 0.01431 0.00093 -0.0017 -0.00225
V1 0.01089 0.01583 0.01706 0.00334 -0.00251 -0.00119
V2 0.0098 0.01727 0.01533 -0.00159 -0.00205 -0.00069
C1 0.0176 0.0194 0.0179 0.0013 -0.0041 -0.0037
C2 0.0217 0.0225 0.0206 0.0004 -0.0019 -0.0087
C3 0.017 0.0169 0.0214 0.0001 -0.0016 -0.0043
C4 0.037 0.0192 0.0178 0.0038 -0.003 -0.0006
C5 0.0186 0.0178 0.0174 0.0008 -0.0029 -0.0027
C6 0.0185 0.0195 0.0292 -0.003 -0.0023 -0.0094
C7 0.0207 0.017 0.0214 -0.001 -0.0015 -0.0009
C8 0.0298 0.0252 0.0248 -0.0063 -0.0013 -0.0076
C9 0.0221 0.0256 0.0179 -0.0036 0.0021 -0.0049
C10 0.0152 0.0194 0.0217 -0.0009 -0.0014 -0.0027
C11 0.0322 0.034 0.0243 -0.0117 -0.001 -0.0063
C12 0.0169 0.0176 0.0315 0.0009 -0.0018 -0.0054
C13 0.0392 0.0165 0.0206 0.0057 -0.0043 -0.0011
N1 0.0169 0.0147 0.0143 0.0006 -0.0016 -0.0022
N2 0.0249 0.0159 0.0166 0.0036 -0.0031 -0.0038
N3 0.0152 0.0209 0.0166 -0.0011 -0.0016 -0.0012
N4 0.021 0.0326 0.0158 -0.0027 0.0016 -0.0048
N5 0.0161 0.0151 0.0168 -0.0003 -0.0007 -0.0035
N6 0.016 0.0168 0.0227 -0.0012 -0.0011 -0.0057
O1 0.0333 0.0253 0.0291 0.0113 -0.0083 -0.0015
O3 0.0242 0.0331 0.0237 -0.0115 -0.0049 0.0031
O4 0.0217 0.022 0.0215 -0.0018 -0.0055 0.0065
O5 0.0128 0.0226 0.0217 -0.0023 -0.0036 -0.0007
O6 0.0114 0.0167 0.0171 0.0005 -0.0024 -0.0013
V4 0.0098 0.01727 0.01533 -0.00159 -0.00205 -0.00069
N14 0.0161 0.0151 0.0168 -0.0003 -0.0007 -0.0035
O8 0.0159 0.0308 0.0358 0.0055 -0.0041 -0.009
O12 0.0128 0.0226 0.0217 -0.0023 -0.0036 -0.0007
O13 0.0114 0.0167 0.0171 0.0005 -0.0024 -0.0013
O2 0.0159 0.0308 0.0358 0.0055 -0.0041 -0.009
V3 0.01089 0.01583 0.01706 0.00334 -0.00251 -0.00119
O7 0.0333 0.0253 0.0291 0.0113 -0.0083 -0.0015
O9 0.0242 0.0331 0.0237 -0.0115 -0.0049 0.0031
O10 0.0217 0.022 0.0215 -0.0018 -0.0055 0.0065
C18 0.017 0.0169 0.0214 0.0001 -0.0016 -0.0043
C21 0.0185 0.0195 0.0292 -0.003 -0.0023 -0.0094
C22 0.0207 0.017 0.0214 -0.001 -0.0015 -0.0009
C25 0.0152 0.0194 0.0217 -0.0009 -0.0014 -0.0027
C27 0.0169 0.0176 0.0315 0.0009 -0.0018 -0.0054
N15 0.016 0.0168 0.0227 -0.0012 -0.0011 -0.0057
C14 0.0298 0.047 0.0151 0.0007 0.0037 -0.0104
C15 0.0248 0.0556 0.0183 -0.0066 0.0048 -0.0102
loop_
_geom_bond_atom_site_label_1
_geom_bond_atom_site_label_2
_geom_bond_site_symmetry_1
_geom_bond_site_symmetry_2
C29 H39 1_555 1_555
H40 C29 1_555 1_555
H42 C30 1_555 1_555
C29 C30 1_555 1_555
Ni5 N10 1_555 1_555
C23 H31 1_555 1_555
C24 H32 1_555 1_555
C26 C23 1_555 1_555
N10 C23 1_555 1_555
N12 C24 1_555 1_555
C24 N10 1_555 1_555
C26 N12 1_555 1_555
Ni5 N7 1_555 1_555
C16 H22 1_555 1_555
C17 C16 1_555 1_555
H23 C17 1_555 1_555
H25 C19 1_555 1_555
H26 C19 1_555 1_555
C20 H27 1_555 1_555
C28 C19 1_555 1_555
N7 C16 1_555 1_555
N9 C17 1_555 1_555
C20 N7 1_555 1_555
C20 N9 1_555 1_555
C28 N9 1_555 1_555
Ni1 N1 1_555 1_555
V1 O1 1_555 1_555
V2 O3 1_555 1_555
C1 H1 1_555 1_555
C2 C1 1_555 1_555
H2 C2 1_555 1_555
C3 H3 1_555 1_555
C4 H4 1_555 1_555
H5 C4 1_555 1_555
C5 H6 1_555 1_555
C6 H7 1_555 1_555
H8 C6 1_555 1_555
C7 H9 1_555 1_555
C8 H10 1_555 1_555
C9 H11 1_555 1_555
C10 C7 1_555 1_555
H12 C10 1_555 1_555
C11 C8 1_555 1_555
C12 C6 1_555 1_555
H14 C12 1_555 1_555
C13 C4 1_555 1_555
N1 C1 1_555 1_555
N2 C2 1_555 1_555
N3 Ni1 1_555 1_555
N4 C9 1_555 1_555
N5 Ni1 1_555 1_555
N6 C3 1_555 1_555
O4 V1 1_555 1_555
O5 Ni1 1_555 1_555
O6 Ni1 1_555 1_555
Ni5 O6 1_555 1_555
V4 O13 1_555 1_555
N14 Ni5 1_555 1_555
O8 V2 1_555 1_555
O12 Ni5 1_555 1_555
O13 Ni1 1_555 1_555
V1 O5 1_555 1_555
V2 O4 1_555 1_555
V2 O6 1_555 1_555
C3 N5 1_555 1_555
C5 N1 1_555 1_555
C5 N2 1_555 1_555
C6 N6 1_555 1_555
C7 N6 1_555 1_555
C8 N3 1_555 1_555
C9 N3 1_555 1_555
C10 N5 1_555 1_555
C11 N4 1_555 1_555
C13 N2 1_555 1_555
Ni5 O13 1_555 1_555
V3 O7 1_555 1_555
V4 O2 1_555 1_555
O9 V4 1_555 1_555
O10 V3 1_555 1_555
O12 V3 1_555 1_555
V4 O10 1_555 1_555
C18 H24 1_555 1_555
C21 H28 1_555 1_555
H29 C21 1_555 1_555
C22 H30 1_555 1_555
C25 C22 1_555 1_555
H33 C25 1_555 1_555
H35 C27 1_555 1_555
N14 C18 1_555 1_555
N15 C18 1_555 1_555
C21 C27 1_555 1_555
C21 N15 1_555 1_555
C22 N15 1_555 1_555
C25 N14 1_555 1_555
C14 H18 1_555 1_555
H19 C14 1_555 1_555
C15 C14 1_555 1_555
H21 C15 1_555 1_555

#END
