
###############################################################################
#
# This file contains modified crystal structure data generated from the
# MOF subset of the Cambridge Structural Database (CSD) v543 
# hosted by the Cambridge Crystallographic Data Centre (CCDC).
#
# This work is licensed under the Creative Commons
# Attribution-NonCommercial-ShareAlike 4.0 International License.
# To view a copy of this license, visit
# http://creativecommons.org/licenses/by-nc-sa/4.0/
# or send a letter to
# Creative Commons, PO Box 1866, Mountain View, CA 94042, USA.
#
# CIF created using the CSD Python API on 29 September 2022
# The structure has been converted into the P1 space group
# The structure has a 3D framework
# The original CSD entry VUVXUI is in the triclinic crystal system
# The original CSD entry VUVXUI is in a Sohncke space group
# The framework has been calculated to contain at least 10.0% void space
# The void calculation uses a probe of radius 1.32A, grid spacing 0.4
# H atom positions have been added when not included in the experimental data
#
###############################################################################

data_VUVXUI
_chemical_formula_moiety         '(C45 H31 Bi2 O21)n'
_symmetry_cell_setting           triclinic
_symmetry_space_group_name_H-M   'P 1'
_symmetry_Int_Tables_number      1
_space_group_name_Hall           'P 1'
loop_
_symmetry_equiv_pos_site_id
_symmetry_equiv_pos_as_xyz
1 x,y,z
_cell_length_a                   9.9074(4)
_cell_length_b                   11.7713(6)
_cell_length_c                   12.9136(7)
_cell_angle_alpha                64.992(2)
_cell_angle_beta                 76.477(2)
_cell_angle_gamma                87.906(2)
_cell_volume                     1323.67
loop_
_atom_site_label
_atom_site_type_symbol
_atom_site_fract_x
_atom_site_fract_y
_atom_site_fract_z
_atom_site_U_iso_or_equiv
_atom_site_thermal_displace_type
C32 C 0.0013(8) 0.0700(8) 0.0539(7) 0.0180 Uani
C38 C 0.0009(8) 0.0788(8) 0.1576(7) 0.0190 Uani
C40 C 0.0367(12) 0.0997(13) 0.3692(10) 0.0263 Uani
H18 H 0.063937 0.170630 0.298145 0.0310 Uiso
C41 C 0.0275(13) 0.1056(11) 0.4740(11) 0.0236 Uani
H19 H 0.049676 0.182192 0.473043 0.0280 Uiso
O18 O 0.0125(9) 0.1195(7) 0.6854(6) 0.0396 Uani
Bi7 Bi 0.13146(2) 0.51609(2) 0.11810(2) 0.0133 Uani
O14 O 0.0140(14) 0.2926(12) 0.9442(11) 0.0247 Uani
O25 O 0.1094(12) 0.5396(13) 0.8991(11) 0.0215 Uani
O26 O 0.0481(9) 0.6078(8) 0.7319(8) 0.0153 Uani
C33 C 0.0038(9) 0.9537(8) 0.0507(7) 0.0228 Uani
C34 C 0.0077(10) 0.8411(10) 0.1534(8) 0.0228 Uani
C35 C 0.0300(8) 0.7237(8) 0.1456(7) 0.0181 Uani
C36 C 0.0202(11) 0.8575(8) 0.2536(8) 0.0218 Uani
H16 H 0.036304 0.788085 0.318157 0.0260 Uiso
C37 C 0.0091(9) 0.9742(9) 0.2594(9) 0.0168 Uani
C39 C 0.0037(10) 0.9837(9) 0.3723(11) 0.0160 Uani
O16 O 0.1075(9) 0.6471(7) 0.2070(7) 0.0230 Uani
C26 C 0.6535(11) 0.0356(10) 0.2614(9) 0.0202 Uani
H12 H 0.745234 0.057274 0.217750 0.0240 Uiso
C27 C 0.5447(16) 0.1101(16) 0.2173(14) 0.0151 Uani
C28 C 0.4118(16) 0.0821(15) 0.2866(14) 0.0186 Uani
H13 H 0.340529 0.130815 0.259738 0.0220 Uiso
C30 C 0.5881(19) 0.2229(17) 0.1037(15) 0.0216 Uani
O11 O 0.7056(15) 0.2497(15) 0.0500(13) 0.0322 Uani
O12 O 0.4825(8) 0.2886(8) 0.0718(7) 0.0219 Uani
H23 H 0.501799 0.329071 0.000015 0.0330 Uiso
H23_2 H 0.501799 0.329071 1.000015 0.0330 Uiso
Bi4 Bi 0.86882(2) 0.48370(2) 0.88176(2) 0.0144 Uani
C4 C 0.3739(16) 0.0959(14) 0.6471(14) 0.0352 Uani
H2 H 0.306679 0.151965 0.623424 0.0420 Uiso
C5 C 0.5058(15) 0.1184(13) 0.5766(13) 0.0213 Uani
C6 C 0.604(2) 0.0424(16) 0.6177(17) 0.0249 Uani
H3 H 0.696258 0.060651 0.574892 0.0300 Uiso
C8 C 0.5387(18) 0.2294(16) 0.4528(16) 0.0144 Uani
C9 C 0.4358(13) 0.2844(12) 0.3968(12) 0.0160 Uani
H5 H 0.343368 0.255593 0.434510 0.0190 Uiso
C10 C 0.4664(14) 0.3792(14) 0.2880(13) 0.0128 Uani
C11 C 0.6030(16) 0.4216(15) 0.2238(15) 0.0130 Uani
H6 H 0.622332 0.483888 0.146974 0.0160 Uiso
C12 C 0.7138(18) 0.3652(17) 0.2808(15) 0.0140 Uani
C13 C 0.6793(18) 0.2716(16) 0.3970(15) 0.0147 Uani
H7 H 0.748628 0.237776 0.436756 0.0180 Uiso
C14 C 0.3540(18) 0.4358(17) 0.2232(15) 0.0114 Uani
C15 C 0.8562(19) 0.4059(18) 0.2166(16) 0.0121 Uani
H17 H 0.994923 0.157205 0.159060 0.0220 Uiso
C42 C 0.9863(10) 0.0020(11) 0.5821(9) 0.0212 Uani
C45 C 0.9720(10) 0.0113(10) 0.6943(11) 0.0226 Uani
O3 O 0.2277(13) 0.3930(13) 0.2732(11) 0.0171 Uani
O4 O 0.3856(10) 0.5285(9) 0.1277(9) 0.0202 Uani
O5 O 0.8899(14) 0.4443(14) 0.1066(11) 0.0252 Uani
O6 O 0.9469(9) 0.4105(8) 0.2722(8) 0.0182 Uani
H24 H 0.984686 0.122579 0.749088 0.0590 Uiso
O21 O 0.1982(13) 0.3213(14) 0.0746(13) 0.0302 Uani
H27 H 0.14784 0.24423 0.141381 . .
H28 H 0.172079 0.33219 0.00141769 . .
C16 C 0.1397(19) 0.5929(18) 0.7908(17) 0.0192 Uani
C17 C 0.289(2) 0.6450(18) 0.7236(17) 0.0160 Uani
C18 C 0.3882(16) 0.5937(14) 0.7786(15) 0.0164 Uani
H8 H 0.365113 0.528492 0.853898 0.0200 Uiso
C19 C 0.5256(17) 0.6365(16) 0.7244(15) 0.0151 Uani
C20 C 0.6367(18) 0.5790(17) 0.7840(16) 0.0223 Uani
C21 C 0.5569(18) 0.7393(15) 0.6097(15) 0.0210 Uani
H9 H 0.648980 0.770026 0.572883 0.0250 Uiso
C22 C 0.4511(19) 0.7951(16) 0.5511(17) 0.0170 Uani
C23 C 0.3174(18) 0.7422(16) 0.6127(14) 0.0167 Uani
H10 H 0.243934 0.773674 0.577547 0.0200 Uiso
C24 C 0.4854(12) 0.9006(11) 0.4386(10) 0.0140 Uani
C25 C 0.6224(11) 0.9326(10) 0.3677(9) 0.0172 Uani
H11 H 0.693155 0.882456 0.393646 0.0200 Uiso
C29 C 0.384(2) 0.9825(17) 0.3956(17) 0.0216 Uani
H14 H 0.293960 0.968306 0.443103 0.0260 Uiso
C31 C 0.9895(9) 0.1870(9) 0.9485(8) 0.0244 Uani
O7 O 0.6094(8) 0.4939(8) 0.8884(7) 0.0188 Uani
O8 O 0.7604(13) 0.6232(13) 0.7345(12) 0.0254 Uani
O13 O 0.9471(8) 0.1677(8) 0.8695(8) 0.0380 Uani
O19 O 0.8782(10) 0.3897(8) 0.7488(7) 0.0320 Uani
O20 O 0.8366(13) 0.6729(13) 0.9217(13) 0.0286 Uani
O22 O 0.2724(15) 0.7473(15) 0.9523(13) 0.0348 Uani
H25 H 0.805492 0.319205 0.783831 . .
H26 H 0.861713 0.453475 0.673381 . .
H29 H 0.921856 0.693666 0.939979 . .
H30 H 0.819079 0.744798 0.85126 . .
C1 C 0.395(2) 0.7899(18) 0.9011(17) 0.0194 Uani
C2 C 0.4309(17) 0.9067(16) 0.7907(15) 0.0215 Uani
C3 C 0.3396(14) 0.9895(12) 0.7543(11) 0.0298 Uani
H1 H 0.245(10) 0.971(9) 0.803(9) 0.0360 Uiso
C7 C 0.5672(19) 0.9358(18) 0.7249(16) 0.0339 Uani
H4 H 0.635635 0.883373 0.752596 0.0400 Uiso
C43 C 0.9547(13) 0.8902(12) 0.5846(12) 0.0283 Uani
H20 H 0.927582 0.820222 0.656492 0.0340 Uiso
C44 C 0.9621(11) 0.8787(10) 0.4811(10) 0.0238 Uani
H21 H 0.939572 0.801436 0.483645 0.0280 Uiso
O2 O 0.5019(9) 0.7349(8) 0.9429(7) 0.0263 Uani
H22 H 0.459(8) 0.657(4) 0.982(7) 0.0310 Uiso
O15 O 0.9732(13) 0.6973(12) 0.0800(12) 0.0287 Uani
O17 O 0.9272(9) 0.9246(7) 0.7910(6) 0.0467 Uani
H15 H 0.002823 0.948696 0.980861 0.0270 Uiso
loop_
_atom_site_aniso_label
_atom_site_aniso_U_11
_atom_site_aniso_U_22
_atom_site_aniso_U_33
_atom_site_aniso_U_23
_atom_site_aniso_U_13
_atom_site_aniso_U_12
C32 0.019 0.015 0.02 -0.006 -0.008 0.006
C38 0.014 0.019 0.024 -0.008 -0.007 0.003
C40 0.031 0.025 0.015 -0.001 -0.006 0.002
C41 0.037 0.011 0.024 -0.003 -0.017 -0.005
O18 0.067 0.035 0.025 -0.021 -0.009 -0.003
Bi7 0.0114 0.0123 0.0144 -0.0033 -0.0046 0.0011
O14 0.034 0.016 0.026 -0.009 -0.011 0.005
O25 0.009 0.027 0.013 0.003 0.004 -0.003
O26 0.014 0.016 0.015 -0.0055 -0.004 0.0004
C33 0.028 0.025 0.02 -0.013 -0.008 0.005
C34 0.018 0.036 0.011 -0.008 -0.003 0.014
C35 0.022 0.011 0.015 -0.002 0 0.003
C36 0.024 0.012 0.024 -0.003 -0.005 0
C37 0.022 0.011 0.019 -0.007 -0.007 0.004
C39 0.02 0.013 0.017 -0.009 -0.003 0.002
O16 0.034 0.02 0.021 -0.011 -0.014 0.009
C26 0.018 0.02 0.016 -0.003 -0.001 -0.001
C27 0.013 0.015 0.012 0.001 -0.007 0.004
C28 0.009 0.017 0.014 0.008 -0.002 0
C30 0.027 0.018 0.014 -0.003 -0.002 0.002
O11 0.015 0.03 0.029 0.005 0.002 -0.001
O12 0.022 0.02 0.021 -0.0065 -0.0046 0.0027
Bi4 0.0094 0.015 0.014 -0.0007 -0.0043 -0.0004
C4 0.035 0.035 0.035 -0.0145 -0.0083 0.0027
C5 0.021 0.022 0.021 -0.009 -0.0054 0.0014
C6 0.02 0.021 0.023 0.001 -0.005 -0.005
C8 0.012 0.007 0.014 0.004 -0.001 0
C9 0.006 0.012 0.017 0.007 -0.004 -0.002
C10 0.011 0.015 0.014 -0.006 -0.007 0.004
C11 0.014 0.013 0.012 -0.004 -0.006 0.002
C12 0.009 0.017 0.014 -0.002 -0.007 -0.005
C13 0.013 0.015 0.014 -0.003 -0.006 0.002
C14 0.011 0.012 0.011 -0.0046 -0.0031 0.0007
C15 0.016 0.011 0.01 -0.004 -0.005 0
C42 0.018 0.035 0.018 -0.018 -0.006 0.009
C45 0.026 0.02 0.02 -0.006 -0.007 0.002
O3 0.007 0.023 0.014 0 -0.005 0.003
O4 0.02 0.02 0.02 -0.0077 -0.0053 0.0012
O5 0.029 0.033 0.012 -0.008 -0.004 -0.005
O6 0.017 0.019 0.018 -0.0071 -0.0048 0.0008
O21 0.026 0.036 0.041 -0.022 -0.021 0.009
C16 0.013 0.01 0.023 0.002 -0.001 0.002
C17 0.016 0.016 0.016 -0.0067 -0.0041 0.001
C18 0.016 0.007 0.016 0.003 0 -0.002
C19 0.015 0.015 0.015 -0.0061 -0.0038 0.001
C20 0.016 0.018 0.024 0.001 -0.008 0.002
C21 0.021 0.021 0.021 -0.0088 -0.0051 0.0013
C22 0.016 0.011 0.019 -0.001 -0.006 0.003
C23 0.015 0.019 0.014 -0.003 -0.007 -0.001
C24 0.013 0.018 0.009 -0.001 -0.007 -0.006
C25 0.017 0.014 0.011 0.004 -0.004 0.001
C29 0.013 0.021 0.02 0 -0.001 0.001
C31 0.03 0.026 0.025 -0.016 -0.012 0.009
O7 0.014 0.018 0.012 0.007 -0.006 -0.003
O8 0.01 0.027 0.021 0.007 -0.004 0.003
O13 0.04 0.038 0.037 -0.0155 -0.012 0.0023
O19 0.049 0.026 0.025 -0.011 -0.016 0.004
O20 0.025 0.021 0.045 -0.015 -0.017 0.009
O22 0.023 0.031 0.023 0.01 0.004 -0.005
C1 0.019 0.02 0.019 -0.007 -0.007 0.003
C2 0.019 0.02 0.014 0.001 0.002 -0.004
C3 0.03 0.03 0.029 -0.0123 -0.0068 0.0022
C7 0.029 0.03 0.031 0 -0.012 0.009
C43 0.032 0.026 0.013 0.005 -0.006 0.001
C44 0.027 0.013 0.033 -0.01 -0.009 -0.004
O2 0.026 0.025 0.025 -0.0081 -0.0061 0.0021
O15 0.03 0.026 0.049 -0.026 -0.026 0.012
O17 0.085 0.031 0.021 -0.011 -0.006 -0.004
loop_
_geom_bond_atom_site_label_1
_geom_bond_atom_site_label_2
_geom_bond_site_symmetry_1
_geom_bond_site_symmetry_2
C38 C32 1_555 1_555
H18 C40 1_555 1_555
C41 C40 1_555 1_555
H19 C41 1_555 1_555
C34 C33 1_555 1_555
C35 C34 1_555 1_555
C36 C34 1_555 1_555
H16 C36 1_555 1_555
C37 C36 1_555 1_555
C39 C37 1_555 1_555
O16 C35 1_555 1_555
O16 Bi7 1_555 1_555
H12 C26 1_555 1_555
C27 C26 1_555 1_555
C28 C27 1_555 1_555
H13 C28 1_555 1_555
C30 C27 1_555 1_555
O11 C30 1_555 1_555
O12 C30 1_555 1_555
H23 O12 1_555 1_555
Bi7 O3 1_555 1_555
H2 C4 1_555 1_555
C5 C4 1_555 1_555
C6 C5 1_555 1_555
H3 C6 1_555 1_555
C8 C5 1_555 1_555
C9 C8 1_555 1_555
H5 C9 1_555 1_555
C10 C9 1_555 1_555
C11 C10 1_555 1_555
H6 C11 1_555 1_555
C12 C11 1_555 1_555
C13 C8 1_555 1_555
H7 C13 1_555 1_555
C14 C10 1_555 1_555
C15 C12 1_555 1_555
C45 C42 1_555 1_555
O3 C14 1_555 1_555
O4 Bi7 1_555 1_555
O5 C15 1_555 1_555
O6 C15 1_555 1_555
O21 Bi7 1_555 1_555
C12 C13 1_555 1_555
C14 O4 1_555 1_555
O21 H27 1_555 1_555
O21 H28 1_555 1_555
C16 C17 1_555 1_555
C17 C18 1_555 1_555
C18 H8 1_555 1_555
C19 C18 1_555 1_555
C20 C19 1_555 1_555
C21 C19 1_555 1_555
H9 C21 1_555 1_555
C22 C21 1_555 1_555
C23 C17 1_555 1_555
H10 C23 1_555 1_555
C24 C22 1_555 1_555
C25 C24 1_555 1_555
H11 C25 1_555 1_555
C29 C24 1_555 1_555
H14 C29 1_555 1_555
O7 Bi4 1_555 1_555
O8 Bi4 1_555 1_555
O26 C16 1_555 1_555
O13 C31 1_555 1_555
O19 Bi4 1_555 1_555
O20 Bi4 1_555 1_555
C16 O25 1_555 1_555
C20 O7 1_555 1_555
C20 O8 1_555 1_555
C22 C23 1_555 1_555
O19 H25 1_555 1_555
O19 H26 1_555 1_555
O20 H29 1_555 1_555
O20 H30 1_555 1_555
C1 C2 1_555 1_555
C2 C3 1_555 1_555
C3 H1 1_555 1_555
C7 C2 1_555 1_555
H4 C7 1_555 1_555
H20 C43 1_555 1_555
H21 C44 1_555 1_555
O22 C1 1_555 1_555
O2 C1 1_555 1_555
H22 O2 1_555 1_555
C43 C44 1_555 1_555

#END
