
###############################################################################
#
# This file contains modified crystal structure data generated from the
# MOF subset of the Cambridge Structural Database (CSD) v543 
# hosted by the Cambridge Crystallographic Data Centre (CCDC).
#
# This work is licensed under the Creative Commons
# Attribution-NonCommercial-ShareAlike 4.0 International License.
# To view a copy of this license, visit
# http://creativecommons.org/licenses/by-nc-sa/4.0/
# or send a letter to
# Creative Commons, PO Box 1866, Mountain View, CA 94042, USA.
#
# CIF created using the CSD Python API on 29 September 2022
# The structure has been converted into the P1 space group
# The structure has a 3D framework
# The original CSD entry VUVYET is in the monoclinic crystal system
# The framework has been calculated to contain at least 10.0% void space
# The void calculation uses a probe of radius 1.32A, grid spacing 0.4
# H atom positions have been added when not included in the experimental data
#
###############################################################################

data_VUVYET
_chemical_formula_moiety         '(C128 H80 Bi8 O56)n'
_symmetry_cell_setting           triclinic
_symmetry_space_group_name_H-M   'P 1'
_symmetry_Int_Tables_number      1
_space_group_name_Hall           'P 1'
loop_
_symmetry_equiv_pos_site_id
_symmetry_equiv_pos_as_xyz
1 x,y,z
_cell_length_a                   17.854(4)
_cell_length_b                   9.613(2)
_cell_length_c                   21.047(4)
_cell_angle_alpha                90
_cell_angle_beta                 96.7709(16)
_cell_angle_gamma                90
_cell_volume                     3587.11
loop_
_atom_site_label
_atom_site_type_symbol
_atom_site_fract_x
_atom_site_fract_y
_atom_site_fract_z
_atom_site_U_iso_or_equiv
_atom_site_thermal_displace_type
Bi1 Bi 0.24825(10) 0.3056(2) 0.35630(7) 0.0290 Uiso
C1 C 0.3922(10) 0.341(3) 0.4215(14) 0.0100 Uiso
C2 C 0.4720(8) 0.349(2) 0.4460(10) 0.0100 Uiso
C3 C 0.5204(7) 0.4376(16) 0.4163(9) 0.0100 Uiso
C4 C 0.5975(6) 0.445(2) 0.4399(10) 0.0100 Uiso
C5 C 0.6261(6) 0.365(2) 0.4932(9) 0.0100 Uiso
C6 C 0.5777(5) 0.2767(12) 0.5229(7) 0.0100 Uiso
C7 C 0.5007(7) 0.2690(19) 0.4993(9) 0.0100 Uiso
C8 C 0.6476(8) 0.537(3) 0.4091(14) 0.0100 Uiso
C9 C 0.6072(3) 0.1939(9) 0.5778(4) 0.0100 Uiso
C10 C 0.6662(6) 0.2461(11) 0.6217(5) 0.0100 Uiso
C11 C 0.6948(6) 0.1657(10) 0.6750(5) 0.0100 Uiso
C12 C 0.6645(3) 0.0330(9) 0.6845(4) 0.0100 Uiso
C14 C 0.5769(6) 0.0612(10) 0.5872(5) 0.0100 Uiso
O1 O 0.3459(11) 0.258(5) 0.4502(19) 0.0100 Uiso
O2 O 0.3650(10) 0.417(4) 0.3703(15) 0.0100 Uiso
O3 O 0.6194(10) 0.621(4) 0.3614(15) 0.0100 Uiso
O4 O 0.7221(10) 0.536(5) 0.4284(19) 0.0100 Uiso
O5 O 0.7310(12) 0.0116(12) 0.7915(8) 0.0100 Uiso
O7 O 0.188(4) 0.085(5) 0.425(3) 0.1270 Uiso
Bi3 Bi 0.74825(10) 0.6944(2) 0.35630(7) 0.0290 Uiso
O8 O 0.1194(10) 0.379(4) 0.3614(15) 0.0100 Uiso
O9 O 0.2221(10) 0.464(5) 0.4284(19) 0.0100 Uiso
O10 O 0.2310(12) 0.5116(12) 0.2915(8) 0.0100 Uiso
O11 O 0.3153(12) 0.1890(14) 0.2612(7) 0.0100 Uiso
O12 O 0.1847(12) 0.3110(14) 0.2388(7) 0.0100 Uiso
H1 H 0.685642 0.371259 0.511535 . .
H2 H 0.498212 0.500164 0.375206 . .
H3 H 0.46329 0.200964 0.522363 . .
H4 H 0.531353 0.0207637 0.553251 . .
H5 H 0.740385 0.206095 0.708923 . .
H6 H 0.689669 0.348633 0.614393 . .
C13 C 0.6056(6) 0.9808(11) 0.6406(5) 0.0100 Uiso
C15 C 0.6942(4) 0.9497(10) 0.7397(6) 0.0100 Uiso
O6 O 0.6847(12) 0.8110(14) 0.7388(7) 0.0100 Uiso
C16 C 0.156(2) 0.965(4) 0.3923(19) 0.1270 Uiso
Bi2 Bi 0.75175(10) 0.6944(2) 0.64370(7) 0.0290 Uiso
Bi4 Bi 0.74825(10) 0.8056(2) 0.85630(7) 0.0290 Uiso
H7 H 0.58219 0.878217 0.647903 . .
H8 H 0.198573 0.913956 0.367446 . .
H9 H 0.136268 0.893243 0.426751 . .
H10 H 0.108748 0.996263 0.357759 . .
Bi1_2 Bi 0.25175(10) 0.3056(2) 0.64370(7) 0.0290 Uiso
C1_2 C 0.1078(10) 0.341(3) 0.5785(14) 0.0100 Uiso
C2_2 C 0.0280(8) 0.349(2) 0.5540(10) 0.0100 Uiso
O1_2 O 0.1541(11) 0.258(5) 0.5498(19) 0.0100 Uiso
O2_2 O 0.1350(10) 0.417(4) 0.6297(15) 0.0100 Uiso
O7_2 O 0.312(4) 0.085(5) 0.575(3) 0.1270 Uiso
O8_2 O 0.3806(10) 0.379(4) 0.6386(15) 0.0100 Uiso
O9_2 O 0.2779(10) 0.464(5) 0.5716(19) 0.0100 Uiso
O10_2 O 0.2690(12) 0.5116(12) 0.7085(8) 0.0100 Uiso
O11_2 O 0.1847(12) 0.1890(14) 0.7388(7) 0.0100 Uiso
O12_2 O 0.3153(12) 0.3110(14) 0.7612(7) 0.0100 Uiso
H2_2 H 0.0017879 0.500164 0.624794 . .
H3_2 H 0.0367097 0.200964 0.477637 . .
C3_2 C 0.9796(7) 0.4376(16) 0.5837(9) 0.0100 Uiso
C4_2 C 0.9025(6) 0.445(2) 0.5601(10) 0.0100 Uiso
C5_2 C 0.8739(6) 0.365(2) 0.5068(9) 0.0100 Uiso
C6_2 C 0.9223(5) 0.2767(12) 0.4771(7) 0.0100 Uiso
C7_2 C 0.9993(7) 0.2690(19) 0.5007(9) 0.0100 Uiso
C8_2 C 0.8524(8) 0.537(3) 0.5909(14) 0.0100 Uiso
C9_2 C 0.8928(3) 0.1939(9) 0.4222(4) 0.0100 Uiso
C10_2 C 0.8338(6) 0.2461(11) 0.3783(5) 0.0100 Uiso
C11_2 C 0.8052(6) 0.1657(10) 0.3250(5) 0.0100 Uiso
C12_2 C 0.8355(3) 0.0330(9) 0.3155(4) 0.0100 Uiso
C14_2 C 0.9231(6) 0.0612(10) 0.4128(5) 0.0100 Uiso
O3_2 O 0.8806(10) 0.621(4) 0.6386(15) 0.0100 Uiso
O4_2 O 0.7779(10) 0.536(5) 0.5716(19) 0.0100 Uiso
O5_2 O 0.7690(12) 0.0116(12) 0.2085(8) 0.0100 Uiso
H1_2 H 0.814358 0.371259 0.488465 . .
H4_2 H 0.968647 0.0207637 0.446749 . .
H5_2 H 0.759615 0.206095 0.291077 . .
H6_2 H 0.810331 0.348633 0.385607 . .
C13_2 C 0.8944(6) 0.9808(11) 0.3594(5) 0.0100 Uiso
C15_2 C 0.8058(4) 0.9497(10) 0.2603(6) 0.0100 Uiso
O6_2 O 0.8153(12) 0.8110(14) 0.2612(7) 0.0100 Uiso
Bi4_2 Bi 0.75175(10) 0.8056(2) 0.14370(7) 0.0290 Uiso
H7_2 H 0.91781 0.878217 0.352097 . .
C8_3 C 0.1476(8) 0.037(3) 0.9091(14) 0.0100 Uiso
O3_3 O 0.1194(10) 0.121(4) 0.8614(15) 0.0100 Uiso
O4_3 O 0.2221(10) 0.036(5) 0.9284(19) 0.0100 Uiso
Bi3_2 Bi 0.24825(10) 0.1944(2) 0.85630(7) 0.0290 Uiso
C6_3 C 0.0777(5) 0.7767(12) 0.0229(7) 0.0100 Uiso
C9_3 C 0.1072(3) 0.6939(9) 0.0778(4) 0.0100 Uiso
C10_3 C 0.1662(6) 0.7461(11) 0.1217(5) 0.0100 Uiso
C11_3 C 0.1948(6) 0.6657(10) 0.1750(5) 0.0100 Uiso
C12_3 C 0.1645(3) 0.5330(9) 0.1845(4) 0.0100 Uiso
C13_3 C 0.1056(6) 0.4808(11) 0.1406(5) 0.0100 Uiso
C14_3 C 0.0769(6) 0.5612(10) 0.0872(5) 0.0100 Uiso
C15_3 C 0.1942(4) 0.4497(10) 0.2397(6) 0.0100 Uiso
Bi2_2 Bi 0.25175(10) 0.1944(2) 0.14370(7) 0.0290 Uiso
H1_3 H 0.185642 0.871259 0.0115348 . .
H4_3 H 0.0313528 0.520764 0.0532512 . .
H5_3 H 0.240385 0.706095 0.208923 . .
H6_3 H 0.189669 0.848633 0.114393 . .
H7_3 H 0.0821903 0.378217 0.147903 . .
H2_3 H 0.998212 0.000164273 0.875206 . .
C1_3 C 0.8922(10) 0.841(3) 0.9215(14) 0.0100 Uiso
C2_3 C 0.9720(8) 0.849(2) 0.9460(10) 0.0100 Uiso
O1_3 O 0.8459(11) 0.758(5) 0.9502(19) 0.0100 Uiso
O2_3 O 0.8650(10) 0.917(4) 0.8703(15) 0.0100 Uiso
C16_2 C 0.656(2) 0.465(4) 0.8923(19) 0.1270 Uiso
O7_3 O 0.688(4) 0.585(5) 0.925(3) 0.1270 Uiso
O8_3 O 0.6194(10) 0.879(4) 0.8614(15) 0.0100 Uiso
O9_3 O 0.7221(10) 0.964(5) 0.9284(19) 0.0100 Uiso
O11_3 O 0.8153(12) 0.6890(14) 0.7612(7) 0.0100 Uiso
H8_2 H 0.698573 0.413956 0.867446 . .
H9_2 H 0.636268 0.393243 0.926751 . .
H10_2 H 0.608748 0.496263 0.857759 . .
C8_4 C 0.3524(8) 0.037(3) 0.0909(14) 0.0100 Uiso
O3_4 O 0.3806(10) 0.121(4) 0.1386(15) 0.0100 Uiso
O4_4 O 0.2779(10) 0.036(5) 0.0716(19) 0.0100 Uiso
H2_4 H 0.501788 0.000164273 0.124794 . .
C1_4 C 0.6078(10) 0.841(3) 0.0785(14) 0.0100 Uiso
C2_4 C 0.5280(8) 0.849(2) 0.0540(10) 0.0100 Uiso
C3_3 C 0.4796(7) 0.9376(16) 0.0837(9) 0.0100 Uiso
C4_3 C 0.4025(6) 0.945(2) 0.0601(10) 0.0100 Uiso
C5_3 C 0.3739(6) 0.865(2) 0.0068(9) 0.0100 Uiso
C7_3 C 0.4993(7) 0.7690(19) 0.0007(9) 0.0100 Uiso
O1_4 O 0.6541(11) 0.758(5) 0.0498(19) 0.0100 Uiso
O2_4 O 0.6350(10) 0.917(4) 0.1297(15) 0.0100 Uiso
C16_3 C 0.844(2) 0.465(4) 0.1077(19) 0.1270 Uiso
O7_4 O 0.812(4) 0.585(5) 0.075(3) 0.1270 Uiso
O8_4 O 0.8806(10) 0.879(4) 0.1386(15) 0.0100 Uiso
O9_4 O 0.7779(10) 0.964(5) 0.0716(19) 0.0100 Uiso
O11_4 O 0.6847(12) 0.6890(14) 0.2388(7) 0.0100 Uiso
H8_3 H 0.801427 0.413956 0.132554 . .
H9_3 H 0.863732 0.393243 0.0732491 . .
H10_3 H 0.891252 0.496263 0.142241 . .
C6_4 C 0.4223(5) 0.7767(12) 0.9771(7) 0.0100 Uiso
C9_4 C 0.3928(3) 0.6939(9) 0.9222(4) 0.0100 Uiso
C10_4 C 0.3338(6) 0.7461(11) 0.8783(5) 0.0100 Uiso
C11_4 C 0.3052(6) 0.6657(10) 0.8250(5) 0.0100 Uiso
C12_4 C 0.3355(3) 0.5330(9) 0.8155(4) 0.0100 Uiso
C13_4 C 0.3944(6) 0.4808(11) 0.8594(5) 0.0100 Uiso
C14_4 C 0.4231(6) 0.5612(10) 0.9128(5) 0.0100 Uiso
C15_4 C 0.3058(4) 0.4497(10) 0.7603(6) 0.0100 Uiso
H1_4 H 0.314358 0.871259 0.988465 . .
H3_3 H 0.53671 0.700964 0.977637 . .
H4_4 H 0.468647 0.520764 0.946749 . .
H5_4 H 0.259615 0.706095 0.791077 . .
H6_4 H 0.310331 0.848633 0.885607 . .
H7_4 H 0.41781 0.378217 0.852097 . .
C13_5 C 0.3944(6) 0.0192(11) 0.3594(5) 0.0100 Uiso
C15_5 C 0.3058(4) 0.0503(10) 0.2603(6) 0.0100 Uiso
C16_4 C 0.844(2) 0.035(4) 0.6077(19) 0.1270 Uiso
H7_5 H 0.41781 0.121783 0.352097 . .
H8_4 H 0.801427 0.0860438 0.632554 . .
H9_4 H 0.863732 0.106757 0.573249 . .
H10_4 H 0.891252 0.00373692 0.642241 . .
C1_5 C 0.6078(10) 0.659(3) 0.5785(14) 0.0100 Uiso
C2_5 C 0.5280(8) 0.651(2) 0.5540(10) 0.0100 Uiso
C3_4 C 0.4796(7) 0.5624(16) 0.5837(9) 0.0100 Uiso
C4_4 C 0.4025(6) 0.555(2) 0.5601(10) 0.0100 Uiso
C5_4 C 0.3739(6) 0.635(2) 0.5068(9) 0.0100 Uiso
C6_5 C 0.4223(5) 0.7233(12) 0.4771(7) 0.0100 Uiso
C7_4 C 0.4993(7) 0.7310(19) 0.5007(9) 0.0100 Uiso
C8_5 C 0.3524(8) 0.463(3) 0.5909(14) 0.0100 Uiso
C9_5 C 0.3928(3) 0.8061(9) 0.4222(4) 0.0100 Uiso
C10_5 C 0.3338(6) 0.7539(11) 0.3783(5) 0.0100 Uiso
C11_5 C 0.3052(6) 0.8343(10) 0.3250(5) 0.0100 Uiso
C12_5 C 0.3355(3) 0.9670(9) 0.3155(4) 0.0100 Uiso
C14_5 C 0.4231(6) 0.9388(10) 0.4128(5) 0.0100 Uiso
O1_5 O 0.6541(11) 0.742(5) 0.5498(19) 0.0100 Uiso
O2_5 O 0.6350(10) 0.583(4) 0.6297(15) 0.0100 Uiso
O5_3 O 0.2690(12) 0.9884(12) 0.2085(8) 0.0100 Uiso
O7_5 O 0.812(4) 0.915(5) 0.575(3) 0.1270 Uiso
O10_3 O 0.7690(12) 0.4884(12) 0.7085(8) 0.0100 Uiso
H1_5 H 0.314358 0.628741 0.488465 . .
H2_5 H 0.501788 0.499836 0.624794 . .
H3_4 H 0.53671 0.799036 0.477637 . .
H4_5 H 0.468647 0.979236 0.446749 . .
H5_5 H 0.259615 0.793905 0.291077 . .
H6_5 H 0.310331 0.651367 0.385607 . .
C13_6 C 0.1056(6) 0.0192(11) 0.6406(5) 0.0100 Uiso
C15_6 C 0.1942(4) 0.0503(10) 0.7397(6) 0.0100 Uiso
H7_6 H 0.0821903 0.121783 0.647903 . .
C3_5 C 0.0204(7) 0.5624(16) 0.4163(9) 0.0100 Uiso
C4_5 C 0.0975(6) 0.555(2) 0.4399(10) 0.0100 Uiso
C5_5 C 0.1261(6) 0.635(2) 0.4932(9) 0.0100 Uiso
C6_6 C 0.0777(5) 0.7233(12) 0.5229(7) 0.0100 Uiso
C7_5 C 0.0007(7) 0.7310(19) 0.4993(9) 0.0100 Uiso
C8_6 C 0.1476(8) 0.463(3) 0.4091(14) 0.0100 Uiso
C9_6 C 0.1072(3) 0.8061(9) 0.5778(4) 0.0100 Uiso
C10_6 C 0.1662(6) 0.7539(11) 0.6217(5) 0.0100 Uiso
C11_6 C 0.1948(6) 0.8343(10) 0.6750(5) 0.0100 Uiso
C12_6 C 0.1645(3) 0.9670(9) 0.6845(4) 0.0100 Uiso
C14_6 C 0.0769(6) 0.9388(10) 0.5872(5) 0.0100 Uiso
O5_4 O 0.2310(12) 0.9884(12) 0.7915(8) 0.0100 Uiso
H1_6 H 0.185642 0.628741 0.511535 . .
H4_6 H 0.0313528 0.979236 0.553251 . .
H5_6 H 0.240385 0.793905 0.708923 . .
H6_6 H 0.189669 0.651367 0.614393 . .
C1_6 C 0.8922(10) 0.659(3) 0.4215(14) 0.0100 Uiso
C2_6 C 0.9720(8) 0.651(2) 0.4460(10) 0.0100 Uiso
O1_6 O 0.8459(11) 0.742(5) 0.4502(19) 0.0100 Uiso
O2_6 O 0.8650(10) 0.583(4) 0.3703(15) 0.0100 Uiso
O7_6 O 0.688(4) 0.915(5) 0.425(3) 0.1270 Uiso
O10_4 O 0.7310(12) 0.4884(12) 0.2915(8) 0.0100 Uiso
H2_6 H 0.998212 0.499836 0.375206 . .
H3_5 H 0.96329 0.799036 0.522363 . .
C1_7 C 0.1078(10) 0.159(3) 0.0785(14) 0.0100 Uiso
C2_7 C 0.0280(8) 0.151(2) 0.0540(10) 0.0100 Uiso
O1_7 O 0.1541(11) 0.242(5) 0.0498(19) 0.0100 Uiso
O2_7 O 0.1350(10) 0.083(4) 0.1297(15) 0.0100 Uiso
C16_5 C 0.344(2) 0.535(4) 0.1077(19) 0.1270 Uiso
O7_7 O 0.312(4) 0.415(5) 0.075(3) 0.1270 Uiso
H8_5 H 0.301427 0.586044 0.132554 . .
H9_5 H 0.363732 0.606757 0.0732491 . .
H10_5 H 0.391252 0.503737 0.142241 . .
H2_7 H 0.0017879 0.999836 0.124794 . .
C6_7 C 0.9223(5) 0.2233(12) 0.9771(7) 0.0100 Uiso
C9_7 C 0.8928(3) 0.3061(9) 0.9222(4) 0.0100 Uiso
C10_7 C 0.8338(6) 0.2539(11) 0.8783(5) 0.0100 Uiso
C11_7 C 0.8052(6) 0.3343(10) 0.8250(5) 0.0100 Uiso
C12_7 C 0.8355(3) 0.4670(9) 0.8155(4) 0.0100 Uiso
C13_7 C 0.8944(6) 0.5192(11) 0.8594(5) 0.0100 Uiso
C14_7 C 0.9231(6) 0.4388(10) 0.9128(5) 0.0100 Uiso
C15_7 C 0.8058(4) 0.5503(10) 0.7603(6) 0.0100 Uiso
H1_7 H 0.814358 0.128741 0.988465 . .
H4_7 H 0.968647 0.479236 0.946749 . .
H5_7 H 0.759615 0.293905 0.791077 . .
H6_7 H 0.810331 0.151367 0.885607 . .
H7_7 H 0.91781 0.621783 0.852097 . .
C8_7 C 0.8524(8) 0.963(3) 0.0909(14) 0.0100 Uiso
C6_8 C 0.5777(5) 0.2233(12) 0.0229(7) 0.0100 Uiso
C9_8 C 0.6072(3) 0.3061(9) 0.0778(4) 0.0100 Uiso
C10_8 C 0.6662(6) 0.2539(11) 0.1217(5) 0.0100 Uiso
C11_8 C 0.6948(6) 0.3343(10) 0.1750(5) 0.0100 Uiso
C12_8 C 0.6645(3) 0.4670(9) 0.1845(4) 0.0100 Uiso
C13_8 C 0.6056(6) 0.5192(11) 0.1406(5) 0.0100 Uiso
C14_8 C 0.5769(6) 0.4388(10) 0.0872(5) 0.0100 Uiso
C15_8 C 0.6942(4) 0.5503(10) 0.2397(6) 0.0100 Uiso
H1_8 H 0.685642 0.128741 0.0115348 . .
H3_6 H 0.46329 0.299036 0.0223626 . .
H4_8 H 0.531353 0.479236 0.0532512 . .
H5_8 H 0.740385 0.293905 0.208923 . .
H6_8 H 0.689669 0.151367 0.114393 . .
H7_8 H 0.58219 0.621783 0.147903 . .
C1_8 C 0.3922(10) 0.159(3) 0.9215(14) 0.0100 Uiso
C2_8 C 0.4720(8) 0.151(2) 0.9460(10) 0.0100 Uiso
C3_6 C 0.5204(7) 0.0624(16) 0.9163(9) 0.0100 Uiso
C4_6 C 0.5975(6) 0.055(2) 0.9399(10) 0.0100 Uiso
C5_6 C 0.6261(6) 0.135(2) 0.9932(9) 0.0100 Uiso
C7_6 C 0.5007(7) 0.2310(19) 0.9993(9) 0.0100 Uiso
O1_8 O 0.3459(11) 0.242(5) 0.9502(19) 0.0100 Uiso
O2_8 O 0.3650(10) 0.083(4) 0.8703(15) 0.0100 Uiso
C16_6 C 0.156(2) 0.535(4) 0.8923(19) 0.1270 Uiso
O7_8 O 0.188(4) 0.415(5) 0.925(3) 0.1270 Uiso
H8_6 H 0.198573 0.586044 0.867446 . .
H9_6 H 0.136268 0.606757 0.926751 . .
H10_6 H 0.108748 0.503737 0.857759 . .
C8_8 C 0.6476(8) 0.963(3) 0.9091(14) 0.0100 Uiso
H2_8 H 0.498212 0.999836 0.875206 . .
C16_7 C 0.344(2) 0.965(4) 0.6077(19) 0.1270 Uiso
H8_7 H 0.301427 0.913956 0.632554 . .
H9_7 H 0.363732 0.893243 0.573249 . .
H10_7 H 0.391252 0.996263 0.642241 . .
C3_7 C 0.0204(7) 0.9376(16) 0.9163(9) 0.0100 Uiso
C4_7 C 0.0975(6) 0.945(2) 0.9399(10) 0.0100 Uiso
C5_7 C 0.1261(6) 0.865(2) 0.9932(9) 0.0100 Uiso
C7_7 C 0.0007(7) 0.7690(19) 0.9993(9) 0.0100 Uiso
H3_7 H 0.96329 0.700964 0.0223626 . .
C16_8 C 0.656(2) 0.035(4) 0.3923(19) 0.1270 Uiso
H8_8 H 0.698573 0.0860438 0.367446 . .
H9_8 H 0.636268 0.106757 0.426751 . .
H10_8 H 0.608748 0.00373692 0.357759 . .
H3_8 H 0.0367097 0.299036 0.977637 . .
C3_8 C 0.9796(7) 0.0624(16) 0.0837(9) 0.0100 Uiso
C4_8 C 0.9025(6) 0.055(2) 0.0601(10) 0.0100 Uiso
C5_8 C 0.8739(6) 0.135(2) 0.0068(9) 0.0100 Uiso
C7_8 C 0.9993(7) 0.2310(19) 0.0007(9) 0.0100 Uiso
loop_
_geom_bond_atom_site_label_1
_geom_bond_atom_site_label_2
_geom_bond_site_symmetry_1
_geom_bond_site_symmetry_2
Bi1 O1 1_555 1_555
C1 C2 1_555 1_555
C2 C3 1_555 1_555
C3 C4 1_555 1_555
C4 C5 1_555 1_555
C5 C6 1_555 1_555
C6 C7 1_555 1_555
C7 C2 1_555 1_555
C8 C4 1_555 1_555
C9 C6 1_555 1_555
C10 C9 1_555 1_555
C11 C10 1_555 1_555
C12 C11 1_555 1_555
C14 C9 1_555 1_555
O1 C1 1_555 1_555
O2 Bi1 1_555 1_555
O3 C8 1_555 1_555
O4 C8 1_555 1_555
O7 Bi1 1_555 1_555
Bi3 O3 1_555 1_555
O8 Bi1 1_555 1_555
O9 Bi1 1_555 1_555
O10 Bi1 1_555 1_555
O11 Bi1 1_555 1_555
O12 Bi1 1_555 1_555
C1 O2 1_555 1_555
O4 Bi3 1_555 1_555
C5 H1 1_555 1_555
C3 H2 1_555 1_555
C7 H3 1_555 1_555
C14 H4 1_555 1_555
C11 H5 1_555 1_555
C10 H6 1_555 1_555
O6 C15 1_555 1_555
Bi2 O6 1_555 1_555
O6 Bi4 1_555 1_555
C13 H7 1_555 1_555
C16 H8 1_555 1_555
C16 H9 1_555 1_555
C16 H10 1_555 1_555
Bi1_2 O1_2 1_555 1_555
C1_2 C2_2 1_555 1_555
O1_2 C1_2 1_555 1_555
O2_2 Bi1_2 1_555 1_555
O7_2 Bi1_2 1_555 1_555
O8_2 Bi1_2 1_555 1_555
O9_2 Bi1_2 1_555 1_555
O10_2 Bi1_2 1_555 1_555
O11_2 Bi1_2 1_555 1_555
O12_2 Bi1_2 1_555 1_555
C1_2 O2_2 1_555 1_555
C3_2 C4_2 1_555 1_555
C4_2 C5_2 1_555 1_555
C5_2 C6_2 1_555 1_555
C6_2 C7_2 1_555 1_555
C8_2 C4_2 1_555 1_555
C9_2 C6_2 1_555 1_555
C10_2 C9_2 1_555 1_555
C11_2 C10_2 1_555 1_555
C12_2 C11_2 1_555 1_555
C14_2 C9_2 1_555 1_555
O3_2 C8_2 1_555 1_555
O4_2 C8_2 1_555 1_555
Bi2 O3_2 1_555 1_555
O4_2 Bi2 1_555 1_555
C5_2 H1_2 1_555 1_555
C14_2 H4_2 1_555 1_555
C11_2 H5_2 1_555 1_555
C10_2 H6_2 1_555 1_555
O6_2 C15_2 1_555 1_555
Bi3 O6_2 1_555 1_555
O6_2 Bi4_2 1_555 1_555
C13_2 H7_2 1_555 1_555
O3_3 C8_3 1_555 1_555
O4_3 C8_3 1_555 1_555
Bi3_2 O3_3 1_555 1_555
O4_3 Bi3_2 1_555 1_555
C9_3 C6_3 1_555 1_555
C10_3 C9_3 1_555 1_555
C11_3 C10_3 1_555 1_555
C12_3 C11_3 1_555 1_555
C13_3 C12_3 1_555 1_555
C14_3 C9_3 1_555 1_555
C15_3 C12_3 1_555 1_555
O10 C15_3 1_555 1_555
O12 C15_3 1_555 1_555
Bi2_2 O12 1_555 1_555
C13_3 C14_3 1_555 1_555
C14_3 H4_3 1_555 1_555
C11_3 H5_3 1_555 1_555
C10_3 H6_3 1_555 1_555
C13_3 H7_3 1_555 1_555
Bi4 O1_3 1_555 1_555
C1_3 C2_3 1_555 1_555
O1_3 C1_3 1_555 1_555
O2_3 Bi4 1_555 1_555
C16_2 O7_3 1_555 1_555
O7_3 Bi4 1_555 1_555
O8_3 Bi4 1_555 1_555
O9_3 Bi4 1_555 1_555
O11_3 Bi4 1_555 1_555
C1_3 O2_3 1_555 1_555
C16_2 H8_2 1_555 1_555
C16_2 H9_2 1_555 1_555
C16_2 H10_2 1_555 1_555
O3_4 C8_4 1_555 1_555
O4_4 C8_4 1_555 1_555
Bi2_2 O3_4 1_555 1_555
O4_4 Bi2_2 1_555 1_555
Bi4_2 O1_4 1_555 1_555
C1_4 C2_4 1_555 1_555
C2_4 C3_3 1_555 1_555
C3_3 C4_3 1_555 1_555
C4_3 C5_3 1_555 1_555
C7_3 C2_4 1_555 1_555
O1_4 C1_4 1_555 1_555
O2_4 Bi4_2 1_555 1_555
C16_3 O7_4 1_555 1_555
O7_4 Bi4_2 1_555 1_555
O8_4 Bi4_2 1_555 1_555
O9_4 Bi4_2 1_555 1_555
O11_4 Bi4_2 1_555 1_555
C1_4 O2_4 1_555 1_555
C16_3 H8_3 1_555 1_555
C16_3 H9_3 1_555 1_555
C16_3 H10_3 1_555 1_555
C9_4 C6_4 1_555 1_555
C10_4 C9_4 1_555 1_555
C11_4 C10_4 1_555 1_555
C12_4 C11_4 1_555 1_555
C13_4 C12_4 1_555 1_555
C14_4 C9_4 1_555 1_555
C15_4 C12_4 1_555 1_555
O10_2 C15_4 1_555 1_555
O12_2 C15_4 1_555 1_555
Bi3_2 O12_2 1_555 1_555
C13_4 C14_4 1_555 1_555
C14_4 H4_4 1_555 1_555
C11_4 H5_4 1_555 1_555
C10_4 H6_4 1_555 1_555
C13_4 H7_4 1_555 1_555
O11 C15_5 1_555 1_555
O11 Bi2_2 1_555 1_555
C13_5 H7_5 1_555 1_555
C16_4 H8_4 1_555 1_555
C16_4 H9_4 1_555 1_555
C16_4 H10_4 1_555 1_555
Bi2 O1_5 1_555 1_555
C1_5 C2_5 1_555 1_555
C2_5 C3_4 1_555 1_555
C3_4 C4_4 1_555 1_555
C4_4 C5_4 1_555 1_555
C5_4 C6_5 1_555 1_555
C6_5 C7_4 1_555 1_555
C7_4 C2_5 1_555 1_555
C8_5 C4_4 1_555 1_555
C9_5 C6_5 1_555 1_555
C10_5 C9_5 1_555 1_555
C11_5 C10_5 1_555 1_555
C12_5 C11_5 1_555 1_555
C14_5 C9_5 1_555 1_555
O1_5 C1_5 1_555 1_555
O2_5 Bi2 1_555 1_555
O8_2 C8_5 1_555 1_555
O9_2 C8_5 1_555 1_555
O7_5 Bi2 1_555 1_555
O10_3 Bi2 1_555 1_555
O11_3 Bi2 1_555 1_555
C1_5 O2_5 1_555 1_555
C5_4 H1_5 1_555 1_555
C3_4 H2_5 1_555 1_555
C7_4 H3_4 1_555 1_555
C14_5 H4_5 1_555 1_555
C11_5 H5_5 1_555 1_555
C10_5 H6_5 1_555 1_555
O11_2 C15_6 1_555 1_555
O11_2 Bi3_2 1_555 1_555
C13_6 H7_6 1_555 1_555
C3_5 C4_5 1_555 1_555
C4_5 C5_5 1_555 1_555
C5_5 C6_6 1_555 1_555
C6_6 C7_5 1_555 1_555
C8_6 C4_5 1_555 1_555
C9_6 C6_6 1_555 1_555
C10_6 C9_6 1_555 1_555
C11_6 C10_6 1_555 1_555
C12_6 C11_6 1_555 1_555
C14_6 C9_6 1_555 1_555
O8 C8_6 1_555 1_555
O9 C8_6 1_555 1_555
C5_5 H1_6 1_555 1_555
C14_6 H4_6 1_555 1_555
C11_6 H5_6 1_555 1_555
C10_6 H6_6 1_555 1_555
Bi3 O1_6 1_555 1_555
C1_6 C2_6 1_555 1_555
O1_6 C1_6 1_555 1_555
O2_6 Bi3 1_555 1_555
O7_6 Bi3 1_555 1_555
O10_4 Bi3 1_555 1_555
O11_4 Bi3 1_555 1_555
C1_6 O2_6 1_555 1_555
Bi2_2 O1_7 1_555 1_555
C1_7 C2_7 1_555 1_555
O1_7 C1_7 1_555 1_555
O2_7 Bi2_2 1_555 1_555
C16_5 O7_7 1_555 1_555
O7_7 Bi2_2 1_555 1_555
C1_7 O2_7 1_555 1_555
C16_5 H8_5 1_555 1_555
C16_5 H9_5 1_555 1_555
C16_5 H10_5 1_555 1_555
C9_7 C6_7 1_555 1_555
C10_7 C9_7 1_555 1_555
C11_7 C10_7 1_555 1_555
C12_7 C11_7 1_555 1_555
C13_7 C12_7 1_555 1_555
C14_7 C9_7 1_555 1_555
C15_7 C12_7 1_555 1_555
O10_3 C15_7 1_555 1_555
O11_3 C15_7 1_555 1_555
C13_7 C14_7 1_555 1_555
C14_7 H4_7 1_555 1_555
C11_7 H5_7 1_555 1_555
C10_7 H6_7 1_555 1_555
C13_7 H7_7 1_555 1_555
O8_4 C8_7 1_555 1_555
O9_4 C8_7 1_555 1_555
C9_8 C6_8 1_555 1_555
C10_8 C9_8 1_555 1_555
C11_8 C10_8 1_555 1_555
C12_8 C11_8 1_555 1_555
C13_8 C12_8 1_555 1_555
C14_8 C9_8 1_555 1_555
C15_8 C12_8 1_555 1_555
O10_4 C15_8 1_555 1_555
O11_4 C15_8 1_555 1_555
C13_8 C14_8 1_555 1_555
C14_8 H4_8 1_555 1_555
C11_8 H5_8 1_555 1_555
C10_8 H6_8 1_555 1_555
C13_8 H7_8 1_555 1_555
Bi3_2 O1_8 1_555 1_555
C1_8 C2_8 1_555 1_555
C2_8 C3_6 1_555 1_555
C3_6 C4_6 1_555 1_555
C4_6 C5_6 1_555 1_555
C7_6 C2_8 1_555 1_555
O1_8 C1_8 1_555 1_555
O2_8 Bi3_2 1_555 1_555
C16_6 O7_8 1_555 1_555
O7_8 Bi3_2 1_555 1_555
C1_8 O2_8 1_555 1_555
C16_6 H8_6 1_555 1_555
C16_6 H9_6 1_555 1_555
C16_6 H10_6 1_555 1_555
O8_3 C8_8 1_555 1_555
O9_3 C8_8 1_555 1_555
C16_7 H8_7 1_555 1_555
C16_7 H9_7 1_555 1_555
C16_7 H10_7 1_555 1_555
C3_7 C4_7 1_555 1_555
C4_7 C5_7 1_555 1_555
C16_8 H8_8 1_555 1_555
C16_8 H9_8 1_555 1_555
C16_8 H10_8 1_555 1_555
C3_8 C4_8 1_555 1_555
C4_8 C5_8 1_555 1_555

#END
