
###############################################################################
#
# This file contains modified crystal structure data generated from the
# MOF subset of the Cambridge Structural Database (CSD) v543 
# hosted by the Cambridge Crystallographic Data Centre (CCDC).
#
# This work is licensed under the Creative Commons
# Attribution-NonCommercial-ShareAlike 4.0 International License.
# To view a copy of this license, visit
# http://creativecommons.org/licenses/by-nc-sa/4.0/
# or send a letter to
# Creative Commons, PO Box 1866, Mountain View, CA 94042, USA.
#
# CIF created using the CSD Python API on 29 September 2022
# The structure has been converted into the P1 space group
# The structure has a 3D framework
# The original CSD entry VUVYOD is in the monoclinic crystal system
# The framework has been calculated to contain at least 10.0% void space
# The void calculation uses a probe of radius 1.32A, grid spacing 0.4
# H atom positions have been added when not included in the experimental data
#
###############################################################################

data_VUVYOD
_chemical_formula_moiety         '(C120 H56 Bi8 O48)n'
_symmetry_cell_setting           triclinic
_symmetry_space_group_name_H-M   'P 1'
_symmetry_Int_Tables_number      1
_space_group_name_Hall           'P 1'
loop_
_symmetry_equiv_pos_site_id
_symmetry_equiv_pos_as_xyz
1 x,y,z
_cell_length_a                   18.0187(13)
_cell_length_b                   10.8566(8)
_cell_length_c                   20.4784(15)
_cell_angle_alpha                90
_cell_angle_beta                 99.1116(5)
_cell_angle_gamma                90
_cell_volume                     3955.47
loop_
_atom_site_label
_atom_site_type_symbol
_atom_site_fract_x
_atom_site_fract_y
_atom_site_fract_z
_atom_site_U_iso_or_equiv
_atom_site_thermal_displace_type
Bi1 Bi 0.24676(5) 0.33397(11) 0.34815(5) 0.0279 Uiso
C1 C 0.3944(6) 0.3620(17) 0.4153(9) 0.0518 Uiso
C2 C 0.4742(5) 0.3636(11) 0.4402(6) 0.0518 Uiso
C3 C 0.5216(4) 0.4435(9) 0.4124(6) 0.0518 Uiso
C4 C 0.5987(4) 0.4450(11) 0.4365(6) 0.0518 Uiso
C5 C 0.6285(3) 0.3666(10) 0.4884(6) 0.0518 Uiso
C6 C 0.5811(3) 0.2867(7) 0.5161(4) 0.0518 Uiso
C7 C 0.5039(4) 0.2851(10) 0.4920(6) 0.0518 Uiso
C8 C 0.6477(5) 0.5277(17) 0.4078(9) 0.0518 Uiso
C9 C 0.6119(2) 0.2054(5) 0.5698(3) 0.0518 Uiso
C10 C 0.6612(4) 0.2519(6) 0.6240(3) 0.0518 Uiso
C11 C 0.6910(4) 0.1735(5) 0.6758(3) 0.0518 Uiso
C12 C 0.6715(2) 0.0486(5) 0.6735(3) 0.0518 Uiso
C13 C 0.6222(4) 0.0021(6) 0.6194(3) 0.0518 Uiso
C14 C 0.5925(4) 0.0805(5) 0.5676(3) 0.0518 Uiso
O1 O 0.3487(6) 0.293(2) 0.4448(12) 0.0518 Uiso
O2 O 0.3670(6) 0.4291(18) 0.3630(10) 0.0518 Uiso
O3 O 0.6189(5) 0.6089(18) 0.3626(10) 0.0518 Uiso
O4 O 0.7214(6) 0.522(2) 0.4268(12) 0.0518 Uiso
O5 O 0.7418(7) 0.0136(7) 0.7817(5) 0.0518 Uiso
Bi3 Bi 0.74676(5) 0.66603(11) 0.34815(5) 0.0279 Uiso
O7 O 0.1189(5) 0.3911(18) 0.3626(10) 0.0518 Uiso
O8 O 0.2214(6) 0.478(2) 0.4268(12) 0.0518 Uiso
O9 O 0.2418(7) 0.5136(7) 0.2817(5) 0.0518 Uiso
O10 O 0.3091(7) 0.1528(8) 0.2783(5) 0.0518 Uiso
O11 O 0.1909(7) 0.3472(8) 0.2217(5) 0.0518 Uiso
H2 H 0.498458 0.504452 0.372034 . .
H3 H 0.729353 0.209643 0.717893 . .
H4 H 0.676325 0.349096 0.625804 . .
H5 H 0.68852 0.367837 0.507176 . .
H6 H 0.467027 0.222837 0.513548 . .
H7 H 0.554214 0.0442753 0.525487 . .
C15 C 0.7023(3) 0.9675(6) 0.7272(4) 0.0518 Uiso
O6 O 0.6909(7) 0.8472(8) 0.7217(5) 0.0518 Uiso
Bi2 Bi 0.75324(5) 0.66603(11) 0.65185(5) 0.0279 Uiso
Bi4 Bi 0.74676(5) 0.83397(11) 0.84815(5) 0.0279 Uiso
H1 H 0.606982 0.904944 0.617646 . .
Bi1_2 Bi 0.25324(5) 0.33397(11) 0.65185(5) 0.0279 Uiso
C1_2 C 0.1056(6) 0.3620(17) 0.5847(9) 0.0518 Uiso
C2_2 C 0.0258(5) 0.3636(11) 0.5598(6) 0.0518 Uiso
O1_2 O 0.1513(6) 0.293(2) 0.5552(12) 0.0518 Uiso
O2_2 O 0.1330(6) 0.4291(18) 0.6370(10) 0.0518 Uiso
O7_2 O 0.3811(5) 0.3911(18) 0.6374(10) 0.0518 Uiso
O8_2 O 0.2786(6) 0.478(2) 0.5732(12) 0.0518 Uiso
O9_2 O 0.2582(7) 0.5136(7) 0.7183(5) 0.0518 Uiso
O10_2 O 0.1909(7) 0.1528(8) 0.7217(5) 0.0518 Uiso
O11_2 O 0.3091(7) 0.3472(8) 0.7783(5) 0.0518 Uiso
H2_2 H 0.00154175 0.504452 0.627966 . .
H6_2 H 0.032973 0.222837 0.486452 . .
C3_2 C 0.9784(4) 0.4435(9) 0.5876(6) 0.0518 Uiso
C4_2 C 0.9013(4) 0.4450(11) 0.5635(6) 0.0518 Uiso
C5_2 C 0.8715(3) 0.3666(10) 0.5116(6) 0.0518 Uiso
C6_2 C 0.9189(3) 0.2867(7) 0.4839(4) 0.0518 Uiso
C7_2 C 0.9961(4) 0.2851(10) 0.5080(6) 0.0518 Uiso
C8_2 C 0.8523(5) 0.5277(17) 0.5922(9) 0.0518 Uiso
C9_2 C 0.8881(2) 0.2054(5) 0.4302(3) 0.0518 Uiso
C10_2 C 0.8388(4) 0.2519(6) 0.3760(3) 0.0518 Uiso
C11_2 C 0.8090(4) 0.1735(5) 0.3242(3) 0.0518 Uiso
C12_2 C 0.8285(2) 0.0486(5) 0.3265(3) 0.0518 Uiso
C13_2 C 0.8778(4) 0.0021(6) 0.3806(3) 0.0518 Uiso
C14_2 C 0.9075(4) 0.0805(5) 0.4324(3) 0.0518 Uiso
O3_2 O 0.8811(5) 0.6089(18) 0.6374(10) 0.0518 Uiso
O4_2 O 0.7786(6) 0.522(2) 0.5732(12) 0.0518 Uiso
O5_2 O 0.7582(7) 0.0136(7) 0.2183(5) 0.0518 Uiso
H3_2 H 0.770647 0.209643 0.282107 . .
H4_2 H 0.823675 0.349096 0.374196 . .
H5_2 H 0.81148 0.367837 0.492824 . .
H7_2 H 0.945786 0.0442753 0.474513 . .
C15_2 C 0.7977(3) 0.9675(6) 0.2728(4) 0.0518 Uiso
O6_2 O 0.8091(7) 0.8472(8) 0.2783(5) 0.0518 Uiso
Bi4_2 Bi 0.75324(5) 0.83397(11) 0.15185(5) 0.0279 Uiso
H1_2 H 0.893018 0.904944 0.382354 . .
C8_3 C 0.1477(5) 0.0277(17) 0.9078(9) 0.0518 Uiso
O3_3 O 0.1189(5) 0.1089(18) 0.8626(10) 0.0518 Uiso
O4_3 O 0.2214(6) 0.022(2) 0.9268(12) 0.0518 Uiso
Bi3_2 Bi 0.24676(5) 0.16603(11) 0.84815(5) 0.0279 Uiso
C6_3 C 0.0811(3) 0.7867(7) 0.0161(4) 0.0518 Uiso
C9_3 C 0.1119(2) 0.7054(5) 0.0698(3) 0.0518 Uiso
C10_3 C 0.1612(4) 0.7519(6) 0.1240(3) 0.0518 Uiso
C11_3 C 0.1910(4) 0.6735(5) 0.1758(3) 0.0518 Uiso
C12_3 C 0.1715(2) 0.5486(5) 0.1735(3) 0.0518 Uiso
C13_3 C 0.1222(4) 0.5021(6) 0.1194(3) 0.0518 Uiso
C14_3 C 0.0925(4) 0.5805(5) 0.0676(3) 0.0518 Uiso
C15_3 C 0.2023(3) 0.4675(6) 0.2272(4) 0.0518 Uiso
Bi2_2 Bi 0.25324(5) 0.16603(11) 0.15185(5) 0.0279 Uiso
H1_3 H 0.106982 0.404944 0.117646 . .
H3_3 H 0.229353 0.709643 0.217893 . .
H4_3 H 0.176325 0.849096 0.125804 . .
H5_3 H 0.18852 0.867837 0.0071764 . .
H7_3 H 0.0542135 0.544275 0.0254865 . .
H2_3 H 0.998458 0.00445199 0.872034 . .
C1_3 C 0.8944(6) 0.8620(17) 0.9153(9) 0.0518 Uiso
C2_3 C 0.9742(5) 0.8636(11) 0.9402(6) 0.0518 Uiso
O1_3 O 0.8487(6) 0.793(2) 0.9448(12) 0.0518 Uiso
O2_3 O 0.8670(6) 0.9291(18) 0.8630(10) 0.0518 Uiso
O7_3 O 0.6189(5) 0.8911(18) 0.8626(10) 0.0518 Uiso
O8_3 O 0.7214(6) 0.978(2) 0.9268(12) 0.0518 Uiso
O10_3 O 0.8091(7) 0.6528(8) 0.7783(5) 0.0518 Uiso
C8_4 C 0.3523(5) 0.0277(17) 0.0922(9) 0.0518 Uiso
O3_4 O 0.3811(5) 0.1089(18) 0.1374(10) 0.0518 Uiso
O4_4 O 0.2786(6) 0.022(2) 0.0732(12) 0.0518 Uiso
H2_4 H 0.501542 0.00445199 0.127966 . .
C1_4 C 0.6056(6) 0.8620(17) 0.0847(9) 0.0518 Uiso
C2_4 C 0.5258(5) 0.8636(11) 0.0598(6) 0.0518 Uiso
C3_3 C 0.4784(4) 0.9435(9) 0.0876(6) 0.0518 Uiso
C4_3 C 0.4013(4) 0.9450(11) 0.0635(6) 0.0518 Uiso
C5_3 C 0.3715(3) 0.8666(10) 0.0116(6) 0.0518 Uiso
C7_3 C 0.4961(4) 0.7851(10) 0.0080(6) 0.0518 Uiso
O1_4 O 0.6513(6) 0.793(2) 0.0552(12) 0.0518 Uiso
O2_4 O 0.6330(6) 0.9291(18) 0.1370(10) 0.0518 Uiso
O7_4 O 0.8811(5) 0.8911(18) 0.1374(10) 0.0518 Uiso
O8_4 O 0.7786(6) 0.978(2) 0.0732(12) 0.0518 Uiso
O10_4 O 0.6909(7) 0.6528(8) 0.2217(5) 0.0518 Uiso
C6_4 C 0.4189(3) 0.7867(7) 0.9839(4) 0.0518 Uiso
C9_4 C 0.3881(2) 0.7054(5) 0.9302(3) 0.0518 Uiso
C10_4 C 0.3388(4) 0.7519(6) 0.8760(3) 0.0518 Uiso
C11_4 C 0.3090(4) 0.6735(5) 0.8242(3) 0.0518 Uiso
C12_4 C 0.3285(2) 0.5486(5) 0.8265(3) 0.0518 Uiso
C13_4 C 0.3778(4) 0.5021(6) 0.8806(3) 0.0518 Uiso
C14_4 C 0.4075(4) 0.5805(5) 0.9324(3) 0.0518 Uiso
C15_4 C 0.2977(3) 0.4675(6) 0.7728(4) 0.0518 Uiso
H1_4 H 0.393018 0.404944 0.882354 . .
H3_4 H 0.270647 0.709643 0.782107 . .
H4_4 H 0.323675 0.849096 0.874196 . .
H5_4 H 0.31148 0.867837 0.992824 . .
H6_3 H 0.532973 0.722837 0.986452 . .
H7_4 H 0.445786 0.544275 0.974513 . .
C15_5 C 0.2977(3) 0.0325(6) 0.2728(4) 0.0518 Uiso
H1_5 H 0.393018 0.0950555 0.382354 . .
C1_5 C 0.6056(6) 0.6380(17) 0.5847(9) 0.0518 Uiso
C2_5 C 0.5258(5) 0.6364(11) 0.5598(6) 0.0518 Uiso
C3_4 C 0.4784(4) 0.5565(9) 0.5876(6) 0.0518 Uiso
C4_4 C 0.4013(4) 0.5550(11) 0.5635(6) 0.0518 Uiso
C5_4 C 0.3715(3) 0.6334(10) 0.5116(6) 0.0518 Uiso
C6_5 C 0.4189(3) 0.7133(7) 0.4839(4) 0.0518 Uiso
C7_4 C 0.4961(4) 0.7149(10) 0.5080(6) 0.0518 Uiso
C8_5 C 0.3523(5) 0.4723(17) 0.5922(9) 0.0518 Uiso
C9_5 C 0.3881(2) 0.7946(5) 0.4302(3) 0.0518 Uiso
C10_5 C 0.3388(4) 0.7481(6) 0.3760(3) 0.0518 Uiso
C11_5 C 0.3090(4) 0.8265(5) 0.3242(3) 0.0518 Uiso
C12_5 C 0.3285(2) 0.9514(5) 0.3265(3) 0.0518 Uiso
C13_5 C 0.3778(4) 0.9979(6) 0.3806(3) 0.0518 Uiso
C14_5 C 0.4075(4) 0.9195(5) 0.4324(3) 0.0518 Uiso
O1_5 O 0.6513(6) 0.707(2) 0.5552(12) 0.0518 Uiso
O2_5 O 0.6330(6) 0.5709(18) 0.6370(10) 0.0518 Uiso
O5_3 O 0.2582(7) 0.9864(7) 0.2183(5) 0.0518 Uiso
O9_3 O 0.7582(7) 0.4864(7) 0.7183(5) 0.0518 Uiso
H2_5 H 0.501542 0.495548 0.627966 . .
H3_5 H 0.270647 0.790357 0.282107 . .
H4_5 H 0.323675 0.650904 0.374196 . .
H5_5 H 0.31148 0.632163 0.492824 . .
H6_4 H 0.532973 0.777163 0.486452 . .
H7_5 H 0.445786 0.955725 0.474513 . .
C15_6 C 0.2023(3) 0.0325(6) 0.7272(4) 0.0518 Uiso
H1_6 H 0.106982 0.0950555 0.617646 . .
C3_5 C 0.0216(4) 0.5565(9) 0.4124(6) 0.0518 Uiso
C4_5 C 0.0987(4) 0.5550(11) 0.4365(6) 0.0518 Uiso
C5_5 C 0.1285(3) 0.6334(10) 0.4884(6) 0.0518 Uiso
C6_6 C 0.0811(3) 0.7133(7) 0.5161(4) 0.0518 Uiso
C7_5 C 0.0039(4) 0.7149(10) 0.4920(6) 0.0518 Uiso
C8_6 C 0.1477(5) 0.4723(17) 0.4078(9) 0.0518 Uiso
C9_6 C 0.1119(2) 0.7946(5) 0.5698(3) 0.0518 Uiso
C10_6 C 0.1612(4) 0.7481(6) 0.6240(3) 0.0518 Uiso
C11_6 C 0.1910(4) 0.8265(5) 0.6758(3) 0.0518 Uiso
C12_6 C 0.1715(2) 0.9514(5) 0.6735(3) 0.0518 Uiso
C13_6 C 0.1222(4) 0.9979(6) 0.6194(3) 0.0518 Uiso
C14_6 C 0.0925(4) 0.9195(5) 0.5676(3) 0.0518 Uiso
O5_4 O 0.2418(7) 0.9864(7) 0.7817(5) 0.0518 Uiso
H3_6 H 0.229353 0.790357 0.717893 . .
H4_6 H 0.176325 0.650904 0.625804 . .
H5_6 H 0.18852 0.632163 0.507176 . .
H7_6 H 0.0542135 0.955725 0.525487 . .
C1_6 C 0.8944(6) 0.6380(17) 0.4153(9) 0.0518 Uiso
C2_6 C 0.9742(5) 0.6364(11) 0.4402(6) 0.0518 Uiso
O1_6 O 0.8487(6) 0.707(2) 0.4448(12) 0.0518 Uiso
O2_6 O 0.8670(6) 0.5709(18) 0.3630(10) 0.0518 Uiso
O9_4 O 0.7418(7) 0.4864(7) 0.2817(5) 0.0518 Uiso
H2_6 H 0.998458 0.495548 0.372034 . .
H6_5 H 0.967027 0.777163 0.513548 . .
C1_7 C 0.1056(6) 0.1380(17) 0.0847(9) 0.0518 Uiso
C2_7 C 0.0258(5) 0.1364(11) 0.0598(6) 0.0518 Uiso
O1_7 O 0.1513(6) 0.207(2) 0.0552(12) 0.0518 Uiso
O2_7 O 0.1330(6) 0.0709(18) 0.1370(10) 0.0518 Uiso
H2_7 H 0.00154175 0.995548 0.127966 . .
C6_7 C 0.9189(3) 0.2133(7) 0.9839(4) 0.0518 Uiso
C9_7 C 0.8881(2) 0.2946(5) 0.9302(3) 0.0518 Uiso
C10_7 C 0.8388(4) 0.2481(6) 0.8760(3) 0.0518 Uiso
C11_7 C 0.8090(4) 0.3265(5) 0.8242(3) 0.0518 Uiso
C12_7 C 0.8285(2) 0.4514(5) 0.8265(3) 0.0518 Uiso
C13_7 C 0.8778(4) 0.4979(6) 0.8806(3) 0.0518 Uiso
C14_7 C 0.9075(4) 0.4195(5) 0.9324(3) 0.0518 Uiso
C15_7 C 0.7977(3) 0.5325(6) 0.7728(4) 0.0518 Uiso
H1_7 H 0.893018 0.595056 0.882354 . .
H3_7 H 0.770647 0.290357 0.782107 . .
H4_7 H 0.823675 0.150904 0.874196 . .
H5_7 H 0.81148 0.132163 0.992824 . .
H7_7 H 0.945786 0.455725 0.974513 . .
C8_7 C 0.8523(5) 0.9723(17) 0.0922(9) 0.0518 Uiso
C6_8 C 0.5811(3) 0.2133(7) 0.0161(4) 0.0518 Uiso
C9_8 C 0.6119(2) 0.2946(5) 0.0698(3) 0.0518 Uiso
C10_8 C 0.6612(4) 0.2481(6) 0.1240(3) 0.0518 Uiso
C11_8 C 0.6910(4) 0.3265(5) 0.1758(3) 0.0518 Uiso
C12_8 C 0.6715(2) 0.4514(5) 0.1735(3) 0.0518 Uiso
C13_8 C 0.6222(4) 0.4979(6) 0.1194(3) 0.0518 Uiso
C14_8 C 0.5925(4) 0.4195(5) 0.0676(3) 0.0518 Uiso
C15_8 C 0.7023(3) 0.5325(6) 0.2272(4) 0.0518 Uiso
H1_8 H 0.606982 0.595056 0.117646 . .
H3_8 H 0.729353 0.290357 0.217893 . .
H4_8 H 0.676325 0.150904 0.125804 . .
H5_8 H 0.68852 0.132163 0.0071764 . .
H6_6 H 0.467027 0.277163 0.0135476 . .
H7_8 H 0.554214 0.455725 0.0254865 . .
C1_8 C 0.3944(6) 0.1380(17) 0.9153(9) 0.0518 Uiso
C2_8 C 0.4742(5) 0.1364(11) 0.9402(6) 0.0518 Uiso
C3_6 C 0.5216(4) 0.0565(9) 0.9124(6) 0.0518 Uiso
C4_6 C 0.5987(4) 0.0550(11) 0.9365(6) 0.0518 Uiso
C5_6 C 0.6285(3) 0.1334(10) 0.9884(6) 0.0518 Uiso
C7_6 C 0.5039(4) 0.2149(10) 0.9920(6) 0.0518 Uiso
O1_8 O 0.3487(6) 0.207(2) 0.9448(12) 0.0518 Uiso
O2_8 O 0.3670(6) 0.0709(18) 0.8630(10) 0.0518 Uiso
C8_8 C 0.6477(5) 0.9723(17) 0.9078(9) 0.0518 Uiso
H2_8 H 0.498458 0.995548 0.872034 . .
C3_7 C 0.0216(4) 0.9435(9) 0.9124(6) 0.0518 Uiso
C4_7 C 0.0987(4) 0.9450(11) 0.9365(6) 0.0518 Uiso
C5_7 C 0.1285(3) 0.8666(10) 0.9884(6) 0.0518 Uiso
C7_7 C 0.0039(4) 0.7851(10) 0.9920(6) 0.0518 Uiso
H6_7 H 0.967027 0.722837 0.0135476 . .
H6_8 H 0.032973 0.277163 0.986452 . .
C3_8 C 0.9784(4) 0.0565(9) 0.0876(6) 0.0518 Uiso
C4_8 C 0.9013(4) 0.0550(11) 0.0635(6) 0.0518 Uiso
C5_8 C 0.8715(3) 0.1334(10) 0.0116(6) 0.0518 Uiso
C7_8 C 0.9961(4) 0.2149(10) 0.0080(6) 0.0518 Uiso
loop_
_geom_bond_atom_site_label_1
_geom_bond_atom_site_label_2
_geom_bond_site_symmetry_1
_geom_bond_site_symmetry_2
Bi1 O1 1_555 1_555
C1 C2 1_555 1_555
C2 C3 1_555 1_555
C3 C4 1_555 1_555
C4 C5 1_555 1_555
C5 C6 1_555 1_555
C6 C7 1_555 1_555
C7 C2 1_555 1_555
C8 C4 1_555 1_555
C9 C6 1_555 1_555
C10 C9 1_555 1_555
C11 C10 1_555 1_555
C12 C11 1_555 1_555
C13 C12 1_555 1_555
C14 C9 1_555 1_555
O1 C1 1_555 1_555
O2 Bi1 1_555 1_555
O3 C8 1_555 1_555
O4 C8 1_555 1_555
Bi3 O3 1_555 1_555
O7 Bi1 1_555 1_555
O8 Bi1 1_555 1_555
O9 Bi1 1_555 1_555
O10 Bi1 1_555 1_555
O11 Bi1 1_555 1_555
C1 O2 1_555 1_555
C13 C14 1_555 1_555
O4 Bi3 1_555 1_555
C3 H2 1_555 1_555
C11 H3 1_555 1_555
C10 H4 1_555 1_555
C5 H5 1_555 1_555
C7 H6 1_555 1_555
C14 H7 1_555 1_555
O6 C15 1_555 1_555
Bi2 O6 1_555 1_555
O6 Bi4 1_555 1_555
Bi1_2 O1_2 1_555 1_555
C1_2 C2_2 1_555 1_555
O1_2 C1_2 1_555 1_555
O2_2 Bi1_2 1_555 1_555
O7_2 Bi1_2 1_555 1_555
O8_2 Bi1_2 1_555 1_555
O9_2 Bi1_2 1_555 1_555
O10_2 Bi1_2 1_555 1_555
O11_2 Bi1_2 1_555 1_555
C1_2 O2_2 1_555 1_555
C3_2 C4_2 1_555 1_555
C4_2 C5_2 1_555 1_555
C5_2 C6_2 1_555 1_555
C6_2 C7_2 1_555 1_555
C8_2 C4_2 1_555 1_555
C9_2 C6_2 1_555 1_555
C10_2 C9_2 1_555 1_555
C11_2 C10_2 1_555 1_555
C12_2 C11_2 1_555 1_555
C13_2 C12_2 1_555 1_555
C14_2 C9_2 1_555 1_555
O3_2 C8_2 1_555 1_555
O4_2 C8_2 1_555 1_555
Bi2 O3_2 1_555 1_555
C13_2 C14_2 1_555 1_555
O4_2 Bi2 1_555 1_555
C11_2 H3_2 1_555 1_555
C10_2 H4_2 1_555 1_555
C5_2 H5_2 1_555 1_555
C14_2 H7_2 1_555 1_555
O6_2 C15_2 1_555 1_555
Bi3 O6_2 1_555 1_555
O6_2 Bi4_2 1_555 1_555
O3_3 C8_3 1_555 1_555
O4_3 C8_3 1_555 1_555
Bi3_2 O3_3 1_555 1_555
O4_3 Bi3_2 1_555 1_555
C9_3 C6_3 1_555 1_555
C10_3 C9_3 1_555 1_555
C11_3 C10_3 1_555 1_555
C12_3 C11_3 1_555 1_555
C13_3 C12_3 1_555 1_555
C14_3 C9_3 1_555 1_555
C15_3 C12_3 1_555 1_555
O9 C15_3 1_555 1_555
O11 C15_3 1_555 1_555
Bi2_2 O11 1_555 1_555
C13_3 C14_3 1_555 1_555
C13_3 H1_3 1_555 1_555
C11_3 H3_3 1_555 1_555
C10_3 H4_3 1_555 1_555
C14_3 H7_3 1_555 1_555
Bi4 O1_3 1_555 1_555
C1_3 C2_3 1_555 1_555
O1_3 C1_3 1_555 1_555
O2_3 Bi4 1_555 1_555
O7_3 Bi4 1_555 1_555
O8_3 Bi4 1_555 1_555
O10_3 Bi4 1_555 1_555
C1_3 O2_3 1_555 1_555
O3_4 C8_4 1_555 1_555
O4_4 C8_4 1_555 1_555
Bi2_2 O3_4 1_555 1_555
O4_4 Bi2_2 1_555 1_555
Bi4_2 O1_4 1_555 1_555
C1_4 C2_4 1_555 1_555
C2_4 C3_3 1_555 1_555
C3_3 C4_3 1_555 1_555
C4_3 C5_3 1_555 1_555
C7_3 C2_4 1_555 1_555
O1_4 C1_4 1_555 1_555
O2_4 Bi4_2 1_555 1_555
O7_4 Bi4_2 1_555 1_555
O8_4 Bi4_2 1_555 1_555
O10_4 Bi4_2 1_555 1_555
C1_4 O2_4 1_555 1_555
C9_4 C6_4 1_555 1_555
C10_4 C9_4 1_555 1_555
C11_4 C10_4 1_555 1_555
C12_4 C11_4 1_555 1_555
C13_4 C12_4 1_555 1_555
C14_4 C9_4 1_555 1_555
C15_4 C12_4 1_555 1_555
O9_2 C15_4 1_555 1_555
O11_2 C15_4 1_555 1_555
Bi3_2 O11_2 1_555 1_555
C13_4 C14_4 1_555 1_555
C13_4 H1_4 1_555 1_555
C11_4 H3_4 1_555 1_555
C10_4 H4_4 1_555 1_555
C14_4 H7_4 1_555 1_555
O10 C15_5 1_555 1_555
O10 Bi2_2 1_555 1_555
Bi2 O1_5 1_555 1_555
C1_5 C2_5 1_555 1_555
C2_5 C3_4 1_555 1_555
C3_4 C4_4 1_555 1_555
C4_4 C5_4 1_555 1_555
C5_4 C6_5 1_555 1_555
C6_5 C7_4 1_555 1_555
C7_4 C2_5 1_555 1_555
C8_5 C4_4 1_555 1_555
C9_5 C6_5 1_555 1_555
C10_5 C9_5 1_555 1_555
C11_5 C10_5 1_555 1_555
C12_5 C11_5 1_555 1_555
C13_5 C12_5 1_555 1_555
C14_5 C9_5 1_555 1_555
O1_5 C1_5 1_555 1_555
O2_5 Bi2 1_555 1_555
O7_2 C8_5 1_555 1_555
O8_2 C8_5 1_555 1_555
O9_3 Bi2 1_555 1_555
O10_3 Bi2 1_555 1_555
C1_5 O2_5 1_555 1_555
C13_5 C14_5 1_555 1_555
C3_4 H2_5 1_555 1_555
C11_5 H3_5 1_555 1_555
C10_5 H4_5 1_555 1_555
C5_4 H5_5 1_555 1_555
C7_4 H6_4 1_555 1_555
C14_5 H7_5 1_555 1_555
O10_2 C15_6 1_555 1_555
O10_2 Bi3_2 1_555 1_555
C3_5 C4_5 1_555 1_555
C4_5 C5_5 1_555 1_555
C5_5 C6_6 1_555 1_555
C6_6 C7_5 1_555 1_555
C8_6 C4_5 1_555 1_555
C9_6 C6_6 1_555 1_555
C10_6 C9_6 1_555 1_555
C11_6 C10_6 1_555 1_555
C12_6 C11_6 1_555 1_555
C13_6 C12_6 1_555 1_555
C14_6 C9_6 1_555 1_555
O7 C8_6 1_555 1_555
O8 C8_6 1_555 1_555
C13_6 C14_6 1_555 1_555
C11_6 H3_6 1_555 1_555
C10_6 H4_6 1_555 1_555
C5_5 H5_6 1_555 1_555
C14_6 H7_6 1_555 1_555
Bi3 O1_6 1_555 1_555
C1_6 C2_6 1_555 1_555
O1_6 C1_6 1_555 1_555
O2_6 Bi3 1_555 1_555
O9_4 Bi3 1_555 1_555
O10_4 Bi3 1_555 1_555
C1_6 O2_6 1_555 1_555
Bi2_2 O1_7 1_555 1_555
C1_7 C2_7 1_555 1_555
O1_7 C1_7 1_555 1_555
O2_7 Bi2_2 1_555 1_555
C1_7 O2_7 1_555 1_555
C9_7 C6_7 1_555 1_555
C10_7 C9_7 1_555 1_555
C11_7 C10_7 1_555 1_555
C12_7 C11_7 1_555 1_555
C13_7 C12_7 1_555 1_555
C14_7 C9_7 1_555 1_555
C15_7 C12_7 1_555 1_555
O9_3 C15_7 1_555 1_555
O10_3 C15_7 1_555 1_555
C13_7 C14_7 1_555 1_555
C13_7 H1_7 1_555 1_555
C11_7 H3_7 1_555 1_555
C10_7 H4_7 1_555 1_555
C14_7 H7_7 1_555 1_555
O7_4 C8_7 1_555 1_555
O8_4 C8_7 1_555 1_555
C9_8 C6_8 1_555 1_555
C10_8 C9_8 1_555 1_555
C11_8 C10_8 1_555 1_555
C12_8 C11_8 1_555 1_555
C13_8 C12_8 1_555 1_555
C14_8 C9_8 1_555 1_555
C15_8 C12_8 1_555 1_555
O9_4 C15_8 1_555 1_555
O10_4 C15_8 1_555 1_555
C13_8 C14_8 1_555 1_555
C13_8 H1_8 1_555 1_555
C11_8 H3_8 1_555 1_555
C10_8 H4_8 1_555 1_555
C14_8 H7_8 1_555 1_555
Bi3_2 O1_8 1_555 1_555
C1_8 C2_8 1_555 1_555
C2_8 C3_6 1_555 1_555
C3_6 C4_6 1_555 1_555
C4_6 C5_6 1_555 1_555
C7_6 C2_8 1_555 1_555
O1_8 C1_8 1_555 1_555
O2_8 Bi3_2 1_555 1_555
C1_8 O2_8 1_555 1_555
O7_3 C8_8 1_555 1_555
O8_3 C8_8 1_555 1_555
C3_7 C4_7 1_555 1_555
C4_7 C5_7 1_555 1_555
C3_8 C4_8 1_555 1_555
C4_8 C5_8 1_555 1_555

#END
