
###############################################################################
#
# This file contains modified crystal structure data generated from the
# MOF subset of the Cambridge Structural Database (CSD) v543 
# hosted by the Cambridge Crystallographic Data Centre (CCDC).
#
# This work is licensed under the Creative Commons
# Attribution-NonCommercial-ShareAlike 4.0 International License.
# To view a copy of this license, visit
# http://creativecommons.org/licenses/by-nc-sa/4.0/
# or send a letter to
# Creative Commons, PO Box 1866, Mountain View, CA 94042, USA.
#
# CIF created using the CSD Python API on 29 September 2022
# The structure has been converted into the P1 space group
# The structure has a 3D framework
# The original CSD entry VUWSAJ is in the monoclinic crystal system
# The framework has been calculated to contain at least 10.0% void space
# The void calculation uses a probe of radius 1.32A, grid spacing 0.4
# H atom positions have been added when not included in the experimental data
# Generated hydrogen atom positions removed from atoms on special positions
#
###############################################################################

data_VUWSAJ
_chemical_formula_moiety         '(C72 H68 Nd4 O30)n'
_symmetry_cell_setting           triclinic
_symmetry_space_group_name_H-M   'P 1'
_symmetry_Int_Tables_number      1
_space_group_name_Hall           'P 1'
loop_
_symmetry_equiv_pos_site_id
_symmetry_equiv_pos_as_xyz
1 x,y,z
_cell_length_a                   9.8320(3)
_cell_length_b                   21.3218(7)
_cell_length_c                   13.7949(4)
_cell_angle_alpha                90
_cell_angle_beta                 105.6016(14)
_cell_angle_gamma                90
_cell_volume                     2785.35
loop_
_atom_site_label
_atom_site_type_symbol
_atom_site_fract_x
_atom_site_fract_y
_atom_site_fract_z
Nd1 Nd 0.26124(3) 0.015615(13) 0.514856(19)
O1 O 0.1236(4) 0.1025(2) 0.5452(3)
O4 O 0.0607(4) 0.43800(18) 0.9481(3)
O5 O 0.0890(4) 0.0292(2) 0.3415(3)
O8 O 0.4484(4) 0.0585(2) 0.6566(3)
C6 C 0.0006(6) 0.3422(3) 0.8574(4)
C7 C 0.1309(7) 0.3395(4) 0.8336(6)
H4 H 0.2016 0.3699 0.8604
C8 C 0.1562(8) 0.2931(4) 0.7720(7)
H5 H 0.2449 0.2918 0.7569
C9 C 0.0539(7) 0.2471(3) 0.7305(5)
C10 C 0.0751(7) 0.1994(3) 0.6656(5)
H6 H 0.1642 0.1964 0.6514
C11 C 0.0016(6) 0.1060(3) 0.5559(4)
C16 C 0.0015(6) 0.0210(3) 0.1315(4)
C18 C 0.1691(6) 0.0020(3) 0.2970(4)
Nd5 Nd 0.23876(3) 0.515615(13) 0.985144(19)
O20 O 0.3515(4) 0.10503(19) 0.4391(3)
O6 O 0.2872(4) 0.9802(2) 0.3465(3)
O7 O 0.2002(4) 0.9875(2) 0.6752(3)
C13 C 0.1719(7) 0.9568(4) 0.0334(4)
H7 H 0.2305 0.9342 0.0010
C14 C 0.2116(7) 0.9630(4) 0.1350(4)
H8 H 0.2982 0.9453 0.1730
C15 C 0.1246(6) 0.9956(3) 0.1845(4)
O18 O 0.0982(4) 0.93004(19) 0.4853(3)
O21 O 0.4393(4) 0.93800(18) 0.5519(3)
H12 H 0.0558 0.9574 0.8339
C23 C 0.0439(6) 0.9838(3) 0.9748(4)
O13 O 0.1485(4) 0.60503(19) 0.0609(3)
C25 C 0.0271(6) 0.8424(3) 0.3774(4)
C26 C 0.1590(7) 0.8387(3) 0.3545(5)
H13 H 0.2326 0.8671 0.3848
C27 C 0.1796(7) 0.7951(4) 0.2899(6)
H14 H 0.2671 0.7946 0.2730
C28 C 0.0768(6) 0.7502(3) 0.2461(4)
C29 C 0.0991(6) 0.7014(3) 0.1815(5)
H15 H 0.1869 0.6995 0.1651
C36 C 0.0310(6) 0.6042(3) 0.0801(4)
Nd8 Nd 0.76124(3) 0.484385(13) 0.014856(19)
O2 O 0.9018(4) 0.06996(19) 0.5147(3)
O3 O 0.8515(4) 0.39497(19) 0.9391(3)
C1 C 0.9729(6) 0.1576(3) 0.6226(4)
C2 C 0.8410(7) 0.1613(3) 0.6455(5)
H1 H 0.7674 0.1329 0.6152
C3 C 0.8204(7) 0.2049(4) 0.7101(6)
H2 H 0.7329 0.2054 0.7270
C4 C 0.9232(6) 0.2498(3) 0.7539(4)
C5 C 0.9009(6) 0.2986(3) 0.8185(5)
H3 H 0.8131 0.3005 0.8349
C12 C 0.9690(6) 0.3958(3) 0.9199(4)
H9 H 0.9442 0.0426 0.1661
C17 C 0.9561(6) 0.0162(3) 0.0252(4)
O10 O 0.7128(4) 0.0198(2) 0.6535(3)
C19 C 0.8281(7) 0.0432(4) 0.9666(4)
H10 H 0.7695 0.0658 0.9990
C20 C 0.7884(7) 0.0370(4) 0.8650(4)
H11 H 0.7018 0.0547 0.8270
C21 C 0.8754(6) 0.0044(3) 0.8155(4)
O15 O 0.7998(4) 0.0125(2) 0.3248(3)
O22 O 0.5607(4) 0.06200(18) 0.4481(3)
Nd6 Nd 0.73876(3) 0.984385(13) 0.485144(19)
O9 O 0.9110(4) 0.9708(2) 0.6585(3)
C22 C 0.9985(6) 0.9790(3) 0.8685(4)
C24 C 0.8309(6) 0.9980(3) 0.7030(4)
O11 O 0.8764(4) 0.8975(2) 0.4548(3)
O14 O 0.9393(4) 0.56200(18) 0.0519(3)
O16 O 0.5516(4) 0.9415(2) 0.3434(3)
C30 C 0.9994(6) 0.6578(3) 0.1426(4)
C31 C 0.8691(7) 0.6605(4) 0.1664(6)
H16 H 0.7984 0.6301 0.1396
C32 C 0.8438(8) 0.7069(4) 0.2280(7)
H17 H 0.7551 0.7082 0.2431
C33 C 0.9461(7) 0.7529(3) 0.2695(5)
C34 C 0.9249(7) 0.8006(3) 0.3344(5)
H18 H 0.8358 0.8036 0.3486
C35 C 0.9984(6) 0.8940(3) 0.4441(4)
O19 O 0.6485(4) 0.89497(19) 0.5609(3)
H23 H 0.863604 0.980077 0.309611
O11_2 O 0.6236(4) 0.3975(2) 0.0452(3)
O12 O 0.4018(4) 0.43004(19) 0.0147(3)
O15_2 O 0.7002(4) 0.5125(2) 0.1752(3)
O16_2 O 0.9484(4) 0.4415(2) 0.1566(3)
C25_2 C 0.4729(6) 0.3424(3) 0.1226(4)
C26_2 C 0.3410(7) 0.3387(3) 0.1455(5)
H13_2 H 0.2674 0.3671 0.1152
C27_2 C 0.3204(7) 0.2951(4) 0.2101(6)
H14_2 H 0.2329 0.2946 0.2270
C28_2 C 0.4232(6) 0.2502(3) 0.2539(4)
C29_2 C 0.4009(6) 0.2014(3) 0.3185(5)
H15_2 H 0.3131 0.1995 0.3349
C30_2 C 0.5006(6) 0.1578(3) 0.3574(4)
C31_2 C 0.6309(7) 0.1605(4) 0.3336(6)
H16_2 H 0.7016 0.1301 0.3604
C32_2 C 0.6562(8) 0.2069(4) 0.2720(7)
H17_2 H 0.7449 0.2082 0.2569
C33_2 C 0.5539(7) 0.2529(3) 0.2305(5)
C34_2 C 0.5751(7) 0.3006(3) 0.1656(5)
H18_2 H 0.6642 0.3036 0.1514
C35_2 C 0.5016(6) 0.3940(3) 0.0559(4)
C36_2 C 0.4690(6) 0.1042(3) 0.4199(4)
H26 H 0.977281 0.473842 0.209986
O5_2 O 0.4110(4) 0.5292(2) 0.1585(3)
O6_2 O 0.2128(4) 0.4802(2) 0.1535(3)
C13_2 C 0.3281(7) 0.4568(4) 0.4666(4)
H7_2 H 0.2695 0.4342 0.4990
C14_2 C 0.2884(7) 0.4630(4) 0.3650(4)
H8_2 H 0.2018 0.4453 0.3270
C15_2 C 0.3754(6) 0.4956(3) 0.3155(4)
C16_2 C 0.4985(6) 0.5210(3) 0.3685(4)
H9_2 H 0.5558 0.5426 0.3339
C17_2 C 0.5439(6) 0.5162(3) 0.4748(4)
C18_2 C 0.3309(6) 0.5020(3) 0.2030(4)
O9_2 O 0.5890(4) 0.4708(2) 0.8415(3)
O10_2 O 0.7872(4) 0.5198(2) 0.8465(3)
C19_2 C 0.6719(7) 0.5432(4) 0.5334(4)
H10_2 H 0.7305 0.5658 0.5010
C20_2 C 0.7116(7) 0.5370(4) 0.6350(4)
H11_2 H 0.7982 0.5547 0.6730
C21_2 C 0.6246(6) 0.5044(3) 0.6845(4)
C22_2 C 0.5015(6) 0.4790(3) 0.6315(4)
H12_2 H 0.4442 0.4574 0.6661
C23_2 C 0.4561(6) 0.4838(3) 0.5252(4)
C24_2 C 0.6691(6) 0.4980(3) 0.7970(4)
O17 O 0.5982(4) 0.56996(19) 0.9853(3)
O1_2 O 0.3764(4) 0.6025(2) 0.9548(3)
O7_2 O 0.2998(4) 0.4875(2) 0.8248(3)
O8_2 O 0.0516(4) 0.5585(2) 0.8434(3)
C1_2 C 0.5271(6) 0.6576(3) 0.8774(4)
C2_2 C 0.6590(7) 0.6613(3) 0.8545(5)
H1_2 H 0.7326 0.6329 0.8848
C3_2 C 0.6796(7) 0.7049(4) 0.7899(6)
H2_2 H 0.7671 0.7054 0.7730
C4_2 C 0.5768(6) 0.7498(3) 0.7461(4)
C5_2 C 0.5991(6) 0.7986(3) 0.6815(5)
H3_2 H 0.6869 0.8005 0.6651
C6_2 C 0.4994(6) 0.8422(3) 0.6426(4)
C7_2 C 0.3691(7) 0.8395(4) 0.6664(6)
H4_2 H 0.2984 0.8699 0.6396
C8_2 C 0.3438(8) 0.7931(4) 0.7280(7)
H5_2 H 0.2551 0.7918 0.7431
C9_2 C 0.4461(7) 0.7471(3) 0.7695(5)
C10_2 C 0.4249(7) 0.6994(3) 0.8344(5)
H6_2 H 0.3358 0.6964 0.8486
C11_2 C 0.4984(6) 0.6060(3) 0.9441(4)
C12_2 C 0.5310(6) 0.8958(3) 0.5801(4)
H21 H 0.0855695 0.55935 0.781823
H23_2 H 0.136396 0.019923 0.690389
H21_2 H 0.914431 0.44065 0.218177
H26_2 H 0.022719 0.526158 0.790014
H25 H 0.0311421 0.429375 0.132408
H22 H 0.966227 0.531615 0.831529
H22_2 H 0.0337732 0.468385 0.168471
H25_2 H 0.968858 0.570625 0.867592
loop_
_geom_bond_atom_site_label_1
_geom_bond_atom_site_label_2
_geom_bond_site_symmetry_1
_geom_bond_site_symmetry_2
Nd1 O1 1_555 1_555
O1 C11 1_555 1_555
O5 Nd1 1_555 1_555
O8 Nd1 1_555 1_555
C7 C6 1_555 1_555
H4 C7 1_555 1_555
C8 C7 1_555 1_555
H5 C8 1_555 1_555
H6 C10 1_555 1_555
C18 O5 1_555 1_555
Nd5 O4 1_555 1_555
O20 Nd1 1_555 1_555
C8 C9 1_555 1_555
C9 C10 1_555 1_555
C13 H7 1_555 1_555
C14 C13 1_555 1_555
H8 C14 1_555 1_555
C15 C14 1_555 1_555
O13 C36 1_555 1_555
C25 C26 1_555 1_555
C26 H13 1_555 1_555
C27 C26 1_555 1_555
H14 C27 1_555 1_555
C28 C27 1_555 1_555
C29 C28 1_555 1_555
H15 C29 1_555 1_555
O3 C12 1_555 1_555
C1 C2 1_555 1_555
C2 H1 1_555 1_555
C3 C2 1_555 1_555
H2 C3 1_555 1_555
C4 C3 1_555 1_555
C5 C4 1_555 1_555
H3 C5 1_555 1_555
H10 C19 1_555 1_555
C20 C19 1_555 1_555
H11 C20 1_555 1_555
C21 C20 1_555 1_555
O9 C24 1_555 1_555
Nd6 O9 1_555 1_555
O11 Nd6 1_555 1_555
O16 Nd6 1_555 1_555
C31 C30 1_555 1_555
H16 C31 1_555 1_555
C32 C31 1_555 1_555
H17 C32 1_555 1_555
H18 C34 1_555 1_555
C35 O11 1_555 1_555
Nd8 O14 1_555 1_555
O19 Nd6 1_555 1_555
C32 C33 1_555 1_555
C33 C34 1_555 1_555
O11_2 Nd8 1_555 1_555
O12 C35_2 1_555 1_555
O20 C36_2 1_555 1_555
O22 C36_2 1_555 1_555
O15_2 Nd8 1_555 1_555
O16_2 Nd8 1_555 1_555
C25_2 C26_2 1_555 1_555
C26_2 H13_2 1_555 1_555
C27_2 C26_2 1_555 1_555
H14_2 C27_2 1_555 1_555
C28_2 C27_2 1_555 1_555
C29_2 C28_2 1_555 1_555
H15_2 C29_2 1_555 1_555
C30_2 C29_2 1_555 1_555
C31_2 C30_2 1_555 1_555
H16_2 C31_2 1_555 1_555
C32_2 C31_2 1_555 1_555
H17_2 C32_2 1_555 1_555
C33_2 C28_2 1_555 1_555
C34_2 C25_2 1_555 1_555
H18_2 C34_2 1_555 1_555
C35_2 O11_2 1_555 1_555
C36_2 C30_2 1_555 1_555
C25_2 C35_2 1_555 1_555
C32_2 C33_2 1_555 1_555
C33_2 C34_2 1_555 1_555
O16_2 H26 1_555 1_555
C13_2 H7_2 1_555 1_555
C14_2 C13_2 1_555 1_555
H8_2 C14_2 1_555 1_555
C15_2 C14_2 1_555 1_555
C16_2 C15_2 1_555 1_555
H9_2 C16_2 1_555 1_555
C17_2 C16_2 1_555 1_555
C18_2 O5_2 1_555 1_555
O9_2 C24_2 1_555 1_555
O10_2 C24_2 1_555 1_555
C19_2 C17_2 1_555 1_555
H10_2 C19_2 1_555 1_555
C20_2 C19_2 1_555 1_555
H11_2 C20_2 1_555 1_555
C21_2 C20_2 1_555 1_555
C22_2 C21_2 1_555 1_555
H12_2 C22_2 1_555 1_555
C23_2 C13_2 1_555 1_555
C24_2 C21_2 1_555 1_555
O6_2 C18_2 1_555 1_555
C15_2 C18_2 1_555 1_555
C17_2 C23_2 1_555 1_555
C22_2 C23_2 1_555 1_555
Nd5 O1_2 1_555 1_555
O1_2 C11_2 1_555 1_555
O17 C11_2 1_555 1_555
O19 C12_2 1_555 1_555
O21 C12_2 1_555 1_555
O7_2 Nd5 1_555 1_555
O8_2 Nd5 1_555 1_555
C1_2 C2_2 1_555 1_555
C2_2 H1_2 1_555 1_555
C3_2 C2_2 1_555 1_555
H2_2 C3_2 1_555 1_555
C4_2 C3_2 1_555 1_555
C5_2 C4_2 1_555 1_555
H3_2 C5_2 1_555 1_555
C6_2 C5_2 1_555 1_555
C7_2 C6_2 1_555 1_555
H4_2 C7_2 1_555 1_555
C8_2 C7_2 1_555 1_555
H5_2 C8_2 1_555 1_555
C9_2 C4_2 1_555 1_555
C10_2 C1_2 1_555 1_555
H6_2 C10_2 1_555 1_555
C11_2 C1_2 1_555 1_555
C12_2 C6_2 1_555 1_555
C8_2 C9_2 1_555 1_555
C9_2 C10_2 1_555 1_555
O8_2 H21 1_555 1_555
O16_2 H21_2 1_555 1_555
O8_2 H26_2 1_555 1_555

#END
