
###############################################################################
#
# This file contains modified crystal structure data generated from the
# MOF subset of the Cambridge Structural Database (CSD) v543 
# hosted by the Cambridge Crystallographic Data Centre (CCDC).
#
# This work is licensed under the Creative Commons
# Attribution-NonCommercial-ShareAlike 4.0 International License.
# To view a copy of this license, visit
# http://creativecommons.org/licenses/by-nc-sa/4.0/
# or send a letter to
# Creative Commons, PO Box 1866, Mountain View, CA 94042, USA.
#
# CIF created using the CSD Python API on 29 September 2022
# The structure has been converted into the P1 space group
# The structure has a 3D framework
# The original CSD entry WABKOD is in the monoclinic crystal system
# The framework has been calculated to contain at least 10.0% void space
# The void calculation uses a probe of radius 1.32A, grid spacing 0.4
#
###############################################################################

data_WABKOD
_chemical_formula_moiety         '(C36 H16 Fe3 N12 Pd4)n'
_symmetry_cell_setting           triclinic
_symmetry_space_group_name_H-M   'P 1'
_symmetry_Int_Tables_number      1
_space_group_name_Hall           'P 1'
loop_
_symmetry_equiv_pos_site_id
_symmetry_equiv_pos_as_xyz
1 x,y,z
_cell_length_a                   13.9486(9)
_cell_length_b                   7.2577(4)
_cell_length_c                   16.1699(13)
_cell_angle_alpha                90
_cell_angle_beta                 104.413(7)
_cell_angle_gamma                90
_cell_volume                     1585.44
loop_
_atom_site_label
_atom_site_type_symbol
_atom_site_fract_x
_atom_site_fract_y
_atom_site_fract_z
N4 N 0.4897(10) 0.5000 0.3746(7)
C8 C 0.3684(12) 0.5000 0.0290(12)
C9 C 0.4037(15) 0.5000 0.1017(11)
C10 C 0.4360(10) 0.5000 0.1958(9)
C11 C 0.4477(9) 0.3366(17) 0.2400(6)
H5 H 0.4388 0.2246 0.2112
C12 C 0.4732(7) 0.3417(14) 0.3292(6)
H6 H 0.4791 0.2308 0.3588
C15 C 0.4477(9) 0.6634(17) 0.2400(6)
H7 H 0.4388 0.7754 0.2112
C16 C 0.4732(7) 0.6583(14) 0.3292(6)
H8 H 0.4791 0.7692 0.3588
Fe6 Fe 0.5000 0.5000 0.5000
Fe1 Fe 0.0000 0.5000 0.5000
N1 N 0.0843(9) 0.5000 0.6177(6)
C1 C 0.0514(10) 0.5000 0.6852(9)
C2 C 0.1099(11) 0.5000 0.7707(10)
H2 H 0.0807 0.5000 0.8166
C3 C 0.2134(11) 0.5000 0.7836(9)
C4 C 0.2511(9) 0.5000 0.7134(9)
H3 H 0.3193 0.5000 0.7205
C5 C 0.1892(9) 0.5000 0.6316(9)
H4 H 0.2168 0.5000 0.5849
C6 C 0.2723(13) 0.5000 0.8695(10)
C7 C 0.3182(14) 0.5000 0.9418(11)
H9 H 0.0169 0.5000 0.3227
N13 N 0.0836(5) 0.3094(9) 0.4724(5)
N14 N 0.0836(5) 0.6906(9) 0.4724(5)
Pd4 Pd 0.76038(5) 0.0000 0.53040(5)
Fe1_2 Fe 1.0000 0.5000 0.5000
N2 N 0.9164(5) 0.3094(9) 0.5276(5)
H1 H 0.9831 0.5000 0.6773
C13 C 0.8616(5) 0.1950(10) 0.5337(5)
Pd2 Pd 0.23962(5) 0.0000 0.46960(5)
C17 C 0.1384(5) 0.1950(10) 0.4663(5)
N9 N 0.9157(9) 0.5000 0.3823(6)
C21 C 0.9486(10) 0.5000 0.3148(9)
C22 C 0.8901(11) 0.5000 0.2293(10)
H10 H 0.9193 0.5000 0.1834
C23 C 0.7866(11) 0.5000 0.2164(9)
C24 C 0.7489(9) 0.5000 0.2866(9)
H11 H 0.6807 0.5000 0.2795
C25 C 0.8108(9) 0.5000 0.3684(9)
H12 H 0.7832 0.5000 0.4151
C26 C 0.7277(13) 0.5000 0.1305(10)
C27 C 0.6818(14) 0.5000 0.0582(11)
N12 N 0.9164(5) 0.6906(9) 0.5276(5)
C36 C 0.8616(5) 0.8050(10) 0.5337(5)
Pd4_2 Pd 0.76038(5) 1.0000 0.53040(5)
C38 C 0.3425(5) 0.1960(10) 0.4791(5)
C39 C 0.6575(5) 0.1960(10) 0.5209(5)
N10 N 0.5103(10) 0.5000 0.6254(7)
C28 C 0.6316(12) 0.5000 0.9710(12)
C29 C 0.5963(15) 0.5000 0.8983(11)
C30 C 0.5640(10) 0.5000 0.8042(9)
C31 C 0.5523(9) 0.3366(17) 0.7600(6)
H13 H 0.5612 0.2246 0.7888
C32 C 0.5268(7) 0.3417(14) 0.6708(6)
H14 H 0.5209 0.2308 0.6412
C33 C 0.5523(9) 0.6634(17) 0.7600(6)
H15 H 0.5612 0.7754 0.7888
C34 C 0.5268(7) 0.6583(14) 0.6708(6)
H16 H 0.5209 0.7692 0.6412
N3 N 0.6006(4) 0.6891(9) 0.5133(5)
C14 C 0.6575(5) 0.8040(10) 0.5209(5)
Pd2_2 Pd 0.23962(5) 1.0000 0.46960(5)
N6 N 0.3994(4) 0.6891(9) 0.4867(5)
C18 C 0.3425(5) 0.8040(10) 0.4791(5)
N7 N 0.3994(4) 0.3109(9) 0.4867(5)
N8 N 0.6006(4) 0.3109(9) 0.5133(5)
C37 C 0.1384(5) 0.8050(10) 0.4663(5)
loop_
_geom_bond_atom_site_label_1
_geom_bond_atom_site_label_2
_geom_bond_site_symmetry_1
_geom_bond_site_symmetry_2
N4 C12 1_555 1_555
C9 C8 1_555 1_555
C10 C9 1_555 1_555
C11 C10 1_555 1_555
H5 C11 1_555 1_555
C12 C11 1_555 1_555
H6 C12 1_555 1_555
C15 C10 1_555 1_555
H7 C15 1_555 1_555
C16 N4 1_555 1_555
H8 C16 1_555 1_555
Fe6 N4 1_555 1_555
C15 C16 1_555 1_555
Fe1 N1 1_555 1_555
N1 C1 1_555 1_555
C2 C1 1_555 1_555
H2 C2 1_555 1_555
C3 C2 1_555 1_555
C4 C3 1_555 1_555
H3 C4 1_555 1_555
C5 N1 1_555 1_555
H4 C5 1_555 1_555
C6 C3 1_555 1_555
C7 C6 1_555 1_555
N13 Fe1 1_555 1_555
N14 Fe1 1_555 1_555
C4 C5 1_555 1_555
Pd4 C13 1_555 1_555
N2 Fe1_2 1_555 1_555
C13 N2 1_555 1_555
Pd2 C17 1_555 1_555
N13 C17 1_555 1_555
N9 Fe1_2 1_555 1_555
C21 N9 1_555 1_555
C22 C21 1_555 1_555
H10 C22 1_555 1_555
C23 C22 1_555 1_555
C24 C23 1_555 1_555
H11 C24 1_555 1_555
C25 N9 1_555 1_555
H12 C25 1_555 1_555
C26 C23 1_555 1_555
C27 C26 1_555 1_555
N12 Fe1_2 1_555 1_555
C36 N12 1_555 1_555
Pd4_2 C36 1_555 1_555
C38 Pd2 1_555 1_555
C39 Pd4 1_555 1_555
C24 C25 1_555 1_555
N10 C32 1_555 1_555
C29 C28 1_555 1_555
C30 C29 1_555 1_555
C31 C30 1_555 1_555
H13 C31 1_555 1_555
C32 C31 1_555 1_555
H14 C32 1_555 1_555
C33 C30 1_555 1_555
H15 C33 1_555 1_555
C34 N10 1_555 1_555
H16 C34 1_555 1_555
Fe6 N10 1_555 1_555
C33 C34 1_555 1_555
Fe6 N3 1_555 1_555
N3 C14 1_555 1_555
C14 Pd4_2 1_555 1_555
N6 Fe6 1_555 1_555
C18 Pd2_2 1_555 1_555
N7 Fe6 1_555 1_555
C38 N7 1_555 1_555
N8 Fe6 1_555 1_555
C39 N8 1_555 1_555
C37 Pd2_2 1_555 1_555
N6 C18 1_555 1_555
C37 N14 1_555 1_555

#END
