
###############################################################################
#
# This file contains modified crystal structure data generated from the
# MOF subset of the Cambridge Structural Database (CSD) v543 
# hosted by the Cambridge Crystallographic Data Centre (CCDC).
#
# This work is licensed under the Creative Commons
# Attribution-NonCommercial-ShareAlike 4.0 International License.
# To view a copy of this license, visit
# http://creativecommons.org/licenses/by-nc-sa/4.0/
# or send a letter to
# Creative Commons, PO Box 1866, Mountain View, CA 94042, USA.
#
# CIF created using the CSD Python API on 29 September 2022
# The structure has been converted into the P1 space group
# The structure has a 3D framework
# The original CSD entry WADDEN is in the monoclinic crystal system
# The framework has been calculated to contain at least 10.0% void space
# The void calculation uses a probe of radius 1.32A, grid spacing 0.4
# H atom positions have been added when not included in the experimental data
#
###############################################################################

data_WADDEN
_chemical_formula_moiety         '(C48 H56 O60 Tb8)n'
_symmetry_cell_setting           triclinic
_symmetry_space_group_name_H-M   'P 1'
_symmetry_Int_Tables_number      1
_space_group_name_Hall           'P 1'
loop_
_symmetry_equiv_pos_site_id
_symmetry_equiv_pos_as_xyz
1 x,y,z
_cell_length_a                   9.4396(3)
_cell_length_b                   14.6880(4)
_cell_length_c                   14.7437(4)
_cell_angle_alpha                90
_cell_angle_beta                 91.271(3)
_cell_angle_gamma                90
_cell_volume                     2043.69
loop_
_atom_site_label
_atom_site_type_symbol
_atom_site_fract_x
_atom_site_fract_y
_atom_site_fract_z
Tb5 Tb 0.18903(3) 0.154012(16) 0.593456(17)
Tb6 Tb 0.68903(3) 0.345988(16) 0.093456(17)
O1 O 0.2120(4) 0.3537(2) 0.8239(3)
O2 O 0.2169(4) 0.2770(2) 0.6976(3)
O3 O 0.7067(4) 0.3731(3) 0.9325(2)
O4 O 0.7385(4) 0.3182(3) 0.7929(3)
O6 O 0.0918(4) 0.2805(3) 0.5215(3)
O8 O 0.1493(4) 0.5163(3) 0.2833(3)
O9 O 0.4329(4) 0.1122(3) 0.6317(3)
O10 O 0.4107(4) 0.2298(3) 0.5415(3)
O11 O 0.9611(4) 0.1852(2) 0.6869(2)
O12 O 0.9435(4) 0.1048(3) 0.5622(3)
C1 C 0.2820(6) 0.3138(4) 0.7641(4)
C2 C 0.4368(6) 0.3124(4) 0.7701(4)
H1 H 0.4880 0.2966 0.7193
C3 C 0.5050(6) 0.3330(4) 0.8460(4)
H2 H 0.4505 0.3435 0.8968
C4 C 0.6625(6) 0.3410(3) 0.8582(4)
C7 C 0.0532(6) 0.4100(4) 0.3849(4)
H4 H 0.1296 0.3704 0.3804
C8 C 0.0393(7) 0.4864(4) 0.3186(4)
C9 C 0.4872(6) 0.1712(4) 0.5815(4)
C10 C 0.6420(6) 0.1722(4) 0.5706(4)
H5 H 0.6780 0.1930 0.5162
C11 C 0.7311(6) 0.1449(4) 0.6344(4)
H6 H 0.6931 0.1238 0.6882
C12 C 0.8865(6) 0.1450(3) 0.6279(4)
O15 O 0.1904(4) 0.0758(3) 0.7367(3)
H9 H 0.2540 0.0349 0.7406
H10 H 0.1100 0.0536 0.7492
Tb3 Tb 0.97511(3) 0.336296(16) 0.754278(17)
Tb4 Tb 0.02489(3) 0.663704(16) 0.245722(17)
O17 O 0.2067(4) 0.1269(3) 0.4325(2)
O19 O 0.0798(4) 0.4752(3) 0.6953(3)
H13 H 0.0293782 0.481906 0.885216
O5 O 0.9143(4) 0.3442(2) 0.5954(3)
O7 O 0.9202(4) 0.5248(3) 0.3047(3)
C5 C 0.9914(6) 0.3349(3) 0.5272(4)
C6 C 0.9618(6) 0.3965(4) 0.4491(4)
H3 H 0.8752 0.4266 0.4457
O13 O 0.9896(4) 0.2224(3) 0.8698(3)
H7 H 0.9561 0.1718 0.8514
H8 H 0.9476 0.2388 0.9175
O14 O 0.9690(4) 0.4271(2) 0.8922(2)
O20 O 0.8507(4) 0.4837(3) 0.7167(3)
H14 H 0.869985 0.446152 0.903408
O7_2 O 0.5798(4) 0.0248(3) 0.1953(3)
O8_2 O 0.3507(4) 0.0163(3) 0.2167(3)
Tb4_2 Tb 0.47511(3) 0.163704(16) 0.254278(17)
C6_2 C 0.5382(6) 0.8965(4) 0.0509(4)
H3_2 H 0.6248 0.9266 0.0543
C7_2 C 0.4468(6) 0.9100(4) 0.1151(4)
H4_2 H 0.3704 0.8704 0.1196
C8_2 C 0.4607(7) 0.9864(4) 0.1814(4)
O17_2 O 0.2933(4) 0.6269(3) 0.0675(2)
Tb1 Tb 0.52489(3) 0.836296(16) 0.745722(17)
Tb2 Tb 0.31097(3) 0.654012(16) 0.906544(17)
O1_2 O 0.2880(4) 0.8537(2) 0.6761(3)
O2_2 O 0.2831(4) 0.7770(2) 0.8024(3)
O5_2 O 0.5857(4) 0.8442(2) 0.9046(3)
O6_2 O 0.4082(4) 0.7805(3) 0.9785(3)
O9_2 O 0.0671(4) 0.6122(3) 0.8683(3)
O10_2 O 0.0893(4) 0.7298(3) 0.9585(3)
C1_2 C 0.2180(6) 0.8138(4) 0.7359(4)
C2_2 C 0.0632(6) 0.8124(4) 0.7299(4)
H1_2 H 0.0120 0.7966 0.7807
H2_2 H 0.0495 0.8435 0.6032
C5_2 C 0.5086(6) 0.8349(3) 0.9728(4)
C9_2 C 0.0128(6) 0.6712(4) 0.9185(4)
O13_2 O 0.5104(4) 0.7224(3) 0.6302(3)
H7_2 H 0.5439 0.6718 0.6486
H8_2 H 0.5524 0.7388 0.5825
O14_2 O 0.5310(4) 0.9271(2) 0.6078(2)
O15_2 O 0.3096(4) 0.5758(3) 0.7633(3)
H9_2 H 0.2460 0.5349 0.7594
H10_2 H 0.3900 0.5536 0.7508
O16 O 0.2868(5) 0.4964(3) 0.9402(3)
H11 H 0.3557 0.4766 0.9726
H12 H 0.2777 0.4643 0.8924
O18 O 0.7615(4) 0.8182(3) 0.7071(3)
O19_2 O 0.4202(4) 0.9752(3) 0.8047(3)
O20_2 O 0.6493(4) 0.9837(3) 0.7833(3)
O21 O 0.5389(4) 0.6852(2) 0.8131(2)
O22 O 0.5565(4) 0.6048(3) 0.9378(3)
H13_2 H 0.470622 0.981906 0.614784
H14_2 H 0.630015 0.946152 0.596592
O3_2 O 0.7933(4) 0.8731(3) 0.5675(2)
C3_2 C 0.9950(6) 0.8330(4) 0.6540(4)
C4_2 C 0.8375(6) 0.8410(3) 0.6418(4)
C10_2 C 0.8580(6) 0.6722(4) 0.9294(4)
H5_2 H 0.8220 0.6930 0.9838
C11_2 C 0.7689(6) 0.6449(4) 0.8656(4)
H6_2 H 0.8069 0.6238 0.8118
C12_2 C 0.6135(6) 0.6450(3) 0.8721(4)
Tb6_2 Tb 0.81097(3) 0.845988(16) 0.406544(17)
O5_3 O 0.0857(4) 0.6558(2) 0.4046(3)
C5_3 C 0.0086(6) 0.6651(3) 0.4728(4)
C6_3 C 0.0382(6) 0.6035(4) 0.5509(4)
H3_3 H 0.1248 0.5734 0.5543
O13_3 O 0.0104(4) 0.7776(3) 0.1302(3)
H7_3 H 0.0439 0.8282 0.1486
H8_3 H 0.0524 0.7612 0.0825
O14_3 O 0.0310(4) 0.5729(2) 0.1078(2)
O18_2 O 0.2615(4) 0.6818(3) 0.2071(3)
O21_2 O 0.0389(4) 0.8148(2) 0.3131(2)
O22_2 O 0.0565(4) 0.8952(3) 0.4378(3)
H14_3 H 0.130015 0.553848 0.0965921
O1_3 O 0.7880(4) 0.6463(2) 0.1761(3)
O2_3 O 0.7831(4) 0.7230(2) 0.3024(3)
O6_3 O 0.9082(4) 0.7195(3) 0.4785(3)
O9_3 O 0.5671(4) 0.8878(3) 0.3683(3)
O10_3 O 0.5893(4) 0.7702(3) 0.4585(3)
C1_3 C 0.7180(6) 0.6862(4) 0.2359(4)
C2_3 C 0.5632(6) 0.6876(4) 0.2299(4)
H1_3 H 0.5120 0.7034 0.2807
C3_3 C 0.4950(6) 0.6670(4) 0.1540(4)
H2_3 H 0.5495 0.6565 0.1032
C4_3 C 0.3375(6) 0.6590(3) 0.1418(4)
C7_3 C 0.9468(6) 0.5900(4) 0.6151(4)
H4_3 H 0.8704 0.6296 0.6196
C8_3 C 0.9607(7) 0.5136(4) 0.6814(4)
C9_3 C 0.5128(6) 0.8288(4) 0.4185(4)
C10_3 C 0.3580(6) 0.8278(4) 0.4294(4)
H5_3 H 0.3220 0.8070 0.4838
C11_3 C 0.2689(6) 0.8551(4) 0.3656(4)
H6_3 H 0.3069 0.8762 0.3118
C12_3 C 0.1135(6) 0.8550(3) 0.3721(4)
O15_3 O 0.8096(4) 0.9242(3) 0.2633(3)
H9_3 H 0.7460 0.9651 0.2594
H10_3 H 0.8900 0.9464 0.2508
H13_3 H 0.970622 0.518094 0.114784
O4_2 O 0.2385(4) 0.1818(3) 0.2929(3)
O11_2 O 0.4611(4) 0.3148(2) 0.1869(2)
O12_2 O 0.4435(4) 0.3952(3) 0.0622(3)
C3_4 C 0.0050(6) 0.1670(4) 0.3460(4)
C4_4 C 0.1625(6) 0.1590(3) 0.3582(4)
C10_4 C 0.1420(6) 0.3278(4) 0.0706(4)
H5_4 H 0.1780 0.3070 0.0162
C11_4 C 0.2311(6) 0.3551(4) 0.1344(4)
H6_4 H 0.1931 0.3762 0.1882
C12_4 C 0.3865(6) 0.3550(3) 0.1279(4)
O1_4 O 0.7120(4) 0.1463(2) 0.3239(3)
O2_4 O 0.7169(4) 0.2230(2) 0.1976(3)
O5_4 O 0.4143(4) 0.1558(2) 0.0954(3)
O6_4 O 0.5918(4) 0.2195(3) 0.0215(3)
O9_4 O 0.9329(4) 0.3878(3) 0.1317(3)
O10_4 O 0.9107(4) 0.2702(3) 0.0415(3)
C1_4 C 0.7820(6) 0.1862(4) 0.2641(4)
C2_4 C 0.9368(6) 0.1876(4) 0.2701(4)
H1_4 H 0.9880 0.2034 0.2193
H2_4 H 0.9505 0.1565 0.3968
C5_4 C 0.4914(6) 0.1651(3) 0.0272(4)
C9_4 C 0.9872(6) 0.3288(4) 0.0815(4)
O13_4 O 0.4896(4) 0.2776(3) 0.3698(3)
H7_4 H 0.4561 0.3282 0.3514
H8_4 H 0.4476 0.2612 0.4175
O14_4 O 0.4690(4) 0.0729(2) 0.3922(2)
O15_4 O 0.6904(4) 0.4242(3) 0.2367(3)
H9_4 H 0.7540 0.4651 0.2406
H10_4 H 0.6100 0.4464 0.2492
O16_2 O 0.7132(5) 0.5036(3) 0.0598(3)
H11_2 H 0.6443 0.5234 0.0274
H12_2 H 0.7223 0.5357 0.1076
H13_4 H 0.529378 0.0180943 0.385216
H14_4 H 0.369985 0.0538482 0.403408
C6_4 C 0.4618(6) 0.1035(4) 0.9491(4)
H3_4 H 0.3752 0.0734 0.9457
C7_4 C 0.5532(6) 0.0900(4) 0.8849(4)
H4_4 H 0.6296 0.1296 0.8804
C8_4 C 0.5393(7) 0.0136(4) 0.8186(4)
O16_3 O 0.2132(5) 0.9964(3) 0.5598(3)
H11_3 H 0.1443 0.9766 0.5274
H12_3 H 0.2223 0.9643 0.6076
O16_4 O 0.7868(5) 0.0036(3) 0.4402(3)
H11_4 H 0.8557 0.0234 0.4726
H12_4 H 0.7777 0.0357 0.3924
loop_
_geom_bond_atom_site_label_1
_geom_bond_atom_site_label_2
_geom_bond_site_symmetry_1
_geom_bond_site_symmetry_2
Tb5 O2 1_555 1_555
O1 C1 1_555 1_555
O3 C4 1_555 1_555
O4 C4 1_555 1_555
O6 Tb5 1_555 1_555
O8 C8 1_555 1_555
O9 Tb5 1_555 1_555
O10 Tb5 1_555 1_555
O11 C12 1_555 1_555
O12 C12 1_555 1_555
C1 O2 1_555 1_555
C2 C1 1_555 1_555
H1 C2 1_555 1_555
C3 C2 1_555 1_555
H2 C3 1_555 1_555
C4 C3 1_555 1_555
H4 C7 1_555 1_555
C8 C7 1_555 1_555
C9 O9 1_555 1_555
C10 C9 1_555 1_555
H5 C10 1_555 1_555
C11 C10 1_555 1_555
H6 C11 1_555 1_555
C12 C11 1_555 1_555
O15 Tb5 1_555 1_555
H9 O15 1_555 1_555
H10 O15 1_555 1_555
Tb3 O4 1_555 1_555
O17 Tb5 1_555 1_555
O8 Tb4 1_555 1_555
O10 C9 1_555 1_555
O11 Tb3 1_555 1_555
O5 Tb3 1_555 1_555
C5 O5 1_555 1_555
C6 C5 1_555 1_555
H3 C6 1_555 1_555
O13 Tb3 1_555 1_555
H7 O13 1_555 1_555
H8 O13 1_555 1_555
O14 Tb3 1_555 1_555
O20 Tb3 1_555 1_555
O14 H14 1_555 1_555
Tb4_2 O7_2 1_555 1_555
O8_2 Tb4_2 1_555 1_555
H3_2 C6_2 1_555 1_555
C7_2 C6_2 1_555 1_555
H4_2 C7_2 1_555 1_555
C8_2 C7_2 1_555 1_555
Tb1 O1_2 1_555 1_555
Tb2 O2_2 1_555 1_555
O1_2 C1_2 1_555 1_555
O2_2 Tb1 1_555 1_555
O5_2 Tb1 1_555 1_555
O6_2 Tb2 1_555 1_555
O9_2 Tb2 1_555 1_555
O10_2 Tb2 1_555 1_555
C1_2 O2_2 1_555 1_555
C2_2 C1_2 1_555 1_555
H1_2 C2_2 1_555 1_555
C5_2 O5_2 1_555 1_555
C9_2 O9_2 1_555 1_555
O13_2 Tb1 1_555 1_555
H7_2 O13_2 1_555 1_555
H8_2 O13_2 1_555 1_555
O14_2 Tb1 1_555 1_555
O15_2 Tb2 1_555 1_555
H9_2 O15_2 1_555 1_555
H10_2 O15_2 1_555 1_555
O16 Tb2 1_555 1_555
H11 O16 1_555 1_555
H12 O16 1_555 1_555
O18 Tb1 1_555 1_555
O19_2 Tb1 1_555 1_555
O20_2 Tb1 1_555 1_555
O21 Tb1 1_555 1_555
O22 Tb2 1_555 1_555
Tb2 O21 1_555 1_555
O6_2 C5_2 1_555 1_555
O10_2 C9_2 1_555 1_555
O14_2 H13_2 1_555 1_555
O14_2 H14_2 1_555 1_555
O3_2 C4_2 1_555 1_555
O18 C4_2 1_555 1_555
O21 C12_2 1_555 1_555
O22 C12_2 1_555 1_555
C4_2 C3_2 1_555 1_555
H5_2 C10_2 1_555 1_555
C11_2 C10_2 1_555 1_555
H6_2 C11_2 1_555 1_555
C12_2 C11_2 1_555 1_555
Tb6_2 O3_2 1_555 1_555
O5_3 Tb4 1_555 1_555
C5_3 O5_3 1_555 1_555
C6_3 C5_3 1_555 1_555
H3_3 C6_3 1_555 1_555
O13_3 Tb4 1_555 1_555
H7_3 O13_3 1_555 1_555
H8_3 O13_3 1_555 1_555
O14_3 Tb4 1_555 1_555
O18_2 Tb4 1_555 1_555
O21_2 Tb4 1_555 1_555
O14_3 H14_3 1_555 1_555
Tb6_2 O2_3 1_555 1_555
O1_3 C1_3 1_555 1_555
O17_2 C4_3 1_555 1_555
O18_2 C4_3 1_555 1_555
O6_3 Tb6_2 1_555 1_555
O20 C8_3 1_555 1_555
O9_3 Tb6_2 1_555 1_555
O10_3 Tb6_2 1_555 1_555
O21_2 C12_3 1_555 1_555
O22_2 C12_3 1_555 1_555
C1_3 O2_3 1_555 1_555
C2_3 C1_3 1_555 1_555
H1_3 C2_3 1_555 1_555
C3_3 C2_3 1_555 1_555
H2_3 C3_3 1_555 1_555
C4_3 C3_3 1_555 1_555
H4_3 C7_3 1_555 1_555
C8_3 C7_3 1_555 1_555
C9_3 O9_3 1_555 1_555
C10_3 C9_3 1_555 1_555
H5_3 C10_3 1_555 1_555
C11_3 C10_3 1_555 1_555
H6_3 C11_3 1_555 1_555
C12_3 C11_3 1_555 1_555
O15_3 Tb6_2 1_555 1_555
H9_3 O15_3 1_555 1_555
H10_3 O15_3 1_555 1_555
O10_3 C9_3 1_555 1_555
O17 C4_4 1_555 1_555
O4_2 C4_4 1_555 1_555
O11_2 C12_4 1_555 1_555
O12_2 C12_4 1_555 1_555
C4_4 C3_4 1_555 1_555
H5_4 C10_4 1_555 1_555
C11_4 C10_4 1_555 1_555
H6_4 C11_4 1_555 1_555
C12_4 C11_4 1_555 1_555
Tb4_2 O4_2 1_555 1_555
Tb6 O11_2 1_555 1_555
O11_2 Tb4_2 1_555 1_555
O12_2 Tb6 1_555 1_555
Tb4_2 O1_4 1_555 1_555
Tb6 O2_4 1_555 1_555
O1_4 C1_4 1_555 1_555
O2_4 Tb4_2 1_555 1_555
O5_4 Tb4_2 1_555 1_555
O6_4 Tb6 1_555 1_555
O9_4 Tb6 1_555 1_555
O10_4 Tb6 1_555 1_555
C1_4 O2_4 1_555 1_555
C2_4 C1_4 1_555 1_555
H1_4 C2_4 1_555 1_555
C5_4 O5_4 1_555 1_555
C9_4 O9_4 1_555 1_555
O13_4 Tb4_2 1_555 1_555
H7_4 O13_4 1_555 1_555
H8_4 O13_4 1_555 1_555
O14_4 Tb4_2 1_555 1_555
O15_4 Tb6 1_555 1_555
H9_4 O15_4 1_555 1_555
H10_4 O15_4 1_555 1_555
O16_2 Tb6 1_555 1_555
H11_2 O16_2 1_555 1_555
H12_2 O16_2 1_555 1_555
O6_4 C5_4 1_555 1_555
O10_4 C9_4 1_555 1_555
O14_4 H13_4 1_555 1_555
O14_4 H14_4 1_555 1_555
H3_4 C6_4 1_555 1_555
C7_4 C6_4 1_555 1_555
H4_4 C7_4 1_555 1_555
C8_4 C7_4 1_555 1_555
H11_3 O16_3 1_555 1_555
H12_3 O16_3 1_555 1_555
H11_4 O16_4 1_555 1_555
H12_4 O16_4 1_555 1_555

#END
