
###############################################################################
#
# This file contains modified crystal structure data generated from the
# MOF subset of the Cambridge Structural Database (CSD) v543 
# hosted by the Cambridge Crystallographic Data Centre (CCDC).
#
# This work is licensed under the Creative Commons
# Attribution-NonCommercial-ShareAlike 4.0 International License.
# To view a copy of this license, visit
# http://creativecommons.org/licenses/by-nc-sa/4.0/
# or send a letter to
# Creative Commons, PO Box 1866, Mountain View, CA 94042, USA.
#
# CIF created using the CSD Python API on 29 September 2022
# The structure has been converted into the P1 space group
# The structure has a 3D framework
# The original CSD entry WADDIR is in the monoclinic crystal system
# The framework has been calculated to contain at least 10.0% void space
# The void calculation uses a probe of radius 1.32A, grid spacing 0.4
#
###############################################################################

data_WADDIR
_chemical_formula_moiety         '(C48 H56 Dy8 O62)n'
_symmetry_cell_setting           triclinic
_symmetry_space_group_name_H-M   'P 1'
_symmetry_Int_Tables_number      1
_space_group_name_Hall           'P 1'
loop_
_symmetry_equiv_pos_site_id
_symmetry_equiv_pos_as_xyz
1 x,y,z
_cell_length_a                   9.4254(5)
_cell_length_b                   14.5461(8)
_cell_length_c                   14.7326(8)
_cell_angle_alpha                90
_cell_angle_beta                 90.9090(10)
_cell_angle_gamma                90
_cell_volume                     2019.63
loop_
_atom_site_label
_atom_site_type_symbol
_atom_site_fract_x
_atom_site_fract_y
_atom_site_fract_z
C6 C 0.0413(5) 0.1026(3) 0.0504(3)
H11 H 0.1282 0.0724 0.0536
O6 O 0.0576(3) 0.3947(2) 0.9386(2)
O7 O 0.0377(3) 0.3158(2) 0.8123(2)
Dy2 Dy 0.02468(2) 0.164357(13) 0.744583(13)
C3 C 0.0099(5) 0.1651(3) 0.9718(3)
O10 O 0.0112(3) 0.2786(2) 0.6303(2)
O11 O 0.0309(3) 0.0742(2) 0.6074(2)
O14 O 0.1484(3) 0.0162(2) 0.7807(2)
O15 O 0.2607(3) 0.1830(2) 0.7063(2)
O16 O 0.0881(3) 0.1550(2) 0.9030(2)
H6 H 0.030(6) 0.266(4) 0.5749(14)
H7 H 0.037(6) 0.3347(14) 0.639(4)
H8 H 0.002(6) 0.0188(15) 0.616(4)
H9 H 0.116(3) 0.078(4) 0.588(4)
O21 O 0.0808(3) 0.9742(2) 0.1961(2)
O8 O 0.7940(3) 0.3730(2) 0.0670(2)
C9 C 0.9476(5) 0.0894(3) 0.1155(3)
C12 C 0.9616(5) 0.0138(3) 0.1819(3)
H14 H 0.8706 0.1291 0.1194
Dy1 Dy 0.81229(2) 0.346512(13) 0.905959(13)
O1 O 0.5911(3) 0.2696(2) 0.9599(2)
O2 O 0.5692(3) 0.3877(2) 0.8673(2)
O3 O 0.8115(3) 0.4255(2) 0.7638(2)
O4 O 0.7880(4) 0.5034(2) 0.9392(2)
O5 O 0.7836(3) 0.2223(2) 0.8035(2)
O9 O 0.9083(3) 0.2196(2) 0.9773(2)
C1 C 0.5143(5) 0.3286(3) 0.9193(3)
H1 H 0.890(3) 0.437(4) 0.737(3)
H2 H 0.756(5) 0.460(3) 0.733(3)
H3 H 0.762(6) 0.547(3) 0.903(3)
H4 H 0.838(5) 0.535(4) 0.977(3)
C2 C 0.7186(5) 0.1861(3) 0.7358(3)
C4 C 0.3585(5) 0.3291(3) 0.9318(3)
O12 O 0.7888(3) 0.1471(2) 0.6745(2)
O13 O 0.9192(3) 0.0258(2) 0.8039(2)
C5 C 0.5613(5) 0.1865(3) 0.7308(3)
H5 H 0.3218 0.3122 0.9876
C7 C 0.2711(5) 0.3533(3) 0.8651(3)
H10 H 0.5092 0.1985 0.7826
C8 C 0.4950(5) 0.1697(3) 0.6525(3)
H12 H 0.3101 0.3705 0.8101
C10 C 0.1149(5) 0.3546(3) 0.8727(3)
H13 H 0.5501 0.1632 0.6011
C11 C 0.3390(5) 0.1606(3) 0.6414(3)
O19 O 0.2940(3) 0.1270(2) 0.5670(2)
Dy5 Dy 0.31229(2) 0.153488(13) 0.405959(13)
O22 O 0.8516(3) 0.9838(2) 0.2193(2)
Dy6 Dy 0.97532(2) 0.835643(13) 0.255417(13)
Dy5_2 Dy 0.18771(2) 0.653488(13) 0.094041(13)
C4_2 C 0.1415(5) 0.8291(3) 0.5682(3)
H5_2 H 0.1782 0.8122 0.5124
C7_2 C 0.2289(5) 0.8533(3) 0.6349(3)
C8_2 C 0.0050(5) 0.6697(3) 0.8475(3)
H12_2 H 0.1899 0.8705 0.6899
C10_2 C 0.3851(5) 0.8546(3) 0.6273(3)
C11_2 C 0.1610(5) 0.6606(3) 0.8586(3)
O17 O 0.4424(3) 0.8947(2) 0.5614(2)
O18 O 0.4623(3) 0.8158(2) 0.6877(2)
O19_2 O 0.2060(3) 0.6270(2) 0.9330(2)
O20 O 0.2393(3) 0.6830(2) 0.7937(2)
Dy3 Dy 0.68771(2) 0.846512(13) 0.594041(13)
Dy4 Dy 0.47532(2) 0.664357(13) 0.755417(13)
O1_2 O 0.9089(3) 0.7696(2) 0.5401(2)
O2_2 O 0.9308(3) 0.8877(2) 0.6327(2)
O3_2 O 0.6885(3) 0.9255(2) 0.7362(2)
O5_2 O 0.7164(3) 0.7223(2) 0.6965(2)
O8_2 O 0.7060(3) 0.8730(2) 0.4330(2)
O9_2 O 0.5917(3) 0.7196(2) 0.5227(2)
C1_2 C 0.9857(5) 0.8286(3) 0.5807(3)
H1_2 H 0.610(3) 0.937(4) 0.763(3)
H2_2 H 0.744(5) 0.960(3) 0.767(3)
C2_2 C 0.7814(5) 0.6861(3) 0.7642(3)
C3_2 C 0.4901(5) 0.6651(3) 0.5282(3)
O10_2 O 0.4888(3) 0.7786(2) 0.8697(2)
O11_2 O 0.4691(3) 0.5742(2) 0.8926(2)
O12_2 O 0.7112(3) 0.6471(2) 0.8255(2)
O13_2 O 0.5808(3) 0.5258(2) 0.6961(2)
O14_2 O 0.3516(3) 0.5162(2) 0.7193(2)
O16_2 O 0.4119(3) 0.6550(2) 0.5970(2)
C5_2 C 0.9387(5) 0.6865(3) 0.7692(3)
C6_2 C 0.4587(5) 0.6026(3) 0.4496(3)
H6_2 H 0.470(6) 0.766(4) 0.9251(14)
H7_2 H 0.463(6) 0.8347(14) 0.861(4)
H8_2 H 0.498(6) 0.5188(15) 0.884(4)
H9_2 H 0.384(3) 0.578(4) 0.912(4)
H10_2 H 0.9908 0.6985 0.7174
H11_2 H 0.3718 0.5724 0.4464
C9_2 C 0.5524(5) 0.5894(3) 0.3845(3)
H13_2 H 0.9499 0.6632 0.8989
C12_2 C 0.5384(5) 0.5138(3) 0.3181(3)
H14_2 H 0.6294 0.6291 0.3806
O21_2 O 0.4192(3) 0.4742(2) 0.3039(2)
O22_2 O 0.6484(3) 0.4838(2) 0.2807(2)
Dy6_2 Dy 0.52468(2) 0.335643(13) 0.244583(13)
O1_3 O 0.4089(3) 0.7304(2) 0.0401(2)
O2_3 O 0.4308(3) 0.6123(2) 0.1327(2)
O3_3 O 0.1885(3) 0.5745(2) 0.2362(2)
O4_2 O 0.2120(4) 0.4966(2) 0.0608(2)
O5_3 O 0.2164(3) 0.7777(2) 0.1965(2)
O9_3 O 0.0917(3) 0.7804(2) 0.0227(2)
C1_3 C 0.4857(5) 0.6714(3) 0.0807(3)
H1_3 H 0.110(3) 0.563(4) 0.263(3)
H2_3 H 0.244(5) 0.540(3) 0.267(3)
H3_2 H 0.238(6) 0.453(3) 0.097(3)
H4_2 H 0.162(5) 0.465(4) 0.023(3)
C2_3 C 0.2814(5) 0.8139(3) 0.2642(3)
C4_3 C 0.6415(5) 0.6709(3) 0.0682(3)
O12_3 O 0.2112(3) 0.8529(2) 0.3255(2)
C5_3 C 0.4387(5) 0.8135(3) 0.2692(3)
H5_3 H 0.6782 0.6878 0.0124
C7_3 C 0.7289(5) 0.6467(3) 0.1349(3)
H10_3 H 0.4908 0.8015 0.2174
C8_3 C 0.5050(5) 0.8303(3) 0.3475(3)
H12_3 H 0.6899 0.6295 0.1899
C10_3 C 0.8851(5) 0.6454(3) 0.1273(3)
H13_3 H 0.4499 0.8368 0.3989
C11_3 C 0.6610(5) 0.8394(3) 0.3586(3)
O17_2 O 0.9424(3) 0.6053(2) 0.0614(2)
O18_2 O 0.9623(3) 0.6842(2) 0.1877(2)
O20_2 O 0.7393(3) 0.8170(2) 0.2937(2)
C9_3 C 0.0524(5) 0.9106(3) 0.8845(3)
C12_3 C 0.0384(5) 0.9862(3) 0.8181(3)
H14_3 H 0.1294 0.8709 0.8806
C3_3 C 0.9901(5) 0.8349(3) 0.0282(3)
O10_3 O 0.9888(3) 0.7214(2) 0.3697(2)
O11_3 O 0.9691(3) 0.9258(2) 0.3926(2)
O16_3 O 0.9119(3) 0.8450(2) 0.0970(2)
H6_3 H 0.970(6) 0.734(4) 0.4251(14)
H7_3 H 0.963(6) 0.6653(14) 0.361(4)
H8_3 H 0.998(6) 0.9812(15) 0.384(4)
H9_3 H 0.884(3) 0.922(4) 0.412(4)
O1_4 O 0.0911(3) 0.2304(2) 0.4599(2)
O2_4 O 0.0692(3) 0.1123(2) 0.3673(2)
O3_4 O 0.3115(3) 0.0745(2) 0.2638(2)
O5_4 O 0.2836(3) 0.2777(2) 0.3035(2)
O6_2 O 0.5576(3) 0.1053(2) 0.4386(2)
O7_2 O 0.5377(3) 0.1842(2) 0.3123(2)
O9_4 O 0.4083(3) 0.2804(2) 0.4773(2)
C1_4 C 0.0143(5) 0.1714(3) 0.4193(3)
H1_4 H 0.390(3) 0.063(4) 0.237(3)
H2_4 H 0.256(5) 0.040(3) 0.233(3)
C2_4 C 0.2186(5) 0.3139(3) 0.2358(3)
C3_4 C 0.5099(5) 0.3349(3) 0.4718(3)
O10_4 O 0.5112(3) 0.2214(2) 0.1303(2)
O11_4 O 0.5309(3) 0.4258(2) 0.1074(2)
O12_4 O 0.2888(3) 0.3529(2) 0.1745(2)
O15_2 O 0.7607(3) 0.3170(2) 0.2063(2)
O16_4 O 0.5881(3) 0.3450(2) 0.4030(2)
C5_4 C 0.0613(5) 0.3135(3) 0.2308(3)
C6_3 C 0.5413(5) 0.3974(3) 0.5504(3)
H6_4 H 0.530(6) 0.234(4) 0.0749(14)
H7_4 H 0.537(6) 0.1653(14) 0.139(4)
H8_4 H 0.502(6) 0.4812(15) 0.116(4)
H9_4 H 0.616(3) 0.422(4) 0.088(4)
H10_4 H 0.0092 0.3015 0.2826
H11_3 H 0.6282 0.4276 0.5536
C9_4 C 0.4476(5) 0.4106(3) 0.6155(3)
H13_4 H 0.0501 0.3368 0.1011
C12_4 C 0.4616(5) 0.4862(3) 0.6819(3)
H14_4 H 0.3706 0.3709 0.6194
C4_4 C 0.8585(5) 0.1709(3) 0.4318(3)
H5_4 H 0.8218 0.1878 0.4876
C7_4 C 0.7711(5) 0.1467(3) 0.3651(3)
C8_4 C 0.9950(5) 0.3303(3) 0.1525(3)
H12_4 H 0.8101 0.1295 0.3101
C10_4 C 0.6149(5) 0.1454(3) 0.3727(3)
C11_4 C 0.8390(5) 0.3394(3) 0.1414(3)
O4_3 O 0.7120(4) 0.0034(2) 0.5608(2)
H3_3 H 0.738(6) 0.047(3) 0.597(3)
H4_3 H 0.662(5) 0.035(4) 0.523(3)
C6_4 C 0.9587(5) 0.8974(3) 0.9496(3)
H11_4 H 0.8718 0.9276 0.9464
O4_4 O 0.2880(4) 0.9966(2) 0.4392(2)
H3_4 H 0.262(6) 0.953(3) 0.403(3)
H4_4 H 0.338(5) 0.965(4) 0.477(3)
loop_
_geom_bond_atom_site_label_1
_geom_bond_atom_site_label_2
_geom_bond_site_symmetry_1
_geom_bond_site_symmetry_2
H11 C6 1_555 1_555
O10 Dy2 1_555 1_555
O11 Dy2 1_555 1_555
O14 Dy2 1_555 1_555
O15 Dy2 1_555 1_555
O16 Dy2 1_555 1_555
H6 O10 1_555 1_555
H7 O10 1_555 1_555
H8 O11 1_555 1_555
H9 O11 1_555 1_555
O7 Dy2 1_555 1_555
C3 O16 1_555 1_555
C12 C9 1_555 1_555
H14 C9 1_555 1_555
Dy1 O1 1_555 1_555
O1 C1 1_555 1_555
O2 Dy1 1_555 1_555
O3 Dy1 1_555 1_555
O4 Dy1 1_555 1_555
O5 Dy1 1_555 1_555
O9 Dy1 1_555 1_555
C1 O2 1_555 1_555
H1 O3 1_555 1_555
H2 O3 1_555 1_555
H3 O4 1_555 1_555
H4 O4 1_555 1_555
C2 O5 1_555 1_555
C4 C1 1_555 1_555
C5 C2 1_555 1_555
H5 C4 1_555 1_555
C7 C4 1_555 1_555
H10 C5 1_555 1_555
C8 C5 1_555 1_555
H12 C7 1_555 1_555
C10 C7 1_555 1_555
H13 C8 1_555 1_555
C11 C8 1_555 1_555
O6 C10 1_555 1_555
O7 C10 1_555 1_555
O19 C11 1_555 1_555
O15 C11 1_555 1_555
Dy5 O19 1_555 1_555
C2 O12 1_555 1_555
O22 Dy6 1_555 1_555
H5_2 C4_2 1_555 1_555
C7_2 C4_2 1_555 1_555
H12_2 C7_2 1_555 1_555
C10_2 C7_2 1_555 1_555
C11_2 C8_2 1_555 1_555
O17 C10_2 1_555 1_555
O18 C10_2 1_555 1_555
O19_2 C11_2 1_555 1_555
O20 C11_2 1_555 1_555
Dy3 O17 1_555 1_555
Dy4 O18 1_555 1_555
O18 Dy3 1_555 1_555
O20 Dy4 1_555 1_555
Dy3 O1_2 1_555 1_555
O1_2 C1_2 1_555 1_555
O2_2 Dy3 1_555 1_555
O3_2 Dy3 1_555 1_555
O5_2 Dy3 1_555 1_555
O8_2 Dy3 1_555 1_555
O9_2 Dy3 1_555 1_555
C1_2 O2_2 1_555 1_555
H1_2 O3_2 1_555 1_555
H2_2 O3_2 1_555 1_555
Dy4 O5_2 1_555 1_555
C2_2 O5_2 1_555 1_555
C3_2 O9_2 1_555 1_555
O10_2 Dy4 1_555 1_555
O11_2 Dy4 1_555 1_555
O12_2 Dy4 1_555 1_555
O13_2 Dy4 1_555 1_555
O14_2 Dy4 1_555 1_555
O16_2 Dy4 1_555 1_555
C5_2 C2_2 1_555 1_555
C6_2 C3_2 1_555 1_555
H6_2 O10_2 1_555 1_555
H7_2 O10_2 1_555 1_555
H8_2 O11_2 1_555 1_555
H9_2 O11_2 1_555 1_555
H10_2 C5_2 1_555 1_555
H11_2 C6_2 1_555 1_555
C9_2 C6_2 1_555 1_555
C12_2 C9_2 1_555 1_555
H14_2 C9_2 1_555 1_555
O21_2 C12_2 1_555 1_555
O22_2 C12_2 1_555 1_555
Dy6_2 O21_2 1_555 1_555
C2_2 O12_2 1_555 1_555
C3_2 O16_2 1_555 1_555
O22_2 Dy6_2 1_555 1_555
Dy5_2 O1_3 1_555 1_555
O1_3 C1_3 1_555 1_555
O2_3 Dy5_2 1_555 1_555
O3_3 Dy5_2 1_555 1_555
O4_2 Dy5_2 1_555 1_555
O5_3 Dy5_2 1_555 1_555
O9_3 Dy5_2 1_555 1_555
C1_3 O2_3 1_555 1_555
H1_3 O3_3 1_555 1_555
H2_3 O3_3 1_555 1_555
H3_2 O4_2 1_555 1_555
H4_2 O4_2 1_555 1_555
C2_3 O5_3 1_555 1_555
C4_3 C1_3 1_555 1_555
C5_3 C2_3 1_555 1_555
H5_3 C4_3 1_555 1_555
C7_3 C4_3 1_555 1_555
H10_3 C5_3 1_555 1_555
C8_3 C5_3 1_555 1_555
H12_3 C7_3 1_555 1_555
C10_3 C7_3 1_555 1_555
H13_3 C8_3 1_555 1_555
C11_3 C8_3 1_555 1_555
O17_2 C10_3 1_555 1_555
O18_2 C10_3 1_555 1_555
O8_2 C11_3 1_555 1_555
O20_2 C11_3 1_555 1_555
Dy6 O18_2 1_555 1_555
C2_3 O12_3 1_555 1_555
O20_2 Dy6 1_555 1_555
C12_3 C9_3 1_555 1_555
H14_3 C9_3 1_555 1_555
O10_3 Dy6 1_555 1_555
O11_3 Dy6 1_555 1_555
O16_3 Dy6 1_555 1_555
H6_3 O10_3 1_555 1_555
H7_3 O10_3 1_555 1_555
H8_3 O11_3 1_555 1_555
H9_3 O11_3 1_555 1_555
C3_3 O16_3 1_555 1_555
Dy5 O1_4 1_555 1_555
O1_4 C1_4 1_555 1_555
O2_4 Dy5 1_555 1_555
O3_4 Dy5 1_555 1_555
O5_4 Dy5 1_555 1_555
O6_2 Dy5 1_555 1_555
O7_2 Dy5 1_555 1_555
O9_4 Dy5 1_555 1_555
C1_4 O2_4 1_555 1_555
H1_4 O3_4 1_555 1_555
H2_4 O3_4 1_555 1_555
Dy6_2 O5_4 1_555 1_555
C2_4 O5_4 1_555 1_555
C3_4 O9_4 1_555 1_555
O10_4 Dy6_2 1_555 1_555
O11_4 Dy6_2 1_555 1_555
O12_4 Dy6_2 1_555 1_555
O15_2 Dy6_2 1_555 1_555
O16_4 Dy6_2 1_555 1_555
C5_4 C2_4 1_555 1_555
C6_3 C3_4 1_555 1_555
H6_4 O10_4 1_555 1_555
H7_4 O10_4 1_555 1_555
H8_4 O11_4 1_555 1_555
H9_4 O11_4 1_555 1_555
H10_4 C5_4 1_555 1_555
H11_3 C6_3 1_555 1_555
C9_4 C6_3 1_555 1_555
C12_4 C9_4 1_555 1_555
H14_4 C9_4 1_555 1_555
O13_2 C12_4 1_555 1_555
O14_2 C12_4 1_555 1_555
O7_2 Dy6_2 1_555 1_555
C2_4 O12_4 1_555 1_555
C3_4 O16_4 1_555 1_555
H5_4 C4_4 1_555 1_555
C7_4 C4_4 1_555 1_555
H12_4 C7_4 1_555 1_555
C10_4 C7_4 1_555 1_555
C11_4 C8_4 1_555 1_555
O6_2 C10_4 1_555 1_555
O7_2 C10_4 1_555 1_555
O8 C11_4 1_555 1_555
O15_2 C11_4 1_555 1_555
H3_3 O4_3 1_555 1_555
H4_3 O4_3 1_555 1_555
H11_4 C6_4 1_555 1_555
H3_4 O4_4 1_555 1_555
H4_4 O4_4 1_555 1_555

#END
