
###############################################################################
#
# This file contains modified crystal structure data generated from the
# MOF subset of the Cambridge Structural Database (CSD) v543 
# hosted by the Cambridge Crystallographic Data Centre (CCDC).
#
# This work is licensed under the Creative Commons
# Attribution-NonCommercial-ShareAlike 4.0 International License.
# To view a copy of this license, visit
# http://creativecommons.org/licenses/by-nc-sa/4.0/
# or send a letter to
# Creative Commons, PO Box 1866, Mountain View, CA 94042, USA.
#
# CIF created using the CSD Python API on 29 September 2022
# The structure has been converted into the P1 space group
# The structure has a 3D framework
# The original CSD entry WAFMAV is in the monoclinic crystal system
# The framework has been calculated to contain at least 10.0% void space
# The void calculation uses a probe of radius 1.32A, grid spacing 0.4
# The framework is charged, counterions have been retained in the structure
#
###############################################################################

data_WAFMAV
_chemical_formula_moiety         '(C120 H88 Ag8 N16 O22)n'
_symmetry_cell_setting           triclinic
_symmetry_space_group_name_H-M   'P 1'
_symmetry_Int_Tables_number      1
_space_group_name_Hall           'P 1'
loop_
_symmetry_equiv_pos_site_id
_symmetry_equiv_pos_as_xyz
1 x,y,z
_cell_length_a                   14.2981(7)
_cell_length_b                   17.5489(8)
_cell_length_c                   13.4398(7)
_cell_angle_alpha                90
_cell_angle_beta                 114.6570(10)
_cell_angle_gamma                90
_cell_volume                     3064.78
loop_
_atom_site_label
_atom_site_type_symbol
_atom_site_fract_x
_atom_site_fract_y
_atom_site_fract_z
O3 O 0.0844(3) 0.5260(2) 0.3347(3)
C16 C 0.0624(2) 0.7517(2) 0.0600(3)
H14 H 0.0895 0.7836 0.0202
C29 C 0.0676(3) 0.6329(3) 0.1501(4)
H21 H 0.0943 0.5841 0.1696
C30 C 0.1025(3) 0.6784(3) 0.0899(4)
H22 H 0.1529 0.6606 0.0690
N5 N 0.1062(3) 0.6843(2) 0.8187(3)
Ag1 Ag 0.75174(3) 0.853696(19) 0.05885(3)
O1 O 0.3541(4) 0.5976(3) 0.0904(4)
O4 O 0.9217(3) 0.49236(19) 0.2895(4)
O6 O 0.7095(4) 0.9866(3) 0.0733(5)
H4 H 0.6754 0.9825 0.0046
N1 N 0.5932(2) 0.77439(19) 0.0029(3)
N3 N 0.8708(2) 0.76343(18) 0.1717(3)
N4 N 0.6062(3) 0.8157(2) 0.3187(3)
C1 C 0.3645(3) 0.7631(3) 0.0667(4)
H5 H 0.3192 0.7279 0.0742
C2 C 0.3524(4) 0.8385(3) 0.0808(4)
H6 H 0.2977 0.8545 0.0959
C3 C 0.4204(4) 0.8922(3) 0.0729(4)
H7 H 0.4122 0.9450 0.0860
C4 C 0.4998(4) 0.8706(3) 0.0489(4)
H8 H 0.5453 0.9069 0.0445
C5 C 0.5131(3) 0.7932(2) 0.0307(3)
C6 C 0.4460(3) 0.7378(3) 0.0407(3)
C7 C 0.4616(3) 0.6603(3) 0.0204(3)
C10 C 0.3979(3) 0.5926(3) 0.0297(4)
H10 H 0.7235 0.5797 0.0096
C17 C 0.9858(3) 0.7787(3) 0.0846(4)
H15 H 0.9584 0.8268 0.0609
C18 C 0.9474(3) 0.7333(2) 0.1468(3)
C19 C 0.9907(3) 0.6596(2) 0.1829(3)
C20 C 0.9516(3) 0.6171(2) 0.2470(3)
C21 C 0.8754(3) 0.6482(2) 0.2703(3)
H16 H 0.8484 0.6204 0.3112
C22 C 0.8375(3) 0.7208(2) 0.2336(3)
C23 C 0.9896(3) 0.5384(2) 0.2937(4)
C24 C 0.7569(3) 0.7542(2) 0.2624(3)
C25 C 0.6829(3) 0.7080(2) 0.2744(3)
H17 H 0.6832 0.6556 0.2640
C26 C 0.6097(3) 0.7408(3) 0.3017(4)
H18 H 0.5596 0.7081 0.3101
C27 C 0.6785(4) 0.8601(2) 0.3094(4)
H19 H 0.6781 0.9136 0.3242
C28 C 0.7543(3) 0.8322(2) 0.2812(3)
H20 H 0.8028 0.8648 0.2747
Ag3 Ag 0.97330(2) 0.36488(2) 0.33453(3)
Ag4 Ag 0.47330(2) 0.86488(2) 0.33453(3)
Ag2 Ag 0.97330(2) 0.63512(2) 0.83453(3)
O2 O 0.3937(3) 0.5381(2) 0.9699(4)
O5 O 0.7811(3) 0.9133(2) 0.9103(3)
H1 H 0.7247 0.9097 0.8536
H2 H 0.7934 0.9575 0.9387
N2 N 0.8367(3) 0.6529(2) 0.8696(3)
C8 C 0.5395(3) 0.6444(2) 0.9894(4)
H9 H 0.5511 0.5928 0.9736
C9 C 0.6032(3) 0.7025(2) 0.9804(3)
C11 C 0.6847(3) 0.6841(2) 0.9428(3)
C12 C 0.7379(3) 0.6162(2) 0.9678(4)
C13 C 0.8126(3) 0.6028(2) 0.9301(4)
H11 H 0.8479 0.5568 0.9477
C14 C 0.7829(4) 0.7179(3) 0.8421(4)
H12 H 0.7975 0.7527 0.7983
C15 C 0.7067(2) 0.7355(2) 0.8759(3)
H13 H 0.6704 0.7810 0.8545
O7 O 0.9217(3) 0.50764(19) 0.7895(4)
Ag1_2 Ag 0.75174(3) 0.146304(19) 0.55885(3)
O1_2 O 0.3541(4) 0.4024(3) 0.5904(4)
O2_2 O 0.3937(3) 0.4619(2) 0.4699(4)
O5_2 O 0.7811(3) 0.0867(2) 0.4103(3)
H1_2 H 0.7247 0.0903 0.3536
H2_2 H 0.7934 0.0425 0.4387
O6_2 O 0.7095(4) 0.0134(3) 0.5733(5)
H4_2 H 0.6754 0.0175 0.5046
N1_2 N 0.5932(2) 0.22561(19) 0.5029(3)
N2_2 N 0.8367(3) 0.3471(2) 0.3696(3)
N3_2 N 0.8708(2) 0.23657(18) 0.6717(3)
N4_2 N 0.6062(3) 0.1843(2) 0.8187(3)
C1_2 C 0.3645(3) 0.2369(3) 0.5667(4)
H5_2 H 0.3192 0.2721 0.5742
C2_2 C 0.3524(4) 0.1615(3) 0.5808(4)
H6_2 H 0.2977 0.1455 0.5959
C3_2 C 0.4204(4) 0.1078(3) 0.5729(4)
H7_2 H 0.4122 0.0550 0.5860
C4_2 C 0.4998(4) 0.1294(3) 0.5489(4)
H8_2 H 0.5453 0.0931 0.5445
C5_2 C 0.5131(3) 0.2068(2) 0.5307(3)
C6_2 C 0.4460(3) 0.2622(3) 0.5407(3)
C7_2 C 0.4616(3) 0.3397(3) 0.5204(3)
C8_2 C 0.5395(3) 0.3556(2) 0.4894(4)
H9_2 H 0.5511 0.4072 0.4736
C9_2 C 0.6032(3) 0.2975(2) 0.4804(3)
C10_2 C 0.3979(3) 0.4074(3) 0.5297(4)
C11_2 C 0.6847(3) 0.3159(2) 0.4428(3)
C12_2 C 0.7379(3) 0.3838(2) 0.4678(4)
H10_2 H 0.7235 0.4203 0.5096
C13_2 C 0.8126(3) 0.3972(2) 0.4301(4)
H11_2 H 0.8479 0.4432 0.4477
C14_2 C 0.7829(4) 0.2821(3) 0.3421(4)
H12_2 H 0.7975 0.2473 0.2983
C15_2 C 0.7067(2) 0.2645(2) 0.3759(3)
H13_2 H 0.6704 0.2190 0.3545
C17_2 C 0.9858(3) 0.2213(3) 0.5846(4)
H15_2 H 0.9584 0.1732 0.5609
C18_2 C 0.9474(3) 0.2667(2) 0.6468(3)
C19_2 C 0.9907(3) 0.3404(2) 0.6829(3)
C20_2 C 0.9516(3) 0.3829(2) 0.7470(3)
C21_2 C 0.8754(3) 0.3518(2) 0.7703(3)
H16_2 H 0.8484 0.3796 0.8112
C22_2 C 0.8375(3) 0.2792(2) 0.7336(3)
C23_2 C 0.9896(3) 0.4616(2) 0.7937(4)
C24_2 C 0.7569(3) 0.2458(2) 0.7624(3)
C25_2 C 0.6829(3) 0.2920(2) 0.7744(3)
H17_2 H 0.6832 0.3444 0.7640
C26_2 C 0.6097(3) 0.2592(3) 0.8017(4)
H18_2 H 0.5596 0.2919 0.8101
C27_2 C 0.6785(4) 0.1399(2) 0.8094(4)
H19_2 H 0.6781 0.0864 0.8242
C28_2 C 0.7543(3) 0.1678(2) 0.7812(3)
H20_2 H 0.8028 0.1352 0.7747
Ag4_2 Ag 0.47330(2) 0.13512(2) 0.83453(3)
O5_3 O 0.2811(3) 0.4133(2) 0.9103(3)
H1_3 H 0.2247 0.4097 0.8536
H2_3 H 0.2934 0.4575 0.9387
N2_3 N 0.3367(3) 0.1529(2) 0.8696(3)
C8_3 C 0.0395(3) 0.1444(2) 0.9894(4)
H9_3 H 0.0511 0.0928 0.9736
C9_3 C 0.1032(3) 0.2025(2) 0.9804(3)
C11_3 C 0.1847(3) 0.1841(2) 0.9428(3)
C12_3 C 0.2379(3) 0.1162(2) 0.9678(4)
C13_3 C 0.3126(3) 0.1028(2) 0.9301(4)
H11_3 H 0.3479 0.0568 0.9477
C14_3 C 0.2829(4) 0.2179(3) 0.8421(4)
H12_3 H 0.2975 0.2527 0.7983
C15_3 C 0.2067(2) 0.2355(2) 0.8759(3)
H13_3 H 0.1704 0.2810 0.8545
O7_2 O 0.4217(3) 0.00764(19) 0.7895(4)
O4_2 O 0.4217(3) 0.99236(19) 0.2895(4)
O1_3 O 0.8541(4) 0.0976(3) 0.0904(4)
C1_3 C 0.8645(3) 0.2631(3) 0.0667(4)
H5_3 H 0.8192 0.2279 0.0742
C2_3 C 0.8524(4) 0.3385(3) 0.0808(4)
H6_3 H 0.7977 0.3545 0.0959
C3_3 C 0.9204(4) 0.3922(3) 0.0729(4)
H7_3 H 0.9122 0.4450 0.0860
C4_3 C 0.9998(4) 0.3706(3) 0.0489(4)
C6_3 C 0.9460(3) 0.2378(3) 0.0407(3)
C7_3 C 0.9616(3) 0.1603(3) 0.0204(3)
C10_3 C 0.8979(3) 0.0926(3) 0.0297(4)
Ag1_3 Ag 0.25174(3) 0.646304(19) 0.55885(3)
O3_2 O 0.5844(3) 0.9740(2) 0.8347(3)
O5_4 O 0.2811(3) 0.5867(2) 0.4103(3)
H1_4 H 0.2247 0.5903 0.3536
H2_4 H 0.2934 0.5425 0.4387
O6_3 O 0.2095(4) 0.5134(3) 0.5733(5)
H3 H 0.2551 0.4804 0.5792
H4_3 H 0.1754 0.5175 0.5046
N1_3 N 0.0932(2) 0.72561(19) 0.5029(3)
N2_4 N 0.3367(3) 0.8471(2) 0.3696(3)
N3_3 N 0.3708(2) 0.73657(18) 0.6717(3)
H8_3 H 0.0453 0.5931 0.5445
C5_3 C 0.0131(3) 0.7068(2) 0.5307(3)
C8_4 C 0.0395(3) 0.8556(2) 0.4894(4)
H9_4 H 0.0511 0.9072 0.4736
C9_4 C 0.1032(3) 0.7975(2) 0.4804(3)
C11_4 C 0.1847(3) 0.8159(2) 0.4428(3)
C12_4 C 0.2379(3) 0.8838(2) 0.4678(4)
H10_3 H 0.2235 0.9203 0.5096
C13_4 C 0.3126(3) 0.8972(2) 0.4301(4)
H11_4 H 0.3479 0.9432 0.4477
C14_4 C 0.2829(4) 0.7821(3) 0.3421(4)
H12_4 H 0.2975 0.7473 0.2983
C15_4 C 0.2067(2) 0.7645(2) 0.3759(3)
H13_4 H 0.1704 0.7190 0.3545
C16_2 C 0.5624(2) 0.7483(2) 0.5600(3)
H14_2 H 0.5895 0.7164 0.5202
C17_3 C 0.4858(3) 0.7213(3) 0.5846(4)
H15_3 H 0.4584 0.6732 0.5609
C18_3 C 0.4474(3) 0.7667(2) 0.6468(3)
C19_3 C 0.4907(3) 0.8404(2) 0.6829(3)
C20_3 C 0.4516(3) 0.8829(2) 0.7470(3)
C21_3 C 0.3754(3) 0.8518(2) 0.7703(3)
H16_3 H 0.3484 0.8796 0.8112
C22_3 C 0.3375(3) 0.7792(2) 0.7336(3)
C23_3 C 0.4896(3) 0.9616(2) 0.7937(4)
C24_3 C 0.2569(3) 0.7458(2) 0.7624(3)
C25_3 C 0.1829(3) 0.7920(2) 0.7744(3)
H17_3 H 0.1832 0.8444 0.7640
C26_3 C 0.1097(3) 0.7592(3) 0.8017(4)
H18_3 H 0.0596 0.7919 0.8101
C27_3 C 0.1785(4) 0.6399(2) 0.8094(4)
H19_3 H 0.1781 0.5864 0.8242
C28_3 C 0.2543(3) 0.6678(2) 0.7812(3)
H20_3 H 0.3028 0.6352 0.7747
C29_2 C 0.5676(3) 0.8671(3) 0.6501(4)
H21_2 H 0.5943 0.9159 0.6696
C30_2 C 0.6025(3) 0.8216(3) 0.5899(4)
H22_2 H 0.6529 0.8394 0.5690
O1_4 O 0.8541(4) 0.9024(3) 0.5904(4)
O2_3 O 0.8937(3) 0.9619(2) 0.4699(4)
C1_4 C 0.8645(3) 0.7369(3) 0.5667(4)
H5_4 H 0.8192 0.7721 0.5742
C2_4 C 0.8524(4) 0.6615(3) 0.5808(4)
H6_4 H 0.7977 0.6455 0.5959
C3_4 C 0.9204(4) 0.6078(3) 0.5729(4)
H7_4 H 0.9122 0.5550 0.5860
C4_4 C 0.9998(4) 0.6294(3) 0.5489(4)
C6_4 C 0.9460(3) 0.7622(3) 0.5407(3)
C7_4 C 0.9616(3) 0.8397(3) 0.5204(3)
C10_4 C 0.8979(3) 0.9074(3) 0.5297(4)
H3_2 H 0.7551 0.0196 0.0792
O3_3 O 0.0844(3) 0.4740(2) 0.8347(3)
C16_3 C 0.0624(2) 0.2483(2) 0.5600(3)
H14_3 H 0.0895 0.2164 0.5202
C29_3 C 0.0676(3) 0.3671(3) 0.6501(4)
H21_3 H 0.0943 0.4159 0.6696
C30_3 C 0.1025(3) 0.3216(3) 0.5899(4)
H22_3 H 0.1529 0.3394 0.5690
N5_2 N 0.1062(3) 0.3157(2) 0.3187(3)
Ag1_4 Ag 0.25174(3) 0.353696(19) 0.05885(3)
O3_4 O 0.5844(3) 0.0260(2) 0.3347(3)
O6_4 O 0.2095(4) 0.4866(3) 0.0733(5)
H3_3 H 0.2551 0.5196 0.0792
H4_4 H 0.1754 0.4825 0.0046
N1_4 N 0.0932(2) 0.27439(19) 0.0029(3)
N3_4 N 0.3708(2) 0.26343(18) 0.1717(3)
H8_4 H 0.0453 0.4069 0.0445
C5_4 C 0.0131(3) 0.2932(2) 0.0307(3)
H10_4 H 0.2235 0.0797 0.0096
C16_4 C 0.5624(2) 0.2517(2) 0.0600(3)
H14_4 H 0.5895 0.2836 0.0202
C17_4 C 0.4858(3) 0.2787(3) 0.0846(4)
H15_4 H 0.4584 0.3268 0.0609
C18_4 C 0.4474(3) 0.2333(2) 0.1468(3)
C19_4 C 0.4907(3) 0.1596(2) 0.1829(3)
C20_4 C 0.4516(3) 0.1171(2) 0.2470(3)
C21_4 C 0.3754(3) 0.1482(2) 0.2703(3)
H16_4 H 0.3484 0.1204 0.3112
C22_4 C 0.3375(3) 0.2208(2) 0.2336(3)
C23_4 C 0.4896(3) 0.0384(2) 0.2937(4)
C24_4 C 0.2569(3) 0.2542(2) 0.2624(3)
C25_4 C 0.1829(3) 0.2080(2) 0.2744(3)
H17_4 H 0.1832 0.1556 0.2640
C26_4 C 0.1097(3) 0.2408(3) 0.3017(4)
H18_4 H 0.0596 0.2081 0.3101
C27_4 C 0.1785(4) 0.3601(2) 0.3094(4)
H19_4 H 0.1781 0.4136 0.3242
C28_4 C 0.2543(3) 0.3322(2) 0.2812(3)
H20_4 H 0.3028 0.3648 0.2747
C29_4 C 0.5676(3) 0.1329(3) 0.1501(4)
H21_4 H 0.5943 0.0841 0.1696
C30_4 C 0.6025(3) 0.1784(3) 0.0899(4)
H22_4 H 0.6529 0.1606 0.0690
H3_4 H 0.7551 0.9804 0.5792
O2_4 O 0.8937(3) 0.0381(2) 0.9699(4)
loop_
_geom_bond_atom_site_label_1
_geom_bond_atom_site_label_2
_geom_bond_site_symmetry_1
_geom_bond_site_symmetry_2
C16 H14 1_555 1_555
H21 C29 1_555 1_555
C30 C16 1_555 1_555
H22 C30 1_555 1_555
C29 C30 1_555 1_555
O1 C10 1_555 1_555
O4 C23 1_555 1_555
O6 Ag1 1_555 1_555
H4 O6 1_555 1_555
N1 Ag1 1_555 1_555
N3 Ag1 1_555 1_555
N4 C26 1_555 1_555
C1 H5 1_555 1_555
C2 C1 1_555 1_555
H6 C2 1_555 1_555
C3 C2 1_555 1_555
H7 C3 1_555 1_555
C4 C3 1_555 1_555
H8 C4 1_555 1_555
C5 N1 1_555 1_555
C6 C1 1_555 1_555
C7 C6 1_555 1_555
C10 C7 1_555 1_555
H15 C17 1_555 1_555
C18 N3 1_555 1_555
C19 C18 1_555 1_555
C20 C19 1_555 1_555
C21 C20 1_555 1_555
H16 C21 1_555 1_555
C22 N3 1_555 1_555
C23 C20 1_555 1_555
C24 C22 1_555 1_555
C25 C24 1_555 1_555
H17 C25 1_555 1_555
C26 C25 1_555 1_555
H18 C26 1_555 1_555
C27 N4 1_555 1_555
H19 C27 1_555 1_555
C28 C24 1_555 1_555
H20 C28 1_555 1_555
Ag3 O4 1_555 1_555
Ag4 N4 1_555 1_555
C4 C5 1_555 1_555
C5 C6 1_555 1_555
C17 C18 1_555 1_555
C21 C22 1_555 1_555
C27 C28 1_555 1_555
Ag2 N2 1_555 1_555
O5 H1 1_555 1_555
H2 O5 1_555 1_555
N2 C13 1_555 1_555
H9 C8 1_555 1_555
C11 C9 1_555 1_555
C12 C11 1_555 1_555
C13 C12 1_555 1_555
H11 C13 1_555 1_555
C14 N2 1_555 1_555
H12 C14 1_555 1_555
C15 C11 1_555 1_555
H13 C15 1_555 1_555
O7 Ag2 1_555 1_555
C8 C9 1_555 1_555
C14 C15 1_555 1_555
Ag1_2 O5_2 1_555 1_555
Ag3 N2_2 1_555 1_555
O1_2 C10_2 1_555 1_555
O2_2 C10_2 1_555 1_555
O7 C23_2 1_555 1_555
O5_2 H1_2 1_555 1_555
H2_2 O5_2 1_555 1_555
O6_2 Ag1_2 1_555 1_555
H4_2 O6_2 1_555 1_555
N1_2 Ag1_2 1_555 1_555
N2_2 C13_2 1_555 1_555
N3_2 Ag1_2 1_555 1_555
N4_2 C26_2 1_555 1_555
C1_2 H5_2 1_555 1_555
C2_2 C1_2 1_555 1_555
H6_2 C2_2 1_555 1_555
C3_2 C2_2 1_555 1_555
H7_2 C3_2 1_555 1_555
C4_2 C3_2 1_555 1_555
H8_2 C4_2 1_555 1_555
C5_2 N1_2 1_555 1_555
C6_2 C1_2 1_555 1_555
C7_2 C6_2 1_555 1_555
C8_2 C7_2 1_555 1_555
H9_2 C8_2 1_555 1_555
C9_2 N1_2 1_555 1_555
C10_2 C7_2 1_555 1_555
C11_2 C9_2 1_555 1_555
C12_2 C11_2 1_555 1_555
H10_2 C12_2 1_555 1_555
C13_2 C12_2 1_555 1_555
H11_2 C13_2 1_555 1_555
C14_2 N2_2 1_555 1_555
H12_2 C14_2 1_555 1_555
C15_2 C11_2 1_555 1_555
H13_2 C15_2 1_555 1_555
H15_2 C17_2 1_555 1_555
C18_2 N3_2 1_555 1_555
C19_2 C18_2 1_555 1_555
C20_2 C19_2 1_555 1_555
C21_2 C20_2 1_555 1_555
H16_2 C21_2 1_555 1_555
C22_2 N3_2 1_555 1_555
C23_2 C20_2 1_555 1_555
C24_2 C22_2 1_555 1_555
C25_2 C24_2 1_555 1_555
H17_2 C25_2 1_555 1_555
C26_2 C25_2 1_555 1_555
H18_2 C26_2 1_555 1_555
C27_2 N4_2 1_555 1_555
H19_2 C27_2 1_555 1_555
C28_2 C24_2 1_555 1_555
H20_2 C28_2 1_555 1_555
Ag4_2 N4_2 1_555 1_555
C4_2 C5_2 1_555 1_555
C5_2 C6_2 1_555 1_555
C8_2 C9_2 1_555 1_555
C14_2 C15_2 1_555 1_555
C17_2 C18_2 1_555 1_555
C21_2 C22_2 1_555 1_555
C27_2 C28_2 1_555 1_555
Ag4_2 N2_3 1_555 1_555
O5_3 H1_3 1_555 1_555
H2_3 O5_3 1_555 1_555
N2_3 C13_3 1_555 1_555
H9_3 C8_3 1_555 1_555
C11_3 C9_3 1_555 1_555
C12_3 C11_3 1_555 1_555
C13_3 C12_3 1_555 1_555
H11_3 C13_3 1_555 1_555
C14_3 N2_3 1_555 1_555
H12_3 C14_3 1_555 1_555
C15_3 C11_3 1_555 1_555
H13_3 C15_3 1_555 1_555
O7_2 Ag4_2 1_555 1_555
C8_3 C9_3 1_555 1_555
C14_3 C15_3 1_555 1_555
Ag4 O4_2 1_555 1_555
O1_3 C10_3 1_555 1_555
C1_3 H5_3 1_555 1_555
C2_3 C1_3 1_555 1_555
H6_3 C2_3 1_555 1_555
C3_3 C2_3 1_555 1_555
H7_3 C3_3 1_555 1_555
C4_3 C3_3 1_555 1_555
C6_3 C1_3 1_555 1_555
C7_3 C6_3 1_555 1_555
C10_3 C7_3 1_555 1_555
Ag1_3 O5_4 1_555 1_555
Ag4 N2_4 1_555 1_555
O3_2 C23_3 1_555 1_555
O5_4 H1_4 1_555 1_555
H2_4 O5_4 1_555 1_555
O6_3 Ag1_3 1_555 1_555
H3 O6_3 1_555 1_555
H4_3 O6_3 1_555 1_555
N1_3 Ag1_3 1_555 1_555
N2_4 C13_4 1_555 1_555
N3_3 Ag1_3 1_555 1_555
N5 C26_3 1_555 1_555
C5_3 N1_3 1_555 1_555
H9_4 C8_4 1_555 1_555
C9_4 N1_3 1_555 1_555
C11_4 C9_4 1_555 1_555
C12_4 C11_4 1_555 1_555
H10_3 C12_4 1_555 1_555
C13_4 C12_4 1_555 1_555
H11_4 C13_4 1_555 1_555
C14_4 N2_4 1_555 1_555
H12_4 C14_4 1_555 1_555
C15_4 C11_4 1_555 1_555
H13_4 C15_4 1_555 1_555
C16_2 H14_2 1_555 1_555
C17_3 C16_2 1_555 1_555
H15_3 C17_3 1_555 1_555
C18_3 N3_3 1_555 1_555
C19_3 C18_3 1_555 1_555
C20_3 C19_3 1_555 1_555
C21_3 C20_3 1_555 1_555
H16_3 C21_3 1_555 1_555
C22_3 N3_3 1_555 1_555
C23_3 C20_3 1_555 1_555
C24_3 C22_3 1_555 1_555
C25_3 C24_3 1_555 1_555
H17_3 C25_3 1_555 1_555
C26_3 C25_3 1_555 1_555
H18_3 C26_3 1_555 1_555
C27_3 N5 1_555 1_555
H19_3 C27_3 1_555 1_555
C28_3 C24_3 1_555 1_555
H20_3 C28_3 1_555 1_555
C29_2 C19_3 1_555 1_555
H21_2 C29_2 1_555 1_555
C30_2 C16_2 1_555 1_555
H22_2 C30_2 1_555 1_555
C8_4 C9_4 1_555 1_555
C14_4 C15_4 1_555 1_555
C17_3 C18_3 1_555 1_555
C21_3 C22_3 1_555 1_555
C27_3 C28_3 1_555 1_555
C29_2 C30_2 1_555 1_555
O1_4 C10_4 1_555 1_555
O2_3 C10_4 1_555 1_555
C1_4 H5_4 1_555 1_555
C2_4 C1_4 1_555 1_555
H6_4 C2_4 1_555 1_555
C3_4 C2_4 1_555 1_555
H7_4 C3_4 1_555 1_555
C4_4 C3_4 1_555 1_555
C6_4 C1_4 1_555 1_555
C7_4 C6_4 1_555 1_555
C10_4 C7_4 1_555 1_555
C16_3 H14_3 1_555 1_555
H21_3 C29_3 1_555 1_555
C30_3 C16_3 1_555 1_555
H22_3 C30_3 1_555 1_555
C29_3 C30_3 1_555 1_555
O3_4 C23_4 1_555 1_555
O6_4 Ag1_4 1_555 1_555
H3_3 O6_4 1_555 1_555
H4_4 O6_4 1_555 1_555
N1_4 Ag1_4 1_555 1_555
N3_4 Ag1_4 1_555 1_555
N5_2 C26_4 1_555 1_555
C5_4 N1_4 1_555 1_555
C16_4 H14_4 1_555 1_555
C17_4 C16_4 1_555 1_555
H15_4 C17_4 1_555 1_555
C18_4 N3_4 1_555 1_555
C19_4 C18_4 1_555 1_555
C20_4 C19_4 1_555 1_555
C21_4 C20_4 1_555 1_555
H16_4 C21_4 1_555 1_555
C22_4 N3_4 1_555 1_555
C23_4 C20_4 1_555 1_555
C24_4 C22_4 1_555 1_555
C25_4 C24_4 1_555 1_555
H17_4 C25_4 1_555 1_555
C26_4 C25_4 1_555 1_555
H18_4 C26_4 1_555 1_555
C27_4 N5_2 1_555 1_555
H19_4 C27_4 1_555 1_555
C28_4 C24_4 1_555 1_555
H20_4 C28_4 1_555 1_555
C29_4 C19_4 1_555 1_555
H21_4 C29_4 1_555 1_555
C30_4 C16_4 1_555 1_555
H22_4 C30_4 1_555 1_555
C17_4 C18_4 1_555 1_555
C21_4 C22_4 1_555 1_555
C27_4 C28_4 1_555 1_555
C29_4 C30_4 1_555 1_555

#END
