
###############################################################################
#
# This file contains modified crystal structure data generated from the
# MOF subset of the Cambridge Structural Database (CSD) v543 
# hosted by the Cambridge Crystallographic Data Centre (CCDC).
#
# This work is licensed under the Creative Commons
# Attribution-NonCommercial-ShareAlike 4.0 International License.
# To view a copy of this license, visit
# http://creativecommons.org/licenses/by-nc-sa/4.0/
# or send a letter to
# Creative Commons, PO Box 1866, Mountain View, CA 94042, USA.
#
# CIF created using the CSD Python API on 29 September 2022
# The structure has been converted into the P1 space group
# The structure has a 3D framework
# The original CSD entry WAGSEG is in the monoclinic crystal system
# The framework has been calculated to contain at least 10.0% void space
# The void calculation uses a probe of radius 1.32A, grid spacing 0.4
#
###############################################################################

data_WAGSEG
_chemical_formula_moiety         '(C32 H56 Co8 Mo16 N32 O72)n'
_symmetry_cell_setting           triclinic
_symmetry_space_group_name_H-M   'P 1'
_symmetry_Int_Tables_number      1
_space_group_name_Hall           'P 1'
loop_
_symmetry_equiv_pos_site_id
_symmetry_equiv_pos_as_xyz
1 x,y,z
_cell_length_a                   10.575(6)
_cell_length_b                   15.569(9)
_cell_length_c                   21.576(12)
_cell_angle_alpha                90
_cell_angle_beta                 101.502(11)
_cell_angle_gamma                90
_cell_volume                     3480.98
loop_
_atom_site_label
_atom_site_type_symbol
_atom_site_fract_x
_atom_site_fract_y
_atom_site_fract_z
H5 H 0.001990 0.311181 0.771387
H6 H 0.017258 0.233901 0.740613
O18 O 0.1633(9) 0.6342(6) 0.5797(4)
H11 H 0.159966 0.619943 0.625966
H12 H 0.207310 0.691899 0.589594
Co8 Co 0.00618(15) 0.36604(8) 0.48648(6)
N18 N 0.0802(8) 0.7211(4) 0.4568(3)
N22 N 0.0691(10) 0.5548(5) 0.4522(4)
Mo1 Mo 0.46677(8) 0.89273(5) 0.48694(3)
O1 O 0.4524(5) 0.9759(4) 0.5514(2)
O2 O 0.2778(6) 0.9580(4) 0.4560(2)
O3 O 0.4300(6) 0.8824(4) 0.3975(2)
O4 O 0.6611(6) 0.9781(4) 0.6583(3)
O7 O 0.6322(6) 0.8761(4) 0.5030(3)
O9 O 0.1798(6) 0.9279(4) 0.5627(3)
O11 O 0.4053(6) 0.8015(4) 0.5116(3)
O13 O 0.4288(7) 0.9196(4) 0.6750(3)
Mo6 Mo 0.75725(8) 0.98581(5) 0.46833(4)
Mo7 Mo 0.52106(8) 0.98352(5) 0.34669(3)
Co3 Co 0.22757(13) 0.73849(8) 0.28192(5)
O23 O 0.2143(6) 0.8701(4) 0.2964(3)
O24 O 0.6800(6) 0.9323(4) 0.3884(3)
O26 O 0.0860(6) 0.9898(4) 0.3505(3)
O28 O 0.8851(6) 0.9216(4) 0.4955(3)
O30 O 0.4201(7) 0.7359(4) 0.3285(3)
H15 H 0.476580 0.742655 0.301931
H16 H 0.441390 0.781497 0.354678
N9 N 0.1568(7) 0.8178(4) 0.3989(3)
O32 O 0.2373(7) 0.6076(4) 0.2699(3)
H17 H 0.225797 0.595750 0.230237
H18 H 0.314269 0.589618 0.284973
N10 N 0.1727(7) 0.7390(4) 0.3728(3)
O33 O 0.4972(7) 0.9233(5) 0.2792(3)
N12 N 0.1626(8) 0.5319(5) 0.3688(3)
N13 N 0.2115(8) 0.2631(5) 0.3086(3)
O34 O 0.0339(7) 0.7418(5) 0.2353(4)
N14 N 0.1000(9) 0.3088(5) 0.4101(4)
N15 N 0.0753(9) 0.4692(5) 0.4436(4)
C9 C 0.1028(8) 0.8041(5) 0.4482(4)
H21 H 0.082583 0.847593 0.474059
C10 C 0.1278(9) 0.6843(5) 0.4097(4)
C11 C 0.2030(10) 0.3452(6) 0.3251(4)
H22 H 0.236695 0.387358 0.302472
C12 C 0.1456(10) 0.3698(6) 0.3748(4)
C13 C 0.1212(10) 0.5890(6) 0.4065(4)
C14 C 0.1319(10) 0.4578(6) 0.3953(4)
C15 C 0.1141(12) 0.2282(6) 0.3952(5)
H23 H 0.087955 0.185404 0.419942
C16 C 0.1670(11) 0.2042(7) 0.3433(5)
H24 H 0.171097 0.146412 0.332924
Mo8 Mo 0.22723(7) 0.93700(5) 0.36202(3)
O35 O 0.1785(9) 0.3410(6) 0.5481(4)
H25 H 0.248107 0.342090 0.528563
H26 H 0.200921 0.383556 0.577572
Co6 Co 0.27243(13) 0.23849(8) 0.21808(5)
N20 N 0.2885(8) 0.7631(5) 0.1914(3)
Mo1_2 Mo 0.03323(8) 0.39273(5) 0.01306(3)
O2_2 O 0.2222(6) 0.4580(4) 0.0440(2)
O3_2 O 0.0700(6) 0.3824(4) 0.1025(2)
O22 O 0.1611(6) 0.5219(4) 0.1583(3)
O23_2 O 0.2857(6) 0.3701(4) 0.2036(3)
O25 O 0.1322(6) 0.6239(4) 0.0030(3)
O26_2 O 0.4140(6) 0.4898(4) 0.1495(3)
O30_2 O 0.0799(7) 0.2359(4) 0.1715(3)
H15_2 H 0.023420 0.242655 0.198069
H16_2 H 0.058610 0.281497 0.145322
N9_2 N 0.3432(7) 0.3178(4) 0.1011(3)
O32_2 O 0.2627(7) 0.1076(4) 0.2301(3)
H17_2 H 0.274203 0.095750 0.269763
H18_2 H 0.185731 0.089618 0.215027
N10_2 N 0.3273(7) 0.2390(4) 0.1272(3)
N11 N 0.4198(8) 0.2211(4) 0.0432(3)
O33_2 O 0.0028(7) 0.4233(5) 0.2208(3)
N12_2 N 0.3374(8) 0.0319(5) 0.1312(3)
O34_2 O 0.4661(7) 0.2418(5) 0.2647(4)
H19 H 0.501990 0.188819 0.271387
H20 H 0.517258 0.266099 0.240613
N16 N 0.4309(10) 0.0548(5) 0.0478(4)
C9_2 C 0.3972(8) 0.3041(5) 0.0518(4)
H21_2 H 0.417417 0.347593 0.025941
C10_2 C 0.3722(9) 0.1843(5) 0.0903(4)
C13_2 C 0.3788(10) 0.0890(6) 0.0935(4)
Mo8_2 Mo 0.27277(7) 0.43700(5) 0.13798(3)
N14_2 N 0.4000(9) 0.8088(5) 0.0899(4)
N15_2 N 0.4247(9) 0.9692(5) 0.0564(4)
C11_2 C 0.2970(10) 0.8452(6) 0.1749(4)
H22_2 H 0.263305 0.887358 0.197528
C12_2 C 0.3544(10) 0.8698(6) 0.1252(4)
C14_2 C 0.3681(10) 0.9578(6) 0.1047(4)
C15_2 C 0.3859(12) 0.7282(6) 0.1048(5)
H23_2 H 0.412045 0.685404 0.080058
C16_2 C 0.3330(11) 0.7042(7) 0.1567(5)
H24_2 H 0.328903 0.646412 0.167076
Co4 Co 0.49382(15) 0.86604(8) 0.01352(6)
O36 O 0.6633(9) 0.8658(6) 0.0797(4)
H27 H 0.659966 0.880057 0.125966
H28 H 0.707310 0.808101 0.089594
O17 O 0.6785(9) 0.1590(6) 0.0481(4)
H9 H 0.748107 0.157910 0.028563
H10 H 0.700921 0.116444 0.077572
Mo6_2 Mo 0.74275(8) 0.48581(5) 0.03167(4)
Mo7_2 Mo 0.97894(8) 0.48352(5) 0.15331(3)
O19 O 0.9524(5) 0.5241(4) 0.0514(2)
O24_2 O 0.8200(6) 0.4323(4) 0.1116(3)
O27 O 0.6798(6) 0.5721(4) 0.0627(3)
O28_2 O 0.6149(6) 0.4216(4) 0.0045(3)
O29 O 0.9053(6) 0.6985(4) 0.0116(3)
O31 O 0.9288(7) 0.5804(4) 0.1750(3)
Mo2 Mo 0.24275(8) 0.01419(5) 0.53167(4)
Mo3 Mo 0.47894(8) 0.01648(5) 0.65331(3)
Co1 Co 0.77243(13) 0.26151(8) 0.71808(5)
Co2 Co 0.99382(15) 0.63396(8) 0.51352(6)
O5 O 0.7857(6) 0.1299(4) 0.7036(3)
O6 O 0.3200(6) 0.0677(4) 0.6116(3)
O8 O 0.9140(6) 0.0102(4) 0.6495(3)
O10 O 0.1149(6) 0.0784(4) 0.5045(3)
O12 O 0.5799(7) 0.2641(4) 0.6715(3)
H1 H 0.523420 0.257345 0.698069
H2 H 0.558610 0.218503 0.645322
N1 N 0.8432(7) 0.1822(4) 0.6011(3)
O14 O 0.7627(7) 0.3924(4) 0.7301(3)
H3 H 0.774203 0.404250 0.769763
H4 H 0.685731 0.410382 0.715027
N2 N 0.8273(7) 0.2610(4) 0.6272(3)
N3 N 0.9198(8) 0.2789(4) 0.5432(3)
O15 O 0.5028(7) 0.0767(5) 0.7208(3)
N4 N 0.8374(8) 0.4681(5) 0.6312(3)
N5 N 0.7885(8) 0.7369(5) 0.6914(3)
O16 O 0.9661(7) 0.2582(5) 0.7647(4)
N6 N 0.9000(9) 0.6912(5) 0.5899(4)
N7 N 0.9247(9) 0.5308(5) 0.5564(4)
N8 N 0.9309(10) 0.4452(5) 0.5478(4)
C1 C 0.8972(8) 0.1959(5) 0.5518(4)
H7 H 0.917417 0.152407 0.525941
C2 C 0.8722(9) 0.3157(5) 0.5903(4)
C3 C 0.7970(10) 0.6548(6) 0.6749(4)
H8 H 0.763305 0.612642 0.697528
O17_2 O 0.8215(9) 0.6590(6) 0.4519(4)
H9_2 H 0.751893 0.657910 0.471437
H10_2 H 0.799079 0.616444 0.422428
C4 C 0.8544(10) 0.6302(6) 0.6252(4)
C5 C 0.8788(10) 0.4110(6) 0.5935(4)
C6 C 0.8681(10) 0.5422(6) 0.6047(4)
C7 C 0.8859(12) 0.7718(6) 0.6048(5)
H13 H 0.912045 0.814596 0.580058
C8 C 0.8330(11) 0.7958(7) 0.6567(5)
H14 H 0.828903 0.853588 0.667076
Mo4 Mo 0.77277(7) 0.06300(5) 0.63798(3)
Mo5 Mo 0.53323(8) 0.10727(5) 0.51306(3)
O19_2 O 0.5476(5) 0.0241(4) 0.4486(2)
O20 O 0.7222(6) 0.0420(4) 0.5440(2)
O21 O 0.5700(6) 0.1176(4) 0.6025(2)
O22_2 O 0.3389(6) 0.0219(4) 0.3417(3)
O25_2 O 0.3678(6) 0.1239(4) 0.4970(3)
O27_2 O 0.8202(6) 0.0721(4) 0.4373(3)
O29_2 O 0.5947(6) 0.1985(4) 0.4884(3)
O31_2 O 0.5712(7) 0.0804(4) 0.3250(3)
Co5 Co 0.72757(13) 0.76151(8) 0.78192(5)
N19 N 0.7115(8) 0.2369(5) 0.8086(3)
H19_2 H 0.998010 0.688819 0.228613
H20_2 H 0.982742 0.766099 0.259387
O36_2 O 0.8367(9) 0.3658(6) 0.4203(4)
H27_2 H 0.840034 0.380057 0.374034
H28_2 H 0.792690 0.308101 0.410406
Mo2_2 Mo 0.25725(8) 0.51419(5) 0.96833(4)
Mo3_2 Mo 0.02106(8) 0.51648(5) 0.84669(3)
O1_2 O 0.0476(5) 0.4759(4) 0.9486(2)
O6_2 O 0.1800(6) 0.5677(4) 0.8884(3)
O9_2 O 0.3202(6) 0.4279(4) 0.9373(3)
O10_2 O 0.3851(6) 0.5784(4) 0.9955(3)
O11_2 O 0.0947(6) 0.3015(4) 0.9884(3)
O13_2 O 0.0712(7) 0.4196(4) 0.8250(3)
Co7 Co 0.50618(15) 0.13396(8) 0.98648(6)
O35_2 O 0.3215(9) 0.8410(6) 0.9519(4)
H25_2 H 0.251893 0.842090 0.971437
H26_2 H 0.299079 0.883556 0.922428
N17 N 0.5802(8) 0.7789(4) 0.9568(3)
N21 N 0.5691(10) 0.9452(5) 0.9522(4)
N6_2 N 0.6000(9) 0.1912(5) 0.9101(4)
N7_2 N 0.5753(9) 0.0308(5) 0.9436(4)
C3_2 C 0.7030(10) 0.1548(6) 0.8251(4)
H8_2 H 0.736695 0.112642 0.802472
C4_2 C 0.6456(10) 0.1302(6) 0.8748(4)
C6_2 C 0.6319(10) 0.0422(6) 0.8953(4)
O18_2 O 0.3367(9) 0.1342(6) 0.9203(4)
H11_2 H 0.340034 0.119943 0.874034
H12_2 H 0.292690 0.191899 0.910406
C7_2 C 0.6141(12) 0.2718(6) 0.8952(5)
H13_2 H 0.587955 0.314596 0.919942
C8_2 C 0.6670(11) 0.2958(7) 0.8433(5)
H14_2 H 0.671097 0.353588 0.832924
O4_2 O 0.8389(6) 0.4781(4) 0.8417(3)
O5_2 O 0.7143(6) 0.6299(4) 0.7964(3)
O7_2 O 0.8678(6) 0.3761(4) 0.9970(3)
O8_2 O 0.5860(6) 0.5102(4) 0.8505(3)
O12_2 O 0.9201(7) 0.7641(4) 0.8285(3)
H1_2 H 0.976580 0.757345 0.801931
H2_2 H 0.941390 0.718503 0.854678
N1_2 N 0.6568(7) 0.6822(4) 0.8989(3)
O14_2 O 0.7373(7) 0.8924(4) 0.7699(3)
H3_2 H 0.725797 0.904250 0.730237
H4_2 H 0.814269 0.910382 0.784973
N2_2 N 0.6727(7) 0.7610(4) 0.8728(3)
O15_2 O 0.9972(7) 0.5767(5) 0.7792(3)
N4_2 N 0.6626(8) 0.9681(5) 0.8688(3)
O16_2 O 0.5339(7) 0.7582(5) 0.7353(4)
H5_2 H 0.498010 0.811181 0.728613
H6_2 H 0.482742 0.733901 0.759387
C1_2 C 0.6028(8) 0.6959(5) 0.9482(4)
H7_2 H 0.582583 0.652407 0.974059
C2_2 C 0.6278(9) 0.8157(5) 0.9097(4)
C5_2 C 0.6212(10) 0.9110(6) 0.9065(4)
Mo4_2 Mo 0.72723(7) 0.56300(5) 0.86202(3)
Mo5_2 Mo 0.96677(8) 0.60727(5) 0.98694(3)
O20_2 O 0.7778(6) 0.5420(4) 0.9560(2)
O21_2 O 0.9300(6) 0.6176(4) 0.8975(2)
loop_
_geom_bond_atom_site_label_1
_geom_bond_atom_site_label_2
_geom_bond_site_symmetry_1
_geom_bond_site_symmetry_2
H11 O18 1_555 1_555
H12 O18 1_555 1_555
Mo1 O1 1_555 1_555
O2 Mo1 1_555 1_555
O3 Mo1 1_555 1_555
O7 Mo1 1_555 1_555
O11 Mo1 1_555 1_555
Mo6 O7 1_555 1_555
Mo7 O3 1_555 1_555
Co3 O23 1_555 1_555
O23 Mo8 1_555 1_555
O24 Mo6 1_555 1_555
O26 Mo8 1_555 1_555
O28 Mo6 1_555 1_555
O30 Co3 1_555 1_555
H15 O30 1_555 1_555
H16 O30 1_555 1_555
N9 N10 1_555 1_555
O32 Co3 1_555 1_555
H17 O32 1_555 1_555
H18 O32 1_555 1_555
N10 Co3 1_555 1_555
N18 C9 1_555 1_555
O33 Mo7 1_555 1_555
N12 C13 1_555 1_555
N13 C11 1_555 1_555
O34 Co3 1_555 1_555
N14 C12 1_555 1_555
N15 N22 1_555 1_555
N22 C13 1_555 1_555
C9 N9 1_555 1_555
H21 C9 1_555 1_555
C10 N10 1_555 1_555
C11 H22 1_555 1_555
C12 C11 1_555 1_555
C13 C10 1_555 1_555
C14 N12 1_555 1_555
C15 N14 1_555 1_555
H23 C15 1_555 1_555
C16 N13 1_555 1_555
H24 C16 1_555 1_555
Mo8 O2 1_555 1_555
Co8 N14 1_555 1_555
O35 Co8 1_555 1_555
H25 O35 1_555 1_555
H26 O35 1_555 1_555
Co6 N13 1_555 1_555
N20 Co3 1_555 1_555
O3 Mo8 1_555 1_555
Mo7 O24 1_555 1_555
N9 Mo8 1_555 1_555
N18 C10 1_555 1_555
N15 C14 1_555 1_555
N15 Co8 1_555 1_555
C12 C14 1_555 1_555
C15 C16 1_555 1_555
O2_2 Mo1_2 1_555 1_555
O3_2 Mo1_2 1_555 1_555
Co6 O23_2 1_555 1_555
O23_2 Mo8_2 1_555 1_555
O26_2 Mo8_2 1_555 1_555
O30_2 Co6 1_555 1_555
H15_2 O30_2 1_555 1_555
H16_2 O30_2 1_555 1_555
N9_2 N10_2 1_555 1_555
O32_2 Co6 1_555 1_555
H17_2 O32_2 1_555 1_555
H18_2 O32_2 1_555 1_555
N10_2 Co6 1_555 1_555
N11 C9_2 1_555 1_555
N12_2 C13_2 1_555 1_555
O34_2 Co6 1_555 1_555
H19 O34_2 1_555 1_555
H20 O34_2 1_555 1_555
N16 C13_2 1_555 1_555
C9_2 N9_2 1_555 1_555
H21_2 C9_2 1_555 1_555
C10_2 N10_2 1_555 1_555
C13_2 C10_2 1_555 1_555
Mo8_2 O2_2 1_555 1_555
O3_2 Mo8_2 1_555 1_555
O22 Mo8_2 1_555 1_555
N9_2 Mo8_2 1_555 1_555
N11 C10_2 1_555 1_555
N20 C11_2 1_555 1_555
N14_2 C12_2 1_555 1_555
C11_2 H22_2 1_555 1_555
C12_2 C11_2 1_555 1_555
C15_2 N14_2 1_555 1_555
H23_2 C15_2 1_555 1_555
C16_2 N20 1_555 1_555
H24_2 C16_2 1_555 1_555
Co4 N14_2 1_555 1_555
O36 Co4 1_555 1_555
H27 O36 1_555 1_555
H28 O36 1_555 1_555
N15_2 C14_2 1_555 1_555
N15_2 Co4 1_555 1_555
C12_2 C14_2 1_555 1_555
C15_2 C16_2 1_555 1_555
H9 O17 1_555 1_555
H10 O17 1_555 1_555
O24_2 Mo6_2 1_555 1_555
O27 Mo6_2 1_555 1_555
O28_2 Mo6_2 1_555 1_555
O31 Mo7_2 1_555 1_555
Mo6_2 O19 1_555 1_555
Mo7_2 O19 1_555 1_555
Mo7_2 O24_2 1_555 1_555
Co1 O5 1_555 1_555
Co2 N6 1_555 1_555
O5 Mo4 1_555 1_555
O6 Mo2 1_555 1_555
O8 Mo4 1_555 1_555
O10 Mo2 1_555 1_555
O12 Co1 1_555 1_555
H1 O12 1_555 1_555
H2 O12 1_555 1_555
N1 N2 1_555 1_555
O14 Co1 1_555 1_555
H3 O14 1_555 1_555
H4 O14 1_555 1_555
N2 Co1 1_555 1_555
N3 C1 1_555 1_555
O15 Mo3 1_555 1_555
N4 C5 1_555 1_555
N5 C3 1_555 1_555
O16 Co1 1_555 1_555
N6 C4 1_555 1_555
N7 Co2 1_555 1_555
N8 N7 1_555 1_555
C1 N1 1_555 1_555
H7 C1 1_555 1_555
C2 N2 1_555 1_555
C3 H8 1_555 1_555
O17_2 Co2 1_555 1_555
H9_2 O17_2 1_555 1_555
H10_2 O17_2 1_555 1_555
C4 C3 1_555 1_555
C5 N8 1_555 1_555
C6 N4 1_555 1_555
C7 N6 1_555 1_555
H13 C7 1_555 1_555
C8 N5 1_555 1_555
H14 C8 1_555 1_555
Mo5 O19_2 1_555 1_555
O20 Mo4 1_555 1_555
O21 Mo3 1_555 1_555
O25_2 Mo2 1_555 1_555
O29_2 Mo5 1_555 1_555
Co5 N5 1_555 1_555
N19 Co1 1_555 1_555
Mo3 O6 1_555 1_555
N1 Mo4 1_555 1_555
N3 C2 1_555 1_555
N7 C6 1_555 1_555
C2 C5 1_555 1_555
C4 C6 1_555 1_555
C7 C8 1_555 1_555
Mo4 O21 1_555 1_555
Mo5 O20 1_555 1_555
Mo5 O21 1_555 1_555
Mo5 O25_2 1_555 1_555
H27_2 O36_2 1_555 1_555
H28_2 O36_2 1_555 1_555
Mo2_2 O1_2 1_555 1_555
Mo3_2 O1_2 1_555 1_555
O6_2 Mo2_2 1_555 1_555
O9_2 Mo2_2 1_555 1_555
O10_2 Mo2_2 1_555 1_555
O13_2 Mo3_2 1_555 1_555
Mo3_2 O6_2 1_555 1_555
H25_2 O35_2 1_555 1_555
H26_2 O35_2 1_555 1_555
Co7 N6_2 1_555 1_555
N19 C3_2 1_555 1_555
N6_2 C4_2 1_555 1_555
N7_2 Co7 1_555 1_555
C3_2 H8_2 1_555 1_555
C4_2 C3_2 1_555 1_555
O18_2 Co7 1_555 1_555
H11_2 O18_2 1_555 1_555
H12_2 O18_2 1_555 1_555
C7_2 N6_2 1_555 1_555
H13_2 C7_2 1_555 1_555
C8_2 N19 1_555 1_555
H14_2 C8_2 1_555 1_555
N7_2 C6_2 1_555 1_555
C4_2 C6_2 1_555 1_555
C7_2 C8_2 1_555 1_555
Co5 O5_2 1_555 1_555
O5_2 Mo4_2 1_555 1_555
O8_2 Mo4_2 1_555 1_555
O12_2 Co5 1_555 1_555
H1_2 O12_2 1_555 1_555
H2_2 O12_2 1_555 1_555
N1_2 N2_2 1_555 1_555
O14_2 Co5 1_555 1_555
H3_2 O14_2 1_555 1_555
H4_2 O14_2 1_555 1_555
N2_2 Co5 1_555 1_555
N17 C1_2 1_555 1_555
N4_2 C5_2 1_555 1_555
O16_2 Co5 1_555 1_555
H5_2 O16_2 1_555 1_555
H6_2 O16_2 1_555 1_555
C1_2 N1_2 1_555 1_555
H7_2 C1_2 1_555 1_555
C2_2 N2_2 1_555 1_555
C5_2 N21 1_555 1_555
Mo4_2 O4_2 1_555 1_555
O20_2 Mo4_2 1_555 1_555
N1_2 Mo4_2 1_555 1_555
N17 C2_2 1_555 1_555
C2_2 C5_2 1_555 1_555
Mo4_2 O21_2 1_555 1_555
Mo5_2 O20_2 1_555 1_555
Mo5_2 O21_2 1_555 1_555

#END
