
###############################################################################
#
# This file contains modified crystal structure data generated from the
# MOF subset of the Cambridge Structural Database (CSD) v543 
# hosted by the Cambridge Crystallographic Data Centre (CCDC).
#
# This work is licensed under the Creative Commons
# Attribution-NonCommercial-ShareAlike 4.0 International License.
# To view a copy of this license, visit
# http://creativecommons.org/licenses/by-nc-sa/4.0/
# or send a letter to
# Creative Commons, PO Box 1866, Mountain View, CA 94042, USA.
#
# CIF created using the CSD Python API on 29 September 2022
# The structure has been converted into the P1 space group
# The structure has a 3D framework
# The original CSD entry WAHBOA04 is in the cubic crystal system
# The original CSD entry WAHBOA04 is in a Sohncke space group
# The framework has been calculated to contain at least 10.0% void space
# The void calculation uses a probe of radius 1.32A, grid spacing 0.4
# H atom positions have been added when not included in the experimental data
#
###############################################################################

data_WAHBOA04
_chemical_formula_moiety         '(C48 H48 N48 Zn14)n'
_symmetry_cell_setting           triclinic
_symmetry_space_group_name_H-M   'P 1'
_symmetry_Int_Tables_number      1
_space_group_name_Hall           'P 1'
loop_
_symmetry_equiv_pos_site_id
_symmetry_equiv_pos_as_xyz
1 x,y,z
_cell_length_a                   20.7384
_cell_length_b                   20.7384
_cell_length_c                   20.7384
_cell_angle_alpha                90
_cell_angle_beta                 90
_cell_angle_gamma                90
_cell_volume                     8919.2
loop_
_atom_site_label
_atom_site_type_symbol
_atom_site_fract_x
_atom_site_fract_y
_atom_site_fract_z
Zn5 Zn 0.37500 0.00000 0.75000
H9 H 0.291366 0.0219157 0.65986
Zn1 Zn 0.62500 0.50000 0.75000
N1 N 0.57560 0.57252 0.74170
C1 C 0.59783 0.59808 0.68130
N2 N 0.67440 0.50830 0.67748
N3 N 0.57560 0.42748 0.75830
N4 N 0.67440 0.49170 0.82252
C2 C 0.65217 0.56870 0.65192
C3 C 0.56870 0.65192 0.65217
C4 C 0.68130 0.59783 0.59808
N5 N 0.50830 0.67748 0.67440
C5 C 0.59808 0.68130 0.59783
C6 C 0.65192 0.65217 0.56870
N6 N 0.74170 0.57560 0.57252
Zn2 Zn 0.50000 0.75000 0.62500
N7 N 0.57252 0.74170 0.57560
N8 N 0.67748 0.67440 0.50830
Zn3 Zn 0.75000 0.62500 0.50000
N9 N 0.42748 0.75830 0.57560
N10 N 0.49170 0.82252 0.67440
N11 N 0.75830 0.57560 0.42748
N12 N 0.82252 0.67440 0.49170
C7 C 0.40192 0.81870 0.59783
C8 C 0.43130 0.84808 0.65217
C9 C 0.34808 0.84783 0.56870
C10 C 0.40217 0.90192 0.68130
N13 N 0.32252 0.82560 0.50830
C11 C 0.31870 0.90217 0.59808
N14 N 0.42440 0.92748 0.74170
C12 C 0.34783 0.93130 0.65192
Zn4 Zn 0.25000 0.87500 0.50000
N15 N 0.25830 0.92440 0.57252
Zn5_2 Zn 0.37500 1.00000 0.75000
N16 N 0.32560 0.99170 0.67748
H1 H 0.541366 0.59014 0.771916
H2 H 0.708634 0.478084 0.65986
H3 H 0.478084 0.65986 0.708634
H4 H 0.771916 0.541366 0.59014
H5 H 0.59014 0.771916 0.541366
H6 H 0.458634 0.90986 0.771916
H7 H 0.34014 0.791366 0.478084
H8 H 0.521916 0.84014 0.708634
H10 H 0.65986 0.708634 0.478084
H11 H 0.228084 0.958634 0.59014
H12 H 0.40986 0.728084 0.541366
Zn2_2 Zn -0.00000 0.25000 0.12500
N9_2 N 0.07252 0.24170 0.07560
N10_2 N 0.00830 0.17748 0.17440
C7_2 C 0.09808 0.18130 0.09783
C8_2 C 0.06870 0.15192 0.15217
C9_2 C 0.15192 0.15217 0.06870
C10_2 C 0.09783 0.09808 0.18130
N13_2 N 0.17748 0.17440 0.00830
C11_2 C 0.18130 0.09783 0.09808
N14_2 N 0.07560 0.07252 0.24170
C12_2 C 0.15217 0.06870 0.15192
Zn4_2 Zn 0.25000 0.12500 0.00000
N15_2 N 0.24170 0.07560 0.07252
Zn5_3 Zn 0.12500 0.00000 0.25000
N16_2 N 0.17440 0.00830 0.17748
H3_2 H 0.0219157 0.34014 0.208634
H6_2 H 0.0413661 0.0901402 0.271916
H11_2 H 0.271916 0.0413661 0.0901402
H12_2 H 0.0901402 0.271916 0.0413661
Zn4_3 Zn 0.25000 0.12500 1.00000
H7_2 H 0.15986 0.208634 0.978084
Zn5_4 Zn 0.12500 1.00000 0.25000
H9_2 H 0.208634 0.978084 0.15986
Zn1_2 Zn 0.87500 0.50000 0.25000
N1_2 N 0.92440 0.42748 0.24170
C1_2 C 0.90217 0.40192 0.18130
N2_2 N 0.82560 0.49170 0.17748
N3_2 N 0.92440 0.57252 0.25830
N4_2 N 0.82560 0.50830 0.32252
C2_2 C 0.84783 0.43130 0.15192
C3_2 C 0.93130 0.34808 0.15217
C4_2 C 0.81870 0.40217 0.09808
N5_2 N 0.99170 0.32252 0.17440
C5_2 C 0.90192 0.31870 0.09783
C6_2 C 0.84808 0.34783 0.06870
N6_2 N 0.75830 0.42440 0.07252
Zn2_3 Zn 1.00000 0.25000 0.12500
N7_2 N 0.92748 0.25830 0.07560
N8_2 N 0.82252 0.32560 0.00830
Zn3_2 Zn 0.75000 0.37500 0.00000
H1_2 H 0.958634 0.40986 0.271916
H2_2 H 0.791366 0.521916 0.15986
H4_2 H 0.728084 0.458634 0.0901402
H5_2 H 0.90986 0.228084 0.0413661
H8_2 H 0.978084 0.15986 0.208634
Zn3_3 Zn 0.75000 0.37500 1.00000
N11_2 N 0.74170 0.42440 0.92748
N12_2 N 0.67748 0.32560 0.99170
H10_2 H 0.84014 0.291366 0.978084
H7_3 H 0.65986 0.291366 0.0219157
H10_3 H 0.34014 0.208634 0.0219157
N1_3 N 0.42440 0.07252 0.75830
C1_3 C 0.40217 0.09808 0.81870
N2_3 N 0.32560 0.00830 0.82252
C2_3 C 0.34783 0.06870 0.84808
C3_3 C 0.43130 0.15192 0.84783
C4_3 C 0.31870 0.09783 0.90192
N5_3 N 0.49170 0.17748 0.82560
C5_3 C 0.40192 0.18130 0.90217
C6_3 C 0.34808 0.15217 0.93130
N6_3 N 0.25830 0.07560 0.92748
Zn2_4 Zn 0.50000 0.25000 0.87500
N7_3 N 0.42748 0.24170 0.92440
N8_3 N 0.32252 0.17440 0.99170
N9_3 N 0.57252 0.25830 0.92440
N10_3 N 0.50830 0.32252 0.82560
C7_3 C 0.59808 0.31870 0.90217
C8_3 C 0.56870 0.34808 0.84783
C9_3 C 0.65192 0.34783 0.93130
C10_3 C 0.59783 0.40192 0.81870
C11_3 C 0.68130 0.40217 0.90192
C12_3 C 0.65217 0.43130 0.84808
H1_3 H 0.458634 0.0901402 0.728084
H3_3 H 0.521916 0.15986 0.791366
H4_3 H 0.228084 0.0413661 0.90986
H5_3 H 0.40986 0.271916 0.958634
H6_3 H 0.541366 0.40986 0.728084
H8_3 H 0.478084 0.34014 0.791366
H9_3 H 0.708634 0.521916 0.84014
H11_3 H 0.771916 0.458634 0.90986
H12_3 H 0.59014 0.228084 0.958634
H2_3 H 0.291366 0.978084 0.84014
H2_4 H 0.208634 0.0219157 0.34014
N1_4 N 0.07560 0.92748 0.25830
C1_4 C 0.09783 0.90192 0.31870
N2_4 N 0.17440 0.99170 0.32252
C2_4 C 0.15217 0.93130 0.34808
C3_4 C 0.06870 0.84808 0.34783
C4_4 C 0.18130 0.90217 0.40192
N5_4 N 0.00830 0.82252 0.32560
C5_4 C 0.09808 0.81870 0.40217
C6_4 C 0.15192 0.84783 0.43130
N6_4 N 0.24170 0.92440 0.42748
Zn2_5 Zn 0.00000 0.75000 0.37500
N7_4 N 0.07252 0.75830 0.42440
N8_4 N 0.17748 0.82560 0.49170
H1_4 H 0.0413661 0.90986 0.228084
H4_4 H 0.271916 0.958634 0.40986
H5_4 H 0.0901402 0.728084 0.458634
H8_4 H 0.0219157 0.65986 0.291366
H10_4 H 0.15986 0.791366 0.521916
Zn2_6 Zn 1.00000 0.75000 0.37500
N9_4 N 0.92748 0.74170 0.42440
N10_4 N 0.99170 0.67748 0.32560
C7_4 C 0.90192 0.68130 0.40217
C8_4 C 0.93130 0.65192 0.34783
C9_4 C 0.84808 0.65217 0.43130
C10_4 C 0.90217 0.59808 0.31870
C11_4 C 0.81870 0.59783 0.40192
C12_4 C 0.84783 0.56870 0.34808
H3_4 H 0.978084 0.84014 0.291366
H6_4 H 0.958634 0.59014 0.228084
H7_4 H 0.84014 0.708634 0.521916
H9_4 H 0.791366 0.478084 0.34014
H11_4 H 0.728084 0.541366 0.40986
H12_4 H 0.90986 0.771916 0.458634
loop_
_geom_bond_atom_site_label_1
_geom_bond_atom_site_label_2
_geom_bond_site_symmetry_1
_geom_bond_site_symmetry_2
Zn1 N1 1_555 1_555
N1 C1 1_555 1_555
C1 C2 1_555 1_555
N2 Zn1 1_555 1_555
N3 Zn1 1_555 1_555
N4 Zn1 1_555 1_555
C2 N2 1_555 1_555
C3 C1 1_555 1_555
C4 C2 1_555 1_555
N5 C3 1_555 1_555
C5 C3 1_555 1_555
C6 C4 1_555 1_555
N6 C4 1_555 1_555
Zn2 N5 1_555 1_555
N7 C5 1_555 1_555
N8 C6 1_555 1_555
Zn3 N6 1_555 1_555
N9 Zn2 1_555 1_555
N10 Zn2 1_555 1_555
N11 Zn3 1_555 1_555
N12 Zn3 1_555 1_555
C7 N9 1_555 1_555
C8 N10 1_555 1_555
C9 C7 1_555 1_555
C10 C8 1_555 1_555
N13 C9 1_555 1_555
C11 C9 1_555 1_555
N14 C10 1_555 1_555
C12 C10 1_555 1_555
Zn4 N13 1_555 1_555
N15 C11 1_555 1_555
Zn5_2 N14 1_555 1_555
N16 C12 1_555 1_555
C5 C6 1_555 1_555
Zn2 N7 1_555 1_555
N8 Zn3 1_555 1_555
C7 C8 1_555 1_555
C11 C12 1_555 1_555
Zn4 N15 1_555 1_555
Zn5_2 N16 1_555 1_555
N1 H1 1_555 1_555
N2 H2 1_555 1_555
N5 H3 1_555 1_555
N6 H4 1_555 1_555
N7 H5 1_555 1_555
N14 H6 1_555 1_555
N13 H7 1_555 1_555
N10 H8 1_555 1_555
N8 H10 1_555 1_555
N15 H11 1_555 1_555
N9 H12 1_555 1_555
N9_2 Zn2_2 1_555 1_555
N10_2 Zn2_2 1_555 1_555
C7_2 N9_2 1_555 1_555
C8_2 N10_2 1_555 1_555
C9_2 C7_2 1_555 1_555
C10_2 C8_2 1_555 1_555
N13_2 C9_2 1_555 1_555
C11_2 C9_2 1_555 1_555
N14_2 C10_2 1_555 1_555
C12_2 C10_2 1_555 1_555
Zn4_2 N13_2 1_555 1_555
N15_2 C11_2 1_555 1_555
Zn5_3 N14_2 1_555 1_555
N16_2 C12_2 1_555 1_555
C7_2 C8_2 1_555 1_555
C11_2 C12_2 1_555 1_555
Zn4_2 N15_2 1_555 1_555
Zn5_3 N16_2 1_555 1_555
N14_2 H6_2 1_555 1_555
N15_2 H11_2 1_555 1_555
N9_2 H12_2 1_555 1_555
Zn1_2 N1_2 1_555 1_555
N1_2 C1_2 1_555 1_555
C1_2 C2_2 1_555 1_555
N2_2 Zn1_2 1_555 1_555
N3_2 Zn1_2 1_555 1_555
N4_2 Zn1_2 1_555 1_555
C2_2 N2_2 1_555 1_555
C3_2 C1_2 1_555 1_555
C4_2 C2_2 1_555 1_555
N5_2 C3_2 1_555 1_555
C5_2 C3_2 1_555 1_555
C6_2 C4_2 1_555 1_555
N6_2 C4_2 1_555 1_555
Zn2_3 N5_2 1_555 1_555
N7_2 C5_2 1_555 1_555
N8_2 C6_2 1_555 1_555
Zn3_2 N6_2 1_555 1_555
C5_2 C6_2 1_555 1_555
Zn2_3 N7_2 1_555 1_555
N8_2 Zn3_2 1_555 1_555
N1_2 H1_2 1_555 1_555
N2_2 H2_2 1_555 1_555
N6_2 H4_2 1_555 1_555
N7_2 H5_2 1_555 1_555
N11_2 Zn3_3 1_555 1_555
N12_2 Zn3_3 1_555 1_555
Zn5 N1_3 1_555 1_555
N1_3 C1_3 1_555 1_555
C1_3 C2_3 1_555 1_555
N2_3 Zn5 1_555 1_555
C2_3 N2_3 1_555 1_555
C3_3 C1_3 1_555 1_555
C4_3 C2_3 1_555 1_555
N5_3 C3_3 1_555 1_555
C5_3 C3_3 1_555 1_555
C6_3 C4_3 1_555 1_555
N6_3 C4_3 1_555 1_555
Zn2_4 N5_3 1_555 1_555
N7_3 C5_3 1_555 1_555
N8_3 C6_3 1_555 1_555
Zn4_3 N6_3 1_555 1_555
N9_3 Zn2_4 1_555 1_555
N10_3 Zn2_4 1_555 1_555
C7_3 N9_3 1_555 1_555
C8_3 N10_3 1_555 1_555
C9_3 C7_3 1_555 1_555
C10_3 C8_3 1_555 1_555
N12_2 C9_3 1_555 1_555
C11_3 C9_3 1_555 1_555
N3 C10_3 1_555 1_555
C12_3 C10_3 1_555 1_555
N11_2 C11_3 1_555 1_555
N4 C12_3 1_555 1_555
C5_3 C6_3 1_555 1_555
Zn2_4 N7_3 1_555 1_555
N8_3 Zn4_3 1_555 1_555
C7_3 C8_3 1_555 1_555
C11_3 C12_3 1_555 1_555
N1_3 H1_3 1_555 1_555
N5_3 H3_3 1_555 1_555
N6_3 H4_3 1_555 1_555
N7_3 H5_3 1_555 1_555
N3 H6_3 1_555 1_555
N10_3 H8_3 1_555 1_555
N4 H9_3 1_555 1_555
N11_2 H11_3 1_555 1_555
N9_3 H12_3 1_555 1_555
Zn5_4 N1_4 1_555 1_555
N1_4 C1_4 1_555 1_555
C1_4 C2_4 1_555 1_555
N2_4 Zn5_4 1_555 1_555
C2_4 N2_4 1_555 1_555
C3_4 C1_4 1_555 1_555
C4_4 C2_4 1_555 1_555
N5_4 C3_4 1_555 1_555
C5_4 C3_4 1_555 1_555
C6_4 C4_4 1_555 1_555
N6_4 C4_4 1_555 1_555
Zn2_5 N5_4 1_555 1_555
N7_4 C5_4 1_555 1_555
N8_4 C6_4 1_555 1_555
Zn4 N6_4 1_555 1_555
C5_4 C6_4 1_555 1_555
Zn2_5 N7_4 1_555 1_555
N8_4 Zn4 1_555 1_555
N1_4 H1_4 1_555 1_555
N6_4 H4_4 1_555 1_555
N7_4 H5_4 1_555 1_555
N8_4 H10_4 1_555 1_555
N9_4 Zn2_6 1_555 1_555
N10_4 Zn2_6 1_555 1_555
C7_4 N9_4 1_555 1_555
C8_4 N10_4 1_555 1_555
C9_4 C7_4 1_555 1_555
C10_4 C8_4 1_555 1_555
N12 C9_4 1_555 1_555
C11_4 C9_4 1_555 1_555
N3_2 C10_4 1_555 1_555
C12_4 C10_4 1_555 1_555
N11 C11_4 1_555 1_555
N4_2 C12_4 1_555 1_555
C7_4 C8_4 1_555 1_555
C11_4 C12_4 1_555 1_555
N3_2 H6_4 1_555 1_555
N12 H7_4 1_555 1_555
N4_2 H9_4 1_555 1_555
N11 H11_4 1_555 1_555
N9_4 H12_4 1_555 1_555

#END
