
###############################################################################
#
# This file contains modified crystal structure data generated from the
# MOF subset of the Cambridge Structural Database (CSD) v543 
# hosted by the Cambridge Crystallographic Data Centre (CCDC).
#
# This work is licensed under the Creative Commons
# Attribution-NonCommercial-ShareAlike 4.0 International License.
# To view a copy of this license, visit
# http://creativecommons.org/licenses/by-nc-sa/4.0/
# or send a letter to
# Creative Commons, PO Box 1866, Mountain View, CA 94042, USA.
#
# CIF created using the CSD Python API on 29 September 2022
# The structure has been converted into the P1 space group
# The structure has a 3D framework
# The original CSD entry WAHGAQ is in the monoclinic crystal system
# The framework has been calculated to contain at least 10.0% void space
# The void calculation uses a probe of radius 1.32A, grid spacing 0.4
#
###############################################################################

data_WAHGAQ
_chemical_formula_moiety         '(C72 H44 Cu4 N20 O22)n'
_symmetry_cell_setting           triclinic
_symmetry_space_group_name_H-M   'P 1'
_symmetry_Int_Tables_number      1
_space_group_name_Hall           'P 1'
loop_
_symmetry_equiv_pos_site_id
_symmetry_equiv_pos_as_xyz
1 x,y,z
_cell_length_a                   10.7903(4)
_cell_length_b                   8.8109(3)
_cell_length_c                   25.2261(8)
_cell_angle_alpha                90
_cell_angle_beta                 98.923(2)
_cell_angle_gamma                90
_cell_volume                     2369.28
loop_
_atom_site_label
_atom_site_type_symbol
_atom_site_fract_x
_atom_site_fract_y
_atom_site_fract_z
N3 N 0.0994(4) 0.2317(5) 0.15828(16)
C13 C 0.0035(5) 0.1401(7) 0.1415(2)
C15 C 0.1002(6) 0.3064(8) 0.0678(2)
H9 H 0.1355 0.3635 0.0429
C17 C 0.1479(6) 0.3129(7) 0.1208(2)
H11 H 0.2164 0.3755 0.1318
Cu4 Cu 0.16110(5) 0.27670(7) 0.23666(2)
Cu1 Cu 0.66110(5) 0.22330(7) 0.73666(2)
O2 O 0.4902(3) 0.1849(5) 0.74796(14)
N1 N 0.7262(3) 0.1847(4) 0.81439(15)
C1 C 0.0796(4) 0.0143(6) 0.68366(19)
C2 C 0.0261(4) 0.0940(6) 0.72245(19)
N4 N 0.8678(5) 0.1371(6) 0.97807(17)
C3 C 0.7264(5) 0.0657(7) 0.89926(19)
C4 C 0.2866(4) 0.0887(6) 0.72041(19)
C5 C 0.8241(5) 0.2698(6) 0.8369(2)
H2 H 0.8585 0.3391 0.8155
C6 C 0.8753(5) 0.2590(6) 0.8902(2)
H3 H 0.9429 0.3196 0.9045
C7 C 0.2048(4) 0.0105(6) 0.6827(2)
C8 C 0.8235(5) 0.1550(7) 0.92197(19)
C9 C 0.2394(5) 0.1668(7) 0.7602(2)
H5 H 0.2938 0.2182 0.7863
N5 N 0.9512(6) 0.2221(7) 0.9947(2)
C11 C 0.4251(4) 0.0872(6) 0.7176(2)
C14 C 0.1104(5) 0.1693(7) 0.7616(2)
H8 H 0.0801 0.2217 0.7889
C16 C 0.6799(5) 0.0839(6) 0.84507(19)
H10 H 0.6135 0.0230 0.8297
N6 N 0.5994(4) 0.2683(5) 0.65828(16)
O7 O 0.8349(3) 0.2224(4) 0.72088(13)
O8 O 0.6613(3) 0.4770(4) 0.75958(15)
C18 C 0.8885(4) 0.0955(6) 0.72765(17)
O4 O 0.8914(3) 0.9764(6) 0.62708(17)
N2 N 0.9977(4) 0.9290(6) 0.64205(18)
O6 O 0.8387(3) 0.9770(4) 0.74042(15)
Cu3 Cu 0.83890(5) 0.72330(7) 0.76334(2)
O1 O 0.0343(3) 0.4995(5) 0.81382(17)
O2_2 O 0.0098(3) 0.6849(5) 0.75204(14)
O3 O 0.4594(4) 0.3144(6) 0.8752(2)
O4_2 O 0.6086(3) 0.4764(6) 0.87292(17)
N2_2 N 0.5023(4) 0.4290(6) 0.85795(18)
C1_2 C 0.4204(4) 0.5143(6) 0.81634(19)
C2_2 C 0.4739(4) 0.5940(6) 0.77755(19)
C4_2 C 0.2134(4) 0.5887(6) 0.77959(19)
C7_2 C 0.2952(4) 0.5105(6) 0.8173(2)
H4 H 0.2642 0.4546 0.8436
C9_2 C 0.2606(5) 0.6668(7) 0.7398(2)
H5_2 H 0.2062 0.7182 0.7137
C11_2 C 0.0749(4) 0.5872(6) 0.7824(2)
C14_2 C 0.3896(5) 0.6693(7) 0.7384(2)
H8_2 H 0.4199 0.7217 0.7111
C18_2 C 0.6115(4) 0.5955(6) 0.77235(17)
O5 O 0.6651(3) 0.7224(4) 0.77912(13)
N1_2 N 0.7738(3) 0.6847(4) 0.68561(15)
N3_2 N 0.4006(4) 0.7317(5) 0.34172(16)
N4_2 N 0.6322(5) 0.6371(6) 0.52193(17)
C3_2 C 0.7736(5) 0.5657(7) 0.60074(19)
H1 H 0.8081 0.4938 0.5803
C5_2 C 0.6759(5) 0.7698(6) 0.6631(2)
H2_2 H 0.6415 0.8391 0.6845
C6_2 C 0.6247(5) 0.7590(6) 0.6098(2)
H3_2 H 0.5571 0.8196 0.5955
C8_2 C 0.6765(5) 0.6550(7) 0.57803(19)
C10 C 0.5016(6) 0.7134(7) 0.4486(2)
N5_2 N 0.5488(6) 0.7221(7) 0.5053(2)
C12 C 0.5505(6) 0.6280(7) 0.4116(2)
H6 H 0.6183 0.5636 0.4220
C13_2 C 0.4965(5) 0.6401(7) 0.3585(2)
H7 H 0.5289 0.5813 0.3332
C15_2 C 0.3998(6) 0.8064(8) 0.4322(2)
H9_2 H 0.3645 0.8635 0.4571
C16_2 C 0.8201(5) 0.5839(6) 0.65493(19)
H10_2 H 0.8865 0.5230 0.6703
C17_2 C 0.3521(6) 0.8129(7) 0.3792(2)
H11_2 H 0.2836 0.8755 0.3682
Cu4_2 Cu 0.33890(5) 0.77670(7) 0.26334(2)
N6_2 N 0.9006(4) 0.7683(5) 0.84172(16)
O4_3 O 0.1086(3) 0.0236(6) 0.37292(17)
N2_3 N 0.0023(4) 0.0710(6) 0.35795(18)
O6_2 O 0.1613(3) 0.0230(4) 0.25958(15)
C18_3 C 0.1115(4) 0.9045(6) 0.27235(17)
O5_2 O 0.1651(3) 0.7776(4) 0.27912(13)
O2_3 O 0.5098(3) 0.8151(5) 0.25204(14)
N1_3 N 0.2738(3) 0.8153(4) 0.18561(15)
C1_3 C 0.9204(4) 0.9857(6) 0.31634(19)
C2_3 C 0.9739(4) 0.9060(6) 0.27755(19)
N4_3 N 0.1322(5) 0.8629(6) 0.02193(17)
C3_3 C 0.2736(5) 0.9343(7) 0.10074(19)
C4_3 C 0.7134(4) 0.9113(6) 0.27959(19)
C5_3 C 0.1759(5) 0.7302(6) 0.1631(2)
H2_3 H 0.1415 0.6609 0.1845
C6_3 C 0.1247(5) 0.7410(6) 0.1098(2)
H3_3 H 0.0571 0.6804 0.0955
C7_3 C 0.7952(4) 0.9895(6) 0.3173(2)
C8_3 C 0.1765(5) 0.8450(7) 0.07803(19)
C9_3 C 0.7606(5) 0.8332(7) 0.2398(2)
H5_3 H 0.7062 0.7818 0.2137
N5_3 N 0.0488(6) 0.7779(7) 0.0053(2)
C11_3 C 0.5749(4) 0.9128(6) 0.2824(2)
C14_3 C 0.8896(5) 0.8307(7) 0.2384(2)
H8_3 H 0.9199 0.7783 0.2111
C16_3 C 0.3201(5) 0.9161(6) 0.15493(19)
H10_3 H 0.3865 0.9770 0.1703
O8_2 O 0.3387(3) 0.5230(4) 0.24042(15)
C13_3 C 0.9965(5) 0.8599(7) 0.8585(2)
C15_3 C 0.8998(6) 0.6936(8) 0.9322(2)
H9_3 H 0.8645 0.6365 0.9571
C17_3 C 0.8521(6) 0.6871(7) 0.8792(2)
H11_3 H 0.7836 0.6245 0.8682
N1_4 N 0.2262(3) 0.3153(4) 0.31439(15)
N4_4 N 0.3678(5) 0.3629(6) 0.47807(17)
C3_4 C 0.2264(5) 0.4343(7) 0.39926(19)
H1_2 H 0.1919 0.5062 0.4197
C5_4 C 0.3241(5) 0.2302(6) 0.3369(2)
H2_4 H 0.3585 0.1609 0.3155
C6_4 C 0.3753(5) 0.2410(6) 0.3902(2)
H3_4 H 0.4429 0.1804 0.4045
C8_4 C 0.3235(5) 0.3450(7) 0.42197(19)
C10_2 C 0.4984(6) 0.2866(7) 0.5514(2)
N5_4 N 0.4512(6) 0.2779(7) 0.4947(2)
C12_2 C 0.4495(6) 0.3720(7) 0.5884(2)
H6_2 H 0.3817 0.4364 0.5780
C13_4 C 0.5035(5) 0.3599(7) 0.6415(2)
H7_2 H 0.4711 0.4187 0.6668
C15_4 C 0.6002(6) 0.1936(8) 0.5678(2)
H9_4 H 0.6355 0.1365 0.5429
C16_4 C 0.1799(5) 0.4161(6) 0.34507(19)
H10_4 H 0.1135 0.4770 0.3297
C17_4 C 0.6479(6) 0.1871(7) 0.6208(2)
H11_4 H 0.7164 0.1245 0.6318
O7_2 O 0.3349(3) 0.2776(4) 0.22088(13)
O1_2 O 0.9657(3) 0.5005(5) 0.18618(17)
O2_4 O 0.9902(3) 0.3151(5) 0.24796(14)
O3_2 O 0.5406(4) 0.6856(6) 0.1248(2)
O4_4 O 0.3914(3) 0.5236(6) 0.12708(17)
N2_4 N 0.4977(4) 0.5710(6) 0.14205(18)
C1_4 C 0.5796(4) 0.4857(6) 0.18366(19)
C2_4 C 0.5261(4) 0.4060(6) 0.22245(19)
C4_4 C 0.7866(4) 0.4113(6) 0.22041(19)
C7_4 C 0.7048(4) 0.4895(6) 0.1827(2)
H4_2 H 0.7358 0.5454 0.1564
C9_4 C 0.7394(5) 0.3332(7) 0.2602(2)
H5_4 H 0.7938 0.2818 0.2863
C11_4 C 0.9251(4) 0.4128(6) 0.2176(2)
C14_4 C 0.6104(5) 0.3307(7) 0.2616(2)
H8_4 H 0.5801 0.2783 0.2889
C18_4 C 0.3885(4) 0.4045(6) 0.22765(17)
C10_3 C 0.9984(6) 0.2134(7) 0.0514(2)
C12_3 C 0.9495(6) 0.1280(7) 0.0884(2)
H6_3 H 0.8817 0.0636 0.0780
H7_3 H 0.9711 0.0813 0.1668
O1_3 O 0.4657(3) 0.9995(5) 0.68618(17)
O3_3 O 0.0406(4) 0.8144(6) 0.6248(2)
H1_3 H 0.6919 0.9938 0.9197
H4_3 H 0.2358 0.9546 0.6564
O1_4 O 0.5343(3) 0.0005(5) 0.31382(17)
O3_4 O 0.9594(4) 0.1856(6) 0.3752(2)
H1_4 H 0.3081 0.0062 0.0803
H4_4 H 0.7642 0.0454 0.3436
C10_4 C 0.0016(6) 0.7866(7) 0.9486(2)
C12_4 C 0.0505(6) 0.8720(7) 0.9116(2)
H6_4 H 0.1183 0.9364 0.9220
H7_4 H 0.0289 0.9187 0.8332
loop_
_geom_bond_atom_site_label_1
_geom_bond_atom_site_label_2
_geom_bond_site_symmetry_1
_geom_bond_site_symmetry_2
N3 C13 1_555 1_555
H9 C15 1_555 1_555
C17 N3 1_555 1_555
H11 C17 1_555 1_555
Cu4 N3 1_555 1_555
C15 C17 1_555 1_555
Cu1 O2 1_555 1_555
O2 C11 1_555 1_555
N1 Cu1 1_555 1_555
C1 C2 1_555 1_555
C2 C14 1_555 1_555
N4 C8 1_555 1_555
C4 C7 1_555 1_555
C5 N1 1_555 1_555
H2 C5 1_555 1_555
C6 C5 1_555 1_555
H3 C6 1_555 1_555
C7 C1 1_555 1_555
C8 C3 1_555 1_555
C9 C4 1_555 1_555
H5 C9 1_555 1_555
N5 N4 1_555 1_555
C11 C4 1_555 1_555
C14 C9 1_555 1_555
H8 C14 1_555 1_555
C16 N1 1_555 1_555
H10 C16 1_555 1_555
N6 Cu1 1_555 1_555
O7 Cu1 1_555 1_555
O8 Cu1 1_555 1_555
C3 C16 1_555 1_555
C6 C8 1_555 1_555
O7 C18 1_555 1_555
O4 N2 1_555 1_555
Cu3 O6 1_555 1_555
O1 C11_2 1_555 1_555
O2_2 C11_2 1_555 1_555
O3 N2_2 1_555 1_555
O4_2 N2_2 1_555 1_555
N2_2 C1_2 1_555 1_555
C1_2 C2_2 1_555 1_555
C2_2 C14_2 1_555 1_555
C4_2 C7_2 1_555 1_555
C7_2 C1_2 1_555 1_555
H4 C7_2 1_555 1_555
C9_2 C4_2 1_555 1_555
H5_2 C9_2 1_555 1_555
C11_2 C4_2 1_555 1_555
C14_2 C9_2 1_555 1_555
H8_2 C14_2 1_555 1_555
C18_2 C2_2 1_555 1_555
O5 C18_2 1_555 1_555
O8 C18_2 1_555 1_555
Cu3 O5 1_555 1_555
N1_2 Cu3 1_555 1_555
N3_2 C13_2 1_555 1_555
N4_2 C8_2 1_555 1_555
C3_2 H1 1_555 1_555
C5_2 N1_2 1_555 1_555
H2_2 C5_2 1_555 1_555
C6_2 C5_2 1_555 1_555
H3_2 C6_2 1_555 1_555
C8_2 C3_2 1_555 1_555
C10 N5_2 1_555 1_555
N5_2 N4_2 1_555 1_555
C12 C10 1_555 1_555
H6 C12 1_555 1_555
C13_2 C12 1_555 1_555
H7 C13_2 1_555 1_555
C15_2 C10 1_555 1_555
H9_2 C15_2 1_555 1_555
C16_2 N1_2 1_555 1_555
H10_2 C16_2 1_555 1_555
C17_2 N3_2 1_555 1_555
H11_2 C17_2 1_555 1_555
Cu4_2 N3_2 1_555 1_555
N6_2 Cu3 1_555 1_555
C3_2 C16_2 1_555 1_555
C6_2 C8_2 1_555 1_555
C15_2 C17_2 1_555 1_555
O4_3 N2_3 1_555 1_555
Cu4 O6_2 1_555 1_555
O5_2 C18_3 1_555 1_555
Cu4_2 O5_2 1_555 1_555
Cu4_2 O2_3 1_555 1_555
O2_3 C11_3 1_555 1_555
N1_3 Cu4_2 1_555 1_555
C1_3 C2_3 1_555 1_555
C2_3 C14_3 1_555 1_555
N4_3 C8_3 1_555 1_555
C4_3 C7_3 1_555 1_555
C5_3 N1_3 1_555 1_555
H2_3 C5_3 1_555 1_555
C6_3 C5_3 1_555 1_555
H3_3 C6_3 1_555 1_555
C7_3 C1_3 1_555 1_555
C8_3 C3_3 1_555 1_555
C9_3 C4_3 1_555 1_555
H5_3 C9_3 1_555 1_555
N5_3 N4_3 1_555 1_555
C11_3 C4_3 1_555 1_555
C14_3 C9_3 1_555 1_555
H8_3 C14_3 1_555 1_555
C16_3 N1_3 1_555 1_555
H10_3 C16_3 1_555 1_555
O8_2 Cu4_2 1_555 1_555
C3_3 C16_3 1_555 1_555
C6_3 C8_3 1_555 1_555
N6_2 C13_3 1_555 1_555
H9_3 C15_3 1_555 1_555
C17_3 N6_2 1_555 1_555
H11_3 C17_3 1_555 1_555
C15_3 C17_3 1_555 1_555
N1_4 Cu4 1_555 1_555
N6 C13_4 1_555 1_555
N4_4 C8_4 1_555 1_555
C3_4 H1_2 1_555 1_555
C5_4 N1_4 1_555 1_555
H2_4 C5_4 1_555 1_555
C6_4 C5_4 1_555 1_555
H3_4 C6_4 1_555 1_555
C8_4 C3_4 1_555 1_555
C10_2 N5_4 1_555 1_555
N5_4 N4_4 1_555 1_555
C12_2 C10_2 1_555 1_555
H6_2 C12_2 1_555 1_555
C13_4 C12_2 1_555 1_555
H7_2 C13_4 1_555 1_555
C15_4 C10_2 1_555 1_555
H9_4 C15_4 1_555 1_555
C16_4 N1_4 1_555 1_555
H10_4 C16_4 1_555 1_555
C17_4 N6 1_555 1_555
H11_4 C17_4 1_555 1_555
O7_2 Cu4 1_555 1_555
C3_4 C16_4 1_555 1_555
C6_4 C8_4 1_555 1_555
C15_4 C17_4 1_555 1_555
O1_2 C11_4 1_555 1_555
O2_4 C11_4 1_555 1_555
O3_2 N2_4 1_555 1_555
O4_4 N2_4 1_555 1_555
N2_4 C1_4 1_555 1_555
C1_4 C2_4 1_555 1_555
C2_4 C14_4 1_555 1_555
C4_4 C7_4 1_555 1_555
C7_4 C1_4 1_555 1_555
H4_2 C7_4 1_555 1_555
C9_4 C4_4 1_555 1_555
H5_4 C9_4 1_555 1_555
C11_4 C4_4 1_555 1_555
C14_4 C9_4 1_555 1_555
H8_4 C14_4 1_555 1_555
C18_4 C2_4 1_555 1_555
O7_2 C18_4 1_555 1_555
O8_2 C18_4 1_555 1_555
C12_3 C10_3 1_555 1_555
H6_3 C12_3 1_555 1_555
C12_4 C10_4 1_555 1_555
H6_4 C12_4 1_555 1_555

#END
