
###############################################################################
#
# This file contains modified crystal structure data generated from the
# MOF subset of the Cambridge Structural Database (CSD) v543 
# hosted by the Cambridge Crystallographic Data Centre (CCDC).
#
# This work is licensed under the Creative Commons
# Attribution-NonCommercial-ShareAlike 4.0 International License.
# To view a copy of this license, visit
# http://creativecommons.org/licenses/by-nc-sa/4.0/
# or send a letter to
# Creative Commons, PO Box 1866, Mountain View, CA 94042, USA.
#
# CIF created using the CSD Python API on 29 September 2022
# The structure has been converted into the P1 space group
# The structure has a 3D framework
# The original CSD entry WAJREI is in the triclinic crystal system
# The framework has been calculated to contain at least 10.0% void space
# The void calculation uses a probe of radius 1.32A, grid spacing 0.4
#
###############################################################################

data_WAJREI
_chemical_formula_moiety         '(C12 H10 O15 Tb2)n'
_symmetry_cell_setting           triclinic
_symmetry_space_group_name_H-M   'P 1'
_symmetry_Int_Tables_number      1
_space_group_name_Hall           'P 1'
loop_
_symmetry_equiv_pos_site_id
_symmetry_equiv_pos_as_xyz
1 x,y,z
_cell_length_a                   6.0591(2)
_cell_length_b                   9.4448(4)
_cell_length_c                   10.0340(4)
_cell_angle_alpha                88.3810(10)
_cell_angle_beta                 74.3840(10)
_cell_angle_gamma                77.2380(10)
_cell_volume                     539.06
loop_
_atom_site_label
_atom_site_type_symbol
_atom_site_fract_x
_atom_site_fract_y
_atom_site_fract_z
_atom_site_U_iso_or_equiv
_atom_site_thermal_displace_type
C9 C 0.0922(5) 0.1081(3) 0.5439(3) 0.0162 Uani
O11 O 0.1381(4) 0.3511(2) 0.5575(2) 0.0195 Uani
O12 O 0.3262(4) 0.1867(2) 0.6710(3) 0.0260 Uani
C11 C 0.1921(5) 0.2213(3) 0.5936(3) 0.0165 Uani
Tb4 Tb 0.34594(2) 0.44085(2) 0.70368(2) 0.0146 Uani
O13 O 0.0058(4) 0.6047(3) 0.1386(2) 0.0266 Uani
C12 C 0.0769(5) 0.5473(4) 0.0182(3) 0.0200 Uani
O1 O 0.0631(4) 0.6661(2) 0.6937(2) 0.0232 Uani
C1 C 0.1594(5) 0.7044(3) 0.5755(3) 0.0150 Uani
O2 O 0.3391(4) 0.6228(2) 0.4982(2) 0.0200 Uani
C2 C 0.0730(5) 0.8558(3) 0.5332(3) 0.0163 Uani
O6 O 0.6107(5) 0.2949(3) 0.8189(3) 0.0358 Uani
H2 H 0.707(10) 0.326(6) 0.831(6) 0.0540 Uiso
H3 H 0.548(9) 0.275(6) 0.901(2) 0.0540 Uiso
O7 O 0.6007(5) 0.5954(3) 0.7090(3) 0.0332 Uani
H4 H 0.703(10) 0.602(6) 0.657(6) 0.0500 Uiso
H5 H 0.611(10) 0.633(6) 0.764(6) 0.0500 Uiso
C10 C 0.1634(5) 0.9636(3) 0.5751(3) 0.0188 Uani
H6 H 0.276585 0.938445 0.626390 0.0220 Uiso
O14 O 0.2548(4) 0.5603(3) 0.9277(2) 0.0285 Uani
Tb7 Tb 0.65406(2) 0.55915(2) 0.29632(2) 0.0146 Uani
O20 O 0.6609(4) 0.3772(2) 0.5018(2) 0.0200 Uani
C4 C 0.8366(5) 0.0364(3) 0.4249(3) 0.0188 Uani
H1 H 0.723415 0.061555 0.373610 0.0220 Uiso
O9 O 0.9369(4) 0.3339(2) 0.3063(2) 0.0232 Uani
C7 C 0.8406(5) 0.2956(3) 0.4245(3) 0.0150 Uani
C8 C 0.9270(5) 0.1442(3) 0.4668(3) 0.0163 Uani
O8 O 0.7452(4) 0.4397(3) 0.0723(2) 0.0285 Uani
O3 O 0.8619(4) 0.6489(2) 0.4425(2) 0.0195 Uani
C3 C 0.9078(5) 0.8919(3) 0.4561(3) 0.0162 Uani
O4 O 0.6738(4) 0.8133(2) 0.3290(3) 0.0260 Uani
O5 O 0.9942(4) 0.3953(3) 0.8614(2) 0.0266 Uani
C5 C 0.9231(5) 0.4527(4) 0.9818(3) 0.0200 Uani
C6 C 0.8079(5) 0.7787(3) 0.4064(3) 0.0165 Uani
O15 O 0.3893(5) 0.7051(3) 0.1811(3) 0.0358 Uani
H7 H 0.293(10) 0.674(6) 0.169(6) 0.0540 Uiso
H8 H 0.452(9) 0.725(6) 0.099(2) 0.0540 Uiso
O16 O 0.3993(5) 0.4046(3) 0.2910(3) 0.0332 Uani
H9 H 0.297(10) 0.398(6) 0.343(6) 0.0500 Uiso
H10 H 0.389(10) 0.367(6) 0.236(6) 0.0500 Uiso
loop_
_atom_site_aniso_label
_atom_site_aniso_U_11
_atom_site_aniso_U_22
_atom_site_aniso_U_33
_atom_site_aniso_U_23
_atom_site_aniso_U_13
_atom_site_aniso_U_12
C9 0.0161 0.0118 0.0216 0.0011 -0.0072 -0.0025
O11 0.0262 0.0122 0.0238 0.0019 -0.0113 -0.0062
O12 0.0318 0.0163 0.0389 0.0024 -0.0236 -0.0068
C11 0.0159 0.0144 0.0191 0.0005 -0.0038 -0.0043
Tb4 0.01486 0.01427 0.01516 0.00072 -0.00391 -0.00415
O13 0.0296 0.0366 0.0161 -0.005 -0.0022 -0.0168
C12 0.0227 0.0231 0.0163 0.0033 -0.0068 -0.0078
O1 0.0239 0.0186 0.0225 0.0041 -0.0021 -0.0009
C1 0.0149 0.0105 0.0218 0.0022 -0.0071 -0.0047
O2 0.0184 0.0141 0.0245 0.0009 -0.004 0.0004
C2 0.0176 0.0103 0.0211 0.0015 -0.0069 -0.0012
O6 0.0405 0.0336 0.0442 0.0092 -0.0277 -0.0114
O7 0.0337 0.0487 0.0229 -0.0017 -0.0025 -0.027
C10 0.0196 0.0144 0.0265 0.0024 -0.0133 -0.004
O14 0.0249 0.0435 0.0196 -0.0043 -0.0001 -0.0193
Tb7 0.01486 0.01427 0.01516 0.00072 -0.00391 -0.00415
O20 0.0184 0.0141 0.0245 0.0009 -0.004 0.0004
C4 0.0196 0.0144 0.0265 0.0024 -0.0133 -0.004
O9 0.0239 0.0186 0.0225 0.0041 -0.0021 -0.0009
C7 0.0149 0.0105 0.0218 0.0022 -0.0071 -0.0047
C8 0.0176 0.0103 0.0211 0.0015 -0.0069 -0.0012
O8 0.0249 0.0435 0.0196 -0.0043 -0.0001 -0.0193
O3 0.0262 0.0122 0.0238 0.0019 -0.0113 -0.0062
C3 0.0161 0.0118 0.0216 0.0011 -0.0072 -0.0025
O4 0.0318 0.0163 0.0389 0.0024 -0.0236 -0.0068
O5 0.0296 0.0366 0.0161 -0.005 -0.0022 -0.0168
C5 0.0227 0.0231 0.0163 0.0033 -0.0068 -0.0078
C6 0.0159 0.0144 0.0191 0.0005 -0.0038 -0.0043
O15 0.0405 0.0336 0.0442 0.0092 -0.0277 -0.0114
O16 0.0337 0.0487 0.0229 -0.0017 -0.0025 -0.027
loop_
_geom_bond_atom_site_label_1
_geom_bond_atom_site_label_2
_geom_bond_site_symmetry_1
_geom_bond_site_symmetry_2
O11 C11 1_555 1_555
O12 C11 1_555 1_555
C11 C9 1_555 1_555
Tb4 O11 1_555 1_555
O12 Tb4 1_555 1_555
O13 C12 1_555 1_555
Tb4 O1 1_555 1_555
O1 C1 1_555 1_555
C1 O2 1_555 1_555
O2 Tb4 1_555 1_555
C2 C1 1_555 1_555
O6 Tb4 1_555 1_555
H2 O6 1_555 1_555
H3 O6 1_555 1_555
O7 Tb4 1_555 1_555
H4 O7 1_555 1_555
H5 O7 1_555 1_555
C10 C2 1_555 1_555
H6 C10 1_555 1_555
O14 Tb4 1_555 1_555
Tb7 O2 1_555 1_555
O20 Tb4 1_555 1_555
Tb7 O20 1_555 1_555
H1 C4 1_555 1_555
O9 C7 1_555 1_555
C7 O20 1_555 1_555
C8 C4 1_555 1_555
Tb7 O9 1_555 1_555
C7 C8 1_555 1_555
Tb7 O8 1_555 1_555
O3 C6 1_555 1_555
O4 C6 1_555 1_555
C5 O5 1_555 1_555
C6 C3 1_555 1_555
Tb7 O3 1_555 1_555
O15 Tb7 1_555 1_555
H7 O15 1_555 1_555
H8 O15 1_555 1_555
O16 Tb7 1_555 1_555
H9 O16 1_555 1_555
H10 O16 1_555 1_555
O4 Tb7 1_555 1_555

#END
