
###############################################################################
#
# This file contains modified crystal structure data generated from the
# MOF subset of the Cambridge Structural Database (CSD) v543 
# hosted by the Cambridge Crystallographic Data Centre (CCDC).
#
# This work is licensed under the Creative Commons
# Attribution-NonCommercial-ShareAlike 4.0 International License.
# To view a copy of this license, visit
# http://creativecommons.org/licenses/by-nc-sa/4.0/
# or send a letter to
# Creative Commons, PO Box 1866, Mountain View, CA 94042, USA.
#
# CIF created using the CSD Python API on 29 September 2022
# The structure has been converted into the P1 space group
# The structure has a 3D framework
# The original CSD entry WAJRIM is in the triclinic crystal system
# The framework has been calculated to contain at least 10.0% void space
# The void calculation uses a probe of radius 1.32A, grid spacing 0.4
#
###############################################################################

data_WAJRIM
_chemical_formula_moiety         '(C12 H10 Eu2 O15)n'
_symmetry_cell_setting           triclinic
_symmetry_space_group_name_H-M   'P 1'
_symmetry_Int_Tables_number      1
_space_group_name_Hall           'P 1'
loop_
_symmetry_equiv_pos_site_id
_symmetry_equiv_pos_as_xyz
1 x,y,z
_cell_length_a                   6.0966(3)
_cell_length_b                   9.4832(4)
_cell_length_c                   10.0926(5)
_cell_angle_alpha                88.516(2)
_cell_angle_beta                 74.477(2)
_cell_angle_gamma                76.915(2)
_cell_volume                     547.25
loop_
_atom_site_label
_atom_site_type_symbol
_atom_site_fract_x
_atom_site_fract_y
_atom_site_fract_z
_atom_site_U_iso_or_equiv
_atom_site_thermal_displace_type
C9 C 0.0927(5) 0.1074(3) 0.5430(3) 0.0168 Uani
O11 O 0.1386(3) 0.3495(2) 0.5555(2) 0.0196 Uani
O12 O 0.3267(4) 0.1856(2) 0.6685(2) 0.0264 Uani
C11 C 0.1930(5) 0.2205(3) 0.5917(3) 0.0168 Uani
Eu4 Eu 0.34649(2) 0.44085(2) 0.70278(2) 0.0139 Uani
O13 O 0.0060(4) 0.6042(2) 0.1382(2) 0.0271 Uani
C12 C 0.0757(5) 0.5476(3) 0.0185(3) 0.0205 Uani
O1 O 0.0592(4) 0.6686(2) 0.6943(2) 0.0233 Uani
C1 C 0.1566(4) 0.7055(3) 0.5770(3) 0.0145 Uani
O2 O 0.3356(3) 0.6230(2) 0.5006(2) 0.0192 Uani
C2 C 0.0718(4) 0.8564(3) 0.5334(3) 0.0152 Uani
O6 O 0.6152(5) 0.2935(3) 0.8183(3) 0.0359 Uani
H2 H 0.712(9) 0.329(5) 0.831(5) 0.0540 Uiso
H3 H 0.549(8) 0.270(5) 0.898(2) 0.0540 Uiso
O7 O 0.6014(4) 0.5966(3) 0.7102(3) 0.0333 Uani
H4 H 0.696(9) 0.602(5) 0.655(5) 0.0500 Uiso
H5 H 0.619(8) 0.636(5) 0.771(5) 0.0500 Uiso
C10 C 0.1633(5) 0.9637(3) 0.5751(3) 0.0187 Uani
H6 H 0.275697 0.938523 0.626246 0.0220 Uiso
O14 O 0.2530(4) 0.5604(3) 0.9284(2) 0.0292 Uani
Eu7 Eu 0.65351(2) 0.55915(2) 0.29722(2) 0.0139 Uani
O20 O 0.6644(3) 0.3770(2) 0.4994(2) 0.0192 Uani
C4 C 0.8367(5) 0.0363(3) 0.4249(3) 0.0187 Uani
H1 H 0.724303 0.061477 0.373754 0.0220 Uiso
O9 O 0.9408(4) 0.3314(2) 0.3057(2) 0.0233 Uani
C7 C 0.8434(4) 0.2945(3) 0.4230(3) 0.0145 Uani
C8 C 0.9282(4) 0.1436(3) 0.4666(3) 0.0152 Uani
O8 O 0.7470(4) 0.4396(3) 0.0716(2) 0.0292 Uani
O3 O 0.8614(3) 0.6505(2) 0.4445(2) 0.0196 Uani
C3 C 0.9073(5) 0.8926(3) 0.4570(3) 0.0168 Uani
O4 O 0.6733(4) 0.8144(2) 0.3315(2) 0.0264 Uani
O5 O 0.9940(4) 0.3958(2) 0.8618(2) 0.0271 Uani
C5 C 0.9243(5) 0.4524(3) 0.9815(3) 0.0205 Uani
C6 C 0.8070(5) 0.7795(3) 0.4083(3) 0.0168 Uani
O15 O 0.3848(5) 0.7065(3) 0.1817(3) 0.0359 Uani
H7 H 0.288(9) 0.671(5) 0.169(5) 0.0540 Uiso
H8 H 0.451(8) 0.730(5) 0.102(2) 0.0540 Uiso
O16 O 0.3986(4) 0.4034(3) 0.2898(3) 0.0333 Uani
H9 H 0.304(9) 0.398(5) 0.345(5) 0.0500 Uiso
H10 H 0.381(8) 0.364(5) 0.229(5) 0.0500 Uiso
loop_
_atom_site_aniso_label
_atom_site_aniso_U_11
_atom_site_aniso_U_22
_atom_site_aniso_U_33
_atom_site_aniso_U_23
_atom_site_aniso_U_13
_atom_site_aniso_U_12
C9 0.0164 0.0137 0.0209 -0.0006 -0.005 -0.0048
O11 0.0256 0.0149 0.0222 0.0021 -0.0102 -0.0079
O12 0.0309 0.0183 0.0381 0.0018 -0.0222 -0.0066
C11 0.0154 0.017 0.0179 -0.0021 -0.002 -0.0062
Eu4 0.01358 0.01501 0.01306 -0.00047 -0.00231 -0.00474
O13 0.0282 0.0391 0.0158 -0.0065 0.0003 -0.0178
C12 0.0205 0.0257 0.0163 0.0002 -0.0038 -0.0088
O1 0.023 0.0207 0.0205 0.0014 -0.0001 -0.0005
C1 0.0145 0.0129 0.0175 -0.0002 -0.0055 -0.0046
O2 0.016 0.0154 0.0215 -0.0009 -0.0005 0.0006
C2 0.0147 0.0107 0.0187 -0.0025 -0.0038 -0.0005
O6 0.0384 0.0359 0.0451 0.0087 -0.0275 -0.0134
O7 0.0329 0.0504 0.0222 -0.003 -0.0011 -0.0279
C10 0.0178 0.0158 0.0265 0.0004 -0.0125 -0.0039
O14 0.0266 0.0452 0.0179 -0.0065 0.0021 -0.0214
Eu7 0.01358 0.01501 0.01306 -0.00047 -0.00231 -0.00474
O20 0.016 0.0154 0.0215 -0.0009 -0.0005 0.0006
C4 0.0178 0.0158 0.0265 0.0004 -0.0125 -0.0039
O9 0.023 0.0207 0.0205 0.0014 -0.0001 -0.0005
C7 0.0145 0.0129 0.0175 -0.0002 -0.0055 -0.0046
C8 0.0147 0.0107 0.0187 -0.0025 -0.0038 -0.0005
O8 0.0266 0.0452 0.0179 -0.0065 0.0021 -0.0214
O3 0.0256 0.0149 0.0222 0.0021 -0.0102 -0.0079
C3 0.0164 0.0137 0.0209 -0.0006 -0.005 -0.0048
O4 0.0309 0.0183 0.0381 0.0018 -0.0222 -0.0066
O5 0.0282 0.0391 0.0158 -0.0065 0.0003 -0.0178
C5 0.0205 0.0257 0.0163 0.0002 -0.0038 -0.0088
C6 0.0154 0.017 0.0179 -0.0021 -0.002 -0.0062
O15 0.0384 0.0359 0.0451 0.0087 -0.0275 -0.0134
O16 0.0329 0.0504 0.0222 -0.003 -0.0011 -0.0279
loop_
_geom_bond_atom_site_label_1
_geom_bond_atom_site_label_2
_geom_bond_site_symmetry_1
_geom_bond_site_symmetry_2
O11 C11 1_555 1_555
O12 C11 1_555 1_555
C11 C9 1_555 1_555
Eu4 O11 1_555 1_555
O12 Eu4 1_555 1_555
O13 C12 1_555 1_555
Eu4 O1 1_555 1_555
O1 C1 1_555 1_555
C1 O2 1_555 1_555
O2 Eu4 1_555 1_555
C2 C1 1_555 1_555
O6 Eu4 1_555 1_555
H2 O6 1_555 1_555
H3 O6 1_555 1_555
O7 Eu4 1_555 1_555
H4 O7 1_555 1_555
H5 O7 1_555 1_555
C10 C2 1_555 1_555
H6 C10 1_555 1_555
O14 Eu4 1_555 1_555
Eu7 O2 1_555 1_555
O20 Eu4 1_555 1_555
Eu7 O20 1_555 1_555
H1 C4 1_555 1_555
O9 C7 1_555 1_555
C7 O20 1_555 1_555
C8 C4 1_555 1_555
Eu7 O9 1_555 1_555
C7 C8 1_555 1_555
Eu7 O8 1_555 1_555
O3 C6 1_555 1_555
O4 C6 1_555 1_555
C5 O5 1_555 1_555
C6 C3 1_555 1_555
Eu7 O3 1_555 1_555
O15 Eu7 1_555 1_555
H7 O15 1_555 1_555
H8 O15 1_555 1_555
O16 Eu7 1_555 1_555
H9 O16 1_555 1_555
H10 O16 1_555 1_555
O4 Eu7 1_555 1_555

#END
