
###############################################################################
#
# This file contains modified crystal structure data generated from the
# MOF subset of the Cambridge Structural Database (CSD) v543 
# hosted by the Cambridge Crystallographic Data Centre (CCDC).
#
# This work is licensed under the Creative Commons
# Attribution-NonCommercial-ShareAlike 4.0 International License.
# To view a copy of this license, visit
# http://creativecommons.org/licenses/by-nc-sa/4.0/
# or send a letter to
# Creative Commons, PO Box 1866, Mountain View, CA 94042, USA.
#
# CIF created using the CSD Python API on 29 September 2022
# The structure has been converted into the P1 space group
# The structure has a 3D framework
# The original CSD entry WAKLAZ is in the monoclinic crystal system
# The framework has been calculated to contain at least 10.0% void space
# The void calculation uses a probe of radius 1.32A, grid spacing 0.4
#
###############################################################################

data_WAKLAZ
_chemical_formula_moiety         '(C12 H20 F17 N19 O4 Ti10 Zn7)n'
_symmetry_cell_setting           triclinic
_symmetry_space_group_name_H-M   'P 1'
_symmetry_Int_Tables_number      1
_space_group_name_Hall           'P 1'
loop_
_symmetry_equiv_pos_site_id
_symmetry_equiv_pos_as_xyz
1 x,y,z
_cell_length_a                   11.2025(2)
_cell_length_b                   10.8541(2)
_cell_length_c                   8.8565(2)
_cell_angle_alpha                90
_cell_angle_beta                 115.7580(10)
_cell_angle_gamma                90
_cell_volume                     969.887
loop_
_atom_site_label
_atom_site_type_symbol
_atom_site_fract_x
_atom_site_fract_y
_atom_site_fract_z
Zn1 Zn 0.55313(6) -0.0000 0.50946(8)
Zn2 Zn 0.06600(6) 0.33878(2) 0.17190(8)
Ti1 Ti 0.0000 0.0000 0.0000
O1 O 0.70439(19) 0.13657(18) 0.6061(3)
H1 H 0.784(2) 0.107(4) 0.679(5)
H2 H 0.727(4) 0.188(6) 0.543(7)
F1 F 0.1112(2) 0.5000 0.3078(3)
F4 F 0.1670(2) -0.0000 0.0035(3)
F5 F 0.0659(3) -0.0000 0.2300(3)
N3 N 0.42698(19) 0.20061(18) 0.2451(3)
N4 N 0.4193(2) 0.1415(2) 0.3782(3)
N5 N 0.24349(19) 0.26242(18) 0.2564(3)
C2 C 0.3085(2) 0.1806(2) 0.3799(3)
H4 H 0.2784 0.1546 0.4574
C3 C 0.3208(2) 0.2711(2) 0.1753(3)
H5 H 0.3018 0.3205 0.0819
Zn5 Zn 0.05313(6) 0.5000 0.50946(8)
Zn6 Zn 0.06600(6) 0.66122(2) 0.17190(8)
Zn8 Zn 0.56600(6) 0.16122(2) 0.17190(8)
F9 F 0.6112(2) -0.0000 0.3078(3)
N11 N 0.5092(3) -0.0000 0.7168(4)
Ti1_2 Ti 0.0000 -0.0000 1.0000
N1 N 0.0264(2) 0.43672(17) 0.9634(2)
N2 N 0.0092(3) 0.5000 0.7168(4)
C1 C 0.0157(2) 0.4027(2) 0.8147(3)
H3 H 0.0129 0.3211 0.7814
N6 N 0.0264(2) 0.56328(17) 0.9634(2)
C4 C 0.0157(2) 0.5973(2) 0.8147(3)
H6 H 0.0129 0.6789 0.7814
Zn1_2 Zn 0.55313(6) 1.0000 0.50946(8)
Ti1_3 Ti 0.0000 1.0000 0.0000
F4_2 F 0.1670(2) 1.0000 0.0035(3)
F5_2 F 0.0659(3) 1.0000 0.2300(3)
O2 O 0.70439(19) 0.86343(18) 0.6061(3)
H7 H 0.784(2) 0.893(4) 0.679(5)
H8 H 0.727(4) 0.812(6) 0.543(7)
N7 N 0.42698(19) 0.79939(18) 0.2451(3)
N8 N 0.4193(2) 0.8585(2) 0.3782(3)
N9 N 0.24349(19) 0.73758(18) 0.2564(3)
C5 C 0.3085(2) 0.8194(2) 0.3799(3)
H9 H 0.2784 0.8454 0.4574
C6 C 0.3208(2) 0.7289(2) 0.1753(3)
H10 H 0.3018 0.6795 0.0819
Zn7 Zn 0.56600(6) 0.83878(2) 0.17190(8)
F9_2 F 0.6112(2) 1.0000 0.3078(3)
N11_2 N 0.5092(3) 1.0000 0.7168(4)
Ti1_4 Ti -0.0000 1.0000 1.0000
Ti1_5 Ti 1.0000 0.0000 0.0000
N13 N 0.92698(19) 0.29939(18) 0.2451(3)
Ti1_6 Ti 1.0000 1.0000 0.0000
N12 N 0.92698(19) 0.70061(18) 0.2451(3)
O1_2 O 0.20439(19) 0.63657(18) 0.6061(3)
H1_2 H 0.284(2) 0.607(4) 0.679(5)
H2_2 H 0.227(4) 0.688(6) 0.543(7)
O2_2 O 0.20439(19) 0.36343(18) 0.6061(3)
H7_2 H 0.284(2) 0.393(4) 0.679(5)
H8_2 H 0.227(4) 0.312(6) 0.543(7)
N6_2 N 0.5264(2) 0.06328(17) 0.9634(2)
C4_2 C 0.5157(2) 0.0973(2) 0.8147(3)
H6_2 H 0.5129 0.1789 0.7814
Ti1_7 Ti 0.5000 0.5000 0.0000
F4_3 F 0.6670(2) 0.5000 0.0035(3)
F5_3 F 0.5659(3) 0.5000 0.2300(3)
N4_2 N 0.9193(2) 0.6415(2) 0.3782(3)
N5_2 N 0.74349(19) 0.76242(18) 0.2564(3)
C2_2 C 0.8085(2) 0.6806(2) 0.3799(3)
H4_2 H 0.7784 0.6546 0.4574
C3_2 C 0.8208(2) 0.7711(2) 0.1753(3)
H5_2 H 0.8018 0.8205 0.0819
N8_2 N 0.9193(2) 0.3585(2) 0.3782(3)
N9_2 N 0.74349(19) 0.23758(18) 0.2564(3)
C5_2 C 0.8085(2) 0.3194(2) 0.3799(3)
H9_2 H 0.7784 0.3454 0.4574
C6_2 C 0.8208(2) 0.2289(2) 0.1753(3)
H10_2 H 0.8018 0.1795 0.0819
Ti1_8 Ti 0.5000 0.5000 1.0000
F2 F 0.49510(19) 0.67288(14) 0.9958(2)
F3 F 0.4283(2) 0.5000 0.7629(3)
F6 F 0.3275(2) 0.5000 0.9751(3)
N1_2 N 0.5264(2) 0.93672(17) 0.9634(2)
C1_2 C 0.5157(2) 0.9027(2) 0.8147(3)
H3_2 H 0.5129 0.8211 0.7814
F7 F 0.49510(19) 0.32712(14) 0.9958(2)
Ti1_9 Ti 1.0000 -0.0000 1.0000
F2_2 F 0.99510(19) 0.17288(14) 0.9958(2)
F3_2 F 0.9283(2) -0.0000 0.7629(3)
F6_2 F 0.8275(2) -0.0000 0.9751(3)
Ti1_10 Ti 1.0000 1.0000 1.0000
F3_3 F 0.9283(2) 1.0000 0.7629(3)
F6_3 F 0.8275(2) 1.0000 0.9751(3)
F7_2 F 0.99510(19) 0.82712(14) 0.9958(2)
loop_
_geom_bond_atom_site_label_1
_geom_bond_atom_site_label_2
_geom_bond_site_symmetry_1
_geom_bond_site_symmetry_2
Zn1 O1 1_555 1_555
Zn2 F1 1_555 1_555
O1 H1 1_555 1_555
H2 O1 1_555 1_555
F1 Zn5 1_555 1_555
F4 Ti1 1_555 1_555
F5 Ti1 1_555 1_555
N3 N4 1_555 1_555
N4 Zn1 1_555 1_555
N5 Zn2 1_555 1_555
C2 N4 1_555 1_555
H4 C2 1_555 1_555
C3 N3 1_555 1_555
H5 C3 1_555 1_555
Zn6 F1 1_555 1_555
Zn8 N3 1_555 1_555
F9 Zn1 1_555 1_555
N11 Zn1 1_555 1_555
N5 C2 1_555 1_555
N5 C3 1_555 1_555
Zn8 F9 1_555 1_555
N2 C1 1_555 1_555
C1 N1 1_555 1_555
H3 C1 1_555 1_555
N6 N1 1_555 1_555
C4 N2 1_555 1_555
H6 C4 1_555 1_555
Zn5 N2 1_555 1_555
N6 C4 1_555 1_555
F4_2 Ti1_3 1_555 1_555
F5_2 Ti1_3 1_555 1_555
O2 Zn1_2 1_555 1_555
H7 O2 1_555 1_555
H8 O2 1_555 1_555
N7 N8 1_555 1_555
N8 Zn1_2 1_555 1_555
N9 Zn6 1_555 1_555
C5 N8 1_555 1_555
H9 C5 1_555 1_555
C6 N7 1_555 1_555
H10 C6 1_555 1_555
Zn7 N7 1_555 1_555
F9_2 Zn1_2 1_555 1_555
N11_2 Zn1_2 1_555 1_555
N9 C5 1_555 1_555
N9 C6 1_555 1_555
Zn7 F9_2 1_555 1_555
Zn5 O1_2 1_555 1_555
O1_2 H1_2 1_555 1_555
H2_2 O1_2 1_555 1_555
O2_2 Zn5 1_555 1_555
H7_2 O2_2 1_555 1_555
H8_2 O2_2 1_555 1_555
C4_2 N11 1_555 1_555
H6_2 C4_2 1_555 1_555
N6_2 C4_2 1_555 1_555
F4_3 Ti1_7 1_555 1_555
F5_3 Ti1_7 1_555 1_555
N12 N4_2 1_555 1_555
N5_2 Zn7 1_555 1_555
C2_2 N4_2 1_555 1_555
H4_2 C2_2 1_555 1_555
C3_2 N12 1_555 1_555
H5_2 C3_2 1_555 1_555
N13 N8_2 1_555 1_555
N9_2 Zn8 1_555 1_555
C5_2 N8_2 1_555 1_555
H9_2 C5_2 1_555 1_555
C6_2 N13 1_555 1_555
H10_2 C6_2 1_555 1_555
N5_2 C2_2 1_555 1_555
N5_2 C3_2 1_555 1_555
N9_2 C5_2 1_555 1_555
N9_2 C6_2 1_555 1_555
Ti1_8 F2 1_555 1_555
F3 Ti1_8 1_555 1_555
F6 Ti1_8 1_555 1_555
N11_2 C1_2 1_555 1_555
C1_2 N1_2 1_555 1_555
H3_2 C1_2 1_555 1_555
F7 Ti1_8 1_555 1_555
Ti1_9 F2_2 1_555 1_555
F3_2 Ti1_9 1_555 1_555
F6_2 Ti1_9 1_555 1_555
F3_3 Ti1_10 1_555 1_555
F6_3 Ti1_10 1_555 1_555
F7_2 Ti1_10 1_555 1_555

#END
