
###############################################################################
#
# This file contains modified crystal structure data generated from the
# MOF subset of the Cambridge Structural Database (CSD) v543 
# hosted by the Cambridge Crystallographic Data Centre (CCDC).
#
# This work is licensed under the Creative Commons
# Attribution-NonCommercial-ShareAlike 4.0 International License.
# To view a copy of this license, visit
# http://creativecommons.org/licenses/by-nc-sa/4.0/
# or send a letter to
# Creative Commons, PO Box 1866, Mountain View, CA 94042, USA.
#
# CIF created using the CSD Python API on 29 September 2022
# The structure has been converted into the P1 space group
# The structure has a 3D framework
# The original CSD entry WAKMAA is in the monoclinic crystal system
# The framework has been calculated to contain at least 10.0% void space
# The void calculation uses a probe of radius 1.32A, grid spacing 0.4
#
###############################################################################

data_WAKMAA
_chemical_formula_moiety         '(C12 H12 F18 N19 Ti10 Zn7)n'
_symmetry_cell_setting           triclinic
_symmetry_space_group_name_H-M   'P 1'
_symmetry_Int_Tables_number      1
_space_group_name_Hall           'P 1'
loop_
_symmetry_equiv_pos_site_id
_symmetry_equiv_pos_as_xyz
1 x,y,z
_cell_length_a                   11.1990(3)
_cell_length_b                   10.6391(3)
_cell_length_c                   7.3676(2)
_cell_angle_alpha                90
_cell_angle_beta                 102.4658(10)
_cell_angle_gamma                90
_cell_volume                     857.135
loop_
_atom_site_label
_atom_site_type_symbol
_atom_site_fract_x
_atom_site_fract_y
_atom_site_fract_z
_atom_site_U_iso_or_equiv
_atom_site_thermal_displace_type
Zn2 Zn 0.2567(5) 0.00000 0.4394(7) 0.0385 Uiso
Ti1 Ti 0.00000 0.00000 0.00000 0.0351 Uiso
F2 F 0.0894(11) 0.00000 0.2454(13) 0.0609 Uiso
N11 N 0.3606(15) 0.00000 0.226(2) 0.0120 Uiso
N14 N 0.2091(10) 0.1556(11) 0.5581(16) 0.0120 Uiso
F9 F 0.4201(13) 0.00000 0.6413(15) 0.0609 Uiso
N3 N 0.2874(11) 0.2284(9) 0.6983(16) 0.0120 Uiso
N5 N 0.0921(12) 0.2771(8) 0.6964(12) 0.0120 Uiso
C2 C 0.1034(12) 0.1942(10) 0.5623(13) 0.0120 Uiso
C3 C 0.2094(13) 0.2995(13) 0.764(2) 0.0120 Uiso
H2 H 0.02695 0.16307 0.47634 0.0120 Uiso
H3 H 0.23398 0.35593 0.8757 0.0120 Uiso
Ti1_2 Ti -0.00000 0.00000 1.00000 0.0351 Uiso
F3 F 0.1476(7) 0.00000 0.9186(16) 0.0609 Uiso
Zn6 Zn 0.4551(4) 0.1674(2) 0.8001(5) 0.0365 Uiso
Zn2_2 Zn 0.2567(5) 1.00000 0.4394(7) 0.0385 Uiso
Ti1_3 Ti 0.00000 1.00000 0.00000 0.0351 Uiso
F2_2 F 0.0894(11) 1.00000 0.2454(13) 0.0609 Uiso
N11_2 N 0.3606(15) 1.00000 0.226(2) 0.0120 Uiso
N15 N 0.2091(10) 0.8444(11) 0.5581(16) 0.0120 Uiso
F9_2 F 0.4201(13) 1.00000 0.6413(15) 0.0609 Uiso
Ti1_4 Ti -0.00000 1.00000 1.00000 0.0351 Uiso
F3_2 F 0.1476(7) 1.00000 0.9186(16) 0.0609 Uiso
N7 N 0.2874(11) 0.7716(9) 0.6983(16) 0.0120 Uiso
N9 N 0.0921(12) 0.7229(8) 0.6964(12) 0.0120 Uiso
C5 C 0.1034(12) 0.8058(10) 0.5623(13) 0.0120 Uiso
C6 C 0.2094(13) 0.7005(13) 0.764(2) 0.0120 Uiso
H5 H 0.02695 0.83693 0.47634 0.0120 Uiso
H6 H 0.23398 0.64407 0.8757 0.0120 Uiso
Zn5 Zn 0.4551(4) 0.8326(2) 0.8001(5) 0.0365 Uiso
N1 N 0.9501(9) 0.4356(3) 0.0301(10) 0.0120 Uiso
N2 N 0.8606(15) 0.50000 0.226(2) 0.0120 Uiso
C1 C 0.9024(10) 0.3987(9) 0.1715(12) 0.0120 Uiso
H1 H 0.8961 0.31030 0.21137 0.0120 Uiso
Ti1_5 Ti 1.00000 0.00000 0.00000 0.0351 Uiso
F5 F 0.8537(13) 0.00000 0.0739(18) 0.0609 Uiso
N6 N 0.9501(9) 0.5644(3) 0.0301(10) 0.0120 Uiso
C4 C 0.9024(10) 0.6013(9) 0.1715(12) 0.0120 Uiso
H4 H 0.8961 0.68970 0.21137 0.0120 Uiso
Zn9 Zn 0.7567(5) 0.50000 0.4394(7) 0.0385 Uiso
Zn1 Zn 0.9551(4) 0.3326(2) 0.8001(5) 0.0365 Uiso
Ti1_6 Ti 1.00000 0.00000 1.00000 0.0351 Uiso
F1 F 0.9921(10) 0.1716(9) 0.9901(14) 0.0609 Uiso
F4 F 0.9194(10) 0.00000 0.7482(8) 0.0609 Uiso
F6 F 0.9201(13) 0.50000 0.6413(15) 0.0609 Uiso
Zn4 Zn 0.9551(4) 0.6674(2) 0.8001(5) 0.0365 Uiso
N13 N 0.7874(11) 0.2716(9) 0.6983(16) 0.0120 Uiso
Ti1_7 Ti 1.00000 1.00000 0.00000 0.0351 Uiso
F5_2 F 0.8537(13) 1.00000 0.0739(18) 0.0609 Uiso
Ti1_8 Ti 1.00000 1.00000 1.00000 0.0351 Uiso
F4_2 F 0.9194(10) 1.00000 0.7482(8) 0.0609 Uiso
F7 F 0.9921(10) 0.8284(9) 0.9901(14) 0.0609 Uiso
N12 N 0.7874(11) 0.7284(9) 0.6983(16) 0.0120 Uiso
N6_2 N 0.4501(9) 0.0644(3) 0.0301(10) 0.0120 Uiso
C4_2 C 0.4024(10) 0.1013(9) 0.1715(12) 0.0120 Uiso
H4_2 H 0.3961 0.18970 0.21137 0.0120 Uiso
N1_2 N 0.4501(9) 0.9356(3) 0.0301(10) 0.0120 Uiso
C1_2 C 0.4024(10) 0.8987(9) 0.1715(12) 0.0120 Uiso
H1_2 H 0.3961 0.81030 0.21137 0.0120 Uiso
Ti1_9 Ti 0.50000 0.50000 0.00000 0.0351 Uiso
F2_3 F 0.5894(11) 0.50000 0.2454(13) 0.0609 Uiso
F5_3 F 0.3537(13) 0.50000 0.0739(18) 0.0609 Uiso
N14_2 N 0.7091(10) 0.6556(11) 0.5581(16) 0.0120 Uiso
N15_2 N 0.7091(10) 0.3444(11) 0.5581(16) 0.0120 Uiso
N5_2 N 0.5921(12) 0.7771(8) 0.6964(12) 0.0120 Uiso
C2_2 C 0.6034(12) 0.6942(10) 0.5623(13) 0.0120 Uiso
C3_2 C 0.7094(13) 0.7995(13) 0.764(2) 0.0120 Uiso
H2_2 H 0.52695 0.66307 0.47634 0.0120 Uiso
H3_2 H 0.73398 0.85593 0.8757 0.0120 Uiso
Ti1_10 Ti 0.50000 0.50000 1.00000 0.0351 Uiso
F1_2 F 0.4921(10) 0.6716(9) 0.9901(14) 0.0609 Uiso
F3_3 F 0.6476(7) 0.50000 0.9186(16) 0.0609 Uiso
F4_3 F 0.4194(10) 0.50000 0.7482(8) 0.0609 Uiso
N9_2 N 0.5921(12) 0.2229(8) 0.6964(12) 0.0120 Uiso
C5_2 C 0.6034(12) 0.3058(10) 0.5623(13) 0.0120 Uiso
C6_2 C 0.7094(13) 0.2005(13) 0.764(2) 0.0120 Uiso
H5_2 H 0.52695 0.33693 0.47634 0.0120 Uiso
H6_2 H 0.73398 0.14407 0.8757 0.0120 Uiso
F7_2 F 0.4921(10) 0.3284(9) 0.9901(14) 0.0609 Uiso
loop_
_geom_bond_atom_site_label_1
_geom_bond_atom_site_label_2
_geom_bond_site_symmetry_1
_geom_bond_site_symmetry_2
Zn2 F2 1_555 1_555
F2 Ti1 1_555 1_555
N11 Zn2 1_555 1_555
N14 Zn2 1_555 1_555
F9 Zn2 1_555 1_555
N3 N14 1_555 1_555
N14 C2 1_555 1_555
C2 N5 1_555 1_555
C3 N3 1_555 1_555
H2 C2 1_555 1_555
H3 C3 1_555 1_555
F3 Ti1_2 1_555 1_555
Zn6 N3 1_555 1_555
N5 C3 1_555 1_555
Zn2_2 F2_2 1_555 1_555
F2_2 Ti1_3 1_555 1_555
N11_2 Zn2_2 1_555 1_555
N15 Zn2_2 1_555 1_555
F9_2 Zn2_2 1_555 1_555
F3_2 Ti1_4 1_555 1_555
N7 N15 1_555 1_555
N15 C5 1_555 1_555
N9 C5 1_555 1_555
C5 H5 1_555 1_555
C6 N7 1_555 1_555
H6 C6 1_555 1_555
Zn5 N7 1_555 1_555
N9 C6 1_555 1_555
N1 C1 1_555 1_555
N2 C1 1_555 1_555
C1 H1 1_555 1_555
F5 Ti1_5 1_555 1_555
N6 N1 1_555 1_555
C4 N2 1_555 1_555
H4 C4 1_555 1_555
Zn9 N2 1_555 1_555
N6 C4 1_555 1_555
Ti1_6 F1 1_555 1_555
F1 Zn1 1_555 1_555
F4 Ti1_6 1_555 1_555
F6 Zn1 1_555 1_555
Zn4 F6 1_555 1_555
N13 Zn1 1_555 1_555
Zn9 F6 1_555 1_555
F5_2 Ti1_7 1_555 1_555
F4_2 Ti1_8 1_555 1_555
F7 Ti1_8 1_555 1_555
N12 Zn4 1_555 1_555
Zn4 F7 1_555 1_555
C4_2 N11 1_555 1_555
H4_2 C4_2 1_555 1_555
N6_2 C4_2 1_555 1_555
Zn6 F9 1_555 1_555
N1_2 C1_2 1_555 1_555
N11_2 C1_2 1_555 1_555
C1_2 H1_2 1_555 1_555
Zn9 F2_3 1_555 1_555
F2_3 Ti1_9 1_555 1_555
F5_3 Ti1_9 1_555 1_555
N14_2 Zn9 1_555 1_555
N15_2 Zn9 1_555 1_555
N12 N14_2 1_555 1_555
N14_2 C2_2 1_555 1_555
N5_2 Zn5 1_555 1_555
C2_2 N5_2 1_555 1_555
C3_2 N12 1_555 1_555
H2_2 C2_2 1_555 1_555
H3_2 C3_2 1_555 1_555
Ti1_10 F1_2 1_555 1_555
F1_2 Zn5 1_555 1_555
F3_3 Ti1_10 1_555 1_555
F4_3 Ti1_10 1_555 1_555
F9_2 Zn5 1_555 1_555
Zn6 N9_2 1_555 1_555
N13 N15_2 1_555 1_555
N15_2 C5_2 1_555 1_555
N9_2 C5_2 1_555 1_555
C5_2 H5_2 1_555 1_555
C6_2 N13 1_555 1_555
H6_2 C6_2 1_555 1_555
F7_2 Ti1_10 1_555 1_555
N5_2 C3_2 1_555 1_555
Zn6 F7_2 1_555 1_555
N9_2 C6_2 1_555 1_555

#END
