
###############################################################################
#
# This file contains modified crystal structure data generated from the
# MOF subset of the Cambridge Structural Database (CSD) v543 
# hosted by the Cambridge Crystallographic Data Centre (CCDC).
#
# This work is licensed under the Creative Commons
# Attribution-NonCommercial-ShareAlike 4.0 International License.
# To view a copy of this license, visit
# http://creativecommons.org/licenses/by-nc-sa/4.0/
# or send a letter to
# Creative Commons, PO Box 1866, Mountain View, CA 94042, USA.
#
# CIF created using the CSD Python API on 29 September 2022
# The structure has been converted into the P1 space group
# The structure has a 3D framework
# The original CSD entry WAKMAA01 is in the orthorhombic crystal system
# The framework has been calculated to contain at least 10.0% void space
# The void calculation uses a probe of radius 1.32A, grid spacing 0.4
#
###############################################################################

data_WAKMAA01
_chemical_formula_moiety         '(C28 H24 F26 N34 Ti4 Zn12)n'
_symmetry_cell_setting           triclinic
_symmetry_space_group_name_H-M   'P 1'
_symmetry_Int_Tables_number      1
_space_group_name_Hall           'P 1'
loop_
_symmetry_equiv_pos_site_id
_symmetry_equiv_pos_as_xyz
1 x,y,z
_cell_length_a                   17.5556(14)
_cell_length_b                   10.0910(7)
_cell_length_c                   9.9786(7)
_cell_angle_alpha                90
_cell_angle_beta                 90
_cell_angle_gamma                90
_cell_volume                     1767.74
loop_
_atom_site_label
_atom_site_type_symbol
_atom_site_fract_x
_atom_site_fract_y
_atom_site_fract_z
_atom_site_U_iso_or_equiv
_atom_site_thermal_displace_type
Zn1 Zn 0.1414(4) 0.25000 0.3198(10) 0.0139 Uiso
F1 F 0.2618(20) 0.25000 0.357(3) 0.0610 Uiso
N1 N 0.0307(11) 0.25000 0.290(5) 0.0610 Uiso
N2 N 0.1711(9) 0.417(3) 0.2201(13) 0.0610 Uiso
F2 F 0.1247(17) 0.25000 0.5274(17) 0.0610 Uiso
Zn2 Zn 0.3244(3) 0.4233(6) 0.3260(7) 0.0139 Uiso
N3 N 0.2411(8) 0.471(3) 0.2164(11) 0.0610 Uiso
C1 C 0.1427(10) 0.437(4) 0.1059(17) 0.0610 Uiso
F3 F 0.3679(11) 0.5939(16) 0.252(2) 0.0610 Uiso
N4 N 0.4167(6) 0.3167(7) 0.254(3) 0.0610 Uiso
N5 N 0.3110(8) 0.497(4) 0.525(2) 0.0610 Uiso
C2 C 0.2524(7) 0.500(4) 0.0951(14) 0.0610 Uiso
H1 H 0.09313 0.44116 0.09155 0.0610 Uiso
Ti1 Ti 0.4244(4) 0.75000 0.2005(7) 0.0139 Uiso
C3 C 0.4844(7) 0.3502(6) 0.231(5) 0.0610 Uiso
H2 H 0.28067 0.59649 0.08600 0.0610 Uiso
F4 F 0.4970(10) 0.8557(15) 0.1097(19) 0.0610 Uiso
F5 F 0.4812(16) 0.75000 0.3598(19) 0.0610 Uiso
H3 H 0.4989 0.43008 0.18955 0.0610 Uiso
N6 N 0.1711(9) 0.083(3) 0.2201(13) 0.0610 Uiso
Zn3 Zn 0.3244(3) 0.0767(6) 0.3260(7) 0.0139 Uiso
N7 N 0.2411(8) 0.029(3) 0.2164(11) 0.0610 Uiso
C4 C 0.1427(10) 0.063(4) 0.1059(17) 0.0610 Uiso
N8 N 0.4167(6) 0.1833(7) 0.254(3) 0.0610 Uiso
N9 N 0.3110(8) 0.003(4) 0.525(2) 0.0610 Uiso
N10 N 0.1890(8) 0.503(4) 0.025(2) 0.0610 Uiso
C5 C 0.2524(7) 0.000(4) 0.0951(14) 0.0610 Uiso
H4 H 0.09313 0.05884 0.09155 0.0610 Uiso
C6 C 0.4844(7) 0.1498(6) 0.231(5) 0.0610 Uiso
F7 F 0.3753(17) 0.75000 0.0274(17) 0.0610 Uiso
F8 F 0.4970(10) 0.6443(15) 0.1097(19) 0.0610 Uiso
F9 F 0.3679(11) 0.9061(16) 0.252(2) 0.0610 Uiso
N12 N 0.5307(11) 0.25000 0.210(5) 0.0610 Uiso
H6 H 0.4989 0.06992 0.18955 0.0610 Uiso
Zn7 Zn 0.6414(4) 0.25000 0.1802(10) 0.0139 Uiso
Zn4 Zn 0.1756(3) 0.5767(6) 0.8260(7) 0.0139 Uiso
Zn6 Zn 0.3586(4) 0.75000 0.8198(10) 0.0139 Uiso
C5_2 C 0.2524(7) 1.000(4) 0.0951(14) 0.0610 Uiso
N11 N 0.1890(8) 0.997(4) 0.025(2) 0.0610 Uiso
H5 H 0.28067 0.90351 0.08600 0.0610 Uiso
Zn5 Zn 0.1756(3) 0.9233(6) 0.8260(7) 0.0139 Uiso
F1_2 F 0.7618(20) 0.25000 0.143(3) 0.0610 Uiso
N2_2 N 0.6711(9) 0.083(3) 0.2799(13) 0.0610 Uiso
Zn2_2 Zn 0.8244(3) 0.0767(6) 0.1740(7) 0.0139 Uiso
N3_2 N 0.7411(8) 0.029(3) 0.2836(11) 0.0610 Uiso
C1_2 C 0.6427(10) 0.063(4) 0.3941(17) 0.0610 Uiso
N4_2 N 0.9167(6) 0.1833(7) 0.246(3) 0.0610 Uiso
C2_2 C 0.7524(7) 0.000(4) 0.4049(14) 0.0610 Uiso
H1_2 H 0.59313 0.05884 0.40845 0.0610 Uiso
C3_2 C 0.9844(7) 0.1498(6) 0.269(5) 0.0610 Uiso
H3_2 H 0.9989 0.06992 0.31045 0.0610 Uiso
N6_2 N 0.6711(9) 0.417(3) 0.2799(13) 0.0610 Uiso
Zn3_2 Zn 0.8244(3) 0.4233(6) 0.1740(7) 0.0139 Uiso
N7_2 N 0.7411(8) 0.471(3) 0.2836(11) 0.0610 Uiso
C4_2 C 0.6427(10) 0.437(4) 0.3941(17) 0.0610 Uiso
F6 F 0.8679(11) 0.5939(16) 0.248(2) 0.0610 Uiso
N8_2 N 0.9167(6) 0.3167(7) 0.246(3) 0.0610 Uiso
C5_3 C 0.7524(7) 0.500(4) 0.4049(14) 0.0610 Uiso
N11_2 N 0.6890(8) 0.503(4) 0.475(2) 0.0610 Uiso
H4_2 H 0.59313 0.44116 0.40845 0.0610 Uiso
Ti2 Ti 0.9244(4) 0.75000 0.2995(7) 0.0139 Uiso
C6_2 C 0.9844(7) 0.3502(6) 0.269(5) 0.0610 Uiso
H5_2 H 0.78067 0.59649 0.41400 0.0610 Uiso
Zn5_2 Zn 0.6756(3) 0.5767(6) 0.6740(7) 0.0139 Uiso
H6_2 H 0.9989 0.43008 0.31045 0.0610 Uiso
F2_2 F 0.6247(17) 0.25000 0.9726(17) 0.0610 Uiso
N5_2 N 0.8110(8) 0.003(4) 0.975(2) 0.0610 Uiso
N9_2 N 0.8110(8) 0.497(4) 0.975(2) 0.0610 Uiso
F3_2 F 0.8679(11) 0.9061(16) 0.248(2) 0.0610 Uiso
C2_3 C 0.7524(7) 1.000(4) 0.4049(14) 0.0610 Uiso
H2_2 H 0.78067 0.90351 0.41400 0.0610 Uiso
F4_2 F 0.9970(10) 0.6443(15) 0.3903(19) 0.0610 Uiso
F5_2 F 0.9812(16) 0.75000 0.1402(19) 0.0610 Uiso
N10_2 N 0.6890(8) 0.997(4) 0.475(2) 0.0610 Uiso
Zn4_2 Zn 0.6756(3) 0.9233(6) 0.6740(7) 0.0139 Uiso
F7_2 F 0.8753(17) 0.75000 0.4726(17) 0.0610 Uiso
F8_2 F 0.9970(10) 0.8557(15) 0.3903(19) 0.0610 Uiso
Zn6_2 Zn 0.8586(4) 0.75000 0.6802(10) 0.0139 Uiso
F3_3 F 0.6321(11) 0.0939(16) 0.748(2) 0.0610 Uiso
C2_4 C 0.7476(7) 0.000(4) 0.9049(14) 0.0610 Uiso
Ti1_2 Ti 0.5756(4) 0.25000 0.7995(7) 0.0139 Uiso
H2_3 H 0.71933 0.09649 0.91400 0.0610 Uiso
F4_3 F 0.5030(10) 0.3557(15) 0.8903(19) 0.0610 Uiso
F5_3 F 0.5188(16) 0.25000 0.6402(19) 0.0610 Uiso
F8_3 F 0.5030(10) 0.1443(15) 0.8903(19) 0.0610 Uiso
F9_2 F 0.6321(11) 0.4061(16) 0.748(2) 0.0610 Uiso
F1_3 F 0.7382(20) 0.75000 0.643(3) 0.0610 Uiso
N1_2 N 0.9693(11) 0.75000 0.710(5) 0.0610 Uiso
N2_3 N 0.8289(9) 0.917(3) 0.7799(13) 0.0610 Uiso
N3_3 N 0.7589(8) 0.971(3) 0.7836(11) 0.0610 Uiso
C1_3 C 0.8573(10) 0.937(4) 0.8941(17) 0.0610 Uiso
N4_3 N 0.5833(6) 0.8167(7) 0.746(3) 0.0610 Uiso
C2_5 C 0.7476(7) 1.000(4) 0.9049(14) 0.0610 Uiso
H1_3 H 0.90687 0.94116 0.90845 0.0610 Uiso
C3_3 C 0.5156(7) 0.8502(6) 0.769(5) 0.0610 Uiso
H3_3 H 0.5011 0.93008 0.81045 0.0610 Uiso
N6_3 N 0.8289(9) 0.583(3) 0.7799(13) 0.0610 Uiso
N7_3 N 0.7589(8) 0.529(3) 0.7836(11) 0.0610 Uiso
C4_3 C 0.8573(10) 0.563(4) 0.8941(17) 0.0610 Uiso
N8_3 N 0.5833(6) 0.6833(7) 0.746(3) 0.0610 Uiso
C5_4 C 0.7476(7) 0.500(4) 0.9049(14) 0.0610 Uiso
H4_3 H 0.90687 0.55884 0.90845 0.0610 Uiso
C6_3 C 0.5156(7) 0.6498(6) 0.769(5) 0.0610 Uiso
H5_3 H 0.71933 0.40351 0.91400 0.0610 Uiso
N12_2 N 0.4693(11) 0.75000 0.790(5) 0.0610 Uiso
H6_3 H 0.5011 0.56992 0.81045 0.0610 Uiso
F6_2 F 0.1321(11) 0.0939(16) 0.752(2) 0.0610 Uiso
C5_5 C 0.2476(7) 0.000(4) 0.5951(14) 0.0610 Uiso
Ti2_2 Ti 0.0756(4) 0.25000 0.7005(7) 0.0139 Uiso
H5_4 H 0.21933 0.09649 0.58600 0.0610 Uiso
F1_4 F 0.2382(20) 0.75000 0.857(3) 0.0610 Uiso
N2_4 N 0.3289(9) 0.583(3) 0.7201(13) 0.0610 Uiso
N3_4 N 0.2589(8) 0.529(3) 0.7164(11) 0.0610 Uiso
C1_4 C 0.3573(10) 0.563(4) 0.6059(17) 0.0610 Uiso
F3_4 F 0.1321(11) 0.4061(16) 0.752(2) 0.0610 Uiso
N4_4 N 0.0833(6) 0.6833(7) 0.754(3) 0.0610 Uiso
C2_6 C 0.2476(7) 0.500(4) 0.5951(14) 0.0610 Uiso
H1_4 H 0.40687 0.55884 0.59155 0.0610 Uiso
C3_4 C 0.0156(7) 0.6498(6) 0.731(5) 0.0610 Uiso
H2_4 H 0.21933 0.40351 0.58600 0.0610 Uiso
F4_4 F 0.0030(10) 0.1443(15) 0.6097(19) 0.0610 Uiso
F5_4 F 0.0188(16) 0.25000 0.8598(19) 0.0610 Uiso
H3_4 H 0.0011 0.56992 0.68955 0.0610 Uiso
N6_4 N 0.3289(9) 0.917(3) 0.7201(13) 0.0610 Uiso
N7_4 N 0.2589(8) 0.971(3) 0.7164(11) 0.0610 Uiso
C4_4 C 0.3573(10) 0.937(4) 0.6059(17) 0.0610 Uiso
N8_4 N 0.0833(6) 0.8167(7) 0.754(3) 0.0610 Uiso
C5_6 C 0.2476(7) 1.000(4) 0.5951(14) 0.0610 Uiso
H4_4 H 0.40687 0.94116 0.59155 0.0610 Uiso
C6_4 C 0.0156(7) 0.8502(6) 0.731(5) 0.0610 Uiso
F8_4 F 0.0030(10) 0.3557(15) 0.6097(19) 0.0610 Uiso
H6_4 H 0.0011 0.93008 0.68955 0.0610 Uiso
loop_
_geom_bond_atom_site_label_1
_geom_bond_atom_site_label_2
_geom_bond_site_symmetry_1
_geom_bond_site_symmetry_2
Zn1 F1 1_555 1_555
F1 Zn2 1_555 1_555
N1 Zn1 1_555 1_555
N2 Zn1 1_555 1_555
F2 Zn1 1_555 1_555
Zn2 N3 1_555 1_555
N3 N2 1_555 1_555
C1 N2 1_555 1_555
F3 Zn2 1_555 1_555
N4 Zn2 1_555 1_555
N5 Zn2 1_555 1_555
C2 N3 1_555 1_555
H1 C1 1_555 1_555
Ti1 F3 1_555 1_555
C3 N4 1_555 1_555
H2 C2 1_555 1_555
F4 Ti1 1_555 1_555
F5 Ti1 1_555 1_555
H3 C3 1_555 1_555
N6 Zn1 1_555 1_555
Zn3 F1 1_555 1_555
N7 N6 1_555 1_555
C4 N6 1_555 1_555
N8 N4 1_555 1_555
N9 Zn3 1_555 1_555
N10 C1 1_555 1_555
C5 N7 1_555 1_555
H4 C4 1_555 1_555
C6 N8 1_555 1_555
F7 Ti1 1_555 1_555
F8 Ti1 1_555 1_555
F9 Ti1 1_555 1_555
N12 C3 1_555 1_555
H6 C6 1_555 1_555
Zn7 N12 1_555 1_555
C2 N10 1_555 1_555
Zn3 N7 1_555 1_555
Zn3 N8 1_555 1_555
C6 N12 1_555 1_555
H5 C5_2 1_555 1_555
C5_2 N11 1_555 1_555
Zn7 F1_2 1_555 1_555
F1_2 Zn2_2 1_555 1_555
N2_2 Zn7 1_555 1_555
Zn2_2 N3_2 1_555 1_555
N3_2 N2_2 1_555 1_555
C1_2 N2_2 1_555 1_555
N4_2 Zn2_2 1_555 1_555
C2_2 N3_2 1_555 1_555
H1_2 C1_2 1_555 1_555
C3_2 N4_2 1_555 1_555
H3_2 C3_2 1_555 1_555
N6_2 Zn7 1_555 1_555
Zn3_2 F1_2 1_555 1_555
N7_2 N6_2 1_555 1_555
C4_2 N6_2 1_555 1_555
F6 Zn3_2 1_555 1_555
N8_2 N4_2 1_555 1_555
C5_3 N7_2 1_555 1_555
N11_2 C4_2 1_555 1_555
H4_2 C4_2 1_555 1_555
Ti2 F6 1_555 1_555
C6_2 N8_2 1_555 1_555
H5_2 C5_3 1_555 1_555
Zn5_2 N11_2 1_555 1_555
H6_2 C6_2 1_555 1_555
Zn3_2 N7_2 1_555 1_555
Zn3_2 N8_2 1_555 1_555
C5_3 N11_2 1_555 1_555
Ti2 F3_2 1_555 1_555
H2_2 C2_3 1_555 1_555
F4_2 Ti2 1_555 1_555
F5_2 Ti2 1_555 1_555
Zn4_2 N10_2 1_555 1_555
F7_2 Ti2 1_555 1_555
F8_2 Ti2 1_555 1_555
Zn6_2 F7_2 1_555 1_555
C2_3 N10_2 1_555 1_555
Ti1_2 F3_3 1_555 1_555
H2_3 C2_4 1_555 1_555
F4_3 Ti1_2 1_555 1_555
F5_3 Ti1_2 1_555 1_555
F2_2 Ti1_2 1_555 1_555
F8_3 Ti1_2 1_555 1_555
F9_2 Ti1_2 1_555 1_555
C2_4 N5_2 1_555 1_555
Zn6_2 F1_3 1_555 1_555
F1_3 Zn4_2 1_555 1_555
N1_2 Zn6_2 1_555 1_555
N2_3 Zn6_2 1_555 1_555
Zn4_2 N3_3 1_555 1_555
N3_3 N2_3 1_555 1_555
C1_3 N2_3 1_555 1_555
N4_3 Zn4_2 1_555 1_555
C2_5 N3_3 1_555 1_555
H1_3 C1_3 1_555 1_555
C3_3 N4_3 1_555 1_555
H3_3 C3_3 1_555 1_555
N6_3 Zn6_2 1_555 1_555
Zn5_2 F1_3 1_555 1_555
N7_3 N6_3 1_555 1_555
C4_3 N6_3 1_555 1_555
F9_2 Zn5_2 1_555 1_555
N8_3 N4_3 1_555 1_555
C5_4 N7_3 1_555 1_555
N9_2 C4_3 1_555 1_555
H4_3 C4_3 1_555 1_555
C6_3 N8_3 1_555 1_555
H5_3 C5_4 1_555 1_555
N12_2 C3_3 1_555 1_555
H6_3 C6_3 1_555 1_555
Zn6 N12_2 1_555 1_555
Zn5_2 N7_3 1_555 1_555
Zn5_2 N8_3 1_555 1_555
C5_4 N9_2 1_555 1_555
C6_3 N12_2 1_555 1_555
Ti2_2 F6_2 1_555 1_555
H5_4 C5_5 1_555 1_555
C5_5 N9 1_555 1_555
Zn6 F1_4 1_555 1_555
F1_4 Zn4 1_555 1_555
N2_4 Zn6 1_555 1_555
Zn4 N3_4 1_555 1_555
N3_4 N2_4 1_555 1_555
C1_4 N2_4 1_555 1_555
F3_4 Zn4 1_555 1_555
N4_4 Zn4 1_555 1_555
C2_6 N3_4 1_555 1_555
H1_4 C1_4 1_555 1_555
Ti2_2 F3_4 1_555 1_555
C3_4 N4_4 1_555 1_555
H2_4 C2_6 1_555 1_555
F4_4 Ti2_2 1_555 1_555
F5_4 Ti2_2 1_555 1_555
H3_4 C3_4 1_555 1_555
N6_4 Zn6 1_555 1_555
Zn5 F1_4 1_555 1_555
N7_4 N6_4 1_555 1_555
C4_4 N6_4 1_555 1_555
N8_4 N4_4 1_555 1_555
N5 C1_4 1_555 1_555
C5_6 N7_4 1_555 1_555
H4_4 C4_4 1_555 1_555
C6_4 N8_4 1_555 1_555
F2 Ti2_2 1_555 1_555
F8_4 Ti2_2 1_555 1_555
H6_4 C6_4 1_555 1_555
C2_6 N5 1_555 1_555
Zn5 N7_4 1_555 1_555
Zn5 N8_4 1_555 1_555

#END
