
###############################################################################
#
# This file contains modified crystal structure data generated from the
# MOF subset of the Cambridge Structural Database (CSD) v543 
# hosted by the Cambridge Crystallographic Data Centre (CCDC).
#
# This work is licensed under the Creative Commons
# Attribution-NonCommercial-ShareAlike 4.0 International License.
# To view a copy of this license, visit
# http://creativecommons.org/licenses/by-nc-sa/4.0/
# or send a letter to
# Creative Commons, PO Box 1866, Mountain View, CA 94042, USA.
#
# CIF created using the CSD Python API on 29 September 2022
# The structure has been converted into the P1 space group
# The structure has a 3D framework
# The original CSD entry WAKMII is in the orthorhombic crystal system
# The framework has been calculated to contain at least 10.0% void space
# The void calculation uses a probe of radius 1.32A, grid spacing 0.4
#
###############################################################################

data_WAKMII
_chemical_formula_moiety         '(C24 H40 F26 N32 O8 Ti4 Zn12)n'
_symmetry_cell_setting           triclinic
_symmetry_space_group_name_H-M   'P 1'
_symmetry_Int_Tables_number      1
_space_group_name_Hall           'P 1'
loop_
_symmetry_equiv_pos_site_id
_symmetry_equiv_pos_as_xyz
1 x,y,z
_cell_length_a                   17.3542(6)
_cell_length_b                   9.9387(4)
_cell_length_c                   11.2606(4)
_cell_angle_alpha                90
_cell_angle_beta                 90
_cell_angle_gamma                90
_cell_volume                     1942.21
loop_
_atom_site_label
_atom_site_type_symbol
_atom_site_fract_x
_atom_site_fract_y
_atom_site_fract_z
_atom_site_U_iso_or_equiv
_atom_site_thermal_displace_type
Zn1 Zn 0.1256(2) 0.25000 0.2761(3) 0.0228 Uiso
Zn2 Zn 0.29567(15) 0.42985(20) 0.33396(19) 0.0204 Uiso
Ti1 Ti 0.4418(3) 0.75000 0.2463(5) 0.0272 Uiso
F1 F 0.2412(6) 0.25000 0.3515(11) 0.0343 Uiso
F2 F 0.3718(5) 0.6066(7) 0.2862(6) 0.0343 Uiso
F3 F 0.4016(6) 0.75000 0.0983(10) 0.0343 Uiso
F4 F 0.5152(5) 0.8782(6) 0.1858(7) 0.0343 Uiso
F5 F 0.4865(7) 0.75000 0.3912(9) 0.0343 Uiso
O1 O 0.0942(5) 0.4100(10) 0.4044(7) 0.0343 Uiso
H1 H 0.08300 0.49761 0.40511 0.0343 Uiso
H2 H 0.05554 0.36795 0.45871 0.0343 Uiso
N2 N 0.01855(16) 0.25000 0.1921(17) 0.0340 Uiso
N3 N 0.2331(4) 0.4662(10) 0.1817(3) 0.0340 Uiso
N4 N 0.1645(3) 0.3987(10) 0.1652(2) 0.0340 Uiso
C2 C 0.1554(5) 0.4252(13) 0.0484(3) 0.0340 Uiso
C3 C 0.2578(5) 0.5343(12) 0.0852(4) 0.0340 Uiso
H4 H 0.10699 0.39572 0.00702 0.0340 Uiso
H5 H 0.30024 0.58617 0.07952 0.0340 Uiso
Zn3 Zn 0.29567(15) 0.07015(20) 0.33396(19) 0.0204 Uiso
O2 O 0.0942(5) 0.0900(10) 0.4044(7) 0.0343 Uiso
H7 H 0.08300 0.00239 0.40511 0.0343 Uiso
H8 H 0.05554 0.13205 0.45871 0.0343 Uiso
N7 N 0.2331(4) 0.0338(10) 0.1817(3) 0.0340 Uiso
N8 N 0.1645(3) 0.1013(10) 0.1652(2) 0.0340 Uiso
C5 C 0.1554(5) 0.0748(13) 0.0484(3) 0.0340 Uiso
H9 H 0.10699 0.10428 0.00702 0.0340 Uiso
F7 F 0.5152(5) 0.6218(6) 0.1858(7) 0.0343 Uiso
F8 F 0.3718(5) 0.8934(7) 0.2862(6) 0.0343 Uiso
N10 N 0.39501(12) 0.180574(7) 0.3175(10) 0.0340 Uiso
N11 N 0.39501(12) 0.319426(7) 0.3175(10) 0.0340 Uiso
N12 N 0.2906(4) 0.4975(11) 0.4957(2) 0.0340 Uiso
N13 N 0.2906(4) 0.0025(11) 0.4957(2) 0.0340 Uiso
N5 N 0.2094(4) 0.5025(11) 0.9957(2) 0.0340 Uiso
Zn5 Zn 0.20433(15) 0.57015(20) 0.83396(19) 0.0204 Uiso
C6 C 0.2578(5) 0.9657(12) 0.0852(4) 0.0340 Uiso
H10 H 0.30024 0.91383 0.07952 0.0340 Uiso
N9 N 0.2094(4) 0.9975(11) 0.9957(2) 0.0340 Uiso
Zn6 Zn 0.20433(15) 0.92985(20) 0.83396(19) 0.0204 Uiso
N1 N 0.89501(12) 0.319426(7) 0.1825(10) 0.0340 Uiso
C1 C 0.96906(12) 0.3541(4) 0.2029(15) 0.0340 Uiso
H3 H 0.9844 0.44324 0.19877 0.0340 Uiso
N6 N 0.89501(12) 0.180574(7) 0.1825(10) 0.0340 Uiso
C4 C 0.96906(12) 0.1459(4) 0.2029(15) 0.0340 Uiso
H6 H 0.9844 0.05676 0.19877 0.0340 Uiso
Zn4 Zn 0.79567(15) 0.07015(20) 0.16604(19) 0.0204 Uiso
Zn7 Zn 0.79567(15) 0.42985(20) 0.16604(19) 0.0204 Uiso
Zn1_2 Zn 0.6256(2) 0.25000 0.2239(3) 0.0228 Uiso
F1_2 F 0.7412(6) 0.25000 0.1485(11) 0.0343 Uiso
O1_2 O 0.5942(5) 0.0900(10) 0.0956(7) 0.0343 Uiso
H1_2 H 0.58300 0.00239 0.09489 0.0343 Uiso
H2_2 H 0.55554 0.13205 0.04129 0.0343 Uiso
C1_2 C 0.46906(12) 0.1459(4) 0.2971(15) 0.0340 Uiso
N2_2 N 0.51855(16) 0.25000 0.3079(17) 0.0340 Uiso
N3_2 N 0.7331(4) 0.0338(10) 0.3183(3) 0.0340 Uiso
N4_2 N 0.6645(3) 0.1013(10) 0.3348(2) 0.0340 Uiso
C2_2 C 0.6554(5) 0.0748(13) 0.4516(3) 0.0340 Uiso
H3_2 H 0.4844 0.05676 0.30123 0.0340 Uiso
H4_2 H 0.60699 0.10428 0.49298 0.0340 Uiso
C4_2 C 0.46906(12) 0.3541(4) 0.2971(15) 0.0340 Uiso
H6_2 H 0.4844 0.44324 0.30123 0.0340 Uiso
F6 F 0.8718(5) 0.6066(7) 0.2138(6) 0.0343 Uiso
O2_2 O 0.5942(5) 0.4100(10) 0.0956(7) 0.0343 Uiso
H7_2 H 0.58300 0.49761 0.09489 0.0343 Uiso
H8_2 H 0.55554 0.36795 0.04129 0.0343 Uiso
N7_2 N 0.7331(4) 0.4662(10) 0.3183(3) 0.0340 Uiso
N8_2 N 0.6645(3) 0.3987(10) 0.3348(2) 0.0340 Uiso
C5_2 C 0.6554(5) 0.4252(13) 0.4516(3) 0.0340 Uiso
C6_2 C 0.7578(5) 0.5343(12) 0.4148(4) 0.0340 Uiso
N9_2 N 0.7094(4) 0.5025(11) 0.5043(2) 0.0340 Uiso
H9_2 H 0.60699 0.39572 0.49298 0.0340 Uiso
H10_2 H 0.80024 0.58617 0.42048 0.0340 Uiso
Zn6_2 Zn 0.70433(15) 0.57015(20) 0.66604(19) 0.0204 Uiso
Ti2 Ti 0.9418(3) 0.75000 0.2537(5) 0.0272 Uiso
N12_2 N 0.7906(4) 0.0025(11) 0.0043(2) 0.0340 Uiso
N13_2 N 0.7906(4) 0.4975(11) 0.0043(2) 0.0340 Uiso
F2_2 F 0.8718(5) 0.8934(7) 0.2138(6) 0.0343 Uiso
F3_2 F 0.9016(6) 0.75000 0.4017(10) 0.0343 Uiso
F5_2 F 0.9865(7) 0.75000 0.1088(9) 0.0343 Uiso
C3_2 C 0.7578(5) 0.9657(12) 0.4148(4) 0.0340 Uiso
N5_2 N 0.7094(4) 0.9975(11) 0.5043(2) 0.0340 Uiso
H5_2 H 0.80024 0.91383 0.42048 0.0340 Uiso
Zn5_2 Zn 0.70433(15) 0.92985(20) 0.66604(19) 0.0204 Uiso
N1_2 N 0.10499(12) 0.819426(7) 0.8175(10) 0.0340 Uiso
C1_3 C 0.03094(12) 0.8541(4) 0.7971(15) 0.0340 Uiso
H3_3 H 0.0156 0.94324 0.80123 0.0340 Uiso
N6_2 N 0.10499(12) 0.680574(7) 0.8175(10) 0.0340 Uiso
C4_3 C 0.03094(12) 0.6459(4) 0.7971(15) 0.0340 Uiso
H6_3 H 0.0156 0.55676 0.80123 0.0340 Uiso
Ti1_2 Ti 0.5582(3) 0.25000 0.7537(5) 0.0272 Uiso
F2_3 F 0.6282(5) 0.1066(7) 0.7138(6) 0.0343 Uiso
F3_3 F 0.5984(6) 0.25000 0.9017(10) 0.0343 Uiso
F4_2 F 0.4848(5) 0.3782(6) 0.8142(7) 0.0343 Uiso
F5_3 F 0.5135(7) 0.25000 0.6088(9) 0.0343 Uiso
C3_3 C 0.7422(5) 0.0343(12) 0.9148(4) 0.0340 Uiso
H5_3 H 0.69976 0.08617 0.92048 0.0340 Uiso
F7_2 F 0.4848(5) 0.1218(6) 0.8142(7) 0.0343 Uiso
F8_2 F 0.6282(5) 0.3934(7) 0.7138(6) 0.0343 Uiso
Zn1_3 Zn 0.8744(2) 0.75000 0.7239(3) 0.0228 Uiso
F1_3 F 0.7588(6) 0.75000 0.6485(11) 0.0343 Uiso
O1_3 O 0.9058(5) 0.9100(10) 0.5956(7) 0.0343 Uiso
H1_3 H 0.91700 0.99761 0.59489 0.0343 Uiso
H2_3 H 0.94446 0.86795 0.54129 0.0343 Uiso
N2_3 N 0.98145(16) 0.75000 0.8079(17) 0.0340 Uiso
N3_3 N 0.7669(4) 0.9662(10) 0.8183(3) 0.0340 Uiso
N4_3 N 0.8355(3) 0.8987(10) 0.8348(2) 0.0340 Uiso
C2_3 C 0.8446(5) 0.9252(13) 0.9516(3) 0.0340 Uiso
H4_3 H 0.89301 0.89572 0.99298 0.0340 Uiso
O2_3 O 0.9058(5) 0.5900(10) 0.5956(7) 0.0343 Uiso
H7_3 H 0.91700 0.50239 0.59489 0.0343 Uiso
H8_3 H 0.94446 0.63205 0.54129 0.0343 Uiso
N7_3 N 0.7669(4) 0.5338(10) 0.8183(3) 0.0340 Uiso
N8_3 N 0.8355(3) 0.6013(10) 0.8348(2) 0.0340 Uiso
C5_3 C 0.8446(5) 0.5748(13) 0.9516(3) 0.0340 Uiso
C6_3 C 0.7422(5) 0.4657(12) 0.9148(4) 0.0340 Uiso
H9_3 H 0.89301 0.60428 0.99298 0.0340 Uiso
H10_3 H 0.69976 0.41383 0.92048 0.0340 Uiso
N10_2 N 0.60499(12) 0.680574(7) 0.6825(10) 0.0340 Uiso
N11_2 N 0.60499(12) 0.819426(7) 0.6825(10) 0.0340 Uiso
F6_2 F 0.1282(5) 0.1066(7) 0.7862(6) 0.0343 Uiso
C6_4 C 0.2422(5) 0.0343(12) 0.5852(4) 0.0340 Uiso
H10_4 H 0.19976 0.08617 0.57952 0.0340 Uiso
Ti2_2 Ti 0.0582(3) 0.25000 0.7463(5) 0.0272 Uiso
Zn1_4 Zn 0.3744(2) 0.75000 0.7761(3) 0.0228 Uiso
F1_4 F 0.2588(6) 0.75000 0.8515(11) 0.0343 Uiso
F2_4 F 0.1282(5) 0.3934(7) 0.7862(6) 0.0343 Uiso
F3_4 F 0.0984(6) 0.25000 0.5983(10) 0.0343 Uiso
F5_4 F 0.0135(7) 0.25000 0.8912(9) 0.0343 Uiso
O1_4 O 0.4058(5) 0.5900(10) 0.9044(7) 0.0343 Uiso
H1_4 H 0.41700 0.50239 0.90511 0.0343 Uiso
H2_4 H 0.44446 0.63205 0.95871 0.0343 Uiso
C1_4 C 0.53094(12) 0.6459(4) 0.7029(15) 0.0340 Uiso
N2_4 N 0.48145(16) 0.75000 0.6921(17) 0.0340 Uiso
N3_4 N 0.2669(4) 0.5338(10) 0.6817(3) 0.0340 Uiso
N4_4 N 0.3355(3) 0.6013(10) 0.6652(2) 0.0340 Uiso
C2_4 C 0.3446(5) 0.5748(13) 0.5484(3) 0.0340 Uiso
C3_4 C 0.2422(5) 0.4657(12) 0.5852(4) 0.0340 Uiso
H3_4 H 0.5156 0.55676 0.69877 0.0340 Uiso
H4_4 H 0.39301 0.60428 0.50702 0.0340 Uiso
H5_4 H 0.19976 0.41383 0.57952 0.0340 Uiso
C4_4 C 0.53094(12) 0.8541(4) 0.7029(15) 0.0340 Uiso
H6_4 H 0.5156 0.94324 0.69877 0.0340 Uiso
O2_4 O 0.4058(5) 0.9100(10) 0.9044(7) 0.0343 Uiso
H7_4 H 0.41700 0.99761 0.90511 0.0343 Uiso
H8_4 H 0.44446 0.86795 0.95871 0.0343 Uiso
N7_4 N 0.2669(4) 0.9662(10) 0.6817(3) 0.0340 Uiso
N8_4 N 0.3355(3) 0.8987(10) 0.6652(2) 0.0340 Uiso
C5_4 C 0.3446(5) 0.9252(13) 0.5484(3) 0.0340 Uiso
H9_4 H 0.39301 0.89572 0.50702 0.0340 Uiso
F4_3 F 0.0152(5) 0.6218(6) 0.3142(7) 0.0343 Uiso
F7_3 F 0.0152(5) 0.8782(6) 0.3142(7) 0.0343 Uiso
F4_4 F 0.9848(5) 0.1218(6) 0.6858(7) 0.0343 Uiso
F7_4 F 0.9848(5) 0.3782(6) 0.6858(7) 0.0343 Uiso
loop_
_geom_bond_atom_site_label_1
_geom_bond_atom_site_label_2
_geom_bond_site_symmetry_1
_geom_bond_site_symmetry_2
Zn1 F1 1_555 1_555
Zn2 F1 1_555 1_555
Ti1 F2 1_555 1_555
F1 Zn3 1_555 1_555
F2 Zn2 1_555 1_555
F3 Ti1 1_555 1_555
F4 Ti1 1_555 1_555
F5 Ti1 1_555 1_555
O1 Zn1 1_555 1_555
H1 O1 1_555 1_555
H2 O1 1_555 1_555
N2 Zn1 1_555 1_555
N3 Zn2 1_555 1_555
N4 Zn1 1_555 1_555
C2 N4 1_555 1_555
C3 N3 1_555 1_555
H4 C2 1_555 1_555
H5 C3 1_555 1_555
O2 Zn1 1_555 1_555
H7 O2 1_555 1_555
H8 O2 1_555 1_555
N7 Zn3 1_555 1_555
N8 Zn1 1_555 1_555
C5 N8 1_555 1_555
H9 C5 1_555 1_555
F7 Ti1 1_555 1_555
F8 Ti1 1_555 1_555
N10 Zn3 1_555 1_555
N11 Zn2 1_555 1_555
N12 Zn2 1_555 1_555
N13 Zn3 1_555 1_555
N3 N4 1_555 1_555
N7 N8 1_555 1_555
N10 N11 1_555 1_555
Zn5 N5 1_555 1_555
H10 C6 1_555 1_555
Zn6 N9 1_555 1_555
N1 C1 1_555 1_555
H3 C1 1_555 1_555
N6 N1 1_555 1_555
H6 C4 1_555 1_555
Zn4 N6 1_555 1_555
Zn7 N1 1_555 1_555
N6 C4 1_555 1_555
Zn1_2 F1_2 1_555 1_555
Zn4 F1_2 1_555 1_555
F1_2 Zn7 1_555 1_555
O1_2 Zn1_2 1_555 1_555
H1_2 O1_2 1_555 1_555
H2_2 O1_2 1_555 1_555
N10 C1_2 1_555 1_555
C1_2 N2_2 1_555 1_555
N2_2 Zn1_2 1_555 1_555
N3_2 Zn4 1_555 1_555
N4_2 Zn1_2 1_555 1_555
C2_2 N4_2 1_555 1_555
H3_2 C1_2 1_555 1_555
H4_2 C2_2 1_555 1_555
C4_2 N2_2 1_555 1_555
H6_2 C4_2 1_555 1_555
Zn7 F6 1_555 1_555
F6 Ti2 1_555 1_555
O2_2 Zn1_2 1_555 1_555
H7_2 O2_2 1_555 1_555
H8_2 O2_2 1_555 1_555
N7_2 Zn7 1_555 1_555
N8_2 Zn1_2 1_555 1_555
C5_2 N8_2 1_555 1_555
C6_2 N7_2 1_555 1_555
N9_2 C5_2 1_555 1_555
H9_2 C5_2 1_555 1_555
H10_2 C6_2 1_555 1_555
Zn6_2 N9_2 1_555 1_555
N12_2 Zn4 1_555 1_555
N13_2 Zn7 1_555 1_555
N3_2 N4_2 1_555 1_555
N11 C4_2 1_555 1_555
N7_2 N8_2 1_555 1_555
C6_2 N9_2 1_555 1_555
Ti2 F2_2 1_555 1_555
F3_2 Ti2 1_555 1_555
F5_2 Ti2 1_555 1_555
H5_2 C3_2 1_555 1_555
Zn5_2 N5_2 1_555 1_555
C3_2 N5_2 1_555 1_555
N1_2 C1_3 1_555 1_555
H3_3 C1_3 1_555 1_555
N6_2 N1_2 1_555 1_555
H6_3 C4_3 1_555 1_555
Zn5 N6_2 1_555 1_555
Zn6 N1_2 1_555 1_555
N6_2 C4_3 1_555 1_555
Ti1_2 F2_3 1_555 1_555
F3_3 Ti1_2 1_555 1_555
F4_2 Ti1_2 1_555 1_555
F5_3 Ti1_2 1_555 1_555
H5_3 C3_3 1_555 1_555
F7_2 Ti1_2 1_555 1_555
F8_2 Ti1_2 1_555 1_555
Zn1_3 F1_3 1_555 1_555
Zn5_2 F1_3 1_555 1_555
F1_3 Zn6_2 1_555 1_555
O1_3 Zn1_3 1_555 1_555
H1_3 O1_3 1_555 1_555
H2_3 O1_3 1_555 1_555
N2_3 Zn1_3 1_555 1_555
N3_3 Zn5_2 1_555 1_555
N4_3 Zn1_3 1_555 1_555
C2_3 N4_3 1_555 1_555
H4_3 C2_3 1_555 1_555
Zn6_2 F8_2 1_555 1_555
O2_3 Zn1_3 1_555 1_555
H7_3 O2_3 1_555 1_555
H8_3 O2_3 1_555 1_555
N7_3 Zn6_2 1_555 1_555
N8_3 Zn1_3 1_555 1_555
C5_3 N8_3 1_555 1_555
C6_3 N7_3 1_555 1_555
H9_3 C5_3 1_555 1_555
H10_3 C6_3 1_555 1_555
N10_2 Zn6_2 1_555 1_555
N11_2 Zn5_2 1_555 1_555
N3_3 N4_3 1_555 1_555
N7_3 N8_3 1_555 1_555
N10_2 N11_2 1_555 1_555
F6_2 Ti2_2 1_555 1_555
H10_4 C6_4 1_555 1_555
C6_4 N13 1_555 1_555
Zn1_4 F1_4 1_555 1_555
Zn5 F1_4 1_555 1_555
Ti2_2 F2_4 1_555 1_555
F1_4 Zn6 1_555 1_555
F2_4 Zn5 1_555 1_555
F3_4 Ti2_2 1_555 1_555
F5_4 Ti2_2 1_555 1_555
O1_4 Zn1_4 1_555 1_555
H1_4 O1_4 1_555 1_555
H2_4 O1_4 1_555 1_555
N10_2 C1_4 1_555 1_555
C1_4 N2_4 1_555 1_555
N2_4 Zn1_4 1_555 1_555
N3_4 Zn5 1_555 1_555
N4_4 Zn1_4 1_555 1_555
C2_4 N4_4 1_555 1_555
C3_4 N3_4 1_555 1_555
N12 C2_4 1_555 1_555
H3_4 C1_4 1_555 1_555
H4_4 C2_4 1_555 1_555
H5_4 C3_4 1_555 1_555
C4_4 N2_4 1_555 1_555
H6_4 C4_4 1_555 1_555
O2_4 Zn1_4 1_555 1_555
H7_4 O2_4 1_555 1_555
H8_4 O2_4 1_555 1_555
N7_4 Zn6 1_555 1_555
N8_4 Zn1_4 1_555 1_555
C5_4 N8_4 1_555 1_555
H9_4 C5_4 1_555 1_555
N3_4 N4_4 1_555 1_555
C3_4 N12 1_555 1_555
N11_2 C4_4 1_555 1_555
N7_4 N8_4 1_555 1_555

#END
