
###############################################################################
#
# This file contains modified crystal structure data generated from the
# MOF subset of the Cambridge Structural Database (CSD) v543 
# hosted by the Cambridge Crystallographic Data Centre (CCDC).
#
# This work is licensed under the Creative Commons
# Attribution-NonCommercial-ShareAlike 4.0 International License.
# To view a copy of this license, visit
# http://creativecommons.org/licenses/by-nc-sa/4.0/
# or send a letter to
# Creative Commons, PO Box 1866, Mountain View, CA 94042, USA.
#
# CIF created using the CSD Python API on 29 September 2022
# The structure has been converted into the P1 space group
# The structure has a 3D framework
# The original CSD entry WALBOC02 is in the orthorhombic crystal system
# The framework has been calculated to contain at least 10.0% void space
# The void calculation uses a probe of radius 1.32A, grid spacing 0.4
#
###############################################################################

data_WALBOC02
_chemical_formula_moiety         '(C48 H48 N64 O32 Zn14)n'
_symmetry_cell_setting           triclinic
_symmetry_space_group_name_H-M   'P 1'
_symmetry_Int_Tables_number      1
_space_group_name_Hall           'P 1'
loop_
_symmetry_equiv_pos_site_id
_symmetry_equiv_pos_as_xyz
1 x,y,z
_cell_length_a                   13.7971(2)
_cell_length_b                   12.9591(2)
_cell_length_c                   16.8153(2)
_cell_angle_alpha                90
_cell_angle_beta                 90
_cell_angle_gamma                90
_cell_volume                     3006.54
loop_
_atom_site_label
_atom_site_type_symbol
_atom_site_fract_x
_atom_site_fract_y
_atom_site_fract_z
N9 N 0.05283(17) 0.6271(2) 0.00860(14)
Zn1 Zn 0.02246(2) 0.57335(3) 0.59608(2)
Zn2 Zn 0.09286(2) 0.52340(3) 0.92390(2)
C2 C 0.0909(2) 0.5276(3) 0.75358(19)
O2 O 0.10947(18) 0.5175(2) 0.68131(14)
O4 O 0.14516(16) 0.4975(2) 0.80829(13)
C4 C 0.0805(2) 0.7779(2) 0.52182(18)
H1 H 0.1366 0.7482 0.4984
N1 N 0.02147(18) 0.7263(2) 0.57200(15)
N2 N 0.05283(17) 0.8729(2) 0.50860(14)
Zn4 Zn 0.09286(2) 0.97660(3) 0.42390(2)
N10 N 0.03140(17) 0.3864(2) 0.94764(15)
N11 N 0.12399(17) 0.5233(2) 0.51537(15)
N12 N 0.23682(17) 0.5052(2) 0.95276(15)
Zn5 Zn 0.90714(2) 0.02340(3) 0.57610(2)
C1 C 0.9940(2) 0.5765(3) 0.77695(19)
O1 O 0.94175(18) 0.6053(2) 0.72076(14)
O3 O 0.97710(17) 0.5828(2) 0.85011(14)
C3 C 0.9525(2) 0.7977(2) 0.58901(18)
C5 C 0.7796(2) 0.4731(3) 0.48008(19)
C6 C 0.8120(2) 0.5284(3) 0.59431(18)
H2 H 0.8050 0.5534 0.6471
N3 N 0.96860(17) 0.8864(2) 0.55236(15)
N4 N 0.8744(2) 0.7790(2) 0.6361(2)
H3 H 0.8307 0.8275 0.6437
H4 H 0.8675 0.7183 0.6590
N5 N 0.87601(17) 0.4767(2) 0.48463(15)
N6 N 0.89592(17) 0.5133(2) 0.56040(15)
N7 N 0.73682(17) 0.5052(2) 0.54724(15)
N8 N 0.7304(2) 0.4363(3) 0.41629(18)
H5 H 0.7622 0.4129 0.3747
H6 H 0.6666 0.4358 0.4165
Zn3 Zn 0.97754(2) 0.42665(3) 0.40392(2)
Zn6 Zn 0.59286(2) 0.52340(3) 0.57610(2)
Zn1_2 Zn 0.47754(2) 0.42665(3) 0.09608(2)
Zn2_2 Zn 0.40714(2) 0.47660(3) 0.42390(2)
C1_2 C 0.5060(2) 0.4235(3) 0.27695(19)
C2_2 C 0.4091(2) 0.4724(3) 0.25358(19)
O1_2 O 0.55825(18) 0.3947(2) 0.22076(14)
O2_2 O 0.39053(18) 0.4825(2) 0.18131(14)
O3_2 O 0.52290(17) 0.4172(2) 0.35011(14)
O4_2 O 0.35484(16) 0.5025(2) 0.30829(13)
C3_2 C 0.5475(2) 0.2023(2) 0.08901(18)
C4_2 C 0.4195(2) 0.2221(2) 0.02182(18)
C6_2 C 0.6880(2) 0.4716(3) 0.09431(18)
H2_2 H 0.6950 0.4466 0.1471
N1_2 N 0.47853(18) 0.2737(2) 0.07200(15)
N2_2 N 0.44717(17) 0.1271(2) 0.00860(14)
N3_2 N 0.53140(17) 0.1136(2) 0.05236(15)
N4_2 N 0.6256(2) 0.2210(2) 0.1361(2)
H3_2 H 0.6693 0.1725 0.1437
H4_2 H 0.6325 0.2817 0.1590
N6_2 N 0.60408(17) 0.4867(2) 0.06040(15)
N7_2 N 0.76318(17) 0.4948(2) 0.04724(15)
Zn6_2 Zn 0.90714(2) 0.47660(3) 0.07610(2)
N9_2 N 0.44717(17) 0.3729(2) 0.50860(14)
N10_2 N 0.46860(17) 0.6136(2) 0.44764(15)
N11_2 N 0.37601(17) 0.4767(2) 0.01537(15)
N12_2 N 0.26318(17) 0.4948(2) 0.45276(15)
H1_2 H 0.3634 0.2518 0.9984
C5_2 C 0.7204(2) 0.5269(3) 0.98008(19)
N5_2 N 0.62399(17) 0.5233(2) 0.98463(15)
N8_2 N 0.7696(2) 0.5637(3) 0.91629(18)
H5_2 H 0.7378 0.5871 0.8747
H6_2 H 0.8334 0.5642 0.9165
Zn3_2 Zn 0.52246(2) 0.57335(3) 0.90392(2)
Zn4_2 Zn 0.40714(2) 0.02340(3) 0.92390(2)
Zn5_2 Zn 0.59286(2) 0.97660(3) 0.07610(2)
C1_3 C 0.0060(2) 0.0765(3) 0.72305(19)
O1_3 O 0.05825(18) 0.1053(2) 0.77924(14)
O3_3 O 0.02290(17) 0.0828(2) 0.64989(14)
C3_3 C 0.0475(2) 0.2977(2) 0.91099(18)
C6_3 C 0.1880(2) 0.0284(3) 0.90569(18)
H2_3 H 0.1950 0.0534 0.8529
N4_3 N 0.1256(2) 0.2790(2) 0.8639(2)
H3_3 H 0.1693 0.3275 0.8563
H4_3 H 0.1325 0.2183 0.8410
N6_3 N 0.10408(17) 0.0133(2) 0.93960(15)
N7_3 N 0.26318(17) 0.0052(2) 0.95276(15)
C5_3 C 0.2204(2) 0.9731(3) 0.01992(19)
N5_3 N 0.12399(17) 0.9767(2) 0.01537(15)
N8_3 N 0.2696(2) 0.9363(3) 0.08371(18)
H5_3 H 0.2378 0.9129 0.1253
H6_3 H 0.3334 0.9358 0.0835
Zn3_3 Zn 0.02246(2) 0.92665(3) 0.09608(2)
H1_3 H 0.8634 0.2482 0.0016
Zn1_3 Zn 0.97754(2) 0.07335(3) 0.90392(2)
C2_3 C 0.9091(2) 0.0276(3) 0.74642(19)
O2_3 O 0.89053(18) 0.0175(2) 0.81869(14)
C4_3 C 0.9195(2) 0.2779(2) 0.97818(18)
N1_3 N 0.97853(18) 0.2263(2) 0.92800(15)
N2_3 N 0.94717(17) 0.3729(2) 0.99140(14)
N9_3 N 0.94717(17) 0.1271(2) 0.49140(14)
N11_3 N 0.87601(17) 0.0233(2) 0.98463(15)
N12_3 N 0.76318(17) 0.0052(2) 0.54724(15)
O4_3 O 0.85484(16) 0.9975(2) 0.69171(13)
O4_4 O 0.64516(16) 0.0025(2) 0.19171(13)
C5_4 C 0.2796(2) 0.0269(3) 0.51992(19)
N5_4 N 0.37601(17) 0.0233(2) 0.51537(15)
N8_4 N 0.2304(2) 0.0637(3) 0.58371(18)
H5_4 H 0.2622 0.0871 0.6253
H6_4 H 0.1666 0.0642 0.5835
Zn3_4 Zn 0.47754(2) 0.07335(3) 0.59608(2)
Zn1_4 Zn 0.52246(2) 0.92665(3) 0.40392(2)
C1_4 C 0.4940(2) 0.9235(3) 0.22305(19)
C2_4 C 0.5909(2) 0.9724(3) 0.24642(19)
O1_4 O 0.44175(18) 0.8947(2) 0.27924(14)
O2_4 O 0.60947(18) 0.9825(2) 0.31869(14)
O3_4 O 0.47710(17) 0.9172(2) 0.14989(14)
C3_4 C 0.4525(2) 0.7023(2) 0.41099(18)
C4_4 C 0.5805(2) 0.7221(2) 0.47818(18)
H1_4 H 0.6366 0.7518 0.5016
C6_4 C 0.3120(2) 0.9716(3) 0.40569(18)
H2_4 H 0.3050 0.9466 0.3529
N1_4 N 0.52147(18) 0.7737(2) 0.42800(15)
N2_4 N 0.55283(17) 0.6271(2) 0.49140(14)
N4_4 N 0.3744(2) 0.7210(2) 0.3639(2)
H3_4 H 0.3307 0.6725 0.3563
H4_4 H 0.3675 0.7817 0.3410
N6_4 N 0.39592(17) 0.9867(2) 0.43960(15)
N7_4 N 0.23682(17) 0.9948(2) 0.45276(15)
N11_4 N 0.62399(17) 0.9767(2) 0.48463(15)
N12_4 N 0.73682(17) 0.9948(2) 0.04724(15)
N9_4 N 0.55283(17) 0.8729(2) 0.99140(14)
C1_5 C 0.0060(2) 0.4235(3) 0.22305(19)
O1_5 O 0.05825(18) 0.3947(2) 0.27924(14)
O3_5 O 0.02290(17) 0.4172(2) 0.14989(14)
C3_5 C 0.0475(2) 0.2023(2) 0.41099(18)
C5_5 C 0.2204(2) 0.5269(3) 0.51992(19)
C6_5 C 0.1880(2) 0.4716(3) 0.40569(18)
H2_5 H 0.1950 0.4466 0.3529
N3_3 N 0.03140(17) 0.1136(2) 0.44764(15)
N4_5 N 0.1256(2) 0.2210(2) 0.3639(2)
H3_5 H 0.1693 0.1725 0.3563
H4_5 H 0.1325 0.2817 0.3410
N6_5 N 0.10408(17) 0.4867(2) 0.43960(15)
N8_5 N 0.2696(2) 0.5637(3) 0.58371(18)
H5_5 H 0.2378 0.5871 0.6253
H6_5 H 0.3334 0.5642 0.5835
C2_5 C 0.9091(2) 0.4724(3) 0.24642(19)
O2_5 O 0.89053(18) 0.4825(2) 0.31869(14)
O4_5 O 0.85484(16) 0.5025(2) 0.19171(13)
C4_5 C 0.9195(2) 0.2221(2) 0.47818(18)
H1_5 H 0.8634 0.2518 0.5016
N1_5 N 0.97853(18) 0.2737(2) 0.42800(15)
N10_3 N 0.96860(17) 0.6136(2) 0.05236(15)
H1_6 H 0.6366 0.7482 0.0016
C5_6 C 0.2796(2) 0.4731(3) 0.01992(19)
N8_6 N 0.2304(2) 0.4363(3) 0.08371(18)
H5_6 H 0.2622 0.4129 0.1253
H6_6 H 0.1666 0.4358 0.0835
C1_6 C 0.4940(2) 0.5765(3) 0.72305(19)
C2_6 C 0.5909(2) 0.5276(3) 0.74642(19)
O1_6 O 0.44175(18) 0.6053(2) 0.77924(14)
O2_6 O 0.60947(18) 0.5175(2) 0.81869(14)
O3_6 O 0.47710(17) 0.5828(2) 0.64989(14)
O4_6 O 0.64516(16) 0.4975(2) 0.69171(13)
C3_6 C 0.4525(2) 0.7977(2) 0.91099(18)
C4_6 C 0.5805(2) 0.7779(2) 0.97818(18)
C6_6 C 0.3120(2) 0.5284(3) 0.90569(18)
H2_6 H 0.3050 0.5534 0.8529
N1_6 N 0.52147(18) 0.7263(2) 0.92800(15)
N3_4 N 0.46860(17) 0.8864(2) 0.94764(15)
N4_6 N 0.3744(2) 0.7790(2) 0.8639(2)
H3_6 H 0.3307 0.8275 0.8563
H4_6 H 0.3675 0.7183 0.8410
N6_6 N 0.39592(17) 0.5133(2) 0.93960(15)
N10_4 N 0.53140(17) 0.3864(2) 0.55236(15)
O4_7 O 0.14516(16) 0.0025(2) 0.30829(13)
C2_7 C 0.0909(2) 0.9724(3) 0.25358(19)
O2_7 O 0.10947(18) 0.9825(2) 0.18131(14)
C4_7 C 0.0805(2) 0.7221(2) 0.02182(18)
N1_7 N 0.02147(18) 0.7737(2) 0.07200(15)
H1_7 H 0.1366 0.7518 0.9984
C5_7 C 0.7796(2) 0.0269(3) 0.98008(19)
N8_7 N 0.7304(2) 0.0637(3) 0.91629(18)
H5_7 H 0.7622 0.0871 0.8747
H6_7 H 0.6666 0.0642 0.9165
C1_7 C 0.9940(2) 0.9235(3) 0.27695(19)
O1_7 O 0.94175(18) 0.8947(2) 0.22076(14)
O3_7 O 0.97710(17) 0.9172(2) 0.35011(14)
C3_7 C 0.9525(2) 0.7023(2) 0.08901(18)
C6_7 C 0.8120(2) 0.9716(3) 0.09431(18)
H2_7 H 0.8050 0.9466 0.1471
N4_7 N 0.8744(2) 0.7210(2) 0.1361(2)
H3_7 H 0.8307 0.6725 0.1437
H4_7 H 0.8675 0.7817 0.1590
N6_7 N 0.89592(17) 0.9867(2) 0.06040(15)
C1_8 C 0.5060(2) 0.0765(3) 0.77695(19)
C2_8 C 0.4091(2) 0.0276(3) 0.75358(19)
O1_8 O 0.55825(18) 0.1053(2) 0.72076(14)
O2_8 O 0.39053(18) 0.0175(2) 0.68131(14)
O3_8 O 0.52290(17) 0.0828(2) 0.85011(14)
C3_8 C 0.5475(2) 0.2977(2) 0.58901(18)
C4_8 C 0.4195(2) 0.2779(2) 0.52182(18)
H1_8 H 0.3634 0.2482 0.4984
C6_8 C 0.6880(2) 0.0284(3) 0.59431(18)
H2_8 H 0.6950 0.0534 0.6471
N1_8 N 0.47853(18) 0.2263(2) 0.57200(15)
N4_8 N 0.6256(2) 0.2790(2) 0.6361(2)
H3_8 H 0.6693 0.3275 0.6437
H4_8 H 0.6325 0.2183 0.6590
N6_8 N 0.60408(17) 0.0133(2) 0.56040(15)
O4_8 O 0.35484(16) 0.9975(2) 0.80829(13)
C5_8 C 0.7204(2) 0.9731(3) 0.48008(19)
N8_8 N 0.7696(2) 0.9363(3) 0.41629(18)
H5_8 H 0.7378 0.9129 0.3747
H6_8 H 0.8334 0.9358 0.4165
loop_
_geom_bond_atom_site_label_1
_geom_bond_atom_site_label_2
_geom_bond_site_symmetry_1
_geom_bond_site_symmetry_2
C2 O2 1_555 1_555
O2 Zn1 1_555 1_555
O4 Zn2 1_555 1_555
C4 H1 1_555 1_555
N1 Zn1 1_555 1_555
N2 C4 1_555 1_555
Zn4 N2 1_555 1_555
N10 Zn2 1_555 1_555
N11 Zn1 1_555 1_555
N12 Zn2 1_555 1_555
C2 O4 1_555 1_555
C4 N1 1_555 1_555
O1 C1 1_555 1_555
O3 C1 1_555 1_555
C5 N5 1_555 1_555
C6 H2 1_555 1_555
N3 C3 1_555 1_555
N4 C3 1_555 1_555
H3 N4 1_555 1_555
H4 N4 1_555 1_555
N5 N6 1_555 1_555
N7 C5 1_555 1_555
N8 C5 1_555 1_555
H5 N8 1_555 1_555
H6 N8 1_555 1_555
Zn3 N5 1_555 1_555
Zn6 N7 1_555 1_555
C6 N6 1_555 1_555
C6 N7 1_555 1_555
Zn1_2 O1_2 1_555 1_555
Zn2_2 O3_2 1_555 1_555
C1_2 C2_2 1_555 1_555
C2_2 O2_2 1_555 1_555
O1_2 C1_2 1_555 1_555
O2_2 Zn1_2 1_555 1_555
O3_2 C1_2 1_555 1_555
O4_2 Zn2_2 1_555 1_555
C3_2 N1_2 1_555 1_555
C6_2 H2_2 1_555 1_555
N1_2 Zn1_2 1_555 1_555
N2_2 C4_2 1_555 1_555
N3_2 C3_2 1_555 1_555
N4_2 C3_2 1_555 1_555
H3_2 N4_2 1_555 1_555
H4_2 N4_2 1_555 1_555
N6_2 Zn1_2 1_555 1_555
Zn6_2 N7_2 1_555 1_555
N9_2 Zn2_2 1_555 1_555
N10_2 Zn2_2 1_555 1_555
N11_2 Zn1_2 1_555 1_555
N12_2 Zn2_2 1_555 1_555
C2_2 O4_2 1_555 1_555
C4_2 N1_2 1_555 1_555
C6_2 N6_2 1_555 1_555
C6_2 N7_2 1_555 1_555
N2_2 N3_2 1_555 1_555
C5_2 N5_2 1_555 1_555
N8_2 C5_2 1_555 1_555
H5_2 N8_2 1_555 1_555
H6_2 N8_2 1_555 1_555
Zn3_2 N5_2 1_555 1_555
O1_3 C1_3 1_555 1_555
O3_3 C1_3 1_555 1_555
C6_3 H2_3 1_555 1_555
N10 C3_3 1_555 1_555
N4_3 C3_3 1_555 1_555
H3_3 N4_3 1_555 1_555
H4_3 N4_3 1_555 1_555
Zn4_2 N7_3 1_555 1_555
C6_3 N6_3 1_555 1_555
C6_3 N7_3 1_555 1_555
C5_3 N5_3 1_555 1_555
N8_3 C5_3 1_555 1_555
H5_3 N8_3 1_555 1_555
H6_3 N8_3 1_555 1_555
Zn3_3 N5_3 1_555 1_555
C2_3 O2_3 1_555 1_555
O2_3 Zn1_3 1_555 1_555
N1_3 Zn1_3 1_555 1_555
N2_3 C4_3 1_555 1_555
N9_3 Zn5 1_555 1_555
N11_3 Zn1_3 1_555 1_555
N12_3 Zn5 1_555 1_555
C4_3 N1_3 1_555 1_555
C5_4 N5_4 1_555 1_555
N8_4 C5_4 1_555 1_555
H5_4 N8_4 1_555 1_555
H6_4 N8_4 1_555 1_555
Zn3_4 N5_4 1_555 1_555
Zn1_4 O1_4 1_555 1_555
Zn5_2 O3_4 1_555 1_555
C1_4 C2_4 1_555 1_555
C2_4 O2_4 1_555 1_555
O1_4 C1_4 1_555 1_555
O2_4 Zn1_4 1_555 1_555
O3_4 C1_4 1_555 1_555
C3_4 N1_4 1_555 1_555
C4_4 H1_4 1_555 1_555
C6_4 H2_4 1_555 1_555
N1_4 Zn1_4 1_555 1_555
N2_4 C4_4 1_555 1_555
N10_2 C3_4 1_555 1_555
N4_4 C3_4 1_555 1_555
H3_4 N4_4 1_555 1_555
H4_4 N4_4 1_555 1_555
N6_4 Zn1_4 1_555 1_555
Zn6 N2_4 1_555 1_555
Zn4 N7_4 1_555 1_555
N11_4 Zn1_4 1_555 1_555
N12_4 Zn5_2 1_555 1_555
C4_4 N1_4 1_555 1_555
C6_4 N6_4 1_555 1_555
C6_4 N7_4 1_555 1_555
N2_4 N10_2 1_555 1_555
O1_5 C1_5 1_555 1_555
O3_5 C1_5 1_555 1_555
C5_5 N11 1_555 1_555
C6_5 H2_5 1_555 1_555
N3_3 C3_5 1_555 1_555
N4_5 C3_5 1_555 1_555
H3_5 N4_5 1_555 1_555
H4_5 N4_5 1_555 1_555
N11 N6_5 1_555 1_555
N12_2 C5_5 1_555 1_555
N8_5 C5_5 1_555 1_555
H5_5 N8_5 1_555 1_555
H6_5 N8_5 1_555 1_555
C6_5 N6_5 1_555 1_555
C6_5 N12_2 1_555 1_555
C2_5 O2_5 1_555 1_555
O2_5 Zn3 1_555 1_555
O4_5 Zn6_2 1_555 1_555
C4_5 H1_5 1_555 1_555
N1_5 Zn3 1_555 1_555
N9_3 C4_5 1_555 1_555
N10_3 Zn6_2 1_555 1_555
C2_5 O4_5 1_555 1_555
C4_5 N1_5 1_555 1_555
C5_6 N11_2 1_555 1_555
N8_6 C5_6 1_555 1_555
H5_6 N8_6 1_555 1_555
H6_6 N8_6 1_555 1_555
Zn3_2 O1_6 1_555 1_555
Zn6 O3_6 1_555 1_555
C1_6 C2_6 1_555 1_555
C2_6 O2_6 1_555 1_555
O1_6 C1_6 1_555 1_555
O2_6 Zn3_2 1_555 1_555
O3_6 C1_6 1_555 1_555
O4_6 Zn6 1_555 1_555
C3_6 N1_6 1_555 1_555
C6_6 H2_6 1_555 1_555
N1_6 Zn3_2 1_555 1_555
N9_4 C4_6 1_555 1_555
N3_4 C3_6 1_555 1_555
N4_6 C3_6 1_555 1_555
H3_6 N4_6 1_555 1_555
H4_6 N4_6 1_555 1_555
N6_6 Zn3_2 1_555 1_555
N10_4 Zn6 1_555 1_555
C2_6 O4_6 1_555 1_555
C4_6 N1_6 1_555 1_555
C6_6 N6_6 1_555 1_555
C6_6 N12 1_555 1_555
N9_4 N3_4 1_555 1_555
C2_7 O2_7 1_555 1_555
O2_7 Zn3_3 1_555 1_555
N1_7 Zn3_3 1_555 1_555
N9 C4_7 1_555 1_555
C4_7 N1_7 1_555 1_555
C5_7 N11_3 1_555 1_555
N8_7 C5_7 1_555 1_555
H5_7 N8_7 1_555 1_555
H6_7 N8_7 1_555 1_555
O1_7 C1_7 1_555 1_555
O3_7 C1_7 1_555 1_555
C6_7 H2_7 1_555 1_555
N10_3 C3_7 1_555 1_555
N4_7 C3_7 1_555 1_555
H3_7 N4_7 1_555 1_555
H4_7 N4_7 1_555 1_555
C6_7 N6_7 1_555 1_555
C6_7 N12_4 1_555 1_555
Zn3_4 O1_8 1_555 1_555
Zn4_2 O3_8 1_555 1_555
C1_8 C2_8 1_555 1_555
C2_8 O2_8 1_555 1_555
O1_8 C1_8 1_555 1_555
O2_8 Zn3_4 1_555 1_555
O3_8 C1_8 1_555 1_555
C3_8 N1_8 1_555 1_555
C4_8 H1_8 1_555 1_555
C6_8 H2_8 1_555 1_555
N1_8 Zn3_4 1_555 1_555
N9_2 C4_8 1_555 1_555
N10_4 C3_8 1_555 1_555
N4_8 C3_8 1_555 1_555
H3_8 N4_8 1_555 1_555
H4_8 N4_8 1_555 1_555
N6_8 Zn3_4 1_555 1_555
C4_8 N1_8 1_555 1_555
C6_8 N6_8 1_555 1_555
C6_8 N12_3 1_555 1_555
N9_2 N10_4 1_555 1_555
C5_8 N11_4 1_555 1_555
N8_8 C5_8 1_555 1_555
H5_8 N8_8 1_555 1_555
H6_8 N8_8 1_555 1_555

#END
