
###############################################################################
#
# This file contains modified crystal structure data generated from the
# MOF subset of the Cambridge Structural Database (CSD) v543 
# hosted by the Cambridge Crystallographic Data Centre (CCDC).
#
# This work is licensed under the Creative Commons
# Attribution-NonCommercial-ShareAlike 4.0 International License.
# To view a copy of this license, visit
# http://creativecommons.org/licenses/by-nc-sa/4.0/
# or send a letter to
# Creative Commons, PO Box 1866, Mountain View, CA 94042, USA.
#
# CIF created using the CSD Python API on 29 September 2022
# The structure has been converted into the P1 space group
# The structure has a 3D framework
# The original CSD entry WALBOC is in the orthorhombic crystal system
# The framework has been calculated to contain at least 10.0% void space
# The void calculation uses a probe of radius 1.32A, grid spacing 0.4
#
###############################################################################

data_WALBOC
_chemical_formula_moiety         '(C48 H48 N64 O32 Zn16)n'
_symmetry_cell_setting           triclinic
_symmetry_space_group_name_H-M   'P 1'
_symmetry_Int_Tables_number      1
_space_group_name_Hall           'P 1'
loop_
_symmetry_equiv_pos_site_id
_symmetry_equiv_pos_as_xyz
1 x,y,z
_cell_length_a                   13.7961(2)
_cell_length_b                   12.9305(2)
_cell_length_c                   16.8295(2)
_cell_angle_alpha                90
_cell_angle_beta                 90
_cell_angle_gamma                90
_cell_volume                     3002.22
loop_
_atom_site_label
_atom_site_type_symbol
_atom_site_fract_x
_atom_site_fract_y
_atom_site_fract_z
Zn5 Zn 0.02207(4) 0.57293(5) 0.59649(4)
Zn1 Zn 0.59270(4) 0.52431(5) 0.57610(4)
Zn2 Zn 0.52207(4) 0.57293(5) 0.90351(4)
C1 C 0.4938(3) 0.5769(4) 0.7228(3)
C2 C 0.5913(3) 0.5263(4) 0.7468(3)
O1 O 0.6089(3) 0.5156(3) 0.8185(2)
O2 O 0.4414(2) 0.6050(3) 0.7792(2)
O3 O 0.6457(2) 0.4981(3) 0.6910(2)
O4 O 0.4777(2) 0.5845(3) 0.6498(2)
C3 C 0.4525(4) 0.7016(4) 0.4102(3)
C4 C 0.5809(3) 0.7220(4) 0.4768(3)
H1 H 0.6374 0.7517 0.4996
C5 C 0.7788(3) 0.4724(4) 0.4791(3)
C6 C 0.8120(3) 0.5294(4) 0.5947(3)
H2 H 0.8050 0.5552 0.6472
N1 N 0.5215(3) 0.7744(3) 0.4265(2)
N2 N 0.5533(3) 0.6277(3) 0.4907(2)
N3 N 0.4683(3) 0.6136(3) 0.4472(2)
N4 N 0.3739(3) 0.7206(4) 0.3627(3)
H3 H 0.3299 0.6722 0.3554
H4 H 0.3673 0.7812 0.3395
N5 N 0.8960(3) 0.5129(3) 0.5604(2)
N6 N 0.8764(3) 0.4756(3) 0.4847(2)
N7 N 0.7368(3) 0.5058(3) 0.5472(2)
N8 N 0.7302(3) 0.4355(4) 0.4161(3)
H5 H 0.7621 0.4113 0.3748
H6 H 0.6664 0.4355 0.4160
Zn3 Zn 0.40730(4) 0.47569(5) 0.42390(4)
Zn4 Zn 0.52207(4) 0.92707(5) 0.40351(4)
Zn6 Zn 0.97793(4) 0.42707(5) 0.40351(4)
N9 N 0.5215(3) 0.7256(3) 0.9265(2)
N10 N 0.5317(3) 0.3864(3) 0.5528(2)
N11 N 0.3960(3) 0.5129(3) 0.9396(2)
N12 N 0.6236(3) 0.5244(3) 0.9847(2)
C1_2 C 0.0062(3) 0.4231(4) 0.2228(3)
O2_2 O 0.0586(2) 0.3950(3) 0.2792(2)
O4_2 O 0.0223(2) 0.4155(3) 0.1498(2)
N11_2 N 0.1040(3) 0.4871(3) 0.4396(2)
C3_2 C 0.0475(4) 0.2984(4) 0.9102(3)
N3_2 N 0.0317(3) 0.3864(3) 0.9472(2)
N4_2 N 0.1261(3) 0.2794(4) 0.8627(3)
H3_2 H 0.1701 0.3278 0.8554
H4_2 H 0.1327 0.2188 0.8395
Zn3_2 Zn 0.09270(4) 0.52431(5) 0.92390(4)
Zn1_2 Zn 0.90730(4) 0.47569(5) 0.07610(4)
C2_2 C 0.9087(3) 0.4737(4) 0.2468(3)
O1_2 O 0.8911(3) 0.4844(3) 0.3185(2)
O3_2 O 0.8543(2) 0.5019(3) 0.1910(2)
C6_2 C 0.6880(3) 0.4706(4) 0.0947(3)
H2_2 H 0.6950 0.4448 0.1472
N5_2 N 0.6040(3) 0.4871(3) 0.0604(2)
N7_2 N 0.7632(3) 0.4942(3) 0.0472(2)
Zn5_2 Zn 0.47793(4) 0.42707(5) 0.09649(4)
N9_2 N 0.9785(3) 0.2744(3) 0.4265(2)
N10_2 N 0.9683(3) 0.6136(3) 0.0528(2)
C4_2 C 0.9191(3) 0.2780(4) 0.9768(3)
H1_2 H 0.8626 0.2483 0.9996
C5_2 C 0.7212(3) 0.5276(4) 0.9791(3)
N1_2 N 0.9785(3) 0.2256(3) 0.9265(2)
N2_2 N 0.9467(3) 0.3723(3) 0.9907(2)
N8_2 N 0.7698(3) 0.5645(4) 0.9161(3)
H5_2 H 0.7379 0.5887 0.8748
H6_2 H 0.8336 0.5645 0.9160
Zn4_2 Zn 0.97793(4) 0.07293(5) 0.90351(4)
C3_3 C 0.5475(4) 0.2016(4) 0.0898(3)
C4_3 C 0.4191(3) 0.2220(4) 0.0232(3)
H1_3 H 0.3626 0.2517 0.0004
N1_3 N 0.4785(3) 0.2744(3) 0.0735(2)
N2_3 N 0.4467(3) 0.1277(3) 0.0093(2)
N3_3 N 0.5317(3) 0.1136(3) 0.0528(2)
N4_3 N 0.6261(3) 0.2206(4) 0.1373(3)
H3_3 H 0.6701 0.1722 0.1446
H4_3 H 0.6327 0.2812 0.1605
Zn1_3 Zn 0.40730(4) 0.02431(5) 0.92390(4)
Zn2_2 Zn 0.47793(4) 0.07293(5) 0.59649(4)
C1_3 C 0.5062(3) 0.0769(4) 0.7772(3)
C2_3 C 0.4087(3) 0.0263(4) 0.7532(3)
O1_3 O 0.3911(3) 0.0156(3) 0.6815(2)
O2_3 O 0.5586(2) 0.1050(3) 0.7208(2)
O4_3 O 0.5223(2) 0.0845(3) 0.8502(2)
C6_3 C 0.1880(3) 0.0294(4) 0.9053(3)
H2_3 H 0.1950 0.0552 0.8528
N5_3 N 0.1040(3) 0.0129(3) 0.9396(2)
N7_3 N 0.2632(3) 0.0058(3) 0.9528(2)
N9_3 N 0.4785(3) 0.2256(3) 0.5735(2)
N11_3 N 0.6040(3) 0.0129(3) 0.5604(2)
N12_2 N 0.3764(3) 0.0244(3) 0.5153(2)
C5_3 C 0.2212(3) 0.9724(4) 0.0209(3)
N6_2 N 0.1236(3) 0.9756(3) 0.0153(2)
N8_3 N 0.2698(3) 0.9355(4) 0.0839(3)
H5_3 H 0.2379 0.9113 0.1252
H6_3 H 0.3336 0.9355 0.0840
Zn3_3 Zn 0.59270(4) 0.97569(5) 0.07610(4)
Zn6_2 Zn 0.02207(4) 0.92707(5) 0.09649(4)
O3_3 O 0.3543(2) 0.9981(3) 0.8090(2)
N10_3 N 0.4683(3) 0.8864(3) 0.9472(2)
O3_4 O 0.1457(2) 0.0019(3) 0.3090(2)
C5_4 C 0.2788(3) 0.0276(4) 0.5209(3)
N8_4 N 0.2302(3) 0.0645(4) 0.5839(3)
H5_4 H 0.2621 0.0887 0.6252
H6_4 H 0.1664 0.0645 0.5840
N10_4 N 0.0317(3) 0.1136(3) 0.4472(2)
Zn1_4 Zn 0.09270(4) 0.97569(5) 0.42390(4)
C2_4 C 0.0913(3) 0.9737(4) 0.2532(3)
O1_4 O 0.1089(3) 0.9844(3) 0.1815(2)
C4_4 C 0.0809(3) 0.7780(4) 0.5232(3)
H1_4 H 0.1374 0.7483 0.5004
C6_4 C 0.3120(3) 0.9706(4) 0.4053(3)
H2_4 H 0.3050 0.9448 0.3528
N1_4 N 0.0215(3) 0.7256(3) 0.5735(2)
N2_4 N 0.0533(3) 0.8723(3) 0.5093(2)
N5_4 N 0.3960(3) 0.9871(3) 0.4396(2)
N7_4 N 0.2368(3) 0.9942(3) 0.4528(2)
N9_4 N 0.0215(3) 0.7744(3) 0.0735(2)
Zn3_4 Zn 0.90730(4) 0.02431(5) 0.57610(4)
C1_4 C 0.9938(3) 0.9231(4) 0.2772(3)
O2_4 O 0.9414(2) 0.8950(3) 0.2208(2)
O4_4 O 0.9777(2) 0.9155(3) 0.3502(2)
C3_4 C 0.9525(4) 0.7984(4) 0.5898(3)
N3_4 N 0.9683(3) 0.8864(3) 0.5528(2)
N4_4 N 0.8739(3) 0.7794(4) 0.6373(3)
H3_4 H 0.8299 0.8278 0.6446
H4_4 H 0.8673 0.7188 0.6605
N11_4 N 0.8960(3) 0.9871(3) 0.0604(2)
C1_5 C 0.5062(3) 0.4231(4) 0.2772(3)
C2_5 C 0.4087(3) 0.4737(4) 0.2532(3)
O1_5 O 0.3911(3) 0.4844(3) 0.1815(2)
O2_5 O 0.5586(2) 0.3950(3) 0.2208(2)
O3_5 O 0.3543(2) 0.5019(3) 0.3090(2)
O4_5 O 0.5223(2) 0.4155(3) 0.3502(2)
C3_5 C 0.5475(4) 0.2984(4) 0.5898(3)
C4_5 C 0.4191(3) 0.2780(4) 0.5232(3)
H1_5 H 0.3626 0.2483 0.5004
C5_5 C 0.2212(3) 0.5276(4) 0.5209(3)
C6_5 C 0.1880(3) 0.4706(4) 0.4053(3)
H2_5 H 0.1950 0.4448 0.3528
N2_5 N 0.4467(3) 0.3723(3) 0.5093(2)
N4_5 N 0.6261(3) 0.2794(4) 0.6373(3)
H3_5 H 0.6701 0.3278 0.6446
H4_5 H 0.6327 0.2188 0.6605
N6_3 N 0.1236(3) 0.5244(3) 0.5153(2)
N7_5 N 0.2632(3) 0.4942(3) 0.4528(2)
N8_5 N 0.2698(3) 0.5645(4) 0.5839(3)
H5_5 H 0.2379 0.5887 0.6252
H6_5 H 0.3336 0.5645 0.5840
N12_3 N 0.3764(3) 0.4756(3) 0.0153(2)
C4_6 C 0.0809(3) 0.7220(4) 0.0232(3)
H1_6 H 0.1374 0.7517 0.0004
C5_6 C 0.2788(3) 0.4724(4) 0.0209(3)
N2_6 N 0.0533(3) 0.6277(3) 0.0093(2)
N8_6 N 0.2302(3) 0.4355(4) 0.0839(3)
H5_6 H 0.2621 0.4113 0.1252
H6_6 H 0.1664 0.4355 0.0840
C2_6 C 0.0913(3) 0.5263(4) 0.7532(3)
O1_6 O 0.1089(3) 0.5156(3) 0.6815(2)
O3_6 O 0.1457(2) 0.4981(3) 0.8090(2)
C6_6 C 0.3120(3) 0.5294(4) 0.9053(3)
H2_6 H 0.3050 0.5552 0.8528
N7_6 N 0.2368(3) 0.5058(3) 0.9528(2)
C3_6 C 0.9525(4) 0.7016(4) 0.0898(3)
N4_6 N 0.8739(3) 0.7206(4) 0.1373(3)
H3_6 H 0.8299 0.6722 0.1446
H4_6 H 0.8673 0.7812 0.1605
C1_6 C 0.9938(3) 0.5769(4) 0.7772(3)
O2_6 O 0.9414(2) 0.6050(3) 0.7208(2)
O4_6 O 0.9777(2) 0.5845(3) 0.8502(2)
O3_7 O 0.6457(2) 0.0019(3) 0.1910(2)
C5_7 C 0.7788(3) 0.0276(4) 0.9791(3)
N6_4 N 0.8764(3) 0.0244(3) 0.9847(2)
N8_7 N 0.7302(3) 0.0645(4) 0.9161(3)
H5_7 H 0.7621 0.0887 0.8748
H6_7 H 0.6664 0.0645 0.9160
C1_7 C 0.4938(3) 0.9231(4) 0.2228(3)
C2_7 C 0.5913(3) 0.9737(4) 0.2468(3)
O1_7 O 0.6089(3) 0.9844(3) 0.3185(2)
O2_7 O 0.4414(2) 0.8950(3) 0.2792(2)
O4_7 O 0.4777(2) 0.9155(3) 0.1498(2)
C6_7 C 0.8120(3) 0.9706(4) 0.0947(3)
H2_7 H 0.8050 0.9448 0.1472
N7_7 N 0.7368(3) 0.9942(3) 0.0472(2)
N12_4 N 0.6236(3) 0.9756(3) 0.4847(2)
C3_7 C 0.4525(4) 0.7984(4) 0.9102(3)
C4_7 C 0.5809(3) 0.7780(4) 0.9768(3)
H1_7 H 0.6374 0.7483 0.9996
N2_7 N 0.5533(3) 0.8723(3) 0.9907(2)
N4_7 N 0.3739(3) 0.7794(4) 0.8627(3)
H3_7 H 0.3299 0.8278 0.8554
H4_7 H 0.3673 0.7188 0.8395
C1_8 C 0.0062(3) 0.0769(4) 0.7228(3)
O2_8 O 0.0586(2) 0.1050(3) 0.7792(2)
O4_8 O 0.0223(2) 0.0845(3) 0.6498(2)
C3_8 C 0.0475(4) 0.2016(4) 0.4102(3)
N4_8 N 0.1261(3) 0.2206(4) 0.3627(3)
H3_8 H 0.1701 0.1722 0.3554
H4_8 H 0.1327 0.2812 0.3395
C2_8 C 0.9087(3) 0.0263(4) 0.7468(3)
O1_8 O 0.8911(3) 0.0156(3) 0.8185(2)
C4_8 C 0.9191(3) 0.2220(4) 0.4768(3)
H1_8 H 0.8626 0.2517 0.4996
C6_8 C 0.6880(3) 0.0294(4) 0.5947(3)
H2_8 H 0.6950 0.0552 0.6472
N2_8 N 0.9467(3) 0.1277(3) 0.4907(2)
N7_8 N 0.7632(3) 0.0058(3) 0.5472(2)
O3_8 O 0.8543(2) 0.9981(3) 0.6910(2)
C5_8 C 0.7212(3) 0.9724(4) 0.4791(3)
N8_8 N 0.7698(3) 0.9355(4) 0.4161(3)
H5_8 H 0.7379 0.9113 0.3748
H6_8 H 0.8336 0.9355 0.4160
loop_
_geom_bond_atom_site_label_1
_geom_bond_atom_site_label_2
_geom_bond_site_symmetry_1
_geom_bond_site_symmetry_2
Zn1 O3 1_555 1_555
Zn2 O1 1_555 1_555
C1 C2 1_555 1_555
C2 O1 1_555 1_555
O2 Zn2 1_555 1_555
O3 C2 1_555 1_555
O4 Zn1 1_555 1_555
C3 N1 1_555 1_555
C4 H1 1_555 1_555
C5 N6 1_555 1_555
C6 H2 1_555 1_555
N1 C4 1_555 1_555
N2 Zn1 1_555 1_555
N3 C3 1_555 1_555
N4 C3 1_555 1_555
H3 N4 1_555 1_555
H4 N4 1_555 1_555
N5 C6 1_555 1_555
N6 N5 1_555 1_555
N7 Zn1 1_555 1_555
N8 C5 1_555 1_555
H5 N8 1_555 1_555
H6 N8 1_555 1_555
Zn3 N3 1_555 1_555
Zn4 N1 1_555 1_555
Zn6 N6 1_555 1_555
N9 Zn2 1_555 1_555
N10 Zn1 1_555 1_555
N11 Zn2 1_555 1_555
N12 Zn2 1_555 1_555
C1 O2 1_555 1_555
C1 O4 1_555 1_555
C4 N2 1_555 1_555
C5 N7 1_555 1_555
C6 N7 1_555 1_555
N2 N3 1_555 1_555
C1_2 O2_2 1_555 1_555
C1_2 O4_2 1_555 1_555
N3_2 C3_2 1_555 1_555
N4_2 C3_2 1_555 1_555
H3_2 N4_2 1_555 1_555
H4_2 N4_2 1_555 1_555
Zn3_2 N3_2 1_555 1_555
Zn1_2 O3_2 1_555 1_555
Zn6 O1_2 1_555 1_555
C2_2 O1_2 1_555 1_555
O3_2 C2_2 1_555 1_555
C6_2 H2_2 1_555 1_555
N5_2 C6_2 1_555 1_555
N7_2 Zn1_2 1_555 1_555
Zn5_2 N5_2 1_555 1_555
N9_2 Zn6 1_555 1_555
N10_2 Zn1_2 1_555 1_555
C6_2 N7_2 1_555 1_555
C4_2 H1_2 1_555 1_555
C5_2 N12 1_555 1_555
N1_2 C4_2 1_555 1_555
N8_2 C5_2 1_555 1_555
H5_2 N8_2 1_555 1_555
H6_2 N8_2 1_555 1_555
Zn4_2 N1_2 1_555 1_555
C4_2 N2_2 1_555 1_555
C3_3 N1_3 1_555 1_555
C4_3 H1_3 1_555 1_555
N1_3 C4_3 1_555 1_555
N3_3 C3_3 1_555 1_555
N4_3 C3_3 1_555 1_555
H3_3 N4_3 1_555 1_555
H4_3 N4_3 1_555 1_555
Zn5_2 N1_3 1_555 1_555
C4_3 N2_3 1_555 1_555
N2_3 N3_3 1_555 1_555
Zn2_2 O1_3 1_555 1_555
C1_3 C2_3 1_555 1_555
C2_3 O1_3 1_555 1_555
O2_3 Zn2_2 1_555 1_555
O4_3 Zn1_3 1_555 1_555
C6_3 H2_3 1_555 1_555
N5_3 C6_3 1_555 1_555
N7_3 Zn1_3 1_555 1_555
N9_3 Zn2_2 1_555 1_555
N11_3 Zn2_2 1_555 1_555
N12_2 Zn2_2 1_555 1_555
C1_3 O2_3 1_555 1_555
C1_3 O4_3 1_555 1_555
C6_3 N7_3 1_555 1_555
C5_3 N6_2 1_555 1_555
N8_3 C5_3 1_555 1_555
H5_3 N8_3 1_555 1_555
H6_3 N8_3 1_555 1_555
Zn6_2 N6_2 1_555 1_555
C5_4 N12_2 1_555 1_555
N8_4 C5_4 1_555 1_555
H5_4 N8_4 1_555 1_555
H6_4 N8_4 1_555 1_555
Zn6_2 O1_4 1_555 1_555
C2_4 O1_4 1_555 1_555
C4_4 H1_4 1_555 1_555
C6_4 H2_4 1_555 1_555
N1_4 C4_4 1_555 1_555
N2_4 Zn1_4 1_555 1_555
N5_4 C6_4 1_555 1_555
N7_4 Zn1_4 1_555 1_555
Zn5 N1_4 1_555 1_555
Zn4 N5_4 1_555 1_555
N9_4 Zn6_2 1_555 1_555
C4_4 N2_4 1_555 1_555
C6_4 N7_4 1_555 1_555
N3_4 C3_4 1_555 1_555
N4_4 C3_4 1_555 1_555
H3_4 N4_4 1_555 1_555
H4_4 N4_4 1_555 1_555
C1_4 O2_4 1_555 1_555
C1_4 O4_4 1_555 1_555
Zn3 O3_5 1_555 1_555
Zn5_2 O1_5 1_555 1_555
C1_5 C2_5 1_555 1_555
C2_5 O1_5 1_555 1_555
O2_5 Zn5_2 1_555 1_555
O3_5 C2_5 1_555 1_555
O4_5 Zn3 1_555 1_555
C3_5 N9_3 1_555 1_555
C4_5 H1_5 1_555 1_555
C5_5 N6_3 1_555 1_555
C6_5 H2_5 1_555 1_555
N9_3 C4_5 1_555 1_555
N2_5 Zn3 1_555 1_555
N10 C3_5 1_555 1_555
N4_5 C3_5 1_555 1_555
H3_5 N4_5 1_555 1_555
H4_5 N4_5 1_555 1_555
N11_2 C6_5 1_555 1_555
N6_3 N11_2 1_555 1_555
N7_5 Zn3 1_555 1_555
N8_5 C5_5 1_555 1_555
H5_5 N8_5 1_555 1_555
H6_5 N8_5 1_555 1_555
Zn5 N6_3 1_555 1_555
N12_3 Zn5_2 1_555 1_555
C1_5 O2_5 1_555 1_555
C1_5 O4_5 1_555 1_555
C4_5 N2_5 1_555 1_555
C5_5 N7_5 1_555 1_555
C6_5 N7_5 1_555 1_555
N2_5 N10 1_555 1_555
C4_6 H1_6 1_555 1_555
C5_6 N12_3 1_555 1_555
N9_4 C4_6 1_555 1_555
N8_6 C5_6 1_555 1_555
H5_6 N8_6 1_555 1_555
H6_6 N8_6 1_555 1_555
C4_6 N2_6 1_555 1_555
Zn3_2 O3_6 1_555 1_555
Zn5 O1_6 1_555 1_555
C2_6 O1_6 1_555 1_555
O3_6 C2_6 1_555 1_555
C6_6 H2_6 1_555 1_555
N11 C6_6 1_555 1_555
N7_6 Zn3_2 1_555 1_555
C6_6 N7_6 1_555 1_555
N10_2 C3_6 1_555 1_555
N4_6 C3_6 1_555 1_555
H3_6 N4_6 1_555 1_555
H4_6 N4_6 1_555 1_555
C1_6 O2_6 1_555 1_555
C1_6 O4_6 1_555 1_555
C5_7 N6_4 1_555 1_555
N8_7 C5_7 1_555 1_555
H5_7 N8_7 1_555 1_555
H6_7 N8_7 1_555 1_555
Zn4_2 N6_4 1_555 1_555
Zn4 O1_7 1_555 1_555
C1_7 C2_7 1_555 1_555
C2_7 O1_7 1_555 1_555
O2_7 Zn4 1_555 1_555
O4_7 Zn3_3 1_555 1_555
C6_7 H2_7 1_555 1_555
N11_4 C6_7 1_555 1_555
N7_7 Zn3_3 1_555 1_555
N12_4 Zn4 1_555 1_555
C1_7 O2_7 1_555 1_555
C1_7 O4_7 1_555 1_555
C6_7 N7_7 1_555 1_555
C3_7 N9 1_555 1_555
C4_7 H1_7 1_555 1_555
N9 C4_7 1_555 1_555
N10_3 C3_7 1_555 1_555
N4_7 C3_7 1_555 1_555
H3_7 N4_7 1_555 1_555
H4_7 N4_7 1_555 1_555
C4_7 N2_7 1_555 1_555
N2_7 N10_3 1_555 1_555
N10_4 C3_8 1_555 1_555
N4_8 C3_8 1_555 1_555
H3_8 N4_8 1_555 1_555
H4_8 N4_8 1_555 1_555
C1_8 O2_8 1_555 1_555
C1_8 O4_8 1_555 1_555
Zn4_2 O1_8 1_555 1_555
C2_8 O1_8 1_555 1_555
C4_8 H1_8 1_555 1_555
C6_8 H2_8 1_555 1_555
N9_2 C4_8 1_555 1_555
N2_8 Zn3_4 1_555 1_555
N11_3 C6_8 1_555 1_555
N7_8 Zn3_4 1_555 1_555
C4_8 N2_8 1_555 1_555
C6_8 N7_8 1_555 1_555
C5_8 N12_4 1_555 1_555
N8_8 C5_8 1_555 1_555
H5_8 N8_8 1_555 1_555
H6_8 N8_8 1_555 1_555

#END
