
###############################################################################
#
# This file contains modified crystal structure data generated from the
# MOF subset of the Cambridge Structural Database (CSD) v543 
# hosted by the Cambridge Crystallographic Data Centre (CCDC).
#
# This work is licensed under the Creative Commons
# Attribution-NonCommercial-ShareAlike 4.0 International License.
# To view a copy of this license, visit
# http://creativecommons.org/licenses/by-nc-sa/4.0/
# or send a letter to
# Creative Commons, PO Box 1866, Mountain View, CA 94042, USA.
#
# CIF created using the CSD Python API on 29 September 2022
# The structure has been converted into the P1 space group
# The structure has a 3D framework
# The original CSD entry WALMOO is in the triclinic crystal system
# The framework has been calculated to contain at least 10.0% void space
# The void calculation uses a probe of radius 1.32A, grid spacing 0.4
# H atom positions have been added when not included in the experimental data
#
###############################################################################

data_WALMOO
_chemical_formula_moiety         '(C48 H40 O42 Tb4)n'
_symmetry_cell_setting           triclinic
_symmetry_space_group_name_H-M   'P 1'
_symmetry_Int_Tables_number      1
_space_group_name_Hall           'P 1'
loop_
_symmetry_equiv_pos_site_id
_symmetry_equiv_pos_as_xyz
1 x,y,z
_cell_length_a                   10.640(8)
_cell_length_b                   11.239(9)
_cell_length_c                   15.232(12)
_cell_angle_alpha                99.351(11)
_cell_angle_beta                 99.511(11)
_cell_angle_gamma                92.482(12)
_cell_volume                     1767.97
loop_
_atom_site_label
_atom_site_type_symbol
_atom_site_fract_x
_atom_site_fract_y
_atom_site_fract_z
O8 O 0.4837(6) 0.3021(6) 0.3978(4)
C2 C 0.4325(7) 0.2752(7) 0.3148(5)
O9 O 0.4995(5) 0.2529(5) 0.2546(4)
C3 C 0.2901(8) 0.2732(7) 0.2914(5)
C4 C 0.2291(8) 0.2398(9) 0.2022(5)
H1 H 0.2780 0.2171 0.1577
C5 C 0.0977(9) 0.2393(10) 0.1773(6)
C6 C 0.2148(7) 0.3071(7) 0.3576(5)
C7 C 0.0860(8) 0.3081(7) 0.3333(6)
H2 H 0.0377 0.3334 0.3776
O10 O 0.2676(6) 0.3406(7) 0.4469(4)
H3 H 0.3451 0.3360 0.4532
C17 C 0.0237(8) 0.2725(8) 0.2440(5)
O15 O 0.0450(7) 0.2046(9) 0.0881(4)
Tb5 Tb 0.60297(3) 0.23768(3) 0.13181(2)
Tb7 Tb 0.70995(3) 0.30690(3) 0.40564(2)
O4 O 0.6907(6) 0.1028(5) 0.3424(4)
O5 O 0.6623(6) 0.0653(5) 0.1919(4)
C18 C 0.6762(7) 0.0308(7) 0.2673(5)
O20 O 0.6750(6) 0.3567(5) 0.0126(4)
O1 O 0.6320(6) 0.4453(5) 0.1930(4)
O2 O 0.6442(5) 0.4793(5) 0.3421(4)
O3 O 0.7037(6) 0.3822(6) 0.5602(4)
O6 O 0.8162(5) 0.2966(5) 0.2816(4)
O7 O 0.4339(6) 0.0812(5) 0.0744(4)
C1 C 0.6423(8) 0.5141(7) 0.2691(5)
C8 C 0.6781(8) 0.2812(8) 0.5822(5)
C9 C 0.6751(8) 0.2736(8) 0.6784(5)
C10 C 0.6983(8) 0.3791(8) 0.7430(5)
H4 H 0.7158 0.4526 0.7254
C11 C 0.6956(8) 0.3752(8) 0.8330(5)
C12 C 0.6705(8) 0.2645(7) 0.8596(5)
C13 C 0.6499(9) 0.1593(8) 0.7953(6)
H5 H 0.6345 0.0855 0.8132
C14 C 0.6518(9) 0.1629(8) 0.7059(5)
O11 O 0.6308(9) 0.0542(6) 0.6465(4)
H6 H 0.6238 0.0671 0.5945
C15 C 0.6547(7) 0.2598(7) 0.9542(5)
O12 O 0.7202(7) 0.4815(5) 0.8941(4)
H7 H 0.7363 0.4663 0.9454
O13 O 0.6559(6) 0.1866(6) 0.5231(4)
O14 O 0.8654(6) 0.4835(6) 0.4605(4)
C16 C 0.8816(8) 0.2695(7) 0.2214(5)
H8 H 0.9673 0.1929 0.0832
O16 O 0.8295(6) 0.2384(6) 0.1392(4)
O17 O 0.9086(6) 0.2366(7) 0.4776(4)
C19 C 0.6738(8) 0.9002(7) 0.2705(5)
C20 C 0.6597(8) 0.8172(7) 0.1886(5)
H9 H 0.6584 0.8464 0.1348
C21 C 0.6480(8) 0.6945(7) 0.1865(5)
C22 C 0.6797(9) 0.8545(7) 0.3508(5)
O18 O 0.6929(8) 0.9257(6) 0.4330(4)
H10 H 0.6511 0.9848 0.4290
C23 C 0.6677(9) 0.7300(7) 0.3485(5)
H11 H 0.6701 0.7011 0.4025
C24 C 0.6525(8) 0.6474(7) 0.2683(5)
O19 O 0.6353(8) 0.6194(5) 0.1049(4)
H12 H 0.6355 0.5490 0.1128
O21 O 0.6196(6) 0.1629(5) 0.9770(4)
O22 O 0.4166(6) 0.3233(5) 0.0630(4)
H13 H 0.377353 0.103519 0.0217944
H14 H 0.471237 0.00375828 0.0552714
H15 H 0.945424 0.295348 0.532864
H16 H 0.890981 0.156445 0.494228
H17 H 0.82316 0.550835 0.491879
H18 H 0.938014 0.461284 0.503219
H19 H 0.442665 0.385373 0.0287043
H20 H 0.359611 0.258572 0.0211934
O28 O 0.3804(6) 0.8371(5) 0.0230(4)
Tb1 Tb 0.39703(3) 0.76232(3) 0.86819(2)
Tb2 Tb 0.29005(3) 0.69310(3) 0.59436(2)
O1_2 O 0.3680(6) 0.5547(5) 0.8070(4)
O2_2 O 0.3558(5) 0.5207(5) 0.6579(4)
O3_2 O 0.2963(6) 0.6178(6) 0.4398(4)
O6_2 O 0.1838(5) 0.7034(5) 0.7184(4)
O7_2 O 0.5661(6) 0.9188(5) 0.9256(4)
C1_2 C 0.3577(8) 0.4859(7) 0.7309(5)
C8_2 C 0.3219(8) 0.7188(8) 0.4178(5)
C9_2 C 0.3249(8) 0.7264(8) 0.3216(5)
C10_2 C 0.3017(8) 0.6209(8) 0.2570(5)
H4_2 H 0.2842 0.5474 0.2746
C11_2 C 0.3044(8) 0.6248(8) 0.1670(5)
C12_2 C 0.3295(8) 0.7355(7) 0.1404(5)
C13_2 C 0.3501(9) 0.8407(8) 0.2047(6)
H5_2 H 0.3655 0.9145 0.1868
C14_2 C 0.3482(9) 0.8371(8) 0.2941(5)
O11_2 O 0.3692(9) 0.9458(6) 0.3535(4)
H6_2 H 0.3762 0.9329 0.4055
C15_2 C 0.3453(7) 0.7402(7) 0.0458(5)
O12_2 O 0.2798(7) 0.5185(5) 0.1059(4)
H7_2 H 0.2637 0.5337 0.0546
O13_2 O 0.3441(6) 0.8134(6) 0.4769(4)
O14_2 O 0.1346(6) 0.5165(6) 0.5395(4)
C16_2 C 0.1184(8) 0.7305(7) 0.7786(5)
H8_2 H 0.0327 0.8071 0.9168
O16_2 O 0.1705(6) 0.7616(6) 0.8608(4)
O17_2 O 0.0914(6) 0.7634(7) 0.5224(4)
C19_2 C 0.3262(8) 0.0998(7) 0.7295(5)
C20_2 C 0.3403(8) 0.1828(7) 0.8114(5)
H9_2 H 0.3416 0.1536 0.8652
C21_2 C 0.3520(8) 0.3055(7) 0.8135(5)
C22_2 C 0.3203(9) 0.1455(7) 0.6492(5)
O18_2 O 0.3071(8) 0.0743(6) 0.5670(4)
H10_2 H 0.3489 0.0152 0.5710
C23_2 C 0.3323(9) 0.2700(7) 0.6515(5)
H11_2 H 0.3299 0.2989 0.5975
C24_2 C 0.3475(8) 0.3526(7) 0.7317(5)
O19_2 O 0.3647(8) 0.3806(5) 0.8951(4)
H12_2 H 0.3645 0.4510 0.8872
O22_2 O 0.5834(6) 0.6767(5) 0.9370(4)
O23 O 0.3093(6) 0.8972(5) 0.6576(4)
O24 O 0.3377(6) 0.9347(5) 0.8081(4)
O25 O 0.5163(6) 0.6979(6) 0.6022(4)
O26 O 0.5005(5) 0.7471(5) 0.7454(4)
O27 O 0.3250(6) 0.6433(5) 0.9874(4)
H13_2 H 0.622647 0.896481 0.978206
H14_2 H 0.528763 0.996242 0.944729
H15_2 H 0.0545755 0.704652 0.467136
H16_2 H 0.109019 0.843555 0.505772
H17_2 H 0.17684 0.449165 0.508121
H18_2 H 0.061986 0.538716 0.496781
H19_2 H 0.557335 0.614627 0.971296
H20_2 H 0.640389 0.741428 0.978807
C18_2 C 0.3238(7) 0.9692(7) 0.7327(5)
C2_2 C 0.5675(7) 0.7248(7) 0.6852(5)
C3_2 C 0.7099(8) 0.7268(7) 0.7086(5)
C4_2 C 0.7709(8) 0.7602(9) 0.7978(5)
H1_2 H 0.7220 0.7829 0.8423
C5_2 C 0.9023(9) 0.7607(10) 0.8227(6)
C6_2 C 0.7852(7) 0.6929(7) 0.6424(5)
C7_2 C 0.9140(8) 0.6919(7) 0.6667(6)
H2_2 H 0.9623 0.6666 0.6224
O10_2 O 0.7324(6) 0.6594(7) 0.5531(4)
H3_2 H 0.6549 0.6640 0.5468
C17_2 C 0.9763(8) 0.7275(8) 0.7560(5)
O15_2 O 0.9550(7) 0.7954(9) 0.9119(4)
loop_
_geom_bond_atom_site_label_1
_geom_bond_atom_site_label_2
_geom_bond_site_symmetry_1
_geom_bond_site_symmetry_2
O8 C2 1_555 1_555
C2 O9 1_555 1_555
O9 Tb5 1_555 1_555
C3 C2 1_555 1_555
C4 C3 1_555 1_555
H1 C4 1_555 1_555
C5 C4 1_555 1_555
C6 C3 1_555 1_555
C7 C6 1_555 1_555
H2 C7 1_555 1_555
O10 C6 1_555 1_555
H3 O10 1_555 1_555
C17 C5 1_555 1_555
O15 C5 1_555 1_555
Tb7 O8 1_555 1_555
C7 C17 1_555 1_555
O4 C18 1_555 1_555
O5 C18 1_555 1_555
Tb5 O5 1_555 1_555
Tb7 O4 1_555 1_555
Tb5 O20 1_555 1_555
Tb5 O1 1_555 1_555
Tb7 O2 1_555 1_555
O1 C1 1_555 1_555
O2 C1 1_555 1_555
O3 Tb7 1_555 1_555
O6 Tb7 1_555 1_555
O7 Tb5 1_555 1_555
C1 C24 1_555 1_555
C8 O3 1_555 1_555
C9 C8 1_555 1_555
C10 C9 1_555 1_555
H4 C10 1_555 1_555
C11 C10 1_555 1_555
C12 C11 1_555 1_555
C13 C12 1_555 1_555
H5 C13 1_555 1_555
C14 C9 1_555 1_555
O11 C14 1_555 1_555
H6 O11 1_555 1_555
C15 C12 1_555 1_555
O12 C11 1_555 1_555
H7 O12 1_555 1_555
O13 Tb7 1_555 1_555
O14 Tb7 1_555 1_555
C16 O6 1_555 1_555
O16 Tb5 1_555 1_555
O17 Tb7 1_555 1_555
C19 C20 1_555 1_555
C20 H9 1_555 1_555
C21 C20 1_555 1_555
C22 C19 1_555 1_555
O18 C22 1_555 1_555
H10 O18 1_555 1_555
C23 C22 1_555 1_555
H11 C23 1_555 1_555
C24 C21 1_555 1_555
O19 C21 1_555 1_555
H12 O19 1_555 1_555
O21 C15 1_555 1_555
O22 Tb5 1_555 1_555
C8 O13 1_555 1_555
C13 C14 1_555 1_555
C16 O16 1_555 1_555
C23 C24 1_555 1_555
O7 H13 1_555 1_555
O7 H14 1_555 1_555
O17 H15 1_555 1_555
O17 H16 1_555 1_555
O14 H17 1_555 1_555
O14 H18 1_555 1_555
O22 H19 1_555 1_555
O22 H20 1_555 1_555
Tb1 O1_2 1_555 1_555
Tb2 O2_2 1_555 1_555
O1_2 C1_2 1_555 1_555
O2_2 C1_2 1_555 1_555
O3_2 Tb2 1_555 1_555
O6_2 Tb2 1_555 1_555
O7_2 Tb1 1_555 1_555
C1_2 C24_2 1_555 1_555
C8_2 O3_2 1_555 1_555
C9_2 C8_2 1_555 1_555
C10_2 C9_2 1_555 1_555
H4_2 C10_2 1_555 1_555
C11_2 C10_2 1_555 1_555
C12_2 C11_2 1_555 1_555
C13_2 C12_2 1_555 1_555
H5_2 C13_2 1_555 1_555
C14_2 C9_2 1_555 1_555
O11_2 C14_2 1_555 1_555
H6_2 O11_2 1_555 1_555
C15_2 C12_2 1_555 1_555
O12_2 C11_2 1_555 1_555
H7_2 O12_2 1_555 1_555
O13_2 Tb2 1_555 1_555
O14_2 Tb2 1_555 1_555
C16_2 O6_2 1_555 1_555
O16_2 Tb1 1_555 1_555
O17_2 Tb2 1_555 1_555
C19_2 C20_2 1_555 1_555
C20_2 H9_2 1_555 1_555
C21_2 C20_2 1_555 1_555
C22_2 C19_2 1_555 1_555
O18_2 C22_2 1_555 1_555
H10_2 O18_2 1_555 1_555
C23_2 C22_2 1_555 1_555
H11_2 C23_2 1_555 1_555
C24_2 C21_2 1_555 1_555
O19_2 C21_2 1_555 1_555
H12_2 O19_2 1_555 1_555
O28 C15_2 1_555 1_555
O22_2 Tb1 1_555 1_555
O23 Tb2 1_555 1_555
O24 Tb1 1_555 1_555
O25 Tb2 1_555 1_555
O26 Tb1 1_555 1_555
O27 Tb1 1_555 1_555
C8_2 O13_2 1_555 1_555
C13_2 C14_2 1_555 1_555
C16_2 O16_2 1_555 1_555
C23_2 C24_2 1_555 1_555
O7_2 H13_2 1_555 1_555
O7_2 H14_2 1_555 1_555
O17_2 H15_2 1_555 1_555
O17_2 H16_2 1_555 1_555
O14_2 H17_2 1_555 1_555
O14_2 H18_2 1_555 1_555
O22_2 H19_2 1_555 1_555
O22_2 H20_2 1_555 1_555
O23 C18_2 1_555 1_555
O24 C18_2 1_555 1_555
O25 C2_2 1_555 1_555
C2_2 O26 1_555 1_555
C3_2 C2_2 1_555 1_555
C4_2 C3_2 1_555 1_555
H1_2 C4_2 1_555 1_555
C5_2 C4_2 1_555 1_555
C6_2 C3_2 1_555 1_555
C7_2 C6_2 1_555 1_555
H2_2 C7_2 1_555 1_555
O10_2 C6_2 1_555 1_555
H3_2 O10_2 1_555 1_555
C17_2 C5_2 1_555 1_555
O15_2 C5_2 1_555 1_555
C7_2 C17_2 1_555 1_555

#END
