
###############################################################################
#
# This file contains modified crystal structure data generated from the
# MOF subset of the Cambridge Structural Database (CSD) v543 
# hosted by the Cambridge Crystallographic Data Centre (CCDC).
#
# This work is licensed under the Creative Commons
# Attribution-NonCommercial-ShareAlike 4.0 International License.
# To view a copy of this license, visit
# http://creativecommons.org/licenses/by-nc-sa/4.0/
# or send a letter to
# Creative Commons, PO Box 1866, Mountain View, CA 94042, USA.
#
# CIF created using the CSD Python API on 29 September 2022
# The structure has been converted into the P1 space group
# The structure has a 3D framework
# The original CSD entry WAMGUP is in the triclinic crystal system
# The framework has been calculated to contain at least 10.0% void space
# The void calculation uses a probe of radius 1.32A, grid spacing 0.4
# The framework is charged, counterions have been retained in the structure
#
###############################################################################

data_WAMGUP
_chemical_formula_moiety         '(C84 H44 Fe6 O14)n'
_symmetry_cell_setting           triclinic
_symmetry_space_group_name_H-M   'P 1'
_symmetry_Int_Tables_number      1
_space_group_name_Hall           'P 1'
loop_
_symmetry_equiv_pos_site_id
_symmetry_equiv_pos_as_xyz
1 x,y,z
_cell_length_a                   13.3774(7)
_cell_length_b                   17.0481(7)
_cell_length_c                   17.4322(7)
_cell_angle_alpha                118.491(4)
_cell_angle_beta                 99.961(4)
_cell_angle_gamma                100.101(4)
_cell_volume                     3285.15
loop_
_atom_site_label
_atom_site_type_symbol
_atom_site_fract_x
_atom_site_fract_y
_atom_site_fract_z
Fe2 Fe 0.0000 0.0000 -0.0000
Fe9 Fe 0.04762(4) 0.09334(3) 0.23618(3)
O19 O 0.01159(16) 0.12454(12) 0.13412(13)
Fe2_2 Fe 0.0000 0.0000 1.0000
O23 O 0.0774(2) 0.02392(15) 0.82566(16)
O24 O 0.10034(17) 0.08515(13) 0.97509(14)
Fe2_3 Fe -0.0000 1.0000 -0.0000
O9 O 0.1443(2) 0.23348(14) 0.25343(15)
O11 O 0.0352(2) 0.81403(16) 0.66413(15)
C43 C 0.0764(3) 0.20760(19) 0.1806(2)
C44 C 0.0644(2) 0.27283(18) 0.14806(19)
C45 C 0.1426(3) 0.35759(19) 0.1850(2)
H23 H 0.2046 0.3754 0.2326
C46 C 0.1294(2) 0.41576(19) 0.1518(2)
H24 H 0.1833 0.4728 0.1759
C47 C 0.0383(2) 0.39130(18) 0.08394(19)
C50 C 0.0214(2) 0.44952(17) 0.04282(18)
C51 C 0.0037(2) 0.53556(17) 0.09274(19)
C52 C 0.0030(2) 0.57353(19) 0.1850(2)
H27 H 0.0182 0.5403 0.2142
C58 C 0.0482(3) 0.6872(2) 0.3913(2)
H30 H 0.1007 0.6572 0.3732
C59 C 0.0445(3) 0.7242(2) 0.4799(2)
H31 H 0.0941 0.7193 0.5223
O27 O 0.13667(17) 0.97962(14) 0.06326(14)
Fe2_4 Fe 0.0000 1.0000 1.0000
O4 O 0.1026(2) 0.14415(16) 0.37397(15)
C6 C 0.0404(3) 0.69123(19) 0.9491(2)
H3 H 0.1049 0.7070 0.9934
C7 C 0.0262(2) 0.75110(19) 0.9183(2)
H4 H 0.0796 0.8088 0.9433
C11 C 0.0185(3) 0.3438(2) 0.7667(2)
C12 C 0.0409(3) 0.2942(2) 0.8113(2)
H6 H 0.0563 0.2369 0.7787
C13 C 0.0406(2) 0.32692(19) 0.8986(2)
H7 H 0.0556 0.2919 0.9259
C14 C 0.0184(2) 0.41289(18) 0.95099(19)
C15 C 0.0236(3) 0.3068(2) 0.6723(2)
C18 C 0.0316(3) 0.2313(2) 0.4924(2)
C19 C 0.1045(3) 0.2274(2) 0.5556(2)
H10 H 0.1584 0.1992 0.5381
C20 C 0.1000(3) 0.2638(2) 0.6437(2)
H11 H 0.1503 0.2594 0.6861
C21 C 0.0324(3) 0.1852(2) 0.3950(2)
O25 O 0.1585(2) 0.02434(15) 0.21044(15)
Fe2_5 Fe 1.0000 0.0000 -0.0000
Fe2_6 Fe 1.0000 0.0000 1.0000
O28 O 0.86333(17) 0.02038(14) 0.93674(14)
Fe2_7 Fe 1.0000 1.0000 -0.0000
O5 O 0.9226(2) 0.97608(15) 0.17434(16)
O6 O 0.89966(17) 0.91485(13) 0.02491(14)
C22 C 0.8811(3) 0.91319(19) 0.0919(2)
C23 C 0.7995(2) 0.82789(19) 0.0725(2)
C24 C 0.7782(3) 0.8193(2) 0.1437(2)
H12 H 0.8137 0.8681 0.2053
C25 C 0.7046(3) 0.7386(2) 0.1244(2)
H13 H 0.6904 0.7327 0.1732
C26 C 0.6523(2) 0.66737(19) 0.0354(2)
C29 C 0.5733(2) 0.5808(2) 0.0160(2)
C30 C 0.4744(2) 0.58509(19) 0.0302(2)
C31 C 0.4423(2) 0.6672(2) 0.0572(2)
H16 H 0.4901 0.7211 0.0660
C32 C 0.3461(3) 0.6720(2) 0.0710(2)
C33 C 0.2742(3) 0.5910(2) 0.0576(2)
H17 H 0.2075 0.5940 0.0688
C34 C 0.2992(2) 0.5101(2) 0.0292(2)
H18 H 0.2488 0.4568 0.0190
C35 C 0.3999(2) 0.50287(19) 0.0143(2)
C36 C 0.3117(2) 0.75700(19) 0.0947(2)
C37 C 0.2549(3) 0.7871(2) 0.1575(2)
H19 H 0.2430 0.7563 0.1899
C38 C 0.2157(3) 0.8612(2) 0.1733(2)
H20 H 0.1798 0.8827 0.2184
C39 C 0.2280(2) 0.90500(19) 0.1243(2)
C40 C 0.2862(3) 0.8760(2) 0.0623(2)
H21 H 0.2963 0.9058 0.0288
C41 C 0.3296(3) 0.8042(2) 0.0490(2)
H22 H 0.3719 0.7869 0.0085
C42 C 0.1702(3) 0.97546(19) 0.1329(2)
O12 O 0.8974(2) 0.85585(16) 0.62603(15)
C48 C 0.9596(3) 0.30877(19) 0.0509(2)
H25 H 0.8951 0.2930 0.0066
C49 C 0.9738(2) 0.24890(19) 0.0817(2)
H26 H 0.9204 0.1912 0.0567
C53 C 0.9815(3) 0.6562(2) 0.2333(2)
C54 C 0.9591(3) 0.7058(2) 0.1887(2)
H28 H 0.9437 0.7631 0.2213
C55 C 0.9594(2) 0.67308(19) 0.1014(2)
H29 H 0.9444 0.7081 0.0741
C56 C 0.9816(2) 0.58711(18) 0.04901(19)
C57 C 0.9764(3) 0.6932(2) 0.3277(2)
C60 C 0.9684(3) 0.7687(2) 0.5076(2)
C61 C 0.8955(3) 0.7726(2) 0.4444(2)
H32 H 0.8416 0.8008 0.4619
C62 C 0.9000(3) 0.7362(2) 0.3563(2)
H33 H 0.8497 0.7406 0.3139
C63 C 0.9676(3) 0.8148(2) 0.6050(2)
C69 C 0.3263(3) 0.3233(2) 0.0347(2)
H36 H 0.3617 0.3723 0.0961
C70 C 0.2538(3) 0.2434(2) 0.0168(2)
H37 H 0.2407 0.2376 0.0660
Fe6 Fe 0.95238(4) 0.90666(3) 0.76382(3)
Fe2_8 Fe 1.0000 1.0000 1.0000
O1 O 0.8557(2) 0.76652(14) 0.74657(15)
O2 O 0.98841(16) 0.87546(12) 0.86588(13)
O3 O 0.9648(2) 0.18597(16) 0.33587(15)
C1 C 0.9236(3) 0.79240(19) 0.8194(2)
C2 C 0.9356(2) 0.72717(18) 0.85194(19)
C3 C 0.8574(3) 0.64241(19) 0.8150(2)
H1 H 0.7954 0.6246 0.7674
C4 C 0.8706(2) 0.58424(19) 0.8482(2)
H2 H 0.8167 0.5272 0.8241
C5 C 0.9617(2) 0.60870(18) 0.91606(19)
C8 C 0.9786(2) 0.55048(17) 0.95718(18)
C9 C 0.9963(2) 0.46444(17) 0.90726(19)
C10 C 0.9970(2) 0.42647(19) 0.8150(2)
H5 H 0.9818 0.4597 0.7858
C16 C 0.9518(3) 0.3128(2) 0.6087(2)
H8 H 0.8993 0.3428 0.6268
C17 C 0.9555(3) 0.2758(2) 0.5201(2)
H9 H 0.9059 0.2807 0.4777
C27 C 0.6737(3) 0.6767(2) 0.9653(2)
H14 H 0.6383 0.6277 0.9039
C28 C 0.7462(3) 0.7566(2) 0.9832(2)
H15 H 0.7593 0.7624 0.9340
C64 C 0.1189(3) 0.08681(19) 0.9081(2)
C65 C 0.2005(2) 0.17211(19) 0.9275(2)
C66 C 0.2218(3) 0.1807(2) 0.8563(2)
H34 H 0.1863 0.1319 0.7947
C67 C 0.2954(3) 0.2614(2) 0.8756(2)
H35 H 0.3096 0.2673 0.8268
C68 C 0.3477(2) 0.33263(19) 0.9646(2)
C71 C 0.4267(2) 0.4192(2) 0.9840(2)
C72 C 0.5256(2) 0.41491(19) 0.9698(2)
C73 C 0.5577(2) 0.3328(2) 0.9428(2)
H38 H 0.5099 0.2789 0.9340
C74 C 0.6539(3) 0.3280(2) 0.9290(2)
C75 C 0.7258(3) 0.4090(2) 0.9424(2)
H39 H 0.7925 0.4060 0.9312
C76 C 0.7008(2) 0.4899(2) 0.9708(2)
H40 H 0.7512 0.5432 0.9810
C77 C 0.6001(2) 0.49713(19) 0.9857(2)
C78 C 0.6883(2) 0.24300(19) 0.9053(2)
C79 C 0.7451(3) 0.2129(2) 0.8425(2)
H41 H 0.7570 0.2437 0.8101
C80 C 0.7843(3) 0.1388(2) 0.8267(2)
H42 H 0.8202 0.1173 0.7816
C81 C 0.7720(2) 0.09500(19) 0.8757(2)
C82 C 0.7138(3) 0.1240(2) 0.9377(2)
H43 H 0.7037 0.0942 0.9712
C83 C 0.6704(3) 0.1958(2) 0.9510(2)
H44 H 0.6281 0.2131 0.9915
C84 C 0.8298(3) 0.02454(19) 0.8671(2)
O26 O 0.8415(2) 0.97566(15) 0.78956(15)
loop_
_geom_bond_atom_site_label_1
_geom_bond_atom_site_label_2
_geom_bond_site_symmetry_1
_geom_bond_site_symmetry_2
O19 Fe2 1_555 1_555
Fe9 O19 1_555 1_555
O24 Fe2_2 1_555 1_555
O9 C43 1_555 1_555
O19 C43 1_555 1_555
C43 C44 1_555 1_555
C44 C45 1_555 1_555
C45 H23 1_555 1_555
C46 C45 1_555 1_555
H24 C46 1_555 1_555
C47 C46 1_555 1_555
C51 C50 1_555 1_555
C52 C51 1_555 1_555
H27 C52 1_555 1_555
H30 C58 1_555 1_555
C59 C58 1_555 1_555
H31 C59 1_555 1_555
Fe9 O9 1_555 1_555
O27 Fe2_3 1_555 1_555
C47 C50 1_555 1_555
O4 C21 1_555 1_555
H3 C6 1_555 1_555
H4 C7 1_555 1_555
C12 C11 1_555 1_555
H6 C12 1_555 1_555
C13 C12 1_555 1_555
H7 C13 1_555 1_555
C15 C11 1_555 1_555
C19 C18 1_555 1_555
H10 C19 1_555 1_555
C20 C15 1_555 1_555
H11 C20 1_555 1_555
C21 C18 1_555 1_555
O25 Fe9 1_555 1_555
O4 Fe9 1_555 1_555
C6 C7 1_555 1_555
C13 C14 1_555 1_555
C19 C20 1_555 1_555
O28 Fe2_6 1_555 1_555
O5 C22 1_555 1_555
O6 Fe2_7 1_555 1_555
O27 C42 1_555 1_555
C22 O6 1_555 1_555
C23 C22 1_555 1_555
C24 C23 1_555 1_555
H12 C24 1_555 1_555
C25 C24 1_555 1_555
H13 C25 1_555 1_555
C26 C25 1_555 1_555
C29 C26 1_555 1_555
C30 C29 1_555 1_555
C31 C30 1_555 1_555
H16 C31 1_555 1_555
C32 C31 1_555 1_555
C33 C32 1_555 1_555
H17 C33 1_555 1_555
C34 C33 1_555 1_555
H18 C34 1_555 1_555
C35 C30 1_555 1_555
C36 C32 1_555 1_555
C37 C36 1_555 1_555
H19 C37 1_555 1_555
C38 C37 1_555 1_555
H20 C38 1_555 1_555
C39 C38 1_555 1_555
C40 C39 1_555 1_555
H21 C40 1_555 1_555
C41 C36 1_555 1_555
H22 C41 1_555 1_555
C42 C39 1_555 1_555
O12 C63 1_555 1_555
H25 C48 1_555 1_555
H26 C49 1_555 1_555
C54 C53 1_555 1_555
H28 C54 1_555 1_555
C55 C54 1_555 1_555
H29 C55 1_555 1_555
C57 C53 1_555 1_555
C61 C60 1_555 1_555
H32 C61 1_555 1_555
C62 C57 1_555 1_555
H33 C62 1_555 1_555
C63 C60 1_555 1_555
H36 C69 1_555 1_555
H37 C70 1_555 1_555
C34 C35 1_555 1_555
C40 C41 1_555 1_555
O12 Fe6 1_555 1_555
C48 C49 1_555 1_555
C55 C56 1_555 1_555
C61 C62 1_555 1_555
C69 C70 1_555 1_555
Fe6 O1 1_555 1_555
Fe2_8 O2 1_555 1_555
O1 C1 1_555 1_555
O2 Fe6 1_555 1_555
C1 O2 1_555 1_555
C2 C1 1_555 1_555
C3 C2 1_555 1_555
H1 C3 1_555 1_555
C4 C3 1_555 1_555
H2 C4 1_555 1_555
C5 C4 1_555 1_555
C8 C5 1_555 1_555
C9 C8 1_555 1_555
C10 C9 1_555 1_555
H5 C10 1_555 1_555
H8 C16 1_555 1_555
C17 C16 1_555 1_555
H9 C17 1_555 1_555
H14 C27 1_555 1_555
H15 C28 1_555 1_555
O23 C64 1_555 1_555
O24 C64 1_555 1_555
O28 C84 1_555 1_555
C64 C65 1_555 1_555
C65 C66 1_555 1_555
C66 H34 1_555 1_555
C67 C66 1_555 1_555
H35 C67 1_555 1_555
C68 C67 1_555 1_555
C72 C71 1_555 1_555
C73 C72 1_555 1_555
H38 C73 1_555 1_555
C74 C73 1_555 1_555
C75 C74 1_555 1_555
H39 C75 1_555 1_555
C76 C75 1_555 1_555
H40 C76 1_555 1_555
C78 C74 1_555 1_555
C79 C78 1_555 1_555
H41 C79 1_555 1_555
C80 C79 1_555 1_555
H42 C80 1_555 1_555
C81 C80 1_555 1_555
C82 C81 1_555 1_555
H43 C82 1_555 1_555
C83 C78 1_555 1_555
H44 C83 1_555 1_555
C84 C81 1_555 1_555
O26 Fe6 1_555 1_555
C27 C28 1_555 1_555
C68 C71 1_555 1_555
C72 C77 1_555 1_555
C76 C77 1_555 1_555
C82 C83 1_555 1_555

#END
