
###############################################################################
#
# This file contains modified crystal structure data generated from the
# MOF subset of the Cambridge Structural Database (CSD) v543 
# hosted by the Cambridge Crystallographic Data Centre (CCDC).
#
# This work is licensed under the Creative Commons
# Attribution-NonCommercial-ShareAlike 4.0 International License.
# To view a copy of this license, visit
# http://creativecommons.org/licenses/by-nc-sa/4.0/
# or send a letter to
# Creative Commons, PO Box 1866, Mountain View, CA 94042, USA.
#
# CIF created using the CSD Python API on 29 September 2022
# The structure has been converted into the P1 space group
# The structure has a 3D framework
# The original CSD entry WANRAI is in the tetragonal crystal system
# The original CSD entry WANRAI is in a Sohncke space group
# The framework has been calculated to contain at least 10.0% void space
# The void calculation uses a probe of radius 1.32A, grid spacing 0.4
# The framework is charged, counterions have been retained in the structure
#
###############################################################################

data_WANRAI
_chemical_formula_moiety         '(C112 H72 Cd2 N8 O30)n'
_symmetry_cell_setting           triclinic
_symmetry_space_group_name_H-M   'P 1'
_symmetry_Int_Tables_number      1
_space_group_name_Hall           'P 1'
loop_
_symmetry_equiv_pos_site_id
_symmetry_equiv_pos_as_xyz
1 x,y,z
_cell_length_a                   10.1015(6)
_cell_length_b                   10.1015(6)
_cell_length_c                   32.029(3)
_cell_angle_alpha                90
_cell_angle_beta                 90
_cell_angle_gamma                90
_cell_volume                     3268.25
loop_
_atom_site_label
_atom_site_type_symbol
_atom_site_fract_x
_atom_site_fract_y
_atom_site_fract_z
Cd1 Cd 0.55964(3) 0.44036(3) 0.750000
N1 N 0.1419(5) 0.5363(6) 0.56290(15)
C1 C 0.0508(5) 0.4538(5) 0.71350(14)
H1 H 0.048250 0.415640 0.739912
O3 O 0.4037(4) 0.4915(6) 0.70155(16)
C4 C 0.3011(5) 0.4515(6) 0.71638(18)
C6 C 0.1719(5) 0.4806(5) 0.69507(17)
O4 O 0.2987(4) 0.3848(5) 0.74893(19)
C7 C 0.0565(6) 0.5643(6) 0.63483(15)
C8 C 0.1730(6) 0.5374(6) 0.65561(18)
H3 H 0.253427 0.557648 0.643009
C9 C 0.1183(7) 0.4105(8) 0.5604(2)
H4 H 0.049440 0.373919 0.575822
C10 C 0.2984(6) 0.3804(6) 0.51283(16)
C11 C 0.1935(7) 0.3313(7) 0.53541(18)
H5 H 0.173363 0.241688 0.533578
C12 C 0.0585(8) 0.6236(7) 0.59158(19)
H6 H 0.095751 0.712054 0.592633
C13 C 0.3155(9) 0.5113(8) 0.5158(3)
H8 H 0.382551 0.550634 0.500293
C14 C 0.2389(9) 0.5894(7) 0.5407(3)
H9 H 0.254664 0.680049 0.542033
N2 N 0.5363(6) 0.1419(5) 0.43710(15)
C15 C 0.4538(5) 0.0508(5) 0.28650(14)
H10 H 0.415640 0.048250 0.260088
O7 O 0.4915(6) 0.4037(4) 0.29845(16)
C18 C 0.4515(6) 0.3011(5) 0.28362(18)
C20 C 0.4806(5) 0.1719(5) 0.30493(17)
O8 O 0.3848(5) 0.2987(4) 0.25107(19)
C21 C 0.5643(6) 0.0565(6) 0.36517(15)
C22 C 0.5374(6) 0.1730(6) 0.34439(18)
H12 H 0.557648 0.253427 0.356991
C23 C 0.4105(8) 0.1183(7) 0.4396(2)
H13 H 0.373919 0.049440 0.424178
C24 C 0.3804(6) 0.2984(6) 0.48717(16)
C25 C 0.3313(7) 0.1935(7) 0.46459(18)
H14 H 0.241688 0.173363 0.466422
C26 C 0.6236(7) 0.0585(8) 0.40842(19)
H15 H 0.712054 0.095751 0.407367
C27 C 0.5113(8) 0.3155(9) 0.4842(3)
H17 H 0.550634 0.382551 0.499707
C28 C 0.5894(7) 0.2389(9) 0.4593(3)
H18 H 0.680049 0.254664 0.457967
Cd4 Cd 0.44036(3) 0.55964(3) 0.250000
O9 O 0.8045(3) 0.4354(4) 0.75298(12)
O10 O 0.5646(4) 0.1955(3) 0.74702(12)
O11 O 0.7012(4) 0.4601(5) 0.69334(12)
O12 O 0.5399(5) 0.2988(4) 0.80666(12)
O13 O 0.5085(6) 0.5963(4) 0.79845(16)
O14 O 0.6152(5) 0.7013(4) 0.75107(19)
O5 O 0.4354(4) 0.8045(3) 0.24702(12)
O6 O 0.4601(5) 0.7012(4) 0.30666(12)
C16 C 0.4826(5) 0.9355(6) 0.30649(15)
C17 C 0.4555(7) 0.8040(5) 0.28551(17)
C19 C 0.5359(6) 0.9382(6) 0.34595(16)
H11 H 0.552969 0.859159 0.359810
H16 H 0.629925 0.968972 0.419174
C2 C 0.9355(6) 0.4826(5) 0.69351(15)
C3 C 0.8040(5) 0.4555(7) 0.71449(17)
C5 C 0.9382(6) 0.5359(6) 0.65405(16)
H2 H 0.859159 0.552969 0.640190
H7 H 0.968972 0.629925 0.580826
O1 O 0.1955(3) 0.5646(4) 0.25298(12)
O2 O 0.2988(4) 0.5399(5) 0.19334(12)
C2_2 C 0.0645(6) 0.5174(5) 0.19351(15)
C3_2 C 0.1960(5) 0.5445(7) 0.21449(17)
C5_2 C 0.0618(6) 0.4641(6) 0.15405(16)
H2_2 H 0.140841 0.447031 0.140190
H7_2 H 0.031028 0.370075 0.080826
C16_2 C 0.5174(5) 0.0645(6) 0.80649(15)
C17_2 C 0.5445(7) 0.1960(5) 0.78551(17)
C19_2 C 0.4641(6) 0.0618(6) 0.84595(16)
H11_2 H 0.447031 0.140841 0.859810
H16_2 H 0.370075 0.031028 0.919174
N1_2 N 0.8581(5) 0.4637(6) 0.06290(15)
C1_2 C 0.9492(5) 0.5462(5) 0.21350(14)
H1_2 H 0.951750 0.584360 0.239912
O3_2 O 0.5963(4) 0.5085(6) 0.20155(16)
C4_2 C 0.6989(5) 0.5485(6) 0.21638(18)
C6_2 C 0.8281(5) 0.5194(5) 0.19507(17)
O4_2 O 0.7013(4) 0.6152(5) 0.24893(19)
C7_2 C 0.9435(6) 0.4357(6) 0.13483(15)
C8_2 C 0.8270(6) 0.4626(6) 0.15561(18)
H3_2 H 0.746573 0.442352 0.143009
C9_2 C 0.8817(7) 0.5895(8) 0.0604(2)
H4_2 H 0.950560 0.626081 0.075822
C10_2 C 0.7016(6) 0.6196(6) 0.01283(16)
C11_2 C 0.8065(7) 0.6687(7) 0.03541(18)
H5_2 H 0.826637 0.758312 0.033578
C12_2 C 0.9415(8) 0.3764(7) 0.09158(19)
H6_2 H 0.904249 0.287946 0.092633
C13_2 C 0.6845(9) 0.4887(8) 0.0158(3)
H8_2 H 0.617449 0.449366 0.000293
C14_2 C 0.7611(9) 0.4106(7) 0.0407(3)
H9_2 H 0.745336 0.319951 0.042033
N2_2 N 0.4637(6) 0.8581(5) 0.93710(15)
C15_2 C 0.5462(5) 0.9492(5) 0.78650(14)
H10_2 H 0.584360 0.951750 0.760088
C18_2 C 0.5485(6) 0.6989(5) 0.78362(18)
C20_2 C 0.5194(5) 0.8281(5) 0.80493(17)
C21_2 C 0.4357(6) 0.9435(6) 0.86517(15)
C22_2 C 0.4626(6) 0.8270(6) 0.84439(18)
H12_2 H 0.442352 0.746573 0.856991
C23_2 C 0.5895(8) 0.8817(7) 0.9396(2)
H13_2 H 0.626081 0.950560 0.924178
C24_2 C 0.6196(6) 0.7016(6) 0.98717(16)
C25_2 C 0.6687(7) 0.8065(7) 0.96459(18)
H14_2 H 0.758312 0.826637 0.966422
C26_2 C 0.3764(7) 0.9415(8) 0.90842(19)
H15_2 H 0.287946 0.904249 0.907367
C27_2 C 0.4887(8) 0.6845(9) 0.9842(3)
H17_2 H 0.449366 0.617449 0.999707
C28_2 C 0.4106(7) 0.7611(9) 0.9593(3)
H18_2 H 0.319951 0.745336 0.957967
Cd1_2 Cd 0.05964(3) 0.05964(3) 0.000000
O9_2 O 0.0646(4) 0.3045(3) 0.00298(12)
O12_2 O 0.2012(4) 0.0399(5) 0.05666(12)
Cd1_3 Cd 0.05964(3) 0.05964(3) 1.000000
N2_3 N 0.3581(5) 0.0363(6) 0.68710(15)
C19_3 C 0.5618(6) 0.0359(6) 0.59595(16)
H11_3 H 0.640841 0.052969 0.609810
C21_3 C 0.4435(6) 0.0643(6) 0.61517(15)
C22_3 C 0.3270(6) 0.0374(6) 0.59439(18)
H12_3 H 0.246573 0.057648 0.606991
C26_3 C 0.4415(8) 0.1236(7) 0.65842(19)
H15_3 H 0.404249 0.212054 0.657367
H16_3 H 0.531028 0.129925 0.669174
C27_3 C 0.1845(9) 0.0113(8) 0.7342(3)
H17_3 H 0.117449 0.050634 0.749707
C28_3 C 0.2611(9) 0.0894(7) 0.7093(3)
H18_3 H 0.245336 0.180049 0.707967
O10_2 O 0.3045(3) 0.0646(4) 0.99702(12)
O11_2 O 0.0399(5) 0.2012(4) 0.94334(12)
C1_3 C 0.0462(5) 0.5508(5) 0.96350(14)
H1_3 H 0.084360 0.548250 0.989912
O3_3 O 0.0085(6) 0.9037(4) 0.95155(16)
C2_3 C 0.0174(5) 0.4355(6) 0.94351(15)
C3_3 C 0.0445(7) 0.3040(5) 0.96449(17)
C4_3 C 0.0485(6) 0.8011(5) 0.96638(18)
C6_3 C 0.0194(5) 0.6719(5) 0.94507(17)
O4_3 O 0.1152(5) 0.7987(4) 0.99893(19)
C9_3 C 0.0895(8) 0.6183(7) 0.8104(2)
H4_3 H 0.126081 0.549440 0.825822
C10_3 C 0.1196(6) 0.7984(6) 0.76283(16)
C11_3 C 0.1687(7) 0.6935(7) 0.78541(18)
H5_3 H 0.258312 0.673363 0.783578
O5_2 O 0.6955(3) 0.9354(4) 0.49702(12)
O6_2 O 0.7988(4) 0.9601(5) 0.55666(12)
C15_3 C 0.4492(5) 0.9538(5) 0.53650(14)
H10_3 H 0.451750 0.915640 0.510088
O7_2 O 0.0963(4) 0.9915(6) 0.54845(16)
C16_3 C 0.5645(6) 0.9826(5) 0.55649(15)
C17_3 C 0.6960(5) 0.9555(7) 0.53551(17)
C18_3 C 0.1989(5) 0.9515(6) 0.53362(18)
C20_3 C 0.3281(5) 0.9806(5) 0.55493(17)
O8_2 O 0.2013(4) 0.8848(5) 0.50107(19)
C23_3 C 0.3817(7) 0.9105(8) 0.6896(2)
H13_3 H 0.450560 0.873919 0.674178
C24_3 C 0.2016(6) 0.8804(6) 0.73717(16)
C25_3 C 0.3065(7) 0.8313(7) 0.71459(18)
H14_3 H 0.326637 0.741688 0.716422
Cd3 Cd 0.94036(3) 0.94036(3) 0.500000
O13_2 O 0.9037(4) 0.0085(6) 0.04845(16)
O14_2 O 0.7987(4) 0.1152(5) 0.00107(19)
N1_3 N 0.9637(6) 0.6419(5) 0.81290(15)
C5_3 C 0.9641(6) 0.4382(6) 0.90405(16)
H2_3 H 0.947031 0.359159 0.890190
C7_3 C 0.9357(6) 0.5565(6) 0.88483(15)
C8_3 C 0.9626(6) 0.6730(6) 0.90561(18)
H3_3 H 0.942352 0.753427 0.893009
C12_3 C 0.8764(7) 0.5585(8) 0.84158(19)
H6_3 H 0.787946 0.595751 0.842633
H7_3 H 0.870075 0.468972 0.830826
C13_3 C 0.9887(8) 0.8155(9) 0.7658(3)
H8_3 H 0.949366 0.882551 0.750293
C14_3 C 0.9106(7) 0.7389(9) 0.7907(3)
H9_3 H 0.819951 0.754664 0.792033
N1_4 N 0.0363(6) 0.3581(5) 0.31290(15)
C5_4 C 0.0359(6) 0.5618(6) 0.40405(16)
H2_4 H 0.052969 0.640841 0.390190
C7_4 C 0.0643(6) 0.4435(6) 0.38483(15)
C8_4 C 0.0374(6) 0.3270(6) 0.40561(18)
H3_4 H 0.057648 0.246573 0.393009
C12_4 C 0.1236(7) 0.4415(8) 0.34158(19)
H6_4 H 0.212054 0.404249 0.342633
H7_4 H 0.129925 0.531028 0.330826
C13_4 C 0.0113(8) 0.1845(9) 0.2658(3)
H8_4 H 0.050634 0.117449 0.250293
C14_4 C 0.0894(7) 0.2611(9) 0.2907(3)
H9_4 H 0.180049 0.245336 0.292033
O1_2 O 0.9354(4) 0.6955(3) 0.50298(12)
O2_2 O 0.9601(5) 0.7988(4) 0.44334(12)
C1_4 C 0.9538(5) 0.4492(5) 0.46350(14)
H1_4 H 0.915640 0.451750 0.489912
O3_4 O 0.9915(6) 0.0963(4) 0.45155(16)
C2_4 C 0.9826(5) 0.5645(6) 0.44351(15)
C3_4 C 0.9555(7) 0.6960(5) 0.46449(17)
C4_4 C 0.9515(6) 0.1989(5) 0.46638(18)
C6_4 C 0.9806(5) 0.3281(5) 0.44507(17)
O4_4 O 0.8848(5) 0.2013(4) 0.49893(19)
C9_4 C 0.9105(8) 0.3817(7) 0.3104(2)
H4_4 H 0.873919 0.450560 0.325822
C10_4 C 0.8804(6) 0.2016(6) 0.26283(16)
C11_4 C 0.8313(7) 0.3065(7) 0.28541(18)
H5_4 H 0.741688 0.326637 0.283578
C15_4 C 0.5508(5) 0.0462(5) 0.03650(14)
H10_4 H 0.548250 0.084360 0.010088
C16_4 C 0.4355(6) 0.0174(5) 0.05649(15)
C17_4 C 0.3040(5) 0.0445(7) 0.03551(17)
C18_4 C 0.8011(5) 0.0485(6) 0.03362(18)
C20_4 C 0.6719(5) 0.0194(5) 0.05493(17)
C23_4 C 0.6183(7) 0.0895(8) 0.1896(2)
H13_4 H 0.549440 0.126081 0.174178
C24_4 C 0.7984(6) 0.1196(6) 0.23717(16)
C25_4 C 0.6935(7) 0.1687(7) 0.21459(18)
H14_4 H 0.673363 0.258312 0.216422
N2_4 N 0.6419(5) 0.9637(6) 0.18710(15)
C19_4 C 0.4382(6) 0.9641(6) 0.09595(16)
H11_4 H 0.359159 0.947031 0.109810
C21_4 C 0.5565(6) 0.9357(6) 0.11517(15)
C22_4 C 0.6730(6) 0.9626(6) 0.09439(18)
H12_4 H 0.753427 0.942352 0.106991
C26_4 C 0.5585(8) 0.8764(7) 0.15842(19)
H15_4 H 0.595751 0.787946 0.157367
H16_4 H 0.468972 0.870075 0.169174
C27_4 C 0.8155(9) 0.9887(8) 0.2342(3)
H17_4 H 0.882551 0.949366 0.249707
C28_4 C 0.7389(9) 0.9106(7) 0.2093(3)
H18_4 H 0.754664 0.819951 0.207967
loop_
_geom_bond_atom_site_label_1
_geom_bond_atom_site_label_2
_geom_bond_site_symmetry_1
_geom_bond_site_symmetry_2
Cd1 O3 1_555 1_555
N1 C9 1_555 1_555
C1 H1 1_555 1_555
O3 C4 1_555 1_555
C4 C6 1_555 1_555
C6 C1 1_555 1_555
O4 Cd1 1_555 1_555
C8 C6 1_555 1_555
H3 C8 1_555 1_555
C9 H4 1_555 1_555
C10 C11 1_555 1_555
C11 C9 1_555 1_555
H5 C11 1_555 1_555
C12 N1 1_555 1_555
H6 C12 1_555 1_555
C13 C10 1_555 1_555
H8 C13 1_555 1_555
C14 N1 1_555 1_555
H9 C14 1_555 1_555
N2 C23 1_555 1_555
C15 H10 1_555 1_555
O7 C18 1_555 1_555
C18 C20 1_555 1_555
C20 C15 1_555 1_555
O8 C18 1_555 1_555
C22 C20 1_555 1_555
H12 C22 1_555 1_555
C23 H13 1_555 1_555
C24 C10 1_555 1_555
C25 C23 1_555 1_555
H14 C25 1_555 1_555
C26 N2 1_555 1_555
H15 C26 1_555 1_555
C27 C24 1_555 1_555
H17 C27 1_555 1_555
C28 N2 1_555 1_555
H18 C28 1_555 1_555
Cd4 O7 1_555 1_555
O9 Cd1 1_555 1_555
O10 Cd1 1_555 1_555
O11 Cd1 1_555 1_555
O12 Cd1 1_555 1_555
O13 Cd1 1_555 1_555
O14 Cd1 1_555 1_555
C4 O4 1_555 1_555
C7 C8 1_555 1_555
C7 C12 1_555 1_555
C13 C14 1_555 1_555
O8 Cd4 1_555 1_555
C21 C22 1_555 1_555
C21 C26 1_555 1_555
C24 C25 1_555 1_555
C27 C28 1_555 1_555
O5 C17 1_555 1_555
O6 C17 1_555 1_555
C17 C16 1_555 1_555
C19 C16 1_555 1_555
H11 C19 1_555 1_555
Cd4 O5 1_555 1_555
O6 Cd4 1_555 1_555
O9 C3 1_555 1_555
O11 C3 1_555 1_555
C3 C2 1_555 1_555
C5 C2 1_555 1_555
H2 C5 1_555 1_555
O1 C3_2 1_555 1_555
O2 C3_2 1_555 1_555
C3_2 C2_2 1_555 1_555
C5_2 C2_2 1_555 1_555
H2_2 C5_2 1_555 1_555
Cd4 O1 1_555 1_555
O2 Cd4 1_555 1_555
O10 C17_2 1_555 1_555
O12 C17_2 1_555 1_555
C17_2 C16_2 1_555 1_555
C19_2 C16_2 1_555 1_555
H11_2 C19_2 1_555 1_555
Cd4 O3_2 1_555 1_555
N1_2 C9_2 1_555 1_555
C1_2 H1_2 1_555 1_555
O3_2 C4_2 1_555 1_555
C4_2 C6_2 1_555 1_555
C6_2 C1_2 1_555 1_555
O4_2 Cd4 1_555 1_555
C8_2 C6_2 1_555 1_555
H3_2 C8_2 1_555 1_555
C9_2 H4_2 1_555 1_555
C10_2 C11_2 1_555 1_555
C11_2 C9_2 1_555 1_555
H5_2 C11_2 1_555 1_555
C12_2 N1_2 1_555 1_555
H6_2 C12_2 1_555 1_555
C13_2 C10_2 1_555 1_555
H8_2 C13_2 1_555 1_555
C14_2 N1_2 1_555 1_555
H9_2 C14_2 1_555 1_555
C4_2 O4_2 1_555 1_555
C7_2 C8_2 1_555 1_555
C7_2 C12_2 1_555 1_555
C13_2 C14_2 1_555 1_555
N2_2 C23_2 1_555 1_555
C15_2 H10_2 1_555 1_555
O13 C18_2 1_555 1_555
C18_2 C20_2 1_555 1_555
C20_2 C15_2 1_555 1_555
O14 C18_2 1_555 1_555
C22_2 C20_2 1_555 1_555
H12_2 C22_2 1_555 1_555
C23_2 H13_2 1_555 1_555
C25_2 C23_2 1_555 1_555
H14_2 C25_2 1_555 1_555
C26_2 N2_2 1_555 1_555
H15_2 C26_2 1_555 1_555
C27_2 C24_2 1_555 1_555
H17_2 C27_2 1_555 1_555
C28_2 N2_2 1_555 1_555
H18_2 C28_2 1_555 1_555
C21_2 C22_2 1_555 1_555
C21_2 C26_2 1_555 1_555
C24_2 C25_2 1_555 1_555
C27_2 C28_2 1_555 1_555
O9_2 Cd1_2 1_555 1_555
O12_2 Cd1_2 1_555 1_555
H11_3 C19_3 1_555 1_555
C21_3 C19_3 1_555 1_555
H12_3 C22_3 1_555 1_555
C26_3 N2_3 1_555 1_555
H15_3 C26_3 1_555 1_555
H16_3 C26_3 1_555 1_555
H17_3 C27_3 1_555 1_555
C28_3 N2_3 1_555 1_555
H18_3 C28_3 1_555 1_555
O10_2 Cd1_3 1_555 1_555
O11_2 Cd1_3 1_555 1_555
C21_3 C22_3 1_555 1_555
C21_3 C26_3 1_555 1_555
C27_3 C28_3 1_555 1_555
O11_2 C3_3 1_555 1_555
C1_3 H1_3 1_555 1_555
O3_3 C4_3 1_555 1_555
C2_3 C1_3 1_555 1_555
C3_3 C2_3 1_555 1_555
C4_3 C6_3 1_555 1_555
C6_3 C1_3 1_555 1_555
C9_3 H4_3 1_555 1_555
C10_3 C11_3 1_555 1_555
C11_3 C9_3 1_555 1_555
H5_3 C11_3 1_555 1_555
O5_2 C17_3 1_555 1_555
O6_2 C17_3 1_555 1_555
C15_3 H10_3 1_555 1_555
O7_2 C18_3 1_555 1_555
C16_3 C15_3 1_555 1_555
C17_3 C16_3 1_555 1_555
C18_3 C20_3 1_555 1_555
C20_3 C15_3 1_555 1_555
O8_2 C18_3 1_555 1_555
C23_3 H13_3 1_555 1_555
C24_3 C10_3 1_555 1_555
C25_3 C23_3 1_555 1_555
H14_3 C25_3 1_555 1_555
Cd3 O5_2 1_555 1_555
C4_3 O4_3 1_555 1_555
O6_2 Cd3 1_555 1_555
C24_3 C25_3 1_555 1_555
H2_3 C5_3 1_555 1_555
C7_3 C5_3 1_555 1_555
H3_3 C8_3 1_555 1_555
C12_3 N1_3 1_555 1_555
H6_3 C12_3 1_555 1_555
H7_3 C12_3 1_555 1_555
H8_3 C13_3 1_555 1_555
C14_3 N1_3 1_555 1_555
H9_3 C14_3 1_555 1_555
C7_3 C8_3 1_555 1_555
C7_3 C12_3 1_555 1_555
C13_3 C14_3 1_555 1_555
H2_4 C5_4 1_555 1_555
C7_4 C5_4 1_555 1_555
H3_4 C8_4 1_555 1_555
C12_4 N1_4 1_555 1_555
H6_4 C12_4 1_555 1_555
H7_4 C12_4 1_555 1_555
H8_4 C13_4 1_555 1_555
C14_4 N1_4 1_555 1_555
H9_4 C14_4 1_555 1_555
C7_4 C8_4 1_555 1_555
C7_4 C12_4 1_555 1_555
C13_4 C14_4 1_555 1_555
O1_2 C3_4 1_555 1_555
O2_2 C3_4 1_555 1_555
C1_4 H1_4 1_555 1_555
O3_4 C4_4 1_555 1_555
C2_4 C1_4 1_555 1_555
C3_4 C2_4 1_555 1_555
C4_4 C6_4 1_555 1_555
C6_4 C1_4 1_555 1_555
C9_4 H4_4 1_555 1_555
C10_4 C11_4 1_555 1_555
C11_4 C9_4 1_555 1_555
H5_4 C11_4 1_555 1_555
O12_2 C17_4 1_555 1_555
C15_4 H10_4 1_555 1_555
O13_2 C18_4 1_555 1_555
C16_4 C15_4 1_555 1_555
C17_4 C16_4 1_555 1_555
C18_4 C20_4 1_555 1_555
C20_4 C15_4 1_555 1_555
O14_2 C18_4 1_555 1_555
C23_4 H13_4 1_555 1_555
C24_4 C10_4 1_555 1_555
C25_4 C23_4 1_555 1_555
H14_4 C25_4 1_555 1_555
Cd3 O1_2 1_555 1_555
O2_2 Cd3 1_555 1_555
C4_4 O4_4 1_555 1_555
C24_4 C25_4 1_555 1_555
H11_4 C19_4 1_555 1_555
C21_4 C19_4 1_555 1_555
H12_4 C22_4 1_555 1_555
C26_4 N2_4 1_555 1_555
H15_4 C26_4 1_555 1_555
H16_4 C26_4 1_555 1_555
H17_4 C27_4 1_555 1_555
C28_4 N2_4 1_555 1_555
H18_4 C28_4 1_555 1_555
C21_4 C22_4 1_555 1_555
C21_4 C26_4 1_555 1_555
C27_4 C28_4 1_555 1_555

#END
