
###############################################################################
#
# This file contains modified crystal structure data generated from the
# MOF subset of the Cambridge Structural Database (CSD) v543 
# hosted by the Cambridge Crystallographic Data Centre (CCDC).
#
# This work is licensed under the Creative Commons
# Attribution-NonCommercial-ShareAlike 4.0 International License.
# To view a copy of this license, visit
# http://creativecommons.org/licenses/by-nc-sa/4.0/
# or send a letter to
# Creative Commons, PO Box 1866, Mountain View, CA 94042, USA.
#
# CIF created using the CSD Python API on 29 September 2022
# The structure has been converted into the P1 space group
# The structure has a 3D framework
# The original CSD entry WAPFEC is in the triclinic crystal system
# The framework has been calculated to contain at least 10.0% void space
# The void calculation uses a probe of radius 1.32A, grid spacing 0.4
#
###############################################################################

data_WAPFEC
_chemical_formula_moiety         '(C56 H32 Co2 N4 O6)n'
_symmetry_cell_setting           triclinic
_symmetry_space_group_name_H-M   'P 1'
_symmetry_Int_Tables_number      1
_space_group_name_Hall           'P 1'
loop_
_symmetry_equiv_pos_site_id
_symmetry_equiv_pos_as_xyz
1 x,y,z
_cell_length_a                   8.2444(8)
_cell_length_b                   10.7123(7)
_cell_length_c                   15.7931(7)
_cell_angle_alpha                95.329(4)
_cell_angle_beta                 97.938(6)
_cell_angle_gamma                110.416(8)
_cell_volume                     1279.62
loop_
_atom_site_label
_atom_site_type_symbol
_atom_site_fract_x
_atom_site_fract_y
_atom_site_fract_z
_atom_site_U_iso_or_equiv
_atom_site_thermal_displace_type
Co10 Co 0.16430(13) 0.59811(10) 0.01510(6) 0.0435 Uani
O1 O 0.0413(7) 0.6822(5) 0.0946(3) 0.0591 Uani
O4 O 0.0602(8) 0.6552(6) 0.9080(3) 0.0616 Uani
H3 H 0.0933 0.8056 0.2467 0.0760 Uiso
H4 H 0.0207 0.8884 0.3720 0.0800 Uiso
H15 H 0.1003 0.7463 0.7649 0.0800 Uiso
H16 H 0.0237 0.8393 0.6455 0.0750 Uiso
C5 C 0.3940(11) 0.0889(7) 0.4252(4) 0.0554 Uani
C10 C 0.4448(12) 0.0528(8) 0.3471(5) 0.0653 Uani
H2 H 0.4087 0.0829 0.2971 0.0790 Uiso
O6 O 0.2282(8) 0.4709(6) 0.9345(3) 0.0645 Uani
O7 O 0.2128(8) 0.4971(6) 0.1130(3) 0.0673 Uani
C29 C 0.1103(10) 0.3681(7) 0.8909(4) 0.0497 Uani
C30 C 0.1580(10) 0.3019(7) 0.8147(4) 0.0511 Uani
C31 C 0.0915(12) 0.3987(8) 0.1323(5) 0.0572 Uani
C33 C 0.3966(10) 0.0734(7) 0.5811(4) 0.0502 Uani
C34 C 0.2430(10) 0.1968(7) 0.6664(4) 0.0551 Uani
C35 C 0.3322(11) 0.3318(8) 0.8094(5) 0.0605 Uani
H17 H 0.4200 0.3861 0.8550 0.0730 Uiso
C36 C 0.2919(11) 0.1520(7) 0.5834(4) 0.0553 Uani
C38 C 0.0241(12) 0.2170(8) 0.7480(5) 0.0634 Uani
C39 C 0.2918(12) 0.1701(8) 0.4313(5) 0.0621 Uani
C40 C 0.4486(10) 0.0405(7) 0.5017(4) 0.0526 Uani
C41 C 0.0678(12) 0.1661(9) 0.6732(5) 0.0665 Uani
C42 C 0.1425(10) 0.3439(8) 0.2128(4) 0.0561 Uani
C43 C 0.4552(11) 0.0247(8) 0.6569(4) 0.0595 Uani
H21 H 0.4245 0.0465 0.7092 0.0720 Uiso
C44 C 0.2389(11) 0.2300(8) 0.3558(4) 0.0580 Uani
C45 C 0.3771(10) 0.2800(8) 0.7347(5) 0.0593 Uani
H22 H 0.4947 0.3005 0.7305 0.0710 Uiso
C46 C 0.3166(12) 0.3652(8) 0.2441(5) 0.0667 Uani
H23 H 0.4038 0.4188 0.2175 0.0800 Uiso
C47 C 0.2356(12) 0.1948(8) 0.5076(5) 0.0644 Uani
H24 H 0.1587 0.2409 0.5084 0.0780 Uiso
C48 C 0.3636(12) 0.3099(8) 0.3128(5) 0.0630 Uani
H25 H 0.4820 0.3257 0.3315 0.0760 Uiso
C49 C 0.0174(12) 0.2680(9) 0.2545(5) 0.0669 Uani
C50 C 0.0633(11) 0.2111(9) 0.3264(5) 0.0628 Uani
N3 N 0.3943(8) 0.7602(6) 0.0407(4) 0.0540 Uani
N4 N 0.6659(9) 0.8966(6) 0.0413(4) 0.0614 Uani
C51 C 0.8346(10) 0.9475(7) 0.0190(6) 0.0593 Uani
C52 C 0.4319(11) 0.8793(8) 0.0956(5) 0.0660 Uani
H28 H 0.3550 0.8974 0.1283 0.0790 Uiso
C53 C 0.5393(10) 0.7764(8) 0.0093(5) 0.0560 Uani
C54 C 0.5936(12) 0.9641(8) 0.0946(6) 0.0708 Uani
H29 H 0.5522 0.7121 0.9698 0.0670 Uiso
C55 C 0.8587(12) 0.9321(8) 0.9343(6) 0.0670 Uani
H31 H 0.7627 0.8874 0.8901 0.0800 Uiso
O2 O 0.7718(8) 0.5291(6) 0.0655(3) 0.0645 Uani
O3 O 0.7872(8) 0.5029(6) 0.8870(3) 0.0673 Uani
C1 C 0.8897(10) 0.6319(7) 0.1091(4) 0.0497 Uani
C3 C 0.8420(10) 0.6981(7) 0.1853(4) 0.0511 Uani
C4 C 0.9085(12) 0.6013(8) 0.8677(5) 0.0572 Uani
C6 C 0.6034(10) 0.9266(7) 0.4189(4) 0.0502 Uani
C7 C 0.7570(10) 0.8032(7) 0.3336(4) 0.0551 Uani
C8 C 0.6678(11) 0.6682(8) 0.1906(5) 0.0605 Uani
H1 H 0.5800 0.6139 0.1450 0.0730 Uiso
C9 C 0.7081(11) 0.8480(7) 0.4166(4) 0.0553 Uani
C11 C 0.9759(12) 0.7830(8) 0.2520(5) 0.0634 Uani
C12 C 0.7082(12) 0.8299(8) 0.5687(5) 0.0621 Uani
C13 C 0.5514(10) 0.9595(7) 0.4983(4) 0.0526 Uani
C14 C 0.9322(12) 0.8339(9) 0.3268(5) 0.0665 Uani
C15 C 0.8575(10) 0.6561(8) 0.7872(4) 0.0561 Uani
H6 H 0.4478 0.2879 0.0302 0.0670 Uiso
C18 C 0.5448(11) 0.9753(8) 0.3431(4) 0.0595 Uani
H7 H 0.5755 0.9535 0.2908 0.0720 Uiso
C19 C 0.7611(11) 0.7700(8) 0.6442(4) 0.0580 Uani
C21 C 0.6229(10) 0.7200(8) 0.2653(5) 0.0593 Uani
H9 H 0.5053 0.6995 0.2695 0.0710 Uiso
C22 C 0.6834(12) 0.6348(8) 0.7559(5) 0.0667 Uani
H10 H 0.5962 0.5812 0.7825 0.0800 Uiso
C23 C 0.1413(12) 0.0679(8) 0.0657(6) 0.0670 Uani
H11 H 0.2373 0.1126 0.1099 0.0800 Uiso
C25 C 0.7644(12) 0.8052(8) 0.4924(5) 0.0644 Uani
H13 H 0.8413 0.7591 0.4916 0.0780 Uiso
C26 C 0.6364(12) 0.6901(8) 0.6872(5) 0.0630 Uani
H14 H 0.5180 0.6743 0.6685 0.0760 Uiso
C27 C 0.9826(12) 0.7320(9) 0.7455(5) 0.0669 Uani
C28 C 0.9367(11) 0.7889(9) 0.6736(5) 0.0628 Uani
C32 C 0.6060(11) 0.9111(7) 0.5748(4) 0.0554 Uani
C37 C 0.5552(12) 0.9472(8) 0.6529(5) 0.0653 Uani
H18 H 0.5913 0.9171 0.7029 0.0790 Uiso
Co6 Co 0.83570(13) 0.40189(10) 0.98490(6) 0.0435 Uani
O15 O 0.9398(8) 0.3448(6) 0.0920(3) 0.0616 Uani
N1 N 0.6057(8) 0.2398(6) 0.9593(4) 0.0540 Uani
N2 N 0.3341(9) 0.1034(6) 0.9587(4) 0.0614 Uani
C2 C 0.1654(10) 0.0525(7) 0.9810(6) 0.0593 Uani
C16 C 0.5681(11) 0.1207(8) 0.9044(5) 0.0660 Uani
H5 H 0.6450 0.1026 0.8717 0.0790 Uiso
C17 C 0.4607(10) 0.2236(8) 0.9907(5) 0.0560 Uani
C20 C 0.4064(12) 0.0359(8) 0.9054(6) 0.0708 Uani
O10 O 0.9587(7) 0.3178(5) 0.9054(3) 0.0591 Uani
H19 H 0.9067 0.1944 0.7533 0.0760 Uiso
H20 H 0.9793 0.1116 0.6280 0.0800 Uiso
H26 H 0.8997 0.2537 0.2351 0.0800 Uiso
H27 H 0.9763 0.1607 0.3545 0.0750 Uiso
H8 H 0.3525 0.9483 0.8760 0.0850 Uiso
C56 C 0.0242(13) 0.9829(9) 0.9160(6) 0.0726 Uani
H32 H 0.0414 0.9703 0.8593 0.0870 Uiso
C24 C 0.9758(13) 0.0171(9) 0.0840(6) 0.0726 Uani
H12 H 0.9586 0.0297 0.1407 0.0870 Uiso
H30 H 0.6475 0.0517 0.1240 0.0850 Uiso
loop_
_atom_site_aniso_label
_atom_site_aniso_U_11
_atom_site_aniso_U_22
_atom_site_aniso_U_33
_atom_site_aniso_U_23
_atom_site_aniso_U_13
_atom_site_aniso_U_12
Co10 0.0528 0.061 0.0322 0.0136 0.0195 0.0337
O1 0.069 0.076 0.048 0.005 0.032 0.039
O4 0.081 0.079 0.035 0.024 0.008 0.039
C5 0.087 0.068 0.034 0.018 0.018 0.051
C10 0.099 0.091 0.042 0.02 0.03 0.07
O6 0.068 0.077 0.061 -0.002 0.025 0.04
O7 0.073 0.092 0.053 0.028 0.011 0.046
C29 0.071 0.071 0.033 0.015 0.025 0.05
C30 0.066 0.056 0.047 0.009 0.032 0.033
C31 0.084 0.062 0.045 0.018 0.025 0.043
C33 0.074 0.067 0.031 0.015 0.018 0.047
C34 0.073 0.071 0.046 0.017 0.023 0.05
C35 0.075 0.074 0.054 0.01 0.035 0.045
C36 0.075 0.072 0.04 0.016 0.021 0.047
C38 0.073 0.079 0.049 0.007 0.027 0.036
C39 0.085 0.078 0.048 0.015 0.03 0.052
C40 0.076 0.067 0.033 0.011 0.02 0.044
C41 0.077 0.087 0.051 0.007 0.025 0.045
C42 0.068 0.073 0.043 0.014 0.012 0.043
C43 0.089 0.082 0.033 0.022 0.022 0.055
C44 0.074 0.075 0.044 0.013 0.018 0.047
C45 0.056 0.093 0.048 0.016 0.024 0.044
C46 0.08 0.077 0.066 0.026 0.032 0.046
C47 0.083 0.09 0.05 0.018 0.026 0.061
C48 0.076 0.084 0.05 0.019 0.014 0.052
C49 0.085 0.094 0.05 0.028 0.026 0.058
C50 0.075 0.092 0.046 0.029 0.025 0.051
N3 0.054 0.066 0.054 0.014 0.024 0.03
N4 0.061 0.063 0.072 0.012 0.027 0.031
C51 0.053 0.056 0.08 0.011 0.024 0.029
C52 0.067 0.072 0.073 0.011 0.033 0.035
C53 0.051 0.064 0.06 0.01 0.025 0.024
C54 0.07 0.066 0.081 -0.005 0.031 0.028
C55 0.064 0.071 0.068 0.009 0.016 0.026
O2 0.068 0.077 0.061 -0.002 0.025 0.04
O3 0.073 0.092 0.053 0.028 0.011 0.046
C1 0.071 0.071 0.033 0.015 0.025 0.05
C3 0.066 0.056 0.047 0.009 0.032 0.033
C4 0.084 0.062 0.045 0.018 0.025 0.043
C6 0.074 0.067 0.031 0.015 0.018 0.047
C7 0.073 0.071 0.046 0.017 0.023 0.05
C8 0.075 0.074 0.054 0.01 0.035 0.045
C9 0.075 0.072 0.04 0.016 0.021 0.047
C11 0.073 0.079 0.049 0.007 0.027 0.036
C12 0.085 0.078 0.048 0.015 0.03 0.052
C13 0.076 0.067 0.033 0.011 0.02 0.044
C14 0.077 0.087 0.051 0.007 0.025 0.045
C15 0.068 0.073 0.043 0.014 0.012 0.043
C18 0.089 0.082 0.033 0.022 0.022 0.055
C19 0.074 0.075 0.044 0.013 0.018 0.047
C21 0.056 0.093 0.048 0.016 0.024 0.044
C22 0.08 0.077 0.066 0.026 0.032 0.046
C23 0.064 0.071 0.068 0.009 0.016 0.026
C25 0.083 0.09 0.05 0.018 0.026 0.061
C26 0.076 0.084 0.05 0.019 0.014 0.052
C27 0.085 0.094 0.05 0.028 0.026 0.058
C28 0.075 0.092 0.046 0.029 0.025 0.051
C32 0.087 0.068 0.034 0.018 0.018 0.051
C37 0.099 0.091 0.042 0.02 0.03 0.07
Co6 0.0528 0.061 0.0322 0.0136 0.0195 0.0337
O15 0.081 0.079 0.035 0.024 0.008 0.039
N1 0.054 0.066 0.054 0.014 0.024 0.03
N2 0.061 0.063 0.072 0.012 0.027 0.031
C2 0.053 0.056 0.08 0.011 0.024 0.029
C16 0.067 0.072 0.073 0.011 0.033 0.035
C17 0.051 0.064 0.06 0.01 0.025 0.024
C20 0.07 0.066 0.081 -0.005 0.031 0.028
O10 0.069 0.076 0.048 0.005 0.032 0.039
C56 0.076 0.076 0.073 0.004 0.031 0.032
C24 0.076 0.076 0.073 0.004 0.031 0.032
loop_
_geom_bond_atom_site_label_1
_geom_bond_atom_site_label_2
_geom_bond_site_symmetry_1
_geom_bond_site_symmetry_2
O1 Co10 1_555 1_555
C5 C10 1_555 1_555
C10 H2 1_555 1_555
O6 C29 1_555 1_555
O7 C31 1_555 1_555
C29 C30 1_555 1_555
C30 C35 1_555 1_555
C31 C42 1_555 1_555
C33 C36 1_555 1_555
C34 C36 1_555 1_555
C35 H17 1_555 1_555
C36 C47 1_555 1_555
C38 C30 1_555 1_555
C39 C5 1_555 1_555
C40 C5 1_555 1_555
C41 C34 1_555 1_555
C42 C46 1_555 1_555
C43 C33 1_555 1_555
H21 C43 1_555 1_555
C44 C39 1_555 1_555
C45 C34 1_555 1_555
H22 C45 1_555 1_555
C46 H23 1_555 1_555
C47 C39 1_555 1_555
H24 C47 1_555 1_555
C48 C44 1_555 1_555
H25 C48 1_555 1_555
C49 C42 1_555 1_555
C50 C44 1_555 1_555
Co10 O7 1_555 1_555
C33 C40 1_555 1_555
C35 C45 1_555 1_555
C38 C41 1_555 1_555
C46 C48 1_555 1_555
C49 C50 1_555 1_555
N3 C52 1_555 1_555
N4 C51 1_555 1_555
C52 H28 1_555 1_555
C53 N3 1_555 1_555
C54 N4 1_555 1_555
Co10 N3 1_555 1_555
N4 C53 1_555 1_555
C52 C54 1_555 1_555
H31 C55 1_555 1_555
O2 C1 1_555 1_555
O3 C4 1_555 1_555
C1 C3 1_555 1_555
C3 C8 1_555 1_555
C4 C15 1_555 1_555
C6 C9 1_555 1_555
C7 C9 1_555 1_555
C8 H1 1_555 1_555
C9 C25 1_555 1_555
C11 C3 1_555 1_555
C12 C19 1_555 1_555
C13 C6 1_555 1_555
C14 C7 1_555 1_555
C15 C22 1_555 1_555
C18 C6 1_555 1_555
H7 C18 1_555 1_555
C19 C26 1_555 1_555
C21 C7 1_555 1_555
H9 C21 1_555 1_555
C22 H10 1_555 1_555
C23 H11 1_555 1_555
C25 C12 1_555 1_555
H13 C25 1_555 1_555
C26 C22 1_555 1_555
H14 C26 1_555 1_555
C27 C15 1_555 1_555
C28 C19 1_555 1_555
C32 C12 1_555 1_555
C37 C32 1_555 1_555
H18 C37 1_555 1_555
Co6 O3 1_555 1_555
C8 C21 1_555 1_555
C11 C14 1_555 1_555
C13 C32 1_555 1_555
C27 C28 1_555 1_555
N1 Co6 1_555 1_555
N2 C2 1_555 1_555
C16 N1 1_555 1_555
H5 C16 1_555 1_555
C17 N1 1_555 1_555
C20 N2 1_555 1_555
O10 Co6 1_555 1_555
N2 C17 1_555 1_555
C16 C20 1_555 1_555
H32 C56 1_555 1_555
H12 C24 1_555 1_555

#END
