
###############################################################################
#
# This file contains modified crystal structure data generated from the
# MOF subset of the Cambridge Structural Database (CSD) v543 
# hosted by the Cambridge Crystallographic Data Centre (CCDC).
#
# This work is licensed under the Creative Commons
# Attribution-NonCommercial-ShareAlike 4.0 International License.
# To view a copy of this license, visit
# http://creativecommons.org/licenses/by-nc-sa/4.0/
# or send a letter to
# Creative Commons, PO Box 1866, Mountain View, CA 94042, USA.
#
# CIF created using the CSD Python API on 29 September 2022
# The structure has been converted into the P1 space group
# The structure has a 3D framework
# The original CSD entry WAPFIG is in the triclinic crystal system
# The framework has been calculated to contain at least 10.0% void space
# The void calculation uses a probe of radius 1.32A, grid spacing 0.4
#
###############################################################################

data_WAPFIG
_chemical_formula_moiety         '(C56 H32 Co2 N2 O6)n'
_symmetry_cell_setting           triclinic
_symmetry_space_group_name_H-M   'P 1'
_symmetry_Int_Tables_number      1
_space_group_name_Hall           'P 1'
loop_
_symmetry_equiv_pos_site_id
_symmetry_equiv_pos_as_xyz
1 x,y,z
_cell_length_a                   7.9744(12)
_cell_length_b                   11.1916(7)
_cell_length_c                   15.6398(12)
_cell_angle_alpha                96.225(6)
_cell_angle_beta                 99.558(10)
_cell_angle_gamma                109.738(10)
_cell_volume                     1275.04
loop_
_atom_site_label
_atom_site_type_symbol
_atom_site_fract_x
_atom_site_fract_y
_atom_site_fract_z
_atom_site_U_iso_or_equiv
_atom_site_thermal_displace_type
Co10 Co 0.66964(10) 0.09511(7) 0.01903(5) 0.0336 Uani
H9 H 0.0098 0.8448 0.3486 0.0680 Uiso
O5 O 0.3090(6) 0.0451(4) 0.0688(3) 0.0479 Uani
O7 O 0.5446(6) 0.1472(4) 0.9122(3) 0.0513 Uani
O8 O 0.5864(6) 0.1998(4) 0.1040(3) 0.0494 Uani
C29 C 0.4270(8) 0.1489(5) 0.1154(4) 0.0420 Uani
C30 C 0.1092(8) 0.4298(5) 0.4197(3) 0.0387 Uani
C31 C 0.0921(8) 0.4054(5) 0.5743(3) 0.0404 Uani
C32 C 0.3888(8) 0.0941(5) 0.8666(4) 0.0438 Uani
C33 C 0.0521(8) 0.4588(5) 0.4984(3) 0.0412 Uani
C34 C 0.1992(8) 0.3270(5) 0.5706(4) 0.0456 Uani
C35 C 0.3729(8) 0.2099(5) 0.1903(4) 0.0425 Uani
C36 C 0.2711(8) 0.3073(5) 0.3386(4) 0.0449 Uani
C37 C 0.2450(9) 0.2651(6) 0.6460(4) 0.0474 Uani
C38 C 0.2153(8) 0.3498(5) 0.4199(4) 0.0463 Uani
C39 C 0.1873(8) 0.1742(5) 0.1938(4) 0.0469 Uani
H17 H 0.0977 0.1161 0.1478 0.0560 Uiso
C40 C 0.3374(8) 0.1506(5) 0.7888(4) 0.0463 Uani
C41 C 0.2598(9) 0.3026(6) 0.4947(4) 0.0511 Uani
H18 H 0.3327 0.2530 0.4944 0.0610 Uiso
C42 C 0.1393(9) 0.2259(6) 0.2660(4) 0.0525 Uani
H19 H 0.0164 0.2061 0.2663 0.0630 Uiso
C43 C 0.0344(9) 0.4377(6) 0.6524(4) 0.0485 Uani
H20 H 0.0646 0.4051 0.7025 0.0580 Uiso
C44 C 0.1583(9) 0.1195(6) 0.7477(4) 0.0553 Uani
H21 H 0.0667 0.0593 0.7671 0.0660 Uiso
C45 C 0.5034(9) 0.2968(6) 0.2606(4) 0.0585 Uani
H22 H 0.6260 0.3236 0.2581 0.0700 Uiso
C46 C 0.0650(9) 0.4838(6) 0.3457(4) 0.0527 Uani
H23 H 0.1041 0.4658 0.2947 0.0630 Uiso
C47 C 0.4541(10) 0.3436(6) 0.3340(4) 0.0586 Uani
H24 H 0.5437 0.3999 0.3807 0.0700 Uiso
C48 C 0.1125(9) 0.1767(6) 0.6777(4) 0.0564 Uani
C49 C 0.4295(10) 0.2937(7) 0.6861(4) 0.0606 Uani
H26 H 0.5217 0.3503 0.6647 0.0730 Uiso
C50 C 0.4730(10) 0.2382(7) 0.7565(4) 0.0597 Uani
H27 H 0.5949 0.2593 0.7833 0.0720 Uiso
O2 O 0.7326(6) 0.0045(4) 0.1180(3) 0.0498 Uani
N2 N 0.9186(6) 0.2319(4) 0.0208(3) 0.0393 Uani
C52 C 0.9819(9) 0.3493(6) 0.0695(5) 0.0646 Uani
H28 H 0.9107 0.3693 0.1060 0.0770 Uiso
H32 H 0.9892 0.1241 0.9376 0.0870 Uiso
O6 O 0.2674(6) 0.9955(4) 0.8820(3) 0.0498 Uani
Co6 Co 0.33036(10) 0.90489(7) 0.98097(5) 0.0336 Uani
H16 H 0.0108 0.8759 0.0624 0.0870 Uiso
O13 O 0.4554(6) 0.8528(4) 0.0878(3) 0.0513 Uani
O1 O 0.6910(6) 0.9549(4) 0.9312(3) 0.0479 Uani
O4 O 0.4136(6) 0.8002(4) 0.8960(3) 0.0494 Uani
N1 N 0.0814(6) 0.7681(4) 0.9792(3) 0.0393 Uani
C1 C 0.5730(8) 0.8511(5) 0.8846(4) 0.0420 Uani
C2 C 0.8908(8) 0.5702(5) 0.5803(3) 0.0387 Uani
C3 C 0.9079(8) 0.5946(5) 0.4257(3) 0.0404 Uani
C4 C 0.6112(8) 0.9059(5) 0.1334(4) 0.0438 Uani
C5 C 0.9479(8) 0.5412(5) 0.5016(3) 0.0412 Uani
C6 C 0.8008(8) 0.6730(5) 0.4294(4) 0.0456 Uani
C7 C 0.6271(8) 0.7901(5) 0.8097(4) 0.0425 Uani
C8 C 0.7289(8) 0.6927(5) 0.6614(4) 0.0449 Uani
C9 C 0.7550(9) 0.7349(6) 0.3540(4) 0.0474 Uani
C10 C 0.7847(8) 0.6502(5) 0.5801(4) 0.0463 Uani
C11 C 0.8127(8) 0.8258(5) 0.8062(4) 0.0469 Uani
H1 H 0.9023 0.8839 0.8522 0.0560 Uiso
C12 C 0.6626(8) 0.8494(5) 0.2112(4) 0.0463 Uani
C13 C 0.7402(9) 0.6974(6) 0.5053(4) 0.0511 Uani
H2 H 0.6673 0.7470 0.5056 0.0610 Uiso
C14 C 0.8607(9) 0.7741(6) 0.7340(4) 0.0525 Uani
H3 H 0.9836 0.7939 0.7337 0.0630 Uiso
C15 C 0.9656(9) 0.5623(6) 0.3476(4) 0.0485 Uani
H4 H 0.9354 0.5949 0.2975 0.0580 Uiso
C17 C 0.8417(9) 0.8805(6) 0.2523(4) 0.0553 Uani
H5 H 0.9333 0.9407 0.2329 0.0660 Uiso
C18 C 0.4966(9) 0.7032(6) 0.7394(4) 0.0585 Uani
H6 H 0.3740 0.6764 0.7419 0.0700 Uiso
C19 C 0.9350(9) 0.5162(6) 0.6543(4) 0.0527 Uani
H7 H 0.8959 0.5342 0.7053 0.0630 Uiso
C20 C 0.5459(10) 0.6564(6) 0.6660(4) 0.0586 Uani
H8 H 0.4563 0.6001 0.6193 0.0700 Uiso
C21 C 0.8875(9) 0.8233(6) 0.3223(4) 0.0564 Uani
C22 C 0.0181(9) 0.6507(6) 0.9305(5) 0.0646 Uani
H10 H 0.0893 0.6307 0.8940 0.0770 Uiso
C23 C 0.5705(10) 0.7063(7) 0.3139(4) 0.0606 Uani
H11 H 0.4783 0.6497 0.3353 0.0730 Uiso
C24 C 0.5270(10) 0.7618(7) 0.2435(4) 0.0597 Uani
H12 H 0.4051 0.7407 0.2167 0.0720 Uiso
H25 H 0.9902 0.1552 0.6514 0.0680 Uiso
C27 C 0.8054(10) 0.7065(7) 0.0297(6) 0.0805 Uani
H15 H 0.7328 0.7303 0.0637 0.0970 Uiso
C28 C 0.9721(10) 0.7944(6) 0.0280(5) 0.0728 Uani
C51 C 0.2566(9) 0.4163(6) 0.0179(5) 0.0581 Uani
C53 C 0.4389(9) 0.5120(6) 0.0191(6) 0.0715 Uani
H29 H 0.4686 0.5953 0.0491 0.0860 Uiso
C54 C 0.1464(10) 0.4427(6) 0.0691(6) 0.0788 Uani
H30 H 0.1824 0.5237 0.1038 0.0950 Uiso
C16 C 0.7434(9) 0.5837(6) 0.9821(5) 0.0581 Uani
C25 C 0.5611(9) 0.4880(6) 0.9809(6) 0.0715 Uani
H13 H 0.5314 0.4047 0.9509 0.0860 Uiso
C26 C 0.8536(10) 0.5573(6) 0.9309(6) 0.0788 Uani
H14 H 0.8176 0.4763 0.8962 0.0950 Uiso
C55 C 0.1946(10) 0.2935(7) 0.9703(6) 0.0805 Uani
H31 H 0.2672 0.2697 0.9363 0.0970 Uiso
C56 C 0.0279(10) 0.2056(6) 0.9720(5) 0.0728 Uani
loop_
_atom_site_aniso_label
_atom_site_aniso_U_11
_atom_site_aniso_U_22
_atom_site_aniso_U_33
_atom_site_aniso_U_23
_atom_site_aniso_U_13
_atom_site_aniso_U_12
Co10 0.0375 0.031 0.0332 0.0096 0.0106 0.0109
O5 0.055 0.041 0.047 0.0016 0.0184 0.0151
O7 0.054 0.061 0.045 0.0264 0.0112 0.023
O8 0.056 0.046 0.048 0.0044 0.0227 0.0166
C29 0.053 0.033 0.044 0.013 0.016 0.016
C30 0.052 0.037 0.033 0.01 0.012 0.021
C31 0.052 0.039 0.034 0.013 0.012 0.018
C32 0.059 0.041 0.037 0.009 0.007 0.026
C33 0.049 0.04 0.038 0.01 0.013 0.018
C34 0.058 0.046 0.043 0.013 0.018 0.027
C35 0.046 0.038 0.044 0.006 0.019 0.012
C36 0.058 0.044 0.041 0.013 0.016 0.025
C37 0.062 0.05 0.04 0.017 0.015 0.028
C38 0.061 0.041 0.045 0.015 0.017 0.024
C39 0.053 0.044 0.046 0.005 0.016 0.019
C40 0.059 0.044 0.04 0.016 0.011 0.021
C41 0.068 0.056 0.044 0.016 0.016 0.037
C42 0.051 0.056 0.053 0.008 0.02 0.019
C43 0.066 0.05 0.041 0.015 0.021 0.029
C44 0.061 0.052 0.052 0.025 0.007 0.017
C45 0.052 0.06 0.058 0.003 0.02 0.012
C46 0.073 0.058 0.035 0.018 0.02 0.027
C47 0.064 0.056 0.05 -0.003 0.013 0.018
C48 0.06 0.062 0.052 0.022 0.005 0.028
C49 0.065 0.072 0.053 0.032 0.017 0.027
C50 0.06 0.071 0.055 0.03 0.012 0.027
O2 0.057 0.048 0.047 0.0208 0.0084 0.0199
N2 0.036 0.033 0.049 0.0061 0.0127 0.0115
C52 0.061 0.041 0.092 -0.001 0.037 0.013
O6 0.057 0.048 0.047 0.0208 0.0084 0.0199
Co6 0.0375 0.031 0.0332 0.0096 0.0106 0.0109
O13 0.054 0.061 0.045 0.0264 0.0112 0.023
O1 0.055 0.041 0.047 0.0016 0.0184 0.0151
O4 0.056 0.046 0.048 0.0044 0.0227 0.0166
N1 0.036 0.033 0.049 0.0061 0.0127 0.0115
C1 0.053 0.033 0.044 0.013 0.016 0.016
C2 0.052 0.037 0.033 0.01 0.012 0.021
C3 0.052 0.039 0.034 0.013 0.012 0.018
C4 0.059 0.041 0.037 0.009 0.007 0.026
C5 0.049 0.04 0.038 0.01 0.013 0.018
C6 0.058 0.046 0.043 0.013 0.018 0.027
C7 0.046 0.038 0.044 0.006 0.019 0.012
C8 0.058 0.044 0.041 0.013 0.016 0.025
C9 0.062 0.05 0.04 0.017 0.015 0.028
C10 0.061 0.041 0.045 0.015 0.017 0.024
C11 0.053 0.044 0.046 0.005 0.016 0.019
C12 0.059 0.044 0.04 0.016 0.011 0.021
C13 0.068 0.056 0.044 0.016 0.016 0.037
C14 0.051 0.056 0.053 0.008 0.02 0.019
C15 0.066 0.05 0.041 0.015 0.021 0.029
C17 0.061 0.052 0.052 0.025 0.007 0.017
C18 0.052 0.06 0.058 0.003 0.02 0.012
C19 0.073 0.058 0.035 0.018 0.02 0.027
C20 0.064 0.056 0.05 -0.003 0.013 0.018
C21 0.06 0.062 0.052 0.022 0.005 0.028
C22 0.061 0.041 0.092 -0.001 0.037 0.013
C23 0.065 0.072 0.053 0.032 0.017 0.027
C24 0.06 0.071 0.055 0.03 0.012 0.027
C27 0.067 0.048 0.117 -0.015 0.056 0.001
C28 0.062 0.044 0.098 -0.014 0.045 -0.004
C51 0.051 0.037 0.089 0.011 0.033 0.011
C53 0.058 0.036 0.116 0.004 0.041 0.004
C54 0.07 0.042 0.116 -0.009 0.047 0.004
C16 0.051 0.037 0.089 0.011 0.033 0.011
C25 0.058 0.036 0.116 0.004 0.041 0.004
C26 0.07 0.042 0.116 -0.009 0.047 0.004
C55 0.067 0.048 0.117 -0.015 0.056 0.001
C56 0.062 0.044 0.098 -0.014 0.045 -0.004
loop_
_geom_bond_atom_site_label_1
_geom_bond_atom_site_label_2
_geom_bond_site_symmetry_1
_geom_bond_site_symmetry_2
O5 C29 1_555 1_555
O7 C32 1_555 1_555
O8 C29 1_555 1_555
C29 C35 1_555 1_555
C30 C33 1_555 1_555
C31 C33 1_555 1_555
C32 C40 1_555 1_555
C34 C31 1_555 1_555
C35 C39 1_555 1_555
C36 C38 1_555 1_555
C37 C34 1_555 1_555
C38 C30 1_555 1_555
C39 H17 1_555 1_555
C40 C44 1_555 1_555
C41 C34 1_555 1_555
H18 C41 1_555 1_555
C42 C36 1_555 1_555
H19 C42 1_555 1_555
H20 C43 1_555 1_555
C44 H21 1_555 1_555
C45 C35 1_555 1_555
H22 C45 1_555 1_555
H23 C46 1_555 1_555
C47 C36 1_555 1_555
H24 C47 1_555 1_555
C48 C37 1_555 1_555
C49 C37 1_555 1_555
H26 C49 1_555 1_555
C50 C40 1_555 1_555
H27 C50 1_555 1_555
Co10 O8 1_555 1_555
C30 C46 1_555 1_555
C31 C43 1_555 1_555
C38 C41 1_555 1_555
C39 C42 1_555 1_555
C44 C48 1_555 1_555
C45 C47 1_555 1_555
C49 C50 1_555 1_555
Co10 O2 1_555 1_555
N2 C52 1_555 1_555
C52 H28 1_555 1_555
Co10 N2 1_555 1_555
Co6 O6 1_555 1_555
Co6 O4 1_555 1_555
O1 C1 1_555 1_555
O13 C4 1_555 1_555
O4 C1 1_555 1_555
N1 Co6 1_555 1_555
C1 C7 1_555 1_555
C2 C5 1_555 1_555
C3 C5 1_555 1_555
C4 C12 1_555 1_555
C6 C3 1_555 1_555
C7 C11 1_555 1_555
C8 C10 1_555 1_555
C9 C6 1_555 1_555
C10 C2 1_555 1_555
C11 H1 1_555 1_555
C12 C17 1_555 1_555
C13 C6 1_555 1_555
H2 C13 1_555 1_555
C14 C8 1_555 1_555
H3 C14 1_555 1_555
C15 C3 1_555 1_555
H4 C15 1_555 1_555
C17 H5 1_555 1_555
C18 C7 1_555 1_555
H6 C18 1_555 1_555
C19 C2 1_555 1_555
H7 C19 1_555 1_555
C20 C8 1_555 1_555
H8 C20 1_555 1_555
C21 C9 1_555 1_555
C22 N1 1_555 1_555
H10 C22 1_555 1_555
C23 C9 1_555 1_555
H11 C23 1_555 1_555
C24 C12 1_555 1_555
H12 C24 1_555 1_555
C10 C13 1_555 1_555
C11 C14 1_555 1_555
C17 C21 1_555 1_555
C18 C20 1_555 1_555
C23 C24 1_555 1_555
H15 C27 1_555 1_555
C51 C53 1_555 1_555
H29 C53 1_555 1_555
C54 C51 1_555 1_555
H30 C54 1_555 1_555
C27 C28 1_555 1_555
C16 C25 1_555 1_555
C25 H13 1_555 1_555
C26 C16 1_555 1_555
H14 C26 1_555 1_555
H31 C55 1_555 1_555
C55 C56 1_555 1_555

#END
