
###############################################################################
#
# This file contains modified crystal structure data generated from the
# MOF subset of the Cambridge Structural Database (CSD) v543 
# hosted by the Cambridge Crystallographic Data Centre (CCDC).
#
# This work is licensed under the Creative Commons
# Attribution-NonCommercial-ShareAlike 4.0 International License.
# To view a copy of this license, visit
# http://creativecommons.org/licenses/by-nc-sa/4.0/
# or send a letter to
# Creative Commons, PO Box 1866, Mountain View, CA 94042, USA.
#
# CIF created using the CSD Python API on 29 September 2022
# The structure has been converted into the P1 space group
# The structure has a 3D framework
# The original CSD entry WAQTAM is in the triclinic crystal system
# The framework has been calculated to contain at least 10.0% void space
# The void calculation uses a probe of radius 1.32A, grid spacing 0.4
# H atom positions have been added when not included in the experimental data
#
###############################################################################

data_WAQTAM
_chemical_formula_moiety         '(C44 H20 N4 O20 S2)n'
_symmetry_cell_setting           triclinic
_symmetry_space_group_name_H-M   'P 1'
_symmetry_Int_Tables_number      1
_space_group_name_Hall           'P 1'
loop_
_symmetry_equiv_pos_site_id
_symmetry_equiv_pos_as_xyz
1 x,y,z
_cell_length_a                   9.762(2)
_cell_length_b                   10.205(2)
_cell_length_c                   18.162(4)
_cell_angle_alpha                102.41(3)
_cell_angle_beta                 100.76(3)
_cell_angle_gamma                97.96(3)
_cell_volume                     1705.63
loop_
_atom_site_label
_atom_site_type_symbol
_atom_site_fract_x
_atom_site_fract_y
_atom_site_fract_z
O1 O 0.8417(2) 0.2528(2) 0.57703(12)
O2 O 0.8611(3) 0.1828(2) 0.68549(13)
C1 C 0.8479(3) 0.1602(3) 0.61505(17)
C2 C 0.8444(3) 0.0179(3) 0.56900(17)
H3 H 0.8006 0.0554 0.4622
Zn4 Zn 0.89628(3) 0.44188(3) 0.64582(2)
S1 S 0.57101(10) 0.80814(10) 0.16502(5)
O3 O 0.9554(3) 0.7113(3) 0.67785(14)
O4 O 0.8745(2) 0.5548(2) 0.56834(12)
O9 O 0.4452(3) 0.7489(3) 0.00123(14)
O10 O 0.6522(3) 0.9631(3) 0.33364(14)
N2 N 0.8045(3) 0.8227(2) 0.36452(13)
C3 C 0.8746(3) 0.9182(3) 0.60673(17)
H1 H 0.8937 0.9385 0.6605
C4 C 0.8767(3) 0.7868(3) 0.56490(17)
C5 C 0.8507(3) 0.7574(3) 0.48574(17)
H2 H 0.8519 0.6698 0.4580
C6 C 0.8222(3) 0.8576(3) 0.44618(17)
C7 C 0.8192(3) 0.9880(3) 0.48794(16)
C8 C 0.9056(3) 0.6788(3) 0.60754(19)
C9 C 0.7229(4) 0.8774(3) 0.31485(18)
C10 C 0.7243(4) 0.8233(3) 0.23223(18)
C11 C 0.8294(4) 0.7814(3) 0.19909(18)
H4 H 0.9203 0.7833 0.2268
C12 C 0.7856(4) 0.7345(3) 0.11803(18)
H5 H 0.8445 0.7020 0.0864
C13 C 0.6486(4) 0.7419(3) 0.09101(18)
C14 C 0.5554(4) 0.7039(4) 0.01173(18)
H10 H 0.857328 0.750918 0.341549
O5 O 0.7589(2) 0.4709(2) 0.71077(12)
O6 O 0.5810(3) 0.4829(3) 0.61520(13)
O7 O 0.0936(2) 0.5460(2) 0.80239(13)
O8 O 0.1013(2) 0.4430(2) 0.68259(11)
N1 N 0.6030(3) 0.6249(3) 0.95675(14)
C15 C 0.3842(3) 0.5650(3) 0.85353(17)
H6 H 0.3297 0.5823 0.8902
C16 C 0.5304(3) 0.5821(3) 0.87699(17)
C17 C 0.6107(3) 0.5540(3) 0.82224(18)
H7 H 0.7086 0.5628 0.8378
C18 C 0.5455(3) 0.5128(3) 0.74406(18)
C19 C 0.3994(3) 0.4959(3) 0.72139(17)
H8 H 0.3551 0.4667 0.6692
C20 C 0.3191(3) 0.5223(3) 0.77596(17)
C21 C 0.1596(3) 0.5042(3) 0.75333(18)
C22 C 0.6334(3) 0.4848(3) 0.68421(19)
H9 H 0.695929 0.59355 0.972538
Zn1 Zn 0.10372(3) 0.55812(3) 0.35418(2)
O11 O 0.1583(2) 0.7472(2) 0.42297(12)
O12 O 0.1255(2) 0.4452(2) 0.43166(12)
O13 O 0.2411(2) 0.5291(2) 0.28923(12)
O6_2 O 0.4190(3) 0.5171(3) 0.38480(13)
O7_2 O 0.9064(2) 0.4540(2) 0.19761(13)
O8_2 O 0.8987(2) 0.5570(2) 0.31741(11)
N1_2 N 0.3970(3) 0.3751(3) 0.04325(14)
C15_2 C 0.6158(3) 0.4350(3) 0.14647(17)
H6_2 H 0.6703 0.4177 0.1098
C16_2 C 0.4696(3) 0.4179(3) 0.12301(17)
C17_2 C 0.3893(3) 0.4460(3) 0.17776(18)
H7_2 H 0.2914 0.4372 0.1622
C18_2 C 0.4545(3) 0.4872(3) 0.25594(18)
C19_2 C 0.6006(3) 0.5041(3) 0.27861(17)
H8_2 H 0.6449 0.5333 0.3308
C20_2 C 0.6809(3) 0.4777(3) 0.22404(17)
C21_2 C 0.8404(3) 0.4958(3) 0.24667(18)
C22_2 C 0.3666(3) 0.5152(3) 0.31579(19)
H9_2 H 0.304071 0.40645 0.0274616
S1_2 S 0.42899(10) 0.19186(10) 0.83498(5)
O3_2 O 0.0446(3) 0.2887(3) 0.32215(14)
O9_2 O 0.5548(3) 0.2511(3) 0.99877(14)
O10_2 O 0.3478(3) 0.0369(3) 0.66636(14)
N2_2 N 0.1955(3) 0.1773(2) 0.63548(13)
C3_2 C 0.1254(3) 0.0818(3) 0.39327(17)
H1_2 H 0.1063 0.0615 0.3395
C4_2 C 0.1233(3) 0.2132(3) 0.43510(17)
C5_2 C 0.1493(3) 0.2426(3) 0.51426(17)
H2_2 H 0.1481 0.3302 0.5420
C6_2 C 0.1778(3) 0.1424(3) 0.55382(17)
C7_2 C 0.1808(3) 0.0120(3) 0.51206(16)
C8_2 C 0.0944(3) 0.3212(3) 0.39246(19)
C9_2 C 0.2771(4) 0.1226(3) 0.68515(18)
C10_2 C 0.2757(4) 0.1767(3) 0.76777(18)
C11_2 C 0.1706(4) 0.2186(3) 0.80091(18)
H4_2 H 0.0797 0.2167 0.7732
C12_2 C 0.2144(4) 0.2655(3) 0.88197(18)
H5_2 H 0.1555 0.2980 0.9136
C13_2 C 0.3514(4) 0.2581(3) 0.90899(18)
C14_2 C 0.4446(4) 0.2961(4) 0.98827(18)
H10_2 H 0.142672 0.249082 0.658451
O2_2 O 0.1389(3) 0.8172(2) 0.31451(13)
C1_2 C 0.1521(3) 0.8398(3) 0.38495(17)
C2_2 C 0.1556(3) 0.9821(3) 0.43100(17)
H3_2 H 0.1994 0.9446 0.5378
loop_
_geom_bond_atom_site_label_1
_geom_bond_atom_site_label_2
_geom_bond_site_symmetry_1
_geom_bond_site_symmetry_2
O1 C1 1_555 1_555
O2 C1 1_555 1_555
C1 C2 1_555 1_555
Zn4 O1 1_555 1_555
S1 C10 1_555 1_555
O3 C8 1_555 1_555
O4 C8 1_555 1_555
O9 C14 1_555 1_555
O10 C9 1_555 1_555
N2 C6 1_555 1_555
C3 H1 1_555 1_555
C4 C3 1_555 1_555
C5 C4 1_555 1_555
H2 C5 1_555 1_555
C6 C5 1_555 1_555
C8 C4 1_555 1_555
C9 N2 1_555 1_555
C10 C9 1_555 1_555
C11 C10 1_555 1_555
H4 C11 1_555 1_555
C12 C11 1_555 1_555
H5 C12 1_555 1_555
C13 S1 1_555 1_555
C14 C13 1_555 1_555
Zn4 O4 1_555 1_555
C6 C7 1_555 1_555
C12 C13 1_555 1_555
N2 H10 1_555 1_555
O5 C22 1_555 1_555
O6 C22 1_555 1_555
O7 C21 1_555 1_555
O8 C21 1_555 1_555
C15 H6 1_555 1_555
C16 N1 1_555 1_555
C17 C16 1_555 1_555
H7 C17 1_555 1_555
C18 C17 1_555 1_555
C19 C18 1_555 1_555
H8 C19 1_555 1_555
C20 C15 1_555 1_555
C21 C20 1_555 1_555
C22 C18 1_555 1_555
Zn4 O5 1_555 1_555
C15 C16 1_555 1_555
C19 C20 1_555 1_555
N1 H9 1_555 1_555
O11 Zn1 1_555 1_555
O12 Zn1 1_555 1_555
O13 Zn1 1_555 1_555
O13 C22_2 1_555 1_555
O6_2 C22_2 1_555 1_555
O7_2 C21_2 1_555 1_555
O8_2 C21_2 1_555 1_555
C15_2 H6_2 1_555 1_555
C16_2 N1_2 1_555 1_555
C17_2 C16_2 1_555 1_555
H7_2 C17_2 1_555 1_555
C18_2 C17_2 1_555 1_555
C19_2 C18_2 1_555 1_555
H8_2 C19_2 1_555 1_555
C20_2 C15_2 1_555 1_555
C21_2 C20_2 1_555 1_555
C22_2 C18_2 1_555 1_555
C15_2 C16_2 1_555 1_555
C19_2 C20_2 1_555 1_555
N1_2 H9_2 1_555 1_555
S1_2 C10_2 1_555 1_555
O3_2 C8_2 1_555 1_555
O12 C8_2 1_555 1_555
O9_2 C14_2 1_555 1_555
O10_2 C9_2 1_555 1_555
N2_2 C6_2 1_555 1_555
C3_2 H1_2 1_555 1_555
C4_2 C3_2 1_555 1_555
C5_2 C4_2 1_555 1_555
H2_2 C5_2 1_555 1_555
C6_2 C5_2 1_555 1_555
C8_2 C4_2 1_555 1_555
C9_2 N2_2 1_555 1_555
C10_2 C9_2 1_555 1_555
C11_2 C10_2 1_555 1_555
H4_2 C11_2 1_555 1_555
C12_2 C11_2 1_555 1_555
H5_2 C12_2 1_555 1_555
C13_2 S1_2 1_555 1_555
C14_2 C13_2 1_555 1_555
C6_2 C7_2 1_555 1_555
C12_2 C13_2 1_555 1_555
N2_2 H10_2 1_555 1_555
O11 C1_2 1_555 1_555
O2_2 C1_2 1_555 1_555
C1_2 C2_2 1_555 1_555

#END
