
###############################################################################
#
# This file contains modified crystal structure data generated from the
# MOF subset of the Cambridge Structural Database (CSD) v543 
# hosted by the Cambridge Crystallographic Data Centre (CCDC).
#
# This work is licensed under the Creative Commons
# Attribution-NonCommercial-ShareAlike 4.0 International License.
# To view a copy of this license, visit
# http://creativecommons.org/licenses/by-nc-sa/4.0/
# or send a letter to
# Creative Commons, PO Box 1866, Mountain View, CA 94042, USA.
#
# CIF created using the CSD Python API on 29 September 2022
# The structure has been converted into the P1 space group
# The structure has a 3D framework
# The original CSD entry WAQZEW is in the orthorhombic crystal system
# The framework has been calculated to contain at least 10.0% void space
# The void calculation uses a probe of radius 1.32A, grid spacing 0.4
#
###############################################################################

data_WAQZEW
_chemical_formula_moiety         '(C112 H64 In6 N16 O32)n'
_symmetry_cell_setting           triclinic
_symmetry_space_group_name_H-M   'P 1'
_symmetry_Int_Tables_number      1
_space_group_name_Hall           'P 1'
loop_
_symmetry_equiv_pos_site_id
_symmetry_equiv_pos_as_xyz
1 x,y,z
_cell_length_a                   12.2298(18)
_cell_length_b                   25.203(3)
_cell_length_c                   20.219(2)
_cell_angle_alpha                90
_cell_angle_beta                 90
_cell_angle_gamma                90
_cell_volume                     6232.05
loop_
_atom_site_label
_atom_site_type_symbol
_atom_site_fract_x
_atom_site_fract_y
_atom_site_fract_z
C2 C 0.3828(3) 0.11155(12) 0.02768(16)
C3 C 0.3174(3) 0.15023(15) 0.0566(2)
H1 H 0.2420 0.1491 0.0505
C4 C 0.3631(4) 0.19027(16) 0.09415(19)
H2 H 0.3193 0.2148 0.1161
C5 C 0.4784(4) 0.19293(16) 0.09831(18)
C6 C 0.5442(3) 0.15530(14) 0.0709(2)
H3 H 0.6197 0.1570 0.0758
C7 C 0.4958(3) 0.11423(14) 0.0353(2)
H4 H 0.5396 0.0882 0.0163
C8 C 0.6845(5) 0.42637(15) 0.3175(2)
C9 C 0.6364(4) 0.38557(16) 0.2732(2)
C10 C 0.6959(4) 0.34696(16) 0.2467(2)
H5 H 0.7709 0.3460 0.2544
C11 C 0.6476(4) 0.30763(16) 0.2073(2)
H6 H 0.6907 0.2813 0.1883
C12 C 0.5360(4) 0.30790(15) 0.1966(2)
C13 C 0.4738(4) 0.34755(17) 0.2214(2)
H7 H 0.3998 0.3491 0.2112
C14 C 0.5214(4) 0.38733(17) 0.2633(2)
H8 H 0.4785 0.4133 0.2833
N1 N 0.5365(3) 0.23495(13) 0.13344(18)
N2 N 0.4761(3) 0.26839(13) 0.15752(17)
O3 O 0.6229(2) 0.46338(9) 0.34081(12)
O4 O 0.7822(3) 0.42414(12) 0.33133(15)
In3 In 0.7500 0.5000 0.404069(15)
In1 In 0.2500 1.0000 0.904069(15)
C15 C 0.1669(3) 0.93092(13) 0.98546(16)
O5 O 0.26837(17) 0.93451(8) 0.97950(11)
O6 O 0.10464(18) 0.96206(8) 0.95370(11)
O9 O 0.3771(2) 0.96338(9) 0.84081(12)
O11 O 0.2178(3) 0.92414(12) 0.83133(15)
C20 C 0.9558(3) 0.84470(14) 0.0709(2)
H11 H 0.8803 0.8430 0.0758
H12 H 0.9604 0.9118 0.0163
C22 C 0.8155(5) 0.57363(15) 0.3175(2)
C23 C 0.8636(4) 0.61443(16) 0.2732(2)
C24 C 0.8041(4) 0.65304(16) 0.2467(2)
H13 H 0.7291 0.6540 0.2544
C25 C 0.8524(4) 0.69237(16) 0.2073(2)
H14 H 0.8093 0.7187 0.1883
C26 C 0.9640(4) 0.69210(15) 0.1966(2)
C28 C 0.9786(4) 0.61267(17) 0.2633(2)
N3 N 0.9635(3) 0.76505(13) 0.13344(18)
O7 O 0.8771(2) 0.53662(9) 0.34081(12)
O8 O 0.7178(3) 0.57586(12) 0.33133(15)
C1 C 0.6669(3) 0.56908(13) 0.48546(16)
C2_2 C 0.6172(3) 0.61155(12) 0.52768(16)
C3_2 C 0.6826(3) 0.65023(15) 0.5566(2)
H1_2 H 0.7580 0.6491 0.5505
C4_2 C 0.6369(4) 0.69027(16) 0.59415(19)
H2_2 H 0.6807 0.7148 0.6161
C5_2 C 0.5216(4) 0.69293(16) 0.59831(18)
C6_2 C 0.4558(3) 0.65530(14) 0.5709(2)
H3_2 H 0.3803 0.6570 0.5758
C7_2 C 0.5042(3) 0.61423(14) 0.5353(2)
H4_2 H 0.4604 0.5882 0.5163
C8_2 C 0.3155(5) 0.92637(15) 0.8175(2)
C9_2 C 0.3636(4) 0.88557(16) 0.7732(2)
C10_2 C 0.3041(4) 0.84696(16) 0.7467(2)
H5_2 H 0.2291 0.8460 0.7544
C11_2 C 0.3524(4) 0.80763(16) 0.7073(2)
H6_2 H 0.3093 0.7813 0.6883
C12_2 C 0.4640(4) 0.80790(15) 0.6966(2)
C13_2 C 0.5262(4) 0.84755(17) 0.7214(2)
H7_2 H 0.6002 0.8491 0.7112
C14_2 C 0.4786(4) 0.88733(17) 0.7633(2)
H8_2 H 0.5215 0.9133 0.7833
N1_2 N 0.4635(3) 0.73495(13) 0.63344(18)
N2_2 N 0.5239(3) 0.76839(13) 0.65752(17)
O1 O 0.76837(17) 0.56549(8) 0.47950(11)
O2 O 0.60464(18) 0.53794(8) 0.45370(11)
C15_2 C 0.8331(3) 0.43092(13) 0.48546(16)
C16 C 0.8828(3) 0.38845(12) 0.52768(16)
C17 C 0.8174(3) 0.34977(15) 0.5566(2)
H9 H 0.7420 0.3509 0.5505
C18 C 0.8631(4) 0.30973(16) 0.59415(19)
H10 H 0.8193 0.2852 0.6161
C19 C 0.9784(4) 0.30707(16) 0.59831(18)
C21 C 0.9958(3) 0.38577(14) 0.5353(2)
C27 C 0.9738(4) 0.15245(17) 0.7214(2)
H15 H 0.8998 0.1509 0.7112
H16 H 0.9785 0.0867 0.7833
N4 N 0.9761(3) 0.23161(13) 0.65752(17)
O5_2 O 0.73163(17) 0.43451(8) 0.47950(11)
O6_2 O 0.89536(18) 0.46206(8) 0.45370(11)
C1_2 C 0.3331(3) 0.06908(13) 0.98546(16)
In1_2 In 0.2500 0.0000 0.904069(15)
O1_2 O 0.23163(17) 0.06549(8) 0.97950(11)
O2_2 O 0.39536(18) 0.03794(8) 0.95370(11)
O10 O 0.1229(2) 0.03662(9) 0.84081(12)
O12 O 0.2822(3) 0.07586(12) 0.83133(15)
C20_2 C 0.0442(3) 0.34470(14) 0.5709(2)
H11_2 H 0.1197 0.3430 0.5758
H12_2 H 0.0396 0.4118 0.5163
C22_2 C 0.1845(5) 0.07363(15) 0.8175(2)
C23_2 C 0.1364(4) 0.11443(16) 0.7732(2)
C24_2 C 0.1959(4) 0.15304(16) 0.7467(2)
H13_2 H 0.2709 0.1540 0.7544
C25_2 C 0.1476(4) 0.19237(16) 0.7073(2)
H14_2 H 0.1907 0.2187 0.6883
C26_2 C 0.0360(4) 0.19210(15) 0.6966(2)
C28_2 C 0.0214(4) 0.11267(17) 0.7633(2)
N3_2 N 0.0365(3) 0.26505(13) 0.63344(18)
C16_2 C 0.1172(3) 0.88845(12) 0.02768(16)
C17_2 C 0.1826(3) 0.84977(15) 0.0566(2)
H9_2 H 0.2580 0.8509 0.0505
C18_2 C 0.1369(4) 0.80973(16) 0.09415(19)
H10_2 H 0.1807 0.7852 0.1161
C19_2 C 0.0216(4) 0.80707(16) 0.09831(18)
C21_2 C 0.0042(3) 0.88577(14) 0.0353(2)
C27_2 C 0.0262(4) 0.65245(17) 0.2214(2)
H15_2 H 0.1002 0.6509 0.2112
H16_2 H 0.0215 0.5867 0.2833
N4_2 N 0.0239(3) 0.73161(13) 0.15752(17)
C1_3 C 0.3331(3) 0.43092(13) 0.51454(16)
C2_3 C 0.3828(3) 0.38845(12) 0.47232(16)
C3_3 C 0.3174(3) 0.34977(15) 0.4434(2)
H1_3 H 0.2420 0.3509 0.4495
C4_3 C 0.3631(4) 0.30973(16) 0.40585(19)
H2_3 H 0.3193 0.2852 0.3839
C5_3 C 0.4784(4) 0.30707(16) 0.40169(18)
C6_3 C 0.5442(3) 0.34470(14) 0.4291(2)
H3_3 H 0.6197 0.3430 0.4242
C7_3 C 0.4958(3) 0.38577(14) 0.4647(2)
H4_3 H 0.5396 0.4118 0.4837
C8_3 C 0.6845(5) 0.07363(15) 0.1825(2)
C9_3 C 0.6364(4) 0.11443(16) 0.2268(2)
C10_3 C 0.6959(4) 0.15304(16) 0.2533(2)
H5_3 H 0.7709 0.1540 0.2456
C11_3 C 0.6476(4) 0.19237(16) 0.2927(2)
H6_3 H 0.6907 0.2187 0.3117
C12_3 C 0.5360(4) 0.19210(15) 0.3034(2)
C13_3 C 0.4738(4) 0.15245(17) 0.2786(2)
H7_3 H 0.3998 0.1509 0.2888
C14_3 C 0.5214(4) 0.11267(17) 0.2367(2)
H8_3 H 0.4785 0.0867 0.2167
In1_3 In 0.2500 0.5000 0.595931(15)
N1_3 N 0.5365(3) 0.26505(13) 0.36656(18)
N2_3 N 0.4761(3) 0.23161(13) 0.34248(17)
O1_3 O 0.23163(17) 0.43451(8) 0.52050(11)
O2_3 O 0.39536(18) 0.46206(8) 0.54630(11)
O3_2 O 0.6229(2) 0.03662(9) 0.15919(12)
O4_2 O 0.7822(3) 0.07586(12) 0.16867(15)
C15_3 C 0.1669(3) 0.56908(13) 0.51454(16)
C16_3 C 0.1172(3) 0.61155(12) 0.47232(16)
C17_3 C 0.1826(3) 0.65023(15) 0.4434(2)
H9_3 H 0.2580 0.6491 0.4495
C18_3 C 0.1369(4) 0.69027(16) 0.40585(19)
H10_3 H 0.1807 0.7148 0.3839
C19_3 C 0.0216(4) 0.69293(16) 0.40169(18)
C21_3 C 0.0042(3) 0.61423(14) 0.4647(2)
C27_3 C 0.0262(4) 0.84755(17) 0.2786(2)
H15_3 H 0.1002 0.8491 0.2888
H16_3 H 0.0215 0.9133 0.2167
N4_3 N 0.0239(3) 0.76839(13) 0.34248(17)
O5_3 O 0.26837(17) 0.56549(8) 0.52050(11)
O6_3 O 0.10464(18) 0.53794(8) 0.54630(11)
In3_2 In 0.7500 -0.0000 0.095931(15)
O9_2 O 0.3771(2) 0.53662(9) 0.65919(12)
O10_2 O 0.1229(2) 0.46338(9) 0.65919(12)
O11_2 O 0.2178(3) 0.57586(12) 0.66867(15)
O12_2 O 0.2822(3) 0.42414(12) 0.66867(15)
C20_3 C 0.0442(3) 0.15530(14) 0.9291(2)
H11_3 H 0.1197 0.1570 0.9242
H12_3 H 0.0396 0.0882 0.9837
C22_3 C 0.1845(5) 0.42637(15) 0.6825(2)
C23_3 C 0.1364(4) 0.38557(16) 0.7268(2)
C24_3 C 0.1959(4) 0.34696(16) 0.7533(2)
H13_3 H 0.2709 0.3460 0.7456
C25_3 C 0.1476(4) 0.30763(16) 0.7927(2)
H14_3 H 0.1907 0.2813 0.8117
C26_3 C 0.0360(4) 0.30790(15) 0.8034(2)
C28_3 C 0.0214(4) 0.38733(17) 0.7367(2)
N3_3 N 0.0365(3) 0.23495(13) 0.86656(18)
C15_4 C 0.8331(3) 0.06908(13) 0.01454(16)
O5_4 O 0.73163(17) 0.06549(8) 0.02050(11)
O6_4 O 0.89536(18) 0.03794(8) 0.04630(11)
C2_4 C 0.6172(3) 0.88845(12) 0.97232(16)
C3_4 C 0.6826(3) 0.84977(15) 0.9434(2)
H1_4 H 0.7580 0.8509 0.9495
C4_4 C 0.6369(4) 0.80973(16) 0.90585(19)
H2_4 H 0.6807 0.7852 0.8839
C5_4 C 0.5216(4) 0.80707(16) 0.90169(18)
C6_4 C 0.4558(3) 0.84470(14) 0.9291(2)
H3_4 H 0.3803 0.8430 0.9242
C7_4 C 0.5042(3) 0.88577(14) 0.9647(2)
H4_4 H 0.4604 0.9118 0.9837
C8_4 C 0.3155(5) 0.57363(15) 0.6825(2)
C9_4 C 0.3636(4) 0.61443(16) 0.7268(2)
C10_4 C 0.3041(4) 0.65304(16) 0.7533(2)
H5_4 H 0.2291 0.6540 0.7456
C11_4 C 0.3524(4) 0.69237(16) 0.7927(2)
H6_4 H 0.3093 0.7187 0.8117
C12_4 C 0.4640(4) 0.69210(15) 0.8034(2)
C13_4 C 0.5262(4) 0.65245(17) 0.7786(2)
H7_4 H 0.6002 0.6509 0.7888
C14_4 C 0.4786(4) 0.61267(17) 0.7367(2)
H8_4 H 0.5215 0.5867 0.7167
N1_4 N 0.4635(3) 0.76505(13) 0.86656(18)
N2_4 N 0.5239(3) 0.73161(13) 0.84248(17)
In3_3 In 0.7500 1.0000 0.095931(15)
C20_4 C 0.9558(3) 0.65530(14) 0.4291(2)
H11_4 H 0.8803 0.6570 0.4242
H12_4 H 0.9604 0.5882 0.4837
C22_4 C 0.8155(5) 0.92637(15) 0.1825(2)
C23_4 C 0.8636(4) 0.88557(16) 0.2268(2)
C24_4 C 0.8041(4) 0.84696(16) 0.2533(2)
H13_4 H 0.7291 0.8460 0.2456
C25_4 C 0.8524(4) 0.80763(16) 0.2927(2)
H14_4 H 0.8093 0.7813 0.3117
C26_4 C 0.9640(4) 0.80790(15) 0.3034(2)
C28_4 C 0.9786(4) 0.88733(17) 0.2367(2)
N3_4 N 0.9635(3) 0.73495(13) 0.36656(18)
O7_2 O 0.8771(2) 0.96338(9) 0.15919(12)
O8_2 O 0.7178(3) 0.92414(12) 0.16867(15)
C1_4 C 0.6669(3) 0.93092(13) 0.01454(16)
O1_4 O 0.76837(17) 0.93451(8) 0.02050(11)
O2_4 O 0.60464(18) 0.96206(8) 0.04630(11)
C16_4 C 0.8828(3) 0.11155(12) 0.97232(16)
C17_4 C 0.8174(3) 0.15023(15) 0.9434(2)
H9_4 H 0.7420 0.1491 0.9495
C18_4 C 0.8631(4) 0.19027(16) 0.90585(19)
H10_4 H 0.8193 0.2148 0.8839
C19_4 C 0.9784(4) 0.19293(16) 0.90169(18)
C21_4 C 0.9958(3) 0.11423(14) 0.9647(2)
C27_4 C 0.9738(4) 0.34755(17) 0.7786(2)
H15_4 H 0.8998 0.3491 0.7888
H16_4 H 0.9785 0.4133 0.7167
N4_4 N 0.9761(3) 0.26839(13) 0.84248(17)
loop_
_geom_bond_atom_site_label_1
_geom_bond_atom_site_label_2
_geom_bond_site_symmetry_1
_geom_bond_site_symmetry_2
C2 C3 1_555 1_555
C3 H1 1_555 1_555
C4 C3 1_555 1_555
H2 C4 1_555 1_555
C5 C4 1_555 1_555
C6 C5 1_555 1_555
H3 C6 1_555 1_555
C7 C2 1_555 1_555
H4 C7 1_555 1_555
C8 C9 1_555 1_555
C9 C10 1_555 1_555
C10 H5 1_555 1_555
C11 C10 1_555 1_555
H6 C11 1_555 1_555
C12 C11 1_555 1_555
C13 C12 1_555 1_555
H7 C13 1_555 1_555
C14 C9 1_555 1_555
H8 C14 1_555 1_555
N1 C5 1_555 1_555
N2 C12 1_555 1_555
O3 C8 1_555 1_555
O4 C8 1_555 1_555
In3 O3 1_555 1_555
C6 C7 1_555 1_555
C13 C14 1_555 1_555
N1 N2 1_555 1_555
O4 In3 1_555 1_555
O5 In1 1_555 1_555
O6 In1 1_555 1_555
O9 In1 1_555 1_555
O11 In1 1_555 1_555
C15 O5 1_555 1_555
C15 O6 1_555 1_555
H11 C20 1_555 1_555
C22 C23 1_555 1_555
C23 C24 1_555 1_555
C24 H13 1_555 1_555
C25 C24 1_555 1_555
H14 C25 1_555 1_555
C26 C25 1_555 1_555
C28 C23 1_555 1_555
O7 C22 1_555 1_555
O8 C22 1_555 1_555
In3 O7 1_555 1_555
O8 In3 1_555 1_555
C1 C2_2 1_555 1_555
C2_2 C3_2 1_555 1_555
C3_2 H1_2 1_555 1_555
C4_2 C3_2 1_555 1_555
H2_2 C4_2 1_555 1_555
C5_2 C4_2 1_555 1_555
C6_2 C5_2 1_555 1_555
H3_2 C6_2 1_555 1_555
C7_2 C2_2 1_555 1_555
H4_2 C7_2 1_555 1_555
C8_2 C9_2 1_555 1_555
C9_2 C10_2 1_555 1_555
C10_2 H5_2 1_555 1_555
C11_2 C10_2 1_555 1_555
H6_2 C11_2 1_555 1_555
C12_2 C11_2 1_555 1_555
C13_2 C12_2 1_555 1_555
H7_2 C13_2 1_555 1_555
C14_2 C9_2 1_555 1_555
H8_2 C14_2 1_555 1_555
In3 O1 1_555 1_555
N1_2 C5_2 1_555 1_555
N2_2 C12_2 1_555 1_555
O1 C1 1_555 1_555
O2 C1 1_555 1_555
O9 C8_2 1_555 1_555
O11 C8_2 1_555 1_555
C15_2 C16 1_555 1_555
C16 C17 1_555 1_555
C17 H9 1_555 1_555
C18 C17 1_555 1_555
H10 C18 1_555 1_555
C19 C18 1_555 1_555
C21 C16 1_555 1_555
H15 C27 1_555 1_555
O5_2 In3 1_555 1_555
O6_2 In3 1_555 1_555
C6_2 C7_2 1_555 1_555
C13_2 C14_2 1_555 1_555
In3 O2 1_555 1_555
N1_2 N2_2 1_555 1_555
C15_2 O5_2 1_555 1_555
C15_2 O6_2 1_555 1_555
In1_2 O1_2 1_555 1_555
O1_2 C1_2 1_555 1_555
O2_2 C1_2 1_555 1_555
O10 In1_2 1_555 1_555
O12 In1_2 1_555 1_555
In1_2 O2_2 1_555 1_555
H11_2 C20_2 1_555 1_555
C22_2 C23_2 1_555 1_555
C23_2 C24_2 1_555 1_555
C24_2 H13_2 1_555 1_555
C25_2 C24_2 1_555 1_555
H14_2 C25_2 1_555 1_555
C26_2 C25_2 1_555 1_555
C28_2 C23_2 1_555 1_555
O10 C22_2 1_555 1_555
O12 C22_2 1_555 1_555
C16_2 C17_2 1_555 1_555
C17_2 H9_2 1_555 1_555
C18_2 C17_2 1_555 1_555
H10_2 C18_2 1_555 1_555
C19_2 C18_2 1_555 1_555
C21_2 C16_2 1_555 1_555
H15_2 C27_2 1_555 1_555
C1_3 C2_3 1_555 1_555
C2_3 C3_3 1_555 1_555
C3_3 H1_3 1_555 1_555
C4_3 C3_3 1_555 1_555
H2_3 C4_3 1_555 1_555
C5_3 C4_3 1_555 1_555
C6_3 C5_3 1_555 1_555
H3_3 C6_3 1_555 1_555
C7_3 C2_3 1_555 1_555
H4_3 C7_3 1_555 1_555
C8_3 C9_3 1_555 1_555
C9_3 C10_3 1_555 1_555
C10_3 H5_3 1_555 1_555
C11_3 C10_3 1_555 1_555
H6_3 C11_3 1_555 1_555
C12_3 C11_3 1_555 1_555
C13_3 C12_3 1_555 1_555
H7_3 C13_3 1_555 1_555
C14_3 C9_3 1_555 1_555
H8_3 C14_3 1_555 1_555
In1_3 O1_3 1_555 1_555
N1_3 C5_3 1_555 1_555
N2_3 C12_3 1_555 1_555
O1_3 C1_3 1_555 1_555
O2_3 C1_3 1_555 1_555
O3_2 C8_3 1_555 1_555
O4_2 C8_3 1_555 1_555
C15_3 C16_3 1_555 1_555
C16_3 C17_3 1_555 1_555
C17_3 H9_3 1_555 1_555
C18_3 C17_3 1_555 1_555
H10_3 C18_3 1_555 1_555
C19_3 C18_3 1_555 1_555
C21_3 C16_3 1_555 1_555
H15_3 C27_3 1_555 1_555
O5_3 In1_3 1_555 1_555
O6_3 In1_3 1_555 1_555
In3_2 O3_2 1_555 1_555
O9_2 In1_3 1_555 1_555
O10_2 In1_3 1_555 1_555
O11_2 In1_3 1_555 1_555
O12_2 In1_3 1_555 1_555
C6_3 C7_3 1_555 1_555
C13_3 C14_3 1_555 1_555
In1_3 O2_3 1_555 1_555
N1_3 N2_3 1_555 1_555
O4_2 In3_2 1_555 1_555
C15_3 O5_3 1_555 1_555
C15_3 O6_3 1_555 1_555
H11_3 C20_3 1_555 1_555
C22_3 C23_3 1_555 1_555
C23_3 C24_3 1_555 1_555
C24_3 H13_3 1_555 1_555
C25_3 C24_3 1_555 1_555
H14_3 C25_3 1_555 1_555
C26_3 C25_3 1_555 1_555
C28_3 C23_3 1_555 1_555
O10_2 C22_3 1_555 1_555
O12_2 C22_3 1_555 1_555
O5_4 In3_2 1_555 1_555
O6_4 In3_2 1_555 1_555
C15_4 O5_4 1_555 1_555
C15_4 O6_4 1_555 1_555
C2_4 C3_4 1_555 1_555
C3_4 H1_4 1_555 1_555
C4_4 C3_4 1_555 1_555
H2_4 C4_4 1_555 1_555
C5_4 C4_4 1_555 1_555
C6_4 C5_4 1_555 1_555
H3_4 C6_4 1_555 1_555
C7_4 C2_4 1_555 1_555
H4_4 C7_4 1_555 1_555
C8_4 C9_4 1_555 1_555
C9_4 C10_4 1_555 1_555
C10_4 H5_4 1_555 1_555
C11_4 C10_4 1_555 1_555
H6_4 C11_4 1_555 1_555
C12_4 C11_4 1_555 1_555
C13_4 C12_4 1_555 1_555
H7_4 C13_4 1_555 1_555
C14_4 C9_4 1_555 1_555
H8_4 C14_4 1_555 1_555
N1_4 C5_4 1_555 1_555
N2_4 C12_4 1_555 1_555
O9_2 C8_4 1_555 1_555
O11_2 C8_4 1_555 1_555
C6_4 C7_4 1_555 1_555
C13_4 C14_4 1_555 1_555
N1_4 N2_4 1_555 1_555
H11_4 C20_4 1_555 1_555
C22_4 C23_4 1_555 1_555
C23_4 C24_4 1_555 1_555
C24_4 H13_4 1_555 1_555
C25_4 C24_4 1_555 1_555
H14_4 C25_4 1_555 1_555
C26_4 C25_4 1_555 1_555
C28_4 C23_4 1_555 1_555
O7_2 C22_4 1_555 1_555
O8_2 C22_4 1_555 1_555
In3_3 O7_2 1_555 1_555
O8_2 In3_3 1_555 1_555
In3_3 O1_4 1_555 1_555
O1_4 C1_4 1_555 1_555
O2_4 C1_4 1_555 1_555
In3_3 O2_4 1_555 1_555
C16_4 C17_4 1_555 1_555
C17_4 H9_4 1_555 1_555
C18_4 C17_4 1_555 1_555
H10_4 C18_4 1_555 1_555
C19_4 C18_4 1_555 1_555
C21_4 C16_4 1_555 1_555
H15_4 C27_4 1_555 1_555

#END
