
###############################################################################
#
# This file contains modified crystal structure data generated from the
# MOF subset of the Cambridge Structural Database (CSD) v543 
# hosted by the Cambridge Crystallographic Data Centre (CCDC).
#
# This work is licensed under the Creative Commons
# Attribution-NonCommercial-ShareAlike 4.0 International License.
# To view a copy of this license, visit
# http://creativecommons.org/licenses/by-nc-sa/4.0/
# or send a letter to
# Creative Commons, PO Box 1866, Mountain View, CA 94042, USA.
#
# CIF created using the CSD Python API on 29 September 2022
# The structure has been converted into the P1 space group
# The structure has a 3D framework
# The original CSD entry WASBUR is in the triclinic crystal system
# The framework has been calculated to contain at least 10.0% void space
# The void calculation uses a probe of radius 1.32A, grid spacing 0.4
# H atom positions have been added when not included in the experimental data
# Generated hydrogen atom positions removed from atoms on special positions
#
###############################################################################

data_WASBUR
_chemical_formula_moiety         '(C18 H28 O16 Y2)n'
_symmetry_cell_setting           triclinic
_symmetry_space_group_name_H-M   'P 1'
_symmetry_Int_Tables_number      1
_space_group_name_Hall           'P 1'
loop_
_symmetry_equiv_pos_site_id
_symmetry_equiv_pos_as_xyz
1 x,y,z
_cell_length_a                   9.6210(19)
_cell_length_b                   9.918(2)
_cell_length_c                   11.149(2)
_cell_angle_alpha                77.87(3)
_cell_angle_beta                 80.29(3)
_cell_angle_gamma                79.96(3)
_cell_volume                     1014.49
loop_
_atom_site_label
_atom_site_type_symbol
_atom_site_fract_x
_atom_site_fract_y
_atom_site_fract_z
_atom_site_U_iso_or_equiv
_atom_site_thermal_displace_type
O4 O 0.0906(3) 0.3435(3) 0.5675(3) 0.0365 Uani
C4 C 0.2072(4) 0.0532(4) 0.5977(4) 0.0351 Uani
H3 H 0.270490 0.114268 0.603930 0.0420 Uiso
C5 C 0.0691(4) 0.1037(4) 0.5948(4) 0.0355 Uani
H4 H 0.004487 0.038787 0.603509 0.0430 Uiso
C6 C 0.0097(4) 0.2543(4) 0.5790(3) 0.0326 Uani
Y4 Y 0.24380(3) 0.50090(3) 0.50978(3) 0.0304 Uani
O1 O 0.3851(3) 0.6373(3) 0.5503(3) 0.0382 Uani
O2 O 0.6009(3) 0.6961(3) 0.5418(3) 0.0384 Uani
C1 C 0.4667(4) 0.7211(4) 0.5584(3) 0.0317 Uani
C2 C 0.4041(4) 0.8608(4) 0.5857(4) 0.0354 Uani
H1 H 0.466247 0.918867 0.599695 0.0430 Uiso
C3 C 0.2639(4) 0.9096(4) 0.5918(4) 0.0336 Uani
H2 H 0.199455 0.846931 0.592267 0.0400 Uiso
O5 O 0.1914(3) 0.4711(3) 0.3113(3) 0.0378 Uani
O6 O 0.3808(3) 0.5712(3) 0.3058(3) 0.0371 Uani
C7 C 0.3031(4) 0.5182(5) 0.2528(4) 0.0375 Uani
C8 C 0.3438(5) 0.5039(5) 0.1209(4) 0.0414 Uani
H5 H 0.273982 0.487450 0.076772 0.0500 Uiso
C9 C 0.4780(5) 0.5137(5) 0.0620(4) 0.0405 Uani
H6 H 0.544981 0.539448 0.103518 0.0490 Uiso
O7 O 0.3401(3) 0.3891(3) 0.6979(3) 0.0427 Uani
O8 O 0.0798(3) 0.5853(4) 0.6737(3) 0.0467 Uani
O13 O 0.1230(3) 0.7182(3) 0.4235(3) 0.0400 Uani
Y7 Y 0.75620(3) 0.49910(3) 0.49022(3) 0.0304 Uani
O18 O 0.3991(3) 0.3039(3) 0.4582(3) 0.0384 Uani
O9 O 0.8086(3) 0.5289(3) 0.6887(3) 0.0378 Uani
O10 O 0.6192(3) 0.4288(3) 0.6942(3) 0.0371 Uani
C10 C 0.6969(4) 0.4818(5) 0.7472(4) 0.0375 Uani
C11 C 0.6562(5) 0.4961(5) 0.8791(4) 0.0414 Uani
H7 H 0.726018 0.512550 0.923228 0.0500 Uiso
C12 C 0.5220(5) 0.4863(5) 0.9380(4) 0.0405 Uani
H8 H 0.455019 0.460552 0.896482 0.0490 Uiso
O3 O 0.8770(3) 0.2818(3) 0.5765(3) 0.0400 Uani
O11 O 0.6149(3) 0.3627(3) 0.4497(3) 0.0382 Uani
C13 C 0.5333(4) 0.2789(4) 0.4416(3) 0.0317 Uani
C14 C 0.5959(4) 0.1392(4) 0.4143(4) 0.0354 Uani
H9 H 0.533753 0.081133 0.400305 0.0430 Uiso
C15 C 0.7361(4) 0.0904(4) 0.4082(4) 0.0336 Uani
H10 H 0.800545 0.153069 0.407733 0.0400 Uiso
O15 O 0.6599(3) 0.6109(3) 0.3021(3) 0.0427 Uani
O16 O 0.9202(3) 0.4147(4) 0.3263(3) 0.0467 Uani
O20 O 0.9094(3) 0.6565(3) 0.4325(3) 0.0365 Uani
C16 C 0.7928(4) 0.9468(4) 0.4023(4) 0.0351 Uani
H11 H 0.729510 0.885732 0.396070 0.0420 Uiso
C17 C 0.9309(4) 0.8963(4) 0.4052(4) 0.0355 Uani
H12 H 0.995513 0.961213 0.396491 0.0430 Uiso
C18 C 0.9903(4) 0.7457(4) 0.4210(3) 0.0326 Uani
H16 H 0.991142 0.542818 0.685737 . .
H16_2 H 0.0088582 0.457182 0.314263 . .
loop_
_atom_site_aniso_label
_atom_site_aniso_U_11
_atom_site_aniso_U_22
_atom_site_aniso_U_33
_atom_site_aniso_U_23
_atom_site_aniso_U_13
_atom_site_aniso_U_12
O4 0.0346 0.0317 0.0422 -0.0132 -0.0027 0.0034
C4 0.0335 0.033 0.038 -0.0135 -0.0053 0.0065
C5 0.0335 0.0309 0.0409 -0.0129 -0.0047 0.006
C6 0.0349 0.0296 0.0316 -0.0114 -0.0056 0.0082
Y4 0.0283 0.0288 0.0333 -0.0124 -0.00455 0.00661
O1 0.0359 0.0324 0.0474 -0.0148 -0.0114 0.0062
O2 0.0312 0.0347 0.0475 -0.0143 -0.0045 0.007
C1 0.0322 0.0304 0.0324 -0.0133 -0.0069 0.0069
C2 0.033 0.0291 0.0436 -0.0132 -0.0079 0.0075
C3 0.0315 0.0321 0.0363 -0.0118 -0.0054 0.0048
O5 0.0333 0.0427 0.0371 -0.0146 -0.0047 0.0038
O6 0.0356 0.0381 0.0364 -0.0126 -0.0054 0.0052
C7 0.0337 0.039 0.0363 -0.0119 -0.0045 0.0097
C8 0.04 0.047 0.0353 -0.0131 -0.0037 0.0037
C9 0.042 0.041 0.0368 -0.0129 -0.002 0.0026
O7 0.0405 0.0441 0.0418 -0.0098 -0.0081 0.0033
O8 0.0356 0.056 0.0528 -0.0305 -0.0022 0.0029
O13 0.0296 0.0367 0.0537 -0.0149 -0.0109 0.0082
Y7 0.0283 0.0288 0.0333 -0.0124 -0.00455 0.00661
O18 0.0312 0.0347 0.0475 -0.0143 -0.0045 0.007
O9 0.0333 0.0427 0.0371 -0.0146 -0.0047 0.0038
O10 0.0356 0.0381 0.0364 -0.0126 -0.0054 0.0052
C10 0.0337 0.039 0.0363 -0.0119 -0.0045 0.0097
C11 0.04 0.047 0.0353 -0.0131 -0.0037 0.0037
C12 0.042 0.041 0.0368 -0.0129 -0.002 0.0026
O3 0.0296 0.0367 0.0537 -0.0149 -0.0109 0.0082
O11 0.0359 0.0324 0.0474 -0.0148 -0.0114 0.0062
C13 0.0322 0.0304 0.0324 -0.0133 -0.0069 0.0069
C14 0.033 0.0291 0.0436 -0.0132 -0.0079 0.0075
C15 0.0315 0.0321 0.0363 -0.0118 -0.0054 0.0048
O15 0.0405 0.0441 0.0418 -0.0098 -0.0081 0.0033
O16 0.0356 0.056 0.0528 -0.0305 -0.0022 0.0029
O20 0.0346 0.0317 0.0422 -0.0132 -0.0027 0.0034
C16 0.0335 0.033 0.038 -0.0135 -0.0053 0.0065
C17 0.0335 0.0309 0.0409 -0.0129 -0.0047 0.006
C18 0.0349 0.0296 0.0316 -0.0114 -0.0056 0.0082
loop_
_geom_bond_atom_site_label_1
_geom_bond_atom_site_label_2
_geom_bond_site_symmetry_1
_geom_bond_site_symmetry_2
O4 C6 1_555 1_555
H3 C4 1_555 1_555
C5 C4 1_555 1_555
H4 C5 1_555 1_555
C6 C5 1_555 1_555
Y4 O4 1_555 1_555
Y4 O1 1_555 1_555
O1 C1 1_555 1_555
O2 C1 1_555 1_555
C1 C2 1_555 1_555
C2 H1 1_555 1_555
C3 C2 1_555 1_555
H2 C3 1_555 1_555
O5 Y4 1_555 1_555
O6 Y4 1_555 1_555
C7 O5 1_555 1_555
C8 C7 1_555 1_555
H5 C8 1_555 1_555
C9 C8 1_555 1_555
H6 C9 1_555 1_555
O7 Y4 1_555 1_555
O8 Y4 1_555 1_555
O13 Y4 1_555 1_555
Y7 O2 1_555 1_555
O18 Y4 1_555 1_555
O6 C7 1_555 1_555
O9 C10 1_555 1_555
O10 C10 1_555 1_555
C10 C11 1_555 1_555
C11 H7 1_555 1_555
H8 C12 1_555 1_555
Y7 O9 1_555 1_555
O10 Y7 1_555 1_555
C11 C12 1_555 1_555
Y7 O3 1_555 1_555
O11 Y7 1_555 1_555
O18 C13 1_555 1_555
C13 O11 1_555 1_555
C14 C13 1_555 1_555
H9 C14 1_555 1_555
C15 C14 1_555 1_555
H10 C15 1_555 1_555
O15 Y7 1_555 1_555
O16 Y7 1_555 1_555
O20 Y7 1_555 1_555
O20 C18 1_555 1_555
H11 C16 1_555 1_555
C17 C16 1_555 1_555
H12 C17 1_555 1_555
C17 C18 1_555 1_555

#END
