
###############################################################################
#
# This file contains modified crystal structure data generated from the
# MOF subset of the Cambridge Structural Database (CSD) v543 
# hosted by the Cambridge Crystallographic Data Centre (CCDC).
#
# This work is licensed under the Creative Commons
# Attribution-NonCommercial-ShareAlike 4.0 International License.
# To view a copy of this license, visit
# http://creativecommons.org/licenses/by-nc-sa/4.0/
# or send a letter to
# Creative Commons, PO Box 1866, Mountain View, CA 94042, USA.
#
# CIF created using the CSD Python API on 29 September 2022
# The structure has been converted into the P1 space group
# The structure has a 3D framework
# The original CSD entry WASCAY is in the triclinic crystal system
# The framework has been calculated to contain at least 10.0% void space
# The void calculation uses a probe of radius 1.32A, grid spacing 0.4
# H atom positions have been added when not included in the experimental data
#
###############################################################################

data_WASCAY
_chemical_formula_moiety         '(C24 H28 O28 Y4)n'
_symmetry_cell_setting           triclinic
_symmetry_space_group_name_H-M   'P 1'
_symmetry_Int_Tables_number      1
_space_group_name_Hall           'P 1'
loop_
_symmetry_equiv_pos_site_id
_symmetry_equiv_pos_as_xyz
1 x,y,z
_cell_length_a                   8.5200(17)
_cell_length_b                   10.069(2)
_cell_length_c                   16.751(3)
_cell_angle_alpha                81.28(3)
_cell_angle_beta                 79.95(3)
_cell_angle_gamma                79.63(3)
_cell_volume                     1381.11
loop_
_atom_site_label
_atom_site_type_symbol
_atom_site_fract_x
_atom_site_fract_y
_atom_site_fract_z
O10 O 0.0391(4) 0.2317(3) 0.2131(2)
O12 O 0.3992(5) 0.0300(3) 0.4205(2)
C9 C 0.0039(6) 0.1693(4) 0.2838(3)
C10 C 0.1411(6) 0.1179(4) 0.3305(3)
H5 H 0.239756 0.151995 0.311765
C11 C 0.1327(6) 0.0266(4) 0.3970(3)
Y6 Y 0.61216(5) 0.14632(3) 0.38479(2)
O5 O 0.1067(5) 0.4542(3) 0.0771(2)
O7 O 0.4617(4) 0.2657(3) 0.2883(2)
O8 O 0.6345(4) 0.3549(3) 0.1889(2)
C5 C 0.2345(6) 0.5052(4) 0.0534(3)
C6 C 0.3700(6) 0.4629(5) 0.1015(3)
H3 H 0.468467 0.497087 0.082073
C7 C 0.3580(6) 0.3785(4) 0.1710(3)
H4 H 0.257940 0.347378 0.191218
C8 C 0.4956(6) 0.3306(4) 0.2186(3)
O9 O 0.8630(5) 0.1511(3) 0.3143(2)
O14 O 0.0583(5) 0.2328(3) 0.0148(2)
O15 O 0.4240(5) 0.2614(3) 0.4838(2)
O16 O 0.6614(5) 0.3770(3) 0.3759(2)
Y3 Y 0.88501(5) 0.35472(3) 0.11931(2)
O22 O 0.7510(4) 0.1074(3) 0.4949(2)
H7 H 0.163653 0.266372 0.00190602
H8 H 0.0759174 0.134057 0.0347911
H9 H 0.314593 0.240419 0.483552
H10 H 0.455735 0.230832 0.538748
H11 H 0.557781 0.437526 0.390384
H12 H 0.736289 0.381278 0.41437
O17 O 0.6568(4) 0.9966(3) 0.2747(2)
O18 O 0.7268(4) 0.9039(3) 0.3940(2)
O1 O 0.7917(4) 0.5997(3) 0.1120(2)
O2 O 0.8556(4) 0.4991(3) 0.2312(2)
C1 C 0.8089(6) 0.6041(4) 0.1849(3)
C2 C 0.7671(6) 0.7401(4) 0.2155(3)
H1 H 0.748529 0.818546 0.176894
C3 C 0.7546(6) 0.7575(4) 0.2931(3)
H2 H 0.775348 0.679981 0.331982
C4 C 0.7089(6) 0.8952(4) 0.3220(3)
O13 O 0.8223(5) 0.1254(3) 0.1271(2)
O19 O 0.7435(4) 0.4106(3) 0.0093(2)
H13 H 0.77376 0.118327 0.0784503
H14 H 0.922941 0.058317 0.128628
H6 H 0.964442 0.009954 0.584646
C12 C 0.7292(6) 0.0198(4) 0.5566(3)
O11 O 0.2490(4) 0.8926(3) 0.5051(2)
H6_2 H 0.035558 0.990046 0.415354
C12_2 C 0.2708(6) 0.9802(4) 0.4434(3)
Y7 Y 0.38784(5) 0.85368(3) 0.61521(2)
O6 O 0.2565(4) 0.5894(3) 0.9907(2)
Y4 Y 0.11499(5) 0.64528(3) 0.88069(2)
O1_2 O 0.2083(4) 0.4003(3) 0.8880(2)
O2_2 O 0.1444(4) 0.5009(3) 0.7688(2)
O3 O 0.3432(4) 0.0034(3) 0.7253(2)
O4 O 0.2732(4) 0.0961(3) 0.6060(2)
C1_2 C 0.1911(6) 0.3959(4) 0.8151(3)
C2_2 C 0.2329(6) 0.2599(4) 0.7845(3)
H1_2 H 0.251471 0.181454 0.823106
C3_2 C 0.2454(6) 0.2425(4) 0.7069(3)
H2_2 H 0.224652 0.320019 0.668018
C4_2 C 0.2911(6) 0.1048(4) 0.6780(3)
O13_2 O 0.1777(5) 0.8746(3) 0.8729(2)
O20 O 0.3655(4) 0.6451(3) 0.8111(2)
H13_2 H 0.22624 0.881673 0.92155
H14_2 H 0.0770588 0.941683 0.871372
O5_2 O 0.8933(5) 0.5458(3) 0.9229(2)
O7_2 O 0.5383(4) 0.7343(3) 0.7117(2)
C5_2 C 0.7655(6) 0.4948(4) 0.9466(3)
C6_2 C 0.6300(6) 0.5371(5) 0.8985(3)
H3_2 H 0.531533 0.502913 0.917927
C7_2 C 0.6420(6) 0.6215(4) 0.8290(3)
H4_2 H 0.742060 0.652622 0.808782
C8_2 C 0.5044(6) 0.6694(4) 0.7814(3)
O9_2 O 0.1370(5) 0.8489(3) 0.6857(2)
O14_2 O 0.9417(5) 0.7672(3) 0.9852(2)
O15_2 O 0.5760(5) 0.7386(3) 0.5162(2)
O16_2 O 0.3386(5) 0.6230(3) 0.6241(2)
O21 O 0.9609(4) 0.7683(3) 0.7869(2)
O23 O 0.6008(5) 0.9700(3) 0.5795(2)
H7_2 H 0.836347 0.733628 0.998094
H8_2 H 0.924083 0.865943 0.965209
H9_2 H 0.685407 0.759581 0.516448
H10_2 H 0.544265 0.769168 0.461252
H11_2 H 0.442219 0.562474 0.609616
H12_2 H 0.263711 0.618722 0.58563
C9_2 C 0.9961(6) 0.8307(4) 0.7162(3)
C10_2 C 0.8589(6) 0.8821(4) 0.6695(3)
H5_2 H 0.760244 0.848005 0.688235
C11_2 C 0.8673(6) 0.9734(4) 0.6030(3)
loop_
_geom_bond_atom_site_label_1
_geom_bond_atom_site_label_2
_geom_bond_site_symmetry_1
_geom_bond_site_symmetry_2
O10 C9 1_555 1_555
C10 C9 1_555 1_555
H5 C10 1_555 1_555
C11 C10 1_555 1_555
Y6 O12 1_555 1_555
Y6 O7 1_555 1_555
O7 C8 1_555 1_555
O8 C8 1_555 1_555
C5 O5 1_555 1_555
C6 C5 1_555 1_555
H3 C6 1_555 1_555
C7 C6 1_555 1_555
H4 C7 1_555 1_555
C8 C7 1_555 1_555
O9 Y6 1_555 1_555
O15 Y6 1_555 1_555
O16 Y6 1_555 1_555
Y3 O8 1_555 1_555
O22 Y6 1_555 1_555
O14 H7 1_555 1_555
O14 H8 1_555 1_555
O15 H9 1_555 1_555
O15 H10 1_555 1_555
O16 H11 1_555 1_555
O16 H12 1_555 1_555
Y3 O1 1_555 1_555
O1 C1 1_555 1_555
O2 Y3 1_555 1_555
O17 C4 1_555 1_555
O18 C4 1_555 1_555
C1 O2 1_555 1_555
C2 C1 1_555 1_555
H1 C2 1_555 1_555
C3 C2 1_555 1_555
H2 C3 1_555 1_555
C4 C3 1_555 1_555
O13 Y3 1_555 1_555
O19 Y3 1_555 1_555
O13 H13 1_555 1_555
O13 H14 1_555 1_555
O22 C12 1_555 1_555
O11 C12_2 1_555 1_555
Y7 O11 1_555 1_555
Y4 O6 1_555 1_555
Y4 O1_2 1_555 1_555
O1_2 C1_2 1_555 1_555
O2_2 Y4 1_555 1_555
O3 C4_2 1_555 1_555
O4 C4_2 1_555 1_555
C1_2 O2_2 1_555 1_555
C2_2 C1_2 1_555 1_555
H1_2 C2_2 1_555 1_555
C3_2 C2_2 1_555 1_555
H2_2 C3_2 1_555 1_555
C4_2 C3_2 1_555 1_555
O13_2 Y4 1_555 1_555
O20 Y4 1_555 1_555
O13_2 H13_2 1_555 1_555
O13_2 H14_2 1_555 1_555
Y7 O7_2 1_555 1_555
O7_2 C8_2 1_555 1_555
O20 C8_2 1_555 1_555
C5_2 O5_2 1_555 1_555
C6_2 C5_2 1_555 1_555
H3_2 C6_2 1_555 1_555
C7_2 C6_2 1_555 1_555
H4_2 C7_2 1_555 1_555
C8_2 C7_2 1_555 1_555
O9_2 Y7 1_555 1_555
O15_2 Y7 1_555 1_555
O16_2 Y7 1_555 1_555
O23 Y7 1_555 1_555
O14_2 H7_2 1_555 1_555
O14_2 H8_2 1_555 1_555
O15_2 H9_2 1_555 1_555
O15_2 H10_2 1_555 1_555
O16_2 H11_2 1_555 1_555
O16_2 H12_2 1_555 1_555
O21 C9_2 1_555 1_555
C10_2 C9_2 1_555 1_555
H5_2 C10_2 1_555 1_555
C11_2 C10_2 1_555 1_555

#END
