
###############################################################################
#
# This file contains modified crystal structure data generated from the
# MOF subset of the Cambridge Structural Database (CSD) v543 
# hosted by the Cambridge Crystallographic Data Centre (CCDC).
#
# This work is licensed under the Creative Commons
# Attribution-NonCommercial-ShareAlike 4.0 International License.
# To view a copy of this license, visit
# http://creativecommons.org/licenses/by-nc-sa/4.0/
# or send a letter to
# Creative Commons, PO Box 1866, Mountain View, CA 94042, USA.
#
# CIF created using the CSD Python API on 29 September 2022
# The structure has been converted into the P1 space group
# The structure has a 3D framework
# The original CSD entry WASNIO is in the monoclinic crystal system
# The framework has been calculated to contain at least 10.0% void space
# The void calculation uses a probe of radius 1.32A, grid spacing 0.4
#
###############################################################################

data_WASNIO
_chemical_formula_moiety         '(C56 H72 Cu8 N16 O13)n'
_symmetry_cell_setting           triclinic
_symmetry_space_group_name_H-M   'P 1'
_symmetry_Int_Tables_number      1
_space_group_name_Hall           'P 1'
loop_
_symmetry_equiv_pos_site_id
_symmetry_equiv_pos_as_xyz
1 x,y,z
_cell_length_a                   8.9023(18)
_cell_length_b                   8.7362(17)
_cell_length_c                   24.059(5)
_cell_angle_alpha                90
_cell_angle_beta                 93.75(3)
_cell_angle_gamma                90
_cell_volume                     1867.12
loop_
_atom_site_label
_atom_site_type_symbol
_atom_site_fract_x
_atom_site_fract_y
_atom_site_fract_z
Cu4 Cu 0.0000 0.0000 0.0000
Cu4_2 Cu -0.0000 0.0000 1.0000
H19 H 0.0505 0.9994 0.1297
H22 H 0.0216 0.8827 0.2243
Cu4_3 Cu 0.0000 1.0000 0.0000
Cu4_4 Cu -0.0000 1.0000 1.0000
H7 H 0.6501 0.0472 0.2536
C6 C 0.4215(5) 0.3549(5) 0.35653(14)
H8 H 0.3357 0.3462 0.3763
C7 C 0.5677(5) 0.3581(6) 0.29034(16)
H9 H 0.6035 0.3521 0.2549
C8 C 0.6537(5) 0.3929(6) 0.33765(17)
H10 H 0.7562 0.4140 0.3408
C9 C 0.5999(5) 0.4142(5) 0.43927(14)
H11 H 0.6873 0.4806 0.4430
H12 H 0.6276 0.3167 0.4563
C10 C 0.4734(5) 0.4848(5) 0.46983(14)
H13 H 0.3878 0.4158 0.4684
H14 H 0.4418 0.5800 0.4519
C13 C 0.0473(5) 0.1337(5) 0.38986(15)
H18 H 0.0793 0.2193 0.4134
C14 C 0.1284(5) 0.1420(5) 0.33692(15)
N3 N 0.4241(4) 0.3339(3) 0.30203(11)
N4 N 0.5572(4) 0.3899(4) 0.37927(12)
O1 O 0.2013(4) 0.0343(3) 0.31994(11)
O2 O 0.1178(3) 0.2715(3) 0.31156(9)
O3 O 0.3197(3) 0.0741(3) 0.45373(11)
Cu1 Cu 0.2500 0.28734(7) 0.2500
Cu2 Cu 0.5000 0.0000 0.5000
H25 H 0.8499 0.0472 0.2464
C20 C 0.5785(5) 0.6451(5) 0.64347(14)
H26 H 0.6643 0.6538 0.6237
C21 C 0.4323(5) 0.6419(6) 0.70966(16)
H27 H 0.3965 0.6479 0.7451
C22 C 0.3463(5) 0.6071(6) 0.66235(17)
H28 H 0.2438 0.5860 0.6592
C23 C 0.4001(5) 0.5858(5) 0.56073(14)
H29 H 0.3127 0.5194 0.5570
H30 H 0.3724 0.6833 0.5437
C24 C 0.5266(5) 0.5152(5) 0.53017(14)
H31 H 0.6122 0.5842 0.5316
H32 H 0.5582 0.4200 0.5481
C27 C 0.4527(5) 0.1337(5) 0.11014(15)
H35 H 0.5598 0.1452 0.1194
H36 H 0.4207 0.2193 0.0866
C28 C 0.3716(5) 0.1420(5) 0.16308(15)
N6 N 0.4147(4) 0.0817(4) 0.56747(15)
N8 N 0.5759(4) 0.6661(3) 0.69797(11)
N9 N 0.0759(4) 0.3339(3) 0.19797(11)
N10 N 0.4428(4) 0.6101(4) 0.62073(12)
O5 O 0.2987(4) 0.0343(3) 0.18006(11)
O6 O 0.3822(3) 0.2715(3) 0.18844(9)
O7 O 0.1803(3) 0.0741(3) 0.04627(11)
Cu3 Cu 0.7500 0.71266(7) 0.7500
Cu4_5 Cu 1.0000 0.0000 0.0000
Cu4_6 Cu 1.0000 0.0000 1.0000
C1 C 0.5322(6) 0.9386(7) 0.3809(2)
H1 H 0.4495 0.9994 0.3703
C2 C 0.7064(5) 0.8202(5) 0.4296(2)
H2 H 0.7663 0.7844 0.4599
C3 C 0.7244(6) 0.7840(5) 0.3756(2)
H3 H 0.7975 0.7204 0.3620
C4 C 0.5817(8) 0.8507(8) 0.2842(3)
H4 H 0.4784 0.8827 0.2757
H5 H 0.5886 0.7441 0.2733
C5 C 0.6793(8) 0.9413(10) 0.2488(4)
H6 H 0.6478 0.9145 0.2107
C11 C 0.2248(5) 0.9653(5) 0.45295(16)
C12 C 0.0726(4) 0.9875(5) 0.42267(16)
H16 H 0.0550 0.9022 0.3973
N1 N 0.5853(4) 0.9183(4) 0.43253(15)
N2 N 0.6132(5) 0.8601(5) 0.34519(16)
O4 O 0.2497(4) 0.8425(4) 0.47695(13)
Cu2_2 Cu 0.5000 1.0000 0.5000
C15 C 0.9678(6) 0.9386(7) 0.1191(2)
C16 C 0.7936(5) 0.8202(5) 0.0704(2)
H20 H 0.7337 0.7844 0.0401
C17 C 0.7756(6) 0.7840(5) 0.1244(2)
H21 H 0.7025 0.7204 0.1380
C18 C 0.9183(8) 0.8507(8) 0.2158(3)
H23 H 0.9114 0.7441 0.2267
C19 C 0.8207(8) 0.9413(10) 0.2512(4)
H24 H 0.8522 0.9145 0.2893
C25 C 0.2752(5) 0.9653(5) 0.04705(16)
C26 C 0.4274(4) 0.9875(5) 0.07733(16)
H33 H 0.5030 0.9820 0.0501
H34 H 0.4450 0.9022 0.1027
N5 N 0.9147(4) 0.9183(4) 0.06747(15)
N7 N 0.8868(5) 0.8601(5) 0.15481(16)
O8 O 0.6803(3) 0.9259(3) 0.54627(11)
O9 O 0.2503(4) 0.8425(4) 0.02305(13)
Cu4_7 Cu 1.0000 1.0000 0.0000
Cu4_8 Cu 1.0000 1.0000 1.0000
H17 H 0.9402 0.1452 0.3806
H15 H 0.9970 0.9820 0.4499
C6_2 C 0.0785(5) 0.3549(5) 0.14347(14)
H8_2 H 0.1643 0.3462 0.1237
C10_2 C 0.0266(5) 0.4848(5) 0.03017(14)
H13_2 H 0.1122 0.4158 0.0316
H14_2 H 0.0582 0.5800 0.0481
C21_2 C 0.0677(5) 0.6419(6) 0.79034(16)
H27_2 H 0.1035 0.6479 0.7549
C22_2 C 0.1537(5) 0.6071(6) 0.83765(17)
H28_2 H 0.2562 0.5860 0.8408
C23_2 C 0.0999(5) 0.5858(5) 0.93927(14)
H29_2 H 0.1873 0.5194 0.9430
H30_2 H 0.1276 0.6833 0.9563
N6_2 N 0.0853(4) 0.0817(4) 0.93253(15)
N10_2 N 0.0572(4) 0.6101(4) 0.87927(12)
C7_2 C 0.9323(5) 0.3581(6) 0.20966(16)
H9_2 H 0.8965 0.3521 0.2451
C8_2 C 0.8463(5) 0.3929(6) 0.16235(17)
H10_2 H 0.7438 0.4140 0.1592
C9_2 C 0.9001(5) 0.4142(5) 0.06073(14)
H11_2 H 0.8127 0.4806 0.0570
H12_2 H 0.8724 0.3167 0.0437
N4_2 N 0.9428(4) 0.3899(4) 0.12073(12)
C20_2 C 0.9215(5) 0.6451(5) 0.85653(14)
H26_2 H 0.8357 0.6538 0.8763
C24_2 C 0.9734(5) 0.5152(5) 0.96983(14)
H31_2 H 0.8878 0.5842 0.9684
H32_2 H 0.9418 0.4200 0.9519
N8_2 N 0.9241(4) 0.6661(3) 0.80203(11)
O8_2 O 0.8197(3) 0.9259(3) 0.95373(11)
H15_2 H 0.0030 0.0180 0.5501
H17_2 H 0.0598 0.8548 0.6194
C1_2 C 0.4678(6) 0.0614(7) 0.6191(2)
H1_2 H 0.5505 0.0006 0.6297
C2_2 C 0.2936(5) 0.1798(5) 0.5704(2)
H2_2 H 0.2337 0.2156 0.5401
C3_2 C 0.2756(6) 0.2160(5) 0.6244(2)
H3_2 H 0.2025 0.2796 0.6380
C4_2 C 0.4183(8) 0.1493(8) 0.7158(3)
H4_2 H 0.5216 0.1173 0.7243
H5_2 H 0.4114 0.2559 0.7267
C5_2 C 0.3207(8) 0.0587(10) 0.7512(4)
H6_2 H 0.3522 0.0855 0.7893
C11_2 C 0.7752(5) 0.0347(5) 0.54705(16)
C12_2 C 0.9274(4) 0.0125(5) 0.57733(16)
H16_2 H 0.9450 0.0978 0.6027
N2_2 N 0.3868(5) 0.1399(5) 0.65481(16)
O4_2 O 0.7503(4) 0.1575(4) 0.52305(13)
C15_2 C 0.0322(6) 0.0614(7) 0.8809(2)
C16_2 C 0.2064(5) 0.1798(5) 0.9296(2)
H20_2 H 0.2663 0.2156 0.9599
C17_2 C 0.2244(6) 0.2160(5) 0.8756(2)
H21_2 H 0.2975 0.2796 0.8620
C18_2 C 0.0817(8) 0.1493(8) 0.7842(3)
H23_2 H 0.0886 0.2559 0.7733
C19_2 C 0.1793(8) 0.0587(10) 0.7488(4)
H24_2 H 0.1478 0.0855 0.7107
C25_2 C 0.7248(5) 0.0347(5) 0.95295(16)
C26_2 C 0.5726(4) 0.0125(5) 0.92267(16)
H33_2 H 0.4970 0.0180 0.9499
H34_2 H 0.5550 0.0978 0.8973
N7_2 N 0.1132(5) 0.1399(5) 0.84519(16)
O9_2 O 0.7497(4) 0.1575(4) 0.97695(13)
H7_2 H 0.3499 0.9528 0.7464
C13_2 C 0.9527(5) 0.8663(5) 0.61014(15)
H18_2 H 0.9207 0.7807 0.5866
C14_2 C 0.8716(5) 0.8580(5) 0.66308(15)
O1_2 O 0.7987(4) 0.9657(3) 0.68006(11)
O2_2 O 0.8822(3) 0.7285(3) 0.68844(9)
H25_2 H 0.1501 0.9528 0.7536
C27_2 C 0.5473(5) 0.8663(5) 0.88986(15)
H35_2 H 0.4402 0.8548 0.8806
H36_2 H 0.5793 0.7807 0.9134
C28_2 C 0.6284(5) 0.8580(5) 0.83692(15)
O5_2 O 0.7013(4) 0.9657(3) 0.81994(11)
O6_2 O 0.6178(3) 0.7285(3) 0.81156(9)
H19_2 H 0.9495 0.0006 0.8703
H22_2 H 0.9784 0.1173 0.7757
loop_
_geom_bond_atom_site_label_1
_geom_bond_atom_site_label_2
_geom_bond_site_symmetry_1
_geom_bond_site_symmetry_2
C6 H8 1_555 1_555
C7 H9 1_555 1_555
C8 C7 1_555 1_555
H10 C8 1_555 1_555
C9 H11 1_555 1_555
H12 C9 1_555 1_555
C10 C9 1_555 1_555
H13 C10 1_555 1_555
H14 C10 1_555 1_555
H18 C13 1_555 1_555
C14 C13 1_555 1_555
N3 C6 1_555 1_555
N4 C6 1_555 1_555
O1 C14 1_555 1_555
O2 C14 1_555 1_555
Cu1 N3 1_555 1_555
C20 H26 1_555 1_555
C21 H27 1_555 1_555
C22 C21 1_555 1_555
H28 C22 1_555 1_555
C23 H29 1_555 1_555
H30 C23 1_555 1_555
C24 C10 1_555 1_555
H31 C24 1_555 1_555
H32 C24 1_555 1_555
H35 C27 1_555 1_555
H36 C27 1_555 1_555
C28 C27 1_555 1_555
N6 Cu2 1_555 1_555
N8 C20 1_555 1_555
N9 Cu1 1_555 1_555
N10 C20 1_555 1_555
O5 C28 1_555 1_555
O6 Cu1 1_555 1_555
Cu3 N8 1_555 1_555
Cu4 O7 1_555 1_555
C7 N3 1_555 1_555
C8 N4 1_555 1_555
C9 N4 1_555 1_555
O2 Cu1 1_555 1_555
O3 Cu2 1_555 1_555
C21 N8 1_555 1_555
C22 N10 1_555 1_555
C23 C24 1_555 1_555
C23 N10 1_555 1_555
C28 O6 1_555 1_555
C1 H1 1_555 1_555
C2 H2 1_555 1_555
C3 C2 1_555 1_555
H3 C3 1_555 1_555
C4 H4 1_555 1_555
H5 C4 1_555 1_555
C5 C4 1_555 1_555
H6 C5 1_555 1_555
C11 C12 1_555 1_555
H16 C12 1_555 1_555
N1 C1 1_555 1_555
N2 C1 1_555 1_555
O4 C11 1_555 1_555
Cu2_2 N1 1_555 1_555
C16 H20 1_555 1_555
C17 C16 1_555 1_555
H21 C17 1_555 1_555
H23 C18 1_555 1_555
C19 C5 1_555 1_555
H24 C19 1_555 1_555
C25 C26 1_555 1_555
C26 H33 1_555 1_555
H34 C26 1_555 1_555
N5 C15 1_555 1_555
N7 C15 1_555 1_555
O8 Cu2_2 1_555 1_555
O9 C25 1_555 1_555
Cu4_7 N5 1_555 1_555
C2 N1 1_555 1_555
C3 N2 1_555 1_555
C4 N2 1_555 1_555
C16 N5 1_555 1_555
C17 N7 1_555 1_555
C18 C19 1_555 1_555
C18 N7 1_555 1_555
C6_2 H8_2 1_555 1_555
H13_2 C10_2 1_555 1_555
H14_2 C10_2 1_555 1_555
N9 C6_2 1_555 1_555
C21_2 H27_2 1_555 1_555
C22_2 C21_2 1_555 1_555
H28_2 C22_2 1_555 1_555
C23_2 H29_2 1_555 1_555
H30_2 C23_2 1_555 1_555
N6_2 Cu4_2 1_555 1_555
C22_2 N10_2 1_555 1_555
C23_2 N10_2 1_555 1_555
C7_2 H9_2 1_555 1_555
C8_2 C7_2 1_555 1_555
H10_2 C8_2 1_555 1_555
C9_2 H11_2 1_555 1_555
H12_2 C9_2 1_555 1_555
C8_2 N4_2 1_555 1_555
C9_2 N4_2 1_555 1_555
C20_2 H26_2 1_555 1_555
H31_2 C24_2 1_555 1_555
H32_2 C24_2 1_555 1_555
N8_2 C20_2 1_555 1_555
Cu3 N8_2 1_555 1_555
O8_2 Cu4_8 1_555 1_555
C1_2 H1_2 1_555 1_555
C2_2 H2_2 1_555 1_555
C3_2 C2_2 1_555 1_555
H3_2 C3_2 1_555 1_555
C4_2 H4_2 1_555 1_555
H5_2 C4_2 1_555 1_555
C5_2 C4_2 1_555 1_555
H6_2 C5_2 1_555 1_555
C11_2 C12_2 1_555 1_555
H16_2 C12_2 1_555 1_555
N6 C1_2 1_555 1_555
N2_2 C1_2 1_555 1_555
O4_2 C11_2 1_555 1_555
C16_2 H20_2 1_555 1_555
C17_2 C16_2 1_555 1_555
H21_2 C17_2 1_555 1_555
H23_2 C18_2 1_555 1_555
C19_2 C5_2 1_555 1_555
H24_2 C19_2 1_555 1_555
C25_2 C26_2 1_555 1_555
C26_2 H33_2 1_555 1_555
H34_2 C26_2 1_555 1_555
N6_2 C15_2 1_555 1_555
N7_2 C15_2 1_555 1_555
O9_2 C25_2 1_555 1_555
C2_2 N6 1_555 1_555
C3_2 N2_2 1_555 1_555
C4_2 N2_2 1_555 1_555
C16_2 N6_2 1_555 1_555
C17_2 N7_2 1_555 1_555
C18_2 C19_2 1_555 1_555
C18_2 N7_2 1_555 1_555
H18_2 C13_2 1_555 1_555
C14_2 C13_2 1_555 1_555
O1_2 C14_2 1_555 1_555
O2_2 C14_2 1_555 1_555
H35_2 C27_2 1_555 1_555
H36_2 C27_2 1_555 1_555
C28_2 C27_2 1_555 1_555
O5_2 C28_2 1_555 1_555
O6_2 Cu3 1_555 1_555
O2_2 Cu3 1_555 1_555
C28_2 O6_2 1_555 1_555

#END
