
###############################################################################
#
# This file contains modified crystal structure data generated from the
# MOF subset of the Cambridge Structural Database (CSD) v543 
# hosted by the Cambridge Crystallographic Data Centre (CCDC).
#
# This work is licensed under the Creative Commons
# Attribution-NonCommercial-ShareAlike 4.0 International License.
# To view a copy of this license, visit
# http://creativecommons.org/licenses/by-nc-sa/4.0/
# or send a letter to
# Creative Commons, PO Box 1866, Mountain View, CA 94042, USA.
#
# CIF created using the CSD Python API on 29 September 2022
# The structure has been converted into the P1 space group
# The structure has a 3D framework
# The original CSD entry WATPIT is in the triclinic crystal system
# The framework has been calculated to contain at least 10.0% void space
# The void calculation uses a probe of radius 1.32A, grid spacing 0.4
#
###############################################################################

data_WATPIT
_chemical_formula_moiety         '(C44 H52 Cd4 N8 O20)n'
_symmetry_cell_setting           triclinic
_symmetry_space_group_name_H-M   'P 1'
_symmetry_Int_Tables_number      1
_space_group_name_Hall           'P 1'
loop_
_symmetry_equiv_pos_site_id
_symmetry_equiv_pos_as_xyz
1 x,y,z
_cell_length_a                   8.7999(5)
_cell_length_b                   10.8475(7)
_cell_length_c                   16.8132(11)
_cell_angle_alpha                76.600(6)
_cell_angle_beta                 82.105(5)
_cell_angle_gamma                90.135(5)
_cell_volume                     1545.47
loop_
_atom_site_label
_atom_site_type_symbol
_atom_site_fract_x
_atom_site_fract_y
_atom_site_fract_z
_atom_site_U_iso_or_equiv
_atom_site_thermal_displace_type
N4 N 0.7135(5) 0.2275(4) 0.8155(3) 0.0370 Uani
C9 C 0.4036(6) 0.0222(5) 0.7715(4) 0.0395 Uani
H17 H 0.2945 0.0358 0.7821 0.0470 Uiso
H18 H 0.4356 0.0495 0.7124 0.0470 Uiso
C10 C 0.6266(6) 0.1609(5) 0.7786(3) 0.0360 Uani
H19 H 0.6635 0.1544 0.7252 0.0430 Uiso
C11 C 0.4885(6) 0.1026(5) 0.8144(4) 0.0375 Uani
C12 C 0.4338(7) 0.1148(6) 0.8947(4) 0.0524 Uani
H20 H 0.3405 0.0763 0.9219 0.0630 Uiso
C13 C 0.5190(8) 0.1838(7) 0.9326(4) 0.0541 Uani
H21 H 0.4829 0.1945 0.9851 0.0650 Uiso
C14 C 0.6597(6) 0.2374(5) 0.8916(3) 0.0403 Uani
H22 H 0.7185 0.2819 0.9183 0.0480 Uiso
Cd7 Cd 0.96744(4) 0.28609(3) 0.75479(2) 0.0315 Uani
C24 C 0.9870(7) 0.0082(5) 0.0377(3) 0.0398 Uani
H27 H 0.9694 0.0898 0.0446 0.0480 Uiso
O13 O 0.8555(5) 0.4119(4) 0.1430(2) 0.0446 Uani
O14 O 0.7679(7) 0.2934(5) 0.0688(3) 0.0809 Uani
C25 C 0.8528(7) 0.3800(6) 0.0760(3) 0.0459 Uani
C26 C 0.9609(7) 0.4483(6) 0.0021(3) 0.0506 Uani
Cd5 Cd 0.72204(4) 0.26017(3) 0.24194(2) 0.0298 Uani
O4 O 0.9390(5) 0.4898(4) 0.7785(3) 0.0482 Uani
H4 H 0.949(8) 0.541(5) 0.7312(19) 0.0720 Uiso
H28 H 0.9728 0.4141 0.9559 0.0610 Uiso
O23 O 0.9073(5) 0.4208(4) 0.6195(3) 0.0548 Uani
O25 O 0.9229(5) 0.2140(4) 0.6383(3) 0.0560 Uani
O11 O 0.9781(5) 0.7901(4) 0.1081(2) 0.0427 Uani
O12 O 0.9932(5) 0.9332(4) 0.1798(2) 0.0478 Uani
C23 C 0.9842(6) 0.9034(5) 0.1132(3) 0.0381 Uani
O15 O 0.9398(6) 0.1394(5) 0.2419(4) 0.0718 Uani
H29 H 0.961(10) 0.081(5) 0.217(4) 0.1080 Uiso
H30 H 0.960(11) 0.117(7) 0.291(2) 0.1080 Uiso
H31 H 0.998(6) 0.488(6) 0.193(3) 0.0720 Uiso
O17 O 0.8218(5) 0.3302(4) 0.3450(2) 0.0528 Uani
O18 O 0.6608(6) 0.1704(5) 0.3930(3) 0.0697 Uani
N5 N 0.7758(5) 0.6633(4) 0.2919(3) 0.0385 Uani
N6 N 0.4783(6) 0.3497(4) 0.2449(3) 0.0448 Uani
H33 H 0.446(8) 0.331(7) 0.2967(11) 0.0670 Uiso
N7 N 0.5703(5) 0.1134(4) 0.2019(3) 0.0374 Uani
H34 H 0.601(7) 0.135(6) 0.1494(10) 0.0560 Uiso
C27 C 0.6971(6) 0.6064(5) 0.2469(4) 0.0395 Uani
H35 H 0.7428 0.6026 0.1943 0.0480 Uiso
C28 C 0.5509(7) 0.5530(5) 0.2749(4) 0.0471 Uani
C29 C 0.4848(8) 0.5609(7) 0.3522(5) 0.0645 Uani
H36 H 0.3870 0.5256 0.3734 0.0770 Uiso
C30 C 0.5628(9) 0.6206(7) 0.3980(5) 0.0677 Uani
H37 H 0.5179 0.6275 0.4501 0.0820 Uiso
C31 C 0.7064(8) 0.6699(7) 0.3671(4) 0.0541 Uani
H38 H 0.7588 0.7097 0.3991 0.0650 Uiso
C32 C 0.4708(8) 0.4892(5) 0.2192(5) 0.0576 Uani
H39 H 0.5195 0.5184 0.1625 0.0690 Uiso
H40 H 0.3643 0.5128 0.2219 0.0690 Uiso
C33 C 0.3929(8) 0.2873(6) 0.1946(5) 0.0641 Uani
H41 H 0.2852 0.3068 0.2034 0.0770 Uiso
H42 H 0.4314 0.3201 0.1366 0.0770 Uiso
C34 C 0.4086(7) 0.1472(6) 0.2166(5) 0.0548 Uani
H43 H 0.3490 0.1086 0.1837 0.0660 Uiso
H44 H 0.3681 0.1141 0.2743 0.0660 Uiso
C41 C 0.7567(7) 0.2481(6) 0.4032(3) 0.0424 Uani
C42 C 0.7941(7) 0.2400(6) 0.4880(3) 0.0464 Uani
H51 H 0.7672 0.1653 0.5278 0.0560 Uiso
C43 C 0.8620(7) 0.3308(6) 0.5094(3) 0.0436 Uani
H52 H 0.8892 0.4055 0.4696 0.0520 Uiso
C44 C 0.8992(7) 0.3222(6) 0.5945(3) 0.0415 Uani
H24 H 0.0272 0.5859 0.0441 0.0610 Uiso
Cd1 Cd 0.27796(4) 0.73983(3) 0.75806(2) 0.0298 Uani
O1 O 0.0219(5) 0.2099(4) 0.8919(2) 0.0427 Uani
O2 O 0.0602(6) 0.8606(5) 0.7581(4) 0.0718 Uani
H1 H 0.039(10) 0.919(5) 0.783(4) 0.1080 Uiso
H2 H 0.040(11) 0.883(7) 0.709(2) 0.1080 Uiso
O3 O 0.0068(5) 0.0668(4) 0.8202(2) 0.0478 Uani
H3 H 0.002(6) 0.512(6) 0.807(3) 0.0720 Uiso
O5 O 0.1445(5) 0.5881(4) 0.8570(2) 0.0446 Uani
O6 O 0.2321(7) 0.7066(5) 0.9312(3) 0.0809 Uani
O7 O 0.1782(5) 0.6698(4) 0.6550(2) 0.0528 Uani
O8 O 0.3392(6) 0.8296(5) 0.6070(3) 0.0697 Uani
O9 O 0.0927(5) 0.5792(4) 0.3805(3) 0.0548 Uani
O10 O 0.0771(5) 0.7860(4) 0.3617(3) 0.0560 Uani
N1 N 0.2242(5) 0.3367(4) 0.7081(3) 0.0385 Uani
N2 N 0.5217(6) 0.6503(4) 0.7551(3) 0.0448 Uani
H5 H 0.554(8) 0.669(7) 0.7033(11) 0.0670 Uiso
N3 N 0.4297(5) 0.8866(4) 0.7981(3) 0.0374 Uani
H6 H 0.399(7) 0.865(6) 0.8506(10) 0.0560 Uiso
C1 C 0.3029(6) 0.3936(5) 0.7531(4) 0.0395 Uani
H7 H 0.2572 0.3974 0.8057 0.0480 Uiso
C2 C 0.4491(7) 0.4470(5) 0.7251(4) 0.0471 Uani
C3 C 0.5152(8) 0.4391(7) 0.6478(5) 0.0645 Uani
H8 H 0.6130 0.4744 0.6266 0.0770 Uiso
C4 C 0.4372(9) 0.3794(7) 0.6020(5) 0.0677 Uani
H9 H 0.4821 0.3725 0.5499 0.0820 Uiso
C5 C 0.2936(8) 0.3301(7) 0.6329(4) 0.0541 Uani
H10 H 0.2412 0.2903 0.6009 0.0650 Uiso
C6 C 0.5292(8) 0.5108(5) 0.7808(5) 0.0576 Uani
H11 H 0.4805 0.4816 0.8375 0.0690 Uiso
H12 H 0.6357 0.4872 0.7781 0.0690 Uiso
C7 C 0.6071(8) 0.7127(6) 0.8054(5) 0.0641 Uani
H13 H 0.7148 0.6932 0.7966 0.0770 Uiso
H14 H 0.5686 0.6799 0.8634 0.0770 Uiso
C8 C 0.5914(7) 0.8528(6) 0.7834(5) 0.0548 Uani
H15 H 0.6510 0.8914 0.8163 0.0660 Uiso
H16 H 0.6319 0.8859 0.7257 0.0660 Uiso
C15 C 0.0158(6) 0.0966(5) 0.8868(3) 0.0381 Uani
C17 C 0.1472(7) 0.6200(6) 0.9240(3) 0.0459 Uani
C18 C 0.0391(7) 0.5517(6) 0.9979(3) 0.0506 Uani
C19 C 0.2433(7) 0.7519(6) 0.5968(3) 0.0424 Uani
C20 C 0.2059(7) 0.7600(6) 0.5120(3) 0.0464 Uani
H25 H 0.2328 0.8347 0.4722 0.0560 Uiso
C21 C 0.1380(7) 0.6692(6) 0.4906(3) 0.0436 Uani
H26 H 0.1108 0.5945 0.5304 0.0520 Uiso
C22 C 0.1008(7) 0.6778(6) 0.4055(3) 0.0415 Uani
Cd9 Cd 0.03256(4) 0.71391(3) 0.24521(2) 0.0315 Uani
O16 O 0.0610(5) 0.5102(4) 0.2215(3) 0.0482 Uani
H32 H 0.051(8) 0.459(5) 0.2688(19) 0.0720 Uiso
N10 N 0.2865(5) 0.7725(4) 0.1845(3) 0.0370 Uani
C16 C 0.0130(7) 0.9918(5) 0.9623(3) 0.0398 Uani
H23 H 0.0306 0.9102 0.9554 0.0480 Uiso
C35 C 0.5964(6) 0.9778(5) 0.2285(4) 0.0395 Uani
H45 H 0.7055 0.9642 0.2179 0.0470 Uiso
H46 H 0.5644 0.9505 0.2876 0.0470 Uiso
C36 C 0.3734(6) 0.8391(5) 0.2214(3) 0.0360 Uani
H47 H 0.3365 0.8456 0.2748 0.0430 Uiso
C37 C 0.5115(6) 0.8974(5) 0.1856(4) 0.0375 Uani
C38 C 0.5662(7) 0.8852(6) 0.1053(4) 0.0524 Uani
H48 H 0.6595 0.9237 0.0781 0.0630 Uiso
C39 C 0.4810(8) 0.8162(7) 0.0674(4) 0.0541 Uani
H49 H 0.5171 0.8055 0.0149 0.0650 Uiso
C40 C 0.3403(6) 0.7626(5) 0.1084(3) 0.0403 Uani
H50 H 0.2815 0.7181 0.0817 0.0480 Uiso
loop_
_atom_site_aniso_label
_atom_site_aniso_U_11
_atom_site_aniso_U_22
_atom_site_aniso_U_33
_atom_site_aniso_U_23
_atom_site_aniso_U_13
_atom_site_aniso_U_12
N4 0.037 0.028 0.046 -0.0061 -0.01 -0.004
C9 0.038 0.032 0.05 -0.009 -0.013 -0.002
C10 0.041 0.032 0.036 -0.011 -0.004 -0.008
C11 0.036 0.028 0.049 -0.006 -0.013 -0.001
C12 0.035 0.058 0.065 -0.021 0.001 -0.01
C13 0.057 0.062 0.048 -0.025 -0.003 -0.005
C14 0.042 0.042 0.04 -0.016 -0.006 -0.004
Cd7 0.0363 0.0319 0.026 -0.0047 -0.0071 -0.00357
C24 0.047 0.035 0.036 -0.006 -0.005 0.008
O13 0.056 0.048 0.0278 -0.0118 0.0062 -0.016
O14 0.109 0.084 0.045 -0.022 0.016 -0.065
C25 0.061 0.044 0.031 -0.01 0.001 -0.017
C26 0.068 0.055 0.027 -0.014 0.007 -0.026
Cd5 0.0332 0.0285 0.0275 -0.00506 -0.00624 -0.00534
O4 0.056 0.043 0.051 -0.0167 -0.017 0.004
O23 0.063 0.068 0.04 -0.022 -0.014 -0.001
O25 0.074 0.064 0.031 -0.007 -0.018 -0.002
O11 0.055 0.04 0.032 -0.005 -0.0088 -0.0024
O12 0.074 0.038 0.032 -0.0083 -0.009 0.016
C23 0.04 0.039 0.033 -0.003 -0.006 0.009
O15 0.067 0.071 0.098 -0.048 -0.034 0.03
O17 0.077 0.053 0.03 -0.0078 -0.016 0
O18 0.092 0.076 0.044 -0.011 -0.025 -0.021
N5 0.041 0.036 0.038 -0.01 -0.002 -0.001
N6 0.039 0.032 0.063 -0.01 -0.008 0.001
N7 0.041 0.028 0.043 -0.006 -0.009 -0.007
C27 0.037 0.031 0.05 -0.009 -0.005 0.004
C28 0.039 0.025 0.076 -0.007 -0.012 0.009
C29 0.043 0.049 0.091 -0.009 0.014 -0.003
C30 0.068 0.07 0.06 -0.02 0.017 0.009
C31 0.055 0.06 0.048 -0.017 -0.002 0.007
C32 0.046 0.031 0.098 -0.009 -0.028 0.005
C33 0.047 0.044 0.112 -0.025 -0.037 0.006
C34 0.037 0.038 0.093 -0.017 -0.019 -0.002
C41 0.056 0.044 0.03 -0.009 -0.015 0.008
C42 0.06 0.05 0.029 -0.005 -0.013 -0.001
C43 0.054 0.051 0.023 -0.002 -0.007 0
C44 0.04 0.061 0.023 -0.01 -0.003 -0.006
Cd1 0.0332 0.0285 0.0275 -0.00506 -0.00624 -0.00534
O1 0.055 0.04 0.032 -0.005 -0.0088 -0.0024
O2 0.067 0.071 0.098 -0.048 -0.034 0.03
O3 0.074 0.038 0.032 -0.0083 -0.009 0.016
O5 0.056 0.048 0.0278 -0.0118 0.0062 -0.016
O6 0.109 0.084 0.045 -0.022 0.016 -0.065
O7 0.077 0.053 0.03 -0.0078 -0.016 0
O8 0.092 0.076 0.044 -0.011 -0.025 -0.021
O9 0.063 0.068 0.04 -0.022 -0.014 -0.001
O10 0.074 0.064 0.031 -0.007 -0.018 -0.002
N1 0.041 0.036 0.038 -0.01 -0.002 -0.001
N2 0.039 0.032 0.063 -0.01 -0.008 0.001
N3 0.041 0.028 0.043 -0.006 -0.009 -0.007
C1 0.037 0.031 0.05 -0.009 -0.005 0.004
C2 0.039 0.025 0.076 -0.007 -0.012 0.009
C3 0.043 0.049 0.091 -0.009 0.014 -0.003
C4 0.068 0.07 0.06 -0.02 0.017 0.009
C5 0.055 0.06 0.048 -0.017 -0.002 0.007
C6 0.046 0.031 0.098 -0.009 -0.028 0.005
C7 0.047 0.044 0.112 -0.025 -0.037 0.006
C8 0.037 0.038 0.093 -0.017 -0.019 -0.002
C15 0.04 0.039 0.033 -0.003 -0.006 0.009
C17 0.061 0.044 0.031 -0.01 0.001 -0.017
C18 0.068 0.055 0.027 -0.014 0.007 -0.026
C19 0.056 0.044 0.03 -0.009 -0.015 0.008
C20 0.06 0.05 0.029 -0.005 -0.013 -0.001
C21 0.054 0.051 0.023 -0.002 -0.007 0
C22 0.04 0.061 0.023 -0.01 -0.003 -0.006
Cd9 0.0363 0.0319 0.026 -0.0047 -0.0071 -0.00357
O16 0.056 0.043 0.051 -0.0167 -0.017 0.004
N10 0.037 0.028 0.046 -0.0061 -0.01 -0.004
C16 0.047 0.035 0.036 -0.006 -0.005 0.008
C35 0.038 0.032 0.05 -0.009 -0.013 -0.002
C36 0.041 0.032 0.036 -0.011 -0.004 -0.008
C37 0.036 0.028 0.049 -0.006 -0.013 -0.001
C38 0.035 0.058 0.065 -0.021 0.001 -0.01
C39 0.057 0.062 0.048 -0.025 -0.003 -0.005
C40 0.042 0.042 0.04 -0.016 -0.006 -0.004
loop_
_geom_bond_atom_site_label_1
_geom_bond_atom_site_label_2
_geom_bond_site_symmetry_1
_geom_bond_site_symmetry_2
N4 C10 1_555 1_555
H17 C9 1_555 1_555
H18 C9 1_555 1_555
C10 H19 1_555 1_555
C11 C9 1_555 1_555
C12 C11 1_555 1_555
H20 C12 1_555 1_555
C13 C12 1_555 1_555
H21 C13 1_555 1_555
C14 N4 1_555 1_555
H22 C14 1_555 1_555
Cd7 N4 1_555 1_555
C10 C11 1_555 1_555
C13 C14 1_555 1_555
H27 C24 1_555 1_555
O13 C25 1_555 1_555
O14 C25 1_555 1_555
C25 C26 1_555 1_555
Cd5 O13 1_555 1_555
O4 Cd7 1_555 1_555
H4 O4 1_555 1_555
O23 Cd7 1_555 1_555
O25 Cd7 1_555 1_555
O11 C23 1_555 1_555
O12 C23 1_555 1_555
Cd5 O15 1_555 1_555
O15 H29 1_555 1_555
H30 O15 1_555 1_555
O17 Cd5 1_555 1_555
O18 Cd5 1_555 1_555
O23 C44 1_555 1_555
O25 C44 1_555 1_555
N6 Cd5 1_555 1_555
H33 N6 1_555 1_555
N7 Cd5 1_555 1_555
H34 N7 1_555 1_555
C27 N5 1_555 1_555
H35 C27 1_555 1_555
C28 C27 1_555 1_555
C29 C28 1_555 1_555
H36 C29 1_555 1_555
C30 C29 1_555 1_555
H37 C30 1_555 1_555
C31 N5 1_555 1_555
H38 C31 1_555 1_555
C32 N6 1_555 1_555
H39 C32 1_555 1_555
H40 C32 1_555 1_555
C33 N6 1_555 1_555
H41 C33 1_555 1_555
H42 C33 1_555 1_555
C34 N7 1_555 1_555
H43 C34 1_555 1_555
H44 C34 1_555 1_555
C41 O17 1_555 1_555
C42 C41 1_555 1_555
H51 C42 1_555 1_555
C43 C42 1_555 1_555
H52 C43 1_555 1_555
C44 C43 1_555 1_555
O18 C41 1_555 1_555
C28 C32 1_555 1_555
C30 C31 1_555 1_555
C33 C34 1_555 1_555
Cd1 O2 1_555 1_555
O1 C15 1_555 1_555
O2 H1 1_555 1_555
H2 O2 1_555 1_555
O5 Cd1 1_555 1_555
O6 C17 1_555 1_555
O7 Cd1 1_555 1_555
O8 Cd1 1_555 1_555
O9 C22 1_555 1_555
O10 C22 1_555 1_555
N2 Cd1 1_555 1_555
H5 N2 1_555 1_555
N3 Cd1 1_555 1_555
H6 N3 1_555 1_555
C1 N1 1_555 1_555
H7 C1 1_555 1_555
C2 C1 1_555 1_555
C3 C2 1_555 1_555
H8 C3 1_555 1_555
C4 C3 1_555 1_555
H9 C4 1_555 1_555
C5 N1 1_555 1_555
H10 C5 1_555 1_555
C6 N2 1_555 1_555
H11 C6 1_555 1_555
H12 C6 1_555 1_555
C7 N2 1_555 1_555
H13 C7 1_555 1_555
H14 C7 1_555 1_555
C8 N3 1_555 1_555
H15 C8 1_555 1_555
H16 C8 1_555 1_555
C15 O3 1_555 1_555
C17 O5 1_555 1_555
C18 C17 1_555 1_555
C19 O7 1_555 1_555
C20 C19 1_555 1_555
H25 C20 1_555 1_555
C21 C20 1_555 1_555
H26 C21 1_555 1_555
C22 C21 1_555 1_555
Cd9 O9 1_555 1_555
O8 C19 1_555 1_555
O10 Cd9 1_555 1_555
C2 C6 1_555 1_555
C4 C5 1_555 1_555
C7 C8 1_555 1_555
O16 Cd9 1_555 1_555
H32 O16 1_555 1_555
N10 Cd9 1_555 1_555
H23 C16 1_555 1_555
N10 C36 1_555 1_555
H45 C35 1_555 1_555
H46 C35 1_555 1_555
C36 H47 1_555 1_555
C37 C35 1_555 1_555
C38 C37 1_555 1_555
H48 C38 1_555 1_555
C39 C38 1_555 1_555
H49 C39 1_555 1_555
C40 N10 1_555 1_555
H50 C40 1_555 1_555
C36 C37 1_555 1_555
C39 C40 1_555 1_555

#END
