
###############################################################################
#
# This file contains modified crystal structure data generated from the
# MOF subset of the Cambridge Structural Database (CSD) v543 
# hosted by the Cambridge Crystallographic Data Centre (CCDC).
#
# This work is licensed under the Creative Commons
# Attribution-NonCommercial-ShareAlike 4.0 International License.
# To view a copy of this license, visit
# http://creativecommons.org/licenses/by-nc-sa/4.0/
# or send a letter to
# Creative Commons, PO Box 1866, Mountain View, CA 94042, USA.
#
# CIF created using the CSD Python API on 29 September 2022
# The structure has been converted into the P1 space group
# The structure has a 3D framework
# The original CSD entry WATRES is in the monoclinic crystal system
# The original CSD entry WATRES is in a Sohncke space group
# The framework has been calculated to contain at least 10.0% void space
# The void calculation uses a probe of radius 1.32A, grid spacing 0.4
#
###############################################################################

data_WATRES
_chemical_formula_moiety         '(C40 H36 Cd6 N4 O29)n'
_symmetry_cell_setting           triclinic
_symmetry_space_group_name_H-M   'P 1'
_symmetry_Int_Tables_number      1
_space_group_name_Hall           'P 1'
loop_
_symmetry_equiv_pos_site_id
_symmetry_equiv_pos_as_xyz
1 x,y,z
_cell_length_a                   9.01260(10)
_cell_length_b                   18.66240(10)
_cell_length_c                   9.16440(10)
_cell_angle_alpha                90
_cell_angle_beta                 103.4670(10)
_cell_angle_gamma                90
_cell_volume                     1499.04
loop_
_atom_site_label
_atom_site_type_symbol
_atom_site_fract_x
_atom_site_fract_y
_atom_site_fract_z
O9 O 0.2047(7) 0.8387(4) 0.2598(7)
O10 O 0.0821(8) 0.8780(4) 0.4275(9)
O14 O 0.0193(8) 0.4999(4) 0.2608(8)
H3 H 0.087192 0.534693 0.258208
H4 H 0.042013 0.467423 0.197225
H14 H 0.065924 0.718014 0.164583
C16 C 0.0854(10) 0.8416(5) 0.3158(11)
Cd5 Cd 0.39157(6) 0.91539(3) 0.39476(6)
Cd8 Cd 0.21817(6) 0.86800(3) 0.02420(6)
Cd2 Cd 0.77041(7) 0.53998(3) 0.18179(7)
O11 O 0.5074(8) 0.8779(4) 0.2047(8)
O12 O 0.4118(7) 0.7899(4) 0.0476(7)
O15 O 0.5211(8) 0.5485(4) 0.0131(10)
H5 H 0.460796 0.518111 0.039188
N2 N 0.8588(8) 0.6260(4) 0.0342(9)
C13 C 0.8415(10) 0.6969(5) 0.0887(10)
C14 C 0.9686(10) 0.7349(5) 0.1636(11)
C15 C 0.9502(10) 0.7982(5) 0.2374(10)
C17 C 0.8064(10) 0.8245(5) 0.2357(10)
H15 H 0.794770 0.865263 0.290360
C18 C 0.6789(10) 0.7890(5) 0.1509(11)
C19 C 0.5237(10) 0.8198(5) 0.1364(11)
C20 C 0.6959(10) 0.7255(5) 0.0784(10)
H16 H 0.610449 0.701823 0.022750
H18 H 0.964821 0.609178 0.057400
O16 O 0.7033(8) 0.4232(4) 0.1695(8)
O18 O 0.6746(7) 0.6156(4) 0.3223(8)
O19 O 0.9195(8) 0.6175(4) 0.4345(9)
O22 O 0.1901(8) 0.9873(4) 0.0559(8)
Cd1 Cd 0.60843(6) 0.41539(3) 0.60524(6)
O1 O 0.6351(8) 0.4535(4) 0.3774(8)
O3 O 0.3254(7) 0.1156(4) 0.6777(8)
O4 O 0.0805(8) 0.1175(4) 0.5655(9)
O6 O 0.0491(7) 0.3752(4) 0.1060(7)
O7 O 0.8099(8) 0.4873(4) 0.9441(8)
O8 O 0.7124(9) 0.5167(4) 0.7044(8)
O13 O 0.3748(8) 0.4663(4) 0.5145(9)
H1 H 0.381682 0.511122 0.479847
H2 H 0.324653 0.473814 0.587530
H6 H 0.526016 0.535030 0.924938
N1 N 0.5771(8) 0.3112(4) 0.4445(9)
C1 C 0.6570(9) 0.4071(5) 0.2867(10)
C2 C 0.6338(10) 0.3279(5) 0.3096(10)
H7 H 0.561851 0.309397 0.222134
H8 H 0.730079 0.303355 0.316855
C3 C 0.4247(10) 0.2842(5) 0.4178(10)
C4 C 0.3074(10) 0.3141(5) 0.3092(10)
H9 H 0.326946 0.352039 0.250527
C5 C 0.1601(11) 0.2868(5) 0.2890(11)
C6 C 0.0335(10) 0.3169(5) 0.1715(11)
C7 C 0.1291(10) 0.2313(5) 0.3797(10)
H10 H 0.030056 0.214041 0.366924
C8 C 0.2444(10) 0.2023(5) 0.4870(10)
C9 C 0.2140(11) 0.1404(6) 0.5815(12)
C10 C 0.3930(10) 0.2286(5) 0.5084(10)
H11 H 0.470771 0.209277 0.582881
C11 C 0.7685(10) 0.5317(5) 0.8387(10)
C12 C 0.7892(11) 0.6117(5) 0.8756(11)
H12 H 0.852557 0.632730 0.814627
H13 H 0.690291 0.635025 0.849035
H17 H 0.648361 0.273049 0.488097
Cd7 Cd 0.22959(7) 0.03998(3) 0.81821(7)
Cd11 Cd 0.78183(6) 0.36800(3) 0.97580(6)
O17 O 0.2967(8) 0.9232(4) 0.8305(8)
O20 O 0.0908(7) 0.7827(4) 0.8607(8)
O24 O 0.7953(7) 0.3387(4) 0.7402(7)
O25 O 0.4926(8) 0.3779(4) 0.7953(8)
O5 O 0.9092(7) 0.2827(4) 0.1393(8)
O21 O 0.9509(7) 0.8752(4) 0.8940(7)
O8_2 O 0.2876(9) 0.0167(4) 0.2956(8)
H1_2 H 0.618318 0.011122 0.520153
H6_2 H 0.473984 0.035030 0.075062
C11_2 C 0.2315(10) 0.0317(5) 0.1613(10)
C12_2 C 0.2108(11) 0.1117(5) 0.1244(11)
H12_2 H 0.147443 0.132730 0.185373
H13_2 H 0.309709 0.135025 0.150965
O12_2 O 0.5882(7) 0.2899(4) 0.9524(7)
O15_2 O 0.4789(8) 0.0485(4) 0.9869(10)
H5_2 H 0.539204 0.018111 0.960812
N2_2 N 0.1412(8) 0.1260(4) 0.9658(9)
C13_2 C 0.1585(10) 0.1969(5) 0.9113(10)
C14_2 C 0.0314(10) 0.2349(5) 0.8364(11)
C15_2 C 0.0498(10) 0.2982(5) 0.7626(10)
C17_2 C 0.1936(10) 0.3245(5) 0.7643(10)
H15_2 H 0.205230 0.365263 0.709640
C18_2 C 0.3211(10) 0.2890(5) 0.8491(11)
C19_2 C 0.4763(10) 0.3198(5) 0.8636(11)
C20_2 C 0.3041(10) 0.2255(5) 0.9216(10)
H16_2 H 0.389551 0.201823 0.977250
H18_2 H 0.035179 0.109178 0.942600
O1_2 O 0.3649(8) 0.9535(4) 0.6226(8)
O13_2 O 0.6252(8) 0.9663(4) 0.4855(9)
H2_2 H 0.675347 0.973814 0.412470
N1_2 N 0.4229(8) 0.8112(4) 0.5555(9)
C1_2 C 0.3430(9) 0.9071(5) 0.7133(10)
C2_2 C 0.3662(10) 0.8279(5) 0.6904(10)
H7_2 H 0.438149 0.809397 0.777866
H8_2 H 0.269921 0.803355 0.683145
C3_2 C 0.5753(10) 0.7842(5) 0.5822(10)
C4_2 C 0.6926(10) 0.8141(5) 0.6908(10)
H9_2 H 0.673054 0.852039 0.749473
C5_2 C 0.8399(11) 0.7868(5) 0.7110(11)
C6_2 C 0.9665(10) 0.8169(5) 0.8285(11)
C7_2 C 0.8709(10) 0.7313(5) 0.6203(10)
H10_2 H 0.969944 0.714041 0.633076
C8_2 C 0.7556(10) 0.7023(5) 0.5130(10)
C9_2 C 0.7860(11) 0.6404(6) 0.4185(12)
C10_2 C 0.6070(10) 0.7286(5) 0.4916(10)
H11_2 H 0.529229 0.709277 0.417119
H17_2 H 0.351639 0.773049 0.511903
O10_2 O 0.9179(8) 0.3780(4) 0.5725(9)
H3_2 H 0.912808 0.034693 0.741792
H14_2 H 0.934076 0.218014 0.835417
C16_2 C 0.9146(10) 0.3416(5) 0.6842(11)
O14_2 O 0.9807(8) 0.9999(4) 0.7392(8)
H4_2 H 0.957987 0.967423 0.802775
loop_
_geom_bond_atom_site_label_1
_geom_bond_atom_site_label_2
_geom_bond_site_symmetry_1
_geom_bond_site_symmetry_2
O9 C16 1_555 1_555
O10 C16 1_555 1_555
H3 O14 1_555 1_555
H4 O14 1_555 1_555
Cd5 O9 1_555 1_555
Cd8 O9 1_555 1_555
Cd8 O11 1_555 1_555
O11 C19 1_555 1_555
O12 Cd8 1_555 1_555
O15 Cd2 1_555 1_555
H5 O15 1_555 1_555
N2 Cd2 1_555 1_555
C13 N2 1_555 1_555
C14 C13 1_555 1_555
C15 C14 1_555 1_555
C17 C15 1_555 1_555
H15 C17 1_555 1_555
C18 C17 1_555 1_555
C19 O12 1_555 1_555
C20 C13 1_555 1_555
H16 C20 1_555 1_555
H18 N2 1_555 1_555
Cd5 O11 1_555 1_555
O16 Cd2 1_555 1_555
O18 Cd2 1_555 1_555
O19 Cd2 1_555 1_555
O22 Cd8 1_555 1_555
C18 C19 1_555 1_555
C18 C20 1_555 1_555
Cd1 O1 1_555 1_555
O1 C1 1_555 1_555
O16 C1 1_555 1_555
O3 C9 1_555 1_555
O4 C9 1_555 1_555
O6 C6 1_555 1_555
O7 C11 1_555 1_555
O8 Cd1 1_555 1_555
O13 Cd1 1_555 1_555
H1 O13 1_555 1_555
H2 O13 1_555 1_555
N1 Cd1 1_555 1_555
C1 C2 1_555 1_555
C2 N1 1_555 1_555
H7 C2 1_555 1_555
H8 C2 1_555 1_555
C3 N1 1_555 1_555
C4 C3 1_555 1_555
H9 C4 1_555 1_555
C5 C4 1_555 1_555
C6 C5 1_555 1_555
C7 C5 1_555 1_555
H10 C7 1_555 1_555
C8 C7 1_555 1_555
C9 C8 1_555 1_555
C10 C3 1_555 1_555
H11 C10 1_555 1_555
C11 O8 1_555 1_555
H12 C12 1_555 1_555
H13 C12 1_555 1_555
H17 N1 1_555 1_555
Cd7 O3 1_555 1_555
Cd11 O7 1_555 1_555
O24 Cd1 1_555 1_555
O25 Cd1 1_555 1_555
O4 Cd7 1_555 1_555
C8 C10 1_555 1_555
C11 C12 1_555 1_555
Cd11 O24 1_555 1_555
Cd11 O25 1_555 1_555
C11_2 O8_2 1_555 1_555
H12_2 C12_2 1_555 1_555
H13_2 C12_2 1_555 1_555
C11_2 C12_2 1_555 1_555
O25 C19_2 1_555 1_555
O12_2 Cd11 1_555 1_555
O15_2 Cd7 1_555 1_555
H5_2 O15_2 1_555 1_555
N2_2 Cd7 1_555 1_555
C13_2 N2_2 1_555 1_555
C14_2 C13_2 1_555 1_555
C15_2 C14_2 1_555 1_555
C17_2 C15_2 1_555 1_555
H15_2 C17_2 1_555 1_555
C18_2 C17_2 1_555 1_555
C19_2 O12_2 1_555 1_555
C20_2 C13_2 1_555 1_555
H16_2 C20_2 1_555 1_555
H18_2 N2_2 1_555 1_555
C18_2 C19_2 1_555 1_555
C18_2 C20_2 1_555 1_555
Cd5 O1_2 1_555 1_555
O1_2 C1_2 1_555 1_555
O17 C1_2 1_555 1_555
O18 C9_2 1_555 1_555
O19 C9_2 1_555 1_555
O21 C6_2 1_555 1_555
O13_2 Cd5 1_555 1_555
H2_2 O13_2 1_555 1_555
N1_2 Cd5 1_555 1_555
C1_2 C2_2 1_555 1_555
C2_2 N1_2 1_555 1_555
H7_2 C2_2 1_555 1_555
H8_2 C2_2 1_555 1_555
C3_2 N1_2 1_555 1_555
C4_2 C3_2 1_555 1_555
H9_2 C4_2 1_555 1_555
C5_2 C4_2 1_555 1_555
C6_2 C5_2 1_555 1_555
C7_2 C5_2 1_555 1_555
H10_2 C7_2 1_555 1_555
C8_2 C7_2 1_555 1_555
C9_2 C8_2 1_555 1_555
C10_2 C3_2 1_555 1_555
H11_2 C10_2 1_555 1_555
H17_2 N1_2 1_555 1_555
C8_2 C10_2 1_555 1_555
O24 C16_2 1_555 1_555
O10_2 C16_2 1_555 1_555
H4_2 O14_2 1_555 1_555

#END
