
###############################################################################
#
# This file contains modified crystal structure data generated from the
# MOF subset of the Cambridge Structural Database (CSD) v543 
# hosted by the Cambridge Crystallographic Data Centre (CCDC).
#
# This work is licensed under the Creative Commons
# Attribution-NonCommercial-ShareAlike 4.0 International License.
# To view a copy of this license, visit
# http://creativecommons.org/licenses/by-nc-sa/4.0/
# or send a letter to
# Creative Commons, PO Box 1866, Mountain View, CA 94042, USA.
#
# CIF created using the CSD Python API on 29 September 2022
# The structure has been converted into the P1 space group
# The structure has a 3D framework
# The original CSD entry WATRAO is in the monoclinic crystal system
# The original CSD entry WATRAO is in a Sohncke space group
# The framework has been calculated to contain at least 10.0% void space
# The void calculation uses a probe of radius 1.32A, grid spacing 0.4
#
###############################################################################

data_WATRAO
_chemical_formula_moiety         '(C98 H126 Cd12 N14 O69)n'
_symmetry_cell_setting           triclinic
_symmetry_space_group_name_H-M   'P 1'
_symmetry_Int_Tables_number      1
_space_group_name_Hall           'P 1'
loop_
_symmetry_equiv_pos_site_id
_symmetry_equiv_pos_as_xyz
1 x,y,z
_cell_length_a                   14.10810(10)
_cell_length_b                   14.3068(2)
_cell_length_c                   23.1617(3)
_cell_angle_alpha                90
_cell_angle_beta                 90.9450(10)
_cell_angle_gamma                90
_cell_volume                     4674.36
loop_
_atom_site_label
_atom_site_type_symbol
_atom_site_fract_x
_atom_site_fract_y
_atom_site_fract_z
O2 O 0.1405(6) 0.8349(8) 0.7797(5)
O5 O 0.1336(7) 0.7612(7) 0.4940(3)
O6 O 0.1865(6) 0.8133(6) 0.5771(3)
C1 C 0.0589(11) 0.8178(13) 0.7642(6)
C2 C 0.0329(12) 0.7152(10) 0.7600(5)
H23 H 0.086978 0.681223 0.745495
H24 H 0.020816 0.692191 0.798616
C7 C 0.0088(7) 0.6383(7) 0.5482(4)
H26 H 0.019094 0.629378 0.508991
C8 C 0.0581(7) 0.7010(8) 0.5773(4)
C9 C 0.1285(8) 0.7645(7) 0.5468(5)
C10 C 0.0434(8) 0.7217(7) 0.6346(4)
H27 H 0.078695 0.767954 0.653186
Cd7 Cd 0.20175(6) 0.98068(9) 0.76619(4)
Cd9 Cd 0.25517(4) 0.89091(10) 0.50013(2)
O10 O 0.3728(8) 0.5097(9) 0.0034(4)
O11 O 0.6395(9) 0.7496(11) 0.0094(5)
O23 O 0.1242(8) 0.2625(9) 0.0041(4)
H58 H 0.778660 0.481107 0.013325
H63 H 0.908980 0.413954 0.003955
Cd11 Cd 0.75163(4) 0.88914(10) 0.00103(2)
O41 O 0.3284(6) 0.3144(6) 0.0738(4)
O44 O 0.1664(6) 0.4430(7) 0.0802(4)
O45 O 0.1375(9) 0.5093(10) 0.0005(5)
Cd1 Cd 0.84753(6) 0.827070 0.73210(3)
Cd2 Cd 0.69232(7) 0.48545(11) 0.76425(4)
Cd3 Cd 0.33899(6) 0.33658(9) 0.73930(4)
Cd5 Cd 0.74483(4) 0.39091(10) 0.49987(2)
Cd6 Cd 0.24837(4) 0.38914(10) 0.99897(2)
O1 O 0.9995(6) 0.8816(8) 0.7449(3)
O3 O 0.8221(6) 0.4642(6) 0.5731(3)
O4 O 0.8899(7) 0.5042(8) 0.4920(4)
O7 O 0.7467(6) 0.6311(7) 0.7463(4)
O8 O 0.6996(7) 0.7751(7) 0.7174(4)
O9 O 0.3296(6) 0.4484(8) 0.9189(4)
O12 O 0.6716(6) 0.8144(6) 0.9262(4)
O13 O 0.4909(6) 0.3896(9) 0.7557(4)
O14 O 0.6356(7) 0.3371(10) 0.7787(5)
O16 O 0.3652(7) 0.0251(8) 0.4980(4)
O17 O 0.6136(6) 0.2785(7) 0.4992(3)
O18 O 0.6681(6) 0.3287(8) 0.5833(3)
O19 O 0.2464(6) 0.1329(8) 0.7546(4)
O20 O 0.1985(8) 0.2664(8) 0.7239(4)
O24 O 0.1676(6) 0.3160(7) 0.9220(4)
O25 O 0.8397(9) 0.8020(7) 0.8314(4)
H1 H 0.794(6) 0.751(6) 0.837(3)
H2 H 0.9047(19) 0.792(9) 0.846(3)
O26 O 0.8540(7) 0.8719(8) 0.6377(4)
H3 H 0.912(4) 0.907(8) 0.629(3)
H4 H 0.794(3) 0.898(9) 0.623(3)
O27 O 0.8348(10) 0.4241(17) 0.7511(7)
H5 H 0.857(7) 0.423(16) 0.7112(15)
H6 H 0.882(5) 0.436(14) 0.782(4)
O28 O 0.6576(9) 0.4737(10) 0.6681(5)
H7 H 0.655(11) 0.4090(19) 0.654(3)
H8 H 0.692(8) 0.519(6) 0.644(2)
O29 O 0.3451(10) 0.3814(12) 0.6456(5)
O30 O 0.2653(9) 0.4627(8) 0.7550(6)
H9 H 0.227(10) 0.470(6) 0.790(4)
H10 H 0.266(11) 0.515(5) 0.728(4)
O31 O 0.3357(8) 0.3051(9) 0.8377(4)
H11 H 0.287(6) 0.260(6) 0.849(3)
H12 H 0.343(9) 0.362(3) 0.861(2)
H17 H 0.220(7) 0.036(6) 0.880(3)
N1 N 0.9515(7) 0.6945(7) 0.7237(4)
H19 H 0.919327 0.640273 0.740273
N2 N 0.5610(9) 0.5837(9) 0.7751(5)
H20 H 0.505581 0.551669 0.758432
N3 N 0.4427(7) 0.2034(7) 0.7319(4)
H21 H 0.410351 0.149325 0.748571
N4 N 0.0637(8) 0.0759(9) 0.7738(5)
H22 H 0.010611 0.041036 0.756489
N5 N 0.3310(13) 0.4889(14) 0.5720(9)
C3 C 0.9746(8) 0.6716(9) 0.6639(5)
C4 C 0.9197(8) 0.6026(9) 0.6346(4)
H25 H 0.871699 0.570688 0.653295
C5 C 0.9398(8) 0.5841(8) 0.5771(5)
C6 C 0.8804(8) 0.5126(8) 0.5454(5)
C11 C 0.6854(10) 0.6924(10) 0.7353(5)
C12 C 0.5803(10) 0.6662(10) 0.7389(6)
H28 H 0.545851 0.719192 0.754094
H29 H 0.556036 0.654284 0.700143
C13 C 0.5427(9) 0.6007(9) 0.8335(5)
C14 C 0.4722(9) 0.5477(10) 0.8610(5)
H30 H 0.436039 0.505201 0.839758
C15 C 0.4564(8) 0.5589(8) 0.9202(4)
C16 C 0.3809(9) 0.5034(8) 0.9488(5)
C17 C 0.5105(8) 0.6290(10) 0.9510(5)
H31 H 0.499036 0.640069 0.989827
C18 C 0.5777(8) 0.6786(9) 0.9237(5)
C19 C 0.6336(8) 0.7524(10) 0.9531(5)
C20 C 0.5937(9) 0.6616(10) 0.8652(6)
H32 H 0.642237 0.694137 0.847420
C21 C 0.5499(9) 0.3284(15) 0.7683(6)
C22 C 0.5261(9) 0.2218(10) 0.7663(6)
H33 H 0.579282 0.188031 0.750362
H34 H 0.516584 0.199191 0.805256
C23 C 0.4578(9) 0.1841(11) 0.6707(4)
C24 C 0.4053(8) 0.1180(9) 0.6437(4)
H35 H 0.363283 0.081368 0.664380
C25 C 0.4152(7) 0.1052(9) 0.5831(4)
C26 C 0.3622(8) 0.0312(8) 0.5523(5)
C27 C 0.4797(9) 0.1573(10) 0.5546(5)
H36 H 0.485374 0.150646 0.514851
C28 C 0.5382(8) 0.2215(12) 0.5844(5)
C29 C 0.6097(8) 0.2814(9) 0.5536(5)
C30 C 0.5262(8) 0.2348(9) 0.6444(5)
H37 H 0.563930 0.276738 0.665169
C31 C 0.1879(9) 0.1884(9) 0.7386(5)
C32 C 0.0809(10) 0.1553(12) 0.7374(6)
H38 H 0.041185 0.206704 0.749698
H39 H 0.062616 0.139639 0.698058
C33 C 0.0413(7) 0.0929(8) 0.8328(4)
C37 C 0.0028(9) 0.1276(9) 0.9481(5)
C38 C 0.0692(10) 0.1829(9) 0.9194(6)
C39 C 0.1250(8) 0.2586(10) 0.9518(5)
C40 C 0.0876(8) 0.1662(8) 0.8624(6)
H42 H 0.130903 0.203417 0.843111
C42 C 0.3046(16) 0.4531(15) 0.6284(10)
H46 H 0.259199 0.482843 0.650497
C43 C 0.3912(19) 0.4288(19) 0.5320(12)
H47 H 0.451258 0.415965 0.550411
H48 H 0.401099 0.461736 0.496536
H49 H 0.358867 0.371056 0.524079
C44 C 0.2757(17) 0.5611(18) 0.5457(12)
H50 H 0.291709 0.619990 0.563130
H51 H 0.209624 0.548372 0.551129
H52 H 0.288515 0.563418 0.505165
O35 O 0.8057(15) 0.975(2) 0.7480(16)
O36 O 0.739(3) 0.496(2) 0.8611(15)
N7 N 0.8321(17) 0.4642(17) 0.9396(10)
H53 H 0.744458 0.984697 0.822085
C47 C 0.814(2) 0.448(2) 0.8802(12)
H57 H 0.849850 0.408041 0.857276
C48 C 0.776(2) 0.511(2) 0.9762(13)
H59 H 0.712174 0.510439 0.961537
H60 H 0.797968 0.574161 0.979770
C49 C 0.912(2) 0.415(2) 0.9626(12)
H61 H 0.969192 0.445771 0.951173
H62 H 0.911673 0.352098 0.948137
O38 O 0.8664(7) 0.2612(7) 0.5060(3)
O39 O 0.8135(6) 0.3133(6) 0.4229(3)
O40 O 0.3605(9) 0.2496(11) 0.9906(5)
O42 O 0.6892(6) 0.4766(7) 0.4184(3)
O43 O 0.6348(7) 0.5251(8) 0.5020(4)
O15 O 0.3108(6) 0.9766(7) 0.5816(3)
O32 O 0.1702(8) 0.9810(10) 0.6665(5)
H13 H 0.197(8) 0.922(5) 0.652(3)
H14 H 0.102(2) 0.992(9) 0.660(3)
O33 O 0.3403(8) 0.9115(11) 0.7432(6)
H15 H 0.332(5) 0.854(5) 0.721(5)
H16 H 0.386(5) 0.911(9) 0.776(3)
O34 O 0.2534(9) 0.9847(8) 0.8611(4)
H18 H 0.3229(11) 0.987(10) 0.862(3)
O22 O 0.8625(9) 0.0093(10) 0.9995(5)
C34 C 0.9768(9) 0.0371(11) 0.8598(5)
C35 C 0.9548(9) 0.0573(9) 0.9190(5)
C36 C 0.8803(8) 0.0001(10) 0.9476(5)
H41 H 0.991043 0.138211 0.986952
O21 O 0.8336(6) 0.9430(7) 0.9198(4)
H40 H 0.947958 0.987464 0.840435
C34_2 C 0.0232(9) 0.5371(11) 0.1402(5)
H40_2 H 0.052042 0.487464 0.159565
C35_2 C 0.0452(9) 0.5573(9) 0.0810(5)
C36_2 C 0.1197(8) 0.5001(10) 0.0524(5)
H41_2 H 0.008957 0.638211 0.013048
Cd1_2 Cd 0.15247(6) 0.327070 0.26790(3)
O1_2 O 0.0005(6) 0.3816(8) 0.2551(3)
O4_2 O 0.1101(7) 0.0042(8) 0.5080(4)
O7_2 O 0.2533(6) 0.1311(7) 0.2537(4)
O8_2 O 0.3004(7) 0.2751(7) 0.2826(4)
O25_2 O 0.1603(9) 0.3020(7) 0.1686(4)
H1_2 H 0.206(6) 0.251(6) 0.163(3)
H2_2 H 0.0953(19) 0.292(9) 0.154(3)
O26_2 O 0.1460(7) 0.3719(8) 0.3623(4)
H3_2 H 0.088(4) 0.407(8) 0.371(3)
H4_2 H 0.206(3) 0.398(9) 0.377(3)
H8_2 H 0.308(8) 0.019(6) 0.356(2)
H10_2 H 0.734(11) 0.015(5) 0.272(4)
N1_2 N 0.0485(7) 0.1945(7) 0.2763(4)
H19_2 H 0.080673 0.140273 0.259727
N2_2 N 0.4390(9) 0.0837(9) 0.2249(5)
H20_2 H 0.494419 0.051669 0.241568
C3_2 C 0.0254(8) 0.1716(9) 0.3361(5)
C4_2 C 0.0803(8) 0.1026(9) 0.3654(4)
H25_2 H 0.128301 0.070688 0.346705
C5_2 C 0.0602(8) 0.0841(8) 0.4229(5)
C6_2 C 0.1196(8) 0.0126(8) 0.4546(5)
C11_2 C 0.3146(10) 0.1924(10) 0.2647(5)
C12_2 C 0.4197(10) 0.1662(10) 0.2611(6)
H28_2 H 0.454149 0.219192 0.245906
H29_2 H 0.443964 0.154284 0.299857
C13_2 C 0.4573(9) 0.1007(9) 0.1665(5)
C14_2 C 0.5278(9) 0.0477(10) 0.1390(5)
H30_2 H 0.563961 0.005201 0.160242
C15_2 C 0.5436(8) 0.0589(8) 0.0798(4)
C16_2 C 0.6191(9) 0.0034(8) 0.0512(5)
C17_2 C 0.4895(8) 0.1290(10) 0.0490(5)
H31_2 H 0.500964 0.140069 0.010173
C18_2 C 0.4223(8) 0.1786(9) 0.0763(5)
C19_2 C 0.3664(8) 0.2524(10) 0.0469(5)
C20_2 C 0.4063(9) 0.1616(10) 0.1348(6)
H32_2 H 0.357763 0.194137 0.152580
C41 C 0.250(2) 0.650(2) 0.1557(13)
H43 H 0.288446 0.704946 0.160769
H44 H 0.194556 0.664869 0.133397
H45 H 0.286263 0.603031 0.135921
C44_2 C 0.7243(17) 0.0611(18) 0.4543(12)
H50_2 H 0.708291 0.119990 0.436870
H51_2 H 0.790376 0.048372 0.448871
H52_2 H 0.711485 0.063418 0.494835
O35_2 O 0.1943(15) 0.475(2) 0.2520(16)
N6 N 0.2253(17) 0.6171(17) 0.2075(11)
C45 C 0.2289(19) 0.5177(17) 0.2082(12)
H53_2 H 0.255542 0.484697 0.177915
C46 C 0.187(2) 0.681(2) 0.2599(13)
H54 H 0.147897 0.643822 0.284554
H55 H 0.149899 0.731940 0.244362
H56 H 0.239546 0.705509 0.281782
C48_2 C 0.224(2) 0.011(2) 0.0238(13)
H59_2 H 0.287826 0.010439 0.038463
H60_2 H 0.202032 0.074161 0.020230
O10_2 O 0.6272(8) 0.0097(9) 0.9966(4)
Cd2_2 Cd 0.30768(7) 0.98545(11) 0.23575(4)
Cd3_2 Cd 0.66101(6) 0.83658(9) 0.26070(4)
Cd4 Cd 0.79825(6) 0.48068(9) 0.23381(4)
O3_2 O 0.1779(6) 0.9642(6) 0.4269(3)
O9_2 O 0.6704(6) 0.9484(8) 0.0811(4)
O13_2 O 0.5091(6) 0.8896(9) 0.2443(4)
O14_2 O 0.3644(7) 0.8371(10) 0.2213(5)
O17_2 O 0.3864(6) 0.7785(7) 0.5008(3)
O18_2 O 0.3319(6) 0.8287(8) 0.4167(3)
O19_2 O 0.7536(6) 0.6329(8) 0.2454(4)
O20_2 O 0.8015(8) 0.7664(8) 0.2761(4)
O24_2 O 0.8324(6) 0.8160(7) 0.0780(4)
O27_2 O 0.1652(10) 0.9241(17) 0.2489(7)
H5_2 H 0.143(7) 0.923(16) 0.2888(15)
H6_2 H 0.118(5) 0.936(14) 0.218(4)
O28_2 O 0.3424(9) 0.9737(10) 0.3319(5)
H7_2 H 0.345(11) 0.9090(19) 0.346(3)
O29_2 O 0.6549(10) 0.8814(12) 0.3544(5)
O30_2 O 0.7347(9) 0.9627(8) 0.2450(6)
H9_2 H 0.773(10) 0.970(6) 0.210(4)
O31_2 O 0.6643(8) 0.8051(9) 0.1623(4)
H11_2 H 0.713(6) 0.760(6) 0.151(3)
H12_2 H 0.657(9) 0.862(3) 0.139(2)
O32_2 O 0.8298(8) 0.4810(10) 0.3335(5)
H13_2 H 0.803(8) 0.422(5) 0.348(3)
H14_2 H 0.898(2) 0.492(9) 0.340(3)
O33_2 O 0.6597(8) 0.4115(11) 0.2568(6)
H15_2 H 0.668(5) 0.354(5) 0.279(5)
H16_2 H 0.614(5) 0.411(9) 0.224(3)
O34_2 O 0.7466(9) 0.4847(8) 0.1389(4)
H17_2 H 0.780(7) 0.536(6) 0.120(3)
H18_2 H 0.6771(11) 0.487(10) 0.138(3)
N3_2 N 0.5573(7) 0.7034(7) 0.2681(4)
H21_2 H 0.589649 0.649325 0.251429
N4_2 N 0.9363(8) 0.5759(9) 0.2262(5)
H22_2 H 0.989389 0.541036 0.243511
N5_2 N 0.6690(13) 0.9889(14) 0.4280(9)
C21_2 C 0.4501(9) 0.8284(15) 0.2317(6)
C22_2 C 0.4739(9) 0.7218(10) 0.2337(6)
H33_2 H 0.420718 0.688031 0.249638
H34_2 H 0.483416 0.699191 0.194744
C23_2 C 0.5422(9) 0.6841(11) 0.3293(4)
C24_2 C 0.5947(8) 0.6180(9) 0.3563(4)
H35_2 H 0.636717 0.581368 0.335620
C25_2 C 0.5848(7) 0.6052(9) 0.4169(4)
C26_2 C 0.6378(8) 0.5312(8) 0.4477(5)
C27_2 C 0.5203(9) 0.6573(10) 0.4454(5)
H36_2 H 0.514626 0.650646 0.485149
C28_2 C 0.4618(8) 0.7215(12) 0.4156(5)
C29_2 C 0.3903(8) 0.7814(9) 0.4464(5)
C30_2 C 0.4738(8) 0.7348(9) 0.3556(5)
H37_2 H 0.436070 0.776738 0.334831
C31_2 C 0.8121(9) 0.6884(9) 0.2614(5)
C32_2 C 0.9191(10) 0.6553(12) 0.2626(6)
H38_2 H 0.958815 0.706704 0.250302
H39_2 H 0.937384 0.639639 0.301942
C33_2 C 0.9587(7) 0.5929(8) 0.1672(4)
C37_2 C 0.9972(9) 0.6276(9) 0.0519(5)
C38_2 C 0.9308(10) 0.6829(9) 0.0806(6)
C39_2 C 0.8750(8) 0.7586(10) 0.0482(5)
C40_2 C 0.9124(8) 0.6662(8) 0.1376(6)
H42_2 H 0.869097 0.703417 0.156889
C42_2 C 0.6954(16) 0.9531(15) 0.3716(10)
H46_2 H 0.740801 0.982843 0.349503
C43_2 C 0.6088(19) 0.9288(19) 0.4680(12)
H47_2 H 0.548742 0.915965 0.449589
H48_2 H 0.598901 0.961736 0.503464
H49_2 H 0.641133 0.871056 0.475921
O36_2 O 0.261(3) 0.996(2) 0.1389(15)
N7_2 N 0.1679(17) 0.9642(17) 0.0604(10)
C47_2 C 0.186(2) 0.948(2) 0.1198(12)
H57_2 H 0.150150 0.908041 0.142724
C49_2 C 0.088(2) 0.915(2) 0.0374(12)
H61_2 H 0.030808 0.945771 0.048827
H62_2 H 0.088327 0.852098 0.051863
O37 O 0.8595(6) 0.3349(8) 0.2203(5)
O23_2 O 0.8758(8) 0.7625(9) 0.9959(4)
H58_2 H 0.221340 0.981107 0.986675
H63_2 H 0.091020 0.913954 0.996045
C1_2 C 0.9411(11) 0.3178(13) 0.2358(6)
C2_2 C 0.9671(12) 0.2152(10) 0.2400(5)
H23_2 H 0.913022 0.181223 0.254505
H24_2 H 0.979184 0.192191 0.201384
C7_2 C 0.9912(7) 0.1383(7) 0.4518(4)
H26_2 H 0.980906 0.129378 0.491009
C8_2 C 0.9419(7) 0.2010(8) 0.4227(4)
C9_2 C 0.8715(8) 0.2645(7) 0.4532(5)
C10_2 C 0.9566(8) 0.2217(7) 0.3654(4)
H27_2 H 0.921305 0.267954 0.346814
C41_2 C 0.750(2) 0.150(2) 0.8443(13)
H43_2 H 0.711554 0.204946 0.839231
H44_2 H 0.805444 0.164869 0.866603
H45_2 H 0.713737 0.103031 0.864079
N6_2 N 0.7747(17) 0.1171(17) 0.7925(11)
C45_2 C 0.7711(19) 0.0177(17) 0.7918(12)
C46_2 C 0.813(2) 0.181(2) 0.7401(13)
H54_2 H 0.852103 0.143822 0.715446
H55_2 H 0.850101 0.231940 0.755638
H56_2 H 0.760454 0.205509 0.718218
loop_
_geom_bond_atom_site_label_1
_geom_bond_atom_site_label_2
_geom_bond_site_symmetry_1
_geom_bond_site_symmetry_2
O2 C1 1_555 1_555
O5 C9 1_555 1_555
O6 C9 1_555 1_555
C1 C2 1_555 1_555
H23 C2 1_555 1_555
H24 C2 1_555 1_555
H26 C7 1_555 1_555
C8 C7 1_555 1_555
C9 C8 1_555 1_555
H27 C10 1_555 1_555
Cd7 O2 1_555 1_555
Cd9 O5 1_555 1_555
O6 Cd9 1_555 1_555
C8 C10 1_555 1_555
Cd11 O11 1_555 1_555
Cd1 O1 1_555 1_555
Cd2 O7 1_555 1_555
Cd3 O13 1_555 1_555
Cd5 O3 1_555 1_555
Cd6 O9 1_555 1_555
O3 C6 1_555 1_555
O4 Cd5 1_555 1_555
O7 C11 1_555 1_555
O8 Cd1 1_555 1_555
O9 C16 1_555 1_555
O12 C19 1_555 1_555
O13 C21 1_555 1_555
O14 Cd2 1_555 1_555
O16 C26 1_555 1_555
O17 Cd5 1_555 1_555
O18 Cd5 1_555 1_555
O19 C31 1_555 1_555
O20 Cd3 1_555 1_555
O24 Cd6 1_555 1_555
O25 Cd1 1_555 1_555
H1 O25 1_555 1_555
H2 O25 1_555 1_555
O26 Cd1 1_555 1_555
H3 O26 1_555 1_555
H4 O26 1_555 1_555
O27 Cd2 1_555 1_555
H5 O27 1_555 1_555
H6 O27 1_555 1_555
O28 Cd2 1_555 1_555
H7 O28 1_555 1_555
H8 O28 1_555 1_555
O29 Cd3 1_555 1_555
O30 Cd3 1_555 1_555
H9 O30 1_555 1_555
H10 O30 1_555 1_555
O31 Cd3 1_555 1_555
H11 O31 1_555 1_555
H12 O31 1_555 1_555
N1 Cd1 1_555 1_555
H19 N1 1_555 1_555
N2 Cd2 1_555 1_555
H20 N2 1_555 1_555
N3 Cd3 1_555 1_555
H21 N3 1_555 1_555
H22 N4 1_555 1_555
N5 C42 1_555 1_555
C3 N1 1_555 1_555
C4 C3 1_555 1_555
H25 C4 1_555 1_555
C5 C4 1_555 1_555
C6 O4 1_555 1_555
C11 O8 1_555 1_555
C12 N2 1_555 1_555
H28 C12 1_555 1_555
H29 C12 1_555 1_555
C13 N2 1_555 1_555
C14 C13 1_555 1_555
H30 C14 1_555 1_555
C15 C14 1_555 1_555
C17 C15 1_555 1_555
H31 C17 1_555 1_555
C18 C17 1_555 1_555
C19 C18 1_555 1_555
C20 C13 1_555 1_555
H32 C20 1_555 1_555
C21 O14 1_555 1_555
C22 N3 1_555 1_555
H33 C22 1_555 1_555
H34 C22 1_555 1_555
C23 N3 1_555 1_555
C24 C23 1_555 1_555
H35 C24 1_555 1_555
C25 C24 1_555 1_555
C26 C25 1_555 1_555
C27 C25 1_555 1_555
H36 C27 1_555 1_555
C28 C27 1_555 1_555
C29 O17 1_555 1_555
C30 C23 1_555 1_555
H37 C30 1_555 1_555
C31 O20 1_555 1_555
C32 N4 1_555 1_555
H38 C32 1_555 1_555
H39 C32 1_555 1_555
C33 N4 1_555 1_555
C38 C37 1_555 1_555
C40 C33 1_555 1_555
H42 C40 1_555 1_555
C42 O29 1_555 1_555
H46 C42 1_555 1_555
C43 N5 1_555 1_555
H47 C43 1_555 1_555
H48 C43 1_555 1_555
H49 C43 1_555 1_555
C44 N5 1_555 1_555
H50 C44 1_555 1_555
H51 C44 1_555 1_555
H52 C44 1_555 1_555
O35 Cd1 1_555 1_555
O36 Cd2 1_555 1_555
N7 C47 1_555 1_555
C47 O36 1_555 1_555
H57 C47 1_555 1_555
C48 N7 1_555 1_555
H59 C48 1_555 1_555
H60 C48 1_555 1_555
C49 N7 1_555 1_555
H61 C49 1_555 1_555
H62 C49 1_555 1_555
O38 Cd5 1_555 1_555
O39 Cd5 1_555 1_555
O40 Cd6 1_555 1_555
O42 Cd5 1_555 1_555
O43 Cd5 1_555 1_555
O18 C29 1_555 1_555
O24 C39 1_555 1_555
C5 C6 1_555 1_555
C11 C12 1_555 1_555
C15 C16 1_555 1_555
C18 C20 1_555 1_555
C21 C22 1_555 1_555
C28 C29 1_555 1_555
C28 C30 1_555 1_555
C31 C32 1_555 1_555
C38 C39 1_555 1_555
C38 C40 1_555 1_555
O32 Cd7 1_555 1_555
H13 O32 1_555 1_555
H14 O32 1_555 1_555
O33 Cd7 1_555 1_555
H15 O33 1_555 1_555
H16 O33 1_555 1_555
O34 Cd7 1_555 1_555
H18 O34 1_555 1_555
Cd9 O15 1_555 1_555
O22 C36 1_555 1_555
C35 C34 1_555 1_555
C36 C35 1_555 1_555
O44 C36_2 1_555 1_555
O45 C36_2 1_555 1_555
H40_2 C34_2 1_555 1_555
C35_2 C34_2 1_555 1_555
C36_2 C35_2 1_555 1_555
Cd1_2 O1_2 1_555 1_555
O7_2 C11_2 1_555 1_555
O8_2 Cd1_2 1_555 1_555
O41 C19_2 1_555 1_555
O25_2 Cd1_2 1_555 1_555
H1_2 O25_2 1_555 1_555
H2_2 O25_2 1_555 1_555
O26_2 Cd1_2 1_555 1_555
H3_2 O26_2 1_555 1_555
H4_2 O26_2 1_555 1_555
N1_2 Cd1_2 1_555 1_555
H19_2 N1_2 1_555 1_555
H20_2 N2_2 1_555 1_555
C3_2 N1_2 1_555 1_555
C4_2 C3_2 1_555 1_555
H25_2 C4_2 1_555 1_555
C5_2 C4_2 1_555 1_555
C6_2 O4_2 1_555 1_555
C11_2 O8_2 1_555 1_555
C12_2 N2_2 1_555 1_555
H28_2 C12_2 1_555 1_555
H29_2 C12_2 1_555 1_555
C13_2 N2_2 1_555 1_555
C14_2 C13_2 1_555 1_555
H30_2 C14_2 1_555 1_555
C15_2 C14_2 1_555 1_555
C17_2 C15_2 1_555 1_555
H31_2 C17_2 1_555 1_555
C18_2 C17_2 1_555 1_555
C19_2 C18_2 1_555 1_555
C20_2 C13_2 1_555 1_555
H32_2 C20_2 1_555 1_555
C41 H43 1_555 1_555
H44 C41 1_555 1_555
H45 C41 1_555 1_555
H50_2 C44_2 1_555 1_555
H51_2 C44_2 1_555 1_555
H52_2 C44_2 1_555 1_555
O35_2 Cd1_2 1_555 1_555
N6 C41 1_555 1_555
C45 O35_2 1_555 1_555
H53_2 C45 1_555 1_555
C46 N6 1_555 1_555
H54 C46 1_555 1_555
H55 C46 1_555 1_555
H56 C46 1_555 1_555
H59_2 C48_2 1_555 1_555
H60_2 C48_2 1_555 1_555
C5_2 C6_2 1_555 1_555
C11_2 C12_2 1_555 1_555
C15_2 C16_2 1_555 1_555
C18_2 C20_2 1_555 1_555
N6 C45 1_555 1_555
Cd3_2 O13_2 1_555 1_555
Cd4 O19_2 1_555 1_555
Cd9 O3_2 1_555 1_555
Cd11 O9_2 1_555 1_555
O13_2 C21_2 1_555 1_555
O14_2 Cd2_2 1_555 1_555
O42 C26_2 1_555 1_555
O43 C26_2 1_555 1_555
O17_2 Cd9 1_555 1_555
O18_2 Cd9 1_555 1_555
O19_2 C31_2 1_555 1_555
O20_2 Cd3_2 1_555 1_555
O24_2 Cd11 1_555 1_555
O27_2 Cd2_2 1_555 1_555
H5_2 O27_2 1_555 1_555
H6_2 O27_2 1_555 1_555
O28_2 Cd2_2 1_555 1_555
H7_2 O28_2 1_555 1_555
O29_2 Cd3_2 1_555 1_555
O30_2 Cd3_2 1_555 1_555
H9_2 O30_2 1_555 1_555
O31_2 Cd3_2 1_555 1_555
H11_2 O31_2 1_555 1_555
H12_2 O31_2 1_555 1_555
O32_2 Cd4 1_555 1_555
H13_2 O32_2 1_555 1_555
H14_2 O32_2 1_555 1_555
O33_2 Cd4 1_555 1_555
H15_2 O33_2 1_555 1_555
H16_2 O33_2 1_555 1_555
O34_2 Cd4 1_555 1_555
H17_2 O34_2 1_555 1_555
H18_2 O34_2 1_555 1_555
N3_2 Cd3_2 1_555 1_555
H21_2 N3_2 1_555 1_555
N4_2 Cd4 1_555 1_555
H22_2 N4_2 1_555 1_555
N5_2 C42_2 1_555 1_555
C21_2 O14_2 1_555 1_555
C22_2 N3_2 1_555 1_555
H33_2 C22_2 1_555 1_555
H34_2 C22_2 1_555 1_555
C23_2 N3_2 1_555 1_555
C24_2 C23_2 1_555 1_555
H35_2 C24_2 1_555 1_555
C25_2 C24_2 1_555 1_555
C26_2 C25_2 1_555 1_555
C27_2 C25_2 1_555 1_555
H36_2 C27_2 1_555 1_555
C28_2 C27_2 1_555 1_555
C29_2 O17_2 1_555 1_555
C30_2 C23_2 1_555 1_555
H37_2 C30_2 1_555 1_555
C31_2 O20_2 1_555 1_555
C32_2 N4_2 1_555 1_555
H38_2 C32_2 1_555 1_555
H39_2 C32_2 1_555 1_555
C33_2 N4_2 1_555 1_555
C38_2 C37_2 1_555 1_555
C40_2 C33_2 1_555 1_555
H42_2 C40_2 1_555 1_555
C42_2 O29_2 1_555 1_555
H46_2 C42_2 1_555 1_555
C43_2 N5_2 1_555 1_555
H47_2 C43_2 1_555 1_555
H48_2 C43_2 1_555 1_555
H49_2 C43_2 1_555 1_555
O36_2 Cd2_2 1_555 1_555
N7_2 C47_2 1_555 1_555
C47_2 O36_2 1_555 1_555
H57_2 C47_2 1_555 1_555
C49_2 N7_2 1_555 1_555
H61_2 C49_2 1_555 1_555
H62_2 C49_2 1_555 1_555
O37 Cd4 1_555 1_555
O18_2 C29_2 1_555 1_555
O24_2 C39_2 1_555 1_555
C21_2 C22_2 1_555 1_555
C28_2 C29_2 1_555 1_555
C28_2 C30_2 1_555 1_555
C31_2 C32_2 1_555 1_555
C38_2 C39_2 1_555 1_555
C38_2 C40_2 1_555 1_555
O37 C1_2 1_555 1_555
O38 C9_2 1_555 1_555
O39 C9_2 1_555 1_555
C1_2 C2_2 1_555 1_555
H23_2 C2_2 1_555 1_555
H24_2 C2_2 1_555 1_555
H26_2 C7_2 1_555 1_555
C8_2 C7_2 1_555 1_555
C9_2 C8_2 1_555 1_555
H27_2 C10_2 1_555 1_555
C8_2 C10_2 1_555 1_555
C41_2 H43_2 1_555 1_555
H44_2 C41_2 1_555 1_555
H45_2 C41_2 1_555 1_555
N6_2 C41_2 1_555 1_555
C46_2 N6_2 1_555 1_555
H54_2 C46_2 1_555 1_555
H55_2 C46_2 1_555 1_555
H56_2 C46_2 1_555 1_555
N6_2 C45_2 1_555 1_555

#END
