
###############################################################################
#
# This file contains modified crystal structure data generated from the
# MOF subset of the Cambridge Structural Database (CSD) v543 
# hosted by the Cambridge Crystallographic Data Centre (CCDC).
#
# This work is licensed under the Creative Commons
# Attribution-NonCommercial-ShareAlike 4.0 International License.
# To view a copy of this license, visit
# http://creativecommons.org/licenses/by-nc-sa/4.0/
# or send a letter to
# Creative Commons, PO Box 1866, Mountain View, CA 94042, USA.
#
# CIF created using the CSD Python API on 29 September 2022
# The structure has been converted into the P1 space group
# The structure has a 3D framework
# The original CSD entry WAVGAF is in the triclinic crystal system
# The framework has been calculated to contain at least 10.0% void space
# The void calculation uses a probe of radius 1.32A, grid spacing 0.4
#
###############################################################################

data_WAVGAF
_chemical_formula_moiety         '(C80 H54 Cd2 N6 O20)n'
_symmetry_cell_setting           triclinic
_symmetry_space_group_name_H-M   'P 1'
_symmetry_Int_Tables_number      1
_space_group_name_Hall           'P 1'
loop_
_symmetry_equiv_pos_site_id
_symmetry_equiv_pos_as_xyz
1 x,y,z
_cell_length_a                   11.7381(5)
_cell_length_b                   12.9999(6)
_cell_length_c                   14.9549(8)
_cell_angle_alpha                110.568(5)
_cell_angle_beta                 103.495(4)
_cell_angle_gamma                103.887(4)
_cell_volume                     1943.29
loop_
_atom_site_label
_atom_site_type_symbol
_atom_site_fract_x
_atom_site_fract_y
_atom_site_fract_z
_atom_site_U_iso_or_equiv
_atom_site_thermal_displace_type
Cd13 Cd 0.01995(2) 0.98372(2) 0.86894(2) 0.0147 Uani
C47 C 0.2597(2) 0.7216(2) 0.4935(2) 0.0275 Uani
C48 C 0.2547(2) 0.6756(2) 0.38417(19) 0.0240 Uani
C49 C 0.1470(2) 0.5935(2) 0.3041(2) 0.0275 Uani
H33 H 0.075362 0.564550 0.317291 0.0330 Uiso
C50 C 0.1451(2) 0.5541(2) 0.2046(2) 0.0277 Uani
H34 H 0.073479 0.497555 0.151017 0.0330 Uiso
C51 C 0.2516(2) 0.6006(2) 0.1866(2) 0.0263 Uani
C52 C 0.3597(2) 0.6806(3) 0.2650(2) 0.0337 Uani
H35 H 0.430879 0.709823 0.251419 0.0400 Uiso
C53 C 0.3619(2) 0.7174(3) 0.3636(2) 0.0344 Uani
H36 H 0.435445 0.770550 0.417067 0.0410 Uiso
C54 C 0.07741(19) 0.84723(19) 0.02822(19) 0.0166 Uani
C56 C 0.1688(2) 0.7035(2) 0.05585(18) 0.0202 Uani
H37 H 0.150456 0.723879 0.115582 0.0240 Uiso
C57 C 0.2268(2) 0.6217(2) 0.03280(18) 0.0198 Uani
O12 O 0.36558(17) 0.7821(2) 0.56143(15) 0.0565 Uani
O13 O 0.15886(15) 0.69655(15) 0.50852(13) 0.0270 Uani
O14 O 0.08669(15) 0.88577(14) 0.12011(13) 0.0253 Uani
O18 O 0.25358(18) 0.55967(16) 0.08766(13) 0.0334 Uani
Cd8 Cd 0.11764(2) 0.80231(2) 0.64702(2) 0.0162 Uani
C55 C 0.13694(19) 0.75623(19) 0.99128(17) 0.0152 Uani
C58 C 0.25975(19) 0.59636(19) 0.94635(17) 0.0164 Uani
C59 C 0.22273(19) 0.64147(19) 0.87918(17) 0.0163 Uani
H38 H 0.240204 0.618863 0.819111 0.0200 Uiso
C60 C 0.15929(19) 0.72071(19) 0.89851(17) 0.0158 Uani
C61 C 0.12538(19) 0.7573(2) 0.81356(18) 0.0174 Uani
C62 C 0.1335(2) 0.0378(2) 0.70741(18) 0.0238 Uani
C63 C 0.1840(2) 0.1683(2) 0.75984(18) 0.0205 Uani
C64 C 0.1046(2) 0.2317(2) 0.77165(18) 0.0228 Uani
H39 H 0.018337 0.192283 0.742659 0.0270 Uiso
C65 C 0.1515(2) 0.3524(2) 0.82578(18) 0.0215 Uani
H40 H 0.097602 0.394444 0.831047 0.0260 Uiso
C66 C 0.2797(2) 0.41002(19) 0.87210(17) 0.0159 Uani
C67 C 0.3610(2) 0.3484(2) 0.86190(18) 0.0199 Uani
H41 H 0.447122 0.387731 0.893376 0.0240 Uiso
C68 C 0.3130(2) 0.2280(2) 0.80457(18) 0.0210 Uani
H42 H 0.367162 0.186590 0.795770 0.0250 Uiso
O15 O 0.01867(15) 0.87819(15) 0.96729(13) 0.0246 Uani
O16 O 0.14199(14) 0.86308(14) 0.83050(12) 0.0198 Uani
O17 O 0.08805(15) 0.67688(14) 0.72502(12) 0.0237 Uani
O19 O 0.33574(13) 0.52961(13) 0.93132(12) 0.0181 Uani
O20 O 0.03343(15) 0.98191(14) 0.71300(12) 0.0260 Uani
O21 O 0.19493(17) 0.98562(14) 0.66112(14) 0.0339 Uani
O22 O 0.33365(15) 0.84564(16) 0.73656(14) 0.0328 Uani
H53 H 0.372710 0.836710 0.694726 0.0490 Uiso
H54 H 0.367308 0.918193 0.777569 0.0490 Uiso
C23 C 0.4891(2) 0.4430(2) 0.48026(19) 0.0244 Uani
H11 H 0.549756 0.418295 0.509517 0.0290 Uiso
C24 C 0.3782(2) 0.3512(2) 0.39457(18) 0.0221 Uani
C25 C 0.2879(2) 0.3733(2) 0.33352(19) 0.0236 Uani
H12 H 0.296400 0.450186 0.344340 0.0280 Uiso
C26 C 0.1852(2) 0.2811(2) 0.25663(18) 0.0217 Uani
H13 H 0.126217 0.298110 0.216339 0.0260 Uiso
C27 C 0.2545(2) 0.1469(2) 0.2943(2) 0.0319 Uani
H14 H 0.244313 0.069236 0.281218 0.0380 Uiso
C28 C 0.3600(2) 0.2343(2) 0.3718(2) 0.0340 Uani
H15 H 0.419392 0.214736 0.409101 0.0410 Uiso
N3 N 0.16596(16) 0.16845(17) 0.23687(15) 0.0208 Uani
C41 C 0.5109(2) 0.5570(2) 0.51974(19) 0.0244 Uani
H28 H 0.450244 0.581705 0.490483 0.0290 Uiso
C42 C 0.6218(2) 0.6488(2) 0.60543(18) 0.0221 Uani
C43 C 0.7121(2) 0.6267(2) 0.66648(19) 0.0236 Uani
H29 H 0.703600 0.549814 0.655660 0.0280 Uiso
C44 C 0.8148(2) 0.7189(2) 0.74337(18) 0.0217 Uani
H30 H 0.873783 0.701890 0.783661 0.0260 Uiso
C45 C 0.7455(2) 0.8531(2) 0.7057(2) 0.0319 Uani
H31 H 0.755687 0.930764 0.718782 0.0380 Uiso
C46 C 0.6400(2) 0.7657(2) 0.6282(2) 0.0340 Uani
H32 H 0.580608 0.785264 0.590899 0.0410 Uiso
N4 N 0.83404(16) 0.83155(17) 0.76313(15) 0.0208 Uani
Cd2 Cd 0.98005(2) 0.01628(2) 0.13106(2) 0.0147 Uani
O25 O 0.98133(15) 0.12181(15) 0.03271(13) 0.0246 Uani
O28 O 0.85801(14) 0.13692(14) 0.16950(12) 0.0198 Uani
O33 O 0.96657(15) 0.01809(14) 0.28700(12) 0.0260 Uani
Cd1 Cd 0.88236(2) 0.19769(2) 0.35298(2) 0.0162 Uani
O10 O 0.80507(17) 0.01438(14) 0.33888(14) 0.0339 Uani
O11 O 0.66635(15) 0.15436(16) 0.26344(14) 0.0328 Uani
H26 H 0.627290 0.163290 0.305274 0.0490 Uiso
H27 H 0.632692 0.081807 0.222431 0.0490 Uiso
O23 O 0.84114(15) 0.30345(15) 0.49148(13) 0.0270 Uani
O31 O 0.91195(15) 0.32312(14) 0.27498(12) 0.0237 Uani
C9 C 0.86306(19) 0.24377(19) 0.00872(17) 0.0152 Uani
C12 C 0.74025(19) 0.40364(19) 0.05365(17) 0.0164 Uani
C13 C 0.77727(19) 0.35853(19) 0.12082(17) 0.0163 Uani
H6 H 0.759796 0.381137 0.180889 0.0200 Uiso
C14 C 0.84071(19) 0.27929(19) 0.10149(17) 0.0158 Uani
C15 C 0.87462(19) 0.2427(2) 0.18644(18) 0.0174 Uani
C16 C 0.8665(2) 0.9622(2) 0.29259(18) 0.0238 Uani
C17 C 0.8160(2) 0.8317(2) 0.24016(18) 0.0205 Uani
C18 C 0.8954(2) 0.7683(2) 0.22835(18) 0.0228 Uani
H7 H 0.981663 0.807717 0.257341 0.0270 Uiso
C19 C 0.8485(2) 0.6476(2) 0.17422(18) 0.0215 Uani
H8 H 0.902398 0.605556 0.168953 0.0260 Uiso
C20 C 0.7203(2) 0.58998(19) 0.12790(17) 0.0159 Uani
C21 C 0.6390(2) 0.6516(2) 0.13810(18) 0.0199 Uani
H9 H 0.552878 0.612269 0.106624 0.0240 Uiso
C22 C 0.6870(2) 0.7720(2) 0.19543(18) 0.0210 Uani
H10 H 0.632838 0.813410 0.204230 0.0250 Uiso
O8 O 0.66426(13) 0.47039(13) 0.06868(12) 0.0181 Uani
C1 C 0.7403(2) 0.2784(2) 0.5065(2) 0.0275 Uani
C2 C 0.7453(2) 0.3244(2) 0.61583(19) 0.0240 Uani
C3 C 0.8530(2) 0.4065(2) 0.6959(2) 0.0275 Uani
H1 H 0.924638 0.435450 0.682709 0.0330 Uiso
C4 C 0.8549(2) 0.4459(2) 0.7954(2) 0.0277 Uani
H2 H 0.926521 0.502445 0.848983 0.0330 Uiso
C5 C 0.7484(2) 0.3994(2) 0.8134(2) 0.0263 Uani
C6 C 0.6403(2) 0.3194(3) 0.7350(2) 0.0337 Uani
H3 H 0.569121 0.290177 0.748581 0.0400 Uiso
C7 C 0.6381(2) 0.2826(3) 0.6364(2) 0.0344 Uani
H4 H 0.564555 0.229450 0.582933 0.0410 Uiso
C8 C 0.92259(19) 0.15277(19) 0.97178(19) 0.0166 Uani
C10 C 0.8312(2) 0.2965(2) 0.94415(18) 0.0202 Uani
H5 H 0.849544 0.276121 0.884418 0.0240 Uiso
C11 C 0.7732(2) 0.3783(2) 0.96720(18) 0.0198 Uani
O1 O 0.63442(17) 0.2179(2) 0.43857(15) 0.0565 Uani
O3 O 0.91331(15) 0.11423(14) 0.87989(13) 0.0253 Uani
O7 O 0.74642(18) 0.44033(16) 0.91234(13) 0.0334 Uani
H16 H 0.711756 0.990632 0.004003 0.0310 Uiso
H19 H 0.824104 0.736216 0.016176 0.0230 Uiso
N2 N 0.78702(16) 0.87695(16) 0.02298(14) 0.0178 Uani
C29 C 0.6995(2) 0.9109(2) 0.97872(19) 0.0260 Uani
C30 C 0.5922(2) 0.8330(2) 0.8974(2) 0.0276 Uani
H17 H 0.534299 0.860790 0.868853 0.0330 Uiso
C31 C 0.5702(2) 0.7131(2) 0.85778(18) 0.0199 Uani
C32 C 0.6599(2) 0.6779(2) 0.90525(18) 0.0194 Uani
H18 H 0.649030 0.598628 0.882818 0.0230 Uiso
C33 C 0.7649(2) 0.7616(2) 0.98581(18) 0.0193 Uani
C34 C 0.4577(2) 0.6339(2) 0.76894(18) 0.0206 Uani
H20 H 0.407083 0.669046 0.742514 0.0250 Uiso
C35 C 0.4193(2) 0.5172(2) 0.72144(17) 0.0197 Uani
H21 H 0.468962 0.480223 0.745960 0.0240 Uiso
C36 C 0.3043(2) 0.4434(2) 0.63336(18) 0.0175 Uani
C37 C 0.2283(2) 0.4891(2) 0.58413(18) 0.0216 Uani
H22 H 0.250225 0.569942 0.606987 0.0260 Uiso
C38 C 0.1221(2) 0.4156(2) 0.50278(19) 0.0223 Uani
H23 H 0.073913 0.448476 0.470807 0.0270 Uiso
C39 C 0.1550(2) 0.2532(2) 0.51180(18) 0.0230 Uani
H24 H 0.130358 0.171960 0.487189 0.0280 Uiso
C40 C 0.2648(2) 0.3214(2) 0.59422(18) 0.0225 Uani
H25 H 0.312275 0.285971 0.623479 0.0270 Uiso
N1 N 0.08294(17) 0.29748(16) 0.46599(15) 0.0184 Uani
C69 C 0.3005(2) 0.0891(2) 0.02128(19) 0.0260 Uani
C70 C 0.4078(2) 0.1670(2) 0.1026(2) 0.0276 Uani
H44 H 0.465701 0.139210 0.131147 0.0330 Uiso
C71 C 0.4298(2) 0.2869(2) 0.14222(18) 0.0199 Uani
C72 C 0.3401(2) 0.3221(2) 0.09475(18) 0.0194 Uani
H45 H 0.350970 0.401372 0.117182 0.0230 Uiso
C73 C 0.2351(2) 0.2384(2) 0.01419(18) 0.0193 Uani
C74 C 0.5423(2) 0.3661(2) 0.23106(18) 0.0206 Uani
H47 H 0.592917 0.330954 0.257486 0.0250 Uiso
C75 C 0.5807(2) 0.4828(2) 0.27856(17) 0.0197 Uani
H48 H 0.531038 0.519777 0.254040 0.0240 Uiso
C76 C 0.6957(2) 0.5566(2) 0.36664(18) 0.0175 Uani
C77 C 0.7717(2) 0.5109(2) 0.41587(18) 0.0216 Uani
H49 H 0.749775 0.430058 0.393013 0.0260 Uiso
C78 C 0.8779(2) 0.5844(2) 0.49722(19) 0.0223 Uani
H50 H 0.926087 0.551524 0.529193 0.0270 Uiso
C79 C 0.8450(2) 0.7468(2) 0.48820(18) 0.0230 Uani
H51 H 0.869642 0.828040 0.512811 0.0280 Uiso
C80 C 0.7352(2) 0.6786(2) 0.40578(18) 0.0225 Uani
H52 H 0.687725 0.714029 0.376521 0.0270 Uiso
N5 N 0.91706(17) 0.70252(16) 0.53401(15) 0.0184 Uani
H43 H 0.288244 0.009368 0.995997 0.0310 Uiso
H46 H 0.175896 0.263784 0.983824 0.0230 Uiso
N6 N 0.21298(16) 0.12305(16) 0.97702(14) 0.0178 Uani
loop_
_atom_site_aniso_label
_atom_site_aniso_U_11
_atom_site_aniso_U_22
_atom_site_aniso_U_33
_atom_site_aniso_U_23
_atom_site_aniso_U_13
_atom_site_aniso_U_12
Cd13 0.01459 0.01256 0.01336 0.00334 0.00263 0.0046
C47 0.0289 0.036 0.0252 0.0163 0.0119 0.0172
C48 0.0282 0.0344 0.0229 0.0183 0.0129 0.0204
C49 0.0298 0.0353 0.0295 0.0186 0.0171 0.0179
C50 0.0308 0.0308 0.0212 0.0099 0.0061 0.0154
C51 0.0433 0.0323 0.0235 0.0195 0.0186 0.029
C52 0.035 0.0477 0.0352 0.0257 0.0234 0.0197
C53 0.0302 0.0438 0.0305 0.016 0.0135 0.0124
C54 0.015 0.0117 0.0223 0.0076 0.0065 0.0031
C56 0.0271 0.0232 0.0157 0.0091 0.0113 0.0129
C57 0.0297 0.0197 0.0178 0.0114 0.0097 0.0151
O12 0.0253 0.108 0.0234 0.0183 0.007 0.019
O13 0.0275 0.0282 0.023 0.0067 0.0142 0.0075
O14 0.0313 0.0263 0.0174 0.0037 0.0077 0.0183
O18 0.0669 0.0393 0.0238 0.0225 0.0288 0.0422
Cd8 0.01777 0.01423 0.01231 0.00387 0.0027 0.00404
C55 0.0148 0.0134 0.0134 0.0037 0.0019 0.0046
C58 0.018 0.0118 0.0186 0.0043 0.0059 0.0079
C59 0.0177 0.0154 0.0139 0.005 0.0059 0.0044
C60 0.015 0.0128 0.017 0.0055 0.0043 0.0035
C61 0.0145 0.0196 0.0197 0.009 0.0061 0.0076
C62 0.0341 0.0189 0.0152 0.009 0.004 0.0059
C63 0.0286 0.0174 0.0181 0.0101 0.01 0.0068
C64 0.019 0.0211 0.0224 0.0069 0.0049 0.0033
C65 0.0215 0.0225 0.0229 0.0102 0.0082 0.0107
C66 0.0214 0.015 0.0144 0.0076 0.0085 0.0077
C67 0.0183 0.0207 0.0219 0.0089 0.0086 0.0078
C68 0.0263 0.0182 0.0234 0.0095 0.0132 0.0109
O15 0.027 0.0307 0.0309 0.0205 0.0157 0.0186
O16 0.0245 0.0189 0.0209 0.0103 0.0102 0.0112
O17 0.0324 0.0178 0.0133 0.0042 0.002 0.0059
O19 0.0186 0.0149 0.0192 0.0037 0.0063 0.009
O20 0.0319 0.0201 0.0146 0.0055 0.0038 -0.0023
O21 0.0423 0.0167 0.0424 0.0092 0.0213 0.009
O22 0.0279 0.0388 0.0285 0.0115 0.0072 0.0137
C23 0.0172 0.0263 0.0235 0.0076 0.0049 0.0045
C24 0.0159 0.0246 0.018 0.0043 0.0056 0.002
C25 0.0239 0.0171 0.0261 0.0064 0.0099 0.0044
C26 0.0189 0.0226 0.0204 0.0084 0.0032 0.0069
C27 0.0249 0.0198 0.0356 0.0062 -0.006 0.0071
C28 0.0258 0.0285 0.0327 0.008 -0.0061 0.0085
N3 0.016 0.0189 0.0205 0.0054 0.0025 0.0032
C41 0.0172 0.0263 0.0235 0.0076 0.0049 0.0045
C42 0.0159 0.0246 0.018 0.0043 0.0056 0.002
C43 0.0239 0.0171 0.0261 0.0064 0.0099 0.0044
C44 0.0189 0.0226 0.0204 0.0084 0.0032 0.0069
C45 0.0249 0.0198 0.0356 0.0062 -0.006 0.0071
C46 0.0258 0.0285 0.0327 0.008 -0.0061 0.0085
N4 0.016 0.0189 0.0205 0.0054 0.0025 0.0032
Cd2 0.01459 0.01256 0.01336 0.00334 0.00263 0.0046
O25 0.027 0.0307 0.0309 0.0205 0.0157 0.0186
O28 0.0245 0.0189 0.0209 0.0103 0.0102 0.0112
O33 0.0319 0.0201 0.0146 0.0055 0.0038 -0.0023
Cd1 0.01777 0.01423 0.01231 0.00387 0.0027 0.00404
O10 0.0423 0.0167 0.0424 0.0092 0.0213 0.009
O11 0.0279 0.0388 0.0285 0.0115 0.0072 0.0137
O23 0.0275 0.0282 0.023 0.0067 0.0142 0.0075
O31 0.0324 0.0178 0.0133 0.0042 0.002 0.0059
C9 0.0148 0.0134 0.0134 0.0037 0.0019 0.0046
C12 0.018 0.0118 0.0186 0.0043 0.0059 0.0079
C13 0.0177 0.0154 0.0139 0.005 0.0059 0.0044
C14 0.015 0.0128 0.017 0.0055 0.0043 0.0035
C15 0.0145 0.0196 0.0197 0.009 0.0061 0.0076
C16 0.0341 0.0189 0.0152 0.009 0.004 0.0059
C17 0.0286 0.0174 0.0181 0.0101 0.01 0.0068
C18 0.019 0.0211 0.0224 0.0069 0.0049 0.0033
C19 0.0215 0.0225 0.0229 0.0102 0.0082 0.0107
C20 0.0214 0.015 0.0144 0.0076 0.0085 0.0077
C21 0.0183 0.0207 0.0219 0.0089 0.0086 0.0078
C22 0.0263 0.0182 0.0234 0.0095 0.0132 0.0109
O8 0.0186 0.0149 0.0192 0.0037 0.0063 0.009
C1 0.0289 0.036 0.0252 0.0163 0.0119 0.0172
C2 0.0282 0.0344 0.0229 0.0183 0.0129 0.0204
C3 0.0298 0.0353 0.0295 0.0186 0.0171 0.0179
C4 0.0308 0.0308 0.0212 0.0099 0.0061 0.0154
C5 0.0433 0.0323 0.0235 0.0195 0.0186 0.029
C6 0.035 0.0477 0.0352 0.0257 0.0234 0.0197
C7 0.0302 0.0438 0.0305 0.016 0.0135 0.0124
C8 0.015 0.0117 0.0223 0.0076 0.0065 0.0031
C10 0.0271 0.0232 0.0157 0.0091 0.0113 0.0129
C11 0.0297 0.0197 0.0178 0.0114 0.0097 0.0151
O1 0.0253 0.108 0.0234 0.0183 0.007 0.019
O3 0.0313 0.0263 0.0174 0.0037 0.0077 0.0183
O7 0.0669 0.0393 0.0238 0.0225 0.0288 0.0422
N2 0.0171 0.0172 0.0166 0.0054 0.005 0.0059
C29 0.0198 0.0155 0.0302 0.0021 0 0.006
C30 0.0194 0.0231 0.0304 0.0061 -0.0022 0.0098
C31 0.016 0.021 0.0185 0.0064 0.0058 0.0028
C32 0.0208 0.0138 0.019 0.0045 0.0059 0.0032
C33 0.0181 0.0202 0.0176 0.0075 0.0046 0.0059
C34 0.0153 0.0216 0.0204 0.0064 0.0043 0.005
C35 0.0181 0.0225 0.0159 0.0077 0.0047 0.0051
C36 0.0164 0.0194 0.0155 0.0062 0.0072 0.0048
C37 0.0236 0.0123 0.0211 0.0031 0.0026 0.0047
C38 0.0227 0.0199 0.0217 0.0079 0.0045 0.0082
C39 0.0249 0.013 0.0215 0.0025 0.0032 0.0031
C40 0.021 0.02 0.0212 0.0072 0.0012 0.0069
N1 0.0175 0.0172 0.0169 0.0063 0.0032 0.0043
C69 0.0198 0.0155 0.0302 0.0021 0 0.006
C70 0.0194 0.0231 0.0304 0.0061 -0.0022 0.0098
C71 0.016 0.021 0.0185 0.0064 0.0058 0.0028
C72 0.0208 0.0138 0.019 0.0045 0.0059 0.0032
C73 0.0181 0.0202 0.0176 0.0075 0.0046 0.0059
C74 0.0153 0.0216 0.0204 0.0064 0.0043 0.005
C75 0.0181 0.0225 0.0159 0.0077 0.0047 0.0051
C76 0.0164 0.0194 0.0155 0.0062 0.0072 0.0048
C77 0.0236 0.0123 0.0211 0.0031 0.0026 0.0047
C78 0.0227 0.0199 0.0217 0.0079 0.0045 0.0082
C79 0.0249 0.013 0.0215 0.0025 0.0032 0.0031
C80 0.021 0.02 0.0212 0.0072 0.0012 0.0069
N5 0.0175 0.0172 0.0169 0.0063 0.0032 0.0043
N6 0.0171 0.0172 0.0166 0.0054 0.005 0.0059
loop_
_geom_bond_atom_site_label_1
_geom_bond_atom_site_label_2
_geom_bond_site_symmetry_1
_geom_bond_site_symmetry_2
C47 C48 1_555 1_555
C48 C49 1_555 1_555
C49 H33 1_555 1_555
C50 C49 1_555 1_555
H34 C50 1_555 1_555
C51 C50 1_555 1_555
C52 C51 1_555 1_555
H35 C52 1_555 1_555
C53 C48 1_555 1_555
H36 C53 1_555 1_555
C56 H37 1_555 1_555
C57 C56 1_555 1_555
O12 C47 1_555 1_555
O13 C47 1_555 1_555
O18 C51 1_555 1_555
Cd8 O13 1_555 1_555
C52 C53 1_555 1_555
C54 O14 1_555 1_555
C57 O18 1_555 1_555
C59 C58 1_555 1_555
H38 C59 1_555 1_555
C60 C55 1_555 1_555
C61 C60 1_555 1_555
C62 C63 1_555 1_555
C63 C64 1_555 1_555
C64 H39 1_555 1_555
C65 C64 1_555 1_555
H40 C65 1_555 1_555
C66 C65 1_555 1_555
C67 C66 1_555 1_555
H41 C67 1_555 1_555
C68 C63 1_555 1_555
H42 C68 1_555 1_555
O16 C61 1_555 1_555
O17 C61 1_555 1_555
O19 C58 1_555 1_555
Cd8 O16 1_555 1_555
Cd13 O15 1_555 1_555
C59 C60 1_555 1_555
C66 O19 1_555 1_555
C67 C68 1_555 1_555
O16 Cd13 1_555 1_555
O17 Cd8 1_555 1_555
O22 Cd8 1_555 1_555
H53 O22 1_555 1_555
H54 O22 1_555 1_555
Cd13 O20 1_555 1_555
Cd8 O20 1_555 1_555
Cd8 O21 1_555 1_555
C23 H11 1_555 1_555
C24 C23 1_555 1_555
C25 C24 1_555 1_555
H12 C25 1_555 1_555
C26 C25 1_555 1_555
H13 C26 1_555 1_555
C27 H14 1_555 1_555
C28 C24 1_555 1_555
H15 C28 1_555 1_555
N3 C26 1_555 1_555
C41 C23 1_555 1_555
H28 C41 1_555 1_555
C42 C41 1_555 1_555
C43 C42 1_555 1_555
H29 C43 1_555 1_555
C44 C43 1_555 1_555
H30 C44 1_555 1_555
C45 H31 1_555 1_555
C46 C42 1_555 1_555
H32 C46 1_555 1_555
N4 C44 1_555 1_555
C27 C28 1_555 1_555
C27 N3 1_555 1_555
C45 C46 1_555 1_555
C45 N4 1_555 1_555
O25 Cd2 1_555 1_555
O28 Cd2 1_555 1_555
O33 Cd2 1_555 1_555
O11 Cd1 1_555 1_555
H26 O11 1_555 1_555
H27 O11 1_555 1_555
O23 Cd1 1_555 1_555
O28 Cd1 1_555 1_555
O31 Cd1 1_555 1_555
Cd1 O33 1_555 1_555
Cd1 O10 1_555 1_555
C13 C12 1_555 1_555
H6 C13 1_555 1_555
C14 C9 1_555 1_555
C15 C14 1_555 1_555
C16 C17 1_555 1_555
C17 C18 1_555 1_555
C18 H7 1_555 1_555
C19 C18 1_555 1_555
H8 C19 1_555 1_555
C20 C19 1_555 1_555
C21 C20 1_555 1_555
H9 C21 1_555 1_555
C22 C17 1_555 1_555
H10 C22 1_555 1_555
O28 C15 1_555 1_555
O31 C15 1_555 1_555
O8 C12 1_555 1_555
C13 C14 1_555 1_555
C20 O8 1_555 1_555
C21 C22 1_555 1_555
C1 C2 1_555 1_555
C2 C3 1_555 1_555
C3 H1 1_555 1_555
C4 C3 1_555 1_555
H2 C4 1_555 1_555
C5 C4 1_555 1_555
C6 C5 1_555 1_555
H3 C6 1_555 1_555
C7 C2 1_555 1_555
H4 C7 1_555 1_555
C10 H5 1_555 1_555
C11 C10 1_555 1_555
O1 C1 1_555 1_555
O23 C1 1_555 1_555
O3 C8 1_555 1_555
O7 C5 1_555 1_555
C6 C7 1_555 1_555
C11 O7 1_555 1_555
C30 C29 1_555 1_555
H17 C30 1_555 1_555
C31 C30 1_555 1_555
C32 C31 1_555 1_555
H18 C32 1_555 1_555
C33 C32 1_555 1_555
C34 C31 1_555 1_555
H20 C34 1_555 1_555
C35 C34 1_555 1_555
H21 C35 1_555 1_555
C36 C35 1_555 1_555
C37 C36 1_555 1_555
H22 C37 1_555 1_555
C38 C37 1_555 1_555
H23 C38 1_555 1_555
C39 H24 1_555 1_555
C40 C36 1_555 1_555
H25 C40 1_555 1_555
N1 C38 1_555 1_555
C39 C40 1_555 1_555
C39 N1 1_555 1_555
C70 C69 1_555 1_555
H44 C70 1_555 1_555
C71 C70 1_555 1_555
C72 C71 1_555 1_555
H45 C72 1_555 1_555
C73 C72 1_555 1_555
C74 C71 1_555 1_555
H47 C74 1_555 1_555
C75 C74 1_555 1_555
H48 C75 1_555 1_555
C76 C75 1_555 1_555
C77 C76 1_555 1_555
H49 C77 1_555 1_555
C78 C77 1_555 1_555
H50 C78 1_555 1_555
C79 H51 1_555 1_555
C80 C76 1_555 1_555
H52 C80 1_555 1_555
N5 C78 1_555 1_555
C79 C80 1_555 1_555
C79 N5 1_555 1_555

#END
