
###############################################################################
#
# This file contains modified crystal structure data generated from the
# MOF subset of the Cambridge Structural Database (CSD) v543 
# hosted by the Cambridge Crystallographic Data Centre (CCDC).
#
# This work is licensed under the Creative Commons
# Attribution-NonCommercial-ShareAlike 4.0 International License.
# To view a copy of this license, visit
# http://creativecommons.org/licenses/by-nc-sa/4.0/
# or send a letter to
# Creative Commons, PO Box 1866, Mountain View, CA 94042, USA.
#
# CIF created using the CSD Python API on 29 September 2022
# The structure has been converted into the P1 space group
# The structure has a 3D framework
# The original CSD entry WAVWAV is in the cubic crystal system
# The original CSD entry WAVWAV is in a Sohncke space group
# The framework has been calculated to contain at least 10.0% void space
# The void calculation uses a probe of radius 1.32A, grid spacing 0.4
# H atom positions have been added when not included in the experimental data
# Generated hydrogen atom positions removed from atoms on special positions
#
###############################################################################

data_WAVWAV
_chemical_formula_moiety         '(C84 H60 Mn15 N12 O58)n'
_symmetry_cell_setting           triclinic
_symmetry_space_group_name_H-M   'P 1'
_symmetry_Int_Tables_number      1
_space_group_name_Hall           'P 1'
loop_
_symmetry_equiv_pos_site_id
_symmetry_equiv_pos_as_xyz
1 x,y,z
_cell_length_a                   14.1662(5)
_cell_length_b                   14.1662(5)
_cell_length_c                   14.1662(5)
_cell_angle_alpha                90
_cell_angle_beta                 90
_cell_angle_gamma                90
_cell_volume                     2842.89
loop_
_atom_site_label
_atom_site_type_symbol
_atom_site_fract_x
_atom_site_fract_y
_atom_site_fract_z
Mn4 Mn 0.16138(4) 0.77096(3) 0.58503(3)
O11 O 0.07286(17) 0.69256(18) 0.67938(18)
C18 C 0.0011(2) 0.6365(2) 0.6801(2)
H6 H 0.0325 0.5565 0.7963
Mn13 Mn 0.04669(5) 0.95331(5) 0.45331(5)
O17 O 0.29467(19) 0.67284(18) 0.62840(16)
O20 O 0.17284(18) 0.87160(16) 0.70533(19)
O24 O 0.27353(16) 0.84338(18) 0.51413(16)
O25 O 0.05960(18) 0.79667(16) 0.46387(16)
N4 N 0.1760(2) 0.65439(19) 0.48604(18)
Mn1 Mn 0.58503(3) 0.16138(4) 0.77096(3)
O1 O 0.67938(18) 0.07286(17) 0.69256(18)
C4 C 0.6801(2) 0.0011(2) 0.6365(2)
H2 H 0.7963 0.0325 0.5565
Mn12 Mn 0.45331(5) 0.04669(5) 0.95331(5)
O16 O 0.70533(19) 0.17284(18) 0.87160(16)
O19 O 0.62840(16) 0.29467(19) 0.67284(18)
O22 O 0.51413(16) 0.27353(16) 0.84338(18)
O26 O 0.46387(16) 0.05960(18) 0.79667(16)
N5 N 0.48604(18) 0.1760(2) 0.65439(19)
Mn3 Mn 0.77096(3) 0.58503(3) 0.16138(4)
O6 O 0.69256(18) 0.67938(18) 0.07286(17)
C11 C 0.6365(2) 0.6801(2) 0.0011(2)
H4 H 0.5565 0.7963 0.0325
Mn11 Mn 0.95331(5) 0.45331(5) 0.04669(5)
O18 O 0.87160(16) 0.70533(19) 0.17284(18)
O21 O 0.67284(18) 0.62840(16) 0.29467(19)
O23 O 0.84338(18) 0.51413(16) 0.27353(16)
O27 O 0.79667(16) 0.46387(16) 0.05960(18)
N6 N 0.65439(19) 0.48604(18) 0.1760(2)
Mn2 Mn 0.54669(5) 0.54669(5) 0.54669(5)
O2 O 0.79467(19) 0.82716(18) 0.37160(16)
O3 O 0.48587(16) 0.77353(16) 0.65662(18)
O4 O 0.55960(18) 0.70333(16) 0.53613(16)
N1 N 0.6760(2) 0.84561(19) 0.51396(18)
C1 C 0.7427(2) 0.9113(2) 0.5069(2)
C2 C 0.5467(2) 0.7717(2) 0.5935(2)
O5 O 0.8889(2) 0.9387(2) 0.4287(3)
C3 C 0.6123(2) 0.8540(2) 0.5841(2)
C5 C 0.6112(2) 0.9295(2) 0.6456(2)
H1 H 0.5656 0.9333 0.6926
C6 C 0.7482(2) 0.9885(2) 0.5645(2)
C7 C 0.8144(2) 0.8915(2) 0.4307(2)
O7 O 0.37160(16) 0.79467(19) 0.82716(18)
O8 O 0.65662(18) 0.48587(16) 0.77353(16)
O9 O 0.53613(16) 0.55960(18) 0.70333(16)
N2 N 0.51396(18) 0.6760(2) 0.84561(19)
C8 C 0.5069(2) 0.7427(2) 0.9113(2)
C9 C 0.5935(2) 0.5467(2) 0.7717(2)
O10 O 0.4287(3) 0.8889(2) 0.9387(2)
C10 C 0.5841(2) 0.6123(2) 0.8540(2)
C12 C 0.6456(2) 0.6112(2) 0.9295(2)
H3 H 0.6926 0.5656 0.9333
C13 C 0.5645(2) 0.7482(2) 0.9885(2)
C14 C 0.4307(2) 0.8144(2) 0.8915(2)
O12 O 0.82716(18) 0.37160(16) 0.79467(19)
O13 O 0.77353(16) 0.65662(18) 0.48587(16)
O14 O 0.70333(16) 0.53613(16) 0.55960(18)
N3 N 0.84561(19) 0.51396(18) 0.6760(2)
C15 C 0.9113(2) 0.5069(2) 0.7427(2)
C16 C 0.7717(2) 0.5935(2) 0.5467(2)
O15 O 0.9387(2) 0.4287(3) 0.8889(2)
C17 C 0.8540(2) 0.5841(2) 0.6123(2)
C19 C 0.9295(2) 0.6456(2) 0.6112(2)
H5 H 0.9333 0.6926 0.5656
C20 C 0.9885(2) 0.5645(2) 0.7482(2)
C21 C 0.8915(2) 0.4307(2) 0.8144(2)
Mn5 Mn 0.91497(3) 0.83862(4) 0.27096(3)
Mn6 Mn 0.41497(3) 0.66138(4) 0.72904(3)
Mn7 Mn 0.27096(3) 0.91497(3) 0.83862(4)
Mn8 Mn 0.72904(3) 0.41497(3) 0.66138(4)
Mn9 Mn 0.83862(4) 0.27096(3) 0.91497(3)
Mn10 Mn 0.66138(4) 0.72904(3) 0.41497(3)
O28 O 0.3889(2) 0.5613(2) 0.5713(3)
O29 O 0.5713(3) 0.3889(2) 0.5613(2)
O30 O 0.5613(2) 0.5713(3) 0.3889(2)
O3_2 O 0.01413(16) 0.22647(16) 0.15662(18)
O7_2 O 0.12840(16) 0.20533(19) 0.32716(18)
O10_2 O 0.0713(3) 0.1111(2) 0.4387(2)
C14_2 C 0.0693(2) 0.1856(2) 0.3915(2)
Mn6_2 Mn 0.08503(3) 0.33862(4) 0.22904(3)
Mn7_2 Mn 0.22904(3) 0.08503(3) 0.33862(4)
O28_2 O 0.1111(2) 0.4387(2) 0.0713(3)
O26_2 O 0.03613(16) 0.94040(18) 0.29667(16)
N5_2 N 0.01396(18) 0.8240(2) 0.15439(19)
O4_2 O 0.94040(18) 0.29667(16) 0.03613(16)
N1_2 N 0.8240(2) 0.15439(19) 0.01396(18)
C1_2 C 0.7573(2) 0.0887(2) 0.0069(2)
C2_2 C 0.9533(2) 0.2283(2) 0.0935(2)
C3_2 C 0.8877(2) 0.1460(2) 0.0841(2)
C5_2 C 0.8888(2) 0.0705(2) 0.1456(2)
H1_2 H 0.9344 0.0667 0.1926
C6_2 C 0.7518(2) 0.0115(2) 0.0645(2)
O6_2 O 0.80744(18) 0.32062(18) 0.57286(17)
O9_2 O 0.96387(16) 0.44040(18) 0.20333(16)
N2_2 N 0.98604(18) 0.3240(2) 0.34561(19)
C8_2 C 0.9931(2) 0.2573(2) 0.4113(2)
C9_2 C 0.9065(2) 0.4533(2) 0.2717(2)
C10_2 C 0.9159(2) 0.3877(2) 0.3540(2)
C11_2 C 0.8635(2) 0.3199(2) 0.5011(2)
C12_2 C 0.8544(2) 0.3888(2) 0.4295(2)
H3_2 H 0.8074 0.4344 0.4333
C13_2 C 0.9355(2) 0.2518(2) 0.4885(2)
H4_2 H 0.9435 0.2037 0.5325
Mn4_2 Mn 0.33862(4) 0.22904(3) 0.08503(3)
O11_2 O 0.42714(17) 0.30744(18) 0.17938(18)
C15_2 C 0.5887(2) 0.4931(2) 0.2427(2)
C16_2 C 0.7283(2) 0.4065(2) 0.0467(2)
C17_2 C 0.6460(2) 0.4159(2) 0.1123(2)
C18_2 C 0.4989(2) 0.3635(2) 0.1801(2)
C19_2 C 0.5705(2) 0.3544(2) 0.1112(2)
H5_2 H 0.5667 0.3074 0.0656
C20_2 C 0.5115(2) 0.4355(2) 0.2482(2)
H6_2 H 0.4675 0.4435 0.2963
C21_2 C 0.6085(2) 0.5693(2) 0.3144(2)
O17_2 O 0.20533(19) 0.32716(18) 0.12840(16)
O20_2 O 0.32716(18) 0.12840(16) 0.20533(19)
O24_2 O 0.22647(16) 0.15662(18) 0.01413(16)
O29_2 O 0.9287(3) 0.6111(2) 0.0613(2)
O5_2 O 0.6111(2) 0.0613(2) 0.9287(3)
C7_2 C 0.6856(2) 0.1085(2) 0.9307(2)
O13_2 O 0.72647(16) 0.34338(18) 0.98587(16)
O25_2 O 0.44040(18) 0.20333(16) 0.96387(16)
N4_2 N 0.3240(2) 0.34561(19) 0.98604(18)
O1_2 O 0.82062(18) 0.92714(17) 0.19256(18)
C4_2 C 0.8199(2) 0.9989(2) 0.1365(2)
H2_2 H 0.7037 0.9675 0.0565
O22_2 O 0.98587(16) 0.72647(16) 0.34338(18)
C7_3 C 0.1856(2) 0.3915(2) 0.0693(2)
O30_2 O 0.4387(2) 0.0713(3) 0.1111(2)
O1_3 O 0.32062(18) 0.57286(17) 0.80744(18)
C1_3 C 0.2573(2) 0.4113(2) 0.9931(2)
C2_3 C 0.4533(2) 0.2717(2) 0.9065(2)
C3_3 C 0.3877(2) 0.3540(2) 0.9159(2)
C4_3 C 0.3199(2) 0.5011(2) 0.8635(2)
C5_3 C 0.3888(2) 0.4295(2) 0.8544(2)
H1_3 H 0.4344 0.4333 0.8074
C6_3 C 0.2518(2) 0.4885(2) 0.9355(2)
H2_3 H 0.2037 0.5325 0.9435
O6_3 O 0.30744(18) 0.17938(18) 0.42714(17)
C8_3 C 0.4931(2) 0.2427(2) 0.5887(2)
C9_3 C 0.4065(2) 0.0467(2) 0.7283(2)
C10_3 C 0.4159(2) 0.1123(2) 0.6460(2)
C11_3 C 0.3635(2) 0.1801(2) 0.4989(2)
C12_3 C 0.3544(2) 0.1112(2) 0.5705(2)
H3_3 H 0.3074 0.0656 0.5667
C13_3 C 0.4355(2) 0.2482(2) 0.5115(2)
H4_3 H 0.4435 0.2963 0.4675
C14_3 C 0.5693(2) 0.3144(2) 0.6085(2)
O14_2 O 0.29667(16) 0.03613(16) 0.94040(18)
N3_2 N 0.15439(19) 0.01396(18) 0.8240(2)
C15_3 C 0.0887(2) 0.0069(2) 0.7573(2)
C16_3 C 0.2283(2) 0.0935(2) 0.9533(2)
C17_3 C 0.1460(2) 0.0841(2) 0.8877(2)
C19_3 C 0.0705(2) 0.1456(2) 0.8888(2)
H5_3 H 0.0667 0.1926 0.9344
C20_3 C 0.0115(2) 0.0645(2) 0.7518(2)
O23_2 O 0.15662(18) 0.01413(16) 0.22647(16)
O8_2 O 0.34338(18) 0.98587(16) 0.72647(16)
O15_2 O 0.0613(2) 0.9287(3) 0.6111(2)
C21_3 C 0.1085(2) 0.9307(2) 0.6856(2)
O27_2 O 0.20333(16) 0.96387(16) 0.44040(18)
N6_2 N 0.34561(19) 0.98604(18) 0.3240(2)
O11_3 O 0.92714(17) 0.19256(18) 0.82062(18)
C18_3 C 0.9989(2) 0.1365(2) 0.8199(2)
H6_3 H 0.9675 0.0565 0.7037
C21_4 C 0.3915(2) 0.0693(2) 0.1856(2)
O1_4 O 0.17938(18) 0.42714(17) 0.30744(18)
C1_4 C 0.2427(2) 0.5887(2) 0.4931(2)
C2_4 C 0.0467(2) 0.7283(2) 0.4065(2)
C3_4 C 0.1123(2) 0.6460(2) 0.4159(2)
C4_4 C 0.1801(2) 0.4989(2) 0.3635(2)
C5_4 C 0.1112(2) 0.5705(2) 0.3544(2)
H1_4 H 0.0656 0.5667 0.3074
C6_4 C 0.2482(2) 0.5115(2) 0.4355(2)
H2_4 H 0.2963 0.4675 0.4435
C7_4 C 0.3144(2) 0.6085(2) 0.5693(2)
C8_4 C 0.0069(2) 0.7573(2) 0.0887(2)
C9_4 C 0.0935(2) 0.9533(2) 0.2283(2)
C10_4 C 0.0841(2) 0.8877(2) 0.1460(2)
C12_4 C 0.1456(2) 0.8888(2) 0.0705(2)
H3_4 H 0.1926 0.9344 0.0667
C13_4 C 0.0645(2) 0.7518(2) 0.0115(2)
O11_4 O 0.57286(17) 0.80744(18) 0.32062(18)
C15_4 C 0.4113(2) 0.9931(2) 0.2573(2)
C16_4 C 0.2717(2) 0.9065(2) 0.4533(2)
C17_4 C 0.3540(2) 0.9159(2) 0.3877(2)
C18_4 C 0.5011(2) 0.8635(2) 0.3199(2)
C19_4 C 0.4295(2) 0.8544(2) 0.3888(2)
H5_4 H 0.4333 0.8074 0.4344
C20_4 C 0.4885(2) 0.9355(2) 0.2518(2)
H6_4 H 0.5325 0.9435 0.2037
O6_4 O 0.19256(18) 0.82062(18) 0.92714(17)
C11_4 C 0.1365(2) 0.8199(2) 0.9989(2)
H4_4 H 0.0565 0.7037 0.9675
C14_4 C 0.9307(2) 0.6856(2) 0.1085(2)
O31 O 0.83007(19) 0.16993(19) 0.66993(19)
O31_2 O 0.66993(19) 0.83007(19) 0.16993(19)
O31_3 O 0.16993(19) 0.66993(19) 0.83007(19)
O31_4 O 0.33007(19) 0.33007(19) 0.33007(19)
loop_
_geom_bond_atom_site_label_1
_geom_bond_atom_site_label_2
_geom_bond_site_symmetry_1
_geom_bond_site_symmetry_2
Mn4 O11 1_555 1_555
O11 C18 1_555 1_555
O17 Mn4 1_555 1_555
O20 Mn4 1_555 1_555
O24 Mn4 1_555 1_555
O25 Mn4 1_555 1_555
N4 Mn4 1_555 1_555
Mn13 O25 1_555 1_555
Mn1 O1 1_555 1_555
O1 C4 1_555 1_555
O16 Mn1 1_555 1_555
O19 Mn1 1_555 1_555
O22 Mn1 1_555 1_555
O26 Mn1 1_555 1_555
N5 Mn1 1_555 1_555
Mn12 O26 1_555 1_555
Mn3 O6 1_555 1_555
O6 C11 1_555 1_555
O18 Mn3 1_555 1_555
O21 Mn3 1_555 1_555
O23 Mn3 1_555 1_555
O27 Mn3 1_555 1_555
N6 Mn3 1_555 1_555
Mn11 O27 1_555 1_555
Mn2 O4 1_555 1_555
O2 C7 1_555 1_555
O3 C2 1_555 1_555
O4 C2 1_555 1_555
N1 C1 1_555 1_555
C1 C6 1_555 1_555
C2 C3 1_555 1_555
O5 C7 1_555 1_555
C3 N1 1_555 1_555
C5 C3 1_555 1_555
H1 C5 1_555 1_555
C7 C1 1_555 1_555
O7 C14 1_555 1_555
O8 C9 1_555 1_555
O9 Mn2 1_555 1_555
N2 C8 1_555 1_555
C8 C13 1_555 1_555
C9 O9 1_555 1_555
O10 C14 1_555 1_555
C10 N2 1_555 1_555
C12 C10 1_555 1_555
H3 C12 1_555 1_555
C14 C8 1_555 1_555
O12 C21 1_555 1_555
O13 C16 1_555 1_555
O14 Mn2 1_555 1_555
N3 C15 1_555 1_555
C15 C20 1_555 1_555
C16 O14 1_555 1_555
O15 C21 1_555 1_555
C17 N3 1_555 1_555
C19 C17 1_555 1_555
H5 C19 1_555 1_555
C21 C15 1_555 1_555
Mn5 O2 1_555 1_555
Mn6 O3 1_555 1_555
Mn7 O7 1_555 1_555
Mn8 O8 1_555 1_555
Mn9 O12 1_555 1_555
Mn10 O2 1_555 1_555
O28 Mn2 1_555 1_555
O29 Mn2 1_555 1_555
O30 Mn2 1_555 1_555
O4 Mn10 1_555 1_555
N1 Mn10 1_555 1_555
O7 Mn6 1_555 1_555
O9 Mn6 1_555 1_555
N2 Mn6 1_555 1_555
C9 C10 1_555 1_555
O12 Mn8 1_555 1_555
O13 Mn10 1_555 1_555
O14 Mn8 1_555 1_555
N3 Mn8 1_555 1_555
C16 C17 1_555 1_555
O7_2 C14_2 1_555 1_555
O10_2 C14_2 1_555 1_555
Mn6_2 O3_2 1_555 1_555
Mn7_2 O7_2 1_555 1_555
O7_2 Mn6_2 1_555 1_555
Mn13 O26_2 1_555 1_555
Mn11 O4_2 1_555 1_555
O4_2 C2_2 1_555 1_555
N1_2 C1_2 1_555 1_555
C1_2 C6_2 1_555 1_555
C2_2 C3_2 1_555 1_555
C3_2 N1_2 1_555 1_555
C5_2 C3_2 1_555 1_555
H1_2 C5_2 1_555 1_555
Mn8 O6_2 1_555 1_555
O6_2 C11_2 1_555 1_555
O23 C9_2 1_555 1_555
O9_2 Mn11 1_555 1_555
N2_2 C8_2 1_555 1_555
C8_2 C13_2 1_555 1_555
C9_2 O9_2 1_555 1_555
C10_2 N2_2 1_555 1_555
C11_2 C12_2 1_555 1_555
C12_2 C10_2 1_555 1_555
H3_2 C12_2 1_555 1_555
C13_2 C11_2 1_555 1_555
H4_2 C13_2 1_555 1_555
Mn4_2 O11_2 1_555 1_555
O11_2 C18_2 1_555 1_555
O21 C21_2 1_555 1_555
N6 C15_2 1_555 1_555
C15_2 C20_2 1_555 1_555
C16_2 O27 1_555 1_555
O30 C21_2 1_555 1_555
C17_2 N6 1_555 1_555
C18_2 C19_2 1_555 1_555
C19_2 C17_2 1_555 1_555
H5_2 C19_2 1_555 1_555
C20_2 C18_2 1_555 1_555
H6_2 C20_2 1_555 1_555
C21_2 C15_2 1_555 1_555
Mn10 O21 1_555 1_555
O17_2 Mn4_2 1_555 1_555
O19 Mn8 1_555 1_555
O20_2 Mn4_2 1_555 1_555
O24_2 Mn4_2 1_555 1_555
O29_2 Mn11 1_555 1_555
C9_2 C10_2 1_555 1_555
C16_2 C17_2 1_555 1_555
O16 C7_2 1_555 1_555
O5_2 C7_2 1_555 1_555
Mn9 O16 1_555 1_555
Mn12 O5_2 1_555 1_555
O13_2 Mn9 1_555 1_555
Mn12 O25_2 1_555 1_555
Mn5 O1_2 1_555 1_555
O1_2 C4_2 1_555 1_555
O18 Mn5 1_555 1_555
O22_2 Mn5 1_555 1_555
O17_2 C7_3 1_555 1_555
O28_2 C7_3 1_555 1_555
Mn6_2 O17_2 1_555 1_555
Mn6 O1_3 1_555 1_555
O1_3 C4_3 1_555 1_555
O22 C2_3 1_555 1_555
O25_2 C2_3 1_555 1_555
N4_2 C1_3 1_555 1_555
C1_3 C6_3 1_555 1_555
C2_3 C3_3 1_555 1_555
C3_3 N4_2 1_555 1_555
C4_3 C5_3 1_555 1_555
C5_3 C3_3 1_555 1_555
H1_3 C5_3 1_555 1_555
C6_3 C4_3 1_555 1_555
H2_3 C6_3 1_555 1_555
Mn7_2 O6_3 1_555 1_555
O6_3 C11_3 1_555 1_555
O19 C14_3 1_555 1_555
N5 C8_3 1_555 1_555
C8_3 C13_3 1_555 1_555
C9_3 O26 1_555 1_555
O29 C14_3 1_555 1_555
C10_3 N5 1_555 1_555
C11_3 C12_3 1_555 1_555
C12_3 C10_3 1_555 1_555
H3_3 C12_3 1_555 1_555
C13_3 C11_3 1_555 1_555
H4_3 C13_3 1_555 1_555
C14_3 C8_3 1_555 1_555
O14_2 Mn12 1_555 1_555
N3_2 C15_3 1_555 1_555
C15_3 C20_3 1_555 1_555
C16_3 O14_2 1_555 1_555
C17_3 N3_2 1_555 1_555
C19_3 C17_3 1_555 1_555
H5_3 C19_3 1_555 1_555
O17 Mn6 1_555 1_555
O20_2 Mn7_2 1_555 1_555
O23_2 Mn7_2 1_555 1_555
C9_3 C10_3 1_555 1_555
C16_3 C17_3 1_555 1_555
O20 C21_3 1_555 1_555
O15_2 C21_3 1_555 1_555
Mn7 O8_2 1_555 1_555
Mn13 O15_2 1_555 1_555
O20 Mn7 1_555 1_555
Mn13 O27_2 1_555 1_555
Mn9 O11_3 1_555 1_555
O11_3 C18_3 1_555 1_555
O20_2 C21_4 1_555 1_555
O30_2 C21_4 1_555 1_555
Mn6_2 O1_4 1_555 1_555
O1_4 C4_4 1_555 1_555
O17 C7_4 1_555 1_555
O25 C2_4 1_555 1_555
N4 C1_4 1_555 1_555
C1_4 C6_4 1_555 1_555
C2_4 C3_4 1_555 1_555
O28 C7_4 1_555 1_555
C3_4 N4 1_555 1_555
C4_4 C5_4 1_555 1_555
C5_4 C3_4 1_555 1_555
H1_4 C5_4 1_555 1_555
C6_4 C4_4 1_555 1_555
H2_4 C6_4 1_555 1_555
C7_4 C1_4 1_555 1_555
N5_2 C8_4 1_555 1_555
C8_4 C13_4 1_555 1_555
C9_4 O26_2 1_555 1_555
C10_4 N5_2 1_555 1_555
C12_4 C10_4 1_555 1_555
H3_4 C12_4 1_555 1_555
Mn10 O11_4 1_555 1_555
O11_4 C18_4 1_555 1_555
O24 C16_4 1_555 1_555
N6_2 C15_4 1_555 1_555
C15_4 C20_4 1_555 1_555
C16_4 O27_2 1_555 1_555
C17_4 N6_2 1_555 1_555
C18_4 C19_4 1_555 1_555
C19_4 C17_4 1_555 1_555
H5_4 C19_4 1_555 1_555
C20_4 C18_4 1_555 1_555
H6_4 C20_4 1_555 1_555
C9_4 C10_4 1_555 1_555
C16_4 C17_4 1_555 1_555
Mn7 O6_4 1_555 1_555
O6_4 C11_4 1_555 1_555
O18 C14_4 1_555 1_555
O29_2 C14_4 1_555 1_555

#END
