
###############################################################################
#
# This file contains modified crystal structure data generated from the
# MOF subset of the Cambridge Structural Database (CSD) v543 
# hosted by the Cambridge Crystallographic Data Centre (CCDC).
#
# This work is licensed under the Creative Commons
# Attribution-NonCommercial-ShareAlike 4.0 International License.
# To view a copy of this license, visit
# http://creativecommons.org/licenses/by-nc-sa/4.0/
# or send a letter to
# Creative Commons, PO Box 1866, Mountain View, CA 94042, USA.
#
# CIF created using the CSD Python API on 29 September 2022
# The structure has been converted into the P1 space group
# The structure has a 3D framework
# The original CSD entry WAXPEU is in the triclinic crystal system
# The framework has been calculated to contain at least 10.0% void space
# The void calculation uses a probe of radius 1.32A, grid spacing 0.4
#
###############################################################################

data_WAXPEU
_chemical_formula_moiety         '(C50 H42 Cu3 O22 P8)n'
_symmetry_cell_setting           triclinic
_symmetry_space_group_name_H-M   'P 1'
_symmetry_Int_Tables_number      1
_space_group_name_Hall           'P 1'
loop_
_symmetry_equiv_pos_site_id
_symmetry_equiv_pos_as_xyz
1 x,y,z
_cell_length_a                   12.6825(7)
_cell_length_b                   13.4378(7)
_cell_length_c                   13.9073(9)
_cell_angle_alpha                118.442(2)
_cell_angle_beta                 106.156(2)
_cell_angle_gamma                97.020(2)
_cell_volume                     1908.54
loop_
_atom_site_label
_atom_site_type_symbol
_atom_site_fract_x
_atom_site_fract_y
_atom_site_fract_z
O11 O 0.00746(13) 0.07406(14) 0.31509(14)
H4 H 0.0543 0.0468 0.2851
O3 O 0.00093(13) 0.89169(14) 0.32922(13)
Cu12 Cu 0.18032(2) 0.94532(2) 0.47307(2)
Cu2 Cu 0.81968(2) 0.05468(2) 0.52693(2)
O6 O 0.90892(13) 0.05010(15) 0.43398(14)
O8 O 0.17367(13) 0.01115(13) 0.24668(13)
H1 H 0.2244 0.0410 0.2180
H8 H 0.7503 0.0471 0.2339
O27 O 0.74714(14) 0.08562(14) 0.64313(14)
O29 O 0.99907(13) 0.10831(14) 0.67078(13)
O33 O 0.78653(13) 0.19238(14) 0.52046(14)
Cu1 Cu 0.5000 -0.0000 0.5000
O25 O 0.45818(13) 0.14806(13) 0.57670(13)
O34 O 0.57796(14) 0.06096(13) 0.43122(13)
P1 P 0.93678(5) 0.97889(5) 0.32790(5)
P2 P 0.19376(5) 0.89838(5) 0.23739(5)
O2 O 0.25286(14) 0.91438(14) 0.35687(14)
O12 O 0.07674(13) 0.79411(14) 0.16307(14)
H5 H 0.0323 0.8105 0.1994
C1 C 0.34254(18) 0.77339(19) 0.15635(18)
H6 H 0.3491 0.7535 0.2144
C3 C 0.72878(19) 0.9635(2) 0.1816(2)
C11 C 0.80514(18) 0.9007(2) 0.19910(19)
C12 C 0.27502(18) 0.84556(18) 0.14731(18)
C13 C 0.62270(19) 0.9043(2) 0.0887(2)
H11 H 0.5718 0.9479 0.0781
C14 C 0.66576(19) 0.7197(2) 0.02541(19)
C16 C 0.40008(18) 0.73068(19) 0.08081(19)
H13 H 0.4471 0.6830 0.0886
C19 C 0.77327(19) 0.7795(2) 0.1192(2)
H16 H 0.8253 0.7364 0.1283
C20 C 0.26731(19) 0.8749(2) 0.06325(19)
H17 H 0.2233 0.9258 0.0582
C21 C 0.58876(18) 0.78106(19) 0.00960(18)
O31 O 0.75507(14) 0.88140(14) 0.44443(14)
Cu1_2 Cu 0.5000 1.0000 0.5000
P3 P 0.34057(5) 0.81953(5) 0.52070(5)
P4 P 0.35015(5) 0.18652(5) 0.55752(5)
O4 O 0.24493(14) 0.11860(14) 0.55557(14)
O5 O 0.21347(13) 0.80762(14) 0.47954(14)
O7 O 0.42204(14) 0.93904(13) 0.56878(13)
O9 O 0.32224(14) 0.19559(14) 0.44535(14)
H2 H 0.2737 0.1321 0.3860
O10 O 0.36204(13) 0.71948(13) 0.41464(13)
H3 H 0.4176 0.7495 0.4055
C2 C 0.51497(19) 0.82958(19) 0.82034(19)
H7 H 0.5901 0.8691 0.8809
C4 C 0.44069(18) 0.58261(18) 0.84194(18)
C5 C 0.38985(17) 0.75688(18) 0.99296(18)
C6 C 0.4858(2) 0.8489(2) 0.7275(2)
H9 H 0.5412 0.9017 0.7257
C7 C 0.43562(18) 0.75339(18) 0.82509(18)
C8 C 0.46357(18) 0.71823(18) 0.91796(18)
C9 C 0.46724(19) 0.4245(2) 0.6763(2)
H10 H 0.5023 0.4004 0.6201
C10 C 0.37668(19) 0.79189(19) 0.63782(19)
H12 H 0.6451 0.6363 0.9719
C15 C 0.39043(18) 0.33953(19) 0.67454(19)
C17 C 0.32352(18) 0.83050(19) 0.98629(19)
H14 H 0.3167 0.8506 0.9284
C18 C 0.29571(19) 0.71532(19) 0.64290(19)
H15 H 0.2204 0.6762 0.5828
C22 C 0.3430(2) 0.3770(2) 0.7596(2)
H18 H 0.2934 0.3197 0.7617
C23 C 0.32517(19) 0.69678(19) 0.73493(19)
H19 H 0.2696 0.6447 0.7373
C24 C 0.49268(19) 0.54341(19) 0.7595(2)
H20 H 0.5468 0.6001 0.7608
C25 C 0.36680(19) 0.49752(19) 0.84228(19)
H21 H 0.3323 0.5215 0.8990
P7 P 0.65943(5) 0.18047(5) 0.47930(5)
P8 P 0.64985(5) 0.81348(5) 0.44248(5)
O13 O 0.54182(13) 0.85194(13) 0.42330(13)
O21 O 0.67776(14) 0.80441(14) 0.55465(14)
H23 H 0.7263 0.8679 0.6140
O22 O 0.63796(13) 0.28052(13) 0.58536(13)
H24 H 0.5824 0.2505 0.5945
C27 C 0.48503(19) 0.17042(19) 0.17966(19)
H28 H 0.4099 0.1309 0.1191
C29 C 0.55931(18) 0.41739(18) 0.15806(18)
C30 C 0.61015(17) 0.24312(18) 0.00704(18)
C31 C 0.5142(2) 0.1511(2) 0.2725(2)
H30 H 0.4588 0.0983 0.2743
C32 C 0.56438(18) 0.24661(18) 0.17491(18)
C33 C 0.53643(18) 0.28177(18) 0.08204(18)
C34 C 0.53276(19) 0.5755(2) 0.3237(2)
H31 H 0.4977 0.5996 0.3799
C35 C 0.62332(19) 0.20811(19) 0.36218(19)
H33 H 0.3549 0.3637 0.0281
C40 C 0.60957(18) 0.66047(19) 0.32546(19)
C42 C 0.67648(18) 0.16950(19) 0.01371(19)
H35 H 0.6833 0.1494 0.0716
C43 C 0.70429(19) 0.28468(19) 0.35710(19)
H36 H 0.7796 0.3238 0.4172
C47 C 0.6570(2) 0.6230(2) 0.2404(2)
H39 H 0.7066 0.6803 0.2383
C48 C 0.67483(19) 0.30322(19) 0.26507(19)
H40 H 0.7304 0.3553 0.2627
C49 C 0.50732(19) 0.45659(19) 0.2405(2)
H41 H 0.4532 0.3999 0.2392
C50 C 0.63320(19) 0.50248(19) 0.15772(19)
H42 H 0.6677 0.4785 0.1010
P5 P 0.06322(5) 0.02111(5) 0.67210(5)
P6 P 0.80624(5) 0.10162(5) 0.76261(5)
O24 O 0.92326(13) 0.20589(14) 0.83693(14)
H26 H 0.9677 0.1895 0.8006
C26 C 0.65746(18) 0.22661(19) 0.84365(18)
H27 H 0.6509 0.2465 0.7856
C28 C 0.27122(19) 0.0365(2) 0.8184(2)
C36 C 0.19486(18) 0.0993(2) 0.80090(19)
C37 C 0.72498(18) 0.15444(18) 0.85269(18)
C38 C 0.37730(19) 0.0957(2) 0.9113(2)
H32 H 0.4282 0.0521 0.9219
C39 C 0.33424(19) 0.2803(2) 0.97459(19)
C41 C 0.59992(18) 0.26932(19) 0.91919(19)
H34 H 0.5529 0.3170 0.9114
C44 C 0.22673(19) 0.2205(2) 0.8808(2)
H37 H 0.1747 0.2636 0.8717
C45 C 0.73269(19) 0.1251(2) 0.93675(19)
H38 H 0.7767 0.0742 0.9418
C46 C 0.41124(18) 0.21894(19) 0.99040(18)
O18 O 0.09108(13) 0.94990(15) 0.56602(14)
O20 O 0.82633(13) 0.98885(13) 0.75332(13)
H22 H 0.7756 0.9590 0.7820
H29 H 0.2497 0.9529 0.7661
O23 O 0.99254(13) 0.92594(14) 0.68491(14)
H25 H 0.9457 0.9532 0.7149
loop_
_geom_bond_atom_site_label_1
_geom_bond_atom_site_label_2
_geom_bond_site_symmetry_1
_geom_bond_site_symmetry_2
H4 O11 1_555 1_555
O3 Cu12 1_555 1_555
Cu2 O6 1_555 1_555
H1 O8 1_555 1_555
O27 Cu2 1_555 1_555
O29 Cu2 1_555 1_555
O33 Cu2 1_555 1_555
O25 Cu1 1_555 1_555
O34 Cu1 1_555 1_555
P2 O2 1_555 1_555
O2 Cu12 1_555 1_555
O12 P2 1_555 1_555
H5 O12 1_555 1_555
C1 H6 1_555 1_555
C11 P1 1_555 1_555
C12 P2 1_555 1_555
C13 C3 1_555 1_555
H11 C13 1_555 1_555
C16 C1 1_555 1_555
H13 C16 1_555 1_555
C19 C11 1_555 1_555
H16 C19 1_555 1_555
C20 C12 1_555 1_555
H17 C20 1_555 1_555
C1 C12 1_555 1_555
C3 C11 1_555 1_555
C13 C21 1_555 1_555
C14 C19 1_555 1_555
C14 C21 1_555 1_555
Cu1_2 O7 1_555 1_555
P3 O5 1_555 1_555
P4 O25 1_555 1_555
O4 P4 1_555 1_555
O5 Cu12 1_555 1_555
O7 P3 1_555 1_555
O9 P4 1_555 1_555
H2 O9 1_555 1_555
O10 P3 1_555 1_555
H3 O10 1_555 1_555
C2 H7 1_555 1_555
C4 C8 1_555 1_555
C5 C8 1_555 1_555
C6 C2 1_555 1_555
H9 C6 1_555 1_555
C7 C2 1_555 1_555
C8 C7 1_555 1_555
C9 H10 1_555 1_555
C10 P3 1_555 1_555
C15 P4 1_555 1_555
C17 C5 1_555 1_555
H14 C17 1_555 1_555
C18 C10 1_555 1_555
H15 C18 1_555 1_555
C22 C15 1_555 1_555
H18 C22 1_555 1_555
C23 C7 1_555 1_555
H19 C23 1_555 1_555
C24 C4 1_555 1_555
H20 C24 1_555 1_555
C25 C4 1_555 1_555
H21 C25 1_555 1_555
P7 O33 1_555 1_555
P8 O13 1_555 1_555
O13 Cu1_2 1_555 1_555
O31 P8 1_555 1_555
O34 P7 1_555 1_555
O21 P8 1_555 1_555
H23 O21 1_555 1_555
O22 P7 1_555 1_555
H24 O22 1_555 1_555
C27 H28 1_555 1_555
C29 C33 1_555 1_555
C30 C33 1_555 1_555
C31 C27 1_555 1_555
H30 C31 1_555 1_555
C32 C27 1_555 1_555
C33 C32 1_555 1_555
C34 H31 1_555 1_555
C35 P7 1_555 1_555
C40 P8 1_555 1_555
C42 C30 1_555 1_555
H35 C42 1_555 1_555
C43 C35 1_555 1_555
H36 C43 1_555 1_555
C47 C40 1_555 1_555
H39 C47 1_555 1_555
C48 C32 1_555 1_555
H40 C48 1_555 1_555
C49 C29 1_555 1_555
H41 C49 1_555 1_555
C50 C29 1_555 1_555
H42 C50 1_555 1_555
C6 C10 1_555 1_555
C9 C15 1_555 1_555
C9 C24 1_555 1_555
C18 C23 1_555 1_555
C22 C25 1_555 1_555
C31 C35 1_555 1_555
C34 C40 1_555 1_555
C34 C49 1_555 1_555
C43 C48 1_555 1_555
C47 C50 1_555 1_555
P6 O27 1_555 1_555
O24 P6 1_555 1_555
H26 O24 1_555 1_555
C26 H27 1_555 1_555
C36 P5 1_555 1_555
C37 P6 1_555 1_555
C38 C28 1_555 1_555
H32 C38 1_555 1_555
C41 C26 1_555 1_555
H34 C41 1_555 1_555
C44 C36 1_555 1_555
H37 C44 1_555 1_555
C45 C37 1_555 1_555
H38 C45 1_555 1_555
C26 C37 1_555 1_555
C28 C36 1_555 1_555
C38 C46 1_555 1_555
C39 C44 1_555 1_555
C39 C46 1_555 1_555
Cu12 O18 1_555 1_555
H22 O20 1_555 1_555
H25 O23 1_555 1_555

#END
