
###############################################################################
#
# This file contains modified crystal structure data generated from the
# MOF subset of the Cambridge Structural Database (CSD) v543 
# hosted by the Cambridge Crystallographic Data Centre (CCDC).
#
# This work is licensed under the Creative Commons
# Attribution-NonCommercial-ShareAlike 4.0 International License.
# To view a copy of this license, visit
# http://creativecommons.org/licenses/by-nc-sa/4.0/
# or send a letter to
# Creative Commons, PO Box 1866, Mountain View, CA 94042, USA.
#
# CIF created using the CSD Python API on 29 September 2022
# The structure has been converted into the P1 space group
# The structure has a 3D framework
# The original CSD entry WAYMAM is in the orthorhombic crystal system
# The framework has been calculated to contain at least 10.0% void space
# The void calculation uses a probe of radius 1.32A, grid spacing 0.4
# H atom positions have been added when not included in the experimental data
#
###############################################################################

data_WAYMAM
_chemical_formula_moiety         '(C55 H31 Fe2 O18 V3)n'
_symmetry_cell_setting           triclinic
_symmetry_space_group_name_H-M   'P 1'
_symmetry_Int_Tables_number      1
_space_group_name_Hall           'P 1'
loop_
_symmetry_equiv_pos_site_id
_symmetry_equiv_pos_as_xyz
1 x,y,z
_cell_length_a                   6.799(2)
_cell_length_b                   16.946(3)
_cell_length_c                   12.749(2)
_cell_angle_alpha                90
_cell_angle_beta                 90
_cell_angle_gamma                90
_cell_volume                     1468.89
loop_
_atom_site_label
_atom_site_type_symbol
_atom_site_fract_x
_atom_site_fract_y
_atom_site_fract_z
_atom_site_U_iso_or_equiv
_atom_site_thermal_displace_type
V3 V 0.250 0.2500 0.750 0.0380 Uiso
O5 O 0.156(2) 0.167(2) 0.842(2) 0.0380 Uiso
C5 C 0.196(2) 0.036(2) 0.974(2) 0.0380 Uiso
C7 C 0.000 0.060(2) 0.957(2) 0.0380 Uiso
C8 C 0.000 0.129(2) 0.883(2) 0.0380 Uiso
H6 H 0.326459 0.0686895 0.950169 . .
V1 V 0.250 0.7500 0.250 0.0380 Uiso
O1 O -0.000 0.7500 0.307(2) 0.0380 Uiso
O2 O 0.156(2) 0.833(2) 0.158(2) 0.0380 Uiso
C2 C 0.000 0.940(2) 0.043(2) 0.0380 Uiso
C3 C -0.000 0.871(2) 0.117(2) 0.0380 Uiso
O3 O 0.500 0.7500 0.193(2) 0.0380 Uiso
O7 O 0.156(2) 0.667(2) 0.158(2) 0.0380 Uiso
O8 O 0.344(2) 0.667(2) 0.342(2) 0.0380 Uiso
O9 O 0.344(2) 0.833(2) 0.342(2) 0.0380 Uiso
C6 C 0.196(2) 0.964(2) 0.026(2) 0.0380 Uiso
H8 H 0.326459 0.931311 0.0498309 . .
V4 V 0.750 0.2500 0.750 0.0380 Uiso
O6 O 0.844(2) 0.167(2) 0.842(2) 0.0380 Uiso
C4 C 0.804(2) 0.036(2) 0.974(2) 0.0380 Uiso
C7_2 C 1.000 0.060(2) 0.957(2) 0.0380 Uiso
C8_2 C 1.000 0.129(2) 0.883(2) 0.0380 Uiso
H9 H 0.673541 0.0686895 0.950169 . .
O1_2 O 1.000 0.7500 0.307(2) 0.0380 Uiso
C1 C 0.804(2) 0.964(2) 0.026(2) 0.0380 Uiso
C2_2 C 1.000 0.940(2) 0.043(2) 0.0380 Uiso
C3_2 C 1.000 0.871(2) 0.117(2) 0.0380 Uiso
V2 V 0.750 0.7500 0.250 0.0380 Uiso
O4 O 0.844(2) 0.833(2) 0.158(2) 0.0380 Uiso
H7 H 0.673541 0.931311 0.0498309 . .
O3_2 O 0.000 0.2500 0.693(2) 0.0380 Uiso
O1_3 O 0.500 0.2500 0.807(2) 0.0380 Uiso
O2_2 O 0.656(2) 0.333(2) 0.658(2) 0.0380 Uiso
C1_2 C 0.304(2) 0.464(2) 0.526(2) 0.0380 Uiso
C2_3 C 0.500 0.440(2) 0.543(2) 0.0380 Uiso
C3_3 C 0.500 0.371(2) 0.617(2) 0.0380 Uiso
O3_3 O 1.000 0.2500 0.693(2) 0.0380 Uiso
O4_2 O 0.344(2) 0.333(2) 0.658(2) 0.0380 Uiso
O5_2 O 0.656(2) 0.667(2) 0.342(2) 0.0380 Uiso
O7_2 O 0.656(2) 0.167(2) 0.658(2) 0.0380 Uiso
O9_2 O 0.844(2) 0.333(2) 0.842(2) 0.0380 Uiso
C4_2 C 0.304(2) 0.536(2) 0.474(2) 0.0380 Uiso
C5_2 C 0.696(2) 0.536(2) 0.474(2) 0.0380 Uiso
C6_2 C 0.696(2) 0.464(2) 0.526(2) 0.0380 Uiso
C7_3 C 0.500 0.560(2) 0.457(2) 0.0380 Uiso
C8_3 C 0.500 0.629(2) 0.383(2) 0.0380 Uiso
H6_2 H 0.826459 0.568689 0.450169 . .
H7_2 H 0.173541 0.431311 0.549831 . .
H8_2 H 0.826459 0.431311 0.549831 . .
H9_2 H 0.173541 0.568689 0.450169 . .
C1_3 C 0.196(2) 0.536(2) 0.026(2) 0.0380 Uiso
C2_4 C 0.000 0.560(2) 0.043(2) 0.0380 Uiso
C3_4 C 0.000 0.629(2) 0.117(2) 0.0380 Uiso
H7_3 H 0.326459 0.568689 0.0498309 . .
O6_2 O 0.156(2) 0.333(2) 0.842(2) 0.0380 Uiso
C4_3 C 0.196(2) 0.464(2) 0.974(2) 0.0380 Uiso
C7_4 C 0.000 0.440(2) 0.957(2) 0.0380 Uiso
C8_4 C -0.000 0.371(2) 0.883(2) 0.0380 Uiso
H9_3 H 0.326459 0.431311 0.950169 . .
O2_3 O 0.844(2) 0.667(2) 0.158(2) 0.0380 Uiso
C2_5 C 1.000 0.560(2) 0.043(2) 0.0380 Uiso
C3_5 C 1.000 0.629(2) 0.117(2) 0.0380 Uiso
O8_2 O 0.656(2) 0.833(2) 0.342(2) 0.0380 Uiso
C6_3 C 0.804(2) 0.536(2) 0.026(2) 0.0380 Uiso
H8_3 H 0.673541 0.568689 0.0498309 . .
C5_3 C 0.804(2) 0.464(2) 0.974(2) 0.0380 Uiso
C7_5 C 1.000 0.440(2) 0.957(2) 0.0380 Uiso
C8_5 C 1.000 0.371(2) 0.883(2) 0.0380 Uiso
H6_3 H 0.673541 0.431311 0.950169 . .
O9_3 O 0.344(2) 0.167(2) 0.658(2) 0.0380 Uiso
C1_4 C 0.696(2) 0.036(2) 0.526(2) 0.0380 Uiso
C2_6 C 0.500 0.060(2) 0.543(2) 0.0380 Uiso
C3_6 C 0.500 0.129(2) 0.617(2) 0.0380 Uiso
C6_4 C 0.304(2) 0.036(2) 0.526(2) 0.0380 Uiso
H7_4 H 0.826459 0.0686895 0.549831 . .
H8_4 H 0.173541 0.0686895 0.549831 . .
C4_4 C 0.696(2) 0.964(2) 0.474(2) 0.0380 Uiso
C5_4 C 0.304(2) 0.964(2) 0.474(2) 0.0380 Uiso
C7_6 C 0.500 0.940(2) 0.457(2) 0.0380 Uiso
C8_6 C 0.500 0.871(2) 0.383(2) 0.0380 Uiso
H6_4 H 0.173541 0.931311 0.450169 . .
H9_4 H 0.826459 0.931311 0.450169 . .
Fe1 Fe 0.250 0.2500 0.250 0.0380 Uiso
C9 C 0.500 0.2088(2) 0.176(2) 0.0380 Uiso
C10 C 0.500 0.1840(2) 0.278(2) 0.0380 Uiso
C11 C 0.500 0.2500 0.342(2) 0.0380 Uiso
Fe2 Fe 0.750 0.2500 0.250 0.0380 Uiso
C12 C 0.500 0.2912(2) 0.176(2) 0.0380 Uiso
C13 C 0.000 0.2088(2) 0.324(2) 0.0380 Uiso
C14 C 0.000 0.2912(2) 0.324(2) 0.0380 Uiso
C15 C 0.500 0.3160(2) 0.278(2) 0.0380 Uiso
C16 C 0.000 0.1840(2) 0.222(2) 0.0380 Uiso
C17 C 0.000 0.3160(2) 0.222(2) 0.0380 Uiso
C18 C 0.000 0.2500 0.158(2) 0.0380 Uiso
H1 H 0.5 0.122879 0.30438 . .
H2 H 0.5 0.329014 0.106935 . .
H3 H 0.5 0.377121 0.30438 . .
H4 H 0.5 0.25 0.427418 . .
H5 H 0.5 0.170986 0.106935 . .
C13_2 C 1.000 0.2088(2) 0.324(2) 0.0380 Uiso
C14_2 C 1.000 0.2912(2) 0.324(2) 0.0380 Uiso
C16_2 C 1.000 0.1840(2) 0.222(2) 0.0380 Uiso
C17_2 C 1.000 0.3160(2) 0.222(2) 0.0380 Uiso
C18_2 C 1.000 0.2500 0.158(2) 0.0380 Uiso
H1_2 H 1.11022e-16 0.122879 0.19562 . .
H2_2 H -1.11022e-16 0.329014 0.393065 . .
H3_2 H 1.11022e-16 0.377121 0.19562 . .
H4_2 H -3.33067e-16 0.25 0.0725815 . .
H5_2 H 5.55112e-17 0.170986 0.393065 . .
H1_3 H 1 0.122879 0.19562 . .
H2_3 H 1 0.329014 0.393065 . .
H3_3 H 1 0.377121 0.19562 . .
H4_3 H 1 0.25 0.0725815 . .
H5_3 H 1 0.170986 0.393065 . .
C9_2 C -0.000 0.7088(2) 0.676(2) 0.0380 Uiso
C10_2 C -0.000 0.6840(2) 0.778(2) 0.0380 Uiso
C11_2 C 0.000 0.7500 0.842(2) 0.0380 Uiso
Fe2_2 Fe 0.250 0.7500 0.750 0.0380 Uiso
C12_2 C 0.000 0.7912(2) 0.676(2) 0.0380 Uiso
C15_2 C 0.000 0.8160(2) 0.778(2) 0.0380 Uiso
H1_4 H -1.11022e-16 0.622879 0.80438 . .
H2_4 H 1.11022e-16 0.829014 0.606935 . .
H3_4 H -1.11022e-16 0.877121 0.80438 . .
H4_4 H 3.33067e-16 0.75 0.927418 . .
H5_4 H -5.55112e-17 0.670986 0.606935 . .
Fe1_2 Fe 0.750 0.7500 0.750 0.0380 Uiso
C9_3 C 1.000 0.7088(2) 0.676(2) 0.0380 Uiso
C10_3 C 1.000 0.6840(2) 0.778(2) 0.0380 Uiso
C11_3 C 1.000 0.7500 0.842(2) 0.0380 Uiso
C12_3 C 1.000 0.7912(2) 0.676(2) 0.0380 Uiso
C13_3 C 0.500 0.7088(2) 0.824(2) 0.0380 Uiso
C14_3 C 0.500 0.7912(2) 0.824(2) 0.0380 Uiso
C15_3 C 1.000 0.8160(2) 0.778(2) 0.0380 Uiso
C16_3 C 0.500 0.6840(2) 0.722(2) 0.0380 Uiso
C17_3 C 0.500 0.8160(2) 0.722(2) 0.0380 Uiso
C18_3 C 0.500 0.7500 0.658(2) 0.0380 Uiso
H1_5 H 1 0.622879 0.80438 . .
H2_5 H 1 0.829014 0.606935 . .
H3_5 H 1 0.877121 0.80438 . .
H4_5 H 1 0.75 0.927418 . .
H5_5 H 1 0.670986 0.606935 . .
H1_6 H 0.5 0.622879 0.69562 . .
H2_6 H 0.5 0.829014 0.893065 . .
H3_6 H 0.5 0.877121 0.69562 . .
H4_6 H 0.5 0.75 0.572582 . .
H5_6 H 0.5 0.670986 0.893065 . .
loop_
_geom_bond_atom_site_label_1
_geom_bond_atom_site_label_2
_geom_bond_site_symmetry_1
_geom_bond_site_symmetry_2
V3 O5 1_555 1_555
O5 C8 1_555 1_555
C8 C7 1_555 1_555
C5 C7 1_555 1_555
C5 H6 1_555 1_555
V1 O1 1_555 1_555
O2 V1 1_555 1_555
C2 C3 1_555 1_555
C3 O2 1_555 1_555
O3 V1 1_555 1_555
O7 V1 1_555 1_555
O8 V1 1_555 1_555
O9 V1 1_555 1_555
C6 C2 1_555 1_555
C6 H8 1_555 1_555
V4 O6 1_555 1_555
O6 C8_2 1_555 1_555
C7_2 C4 1_555 1_555
C8_2 C7_2 1_555 1_555
C4 H9 1_555 1_555
O1_2 V2 1_555 1_555
C1 C2_2 1_555 1_555
C2_2 C3_2 1_555 1_555
V2 O4 1_555 1_555
O4 C3_2 1_555 1_555
C1 H7 1_555 1_555
V4 O1_3 1_555 1_555
O1_3 V3 1_555 1_555
O2_2 V4 1_555 1_555
C1_2 C2_3 1_555 1_555
C2_3 C3_3 1_555 1_555
C3_3 O2_2 1_555 1_555
V3 O4_2 1_555 1_555
V2 O5_2 1_555 1_555
O3_3 V4 1_555 1_555
O4_2 C3_3 1_555 1_555
O5_2 C8_3 1_555 1_555
O8 C8_3 1_555 1_555
O7_2 V4 1_555 1_555
O9_2 V4 1_555 1_555
C4_2 C1_2 1_555 1_555
C5_2 C6_2 1_555 1_555
C6_2 C2_3 1_555 1_555
C7_3 C4_2 1_555 1_555
C8_3 C7_3 1_555 1_555
C5_2 C7_3 1_555 1_555
C5_2 H6_2 1_555 1_555
C1_2 H7_2 1_555 1_555
C6_2 H8_2 1_555 1_555
C4_2 H9_2 1_555 1_555
C1_3 C2_4 1_555 1_555
C2_4 C3_4 1_555 1_555
O7 C3_4 1_555 1_555
C1_3 H7_3 1_555 1_555
V3 O6_2 1_555 1_555
O6_2 C8_4 1_555 1_555
C7_4 C4_3 1_555 1_555
C8_4 C7_4 1_555 1_555
C4_3 H9_3 1_555 1_555
O2_3 V2 1_555 1_555
C2_5 C3_5 1_555 1_555
C3_5 O2_3 1_555 1_555
O3 V2 1_555 1_555
O8_2 V2 1_555 1_555
C6_3 C2_5 1_555 1_555
C6_3 H8_3 1_555 1_555
O9_2 C8_5 1_555 1_555
C8_5 C7_5 1_555 1_555
C5_3 C7_5 1_555 1_555
C5_3 H6_3 1_555 1_555
O3_2 V3 1_555 1_555
O9_3 V3 1_555 1_555
C1_4 C2_6 1_555 1_555
C2_6 C3_6 1_555 1_555
C3_6 O9_3 1_555 1_555
O7_2 C3_6 1_555 1_555
C6_4 C2_6 1_555 1_555
C1_4 H7_4 1_555 1_555
C6_4 H8_4 1_555 1_555
O9 C8_6 1_555 1_555
O8_2 C8_6 1_555 1_555
C7_6 C4_4 1_555 1_555
C8_6 C7_6 1_555 1_555
C5_4 C7_6 1_555 1_555
C5_4 H6_4 1_555 1_555
C4_4 H9_4 1_555 1_555
Fe1 C9 1_555 1_555
C9 C10 1_555 1_555
C10 Fe1 1_555 1_555
C11 Fe1 1_555 1_555
Fe2 C9 1_555 1_555
C12 Fe1 1_555 1_555
C13 Fe1 1_555 1_555
C14 Fe1 1_555 1_555
C15 Fe1 1_555 1_555
C16 Fe1 1_555 1_555
C17 Fe1 1_555 1_555
C18 Fe1 1_555 1_555
C9 C12 1_555 1_555
C10 C11 1_555 1_555
C10 Fe2 1_555 1_555
C11 Fe2 1_555 1_555
C11 C15 1_555 1_555
Fe2 C12 1_555 1_555
Fe2 C15 1_555 1_555
C12 C15 1_555 1_555
C13 C14 1_555 1_555
C13 C16 1_555 1_555
C14 C17 1_555 1_555
C16 C18 1_555 1_555
C17 C18 1_555 1_555
C10 H1 1_555 1_555
C12 H2 1_555 1_555
C15 H3 1_555 1_555
C11 H4 1_555 1_555
C9 H5 1_555 1_555
C13_2 C14_2 1_555 1_555
C13_2 C16_2 1_555 1_555
C14_2 C17_2 1_555 1_555
C16_2 C18_2 1_555 1_555
C17_2 C18_2 1_555 1_555
C14_2 Fe2 1_555 1_555
C13_2 Fe2 1_555 1_555
C17_2 Fe2 1_555 1_555
C16_2 Fe2 1_555 1_555
C18_2 Fe2 1_555 1_555
C16 H1_2 1_555 1_555
C14 H2_2 1_555 1_555
C17 H3_2 1_555 1_555
C18 H4_2 1_555 1_555
C13 H5_2 1_555 1_555
C16_2 H1_3 1_555 1_555
C14_2 H2_3 1_555 1_555
C17_2 H3_3 1_555 1_555
C18_2 H4_3 1_555 1_555
C13_2 H5_3 1_555 1_555
C9_2 C10_2 1_555 1_555
Fe2_2 C9_2 1_555 1_555
C9_2 C12_2 1_555 1_555
C10_2 C11_2 1_555 1_555
C10_2 Fe2_2 1_555 1_555
C11_2 Fe2_2 1_555 1_555
C11_2 C15_2 1_555 1_555
Fe2_2 C12_2 1_555 1_555
Fe2_2 C15_2 1_555 1_555
C12_2 C15_2 1_555 1_555
C10_2 H1_4 1_555 1_555
C12_2 H2_4 1_555 1_555
C15_2 H3_4 1_555 1_555
C11_2 H4_4 1_555 1_555
C9_2 H5_4 1_555 1_555
Fe1_2 C9_3 1_555 1_555
C9_3 C10_3 1_555 1_555
C10_3 Fe1_2 1_555 1_555
C11_3 Fe1_2 1_555 1_555
C12_3 Fe1_2 1_555 1_555
C13_3 Fe1_2 1_555 1_555
C14_3 Fe1_2 1_555 1_555
C15_3 Fe1_2 1_555 1_555
C16_3 Fe1_2 1_555 1_555
C17_3 Fe1_2 1_555 1_555
C18_3 Fe1_2 1_555 1_555
C9_3 C12_3 1_555 1_555
C10_3 C11_3 1_555 1_555
C11_3 C15_3 1_555 1_555
C12_3 C15_3 1_555 1_555
C13_3 C14_3 1_555 1_555
C13_3 C16_3 1_555 1_555
C14_3 C17_3 1_555 1_555
C16_3 C18_3 1_555 1_555
C17_3 C18_3 1_555 1_555
C10_3 H1_5 1_555 1_555
C12_3 H2_5 1_555 1_555
C15_3 H3_5 1_555 1_555
C11_3 H4_5 1_555 1_555
C9_3 H5_5 1_555 1_555
Fe2_2 C13_3 1_555 1_555
C16_3 Fe2_2 1_555 1_555
C18_3 Fe2_2 1_555 1_555
Fe2_2 C14_3 1_555 1_555
Fe2_2 C17_3 1_555 1_555
C16_3 H1_6 1_555 1_555
C14_3 H2_6 1_555 1_555
C17_3 H3_6 1_555 1_555
C18_3 H4_6 1_555 1_555
C13_3 H5_6 1_555 1_555

#END
