
###############################################################################
#
# This file contains modified crystal structure data generated from the
# MOF subset of the Cambridge Structural Database (CSD) v543 
# hosted by the Cambridge Crystallographic Data Centre (CCDC).
#
# This work is licensed under the Creative Commons
# Attribution-NonCommercial-ShareAlike 4.0 International License.
# To view a copy of this license, visit
# http://creativecommons.org/licenses/by-nc-sa/4.0/
# or send a letter to
# Creative Commons, PO Box 1866, Mountain View, CA 94042, USA.
#
# CIF created using the CSD Python API on 29 September 2022
# The structure has been converted into the P1 space group
# The structure has a 3D framework
# The original CSD entry WAYMEQ is in the orthorhombic crystal system
# The framework has been calculated to contain at least 10.0% void space
# The void calculation uses a probe of radius 1.32A, grid spacing 0.4
# H atom positions have been added when not included in the experimental data
#
###############################################################################

data_WAYMEQ
_chemical_formula_moiety         '(C40 H16 Al6 O24)n'
_symmetry_cell_setting           triclinic
_symmetry_space_group_name_H-M   'P 1'
_symmetry_Int_Tables_number      1
_space_group_name_Hall           'P 1'
loop_
_symmetry_equiv_pos_site_id
_symmetry_equiv_pos_as_xyz
1 x,y,z
_cell_length_a                   6.6125(20)
_cell_length_b                   16.7808(30)
_cell_length_c                   12.7143(20)
_cell_angle_alpha                90
_cell_angle_beta                 90
_cell_angle_gamma                90
_cell_volume                     1410.82
loop_
_atom_site_label
_atom_site_type_symbol
_atom_site_fract_x
_atom_site_fract_y
_atom_site_fract_z
_atom_site_U_iso_or_equiv
_atom_site_thermal_displace_type
Al1 Al 0.2500 -0.0000 0.2500 0.0380 Uiso
O1 O 0.0000 0.0000 0.3079(3) 0.0380 Uiso
O2 O 0.5000 -0.0000 0.1927(3) 0.0380 Uiso
O3 O 0.3486(8) 0.0762(6) 0.3478(7) 0.0380 Uiso
O4 O 0.3377(8) 0.4118(6) 0.6652(7) 0.0380 Uiso
C1 C 0.6980(8) 0.2047(7) 0.4865(10) 0.0380 Uiso
C2 C 0.6982(8) 0.2819(9) 0.5476(9) 0.0380 Uiso
C3 C 0.5000 0.3054(9) 0.5662(9) 0.0380 Uiso
C4 C 0.5000 0.1814(6) 0.4680(11) 0.0380 Uiso
C5 C 0.5000 0.3789(8) 0.6312(11) 0.0380 Uiso
C6 C 0.5000 0.1140(7) 0.3918(10) 0.0380 Uiso
Al3 Al 0.7500 -0.0000 0.2500 0.0380 Uiso
Al5 Al 0.7500 0.5000 0.7500 0.0380 Uiso
Al7 Al 0.2500 0.5000 0.7500 0.0380 Uiso
O6 O 0.6514(8) 0.0762(6) 0.3478(7) 0.0380 Uiso
O11 O 0.6623(8) 0.4118(6) 0.6652(7) 0.0380 Uiso
O15 O 0.1623(8) 0.0882(6) 0.1652(7) 0.0380 Uiso
C7 C 0.3020(8) 0.2047(7) 0.4865(10) 0.0380 Uiso
C10 C 0.3018(8) 0.2819(9) 0.5476(9) 0.0380 Uiso
H1 H 0.832594 0.314068 0.573059 . .
H2 H 0.832212 0.172432 0.461001 . .
H7 H 0.167788 0.172432 0.461001 . .
H8 H 0.167406 0.314068 0.573059 . .
Al1_2 Al 0.2500 1.0000 0.2500 0.0380 Uiso
O1_2 O -0.0000 1.0000 0.3079(3) 0.0380 Uiso
O2_2 O 0.5000 1.0000 0.1927(3) 0.0380 Uiso
Al3_2 Al 0.7500 1.0000 0.2500 0.0380 Uiso
O7 O 0.3486(8) 0.9238(6) 0.3478(7) 0.0380 Uiso
O8 O 0.6514(8) 0.9238(6) 0.3478(7) 0.0380 Uiso
O12 O 0.3377(8) 0.5882(6) 0.6652(7) 0.0380 Uiso
O13 O 0.6623(8) 0.5882(6) 0.6652(7) 0.0380 Uiso
O17 O 0.1623(8) 0.9118(6) 0.1652(7) 0.0380 Uiso
C8 C 0.6980(8) 0.7953(7) 0.4865(10) 0.0380 Uiso
C9 C 0.3020(8) 0.7953(7) 0.4865(10) 0.0380 Uiso
C11 C 0.6982(8) 0.7181(9) 0.5476(9) 0.0380 Uiso
C12 C 0.3018(8) 0.7181(9) 0.5476(9) 0.0380 Uiso
C13 C 0.5000 0.6946(9) 0.5662(9) 0.0380 Uiso
C14 C 0.5000 0.8186(6) 0.4680(11) 0.0380 Uiso
C15 C 0.5000 0.6211(8) 0.6312(11) 0.0380 Uiso
C16 C 0.5000 0.8860(7) 0.3918(10) 0.0380 Uiso
H3 H 0.832594 0.685932 0.573059 . .
H4 H 0.832212 0.827568 0.461001 . .
H5 H 0.167788 0.827568 0.461001 . .
H6 H 0.167406 0.685932 0.573059 . .
O1_3 O 1.0000 0.0000 0.3079(3) 0.0380 Uiso
O16 O 0.8377(8) 0.0882(6) 0.1652(7) 0.0380 Uiso
O1_4 O 1.0000 1.0000 0.3079(3) 0.0380 Uiso
O14 O 0.8377(8) 0.9118(6) 0.1652(7) 0.0380 Uiso
C2_2 C 0.1982(8) 0.7819(9) 0.0476(9) 0.0380 Uiso
C3_2 C -0.0000 0.8054(9) 0.0662(9) 0.0380 Uiso
C5_2 C -0.0000 0.8789(8) 0.1312(11) 0.0380 Uiso
C11_2 C 0.1982(8) 0.2181(9) 0.0476(9) 0.0380 Uiso
C13_2 C -0.0000 0.1946(9) 0.0662(9) 0.0380 Uiso
C15_2 C -0.0000 0.1211(8) 0.1312(11) 0.0380 Uiso
H1_2 H 0.332594 0.814068 0.0730587 . .
H3_2 H 0.332594 0.185932 0.0730587 . .
O2_3 O -0.0000 0.5000 0.6927(3) 0.0380 Uiso
C1_2 C 0.1980(8) 0.7047(7) 0.9865(10) 0.0380 Uiso
C4_2 C -0.0000 0.6814(6) 0.9680(11) 0.0380 Uiso
C6_2 C -0.0000 0.6140(7) 0.8918(10) 0.0380 Uiso
O6_2 O 0.1514(8) 0.5762(6) 0.8478(7) 0.0380 Uiso
O8_2 O 0.1514(8) 0.4238(6) 0.8478(7) 0.0380 Uiso
C8_2 C 0.1980(8) 0.2953(7) 0.9865(10) 0.0380 Uiso
C14_2 C -0.0000 0.3186(6) 0.9680(11) 0.0380 Uiso
C16_2 C -0.0000 0.3860(7) 0.8918(10) 0.0380 Uiso
H2_2 H 0.332212 0.672432 0.961001 . .
H4_2 H 0.332212 0.327568 0.961001 . .
C3_3 C 1.0000 0.8054(9) 0.0662(9) 0.0380 Uiso
C5_3 C 1.0000 0.8789(8) 0.1312(11) 0.0380 Uiso
C10_2 C 0.8018(8) 0.7819(9) 0.0476(9) 0.0380 Uiso
C12_2 C 0.8018(8) 0.2181(9) 0.0476(9) 0.0380 Uiso
C13_3 C 1.0000 0.1946(9) 0.0662(9) 0.0380 Uiso
C15_3 C 1.0000 0.1211(8) 0.1312(11) 0.0380 Uiso
H6_2 H 0.667406 0.185932 0.0730587 . .
H8_2 H 0.667406 0.814068 0.0730587 . .
O1_5 O 0.5000 0.5000 0.8079(3) 0.0380 Uiso
O2_4 O 1.0000 0.5000 0.6927(3) 0.0380 Uiso
O3_2 O 0.8486(8) 0.5762(6) 0.8478(7) 0.0380 Uiso
C4_3 C 1.0000 0.6814(6) 0.9680(11) 0.0380 Uiso
C6_3 C 1.0000 0.6140(7) 0.8918(10) 0.0380 Uiso
O7_2 O 0.8486(8) 0.4238(6) 0.8478(7) 0.0380 Uiso
C7_2 C 0.8020(8) 0.7047(7) 0.9865(10) 0.0380 Uiso
C9_2 C 0.8020(8) 0.2953(7) 0.9865(10) 0.0380 Uiso
C14_3 C 1.0000 0.3186(6) 0.9680(11) 0.0380 Uiso
C16_3 C 1.0000 0.3860(7) 0.8918(10) 0.0380 Uiso
H5_2 H 0.667788 0.327568 0.961001 . .
H7_2 H 0.667788 0.672432 0.961001 . .
loop_
_geom_bond_atom_site_label_1
_geom_bond_atom_site_label_2
_geom_bond_site_symmetry_1
_geom_bond_site_symmetry_2
Al1 O1 1_555 1_555
O2 Al1 1_555 1_555
O3 Al1 1_555 1_555
O4 C5 1_555 1_555
C1 C2 1_555 1_555
C2 C3 1_555 1_555
C3 C5 1_555 1_555
C4 C1 1_555 1_555
C5 O11 1_555 1_555
C6 O3 1_555 1_555
Al3 O2 1_555 1_555
Al5 O11 1_555 1_555
Al7 O4 1_555 1_555
O6 C6 1_555 1_555
O15 Al1 1_555 1_555
C7 C4 1_555 1_555
C10 C3 1_555 1_555
C4 C6 1_555 1_555
Al3 O6 1_555 1_555
C7 C10 1_555 1_555
C2 H1 1_555 1_555
C1 H2 1_555 1_555
C7 H7 1_555 1_555
C10 H8 1_555 1_555
Al1_2 O1_2 1_555 1_555
O2_2 Al1_2 1_555 1_555
Al3_2 O2_2 1_555 1_555
Al5 O13 1_555 1_555
Al7 O12 1_555 1_555
O7 Al1_2 1_555 1_555
O8 Al3_2 1_555 1_555
O12 C15 1_555 1_555
O13 C15 1_555 1_555
O17 Al1_2 1_555 1_555
C8 C11 1_555 1_555
C9 C12 1_555 1_555
C11 C13 1_555 1_555
C12 C13 1_555 1_555
C13 C15 1_555 1_555
C14 C8 1_555 1_555
C16 O7 1_555 1_555
O8 C16 1_555 1_555
C9 C14 1_555 1_555
C14 C16 1_555 1_555
C11 H3 1_555 1_555
C8 H4 1_555 1_555
C9 H5 1_555 1_555
C12 H6 1_555 1_555
O1_3 Al3 1_555 1_555
O16 Al3 1_555 1_555
O1_4 Al3_2 1_555 1_555
O14 Al3_2 1_555 1_555
C2_2 C3_2 1_555 1_555
C3_2 C5_2 1_555 1_555
C5_2 O17 1_555 1_555
O15 C15_2 1_555 1_555
C11_2 C13_2 1_555 1_555
C13_2 C15_2 1_555 1_555
C2_2 H1_2 1_555 1_555
C11_2 H3_2 1_555 1_555
C4_2 C1_2 1_555 1_555
Al7 O2_3 1_555 1_555
O6_2 C6_2 1_555 1_555
O8_2 Al7 1_555 1_555
C14_2 C8_2 1_555 1_555
C4_2 C6_2 1_555 1_555
Al7 O6_2 1_555 1_555
O8_2 C16_2 1_555 1_555
C14_2 C16_2 1_555 1_555
C1_2 H2_2 1_555 1_555
C8_2 H4_2 1_555 1_555
O14 C5_3 1_555 1_555
C3_3 C5_3 1_555 1_555
O16 C15_3 1_555 1_555
C10_2 C3_3 1_555 1_555
C12_2 C13_3 1_555 1_555
C13_3 C15_3 1_555 1_555
C12_2 H6_2 1_555 1_555
C10_2 H8_2 1_555 1_555
Al5 O1_5 1_555 1_555
O1_5 Al7 1_555 1_555
O2_4 Al5 1_555 1_555
O3_2 Al5 1_555 1_555
C6_3 O3_2 1_555 1_555
O7_2 Al5 1_555 1_555
C7_2 C4_3 1_555 1_555
C16_3 O7_2 1_555 1_555
C4_3 C6_3 1_555 1_555
C9_2 C14_3 1_555 1_555
C14_3 C16_3 1_555 1_555
C9_2 H5_2 1_555 1_555
C7_2 H7_2 1_555 1_555

#END
