
###############################################################################
#
# This file contains modified crystal structure data generated from the
# MOF subset of the Cambridge Structural Database (CSD) v543 
# hosted by the Cambridge Crystallographic Data Centre (CCDC).
#
# This work is licensed under the Creative Commons
# Attribution-NonCommercial-ShareAlike 4.0 International License.
# To view a copy of this license, visit
# http://creativecommons.org/licenses/by-nc-sa/4.0/
# or send a letter to
# Creative Commons, PO Box 1866, Mountain View, CA 94042, USA.
#
# CIF created using the CSD Python API on 29 September 2022
# The structure has been converted into the P1 space group
# The structure has a 3D framework
# The original CSD entry WEBBOY is in the triclinic crystal system
# The framework has been calculated to contain at least 10.0% void space
# The void calculation uses a probe of radius 1.32A, grid spacing 0.4
#
###############################################################################

data_WEBBOY
_chemical_formula_moiety         '(C90 H56 Cd4 N12 O14)n'
_symmetry_cell_setting           triclinic
_symmetry_space_group_name_H-M   'P 1'
_symmetry_Int_Tables_number      1
_space_group_name_Hall           'P 1'
loop_
_symmetry_equiv_pos_site_id
_symmetry_equiv_pos_as_xyz
1 x,y,z
_cell_length_a                   11.8271(19)
_cell_length_b                   13.981(2)
_cell_length_c                   21.186(3)
_cell_angle_alpha                80.971(7)
_cell_angle_beta                 80.913(7)
_cell_angle_gamma                87.326(8)
_cell_volume                     3415.52
loop_
_atom_site_label
_atom_site_type_symbol
_atom_site_fract_x
_atom_site_fract_y
_atom_site_fract_z
O9 O 0.7023(3) 0.0889(3) 0.04830(18)
Cd1 Cd 0.70052(3) 0.03156(3) 0.94923(2)
N1 N 0.6208(4) 0.0415(3) 0.8600(2)
N2 N 0.4810(4) 0.0428(3) 0.8038(2)
N3 N 0.0684(4) 0.0515(4) 0.8619(2)
C4 C 0.5114(4) 0.0225(3) 0.8627(2)
C8 C 0.3692(5) 0.0303(4) 0.7886(2)
C10 C 0.2756(5) 0.0498(4) 0.8312(2)
H4 H 0.284182 0.074858 0.869250
C11 C 0.1684(5) 0.0328(4) 0.8186(3)
C19 C 0.6599(5) 0.0761(5) 0.7958(3)
H9 H 0.735260 0.097765 0.779088
C24 C 0.5764(6) 0.0745(5) 0.7613(3)
H12 H 0.581517 0.091943 0.715755
C41 C 0.0675(11) 0.0600(14) 0.9281(8)
H25 H 0.131713 0.068428 0.948359
H27 H 0.385437 0.012257 0.596844
O11 O 0.6844(4) 0.1974(3) 0.9632(2)
N7 N 0.8887(4) 0.0563(4) 0.9072(3)
Cd7 Cd 0.5742(3) 0.08640(7) 0.53069(6)
O15 O 0.4844(15) 0.0939(8) 0.4741(4)
O16 O 0.4177(12) 0.0433(6) 0.3941(4)
O3 O 0.3156(4) 0.8026(3) 0.0368(2)
O4 O 0.2420(4) 0.1257(3) 0.0091(2)
Cd5 Cd 0.29948(3) 0.96844(3) 0.05077(2)
O10 O 0.5715(4) 0.9061(3) 0.00665(19)
O1 O 0.2977(3) 0.9111(3) 0.95170(18)
O2 O 0.4285(4) 0.0939(3) 0.99335(19)
C1 C 0.3604(5) 0.2438(4) 0.9387(2)
C2 C 0.3428(7) 0.1470(4) 0.9831(3)
C3 C 0.3158(5) 0.8245(4) 0.9768(3)
H1 H 0.461652 0.997928 0.901001
C5 C 0.3366(5) 0.7496(4) 0.9346(3)
C6 C 0.1569(5) 0.9959(4) 0.7622(3)
H2 H 0.083496 0.983384 0.752892
C7 C 0.3875(5) 0.4214(4) 0.8575(2)
C9 C 0.4627(6) 0.2679(4) 0.9032(3)
H3 H 0.525661 0.223418 0.905772
C12 C 0.2543(6) 0.9783(4) 0.7208(2)
C13 C 0.3095(6) 0.7609(4) 0.8741(3)
H5 H 0.276698 0.821005 0.857323
C14 C 0.4038(5) 0.5208(4) 0.8185(3)
C16 C 0.3624(5) 0.9929(4) 0.7331(2)
H7 H 0.429015 0.977789 0.704683
C17 C 0.4783(5) 0.3562(4) 0.8627(2)
H8 H 0.551591 0.371911 0.838671
C18 C 0.3796(5) 0.6010(4) 0.8572(3)
C20 C 0.4494(16) 0.4499(13) 0.7197(10)
C21 C 0.3874(6) 0.6620(4) 0.9574(3)
H10 H 0.406899 0.651490 0.999808
C22 C 0.3274(6) 0.6890(4) 0.8361(3)
H11 H 0.303726 0.699485 0.794663
C23 C 0.434(3) 0.535(2) 0.7537(7)
C25 C 0.2700(5) 0.3056(5) 0.9338(3)
H13 H 0.196684 0.288084 0.957136
C26 C 0.5268(13) 0.6963(10) 0.7277(6)
H14 H 0.557951 0.683703 0.766927
C27 C 0.4550(14) 0.6298(9) 0.7129(8)
C28 C 0.4093(14) 0.6483(9) 0.6555(8)
H15 H 0.360291 0.602888 0.645433
C29 C 0.4355(13) 0.7333(10) 0.6129(7)
H16 H 0.404279 0.745986 0.573705
C30 C 0.5072(12) 0.7998(8) 0.6277(6)
C31 C 0.5529(11) 0.7814(9) 0.6851(6)
H17 H 0.601940 0.826803 0.695198
C32 C 0.2847(6) 0.3972(5) 0.8933(3)
H18 H 0.221731 0.441776 0.891523
C33 C 0.4100(7) 0.5898(4) 0.9187(3)
H19 H 0.447173 0.531349 0.934727
O5 O 0.4416(18) 0.1561(10) 0.6107(8)
C34 C 0.5435(17) 0.4415(13) 0.6813(11)
H20 H 0.600393 0.488262 0.678662
C35 C 0.4857(16) 0.3030(11) 0.6444(8)
O6 O 0.5901(17) 0.2352(14) 0.5575(8)
C36 C 0.3876(16) 0.3121(12) 0.6846(9)
H21 H 0.329706 0.266321 0.686861
C37 C 0.3662(16) 0.3831(12) 0.7222(9)
H22 H 0.294981 0.386592 0.749806
C38 C 0.5682(16) 0.3672(14) 0.6425(9)
H23 H 0.640376 0.362753 0.616043
C39 C 0.5083(16) 0.2229(9) 0.6016(6)
Cd2 Cd 0.4258(3) 0.91360(7) 0.46931(6)
C42 C 0.5345(14) 0.8900(10) 0.5834(5)
O7 O 0.5156(15) 0.9061(8) 0.5259(4)
O8 O 0.5823(12) 0.9567(6) 0.6059(4)
C43 C 0.2193(19) 0.8522(11) 0.5902(6)
H26 H 0.184919 0.806484 0.570744
N5 N 0.3019(16) 0.9152(9) 0.5592(5)
C44 C 0.3282(16) 0.9646(14) 0.6044(6)
N6 N 0.2625(14) 0.9371(15) 0.6618(5)
C45 C 0.1932(18) 0.8652(16) 0.6543(8)
H28 H 0.138296 0.831142 0.686617
O12 O 0.7580(4) 0.8743(3) 0.9909(2)
O13 O 0.5584(18) 0.8439(10) 0.3893(8)
O14 O 0.4099(17) 0.7648(14) 0.4425(8)
C15 C 0.9630(5) 0.0302(4) 0.8619(3)
C40 C 0.9591(11) 0.0540(14) 0.9557(8)
N4 N 0.1113(4) 0.9437(4) 0.0928(3)
C15_2 C 0.0370(5) 0.9698(4) 0.1381(3)
C40_2 C 0.0409(11) 0.9460(14) 0.0443(8)
C1_2 C 0.6396(5) 0.7562(4) 0.0613(2)
C2_2 C 0.6572(7) 0.8530(4) 0.0169(3)
C3_2 C 0.6842(5) 0.1755(4) 0.0232(3)
H1_2 H 0.538348 0.002072 0.098999
C5_2 C 0.6634(5) 0.2504(4) 0.0654(3)
C6_2 C 0.8431(5) 0.0041(4) 0.2378(3)
H2_2 H 0.916504 0.016616 0.247108
C7_2 C 0.6125(5) 0.5786(4) 0.1425(2)
C9_2 C 0.5373(6) 0.7321(4) 0.0968(3)
H3_2 H 0.474339 0.776582 0.094228
C12_2 C 0.7457(6) 0.0217(4) 0.2792(2)
C13_2 C 0.6905(6) 0.2391(4) 0.1259(3)
H5_2 H 0.723302 0.178995 0.142677
C14_2 C 0.5962(5) 0.4792(4) 0.1815(3)
C16_2 C 0.6376(5) 0.0071(4) 0.2669(2)
H7_2 H 0.570985 0.022211 0.295317
C17_2 C 0.5217(5) 0.6438(4) 0.1373(2)
H8_2 H 0.448409 0.628089 0.161329
C18_2 C 0.6204(5) 0.3990(4) 0.1428(3)
C20_2 C 0.5506(16) 0.5501(13) 0.2803(10)
C21_2 C 0.6126(6) 0.3380(4) 0.0426(3)
H10_2 H 0.593101 0.348510 0.000192
C22_2 C 0.6726(6) 0.3110(4) 0.1639(3)
H11_2 H 0.696274 0.300515 0.205337
C23_2 C 0.566(3) 0.465(2) 0.2463(7)
C25_2 C 0.7300(5) 0.6944(5) 0.0662(3)
H13_2 H 0.803316 0.711916 0.042864
C26_2 C 0.4732(13) 0.3037(10) 0.2723(6)
H14_2 H 0.442049 0.316297 0.233073
C27_2 C 0.5450(14) 0.3702(9) 0.2871(8)
C28_2 C 0.5907(14) 0.3517(9) 0.3445(8)
H15_2 H 0.639709 0.397112 0.354567
C29_2 C 0.5645(13) 0.2667(10) 0.3871(7)
H16_2 H 0.595721 0.254014 0.426295
C30_2 C 0.4928(12) 0.2002(8) 0.3723(6)
C31_2 C 0.4471(11) 0.2186(9) 0.3149(6)
H17_2 H 0.398060 0.173197 0.304802
C32_2 C 0.7153(6) 0.6028(5) 0.1067(3)
H18_2 H 0.778269 0.558224 0.108477
C33_2 C 0.5900(7) 0.4102(4) 0.0813(3)
H19_2 H 0.552827 0.468651 0.065273
C34_2 C 0.4565(17) 0.5585(13) 0.3187(11)
H20_2 H 0.399607 0.511738 0.321338
C35_2 C 0.5143(16) 0.6970(11) 0.3556(8)
C36_2 C 0.6124(16) 0.6879(12) 0.3154(9)
H21_2 H 0.670294 0.733679 0.313139
C37_2 C 0.6338(16) 0.6169(12) 0.2778(9)
H22_2 H 0.705019 0.613408 0.250194
C38_2 C 0.4318(16) 0.6328(14) 0.3575(9)
H23_2 H 0.359624 0.637247 0.383957
C39_2 C 0.4917(16) 0.7771(9) 0.3984(6)
C42_2 C 0.4655(14) 0.1100(10) 0.4166(5)
C43_2 C 0.7807(19) 0.1478(11) 0.4098(6)
H26_2 H 0.815081 0.193516 0.429256
N5_2 N 0.6981(16) 0.0848(9) 0.4408(5)
C44_2 C 0.6718(16) 0.0354(14) 0.3956(6)
N6_2 N 0.7375(14) 0.0629(15) 0.3382(5)
C45_2 C 0.8068(18) 0.1348(16) 0.3457(8)
H28_2 H 0.861704 0.168858 0.313383
N1_2 N 0.3792(4) 0.9585(3) 0.1400(2)
N2_2 N 0.5190(4) 0.9572(3) 0.1962(2)
N3_2 N 0.9316(4) 0.9485(4) 0.1381(2)
C4_2 C 0.4886(4) 0.9775(3) 0.1373(2)
C8_2 C 0.6308(5) 0.9697(4) 0.2114(2)
C10_2 C 0.7244(5) 0.9502(4) 0.1688(2)
H4_2 H 0.715818 0.925142 0.130750
C11_2 C 0.8316(5) 0.9672(4) 0.1814(3)
C19_2 C 0.3401(5) 0.9239(5) 0.2042(3)
H9_2 H 0.264740 0.902235 0.220912
C24_2 C 0.4236(6) 0.9255(5) 0.2387(3)
H12_2 H 0.418483 0.908057 0.284245
C41_2 C 0.9325(11) 0.9400(14) 0.0719(8)
H25_2 H 0.868287 0.931572 0.051641
H27_2 H 0.614563 0.987743 0.403156
H24 H 0.932696 0.048880 0.000851
H6 H 0.941879 0.996808 0.829970
H6_2 H 0.058121 0.003192 0.170030
H24_2 H 0.067304 0.951120 0.999149
loop_
_geom_bond_atom_site_label_1
_geom_bond_atom_site_label_2
_geom_bond_site_symmetry_1
_geom_bond_site_symmetry_2
Cd1 N1 1_555 1_555
N1 C4 1_555 1_555
N2 C4 1_555 1_555
N3 C11 1_555 1_555
C8 N2 1_555 1_555
C10 C8 1_555 1_555
H4 C10 1_555 1_555
C19 N1 1_555 1_555
H9 C19 1_555 1_555
C24 N2 1_555 1_555
H12 C24 1_555 1_555
C41 N3 1_555 1_555
H25 C41 1_555 1_555
O11 Cd1 1_555 1_555
N7 Cd1 1_555 1_555
C10 C11 1_555 1_555
C19 C24 1_555 1_555
Cd7 O15 1_555 1_555
O3 Cd5 1_555 1_555
O1 C3 1_555 1_555
O2 C2 1_555 1_555
C1 C2 1_555 1_555
C3 C5 1_555 1_555
C5 C13 1_555 1_555
C6 H2 1_555 1_555
C7 C14 1_555 1_555
C9 C1 1_555 1_555
H3 C9 1_555 1_555
C12 C6 1_555 1_555
C13 H5 1_555 1_555
C14 C18 1_555 1_555
H7 C16 1_555 1_555
C17 C7 1_555 1_555
H8 C17 1_555 1_555
C18 C22 1_555 1_555
C20 C23 1_555 1_555
C21 C5 1_555 1_555
H10 C21 1_555 1_555
C22 C13 1_555 1_555
H11 C22 1_555 1_555
C23 C14 1_555 1_555
C25 C1 1_555 1_555
H13 C25 1_555 1_555
C26 H14 1_555 1_555
C27 C23 1_555 1_555
C28 C27 1_555 1_555
H15 C28 1_555 1_555
C29 C28 1_555 1_555
H16 C29 1_555 1_555
C30 C29 1_555 1_555
C31 C26 1_555 1_555
H17 C31 1_555 1_555
C32 C7 1_555 1_555
H18 C32 1_555 1_555
C33 C18 1_555 1_555
H19 C33 1_555 1_555
O5 C39 1_555 1_555
C34 C20 1_555 1_555
H20 C34 1_555 1_555
C35 C36 1_555 1_555
O6 C39 1_555 1_555
C36 H21 1_555 1_555
C37 C20 1_555 1_555
H22 C37 1_555 1_555
C38 C34 1_555 1_555
H23 C38 1_555 1_555
C39 C35 1_555 1_555
Cd2 O7 1_555 1_555
C42 C30 1_555 1_555
O7 C42 1_555 1_555
O8 C42 1_555 1_555
C43 H26 1_555 1_555
N5 Cd2 1_555 1_555
C44 N5 1_555 1_555
N6 C12 1_555 1_555
C45 C43 1_555 1_555
H28 C45 1_555 1_555
O13 Cd2 1_555 1_555
O14 Cd2 1_555 1_555
Cd7 O5 1_555 1_555
C9 C17 1_555 1_555
C12 C16 1_555 1_555
C21 C33 1_555 1_555
C25 C32 1_555 1_555
C26 C27 1_555 1_555
C30 C31 1_555 1_555
C35 C38 1_555 1_555
O6 Cd7 1_555 1_555
C36 C37 1_555 1_555
C43 N5 1_555 1_555
C44 N6 1_555 1_555
N6 C45 1_555 1_555
N7 C15 1_555 1_555
C40 N7 1_555 1_555
N4 C15_2 1_555 1_555
C40_2 N4 1_555 1_555
Cd5 N4 1_555 1_555
O9 C3_2 1_555 1_555
O10 C2_2 1_555 1_555
C1_2 C2_2 1_555 1_555
C3_2 C5_2 1_555 1_555
C5_2 C13_2 1_555 1_555
C6_2 H2_2 1_555 1_555
C7_2 C14_2 1_555 1_555
C9_2 C1_2 1_555 1_555
H3_2 C9_2 1_555 1_555
C12_2 C6_2 1_555 1_555
C13_2 H5_2 1_555 1_555
C14_2 C18_2 1_555 1_555
H7_2 C16_2 1_555 1_555
C17_2 C7_2 1_555 1_555
H8_2 C17_2 1_555 1_555
C18_2 C22_2 1_555 1_555
C20_2 C23_2 1_555 1_555
C21_2 C5_2 1_555 1_555
H10_2 C21_2 1_555 1_555
C22_2 C13_2 1_555 1_555
H11_2 C22_2 1_555 1_555
C23_2 C14_2 1_555 1_555
C25_2 C1_2 1_555 1_555
H13_2 C25_2 1_555 1_555
C26_2 H14_2 1_555 1_555
C27_2 C23_2 1_555 1_555
C28_2 C27_2 1_555 1_555
H15_2 C28_2 1_555 1_555
C29_2 C28_2 1_555 1_555
H16_2 C29_2 1_555 1_555
C30_2 C29_2 1_555 1_555
C31_2 C26_2 1_555 1_555
H17_2 C31_2 1_555 1_555
C32_2 C7_2 1_555 1_555
H18_2 C32_2 1_555 1_555
C33_2 C18_2 1_555 1_555
H19_2 C33_2 1_555 1_555
O13 C39_2 1_555 1_555
C34_2 C20_2 1_555 1_555
H20_2 C34_2 1_555 1_555
C35_2 C36_2 1_555 1_555
O14 C39_2 1_555 1_555
C36_2 H21_2 1_555 1_555
C37_2 C20_2 1_555 1_555
H22_2 C37_2 1_555 1_555
C38_2 C34_2 1_555 1_555
H23_2 C38_2 1_555 1_555
C39_2 C35_2 1_555 1_555
C42_2 C30_2 1_555 1_555
O15 C42_2 1_555 1_555
O16 C42_2 1_555 1_555
C43_2 H26_2 1_555 1_555
N5_2 Cd7 1_555 1_555
C44_2 N5_2 1_555 1_555
N6_2 C12_2 1_555 1_555
C45_2 C43_2 1_555 1_555
H28_2 C45_2 1_555 1_555
C9_2 C17_2 1_555 1_555
C12_2 C16_2 1_555 1_555
C21_2 C33_2 1_555 1_555
C25_2 C32_2 1_555 1_555
C26_2 C27_2 1_555 1_555
C30_2 C31_2 1_555 1_555
C35_2 C38_2 1_555 1_555
C36_2 C37_2 1_555 1_555
C43_2 N5_2 1_555 1_555
C44_2 N6_2 1_555 1_555
N6_2 C45_2 1_555 1_555
Cd5 N1_2 1_555 1_555
N1_2 C4_2 1_555 1_555
N2_2 C4_2 1_555 1_555
N3_2 C11_2 1_555 1_555
C8_2 N2_2 1_555 1_555
C10_2 C8_2 1_555 1_555
H4_2 C10_2 1_555 1_555
C19_2 N1_2 1_555 1_555
H9_2 C19_2 1_555 1_555
C24_2 N2_2 1_555 1_555
H12_2 C24_2 1_555 1_555
C41_2 N3_2 1_555 1_555
H25_2 C41_2 1_555 1_555
C10_2 C11_2 1_555 1_555
C19_2 C24_2 1_555 1_555

#END
