
###############################################################################
#
# This file contains modified crystal structure data generated from the
# MOF subset of the Cambridge Structural Database (CSD) v543 
# hosted by the Cambridge Crystallographic Data Centre (CCDC).
#
# This work is licensed under the Creative Commons
# Attribution-NonCommercial-ShareAlike 4.0 International License.
# To view a copy of this license, visit
# http://creativecommons.org/licenses/by-nc-sa/4.0/
# or send a letter to
# Creative Commons, PO Box 1866, Mountain View, CA 94042, USA.
#
# CIF created using the CSD Python API on 29 September 2022
# The structure has been converted into the P1 space group
# The structure has a 3D framework
# The original CSD entry WECFAN is in the monoclinic crystal system
# The framework has been calculated to contain at least 10.0% void space
# The void calculation uses a probe of radius 1.32A, grid spacing 0.4
#
###############################################################################

data_WECFAN
_chemical_formula_moiety         '(C60 H60 Co4 N8 O20)n'
_symmetry_cell_setting           triclinic
_symmetry_space_group_name_H-M   'P 1'
_symmetry_Int_Tables_number      1
_space_group_name_Hall           'P 1'
loop_
_symmetry_equiv_pos_site_id
_symmetry_equiv_pos_as_xyz
1 x,y,z
_cell_length_a                   15.771(2)
_cell_length_b                   14.711(2)
_cell_length_c                   8.3852(12)
_cell_angle_alpha                90
_cell_angle_beta                 102.485(2)
_cell_angle_gamma                90
_cell_volume                     1899.42
loop_
_atom_site_label
_atom_site_type_symbol
_atom_site_fract_x
_atom_site_fract_y
_atom_site_fract_z
C10 C 0.2558(2) 0.0640(2) 0.0405(4)
H10 H 0.2952 0.1019 0.1080
C11 C 0.1798(2) 0.0420(3) 0.0870(4)
H11 H 0.1689 0.0653 0.1839
O10 O 0.45189(11) 0.06984(11) 0.0726(2)
Co1 Co 0.38970(2) 0.08276(2) 0.83167(4)
O1 O 0.35476(12) 0.21783(12) 0.8574(2)
O2 O 0.40607(12) 0.35944(12) 0.8657(2)
O3 O 0.45189(11) 0.43016(11) 0.5726(2)
O4 O 0.58261(11) 0.45303(11) 0.7320(2)
O5 O 0.31367(13) 0.08868(13) 0.5833(2)
H1 H 0.2718 0.1263 0.5700
H2 H 0.3441 0.1114 0.5211
N1 N 0.49320(13) 0.15422(13) 0.7610(2)
N2 N 0.27541(14) 0.03362(15) 0.9033(3)
C1 C 0.48099(15) 0.24476(16) 0.7542(3)
C2 C 0.53517(16) 0.30221(16) 0.6900(3)
C3 C 0.60546(16) 0.26388(18) 0.6416(3)
H3 H 0.6437 0.3012 0.6017
C4 C 0.62042(17) 0.17111(18) 0.6513(3)
C5 C 0.56109(17) 0.11853(17) 0.7108(3)
H4 H 0.5688 0.0558 0.7161
C6 C 0.40834(16) 0.27797(17) 0.8312(3)
C7 C 0.52047(16) 0.40319(16) 0.6638(3)
C8 C 0.69617(19) 0.1265(2) 0.5991(5)
H5 H 0.7063 0.0678 0.6528
H6 H 0.6800 0.1153 0.4825
C9 C 0.7779(2) 0.1773(3) 0.6335(7)
H7 H 0.7721 0.2307 0.5663
H8 H 0.8236 0.1397 0.6102
H9 H 0.7918 0.1947 0.7465
Co4 Co 0.61030(2) 0.58276(2) 0.66833(4)
Co6 Co 0.38970(2) 0.41724(2) 0.33167(4)
C12 C 0.12006(19) 0.9863(2) 0.9920(4)
C13 C 0.1426(2) 0.9516(3) 0.8545(5)
H12 H 0.1058 0.9107 0.7885
C14 C 0.2194(2) 0.9772(2) 0.8140(4)
H13 H 0.2324 0.9536 0.7192
H15 H 0.0150 0.9057 0.9941
O12 O 0.41739(11) 0.95303(11) 0.7680(2)
O13 O 0.58261(11) 0.04697(11) 0.2320(2)
C27 C 0.87994(19) 0.0137(2) 0.0080(4)
C28 C 0.8574(2) 0.0484(3) 0.1455(5)
H27 H 0.8942 0.0893 0.2115
C29 C 0.7806(2) 0.0228(2) 0.1860(4)
H28 H 0.7676 0.0464 0.2808
H30 H 0.9850 0.0943 0.0059
Co2 Co 0.61030(2) 0.91724(2) 0.16833(4)
O6 O 0.64524(12) 0.78217(12) 0.1426(2)
O7 O 0.59393(12) 0.64056(12) 0.1343(2)
O8 O 0.54811(11) 0.56984(11) 0.4274(2)
O11 O 0.41739(11) 0.54697(11) 0.2680(2)
O14 O 0.68633(13) 0.91132(13) 0.4167(2)
H16 H 0.7282 0.8737 0.4300
H17 H 0.6559 0.8886 0.4789
N3 N 0.50680(13) 0.84578(13) 0.2390(2)
N4 N 0.72459(14) 0.96638(15) 0.0967(3)
C16 C 0.51901(15) 0.75524(16) 0.2458(3)
C17 C 0.46483(16) 0.69779(16) 0.3100(3)
C18 C 0.39454(16) 0.73612(18) 0.3584(3)
H18 H 0.3563 0.6988 0.3983
C19 C 0.37958(17) 0.82889(18) 0.3487(3)
C20 C 0.43891(17) 0.88147(17) 0.2892(3)
H19 H 0.4312 0.9442 0.2839
C21 C 0.59166(16) 0.72203(17) 0.1688(3)
C22 C 0.47953(16) 0.59681(16) 0.3362(3)
C23 C 0.30383(19) 0.8735(2) 0.4009(5)
H20 H 0.2937 0.9322 0.3472
H21 H 0.3200 0.8847 0.5175
C24 C 0.2221(2) 0.8227(3) 0.3665(7)
H22 H 0.2279 0.7693 0.4337
H23 H 0.1764 0.8603 0.3898
H24 H 0.2082 0.8053 0.2535
O9 O 0.54811(11) 0.93016(11) 0.9274(2)
C25 C 0.7442(2) 0.9360(2) 0.9595(4)
H25 H 0.7048 0.8981 0.8920
C26 C 0.8202(2) 0.9580(3) 0.9130(4)
H26 H 0.8311 0.9347 0.8161
O6_2 O 0.35476(12) 0.28217(12) 0.3574(2)
O7_2 O 0.40607(12) 0.14056(12) 0.3657(2)
O14_2 O 0.31367(13) 0.41132(13) 0.0833(2)
H16_2 H 0.2718 0.3737 0.0700
H17_2 H 0.3441 0.3886 0.0211
N3_2 N 0.49320(13) 0.34578(13) 0.2610(2)
N4_2 N 0.27541(14) 0.46638(15) 0.4033(3)
C16_2 C 0.48099(15) 0.25524(16) 0.2542(3)
C17_2 C 0.53517(16) 0.19779(16) 0.1900(3)
C18_2 C 0.60546(16) 0.23612(18) 0.1416(3)
H18_2 H 0.6437 0.1988 0.1017
C19_2 C 0.62042(17) 0.32889(18) 0.1513(3)
C20_2 C 0.56109(17) 0.38147(17) 0.2108(3)
H19_2 H 0.5688 0.4442 0.2161
C21_2 C 0.40834(16) 0.22203(17) 0.3312(3)
C22_2 C 0.52047(16) 0.09681(16) 0.1638(3)
C23_2 C 0.69617(19) 0.3735(2) 0.0991(5)
H20_2 H 0.7063 0.4322 0.1528
C24_2 C 0.7779(2) 0.3227(3) 0.1335(7)
H22_2 H 0.7721 0.2693 0.0663
H23_2 H 0.8236 0.3603 0.1102
H24_2 H 0.7918 0.3053 0.2465
C25_2 C 0.2558(2) 0.4360(2) 0.5405(4)
H25_2 H 0.2952 0.3981 0.6080
C26_2 C 0.1798(2) 0.4580(3) 0.5870(4)
H26_2 H 0.1689 0.4347 0.6839
C27_2 C 0.12006(19) 0.5137(2) 0.4920(4)
C28_2 C 0.1426(2) 0.5484(3) 0.3545(5)
H27_2 H 0.1058 0.5893 0.2885
C29_2 C 0.2194(2) 0.5228(2) 0.3140(4)
H28_2 H 0.2324 0.5464 0.2192
C30 C 0.0343(2) 0.5344(3) 0.5351(5)
H29 H 0.0419 0.5354 0.6530
H30_2 H 0.0150 0.5943 0.4941
H21_2 H 0.6800 0.3847 0.9825
H6_2 H 0.3200 0.6153 0.0175
O1_2 O 0.64524(12) 0.71783(12) 0.6426(2)
O2_2 O 0.59393(12) 0.85944(12) 0.6343(2)
O5_2 O 0.68633(13) 0.58868(13) 0.9167(2)
H1_2 H 0.7282 0.6263 0.9300
H2_2 H 0.6559 0.6114 0.9789
N1_2 N 0.50680(13) 0.65422(13) 0.7390(2)
N2_2 N 0.72459(14) 0.53362(15) 0.5967(3)
C1_2 C 0.51901(15) 0.74476(16) 0.7458(3)
C2_2 C 0.46483(16) 0.80221(16) 0.8100(3)
C3_2 C 0.39454(16) 0.76388(18) 0.8584(3)
H3_2 H 0.3563 0.8012 0.8983
C4_2 C 0.37958(17) 0.67111(18) 0.8487(3)
C5_2 C 0.43891(17) 0.61853(17) 0.7892(3)
H4_2 H 0.4312 0.5558 0.7839
C6_2 C 0.59166(16) 0.77797(17) 0.6688(3)
C7_2 C 0.47953(16) 0.90319(16) 0.8362(3)
C8_2 C 0.30383(19) 0.6265(2) 0.9009(5)
H5_2 H 0.2937 0.5678 0.8472
C9_2 C 0.2221(2) 0.6773(3) 0.8665(7)
H7_2 H 0.2279 0.7307 0.9337
H8_2 H 0.1764 0.6397 0.8898
H9_2 H 0.2082 0.6947 0.7535
C10_2 C 0.7442(2) 0.5640(2) 0.4595(4)
H10_2 H 0.7048 0.6019 0.3920
C11_2 C 0.8202(2) 0.5420(3) 0.4130(4)
H11_2 H 0.8311 0.5653 0.3161
C12_2 C 0.87994(19) 0.4863(2) 0.5080(4)
C13_2 C 0.8574(2) 0.4516(3) 0.6455(5)
H12_2 H 0.8942 0.4107 0.7115
C14_2 C 0.7806(2) 0.4772(2) 0.6860(4)
H13_2 H 0.7676 0.4536 0.7808
C15 C 0.9657(2) 0.4656(3) 0.4649(5)
H14 H 0.9581 0.4646 0.3470
H15_2 H 0.9850 0.4057 0.5059
C15_2 C 0.0343(2) 0.9656(3) 0.0351(5)
H14_2 H 0.0419 0.9646 0.1530
C30_2 C 0.9657(2) 0.0344(3) 0.9649(5)
H29_2 H 0.9581 0.0354 0.8470
loop_
_geom_bond_atom_site_label_1
_geom_bond_atom_site_label_2
_geom_bond_site_symmetry_1
_geom_bond_site_symmetry_2
H10 C10 1_555 1_555
C11 C10 1_555 1_555
H11 C11 1_555 1_555
Co1 O1 1_555 1_555
O1 C6 1_555 1_555
O2 C6 1_555 1_555
O3 C7 1_555 1_555
O4 C7 1_555 1_555
O5 Co1 1_555 1_555
H1 O5 1_555 1_555
H2 O5 1_555 1_555
N1 Co1 1_555 1_555
N2 Co1 1_555 1_555
C1 N1 1_555 1_555
C2 C1 1_555 1_555
C3 C2 1_555 1_555
H3 C3 1_555 1_555
C4 C3 1_555 1_555
C5 N1 1_555 1_555
H4 C5 1_555 1_555
C6 C1 1_555 1_555
C7 C2 1_555 1_555
C8 C4 1_555 1_555
H5 C8 1_555 1_555
H6 C8 1_555 1_555
C9 C8 1_555 1_555
H7 C9 1_555 1_555
H8 C9 1_555 1_555
H9 C9 1_555 1_555
Co4 O4 1_555 1_555
Co6 O3 1_555 1_555
C4 C5 1_555 1_555
C13 C12 1_555 1_555
H12 C13 1_555 1_555
H13 C14 1_555 1_555
C13 C14 1_555 1_555
C28 C27 1_555 1_555
H27 C28 1_555 1_555
H28 C29 1_555 1_555
C28 C29 1_555 1_555
Co2 O6 1_555 1_555
Co4 O8 1_555 1_555
Co6 O11 1_555 1_555
O6 C21 1_555 1_555
O7 C21 1_555 1_555
O8 C22 1_555 1_555
O11 C22 1_555 1_555
O14 Co2 1_555 1_555
H16 O14 1_555 1_555
H17 O14 1_555 1_555
N3 Co2 1_555 1_555
N4 Co2 1_555 1_555
C16 N3 1_555 1_555
C17 C16 1_555 1_555
C18 C17 1_555 1_555
H18 C18 1_555 1_555
C19 C18 1_555 1_555
C20 N3 1_555 1_555
H19 C20 1_555 1_555
C21 C16 1_555 1_555
C22 C17 1_555 1_555
C23 C19 1_555 1_555
H20 C23 1_555 1_555
H21 C23 1_555 1_555
C24 C23 1_555 1_555
H22 C24 1_555 1_555
H23 C24 1_555 1_555
H24 C24 1_555 1_555
C19 C20 1_555 1_555
H25 C25 1_555 1_555
C26 C25 1_555 1_555
H26 C26 1_555 1_555
Co6 O6_2 1_555 1_555
O6_2 C21_2 1_555 1_555
O7_2 C21_2 1_555 1_555
O10 C22_2 1_555 1_555
O13 C22_2 1_555 1_555
O14_2 Co6 1_555 1_555
H16_2 O14_2 1_555 1_555
H17_2 O14_2 1_555 1_555
N3_2 Co6 1_555 1_555
N4_2 Co6 1_555 1_555
C16_2 N3_2 1_555 1_555
C17_2 C16_2 1_555 1_555
C18_2 C17_2 1_555 1_555
H18_2 C18_2 1_555 1_555
C19_2 C18_2 1_555 1_555
C20_2 N3_2 1_555 1_555
H19_2 C20_2 1_555 1_555
C21_2 C16_2 1_555 1_555
C22_2 C17_2 1_555 1_555
C23_2 C19_2 1_555 1_555
H20_2 C23_2 1_555 1_555
C24_2 C23_2 1_555 1_555
H22_2 C24_2 1_555 1_555
H23_2 C24_2 1_555 1_555
H24_2 C24_2 1_555 1_555
C25_2 N4_2 1_555 1_555
H25_2 C25_2 1_555 1_555
C26_2 C25_2 1_555 1_555
H26_2 C26_2 1_555 1_555
C27_2 C26_2 1_555 1_555
C28_2 C27_2 1_555 1_555
H27_2 C28_2 1_555 1_555
C29_2 N4_2 1_555 1_555
H28_2 C29_2 1_555 1_555
H29 C30 1_555 1_555
H30_2 C30 1_555 1_555
C19_2 C20_2 1_555 1_555
C27_2 C30 1_555 1_555
C28_2 C29_2 1_555 1_555
Co4 O1_2 1_555 1_555
O1_2 C6_2 1_555 1_555
O2_2 C6_2 1_555 1_555
O9 C7_2 1_555 1_555
O12 C7_2 1_555 1_555
O5_2 Co4 1_555 1_555
H1_2 O5_2 1_555 1_555
H2_2 O5_2 1_555 1_555
N1_2 Co4 1_555 1_555
N2_2 Co4 1_555 1_555
C1_2 N1_2 1_555 1_555
C2_2 C1_2 1_555 1_555
C3_2 C2_2 1_555 1_555
H3_2 C3_2 1_555 1_555
C4_2 C3_2 1_555 1_555
C5_2 N1_2 1_555 1_555
H4_2 C5_2 1_555 1_555
C6_2 C1_2 1_555 1_555
C7_2 C2_2 1_555 1_555
C8_2 C4_2 1_555 1_555
H5_2 C8_2 1_555 1_555
C9_2 C8_2 1_555 1_555
H7_2 C9_2 1_555 1_555
H8_2 C9_2 1_555 1_555
H9_2 C9_2 1_555 1_555
C10_2 N2_2 1_555 1_555
H10_2 C10_2 1_555 1_555
C11_2 C10_2 1_555 1_555
H11_2 C11_2 1_555 1_555
C12_2 C11_2 1_555 1_555
C13_2 C12_2 1_555 1_555
H12_2 C13_2 1_555 1_555
C14_2 N2_2 1_555 1_555
H13_2 C14_2 1_555 1_555
C15 C12_2 1_555 1_555
H14 C15 1_555 1_555
H15_2 C15 1_555 1_555
C4_2 C5_2 1_555 1_555
C13_2 C14_2 1_555 1_555
H14_2 C15_2 1_555 1_555
H29_2 C30_2 1_555 1_555

#END
