
###############################################################################
#
# This file contains modified crystal structure data generated from the
# MOF subset of the Cambridge Structural Database (CSD) v543 
# hosted by the Cambridge Crystallographic Data Centre (CCDC).
#
# This work is licensed under the Creative Commons
# Attribution-NonCommercial-ShareAlike 4.0 International License.
# To view a copy of this license, visit
# http://creativecommons.org/licenses/by-nc-sa/4.0/
# or send a letter to
# Creative Commons, PO Box 1866, Mountain View, CA 94042, USA.
#
# CIF created using the CSD Python API on 29 September 2022
# The structure has been converted into the P1 space group
# The structure has a 3D framework
# The original CSD entry WECFAN01 is in the monoclinic crystal system
# The framework has been calculated to contain at least 10.0% void space
# The void calculation uses a probe of radius 1.32A, grid spacing 0.4
#
###############################################################################

data_WECFAN01
_chemical_formula_moiety         '(C60 H60 Co4 N8 O18)n'
_symmetry_cell_setting           triclinic
_symmetry_space_group_name_H-M   'P 1'
_symmetry_Int_Tables_number      1
_space_group_name_Hall           'P 1'
loop_
_symmetry_equiv_pos_site_id
_symmetry_equiv_pos_as_xyz
1 x,y,z
_cell_length_a                   14.36(2)
_cell_length_b                   14.75(2)
_cell_length_c                   8.276(13)
_cell_angle_alpha                90
_cell_angle_beta                 99.746(19)
_cell_angle_gamma                90
_cell_volume                     1727.64
loop_
_atom_site_label
_atom_site_type_symbol
_atom_site_fract_x
_atom_site_fract_y
_atom_site_fract_z
O4 O 0.0910(4) 0.5476(3) 0.3265(5)
C2 C 0.0405(5) 0.6974(4) 0.3366(7)
C3 C 0.1186(5) 0.7356(5) 0.4389(8)
H3 H 0.1605 0.6982 0.5066
C4 C 0.1339(5) 0.8269(4) 0.4401(8)
C5 C 0.0678(5) 0.8809(5) 0.3415(8)
H4 H 0.0751 0.9435 0.3475
C7 C 0.0241(6) 0.5958(4) 0.3516(8)
C8 C 0.2179(5) 0.8697(5) 0.5494(10)
H5 H 0.2351 0.9243 0.4961
H6 H 0.1982 0.8879 0.6511
C9 C 0.3003(7) 0.8146(8) 0.5886(18)
H7 H 0.2857 0.7619 0.6478
H8 H 0.3495 0.8486 0.6551
H9 H 0.3211 0.7961 0.4894
Co4 Co 0.12009(7) 0.41761(6) 0.40725(11)
C13 C 0.6076(6) 0.0354(6) 0.8591(10)
H12 H 0.5624 0.0739 0.8902
C14 C 0.6870(6) 0.0148(6) 0.9681(10)
C15 C 0.5019(6) 0.0214(6) 0.5835(9)
H14 H 0.4485 0.0004 0.6310
H15 H 0.4965 0.0867 0.5709
N4 N 0.2440(4) 0.0369(4) 0.0698(7)
O9 O 0.0501(3) 0.0706(3) 0.1066(5)
C25 C 0.2570(6) 0.0697(5) 0.2218(9)
H25 H 0.2101 0.1063 0.2523
C26 C 0.3361(6) 0.0523(6) 0.3358(9)
H26 H 0.3409 0.0767 0.4405
C27 C 0.4066(6) 0.0010(5) 0.2996(10)
Co2 Co 0.12009(7) 0.08239(6) 0.90725(11)
N3 N 0.0064(4) 0.1532(3) 0.7623(6)
O6 O 0.1576(3) 0.2171(3) 0.9590(5)
O7 O 0.0998(4) 0.3578(3) 0.9349(5)
O8 O 0.0501(3) 0.4294(3) 0.6066(5)
O14 O 0.2047(3) 0.0876(3) 0.7151(5)
H16 H 0.2612 0.1073 0.7341
H17 H 0.1578 0.1111 0.6530
C16 C 0.0192(5) 0.2449(4) 0.7644(7)
C21 C 0.0985(5) 0.2772(4) 0.8972(8)
N1 N 0.0064(4) 0.3468(3) 0.2623(6)
N2 N 0.2440(4) 0.4631(4) 0.5698(7)
O1 O 0.1576(3) 0.2829(3) 0.4590(5)
O2 O 0.0998(4) 0.1422(3) 0.4349(5)
O5 O 0.2047(3) 0.4124(3) 0.2151(5)
H1 H 0.2612 0.3927 0.2341
H2 H 0.1578 0.3889 0.1530
C1 C 0.0192(5) 0.2551(4) 0.2644(7)
C6 C 0.0985(5) 0.2228(4) 0.3972(8)
C10 C 0.2570(6) 0.4303(5) 0.7218(9)
H10 H 0.2101 0.3937 0.7523
C11 C 0.3361(6) 0.4477(6) 0.8358(9)
H11 H 0.3409 0.4233 0.9405
C12 C 0.4066(6) 0.4990(5) 0.7996(10)
C13_2 C 0.3924(6) 0.5354(6) 0.6409(10)
H12_2 H 0.4376 0.5739 0.6098
C14_2 C 0.3130(6) 0.5148(6) 0.5319(10)
H13 H 0.3068 0.5381 0.4261
C15_2 C 0.4981(6) 0.5214(6) 0.9165(9)
H14_2 H 0.5515 0.5004 0.8690
H15_2 H 0.5035 0.5867 0.9291
H13_2 H 0.6932 0.0381 0.0739
O12 O 0.9090(4) 0.0476(3) 0.1735(5)
C2_2 C 0.9595(5) 0.1974(4) 0.1634(7)
C3_2 C 0.8814(5) 0.2356(5) 0.0611(8)
C4_2 C 0.8661(5) 0.3269(4) 0.0599(8)
C5_2 C 0.9322(5) 0.3809(5) 0.1585(8)
H4_2 H 0.9249 0.4435 0.1525
C7_2 C 0.9759(6) 0.0958(4) 0.1484(8)
H5_2 H 0.7649 0.4243 0.0039
H9_2 H 0.6789 0.2961 0.0106
Co1 Co 0.87991(7) 0.91761(6) 0.09275(11)
N1_2 N 0.9936(4) 0.8468(3) 0.2377(6)
O1_2 O 0.8424(3) 0.7829(3) 0.0410(5)
O2_2 O 0.9002(4) 0.6422(3) 0.0651(5)
O3 O 0.9499(3) 0.5706(3) 0.3934(5)
O5_2 O 0.7953(3) 0.9124(3) 0.2849(5)
H1_2 H 0.7388 0.8927 0.2659
H2_2 H 0.8422 0.8889 0.3470
C1_2 C 0.9808(5) 0.7551(4) 0.2356(7)
C6_2 C 0.9015(5) 0.7228(4) 0.1028(8)
Co6 Co 0.87991(7) 0.58239(6) 0.59275(11)
N2_2 N 0.7560(4) 0.9631(4) 0.9302(7)
C10_2 C 0.7430(6) 0.9303(5) 0.7782(9)
H10_2 H 0.7899 0.8937 0.7477
C11_2 C 0.6639(6) 0.9477(6) 0.6642(9)
H11_2 H 0.6591 0.9233 0.5595
C12_2 C 0.5934(6) 0.9990(5) 0.7004(10)
O10 O 0.9499(3) 0.9294(3) 0.8934(5)
C28 C 0.3924(6) 0.9646(6) 0.1409(10)
H27 H 0.4376 0.9261 0.1098
C29 C 0.3130(6) 0.9852(6) 0.0319(10)
C30 C 0.4981(6) 0.9786(6) 0.4165(9)
H29 H 0.5515 0.9996 0.3690
H30 H 0.5035 0.9133 0.4291
O11 O 0.9090(4) 0.4524(3) 0.6735(5)
C17 C 0.9595(5) 0.3026(4) 0.6634(7)
C18 C 0.8814(5) 0.2644(5) 0.5611(8)
H18 H 0.8395 0.3018 0.4934
C19 C 0.8661(5) 0.1731(4) 0.5599(8)
C20 C 0.9322(5) 0.1191(5) 0.6585(8)
H19 H 0.9249 0.0565 0.6525
C22 C 0.9759(6) 0.4042(4) 0.6484(8)
C23 C 0.7821(5) 0.1303(5) 0.4506(10)
H20 H 0.7649 0.0757 0.5039
H21 H 0.8018 0.1121 0.3489
C24 C 0.6997(7) 0.1854(8) 0.4114(18)
H22 H 0.7143 0.2381 0.3522
H23 H 0.6505 0.1514 0.3449
H24 H 0.6789 0.2039 0.5106
N3_2 N 0.9936(4) 0.6532(3) 0.7377(6)
N4_2 N 0.7560(4) 0.5369(4) 0.4302(7)
O6_2 O 0.8424(3) 0.7171(3) 0.5410(5)
O7_2 O 0.9002(4) 0.8578(3) 0.5651(5)
O14_2 O 0.7953(3) 0.5876(3) 0.7849(5)
H16_2 H 0.7388 0.6073 0.7659
H17_2 H 0.8422 0.6111 0.8470
C16_2 C 0.9808(5) 0.7449(4) 0.7356(7)
C21_2 C 0.9015(5) 0.7772(4) 0.6028(8)
C25_2 C 0.7430(6) 0.5697(5) 0.2782(9)
H25_2 H 0.7899 0.6063 0.2477
C26_2 C 0.6639(6) 0.5523(6) 0.1642(9)
H26_2 H 0.6591 0.5767 0.0595
C27_2 C 0.5934(6) 0.5010(5) 0.2004(10)
C28_2 C 0.6076(6) 0.4646(6) 0.3591(10)
H27_2 H 0.5624 0.4261 0.3902
C29_2 C 0.6870(6) 0.4852(6) 0.4681(10)
H28 H 0.6932 0.4619 0.5739
C30_2 C 0.5019(6) 0.4786(6) 0.0835(9)
H29_2 H 0.4485 0.4996 0.1310
H30_2 H 0.4965 0.4133 0.0709
O13 O 0.0910(4) 0.9524(3) 0.8265(5)
H28_2 H 0.3068 0.9619 0.9261
C17_2 C 0.0405(5) 0.8026(4) 0.8366(7)
C18_2 C 0.1186(5) 0.7644(5) 0.9389(8)
C19_2 C 0.1339(5) 0.6731(4) 0.9401(8)
C20_2 C 0.0678(5) 0.6191(5) 0.8415(8)
H19_2 H 0.0751 0.5565 0.8475
C22_2 C 0.0241(6) 0.9042(4) 0.8516(8)
H20_2 H 0.2351 0.5757 0.9961
H24_2 H 0.3211 0.7039 0.9894
H18_2 H 0.1605 0.8018 0.0066
C23_2 C 0.2179(5) 0.6303(5) 0.0494(10)
H21_2 H 0.1982 0.6121 0.1511
C24_2 C 0.3003(7) 0.6854(8) 0.0886(18)
H22_2 H 0.2857 0.7381 0.1478
H23_2 H 0.3495 0.6514 0.1551
H3_2 H 0.8395 0.1982 0.9934
C8_2 C 0.7821(5) 0.3697(5) 0.9506(10)
H6_2 H 0.8018 0.3879 0.8489
C9_2 C 0.6997(7) 0.3146(8) 0.9114(18)
H7_2 H 0.7143 0.2619 0.8522
H8_2 H 0.6505 0.3486 0.8449
loop_
_geom_bond_atom_site_label_1
_geom_bond_atom_site_label_2
_geom_bond_site_symmetry_1
_geom_bond_site_symmetry_2
O4 C7 1_555 1_555
C2 C3 1_555 1_555
C3 H3 1_555 1_555
C4 C3 1_555 1_555
H4 C5 1_555 1_555
C7 C2 1_555 1_555
C8 C4 1_555 1_555
H5 C8 1_555 1_555
H6 C8 1_555 1_555
C9 C8 1_555 1_555
H7 C9 1_555 1_555
H8 C9 1_555 1_555
H9 C9 1_555 1_555
Co4 O4 1_555 1_555
C4 C5 1_555 1_555
H12 C13 1_555 1_555
H14 C15 1_555 1_555
H15 C15 1_555 1_555
C25 N4 1_555 1_555
H25 C25 1_555 1_555
C26 C25 1_555 1_555
H26 C26 1_555 1_555
C27 C26 1_555 1_555
C13 C14 1_555 1_555
Co2 N3 1_555 1_555
Co4 O8 1_555 1_555
N3 C16 1_555 1_555
O6 Co2 1_555 1_555
O7 C21 1_555 1_555
O14 Co2 1_555 1_555
H16 O14 1_555 1_555
H17 O14 1_555 1_555
C21 O6 1_555 1_555
C16 C21 1_555 1_555
Co4 N1 1_555 1_555
N1 C1 1_555 1_555
N2 Co4 1_555 1_555
O1 Co4 1_555 1_555
O2 C6 1_555 1_555
O5 Co4 1_555 1_555
H1 O5 1_555 1_555
H2 O5 1_555 1_555
C6 O1 1_555 1_555
C10 N2 1_555 1_555
H10 C10 1_555 1_555
C11 C10 1_555 1_555
H11 C11 1_555 1_555
C12 C11 1_555 1_555
C13_2 C12 1_555 1_555
H12_2 C13_2 1_555 1_555
C14_2 N2 1_555 1_555
H13 C14_2 1_555 1_555
C15_2 C12 1_555 1_555
H14_2 C15_2 1_555 1_555
H15_2 C15_2 1_555 1_555
C1 C6 1_555 1_555
C13_2 C14_2 1_555 1_555
O12 C7_2 1_555 1_555
C2_2 C3_2 1_555 1_555
C4_2 C3_2 1_555 1_555
H4_2 C5_2 1_555 1_555
C7_2 C2_2 1_555 1_555
C4_2 C5_2 1_555 1_555
Co1 N1_2 1_555 1_555
N1_2 C1_2 1_555 1_555
O1_2 Co1 1_555 1_555
O2_2 C6_2 1_555 1_555
O5_2 Co1 1_555 1_555
H1_2 O5_2 1_555 1_555
H2_2 O5_2 1_555 1_555
C6_2 O1_2 1_555 1_555
Co6 O3 1_555 1_555
C1_2 C6_2 1_555 1_555
C10_2 N2_2 1_555 1_555
H10_2 C10_2 1_555 1_555
C11_2 C10_2 1_555 1_555
H11_2 C11_2 1_555 1_555
C12_2 C11_2 1_555 1_555
H27 C28 1_555 1_555
H29 C30 1_555 1_555
H30 C30 1_555 1_555
C28 C29 1_555 1_555
Co6 O11 1_555 1_555
O11 C22 1_555 1_555
C17 C18 1_555 1_555
C18 H18 1_555 1_555
C19 C18 1_555 1_555
H19 C20 1_555 1_555
C22 C17 1_555 1_555
C23 C19 1_555 1_555
H20 C23 1_555 1_555
H21 C23 1_555 1_555
C24 C23 1_555 1_555
H22 C24 1_555 1_555
H23 C24 1_555 1_555
H24 C24 1_555 1_555
C19 C20 1_555 1_555
Co6 N3_2 1_555 1_555
N3_2 C16_2 1_555 1_555
N4_2 Co6 1_555 1_555
O6_2 Co6 1_555 1_555
O7_2 C21_2 1_555 1_555
O14_2 Co6 1_555 1_555
H16_2 O14_2 1_555 1_555
H17_2 O14_2 1_555 1_555
C21_2 O6_2 1_555 1_555
C25_2 N4_2 1_555 1_555
H25_2 C25_2 1_555 1_555
C26_2 C25_2 1_555 1_555
H26_2 C26_2 1_555 1_555
C27_2 C26_2 1_555 1_555
C28_2 C27_2 1_555 1_555
H27_2 C28_2 1_555 1_555
C29_2 N4_2 1_555 1_555
H28 C29_2 1_555 1_555
H29_2 C30_2 1_555 1_555
H30_2 C30_2 1_555 1_555
C16_2 C21_2 1_555 1_555
C27_2 C30_2 1_555 1_555
C28_2 C29_2 1_555 1_555
O13 C22_2 1_555 1_555
C17_2 C18_2 1_555 1_555
C19_2 C18_2 1_555 1_555
H19_2 C20_2 1_555 1_555
C22_2 C17_2 1_555 1_555
C19_2 C20_2 1_555 1_555
H21_2 C23_2 1_555 1_555
C24_2 C23_2 1_555 1_555
H22_2 C24_2 1_555 1_555
H23_2 C24_2 1_555 1_555
H6_2 C8_2 1_555 1_555
C9_2 C8_2 1_555 1_555
H7_2 C9_2 1_555 1_555
H8_2 C9_2 1_555 1_555

#END
