
###############################################################################
#
# This file contains modified crystal structure data generated from the
# MOF subset of the Cambridge Structural Database (CSD) v543 
# hosted by the Cambridge Crystallographic Data Centre (CCDC).
#
# This work is licensed under the Creative Commons
# Attribution-NonCommercial-ShareAlike 4.0 International License.
# To view a copy of this license, visit
# http://creativecommons.org/licenses/by-nc-sa/4.0/
# or send a letter to
# Creative Commons, PO Box 1866, Mountain View, CA 94042, USA.
#
# CIF created using the CSD Python API on 29 September 2022
# The structure has been converted into the P1 space group
# The structure has a 3D framework
# The original CSD entry WECJAR is in the monoclinic crystal system
# The framework has been calculated to contain at least 10.0% void space
# The void calculation uses a probe of radius 1.32A, grid spacing 0.4
#
###############################################################################

data_WECJAR
_chemical_formula_moiety         '(C128 H72 N8 O32 S16 Zn8)n'
_symmetry_cell_setting           triclinic
_symmetry_space_group_name_H-M   'P 1'
_symmetry_Int_Tables_number      1
_space_group_name_Hall           'P 1'
loop_
_symmetry_equiv_pos_site_id
_symmetry_equiv_pos_as_xyz
1 x,y,z
_cell_length_a                   17.1764(8)
_cell_length_b                   22.0141(12)
_cell_length_c                   9.9312(5)
_cell_angle_alpha                90
_cell_angle_beta                 96.535(2)
_cell_angle_gamma                90
_cell_volume                     3730.82
loop_
_atom_site_label
_atom_site_type_symbol
_atom_site_fract_x
_atom_site_fract_y
_atom_site_fract_z
Zn4 Zn 0.035476(16) 0.271982(13) 0.39496(3)
C1 C 0.08163(14) 0.36112(12) 0.1794(3)
C2 C 0.12023(15) 0.42016(12) 0.1719(3)
C3 C 0.10091(16) 0.46779(13) 0.0864(3)
H1 H 0.0618 0.4660 0.0136
C4 C 0.14678(16) 0.52015(13) 0.1205(3)
H2 H 0.1408 0.5565 0.0728
C5 C 0.20107(16) 0.51161(12) 0.2317(3)
C6 C 0.25870(16) 0.55448(13) 0.2948(3)
C7 C 0.28721(18) 0.56132(13) 0.4277(3)
H3 H 0.2722 0.5369 0.4966
C8 C 0.34136(17) 0.60881(13) 0.4503(3)
H4 H 0.3656 0.6195 0.5355
C9 C 0.35468(15) 0.63771(12) 0.3330(3)
C10 C 0.40730(15) 0.68912(12) 0.3100(3)
C11 C 0.6575(3) 0.73274(17) 0.6103(4)
H5 H 0.6700 0.7056 0.5442
C12 C 0.58695(17) 0.81203(16) 0.6730(3)
H6 H 0.5489 0.8415 0.6507
C13 C 0.7003(3) 0.72978(16) 0.7391(4)
H7 H 0.7403 0.7015 0.7570
C14 C 0.62576(18) 0.81267(16) 0.8023(3)
H8 H 0.6141 0.8419 0.8644
C15 C 0.68260(17) 0.76891(13) 0.8382(3)
C16 C 0.72234(17) 0.76884(14) 0.9778(3)
N1 N 0.60032(13) 0.77212(10) 0.5782(2)
O1 O 0.44288(10) 0.71512(8) 0.41222(19)
O2 O 0.41152(10) 0.70192(8) 0.18759(19)
O3 O 0.10159(10) 0.32863(8) 0.28218(19)
O4 O 0.03017(10) 0.34734(8) 0.08247(19)
S1 S 0.19580(4) 0.43900(3) 0.29507(7)
S2 S 0.29978(4) 0.60642(3) 0.19408(7)
Zn1 Zn 0.535476(16) 0.771982(13) 0.39496(3)
C17 C 0.91837(14) 0.36112(12) 0.3206(3)
C18 C 0.87977(15) 0.42016(12) 0.3281(3)
C19 C 0.89909(16) 0.46779(13) 0.4136(3)
H10 H 0.9382 0.4660 0.4864
C20 C 0.85322(16) 0.52015(13) 0.3795(3)
H11 H 0.8592 0.5565 0.4272
C21 C 0.79893(16) 0.51161(12) 0.2683(3)
C22 C 0.74130(16) 0.55448(13) 0.2052(3)
C23 C 0.71279(18) 0.56132(13) 0.0723(3)
H12 H 0.7278 0.5369 0.0034
C24 C 0.65864(17) 0.60881(13) 0.0497(3)
C25 C 0.64532(15) 0.63771(12) 0.1670(3)
C26 C 0.59270(15) 0.68912(12) 0.1900(3)
H18 H 0.7931 0.7024 0.9620
O5 O 0.55712(10) 0.71512(8) 0.08778(19)
O6 O 0.58848(10) 0.70192(8) 0.31241(19)
O7 O 0.89841(10) 0.32863(8) 0.21782(19)
O8 O 0.60159(10) 0.82863(8) 0.28218(19)
O9 O 0.39841(10) 0.82863(8) 0.21782(19)
O10 O 0.96983(10) 0.34734(8) 0.41753(19)
O11 O 0.53017(10) 0.84734(8) 0.08247(19)
O12 O 0.46983(10) 0.84734(8) 0.41753(19)
S3 S 0.80420(4) 0.43900(3) 0.20493(7)
S4 S 0.70022(4) 0.60642(3) 0.30592(7)
Zn2 Zn 0.464524(16) 0.771982(13) 0.10504(3)
Zn6 Zn 0.964524(16) 0.271982(13) 0.10504(3)
C11_2 C 0.1575(3) 0.23274(17) 0.6103(4)
H5_2 H 0.1700 0.2056 0.5442
C12_2 C 0.08695(17) 0.31203(16) 0.6730(3)
H6_2 H 0.0489 0.3415 0.6507
C13_2 C 0.2003(3) 0.22978(16) 0.7391(4)
H7_2 H 0.2403 0.2015 0.7570
C14_2 C 0.12576(18) 0.31267(16) 0.8023(3)
H8_2 H 0.1141 0.3419 0.8644
C15_2 C 0.18260(17) 0.26891(13) 0.8382(3)
C16_2 C 0.22234(17) 0.26884(14) 0.9778(3)
N1_2 N 0.10032(13) 0.27212(10) 0.5782(2)
C20_2 C 0.35322(16) 0.02015(13) 0.3795(3)
H11_2 H 0.3592 0.0565 0.4272
C21_2 C 0.29893(16) 0.01161(12) 0.2683(3)
C22_2 C 0.24130(16) 0.05448(13) 0.2052(3)
C23_2 C 0.21279(18) 0.06132(13) 0.0723(3)
H12_2 H 0.2278 0.0369 0.0034
C24_2 C 0.15864(17) 0.10881(13) 0.0497(3)
C25_2 C 0.14532(15) 0.13771(12) 0.1670(3)
C26_2 C 0.09270(15) 0.18912(12) 0.1900(3)
H18_2 H 0.2931 0.2024 0.9620
O5_2 O 0.05712(10) 0.21512(8) 0.08778(19)
O6_2 O 0.08848(10) 0.20192(8) 0.31241(19)
S4_2 S 0.20022(4) 0.10642(3) 0.30592(7)
C17_2 C 0.41837(14) 0.86112(12) 0.3206(3)
C18_2 C 0.37977(15) 0.92016(12) 0.3281(3)
C19_2 C 0.39909(16) 0.96779(13) 0.4136(3)
H10_2 H 0.4382 0.9660 0.4864
S3_2 S 0.30420(4) 0.93900(3) 0.20493(7)
C4_2 C 0.64678(16) 0.02015(13) 0.1205(3)
H2_2 H 0.6408 0.0565 0.0728
C5_2 C 0.70107(16) 0.01161(12) 0.2317(3)
C6_2 C 0.75870(16) 0.05448(13) 0.2948(3)
C7_2 C 0.78721(18) 0.06132(13) 0.4277(3)
H3_2 H 0.7722 0.0369 0.4966
C8_2 C 0.84136(17) 0.10881(13) 0.4503(3)
H4_2 H 0.8656 0.1195 0.5355
C9_2 C 0.85468(15) 0.13771(12) 0.3330(3)
C10_2 C 0.90730(15) 0.18912(12) 0.3100(3)
O1_2 O 0.94288(10) 0.21512(8) 0.41222(19)
O2_2 O 0.91152(10) 0.20192(8) 0.18759(19)
S2_2 S 0.79978(4) 0.10642(3) 0.19408(7)
C1_2 C 0.58163(14) 0.86112(12) 0.1794(3)
C2_2 C 0.62023(15) 0.92016(12) 0.1719(3)
C3_2 C 0.60091(16) 0.96779(13) 0.0864(3)
H1_2 H 0.5618 0.9660 0.0136
S1_2 S 0.69580(4) 0.93900(3) 0.29507(7)
H9 H 0.7069 0.7976 0.0380
C27 C 0.8425(3) 0.76726(17) 0.3897(4)
H14 H 0.8300 0.7944 0.4558
C28 C 0.91305(17) 0.68797(16) 0.3270(3)
H15 H 0.9511 0.6585 0.3493
C29 C 0.7997(3) 0.77022(16) 0.2609(4)
H16 H 0.7597 0.7985 0.2430
C30 C 0.87424(18) 0.68733(16) 0.1977(3)
H17 H 0.8859 0.6581 0.1356
C31 C 0.81740(17) 0.73109(13) 0.1618(3)
C32 C 0.77766(17) 0.73116(14) 0.0222(3)
N2 N 0.89968(13) 0.72788(10) 0.4218(2)
Zn7 Zn 0.964524(16) 0.728018(13) 0.60504(3)
Zn7_2 Zn 0.035476(16) 0.728018(13) 0.89496(3)
H9_2 H 0.2069 0.2976 0.0380
C27_2 C 0.3425(3) 0.26726(17) 0.3897(4)
H14_2 H 0.3300 0.2944 0.4558
C28_2 C 0.41305(17) 0.18797(16) 0.3270(3)
H15_2 H 0.4511 0.1585 0.3493
C29_2 C 0.2997(3) 0.27022(16) 0.2609(4)
H16_2 H 0.2597 0.2985 0.2430
C30_2 C 0.37424(18) 0.18733(16) 0.1977(3)
H17_2 H 0.3859 0.1581 0.1356
C31_2 C 0.31740(17) 0.23109(13) 0.1618(3)
C32_2 C 0.27766(17) 0.23116(14) 0.0222(3)
N2_2 N 0.39968(13) 0.22788(10) 0.4218(2)
Zn7_3 Zn 0.464524(16) 0.228018(13) 0.60504(3)
Zn7_4 Zn 0.535476(16) 0.228018(13) 0.89496(3)
C1_3 C 0.91837(14) 0.63888(12) 0.8206(3)
C2_3 C 0.87977(15) 0.57984(12) 0.8281(3)
C3_3 C 0.89909(16) 0.53221(13) 0.9136(3)
H1_3 H 0.9382 0.5340 0.9864
C4_3 C 0.85322(16) 0.47985(13) 0.8795(3)
H2_3 H 0.8592 0.4435 0.9272
C5_3 C 0.79893(16) 0.48839(12) 0.7683(3)
C6_3 C 0.74130(16) 0.44552(13) 0.7052(3)
C7_3 C 0.71279(18) 0.43868(13) 0.5723(3)
H3_3 H 0.7278 0.4631 0.5034
C8_3 C 0.65864(17) 0.39119(13) 0.5497(3)
H4_3 H 0.6344 0.3805 0.4645
C9_3 C 0.64532(15) 0.36229(12) 0.6670(3)
C10_3 C 0.59270(15) 0.31088(12) 0.6900(3)
O1_3 O 0.55712(10) 0.28488(8) 0.58778(19)
O2_3 O 0.58848(10) 0.29808(8) 0.81241(19)
O3_2 O 0.89841(10) 0.67137(8) 0.71782(19)
O4_2 O 0.96983(10) 0.65266(8) 0.91753(19)
S1_3 S 0.80420(4) 0.56100(3) 0.70493(7)
S2_3 S 0.70022(4) 0.39358(3) 0.80592(7)
C17_3 C 0.08163(14) 0.63888(12) 0.6794(3)
C18_3 C 0.12023(15) 0.57984(12) 0.6719(3)
C19_3 C 0.10091(16) 0.53221(13) 0.5864(3)
H10_3 H 0.0618 0.5340 0.5136
C20_3 C 0.14678(16) 0.47985(13) 0.6205(3)
H11_3 H 0.1408 0.4435 0.5728
C21_3 C 0.20107(16) 0.48839(12) 0.7317(3)
C22_3 C 0.25870(16) 0.44552(13) 0.7948(3)
C23_3 C 0.28721(18) 0.43868(13) 0.9277(3)
H12_3 H 0.2722 0.4631 0.9966
C24_3 C 0.34136(17) 0.39119(13) 0.9503(3)
C25_3 C 0.35468(15) 0.36229(12) 0.8330(3)
C26_3 C 0.40730(15) 0.31088(12) 0.8100(3)
O5_3 O 0.44288(10) 0.28488(8) 0.91222(19)
O6_3 O 0.41152(10) 0.29808(8) 0.68759(19)
O7_2 O 0.10159(10) 0.67137(8) 0.78218(19)
O8_2 O 0.39841(10) 0.17137(8) 0.71782(19)
O9_2 O 0.60159(10) 0.17137(8) 0.78218(19)
O10_2 O 0.03017(10) 0.65266(8) 0.58247(19)
O11_2 O 0.46983(10) 0.15266(8) 0.91753(19)
O12_2 O 0.53017(10) 0.15266(8) 0.58247(19)
S3_3 S 0.19580(4) 0.56100(3) 0.79507(7)
S4_3 S 0.29978(4) 0.39358(3) 0.69408(7)
C1_4 C 0.41837(14) 0.13888(12) 0.8206(3)
C2_4 C 0.37977(15) 0.07984(12) 0.8281(3)
C3_4 C 0.39909(16) 0.03221(13) 0.9136(3)
H1_4 H 0.4382 0.0340 0.9864
S1_4 S 0.30420(4) 0.06100(3) 0.70493(7)
C4_4 C 0.35322(16) 0.97985(13) 0.8795(3)
H2_4 H 0.3592 0.9435 0.9272
C5_4 C 0.29893(16) 0.98839(12) 0.7683(3)
C6_4 C 0.24130(16) 0.94552(13) 0.7052(3)
C7_4 C 0.21279(18) 0.93868(13) 0.5723(3)
H3_4 H 0.2278 0.9631 0.5034
C8_4 C 0.15864(17) 0.89119(13) 0.5497(3)
H4_4 H 0.1344 0.8805 0.4645
C9_4 C 0.14532(15) 0.86229(12) 0.6670(3)
C10_4 C 0.09270(15) 0.81088(12) 0.6900(3)
O1_4 O 0.05712(10) 0.78488(8) 0.58778(19)
O2_4 O 0.08848(10) 0.79808(8) 0.81241(19)
S2_4 S 0.20022(4) 0.89358(3) 0.80592(7)
C17_4 C 0.58163(14) 0.13888(12) 0.6794(3)
C18_4 C 0.62023(15) 0.07984(12) 0.6719(3)
C19_4 C 0.60091(16) 0.03221(13) 0.5864(3)
H10_4 H 0.5618 0.0340 0.5136
S3_4 S 0.69580(4) 0.06100(3) 0.79507(7)
C20_4 C 0.64678(16) 0.97985(13) 0.6205(3)
H11_4 H 0.6408 0.9435 0.5728
C21_4 C 0.70107(16) 0.98839(12) 0.7317(3)
C22_4 C 0.75870(16) 0.94552(13) 0.7948(3)
C23_4 C 0.78721(18) 0.93868(13) 0.9277(3)
H12_4 H 0.7722 0.9631 0.9966
C24_4 C 0.84136(17) 0.89119(13) 0.9503(3)
C25_4 C 0.85468(15) 0.86229(12) 0.8330(3)
C26_4 C 0.90730(15) 0.81088(12) 0.8100(3)
O5_4 O 0.94288(10) 0.78488(8) 0.91222(19)
O6_4 O 0.91152(10) 0.79808(8) 0.68759(19)
S4_4 S 0.79978(4) 0.89358(3) 0.69408(7)
H13 H 0.6344 0.6195 0.9645
N3 N 0.39968(13) 0.77212(10) 0.9218(2)
C11_3 C 0.3425(3) 0.73274(17) 0.8897(4)
H5_3 H 0.3300 0.7056 0.9558
C12_3 C 0.41305(17) 0.81203(16) 0.8270(3)
H6_3 H 0.4511 0.8415 0.8493
C13_3 C 0.2997(3) 0.72978(16) 0.7609(4)
H7_3 H 0.2597 0.7015 0.7430
C14_3 C 0.37424(18) 0.81267(16) 0.6977(3)
H8_3 H 0.3859 0.8419 0.6356
C15_3 C 0.31740(17) 0.76891(13) 0.6618(3)
C16_3 C 0.27766(17) 0.76884(14) 0.5222(3)
H9_3 H 0.2931 0.7976 0.4620
C27_3 C 0.1575(3) 0.76726(17) 0.1103(4)
H14_3 H 0.1700 0.7944 0.0442
C28_3 C 0.08695(17) 0.68797(16) 0.1730(3)
H15_3 H 0.0489 0.6585 0.1507
C29_3 C 0.2003(3) 0.77022(16) 0.2391(4)
H16_3 H 0.2403 0.7985 0.2570
C30_3 C 0.12576(18) 0.68733(16) 0.3023(3)
H17_3 H 0.1141 0.6581 0.3644
C31_3 C 0.18260(17) 0.73109(13) 0.3382(3)
C32_3 C 0.22234(17) 0.73116(14) 0.4778(3)
H18_3 H 0.2069 0.7024 0.5380
N2_3 N 0.10032(13) 0.72788(10) 0.0782(2)
H13_2 H 0.1344 0.1195 0.9645
N3_2 N 0.89968(13) 0.27212(10) 0.9218(2)
C11_4 C 0.8425(3) 0.23274(17) 0.8897(4)
H5_4 H 0.8300 0.2056 0.9558
C12_4 C 0.91305(17) 0.31203(16) 0.8270(3)
H6_4 H 0.9511 0.3415 0.8493
C13_4 C 0.7997(3) 0.22978(16) 0.7609(4)
H7_4 H 0.7597 0.2015 0.7430
C14_4 C 0.87424(18) 0.31267(16) 0.6977(3)
H8_4 H 0.8859 0.3419 0.6356
C15_4 C 0.81740(17) 0.26891(13) 0.6618(3)
C16_4 C 0.77766(17) 0.26884(14) 0.5222(3)
H9_4 H 0.7931 0.2976 0.4620
C27_4 C 0.6575(3) 0.26726(17) 0.1103(4)
H14_4 H 0.6700 0.2944 0.0442
C28_4 C 0.58695(17) 0.18797(16) 0.1730(3)
H15_4 H 0.5489 0.1585 0.1507
C29_4 C 0.7003(3) 0.27022(16) 0.2391(4)
H16_4 H 0.7403 0.2985 0.2570
C30_4 C 0.62576(18) 0.18733(16) 0.3023(3)
H17_4 H 0.6141 0.1581 0.3644
C31_4 C 0.68260(17) 0.23109(13) 0.3382(3)
C32_4 C 0.72234(17) 0.23116(14) 0.4778(3)
H18_4 H 0.7069 0.2024 0.5380
N2_4 N 0.60032(13) 0.22788(10) 0.0782(2)
H13_3 H 0.3656 0.3805 0.0355
H13_4 H 0.8656 0.8805 0.0355
loop_
_geom_bond_atom_site_label_1
_geom_bond_atom_site_label_2
_geom_bond_site_symmetry_1
_geom_bond_site_symmetry_2
C1 C2 1_555 1_555
C2 C3 1_555 1_555
C3 H1 1_555 1_555
C4 C3 1_555 1_555
H2 C4 1_555 1_555
C5 C4 1_555 1_555
C6 C5 1_555 1_555
C7 C6 1_555 1_555
H3 C7 1_555 1_555
C8 C7 1_555 1_555
H4 C8 1_555 1_555
C9 C8 1_555 1_555
C10 C9 1_555 1_555
C11 H5 1_555 1_555
C12 H6 1_555 1_555
C13 C11 1_555 1_555
H7 C13 1_555 1_555
C14 C12 1_555 1_555
H8 C14 1_555 1_555
C15 C13 1_555 1_555
C16 C15 1_555 1_555
N1 C11 1_555 1_555
O1 C10 1_555 1_555
O2 C10 1_555 1_555
O3 C1 1_555 1_555
O4 C1 1_555 1_555
S1 C2 1_555 1_555
S2 C6 1_555 1_555
Zn1 N1 1_555 1_555
C17 C18 1_555 1_555
C18 C19 1_555 1_555
C19 H10 1_555 1_555
C20 C19 1_555 1_555
H11 C20 1_555 1_555
C21 C20 1_555 1_555
C22 C21 1_555 1_555
C23 C22 1_555 1_555
H12 C23 1_555 1_555
C24 C23 1_555 1_555
C25 C24 1_555 1_555
C26 C25 1_555 1_555
O5 C26 1_555 1_555
O6 Zn1 1_555 1_555
O7 C17 1_555 1_555
O8 Zn1 1_555 1_555
O9 Zn2 1_555 1_555
O10 C17 1_555 1_555
O11 Zn2 1_555 1_555
O12 Zn1 1_555 1_555
S3 C18 1_555 1_555
S4 C22 1_555 1_555
Zn2 O2 1_555 1_555
Zn4 O3 1_555 1_555
Zn6 O7 1_555 1_555
C5 S1 1_555 1_555
C9 S2 1_555 1_555
C12 N1 1_555 1_555
C14 C15 1_555 1_555
O1 Zn1 1_555 1_555
C21 S3 1_555 1_555
C25 S4 1_555 1_555
C26 O6 1_555 1_555
O5 Zn2 1_555 1_555
C11_2 H5_2 1_555 1_555
C12_2 H6_2 1_555 1_555
C13_2 C11_2 1_555 1_555
H7_2 C13_2 1_555 1_555
C14_2 C12_2 1_555 1_555
H8_2 C14_2 1_555 1_555
C15_2 C13_2 1_555 1_555
C16_2 C15_2 1_555 1_555
N1_2 C11_2 1_555 1_555
Zn4 N1_2 1_555 1_555
H11_2 C20_2 1_555 1_555
C21_2 C20_2 1_555 1_555
C22_2 C21_2 1_555 1_555
C23_2 C22_2 1_555 1_555
H12_2 C23_2 1_555 1_555
C24_2 C23_2 1_555 1_555
C25_2 C24_2 1_555 1_555
C26_2 C25_2 1_555 1_555
O5_2 C26_2 1_555 1_555
O6_2 Zn4 1_555 1_555
S4_2 C22_2 1_555 1_555
C12_2 N1_2 1_555 1_555
C14_2 C15_2 1_555 1_555
C25_2 S4_2 1_555 1_555
C26_2 O6_2 1_555 1_555
C17_2 C18_2 1_555 1_555
C18_2 C19_2 1_555 1_555
C19_2 H10_2 1_555 1_555
O9 C17_2 1_555 1_555
O12 C17_2 1_555 1_555
S3_2 C18_2 1_555 1_555
H2_2 C4_2 1_555 1_555
C5_2 C4_2 1_555 1_555
C6_2 C5_2 1_555 1_555
C7_2 C6_2 1_555 1_555
H3_2 C7_2 1_555 1_555
C8_2 C7_2 1_555 1_555
H4_2 C8_2 1_555 1_555
C9_2 C8_2 1_555 1_555
C10_2 C9_2 1_555 1_555
O1_2 C10_2 1_555 1_555
O2_2 C10_2 1_555 1_555
S2_2 C6_2 1_555 1_555
Zn6 O2_2 1_555 1_555
C9_2 S2_2 1_555 1_555
C1_2 C2_2 1_555 1_555
C2_2 C3_2 1_555 1_555
C3_2 H1_2 1_555 1_555
O8 C1_2 1_555 1_555
O11 C1_2 1_555 1_555
S1_2 C2_2 1_555 1_555
C27 H14 1_555 1_555
C28 H15 1_555 1_555
C29 C27 1_555 1_555
H16 C29 1_555 1_555
C30 C28 1_555 1_555
H17 C30 1_555 1_555
C31 C29 1_555 1_555
N2 C27 1_555 1_555
Zn7 N2 1_555 1_555
C28 N2 1_555 1_555
C30 C31 1_555 1_555
C31 C32 1_555 1_555
C27_2 H14_2 1_555 1_555
C28_2 H15_2 1_555 1_555
C29_2 C27_2 1_555 1_555
H16_2 C29_2 1_555 1_555
C30_2 C28_2 1_555 1_555
H17_2 C30_2 1_555 1_555
C31_2 C29_2 1_555 1_555
N2_2 C27_2 1_555 1_555
Zn7_3 N2_2 1_555 1_555
C28_2 N2_2 1_555 1_555
C30_2 C31_2 1_555 1_555
C31_2 C32_2 1_555 1_555
C1_3 C2_3 1_555 1_555
C2_3 C3_3 1_555 1_555
C3_3 H1_3 1_555 1_555
C4_3 C3_3 1_555 1_555
H2_3 C4_3 1_555 1_555
C5_3 C4_3 1_555 1_555
C6_3 C5_3 1_555 1_555
C7_3 C6_3 1_555 1_555
H3_3 C7_3 1_555 1_555
C8_3 C7_3 1_555 1_555
H4_3 C8_3 1_555 1_555
C9_3 C8_3 1_555 1_555
C10_3 C9_3 1_555 1_555
O1_3 C10_3 1_555 1_555
O2_3 C10_3 1_555 1_555
O3_2 C1_3 1_555 1_555
O4_2 C1_3 1_555 1_555
S1_3 C2_3 1_555 1_555
S2_3 C6_3 1_555 1_555
C17_3 C18_3 1_555 1_555
C18_3 C19_3 1_555 1_555
C19_3 H10_3 1_555 1_555
C20_3 C19_3 1_555 1_555
H11_3 C20_3 1_555 1_555
C21_3 C20_3 1_555 1_555
C22_3 C21_3 1_555 1_555
C23_3 C22_3 1_555 1_555
H12_3 C23_3 1_555 1_555
C24_3 C23_3 1_555 1_555
C25_3 C24_3 1_555 1_555
C26_3 C25_3 1_555 1_555
O5_3 C26_3 1_555 1_555
O6_3 Zn7_3 1_555 1_555
O7_2 C17_3 1_555 1_555
O8_2 Zn7_3 1_555 1_555
O9_2 Zn7_4 1_555 1_555
O10_2 C17_3 1_555 1_555
O11_2 Zn7_4 1_555 1_555
O12_2 Zn7_3 1_555 1_555
S3_3 C18_3 1_555 1_555
S4_3 C22_3 1_555 1_555
Zn7_4 O2_3 1_555 1_555
Zn7 O3_2 1_555 1_555
Zn7_2 O7_2 1_555 1_555
C5_3 S1_3 1_555 1_555
C9_3 S2_3 1_555 1_555
O1_3 Zn7_3 1_555 1_555
C21_3 S3_3 1_555 1_555
C25_3 S4_3 1_555 1_555
C26_3 O6_3 1_555 1_555
O5_3 Zn7_4 1_555 1_555
C1_4 C2_4 1_555 1_555
C2_4 C3_4 1_555 1_555
C3_4 H1_4 1_555 1_555
O8_2 C1_4 1_555 1_555
O11_2 C1_4 1_555 1_555
S1_4 C2_4 1_555 1_555
H2_4 C4_4 1_555 1_555
C5_4 C4_4 1_555 1_555
C6_4 C5_4 1_555 1_555
C7_4 C6_4 1_555 1_555
H3_4 C7_4 1_555 1_555
C8_4 C7_4 1_555 1_555
H4_4 C8_4 1_555 1_555
C9_4 C8_4 1_555 1_555
C10_4 C9_4 1_555 1_555
O1_4 C10_4 1_555 1_555
O2_4 C10_4 1_555 1_555
S2_4 C6_4 1_555 1_555
Zn7_2 O2_4 1_555 1_555
C9_4 S2_4 1_555 1_555
C17_4 C18_4 1_555 1_555
C18_4 C19_4 1_555 1_555
C19_4 H10_4 1_555 1_555
O9_2 C17_4 1_555 1_555
O12_2 C17_4 1_555 1_555
S3_4 C18_4 1_555 1_555
H11_4 C20_4 1_555 1_555
C21_4 C20_4 1_555 1_555
C22_4 C21_4 1_555 1_555
C23_4 C22_4 1_555 1_555
H12_4 C23_4 1_555 1_555
C24_4 C23_4 1_555 1_555
C25_4 C24_4 1_555 1_555
C26_4 C25_4 1_555 1_555
O5_4 C26_4 1_555 1_555
O6_4 Zn7 1_555 1_555
S4_4 C22_4 1_555 1_555
C25_4 S4_4 1_555 1_555
C26_4 O6_4 1_555 1_555
C11_3 H5_3 1_555 1_555
C12_3 H6_3 1_555 1_555
C13_3 C11_3 1_555 1_555
H7_3 C13_3 1_555 1_555
C14_3 C12_3 1_555 1_555
H8_3 C14_3 1_555 1_555
C15_3 C13_3 1_555 1_555
C16_3 C15_3 1_555 1_555
H9_3 C16_3 1_555 1_555
N3 C11_3 1_555 1_555
C27_3 H14_3 1_555 1_555
C28_3 H15_3 1_555 1_555
C29_3 C27_3 1_555 1_555
H16_3 C29_3 1_555 1_555
C30_3 C28_3 1_555 1_555
H17_3 C30_3 1_555 1_555
C31_3 C29_3 1_555 1_555
C32_3 C16_3 1_555 1_555
H18_3 C32_3 1_555 1_555
N2_3 C27_3 1_555 1_555
C12_3 N3 1_555 1_555
C14_3 C15_3 1_555 1_555
C28_3 N2_3 1_555 1_555
C30_3 C31_3 1_555 1_555
C31_3 C32_3 1_555 1_555
C11_4 H5_4 1_555 1_555
C12_4 H6_4 1_555 1_555
C13_4 C11_4 1_555 1_555
H7_4 C13_4 1_555 1_555
C14_4 C12_4 1_555 1_555
H8_4 C14_4 1_555 1_555
C15_4 C13_4 1_555 1_555
C16_4 C15_4 1_555 1_555
H9_4 C16_4 1_555 1_555
N3_2 C11_4 1_555 1_555
C27_4 H14_4 1_555 1_555
C28_4 H15_4 1_555 1_555
C29_4 C27_4 1_555 1_555
H16_4 C29_4 1_555 1_555
C30_4 C28_4 1_555 1_555
H17_4 C30_4 1_555 1_555
C31_4 C29_4 1_555 1_555
C32_4 C16_4 1_555 1_555
H18_4 C32_4 1_555 1_555
N2_4 C27_4 1_555 1_555
C12_4 N3_2 1_555 1_555
C14_4 C15_4 1_555 1_555
C28_4 N2_4 1_555 1_555
C30_4 C31_4 1_555 1_555
C31_4 C32_4 1_555 1_555

#END
