
###############################################################################
#
# This file contains modified crystal structure data generated from the
# MOF subset of the Cambridge Structural Database (CSD) v543 
# hosted by the Cambridge Crystallographic Data Centre (CCDC).
#
# This work is licensed under the Creative Commons
# Attribution-NonCommercial-ShareAlike 4.0 International License.
# To view a copy of this license, visit
# http://creativecommons.org/licenses/by-nc-sa/4.0/
# or send a letter to
# Creative Commons, PO Box 1866, Mountain View, CA 94042, USA.
#
# CIF created using the CSD Python API on 29 September 2022
# The structure has been converted into the P1 space group
# The structure has a 3D framework
# The original CSD entry WECSEF is in the monoclinic crystal system
# The framework has been calculated to contain at least 10.0% void space
# The void calculation uses a probe of radius 1.32A, grid spacing 0.4
#
###############################################################################

data_WECSEF
_chemical_formula_moiety         '(C48 H60 Na4 O66 Y6)n'
_symmetry_cell_setting           triclinic
_symmetry_space_group_name_H-M   'P 1'
_symmetry_Int_Tables_number      1
_space_group_name_Hall           'P 1'
loop_
_symmetry_equiv_pos_site_id
_symmetry_equiv_pos_as_xyz
1 x,y,z
_cell_length_a                   15.5251(9)
_cell_length_b                   9.8120(6)
_cell_length_c                   17.9440(10)
_cell_angle_alpha                90
_cell_angle_beta                 104.6600(10)
_cell_angle_gamma                90
_cell_volume                     2644.46
loop_
_atom_site_label
_atom_site_type_symbol
_atom_site_fract_x
_atom_site_fract_y
_atom_site_fract_z
Y1 Y 0.500 0.14071(2) 0.250
O1 O 0.500 0.39085(9) 0.250
C1 C 0.46977(6) 0.46882(9) 0.30519(5)
H1 H 0.4126 0.5138 0.2805
H2 H 0.5139 0.5401 0.3274
C2 C 0.45763(6) 0.37275(9) 0.36786(5)
O2 O 0.46203(4) 0.24513(6) 0.35446(4)
O3 O 0.44463(4) 0.42180(7) 0.42760(4)
O4 O 0.37547(4) 0.00513(6) 0.27333(4)
C3 C 0.28981(6) 0.01370(10) 0.22093(6)
H3 H 0.2437 0.0253 0.2497
C4 C 0.28805(6) 0.13438(9) 0.16757(5)
O5 O 0.35829(4) 0.20658(7) 0.17948(4)
O6 O 0.21915(4) 0.15469(7) 0.11589(4)
Na1 Na 0.57334(2) 0.35886(4) 0.53212(2)
Na2 Na 0.750 0.250 0.500
O9 O 0.65165(5) 0.40827(8) 0.42988(4)
O10 O 0.61383(5) 0.13575(8) 0.49045(4)
H7 H 0.6621(10) 0.4878(14) 0.4141(9)
H8 H 0.6479(11) 0.3591(14) 0.3927(8)
H9 H 0.5851(10) 0.1212(16) 0.4500(8)
H10 H 0.6188(9) 0.0662(13) 0.5096(8)
C7 C 0.53023(6) 0.46882(9) 0.19481(5)
H11 H 0.5874 0.5138 0.2195
H12 H 0.4861 0.5401 0.1726
C8 C 0.54237(6) 0.37275(9) 0.13214(5)
O11 O 0.53797(4) 0.24513(6) 0.14554(4)
O12 O 0.55537(4) 0.42180(7) 0.07240(4)
O13 O 0.62453(4) 0.00513(6) 0.22667(4)
C9 C 0.71019(6) 0.01370(10) 0.27907(6)
H13 H 0.7563 0.0253 0.2503
C10 C 0.71195(6) 0.13438(9) 0.33243(5)
O14 O 0.64171(4) 0.20658(7) 0.32052(4)
O15 O 0.78085(4) 0.15469(7) 0.38411(4)
O18 O 0.34835(5) 0.40827(8) 0.07012(4)
O19 O 0.38617(5) 0.13575(8) 0.00955(4)
H17 H 0.3379(10) 0.4878(14) 0.0859(9)
H18 H 0.3521(11) 0.3591(14) 0.1073(8)
H19 H 0.4149(10) 0.1212(16) 0.0500(8)
O20 O 0.55537(4) 0.57820(7) 0.57240(4)
O23 O 0.71915(4) 0.34531(7) 0.61589(4)
O24 O 0.48446(5) 0.22555(7) 0.59946(4)
Na5 Na 0.42666(2) 0.64114(4) 0.46788(2)
Na7 Na 0.57334(2) 0.64114(4) 0.03212(2)
Na8 Na 0.92666(2) 0.14114(4) 0.46788(2)
Na9 Na 0.07334(2) 0.14114(4) 0.03212(2)
Na10 Na 0.250 0.250 0.000
O26 O 0.84835(5) 0.09173(8) 0.57012(4)
O27 O 0.88617(5) 0.36425(8) 0.50955(4)
Na3 Na 0.42666(2) 0.35886(4) 0.96788(2)
H20 H 0.3812(9) 0.0662(13) 0.9904(8)
O21 O 0.44463(4) 0.57820(7) 0.92760(4)
O22 O 0.28085(4) 0.34531(7) 0.88411(4)
O25 O 0.51554(5) 0.22555(7) 0.90054(4)
Na10_2 Na 0.250 0.250 1.000
H4 H 0.2769 0.9287 0.1904
C5 C 0.39234(6) 0.87782(9) 0.31253(5)
H5 H 0.3792 0.802 0.275
H6 H 0.3538 0.8679 0.3485
C6 C 0.48989(6) 0.87381(9) 0.35681(5)
O7 O 0.53869(4) 0.97052(7) 0.34527(4)
O8 O 0.51554(5) 0.77445(7) 0.40054(4)
H14 H 0.7231 0.9287 0.3096
C11 C 0.60766(6) 0.87782(9) 0.18747(5)
H15 H 0.6208 0.802 0.225
H16 H 0.6462 0.8679 0.1515
C12 C 0.51011(6) 0.87381(9) 0.14319(5)
O16 O 0.46131(4) 0.97052(7) 0.15473(4)
O17 O 0.48446(5) 0.77445(7) 0.09946(4)
O26_2 O 0.15165(5) 0.09173(8) 0.92988(4)
O27_2 O 0.11383(5) 0.36425(8) 0.99045(4)
H2_2 H 0.0139 0.0401 0.3274
H11_2 H 0.0874 0.0138 0.2195
O20_2 O 0.05537(4) 0.07820(7) 0.57240(4)
Y1_2 Y -0.000 0.64071(2) 0.250
O1_2 O -0.000 0.89085(9) 0.250
O7_2 O 0.03869(4) 0.47052(7) 0.34527(4)
O8_2 O 0.01554(5) 0.27445(7) 0.40054(4)
Na1_2 Na 0.07334(2) 0.85886(4) 0.53212(2)
Na2_2 Na 0.250 0.750 0.500
O9_2 O 0.15165(5) 0.90827(8) 0.42988(4)
O10_2 O 0.11383(5) 0.63575(8) 0.49045(4)
H7_2 H 0.1621(10) 0.9878(14) 0.4141(9)
H8_2 H 0.1479(11) 0.8591(14) 0.3927(8)
H9_2 H 0.0851(10) 0.6212(16) 0.4500(8)
H10_2 H 0.1188(9) 0.5662(13) 0.5096(8)
C7_2 C 0.03023(6) 0.96882(9) 0.19481(5)
C8_2 C 0.04237(6) 0.87275(9) 0.13214(5)
O11_2 O 0.03797(4) 0.74513(6) 0.14554(4)
O12_2 O 0.05537(4) 0.92180(7) 0.07240(4)
O13_2 O 0.12453(4) 0.50513(6) 0.22667(4)
C9_2 C 0.21019(6) 0.51370(10) 0.27907(6)
H13_2 H 0.2563 0.5253 0.2503
H14_2 H 0.2231 0.4287 0.3096
C10_2 C 0.21195(6) 0.63438(9) 0.33243(5)
O14_2 O 0.14171(4) 0.70658(7) 0.32052(4)
O15_2 O 0.28085(4) 0.65469(7) 0.38411(4)
C11_2 C 0.10766(6) 0.37782(9) 0.18747(5)
H15_2 H 0.1208 0.302 0.225
H16_2 H 0.1462 0.3679 0.1515
C12_2 C 0.01011(6) 0.37381(9) 0.14319(5)
O23_2 O 0.21915(4) 0.84531(7) 0.61589(4)
O26_3 O 0.34835(5) 0.59173(8) 0.57012(4)
O27_3 O 0.38617(5) 0.86425(8) 0.50955(4)
O25_2 O 0.01554(5) 0.72555(7) 0.90054(4)
H1_2 H 0.9126 0.0138 0.2805
H12_2 H 0.9861 0.0401 0.1726
O21_2 O 0.94463(4) 0.07820(7) 0.92760(4)
Y1_3 Y 1.000 0.64071(2) 0.250
O1_3 O 1.000 0.89085(9) 0.250
C1_2 C 0.96977(6) 0.96882(9) 0.30519(5)
C2_2 C 0.95763(6) 0.87275(9) 0.36786(5)
O2_2 O 0.96203(4) 0.74513(6) 0.35446(4)
O3_2 O 0.94463(4) 0.92180(7) 0.42760(4)
O4_2 O 0.87547(4) 0.50513(6) 0.27333(4)
C3_2 C 0.78981(6) 0.51370(10) 0.22093(6)
H3_2 H 0.7437 0.5253 0.2497
H4_2 H 0.7769 0.4287 0.1904
C4_2 C 0.78805(6) 0.63438(9) 0.16757(5)
O5_2 O 0.85829(4) 0.70658(7) 0.17948(4)
O6_2 O 0.71915(4) 0.65469(7) 0.11589(4)
C5_2 C 0.89234(6) 0.37782(9) 0.31253(5)
H5_2 H 0.8792 0.302 0.275
H6_2 H 0.8538 0.3679 0.3485
C6_2 C 0.98989(6) 0.37381(9) 0.35681(5)
O16_2 O 0.96131(4) 0.47052(7) 0.15473(4)
O17_2 O 0.98446(5) 0.27445(7) 0.09946(4)
O18_2 O 0.84835(5) 0.90827(8) 0.07012(4)
O19_2 O 0.88617(5) 0.63575(8) 0.00955(4)
H17_2 H 0.8379(10) 0.9878(14) 0.0859(9)
H18_2 H 0.8521(11) 0.8591(14) 0.1073(8)
H19_2 H 0.9149(10) 0.6212(16) 0.0500(8)
O24_2 O 0.98446(5) 0.72555(7) 0.59946(4)
Na10_3 Na 0.750 0.750 0.000
Na3_2 Na 0.92666(2) 0.85886(4) 0.96788(2)
H20_2 H 0.8812(9) 0.5662(13) 0.9904(8)
O22_2 O 0.78085(4) 0.84531(7) 0.88411(4)
Na10_4 Na 0.750 0.750 1.000
O26_4 O 0.65165(5) 0.59173(8) 0.92988(4)
O27_4 O 0.61383(5) 0.86425(8) 0.99045(4)
H4_3 H 0.7231 0.0713 0.8096
C5_3 C 0.60766(6) 0.12218(9) 0.68747(5)
H5_3 H 0.6208 0.198 0.725
H6_3 H 0.6462 0.1321 0.6515
C6_3 C 0.51011(6) 0.12619(9) 0.64319(5)
O7_3 O 0.46131(4) 0.02948(7) 0.65473(4)
H14_3 H 0.2769 0.0713 0.6904
C11_3 C 0.39234(6) 0.12218(9) 0.81253(5)
H15_3 H 0.3792 0.198 0.775
H16_3 H 0.3538 0.1321 0.8485
C12_3 C 0.48989(6) 0.12619(9) 0.85681(5)
O16_3 O 0.53869(4) 0.02948(7) 0.84527(4)
H20_3 H 0.6188(9) 0.9338(13) 0.0096(8)
Y1_4 Y 0.500 0.85929(2) 0.750
O1_4 O 0.500 0.60915(9) 0.750
C1_3 C 0.53023(6) 0.53118(9) 0.69481(5)
H1_3 H 0.5874 0.4862 0.7195
H2_3 H 0.4861 0.4599 0.6726
C2_3 C 0.54237(6) 0.62725(9) 0.63214(5)
O2_3 O 0.53797(4) 0.75487(6) 0.64554(4)
O4_3 O 0.62453(4) 0.99487(6) 0.72667(4)
C3_3 C 0.71019(6) 0.98630(10) 0.77907(6)
H3_3 H 0.7563 0.9747 0.7503
C4_3 C 0.71195(6) 0.86562(9) 0.83243(5)
O5_3 O 0.64171(4) 0.79342(7) 0.82052(4)
H7_3 H 0.3379(10) 0.5122(14) 0.5859(9)
H8_3 H 0.3521(11) 0.6409(14) 0.6073(8)
H9_3 H 0.4149(10) 0.8788(16) 0.5500(8)
H10_3 H 0.3812(9) 0.9338(13) 0.4904(8)
C7_3 C 0.46977(6) 0.53118(9) 0.80519(5)
H11_3 H 0.4126 0.4862 0.7805
H12_3 H 0.5139 0.4599 0.8274
C8_3 C 0.45763(6) 0.62725(9) 0.86786(5)
O11_3 O 0.46203(4) 0.75487(6) 0.85446(4)
O13_3 O 0.37547(4) 0.99487(6) 0.77333(4)
C9_3 C 0.28981(6) 0.98630(10) 0.72093(6)
H13_3 H 0.2437 0.9747 0.7497
C10_3 C 0.28805(6) 0.86562(9) 0.66757(5)
O14_3 O 0.35829(4) 0.79342(7) 0.67948(4)
H17_3 H 0.6621(10) 0.5122(14) 0.9141(9)
H18_3 H 0.6479(11) 0.6409(14) 0.8927(8)
H19_3 H 0.5851(10) 0.8788(16) 0.9500(8)
H20_4 H 0.1188(9) 0.4338(13) 0.0096(8)
Y1_5 Y 0.000 0.35929(2) 0.750
O1_5 O 0.000 0.10915(9) 0.750
C1_4 C 0.03023(6) 0.03118(9) 0.69481(5)
C2_4 C 0.04237(6) 0.12725(9) 0.63214(5)
O2_4 O 0.03797(4) 0.25487(6) 0.64554(4)
O4_4 O 0.12453(4) 0.49487(6) 0.72667(4)
C3_4 C 0.21019(6) 0.48630(10) 0.77907(6)
H3_4 H 0.2563 0.4747 0.7503
H4_4 H 0.2231 0.5713 0.8096
C4_4 C 0.21195(6) 0.36562(9) 0.83243(5)
O5_4 O 0.14171(4) 0.29342(7) 0.82052(4)
C5_4 C 0.10766(6) 0.62218(9) 0.68747(5)
H5_4 H 0.1208 0.698 0.725
H6_4 H 0.1462 0.6321 0.6515
C6_4 C 0.01011(6) 0.62619(9) 0.64319(5)
O16_4 O 0.03869(4) 0.52948(7) 0.84527(4)
H17_4 H 0.1621(10) 0.0122(14) 0.9141(9)
H18_4 H 0.1479(11) 0.1409(14) 0.8927(8)
H19_4 H 0.0851(10) 0.3788(16) 0.9500(8)
H1_4 H 0.0874 0.9862 0.7195
H12_4 H 0.0139 0.9599 0.8274
Y1_6 Y 1.000 0.35929(2) 0.750
O1_6 O 1.000 0.10915(9) 0.750
O7_4 O 0.96131(4) 0.52948(7) 0.65473(4)
H7_4 H 0.8379(10) 0.0122(14) 0.5859(9)
H8_4 H 0.8521(11) 0.1409(14) 0.6073(8)
H9_4 H 0.9149(10) 0.3788(16) 0.5500(8)
H10_4 H 0.8812(9) 0.4338(13) 0.4904(8)
C7_4 C 0.96977(6) 0.03118(9) 0.80519(5)
C8_4 C 0.95763(6) 0.12725(9) 0.86786(5)
O11_4 O 0.96203(4) 0.25487(6) 0.85446(4)
O13_4 O 0.87547(4) 0.49487(6) 0.77333(4)
C9_4 C 0.78981(6) 0.48630(10) 0.72093(6)
H13_4 H 0.7437 0.4747 0.7497
H14_4 H 0.7769 0.5713 0.6904
C10_4 C 0.78805(6) 0.36562(9) 0.66757(5)
O14_4 O 0.85829(4) 0.29342(7) 0.67948(4)
C11_4 C 0.89234(6) 0.62218(9) 0.81253(5)
H15_4 H 0.8792 0.698 0.775
H16_4 H 0.8538 0.6321 0.8485
C12_4 C 0.98989(6) 0.62619(9) 0.85681(5)
H2_4 H 0.9861 0.9599 0.6726
H11_4 H 0.9126 0.9862 0.7805
loop_
_geom_bond_atom_site_label_1
_geom_bond_atom_site_label_2
_geom_bond_site_symmetry_1
_geom_bond_site_symmetry_2
Y1 O1 1_555 1_555
O1 C1 1_555 1_555
C1 H1 1_555 1_555
H2 C1 1_555 1_555
C2 C1 1_555 1_555
O2 Y1 1_555 1_555
O3 C2 1_555 1_555
O4 Y1 1_555 1_555
C3 O4 1_555 1_555
H3 C3 1_555 1_555
C4 C3 1_555 1_555
O5 Y1 1_555 1_555
O6 C4 1_555 1_555
Na1 O3 1_555 1_555
Na2 O9 1_555 1_555
O9 Na1 1_555 1_555
O10 Na1 1_555 1_555
H7 O9 1_555 1_555
H8 O9 1_555 1_555
H9 O10 1_555 1_555
H10 O10 1_555 1_555
C7 O1 1_555 1_555
H11 C7 1_555 1_555
H12 C7 1_555 1_555
C8 C7 1_555 1_555
O11 Y1 1_555 1_555
O12 C8 1_555 1_555
O13 Y1 1_555 1_555
C9 O13 1_555 1_555
H13 C9 1_555 1_555
C10 C9 1_555 1_555
O14 Y1 1_555 1_555
O15 Na2 1_555 1_555
H17 O18 1_555 1_555
H18 O18 1_555 1_555
H19 O19 1_555 1_555
O20 Na1 1_555 1_555
O23 Na1 1_555 1_555
O24 Na1 1_555 1_555
Na5 O3 1_555 1_555
Na7 O12 1_555 1_555
Na8 O15 1_555 1_555
Na9 O6 1_555 1_555
Na10 O6 1_555 1_555
O26 Na2 1_555 1_555
O27 Na2 1_555 1_555
C2 O2 1_555 1_555
C4 O5 1_555 1_555
Na2 O10 1_555 1_555
Na2 O23 1_555 1_555
C8 O11 1_555 1_555
C10 O14 1_555 1_555
C10 O15 1_555 1_555
O18 Na10 1_555 1_555
O19 Na10 1_555 1_555
O20 Na5 1_555 1_555
Na8 O26 1_555 1_555
Na8 O27 1_555 1_555
O21 Na3 1_555 1_555
O22 Na3 1_555 1_555
O25 Na3 1_555 1_555
O22 Na10_2 1_555 1_555
H5 C5 1_555 1_555
H6 C5 1_555 1_555
C6 C5 1_555 1_555
O8 C6 1_555 1_555
H15 C11 1_555 1_555
H16 C11 1_555 1_555
C12 C11 1_555 1_555
O17 C12 1_555 1_555
Na5 O8 1_555 1_555
Na7 O17 1_555 1_555
C6 O7 1_555 1_555
C12 O16 1_555 1_555
O26_2 Na10_2 1_555 1_555
O27_2 Na10_2 1_555 1_555
Y1_2 O1_2 1_555 1_555
O7_2 Y1_2 1_555 1_555
Na2_2 O9_2 1_555 1_555
O9_2 Na1_2 1_555 1_555
O10_2 Na1_2 1_555 1_555
H7_2 O9_2 1_555 1_555
H8_2 O9_2 1_555 1_555
H9_2 O10_2 1_555 1_555
H10_2 O10_2 1_555 1_555
C7_2 O1_2 1_555 1_555
C8_2 C7_2 1_555 1_555
O11_2 Y1_2 1_555 1_555
O12_2 C8_2 1_555 1_555
O13_2 Y1_2 1_555 1_555
C9_2 O13_2 1_555 1_555
H13_2 C9_2 1_555 1_555
H14_2 C9_2 1_555 1_555
C10_2 C9_2 1_555 1_555
O14_2 Y1_2 1_555 1_555
O15_2 Na2_2 1_555 1_555
C11_2 O13_2 1_555 1_555
H15_2 C11_2 1_555 1_555
H16_2 C11_2 1_555 1_555
C12_2 C11_2 1_555 1_555
O23_2 Na1_2 1_555 1_555
Na5 O15_2 1_555 1_555
O26_3 Na2_2 1_555 1_555
O27_3 Na2_2 1_555 1_555
Na2_2 O10_2 1_555 1_555
Na2_2 O23_2 1_555 1_555
C8_2 O11_2 1_555 1_555
C10_2 O14_2 1_555 1_555
C10_2 O15_2 1_555 1_555
Na5 O26_3 1_555 1_555
Na5 O27_3 1_555 1_555
Y1_3 O1_3 1_555 1_555
O1_3 C1_2 1_555 1_555
C2_2 C1_2 1_555 1_555
O2_2 Y1_3 1_555 1_555
O3_2 C2_2 1_555 1_555
O4_2 Y1_3 1_555 1_555
C3_2 O4_2 1_555 1_555
H3_2 C3_2 1_555 1_555
H4_2 C3_2 1_555 1_555
C4_2 C3_2 1_555 1_555
O5_2 Y1_3 1_555 1_555
O6_2 C4_2 1_555 1_555
C5_2 O4_2 1_555 1_555
H5_2 C5_2 1_555 1_555
H6_2 C5_2 1_555 1_555
C6_2 C5_2 1_555 1_555
O16_2 Y1_3 1_555 1_555
H17_2 O18_2 1_555 1_555
H18_2 O18_2 1_555 1_555
H19_2 O19_2 1_555 1_555
Na7 O6_2 1_555 1_555
Na10_3 O6_2 1_555 1_555
C2_2 O2_2 1_555 1_555
C4_2 O5_2 1_555 1_555
O18_2 Na10_3 1_555 1_555
O19_2 Na10_3 1_555 1_555
O22_2 Na3_2 1_555 1_555
O22_2 Na10_4 1_555 1_555
O26_4 Na10_4 1_555 1_555
O27_4 Na10_4 1_555 1_555
H5_3 C5_3 1_555 1_555
H6_3 C5_3 1_555 1_555
C6_3 C5_3 1_555 1_555
O24 C6_3 1_555 1_555
H15_3 C11_3 1_555 1_555
H16_3 C11_3 1_555 1_555
C12_3 C11_3 1_555 1_555
O25 C12_3 1_555 1_555
C6_3 O7_3 1_555 1_555
C12_3 O16_3 1_555 1_555
Y1_4 O1_4 1_555 1_555
O1_4 C1_3 1_555 1_555
C1_3 H1_3 1_555 1_555
H2_3 C1_3 1_555 1_555
C2_3 C1_3 1_555 1_555
O2_3 Y1_4 1_555 1_555
O20 C2_3 1_555 1_555
O4_3 Y1_4 1_555 1_555
C3_3 O4_3 1_555 1_555
H3_3 C3_3 1_555 1_555
C4_3 C3_3 1_555 1_555
O5_3 Y1_4 1_555 1_555
O22_2 C4_3 1_555 1_555
H7_3 O26_3 1_555 1_555
H8_3 O26_3 1_555 1_555
H9_3 O27_3 1_555 1_555
H10_3 O27_3 1_555 1_555
C7_3 O1_4 1_555 1_555
H11_3 C7_3 1_555 1_555
H12_3 C7_3 1_555 1_555
C8_3 C7_3 1_555 1_555
O11_3 Y1_4 1_555 1_555
O21 C8_3 1_555 1_555
O13_3 Y1_4 1_555 1_555
C9_3 O13_3 1_555 1_555
H13_3 C9_3 1_555 1_555
C10_3 C9_3 1_555 1_555
O14_3 Y1_4 1_555 1_555
H17_3 O26_4 1_555 1_555
H18_3 O26_4 1_555 1_555
H19_3 O27_4 1_555 1_555
C2_3 O2_3 1_555 1_555
C4_3 O5_3 1_555 1_555
C8_3 O11_3 1_555 1_555
C10_3 O14_3 1_555 1_555
C10_3 O23_2 1_555 1_555
Y1_5 O1_5 1_555 1_555
O1_5 C1_4 1_555 1_555
C2_4 C1_4 1_555 1_555
O2_4 Y1_5 1_555 1_555
O20_2 C2_4 1_555 1_555
O4_4 Y1_5 1_555 1_555
C3_4 O4_4 1_555 1_555
H3_4 C3_4 1_555 1_555
H4_4 C3_4 1_555 1_555
C4_4 C3_4 1_555 1_555
O5_4 Y1_5 1_555 1_555
O22 C4_4 1_555 1_555
C5_4 O4_4 1_555 1_555
H5_4 C5_4 1_555 1_555
H6_4 C5_4 1_555 1_555
C6_4 C5_4 1_555 1_555
O16_4 Y1_5 1_555 1_555
H17_4 O26_2 1_555 1_555
H18_4 O26_2 1_555 1_555
H19_4 O27_2 1_555 1_555
C2_4 O2_4 1_555 1_555
C4_4 O5_4 1_555 1_555
Y1_6 O1_6 1_555 1_555
O7_4 Y1_6 1_555 1_555
H7_4 O26 1_555 1_555
H8_4 O26 1_555 1_555
H9_4 O27 1_555 1_555
H10_4 O27 1_555 1_555
C7_4 O1_6 1_555 1_555
C8_4 C7_4 1_555 1_555
O11_4 Y1_6 1_555 1_555
O21_2 C8_4 1_555 1_555
O13_4 Y1_6 1_555 1_555
C9_4 O13_4 1_555 1_555
H13_4 C9_4 1_555 1_555
H14_4 C9_4 1_555 1_555
C10_4 C9_4 1_555 1_555
O14_4 Y1_6 1_555 1_555
C11_4 O13_4 1_555 1_555
H15_4 C11_4 1_555 1_555
H16_4 C11_4 1_555 1_555
C12_4 C11_4 1_555 1_555
C8_4 O11_4 1_555 1_555
C10_4 O14_4 1_555 1_555
C10_4 O23 1_555 1_555

#END
