
###############################################################################
#
# This file contains modified crystal structure data generated from the
# MOF subset of the Cambridge Structural Database (CSD) v543 
# hosted by the Cambridge Crystallographic Data Centre (CCDC).
#
# This work is licensed under the Creative Commons
# Attribution-NonCommercial-ShareAlike 4.0 International License.
# To view a copy of this license, visit
# http://creativecommons.org/licenses/by-nc-sa/4.0/
# or send a letter to
# Creative Commons, PO Box 1866, Mountain View, CA 94042, USA.
#
# CIF created using the CSD Python API on 29 September 2022
# The structure has been converted into the P1 space group
# The structure has a 3D framework
# The original CSD entry WECYAH is in the triclinic crystal system
# The framework has been calculated to contain at least 10.0% void space
# The void calculation uses a probe of radius 1.32A, grid spacing 0.4
#
###############################################################################

data_WECYAH
_chemical_formula_moiety         '(C130 H88 N16 Ni4 O26)n'
_symmetry_cell_setting           triclinic
_symmetry_space_group_name_H-M   'P 1'
_symmetry_Int_Tables_number      1
_space_group_name_Hall           'P 1'
loop_
_symmetry_equiv_pos_site_id
_symmetry_equiv_pos_as_xyz
1 x,y,z
_cell_length_a                   10.1996(3)
_cell_length_b                   14.8778(5)
_cell_length_c                   24.9089(7)
_cell_angle_alpha                90.7630(10)
_cell_angle_beta                 93.2890(10)
_cell_angle_gamma                99.624(2)
_cell_volume                     3719.52
loop_
_atom_site_label
_atom_site_type_symbol
_atom_site_fract_x
_atom_site_fract_y
_atom_site_fract_z
C34 C 0.0392(4) 0.4174(3) 0.00910(16)
C37 C 0.1346(4) 0.4926(3) -0.00003(15)
H24 H 0.0656 0.3614 0.0152
O10 O 0.3086(3) 0.4080(2) 0.01190(10)
Ni4 Ni 0.47698(5) 0.35542(4) 0.01254(2)
C33 C 0.0951(4) 0.5762(3) 0.99068(16)
C37_2 C 0.1346(4) 0.4926(3) 0.99997(15)
H23 H 0.1578 0.6273 0.9844
C39 C 0.2793(4) 0.4835(3) 0.99874(14)
O9 O 0.3566(3) 0.5485(2) 0.98132(12)
Ni3 Ni 0.52302(5) 0.64458(4) 0.98746(2)
O1 O 0.6434(3) 0.4515(2) 0.01868(12)
O2 O 0.5936(3) 0.24797(19) 0.01673(10)
O3 O 0.3752(3) 0.2176(2) 0.00923(11)
N2 N 0.4798(4) 0.3568(2) 0.09606(13)
C1 C 0.7207(4) 0.5165(3) 0.00126(14)
C2 C 0.4871(5) 0.1916(3) 0.01136(15)
C5 C 0.8654(4) 0.5074(3) 0.00003(15)
C6 C 0.4921(5) 0.0918(3) 0.00631(16)
C10 C 0.9049(4) 0.4238(3) 0.00932(16)
C12 C 0.6131(5) 0.0614(3) 0.01412(17)
H6 H 0.8422 0.3727 0.0156
H8 H 0.6899 0.1031 0.0236
N1 N 0.4840(4) 0.3532(2) 0.92873(13)
C3 C 0.5875(5) 0.3285(4) 0.90558(18)
C4 C 0.3893(6) 0.3720(4) 0.89483(18)
C5_2 C 0.8654(4) 0.5074(3) 1.00003(15)
C7 C 0.5963(6) 0.3212(4) 0.85123(19)
H1 H 0.6581 0.3155 0.9278
C8 C 0.3914(6) 0.3683(4) 0.8402(2)
H2 H 0.3149 0.3892 0.9093
C9 C 0.9608(4) 0.5826(3) 0.99090(16)
C11 C 0.3791(5) 0.0293(3) 0.99191(18)
H3 H 0.6697 0.3013 0.8375
C13 C 0.4979(5) 0.3431(4) 0.81708(17)
H4 H 0.3205 0.3830 0.8188
H5 H 0.9344 0.6386 0.9848
H7 H 0.2975 0.0488 0.9863
N3 N 0.5098(4) 0.3361(3) 0.76177(14)
C14 C 0.4251(6) 0.3591(4) 0.72089(19)
H9 H 0.5782 0.3149 0.7519
O5 O 0.3225(4) 0.3835(3) 0.72885(13)
C15 C 0.4726(5) 0.3488(3) 0.66550(17)
C16 C 0.3750(5) 0.3317(3) 0.62351(17)
C17 C 0.6031(5) 0.3534(4) 0.65457(18)
H10 H 0.2859 0.3294 0.6304
C18 C 0.4101(5) 0.3180(3) 0.57137(17)
H11 H 0.6683 0.3632 0.6827
C19 C 0.6403(5) 0.3436(3) 0.60272(17)
C20 C 0.5413(5) 0.3245(3) 0.56161(15)
H12 H 0.3448 0.3046 0.5435
H13 H 0.7298 0.3497 0.5955
O6 O 0.5914(3) 0.3047(2) 0.51292(11)
C21 C 0.5355(5) 0.3202(3) 0.46301(17)
C22 C 0.5836(6) 0.2726(3) 0.42241(18)
C23 C 0.4524(6) 0.3812(4) 0.45160(19)
H14 H 0.6410 0.2316 0.4306
C24 C 0.5453(6) 0.2867(4) 0.37007(19)
C25 C 0.4145(6) 0.3944(5) 0.3983(2)
H15 H 0.4215 0.4134 0.4791
H16 H 0.5776 0.2551 0.3427
C26 C 0.4605(6) 0.3462(4) 0.35729(18)
H17 H 0.3579 0.4359 0.3900
C27 C 0.4174(7) 0.3647(5) 0.3002(2)
N4 N 0.5079(5) 0.3512(3) 0.26362(15)
O7 O 0.3128(5) 0.3887(4) 0.28770(15)
H18 H 0.5825 0.3386 0.2766
C28 C 0.4931(6) 0.3555(4) 0.20820(18)
C29 C 0.6042(6) 0.3622(4) 0.17974(19)
C30 C 0.3732(6) 0.3452(5) 0.1791(2)
C31 C 0.5954(5) 0.3641(4) 0.12465(18)
H19 H 0.6872 0.3655 0.1979
C32 C 0.3729(5) 0.3471(4) 0.12327(19)
H20 H 0.2937 0.3372 0.1963
H21 H 0.6736 0.3708 0.1065
H22 H 0.2909 0.3410 0.1040
O8 O 0.6914(3) 0.5920(2) 0.98810(10)
C36 C 0.6209(5) 0.9707(3) 0.00809(18)
H26 H 0.7025 0.9512 0.0137
N5 N 0.5160(4) 0.6468(2) 0.07127(13)
C41 C 0.4125(5) 0.6715(4) 0.09442(18)
C42 C 0.6107(6) 0.6280(4) 0.10517(18)
C43 C 0.4037(6) 0.6788(4) 0.14877(19)
H27 H 0.3419 0.6845 0.0722
C44 C 0.6086(6) 0.6317(4) 0.1598(2)
H28 H 0.6851 0.6108 0.0907
H29 H 0.3303 0.6987 0.1625
C45 C 0.5021(5) 0.6569(4) 0.18292(17)
H30 H 0.6795 0.6170 0.1812
N7 N 0.4902(4) 0.6639(3) 0.23823(14)
C46 C 0.5749(6) 0.6409(4) 0.27911(19)
H31 H 0.4218 0.6851 0.2481
O15 O 0.6775(4) 0.6165(3) 0.27115(13)
C47 C 0.5274(5) 0.6512(3) 0.33450(17)
C48 C 0.6250(5) 0.6683(3) 0.37649(17)
C49 C 0.3969(5) 0.6466(4) 0.34543(18)
H32 H 0.7141 0.6706 0.3696
C50 C 0.5899(5) 0.6820(3) 0.42863(17)
H33 H 0.3317 0.6368 0.3173
C51 C 0.3597(5) 0.6564(3) 0.39728(17)
C52 C 0.4587(5) 0.6755(3) 0.43839(15)
H34 H 0.6552 0.6954 0.4565
H35 H 0.2702 0.6503 0.4045
O16 O 0.4086(3) 0.6953(2) 0.48708(11)
C53 C 0.4645(5) 0.6798(3) 0.53699(17)
C54 C 0.4164(6) 0.7274(3) 0.57759(18)
C55 C 0.5476(6) 0.6188(4) 0.54840(19)
H36 H 0.3590 0.7684 0.5694
C56 C 0.4547(6) 0.7133(4) 0.62993(19)
C57 C 0.5855(6) 0.6056(5) 0.6017(2)
H37 H 0.5785 0.5866 0.5209
H38 H 0.4224 0.7449 0.6573
C58 C 0.5395(6) 0.6538(4) 0.64271(18)
H39 H 0.6421 0.5641 0.6100
C59 C 0.5826(7) 0.6353(5) 0.6998(2)
N9 N 0.4921(5) 0.6488(3) 0.73638(15)
O17 O 0.6872(5) 0.6113(4) 0.71230(15)
H40 H 0.4175 0.6614 0.7234
C60 C 0.5069(6) 0.6445(4) 0.79180(18)
C61 C 0.3958(6) 0.6378(4) 0.82026(19)
C62 C 0.6268(6) 0.6548(5) 0.8209(2)
C63 C 0.4046(5) 0.6359(4) 0.87535(18)
H41 H 0.3128 0.6345 0.8021
C64 C 0.6271(5) 0.6529(4) 0.87673(19)
H42 H 0.7063 0.6628 0.8037
N10 N 0.5202(4) 0.6432(2) 0.90394(13)
H43 H 0.3264 0.6292 0.8935
H44 H 0.7091 0.6590 0.8960
C35 C 0.3869(5) 0.9386(3) 0.98588(17)
C38 C 0.5079(5) 0.9082(3) 0.99369(16)
H25 H 0.3101 0.8969 0.9764
C40 C 0.5129(5) 0.8084(3) 0.98864(15)
O11 O 0.4064(3) 0.75203(19) 0.98327(10)
O12 O 0.6248(3) 0.7824(2) 0.99077(11)
Ni11 Ni 0.02632(5) 0.14500(4) 0.50948(2)
N11 N 0.0161(4) 0.1326(2) 0.42617(13)
C68 C 0.0656(7) 0.1213(5) 0.2206(2)
C76 C 0.0403(6) 0.1178(4) 0.06914(19)
H51 H 0.0765 0.0900 0.0412
C81 C 0.0214(6) 0.1393(4) 0.16439(18)
C82 C 0.0749(6) 0.1003(5) 0.1220(2)
H55 H 0.1357 0.0612 0.1291
C83 C 0.1215(5) 0.1440(4) 0.39704(18)
H56 H 0.2049 0.1530 0.4153
O22 O 0.1727(5) 0.1016(4) 0.23191(14)
C95 C 0.1174(5) 0.1436(4) 0.34158(18)
H66 H 0.1955 0.1526 0.3234
O18 O 0.1955(3) 0.09209(19) 0.51683(10)
N12 N 0.0261(4) 0.1607(2) 0.59302(12)
C65 C 0.2211(4) 0.0176(3) 0.50007(14)
C66 C 0.0786(6) 0.1584(4) 0.80075(19)
O21 O 0.1270(3) 0.28295(19) 0.50407(11)
C73 C 0.1121(6) 0.1379(4) 0.68222(18)
H49 H 0.1760 0.1161 0.7042
C77 C 0.1210(5) 0.4724(3) 0.51031(17)
H52 H 0.2027 0.4536 0.5173
C80 C 0.0136(5) 0.1748(3) 0.70458(17)
C84 C 0.4642(4) 0.0832(3) 0.51158(17)
H57 H 0.4406 0.1395 0.5192
C85 C 0.0075(5) 0.4080(3) 0.49956(16)
C88 C 0.0292(5) 0.1662(3) 0.85546(17)
C89 C 0.1170(5) 0.1329(3) 0.62681(18)
H61 H 0.1866 0.1092 0.6125
C90 C 0.0857(5) 0.1868(3) 0.95079(17)
H63 H 0.1491 0.1956 0.9796
C91 C 0.3660(4) 0.0083(3) 0.50013(15)
C94 C 0.1241(5) 0.1785(4) 0.89907(18)
H65 H 0.2138 0.1811 0.8930
O23 O 0.1828(5) 0.1344(4) 0.79363(13)
C96 C 0.0146(5) 0.3078(3) 0.50048(15)
O26 O 0.8622(3) 0.0490(2) 0.51760(11)
C98 C 0.5974(5) 0.0749(3) 0.51185(17)
H67 H 0.6627 0.1255 0.5201
C101 C 0.1137(5) 0.5642(3) 0.51069(17)
H69 H 0.1903 0.6071 0.5178
O28 O 0.0912(3) 0.74840(19) 0.50031(10)
O30 O 0.1378(3) 0.9510(2) 0.48240(11)
C107 C 0.1012(5) 0.8376(4) 0.13494(18)
H71 H 0.1647 0.8446 0.1637
C108 C 0.0449(5) 0.8180(3) 0.04062(16)
C109 C 0.0786(5) 0.7942(4) 0.33009(18)
H72 H 0.1466 0.7673 0.3168
C117 C 0.1415(5) 0.8313(3) 0.08296(17)
H74 H 0.2313 0.8358 0.0766
C124 C 0.0686(5) 0.8035(4) 0.38446(18)
N20 N 0.0019(4) 0.8170(3) 0.24023(14)
H76 H 0.0695 0.7940 0.2311
H88 H 0.1326 0.7832 0.4071
C74 C 0.4026(5) 0.9251(3) 0.48815(17)
H50 H 0.3373 0.8745 0.4799
O25 O 0.8045(3) 0.90791(19) 0.48317(10)
C97 C 0.7789(4) 0.9824(3) 0.49993(14)
C99 C 0.5358(4) 0.9168(3) 0.48842(17)
H68 H 0.5594 0.8605 0.4808
C100 C 0.6340(4) 0.9917(3) 0.49987(15)
Ni13 Ni 0.97368(5) 0.85500(4) 0.49052(2)
C67 C 0.9214(5) 0.2058(4) 0.66991(18)
H45 H 0.8534 0.2327 0.6832
C69 C 0.8585(5) 0.1687(3) 0.91704(17)
H46 H 0.7687 0.1642 0.9234
C70 C 0.8988(5) 0.1624(4) 0.86506(18)
H47 H 0.8353 0.1554 0.8363
C72 C 0.8863(5) 0.4358(3) 0.48931(17)
H48 H 0.8097 0.3929 0.4822
C79 C 0.9314(5) 0.1965(4) 0.61554(18)
H54 H 0.8674 0.2168 0.5929
N14 N 0.9981(4) 0.1830(3) 0.75977(14)
H62 H 0.9305 0.2060 0.7689
C92 C 0.9551(5) 0.1820(3) 0.95938(16)
O24 O 0.9088(3) 0.25160(19) 0.49969(10)
O27 O 0.8730(3) 0.71705(19) 0.49593(11)
C102 C 0.8790(5) 0.5276(3) 0.48969(17)
H70 H 0.7973 0.5464 0.4827
C103 C 0.9925(5) 0.5920(3) 0.50044(16)
C104 C 0.9854(5) 0.6922(3) 0.49952(15)
N16 N 0.9739(4) 0.8393(2) 0.40698(12)
N17 N 0.9839(4) 0.8674(2) 0.57383(13)
C113 C 0.8879(6) 0.8621(4) 0.31778(18)
C114 C 0.8830(5) 0.8671(3) 0.37319(18)
C116 C 0.9214(6) 0.8416(4) 0.19925(19)
O33 O 0.8172(5) 0.8656(4) 0.20637(13)
C118 C 0.9708(5) 0.8338(3) 0.14454(17)
C121 C 0.9864(5) 0.8252(3) 0.29542(17)
H75 H 0.8240 0.8839 0.2958
C125 C 0.8759(5) 0.8215(4) 0.10093(18)
H77 H 0.8134 0.8908 0.3875
C126 C 0.9143(5) 0.8132(3) 0.04921(17)
H82 H 0.8509 0.8044 0.0204
H85 H 0.7862 0.8189 0.1070
C105 C 0.9344(7) 0.8787(5) 0.7794(2)
C106 C 0.9786(6) 0.8607(4) 0.83561(18)
C111 C 0.9597(6) 0.8822(4) 0.93086(19)
C112 C 0.8785(5) 0.8560(4) 0.60296(18)
H73 H 0.9235 0.9100 0.9588
C122 C 0.8826(5) 0.8564(4) 0.65842(18)
O34 O 0.8273(5) 0.8984(4) 0.76809(14)
H83 H 0.8045 0.8474 0.6766
C128 C 0.9251(6) 0.8997(5) 0.8780(2)
H84 H 0.8643 0.9388 0.8709
H87 H 0.7951 0.8470 0.5847
O32 O 0.0959(3) 0.8029(2) 0.99145(11)
C110 C 0.0464(5) 0.8243(3) 0.94170(17)
C115 C 0.1043(6) 0.7876(3) 0.90085(18)
C119 C 0.0067(6) 0.8707(4) 0.68645(18)
C120 C 0.1175(5) 0.8796(3) 0.65675(18)
C123 C 0.1023(5) 0.8777(3) 0.60174(17)
N19 N 0.0258(5) 0.8696(3) 0.74224(15)
C127 C 0.0708(6) 0.8065(4) 0.84772(18)
H78 H 0.1120 0.7817 0.8201
H79 H 0.1665 0.7497 0.9084
H80 H 0.2021 0.8868 0.6739
H81 H 0.1036 0.8624 0.7548
H86 H 0.1787 0.8841 0.5825
O20 O 0.9041(3) 0.1971(2) 0.00855(11)
C71 C 0.9933(6) 0.1293(4) 0.31355(18)
C75 C 0.9536(5) 0.1757(3) 0.05830(17)
C78 C 0.8825(5) 0.1204(3) 0.34325(18)
H53 H 0.7979 0.1132 0.3261
C86 C 0.8957(6) 0.2124(3) 0.09915(18)
H58 H 0.8335 0.2503 0.0916
C87 C 0.8977(5) 0.1223(3) 0.39826(17)
H59 H 0.8213 0.1159 0.4175
N13 N 0.9742(5) 0.1304(3) 0.25776(15)
H60 H 0.8964 0.1376 0.2452
C93 C 0.9292(6) 0.1935(4) 0.15228(18)
H64 H 0.8880 0.2183 0.1799
loop_
_geom_bond_atom_site_label_1
_geom_bond_atom_site_label_2
_geom_bond_site_symmetry_1
_geom_bond_site_symmetry_2
H24 C34 1_555 1_555
Ni4 O10 1_555 1_555
C34 C37 1_555 1_555
C37_2 C33 1_555 1_555
H23 C33 1_555 1_555
C39 C37_2 1_555 1_555
O9 C39 1_555 1_555
Ni3 O9 1_555 1_555
Ni4 O1 1_555 1_555
O1 C1 1_555 1_555
O2 Ni4 1_555 1_555
O3 Ni4 1_555 1_555
N2 Ni4 1_555 1_555
C1 C5 1_555 1_555
C2 O2 1_555 1_555
C6 C2 1_555 1_555
C10 C5 1_555 1_555
C12 C6 1_555 1_555
H6 C10 1_555 1_555
H8 C12 1_555 1_555
O3 C2 1_555 1_555
C3 N1 1_555 1_555
C4 N1 1_555 1_555
C5_2 C9 1_555 1_555
C7 C3 1_555 1_555
H1 C3 1_555 1_555
C8 C4 1_555 1_555
H2 C4 1_555 1_555
C9 H5 1_555 1_555
H3 C7 1_555 1_555
C13 C7 1_555 1_555
H4 C8 1_555 1_555
H7 C11 1_555 1_555
N3 C13 1_555 1_555
C14 N3 1_555 1_555
H9 N3 1_555 1_555
O5 C14 1_555 1_555
C15 C14 1_555 1_555
C16 C15 1_555 1_555
C17 C15 1_555 1_555
H10 C16 1_555 1_555
C18 C16 1_555 1_555
H11 C17 1_555 1_555
C19 C17 1_555 1_555
C20 C18 1_555 1_555
H12 C18 1_555 1_555
H13 C19 1_555 1_555
O6 C20 1_555 1_555
C21 O6 1_555 1_555
C22 C21 1_555 1_555
C23 C21 1_555 1_555
H14 C22 1_555 1_555
C24 C22 1_555 1_555
C25 C23 1_555 1_555
H15 C23 1_555 1_555
H16 C24 1_555 1_555
C26 C24 1_555 1_555
H17 C25 1_555 1_555
C27 C26 1_555 1_555
N4 C27 1_555 1_555
O7 C27 1_555 1_555
H18 N4 1_555 1_555
C28 N4 1_555 1_555
C29 C28 1_555 1_555
C30 C28 1_555 1_555
C31 C29 1_555 1_555
H19 C29 1_555 1_555
C32 C30 1_555 1_555
H20 C30 1_555 1_555
H21 C31 1_555 1_555
H22 C32 1_555 1_555
Ni3 O8 1_555 1_555
N2 C31 1_555 1_555
C8 C13 1_555 1_555
C19 C20 1_555 1_555
C25 C26 1_555 1_555
C32 N2 1_555 1_555
H26 C36 1_555 1_555
C41 N5 1_555 1_555
C42 N5 1_555 1_555
C43 C41 1_555 1_555
H27 C41 1_555 1_555
C44 C42 1_555 1_555
H28 C42 1_555 1_555
H29 C43 1_555 1_555
C45 C43 1_555 1_555
H30 C44 1_555 1_555
N7 C45 1_555 1_555
C46 N7 1_555 1_555
H31 N7 1_555 1_555
O15 C46 1_555 1_555
C47 C46 1_555 1_555
C48 C47 1_555 1_555
C49 C47 1_555 1_555
H32 C48 1_555 1_555
C50 C48 1_555 1_555
H33 C49 1_555 1_555
C51 C49 1_555 1_555
C52 C50 1_555 1_555
H34 C50 1_555 1_555
H35 C51 1_555 1_555
O16 C52 1_555 1_555
C53 O16 1_555 1_555
C54 C53 1_555 1_555
C55 C53 1_555 1_555
H36 C54 1_555 1_555
C56 C54 1_555 1_555
C57 C55 1_555 1_555
H37 C55 1_555 1_555
H38 C56 1_555 1_555
C58 C56 1_555 1_555
H39 C57 1_555 1_555
C59 C58 1_555 1_555
N9 C59 1_555 1_555
O17 C59 1_555 1_555
H40 N9 1_555 1_555
C60 N9 1_555 1_555
C61 C60 1_555 1_555
C62 C60 1_555 1_555
C63 C61 1_555 1_555
H41 C61 1_555 1_555
C64 C62 1_555 1_555
H42 C62 1_555 1_555
N10 C63 1_555 1_555
H43 C63 1_555 1_555
H44 C64 1_555 1_555
Ni3 N10 1_555 1_555
C44 C45 1_555 1_555
C51 C52 1_555 1_555
C57 C58 1_555 1_555
C64 N10 1_555 1_555
C38 C35 1_555 1_555
H25 C35 1_555 1_555
C40 C38 1_555 1_555
O11 C40 1_555 1_555
O12 C40 1_555 1_555
Ni3 O11 1_555 1_555
O12 Ni3 1_555 1_555
N11 C83 1_555 1_555
C68 C81 1_555 1_555
C76 H51 1_555 1_555
C81 C82 1_555 1_555
C82 C76 1_555 1_555
H55 C82 1_555 1_555
C83 H56 1_555 1_555
O22 C68 1_555 1_555
H66 C95 1_555 1_555
Ni11 N11 1_555 1_555
C83 C95 1_555 1_555
Ni11 O18 1_555 1_555
O18 C65 1_555 1_555
N12 Ni11 1_555 1_555
C65 C91 1_555 1_555
C66 C88 1_555 1_555
O21 Ni11 1_555 1_555
C73 H49 1_555 1_555
C77 H52 1_555 1_555
C84 H57 1_555 1_555
C89 N12 1_555 1_555
H61 C89 1_555 1_555
C90 H63 1_555 1_555
C94 C88 1_555 1_555
H65 C94 1_555 1_555
O23 C66 1_555 1_555
C96 O21 1_555 1_555
C98 C84 1_555 1_555
H67 C98 1_555 1_555
C101 C77 1_555 1_555
H69 C101 1_555 1_555
C107 H71 1_555 1_555
C108 C117 1_555 1_555
C109 H72 1_555 1_555
C117 C107 1_555 1_555
H74 C117 1_555 1_555
H76 N20 1_555 1_555
H88 C124 1_555 1_555
C73 C80 1_555 1_555
C73 C89 1_555 1_555
C77 C85 1_555 1_555
C84 C91 1_555 1_555
C85 C96 1_555 1_555
C90 C94 1_555 1_555
C109 C124 1_555 1_555
C74 H50 1_555 1_555
O25 C97 1_555 1_555
C97 C100 1_555 1_555
C99 C74 1_555 1_555
H68 C99 1_555 1_555
Ni13 O25 1_555 1_555
C99 C100 1_555 1_555
C67 H45 1_555 1_555
C69 H46 1_555 1_555
C70 C69 1_555 1_555
H47 C70 1_555 1_555
C72 H48 1_555 1_555
H54 C79 1_555 1_555
H62 N14 1_555 1_555
O27 C104 1_555 1_555
C102 C72 1_555 1_555
H70 C102 1_555 1_555
C104 C103 1_555 1_555
Ni13 O27 1_555 1_555
N16 Ni13 1_555 1_555
N17 Ni13 1_555 1_555
C113 C114 1_555 1_555
C114 N16 1_555 1_555
C116 O33 1_555 1_555
H75 C113 1_555 1_555
C125 C118 1_555 1_555
H77 C114 1_555 1_555
H82 C126 1_555 1_555
H85 C125 1_555 1_555
C67 C79 1_555 1_555
C69 C92 1_555 1_555
C102 C103 1_555 1_555
C113 C121 1_555 1_555
C116 C118 1_555 1_555
C125 C126 1_555 1_555
C105 C106 1_555 1_555
N17 C112 1_555 1_555
C112 C122 1_555 1_555
H73 C111 1_555 1_555
O34 C105 1_555 1_555
H83 C122 1_555 1_555
C128 C106 1_555 1_555
H84 C128 1_555 1_555
H87 C112 1_555 1_555
C111 C128 1_555 1_555
C110 O32 1_555 1_555
C115 C110 1_555 1_555
C119 C120 1_555 1_555
C120 C123 1_555 1_555
C127 C115 1_555 1_555
H78 C127 1_555 1_555
H79 C115 1_555 1_555
H80 C120 1_555 1_555
H81 N19 1_555 1_555
H86 C123 1_555 1_555
C119 N19 1_555 1_555
O20 C75 1_555 1_555
C71 C78 1_555 1_555
C78 H53 1_555 1_555
C86 C75 1_555 1_555
H58 C86 1_555 1_555
H59 C87 1_555 1_555
H60 N13 1_555 1_555
H64 C93 1_555 1_555
C71 N13 1_555 1_555
C78 C87 1_555 1_555
C86 C93 1_555 1_555

#END
