
###############################################################################
#
# This file contains modified crystal structure data generated from the
# MOF subset of the Cambridge Structural Database (CSD) v543 
# hosted by the Cambridge Crystallographic Data Centre (CCDC).
#
# This work is licensed under the Creative Commons
# Attribution-NonCommercial-ShareAlike 4.0 International License.
# To view a copy of this license, visit
# http://creativecommons.org/licenses/by-nc-sa/4.0/
# or send a letter to
# Creative Commons, PO Box 1866, Mountain View, CA 94042, USA.
#
# CIF created using the CSD Python API on 29 September 2022
# The structure has been converted into the P1 space group
# The structure has a 3D framework
# The original CSD entry WEDSIL is in the triclinic crystal system
# The framework has been calculated to contain at least 10.0% void space
# The void calculation uses a probe of radius 1.32A, grid spacing 0.4
#
###############################################################################

data_WEDSIL
_chemical_formula_moiety         '(C30 H20 Er2 N16 O16)n'
_symmetry_cell_setting           triclinic
_symmetry_space_group_name_H-M   'P 1'
_symmetry_Int_Tables_number      1
_space_group_name_Hall           'P 1'
loop_
_symmetry_equiv_pos_site_id
_symmetry_equiv_pos_as_xyz
1 x,y,z
_cell_length_a                   8.9555(7)
_cell_length_b                   9.4191(7)
_cell_length_c                   15.4553(12)
_cell_angle_alpha                75.154(7)
_cell_angle_beta                 77.176(7)
_cell_angle_gamma                67.936(7)
_cell_volume                     1156.33
loop_
_atom_site_label
_atom_site_type_symbol
_atom_site_fract_x
_atom_site_fract_y
_atom_site_fract_z
_atom_site_U_iso_or_equiv
_atom_site_thermal_displace_type
C25 C 0.0464(6) 0.0129(6) 0.8692(4) 0.0223 Uani
H14 H 0.121695 0.064363 0.847286 0.0270 Uiso
N11 N 0.0443(4) 0.3036(5) 0.6119(3) 0.0180 Uani
C20 C 0.0790(6) 0.2452(6) 0.5363(4) 0.0213 Uani
H12 H 0.183700 0.183232 0.516741 0.0260 Uiso
N14 N 0.0857(5) 0.8583(5) 0.8715(3) 0.0222 Uani
N16 N 0.0366(4) 0.4767(5) 0.8108(3) 0.0150 Uani
Er6 Er 0.33579(2) 0.39160(3) 0.78604(2) 0.0124 Uani
N4 N 0.1685(5) 0.0351(5) 0.0779(3) 0.0143 Uani
C4 C 0.3347(6) 0.0132(5) 0.0386(3) 0.0133 Uani
C12 C 0.0529(6) 0.1659(6) 0.0954(4) 0.0208 Uani
H7 H 0.067759 0.261673 0.085580 0.0250 Uiso
O8 O 0.2585(4) 0.1994(4) 0.9080(2) 0.0193 Uani
C7 C 0.3648(6) 0.1033(6) 0.9539(3) 0.0157 Uani
O11 O 0.5569(4) 0.1668(4) 0.8340(2) 0.0191 Uani
N15 N 0.8938(5) 0.0849(5) 0.9002(3) 0.0205 Uani
C23 C 0.5406(5) 0.0863(5) 0.9115(3) 0.0132 Uani
Er1 Er 0.66421(2) 0.60840(3) 0.21396(2) 0.0124 Uani
O1 O 0.4463(3) 0.6188(4) 0.3288(2) 0.0128 Uani
O2 O 0.2565(4) 0.5084(4) 0.6374(2) 0.0152 Uani
O3 O 0.7311(4) 0.3328(4) 0.2445(2) 0.0165 Uani
H1 H 0.793676 0.288240 0.287570 0.0250 Uiso
H2 H 0.792985 0.292650 0.197710 0.0250 Uiso
O4 O 0.4431(4) 0.8332(4) 0.1660(2) 0.0191 Uani
O5 O 0.4631(4) 0.5392(4) 0.1695(2) 0.0157 Uani
O7 O 0.6990(4) 0.7914(4) 0.2811(2) 0.0204 Uani
H3 H 0.709415 0.870132 0.240240 0.0310 Uiso
H4 H 0.790443 0.751671 0.302283 0.0310 Uiso
N2 N 0.1696(4) 0.6280(4) 0.4572(3) 0.0100 Uani
N3 N 0.2125(4) 0.4794(5) 0.1217(3) 0.0135 Uani
C1 C 0.3320(5) 0.5642(5) 0.4804(3) 0.0101 Uani
C2 C 0.3620(5) 0.5059(5) 0.5690(3) 0.0091 Uani
N5 N 0.2229(5) 0.3683(6) 0.1993(3) 0.0284 Uani
C3 C 0.4607(5) 0.5648(5) 0.4103(3) 0.0104 Uani
C5 C 0.0584(5) 0.5702(5) 0.1170(3) 0.0130 Uani
H5 H 0.022399 0.653778 0.070410 0.0160 Uiso
N8 N 0.0435(4) 0.7193(5) 0.5086(3) 0.0204 Uani
N9 N 0.1062(5) 0.9151(5) 0.0998(3) 0.0205 Uani
C6 C 0.3548(5) 0.4885(6) 0.0601(3) 0.0130 Uani
C8 C 0.0700(6) 0.4017(7) 0.2364(4) 0.0257 Uani
H6 H 0.037530 0.345326 0.291487 0.0310 Uiso
C9 C 0.4594(5) 0.9137(5) 0.0885(3) 0.0132 Uani
C10 C 0.4739(5) 0.5168(5) 0.0923(3) 0.0127 Uani
C13 C 0.1150(6) 0.6173(6) 0.3869(4) 0.0212 Uani
H8 H 0.179550 0.561664 0.342228 0.0250 Uiso
O9 O 0.5537(3) 0.3812(4) 0.6712(2) 0.0128 Uani
O10 O 0.7435(4) 0.4916(4) 0.3626(2) 0.0152 Uani
N10 N 0.8304(4) 0.3720(4) 0.5428(3) 0.0100 Uani
C16 C 0.6680(5) 0.4358(5) 0.5196(3) 0.0101 Uani
C17 C 0.6380(5) 0.4941(5) 0.4310(3) 0.0091 Uani
C18 C 0.5393(5) 0.4352(5) 0.5897(3) 0.0104 Uani
N12 N 0.9565(4) 0.2807(5) 0.4914(3) 0.0204 Uani
C19 C 0.8850(6) 0.3827(6) 0.6131(4) 0.0212 Uani
H11 H 0.820450 0.438336 0.657772 0.0250 Uiso
O12 O 0.7415(4) 0.8006(4) 0.0920(2) 0.0193 Uani
C22 C 0.6352(6) 0.8967(6) 0.0461(3) 0.0157 Uani
O14 O 0.7353(4) 0.5396(4) 0.0656(2) 0.0185 Uani
C30 C 0.6305(5) 0.5232(5) 0.0292(3) 0.0130 Uani
N19 N 0.9634(4) 0.5233(5) 0.1892(3) 0.0150 Uani
O6 O 0.2647(4) 0.4604(4) 0.9344(2) 0.0185 Uani
C11 C 0.3695(5) 0.4768(5) 0.9708(3) 0.0130 Uani
N13 N 0.8315(5) 0.9649(5) 0.9221(3) 0.0143 Uani
C21 C 0.6653(6) 0.9868(5) 0.9614(3) 0.0133 Uani
C24 C 0.9471(6) 0.8341(6) 0.9046(4) 0.0208 Uani
H13 H 0.932241 0.738327 0.914420 0.0250 Uiso
O13 O 0.5369(4) 0.4608(4) 0.8305(2) 0.0157 Uani
N17 N 0.7875(4) 0.5206(5) 0.8783(3) 0.0135 Uani
N18 N 0.7771(5) 0.6317(6) 0.8007(3) 0.0284 Uani
C26 C 0.9416(5) 0.4298(5) 0.8830(3) 0.0130 Uani
H15 H 0.977601 0.346222 0.929590 0.0160 Uiso
C27 C 0.6452(5) 0.5115(6) 0.9399(3) 0.0130 Uani
C28 C 0.9300(6) 0.5983(7) 0.7636(4) 0.0257 Uani
H16 H 0.962470 0.654674 0.708513 0.0310 Uiso
C29 C 0.5261(5) 0.4832(5) 0.9077(3) 0.0127 Uani
O15 O 0.2689(4) 0.6672(4) 0.7555(2) 0.0165 Uani
H17 H 0.206324 0.711760 0.712430 0.0250 Uiso
H18 H 0.207015 0.707350 0.802290 0.0250 Uiso
O16 O 0.3010(4) 0.2086(4) 0.7189(2) 0.0204 Uani
H19 H 0.290585 0.129868 0.759760 0.0310 Uiso
H20 H 0.209557 0.248329 0.697717 0.0310 Uiso
N7 N 0.9143(5) 0.1417(5) 0.1285(3) 0.0222 Uani
N6 N 0.9557(4) 0.6964(5) 0.3881(3) 0.0180 Uani
C14 C 0.9536(6) 0.9871(6) 0.1308(4) 0.0223 Uani
H9 H 0.878305 0.935637 0.152714 0.0270 Uiso
C15 C 0.9210(6) 0.7548(6) 0.4637(4) 0.0213 Uani
H10 H 0.816300 0.816768 0.483259 0.0260 Uiso
loop_
_atom_site_aniso_label
_atom_site_aniso_U_11
_atom_site_aniso_U_22
_atom_site_aniso_U_33
_atom_site_aniso_U_23
_atom_site_aniso_U_13
_atom_site_aniso_U_12
C25 0.019 0.029 0.022 -0.007 -0.003 -0.01
N11 0.0098 0.025 0.019 -0.004 -0.0061 -0.0036
C20 0.011 0.032 0.018 -0.009 -0.001 -0.002
N14 0.019 0.024 0.022 -0.009 -0.001 -0.0035
N16 0.013 0.025 0.011 -0.0048 0.0001 -0.0109
Er6 0.00842 0.02156 0.00683 -7e-05 -0.00078 -0.00644
N4 0.017 0.018 0.012 0.0009 -0.0055 -0.0111
C4 0.018 0.016 0.01 -0.006 -0.002 -0.008
C12 0.027 0.021 0.014 -0.005 -0.004 -0.006
O8 0.0185 0.025 0.0117 0.0081 -0.0082 -0.0084
C7 0.022 0.018 0.013 0.001 -0.006 -0.014
O11 0.0171 0.025 0.0118 0.0043 -0.0017 -0.0087
N15 0.021 0.02 0.023 -0.001 -0.003 -0.0117
C23 0.014 0.012 0.014 0 -0.004 -0.0054
Er1 0.00842 0.02156 0.00683 -7e-05 -0.00078 -0.00644
O1 0.0085 0.0225 0.0057 -0.0011 -0.001 -0.0044
O2 0.0089 0.0241 0.0094 -0.0007 0.0018 -0.0053
O3 0.0104 0.0217 0.016 -0.0045 -0.0013 -0.0035
O4 0.0171 0.025 0.0118 0.0043 -0.0017 -0.0087
O5 0.0118 0.029 0.0105 -0.006 0.0001 -0.0112
O7 0.0241 0.021 0.02 0.0067 -0.0136 -0.0129
N2 0.0087 0.012 0.007 -0.0043 0.0025 -0.0013
N3 0.0093 0.025 0.008 -0.0011 -0.0017 -0.0089
C1 0.005 0.014 0.011 -0.009 0.0009 0.0003
C2 0.007 0.009 0.013 -0.0071 -0.0004 -0.0018
N5 0.011 0.045 0.021 0.014 -0.005 -0.012
C3 0.012 0.012 0.007 -0.0014 0 -0.0049
C5 0.013 0.014 0.013 -0.003 -0.002 -0.0052
N8 0.0069 0.032 0.019 -0.012 0.0023 -0.0007
N9 0.021 0.02 0.023 -0.001 -0.003 -0.0117
C6 0.006 0.025 0.008 0.001 -0.001 -0.0081
C8 0.013 0.048 0.014 0.009 -0.003 -0.017
C9 0.014 0.012 0.014 0 -0.004 -0.0054
C10 0.008 0.019 0.011 0.001 -0.004 -0.0055
C13 0.018 0.03 0.013 -0.006 -0.004 -0.003
O9 0.0085 0.0225 0.0057 -0.0011 -0.001 -0.0044
O10 0.0089 0.0241 0.0094 -0.0007 0.0018 -0.0053
N10 0.0087 0.012 0.007 -0.0043 0.0025 -0.0013
C16 0.005 0.014 0.011 -0.009 0.0009 0.0003
C17 0.007 0.009 0.013 -0.0071 -0.0004 -0.0018
C18 0.012 0.012 0.007 -0.0014 0 -0.0049
N12 0.0069 0.032 0.019 -0.012 0.0023 -0.0007
C19 0.018 0.03 0.013 -0.006 -0.004 -0.003
O12 0.0185 0.025 0.0117 0.0081 -0.0082 -0.0084
C22 0.022 0.018 0.013 0.001 -0.006 -0.014
O14 0.0131 0.04 0.0099 -0.0049 -0.0013 -0.0174
C30 0.012 0.013 0.013 0.001 -0.005 -0.0036
N19 0.013 0.025 0.011 -0.0048 0.0001 -0.0109
O6 0.0131 0.04 0.0099 -0.0049 -0.0013 -0.0174
C11 0.012 0.013 0.013 0.001 -0.005 -0.0036
N13 0.017 0.018 0.012 0.0009 -0.0055 -0.0111
C21 0.018 0.016 0.01 -0.006 -0.002 -0.008
C24 0.027 0.021 0.014 -0.005 -0.004 -0.006
O13 0.0118 0.029 0.0105 -0.006 0.0001 -0.0112
N17 0.0093 0.025 0.008 -0.0011 -0.0017 -0.0089
N18 0.011 0.045 0.021 0.014 -0.005 -0.012
C26 0.013 0.014 0.013 -0.003 -0.002 -0.0052
C27 0.006 0.025 0.008 0.001 -0.001 -0.0081
C28 0.013 0.048 0.014 0.009 -0.003 -0.017
C29 0.008 0.019 0.011 0.001 -0.004 -0.0055
O15 0.0104 0.0217 0.016 -0.0045 -0.0013 -0.0035
O16 0.0241 0.021 0.02 0.0067 -0.0136 -0.0129
N7 0.019 0.024 0.022 -0.009 -0.001 -0.0035
N6 0.0098 0.025 0.019 -0.004 -0.0061 -0.0036
C14 0.019 0.029 0.022 -0.007 -0.003 -0.01
C15 0.011 0.032 0.018 -0.009 -0.001 -0.002
loop_
_geom_bond_atom_site_label_1
_geom_bond_atom_site_label_2
_geom_bond_site_symmetry_1
_geom_bond_site_symmetry_2
H14 C25 1_555 1_555
C20 N11 1_555 1_555
H12 C20 1_555 1_555
Er6 N16 1_555 1_555
N4 C4 1_555 1_555
C12 N4 1_555 1_555
H7 C12 1_555 1_555
O8 C7 1_555 1_555
C7 C23 1_555 1_555
O11 C23 1_555 1_555
Er6 O8 1_555 1_555
O11 Er6 1_555 1_555
Er1 O1 1_555 1_555
O1 C3 1_555 1_555
O2 C2 1_555 1_555
O3 Er1 1_555 1_555
H1 O3 1_555 1_555
H2 O3 1_555 1_555
O4 Er1 1_555 1_555
O5 Er1 1_555 1_555
O7 Er1 1_555 1_555
H3 O7 1_555 1_555
H4 O7 1_555 1_555
N2 C1 1_555 1_555
N3 N5 1_555 1_555
C1 C2 1_555 1_555
C2 C18 1_555 1_555
N5 C8 1_555 1_555
C3 C1 1_555 1_555
C5 N3 1_555 1_555
H5 C5 1_555 1_555
N8 N2 1_555 1_555
C6 N3 1_555 1_555
H6 C8 1_555 1_555
C9 O4 1_555 1_555
C10 O5 1_555 1_555
C13 N2 1_555 1_555
H8 C13 1_555 1_555
O9 C18 1_555 1_555
O10 Er1 1_555 1_555
N10 C16 1_555 1_555
C16 C17 1_555 1_555
C17 C3 1_555 1_555
C18 C16 1_555 1_555
N12 N10 1_555 1_555
C19 N10 1_555 1_555
H11 C19 1_555 1_555
O12 Er1 1_555 1_555
C22 C9 1_555 1_555
O14 Er1 1_555 1_555
C30 C10 1_555 1_555
Er6 O2 1_555 1_555
N19 Er1 1_555 1_555
C6 C10 1_555 1_555
O9 Er6 1_555 1_555
O10 C17 1_555 1_555
O12 C22 1_555 1_555
O14 C30 1_555 1_555
O6 C11 1_555 1_555
N13 C21 1_555 1_555
C24 N13 1_555 1_555
H13 C24 1_555 1_555
O13 C29 1_555 1_555
N17 N18 1_555 1_555
N18 C28 1_555 1_555
C26 N17 1_555 1_555
H15 C26 1_555 1_555
C27 N17 1_555 1_555
H16 C28 1_555 1_555
C29 C11 1_555 1_555
Er6 O6 1_555 1_555
O15 Er6 1_555 1_555
H17 O15 1_555 1_555
H18 O15 1_555 1_555
O16 Er6 1_555 1_555
H19 O16 1_555 1_555
H20 O16 1_555 1_555
O13 Er6 1_555 1_555
C27 C29 1_555 1_555
H9 C14 1_555 1_555
C15 N6 1_555 1_555
H10 C15 1_555 1_555

#END
