
###############################################################################
#
# This file contains modified crystal structure data generated from the
# MOF subset of the Cambridge Structural Database (CSD) v543 
# hosted by the Cambridge Crystallographic Data Centre (CCDC).
#
# This work is licensed under the Creative Commons
# Attribution-NonCommercial-ShareAlike 4.0 International License.
# To view a copy of this license, visit
# http://creativecommons.org/licenses/by-nc-sa/4.0/
# or send a letter to
# Creative Commons, PO Box 1866, Mountain View, CA 94042, USA.
#
# CIF created using the CSD Python API on 29 September 2022
# The structure has been converted into the P1 space group
# The structure has a 3D framework
# The original CSD entry WEFCAN is in the orthorhombic crystal system
# The framework has been calculated to contain at least 10.0% void space
# The void calculation uses a probe of radius 1.32A, grid spacing 0.4
#
###############################################################################

data_WEFCAN
_chemical_formula_moiety         '(C118 H96 Fe6 N28 O16 S12)n'
_symmetry_cell_setting           triclinic
_symmetry_space_group_name_H-M   'P 1'
_symmetry_Int_Tables_number      1
_space_group_name_Hall           'P 1'
loop_
_symmetry_equiv_pos_site_id
_symmetry_equiv_pos_as_xyz
1 x,y,z
_cell_length_a                   8.9846(5)
_cell_length_b                   22.9562(11)
_cell_length_c                   24.0229(12)
_cell_angle_alpha                90
_cell_angle_beta                 90
_cell_angle_gamma                90
_cell_volume                     4954.78
loop_
_atom_site_label
_atom_site_type_symbol
_atom_site_fract_x
_atom_site_fract_y
_atom_site_fract_z
Fe1 Fe 0.2500 0.2500 0.5000
N1 N 0.1667(2) 0.19186(8) 0.43323(8)
N2 N 0.0443(3) 0.29504(12) 0.5000
C1 C 0.0228(3) 0.18072(11) 0.42660(10)
C3 C 0.0652(3) 0.11158(11) 0.35515(8)
C4 C 0.2151(3) 0.12291(12) 0.36025(10)
H3 H 0.2845 0.1038 0.3380
C5 C 0.2588(3) 0.16321(12) 0.39914(11)
H4 H 0.3600 0.1712 0.4020
C6 C 0.1012(2) 0.03800(10) 0.28605(8)
H5 H 0.1645 0.0140 0.3093
H6 H 0.1636 0.0625 0.2629
C7 C 0.0000 0.0000 0.2500
O1 O 0.00390(19) 0.07281(8) 0.31961(6)
S2 S 0.67998(13) 0.12155(6) 0.5000
N6 N 0.3333(2) 0.30814(8) 0.43323(8)
N7 N 0.1667(2) 0.19186(8) 0.56677(8)
N8 N 0.3333(2) 0.30814(8) 0.56677(8)
N9 N 0.4557(3) 0.20496(12) 0.5000
H8 H 0.0444 0.2009 0.0512
C13 C 0.0331(3) 0.14138(13) 0.11084(10)
H11 H 0.1351 0.1348 0.1134
C27 C 0.5487(4) 0.17077(15) 0.5000
C7_2 C -0.0000 1.0000 0.2500
Fe3 Fe 0.2500 0.7500 0.0000
N5 N 0.1667(2) 0.80814(8) 0.06677(8)
C11 C 0.0228(3) 0.81928(11) 0.07340(10)
H7 H 0.0444 0.7991 0.4488
C12 C 0.0331(3) 0.85862(13) 0.38916(10)
H10 H 0.1351 0.8652 0.3866
C17 C 0.0652(3) 0.88842(11) 0.14485(8)
C20 C 0.2151(3) 0.87709(12) 0.13975(10)
H15 H 0.2845 0.8962 0.1620
C23 C 0.2588(3) 0.83679(12) 0.10086(11)
H18 H 0.3600 0.8288 0.0980
C26 C 0.1012(2) 0.96200(10) 0.21395(8)
H21 H 0.1645 0.9860 0.1907
H24 H 0.1636 0.9375 0.2371
O4 O 0.00390(19) 0.92719(8) 0.18039(6)
Fe3_2 Fe 0.2500 0.7500 1.0000
S1 S 0.82002(13) 0.37845(6) 0.5000
H1 H 0.9556 0.2009 0.4488
C2 C 0.9669(3) 0.14138(13) 0.38916(10)
H2 H 0.8649 0.1348 0.3866
C7_3 C 1.0000 0.0000 0.2500
C8 C 0.9513(4) 0.32923(15) 0.5000
Fe4 Fe 0.7500 0.2500 0.0000
N4 N 0.8333(2) 0.19186(8) 0.06677(8)
C10 C 0.9772(3) 0.18072(11) 0.07340(10)
C16 C 0.9348(3) 0.11158(11) 0.14485(8)
C19 C 0.7849(3) 0.12291(12) 0.13975(10)
H14 H 0.7155 0.1038 0.1620
C22 C 0.7412(3) 0.16321(12) 0.10086(11)
H17 H 0.6400 0.1712 0.0980
C25 C 0.8988(2) 0.03800(10) 0.21395(8)
H20 H 0.8355 0.0140 0.1907
H23 H 0.8364 0.0625 0.2371
O3 O 0.99610(19) 0.07281(8) 0.18039(6)
Fe4_2 Fe 0.7500 0.2500 1.0000
C7_4 C 1.0000 1.0000 0.2500
Fe2 Fe 0.7500 0.7500 0.5000
N3 N 0.8333(2) 0.80814(8) 0.43323(8)
C9 C 0.9772(3) 0.81928(11) 0.42660(10)
H9 H 0.9556 0.7991 0.0512
C14 C 0.9669(3) 0.85862(13) 0.11084(10)
H12 H 0.8649 0.8652 0.1134
C15 C 0.9348(3) 0.88842(11) 0.35515(8)
C18 C 0.7849(3) 0.87709(12) 0.36025(10)
H13 H 0.7155 0.8962 0.3380
C21 C 0.7412(3) 0.83679(12) 0.39914(11)
H16 H 0.6400 0.8288 0.4020
C24 C 0.8988(2) 0.96200(10) 0.28605(8)
H19 H 0.8355 0.9860 0.3093
H22 H 0.8364 0.9375 0.2629
O2 O 0.99610(19) 0.92719(8) 0.31961(6)
S1_2 S 0.17998(13) 0.62155(6) 0.5000
C8_2 C 0.0487(4) 0.67077(15) 0.5000
N2_2 N 0.9557(3) 0.70496(12) 0.5000
S2_2 S 0.32002(13) 0.87845(6) 0.5000
N6_2 N 0.6667(2) 0.69186(8) 0.43323(8)
N7_2 N 0.8333(2) 0.80814(8) 0.56677(8)
N8_2 N 0.6667(2) 0.69186(8) 0.56677(8)
N9_2 N 0.5443(3) 0.79504(12) 0.5000
C27_2 C 0.4513(4) 0.82923(15) 0.5000
S1_3 S 0.17998(13) 0.37845(6) 0.0000
C8_3 C 0.0487(4) 0.32923(15) 0.0000
S1_4 S 0.17998(13) 0.37845(6) 1.0000
C8_4 C 0.0487(4) 0.32923(15) 1.0000
N2_3 N 0.9557(3) 0.29504(12) 0.0000
S2_3 S 0.32002(13) 0.12155(6) 0.0000
N6_3 N 0.6667(2) 0.30814(8) 0.06677(8)
N9_3 N 0.5443(3) 0.20496(12) 0.0000
C27_3 C 0.4513(4) 0.17077(15) 0.0000
N2_4 N 0.9557(3) 0.29504(12) 1.0000
S2_4 S 0.32002(13) 0.12155(6) 1.0000
N7_3 N 0.8333(2) 0.19186(8) 0.93323(8)
N8_3 N 0.6667(2) 0.30814(8) 0.93323(8)
N9_4 N 0.5443(3) 0.20496(12) 1.0000
C27_4 C 0.4513(4) 0.17077(15) 1.0000
N2_5 N 0.0443(3) 0.70496(12) 0.0000
S2_5 S 0.67998(13) 0.87845(6) 0.0000
N6_4 N 0.3333(2) 0.69186(8) 0.06677(8)
N9_5 N 0.4557(3) 0.79504(12) 0.0000
C27_5 C 0.5487(4) 0.82923(15) 0.0000
N2_6 N 0.0443(3) 0.70496(12) 1.0000
S2_6 S 0.67998(13) 0.87845(6) 1.0000
N7_4 N 0.1667(2) 0.80814(8) 0.93323(8)
N8_4 N 0.3333(2) 0.69186(8) 0.93323(8)
N9_6 N 0.4557(3) 0.79504(12) 1.0000
C27_6 C 0.5487(4) 0.82923(15) 1.0000
S1_5 S 0.82002(13) 0.62155(6) 0.0000
C8_5 C 0.9513(4) 0.67077(15) 0.0000
S1_6 S 0.82002(13) 0.62155(6) 1.0000
C8_6 C 0.9513(4) 0.67077(15) 1.0000
C1_2 C 0.5228(3) 0.68072(11) 0.42660(10)
H1_2 H 0.4556 0.7009 0.4488
C2_2 C 0.4669(3) 0.64138(13) 0.38916(10)
H2_2 H 0.3649 0.6348 0.3866
C3_2 C 0.5652(3) 0.61158(11) 0.35515(8)
C4_2 C 0.7151(3) 0.62291(12) 0.36025(10)
H3_2 H 0.7845 0.6038 0.3380
C5_2 C 0.7588(3) 0.66321(12) 0.39914(11)
H4_2 H 0.8600 0.6712 0.4020
C6_2 C 0.6012(2) 0.53800(10) 0.28605(8)
H5_2 H 0.6645 0.5140 0.3093
H6_2 H 0.6636 0.5625 0.2629
C7_5 C 0.5000 0.5000 0.2500
O1_2 O 0.50390(19) 0.57281(8) 0.31961(6)
C9_2 C 0.4772(3) 0.31928(11) 0.42660(10)
C10_2 C 0.4772(3) 0.68072(11) 0.07340(10)
C11_2 C 0.5228(3) 0.31928(11) 0.07340(10)
H7_2 H 0.5444 0.2991 0.4488
H8_2 H 0.5444 0.7009 0.0512
H9_2 H 0.4556 0.2991 0.0512
C12_2 C 0.5331(3) 0.35862(13) 0.38916(10)
C13_2 C 0.5331(3) 0.64138(13) 0.11084(10)
C14_2 C 0.4669(3) 0.35862(13) 0.11084(10)
H10_2 H 0.6351 0.3652 0.3866
H11_2 H 0.6351 0.6348 0.1134
H12_2 H 0.3649 0.3652 0.1134
C15_2 C 0.4348(3) 0.38842(11) 0.35515(8)
C16_2 C 0.4348(3) 0.61158(11) 0.14485(8)
C17_2 C 0.5652(3) 0.38842(11) 0.14485(8)
C18_2 C 0.2849(3) 0.37709(12) 0.36025(10)
C19_2 C 0.2849(3) 0.62291(12) 0.13975(10)
C20_2 C 0.7151(3) 0.37709(12) 0.13975(10)
H13_2 H 0.2155 0.3962 0.3380
H14_2 H 0.2155 0.6038 0.1620
H15_2 H 0.7845 0.3962 0.1620
C21_2 C 0.2412(3) 0.33679(12) 0.39914(11)
C22_2 C 0.2412(3) 0.66321(12) 0.10086(11)
C23_2 C 0.7588(3) 0.33679(12) 0.10086(11)
H16_2 H 0.1400 0.3288 0.4020
H17_2 H 0.1400 0.6712 0.0980
H18_2 H 0.8600 0.3288 0.0980
C24_2 C 0.3988(2) 0.46200(10) 0.28605(8)
C25_2 C 0.3988(2) 0.53800(10) 0.21395(8)
C26_2 C 0.6012(2) 0.46200(10) 0.21395(8)
H19_2 H 0.3355 0.4860 0.3093
H20_2 H 0.3355 0.5140 0.1907
H21_2 H 0.6645 0.4860 0.1907
H22_2 H 0.3364 0.4375 0.2629
H23_2 H 0.3364 0.5625 0.2371
H24_2 H 0.6636 0.4375 0.2371
O2_2 O 0.49610(19) 0.42719(8) 0.31961(6)
O3_2 O 0.49610(19) 0.57281(8) 0.18039(6)
O4_2 O 0.50390(19) 0.42719(8) 0.18039(6)
C7_6 C 0.0000 -0.0000 0.7500
C9_3 C 0.0228(3) 0.18072(11) 0.57340(10)
H9_3 H 0.0444 0.2009 0.9488
C14_3 C 0.0331(3) 0.14138(13) 0.88916(10)
H12_3 H 0.1351 0.1348 0.8866
C15_3 C 0.0652(3) 0.11158(11) 0.64485(8)
C18_3 C 0.2151(3) 0.12291(12) 0.63975(10)
H13_3 H 0.2845 0.1038 0.6620
C21_3 C 0.2588(3) 0.16321(12) 0.60086(11)
H16_3 H 0.3600 0.1712 0.5980
C24_3 C 0.1012(2) 0.03800(10) 0.71395(8)
H19_3 H 0.1645 0.0140 0.6907
H22_3 H 0.1636 0.0625 0.7371
O2_3 O 0.00390(19) 0.07281(8) 0.68039(6)
H1_3 H 0.0444 0.7991 0.5512
C2_3 C 0.0331(3) 0.85862(13) 0.61084(10)
H2_3 H 0.1351 0.8652 0.6134
C7_7 C -0.0000 1.0000 0.7500
C10_3 C 0.0228(3) 0.81928(11) 0.92660(10)
C16_3 C 0.0652(3) 0.88842(11) 0.85515(8)
C19_3 C 0.2151(3) 0.87709(12) 0.86025(10)
H14_3 H 0.2845 0.8962 0.8380
C22_3 C 0.2588(3) 0.83679(12) 0.89914(11)
H17_3 H 0.3600 0.8288 0.9020
C25_3 C 0.1012(2) 0.96200(10) 0.78605(8)
H20_3 H 0.1645 0.9860 0.8093
H23_3 H 0.1636 0.9375 0.7629
O3_3 O 0.00390(19) 0.92719(8) 0.81961(6)
C7_8 C 1.0000 -0.0000 0.7500
C11_3 C 0.9772(3) 0.18072(11) 0.92660(10)
H7_3 H 0.9556 0.2009 0.5512
C12_3 C 0.9669(3) 0.14138(13) 0.61084(10)
H10_3 H 0.8649 0.1348 0.6134
C17_3 C 0.9348(3) 0.11158(11) 0.85515(8)
C20_3 C 0.7849(3) 0.12291(12) 0.86025(10)
H15_3 H 0.7155 0.1038 0.8380
C23_3 C 0.7412(3) 0.16321(12) 0.89914(11)
H18_3 H 0.6400 0.1712 0.9020
C26_3 C 0.8988(2) 0.03800(10) 0.78605(8)
H21_3 H 0.8355 0.0140 0.8093
H24_3 H 0.8364 0.0625 0.7629
O4_3 O 0.99610(19) 0.07281(8) 0.81961(6)
C1_3 C 0.9772(3) 0.81928(11) 0.57340(10)
C3_3 C 0.9348(3) 0.88842(11) 0.64485(8)
C4_3 C 0.7849(3) 0.87709(12) 0.63975(10)
H3_3 H 0.7155 0.8962 0.6620
C5_3 C 0.7412(3) 0.83679(12) 0.60086(11)
H4_3 H 0.6400 0.8288 0.5980
C6_3 C 0.8988(2) 0.96200(10) 0.71395(8)
H5_3 H 0.8355 0.9860 0.6907
H6_3 H 0.8364 0.9375 0.7371
C7_9 C 1.0000 1.0000 0.7500
O1_3 O 0.99610(19) 0.92719(8) 0.68039(6)
H8_3 H 0.9556 0.7991 0.9488
C13_3 C 0.9669(3) 0.85862(13) 0.88916(10)
H11_3 H 0.8649 0.8652 0.8866
C1_4 C 0.4772(3) 0.31928(11) 0.57340(10)
H1_4 H 0.5444 0.2991 0.5512
C2_4 C 0.5331(3) 0.35862(13) 0.61084(10)
H2_4 H 0.6351 0.3652 0.6134
C3_4 C 0.4348(3) 0.38842(11) 0.64485(8)
C4_4 C 0.2849(3) 0.37709(12) 0.63975(10)
H3_4 H 0.2155 0.3962 0.6620
C5_4 C 0.2412(3) 0.33679(12) 0.60086(11)
H4_4 H 0.1400 0.3288 0.5980
C6_4 C 0.3988(2) 0.46200(10) 0.71395(8)
H5_4 H 0.3355 0.4860 0.6907
H6_4 H 0.3364 0.4375 0.7371
C7_10 C 0.5000 0.5000 0.7500
O1_4 O 0.49610(19) 0.42719(8) 0.68039(6)
C9_4 C 0.5228(3) 0.68072(11) 0.57340(10)
C10_4 C 0.5228(3) 0.31928(11) 0.92660(10)
C11_4 C 0.4772(3) 0.68072(11) 0.92660(10)
H7_4 H 0.4556 0.7009 0.5512
H8_4 H 0.4556 0.2991 0.9488
H9_4 H 0.5444 0.7009 0.9488
C12_4 C 0.4669(3) 0.64138(13) 0.61084(10)
C13_4 C 0.4669(3) 0.35862(13) 0.88916(10)
C14_4 C 0.5331(3) 0.64138(13) 0.88916(10)
H10_4 H 0.3649 0.6348 0.6134
H11_4 H 0.3649 0.3652 0.8866
H12_4 H 0.6351 0.6348 0.8866
C15_4 C 0.5652(3) 0.61158(11) 0.64485(8)
C16_4 C 0.5652(3) 0.38842(11) 0.85515(8)
C17_4 C 0.4348(3) 0.61158(11) 0.85515(8)
C18_4 C 0.7151(3) 0.62291(12) 0.63975(10)
C19_4 C 0.7151(3) 0.37709(12) 0.86025(10)
C20_4 C 0.2849(3) 0.62291(12) 0.86025(10)
H13_4 H 0.7845 0.6038 0.6620
H14_4 H 0.7845 0.3962 0.8380
H15_4 H 0.2155 0.6038 0.8380
C21_4 C 0.7588(3) 0.66321(12) 0.60086(11)
C22_4 C 0.7588(3) 0.33679(12) 0.89914(11)
C23_4 C 0.2412(3) 0.66321(12) 0.89914(11)
H16_4 H 0.8600 0.6712 0.5980
H17_4 H 0.8600 0.3288 0.9020
H18_4 H 0.1400 0.6712 0.9020
C24_4 C 0.6012(2) 0.53800(10) 0.71395(8)
C25_4 C 0.6012(2) 0.46200(10) 0.78605(8)
C26_4 C 0.3988(2) 0.53800(10) 0.78605(8)
H19_4 H 0.6645 0.5140 0.6907
H20_4 H 0.6645 0.4860 0.8093
H21_4 H 0.3355 0.5140 0.8093
H22_4 H 0.6636 0.5625 0.7371
H23_4 H 0.6636 0.4375 0.7629
H24_4 H 0.3364 0.5625 0.7629
O2_4 O 0.50390(19) 0.57281(8) 0.68039(6)
O3_4 O 0.50390(19) 0.42719(8) 0.81961(6)
O4_4 O 0.49610(19) 0.57281(8) 0.81961(6)
loop_
_geom_bond_atom_site_label_1
_geom_bond_atom_site_label_2
_geom_bond_site_symmetry_1
_geom_bond_site_symmetry_2
Fe1 N1 1_555 1_555
N1 C1 1_555 1_555
N2 Fe1 1_555 1_555
C4 C3 1_555 1_555
H3 C4 1_555 1_555
C5 N1 1_555 1_555
H4 C5 1_555 1_555
C6 H5 1_555 1_555
H6 C6 1_555 1_555
C7 C6 1_555 1_555
O1 C3 1_555 1_555
S2 C27 1_555 1_555
N6 Fe1 1_555 1_555
N7 Fe1 1_555 1_555
N8 Fe1 1_555 1_555
N9 Fe1 1_555 1_555
H11 C13 1_555 1_555
C27 N9 1_555 1_555
C4 C5 1_555 1_555
C6 O1 1_555 1_555
Fe3 N5 1_555 1_555
N5 C11 1_555 1_555
H10 C12 1_555 1_555
C20 C17 1_555 1_555
H15 C20 1_555 1_555
C23 N5 1_555 1_555
H18 C23 1_555 1_555
C26 C7_2 1_555 1_555
H21 C26 1_555 1_555
H24 C26 1_555 1_555
O4 C17 1_555 1_555
C20 C23 1_555 1_555
C26 O4 1_555 1_555
S1 C8 1_555 1_555
H2 C2 1_555 1_555
Fe4 N4 1_555 1_555
N4 C10 1_555 1_555
C19 C16 1_555 1_555
H14 C19 1_555 1_555
C22 N4 1_555 1_555
H17 C22 1_555 1_555
C25 C7_3 1_555 1_555
H20 C25 1_555 1_555
H23 C25 1_555 1_555
O3 C16 1_555 1_555
C19 C22 1_555 1_555
C25 O3 1_555 1_555
Fe2 N3 1_555 1_555
N3 C9 1_555 1_555
H12 C14 1_555 1_555
C18 C15 1_555 1_555
H13 C18 1_555 1_555
C21 N3 1_555 1_555
H16 C21 1_555 1_555
C24 C7_4 1_555 1_555
H19 C24 1_555 1_555
H22 C24 1_555 1_555
O2 C15 1_555 1_555
C18 C21 1_555 1_555
C24 O2 1_555 1_555
S1_2 C8_2 1_555 1_555
N2_2 Fe2 1_555 1_555
S2_2 C27_2 1_555 1_555
N6_2 Fe2 1_555 1_555
N7_2 Fe2 1_555 1_555
N8_2 Fe2 1_555 1_555
N9_2 Fe2 1_555 1_555
C27_2 N9_2 1_555 1_555
S1_3 C8_3 1_555 1_555
S1_4 C8_4 1_555 1_555
N2_3 Fe4 1_555 1_555
S2_3 C27_3 1_555 1_555
N6_3 Fe4 1_555 1_555
N9_3 Fe4 1_555 1_555
C27_3 N9_3 1_555 1_555
N2_4 Fe4_2 1_555 1_555
S2_4 C27_4 1_555 1_555
N7_3 Fe4_2 1_555 1_555
N8_3 Fe4_2 1_555 1_555
N9_4 Fe4_2 1_555 1_555
C27_4 N9_4 1_555 1_555
N2_5 Fe3 1_555 1_555
S2_5 C27_5 1_555 1_555
N6_4 Fe3 1_555 1_555
N9_5 Fe3 1_555 1_555
C27_5 N9_5 1_555 1_555
N2_6 Fe3_2 1_555 1_555
S2_6 C27_6 1_555 1_555
N7_4 Fe3_2 1_555 1_555
N8_4 Fe3_2 1_555 1_555
N9_6 Fe3_2 1_555 1_555
C27_6 N9_6 1_555 1_555
S1_5 C8_5 1_555 1_555
S1_6 C8_6 1_555 1_555
N6_2 C1_2 1_555 1_555
C1_2 H1_2 1_555 1_555
C2_2 C1_2 1_555 1_555
H2_2 C2_2 1_555 1_555
C3_2 C2_2 1_555 1_555
C4_2 C3_2 1_555 1_555
H3_2 C4_2 1_555 1_555
C5_2 N6_2 1_555 1_555
H4_2 C5_2 1_555 1_555
C6_2 H5_2 1_555 1_555
H6_2 C6_2 1_555 1_555
C7_5 C6_2 1_555 1_555
O1_2 C3_2 1_555 1_555
N6 C9_2 1_555 1_555
N6_4 C10_2 1_555 1_555
N6_3 C11_2 1_555 1_555
C9_2 H7_2 1_555 1_555
C10_2 H8_2 1_555 1_555
C11_2 H9_2 1_555 1_555
C12_2 C9_2 1_555 1_555
C13_2 C10_2 1_555 1_555
C14_2 C11_2 1_555 1_555
H10_2 C12_2 1_555 1_555
H11_2 C13_2 1_555 1_555
H12_2 C14_2 1_555 1_555
C15_2 C12_2 1_555 1_555
C16_2 C13_2 1_555 1_555
C17_2 C14_2 1_555 1_555
C18_2 C15_2 1_555 1_555
C19_2 C16_2 1_555 1_555
C20_2 C17_2 1_555 1_555
H13_2 C18_2 1_555 1_555
H14_2 C19_2 1_555 1_555
H15_2 C20_2 1_555 1_555
C21_2 N6 1_555 1_555
C22_2 N6_4 1_555 1_555
C23_2 N6_3 1_555 1_555
H16_2 C21_2 1_555 1_555
H17_2 C22_2 1_555 1_555
H18_2 C23_2 1_555 1_555
C24_2 C7_5 1_555 1_555
C25_2 C7_5 1_555 1_555
C26_2 C7_5 1_555 1_555
H19_2 C24_2 1_555 1_555
H20_2 C25_2 1_555 1_555
H21_2 C26_2 1_555 1_555
H22_2 C24_2 1_555 1_555
H23_2 C25_2 1_555 1_555
H24_2 C26_2 1_555 1_555
O2_2 C15_2 1_555 1_555
O3_2 C16_2 1_555 1_555
O4_2 C17_2 1_555 1_555
C4_2 C5_2 1_555 1_555
C6_2 O1_2 1_555 1_555
C18_2 C21_2 1_555 1_555
C19_2 C22_2 1_555 1_555
C20_2 C23_2 1_555 1_555
C24_2 O2_2 1_555 1_555
C25_2 O3_2 1_555 1_555
C26_2 O4_2 1_555 1_555
N7 C9_3 1_555 1_555
H12_3 C14_3 1_555 1_555
C18_3 C15_3 1_555 1_555
H13_3 C18_3 1_555 1_555
C21_3 N7 1_555 1_555
H16_3 C21_3 1_555 1_555
C24_3 C7_6 1_555 1_555
H19_3 C24_3 1_555 1_555
H22_3 C24_3 1_555 1_555
O2_3 C15_3 1_555 1_555
C18_3 C21_3 1_555 1_555
C24_3 O2_3 1_555 1_555
H2_3 C2_3 1_555 1_555
N7_4 C10_3 1_555 1_555
C19_3 C16_3 1_555 1_555
H14_3 C19_3 1_555 1_555
C22_3 N7_4 1_555 1_555
H17_3 C22_3 1_555 1_555
C25_3 C7_7 1_555 1_555
H20_3 C25_3 1_555 1_555
H23_3 C25_3 1_555 1_555
O3_3 C16_3 1_555 1_555
C19_3 C22_3 1_555 1_555
C25_3 O3_3 1_555 1_555
N7_3 C11_3 1_555 1_555
H10_3 C12_3 1_555 1_555
C20_3 C17_3 1_555 1_555
H15_3 C20_3 1_555 1_555
C23_3 N7_3 1_555 1_555
H18_3 C23_3 1_555 1_555
C26_3 C7_8 1_555 1_555
H21_3 C26_3 1_555 1_555
H24_3 C26_3 1_555 1_555
O4_3 C17_3 1_555 1_555
C20_3 C23_3 1_555 1_555
C26_3 O4_3 1_555 1_555
N7_2 C1_3 1_555 1_555
C4_3 C3_3 1_555 1_555
H3_3 C4_3 1_555 1_555
C5_3 N7_2 1_555 1_555
H4_3 C5_3 1_555 1_555
C6_3 H5_3 1_555 1_555
H6_3 C6_3 1_555 1_555
C7_9 C6_3 1_555 1_555
O1_3 C3_3 1_555 1_555
H11_3 C13_3 1_555 1_555
C4_3 C5_3 1_555 1_555
C6_3 O1_3 1_555 1_555
N8 C1_4 1_555 1_555
C1_4 H1_4 1_555 1_555
C2_4 C1_4 1_555 1_555
H2_4 C2_4 1_555 1_555
C3_4 C2_4 1_555 1_555
C4_4 C3_4 1_555 1_555
H3_4 C4_4 1_555 1_555
C5_4 N8 1_555 1_555
H4_4 C5_4 1_555 1_555
C6_4 H5_4 1_555 1_555
H6_4 C6_4 1_555 1_555
C7_10 C6_4 1_555 1_555
O1_4 C3_4 1_555 1_555
N8_2 C9_4 1_555 1_555
N8_3 C10_4 1_555 1_555
N8_4 C11_4 1_555 1_555
C9_4 H7_4 1_555 1_555
C10_4 H8_4 1_555 1_555
C11_4 H9_4 1_555 1_555
C12_4 C9_4 1_555 1_555
C13_4 C10_4 1_555 1_555
C14_4 C11_4 1_555 1_555
H10_4 C12_4 1_555 1_555
H11_4 C13_4 1_555 1_555
H12_4 C14_4 1_555 1_555
C15_4 C12_4 1_555 1_555
C16_4 C13_4 1_555 1_555
C17_4 C14_4 1_555 1_555
C18_4 C15_4 1_555 1_555
C19_4 C16_4 1_555 1_555
C20_4 C17_4 1_555 1_555
H13_4 C18_4 1_555 1_555
H14_4 C19_4 1_555 1_555
H15_4 C20_4 1_555 1_555
C21_4 N8_2 1_555 1_555
C22_4 N8_3 1_555 1_555
C23_4 N8_4 1_555 1_555
H16_4 C21_4 1_555 1_555
H17_4 C22_4 1_555 1_555
H18_4 C23_4 1_555 1_555
C24_4 C7_10 1_555 1_555
C25_4 C7_10 1_555 1_555
C26_4 C7_10 1_555 1_555
H19_4 C24_4 1_555 1_555
H20_4 C25_4 1_555 1_555
H21_4 C26_4 1_555 1_555
H22_4 C24_4 1_555 1_555
H23_4 C25_4 1_555 1_555
H24_4 C26_4 1_555 1_555
O2_4 C15_4 1_555 1_555
O3_4 C16_4 1_555 1_555
O4_4 C17_4 1_555 1_555
C4_4 C5_4 1_555 1_555
C6_4 O1_4 1_555 1_555
C18_4 C21_4 1_555 1_555
C19_4 C22_4 1_555 1_555
C20_4 C23_4 1_555 1_555
C24_4 O2_4 1_555 1_555
C25_4 O3_4 1_555 1_555
C26_4 O4_4 1_555 1_555

#END
