
###############################################################################
#
# This file contains modified crystal structure data generated from the
# MOF subset of the Cambridge Structural Database (CSD) v543 
# hosted by the Cambridge Crystallographic Data Centre (CCDC).
#
# This work is licensed under the Creative Commons
# Attribution-NonCommercial-ShareAlike 4.0 International License.
# To view a copy of this license, visit
# http://creativecommons.org/licenses/by-nc-sa/4.0/
# or send a letter to
# Creative Commons, PO Box 1866, Mountain View, CA 94042, USA.
#
# CIF created using the CSD Python API on 29 September 2022
# The structure has been converted into the P1 space group
# The structure has a 3D framework
# The original CSD entry WEGFUL is in the monoclinic crystal system
# The framework has been calculated to contain at least 10.0% void space
# The void calculation uses a probe of radius 1.32A, grid spacing 0.4
#
###############################################################################

data_WEGFUL
_chemical_formula_moiety         '(C48 H32 Eu4 N12 O36)n'
_symmetry_cell_setting           triclinic
_symmetry_space_group_name_H-M   'P 1'
_symmetry_Int_Tables_number      1
_space_group_name_Hall           'P 1'
loop_
_symmetry_equiv_pos_site_id
_symmetry_equiv_pos_as_xyz
1 x,y,z
_cell_length_a                   10.2031(10)
_cell_length_b                   17.5346(12)
_cell_length_c                   11.4588(11)
_cell_angle_alpha                90
_cell_angle_beta                 109.874(5)
_cell_angle_gamma                90
_cell_volume                     1927.97
loop_
_atom_site_label
_atom_site_type_symbol
_atom_site_fract_x
_atom_site_fract_y
_atom_site_fract_z
Eu3 Eu 0.50940(3) 0.00728(2) 0.68105(3)
O8 O 0.3537(5) 0.9179(3) 0.7255(5)
N3 N 0.2147(6) 0.9254(4) 0.6892(5)
C9 C 0.0189(8) 0.9686(5) 0.7336(7)
C10 C 0.1610(7) 0.9582(5) 0.7684(7)
H6 H 0.2192 0.9738 0.8464
C11 C 0.1343(8) 0.8996(5) 0.5786(7)
H7 H 0.1746 0.8745 0.5277
O2 O 0.7036(7) 0.0369(4) 0.8816(6)
O3 O 0.5608(6) 0.1410(3) 0.6565(4)
O4 O 0.5255(6) 0.0852(3) 0.4773(5)
O5 O 0.4124(6) 0.4293(3) 0.3170(5)
N2 N 0.4460(6) 0.3619(4) 0.3695(6)
C1 C 0.5380(7) 0.1440(4) 0.5425(7)
C2 C 0.5086(7) 0.2211(4) 0.4800(6)
C3 C 0.5509(8) 0.2878(4) 0.5498(6)
H1 H 0.5992 0.2851 0.6346
C4 C 0.5204(8) 0.3570(5) 0.4914(6)
H2 H 0.5516 0.4014 0.5367
C5 C 0.4053(9) 0.2981(5) 0.3009(6)
H3 H 0.3550 0.3021 0.2166
C6 C 0.4372(9) 0.2271(5) 0.3541(7)
H4 H 0.4109 0.1834 0.3057
Eu6 Eu 0.50940(3) 0.49272(2) 0.18105(3)
O10 O 0.3530(6) 0.0820(4) 0.1553(5)
O16 O 0.4124(6) 0.0707(3) 0.8170(5)
O17 O 0.2714(6) 0.0151(4) 0.3463(5)
O18 O 0.2897(5) 0.0477(3) 0.5409(4)
O21 O 0.6463(5) 0.0821(3) 0.2745(5)
N4 N 0.2682(9) 0.0319(6) 0.0909(6)
C19 C 0.2229(7) 0.0382(4) 0.4266(7)
C20 C 0.0697(6) 0.0545(4) 0.3831(6)
H13 H 0.0184 0.0086 0.2114
C24 C 0.0080(8) 0.0902(5) 0.4606(7)
H16 H 0.0632 0.1070 0.5389
O22 O 0.1682(11) 0.0490(8) 0.0051(8)
O1 O 0.6470(6) 0.9180(4) 0.8447(5)
O6 O 0.7286(6) 0.9849(4) 0.6537(5)
O7 O 0.7103(5) 0.9523(3) 0.4591(4)
N1 N 0.7318(9) 0.9681(6) 0.9091(6)
C7 C 0.7771(7) 0.9618(4) 0.5734(7)
C8 C 0.9303(6) 0.9455(4) 0.6169(6)
H5 H 0.9816 0.9914 0.7886
C12 C 0.9920(8) 0.9098(5) 0.5394(7)
H8 H 0.9368 0.8930 0.4611
O9 O 0.8318(11) 0.9510(8) 0.9949(8)
Eu2 Eu 0.49060(3) 0.99272(2) 0.31895(3)
Eu4 Eu 0.49060(3) 0.50728(2) 0.81895(3)
O11 O 0.2964(7) 0.9631(4) 0.1184(6)
O12 O 0.4392(6) 0.8590(3) 0.3435(4)
O13 O 0.4745(6) 0.9148(3) 0.5227(5)
O14 O 0.5876(6) 0.5707(3) 0.6830(5)
O15 O 0.5876(6) 0.9293(3) 0.1830(5)
N5 N 0.5540(6) 0.6381(4) 0.6305(6)
C13 C 0.4620(7) 0.8560(4) 0.4575(7)
C14 C 0.4914(7) 0.7789(4) 0.5200(6)
C15 C 0.4491(8) 0.7122(4) 0.4502(6)
H9 H 0.4008 0.7149 0.3654
C16 C 0.4796(8) 0.6430(5) 0.5086(6)
H10 H 0.4484 0.5986 0.4633
C17 C 0.5947(9) 0.7019(5) 0.6991(6)
H11 H 0.6450 0.6979 0.7834
C18 C 0.5628(9) 0.7729(5) 0.6459(7)
H12 H 0.5891 0.8166 0.6943
N6 N 0.7853(6) 0.0746(4) 0.3108(5)
C21 C 0.9811(8) 0.0314(5) 0.2664(7)
C22 C 0.8390(7) 0.0418(5) 0.2316(7)
H14 H 0.7808 0.0262 0.1536
C23 C 0.8657(8) 0.1004(5) 0.4214(7)
H15 H 0.8254 0.1255 0.4723
O19 O 0.3537(5) 0.5821(3) 0.2255(5)
N6_2 N 0.2147(6) 0.5746(4) 0.1892(5)
C21_2 C 0.0189(8) 0.5314(5) 0.2336(7)
C22_2 C 0.1610(7) 0.5418(5) 0.2684(7)
H14_2 H 0.2192 0.5262 0.3464
C23_2 C 0.1343(8) 0.6004(5) 0.0786(7)
H15_2 H 0.1746 0.6255 0.0277
O4_2 O 0.4745(6) 0.5852(3) 0.0227(5)
O7_2 O 0.2897(5) 0.4523(3) 0.0409(4)
N2_2 N 0.5540(6) 0.8619(4) 0.1305(6)
C2_2 C 0.4914(7) 0.7211(4) 0.0200(6)
C4_2 C 0.4796(8) 0.8570(5) 0.0086(6)
C5_2 C 0.5947(9) 0.7981(5) 0.1991(6)
H3_2 H 0.6450 0.8021 0.2834
C6_2 C 0.5628(9) 0.7271(5) 0.1459(7)
H4_2 H 0.5891 0.6834 0.1943
H8_2 H 0.0632 0.3930 0.0389
O10_2 O 0.6470(6) 0.5820(4) 0.3447(5)
O11_2 O 0.7036(7) 0.4631(4) 0.3816(6)
O12_2 O 0.5608(6) 0.3590(3) 0.1565(4)
O17_2 O 0.7286(6) 0.5151(4) 0.1537(5)
N4_2 N 0.7318(9) 0.5319(6) 0.4091(6)
C13_2 C 0.5380(7) 0.3560(4) 0.0425(7)
C15_2 C 0.5509(8) 0.2122(4) 0.0498(6)
H9_2 H 0.5992 0.2149 0.1346
H10_2 H 0.5516 0.0986 0.0367
C19_2 C 0.7771(7) 0.5382(4) 0.0734(7)
C20_2 C 0.9303(6) 0.5545(4) 0.1169(6)
H13_2 H 0.9816 0.5086 0.2886
C24_2 C 0.9920(8) 0.5902(5) 0.0394(7)
O22_2 O 0.8318(11) 0.5490(8) 0.4949(8)
O1_2 O 0.3530(6) 0.4180(4) 0.6553(5)
O2_2 O 0.2964(7) 0.5369(4) 0.6184(6)
O3_2 O 0.4392(6) 0.6410(3) 0.8435(4)
O6_2 O 0.2714(6) 0.4849(4) 0.8463(5)
N1_2 N 0.2682(9) 0.4681(6) 0.5909(6)
C1_2 C 0.4620(7) 0.6440(4) 0.9575(7)
C3_2 C 0.4491(8) 0.7878(4) 0.9502(6)
H1_2 H 0.4008 0.7851 0.8654
H2_2 H 0.4484 0.9014 0.9633
C7_2 C 0.2229(7) 0.4618(4) 0.9266(7)
C8_2 C 0.0697(6) 0.4455(4) 0.8831(6)
H5_2 H 0.0184 0.4914 0.7114
C12_2 C 0.0080(8) 0.4098(5) 0.9606(7)
O9_2 O 0.1682(11) 0.4510(8) 0.5051(8)
O13_2 O 0.5255(6) 0.4148(3) 0.9773(5)
O18_2 O 0.7103(5) 0.5477(3) 0.9591(4)
O20 O 0.6463(5) 0.4179(3) 0.7745(5)
N5_2 N 0.4460(6) 0.1381(4) 0.8695(6)
C14_2 C 0.5086(7) 0.2789(4) 0.9800(6)
C16_2 C 0.5204(8) 0.1430(5) 0.9914(6)
C17_2 C 0.4053(9) 0.2019(5) 0.8009(6)
H11_2 H 0.3550 0.1979 0.7166
C18_2 C 0.4372(9) 0.2729(5) 0.8541(7)
H12_2 H 0.4109 0.3166 0.8057
H16_2 H 0.9368 0.6070 0.9611
N3_2 N 0.7853(6) 0.4254(4) 0.8108(5)
C9_2 C 0.9811(8) 0.4686(5) 0.7664(7)
C10_2 C 0.8390(7) 0.4582(5) 0.7316(7)
H6_2 H 0.7808 0.4738 0.6536
C11_2 C 0.8657(8) 0.3996(5) 0.9214(7)
H7_2 H 0.8254 0.3745 0.9723
loop_
_geom_bond_atom_site_label_1
_geom_bond_atom_site_label_2
_geom_bond_site_symmetry_1
_geom_bond_site_symmetry_2
O8 N3 1_555 1_555
N3 C10 1_555 1_555
C10 C9 1_555 1_555
H6 C10 1_555 1_555
C11 N3 1_555 1_555
H7 C11 1_555 1_555
O2 Eu3 1_555 1_555
O3 Eu3 1_555 1_555
O4 Eu3 1_555 1_555
O5 N2 1_555 1_555
N2 C4 1_555 1_555
C1 O3 1_555 1_555
C2 C1 1_555 1_555
C3 C2 1_555 1_555
H1 C3 1_555 1_555
C4 C3 1_555 1_555
H2 C4 1_555 1_555
C5 N2 1_555 1_555
H3 C5 1_555 1_555
C6 C2 1_555 1_555
H4 C6 1_555 1_555
Eu6 O5 1_555 1_555
O16 Eu3 1_555 1_555
O18 Eu3 1_555 1_555
N4 O10 1_555 1_555
C19 O17 1_555 1_555
C20 C19 1_555 1_555
C24 C20 1_555 1_555
H16 C24 1_555 1_555
O22 N4 1_555 1_555
O4 C1 1_555 1_555
C5 C6 1_555 1_555
O18 C19 1_555 1_555
O1 N1 1_555 1_555
O7 C7 1_555 1_555
C7 O6 1_555 1_555
C8 C7 1_555 1_555
C12 C8 1_555 1_555
H8 C12 1_555 1_555
O9 N1 1_555 1_555
Eu4 O14 1_555 1_555
O11 Eu2 1_555 1_555
O12 Eu2 1_555 1_555
O14 N5 1_555 1_555
O15 Eu2 1_555 1_555
N5 C16 1_555 1_555
C13 O12 1_555 1_555
C14 C13 1_555 1_555
C15 C14 1_555 1_555
H9 C15 1_555 1_555
C16 C15 1_555 1_555
H10 C16 1_555 1_555
C17 N5 1_555 1_555
H11 C17 1_555 1_555
C18 C14 1_555 1_555
H12 C18 1_555 1_555
O7 Eu2 1_555 1_555
Eu2 O13 1_555 1_555
O13 C13 1_555 1_555
C17 C18 1_555 1_555
O21 N6 1_555 1_555
N6 C22 1_555 1_555
C22 C21 1_555 1_555
H14 C22 1_555 1_555
C23 N6 1_555 1_555
H15 C23 1_555 1_555
Eu6 O19 1_555 1_555
O19 N6_2 1_555 1_555
N6_2 C22_2 1_555 1_555
C22_2 C21_2 1_555 1_555
H14_2 C22_2 1_555 1_555
C23_2 N6_2 1_555 1_555
H15_2 C23_2 1_555 1_555
O15 N2_2 1_555 1_555
N2_2 C4_2 1_555 1_555
C5_2 N2_2 1_555 1_555
H3_2 C5_2 1_555 1_555
C6_2 C2_2 1_555 1_555
H4_2 C6_2 1_555 1_555
Eu6 O4_2 1_555 1_555
O10_2 Eu6 1_555 1_555
O11_2 Eu6 1_555 1_555
O12_2 Eu6 1_555 1_555
O17_2 Eu6 1_555 1_555
N4_2 O10_2 1_555 1_555
C13_2 O12_2 1_555 1_555
H9_2 C15_2 1_555 1_555
C19_2 O17_2 1_555 1_555
C20_2 C19_2 1_555 1_555
C24_2 C20_2 1_555 1_555
O22_2 N4_2 1_555 1_555
O7_2 Eu6 1_555 1_555
C5_2 C6_2 1_555 1_555
O11_2 N4_2 1_555 1_555
Eu4 O1_2 1_555 1_555
O1_2 N1_2 1_555 1_555
O2_2 Eu4 1_555 1_555
O3_2 Eu4 1_555 1_555
O6_2 Eu4 1_555 1_555
N1_2 O2_2 1_555 1_555
C1_2 O3_2 1_555 1_555
H1_2 C3_2 1_555 1_555
C7_2 O6_2 1_555 1_555
C8_2 C7_2 1_555 1_555
C12_2 C8_2 1_555 1_555
O9_2 N1_2 1_555 1_555
O13_2 Eu4 1_555 1_555
O16 N5_2 1_555 1_555
O18_2 Eu4 1_555 1_555
O20 Eu4 1_555 1_555
N5_2 C16_2 1_555 1_555
C17_2 N5_2 1_555 1_555
H11_2 C17_2 1_555 1_555
C18_2 C14_2 1_555 1_555
H12_2 C18_2 1_555 1_555
C17_2 C18_2 1_555 1_555
O20 N3_2 1_555 1_555
N3_2 C10_2 1_555 1_555
C10_2 C9_2 1_555 1_555
H6_2 C10_2 1_555 1_555
C11_2 N3_2 1_555 1_555
H7_2 C11_2 1_555 1_555

#END
