
###############################################################################
#
# This file contains modified crystal structure data generated from the
# MOF subset of the Cambridge Structural Database (CSD) v543 
# hosted by the Cambridge Crystallographic Data Centre (CCDC).
#
# This work is licensed under the Creative Commons
# Attribution-NonCommercial-ShareAlike 4.0 International License.
# To view a copy of this license, visit
# http://creativecommons.org/licenses/by-nc-sa/4.0/
# or send a letter to
# Creative Commons, PO Box 1866, Mountain View, CA 94042, USA.
#
# CIF created using the CSD Python API on 29 September 2022
# The structure has been converted into the P1 space group
# The structure has a 3D framework
# The original CSD entry WEHNAA is in the monoclinic crystal system
# The framework has been calculated to contain at least 10.0% void space
# The void calculation uses a probe of radius 1.32A, grid spacing 0.4
# H atom positions have been added when not included in the experimental data
#
###############################################################################

data_WEHNAA
_chemical_formula_moiety         '(C48 H112 Mg4 N8 O42 P16)n'
_symmetry_cell_setting           triclinic
_symmetry_space_group_name_H-M   'P 1'
_symmetry_Int_Tables_number      1
_space_group_name_Hall           'P 1'
loop_
_symmetry_equiv_pos_site_id
_symmetry_equiv_pos_as_xyz
1 x,y,z
_cell_length_a                   29.5522(9)
_cell_length_b                   8.61740(17)
_cell_length_c                   9.70301(20)
_cell_angle_alpha                90
_cell_angle_beta                 95.4401(18)
_cell_angle_gamma                90
_cell_volume                     2459.87
loop_
_atom_site_label
_atom_site_type_symbol
_atom_site_fract_x
_atom_site_fract_y
_atom_site_fract_z
_atom_site_U_iso_or_equiv
_atom_site_thermal_displace_type
Mg1 Mg 0.25000 0.7500 0.0000 0.0150 Uiso
P1 P 0.14952(20) 0.5741(6) 0.0611(6) 0.0150 Uiso
O3 O 0.1480(4) 0.6150(10) 0.2109(7) 0.0150 Uiso
O4 O 0.2316(4) 0.0712(10) 0.3676(8) 0.0150 Uiso
C1 C 0.1739(4) 0.3836(8) 0.0403(12) 0.0150 Uiso
C2 C 0.1968(4) 0.1280(11) 0.1077(10) 0.0150 Uiso
N1 N 0.17425(33) 0.2705(10) 0.1563(10) 0.0150 Uiso
C3 C 0.12574(34) 0.2394(14) 0.1767(12) 0.0150 Uiso
C4 C 0.10200(34) 0.1403(17) 0.0652(13) 0.0150 Uiso
C5 C 0.05481(32) 0.1020(18) 0.0903(14) 0.0150 Uiso
Mg2 Mg 0.25000 0.2500 0.5000 0.0150 Uiso
O8 O 0.31962(28) 0.8209(10) 0.0169(9) 0.0150 Uiso
O13 O 0.2684(4) 0.5712(10) 0.1324(8) 0.0150 Uiso
O15 O 0.24884(31) 0.8788(10) 0.1864(9) 0.0150 Uiso
H4 H 0.17336 0.0724047 0.0294636 . .
H5 H 0.227282 0.163851 0.0613533 . .
H6 H 0.209093 0.400953 0.0192653 . .
H8 H 0.0375012 0.212257 0.101227 . .
H9 H 0.0568005 0.0395304 0.188249 . .
H10 H 0.120962 0.032581 0.0588873 . .
H12 H 0.107952 0.349939 0.178637 . .
H13 H 0.124379 0.180637 0.275583 . .
Mg1_2 Mg 0.25000 0.7500 1.0000 0.0150 Uiso
O1 O 0.18038(28) 0.6791(10) 0.9831(9) 0.0150 Uiso
O2 O 0.09984(25) 0.5675(11) 0.9951(10) 0.0150 Uiso
C6 C 0.02491(16) 0.0085(19) 0.9904(14) 0.0150 Uiso
O12 O 0.2316(4) 0.9288(10) 0.8676(8) 0.0150 Uiso
O16 O 0.25116(31) 0.6212(10) 0.8136(9) 0.0150 Uiso
H2 H 0.0269075 0.0602326 0.888758 . .
H3 H 0.0992361 0.527081 0.899106 . .
H7 H 0.155065 0.330182 0.950692 . .
H11 H 0.101468 0.202201 0.967213 . .
P2 P 0.21326(20) 0.9860(5) 0.2401(6) 0.0150 Uiso
O6 O 0.17077(27) 0.9065(10) 0.2805(11) 0.0150 Uiso
H1 H 0.0391181 0.891854 0.991568 . .
Mg6 Mg 0.75000 0.2500 0.0000 0.0150 Uiso
H16 H 0.960882 0.108146 0.00843192 . .
Mg6_2 Mg 0.75000 0.2500 1.0000 0.0150 Uiso
P4 P 0.78674(20) 0.0140(5) 0.7599(6) 0.0150 Uiso
O14 O 0.75116(31) 0.1212(10) 0.8136(9) 0.0150 Uiso
O17 O 0.82923(27) 0.0935(10) 0.7195(11) 0.0150 Uiso
O7 O 0.81962(28) 0.3209(10) 0.0169(9) 0.0150 Uiso
O9 O 0.90016(25) 0.4325(11) 0.0049(10) 0.0150 Uiso
C12 C 0.97509(16) 0.9915(19) 0.0096(14) 0.0150 Uiso
H17 H 0.973092 0.939767 0.111242 . .
H20 H 0.913494 0.326665 0.00675602 . .
H23 H 0.898532 0.797799 0.032787 . .
H25 H 0.844935 0.669818 0.0493079 . .
Mg5 Mg 0.75000 0.7500 0.5000 0.0150 Uiso
P3 P 0.85048(20) 0.4259(6) 0.9389(6) 0.0150 Uiso
O10 O 0.8520(4) 0.3850(10) 0.7891(7) 0.0150 Uiso
O11 O 0.7684(4) 0.9288(10) 0.6324(8) 0.0150 Uiso
C7 C 0.8261(4) 0.6164(8) 0.9597(12) 0.0150 Uiso
C8 C 0.8032(4) 0.8720(11) 0.8923(10) 0.0150 Uiso
N2 N 0.82575(33) 0.7295(10) 0.8437(10) 0.0150 Uiso
C9 C 0.87426(34) 0.7606(14) 0.8233(12) 0.0150 Uiso
C10 C 0.89800(34) 0.8597(17) 0.9348(13) 0.0150 Uiso
C11 C 0.94519(32) 0.8980(18) 0.9097(14) 0.0150 Uiso
H14 H 0.943199 0.96047 0.811751 . .
H15 H 0.962499 0.787743 0.898773 . .
H18 H 0.875621 0.819363 0.724417 . .
H19 H 0.892048 0.650061 0.821363 . .
H21 H 0.772718 0.836149 0.938647 . .
H22 H 0.82664 0.927595 0.970536 . .
H24 H 0.879038 0.967419 0.941113 . .
H26 H 0.790907 0.599047 0.980735 . .
P4_2 P 0.21326(20) 0.0140(5) 0.7401(6) 0.0150 Uiso
O14_2 O 0.24884(31) 0.1212(10) 0.6864(9) 0.0150 Uiso
O17_2 O 0.17077(27) 0.0935(10) 0.7805(11) 0.0150 Uiso
H16_2 H 0.0391181 0.108146 0.491568 . .
P3_2 P 0.14952(20) 0.4259(6) 0.5611(6) 0.0150 Uiso
O7_2 O 0.18038(28) 0.3209(10) 0.4831(9) 0.0150 Uiso
O9_2 O 0.09984(25) 0.4325(11) 0.4951(10) 0.0150 Uiso
O10_2 O 0.1480(4) 0.3850(10) 0.7109(7) 0.0150 Uiso
C7_2 C 0.1739(4) 0.6164(8) 0.5403(12) 0.0150 Uiso
C8_2 C 0.1968(4) 0.8720(11) 0.6077(10) 0.0150 Uiso
N2_2 N 0.17425(33) 0.7295(10) 0.6563(10) 0.0150 Uiso
C9_2 C 0.12574(34) 0.7606(14) 0.6767(12) 0.0150 Uiso
C10_2 C 0.10200(34) 0.8597(17) 0.5652(13) 0.0150 Uiso
C11_2 C 0.05481(32) 0.8980(18) 0.5903(14) 0.0150 Uiso
C12_2 C 0.02491(16) 0.9915(19) 0.4904(14) 0.0150 Uiso
H14_2 H 0.0568005 0.96047 0.688249 . .
H15_2 H 0.0375012 0.787743 0.601227 . .
H17_2 H 0.0269075 0.939767 0.388758 . .
H18_2 H 0.124379 0.819363 0.775583 . .
H19_2 H 0.107952 0.650061 0.678637 . .
H20_2 H 0.0865056 0.326665 0.493244 . .
H21_2 H 0.227282 0.836149 0.561353 . .
H22_2 H 0.17336 0.927595 0.529464 . .
H23_2 H 0.101468 0.797799 0.467213 . .
H24_2 H 0.120962 0.967419 0.558887 . .
H25_2 H 0.155065 0.669818 0.450692 . .
H26_2 H 0.209093 0.599047 0.519265 . .
P1_2 P 0.85048(20) 0.5741(6) 0.4389(6) 0.0150 Uiso
O1_2 O 0.81962(28) 0.6791(10) 0.5169(9) 0.0150 Uiso
O2_2 O 0.90016(25) 0.5675(11) 0.5049(10) 0.0150 Uiso
O3_2 O 0.8520(4) 0.6150(10) 0.2891(7) 0.0150 Uiso
O4_2 O 0.7684(4) 0.0712(10) 0.1324(8) 0.0150 Uiso
C1_2 C 0.8261(4) 0.3836(8) 0.4597(12) 0.0150 Uiso
C2_2 C 0.8032(4) 0.1280(11) 0.3923(10) 0.0150 Uiso
N1_2 N 0.82575(33) 0.2705(10) 0.3437(10) 0.0150 Uiso
C3_2 C 0.87426(34) 0.2394(14) 0.3233(12) 0.0150 Uiso
C4_2 C 0.89800(34) 0.1403(17) 0.4348(13) 0.0150 Uiso
C5_2 C 0.94519(32) 0.1020(18) 0.4097(14) 0.0150 Uiso
C6_2 C 0.97509(16) 0.0085(19) 0.5096(14) 0.0150 Uiso
O8_2 O 0.68038(28) 0.8209(10) 0.4831(9) 0.0150 Uiso
O13_2 O 0.7316(4) 0.5712(10) 0.3676(8) 0.0150 Uiso
O15_2 O 0.75116(31) 0.8788(10) 0.3136(9) 0.0150 Uiso
O16_2 O 0.74884(31) 0.6212(10) 0.6864(9) 0.0150 Uiso
H2_2 H 0.973092 0.0602326 0.611242 . .
H3_2 H 0.900764 0.527081 0.600894 . .
H4_2 H 0.82664 0.0724047 0.470536 . .
H5_2 H 0.772718 0.163851 0.438647 . .
H6_2 H 0.790907 0.400953 0.480735 . .
H7_2 H 0.844935 0.330182 0.549308 . .
H8_2 H 0.962499 0.212257 0.398773 . .
H9_2 H 0.943199 0.0395304 0.311751 . .
H10_2 H 0.879038 0.032581 0.441113 . .
H11_2 H 0.898532 0.202201 0.532787 . .
H12_2 H 0.892048 0.349939 0.321363 . .
H13_2 H 0.875621 0.180637 0.224417 . .
P2_2 P 0.78674(20) 0.9860(5) 0.2599(6) 0.0150 Uiso
O6_2 O 0.82923(27) 0.9065(10) 0.2195(11) 0.0150 Uiso
H1_2 H 0.960882 0.891854 0.508432 . .
P1_3 P 0.64952(20) 0.0741(6) 0.0611(6) 0.0150 Uiso
O3_3 O 0.6480(4) 0.1150(10) 0.2109(7) 0.0150 Uiso
O15_3 O 0.74884(31) 0.3788(10) 0.1864(9) 0.0150 Uiso
O1_3 O 0.68038(28) 0.1791(10) 0.9831(9) 0.0150 Uiso
O2_3 O 0.59984(25) 0.0675(11) 0.9951(10) 0.0150 Uiso
O12_2 O 0.7316(4) 0.4288(10) 0.8676(8) 0.0150 Uiso
H3_3 H 0.599236 0.0270812 0.899106 . .
P2_3 P 0.71326(20) 0.4860(5) 0.2401(6) 0.0150 Uiso
O6_3 O 0.67077(27) 0.4065(10) 0.2805(11) 0.0150 Uiso
C1_3 C 0.6739(4) 0.8836(8) 0.0403(12) 0.0150 Uiso
C2_3 C 0.6968(4) 0.6280(11) 0.1077(10) 0.0150 Uiso
N1_3 N 0.67425(33) 0.7705(10) 0.1563(10) 0.0150 Uiso
C3_3 C 0.62574(34) 0.7394(14) 0.1767(12) 0.0150 Uiso
C4_3 C 0.60200(34) 0.6403(17) 0.0652(13) 0.0150 Uiso
C5_3 C 0.55481(32) 0.6020(18) 0.0903(14) 0.0150 Uiso
C12_3 C 0.47509(16) 0.4915(19) 0.0096(14) 0.0150 Uiso
H4_3 H 0.67336 0.572405 0.0294636 . .
H5_3 H 0.727282 0.663851 0.0613533 . .
H6_3 H 0.709093 0.900953 0.0192653 . .
H8_3 H 0.537501 0.712257 0.101227 . .
H9_3 H 0.556801 0.53953 0.188249 . .
H10_3 H 0.620962 0.532581 0.0588873 . .
H12_3 H 0.607952 0.849939 0.178637 . .
H13_3 H 0.624379 0.680637 0.275583 . .
H16_3 H 0.460882 0.608146 0.00843192 . .
H17_3 H 0.473092 0.439767 0.111242 . .
H23_3 H 0.398532 0.297799 0.032787 . .
H25_3 H 0.344935 0.169818 0.0493079 . .
C6_3 C 0.52491(16) 0.5085(19) 0.9904(14) 0.0150 Uiso
P4_3 P 0.28674(20) 0.5140(5) 0.7599(6) 0.0150 Uiso
O11_2 O 0.2684(4) 0.4288(10) 0.6324(8) 0.0150 Uiso
O17_3 O 0.32923(27) 0.5935(10) 0.7195(11) 0.0150 Uiso
C7_3 C 0.3261(4) 0.1164(8) 0.9597(12) 0.0150 Uiso
C8_3 C 0.3032(4) 0.3720(11) 0.8923(10) 0.0150 Uiso
N2_3 N 0.32575(33) 0.2295(10) 0.8437(10) 0.0150 Uiso
C9_3 C 0.37426(34) 0.2606(14) 0.8233(12) 0.0150 Uiso
C10_3 C 0.39800(34) 0.3597(17) 0.9348(13) 0.0150 Uiso
C11_3 C 0.44519(32) 0.3980(18) 0.9097(14) 0.0150 Uiso
H1_3 H 0.539118 0.391854 0.991568 . .
H2_3 H 0.526908 0.560233 0.888758 . .
H7_3 H 0.655065 0.830182 0.950692 . .
H11_3 H 0.601468 0.702201 0.967213 . .
H14_3 H 0.443199 0.46047 0.811751 . .
H15_3 H 0.462499 0.287743 0.898773 . .
H18_3 H 0.375621 0.319363 0.724417 . .
H19_3 H 0.392048 0.150061 0.821363 . .
H21_3 H 0.272718 0.336149 0.938647 . .
H22_3 H 0.32664 0.427595 0.970536 . .
H24_3 H 0.379038 0.467419 0.941113 . .
H26_3 H 0.290907 0.0990468 0.980735 . .
O9_3 O 0.40016(25) 0.9325(11) 0.0049(10) 0.0150 Uiso
H20_3 H 0.413494 0.826665 0.00675602 . .
P3_3 P 0.35048(20) 0.9259(6) 0.9389(6) 0.0150 Uiso
O10_3 O 0.3520(4) 0.8850(10) 0.7891(7) 0.0150 Uiso
P1_4 P 0.35048(20) 0.0741(6) 0.4389(6) 0.0150 Uiso
O1_4 O 0.31962(28) 0.1791(10) 0.5169(9) 0.0150 Uiso
O2_4 O 0.40016(25) 0.0675(11) 0.5049(10) 0.0150 Uiso
O3_4 O 0.3520(4) 0.1150(10) 0.2891(7) 0.0150 Uiso
O15_4 O 0.25116(31) 0.3788(10) 0.3136(9) 0.0150 Uiso
H3_4 H 0.400764 0.0270812 0.600894 . .
P2_4 P 0.28674(20) 0.4860(5) 0.2599(6) 0.0150 Uiso
O6_4 O 0.32923(27) 0.4065(10) 0.2195(11) 0.0150 Uiso
C1_4 C 0.3261(4) 0.8836(8) 0.4597(12) 0.0150 Uiso
C2_4 C 0.3032(4) 0.6280(11) 0.3923(10) 0.0150 Uiso
N1_4 N 0.32575(33) 0.7705(10) 0.3437(10) 0.0150 Uiso
C3_4 C 0.37426(34) 0.7394(14) 0.3233(12) 0.0150 Uiso
C4_4 C 0.39800(34) 0.6403(17) 0.4348(13) 0.0150 Uiso
C5_4 C 0.44519(32) 0.6020(18) 0.4097(14) 0.0150 Uiso
C6_4 C 0.47509(16) 0.5085(19) 0.5096(14) 0.0150 Uiso
P4_4 P 0.71326(20) 0.5140(5) 0.7401(6) 0.0150 Uiso
O17_4 O 0.67077(27) 0.5935(10) 0.7805(11) 0.0150 Uiso
C7_4 C 0.6739(4) 0.1164(8) 0.5403(12) 0.0150 Uiso
C8_4 C 0.6968(4) 0.3720(11) 0.6077(10) 0.0150 Uiso
N2_4 N 0.67425(33) 0.2295(10) 0.6563(10) 0.0150 Uiso
C9_4 C 0.62574(34) 0.2606(14) 0.6767(12) 0.0150 Uiso
C10_4 C 0.60200(34) 0.3597(17) 0.5652(13) 0.0150 Uiso
C11_4 C 0.55481(32) 0.3980(18) 0.5903(14) 0.0150 Uiso
C12_4 C 0.52491(16) 0.4915(19) 0.4904(14) 0.0150 Uiso
H1_4 H 0.460882 0.391854 0.508432 . .
H2_4 H 0.473092 0.560233 0.611242 . .
H4_4 H 0.32664 0.572405 0.470536 . .
H5_4 H 0.272718 0.663851 0.438647 . .
H6_4 H 0.290907 0.900953 0.480735 . .
H7_4 H 0.344935 0.830182 0.549308 . .
H8_4 H 0.462499 0.712257 0.398773 . .
H9_4 H 0.443199 0.53953 0.311751 . .
H10_4 H 0.379038 0.532581 0.441113 . .
H11_4 H 0.398532 0.702201 0.532787 . .
H12_4 H 0.392048 0.849939 0.321363 . .
H13_4 H 0.375621 0.680637 0.224417 . .
H14_4 H 0.556801 0.46047 0.688249 . .
H15_4 H 0.537501 0.287743 0.601227 . .
H16_4 H 0.539118 0.608146 0.491568 . .
H17_4 H 0.526908 0.439767 0.388758 . .
H18_4 H 0.624379 0.319363 0.775583 . .
H19_4 H 0.607952 0.150061 0.678637 . .
H21_4 H 0.727282 0.336149 0.561353 . .
H22_4 H 0.67336 0.427595 0.529464 . .
H23_4 H 0.601468 0.297799 0.467213 . .
H24_4 H 0.620962 0.467419 0.558887 . .
H25_4 H 0.655065 0.169818 0.450692 . .
H26_4 H 0.709093 0.0990468 0.519265 . .
P3_4 P 0.64952(20) 0.9259(6) 0.5611(6) 0.0150 Uiso
O9_4 O 0.59984(25) 0.9325(11) 0.4951(10) 0.0150 Uiso
O10_4 O 0.6480(4) 0.8850(10) 0.7109(7) 0.0150 Uiso
H20_4 H 0.586506 0.826665 0.493244 . .
H20_5 H 0.0865056 0.673335 0.993244 . .
H3_5 H 0.900764 0.472919 0.100894 . .
H3_6 H 0.0992361 0.472919 0.399106 . .
H20_6 H 0.913494 0.673335 0.506756 . .
H20_7 H 0.586506 0.173335 0.993244 . .
H3_7 H 0.400764 0.972919 0.100894 . .
H20_8 H 0.413494 0.173335 0.506756 . .
H3_8 H 0.599236 0.972919 0.399106 . .
loop_
_geom_bond_atom_site_label_1
_geom_bond_atom_site_label_2
_geom_bond_site_symmetry_1
_geom_bond_site_symmetry_2
O3 P1 1_555 1_555
O4 Mg2 1_555 1_555
C1 P1 1_555 1_555
N1 C1 1_555 1_555
C3 N1 1_555 1_555
C4 C3 1_555 1_555
C5 C4 1_555 1_555
O8 Mg1 1_555 1_555
O13 Mg1 1_555 1_555
O15 Mg1 1_555 1_555
C2 N1 1_555 1_555
C2 H4 1_555 1_555
C2 H5 1_555 1_555
C1 H6 1_555 1_555
C5 H8 1_555 1_555
C5 H9 1_555 1_555
C4 H10 1_555 1_555
C3 H12 1_555 1_555
C3 H13 1_555 1_555
Mg1_2 O1 1_555 1_555
O12 Mg1_2 1_555 1_555
O16 Mg1_2 1_555 1_555
C6 H2 1_555 1_555
O2 H3 1_555 1_555
O15 P2 1_555 1_555
O6 P2 1_555 1_555
Mg6_2 O14 1_555 1_555
O14 P4 1_555 1_555
O17 P4 1_555 1_555
Mg6 O7 1_555 1_555
C12 H17 1_555 1_555
O9 H20 1_555 1_555
Mg5 O11 1_555 1_555
O10 P3 1_555 1_555
C7 P3 1_555 1_555
N2 C7 1_555 1_555
C9 N2 1_555 1_555
C10 C9 1_555 1_555
C11 C10 1_555 1_555
C8 N2 1_555 1_555
C11 H14 1_555 1_555
C11 H15 1_555 1_555
C9 H18 1_555 1_555
C9 H19 1_555 1_555
C8 H21 1_555 1_555
C8 H22 1_555 1_555
C10 H24 1_555 1_555
C7 H26 1_555 1_555
Mg2 O14_2 1_555 1_555
O14_2 P4_2 1_555 1_555
O17_2 P4_2 1_555 1_555
Mg2 O7_2 1_555 1_555
P3_2 O7_2 1_555 1_555
O9_2 P3_2 1_555 1_555
O10_2 P3_2 1_555 1_555
C7_2 P3_2 1_555 1_555
N2_2 C7_2 1_555 1_555
C9_2 N2_2 1_555 1_555
C10_2 C9_2 1_555 1_555
C11_2 C10_2 1_555 1_555
C8_2 N2_2 1_555 1_555
C11_2 C12_2 1_555 1_555
C11_2 H14_2 1_555 1_555
C11_2 H15_2 1_555 1_555
C12_2 H17_2 1_555 1_555
C9_2 H18_2 1_555 1_555
C9_2 H19_2 1_555 1_555
O9_2 H20_2 1_555 1_555
C8_2 H21_2 1_555 1_555
C8_2 H22_2 1_555 1_555
C10_2 H23_2 1_555 1_555
C10_2 H24_2 1_555 1_555
C7_2 H25_2 1_555 1_555
C7_2 H26_2 1_555 1_555
Mg5 O1_2 1_555 1_555
P1_2 O1_2 1_555 1_555
O2_2 P1_2 1_555 1_555
O3_2 P1_2 1_555 1_555
O4_2 Mg6 1_555 1_555
C1_2 P1_2 1_555 1_555
N1_2 C1_2 1_555 1_555
C3_2 N1_2 1_555 1_555
C4_2 C3_2 1_555 1_555
C5_2 C4_2 1_555 1_555
C6_2 C5_2 1_555 1_555
O8_2 Mg5 1_555 1_555
O13_2 Mg5 1_555 1_555
O15_2 Mg5 1_555 1_555
O16_2 Mg5 1_555 1_555
C2_2 N1_2 1_555 1_555
C6_2 H2_2 1_555 1_555
O2_2 H3_2 1_555 1_555
C2_2 H4_2 1_555 1_555
C2_2 H5_2 1_555 1_555
C1_2 H6_2 1_555 1_555
C1_2 H7_2 1_555 1_555
C5_2 H8_2 1_555 1_555
C5_2 H9_2 1_555 1_555
C4_2 H10_2 1_555 1_555
C4_2 H11_2 1_555 1_555
C3_2 H12_2 1_555 1_555
C3_2 H13_2 1_555 1_555
O15_2 P2_2 1_555 1_555
O6_2 P2_2 1_555 1_555
O3_3 P1_3 1_555 1_555
O15_3 Mg6 1_555 1_555
Mg6_2 O1_3 1_555 1_555
O12_2 Mg6_2 1_555 1_555
O2_3 H3_3 1_555 1_555
P2_3 O13_2 1_555 1_555
O15_3 P2_3 1_555 1_555
O6_3 P2_3 1_555 1_555
C2_3 P2_3 1_555 1_555
N1_3 C1_3 1_555 1_555
C3_3 N1_3 1_555 1_555
C4_3 C3_3 1_555 1_555
C5_3 C4_3 1_555 1_555
C2_3 N1_3 1_555 1_555
C2_3 H4_3 1_555 1_555
C2_3 H5_3 1_555 1_555
C1_3 H6_3 1_555 1_555
C5_3 H8_3 1_555 1_555
C5_3 H9_3 1_555 1_555
C4_3 H10_3 1_555 1_555
C3_3 H12_3 1_555 1_555
C3_3 H13_3 1_555 1_555
C12_3 H16_3 1_555 1_555
C12_3 H17_3 1_555 1_555
Mg2 O11_2 1_555 1_555
P4_3 O11_2 1_555 1_555
O16 P4_3 1_555 1_555
O17_3 P4_3 1_555 1_555
C8_3 P4_3 1_555 1_555
N2_3 C7_3 1_555 1_555
C9_3 N2_3 1_555 1_555
C10_3 C9_3 1_555 1_555
C11_3 C10_3 1_555 1_555
C8_3 N2_3 1_555 1_555
C6_3 H1_3 1_555 1_555
C6_3 H2_3 1_555 1_555
C11_3 H14_3 1_555 1_555
C11_3 H15_3 1_555 1_555
C9_3 H18_3 1_555 1_555
C9_3 H19_3 1_555 1_555
C8_3 H21_3 1_555 1_555
C8_3 H22_3 1_555 1_555
C10_3 H24_3 1_555 1_555
C7_3 H26_3 1_555 1_555
O9_3 H20_3 1_555 1_555
O10_3 P3_3 1_555 1_555
Mg2 O1_4 1_555 1_555
P1_4 O1_4 1_555 1_555
O2_4 P1_4 1_555 1_555
O3_4 P1_4 1_555 1_555
O15_4 Mg2 1_555 1_555
O2_4 H3_4 1_555 1_555
P2_4 O13 1_555 1_555
O15_4 P2_4 1_555 1_555
O6_4 P2_4 1_555 1_555
C2_4 P2_4 1_555 1_555
N1_4 C1_4 1_555 1_555
C3_4 N1_4 1_555 1_555
C4_4 C3_4 1_555 1_555
C5_4 C4_4 1_555 1_555
C6_4 C5_4 1_555 1_555
P4_4 O12_2 1_555 1_555
O16_2 P4_4 1_555 1_555
O17_4 P4_4 1_555 1_555
C8_4 P4_4 1_555 1_555
N2_4 C7_4 1_555 1_555
C9_4 N2_4 1_555 1_555
C10_4 C9_4 1_555 1_555
C11_4 C10_4 1_555 1_555
C12_4 C6_4 1_555 1_555
C2_4 N1_4 1_555 1_555
C8_4 N2_4 1_555 1_555
C11_4 C12_4 1_555 1_555
C6_4 H1_4 1_555 1_555
C6_4 H2_4 1_555 1_555
C2_4 H4_4 1_555 1_555
C2_4 H5_4 1_555 1_555
C1_4 H6_4 1_555 1_555
C1_4 H7_4 1_555 1_555
C5_4 H8_4 1_555 1_555
C5_4 H9_4 1_555 1_555
C4_4 H10_4 1_555 1_555
C4_4 H11_4 1_555 1_555
C3_4 H12_4 1_555 1_555
C3_4 H13_4 1_555 1_555
C11_4 H14_4 1_555 1_555
C11_4 H15_4 1_555 1_555
C12_4 H16_4 1_555 1_555
C12_4 H17_4 1_555 1_555
C9_4 H18_4 1_555 1_555
C9_4 H19_4 1_555 1_555
C8_4 H21_4 1_555 1_555
C8_4 H22_4 1_555 1_555
C10_4 H23_4 1_555 1_555
C10_4 H24_4 1_555 1_555
C7_4 H25_4 1_555 1_555
C7_4 H26_4 1_555 1_555
P3_4 O8_2 1_555 1_555
O9_4 P3_4 1_555 1_555
O10_4 P3_4 1_555 1_555
O9_4 H20_4 1_555 1_555
O2 H20_5 1_555 1_555
O9 H3_5 1_555 1_555
O9_2 H3_6 1_555 1_555
O2_2 H20_6 1_555 1_555
O2_3 H20_7 1_555 1_555
O9_3 H3_7 1_555 1_555
O2_4 H20_8 1_555 1_555
O9_4 H3_8 1_555 1_555

#END
