
###############################################################################
#
# This file contains modified crystal structure data generated from the
# MOF subset of the Cambridge Structural Database (CSD) v543 
# hosted by the Cambridge Crystallographic Data Centre (CCDC).
#
# This work is licensed under the Creative Commons
# Attribution-NonCommercial-ShareAlike 4.0 International License.
# To view a copy of this license, visit
# http://creativecommons.org/licenses/by-nc-sa/4.0/
# or send a letter to
# Creative Commons, PO Box 1866, Mountain View, CA 94042, USA.
#
# CIF created using the CSD Python API on 29 September 2022
# The structure has been converted into the P1 space group
# The structure has a 3D framework
# The original CSD entry WEHPIJ is in the monoclinic crystal system
# The framework has been calculated to contain at least 10.0% void space
# The void calculation uses a probe of radius 1.32A, grid spacing 0.4
# The framework is charged, counterions have been retained in the structure
#
###############################################################################

data_WEHPIJ
_chemical_formula_moiety         '(C120 H100 Co6 N24 O48 S8 4+)n'
_symmetry_cell_setting           triclinic
_symmetry_space_group_name_H-M   'P 1'
_symmetry_Int_Tables_number      1
_space_group_name_Hall           'P 1'
loop_
_symmetry_equiv_pos_site_id
_symmetry_equiv_pos_as_xyz
1 x,y,z
_cell_length_a                   20.681(4)
_cell_length_b                   14.1352(17)
_cell_length_c                   19.564(4)
_cell_angle_alpha                90
_cell_angle_beta                 107.482(15)
_cell_angle_gamma                90
_cell_volume                     5454.99
loop_
_atom_site_label
_atom_site_type_symbol
_atom_site_fract_x
_atom_site_fract_y
_atom_site_fract_z
O1 O 0.2164(3) 0.8719(2) 0.5275(2)
O2 O 0.3131(3) 0.7807(3) 0.5987(2)
O3 O 0.1995(3) 0.7145(2) 0.5676(2)
S1 S 0.24303(11) 0.77972(9) 0.54637(9)
O4 O 0.2836(3) 0.6281(2) 0.4725(2)
O5 O 0.1869(3) 0.7193(3) 0.4013(2)
O6 O 0.3005(3) 0.7855(2) 0.4324(2)
S2 S 0.25697(11) 0.72028(9) 0.45363(9)
O1_2 O 0.7164(3) 0.3719(2) 0.5275(2)
O2_2 O 0.8131(3) 0.2807(3) 0.5987(2)
O3_2 O 0.6995(3) 0.2145(2) 0.5676(2)
S1_2 S 0.74303(11) 0.27972(9) 0.54637(9)
O4_2 O 0.7836(3) 0.1281(2) 0.4725(2)
O5_2 O 0.6869(3) 0.2193(3) 0.4013(2)
O6_2 O 0.8005(3) 0.2855(2) 0.4324(2)
S2_2 S 0.75697(11) 0.22028(9) 0.45363(9)
O4_3 O 0.7164(3) 0.6281(2) 0.0275(2)
O5_3 O 0.8131(3) 0.7193(3) 0.0987(2)
O6_3 O 0.6995(3) 0.7855(2) 0.0676(2)
S2_3 S 0.74303(11) 0.72028(9) 0.04637(9)
O1_3 O 0.7836(3) 0.8719(2) 0.9725(2)
O2_3 O 0.6869(3) 0.7807(3) 0.9013(2)
O3_3 O 0.8005(3) 0.7145(2) 0.9324(2)
S1_3 S 0.75697(11) 0.77972(9) 0.95363(9)
O4_4 O 0.2164(3) 0.1281(2) 0.0275(2)
O5_4 O 0.3131(3) 0.2193(3) 0.0987(2)
O6_4 O 0.1995(3) 0.2855(2) 0.0676(2)
S2_4 S 0.24303(11) 0.22028(9) 0.04637(9)
O1_4 O 0.2836(3) 0.3719(2) 0.9725(2)
O2_4 O 0.1869(3) 0.2807(3) 0.9013(2)
O3_4 O 0.3005(3) 0.2145(2) 0.9324(2)
S1_4 S 0.25697(11) 0.27972(9) 0.95363(9)
Co2 Co 0.2500 0.7500 -0.0000
C1 C 0.3170(3) 0.4779(3) 0.5926(2)
H1 H 0.3121 0.5000 0.5465
C2 C 0.3118(3) 0.5397(2) 0.6447(2)
H2 H 0.3025 0.6031 0.6332
C3 C 0.3199(2) 0.5101(2) 0.71291(19)
C4 C 0.3346(3) 0.4155(3) 0.7272(2)
H3 H 0.3420 0.3924 0.7735
C5 C 0.3382(3) 0.3558(3) 0.6737(2)
H4 H 0.3474 0.2920 0.6838
C6 C 0.3043(3) 0.7359(2) 0.8080(2)
H5 H 0.3012 0.8004 0.7984
C7 C 0.3104(3) 0.6747(3) 0.7563(2)
H6 H 0.3116 0.6977 0.7121
C8 C 0.3149(2) 0.5784(2) 0.76989(19)
C9 C 0.3157(2) 0.5495(2) 0.8370(2)
H7 H 0.3202 0.4854 0.8482
C10 C 0.3102(2) 0.6131(2) 0.8879(2)
H8 H 0.3117 0.5922 0.9334
C11 C 0.3565(2) 0.0001(2) 0.5140(3)
C13 C 0.4686(2) 0.0184(2) 0.5063(2)
C14 C 0.4645(2) 0.1121(3) 0.5251(3)
H11 H 0.5014 0.1519 0.5300
C15 C 0.4072(2) 0.1467(3) 0.5364(3)
H12 H 0.4055 0.2101 0.5484
N1 N 0.32887(17) 0.38716(19) 0.60743(16)
N2 N 0.30279(18) 0.70520(18) 0.87192(15)
N3 N 0.35358(17) 0.09204(19) 0.53080(17)
O7 O 0.33354(13) 0.32854(16) 0.55525(13)
O8 O 0.29572(15) 0.76951(14) 0.91933(13)
O9 O 0.29739(13) 0.12446(15) 0.54178(14)
Co1 Co 0.2500 0.2500 0.5000
C16 C 0.1830(3) 0.0221(3) 0.4074(2)
H13 H 0.1879 0.0000 0.4535
C19 C 0.1654(3) 0.0845(3) 0.2728(2)
H15 H 0.1580 0.1076 0.2265
C20 C 0.1618(3) 0.1442(3) 0.3263(2)
H16 H 0.1526 0.2080 0.3162
H19 H 0.1798 0.0146 0.1518
H21 H 0.6804 0.0392 0.4896
C27 C 0.5870(3) 0.0353(3) 0.4977(3)
H22 H 0.5861 0.0991 0.5090
N4 N 0.17113(17) 0.11284(19) 0.39257(16)
O10 O 0.16646(13) 0.17146(16) 0.44475(13)
O12 O 0.29572(15) 0.23049(14) 0.41933(13)
O13 O 0.20428(15) 0.26951(14) 0.58067(13)
O15 O 0.20261(13) 0.37554(15) 0.45822(14)
Co2_2 Co 0.2500 0.7500 1.0000
H9 H 0.3196 0.9608 0.5104
C12 C 0.4130(3) 0.9647(3) 0.5023(3)
H10 H 0.4139 0.9009 0.4910
H13_2 H 0.1879 1.0000 0.4535
C17 C 0.1882(3) 0.9603(2) 0.3553(2)
H14 H 0.1975 0.8969 0.3668
C18 C 0.1801(2) 0.9899(2) 0.28709(19)
C21 C 0.1957(3) 0.7641(2) 0.1920(2)
H17 H 0.1988 0.6996 0.2016
C22 C 0.1896(3) 0.8253(3) 0.2437(2)
H18 H 0.1884 0.8023 0.2879
C23 C 0.1851(2) 0.9216(2) 0.23011(19)
C24 C 0.1843(2) 0.9505(2) 0.1630(2)
C25 C 0.1898(2) 0.8869(2) 0.1121(2)
H20 H 0.1883 0.9078 0.0666
C26 C 0.6435(2) 0.9999(2) 0.4860(3)
C28 C 0.5314(2) 0.9816(2) 0.4937(2)
C29 C 0.5355(2) 0.8879(3) 0.4749(3)
H23 H 0.4986 0.8481 0.4700
C30 C 0.5928(2) 0.8533(3) 0.4636(3)
H24 H 0.5945 0.7899 0.4516
N5 N 0.19721(18) 0.79480(18) 0.12808(15)
N6 N 0.64642(17) 0.90796(19) 0.46920(17)
O11 O 0.20428(15) 0.73049(14) 0.08067(13)
O14 O 0.70261(13) 0.87554(15) 0.45822(14)
Co3 Co 0.7500 0.7500 0.5000
H11_2 H 0.0014 0.6519 0.5300
C26_2 C 0.1435(2) 0.4999(2) 0.4860(3)
H21_2 H 0.1804 0.5392 0.4896
C27_2 C 0.0870(3) 0.5353(3) 0.4977(3)
H22_2 H 0.0861 0.5991 0.5090
C28_2 C 0.0314(2) 0.4816(2) 0.4937(2)
C29_2 C 0.0355(2) 0.3879(3) 0.4749(3)
C30_2 C 0.0928(2) 0.3533(3) 0.4636(3)
H24_2 H 0.0945 0.2899 0.4516
N6_2 N 0.14642(17) 0.40796(19) 0.46920(17)
Co2_3 Co 0.7500 0.2500 -0.0000
H1_2 H 0.8121 -0.0000 0.5465
C2_2 C 0.8118(3) 0.0397(2) 0.6447(2)
H2_2 H 0.8025 0.1031 0.6332
C3_2 C 0.8199(2) 0.0101(2) 0.71291(19)
C6_2 C 0.8043(3) 0.2359(2) 0.8080(2)
H5_2 H 0.8012 0.3004 0.7984
C7_2 C 0.8104(3) 0.1747(3) 0.7563(2)
H6_2 H 0.8116 0.1977 0.7121
C8_2 C 0.8149(2) 0.0784(2) 0.76989(19)
C9_2 C 0.8157(2) 0.0495(2) 0.8370(2)
C10_2 C 0.8102(2) 0.1131(2) 0.8879(2)
H8_2 H 0.8117 0.0922 0.9334
N2_2 N 0.80279(18) 0.20520(18) 0.87192(15)
O8_2 O 0.79572(15) 0.26951(14) 0.91933(13)
Co2_4 Co 0.7500 0.2500 1.0000
C1_2 C 0.8170(3) 0.9779(3) 0.5926(2)
H1_3 H 0.8121 1.0000 0.5465
C4_2 C 0.8346(3) 0.9155(3) 0.7272(2)
H3_2 H 0.8420 0.8924 0.7735
C5_2 C 0.8382(3) 0.8558(3) 0.6737(2)
H4_2 H 0.8474 0.7920 0.6838
H7_2 H 0.8202 0.9854 0.8482
C11_2 C 0.8565(2) 0.5001(2) 0.5140(3)
H9_2 H 0.8196 0.4608 0.5104
C12_2 C 0.9130(3) 0.4647(3) 0.5023(3)
H10_2 H 0.9139 0.4009 0.4910
C13_2 C 0.9686(2) 0.5184(2) 0.5063(2)
C14_2 C 0.9645(2) 0.6121(3) 0.5251(3)
C15_2 C 0.9072(2) 0.6467(3) 0.5364(3)
H12_2 H 0.9055 0.7101 0.5484
N1_2 N 0.82887(17) 0.88716(19) 0.60743(16)
N3_2 N 0.85358(17) 0.59204(19) 0.53080(17)
O7_2 O 0.83354(13) 0.82854(16) 0.55525(13)
O9_2 O 0.79739(13) 0.62446(15) 0.54178(14)
C16_2 C 0.6830(3) 0.5221(3) 0.4074(2)
H13_3 H 0.6879 0.5000 0.4535
C17_2 C 0.6882(3) 0.4603(2) 0.3553(2)
H14_2 H 0.6975 0.3969 0.3668
C18_2 C 0.6801(2) 0.4899(2) 0.28709(19)
C19_2 C 0.6654(3) 0.5845(3) 0.2728(2)
H15_2 H 0.6580 0.6076 0.2265
C20_2 C 0.6618(3) 0.6442(3) 0.3263(2)
H16_2 H 0.6526 0.7080 0.3162
C21_2 C 0.6957(3) 0.2641(2) 0.1920(2)
H17_2 H 0.6988 0.1996 0.2016
C22_2 C 0.6896(3) 0.3253(3) 0.2437(2)
H18_2 H 0.6884 0.3023 0.2879
C23_2 C 0.6851(2) 0.4216(2) 0.23011(19)
C24_2 C 0.6843(2) 0.4505(2) 0.1630(2)
H19_2 H 0.6798 0.5146 0.1518
C25_2 C 0.6898(2) 0.3869(2) 0.1121(2)
H20_2 H 0.6883 0.4078 0.0666
H23_2 H 0.9986 0.3481 0.4700
N4_2 N 0.67113(17) 0.61284(19) 0.39257(16)
N5_2 N 0.69721(18) 0.29480(18) 0.12808(15)
O10_2 O 0.66646(13) 0.67146(16) 0.44475(13)
O11_2 O 0.70428(15) 0.23049(14) 0.08067(13)
O12_2 O 0.79572(15) 0.73049(14) 0.41933(13)
O13_2 O 0.70428(15) 0.76951(14) 0.58067(13)
C16_3 C 0.8170(3) 0.0221(3) 0.0926(2)
H13_4 H 0.8121 0.0000 0.0465
C19_3 C 0.8346(3) 0.0845(3) 0.2272(2)
H15_3 H 0.8420 0.1076 0.2735
C20_3 C 0.8382(3) 0.1442(3) 0.1737(2)
H16_3 H 0.8474 0.2080 0.1838
H19_3 H 0.8202 0.0146 0.3482
H21_3 H 0.3196 0.0392 0.0104
C27_3 C 0.4130(3) 0.0353(3) 0.0023(3)
N4_3 N 0.82887(17) 0.11284(19) 0.10743(16)
O10_3 O 0.83354(13) 0.17146(16) 0.05525(13)
O15_2 O 0.79739(13) 0.37554(15) 0.04178(14)
C1_3 C 0.6830(3) 0.4779(3) 0.9074(2)
H1_4 H 0.6879 0.5000 0.9535
C2_3 C 0.6882(3) 0.5397(2) 0.8553(2)
H2_3 H 0.6975 0.6031 0.8668
C3_3 C 0.6801(2) 0.5101(2) 0.78709(19)
C4_3 C 0.6654(3) 0.4155(3) 0.7728(2)
H3_3 H 0.6580 0.3924 0.7265
C5_3 C 0.6618(3) 0.3558(3) 0.8263(2)
H4_3 H 0.6526 0.2920 0.8162
C6_3 C 0.6957(3) 0.7359(2) 0.6920(2)
H5_3 H 0.6988 0.8004 0.7016
C7_3 C 0.6896(3) 0.6747(3) 0.7437(2)
H6_3 H 0.6884 0.6977 0.7879
C8_3 C 0.6851(2) 0.5784(2) 0.73011(19)
C9_3 C 0.6843(2) 0.5495(2) 0.6630(2)
H7_3 H 0.6798 0.4854 0.6518
C10_3 C 0.6898(2) 0.6131(2) 0.6121(2)
H8_3 H 0.6883 0.5922 0.5666
C11_3 C 0.6435(2) 0.0001(2) 0.9860(3)
C13_3 C 0.5314(2) 0.0184(2) 0.9937(2)
C14_3 C 0.5355(2) 0.1121(3) 0.9749(3)
H11_3 H 0.4986 0.1519 0.9700
C15_3 C 0.5928(2) 0.1467(3) 0.9636(3)
H12_3 H 0.5945 0.2101 0.9516
N1_3 N 0.67113(17) 0.38716(19) 0.89257(16)
N2_3 N 0.69721(18) 0.70520(18) 0.62808(15)
N3_3 N 0.64642(17) 0.09204(19) 0.96920(17)
O7_3 O 0.66646(13) 0.32854(16) 0.94475(13)
O9_3 O 0.70261(13) 0.12446(15) 0.95822(14)
H22_3 H 0.4139 0.0991 0.9910
H10_3 H 0.5861 0.9009 0.0090
H13_5 H 0.8121 1.0000 0.0465
C17_3 C 0.8118(3) 0.9603(2) 0.1447(2)
H14_3 H 0.8025 0.8969 0.1332
C18_3 C 0.8199(2) 0.9899(2) 0.21291(19)
C21_3 C 0.8043(3) 0.7641(2) 0.3080(2)
H17_3 H 0.8012 0.6996 0.2984
C22_3 C 0.8104(3) 0.8253(3) 0.2563(2)
H18_3 H 0.8116 0.8023 0.2121
C23_3 C 0.8149(2) 0.9216(2) 0.26989(19)
C24_3 C 0.8157(2) 0.9505(2) 0.3370(2)
C25_3 C 0.8102(2) 0.8869(2) 0.3879(2)
H20_3 H 0.8117 0.9078 0.4334
C26_3 C 0.3565(2) 0.9999(2) 0.0140(3)
C28_3 C 0.4686(2) 0.9816(2) 0.0063(2)
C29_3 C 0.4645(2) 0.8879(3) 0.0251(3)
H23_3 H 0.5014 0.8481 0.0300
C30_3 C 0.4072(2) 0.8533(3) 0.0364(3)
H24_3 H 0.4055 0.7899 0.0484
N5_3 N 0.80279(18) 0.79480(18) 0.37192(15)
N6_3 N 0.35358(17) 0.90796(19) 0.03080(17)
O14_2 O 0.29739(13) 0.87554(15) 0.04178(14)
H9_3 H 0.6804 0.9608 0.9896
C12_3 C 0.5870(3) 0.9647(3) 0.9977(3)
H1_5 H 0.1879 -0.0000 0.9535
C2_4 C 0.1882(3) 0.0397(2) 0.8553(2)
H2_4 H 0.1975 0.1031 0.8668
C3_4 C 0.1801(2) 0.0101(2) 0.78709(19)
C6_4 C 0.1957(3) 0.2359(2) 0.6920(2)
H5_4 H 0.1988 0.3004 0.7016
C7_4 C 0.1896(3) 0.1747(3) 0.7437(2)
H6_4 H 0.1884 0.1977 0.7879
C8_4 C 0.1851(2) 0.0784(2) 0.73011(19)
C9_4 C 0.1843(2) 0.0495(2) 0.6630(2)
C10_4 C 0.1898(2) 0.1131(2) 0.6121(2)
H8_4 H 0.1883 0.0922 0.5666
N2_4 N 0.19721(18) 0.20520(18) 0.62808(15)
H10_4 H 0.0861 0.4009 0.0090
C16_4 C 0.3170(3) 0.5221(3) 0.0926(2)
H13_6 H 0.3121 0.5000 0.0465
C17_4 C 0.3118(3) 0.4603(2) 0.1447(2)
H14_4 H 0.3025 0.3969 0.1332
C18_4 C 0.3199(2) 0.4899(2) 0.21291(19)
C19_4 C 0.3346(3) 0.5845(3) 0.2272(2)
H15_4 H 0.3420 0.6076 0.2735
C20_4 C 0.3382(3) 0.6442(3) 0.1737(2)
H16_4 H 0.3474 0.7080 0.1838
C21_4 C 0.3043(3) 0.2641(2) 0.3080(2)
H17_4 H 0.3012 0.1996 0.2984
C22_4 C 0.3104(3) 0.3253(3) 0.2563(2)
H18_4 H 0.3116 0.3023 0.2121
C23_4 C 0.3149(2) 0.4216(2) 0.26989(19)
C24_4 C 0.3157(2) 0.4505(2) 0.3370(2)
H19_4 H 0.3202 0.5146 0.3482
C25_4 C 0.3102(2) 0.3869(2) 0.3879(2)
H20_4 H 0.3117 0.4078 0.4334
H23_4 H 0.0014 0.3481 0.0300
N4_4 N 0.32887(17) 0.61284(19) 0.10743(16)
N5_4 N 0.30279(18) 0.29480(18) 0.37192(15)
O10_4 O 0.33354(13) 0.67146(16) 0.05525(13)
C1_4 C 0.1830(3) 0.9779(3) 0.9074(2)
H1_6 H 0.1879 1.0000 0.9535
C4_4 C 0.1654(3) 0.9155(3) 0.7728(2)
H3_4 H 0.1580 0.8924 0.7265
C5_4 C 0.1618(3) 0.8558(3) 0.8263(2)
H4_4 H 0.1526 0.7920 0.8162
H7_4 H 0.1798 0.9854 0.6518
C11_4 C 0.1435(2) 0.5001(2) 0.9860(3)
H9_4 H 0.1804 0.4608 0.9896
C12_4 C 0.0870(3) 0.4647(3) 0.9977(3)
C13_4 C 0.0314(2) 0.5184(2) 0.9937(2)
C14_4 C 0.0355(2) 0.6121(3) 0.9749(3)
C15_4 C 0.0928(2) 0.6467(3) 0.9636(3)
H12_4 H 0.0945 0.7101 0.9516
N1_4 N 0.17113(17) 0.88716(19) 0.89257(16)
N3_4 N 0.14642(17) 0.59204(19) 0.96920(17)
O7_4 O 0.16646(13) 0.82854(16) 0.94475(13)
O9_4 O 0.20261(13) 0.62446(15) 0.95822(14)
C26_4 C 0.8565(2) 0.4999(2) 0.0140(3)
H21_4 H 0.8196 0.5392 0.0104
C27_4 C 0.9130(3) 0.5353(3) 0.0023(3)
C28_4 C 0.9686(2) 0.4816(2) 0.0063(2)
C29_4 C 0.9645(2) 0.3879(3) 0.0251(3)
C30_4 C 0.9072(2) 0.3533(3) 0.0364(3)
H24_4 H 0.9055 0.2899 0.0484
N6_4 N 0.85358(17) 0.40796(19) 0.03080(17)
H11_4 H 0.9986 0.6519 0.9700
H22_4 H 0.9139 0.5991 0.9910
loop_
_geom_bond_atom_site_label_1
_geom_bond_atom_site_label_2
_geom_bond_site_symmetry_1
_geom_bond_site_symmetry_2
O1 S1 1_555 1_555
O2 S1 1_555 1_555
O3 S1 1_555 1_555
S1 S2 1_555 1_555
O4 S2 1_555 1_555
O5 S2 1_555 1_555
O6 S2 1_555 1_555
O1_2 S1_2 1_555 1_555
O2_2 S1_2 1_555 1_555
O3_2 S1_2 1_555 1_555
S1_2 S2_2 1_555 1_555
O4_2 S2_2 1_555 1_555
O5_2 S2_2 1_555 1_555
O6_2 S2_2 1_555 1_555
O4_3 S2_3 1_555 1_555
O5_3 S2_3 1_555 1_555
O6_3 S2_3 1_555 1_555
O1_3 S1_3 1_555 1_555
O2_3 S1_3 1_555 1_555
O3_3 S1_3 1_555 1_555
O4_4 S2_4 1_555 1_555
O5_4 S2_4 1_555 1_555
O6_4 S2_4 1_555 1_555
O1_4 S1_4 1_555 1_555
O2_4 S1_4 1_555 1_555
O3_4 S1_4 1_555 1_555
C1 H1 1_555 1_555
C2 C1 1_555 1_555
H2 C2 1_555 1_555
C3 C2 1_555 1_555
C4 C3 1_555 1_555
H3 C4 1_555 1_555
C5 C4 1_555 1_555
H4 C5 1_555 1_555
C6 H5 1_555 1_555
C7 C6 1_555 1_555
H6 C7 1_555 1_555
C8 C3 1_555 1_555
C9 C8 1_555 1_555
H7 C9 1_555 1_555
C10 C9 1_555 1_555
H8 C10 1_555 1_555
C14 C13 1_555 1_555
H11 C14 1_555 1_555
C15 C14 1_555 1_555
H12 C15 1_555 1_555
N1 C1 1_555 1_555
N2 C6 1_555 1_555
N3 C11 1_555 1_555
O7 N1 1_555 1_555
O8 N2 1_555 1_555
O9 N3 1_555 1_555
Co1 O7 1_555 1_555
C16 H13 1_555 1_555
H15 C19 1_555 1_555
C20 C19 1_555 1_555
H16 C20 1_555 1_555
H22 C27 1_555 1_555
N4 C16 1_555 1_555
O10 Co1 1_555 1_555
O12 Co1 1_555 1_555
O13 Co1 1_555 1_555
O15 Co1 1_555 1_555
Co2_2 O8 1_555 1_555
C5 N1 1_555 1_555
C7 C8 1_555 1_555
C10 N2 1_555 1_555
C15 N3 1_555 1_555
O9 Co1 1_555 1_555
C20 N4 1_555 1_555
N4 O10 1_555 1_555
H10 C12 1_555 1_555
H14 C17 1_555 1_555
C18 C17 1_555 1_555
C21 H17 1_555 1_555
C22 C21 1_555 1_555
H18 C22 1_555 1_555
C23 C18 1_555 1_555
C24 C23 1_555 1_555
C25 C24 1_555 1_555
H20 C25 1_555 1_555
C29 C28 1_555 1_555
H23 C29 1_555 1_555
C30 C29 1_555 1_555
H24 C30 1_555 1_555
N5 C21 1_555 1_555
N6 C26 1_555 1_555
O11 N5 1_555 1_555
O14 N6 1_555 1_555
Co3 O14 1_555 1_555
Co2 O11 1_555 1_555
C22 C23 1_555 1_555
C25 N5 1_555 1_555
C30 N6 1_555 1_555
C26_2 H21_2 1_555 1_555
C27_2 C26_2 1_555 1_555
H22_2 C27_2 1_555 1_555
C29_2 C28_2 1_555 1_555
C30_2 C29_2 1_555 1_555
H24_2 C30_2 1_555 1_555
N6_2 C26_2 1_555 1_555
O15 N6_2 1_555 1_555
C27_2 C28_2 1_555 1_555
C30_2 N6_2 1_555 1_555
H2_2 C2_2 1_555 1_555
C3_2 C2_2 1_555 1_555
C6_2 H5_2 1_555 1_555
C7_2 C6_2 1_555 1_555
H6_2 C7_2 1_555 1_555
C8_2 C3_2 1_555 1_555
C9_2 C8_2 1_555 1_555
C10_2 C9_2 1_555 1_555
H8_2 C10_2 1_555 1_555
N2_2 C6_2 1_555 1_555
O8_2 N2_2 1_555 1_555
Co2_4 O8_2 1_555 1_555
C7_2 C8_2 1_555 1_555
C10_2 N2_2 1_555 1_555
C1_2 H1_3 1_555 1_555
H3_2 C4_2 1_555 1_555
C5_2 C4_2 1_555 1_555
H4_2 C5_2 1_555 1_555
C11_2 H9_2 1_555 1_555
C12_2 C11_2 1_555 1_555
H10_2 C12_2 1_555 1_555
C13_2 C12_2 1_555 1_555
C14_2 C13_2 1_555 1_555
C15_2 C14_2 1_555 1_555
H12_2 C15_2 1_555 1_555
N1_2 C1_2 1_555 1_555
N3_2 C11_2 1_555 1_555
O7_2 N1_2 1_555 1_555
O9_2 N3_2 1_555 1_555
Co3 O7_2 1_555 1_555
C16_2 H13_3 1_555 1_555
C17_2 C16_2 1_555 1_555
H14_2 C17_2 1_555 1_555
C18_2 C17_2 1_555 1_555
C19_2 C18_2 1_555 1_555
H15_2 C19_2 1_555 1_555
C20_2 C19_2 1_555 1_555
H16_2 C20_2 1_555 1_555
C21_2 H17_2 1_555 1_555
C22_2 C21_2 1_555 1_555
H18_2 C22_2 1_555 1_555
C23_2 C18_2 1_555 1_555
C24_2 C23_2 1_555 1_555
H19_2 C24_2 1_555 1_555
C25_2 C24_2 1_555 1_555
H20_2 C25_2 1_555 1_555
N4_2 C16_2 1_555 1_555
N5_2 C21_2 1_555 1_555
O10_2 Co3 1_555 1_555
O11_2 N5_2 1_555 1_555
O12_2 Co3 1_555 1_555
O13_2 Co3 1_555 1_555
Co2_3 O11_2 1_555 1_555
C5_2 N1_2 1_555 1_555
C15_2 N3_2 1_555 1_555
O9_2 Co3 1_555 1_555
C20_2 N4_2 1_555 1_555
C22_2 C23_2 1_555 1_555
C25_2 N5_2 1_555 1_555
N4_2 O10_2 1_555 1_555
C16_3 H13_4 1_555 1_555
H15_3 C19_3 1_555 1_555
C20_3 C19_3 1_555 1_555
H16_3 C20_3 1_555 1_555
N4_3 C16_3 1_555 1_555
O10_3 Co2_3 1_555 1_555
O15_2 Co2_3 1_555 1_555
C20_3 N4_3 1_555 1_555
N4_3 O10_3 1_555 1_555
C1_3 H1_4 1_555 1_555
C2_3 C1_3 1_555 1_555
H2_3 C2_3 1_555 1_555
C3_3 C2_3 1_555 1_555
C4_3 C3_3 1_555 1_555
H3_3 C4_3 1_555 1_555
C5_3 C4_3 1_555 1_555
H4_3 C5_3 1_555 1_555
C6_3 H5_3 1_555 1_555
C7_3 C6_3 1_555 1_555
H6_3 C7_3 1_555 1_555
C8_3 C3_3 1_555 1_555
C9_3 C8_3 1_555 1_555
H7_3 C9_3 1_555 1_555
C10_3 C9_3 1_555 1_555
H8_3 C10_3 1_555 1_555
C14_3 C13_3 1_555 1_555
H11_3 C14_3 1_555 1_555
C15_3 C14_3 1_555 1_555
H12_3 C15_3 1_555 1_555
N1_3 C1_3 1_555 1_555
N2_3 C6_3 1_555 1_555
N3_3 C11_3 1_555 1_555
O7_3 N1_3 1_555 1_555
O13_2 N2_3 1_555 1_555
O9_3 N3_3 1_555 1_555
Co2_4 O7_3 1_555 1_555
C5_3 N1_3 1_555 1_555
C7_3 C8_3 1_555 1_555
C10_3 N2_3 1_555 1_555
C15_3 N3_3 1_555 1_555
O9_3 Co2_4 1_555 1_555
H14_3 C17_3 1_555 1_555
C18_3 C17_3 1_555 1_555
C21_3 H17_3 1_555 1_555
C22_3 C21_3 1_555 1_555
H18_3 C22_3 1_555 1_555
C23_3 C18_3 1_555 1_555
C24_3 C23_3 1_555 1_555
C25_3 C24_3 1_555 1_555
H20_3 C25_3 1_555 1_555
C29_3 C28_3 1_555 1_555
H23_3 C29_3 1_555 1_555
C30_3 C29_3 1_555 1_555
H24_3 C30_3 1_555 1_555
N5_3 C21_3 1_555 1_555
N6_3 C26_3 1_555 1_555
O12_2 N5_3 1_555 1_555
O14_2 N6_3 1_555 1_555
Co2 O14_2 1_555 1_555
C22_3 C23_3 1_555 1_555
C25_3 N5_3 1_555 1_555
C30_3 N6_3 1_555 1_555
H2_4 C2_4 1_555 1_555
C3_4 C2_4 1_555 1_555
C6_4 H5_4 1_555 1_555
C7_4 C6_4 1_555 1_555
H6_4 C7_4 1_555 1_555
C8_4 C3_4 1_555 1_555
C9_4 C8_4 1_555 1_555
C10_4 C9_4 1_555 1_555
H8_4 C10_4 1_555 1_555
N2_4 C6_4 1_555 1_555
O13 N2_4 1_555 1_555
C7_4 C8_4 1_555 1_555
C10_4 N2_4 1_555 1_555
C16_4 H13_6 1_555 1_555
C17_4 C16_4 1_555 1_555
H14_4 C17_4 1_555 1_555
C18_4 C17_4 1_555 1_555
C19_4 C18_4 1_555 1_555
H15_4 C19_4 1_555 1_555
C20_4 C19_4 1_555 1_555
H16_4 C20_4 1_555 1_555
C21_4 H17_4 1_555 1_555
C22_4 C21_4 1_555 1_555
H18_4 C22_4 1_555 1_555
C23_4 C18_4 1_555 1_555
C24_4 C23_4 1_555 1_555
H19_4 C24_4 1_555 1_555
C25_4 C24_4 1_555 1_555
H20_4 C25_4 1_555 1_555
N4_4 C16_4 1_555 1_555
N5_4 C21_4 1_555 1_555
O10_4 Co2 1_555 1_555
O12 N5_4 1_555 1_555
C20_4 N4_4 1_555 1_555
C22_4 C23_4 1_555 1_555
C25_4 N5_4 1_555 1_555
N4_4 O10_4 1_555 1_555
C1_4 H1_6 1_555 1_555
H3_4 C4_4 1_555 1_555
C5_4 C4_4 1_555 1_555
H4_4 C5_4 1_555 1_555
C11_4 H9_4 1_555 1_555
C12_4 C11_4 1_555 1_555
C13_4 C12_4 1_555 1_555
C14_4 C13_4 1_555 1_555
C15_4 C14_4 1_555 1_555
H12_4 C15_4 1_555 1_555
N1_4 C1_4 1_555 1_555
N3_4 C11_4 1_555 1_555
O7_4 N1_4 1_555 1_555
O9_4 N3_4 1_555 1_555
Co2_2 O7_4 1_555 1_555
C5_4 N1_4 1_555 1_555
C15_4 N3_4 1_555 1_555
O9_4 Co2_2 1_555 1_555
C26_4 H21_4 1_555 1_555
C27_4 C26_4 1_555 1_555
C29_4 C28_4 1_555 1_555
C30_4 C29_4 1_555 1_555
H24_4 C30_4 1_555 1_555
N6_4 C26_4 1_555 1_555
O15_2 N6_4 1_555 1_555
C27_4 C28_4 1_555 1_555
C30_4 N6_4 1_555 1_555

#END
