
###############################################################################
#
# This file contains modified crystal structure data generated from the
# MOF subset of the Cambridge Structural Database (CSD) v543 
# hosted by the Cambridge Crystallographic Data Centre (CCDC).
#
# This work is licensed under the Creative Commons
# Attribution-NonCommercial-ShareAlike 4.0 International License.
# To view a copy of this license, visit
# http://creativecommons.org/licenses/by-nc-sa/4.0/
# or send a letter to
# Creative Commons, PO Box 1866, Mountain View, CA 94042, USA.
#
# CIF created using the CSD Python API on 29 September 2022
# The structure has been converted into the P1 space group
# The structure has a 3D framework
# The original CSD entry WEHRAF is in the monoclinic crystal system
# The framework has been calculated to contain at least 10.0% void space
# The void calculation uses a probe of radius 1.32A, grid spacing 0.4
#
###############################################################################

data_WEHRAF
_chemical_formula_moiety         '(C140 H120 Co12 N8 O32)n'
_symmetry_cell_setting           triclinic
_symmetry_space_group_name_H-M   'P 1'
_symmetry_Int_Tables_number      1
_space_group_name_Hall           'P 1'
loop_
_symmetry_equiv_pos_site_id
_symmetry_equiv_pos_as_xyz
1 x,y,z
_cell_length_a                   12.839(15)
_cell_length_b                   18.670(18)
_cell_length_c                   14.557(17)
_cell_angle_alpha                90
_cell_angle_beta                 96.72(3)
_cell_angle_gamma                90
_cell_volume                     3465.4
loop_
_atom_site_label
_atom_site_type_symbol
_atom_site_fract_x
_atom_site_fract_y
_atom_site_fract_z
Co1 Co 0.0000 -0.0000 0.0000
O4 O 0.1270(5) 0.0652(2) 0.0111(4)
H27 H 0.0928 0.0968 0.0434
Co1_2 Co -0.0000 1.0000 0.0000
O17 O 0.0509(3) 0.95887(19) 0.1339(2)
Co2 Co 0.5000 -0.0000 1.0000
C1 C 0.5774(5) 0.1593(3) 0.9662(4)
C2 C 0.6241(5) 0.2154(3) 0.9223(4)
H2 H 0.6142 0.2624 0.9408
C3 C 0.6852(5) 0.2020(3) 0.8514(4)
C4 C 0.6965(5) 0.1294(3) 0.8280(4)
H3 H 0.7365 0.1166 0.7813
C5 C 0.6467(5) 0.0765(3) 0.8759(4)
H4 H 0.6554 0.0290 0.8592
C6 C 0.7398(8) 0.2603(4) 0.8037(5)
H5 H 0.7131 0.3059 0.8224
H6 H 0.8137 0.2586 0.8266
C7 C 0.7305(7) 0.2590(4) 0.7018(5)
H7 H 0.6569 0.2645 0.6786
H8 H 0.7523 0.2121 0.6828
C8 C 0.7927(5) 0.3156(3) 0.6549(4)
C9 C 0.7976(5) 0.3870(3) 0.6821(4)
H9 H 0.7637 0.4018 0.7320
C10 C 0.8527(5) 0.4365(3) 0.6354(4)
H10 H 0.8531 0.4840 0.6549
C11 C 0.8996(5) 0.3511(3) 0.5375(4)
H11 H 0.9355 0.3375 0.4884
C12 C 0.8436(5) 0.2988(3) 0.5786(4)
H12 H 0.8402 0.2525 0.5550
H25 H 0.3679 0.0833 0.9499
H26 H 0.2972 0.0561 0.9935
N1 N 0.5878(4) 0.0896(2) 0.9436(3)
N2 N 0.9051(4) 0.4201(2) 0.5642(3)
C48 C 0.3890(5) 0.0080(3) 0.8060(4)
C54 C 0.3019(4) 0.0103(3) 0.6385(4)
C59 C 0.2027(5) 0.0144(3) 0.4765(4)
H48 H 0.1611 0.0475 0.5084
H49 H 0.2329 0.0416 0.4293
O11 O 0.3319(4) 0.0606(2) 0.8264(3)
O12 O 0.2265(4) 0.0569(2) 0.6649(3)
H57 H 0.2430 0.0665 0.7218
O13 O 0.1621(3) 0.00529(19) 0.2824(3)
H58 H 0.1344 0.0025 0.2266
Co5 Co 1.0000 0.5000 0.5000
Co2_2 Co 0.5000 1.0000 1.0000
H31 H 0.4630 0.8295 0.9867
C49 C 0.3848(5) 0.9861(3) 0.7063(4)
C50 C 0.4608(4) 0.9414(3) 0.6796(4)
H43 H 0.5133 0.9244 0.7236
C51 C 0.4601(5) 0.9209(3) 0.5851(4)
C52 C 0.3765(4) 0.9425(3) 0.5184(4)
C53 C 0.2927(5) 0.9877(3) 0.5460(4)
C55 C 0.5443(5) 0.8796(3) 0.5563(5)
H44 H 0.5991 0.8649 0.5997
C56 C 0.5449(5) 0.8616(4) 0.4652(5)
H45 H 0.6015 0.8337 0.4463
C57 C 0.4623(5) 0.8839(4) 0.3990(5)
H46 H 0.4636 0.8721 0.3371
C58 C 0.3804(5) 0.9228(3) 0.4248(4)
H47 H 0.3263 0.9366 0.3802
C60 C 0.0062(4) 0.9097(3) 0.1796(4)
C61 C 0.0380(4) 0.9077(3) 0.2840(4)
C63 C 0.0022(5) 0.8577(3) 0.4313(4)
C64 C 0.0690(5) 0.9103(3) 0.4790(4)
C65 C 0.1283(4) 0.9587(3) 0.4277(4)
C66 C 0.1096(4) 0.9568(3) 0.3315(4)
C69 C 0.0177(6) 0.8649(4) 0.6256(5)
H53 H 0.0204 0.8686 0.6895
C70 C 0.0721(5) 0.9127(3) 0.5781(4)
H54 H 0.1122 0.9478 0.6109
O9 O 0.4507(3) 0.9732(2) 0.8649(3)
O10 O 0.6354(3) 0.9310(2) 0.9915(3)
C68 C 0.0433(6) 0.3094(4) 0.9224(5)
H52 H 0.0761 0.2750 0.8896
H11_2 H 0.0645 0.8375 0.0116
C56_2 C 0.4551(5) 0.3616(4) 0.0348(5)
H45_2 H 0.3985 0.3337 0.0537
C57_2 C 0.5377(5) 0.3839(4) 0.1010(5)
H46_2 H 0.5364 0.3721 0.1629
C58_2 C 0.6196(5) 0.4228(3) 0.0752(4)
H47_2 H 0.6737 0.4366 0.1198
C59_2 C 0.7973(5) 0.5144(3) 0.0235(4)
H49_2 H 0.7671 0.5416 0.0707
C60_2 C 0.9938(4) 0.4097(3) 0.3204(4)
C61_2 C 0.9620(4) 0.4077(3) 0.2160(4)
C63_2 C 0.9978(5) 0.3577(3) 0.0687(4)
C64_2 C 0.9310(5) 0.4103(3) 0.0210(4)
C65_2 C 0.8717(4) 0.4587(3) 0.0723(4)
C66_2 C 0.8904(4) 0.4568(3) 0.1685(4)
O13_2 O 0.8379(3) 0.50529(19) 0.2176(3)
H58_2 H 0.8656 0.5025 0.2734
O14 O 0.9491(3) 0.45887(19) 0.3661(2)
C27 C 0.9886(5) 0.6415(3) 0.8338(4)
H20 H 0.9449 0.6754 0.8023
C32 C 0.9472(6) 0.6923(3) 0.9837(5)
H21 H 0.9042 0.7267 0.9524
O4_2 O 0.8730(5) 0.5652(2) 0.4889(4)
H27_2 H 0.9072 0.5968 0.4566
H28 H 0.8783 0.5938 0.5347
O8 O 0.9408(4) 0.6328(2) 0.6431(3)
Co1_3 Co 0.0000 -0.0000 1.0000
C27_2 C 0.0114(5) 0.1415(3) 0.6662(4)
H20_2 H 0.0551 0.1754 0.6977
C32_2 C 0.0528(6) 0.1923(3) 0.5163(5)
H21_2 H 0.0958 0.2267 0.5476
C33 C 0.0433(6) 0.1906(4) 0.4224(5)
H22 H 0.0761 0.2250 0.3896
H28_2 H 0.1217 0.0938 0.9653
O8_2 O 0.0592(4) 0.1328(2) 0.8569(3)
Co5_2 Co 0.0000 0.5000 0.5000
Co1_4 Co 1.0000 -0.0000 1.0000
Co2_3 Co 0.5000 0.0000 0.0000
H1 H 0.5370 0.1705 0.0133
C14 C 0.6152(5) 0.0139(3) 0.2937(4)
C15 C 0.5392(4) 0.0586(3) 0.3204(4)
H13 H 0.4867 0.0756 0.2764
C16 C 0.5399(5) 0.0791(3) 0.4149(4)
C17 C 0.6235(4) 0.0575(3) 0.4816(4)
C18 C 0.7073(5) 0.0123(3) 0.4540(4)
C20 C 0.4557(5) 0.1204(3) 0.4437(5)
H14 H 0.4009 0.1351 0.4003
C21 C 0.4551(5) 0.1384(4) 0.5348(5)
H15 H 0.3985 0.1663 0.5537
C22 C 0.5377(5) 0.1161(4) 0.6010(5)
H16 H 0.5364 0.1279 0.6629
C23 C 0.6196(5) 0.0772(3) 0.5752(4)
H17 H 0.6737 0.0634 0.6198
C25 C 0.9938(4) 0.0903(3) 0.8204(4)
C26 C 0.9620(4) 0.0923(3) 0.7160(4)
C28 C 0.9978(5) 0.1423(3) 0.5687(4)
C29 C 0.9310(5) 0.0897(3) 0.5210(4)
C30 C 0.8717(4) 0.0413(3) 0.5723(4)
C31 C 0.8904(4) 0.0432(3) 0.6685(4)
C34 C 0.9823(6) 0.1351(4) 0.3744(5)
H23 H 0.9796 0.1314 0.3105
C35 C 0.9279(5) 0.0873(3) 0.4219(4)
H24 H 0.8878 0.0522 0.3891
O1 O 0.5493(3) 0.0268(2) 0.1351(3)
O2 O 0.3646(3) 0.0690(2) 0.0085(3)
O7 O 0.9491(3) 0.04113(19) 0.8661(2)
Co1_5 Co 1.0000 1.0000 1.0000
Co2_4 Co 0.5000 1.0000 0.0000
C13 C 0.6110(5) 0.9920(3) 0.1940(4)
C19 C 0.6981(4) 0.9897(3) 0.3615(4)
C24 C 0.7973(5) 0.9856(3) 0.5235(4)
H18 H 0.8389 0.9525 0.4916
H19 H 0.7671 0.9584 0.5707
O3 O 0.6681(4) 0.9394(2) 0.1736(3)
O5 O 0.7735(4) 0.9431(2) 0.3351(3)
H29 H 0.7570 0.9335 0.2782
O6 O 0.8379(3) 0.99471(19) 0.7176(3)
H30 H 0.8656 0.9975 0.7734
C36 C 0.4226(5) 0.8407(3) 0.0338(4)
C37 C 0.3759(5) 0.7846(3) 0.0777(4)
H32 H 0.3858 0.7376 0.0592
C38 C 0.3148(5) 0.7980(3) 0.1486(4)
C39 C 0.3035(5) 0.8706(3) 0.1720(4)
H33 H 0.2635 0.8834 0.2187
C40 C 0.3533(5) 0.9235(3) 0.1241(4)
H34 H 0.3446 0.9710 0.1408
C41 C 0.2602(8) 0.7397(4) 0.1963(5)
H35 H 0.2869 0.6941 0.1776
H36 H 0.1863 0.7414 0.1734
C42 C 0.2695(7) 0.7410(4) 0.2982(5)
H37 H 0.3431 0.7355 0.3214
H38 H 0.2477 0.7879 0.3172
C43 C 0.2073(5) 0.6844(3) 0.3451(4)
C44 C 0.2024(5) 0.6130(3) 0.3179(4)
H39 H 0.2363 0.5982 0.2680
C45 C 0.1473(5) 0.5635(3) 0.3646(4)
H40 H 0.1469 0.5160 0.3451
C46 C 0.1004(5) 0.6489(3) 0.4625(4)
H41 H 0.0645 0.6625 0.5116
C47 C 0.1564(5) 0.7012(3) 0.4214(4)
H42 H 0.1598 0.7475 0.4450
H55 H 0.6321 0.9167 0.0501
H56 H 0.7028 0.9439 0.0065
N3 N 0.4122(4) 0.9104(2) 0.0564(3)
N4 N 0.0949(4) 0.5799(2) 0.4358(3)
O16 O 0.8730(5) 0.9348(2) 0.9889(4)
H59 H 0.9072 0.9032 0.9566
C62 C 0.0114(5) 0.3585(3) 0.1662(4)
H50 H 0.0551 0.3246 0.1977
C67 C 0.0528(6) 0.3077(3) 0.0163(5)
H51 H 0.0958 0.2733 0.0476
O15 O 0.0592(4) 0.3672(2) 0.3569(3)
C21_2 C 0.5449(5) 0.6384(4) 0.9652(5)
H15_2 H 0.6015 0.6663 0.9463
C22_2 C 0.4623(5) 0.6161(4) 0.8990(5)
H16_2 H 0.4636 0.6279 0.8371
C23_2 C 0.3804(5) 0.5772(3) 0.9248(4)
H17_2 H 0.3263 0.5634 0.8802
C24_2 C 0.2027(5) 0.4856(3) 0.9765(4)
H19_2 H 0.2329 0.4584 0.9293
C25_2 C 0.0062(4) 0.5903(3) 0.6796(4)
C26_2 C 0.0380(4) 0.5923(3) 0.7840(4)
C28_2 C 0.0022(5) 0.6423(3) 0.9313(4)
C29_2 C 0.0690(5) 0.5897(3) 0.9790(4)
C30_2 C 0.1283(4) 0.5413(3) 0.9277(4)
C31_2 C 0.1096(4) 0.5432(3) 0.8315(4)
O6_2 O 0.1621(3) 0.49471(19) 0.7824(3)
H30_2 H 0.1344 0.4975 0.7266
O7_2 O 0.0509(3) 0.54113(19) 0.6339(2)
H41_2 H 0.9355 0.1625 0.9884
O16_2 O 0.1270(5) 0.4348(2) 0.5111(4)
H59_2 H 0.0928 0.4032 0.5434
H60 H 0.1217 0.4062 0.4653
C33_2 C 0.9567(6) 0.6906(4) 0.0776(5)
H22_2 H 0.9239 0.7250 0.1104
Co1_6 Co 0.0000 1.0000 1.0000
N5 N 0.0949(4) 0.9201(2) 0.9358(3)
Co1_7 Co 1.0000 -0.0000 0.0000
N6 N 0.9051(4) 0.0799(2) 0.0642(3)
Co2_5 Co 0.5000 0.5000 0.5000
C1_2 C 0.4226(5) 0.6593(3) 0.5338(4)
H1_2 H 0.4630 0.6705 0.4867
C2_2 C 0.3759(5) 0.7154(3) 0.5777(4)
H2_2 H 0.3858 0.7624 0.5592
C3_2 C 0.3148(5) 0.7020(3) 0.6486(4)
C4_2 C 0.3035(5) 0.6294(3) 0.6720(4)
H3_2 H 0.2635 0.6166 0.7187
C5_2 C 0.3533(5) 0.5765(3) 0.6241(4)
H4_2 H 0.3446 0.5290 0.6408
C6_2 C 0.2602(8) 0.7603(4) 0.6963(5)
H5_2 H 0.2869 0.8059 0.6776
H6_2 H 0.1863 0.7586 0.6734
C7_2 C 0.2695(7) 0.7590(4) 0.7982(5)
H7_2 H 0.3431 0.7645 0.8214
H8_2 H 0.2477 0.7121 0.8172
C8_2 C 0.2073(5) 0.8156(3) 0.8451(4)
C9_2 C 0.2024(5) 0.8870(3) 0.8179(4)
H9_2 H 0.2363 0.9018 0.7680
C10_2 C 0.1473(5) 0.9365(3) 0.8646(4)
H10_2 H 0.1469 0.9840 0.8451
C11_2 C 0.1004(5) 0.8511(3) 0.9625(4)
C12_2 C 0.1564(5) 0.7988(3) 0.9214(4)
H12_2 H 0.1598 0.7525 0.9450
C13_2 C 0.3890(5) 0.4920(3) 0.3060(4)
C14_2 C 0.3848(5) 0.5139(3) 0.2063(4)
C15_2 C 0.4608(4) 0.5586(3) 0.1796(4)
H13_2 H 0.5133 0.5756 0.2236
C16_2 C 0.4601(5) 0.5791(3) 0.0851(4)
C17_2 C 0.3765(4) 0.5575(3) 0.0184(4)
C18_2 C 0.2927(5) 0.5123(3) 0.0460(4)
C19_2 C 0.3019(4) 0.4897(3) 0.1385(4)
C20_2 C 0.5443(5) 0.6204(3) 0.0563(5)
H14_2 H 0.5991 0.6351 0.0997
H18_2 H 0.1611 0.4525 0.0084
C34_2 C 0.0177(6) 0.6351(4) 0.1256(5)
H23_2 H 0.0204 0.6314 0.1895
C35_2 C 0.0721(5) 0.5873(3) 0.0781(4)
H24_2 H 0.1122 0.5522 0.1109
O1_2 O 0.4507(3) 0.5268(2) 0.3649(3)
O2_2 O 0.6354(3) 0.5690(2) 0.4915(3)
H25_2 H 0.6321 0.5833 0.5501
H26_2 H 0.7028 0.5561 0.5065
O3_2 O 0.3319(4) 0.4394(2) 0.3264(3)
O5_2 O 0.2265(4) 0.4431(2) 0.1649(3)
H29_2 H 0.2430 0.4335 0.2218
N1_2 N 0.4122(4) 0.5896(2) 0.5564(3)
C36_2 C 0.5774(5) 0.3407(3) 0.4662(4)
H31_2 H 0.5370 0.3295 0.5133
C37_2 C 0.6241(5) 0.2846(3) 0.4223(4)
H32_2 H 0.6142 0.2376 0.4408
C38_2 C 0.6852(5) 0.2980(3) 0.3514(4)
C39_2 C 0.6965(5) 0.3706(3) 0.3280(4)
H33_2 H 0.7365 0.3834 0.2813
C40_2 C 0.6467(5) 0.4235(3) 0.3759(4)
H34_2 H 0.6554 0.4710 0.3592
C41_2 C 0.7398(8) 0.2397(4) 0.3037(5)
H35_2 H 0.7131 0.1941 0.3224
H36_2 H 0.8137 0.2414 0.3266
C42_2 C 0.7305(7) 0.2410(4) 0.2018(5)
H37_2 H 0.6569 0.2355 0.1786
H38_2 H 0.7523 0.2879 0.1828
C43_2 C 0.7927(5) 0.1844(3) 0.1549(4)
C44_2 C 0.7976(5) 0.1130(3) 0.1821(4)
H39_2 H 0.7637 0.0982 0.2320
C45_2 C 0.8527(5) 0.0635(3) 0.1354(4)
H40_2 H 0.8531 0.0160 0.1549
C46_2 C 0.8996(5) 0.1489(3) 0.0375(4)
C47_2 C 0.8436(5) 0.2012(3) 0.0786(4)
H42_2 H 0.8402 0.2475 0.0550
C48_2 C 0.6110(5) 0.5080(3) 0.6940(4)
C49_2 C 0.6152(5) 0.4861(3) 0.7937(4)
C50_2 C 0.5392(4) 0.4414(3) 0.8204(4)
H43_2 H 0.4867 0.4244 0.7764
C51_2 C 0.5399(5) 0.4209(3) 0.9149(4)
C52_2 C 0.6235(4) 0.4425(3) 0.9816(4)
C53_2 C 0.7073(5) 0.4877(3) 0.9540(4)
C54_2 C 0.6981(4) 0.5103(3) 0.8615(4)
C55_2 C 0.4557(5) 0.3796(3) 0.9437(5)
H44_2 H 0.4009 0.3649 0.9003
H48_2 H 0.8389 0.5475 0.9916
C69_2 C 0.9823(6) 0.3649(4) 0.8744(5)
H53_2 H 0.9796 0.3686 0.8105
C70_2 C 0.9279(5) 0.4127(3) 0.9219(4)
H54_2 H 0.8878 0.4478 0.8891
O9_2 O 0.5493(3) 0.4732(2) 0.6351(3)
O10_2 O 0.3646(3) 0.4310(2) 0.5085(3)
H55_2 H 0.3679 0.4167 0.4499
H56_2 H 0.2972 0.4439 0.4935
O11_2 O 0.6681(4) 0.5606(2) 0.6736(3)
O12_2 O 0.7735(4) 0.5569(2) 0.8351(3)
H57_2 H 0.7570 0.5665 0.7782
N3_2 N 0.5878(4) 0.4104(2) 0.4436(3)
Co1_8 Co 1.0000 1.0000 0.0000
H60_2 H 0.8783 0.9062 0.0347
C62_2 C 0.9886(5) 0.8585(3) 0.3338(4)
H50_2 H 0.9449 0.8246 0.3023
C67_2 C 0.9472(6) 0.8077(3) 0.4837(5)
H51_2 H 0.9042 0.7733 0.4524
C68_2 C 0.9567(6) 0.8094(4) 0.5776(5)
H52_2 H 0.9239 0.7750 0.6104
O15_2 O 0.9408(4) 0.8672(2) 0.1431(3)
loop_
_geom_bond_atom_site_label_1
_geom_bond_atom_site_label_2
_geom_bond_site_symmetry_1
_geom_bond_site_symmetry_2
Co1 O4 1_555 1_555
O4 H27 1_555 1_555
O17 Co1_2 1_555 1_555
C2 C1 1_555 1_555
H2 C2 1_555 1_555
C3 C2 1_555 1_555
C4 C3 1_555 1_555
H3 C4 1_555 1_555
C5 C4 1_555 1_555
H4 C5 1_555 1_555
C6 C3 1_555 1_555
H5 C6 1_555 1_555
H6 C6 1_555 1_555
C7 C6 1_555 1_555
H7 C7 1_555 1_555
H8 C7 1_555 1_555
C8 C7 1_555 1_555
C9 C8 1_555 1_555
H9 C9 1_555 1_555
C10 C9 1_555 1_555
H10 C10 1_555 1_555
C11 H11 1_555 1_555
C12 C8 1_555 1_555
H12 C12 1_555 1_555
N1 Co2 1_555 1_555
N2 C10 1_555 1_555
H48 C59 1_555 1_555
H49 C59 1_555 1_555
O11 C48 1_555 1_555
O12 C54 1_555 1_555
H57 O12 1_555 1_555
H58 O13 1_555 1_555
Co5 N2 1_555 1_555
C1 N1 1_555 1_555
C5 N1 1_555 1_555
C11 C12 1_555 1_555
C11 N2 1_555 1_555
C49 C50 1_555 1_555
C50 H43 1_555 1_555
C51 C50 1_555 1_555
C52 C51 1_555 1_555
C53 C52 1_555 1_555
C55 C51 1_555 1_555
H44 C55 1_555 1_555
C56 C55 1_555 1_555
H45 C56 1_555 1_555
C57 C56 1_555 1_555
H46 C57 1_555 1_555
C58 C52 1_555 1_555
H47 C58 1_555 1_555
C60 C61 1_555 1_555
C64 C63 1_555 1_555
C66 C61 1_555 1_555
H53 C69 1_555 1_555
C70 C64 1_555 1_555
H54 C70 1_555 1_555
O9 Co2_2 1_555 1_555
O10 Co2_2 1_555 1_555
O17 C60 1_555 1_555
C57 C58 1_555 1_555
C64 C65 1_555 1_555
C65 C66 1_555 1_555
C69 C70 1_555 1_555
H52 C68 1_555 1_555
H45_2 C56_2 1_555 1_555
C57_2 C56_2 1_555 1_555
H46_2 C57_2 1_555 1_555
H47_2 C58_2 1_555 1_555
H49_2 C59_2 1_555 1_555
C60_2 C61_2 1_555 1_555
C64_2 C63_2 1_555 1_555
C65_2 C59_2 1_555 1_555
C66_2 C61_2 1_555 1_555
O13_2 C66_2 1_555 1_555
H58_2 O13_2 1_555 1_555
O14 C60_2 1_555 1_555
Co5 O14 1_555 1_555
C57_2 C58_2 1_555 1_555
C64_2 C65_2 1_555 1_555
C65_2 C66_2 1_555 1_555
Co5 O4_2 1_555 1_555
C27 H20 1_555 1_555
H21 C32 1_555 1_555
O4_2 H27_2 1_555 1_555
H28 O4_2 1_555 1_555
C27_2 H20_2 1_555 1_555
H21_2 C32_2 1_555 1_555
C33 C32_2 1_555 1_555
H22 C33 1_555 1_555
Co2_3 O1 1_555 1_555
C14 C15 1_555 1_555
C15 H13 1_555 1_555
C16 C15 1_555 1_555
C17 C16 1_555 1_555
C18 C17 1_555 1_555
C20 C16 1_555 1_555
H14 C20 1_555 1_555
C21 C20 1_555 1_555
H15 C21 1_555 1_555
C22 C21 1_555 1_555
H16 C22 1_555 1_555
C23 C17 1_555 1_555
H17 C23 1_555 1_555
C25 C26 1_555 1_555
C29 C28 1_555 1_555
C31 C26 1_555 1_555
H23 C34 1_555 1_555
C35 C29 1_555 1_555
H24 C35 1_555 1_555
O2 Co2_3 1_555 1_555
O7 Co1_4 1_555 1_555
C22 C23 1_555 1_555
C25 O7 1_555 1_555
C29 C30 1_555 1_555
C30 C31 1_555 1_555
C34 C35 1_555 1_555
H18 C24 1_555 1_555
H19 C24 1_555 1_555
O3 C13 1_555 1_555
O5 C19 1_555 1_555
H29 O5 1_555 1_555
H30 O6 1_555 1_555
C37 C36 1_555 1_555
H32 C37 1_555 1_555
C38 C37 1_555 1_555
C39 C38 1_555 1_555
H33 C39 1_555 1_555
C40 C39 1_555 1_555
H34 C40 1_555 1_555
C41 C38 1_555 1_555
H35 C41 1_555 1_555
H36 C41 1_555 1_555
C42 C41 1_555 1_555
H37 C42 1_555 1_555
H38 C42 1_555 1_555
C43 C42 1_555 1_555
C44 C43 1_555 1_555
H39 C44 1_555 1_555
C45 C44 1_555 1_555
H40 C45 1_555 1_555
C46 H41 1_555 1_555
C47 C43 1_555 1_555
H42 C47 1_555 1_555
N3 Co2_4 1_555 1_555
N4 C45 1_555 1_555
O16 Co1_5 1_555 1_555
H59 O16 1_555 1_555
Co5_2 N4 1_555 1_555
C36 N3 1_555 1_555
C40 N3 1_555 1_555
C46 C47 1_555 1_555
C46 N4 1_555 1_555
C62 H50 1_555 1_555
H51 C67 1_555 1_555
H15_2 C21_2 1_555 1_555
C22_2 C21_2 1_555 1_555
H16_2 C22_2 1_555 1_555
H17_2 C23_2 1_555 1_555
H19_2 C24_2 1_555 1_555
C25_2 C26_2 1_555 1_555
C29_2 C28_2 1_555 1_555
C30_2 C24_2 1_555 1_555
C31_2 C26_2 1_555 1_555
O6_2 C31_2 1_555 1_555
H30_2 O6_2 1_555 1_555
O7_2 Co5_2 1_555 1_555
O16_2 Co5_2 1_555 1_555
H59_2 O16_2 1_555 1_555
H60 O16_2 1_555 1_555
C22_2 C23_2 1_555 1_555
C25_2 O7_2 1_555 1_555
C29_2 C30_2 1_555 1_555
C30_2 C31_2 1_555 1_555
H22_2 C33_2 1_555 1_555
N5 Co1_6 1_555 1_555
N6 Co1_7 1_555 1_555
Co2_5 O1_2 1_555 1_555
C1_2 H1_2 1_555 1_555
C2_2 C1_2 1_555 1_555
H2_2 C2_2 1_555 1_555
C3_2 C2_2 1_555 1_555
C4_2 C3_2 1_555 1_555
H3_2 C4_2 1_555 1_555
C5_2 C4_2 1_555 1_555
H4_2 C5_2 1_555 1_555
C6_2 C3_2 1_555 1_555
H5_2 C6_2 1_555 1_555
H6_2 C6_2 1_555 1_555
C7_2 C6_2 1_555 1_555
H7_2 C7_2 1_555 1_555
H8_2 C7_2 1_555 1_555
C8_2 C7_2 1_555 1_555
C9_2 C8_2 1_555 1_555
H9_2 C9_2 1_555 1_555
C10_2 C9_2 1_555 1_555
H10_2 C10_2 1_555 1_555
C12_2 C8_2 1_555 1_555
H12_2 C12_2 1_555 1_555
C13_2 C14_2 1_555 1_555
C14_2 C15_2 1_555 1_555
C15_2 H13_2 1_555 1_555
C16_2 C15_2 1_555 1_555
C17_2 C16_2 1_555 1_555
C18_2 C17_2 1_555 1_555
C19_2 C14_2 1_555 1_555
C20_2 C16_2 1_555 1_555
H14_2 C20_2 1_555 1_555
H23_2 C34_2 1_555 1_555
H24_2 C35_2 1_555 1_555
O1_2 C13_2 1_555 1_555
O2_2 Co2_5 1_555 1_555
H25_2 O2_2 1_555 1_555
H26_2 O2_2 1_555 1_555
O3_2 C13_2 1_555 1_555
O5_2 C19_2 1_555 1_555
H29_2 O5_2 1_555 1_555
N1_2 Co2_5 1_555 1_555
N5 C10_2 1_555 1_555
C36_2 H31_2 1_555 1_555
C37_2 C36_2 1_555 1_555
H32_2 C37_2 1_555 1_555
C38_2 C37_2 1_555 1_555
C39_2 C38_2 1_555 1_555
H33_2 C39_2 1_555 1_555
C40_2 C39_2 1_555 1_555
H34_2 C40_2 1_555 1_555
C41_2 C38_2 1_555 1_555
H35_2 C41_2 1_555 1_555
H36_2 C41_2 1_555 1_555
C42_2 C41_2 1_555 1_555
H37_2 C42_2 1_555 1_555
H38_2 C42_2 1_555 1_555
C43_2 C42_2 1_555 1_555
C44_2 C43_2 1_555 1_555
H39_2 C44_2 1_555 1_555
C45_2 C44_2 1_555 1_555
H40_2 C45_2 1_555 1_555
C47_2 C43_2 1_555 1_555
H42_2 C47_2 1_555 1_555
C48_2 C49_2 1_555 1_555
C49_2 C50_2 1_555 1_555
C50_2 H43_2 1_555 1_555
C51_2 C50_2 1_555 1_555
C52_2 C51_2 1_555 1_555
C53_2 C52_2 1_555 1_555
C54_2 C49_2 1_555 1_555
C55_2 C51_2 1_555 1_555
H44_2 C55_2 1_555 1_555
H53_2 C69_2 1_555 1_555
H54_2 C70_2 1_555 1_555
O9_2 Co2_5 1_555 1_555
O10_2 Co2_5 1_555 1_555
H55_2 O10_2 1_555 1_555
H56_2 O10_2 1_555 1_555
O11_2 C48_2 1_555 1_555
O12_2 C54_2 1_555 1_555
H57_2 O12_2 1_555 1_555
N3_2 Co2_5 1_555 1_555
N6 C45_2 1_555 1_555
C1_2 N1_2 1_555 1_555
C5_2 N1_2 1_555 1_555
C11_2 C12_2 1_555 1_555
C11_2 N5 1_555 1_555
C18_2 C19_2 1_555 1_555
C34_2 C35_2 1_555 1_555
C36_2 N3_2 1_555 1_555
C40_2 N3_2 1_555 1_555
C46_2 C47_2 1_555 1_555
C46_2 N6 1_555 1_555
C48_2 O9_2 1_555 1_555
C53_2 C54_2 1_555 1_555
C69_2 C70_2 1_555 1_555
C62_2 H50_2 1_555 1_555
H51_2 C67_2 1_555 1_555
C68_2 C67_2 1_555 1_555
H52_2 C68_2 1_555 1_555

#END
