
###############################################################################
#
# This file contains modified crystal structure data generated from the
# MOF subset of the Cambridge Structural Database (CSD) v543 
# hosted by the Cambridge Crystallographic Data Centre (CCDC).
#
# This work is licensed under the Creative Commons
# Attribution-NonCommercial-ShareAlike 4.0 International License.
# To view a copy of this license, visit
# http://creativecommons.org/licenses/by-nc-sa/4.0/
# or send a letter to
# Creative Commons, PO Box 1866, Mountain View, CA 94042, USA.
#
# CIF created using the CSD Python API on 29 September 2022
# The structure has been converted into the P1 space group
# The structure has a 3D framework
# The original CSD entry WEHREJ is in the monoclinic crystal system
# The framework has been calculated to contain at least 10.0% void space
# The void calculation uses a probe of radius 1.32A, grid spacing 0.4
#
###############################################################################

data_WEHREJ
_chemical_formula_moiety         '(C140 H120 Mn10 N8 O31)n'
_symmetry_cell_setting           triclinic
_symmetry_space_group_name_H-M   'P 1'
_symmetry_Int_Tables_number      1
_space_group_name_Hall           'P 1'
loop_
_symmetry_equiv_pos_site_id
_symmetry_equiv_pos_as_xyz
1 x,y,z
_cell_length_a                   14.1005(9)
_cell_length_b                   17.8578(11)
_cell_length_c                   14.0921(8)
_cell_angle_alpha                90
_cell_angle_beta                 96.021(3)
_cell_angle_gamma                90
_cell_volume                     3528.87
loop_
_atom_site_label
_atom_site_type_symbol
_atom_site_fract_x
_atom_site_fract_y
_atom_site_fract_z
Mn1 Mn 0.0000 -0.0000 0.5000
C34 C 0.0102(2) 0.10935(18) 0.0305(2)
H24 H 0.0639 0.1226 0.0710
O2 O 0.10748(14) 0.08983(11) 0.48862(14)
H25 H 0.1377 0.0829 0.5433
H26 H 0.1451 0.1038 0.4487
Mn1_2 Mn 0.0000 1.0000 0.5000
O17 O 0.04801(14) 0.98839(12) 0.64610(13)
N5 N 0.09988(16) 0.90815(13) 0.45001(16)
H49 H 0.3425 0.0549 0.9858
C61 C 0.20565(19) 0.01912(15) 0.86471(18)
C70 C 0.1125(2) 0.02035(17) 0.69941(19)
O14 O 0.16777(16) 0.06984(13) 0.67247(14)
O15 O 0.27231(14) 0.06482(12) 0.83167(13)
H58 H 0.2478 0.0731 0.7678
Mn5 Mn 1.0000 0.5000 1.0000
C55 C 0.5431(2) 0.81204(19) 0.9874(2)
C56 C 0.5278(2) 0.8174(2) 0.8909(2)
H45 H 0.5571 0.7839 0.8526
C57 C 0.4678(2) 0.8736(2) 0.8490(2)
H46 H 0.4610 0.8791 0.7830
C58 C 0.4193(2) 0.92017(18) 0.9030(2)
H47 H 0.3792 0.9564 0.8731
C60 C 0.21968(19) 0.99463(15) 0.95827(19)
C62 C 0.12475(19) 0.99686(15) 0.80195(18)
C63 C 0.05718(19) 0.95287(16) 0.83690(19)
H50 H 0.0050 0.9373 0.7959
C64 C 0.06409(19) 0.93058(16) 0.9325(2)
C65 C 0.14682(19) 0.95114(15) 0.99408(18)
C68 C 0.9950(2) 0.87124(19) 0.0628(2)
H53 H 0.9455 0.8448 0.0860
Mn2 Mn 0.5000 0.5000 0.0000
C1 C 0.3363(2) 0.55860(17) 0.1213(2)
H1 H 0.3299 0.5074 0.1310
C2 C 0.2798(2) 0.60665(17) 0.1672(2)
H2 H 0.2366 0.5876 0.2065
C3 C 0.28706(19) 0.68262(16) 0.1551(2)
C4 C 0.3504(2) 0.70639(17) 0.0933(2)
H3 H 0.3566 0.7572 0.0807
C5 C 0.4043(2) 0.65486(18) 0.0503(2)
H4 H 0.4466 0.6726 0.0092
C6 C 0.2288(2) 0.73685(19) 0.2071(2)
H5 H 0.2324 0.7860 0.1785
H6 H 0.1626 0.7212 0.1991
C7 C 0.2614(2) 0.7424(2) 0.3122(2)
H7 H 0.3284 0.7557 0.3204
H8 H 0.2546 0.6938 0.3415
C8 C 0.2058(2) 0.79967(17) 0.3627(2)
C9 C 0.1346(2) 0.78010(18) 0.4182(3)
H9 H 0.1202 0.7300 0.4273
C10 C 0.0853(2) 0.83522(19) 0.4598(2)
H10 H 0.0383 0.8205 0.4976
C11 C 0.1695(2) 0.92600(18) 0.3976(2)
H11 H 0.1828 0.9765 0.3901
C12 C 0.2234(2) 0.87499(18) 0.3535(2)
H12 H 0.2712 0.8913 0.3178
O4 O 0.61366(15) 0.58424(13) 0.01776(15)
H27 H 0.6629 0.5930 0.0563
N1 N 0.39987(15) 0.58174(13) 0.06376(15)
C48 C 0.4957(2) 0.40797(17) 0.1906(2)
C49 C 0.52848(19) 0.40719(15) 0.29629(18)
C50 C 0.59953(19) 0.45718(15) 0.33855(19)
C51 C 0.62213(18) 0.46138(15) 0.43646(18)
C52 C 0.57135(18) 0.41467(16) 0.49520(19)
C53 C 0.5044(2) 0.36116(16) 0.4531(2)
C54 C 0.4842(2) 0.35962(17) 0.3538(2)
H43 H 0.4396 0.3255 0.3262
C55_2 C 0.4569(2) 0.31204(19) 0.5126(2)
H44 H 0.4151 0.2760 0.4850
C56_2 C 0.4722(2) 0.3174(2) 0.6091(2)
H45_2 H 0.4429 0.2839 0.6474
C57_2 C 0.5322(2) 0.3736(2) 0.6510(2)
H46_2 H 0.5390 0.3791 0.7170
C58_2 C 0.5807(2) 0.42017(18) 0.5970(2)
H47_2 H 0.6208 0.4564 0.6269
C59 C 0.6921(2) 0.52008(16) 0.47783(19)
H48 H 0.7137 0.5479 0.4250
H49_2 H 0.6575 0.5549 0.5142
C60_2 C 0.78032(19) 0.49463(15) 0.54173(19)
C61_2 C 0.79435(19) 0.51912(15) 0.63529(18)
C62_2 C 0.87525(19) 0.49686(15) 0.69805(18)
C63_2 C 0.94282(19) 0.45287(16) 0.66310(19)
H50_2 H 0.9950 0.4373 0.7041
C64_2 C 0.93591(19) 0.43058(16) 0.5675(2)
C65_2 C 0.85318(19) 0.45114(15) 0.50592(18)
C66 C 0.8506(2) 0.42983(17) 0.4081(2)
H51 H 0.7978 0.4423 0.3659
C67 C 0.9244(2) 0.39135(19) 0.3758(2)
H52 H 0.9212 0.3782 0.3116
C70_2 C 0.8875(2) 0.52035(17) 0.80059(19)
O9 O 0.53872(13) 0.45456(12) 0.14046(13)
O10 O 0.42928(17) 0.36684(13) 0.15833(15)
H56 H 0.3944 0.3948 0.0366
O12 O 0.64491(14) 0.50386(11) 0.28225(13)
H57 H 0.6300 0.5031 0.2186
O13 O 0.95199(14) 0.48839(12) 0.85390(13)
O14_2 O 0.83223(16) 0.56984(13) 0.82753(14)
O15_2 O 0.72769(14) 0.56482(12) 0.66833(13)
H58_2 H 0.7522 0.5731 0.7322
H25_2 H 0.8623 0.5829 0.9567
C33 C 0.0050(2) 0.12876(19) 0.9372(2)
H23 H 0.0545 0.1552 0.9140
Mn5_2 Mn 0.0000 0.5000 -0.0000
Mn1_3 Mn 1.0000 -0.0000 0.5000
C20 C 0.4569(2) 0.18796(19) 0.0126(2)
C21 C 0.4722(2) 0.1826(2) 0.1091(2)
H15 H 0.4429 0.2161 0.1474
C22 C 0.5322(2) 0.1264(2) 0.1510(2)
H16 H 0.5390 0.1209 0.2170
C23 C 0.5807(2) 0.07983(18) 0.0970(2)
H17 H 0.6208 0.0436 0.1269
C25 C 0.78032(19) 0.00537(15) 0.04173(19)
C27 C 0.87525(19) 0.00314(15) 0.19805(18)
C28 C 0.94282(19) 0.04713(16) 0.16310(19)
H20 H 0.9950 0.0627 0.2041
C29 C 0.93591(19) 0.06942(16) 0.0675(2)
C30 C 0.85318(19) 0.04886(15) 0.00592(18)
O6 O 0.95199(14) 0.01161(12) 0.35390(13)
N6 N 0.90012(16) 0.09185(13) 0.54999(16)
Mn1_4 Mn 1.0000 1.0000 0.5000
H19 H 0.6575 0.9451 0.0142
C26 C 0.79435(19) 0.98088(15) 0.13529(18)
C35 C 0.8875(2) 0.97965(17) 0.30059(19)
O7 O 0.83223(16) 0.93016(13) 0.32753(14)
O8 O 0.72769(14) 0.93518(12) 0.16833(13)
H30 H 0.7522 0.9269 0.2322
O16 O 0.89252(14) 0.91017(11) 0.51138(14)
H59 H 0.8623 0.9171 0.4567
H60 H 0.8549 0.8962 0.5513
C69 C 0.9898(2) 0.89065(18) 0.9695(2)
H54 H 0.9361 0.8774 0.9290
Mn2_2 Mn 0.5000 0.5000 1.0000
C13 C 0.5043(2) 0.59203(17) 0.8094(2)
C14 C 0.47152(19) 0.59281(15) 0.70371(18)
C15 C 0.40047(19) 0.54282(15) 0.66145(19)
C16 C 0.37787(18) 0.53862(15) 0.56354(18)
C17 C 0.42865(18) 0.58533(16) 0.50480(19)
C18 C 0.4956(2) 0.63884(16) 0.5469(2)
C19 C 0.5158(2) 0.64038(17) 0.6462(2)
H13 H 0.5604 0.6745 0.6738
C20_2 C 0.5431(2) 0.68796(19) 0.4874(2)
H14 H 0.5849 0.7240 0.5150
C21_2 C 0.5278(2) 0.6826(2) 0.3909(2)
H15_2 H 0.5571 0.7161 0.3526
C22_2 C 0.4678(2) 0.6264(2) 0.3490(2)
H16_2 H 0.4610 0.6209 0.2830
C23_2 C 0.4193(2) 0.57983(18) 0.4030(2)
H17_2 H 0.3792 0.5436 0.3731
C24 C 0.3079(2) 0.47992(16) 0.52217(19)
H18 H 0.2863 0.4521 0.5750
H19_2 H 0.3425 0.4451 0.4858
C25_2 C 0.21968(19) 0.50537(15) 0.45827(19)
C26_2 C 0.20565(19) 0.48088(15) 0.36471(18)
C27_2 C 0.12475(19) 0.50314(15) 0.30195(18)
C28_2 C 0.05718(19) 0.54713(16) 0.33690(19)
H20_2 H 0.0050 0.5627 0.2959
C29_2 C 0.06409(19) 0.56942(16) 0.4325(2)
C30_2 C 0.14682(19) 0.54886(15) 0.49408(18)
C31 C 0.1494(2) 0.57017(17) 0.5919(2)
H21 H 0.2022 0.5577 0.6341
C32 C 0.0756(2) 0.60865(19) 0.6242(2)
H22 H 0.0788 0.6218 0.6884
C35_2 C 0.1125(2) 0.47965(17) 0.19941(19)
O1 O 0.46128(13) 0.54544(12) 0.85954(13)
O3 O 0.57072(17) 0.63316(13) 0.84167(15)
H28 H 0.6056 0.6052 0.9634
O5 O 0.35509(14) 0.49614(11) 0.71775(13)
H29 H 0.3700 0.4969 0.7814
O6_2 O 0.04801(14) 0.51161(12) 0.14610(13)
O7_2 O 0.16777(16) 0.43016(13) 0.17247(14)
O8_2 O 0.27231(14) 0.43518(12) 0.33167(13)
H30_2 H 0.2478 0.4269 0.2678
C36 C 0.6637(2) 0.44140(17) 0.8787(2)
H31 H 0.6701 0.4926 0.8690
C37 C 0.7202(2) 0.39335(17) 0.8328(2)
H32 H 0.7634 0.4124 0.7935
C38 C 0.71294(19) 0.31738(16) 0.8449(2)
C39 C 0.6496(2) 0.29361(17) 0.9067(2)
H33 H 0.6434 0.2428 0.9193
C40 C 0.5957(2) 0.34514(18) 0.9497(2)
H34 H 0.5534 0.3274 0.9908
C41 C 0.7712(2) 0.26315(19) 0.7929(2)
H35 H 0.7676 0.2140 0.8215
H36 H 0.8374 0.2788 0.8009
C42 C 0.7386(2) 0.2576(2) 0.6878(2)
H37 H 0.6716 0.2443 0.6796
H38 H 0.7454 0.3062 0.6585
C43 C 0.7942(2) 0.20033(17) 0.6373(2)
C44 C 0.8654(2) 0.21990(18) 0.5818(3)
H39 H 0.8798 0.2700 0.5727
C45 C 0.9147(2) 0.16478(19) 0.5402(2)
H40 H 0.9617 0.1795 0.5024
C46 C 0.8305(2) 0.07400(18) 0.6024(2)
H41 H 0.8172 0.0235 0.6099
C47 C 0.7766(2) 0.12501(18) 0.6465(2)
H42 H 0.7288 0.1087 0.6822
O11 O 0.38634(15) 0.41576(13) 0.98224(15)
H55 H 0.3371 0.4070 0.9437
N3 N 0.60013(15) 0.41826(13) 0.93624(15)
H59_2 H 0.1377 0.4171 0.0433
Mn5_3 Mn -0.0000 0.5000 1.0000
Mn2_3 Mn 0.5000 1.0000 0.5000
C24_2 C 0.6921(2) 0.97992(16) 0.97783(19)
H18_2 H 0.7137 0.9521 0.9250
O5_2 O 0.64491(14) 0.99614(11) 0.78225(13)
H29_2 H 0.6300 0.9969 0.7186
C36_2 C 0.3363(2) 0.94140(17) 0.6213(2)
H31_2 H 0.3299 0.9926 0.6310
C37_2 C 0.2798(2) 0.89335(17) 0.6672(2)
H32_2 H 0.2366 0.9124 0.7065
C38_2 C 0.28706(19) 0.81738(16) 0.6551(2)
C39_2 C 0.3504(2) 0.79361(17) 0.5933(2)
H33_2 H 0.3566 0.7428 0.5807
C40_2 C 0.4043(2) 0.84514(18) 0.5503(2)
H34_2 H 0.4466 0.8274 0.5092
C41_2 C 0.2288(2) 0.76315(19) 0.7071(2)
H35_2 H 0.2324 0.7140 0.6785
H36_2 H 0.1626 0.7788 0.6991
C42_2 C 0.2614(2) 0.7576(2) 0.8122(2)
H37_2 H 0.3284 0.7443 0.8204
H38_2 H 0.2546 0.8062 0.8415
C43_2 C 0.2058(2) 0.70033(17) 0.8627(2)
C44_2 C 0.1346(2) 0.71990(18) 0.9182(3)
H39_2 H 0.1202 0.7700 0.9273
C45_2 C 0.0853(2) 0.66478(19) 0.9598(2)
H40_2 H 0.0383 0.6795 0.9976
C46_2 C 0.1695(2) 0.57400(18) 0.8976(2)
H41_2 H 0.1828 0.5235 0.8901
C47_2 C 0.2234(2) 0.62501(18) 0.8535(2)
H42_2 H 0.2712 0.6087 0.8178
C48_2 C 0.5043(2) 0.90797(17) 0.3094(2)
C49_2 C 0.47152(19) 0.90719(15) 0.20371(18)
C50_2 C 0.40047(19) 0.95718(15) 0.16145(19)
C51_2 C 0.37787(18) 0.96138(15) 0.06354(18)
C52_2 C 0.42865(18) 0.91467(16) 0.00480(19)
C53_2 C 0.4956(2) 0.86116(16) 0.0469(2)
C54_2 C 0.5158(2) 0.85962(17) 0.1462(2)
H43_2 H 0.5604 0.8255 0.1738
H44_2 H 0.5849 0.7760 0.0150
C66_2 C 0.1494(2) 0.92983(17) 0.0919(2)
H51_2 H 0.2022 0.9423 0.1341
C67_2 C 0.0756(2) 0.89135(19) 0.1242(2)
H52_2 H 0.0788 0.8782 0.1884
O9_2 O 0.46128(13) 0.95456(12) 0.35954(13)
O10_2 O 0.57072(17) 0.86684(13) 0.34167(15)
O11_2 O 0.61366(15) 0.91576(13) 0.51776(15)
H55_2 H 0.6629 0.9070 0.5563
H56_2 H 0.6056 0.8948 0.4634
N3_2 N 0.39987(15) 0.91826(13) 0.56376(15)
N4 N 0.09988(16) 0.59185(13) 0.95001(16)
C68_2 C 0.0050(2) 0.37124(19) 0.4372(2)
H53_2 H 0.0545 0.3448 0.4140
C69_2 C 0.0102(2) 0.39065(18) 0.5305(2)
H54_2 H 0.0639 0.3774 0.5710
O16_2 O 0.10748(14) 0.41017(11) 0.98862(14)
H60_2 H 0.1451 0.3962 0.9487
Mn2_4 Mn 0.5000 0.0000 0.5000
C1_2 C 0.6637(2) 0.05860(17) 0.3787(2)
H1_2 H 0.6701 0.0074 0.3690
C2_2 C 0.7202(2) 0.10665(17) 0.3328(2)
H2_2 H 0.7634 0.0876 0.2935
C3_2 C 0.71294(19) 0.18262(16) 0.3449(2)
C4_2 C 0.6496(2) 0.20639(17) 0.4067(2)
H3_2 H 0.6434 0.2572 0.4193
C5_2 C 0.5957(2) 0.15486(18) 0.4497(2)
H4_2 H 0.5534 0.1726 0.4908
C6_2 C 0.7712(2) 0.23685(19) 0.2929(2)
H5_2 H 0.7676 0.2860 0.3215
H6_2 H 0.8374 0.2212 0.3009
C7_2 C 0.7386(2) 0.2424(2) 0.1878(2)
H7_2 H 0.6716 0.2557 0.1796
H8_2 H 0.7454 0.1938 0.1585
C8_2 C 0.7942(2) 0.29967(17) 0.1373(2)
C9_2 C 0.8654(2) 0.28010(18) 0.0818(3)
H9_2 H 0.8798 0.2300 0.0727
C10_2 C 0.9147(2) 0.33522(19) 0.0402(2)
H10_2 H 0.9617 0.3205 0.0024
C11_2 C 0.8305(2) 0.42600(18) 0.1024(2)
H11_2 H 0.8172 0.4765 0.1099
C12_2 C 0.7766(2) 0.37499(18) 0.1465(2)
H12_2 H 0.7288 0.3913 0.1822
C13_2 C 0.4957(2) 0.09203(17) 0.6906(2)
C14_2 C 0.52848(19) 0.09281(15) 0.79629(18)
C15_2 C 0.59953(19) 0.04282(15) 0.83855(19)
C16_2 C 0.62213(18) 0.03862(15) 0.93646(18)
C17_2 C 0.57135(18) 0.08533(16) 0.99520(19)
C18_2 C 0.5044(2) 0.13884(16) 0.9531(2)
C19_2 C 0.4842(2) 0.14038(17) 0.8538(2)
H13_2 H 0.4396 0.1745 0.8262
H14_2 H 0.4151 0.2240 0.9850
C31_2 C 0.8506(2) 0.07017(17) 0.9081(2)
H21_2 H 0.7978 0.0577 0.8659
C32_2 C 0.9244(2) 0.10865(19) 0.8758(2)
H22_2 H 0.9212 0.1218 0.8116
O1_2 O 0.53872(13) 0.04544(12) 0.64046(13)
O3_2 O 0.42928(17) 0.13316(13) 0.65833(15)
O4_2 O 0.38634(15) 0.08424(13) 0.48224(15)
H27_2 H 0.3371 0.0930 0.4437
H28_2 H 0.3944 0.1052 0.5366
N1_2 N 0.60013(15) 0.08174(13) 0.43624(15)
N2 N 0.90012(16) 0.40815(13) 0.04999(16)
C59_2 C 0.3079(2) 0.02008(16) 0.02217(19)
H48_2 H 0.2863 0.0479 0.0750
O12_2 O 0.35509(14) 0.00386(11) 0.21775(13)
H57_2 H 0.3700 0.0031 0.2814
Mn5_4 Mn 1.0000 0.5000 -0.0000
C33_2 C 0.9950(2) 0.62876(19) 0.5628(2)
H23_2 H 0.9455 0.6552 0.5860
C34_2 C 0.9898(2) 0.60935(18) 0.4695(2)
H24_2 H 0.9361 0.6226 0.4290
O2_2 O 0.89252(14) 0.58983(11) 0.01138(14)
H26_2 H 0.8549 0.6038 0.0513
loop_
_geom_bond_atom_site_label_1
_geom_bond_atom_site_label_2
_geom_bond_site_symmetry_1
_geom_bond_site_symmetry_2
Mn1 O2 1_555 1_555
H24 C34 1_555 1_555
O2 H25 1_555 1_555
H26 O2 1_555 1_555
O17 Mn1_2 1_555 1_555
N5 Mn1_2 1_555 1_555
O14 C70 1_555 1_555
O15 C61 1_555 1_555
H58 O15 1_555 1_555
C56 C55 1_555 1_555
H45 C56 1_555 1_555
C57 C56 1_555 1_555
H46 C57 1_555 1_555
H47 C58 1_555 1_555
C63 C62 1_555 1_555
H50 C63 1_555 1_555
C64 C63 1_555 1_555
C65 C60 1_555 1_555
C57 C58 1_555 1_555
C64 C65 1_555 1_555
H53 C68 1_555 1_555
C1 H1 1_555 1_555
C2 C1 1_555 1_555
H2 C2 1_555 1_555
C3 C2 1_555 1_555
C4 C3 1_555 1_555
H3 C4 1_555 1_555
C5 C4 1_555 1_555
H4 C5 1_555 1_555
C6 C3 1_555 1_555
H5 C6 1_555 1_555
H6 C6 1_555 1_555
C7 C6 1_555 1_555
H7 C7 1_555 1_555
H8 C7 1_555 1_555
C8 C7 1_555 1_555
C9 C8 1_555 1_555
H9 C9 1_555 1_555
C10 C9 1_555 1_555
H10 C10 1_555 1_555
C11 H11 1_555 1_555
C12 C8 1_555 1_555
H12 C12 1_555 1_555
O4 Mn2 1_555 1_555
H27 O4 1_555 1_555
N1 Mn2 1_555 1_555
N5 C10 1_555 1_555
C48 C49 1_555 1_555
C49 C50 1_555 1_555
C50 C51 1_555 1_555
C51 C52 1_555 1_555
C52 C53 1_555 1_555
C53 C54 1_555 1_555
C54 C49 1_555 1_555
H43 C54 1_555 1_555
C55_2 C53 1_555 1_555
H44 C55_2 1_555 1_555
C56_2 C55_2 1_555 1_555
H45_2 C56_2 1_555 1_555
C57_2 C56_2 1_555 1_555
H46_2 C57_2 1_555 1_555
C58_2 C52 1_555 1_555
H47_2 C58_2 1_555 1_555
C59 C51 1_555 1_555
H48 C59 1_555 1_555
H49_2 C59 1_555 1_555
C60_2 C59 1_555 1_555
C61_2 C60_2 1_555 1_555
C62_2 C61_2 1_555 1_555
C63_2 C62_2 1_555 1_555
H50_2 C63_2 1_555 1_555
C64_2 C63_2 1_555 1_555
C65_2 C60_2 1_555 1_555
C66 C65_2 1_555 1_555
H51 C66 1_555 1_555
C67 C66 1_555 1_555
H52 C67 1_555 1_555
C70_2 C62_2 1_555 1_555
O9 Mn2 1_555 1_555
O10 C48 1_555 1_555
O12 C50 1_555 1_555
H57 O12 1_555 1_555
O13 C70_2 1_555 1_555
O14_2 C70_2 1_555 1_555
O15_2 C61_2 1_555 1_555
H58_2 O15_2 1_555 1_555
Mn5 O13 1_555 1_555
C1 N1 1_555 1_555
C5 N1 1_555 1_555
C11 C12 1_555 1_555
C11 N5 1_555 1_555
C48 O9 1_555 1_555
C57_2 C58_2 1_555 1_555
C64_2 C65_2 1_555 1_555
H23 C33 1_555 1_555
C21 C20 1_555 1_555
H15 C21 1_555 1_555
C22 C21 1_555 1_555
H16 C22 1_555 1_555
H17 C23 1_555 1_555
C28 C27 1_555 1_555
H20 C28 1_555 1_555
C29 C28 1_555 1_555
C30 C25 1_555 1_555
O6 Mn1_3 1_555 1_555
N6 Mn1_3 1_555 1_555
C22 C23 1_555 1_555
C29 C30 1_555 1_555
O7 C35 1_555 1_555
O8 C26 1_555 1_555
H30 O8 1_555 1_555
O16 Mn1_4 1_555 1_555
H59 O16 1_555 1_555
H60 O16 1_555 1_555
H54 C69 1_555 1_555
Mn2_2 O1 1_555 1_555
C13 C14 1_555 1_555
C14 C15 1_555 1_555
C15 C16 1_555 1_555
C16 C17 1_555 1_555
C17 C18 1_555 1_555
C18 C19 1_555 1_555
C19 C14 1_555 1_555
H13 C19 1_555 1_555
C20_2 C18 1_555 1_555
H14 C20_2 1_555 1_555
C21_2 C20_2 1_555 1_555
H15_2 C21_2 1_555 1_555
C22_2 C21_2 1_555 1_555
H16_2 C22_2 1_555 1_555
C23_2 C17 1_555 1_555
H17_2 C23_2 1_555 1_555
C24 C16 1_555 1_555
H18 C24 1_555 1_555
H19_2 C24 1_555 1_555
C25_2 C24 1_555 1_555
C26_2 C25_2 1_555 1_555
C27_2 C26_2 1_555 1_555
C28_2 C27_2 1_555 1_555
H20_2 C28_2 1_555 1_555
C29_2 C28_2 1_555 1_555
C30_2 C25_2 1_555 1_555
C31 C30_2 1_555 1_555
H21 C31 1_555 1_555
C32 C31 1_555 1_555
H22 C32 1_555 1_555
C35_2 C27_2 1_555 1_555
O1 C13 1_555 1_555
O3 C13 1_555 1_555
O5 C15 1_555 1_555
H29 O5 1_555 1_555
O6_2 Mn5_2 1_555 1_555
O7_2 C35_2 1_555 1_555
O8_2 C26_2 1_555 1_555
H30_2 O8_2 1_555 1_555
C36 H31 1_555 1_555
C37 C36 1_555 1_555
H32 C37 1_555 1_555
C38 C37 1_555 1_555
C39 C38 1_555 1_555
H33 C39 1_555 1_555
C40 C39 1_555 1_555
H34 C40 1_555 1_555
C41 C38 1_555 1_555
H35 C41 1_555 1_555
H36 C41 1_555 1_555
C42 C41 1_555 1_555
H37 C42 1_555 1_555
H38 C42 1_555 1_555
C43 C42 1_555 1_555
C44 C43 1_555 1_555
H39 C44 1_555 1_555
C45 C44 1_555 1_555
H40 C45 1_555 1_555
C46 H41 1_555 1_555
C47 C43 1_555 1_555
H42 C47 1_555 1_555
O11 Mn2_2 1_555 1_555
H55 O11 1_555 1_555
N3 Mn2_2 1_555 1_555
N6 C45 1_555 1_555
C22_2 C23_2 1_555 1_555
C29_2 C30_2 1_555 1_555
C35_2 O6_2 1_555 1_555
C36 N3 1_555 1_555
C40 N3 1_555 1_555
C46 C47 1_555 1_555
C46 N6 1_555 1_555
H18_2 C24_2 1_555 1_555
H29_2 O5_2 1_555 1_555
C36_2 H31_2 1_555 1_555
C37_2 C36_2 1_555 1_555
H32_2 C37_2 1_555 1_555
C38_2 C37_2 1_555 1_555
C39_2 C38_2 1_555 1_555
H33_2 C39_2 1_555 1_555
C40_2 C39_2 1_555 1_555
H34_2 C40_2 1_555 1_555
C41_2 C38_2 1_555 1_555
H35_2 C41_2 1_555 1_555
H36_2 C41_2 1_555 1_555
C42_2 C41_2 1_555 1_555
H37_2 C42_2 1_555 1_555
H38_2 C42_2 1_555 1_555
C43_2 C42_2 1_555 1_555
C44_2 C43_2 1_555 1_555
H39_2 C44_2 1_555 1_555
C45_2 C44_2 1_555 1_555
H40_2 C45_2 1_555 1_555
C46_2 H41_2 1_555 1_555
C47_2 C43_2 1_555 1_555
H42_2 C47_2 1_555 1_555
C48_2 C49_2 1_555 1_555
C49_2 C50_2 1_555 1_555
C50_2 C51_2 1_555 1_555
C51_2 C52_2 1_555 1_555
C52_2 C53_2 1_555 1_555
C53_2 C54_2 1_555 1_555
C54_2 C49_2 1_555 1_555
H43_2 C54_2 1_555 1_555
H51_2 C66_2 1_555 1_555
C67_2 C66_2 1_555 1_555
H52_2 C67_2 1_555 1_555
O9_2 Mn2_3 1_555 1_555
O10_2 C48_2 1_555 1_555
O11_2 Mn2_3 1_555 1_555
H55_2 O11_2 1_555 1_555
H56_2 O11_2 1_555 1_555
N3_2 Mn2_3 1_555 1_555
N4 C45_2 1_555 1_555
Mn5_3 N4 1_555 1_555
C36_2 N3_2 1_555 1_555
C40_2 N3_2 1_555 1_555
C46_2 C47_2 1_555 1_555
C46_2 N4 1_555 1_555
C48_2 O9_2 1_555 1_555
H53_2 C68_2 1_555 1_555
H54_2 C69_2 1_555 1_555
C68_2 C69_2 1_555 1_555
O16_2 Mn5_3 1_555 1_555
H60_2 O16_2 1_555 1_555
Mn2_4 O1_2 1_555 1_555
C1_2 H1_2 1_555 1_555
C2_2 C1_2 1_555 1_555
H2_2 C2_2 1_555 1_555
C3_2 C2_2 1_555 1_555
C4_2 C3_2 1_555 1_555
H3_2 C4_2 1_555 1_555
C5_2 C4_2 1_555 1_555
H4_2 C5_2 1_555 1_555
C6_2 C3_2 1_555 1_555
H5_2 C6_2 1_555 1_555
H6_2 C6_2 1_555 1_555
C7_2 C6_2 1_555 1_555
H7_2 C7_2 1_555 1_555
H8_2 C7_2 1_555 1_555
C8_2 C7_2 1_555 1_555
C9_2 C8_2 1_555 1_555
H9_2 C9_2 1_555 1_555
C10_2 C9_2 1_555 1_555
H10_2 C10_2 1_555 1_555
C11_2 H11_2 1_555 1_555
C12_2 C8_2 1_555 1_555
H12_2 C12_2 1_555 1_555
C13_2 C14_2 1_555 1_555
C14_2 C15_2 1_555 1_555
C15_2 C16_2 1_555 1_555
C16_2 C17_2 1_555 1_555
C17_2 C18_2 1_555 1_555
C18_2 C19_2 1_555 1_555
C19_2 C14_2 1_555 1_555
H13_2 C19_2 1_555 1_555
H21_2 C31_2 1_555 1_555
C32_2 C31_2 1_555 1_555
H22_2 C32_2 1_555 1_555
O1_2 C13_2 1_555 1_555
O3_2 C13_2 1_555 1_555
O4_2 Mn2_4 1_555 1_555
H27_2 O4_2 1_555 1_555
H28_2 O4_2 1_555 1_555
N1_2 Mn2_4 1_555 1_555
N2 C10_2 1_555 1_555
H48_2 C59_2 1_555 1_555
H57_2 O12_2 1_555 1_555
Mn5_4 N2 1_555 1_555
C1_2 N1_2 1_555 1_555
C5_2 N1_2 1_555 1_555
C11_2 C12_2 1_555 1_555
C11_2 N2 1_555 1_555
Mn5_4 O2_2 1_555 1_555
H23_2 C33_2 1_555 1_555
H24_2 C34_2 1_555 1_555
H26_2 O2_2 1_555 1_555
C33_2 C34_2 1_555 1_555

#END
