
###############################################################################
#
# This file contains modified crystal structure data generated from the
# MOF subset of the Cambridge Structural Database (CSD) v543 
# hosted by the Cambridge Crystallographic Data Centre (CCDC).
#
# This work is licensed under the Creative Commons
# Attribution-NonCommercial-ShareAlike 4.0 International License.
# To view a copy of this license, visit
# http://creativecommons.org/licenses/by-nc-sa/4.0/
# or send a letter to
# Creative Commons, PO Box 1866, Mountain View, CA 94042, USA.
#
# CIF created using the CSD Python API on 29 September 2022
# The structure has been converted into the P1 space group
# The structure has a 3D framework
# The original CSD entry WEJGEB is in the monoclinic crystal system
# The framework has been calculated to contain at least 10.0% void space
# The void calculation uses a probe of radius 1.32A, grid spacing 0.4
#
###############################################################################

data_WEJGEB
_chemical_formula_moiety         '(C136 H88 Co2 N12 O24)n'
_symmetry_cell_setting           triclinic
_symmetry_space_group_name_H-M   'P 1'
_symmetry_Int_Tables_number      1
_space_group_name_Hall           'P 1'
loop_
_symmetry_equiv_pos_site_id
_symmetry_equiv_pos_as_xyz
1 x,y,z
_cell_length_a                   13.413(2)
_cell_length_b                   13.799(2)
_cell_length_c                   23.295(4)
_cell_angle_alpha                90
_cell_angle_beta                 90.554(3)
_cell_angle_gamma                90
_cell_volume                     4311.38
loop_
_atom_site_label
_atom_site_type_symbol
_atom_site_fract_x
_atom_site_fract_y
_atom_site_fract_z
Co3 Co 0.06132(5) 0.70771(5) 0.04719(3)
N7 N 0.0680(3) 0.8448(3) 0.0757(2)
Co11 Co -0.000000 0.500000 -0.000000
O17 O 0.0778(3) 0.6408(3) 0.12092(15)
O20 O 0.1829(3) 0.6989(3) 0.00420(16)
O5 O 0.3171(3) 0.6989(3) 0.49580(16)
O6 O 0.3630(3) 0.5537(3) 0.52842(17)
C16 C 0.0323(4) 0.6166(5) 0.6224(2)
C18 C 0.2111(4) 0.6211(5) 0.5600(2)
C24 C 0.3046(4) 0.6233(5) 0.5255(2)
C27 C 0.0520(4) 0.6912(5) 0.5846(2)
H15 H 0.005306 0.740384 0.579404
C28 C 0.1392(4) 0.6937(5) 0.5546(2)
H16 H 0.150988 0.745384 0.529940
C29 C 0.1057(5) 0.5458(5) 0.6296(3)
H17 H 0.095313 0.495776 0.655575
H18 H 0.023623 0.605517 0.835429
C33 C 0.1928(5) 0.5483(4) 0.5993(3)
H21 H 0.240328 0.500128 0.605206
H22 H 0.023834 0.673990 0.744374
Co4 Co 0.43868(5) 0.70771(5) 0.45281(3)
Co9 Co 0.500000 0.500000 0.500000
Co11_2 Co 0.000000 0.500000 1.000000
H3 H 0.413517 0.048769 0.992283
N4 N 0.5680(3) 0.1552(3) 0.5757(2)
N5 N 0.5651(4) 0.0243(4) 0.7110(2)
H23 H 0.544958 0.073456 0.730329
C35 C 0.5617(4) 0.1312(4) 0.6311(3)
H24 H 0.548579 0.180212 0.657335
C36 C 0.5735(5) 0.0381(5) 0.6518(3)
C42 C 0.5884(5) 0.0847(5) 0.5383(3)
H27 H 0.595666 0.100272 0.499690
C46 C 0.4751(6) 0.0058(6) 0.8862(3)
H31 H 0.417515 0.034527 0.900196
H32 H 0.441853 0.026508 0.802835
Co7 Co 0.56132(5) 0.29229(5) 0.54719(3)
O9 O 0.9440(3) 0.6445(3) 0.01092(16)
H35 H 0.758817 0.605437 0.000620
Co11_3 Co 1.000000 0.500000 -0.000000
N1 N 0.4320(3) 0.8448(3) 0.4243(2)
N2 N 0.4349(4) 0.9757(4) 0.2890(2)
H1 H 0.455042 0.926544 0.269671
C1 C 0.4383(4) 0.8688(4) 0.3689(3)
H2 H 0.451421 0.819788 0.342665
C2 C 0.4265(5) 0.9619(5) 0.3482(3)
C8 C 0.4116(5) 0.9153(5) 0.4617(3)
H5 H 0.404334 0.899728 0.500310
C12 C 0.5249(6) 0.9942(6) 0.1138(3)
H9 H 0.582485 0.965473 0.099804
H10 H 0.558147 0.973492 0.197165
O2 O 0.5560(3) 0.6445(3) 0.48908(16)
O3 O 0.9642(3) 0.5024(3) 0.91564(15)
O4 O 0.9222(3) 0.3592(3) 0.87908(15)
O7 O 0.5259(3) 0.7658(3) 0.54760(19)
N3 N 0.9413(3) 0.6112(4) 0.65069(19)
C14 C 0.9380(4) 0.4914(4) 0.8163(2)
C15 C 0.8518(4) 0.6329(4) 0.6222(2)
C17 C 0.6747(4) 0.6747(4) 0.5646(2)
C19 C 0.6891(4) 0.7003(4) 0.6210(2)
H11 H 0.639056 0.733163 0.640312
C20 C 0.9419(4) 0.4484(5) 0.8749(2)
C21 C 0.5794(4) 0.6983(5) 0.5330(3)
C22 C 0.7762(4) 0.6780(4) 0.6493(2)
H12 H 0.783319 0.694136 0.687925
C23 C 0.9386(4) 0.5707(5) 0.7068(2)
C25 C 0.7503(4) 0.6253(4) 0.5372(2)
H13 H 0.741183 0.605437 0.499380
C26 C 0.8873(4) 0.4480(4) 0.7720(2)
H14 H 0.853429 0.390199 0.778264
C30 C 0.9889(5) 0.5754(5) 0.8057(2)
C31 C 0.8384(4) 0.6051(5) 0.5651(2)
H19 H 0.889150 0.572871 0.545979
C32 C 0.8860(5) 0.4898(5) 0.7177(2)
H20 H 0.848264 0.461539 0.688451
C34 C 0.9896(5) 0.6165(5) 0.7510(3)
H25 H 0.586483 0.951231 0.007717
O10 O 0.5358(3) 0.5024(3) 0.58436(15)
O11 O 0.5778(3) 0.3592(3) 0.62092(15)
O13 O 0.1370(3) 0.5537(3) 0.97158(17)
O14 O 0.9741(3) 0.7658(3) 0.95240(19)
N6 N 0.5587(3) 0.6112(4) 0.84931(19)
C48 C 0.5620(4) 0.4914(4) 0.6837(2)
C49 C 0.6482(4) 0.6329(4) 0.8778(2)
C50 C 0.4677(4) 0.6166(5) 0.8776(2)
C51 C 0.8253(4) 0.6747(4) 0.9354(2)
C52 C 0.2889(4) 0.6211(5) 0.9400(2)
C53 C 0.8109(4) 0.7003(4) 0.8790(2)
H33 H 0.860944 0.733163 0.859688
C54 C 0.5581(4) 0.4484(5) 0.6251(2)
C55 C 0.9206(4) 0.6983(5) 0.9670(3)
C56 C 0.7238(4) 0.6780(4) 0.8507(2)
H34 H 0.716681 0.694136 0.812075
C57 C 0.5614(4) 0.5707(5) 0.7932(2)
C58 C 0.1954(4) 0.6233(5) 0.9745(2)
C59 C 0.7497(4) 0.6253(4) 0.9628(2)
C60 C 0.6127(4) 0.4480(4) 0.7280(2)
H36 H 0.646571 0.390199 0.721736
C61 C 0.4480(4) 0.6912(5) 0.9154(2)
H37 H 0.494694 0.740384 0.920596
C62 C 0.3608(4) 0.6937(5) 0.9454(2)
H38 H 0.349012 0.745384 0.970060
C63 C 0.3943(5) 0.5458(5) 0.8704(3)
H39 H 0.404687 0.495776 0.844425
C64 C 0.5111(5) 0.5754(5) 0.6943(2)
H40 H 0.476377 0.605517 0.664571
C65 C 0.6616(4) 0.6051(5) 0.9349(2)
H41 H 0.610850 0.572871 0.954021
C66 C 0.6140(5) 0.4898(5) 0.7823(2)
H42 H 0.651736 0.461539 0.811549
C67 C 0.3072(5) 0.5483(4) 0.9007(3)
H43 H 0.259672 0.500128 0.894794
C68 C 0.5104(5) 0.6165(5) 0.7490(3)
H44 H 0.476166 0.673990 0.755626
Co8 Co 0.93868(5) 0.29229(5) 0.95281(3)
Co11_4 Co 1.000000 0.500000 1.000000
O15 O 0.4440(3) 0.3555(3) 0.51092(16)
O16 O 0.4642(3) 0.4976(3) 0.41564(15)
O18 O 0.4222(3) 0.6408(3) 0.37908(15)
O22 O 0.6370(3) 0.4463(3) 0.47158(17)
O1 O 0.1156(5) 0.1302(4) 0.2204(2)
C3 C 0.0700(6) 0.0457(5) 0.3050(3)
C4 C 0.0846(6) 0.0570(6) 0.2415(3)
C5 C 0.0356(6) 0.0210(6) 0.4859(3)
H3_2 H 0.086483 0.048769 0.507717
C6 C 0.0446(6) 0.0295(5) 0.4235(3)
C7 C 0.0915(6) 0.0347(5) 0.1131(3)
H4 H 0.098612 0.098652 0.125087
C9 C 0.0989(6) 0.0100(5) 0.0553(3)
H6 H 0.111041 0.057895 0.028181
C10 C 0.1374(6) 0.0851(5) 0.3421(3)
H7 H 0.192434 0.118317 0.328064
C11 C 0.1245(6) 0.0760(6) 0.4002(3)
H8 H 0.172170 0.102652 0.424740
C46_2 C 0.0249(6) 0.0058(6) 0.6138(3)
H31_2 H 0.082485 0.034527 0.599804
H32_2 H 0.058147 0.026508 0.697165
N2_2 N 0.0651(4) 0.9757(4) 0.2110(2)
H1_2 H 0.044958 0.926544 0.230329
C1_2 C 0.0617(4) 0.8688(4) 0.1311(3)
H2_2 H 0.048579 0.819788 0.157335
C2_2 C 0.0735(5) 0.9619(5) 0.1518(3)
C8_2 C 0.0884(5) 0.9153(5) 0.0383(3)
C47 C 0.0110(6) 0.9993(6) 0.6725(3)
O16_2 O 0.0358(3) 0.4976(3) 0.08436(15)
H5_2 H 0.095666 0.899728 0.999690
O15_2 O 0.0560(3) 0.3555(3) 0.98908(16)
H27_2 H 0.904334 0.100272 0.000310
C13 C 0.9890(6) 0.0007(6) 0.3275(3)
N4_2 N 0.9320(3) 0.1552(3) 0.9243(2)
N5_2 N 0.9349(4) 0.0243(4) 0.7890(2)
H23_2 H 0.955042 0.073456 0.769671
C35_2 C 0.9383(4) 0.1312(4) 0.8689(3)
H24_2 H 0.951421 0.180212 0.842665
C36_2 C 0.9265(5) 0.0381(5) 0.8482(3)
C42_2 C 0.9116(5) 0.0847(5) 0.9617(3)
C12_2 C 0.9751(6) 0.9942(6) 0.3862(3)
H9_2 H 0.917515 0.965473 0.400196
H10_2 H 0.941853 0.973492 0.302835
O8 O 0.8844(5) 0.8698(4) 0.7796(2)
C37 C 0.9300(6) 0.9543(5) 0.6950(3)
C38 C 0.9154(6) 0.9430(6) 0.7585(3)
C39 C 0.9644(6) 0.9790(6) 0.5141(3)
H25_2 H 0.913517 0.951231 0.492283
C40 C 0.9554(6) 0.9705(5) 0.5765(3)
C41 C 0.9085(6) 0.9653(5) 0.8869(3)
H26 H 0.901388 0.901348 0.874913
C43 C 0.9011(6) 0.9900(5) 0.9447(3)
H28 H 0.888959 0.942105 0.971819
C44 C 0.8626(6) 0.9149(5) 0.6579(3)
H29 H 0.807566 0.881683 0.671936
C45 C 0.8755(6) 0.9240(6) 0.5998(3)
H30 H 0.827830 0.897348 0.575260
O22_2 O 0.8630(3) 0.4463(3) 0.02842(17)
O7_2 O 0.4741(3) 0.2342(3) 0.45240(19)
N3_2 N 0.0587(3) 0.3888(4) 0.34931(19)
C14_2 C 0.0620(4) 0.5086(4) 0.1837(2)
C15_2 C 0.1482(4) 0.3671(4) 0.3778(2)
C17_2 C 0.3253(4) 0.3253(4) 0.4354(2)
C19_2 C 0.3109(4) 0.2997(4) 0.3790(2)
H11_2 H 0.360944 0.266837 0.359688
C20_2 C 0.0581(4) 0.5516(5) 0.1251(2)
C21_2 C 0.4206(4) 0.3017(5) 0.4670(3)
C22_2 C 0.2238(4) 0.3220(4) 0.3507(2)
H12_2 H 0.216681 0.305864 0.312075
C23_2 C 0.0614(4) 0.4293(5) 0.2932(2)
C25_2 C 0.2497(4) 0.3747(4) 0.4628(2)
H13_2 H 0.258817 0.394563 0.500620
C26_2 C 0.1127(4) 0.5520(4) 0.2280(2)
H14_2 H 0.146571 0.609801 0.221736
C30_2 C 0.0111(5) 0.4246(5) 0.1943(2)
C31_2 C 0.1616(4) 0.3949(5) 0.4349(2)
H19_2 H 0.110850 0.427129 0.454021
C32_2 C 0.1140(5) 0.5102(5) 0.2823(2)
H20_2 H 0.151736 0.538461 0.311549
C34_2 C 0.0104(5) 0.3835(5) 0.2490(3)
O14_2 O 0.0259(3) 0.2342(3) 0.04760(19)
N6_2 N 0.4413(3) 0.3888(4) 0.15069(19)
C48_2 C 0.4380(4) 0.5086(4) 0.3163(2)
C49_2 C 0.3518(4) 0.3671(4) 0.1222(2)
C50_2 C 0.5323(4) 0.3834(5) 0.1224(2)
C51_2 C 0.1747(4) 0.3253(4) 0.0646(2)
C52_2 C 0.7111(4) 0.3789(5) 0.0600(2)
C53_2 C 0.1891(4) 0.2997(4) 0.1210(2)
H33_2 H 0.139056 0.266837 0.140312
C54_2 C 0.4419(4) 0.5516(5) 0.3749(2)
C55_2 C 0.0794(4) 0.3017(5) 0.0330(3)
C56_2 C 0.2762(4) 0.3220(4) 0.1493(2)
H34_2 H 0.283319 0.305864 0.187925
C57_2 C 0.4386(4) 0.4293(5) 0.2068(2)
C58_2 C 0.8046(4) 0.3767(5) 0.0255(2)
C59_2 C 0.2503(4) 0.3747(4) 0.0372(2)
C60_2 C 0.3873(4) 0.5520(4) 0.2720(2)
H36_2 H 0.353429 0.609801 0.278264
C61_2 C 0.5520(4) 0.3088(5) 0.0846(2)
H37_2 H 0.505306 0.259616 0.079404
C62_2 C 0.6392(4) 0.3063(5) 0.0546(2)
H38_2 H 0.650988 0.254616 0.029940
C63_2 C 0.6057(5) 0.4542(5) 0.1296(3)
H39_2 H 0.595313 0.504224 0.155575
C64_2 C 0.4889(5) 0.4246(5) 0.3057(2)
H40_2 H 0.523623 0.394483 0.335429
C65_2 C 0.3384(4) 0.3949(5) 0.0651(2)
H41_2 H 0.389150 0.427129 0.045979
C66_2 C 0.3860(5) 0.5102(5) 0.2177(2)
H42_2 H 0.348264 0.538461 0.188451
C67_2 C 0.6928(5) 0.4517(4) 0.0993(3)
H43_2 H 0.740328 0.499872 0.105206
C68_2 C 0.4896(5) 0.3835(5) 0.2510(3)
H44_2 H 0.523834 0.326010 0.244374
O19 O 0.6829(3) 0.3011(3) 0.50420(16)
O12 O 0.8171(3) 0.3011(3) 0.99580(16)
H35_2 H 0.241183 0.394563 0.999380
C16_2 C 0.9677(4) 0.3834(5) 0.3776(2)
C18_2 C 0.7889(4) 0.3789(5) 0.4400(2)
C24_2 C 0.6954(4) 0.3767(5) 0.4745(2)
C27_2 C 0.9480(4) 0.3088(5) 0.4154(2)
H15_2 H 0.994694 0.259616 0.420596
C28_2 C 0.8608(4) 0.3063(5) 0.4454(2)
H16_2 H 0.849012 0.254616 0.470060
C29_2 C 0.8943(5) 0.4542(5) 0.3704(3)
H17_2 H 0.904687 0.504224 0.344425
H18_2 H 0.976377 0.394483 0.164571
C33_2 C 0.8072(5) 0.4517(4) 0.4007(3)
H21_2 H 0.759672 0.499872 0.394794
H22_2 H 0.976166 0.326010 0.255626
O1_2 O 0.3844(5) 0.1302(4) 0.2796(2)
C3_2 C 0.4300(6) 0.0457(5) 0.1950(3)
C4_2 C 0.4154(6) 0.0570(6) 0.2585(3)
C5_2 C 0.4644(6) 0.0210(6) 0.0141(3)
C6_2 C 0.4554(6) 0.0295(5) 0.0765(3)
C7_2 C 0.4085(6) 0.0347(5) 0.3869(3)
H4_2 H 0.401388 0.098652 0.374913
C9_2 C 0.4011(6) 0.0100(5) 0.4447(3)
H6_2 H 0.388959 0.057895 0.471819
C10_2 C 0.3626(6) 0.0851(5) 0.1579(3)
H7_2 H 0.307566 0.118317 0.171936
C11_2 C 0.3755(6) 0.0760(6) 0.0998(3)
H8_2 H 0.327830 0.102652 0.075260
C13_2 C 0.5110(6) 0.0007(6) 0.1725(3)
O8_2 O 0.6156(5) 0.8698(4) 0.7204(2)
C37_2 C 0.5700(6) 0.9543(5) 0.8050(3)
C38_2 C 0.5846(6) 0.9430(6) 0.7415(3)
C39_2 C 0.5356(6) 0.9790(6) 0.9859(3)
C40_2 C 0.5446(6) 0.9705(5) 0.9235(3)
C41_2 C 0.5915(6) 0.9653(5) 0.6131(3)
H26_2 H 0.598612 0.901348 0.625087
C43_2 C 0.5989(6) 0.9900(5) 0.5553(3)
H28_2 H 0.611041 0.942105 0.528181
C44_2 C 0.6374(6) 0.9149(5) 0.8421(3)
H29_2 H 0.692434 0.881683 0.828064
C45_2 C 0.6245(6) 0.9240(6) 0.9002(3)
H30_2 H 0.672170 0.897348 0.924740
C47_2 C 0.4890(6) 0.9993(6) 0.8275(3)
loop_
_geom_bond_atom_site_label_1
_geom_bond_atom_site_label_2
_geom_bond_site_symmetry_1
_geom_bond_site_symmetry_2
N7 Co3 1_555 1_555
O17 Co3 1_555 1_555
O20 Co3 1_555 1_555
O5 C24 1_555 1_555
O6 C24 1_555 1_555
C18 C24 1_555 1_555
C27 C16 1_555 1_555
H15 C27 1_555 1_555
C28 C18 1_555 1_555
H16 C28 1_555 1_555
C29 C16 1_555 1_555
H17 C29 1_555 1_555
C33 C18 1_555 1_555
H21 C33 1_555 1_555
Co4 O5 1_555 1_555
Co9 O6 1_555 1_555
C27 C28 1_555 1_555
C29 C33 1_555 1_555
N4 C35 1_555 1_555
N5 H23 1_555 1_555
C35 H24 1_555 1_555
C36 N5 1_555 1_555
C42 N4 1_555 1_555
H27 C42 1_555 1_555
H31 C46 1_555 1_555
Co7 N4 1_555 1_555
C35 C36 1_555 1_555
O9 Co11_3 1_555 1_555
Co4 N1 1_555 1_555
N1 C1 1_555 1_555
N2 H1 1_555 1_555
C1 H2 1_555 1_555
C2 N2 1_555 1_555
C8 N1 1_555 1_555
H5 C8 1_555 1_555
H9 C12 1_555 1_555
Co9 O2 1_555 1_555
O2 Co4 1_555 1_555
O3 C20 1_555 1_555
O4 C20 1_555 1_555
O7 C21 1_555 1_555
N3 C15 1_555 1_555
C14 C20 1_555 1_555
C15 C22 1_555 1_555
C17 C19 1_555 1_555
C19 H11 1_555 1_555
C21 O2 1_555 1_555
C22 C19 1_555 1_555
H12 C22 1_555 1_555
C23 N3 1_555 1_555
C25 C17 1_555 1_555
H13 C25 1_555 1_555
C26 C14 1_555 1_555
H14 C26 1_555 1_555
C30 C14 1_555 1_555
C31 C15 1_555 1_555
H19 C31 1_555 1_555
C32 C23 1_555 1_555
H20 C32 1_555 1_555
C34 C23 1_555 1_555
O10 Co9 1_555 1_555
O11 C54 1_555 1_555
O13 C58 1_555 1_555
O14 C55 1_555 1_555
N6 C49 1_555 1_555
C48 C54 1_555 1_555
C49 C56 1_555 1_555
C50 N6 1_555 1_555
C51 C53 1_555 1_555
C52 C58 1_555 1_555
C53 H33 1_555 1_555
C54 O10 1_555 1_555
C55 C51 1_555 1_555
C56 C53 1_555 1_555
H34 C56 1_555 1_555
C57 N6 1_555 1_555
C59 C51 1_555 1_555
C60 C48 1_555 1_555
H36 C60 1_555 1_555
C61 C50 1_555 1_555
H37 C61 1_555 1_555
C62 C52 1_555 1_555
H38 C62 1_555 1_555
C63 C50 1_555 1_555
H39 C63 1_555 1_555
C64 C48 1_555 1_555
H40 C64 1_555 1_555
C65 C49 1_555 1_555
H41 C65 1_555 1_555
C66 C57 1_555 1_555
H42 C66 1_555 1_555
C67 C52 1_555 1_555
H43 C67 1_555 1_555
C68 C57 1_555 1_555
H44 C68 1_555 1_555
Co7 O11 1_555 1_555
Co8 O4 1_555 1_555
Co11_2 O13 1_555 1_555
Co11_4 O3 1_555 1_555
O15 Co9 1_555 1_555
O16 Co9 1_555 1_555
O18 Co4 1_555 1_555
O22 Co9 1_555 1_555
C1 C2 1_555 1_555
C17 C21 1_555 1_555
C25 C31 1_555 1_555
C26 C32 1_555 1_555
C30 C34 1_555 1_555
C59 C65 1_555 1_555
C60 C66 1_555 1_555
C61 C62 1_555 1_555
C63 C67 1_555 1_555
C64 C68 1_555 1_555
Co7 O15 1_555 1_555
O1 C4 1_555 1_555
C3 C4 1_555 1_555
C5 H3_2 1_555 1_555
C6 C5 1_555 1_555
H4 C7 1_555 1_555
C9 C7 1_555 1_555
H6 C9 1_555 1_555
C10 C3 1_555 1_555
H7 C10 1_555 1_555
C11 C6 1_555 1_555
H8 C11 1_555 1_555
H31_2 C46_2 1_555 1_555
C10 C11 1_555 1_555
N7 C1_2 1_555 1_555
N2_2 H1_2 1_555 1_555
C1_2 H2_2 1_555 1_555
C2_2 N2_2 1_555 1_555
C8_2 N7 1_555 1_555
O16_2 Co11 1_555 1_555
C1_2 C2_2 1_555 1_555
O15_2 Co11_2 1_555 1_555
N4_2 C35_2 1_555 1_555
N5_2 H23_2 1_555 1_555
C35_2 H24_2 1_555 1_555
C36_2 N5_2 1_555 1_555
C42_2 N4_2 1_555 1_555
Co8 N4_2 1_555 1_555
C35_2 C36_2 1_555 1_555
H9_2 C12_2 1_555 1_555
O8 C38 1_555 1_555
C37 C38 1_555 1_555
H25_2 C39 1_555 1_555
C40 C39 1_555 1_555
H26 C41 1_555 1_555
C43 C41 1_555 1_555
H28 C43 1_555 1_555
C44 C37 1_555 1_555
H29 C44 1_555 1_555
C45 C40 1_555 1_555
H30 C45 1_555 1_555
O22_2 Co11_3 1_555 1_555
C44 C45 1_555 1_555
O16_2 C20_2 1_555 1_555
O17 C20_2 1_555 1_555
O7_2 C21_2 1_555 1_555
N3_2 C15_2 1_555 1_555
C14_2 C20_2 1_555 1_555
C15_2 C22_2 1_555 1_555
C17_2 C19_2 1_555 1_555
C19_2 H11_2 1_555 1_555
C21_2 O15 1_555 1_555
C22_2 C19_2 1_555 1_555
H12_2 C22_2 1_555 1_555
C23_2 N3_2 1_555 1_555
C25_2 C17_2 1_555 1_555
H13_2 C25_2 1_555 1_555
C26_2 C14_2 1_555 1_555
H14_2 C26_2 1_555 1_555
C30_2 C14_2 1_555 1_555
C31_2 C15_2 1_555 1_555
H19_2 C31_2 1_555 1_555
C32_2 C23_2 1_555 1_555
H20_2 C32_2 1_555 1_555
C34_2 C23_2 1_555 1_555
O18 C54_2 1_555 1_555
O22_2 C58_2 1_555 1_555
O14_2 C55_2 1_555 1_555
N6_2 C49_2 1_555 1_555
C48_2 C54_2 1_555 1_555
C49_2 C56_2 1_555 1_555
C50_2 N6_2 1_555 1_555
C51_2 C53_2 1_555 1_555
C52_2 C58_2 1_555 1_555
C53_2 H33_2 1_555 1_555
C54_2 O16 1_555 1_555
C55_2 C51_2 1_555 1_555
C56_2 C53_2 1_555 1_555
H34_2 C56_2 1_555 1_555
C57_2 N6_2 1_555 1_555
C59_2 C51_2 1_555 1_555
C60_2 C48_2 1_555 1_555
H36_2 C60_2 1_555 1_555
C61_2 C50_2 1_555 1_555
H37_2 C61_2 1_555 1_555
C62_2 C52_2 1_555 1_555
H38_2 C62_2 1_555 1_555
C63_2 C50_2 1_555 1_555
H39_2 C63_2 1_555 1_555
C64_2 C48_2 1_555 1_555
H40_2 C64_2 1_555 1_555
C65_2 C49_2 1_555 1_555
H41_2 C65_2 1_555 1_555
C66_2 C57_2 1_555 1_555
H42_2 C66_2 1_555 1_555
C67_2 C52_2 1_555 1_555
H43_2 C67_2 1_555 1_555
C68_2 C57_2 1_555 1_555
H44_2 C68_2 1_555 1_555
O19 Co7 1_555 1_555
C17_2 C21_2 1_555 1_555
C25_2 C31_2 1_555 1_555
C26_2 C32_2 1_555 1_555
C30_2 C34_2 1_555 1_555
C59_2 C65_2 1_555 1_555
C60_2 C66_2 1_555 1_555
C61_2 C62_2 1_555 1_555
C63_2 C67_2 1_555 1_555
C64_2 C68_2 1_555 1_555
Co8 O12 1_555 1_555
O19 C24_2 1_555 1_555
O22 C24_2 1_555 1_555
C18_2 C24_2 1_555 1_555
C27_2 C16_2 1_555 1_555
H15_2 C27_2 1_555 1_555
C28_2 C18_2 1_555 1_555
H16_2 C28_2 1_555 1_555
C29_2 C16_2 1_555 1_555
H17_2 C29_2 1_555 1_555
C33_2 C18_2 1_555 1_555
H21_2 C33_2 1_555 1_555
C27_2 C28_2 1_555 1_555
C29_2 C33_2 1_555 1_555
O1_2 C4_2 1_555 1_555
C3_2 C4_2 1_555 1_555
C6_2 C5_2 1_555 1_555
H4_2 C7_2 1_555 1_555
C9_2 C7_2 1_555 1_555
H6_2 C9_2 1_555 1_555
C10_2 C3_2 1_555 1_555
H7_2 C10_2 1_555 1_555
C11_2 C6_2 1_555 1_555
H8_2 C11_2 1_555 1_555
C13_2 C3_2 1_555 1_555
C10_2 C11_2 1_555 1_555
O8_2 C38_2 1_555 1_555
C37_2 C38_2 1_555 1_555
C40_2 C39_2 1_555 1_555
H26_2 C41_2 1_555 1_555
C43_2 C41_2 1_555 1_555
H28_2 C43_2 1_555 1_555
C44_2 C37_2 1_555 1_555
H29_2 C44_2 1_555 1_555
C45_2 C40_2 1_555 1_555
H30_2 C45_2 1_555 1_555
C47_2 C37_2 1_555 1_555
C44_2 C45_2 1_555 1_555

#END
