
###############################################################################
#
# This file contains modified crystal structure data generated from the
# MOF subset of the Cambridge Structural Database (CSD) v543 
# hosted by the Cambridge Crystallographic Data Centre (CCDC).
#
# This work is licensed under the Creative Commons
# Attribution-NonCommercial-ShareAlike 4.0 International License.
# To view a copy of this license, visit
# http://creativecommons.org/licenses/by-nc-sa/4.0/
# or send a letter to
# Creative Commons, PO Box 1866, Mountain View, CA 94042, USA.
#
# CIF created using the CSD Python API on 29 September 2022
# The structure has been converted into the P1 space group
# The structure has a 3D framework
# The original CSD entry WEJWUH is in the tetragonal crystal system
# The framework has been calculated to contain at least 10.0% void space
# The void calculation uses a probe of radius 1.32A, grid spacing 0.4
#
###############################################################################

data_WEJWUH
_chemical_formula_moiety         '(C64 H48 N48 O32 Zn16)n'
_symmetry_cell_setting           triclinic
_symmetry_space_group_name_H-M   'P 1'
_symmetry_Int_Tables_number      1
_space_group_name_Hall           'P 1'
loop_
_symmetry_equiv_pos_site_id
_symmetry_equiv_pos_as_xyz
1 x,y,z
_cell_length_a                   13.5802(2)
_cell_length_b                   13.5802(2)
_cell_length_c                   22.8117(9)
_cell_angle_alpha                90
_cell_angle_beta                 90
_cell_angle_gamma                90
_cell_volume                     4206.98
loop_
_atom_site_label
_atom_site_type_symbol
_atom_site_fract_x
_atom_site_fract_y
_atom_site_fract_z
H1 H 0.0096 0.1202 0.2637
C2 C 0.0407(3) 0.3054(3) 0.0638(2)
H2 H 0.0831 0.2947 0.0952
N2 N 0.0272(3) 0.3916(3) 0.03941(18)
O1 O 0.0643(5) 0.1438(5) 0.1587(2)
C7 C 0.1946(3) 0.0407(3) 0.0638(2)
H5 H 0.2053 0.0831 0.0952
N5 N 0.1084(3) 0.0272(3) 0.03941(18)
Zn3 Zn 0.09155(4) 0.52014(4) 0.06051(2)
N9 N 0.4728(3) 0.1084(3) 0.03941(18)
Zn2 Zn 0.40845(4) 0.97986(4) 0.06051(2)
N6 N 0.2654(3) 0.9869(3) 0.03888(17)
N7 N 0.4612(3) 0.8768(3) 0.00504(17)
O5 O 0.4386(5) 0.9334(5) 0.1393(2)
C8 C 0.2174(3) 0.9396(3) 0.9966(2)
H6 H 0.2474 0.8957 0.9709
N4 N 0.1232(3) 0.9612(3) 0.99496(17)
Zn5 Zn 0.02014(4) 0.90845(4) 0.93949(2)
Zn1 Zn 0.97986(4) 0.09155(4) 0.06051(2)
C1 C 0.9724(6) 0.0808(6) 0.2387(4)
C3 C 0.9907(7) 0.0961(6) 0.1740(4)
N3 N 0.9869(3) 0.2346(3) 0.03888(17)
O2 O 0.9334(5) 0.0614(5) 0.1393(2)
C5 C 0.9192(6) 0.0276(6) 0.2613(4)
C6 C 0.9039(6) 0.0093(7) 0.3260(4)
O4 O 0.9386(5) 0.0666(5) 0.3607(2)
Zn4 Zn 0.90845(4) 0.02014(4) 0.43949(2)
N8 N 0.8768(3) 0.0388(3) 0.00504(17)
C4 C 0.9396(3) 0.2826(3) 0.9966(2)
H3 H 0.8957 0.2526 0.9709
N1 N 0.9612(3) 0.3768(3) 0.99496(17)
Zn6 Zn 0.90845(4) 0.47986(4) 0.93949(2)
H4 H 0.8798 0.9904 0.2363
O3 O 0.8562(5) 0.9357(5) 0.3413(2)
Zn1_2 Zn 0.52014(4) 0.40845(4) 0.06051(2)
C1_2 C 0.5276(6) 0.4192(6) 0.2387(4)
H1_2 H 0.4904 0.3798 0.2637
C2_2 C 0.4593(3) 0.1946(3) 0.0638(2)
H2_2 H 0.4169 0.2053 0.0952
C3_2 C 0.5093(7) 0.4039(6) 0.1740(4)
N3_2 N 0.5131(3) 0.2654(3) 0.03888(17)
O1_2 O 0.4357(5) 0.3562(5) 0.1587(2)
O2_2 O 0.5666(5) 0.4386(5) 0.1393(2)
C5_2 C 0.5808(6) 0.4724(6) 0.2613(4)
H4_2 H 0.6202 0.5096 0.2363
C6_2 C 0.5961(6) 0.4907(7) 0.3260(4)
O3_2 O 0.6438(5) 0.5643(5) 0.3413(2)
O4_2 O 0.5614(5) 0.4334(5) 0.3607(2)
C7_2 C 0.3054(3) 0.4593(3) 0.0638(2)
H5_2 H 0.2947 0.4169 0.0952
N5_2 N 0.3916(3) 0.4728(3) 0.03941(18)
N6_2 N 0.2346(3) 0.5131(3) 0.03888(17)
Zn4_2 Zn 0.59155(4) 0.47986(4) 0.43949(2)
N7_2 N 0.0388(3) 0.6232(3) 0.00504(17)
N8_2 N 0.6232(3) 0.4612(3) 0.00504(17)
O5_2 O 0.0614(5) 0.5666(5) 0.1393(2)
C4_2 C 0.5604(3) 0.2174(3) 0.9966(2)
H3_2 H 0.6043 0.2474 0.9709
N1_2 N 0.5388(3) 0.1232(3) 0.99496(17)
C8_2 C 0.2826(3) 0.5604(3) 0.9966(2)
H6_2 H 0.2526 0.6043 0.9709
N4_2 N 0.3768(3) 0.5388(3) 0.99496(17)
Zn5_2 Zn 0.47986(4) 0.59155(4) 0.93949(2)
Zn6_2 Zn 0.59155(4) 0.02014(4) 0.93949(2)
H1_3 H 0.3798 0.0096 0.2637
O1_3 O 0.3562(5) 0.0643(5) 0.1587(2)
C1_3 C 0.4192(6) 0.9724(6) 0.2387(4)
C3_3 C 0.4039(6) 0.9907(7) 0.1740(4)
C5_3 C 0.4724(6) 0.9192(6) 0.2613(4)
H4_3 H 0.5096 0.8798 0.2363
C6_3 C 0.4907(7) 0.9039(6) 0.3260(4)
O3_3 O 0.5643(5) 0.8562(5) 0.3413(2)
O4_3 O 0.4334(5) 0.9386(5) 0.3607(2)
Zn4_3 Zn 0.47986(4) 0.90845(4) 0.43949(2)
C1_4 C 0.0808(6) 0.5276(6) 0.2387(4)
H1_4 H 0.1202 0.4904 0.2637
C3_4 C 0.0961(6) 0.5093(7) 0.1740(4)
O1_4 O 0.1438(5) 0.4357(5) 0.1587(2)
C5_4 C 0.0276(6) 0.5808(6) 0.2613(4)
C6_4 C 0.0093(7) 0.5961(6) 0.3260(4)
O4_4 O 0.0666(5) 0.5614(5) 0.3607(2)
Zn4_4 Zn 0.02014(4) 0.59155(4) 0.43949(2)
H4_4 H 0.9904 0.6202 0.2363
O3_4 O 0.9357(5) 0.6438(5) 0.3413(2)
C4_3 C 0.0604(3) 0.7826(3) 0.5034(2)
H3_3 H 0.1043 0.7526 0.5291
N1_3 N 0.0388(3) 0.8768(3) 0.50504(17)
N3_3 N 0.0131(3) 0.7346(3) 0.46112(17)
Zn6_3 Zn 0.09155(4) 0.97986(4) 0.56051(2)
N8_3 N 0.1232(3) 0.5388(3) 0.49496(17)
C2_3 C 0.9593(3) 0.8054(3) 0.4362(2)
H2_3 H 0.9169 0.7947 0.4048
N2_2 N 0.9728(3) 0.8916(3) 0.46059(18)
C7_3 C 0.8054(3) 0.5407(3) 0.4362(2)
H5_3 H 0.7947 0.5831 0.4048
C8_3 C 0.7826(3) 0.4396(3) 0.5034(2)
H6_3 H 0.7526 0.3957 0.5291
N4_3 N 0.8768(3) 0.4612(3) 0.50504(17)
N5_3 N 0.8916(3) 0.5272(3) 0.46059(18)
N6_3 N 0.7346(3) 0.4869(3) 0.46112(17)
Zn5_3 Zn 0.97986(4) 0.40845(4) 0.56051(2)
N7_3 N 0.5388(3) 0.3768(3) 0.49496(17)
N9_2 N 0.5272(3) 0.6084(3) 0.46059(18)
C8_4 C 0.7174(3) 0.0604(3) 0.5034(2)
H6_4 H 0.7474 0.1043 0.5291
N4_4 N 0.6232(3) 0.0388(3) 0.50504(17)
N6_4 N 0.7654(3) 0.0131(3) 0.46112(17)
Zn5_4 Zn 0.52014(4) 0.09155(4) 0.56051(2)
N7_4 N 0.9612(3) 0.1232(3) 0.49496(17)
C2_4 C 0.5407(3) 0.6946(3) 0.4362(2)
H2_4 H 0.5831 0.7053 0.4048
C4_4 C 0.4396(3) 0.7174(3) 0.5034(2)
H3_4 H 0.3957 0.7474 0.5291
N1_4 N 0.4612(3) 0.6232(3) 0.50504(17)
N3_4 N 0.4869(3) 0.7654(3) 0.46112(17)
C7_4 C 0.6946(3) 0.9593(3) 0.4362(2)
H5_4 H 0.7053 0.9169 0.4048
N5_4 N 0.6084(3) 0.9728(3) 0.46059(18)
Zn6_4 Zn 0.40845(4) 0.52014(4) 0.56051(2)
N8_4 N 0.3768(3) 0.9612(3) 0.49496(17)
H4_5 H 0.1202 0.0096 0.7637
O3_5 O 0.1438(5) 0.0643(5) 0.6587(2)
C4_5 C 0.0604(3) 0.7174(3) 0.0034(2)
H3_5 H 0.1043 0.7474 0.0291
C1_5 C 0.0276(6) 0.9192(6) 0.7613(4)
C3_5 C 0.0093(7) 0.9039(6) 0.8260(4)
N3_5 N 0.0131(3) 0.7654(3) 0.96112(17)
O2_3 O 0.0666(5) 0.9386(5) 0.8607(2)
C5_5 C 0.0808(6) 0.9724(6) 0.7387(4)
C6_5 C 0.0961(6) 0.9907(7) 0.6740(4)
O4_5 O 0.0614(5) 0.9334(5) 0.6393(2)
C8_5 C 0.7826(3) 0.0604(3) 0.0034(2)
H6_5 H 0.7526 0.1043 0.0291
N6_5 N 0.7346(3) 0.0131(3) 0.96112(17)
O5_3 O 0.5614(5) 0.0666(5) 0.8607(2)
H1_5 H 0.9904 0.8798 0.7363
C2_5 C 0.9593(3) 0.6946(3) 0.9362(2)
H2_5 H 0.9169 0.7053 0.9048
N2_3 N 0.9728(3) 0.6084(3) 0.96059(18)
O1_5 O 0.9357(5) 0.8562(5) 0.8413(2)
C7_5 C 0.8054(3) 0.9593(3) 0.9362(2)
H5_5 H 0.7947 0.9169 0.9048
N5_5 N 0.8916(3) 0.9728(3) 0.96059(18)
N9_3 N 0.5272(3) 0.8916(3) 0.96059(18)
C4_6 C 0.4396(3) 0.7826(3) 0.0034(2)
H3_6 H 0.3957 0.7526 0.0291
C8_6 C 0.7174(3) 0.4396(3) 0.0034(2)
H6_6 H 0.7474 0.3957 0.0291
C1_6 C 0.4724(6) 0.5808(6) 0.7613(4)
H1_6 H 0.5096 0.6202 0.7363
C2_6 C 0.5407(3) 0.8054(3) 0.9362(2)
H2_6 H 0.5831 0.7947 0.9048
C3_6 C 0.4907(7) 0.5961(6) 0.8260(4)
N3_6 N 0.4869(3) 0.7346(3) 0.96112(17)
O1_6 O 0.5643(5) 0.6438(5) 0.8413(2)
O2_4 O 0.4334(5) 0.5614(5) 0.8607(2)
C5_6 C 0.4192(6) 0.5276(6) 0.7387(4)
H4_6 H 0.3798 0.4904 0.7637
C6_6 C 0.4039(6) 0.5093(7) 0.6740(4)
O3_6 O 0.3562(5) 0.4357(5) 0.6587(2)
O4_6 O 0.4386(5) 0.5666(5) 0.6393(2)
C7_6 C 0.6946(3) 0.5407(3) 0.9362(2)
H5_6 H 0.7053 0.5831 0.9048
N5_6 N 0.6084(3) 0.5272(3) 0.96059(18)
N6_6 N 0.7654(3) 0.4869(3) 0.96112(17)
O5_4 O 0.9386(5) 0.4334(5) 0.8607(2)
C1_7 C 0.5808(6) 0.0276(6) 0.7613(4)
C3_7 C 0.5961(6) 0.0093(7) 0.8260(4)
C5_7 C 0.5276(6) 0.0808(6) 0.7387(4)
H4_7 H 0.4904 0.1202 0.7637
C6_7 C 0.5093(7) 0.0961(6) 0.6740(4)
O3_7 O 0.4357(5) 0.1438(5) 0.6587(2)
O4_7 O 0.5666(5) 0.0614(5) 0.6393(2)
H1_7 H 0.6202 0.9904 0.7363
O1_7 O 0.6438(5) 0.9357(5) 0.8413(2)
H4_8 H 0.0096 0.3798 0.7637
O3_8 O 0.0643(5) 0.3562(5) 0.6587(2)
C1_8 C 0.9192(6) 0.4724(6) 0.7613(4)
H1_8 H 0.8798 0.5096 0.7363
C3_8 C 0.9039(6) 0.4907(7) 0.8260(4)
O1_8 O 0.8562(5) 0.5643(5) 0.8413(2)
C5_8 C 0.9724(6) 0.4192(6) 0.7387(4)
C6_8 C 0.9907(7) 0.4039(6) 0.6740(4)
O4_8 O 0.9334(5) 0.4386(5) 0.6393(2)
C2_7 C 0.0407(3) 0.1946(3) 0.5638(2)
H2_7 H 0.0831 0.2053 0.5952
N2_4 N 0.0272(3) 0.1084(3) 0.53941(18)
C7_7 C 0.1946(3) 0.4593(3) 0.5638(2)
H5_7 H 0.2053 0.4169 0.5952
C8_7 C 0.2174(3) 0.5604(3) 0.4966(2)
H6_7 H 0.2474 0.6043 0.4709
N5_7 N 0.1084(3) 0.4728(3) 0.53941(18)
N6_7 N 0.2654(3) 0.5131(3) 0.53888(17)
N9_4 N 0.4728(3) 0.3916(3) 0.53941(18)
C4_7 C 0.9396(3) 0.2174(3) 0.4966(2)
H3_7 H 0.8957 0.2474 0.4709
N3_7 N 0.9869(3) 0.2654(3) 0.53888(17)
C2_8 C 0.4593(3) 0.3054(3) 0.5638(2)
H2_8 H 0.4169 0.2947 0.5952
C4_8 C 0.5604(3) 0.2826(3) 0.4966(2)
H3_8 H 0.6043 0.2526 0.4709
N3_8 N 0.5131(3) 0.2346(3) 0.53888(17)
C7_8 C 0.3054(3) 0.0407(3) 0.5638(2)
H5_8 H 0.2947 0.0831 0.5952
N5_8 N 0.3916(3) 0.0272(3) 0.53941(18)
C8_8 C 0.2826(3) 0.9396(3) 0.4966(2)
H6_8 H 0.2526 0.8957 0.4709
N6_8 N 0.2346(3) 0.9869(3) 0.53888(17)
loop_
_geom_bond_atom_site_label_1
_geom_bond_atom_site_label_2
_geom_bond_site_symmetry_1
_geom_bond_site_symmetry_2
C2 H2 1_555 1_555
N2 C2 1_555 1_555
C7 H5 1_555 1_555
Zn3 N2 1_555 1_555
C7 N5 1_555 1_555
Zn2 N6 1_555 1_555
N7 Zn2 1_555 1_555
O5 Zn2 1_555 1_555
C8 H6 1_555 1_555
N4 C8 1_555 1_555
Zn5 N4 1_555 1_555
Zn1 N3 1_555 1_555
C3 C1 1_555 1_555
O2 Zn1 1_555 1_555
C5 C1 1_555 1_555
C6 C5 1_555 1_555
O4 C6 1_555 1_555
Zn4 O4 1_555 1_555
N8 Zn1 1_555 1_555
C3 O2 1_555 1_555
C4 H3 1_555 1_555
N1 C4 1_555 1_555
Zn6 N1 1_555 1_555
Zn1_2 N3_2 1_555 1_555
C1_2 H1_2 1_555 1_555
C2_2 H2_2 1_555 1_555
C3_2 C1_2 1_555 1_555
N9 C2_2 1_555 1_555
N3_2 C2_2 1_555 1_555
O1_2 C3_2 1_555 1_555
O2_2 Zn1_2 1_555 1_555
C5_2 C1_2 1_555 1_555
H4_2 C5_2 1_555 1_555
C6_2 C5_2 1_555 1_555
O3_2 C6_2 1_555 1_555
O4_2 C6_2 1_555 1_555
Zn3 N6_2 1_555 1_555
C7_2 H5_2 1_555 1_555
N5_2 Zn1_2 1_555 1_555
N6_2 C7_2 1_555 1_555
Zn4_2 O4_2 1_555 1_555
N7_2 Zn3 1_555 1_555
N8_2 Zn1_2 1_555 1_555
O5_2 Zn3 1_555 1_555
C3_2 O2_2 1_555 1_555
C7_2 N5_2 1_555 1_555
C4_2 H3_2 1_555 1_555
N1_2 C4_2 1_555 1_555
C8_2 H6_2 1_555 1_555
N4_2 C8_2 1_555 1_555
Zn5_2 N4_2 1_555 1_555
Zn6_2 N1_2 1_555 1_555
C3_3 C1_3 1_555 1_555
C5_3 C1_3 1_555 1_555
H4_3 C5_3 1_555 1_555
C6_3 C5_3 1_555 1_555
O3_3 C6_3 1_555 1_555
O4_3 C6_3 1_555 1_555
Zn4_3 O4_3 1_555 1_555
C3_3 O5 1_555 1_555
C1_4 H1_4 1_555 1_555
C3_4 C1_4 1_555 1_555
O1_4 C3_4 1_555 1_555
C5_4 C1_4 1_555 1_555
C6_4 C5_4 1_555 1_555
O4_4 C6_4 1_555 1_555
Zn4_4 O4_4 1_555 1_555
C3_4 O5_2 1_555 1_555
Zn4_4 N3_3 1_555 1_555
C4_3 H3_3 1_555 1_555
N1_3 C4_3 1_555 1_555
Zn6_3 N1_3 1_555 1_555
N8_3 Zn4_4 1_555 1_555
C4_3 N3_3 1_555 1_555
C2_3 H2_3 1_555 1_555
N2_2 C2_3 1_555 1_555
Zn4_2 N6_3 1_555 1_555
C7_3 H5_3 1_555 1_555
C8_3 H6_3 1_555 1_555
N4_3 C8_3 1_555 1_555
N6_3 C7_3 1_555 1_555
Zn5_3 N4_3 1_555 1_555
N7_3 Zn4_2 1_555 1_555
N9_2 Zn4_2 1_555 1_555
C7_3 N5_3 1_555 1_555
C8_3 N6_3 1_555 1_555
N4_3 N5_3 1_555 1_555
Zn4 N6_4 1_555 1_555
C8_4 H6_4 1_555 1_555
N4_4 C8_4 1_555 1_555
Zn5_4 N4_4 1_555 1_555
N7_4 Zn4 1_555 1_555
C8_4 N6_4 1_555 1_555
Zn4_3 N3_4 1_555 1_555
C2_4 H2_4 1_555 1_555
C4_4 H3_4 1_555 1_555
N1_4 C4_4 1_555 1_555
N9_2 C2_4 1_555 1_555
N3_4 C2_4 1_555 1_555
C7_4 H5_4 1_555 1_555
N5_4 Zn4_3 1_555 1_555
Zn6_4 N1_4 1_555 1_555
N8_4 Zn4_3 1_555 1_555
C4_4 N3_4 1_555 1_555
N1_4 N9_2 1_555 1_555
C7_4 N5_4 1_555 1_555
C4_5 H3_5 1_555 1_555
N7_2 C4_5 1_555 1_555
Zn5 N3_5 1_555 1_555
C3_5 C1_5 1_555 1_555
O2_3 Zn5 1_555 1_555
C5_5 C1_5 1_555 1_555
C6_5 C5_5 1_555 1_555
O4_5 C6_5 1_555 1_555
Zn6_3 O4_5 1_555 1_555
C3_5 O2_3 1_555 1_555
C8_5 H6_5 1_555 1_555
N8 C8_5 1_555 1_555
Zn6_2 N6_5 1_555 1_555
O5_3 Zn6_2 1_555 1_555
C2_5 H2_5 1_555 1_555
N2_3 C2_5 1_555 1_555
C7_5 H5_5 1_555 1_555
Zn6 N2_3 1_555 1_555
C7_5 N5_5 1_555 1_555
C4_6 H3_6 1_555 1_555
N7 C4_6 1_555 1_555
C8_6 H6_6 1_555 1_555
N8_2 C8_6 1_555 1_555
Zn5_2 N3_6 1_555 1_555
C1_6 H1_6 1_555 1_555
C2_6 H2_6 1_555 1_555
C3_6 C1_6 1_555 1_555
N9_3 C2_6 1_555 1_555
N3_6 C2_6 1_555 1_555
O1_6 C3_6 1_555 1_555
O2_4 Zn5_2 1_555 1_555
C5_6 C1_6 1_555 1_555
H4_6 C5_6 1_555 1_555
C6_6 C5_6 1_555 1_555
O3_6 C6_6 1_555 1_555
O4_6 C6_6 1_555 1_555
Zn6 N6_6 1_555 1_555
C7_6 H5_6 1_555 1_555
N5_6 Zn5_2 1_555 1_555
N6_6 C7_6 1_555 1_555
Zn6_4 O4_6 1_555 1_555
O5_4 Zn6 1_555 1_555
C3_6 O2_4 1_555 1_555
C7_6 N5_6 1_555 1_555
C3_7 C1_7 1_555 1_555
C5_7 C1_7 1_555 1_555
H4_7 C5_7 1_555 1_555
C6_7 C5_7 1_555 1_555
O3_7 C6_7 1_555 1_555
O4_7 C6_7 1_555 1_555
Zn5_4 O4_7 1_555 1_555
C3_7 O5_3 1_555 1_555
C1_8 H1_8 1_555 1_555
C3_8 C1_8 1_555 1_555
O1_8 C3_8 1_555 1_555
C5_8 C1_8 1_555 1_555
C6_8 C5_8 1_555 1_555
O4_8 C6_8 1_555 1_555
Zn5_3 O4_8 1_555 1_555
C3_8 O5_4 1_555 1_555
C2_7 H2_7 1_555 1_555
N2_4 C2_7 1_555 1_555
Zn6_4 N6_7 1_555 1_555
C7_7 H5_7 1_555 1_555
C8_7 H6_7 1_555 1_555
N8_3 C8_7 1_555 1_555
N6_7 C7_7 1_555 1_555
N9_4 Zn6_4 1_555 1_555
C7_7 N5_7 1_555 1_555
C8_7 N6_7 1_555 1_555
N8_3 N5_7 1_555 1_555
Zn5_3 N3_7 1_555 1_555
C4_7 H3_7 1_555 1_555
N7_4 C4_7 1_555 1_555
C4_7 N3_7 1_555 1_555
Zn5_4 N3_8 1_555 1_555
C2_8 H2_8 1_555 1_555
C4_8 H3_8 1_555 1_555
N7_3 C4_8 1_555 1_555
N9_4 C2_8 1_555 1_555
N3_8 C2_8 1_555 1_555
C7_8 H5_8 1_555 1_555
N5_8 Zn5_4 1_555 1_555
C4_8 N3_8 1_555 1_555
N7_3 N9_4 1_555 1_555
C7_8 N5_8 1_555 1_555
Zn6_3 N6_8 1_555 1_555
C8_8 H6_8 1_555 1_555
N8_4 C8_8 1_555 1_555
C8_8 N6_8 1_555 1_555

#END
