
###############################################################################
#
# This file contains modified crystal structure data generated from the
# MOF subset of the Cambridge Structural Database (CSD) v543 
# hosted by the Cambridge Crystallographic Data Centre (CCDC).
#
# This work is licensed under the Creative Commons
# Attribution-NonCommercial-ShareAlike 4.0 International License.
# To view a copy of this license, visit
# http://creativecommons.org/licenses/by-nc-sa/4.0/
# or send a letter to
# Creative Commons, PO Box 1866, Mountain View, CA 94042, USA.
#
# CIF created using the CSD Python API on 29 September 2022
# The structure has been converted into the P1 space group
# The structure has a 3D framework
# The original CSD entry WEJXUI is in the orthorhombic crystal system
# The framework has been calculated to contain at least 10.0% void space
# The void calculation uses a probe of radius 1.32A, grid spacing 0.4
#
###############################################################################

data_WEJXUI
_chemical_formula_moiety         '(C128 H80 N48 O32 Zn16)n'
_symmetry_cell_setting           triclinic
_symmetry_space_group_name_H-M   'P 1'
_symmetry_Int_Tables_number      1
_space_group_name_Hall           'P 1'
loop_
_symmetry_equiv_pos_site_id
_symmetry_equiv_pos_as_xyz
1 x,y,z
_cell_length_a                   31.376(7)
_cell_length_b                   13.443(3)
_cell_length_c                   13.443(2)
_cell_angle_alpha                90
_cell_angle_beta                 90
_cell_angle_gamma                90
_cell_volume                     5670.09
loop_
_atom_site_label
_atom_site_type_symbol
_atom_site_fract_x
_atom_site_fract_y
_atom_site_fract_z
N16 N 0.2184(4) 0.5395(9) 0.0515(10)
Zn1 Zn 0.29431(4) 0.57406(11) 0.72697(11)
Zn2 Zn 0.29469(5) 0.46557(12) 0.29484(11)
Zn3 Zn 0.29832(4) 0.14362(10) 0.83877(11)
Zn4 Zn 0.20198(4) 0.53088(12) 0.90535(11)
N1 N 0.2766(3) 0.5267(9) 0.4289(9)
N2 N 0.2437(4) 0.5920(8) 0.4399(9)
N3 N 0.2763(3) 0.5697(8) 0.5865(8)
N4 N 0.2769(4) 0.4453(8) 0.7905(10)
N5 N 0.2433(3) 0.4254(7) 0.8529(9)
N6 N 0.2777(4) 0.2845(9) 0.8332(10)
N7 N 0.2530(3) 0.6749(8) 0.7782(8)
N8 N 0.2181(3) 0.6637(8) 0.8409(9)
N9 N 0.2198(3) 0.8201(8) 0.8017(8)
N10 N 0.2533(4) 0.5136(9) 0.1923(9)
N11 N 0.2182(4) 0.5790(9) 0.2099(9)
O1 O 0.3551(4) 0.1038(9) 0.8836(10)
O2 O 0.3685(4) 0.1972(9) 0.7509(12)
O3 O 0.6446(4) 0.0187(10) 0.8684(10)
O5 O 0.3501(4) 0.5123(9) 0.2410(11)
O6 O 0.3610(4) 0.4206(10) 0.3666(11)
O7 O 0.6496(5) 0.3748(11) 0.2754(13)
O8 O 0.6395(4) 0.4970(12) 0.1759(11)
C1 C 0.3761(6) 0.4690(15) 0.302(2)
C2 C 0.6276(6) 0.4267(18) 0.234(2)
C3 C 0.4493(6) 0.4157(16) 0.3207(18)
H1 H 0.4397 0.3688 0.3663
C4 C 0.4211(6) 0.4777(16) 0.2768(18)
C5 C 0.4369(6) 0.5409(15) 0.2047(17)
H2 H 0.4175 0.5783 0.1682
C6 C 0.4819(6) 0.5530(17) 0.1819(18)
H3 H 0.4922 0.6001 0.1374
C7 C 0.5076(6) 0.4884(16) 0.2322(19)
C8 C 0.4932(7) 0.4210(17) 0.298(2)
C9 C 0.5204(7) 0.3678(16) 0.3553(19)
H4 H 0.5106 0.3319 0.4098
C10 C 0.5646(7) 0.3682(16) 0.3294(18)
H5 H 0.5828 0.3245 0.3622
C11 C 0.5816(7) 0.4306(16) 0.2578(17)
C12 C 0.5499(6) 0.4928(16) 0.2061(19)
H6 H 0.5585 0.5353 0.1555
C13 C 0.3797(5) 0.1466(13) 0.8226(16)
C15 C 0.4418(6) 0.0475(15) 0.8933(16)
H7 H 0.4228 0.0142 0.9347
C16 C 0.4261(5) 0.1215(14) 0.8288(16)
C17 C 0.4550(6) 0.1688(16) 0.7712(16)
H8 H 0.4454 0.2154 0.7253
C18 C 0.4993(6) 0.1506(15) 0.7779(16)
H9 H 0.5187 0.1901 0.7436
C19 C 0.5127(5) 0.0740(15) 0.8354(16)
C20 C 0.4857(5) 0.0220(15) 0.8970(16)
C24 C 0.5585(6) 0.0486(16) 0.8462(17)
H12 H 0.5782 0.0840 0.8086
C25 C 0.2454(4) 0.6120(10) 0.5433(10)
H13 H 0.2257 0.6521 0.5761
C26 C 0.2963(5) 0.5191(13) 0.5126(13)
H14 H 0.3213 0.4831 0.5215
C27 C 0.2465(5) 0.3305(10) 0.8811(12)
H15 H 0.2290 0.3005 0.9284
C28 C 0.2952(4) 0.3564(11) 0.7830(12)
H16 H 0.3192 0.3461 0.7438
C29 C 0.2018(4) 0.7446(11) 0.8551(10)
H17 H 0.1791 0.7542 0.8984
C30 C 0.2536(4) 0.7693(11) 0.7596(10)
H18 H 0.2747 0.8000 0.7218
C31 C 0.2510(5) 0.4950(11) 0.0978(11)
H19 H 0.2704 0.4541 0.0650
C32 C 0.1990(4) 0.5908(10) 0.1211(11)
H20 H 0.1751 0.6302 0.1105
Zn5 Zn 0.70569(4) 0.42594(11) 0.22697(11)
Zn6 Zn 0.20531(5) 0.96557(12) 0.79484(11)
Zn7 Zn 0.20168(4) 0.64362(10) 0.33877(11)
N13 N 0.2563(4) 0.0920(8) 0.9399(9)
N14 N 0.2802(3) 0.3201(8) 0.3017(8)
N15 N 0.2818(4) 0.0790(9) 0.7099(9)
O9 O 0.1446(4) 0.4813(10) 0.8684(10)
O10 O 0.1327(3) 0.6125(10) 0.9629(9)
O11 O 0.3504(5) 0.6252(11) 0.7754(13)
O12 O 0.3605(4) 0.5030(12) 0.6759(11)
O4 O 0.6327(3) 0.8875(10) 0.9629(9)
C14 C 0.6194(5) 0.9531(15) 0.9123(17)
C21 C 0.5019(5) 0.9465(14) 0.9632(16)
C22 C 0.5425(5) 0.9243(16) 0.9603(15)
H11 H 0.5521 0.8695 0.9963
C23 C 0.5725(5) 0.9801(14) 0.9048(17)
Zn9 Zn 0.70198(4) 0.96912(12) 0.90535(11)
O4_2 O 0.3673(3) 0.1125(10) 0.4629(9)
C14_2 C 0.3806(5) 0.0469(15) 0.4123(17)
C21_2 C 0.4981(5) 0.0535(14) 0.4632(16)
H10 H 0.5162 0.0859 0.5073
C22_2 C 0.4575(5) 0.0757(16) 0.4603(15)
H11_2 H 0.4479 0.1305 0.4963
C23_2 C 0.4275(5) 0.0199(14) 0.4048(17)
Zn9_2 Zn 0.29802(4) 0.03088(12) 0.40535(11)
Zn3_2 Zn 0.70168(4) 0.85638(10) 0.33877(11)
Zn4_2 Zn 0.79802(4) 0.46912(12) 0.40535(11)
N3_2 N 0.7237(3) 0.4303(8) 0.0865(8)
N4_2 N 0.7231(4) 0.5547(8) 0.2905(10)
N5_2 N 0.7567(3) 0.5746(7) 0.3529(9)
N6_2 N 0.7223(4) 0.7155(9) 0.3332(10)
N7_2 N 0.7470(3) 0.3251(8) 0.2782(8)
N8_2 N 0.7819(3) 0.3363(8) 0.3409(9)
N9_2 N 0.7802(3) 0.1799(8) 0.3017(8)
O1_2 O 0.6449(4) 0.8962(9) 0.3836(10)
O2_2 O 0.6315(4) 0.8028(9) 0.2509(12)
O3_2 O 0.3554(4) 0.9813(10) 0.3684(10)
C13_2 C 0.6203(5) 0.8534(13) 0.3226(16)
C15_2 C 0.5582(6) 0.9525(15) 0.3933(16)
H7_2 H 0.5772 0.9858 0.4347
C16_2 C 0.5739(5) 0.8785(14) 0.3288(16)
C17_2 C 0.5450(6) 0.8312(16) 0.2712(16)
H8_2 H 0.5546 0.7846 0.2253
C18_2 C 0.5007(6) 0.8494(15) 0.2779(16)
H9_2 H 0.4813 0.8099 0.2436
C19_2 C 0.4873(5) 0.9260(15) 0.3354(16)
C20_2 C 0.5143(5) 0.9780(15) 0.3970(16)
C24_2 C 0.4415(6) 0.9514(16) 0.3462(17)
H12_2 H 0.4218 0.9160 0.3086
C25_2 C 0.7546(4) 0.3880(10) 0.0433(10)
H13_2 H 0.7743 0.3479 0.0761
C26_2 C 0.7037(5) 0.4809(13) 0.0126(13)
H14_2 H 0.6787 0.5169 0.0215
C27_2 C 0.7535(5) 0.6695(10) 0.3811(12)
H15_2 H 0.7710 0.6995 0.4284
C28_2 C 0.7048(4) 0.6436(11) 0.2830(12)
H16_2 H 0.6808 0.6539 0.2438
C29_2 C 0.7982(4) 0.2554(11) 0.3551(10)
H17_2 H 0.8209 0.2458 0.3984
C30_2 C 0.7464(4) 0.2307(11) 0.2596(10)
H18_2 H 0.7253 0.2000 0.2218
Zn6_2 Zn 0.79469(5) 0.03443(12) 0.29484(11)
N13_2 N 0.7437(4) 0.9080(8) 0.4399(9)
N15_2 N 0.7182(4) 0.9210(9) 0.2099(9)
N16_2 N 0.7816(4) 0.4605(9) 0.5515(10)
O9_2 O 0.8554(4) 0.5187(10) 0.3684(10)
O10_2 O 0.8673(3) 0.3875(10) 0.4629(9)
Zn2_2 Zn 0.70531(5) 0.53443(12) 0.79484(11)
N1_2 N 0.7234(3) 0.4733(9) 0.9289(9)
N2_2 N 0.7563(4) 0.4080(8) 0.9399(9)
N10_2 N 0.7467(4) 0.4864(9) 0.6923(9)
N11_2 N 0.7818(4) 0.4210(9) 0.7099(9)
O5_2 O 0.6499(4) 0.4877(9) 0.7410(11)
O6_2 O 0.6390(4) 0.5794(10) 0.8666(11)
C1_2 C 0.6239(6) 0.5310(15) 0.802(2)
C2_2 C 0.3724(6) 0.5733(18) 0.734(2)
C3_2 C 0.5507(6) 0.5843(16) 0.8207(18)
H1_2 H 0.5603 0.6312 0.8663
C4_2 C 0.5789(6) 0.5223(16) 0.7768(18)
C5_2 C 0.5631(6) 0.4591(15) 0.7047(17)
H2_2 H 0.5825 0.4217 0.6682
C6_2 C 0.5181(6) 0.4470(17) 0.6819(18)
H3_2 H 0.5078 0.3999 0.6374
C7_2 C 0.4924(6) 0.5116(16) 0.7322(19)
C8_2 C 0.5068(7) 0.5790(17) 0.798(2)
C9_2 C 0.4796(7) 0.6322(16) 0.8553(19)
H4_2 H 0.4894 0.6681 0.9098
C10_2 C 0.4354(7) 0.6318(16) 0.8294(18)
H5_2 H 0.4172 0.6755 0.8622
C11_2 C 0.4184(7) 0.5694(16) 0.7578(17)
C12_2 C 0.4501(6) 0.5072(16) 0.7061(19)
H6_2 H 0.4415 0.4647 0.6555
C31_2 C 0.7490(5) 0.5050(11) 0.5978(11)
H19_2 H 0.7296 0.5459 0.5650
C32_2 C 0.8010(4) 0.4092(10) 0.6211(11)
H20_2 H 0.8249 0.3698 0.6105
Zn7_2 Zn 0.79832(4) 0.35638(10) 0.83877(11)
N14_2 N 0.7198(3) 0.6799(8) 0.8017(8)
Zn1_2 Zn 0.20569(4) 0.07406(11) 0.22697(11)
N3_3 N 0.2237(3) 0.0697(8) 0.0865(8)
N7_3 N 0.2470(3) 0.1749(8) 0.2782(8)
N8_3 N 0.2819(3) 0.1637(8) 0.3409(9)
C25_3 C 0.2546(4) 0.1120(10) 0.0433(10)
H13_3 H 0.2743 0.1521 0.0761
C26_3 C 0.2037(5) 0.0191(13) 0.0126(13)
C29_3 C 0.2982(4) 0.2446(11) 0.3551(10)
H17_3 H 0.3209 0.2542 0.3984
C30_3 C 0.2464(4) 0.2693(11) 0.2596(10)
H18_3 H 0.2253 0.3000 0.2218
N16_3 N 0.2816(4) 0.0395(9) 0.5515(10)
O11_2 O 0.1496(5) 0.1252(11) 0.2754(13)
O12_2 O 0.1395(4) 0.0030(12) 0.1759(11)
N1_3 N 0.2234(3) 0.0267(9) 0.9289(9)
N10_3 N 0.2467(4) 0.0136(9) 0.6923(9)
O5_3 O 0.1499(4) 0.0123(9) 0.7410(11)
C5_3 C 0.0631(6) 0.0409(15) 0.7047(17)
H2_3 H 0.0825 0.0783 0.6682
C6_3 C 0.0181(6) 0.0530(17) 0.6819(18)
H3_3 H 0.0078 0.1001 0.6374
C32_3 C 0.3010(4) 0.0908(10) 0.6211(11)
H20_3 H 0.3249 0.1302 0.6105
N4_3 N 0.2231(4) 0.9453(8) 0.2905(10)
N5_3 N 0.2567(3) 0.9254(7) 0.3529(9)
N6_3 N 0.2223(4) 0.7845(9) 0.3332(10)
O1_3 O 0.1449(4) 0.6038(9) 0.3836(10)
O2_3 O 0.1315(4) 0.6972(9) 0.2509(12)
C13_3 C 0.1203(5) 0.6466(13) 0.3226(16)
C15_3 C 0.0582(6) 0.5475(15) 0.3933(16)
H7_3 H 0.0772 0.5142 0.4347
C16_3 C 0.0739(5) 0.6215(14) 0.3288(16)
C17_3 C 0.0450(6) 0.6688(16) 0.2712(16)
H8_3 H 0.0546 0.7154 0.2253
C18_3 C 0.0007(6) 0.6506(15) 0.2779(16)
C20_3 C 0.0143(5) 0.5220(15) 0.3970(16)
H10_2 H 0.0162 0.4141 0.5073
H14_3 H 0.1787 0.9831 0.0215
C27_3 C 0.2535(5) 0.8305(10) 0.3811(12)
H15_3 H 0.2710 0.8005 0.4284
C28_3 C 0.2048(4) 0.8564(11) 0.2830(12)
H16_3 H 0.1808 0.8461 0.2438
O6_3 O 0.1390(4) 0.9206(10) 0.8666(11)
C1_3 C 0.1239(6) 0.9690(15) 0.802(2)
C3_3 C 0.0507(6) 0.9157(16) 0.8207(18)
H1_3 H 0.0603 0.8688 0.8663
C4_3 C 0.0789(6) 0.9777(16) 0.7768(18)
C8_3 C 0.0068(7) 0.9210(17) 0.798(2)
C31_3 C 0.2490(5) 0.9950(11) 0.5978(11)
H19_3 H 0.2296 0.9541 0.5650
C14_3 C 0.8806(5) 0.4531(15) 0.4123(17)
H9_3 H 0.9813 0.6901 0.2436
C19_3 C 0.9873(5) 0.5740(15) 0.3354(16)
C21_3 C 0.9981(5) 0.4465(14) 0.4632(16)
C22_3 C 0.9575(5) 0.4243(16) 0.4603(15)
H11_3 H 0.9479 0.3695 0.4963
C23_3 C 0.9275(5) 0.4801(14) 0.4048(17)
C24_3 C 0.9415(6) 0.5486(16) 0.3462(17)
H12_3 H 0.9218 0.5840 0.3086
O7_2 O 0.8504(5) 0.8748(11) 0.7754(13)
O8_2 O 0.8605(4) 0.9970(12) 0.6759(11)
C2_3 C 0.8724(6) 0.9267(18) 0.734(2)
C7_3 C 0.9924(6) 0.9884(16) 0.7322(19)
C9_3 C 0.9796(7) 0.8678(16) 0.8553(19)
H4_3 H 0.9894 0.8319 0.9098
C10_3 C 0.9354(7) 0.8682(16) 0.8294(18)
H5_3 H 0.9172 0.8245 0.8622
C11_3 C 0.9184(7) 0.9306(16) 0.7578(17)
C12_3 C 0.9501(6) 0.9928(16) 0.7061(19)
Zn5_2 Zn 0.79431(4) 0.92594(11) 0.72697(11)
C2_4 C 0.1276(6) 0.0733(18) 0.234(2)
C7_4 C 0.0076(6) 0.0116(16) 0.2322(19)
C9_4 C 0.0204(7) 0.1322(16) 0.3553(19)
H4_4 H 0.0106 0.1681 0.4098
C10_4 C 0.0646(7) 0.1318(16) 0.3294(18)
H5_4 H 0.0828 0.1755 0.3622
C11_4 C 0.0816(7) 0.0694(16) 0.2578(17)
C12_4 C 0.0499(6) 0.0072(16) 0.2061(19)
C14_4 C 0.1194(5) 0.5469(15) 0.9123(17)
H9_4 H 0.0187 0.3099 0.7436
C19_4 C 0.0127(5) 0.4260(15) 0.8354(16)
C21_4 C 0.0019(5) 0.5535(14) 0.9632(16)
C22_4 C 0.0425(5) 0.5757(16) 0.9603(15)
H11_4 H 0.0521 0.6305 0.9963
C23_4 C 0.0725(5) 0.5199(14) 0.9048(17)
C24_4 C 0.0585(6) 0.4514(16) 0.8462(17)
H12_4 H 0.0782 0.4160 0.8086
N4_4 N 0.7769(4) 0.0547(8) 0.7905(10)
N5_4 N 0.7433(3) 0.0746(7) 0.8529(9)
N6_4 N 0.7777(4) 0.2155(9) 0.8332(10)
O1_4 O 0.8551(4) 0.3962(9) 0.8836(10)
O2_4 O 0.8685(4) 0.3028(9) 0.7509(12)
O6_4 O 0.8610(4) 0.0794(10) 0.3666(11)
C1_4 C 0.8761(6) 0.0310(15) 0.302(2)
C3_4 C 0.9493(6) 0.0843(16) 0.3207(18)
H1_4 H 0.9397 0.1312 0.3663
C4_4 C 0.9211(6) 0.0223(16) 0.2768(18)
C8_4 C 0.9932(7) 0.0790(17) 0.298(2)
C13_4 C 0.8797(5) 0.3534(13) 0.8226(16)
C15_4 C 0.9418(6) 0.4525(15) 0.8933(16)
H7_4 H 0.9228 0.4858 0.9347
C16_4 C 0.9261(5) 0.3785(14) 0.8288(16)
C17_4 C 0.9550(6) 0.3312(16) 0.7712(16)
H8_4 H 0.9454 0.2846 0.7253
C18_4 C 0.9993(6) 0.3494(15) 0.7779(16)
C20_4 C 0.9857(5) 0.4780(15) 0.8970(16)
H14_4 H 0.8213 0.0169 0.5215
C27_4 C 0.7465(5) 0.1695(10) 0.8811(12)
H15_4 H 0.7290 0.1995 0.9284
C28_4 C 0.7952(4) 0.1436(11) 0.7830(12)
H16_4 H 0.8192 0.1539 0.7438
C31_4 C 0.7510(5) 0.0050(11) 0.0978(11)
H19_4 H 0.7704 0.0459 0.0650
N16_4 N 0.7184(4) 0.9605(9) 0.0515(10)
N1_4 N 0.7766(3) 0.9733(9) 0.4289(9)
N3_4 N 0.7763(3) 0.9303(8) 0.5865(8)
N7_4 N 0.7530(3) 0.8251(8) 0.7782(8)
N8_4 N 0.7181(3) 0.8363(8) 0.8409(9)
N10_4 N 0.7533(4) 0.9864(9) 0.1923(9)
O5_4 O 0.8501(4) 0.9877(9) 0.2410(11)
C5_4 C 0.9369(6) 0.9591(15) 0.2047(17)
H2_4 H 0.9175 0.9217 0.1682
C6_4 C 0.9819(6) 0.9470(17) 0.1819(18)
H3_4 H 0.9922 0.8999 0.1374
C25_4 C 0.7454(4) 0.8880(10) 0.5433(10)
H13_4 H 0.7257 0.8479 0.5761
C26_4 C 0.7963(5) 0.9809(13) 0.5126(13)
C29_4 C 0.7018(4) 0.7554(11) 0.8551(10)
H17_4 H 0.6791 0.7458 0.8984
C30_4 C 0.7536(4) 0.7307(11) 0.7596(10)
H18_4 H 0.7747 0.7000 0.7218
C32_4 C 0.6990(4) 0.9092(10) 0.1211(11)
H20_4 H 0.6751 0.8698 0.1105
H10_3 H 0.4838 0.9141 0.0073
H6_3 H 0.9415 0.0353 0.6555
H6_4 H 0.0585 0.9647 0.1555
H10_4 H 0.9838 0.5859 0.0073
loop_
_geom_bond_atom_site_label_1
_geom_bond_atom_site_label_2
_geom_bond_site_symmetry_1
_geom_bond_site_symmetry_2
Zn1 N3 1_555 1_555
Zn2 N1 1_555 1_555
Zn3 N6 1_555 1_555
Zn4 N5 1_555 1_555
N1 N2 1_555 1_555
N2 C25 1_555 1_555
N3 C25 1_555 1_555
N4 Zn1 1_555 1_555
N5 N4 1_555 1_555
N6 C27 1_555 1_555
N7 Zn1 1_555 1_555
N8 Zn4 1_555 1_555
N9 C29 1_555 1_555
N10 Zn2 1_555 1_555
N11 N10 1_555 1_555
N16 C31 1_555 1_555
O1 Zn3 1_555 1_555
O2 C13 1_555 1_555
O5 Zn2 1_555 1_555
O6 Zn2 1_555 1_555
O7 C2 1_555 1_555
O8 C2 1_555 1_555
C1 O5 1_555 1_555
C2 C11 1_555 1_555
C3 H1 1_555 1_555
C4 C1 1_555 1_555
C5 C4 1_555 1_555
H2 C5 1_555 1_555
C6 C5 1_555 1_555
H3 C6 1_555 1_555
C7 C6 1_555 1_555
C8 C3 1_555 1_555
C9 C8 1_555 1_555
H4 C9 1_555 1_555
C10 C9 1_555 1_555
H5 C10 1_555 1_555
C11 C10 1_555 1_555
C12 C7 1_555 1_555
H6 C12 1_555 1_555
C13 O1 1_555 1_555
C15 H7 1_555 1_555
C16 C13 1_555 1_555
C17 C16 1_555 1_555
H8 C17 1_555 1_555
C18 C17 1_555 1_555
H9 C18 1_555 1_555
C19 C18 1_555 1_555
C20 C15 1_555 1_555
C24 C19 1_555 1_555
H12 C24 1_555 1_555
C25 H13 1_555 1_555
C26 N1 1_555 1_555
H14 C26 1_555 1_555
C27 N5 1_555 1_555
H15 C27 1_555 1_555
C28 N4 1_555 1_555
H16 C28 1_555 1_555
C29 N8 1_555 1_555
H17 C29 1_555 1_555
C30 N7 1_555 1_555
H18 C30 1_555 1_555
C31 N10 1_555 1_555
H19 C31 1_555 1_555
C32 N11 1_555 1_555
H20 C32 1_555 1_555
Zn5 O7 1_555 1_555
Zn6 N9 1_555 1_555
Zn7 N2 1_555 1_555
N13 Zn3 1_555 1_555
N14 Zn2 1_555 1_555
N15 Zn3 1_555 1_555
O9 Zn4 1_555 1_555
O10 Zn4 1_555 1_555
O11 Zn1 1_555 1_555
O12 Zn1 1_555 1_555
N3 C26 1_555 1_555
N6 C28 1_555 1_555
N7 N8 1_555 1_555
N9 C30 1_555 1_555
N11 Zn7 1_555 1_555
N16 C32 1_555 1_555
O6 C1 1_555 1_555
O8 Zn5 1_555 1_555
C3 C4 1_555 1_555
C7 C8 1_555 1_555
C11 C12 1_555 1_555
C15 C16 1_555 1_555
C19 C20 1_555 1_555
O4 C14 1_555 1_555
C14 C23 1_555 1_555
C22 C21 1_555 1_555
H11 C22 1_555 1_555
C23 C22 1_555 1_555
O4 Zn9 1_555 1_555
O4_2 C14_2 1_555 1_555
C14_2 C23_2 1_555 1_555
H10 C21_2 1_555 1_555
C22_2 C21_2 1_555 1_555
H11_2 C22_2 1_555 1_555
C23_2 C22_2 1_555 1_555
O4_2 Zn9_2 1_555 1_555
Zn5 N3_2 1_555 1_555
Zn3_2 N6_2 1_555 1_555
Zn4_2 N5_2 1_555 1_555
N3_2 C25_2 1_555 1_555
N4_2 Zn5 1_555 1_555
N5_2 N4_2 1_555 1_555
N6_2 C27_2 1_555 1_555
N7_2 Zn5 1_555 1_555
N8_2 Zn4_2 1_555 1_555
N9_2 C29_2 1_555 1_555
O1_2 Zn3_2 1_555 1_555
O2_2 C13_2 1_555 1_555
C13_2 O1_2 1_555 1_555
C15_2 H7_2 1_555 1_555
C16_2 C13_2 1_555 1_555
C17_2 C16_2 1_555 1_555
H8_2 C17_2 1_555 1_555
C18_2 C17_2 1_555 1_555
H9_2 C18_2 1_555 1_555
C19_2 C18_2 1_555 1_555
C20_2 C15_2 1_555 1_555
C24_2 C19_2 1_555 1_555
H12_2 C24_2 1_555 1_555
C25_2 H13_2 1_555 1_555
H14_2 C26_2 1_555 1_555
C27_2 N5_2 1_555 1_555
H15_2 C27_2 1_555 1_555
C28_2 N4_2 1_555 1_555
H16_2 C28_2 1_555 1_555
C29_2 N8_2 1_555 1_555
H17_2 C29_2 1_555 1_555
C30_2 N7_2 1_555 1_555
H18_2 C30_2 1_555 1_555
Zn6_2 N9_2 1_555 1_555
N13_2 Zn3_2 1_555 1_555
N15_2 Zn3_2 1_555 1_555
N16_2 Zn4_2 1_555 1_555
O9_2 Zn4_2 1_555 1_555
O10_2 Zn4_2 1_555 1_555
N3_2 C26_2 1_555 1_555
N6_2 C28_2 1_555 1_555
N7_2 N8_2 1_555 1_555
N9_2 C30_2 1_555 1_555
C15_2 C16_2 1_555 1_555
C19_2 C20_2 1_555 1_555
Zn2_2 N1_2 1_555 1_555
N1_2 N2_2 1_555 1_555
N10_2 Zn2_2 1_555 1_555
N11_2 N10_2 1_555 1_555
N16_2 C31_2 1_555 1_555
O5_2 Zn2_2 1_555 1_555
O6_2 Zn2_2 1_555 1_555
O11 C2_2 1_555 1_555
O12 C2_2 1_555 1_555
C1_2 O5_2 1_555 1_555
C2_2 C11_2 1_555 1_555
C3_2 H1_2 1_555 1_555
C4_2 C1_2 1_555 1_555
C5_2 C4_2 1_555 1_555
H2_2 C5_2 1_555 1_555
C6_2 C5_2 1_555 1_555
H3_2 C6_2 1_555 1_555
C7_2 C6_2 1_555 1_555
C8_2 C3_2 1_555 1_555
C9_2 C8_2 1_555 1_555
H4_2 C9_2 1_555 1_555
C10_2 C9_2 1_555 1_555
H5_2 C10_2 1_555 1_555
C11_2 C10_2 1_555 1_555
C12_2 C7_2 1_555 1_555
H6_2 C12_2 1_555 1_555
C31_2 N10_2 1_555 1_555
H19_2 C31_2 1_555 1_555
C32_2 N11_2 1_555 1_555
H20_2 C32_2 1_555 1_555
Zn7_2 N2_2 1_555 1_555
N14_2 Zn2_2 1_555 1_555
N11_2 Zn7_2 1_555 1_555
N16_2 C32_2 1_555 1_555
O6_2 C1_2 1_555 1_555
C3_2 C4_2 1_555 1_555
C7_2 C8_2 1_555 1_555
C11_2 C12_2 1_555 1_555
Zn1_2 N3_3 1_555 1_555
N3_3 C25_3 1_555 1_555
N7_3 Zn1_2 1_555 1_555
N8_3 Zn9_2 1_555 1_555
N14 C29_3 1_555 1_555
C25_3 H13_3 1_555 1_555
C29_3 N8_3 1_555 1_555
H17_3 C29_3 1_555 1_555
C30_3 N7_3 1_555 1_555
H18_3 C30_3 1_555 1_555
N16_3 Zn9_2 1_555 1_555
O11_2 Zn1_2 1_555 1_555
O12_2 Zn1_2 1_555 1_555
N3_3 C26_3 1_555 1_555
N7_3 N8_3 1_555 1_555
N14 C30_3 1_555 1_555
N1_3 N13 1_555 1_555
N15 N10_3 1_555 1_555
H2_3 C5_3 1_555 1_555
C6_3 C5_3 1_555 1_555
H3_3 C6_3 1_555 1_555
C32_3 N15 1_555 1_555
H20_3 C32_3 1_555 1_555
N16_3 C32_3 1_555 1_555
Zn7 N6_3 1_555 1_555
N5_3 N4_3 1_555 1_555
N6_3 C27_3 1_555 1_555
O1_3 Zn7 1_555 1_555
O2_3 C13_3 1_555 1_555
C13_3 O1_3 1_555 1_555
C15_3 H7_3 1_555 1_555
C16_3 C13_3 1_555 1_555
C17_3 C16_3 1_555 1_555
H8_3 C17_3 1_555 1_555
C18_3 C17_3 1_555 1_555
C20_3 C15_3 1_555 1_555
C27_3 N5_3 1_555 1_555
H15_3 C27_3 1_555 1_555
C28_3 N4_3 1_555 1_555
H16_3 C28_3 1_555 1_555
N6_3 C28_3 1_555 1_555
C15_3 C16_3 1_555 1_555
O6_3 Zn6 1_555 1_555
C3_3 H1_3 1_555 1_555
C4_3 C1_3 1_555 1_555
C8_3 C3_3 1_555 1_555
H19_3 C31_3 1_555 1_555
O6_3 C1_3 1_555 1_555
C3_3 C4_3 1_555 1_555
O9_2 C14_3 1_555 1_555
O10_2 C14_3 1_555 1_555
C14_3 C23_3 1_555 1_555
C22_3 C21_3 1_555 1_555
H11_3 C22_3 1_555 1_555
C23_3 C22_3 1_555 1_555
C24_3 C19_3 1_555 1_555
H12_3 C24_3 1_555 1_555
C23_3 C24_3 1_555 1_555
O7_2 C2_3 1_555 1_555
O8_2 C2_3 1_555 1_555
C2_3 C11_3 1_555 1_555
H4_3 C9_3 1_555 1_555
C10_3 C9_3 1_555 1_555
H5_3 C10_3 1_555 1_555
C11_3 C10_3 1_555 1_555
C12_3 C7_3 1_555 1_555
Zn5_2 O7_2 1_555 1_555
O8_2 Zn5_2 1_555 1_555
C11_3 C12_3 1_555 1_555
O9 C14_4 1_555 1_555
O10 C14_4 1_555 1_555
O11_2 C2_4 1_555 1_555
O12_2 C2_4 1_555 1_555
C2_4 C11_4 1_555 1_555
H4_4 C9_4 1_555 1_555
C10_4 C9_4 1_555 1_555
H5_4 C10_4 1_555 1_555
C11_4 C10_4 1_555 1_555
C12_4 C7_4 1_555 1_555
C14_4 C23_4 1_555 1_555
C22_4 C21_4 1_555 1_555
H11_4 C22_4 1_555 1_555
C23_4 C22_4 1_555 1_555
C24_4 C19_4 1_555 1_555
H12_4 C24_4 1_555 1_555
C11_4 C12_4 1_555 1_555
C23_4 C24_4 1_555 1_555
Zn7_2 N6_4 1_555 1_555
N5_4 N4_4 1_555 1_555
N6_4 C27_4 1_555 1_555
O1_4 Zn7_2 1_555 1_555
O2_4 C13_4 1_555 1_555
O6_4 Zn6_2 1_555 1_555
C3_4 H1_4 1_555 1_555
C4_4 C1_4 1_555 1_555
C8_4 C3_4 1_555 1_555
C13_4 O1_4 1_555 1_555
C15_4 H7_4 1_555 1_555
C16_4 C13_4 1_555 1_555
C17_4 C16_4 1_555 1_555
H8_4 C17_4 1_555 1_555
C18_4 C17_4 1_555 1_555
C20_4 C15_4 1_555 1_555
C27_4 N5_4 1_555 1_555
H15_4 C27_4 1_555 1_555
C28_4 N4_4 1_555 1_555
H16_4 C28_4 1_555 1_555
H19_4 C31_4 1_555 1_555
N6_4 C28_4 1_555 1_555
O6_4 C1_4 1_555 1_555
C3_4 C4_4 1_555 1_555
C15_4 C16_4 1_555 1_555
Zn5_2 N3_4 1_555 1_555
N1_4 N13_2 1_555 1_555
N13_2 C25_4 1_555 1_555
N3_4 C25_4 1_555 1_555
N7_4 Zn5_2 1_555 1_555
N8_4 Zn9 1_555 1_555
N14_2 C29_4 1_555 1_555
N15_2 N10_4 1_555 1_555
H2_4 C5_4 1_555 1_555
C6_4 C5_4 1_555 1_555
H3_4 C6_4 1_555 1_555
C25_4 H13_4 1_555 1_555
C26_4 N1_4 1_555 1_555
C29_4 N8_4 1_555 1_555
H17_4 C29_4 1_555 1_555
C30_4 N7_4 1_555 1_555
H18_4 C30_4 1_555 1_555
C32_4 N15_2 1_555 1_555
H20_4 C32_4 1_555 1_555
N3_4 C26_4 1_555 1_555
N7_4 N8_4 1_555 1_555
N14_2 C30_4 1_555 1_555
N16_4 C32_4 1_555 1_555

#END
