
###############################################################################
#
# This file contains modified crystal structure data generated from the
# MOF subset of the Cambridge Structural Database (CSD) v543 
# hosted by the Cambridge Crystallographic Data Centre (CCDC).
#
# This work is licensed under the Creative Commons
# Attribution-NonCommercial-ShareAlike 4.0 International License.
# To view a copy of this license, visit
# http://creativecommons.org/licenses/by-nc-sa/4.0/
# or send a letter to
# Creative Commons, PO Box 1866, Mountain View, CA 94042, USA.
#
# CIF created using the CSD Python API on 29 September 2022
# The structure has been converted into the P1 space group
# The structure has a 3D framework
# The original CSD entry WEJXAO is in the tetragonal crystal system
# The framework has been calculated to contain at least 10.0% void space
# The void calculation uses a probe of radius 1.32A, grid spacing 0.4
#
###############################################################################

data_WEJXAO
_chemical_formula_moiety         '(C96 H64 N46 O32 Zn12)n'
_symmetry_cell_setting           triclinic
_symmetry_space_group_name_H-M   'P 1'
_symmetry_Int_Tables_number      1
_space_group_name_Hall           'P 1'
loop_
_symmetry_equiv_pos_site_id
_symmetry_equiv_pos_as_xyz
1 x,y,z
_cell_length_a                   13.4523(6)
_cell_length_b                   13.4523(6)
_cell_length_c                   27.2990(13)
_cell_angle_alpha                90
_cell_angle_beta                 90
_cell_angle_gamma                90
_cell_volume                     4940.15
loop_
_atom_site_label
_atom_site_type_symbol
_atom_site_fract_x
_atom_site_fract_y
_atom_site_fract_z
C1 C 0.1208(2) 0.0184(2) 0.26456(9)
H1 H 0.1660 0.0669 0.2742
C6 C 0.03674(14) 0.19433(14) 0.44330(6)
H4 H 0.0769 0.2043 0.4160
N1 N 0.02494(12) 0.10683(11) 0.46504(6)
O1 O 0.13928(13) 0.05569(14) 0.36585(5)
H6 H 0.1419 0.0333 0.1914
Zn2 Zn 0.522624(16) 0.089047(15) 0.447304(7)
C12 C 0.30567(14) 0.03674(14) 0.44330(6)
H8 H 0.2957 0.0769 0.4160
N4 N 0.39317(11) 0.02494(12) 0.46504(6)
N7 N 0.51558(11) 0.23345(11) 0.46498(6)
N9 N 0.62431(12) 0.03889(11) 0.49628(5)
O5 O 0.44431(14) 0.13928(13) 0.36585(5)
O6 O 0.57661(14) 0.04916(14) 0.38383(6)
Zn1 Zn 0.089047(15) 0.977376(16) 0.447304(7)
C2 C 0.0007(3) 0.8951(2) 0.28521(9)
C4 C 0.0683(2) 0.9641(2) 0.29967(9)
C5 C 0.08864(19) 0.9840(2) 0.35305(9)
O2 O 0.04916(14) 0.92339(14) 0.38383(6)
C8 C 0.1049(2) 0.9993(3) 0.21479(9)
C9 C 0.0359(2) 0.9317(2) 0.20033(9)
C10 C 0.0160(2) 0.91136(19) 0.14695(9)
O4 O 0.07661(14) 0.95084(14) 0.11617(6)
C11 C 0.28047(13) 0.93892(13) 0.50190(7)
H7 H 0.2493 0.8963 0.5239
N5 N 0.23345(11) 0.98442(11) 0.46498(6)
N6 N 0.37569(12) 0.96111(11) 0.50372(5)
Zn4 Zn 0.022624(16) 0.910953(15) 0.052696(7)
Zn6 Zn 0.477376(16) 0.910953(15) 0.552696(7)
N8 N 0.03889(11) 0.87569(12) 0.49628(5)
C3 C 0.93892(13) 0.21953(13) 0.50190(7)
H3 H 0.8963 0.2507 0.5239
N2 N 0.98442(11) 0.26655(11) 0.46498(6)
N3 N 0.96111(11) 0.12431(12) 0.50372(5)
Zn3 Zn 0.977376(16) 0.410953(15) 0.447304(7)
Zn5 Zn 0.910953(15) 0.022624(16) 0.552696(7)
H2 H 0.9667 0.8581 0.3086
C7 C 0.9816(2) 0.8792(2) 0.23544(9)
H5 H 0.9331 0.8340 0.2258
O3 O 0.94431(14) 0.86072(13) 0.13415(5)
Zn1_2 Zn 0.410953(15) 0.522624(16) 0.447304(7)
C1_2 C 0.3792(2) 0.4816(2) 0.26456(9)
H1_2 H 0.3340 0.4331 0.2742
C2_2 C 0.4993(3) 0.6049(2) 0.28521(9)
H2_2 H 0.5333 0.6419 0.3086
C3_2 C 0.56108(13) 0.28047(13) 0.50190(7)
H3_2 H 0.6037 0.2493 0.5239
C4_2 C 0.4317(2) 0.5359(2) 0.29967(9)
C5_2 C 0.41136(19) 0.5160(2) 0.35305(9)
C6_2 C 0.46326(14) 0.30567(14) 0.44330(6)
H4_2 H 0.4231 0.2957 0.4160
N1_2 N 0.47506(12) 0.39317(11) 0.46504(6)
N3_2 N 0.53889(11) 0.37569(12) 0.50372(5)
O1_2 O 0.36072(13) 0.44431(14) 0.36585(5)
O2_2 O 0.45084(14) 0.57661(14) 0.38383(6)
C7_2 C 0.5184(2) 0.6208(2) 0.23544(9)
H5_2 H 0.5669 0.6660 0.2258
C8_2 C 0.3951(2) 0.5007(3) 0.21479(9)
H6_2 H 0.3581 0.4667 0.1914
C9_2 C 0.4641(2) 0.5683(2) 0.20033(9)
C10_2 C 0.4840(2) 0.58864(19) 0.14695(9)
O3_2 O 0.55569(14) 0.63928(13) 0.13415(5)
O4_2 O 0.42339(14) 0.54916(14) 0.11617(6)
C11_2 C 0.21953(13) 0.56108(13) 0.50190(7)
H7_2 H 0.2507 0.6037 0.5239
C12_2 C 0.19433(14) 0.46326(14) 0.44330(6)
H8_2 H 0.2043 0.4231 0.4160
N4_2 N 0.10683(11) 0.47506(12) 0.46504(6)
N5_2 N 0.26655(11) 0.51558(11) 0.46498(6)
N6_2 N 0.12431(12) 0.53889(11) 0.50372(5)
Zn4_2 Zn 0.477376(16) 0.589047(15) 0.052696(7)
Zn5_2 Zn 0.589047(15) 0.477376(16) 0.552696(7)
Zn6_2 Zn 0.022624(16) 0.589047(15) 0.552696(7)
N8_2 N 0.46111(11) 0.62431(12) 0.49628(5)
O5_2 O 0.05569(14) 0.36072(13) 0.36585(5)
N9_2 N 0.87569(12) 0.46111(11) 0.49628(5)
O6_2 O 0.92339(14) 0.45084(14) 0.38383(6)
C1_3 C 0.4816(2) 0.1208(2) 0.26456(9)
H1_3 H 0.4331 0.1660 0.2742
C2_3 C 0.6049(2) 0.0007(3) 0.28521(9)
C4_3 C 0.5359(2) 0.0683(2) 0.29967(9)
C5_3 C 0.5160(2) 0.08864(19) 0.35305(9)
C8_3 C 0.5007(3) 0.1049(2) 0.21479(9)
H6_3 H 0.4667 0.1419 0.1914
C9_3 C 0.5683(2) 0.0359(2) 0.20033(9)
C10_3 C 0.58864(19) 0.0160(2) 0.14695(9)
O4_3 O 0.54916(14) 0.07661(14) 0.11617(6)
Zn4_3 Zn 0.589047(15) 0.022624(16) 0.052696(7)
H2_3 H 0.6419 0.9667 0.3086
C7_3 C 0.6208(2) 0.9816(2) 0.23544(9)
H5_3 H 0.6660 0.9331 0.2258
O3_3 O 0.63928(13) 0.94431(14) 0.13415(5)
C1_4 C 0.0184(2) 0.3792(2) 0.26456(9)
H1_4 H 0.0669 0.3340 0.2742
H6_4 H 0.0333 0.3581 0.1914
C2_4 C 0.8951(2) 0.4993(3) 0.28521(9)
H2_4 H 0.8581 0.5333 0.3086
C4_4 C 0.9641(2) 0.4317(2) 0.29967(9)
C5_4 C 0.9840(2) 0.41136(19) 0.35305(9)
C7_4 C 0.8792(2) 0.5184(2) 0.23544(9)
H5_4 H 0.8340 0.5669 0.2258
C8_4 C 0.9993(3) 0.3951(2) 0.21479(9)
C9_4 C 0.9317(2) 0.4641(2) 0.20033(9)
C10_4 C 0.91136(19) 0.4840(2) 0.14695(9)
O3_4 O 0.86072(13) 0.55569(14) 0.13415(5)
O4_4 O 0.95084(14) 0.42339(14) 0.11617(6)
Zn4_4 Zn 0.910953(15) 0.477376(16) 0.052696(7)
N2_2 N 0.01558(11) 0.76655(11) 0.03502(6)
C3_3 C 0.06108(13) 0.71953(13) 0.99810(7)
H3_3 H 0.1037 0.7507 0.9761
N3_3 N 0.03889(11) 0.62431(12) 0.99628(5)
Zn5_3 Zn 0.089047(15) 0.522624(16) 0.947304(7)
C6_3 C 0.96326(14) 0.69433(14) 0.05670(6)
H4_3 H 0.9231 0.7043 0.0840
N1_3 N 0.97506(12) 0.60683(11) 0.03496(6)
C12_3 C 0.69433(14) 0.53674(14) 0.05670(6)
H8_3 H 0.7043 0.5769 0.0840
N4_3 N 0.60683(11) 0.52494(12) 0.03496(6)
N5_3 N 0.76655(11) 0.48442(11) 0.03502(6)
N7_2 N 0.48442(11) 0.73345(11) 0.03502(6)
N8_3 N 0.96111(11) 0.37569(12) 0.00372(5)
N9_3 N 0.37569(12) 0.53889(11) 0.00372(5)
C11_3 C 0.71953(13) 0.43892(13) 0.99810(7)
H7_3 H 0.7507 0.3963 0.9761
N6_3 N 0.62431(12) 0.46111(11) 0.99628(5)
Zn6_3 Zn 0.522624(16) 0.410953(15) 0.947304(7)
N9_4 N 0.12431(12) 0.96111(11) 0.00372(5)
N5_4 N 0.73345(11) 0.01558(11) 0.03502(6)
N8_4 N 0.53889(11) 0.12431(12) 0.00372(5)
C11_4 C 0.78047(13) 0.06108(13) 0.99810(7)
H7_4 H 0.7493 0.1037 0.9761
N6_4 N 0.87569(12) 0.03889(11) 0.99628(5)
Zn6_4 Zn 0.977376(16) 0.089047(15) 0.947304(7)
C6_4 C 0.53674(14) 0.80567(14) 0.05670(6)
H4_4 H 0.5769 0.7957 0.0840
N1_4 N 0.52494(12) 0.89317(11) 0.03496(6)
C12_4 C 0.80567(14) 0.96326(14) 0.05670(6)
H8_4 H 0.7957 0.9231 0.0840
N4_4 N 0.89317(11) 0.97506(12) 0.03496(6)
C3_4 C 0.43892(13) 0.78047(13) 0.99810(7)
H3_4 H 0.3963 0.7493 0.9761
N3_4 N 0.46111(11) 0.87569(12) 0.99628(5)
Zn5_4 Zn 0.410953(15) 0.977376(16) 0.947304(7)
H2_5 H 0.0333 0.1419 0.6914
C7_5 C 0.0184(2) 0.1208(2) 0.76456(9)
H5_5 H 0.0669 0.1660 0.7742
O3_5 O 0.05569(14) 0.13928(13) 0.86585(5)
C3_5 C 0.06108(13) 0.78047(13) 0.49810(7)
H3_5 H 0.1037 0.7493 0.4761
N2_3 N 0.01558(11) 0.73345(11) 0.53502(6)
C2_5 C 0.9993(3) 0.1049(2) 0.71479(9)
C4_5 C 0.9317(2) 0.0359(2) 0.70033(9)
C5_5 C 0.91136(19) 0.0160(2) 0.64695(9)
O2_3 O 0.95084(14) 0.07661(14) 0.61617(6)
C8_5 C 0.8951(2) 0.0007(3) 0.78521(9)
C9_5 C 0.9641(2) 0.0683(2) 0.79967(9)
C10_5 C 0.9840(2) 0.08864(19) 0.85305(9)
O4_5 O 0.92339(14) 0.04916(14) 0.88383(6)
C11_5 C 0.71953(13) 0.06108(13) 0.49810(7)
H7_5 H 0.7507 0.1037 0.4761
N5_5 N 0.76655(11) 0.01558(11) 0.53502(6)
C1_5 C 0.8792(2) 0.9816(2) 0.73544(9)
H1_5 H 0.8340 0.9331 0.7258
C6_5 C 0.96326(14) 0.80567(14) 0.55670(6)
H4_5 H 0.9231 0.7957 0.5840
N1_5 N 0.97506(12) 0.89317(11) 0.53496(6)
O1_3 O 0.86072(13) 0.94431(14) 0.63415(5)
H6_5 H 0.8581 0.9667 0.8086
C12_5 C 0.69433(14) 0.96326(14) 0.55670(6)
H8_5 H 0.7043 0.9231 0.5840
N4_5 N 0.60683(11) 0.97506(12) 0.53496(6)
N7_3 N 0.48442(11) 0.76655(11) 0.53502(6)
O5_3 O 0.55569(14) 0.86072(13) 0.63415(5)
O6_3 O 0.42339(14) 0.95084(14) 0.61617(6)
O6_4 O 0.07661(14) 0.54916(14) 0.61617(6)
C1_6 C 0.6208(2) 0.5184(2) 0.73544(9)
H1_6 H 0.6660 0.5669 0.7258
C2_6 C 0.5007(3) 0.3951(2) 0.71479(9)
H2_6 H 0.4667 0.3581 0.6914
C3_6 C 0.43892(13) 0.71953(13) 0.49810(7)
H3_6 H 0.3963 0.7507 0.4761
C4_6 C 0.5683(2) 0.4641(2) 0.70033(9)
C5_6 C 0.58864(19) 0.4840(2) 0.64695(9)
C6_6 C 0.53674(14) 0.69433(14) 0.55670(6)
H4_6 H 0.5769 0.7043 0.5840
N1_6 N 0.52494(12) 0.60683(11) 0.53496(6)
O1_4 O 0.63928(13) 0.55569(14) 0.63415(5)
O2_4 O 0.54916(14) 0.42339(14) 0.61617(6)
C7_6 C 0.4816(2) 0.3792(2) 0.76456(9)
H5_6 H 0.4331 0.3340 0.7742
C8_6 C 0.6049(2) 0.4993(3) 0.78521(9)
H6_6 H 0.6419 0.5333 0.8086
C9_6 C 0.5359(2) 0.4317(2) 0.79967(9)
C10_6 C 0.5160(2) 0.41136(19) 0.85305(9)
O3_6 O 0.44431(14) 0.36072(13) 0.86585(5)
O4_6 O 0.57661(14) 0.45084(14) 0.88383(6)
C11_6 C 0.78047(13) 0.43892(13) 0.49810(7)
H7_6 H 0.7493 0.3963 0.4761
C12_6 C 0.80567(14) 0.53674(14) 0.55670(6)
H8_6 H 0.7957 0.5769 0.5840
N4_6 N 0.89317(11) 0.52494(12) 0.53496(6)
N5_6 N 0.73345(11) 0.48442(11) 0.53502(6)
O5_4 O 0.94431(14) 0.63928(13) 0.63415(5)
H2_7 H 0.3581 0.0333 0.6914
C7_7 C 0.3792(2) 0.0184(2) 0.76456(9)
H5_7 H 0.3340 0.0669 0.7742
O3_7 O 0.36072(13) 0.05569(14) 0.86585(5)
C1_7 C 0.5184(2) 0.8792(2) 0.73544(9)
H1_7 H 0.5669 0.8340 0.7258
C2_7 C 0.3951(2) 0.9993(3) 0.71479(9)
C4_7 C 0.4641(2) 0.9317(2) 0.70033(9)
C5_7 C 0.4840(2) 0.91136(19) 0.64695(9)
C8_7 C 0.4993(3) 0.8951(2) 0.78521(9)
H6_7 H 0.5333 0.8581 0.8086
C9_7 C 0.4317(2) 0.9641(2) 0.79967(9)
C10_7 C 0.41136(19) 0.9840(2) 0.85305(9)
O4_7 O 0.45084(14) 0.92339(14) 0.88383(6)
C2_8 C 0.1049(2) 0.5007(3) 0.71479(9)
H2_8 H 0.1419 0.4667 0.6914
C4_8 C 0.0359(2) 0.5683(2) 0.70033(9)
C5_8 C 0.0160(2) 0.58864(19) 0.64695(9)
C7_8 C 0.1208(2) 0.4816(2) 0.76456(9)
H5_8 H 0.1660 0.4331 0.7742
C8_8 C 0.0007(3) 0.6049(2) 0.78521(9)
C9_8 C 0.0683(2) 0.5359(2) 0.79967(9)
C10_8 C 0.08864(19) 0.5160(2) 0.85305(9)
O3_8 O 0.13928(13) 0.44431(14) 0.86585(5)
O4_8 O 0.04916(14) 0.57661(14) 0.88383(6)
C1_8 C 0.9816(2) 0.6208(2) 0.73544(9)
H1_8 H 0.9331 0.6660 0.7258
H6_8 H 0.9667 0.6419 0.8086
C11_7 C 0.28047(13) 0.56108(13) 0.00190(7)
H7_7 H 0.2493 0.6037 0.0239
C6_7 C 0.03674(14) 0.30567(14) 0.94330(6)
H4_7 H 0.0769 0.2957 0.9160
N1_7 N 0.02494(12) 0.39317(11) 0.96504(6)
C12_7 C 0.30567(14) 0.46326(14) 0.94330(6)
H8_7 H 0.2957 0.4231 0.9160
N4_7 N 0.39317(11) 0.47506(12) 0.96504(6)
N5_7 N 0.23345(11) 0.51558(11) 0.96498(6)
N7_4 N 0.51558(11) 0.26655(11) 0.96498(6)
C3_7 C 0.93892(13) 0.28047(13) 0.00190(7)
H3_7 H 0.8963 0.2493 0.0239
N2_4 N 0.98442(11) 0.23345(11) 0.96498(6)
C3_8 C 0.56108(13) 0.21953(13) 0.00190(7)
H3_8 H 0.6037 0.2507 0.0239
C6_8 C 0.46326(14) 0.19433(14) 0.94330(6)
H4_8 H 0.4231 0.2043 0.9160
N1_8 N 0.47506(12) 0.10683(11) 0.96504(6)
C12_8 C 0.19433(14) 0.03674(14) 0.94330(6)
H8_8 H 0.2043 0.0769 0.9160
N4_8 N 0.10683(11) 0.02494(12) 0.96504(6)
C11_8 C 0.21953(13) 0.93892(13) 0.00190(7)
H7_8 H 0.2507 0.8963 0.0239
N5_8 N 0.26655(11) 0.98442(11) 0.96498(6)
loop_
_geom_bond_atom_site_label_1
_geom_bond_atom_site_label_2
_geom_bond_site_symmetry_1
_geom_bond_site_symmetry_2
C1 H1 1_555 1_555
C6 H4 1_555 1_555
N1 C6 1_555 1_555
Zn2 N4 1_555 1_555
C12 H8 1_555 1_555
N4 C12 1_555 1_555
N7 Zn2 1_555 1_555
N9 Zn2 1_555 1_555
O5 Zn2 1_555 1_555
O6 Zn2 1_555 1_555
C5 C4 1_555 1_555
O2 Zn1 1_555 1_555
C10 C9 1_555 1_555
O4 C10 1_555 1_555
C11 H7 1_555 1_555
N5 Zn1 1_555 1_555
N6 C11 1_555 1_555
Zn6 N6 1_555 1_555
N8 Zn1 1_555 1_555
C2 C4 1_555 1_555
C5 O2 1_555 1_555
C8 C9 1_555 1_555
O4 Zn4 1_555 1_555
C11 N5 1_555 1_555
C3 H3 1_555 1_555
N2 C3 1_555 1_555
N3 C3 1_555 1_555
Zn3 N2 1_555 1_555
Zn5 N3 1_555 1_555
H5 C7 1_555 1_555
Zn1_2 N1_2 1_555 1_555
C1_2 H1_2 1_555 1_555
C2_2 H2_2 1_555 1_555
C3_2 H3_2 1_555 1_555
C4_2 C1_2 1_555 1_555
C5_2 C4_2 1_555 1_555
C6_2 H4_2 1_555 1_555
N1_2 C6_2 1_555 1_555
N7 C3_2 1_555 1_555
N3_2 C3_2 1_555 1_555
O1_2 Zn1_2 1_555 1_555
O2_2 Zn1_2 1_555 1_555
C7_2 C2_2 1_555 1_555
H5_2 C7_2 1_555 1_555
C8_2 C1_2 1_555 1_555
H6_2 C8_2 1_555 1_555
C9_2 C7_2 1_555 1_555
C10_2 C9_2 1_555 1_555
O3_2 C10_2 1_555 1_555
O4_2 C10_2 1_555 1_555
C11_2 H7_2 1_555 1_555
C12_2 H8_2 1_555 1_555
N4_2 C12_2 1_555 1_555
N5_2 Zn1_2 1_555 1_555
N6_2 C11_2 1_555 1_555
Zn4_2 O3_2 1_555 1_555
Zn5_2 N3_2 1_555 1_555
Zn6_2 N6_2 1_555 1_555
N8_2 Zn1_2 1_555 1_555
C2_2 C4_2 1_555 1_555
C5_2 O1_2 1_555 1_555
C5_2 O2_2 1_555 1_555
C6_2 N7 1_555 1_555
N1_2 N3_2 1_555 1_555
C8_2 C9_2 1_555 1_555
O4_2 Zn4_2 1_555 1_555
C11_2 N5_2 1_555 1_555
C12_2 N5_2 1_555 1_555
N4_2 N6_2 1_555 1_555
N9_2 Zn3 1_555 1_555
O6_2 Zn3 1_555 1_555
C1_3 H1_3 1_555 1_555
C4_3 C1_3 1_555 1_555
C5_3 C4_3 1_555 1_555
C8_3 C1_3 1_555 1_555
H6_3 C8_3 1_555 1_555
C10_3 C9_3 1_555 1_555
O4_3 C10_3 1_555 1_555
C2_3 C4_3 1_555 1_555
C5_3 O5 1_555 1_555
C5_3 O6 1_555 1_555
C8_3 C9_3 1_555 1_555
O4_3 Zn4_3 1_555 1_555
H5_3 C7_3 1_555 1_555
C1_4 H1_4 1_555 1_555
C2_4 H2_4 1_555 1_555
C5_4 C4_4 1_555 1_555
C7_4 C2_4 1_555 1_555
H5_4 C7_4 1_555 1_555
C9_4 C7_4 1_555 1_555
C10_4 C9_4 1_555 1_555
O3_4 C10_4 1_555 1_555
O4_4 C10_4 1_555 1_555
Zn4_4 O3_4 1_555 1_555
C2_4 C4_4 1_555 1_555
C5_4 O6_2 1_555 1_555
C8_4 C9_4 1_555 1_555
O4_4 Zn4_4 1_555 1_555
Zn4 N2_2 1_555 1_555
C3_3 H3_3 1_555 1_555
N3_3 C3_3 1_555 1_555
Zn5_3 N3_3 1_555 1_555
Zn4_4 N1_3 1_555 1_555
C6_3 H4_3 1_555 1_555
N1_3 C6_3 1_555 1_555
Zn4_2 N4_3 1_555 1_555
C12_3 H8_3 1_555 1_555
N4_3 C12_3 1_555 1_555
N5_3 Zn4_4 1_555 1_555
N7_2 Zn4_2 1_555 1_555
N8_3 Zn4_4 1_555 1_555
N9_3 Zn4_2 1_555 1_555
C12_3 N5_3 1_555 1_555
C11_3 H7_3 1_555 1_555
N6_3 C11_3 1_555 1_555
Zn6_3 N6_3 1_555 1_555
N9_4 Zn4 1_555 1_555
N5_4 Zn4_3 1_555 1_555
N8_4 Zn4_3 1_555 1_555
C11_4 H7_4 1_555 1_555
N6_4 C11_4 1_555 1_555
Zn6_4 N6_4 1_555 1_555
C6_4 H4_4 1_555 1_555
N1_4 C6_4 1_555 1_555
C12_4 H8_4 1_555 1_555
N4_4 C12_4 1_555 1_555
C6_4 N7_2 1_555 1_555
C3_4 H3_4 1_555 1_555
N3_4 C3_4 1_555 1_555
Zn5_4 N3_4 1_555 1_555
H5_5 C7_5 1_555 1_555
C3_5 H3_5 1_555 1_555
N2_3 C3_5 1_555 1_555
N8 C3_5 1_555 1_555
Zn6_2 N2_3 1_555 1_555
C5_5 C4_5 1_555 1_555
O2_3 Zn5 1_555 1_555
C10_5 C9_5 1_555 1_555
O4_5 C10_5 1_555 1_555
C11_5 H7_5 1_555 1_555
N5_5 Zn5 1_555 1_555
N9 C11_5 1_555 1_555
C2_5 C4_5 1_555 1_555
C5_5 O2_3 1_555 1_555
C8_5 C9_5 1_555 1_555
O4_5 Zn6_4 1_555 1_555
C11_5 N5_5 1_555 1_555
C1_5 H1_5 1_555 1_555
C6_5 H4_5 1_555 1_555
N1_5 C6_5 1_555 1_555
Zn6 N4_5 1_555 1_555
C12_5 H8_5 1_555 1_555
N4_5 C12_5 1_555 1_555
N7_3 Zn6 1_555 1_555
O5_3 Zn6 1_555 1_555
O6_3 Zn6 1_555 1_555
O6_4 Zn6_2 1_555 1_555
Zn5_2 N1_6 1_555 1_555
C1_6 H1_6 1_555 1_555
C2_6 H2_6 1_555 1_555
C3_6 H3_6 1_555 1_555
C4_6 C1_6 1_555 1_555
C5_6 C4_6 1_555 1_555
C6_6 H4_6 1_555 1_555
N1_6 C6_6 1_555 1_555
N7_3 C3_6 1_555 1_555
N8_2 C3_6 1_555 1_555
O1_4 Zn5_2 1_555 1_555
O2_4 Zn5_2 1_555 1_555
C7_6 C2_6 1_555 1_555
H5_6 C7_6 1_555 1_555
C8_6 C1_6 1_555 1_555
H6_6 C8_6 1_555 1_555
C9_6 C7_6 1_555 1_555
C10_6 C9_6 1_555 1_555
O3_6 C10_6 1_555 1_555
O4_6 C10_6 1_555 1_555
C11_6 H7_6 1_555 1_555
C12_6 H8_6 1_555 1_555
N4_6 C12_6 1_555 1_555
N5_6 Zn5_2 1_555 1_555
N9_2 C11_6 1_555 1_555
Zn6_3 O3_6 1_555 1_555
C2_6 C4_6 1_555 1_555
C5_6 O1_4 1_555 1_555
C5_6 O2_4 1_555 1_555
C6_6 N7_3 1_555 1_555
N1_6 N8_2 1_555 1_555
C8_6 C9_6 1_555 1_555
O4_6 Zn6_3 1_555 1_555
C11_6 N5_6 1_555 1_555
C12_6 N5_6 1_555 1_555
N4_6 N9_2 1_555 1_555
H5_7 C7_7 1_555 1_555
C1_7 H1_7 1_555 1_555
C4_7 C1_7 1_555 1_555
C5_7 C4_7 1_555 1_555
C8_7 C1_7 1_555 1_555
H6_7 C8_7 1_555 1_555
C10_7 C9_7 1_555 1_555
O4_7 C10_7 1_555 1_555
C2_7 C4_7 1_555 1_555
C5_7 O5_3 1_555 1_555
C5_7 O6_3 1_555 1_555
C8_7 C9_7 1_555 1_555
O4_7 Zn5_4 1_555 1_555
C2_8 H2_8 1_555 1_555
C5_8 C4_8 1_555 1_555
C7_8 C2_8 1_555 1_555
H5_8 C7_8 1_555 1_555
C9_8 C7_8 1_555 1_555
C10_8 C9_8 1_555 1_555
O3_8 C10_8 1_555 1_555
O4_8 C10_8 1_555 1_555
Zn5_3 O3_8 1_555 1_555
C2_8 C4_8 1_555 1_555
C5_8 O6_4 1_555 1_555
C8_8 C9_8 1_555 1_555
O4_8 Zn5_3 1_555 1_555
C1_8 H1_8 1_555 1_555
C11_7 H7_7 1_555 1_555
N9_3 C11_7 1_555 1_555
Zn5_3 N1_7 1_555 1_555
C6_7 H4_7 1_555 1_555
N1_7 C6_7 1_555 1_555
Zn6_3 N4_7 1_555 1_555
C12_7 H8_7 1_555 1_555
N4_7 C12_7 1_555 1_555
N5_7 Zn5_3 1_555 1_555
N7_4 Zn6_3 1_555 1_555
C12_7 N5_7 1_555 1_555
C3_7 H3_7 1_555 1_555
N8_3 C3_7 1_555 1_555
Zn6_4 N2_4 1_555 1_555
C3_8 H3_8 1_555 1_555
N8_4 C3_8 1_555 1_555
C6_8 H4_8 1_555 1_555
N1_8 C6_8 1_555 1_555
C12_8 H8_8 1_555 1_555
N4_8 C12_8 1_555 1_555
C6_8 N7_4 1_555 1_555
C11_8 H7_8 1_555 1_555
N9_4 C11_8 1_555 1_555
N5_8 Zn5_4 1_555 1_555

#END
