
###############################################################################
#
# This file contains modified crystal structure data generated from the
# MOF subset of the Cambridge Structural Database (CSD) v543 
# hosted by the Cambridge Crystallographic Data Centre (CCDC).
#
# This work is licensed under the Creative Commons
# Attribution-NonCommercial-ShareAlike 4.0 International License.
# To view a copy of this license, visit
# http://creativecommons.org/licenses/by-nc-sa/4.0/
# or send a letter to
# Creative Commons, PO Box 1866, Mountain View, CA 94042, USA.
#
# CIF created using the CSD Python API on 29 September 2022
# The structure has been converted into the P1 space group
# The structure has a 3D framework
# The original CSD entry WEKBUN is in the triclinic crystal system
# The framework has been calculated to contain at least 10.0% void space
# The void calculation uses a probe of radius 1.32A, grid spacing 0.4
#
###############################################################################

data_WEKBUN
_chemical_formula_moiety         '(C42 H36 Eu2 N8 O16)n'
_symmetry_cell_setting           triclinic
_symmetry_space_group_name_H-M   'P 1'
_symmetry_Int_Tables_number      1
_space_group_name_Hall           'P 1'
loop_
_symmetry_equiv_pos_site_id
_symmetry_equiv_pos_as_xyz
1 x,y,z
_cell_length_a                   9.627(3)
_cell_length_b                   12.695(4)
_cell_length_c                   14.810(5)
_cell_angle_alpha                107.794(4)
_cell_angle_beta                 103.650(4)
_cell_angle_gamma                106.601(4)
_cell_volume                     1544.43
loop_
_atom_site_label
_atom_site_type_symbol
_atom_site_fract_x
_atom_site_fract_y
_atom_site_fract_z
_atom_site_U_iso_or_equiv
_atom_site_thermal_displace_type
Eu5 Eu 0.27502(2) 0.51013(2) 0.00415(2) 0.0165 Uani
O9 O 0.5261(4) 0.3234(3) 0.8454(2) 0.0239 Uani
O10 O 0.3460(4) 0.3790(3) 0.8921(2) 0.0241 Uani
N5 N 0.2060(7) 0.0701(6) 0.5672(4) 0.0537 Uani
C22 C 0.3888(6) 0.3146(4) 0.8303(3) 0.0232 Uani
C23 C 0.2670(7) 0.2223(5) 0.7315(4) 0.0341 Uani
C24 C 0.3085(7) 0.1560(6) 0.6561(4) 0.0409 Uani
H19 H 0.415549 0.172849 0.668498 0.0490 Uiso
C25 C 0.0558(8) 0.0483(7) 0.5496(5) 0.0634 Uani
C26 C 0.0030(8) 0.1116(8) 0.6197(6) 0.0749 Uani
C27 C 0.1091(8) 0.1994(7) 0.7128(5) 0.0561 Uani
H21 H 0.075841 0.242470 0.762206 0.0670 Uiso
Eu8 Eu 0.72498(2) 0.48987(2) 0.99585(2) 0.0165 Uani
O3 O 0.0666(4) 0.4506(4) 0.8488(3) 0.0336 Uani
H6 H 0.020046 0.390308 0.666792 0.0280 Uiso
H8 H 0.104678 0.905144 0.396287 0.0890 Uiso
H20 H 0.895322 0.094856 0.603713 0.0890 Uiso
O1 O 0.3898(4) 0.4250(3) 0.1114(2) 0.0231 Uani
O2 O 0.5834(4) 0.3797(3) 0.0704(2) 0.0242 Uani
O4 O 0.8602(5) 0.4630(5) 0.8846(3) 0.0371 Uani
N1 N 0.5180(6) 0.3728(5) 0.3782(3) 0.0340 Uani
N2 N 0.8605(5) 0.3793(4) 0.5483(3) 0.0247 Uani
C1 C 0.5059(5) 0.3968(4) 0.1274(3) 0.0202 Uani
C2 C 0.5614(6) 0.3840(4) 0.2264(3) 0.0218 Uani
C3 C 0.4696(7) 0.3751(5) 0.2858(4) 0.0305 Uani
H1 H 0.366805 0.370352 0.259739 0.0360 Uiso
C4 C 0.6635(6) 0.3799(4) 0.4140(3) 0.0225 Uani
C5 C 0.7622(6) 0.3854(6) 0.3585(4) 0.0322 Uani
H2 H 0.863587 0.387903 0.385128 0.0390 Uiso
C6 C 0.7088(6) 0.3871(6) 0.2632(4) 0.0328 Uani
H3 H 0.773550 0.390418 0.223825 0.0390 Uiso
C7 C 0.7204(6) 0.3851(4) 0.5185(3) 0.0218 Uani
C8 C 0.6353(6) 0.4000(6) 0.5817(4) 0.0310 Uani
H4 H 0.533946 0.398238 0.556700 0.0370 Uiso
C9 C 0.7005(6) 0.4175(5) 0.6825(4) 0.0291 Uani
H5 H 0.645355 0.429439 0.727570 0.0350 Uiso
C10 C 0.8484(5) 0.4171(4) 0.7156(3) 0.0201 Uani
C11 C 0.9216(6) 0.3948(5) 0.6451(3) 0.0232 Uani
C12 C 0.9313(5) 0.4449(4) 0.8246(3) 0.0184 Uani
O5 O 0.4739(4) 0.6766(3) 0.1546(2) 0.0239 Uani
O6 O 0.6540(4) 0.6210(3) 0.1079(2) 0.0241 Uani
N3 N 0.7940(7) 0.9299(6) 0.4328(4) 0.0537 Uani
C13 C 0.6112(6) 0.6854(4) 0.1697(3) 0.0232 Uani
C14 C 0.7330(7) 0.7777(5) 0.2685(4) 0.0341 Uani
C15 C 0.6915(7) 0.8440(6) 0.3439(4) 0.0409 Uani
H7 H 0.584451 0.827151 0.331502 0.0490 Uiso
C16 C 0.9442(8) 0.9517(7) 0.4504(5) 0.0634 Uani
C17 C 0.9970(8) 0.8884(8) 0.3803(6) 0.0749 Uani
C18 C 0.8909(8) 0.8006(7) 0.2872(5) 0.0561 Uani
H9 H 0.924159 0.757530 0.237794 0.0670 Uiso
O7 O 0.2061(5) 0.6866(4) 0.0142(3) 0.0344 Uani
H11 H 0.266368 0.748248 0.072407 0.0520 Uiso
C19 C 0.1130(11) 0.2476(8) 0.0212(7) 0.0692 Uani
H12 H 0.104481 0.277202 0.085967 0.0830 Uiso
N4 N 0.1566(12) 0.1516(7) 0.0015(7) 0.0803 Uani
C21 C 0.2042(17) 0.1052(11) 0.0760(10) 0.1052 Uani
H16 H 0.191539 0.148213 0.138892 0.1580 Uiso
H17 H 0.313225 0.116298 0.089692 0.1580 Uiso
H18 H 0.140041 0.019501 0.050102 0.1580 Uiso
H28 H 0.772157 0.287939 0.032158 0.0520 Uiso
O16 O 0.9187(5) 0.6955(4) 0.0360(3) 0.0428 Uani
C41 C 0.808(2) 0.8918(11) 0.0922(10) 0.1129 Uani
H31 H 0.885373 0.972122 0.137738 0.1690 Uiso
H32 H 0.704665 0.894978 0.074283 0.1690 Uiso
H33 H 0.809333 0.836792 0.126295 0.1690 Uiso
O18 O 0.9334(4) 0.5494(4) 0.1512(3) 0.0336 Uani
O20 O 0.1398(5) 0.5370(5) 0.1154(3) 0.0371 Uani
H10 H 0.227843 0.712061 0.967842 0.0520 Uiso
O8 O 0.0813(5) 0.3045(4) 0.9640(3) 0.0428 Uani
C20 C 0.192(2) 0.1082(11) 0.9078(10) 0.1129 Uani
H13 H 0.114627 0.027878 0.862262 0.1690 Uiso
H14 H 0.295335 0.105022 0.925717 0.1690 Uiso
H15 H 0.190667 0.163208 0.873705 0.1690 Uiso
O11 O 0.6102(4) 0.5750(3) 0.8886(2) 0.0231 Uani
O12 O 0.4166(4) 0.6203(3) 0.9296(2) 0.0242 Uani
N6 N 0.4820(6) 0.6272(5) 0.6218(3) 0.0340 Uani
N7 N 0.1395(5) 0.6207(4) 0.4517(3) 0.0247 Uani
C28 C 0.4941(5) 0.6032(4) 0.8726(3) 0.0202 Uani
C29 C 0.4386(6) 0.6160(4) 0.7736(3) 0.0218 Uani
C30 C 0.5304(7) 0.6249(5) 0.7142(4) 0.0305 Uani
H22 H 0.633195 0.629648 0.740261 0.0360 Uiso
C31 C 0.3365(6) 0.6201(4) 0.5860(3) 0.0225 Uani
C32 C 0.2378(6) 0.6146(6) 0.6415(4) 0.0322 Uani
H23 H 0.136413 0.612097 0.614872 0.0390 Uiso
C33 C 0.2912(6) 0.6129(6) 0.7368(4) 0.0328 Uani
H24 H 0.226450 0.609582 0.776175 0.0390 Uiso
C34 C 0.2796(6) 0.6149(4) 0.4815(3) 0.0218 Uani
C35 C 0.3647(6) 0.6000(6) 0.4183(4) 0.0310 Uani
H25 H 0.466054 0.601762 0.443300 0.0370 Uiso
C36 C 0.2995(6) 0.5825(5) 0.3175(4) 0.0291 Uani
H26 H 0.354645 0.570561 0.272430 0.0350 Uiso
C37 C 0.1516(5) 0.5829(4) 0.2844(3) 0.0201 Uani
C38 C 0.0784(6) 0.6052(5) 0.3549(3) 0.0232 Uani
C39 C 0.0687(5) 0.5551(4) 0.1754(3) 0.0184 Uani
O15 O 0.7939(5) 0.3134(4) 0.9858(3) 0.0344 Uani
H29 H 0.733632 0.251752 0.927593 0.0520 Uiso
C40 C 0.8870(11) 0.7524(8) 0.9788(7) 0.0692 Uani
H30 H 0.895519 0.722798 0.914033 0.0830 Uiso
N8 N 0.8434(12) 0.8484(7) 0.9985(7) 0.0803 Uani
C42 C 0.7958(17) 0.8948(11) 0.9240(10) 0.1052 Uani
H34 H 0.808461 0.851787 0.861108 0.1580 Uiso
H35 H 0.686775 0.883702 0.910308 0.1580 Uiso
H36 H 0.859959 0.980499 0.949898 0.1580 Uiso
H27 H 0.979954 0.609692 0.333208 0.0280 Uiso
loop_
_atom_site_aniso_label
_atom_site_aniso_U_11
_atom_site_aniso_U_22
_atom_site_aniso_U_33
_atom_site_aniso_U_23
_atom_site_aniso_U_13
_atom_site_aniso_U_12
Eu5 0.01509 0.02181 0.00733 -0.00032 0.00032 0.00932
O9 0.0238 0.0253 0.0118 -0.0038 0.0003 0.0117
O10 0.0233 0.0239 0.0133 -0.0048 -0.0001 0.0113
N5 0.037 0.058 0.025 -0.028 -0.014 0.03
C22 0.027 0.0219 0.0098 -0.0041 -0.002 0.0126
C23 0.028 0.033 0.019 -0.0126 -0.0089 0.0201
C24 0.031 0.045 0.019 -0.018 -0.0085 0.024
C25 0.033 0.067 0.034 -0.04 -0.024 0.036
C26 0.032 0.075 0.048 -0.049 -0.024 0.035
C27 0.03 0.056 0.035 -0.032 -0.016 0.028
Eu8 0.01509 0.02181 0.00733 -0.00032 0.00032 0.00932
O3 0.0244 0.06 0.0137 0.0063 0.0034 0.0243
O1 0.0231 0.0263 0.0162 0.0067 0.0019 0.0104
O2 0.0257 0.0289 0.0136 0.0056 0.0034 0.0105
O4 0.0232 0.071 0.0132 0.0101 0.0053 0.0211
N1 0.034 0.058 0.0184 0.0157 0.0094 0.029
N2 0.0246 0.035 0.0122 0.0048 0.0039 0.0156
C1 0.021 0.0209 0.0109 0.0021 -0.0003 0.0069
C2 0.024 0.0248 0.0117 0.0033 0.0013 0.0113
C3 0.031 0.048 0.016 0.0107 0.0051 0.025
C4 0.025 0.03 0.0106 0.0043 0.002 0.0156
C5 0.023 0.054 0.017 0.013 0.003 0.016
C6 0.024 0.052 0.017 0.011 0.004 0.013
C7 0.023 0.028 0.0117 0.0043 0.0023 0.0132
C8 0.025 0.056 0.0143 0.012 0.0036 0.024
C9 0.026 0.05 0.0133 0.0092 0.0059 0.022
C10 0.022 0.0256 0.0104 0.0032 0.0025 0.013
C11 0.021 0.034 0.0125 0.0042 0.0029 0.0156
C12 0.0204 0.0231 0.0085 0.0015 0.0035 0.0106
O5 0.0238 0.0253 0.0118 -0.0038 0.0003 0.0117
O6 0.0233 0.0239 0.0133 -0.0048 -0.0001 0.0113
N3 0.037 0.058 0.025 -0.028 -0.014 0.03
C13 0.027 0.0219 0.0098 -0.0041 -0.002 0.0126
C14 0.028 0.033 0.019 -0.0126 -0.0089 0.0201
C15 0.031 0.045 0.019 -0.018 -0.0085 0.024
C16 0.033 0.067 0.034 -0.04 -0.024 0.036
C17 0.032 0.075 0.048 -0.049 -0.024 0.035
C18 0.03 0.056 0.035 -0.032 -0.016 0.028
O7 0.039 0.043 0.0235 0.007 0.01 0.0268
C19 0.06 0.064 0.063 0.012 0.012 0.018
N4 0.095 0.047 0.078 0.019 0.01 0.022
C21 0.114 0.074 0.107 0.042 0.012 0.024
O16 0.024 0.052 0.034 0.0145 0.0002 0.0007
C41 0.145 0.071 0.11 0.009 0.069 0.034
O18 0.0244 0.06 0.0137 0.0063 0.0034 0.0243
O20 0.0232 0.071 0.0132 0.0101 0.0053 0.0211
O8 0.024 0.052 0.034 0.0145 0.0002 0.0007
C20 0.145 0.071 0.11 0.009 0.069 0.034
O11 0.0231 0.0263 0.0162 0.0067 0.0019 0.0104
O12 0.0257 0.0289 0.0136 0.0056 0.0034 0.0105
N6 0.034 0.058 0.0184 0.0157 0.0094 0.029
N7 0.0246 0.035 0.0122 0.0048 0.0039 0.0156
C28 0.021 0.0209 0.0109 0.0021 -0.0003 0.0069
C29 0.024 0.0248 0.0117 0.0033 0.0013 0.0113
C30 0.031 0.048 0.016 0.0107 0.0051 0.025
C31 0.025 0.03 0.0106 0.0043 0.002 0.0156
C32 0.023 0.054 0.017 0.013 0.003 0.016
C33 0.024 0.052 0.017 0.011 0.004 0.013
C34 0.023 0.028 0.0117 0.0043 0.0023 0.0132
C35 0.025 0.056 0.0143 0.012 0.0036 0.024
C36 0.026 0.05 0.0133 0.0092 0.0059 0.022
C37 0.022 0.0256 0.0104 0.0032 0.0025 0.013
C38 0.021 0.034 0.0125 0.0042 0.0029 0.0156
C39 0.0204 0.0231 0.0085 0.0015 0.0035 0.0106
O15 0.039 0.043 0.0235 0.007 0.01 0.0268
C40 0.06 0.064 0.063 0.012 0.012 0.018
N8 0.095 0.047 0.078 0.019 0.01 0.022
C42 0.114 0.074 0.107 0.042 0.012 0.024
loop_
_geom_bond_atom_site_label_1
_geom_bond_atom_site_label_2
_geom_bond_site_symmetry_1
_geom_bond_site_symmetry_2
O9 C22 1_555 1_555
O10 C22 1_555 1_555
N5 C24 1_555 1_555
C22 C23 1_555 1_555
C23 C24 1_555 1_555
C24 H19 1_555 1_555
C26 C25 1_555 1_555
C27 C23 1_555 1_555
H21 C27 1_555 1_555
Eu8 O9 1_555 1_555
N5 C25 1_555 1_555
C26 C27 1_555 1_555
Eu5 O1 1_555 1_555
O1 C1 1_555 1_555
O2 C1 1_555 1_555
O4 C12 1_555 1_555
N1 C3 1_555 1_555
N2 C7 1_555 1_555
C1 C2 1_555 1_555
C2 C3 1_555 1_555
C3 H1 1_555 1_555
C4 N1 1_555 1_555
C5 C4 1_555 1_555
H2 C5 1_555 1_555
C6 C2 1_555 1_555
H3 C6 1_555 1_555
C7 C4 1_555 1_555
C8 C7 1_555 1_555
H4 C8 1_555 1_555
C9 C8 1_555 1_555
H5 C9 1_555 1_555
C10 C9 1_555 1_555
C11 N2 1_555 1_555
C12 C10 1_555 1_555
O5 Eu5 1_555 1_555
O6 C13 1_555 1_555
N3 C15 1_555 1_555
C13 O5 1_555 1_555
C14 C13 1_555 1_555
C15 C14 1_555 1_555
H7 C15 1_555 1_555
C16 N3 1_555 1_555
C17 C16 1_555 1_555
C18 C14 1_555 1_555
H9 C18 1_555 1_555
O7 Eu5 1_555 1_555
H11 O7 1_555 1_555
H12 C19 1_555 1_555
N4 C19 1_555 1_555
C21 N4 1_555 1_555
H16 C21 1_555 1_555
H17 C21 1_555 1_555
H18 C21 1_555 1_555
H31 C41 1_555 1_555
H32 C41 1_555 1_555
H33 C41 1_555 1_555
Eu8 O4 1_555 1_555
O20 Eu5 1_555 1_555
C5 C6 1_555 1_555
C10 C11 1_555 1_555
C17 C18 1_555 1_555
H13 C20 1_555 1_555
H14 C20 1_555 1_555
H15 C20 1_555 1_555
O11 Eu8 1_555 1_555
O20 C39 1_555 1_555
N6 C30 1_555 1_555
N7 C34 1_555 1_555
C28 O11 1_555 1_555
C29 C28 1_555 1_555
C30 C29 1_555 1_555
H22 C30 1_555 1_555
C31 N6 1_555 1_555
C32 C31 1_555 1_555
H23 C32 1_555 1_555
C33 C29 1_555 1_555
H24 C33 1_555 1_555
C34 C31 1_555 1_555
C35 C34 1_555 1_555
H25 C35 1_555 1_555
C36 C35 1_555 1_555
H26 C36 1_555 1_555
C37 C36 1_555 1_555
C38 N7 1_555 1_555
C39 C37 1_555 1_555
O15 Eu8 1_555 1_555
H29 O15 1_555 1_555
H30 C40 1_555 1_555
N8 C40 1_555 1_555
C42 N8 1_555 1_555
H34 C42 1_555 1_555
H35 C42 1_555 1_555
H36 C42 1_555 1_555
O12 C28 1_555 1_555
C32 C33 1_555 1_555
C37 C38 1_555 1_555

#END
