
###############################################################################
#
# This file contains modified crystal structure data generated from the
# MOF subset of the Cambridge Structural Database (CSD) v543 
# hosted by the Cambridge Crystallographic Data Centre (CCDC).
#
# This work is licensed under the Creative Commons
# Attribution-NonCommercial-ShareAlike 4.0 International License.
# To view a copy of this license, visit
# http://creativecommons.org/licenses/by-nc-sa/4.0/
# or send a letter to
# Creative Commons, PO Box 1866, Mountain View, CA 94042, USA.
#
# CIF created using the CSD Python API on 29 September 2022
# The structure has been converted into the P1 space group
# The structure has a 3D framework
# The original CSD entry WEMDOJ is in the monoclinic crystal system
# The framework has been calculated to contain at least 10.0% void space
# The void calculation uses a probe of radius 1.32A, grid spacing 0.4
#
###############################################################################

data_WEMDOJ
_chemical_formula_moiety         '(C16 H12 O36 Sm4)n'
_symmetry_cell_setting           triclinic
_symmetry_space_group_name_H-M   'P 1'
_symmetry_Int_Tables_number      1
_space_group_name_Hall           'P 1'
loop_
_symmetry_equiv_pos_site_id
_symmetry_equiv_pos_as_xyz
1 x,y,z
_cell_length_a                   9.6885(19)
_cell_length_b                   11.817(2)
_cell_length_c                   12.326(3)
_cell_angle_alpha                90
_cell_angle_beta                 99.26(3)
_cell_angle_gamma                90
_cell_volume                     1392.8
loop_
_atom_site_label
_atom_site_type_symbol
_atom_site_fract_x
_atom_site_fract_y
_atom_site_fract_z
O21 O 0.0336(3) 0.5151(2) 0.6424(2)
H6 H 0.0223 0.4786 0.8441
Sm1 Sm 0.213616(16) 0.483554(12) 0.330483(13)
O1 O 0.4170(3) 0.3818(2) 0.4342(2)
O2 O 0.6011(3) 0.3921(2) 0.5678(2)
O3 O 0.1334(2) 0.67969(19) 0.3270(2)
O4 O 0.1930(3) 0.85770(19) 0.2950(2)
O5 O 0.3600(3) 0.7834(2) 0.1562(2)
O6 O 0.3138(3) 0.6045(2) 0.1989(2)
O9 O 0.0450(3) 0.4761(2) 0.1527(2)
H1 H 0.0869 0.4950 0.1000
H2 H 0.0135 0.4092 0.1423
C1 C 0.5050(3) 0.4348(3) 0.5008(3)
C2 C 0.2001(3) 0.7531(3) 0.2826(3)
C3 C 0.3003(3) 0.7095(3) 0.2052(3)
Sm3 Sm 0.286384(16) 0.983554(12) 0.169517(13)
Sm4 Sm 0.786384(16) 0.516446(12) 0.669517(13)
O10 O 0.5830(3) 0.6182(2) 0.5658(2)
O11 O 0.3989(3) 0.6079(2) 0.4322(2)
O12 O 0.8666(2) 0.32031(19) 0.6730(2)
O13 O 0.3666(2) 0.17969(19) 0.1730(2)
O14 O 0.3070(3) 0.35770(19) 0.2050(2)
O15 O 0.6930(3) 0.64230(19) 0.7950(2)
O16 O 0.1400(3) 0.2834(2) 0.3438(2)
O17 O 0.8600(3) 0.7166(2) 0.6562(2)
O18 O 0.6862(3) 0.3955(2) 0.8011(2)
O19 O 0.1862(3) 0.1045(2) 0.3011(2)
O22 O 0.1814(3) 0.4875(2) 0.5225(2)
O23 O 0.8186(3) 0.5125(2) 0.4775(2)
O24 O 0.9550(3) 0.5239(2) 0.8473(2)
H4 H 0.9131 0.5050 0.9000
H5 H 0.9865 0.5908 0.8577
C5 C 0.4950(3) 0.5652(3) 0.4992(3)
C6 C 0.2999(3) 0.2531(3) 0.2174(3)
C7 C 0.1997(3) 0.2095(3) 0.2948(3)
C8 C 0.0632(3) 0.5009(3) 0.5476(3)
O7 O 0.9664(3) 0.4849(2) 0.3576(2)
H3 H 0.9777 0.5214 0.1559
C4 C 0.9368(3) 0.4991(3) 0.4524(3)
O8 O 0.6814(3) 0.0125(2) 0.0225(2)
H3_2 H 0.5223 0.0214 0.3441
O11_2 O 0.1011(3) 0.1079(2) 0.0678(2)
C5_2 C 0.0050(3) 0.0652(3) 0.0008(3)
Sm2 Sm 0.713616(16) 0.016446(12) 0.830483(13)
O20 O 0.4664(3) 0.0151(2) 0.8576(2)
C8_2 C 0.4368(3) 0.0009(3) 0.9524(3)
O1_2 O 0.0830(3) 0.8818(2) 0.0658(2)
O7_2 O 0.5336(3) 0.9849(2) 0.1424(2)
O9_2 O 0.4550(3) 0.9761(2) 0.3473(2)
H1_2 H 0.4131 0.9950 0.4000
H2_2 H 0.4865 0.9092 0.3577
C4_2 C 0.5632(3) 0.9991(3) 0.0476(3)
O22_2 O 0.3186(3) 0.9875(2) 0.9775(2)
O10_2 O 0.9170(3) 0.1182(2) 0.9342(2)
O15_2 O 0.8070(3) 0.14230(19) 0.7050(2)
O17_2 O 0.6400(3) 0.2166(2) 0.8438(2)
O24_2 O 0.5450(3) 0.0239(2) 0.6527(2)
H4_2 H 0.5869 0.0050 0.6000
H5_2 H 0.5135 0.0908 0.6423
O2_2 O 0.8989(3) 0.8921(2) 0.9322(2)
C1_2 C 0.9950(3) 0.9348(3) 0.9992(3)
O12_2 O 0.6334(2) 0.82031(19) 0.8270(2)
O18_2 O 0.8138(3) 0.8955(2) 0.6989(2)
H6_2 H 0.4777 0.9786 0.6559
C2_2 C 0.7999(3) 0.2469(3) 0.7174(3)
C3_2 C 0.6997(3) 0.2905(3) 0.7948(3)
C6_2 C 0.7001(3) 0.7469(3) 0.7826(3)
C7_2 C 0.8003(3) 0.7905(3) 0.7052(3)
loop_
_geom_bond_atom_site_label_1
_geom_bond_atom_site_label_2
_geom_bond_site_symmetry_1
_geom_bond_site_symmetry_2
Sm1 O1 1_555 1_555
O1 C1 1_555 1_555
O2 C1 1_555 1_555
O3 Sm1 1_555 1_555
O4 C2 1_555 1_555
O5 C3 1_555 1_555
O6 Sm1 1_555 1_555
O9 Sm1 1_555 1_555
H1 O9 1_555 1_555
H2 O9 1_555 1_555
C1 C5 1_555 1_555
C2 O3 1_555 1_555
C3 O6 1_555 1_555
Sm3 O4 1_555 1_555
Sm4 O2 1_555 1_555
O10 Sm4 1_555 1_555
O11 Sm1 1_555 1_555
O12 Sm4 1_555 1_555
O13 C6 1_555 1_555
O14 Sm1 1_555 1_555
O15 Sm4 1_555 1_555
O16 Sm1 1_555 1_555
O17 Sm4 1_555 1_555
O18 Sm4 1_555 1_555
O22 Sm1 1_555 1_555
O23 Sm4 1_555 1_555
O24 Sm4 1_555 1_555
H4 O24 1_555 1_555
H5 O24 1_555 1_555
C5 O10 1_555 1_555
C6 O14 1_555 1_555
C7 O16 1_555 1_555
O5 Sm3 1_555 1_555
C2 C3 1_555 1_555
O11 C5 1_555 1_555
O19 C7 1_555 1_555
O21 C8 1_555 1_555
O22 C8 1_555 1_555
C6 C7 1_555 1_555
O23 C4 1_555 1_555
C4 O7 1_555 1_555
O11_2 C5_2 1_555 1_555
O20 Sm2 1_555 1_555
O20 C8_2 1_555 1_555
Sm3 O1_2 1_555 1_555
O7_2 Sm3 1_555 1_555
O9_2 Sm3 1_555 1_555
H1_2 O9_2 1_555 1_555
H2_2 O9_2 1_555 1_555
C4_2 O7_2 1_555 1_555
O10_2 Sm2 1_555 1_555
O15_2 Sm2 1_555 1_555
O17_2 Sm2 1_555 1_555
O24_2 Sm2 1_555 1_555
H4_2 O24_2 1_555 1_555
H5_2 O24_2 1_555 1_555
O2_2 C1_2 1_555 1_555
O15_2 C2_2 1_555 1_555
O17_2 C3_2 1_555 1_555
C2_2 O12 1_555 1_555
C3_2 O18 1_555 1_555
O12_2 C6_2 1_555 1_555
C6_2 O15 1_555 1_555
C7_2 O17 1_555 1_555
C2_2 C3_2 1_555 1_555
O18_2 C7_2 1_555 1_555
C6_2 C7_2 1_555 1_555

#END
