
###############################################################################
#
# This file contains modified crystal structure data generated from the
# MOF subset of the Cambridge Structural Database (CSD) v543 
# hosted by the Cambridge Crystallographic Data Centre (CCDC).
#
# This work is licensed under the Creative Commons
# Attribution-NonCommercial-ShareAlike 4.0 International License.
# To view a copy of this license, visit
# http://creativecommons.org/licenses/by-nc-sa/4.0/
# or send a letter to
# Creative Commons, PO Box 1866, Mountain View, CA 94042, USA.
#
# CIF created using the CSD Python API on 29 September 2022
# The structure has been converted into the P1 space group
# The structure has a 3D framework
# The original CSD entry WENKIL is in the triclinic crystal system
# The framework has been calculated to contain at least 10.0% void space
# The void calculation uses a probe of radius 1.32A, grid spacing 0.4
#
###############################################################################

data_WENKIL
_chemical_formula_moiety         '(C90 H72 Eu4 O54 S6)n'
_symmetry_cell_setting           triclinic
_symmetry_space_group_name_H-M   'P 1'
_symmetry_Int_Tables_number      1
_space_group_name_Hall           'P 1'
loop_
_symmetry_equiv_pos_site_id
_symmetry_equiv_pos_as_xyz
1 x,y,z
_cell_length_a                   9.2706(19)
_cell_length_b                   15.663(3)
_cell_length_c                   22.310(4)
_cell_angle_alpha                102.25(3)
_cell_angle_beta                 101.47(3)
_cell_angle_gamma                104.51(3)
_cell_volume                     2954.06
loop_
_atom_site_label
_atom_site_type_symbol
_atom_site_fract_x
_atom_site_fract_y
_atom_site_fract_z
C3 C 0.0728(8) 0.1485(5) 0.3624(3)
H1 H 0.1311 0.1650 0.3349
C4 C 0.1457(8) 0.1490(6) 0.4212(3)
H2 H 0.2531 0.1651 0.4332
C5 C 0.0640(8) 0.1259(6) 0.4639(3)
C8 C 0.2906(10) 0.1503(7) 0.5470(4)
H4 H 0.3318 0.2137 0.5486
H5 H 0.3319 0.1136 0.5190
H6 H 0.3185 0.1427 0.5889
H7 H 0.0160 0.1505 0.6297
H8 H 0.0290 0.0953 0.7186
H12 H 0.0578 0.4811 0.0741
O3 O 0.1239(6) 0.1217(4) 0.5236(2)
O11 O 0.0867(6) 0.6514(4) 0.0829(3)
O28 O 0.0598(5) 0.0010(3) 0.2107(2)
O30 O 0.1206(5) 0.1460(4) 0.0759(2)
O34 O 0.2142(5) 0.1948(3) 0.2104(2)
Eu7 Eu 0.02951(3) 0.91201(2) 0.856585(15)
O21 O 0.0006(6) 0.9504(4) 0.0771(2)
H34 H 0.0521 0.9300 0.1053
Eu1 Eu 0.48562(4) 0.13966(2) 0.197869(16)
Eu2 Eu 0.97049(3) 0.08799(2) 0.143415(15)
C1 C 0.8303(7) 0.1236(5) 0.2771(3)
C2 C 0.9096(7) 0.1237(5) 0.3415(3)
C6 C 0.9065(8) 0.1020(5) 0.4441(3)
C7 C 0.8263(8) 0.1010(5) 0.3844(3)
H3 H 0.7190 0.0854 0.3732
C9 C 0.7852(8) 0.1072(6) 0.5988(3)
C10 C 0.9260(8) 0.1195(6) 0.6380(4)
C11 C 0.9335(8) 0.0849(6) 0.6907(3)
C12 C 0.8007(7) 0.0354(5) 0.7020(3)
C13 C 0.6602(8) 0.0211(6) 0.6609(3)
C14 C 0.6529(8) 0.0573(6) 0.6084(4)
H10 H 0.5579 0.0473 0.5801
C16 C 0.7935(7) 0.2578(5) 0.1453(3)
C17 C 0.8256(7) 0.3511(5) 0.1323(3)
C18 C 0.9414(8) 0.3781(5) 0.1038(3)
H11 H 0.9956 0.3379 0.0915
C19 C 0.9787(8) 0.4632(5) 0.0930(3)
C20 C 0.8959(8) 0.5214(5) 0.1110(3)
C21 C 0.7796(9) 0.4956(6) 0.1400(4)
H13 H 0.7267 0.5362 0.1530
C22 C 0.7423(8) 0.4090(6) 0.1496(4)
H14 H 0.6616 0.3903 0.1675
C23 C 0.7283(8) 0.6672(5) 0.0194(3)
C27 C 0.5000(8) 0.7113(6) 0.0155(3)
H17 H 0.4058 0.7065 0.0252
C28 C 0.5879(9) 0.6567(6) 0.0347(4)
C30 C 0.3949(11) 0.5761(8) 0.0764(4)
H18 H 0.3176 0.5548 0.0363
H19 H 0.3860 0.6317 0.1011
H20 H 0.3805 0.5303 0.0990
O1 O 0.9105(5) 0.1390(4) 0.2386(2)
O2 O 0.6879(5) 0.1105(4) 0.2645(2)
O4 O 0.8176(6) 0.0747(4) 0.4861(2)
O5 O 0.8907(7) 0.2363(4) 0.5475(3)
O6 O 0.6166(7) 0.1435(5) 0.5053(3)
O9 O 0.8701(5) 0.2075(3) 0.1268(2)
O10 O 0.6917(5) 0.2372(4) 0.1749(2)
O12 O 0.9136(6) 0.6964(4) 0.1443(2)
O13 O 0.8084(7) 0.6052(4) 0.0317(2)
O20 O 0.5583(7) 0.2402(5) 0.3097(2)
H31 H 0.4849 0.2625 0.3016
H32 H 0.5252 0.1838 0.3074
O23 O 0.8168(6) 0.0533(4) 0.0277(2)
H35 H 0.7482 0.0769 0.0396
O24 O 0.5458(7) 0.5934(4) 0.0653(3)
S1 S 0.7741(3) 0.15116(18) 0.53249(10)
S2 S 0.9400(2) 0.63065(15) 0.09743(10)
O29 O 0.3157(5) 0.0365(4) 0.2293(2)
O31 O 0.3411(5) 0.1147(3) 0.0942(2)
O32 O 0.4281(5) 0.2831(4) 0.1988(2)
C24 C 0.7780(8) 0.7278(5) 0.9875(3)
H15 H 0.8731 0.7334 0.9785
C25 C 0.6914(7) 0.7822(5) 0.9678(3)
C26 C 0.5515(7) 0.7728(5) 0.9819(3)
H16 H 0.4906 0.8080 0.9689
C29 C 0.7486(7) 0.8456(5) 0.9304(3)
O16 O 0.8794(5) 0.8540(4) 0.9241(2)
O17 O 0.6589(5) 0.8853(3) 0.9058(2)
Eu4 Eu 0.51438(4) 0.86034(2) 0.802131(16)
H9 H 0.5700 0.9874 0.6677
C15 C 0.8100(8) 0.9950(5) 0.7581(3)
C31 C 0.2990(8) 0.2729(5) 0.2117(3)
C32 C 0.2493(7) 0.3569(5) 0.2292(3)
C33 C 0.3282(7) 0.4367(5) 0.2174(3)
H21 H 0.4088 0.4374 0.1983
C34 C 0.2866(7) 0.5142(5) 0.2341(3)
C35 C 0.1676(8) 0.5164(5) 0.2627(4)
C36 C 0.0889(8) 0.4366(5) 0.2744(4)
H22 H 0.0080 0.4362 0.2933
C37 C 0.1296(7) 0.3587(5) 0.2583(3)
H23 H 0.0767 0.3058 0.2669
C38 C 0.0187(10) 0.6050(7) 0.3075(5)
H24 H 0.0662 0.6356 0.3518
C39 C 0.5530(8) 0.7479(5) 0.2375(3)
C40 C 0.6734(8) 0.7636(5) 0.2085(4)
H27 H 0.7407 0.7284 0.2093
C41 C 0.6899(8) 0.8326(5) 0.1788(3)
H28 H 0.7677 0.8431 0.1581
C42 C 0.5924(7) 0.8867(5) 0.1792(3)
C43 C 0.4766(8) 0.8700(5) 0.2094(4)
H29 H 0.4111 0.9063 0.2096
C44 C 0.4548(9) 0.8006(6) 0.2394(4)
H30 H 0.3770 0.7902 0.2601
C45 C 0.6111(7) 0.9617(5) 0.1462(3)
O7 O 0.9402(5) 0.9990(3) 0.7893(2)
O8 O 0.6843(5) 0.9635(4) 0.7707(2)
O14 O 0.5031(5) 0.9984(3) 0.1377(2)
O15 O 0.7300(5) 0.9824(3) 0.1278(2)
O18 O 0.6359(6) 0.6088(4) 0.2637(3)
O19 O 0.3646(5) 0.5948(3) 0.2212(2)
H33 H 0.9921 0.9258 0.0389
H36 H 0.7696 0.9969 0.0063
O26 O 0.1364(6) 0.5973(4) 0.2752(3)
O27 O 0.4991(7) 0.6805(4) 0.3319(3)
S3 S 0.5254(2) 0.65586(15) 0.27163(11)
H25 H 0.9523 0.5448 0.3030
H26 H 0.9589 0.6396 0.2893
H25_2 H 0.0477 0.4552 0.6970
H26_2 H 0.0411 0.3604 0.7107
H9_2 H 0.4300 0.0126 0.3323
C15_2 C 0.1900(8) 0.0050(5) 0.2419(3)
C31_2 C 0.7010(8) 0.7271(5) 0.7883(3)
C32_2 C 0.7507(7) 0.6431(5) 0.7708(3)
C33_2 C 0.6718(7) 0.5633(5) 0.7826(3)
H21_2 H 0.5912 0.5626 0.8017
C34_2 C 0.7134(7) 0.4858(5) 0.7659(3)
C35_2 C 0.8324(8) 0.4836(5) 0.7373(4)
C36_2 C 0.9111(8) 0.5634(5) 0.7256(4)
H22_2 H 0.9920 0.5638 0.7067
C37_2 C 0.8704(7) 0.6413(5) 0.7417(3)
H23_2 H 0.9233 0.6942 0.7331
C38_2 C 0.9813(10) 0.3950(7) 0.6925(5)
H24_2 H 0.9338 0.3644 0.6482
C39_2 C 0.4470(8) 0.2521(5) 0.7625(3)
C40_2 C 0.3266(8) 0.2364(5) 0.7915(4)
H27_2 H 0.2593 0.2716 0.7907
C41_2 C 0.3101(8) 0.1674(5) 0.8212(3)
H28_2 H 0.2323 0.1569 0.8419
C42_2 C 0.4076(7) 0.1133(5) 0.8208(3)
C43_2 C 0.5234(8) 0.1300(5) 0.7906(4)
H29_2 H 0.5889 0.0937 0.7904
C44_2 C 0.5452(9) 0.1994(6) 0.7606(4)
H30_2 H 0.6230 0.2098 0.7399
C45_2 C 0.3889(7) 0.0383(5) 0.8538(3)
O14_2 O 0.4969(5) 0.0016(3) 0.8623(2)
O15_2 O 0.2700(5) 0.0176(3) 0.8722(2)
O18_2 O 0.3641(6) 0.3912(4) 0.7363(3)
O19_2 O 0.6354(5) 0.4052(3) 0.7788(2)
H33_2 H 0.0079 0.0742 0.9611
O22 O 0.5719(5) 0.7169(4) 0.8012(2)
H36_2 H 0.2304 0.0031 0.9937
O25 O 0.7858(5) 0.8052(3) 0.7896(2)
O26_2 O 0.8636(6) 0.4027(4) 0.7248(3)
O27_2 O 0.5009(7) 0.3195(4) 0.6681(3)
S3_2 S 0.4746(2) 0.34414(15) 0.72837(11)
C24_2 C 0.2220(8) 0.2722(5) 0.0125(3)
H15_2 H 0.1269 0.2666 0.0215
C25_2 C 0.3086(7) 0.2178(5) 0.0322(3)
C26_2 C 0.4485(7) 0.2272(5) 0.0181(3)
H16_2 H 0.5094 0.1920 0.0311
C29_2 C 0.2514(7) 0.1544(5) 0.0696(3)
C1_2 C 0.1697(7) 0.8764(5) 0.7229(3)
C2_2 C 0.0904(7) 0.8763(5) 0.6585(3)
C6_2 C 0.0935(8) 0.8980(5) 0.5559(3)
C7_2 C 0.1737(8) 0.8990(5) 0.6156(3)
H3_2 H 0.2810 0.9146 0.6268
C9_2 C 0.2148(8) 0.8928(6) 0.4012(3)
C10_2 C 0.0740(8) 0.8805(6) 0.3620(4)
C11_2 C 0.0665(8) 0.9151(6) 0.3093(3)
C12_2 C 0.1993(7) 0.9646(5) 0.2980(3)
C13_2 C 0.3398(8) 0.9789(6) 0.3391(3)
C14_2 C 0.3471(8) 0.9427(6) 0.3916(4)
H10_2 H 0.4421 0.9527 0.4199
C16_2 C 0.2065(7) 0.7422(5) 0.8547(3)
C17_2 C 0.1744(7) 0.6489(5) 0.8677(3)
C18_2 C 0.0586(8) 0.6219(5) 0.8962(3)
H11_2 H 0.0044 0.6621 0.9085
C19_2 C 0.0213(8) 0.5368(5) 0.9070(3)
C20_2 C 0.1041(8) 0.4786(5) 0.8890(3)
C21_2 C 0.2204(9) 0.5044(6) 0.8600(4)
H13_2 H 0.2733 0.4638 0.8470
C22_2 C 0.2577(8) 0.5910(6) 0.8504(4)
H14_2 H 0.3384 0.6097 0.8325
C23_2 C 0.2717(8) 0.3328(5) 0.9806(3)
C27_2 C 0.5000(8) 0.2887(6) 0.9845(3)
H17_2 H 0.5942 0.2935 0.9748
C28_2 C 0.4121(9) 0.3433(6) 0.9653(4)
C30_2 C 0.6051(11) 0.4239(8) 0.9236(4)
H18_2 H 0.6824 0.4452 0.9637
H19_2 H 0.6140 0.3683 0.8989
H20_2 H 0.6195 0.4697 0.9010
O1_2 O 0.0895(5) 0.8610(4) 0.7614(2)
O2_2 O 0.3121(5) 0.8895(4) 0.7355(2)
O4_2 O 0.1824(6) 0.9253(4) 0.5139(2)
O5_2 O 0.1093(7) 0.7637(4) 0.4525(3)
O6_2 O 0.3834(7) 0.8565(5) 0.4947(3)
O9_2 O 0.1299(5) 0.7925(3) 0.8732(2)
O10_2 O 0.3083(5) 0.7628(4) 0.8251(2)
O12_2 O 0.0864(6) 0.3036(4) 0.8557(2)
O13_2 O 0.1916(7) 0.3948(4) 0.9683(2)
O20_2 O 0.4417(7) 0.7598(5) 0.6903(2)
H31_2 H 0.5151 0.7375 0.6984
H32_2 H 0.4748 0.8162 0.6926
O23_2 O 0.1832(6) 0.9467(4) 0.9723(2)
H35_2 H 0.2518 0.9231 0.9604
O24_2 O 0.4542(7) 0.4066(4) 0.9347(3)
S1_2 S 0.2259(3) 0.84884(18) 0.46751(10)
S2_2 S 0.0600(2) 0.36935(15) 0.90257(10)
O21_2 O 0.9994(6) 0.0496(4) 0.9229(2)
H34_2 H 0.9479 0.0700 0.8947
C3_2 C 0.9272(8) 0.8515(5) 0.6376(3)
H1_2 H 0.8689 0.8350 0.6651
C4_2 C 0.8543(8) 0.8510(6) 0.5788(3)
H2_2 H 0.7469 0.8349 0.5668
C5_2 C 0.9360(8) 0.8741(6) 0.5361(3)
C8_2 C 0.7094(10) 0.8497(7) 0.4530(4)
H4_2 H 0.6682 0.7863 0.4514
H5_2 H 0.6681 0.8864 0.4810
H6_2 H 0.6815 0.8573 0.4111
H7_2 H 0.9840 0.8495 0.3703
H8_2 H 0.9710 0.9047 0.2814
H12_2 H 0.9422 0.5189 0.9259
O3_2 O 0.8761(6) 0.8783(4) 0.4764(2)
O11_2 O 0.9133(6) 0.3486(4) 0.9171(3)
loop_
_geom_bond_atom_site_label_1
_geom_bond_atom_site_label_2
_geom_bond_site_symmetry_1
_geom_bond_site_symmetry_2
C3 H1 1_555 1_555
C4 C3 1_555 1_555
H2 C4 1_555 1_555
C5 C4 1_555 1_555
C8 H4 1_555 1_555
H5 C8 1_555 1_555
H6 C8 1_555 1_555
O3 C5 1_555 1_555
C8 O3 1_555 1_555
H34 O21 1_555 1_555
Eu1 O2 1_555 1_555
Eu2 O1 1_555 1_555
C1 C2 1_555 1_555
C7 C2 1_555 1_555
H3 C7 1_555 1_555
C9 C10 1_555 1_555
C11 C10 1_555 1_555
C12 C11 1_555 1_555
C13 C12 1_555 1_555
C14 C9 1_555 1_555
H10 C14 1_555 1_555
C16 C17 1_555 1_555
C17 C18 1_555 1_555
C18 H11 1_555 1_555
C19 C18 1_555 1_555
C20 C19 1_555 1_555
C21 C20 1_555 1_555
H13 C21 1_555 1_555
C22 C17 1_555 1_555
H14 C22 1_555 1_555
H17 C27 1_555 1_555
C28 C23 1_555 1_555
C30 H18 1_555 1_555
H19 C30 1_555 1_555
H20 C30 1_555 1_555
O1 C1 1_555 1_555
O2 C1 1_555 1_555
O4 C6 1_555 1_555
O5 S1 1_555 1_555
O6 S1 1_555 1_555
O9 Eu2 1_555 1_555
O10 Eu1 1_555 1_555
O12 S2 1_555 1_555
O13 C23 1_555 1_555
O20 Eu1 1_555 1_555
H31 O20 1_555 1_555
H32 O20 1_555 1_555
O23 Eu2 1_555 1_555
H35 O23 1_555 1_555
O24 C28 1_555 1_555
S1 C9 1_555 1_555
S2 C20 1_555 1_555
O29 Eu1 1_555 1_555
O31 Eu1 1_555 1_555
O32 Eu1 1_555 1_555
O34 Eu1 1_555 1_555
C6 C7 1_555 1_555
C13 C14 1_555 1_555
C16 O9 1_555 1_555
C16 O10 1_555 1_555
C21 C22 1_555 1_555
C27 C28 1_555 1_555
C30 O24 1_555 1_555
O4 S1 1_555 1_555
O13 S2 1_555 1_555
C24 H15 1_555 1_555
C25 C24 1_555 1_555
C26 C25 1_555 1_555
H16 C26 1_555 1_555
C29 C25 1_555 1_555
O16 C29 1_555 1_555
O17 C29 1_555 1_555
Eu4 O17 1_555 1_555
C31 C32 1_555 1_555
C32 C33 1_555 1_555
C33 H21 1_555 1_555
C34 C33 1_555 1_555
C35 C34 1_555 1_555
C36 C35 1_555 1_555
H22 C36 1_555 1_555
C37 C32 1_555 1_555
H23 C37 1_555 1_555
C38 H24 1_555 1_555
C39 C40 1_555 1_555
C40 H27 1_555 1_555
C41 C40 1_555 1_555
H28 C41 1_555 1_555
C42 C41 1_555 1_555
C43 C42 1_555 1_555
H29 C43 1_555 1_555
C44 C39 1_555 1_555
H30 C44 1_555 1_555
C45 C42 1_555 1_555
O7 C15 1_555 1_555
O8 C15 1_555 1_555
O18 S3 1_555 1_555
O19 C34 1_555 1_555
O32 C31 1_555 1_555
O34 C31 1_555 1_555
O26 C35 1_555 1_555
O27 S3 1_555 1_555
S3 C39 1_555 1_555
Eu4 O8 1_555 1_555
C36 C37 1_555 1_555
C38 O26 1_555 1_555
C43 C44 1_555 1_555
C45 O14 1_555 1_555
C45 O15 1_555 1_555
O19 S3 1_555 1_555
C31_2 C32_2 1_555 1_555
C32_2 C33_2 1_555 1_555
C33_2 H21_2 1_555 1_555
C34_2 C33_2 1_555 1_555
C35_2 C34_2 1_555 1_555
C36_2 C35_2 1_555 1_555
H22_2 C36_2 1_555 1_555
C37_2 C32_2 1_555 1_555
H23_2 C37_2 1_555 1_555
C38_2 H24_2 1_555 1_555
C39_2 C40_2 1_555 1_555
C40_2 H27_2 1_555 1_555
C41_2 C40_2 1_555 1_555
H28_2 C41_2 1_555 1_555
C42_2 C41_2 1_555 1_555
C43_2 C42_2 1_555 1_555
H29_2 C43_2 1_555 1_555
C44_2 C39_2 1_555 1_555
H30_2 C44_2 1_555 1_555
C45_2 C42_2 1_555 1_555
O28 C15_2 1_555 1_555
O29 C15_2 1_555 1_555
O18_2 S3_2 1_555 1_555
O19_2 C34_2 1_555 1_555
O22 C31_2 1_555 1_555
O25 C31_2 1_555 1_555
O26_2 C35_2 1_555 1_555
O27_2 S3_2 1_555 1_555
S3_2 C39_2 1_555 1_555
Eu4 O22 1_555 1_555
C36_2 C37_2 1_555 1_555
C38_2 O26_2 1_555 1_555
C43_2 C44_2 1_555 1_555
C45_2 O14_2 1_555 1_555
C45_2 O15_2 1_555 1_555
O19_2 S3_2 1_555 1_555
O25 Eu4 1_555 1_555
C24_2 H15_2 1_555 1_555
C25_2 C24_2 1_555 1_555
C26_2 C25_2 1_555 1_555
H16_2 C26_2 1_555 1_555
C29_2 C25_2 1_555 1_555
O30 C29_2 1_555 1_555
O31 C29_2 1_555 1_555
Eu4 O2_2 1_555 1_555
Eu7 O1_2 1_555 1_555
C1_2 C2_2 1_555 1_555
C7_2 C2_2 1_555 1_555
H3_2 C7_2 1_555 1_555
C9_2 C10_2 1_555 1_555
C11_2 C10_2 1_555 1_555
C12_2 C11_2 1_555 1_555
C13_2 C12_2 1_555 1_555
C14_2 C9_2 1_555 1_555
H10_2 C14_2 1_555 1_555
C16_2 C17_2 1_555 1_555
C17_2 C18_2 1_555 1_555
C18_2 H11_2 1_555 1_555
C19_2 C18_2 1_555 1_555
C20_2 C19_2 1_555 1_555
C21_2 C20_2 1_555 1_555
H13_2 C21_2 1_555 1_555
C22_2 C17_2 1_555 1_555
H14_2 C22_2 1_555 1_555
H17_2 C27_2 1_555 1_555
C28_2 C23_2 1_555 1_555
C30_2 H18_2 1_555 1_555
H19_2 C30_2 1_555 1_555
H20_2 C30_2 1_555 1_555
O1_2 C1_2 1_555 1_555
O2_2 C1_2 1_555 1_555
O4_2 C6_2 1_555 1_555
O5_2 S1_2 1_555 1_555
O6_2 S1_2 1_555 1_555
O9_2 Eu7 1_555 1_555
O10_2 Eu4 1_555 1_555
O12_2 S2_2 1_555 1_555
O13_2 C23_2 1_555 1_555
O20_2 Eu4 1_555 1_555
H31_2 O20_2 1_555 1_555
H32_2 O20_2 1_555 1_555
O23_2 Eu7 1_555 1_555
H35_2 O23_2 1_555 1_555
O24_2 C28_2 1_555 1_555
S1_2 C9_2 1_555 1_555
S2_2 C20_2 1_555 1_555
C6_2 C7_2 1_555 1_555
C13_2 C14_2 1_555 1_555
C16_2 O9_2 1_555 1_555
C16_2 O10_2 1_555 1_555
C21_2 C22_2 1_555 1_555
C27_2 C28_2 1_555 1_555
C30_2 O24_2 1_555 1_555
O4_2 S1_2 1_555 1_555
O13_2 S2_2 1_555 1_555
H34_2 O21_2 1_555 1_555
C3_2 H1_2 1_555 1_555
C4_2 C3_2 1_555 1_555
H2_2 C4_2 1_555 1_555
C5_2 C4_2 1_555 1_555
C8_2 H4_2 1_555 1_555
H5_2 C8_2 1_555 1_555
H6_2 C8_2 1_555 1_555
O3_2 C5_2 1_555 1_555
C8_2 O3_2 1_555 1_555

#END
