
###############################################################################
#
# This file contains modified crystal structure data generated from the
# MOF subset of the Cambridge Structural Database (CSD) v543 
# hosted by the Cambridge Crystallographic Data Centre (CCDC).
#
# This work is licensed under the Creative Commons
# Attribution-NonCommercial-ShareAlike 4.0 International License.
# To view a copy of this license, visit
# http://creativecommons.org/licenses/by-nc-sa/4.0/
# or send a letter to
# Creative Commons, PO Box 1866, Mountain View, CA 94042, USA.
#
# CIF created using the CSD Python API on 29 September 2022
# The structure has been converted into the P1 space group
# The structure has a 3D framework
# The original CSD entry WENKEH is in the triclinic crystal system
# The framework has been calculated to contain at least 10.0% void space
# The void calculation uses a probe of radius 1.32A, grid spacing 0.4
#
###############################################################################

data_WENKEH
_chemical_formula_moiety         '(C90 H72 O52 Pr4 S6)n'
_symmetry_cell_setting           triclinic
_symmetry_space_group_name_H-M   'P 1'
_symmetry_Int_Tables_number      1
_space_group_name_Hall           'P 1'
loop_
_symmetry_equiv_pos_site_id
_symmetry_equiv_pos_as_xyz
1 x,y,z
_cell_length_a                   9.3379(19)
_cell_length_b                   15.710(3)
_cell_length_c                   22.431(4)
_cell_angle_alpha                102.47(3)
_cell_angle_beta                 101.71(3)
_cell_angle_gamma                104.90(3)
_cell_volume                     2986.16
loop_
_atom_site_label
_atom_site_type_symbol
_atom_site_fract_x
_atom_site_fract_y
_atom_site_fract_z
C3 C 0.0687(8) 0.1478(5) 0.3609(3)
H1 H 0.1244 0.1638 0.3327
C4 C 0.1458(8) 0.1486(5) 0.4202(3)
H2 H 0.2527 0.1649 0.4315
C5 C 0.0665(9) 0.1254(6) 0.4635(3)
C8 C 0.2916(11) 0.1485(7) 0.5448(4)
H4 H 0.3354 0.2130 0.5502
H5 H 0.3295 0.1143 0.5142
H6 H 0.3203 0.1356 0.5847
H7 H 0.0226 0.1516 0.6296
H8 H 0.0393 0.0958 0.7174
H12 H 0.0464 0.4798 0.0743
O3 O 0.1276(7) 0.1227(4) 0.5230(2)
O11 O 0.0662(7) 0.6494(4) 0.0788(3)
O30 O 0.1169(6) 0.1542(4) 0.0762(2)
O34 O 0.2178(5) 0.1954(3) 0.2109(2)
Pr7 Pr 0.03597(4) 0.91253(2) 0.857510(16)
H34 H 0.0512 0.9282 0.1033
O28 O 0.0480(5) 0.9962(3) 0.2114(2)
Pr1 Pr 0.47746(4) 0.13809(3) 0.198102(17)
Pr2 Pr 0.96403(4) 0.08747(2) 0.142490(16)
C1 C 0.8262(8) 0.1246(4) 0.2781(3)
C2 C 0.9079(7) 0.1235(4) 0.3421(3)
C6 C 0.9063(9) 0.1007(5) 0.4443(3)
C7 C 0.8279(7) 0.1022(5) 0.3851(3)
H3 H 0.7214 0.0888 0.3745
C9 C 0.7920(9) 0.1057(5) 0.5981(3)
C10 C 0.9335(8) 0.1196(6) 0.6378(3)
C11 C 0.9434(8) 0.0859(5) 0.6902(3)
C12 C 0.8118(7) 0.0380(5) 0.7019(3)
C13 C 0.6718(8) 0.0249(5) 0.6619(3)
C14 C 0.6564(9) 0.0572(6) 0.6083(3)
H10 H 0.5605 0.0467 0.5808
C15 C 0.8250(7) 0.0012(4) 0.7584(3)
C16 C 0.7872(7) 0.2586(5) 0.1457(3)
C17 C 0.8189(7) 0.3501(5) 0.1323(3)
C18 C 0.9350(8) 0.3776(5) 0.1040(3)
H11 H 0.9907 0.3385 0.0924
C19 C 0.9682(8) 0.4618(5) 0.0932(3)
C20 C 0.8858(8) 0.5208(5) 0.1102(3)
C21 C 0.7708(9) 0.4941(5) 0.1388(4)
H13 H 0.7163 0.5336 0.1510
C22 C 0.7369(8) 0.4088(5) 0.1493(3)
H14 H 0.6582 0.3906 0.1679
C23 C 0.7152(9) 0.6628(5) 0.0179(3)
C27 C 0.4962(8) 0.7146(6) 0.0157(3)
H17 H 0.4041 0.7128 0.0260
C28 C 0.5772(9) 0.6576(5) 0.0337(3)
C30 C 0.3800(10) 0.5841(7) 0.0775(4)
H18 H 0.3021 0.5717 0.0387
H19 H 0.3831 0.6394 0.1069
H20 H 0.3563 0.5338 0.0956
O1 O 0.9049(5) 0.1403(3) 0.2392(2)
O2 O 0.6824(5) 0.1091(3) 0.2659(2)
O4 O 0.8227(6) 0.0747(4) 0.4863(2)
O5 O 0.8937(7) 0.2369(4) 0.5473(2)
O6 O 0.6208(7) 0.1417(5) 0.5051(3)
O7 O 0.9520(5) 0.0038(3) 0.7886(2)
O9 O 0.8595(5) 0.2081(3) 0.1258(2)
O10 O 0.6903(5) 0.2397(3) 0.1765(2)
O12 O 0.9030(6) 0.6949(3) 0.1427(2)
O13 O 0.7891(7) 0.6000(4) 0.0321(2)
O20 O 0.5543(7) 0.2406(4) 0.3118(2)
H31 H 0.4809 0.2628 0.3037
H32 H 0.5211 0.1841 0.3095
O23 O 0.8111(6) 0.0539(4) 0.0241(2)
H35 H 0.7425 0.0776 0.0360
O24 O 0.5293(7) 0.5954(4) 0.0645(2)
S1 S 0.7776(3) 0.15039(18) 0.53208(9)
S2 S 0.9258(2) 0.62779(14) 0.09536(10)
O29 O 0.2997(5) 0.0310(3) 0.2279(2)
O31 O 0.3311(5) 0.1150(3) 0.0924(2)
O32 O 0.4270(5) 0.2867(3) 0.1996(2)
C24 C 0.7725(8) 0.7220(5) 0.9861(3)
H15 H 0.8660 0.7247 0.9769
C25 C 0.6907(7) 0.7780(5) 0.9676(3)
C26 C 0.5521(7) 0.7740(5) 0.9826(3)
H16 H 0.4967 0.8116 0.9701
C29 C 0.7525(9) 0.8402(5) 0.9304(3)
O16 O 0.8831(6) 0.8458(4) 0.9238(2)
O17 O 0.6689(5) 0.8850(3) 0.9076(2)
Pr4 Pr 0.52254(4) 0.86191(3) 0.801898(17)
H9 H 0.5832 0.9934 0.6707
C31 C 0.2986(8) 0.2752(5) 0.2117(3)
C32 C 0.2453(7) 0.3572(5) 0.2281(3)
C33 C 0.3244(7) 0.4378(5) 0.2175(3)
H21 H 0.4053 0.4396 0.1989
C34 C 0.2815(8) 0.5145(5) 0.2347(3)
C35 C 0.1636(8) 0.5150(5) 0.2625(3)
C36 C 0.0867(8) 0.4350(5) 0.2742(3)
H22 H 0.0082 0.4344 0.2939
C37 C 0.1258(8) 0.3568(5) 0.2566(3)
H23 H 0.0722 0.3030 0.2639
C38 C 0.0169(10) 0.6036(6) 0.3071(4)
H24 H 0.0394 0.5875 0.3461
H26 H 0.0150 0.6658 0.3161
C39 C 0.5522(8) 0.7478(5) 0.2387(3)
C40 C 0.6677(8) 0.7634(5) 0.2089(3)
H27 H 0.7342 0.7284 0.2094
C41 C 0.6840(7) 0.8304(5) 0.1787(3)
H28 H 0.7606 0.8405 0.1578
C42 C 0.5853(7) 0.8838(4) 0.1792(3)
C43 C 0.4713(8) 0.8684(5) 0.2109(4)
H29 H 0.4057 0.9041 0.2118
C44 C 0.4565(9) 0.8005(6) 0.2408(4)
H30 H 0.3815 0.7903 0.2624
C45 C 0.5987(7) 0.9590(5) 0.1449(3)
O8 O 0.7003(5) 0.9690(3) 0.7721(2)
O14 O 0.4925(5) 0.9926(3) 0.1364(2)
O15 O 0.7177(5) 0.9801(3) 0.1263(2)
O18 O 0.6332(6) 0.6107(4) 0.2645(3)
O19 O 0.3613(5) 0.5951(3) 0.2222(2)
O21 O 0.9997(6) 0.9485(3) 0.0751(2)
H33 H 0.9912 0.9239 0.0369
H36 H 0.7639 0.9976 0.0027
O26 O 0.1319(6) 0.5952(4) 0.2758(3)
O27 O 0.4959(7) 0.6823(4) 0.3322(3)
S3 S 0.5215(2) 0.65627(14) 0.27183(10)
H25 H 0.9183 0.5632 0.2804
H25_2 H 0.0817 0.4368 0.7196
H9_2 H 0.4168 0.0066 0.3293
C31_2 C 0.7014(8) 0.7248(5) 0.7883(3)
C32_2 C 0.7547(7) 0.6428(5) 0.7719(3)
C33_2 C 0.6756(7) 0.5622(5) 0.7825(3)
H21_2 H 0.5947 0.5604 0.8011
C34_2 C 0.7185(8) 0.4855(5) 0.7653(3)
C35_2 C 0.8364(8) 0.4850(5) 0.7375(3)
C36_2 C 0.9133(8) 0.5650(5) 0.7258(3)
H22_2 H 0.9918 0.5656 0.7061
C37_2 C 0.8742(8) 0.6432(5) 0.7434(3)
H23_2 H 0.9278 0.6970 0.7361
C38_2 C 0.9831(10) 0.3964(6) 0.6929(4)
H24_2 H 0.9606 0.4125 0.6539
H26_2 H 0.9850 0.3342 0.6839
C39_2 C 0.4478(8) 0.2522(5) 0.7613(3)
C40_2 C 0.3323(8) 0.2366(5) 0.7911(3)
H27_2 H 0.2658 0.2716 0.7906
C41_2 C 0.3160(7) 0.1696(5) 0.8213(3)
H28_2 H 0.2394 0.1595 0.8422
C42_2 C 0.4147(7) 0.1162(4) 0.8208(3)
C43_2 C 0.5287(8) 0.1316(5) 0.7891(4)
H29_2 H 0.5943 0.0959 0.7882
C44_2 C 0.5435(9) 0.1995(6) 0.7592(4)
H30_2 H 0.6185 0.2097 0.7376
C45_2 C 0.4013(7) 0.0410(5) 0.8551(3)
O14_2 O 0.5075(5) 0.0074(3) 0.8636(2)
O15_2 O 0.2823(5) 0.0199(3) 0.8737(2)
O18_2 O 0.3668(6) 0.3893(4) 0.7355(3)
O19_2 O 0.6387(5) 0.4049(3) 0.7778(2)
O21_2 O 0.0003(6) 0.0515(3) 0.9249(2)
H33_2 H 0.0088 0.0761 0.9631
O22 O 0.5730(5) 0.7133(3) 0.8004(2)
H36_2 H 0.2361 0.0024 0.9973
O25 O 0.7822(5) 0.8046(3) 0.7891(2)
O26_2 O 0.8681(6) 0.4048(4) 0.7242(3)
O27_2 O 0.5041(7) 0.3177(4) 0.6678(3)
S3_2 S 0.4785(2) 0.34373(14) 0.72817(10)
C24_2 C 0.2275(8) 0.2780(5) 0.0139(3)
H15_2 H 0.1340 0.2753 0.0231
C25_2 C 0.3093(7) 0.2220(5) 0.0324(3)
C26_2 C 0.4479(7) 0.2260(5) 0.0174(3)
H16_2 H 0.5033 0.1884 0.0299
C29_2 C 0.2475(9) 0.1598(5) 0.0696(3)
C1_2 C 0.1738(8) 0.8754(4) 0.7219(3)
C2_2 C 0.0921(7) 0.8765(4) 0.6579(3)
C6_2 C 0.0937(9) 0.8993(5) 0.5557(3)
C7_2 C 0.1721(7) 0.8978(5) 0.6149(3)
H3_2 H 0.2786 0.9112 0.6255
C9_2 C 0.2080(9) 0.8943(5) 0.4019(3)
C10_2 C 0.0665(8) 0.8804(6) 0.3622(3)
C11_2 C 0.0566(8) 0.9141(5) 0.3098(3)
C12_2 C 0.1882(7) 0.9620(5) 0.2981(3)
C13_2 C 0.3282(8) 0.9751(5) 0.3381(3)
C14_2 C 0.3436(9) 0.9428(6) 0.3917(3)
H10_2 H 0.4395 0.9533 0.4192
C15_2 C 0.1750(7) 0.9988(4) 0.2416(3)
C16_2 C 0.2128(7) 0.7414(5) 0.8543(3)
C17_2 C 0.1811(7) 0.6499(5) 0.8677(3)
C18_2 C 0.0650(8) 0.6224(5) 0.8960(3)
H11_2 H 0.0093 0.6615 0.9076
C19_2 C 0.0318(8) 0.5382(5) 0.9068(3)
C20_2 C 0.1142(8) 0.4792(5) 0.8898(3)
C21_2 C 0.2292(9) 0.5059(5) 0.8612(4)
H13_2 H 0.2837 0.4664 0.8490
C22_2 C 0.2631(8) 0.5912(5) 0.8507(3)
H14_2 H 0.3418 0.6094 0.8321
C23_2 C 0.2848(9) 0.3372(5) 0.9821(3)
C27_2 C 0.5038(8) 0.2854(6) 0.9843(3)
H17_2 H 0.5959 0.2872 0.9740
C28_2 C 0.4228(9) 0.3424(5) 0.9663(3)
C30_2 C 0.6200(10) 0.4159(7) 0.9225(4)
H18_2 H 0.6979 0.4283 0.9613
H19_2 H 0.6169 0.3606 0.8931
H20_2 H 0.6437 0.4662 0.9044
O1_2 O 0.0951(5) 0.8597(3) 0.7608(2)
O2_2 O 0.3176(5) 0.8909(3) 0.7341(2)
O4_2 O 0.1773(6) 0.9253(4) 0.5137(2)
O5_2 O 0.1063(7) 0.7631(4) 0.4527(2)
O6_2 O 0.3792(7) 0.8583(5) 0.4949(3)
O9_2 O 0.1405(5) 0.7919(3) 0.8742(2)
O10_2 O 0.3097(5) 0.7603(3) 0.8235(2)
O12_2 O 0.0970(6) 0.3051(3) 0.8573(2)
O13_2 O 0.2109(7) 0.4000(4) 0.9679(2)
O20_2 O 0.4457(7) 0.7594(4) 0.6882(2)
H31_2 H 0.5191 0.7372 0.6963
H32_2 H 0.4789 0.8159 0.6905
O23_2 O 0.1889(6) 0.9461(4) 0.9759(2)
H35_2 H 0.2575 0.9224 0.9640
O24_2 O 0.4707(7) 0.4046(4) 0.9355(2)
S1_2 S 0.2224(3) 0.84961(18) 0.46792(9)
S2_2 S 0.0742(2) 0.37221(14) 0.90464(10)
H34_2 H 0.9488 0.0718 0.8967
C3_2 C 0.9313(8) 0.8522(5) 0.6391(3)
H1_2 H 0.8756 0.8362 0.6673
C4_2 C 0.8542(8) 0.8514(5) 0.5798(3)
H2_2 H 0.7473 0.8351 0.5685
C5_2 C 0.9335(9) 0.8746(6) 0.5365(3)
C8_2 C 0.7084(11) 0.8515(7) 0.4552(4)
H4_2 H 0.6646 0.7870 0.4498
H5_2 H 0.6705 0.8857 0.4858
H6_2 H 0.6797 0.8644 0.4153
H7_2 H 0.9774 0.8484 0.3704
H8_2 H 0.9607 0.9042 0.2826
H12_2 H 0.9536 0.5202 0.9257
O3_2 O 0.8724(7) 0.8773(4) 0.4770(2)
O11_2 O 0.9338(7) 0.3506(4) 0.9212(3)
loop_
_geom_bond_atom_site_label_1
_geom_bond_atom_site_label_2
_geom_bond_site_symmetry_1
_geom_bond_site_symmetry_2
C3 H1 1_555 1_555
C4 C3 1_555 1_555
H2 C4 1_555 1_555
C5 C4 1_555 1_555
C8 H4 1_555 1_555
H5 C8 1_555 1_555
H6 C8 1_555 1_555
O3 C5 1_555 1_555
C8 O3 1_555 1_555
Pr1 O2 1_555 1_555
Pr2 O1 1_555 1_555
C1 C2 1_555 1_555
C7 C2 1_555 1_555
H3 C7 1_555 1_555
C9 C10 1_555 1_555
C11 C10 1_555 1_555
C12 C11 1_555 1_555
C13 C12 1_555 1_555
C14 C9 1_555 1_555
H10 C14 1_555 1_555
C15 C12 1_555 1_555
C16 C17 1_555 1_555
C17 C18 1_555 1_555
C18 H11 1_555 1_555
C19 C18 1_555 1_555
C20 C19 1_555 1_555
C21 C20 1_555 1_555
H13 C21 1_555 1_555
C22 C17 1_555 1_555
H14 C22 1_555 1_555
H17 C27 1_555 1_555
C28 C23 1_555 1_555
C30 H18 1_555 1_555
H19 C30 1_555 1_555
H20 C30 1_555 1_555
O1 C1 1_555 1_555
O2 C1 1_555 1_555
O4 C6 1_555 1_555
O5 S1 1_555 1_555
O6 S1 1_555 1_555
O7 C15 1_555 1_555
O9 Pr2 1_555 1_555
O10 Pr1 1_555 1_555
O12 S2 1_555 1_555
O13 C23 1_555 1_555
O20 Pr1 1_555 1_555
H31 O20 1_555 1_555
H32 O20 1_555 1_555
O23 Pr2 1_555 1_555
H35 O23 1_555 1_555
O24 C28 1_555 1_555
S1 C9 1_555 1_555
S2 C20 1_555 1_555
O29 Pr1 1_555 1_555
O31 Pr1 1_555 1_555
O32 Pr1 1_555 1_555
O34 Pr1 1_555 1_555
C6 C7 1_555 1_555
C13 C14 1_555 1_555
C16 O9 1_555 1_555
C16 O10 1_555 1_555
C21 C22 1_555 1_555
C27 C28 1_555 1_555
C30 O24 1_555 1_555
O4 S1 1_555 1_555
O13 S2 1_555 1_555
C24 H15 1_555 1_555
C25 C24 1_555 1_555
C26 C25 1_555 1_555
H16 C26 1_555 1_555
C29 C25 1_555 1_555
O16 C29 1_555 1_555
O17 C29 1_555 1_555
Pr4 O17 1_555 1_555
C31 C32 1_555 1_555
C32 C33 1_555 1_555
C33 H21 1_555 1_555
C34 C33 1_555 1_555
C35 C34 1_555 1_555
C36 C35 1_555 1_555
H22 C36 1_555 1_555
C37 C32 1_555 1_555
H23 C37 1_555 1_555
C38 H24 1_555 1_555
H26 C38 1_555 1_555
C39 C40 1_555 1_555
C40 H27 1_555 1_555
C41 C40 1_555 1_555
H28 C41 1_555 1_555
C42 C41 1_555 1_555
C43 C42 1_555 1_555
H29 C43 1_555 1_555
C44 C39 1_555 1_555
H30 C44 1_555 1_555
C45 C42 1_555 1_555
O18 S3 1_555 1_555
O19 C34 1_555 1_555
H33 O21 1_555 1_555
O32 C31 1_555 1_555
O34 C31 1_555 1_555
O26 C35 1_555 1_555
O27 S3 1_555 1_555
S3 C39 1_555 1_555
Pr4 O8 1_555 1_555
C36 C37 1_555 1_555
C38 O26 1_555 1_555
C43 C44 1_555 1_555
C45 O14 1_555 1_555
C45 O15 1_555 1_555
O19 S3 1_555 1_555
C31_2 C32_2 1_555 1_555
C32_2 C33_2 1_555 1_555
C33_2 H21_2 1_555 1_555
C34_2 C33_2 1_555 1_555
C35_2 C34_2 1_555 1_555
C36_2 C35_2 1_555 1_555
H22_2 C36_2 1_555 1_555
C37_2 C32_2 1_555 1_555
H23_2 C37_2 1_555 1_555
C38_2 H24_2 1_555 1_555
H26_2 C38_2 1_555 1_555
C39_2 C40_2 1_555 1_555
C40_2 H27_2 1_555 1_555
C41_2 C40_2 1_555 1_555
H28_2 C41_2 1_555 1_555
C42_2 C41_2 1_555 1_555
C43_2 C42_2 1_555 1_555
H29_2 C43_2 1_555 1_555
C44_2 C39_2 1_555 1_555
H30_2 C44_2 1_555 1_555
C45_2 C42_2 1_555 1_555
O18_2 S3_2 1_555 1_555
O19_2 C34_2 1_555 1_555
H33_2 O21_2 1_555 1_555
O22 C31_2 1_555 1_555
O25 C31_2 1_555 1_555
O26_2 C35_2 1_555 1_555
O27_2 S3_2 1_555 1_555
S3_2 C39_2 1_555 1_555
Pr4 O22 1_555 1_555
C36_2 C37_2 1_555 1_555
C38_2 O26_2 1_555 1_555
C43_2 C44_2 1_555 1_555
C45_2 O14_2 1_555 1_555
C45_2 O15_2 1_555 1_555
O19_2 S3_2 1_555 1_555
O25 Pr4 1_555 1_555
C24_2 H15_2 1_555 1_555
C25_2 C24_2 1_555 1_555
C26_2 C25_2 1_555 1_555
H16_2 C26_2 1_555 1_555
C29_2 C25_2 1_555 1_555
O30 C29_2 1_555 1_555
O31 C29_2 1_555 1_555
Pr4 O2_2 1_555 1_555
Pr7 O1_2 1_555 1_555
C1_2 C2_2 1_555 1_555
C7_2 C2_2 1_555 1_555
H3_2 C7_2 1_555 1_555
C9_2 C10_2 1_555 1_555
C11_2 C10_2 1_555 1_555
C12_2 C11_2 1_555 1_555
C13_2 C12_2 1_555 1_555
C14_2 C9_2 1_555 1_555
H10_2 C14_2 1_555 1_555
C15_2 C12_2 1_555 1_555
C16_2 C17_2 1_555 1_555
C17_2 C18_2 1_555 1_555
C18_2 H11_2 1_555 1_555
C19_2 C18_2 1_555 1_555
C20_2 C19_2 1_555 1_555
C21_2 C20_2 1_555 1_555
H13_2 C21_2 1_555 1_555
C22_2 C17_2 1_555 1_555
H14_2 C22_2 1_555 1_555
H17_2 C27_2 1_555 1_555
C28_2 C23_2 1_555 1_555
C30_2 H18_2 1_555 1_555
H19_2 C30_2 1_555 1_555
H20_2 C30_2 1_555 1_555
O1_2 C1_2 1_555 1_555
O2_2 C1_2 1_555 1_555
O4_2 C6_2 1_555 1_555
O5_2 S1_2 1_555 1_555
O6_2 S1_2 1_555 1_555
O28 C15_2 1_555 1_555
O9_2 Pr7 1_555 1_555
O10_2 Pr4 1_555 1_555
O12_2 S2_2 1_555 1_555
O13_2 C23_2 1_555 1_555
O20_2 Pr4 1_555 1_555
H31_2 O20_2 1_555 1_555
H32_2 O20_2 1_555 1_555
O23_2 Pr7 1_555 1_555
H35_2 O23_2 1_555 1_555
O24_2 C28_2 1_555 1_555
S1_2 C9_2 1_555 1_555
S2_2 C20_2 1_555 1_555
C6_2 C7_2 1_555 1_555
C13_2 C14_2 1_555 1_555
C16_2 O9_2 1_555 1_555
C16_2 O10_2 1_555 1_555
C21_2 C22_2 1_555 1_555
C27_2 C28_2 1_555 1_555
C30_2 O24_2 1_555 1_555
O4_2 S1_2 1_555 1_555
O13_2 S2_2 1_555 1_555
C3_2 H1_2 1_555 1_555
C4_2 C3_2 1_555 1_555
H2_2 C4_2 1_555 1_555
C5_2 C4_2 1_555 1_555
C8_2 H4_2 1_555 1_555
H5_2 C8_2 1_555 1_555
H6_2 C8_2 1_555 1_555
O3_2 C5_2 1_555 1_555
C8_2 O3_2 1_555 1_555

#END
