
###############################################################################
#
# This file contains modified crystal structure data generated from the
# MOF subset of the Cambridge Structural Database (CSD) v543 
# hosted by the Cambridge Crystallographic Data Centre (CCDC).
#
# This work is licensed under the Creative Commons
# Attribution-NonCommercial-ShareAlike 4.0 International License.
# To view a copy of this license, visit
# http://creativecommons.org/licenses/by-nc-sa/4.0/
# or send a letter to
# Creative Commons, PO Box 1866, Mountain View, CA 94042, USA.
#
# CIF created using the CSD Python API on 29 September 2022
# The structure has been converted into the P1 space group
# The structure has a 3D framework
# The original CSD entry WENQOY is in the triclinic crystal system
# The framework has been calculated to contain at least 10.0% void space
# The void calculation uses a probe of radius 1.32A, grid spacing 0.4
#
###############################################################################

data_WENQOY
_chemical_formula_moiety         '(C64 H40 Cd1 N4 O8)n'
_symmetry_cell_setting           triclinic
_symmetry_space_group_name_H-M   'P 1'
_symmetry_Int_Tables_number      1
_space_group_name_Hall           'P 1'
loop_
_symmetry_equiv_pos_site_id
_symmetry_equiv_pos_as_xyz
1 x,y,z
_cell_length_a                   9.4586(19)
_cell_length_b                   13.963(3)
_cell_length_c                   14.178(3)
_cell_angle_alpha                112.12(3)
_cell_angle_beta                 96.48(3)
_cell_angle_gamma                98.21(3)
_cell_volume                     1688.31
loop_
_atom_site_label
_atom_site_type_symbol
_atom_site_fract_x
_atom_site_fract_y
_atom_site_fract_z
_atom_site_U_iso_or_equiv
_atom_site_thermal_displace_type
Cd1 Cd 0.09439(3) 0.16911(3) 0.50821(2) 0.0278 Uani
O3 O 0.1869(4) 0.3567(3) 0.5597(3) 0.0422 Uani
O4 O 0.2885(3) 0.2416(2) 0.4491(3) 0.0393 Uani
C1 C 0.0079(5) 0.1356(4) 0.2635(4) 0.0397 Uani
H1 H 0.096891 0.114640 0.260903 0.0470 Uiso
C25 C 0.2820(5) 0.3338(4) 0.5037(4) 0.0334 Uani
C26 C 0.3946(5) 0.4198(4) 0.5020(3) 0.0340 Uani
C27 C 0.5084(6) 0.3951(4) 0.4513(4) 0.0444 Uani
H17 H 0.515121 0.324802 0.417963 0.0530 Uiso
C28 C 0.3859(6) 0.5252(4) 0.5504(4) 0.0447 Uani
H18 H 0.308889 0.542740 0.584419 0.0540 Uiso
O7 O 0.8131(4) 0.6433(3) 0.4403(3) 0.0422 Uani
O8 O 0.7115(3) 0.7584(2) 0.5509(3) 0.0393 Uani
C37 C 0.7180(5) 0.6662(4) 0.4963(4) 0.0334 Uani
C38 C 0.6054(5) 0.5802(4) 0.4980(3) 0.0340 Uani
C39 C 0.4916(6) 0.6049(4) 0.5487(4) 0.0444 Uani
H23 H 0.484879 0.675198 0.582037 0.0530 Uiso
C40 C 0.6141(6) 0.4748(4) 0.4496(4) 0.0447 Uani
H24 H 0.691111 0.457260 0.415581 0.0540 Uiso
Cd7 Cd 0.90561(3) 0.83089(3) 0.49179(2) 0.0278 Uani
N5 N 0.2414(4) 0.1773(3) 0.6561(3) 0.0335 Uani
O10 O 0.1148(3) 0.9986(2) 0.4256(2) 0.0364 Uani
O1 O 0.8730(3) 0.1474(3) 0.5487(2) 0.0374 Uani
O2 O 0.8852(3) 0.0014(2) 0.5744(2) 0.0364 Uani
N1 N 0.9600(4) 0.1626(3) 0.3525(3) 0.0350 Uani
C2 C 0.9338(5) 0.1367(4) 0.1747(4) 0.0401 Uani
H2 H 0.972437 0.115947 0.114260 0.0480 Uiso
C3 C 0.8026(5) 0.1684(3) 0.1754(3) 0.0313 Uani
C4 C 0.7522(5) 0.1971(4) 0.2682(3) 0.0378 Uani
H3 H 0.663867 0.218938 0.272951 0.0450 Uiso
C5 C 0.8333(5) 0.1934(4) 0.3538(4) 0.0390 Uani
H4 H 0.797379 0.213424 0.415283 0.0470 Uiso
C6 C 0.7139(5) 0.1708(4) 0.0832(3) 0.0321 Uani
C14 C 0.5679(5) 0.2632(4) 0.0034(3) 0.0373 Uani
C15 C 0.5112(6) 0.3566(4) 0.0177(4) 0.0537 Uani
C16 C 0.5532(7) 0.4434(5) 0.1043(5) 0.0671 Uani
H10 H 0.512691 0.502133 0.111747 0.0810 Uiso
C17 C 0.6576(7) 0.4470(4) 0.1840(4) 0.0659 Uani
H11 H 0.691100 0.509738 0.242211 0.0790 Uiso
C18 C 0.7104(6) 0.3605(4) 0.1775(4) 0.0522 Uani
H12 H 0.777624 0.364310 0.232587 0.0620 Uiso
C19 C 0.6662(5) 0.2633(4) 0.0887(3) 0.0357 Uani
C29 C 0.8145(5) 0.0619(4) 0.5530(3) 0.0299 Uani
C30 C 0.6500(4) 0.0317(3) 0.5277(3) 0.0264 Uani
C31 C 0.5681(5) 0.0866(4) 0.4881(4) 0.0418 Uani
H19 H 0.613798 0.145872 0.480068 0.0510 Uiso
C36 C 0.4192(5) 0.0549(4) 0.4603(4) 0.0432 Uani
H22 H 0.365480 0.092470 0.433301 0.0520 Uiso
H29 H 0.231902 0.023189 0.965173 0.0460 Uiso
C7 C 0.6757(5) 0.0798(4) 0.9890(3) 0.0310 Uani
C12 C 0.5885(5) 0.0835(4) 0.9015(3) 0.0312 Uani
C13 C 0.5320(5) 0.1729(4) 0.9099(3) 0.0325 Uani
H9 H 0.442989 0.356393 0.964975 0.0640 Uiso
C20 C 0.4315(5) 0.1738(4) 0.8211(3) 0.0334 Uani
C21 C 0.4716(5) 0.2370(4) 0.7697(4) 0.0450 Uani
H13 H 0.563768 0.279626 0.789258 0.0540 Uiso
C22 C 0.3743(5) 0.2367(4) 0.6889(4) 0.0439 Uani
H14 H 0.403468 0.280494 0.655887 0.0520 Uiso
C23 C 0.2030(5) 0.1152(4) 0.7046(4) 0.0380 Uani
H15 H 0.110218 0.073168 0.683259 0.0460 Uiso
C24 C 0.2945(5) 0.1100(4) 0.7853(4) 0.0391 Uani
H16 H 0.263852 0.063661 0.815270 0.0480 Uiso
N4 N 0.7586(4) 0.8227(3) 0.3439(3) 0.0335 Uani
C47 C 0.3243(5) 0.9202(4) 0.0110(3) 0.0310 Uani
C52 C 0.4115(5) 0.9165(4) 0.0985(3) 0.0312 Uani
C53 C 0.4680(5) 0.8271(4) 0.0901(3) 0.0325 Uani
H33 H 0.557011 0.643607 0.035025 0.0640 Uiso
C60 C 0.5685(5) 0.8262(4) 0.1789(3) 0.0334 Uani
C61 C 0.5284(5) 0.7630(4) 0.2303(4) 0.0450 Uani
H37 H 0.436232 0.720374 0.210742 0.0540 Uiso
C62 C 0.6257(5) 0.7633(4) 0.3111(4) 0.0439 Uani
H38 H 0.596532 0.719506 0.344113 0.0520 Uiso
C63 C 0.7970(5) 0.8848(4) 0.2954(4) 0.0380 Uani
H39 H 0.889782 0.926832 0.316741 0.0460 Uiso
C64 C 0.7055(5) 0.8900(4) 0.2147(4) 0.0391 Uani
H40 H 0.736148 0.936339 0.184730 0.0480 Uiso
H5 H 0.768098 0.976811 0.034827 0.0460 Uiso
C32 C 0.5808(5) 0.9451(4) 0.5397(4) 0.0432 Uani
H20 H 0.634520 0.907530 0.566699 0.0520 Uiso
O5 O 0.1270(3) 0.8526(3) 0.4513(2) 0.0374 Uani
C33 C 0.1855(5) 0.9381(4) 0.4470(3) 0.0299 Uani
C34 C 0.3500(4) 0.9683(3) 0.4723(3) 0.0264 Uani
C35 C 0.4319(5) 0.9134(4) 0.5119(4) 0.0418 Uani
H21 H 0.386202 0.854128 0.519932 0.0510 Uiso
N3 N 0.0400(4) 0.8374(3) 0.6475(3) 0.0350 Uani
C42 C 0.0662(5) 0.8633(4) 0.8253(4) 0.0401 Uani
H26 H 0.027563 0.884053 0.885740 0.0480 Uiso
C43 C 0.1974(5) 0.8316(3) 0.8246(3) 0.0313 Uani
C44 C 0.2478(5) 0.8029(4) 0.7318(3) 0.0378 Uani
H27 H 0.336133 0.781062 0.727049 0.0450 Uiso
C45 C 0.1667(5) 0.8066(4) 0.6462(4) 0.0390 Uani
H28 H 0.202621 0.786576 0.584717 0.0470 Uiso
C46 C 0.2861(5) 0.8292(4) 0.9168(3) 0.0321 Uani
C54 C 0.4321(5) 0.7368(4) 0.9966(3) 0.0373 Uani
C55 C 0.4888(6) 0.6434(4) 0.9823(4) 0.0537 Uani
C56 C 0.4468(7) 0.5566(5) 0.8957(5) 0.0671 Uani
H34 H 0.487309 0.497867 0.888253 0.0810 Uiso
C57 C 0.3424(7) 0.5530(4) 0.8160(4) 0.0659 Uani
H35 H 0.308900 0.490262 0.757789 0.0790 Uiso
C58 C 0.2896(6) 0.6395(4) 0.8225(4) 0.0522 Uani
H36 H 0.222376 0.635690 0.767413 0.0620 Uiso
C59 C 0.3338(5) 0.7367(4) 0.9113(3) 0.0357 Uani
C41 C 0.9921(5) 0.8644(4) 0.7365(4) 0.0397 Uani
H25 H 0.903109 0.885360 0.739097 0.0470 Uiso
C48 C 0.2813(5) 0.0171(4) 0.0225(4) 0.0380 Uani
C49 C 0.3108(5) 0.1001(4) 0.1147(4) 0.0459 Uani
H30 H 0.282888 0.162839 0.119686 0.0550 Uiso
C50 C 0.3830(6) 0.0933(4) 0.2035(4) 0.0503 Uani
H31 H 0.395584 0.149247 0.267634 0.0600 Uiso
C51 C 0.4343(5) 0.0053(4) 0.1958(4) 0.0450 Uani
H32 H 0.485030 0.002456 0.254553 0.0540 Uiso
C8 C 0.7187(5) 0.9829(4) 0.9775(4) 0.0380 Uani
C9 C 0.6892(5) 0.8999(4) 0.8853(4) 0.0459 Uani
H6 H 0.717112 0.837161 0.880314 0.0550 Uiso
C10 C 0.6170(6) 0.9067(4) 0.7965(4) 0.0503 Uani
H7 H 0.604416 0.850753 0.732366 0.0600 Uiso
C11 C 0.5657(5) 0.9947(4) 0.8042(4) 0.0450 Uani
H8 H 0.514970 0.997544 0.745447 0.0540 Uiso
loop_
_atom_site_aniso_label
_atom_site_aniso_U_11
_atom_site_aniso_U_22
_atom_site_aniso_U_33
_atom_site_aniso_U_23
_atom_site_aniso_U_13
_atom_site_aniso_U_12
Cd1 0.02073 0.0344 0.02879 0.01972 -0.00599 -0.00443
O3 0.037 0.046 0.044 0.0227 0.0077 -0.0043
O4 0.037 0.0275 0.052 0.0196 0.004 -0.0048
C1 0.027 0.056 0.041 0.027 -0.001 0.008
C25 0.027 0.038 0.033 0.021 -0.008 -0.009
C26 0.036 0.028 0.034 0.013 0 -0.003
C27 0.048 0.03 0.049 0.01 0.014 0.001
C28 0.044 0.035 0.053 0.016 0.019 -0.002
O7 0.037 0.046 0.044 0.0227 0.0077 -0.0043
O8 0.037 0.0275 0.052 0.0196 0.004 -0.0048
C37 0.027 0.038 0.033 0.021 -0.008 -0.009
C38 0.036 0.028 0.034 0.013 0 -0.003
C39 0.048 0.03 0.049 0.01 0.014 0.001
C40 0.044 0.035 0.053 0.016 0.019 -0.002
Cd7 0.02073 0.0344 0.02879 0.01972 -0.00599 -0.00443
N5 0.026 0.046 0.027 0.0211 -0.0059 -0.0074
O10 0.0246 0.0387 0.0437 0.0177 -0.0065 0.0063
O1 0.0251 0.0418 0.046 0.0231 0.0011 -0.0029
O2 0.0246 0.0387 0.0437 0.0177 -0.0065 0.0063
N1 0.027 0.048 0.032 0.023 -0.0046 0.0015
C2 0.034 0.056 0.029 0.021 -0.005 0.002
C3 0.029 0.034 0.027 0.014 -0.0072 -0.001
C4 0.026 0.058 0.035 0.025 0.001 0.011
C5 0.036 0.057 0.03 0.025 0.004 0.008
C6 0.033 0.04 0.024 0.016 -0.0007 0.005
C14 0.046 0.039 0.028 0.019 -0.006 0.006
C15 0.07 0.054 0.042 0.026 -0.003 0.019
C16 0.105 0.048 0.048 0.018 -0.006 0.033
C17 0.106 0.037 0.038 0.003 -0.012 0.016
C18 0.069 0.042 0.036 0.012 -0.011 0.008
C19 0.04 0.036 0.026 0.012 -0.006 0.002
C29 0.025 0.035 0.028 0.014 0.001 0
C30 0.021 0.029 0.028 0.012 0.001 0.0025
C31 0.022 0.042 0.076 0.04 0.009 0.005
C36 0.019 0.053 0.077 0.049 0.004 0.006
C7 0.026 0.041 0.029 0.018 0.0018 0.007
C12 0.027 0.036 0.028 0.014 -0.0032 0.001
C13 0.029 0.042 0.025 0.017 -0.0059 0.001
C20 0.032 0.043 0.029 0.02 0 0.008
C21 0.031 0.063 0.04 0.032 -0.012 -0.011
C22 0.035 0.061 0.041 0.035 -0.003 -0.007
C23 0.024 0.05 0.041 0.026 -0.006 -0.002
C24 0.032 0.053 0.041 0.034 -0.003 0
N4 0.026 0.046 0.027 0.0211 -0.0059 -0.0074
C47 0.026 0.041 0.029 0.018 0.0018 0.007
C52 0.027 0.036 0.028 0.014 -0.0032 0.001
C53 0.029 0.042 0.025 0.017 -0.0059 0.001
C60 0.032 0.043 0.029 0.02 0 0.008
C61 0.031 0.063 0.04 0.032 -0.012 -0.011
C62 0.035 0.061 0.041 0.035 -0.003 -0.007
C63 0.024 0.05 0.041 0.026 -0.006 -0.002
C64 0.032 0.053 0.041 0.034 -0.003 0
C32 0.019 0.053 0.077 0.049 0.004 0.006
O5 0.0251 0.0418 0.046 0.0231 0.0011 -0.0029
C33 0.025 0.035 0.028 0.014 0.001 0
C34 0.021 0.029 0.028 0.012 0.001 0.0025
C35 0.022 0.042 0.076 0.04 0.009 0.005
N3 0.027 0.048 0.032 0.023 -0.0046 0.0015
C42 0.034 0.056 0.029 0.021 -0.005 0.002
C43 0.029 0.034 0.027 0.014 -0.0072 -0.001
C44 0.026 0.058 0.035 0.025 0.001 0.011
C45 0.036 0.057 0.03 0.025 0.004 0.008
C46 0.033 0.04 0.024 0.016 -0.0007 0.005
C54 0.046 0.039 0.028 0.019 -0.006 0.006
C55 0.07 0.054 0.042 0.026 -0.003 0.019
C56 0.105 0.048 0.048 0.018 -0.006 0.033
C57 0.106 0.037 0.038 0.003 -0.012 0.016
C58 0.069 0.042 0.036 0.012 -0.011 0.008
C59 0.04 0.036 0.026 0.012 -0.006 0.002
C41 0.027 0.056 0.041 0.027 -0.001 0.008
C48 0.035 0.041 0.042 0.022 0 0.01
C49 0.042 0.039 0.053 0.015 0 0.013
C50 0.043 0.046 0.043 0.002 -0.005 0.005
C51 0.034 0.057 0.032 0.009 -0.005 0.005
C8 0.035 0.041 0.042 0.022 0 0.01
C9 0.042 0.039 0.053 0.015 0 0.013
C10 0.043 0.046 0.043 0.002 -0.005 0.005
C11 0.034 0.057 0.032 0.009 -0.005 0.005
loop_
_geom_bond_atom_site_label_1
_geom_bond_atom_site_label_2
_geom_bond_site_symmetry_1
_geom_bond_site_symmetry_2
O3 Cd1 1_555 1_555
O4 Cd1 1_555 1_555
H1 C1 1_555 1_555
C25 O3 1_555 1_555
C26 C25 1_555 1_555
C27 C26 1_555 1_555
H17 C27 1_555 1_555
C28 C26 1_555 1_555
H18 C28 1_555 1_555
O7 C37 1_555 1_555
O8 C37 1_555 1_555
C37 C38 1_555 1_555
C38 C39 1_555 1_555
C39 C28 1_555 1_555
H23 C39 1_555 1_555
C40 C27 1_555 1_555
H24 C40 1_555 1_555
Cd7 O7 1_555 1_555
N5 Cd1 1_555 1_555
O4 C25 1_555 1_555
O8 Cd7 1_555 1_555
C38 C40 1_555 1_555
O1 C29 1_555 1_555
O2 C29 1_555 1_555
H2 C2 1_555 1_555
C3 C2 1_555 1_555
C4 C3 1_555 1_555
H3 C4 1_555 1_555
C5 N1 1_555 1_555
H4 C5 1_555 1_555
C6 C3 1_555 1_555
C15 C14 1_555 1_555
C16 C15 1_555 1_555
H10 C16 1_555 1_555
C17 C16 1_555 1_555
H11 C17 1_555 1_555
C18 C17 1_555 1_555
H12 C18 1_555 1_555
C19 C6 1_555 1_555
C29 C30 1_555 1_555
C30 C31 1_555 1_555
C31 H19 1_555 1_555
C36 C31 1_555 1_555
H22 C36 1_555 1_555
C4 C5 1_555 1_555
C14 C19 1_555 1_555
C18 C19 1_555 1_555
N5 C22 1_555 1_555
C12 C7 1_555 1_555
C13 C12 1_555 1_555
C20 C13 1_555 1_555
C21 C20 1_555 1_555
H13 C21 1_555 1_555
C22 C21 1_555 1_555
H14 C22 1_555 1_555
C23 N5 1_555 1_555
H15 C23 1_555 1_555
C24 C20 1_555 1_555
H16 C24 1_555 1_555
C23 C24 1_555 1_555
N4 C62 1_555 1_555
C52 C47 1_555 1_555
C53 C52 1_555 1_555
C60 C53 1_555 1_555
C61 C60 1_555 1_555
H37 C61 1_555 1_555
C62 C61 1_555 1_555
H38 C62 1_555 1_555
C63 N4 1_555 1_555
H39 C63 1_555 1_555
C64 C60 1_555 1_555
H40 C64 1_555 1_555
Cd7 N4 1_555 1_555
C63 C64 1_555 1_555
H20 C32 1_555 1_555
O5 C33 1_555 1_555
O10 C33 1_555 1_555
C33 C34 1_555 1_555
C34 C35 1_555 1_555
C35 C32 1_555 1_555
H21 C35 1_555 1_555
H26 C42 1_555 1_555
C43 C42 1_555 1_555
C44 C43 1_555 1_555
H27 C44 1_555 1_555
C45 N3 1_555 1_555
H28 C45 1_555 1_555
C46 C43 1_555 1_555
C55 C54 1_555 1_555
C56 C55 1_555 1_555
H34 C56 1_555 1_555
C57 C56 1_555 1_555
H35 C57 1_555 1_555
C58 C57 1_555 1_555
H36 C58 1_555 1_555
C59 C46 1_555 1_555
C44 C45 1_555 1_555
C54 C59 1_555 1_555
C58 C59 1_555 1_555
H25 C41 1_555 1_555
C49 C48 1_555 1_555
H30 C49 1_555 1_555
C50 C49 1_555 1_555
H31 C50 1_555 1_555
C51 C50 1_555 1_555
H32 C51 1_555 1_555
C9 C8 1_555 1_555
H6 C9 1_555 1_555
C10 C9 1_555 1_555
H7 C10 1_555 1_555
C11 C10 1_555 1_555
H8 C11 1_555 1_555

#END
