
###############################################################################
#
# This file contains modified crystal structure data generated from the
# MOF subset of the Cambridge Structural Database (CSD) v543 
# hosted by the Cambridge Crystallographic Data Centre (CCDC).
#
# This work is licensed under the Creative Commons
# Attribution-NonCommercial-ShareAlike 4.0 International License.
# To view a copy of this license, visit
# http://creativecommons.org/licenses/by-nc-sa/4.0/
# or send a letter to
# Creative Commons, PO Box 1866, Mountain View, CA 94042, USA.
#
# CIF created using the CSD Python API on 29 September 2022
# The structure has been converted into the P1 space group
# The structure has a 3D framework
# The original CSD entry WENREP is in the monoclinic crystal system
# The framework has been calculated to contain at least 10.0% void space
# The void calculation uses a probe of radius 1.32A, grid spacing 0.4
# H atom positions have been added when not included in the experimental data
#
###############################################################################

data_WENREP
_chemical_formula_moiety         '(C164 H116 Cd4 N24 O24)n'
_symmetry_cell_setting           triclinic
_symmetry_space_group_name_H-M   'P 1'
_symmetry_Int_Tables_number      1
_space_group_name_Hall           'P 1'
loop_
_symmetry_equiv_pos_site_id
_symmetry_equiv_pos_as_xyz
1 x,y,z
_cell_length_a                   14.577(3)
_cell_length_b                   18.044(4)
_cell_length_c                   15.751(3)
_cell_angle_alpha                90
_cell_angle_beta                 104.41(3)
_cell_angle_gamma                90
_cell_volume                     4012.61
loop_
_atom_site_label
_atom_site_type_symbol
_atom_site_fract_x
_atom_site_fract_y
_atom_site_fract_z
N7 N 0.0029(4) 0.0146(3) 0.0415(3)
H31 H 0.0521 0.0710 0.1992
H32 H 0.0320 0.1318 0.3197
H9 H 0.1231 0.9489 0.0050
C55 C 0.0094(6) 0.3205(4) 0.2496(6)
H40 H 0.0504 0.2805 0.2657
C56 C 0.0168(7) 0.3716(6) 0.1762(6)
H41 H 0.0626 0.3643 0.1452
N12 N 0.0012(5) 0.4750(4) 0.0350(4)
O7 O 0.0529(3) 0.1990(3) 0.4552(3)
O8 O 0.2157(3) 0.1483(2) 0.5422(3)
H43 H 0.1650 0.1479 0.5051
O10 O 0.7604(3) 0.1611(3) 0.9316(3)
O11 O 0.7414(3) 0.2232(3) 0.8073(3)
C60 C 0.1620(4) 0.2734(4) 0.5583(4)
O12 O 0.5959(3) 0.2072(3) 0.6871(3)
H44 H 0.6494 0.2204 0.7130
C61 C 0.6062(4) 0.1620(3) 0.8317(4)
C62 C 0.4579(4) 0.1569(4) 0.7159(4)
C63 C 0.0639(4) 0.2557(4) 0.5042(4)
C64 C 0.5630(4) 0.1296(4) 0.8893(4)
H45 H 0.5974 0.1219 0.9468
C65 C 0.4140(4) 0.1195(3) 0.7749(4)
C66 C 0.3280(4) 0.2366(3) 0.6148(4)
C67 C 0.5522(4) 0.1752(4) 0.7450(4)
C68 C 0.7092(5) 0.1821(4) 0.8614(4)
C69 C 0.2358(4) 0.2192(4) 0.5724(4)
C70 C 0.4043(4) 0.1772(4) 0.6238(4)
H46 H 0.4498 0.1938 0.5923
H47 H 0.3748 0.1326 0.5951
C71 C 0.3488(5) 0.3108(4) 0.6416(4)
C72 C 0.2966(5) 0.4378(4) 0.6613(5)
H48 H 0.2479 0.4721 0.6562
C73 C 0.1818(4) 0.3430(4) 0.5891(4)
H49 H 0.1331 0.3774 0.5823
C74 C 0.3190(5) 0.0934(4) 0.7497(5)
H50 H 0.2834 0.1001 0.6925
C75 C 0.4658(5) 0.1068(4) 0.8638(4)
C76 C 0.2750(4) 0.3642(4) 0.6313(4)
C77 C 0.2800(5) 0.0588(4) 0.8087(5)
H51 H 0.2183 0.0410 0.7904
C78 C 0.4216(5) 0.0728(4) 0.9234(5)
H52 H 0.4551 0.0665 0.9814
C79 C 0.4612(6) 0.4086(5) 0.7054(5)
H53 H 0.5232 0.4237 0.7293
C80 C 0.3878(6) 0.4591(4) 0.6977(5)
H54 H 0.4008 0.5075 0.7172
C81 C 0.4436(5) 0.3371(4) 0.6786(5)
H55 H 0.4941 0.3044 0.6842
C82 C 0.3302(6) 0.0490(5) 0.8972(6)
H56 H 0.3012 0.0266 0.9369
Cd3 Cd 0.89458(3) 0.25237(3) 0.88494(3)
O9 O 0.0030(3) 0.7997(2) 0.9968(3)
N2 N 0.8176(4) 0.3369(3) 0.9543(3)
N3 N 0.5370(4) 0.4889(3) 0.9818(4)
N4 N 0.9418(4) 0.1652(3) 0.7907(3)
N5 N 0.8996(4) 0.3389(3) 0.7743(3)
C13 C 0.8349(5) 0.3821(4) 0.6286(4)
H6 H 0.7826 0.3853 0.5809
C16 C 0.9273(5) 0.4507(3) 0.5445(4)
H9_2 H 0.8769 0.4489 0.4950
C18 C 0.9937(5) 0.4080(4) 0.6986(4)
C23 C 0.9811(5) 0.3711(4) 0.7706(4)
C24 C 0.7028(5) 0.4347(4) 0.9372(5)
H15 H 0.6757 0.4767 0.9068
C26 C 0.8277(5) 0.3452(4) 0.7035(4)
H17 H 0.7700 0.3238 0.7045
C28 C 0.9192(5) 0.4140(4) 0.6246(4)
C31 C 0.7757(5) 0.3979(4) 0.9140(5)
H20 H 0.7973 0.4167 0.8675
C32 C 0.8883(5) 0.1063(4) 0.7648(5)
H21 H 0.8416 0.0959 0.7939
C39 C 0.8959(7) 0.0602(5) 0.7002(6)
H28 H 0.8565 0.0190 0.6877
C40 C 0.9547(7) 0.0717(6) 0.6569(7)
C41 C 0.9507(7) 0.0169(5) 0.5792(7)
N7_2 N 0.9971(4) 0.5146(3) 0.4585(3)
H31_2 H 0.9479 0.5710 0.3008
H32_2 H 0.9680 0.6318 0.1803
C48 C 0.2113(5) 0.6868(4) 0.9766(4)
H34 H 0.1813 0.7276 0.9456
C49 C 0.2842(5) 0.6532(4) 0.9488(4)
H35 H 0.3027 0.6717 0.9004
C51 C 0.3290(4) 0.5926(4) 0.9931(4)
C52 C 0.4108(5) 0.5588(4) 0.9690(4)
H37 H 0.4248 0.5725 0.9167
C55_2 C 0.9906(6) 0.8205(4) 0.2504(6)
H40_2 H 0.9496 0.7805 0.2343
C56_2 C 0.9832(7) 0.8716(6) 0.3238(6)
H41_2 H 0.9374 0.8643 0.3548
N12_2 N 0.9988(5) 0.9750(4) 0.4650(4)
O7_2 O 0.9471(3) 0.6990(3) 0.0448(3)
H57 H 0.900117 0.971338 0.567325
N9 N 0.8176(4) 0.1631(3) 0.4543(3)
N10 N 0.5370(4) 0.0111(3) 0.4818(4)
C48_2 C 0.7887(5) 0.1868(4) 0.5234(4)
H34_2 H 0.8187 0.2276 0.5544
C49_2 C 0.7158(5) 0.1532(4) 0.5512(4)
H35_2 H 0.6973 0.1717 0.5996
C50 C 0.7028(5) 0.0653(4) 0.4372(5)
H36 H 0.6757 0.0233 0.4068
C51_2 C 0.6710(4) 0.0926(4) 0.5069(4)
C52_2 C 0.5892(5) 0.0588(4) 0.5310(4)
H37_2 H 0.5752 0.0725 0.5833
C53 C 0.7757(5) 0.1021(4) 0.4140(5)
H38 H 0.7973 0.0833 0.3675
Cd5 Cd 0.89458(3) 0.24763(3) 0.38494(3)
N8 N 0.8996(4) 0.1611(3) 0.2743(3)
C42 C 0.8349(5) 0.1179(4) 0.1286(4)
H29 H 0.7826 0.1147 0.0809
C43 C 0.9273(5) 0.0493(3) 0.0445(4)
C44 C 0.9937(5) 0.0920(4) 0.1986(4)
C45 C 0.9811(5) 0.1289(4) 0.2706(4)
C46 C 0.8277(5) 0.1548(4) 0.2035(4)
H33 H 0.7700 0.1762 0.2045
C47 C 0.9192(5) 0.0860(4) 0.1246(4)
N11 N 0.9418(4) 0.3348(3) 0.2907(3)
C54 C 0.8883(5) 0.3937(4) 0.2648(5)
H39 H 0.8416 0.4041 0.2939
C57 C 0.8959(7) 0.4398(5) 0.2002(6)
H42 H 0.8565 0.4810 0.1877
C58 C 0.9547(7) 0.4283(6) 0.1569(7)
C59 C 0.9507(7) 0.4831(5) 0.0792(7)
O9_2 O 0.9970(3) 0.2997(2) 0.5032(3)
O13 O 0.7604(3) 0.3389(3) 0.4316(3)
O15 O 0.7414(3) 0.2768(3) 0.3073(3)
H58 H 0.900117 0.528662 0.0673252
O2 O 0.2157(3) 0.3517(2) 0.0422(3)
H1 H 0.1650 0.3521 0.0051
C1 C 0.1620(4) 0.2266(4) 0.0583(4)
O6 O 0.5959(3) 0.2928(3) 0.1871(3)
H2 H 0.6494 0.2796 0.2130
C2 C 0.6062(4) 0.3380(3) 0.3317(4)
C3 C 0.4579(4) 0.3431(4) 0.2159(4)
C4 C 0.0639(4) 0.2443(4) 0.0042(4)
C5 C 0.5630(4) 0.3704(4) 0.3893(4)
H3 H 0.5974 0.3781 0.4468
C6 C 0.4140(4) 0.3805(3) 0.2749(4)
C7 C 0.3280(4) 0.2634(3) 0.1148(4)
C8 C 0.5522(4) 0.3248(4) 0.2450(4)
C9 C 0.7092(5) 0.3179(4) 0.3614(4)
C10 C 0.2358(4) 0.2808(4) 0.0724(4)
C11 C 0.4043(4) 0.3228(4) 0.1238(4)
H4 H 0.4498 0.3062 0.0923
H5 H 0.3748 0.3674 0.0951
C12 C 0.3488(5) 0.1892(4) 0.1416(4)
C15 C 0.2966(5) 0.0622(4) 0.1613(5)
H8 H 0.2479 0.0279 0.1562
C17 C 0.1818(4) 0.1570(4) 0.0891(4)
H10 H 0.1331 0.1226 0.0823
C19 C 0.3190(5) 0.4066(4) 0.2497(5)
H12 H 0.2834 0.3999 0.1925
C20 C 0.4658(5) 0.3932(4) 0.3638(4)
C22 C 0.2750(4) 0.1358(4) 0.1313(4)
C25 C 0.2800(5) 0.4412(4) 0.3087(5)
H16 H 0.2183 0.4590 0.2904
C30 C 0.4216(5) 0.4272(4) 0.4234(5)
H19 H 0.4551 0.4335 0.4814
C33 C 0.4612(6) 0.0914(5) 0.2054(5)
H22 H 0.5232 0.0763 0.2293
C34 C 0.3878(6) 0.0409(4) 0.1977(5)
C35 C 0.4436(5) 0.1629(4) 0.1786(5)
H24 H 0.4941 0.1956 0.1842
C37 C 0.3302(6) 0.4510(5) 0.3972(6)
H26 H 0.3012 0.4734 0.4369
Cd1 Cd 0.10542(3) 0.75237(3) 0.61506(3)
O3 O 0.0030(3) 0.7003(2) 0.4968(3)
N2_2 N 0.1824(4) 0.8369(3) 0.5457(3)
N3_2 N 0.4630(4) 0.9889(3) 0.5182(4)
N4_2 N 0.0582(4) 0.6652(3) 0.7093(3)
N5_2 N 0.1004(4) 0.8389(3) 0.7257(3)
C13_2 C 0.1651(5) 0.8821(4) 0.8714(4)
H6_2 H 0.2174 0.8853 0.9191
C14 C 0.2113(5) 0.8132(4) 0.4766(4)
H7 H 0.1813 0.7724 0.4456
C16_2 C 0.0727(5) 0.9507(3) 0.9555(4)
C18_2 C 0.0063(5) 0.9080(4) 0.8014(4)
C21 C 0.2842(5) 0.8468(4) 0.4488(4)
H13 H 0.3027 0.8283 0.4004
C23_2 C 0.0189(5) 0.8711(4) 0.7294(4)
C24_2 C 0.2972(5) 0.9347(4) 0.5628(5)
H15_2 H 0.3243 0.9767 0.5932
C26_2 C 0.1723(5) 0.8452(4) 0.7965(4)
H17_2 H 0.2300 0.8238 0.7955
C27 C 0.3290(4) 0.9074(4) 0.4931(4)
C28_2 C 0.0808(5) 0.9140(4) 0.8754(4)
C29 C 0.4108(5) 0.9412(4) 0.4690(4)
H18 H 0.4248 0.9275 0.4167
C31_2 C 0.2243(5) 0.8979(4) 0.5860(5)
H20_2 H 0.2027 0.9167 0.6325
C32_2 C 0.1117(5) 0.6063(4) 0.7352(5)
H21_2 H 0.1584 0.5959 0.7061
C39_2 C 0.1041(7) 0.5602(5) 0.7998(6)
H28_2 H 0.1435 0.5190 0.8123
C40_2 C 0.0453(7) 0.5717(6) 0.8431(7)
C41_2 C 0.0493(7) 0.5169(5) 0.9208(7)
O14 O 0.2396(3) 0.6611(3) 0.5684(3)
O16 O 0.2586(3) 0.7232(3) 0.6927(3)
H57_2 H 0.0998835 0.471338 0.932675
O8_2 O 0.7843(3) 0.6483(2) 0.9578(3)
H43_2 H 0.8350 0.6479 0.9949
C60_2 C 0.8380(4) 0.7734(4) 0.9417(4)
O12_2 O 0.4041(3) 0.7072(3) 0.8129(3)
H44_2 H 0.3506 0.7204 0.7870
C61_2 C 0.3938(4) 0.6620(3) 0.6683(4)
C62_2 C 0.5421(4) 0.6569(4) 0.7841(4)
C63_2 C 0.9361(4) 0.7557(4) 0.9958(4)
C64_2 C 0.4370(4) 0.6296(4) 0.6107(4)
H45_2 H 0.4026 0.6219 0.5532
C65_2 C 0.5860(4) 0.6195(3) 0.7251(4)
C66_2 C 0.6720(4) 0.7366(3) 0.8852(4)
C67_2 C 0.4478(4) 0.6752(4) 0.7550(4)
C68_2 C 0.2908(5) 0.6821(4) 0.6386(4)
C69_2 C 0.7642(4) 0.7192(4) 0.9276(4)
C70_2 C 0.5957(4) 0.6772(4) 0.8762(4)
H46_2 H 0.5502 0.6938 0.9077
H47_2 H 0.6252 0.6326 0.9049
C71_2 C 0.6512(5) 0.8108(4) 0.8584(4)
C72_2 C 0.7034(5) 0.9378(4) 0.8387(5)
H48_2 H 0.7521 0.9721 0.8438
C73_2 C 0.8182(4) 0.8430(4) 0.9109(4)
H49_2 H 0.8669 0.8774 0.9177
C74_2 C 0.6810(5) 0.5934(4) 0.7503(5)
H50_2 H 0.7166 0.6001 0.8075
C75_2 C 0.5342(5) 0.6068(4) 0.6362(4)
C76_2 C 0.7250(4) 0.8642(4) 0.8687(4)
C77_2 C 0.7200(5) 0.5588(4) 0.6913(5)
H51_2 H 0.7817 0.5410 0.7096
C78_2 C 0.5784(5) 0.5728(4) 0.5766(5)
H52_2 H 0.5449 0.5665 0.5186
C79_2 C 0.5388(6) 0.9086(5) 0.7946(5)
H53_2 H 0.4768 0.9237 0.7707
C80_2 C 0.6122(6) 0.9591(4) 0.8023(5)
C81_2 C 0.5564(5) 0.8371(4) 0.8214(5)
H55_2 H 0.5059 0.8044 0.8158
C82_2 C 0.6698(6) 0.5490(5) 0.6028(6)
H56_2 H 0.6988 0.5266 0.5631
H30 H 0.8769 0.0511 0.9950
O1 O 0.9471(3) 0.8010(3) 0.5448(3)
O2_2 O 0.7843(3) 0.8517(2) 0.4578(3)
H1_2 H 0.8350 0.8521 0.4949
O4 O 0.2396(3) 0.8389(3) 0.0684(3)
O5 O 0.2586(3) 0.7768(3) 0.1927(3)
C1_2 C 0.8380(4) 0.7266(4) 0.4417(4)
O6_2 O 0.4041(3) 0.7928(3) 0.3129(3)
H2_2 H 0.3506 0.7796 0.2870
C2_2 C 0.3938(4) 0.8380(3) 0.1683(4)
N1 N 0.9971(4) 0.9854(3) 0.9585(3)
C3_2 C 0.5421(4) 0.8431(4) 0.2841(4)
C4_2 C 0.9361(4) 0.7443(4) 0.4958(4)
C5_2 C 0.4370(4) 0.8704(4) 0.1107(4)
H3_2 H 0.4026 0.8781 0.0532
C6_2 C 0.5860(4) 0.8805(3) 0.2251(4)
C7_2 C 0.6720(4) 0.7634(3) 0.3852(4)
C8_2 C 0.4478(4) 0.8248(4) 0.2550(4)
C9_2 C 0.2908(5) 0.8179(4) 0.1386(4)
C10_2 C 0.7642(4) 0.7808(4) 0.4276(4)
C11_2 C 0.5957(4) 0.8228(4) 0.3762(4)
H4_2 H 0.5502 0.8062 0.4077
H5_2 H 0.6252 0.8674 0.4049
C12_2 C 0.6512(5) 0.6892(4) 0.3584(4)
C15_2 C 0.7034(5) 0.5622(4) 0.3387(5)
H8_2 H 0.7521 0.5279 0.3438
C17_2 C 0.8182(4) 0.6570(4) 0.4109(4)
H10_2 H 0.8669 0.6226 0.4177
H11 H 0.9479 0.9290 0.8008
C19_2 C 0.6810(5) 0.9066(4) 0.2503(5)
H12_2 H 0.7166 0.8999 0.3075
C20_2 C 0.5342(5) 0.8932(4) 0.1362(4)
C22_2 C 0.7250(4) 0.6358(4) 0.3687(4)
H14 H 0.9680 0.8682 0.6803
C25_2 C 0.7200(5) 0.9412(4) 0.1913(5)
H16_2 H 0.7817 0.9590 0.2096
C30_2 C 0.5784(5) 0.9272(4) 0.0766(5)
H19_2 H 0.5449 0.9335 0.0186
C33_2 C 0.5388(6) 0.5914(5) 0.2946(5)
H22_2 H 0.4768 0.5763 0.2707
C34_2 C 0.6122(6) 0.5409(4) 0.3023(5)
H23 H 0.5992 0.4925 0.2828
C35_2 C 0.5564(5) 0.6629(4) 0.3214(5)
H24_2 H 0.5059 0.6956 0.3158
C36 C 0.9906(6) 0.6795(4) 0.7504(6)
H25 H 0.9496 0.7195 0.7343
C37_2 C 0.6698(6) 0.9510(5) 0.1028(6)
H26_2 H 0.6988 0.9734 0.0631
C38 C 0.9832(7) 0.6284(6) 0.8238(6)
H27 H 0.9374 0.6357 0.8548
N6 N 0.9988(5) 0.5250(4) 0.9650(4)
Cd6 Cd 0.10542(3) 0.74763(3) 0.11506(3)
O1_2 O 0.0529(3) 0.3010(3) 0.9552(3)
N1_2 N 0.0029(4) 0.4854(3) 0.5415(3)
H11_2 H 0.0521 0.4290 0.6992
H14_2 H 0.0320 0.3682 0.8197
C36_2 C 0.0094(6) 0.1795(4) 0.7496(6)
H25_2 H 0.0504 0.2195 0.7657
C38_2 C 0.0168(7) 0.1284(6) 0.6762(6)
H27_2 H 0.0626 0.1357 0.6452
N6_2 N 0.0012(5) 0.0250(4) 0.5350(4)
N8_2 N 0.1004(4) 0.6611(3) 0.2257(3)
C42_2 C 0.1651(5) 0.6179(4) 0.3714(4)
H29_2 H 0.2174 0.6147 0.4191
C43_2 C 0.0727(5) 0.5493(3) 0.4555(4)
H30_2 H 0.1231 0.5511 0.5050
C44_2 C 0.0063(5) 0.5920(4) 0.3014(4)
C45_2 C 0.0189(5) 0.6289(4) 0.2294(4)
C46_2 C 0.1723(5) 0.6548(4) 0.2965(4)
H33_2 H 0.2300 0.6762 0.2955
C47_2 C 0.0808(5) 0.5860(4) 0.3754(4)
H58_2 H 0.0998835 0.0286622 0.432675
N11_2 N 0.0582(4) 0.8348(3) 0.2093(3)
C54_2 C 0.1117(5) 0.8937(4) 0.2352(5)
H39_2 H 0.1584 0.9041 0.2061
C57_2 C 0.1041(7) 0.9398(5) 0.2998(6)
H42_2 H 0.1435 0.9810 0.3123
C58_2 C 0.0453(7) 0.9283(6) 0.3431(7)
C59_2 C 0.0493(7) 0.9831(5) 0.4208(7)
N13 N 0.1824(4) 0.6631(3) 0.0457(3)
O3_2 O 0.9970(3) 0.2003(2) 0.0032(3)
C14_2 C 0.7887(5) 0.3132(4) 0.0234(4)
H7_2 H 0.8187 0.2724 0.0544
C21_2 C 0.7158(5) 0.3468(4) 0.0512(4)
H13_2 H 0.6973 0.3283 0.0996
C27_2 C 0.6710(4) 0.4074(4) 0.0069(4)
C29_2 C 0.5892(5) 0.4412(4) 0.0310(4)
H18_2 H 0.5752 0.4275 0.0833
N10_2 N 0.4630(4) 0.5111(3) 0.0182(4)
C50_2 C 0.2972(5) 0.5653(4) 0.0628(5)
H36_2 H 0.3243 0.5233 0.0932
C53_2 C 0.2243(5) 0.6021(4) 0.0860(5)
H38_2 H 0.2027 0.5833 0.1325
H23_2 H 0.4008 0.9925 0.2172
H54_2 H 0.5992 0.0075 0.7828
loop_
_geom_bond_atom_site_label_1
_geom_bond_atom_site_label_2
_geom_bond_site_symmetry_1
_geom_bond_site_symmetry_2
H40 C55 1_555 1_555
C56 C55 1_555 1_555
H41 C56 1_555 1_555
O8 H43 1_555 1_555
O10 C68 1_555 1_555
O11 C68 1_555 1_555
C60 C63 1_555 1_555
O12 H44 1_555 1_555
C61 C64 1_555 1_555
C62 C65 1_555 1_555
C63 O7 1_555 1_555
C64 H45 1_555 1_555
C65 C74 1_555 1_555
C66 C69 1_555 1_555
C67 O12 1_555 1_555
C68 C61 1_555 1_555
C69 O8 1_555 1_555
C70 C62 1_555 1_555
H46 C70 1_555 1_555
H47 C70 1_555 1_555
C71 C66 1_555 1_555
C72 H48 1_555 1_555
C73 C60 1_555 1_555
H49 C73 1_555 1_555
C74 H50 1_555 1_555
C75 C64 1_555 1_555
C76 C71 1_555 1_555
C77 C74 1_555 1_555
H51 C77 1_555 1_555
C78 C75 1_555 1_555
H52 C78 1_555 1_555
C79 H53 1_555 1_555
C80 C72 1_555 1_555
H54 C80 1_555 1_555
C81 C71 1_555 1_555
H55 C81 1_555 1_555
C82 C77 1_555 1_555
H56 C82 1_555 1_555
Cd3 O10 1_555 1_555
O11 Cd3 1_555 1_555
C60 C69 1_555 1_555
C61 C67 1_555 1_555
C62 C67 1_555 1_555
C65 C75 1_555 1_555
C66 C70 1_555 1_555
C72 C76 1_555 1_555
C73 C76 1_555 1_555
C78 C82 1_555 1_555
C79 C80 1_555 1_555
C79 C81 1_555 1_555
N2 Cd3 1_555 1_555
N4 Cd3 1_555 1_555
N5 Cd3 1_555 1_555
C13 H6 1_555 1_555
C16 H9_2 1_555 1_555
C23 N5 1_555 1_555
C24 H15 1_555 1_555
C26 N5 1_555 1_555
H17 C26 1_555 1_555
C28 C13 1_555 1_555
C31 N2 1_555 1_555
H20 C31 1_555 1_555
C32 N4 1_555 1_555
H21 C32 1_555 1_555
C39 C32 1_555 1_555
H28 C39 1_555 1_555
C41 C40 1_555 1_555
C48 H34 1_555 1_555
C49 C48 1_555 1_555
H35 C49 1_555 1_555
C51 C49 1_555 1_555
H37 C52 1_555 1_555
C13 C26 1_555 1_555
C16 C28 1_555 1_555
C18 C23 1_555 1_555
C18 C28 1_555 1_555
C24 C31 1_555 1_555
C39 C40 1_555 1_555
C51 C52 1_555 1_555
H40_2 C55_2 1_555 1_555
C56_2 C55_2 1_555 1_555
H41_2 C56_2 1_555 1_555
N9 C48_2 1_555 1_555
C48_2 H34_2 1_555 1_555
C49_2 C48_2 1_555 1_555
H35_2 C49_2 1_555 1_555
C50 H36 1_555 1_555
C51_2 C49_2 1_555 1_555
C52_2 N10 1_555 1_555
H37_2 C52_2 1_555 1_555
C53 N9 1_555 1_555
H38 C53 1_555 1_555
Cd5 N9 1_555 1_555
C50 C51_2 1_555 1_555
C50 C53 1_555 1_555
C51_2 C52_2 1_555 1_555
N8 C45 1_555 1_555
C42 H29 1_555 1_555
C45 C44 1_555 1_555
C46 N8 1_555 1_555
H33 C46 1_555 1_555
C47 C42 1_555 1_555
Cd5 N8 1_555 1_555
C42 C46 1_555 1_555
C43 C47 1_555 1_555
C44 C47 1_555 1_555
N11 C54 1_555 1_555
C54 H39 1_555 1_555
C57 C54 1_555 1_555
H42 C57 1_555 1_555
C59 C58 1_555 1_555
Cd5 N11 1_555 1_555
O9_2 Cd5 1_555 1_555
O13 Cd5 1_555 1_555
O15 Cd5 1_555 1_555
C57 C58 1_555 1_555
C59 H58 1_555 1_555
O2 H1 1_555 1_555
O13 C9 1_555 1_555
O15 C9 1_555 1_555
C1 C4 1_555 1_555
O6 H2 1_555 1_555
C2 C5 1_555 1_555
C3 C6 1_555 1_555
C5 H3 1_555 1_555
C6 C19 1_555 1_555
C7 C10 1_555 1_555
C8 O6 1_555 1_555
C9 C2 1_555 1_555
C10 O2 1_555 1_555
C11 C3 1_555 1_555
H4 C11 1_555 1_555
H5 C11 1_555 1_555
C12 C7 1_555 1_555
C15 H8 1_555 1_555
C17 C1 1_555 1_555
H10 C17 1_555 1_555
C19 H12 1_555 1_555
C20 C5 1_555 1_555
C22 C12 1_555 1_555
C25 C19 1_555 1_555
H16 C25 1_555 1_555
C30 C20 1_555 1_555
H19 C30 1_555 1_555
C33 H22 1_555 1_555
C34 C15 1_555 1_555
C35 C12 1_555 1_555
H24 C35 1_555 1_555
C37 C25 1_555 1_555
H26 C37 1_555 1_555
C1 C10 1_555 1_555
C2 C8 1_555 1_555
C3 C8 1_555 1_555
C6 C20 1_555 1_555
C7 C11 1_555 1_555
C15 C22 1_555 1_555
C17 C22 1_555 1_555
C30 C37 1_555 1_555
C33 C34 1_555 1_555
C33 C35 1_555 1_555
O3 Cd1 1_555 1_555
N2_2 Cd1 1_555 1_555
N3_2 C29 1_555 1_555
N4_2 Cd1 1_555 1_555
N5_2 Cd1 1_555 1_555
C13_2 H6_2 1_555 1_555
C14 N2_2 1_555 1_555
H7 C14 1_555 1_555
C21 C14 1_555 1_555
H13 C21 1_555 1_555
C23_2 N5_2 1_555 1_555
C24_2 H15_2 1_555 1_555
C26_2 N5_2 1_555 1_555
H17_2 C26_2 1_555 1_555
C27 C21 1_555 1_555
C28_2 C13_2 1_555 1_555
C29 C27 1_555 1_555
H18 C29 1_555 1_555
C31_2 N2_2 1_555 1_555
H20_2 C31_2 1_555 1_555
C32_2 N4_2 1_555 1_555
H21_2 C32_2 1_555 1_555
C39_2 C32_2 1_555 1_555
H28_2 C39_2 1_555 1_555
C41_2 C40_2 1_555 1_555
O14 Cd1 1_555 1_555
O16 Cd1 1_555 1_555
C13_2 C26_2 1_555 1_555
C16_2 C28_2 1_555 1_555
C18_2 C23_2 1_555 1_555
C18_2 C28_2 1_555 1_555
C24_2 C27 1_555 1_555
C24_2 C31_2 1_555 1_555
C39_2 C40_2 1_555 1_555
C41_2 H57_2 1_555 1_555
O8_2 H43_2 1_555 1_555
O14 C68_2 1_555 1_555
O16 C68_2 1_555 1_555
C60_2 C63_2 1_555 1_555
O12_2 H44_2 1_555 1_555
C61_2 C64_2 1_555 1_555
C62_2 C65_2 1_555 1_555
C64_2 H45_2 1_555 1_555
C65_2 C74_2 1_555 1_555
C66_2 C69_2 1_555 1_555
C67_2 O12_2 1_555 1_555
C68_2 C61_2 1_555 1_555
C69_2 O8_2 1_555 1_555
C70_2 C62_2 1_555 1_555
H46_2 C70_2 1_555 1_555
H47_2 C70_2 1_555 1_555
C71_2 C66_2 1_555 1_555
C72_2 H48_2 1_555 1_555
C73_2 C60_2 1_555 1_555
H49_2 C73_2 1_555 1_555
C74_2 H50_2 1_555 1_555
C75_2 C64_2 1_555 1_555
C76_2 C71_2 1_555 1_555
C77_2 C74_2 1_555 1_555
H51_2 C77_2 1_555 1_555
C78_2 C75_2 1_555 1_555
H52_2 C78_2 1_555 1_555
C79_2 H53_2 1_555 1_555
C80_2 C72_2 1_555 1_555
C81_2 C71_2 1_555 1_555
H55_2 C81_2 1_555 1_555
C82_2 C77_2 1_555 1_555
H56_2 C82_2 1_555 1_555
C60_2 C69_2 1_555 1_555
C61_2 C67_2 1_555 1_555
C62_2 C67_2 1_555 1_555
C65_2 C75_2 1_555 1_555
C66_2 C70_2 1_555 1_555
C72_2 C76_2 1_555 1_555
C73_2 C76_2 1_555 1_555
C78_2 C82_2 1_555 1_555
C79_2 C80_2 1_555 1_555
C79_2 C81_2 1_555 1_555
O1 C4_2 1_555 1_555
O2_2 H1_2 1_555 1_555
O4 C9_2 1_555 1_555
O5 C9_2 1_555 1_555
C1_2 C4_2 1_555 1_555
O6_2 H2_2 1_555 1_555
C2_2 C5_2 1_555 1_555
C3_2 C6_2 1_555 1_555
C5_2 H3_2 1_555 1_555
C6_2 C19_2 1_555 1_555
C7_2 C10_2 1_555 1_555
C8_2 O6_2 1_555 1_555
C9_2 C2_2 1_555 1_555
C10_2 O2_2 1_555 1_555
C11_2 C3_2 1_555 1_555
H4_2 C11_2 1_555 1_555
H5_2 C11_2 1_555 1_555
C12_2 C7_2 1_555 1_555
C15_2 H8_2 1_555 1_555
C17_2 C1_2 1_555 1_555
H10_2 C17_2 1_555 1_555
C19_2 H12_2 1_555 1_555
C20_2 C5_2 1_555 1_555
C22_2 C12_2 1_555 1_555
C25_2 C19_2 1_555 1_555
H16_2 C25_2 1_555 1_555
C30_2 C20_2 1_555 1_555
H19_2 C30_2 1_555 1_555
C33_2 H22_2 1_555 1_555
C34_2 C15_2 1_555 1_555
H23 C34_2 1_555 1_555
C35_2 C12_2 1_555 1_555
H24_2 C35_2 1_555 1_555
H25 C36 1_555 1_555
C37_2 C25_2 1_555 1_555
H26_2 C37_2 1_555 1_555
C38 C36 1_555 1_555
H27 C38 1_555 1_555
Cd6 O4 1_555 1_555
O5 Cd6 1_555 1_555
C1_2 C10_2 1_555 1_555
C2_2 C8_2 1_555 1_555
C3_2 C8_2 1_555 1_555
C6_2 C20_2 1_555 1_555
C7_2 C11_2 1_555 1_555
C15_2 C22_2 1_555 1_555
C17_2 C22_2 1_555 1_555
C30_2 C37_2 1_555 1_555
C33_2 C34_2 1_555 1_555
C33_2 C35_2 1_555 1_555
H25_2 C36_2 1_555 1_555
C38_2 C36_2 1_555 1_555
H27_2 C38_2 1_555 1_555
N8_2 C45_2 1_555 1_555
C42_2 H29_2 1_555 1_555
H30_2 C43_2 1_555 1_555
C45_2 C44_2 1_555 1_555
C46_2 N8_2 1_555 1_555
H33_2 C46_2 1_555 1_555
C47_2 C42_2 1_555 1_555
Cd6 N8_2 1_555 1_555
C42_2 C46_2 1_555 1_555
C43_2 C47_2 1_555 1_555
C44_2 C47_2 1_555 1_555
N11_2 C54_2 1_555 1_555
C54_2 H39_2 1_555 1_555
C57_2 C54_2 1_555 1_555
H42_2 C57_2 1_555 1_555
C59_2 C58_2 1_555 1_555
Cd6 N11_2 1_555 1_555
N13 Cd6 1_555 1_555
C57_2 C58_2 1_555 1_555
H7_2 C14_2 1_555 1_555
C21_2 C14_2 1_555 1_555
H13_2 C21_2 1_555 1_555
C27_2 C21_2 1_555 1_555
C29_2 C27_2 1_555 1_555
H18_2 C29_2 1_555 1_555
C50_2 H36_2 1_555 1_555
C53_2 N13 1_555 1_555
H38_2 C53_2 1_555 1_555
C50_2 C53_2 1_555 1_555

#END
