
###############################################################################
#
# This file contains modified crystal structure data generated from the
# MOF subset of the Cambridge Structural Database (CSD) v543 
# hosted by the Cambridge Crystallographic Data Centre (CCDC).
#
# This work is licensed under the Creative Commons
# Attribution-NonCommercial-ShareAlike 4.0 International License.
# To view a copy of this license, visit
# http://creativecommons.org/licenses/by-nc-sa/4.0/
# or send a letter to
# Creative Commons, PO Box 1866, Mountain View, CA 94042, USA.
#
# CIF created using the CSD Python API on 29 September 2022
# The structure has been converted into the P1 space group
# The structure has a 3D framework
# The original CSD entry WEQBAY is in the monoclinic crystal system
# The framework has been calculated to contain at least 10.0% void space
# The void calculation uses a probe of radius 1.32A, grid spacing 0.4
#
###############################################################################

data_WEQBAY
_chemical_formula_moiety         '(C36 H16 N16 O6 Zn4)n'
_symmetry_cell_setting           triclinic
_symmetry_space_group_name_H-M   'P 1'
_symmetry_Int_Tables_number      1
_space_group_name_Hall           'P 1'
loop_
_symmetry_equiv_pos_site_id
_symmetry_equiv_pos_as_xyz
1 x,y,z
_cell_length_a                   9.3065(13)
_cell_length_b                   14.8965(10)
_cell_length_c                   9.6032(11)
_cell_angle_alpha                90
_cell_angle_beta                 117.587(17)
_cell_angle_gamma                90
_cell_volume                     1179.97
loop_
_atom_site_label
_atom_site_type_symbol
_atom_site_fract_x
_atom_site_fract_y
_atom_site_fract_z
Zn4 Zn 0.09585(11) 0.63573(5) 0.23183(10)
O2 O 0.5024(9) 0.0260(4) 0.2335(7)
Zn3 Zn 0.40415(11) 0.13573(5) 0.26817(10)
Zn1 Zn 0.59585(11) 0.86427(5) 0.73183(10)
O1 O 0.7792(9) 0.7490(4) 0.6100(7)
N1 N 0.6642(8) 0.8837(4) 0.5689(7)
N2 N 0.5778(12) 0.9502(6) 0.4558(11)
H1 H 0.5383 0.9929 0.4878
N3 N 0.9070(8) 0.7214(4) 0.1301(7)
C1 C 0.5477(12) 0.9565(5) 0.3003(11)
C2 C 0.6373(9) 0.8887(4) 0.2613(8)
C3 C 0.7317(10) 0.8246(5) 0.3731(9)
C4 C 0.7304(10) 0.8157(5) 0.5297(9)
C5 C 0.8276(10) 0.7643(5) 0.3411(9)
H2 H 0.8920 0.7221 0.4153
C6 C 0.8238(9) 0.7693(5) 0.1940(9)
C7 C 0.6307(9) 0.8923(4) 0.1144(9)
H3 H 0.5660 0.9341 0.0397
C8 C 0.7239(9) 0.8314(5) 0.0829(9)
O3 O 0.4976(9) 0.9740(4) 0.7665(7)
N5 N 0.4070(8) 0.7786(4) 0.6301(7)
N6 N 0.7398(7) 0.8198(4) 0.9464(7)
C9 C 0.8489(10) 0.7545(5) 0.9837(10)
H4 H 0.8829 0.7331 0.9128
O3_2 O 0.0024(9) 0.4740(4) 0.7335(7)
N5_2 N 0.0930(8) 0.2786(4) 0.8699(7)
O2_2 O 0.9976(9) 0.5260(4) 0.2665(7)
N2_2 N 0.9222(12) 0.4502(6) 0.0442(11)
H1_2 H 0.9617 0.4929 0.0122
N3_2 N 0.5930(8) 0.2214(4) 0.3699(7)
N4 N 0.7602(7) 0.3198(4) 0.5536(7)
C1_2 C 0.9523(12) 0.4565(5) 0.1997(11)
C2_2 C 0.8627(9) 0.3887(4) 0.2387(8)
C3_2 C 0.7683(10) 0.3246(5) 0.1269(9)
C5_2 C 0.6724(10) 0.2643(5) 0.1589(9)
H2_2 H 0.6080 0.2221 0.0847
C6_2 C 0.6762(9) 0.2693(5) 0.3060(9)
C7_2 C 0.8693(9) 0.3923(4) 0.3856(9)
H3_2 H 0.9340 0.4341 0.4603
C8_2 C 0.7761(9) 0.3314(5) 0.4171(9)
C9_2 C 0.6511(10) 0.2545(5) 0.5163(10)
H4_2 H 0.6171 0.2331 0.5872
Zn2 Zn 0.90415(11) 0.36427(5) 0.76817(10)
O1_2 O 0.7208(9) 0.2490(4) 0.8900(7)
N1_2 N 0.8358(8) 0.3837(4) 0.9311(7)
C4_2 C 0.7696(10) 0.3157(5) 0.9703(9)
N4_2 N 0.2602(7) 0.1802(4) 0.0536(7)
C9_3 C 0.1511(10) 0.2455(5) 0.0163(10)
H4_3 H 0.1171 0.2669 0.0872
O1_3 O 0.2208(9) 0.2510(4) 0.3900(7)
N1_3 N 0.3358(8) 0.1163(4) 0.4311(7)
N2_3 N 0.4222(12) 0.0498(6) 0.5442(11)
H1_3 H 0.4617 0.0071 0.5122
C1_3 C 0.4523(12) 0.0435(5) 0.6997(11)
C2_3 C 0.3627(9) 0.1113(4) 0.7387(8)
C3_3 C 0.2683(10) 0.1754(5) 0.6269(9)
C4_3 C 0.2696(10) 0.1843(5) 0.4703(9)
C5_3 C 0.1724(10) 0.2357(5) 0.6589(9)
H2_3 H 0.1080 0.2779 0.5847
C6_3 C 0.1762(9) 0.2307(5) 0.8060(9)
C7_3 C 0.3693(9) 0.1077(4) 0.8856(9)
H3_3 H 0.4340 0.0659 0.9603
C8_3 C 0.2761(9) 0.1686(5) 0.9171(9)
O1_4 O 0.2792(9) 0.7510(4) 0.1100(7)
N1_4 N 0.1642(8) 0.6163(4) 0.0689(7)
C4_4 C 0.2304(10) 0.6843(5) 0.0297(9)
N6_2 N 0.2398(7) 0.6802(4) 0.4464(7)
N2_4 N 0.0778(12) 0.5498(6) 0.9558(11)
H1_4 H 0.0383 0.5071 0.9878
C1_4 C 0.0477(12) 0.5435(5) 0.8003(11)
C2_4 C 0.1373(9) 0.6113(4) 0.7613(8)
C3_4 C 0.2317(10) 0.6754(5) 0.8731(9)
C5_4 C 0.3276(10) 0.7357(5) 0.8411(9)
H2_4 H 0.3920 0.7779 0.9153
C6_4 C 0.3238(9) 0.7307(5) 0.6940(9)
C7_4 C 0.1307(9) 0.6077(4) 0.6144(9)
H3_4 H 0.0660 0.5659 0.5397
C8_4 C 0.2239(9) 0.6686(5) 0.5829(9)
C9_4 C 0.3489(10) 0.7455(5) 0.4837(10)
H4_4 H 0.3829 0.7669 0.4128
loop_
_geom_bond_atom_site_label_1
_geom_bond_atom_site_label_2
_geom_bond_site_symmetry_1
_geom_bond_site_symmetry_2
Zn3 O2 1_555 1_555
Zn1 N1 1_555 1_555
O1 C4 1_555 1_555
N1 N2 1_555 1_555
N2 H1 1_555 1_555
N3 C6 1_555 1_555
C1 N2 1_555 1_555
C2 C1 1_555 1_555
C3 C2 1_555 1_555
C4 N1 1_555 1_555
C5 C3 1_555 1_555
H2 C5 1_555 1_555
C6 C5 1_555 1_555
C7 C2 1_555 1_555
H3 C7 1_555 1_555
C8 C6 1_555 1_555
O3 Zn1 1_555 1_555
N5 Zn1 1_555 1_555
N6 Zn1 1_555 1_555
C3 C4 1_555 1_555
C7 C8 1_555 1_555
H4 C9 1_555 1_555
N6 C9 1_555 1_555
O2_2 C1_2 1_555 1_555
N2_2 H1_2 1_555 1_555
N3_2 C6_2 1_555 1_555
N4 C8_2 1_555 1_555
C1_2 N2_2 1_555 1_555
C2_2 C1_2 1_555 1_555
C3_2 C2_2 1_555 1_555
C5_2 C3_2 1_555 1_555
H2_2 C5_2 1_555 1_555
C6_2 C5_2 1_555 1_555
C7_2 C2_2 1_555 1_555
H3_2 C7_2 1_555 1_555
C8_2 C6_2 1_555 1_555
C9_2 N3_2 1_555 1_555
H4_2 C9_2 1_555 1_555
Zn2 N4 1_555 1_555
Zn3 N3_2 1_555 1_555
N4 C9_2 1_555 1_555
C7_2 C8_2 1_555 1_555
Zn2 N1_2 1_555 1_555
O1_2 C4_2 1_555 1_555
C4_2 N1_2 1_555 1_555
H4_3 C9_3 1_555 1_555
Zn3 N4_2 1_555 1_555
N4_2 C9_3 1_555 1_555
Zn3 N1_3 1_555 1_555
O1_3 C4_3 1_555 1_555
N1_3 N2_3 1_555 1_555
N2_3 H1_3 1_555 1_555
N5_2 C6_3 1_555 1_555
C1_3 N2_3 1_555 1_555
C2_3 C1_3 1_555 1_555
C3_3 C2_3 1_555 1_555
C4_3 N1_3 1_555 1_555
C5_3 C3_3 1_555 1_555
H2_3 C5_3 1_555 1_555
C6_3 C5_3 1_555 1_555
C7_3 C2_3 1_555 1_555
H3_3 C7_3 1_555 1_555
C8_3 C6_3 1_555 1_555
C3_3 C4_3 1_555 1_555
C7_3 C8_3 1_555 1_555
Zn4 N1_4 1_555 1_555
O1_4 C4_4 1_555 1_555
C4_4 N1_4 1_555 1_555
N6_2 Zn4 1_555 1_555
O3_2 C1_4 1_555 1_555
N2_4 H1_4 1_555 1_555
N5 C6_4 1_555 1_555
N6_2 C8_4 1_555 1_555
C1_4 N2_4 1_555 1_555
C2_4 C1_4 1_555 1_555
C3_4 C2_4 1_555 1_555
C5_4 C3_4 1_555 1_555
H2_4 C5_4 1_555 1_555
C6_4 C5_4 1_555 1_555
C7_4 C2_4 1_555 1_555
H3_4 C7_4 1_555 1_555
C8_4 C6_4 1_555 1_555
C9_4 N5 1_555 1_555
H4_4 C9_4 1_555 1_555
N6_2 C9_4 1_555 1_555
C7_4 C8_4 1_555 1_555

#END
