
###############################################################################
#
# This file contains modified crystal structure data generated from the
# MOF subset of the Cambridge Structural Database (CSD) v543 
# hosted by the Cambridge Crystallographic Data Centre (CCDC).
#
# This work is licensed under the Creative Commons
# Attribution-NonCommercial-ShareAlike 4.0 International License.
# To view a copy of this license, visit
# http://creativecommons.org/licenses/by-nc-sa/4.0/
# or send a letter to
# Creative Commons, PO Box 1866, Mountain View, CA 94042, USA.
#
# CIF created using the CSD Python API on 29 September 2022
# The structure has been converted into the P1 space group
# The structure has a 3D framework
# The original CSD entry WEQQUH is in the monoclinic crystal system
# The framework has been calculated to contain at least 10.0% void space
# The void calculation uses a probe of radius 1.32A, grid spacing 0.4
#
###############################################################################

data_WEQQUH
_chemical_formula_moiety         '(C144 H72 N24 O48 Sc8)n'
_symmetry_cell_setting           triclinic
_symmetry_space_group_name_H-M   'P 1'
_symmetry_Int_Tables_number      1
_space_group_name_Hall           'P 1'
loop_
_symmetry_equiv_pos_site_id
_symmetry_equiv_pos_as_xyz
1 x,y,z
_cell_length_a                   8.8618(4)
_cell_length_b                   48.6247(16)
_cell_length_c                   14.5573(6)
_cell_angle_alpha                90
_cell_angle_beta                 102.581(4)
_cell_angle_gamma                90
_cell_volume                     6122.16
loop_
_atom_site_label
_atom_site_type_symbol
_atom_site_fract_x
_atom_site_fract_y
_atom_site_fract_z
Sc8 Sc 0.000000 0.38168(2) 0.250000
O11 O 0.1108(4) 0.38172(12) 0.1434(2)
O12 O 0.3478(4) 0.37256(10) 0.1203(2)
C31 C 0.2063(6) 0.37721(15) 0.0927(3)
Sc4 Sc 0.500000 0.37170(2) 0.250000
O1 O 0.6243(4) 0.40107(8) 0.2002(4)
O2 O 0.8543(3) 0.41269(7) 0.1828(3)
O3 O 0.3781(4) 0.34181(7) 0.2996(3)
O4 O 0.1407(4) 0.35169(9) 0.3168(4)
N1 N 0.4331(5) 0.47033(15) 0.0564(7)
N2 N 0.3799(7) 0.26998(17) 0.4441(9)
C1 C 0.7135(5) 0.41646(11) 0.1717(5)
C2 C 0.6472(6) 0.44178(12) 0.1201(6)
C3 C 0.4938(6) 0.44779(15) 0.1071(8)
H1 H 0.429781 0.436403 0.133083
C4 C 0.7386(7) 0.45895(16) 0.0825(8)
H2 H 0.842907 0.454821 0.089072
C5 C 0.6803(6) 0.48203(15) 0.0354(8)
H3 H 0.744161 0.493990 0.011588
C6 C 0.5308(6) 0.48720(16) 0.0241(8)
C7 C 0.2597(6) 0.33696(11) 0.3291(5)
C8 C 0.2541(6) 0.31087(13) 0.3801(6)
C9 C 0.3777(7) 0.29354(15) 0.3951(8)
H4 H 0.463287 0.298100 0.370898
C10 C 0.1274(8) 0.30370(17) 0.4130(9)
H5 H 0.041854 0.315284 0.402190
C11 C 0.1233(8) 0.27959(17) 0.4623(9)
H6 H 0.038040 0.274876 0.486566
C12 C 0.2489(8) 0.26312(18) 0.4737(10)
C16 C 0.0134(7) 0.3816(2) 0.5465(4)
H8 H 0.080638 0.384142 0.506318
C17 C 0.0695(7) 0.3812(2) 0.6412(3)
H9 H 0.175049 0.382888 0.666179
O9 O 0.1219(4) 0.15819(7) 0.7004(3)
O10 O 0.3593(4) 0.14831(9) 0.6832(4)
N5 N 0.1201(7) 0.23002(17) 0.5559(9)
C25 C 0.2403(6) 0.16304(11) 0.6709(5)
C26 C 0.2459(6) 0.18913(13) 0.6199(6)
C27 C 0.1223(7) 0.20646(15) 0.6049(8)
H13 H 0.036713 0.201900 0.629102
C28 C 0.3726(8) 0.19630(17) 0.5870(9)
H14 H 0.458146 0.184716 0.597810
C29 C 0.3767(8) 0.22041(17) 0.5377(9)
H15 H 0.461960 0.225124 0.513434
C30 C 0.2511(8) 0.23688(18) 0.5263(10)
N6 N 0.1837(7) 0.3772(2) 0.8346(3)
C32 C 0.1423(7) 0.3782(2) 0.9902(3)
C33 C 0.2388(8) 0.3763(2) 0.9292(4)
H16 H 0.344552 0.374315 0.952812
C36 C 0.0294(7) 0.3783(3) 0.8024(4)
Sc6 Sc 0.000000 0.12830(2) 0.750000
Sc8_2 Sc 1.000000 0.38168(2) 0.250000
Sc10 Sc 0.500000 0.11832(2) 0.750000
O13 O 0.3757(4) 0.40107(8) 0.2998(4)
O15 O 0.1457(3) 0.41269(7) 0.3172(3)
O16 O 0.6219(4) 0.34181(7) 0.2004(3)
O19 O 0.6522(4) 0.37256(10) 0.3797(2)
O7 O 0.3757(4) 0.59893(8) 0.7998(4)
O8 O 0.1457(3) 0.58731(7) 0.8172(3)
N4 N 0.5669(5) 0.52967(15) 0.9436(7)
C19 C 0.2865(5) 0.58354(11) 0.8283(5)
C20 C 0.3528(6) 0.55822(12) 0.8799(6)
C21 C 0.5062(6) 0.55221(15) 0.8929(8)
H10 H 0.570219 0.563597 0.866917
C22 C 0.2614(7) 0.54105(16) 0.9175(8)
H11 H 0.157093 0.545179 0.910928
C23 C 0.3197(6) 0.51797(15) 0.9646(8)
H12 H 0.255839 0.506010 0.988412
C24 C 0.4692(6) 0.51280(16) 0.9759(8)
Sc5 Sc 0.500000 0.62830(2) 0.750000
Sc9 Sc 0.000000 0.61832(2) 0.750000
O5 O 0.8892(4) 0.38172(12) 0.3566(2)
N3 N 0.8163(7) 0.3772(2) 0.6654(3)
C13 C 0.7937(6) 0.37721(15) 0.4073(3)
C14 C 0.8577(7) 0.3782(2) 0.5098(3)
C15 C 0.7612(8) 0.3763(2) 0.5708(4)
H7 H 0.655448 0.374315 0.547188
C18 C 0.9706(7) 0.3783(3) 0.6976(4)
C34 C 0.9866(7) 0.3816(2) 0.9535(4)
H17 H 0.919362 0.384142 0.993682
C35 C 0.9305(7) 0.3812(2) 0.8588(3)
H18 H 0.824951 0.382888 0.833821
Sc6_2 Sc 1.000000 0.12830(2) 0.750000
O17 O 0.8593(4) 0.35169(9) 0.1832(4)
Sc9_2 Sc 1.000000 0.61832(2) 0.750000
N1_2 N 0.5669(5) 0.47033(15) 0.4436(7)
N2_2 N 0.6201(7) 0.26998(17) 0.0559(9)
C1_2 C 0.2865(5) 0.41646(11) 0.3283(5)
C2_2 C 0.3528(6) 0.44178(12) 0.3799(6)
C3_2 C 0.5062(6) 0.44779(15) 0.3929(8)
H1_2 H 0.570219 0.436403 0.366917
C4_2 C 0.2614(7) 0.45895(16) 0.4175(8)
H2_2 H 0.157093 0.454821 0.410928
C5_2 C 0.3197(6) 0.48203(15) 0.4646(8)
H3_2 H 0.255839 0.493990 0.488412
C6_2 C 0.4692(6) 0.48720(16) 0.4759(8)
C7_2 C 0.7403(6) 0.33696(11) 0.1709(5)
C8_2 C 0.7459(6) 0.31087(13) 0.1199(6)
C9_2 C 0.6223(7) 0.29354(15) 0.1049(8)
H4_2 H 0.536713 0.298100 0.129102
C10_2 C 0.8726(8) 0.30370(17) 0.0870(9)
H5_2 H 0.958146 0.315284 0.097810
C11_2 C 0.8767(8) 0.27959(17) 0.0377(9)
H6_2 H 0.961960 0.274876 0.013434
C12_2 C 0.7511(8) 0.26312(18) 0.0263(10)
O7_2 O 0.6243(4) 0.59893(8) 0.7002(4)
O8_2 O 0.8543(3) 0.58731(7) 0.6828(3)
N4_2 N 0.4331(5) 0.52967(15) 0.5564(7)
C19_2 C 0.7135(5) 0.58354(11) 0.6717(5)
C20_2 C 0.6472(6) 0.55822(12) 0.6201(6)
C21_2 C 0.4938(6) 0.55221(15) 0.6071(8)
H10_2 H 0.429781 0.563597 0.633083
C22_2 C 0.7386(7) 0.54105(16) 0.5825(8)
H11_2 H 0.842907 0.545179 0.589072
C23_2 C 0.6803(6) 0.51797(15) 0.5354(8)
H12_2 H 0.744161 0.506010 0.511588
C24_2 C 0.5308(6) 0.51280(16) 0.5241(8)
O9_2 O 0.8781(4) 0.15819(7) 0.7996(3)
O10_2 O 0.6407(4) 0.14831(9) 0.8168(4)
N5_2 N 0.8799(7) 0.23002(17) 0.9441(9)
C25_2 C 0.7597(6) 0.16304(11) 0.8291(5)
C26_2 C 0.7541(6) 0.18913(13) 0.8801(6)
C27_2 C 0.8777(7) 0.20646(15) 0.8951(8)
H13_2 H 0.963287 0.201900 0.870898
C28_2 C 0.6274(8) 0.19630(17) 0.9130(9)
H14_2 H 0.541854 0.184716 0.902190
C29_2 C 0.6233(8) 0.22041(17) 0.9623(9)
H15_2 H 0.538040 0.225124 0.986566
C30_2 C 0.7489(8) 0.23688(18) 0.9737(10)
N4_3 N 0.0669(5) 0.02967(15) 0.9436(7)
C21_3 C 0.0062(6) 0.05221(15) 0.8929(8)
H10_3 H 0.070219 0.063597 0.866917
Sc4_2 Sc 0.000000 0.87170(2) 0.250000
O1_2 O 0.1243(4) 0.90107(8) 0.2002(4)
O2_2 O 0.3543(3) 0.91269(7) 0.1828(3)
C1_3 C 0.2135(5) 0.91646(11) 0.1717(5)
C2_3 C 0.1472(6) 0.94178(12) 0.1201(6)
C4_3 C 0.2386(7) 0.95895(16) 0.0825(8)
H2_3 H 0.342907 0.954821 0.089072
C5_3 C 0.1803(6) 0.98203(15) 0.0354(8)
H3_3 H 0.244161 0.993990 0.011588
C6_3 C 0.0308(6) 0.98720(16) 0.0241(8)
Sc8_3 Sc 0.500000 0.88168(2) 0.250000
O16_2 O 0.1219(4) 0.84181(7) 0.2004(3)
O19_2 O 0.1522(4) 0.87256(10) 0.3797(2)
O7_3 O 0.8757(4) 0.09893(8) 0.7998(4)
O8_3 O 0.6457(3) 0.08731(7) 0.8172(3)
C19_3 C 0.7865(5) 0.08354(11) 0.8283(5)
C20_3 C 0.8528(6) 0.05822(12) 0.8799(6)
C22_3 C 0.7614(7) 0.04105(16) 0.9175(8)
H11_3 H 0.657093 0.045179 0.910928
C23_3 C 0.8197(6) 0.01797(15) 0.9646(8)
H12_3 H 0.755839 0.006010 0.988412
C24_3 C 0.9692(6) 0.01280(16) 0.9759(8)
O11_2 O 0.6108(4) 0.88172(12) 0.1434(2)
O12_2 O 0.8478(4) 0.87256(10) 0.1203(2)
C31_2 C 0.7063(6) 0.87721(15) 0.0927(3)
Sc4_3 Sc 1.000000 0.87170(2) 0.250000
O3_2 O 0.8781(4) 0.84181(7) 0.2996(3)
O4_2 O 0.6407(4) 0.85169(9) 0.3168(4)
O5_2 O 0.3892(4) 0.88172(12) 0.3566(2)
N1_3 N 0.9331(5) 0.97033(15) 0.0564(7)
N2_3 N 0.8799(7) 0.76998(17) 0.4441(9)
N3_2 N 0.3163(7) 0.8772(2) 0.6654(3)
C3_3 C 0.9938(6) 0.94779(15) 0.1071(8)
H1_3 H 0.929781 0.936403 0.133083
C7_3 C 0.7597(6) 0.83696(11) 0.3291(5)
C8_3 C 0.7541(6) 0.81087(13) 0.3801(6)
C9_3 C 0.8777(7) 0.79354(15) 0.3951(8)
H4_3 H 0.963287 0.798100 0.370898
C10_3 C 0.6274(8) 0.80370(17) 0.4130(9)
H5_3 H 0.541854 0.815284 0.402190
C11_3 C 0.6233(8) 0.77959(17) 0.4623(9)
H6_3 H 0.538040 0.774876 0.486566
C12_3 C 0.7489(8) 0.76312(18) 0.4737(10)
C13_2 C 0.2937(6) 0.87721(15) 0.4073(3)
C14_2 C 0.3577(7) 0.8782(2) 0.5098(3)
C15_2 C 0.2612(8) 0.8763(2) 0.5708(4)
H7_2 H 0.155448 0.874315 0.547188
C16_2 C 0.5134(7) 0.8816(2) 0.5465(4)
H8_2 H 0.580638 0.884142 0.506318
C17_2 C 0.5695(7) 0.8812(2) 0.6412(3)
H9_2 H 0.675049 0.882888 0.666179
C18_2 C 0.4706(7) 0.8783(3) 0.6976(4)
O9_3 O 0.6219(4) 0.65819(7) 0.7004(3)
O10_3 O 0.8593(4) 0.64831(9) 0.6832(4)
N5_3 N 0.6201(7) 0.73002(17) 0.5559(9)
C25_3 C 0.7403(6) 0.66304(11) 0.6709(5)
C26_3 C 0.7459(6) 0.68913(13) 0.6199(6)
C27_3 C 0.6223(7) 0.70646(15) 0.6049(8)
H13_3 H 0.536713 0.701900 0.629102
C28_3 C 0.8726(8) 0.69630(17) 0.5870(9)
H14_3 H 0.958146 0.684716 0.597810
C29_3 C 0.8767(8) 0.72041(17) 0.5377(9)
H15_3 H 0.961960 0.725124 0.513434
C30_3 C 0.7511(8) 0.73688(18) 0.5263(10)
N6_2 N 0.6837(7) 0.8772(2) 0.8346(3)
C32_2 C 0.6423(7) 0.8782(2) 0.9902(3)
C33_2 C 0.7388(8) 0.8763(2) 0.9292(4)
H16_2 H 0.844552 0.874315 0.952812
C34_2 C 0.4866(7) 0.8816(2) 0.9535(4)
H17_2 H 0.419362 0.884142 0.993682
C35_2 C 0.4305(7) 0.8812(2) 0.8588(3)
H18_2 H 0.324951 0.882888 0.833821
C36_2 C 0.5294(7) 0.8783(3) 0.8024(4)
O13_2 O 0.8757(4) 0.90107(8) 0.2998(4)
O15_2 O 0.6457(3) 0.91269(7) 0.3172(3)
O17_2 O 0.3593(4) 0.85169(9) 0.1832(4)
O7_4 O 0.1243(4) 0.09893(8) 0.7002(4)
O8_4 O 0.3543(3) 0.08731(7) 0.6828(3)
C19_4 C 0.2135(5) 0.08354(11) 0.6717(5)
C20_4 C 0.1472(6) 0.05822(12) 0.6201(6)
C22_4 C 0.2386(7) 0.04105(16) 0.5825(8)
H11_4 H 0.342907 0.045179 0.589072
C23_4 C 0.1803(6) 0.01797(15) 0.5354(8)
H12_4 H 0.244161 0.006010 0.511588
C24_4 C 0.0308(6) 0.01280(16) 0.5241(8)
N1_4 N 0.0669(5) 0.97033(15) 0.4436(7)
N2_4 N 0.1201(7) 0.76998(17) 0.0559(9)
C3_4 C 0.0062(6) 0.94779(15) 0.3929(8)
H1_4 H 0.070219 0.936403 0.366917
C7_4 C 0.2403(6) 0.83696(11) 0.1709(5)
C8_4 C 0.2459(6) 0.81087(13) 0.1199(6)
C9_4 C 0.1223(7) 0.79354(15) 0.1049(8)
H4_4 H 0.036713 0.798100 0.129102
C10_4 C 0.3726(8) 0.80370(17) 0.0870(9)
H5_4 H 0.458146 0.815284 0.097810
C11_4 C 0.3767(8) 0.77959(17) 0.0377(9)
H6_4 H 0.461960 0.774876 0.013434
C12_4 C 0.2511(8) 0.76312(18) 0.0263(10)
O9_4 O 0.3781(4) 0.65819(7) 0.7996(3)
O10_4 O 0.1407(4) 0.64831(9) 0.8168(4)
N5_4 N 0.3799(7) 0.73002(17) 0.9441(9)
C25_4 C 0.2597(6) 0.66304(11) 0.8291(5)
C26_4 C 0.2541(6) 0.68913(13) 0.8801(6)
C27_4 C 0.3777(7) 0.70646(15) 0.8951(8)
H13_4 H 0.463287 0.701900 0.870898
C28_4 C 0.1274(8) 0.69630(17) 0.9130(9)
H14_4 H 0.041854 0.684716 0.902190
C29_4 C 0.1233(8) 0.72041(17) 0.9623(9)
H15_4 H 0.038040 0.725124 0.986566
C30_4 C 0.2489(8) 0.73688(18) 0.9737(10)
N4_4 N 0.9331(5) 0.02967(15) 0.5564(7)
C21_4 C 0.9938(6) 0.05221(15) 0.6071(8)
H10_4 H 0.929781 0.063597 0.633083
C1_4 C 0.7865(5) 0.91646(11) 0.3283(5)
C2_4 C 0.8528(6) 0.94178(12) 0.3799(6)
C4_4 C 0.7614(7) 0.95895(16) 0.4175(8)
H2_4 H 0.657093 0.954821 0.410928
C5_4 C 0.8197(6) 0.98203(15) 0.4646(8)
H3_4 H 0.755839 0.993990 0.488412
C6_4 C 0.9692(6) 0.98720(16) 0.4759(8)
O5_3 O 0.1108(4) 0.61828(12) 0.6434(2)
O6 O 0.3478(4) 0.62744(10) 0.6203(2)
N3_3 N 0.1837(7) 0.6228(2) 0.3346(3)
C13_3 C 0.2063(6) 0.62279(15) 0.5927(3)
C14_3 C 0.1423(7) 0.6218(2) 0.4902(3)
C15_3 C 0.2388(8) 0.6237(2) 0.4292(4)
H7_3 H 0.344552 0.625685 0.452812
C18_3 C 0.0294(7) 0.6217(3) 0.3024(4)
C34_3 C 0.0134(7) 0.6184(2) 0.0465(4)
H17_3 H 0.080638 0.615858 0.006318
C35_3 C 0.0695(7) 0.6188(2) 0.1412(3)
H18_3 H 0.175049 0.617112 0.166179
C16_3 C 0.9866(7) 0.6184(2) 0.4535(4)
H8_3 H 0.919362 0.615858 0.493682
C17_3 C 0.9305(7) 0.6188(2) 0.3588(3)
H9_3 H 0.824951 0.617112 0.333821
N6_3 N 0.8163(7) 0.6228(2) 0.1654(3)
C32_3 C 0.8577(7) 0.6218(2) 0.0098(3)
C33_3 C 0.7612(8) 0.6237(2) 0.0708(4)
H16_3 H 0.655448 0.625685 0.047188
C36_3 C 0.9706(7) 0.6217(3) 0.1976(4)
O18 O 0.8892(4) 0.61828(12) 0.8566(2)
O20 O 0.6522(4) 0.62744(10) 0.8797(2)
C31_3 C 0.7937(6) 0.62279(15) 0.9073(3)
O5_4 O 0.6108(4) 0.11828(12) 0.6434(2)
O6_2 O 0.8478(4) 0.12744(10) 0.6203(2)
N3_4 N 0.6837(7) 0.1228(2) 0.3346(3)
C13_4 C 0.7063(6) 0.12279(15) 0.5927(3)
C14_4 C 0.6423(7) 0.1218(2) 0.4902(3)
C15_4 C 0.7388(8) 0.1237(2) 0.4292(4)
H7_4 H 0.844552 0.125685 0.452812
C16_4 C 0.4866(7) 0.1184(2) 0.4535(4)
H8_4 H 0.419362 0.115858 0.493682
C17_4 C 0.4305(7) 0.1188(2) 0.3588(3)
H9_4 H 0.324951 0.117112 0.333821
C18_4 C 0.5294(7) 0.1217(3) 0.3024(4)
N6_4 N 0.3163(7) 0.1228(2) 0.1654(3)
C32_4 C 0.3577(7) 0.1218(2) 0.0098(3)
C33_4 C 0.2612(8) 0.1237(2) 0.0708(4)
H16_4 H 0.155448 0.125685 0.047188
C34_4 C 0.5134(7) 0.1184(2) 0.0465(4)
H17_4 H 0.580638 0.115858 0.006318
C35_4 C 0.5695(7) 0.1188(2) 0.1412(3)
H18_4 H 0.675049 0.117112 0.166179
C36_4 C 0.4706(7) 0.1217(3) 0.1976(4)
O18_2 O 0.3892(4) 0.11828(12) 0.8566(2)
O20_2 O 0.1522(4) 0.12744(10) 0.8797(2)
C31_4 C 0.2937(6) 0.12279(15) 0.9073(3)
loop_
_geom_bond_atom_site_label_1
_geom_bond_atom_site_label_2
_geom_bond_site_symmetry_1
_geom_bond_site_symmetry_2
O11 C31 1_555 1_555
O12 C31 1_555 1_555
Sc4 O12 1_555 1_555
Sc8 O11 1_555 1_555
Sc4 O1 1_555 1_555
Sc8 O4 1_555 1_555
O1 C1 1_555 1_555
O2 C1 1_555 1_555
O3 Sc4 1_555 1_555
O4 C7 1_555 1_555
N1 C3 1_555 1_555
N2 C9 1_555 1_555
C1 C2 1_555 1_555
C2 C3 1_555 1_555
C3 H1 1_555 1_555
C4 C2 1_555 1_555
H2 C4 1_555 1_555
C5 C4 1_555 1_555
H3 C5 1_555 1_555
C6 N1 1_555 1_555
C7 O3 1_555 1_555
C8 C7 1_555 1_555
C9 C8 1_555 1_555
H4 C9 1_555 1_555
C10 C8 1_555 1_555
H5 C10 1_555 1_555
C11 C10 1_555 1_555
H6 C11 1_555 1_555
C12 N2 1_555 1_555
H8 C16 1_555 1_555
C17 C16 1_555 1_555
H9 C17 1_555 1_555
O9 C25 1_555 1_555
O10 C25 1_555 1_555
N5 C27 1_555 1_555
C25 C26 1_555 1_555
C26 C27 1_555 1_555
C27 H13 1_555 1_555
C28 C26 1_555 1_555
H14 C28 1_555 1_555
C29 C28 1_555 1_555
H15 C29 1_555 1_555
C30 C12 1_555 1_555
N6 C33 1_555 1_555
C32 C33 1_555 1_555
C33 H16 1_555 1_555
Sc6 O9 1_555 1_555
Sc8_2 O2 1_555 1_555
Sc10 O10 1_555 1_555
O13 Sc4 1_555 1_555
O15 Sc8 1_555 1_555
O16 Sc4 1_555 1_555
O19 Sc4 1_555 1_555
C5 C6 1_555 1_555
C11 C12 1_555 1_555
N5 C30 1_555 1_555
C29 C30 1_555 1_555
N6 C36 1_555 1_555
O7 C19 1_555 1_555
O8 C19 1_555 1_555
N4 C21 1_555 1_555
C19 C20 1_555 1_555
C20 C21 1_555 1_555
C21 H10 1_555 1_555
C22 C20 1_555 1_555
H11 C22 1_555 1_555
C23 C22 1_555 1_555
H12 C23 1_555 1_555
Sc5 O7 1_555 1_555
Sc9 O8 1_555 1_555
N4 C24 1_555 1_555
C23 C24 1_555 1_555
O5 Sc8_2 1_555 1_555
O19 C13 1_555 1_555
N3 C15 1_555 1_555
C13 O5 1_555 1_555
C14 C13 1_555 1_555
C15 C14 1_555 1_555
H7 C15 1_555 1_555
C18 N3 1_555 1_555
H17 C34 1_555 1_555
C35 C34 1_555 1_555
H18 C35 1_555 1_555
O17 Sc8_2 1_555 1_555
O13 C1_2 1_555 1_555
O15 C1_2 1_555 1_555
O17 C7_2 1_555 1_555
N1_2 C3_2 1_555 1_555
N2_2 C9_2 1_555 1_555
C1_2 C2_2 1_555 1_555
C2_2 C3_2 1_555 1_555
C3_2 H1_2 1_555 1_555
C4_2 C2_2 1_555 1_555
H2_2 C4_2 1_555 1_555
C5_2 C4_2 1_555 1_555
H3_2 C5_2 1_555 1_555
C6_2 N1_2 1_555 1_555
C7_2 O16 1_555 1_555
C8_2 C7_2 1_555 1_555
C9_2 C8_2 1_555 1_555
H4_2 C9_2 1_555 1_555
C10_2 C8_2 1_555 1_555
H5_2 C10_2 1_555 1_555
C11_2 C10_2 1_555 1_555
H6_2 C11_2 1_555 1_555
C12_2 N2_2 1_555 1_555
O7_2 C19_2 1_555 1_555
O8_2 C19_2 1_555 1_555
N4_2 C21_2 1_555 1_555
C19_2 C20_2 1_555 1_555
C20_2 C21_2 1_555 1_555
C21_2 H10_2 1_555 1_555
C22_2 C20_2 1_555 1_555
H11_2 C22_2 1_555 1_555
C23_2 C22_2 1_555 1_555
H12_2 C23_2 1_555 1_555
C24_2 C6_2 1_555 1_555
Sc5 O7_2 1_555 1_555
Sc9_2 O8_2 1_555 1_555
C5_2 C6_2 1_555 1_555
C11_2 C12_2 1_555 1_555
N4_2 C24_2 1_555 1_555
C23_2 C24_2 1_555 1_555
O9_2 C25_2 1_555 1_555
O10_2 C25_2 1_555 1_555
N5_2 C27_2 1_555 1_555
C25_2 C26_2 1_555 1_555
C26_2 C27_2 1_555 1_555
C27_2 H13_2 1_555 1_555
C28_2 C26_2 1_555 1_555
H14_2 C28_2 1_555 1_555
C29_2 C28_2 1_555 1_555
H15_2 C29_2 1_555 1_555
Sc6_2 O9_2 1_555 1_555
Sc10 O10_2 1_555 1_555
N5_2 C30_2 1_555 1_555
C29_2 C30_2 1_555 1_555
N4_3 C21_3 1_555 1_555
C21_3 H10_3 1_555 1_555
Sc4_2 O1_2 1_555 1_555
O1_2 C1_3 1_555 1_555
O2_2 C1_3 1_555 1_555
C1_3 C2_3 1_555 1_555
C4_3 C2_3 1_555 1_555
H2_3 C4_3 1_555 1_555
C5_3 C4_3 1_555 1_555
H3_3 C5_3 1_555 1_555
Sc8_3 O2_2 1_555 1_555
O16_2 Sc4_2 1_555 1_555
O19_2 Sc4_2 1_555 1_555
C5_3 C6_3 1_555 1_555
O7_3 C19_3 1_555 1_555
O8_3 C19_3 1_555 1_555
C19_3 C20_3 1_555 1_555
C22_3 C20_3 1_555 1_555
H11_3 C22_3 1_555 1_555
C23_3 C22_3 1_555 1_555
H12_3 C23_3 1_555 1_555
Sc6_2 O7_3 1_555 1_555
Sc10 O8_3 1_555 1_555
C23_3 C24_3 1_555 1_555
O11_2 C31_2 1_555 1_555
O12_2 C31_2 1_555 1_555
Sc4_3 O12_2 1_555 1_555
Sc8_3 O11_2 1_555 1_555
Sc8_3 O4_2 1_555 1_555
O3_2 Sc4_3 1_555 1_555
O4_2 C7_3 1_555 1_555
O5_2 Sc8_3 1_555 1_555
O19_2 C13_2 1_555 1_555
N1_3 C3_3 1_555 1_555
N2_3 C9_3 1_555 1_555
N3_2 C15_2 1_555 1_555
C3_3 H1_3 1_555 1_555
C7_3 O3_2 1_555 1_555
C8_3 C7_3 1_555 1_555
C9_3 C8_3 1_555 1_555
H4_3 C9_3 1_555 1_555
C10_3 C8_3 1_555 1_555
H5_3 C10_3 1_555 1_555
C11_3 C10_3 1_555 1_555
H6_3 C11_3 1_555 1_555
C12_3 N2_3 1_555 1_555
C13_2 O5_2 1_555 1_555
C14_2 C13_2 1_555 1_555
C15_2 C14_2 1_555 1_555
H7_2 C15_2 1_555 1_555
C16_2 C14_2 1_555 1_555
H8_2 C16_2 1_555 1_555
C17_2 C16_2 1_555 1_555
H9_2 C17_2 1_555 1_555
C18_2 N3_2 1_555 1_555
O9_3 C25_3 1_555 1_555
O10_3 C25_3 1_555 1_555
N5_3 C27_3 1_555 1_555
C25_3 C26_3 1_555 1_555
C26_3 C27_3 1_555 1_555
C27_3 H13_3 1_555 1_555
C28_3 C26_3 1_555 1_555
H14_3 C28_3 1_555 1_555
C29_3 C28_3 1_555 1_555
H15_3 C29_3 1_555 1_555
C30_3 C12_3 1_555 1_555
N6_2 C33_2 1_555 1_555
C32_2 C33_2 1_555 1_555
C33_2 H16_2 1_555 1_555
C34_2 C32_2 1_555 1_555
H17_2 C34_2 1_555 1_555
C35_2 C34_2 1_555 1_555
H18_2 C35_2 1_555 1_555
C36_2 C18_2 1_555 1_555
Sc5 O9_3 1_555 1_555
Sc9_2 O10_3 1_555 1_555
O13_2 Sc4_3 1_555 1_555
O15_2 Sc8_3 1_555 1_555
O17_2 Sc8_3 1_555 1_555
C11_3 C12_3 1_555 1_555
C17_2 C18_2 1_555 1_555
N5_3 C30_3 1_555 1_555
C29_3 C30_3 1_555 1_555
N6_2 C36_2 1_555 1_555
C35_2 C36_2 1_555 1_555
O7_4 C19_4 1_555 1_555
O8_4 C19_4 1_555 1_555
C19_4 C20_4 1_555 1_555
C22_4 C20_4 1_555 1_555
H11_4 C22_4 1_555 1_555
C23_4 C22_4 1_555 1_555
H12_4 C23_4 1_555 1_555
Sc6 O7_4 1_555 1_555
Sc10 O8_4 1_555 1_555
C23_4 C24_4 1_555 1_555
O17_2 C7_4 1_555 1_555
N1_4 C3_4 1_555 1_555
N2_4 C9_4 1_555 1_555
C3_4 H1_4 1_555 1_555
C7_4 O16_2 1_555 1_555
C8_4 C7_4 1_555 1_555
C9_4 C8_4 1_555 1_555
H4_4 C9_4 1_555 1_555
C10_4 C8_4 1_555 1_555
H5_4 C10_4 1_555 1_555
C11_4 C10_4 1_555 1_555
H6_4 C11_4 1_555 1_555
C12_4 N2_4 1_555 1_555
C11_4 C12_4 1_555 1_555
O9_4 C25_4 1_555 1_555
O10_4 C25_4 1_555 1_555
N5_4 C27_4 1_555 1_555
C25_4 C26_4 1_555 1_555
C26_4 C27_4 1_555 1_555
C27_4 H13_4 1_555 1_555
C28_4 C26_4 1_555 1_555
H14_4 C28_4 1_555 1_555
C29_4 C28_4 1_555 1_555
H15_4 C29_4 1_555 1_555
Sc5 O9_4 1_555 1_555
Sc9 O10_4 1_555 1_555
N5_4 C30_4 1_555 1_555
C29_4 C30_4 1_555 1_555
N4_4 C21_4 1_555 1_555
C21_4 H10_4 1_555 1_555
O13_2 C1_4 1_555 1_555
O15_2 C1_4 1_555 1_555
C1_4 C2_4 1_555 1_555
C4_4 C2_4 1_555 1_555
H2_4 C4_4 1_555 1_555
C5_4 C4_4 1_555 1_555
H3_4 C5_4 1_555 1_555
C5_4 C6_4 1_555 1_555
O5_3 Sc9 1_555 1_555
O6 C13_3 1_555 1_555
N3_3 C15_3 1_555 1_555
C13_3 O5_3 1_555 1_555
C14_3 C13_3 1_555 1_555
C15_3 C14_3 1_555 1_555
H7_3 C15_3 1_555 1_555
C18_3 N3_3 1_555 1_555
H17_3 C34_3 1_555 1_555
C35_3 C34_3 1_555 1_555
H18_3 C35_3 1_555 1_555
Sc5 O6 1_555 1_555
H8_3 C16_3 1_555 1_555
C17_3 C16_3 1_555 1_555
H9_3 C17_3 1_555 1_555
N6_3 C33_3 1_555 1_555
C32_3 C33_3 1_555 1_555
C33_3 H16_3 1_555 1_555
O18 Sc9_2 1_555 1_555
O20 Sc5 1_555 1_555
N6_3 C36_3 1_555 1_555
O18 C31_3 1_555 1_555
O20 C31_3 1_555 1_555
O5_4 Sc10 1_555 1_555
O6_2 C13_4 1_555 1_555
N3_4 C15_4 1_555 1_555
C13_4 O5_4 1_555 1_555
C14_4 C13_4 1_555 1_555
C15_4 C14_4 1_555 1_555
H7_4 C15_4 1_555 1_555
C16_4 C14_4 1_555 1_555
H8_4 C16_4 1_555 1_555
C17_4 C16_4 1_555 1_555
H9_4 C17_4 1_555 1_555
C18_4 N3_4 1_555 1_555
N6_4 C33_4 1_555 1_555
C32_4 C33_4 1_555 1_555
C33_4 H16_4 1_555 1_555
C34_4 C32_4 1_555 1_555
H17_4 C34_4 1_555 1_555
C35_4 C34_4 1_555 1_555
H18_4 C35_4 1_555 1_555
C36_4 C18_4 1_555 1_555
Sc6_2 O6_2 1_555 1_555
O18_2 Sc10 1_555 1_555
O20_2 Sc6 1_555 1_555
C17_4 C18_4 1_555 1_555
N6_4 C36_4 1_555 1_555
C35_4 C36_4 1_555 1_555
O18_2 C31_4 1_555 1_555
O20_2 C31_4 1_555 1_555

#END
