
###############################################################################
#
# This file contains modified crystal structure data generated from the
# MOF subset of the Cambridge Structural Database (CSD) v543 
# hosted by the Cambridge Crystallographic Data Centre (CCDC).
#
# This work is licensed under the Creative Commons
# Attribution-NonCommercial-ShareAlike 4.0 International License.
# To view a copy of this license, visit
# http://creativecommons.org/licenses/by-nc-sa/4.0/
# or send a letter to
# Creative Commons, PO Box 1866, Mountain View, CA 94042, USA.
#
# CIF created using the CSD Python API on 29 September 2022
# The structure has been converted into the P1 space group
# The structure has a 3D framework
# The original CSD entry WEQRAO is in the hexagonal crystal system
# The framework has been calculated to contain at least 10.0% void space
# The void calculation uses a probe of radius 1.32A, grid spacing 0.4
# H atom positions have been added when not included in the experimental data
# Generated hydrogen atom positions removed from atoms on special positions
#
###############################################################################

data_WEQRAO
_chemical_formula_moiety         '(C72 H84 Cl12 Cu15 N12 O32 Sc6)n'
_symmetry_cell_setting           triclinic
_symmetry_space_group_name_H-M   'P 1'
_symmetry_Int_Tables_number      1
_space_group_name_Hall           'P 1'
loop_
_symmetry_equiv_pos_site_id
_symmetry_equiv_pos_as_xyz
1 x,y,z
_cell_length_a                   17.9930(10)
_cell_length_b                   17.9930(10)
_cell_length_c                   24.7387(11)
_cell_angle_alpha                90
_cell_angle_beta                 90
_cell_angle_gamma                120
_cell_volume                     6936.09
loop_
_atom_site_label
_atom_site_type_symbol
_atom_site_fract_x
_atom_site_fract_y
_atom_site_fract_z
Cu2 Cu 0.39274(11) 0.00000(16) 0.500000
O10 O 0.5459(3) 0.1755(4) 0.31198(16)
O11 O 0.6792(3) 0.1977(4) 0.31085(15)
N4 N 0.4963(5) 0.0430(7) 0.4557(3)
C19 C 0.6075(5) 0.1661(8) 0.3303(2)
C20 C 0.5907(5) 0.1160(7) 0.3818(3)
C21 C 0.5139(6) 0.0904(8) 0.4072(3)
H10 H 0.474325 0.103850 0.392783
C22 C 0.6501(8) 0.0935(11) 0.4003(4)
H11 H 0.702048 0.109773 0.383173
C23 C 0.6236(9) 0.0446(11) 0.4464(5)
H12 H 0.659783 0.025113 0.458436
C24 C 0.5553(6) 0.0212(8) 0.4758(4)
Cl5 Cl 0.3596(10) 0.0783(13) 0.4589(5)
Sc7 Sc 0.74695(13) 0.28592(9) 0.250000
Sc9 Sc 0.53897(9) 0.25305(13) 0.250000
Cu1 Cu 0.60726(11) 0.60726(11) 0.500000
Sc1 Sc 0.46103(9) 0.71408(9) 0.750000
Cl1 Cl 0.6404(10) 0.7187(9) 0.5411(5)
O1 O 0.5940(4) 0.7642(6) 0.750000
O2 O 0.333333 0.666667 0.750000
O3 O 0.4541(3) 0.6296(3) 0.68802(16)
O4 O 0.3208(3) 0.5185(3) 0.68915(15)
N1 N 0.5037(5) 0.5467(5) 0.5443(3)
C1 C 0.3925(5) 0.5586(6) 0.6697(2)
C2 C 0.4093(5) 0.5253(5) 0.6182(3)
C3 C 0.4861(6) 0.5765(5) 0.5928(3)
H1 H 0.525675 0.629525 0.607217
C4 C 0.3499(8) 0.4434(7) 0.5997(4)
H2 H 0.297952 0.407725 0.616827
C5 C 0.3764(9) 0.4210(7) 0.5536(5)
H3 H 0.340217 0.365330 0.541564
C6 C 0.4447(6) 0.4659(6) 0.5242(4)
O5 O 0.6296(3) 0.4541(3) 0.31198(16)
O6 O 0.5185(3) 0.3208(3) 0.31085(15)
N2 N 0.5467(5) 0.5037(5) 0.4557(3)
C7 C 0.5586(6) 0.3925(5) 0.3303(2)
C8 C 0.5253(5) 0.4093(5) 0.3818(3)
C9 C 0.5765(5) 0.4861(6) 0.4072(3)
H4 H 0.629525 0.525675 0.392783
C10 C 0.4434(7) 0.3499(8) 0.4003(4)
H5 H 0.407725 0.297952 0.383173
C11 C 0.4210(7) 0.3764(9) 0.4464(5)
H6 H 0.365330 0.340217 0.458436
C12 C 0.4659(6) 0.4447(6) 0.4758(4)
Cu2_2 Cu 0.39274(11) 1.00000(16) 0.500000
Sc2 Sc 0.28592(9) 0.74695(13) 0.750000
Cl2 Cl 0.2813(9) 0.9217(13) 0.5411(5)
O7 O 0.2358(6) 0.8298(7) 0.750000
O8 O 0.3704(3) 0.8245(4) 0.68802(16)
O9 O 0.4815(3) 0.8023(4) 0.68915(15)
N3 N 0.4533(5) 0.9570(7) 0.5443(3)
C13 C 0.4414(6) 0.8339(8) 0.6697(2)
C14 C 0.4747(5) 0.8840(7) 0.6182(3)
C15 C 0.4235(5) 0.9096(8) 0.5928(3)
H7 H 0.370475 0.896150 0.607217
C16 C 0.5566(7) 0.9065(11) 0.5997(4)
H8 H 0.592275 0.890227 0.616827
C17 C 0.5790(7) 0.9554(11) 0.5536(5)
H9 H 0.634670 0.974887 0.541564
C18 C 0.5341(6) 0.9788(8) 0.5242(4)
Cu3 Cu -0.00000(16) 0.39274(11) 0.500000
Sc3 Sc 0.25305(13) 0.53897(9) 0.750000
Cl3 Cl 0.0783(13) 0.3596(10) 0.5411(5)
O12 O 0.1702(7) 0.4060(4) 0.750000
O13 O 0.1755(4) 0.5459(3) 0.68802(16)
O14 O 0.1977(4) 0.6792(3) 0.68915(15)
N5 N 0.0430(7) 0.4963(5) 0.5443(3)
C25 C 0.1661(8) 0.6075(5) 0.6697(2)
C26 C 0.1160(7) 0.5907(5) 0.6182(3)
C27 C 0.0904(8) 0.5139(6) 0.5928(3)
H13 H 0.103850 0.474325 0.607217
C28 C 0.0935(11) 0.6501(8) 0.5997(4)
H14 H 0.109773 0.702048 0.616827
C29 C 0.0446(11) 0.6236(9) 0.5536(5)
H15 H 0.025113 0.659783 0.541564
C30 C 0.0212(8) 0.5553(6) 0.5242(4)
Cl4 Cl 0.7187(9) 0.6404(10) 0.4589(5)
Sc5 Sc 0.71408(9) 0.46103(9) 0.250000
O17 O 0.4541(3) 0.6296(3) 0.81198(16)
O18 O 0.3704(3) 0.8245(4) 0.81198(16)
O19 O 0.1755(4) 0.5459(3) 0.81198(16)
O20 O 0.3208(3) 0.5185(3) 0.81085(15)
O21 O 0.4815(3) 0.8023(4) 0.81085(15)
O22 O 0.1977(4) 0.6792(3) 0.81085(15)
Cu3_2 Cu 1.00000(16) 0.39274(11) 0.500000
O15 O 0.8245(4) 0.3704(3) 0.31198(16)
O16 O 0.8023(4) 0.4815(3) 0.31085(15)
N6 N 0.9570(7) 0.4533(5) 0.4557(3)
C31 C 0.8339(8) 0.4414(6) 0.3303(2)
C32 C 0.8840(7) 0.4747(5) 0.3818(3)
C33 C 0.9096(8) 0.4235(5) 0.4072(3)
H16 H 0.896150 0.370475 0.392783
C34 C 0.9065(11) 0.5566(7) 0.4003(4)
H17 H 0.890227 0.592275 0.383173
C35 C 0.9554(11) 0.5790(7) 0.4464(5)
H18 H 0.974887 0.634670 0.458436
C36 C 0.9788(8) 0.5341(6) 0.4758(4)
Cl6 Cl 0.9217(13) 0.2813(9) 0.4589(5)
Cu2_3 Cu 0.39274(11) 0.00000(16) 0.000000
O10_2 O 0.5459(3) 0.1755(4) 0.18802(16)
O11_2 O 0.6792(3) 0.1977(4) 0.18915(15)
N4_2 N 0.4963(5) 0.0430(7) 0.0443(3)
C19_2 C 0.6075(5) 0.1661(8) 0.1697(2)
C20_2 C 0.5907(5) 0.1160(7) 0.1182(3)
C21_2 C 0.5139(6) 0.0904(8) 0.0928(3)
H10_2 H 0.474325 0.103850 0.107217
C22_2 C 0.6501(8) 0.0935(11) 0.0997(4)
H11_2 H 0.702048 0.109773 0.116827
C23_2 C 0.6236(9) 0.0446(11) 0.0536(5)
H12_2 H 0.659783 0.025113 0.041564
C24_2 C 0.5553(6) 0.0212(8) 0.0242(4)
Cl5_2 Cl 0.3596(10) 0.0783(13) 0.0411(5)
Cu2_4 Cu 0.39274(11) 0.00000(16) 1.000000
Cu1_2 Cu 0.60726(11) 0.60726(11) 0.000000
O5_2 O 0.6296(3) 0.4541(3) 0.18802(16)
O6_2 O 0.5185(3) 0.3208(3) 0.18915(15)
N2_2 N 0.5467(5) 0.5037(5) 0.0443(3)
C7_2 C 0.5586(6) 0.3925(5) 0.1697(2)
C8_2 C 0.5253(5) 0.4093(5) 0.1182(3)
C9_2 C 0.5765(5) 0.4861(6) 0.0928(3)
H4_2 H 0.629525 0.525675 0.107217
C10_2 C 0.4434(7) 0.3499(8) 0.0997(4)
H5_2 H 0.407725 0.297952 0.116827
C11_2 C 0.4210(7) 0.3764(9) 0.0536(5)
H6_2 H 0.365330 0.340217 0.041564
C12_2 C 0.4659(6) 0.4447(6) 0.0242(4)
Cu2_5 Cu 0.39274(11) 1.00000(16) 0.000000
Cu3_3 Cu 0.00000(16) 0.39274(11) 0.000000
Cl4_2 Cl 0.7187(9) 0.6404(10) 0.0411(5)
Cu1_3 Cu 0.60726(11) 0.60726(11) 1.000000
Cl1_2 Cl 0.6404(10) 0.7187(9) 0.9589(5)
N1_2 N 0.5037(5) 0.5467(5) 0.9557(3)
C1_2 C 0.3925(5) 0.5586(6) 0.8303(2)
C2_2 C 0.4093(5) 0.5253(5) 0.8818(3)
C3_2 C 0.4861(6) 0.5765(5) 0.9072(3)
H1_2 H 0.525675 0.629525 0.892783
C4_2 C 0.3499(8) 0.4434(7) 0.9003(4)
H2_2 H 0.297952 0.407725 0.883173
C5_2 C 0.3764(9) 0.4210(7) 0.9464(5)
H3_2 H 0.340217 0.365330 0.958436
C6_2 C 0.4447(6) 0.4659(6) 0.9758(4)
Cu2_6 Cu 0.39274(11) 1.00000(16) 1.000000
Cl2_2 Cl 0.2813(9) 0.9217(13) 0.9589(5)
N3_2 N 0.4533(5) 0.9570(7) 0.9557(3)
C13_2 C 0.4414(6) 0.8339(8) 0.8303(2)
C14_2 C 0.4747(5) 0.8840(7) 0.8818(3)
C15_2 C 0.4235(5) 0.9096(8) 0.9072(3)
H7_2 H 0.370475 0.896150 0.892783
C16_2 C 0.5566(7) 0.9065(11) 0.9003(4)
H8_2 H 0.592275 0.890227 0.883173
C17_2 C 0.5790(7) 0.9554(11) 0.9464(5)
H9_2 H 0.634670 0.974887 0.958436
C18_2 C 0.5341(6) 0.9788(8) 0.9758(4)
Cu3_4 Cu -0.00000(16) 0.39274(11) 1.000000
Cl3_2 Cl 0.0783(13) 0.3596(10) 0.9589(5)
N5_2 N 0.0430(7) 0.4963(5) 0.9557(3)
C25_2 C 0.1661(8) 0.6075(5) 0.8303(2)
C26_2 C 0.1160(7) 0.5907(5) 0.8818(3)
C27_2 C 0.0904(8) 0.5139(6) 0.9072(3)
H13_2 H 0.103850 0.474325 0.892783
C28_2 C 0.0935(11) 0.6501(8) 0.9003(4)
H14_2 H 0.109773 0.702048 0.883173
C29_2 C 0.0446(11) 0.6236(9) 0.9464(5)
H15_2 H 0.025113 0.659783 0.958436
C30_2 C 0.0212(8) 0.5553(6) 0.9758(4)
Cu3_5 Cu 1.00000(16) 0.39274(11) 0.000000
O15_2 O 0.8245(4) 0.3704(3) 0.18802(16)
O16_2 O 0.8023(4) 0.4815(3) 0.18915(15)
N6_2 N 0.9570(7) 0.4533(5) 0.0443(3)
C31_2 C 0.8339(8) 0.4414(6) 0.1697(2)
C32_2 C 0.8840(7) 0.4747(5) 0.1182(3)
C33_2 C 0.9096(8) 0.4235(5) 0.0928(3)
H16_2 H 0.896150 0.370475 0.107217
C34_2 C 0.9065(11) 0.5566(7) 0.0997(4)
H17_2 H 0.890227 0.592275 0.116827
C35_2 C 0.9554(11) 0.5790(7) 0.0536(5)
H18_2 H 0.974887 0.634670 0.041564
C36_2 C 0.9788(8) 0.5341(6) 0.0242(4)
Cl6_2 Cl 0.9217(13) 0.2813(9) 0.0411(5)
Cu3_6 Cu 1.00000(16) 0.39274(11) 1.000000
O1_2 O 0.7642(6) 0.5940(4) 0.250000
O2_2 O 0.666667 0.333333 0.250000
O7_2 O 0.8298(7) 0.2358(6) 0.250000
O12_2 O 0.4060(4) 0.1702(7) 0.250000
loop_
_geom_bond_atom_site_label_1
_geom_bond_atom_site_label_2
_geom_bond_site_symmetry_1
_geom_bond_site_symmetry_2
O10 C19 1_555 1_555
O11 C19 1_555 1_555
N4 Cu2 1_555 1_555
C19 C20 1_555 1_555
C20 C21 1_555 1_555
C21 N4 1_555 1_555
H10 C21 1_555 1_555
C22 C20 1_555 1_555
H11 C22 1_555 1_555
C23 C22 1_555 1_555
H12 C23 1_555 1_555
Cl5 Cu2 1_555 1_555
Sc7 O11 1_555 1_555
Sc9 O10 1_555 1_555
N4 C24 1_555 1_555
C23 C24 1_555 1_555
Cu1 Cl1 1_555 1_555
Sc1 O1 1_555 1_555
O2 Sc1 1_555 1_555
O3 Sc1 1_555 1_555
O4 C1 1_555 1_555
N1 Cu1 1_555 1_555
C1 O3 1_555 1_555
C2 C1 1_555 1_555
C3 N1 1_555 1_555
H1 C3 1_555 1_555
C4 C2 1_555 1_555
H2 C4 1_555 1_555
C5 C4 1_555 1_555
H3 C5 1_555 1_555
C6 N1 1_555 1_555
O5 C7 1_555 1_555
O6 C7 1_555 1_555
N2 Cu1 1_555 1_555
C7 C8 1_555 1_555
C8 C9 1_555 1_555
C9 N2 1_555 1_555
H4 C9 1_555 1_555
C10 C8 1_555 1_555
H5 C10 1_555 1_555
C11 C10 1_555 1_555
H6 C11 1_555 1_555
C12 C6 1_555 1_555
Cu2_2 Cl2 1_555 1_555
Sc2 O2 1_555 1_555
O7 Sc2 1_555 1_555
O8 Sc2 1_555 1_555
O9 Sc1 1_555 1_555
N3 Cu2_2 1_555 1_555
C13 O8 1_555 1_555
C14 C13 1_555 1_555
C15 N3 1_555 1_555
H7 C15 1_555 1_555
C16 C14 1_555 1_555
H8 C16 1_555 1_555
C17 C16 1_555 1_555
H9 C17 1_555 1_555
C18 N3 1_555 1_555
Cu3 Cl3 1_555 1_555
Sc3 O2 1_555 1_555
O12 Sc3 1_555 1_555
O13 Sc3 1_555 1_555
O14 Sc2 1_555 1_555
N5 Cu3 1_555 1_555
C25 O13 1_555 1_555
C26 C25 1_555 1_555
C27 N5 1_555 1_555
H13 C27 1_555 1_555
C28 C26 1_555 1_555
H14 C28 1_555 1_555
C29 C28 1_555 1_555
H15 C29 1_555 1_555
C30 N5 1_555 1_555
Cl4 Cu1 1_555 1_555
Sc5 O5 1_555 1_555
Sc9 O6 1_555 1_555
O17 Sc1 1_555 1_555
O18 Sc2 1_555 1_555
O19 Sc3 1_555 1_555
O20 Sc3 1_555 1_555
O21 Sc1 1_555 1_555
O22 Sc2 1_555 1_555
O4 Sc3 1_555 1_555
C2 C3 1_555 1_555
C5 C6 1_555 1_555
N2 C12 1_555 1_555
C11 C12 1_555 1_555
O9 C13 1_555 1_555
C14 C15 1_555 1_555
C17 C18 1_555 1_555
O14 C25 1_555 1_555
C26 C27 1_555 1_555
C29 C30 1_555 1_555
O15 C31 1_555 1_555
O16 C31 1_555 1_555
N6 Cu3_2 1_555 1_555
C31 C32 1_555 1_555
C32 C33 1_555 1_555
C33 N6 1_555 1_555
H16 C33 1_555 1_555
C34 C32 1_555 1_555
H17 C34 1_555 1_555
C35 C34 1_555 1_555
H18 C35 1_555 1_555
Cl6 Cu3_2 1_555 1_555
Sc5 O16 1_555 1_555
Sc7 O15 1_555 1_555
N6 C36 1_555 1_555
C35 C36 1_555 1_555
O10_2 C19_2 1_555 1_555
O11_2 C19_2 1_555 1_555
N4_2 Cu2_3 1_555 1_555
C19_2 C20_2 1_555 1_555
C20_2 C21_2 1_555 1_555
C21_2 N4_2 1_555 1_555
H10_2 C21_2 1_555 1_555
C22_2 C20_2 1_555 1_555
H11_2 C22_2 1_555 1_555
C23_2 C22_2 1_555 1_555
H12_2 C23_2 1_555 1_555
Cl5_2 Cu2_3 1_555 1_555
Sc7 O11_2 1_555 1_555
Sc9 O10_2 1_555 1_555
N4_2 C24_2 1_555 1_555
C23_2 C24_2 1_555 1_555
O5_2 C7_2 1_555 1_555
O6_2 C7_2 1_555 1_555
N2_2 Cu1_2 1_555 1_555
C7_2 C8_2 1_555 1_555
C8_2 C9_2 1_555 1_555
C9_2 N2_2 1_555 1_555
H4_2 C9_2 1_555 1_555
C10_2 C8_2 1_555 1_555
H5_2 C10_2 1_555 1_555
C11_2 C10_2 1_555 1_555
H6_2 C11_2 1_555 1_555
Cl4_2 Cu1_2 1_555 1_555
Sc5 O5_2 1_555 1_555
Sc9 O6_2 1_555 1_555
N2_2 C12_2 1_555 1_555
C11_2 C12_2 1_555 1_555
Cu1_3 Cl1_2 1_555 1_555
O20 C1_2 1_555 1_555
N1_2 Cu1_3 1_555 1_555
C1_2 O17 1_555 1_555
C2_2 C1_2 1_555 1_555
C3_2 N1_2 1_555 1_555
H1_2 C3_2 1_555 1_555
C4_2 C2_2 1_555 1_555
H2_2 C4_2 1_555 1_555
C5_2 C4_2 1_555 1_555
H3_2 C5_2 1_555 1_555
C6_2 N1_2 1_555 1_555
Cu2_6 Cl2_2 1_555 1_555
N3_2 Cu2_6 1_555 1_555
C13_2 O18 1_555 1_555
C14_2 C13_2 1_555 1_555
C15_2 N3_2 1_555 1_555
H7_2 C15_2 1_555 1_555
C16_2 C14_2 1_555 1_555
H8_2 C16_2 1_555 1_555
C17_2 C16_2 1_555 1_555
H9_2 C17_2 1_555 1_555
C18_2 N3_2 1_555 1_555
Cu3_4 Cl3_2 1_555 1_555
N5_2 Cu3_4 1_555 1_555
C25_2 O19 1_555 1_555
C26_2 C25_2 1_555 1_555
C27_2 N5_2 1_555 1_555
H13_2 C27_2 1_555 1_555
C28_2 C26_2 1_555 1_555
H14_2 C28_2 1_555 1_555
C29_2 C28_2 1_555 1_555
H15_2 C29_2 1_555 1_555
C30_2 N5_2 1_555 1_555
C2_2 C3_2 1_555 1_555
C5_2 C6_2 1_555 1_555
O21 C13_2 1_555 1_555
C14_2 C15_2 1_555 1_555
C17_2 C18_2 1_555 1_555
O22 C25_2 1_555 1_555
C26_2 C27_2 1_555 1_555
C29_2 C30_2 1_555 1_555
O15_2 C31_2 1_555 1_555
O16_2 C31_2 1_555 1_555
N6_2 Cu3_5 1_555 1_555
C31_2 C32_2 1_555 1_555
C32_2 C33_2 1_555 1_555
C33_2 N6_2 1_555 1_555
H16_2 C33_2 1_555 1_555
C34_2 C32_2 1_555 1_555
H17_2 C34_2 1_555 1_555
C35_2 C34_2 1_555 1_555
H18_2 C35_2 1_555 1_555
Cl6_2 Cu3_5 1_555 1_555
Sc5 O16_2 1_555 1_555
Sc7 O15_2 1_555 1_555
N6_2 C36_2 1_555 1_555
C35_2 C36_2 1_555 1_555
Sc5 O1_2 1_555 1_555
O2_2 Sc5 1_555 1_555
Sc7 O2_2 1_555 1_555
O7_2 Sc7 1_555 1_555
Sc9 O2_2 1_555 1_555
O12_2 Sc9 1_555 1_555

#END
