
###############################################################################
#
# This file contains modified crystal structure data generated from the
# MOF subset of the Cambridge Structural Database (CSD) v543 
# hosted by the Cambridge Crystallographic Data Centre (CCDC).
#
# This work is licensed under the Creative Commons
# Attribution-NonCommercial-ShareAlike 4.0 International License.
# To view a copy of this license, visit
# http://creativecommons.org/licenses/by-nc-sa/4.0/
# or send a letter to
# Creative Commons, PO Box 1866, Mountain View, CA 94042, USA.
#
# CIF created using the CSD Python API on 29 September 2022
# The structure has been converted into the P1 space group
# The structure has a 3D framework
# The original CSD entry WETFUZ is in the monoclinic crystal system
# The original CSD entry WETFUZ is in a Sohncke space group
# The framework has been calculated to contain at least 10.0% void space
# The void calculation uses a probe of radius 1.32A, grid spacing 0.4
# H atom positions have been added when not included in the experimental data
#
###############################################################################

data_WETFUZ
_chemical_formula_moiety         '(C76 H80 In4 O28)n'
_symmetry_cell_setting           triclinic
_symmetry_space_group_name_H-M   'P 1'
_symmetry_Int_Tables_number      1
_space_group_name_Hall           'P 1'
loop_
_symmetry_equiv_pos_site_id
_symmetry_equiv_pos_as_xyz
1 x,y,z
_cell_length_a                   10.1861(5)
_cell_length_b                   18.5632(9)
_cell_length_c                   16.5153(8)
_cell_angle_alpha                90
_cell_angle_beta                 99.820(2)
_cell_angle_gamma                90
_cell_volume                     3077.07
loop_
_atom_site_label
_atom_site_type_symbol
_atom_site_fract_x
_atom_site_fract_y
_atom_site_fract_z
O4 O 0.0950(6) 0.2523(6) 0.1665(5)
O6 O 0.2156(7) 0.2243(5) 0.2825(5)
C1 C 0.1040(10) 0.2352(8) 0.2417(8)
H5 H 0.0765 0.2192 0.3958
O13 O 0.1927(9) 0.3150(6) 0.6508(6)
H12 H 0.1962 0.3398 0.6086
C23 C 0.0321(11) 0.4236(7) 0.7877(7)
H13 H 0.0508 0.4633 0.8241
C24 C 0.0971(12) 0.3433(8) 0.6920(8)
C26 C 0.1280(12) 0.4026(8) 0.7448(8)
C29 C 0.2658(13) 0.4426(8) 0.7497(10)
H15 H 0.0128 0.3555 0.5333
C32 C 0.3803(14) 0.3903(9) 0.7749(10)
H17 H 0.3924 0.3821 0.8344
H18 H 0.4621 0.4106 0.7606
H19 H 0.3600 0.3445 0.7460
C33 C 0.2736(17) 0.5021(9) 0.8082(11)
H20 H 0.1859 0.5249 0.8040
H21 H 0.3384 0.5377 0.7958
H22 H 0.3016 0.4838 0.8641
C35 C 0.2698(16) 0.4754(10) 0.6673(10)
H23 H 0.2303 0.4419 0.6241
H24 H 0.3625 0.4852 0.6620
H25 H 0.2192 0.5206 0.6621
H29 H 0.0565 0.0450 0.6859
In6 In 0.31602(7) 0.24986(5) 0.17725(6)
O5 O 0.3806(13) 0.6305(6) 0.0313(8)
O10 O 0.6503(12) 0.6950(8) 0.1062(7)
O14 O 0.5118(13) 0.3687(6) 0.0197(8)
In4 In 0.48280(8) 0.20398(5) 0.01079(6)
O15 O 0.4004(10) 0.7815(5) 0.0357(6)
H37 H 0.678485 0.64405 0.115659
H38 H 0.72995 0.725686 0.105501
H39 H 0.431019 0.595315 0.0699542
H40 H 0.318084 0.657762 0.0598338
In1 In 0.51720(8) 0.70398(5) 0.98921(6)
In2 In 0.68398(7) 0.74986(5) 0.82275(6)
O1 O 0.7205(10) 0.6357(5) 0.8493(7)
O2 O 0.5996(10) 0.2815(5) 0.9643(6)
O3 O 0.6513(6) 0.8739(3) 0.7842(4)
C2 C 0.8879(11) 0.2004(8) 0.4866(7)
O7 O 0.6562(9) 0.7664(5) 0.9445(5)
C3 C 0.8726(10) 0.2041(8) 0.3966(7)
O8 O 0.5105(7) 0.2192(5) 0.2369(5)
C4 C 0.7061(12) 0.5147(6) 0.8926(8)
C5 C 0.9807(10) 0.2235(6) 0.2753(7)
C6 C 0.8584(9) 0.2205(6) 0.2254(7)
H1 H 0.8525 0.2237 0.1675
C7 C 0.7459(12) 0.3713(7) 0.8790(8)
H2 H 0.7629 0.3210 0.8773
C8 C 0.7519(9) 0.2073(7) 0.3429(7)
H3 H 0.6718 0.2056 0.3651
C9 C 0.7430(9) 0.2129(7) 0.2593(7)
C10 C 0.6450(12) 0.4705(6) 0.9343(8)
H4 H 0.5891 0.4890 0.9699
O9 O 0.6145(8) 0.2116(7) 0.1282(6)
C11 C 0.6125(10) 0.2146(8) 0.2036(8)
C12 C 0.6746(12) 0.5939(7) 0.8962(9)
O11 O 0.6037(11) 0.6115(6) 0.9491(7)
C13 C 0.9918(10) 0.2162(7) 0.3614(7)
C14 C 0.8102(12) 0.4178(7) 0.8313(8)
C15 C 0.6602(12) 0.3956(7) 0.9277(8)
C16 C 0.7861(12) 0.4916(7) 0.8408(8)
H6 H 0.8269 0.5258 0.8102
C17 C 0.9230(10) 0.2575(8) 0.5380(7)
C18 C 0.9413(10) 0.2482(8) 0.6223(7)
C19 C 0.8672(15) 0.1352(7) 0.5184(9)
H7 H 0.8373 0.0976 0.4807
C20 C 0.9731(12) 0.3070(7) 0.6812(8)
O12 O 0.9518(15) 0.1666(5) 0.7389(6)
H8 H 0.9877 0.2034 0.7625
C21 C 0.7374(12) 0.3015(9) 0.7103(8)
H9 H 0.7253 0.2737 0.6592
H10 H 0.6705 0.3399 0.7057
H11 H 0.7269 0.2697 0.7561
C22 C 0.9341(17) 0.1760(8) 0.6572(9)
C25 C 0.8740(12) 0.3340(7) 0.7256(8)
C27 C 0.9049(12) 0.3897(7) 0.7818(8)
C28 C 0.5830(14) 0.3434(8) 0.9737(9)
C30 C 0.8866(17) 0.1175(8) 0.6055(9)
C31 C 0.9333(16) 0.3315(7) 0.5036(8)
H14 H 0.9399 0.3280 0.4453
H16 H 0.8539 0.3594 0.5098
C34 C 0.853(2) 0.0462(9) 0.6336(11)
H27 H 0.7358 0.0085 0.5262
C37 C 0.981(2) 0.0123(11) 0.6856(13)
H31 H 0.9663 0.0046 0.7421
C38 C 0.750(2) 0.0508(12) 0.6912(13)
H32 H 0.7784 0.0875 0.7334
H33 H 0.7437 0.0040 0.7177
H34 H 0.6634 0.0640 0.6596
O16 O 0.9050(6) 0.7523(6) 0.8335(5)
O17 O 0.7844(7) 0.7243(5) 0.7175(5)
O18 O 0.4895(7) 0.7192(5) 0.7631(5)
O19 O 0.3855(8) 0.7116(7) 0.8718(6)
H35 H 0.592824 0.877122 0.729685
H36 H 0.608813 0.899507 0.825775
O1_2 O 0.2795(10) 0.1357(5) 0.1507(7)
O3_2 O 0.3487(6) 0.3739(3) 0.2158(4)
O7_2 O 0.3438(9) 0.2664(5) 0.0555(5)
C4_2 C 0.2939(12) 0.0147(6) 0.1074(8)
C12_2 C 0.3254(12) 0.0939(7) 0.1038(9)
O11_2 O 0.3963(11) 0.1115(6) 0.0509(7)
H6_2 H 0.1731 0.0258 0.1898
H35_2 H 0.407176 0.377122 0.270315
H36_2 H 0.391187 0.399507 0.174225
O5_2 O 0.6194(13) 0.1305(6) 0.9687(8)
O10_2 O 0.3497(12) 0.1950(8) 0.8938(7)
H37_2 H 0.321515 0.14405 0.884341
H38_2 H 0.27005 0.225686 0.894499
H39_2 H 0.568981 0.0953154 0.930046
H40_2 H 0.681916 0.157762 0.940166
C2_2 C 0.1121(11) 0.7004(8) 0.5134(7)
C3_2 C 0.1274(10) 0.7041(8) 0.6034(7)
C5_2 C 0.0193(10) 0.7235(6) 0.7247(7)
C6_2 C 0.1416(9) 0.7205(6) 0.7746(7)
H1_2 H 0.1475 0.7237 0.8325
C7_2 C 0.2541(12) 0.8713(7) 0.1210(8)
H2_2 H 0.2371 0.8210 0.1227
C8_2 C 0.2481(9) 0.7073(7) 0.6571(7)
H3_2 H 0.3282 0.7056 0.6349
C9_2 C 0.2570(9) 0.7129(7) 0.7407(7)
C10_2 C 0.3550(12) 0.9705(6) 0.0657(8)
H4_2 H 0.4109 0.9890 0.0301
C11_2 C 0.3875(10) 0.7146(8) 0.7964(8)
C13_2 C 0.0082(10) 0.7162(7) 0.6386(7)
C14_2 C 0.1898(12) 0.9178(7) 0.1687(8)
C15_2 C 0.3398(12) 0.8956(7) 0.0723(8)
C16_2 C 0.2139(12) 0.9916(7) 0.1592(8)
C17_2 C 0.0770(10) 0.7575(8) 0.4620(7)
C18_2 C 0.0587(10) 0.7482(8) 0.3777(7)
C19_2 C 0.1328(15) 0.6352(7) 0.4816(9)
H7_2 H 0.1627 0.5976 0.5193
C20_2 C 0.0269(12) 0.8070(7) 0.3188(8)
O12_2 O 0.0482(15) 0.6666(5) 0.2611(6)
H8_2 H 0.0123 0.7034 0.2375
C21_2 C 0.2626(12) 0.8015(9) 0.2897(8)
H9_2 H 0.2747 0.7737 0.3408
H10_2 H 0.3295 0.8399 0.2943
H11_2 H 0.2731 0.7697 0.2439
C22_2 C 0.0659(17) 0.6760(8) 0.3428(9)
C25_2 C 0.1260(12) 0.8340(7) 0.2744(8)
C27_2 C 0.0951(12) 0.8897(7) 0.2182(8)
C28_2 C 0.4170(14) 0.8434(8) 0.0263(9)
C30_2 C 0.1134(17) 0.6175(8) 0.3945(9)
C31_2 C 0.0667(16) 0.8315(7) 0.4964(8)
H14_2 H 0.0601 0.8280 0.5547
H16_2 H 0.1461 0.8594 0.4902
C34_2 C 0.147(2) 0.5462(9) 0.3664(11)
C36 C 0.186(3) 0.4910(9) 0.4360(12)
H26 H 0.2071 0.4448 0.4126
H27_2 H 0.2642 0.5085 0.4738
H28 H 0.1115 0.4846 0.4659
C37_2 C 0.019(2) 0.5123(11) 0.3144(13)
H31_2 H 0.0337 0.5046 0.2579
C38_2 C 0.250(2) 0.5508(12) 0.3088(13)
H32_2 H 0.2216 0.5875 0.2666
H33_2 H 0.2563 0.5040 0.2823
H34_2 H 0.3366 0.5640 0.3404
O14_2 O 0.4882(13) 0.8687(6) 0.9803(8)
C1_2 C 0.8960(10) 0.7352(8) 0.7583(8)
H5_2 H 0.9235 0.7192 0.6042
O13_2 O 0.8073(9) 0.8150(6) 0.3492(6)
H12_2 H 0.8038 0.8398 0.3914
C23_2 C 0.9679(11) 0.9236(7) 0.2123(7)
H13_2 H 0.9492 0.9633 0.1759
C24_2 C 0.9029(12) 0.8433(8) 0.3080(8)
C26_2 C 0.8720(12) 0.9026(8) 0.2552(8)
C29_2 C 0.7342(13) 0.9426(8) 0.2503(10)
H15_2 H 0.9872 0.8555 0.4667
C32_2 C 0.6197(14) 0.8903(9) 0.2251(10)
H17_2 H 0.6076 0.8821 0.1656
H18_2 H 0.5379 0.9106 0.2394
H19_2 H 0.6400 0.8445 0.2540
H22_2 H 0.6984 0.9838 0.1359
C35_2 C 0.7302(16) 0.9754(10) 0.3327(10)
H23_2 H 0.7697 0.9419 0.3759
H24_2 H 0.6375 0.9852 0.3380
H29_2 H 0.9435 0.5450 0.3141
H30 H 0.9999 0.4660 0.3386
H30_2 H 0.0001 0.9660 0.6614
C36_2 C 0.814(3) 0.9910(9) 0.5640(12)
H26_2 H 0.7929 0.9448 0.5874
H28_2 H 0.8885 0.9846 0.5341
C33_2 C 0.7264(17) 0.0021(9) 0.1918(11)
H20_2 H 0.8141 0.0249 0.1960
H21_2 H 0.6616 0.0377 0.2042
H25_2 H 0.7808 0.0206 0.3379
loop_
_geom_bond_atom_site_label_1
_geom_bond_atom_site_label_2
_geom_bond_site_symmetry_1
_geom_bond_site_symmetry_2
O4 C1 1_555 1_555
O6 C1 1_555 1_555
O13 H12 1_555 1_555
C23 H13 1_555 1_555
C26 C23 1_555 1_555
C29 C26 1_555 1_555
C32 C29 1_555 1_555
H17 C32 1_555 1_555
H18 C32 1_555 1_555
H19 C32 1_555 1_555
C33 C29 1_555 1_555
H20 C33 1_555 1_555
H21 C33 1_555 1_555
H22 C33 1_555 1_555
C35 C29 1_555 1_555
H23 C35 1_555 1_555
H24 C35 1_555 1_555
H25 C35 1_555 1_555
In6 O4 1_555 1_555
O6 In6 1_555 1_555
O13 C24 1_555 1_555
C24 C26 1_555 1_555
O10 H37 1_555 1_555
O10 H38 1_555 1_555
O5 H39 1_555 1_555
O5 H40 1_555 1_555
In2 O1 1_555 1_555
O1 C12 1_555 1_555
O2 C28 1_555 1_555
O3 In2 1_555 1_555
C2 C3 1_555 1_555
O7 In1 1_555 1_555
C3 C8 1_555 1_555
O8 C11 1_555 1_555
C4 C10 1_555 1_555
C5 C6 1_555 1_555
C6 H1 1_555 1_555
C7 H2 1_555 1_555
C8 H3 1_555 1_555
C9 C6 1_555 1_555
C10 H4 1_555 1_555
O9 C11 1_555 1_555
C11 C9 1_555 1_555
C12 C4 1_555 1_555
O11 In1 1_555 1_555
C13 C3 1_555 1_555
C14 C7 1_555 1_555
C15 C7 1_555 1_555
C16 C4 1_555 1_555
H6 C16 1_555 1_555
C17 C2 1_555 1_555
C18 C17 1_555 1_555
C19 C2 1_555 1_555
H7 C19 1_555 1_555
C20 C18 1_555 1_555
O12 H8 1_555 1_555
C21 H9 1_555 1_555
H10 C21 1_555 1_555
H11 C21 1_555 1_555
C22 C18 1_555 1_555
C25 C20 1_555 1_555
C27 C14 1_555 1_555
C28 C15 1_555 1_555
C30 C19 1_555 1_555
C31 C17 1_555 1_555
H14 C31 1_555 1_555
H16 C31 1_555 1_555
C34 C30 1_555 1_555
C37 C34 1_555 1_555
H31 C37 1_555 1_555
C38 C34 1_555 1_555
H32 C38 1_555 1_555
H33 C38 1_555 1_555
H34 C38 1_555 1_555
In4 O9 1_555 1_555
In6 O8 1_555 1_555
O16 In2 1_555 1_555
O17 In2 1_555 1_555
O18 In2 1_555 1_555
O19 In1 1_555 1_555
In2 O7 1_555 1_555
C5 C13 1_555 1_555
C8 C9 1_555 1_555
C10 C15 1_555 1_555
C12 O11 1_555 1_555
C14 C16 1_555 1_555
O12 C22 1_555 1_555
C21 C25 1_555 1_555
C22 C30 1_555 1_555
C25 C27 1_555 1_555
O3 H35 1_555 1_555
O3 H36 1_555 1_555
In6 O1_2 1_555 1_555
O1_2 C12_2 1_555 1_555
O3_2 In6 1_555 1_555
O7_2 In4 1_555 1_555
C12_2 C4_2 1_555 1_555
O11_2 In4 1_555 1_555
In6 O7_2 1_555 1_555
C12_2 O11_2 1_555 1_555
O3_2 H35_2 1_555 1_555
O3_2 H36_2 1_555 1_555
O10_2 H37_2 1_555 1_555
O10_2 H38_2 1_555 1_555
O5_2 H39_2 1_555 1_555
O5_2 H40_2 1_555 1_555
O15 C28_2 1_555 1_555
C2_2 C3_2 1_555 1_555
C3_2 C8_2 1_555 1_555
O18 C11_2 1_555 1_555
C5_2 C6_2 1_555 1_555
C6_2 H1_2 1_555 1_555
C7_2 H2_2 1_555 1_555
C8_2 H3_2 1_555 1_555
C9_2 C6_2 1_555 1_555
C10_2 H4_2 1_555 1_555
O19 C11_2 1_555 1_555
C11_2 C9_2 1_555 1_555
C13_2 C3_2 1_555 1_555
C14_2 C7_2 1_555 1_555
C15_2 C7_2 1_555 1_555
C17_2 C2_2 1_555 1_555
C18_2 C17_2 1_555 1_555
C19_2 C2_2 1_555 1_555
H7_2 C19_2 1_555 1_555
C20_2 C18_2 1_555 1_555
O12_2 H8_2 1_555 1_555
C21_2 H9_2 1_555 1_555
H10_2 C21_2 1_555 1_555
H11_2 C21_2 1_555 1_555
C22_2 C18_2 1_555 1_555
C25_2 C20_2 1_555 1_555
C27_2 C14_2 1_555 1_555
C28_2 C15_2 1_555 1_555
C30_2 C19_2 1_555 1_555
C31_2 C17_2 1_555 1_555
H14_2 C31_2 1_555 1_555
H16_2 C31_2 1_555 1_555
C34_2 C30_2 1_555 1_555
C36 C34_2 1_555 1_555
H26 C36 1_555 1_555
H27_2 C36 1_555 1_555
H28 C36 1_555 1_555
C37_2 C34_2 1_555 1_555
H31_2 C37_2 1_555 1_555
C38_2 C34_2 1_555 1_555
H32_2 C38_2 1_555 1_555
H33_2 C38_2 1_555 1_555
H34_2 C38_2 1_555 1_555
C5_2 C13_2 1_555 1_555
C8_2 C9_2 1_555 1_555
C10_2 C15_2 1_555 1_555
C14_2 C16_2 1_555 1_555
O12_2 C22_2 1_555 1_555
C21_2 C25_2 1_555 1_555
C22_2 C30_2 1_555 1_555
C25_2 C27_2 1_555 1_555
O16 C1_2 1_555 1_555
O17 C1_2 1_555 1_555
O13_2 H12_2 1_555 1_555
C23_2 H13_2 1_555 1_555
C26_2 C23_2 1_555 1_555
C29_2 C26_2 1_555 1_555
C32_2 C29_2 1_555 1_555
H17_2 C32_2 1_555 1_555
H18_2 C32_2 1_555 1_555
H19_2 C32_2 1_555 1_555
C35_2 C29_2 1_555 1_555
H23_2 C35_2 1_555 1_555
H24_2 C35_2 1_555 1_555
O13_2 C24_2 1_555 1_555
C24_2 C26_2 1_555 1_555
H26_2 C36_2 1_555 1_555
H28_2 C36_2 1_555 1_555
H20_2 C33_2 1_555 1_555
H21_2 C33_2 1_555 1_555

#END
