
###############################################################################
#
# This file contains modified crystal structure data generated from the
# MOF subset of the Cambridge Structural Database (CSD) v543 
# hosted by the Cambridge Crystallographic Data Centre (CCDC).
#
# This work is licensed under the Creative Commons
# Attribution-NonCommercial-ShareAlike 4.0 International License.
# To view a copy of this license, visit
# http://creativecommons.org/licenses/by-nc-sa/4.0/
# or send a letter to
# Creative Commons, PO Box 1866, Mountain View, CA 94042, USA.
#
# CIF created using the CSD Python API on 29 September 2022
# The structure has been converted into the P1 space group
# The structure has a 3D framework
# The original CSD entry WETPOD is in the triclinic crystal system
# The framework has been calculated to contain at least 10.0% void space
# The void calculation uses a probe of radius 1.32A, grid spacing 0.4
# The framework is charged, counterions have been retained in the structure
#
###############################################################################

data_WETPOD
_chemical_formula_moiety         '(C56 H44 N6 O22 Zn6)n'
_symmetry_cell_setting           triclinic
_symmetry_space_group_name_H-M   'P 1'
_symmetry_Int_Tables_number      1
_space_group_name_Hall           'P 1'
loop_
_symmetry_equiv_pos_site_id
_symmetry_equiv_pos_as_xyz
1 x,y,z
_cell_length_a                   11.7880(16)
_cell_length_b                   11.8585(16)
_cell_length_c                   14.0352(19)
_cell_angle_alpha                72.571(2)
_cell_angle_beta                 76.085(2)
_cell_angle_gamma                70.407(2)
_cell_volume                     1741.96
loop_
_atom_site_label
_atom_site_type_symbol
_atom_site_fract_x
_atom_site_fract_y
_atom_site_fract_z
_atom_site_U_iso_or_equiv
_atom_site_thermal_displace_type
O8 O 0.0193(4) 0.2666(4) 0.4840(3) 0.0364 Uani
Zn15 Zn 0.18565(6) 0.12071(6) 0.46813(5) 0.0244 Uani
C14 C 0.2055(7) 0.2064(6) 0.0413(5) 0.0515 Uani
H9 H 0.1585 0.2727 0.0691 0.0610 Uiso
C18 C 0.3398(7) 0.0177(6) 0.0558(5) 0.0493 Uani
N1 N 0.2756(5) 0.1107(4) 0.0981(4) 0.0319 Uani
O12 O 0.1335(3) 0.1173(3) 0.3351(3) 0.0251 Uani
H21 H 0.0806 0.1873 0.3077 0.0380 Uiso
Zn1 Zn 0.28475(6) 0.10317(6) 0.24158(5) 0.0271 Uani
N7 N 0.2330(4) 0.1262(4) 0.6002(3) 0.0282 Uani
O28 O 0.2679(4) 0.2613(3) 0.3868(3) 0.0287 Uani
O30 O 0.3691(4) 0.2211(4) 0.2385(3) 0.0361 Uani
C15 C 0.1989(7) 0.2127(6) 0.9450(5) 0.0512 Uani
H10 H 0.1479 0.2823 0.9086 0.0610 Uiso
C16 C 0.2669(5) 0.1169(5) 0.8996(4) 0.0263 Uani
C17 C 0.3381(7) 0.0174(6) 0.9591(5) 0.0521 Uani
C19 C 0.2581(5) 0.1217(5) 0.7945(4) 0.0244 Uani
C20 C 0.1930(6) 0.2246(6) 0.7333(5) 0.0409 Uani
H13 H 0.1556 0.2963 0.7562 0.0490 Uiso
C21 C 0.1827(7) 0.2231(6) 0.6395(5) 0.0444 Uani
H14 H 0.1373 0.2948 0.6005 0.0530 Uiso
C22 C 0.2997(6) 0.0276(6) 0.6569(5) 0.0428 Uani
C23 C 0.3141(6) 0.0211(6) 0.7534(5) 0.0418 Uani
H44 H 0.1473 0.0435 0.4983 0.0360 Uiso
C1 C 0.4044(5) 0.9066(5) 0.3782(5) 0.0272 Uani
C2 C 0.4851(5) 0.7790(5) 0.4126(4) 0.0246 Uani
C3 C 0.5156(5) 0.7379(5) 0.5079(4) 0.0261 Uani
H1 H 0.4874 0.7896 0.5522 0.0310 Uiso
C4 C 0.5877(5) 0.6203(5) 0.5372(4) 0.0245 Uani
C5 C 0.6334(5) 0.5441(5) 0.4700(5) 0.0271 Uani
C6 C 0.6031(5) 0.5870(5) 0.3732(5) 0.0307 Uani
C7 C 0.5268(5) 0.7045(5) 0.3447(5) 0.0291 Uani
H2 H 0.5038 0.7331 0.2808 0.0350 Uiso
C8 C 0.5806(6) 0.6386(5) 0.7044(4) 0.0288 Uani
H3 H 0.5847 0.5839 0.7713 0.0350 Uiso
H4 H 0.4961 0.6861 0.7014 0.0350 Uiso
C9 C 0.6554(5) 0.7258(5) 0.6896(5) 0.0267 Uani
C10 C 0.8309(5) 0.4159(5) 0.4821(5) 0.0360 Uani
H5 H 0.8443 0.4677 0.5177 0.0430 Uiso
H6 H 0.8553 0.4466 0.4103 0.0430 Uiso
C11 C 0.9087(6) 0.2847(5) 0.5158(4) 0.0280 Uani
C12 C 0.6300(6) 0.5540(6) 0.2093(5) 0.0427 Uani
H7 H 0.6454 0.6338 0.1818 0.0510 Uiso
H8 H 0.5446 0.5652 0.2092 0.0510 Uiso
C13 C 0.7072(8) 0.4683(7) 0.1436(6) 0.0569 Uani
H12 H 0.3889 0.9486 0.0943 0.0590 Uiso
C26 C 0.0052(6) 0.9957(5) 0.0532(4) 0.0314 Uani
C27 C 0.0765(8) 0.8931(6) 0.1086(5) 0.0667 Uani
H19 H 0.1190 0.8258 0.0807 0.0800 Uiso
C28 C 0.0861(8) 0.8884(7) 0.2052(5) 0.0627 Uani
H20 H 0.1355 0.8168 0.2410 0.0750 Uiso
N3 N 0.0296(5) 0.9792(4) 0.2504(4) 0.0323 Uani
O1 O 0.3850(4) 0.9378(3) 0.2867(3) 0.0379 Uani
O2 O 0.3598(4) 0.9758(3) 0.4373(3) 0.0301 Uani
O3 O 0.6196(4) 0.5662(3) 0.6315(3) 0.0318 Uani
O4 O 0.7321(4) 0.7387(3) 0.6132(3) 0.0287 Uani
O5 O 0.6309(4) 0.7789(4) 0.7615(3) 0.0361 Uani
O6 O 0.7038(3) 0.4235(3) 0.5011(3) 0.0306 Uani
O7 O 0.8552(4) 0.2071(3) 0.5736(3) 0.0339 Uani
O9 O 0.6548(4) 0.5074(4) 0.3104(3) 0.0411 Uani
O10 O 0.6952(6) 0.5062(5) 0.0534(4) 0.0939 Uani
O11 O 0.7823(6) 0.3703(5) 0.1794(4) 0.0893 Uani
Zn2 Zn 0.05886(6) 0.97311(6) 0.39568(5) 0.0236 Uani
O32 O 0.1448(4) 0.7929(3) 0.4264(3) 0.0339 Uani
O36 O 0.1083(3) 0.9804(3) 0.5320(3) 0.0240 Uani
Zn8 Zn 0.71525(6) 0.89683(6) 0.75842(5) 0.0271 Uani
Zn12 Zn 0.94114(6) 0.02689(6) 0.60432(5) 0.0236 Uani
Zn18 Zn 0.81435(6) 0.87929(6) 0.53187(5) 0.0244 Uani
H11 H 0.3855 0.9495 0.9335 0.0620 Uiso
H15 H 0.3392 0.9588 0.6304 0.0510 Uiso
H16 H 0.3615 0.9491 0.7904 0.0500 Uiso
C29 C 0.0411(7) 0.9217(6) 0.8037(5) 0.0506 Uani
H23 H 0.0837 0.8560 0.7739 0.0610 Uiso
C30 C 0.0548(7) 0.9105(6) 0.8994(5) 0.0496 Uani
H24 H 0.1054 0.8383 0.9332 0.0600 Uiso
C24 C 0.9589(7) 0.0783(6) 0.1963(5) 0.0506 Uani
H17 H 0.9163 0.1440 0.2261 0.0610 Uiso
C25 C 0.9452(7) 0.0895(6) 0.1006(5) 0.0496 Uani
H18 H 0.8946 0.1617 0.0668 0.0600 Uiso
O13 O 0.8917(3) 0.0196(3) 0.4680(3) 0.0240 Uani
H37 H 0.6145 0.0505 0.0665 0.0620 Uiso
H41 H 0.6608 0.0412 0.3696 0.0510 Uiso
H42 H 0.6385 0.0509 0.2096 0.0500 Uiso
C31 C 0.9948(6) 0.0043(5) 0.9468(4) 0.0314 Uani
C32 C 0.9235(8) 0.1069(6) 0.8914(5) 0.0667 Uani
H25 H 0.8810 0.1742 0.9193 0.0800 Uiso
C33 C 0.9139(8) 0.1116(7) 0.7948(5) 0.0627 Uani
H26 H 0.8645 0.1832 0.7590 0.0750 Uiso
N4 N 0.9704(5) 0.0208(4) 0.7496(4) 0.0323 Uani
C34 C 0.5956(5) 0.0934(5) 0.6218(5) 0.0272 Uani
C35 C 0.5149(5) 0.2210(5) 0.5874(4) 0.0246 Uani
C36 C 0.4844(5) 0.2621(5) 0.4921(4) 0.0261 Uani
H27 H 0.5126 0.2104 0.4478 0.0310 Uiso
C37 C 0.4123(5) 0.3797(5) 0.4628(4) 0.0245 Uani
C38 C 0.3666(5) 0.4559(5) 0.5300(5) 0.0271 Uani
C39 C 0.3969(5) 0.4130(5) 0.6268(5) 0.0307 Uani
C40 C 0.4732(5) 0.2955(5) 0.6553(5) 0.0291 Uani
H28 H 0.4962 0.2669 0.7192 0.0350 Uiso
C41 C 0.4194(6) 0.3614(5) 0.2956(4) 0.0288 Uani
H29 H 0.4153 0.4161 0.2287 0.0350 Uiso
H30 H 0.5039 0.3139 0.2986 0.0350 Uiso
C42 C 0.3446(5) 0.2742(5) 0.3104(5) 0.0267 Uani
C43 C 0.1691(5) 0.5841(5) 0.5179(5) 0.0360 Uani
H31 H 0.1557 0.5323 0.4823 0.0430 Uiso
H32 H 0.1447 0.5534 0.5897 0.0430 Uiso
C44 C 0.0913(6) 0.7153(5) 0.4842(4) 0.0280 Uani
C45 C 0.3700(6) 0.4460(6) 0.7907(5) 0.0427 Uani
H33 H 0.3546 0.3662 0.8182 0.0510 Uiso
H34 H 0.4554 0.4348 0.7908 0.0510 Uiso
C46 C 0.2928(8) 0.5317(7) 0.8564(6) 0.0569 Uani
H38 H 0.6111 0.0514 0.9057 0.0590 Uiso
O14 O 0.6150(4) 0.0622(3) 0.7133(3) 0.0379 Uani
O15 O 0.6402(4) 0.0242(3) 0.5627(3) 0.0301 Uani
O16 O 0.3804(4) 0.4338(3) 0.3685(3) 0.0318 Uani
O19 O 0.2962(3) 0.5765(3) 0.4989(3) 0.0306 Uani
O22 O 0.3452(4) 0.4926(4) 0.6896(3) 0.0411 Uani
O23 O 0.3048(6) 0.4938(5) 0.9466(4) 0.0939 Uani
O24 O 0.2177(6) 0.6297(5) 0.8206(4) 0.0893 Uani
H22 H 0.8527 0.9565 0.5017 0.0360 Uiso
C48 C 0.8011(7) 0.7873(6) 0.0550(5) 0.0512 Uani
H36 H 0.8521 0.7177 0.0914 0.0610 Uiso
C49 C 0.7331(5) 0.8831(5) 0.1004(4) 0.0263 Uani
C50 C 0.6619(7) 0.9826(6) 0.0409(5) 0.0521 Uani
C52 C 0.7419(5) 0.8783(5) 0.2055(4) 0.0244 Uani
C53 C 0.8070(6) 0.7754(6) 0.2667(5) 0.0409 Uani
H39 H 0.8444 0.7037 0.2438 0.0490 Uiso
C54 C 0.8173(7) 0.7769(6) 0.3605(5) 0.0444 Uani
H40 H 0.8627 0.7052 0.3995 0.0530 Uiso
C55 C 0.7003(6) 0.9724(6) 0.3431(5) 0.0428 Uani
C56 C 0.6859(6) 0.9789(6) 0.2466(5) 0.0418 Uani
N6 N 0.7670(4) 0.8738(4) 0.3998(3) 0.0282 Uani
C47 C 0.7945(7) 0.7936(6) 0.9587(5) 0.0515 Uani
H35 H 0.8415 0.7273 0.9309 0.0610 Uiso
C51 C 0.6602(7) 0.9823(6) 0.9442(5) 0.0493 Uani
N5 N 0.7244(5) 0.8893(4) 0.9019(4) 0.0319 Uani
O25 O 0.8665(3) 0.8827(3) 0.6649(3) 0.0251 Uani
H43 H 0.9194 0.8127 0.6923 0.0380 Uiso
O34 O 0.9807(4) 0.7334(4) 0.5160(3) 0.0364 Uani
loop_
_atom_site_aniso_label
_atom_site_aniso_U_11
_atom_site_aniso_U_22
_atom_site_aniso_U_33
_atom_site_aniso_U_23
_atom_site_aniso_U_13
_atom_site_aniso_U_12
O8 0.025 0.037 0.045 -0.013 -0.006 -0.003
Zn15 0.0284 0.0286 0.0186 -0.0071 -0.0061 -0.0081
C14 0.076 0.039 0.026 -0.012 -0.017 0.011
C18 0.065 0.043 0.033 -0.016 -0.023 0.01
N1 0.038 0.038 0.02 -0.008 -0.008 -0.008
O12 0.027 0.028 0.019 -0.0039 -0.0084 -0.0043
Zn1 0.0342 0.0288 0.0175 -0.0068 -0.0067 -0.005
N7 0.031 0.033 0.021 -0.008 -0.006 -0.007
O28 0.033 0.029 0.024 -0.0069 0.001 -0.012
O30 0.047 0.041 0.027 -0.017 0.001 -0.018
C15 0.076 0.041 0.025 -0.012 -0.021 0.011
C16 0.028 0.032 0.02 -0.006 -0.004 -0.01
C17 0.078 0.045 0.026 -0.02 -0.018 0.009
C19 0.031 0.034 0.012 -0.008 -0.003 -0.012
C20 0.061 0.032 0.032 -0.017 -0.023 0.003
C21 0.071 0.028 0.034 -0.005 -0.028 -0.002
C22 0.05 0.04 0.036 -0.024 -0.016 0.01
C23 0.05 0.04 0.034 -0.014 -0.026 0.007
C1 0.022 0.03 0.03 -0.008 -0.006 -0.006
C2 0.02 0.026 0.025 -0.009 -0.004 0
C3 0.024 0.025 0.03 -0.008 -0.005 -0.006
C4 0.022 0.025 0.025 -0.002 -0.007 -0.006
C5 0.029 0.015 0.034 -0.001 -0.01 -0.003
C6 0.033 0.029 0.031 -0.015 -0.002 -0.005
C7 0.03 0.027 0.028 -0.009 -0.009 0
C8 0.039 0.029 0.019 -0.006 -0.005 -0.01
C9 0.029 0.018 0.033 -0.004 -0.014 -0.002
C10 0.024 0.03 0.05 -0.01 -0.002 -0.005
C11 0.036 0.022 0.029 -0.011 -0.015 -0.001
C12 0.054 0.036 0.032 -0.014 -0.001 -0.004
C13 0.076 0.044 0.043 -0.017 -0.01 -0.001
C26 0.043 0.036 0.022 -0.009 -0.005 -0.018
C27 0.121 0.037 0.033 -0.02 -0.03 0.012
C28 0.104 0.042 0.032 -0.012 -0.034 0.011
N3 0.043 0.032 0.024 -0.012 -0.002 -0.011
O1 0.051 0.031 0.027 -0.0104 -0.017 0.005
O2 0.031 0.027 0.027 -0.0077 -0.0098 0.0032
O3 0.043 0.025 0.029 -0.003 -0.013 -0.0097
O4 0.033 0.029 0.024 -0.0069 0.001 -0.012
O5 0.047 0.041 0.027 -0.017 0.001 -0.018
O6 0.029 0.0175 0.04 -0.004 -0.009 0.0001
O7 0.04 0.024 0.032 -0.0069 -0.011 0.0022
O9 0.058 0.028 0.029 -0.0132 -0.01 0.006
O10 0.139 0.076 0.039 -0.019 -0.031 0.021
O11 0.12 0.059 0.054 -0.024 -0.015 0.029
Zn2 0.0285 0.025 0.018 -0.0067 -0.0053 -0.0058
O32 0.04 0.024 0.032 -0.0069 -0.011 0.0022
O36 0.026 0.028 0.02 -0.0063 -0.0039 -0.0094
Zn8 0.0342 0.0288 0.0175 -0.0068 -0.0067 -0.005
Zn12 0.0285 0.025 0.018 -0.0067 -0.0053 -0.0058
Zn18 0.0284 0.0286 0.0186 -0.0071 -0.0061 -0.0081
C29 0.073 0.048 0.029 -0.024 -0.019 0.006
C30 0.063 0.047 0.029 -0.013 -0.021 0.01
C24 0.073 0.048 0.029 -0.024 -0.019 0.006
C25 0.063 0.047 0.029 -0.013 -0.021 0.01
O13 0.026 0.028 0.02 -0.0063 -0.0039 -0.0094
C31 0.043 0.036 0.022 -0.009 -0.005 -0.018
C32 0.121 0.037 0.033 -0.02 -0.03 0.012
C33 0.104 0.042 0.032 -0.012 -0.034 0.011
N4 0.043 0.032 0.024 -0.012 -0.002 -0.011
C34 0.022 0.03 0.03 -0.008 -0.006 -0.006
C35 0.02 0.026 0.025 -0.009 -0.004 0
C36 0.024 0.025 0.03 -0.008 -0.005 -0.006
C37 0.022 0.025 0.025 -0.002 -0.007 -0.006
C38 0.029 0.015 0.034 -0.001 -0.01 -0.003
C39 0.033 0.029 0.031 -0.015 -0.002 -0.005
C40 0.03 0.027 0.028 -0.009 -0.009 0
C41 0.039 0.029 0.019 -0.006 -0.005 -0.01
C42 0.029 0.018 0.033 -0.004 -0.014 -0.002
C43 0.024 0.03 0.05 -0.01 -0.002 -0.005
C44 0.036 0.022 0.029 -0.011 -0.015 -0.001
C45 0.054 0.036 0.032 -0.014 -0.001 -0.004
C46 0.076 0.044 0.043 -0.017 -0.01 -0.001
O14 0.051 0.031 0.027 -0.0104 -0.017 0.005
O15 0.031 0.027 0.027 -0.0077 -0.0098 0.0032
O16 0.043 0.025 0.029 -0.003 -0.013 -0.0097
O19 0.029 0.0175 0.04 -0.004 -0.009 0.0001
O22 0.058 0.028 0.029 -0.0132 -0.01 0.006
O23 0.139 0.076 0.039 -0.019 -0.031 0.021
O24 0.12 0.059 0.054 -0.024 -0.015 0.029
C48 0.076 0.041 0.025 -0.012 -0.021 0.011
C49 0.028 0.032 0.02 -0.006 -0.004 -0.01
C50 0.078 0.045 0.026 -0.02 -0.018 0.009
C52 0.031 0.034 0.012 -0.008 -0.003 -0.012
C53 0.061 0.032 0.032 -0.017 -0.023 0.003
C54 0.071 0.028 0.034 -0.005 -0.028 -0.002
C55 0.05 0.04 0.036 -0.024 -0.016 0.01
C56 0.05 0.04 0.034 -0.014 -0.026 0.007
N6 0.031 0.033 0.021 -0.008 -0.006 -0.007
C47 0.076 0.039 0.026 -0.012 -0.017 0.011
C51 0.065 0.043 0.033 -0.016 -0.023 0.01
N5 0.038 0.038 0.02 -0.008 -0.008 -0.008
O25 0.027 0.028 0.019 -0.0039 -0.0084 -0.0043
O34 0.025 0.037 0.045 -0.013 -0.006 -0.003
loop_
_geom_bond_atom_site_label_1
_geom_bond_atom_site_label_2
_geom_bond_site_symmetry_1
_geom_bond_site_symmetry_2
Zn15 O8 1_555 1_555
C14 H9 1_555 1_555
N1 C14 1_555 1_555
O12 H21 1_555 1_555
Zn1 N1 1_555 1_555
N7 Zn15 1_555 1_555
O28 Zn15 1_555 1_555
O30 Zn1 1_555 1_555
C18 N1 1_555 1_555
O12 Zn1 1_555 1_555
O12 Zn15 1_555 1_555
H10 C15 1_555 1_555
C16 C15 1_555 1_555
C17 C16 1_555 1_555
C19 C16 1_555 1_555
C20 C19 1_555 1_555
H13 C20 1_555 1_555
C21 C20 1_555 1_555
H14 C21 1_555 1_555
C23 C19 1_555 1_555
N7 C21 1_555 1_555
C22 C23 1_555 1_555
C22 N7 1_555 1_555
C1 C2 1_555 1_555
C2 C3 1_555 1_555
C3 H1 1_555 1_555
C4 C3 1_555 1_555
C5 C4 1_555 1_555
C6 C5 1_555 1_555
C7 C2 1_555 1_555
H2 C7 1_555 1_555
C8 H3 1_555 1_555
H4 C8 1_555 1_555
C9 C8 1_555 1_555
C10 H5 1_555 1_555
H6 C10 1_555 1_555
C11 C10 1_555 1_555
C12 H7 1_555 1_555
H8 C12 1_555 1_555
C13 C12 1_555 1_555
C27 C26 1_555 1_555
H19 C27 1_555 1_555
C28 C27 1_555 1_555
H20 C28 1_555 1_555
O1 C1 1_555 1_555
O2 C1 1_555 1_555
O3 C4 1_555 1_555
O4 C9 1_555 1_555
O5 C9 1_555 1_555
O6 C5 1_555 1_555
O7 C11 1_555 1_555
O9 C6 1_555 1_555
O10 C13 1_555 1_555
O11 C13 1_555 1_555
Zn2 N3 1_555 1_555
O32 Zn2 1_555 1_555
O36 Zn2 1_555 1_555
Zn8 O5 1_555 1_555
Zn12 O7 1_555 1_555
Zn18 O4 1_555 1_555
C6 C7 1_555 1_555
C8 O3 1_555 1_555
C10 O6 1_555 1_555
C12 O9 1_555 1_555
C28 N3 1_555 1_555
C29 H23 1_555 1_555
C30 C29 1_555 1_555
H24 C30 1_555 1_555
C24 H17 1_555 1_555
C25 C24 1_555 1_555
H18 C25 1_555 1_555
Zn12 O13 1_555 1_555
C32 C31 1_555 1_555
H25 C32 1_555 1_555
C33 C32 1_555 1_555
H26 C33 1_555 1_555
C34 C35 1_555 1_555
C35 C36 1_555 1_555
C36 H27 1_555 1_555
C37 C36 1_555 1_555
C38 C37 1_555 1_555
C39 C38 1_555 1_555
C40 C35 1_555 1_555
H28 C40 1_555 1_555
C41 H29 1_555 1_555
H30 C41 1_555 1_555
C42 C41 1_555 1_555
C43 H31 1_555 1_555
H32 C43 1_555 1_555
C44 C43 1_555 1_555
C45 H33 1_555 1_555
H34 C45 1_555 1_555
C46 C45 1_555 1_555
O14 C34 1_555 1_555
O15 C34 1_555 1_555
O16 C37 1_555 1_555
O28 C42 1_555 1_555
O30 C42 1_555 1_555
O19 C38 1_555 1_555
O32 C44 1_555 1_555
O22 C39 1_555 1_555
O23 C46 1_555 1_555
O24 C46 1_555 1_555
Zn12 N4 1_555 1_555
C33 N4 1_555 1_555
C39 C40 1_555 1_555
C41 O16 1_555 1_555
C43 O19 1_555 1_555
C45 O22 1_555 1_555
H36 C48 1_555 1_555
C49 C48 1_555 1_555
C50 C49 1_555 1_555
C52 C49 1_555 1_555
C53 C52 1_555 1_555
H39 C53 1_555 1_555
C54 C53 1_555 1_555
H40 C54 1_555 1_555
C56 C52 1_555 1_555
N6 C54 1_555 1_555
C55 C56 1_555 1_555
C55 N6 1_555 1_555
N6 Zn18 1_555 1_555
C47 H35 1_555 1_555
N5 C47 1_555 1_555
O25 H43 1_555 1_555
Zn8 N5 1_555 1_555
O34 Zn18 1_555 1_555
C51 N5 1_555 1_555
O25 Zn8 1_555 1_555
O25 Zn18 1_555 1_555

#END
