
###############################################################################
#
# This file contains modified crystal structure data generated from the
# MOF subset of the Cambridge Structural Database (CSD) v543 
# hosted by the Cambridge Crystallographic Data Centre (CCDC).
#
# This work is licensed under the Creative Commons
# Attribution-NonCommercial-ShareAlike 4.0 International License.
# To view a copy of this license, visit
# http://creativecommons.org/licenses/by-nc-sa/4.0/
# or send a letter to
# Creative Commons, PO Box 1866, Mountain View, CA 94042, USA.
#
# CIF created using the CSD Python API on 29 September 2022
# The structure has been converted into the P1 space group
# The structure has a 3D framework
# The original CSD entry WEWGAH is in the triclinic crystal system
# The framework has been calculated to contain at least 10.0% void space
# The void calculation uses a probe of radius 1.32A, grid spacing 0.4
# H atom positions have been added when not included in the experimental data
#
###############################################################################

data_WEWGAH
_chemical_formula_moiety         '(C24 H22 Ho2 O14)n'
_symmetry_cell_setting           triclinic
_symmetry_space_group_name_H-M   'P 1'
_symmetry_Int_Tables_number      1
_space_group_name_Hall           'P 1'
loop_
_symmetry_equiv_pos_site_id
_symmetry_equiv_pos_as_xyz
1 x,y,z
_cell_length_a                   7.621(4)
_cell_length_b                   9.634(4)
_cell_length_c                   10.500(5)
_cell_angle_alpha                106.409(18)
_cell_angle_beta                 105.273(18)
_cell_angle_gamma                100.88(2)
_cell_volume                     683.943
loop_
_atom_site_label
_atom_site_type_symbol
_atom_site_fract_x
_atom_site_fract_y
_atom_site_fract_z
Ho6 Ho 0.24667(2) 0.032622(17) 0.451767(16)
O1 O 0.3923(3) 0.0682(3) 0.2916(3)
O2 O 0.6853(3) 0.0392(3) 0.3446(3)
O5 O 0.5885(3) 0.7038(3) 0.4415(3)
O6 O 0.3993(3) 0.8450(3) 0.4166(3)
O7 O 0.0395(3) 0.1436(3) 0.3245(3)
C1 C 0.4778(5) 0.2739(4) 0.1552(4)
C2 C 0.4225(5) 0.2658(4) 0.0170(4)
C4 C 0.2574(4) 0.4496(4) 0.0665(4)
H2 H 0.1842 0.5112 0.0362
C5 C 0.3086(4) 0.4596(4) 0.2057(4)
C6 C 0.4175(5) 0.3715(4) 0.2506(4)
H3 H 0.4516 0.3772 0.3460
C7 C 0.6153(6) 0.1886(5) 0.2058(4)
H4 H 0.6362 0.1240 0.1225
H5 H 0.7386 0.2633 0.2671
C8 C 0.5564(5) 0.0909(4) 0.2852(4)
C11 C 0.2601(5) 0.5747(4) 0.3133(4)
H8 H 0.1496 0.6025 0.2644
H9 H 0.2247 0.5293 0.3799
C12 C 0.4246(5) 0.7142(4) 0.3941(4)
Ho5 Ho 0.75333(2) 0.967378(17) 0.548233(16)
O10 O 0.0633(3) 0.1378(3) 0.5959(2)
O12 O 0.4115(3) 0.2962(3) 0.5585(3)
O14 O 0.6007(3) 0.1550(3) 0.5834(3)
H1 H 0.4621 0.1996 0.9518
C3 C 0.3115(5) 0.3507(4) 0.9703(4)
C9 C 0.2570(5) 0.3367(5) 0.8177(4)
H6 H 0.3645 0.3227 0.7841
H7 H 0.2326 0.4316 0.8092
C10 C 0.0828(5) 0.2062(4) 0.7250(4)
O8 O 0.3147(3) 0.9608(3) 0.6554(3)
O9 O 0.0439(3) 0.8338(3) 0.2277(3)
O3 O 0.9561(3) 0.1662(3) 0.7723(3)
O11 O 0.9367(3) 0.8622(3) 0.4041(2)
H1_2 H 0.5379 0.8004 0.0482
C3_2 C 0.6885(5) 0.6493(4) 0.0297(4)
C9_2 C 0.7430(5) 0.6633(5) 0.1823(4)
H6_2 H 0.6355 0.6773 0.2159
H7_2 H 0.7674 0.5684 0.1908
C10_2 C 0.9172(5) 0.7938(4) 0.2750(4)
O1_2 O 0.6077(3) 0.9318(3) 0.7084(3)
O7_2 O 0.9605(3) 0.8564(3) 0.6755(3)
C1_2 C 0.5222(5) 0.7261(4) 0.8448(4)
C2_2 C 0.5775(5) 0.7342(4) 0.9830(4)
C4_2 C 0.7426(4) 0.5504(4) 0.9335(4)
H2_2 H 0.8158 0.4888 0.9638
C5_2 C 0.6914(4) 0.5404(4) 0.7943(4)
C6_2 C 0.5825(5) 0.6285(4) 0.7494(4)
H3_2 H 0.5484 0.6228 0.6540
C7_2 C 0.3847(6) 0.8114(5) 0.7942(4)
H4_2 H 0.3638 0.8760 0.8775
H5_2 H 0.2614 0.7367 0.7329
C8_2 C 0.4436(5) 0.9091(4) 0.7148(4)
C11_2 C 0.7399(5) 0.4253(4) 0.6867(4)
H8_2 H 0.8504 0.3975 0.7356
H9_2 H 0.7753 0.4707 0.6201
C12_2 C 0.5754(5) 0.2858(4) 0.6059(4)
H10 H 0.985666 0.0787062 0.223325
H11 H 0.93493 0.152732 0.363298
H10_2 H 0.0143339 0.921294 0.776675
H11_2 H 0.0650702 0.847268 0.636702
loop_
_geom_bond_atom_site_label_1
_geom_bond_atom_site_label_2
_geom_bond_site_symmetry_1
_geom_bond_site_symmetry_2
Ho6 O1 1_555 1_555
O1 C8 1_555 1_555
O2 C8 1_555 1_555
O5 C12 1_555 1_555
O6 C12 1_555 1_555
O7 Ho6 1_555 1_555
C1 C2 1_555 1_555
H2 C4 1_555 1_555
C5 C4 1_555 1_555
C6 C1 1_555 1_555
H3 C6 1_555 1_555
C7 C1 1_555 1_555
H4 C7 1_555 1_555
H5 C7 1_555 1_555
C8 C7 1_555 1_555
C11 C5 1_555 1_555
H8 C11 1_555 1_555
H9 C11 1_555 1_555
C12 C11 1_555 1_555
Ho5 O5 1_555 1_555
O10 Ho6 1_555 1_555
O12 Ho6 1_555 1_555
O14 Ho6 1_555 1_555
O6 Ho5 1_555 1_555
C5 C6 1_555 1_555
O10 C10 1_555 1_555
C9 C3 1_555 1_555
H6 C9 1_555 1_555
H7 C9 1_555 1_555
C10 C9 1_555 1_555
O11 C10_2 1_555 1_555
C9_2 C3_2 1_555 1_555
H6_2 C9_2 1_555 1_555
H7_2 C9_2 1_555 1_555
C10_2 C9_2 1_555 1_555
Ho5 O11 1_555 1_555
Ho5 O1_2 1_555 1_555
O1_2 C8_2 1_555 1_555
O8 C8_2 1_555 1_555
O12 C12_2 1_555 1_555
O14 C12_2 1_555 1_555
O7_2 Ho5 1_555 1_555
C1_2 C2_2 1_555 1_555
H2_2 C4_2 1_555 1_555
C5_2 C4_2 1_555 1_555
C6_2 C1_2 1_555 1_555
H3_2 C6_2 1_555 1_555
C7_2 C1_2 1_555 1_555
H4_2 C7_2 1_555 1_555
H5_2 C7_2 1_555 1_555
C8_2 C7_2 1_555 1_555
C11_2 C5_2 1_555 1_555
H8_2 C11_2 1_555 1_555
H9_2 C11_2 1_555 1_555
C12_2 C11_2 1_555 1_555
C5_2 C6_2 1_555 1_555

#END
