
###############################################################################
#
# This file contains modified crystal structure data generated from the
# MOF subset of the Cambridge Structural Database (CSD) v543 
# hosted by the Cambridge Crystallographic Data Centre (CCDC).
#
# This work is licensed under the Creative Commons
# Attribution-NonCommercial-ShareAlike 4.0 International License.
# To view a copy of this license, visit
# http://creativecommons.org/licenses/by-nc-sa/4.0/
# or send a letter to
# Creative Commons, PO Box 1866, Mountain View, CA 94042, USA.
#
# CIF created using the CSD Python API on 29 September 2022
# The structure has been converted into the P1 space group
# The structure has a 3D framework
# The original CSD entry WEXKES is in the monoclinic crystal system
# The framework has been calculated to contain at least 10.0% void space
# The void calculation uses a probe of radius 1.32A, grid spacing 0.4
#
###############################################################################

data_WEXKES
_chemical_formula_moiety         '(C104 H60 N12 O32 Zn8)n'
_symmetry_cell_setting           triclinic
_symmetry_space_group_name_H-M   'P 1'
_symmetry_Int_Tables_number      1
_space_group_name_Hall           'P 1'
loop_
_symmetry_equiv_pos_site_id
_symmetry_equiv_pos_as_xyz
1 x,y,z
_cell_length_a                   13.6373(9)
_cell_length_b                   15.8049(11)
_cell_length_c                   16.0311(13)
_cell_angle_alpha                90
_cell_angle_beta                 108.194(8)
_cell_angle_gamma                90
_cell_volume                     3282.53
loop_
_atom_site_label
_atom_site_type_symbol
_atom_site_fract_x
_atom_site_fract_y
_atom_site_fract_z
O5 O 0.1297(4) 0.0957(3) 0.3806(3)
C13 C 0.0322(6) 0.0885(5) 0.3634(5)
Zn7 Zn 0.16996(6) 0.21354(5) 0.40033(5)
N1 N 0.1519(6) 0.9452(5) 0.4703(5)
O7 O 0.1607(5) 0.9939(5) 0.5300(4)
O8 O 0.2230(5) 0.9063(5) 0.4582(5)
C10 C 0.0129(6) 0.8498(5) 0.3952(5)
H5 H 0.0529 0.8069 0.4288
C11 C 0.0486(5) 0.9323(5) 0.4065(5)
Zn4 Zn 0.04911(6) 0.29888(6) 0.17241(5)
Zn5 Zn 0.04911(6) 0.70112(6) 0.67241(5)
O11 O 0.0110(4) 0.3155(3) 0.4652(3)
O14 O 0.0944(3) 0.2927(3) 0.3118(3)
O6 O 0.9689(4) 0.1489(4) 0.3474(4)
C12 C 0.9910(6) 0.0000(5) 0.3582(5)
H6 H 0.8545 0.0223 0.2661
Zn3 Zn 0.95089(6) 0.29888(6) 0.32759(5)
Zn2 Zn 0.83004(6) 0.21354(5) 0.09967(5)
N2 N 0.8093(5) 0.2730(4) 0.3470(4)
N3 N 0.3187(5) 0.2196(4) 0.4001(4)
O1 O 0.9279(4) 0.4292(3) 0.3222(3)
O2 O 0.8225(4) 0.4466(3) 0.1865(3)
O3 O 0.8394(4) 0.7533(3) 0.4849(3)
O4 O 0.9890(4) 0.6845(3) 0.5348(3)
O9 O 0.9056(3) 0.2927(3) 0.1882(3)
H1 H 0.8793 0.3416 0.1875
C1 C 0.8740(5) 0.4754(5) 0.2593(5)
C2 C 0.8717(5) 0.5678(5) 0.2781(5)
C3 C 0.8937(5) 0.5956(5) 0.3634(5)
H2 H 0.9057 0.5563 0.4087
C4 C 0.8981(5) 0.6821(5) 0.3827(4)
C5 C 0.9110(6) 0.7087(4) 0.4756(5)
C6 C 0.8889(5) 0.7413(5) 0.3152(5)
C7 C 0.8640(6) 0.7123(5) 0.2302(5)
H3 H 0.8533 0.7511 0.1847
C8 C 0.8544(6) 0.6265(5) 0.2108(5)
H4 H 0.8365 0.6085 0.1527
C9 C 0.9197(6) 0.8306(5) 0.3355(5)
C12_2 C 0.9910(6) 1.0000(5) 0.3582(5)
C14 C 0.8957(6) 0.9795(5) 0.2989(5)
C15 C 0.8609(6) 0.8971(5) 0.2876(5)
H7 H 0.7967 0.8855 0.2471
C16 C 0.7552(6) 0.2022(5) 0.3237(5)
H8 H 0.7829 0.1602 0.2973
C17 C 0.6618(7) 0.1864(6) 0.3356(6)
H9 H 0.6286 0.1350 0.3180
C18 C 0.6169(6) 0.2474(6) 0.3741(6)
C19 C 0.6752(6) 0.3192(6) 0.4017(6)
H10 H 0.6500 0.3615 0.4299
C20 C 0.7707(7) 0.3308(6) 0.3890(6)
H11 H 0.8083 0.3796 0.4101
C21 C 0.5149(6) 0.2355(6) 0.3852(5)
C22 C 0.4758(6) 0.1582(5) 0.3986(5)
H12 H 0.5154 0.1096 0.4030
C23 C 0.3785(6) 0.1532(5) 0.4056(6)
H13 H 0.3535 0.1003 0.4146
C24 C 0.3552(6) 0.2962(5) 0.3877(6)
H14 H 0.3136 0.3436 0.3842
C25 C 0.4526(6) 0.3063(5) 0.3801(6)
H15 H 0.4763 0.3598 0.3717
Zn8 Zn 0.83004(6) 0.78646(5) 0.59967(5)
N4 N 0.6813(5) 0.2196(4) 0.0999(4)
O12 O 0.8703(4) 0.0957(3) 0.1194(3)
O10 O 0.8394(4) 0.2467(3) 0.9849(3)
O6_2 O 0.0311(4) 0.1489(4) 0.1526(4)
C12_3 C 0.0090(6) -0.0000(5) 0.1418(5)
H6_2 H 0.1455 0.0223 0.2339
N2_2 N 0.1907(5) 0.2730(4) 0.1530(4)
O1_2 O 0.0721(4) 0.4292(3) 0.1778(3)
O2_2 O 0.1775(4) 0.4466(3) 0.3135(3)
O3_2 O 0.1606(4) 0.7533(3) 0.0151(3)
H1_2 H 0.1207 0.3416 0.3125
C1_2 C 0.1260(5) 0.4754(5) 0.2407(5)
C2_2 C 0.1283(5) 0.5678(5) 0.2219(5)
C3_2 C 0.1063(5) 0.5956(5) 0.1366(5)
H2_2 H 0.0943 0.5563 0.0913
C4_2 C 0.1019(5) 0.6821(5) 0.1173(4)
C5_2 C 0.0890(6) 0.7087(4) 0.0244(5)
C6_2 C 0.1111(5) 0.7413(5) 0.1848(5)
C7_2 C 0.1360(6) 0.7123(5) 0.2698(5)
H3_2 H 0.1467 0.7511 0.3153
C8_2 C 0.1456(6) 0.6265(5) 0.2892(5)
H4_2 H 0.1635 0.6085 0.3473
C9_2 C 0.0803(6) 0.8306(5) 0.1645(5)
C12_4 C 0.0090(6) 1.0000(5) 0.1418(5)
C14_2 C 0.1043(6) 0.9795(5) 0.2011(5)
C15_2 C 0.1391(6) 0.8971(5) 0.2124(5)
H7_2 H 0.2033 0.8855 0.2529
C16_2 C 0.2448(6) 0.2022(5) 0.1763(5)
H8_2 H 0.2171 0.1602 0.2027
C17_2 C 0.3382(7) 0.1864(6) 0.1644(6)
H9_2 H 0.3714 0.1350 0.1820
C18_2 C 0.3831(6) 0.2474(6) 0.1259(6)
C19_2 C 0.3248(6) 0.3192(6) 0.0983(6)
H10_2 H 0.3500 0.3615 0.0701
C20_2 C 0.2293(7) 0.3308(6) 0.1110(6)
H11_2 H 0.1917 0.3796 0.0899
C21_2 C 0.4851(6) 0.2355(6) 0.1148(5)
C22_2 C 0.5242(6) 0.1582(5) 0.1014(5)
H12_2 H 0.4846 0.1096 0.0970
C23_2 C 0.6215(6) 0.1532(5) 0.0944(6)
H13_2 H 0.6465 0.1003 0.0854
C24_2 C 0.6448(6) 0.2962(5) 0.1123(6)
H14_2 H 0.6864 0.3436 0.1158
C25_2 C 0.5474(6) 0.3063(5) 0.1199(6)
H15_2 H 0.5237 0.3598 0.1283
O10_2 O 0.1606(4) 0.2467(3) 0.5151(3)
O4_2 O 0.0110(4) 0.6845(3) 0.9652(3)
Zn8_2 Zn 0.16996(6) 0.78646(5) 0.90033(5)
C13_2 C 0.9678(6) 0.0885(5) 0.1366(5)
N1_2 N 0.8481(6) 0.9452(5) 0.0297(5)
O8_2 O 0.7770(5) 0.9063(5) 0.0418(5)
C10_2 C 0.9871(6) 0.8498(5) 0.1048(5)
H5_2 H 0.9471 0.8069 0.0712
C11_2 C 0.9514(5) 0.9323(5) 0.0935(5)
O11_2 O 0.9890(4) 0.3155(3) 0.0348(3)
O7_2 O 0.8393(5) 0.9939(5) 0.9700(4)
Zn5_2 Zn 0.95089(6) 0.70112(6) 0.82759(5)
N2_3 N 0.1907(5) 0.7270(4) 0.6530(4)
N3_2 N 0.6813(5) 0.7804(4) 0.5999(4)
O1_3 O 0.0721(4) 0.5708(3) 0.6778(3)
O2_3 O 0.1775(4) 0.5534(3) 0.8135(3)
O9_2 O 0.0944(3) 0.7073(3) 0.8118(3)
H1_3 H 0.1207 0.6584 0.8125
C1_3 C 0.1260(5) 0.5246(5) 0.7407(5)
C2_3 C 0.1283(5) 0.4322(5) 0.7219(5)
C3_3 C 0.1063(5) 0.4044(5) 0.6366(5)
H2_3 H 0.0943 0.4437 0.5913
C4_3 C 0.1019(5) 0.3179(5) 0.6173(4)
C5_3 C 0.0890(6) 0.2913(4) 0.5244(5)
C6_3 C 0.1111(5) 0.2587(5) 0.6848(5)
C7_3 C 0.1360(6) 0.2877(5) 0.7698(5)
H3_3 H 0.1467 0.2489 0.8153
C8_3 C 0.1456(6) 0.3735(5) 0.7892(5)
H4_3 H 0.1635 0.3915 0.8473
C9_3 C 0.0803(6) 0.1694(5) 0.6645(5)
C12_5 C 0.0090(6) 0.0000(5) 0.6418(5)
C14_3 C 0.1043(6) 0.0205(5) 0.7011(5)
C15_3 C 0.1391(6) 0.1029(5) 0.7124(5)
H7_3 H 0.2033 0.1145 0.7529
C16_3 C 0.2448(6) 0.7978(5) 0.6763(5)
H8_3 H 0.2171 0.8398 0.7027
C17_3 C 0.3382(7) 0.8136(6) 0.6644(6)
H9_3 H 0.3714 0.8650 0.6820
C18_3 C 0.3831(6) 0.7526(6) 0.6259(6)
C19_3 C 0.3248(6) 0.6808(6) 0.5983(6)
H10_3 H 0.3500 0.6385 0.5701
C20_3 C 0.2293(7) 0.6692(6) 0.6110(6)
H11_3 H 0.1917 0.6204 0.5899
C21_3 C 0.4851(6) 0.7645(6) 0.6148(5)
C22_3 C 0.5242(6) 0.8418(5) 0.6014(5)
H12_3 H 0.4846 0.8904 0.5970
C23_3 C 0.6215(6) 0.8468(5) 0.5944(6)
H13_3 H 0.6465 0.8997 0.5854
C24_3 C 0.6448(6) 0.7038(5) 0.6123(6)
H14_3 H 0.6864 0.6564 0.6158
C25_3 C 0.5474(6) 0.6937(5) 0.6199(6)
H15_3 H 0.5237 0.6402 0.6283
N4_2 N 0.3187(5) 0.7804(4) 0.9001(4)
O12_2 O 0.1297(4) 0.9043(3) 0.8806(3)
O13 O 0.0311(4) 0.8511(4) 0.6526(4)
C12_6 C 0.0090(6) 1.0000(5) 0.6418(5)
H6_3 H 0.1455 0.9777 0.7339
N1_3 N 0.8481(6) 0.0548(5) 0.5297(5)
O7_3 O 0.8393(5) 0.0061(5) 0.4700(4)
O8_3 O 0.7770(5) 0.0937(5) 0.5418(5)
C10_3 C 0.9871(6) 0.1502(5) 0.6048(5)
H5_3 H 0.9471 0.1931 0.5712
C11_3 C 0.9514(5) 0.0677(5) 0.5935(5)
O14_2 O 0.9056(3) 0.7073(3) 0.6882(3)
O5_2 O 0.8703(4) 0.9043(3) 0.6194(3)
C13_3 C 0.9678(6) 0.9115(5) 0.6366(5)
O7_4 O 0.1607(5) 0.0061(5) 0.0300(4)
N1_4 N 0.1519(6) 0.0548(5) 0.9703(5)
O8_4 O 0.2230(5) 0.0937(5) 0.9582(5)
C10_4 C 0.0129(6) 0.1502(5) 0.8952(5)
H5_4 H 0.0529 0.1931 0.9288
C11_4 C 0.0486(5) 0.0677(5) 0.9065(5)
C13_4 C 0.0322(6) 0.9115(5) 0.8634(5)
N2_4 N 0.8093(5) 0.7270(4) 0.8470(4)
O1_4 O 0.9279(4) 0.5708(3) 0.8222(3)
O2_4 O 0.8225(4) 0.5534(3) 0.6865(3)
H1_4 H 0.8793 0.6584 0.6875
C1_4 C 0.8740(5) 0.5246(5) 0.7593(5)
C2_4 C 0.8717(5) 0.4322(5) 0.7781(5)
C3_4 C 0.8937(5) 0.4044(5) 0.8634(5)
H2_4 H 0.9057 0.4437 0.9087
C4_4 C 0.8981(5) 0.3179(5) 0.8827(4)
C5_4 C 0.9110(6) 0.2913(4) 0.9756(5)
C6_4 C 0.8889(5) 0.2587(5) 0.8152(5)
C7_4 C 0.8640(6) 0.2877(5) 0.7302(5)
H3_4 H 0.8533 0.2489 0.6847
C8_4 C 0.8544(6) 0.3735(5) 0.7108(5)
H4_4 H 0.8365 0.3915 0.6527
C9_4 C 0.9197(6) 0.1694(5) 0.8355(5)
C12_7 C 0.9910(6) -0.0000(5) 0.8582(5)
C14_4 C 0.8957(6) 0.0205(5) 0.7989(5)
C15_4 C 0.8609(6) 0.1029(5) 0.7876(5)
H7_4 H 0.7967 0.1145 0.7471
C16_4 C 0.7552(6) 0.7978(5) 0.8237(5)
H8_4 H 0.7829 0.8398 0.7973
C17_4 C 0.6618(7) 0.8136(6) 0.8356(6)
H9_4 H 0.6286 0.8650 0.8180
C18_4 C 0.6169(6) 0.7526(6) 0.8741(6)
C19_4 C 0.6752(6) 0.6808(6) 0.9017(6)
H10_4 H 0.6500 0.6385 0.9299
C20_4 C 0.7707(7) 0.6692(6) 0.8890(6)
H11_4 H 0.8083 0.6204 0.9101
C21_4 C 0.5149(6) 0.7645(6) 0.8852(5)
C22_4 C 0.4758(6) 0.8418(5) 0.8986(5)
H12_4 H 0.5154 0.8904 0.9030
C23_4 C 0.3785(6) 0.8468(5) 0.9056(6)
H13_4 H 0.3535 0.8997 0.9146
C24_4 C 0.3552(6) 0.7038(5) 0.8877(6)
H14_4 H 0.3136 0.6564 0.8842
C25_4 C 0.4526(6) 0.6937(5) 0.8801(6)
H15_4 H 0.4763 0.6402 0.8717
O13_2 O 0.9689(4) 0.8511(4) 0.8474(4)
C12_8 C 0.9910(6) 1.0000(5) 0.8582(5)
H6_4 H 0.8545 0.9777 0.7661
loop_
_geom_bond_atom_site_label_1
_geom_bond_atom_site_label_2
_geom_bond_site_symmetry_1
_geom_bond_site_symmetry_2
O5 C13 1_555 1_555
Zn7 O5 1_555 1_555
N1 O7 1_555 1_555
O8 N1 1_555 1_555
H5 C10 1_555 1_555
C11 N1 1_555 1_555
C10 C11 1_555 1_555
Zn4 O14 1_555 1_555
Zn3 O6 1_555 1_555
Zn3 N2 1_555 1_555
Zn2 O9 1_555 1_555
N2 C16 1_555 1_555
N3 C23 1_555 1_555
O1 Zn3 1_555 1_555
O2 C1 1_555 1_555
O3 C5 1_555 1_555
O4 C5 1_555 1_555
O9 Zn3 1_555 1_555
H1 O9 1_555 1_555
C1 O1 1_555 1_555
C2 C1 1_555 1_555
C3 C2 1_555 1_555
H2 C3 1_555 1_555
C4 C3 1_555 1_555
C5 C4 1_555 1_555
C6 C4 1_555 1_555
C7 C6 1_555 1_555
H3 C7 1_555 1_555
C8 C2 1_555 1_555
H4 C8 1_555 1_555
C9 C6 1_555 1_555
C14 C12_2 1_555 1_555
C15 C9 1_555 1_555
H7 C15 1_555 1_555
C16 H8 1_555 1_555
C17 C16 1_555 1_555
H9 C17 1_555 1_555
C18 C17 1_555 1_555
C19 C18 1_555 1_555
H10 C19 1_555 1_555
C20 N2 1_555 1_555
H11 C20 1_555 1_555
C21 C18 1_555 1_555
C22 C21 1_555 1_555
H12 C22 1_555 1_555
C23 C22 1_555 1_555
H13 C23 1_555 1_555
C24 N3 1_555 1_555
H14 C24 1_555 1_555
C25 C21 1_555 1_555
H15 C25 1_555 1_555
Zn7 N3 1_555 1_555
Zn8 O3 1_555 1_555
N4 Zn2 1_555 1_555
O12 Zn2 1_555 1_555
C7 C8 1_555 1_555
C14 C15 1_555 1_555
C19 C20 1_555 1_555
C24 C25 1_555 1_555
Zn4 O6_2 1_555 1_555
Zn4 N2_2 1_555 1_555
Zn7 O14 1_555 1_555
N2_2 C16_2 1_555 1_555
N4 C23_2 1_555 1_555
O1_2 Zn4 1_555 1_555
O2_2 C1_2 1_555 1_555
O3_2 C5_2 1_555 1_555
H1_2 O14 1_555 1_555
C1_2 O1_2 1_555 1_555
C2_2 C1_2 1_555 1_555
C3_2 C2_2 1_555 1_555
H2_2 C3_2 1_555 1_555
C4_2 C3_2 1_555 1_555
C5_2 C4_2 1_555 1_555
C6_2 C4_2 1_555 1_555
C7_2 C6_2 1_555 1_555
H3_2 C7_2 1_555 1_555
C8_2 C2_2 1_555 1_555
H4_2 C8_2 1_555 1_555
C9_2 C6_2 1_555 1_555
C14_2 C12_4 1_555 1_555
C15_2 C9_2 1_555 1_555
H7_2 C15_2 1_555 1_555
C16_2 H8_2 1_555 1_555
C17_2 C16_2 1_555 1_555
H9_2 C17_2 1_555 1_555
C18_2 C17_2 1_555 1_555
C19_2 C18_2 1_555 1_555
H10_2 C19_2 1_555 1_555
C20_2 N2_2 1_555 1_555
H11_2 C20_2 1_555 1_555
C21_2 C18_2 1_555 1_555
C22_2 C21_2 1_555 1_555
H12_2 C22_2 1_555 1_555
C23_2 C22_2 1_555 1_555
H13_2 C23_2 1_555 1_555
C24_2 N4 1_555 1_555
H14_2 C24_2 1_555 1_555
C25_2 C21_2 1_555 1_555
H15_2 C25_2 1_555 1_555
O10_2 Zn7 1_555 1_555
C7_2 C8_2 1_555 1_555
C14_2 C15_2 1_555 1_555
C19_2 C20_2 1_555 1_555
C24_2 C25_2 1_555 1_555
O12 C13_2 1_555 1_555
O8_2 N1_2 1_555 1_555
H5_2 C10_2 1_555 1_555
C11_2 N1_2 1_555 1_555
C10_2 C11_2 1_555 1_555
Zn5 N2_3 1_555 1_555
Zn8_2 O9_2 1_555 1_555
N2_3 C16_3 1_555 1_555
N3_2 C23_3 1_555 1_555
O1_3 Zn5 1_555 1_555
O2_3 C1_3 1_555 1_555
O10_2 C5_3 1_555 1_555
O11 C5_3 1_555 1_555
O9_2 Zn5 1_555 1_555
H1_3 O9_2 1_555 1_555
C1_3 O1_3 1_555 1_555
C2_3 C1_3 1_555 1_555
C3_3 C2_3 1_555 1_555
H2_3 C3_3 1_555 1_555
C4_3 C3_3 1_555 1_555
C5_3 C4_3 1_555 1_555
C6_3 C4_3 1_555 1_555
C7_3 C6_3 1_555 1_555
H3_3 C7_3 1_555 1_555
C8_3 C2_3 1_555 1_555
H4_3 C8_3 1_555 1_555
C9_3 C6_3 1_555 1_555
C14_3 C12_5 1_555 1_555
C15_3 C9_3 1_555 1_555
H7_3 C15_3 1_555 1_555
C16_3 H8_3 1_555 1_555
C17_3 C16_3 1_555 1_555
H9_3 C17_3 1_555 1_555
C18_3 C17_3 1_555 1_555
C19_3 C18_3 1_555 1_555
H10_3 C19_3 1_555 1_555
C20_3 N2_3 1_555 1_555
H11_3 C20_3 1_555 1_555
C21_3 C18_3 1_555 1_555
C22_3 C21_3 1_555 1_555
H12_3 C22_3 1_555 1_555
C23_3 C22_3 1_555 1_555
H13_3 C23_3 1_555 1_555
C24_3 N3_2 1_555 1_555
H14_3 C24_3 1_555 1_555
C25_3 C21_3 1_555 1_555
H15_3 C25_3 1_555 1_555
Zn8 N3_2 1_555 1_555
N4_2 Zn8_2 1_555 1_555
O12_2 Zn8_2 1_555 1_555
O13 Zn5 1_555 1_555
C7_3 C8_3 1_555 1_555
C14_3 C15_3 1_555 1_555
C19_3 C20_3 1_555 1_555
C24_3 C25_3 1_555 1_555
N1_3 O7_3 1_555 1_555
O8_3 N1_3 1_555 1_555
H5_3 C10_3 1_555 1_555
C11_3 N1_3 1_555 1_555
C10_3 C11_3 1_555 1_555
Zn5_2 O14_2 1_555 1_555
O5_2 C13_3 1_555 1_555
Zn8 O5_2 1_555 1_555
O8_4 N1_4 1_555 1_555
H5_4 C10_4 1_555 1_555
C11_4 N1_4 1_555 1_555
C10_4 C11_4 1_555 1_555
O12_2 C13_4 1_555 1_555
Zn5_2 N2_4 1_555 1_555
Zn8 O14_2 1_555 1_555
N2_4 C16_4 1_555 1_555
N4_2 C23_4 1_555 1_555
O1_4 Zn5_2 1_555 1_555
O2_4 C1_4 1_555 1_555
O10 C5_4 1_555 1_555
H1_4 O14_2 1_555 1_555
C1_4 O1_4 1_555 1_555
C2_4 C1_4 1_555 1_555
C3_4 C2_4 1_555 1_555
H2_4 C3_4 1_555 1_555
C4_4 C3_4 1_555 1_555
C5_4 C4_4 1_555 1_555
C6_4 C4_4 1_555 1_555
C7_4 C6_4 1_555 1_555
H3_4 C7_4 1_555 1_555
C8_4 C2_4 1_555 1_555
H4_4 C8_4 1_555 1_555
C9_4 C6_4 1_555 1_555
C14_4 C12_7 1_555 1_555
C15_4 C9_4 1_555 1_555
H7_4 C15_4 1_555 1_555
C16_4 H8_4 1_555 1_555
C17_4 C16_4 1_555 1_555
H9_4 C17_4 1_555 1_555
C18_4 C17_4 1_555 1_555
C19_4 C18_4 1_555 1_555
H10_4 C19_4 1_555 1_555
C20_4 N2_4 1_555 1_555
H11_4 C20_4 1_555 1_555
C21_4 C18_4 1_555 1_555
C22_4 C21_4 1_555 1_555
H12_4 C22_4 1_555 1_555
C23_4 C22_4 1_555 1_555
H13_4 C23_4 1_555 1_555
C24_4 N4_2 1_555 1_555
H14_4 C24_4 1_555 1_555
C25_4 C21_4 1_555 1_555
H15_4 C25_4 1_555 1_555
O13_2 Zn5_2 1_555 1_555
C7_4 C8_4 1_555 1_555
C14_4 C15_4 1_555 1_555
C19_4 C20_4 1_555 1_555
C24_4 C25_4 1_555 1_555

#END
