
###############################################################################
#
# This file contains modified crystal structure data generated from the
# MOF subset of the Cambridge Structural Database (CSD) v543 
# hosted by the Cambridge Crystallographic Data Centre (CCDC).
#
# This work is licensed under the Creative Commons
# Attribution-NonCommercial-ShareAlike 4.0 International License.
# To view a copy of this license, visit
# http://creativecommons.org/licenses/by-nc-sa/4.0/
# or send a letter to
# Creative Commons, PO Box 1866, Mountain View, CA 94042, USA.
#
# CIF created using the CSD Python API on 29 September 2022
# The structure has been converted into the P1 space group
# The structure has a 3D framework
# The original CSD entry WEZWII is in the cubic crystal system
# The framework has been calculated to contain at least 10.0% void space
# The void calculation uses a probe of radius 1.32A, grid spacing 0.4
#
###############################################################################

data_WEZWII
_chemical_formula_moiety         '(C36 H36 Al8 O48)n'
_symmetry_cell_setting           triclinic
_symmetry_space_group_name_H-M   'P 1'
_symmetry_Int_Tables_number      1
_space_group_name_Hall           'P 1'
loop_
_symmetry_equiv_pos_site_id
_symmetry_equiv_pos_as_xyz
1 x,y,z
_cell_length_a                   11.4477(6)
_cell_length_b                   11.4477(6)
_cell_length_c                   11.4477(6)
_cell_angle_alpha                90
_cell_angle_beta                 90
_cell_angle_gamma                90
_cell_volume                     1500.22
loop_
_atom_site_label
_atom_site_type_symbol
_atom_site_fract_x
_atom_site_fract_y
_atom_site_fract_z
Al1 Al 0.2500 0.2500 0.2500
C1 C 0.2598(6) 0.2482(5) 0.0000
H1 H 0.2185 0.3182 0.0000
O1 O 0.2862(3) 0.2036(3) 0.0961(2)
C2 C 0.0000 0.2598(6) 0.2482(5)
C3 C 0.2482(5) 0.0000 0.2598(6)
H2 H 0.0000 0.2185 0.3182
H3 H 0.3182 0.0000 0.2185
O3 O 0.0961(2) 0.2862(3) 0.2036(3)
O5 O 0.2036(3) 0.0961(2) 0.2862(3)
O7 O 0.2138(3) 0.2964(3) 0.4039(2)
O8 O 0.4039(2) 0.2138(3) 0.2964(3)
O9 O 0.2964(3) 0.4039(2) 0.2138(3)
C1_2 C 0.2598(6) 0.2482(5) 1.0000
H1_2 H 0.2185 0.3182 1.0000
Al2 Al 0.2500 0.2500 0.7500
O2 O 0.2862(3) 0.2036(3) 0.9039(2)
Al4 Al 0.2500 0.7500 0.2500
C3_2 C 0.2482(5) 1.0000 0.2598(6)
H3_2 H 0.3182 1.0000 0.2185
O6 O 0.2036(3) 0.9039(2) 0.2862(3)
Al3 Al 0.7500 0.2500 0.2500
C2_2 C 1.0000 0.2598(6) 0.2482(5)
H2_2 H 1.0000 0.2185 0.3182
O4 O 0.9039(2) 0.2862(3) 0.2036(3)
Al1_2 Al 0.7500 0.7500 0.7500
C1_3 C 0.7598(6) 0.7482(5) 0.5000
H1_3 H 0.7185 0.8182 0.5000
O1_2 O 0.7862(3) 0.7036(3) 0.5961(2)
Al2_2 Al 0.7500 0.7500 0.2500
Al3_2 Al 0.2500 0.7500 0.7500
Al4_2 Al 0.7500 0.2500 0.7500
C2_3 C 0.5000 0.7598(6) 0.7482(5)
C3_3 C 0.7482(5) 0.5000 0.7598(6)
H2_3 H 0.5000 0.7185 0.8182
H3_3 H 0.8182 0.5000 0.7185
O2_2 O 0.7862(3) 0.7036(3) 0.4039(2)
O3_2 O 0.5961(2) 0.7862(3) 0.7036(3)
O4_2 O 0.4039(2) 0.7862(3) 0.7036(3)
O5_2 O 0.7036(3) 0.5961(2) 0.7862(3)
O6_2 O 0.7036(3) 0.4039(2) 0.7862(3)
O7_2 O 0.7138(3) 0.7964(3) 0.9039(2)
O8_2 O 0.9039(2) 0.7138(3) 0.7964(3)
O9_2 O 0.7964(3) 0.9039(2) 0.7138(3)
C2_4 C -0.0000 0.7402(6) 0.2482(5)
H2_4 H 0.0000 0.7815 0.3182
O4_3 O 0.0961(2) 0.7138(3) 0.2036(3)
C3_4 C 0.7518(5) 0.0000 0.2598(6)
H3_4 H 0.6818 0.0000 0.2185
O6_3 O 0.7964(3) 0.0961(2) 0.2862(3)
C1_4 C 0.7402(6) 0.7518(5) 0.0000
H1_4 H 0.7815 0.6818 0.0000
O1_3 O 0.7138(3) 0.7964(3) 0.0961(2)
C2_5 C 1.0000 0.7402(6) 0.2482(5)
C3_5 C 0.7518(5) 1.0000 0.2598(6)
H2_5 H 1.0000 0.7815 0.3182
H3_5 H 0.6818 1.0000 0.2185
O3_3 O 0.9039(2) 0.7138(3) 0.2036(3)
O5_3 O 0.7964(3) 0.9039(2) 0.2862(3)
O8_3 O 0.5961(2) 0.7862(3) 0.2964(3)
O9_3 O 0.7036(3) 0.5961(2) 0.2138(3)
C1_5 C 0.7402(6) 0.7518(5) 1.0000
H1_5 H 0.7815 0.6818 1.0000
C2_6 C 0.0000 0.2598(6) 0.7518(5)
H2_6 H 0.0000 0.2185 0.6818
O4_4 O 0.0961(2) 0.2862(3) 0.7964(3)
C1_6 C 0.7402(6) 0.2482(5) 0.0000
H1_6 H 0.7815 0.3182 0.0000
O2_3 O 0.7138(3) 0.2036(3) 0.0961(2)
C1_7 C 0.7402(6) 0.2482(5) 1.0000
H1_7 H 0.7815 0.3182 1.0000
O1_4 O 0.7138(3) 0.2036(3) 0.9039(2)
C2_7 C 1.0000 0.2598(6) 0.7518(5)
C3_6 C 0.7518(5) 0.0000 0.7402(6)
H2_7 H 1.0000 0.2185 0.6818
H3_6 H 0.6818 0.0000 0.7815
O3_4 O 0.9039(2) 0.2862(3) 0.7964(3)
O5_4 O 0.7964(3) 0.0961(2) 0.7138(3)
O7_3 O 0.7862(3) 0.2964(3) 0.5961(2)
O8_4 O 0.5961(2) 0.2138(3) 0.7036(3)
C3_7 C 0.7518(5) 1.0000 0.7402(6)
H3_7 H 0.6818 1.0000 0.7815
C3_8 C 0.2482(5) 0.0000 0.7402(6)
H3_8 H 0.3182 0.0000 0.7815
O6_4 O 0.2036(3) 0.0961(2) 0.7138(3)
C1_8 C 0.2598(6) 0.7518(5) 0.0000
H1_8 H 0.2185 0.6818 0.0000
O2_4 O 0.2862(3) 0.7964(3) 0.0961(2)
C1_9 C 0.2598(6) 0.7518(5) 1.0000
H1_9 H 0.2185 0.6818 1.0000
O1_5 O 0.2862(3) 0.7964(3) 0.9039(2)
C2_8 C 0.0000 0.7402(6) 0.7518(5)
C3_9 C 0.2482(5) 1.0000 0.7402(6)
H2_8 H 0.0000 0.7815 0.6818
H3_9 H 0.3182 1.0000 0.7815
O3_5 O 0.0961(2) 0.7138(3) 0.7964(3)
O5_5 O 0.2036(3) 0.9039(2) 0.7138(3)
O7_4 O 0.2138(3) 0.7036(3) 0.5961(2)
O9_4 O 0.2964(3) 0.5961(2) 0.7862(3)
C2_9 C 1.0000 0.7402(6) 0.7518(5)
H2_9 H 1.0000 0.7815 0.6818
C1_10 C 0.2402(6) 0.2518(5) 0.5000
H1_10 H 0.2815 0.1818 0.5000
O1_6 O 0.2138(3) 0.2964(3) 0.5961(2)
C2_10 C 0.5000 0.2402(6) 0.7482(5)
C3_10 C 0.2518(5) 0.5000 0.7598(6)
H2_10 H 0.5000 0.2815 0.8182
H3_10 H 0.1818 0.5000 0.7185
O3_6 O 0.4039(2) 0.2138(3) 0.7036(3)
O5_6 O 0.2964(3) 0.4039(2) 0.7862(3)
C1_11 C 0.2402(6) 0.7482(5) 0.5000
H1_11 H 0.2815 0.8182 0.5000
O1_7 O 0.2138(3) 0.7036(3) 0.4039(2)
C2_11 C 0.5000 0.7598(6) 0.2518(5)
C3_11 C 0.2518(5) 0.5000 0.2402(6)
H2_11 H 0.5000 0.7185 0.1818
H3_11 H 0.1818 0.5000 0.2815
O3_7 O 0.4039(2) 0.7862(3) 0.2964(3)
O5_7 O 0.2964(3) 0.5961(2) 0.2138(3)
C1_12 C 0.7598(6) 0.2518(5) 0.5000
H1_12 H 0.7185 0.1818 0.5000
O1_8 O 0.7862(3) 0.2964(3) 0.4039(2)
C2_12 C 0.5000 0.2402(6) 0.2518(5)
C3_12 C 0.7482(5) 0.5000 0.2402(6)
H2_12 H 0.5000 0.2815 0.1818
H3_12 H 0.8182 0.5000 0.2815
O3_8 O 0.5961(2) 0.2138(3) 0.2964(3)
O5_8 O 0.7036(3) 0.4039(2) 0.2138(3)
loop_
_geom_bond_atom_site_label_1
_geom_bond_atom_site_label_2
_geom_bond_site_symmetry_1
_geom_bond_site_symmetry_2
Al1 O1 1_555 1_555
C1 H1 1_555 1_555
O1 C1 1_555 1_555
C2 H2 1_555 1_555
C3 H3 1_555 1_555
O3 Al1 1_555 1_555
O5 Al1 1_555 1_555
O7 Al1 1_555 1_555
O8 Al1 1_555 1_555
O9 Al1 1_555 1_555
C2 O3 1_555 1_555
C3 O5 1_555 1_555
C1_2 H1_2 1_555 1_555
Al2 O2 1_555 1_555
O2 C1_2 1_555 1_555
Al4 O6 1_555 1_555
C3_2 H3_2 1_555 1_555
O6 C3_2 1_555 1_555
Al3 O4 1_555 1_555
C2_2 H2_2 1_555 1_555
O4 C2_2 1_555 1_555
Al1_2 O1_2 1_555 1_555
C1_3 H1_3 1_555 1_555
O1_2 C1_3 1_555 1_555
Al2_2 O2_2 1_555 1_555
Al3_2 O4_2 1_555 1_555
Al4_2 O6_2 1_555 1_555
C2_3 H2_3 1_555 1_555
C3_3 H3_3 1_555 1_555
O2_2 C1_3 1_555 1_555
O3_2 Al1_2 1_555 1_555
O4_2 C2_3 1_555 1_555
O5_2 Al1_2 1_555 1_555
O6_2 C3_3 1_555 1_555
O7_2 Al1_2 1_555 1_555
O8_2 Al1_2 1_555 1_555
O9_2 Al1_2 1_555 1_555
C2_3 O3_2 1_555 1_555
C3_3 O5_2 1_555 1_555
Al4 O4_3 1_555 1_555
C2_4 H2_4 1_555 1_555
O4_3 C2_4 1_555 1_555
Al3 O6_3 1_555 1_555
C3_4 H3_4 1_555 1_555
O6_3 C3_4 1_555 1_555
Al2_2 O1_3 1_555 1_555
C1_4 H1_4 1_555 1_555
O1_3 C1_4 1_555 1_555
C2_5 H2_5 1_555 1_555
C3_5 H3_5 1_555 1_555
O3_3 Al2_2 1_555 1_555
O5_3 Al2_2 1_555 1_555
O8_3 Al2_2 1_555 1_555
O9_3 Al2_2 1_555 1_555
C2_5 O3_3 1_555 1_555
C3_5 O5_3 1_555 1_555
C1_5 H1_5 1_555 1_555
O7_2 C1_5 1_555 1_555
Al2 O4_4 1_555 1_555
C2_6 H2_6 1_555 1_555
O4_4 C2_6 1_555 1_555
C1_6 H1_6 1_555 1_555
Al3 O2_3 1_555 1_555
O2_3 C1_6 1_555 1_555
Al4_2 O1_4 1_555 1_555
C1_7 H1_7 1_555 1_555
O1_4 C1_7 1_555 1_555
C2_7 H2_7 1_555 1_555
C3_6 H3_6 1_555 1_555
O3_4 Al4_2 1_555 1_555
O5_4 Al4_2 1_555 1_555
O7_3 Al4_2 1_555 1_555
O8_4 Al4_2 1_555 1_555
C2_7 O3_4 1_555 1_555
C3_6 O5_4 1_555 1_555
C3_7 H3_7 1_555 1_555
O9_2 C3_7 1_555 1_555
Al2 O6_4 1_555 1_555
C3_8 H3_8 1_555 1_555
O6_4 C3_8 1_555 1_555
C1_8 H1_8 1_555 1_555
Al4 O2_4 1_555 1_555
O2_4 C1_8 1_555 1_555
Al3_2 O1_5 1_555 1_555
C1_9 H1_9 1_555 1_555
O1_5 C1_9 1_555 1_555
C2_8 H2_8 1_555 1_555
C3_9 H3_9 1_555 1_555
O3_5 Al3_2 1_555 1_555
O5_5 Al3_2 1_555 1_555
O7_4 Al3_2 1_555 1_555
O9_4 Al3_2 1_555 1_555
C2_8 O3_5 1_555 1_555
C3_9 O5_5 1_555 1_555
C2_9 H2_9 1_555 1_555
O8_2 C2_9 1_555 1_555
Al2 O1_6 1_555 1_555
C1_10 H1_10 1_555 1_555
O1_6 C1_10 1_555 1_555
C2_10 H2_10 1_555 1_555
C3_10 H3_10 1_555 1_555
O7 C1_10 1_555 1_555
O3_6 Al2 1_555 1_555
O8_4 C2_10 1_555 1_555
O5_6 Al2 1_555 1_555
O9_4 C3_10 1_555 1_555
C2_10 O3_6 1_555 1_555
C3_10 O5_6 1_555 1_555
Al4 O1_7 1_555 1_555
C1_11 H1_11 1_555 1_555
O1_7 C1_11 1_555 1_555
C2_11 H2_11 1_555 1_555
C3_11 H3_11 1_555 1_555
O7_4 C1_11 1_555 1_555
O3_7 Al4 1_555 1_555
O8_3 C2_11 1_555 1_555
O5_7 Al4 1_555 1_555
O9 C3_11 1_555 1_555
C2_11 O3_7 1_555 1_555
C3_11 O5_7 1_555 1_555
Al3 O1_8 1_555 1_555
C1_12 H1_12 1_555 1_555
O1_8 C1_12 1_555 1_555
C2_12 H2_12 1_555 1_555
C3_12 H3_12 1_555 1_555
O7_3 C1_12 1_555 1_555
O3_8 Al3 1_555 1_555
O8 C2_12 1_555 1_555
O5_8 Al3 1_555 1_555
O9_3 C3_12 1_555 1_555
C2_12 O3_8 1_555 1_555
C3_12 O5_8 1_555 1_555

#END
