
###############################################################################
#
# This file contains modified crystal structure data generated from the
# MOF subset of the Cambridge Structural Database (CSD) v543 
# hosted by the Cambridge Crystallographic Data Centre (CCDC).
#
# This work is licensed under the Creative Commons
# Attribution-NonCommercial-ShareAlike 4.0 International License.
# To view a copy of this license, visit
# http://creativecommons.org/licenses/by-nc-sa/4.0/
# or send a letter to
# Creative Commons, PO Box 1866, Mountain View, CA 94042, USA.
#
# CIF created using the CSD Python API on 29 September 2022
# The structure has been converted into the P1 space group
# The structure has a 3D framework
# The original CSD entry WEZWOO is in the cubic crystal system
# The framework has been calculated to contain at least 10.0% void space
# The void calculation uses a probe of radius 1.32A, grid spacing 0.4
#
###############################################################################

data_WEZWOO
_chemical_formula_moiety         '(C36 H36 Ga8 O48)n'
_symmetry_cell_setting           triclinic
_symmetry_space_group_name_H-M   'P 1'
_symmetry_Int_Tables_number      1
_space_group_name_Hall           'P 1'
loop_
_symmetry_equiv_pos_site_id
_symmetry_equiv_pos_as_xyz
1 x,y,z
_cell_length_a                   11.540(8)
_cell_length_b                   11.540(8)
_cell_length_c                   11.540(8)
_cell_angle_alpha                90
_cell_angle_beta                 90
_cell_angle_gamma                90
_cell_volume                     1536.8
loop_
_atom_site_label
_atom_site_type_symbol
_atom_site_fract_x
_atom_site_fract_y
_atom_site_fract_z
Ga1 Ga 0.2500 0.2500 0.2500
C1 C 0.2421(3) 0.2640(3) 0.0000
H1 H 0.3120 0.2239 0.0000
O1 O 0.19684(17) 0.29001(18) 0.09436(16)
C2 C -0.0000 0.2421(3) 0.2640(3)
C3 C 0.2640(3) -0.0000 0.2421(3)
H2 H -0.0000 0.3120 0.2239
H3 H 0.2239 -0.0000 0.3120
O3 O 0.09436(16) 0.19684(17) 0.29001(18)
O5 O 0.29001(18) 0.09436(16) 0.19684(17)
O7 O 0.30316(17) 0.20999(18) 0.40564(16)
O8 O 0.40564(16) 0.30316(17) 0.20999(18)
O9 O 0.20999(18) 0.40564(16) 0.30316(17)
C1_2 C 0.2421(3) 0.2640(3) 1.0000
H1_2 H 0.3120 0.2239 1.0000
Ga2 Ga 0.2500 0.2500 0.7500
O2 O 0.19684(17) 0.29001(18) 0.90564(16)
Ga4 Ga 0.2500 0.7500 0.2500
C3_2 C 0.2640(3) 1.0000 0.2421(3)
H3_2 H 0.2239 1.0000 0.3120
O6 O 0.29001(18) 0.90564(16) 0.19684(17)
Ga3 Ga 0.7500 0.2500 0.2500
C2_2 C 1.0000 0.2421(3) 0.2640(3)
H2_2 H 1.0000 0.3120 0.2239
O4 O 0.90564(16) 0.19684(17) 0.29001(18)
Ga1_2 Ga 0.7500 0.7500 0.7500
C1_3 C 0.7421(3) 0.7640(3) 0.5000
H1_3 H 0.8120 0.7239 0.5000
O1_2 O 0.69684(17) 0.79001(18) 0.59436(16)
Ga2_2 Ga 0.7500 0.7500 0.2500
Ga3_2 Ga 0.2500 0.7500 0.7500
Ga4_2 Ga 0.7500 0.2500 0.7500
C2_3 C 0.5000 0.7421(3) 0.7640(3)
C3_3 C 0.7640(3) 0.5000 0.7421(3)
H2_3 H 0.5000 0.8120 0.7239
H3_3 H 0.7239 0.5000 0.8120
O2_2 O 0.69684(17) 0.79001(18) 0.40564(16)
O3_2 O 0.59436(16) 0.69684(17) 0.79001(18)
O4_2 O 0.40564(16) 0.69684(17) 0.79001(18)
O5_2 O 0.79001(18) 0.59436(16) 0.69684(17)
O6_2 O 0.79001(18) 0.40564(16) 0.69684(17)
O7_2 O 0.80316(17) 0.70999(18) 0.90564(16)
O8_2 O 0.90564(16) 0.80316(17) 0.70999(18)
O9_2 O 0.70999(18) 0.90564(16) 0.80316(17)
C2_4 C -0.0000 0.7579(3) 0.2640(3)
H2_4 H -0.0000 0.6880 0.2239
O4_3 O 0.09436(16) 0.80316(17) 0.29001(18)
C3_4 C 0.7360(3) 0.0000 0.2421(3)
H3_4 H 0.7761 0.0000 0.3120
O6_3 O 0.70999(18) 0.09436(16) 0.19684(17)
C1_4 C 0.7579(3) 0.7360(3) 0.0000
H1_4 H 0.6880 0.7761 0.0000
O1_3 O 0.80316(17) 0.70999(18) 0.09436(16)
C2_5 C 1.0000 0.7579(3) 0.2640(3)
C3_5 C 0.7360(3) 1.0000 0.2421(3)
H2_5 H 1.0000 0.6880 0.2239
H3_5 H 0.7761 1.0000 0.3120
O3_3 O 0.90564(16) 0.80316(17) 0.29001(18)
O5_3 O 0.70999(18) 0.90564(16) 0.19684(17)
O8_3 O 0.59436(16) 0.69684(17) 0.20999(18)
O9_3 O 0.79001(18) 0.59436(16) 0.30316(17)
C1_5 C 0.7579(3) 0.7360(3) 1.0000
H1_5 H 0.6880 0.7761 1.0000
C2_6 C -0.0000 0.2421(3) 0.7360(3)
H2_6 H -0.0000 0.3120 0.7761
O4_4 O 0.09436(16) 0.19684(17) 0.70999(18)
C1_6 C 0.7579(3) 0.2640(3) 0.0000
H1_6 H 0.6880 0.2239 0.0000
O2_3 O 0.80316(17) 0.29001(18) 0.09436(16)
C1_7 C 0.7579(3) 0.2640(3) 1.0000
H1_7 H 0.6880 0.2239 1.0000
O1_4 O 0.80316(17) 0.29001(18) 0.90564(16)
C2_7 C 1.0000 0.2421(3) 0.7360(3)
C3_6 C 0.7360(3) -0.0000 0.7579(3)
H2_7 H 1.0000 0.3120 0.7761
H3_6 H 0.7761 -0.0000 0.6880
O3_4 O 0.90564(16) 0.19684(17) 0.70999(18)
O5_4 O 0.70999(18) 0.09436(16) 0.80316(17)
O7_3 O 0.69684(17) 0.20999(18) 0.59436(16)
O8_4 O 0.59436(16) 0.30316(17) 0.79001(18)
C3_7 C 0.7360(3) 1.0000 0.7579(3)
H3_7 H 0.7761 1.0000 0.6880
C3_8 C 0.2640(3) -0.0000 0.7579(3)
H3_8 H 0.2239 -0.0000 0.6880
O6_4 O 0.29001(18) 0.09436(16) 0.80316(17)
C1_8 C 0.2421(3) 0.7360(3) 0.0000
H1_8 H 0.3120 0.7761 0.0000
O2_4 O 0.19684(17) 0.70999(18) 0.09436(16)
C1_9 C 0.2421(3) 0.7360(3) 1.0000
H1_9 H 0.3120 0.7761 1.0000
O1_5 O 0.19684(17) 0.70999(18) 0.90564(16)
C2_8 C -0.0000 0.7579(3) 0.7360(3)
C3_9 C 0.2640(3) 1.0000 0.7579(3)
H2_8 H -0.0000 0.6880 0.7761
H3_9 H 0.2239 1.0000 0.6880
O3_5 O 0.09436(16) 0.80316(17) 0.70999(18)
O5_5 O 0.29001(18) 0.90564(16) 0.80316(17)
O7_4 O 0.30316(17) 0.79001(18) 0.59436(16)
O9_4 O 0.20999(18) 0.59436(16) 0.69684(17)
C2_9 C 1.0000 0.7579(3) 0.7360(3)
H2_9 H 1.0000 0.6880 0.7761
C1_10 C 0.2579(3) 0.2360(3) 0.5000
H1_10 H 0.1880 0.2761 0.5000
O1_6 O 0.30316(17) 0.20999(18) 0.59436(16)
C2_10 C 0.5000 0.2579(3) 0.7640(3)
C3_10 C 0.2360(3) 0.5000 0.7421(3)
H2_10 H 0.5000 0.1880 0.7239
H3_10 H 0.2761 0.5000 0.8120
O3_6 O 0.40564(16) 0.30316(17) 0.79001(18)
O5_6 O 0.20999(18) 0.40564(16) 0.69684(17)
C1_11 C 0.2579(3) 0.7640(3) 0.5000
H1_11 H 0.1880 0.7239 0.5000
O1_7 O 0.30316(17) 0.79001(18) 0.40564(16)
C2_11 C 0.5000 0.7421(3) 0.2360(3)
C3_11 C 0.2360(3) 0.5000 0.2579(3)
H2_11 H 0.5000 0.8120 0.2761
H3_11 H 0.2761 0.5000 0.1880
O3_7 O 0.40564(16) 0.69684(17) 0.20999(18)
O5_7 O 0.20999(18) 0.59436(16) 0.30316(17)
C1_12 C 0.7421(3) 0.2360(3) 0.5000
H1_12 H 0.8120 0.2761 0.5000
O1_8 O 0.69684(17) 0.20999(18) 0.40564(16)
C2_12 C 0.5000 0.2579(3) 0.2360(3)
C3_12 C 0.7640(3) 0.5000 0.2579(3)
H2_12 H 0.5000 0.1880 0.2761
H3_12 H 0.7239 0.5000 0.1880
O3_8 O 0.59436(16) 0.30316(17) 0.20999(18)
O5_8 O 0.79001(18) 0.40564(16) 0.30316(17)
loop_
_geom_bond_atom_site_label_1
_geom_bond_atom_site_label_2
_geom_bond_site_symmetry_1
_geom_bond_site_symmetry_2
Ga1 O1 1_555 1_555
C1 H1 1_555 1_555
O1 C1 1_555 1_555
C2 H2 1_555 1_555
C3 H3 1_555 1_555
O3 Ga1 1_555 1_555
O5 Ga1 1_555 1_555
O7 Ga1 1_555 1_555
O8 Ga1 1_555 1_555
O9 Ga1 1_555 1_555
C2 O3 1_555 1_555
C3 O5 1_555 1_555
C1_2 H1_2 1_555 1_555
Ga2 O2 1_555 1_555
O2 C1_2 1_555 1_555
Ga4 O6 1_555 1_555
C3_2 H3_2 1_555 1_555
O6 C3_2 1_555 1_555
Ga3 O4 1_555 1_555
C2_2 H2_2 1_555 1_555
O4 C2_2 1_555 1_555
Ga1_2 O1_2 1_555 1_555
C1_3 H1_3 1_555 1_555
O1_2 C1_3 1_555 1_555
Ga2_2 O2_2 1_555 1_555
Ga3_2 O4_2 1_555 1_555
Ga4_2 O6_2 1_555 1_555
C2_3 H2_3 1_555 1_555
C3_3 H3_3 1_555 1_555
O2_2 C1_3 1_555 1_555
O3_2 Ga1_2 1_555 1_555
O4_2 C2_3 1_555 1_555
O5_2 Ga1_2 1_555 1_555
O6_2 C3_3 1_555 1_555
O7_2 Ga1_2 1_555 1_555
O8_2 Ga1_2 1_555 1_555
O9_2 Ga1_2 1_555 1_555
C2_3 O3_2 1_555 1_555
C3_3 O5_2 1_555 1_555
Ga4 O4_3 1_555 1_555
C2_4 H2_4 1_555 1_555
O4_3 C2_4 1_555 1_555
Ga3 O6_3 1_555 1_555
C3_4 H3_4 1_555 1_555
O6_3 C3_4 1_555 1_555
Ga2_2 O1_3 1_555 1_555
C1_4 H1_4 1_555 1_555
O1_3 C1_4 1_555 1_555
C2_5 H2_5 1_555 1_555
C3_5 H3_5 1_555 1_555
O3_3 Ga2_2 1_555 1_555
O5_3 Ga2_2 1_555 1_555
O8_3 Ga2_2 1_555 1_555
O9_3 Ga2_2 1_555 1_555
C2_5 O3_3 1_555 1_555
C3_5 O5_3 1_555 1_555
C1_5 H1_5 1_555 1_555
O7_2 C1_5 1_555 1_555
Ga2 O4_4 1_555 1_555
C2_6 H2_6 1_555 1_555
O4_4 C2_6 1_555 1_555
C1_6 H1_6 1_555 1_555
Ga3 O2_3 1_555 1_555
O2_3 C1_6 1_555 1_555
Ga4_2 O1_4 1_555 1_555
C1_7 H1_7 1_555 1_555
O1_4 C1_7 1_555 1_555
C2_7 H2_7 1_555 1_555
C3_6 H3_6 1_555 1_555
O3_4 Ga4_2 1_555 1_555
O5_4 Ga4_2 1_555 1_555
O7_3 Ga4_2 1_555 1_555
O8_4 Ga4_2 1_555 1_555
C2_7 O3_4 1_555 1_555
C3_6 O5_4 1_555 1_555
C3_7 H3_7 1_555 1_555
O9_2 C3_7 1_555 1_555
Ga2 O6_4 1_555 1_555
C3_8 H3_8 1_555 1_555
O6_4 C3_8 1_555 1_555
C1_8 H1_8 1_555 1_555
Ga4 O2_4 1_555 1_555
O2_4 C1_8 1_555 1_555
Ga3_2 O1_5 1_555 1_555
C1_9 H1_9 1_555 1_555
O1_5 C1_9 1_555 1_555
C2_8 H2_8 1_555 1_555
C3_9 H3_9 1_555 1_555
O3_5 Ga3_2 1_555 1_555
O5_5 Ga3_2 1_555 1_555
O7_4 Ga3_2 1_555 1_555
O9_4 Ga3_2 1_555 1_555
C2_8 O3_5 1_555 1_555
C3_9 O5_5 1_555 1_555
C2_9 H2_9 1_555 1_555
O8_2 C2_9 1_555 1_555
Ga2 O1_6 1_555 1_555
C1_10 H1_10 1_555 1_555
O1_6 C1_10 1_555 1_555
C2_10 H2_10 1_555 1_555
C3_10 H3_10 1_555 1_555
O7 C1_10 1_555 1_555
O3_6 Ga2 1_555 1_555
O8_4 C2_10 1_555 1_555
O5_6 Ga2 1_555 1_555
O9_4 C3_10 1_555 1_555
C2_10 O3_6 1_555 1_555
C3_10 O5_6 1_555 1_555
Ga4 O1_7 1_555 1_555
C1_11 H1_11 1_555 1_555
O1_7 C1_11 1_555 1_555
C2_11 H2_11 1_555 1_555
C3_11 H3_11 1_555 1_555
O7_4 C1_11 1_555 1_555
O3_7 Ga4 1_555 1_555
O8_3 C2_11 1_555 1_555
O5_7 Ga4 1_555 1_555
O9 C3_11 1_555 1_555
C2_11 O3_7 1_555 1_555
C3_11 O5_7 1_555 1_555
Ga3 O1_8 1_555 1_555
C1_12 H1_12 1_555 1_555
O1_8 C1_12 1_555 1_555
C2_12 H2_12 1_555 1_555
C3_12 H3_12 1_555 1_555
O7_3 C1_12 1_555 1_555
O3_8 Ga3 1_555 1_555
O8 C2_12 1_555 1_555
O5_8 Ga3 1_555 1_555
O9_3 C3_12 1_555 1_555
C2_12 O3_8 1_555 1_555
C3_12 O5_8 1_555 1_555

#END
