
###############################################################################
#
# This file contains modified crystal structure data generated from the
# MOF subset of the Cambridge Structural Database (CSD) v543 
# hosted by the Cambridge Crystallographic Data Centre (CCDC).
#
# This work is licensed under the Creative Commons
# Attribution-NonCommercial-ShareAlike 4.0 International License.
# To view a copy of this license, visit
# http://creativecommons.org/licenses/by-nc-sa/4.0/
# or send a letter to
# Creative Commons, PO Box 1866, Mountain View, CA 94042, USA.
#
# CIF created using the CSD Python API on 29 September 2022
# The structure has been converted into the P1 space group
# The structure has a 3D framework
# The original CSD entry WICGEV is in the monoclinic crystal system
# The original CSD entry WICGEV is in a Sohncke space group
# The framework has been calculated to contain at least 10.0% void space
# The void calculation uses a probe of radius 1.32A, grid spacing 0.4
#
###############################################################################

data_WICGEV
_chemical_formula_moiety         '(C24 H24 Mn12 O48)n'
_symmetry_cell_setting           triclinic
_symmetry_space_group_name_H-M   'P 1'
_symmetry_Int_Tables_number      1
_space_group_name_Hall           'P 1'
loop_
_symmetry_equiv_pos_site_id
_symmetry_equiv_pos_as_xyz
1 x,y,z
_cell_length_a                   11.7843(2)
_cell_length_b                   10.1979(2)
_cell_length_c                   18.7197(4)
_cell_angle_alpha                90
_cell_angle_beta                 127.1910(10)
_cell_angle_gamma                90
_cell_volume                     1792.12
loop_
_atom_site_label
_atom_site_type_symbol
_atom_site_fract_x
_atom_site_fract_y
_atom_site_fract_z
O32 O 0.4414(4) 0.0286(5) 0.8823(3)
C10 C 0.5048(7) 0.6383(7) 0.0793(5)
H10 H 0.5113 0.7068 0.1144
O20 O 0.5586(4) 0.5286(5) 0.1177(3)
Mn11 Mn 0.57718(9) 0.35640(9) 0.06452(6)
O31 O 0.6498(4) 0.8816(5) 0.0555(3)
O35 O 0.4069(4) 0.9584(5) 0.0311(2)
Mn3 Mn 0.00306(11) 0.45842(16) 0.74780(7)
Mn4 Mn 0.37782(9) 0.54315(9) 0.88127(6)
Mn5 Mn 0.42282(9) 0.85640(9) 0.93548(6)
C7 C 0.1218(7) 0.7320(8) 0.8087(5)
H7 H 0.0240 0.7453 0.7747
C8 C 0.2290(6) 0.3602(7) 0.7146(4)
H8 H 0.2365 0.3042 0.6784
C9 C 0.2446(7) 0.3180(8) 0.9284(4)
H9 H 0.2650 0.2517 0.9686
O13 O 0.1625(5) 0.6171(5) 0.8121(3)
O14 O 0.1990(4) 0.8305(5) 0.8463(3)
O15 O 0.1156(4) 0.3611(5) 0.7028(3)
O16 O 0.3397(4) 0.4288(4) 0.7722(3)
O17 O 0.1183(4) 0.3341(5) 0.8656(3)
O18 O 0.3502(4) 0.3816(5) 0.9445(3)
O19 O 0.4430(4) 0.6613(5) 0.9970(3)
Mn15 Mn 0.50738(12) 0.46042(16) 0.75237(8)
O33 O 0.4524(4) 0.7223(5) 0.8572(3)
O34 O 0.5931(4) 0.4584(5) 0.9689(2)
H12 H 0.7850 0.4340 0.0143
Mn1 Mn 0.57287(9) 0.06705(9) 0.56268(6)
Mn2 Mn 0.62864(9) 0.37918(9) 0.61891(6)
C1 C 0.4892(6) 0.2855(7) 0.4171(4)
H1 H 0.4776 0.2170 0.3804
C2 C 0.5362(6) 0.1706(7) 0.7029(4)
H2 H 0.5299 0.0817 0.7110
H3 H 0.7737 0.0062 0.5077
C4 C 0.8792(7) 0.1809(7) 0.6878(5)
H4 H 0.9763 0.1640 0.7217
C5 C 0.7825(6) 0.5538(7) 0.7876(4)
H5 H 0.7798 0.6076 0.8267
C6 C 0.2399(7) 0.1010(7) 0.4335(5)
H6 H 0.2581 0.1695 0.4719
C11 C 0.4754(6) 0.7469(8) 0.7987(4)
H11 H 0.4822 0.8351 0.7891
C12 C 0.6943(6) 0.4498(8) 0.9617(4)
O1 O 0.5538(4) 0.2577(5) 0.5000(3)
O2 O 0.4416(5) 0.3906(6) 0.3812(3)
O3 O 0.5523(4) 0.2028(5) 0.6448(3)
O4 O 0.5280(5) 0.2514(5) 0.7512(3)
O7 O 0.7984(4) 0.0870(5) 0.6513(3)
O8 O 0.8411(4) 0.3012(5) 0.6833(3)
O9 O 0.6725(4) 0.4854(5) 0.7317(3)
O10 O 0.8948(4) 0.5534(5) 0.7935(3)
O11 O 0.3459(4) 0.0414(5) 0.4474(3)
O12 O 0.1118(4) 0.0741(6) 0.3716(3)
O22 O 0.4887(4) 0.6713(5) 0.7560(3)
O24 O 0.6844(4) 0.4601(6) 0.8931(3)
Mn7 Mn 0.42713(9) 0.56705(9) 0.43732(6)
O26 O 0.4153(4) 0.4681(5) 0.5349(3)
O27 O 0.3297(4) 0.4615(6) 0.6133(3)
O28 O 0.6541(4) 0.5414(5) 0.5526(3)
O29 O 0.8882(4) 0.5741(6) 0.6284(3)
C3 C 0.6844(6) 0.9808(7) 0.4572(4)
O5 O 0.5847(4) 0.9681(5) 0.4651(3)
O6 O 0.6703(4) 0.9615(6) 0.3867(3)
Mn8 Mn 0.37136(9) 0.87918(9) 0.38109(6)
Mn14 Mn 0.49262(12) 0.96042(16) 0.24763(8)
O25 O 0.5584(5) 0.8906(6) 0.6188(3)
Mn9 Mn 0.99694(11) 0.95842(16) 0.25220(7)
C5_2 C 0.2175(6) 0.0538(7) 0.2124(4)
H5_2 H 0.2202 0.1076 0.1733
C11_2 C 0.5246(6) 0.2469(8) 0.2013(4)
H11_2 H 0.5178 0.3351 0.2109
O10_2 O 0.1052(4) 0.0534(5) 0.2065(3)
O21 O 0.5476(4) 0.2223(5) 0.1428(3)
O22_2 O 0.5113(4) 0.1713(5) 0.2440(3)
Mn10 Mn 0.62218(9) 0.04315(9) 0.11873(6)
C1_2 C 0.5108(6) 0.7855(7) 0.5829(4)
H1_2 H 0.5224 0.7170 0.6196
C2_2 C 0.4638(6) 0.6706(7) 0.2971(4)
H2_2 H 0.4701 0.5817 0.2890
C3_2 C 0.3156(6) 0.4808(7) 0.5428(4)
H3_2 H 0.2263 0.5062 0.4923
C4_2 C 0.1208(7) 0.6809(7) 0.3122(5)
H4_2 H 0.0237 0.6640 0.2783
C6_2 C 0.7601(7) 0.6010(7) 0.5665(5)
H6_2 H 0.7419 0.6695 0.5281
C12_2 C 0.3057(6) 0.9498(8) 0.0383(4)
O1_2 O 0.4462(4) 0.7577(5) 0.5000(3)
O3_2 O 0.4477(4) 0.7028(5) 0.3552(3)
O4_2 O 0.4720(5) 0.7514(5) 0.2488(3)
O7_2 O 0.2016(4) 0.5870(5) 0.3487(3)
O8_2 O 0.1589(4) 0.8012(5) 0.3167(3)
O9_2 O 0.3275(4) 0.9854(5) 0.2683(3)
O24_2 O 0.3156(4) 0.9601(6) 0.1069(3)
O30 O 0.6603(4) 0.9288(4) 0.2278(3)
H12_2 H 0.2150 0.9340 0.9857
C7_2 C 0.8782(7) 0.2320(8) 0.1913(5)
H7_2 H 0.9760 0.2453 0.2253
O13_2 O 0.8375(5) 0.1171(5) 0.1879(3)
O14_2 O 0.8010(4) 0.3305(5) 0.1537(3)
O19_2 O 0.5570(4) 0.1613(5) 0.0030(3)
C10_2 C 0.4952(7) 0.1383(7) 0.9207(5)
H10_2 H 0.4887 0.2068 0.8856
C8_2 C 0.7710(6) 0.8602(7) 0.2854(4)
H8_2 H 0.7635 0.8042 0.3216
C9_2 C 0.7554(7) 0.8180(8) 0.0716(4)
H9_2 H 0.7350 0.7517 0.0314
O15_2 O 0.8844(4) 0.8611(5) 0.2972(3)
O17_2 O 0.8817(4) 0.8341(5) 0.1344(3)
loop_
_geom_bond_atom_site_label_1
_geom_bond_atom_site_label_2
_geom_bond_site_symmetry_1
_geom_bond_site_symmetry_2
C10 H10 1_555 1_555
O20 C10 1_555 1_555
O20 Mn11 1_555 1_555
Mn4 O13 1_555 1_555
Mn5 O14 1_555 1_555
C7 H7 1_555 1_555
C8 H8 1_555 1_555
C9 H9 1_555 1_555
O13 Mn3 1_555 1_555
O14 C7 1_555 1_555
O15 Mn3 1_555 1_555
O16 Mn4 1_555 1_555
O17 Mn3 1_555 1_555
O18 Mn4 1_555 1_555
O19 Mn4 1_555 1_555
Mn15 O16 1_555 1_555
O33 Mn4 1_555 1_555
O34 Mn4 1_555 1_555
Mn5 O19 1_555 1_555
Mn5 O33 1_555 1_555
C7 O13 1_555 1_555
C8 O15 1_555 1_555
C8 O16 1_555 1_555
C9 O17 1_555 1_555
C9 O18 1_555 1_555
Mn1 O1 1_555 1_555
Mn2 O1 1_555 1_555
Mn15 O4 1_555 1_555
C1 H1 1_555 1_555
C2 H2 1_555 1_555
C4 H4 1_555 1_555
C5 H5 1_555 1_555
C6 H6 1_555 1_555
C11 H11 1_555 1_555
O1 C1 1_555 1_555
O2 C1 1_555 1_555
O3 Mn1 1_555 1_555
O4 C2 1_555 1_555
O7 Mn1 1_555 1_555
O8 Mn2 1_555 1_555
O9 Mn2 1_555 1_555
O11 Mn1 1_555 1_555
O12 C6 1_555 1_555
O33 C11 1_555 1_555
O22 Mn15 1_555 1_555
O34 C12 1_555 1_555
O24 Mn15 1_555 1_555
Mn7 O2 1_555 1_555
O26 Mn2 1_555 1_555
O27 Mn15 1_555 1_555
O28 Mn2 1_555 1_555
Mn2 O3 1_555 1_555
Mn15 O9 1_555 1_555
C2 O3 1_555 1_555
C4 O7 1_555 1_555
C4 O8 1_555 1_555
C5 O9 1_555 1_555
C5 O10 1_555 1_555
C6 O11 1_555 1_555
C11 O22 1_555 1_555
C12 O24 1_555 1_555
Mn7 O26 1_555 1_555
Mn7 O28 1_555 1_555
O6 C3 1_555 1_555
Mn8 O5 1_555 1_555
Mn14 O6 1_555 1_555
C3 O5 1_555 1_555
C5_2 H5_2 1_555 1_555
C11_2 H11_2 1_555 1_555
O21 C11_2 1_555 1_555
Mn10 O21 1_555 1_555
Mn11 O21 1_555 1_555
C5_2 O10_2 1_555 1_555
C11_2 O22_2 1_555 1_555
Mn7 O1_2 1_555 1_555
Mn8 O1_2 1_555 1_555
Mn14 O4_2 1_555 1_555
C1_2 H1_2 1_555 1_555
C2_2 H2_2 1_555 1_555
C3_2 H3_2 1_555 1_555
C4_2 H4_2 1_555 1_555
C6_2 H6_2 1_555 1_555
O1_2 C1_2 1_555 1_555
O25 C1_2 1_555 1_555
O3_2 Mn7 1_555 1_555
O4_2 C2_2 1_555 1_555
O27 C3_2 1_555 1_555
O7_2 Mn7 1_555 1_555
O8_2 Mn8 1_555 1_555
O9_2 Mn8 1_555 1_555
O29 C6_2 1_555 1_555
O35 C12_2 1_555 1_555
O24_2 Mn14 1_555 1_555
O30 Mn14 1_555 1_555
Mn8 O3_2 1_555 1_555
Mn14 O9_2 1_555 1_555
C2_2 O3_2 1_555 1_555
C3_2 O26 1_555 1_555
C4_2 O7_2 1_555 1_555
C4_2 O8_2 1_555 1_555
C6_2 O28 1_555 1_555
C12_2 O24_2 1_555 1_555
Mn10 O13_2 1_555 1_555
Mn11 O14_2 1_555 1_555
C7_2 H7_2 1_555 1_555
O14_2 C7_2 1_555 1_555
O19_2 Mn10 1_555 1_555
Mn11 O19_2 1_555 1_555
C7_2 O13_2 1_555 1_555
C10_2 H10_2 1_555 1_555
O32 C10_2 1_555 1_555
C8_2 H8_2 1_555 1_555
C9_2 H9_2 1_555 1_555
O15_2 Mn9 1_555 1_555
O17_2 Mn9 1_555 1_555
C8_2 O15_2 1_555 1_555
C8_2 O30 1_555 1_555
C9_2 O17_2 1_555 1_555
C9_2 O31 1_555 1_555

#END
