
###############################################################################
#
# This file contains modified crystal structure data generated from the
# MOF subset of the Cambridge Structural Database (CSD) v543 
# hosted by the Cambridge Crystallographic Data Centre (CCDC).
#
# This work is licensed under the Creative Commons
# Attribution-NonCommercial-ShareAlike 4.0 International License.
# To view a copy of this license, visit
# http://creativecommons.org/licenses/by-nc-sa/4.0/
# or send a letter to
# Creative Commons, PO Box 1866, Mountain View, CA 94042, USA.
#
# CIF created using the CSD Python API on 29 September 2022
# The structure has been converted into the P1 space group
# The structure has a 3D framework
# The original CSD entry WIDPOR is in the monoclinic crystal system
# The framework has been calculated to contain at least 10.0% void space
# The void calculation uses a probe of radius 1.32A, grid spacing 0.4
#
###############################################################################

data_WIDPOR
_chemical_formula_moiety         '(C156 H104 Cd4 N24 O16 S4)n'
_symmetry_cell_setting           triclinic
_symmetry_space_group_name_H-M   'P 1'
_symmetry_Int_Tables_number      1
_space_group_name_Hall           'P 1'
loop_
_symmetry_equiv_pos_site_id
_symmetry_equiv_pos_as_xyz
1 x,y,z
_cell_length_a                   10.5969(3)
_cell_length_b                   14.7104(4)
_cell_length_c                   28.7304(7)
_cell_angle_alpha                90
_cell_angle_beta                 92.431(2)
_cell_angle_gamma                90
_cell_volume                     4474.6
loop_
_atom_site_label
_atom_site_type_symbol
_atom_site_fract_x
_atom_site_fract_y
_atom_site_fract_z
N2 N 0.1365(3) 0.6281(2) 0.71846(11)
N4 N 0.0861(3) 0.5260(2) 0.66500(10)
C4 C 0.0244(3) 0.4833(2) 0.62537(12)
C7 C 0.1664(4) 0.4843(3) 0.69754(13)
H2 H 0.1948 0.4231 0.6972
C12 C 0.1964(4) 0.5482(3) 0.72994(13)
H5 H 0.2509 0.5391 0.7566
C21 C 0.0088(4) 0.3896(3) 0.62524(13)
H9 H 0.0364 0.3542 0.6514
C22 C 0.0708(4) 0.6125(2) 0.67936(13)
H10 H 0.0194 0.6564 0.6634
C34 C 0.0786(7) 0.0219(5) 0.4395(2)
C39 C 0.0162(7) 0.0969(4) 0.4576(2)
H26 H 0.0301 0.1121 0.4896
Cd4 Cd 0.15020(2) 0.76604(2) 0.75661(2)
N3 N 0.1693(3) 0.6889(2) 0.82755(11)
N5 N 0.1252(3) 0.5770(2) 0.87534(13)
C11 C 0.0812(4) 0.6334(3) 0.84151(13)
C17 C 0.0592(4) 0.5022(3) 0.89511(14)
C34_2 C 0.0786(7) 0.4781(5) 0.9395(2)
H21 H 0.1355 0.5123 0.9591
C36 C 0.2522(5) 0.5968(4) 0.8819(2)
H23 H 0.3108 0.5681 0.9031
C38 C 0.2766(5) 0.6651(4) 0.85215(19)
H25 H 0.3569 0.6924 0.8489
C39_2 C 0.0162(7) 0.4031(4) 0.9576(2)
H26_2 H 0.0301 0.3879 0.9896
N1 N 0.1805(3) 0.9081(2) 0.78761(11)
C16 C 0.2714(4) 0.9203(3) 0.81970(15)
H7 H 0.3087 0.8728 0.8380
C29 C 0.1545(4) 0.9927(3) 0.76975(15)
H24 H 0.3388 0.9988 0.9139
O5 O 0.3715(2) 0.7560(2) 0.76249(11)
O6 O 0.3065(2) 0.8201(2) 0.69546(10)
S1 S 0.63898(7) 0.77770(6) 0.75580(3)
O1 O 0.9787(2) 0.81220(18) 0.71048(9)
O2 O 0.9123(2) 0.75840(18) 0.77763(9)
C1 C 0.5277(3) 0.8101(3) 0.71440(13)
C3 C 0.7606(3) 0.8068(2) 0.72048(13)
C5 C 0.8935(3) 0.7916(2) 0.73772(13)
C15 C 0.3911(3) 0.7947(3) 0.72435(14)
C24 C 0.5810(4) 0.8406(4) 0.67511(16)
H12 H 0.5338 0.8604 0.6481
C27 C 0.7156(4) 0.8396(3) 0.67893(16)
H15 H 0.7680 0.8597 0.6550
N3_2 N 0.1693(3) 0.8111(2) 0.32755(11)
N5_2 N 0.1252(3) 0.9230(2) 0.37534(13)
C11_2 C 0.0812(4) 0.8666(3) 0.34151(13)
C17_2 C 0.0592(4) 0.9978(3) 0.39511(14)
H21_2 H 0.1355 0.9877 0.4591
C36_2 C 0.2522(5) 0.9032(4) 0.3819(2)
H23_2 H 0.3108 0.9319 0.4031
C38_2 C 0.2766(5) 0.8349(4) 0.35215(19)
H25_2 H 0.3569 0.8076 0.3489
Cd3 Cd 0.15020(2) 0.73396(2) 0.25661(2)
N1_2 N 0.1805(3) 0.5919(2) 0.28761(11)
N6 N 0.3048(3) 0.4921(2) 0.32345(11)
C2 C 0.9098(4) 0.4001(3) 0.54763(12)
C6 C 0.9138(4) 0.2743(2) 0.48947(13)
H1 H 0.9822 0.2488 0.5075
C8 C 0.4067(4) 0.4566(3) 0.35270(14)
C9 C 0.8567(4) 0.3545(3) 0.50472(13)
C10 C 0.9220(4) 0.4938(3) 0.54970(13)
H3 H 0.8900 0.5297 0.5244
C13 C 0.9521(4) 0.3488(3) 0.58615(13)
H6 H 0.9418 0.2847 0.5856
C14 C 0.8720(4) 0.2314(3) 0.44834(13)
C16_2 C 0.2714(4) 0.5797(3) 0.31970(15)
H7_2 H 0.3087 0.6272 0.3380
C18 C 0.9210(5) 0.1231(3) 0.38486(15)
H8 H 0.8669 0.1577 0.3645
C19 C 0.9357(4) 0.1489(3) 0.43052(13)
C20 C 0.6061(4) 0.3889(3) 0.40789(13)
C23 C 0.9801(4) 0.5359(2) 0.58795(13)
H11 H 0.9896 0.6001 0.5887
C25 C 0.7701(4) 0.2696(3) 0.42257(13)
H13 H 0.7394 0.2403 0.3949
C26 C 0.7573(4) 0.3919(3) 0.47804(13)
H14 H 0.7192 0.4467 0.4879
C28 C 0.7127(4) 0.3500(3) 0.43689(13)
C29_2 C 0.1545(4) 0.5073(3) 0.26975(15)
H16 H 0.0925 0.4944 0.2458
C30 C 0.6019(4) 0.3778(3) 0.36012(15)
H17 H 0.6690 0.3468 0.3460
C31 C 0.2305(4) 0.4445(3) 0.29144(16)
H18 H 0.2321 0.3809 0.2857
C32 C 0.5028(4) 0.4106(3) 0.33247(15)
H19 H 0.5009 0.4014 0.2997
C33 C 0.5073(5) 0.4361(3) 0.42815(16)
H20 H 0.5090 0.4452 0.4609
C35 C 0.9821(5) 0.0486(3) 0.36745(15)
H22 H 0.9695 0.0329 0.3355
C37 C 0.4064(5) 0.4698(3) 0.40031(16)
H24_2 H 0.3388 0.5012 0.4139
O5_2 O 0.3715(2) 0.7440(2) 0.26249(11)
O6_2 O 0.3065(2) 0.6799(2) 0.19546(10)
N7 N 0.1365(3) 0.8719(2) 0.21846(11)
S1_2 S 0.63898(7) 0.72230(6) 0.25580(3)
O1_2 O 0.9787(2) 0.68780(18) 0.21048(9)
O2_2 O 0.9123(2) 0.74160(18) 0.27763(9)
C1_2 C 0.5277(3) 0.6899(3) 0.21440(13)
C3_2 C 0.7606(3) 0.6932(2) 0.22048(13)
C5_2 C 0.8935(3) 0.7084(2) 0.23772(13)
C15_2 C 0.3911(3) 0.7053(3) 0.22435(14)
C24_2 C 0.5810(4) 0.6594(4) 0.17511(16)
H12_2 H 0.5338 0.6396 0.1481
C27_2 C 0.7156(4) 0.6604(3) 0.17893(16)
H15_2 H 0.7680 0.6403 0.1550
N4_2 N 0.0861(3) 0.9740(2) 0.16500(10)
C12_2 C 0.1964(4) 0.9518(3) 0.22994(13)
H5_2 H 0.2509 0.9609 0.2566
C22_2 C 0.0708(4) 0.8875(2) 0.17936(13)
H10_2 H 0.0194 0.8436 0.1634
H4 H 0.9966 0.8668 0.3292
S1_3 S 0.36102(7) 0.22230(6) 0.24420(3)
O1_3 O 0.0213(2) 0.18780(18) 0.28952(9)
O2_3 O 0.0877(2) 0.24160(18) 0.22237(9)
O3 O 0.6285(2) 0.2440(2) 0.23751(11)
O4 O 0.6935(2) 0.1799(2) 0.30454(10)
C1_3 C 0.4723(3) 0.1899(3) 0.28560(13)
C3_3 C 0.2394(3) 0.1932(2) 0.27952(13)
C5_3 C 0.1065(3) 0.2084(2) 0.26228(13)
C15_3 C 0.6089(3) 0.2053(3) 0.27565(14)
C24_3 C 0.4190(4) 0.1594(4) 0.32489(16)
H12_3 H 0.4662 0.1396 0.3519
C27_3 C 0.2844(4) 0.1604(3) 0.32107(16)
H15_3 H 0.2320 0.1403 0.3450
Cd2 Cd 0.84980(2) 0.23396(2) 0.24339(2)
N1_3 N 0.8195(3) 0.0919(2) 0.21239(11)
C16_3 C 0.7286(4) 0.0797(3) 0.18030(15)
H7_3 H 0.6913 0.1272 0.1620
C29_3 C 0.8455(4) 0.0073(3) 0.23025(15)
H24_3 H 0.6612 0.0012 0.0861
N7_2 N 0.8635(3) 0.3719(2) 0.28154(11)
N8 N 0.8307(3) 0.3111(2) 0.17245(11)
N5_3 N 0.8748(3) 0.4230(2) 0.12466(13)
C11_3 C 0.9188(4) 0.3666(3) 0.15849(13)
C17_3 C 0.9408(4) 0.4978(3) 0.10489(14)
C34_3 C 0.9214(7) 0.5219(5) 0.0605(2)
H21_3 H 0.8645 0.4877 0.0409
C36_3 C 0.7478(5) 0.4032(4) 0.1181(2)
H23_3 H 0.6892 0.4319 0.0969
C38_3 C 0.7234(5) 0.3349(4) 0.14785(19)
H25_3 H 0.6431 0.3076 0.1511
C39_3 C 0.9838(7) 0.5969(4) 0.0424(2)
H26_3 H 0.9699 0.6121 0.0104
N4_3 N 0.9139(3) 0.4740(2) 0.33500(10)
C4_2 C 0.9756(3) 0.5167(2) 0.37463(12)
C7_2 C 0.8336(4) 0.5157(3) 0.30246(13)
H2_2 H 0.8052 0.5769 0.3028
C12_3 C 0.8036(4) 0.4518(3) 0.27006(13)
H5_3 H 0.7491 0.4609 0.2434
C21_2 C 0.9912(4) 0.6104(3) 0.37476(13)
H9_2 H 0.9636 0.6458 0.3486
C22_3 C 0.9292(4) 0.3875(2) 0.32064(13)
H10_3 H 0.9806 0.3436 0.3366
C34_4 C 0.9214(7) 0.9781(5) 0.5605(2)
C39_4 C 0.9838(7) 0.9031(4) 0.5424(2)
H26_4 H 0.9699 0.8879 0.5104
H3_2 H 0.1100 0.0297 0.9756
C23_2 C 0.0199(4) 0.0359(2) 0.91205(13)
H11_2 H 0.0104 0.1001 0.9113
N6_2 N 0.6952(3) 0.9921(2) 0.17655(11)
C6_2 C 0.0862(4) 0.7743(2) 0.01053(13)
C8_2 C 0.5933(4) 0.9566(3) 0.14730(14)
H4_2 H 0.0034 0.3668 0.1708
C14_2 C 0.1280(4) 0.7314(3) 0.05166(13)
C18_2 C 0.0790(5) 0.6231(3) 0.11514(15)
H8_2 H 0.1331 0.6577 0.1355
C19_2 C 0.0643(4) 0.6489(3) 0.06948(13)
C20_2 C 0.3939(4) 0.8889(3) 0.09211(13)
C25_2 C 0.2299(4) 0.7696(3) 0.07743(13)
H13_2 H 0.2606 0.7403 0.1051
C26_2 C 0.2427(4) 0.8919(3) 0.02196(13)
H14_2 H 0.2808 0.9467 0.0121
C28_2 C 0.2873(4) 0.8500(3) 0.06311(13)
H16_2 H 0.9075 0.9944 0.2542
C30_2 C 0.3981(4) 0.8778(3) 0.13988(15)
H17_2 H 0.3310 0.8468 0.1540
C31_2 C 0.7695(4) 0.9445(3) 0.20856(16)
H18_2 H 0.7679 0.8809 0.2143
C32_2 C 0.4972(4) 0.9106(3) 0.16753(15)
H19_2 H 0.4991 0.9014 0.2003
C33_2 C 0.4927(5) 0.9361(3) 0.07185(16)
H20_2 H 0.4910 0.9452 0.0391
C35_2 C 0.0179(5) 0.5486(3) 0.13255(15)
H22_2 H 0.0305 0.5329 0.1645
C37_2 C 0.5936(5) 0.9698(3) 0.09969(16)
C2_2 C 0.0902(4) 0.9001(3) 0.95237(12)
H1_2 H 0.0178 0.7488 0.9925
C9_2 C 0.1433(4) 0.8545(3) 0.99528(13)
C10_2 C 0.0780(4) 0.9938(3) 0.95030(13)
C13_2 C 0.0479(4) 0.8488(3) 0.91385(13)
H6_2 H 0.0582 0.7847 0.9144
N2_2 N 0.8635(3) 0.1281(2) 0.78154(11)
N4_4 N 0.9139(3) 0.0260(2) 0.83500(10)
C12_4 C 0.8036(4) 0.0482(3) 0.77006(13)
H5_4 H 0.7491 0.0391 0.7434
C22_4 C 0.9292(4) 0.1125(2) 0.82064(13)
H10_4 H 0.9806 0.1564 0.8366
Cd4_2 Cd 0.84980(2) 0.26604(2) 0.74339(2)
S1_4 S 0.36102(7) 0.27770(6) 0.74420(3)
O1_4 O 0.0213(2) 0.31220(18) 0.78952(9)
O2_4 O 0.0877(2) 0.25840(18) 0.72237(9)
O3_2 O 0.6285(2) 0.2560(2) 0.73751(11)
O4_2 O 0.6935(2) 0.3201(2) 0.80454(10)
C1_4 C 0.4723(3) 0.3101(3) 0.78560(13)
C3_4 C 0.2394(3) 0.3068(2) 0.77952(13)
C5_4 C 0.1065(3) 0.2916(2) 0.76228(13)
C15_4 C 0.6089(3) 0.2947(3) 0.77565(14)
C24_4 C 0.4190(4) 0.3406(4) 0.82489(16)
H12_4 H 0.4662 0.3604 0.8519
C27_4 C 0.2844(4) 0.3396(3) 0.82107(16)
H15_4 H 0.2320 0.3597 0.8450
N1_4 N 0.8195(3) 0.4081(2) 0.71239(11)
N6_3 N 0.6952(3) 0.5079(2) 0.67655(11)
C2_3 C 0.0902(4) 0.5999(3) 0.45237(12)
C6_3 C 0.0862(4) 0.7257(2) 0.51053(13)
H1_3 H 0.0178 0.7512 0.4925
C8_3 C 0.5933(4) 0.5434(3) 0.64730(14)
C9_3 C 0.1433(4) 0.6455(3) 0.49528(13)
C10_3 C 0.0780(4) 0.5062(3) 0.45030(13)
H3_3 H 0.1100 0.4703 0.4756
C13_3 C 0.0479(4) 0.6512(3) 0.41385(13)
H6_3 H 0.0582 0.7153 0.4144
C14_3 C 0.1280(4) 0.7686(3) 0.55166(13)
C16_4 C 0.7286(4) 0.4203(3) 0.68030(15)
H7_4 H 0.6913 0.3728 0.6620
C18_3 C 0.0790(5) 0.8769(3) 0.61514(15)
H8_3 H 0.1331 0.8423 0.6355
C19_3 C 0.0643(4) 0.8511(3) 0.56948(13)
C20_3 C 0.3939(4) 0.6111(3) 0.59211(13)
C23_3 C 0.0199(4) 0.4641(2) 0.41205(13)
H11_3 H 0.0104 0.3999 0.4113
C25_3 C 0.2299(4) 0.7304(3) 0.57743(13)
H13_3 H 0.2606 0.7597 0.6051
C26_3 C 0.2427(4) 0.6081(3) 0.52196(13)
H14_3 H 0.2808 0.5533 0.5121
C28_3 C 0.2873(4) 0.6500(3) 0.56311(13)
C29_4 C 0.8455(4) 0.4927(3) 0.73025(15)
H16_3 H 0.9075 0.5056 0.7542
C30_3 C 0.3981(4) 0.6222(3) 0.63988(15)
H17_3 H 0.3310 0.6532 0.6540
C31_3 C 0.7695(4) 0.5555(3) 0.70856(16)
H18_3 H 0.7679 0.6191 0.7143
C32_3 C 0.4972(4) 0.5894(3) 0.66753(15)
H19_3 H 0.4991 0.5986 0.7003
C33_3 C 0.4927(5) 0.5639(3) 0.57185(16)
H20_3 H 0.4910 0.5548 0.5391
C35_3 C 0.0179(5) 0.9514(3) 0.63255(15)
H22_3 H 0.0305 0.9671 0.6645
C37_3 C 0.5936(5) 0.5302(3) 0.59969(16)
H24_4 H 0.6612 0.4988 0.5861
N8_2 N 0.8307(3) 0.1889(2) 0.67245(11)
N5_4 N 0.8748(3) 0.0770(2) 0.62466(13)
C11_4 C 0.9188(4) 0.1334(3) 0.65849(13)
C17_4 C 0.9408(4) 0.0022(3) 0.60489(14)
H21_4 H 0.8645 0.0123 0.5409
C36_4 C 0.7478(5) 0.0968(4) 0.6181(2)
H23_4 H 0.6892 0.0681 0.5969
C38_4 C 0.7234(5) 0.1651(4) 0.64785(19)
H25_4 H 0.6431 0.1924 0.6511
C4_3 C 0.9756(3) 0.9833(2) 0.87463(12)
C7_3 C 0.8336(4) 0.9843(3) 0.80246(13)
H2_3 H 0.8052 0.9231 0.8028
C21_3 C 0.9912(4) 0.8896(3) 0.87476(13)
H9_3 H 0.9636 0.8542 0.8486
H4_3 H 0.0034 0.1332 0.6708
C4_4 C 0.0244(3) 0.0167(2) 0.12537(12)
C7_4 C 0.1664(4) 0.0157(3) 0.19754(13)
H2_4 H 0.1948 0.0769 0.1972
C21_4 C 0.0088(4) 0.1104(3) 0.12524(13)
H9_4 H 0.0364 0.1458 0.1514
C2_4 C 0.9098(4) 0.0999(3) 0.04763(12)
H1_4 H 0.9822 0.2512 0.0075
C9_4 C 0.8567(4) 0.1455(3) 0.00472(13)
C10_4 C 0.9220(4) 0.0062(3) 0.04970(13)
C13_4 C 0.9521(4) 0.1512(3) 0.08615(13)
H6_4 H 0.9418 0.2153 0.0856
N6_4 N 0.3048(3) 0.0079(2) 0.82345(11)
C6_4 C 0.9138(4) 0.2257(2) 0.98947(13)
C8_4 C 0.4067(4) 0.0434(3) 0.85270(14)
H4_4 H 0.9966 0.6332 0.8292
C14_4 C 0.8720(4) 0.2686(3) 0.94834(13)
C18_4 C 0.9210(5) 0.3769(3) 0.88486(15)
H8_4 H 0.8669 0.3423 0.8645
C19_4 C 0.9357(4) 0.3511(3) 0.93052(13)
C20_4 C 0.6061(4) 0.1111(3) 0.90789(13)
C25_4 C 0.7701(4) 0.2304(3) 0.92257(13)
H13_4 H 0.7394 0.2597 0.8949
C26_4 C 0.7573(4) 0.1081(3) 0.97804(13)
H14_4 H 0.7192 0.0533 0.9879
C28_4 C 0.7127(4) 0.1500(3) 0.93689(13)
H16_4 H 0.0925 0.0056 0.7458
C30_4 C 0.6019(4) 0.1222(3) 0.86012(15)
H17_4 H 0.6690 0.1532 0.8460
C31_4 C 0.2305(4) 0.0555(3) 0.79144(16)
H18_4 H 0.2321 0.1191 0.7857
C32_4 C 0.5028(4) 0.0894(3) 0.83247(15)
H19_4 H 0.5009 0.0986 0.7997
C33_4 C 0.5073(5) 0.0639(3) 0.92815(16)
H20_4 H 0.5090 0.0548 0.9609
C35_4 C 0.9821(5) 0.4514(3) 0.86745(15)
H22_4 H 0.9695 0.4671 0.8355
C37_4 C 0.4064(5) 0.0302(3) 0.90031(16)
H3_4 H 0.8900 0.9703 0.0244
C23_4 C 0.9801(4) 0.9641(2) 0.08795(13)
H11_4 H 0.9896 0.8999 0.0887
loop_
_geom_bond_atom_site_label_1
_geom_bond_atom_site_label_2
_geom_bond_site_symmetry_1
_geom_bond_site_symmetry_2
N2 C12 1_555 1_555
N4 C4 1_555 1_555
C4 C21 1_555 1_555
C7 N4 1_555 1_555
H2 C7 1_555 1_555
C12 C7 1_555 1_555
H5 C12 1_555 1_555
H9 C21 1_555 1_555
C22 N2 1_555 1_555
H10 C22 1_555 1_555
H26 C39 1_555 1_555
Cd4 N2 1_555 1_555
N4 C22 1_555 1_555
C34 C39 1_555 1_555
N3 C11 1_555 1_555
N5 C11 1_555 1_555
C17 N5 1_555 1_555
C34_2 C17 1_555 1_555
H21 C34_2 1_555 1_555
C36 N5 1_555 1_555
H23 C36 1_555 1_555
C38 N3 1_555 1_555
H25 C38 1_555 1_555
H26_2 C39_2 1_555 1_555
Cd4 N3 1_555 1_555
C34_2 C39_2 1_555 1_555
C36 C38 1_555 1_555
N1 Cd4 1_555 1_555
C16 N1 1_555 1_555
H7 C16 1_555 1_555
C29 N1 1_555 1_555
O5 Cd4 1_555 1_555
O6 Cd4 1_555 1_555
S1 C1 1_555 1_555
O1 C5 1_555 1_555
O5 C15 1_555 1_555
O6 C15 1_555 1_555
C1 C15 1_555 1_555
C3 S1 1_555 1_555
C5 O2 1_555 1_555
C24 C1 1_555 1_555
H12 C24 1_555 1_555
C27 C3 1_555 1_555
H15 C27 1_555 1_555
C3 C5 1_555 1_555
C24 C27 1_555 1_555
N3_2 C11_2 1_555 1_555
N5_2 C11_2 1_555 1_555
C17_2 N5_2 1_555 1_555
C36_2 N5_2 1_555 1_555
H23_2 C36_2 1_555 1_555
C38_2 N3_2 1_555 1_555
H25_2 C38_2 1_555 1_555
Cd3 N3_2 1_555 1_555
C36_2 C38_2 1_555 1_555
N1_2 Cd3 1_555 1_555
N6 C8 1_555 1_555
C2 C9 1_555 1_555
C6 H1 1_555 1_555
C8 C32 1_555 1_555
C9 C6 1_555 1_555
C10 C2 1_555 1_555
H3 C10 1_555 1_555
C13 C2 1_555 1_555
H6 C13 1_555 1_555
C14 C6 1_555 1_555
C16_2 N1_2 1_555 1_555
H7_2 C16_2 1_555 1_555
C18 H8 1_555 1_555
C19 C14 1_555 1_555
C20 C28 1_555 1_555
H11 C23 1_555 1_555
C25 C14 1_555 1_555
H13 C25 1_555 1_555
C26 C9 1_555 1_555
H14 C26 1_555 1_555
C28 C25 1_555 1_555
C29_2 N1_2 1_555 1_555
H16 C29_2 1_555 1_555
C30 C20 1_555 1_555
H17 C30 1_555 1_555
C31 N6 1_555 1_555
H18 C31 1_555 1_555
C32 C30 1_555 1_555
H19 C32 1_555 1_555
C33 C20 1_555 1_555
H20 C33 1_555 1_555
H22 C35 1_555 1_555
C37 C8 1_555 1_555
H24_2 C37 1_555 1_555
O5_2 Cd3 1_555 1_555
O6_2 Cd3 1_555 1_555
N7 Cd3 1_555 1_555
N6 C16_2 1_555 1_555
C10 C23 1_555 1_555
C18 C19 1_555 1_555
C18 C35 1_555 1_555
C26 C28 1_555 1_555
C29_2 C31 1_555 1_555
C33 C37 1_555 1_555
S1_2 C1_2 1_555 1_555
O1_2 C5_2 1_555 1_555
O5_2 C15_2 1_555 1_555
O6_2 C15_2 1_555 1_555
C1_2 C15_2 1_555 1_555
C3_2 S1_2 1_555 1_555
C5_2 O2_2 1_555 1_555
C24_2 C1_2 1_555 1_555
H12_2 C24_2 1_555 1_555
C27_2 C3_2 1_555 1_555
H15_2 C27_2 1_555 1_555
C3_2 C5_2 1_555 1_555
C24_2 C27_2 1_555 1_555
N7 C12_2 1_555 1_555
H5_2 C12_2 1_555 1_555
C22_2 N7 1_555 1_555
H10_2 C22_2 1_555 1_555
N4_2 C22_2 1_555 1_555
S1_3 C1_3 1_555 1_555
O1_3 C5_3 1_555 1_555
O3 C15_3 1_555 1_555
O4 C15_3 1_555 1_555
C1_3 C15_3 1_555 1_555
C3_3 S1_3 1_555 1_555
C5_3 O2_3 1_555 1_555
C24_3 C1_3 1_555 1_555
H12_3 C24_3 1_555 1_555
C27_3 C3_3 1_555 1_555
H15_3 C27_3 1_555 1_555
Cd2 O3 1_555 1_555
O4 Cd2 1_555 1_555
C3_3 C5_3 1_555 1_555
C24_3 C27_3 1_555 1_555
N1_3 Cd2 1_555 1_555
C16_3 N1_3 1_555 1_555
H7_3 C16_3 1_555 1_555
C29_3 N1_3 1_555 1_555
N7_2 Cd2 1_555 1_555
N8 Cd2 1_555 1_555
N8 C11_3 1_555 1_555
N5_3 C11_3 1_555 1_555
C17_3 N5_3 1_555 1_555
C34_3 C17_3 1_555 1_555
H21_3 C34_3 1_555 1_555
C36_3 N5_3 1_555 1_555
H23_3 C36_3 1_555 1_555
C38_3 N8 1_555 1_555
H25_3 C38_3 1_555 1_555
H26_3 C39_3 1_555 1_555
C34_3 C39_3 1_555 1_555
C36_3 C38_3 1_555 1_555
N7_2 C12_3 1_555 1_555
N4_3 C4_2 1_555 1_555
C4_2 C21_2 1_555 1_555
C7_2 N4_3 1_555 1_555
H2_2 C7_2 1_555 1_555
C12_3 C7_2 1_555 1_555
H5_3 C12_3 1_555 1_555
H9_2 C21_2 1_555 1_555
C22_3 N7_2 1_555 1_555
H10_3 C22_3 1_555 1_555
H26_4 C39_4 1_555 1_555
N4_3 C22_3 1_555 1_555
C34_4 C39_4 1_555 1_555
H11_2 C23_2 1_555 1_555
N6_2 C8_2 1_555 1_555
C8_2 C32_2 1_555 1_555
C14_2 C6_2 1_555 1_555
C18_2 H8_2 1_555 1_555
C19_2 C14_2 1_555 1_555
C20_2 C28_2 1_555 1_555
C25_2 C14_2 1_555 1_555
H13_2 C25_2 1_555 1_555
H14_2 C26_2 1_555 1_555
C28_2 C25_2 1_555 1_555
C30_2 C20_2 1_555 1_555
H17_2 C30_2 1_555 1_555
C31_2 N6_2 1_555 1_555
H18_2 C31_2 1_555 1_555
C32_2 C30_2 1_555 1_555
H19_2 C32_2 1_555 1_555
C33_2 C20_2 1_555 1_555
H20_2 C33_2 1_555 1_555
H22_2 C35_2 1_555 1_555
C37_2 C8_2 1_555 1_555
C18_2 C19_2 1_555 1_555
C18_2 C35_2 1_555 1_555
C26_2 C28_2 1_555 1_555
C33_2 C37_2 1_555 1_555
C2_2 C9_2 1_555 1_555
C10_2 C2_2 1_555 1_555
C13_2 C2_2 1_555 1_555
H6_2 C13_2 1_555 1_555
N2_2 C12_4 1_555 1_555
H5_4 C12_4 1_555 1_555
C22_4 N2_2 1_555 1_555
H10_4 C22_4 1_555 1_555
Cd4_2 N2_2 1_555 1_555
N4_4 C22_4 1_555 1_555
S1_4 C1_4 1_555 1_555
O1_4 C5_4 1_555 1_555
O3_2 C15_4 1_555 1_555
O4_2 C15_4 1_555 1_555
C1_4 C15_4 1_555 1_555
C3_4 S1_4 1_555 1_555
C5_4 O2_4 1_555 1_555
C24_4 C1_4 1_555 1_555
H12_4 C24_4 1_555 1_555
C27_4 C3_4 1_555 1_555
H15_4 C27_4 1_555 1_555
Cd4_2 O3_2 1_555 1_555
O4_2 Cd4_2 1_555 1_555
C3_4 C5_4 1_555 1_555
C24_4 C27_4 1_555 1_555
N1_4 Cd4_2 1_555 1_555
N6_3 C8_3 1_555 1_555
C2_3 C9_3 1_555 1_555
C6_3 H1_3 1_555 1_555
C8_3 C32_3 1_555 1_555
C9_3 C6_3 1_555 1_555
C10_3 C2_3 1_555 1_555
H3_3 C10_3 1_555 1_555
C13_3 C2_3 1_555 1_555
H6_3 C13_3 1_555 1_555
C14_3 C6_3 1_555 1_555
C16_4 N1_4 1_555 1_555
H7_4 C16_4 1_555 1_555
C18_3 H8_3 1_555 1_555
C19_3 C14_3 1_555 1_555
C20_3 C28_3 1_555 1_555
H11_3 C23_3 1_555 1_555
C25_3 C14_3 1_555 1_555
H13_3 C25_3 1_555 1_555
C26_3 C9_3 1_555 1_555
H14_3 C26_3 1_555 1_555
C28_3 C25_3 1_555 1_555
C29_4 N1_4 1_555 1_555
H16_3 C29_4 1_555 1_555
C30_3 C20_3 1_555 1_555
H17_3 C30_3 1_555 1_555
C31_3 N6_3 1_555 1_555
H18_3 C31_3 1_555 1_555
C32_3 C30_3 1_555 1_555
H19_3 C32_3 1_555 1_555
C33_3 C20_3 1_555 1_555
H20_3 C33_3 1_555 1_555
H22_3 C35_3 1_555 1_555
C37_3 C8_3 1_555 1_555
H24_4 C37_3 1_555 1_555
N8_2 Cd4_2 1_555 1_555
N6_3 C16_4 1_555 1_555
C10_3 C23_3 1_555 1_555
C18_3 C19_3 1_555 1_555
C18_3 C35_3 1_555 1_555
C26_3 C28_3 1_555 1_555
C29_4 C31_3 1_555 1_555
C33_3 C37_3 1_555 1_555
N8_2 C11_4 1_555 1_555
N5_4 C11_4 1_555 1_555
C17_4 N5_4 1_555 1_555
C36_4 N5_4 1_555 1_555
H23_4 C36_4 1_555 1_555
C38_4 N8_2 1_555 1_555
H25_4 C38_4 1_555 1_555
C36_4 C38_4 1_555 1_555
C4_3 C21_3 1_555 1_555
H2_3 C7_3 1_555 1_555
H9_3 C21_3 1_555 1_555
C4_4 C21_4 1_555 1_555
H2_4 C7_4 1_555 1_555
H9_4 C21_4 1_555 1_555
C2_4 C9_4 1_555 1_555
C10_4 C2_4 1_555 1_555
C13_4 C2_4 1_555 1_555
H6_4 C13_4 1_555 1_555
N6_4 C8_4 1_555 1_555
C8_4 C32_4 1_555 1_555
C14_4 C6_4 1_555 1_555
C18_4 H8_4 1_555 1_555
C19_4 C14_4 1_555 1_555
C20_4 C28_4 1_555 1_555
C25_4 C14_4 1_555 1_555
H13_4 C25_4 1_555 1_555
H14_4 C26_4 1_555 1_555
C28_4 C25_4 1_555 1_555
C30_4 C20_4 1_555 1_555
H17_4 C30_4 1_555 1_555
C31_4 N6_4 1_555 1_555
H18_4 C31_4 1_555 1_555
C32_4 C30_4 1_555 1_555
H19_4 C32_4 1_555 1_555
C33_4 C20_4 1_555 1_555
H20_4 C33_4 1_555 1_555
H22_4 C35_4 1_555 1_555
C37_4 C8_4 1_555 1_555
C18_4 C19_4 1_555 1_555
C18_4 C35_4 1_555 1_555
C26_4 C28_4 1_555 1_555
C33_4 C37_4 1_555 1_555
H11_4 C23_4 1_555 1_555

#END
