
###############################################################################
#
# This file contains modified crystal structure data generated from the
# MOF subset of the Cambridge Structural Database (CSD) v543 
# hosted by the Cambridge Crystallographic Data Centre (CCDC).
#
# This work is licensed under the Creative Commons
# Attribution-NonCommercial-ShareAlike 4.0 International License.
# To view a copy of this license, visit
# http://creativecommons.org/licenses/by-nc-sa/4.0/
# or send a letter to
# Creative Commons, PO Box 1866, Mountain View, CA 94042, USA.
#
# CIF created using the CSD Python API on 29 September 2022
# The structure has been converted into the P1 space group
# The structure has a 3D framework
# The original CSD entry WIDPUX is in the monoclinic crystal system
# The framework has been calculated to contain at least 10.0% void space
# The void calculation uses a probe of radius 1.32A, grid spacing 0.4
#
###############################################################################

data_WIDPUX
_chemical_formula_moiety         '(C156 H104 Cd4 N24 O20)n'
_symmetry_cell_setting           triclinic
_symmetry_space_group_name_H-M   'P 1'
_symmetry_Int_Tables_number      1
_space_group_name_Hall           'P 1'
loop_
_symmetry_equiv_pos_site_id
_symmetry_equiv_pos_as_xyz
1 x,y,z
_cell_length_a                   10.1231(2)
_cell_length_b                   14.8998(3)
_cell_length_c                   28.9502(7)
_cell_angle_alpha                90
_cell_angle_beta                 94.192(2)
_cell_angle_gamma                90
_cell_volume                     4354.94
loop_
_atom_site_label
_atom_site_type_symbol
_atom_site_fract_x
_atom_site_fract_y
_atom_site_fract_z
C18 C 0.0976(11) 0.4712(8) 0.6007(4)
H12 H 0.1659 0.5049 0.5880
C19 C 0.0982(9) 0.4573(6) 0.6479(3)
C20 C 0.0035(9) 0.4071(7) 0.6670(3)
H13 H 0.0065 0.3972 0.6995
C22 C 0.2296(11) 0.5845(7) 0.6797(3)
H15 H 0.1896 0.6283 0.6594
C23 C 0.3489(10) 0.5216(7) 0.7339(4)
H16 H 0.4106 0.5132 0.7599
C24 C 0.2782(11) 0.4567(7) 0.7124(4)
H17 H 0.2811 0.3945 0.7197
C39 C 0.0824(9) 0.7852(6) 0.2724(3)
N3 N 0.2006(7) 0.4966(5) 0.6777(3)
N4 N 0.3193(8) 0.6024(5) 0.7130(3)
O4 O 0.0870(7) 0.7520(4) 0.2336(2)
O5 O 0.1851(6) 0.8073(4) 0.2990(2)
Cd2 Cd 0.33164(6) 0.75579(4) 0.24384(2)
Cd4 Cd 0.33164(6) 0.74421(4) 0.74384(2)
C1 C 0.3122(9) 0.4702(6) 0.2953(3)
H1 H 0.2845 0.4093 0.2940
C2 C 0.2788(10) 0.5351(6) 0.2638(3)
H2 H 0.2211 0.5269 0.2367
C3 C 0.4100(9) 0.5974(6) 0.3158(3)
H3 H 0.4645 0.6400 0.3325
C4 C 0.4552(9) 0.4688(6) 0.3698(3)
C5 C 0.5006(9) 0.5197(6) 0.4076(3)
H4 H 0.4906 0.5831 0.4068
C6 C 0.5598(10) 0.4794(6) 0.4464(3)
H5 H 0.5902 0.5153 0.4721
C7 C 0.5763(8) 0.3870(6) 0.4488(3)
C8 C 0.5356(10) 0.3358(7) 0.4102(3)
H6 H 0.5474 0.2726 0.4111
C9 C 0.4776(9) 0.3761(6) 0.3701(3)
H7 H 0.4536 0.3409 0.3435
C10 C 0.6313(9) 0.3435(6) 0.4920(3)
C11 C 0.7356(9) 0.3830(7) 0.5191(3)
H8 H 0.7734 0.4376 0.5095
C12 C 0.7844(9) 0.3421(6) 0.5606(3)
C13 C 0.7287(9) 0.2627(6) 0.5743(3)
H9 H 0.7643 0.2341 0.6017
C14 C 0.6223(10) 0.2237(6) 0.5490(3)
C15 C 0.5756(9) 0.2638(6) 0.5071(3)
H10 H 0.5051 0.2364 0.4887
C16 C 0.8952(8) 0.3843(6) 0.5907(3)
C17 C 0.9950(11) 0.4347(8) 0.5722(4)
H11 H 0.9926 0.4441 0.5397
C21 C 0.9028(9) 0.3708(7) 0.6377(3)
H14 H 0.8368 0.3353 0.6506
C25 C 0.5569(8) 0.1408(6) 0.5669(3)
C26 C 0.5777(10) 0.1167(7) 0.6132(3)
H18 H 0.6372 0.1509 0.6331
C27 C 0.5137(11) 0.0444(7) 0.6309(3)
H19 H 0.5273 0.0305 0.6630
C29 C 0.4082(14) 0.0138(8) 0.5571(4)
C30 C 0.4701(13) 0.0875(8) 0.5393(4)
H21 H 0.4530 0.1021 0.5075
C34 C 0.6008(8) 0.7785(6) 0.2694(3)
C35 C 0.7353(8) 0.7992(6) 0.2905(3)
C36 C 0.7787(9) 0.8359(8) 0.3312(3)
H25 H 0.7254 0.8557 0.3549
C37 C 0.9190(10) 0.8395(8) 0.3321(4)
H26 H 0.9770 0.8621 0.3567
C38 C 0.9556(9) 0.8047(6) 0.2914(3)
N1 N 0.3408(8) 0.6149(5) 0.2766(3)
N2 N 0.3939(8) 0.5094(5) 0.3296(2)
O1 O 0.5069(6) 0.7963(5) 0.2943(2)
O2 O 0.5853(7) 0.7456(4) 0.2301(2)
O3 O 0.8412(5) 0.7803(4) 0.2649(2)
N7 N 0.3193(8) 0.8976(5) 0.2130(3)
N8 N 0.3138(8) 0.6866(5) 0.1721(3)
C28 C 0.4309(9) 0.9925(6) 0.6029(3)
H20 H 0.3499 0.9781 0.5376
C31 C 0.4047(10) 0.8680(6) 0.6584(3)
H22 H 0.4926 0.8706 0.6724
C32 C 0.2041(10) 0.8315(8) 0.6441(4)
H23 H 0.1207 0.8030 0.6461
C33 C 0.2298(12) 0.8961(9) 0.6128(4)
H24 H 0.1703 0.9200 0.5890
N5 N 0.3604(7) 0.9195(5) 0.6228(3)
N6 N 0.3138(8) 0.8134(5) 0.6721(3)
H12_2 H 0.1659 0.9951 0.0880
C22_2 C 0.2296(11) 0.9155(7) 0.1797(3)
H15_2 H 0.1896 0.8717 0.1594
C23_2 C 0.3489(10) 0.9784(7) 0.2339(4)
H16_2 H 0.4106 0.9868 0.2599
C39_2 C 0.0824(9) 0.7148(6) 0.7724(3)
O4_2 O 0.0870(7) 0.7480(4) 0.7336(2)
O5_2 O 0.1851(6) 0.6927(4) 0.7990(2)
C11_2 C 0.7356(9) 0.1170(7) 0.0191(3)
H8_2 H 0.7734 0.0624 0.0095
C12_2 C 0.7844(9) 0.1579(6) 0.0606(3)
C13_2 C 0.7287(9) 0.2373(6) 0.0743(3)
H9_2 H 0.7643 0.2659 0.1017
C14_2 C 0.6223(10) 0.2763(6) 0.0490(3)
C15_2 C 0.5756(9) 0.2362(6) 0.0071(3)
C16_2 C 0.8952(8) 0.1157(6) 0.0907(3)
C17_2 C 0.9950(11) 0.0653(8) 0.0722(4)
H11_2 H 0.9926 0.0559 0.0397
C21_2 C 0.9028(9) 0.1292(7) 0.1377(3)
H14_2 H 0.8368 0.1647 0.1506
C25_2 C 0.5569(8) 0.3592(6) 0.0669(3)
C26_2 C 0.5777(10) 0.3833(7) 0.1132(3)
H18_2 H 0.6372 0.3491 0.1331
C27_2 C 0.5137(11) 0.4556(7) 0.1309(3)
H19_2 H 0.5273 0.4695 0.1630
C28_2 C 0.4309(9) 0.5075(6) 0.1029(3)
C29_2 C 0.4082(14) 0.4862(8) 0.0571(4)
H20_2 H 0.3499 0.5219 0.0376
C30_2 C 0.4701(13) 0.4125(8) 0.0393(4)
H21_2 H 0.4530 0.3979 0.0075
C31_2 C 0.4047(10) 0.6320(6) 0.1584(3)
H22_2 H 0.4926 0.6294 0.1724
C32_2 C 0.2041(10) 0.6685(8) 0.1441(4)
H23_2 H 0.1207 0.6970 0.1461
C33_2 C 0.2298(12) 0.6039(9) 0.1128(4)
H24_2 H 0.1703 0.5800 0.0890
N5_2 N 0.3604(7) 0.5805(5) 0.1228(3)
C2_2 C 0.2788(10) 0.9649(6) 0.7638(3)
H2_2 H 0.2211 0.9731 0.7367
C3_2 C 0.4100(9) 0.9026(6) 0.8158(3)
H3_2 H 0.4645 0.8600 0.8325
C5_2 C 0.5006(9) 0.9803(6) 0.9076(3)
H4_2 H 0.4906 0.9169 0.9068
H5_2 H 0.5902 0.9847 0.9721
C34_2 C 0.6008(8) 0.7215(6) 0.7694(3)
C35_2 C 0.7353(8) 0.7008(6) 0.7905(3)
C36_2 C 0.7787(9) 0.6641(8) 0.8312(3)
H25_2 H 0.7254 0.6443 0.8549
C37_2 C 0.9190(10) 0.6605(8) 0.8321(4)
H26_2 H 0.9770 0.6379 0.8567
C38_2 C 0.9556(9) 0.6953(6) 0.7914(3)
N1_2 N 0.3408(8) 0.8851(5) 0.7766(3)
N2_2 N 0.3939(8) 0.9906(5) 0.8296(2)
O1_2 O 0.5069(6) 0.7037(5) 0.7943(2)
O2_2 O 0.5853(7) 0.7544(4) 0.7301(2)
O3_2 O 0.8412(5) 0.7197(4) 0.7649(2)
C2_3 C 0.7212(10) 0.0351(6) 0.2362(3)
H2_3 H 0.7789 0.0269 0.2633
C3_3 C 0.5900(9) 0.0974(6) 0.1842(3)
H3_3 H 0.5355 0.1400 0.1675
C5_3 C 0.4994(9) 0.0197(6) 0.0924(3)
H4_3 H 0.5094 0.0831 0.0932
H5_3 H 0.4098 0.0153 0.0279
C34_3 C 0.3992(8) 0.2785(6) 0.2306(3)
C35_3 C 0.2647(8) 0.2992(6) 0.2095(3)
C36_3 C 0.2213(9) 0.3359(8) 0.1688(3)
H25_3 H 0.2746 0.3557 0.1451
C37_3 C 0.0810(10) 0.3395(8) 0.1679(4)
H26_3 H 0.0230 0.3621 0.1433
C38_3 C 0.0444(9) 0.3047(6) 0.2086(3)
Cd1 Cd 0.66836(6) 0.25579(4) 0.25616(2)
N1_3 N 0.6592(8) 0.1149(5) 0.2234(3)
N2_3 N 0.6061(8) 0.0094(5) 0.1704(2)
O1_3 O 0.4931(6) 0.2963(5) 0.2057(2)
O2_3 O 0.4147(7) 0.2456(4) 0.2699(2)
O3_3 O 0.1588(5) 0.2803(4) 0.2351(2)
N7_2 N 0.6807(8) 0.3976(5) 0.2870(3)
N8_2 N 0.6862(8) 0.1866(5) 0.3279(3)
O6 O 0.9130(7) 0.2520(4) 0.2664(2)
O7 O 0.8149(6) 0.3073(4) 0.2010(2)
C11_3 C 0.2644(9) 0.8830(7) 0.9809(3)
H8_3 H 0.2266 0.9376 0.9905
C12_3 C 0.2156(9) 0.8421(6) 0.9394(3)
C13_3 C 0.2713(9) 0.7627(6) 0.9257(3)
H9_3 H 0.2357 0.7341 0.8983
C14_3 C 0.3777(10) 0.7237(6) 0.9510(3)
C15_3 C 0.4244(9) 0.7638(6) 0.9929(3)
C16_3 C 0.1048(8) 0.8843(6) 0.9093(3)
C17_3 C 0.0050(11) 0.9347(8) 0.9278(4)
H11_3 H 0.0074 0.9441 0.9603
C21_3 C 0.0972(9) 0.8708(7) 0.8623(3)
H14_3 H 0.1632 0.8353 0.8494
C25_3 C 0.4431(8) 0.6408(6) 0.9331(3)
C26_3 C 0.4223(10) 0.6167(7) 0.8868(3)
H18_3 H 0.3628 0.6509 0.8669
C27_3 C 0.4863(11) 0.5444(7) 0.8691(3)
H19_3 H 0.4727 0.5305 0.8370
C28_3 C 0.5691(9) 0.4925(6) 0.8971(3)
C29_3 C 0.5918(14) 0.5138(8) 0.9429(4)
H20_3 H 0.6501 0.4781 0.9624
C30_3 C 0.5299(13) 0.5875(8) 0.9607(4)
H21_3 H 0.5470 0.6021 0.9925
C31_3 C 0.5953(10) 0.3680(6) 0.8416(3)
H22_3 H 0.5074 0.3706 0.8276
C32_3 C 0.7959(10) 0.3315(8) 0.8559(4)
H23_3 H 0.8793 0.3030 0.8539
C33_3 C 0.7702(12) 0.3961(9) 0.8872(4)
H24_3 H 0.8297 0.4200 0.9110
N5_3 N 0.6396(7) 0.4195(5) 0.8772(3)
N6_2 N 0.6862(8) 0.3134(5) 0.8279(3)
Cd3 Cd 0.66836(6) 0.24421(4) 0.75616(2)
C39_3 C 0.9176(9) 0.2852(6) 0.2276(3)
H12_3 H 0.8341 0.0049 0.9120
C22_3 C 0.7704(11) 0.0845(7) 0.8203(3)
H15_3 H 0.8104 0.1283 0.8406
C23_3 C 0.6511(10) 0.0216(7) 0.7661(4)
H16_3 H 0.5894 0.0132 0.7401
N4_2 N 0.6807(8) 0.1024(5) 0.7870(3)
C28_4 C 0.5691(9) 0.0075(6) 0.3971(3)
H20_4 H 0.6501 0.0219 0.4624
C31_4 C 0.5953(10) 0.1320(6) 0.3416(3)
H22_4 H 0.5074 0.1294 0.3276
C32_4 C 0.7959(10) 0.1685(8) 0.3559(4)
H23_4 H 0.8793 0.1970 0.3539
C33_4 C 0.7702(12) 0.1039(9) 0.3872(4)
H24_4 H 0.8297 0.0800 0.4110
N5_4 N 0.6396(7) 0.0805(5) 0.3772(3)
C1_2 C 0.6878(9) 0.5298(6) 0.7047(3)
H1_2 H 0.7155 0.5907 0.7060
C2_4 C 0.7212(10) 0.4649(6) 0.7362(3)
H2_4 H 0.7789 0.4731 0.7633
C3_4 C 0.5900(9) 0.4026(6) 0.6842(3)
H3_4 H 0.5355 0.3600 0.6675
C4_2 C 0.5448(9) 0.5312(6) 0.6302(3)
C5_4 C 0.4994(9) 0.4803(6) 0.5924(3)
H4_4 H 0.5094 0.4169 0.5932
C6_2 C 0.4402(10) 0.5206(6) 0.5536(3)
H5_4 H 0.4098 0.4847 0.5279
C7_2 C 0.4237(8) 0.6130(6) 0.5512(3)
C8_2 C 0.4644(10) 0.6642(7) 0.5898(3)
H6_2 H 0.4526 0.7274 0.5889
C9_2 C 0.5224(9) 0.6239(6) 0.6299(3)
H7_2 H 0.5464 0.6591 0.6565
C10_2 C 0.3687(9) 0.6565(6) 0.5080(3)
C11_4 C 0.2644(9) 0.6170(7) 0.4809(3)
H8_4 H 0.2266 0.5624 0.4905
C12_4 C 0.2156(9) 0.6579(6) 0.4394(3)
C13_4 C 0.2713(9) 0.7373(6) 0.4257(3)
H9_4 H 0.2357 0.7659 0.3983
C14_4 C 0.3777(10) 0.7763(6) 0.4510(3)
C15_4 C 0.4244(9) 0.7362(6) 0.4929(3)
H10_2 H 0.4949 0.7636 0.5113
C16_4 C 0.1048(8) 0.6157(6) 0.4093(3)
C17_4 C 0.0050(11) 0.5653(8) 0.4278(4)
H11_4 H 0.0074 0.5559 0.4603
C21_4 C 0.0972(9) 0.6292(7) 0.3623(3)
H14_4 H 0.1632 0.6647 0.3494
C25_4 C 0.4431(8) 0.8592(6) 0.4331(3)
C26_4 C 0.4223(10) 0.8833(7) 0.3868(3)
H18_4 H 0.3628 0.8491 0.3669
C27_4 C 0.4863(11) 0.9556(7) 0.3691(3)
H19_4 H 0.4727 0.9695 0.3370
C29_4 C 0.5918(14) 0.9862(8) 0.4429(4)
C30_4 C 0.5299(13) 0.9125(8) 0.4607(4)
H21_4 H 0.5470 0.8979 0.4925
C34_4 C 0.3992(8) 0.2215(6) 0.7306(3)
C35_4 C 0.2647(8) 0.2008(6) 0.7095(3)
C36_4 C 0.2213(9) 0.1641(8) 0.6688(3)
H25_4 H 0.2746 0.1443 0.6451
C37_4 C 0.0810(10) 0.1605(8) 0.6679(4)
H26_4 H 0.0230 0.1379 0.6433
C38_4 C 0.0444(9) 0.1953(6) 0.7086(3)
N1_4 N 0.6592(8) 0.3851(5) 0.7234(3)
N2_4 N 0.6061(8) 0.4906(5) 0.6704(2)
O1_4 O 0.4931(6) 0.2037(5) 0.7057(2)
O2_4 O 0.4147(7) 0.2544(4) 0.7699(2)
O3_4 O 0.1588(5) 0.2197(4) 0.7351(2)
O6_2 O 0.9130(7) 0.2480(4) 0.7664(2)
O7_2 O 0.8149(6) 0.1927(4) 0.7010(2)
C18_2 C 0.9024(11) 0.5288(8) 0.3993(4)
H12_4 H 0.8341 0.4951 0.4120
C19_2 C 0.9018(9) 0.5427(6) 0.3521(3)
C20_2 C 0.9965(9) 0.5929(7) 0.3330(3)
H13_2 H 0.9935 0.6028 0.3005
C22_4 C 0.7704(11) 0.4155(7) 0.3203(3)
H15_4 H 0.8104 0.3717 0.3406
C23_4 C 0.6511(10) 0.4784(7) 0.2661(4)
H16_4 H 0.5894 0.4868 0.2401
C24_2 C 0.7218(11) 0.5433(7) 0.2876(4)
H17_2 H 0.7189 0.6055 0.2803
C39_4 C 0.9176(9) 0.2148(6) 0.7276(3)
N3_2 N 0.7994(7) 0.5034(5) 0.3223(3)
C1_3 C 0.6878(9) 0.9702(6) 0.2047(3)
H1_3 H 0.7155 0.9093 0.2060
C4_3 C 0.5448(9) 0.9688(6) 0.1302(3)
C6_3 C 0.4402(10) 0.9794(6) 0.0536(3)
C7_3 C 0.4237(8) 0.8870(6) 0.0512(3)
C8_3 C 0.4644(10) 0.8358(7) 0.0898(3)
H6_3 H 0.4526 0.7726 0.0889
C9_3 C 0.5224(9) 0.8761(6) 0.1299(3)
H7_3 H 0.5464 0.8409 0.1565
C10_3 C 0.3687(9) 0.8435(6) 0.0080(3)
H10_3 H 0.4949 0.7364 0.0113
C18_3 C 0.9024(11) 0.9712(8) 0.8993(4)
C19_3 C 0.9018(9) 0.9573(6) 0.8521(3)
C20_3 C 0.9965(9) 0.9071(7) 0.8330(3)
H13_3 H 0.9935 0.8972 0.8005
C24_3 C 0.7218(11) 0.9567(7) 0.7876(4)
H17_3 H 0.7189 0.8945 0.7803
N3_3 N 0.7994(7) 0.9966(5) 0.8223(3)
C18_4 C 0.0976(11) 0.0288(8) 0.1007(4)
C19_4 C 0.0982(9) 0.0427(6) 0.1479(3)
C20_4 C 0.0035(9) 0.0929(7) 0.1670(3)
H13_4 H 0.0065 0.1028 0.1995
C24_4 C 0.2782(11) 0.0433(7) 0.2124(4)
H17_4 H 0.2811 0.1055 0.2197
N3_4 N 0.2006(7) 0.0034(5) 0.1777(3)
C1_4 C 0.3122(9) 0.0298(6) 0.7953(3)
H1_4 H 0.2845 0.0907 0.7940
C4_4 C 0.4552(9) 0.0312(6) 0.8698(3)
C6_4 C 0.5598(10) 0.0206(6) 0.9464(3)
C7_4 C 0.5763(8) 0.1130(6) 0.9488(3)
C8_4 C 0.5356(10) 0.1642(7) 0.9102(3)
H6_4 H 0.5474 0.2274 0.9111
C9_4 C 0.4776(9) 0.1239(6) 0.8701(3)
H7_4 H 0.4536 0.1591 0.8435
C10_4 C 0.6313(9) 0.1565(6) 0.9920(3)
H10_4 H 0.5051 0.2636 0.9887
loop_
_geom_bond_atom_site_label_1
_geom_bond_atom_site_label_2
_geom_bond_site_symmetry_1
_geom_bond_site_symmetry_2
H12 C18 1_555 1_555
C19 C18 1_555 1_555
C20 C19 1_555 1_555
H13 C20 1_555 1_555
C22 H15 1_555 1_555
C23 H16 1_555 1_555
C24 C23 1_555 1_555
H17 C24 1_555 1_555
N3 C19 1_555 1_555
N4 C22 1_555 1_555
O4 C39 1_555 1_555
O5 C39 1_555 1_555
Cd2 O4 1_555 1_555
Cd4 N4 1_555 1_555
C22 N3 1_555 1_555
C23 N4 1_555 1_555
C24 N3 1_555 1_555
O5 Cd2 1_555 1_555
C1 H1 1_555 1_555
C2 C1 1_555 1_555
H2 C2 1_555 1_555
C3 H3 1_555 1_555
C4 C5 1_555 1_555
C5 H4 1_555 1_555
C6 C5 1_555 1_555
H5 C6 1_555 1_555
C7 C6 1_555 1_555
C8 C7 1_555 1_555
H6 C8 1_555 1_555
C9 C4 1_555 1_555
H7 C9 1_555 1_555
C10 C7 1_555 1_555
C11 C10 1_555 1_555
H8 C11 1_555 1_555
C12 C11 1_555 1_555
C13 C12 1_555 1_555
H9 C13 1_555 1_555
C14 C13 1_555 1_555
C15 C10 1_555 1_555
H10 C15 1_555 1_555
C16 C12 1_555 1_555
C17 C16 1_555 1_555
H11 C17 1_555 1_555
C21 C16 1_555 1_555
H14 C21 1_555 1_555
C25 C14 1_555 1_555
C26 C25 1_555 1_555
H18 C26 1_555 1_555
C27 C26 1_555 1_555
H19 C27 1_555 1_555
C30 C25 1_555 1_555
H21 C30 1_555 1_555
C34 C35 1_555 1_555
C35 C36 1_555 1_555
C36 H25 1_555 1_555
C37 C36 1_555 1_555
H26 C37 1_555 1_555
C38 C37 1_555 1_555
Cd2 N1 1_555 1_555
N1 C2 1_555 1_555
N2 C1 1_555 1_555
O1 C34 1_555 1_555
O2 C34 1_555 1_555
O3 C35 1_555 1_555
N7 Cd2 1_555 1_555
N8 Cd2 1_555 1_555
C3 N1 1_555 1_555
C3 N2 1_555 1_555
C4 N2 1_555 1_555
C8 C9 1_555 1_555
C14 C15 1_555 1_555
C29 C30 1_555 1_555
C38 O3 1_555 1_555
Cd2 O1 1_555 1_555
Cd2 O2 1_555 1_555
C31 H22 1_555 1_555
C32 H23 1_555 1_555
C33 C32 1_555 1_555
H24 C33 1_555 1_555
N5 C28 1_555 1_555
N6 C31 1_555 1_555
Cd4 N6 1_555 1_555
C31 N5 1_555 1_555
C32 N6 1_555 1_555
C33 N5 1_555 1_555
C22_2 H15_2 1_555 1_555
C23_2 H16_2 1_555 1_555
N7 C22_2 1_555 1_555
C23_2 N7 1_555 1_555
O4_2 C39_2 1_555 1_555
O5_2 C39_2 1_555 1_555
Cd4 O4_2 1_555 1_555
O5_2 Cd4 1_555 1_555
H8_2 C11_2 1_555 1_555
C12_2 C11_2 1_555 1_555
C13_2 C12_2 1_555 1_555
H9_2 C13_2 1_555 1_555
C14_2 C13_2 1_555 1_555
C16_2 C12_2 1_555 1_555
C17_2 C16_2 1_555 1_555
H11_2 C17_2 1_555 1_555
C21_2 C16_2 1_555 1_555
H14_2 C21_2 1_555 1_555
C25_2 C14_2 1_555 1_555
C26_2 C25_2 1_555 1_555
H18_2 C26_2 1_555 1_555
C27_2 C26_2 1_555 1_555
H19_2 C27_2 1_555 1_555
C28_2 C27_2 1_555 1_555
C29_2 C28_2 1_555 1_555
H20_2 C29_2 1_555 1_555
C30_2 C25_2 1_555 1_555
H21_2 C30_2 1_555 1_555
C31_2 H22_2 1_555 1_555
C32_2 H23_2 1_555 1_555
C33_2 C32_2 1_555 1_555
H24_2 C33_2 1_555 1_555
N5_2 C28_2 1_555 1_555
N8 C31_2 1_555 1_555
C14_2 C15_2 1_555 1_555
C29_2 C30_2 1_555 1_555
C31_2 N5_2 1_555 1_555
C32_2 N8 1_555 1_555
C33_2 N5_2 1_555 1_555
H2_2 C2_2 1_555 1_555
C3_2 H3_2 1_555 1_555
C5_2 H4_2 1_555 1_555
C34_2 C35_2 1_555 1_555
C35_2 C36_2 1_555 1_555
C36_2 H25_2 1_555 1_555
C37_2 C36_2 1_555 1_555
H26_2 C37_2 1_555 1_555
C38_2 C37_2 1_555 1_555
Cd4 N1_2 1_555 1_555
N1_2 C2_2 1_555 1_555
O1_2 C34_2 1_555 1_555
O2_2 C34_2 1_555 1_555
O3_2 C35_2 1_555 1_555
C3_2 N1_2 1_555 1_555
C3_2 N2_2 1_555 1_555
C38_2 O3_2 1_555 1_555
Cd4 O1_2 1_555 1_555
Cd4 O2_2 1_555 1_555
H2_3 C2_3 1_555 1_555
C3_3 H3_3 1_555 1_555
C5_3 H4_3 1_555 1_555
C34_3 C35_3 1_555 1_555
C35_3 C36_3 1_555 1_555
C36_3 H25_3 1_555 1_555
C37_3 C36_3 1_555 1_555
H26_3 C37_3 1_555 1_555
C38_3 C37_3 1_555 1_555
Cd1 N1_3 1_555 1_555
N1_3 C2_3 1_555 1_555
O1_3 C34_3 1_555 1_555
O2_3 C34_3 1_555 1_555
O3_3 C35_3 1_555 1_555
N7_2 Cd1 1_555 1_555
N8_2 Cd1 1_555 1_555
O6 Cd1 1_555 1_555
O7 Cd1 1_555 1_555
C3_3 N1_3 1_555 1_555
C3_3 N2_3 1_555 1_555
C38_3 O3_3 1_555 1_555
Cd1 O1_3 1_555 1_555
Cd1 O2_3 1_555 1_555
H8_3 C11_3 1_555 1_555
C12_3 C11_3 1_555 1_555
C13_3 C12_3 1_555 1_555
H9_3 C13_3 1_555 1_555
C14_3 C13_3 1_555 1_555
C16_3 C12_3 1_555 1_555
C17_3 C16_3 1_555 1_555
H11_3 C17_3 1_555 1_555
C21_3 C16_3 1_555 1_555
H14_3 C21_3 1_555 1_555
C25_3 C14_3 1_555 1_555
C26_3 C25_3 1_555 1_555
H18_3 C26_3 1_555 1_555
C27_3 C26_3 1_555 1_555
H19_3 C27_3 1_555 1_555
C28_3 C27_3 1_555 1_555
C29_3 C28_3 1_555 1_555
H20_3 C29_3 1_555 1_555
C30_3 C25_3 1_555 1_555
H21_3 C30_3 1_555 1_555
C31_3 H22_3 1_555 1_555
C32_3 H23_3 1_555 1_555
C33_3 C32_3 1_555 1_555
H24_3 C33_3 1_555 1_555
N5_3 C28_3 1_555 1_555
N6_2 C31_3 1_555 1_555
Cd3 N6_2 1_555 1_555
C14_3 C15_3 1_555 1_555
C29_3 C30_3 1_555 1_555
C31_3 N5_3 1_555 1_555
C32_3 N6_2 1_555 1_555
C33_3 N5_3 1_555 1_555
O6 C39_3 1_555 1_555
O7 C39_3 1_555 1_555
C22_3 H15_3 1_555 1_555
C23_3 H16_3 1_555 1_555
N4_2 C22_3 1_555 1_555
Cd3 N4_2 1_555 1_555
C23_3 N4_2 1_555 1_555
C31_4 H22_4 1_555 1_555
C32_4 H23_4 1_555 1_555
C33_4 C32_4 1_555 1_555
H24_4 C33_4 1_555 1_555
N5_4 C28_4 1_555 1_555
N8_2 C31_4 1_555 1_555
C31_4 N5_4 1_555 1_555
C32_4 N8_2 1_555 1_555
C33_4 N5_4 1_555 1_555
C1_2 H1_2 1_555 1_555
C2_4 C1_2 1_555 1_555
H2_4 C2_4 1_555 1_555
C3_4 H3_4 1_555 1_555
C4_2 C5_4 1_555 1_555
C5_4 H4_4 1_555 1_555
C6_2 C5_4 1_555 1_555
H5_4 C6_2 1_555 1_555
C7_2 C6_2 1_555 1_555
C8_2 C7_2 1_555 1_555
H6_2 C8_2 1_555 1_555
C9_2 C4_2 1_555 1_555
H7_2 C9_2 1_555 1_555
C10_2 C7_2 1_555 1_555
C11_4 C10_2 1_555 1_555
H8_4 C11_4 1_555 1_555
C12_4 C11_4 1_555 1_555
C13_4 C12_4 1_555 1_555
H9_4 C13_4 1_555 1_555
C14_4 C13_4 1_555 1_555
C15_4 C10_2 1_555 1_555
H10_2 C15_4 1_555 1_555
C16_4 C12_4 1_555 1_555
C17_4 C16_4 1_555 1_555
H11_4 C17_4 1_555 1_555
C21_4 C16_4 1_555 1_555
H14_4 C21_4 1_555 1_555
C25_4 C14_4 1_555 1_555
C26_4 C25_4 1_555 1_555
H18_4 C26_4 1_555 1_555
C27_4 C26_4 1_555 1_555
H19_4 C27_4 1_555 1_555
C30_4 C25_4 1_555 1_555
H21_4 C30_4 1_555 1_555
C34_4 C35_4 1_555 1_555
C35_4 C36_4 1_555 1_555
C36_4 H25_4 1_555 1_555
C37_4 C36_4 1_555 1_555
H26_4 C37_4 1_555 1_555
C38_4 C37_4 1_555 1_555
Cd3 N1_4 1_555 1_555
N1_4 C2_4 1_555 1_555
N2_4 C1_2 1_555 1_555
O1_4 C34_4 1_555 1_555
O2_4 C34_4 1_555 1_555
O3_4 C35_4 1_555 1_555
O6_2 Cd3 1_555 1_555
O7_2 Cd3 1_555 1_555
C3_4 N1_4 1_555 1_555
C3_4 N2_4 1_555 1_555
C4_2 N2_4 1_555 1_555
C8_2 C9_2 1_555 1_555
C14_4 C15_4 1_555 1_555
C29_4 C30_4 1_555 1_555
C38_4 O3_4 1_555 1_555
Cd3 O1_4 1_555 1_555
Cd3 O2_4 1_555 1_555
H12_4 C18_2 1_555 1_555
C19_2 C18_2 1_555 1_555
C20_2 C19_2 1_555 1_555
H13_2 C20_2 1_555 1_555
C22_4 H15_4 1_555 1_555
C23_4 H16_4 1_555 1_555
C24_2 C23_4 1_555 1_555
H17_2 C24_2 1_555 1_555
N3_2 C19_2 1_555 1_555
N7_2 C22_4 1_555 1_555
O6_2 C39_4 1_555 1_555
O7_2 C39_4 1_555 1_555
C22_4 N3_2 1_555 1_555
C23_4 N7_2 1_555 1_555
C24_2 N3_2 1_555 1_555
C1_3 H1_3 1_555 1_555
C7_3 C6_3 1_555 1_555
C8_3 C7_3 1_555 1_555
H6_3 C8_3 1_555 1_555
C9_3 C4_3 1_555 1_555
H7_3 C9_3 1_555 1_555
C10_3 C7_3 1_555 1_555
C8_3 C9_3 1_555 1_555
C19_3 C18_3 1_555 1_555
C20_3 C19_3 1_555 1_555
H13_3 C20_3 1_555 1_555
H17_3 C24_3 1_555 1_555
N3_3 C19_3 1_555 1_555
C24_3 N3_3 1_555 1_555
C19_4 C18_4 1_555 1_555
C20_4 C19_4 1_555 1_555
H13_4 C20_4 1_555 1_555
H17_4 C24_4 1_555 1_555
N3_4 C19_4 1_555 1_555
C24_4 N3_4 1_555 1_555
C1_4 H1_4 1_555 1_555
C7_4 C6_4 1_555 1_555
C8_4 C7_4 1_555 1_555
H6_4 C8_4 1_555 1_555
C9_4 C4_4 1_555 1_555
H7_4 C9_4 1_555 1_555
C10_4 C7_4 1_555 1_555
C8_4 C9_4 1_555 1_555

#END
