
###############################################################################
#
# This file contains modified crystal structure data generated from the
# MOF subset of the Cambridge Structural Database (CSD) v543 
# hosted by the Cambridge Crystallographic Data Centre (CCDC).
#
# This work is licensed under the Creative Commons
# Attribution-NonCommercial-ShareAlike 4.0 International License.
# To view a copy of this license, visit
# http://creativecommons.org/licenses/by-nc-sa/4.0/
# or send a letter to
# Creative Commons, PO Box 1866, Mountain View, CA 94042, USA.
#
# CIF created using the CSD Python API on 29 September 2022
# The structure has been converted into the P1 space group
# The structure has a 3D framework
# The original CSD entry WIDZOA is in the monoclinic crystal system
# The framework has been calculated to contain at least 10.0% void space
# The void calculation uses a probe of radius 1.32A, grid spacing 0.4
#
###############################################################################

data_WIDZOA
_chemical_formula_moiety         '(C72 H72 Cd4 N16 O16)n'
_symmetry_cell_setting           triclinic
_symmetry_space_group_name_H-M   'P 1'
_symmetry_Int_Tables_number      1
_space_group_name_Hall           'P 1'
loop_
_symmetry_equiv_pos_site_id
_symmetry_equiv_pos_as_xyz
1 x,y,z
_cell_length_a                   12.6099(2)
_cell_length_b                   12.1229(2)
_cell_length_c                   14.2819(3)
_cell_angle_alpha                90
_cell_angle_beta                 98.4100(10)
_cell_angle_gamma                90
_cell_volume                     2159.78
loop_
_atom_site_label
_atom_site_type_symbol
_atom_site_fract_x
_atom_site_fract_y
_atom_site_fract_z
O7 O 0.56448(12) 0.08304(12) 0.04255(10)
C1 C 0.41250(17) 0.28021(18) 0.85807(17)
H1 H 0.4828 0.3032 0.8577
C2 C 0.33299(19) 0.35835(19) 0.85242(19)
H2 H 0.3496 0.4329 0.8494
C3 C 0.22829(18) 0.32521(18) 0.85131(17)
H3 H 0.1736 0.3772 0.8475
C4 C 0.20519(16) 0.21349(17) 0.85599(15)
C5 C 0.29125(16) 0.14037(17) 0.86255(15)
H4 H 0.2771 0.0653 0.8660
C6 C 0.09411(17) 0.17125(18) 0.85548(16)
C7 C 0.0047(2) 0.2531(2) 0.8530(3)
H6 H 0.0009 0.2971 0.7967
H7 H 0.0178 0.3000 0.9076
C15 C 0.64804(16) 0.16738(15) 0.76585(15)
C16 C 0.72040(16) 0.21724(17) 0.70167(16)
H15 H 0.7723 0.1621 0.6891
H16 H 0.7597 0.2780 0.7347
C17 C 0.66225(16) 0.25937(15) 0.60768(14)
H17 H 0.7142 0.2719 0.5650
H18 H 0.6128 0.2031 0.5798
C18 C 0.60092(14) 0.36456(15) 0.61688(13)
N1 N 0.39267(13) 0.17195(14) 0.86410(13)
N2 N 0.08442(16) 0.06754(17) 0.85954(19)
O1 O 0.57415(13) 0.10360(13) 0.73103(11)
O2 O 0.66668(13) 0.18516(13) 0.85342(11)
O3 O 0.58343(13) 0.39796(13) 0.69551(10)
O4 O 0.56448(12) 0.41696(12) 0.54255(10)
Cd1 Cd 0.534754(10) 0.046344(10) 0.880464(9)
Cd3 Cd 0.465246(10) 0.546344(10) 0.619536(9)
Cd4 Cd 0.534754(10) 0.453656(10) 0.380464(9)
C9 C 0.07171(19) 0.8584(2) 0.9159(2)
H8 H 0.1354 0.8997 0.9101
H9 H 0.0686 0.7943 0.8763
H10 H 0.0730 0.8361 0.9806
N5 N 0.67911(13) 0.91768(14) 0.89075(12)
O5 O 0.41657(13) 0.89796(13) 0.80449(10)
O6 O 0.43552(12) 0.91696(12) 0.95745(10)
H5 H 0.9382 0.2146 0.8530
H14 H 0.7917 0.0283 0.8885
N3 N 0.97903(16) 0.02932(17) 0.85983(19)
C8 C 0.97522(17) 0.92882(18) 0.88614(16)
C10 C 0.86647(16) 0.88269(16) 0.88897(15)
C11 C 0.84755(18) 0.77002(18) 0.89228(17)
H11 H 0.9038 0.7202 0.8933
C12 C 0.74498(19) 0.73281(18) 0.89398(18)
H12 H 0.7309 0.6576 0.8957
C13 C 0.66325(18) 0.80819(17) 0.89305(17)
H13 H 0.5940 0.7822 0.8941
C14 C 0.77955(16) 0.95267(15) 0.88929(15)
H5_2 H 0.0618 0.7146 0.6470
C8_2 C 0.02478(17) 0.42882(18) 0.61386(16)
C10_2 C 0.13353(16) 0.38269(16) 0.61103(15)
C11_2 C 0.15245(18) 0.27002(18) 0.60772(17)
H11_2 H 0.0962 0.2202 0.6067
C12_2 C 0.25502(19) 0.23281(18) 0.60602(18)
H12_2 H 0.2691 0.1576 0.6043
C13_2 C 0.33675(18) 0.30819(17) 0.60695(17)
H13_2 H 0.4060 0.2822 0.6059
C14_2 C 0.22045(16) 0.45267(15) 0.61071(15)
H14_2 H 0.2083 0.5283 0.6115
N3_2 N 0.02097(16) 0.52932(17) 0.64017(19)
N4 N 0.32089(13) 0.41768(14) 0.60925(12)
Cd4_2 Cd 0.465246(10) 0.953656(10) 0.119536(9)
C1_2 C 0.58750(17) 0.78021(18) 0.64193(17)
H1_2 H 0.5172 0.8032 0.6423
C2_2 C 0.66701(19) 0.85835(19) 0.64758(19)
H2_2 H 0.6504 0.9329 0.6506
C3_2 C 0.77171(18) 0.82521(18) 0.64869(17)
H3_2 H 0.8264 0.8772 0.6525
C4_2 C 0.79481(16) 0.71349(17) 0.64401(15)
C5_2 C 0.70875(16) 0.64037(17) 0.63745(15)
H4_2 H 0.7229 0.5653 0.6340
C6_2 C 0.90589(17) 0.67125(18) 0.64452(16)
C7_2 C 0.9953(2) 0.7531(2) 0.6470(3)
H6_2 H 0.9991 0.7971 0.7033
H7_2 H 0.9822 0.8000 0.5924
C9_2 C 0.92829(19) 0.3584(2) 0.5841(2)
H8_2 H 0.8646 0.3997 0.5899
H9_2 H 0.9314 0.2943 0.6237
H10_2 H 0.9270 0.3361 0.5194
C15_2 C 0.35196(16) 0.66738(15) 0.73415(15)
C16_2 C 0.27960(16) 0.71724(17) 0.79833(16)
H15_2 H 0.2277 0.6621 0.8109
H16_2 H 0.2403 0.7780 0.7653
C17_2 C 0.33775(16) 0.75937(15) 0.89232(14)
H17_2 H 0.2858 0.7719 0.9350
H18_2 H 0.3872 0.7031 0.9202
C18_2 C 0.39908(14) 0.86456(15) 0.88312(13)
N1_2 N 0.60733(13) 0.67195(14) 0.63590(13)
N2_2 N 0.91558(16) 0.56754(17) 0.64046(19)
O1_2 O 0.42585(13) 0.60360(13) 0.76897(11)
O2_2 O 0.33332(13) 0.68516(13) 0.64658(11)
O7_2 O 0.43552(12) 0.58304(12) 0.45745(10)
C8_3 C 0.02478(17) 0.07118(18) 0.11386(16)
C10_3 C 0.13353(16) 0.11731(16) 0.11103(15)
C11_3 C 0.15245(18) 0.22998(18) 0.10772(17)
H11_3 H 0.0962 0.2798 0.1067
C12_3 C 0.25502(19) 0.26719(18) 0.10602(18)
H12_3 H 0.2691 0.3424 0.1043
C13_3 C 0.33675(18) 0.19181(17) 0.10695(17)
H13_3 H 0.4060 0.2178 0.1059
C14_3 C 0.22045(16) 0.04733(15) 0.11071(15)
N4_2 N 0.32089(13) 0.08232(14) 0.10925(12)
H5_3 H 0.0618 0.7854 0.1470
H14_3 H 0.2083 0.9717 0.1115
N3_3 N 0.02097(16) 0.97068(17) 0.14017(19)
C9_3 C 0.92829(19) 0.1416(2) 0.0841(2)
H8_3 H 0.8646 0.1003 0.0899
H9_3 H 0.9314 0.2057 0.1237
H10_3 H 0.9270 0.1639 0.0194
O5_2 O 0.58343(13) 0.10204(13) 0.19551(10)
C1_3 C 0.58750(17) 0.71979(18) 0.14193(17)
H1_3 H 0.5172 0.6968 0.1423
C2_3 C 0.66701(19) 0.64165(19) 0.14758(19)
H2_3 H 0.6504 0.5671 0.1506
C3_3 C 0.77171(18) 0.67479(18) 0.14869(17)
H3_3 H 0.8264 0.6228 0.1525
C4_3 C 0.79481(16) 0.78651(17) 0.14401(15)
C5_3 C 0.70875(16) 0.85963(17) 0.13745(15)
H4_3 H 0.7229 0.9347 0.1340
C6_3 C 0.90589(17) 0.82875(18) 0.14452(16)
C7_3 C 0.9953(2) 0.7469(2) 0.1470(3)
H6_3 H 0.9991 0.7029 0.2033
H7_3 H 0.9822 0.7000 0.0924
C15_3 C 0.35196(16) 0.83262(15) 0.23415(15)
C16_3 C 0.27960(16) 0.78276(17) 0.29833(16)
H15_3 H 0.2277 0.8379 0.3109
H16_3 H 0.2403 0.7220 0.2653
C17_3 C 0.33775(16) 0.74063(15) 0.39232(14)
H17_3 H 0.2858 0.7281 0.4350
H18_3 H 0.3872 0.7969 0.4202
C18_3 C 0.39908(14) 0.63544(15) 0.38312(13)
N1_3 N 0.60733(13) 0.82805(14) 0.13590(13)
N2_3 N 0.91558(16) 0.93246(17) 0.14046(19)
O1_3 O 0.42585(13) 0.89640(13) 0.26897(11)
O2_3 O 0.33332(13) 0.81484(13) 0.14658(11)
O3_2 O 0.41657(13) 0.60204(13) 0.30449(10)
C1_4 C 0.41250(17) 0.21979(18) 0.35807(17)
H1_4 H 0.4828 0.1968 0.3577
C2_4 C 0.33299(19) 0.14165(19) 0.35242(19)
H2_4 H 0.3496 0.0671 0.3494
C3_4 C 0.22829(18) 0.17479(18) 0.35131(17)
H3_4 H 0.1736 0.1228 0.3475
C4_4 C 0.20519(16) 0.28651(17) 0.35599(15)
C5_4 C 0.29125(16) 0.35963(17) 0.36255(15)
H4_4 H 0.2771 0.4347 0.3660
C6_4 C 0.09411(17) 0.32875(18) 0.35548(16)
C7_4 C 0.0047(2) 0.2469(2) 0.3530(3)
H6_4 H 0.0009 0.2029 0.2967
H7_4 H 0.0178 0.2000 0.4076
C9_4 C 0.07171(19) 0.6416(2) 0.4159(2)
H8_4 H 0.1354 0.6003 0.4101
H9_4 H 0.0686 0.7057 0.3763
H10_4 H 0.0730 0.6639 0.4806
C15_4 C 0.64804(16) 0.33262(15) 0.26585(15)
C16_4 C 0.72040(16) 0.28276(17) 0.20167(16)
H15_4 H 0.7723 0.3379 0.1891
H16_4 H 0.7597 0.2220 0.2347
C17_4 C 0.66225(16) 0.24063(15) 0.10768(14)
H17_4 H 0.7142 0.2281 0.0650
H18_4 H 0.6128 0.2969 0.0798
C18_4 C 0.60092(14) 0.13544(15) 0.11688(13)
N1_4 N 0.39267(13) 0.32805(14) 0.36410(13)
N2_4 N 0.08442(16) 0.43246(17) 0.35954(19)
O1_4 O 0.57415(13) 0.39640(13) 0.23103(11)
O2_4 O 0.66668(13) 0.31484(13) 0.35342(11)
N5_2 N 0.67911(13) 0.58232(14) 0.39075(12)
H5_4 H 0.9382 0.2854 0.3530
C8_4 C 0.97522(17) 0.57118(18) 0.38614(16)
C10_4 C 0.86647(16) 0.61731(16) 0.38897(15)
C11_4 C 0.84755(18) 0.72998(18) 0.39228(17)
H11_4 H 0.9038 0.7798 0.3933
C12_4 C 0.74498(19) 0.76719(18) 0.39398(18)
H12_4 H 0.7309 0.8424 0.3957
C13_4 C 0.66325(18) 0.69181(17) 0.39305(17)
H13_4 H 0.5940 0.7178 0.3941
C14_4 C 0.77955(16) 0.54733(15) 0.38929(15)
H14_4 H 0.7917 0.4717 0.3885
N3_4 N 0.97903(16) 0.47068(17) 0.35983(19)
loop_
_geom_bond_atom_site_label_1
_geom_bond_atom_site_label_2
_geom_bond_site_symmetry_1
_geom_bond_site_symmetry_2
C1 H1 1_555 1_555
C2 C1 1_555 1_555
H2 C2 1_555 1_555
C3 C2 1_555 1_555
H3 C3 1_555 1_555
C4 C3 1_555 1_555
C5 C4 1_555 1_555
H4 C5 1_555 1_555
C6 C4 1_555 1_555
C7 C6 1_555 1_555
H6 C7 1_555 1_555
H7 C7 1_555 1_555
C15 C16 1_555 1_555
C16 H15 1_555 1_555
H16 C16 1_555 1_555
C17 C16 1_555 1_555
H17 C17 1_555 1_555
H18 C17 1_555 1_555
C18 C17 1_555 1_555
N1 C1 1_555 1_555
N2 C6 1_555 1_555
O1 C15 1_555 1_555
O2 C15 1_555 1_555
O3 C18 1_555 1_555
O4 C18 1_555 1_555
Cd1 N1 1_555 1_555
Cd3 O3 1_555 1_555
Cd4 O4 1_555 1_555
C5 N1 1_555 1_555
O1 Cd1 1_555 1_555
O2 Cd1 1_555 1_555
O4 Cd3 1_555 1_555
C9 H8 1_555 1_555
H9 C9 1_555 1_555
H10 C9 1_555 1_555
C10 C8 1_555 1_555
C11 C10 1_555 1_555
H11 C11 1_555 1_555
C12 C11 1_555 1_555
H12 C12 1_555 1_555
C13 C12 1_555 1_555
H13 C13 1_555 1_555
C14 C10 1_555 1_555
N5 C13 1_555 1_555
C14 N5 1_555 1_555
C10_2 C8_2 1_555 1_555
C11_2 C10_2 1_555 1_555
H11_2 C11_2 1_555 1_555
C12_2 C11_2 1_555 1_555
H12_2 C12_2 1_555 1_555
C13_2 C12_2 1_555 1_555
H13_2 C13_2 1_555 1_555
C14_2 C10_2 1_555 1_555
H14_2 C14_2 1_555 1_555
N3_2 C8_2 1_555 1_555
N4 C13_2 1_555 1_555
Cd3 N4 1_555 1_555
C14_2 N4 1_555 1_555
C1_2 H1_2 1_555 1_555
C2_2 C1_2 1_555 1_555
H2_2 C2_2 1_555 1_555
C3_2 C2_2 1_555 1_555
H3_2 C3_2 1_555 1_555
C4_2 C3_2 1_555 1_555
C5_2 C4_2 1_555 1_555
H4_2 C5_2 1_555 1_555
C6_2 C4_2 1_555 1_555
C7_2 C6_2 1_555 1_555
H6_2 C7_2 1_555 1_555
H7_2 C7_2 1_555 1_555
C9_2 H8_2 1_555 1_555
H9_2 C9_2 1_555 1_555
H10_2 C9_2 1_555 1_555
C15_2 C16_2 1_555 1_555
C16_2 H15_2 1_555 1_555
H16_2 C16_2 1_555 1_555
C17_2 C16_2 1_555 1_555
H17_2 C17_2 1_555 1_555
H18_2 C17_2 1_555 1_555
C18_2 C17_2 1_555 1_555
N1_2 C1_2 1_555 1_555
N2_2 C6_2 1_555 1_555
O1_2 C15_2 1_555 1_555
O2_2 C15_2 1_555 1_555
O5 C18_2 1_555 1_555
O6 C18_2 1_555 1_555
Cd3 N1_2 1_555 1_555
O7_2 Cd3 1_555 1_555
C5_2 N1_2 1_555 1_555
O1_2 Cd3 1_555 1_555
O2_2 Cd3 1_555 1_555
C10_3 C8_3 1_555 1_555
C11_3 C10_3 1_555 1_555
H11_3 C11_3 1_555 1_555
C12_3 C11_3 1_555 1_555
H12_3 C12_3 1_555 1_555
C13_3 C12_3 1_555 1_555
H13_3 C13_3 1_555 1_555
C14_3 C10_3 1_555 1_555
N4_2 C13_3 1_555 1_555
C14_3 N4_2 1_555 1_555
C9_3 H8_3 1_555 1_555
H9_3 C9_3 1_555 1_555
H10_3 C9_3 1_555 1_555
C1_3 H1_3 1_555 1_555
C2_3 C1_3 1_555 1_555
H2_3 C2_3 1_555 1_555
C3_3 C2_3 1_555 1_555
H3_3 C3_3 1_555 1_555
C4_3 C3_3 1_555 1_555
C5_3 C4_3 1_555 1_555
H4_3 C5_3 1_555 1_555
C6_3 C4_3 1_555 1_555
C7_3 C6_3 1_555 1_555
H6_3 C7_3 1_555 1_555
H7_3 C7_3 1_555 1_555
C15_3 C16_3 1_555 1_555
C16_3 H15_3 1_555 1_555
H16_3 C16_3 1_555 1_555
C17_3 C16_3 1_555 1_555
H17_3 C17_3 1_555 1_555
H18_3 C17_3 1_555 1_555
C18_3 C17_3 1_555 1_555
N1_3 C1_3 1_555 1_555
N2_3 C6_3 1_555 1_555
O1_3 C15_3 1_555 1_555
O2_3 C15_3 1_555 1_555
O3_2 C18_3 1_555 1_555
O7_2 C18_3 1_555 1_555
Cd4_2 N1_3 1_555 1_555
Cd4 O3_2 1_555 1_555
C5_3 N1_3 1_555 1_555
O1_3 Cd4_2 1_555 1_555
O2_3 Cd4_2 1_555 1_555
O7_2 Cd4 1_555 1_555
C1_4 H1_4 1_555 1_555
C2_4 C1_4 1_555 1_555
H2_4 C2_4 1_555 1_555
C3_4 C2_4 1_555 1_555
H3_4 C3_4 1_555 1_555
C4_4 C3_4 1_555 1_555
C5_4 C4_4 1_555 1_555
H4_4 C5_4 1_555 1_555
C6_4 C4_4 1_555 1_555
C7_4 C6_4 1_555 1_555
H6_4 C7_4 1_555 1_555
H7_4 C7_4 1_555 1_555
C9_4 H8_4 1_555 1_555
H9_4 C9_4 1_555 1_555
H10_4 C9_4 1_555 1_555
C15_4 C16_4 1_555 1_555
C16_4 H15_4 1_555 1_555
H16_4 C16_4 1_555 1_555
C17_4 C16_4 1_555 1_555
H17_4 C17_4 1_555 1_555
H18_4 C17_4 1_555 1_555
C18_4 C17_4 1_555 1_555
N1_4 C1_4 1_555 1_555
N2_4 C6_4 1_555 1_555
O1_4 C15_4 1_555 1_555
O2_4 C15_4 1_555 1_555
O5_2 C18_4 1_555 1_555
O7 C18_4 1_555 1_555
Cd4 N1_4 1_555 1_555
N5_2 Cd4 1_555 1_555
C5_4 N1_4 1_555 1_555
O1_4 Cd4 1_555 1_555
O2_4 Cd4 1_555 1_555
C10_4 C8_4 1_555 1_555
C11_4 C10_4 1_555 1_555
H11_4 C11_4 1_555 1_555
C12_4 C11_4 1_555 1_555
H12_4 C12_4 1_555 1_555
C13_4 C12_4 1_555 1_555
H13_4 C13_4 1_555 1_555
C14_4 C10_4 1_555 1_555
H14_4 C14_4 1_555 1_555
N3_4 C8_4 1_555 1_555
N5_2 C13_4 1_555 1_555
C14_4 N5_2 1_555 1_555

#END
