
###############################################################################
#
# This file contains modified crystal structure data generated from the
# MOF subset of the Cambridge Structural Database (CSD) v543 
# hosted by the Cambridge Crystallographic Data Centre (CCDC).
#
# This work is licensed under the Creative Commons
# Attribution-NonCommercial-ShareAlike 4.0 International License.
# To view a copy of this license, visit
# http://creativecommons.org/licenses/by-nc-sa/4.0/
# or send a letter to
# Creative Commons, PO Box 1866, Mountain View, CA 94042, USA.
#
# CIF created using the CSD Python API on 29 September 2022
# The structure has been converted into the P1 space group
# The structure has a 3D framework
# The original CSD entry WIFSAI01 is in the monoclinic crystal system
# The framework has been calculated to contain at least 10.0% void space
# The void calculation uses a probe of radius 1.32A, grid spacing 0.4
#
###############################################################################

data_WIFSAI01
_chemical_formula_moiety         '(C52 H36 Cu4 N32)n'
_symmetry_cell_setting           triclinic
_symmetry_space_group_name_H-M   'P 1'
_symmetry_Int_Tables_number      1
_space_group_name_Hall           'P 1'
loop_
_symmetry_equiv_pos_site_id
_symmetry_equiv_pos_as_xyz
1 x,y,z
_cell_length_a                   9.445(5)
_cell_length_b                   11.272(5)
_cell_length_c                   16.646(8)
_cell_angle_alpha                90
_cell_angle_beta                 96.041(9)
_cell_angle_gamma                90
_cell_volume                     1762.36
loop_
_atom_site_label
_atom_site_type_symbol
_atom_site_fract_x
_atom_site_fract_y
_atom_site_fract_z
N9 N 0.0385(3) 0.2050(2) 0.1764(2)
Cu1 Cu 0.81737(5) 0.20982(4) 0.18672(3)
N6 N 0.7208(3) 0.2401(3) 0.06929(17)
C11 C 0.7157(4) 0.3423(3) 0.0320(2)
H7 H 0.761492 0.410538 0.052565
C13 C 0.6393(4) 0.1639(3) 0.0185(2)
H9 H 0.623406 0.084371 0.029424
N10 N 0.8055(3) 0.3733(2) 0.24243(17)
N11 N 0.7295(3) 0.0598(2) 0.22364(17)
Cu1_2 Cu 0.68263(5) 0.70982(4) 0.31328(3)
N5 N 0.8649(3) 0.8366(3) 0.54094(17)
N6_2 N 0.7792(3) 0.7401(3) 0.43071(17)
C2 C 0.9142(4) 0.7213(3) 0.5493(2)
H2 H 0.972254 0.689682 0.592689
C7 C 0.9023(3) 0.9337(3) 0.59370(19)
C11_2 C 0.7843(4) 0.8423(3) 0.4680(2)
H7_2 H 0.738508 0.910538 0.447435
C13_2 C 0.8607(4) 0.6639(3) 0.4815(2)
H9_2 H 0.876594 0.584371 0.470576
N9_2 N 0.4615(3) 0.7050(2) 0.3236(2)
N10_2 N 0.6945(3) 0.8733(2) 0.25757(17)
N11_2 N 0.7705(3) 0.5598(2) 0.27636(17)
N1 N 0.2470(3) 0.2861(2) 0.15754(19)
N5_2 N 0.3649(3) 0.6634(3) 0.04094(17)
C1 C 0.5347(3) 0.5650(3) 0.13924(19)
H1 H 0.595774 0.629467 0.137889
C2_2 C 0.4142(4) 0.7787(3) 0.0493(2)
H2_2 H 0.472254 0.810318 0.092689
C3 C 0.4829(3) 0.3706(3) 0.1900(2)
H3 H 0.510937 0.303600 0.220139
N7 N 0.9209(3) 0.4134(3) 0.29073(18)
N8 N 0.8996(3) 0.5236(3) 0.31058(18)
C4 C 0.5752(3) 0.4667(3) 0.18675(19)
C5 C 0.7161(3) 0.4661(3) 0.23508(19)
C6 C 0.2739(4) 0.1693(3) 0.1798(2)
H4 H 0.361818 0.131384 0.185991
C7_2 C 0.4023(3) 0.5663(3) 0.09370(19)
C8 C 0.1028(3) 0.3025(3) 0.1565(2)
H5 H 0.056317 0.373692 0.143381
C9 C 0.3480(3) 0.3767(3) 0.1473(2)
C10 C 0.3072(3) 0.4725(3) 0.0979(2)
H6 H 0.218157 0.474071 0.068182
C12 C 0.1460(4) 0.1217(3) 0.1907(2)
H8 H 0.132039 0.043508 0.205705
N1_2 N 0.2530(3) 0.7861(2) 0.34246(19)
C3_2 C 0.0171(3) 0.8706(3) 0.3100(2)
C6_2 C 0.2261(4) 0.6693(3) 0.3202(2)
H4_2 H 0.138182 0.631384 0.314009
C8_2 C 0.3972(3) 0.8025(3) 0.3435(2)
H5_2 H 0.443683 0.873692 0.356619
C9_2 C 0.1520(3) 0.8767(3) 0.3527(2)
C10_2 C 0.1928(3) 0.9725(3) 0.4021(2)
H6_2 H 0.281843 0.974071 0.431818
C12_2 C 0.3540(4) 0.6217(3) 0.3093(2)
H8_2 H 0.367961 0.543508 0.294295
C1_2 C 0.9653(3) 0.0650(3) 0.36076(19)
H1_2 H 0.904226 0.129467 0.362111
N8_2 N 0.6004(3) 0.0236(3) 0.18942(18)
H3_2 H 0.989063 0.803600 0.279861
N7_2 N 0.5791(3) 0.9134(3) 0.20927(18)
C4_2 C 0.9248(3) 0.9667(3) 0.31325(19)
C5_2 C 0.7839(3) 0.9661(3) 0.26492(19)
Cu3 Cu 0.18263(5) 0.79018(4) 0.81328(3)
N1_3 N 0.7530(3) 0.7139(2) 0.84246(19)
N2 N 0.9615(3) 0.7950(2) 0.8236(2)
N3 N 0.1945(3) 0.6267(2) 0.75757(17)
N4 N 0.2295(3) 0.4402(2) 0.72364(17)
N5_3 N 0.6351(3) 0.3366(3) 0.95906(17)
C1_3 C 0.4653(3) 0.4350(3) 0.86076(19)
H1_3 H 0.404226 0.370533 0.862111
C2_3 C 0.5858(4) 0.2213(3) 0.9507(2)
H2_3 H 0.527746 0.189682 0.907311
C3_3 C 0.5171(3) 0.6294(3) 0.8100(2)
H3_3 H 0.489063 0.696400 0.779861
N7_3 N 0.0791(3) 0.5866(3) 0.70927(18)
N8_3 N 0.1004(3) 0.4764(3) 0.68942(18)
C4_3 C 0.4248(3) 0.5333(3) 0.81325(19)
C5_3 C 0.2839(3) 0.5339(3) 0.76492(19)
C6_3 C 0.7261(4) 0.8307(3) 0.8202(2)
H4_3 H 0.638182 0.868616 0.814009
C7_3 C 0.5977(3) 0.4337(3) 0.90630(19)
C8_3 C 0.8972(3) 0.6975(3) 0.8435(2)
H5_3 H 0.943683 0.626308 0.856619
C9_3 C 0.6520(3) 0.6233(3) 0.8527(2)
C10_3 C 0.6928(3) 0.5275(3) 0.9021(2)
H6_3 H 0.781843 0.525929 0.931818
C12_3 C 0.8540(4) 0.8783(3) 0.8093(2)
H8_3 H 0.867961 0.956492 0.794295
Cu4 Cu 0.31737(5) 0.29018(4) 0.68672(3)
N3_2 N 0.3055(3) 0.1267(2) 0.74243(17)
H3_4 H 0.010937 0.196400 0.720139
N7_4 N 0.4209(3) 0.0866(3) 0.79073(18)
C4_4 C 0.0752(3) 0.0333(3) 0.68675(19)
C5_4 C 0.2161(3) 0.0339(3) 0.73508(19)
N4_2 N 0.2705(3) 0.9402(2) 0.77636(17)
C1_4 C 0.0347(3) 0.9350(3) 0.63924(19)
H1_4 H 0.095774 0.870533 0.637889
N8_4 N 0.3996(3) 0.9764(3) 0.81058(18)
N1_4 N 0.7470(3) 0.2139(2) 0.65754(19)
N2_2 N 0.5385(3) 0.2950(2) 0.6764(2)
C3_4 C 0.9829(3) 0.1294(3) 0.6900(2)
C6_4 C 0.7739(4) 0.3307(3) 0.6798(2)
H4_4 H 0.861818 0.368616 0.685991
C8_4 C 0.6028(3) 0.1975(3) 0.6565(2)
H5_4 H 0.556317 0.126308 0.643381
C9_4 C 0.8480(3) 0.1233(3) 0.6473(2)
C10_4 C 0.8072(3) 0.0275(3) 0.5979(2)
H6_4 H 0.718157 0.025929 0.568182
C12_4 C 0.6460(4) 0.3783(3) 0.6907(2)
H8_4 H 0.632039 0.456492 0.705705
N6_3 N 0.2792(3) 0.7599(3) 0.93071(17)
C11_3 C 0.2843(4) 0.6577(3) 0.9680(2)
H7_3 H 0.238508 0.589462 0.947435
C13_3 C 0.3607(4) 0.8361(3) 0.9815(2)
H9_3 H 0.376594 0.915629 0.970576
N5_4 N 0.1351(3) 0.1634(3) 0.45906(17)
N6_4 N 0.2208(3) 0.2599(3) 0.56929(17)
C2_4 C 0.0858(4) 0.2787(3) 0.4507(2)
H2_4 H 0.027746 0.310318 0.407311
C7_4 C 0.0977(3) 0.0663(3) 0.40630(19)
C11_4 C 0.2157(4) 0.1577(3) 0.5320(2)
H7_4 H 0.261492 0.089462 0.552565
C13_4 C 0.1393(4) 0.3361(3) 0.5185(2)
H9_4 H 0.123406 0.415629 0.529424
loop_
_geom_bond_atom_site_label_1
_geom_bond_atom_site_label_2
_geom_bond_site_symmetry_1
_geom_bond_site_symmetry_2
Cu1 N6 1_555 1_555
N6 C11 1_555 1_555
H7 C11 1_555 1_555
C13 N6 1_555 1_555
H9 C13 1_555 1_555
N10 Cu1 1_555 1_555
N11 Cu1 1_555 1_555
Cu1_2 N6_2 1_555 1_555
N5 C2 1_555 1_555
N6_2 C11_2 1_555 1_555
C2 H2 1_555 1_555
C7 N5 1_555 1_555
C11_2 N5 1_555 1_555
H7_2 C11_2 1_555 1_555
C13_2 N6_2 1_555 1_555
H9_2 C13_2 1_555 1_555
N9_2 Cu1_2 1_555 1_555
N10_2 Cu1_2 1_555 1_555
N11_2 Cu1_2 1_555 1_555
C2 C13_2 1_555 1_555
N1 C6 1_555 1_555
N9 C8 1_555 1_555
N10 N7 1_555 1_555
N11_2 N8 1_555 1_555
N5_2 C2_2 1_555 1_555
C1 H1 1_555 1_555
C2_2 H2_2 1_555 1_555
C3 H3 1_555 1_555
N7 N8 1_555 1_555
C4 C1 1_555 1_555
C5 N10 1_555 1_555
C6 H4 1_555 1_555
C7_2 N5_2 1_555 1_555
C8 N1 1_555 1_555
H5 C8 1_555 1_555
C9 N1 1_555 1_555
C10 C7_2 1_555 1_555
H6 C10 1_555 1_555
C12 N9 1_555 1_555
H8 C12 1_555 1_555
N11_2 C5 1_555 1_555
C1 C7_2 1_555 1_555
C3 C4 1_555 1_555
C3 C9 1_555 1_555
C4 C5 1_555 1_555
C6 C12 1_555 1_555
C9 C10 1_555 1_555
N1_2 C6_2 1_555 1_555
N9_2 C8_2 1_555 1_555
C6_2 H4_2 1_555 1_555
C8_2 N1_2 1_555 1_555
H5_2 C8_2 1_555 1_555
C9_2 N1_2 1_555 1_555
H6_2 C10_2 1_555 1_555
C12_2 N9_2 1_555 1_555
H8_2 C12_2 1_555 1_555
C3_2 C9_2 1_555 1_555
C6_2 C12_2 1_555 1_555
C9_2 C10_2 1_555 1_555
N11 N8_2 1_555 1_555
C1_2 H1_2 1_555 1_555
N10_2 N7_2 1_555 1_555
C5_2 N10_2 1_555 1_555
C4_2 C5_2 1_555 1_555
N1_3 C6_3 1_555 1_555
N2 C8_3 1_555 1_555
N3 N7_3 1_555 1_555
N4 N8_3 1_555 1_555
N5_3 C2_3 1_555 1_555
C1_3 H1_3 1_555 1_555
C2_3 H2_3 1_555 1_555
C3_3 H3_3 1_555 1_555
N7_3 N8_3 1_555 1_555
C4_3 C1_3 1_555 1_555
C5_3 N3 1_555 1_555
C6_3 H4_3 1_555 1_555
C7_3 N5_3 1_555 1_555
C8_3 N1_3 1_555 1_555
H5_3 C8_3 1_555 1_555
C9_3 N1_3 1_555 1_555
C10_3 C7_3 1_555 1_555
H6_3 C10_3 1_555 1_555
C12_3 N2 1_555 1_555
H8_3 C12_3 1_555 1_555
Cu3 N3 1_555 1_555
Cu4 N4 1_555 1_555
N4 C5_3 1_555 1_555
C1_3 C7_3 1_555 1_555
C3_3 C4_3 1_555 1_555
C3_3 C9_3 1_555 1_555
C4_3 C5_3 1_555 1_555
C6_3 C12_3 1_555 1_555
C9_3 C10_3 1_555 1_555
N3_2 N7_4 1_555 1_555
C5_4 N3_2 1_555 1_555
Cu4 N3_2 1_555 1_555
C4_4 C5_4 1_555 1_555
N4_2 N8_4 1_555 1_555
C1_4 H1_4 1_555 1_555
Cu3 N4_2 1_555 1_555
N1_4 C6_4 1_555 1_555
N2_2 C8_4 1_555 1_555
C6_4 H4_4 1_555 1_555
C8_4 N1_4 1_555 1_555
H5_4 C8_4 1_555 1_555
C9_4 N1_4 1_555 1_555
H6_4 C10_4 1_555 1_555
C12_4 N2_2 1_555 1_555
H8_4 C12_4 1_555 1_555
Cu4 N2_2 1_555 1_555
C3_4 C9_4 1_555 1_555
C6_4 C12_4 1_555 1_555
C9_4 C10_4 1_555 1_555
Cu3 N6_3 1_555 1_555
N6_3 C11_3 1_555 1_555
H7_3 C11_3 1_555 1_555
C13_3 N6_3 1_555 1_555
H9_3 C13_3 1_555 1_555
Cu4 N6_4 1_555 1_555
N5_4 C2_4 1_555 1_555
N6_4 C11_4 1_555 1_555
C2_4 H2_4 1_555 1_555
C7_4 N5_4 1_555 1_555
C11_4 N5_4 1_555 1_555
H7_4 C11_4 1_555 1_555
C13_4 N6_4 1_555 1_555
H9_4 C13_4 1_555 1_555
C2_4 C13_4 1_555 1_555

#END
