
###############################################################################
#
# This file contains modified crystal structure data generated from the
# MOF subset of the Cambridge Structural Database (CSD) v543 
# hosted by the Cambridge Crystallographic Data Centre (CCDC).
#
# This work is licensed under the Creative Commons
# Attribution-NonCommercial-ShareAlike 4.0 International License.
# To view a copy of this license, visit
# http://creativecommons.org/licenses/by-nc-sa/4.0/
# or send a letter to
# Creative Commons, PO Box 1866, Mountain View, CA 94042, USA.
#
# CIF created using the CSD Python API on 29 September 2022
# The structure has been converted into the P1 space group
# The structure has a 3D framework
# The original CSD entry WIGHIG is in the triclinic crystal system
# The original CSD entry WIGHIG is in a Sohncke space group
# The framework has been calculated to contain at least 10.0% void space
# The void calculation uses a probe of radius 1.32A, grid spacing 0.4
# H atom positions have been added when not included in the experimental data
#
###############################################################################

data_WIGHIG
_chemical_formula_moiety         '(C76 H80 Co4 N12 O16)n'
_symmetry_cell_setting           triclinic
_symmetry_space_group_name_H-M   'P 1'
_symmetry_Int_Tables_number      1
_space_group_name_Hall           'P 1'
loop_
_symmetry_equiv_pos_site_id
_symmetry_equiv_pos_as_xyz
1 x,y,z
_cell_length_a                   13.1087(7)
_cell_length_b                   13.4402(8)
_cell_length_c                   14.6663(8)
_cell_angle_alpha                96.3720(10)
_cell_angle_beta                 113.1840(10)
_cell_angle_gamma                90.8690(10)
_cell_volume                     2355.72
loop_
_atom_site_label
_atom_site_type_symbol
_atom_site_fract_x
_atom_site_fract_y
_atom_site_fract_z
C17 C 0.0902(13) 0.1096(10) 0.2660(11)
N12 N 0.1197(11) 0.6983(16) 0.7785(13)
C53 C 0.0850(16) 0.1488(13) 0.1701(12)
H33 H 0.0513 0.0993 0.1115
H34 H 0.1571 0.1738 0.1753
C55 C 0.0986(15) 0.6631(18) 0.8446(13)
H35 H 0.1578 0.6490 0.9017
C64 C 0.0312(14) 0.727(2) 0.6904(15)
H48 H 0.0453 0.7520 0.6397
H49 H 0.0133 0.0286 0.3914
H50 H 0.0594 0.1392 0.4371
H56 H 0.0346 0.3130 0.1876
C72 C 0.0436(11) 0.2821(14) 0.3519(10)
H63 H 0.0396 0.3527 0.3476
H64 H 0.0277 0.2670 0.4077
H65 H 0.1169 0.2628 0.3611
H77 H 0.15784 0.152804 0.328229
Co9 Co 0.07479(11) 0.79484(11) 0.11182(10)
O3 O 0.1927(10) 0.9719(8) 0.3385(8)
O11 O 0.0807(10) 0.9402(8) 0.1813(8)
C23 C 0.1257(10) 0.9970(9) 0.2595(9)
H43 H 0.0441 0.9001 0.9288
Co10 Co 0.21515(12) 0.82546(11) 0.31136(10)
O10 O 0.5468(8) 0.1655(7) 0.0437(7)
O15 O 0.5940(8) 0.1765(7) 0.2053(8)
C31 C 0.5568(12) 0.1276(9) 0.1205(11)
C44 C 0.5236(12) 0.0147(9) 0.1139(12)
C48 C 0.3097(12) 0.0178(12) 0.0021(11)
H27 H 0.2375 0.0035 0.0015
C59 C 0.3701(15) 0.0692(11) 0.1725(14)
H40 H 0.4220 0.0627 0.2390
H41 H 0.3760 0.1368 0.1589
H42 H 0.2959 0.0534 0.1666
H61 H 0.6348 0.0148 0.2502
Co7 Co 0.61549(11) 0.30451(9) 0.10717(9)
Co12 Co 0.67460(11) 0.31599(10) 0.31680(9)
N2 N 0.6233(9) 0.3909(8) 0.0001(7)
C56 C 0.7204(11) 0.4104(9) 0.0007(9)
H36 H 0.7790 0.3780 0.0434
O1 O 0.7753(7) 0.2670(7) 0.1564(7)
O4 O 0.4726(8) 0.3520(7) 0.1058(7)
O5 O 0.3224(7) 0.8567(7) 0.2446(6)
O6 O 0.8186(7) 0.2640(7) 0.3158(6)
O8 O 0.2041(9) 0.8426(8) 0.0844(8)
O9 O 0.0815(7) 0.7789(7) 0.3383(6)
N1 N 0.7729(9) 0.5968(9) 0.8124(8)
N3 N 0.3416(9) 0.7864(8) 0.4381(7)
C1 C 0.5512(10) 0.1471(10) 0.4870(9)
H1 H 0.4816 0.1355 0.4882
O13 O 0.2042(9) 0.6775(8) 0.2399(8)
O14 O 0.5160(8) 0.3552(6) 0.2721(6)
C2 C 0.5614(10) 0.2084(11) 0.4225(11)
H2 H 0.4987 0.2352 0.3786
N4 N 0.7077(9) 0.6875(9) 0.6752(8)
N5 N 0.5787(8) 0.6196(8) 0.7340(7)
C3 C 0.6013(10) 0.6677(10) 0.6726(10)
C4 C 0.3186(13) 0.7329(11) 0.5005(11)
H3 H 0.2451 0.7204 0.4917
C5 C 0.4487(11) 0.8013(10) 0.4524(9)
H4 H 0.4662 0.8427 0.4131
C6 C 0.8414(10) 0.2552(9) 0.2405(10)
C7 C 0.3942(12) 0.8903(11) 0.1246(12)
N8 N 0.6642(9) 0.2308(8) 0.4221(8)
C8 C 0.2989(12) 0.8616(10) 0.1519(10)
C9 C 0.9207(11) 0.7135(13) 0.6864(12)
H5 H 0.8610 0.7362 0.6352
N9 N 0.5127(9) 0.0253(8) 0.6078(8)
N10 N 0.7058(10) 0.0029(9) 0.6832(8)
C11 C 0.6525(12) 0.5186(11) 0.8723(10)
C14 C 0.6227(11) 0.0364(9) 0.6218(8)
C15 C 0.4067(11) 0.6948(9) 0.5807(10)
H6 H 0.3897 0.6594 0.6244
C16 C 0.9619(11) 0.2265(11) 0.2595(10)
C18 C 0.6375(10) 0.1031(9) 0.5484(9)
C20 C 0.7520(12) 0.1830(12) 0.4851(12)
H7 H 0.8207 0.1903 0.4812
C21 C 0.7429(12) 0.1265(13) 0.5518(11)
H8 H 0.8057 0.1034 0.5993
C22 C 0.6720(11) 0.5808(10) 0.8087(10)
C25 C 0.5304(11) 0.7594(10) 0.5203(9)
H10 H 0.6012 0.7628 0.5201
C26 C 0.5121(12) 0.7094(9) 0.5934(9)
C28 C 0.7895(11) 0.6498(10) 0.7479(10)
O16 O 0.0969(9) 0.6489(7) 0.0750(8)
C30 C 0.1656(12) 0.6204(11) 0.1567(12)
H15 H 0.3074 0.0141 0.5373
C34 C 0.1945(10) 0.5161(9) 0.1595(10)
C35 C 0.9045(10) 0.6690(9) 0.7557(9)
C36 C 0.3323(11) 0.3898(9) 0.1687(11)
H16 H 0.2782 0.3485 0.1096
C38 C 0.4491(11) 0.3644(9) 0.1813(10)
C40 C 0.5478(12) 0.5000(10) 0.8737(10)
H18 H 0.4863 0.5318 0.8343
C42 C 0.2997(14) 0.3865(11) 0.2538(13)
H19 H 0.3652 0.3962 0.3161
H20 H 0.2631 0.3216 0.2486
C43 C 0.9934(12) 0.6440(14) 0.8376(11)
H21 H 0.9814 0.6146 0.8873
H22 H 0.5307 0.9803 0.0543
C46 C 0.5386(11) 0.4310(9) 0.9368(8)
H25 H 0.4680 0.4133 0.9330
C49 C 0.5198(12) 0.9006(12) 0.2331(13)
H29 H 0.5114 0.9344 0.2914
H30 H 0.5501 0.8359 0.2472
C50 C 0.9856(13) 0.1218(12) 0.2861(11)
C54 C 0.3148(11) 0.5046(9) 0.1568(13)
C57 C 0.2240(13) 0.4660(12) 0.2529(13)
H37 H 0.2592 0.5154 0.3114
H38 H 0.1568 0.4375 0.2554
C62 C 0.3959(13) 0.9978(11) 0.0981(11)
C63 C 0.8898(13) 0.0485(12) 0.2075(14)
H45 H 0.8788 0.0615 0.1413
H47 H 0.8225 0.0585 0.2176
C65 C 0.999(2) 0.0980(18) 0.3866(15)
H51 H 0.9314 0.1109 0.3962
C66 C 0.7463(11) 0.4752(10) 0.9436(10)
H52 H 0.8189 0.4895 0.9510
C67 C 0.299(2) 0.5202(17) 0.0372(19)
C68 C 0.4037(15) 0.5707(13) 0.222(2)
H53 H 0.3863 0.6384 0.2095
H54 H 0.4163 0.5636 0.2896
H55 H 0.4694 0.5556 0.2104
C69 C 0.9954(15) 0.2477(14) 0.1734(12)
H57 H 0.9308 0.2442 0.1107
C70 C 0.1143(16) 0.4475(9) 0.0701(10)
H58 H 0.1364 0.3798 0.0750
H59 H 0.0406 0.4507 0.0688
H60 H 0.1151 0.4683 0.0098
C71 C 0.5887(14) 0.9651(13) 0.1956(15)
H62 H 0.6377 0.9227 0.1759
H69 H 0.0287 0.6450 0.4432
C76 C 0.388(2) 0.8122(19) 0.0344(18)
H74 H 0.4478 0.8281 0.0148
H75 H 0.3950 0.7460 0.0541
O17 O 0.6906(9) 0.4408(7) 0.2210(7)
O21 O 0.7428(9) 0.4597(8) 0.3861(8)
H78 H 0.269859 0.594272 0.0210215
H79 H 0.37858 0.513149 0.0306783
O7 O 0.9715(8) 0.7570(8) 0.1777(7)
C19 C 0.7745(14) 0.6032(11) 0.3159(11)
C27 C 0.9125(12) 0.5493(11) 0.2397(12)
H11 H 0.9855 0.5679 0.2443
H12 H 0.9107 0.4821 0.2557
H13 H 0.8591 0.5527 0.1730
C32 C 0.7340(10) 0.4961(11) 0.3055(9)
C37 C 0.9869(11) 0.7574(9) 0.2647(10)
C41 C 0.8842(16) 0.6208(13) 0.3129(14)
C45 C 0.7005(16) 0.6494(14) 0.2061(13)
H23 H 0.6969 0.6050 0.1480
H24 H 0.6262 0.6653 0.1995
C61 C 0.8917(13) 0.7312(10) 0.2975(12)
H44 H 0.9054 0.7725 0.3610
C73 C 0.7449(17) 0.6633(14) 0.3973(14)
H66 H 0.6708 0.6427 0.3886
H67 H 0.7965 0.6508 0.4622
H68 H 0.7491 0.7336 0.3919
C74 C 0.951(3) 0.632(2) 0.428(2)
H70 H 0.9254 0.6876 0.4590
H71 H 0.9406 0.5719 0.4533
C75 C 0.7803(13) 0.7460(12) 0.2280(11)
H72 H 0.7825 0.7620 0.1659
H73 H 0.7515 0.8023 0.2557
H28 H 0.3175 0.0870 0.9939
H26 H 0.3180 0.9759 0.9483
H76 H 0.3183 0.8147 0.9791
H80 H 0.238561 0.463053 0.984205
H39 H 0.8313 0.7921 0.0221
N6 N 0.5838(10) 0.9293(8) 0.7449(7)
N7 N 0.9506(9) 0.8417(8) 0.9863(8)
C10 C 0.3864(13) 0.9492(12) 0.6630(10)
C12 C 0.5028(11) 0.9692(9) 0.6737(8)
C13 C 0.7771(10) 0.9092(10) 0.8303(9)
N11 N 0.1700(13) 0.9099(13) 0.6521(12)
C24 C 0.2553(11) 0.8884(9) 0.7236(10)
H9 H 0.2429 0.8591 0.7731
C29 C 0.7534(11) 0.8540(9) 0.8910(9)
H14 H 0.6803 0.8355 0.8795
C33 C 0.2975(14) 0.9797(12) 0.5852(13)
C39 C 0.8921(11) 0.9263(12) 0.8417(10)
H17 H 0.9103 0.9600 0.7976
C47 C 0.6809(11) 0.9474(10) 0.7482(9)
C51 C 0.3614(13) 0.9026(11) 0.7367(9)
H31 H 0.4182 0.8829 0.7923
C52 C 0.1920(13) 0.9564(17) 0.5820(16)
H32 H 0.1313 0.9738 0.5280
C58 C 0.8455(12) 0.8242(11) 0.9749(11)
C60 C 0.9703(11) 0.8902(11) 0.9203(9)
H46 H 0.9094 0.9805 0.2154
loop_
_geom_bond_atom_site_label_1
_geom_bond_atom_site_label_2
_geom_bond_site_symmetry_1
_geom_bond_site_symmetry_2
N12 C55 1_555 1_555
C53 C17 1_555 1_555
H33 C53 1_555 1_555
H34 C53 1_555 1_555
H35 C55 1_555 1_555
H48 C64 1_555 1_555
H63 C72 1_555 1_555
H64 C72 1_555 1_555
H65 C72 1_555 1_555
N12 C64 1_555 1_555
C17 H77 1_555 1_555
O3 C23 1_555 1_555
O11 C23 1_555 1_555
Co9 O11 1_555 1_555
Co10 O3 1_555 1_555
Co9 Co10 1_555 1_555
O10 C31 1_555 1_555
O15 C31 1_555 1_555
C31 C44 1_555 1_555
H27 C48 1_555 1_555
C59 H40 1_555 1_555
H41 C59 1_555 1_555
H42 C59 1_555 1_555
Co7 O10 1_555 1_555
Co12 O15 1_555 1_555
O15 Co7 1_555 1_555
Co7 Co12 1_555 1_555
C56 N2 1_555 1_555
H36 C56 1_555 1_555
Co7 N2 1_555 1_555
Co10 O5 1_555 1_555
Co12 O6 1_555 1_555
O1 Co7 1_555 1_555
O4 Co7 1_555 1_555
O5 C8 1_555 1_555
O6 C6 1_555 1_555
O8 Co9 1_555 1_555
O9 Co10 1_555 1_555
N1 C22 1_555 1_555
N3 Co10 1_555 1_555
C1 H1 1_555 1_555
O13 Co10 1_555 1_555
O14 Co12 1_555 1_555
C2 C1 1_555 1_555
H2 C2 1_555 1_555
N4 C3 1_555 1_555
N5 C3 1_555 1_555
C3 C26 1_555 1_555
C4 N3 1_555 1_555
H3 C4 1_555 1_555
C5 N3 1_555 1_555
H4 C5 1_555 1_555
C6 O1 1_555 1_555
C7 C8 1_555 1_555
N8 Co12 1_555 1_555
C8 O8 1_555 1_555
C9 H5 1_555 1_555
N10 C14 1_555 1_555
C11 C22 1_555 1_555
C14 N9 1_555 1_555
C15 C4 1_555 1_555
H6 C15 1_555 1_555
C16 C6 1_555 1_555
C18 C1 1_555 1_555
C20 N8 1_555 1_555
H7 C20 1_555 1_555
C21 C18 1_555 1_555
H8 C21 1_555 1_555
C22 N5 1_555 1_555
C25 C5 1_555 1_555
H10 C25 1_555 1_555
C26 C15 1_555 1_555
C28 N1 1_555 1_555
O16 Co9 1_555 1_555
C30 O13 1_555 1_555
C34 C30 1_555 1_555
C35 C9 1_555 1_555
C36 H16 1_555 1_555
C38 O4 1_555 1_555
C40 C11 1_555 1_555
H18 C40 1_555 1_555
C42 C36 1_555 1_555
H19 C42 1_555 1_555
H20 C42 1_555 1_555
C43 C35 1_555 1_555
H21 C43 1_555 1_555
C46 C40 1_555 1_555
H25 C46 1_555 1_555
C49 C7 1_555 1_555
H29 C49 1_555 1_555
H30 C49 1_555 1_555
C50 C16 1_555 1_555
C54 C34 1_555 1_555
C57 C34 1_555 1_555
H37 C57 1_555 1_555
H38 C57 1_555 1_555
C62 C7 1_555 1_555
C63 C50 1_555 1_555
H45 C63 1_555 1_555
H47 C63 1_555 1_555
C65 C50 1_555 1_555
H51 C65 1_555 1_555
C66 C11 1_555 1_555
H52 C66 1_555 1_555
C67 C54 1_555 1_555
C68 C54 1_555 1_555
H53 C68 1_555 1_555
H54 C68 1_555 1_555
H55 C68 1_555 1_555
C69 C16 1_555 1_555
H57 C69 1_555 1_555
C70 C34 1_555 1_555
H58 C70 1_555 1_555
H59 C70 1_555 1_555
H60 C70 1_555 1_555
H62 C71 1_555 1_555
C76 C7 1_555 1_555
H74 C76 1_555 1_555
H75 C76 1_555 1_555
O17 Co7 1_555 1_555
O21 Co12 1_555 1_555
Co12 O17 1_555 1_555
O14 C38 1_555 1_555
C2 N8 1_555 1_555
N4 C28 1_555 1_555
C14 C18 1_555 1_555
C20 C21 1_555 1_555
C25 C26 1_555 1_555
C28 C35 1_555 1_555
O16 C30 1_555 1_555
C36 C38 1_555 1_555
C36 C54 1_555 1_555
C42 C57 1_555 1_555
C49 C71 1_555 1_555
C67 H78 1_555 1_555
C67 H79 1_555 1_555
O17 C32 1_555 1_555
O21 C32 1_555 1_555
C19 C32 1_555 1_555
C27 H11 1_555 1_555
H12 C27 1_555 1_555
H13 C27 1_555 1_555
C37 O7 1_555 1_555
C41 C19 1_555 1_555
C45 C19 1_555 1_555
H23 C45 1_555 1_555
H24 C45 1_555 1_555
C61 C37 1_555 1_555
H44 C61 1_555 1_555
C73 C19 1_555 1_555
H66 C73 1_555 1_555
H67 C73 1_555 1_555
H68 C73 1_555 1_555
C74 C41 1_555 1_555
H70 C74 1_555 1_555
H71 C74 1_555 1_555
C75 C45 1_555 1_555
H72 C75 1_555 1_555
H73 C75 1_555 1_555
C27 C41 1_555 1_555
C41 C61 1_555 1_555
C61 C75 1_555 1_555
N6 C12 1_555 1_555
N7 C58 1_555 1_555
C10 C12 1_555 1_555
C13 C29 1_555 1_555
N11 C24 1_555 1_555
C24 H9 1_555 1_555
C29 H14 1_555 1_555
C33 C10 1_555 1_555
C39 C13 1_555 1_555
H17 C39 1_555 1_555
C47 N6 1_555 1_555
C51 C10 1_555 1_555
H31 C51 1_555 1_555
C52 N11 1_555 1_555
H32 C52 1_555 1_555
C58 C29 1_555 1_555
C60 N7 1_555 1_555
C13 C47 1_555 1_555
C24 C51 1_555 1_555
C33 C52 1_555 1_555
C39 C60 1_555 1_555

#END
