
###############################################################################
#
# This file contains modified crystal structure data generated from the
# MOF subset of the Cambridge Structural Database (CSD) v543 
# hosted by the Cambridge Crystallographic Data Centre (CCDC).
#
# This work is licensed under the Creative Commons
# Attribution-NonCommercial-ShareAlike 4.0 International License.
# To view a copy of this license, visit
# http://creativecommons.org/licenses/by-nc-sa/4.0/
# or send a letter to
# Creative Commons, PO Box 1866, Mountain View, CA 94042, USA.
#
# CIF created using the CSD Python API on 29 September 2022
# The structure has been converted into the P1 space group
# The structure has a 3D framework
# The original CSD entry WIHQEM is in the triclinic crystal system
# The framework has been calculated to contain at least 10.0% void space
# The void calculation uses a probe of radius 1.32A, grid spacing 0.4
#
###############################################################################

data_WIHQEM
_chemical_formula_moiety         '(C18 H12 Cu10 N8 S8)n'
_symmetry_cell_setting           triclinic
_symmetry_space_group_name_H-M   'P 1'
_symmetry_Int_Tables_number      1
_space_group_name_Hall           'P 1'
loop_
_symmetry_equiv_pos_site_id
_symmetry_equiv_pos_as_xyz
1 x,y,z
_cell_length_a                   6.8303(4)
_cell_length_b                   6.8330(4)
_cell_length_c                   16.4376(8)
_cell_angle_alpha                89.952(5)
_cell_angle_beta                 89.991(4)
_cell_angle_gamma                89.980(5)
_cell_volume                     767.166
loop_
_atom_site_label
_atom_site_type_symbol
_atom_site_fract_x
_atom_site_fract_y
_atom_site_fract_z
Cu2 Cu -0.0000 -0.0000 0.0000
S8 S 0.23568(13) 0.00037(15) 0.09678(6)
C14 C 0.0998(5) -0.0001(5) 0.3276(2)
H8 H 0.1664 0.0001 0.3770
Cu9 Cu 0.50004(6) 0.00019(6) 0.25003(3)
Cu2_2 Cu 0.0000 -0.0000 1.0000
N4 N 0.2038(4) 0.0008(4) 0.74330(18)
C3 C 0.1003(5) 0.0002(5) 0.6726(2)
H3 H 0.1671 -0.0001 0.6233
N10 N 0.4999(4) 0.2965(4) 0.75684(18)
N12 N 0.7964(4) 0.0002(4) 0.74322(18)
Cu2_3 Cu 0.0000 1.0000 0.0000
N7 N 0.2036(4) 0.9998(4) 0.25678(18)
C14_2 C 0.0998(5) 0.9999(5) 0.3276(2)
H8_2 H 0.1664 1.0001 0.3770
C16 C 0.1060(5) 0.9997(5) 0.1861(2)
Cu1 Cu 0.5000 0.5000 0.5000
Cu2_4 Cu 0.0000 1.0000 1.0000
Cu3 Cu 0.49996(6) 0.99981(6) 0.74997(3)
S1 S 0.23591(13) 0.99967(15) 0.90303(6)
S3 S 0.50029(14) 0.26423(13) 0.59678(6)
S4 S 0.49982(14) 0.73573(13) 0.59687(6)
N1 N 0.4992(4) 0.7035(4) 0.75670(18)
C1 C 0.4992(5) 0.3991(5) 0.8272(2)
H1 H 0.4978 0.3319 0.8765
C2 C 0.5006(5) 0.6012(5) 0.8276(2)
H2 H 0.5024 0.6679 0.8768
H3_2 H 0.1671 0.9999 0.6233
C5 C 0.1056(5) 0.9996(5) 0.8138(2)
C7 C 0.4996(5) 0.6056(5) 0.6860(2)
C8 C 0.5000(5) 0.3954(5) 0.6864(2)
S5 S 0.49971(14) 0.73577(13) 0.40322(6)
S6 S 0.50018(14) 0.26427(13) 0.40313(6)
N5 N 0.5008(4) 0.2965(4) 0.24330(18)
N6 N 0.5001(4) 0.7035(4) 0.24316(18)
C9 C 0.5008(5) 0.6009(5) 0.1728(2)
H5 H 0.5022 0.6681 0.1235
C10 C 0.4994(5) 0.3988(5) 0.1724(2)
H6 H 0.4976 0.3321 0.1232
C11 C 0.5004(5) 0.3944(5) 0.3140(2)
C12 C 0.5000(5) 0.6046(5) 0.3136(2)
Cu2_5 Cu 1.0000 -0.0000 0.0000
S7 S 0.76409(13) 0.00033(15) 0.09697(6)
H7 H 0.8329 0.0001 0.3767
C15 C 0.8944(5) 0.0004(5) 0.1862(2)
Cu2_6 Cu 1.0000 -0.0000 1.0000
C4 C 0.9002(5) 0.0001(5) 0.6724(2)
H4 H 0.8336 -0.0001 0.6230
C6 C 0.8940(5) 0.0003(5) 0.8139(2)
Cu2_7 Cu 1.0000 1.0000 0.0000
N8 N 0.7962(4) 0.9992(4) 0.25670(18)
C13 C 0.8997(5) 0.9998(5) 0.3274(2)
H7_2 H 0.8329 1.0001 0.3767
Cu2_8 Cu 1.0000 1.0000 1.0000
S2 S 0.76432(13) 0.99963(15) 0.90322(6)
C4_2 C 0.9002(5) 1.0001(5) 0.6724(2)
H4_2 H 0.8336 0.9999 0.6230
loop_
_geom_bond_atom_site_label_1
_geom_bond_atom_site_label_2
_geom_bond_site_symmetry_1
_geom_bond_site_symmetry_2
S8 Cu2 1_555 1_555
H8 C14 1_555 1_555
C3 N4 1_555 1_555
H3 C3 1_555 1_555
N7 C14_2 1_555 1_555
H8_2 C14_2 1_555 1_555
N7 C16 1_555 1_555
Cu1 S3 1_555 1_555
Cu2_4 S1 1_555 1_555
Cu3 N1 1_555 1_555
S1 C5 1_555 1_555
S3 C8 1_555 1_555
S4 Cu1 1_555 1_555
N1 C2 1_555 1_555
N10 C1 1_555 1_555
C1 H1 1_555 1_555
C2 C1 1_555 1_555
H2 C2 1_555 1_555
C7 S4 1_555 1_555
C8 N10 1_555 1_555
S5 Cu1 1_555 1_555
S6 Cu1 1_555 1_555
N5 C10 1_555 1_555
N6 C9 1_555 1_555
C9 H5 1_555 1_555
C10 C9 1_555 1_555
H6 C10 1_555 1_555
C11 S6 1_555 1_555
C12 S5 1_555 1_555
Cu9 N5 1_555 1_555
N1 C7 1_555 1_555
C7 C8 1_555 1_555
N5 C11 1_555 1_555
N6 C12 1_555 1_555
C11 C12 1_555 1_555
S7 Cu2_5 1_555 1_555
C15 S7 1_555 1_555
N12 C4 1_555 1_555
H4 C4 1_555 1_555
N12 C6 1_555 1_555
N8 C13 1_555 1_555
C13 H7_2 1_555 1_555
S2 Cu2_8 1_555 1_555
H4_2 C4_2 1_555 1_555

#END
