
###############################################################################
#
# This file contains modified crystal structure data generated from the
# MOF subset of the Cambridge Structural Database (CSD) v543 
# hosted by the Cambridge Crystallographic Data Centre (CCDC).
#
# This work is licensed under the Creative Commons
# Attribution-NonCommercial-ShareAlike 4.0 International License.
# To view a copy of this license, visit
# http://creativecommons.org/licenses/by-nc-sa/4.0/
# or send a letter to
# Creative Commons, PO Box 1866, Mountain View, CA 94042, USA.
#
# CIF created using the CSD Python API on 29 September 2022
# The structure has been converted into the P1 space group
# The structure has a 3D framework
# The original CSD entry WIJDAV is in the monoclinic crystal system
# The framework has been calculated to contain at least 10.0% void space
# The void calculation uses a probe of radius 1.32A, grid spacing 0.4
# The framework is charged, counterions have been retained in the structure
#
###############################################################################

data_WIJDAV
_chemical_formula_moiety         '(C56 H56 N22 O36 Zn12)n'
_symmetry_cell_setting           triclinic
_symmetry_space_group_name_H-M   'P 1'
_symmetry_Int_Tables_number      1
_space_group_name_Hall           'P 1'
loop_
_symmetry_equiv_pos_site_id
_symmetry_equiv_pos_as_xyz
1 x,y,z
_cell_length_a                   11.690(3)
_cell_length_b                   17.998(4)
_cell_length_c                   14.173(3)
_cell_angle_alpha                90
_cell_angle_beta                 111.013(5)
_cell_angle_gamma                90
_cell_volume                     2783.65
loop_
_atom_site_label
_atom_site_type_symbol
_atom_site_fract_x
_atom_site_fract_y
_atom_site_fract_z
O7 O 0.2080(4) 0.1505(3) 0.8583(4)
O8 O 0.0234(4) 0.1862(3) 0.8466(4)
C5 C 0.1025(6) 0.1362(4) 0.8556(5)
C6 C 0.0629(5) 0.0589(4) 0.8653(5)
Zn6 Zn 0.37185(7) 0.09419(4) 0.89412(6)
O1 O 0.1324(4) 0.7935(3) 0.0222(3)
H1 H 0.0875 0.7549 0.0160
Zn2 Zn 0.15094(7) 0.85514(4) 0.13875(6)
O10 O 0.2926(4) 0.9234(3) 0.1431(4)
N7 N 0.0515(5) 0.9469(3) 0.1307(4)
O12 O 0.2409(4) 0.7935(3) 0.2592(3)
Zn1 Zn 0.06341(7) 0.83342(4) 0.88666(6)
N1 N 0.0457(5) 0.7585(3) 0.7819(4)
C2 C 0.1200(6) 0.7284(4) 0.7393(6)
H2 H 0.1965 0.7478 0.7469
Zn3 Zn 0.12815(7) 0.59419(4) 0.60588(6)
O5 O 0.3092(4) 0.9928(3) 0.8568(4)
N3 N 0.0742(5) 0.6682(3) 0.6853(5)
N4 N 0.0657(5) 0.6114(3) 0.4531(4)
H3 H 0.0088 0.5756 0.4246
C7 C 0.1607(6) 0.6041(4) 0.4082(5)
H4 H 0.1983 0.5555 0.4248
H5 H 0.2238 0.6410 0.4382
C10 C 0.0030(7) 0.6843(4) 0.4217(7)
H7 H 0.0605 0.7240 0.4523
C11 C 0.1134(7) 0.6135(5) 0.2965(6)
H9 H 0.1808 0.6102 0.2720
H10 H 0.0560 0.5739 0.2653
N5 N 0.0524(6) 0.6852(4) 0.2681(6)
H13 H 0.0210 0.6888 0.2003
H14 H 0.1077 0.7218 0.2918
O9 O 0.2273(4) 0.8853(3) 0.8685(4)
N6 N 0.0249(5) 0.9402(3) 0.8787(4)
C13 C 0.2241(6) 0.9538(4) 0.8649(5)
C14 C 0.1108(6) 0.9882(3) 0.8712(5)
O11 O 0.1908(4) 0.4928(3) 0.6432(4)
O13 O 0.2920(4) 0.6505(3) 0.6417(4)
N2 N 0.9485(5) 0.0531(3) 0.8693(4)
Zn5 Zn 0.84906(7) 0.14486(4) 0.86125(6)
O14 O 0.9766(4) 0.8138(3) 0.1534(4)
O2 O 0.8709(4) 0.7912(3) 0.8499(4)
C1 C 0.9426(6) 0.7147(4) 0.7510(5)
O3 O 0.7926(4) 0.5766(3) 0.6431(4)
O4 O 0.9514(4) 0.5509(3) 0.5993(4)
O6 O 0.7409(4) 0.7065(3) 0.7592(3)
C3 C 0.8953(6) 0.5916(4) 0.6391(5)
C4 C 0.9618(5) 0.6586(4) 0.6903(5)
C8 C 0.8457(6) 0.7387(4) 0.7891(5)
C9 C 0.9301(6) 0.9814(4) 0.8772(5)
H6 H 0.8583 0.9619 0.8813
H8 H 0.9361 0.6881 0.4467
C12 C 0.9535(8) 0.6944(6) 0.3086(8)
H11 H 0.8895 0.6581 0.2780
H12 H 0.9180 0.7436 0.2920
Zn4 Zn 0.65094(7) 0.64486(4) 0.63875(6)
Zn1_2 Zn 0.43659(7) 0.33342(4) 0.61334(6)
N1_2 N 0.4543(5) 0.2585(3) 0.7181(4)
O1_2 O 0.3676(4) 0.2935(3) 0.4778(3)
H1_2 H 0.4125 0.2549 0.4840
O2_2 O 0.6291(4) 0.2912(3) 0.6501(4)
C1_2 C 0.5574(6) 0.2147(4) 0.7490(5)
C2_2 C 0.3800(6) 0.2284(4) 0.7607(6)
H2_2 H 0.3035 0.2478 0.7531
Zn2_2 Zn 0.34906(7) 0.35514(4) 0.36125(6)
O3_2 O 0.7074(4) 0.0766(3) 0.8569(4)
O4_2 O 0.5486(4) 0.0509(3) 0.9007(4)
N2_2 N 0.5515(5) 0.5531(3) 0.6307(4)
O6_2 O 0.7591(4) 0.2065(3) 0.7408(3)
O8_2 O 0.4766(4) 0.6862(3) 0.6534(4)
N3_2 N 0.4258(5) 0.1682(3) 0.8147(5)
C3_2 C 0.6047(6) 0.0916(4) 0.8609(5)
C4_2 C 0.5382(5) 0.1586(4) 0.8097(5)
C5_2 C 0.3975(6) 0.6362(4) 0.6444(5)
C6_2 C 0.4371(5) 0.5589(4) 0.6347(5)
C8_2 C 0.6543(6) 0.2387(4) 0.7109(5)
C9_2 C 0.5699(6) 0.4814(4) 0.6228(5)
H6_2 H 0.6417 0.4619 0.6187
O9_2 O 0.2727(4) 0.3853(3) 0.6315(4)
N6_2 N 0.4751(5) 0.4402(3) 0.6213(4)
C13_2 C 0.2759(6) 0.4538(4) 0.6351(5)
C14_2 C 0.3892(6) 0.4882(3) 0.6288(5)
O10_2 O 0.2074(4) 0.4234(3) 0.3569(4)
N7_2 N 0.4485(5) 0.4469(3) 0.3693(4)
O12_2 O 0.2591(4) 0.2935(3) 0.2408(3)
O14_2 O 0.5234(4) 0.3138(3) 0.3466(4)
O2_3 O 0.1291(4) 0.2088(3) 0.1501(4)
C1_3 C 0.0574(6) 0.2853(4) 0.2490(5)
O4_3 O 0.0486(4) 0.4491(3) 0.4007(4)
C3_3 C 0.1047(6) 0.4084(4) 0.3609(5)
C4_3 C 0.0382(5) 0.3414(4) 0.3097(5)
C8_3 C 0.1543(6) 0.2613(4) 0.2109(5)
C9_3 C 0.0699(6) 0.0186(4) 0.1228(5)
H6_3 H 0.1417 0.0381 0.1187
H8_2 H 0.0639 0.3119 0.5533
C12_2 C 0.0465(8) 0.3056(6) 0.6914(8)
H11_2 H 0.1105 0.3419 0.7220
H12_2 H 0.0820 0.2564 0.7080
Zn1_3 Zn 0.93659(7) 0.16658(4) 0.11334(6)
N1_3 N 0.9543(5) 0.2415(3) 0.2181(4)
C2_3 C 0.8800(6) 0.2716(4) 0.2607(6)
H2_3 H 0.8035 0.2522 0.2531
Zn3_2 Zn 0.87185(7) 0.40581(4) 0.39412(6)
O5_2 O 0.6908(4) 0.0072(3) 0.1432(4)
N3_3 N 0.9258(5) 0.3318(3) 0.3147(5)
N4_2 N 0.9343(5) 0.3886(3) 0.5469(4)
H3_2 H 0.9912 0.4244 0.5754
C7_2 C 0.8393(6) 0.3959(4) 0.5918(5)
H4_2 H 0.8017 0.4445 0.5752
H5_2 H 0.7762 0.3590 0.5618
C10_2 C 0.9970(7) 0.3157(4) 0.5783(7)
H7_2 H 0.9395 0.2760 0.5477
C11_2 C 0.8866(7) 0.3865(5) 0.7035(6)
H9_2 H 0.8192 0.3898 0.7280
H10_2 H 0.9440 0.4261 0.7347
N5_2 N 0.9476(6) 0.3148(4) 0.7319(6)
H13_2 H 0.9790 0.3112 0.7997
H14_2 H 0.8923 0.2782 0.7082
O9_3 O 0.7727(4) 0.1147(3) 0.1315(4)
N6_3 N 0.9751(5) 0.0598(3) 0.1213(4)
C13_3 C 0.7759(6) 0.0462(4) 0.1351(5)
C14_3 C 0.8892(6) 0.0118(3) 0.1288(5)
O11_2 O 0.8092(4) 0.5072(3) 0.3568(4)
O13_2 O 0.7080(4) 0.3495(3) 0.3583(4)
O1_3 O 0.8676(4) 0.2065(3) 0.9778(3)
H1_3 H 0.9125 0.2451 0.9840
O7_2 O 0.7920(4) 0.8495(3) 0.1417(4)
C5_3 C 0.8975(6) 0.8638(4) 0.1444(5)
C6_3 C 0.9371(5) 0.9411(4) 0.1347(5)
Zn6_2 Zn 0.62815(7) 0.90581(4) 0.10588(6)
Zn1_4 Zn 0.56341(7) 0.66658(4) 0.38666(6)
N1_4 N 0.5457(5) 0.7415(3) 0.2819(4)
O1_4 O 0.6324(4) 0.7065(3) 0.5222(3)
H1_4 H 0.5875 0.7451 0.5160
O2_4 O 0.3709(4) 0.7088(3) 0.3499(4)
C1_4 C 0.4426(6) 0.7853(4) 0.2510(5)
C2_4 C 0.6200(6) 0.7716(4) 0.2393(6)
H2_4 H 0.6965 0.7522 0.2469
O4_4 O 0.4514(4) 0.9491(3) 0.0993(4)
N3_4 N 0.5742(5) 0.8318(3) 0.1853(5)
C3_4 C 0.3953(6) 0.9084(4) 0.1391(5)
C4_4 C 0.4618(5) 0.8414(4) 0.1903(5)
C5_4 C 0.6025(6) 0.3638(4) 0.3556(5)
C6_4 C 0.5629(5) 0.4411(4) 0.3653(5)
C8_4 C 0.3457(6) 0.7613(4) 0.2891(5)
C9_4 C 0.4301(6) 0.5186(4) 0.3772(5)
H6_4 H 0.3583 0.5381 0.3813
O9_4 O 0.7273(4) 0.6147(3) 0.3685(4)
N6_4 N 0.5249(5) 0.5598(3) 0.3787(4)
C13_4 C 0.7241(6) 0.5462(4) 0.3649(5)
C14_4 C 0.6108(6) 0.5118(3) 0.3712(5)
N4_3 N 0.4343(5) 0.1114(3) 0.0469(4)
H3_3 H 0.4912 0.0756 0.0754
C7_3 C 0.3393(6) 0.1041(4) 0.0918(5)
H4_3 H 0.3017 0.0555 0.0752
H5_3 H 0.2762 0.1410 0.0618
C10_3 C 0.4970(7) 0.1843(4) 0.0783(7)
H7_3 H 0.4395 0.2240 0.0477
H8_3 H 0.5639 0.1881 0.0533
C11_3 C 0.3866(7) 0.1135(5) 0.2035(6)
H9_3 H 0.3192 0.1102 0.2280
H10_3 H 0.4440 0.0739 0.2347
C12_3 C 0.5465(8) 0.1944(6) 0.1914(8)
H11_3 H 0.6105 0.1581 0.2220
H12_3 H 0.5820 0.2436 0.2080
N5_3 N 0.4476(6) 0.1852(4) 0.2319(6)
H13_3 H 0.4790 0.1888 0.2997
H14_3 H 0.3923 0.2218 0.2082
N4_4 N 0.5657(5) 0.8886(3) 0.9531(4)
H3_4 H 0.5088 0.9244 0.9246
C7_4 C 0.6607(6) 0.8959(4) 0.9082(5)
H4_4 H 0.6983 0.9445 0.9248
H5_4 H 0.7238 0.8590 0.9382
C10_4 C 0.5030(7) 0.8157(4) 0.9217(7)
H7_4 H 0.5605 0.7760 0.9523
H8_4 H 0.4361 0.8119 0.9467
C11_4 C 0.6134(7) 0.8865(5) 0.7965(6)
H9_4 H 0.6808 0.8898 0.7720
H10_4 H 0.5560 0.9261 0.7653
C12_4 C 0.4535(8) 0.8056(6) 0.8086(8)
H11_4 H 0.3895 0.8419 0.7780
H12_4 H 0.4180 0.7564 0.7920
N5_4 N 0.5524(6) 0.8148(4) 0.7681(6)
H13_4 H 0.5210 0.8112 0.7003
H14_4 H 0.6077 0.7782 0.7918
loop_
_geom_bond_atom_site_label_1
_geom_bond_atom_site_label_2
_geom_bond_site_symmetry_1
_geom_bond_site_symmetry_2
O7 C5 1_555 1_555
O8 C5 1_555 1_555
C5 C6 1_555 1_555
O7 Zn6 1_555 1_555
H1 O1 1_555 1_555
Zn2 O1 1_555 1_555
O10 Zn2 1_555 1_555
N7 Zn2 1_555 1_555
O12 Zn2 1_555 1_555
Zn1 N1 1_555 1_555
C2 N1 1_555 1_555
H2 C2 1_555 1_555
O5 C13 1_555 1_555
N3 C2 1_555 1_555
N4 Zn3 1_555 1_555
H3 N4 1_555 1_555
C7 N4 1_555 1_555
H4 C7 1_555 1_555
H5 C7 1_555 1_555
C10 N4 1_555 1_555
H7 C10 1_555 1_555
C11 C7 1_555 1_555
H9 C11 1_555 1_555
H10 C11 1_555 1_555
N5 C11 1_555 1_555
H13 N5 1_555 1_555
H14 N5 1_555 1_555
O9 Zn1 1_555 1_555
N6 Zn1 1_555 1_555
C13 O9 1_555 1_555
C14 N6 1_555 1_555
O11 Zn3 1_555 1_555
O13 Zn3 1_555 1_555
Zn3 N3 1_555 1_555
C13 C14 1_555 1_555
Zn5 N2 1_555 1_555
C1 C4 1_555 1_555
O3 C3 1_555 1_555
O4 C3 1_555 1_555
O6 C8 1_555 1_555
C3 C4 1_555 1_555
C8 O2 1_555 1_555
H6 C9 1_555 1_555
H11 C12 1_555 1_555
H12 C12 1_555 1_555
Zn4 O3 1_555 1_555
C1 C8 1_555 1_555
O6 Zn4 1_555 1_555
Zn1_2 N1_2 1_555 1_555
N1_2 C1_2 1_555 1_555
O1_2 Zn1_2 1_555 1_555
H1_2 O1_2 1_555 1_555
O2_2 Zn1_2 1_555 1_555
C1_2 C4_2 1_555 1_555
C2_2 N1_2 1_555 1_555
H2_2 C2_2 1_555 1_555
Zn2_2 O1_2 1_555 1_555
Zn6 O4_2 1_555 1_555
O3_2 C3_2 1_555 1_555
O4_2 C3_2 1_555 1_555
O11 C13_2 1_555 1_555
N2_2 C6_2 1_555 1_555
O6_2 C8_2 1_555 1_555
O13 C5_2 1_555 1_555
O8_2 C5_2 1_555 1_555
N3_2 C2_2 1_555 1_555
C3_2 C4_2 1_555 1_555
C4_2 N3_2 1_555 1_555
C5_2 C6_2 1_555 1_555
C6_2 C14_2 1_555 1_555
C8_2 O2_2 1_555 1_555
C9_2 N2_2 1_555 1_555
H6_2 C9_2 1_555 1_555
O9_2 Zn1_2 1_555 1_555
N6_2 Zn1_2 1_555 1_555
C13_2 O9_2 1_555 1_555
C14_2 N6_2 1_555 1_555
Zn5 O3_2 1_555 1_555
Zn4 N2_2 1_555 1_555
O10_2 Zn2_2 1_555 1_555
N7_2 Zn2_2 1_555 1_555
O12_2 Zn2_2 1_555 1_555
O14_2 Zn2_2 1_555 1_555
C1_2 C8_2 1_555 1_555
Zn6 N3_2 1_555 1_555
O6_2 Zn5 1_555 1_555
O8_2 Zn4 1_555 1_555
C9_2 N6_2 1_555 1_555
C13_2 C14_2 1_555 1_555
C1_3 C4_3 1_555 1_555
O10_2 C3_3 1_555 1_555
O4_3 C3_3 1_555 1_555
O12_2 C8_3 1_555 1_555
C3_3 C4_3 1_555 1_555
C8_3 O2_3 1_555 1_555
H6_3 C9_3 1_555 1_555
H11_2 C12_2 1_555 1_555
H12_2 C12_2 1_555 1_555
C1_3 C8_3 1_555 1_555
Zn1_3 N1_3 1_555 1_555
C2_3 N1_3 1_555 1_555
H2_3 C2_3 1_555 1_555
O5_2 C13_3 1_555 1_555
N3_3 C2_3 1_555 1_555
N4_2 Zn3_2 1_555 1_555
H3_2 N4_2 1_555 1_555
C7_2 N4_2 1_555 1_555
H4_2 C7_2 1_555 1_555
H5_2 C7_2 1_555 1_555
C10_2 N4_2 1_555 1_555
H7_2 C10_2 1_555 1_555
C11_2 C7_2 1_555 1_555
H9_2 C11_2 1_555 1_555
H10_2 C11_2 1_555 1_555
N5_2 C11_2 1_555 1_555
H13_2 N5_2 1_555 1_555
H14_2 N5_2 1_555 1_555
O9_3 Zn1_3 1_555 1_555
N6_3 Zn1_3 1_555 1_555
C13_3 O9_3 1_555 1_555
C14_3 N6_3 1_555 1_555
O11_2 Zn3_2 1_555 1_555
O13_2 Zn3_2 1_555 1_555
Zn3_2 N3_3 1_555 1_555
C13_3 C14_3 1_555 1_555
H1_3 O1_3 1_555 1_555
Zn5 O1_3 1_555 1_555
O7_2 C5_3 1_555 1_555
O14 C5_3 1_555 1_555
C5_3 C6_3 1_555 1_555
O7_2 Zn6_2 1_555 1_555
Zn1_4 N1_4 1_555 1_555
N1_4 C1_4 1_555 1_555
O1_4 Zn1_4 1_555 1_555
H1_4 O1_4 1_555 1_555
O2_4 Zn1_4 1_555 1_555
C1_4 C4_4 1_555 1_555
C2_4 N1_4 1_555 1_555
H2_4 C2_4 1_555 1_555
Zn4 O1_4 1_555 1_555
Zn6_2 O4_4 1_555 1_555
O10 C3_4 1_555 1_555
O4_4 C3_4 1_555 1_555
O11_2 C13_4 1_555 1_555
N7_2 C6_4 1_555 1_555
O12 C8_4 1_555 1_555
O13_2 C5_4 1_555 1_555
O14_2 C5_4 1_555 1_555
N3_4 C2_4 1_555 1_555
C3_4 C4_4 1_555 1_555
C4_4 N3_4 1_555 1_555
C5_4 C6_4 1_555 1_555
C6_4 C14_4 1_555 1_555
C8_4 O2_4 1_555 1_555
C9_4 N7_2 1_555 1_555
H6_4 C9_4 1_555 1_555
O9_4 Zn1_4 1_555 1_555
N6_4 Zn1_4 1_555 1_555
C13_4 O9_4 1_555 1_555
C14_4 N6_4 1_555 1_555
C1_4 C8_4 1_555 1_555
Zn6_2 N3_4 1_555 1_555
C9_4 N6_4 1_555 1_555
C13_4 C14_4 1_555 1_555
H3_3 N4_3 1_555 1_555
C7_3 N4_3 1_555 1_555
H4_3 C7_3 1_555 1_555
H5_3 C7_3 1_555 1_555
C10_3 N4_3 1_555 1_555
H7_3 C10_3 1_555 1_555
H8_3 C10_3 1_555 1_555
C11_3 C7_3 1_555 1_555
H9_3 C11_3 1_555 1_555
H10_3 C11_3 1_555 1_555
C12_3 C10_3 1_555 1_555
H11_3 C12_3 1_555 1_555
H12_3 C12_3 1_555 1_555
N5_3 C11_3 1_555 1_555
H13_3 N5_3 1_555 1_555
H14_3 N5_3 1_555 1_555
C12_3 N5_3 1_555 1_555
H3_4 N4_4 1_555 1_555
C7_4 N4_4 1_555 1_555
H4_4 C7_4 1_555 1_555
H5_4 C7_4 1_555 1_555
C10_4 N4_4 1_555 1_555
H7_4 C10_4 1_555 1_555
H8_4 C10_4 1_555 1_555
C11_4 C7_4 1_555 1_555
H9_4 C11_4 1_555 1_555
H10_4 C11_4 1_555 1_555
C12_4 C10_4 1_555 1_555
H11_4 C12_4 1_555 1_555
H12_4 C12_4 1_555 1_555
N5_4 C11_4 1_555 1_555
H13_4 N5_4 1_555 1_555
H14_4 N5_4 1_555 1_555
C12_4 N5_4 1_555 1_555

#END
