
###############################################################################
#
# This file contains modified crystal structure data generated from the
# MOF subset of the Cambridge Structural Database (CSD) v543 
# hosted by the Cambridge Crystallographic Data Centre (CCDC).
#
# This work is licensed under the Creative Commons
# Attribution-NonCommercial-ShareAlike 4.0 International License.
# To view a copy of this license, visit
# http://creativecommons.org/licenses/by-nc-sa/4.0/
# or send a letter to
# Creative Commons, PO Box 1866, Mountain View, CA 94042, USA.
#
# CIF created using the CSD Python API on 29 September 2022
# The structure has been converted into the P1 space group
# The structure has a 3D framework
# The original CSD entry WIKHAC is in the hexagonal crystal system
# The original CSD entry WIKHAC is in a Sohncke space group
# The framework has been calculated to contain at least 10.0% void space
# The void calculation uses a probe of radius 1.32A, grid spacing 0.4
#
###############################################################################

data_WIKHAC
_chemical_formula_moiety         '(C60 H84 O26 Zn5)n'
_symmetry_cell_setting           triclinic
_symmetry_space_group_name_H-M   'P 1'
_symmetry_Int_Tables_number      1
_space_group_name_Hall           'P 1'
loop_
_symmetry_equiv_pos_site_id
_symmetry_equiv_pos_as_xyz
1 x,y,z
_cell_length_a                   16.3036(7)
_cell_length_b                   16.3036(7)
_cell_length_c                   9.2767(4)
_cell_angle_alpha                90
_cell_angle_beta                 90
_cell_angle_gamma                120
_cell_volume                     2135.46
loop_
_atom_site_label
_atom_site_type_symbol
_atom_site_fract_x
_atom_site_fract_y
_atom_site_fract_z
C18 C 0.0082(3) 0.6329(5) 0.0379(5)
H26 H 0.0323 0.6994 0.0246
H28 H 0.0592 0.6222 0.0629
O8 O 0.19378(15) 0.72034(22) 0.8445(3)
O9 O 0.13971(17) 0.56442(23) 0.8287(3)
C13 C 0.0333(2) 0.6186(3) 0.7700(4)
H15 H 0.0102 0.5698 0.6950
C14 C 0.0306(2) 0.7041(4) 0.7084(6)
H16 H 0.0296 0.7020 0.6039
H17 H 0.0858 0.7625 0.7392
C20 C 0.1308(2) 0.6370(3) 0.8167(4)
Zn6 Zn 0.31585(2) 0.77094(2) 0.94000(5)
Zn8 Zn 0.22906(2) 0.54491(3) 0.94000(5)
Zn1 Zn 0.68415(2) 0.22906(2) 0.44000(5)
Zn2 Zn 0.66667 0.33333 0.71104(7)
O1 O 0.68574(17) 0.15468(16) 0.6069(3)
O2 O 0.71874(18) 0.25858(17) 0.7861(3)
O5 O 0.66667 0.33333 0.5021(4)
C1 C 0.7193(3) 0.1170(2) 0.8446(5)
C2 C 0.6184(3) 0.0387(2) 0.8967(3)
C5 C 0.7588(3) 0.0603(3) 0.7664(6)
H4 H 0.7998 0.0972 0.6877
H5 H 0.7950 0.0448 0.8328
C6 C 0.7842(4) 0.1788(3) 0.9659(6)
H7 H 0.8447 0.2241 0.9265
C7 C 0.5502(3) 0.0762(3) 0.9222(6)
H9 H 0.5452 0.1058 0.8357
H10 H 0.4890 0.0247 0.9479
H11 H 0.5739 0.1219 0.9989
C9 C 0.7072(2) 0.1810(2) 0.7357(4)
Zn3 Zn 0.77094(2) 0.45509(3) 0.44000(5)
O6 O 0.84532(16) 0.53106(23) 0.6069(3)
O7 O 0.74142(17) 0.46016(25) 0.7861(3)
C11 C 0.8830(2) 0.6023(4) 0.8446(5)
C12 C 0.9613(2) 0.5797(4) 0.8967(3)
C15 C 0.9397(3) 0.6985(4) 0.7664(6)
H18 H 0.9028 0.7026 0.6877
H19 H 0.9552 0.7502 0.8328
C16 C 0.8212(3) 0.6054(5) 0.9659(6)
H21 H 0.7759 0.6206 0.9265
C17 C 0.9238(3) 0.4740(4) 0.9222(6)
H23 H 0.8942 0.4394 0.8357
H24 H 0.9753 0.4643 0.9479
H25 H 0.8781 0.4520 0.9989
C19 C 0.8190(2) 0.5262(3) 0.7357(4)
Zn4 Zn 0.54491(3) 0.31585(2) 0.44000(5)
O10 O 0.46894(23) 0.31426(17) 0.6069(3)
O11 O 0.53984(25) 0.28126(18) 0.7861(3)
O12 O 0.27966(22) 0.47344(16) 0.8445(3)
O13 O 0.43558(23) 0.57529(16) 0.8287(3)
C21 C 0.3977(4) 0.2807(3) 0.8446(5)
C22 C 0.4203(4) 0.3816(3) 0.8967(3)
C23 C 0.3814(3) 0.4147(2) 0.7700(4)
H29 H 0.4302 0.4404 0.6950
C24 C 0.2959(4) 0.3265(3) 0.7084(6)
H30 H 0.2980 0.3276 0.6039
H31 H 0.2375 0.3233 0.7392
C25 C 0.3015(4) 0.2412(3) 0.7664(6)
H32 H 0.2974 0.2002 0.6877
H33 H 0.2498 0.2050 0.8328
C26 C 0.3946(5) 0.2158(4) 0.9659(6)
H35 H 0.3794 0.1553 0.9265
C27 C 0.5260(4) 0.4498(3) 0.9222(6)
H37 H 0.5606 0.4548 0.8357
H38 H 0.5357 0.5110 0.9479
H39 H 0.5480 0.4261 0.9989
C29 C 0.4738(3) 0.2928(2) 0.7357(4)
C30 C 0.3630(3) 0.4938(2) 0.8167(4)
Zn10 Zn 0.45509(3) 0.68415(2) 0.94000(5)
O14 O 0.47344(16) 0.19378(15) 0.3445(3)
O15 O 0.80622(15) 0.27966(22) 0.3445(3)
O16 O 0.72034(22) 0.52656(16) 0.3445(3)
O17 O 0.57529(16) 0.13971(17) 0.3287(3)
O18 O 0.86029(17) 0.43558(23) 0.3287(3)
O19 O 0.56442(23) 0.42471(16) 0.3287(3)
O3 O 0.52656(16) 0.80622(15) 0.8445(3)
O4 O 0.42471(16) 0.86029(17) 0.8287(3)
C3 C 0.5853(2) 0.9667(2) 0.7700(4)
H1 H 0.5596 0.9898 0.6950
C4 C 0.6735(3) 0.9694(2) 0.7084(6)
H2 H 0.6724 0.9704 0.6039
H3 H 0.6767 0.9142 0.7392
C10 C 0.5062(2) 0.8692(2) 0.8167(4)
C3_2 C 0.4147(2) 0.0333(2) 0.2700(4)
H1_2 H 0.4404 0.0102 0.1950
C4_2 C 0.3265(3) 0.0306(2) 0.2084(6)
H2_2 H 0.3276 0.0296 0.1039
H3_2 H 0.3233 0.0858 0.2392
C8 C 0.3753(4) 0.0082(3) 0.5379(5)
H12 H 0.3329 0.0323 0.5246
H14 H 0.4370 0.0592 0.5629
C10_2 C 0.4938(2) 0.1308(2) 0.3167(4)
Zn2_2 Zn 0.33333 0.66667 0.21104(7)
O1_2 O 0.31426(17) 0.84532(16) 0.1069(3)
O2_2 O 0.28126(18) 0.74142(17) 0.2861(3)
O5_2 O 0.33333 0.66667 0.0021(4)
C1_2 C 0.2807(3) 0.8830(2) 0.3446(5)
C2_2 C 0.3816(3) 0.9613(2) 0.3967(3)
C5_2 C 0.2412(3) 0.9397(3) 0.2664(6)
H4_2 H 0.2002 0.9028 0.1877
H5_2 H 0.2050 0.9552 0.3328
C6_2 C 0.2158(4) 0.8212(3) 0.4659(6)
H6 H 0.2075 0.8603 0.5349
H7_2 H 0.1553 0.7759 0.4265
H8 H 0.2437 0.7884 0.5124
C7_2 C 0.4498(3) 0.9238(3) 0.4222(6)
H9_2 H 0.4548 0.8942 0.3357
H10_2 H 0.5110 0.9753 0.4479
H11_2 H 0.4261 0.8781 0.4989
H13 H 0.3521 0.9621 0.6139
C9_2 C 0.2928(2) 0.8190(2) 0.2357(4)
O6_2 O 0.15468(16) 0.46894(23) 0.1069(3)
O7_2 O 0.25858(17) 0.53984(25) 0.2861(3)
C11_2 C 0.1170(2) 0.3977(4) 0.3446(5)
C12_2 C 0.0387(2) 0.4203(4) 0.3967(3)
C15_2 C 0.0603(3) 0.3015(4) 0.2664(6)
H18_2 H 0.0972 0.2974 0.1877
H19_2 H 0.0448 0.2498 0.3328
C16_2 C 0.1788(3) 0.3946(5) 0.4659(6)
H20 H 0.1397 0.3472 0.5349
H21_2 H 0.2241 0.3794 0.4265
H22 H 0.2116 0.4553 0.5124
C17_2 C 0.0762(3) 0.5260(4) 0.4222(6)
H23_2 H 0.1058 0.5606 0.3357
H24_2 H 0.0247 0.5357 0.4479
H25_2 H 0.1219 0.5480 0.4989
H27 H 0.0379 0.3900 0.6139
C19_2 C 0.1810(2) 0.4738(3) 0.2357(4)
O10_2 O 0.53106(23) 0.68574(17) 0.1069(3)
O11_2 O 0.46016(25) 0.71874(18) 0.2861(3)
C21_2 C 0.6023(4) 0.7193(3) 0.3446(5)
C22_2 C 0.5797(4) 0.6184(3) 0.3967(3)
C23_2 C 0.6186(3) 0.5853(2) 0.2700(4)
H29_2 H 0.5698 0.5596 0.1950
C24_2 C 0.7041(4) 0.6735(3) 0.2084(6)
H30_2 H 0.7020 0.6724 0.1039
H31_2 H 0.7625 0.6767 0.2392
C25_2 C 0.6985(4) 0.7588(3) 0.2664(6)
H32_2 H 0.7026 0.7998 0.1877
H33_2 H 0.7502 0.7950 0.3328
C26_2 C 0.6054(5) 0.7842(4) 0.4659(6)
H34 H 0.6528 0.7925 0.5349
H35_2 H 0.6206 0.8447 0.4265
H36 H 0.5447 0.7563 0.5124
C27_2 C 0.4740(4) 0.5502(3) 0.4222(6)
H37_2 H 0.4394 0.5452 0.3357
H38_2 H 0.4643 0.4890 0.4479
H39_2 H 0.4520 0.5739 0.4989
C28 C 0.6329(5) 0.6247(4) 0.5379(5)
H40 H 0.6994 0.6671 0.5246
H41 H 0.6100 0.6479 0.6139
H42 H 0.6222 0.5630 0.5629
C29_2 C 0.5262(3) 0.7072(2) 0.2357(4)
C30_2 C 0.6370(3) 0.5062(2) 0.3167(4)
C13_2 C 0.9667(2) 0.3814(3) 0.2700(4)
H15_2 H 0.9898 0.4302 0.1950
C14_2 C 0.9694(2) 0.2959(4) 0.2084(6)
H16_2 H 0.9704 0.2980 0.1039
H17_2 H 0.9142 0.2375 0.2392
C18_2 C 0.9918(3) 0.3671(5) 0.5379(5)
H26_2 H 0.9677 0.3006 0.5246
H28_2 H 0.9408 0.3778 0.5629
C20_2 C 0.8692(2) 0.3630(3) 0.3167(4)
H6_2 H 0.7925 0.1397 0.0349
H8_2 H 0.7563 0.2116 0.0124
H13_2 H 0.6479 0.0379 0.1139
H20_2 H 0.8603 0.6528 0.0349
H22_2 H 0.7884 0.5447 0.0124
H27_2 H 0.9621 0.6100 0.1139
H34_2 H 0.3472 0.2075 0.0349
H36_2 H 0.4553 0.2437 0.0124
C28_2 C 0.3671(5) 0.3753(4) 0.0379(5)
H40_2 H 0.3006 0.3329 0.0246
H41_2 H 0.3900 0.3521 0.1139
H42_2 H 0.3778 0.4370 0.0629
C8_2 C 0.6247(4) 0.9918(3) 0.0379(5)
H12_2 H 0.6671 0.9677 0.0246
H14_2 H 0.5630 0.9408 0.0629
loop_
_geom_bond_atom_site_label_1
_geom_bond_atom_site_label_2
_geom_bond_site_symmetry_1
_geom_bond_site_symmetry_2
H26 C18 1_555 1_555
H28 C18 1_555 1_555
O8 C20 1_555 1_555
O9 C20 1_555 1_555
C13 H15 1_555 1_555
C14 C13 1_555 1_555
H16 C14 1_555 1_555
H17 C14 1_555 1_555
C20 C13 1_555 1_555
Zn6 O8 1_555 1_555
Zn8 O9 1_555 1_555
Zn1 O1 1_555 1_555
Zn2 O2 1_555 1_555
O1 C9 1_555 1_555
O2 C9 1_555 1_555
O5 Zn1 1_555 1_555
C1 C2 1_555 1_555
C5 C1 1_555 1_555
H4 C5 1_555 1_555
H5 C5 1_555 1_555
C6 C1 1_555 1_555
H7 C6 1_555 1_555
C7 C2 1_555 1_555
H9 C7 1_555 1_555
H10 C7 1_555 1_555
H11 C7 1_555 1_555
C9 C1 1_555 1_555
Zn3 O5 1_555 1_555
O6 Zn3 1_555 1_555
O7 Zn2 1_555 1_555
C11 C12 1_555 1_555
C15 C11 1_555 1_555
H18 C15 1_555 1_555
H19 C15 1_555 1_555
C16 C11 1_555 1_555
H21 C16 1_555 1_555
C17 C12 1_555 1_555
H23 C17 1_555 1_555
H24 C17 1_555 1_555
H25 C17 1_555 1_555
C19 O6 1_555 1_555
Zn4 O5 1_555 1_555
O10 Zn4 1_555 1_555
O11 Zn2 1_555 1_555
O12 C30 1_555 1_555
O13 C30 1_555 1_555
C21 C22 1_555 1_555
C22 C23 1_555 1_555
C23 H29 1_555 1_555
C24 C23 1_555 1_555
H30 C24 1_555 1_555
H31 C24 1_555 1_555
C25 C21 1_555 1_555
H32 C25 1_555 1_555
H33 C25 1_555 1_555
C26 C21 1_555 1_555
H35 C26 1_555 1_555
C27 C22 1_555 1_555
H37 C27 1_555 1_555
H38 C27 1_555 1_555
H39 C27 1_555 1_555
C29 O10 1_555 1_555
C30 C23 1_555 1_555
Zn8 O12 1_555 1_555
Zn10 O13 1_555 1_555
O14 Zn4 1_555 1_555
O15 Zn1 1_555 1_555
O16 Zn3 1_555 1_555
O17 Zn1 1_555 1_555
O18 Zn3 1_555 1_555
O19 Zn4 1_555 1_555
Zn2 O5 1_555 1_555
O7 C19 1_555 1_555
C11 C19 1_555 1_555
O11 C29 1_555 1_555
C21 C29 1_555 1_555
C24 C25 1_555 1_555
O3 C10 1_555 1_555
O4 C10 1_555 1_555
C3 H1 1_555 1_555
C4 C3 1_555 1_555
H2 C4 1_555 1_555
H3 C4 1_555 1_555
C10 C3 1_555 1_555
Zn6 O4 1_555 1_555
Zn10 O3 1_555 1_555
O14 C10_2 1_555 1_555
O17 C10_2 1_555 1_555
C3_2 H1_2 1_555 1_555
C4_2 C3_2 1_555 1_555
H2_2 C4_2 1_555 1_555
H3_2 C4_2 1_555 1_555
H12 C8 1_555 1_555
H14 C8 1_555 1_555
C10_2 C3_2 1_555 1_555
Zn2_2 O2_2 1_555 1_555
O1_2 C9_2 1_555 1_555
O2_2 C9_2 1_555 1_555
C1_2 C2_2 1_555 1_555
C5_2 C1_2 1_555 1_555
H4_2 C5_2 1_555 1_555
H5_2 C5_2 1_555 1_555
C6_2 C1_2 1_555 1_555
H6 C6_2 1_555 1_555
H7_2 C6_2 1_555 1_555
H8 C6_2 1_555 1_555
C7_2 C2_2 1_555 1_555
H9_2 C7_2 1_555 1_555
H10_2 C7_2 1_555 1_555
H11_2 C7_2 1_555 1_555
C9_2 C1_2 1_555 1_555
O7_2 Zn2_2 1_555 1_555
C11_2 C12_2 1_555 1_555
C15_2 C11_2 1_555 1_555
H18_2 C15_2 1_555 1_555
H19_2 C15_2 1_555 1_555
C16_2 C11_2 1_555 1_555
H20 C16_2 1_555 1_555
H21_2 C16_2 1_555 1_555
H22 C16_2 1_555 1_555
C17_2 C12_2 1_555 1_555
H23_2 C17_2 1_555 1_555
H24_2 C17_2 1_555 1_555
H25_2 C17_2 1_555 1_555
C19_2 O6_2 1_555 1_555
O11_2 Zn2_2 1_555 1_555
O16 C30_2 1_555 1_555
O19 C30_2 1_555 1_555
C21_2 C22_2 1_555 1_555
C22_2 C23_2 1_555 1_555
C23_2 H29_2 1_555 1_555
C24_2 C23_2 1_555 1_555
H30_2 C24_2 1_555 1_555
H31_2 C24_2 1_555 1_555
C25_2 C21_2 1_555 1_555
H32_2 C25_2 1_555 1_555
H33_2 C25_2 1_555 1_555
C26_2 C21_2 1_555 1_555
H34 C26_2 1_555 1_555
H35_2 C26_2 1_555 1_555
H36 C26_2 1_555 1_555
C27_2 C22_2 1_555 1_555
H37_2 C27_2 1_555 1_555
H38_2 C27_2 1_555 1_555
H39_2 C27_2 1_555 1_555
C28 C22_2 1_555 1_555
H40 C28 1_555 1_555
H41 C28 1_555 1_555
H42 C28 1_555 1_555
C29_2 O10_2 1_555 1_555
C30_2 C23_2 1_555 1_555
Zn2_2 O5_2 1_555 1_555
O7_2 C19_2 1_555 1_555
C11_2 C19_2 1_555 1_555
O11_2 C29_2 1_555 1_555
C21_2 C29_2 1_555 1_555
C24_2 C25_2 1_555 1_555
O15 C20_2 1_555 1_555
O18 C20_2 1_555 1_555
C13_2 H15_2 1_555 1_555
C14_2 C13_2 1_555 1_555
H16_2 C14_2 1_555 1_555
H17_2 C14_2 1_555 1_555
H26_2 C18_2 1_555 1_555
H28_2 C18_2 1_555 1_555
C20_2 C13_2 1_555 1_555
H40_2 C28_2 1_555 1_555
H41_2 C28_2 1_555 1_555
H42_2 C28_2 1_555 1_555
H12_2 C8_2 1_555 1_555
H14_2 C8_2 1_555 1_555

#END
