
###############################################################################
#
# This file contains modified crystal structure data generated from the
# MOF subset of the Cambridge Structural Database (CSD) v543 
# hosted by the Cambridge Crystallographic Data Centre (CCDC).
#
# This work is licensed under the Creative Commons
# Attribution-NonCommercial-ShareAlike 4.0 International License.
# To view a copy of this license, visit
# http://creativecommons.org/licenses/by-nc-sa/4.0/
# or send a letter to
# Creative Commons, PO Box 1866, Mountain View, CA 94042, USA.
#
# CIF created using the CSD Python API on 29 September 2022
# The structure has been converted into the P1 space group
# The structure has a 3D framework
# The original CSD entry WILFIG is in the cubic crystal system
# The original CSD entry WILFIG is in a Sohncke space group
# The framework has been calculated to contain at least 10.0% void space
# The void calculation uses a probe of radius 1.32A, grid spacing 0.4
#
###############################################################################

data_WILFIG
_chemical_formula_moiety         '(C48 H96 Cl24 Na3 O16 W12)n'
_symmetry_cell_setting           triclinic
_symmetry_space_group_name_H-M   'P 1'
_symmetry_Int_Tables_number      1
_space_group_name_Hall           'P 1'
loop_
_symmetry_equiv_pos_site_id
_symmetry_equiv_pos_as_xyz
1 x,y,z
_cell_length_a                   15.120(5)
_cell_length_b                   15.120(5)
_cell_length_c                   15.120(5)
_cell_angle_alpha                90
_cell_angle_beta                 90
_cell_angle_gamma                90
_cell_volume                     3456.65
loop_
_atom_site_label
_atom_site_type_symbol
_atom_site_fract_x
_atom_site_fract_y
_atom_site_fract_z
W1 W 0.2637(1) 0.6163(1) 0.1130(1)
Cl2 Cl 0.1012(2) 0.6037(3) 0.1009(3)
Cl3 Cl 0.2320(2) 0.7709(3) 0.1145(4)
O1 O 0.3990(6) 0.6010(3) 0.1010(6)
O2 O 0.2612(7) 0.4760(6) 0.0998(7)
C1 C 0.3141(11) 0.4243(11) 0.0392(12)
C2 C 0.2831(45) 0.3287(26) 0.0410(37)
C3 C 0.2418(45) 0.3319(27) 0.1339(34)
C4 C 0.1970(10) 0.4209(11) 0.1473(10)
H1 H 0.3759(11) 0.4274(11) 0.0563(12)
H3 H 0.3318(45) 0.2870(26) 0.0372(37)
H5 H 0.1988(45) 0.2848(27) 0.1402(34)
H6 H 0.2874(45) 0.3237(27) 0.1783(34)
H7 H 0.1388(10) 0.4230(11) 0.1203(10)
H8 H 0.1928(10) 0.4368(11) 0.2093(10)
W2 W 0.3870(1) 0.7363(1) 0.1163(1)
W3 W 0.3837(1) 0.6130(1) 0.2363(1)
Cl4 Cl 0.2291(3) 0.6145(4) 0.2680(2)
Cl9 Cl 0.5453(2) 0.7416(2) 0.1090(3)
Cl10 Cl 0.3991(3) 0.8988(2) 0.1037(3)
Cl11 Cl 0.3855(4) 0.7680(2) 0.2709(3)
Cl12 Cl 0.3910(3) 0.4547(2) 0.2416(2)
Cl13 Cl 0.3963(3) 0.6009(3) 0.3988(2)
O4 O 0.5240(6) 0.5998(7) 0.2388(7)
Na2 Na 0.5813(4) 0.9187(4) 0.0813(4)
Na3 Na 0.4187(4) 0.4187(4) 0.4187(4)
C7 C 0.5757(11) 0.5392(12) 0.1859(11)
C8 C 0.5791(11) 0.6473(10) 0.3030(10)
C11 C 0.6713(26) 0.5410(37) 0.2169(45)
H13 H 0.5726(11) 0.5563(12) 0.1241(11)
H14 H 0.5521(11) 0.4799(12) 0.1916(11)
C12 C 0.6681(27) 0.6339(34) 0.2582(45)
H15 H 0.5770(11) 0.6203(10) 0.3612(10)
H16 H 0.5632(11) 0.7093(10) 0.3072(10)
H21 H 0.7130(26) 0.5372(37) 0.1682(45)
H22 H 0.6839(26) 0.4953(37) 0.2601(45)
H23 H 0.7152(27) 0.6402(34) 0.3012(45)
H24 H 0.6763(27) 0.6783(34) 0.2126(45)
Cl1 Cl 0.2584(2) 0.6090(3) 0.9547(2)
H2 H 0.3084(11) 0.4479(11) 0.9799(12)
H4 H 0.2399(45) 0.3161(26) 0.9953(37)
Na1 Na 0.0813(4) 0.5813(4) 0.9187(4)
Cl5 Cl 0.1090(3) 0.5453(2) 0.7416(2)
Cl6 Cl 0.0453(2) 0.7584(2) 0.8910(3)
Cl7 Cl 0.1037(3) 0.3991(3) 0.8988(2)
O3 O 0.4002(7) 0.7388(7) 0.9760(6)
W4 W 0.1163(1) 0.3870(1) 0.7363(1)
C5 C 0.4608(12) 0.6859(11) 0.9243(11)
C6 C 0.3527(10) 0.8030(10) 0.9209(11)
C9 C 0.4590(37) 0.7169(45) 0.8287(26)
H9 H 0.4437(12) 0.6241(11) 0.9274(11)
H10 H 0.5201(12) 0.6916(11) 0.9479(11)
C10 C 0.3661(34) 0.7582(45) 0.8319(27)
H11 H 0.3797(10) 0.8612(10) 0.9230(11)
H12 H 0.2907(10) 0.8072(10) 0.9368(11)
H17 H 0.4628(37) 0.6682(45) 0.7870(26)
H18 H 0.5047(37) 0.7601(45) 0.8161(26)
H19 H 0.3598(34) 0.8012(45) 0.7848(27)
H20 H 0.3217(34) 0.7126(45) 0.8237(27)
Cl8 Cl 0.8991(3) 0.6012(2) 0.8963(3)
W5 W 0.8870(1) 0.7637(1) 0.8837(1)
W1_2 W 0.2363(1) 0.3837(1) 0.6130(1)
Cl1_2 Cl 0.2416(2) 0.3910(3) 0.4547(2)
Cl2_2 Cl 0.3988(2) 0.3963(3) 0.6009(3)
Cl3_2 Cl 0.2680(2) 0.2291(3) 0.6145(4)
O1_2 O 0.1010(6) 0.3990(3) 0.6010(6)
O2_2 O 0.2388(7) 0.5240(6) 0.5998(7)
C1_2 C 0.1859(11) 0.5757(11) 0.5392(12)
C2_2 C 0.2169(45) 0.6713(26) 0.5410(37)
C3_2 C 0.2582(45) 0.6681(27) 0.6339(34)
C4_2 C 0.3030(10) 0.5791(11) 0.6473(10)
H1_2 H 0.1241(11) 0.5726(11) 0.5563(12)
H2_2 H 0.1916(11) 0.5521(11) 0.4799(12)
H3_2 H 0.1682(45) 0.7130(26) 0.5372(37)
H4_2 H 0.2601(45) 0.6839(26) 0.4953(37)
H5_2 H 0.3012(45) 0.7152(27) 0.6402(34)
H6_2 H 0.2126(45) 0.6763(27) 0.6783(34)
H7_2 H 0.3612(10) 0.5770(11) 0.6203(10)
H8_2 H 0.3072(10) 0.5632(11) 0.7093(10)
W2_2 W 0.1130(1) 0.2637(1) 0.6163(1)
Cl4_2 Cl 0.2709(3) 0.3855(4) 0.7680(2)
Cl6_2 Cl 0.4547(2) 0.2416(2) 0.3910(3)
Cl8_2 Cl 0.6009(3) 0.3988(2) 0.3963(3)
Cl10_2 Cl 0.1009(3) 0.1012(2) 0.6037(3)
Cl11_2 Cl 0.1145(4) 0.2320(2) 0.7709(3)
O3_2 O 0.0998(7) 0.2612(7) 0.4760(6)
W5_2 W 0.6130(1) 0.2363(1) 0.3837(1)
C5_2 C 0.0392(12) 0.3141(11) 0.4243(11)
C6_2 C 0.1473(10) 0.1970(10) 0.4209(11)
C9_2 C 0.0410(37) 0.2831(45) 0.3287(26)
H9_2 H 0.0563(12) 0.3759(11) 0.4274(11)
C10_2 C 0.1339(34) 0.2418(45) 0.3319(27)
H11_2 H 0.1203(10) 0.1388(10) 0.4230(11)
H12_2 H 0.2093(10) 0.1928(10) 0.4368(11)
H17_2 H 0.0372(37) 0.3318(45) 0.2870(26)
H19_2 H 0.1402(34) 0.1988(45) 0.2848(27)
H20_2 H 0.1783(34) 0.2874(45) 0.3237(27)
Cl9_2 Cl 0.9547(2) 0.2584(2) 0.6090(3)
O4_2 O 0.9760(6) 0.4002(7) 0.7388(7)
Na2_2 Na 0.9187(4) 0.0813(4) 0.5813(4)
C7_2 C 0.9243(11) 0.4608(12) 0.6859(11)
C8_2 C 0.9209(11) 0.3527(10) 0.8030(10)
H10_2 H 0.9799(12) 0.3084(11) 0.4479(11)
C11_2 C 0.8287(26) 0.4590(37) 0.7169(45)
H13_2 H 0.9274(11) 0.4437(12) 0.6241(11)
H14_2 H 0.9479(11) 0.5201(12) 0.6916(11)
C12_2 C 0.8319(27) 0.3661(34) 0.7582(45)
H15_2 H 0.9230(11) 0.3797(10) 0.8612(10)
H16_2 H 0.9368(11) 0.2907(10) 0.8072(10)
H18_2 H 0.9953(37) 0.2399(45) 0.3161(26)
H21_2 H 0.7870(26) 0.4628(37) 0.6682(45)
H22_2 H 0.8161(26) 0.5047(37) 0.7601(45)
H23_2 H 0.7848(27) 0.3598(34) 0.8012(45)
H24_2 H 0.8237(27) 0.3217(34) 0.7126(45)
H14_3 H 0.0521(11) 0.0201(12) 0.8084(11)
H22_3 H 0.1839(26) 0.0047(37) 0.7399(45)
H10_3 H 0.0201(12) 0.8084(11) 0.0521(11)
H18_3 H 0.0047(37) 0.7399(45) 0.1839(26)
O4_3 O 0.0240(6) 0.9002(7) 0.7612(7)
C7_3 C 0.0757(11) 0.9608(12) 0.8141(11)
C8_3 C 0.0791(11) 0.8527(10) 0.6970(10)
C11_3 C 0.1713(26) 0.9590(37) 0.7831(45)
H13_3 H 0.0726(11) 0.9437(12) 0.8759(11)
C12_3 C 0.1681(27) 0.8661(34) 0.7418(45)
H15_3 H 0.0770(11) 0.8797(10) 0.6388(10)
H16_3 H 0.0632(11) 0.7907(10) 0.6928(10)
H21_3 H 0.2130(26) 0.9628(37) 0.8318(45)
H23_3 H 0.2152(27) 0.8598(34) 0.6988(45)
H24_3 H 0.1763(27) 0.8217(34) 0.7874(45)
H2_3 H 0.8084(11) 0.0521(11) 0.0201(12)
H4_3 H 0.7399(45) 0.1839(26) 0.0047(37)
Cl7_2 Cl 0.6037(3) 0.1009(3) 0.1012(2)
W4_2 W 0.6163(1) 0.1130(1) 0.2637(1)
O2_3 O 0.7612(7) 0.0240(6) 0.9002(7)
C1_3 C 0.8141(11) 0.0757(11) 0.9608(12)
C2_3 C 0.7831(45) 0.1713(26) 0.9590(37)
C3_3 C 0.7418(45) 0.1681(27) 0.8661(34)
C4_3 C 0.6970(10) 0.0791(11) 0.8527(10)
H1_3 H 0.8759(11) 0.0726(11) 0.9437(12)
H3_3 H 0.8318(45) 0.2130(26) 0.9628(37)
H5_3 H 0.6988(45) 0.2152(27) 0.8598(34)
H6_3 H 0.7874(45) 0.1763(27) 0.8217(34)
H7_3 H 0.6388(10) 0.0770(11) 0.8797(10)
H8_3 H 0.6928(10) 0.0632(11) 0.7907(10)
Cl12_2 Cl 0.8910(3) 0.0453(2) 0.7584(2)
Cl1_3 Cl 0.7584(2) 0.8910(3) 0.0453(2)
Cl5_2 Cl 0.6090(3) 0.9547(2) 0.2584(2)
O3_3 O 0.9002(7) 0.7612(7) 0.0240(6)
C5_3 C 0.9608(12) 0.8141(11) 0.0757(11)
C6_3 C 0.8527(10) 0.6970(10) 0.0791(11)
C9_3 C 0.9590(37) 0.7831(45) 0.1713(26)
H9_3 H 0.9437(12) 0.8759(11) 0.0726(11)
C10_3 C 0.8661(34) 0.7418(45) 0.1681(27)
H11_3 H 0.8797(10) 0.6388(10) 0.0770(11)
H12_3 H 0.7907(10) 0.6928(10) 0.0632(11)
H17_3 H 0.9628(37) 0.8318(45) 0.2130(26)
H19_3 H 0.8598(34) 0.6988(45) 0.2152(27)
H20_3 H 0.8217(34) 0.7874(45) 0.1763(27)
W1_3 W 0.7637(1) 0.8837(1) 0.8870(1)
Cl2_3 Cl 0.6012(2) 0.8963(3) 0.8991(3)
Cl3_3 Cl 0.7320(2) 0.7291(3) 0.8855(4)
O1_3 O 0.8990(6) 0.8990(3) 0.8990(6)
W3_2 W 0.8837(1) 0.8870(1) 0.7637(1)
Cl4_3 Cl 0.7291(3) 0.8855(4) 0.7320(2)
Cl11_3 Cl 0.8855(4) 0.7320(2) 0.7291(3)
Cl13_2 Cl 0.8963(3) 0.8991(3) 0.6012(2)
Cl5_3 Cl 0.7416(2) 0.1090(3) 0.5453(2)
Cl7_3 Cl 0.8988(2) 0.1037(3) 0.3991(3)
W4_3 W 0.7363(1) 0.1163(1) 0.3870(1)
Cl3_4 Cl 0.7680(2) 0.2709(3) 0.3855(4)
O1_4 O 0.6010(6) 0.1010(3) 0.3990(6)
Cl4_4 Cl 0.7709(3) 0.1145(4) 0.2320(2)
Cl11_4 Cl 0.6145(4) 0.2680(2) 0.2291(3)
O3_4 O 0.5998(7) 0.2388(7) 0.5240(6)
O4_4 O 0.4760(6) 0.0998(7) 0.2612(7)
C5_4 C 0.5392(12) 0.1859(11) 0.5757(11)
C6_4 C 0.6473(10) 0.3030(10) 0.5791(11)
C7_4 C 0.4243(11) 0.0392(12) 0.3141(11)
C8_4 C 0.4209(11) 0.1473(10) 0.1970(10)
C9_4 C 0.5410(37) 0.2169(45) 0.6713(26)
H9_4 H 0.5563(12) 0.1241(11) 0.5726(11)
H10_4 H 0.4799(12) 0.1916(11) 0.5521(11)
C10_4 C 0.6339(34) 0.2582(45) 0.6681(27)
H11_4 H 0.6203(10) 0.3612(10) 0.5770(11)
H12_4 H 0.7093(10) 0.3072(10) 0.5632(11)
C11_4 C 0.3287(26) 0.0410(37) 0.2831(45)
H13_4 H 0.4274(11) 0.0563(12) 0.3759(11)
C12_4 C 0.3319(27) 0.1339(34) 0.2418(45)
H15_4 H 0.4230(11) 0.1203(10) 0.1388(10)
H16_4 H 0.4368(11) 0.2093(10) 0.1928(10)
H17_4 H 0.5372(37) 0.1682(45) 0.7130(26)
H18_4 H 0.4953(37) 0.2601(45) 0.6839(26)
H19_4 H 0.6402(34) 0.3012(45) 0.7152(27)
H20_4 H 0.6783(34) 0.2126(45) 0.6763(27)
H21_4 H 0.2870(26) 0.0372(37) 0.3318(45)
H23_4 H 0.2848(27) 0.1402(34) 0.1988(45)
H24_4 H 0.3237(27) 0.1783(34) 0.2874(45)
O2_4 O 0.7388(7) 0.9760(6) 0.4002(7)
C1_4 C 0.6859(11) 0.9243(11) 0.4608(12)
C2_4 C 0.7169(45) 0.8287(26) 0.4590(37)
C3_4 C 0.7582(45) 0.8319(27) 0.3661(34)
C4_4 C 0.8030(10) 0.9209(11) 0.3527(10)
H1_4 H 0.6241(11) 0.9274(11) 0.4437(12)
H2_4 H 0.6916(11) 0.9479(11) 0.5201(12)
H3_4 H 0.6682(45) 0.7870(26) 0.4628(37)
H4_4 H 0.7601(45) 0.8161(26) 0.5047(37)
H5_4 H 0.8012(45) 0.7848(27) 0.3598(34)
H6_4 H 0.7126(45) 0.8237(27) 0.3217(34)
H7_4 H 0.8612(10) 0.9230(11) 0.3797(10)
H8_4 H 0.8072(10) 0.9368(11) 0.2907(10)
H14_4 H 0.4479(11) 0.9799(12) 0.3084(11)
H22_4 H 0.3161(26) 0.9953(37) 0.2399(45)
loop_
_geom_bond_atom_site_label_1
_geom_bond_atom_site_label_2
_geom_bond_site_symmetry_1
_geom_bond_site_symmetry_2
Cl2 W1 1_555 1_555
Cl3 W1 1_555 1_555
O1 W1 1_555 1_555
O2 W1 1_555 1_555
C1 O2 1_555 1_555
C2 C1 1_555 1_555
C3 C2 1_555 1_555
C4 O2 1_555 1_555
H1 C1 1_555 1_555
H3 C2 1_555 1_555
H5 C3 1_555 1_555
H6 C3 1_555 1_555
H7 C4 1_555 1_555
H8 C4 1_555 1_555
W2 W1 1_555 1_555
W3 W1 1_555 1_555
Cl4 W1 1_555 1_555
Cl9 W2 1_555 1_555
Cl10 W2 1_555 1_555
Cl11 W2 1_555 1_555
Cl12 W3 1_555 1_555
Cl13 W3 1_555 1_555
O4 W3 1_555 1_555
Na2 Cl9 1_555 1_555
Na3 Cl12 1_555 1_555
C7 O4 1_555 1_555
C8 O4 1_555 1_555
C11 C7 1_555 1_555
H13 C7 1_555 1_555
H14 C7 1_555 1_555
C12 C8 1_555 1_555
H15 C8 1_555 1_555
H16 C8 1_555 1_555
H21 C11 1_555 1_555
H22 C11 1_555 1_555
H23 C12 1_555 1_555
H24 C12 1_555 1_555
Cl3 W2 1_555 1_555
O1 W3 1_555 1_555
O1 W2 1_555 1_555
C3 C4 1_555 1_555
W2 W3 1_555 1_555
W3 Cl4 1_555 1_555
W3 Cl11 1_555 1_555
Cl10 Na2 1_555 1_555
Cl13 Na3 1_555 1_555
C11 C12 1_555 1_555
Cl1 Na1 1_555 1_555
Cl5 Na1 1_555 1_555
Cl6 Na1 1_555 1_555
Cl7 Na1 1_555 1_555
W4 Cl5 1_555 1_555
C5 O3 1_555 1_555
C6 O3 1_555 1_555
C9 C5 1_555 1_555
H9 C5 1_555 1_555
H10 C5 1_555 1_555
C10 C6 1_555 1_555
H11 C6 1_555 1_555
H12 C6 1_555 1_555
H17 C9 1_555 1_555
H18 C9 1_555 1_555
H19 C10 1_555 1_555
H20 C10 1_555 1_555
Cl7 W4 1_555 1_555
C9 C10 1_555 1_555
Cl8 W5 1_555 1_555
W1_2 Cl1_2 1_555 1_555
Cl1_2 Na3 1_555 1_555
Cl2_2 W1_2 1_555 1_555
Cl3_2 W1_2 1_555 1_555
O1_2 W1_2 1_555 1_555
O2_2 W1_2 1_555 1_555
C1_2 O2_2 1_555 1_555
C2_2 C1_2 1_555 1_555
C3_2 C2_2 1_555 1_555
C4_2 O2_2 1_555 1_555
H1_2 C1_2 1_555 1_555
H2_2 C1_2 1_555 1_555
H3_2 C2_2 1_555 1_555
H4_2 C2_2 1_555 1_555
H5_2 C3_2 1_555 1_555
H6_2 C3_2 1_555 1_555
H7_2 C4_2 1_555 1_555
H8_2 C4_2 1_555 1_555
Na3 Cl2_2 1_555 1_555
W2_2 W1_2 1_555 1_555
W4 W1_2 1_555 1_555
Cl4_2 W1_2 1_555 1_555
Cl6_2 Na3 1_555 1_555
Cl8_2 Na3 1_555 1_555
Cl10_2 W2_2 1_555 1_555
Cl11_2 W2_2 1_555 1_555
O3_2 W2_2 1_555 1_555
W5_2 Cl6_2 1_555 1_555
C5_2 O3_2 1_555 1_555
C6_2 O3_2 1_555 1_555
C9_2 C5_2 1_555 1_555
H9_2 C5_2 1_555 1_555
C10_2 C6_2 1_555 1_555
H11_2 C6_2 1_555 1_555
H12_2 C6_2 1_555 1_555
H17_2 C9_2 1_555 1_555
H19_2 C10_2 1_555 1_555
H20_2 C10_2 1_555 1_555
Cl3_2 W2_2 1_555 1_555
O1_2 W4 1_555 1_555
O1_2 W2_2 1_555 1_555
C3_2 C4_2 1_555 1_555
W2_2 W4 1_555 1_555
W4 Cl4_2 1_555 1_555
W4 Cl11_2 1_555 1_555
Cl8_2 W5_2 1_555 1_555
C9_2 C10_2 1_555 1_555
Na2_2 Cl9_2 1_555 1_555
C7_2 O4_2 1_555 1_555
C8_2 O4_2 1_555 1_555
C11_2 C7_2 1_555 1_555
H13_2 C7_2 1_555 1_555
H14_2 C7_2 1_555 1_555
C12_2 C8_2 1_555 1_555
H15_2 C8_2 1_555 1_555
H16_2 C8_2 1_555 1_555
H21_2 C11_2 1_555 1_555
H22_2 C11_2 1_555 1_555
H23_2 C12_2 1_555 1_555
H24_2 C12_2 1_555 1_555
C11_2 C12_2 1_555 1_555
C7_3 O4_3 1_555 1_555
C8_3 O4_3 1_555 1_555
C11_3 C7_3 1_555 1_555
H13_3 C7_3 1_555 1_555
C12_3 C8_3 1_555 1_555
H15_3 C8_3 1_555 1_555
H16_3 C8_3 1_555 1_555
H21_3 C11_3 1_555 1_555
H23_3 C12_3 1_555 1_555
H24_3 C12_3 1_555 1_555
C11_3 C12_3 1_555 1_555
Cl7_2 W4_2 1_555 1_555
C1_3 O2_3 1_555 1_555
C2_3 C1_3 1_555 1_555
C3_3 C2_3 1_555 1_555
C4_3 O2_3 1_555 1_555
H1_3 C1_3 1_555 1_555
H3_3 C2_3 1_555 1_555
H5_3 C3_3 1_555 1_555
H6_3 C3_3 1_555 1_555
H7_3 C4_3 1_555 1_555
H8_3 C4_3 1_555 1_555
Na2_2 Cl12_2 1_555 1_555
C3_3 C4_3 1_555 1_555
Cl1_3 Na2 1_555 1_555
Cl5_2 Na2 1_555 1_555
C5_3 O3_3 1_555 1_555
C6_3 O3_3 1_555 1_555
C9_3 C5_3 1_555 1_555
H9_3 C5_3 1_555 1_555
C10_3 C6_3 1_555 1_555
H11_3 C6_3 1_555 1_555
H12_3 C6_3 1_555 1_555
H17_3 C9_3 1_555 1_555
H19_3 C10_3 1_555 1_555
H20_3 C10_3 1_555 1_555
C9_3 C10_3 1_555 1_555
Cl2_3 W1_3 1_555 1_555
Cl3_3 W1_3 1_555 1_555
O1_3 W1_3 1_555 1_555
W5 W1_3 1_555 1_555
W3_2 W1_3 1_555 1_555
Cl4_3 W1_3 1_555 1_555
Cl11_3 W5 1_555 1_555
Cl13_2 W3_2 1_555 1_555
Cl3_3 W5 1_555 1_555
O1_3 W3_2 1_555 1_555
O1_3 W5 1_555 1_555
W5 W3_2 1_555 1_555
W3_2 Cl4_3 1_555 1_555
W3_2 Cl11_3 1_555 1_555
Cl5_3 Na2_2 1_555 1_555
Cl7_3 Na2_2 1_555 1_555
W4_3 Cl5_3 1_555 1_555
Cl7_3 W4_3 1_555 1_555
Cl3_4 W4_3 1_555 1_555
O1_4 W4_3 1_555 1_555
W5_2 W4_3 1_555 1_555
W4_2 W4_3 1_555 1_555
Cl4_4 W4_3 1_555 1_555
Cl11_4 W5_2 1_555 1_555
O3_4 W5_2 1_555 1_555
O4_4 W4_2 1_555 1_555
C5_4 O3_4 1_555 1_555
C6_4 O3_4 1_555 1_555
C7_4 O4_4 1_555 1_555
C8_4 O4_4 1_555 1_555
C9_4 C5_4 1_555 1_555
H9_4 C5_4 1_555 1_555
H10_4 C5_4 1_555 1_555
C10_4 C6_4 1_555 1_555
H11_4 C6_4 1_555 1_555
H12_4 C6_4 1_555 1_555
C11_4 C7_4 1_555 1_555
H13_4 C7_4 1_555 1_555
C12_4 C8_4 1_555 1_555
H15_4 C8_4 1_555 1_555
H16_4 C8_4 1_555 1_555
H17_4 C9_4 1_555 1_555
H18_4 C9_4 1_555 1_555
H19_4 C10_4 1_555 1_555
H20_4 C10_4 1_555 1_555
H21_4 C11_4 1_555 1_555
H23_4 C12_4 1_555 1_555
H24_4 C12_4 1_555 1_555
Cl3_4 W5_2 1_555 1_555
O1_4 W4_2 1_555 1_555
O1_4 W5_2 1_555 1_555
W5_2 W4_2 1_555 1_555
W4_2 Cl4_4 1_555 1_555
W4_2 Cl11_4 1_555 1_555
C9_4 C10_4 1_555 1_555
C11_4 C12_4 1_555 1_555
C1_4 O2_4 1_555 1_555
C2_4 C1_4 1_555 1_555
C3_4 C2_4 1_555 1_555
C4_4 O2_4 1_555 1_555
H1_4 C1_4 1_555 1_555
H2_4 C1_4 1_555 1_555
H3_4 C2_4 1_555 1_555
H4_4 C2_4 1_555 1_555
H5_4 C3_4 1_555 1_555
H6_4 C3_4 1_555 1_555
H7_4 C4_4 1_555 1_555
H8_4 C4_4 1_555 1_555
C3_4 C4_4 1_555 1_555

#END
