
###############################################################################
#
# This file contains modified crystal structure data generated from the
# MOF subset of the Cambridge Structural Database (CSD) v543 
# hosted by the Cambridge Crystallographic Data Centre (CCDC).
#
# This work is licensed under the Creative Commons
# Attribution-NonCommercial-ShareAlike 4.0 International License.
# To view a copy of this license, visit
# http://creativecommons.org/licenses/by-nc-sa/4.0/
# or send a letter to
# Creative Commons, PO Box 1866, Mountain View, CA 94042, USA.
#
# CIF created using the CSD Python API on 29 September 2022
# The structure has been converted into the P1 space group
# The structure has a 3D framework
# The original CSD entry WILHIK is in the monoclinic crystal system
# The framework has been calculated to contain at least 10.0% void space
# The void calculation uses a probe of radius 1.32A, grid spacing 0.4
#
###############################################################################

data_WILHIK
_chemical_formula_moiety         '(C60 H48 N4 O24 Zn6)n'
_symmetry_cell_setting           triclinic
_symmetry_space_group_name_H-M   'P 1'
_symmetry_Int_Tables_number      1
_space_group_name_Hall           'P 1'
loop_
_symmetry_equiv_pos_site_id
_symmetry_equiv_pos_as_xyz
1 x,y,z
_cell_length_a                   9.7750(1)
_cell_length_b                   18.9580(2)
_cell_length_c                   11.4690(1)
_cell_angle_alpha                90
_cell_angle_beta                 111.3540(10)
_cell_angle_gamma                90
_cell_volume                     1979.46
loop_
_atom_site_label
_atom_site_type_symbol
_atom_site_fract_x
_atom_site_fract_y
_atom_site_fract_z
Zn5 Zn 0.5000 0.5000 0.0000
Zn1 Zn -0.0000 0.0000 0.5000
O1 O 0.36148(12) 0.07760(6) 0.65014(10)
O2 O 0.13669(12) 0.05859(6) 0.65517(10)
O3 O 0.16235(12) 0.39950(5) 0.89576(11)
O4 O 0.40361(12) 0.40315(5) 0.92753(11)
O5 O 0.40641(11) 0.00979(5) 0.38635(10)
O6 O 0.15512(11) 0.01280(5) 0.41942(10)
N1 N 0.16225(14) 0.06785(7) 0.07934(11)
C1 C 0.24942(16) 0.09492(7) 0.67498(13)
C2 C 0.25741(17) 0.16627(8) 0.73526(14)
C3 C 0.39257(17) 0.19526(8) 0.80759(16)
H1 H 0.4802 0.1694 0.8209
C4 C 0.40009(17) 0.26172(8) 0.86040(16)
H2 H 0.4927 0.2811 0.9099
C5 C 0.27176(17) 0.30006(8) 0.84077(14)
C6 C 0.13642(17) 0.27034(8) 0.77029(15)
H3 H 0.0487 0.2959 0.7580
C7 C 0.12848(17) 0.20365(8) 0.71786(14)
H4 H 0.0358 0.1836 0.6704
C8 C 0.28135(16) 0.37369(8) 0.89317(13)
C9 C 0.28873(16) 0.02960(7) 0.28915(13)
C10 C 0.15200(16) 0.03157(7) 0.30963(13)
C11 C 0.02554(16) 0.05347(8) 0.21095(14)
C12 C 0.03413(17) 0.07199(8) 0.09859(14)
C13 C 0.28995(16) 0.04528(8) 0.17158(13)
C15 C 0.42422(18) 0.03724(10) 0.13877(15)
H10 H 0.3993 0.0105 0.0606
H11 H 0.5002 0.0119 0.2061
H12 H 0.4610 0.0840 0.1281
Zn5_2 Zn 0.5000 0.5000 1.0000
Zn7 Zn 0.135009(18) 0.494433(8) 0.953460(15)
Zn8 Zn 0.635009(18) 0.005567(8) 0.453460(15)
Zn1_2 Zn -0.0000 1.0000 0.5000
Zn2 Zn 0.364991(18) 0.994433(8) 0.546540(15)
H17 H 0.0661 0.9445 0.7779
H18 H 0.0516 0.9120 0.9671
O13 O 0.33765(12) 0.89950(5) 0.60424(11)
O15 O 0.09639(12) 0.90315(5) 0.57247(11)
O18 O 0.59359(11) 0.99021(5) 0.61365(10)
Zn1_3 Zn 1.0000 0.0000 0.5000
H5 H 0.9339 0.0555 0.2221
H6 H 0.9484 0.0880 0.0329
O14 O 0.66235(12) 0.10050(5) 0.39576(11)
O16 O 0.90361(12) 0.09685(5) 0.42753(11)
Zn1_4 Zn 1.0000 1.0000 0.5000
O7 O 0.63852(12) 0.92240(6) 0.34986(10)
O8 O 0.86331(12) 0.94141(6) 0.34483(10)
O9 O 0.83765(12) 0.60050(5) 0.10424(11)
O10 O 0.59639(12) 0.59685(5) 0.07247(11)
O12 O 0.84488(11) 0.98720(5) 0.58058(10)
N2 N 0.83775(14) 0.93215(7) 0.92066(11)
C16 C 0.75058(16) 0.90508(7) 0.32502(13)
C17 C 0.74259(17) 0.83373(8) 0.26474(14)
C18 C 0.60743(17) 0.80474(8) 0.19241(16)
H13 H 0.5198 0.8306 0.1791
C19 C 0.59991(17) 0.73828(8) 0.13960(16)
H14 H 0.5073 0.7189 0.0901
C20 C 0.72824(17) 0.69994(8) 0.15923(14)
C21 C 0.86358(17) 0.72966(8) 0.22971(15)
H15 H 0.9513 0.7041 0.2420
C22 C 0.87152(17) 0.79635(8) 0.28214(14)
H16 H 0.9642 0.8164 0.3296
C23 C 0.71865(16) 0.62631(8) 0.10683(13)
C24 C 0.71127(16) 0.97040(7) 0.71085(13)
C25 C 0.84800(16) 0.96843(7) 0.69037(13)
C26 C 0.97446(16) 0.94653(8) 0.78905(14)
C27 C 0.96587(17) 0.92801(8) 0.90141(14)
C28 C 0.71005(16) 0.95472(8) 0.82842(13)
C30 C 0.57578(18) 0.96276(10) 0.86123(15)
H22 H 0.6007 0.9895 0.9394
H23 H 0.4998 0.9881 0.7939
H24 H 0.5390 0.9160 0.8719
Zn9 Zn 0.864991(18) 0.505567(8) 0.046540(15)
O17 O 0.09359(11) 0.50979(5) 0.11365(10)
H23_2 H 0.0002 0.4881 0.7061
O6_2 O 0.34488(11) 0.51280(5) 0.08058(10)
N1_2 N 0.33775(14) 0.56785(7) 0.42066(11)
C9_2 C 0.21127(16) 0.52960(7) 0.21085(13)
C10_2 C 0.34800(16) 0.53157(7) 0.19037(13)
C11_2 C 0.47446(16) 0.55347(8) 0.28905(14)
H5_2 H 0.5661 0.5555 0.2779
C12_2 C 0.46587(17) 0.57199(8) 0.40141(14)
H6_2 H 0.5516 0.5880 0.4671
C13_2 C 0.21005(16) 0.54528(8) 0.32842(13)
C14 C 0.3357(2) 0.59194(10) 0.54244(15)
H7 H 0.4347 0.6068 0.5962
H8 H 0.3033 0.5532 0.5828
H9 H 0.2679 0.6318 0.5292
C15_2 C 0.07578(18) 0.53724(10) 0.36123(15)
H10_2 H 0.1007 0.5105 0.4394
H12_2 H 0.0390 0.5840 0.3719
O7_2 O 0.86148(12) 0.42240(6) 0.15014(10)
O8_2 O 0.63669(12) 0.44141(6) 0.15517(10)
C16_2 C 0.74942(16) 0.40508(7) 0.17498(13)
C17_2 C 0.75741(17) 0.33373(8) 0.23526(14)
C18_2 C 0.89257(17) 0.30474(8) 0.30759(16)
H13_2 H 0.9802 0.3306 0.3209
C19_2 C 0.90009(17) 0.23828(8) 0.36040(16)
H14_2 H 0.9927 0.2189 0.4099
C20_2 C 0.77176(17) 0.19994(8) 0.34077(14)
C21_2 C 0.63642(17) 0.22966(8) 0.27029(15)
H15_2 H 0.5487 0.2041 0.2580
C22_2 C 0.62848(17) 0.29635(8) 0.21786(14)
H16_2 H 0.5358 0.3164 0.1704
C23_2 C 0.78135(16) 0.12631(8) 0.39317(13)
O1_2 O 0.13852(12) 0.57760(6) 0.84986(10)
O2_2 O 0.36331(12) 0.55859(6) 0.84483(10)
C1_2 C 0.25058(16) 0.59492(7) 0.82502(13)
C2_2 C 0.24259(17) 0.66627(8) 0.76474(14)
C3_2 C 0.10743(17) 0.69526(8) 0.69241(16)
H1_2 H 0.0198 0.6694 0.6791
C4_2 C 0.09991(17) 0.76172(8) 0.63960(16)
H2_2 H 0.0073 0.7811 0.5901
C5_2 C 0.22824(17) 0.80006(8) 0.65923(14)
C6_2 C 0.36358(17) 0.77034(8) 0.72971(15)
H3_2 H 0.4513 0.7959 0.7420
C7_2 C 0.37152(17) 0.70365(8) 0.78214(14)
H4_2 H 0.4642 0.6836 0.8296
C8_2 C 0.21865(16) 0.87369(8) 0.60683(13)
O11 O 0.90641(11) 0.49021(5) 0.88635(10)
O12_2 O 0.65512(11) 0.48720(5) 0.91942(10)
N2_2 N 0.66225(14) 0.43215(7) 0.57934(11)
C24_2 C 0.78873(16) 0.47040(7) 0.78915(13)
C25_2 C 0.65200(16) 0.46843(7) 0.80963(13)
C26_2 C 0.52554(16) 0.44653(8) 0.71095(14)
H17_2 H 0.4339 0.4445 0.7221
C27_2 C 0.53413(17) 0.42801(8) 0.59859(14)
H18_2 H 0.4484 0.4120 0.5329
C28_2 C 0.78995(16) 0.45472(8) 0.67158(13)
C29 C 0.6643(2) 0.40806(10) 0.45756(15)
H19 H 0.5653 0.3932 0.4038
H20 H 0.6967 0.4468 0.4172
H21 H 0.7321 0.3682 0.4708
C30_2 C 0.92422(18) 0.46276(10) 0.63877(15)
H22_2 H 0.8993 0.4895 0.5606
H24_2 H 0.9610 0.4160 0.6281
H11_2 H 0.9998 0.5119 0.2939
C14_2 C 0.1643(2) 0.09194(10) 0.95756(15)
H7_2 H 0.0653 0.1068 0.9038
H8_2 H 0.1967 0.0532 0.9172
H9_2 H 0.2321 0.1318 0.9708
C29_2 C 0.8357(2) 0.90806(10) 0.04244(15)
H19_2 H 0.9347 0.8932 0.0962
H20_2 H 0.8033 0.9468 0.0828
H21_2 H 0.7679 0.8682 0.0292
loop_
_geom_bond_atom_site_label_1
_geom_bond_atom_site_label_2
_geom_bond_site_symmetry_1
_geom_bond_site_symmetry_2
Zn1 O2 1_555 1_555
O1 C1 1_555 1_555
O2 C1 1_555 1_555
O3 C8 1_555 1_555
O4 C8 1_555 1_555
O6 Zn1 1_555 1_555
N1 C12 1_555 1_555
C1 C2 1_555 1_555
C2 C3 1_555 1_555
C3 H1 1_555 1_555
C4 C3 1_555 1_555
H2 C4 1_555 1_555
C5 C4 1_555 1_555
C6 C5 1_555 1_555
H3 C6 1_555 1_555
C7 C2 1_555 1_555
H4 C7 1_555 1_555
C8 C5 1_555 1_555
C9 O5 1_555 1_555
C10 O6 1_555 1_555
C11 C10 1_555 1_555
C12 C11 1_555 1_555
C13 N1 1_555 1_555
C15 C13 1_555 1_555
H10 C15 1_555 1_555
H11 C15 1_555 1_555
H12 C15 1_555 1_555
Zn5_2 O4 1_555 1_555
Zn7 O3 1_555 1_555
Zn8 O5 1_555 1_555
C6 C7 1_555 1_555
C9 C10 1_555 1_555
C9 C13 1_555 1_555
O13 Zn2 1_555 1_555
O15 Zn1_2 1_555 1_555
O18 Zn2 1_555 1_555
O14 Zn8 1_555 1_555
O16 Zn1_3 1_555 1_555
O7 C16 1_555 1_555
O8 Zn1_4 1_555 1_555
O9 C23 1_555 1_555
O10 C23 1_555 1_555
O12 Zn1_4 1_555 1_555
N2 C27 1_555 1_555
C16 O8 1_555 1_555
C17 C16 1_555 1_555
C18 C17 1_555 1_555
H13 C18 1_555 1_555
C19 C18 1_555 1_555
H14 C19 1_555 1_555
C20 C19 1_555 1_555
C21 C20 1_555 1_555
H15 C21 1_555 1_555
C22 C17 1_555 1_555
H16 C22 1_555 1_555
C23 C20 1_555 1_555
C24 O18 1_555 1_555
C25 O12 1_555 1_555
C26 C25 1_555 1_555
C27 C26 1_555 1_555
C28 N2 1_555 1_555
C30 C28 1_555 1_555
H22 C30 1_555 1_555
H23 C30 1_555 1_555
H24 C30 1_555 1_555
Zn5 O10 1_555 1_555
Zn9 O9 1_555 1_555
C21 C22 1_555 1_555
C24 C25 1_555 1_555
C24 C28 1_555 1_555
O6_2 Zn5 1_555 1_555
N1_2 C12_2 1_555 1_555
C9_2 O17 1_555 1_555
C10_2 O6_2 1_555 1_555
C11_2 C10_2 1_555 1_555
H5_2 C11_2 1_555 1_555
C12_2 C11_2 1_555 1_555
H6_2 C12_2 1_555 1_555
C13_2 N1_2 1_555 1_555
C14 N1_2 1_555 1_555
H7 C14 1_555 1_555
H8 C14 1_555 1_555
H9 C14 1_555 1_555
C15_2 C13_2 1_555 1_555
H10_2 C15_2 1_555 1_555
H12_2 C15_2 1_555 1_555
Zn9 O7_2 1_555 1_555
O7_2 C16_2 1_555 1_555
O8_2 Zn5 1_555 1_555
O14 C23_2 1_555 1_555
O16 C23_2 1_555 1_555
C16_2 O8_2 1_555 1_555
C17_2 C16_2 1_555 1_555
C18_2 C17_2 1_555 1_555
H13_2 C18_2 1_555 1_555
C19_2 C18_2 1_555 1_555
H14_2 C19_2 1_555 1_555
C20_2 C19_2 1_555 1_555
C21_2 C20_2 1_555 1_555
H15_2 C21_2 1_555 1_555
C22_2 C17_2 1_555 1_555
H16_2 C22_2 1_555 1_555
C23_2 C20_2 1_555 1_555
C9_2 C10_2 1_555 1_555
C9_2 C13_2 1_555 1_555
C21_2 C22_2 1_555 1_555
Zn5_2 O2_2 1_555 1_555
Zn7 O1_2 1_555 1_555
O1_2 C1_2 1_555 1_555
O2_2 C1_2 1_555 1_555
O13 C8_2 1_555 1_555
O15 C8_2 1_555 1_555
C1_2 C2_2 1_555 1_555
C2_2 C3_2 1_555 1_555
C3_2 H1_2 1_555 1_555
C4_2 C3_2 1_555 1_555
H2_2 C4_2 1_555 1_555
C5_2 C4_2 1_555 1_555
C6_2 C5_2 1_555 1_555
H3_2 C6_2 1_555 1_555
C7_2 C2_2 1_555 1_555
H4_2 C7_2 1_555 1_555
C8_2 C5_2 1_555 1_555
O12_2 Zn5_2 1_555 1_555
N2_2 C27_2 1_555 1_555
C24_2 O11 1_555 1_555
C25_2 O12_2 1_555 1_555
C26_2 C25_2 1_555 1_555
H17_2 C26_2 1_555 1_555
C27_2 C26_2 1_555 1_555
H18_2 C27_2 1_555 1_555
C28_2 N2_2 1_555 1_555
C29 N2_2 1_555 1_555
H19 C29 1_555 1_555
H20 C29 1_555 1_555
H21 C29 1_555 1_555
C30_2 C28_2 1_555 1_555
H22_2 C30_2 1_555 1_555
H24_2 C30_2 1_555 1_555
C6_2 C7_2 1_555 1_555
C24_2 C25_2 1_555 1_555
C24_2 C28_2 1_555 1_555
H7_2 C14_2 1_555 1_555
H8_2 C14_2 1_555 1_555
H9_2 C14_2 1_555 1_555
H19_2 C29_2 1_555 1_555
H20_2 C29_2 1_555 1_555
H21_2 C29_2 1_555 1_555

#END
