
###############################################################################
#
# This file contains modified crystal structure data generated from the
# MOF subset of the Cambridge Structural Database (CSD) v543 
# hosted by the Cambridge Crystallographic Data Centre (CCDC).
#
# This work is licensed under the Creative Commons
# Attribution-NonCommercial-ShareAlike 4.0 International License.
# To view a copy of this license, visit
# http://creativecommons.org/licenses/by-nc-sa/4.0/
# or send a letter to
# Creative Commons, PO Box 1866, Mountain View, CA 94042, USA.
#
# CIF created using the CSD Python API on 29 September 2022
# The structure has been converted into the P1 space group
# The structure has a 3D framework
# The original CSD entry WIMJUZ is in the monoclinic crystal system
# The framework has been calculated to contain at least 10.0% void space
# The void calculation uses a probe of radius 1.32A, grid spacing 0.4
#
###############################################################################

data_WIMJUZ
_chemical_formula_moiety         '(C80 H52 Cd4 N20 O24)n'
_symmetry_cell_setting           triclinic
_symmetry_space_group_name_H-M   'P 1'
_symmetry_Int_Tables_number      1
_space_group_name_Hall           'P 1'
loop_
_symmetry_equiv_pos_site_id
_symmetry_equiv_pos_as_xyz
1 x,y,z
_cell_length_a                   11.5427(7)
_cell_length_b                   18.4575(10)
_cell_length_c                   10.4085(6)
_cell_angle_alpha                90
_cell_angle_beta                 102.5120(10)
_cell_angle_gamma                90
_cell_volume                     2164.86
loop_
_atom_site_label
_atom_site_type_symbol
_atom_site_fract_x
_atom_site_fract_y
_atom_site_fract_z
C13 C 0.0716(2) 0.12210(12) 0.0433(2)
C14 C 0.1622(2) 0.17332(13) 0.0674(2)
H9 H 0.1983 0.1886 0.0005
C15 C 0.1971(2) 0.20098(13) 0.1936(2)
C16 C 0.1487(2) 0.17794(13) 0.2973(2)
H10 H 0.1740 0.1975 0.3811
C17 C 0.0232(2) 0.09750(12) 0.1464(2)
C18 C 0.0612(2) 0.12477(12) 0.2728(2)
C19 C 0.0092(2) 0.09580(13) 0.3835(2)
N5 N 0.2897(2) 0.25655(12) 0.2184(2)
O4 O 0.02608(18) 0.13279(10) 0.48819(16)
O5 O 0.3220(2) 0.28042(12) 0.32975(19)
O6 O 0.3317(3) 0.27662(15) 0.1261(2)
C20 C 0.0249(2) 0.09631(13) 0.9048(2)
O2 O 0.08679(16) 0.10708(11) 0.82029(16)
Cd4 Cd 0.058224(14) 0.922479(9) 0.365524(14)
O7 O 0.04672(16) 0.96285(10) 0.63367(17)
O8 O 0.97392(18) 0.63279(10) 0.01181(16)
C13_2 C 0.9284(2) 0.62210(12) 0.4567(2)
C14_2 C 0.8378(2) 0.67332(13) 0.4326(2)
H9_2 H 0.8017 0.6886 0.4995
C15_2 C 0.8029(2) 0.70098(13) 0.3064(2)
C16_2 C 0.8513(2) 0.67794(13) 0.2027(2)
H10_2 H 0.8260 0.6975 0.1189
C17_2 C 0.9768(2) 0.59750(12) 0.3536(2)
C18_2 C 0.9388(2) 0.62477(12) 0.2272(2)
C19_2 C 0.9908(2) 0.59580(13) 0.1165(2)
C20_2 C 0.9751(2) 0.59631(13) 0.5952(2)
N5_2 N 0.7103(2) 0.75655(12) 0.2816(2)
O2_2 O 0.91321(16) 0.60708(11) 0.67971(16)
O5_2 O 0.6780(2) 0.78042(12) 0.17025(19)
O6_2 O 0.6683(3) 0.77662(15) 0.3739(2)
Cd4_2 Cd 0.941776(14) 0.422479(9) 0.134476(14)
O7_2 O 0.95328(16) 0.46285(10) 0.86633(17)
C1 C 0.6082(3) 0.19972(17) 0.3829(3)
H1 H 0.6476 0.2373 0.4340
C2 C 0.5273(3) 0.15844(16) 0.4308(3)
H2 H 0.5135 0.1685 0.5137
C3 C 0.4666(2) 0.10247(14) 0.3578(2)
C4 C 0.4859(3) 0.09067(16) 0.2321(3)
H3 H 0.4432 0.0548 0.1795
C5 C 0.5675(3) 0.13138(17) 0.1844(3)
H4 H 0.5796 0.1220 0.1005
C6 C 0.6320(2) 0.18621(14) 0.2595(2)
C7 C 0.7217(2) 0.22860(13) 0.2113(2)
C8 C 0.7632(2) 0.29764(14) 0.2334(3)
H5 H 0.7370 0.3306 0.2885
C9 C 0.8591(2) 0.25219(13) 0.0994(3)
H6 H 0.9111 0.2462 0.0433
C10 C 0.3799(2) 0.05790(14) 0.4055(2)
C11 C 0.2918(2) 0.01438(13) 0.3388(2)
H7 H 0.2775 0.0050 0.2489
C12 C 0.2762(2) 0.01191(14) 0.5411(2)
H8 H 0.2506 0.0016 0.6179
N2 N 0.3683(2) 0.05492(13) 0.5350(2)
H12 H 0.4127 0.0769 0.6004
N3 N 0.84847(19) 0.31211(11) 0.1637(2)
N4 N 0.78499(19) 0.20043(11) 0.1251(2)
H13 H 0.7784 0.1573 0.0932
N1 N 0.22681(18) 0.98618(11) 0.4243(2)
O1 O 0.07486(17) 0.93361(10) 0.12393(17)
N6 N 0.15153(19) 0.81211(11) 0.3363(2)
H11 H 0.0356 0.9378 0.8695
C1_2 C 0.3918(3) 0.69972(17) 0.1171(3)
H1_2 H 0.3524 0.7373 0.0660
C2_2 C 0.4727(3) 0.65844(16) 0.0692(3)
C3_2 C 0.5334(2) 0.60247(14) 0.1422(2)
C4_2 C 0.5141(3) 0.59067(16) 0.2679(3)
H3_2 H 0.5568 0.5548 0.3205
C5_2 C 0.4325(3) 0.63138(17) 0.3156(3)
H4_2 H 0.4204 0.6220 0.3995
C6_2 C 0.3680(2) 0.68621(14) 0.2405(2)
C7_2 C 0.2783(2) 0.72860(13) 0.2887(2)
C8_2 C 0.2368(2) 0.79764(14) 0.2666(3)
H5_2 H 0.2630 0.8306 0.2115
C9_2 C 0.1409(2) 0.75219(13) 0.4006(3)
H6_2 H 0.0889 0.7462 0.4567
C10_2 C 0.6201(2) 0.55790(14) 0.0945(2)
C11_2 C 0.7082(2) 0.51438(13) 0.1612(2)
H7_2 H 0.7225 0.5050 0.2511
H11_2 H 0.9644 0.4378 0.6305
N1_2 N 0.77319(18) 0.48618(11) 0.0757(2)
N4_2 N 0.21501(19) 0.70043(11) 0.3749(2)
H13_2 H 0.2216 0.6573 0.4068
O1_2 O 0.92514(17) 0.43361(10) 0.37607(17)
H11_3 H 0.9644 0.0622 0.1305
O3 O 0.95328(16) 0.03715(10) 0.36633(17)
Cd2 Cd 0.941776(14) 0.077521(9) 0.634476(14)
N1_3 N 0.77319(18) 0.01382(11) 0.5757(2)
O1_3 O 0.92514(17) 0.06639(10) 0.87607(17)
N6_2 N 0.84847(19) 0.18789(11) 0.6637(2)
C1_3 C 0.3918(3) 0.80028(17) 0.6171(3)
H1_3 H 0.3524 0.7627 0.5660
C2_3 C 0.4727(3) 0.84156(16) 0.5692(3)
H2_2 H 0.4865 0.8315 0.4863
C3_3 C 0.5334(2) 0.89753(14) 0.6422(2)
C4_3 C 0.5141(3) 0.90933(16) 0.7679(3)
H3_3 H 0.5568 0.9452 0.8205
C5_3 C 0.4325(3) 0.86862(17) 0.8156(3)
H4_3 H 0.4204 0.8780 0.8995
C6_3 C 0.3680(2) 0.81379(14) 0.7405(2)
C7_3 C 0.2783(2) 0.77140(13) 0.7887(2)
C8_3 C 0.2368(2) 0.70236(14) 0.7666(3)
H5_3 H 0.2630 0.6694 0.7115
C9_3 C 0.1409(2) 0.74781(13) 0.9006(3)
H6_3 H 0.0889 0.7538 0.9567
C10_3 C 0.6201(2) 0.94210(14) 0.5945(2)
C11_3 C 0.7082(2) 0.98562(13) 0.6612(2)
H7_3 H 0.7225 0.9950 0.7511
C12_2 C 0.7238(2) 0.98809(14) 0.4589(2)
H8_2 H 0.7494 0.9984 0.3821
N2_2 N 0.6317(2) 0.94508(13) 0.4650(2)
H12_2 H 0.5873 0.9231 0.3996
N3_2 N 0.15153(19) 0.68789(11) 0.8363(2)
N4_3 N 0.21501(19) 0.79957(11) 0.8749(2)
H13_3 H 0.2216 0.8427 0.9068
Cd3 Cd 0.058224(14) 0.577521(9) 0.865524(14)
C1_4 C 0.6082(3) 0.30028(17) 0.8829(3)
H1_4 H 0.6476 0.2627 0.9340
C2_4 C 0.5273(3) 0.34156(16) 0.9308(3)
C3_4 C 0.4666(2) 0.39753(14) 0.8578(2)
C4_4 C 0.4859(3) 0.40933(16) 0.7321(3)
H3_4 H 0.4432 0.4452 0.6795
C5_4 C 0.5675(3) 0.36862(17) 0.6844(3)
H4_4 H 0.5796 0.3780 0.6005
C6_4 C 0.6320(2) 0.31379(14) 0.7595(2)
C7_4 C 0.7217(2) 0.27140(13) 0.7113(2)
C8_4 C 0.7632(2) 0.20236(14) 0.7334(3)
H5_4 H 0.7370 0.1694 0.7885
C9_4 C 0.8591(2) 0.24781(13) 0.5994(3)
H6_4 H 0.9111 0.2538 0.5433
C10_4 C 0.3799(2) 0.44210(14) 0.9055(2)
C11_4 C 0.2918(2) 0.48562(13) 0.8388(2)
H7_4 H 0.2775 0.4950 0.7489
H11_4 H 0.0356 0.5622 0.3695
N1_4 N 0.22681(18) 0.51382(11) 0.9243(2)
N4_4 N 0.78499(19) 0.29957(11) 0.6251(2)
H13_4 H 0.7784 0.3427 0.5932
O1_4 O 0.07486(17) 0.56639(10) 0.62393(17)
O3_2 O 0.04672(16) 0.53715(10) 0.13367(17)
C13_3 C 0.0716(2) 0.37790(12) 0.5433(2)
C14_3 C 0.1622(2) 0.32668(13) 0.5674(2)
H9_3 H 0.1983 0.3114 0.5005
C15_3 C 0.1971(2) 0.29902(13) 0.6936(2)
C16_3 C 0.1487(2) 0.32206(13) 0.7973(2)
H10_3 H 0.1740 0.3025 0.8811
C17_3 C 0.0232(2) 0.40250(12) 0.6464(2)
C18_3 C 0.0612(2) 0.37523(12) 0.7728(2)
C19_3 C 0.0092(2) 0.40420(13) 0.8835(2)
C20_3 C 0.0249(2) 0.40369(13) 0.4048(2)
N5_3 N 0.2897(2) 0.24345(12) 0.7184(2)
O2_3 O 0.08679(16) 0.39292(11) 0.32029(16)
O4_2 O 0.02608(18) 0.36721(10) 0.98819(16)
O5_3 O 0.3220(2) 0.21958(12) 0.82975(19)
O6_3 O 0.3317(3) 0.22338(15) 0.6261(2)
H2_3 H 0.5135 0.3315 0.0137
C12_3 C 0.2762(2) 0.48809(14) 0.0411(2)
H8_3 H 0.2506 0.4984 0.1179
N2_3 N 0.3683(2) 0.44508(13) 0.0350(2)
H12_3 H 0.4127 0.4231 0.1004
C20_4 C 0.9751(2) 0.90369(13) 0.0952(2)
O2_4 O 0.91321(16) 0.89292(11) 0.17971(16)
O8_2 O 0.97392(18) 0.86721(10) 0.51181(16)
C13_4 C 0.9284(2) 0.87790(12) 0.9567(2)
C14_4 C 0.8378(2) 0.82668(13) 0.9326(2)
H9_4 H 0.8017 0.8114 0.9995
C15_4 C 0.8029(2) 0.79902(13) 0.8064(2)
C16_4 C 0.8513(2) 0.82206(13) 0.7027(2)
H10_4 H 0.8260 0.8025 0.6189
C17_4 C 0.9768(2) 0.90250(12) 0.8536(2)
C18_4 C 0.9388(2) 0.87523(12) 0.7272(2)
C19_4 C 0.9908(2) 0.90420(13) 0.6165(2)
N5_4 N 0.7103(2) 0.74345(12) 0.7816(2)
O5_4 O 0.6780(2) 0.71958(12) 0.67025(19)
O6_4 O 0.6683(3) 0.72338(15) 0.8739(2)
H2_4 H 0.4865 0.6685 0.9863
C12_4 C 0.7238(2) 0.51191(14) 0.9589(2)
H8_4 H 0.7494 0.5016 0.8821
N2_4 N 0.6317(2) 0.55492(13) 0.9650(2)
H12_4 H 0.5873 0.5769 0.8996
loop_
_geom_bond_atom_site_label_1
_geom_bond_atom_site_label_2
_geom_bond_site_symmetry_1
_geom_bond_site_symmetry_2
C13 C14 1_555 1_555
C14 H9 1_555 1_555
C15 C14 1_555 1_555
C16 C15 1_555 1_555
H10 C16 1_555 1_555
C17 C13 1_555 1_555
C18 C16 1_555 1_555
C19 C18 1_555 1_555
N5 C15 1_555 1_555
O4 C19 1_555 1_555
O5 N5 1_555 1_555
O6 N5 1_555 1_555
C17 C18 1_555 1_555
C20 O2 1_555 1_555
C13_2 C14_2 1_555 1_555
C14_2 H9_2 1_555 1_555
C15_2 C14_2 1_555 1_555
C16_2 C15_2 1_555 1_555
H10_2 C16_2 1_555 1_555
C17_2 C13_2 1_555 1_555
C18_2 C16_2 1_555 1_555
C19_2 C18_2 1_555 1_555
C20_2 C13_2 1_555 1_555
N5_2 C15_2 1_555 1_555
O8 C19_2 1_555 1_555
O5_2 N5_2 1_555 1_555
O6_2 N5_2 1_555 1_555
C17_2 C18_2 1_555 1_555
C20_2 O2_2 1_555 1_555
C1 H1 1_555 1_555
C2 C1 1_555 1_555
H2 C2 1_555 1_555
C3 C2 1_555 1_555
C4 C3 1_555 1_555
H3 C4 1_555 1_555
C5 C4 1_555 1_555
H4 C5 1_555 1_555
C6 C1 1_555 1_555
C7 C6 1_555 1_555
C8 C7 1_555 1_555
H5 C8 1_555 1_555
C9 H6 1_555 1_555
C10 C3 1_555 1_555
C11 C10 1_555 1_555
H7 C11 1_555 1_555
C12 H8 1_555 1_555
N2 C10 1_555 1_555
H12 N2 1_555 1_555
N3 C8 1_555 1_555
N4 C7 1_555 1_555
H13 N4 1_555 1_555
Cd4_2 N3 1_555 1_555
C5 C6 1_555 1_555
C9 N3 1_555 1_555
C9 N4 1_555 1_555
C12 N2 1_555 1_555
Cd4 N1 1_555 1_555
O1 Cd4 1_555 1_555
N6 Cd4 1_555 1_555
Cd4_2 N1_2 1_555 1_555
C1_2 H1_2 1_555 1_555
C2_2 C1_2 1_555 1_555
C3_2 C2_2 1_555 1_555
C4_2 C3_2 1_555 1_555
H3_2 C4_2 1_555 1_555
C5_2 C4_2 1_555 1_555
H4_2 C5_2 1_555 1_555
C6_2 C1_2 1_555 1_555
C7_2 C6_2 1_555 1_555
C8_2 C7_2 1_555 1_555
H5_2 C8_2 1_555 1_555
C9_2 H6_2 1_555 1_555
C10_2 C3_2 1_555 1_555
C11_2 C10_2 1_555 1_555
H7_2 C11_2 1_555 1_555
N1_2 C11_2 1_555 1_555
N6 C8_2 1_555 1_555
N4_2 C7_2 1_555 1_555
H13_2 N4_2 1_555 1_555
O1_2 Cd4_2 1_555 1_555
C5_2 C6_2 1_555 1_555
C9_2 N6 1_555 1_555
C9_2 N4_2 1_555 1_555
Cd2 N1_3 1_555 1_555
O1_3 Cd2 1_555 1_555
N6_2 Cd2 1_555 1_555
C1_3 H1_3 1_555 1_555
C2_3 C1_3 1_555 1_555
H2_2 C2_3 1_555 1_555
C3_3 C2_3 1_555 1_555
C4_3 C3_3 1_555 1_555
H3_3 C4_3 1_555 1_555
C5_3 C4_3 1_555 1_555
H4_3 C5_3 1_555 1_555
C6_3 C1_3 1_555 1_555
C7_3 C6_3 1_555 1_555
C8_3 C7_3 1_555 1_555
H5_3 C8_3 1_555 1_555
C9_3 H6_3 1_555 1_555
C10_3 C3_3 1_555 1_555
C11_3 C10_3 1_555 1_555
H7_3 C11_3 1_555 1_555
C12_2 H8_2 1_555 1_555
N2_2 C10_3 1_555 1_555
H12_2 N2_2 1_555 1_555
N3_2 C8_3 1_555 1_555
N4_3 C7_3 1_555 1_555
H13_3 N4_3 1_555 1_555
Cd3 N3_2 1_555 1_555
C5_3 C6_3 1_555 1_555
C9_3 N3_2 1_555 1_555
C9_3 N4_3 1_555 1_555
C12_2 N2_2 1_555 1_555
Cd3 N1_4 1_555 1_555
C1_4 H1_4 1_555 1_555
C2_4 C1_4 1_555 1_555
C3_4 C2_4 1_555 1_555
C4_4 C3_4 1_555 1_555
H3_4 C4_4 1_555 1_555
C5_4 C4_4 1_555 1_555
H4_4 C5_4 1_555 1_555
C6_4 C1_4 1_555 1_555
C7_4 C6_4 1_555 1_555
C8_4 C7_4 1_555 1_555
H5_4 C8_4 1_555 1_555
C9_4 H6_4 1_555 1_555
C10_4 C3_4 1_555 1_555
C11_4 C10_4 1_555 1_555
H7_4 C11_4 1_555 1_555
N1_4 C11_4 1_555 1_555
N6_2 C8_4 1_555 1_555
N4_4 C7_4 1_555 1_555
H13_4 N4_4 1_555 1_555
O1_4 Cd3 1_555 1_555
C5_4 C6_4 1_555 1_555
C9_4 N6_2 1_555 1_555
C9_4 N4_4 1_555 1_555
C13_3 C14_3 1_555 1_555
C14_3 H9_3 1_555 1_555
C15_3 C14_3 1_555 1_555
C16_3 C15_3 1_555 1_555
H10_3 C16_3 1_555 1_555
C17_3 C13_3 1_555 1_555
C18_3 C16_3 1_555 1_555
C19_3 C18_3 1_555 1_555
C20_3 C13_3 1_555 1_555
N5_3 C15_3 1_555 1_555
O4_2 C19_3 1_555 1_555
O5_3 N5_3 1_555 1_555
O6_3 N5_3 1_555 1_555
C17_3 C18_3 1_555 1_555
C20_3 O2_3 1_555 1_555
C12_3 H8_3 1_555 1_555
H12_3 N2_3 1_555 1_555
C12_3 N2_3 1_555 1_555
C20_4 O2_4 1_555 1_555
C13_4 C14_4 1_555 1_555
C14_4 H9_4 1_555 1_555
C15_4 C14_4 1_555 1_555
C16_4 C15_4 1_555 1_555
H10_4 C16_4 1_555 1_555
C17_4 C13_4 1_555 1_555
C18_4 C16_4 1_555 1_555
C19_4 C18_4 1_555 1_555
N5_4 C15_4 1_555 1_555
O8_2 C19_4 1_555 1_555
O5_4 N5_4 1_555 1_555
O6_4 N5_4 1_555 1_555
C17_4 C18_4 1_555 1_555
C12_4 H8_4 1_555 1_555
H12_4 N2_4 1_555 1_555
C12_4 N2_4 1_555 1_555

#END
