
###############################################################################
#
# This file contains modified crystal structure data generated from the
# MOF subset of the Cambridge Structural Database (CSD) v543 
# hosted by the Cambridge Crystallographic Data Centre (CCDC).
#
# This work is licensed under the Creative Commons
# Attribution-NonCommercial-ShareAlike 4.0 International License.
# To view a copy of this license, visit
# http://creativecommons.org/licenses/by-nc-sa/4.0/
# or send a letter to
# Creative Commons, PO Box 1866, Mountain View, CA 94042, USA.
#
# CIF created using the CSD Python API on 29 September 2022
# The structure has been converted into the P1 space group
# The structure has a 3D framework
# The original CSD entry WINBED is in the triclinic crystal system
# The framework has been calculated to contain at least 10.0% void space
# The void calculation uses a probe of radius 1.32A, grid spacing 0.4
#
###############################################################################

data_WINBED
_chemical_formula_moiety         '(C68 H48 N4 O10)n'
_symmetry_cell_setting           triclinic
_symmetry_space_group_name_H-M   'P 1'
_symmetry_Int_Tables_number      1
_space_group_name_Hall           'P 1'
loop_
_symmetry_equiv_pos_site_id
_symmetry_equiv_pos_as_xyz
1 x,y,z
_cell_length_a                   10.745(9)
_cell_length_b                   12.783(11)
_cell_length_c                   15.272(13)
_cell_angle_alpha                104.653(11)
_cell_angle_beta                 109.205(10)
_cell_angle_gamma                104.051(11)
_cell_volume                     1790.34
loop_
_atom_site_label
_atom_site_type_symbol
_atom_site_fract_x
_atom_site_fract_y
_atom_site_fract_z
_atom_site_U_iso_or_equiv
_atom_site_thermal_displace_type
H22 H 0.651615 0.036861 0.085653 0.1220 Uiso
O4 O 0.6391(7) 0.0474(6) 0.2509(4) 0.0990 Uani
Cd1 Cd 0.38830(5) 0.00535(5) 0.60574(4) 0.0733 Uani
N5 N 0.6130(6) 0.1357(6) 0.7276(5) 0.0774 Uani
O12 O 0.3348(6) 0.0961(5) 0.4982(4) 0.0900 Uani
O16 O 0.2869(6) 0.0864(5) 0.7021(4) 0.0876 Uani
C15 C 0.9662(10) 0.4046(10) 0.9789(9) 0.1359 Uani
C16 C 0.8508(10) 0.3038(10) 0.8889(6) 0.1053 Uani
C17 C 0.7809(11) 0.2070(10) 0.8968(8) 0.1304 Uani
H13 H 0.811778 0.194475 0.957793 0.1570 Uiso
C18 C 0.6675(11) 0.1286(9) 0.8178(7) 0.1162 Uani
H14 H 0.620542 0.060956 0.825977 0.1400 Uiso
C19 C 0.6771(11) 0.2310(9) 0.7187(7) 0.1167 Uani
H15 H 0.639768 0.242281 0.657558 0.1400 Uiso
C20 C 0.8005(11) 0.3175(10) 0.7978(8) 0.1349 Uani
H16 H 0.848429 0.384186 0.788823 0.1620 Uiso
C36 C 0.0862(11) 0.1931(13) 0.5505(12) 0.1830 Uani
H26 H 0.161286 0.177772 0.536633 0.2200 Uiso
C37 C 0.1117(11) 0.2789(12) 0.6291(7) 0.1232 Uani
C38 C 0.0016(14) 0.2921(19) 0.6419(11) 0.2783 Uani
H27 H 0.014064 0.349604 0.700597 0.3350 Uiso
C40 C 0.2633(13) 0.3492(15) 0.7035(9) 0.1916 Uani
H29 H 0.318949 0.371748 0.669718 0.2300 Uiso
C41 C 0.3269(13) 0.3810(13) 0.7809(12) 0.1809 Uani
H30 H 0.269897 0.375125 0.816917 0.2170 Uiso
C42 C 0.4777(12) 0.4319(11) 0.8493(11) 0.1507 Uani
C43 C 0.5730(11) 0.5064(13) 0.8305(12) 0.1761 Uani
H31 H 0.543003 0.534698 0.778370 0.2110 Uiso
C44 C 0.7165(13) 0.5384(11) 0.8918(11) 0.1523 Uani
H32 H 0.783624 0.591177 0.880840 0.1830 Uiso
C45 C 0.7657(12) 0.4980(11) 0.9668(10) 0.1318 Uani
C46 C 0.6660(12) 0.4311(13) 0.9862(12) 0.1755 Uani
C47 C 0.5253(12) 0.3923(13) 0.9251(12) 0.1880 Uani
H34 H 0.459688 0.337140 0.935105 0.2260 Uiso
H36 H 0.994761 0.624930 0.967340 0.1630 Uiso
N3 N 0.8359(7) 0.1386(7) 0.4959(5) 0.0944 Uani
C35 C 0.9493(12) 0.1254(13) 0.4886(11) 0.1857 Uani
H25 H 0.934683 0.061317 0.433696 0.2230 Uiso
C39 C 0.8652(12) 0.2223(15) 0.5700(10) 0.2377 Uani
H28 H 0.789010 0.241171 0.579116 0.2850 Uiso
O6 O 0.5323(5) 0.1146(5) 0.4764(3) 0.0808 Uani
C55 C 0.4075(9) 0.1125(7) 0.4493(5) 0.0760 Uani
C56 C 0.3401(8) 0.1338(7) 0.3546(5) 0.0767 Uani
C57 C 0.4254(9) 0.1811(8) 0.3120(6) 0.0863 Uani
H41 H 0.525116 0.204563 0.344535 0.1030 Uiso
C58 C 0.3641(10) 0.1935(9) 0.2223(7) 0.1002 Uani
H42 H 0.421796 0.230851 0.195429 0.1200 Uiso
C59 C 0.2209(11) 0.1523(9) 0.1721(6) 0.0918 Uani
C60 C 0.1336(10) 0.1022(9) 0.2131(6) 0.0981 Uani
H43 H 0.033791 0.073924 0.178205 0.1180 Uiso
C61 C 0.1951(9) 0.0951(8) 0.3042(5) 0.0865 Uani
H44 H 0.137182 0.063057 0.333270 0.1040 Uiso
O8 O 0.1526(7) 0.1582(7) 0.0796(4) 0.1149 Uani
C62 C 0.1930(10) 0.1227(9) 0.0038(6) 0.0922 Uani
C63 C 0.2665(13) 0.0481(10) 0.0006(7) 0.1155 Uani
H45 H 0.293279 0.018702 0.052419 0.1380 Uiso
C64 C 0.3007(11) 0.0165(9) 0.9190(6) 0.1022 Uani
C65 C 0.2664(8) 0.0615(7) 0.8466(5) 0.0715 Uani
C66 C 0.1939(9) 0.1343(8) 0.8512(6) 0.0857 Uani
H47 H 0.168103 0.164343 0.799807 0.1020 Uiso
C67 C 0.1571(10) 0.1653(9) 0.9301(7) 0.0939 Uani
H48 H 0.106447 0.216605 0.932655 0.1130 Uiso
C68 C 0.3085(8) 0.0311(9) 0.7600(6) 0.0809 Uani
C30 C 0.6993(11) 0.9835(9) 0.0810(6) 0.1022 Uani
C31 C 0.7336(8) 0.9385(7) 0.1534(5) 0.0715 Uani
C32 C 0.8061(9) 0.8657(8) 0.1488(6) 0.0857 Uani
H23 H 0.831897 0.835657 0.200193 0.1020 Uiso
C33 C 0.8429(10) 0.8347(9) 0.0699(7) 0.0939 Uani
H24 H 0.893553 0.783395 0.067345 0.1130 Uiso
C34 C 0.6915(8) 0.9689(9) 0.2400(6) 0.0809 Uani
O5 O 0.7131(6) 0.9136(5) 0.2979(4) 0.0876 Uani
Cd8 Cd 0.61170(5) 0.99465(5) 0.39426(4) 0.0733 Uani
N1 N 0.1641(7) 0.8614(7) 0.5041(5) 0.0944 Uani
C1 C 0.0507(12) 0.8746(13) 0.5114(11) 0.1857 Uani
H1 H 0.065317 0.938683 0.566304 0.2230 Uiso
C5 C 0.1348(12) 0.7777(15) 0.4300(10) 0.2377 Uani
H4 H 0.210990 0.758829 0.420884 0.2850 Uiso
O1 O 0.4677(5) 0.8854(5) 0.5236(3) 0.0808 Uani
C21 C 0.5925(9) 0.8875(7) 0.5507(5) 0.0760 Uani
O2 O 0.6652(6) 0.9039(5) 0.5018(4) 0.0900 Uani
C22 C 0.6599(8) 0.8662(7) 0.6454(5) 0.0767 Uani
C23 C 0.5746(9) 0.8189(8) 0.6880(6) 0.0863 Uani
H17 H 0.474884 0.795437 0.655465 0.1030 Uiso
C24 C 0.6359(10) 0.8065(9) 0.7777(7) 0.1002 Uani
H18 H 0.578204 0.769149 0.804571 0.1200 Uiso
C25 C 0.7791(11) 0.8477(9) 0.8279(6) 0.0918 Uani
C26 C 0.8664(10) 0.8978(9) 0.7869(6) 0.0981 Uani
H19 H 0.966209 0.926076 0.821795 0.1180 Uiso
C27 C 0.8049(9) 0.9049(8) 0.6958(5) 0.0865 Uani
H20 H 0.862818 0.936943 0.666730 0.1040 Uiso
O3 O 0.8474(7) 0.8418(7) 0.9204(4) 0.1149 Uani
C28 C 0.8070(10) 0.8773(9) 0.9962(6) 0.0922 Uani
C29 C 0.7335(13) 0.9519(10) 0.9994(7) 0.1155 Uani
H21 H 0.706721 0.981298 0.947581 0.1380 Uiso
O14 O 0.3609(7) 0.9526(6) 0.7491(4) 0.0990 Uani
C2 C 0.9138(11) 0.8069(13) 0.4495(12) 0.1830 Uani
H2 H 0.838714 0.822228 0.463367 0.2200 Uiso
C3 C 0.8883(11) 0.7211(12) 0.3709(7) 0.1232 Uani
C4 C 0.9984(14) 0.7079(19) 0.3581(11) 0.2783 Uani
H3 H 0.985936 0.650396 0.299403 0.3350 Uiso
C6 C 0.7367(13) 0.6508(15) 0.2965(9) 0.1916 Uani
H5 H 0.681051 0.628252 0.330282 0.2300 Uiso
C7 C 0.6731(13) 0.6190(13) 0.2191(12) 0.1809 Uani
H6 H 0.730103 0.624875 0.183083 0.2170 Uiso
C8 C 0.5223(12) 0.5681(11) 0.1507(11) 0.1507 Uani
C9 C 0.4270(11) 0.4936(13) 0.1695(12) 0.1761 Uani
H7 H 0.456997 0.465302 0.221630 0.2110 Uiso
C10 C 0.2835(13) 0.4616(11) 0.1082(11) 0.1523 Uani
H8 H 0.216376 0.408823 0.119160 0.1830 Uiso
C11 C 0.2343(12) 0.5020(11) 0.0332(10) 0.1318 Uani
C12 C 0.3340(12) 0.5689(13) 0.0138(12) 0.1755 Uani
C13 C 0.4747(12) 0.6077(13) 0.0749(12) 0.1880 Uani
H10 H 0.540312 0.662860 0.064895 0.2260 Uiso
H12 H 0.005239 0.375070 0.032660 0.1630 Uiso
C49 C 0.0338(10) 0.5954(10) 0.0211(9) 0.1359 Uani
C50 C 0.1492(10) 0.6962(10) 0.1111(6) 0.1053 Uani
C51 C 0.2191(11) 0.7930(10) 0.1032(8) 0.1304 Uani
H37 H 0.188222 0.805525 0.042207 0.1570 Uiso
C52 C 0.3325(11) 0.8714(9) 0.1822(7) 0.1162 Uani
H38 H 0.379458 0.939044 0.174023 0.1400 Uiso
N4 N 0.3870(6) 0.8643(6) 0.2724(5) 0.0774 Uani
C53 C 0.3229(11) 0.7690(9) 0.2813(7) 0.1167 Uani
H39 H 0.360232 0.757719 0.342442 0.1400 Uiso
C54 C 0.1995(11) 0.6825(10) 0.2022(8) 0.1349 Uani
H40 H 0.151571 0.615814 0.211177 0.1620 Uiso
H46 H 0.348385 0.963139 0.914347 0.1220 Uiso
H9 H 0.305269 0.589112 0.956471 0.2110 Uiso
C14 C 0.0806(10) 0.4827(10) 0.9734(9) 0.1383 Uani
H11 H 0.062460 0.469956 0.902288 0.1660 Uiso
H33 H 0.694731 0.410888 0.043529 0.2110 Uiso
C48 C 0.9194(10) 0.5173(10) 0.0266(9) 0.1383 Uani
H35 H 0.937540 0.530044 0.097712 0.1660 Uiso
loop_
_atom_site_aniso_label
_atom_site_aniso_U_11
_atom_site_aniso_U_22
_atom_site_aniso_U_33
_atom_site_aniso_U_23
_atom_site_aniso_U_13
_atom_site_aniso_U_12
O4 0.101 0.13 0.07 0.023 0.047 0.046
Cd1 0.0448 0.1023 0.0386 0.0044 0.0067 0.0068
N5 0.056 0.084 0.057 0 0.012 0.01
O12 0.078 0.138 0.061 0.035 0.039 0.037
O16 0.085 0.124 0.063 0.038 0.038 0.038
C15 0.064 0.124 0.124 -0.027 0.005 -0.001
C16 0.065 0.132 0.052 -0.013 -0.009 0.02
C17 0.093 0.102 0.096 0.007 -0.027 -0.007
C18 0.097 0.104 0.08 0.025 -0.018 0.01
C19 0.1 0.113 0.067 0.003 0.018 -0.023
C20 0.08 0.133 0.096 -0.012 0.012 -0.029
C36 0.043 0.189 0.2 -0.024 0.006 0.01
C37 0.073 0.169 0.06 0.018 0.003 -0.009
C38 0.067 0.41 0.133 -0.115 0.035 -0.052
C40 0.081 0.265 0.1 0.052 -0.021 -0.053
C41 0.073 0.197 0.16 0.035 -0.037 0.013
C42 0.062 0.116 0.162 -0.009 -0.029 0.015
C43 0.052 0.178 0.191 0.019 0.001 -0.016
C44 0.087 0.144 0.134 0.007 0.005 -0.007
C45 0.064 0.123 0.119 -0.022 -0.009 0.021
C46 0.053 0.188 0.19 0.019 -0.004 0.014
C47 0.051 0.185 0.216 0.039 -0.024 0.004
N3 0.054 0.138 0.052 0.01 0.016 0.004
C35 0.057 0.188 0.192 -0.032 -0.002 0.027
C39 0.075 0.301 0.144 -0.128 0.055 -0.045
O6 0.057 0.105 0.047 0.001 0.01 0.018
C55 0.063 0.094 0.045 0.001 0.018 0.017
C56 0.064 0.098 0.044 0.01 0.015 0.016
C57 0.068 0.113 0.066 0.026 0.027 0.021
C58 0.079 0.146 0.082 0.05 0.037 0.037
C59 0.097 0.135 0.056 0.036 0.038 0.052
C60 0.069 0.154 0.059 0.03 0.022 0.035
C61 0.07 0.126 0.046 0.023 0.019 0.022
O8 0.118 0.195 0.068 0.059 0.05 0.088
C62 0.103 0.126 0.062 0.034 0.044 0.051
C63 0.15 0.162 0.077 0.056 0.064 0.089
C64 0.13 0.133 0.067 0.044 0.05 0.065
C65 0.062 0.093 0.049 0.018 0.019 0.024
C66 0.086 0.105 0.065 0.026 0.034 0.034
C67 0.089 0.129 0.086 0.044 0.048 0.054
C68 0.053 0.104 0.06 0.004 0.021 0.016
C30 0.13 0.133 0.067 0.044 0.05 0.065
C31 0.062 0.093 0.049 0.018 0.019 0.024
C32 0.086 0.105 0.065 0.026 0.034 0.034
C33 0.089 0.129 0.086 0.044 0.048 0.054
C34 0.053 0.104 0.06 0.004 0.021 0.016
O5 0.085 0.124 0.063 0.038 0.038 0.038
Cd8 0.0448 0.1023 0.0386 0.0044 0.0067 0.0068
N1 0.054 0.138 0.052 0.01 0.016 0.004
C1 0.057 0.188 0.192 -0.032 -0.002 0.027
C5 0.075 0.301 0.144 -0.128 0.055 -0.045
O1 0.057 0.105 0.047 0.001 0.01 0.018
C21 0.063 0.094 0.045 0.001 0.018 0.017
O2 0.078 0.138 0.061 0.035 0.039 0.037
C22 0.064 0.098 0.044 0.01 0.015 0.016
C23 0.068 0.113 0.066 0.026 0.027 0.021
C24 0.079 0.146 0.082 0.05 0.037 0.037
C25 0.097 0.135 0.056 0.036 0.038 0.052
C26 0.069 0.154 0.059 0.03 0.022 0.035
C27 0.07 0.126 0.046 0.023 0.019 0.022
O3 0.118 0.195 0.068 0.059 0.05 0.088
C28 0.103 0.126 0.062 0.034 0.044 0.051
C29 0.15 0.162 0.077 0.056 0.064 0.089
O14 0.101 0.13 0.07 0.023 0.047 0.046
C2 0.043 0.189 0.2 -0.024 0.006 0.01
C3 0.073 0.169 0.06 0.018 0.003 -0.009
C4 0.067 0.41 0.133 -0.115 0.035 -0.052
C6 0.081 0.265 0.1 0.052 -0.021 -0.053
C7 0.073 0.197 0.16 0.035 -0.037 0.013
C8 0.062 0.116 0.162 -0.009 -0.029 0.015
C9 0.052 0.178 0.191 0.019 0.001 -0.016
C10 0.087 0.144 0.134 0.007 0.005 -0.007
C11 0.064 0.123 0.119 -0.022 -0.009 0.021
C12 0.053 0.188 0.19 0.019 -0.004 0.014
C13 0.051 0.185 0.216 0.039 -0.024 0.004
C49 0.064 0.124 0.124 -0.027 0.005 -0.001
C50 0.065 0.132 0.052 -0.013 -0.009 0.02
C51 0.093 0.102 0.096 0.007 -0.027 -0.007
C52 0.097 0.104 0.08 0.025 -0.018 0.01
N4 0.056 0.084 0.057 0 0.012 0.01
C53 0.1 0.113 0.067 0.003 0.018 -0.023
C54 0.08 0.133 0.096 -0.012 0.012 -0.029
C14 0.054 0.138 0.137 -0.011 0.005 0.005
C48 0.054 0.138 0.137 -0.011 0.005 0.005
loop_
_geom_bond_atom_site_label_1
_geom_bond_atom_site_label_2
_geom_bond_site_symmetry_1
_geom_bond_site_symmetry_2
N5 Cd1 1_555 1_555
O12 Cd1 1_555 1_555
O16 Cd1 1_555 1_555
C16 C15 1_555 1_555
C17 C16 1_555 1_555
H13 C17 1_555 1_555
C18 C17 1_555 1_555
H14 C18 1_555 1_555
N5 C18 1_555 1_555
C19 N5 1_555 1_555
H15 C19 1_555 1_555
C20 C16 1_555 1_555
H16 C20 1_555 1_555
H26 C36 1_555 1_555
C37 C36 1_555 1_555
C38 C37 1_555 1_555
H27 C38 1_555 1_555
C40 C37 1_555 1_555
H29 C40 1_555 1_555
C41 C40 1_555 1_555
H30 C41 1_555 1_555
C42 C41 1_555 1_555
C43 C42 1_555 1_555
H31 C43 1_555 1_555
C44 C43 1_555 1_555
H32 C44 1_555 1_555
C45 C44 1_555 1_555
C46 C45 1_555 1_555
C47 C42 1_555 1_555
H34 C47 1_555 1_555
C19 C20 1_555 1_555
C46 C47 1_555 1_555
N3 C35 1_555 1_555
C35 H25 1_555 1_555
C39 N3 1_555 1_555
H28 C39 1_555 1_555
C55 O6 1_555 1_555
O12 C55 1_555 1_555
C56 C55 1_555 1_555
C57 C56 1_555 1_555
H41 C57 1_555 1_555
C58 C57 1_555 1_555
H42 C58 1_555 1_555
C59 C58 1_555 1_555
C60 C59 1_555 1_555
H43 C60 1_555 1_555
C61 C56 1_555 1_555
H44 C61 1_555 1_555
O8 C59 1_555 1_555
C62 O8 1_555 1_555
C63 C62 1_555 1_555
H45 C63 1_555 1_555
C60 C61 1_555 1_555
C65 C64 1_555 1_555
C66 C65 1_555 1_555
H47 C66 1_555 1_555
H48 C67 1_555 1_555
C68 C65 1_555 1_555
O16 C68 1_555 1_555
C66 C67 1_555 1_555
C31 C30 1_555 1_555
C32 C31 1_555 1_555
H23 C32 1_555 1_555
H24 C33 1_555 1_555
C34 C31 1_555 1_555
O5 C34 1_555 1_555
C32 C33 1_555 1_555
O5 Cd8 1_555 1_555
N1 C1 1_555 1_555
C1 H1 1_555 1_555
C5 N1 1_555 1_555
H4 C5 1_555 1_555
C21 O1 1_555 1_555
O2 C21 1_555 1_555
C22 C21 1_555 1_555
C23 C22 1_555 1_555
H17 C23 1_555 1_555
C24 C23 1_555 1_555
H18 C24 1_555 1_555
C25 C24 1_555 1_555
C26 C25 1_555 1_555
H19 C26 1_555 1_555
C27 C22 1_555 1_555
H20 C27 1_555 1_555
O3 C25 1_555 1_555
C28 O3 1_555 1_555
C29 C28 1_555 1_555
H21 C29 1_555 1_555
Cd8 O2 1_555 1_555
C26 C27 1_555 1_555
H2 C2 1_555 1_555
C3 C2 1_555 1_555
C4 C3 1_555 1_555
H3 C4 1_555 1_555
C6 C3 1_555 1_555
H5 C6 1_555 1_555
C7 C6 1_555 1_555
H6 C7 1_555 1_555
C8 C7 1_555 1_555
C9 C8 1_555 1_555
H7 C9 1_555 1_555
C10 C9 1_555 1_555
H8 C10 1_555 1_555
C11 C10 1_555 1_555
C12 C11 1_555 1_555
C13 C8 1_555 1_555
H10 C13 1_555 1_555
C50 C49 1_555 1_555
C51 C50 1_555 1_555
H37 C51 1_555 1_555
C52 C51 1_555 1_555
H38 C52 1_555 1_555
N4 C52 1_555 1_555
C53 N4 1_555 1_555
H39 C53 1_555 1_555
C54 C50 1_555 1_555
H40 C54 1_555 1_555
Cd8 N4 1_555 1_555
C12 C13 1_555 1_555
C53 C54 1_555 1_555
H11 C14 1_555 1_555
H35 C48 1_555 1_555

#END
