
###############################################################################
#
# This file contains modified crystal structure data generated from the
# MOF subset of the Cambridge Structural Database (CSD) v543 
# hosted by the Cambridge Crystallographic Data Centre (CCDC).
#
# This work is licensed under the Creative Commons
# Attribution-NonCommercial-ShareAlike 4.0 International License.
# To view a copy of this license, visit
# http://creativecommons.org/licenses/by-nc-sa/4.0/
# or send a letter to
# Creative Commons, PO Box 1866, Mountain View, CA 94042, USA.
#
# CIF created using the CSD Python API on 29 September 2022
# The structure has been converted into the P1 space group
# The structure has a 3D framework
# The original CSD entry WINJAG is in the monoclinic crystal system
# The framework has been calculated to contain at least 10.0% void space
# The void calculation uses a probe of radius 1.32A, grid spacing 0.4
# The framework is charged, counterions have been retained in the structure
# H atom positions have been added when not included in the experimental data
#
###############################################################################

data_WINJAG
_chemical_formula_moiety         '(C44 H28 N12 O26 Pr4)n'
_symmetry_cell_setting           triclinic
_symmetry_space_group_name_H-M   'P 1'
_symmetry_Int_Tables_number      1
_space_group_name_Hall           'P 1'
loop_
_symmetry_equiv_pos_site_id
_symmetry_equiv_pos_as_xyz
1 x,y,z
_cell_length_a                   8.223(4)
_cell_length_b                   15.256(7)
_cell_length_c                   11.677(5)
_cell_angle_alpha                90
_cell_angle_beta                 90.00
_cell_angle_gamma                90
_cell_volume                     1464.88
loop_
_atom_site_label
_atom_site_type_symbol
_atom_site_fract_x
_atom_site_fract_y
_atom_site_fract_z
Pr6 Pr 0.28714(4) 0.131524(18) 0.06890(3)
Pr1 Pr 0.28714(4) 0.368476(18) 0.56890(3)
O1 O 0.2876(5) 0.3321(3) 0.7733(4)
O2 O 0.2916(5) 0.2341(3) 0.9121(4)
O3 O 0.5060(6) 0.0882(3) 0.9495(4)
O5 O 0.1439(6) 0.4483(3) 0.4124(4)
O7 O 0.0638(6) 0.2630(4) 0.6023(5)
H2 H 0.096(6) 0.215(3) 0.621(7)
N1 N 0.4771(6) 0.2390(3) 0.6318(4)
N2 N 0.5916(7) 0.1087(4) 0.6507(5)
N3 N 0.8369(8) 0.2056(5) 0.2712(5)
C1 C 0.3315(7) 0.2597(4) 0.8153(5)
C2 C 0.4383(7) 0.2056(4) 0.7401(5)
C3 C 0.5120(8) 0.1246(3) 0.7525(5)
C4 C 0.5695(8) 0.1784(4) 0.5831(5)
C5 C 0.6581(8) 0.1874(4) 0.4710(5)
C6 C 0.7484(9) 0.2627(5) 0.4523(6)
C7 C 0.8364(10) 0.2675(5) 0.3480(7)
C8 C 0.7461(12) 0.1339(5) 0.2890(7)
C9 C 0.6539(10) 0.1215(5) 0.3888(7)
C10 C 0.5374(8) 0.0626(4) 0.8486(5)
C11 C 0.0267(8) 0.4974(4) 0.4351(5)
O9 O 0.0516(7) 0.4580(4) 0.6325(4)
H3 H 0.011(7) 0.716(3) 0.361(7)
O16 O 0.2916(5) 0.2659(3) 0.4121(4)
O18 O 0.5060(6) 0.4118(3) 0.4495(4)
O19 O 0.4015(7) 0.4905(3) 0.6765(4)
H9 H 0.751681 0.315708 0.514717
H10 H 0.581711 0.0624392 0.401414
H11 H 0.9049 0.211543 0.199073
H12 H 0.743808 0.0832254 0.223337
H13 H 0.907597 0.326298 0.331192
O4 O 0.5985(7) 0.9905(3) 0.8235(4)
Pr4 Pr 0.71286(4) 0.868476(18) 0.93110(3)
O13 O 0.4015(7) 0.0095(3) 0.1765(4)
O6 O 0.9484(7) 0.5420(4) 0.3675(4)
H1 H 0.989(7) 0.284(3) 0.639(7)
O8 O 0.8561(6) 0.5517(3) 0.5876(4)
C12 C 0.9733(8) 0.5026(4) 0.5649(5)
Pr2 Pr 0.71286(4) 0.631524(18) 0.43110(3)
O10 O 0.7124(5) 0.6679(3) 0.2267(4)
O11 O 0.7084(5) 0.7659(3) 0.0879(4)
O12 O 0.4940(6) 0.9118(3) 0.0505(4)
O14 O 0.9362(6) 0.7370(4) 0.3977(5)
H4 H 0.904(6) 0.785(3) 0.379(7)
N4 N 0.5229(6) 0.7610(3) 0.3682(4)
N5 N 0.4084(7) 0.8913(4) 0.3493(5)
N6 N 0.1631(8) 0.7944(5) 0.7288(5)
C13 C 0.6685(7) 0.7403(4) 0.1847(5)
C14 C 0.5617(7) 0.7944(4) 0.2599(5)
C15 C 0.4880(8) 0.8754(3) 0.2475(5)
C16 C 0.4305(8) 0.8216(4) 0.4169(5)
C17 C 0.3419(8) 0.8126(4) 0.5290(5)
C18 C 0.2516(9) 0.7373(5) 0.5477(6)
C19 C 0.1636(10) 0.7325(5) 0.6520(7)
C20 C 0.2539(12) 0.8661(5) 0.7110(7)
C21 C 0.3461(10) 0.8785(5) 0.6112(7)
C22 C 0.4626(8) 0.9374(4) 0.1514(5)
O15 O 0.7084(5) 0.7341(3) 0.5879(4)
O17 O 0.4940(6) 0.5882(3) 0.5505(4)
O20 O 0.5985(7) 0.5095(3) 0.3235(4)
H5 H 0.248319 0.684292 0.485283
H6 H 0.256192 0.916775 0.776663
H7 H 0.0924028 0.673702 0.668808
H8 H 0.418289 0.937561 0.598586
H14 H 0.0951004 0.788457 0.800927
O6_2 O 0.0516(7) 0.0420(4) 0.1325(4)
O10_2 O 0.2876(5) 0.1679(3) 0.2733(4)
O14_2 O 0.0638(6) 0.2370(4) 0.1023(5)
H4_2 H 0.096(6) 0.285(3) 0.121(7)
N4_2 N 0.4771(6) 0.2610(3) 0.1318(4)
N5_2 N 0.5916(7) 0.3913(4) 0.1507(5)
C13_2 C 0.3315(7) 0.2403(4) 0.3153(5)
C14_2 C 0.4383(7) 0.2944(4) 0.2401(5)
C15_2 C 0.5120(8) 0.3754(3) 0.2525(5)
C16_2 C 0.5695(8) 0.3216(4) 0.0831(5)
C22_2 C 0.5374(8) 0.4374(4) 0.3486(5)
H5_2 H 0.751681 0.184292 0.0147168
O8_2 O 0.1439(6) 0.0517(3) 0.9124(4)
C12_2 C 0.0267(8) 0.0026(4) 0.9351(5)
N6_2 N 0.8369(8) 0.2944(5) 0.7712(5)
C17_2 C 0.6581(8) 0.3126(4) 0.9710(5)
C18_2 C 0.7484(9) 0.2373(5) 0.9523(6)
C19_2 C 0.8364(10) 0.2325(5) 0.8480(7)
C20_2 C 0.7461(12) 0.3661(5) 0.7890(7)
C21_2 C 0.6539(10) 0.3785(5) 0.8888(7)
H6_2 H 0.743808 0.416775 0.723337
H7_2 H 0.907597 0.173702 0.831192
H8_2 H 0.581711 0.437561 0.901414
H14_2 H 0.9049 0.288457 0.699073
O5_2 O 0.8561(6) 0.9483(3) 0.0876(4)
N3_2 N 0.1631(8) 0.7056(5) 0.2288(5)
C5_2 C 0.3419(8) 0.6874(4) 0.0290(5)
C6_2 C 0.2516(9) 0.7627(5) 0.0477(6)
C7_2 C 0.1636(10) 0.7675(5) 0.1520(7)
C8_2 C 0.2539(12) 0.6339(5) 0.2110(7)
C9_2 C 0.3461(10) 0.6215(5) 0.1112(7)
C11_2 C 0.9733(8) 0.9974(4) 0.0649(5)
H10_2 H 0.418289 0.562439 0.0985863
H11_2 H 0.0951004 0.711543 0.300927
H12_2 H 0.256192 0.583225 0.276663
H13_2 H 0.0924028 0.826298 0.168808
O1_2 O 0.7124(5) 0.8321(3) 0.7267(4)
O7_2 O 0.9362(6) 0.7630(4) 0.8977(5)
H2_2 H 0.904(6) 0.715(3) 0.879(7)
N1_2 N 0.5229(6) 0.7390(3) 0.8682(4)
N2_2 N 0.4084(7) 0.6087(4) 0.8493(5)
C1_2 C 0.6685(7) 0.7597(4) 0.6847(5)
C2_2 C 0.5617(7) 0.7056(4) 0.7599(5)
C3_2 C 0.4880(8) 0.6246(3) 0.7475(5)
C4_2 C 0.4305(8) 0.6784(4) 0.9169(5)
C10_2 C 0.4626(8) 0.5626(4) 0.6514(5)
O9_2 O 0.9484(7) 0.9580(4) 0.8675(4)
H9_2 H 0.248319 0.815708 0.985283
H1_2 H 0.011(7) 0.784(3) 0.861(7)
H3_2 H 0.989(7) 0.216(3) 0.139(7)
loop_
_geom_bond_atom_site_label_1
_geom_bond_atom_site_label_2
_geom_bond_site_symmetry_1
_geom_bond_site_symmetry_2
Pr1 O1 1_555 1_555
O1 C1 1_555 1_555
O2 C1 1_555 1_555
O3 C10 1_555 1_555
O5 Pr1 1_555 1_555
O7 Pr1 1_555 1_555
H2 O7 1_555 1_555
N1 Pr1 1_555 1_555
N2 C3 1_555 1_555
N3 C7 1_555 1_555
C1 C2 1_555 1_555
C2 N1 1_555 1_555
C3 C2 1_555 1_555
C4 N1 1_555 1_555
C5 C4 1_555 1_555
C6 C5 1_555 1_555
C7 C6 1_555 1_555
C8 N3 1_555 1_555
C9 C5 1_555 1_555
C10 C3 1_555 1_555
C11 O5 1_555 1_555
O9 Pr1 1_555 1_555
O16 Pr1 1_555 1_555
O18 Pr1 1_555 1_555
O19 Pr1 1_555 1_555
N2 C4 1_555 1_555
C8 C9 1_555 1_555
C6 H9 1_555 1_555
C9 H10 1_555 1_555
N3 H11 1_555 1_555
C8 H12 1_555 1_555
C7 H13 1_555 1_555
Pr4 O4 1_555 1_555
Pr6 O13 1_555 1_555
O8 C12 1_555 1_555
Pr2 O6 1_555 1_555
O10 Pr2 1_555 1_555
O11 C13 1_555 1_555
O12 C22 1_555 1_555
O14 Pr2 1_555 1_555
H4 O14 1_555 1_555
N4 Pr2 1_555 1_555
N5 C15 1_555 1_555
N6 C19 1_555 1_555
C13 O10 1_555 1_555
C14 N4 1_555 1_555
C15 C14 1_555 1_555
C16 N4 1_555 1_555
C17 C16 1_555 1_555
C18 C17 1_555 1_555
C19 C18 1_555 1_555
C20 N6 1_555 1_555
C21 C17 1_555 1_555
C22 C15 1_555 1_555
O15 Pr2 1_555 1_555
O17 Pr2 1_555 1_555
O20 Pr2 1_555 1_555
O8 Pr2 1_555 1_555
N5 C16 1_555 1_555
C13 C14 1_555 1_555
C20 C21 1_555 1_555
C18 H5 1_555 1_555
C20 H6 1_555 1_555
C19 H7 1_555 1_555
C21 H8 1_555 1_555
N6 H14 1_555 1_555
Pr6 O6_2 1_555 1_555
O10_2 Pr6 1_555 1_555
O16 C13_2 1_555 1_555
O18 C22_2 1_555 1_555
O20 C22_2 1_555 1_555
O14_2 Pr6 1_555 1_555
H4_2 O14_2 1_555 1_555
N4_2 Pr6 1_555 1_555
N5_2 C15_2 1_555 1_555
C13_2 O10_2 1_555 1_555
C14_2 N4_2 1_555 1_555
C15_2 C14_2 1_555 1_555
C16_2 N4_2 1_555 1_555
C22_2 C15_2 1_555 1_555
N5_2 C16_2 1_555 1_555
C13_2 C14_2 1_555 1_555
O8_2 C12_2 1_555 1_555
N6_2 C19_2 1_555 1_555
C18_2 C17_2 1_555 1_555
C19_2 C18_2 1_555 1_555
C20_2 N6_2 1_555 1_555
C21_2 C17_2 1_555 1_555
C20_2 C21_2 1_555 1_555
C20_2 H6_2 1_555 1_555
C19_2 H7_2 1_555 1_555
C21_2 H8_2 1_555 1_555
N6_2 H14_2 1_555 1_555
N3_2 C7_2 1_555 1_555
C6_2 C5_2 1_555 1_555
C7_2 C6_2 1_555 1_555
C8_2 N3_2 1_555 1_555
C9_2 C5_2 1_555 1_555
C11_2 O5_2 1_555 1_555
C8_2 C9_2 1_555 1_555
C9_2 H10_2 1_555 1_555
N3_2 H11_2 1_555 1_555
C8_2 H12_2 1_555 1_555
C7_2 H13_2 1_555 1_555
Pr4 O1_2 1_555 1_555
O1_2 C1_2 1_555 1_555
O15 C1_2 1_555 1_555
O17 C10_2 1_555 1_555
O19 C10_2 1_555 1_555
O7_2 Pr4 1_555 1_555
H2_2 O7_2 1_555 1_555
N1_2 Pr4 1_555 1_555
N2_2 C3_2 1_555 1_555
C1_2 C2_2 1_555 1_555
C2_2 N1_2 1_555 1_555
C3_2 C2_2 1_555 1_555
C4_2 N1_2 1_555 1_555
C10_2 C3_2 1_555 1_555
O9_2 Pr4 1_555 1_555
N2_2 C4_2 1_555 1_555

#END
