
###############################################################################
#
# This file contains modified crystal structure data generated from the
# MOF subset of the Cambridge Structural Database (CSD) v543 
# hosted by the Cambridge Crystallographic Data Centre (CCDC).
#
# This work is licensed under the Creative Commons
# Attribution-NonCommercial-ShareAlike 4.0 International License.
# To view a copy of this license, visit
# http://creativecommons.org/licenses/by-nc-sa/4.0/
# or send a letter to
# Creative Commons, PO Box 1866, Mountain View, CA 94042, USA.
#
# CIF created using the CSD Python API on 29 September 2022
# The structure has been converted into the P1 space group
# The structure has a 3D framework
# The original CSD entry WIQRUL is in the monoclinic crystal system
# The framework has been calculated to contain at least 10.0% void space
# The void calculation uses a probe of radius 1.32A, grid spacing 0.4
#
###############################################################################

data_WIQRUL
_chemical_formula_moiety         '(C96 H72 Cu8 N16 O30)n'
_symmetry_cell_setting           triclinic
_symmetry_space_group_name_H-M   'P 1'
_symmetry_Int_Tables_number      1
_space_group_name_Hall           'P 1'
loop_
_symmetry_equiv_pos_site_id
_symmetry_equiv_pos_as_xyz
1 x,y,z
_cell_length_a                   10.7156(3)
_cell_length_b                   19.5879(6)
_cell_length_c                   13.7950(3)
_cell_angle_alpha                90
_cell_angle_beta                 104.498(2)
_cell_angle_gamma                90
_cell_volume                     2803.31
loop_
_atom_site_label
_atom_site_type_symbol
_atom_site_fract_x
_atom_site_fract_y
_atom_site_fract_z
Cu2 Cu 0.25407(4) 0.47412(2) 0.20494(3)
O1 O 0.7915(2) 0.59787(14) 0.49704(17)
O4 O 0.5929(3) 0.59425(18) 0.5188(2)
O7 O 0.2759(3) 0.41110(14) 0.09065(18)
N2 N 0.2426(3) 0.55463(17) 0.1031(2)
H1 H 0.0111 0.0592 0.0288
N3 N 0.4553(3) 0.48820(16) 0.2574(2)
O9 O 0.2635(4) 0.30779(15) 0.1556(2)
C2 C 0.6313(4) 0.54216(19) 0.3747(2)
H2 H 0.1920 0.2232 0.0201
C8 C 0.1529(3) 0.5502(2) 0.0164(2)
H3 H 0.1003 0.5117 0.0060
C10 C 0.5038(4) 0.52252(19) 0.3419(2)
H4 H 0.4481 0.5340 0.3813
C12 C 0.2514(4) 0.3486(2) 0.0847(3)
C17 C 0.3214(5) 0.6078(2) 0.1143(4)
H10 H 0.3854 0.6119 0.1736
C18 C 0.6747(4) 0.5815(2) 0.4713(2)
C19 C 0.6663(4) 0.4851(3) 0.2317(3)
H11 H 0.7206 0.4710 0.1925
C20 C 0.7154(4) 0.5215(2) 0.3186(3)
H12 H 0.8028 0.5320 0.3390
C21 C 0.3127(5) 0.6571(3) 0.0423(4)
H13 H 0.3702 0.6935 0.0535
C24 C 0.5374(4) 0.4696(2) 0.2034(3)
H16 H 0.5059 0.4453 0.1444
Cu4 Cu 0.90549(4) 0.61825(2) 0.63953(3)
O10 O 0.2085(2) 0.09787(14) 0.00296(17)
O12 O 0.2593(2) 0.39070(14) 0.30209(19)
O14 O 0.2294(2) 0.53999(13) 0.31216(18)
O15 O 0.0575(3) 0.45456(14) 0.14506(18)
Cu1 Cu 0.09451(4) 0.11825(2) 0.86047(3)
O2 O 0.0214(2) 0.63012(12) 0.77854(17)
O3 O 0.2593(2) 0.10930(14) 0.80209(19)
N4 N 0.1251(3) 0.22457(16) 0.8746(2)
C3 C 0.0224(4) 0.59048(19) 0.8498(2)
C4 C 0.1737(3) 0.25206(19) 0.9648(3)
C6 C 0.1324(4) 0.59826(19) 0.9412(3)
C7 C 0.1980(4) 0.3202(2) 0.9802(3)
C11 C 0.1668(5) 0.3634(3) 0.8978(4)
H5 H 0.1807 0.4102 0.9055
C15 C 0.0978(5) 0.2655(2) 0.7963(3)
H8 H 0.0658 0.2465 0.7331
C16 C 0.1150(6) 0.3357(3) 0.8043(4)
H9 H 0.0921 0.3635 0.7480
C22 C 0.2186(5) 0.6529(3) 0.9529(4)
H14 H 0.2131 0.6853 0.9027
H17 H 0.268(4) 0.136(3) 0.762(3)
H18 H 0.314(3) 0.100(3) 0.852(3)
Cu8 Cu 0.25407(4) 0.02588(2) 0.70494(3)
O13 O 0.0649(3) 0.01248(13) 0.85537(18)
O6 O 0.7706(2) 0.03999(13) 0.18784(18)
C1 C 0.9381(4) 0.08553(19) 0.0029(3)
C5 C 0.8396(4) 0.08217(19) 0.0498(3)
C9 C 0.8503(4) 0.03277(19) 0.1354(3)
C23 C 0.7295(5) 0.1198(2) 0.0098(3)
H15 H 0.6606 0.1196 0.0396
N1 N 0.9367(3) 0.12398(15) 0.9226(2)
O8 O 0.9425(3) 0.54544(14) 0.85494(18)
C13 C 0.7243(5) 0.1577(3) 0.9245(4)
H6 H 0.6499 0.1817 0.8943
C14 C 0.8289(4) 0.1597(2) 0.8844(3)
H7 H 0.8251 0.1870 0.8286
Cu7 Cu 0.74593(4) 0.52588(2) 0.79506(3)
O11 O 0.9786(2) 0.13012(12) 0.72146(17)
O5 O 0.9351(3) 0.98752(13) 0.14463(18)
Cu5 Cu 0.90549(4) 0.88175(2) 0.13953(3)
Cu6 Cu 0.74593(4) 0.97412(2) 0.29506(3)
O8_2 O 0.0575(3) 0.04544(14) 0.64506(18)
O5_2 O 0.0649(3) 0.48752(13) 0.35537(18)
N1_2 N 0.0633(3) 0.62398(15) 0.5774(2)
C1_2 C 0.0619(4) 0.58553(19) 0.4971(3)
C5_2 C 0.1604(4) 0.58217(19) 0.4502(3)
C9_2 C 0.1497(4) 0.53277(19) 0.3646(3)
C13_2 C 0.2757(5) 0.6577(3) 0.5755(4)
H6_2 H 0.3501 0.6817 0.6057
C14_2 C 0.1711(4) 0.6597(2) 0.6156(3)
H7_2 H 0.1749 0.6870 0.6714
C23_2 C 0.2705(5) 0.6198(2) 0.4902(3)
H15_2 H 0.3394 0.6196 0.4604
Cu5_2 Cu 0.09451(4) 0.38175(2) 0.36047(3)
N2_2 N 0.7574(3) 0.05463(17) 0.3969(2)
C2_2 C 0.3687(4) 0.04216(19) 0.1253(2)
C3_2 C 0.9776(4) 0.09048(19) 0.6502(2)
C6_2 C 0.8676(4) 0.09826(19) 0.5588(3)
C8_2 C 0.8471(3) 0.0502(2) 0.4836(2)
H3_2 H 0.8997 0.0117 0.4940
C10_2 C 0.4962(4) 0.02252(19) 0.1581(2)
H4_2 H 0.5519 0.0340 0.1187
C17_2 C 0.6786(5) 0.1078(2) 0.3857(4)
H10_2 H 0.6146 0.1119 0.3264
C18_2 C 0.3253(4) 0.0815(2) 0.0287(2)
C20_2 C 0.2846(4) 0.0215(2) 0.1814(3)
H12_2 H 0.1972 0.0320 0.1610
C21_2 C 0.6873(5) 0.1571(3) 0.4577(4)
H13_2 H 0.6298 0.1935 0.4465
C22_2 C 0.7814(5) 0.1529(3) 0.5471(4)
H14_2 H 0.7869 0.1853 0.5973
O4_2 O 0.4071(3) 0.09425(18) 0.9812(2)
O3_2 O 0.7407(2) 0.60930(14) 0.69791(19)
O7_2 O 0.7241(3) 0.91110(14) 0.40935(18)
H1_2 H 0.9889 0.5592 0.4712
N3_2 N 0.5447(3) 0.98820(16) 0.2426(2)
N4_2 N 0.8749(3) 0.72457(16) 0.6254(2)
O9_2 O 0.7365(4) 0.80779(15) 0.3444(2)
C4_2 C 0.8263(3) 0.75206(19) 0.5352(3)
H2_2 H 0.8080 0.7232 0.4799
C7_2 C 0.8020(4) 0.8202(2) 0.5198(3)
C11_2 C 0.8332(5) 0.8634(3) 0.6022(4)
H5_2 H 0.8193 0.9102 0.5945
C12_2 C 0.7486(4) 0.8486(2) 0.4153(3)
C15_2 C 0.9022(5) 0.7655(2) 0.7037(3)
H8_2 H 0.9342 0.7465 0.7669
C16_2 C 0.8850(6) 0.8357(3) 0.6957(4)
H9_2 H 0.9079 0.8635 0.7520
C19_2 C 0.3337(4) 0.9851(3) 0.2683(3)
H11_2 H 0.2794 0.9710 0.3075
C24_2 C 0.4626(4) 0.9696(2) 0.2966(3)
H16_2 H 0.4941 0.9453 0.3556
H17_2 H 0.732(4) 0.636(3) 0.738(3)
H18_2 H 0.686(3) 0.600(3) 0.648(3)
O12_2 O 0.7407(2) 0.89070(14) 0.19791(19)
O13_2 O 0.9351(3) 0.51248(13) 0.64463(18)
O15_2 O 0.9425(3) 0.95456(14) 0.35494(18)
N1_3 N 0.0633(3) 0.87602(15) 0.0774(2)
C13_3 C 0.2757(5) 0.8423(3) 0.0755(4)
H6_3 H 0.3501 0.8183 0.1057
C14_3 C 0.1711(4) 0.8403(2) 0.1156(3)
H7_3 H 0.1749 0.8130 0.1714
O11_2 O 0.0214(2) 0.86988(12) 0.27854(17)
O6_2 O 0.2294(2) 0.96001(13) 0.81216(18)
C1_3 C 0.0619(4) 0.91447(19) 0.9971(3)
C5_3 C 0.1604(4) 0.91783(19) 0.9502(3)
C9_3 C 0.1497(4) 0.96723(19) 0.8646(3)
C23_3 C 0.2705(5) 0.8802(2) 0.9902(3)
H15_3 H 0.3394 0.8804 0.9604
O2_2 O 0.9786(2) 0.36988(12) 0.22146(17)
N4_3 N 0.8749(3) 0.77543(16) 0.1254(2)
C3_3 C 0.9776(4) 0.40952(19) 0.1502(2)
C4_3 C 0.8263(3) 0.74794(19) 0.0352(3)
C6_3 C 0.8676(4) 0.40174(19) 0.0588(3)
C7_3 C 0.8020(4) 0.6798(2) 0.0198(3)
C11_3 C 0.8332(5) 0.6366(3) 0.1022(4)
H5_3 H 0.8193 0.5898 0.0945
C15_3 C 0.9022(5) 0.7345(2) 0.2037(3)
H8_3 H 0.9342 0.7535 0.2669
C16_3 C 0.8850(6) 0.6643(3) 0.1957(4)
H9_3 H 0.9079 0.6365 0.2520
C22_3 C 0.7814(5) 0.3471(3) 0.0471(4)
H14_3 H 0.7869 0.3147 0.0973
H17_3 H 0.732(4) 0.864(3) 0.238(3)
H18_3 H 0.686(3) 0.900(3) 0.148(3)
O1_2 O 0.2085(2) 0.40213(14) 0.50296(17)
O4_3 O 0.4071(3) 0.40575(18) 0.4812(2)
O7_3 O 0.7241(3) 0.58890(14) 0.90935(18)
N2_3 N 0.7574(3) 0.44537(17) 0.8969(2)
H1_3 H 0.9889 0.9408 0.9712
N3_3 N 0.5447(3) 0.51180(16) 0.7426(2)
O9_3 O 0.7365(4) 0.69221(15) 0.8444(2)
C2_3 C 0.3687(4) 0.45784(19) 0.6253(2)
H2_3 H 0.8080 0.7768 0.9799
C8_3 C 0.8471(3) 0.4498(2) 0.9836(2)
H3_3 H 0.8997 0.4883 0.9940
C10_3 C 0.4962(4) 0.47748(19) 0.6581(2)
H4_3 H 0.5519 0.4660 0.6187
C12_3 C 0.7486(4) 0.6514(2) 0.9153(3)
C17_3 C 0.6786(5) 0.3922(2) 0.8857(4)
H10_3 H 0.6146 0.3881 0.8264
C18_3 C 0.3253(4) 0.4185(2) 0.5287(2)
C19_3 C 0.3337(4) 0.5149(3) 0.7683(3)
H11_3 H 0.2794 0.5290 0.8075
C20_3 C 0.2846(4) 0.4785(2) 0.6814(3)
H12_3 H 0.1972 0.4680 0.6610
C21_3 C 0.6873(5) 0.3429(3) 0.9577(4)
H13_3 H 0.6298 0.3065 0.9465
C24_3 C 0.4626(4) 0.5304(2) 0.7966(3)
H16_3 H 0.4941 0.5547 0.8556
O10_2 O 0.7915(2) 0.90213(14) 0.99704(17)
O14_2 O 0.7706(2) 0.46001(13) 0.68784(18)
O7_4 O 0.2759(3) 0.08890(14) 0.59065(18)
H1_4 H 0.0111 0.4408 0.5288
N3_4 N 0.4553(3) 0.01180(16) 0.7574(2)
N4_4 N 0.1251(3) 0.27543(16) 0.3746(2)
O9_4 O 0.2635(4) 0.19221(15) 0.6556(2)
C4_4 C 0.1737(3) 0.24794(19) 0.4648(3)
H2_4 H 0.1920 0.2768 0.5201
C7_4 C 0.1980(4) 0.1798(2) 0.4802(3)
C11_4 C 0.1668(5) 0.1366(3) 0.3978(4)
H5_4 H 0.1807 0.0898 0.4055
C12_4 C 0.2514(4) 0.1514(2) 0.5847(3)
C15_4 C 0.0978(5) 0.2345(2) 0.2963(3)
H8_4 H 0.0658 0.2535 0.2331
C16_4 C 0.1150(6) 0.1643(3) 0.3043(4)
H9_4 H 0.0921 0.1365 0.2480
C19_4 C 0.6663(4) 0.0149(3) 0.7317(3)
H11_4 H 0.7206 0.0290 0.6925
C24_4 C 0.5374(4) 0.0304(2) 0.7034(3)
H16_4 H 0.5059 0.0547 0.6444
H17_4 H 0.268(4) 0.364(3) 0.262(3)
H18_4 H 0.314(3) 0.400(3) 0.352(3)
O4_4 O 0.5929(3) 0.90575(18) 0.0188(2)
N2_4 N 0.2426(3) 0.94537(17) 0.6031(2)
C2_4 C 0.6313(4) 0.95784(19) 0.8747(2)
C3_4 C 0.0224(4) 0.90952(19) 0.3498(2)
C6_4 C 0.1324(4) 0.90174(19) 0.4412(3)
C8_4 C 0.1529(3) 0.9498(2) 0.5164(2)
H3_4 H 0.1003 0.9883 0.5060
C10_4 C 0.5038(4) 0.97748(19) 0.8419(2)
H4_4 H 0.4481 0.9660 0.8813
C17_4 C 0.3214(5) 0.8922(2) 0.6143(4)
H10_4 H 0.3854 0.8881 0.6736
C18_4 C 0.6747(4) 0.9185(2) 0.9713(2)
C20_4 C 0.7154(4) 0.9785(2) 0.8186(3)
H12_4 H 0.8028 0.9680 0.8390
C21_4 C 0.3127(5) 0.8429(3) 0.5423(4)
H13_4 H 0.3702 0.8065 0.5535
C22_4 C 0.2186(5) 0.8471(3) 0.4529(4)
H14_4 H 0.2131 0.8147 0.4027
N1_4 N 0.9367(3) 0.37602(15) 0.4226(2)
C1_4 C 0.9381(4) 0.41447(19) 0.5029(3)
C5_4 C 0.8396(4) 0.41783(19) 0.5498(3)
C9_4 C 0.8503(4) 0.46723(19) 0.6354(3)
C13_4 C 0.7243(5) 0.3423(3) 0.4245(4)
H6_4 H 0.6499 0.3183 0.3943
C14_4 C 0.8289(4) 0.3403(2) 0.3844(3)
H7_4 H 0.8251 0.3130 0.3286
C23_4 C 0.7295(5) 0.3802(2) 0.5098(3)
H15_4 H 0.6606 0.3804 0.5396
loop_
_geom_bond_atom_site_label_1
_geom_bond_atom_site_label_2
_geom_bond_site_symmetry_1
_geom_bond_site_symmetry_2
Cu2 O7 1_555 1_555
O1 C18 1_555 1_555
O4 C18 1_555 1_555
O7 C12 1_555 1_555
N2 Cu2 1_555 1_555
N3 Cu2 1_555 1_555
O9 C12 1_555 1_555
C2 C10 1_555 1_555
C8 N2 1_555 1_555
H3 C8 1_555 1_555
C10 N3 1_555 1_555
H4 C10 1_555 1_555
C17 N2 1_555 1_555
H10 C17 1_555 1_555
C18 C2 1_555 1_555
C19 H11 1_555 1_555
C20 C2 1_555 1_555
H12 C20 1_555 1_555
C21 C17 1_555 1_555
H13 C21 1_555 1_555
C24 N3 1_555 1_555
H16 C24 1_555 1_555
Cu4 O1 1_555 1_555
O12 Cu2 1_555 1_555
O14 Cu2 1_555 1_555
O15 Cu2 1_555 1_555
C19 C20 1_555 1_555
C19 C24 1_555 1_555
Cu1 O3 1_555 1_555
O2 C3 1_555 1_555
O3 H17 1_555 1_555
N4 Cu1 1_555 1_555
C3 C6 1_555 1_555
C4 N4 1_555 1_555
C7 C4 1_555 1_555
C11 C7 1_555 1_555
H5 C11 1_555 1_555
C15 N4 1_555 1_555
H8 C15 1_555 1_555
C16 C11 1_555 1_555
H9 C16 1_555 1_555
C22 C6 1_555 1_555
H14 C22 1_555 1_555
H18 O3 1_555 1_555
Cu8 O3 1_555 1_555
O13 Cu1 1_555 1_555
C15 C16 1_555 1_555
O6 C9 1_555 1_555
C5 C1 1_555 1_555
C9 C5 1_555 1_555
C23 C5 1_555 1_555
H15 C23 1_555 1_555
C13 H6 1_555 1_555
C14 N1 1_555 1_555
H7 C14 1_555 1_555
Cu7 O8 1_555 1_555
C13 C14 1_555 1_555
Cu5 O5 1_555 1_555
Cu8 O8_2 1_555 1_555
O5_2 C9_2 1_555 1_555
O14 C9_2 1_555 1_555
C1_2 N1_2 1_555 1_555
C5_2 C1_2 1_555 1_555
C9_2 C5_2 1_555 1_555
C13_2 H6_2 1_555 1_555
C14_2 N1_2 1_555 1_555
H7_2 C14_2 1_555 1_555
C23_2 C5_2 1_555 1_555
H15_2 C23_2 1_555 1_555
Cu5_2 O5_2 1_555 1_555
C13_2 C14_2 1_555 1_555
C13_2 C23_2 1_555 1_555
O10 C18_2 1_555 1_555
O11 C3_2 1_555 1_555
C2_2 C10_2 1_555 1_555
C3_2 C6_2 1_555 1_555
C6_2 C8_2 1_555 1_555
C8_2 N2_2 1_555 1_555
H3_2 C8_2 1_555 1_555
H4_2 C10_2 1_555 1_555
C17_2 N2_2 1_555 1_555
H10_2 C17_2 1_555 1_555
C18_2 C2_2 1_555 1_555
C20_2 C2_2 1_555 1_555
H12_2 C20_2 1_555 1_555
C21_2 C17_2 1_555 1_555
H13_2 C21_2 1_555 1_555
C22_2 C6_2 1_555 1_555
H14_2 C22_2 1_555 1_555
C21_2 C22_2 1_555 1_555
Cu4 O3_2 1_555 1_555
Cu6 O7_2 1_555 1_555
O3_2 H17_2 1_555 1_555
O7_2 C12_2 1_555 1_555
N3_2 Cu6 1_555 1_555
N4_2 Cu4 1_555 1_555
O9_2 C12_2 1_555 1_555
C4_2 N4_2 1_555 1_555
H2_2 C4_2 1_555 1_555
C7_2 C4_2 1_555 1_555
C11_2 C7_2 1_555 1_555
H5_2 C11_2 1_555 1_555
C12_2 C7_2 1_555 1_555
C15_2 N4_2 1_555 1_555
H8_2 C15_2 1_555 1_555
C16_2 C11_2 1_555 1_555
H9_2 C16_2 1_555 1_555
C19_2 H11_2 1_555 1_555
C24_2 N3_2 1_555 1_555
H16_2 C24_2 1_555 1_555
H18_2 O3_2 1_555 1_555
Cu7 O3_2 1_555 1_555
O12_2 Cu6 1_555 1_555
O13_2 Cu4 1_555 1_555
O15_2 Cu6 1_555 1_555
C15_2 C16_2 1_555 1_555
C19_2 C24_2 1_555 1_555
C13_3 H6_3 1_555 1_555
C14_3 N1_3 1_555 1_555
H7_3 C14_3 1_555 1_555
C13_3 C14_3 1_555 1_555
O6_2 C9_3 1_555 1_555
C5_3 C1_3 1_555 1_555
C9_3 C5_3 1_555 1_555
C23_3 C5_3 1_555 1_555
H15_3 C23_3 1_555 1_555
Cu5 O12_2 1_555 1_555
O2_2 C3_3 1_555 1_555
O12_2 H17_3 1_555 1_555
N4_3 Cu5 1_555 1_555
C3_3 C6_3 1_555 1_555
C4_3 N4_3 1_555 1_555
C7_3 C4_3 1_555 1_555
C11_3 C7_3 1_555 1_555
H5_3 C11_3 1_555 1_555
C15_3 N4_3 1_555 1_555
H8_3 C15_3 1_555 1_555
C16_3 C11_3 1_555 1_555
H9_3 C16_3 1_555 1_555
C22_3 C6_3 1_555 1_555
H14_3 C22_3 1_555 1_555
H18_3 O12_2 1_555 1_555
C15_3 C16_3 1_555 1_555
Cu7 O7_3 1_555 1_555
O1_2 C18_3 1_555 1_555
O4_3 C18_3 1_555 1_555
O7_3 C12_3 1_555 1_555
N2_3 Cu7 1_555 1_555
N3_3 Cu7 1_555 1_555
O9_3 C12_3 1_555 1_555
C2_3 C10_3 1_555 1_555
C8_3 N2_3 1_555 1_555
H3_3 C8_3 1_555 1_555
C10_3 N3_3 1_555 1_555
H4_3 C10_3 1_555 1_555
C17_3 N2_3 1_555 1_555
H10_3 C17_3 1_555 1_555
C18_3 C2_3 1_555 1_555
C19_3 H11_3 1_555 1_555
C20_3 C2_3 1_555 1_555
H12_3 C20_3 1_555 1_555
C21_3 C17_3 1_555 1_555
H13_3 C21_3 1_555 1_555
C24_3 N3_3 1_555 1_555
H16_3 C24_3 1_555 1_555
Cu5_2 O1_2 1_555 1_555
O14_2 Cu7 1_555 1_555
C19_3 C20_3 1_555 1_555
C19_3 C24_3 1_555 1_555
Cu5_2 O12 1_555 1_555
Cu8 O7_4 1_555 1_555
O12 H17_4 1_555 1_555
O7_4 C12_4 1_555 1_555
N3_4 Cu8 1_555 1_555
N4_4 Cu5_2 1_555 1_555
O9_4 C12_4 1_555 1_555
C4_4 N4_4 1_555 1_555
H2_4 C4_4 1_555 1_555
C7_4 C4_4 1_555 1_555
C11_4 C7_4 1_555 1_555
H5_4 C11_4 1_555 1_555
C12_4 C7_4 1_555 1_555
C15_4 N4_4 1_555 1_555
H8_4 C15_4 1_555 1_555
C16_4 C11_4 1_555 1_555
H9_4 C16_4 1_555 1_555
C19_4 H11_4 1_555 1_555
C24_4 N3_4 1_555 1_555
H16_4 C24_4 1_555 1_555
H18_4 O12 1_555 1_555
C15_4 C16_4 1_555 1_555
C19_4 C24_4 1_555 1_555
O10_2 C18_4 1_555 1_555
O11_2 C3_4 1_555 1_555
C2_4 C10_4 1_555 1_555
C3_4 C6_4 1_555 1_555
C6_4 C8_4 1_555 1_555
C8_4 N2_4 1_555 1_555
H3_4 C8_4 1_555 1_555
H4_4 C10_4 1_555 1_555
C17_4 N2_4 1_555 1_555
H10_4 C17_4 1_555 1_555
C18_4 C2_4 1_555 1_555
C20_4 C2_4 1_555 1_555
H12_4 C20_4 1_555 1_555
C21_4 C17_4 1_555 1_555
H13_4 C21_4 1_555 1_555
C22_4 C6_4 1_555 1_555
H14_4 C22_4 1_555 1_555
C21_4 C22_4 1_555 1_555
O13_2 C9_4 1_555 1_555
O14_2 C9_4 1_555 1_555
C1_4 N1_4 1_555 1_555
C5_4 C1_4 1_555 1_555
C9_4 C5_4 1_555 1_555
C13_4 H6_4 1_555 1_555
C14_4 N1_4 1_555 1_555
H7_4 C14_4 1_555 1_555
C23_4 C5_4 1_555 1_555
H15_4 C23_4 1_555 1_555
C13_4 C14_4 1_555 1_555
C13_4 C23_4 1_555 1_555

#END
