
###############################################################################
#
# This file contains modified crystal structure data generated from the
# MOF subset of the Cambridge Structural Database (CSD) v543 
# hosted by the Cambridge Crystallographic Data Centre (CCDC).
#
# This work is licensed under the Creative Commons
# Attribution-NonCommercial-ShareAlike 4.0 International License.
# To view a copy of this license, visit
# http://creativecommons.org/licenses/by-nc-sa/4.0/
# or send a letter to
# Creative Commons, PO Box 1866, Mountain View, CA 94042, USA.
#
# CIF created using the CSD Python API on 29 September 2022
# The structure has been converted into the P1 space group
# The structure has a 3D framework
# The original CSD entry WIQVAV is in the monoclinic crystal system
# The framework has been calculated to contain at least 10.0% void space
# The void calculation uses a probe of radius 1.32A, grid spacing 0.4
#
###############################################################################

data_WIQVAV
_chemical_formula_moiety         '(C132 H100 N16 O32 Y4)n'
_symmetry_cell_setting           triclinic
_symmetry_space_group_name_H-M   'P 1'
_symmetry_Int_Tables_number      1
_space_group_name_Hall           'P 1'
loop_
_symmetry_equiv_pos_site_id
_symmetry_equiv_pos_as_xyz
1 x,y,z
_cell_length_a                   20.418(4)
_cell_length_b                   7.9129(16)
_cell_length_c                   39.212(11)
_cell_angle_alpha                90
_cell_angle_beta                 121.27(2)
_cell_angle_gamma                90
_cell_volume                     5414.98
loop_
_atom_site_label
_atom_site_type_symbol
_atom_site_fract_x
_atom_site_fract_y
_atom_site_fract_z
C9 C 0.0593(6) 0.2193(15) 0.1254(3)
C10 C 0.1020(6) 0.1622(17) 0.1085(3)
H5 H 0.0774 0.1468 0.0807
C11 C 0.1831(6) 0.1272(15) 0.1333(3)
C12 C 0.2152(5) 0.1366(13) 0.1740(2)
H6 H 0.2664 0.1030 0.1909
C13 C 0.1754(5) 0.1921(14) 0.1902(3)
C14 C 0.0995(6) 0.2333(12) 0.1683(3)
H7 H 0.0737 0.2703 0.1810
C15 C 0.2314(6) 0.0810(16) 0.1169(3)
C16 C 0.2462(5) 0.0978(14) 0.0573(3)
C17 C 0.2446(8) 0.2236(13) 0.0330(4)
H8 H 0.2151 0.3216 0.0284
C18 C 0.2884(6) 0.2013(13) 0.0151(3)
H9 H 0.2928 0.2929 0.0011
C19 C 0.3251(5) 0.0530(11) 0.0169(3)
C22 C 0.3756(5) 0.0322(12) 0.0010(3)
C23 C 0.2124(6) 0.2196(15) 0.2347(3)
C24 C 0.3145(5) 0.1308(14) 0.3017(3)
C27 C 0.3976(6) 0.1245(11) 0.3844(2)
C28 C 0.3643(7) 0.2749(12) 0.3637(3)
H14 H 0.3691 0.3755 0.3776
C29 C 0.3236(6) 0.2723(12) 0.3216(3)
H15 H 0.3025 0.3732 0.3074
C30 C 0.4387(5) 0.1158(11) 0.4288(3)
N2 N 0.2072(5) 0.1387(11) 0.0785(2)
H24 H 0.1653 0.2047 0.0662
N3 N 0.2720(6) 0.1182(12) 0.2590(2)
H25 H 0.2861 0.0386 0.2476
O6 O 0.4428(3) 0.2508(5) 0.44866(14)
O8 O 0.2882(5) 0.0027(16) 0.1374(2)
O9 O 0.1904(6) 0.3304(16) 0.2483(3)
Y6 Y 0.50426(5) 0.25993(8) 0.51649(2)
O3 O 0.3959(3) 0.1604(7) 0.99045(19)
Y5 Y 0.49574(5) 0.25993(8) 0.98351(2)
C20 C 0.3227(6) 0.9297(14) 0.0419(3)
H10 H 0.3467 0.8253 0.0443
C21 C 0.2870(7) 0.9534(15) 0.0632(3)
H11 H 0.2908 0.8714 0.0815
C25 C 0.3458(6) 0.9793(15) 0.3214(3)
H12 H 0.3397 0.8804 0.3067
C26 C 0.3843(6) 0.9748(13) 0.3606(3)
H13 H 0.4037 0.8708 0.3736
O5 O 0.4574(3) 0.9723(7) 0.44498(17)
Y2 Y 0.50426(5) 0.74007(8) 0.01649(2)
Y3 Y 0.49574(5) 0.74007(8) 0.48351(2)
O4 O 0.3940(3) 0.8786(8) 0.99772(17)
C1 C 0.6343(5) 0.5262(11) 0.0488(3)
C2 C 0.7123(5) 0.4743(11) 0.0638(2)
C3 C 0.7330(5) 0.3921(11) 0.0400(3)
H1 H 0.6951 0.3641 0.0137
C4 C 0.8118(5) 0.3478(12) 0.0547(3)
H2 H 0.8248 0.2957 0.0374
C5 C 0.8681(5) 0.3806(13) 0.0933(3)
C6 C 0.8418(5) 0.4579(14) 0.1193(3)
H3 H 0.8782 0.4848 0.1459
C7 C 0.7678(5) 0.4890(12) 0.1052(3)
H4 H 0.7522 0.5213 0.1229
C8 C 0.9795(6) 0.2445(12) 0.0973(3)
C31 C 0.4612(6) 0.5034(12) 0.0747(3)
H16 H 0.4487 0.4127 0.0568
C32 C 0.4430(7) 0.3118(17) 0.1166(4)
H17 H 0.4222 0.2393 0.0933
H18 H 0.4057 0.3237 0.1247
H19 H 0.4895 0.2619 0.1382
C33 C 0.4866(10) 0.5936(19) 0.1380(4)
H20 H 0.5334 0.6468 0.1426
H21 H 0.4967 0.5336 0.1618
H22 H 0.4479 0.6795 0.1315
N1 N 0.9433(4) 0.3439(11) 0.1124(2)
H23 H 0.9735 0.3884 0.1368
N4 N 0.4606(5) 0.4816(12) 0.1067(2)
O1 O 0.6198(3) 0.6243(7) 0.06973(16)
O2 O 0.5784(3) 0.4960(6) 0.01312(16)
O7 O 0.9467(4) 0.1890(14) 0.0646(3)
O10 O 0.4783(4) 0.6446(8) 0.0665(2)
O12 O 0.6041(3) 0.8396(7) 0.00955(19)
O14 O 0.5426(3) 0.9723(7) 0.05502(17)
O11 O 0.4216(3) 0.5040(6) 0.98688(16)
O15 O 0.4428(3) 0.7492(5) 0.94866(14)
C1_2 C 0.3657(5) 0.5262(11) 0.4512(3)
C2_2 C 0.2877(5) 0.4743(11) 0.4362(2)
C3_2 C 0.2670(5) 0.3921(11) 0.4600(3)
H1_2 H 0.3049 0.3641 0.4863
C4_2 C 0.1882(5) 0.3478(12) 0.4453(3)
H2_2 H 0.1752 0.2957 0.4626
C5_2 C 0.1319(5) 0.3806(13) 0.4067(3)
C6_2 C 0.1582(5) 0.4579(14) 0.3807(3)
H3_2 H 0.1218 0.4848 0.3541
C7_2 C 0.2322(5) 0.4890(12) 0.3948(3)
H4_2 H 0.2478 0.5213 0.3771
C8_2 C 0.0205(6) 0.2445(12) 0.4027(3)
C31_2 C 0.5388(6) 0.5034(12) 0.4253(3)
H16_2 H 0.5513 0.4127 0.4432
C32_2 C 0.5570(7) 0.3118(17) 0.3834(4)
H17_2 H 0.5778 0.2393 0.4067
H18_2 H 0.5943 0.3237 0.3753
H19_2 H 0.5105 0.2619 0.3618
C33_2 C 0.5134(10) 0.5936(19) 0.3620(4)
H20_2 H 0.4666 0.6468 0.3574
H21_2 H 0.5033 0.5336 0.3382
H22_2 H 0.5521 0.6795 0.3685
N1_2 N 0.0567(4) 0.3439(11) 0.3876(2)
H23_2 H 0.0265 0.3884 0.3632
N4_2 N 0.5394(5) 0.4816(12) 0.3933(2)
O1_2 O 0.3802(3) 0.6243(7) 0.43027(16)
O2_2 O 0.4216(3) 0.4960(6) 0.48688(16)
O7_2 O 0.0533(4) 0.1890(14) 0.4354(3)
O10_2 O 0.5217(4) 0.6446(8) 0.4335(2)
O11_2 O 0.5784(3) 0.5040(6) 0.51312(16)
O12_2 O 0.3959(3) 0.8396(7) 0.49045(19)
O13 O 0.6060(3) 0.8786(8) 0.50228(17)
O15_2 O 0.5572(3) 0.7492(5) 0.55134(14)
C9_2 C 0.9407(6) 0.2193(15) 0.3746(3)
C10_2 C 0.8980(6) 0.1622(17) 0.3915(3)
H5_2 H 0.9226 0.1468 0.4193
C11_2 C 0.8169(6) 0.1272(15) 0.3667(3)
C12_2 C 0.7848(5) 0.1366(13) 0.3260(2)
H6_2 H 0.7336 0.1030 0.3091
C13_2 C 0.8246(5) 0.1921(14) 0.3098(3)
C14_2 C 0.9005(6) 0.2333(12) 0.3317(3)
H7_2 H 0.9263 0.2703 0.3190
C15_2 C 0.7686(6) 0.0810(16) 0.3831(3)
C16_2 C 0.7538(5) 0.0978(14) 0.4427(3)
C17_2 C 0.7554(8) 0.2236(13) 0.4670(4)
H8_2 H 0.7849 0.3216 0.4716
C18_2 C 0.7116(6) 0.2013(13) 0.4849(3)
H9_2 H 0.7072 0.2929 0.4989
C19_2 C 0.6749(5) 0.0530(11) 0.4831(3)
C22_2 C 0.6244(5) 0.0322(12) 0.4990(3)
C23_2 C 0.7876(6) 0.2196(15) 0.2653(3)
C24_2 C 0.6855(5) 0.1308(14) 0.1983(3)
C27_2 C 0.6024(6) 0.1245(11) 0.1156(2)
C28_2 C 0.6357(7) 0.2749(12) 0.1363(3)
H14_2 H 0.6309 0.3755 0.1224
C29_2 C 0.6764(6) 0.2723(12) 0.1784(3)
H15_2 H 0.6975 0.3732 0.1926
C30_2 C 0.5613(5) 0.1158(11) 0.0712(3)
N2_2 N 0.7928(5) 0.1387(11) 0.4215(2)
H24_2 H 0.8347 0.2047 0.4338
N3_2 N 0.7280(6) 0.1182(12) 0.2410(2)
H25_2 H 0.7139 0.0386 0.2524
O3_2 O 0.6041(3) 0.1604(7) 0.50955(19)
O6_2 O 0.5572(3) 0.2508(5) 0.05134(14)
O8_2 O 0.7118(5) 0.0027(16) 0.3626(2)
O9_2 O 0.8096(6) 0.3304(16) 0.2517(3)
C20_2 C 0.6773(6) 0.9297(14) 0.4581(3)
H10_2 H 0.6533 0.8253 0.4557
C21_2 C 0.7130(7) 0.9534(15) 0.4368(3)
H11_2 H 0.7092 0.8714 0.4185
C25_2 C 0.6542(6) 0.9793(15) 0.1786(3)
H12_2 H 0.6603 0.8804 0.1933
C26_2 C 0.6157(6) 0.9748(13) 0.1394(3)
H13_2 H 0.5963 0.8708 0.1264
O13_2 O 0.6060(3) 0.1214(8) 0.00228(17)
C1_3 C 0.3657(5) 0.4738(11) 0.9512(3)
C2_3 C 0.2877(5) 0.5257(11) 0.9362(2)
C3_3 C 0.2670(5) 0.6079(11) 0.9600(3)
H1_3 H 0.3049 0.6359 0.9863
C4_3 C 0.1882(5) 0.6522(12) 0.9453(3)
H2_3 H 0.1752 0.7043 0.9626
C5_3 C 0.1319(5) 0.6194(13) 0.9067(3)
C6_3 C 0.1582(5) 0.5421(14) 0.8807(3)
H3_3 H 0.1218 0.5152 0.8541
C7_3 C 0.2322(5) 0.5110(12) 0.8948(3)
H4_3 H 0.2478 0.4787 0.8771
C8_3 C 0.0205(6) 0.7555(12) 0.9027(3)
C31_3 C 0.5388(6) 0.4966(12) 0.9253(3)
H16_3 H 0.5513 0.5873 0.9432
C32_3 C 0.5570(7) 0.6882(17) 0.8834(4)
H17_3 H 0.5778 0.7607 0.9067
H18_3 H 0.5943 0.6763 0.8753
H19_3 H 0.5105 0.7381 0.8618
C33_3 C 0.5134(10) 0.4064(19) 0.8620(4)
H20_3 H 0.4666 0.3532 0.8574
H21_3 H 0.5033 0.4664 0.8382
H22_3 H 0.5521 0.3205 0.8685
N1_3 N 0.0567(4) 0.6561(11) 0.8876(2)
H23_3 H 0.0265 0.6116 0.8632
N4_3 N 0.5394(5) 0.5184(12) 0.8933(2)
O1_3 O 0.3802(3) 0.3757(7) 0.93027(16)
O7_3 O 0.0533(4) 0.8110(14) 0.9354(3)
O10_3 O 0.5217(4) 0.3554(8) 0.9335(2)
O14_2 O 0.4574(3) 0.0277(7) 0.94498(17)
C20_3 C 0.6773(6) 0.0703(14) 0.9581(3)
H10_3 H 0.6533 0.1747 0.9557
C21_3 C 0.7130(7) 0.0466(15) 0.9368(3)
H11_3 H 0.7092 0.1286 0.9185
C25_3 C 0.6542(6) 0.0207(15) 0.6786(3)
H12_3 H 0.6603 0.1196 0.6933
C26_3 C 0.6157(6) 0.0252(13) 0.6394(3)
H13_3 H 0.5963 0.1292 0.6264
O5_2 O 0.5426(3) 0.0277(7) 0.55502(17)
C9_3 C 0.9407(6) 0.7807(15) 0.8746(3)
C10_3 C 0.8980(6) 0.8378(17) 0.8915(3)
H5_3 H 0.9226 0.8532 0.9193
C11_3 C 0.8169(6) 0.8728(15) 0.8667(3)
C12_3 C 0.7848(5) 0.8634(13) 0.8260(2)
H6_3 H 0.7336 0.8970 0.8091
C13_3 C 0.8246(5) 0.8079(14) 0.8098(3)
C14_3 C 0.9005(6) 0.7667(12) 0.8317(3)
H7_3 H 0.9263 0.7297 0.8190
C15_3 C 0.7686(6) 0.9190(16) 0.8831(3)
C16_3 C 0.7538(5) 0.9022(14) 0.9427(3)
C17_3 C 0.7554(8) 0.7764(13) 0.9670(4)
H8_3 H 0.7849 0.6784 0.9716
C18_3 C 0.7116(6) 0.7987(13) 0.9849(3)
H9_3 H 0.7072 0.7071 0.9989
C19_3 C 0.6749(5) 0.9470(11) 0.9831(3)
C22_3 C 0.6244(5) 0.9678(12) 0.9990(3)
C23_3 C 0.7876(6) 0.7804(15) 0.7653(3)
C24_3 C 0.6855(5) 0.8692(14) 0.6983(3)
C27_3 C 0.6024(6) 0.8755(11) 0.6156(2)
C28_3 C 0.6357(7) 0.7251(12) 0.6363(3)
H14_3 H 0.6309 0.6245 0.6224
C29_3 C 0.6764(6) 0.7277(12) 0.6784(3)
H15_3 H 0.6975 0.6268 0.6926
C30_3 C 0.5613(5) 0.8842(11) 0.5712(3)
N2_3 N 0.7928(5) 0.8613(11) 0.9215(2)
H24_3 H 0.8347 0.7953 0.9338
N3_3 N 0.7280(6) 0.8818(12) 0.7410(2)
H25_3 H 0.7139 0.9614 0.7524
O8_3 O 0.7118(5) 0.9973(16) 0.8626(2)
O9_3 O 0.8096(6) 0.6696(16) 0.7517(3)
C20_4 C 0.3227(6) 0.0703(14) 0.5419(3)
H10_4 H 0.3467 0.1747 0.5443
C21_4 C 0.2870(7) 0.0466(15) 0.5632(3)
H11_4 H 0.2908 0.1286 0.5815
C25_4 C 0.3458(6) 0.0207(15) 0.8214(3)
H12_4 H 0.3397 0.1196 0.8067
C26_4 C 0.3843(6) 0.0252(13) 0.8606(3)
H13_4 H 0.4037 0.1292 0.8736
O4_2 O 0.3940(3) 0.1214(8) 0.49772(17)
C9_4 C 0.0593(6) 0.7807(15) 0.6254(3)
C10_4 C 0.1020(6) 0.8378(17) 0.6085(3)
H5_4 H 0.0774 0.8532 0.5807
C11_4 C 0.1831(6) 0.8728(15) 0.6333(3)
C12_4 C 0.2152(5) 0.8634(13) 0.6740(2)
H6_4 H 0.2664 0.8970 0.6909
C13_4 C 0.1754(5) 0.8079(14) 0.6902(3)
C14_4 C 0.0995(6) 0.7667(12) 0.6683(3)
H7_4 H 0.0737 0.7297 0.6810
C15_4 C 0.2314(6) 0.9190(16) 0.6169(3)
C16_4 C 0.2462(5) 0.9022(14) 0.5573(3)
C17_4 C 0.2446(8) 0.7764(13) 0.5330(4)
H8_4 H 0.2151 0.6784 0.5284
C18_4 C 0.2884(6) 0.7987(13) 0.5151(3)
H9_4 H 0.2928 0.7071 0.5011
C19_4 C 0.3251(5) 0.9470(11) 0.5169(3)
C22_4 C 0.3756(5) 0.9678(12) 0.5010(3)
C23_4 C 0.2124(6) 0.7804(15) 0.7347(3)
C24_4 C 0.3145(5) 0.8692(14) 0.8017(3)
C27_4 C 0.3976(6) 0.8755(11) 0.8844(2)
C28_4 C 0.3643(7) 0.7251(12) 0.8637(3)
H14_4 H 0.3691 0.6245 0.8776
C29_4 C 0.3236(6) 0.7277(12) 0.8216(3)
H15_4 H 0.3025 0.6268 0.8074
C30_4 C 0.4387(5) 0.8842(11) 0.9288(3)
N2_4 N 0.2072(5) 0.8613(11) 0.5785(2)
H24_4 H 0.1653 0.7953 0.5662
N3_4 N 0.2720(6) 0.8818(12) 0.7590(2)
H25_4 H 0.2861 0.9614 0.7476
O8_4 O 0.2882(5) 0.9973(16) 0.6374(2)
O9_4 O 0.1904(6) 0.6696(16) 0.7483(3)
C1_4 C 0.6343(5) 0.4738(11) 0.5488(3)
C2_4 C 0.7123(5) 0.5257(11) 0.5638(2)
C3_4 C 0.7330(5) 0.6079(11) 0.5400(3)
H1_4 H 0.6951 0.6359 0.5137
C4_4 C 0.8118(5) 0.6522(12) 0.5547(3)
H2_4 H 0.8248 0.7043 0.5374
C5_4 C 0.8681(5) 0.6194(13) 0.5933(3)
C6_4 C 0.8418(5) 0.5421(14) 0.6193(3)
H3_4 H 0.8782 0.5152 0.6459
C7_4 C 0.7678(5) 0.5110(12) 0.6052(3)
H4_4 H 0.7522 0.4787 0.6229
C8_4 C 0.9795(6) 0.7555(12) 0.5973(3)
C31_4 C 0.4612(6) 0.4966(12) 0.5747(3)
H16_4 H 0.4487 0.5873 0.5568
C32_4 C 0.4430(7) 0.6882(17) 0.6166(4)
H17_4 H 0.4222 0.7607 0.5933
H18_4 H 0.4057 0.6763 0.6247
H19_4 H 0.4895 0.7381 0.6382
C33_4 C 0.4866(10) 0.4064(19) 0.6380(4)
H20_4 H 0.5334 0.3532 0.6426
H21_4 H 0.4967 0.4664 0.6618
H22_4 H 0.4479 0.3205 0.6315
N1_4 N 0.9433(4) 0.6561(11) 0.6124(2)
H23_4 H 0.9735 0.6116 0.6368
N4_4 N 0.4606(5) 0.5184(12) 0.6067(2)
O1_4 O 0.6198(3) 0.3757(7) 0.56973(16)
O7_4 O 0.9467(4) 0.8110(14) 0.5646(3)
O10_4 O 0.4783(4) 0.3554(8) 0.5665(2)
loop_
_geom_bond_atom_site_label_1
_geom_bond_atom_site_label_2
_geom_bond_site_symmetry_1
_geom_bond_site_symmetry_2
C9 C10 1_555 1_555
C10 H5 1_555 1_555
C11 C10 1_555 1_555
C12 C11 1_555 1_555
H6 C12 1_555 1_555
C13 C12 1_555 1_555
C14 C9 1_555 1_555
H7 C14 1_555 1_555
C15 C11 1_555 1_555
C16 C17 1_555 1_555
C17 H8 1_555 1_555
C18 C17 1_555 1_555
H9 C18 1_555 1_555
C19 C18 1_555 1_555
C22 C19 1_555 1_555
C23 C13 1_555 1_555
C28 C27 1_555 1_555
H14 C28 1_555 1_555
C29 C24 1_555 1_555
H15 C29 1_555 1_555
C30 C27 1_555 1_555
N2 C15 1_555 1_555
H24 N2 1_555 1_555
N3 C23 1_555 1_555
H25 N3 1_555 1_555
O6 C30 1_555 1_555
O8 C15 1_555 1_555
O9 C23 1_555 1_555
Y6 O6 1_555 1_555
C13 C14 1_555 1_555
C16 N2 1_555 1_555
C24 N3 1_555 1_555
C28 C29 1_555 1_555
Y5 O3 1_555 1_555
H10 C20 1_555 1_555
H11 C21 1_555 1_555
C25 H12 1_555 1_555
C26 C25 1_555 1_555
H13 C26 1_555 1_555
Y3 O5 1_555 1_555
C20 C21 1_555 1_555
C1 C2 1_555 1_555
C2 C3 1_555 1_555
C3 H1 1_555 1_555
C4 C3 1_555 1_555
H2 C4 1_555 1_555
C5 C4 1_555 1_555
C6 C5 1_555 1_555
H3 C6 1_555 1_555
C7 C2 1_555 1_555
H4 C7 1_555 1_555
C31 H16 1_555 1_555
C32 H17 1_555 1_555
H18 C32 1_555 1_555
H19 C32 1_555 1_555
C33 H20 1_555 1_555
H21 C33 1_555 1_555
H22 C33 1_555 1_555
N1 C5 1_555 1_555
H23 N1 1_555 1_555
N4 C31 1_555 1_555
O1 C1 1_555 1_555
O2 C1 1_555 1_555
O7 C8 1_555 1_555
O10 C31 1_555 1_555
Y2 O1 1_555 1_555
O12 Y2 1_555 1_555
O14 Y2 1_555 1_555
C6 C7 1_555 1_555
C8 N1 1_555 1_555
C32 N4 1_555 1_555
C33 N4 1_555 1_555
O2 Y2 1_555 1_555
O10 Y2 1_555 1_555
O11 Y5 1_555 1_555
C1_2 C2_2 1_555 1_555
C2_2 C3_2 1_555 1_555
C3_2 H1_2 1_555 1_555
C4_2 C3_2 1_555 1_555
H2_2 C4_2 1_555 1_555
C5_2 C4_2 1_555 1_555
C6_2 C5_2 1_555 1_555
H3_2 C6_2 1_555 1_555
C7_2 C2_2 1_555 1_555
H4_2 C7_2 1_555 1_555
C31_2 H16_2 1_555 1_555
C32_2 H17_2 1_555 1_555
H18_2 C32_2 1_555 1_555
H19_2 C32_2 1_555 1_555
C33_2 H20_2 1_555 1_555
H21_2 C33_2 1_555 1_555
H22_2 C33_2 1_555 1_555
N1_2 C5_2 1_555 1_555
H23_2 N1_2 1_555 1_555
N4_2 C31_2 1_555 1_555
O1_2 C1_2 1_555 1_555
O2_2 C1_2 1_555 1_555
O7_2 C8_2 1_555 1_555
O10_2 C31_2 1_555 1_555
Y3 O1_2 1_555 1_555
O11_2 Y3 1_555 1_555
O12_2 Y3 1_555 1_555
O13 Y3 1_555 1_555
O15_2 Y3 1_555 1_555
Y6 O2_2 1_555 1_555
C6_2 C7_2 1_555 1_555
C8_2 N1_2 1_555 1_555
C32_2 N4_2 1_555 1_555
C33_2 N4_2 1_555 1_555
O2_2 Y3 1_555 1_555
O10_2 Y3 1_555 1_555
O11_2 Y6 1_555 1_555
C9_2 C10_2 1_555 1_555
C10_2 H5_2 1_555 1_555
C11_2 C10_2 1_555 1_555
C12_2 C11_2 1_555 1_555
H6_2 C12_2 1_555 1_555
C13_2 C12_2 1_555 1_555
C14_2 C9_2 1_555 1_555
H7_2 C14_2 1_555 1_555
C15_2 C11_2 1_555 1_555
C16_2 C17_2 1_555 1_555
C17_2 H8_2 1_555 1_555
C18_2 C17_2 1_555 1_555
H9_2 C18_2 1_555 1_555
C19_2 C18_2 1_555 1_555
C22_2 C19_2 1_555 1_555
C23_2 C13_2 1_555 1_555
C28_2 C27_2 1_555 1_555
H14_2 C28_2 1_555 1_555
C29_2 C24_2 1_555 1_555
H15_2 C29_2 1_555 1_555
C30_2 C27_2 1_555 1_555
N2_2 C15_2 1_555 1_555
H24_2 N2_2 1_555 1_555
N3_2 C23_2 1_555 1_555
H25_2 N3_2 1_555 1_555
O3_2 C22_2 1_555 1_555
O6_2 C30_2 1_555 1_555
O8_2 C15_2 1_555 1_555
O9_2 C23_2 1_555 1_555
Y6 O3_2 1_555 1_555
C13_2 C14_2 1_555 1_555
C16_2 N2_2 1_555 1_555
C24_2 N3_2 1_555 1_555
C28_2 C29_2 1_555 1_555
H10_2 C20_2 1_555 1_555
H11_2 C21_2 1_555 1_555
C25_2 H12_2 1_555 1_555
C26_2 C25_2 1_555 1_555
H13_2 C26_2 1_555 1_555
C20_2 C21_2 1_555 1_555
C1_3 C2_3 1_555 1_555
C2_3 C3_3 1_555 1_555
C3_3 H1_3 1_555 1_555
C4_3 C3_3 1_555 1_555
H2_3 C4_3 1_555 1_555
C5_3 C4_3 1_555 1_555
C6_3 C5_3 1_555 1_555
H3_3 C6_3 1_555 1_555
C7_3 C2_3 1_555 1_555
H4_3 C7_3 1_555 1_555
C31_3 H16_3 1_555 1_555
C32_3 H17_3 1_555 1_555
H18_3 C32_3 1_555 1_555
H19_3 C32_3 1_555 1_555
C33_3 H20_3 1_555 1_555
H21_3 C33_3 1_555 1_555
H22_3 C33_3 1_555 1_555
N1_3 C5_3 1_555 1_555
H23_3 N1_3 1_555 1_555
N4_3 C31_3 1_555 1_555
O1_3 C1_3 1_555 1_555
O11 C1_3 1_555 1_555
O7_3 C8_3 1_555 1_555
O10_3 C31_3 1_555 1_555
Y5 O1_3 1_555 1_555
O14_2 Y5 1_555 1_555
C6_3 C7_3 1_555 1_555
C8_3 N1_3 1_555 1_555
C32_3 N4_3 1_555 1_555
C33_3 N4_3 1_555 1_555
O10_3 Y5 1_555 1_555
H10_3 C20_3 1_555 1_555
H11_3 C21_3 1_555 1_555
C25_3 H12_3 1_555 1_555
C26_3 C25_3 1_555 1_555
H13_3 C26_3 1_555 1_555
Y6 O5_2 1_555 1_555
C20_3 C21_3 1_555 1_555
C9_3 C10_3 1_555 1_555
C10_3 H5_3 1_555 1_555
C11_3 C10_3 1_555 1_555
C12_3 C11_3 1_555 1_555
H6_3 C12_3 1_555 1_555
C13_3 C12_3 1_555 1_555
C14_3 C9_3 1_555 1_555
H7_3 C14_3 1_555 1_555
C15_3 C11_3 1_555 1_555
C16_3 C17_3 1_555 1_555
C17_3 H8_3 1_555 1_555
C18_3 C17_3 1_555 1_555
H9_3 C18_3 1_555 1_555
C19_3 C18_3 1_555 1_555
C22_3 C19_3 1_555 1_555
C23_3 C13_3 1_555 1_555
C28_3 C27_3 1_555 1_555
H14_3 C28_3 1_555 1_555
C29_3 C24_3 1_555 1_555
H15_3 C29_3 1_555 1_555
C30_3 C27_3 1_555 1_555
N2_3 C15_3 1_555 1_555
H24_3 N2_3 1_555 1_555
N3_3 C23_3 1_555 1_555
H25_3 N3_3 1_555 1_555
O15_2 C30_3 1_555 1_555
O8_3 C15_3 1_555 1_555
O9_3 C23_3 1_555 1_555
C13_3 C14_3 1_555 1_555
C16_3 N2_3 1_555 1_555
C24_3 N3_3 1_555 1_555
C28_3 C29_3 1_555 1_555
H10_4 C20_4 1_555 1_555
H11_4 C21_4 1_555 1_555
C25_4 H12_4 1_555 1_555
C26_4 C25_4 1_555 1_555
H13_4 C26_4 1_555 1_555
Y6 O4_2 1_555 1_555
C20_4 C21_4 1_555 1_555
C9_4 C10_4 1_555 1_555
C10_4 H5_4 1_555 1_555
C11_4 C10_4 1_555 1_555
C12_4 C11_4 1_555 1_555
H6_4 C12_4 1_555 1_555
C13_4 C12_4 1_555 1_555
C14_4 C9_4 1_555 1_555
H7_4 C14_4 1_555 1_555
C15_4 C11_4 1_555 1_555
C16_4 C17_4 1_555 1_555
C17_4 H8_4 1_555 1_555
C18_4 C17_4 1_555 1_555
H9_4 C18_4 1_555 1_555
C19_4 C18_4 1_555 1_555
C22_4 C19_4 1_555 1_555
C23_4 C13_4 1_555 1_555
C28_4 C27_4 1_555 1_555
H14_4 C28_4 1_555 1_555
C29_4 C24_4 1_555 1_555
H15_4 C29_4 1_555 1_555
C30_4 C27_4 1_555 1_555
N2_4 C15_4 1_555 1_555
H24_4 N2_4 1_555 1_555
N3_4 C23_4 1_555 1_555
H25_4 N3_4 1_555 1_555
O12_2 C22_4 1_555 1_555
O15 C30_4 1_555 1_555
O8_4 C15_4 1_555 1_555
O9_4 C23_4 1_555 1_555
C13_4 C14_4 1_555 1_555
C16_4 N2_4 1_555 1_555
C24_4 N3_4 1_555 1_555
C28_4 C29_4 1_555 1_555
C1_4 C2_4 1_555 1_555
C2_4 C3_4 1_555 1_555
C3_4 H1_4 1_555 1_555
C4_4 C3_4 1_555 1_555
H2_4 C4_4 1_555 1_555
C5_4 C4_4 1_555 1_555
C6_4 C5_4 1_555 1_555
H3_4 C6_4 1_555 1_555
C7_4 C2_4 1_555 1_555
H4_4 C7_4 1_555 1_555
C31_4 H16_4 1_555 1_555
C32_4 H17_4 1_555 1_555
H18_4 C32_4 1_555 1_555
H19_4 C32_4 1_555 1_555
C33_4 H20_4 1_555 1_555
H21_4 C33_4 1_555 1_555
H22_4 C33_4 1_555 1_555
N1_4 C5_4 1_555 1_555
H23_4 N1_4 1_555 1_555
N4_4 C31_4 1_555 1_555
O1_4 C1_4 1_555 1_555
O11_2 C1_4 1_555 1_555
O7_4 C8_4 1_555 1_555
O10_4 C31_4 1_555 1_555
Y6 O1_4 1_555 1_555
C6_4 C7_4 1_555 1_555
C8_4 N1_4 1_555 1_555
C32_4 N4_4 1_555 1_555
C33_4 N4_4 1_555 1_555
O10_4 Y6 1_555 1_555

#END
