
###############################################################################
#
# This file contains modified crystal structure data generated from the
# MOF subset of the Cambridge Structural Database (CSD) v543 
# hosted by the Cambridge Crystallographic Data Centre (CCDC).
#
# This work is licensed under the Creative Commons
# Attribution-NonCommercial-ShareAlike 4.0 International License.
# To view a copy of this license, visit
# http://creativecommons.org/licenses/by-nc-sa/4.0/
# or send a letter to
# Creative Commons, PO Box 1866, Mountain View, CA 94042, USA.
#
# CIF created using the CSD Python API on 29 September 2022
# The structure has been converted into the P1 space group
# The structure has a 3D framework
# The original CSD entry WIRCOS is in the monoclinic crystal system
# The framework has been calculated to contain at least 10.0% void space
# The void calculation uses a probe of radius 1.32A, grid spacing 0.4
# H atom positions have been added when not included in the experimental data
# Generated hydrogen atom positions removed from atoms on special positions
#
###############################################################################

data_WIRCOS
_chemical_formula_moiety         '(C80 H84 Cd8 N12 O44)n'
_symmetry_cell_setting           triclinic
_symmetry_space_group_name_H-M   'P 1'
_symmetry_Int_Tables_number      1
_space_group_name_Hall           'P 1'
loop_
_symmetry_equiv_pos_site_id
_symmetry_equiv_pos_as_xyz
1 x,y,z
_cell_length_a                   14.3590(9)
_cell_length_b                   14.4350(10)
_cell_length_c                   22.6110(14)
_cell_angle_alpha                90
_cell_angle_beta                 98.6970(11)
_cell_angle_gamma                90
_cell_volume                     4632.74
loop_
_atom_site_label
_atom_site_type_symbol
_atom_site_fract_x
_atom_site_fract_y
_atom_site_fract_z
C12 C 0.0188(7) 0.5228(8) 0.4243(4)
C13 C 0.0722(8) 0.5849(8) 0.3999(5)
H5 H 0.1081 0.6276 0.4243
C14 C 0.0738(7) 0.5854(7) 0.3378(5)
C15 C 0.0167(6) 0.5234(6) 0.3013(4)
H6 H 0.0163 0.5241 0.2602
C16 C 0.1361(7) 0.6542(7) 0.3105(7)
N3 N 0.0267(7) 0.5239(8) 0.4886(4)
O7 O 0.1450(6) 0.6448(6) 0.2575(5)
O8 O 0.1763(6) 0.7130(6) 0.3444(5)
C29 C 0.1038(6) 0.6027(7) 0.7133(4)
C30 C 0.0390(6) 0.5389(6) 0.6739(4)
C31 C 0.0385(7) 0.5408(7) 0.6122(4)
H19 H 0.0754 0.5833 0.5953
O16 O 0.1512(5) 0.6587(5) 0.6874(3)
O17 O 0.1029(6) 0.5990(6) 0.7676(3)
Cd6 Cd 0.25600(4) 0.74989(4) 0.24048(3)
Cd7 Cd 0.25600(4) 0.75011(4) 0.74048(3)
Cd10 Cd 0.18031(5) 0.87116(5) 0.35947(3)
Cd11 Cd 0.18031(5) 0.62884(5) 0.85947(3)
C1 C 0.6262(6) 0.3917(7) 0.2092(4)
C2 C 0.5596(6) 0.4574(7) 0.1723(4)
C3 C 0.5005(6) 0.5117(7) 0.2002(4)
H1 H 0.5037 0.5094 0.2416
C4 C 0.4351(7) 0.5710(7) 0.1661(4)
C5 C 0.4320(7) 0.5757(8) 0.1056(4)
H2 H 0.3896 0.6156 0.0832
C6 C 0.4918(7) 0.5212(8) 0.0769(4)
C7 C 0.5576(7) 0.4629(7) 0.1108(4)
H3 H 0.5995 0.4283 0.0922
C8 C 0.3690(7) 0.6318(7) 0.1954(5)
C9 C 0.8962(6) 0.3973(7) 0.2867(4)
C10 C 0.9610(6) 0.4611(6) 0.3261(4)
C11 C 0.9615(7) 0.4592(7) 0.3878(4)
H4 H 0.9246 0.4167 0.4047
C17 C 0.6286(14) 0.2249(15) 0.0442(11)
H7 H 0.6123 0.1692 0.0218
H8 H 0.5767 0.2675 0.0375
H9 H 0.6423 0.2104 0.0860
C20 C 0.7194(12) 0.2710(11) 0.0227(7)
N1 N 0.4850(7) 0.5329(8) 0.0144(4)
O1 O 0.6845(4) 0.3465(4) 0.1820(3)
O2 O 0.6213(5) 0.3791(6) 0.2615(3)
O3 O 0.3797(5) 0.6350(5) 0.2519(3)
O4 O 0.3100(5) 0.6776(5) 0.1629(3)
O5 O 0.8488(5) 0.3413(5) 0.3126(3)
O6 O 0.8971(6) 0.4010(6) 0.2324(3)
O9 O 0.7980(13) 0.5229(8) 0.1244(7)
O10 O 0.7461(7) 0.3425(6) 0.0480(4)
O11 O 0.9603(12) 0.3877(14) 0.1075(6)
Cd1 Cd 0.74400(4) 0.24989(4) 0.25952(3)
Cd2 Cd 0.81969(5) 0.37116(5) 0.14053(3)
C32 C 0.9812(7) 0.4772(8) 0.5757(4)
C33 C 0.9278(8) 0.4151(8) 0.6001(5)
H20 H 0.8919 0.3724 0.5757
C34 C 0.9262(7) 0.4146(7) 0.6622(5)
C35 C 0.9833(6) 0.4766(6) 0.6987(4)
H21 H 0.9837 0.4759 0.7398
N5 N 0.9733(7) 0.4761(8) 0.5114(4)
C36 C 0.8639(7) 0.3458(7) 0.6895(7)
O18 O 0.8550(6) 0.3552(6) 0.7425(5)
O19 O 0.8237(6) 0.2870(6) 0.6556(5)
C38 C 0.2910(15) 0.8484(12) 0.0557(9)
H25 H 0.2525 0.8612 0.0859
H26 H 0.3543 0.8355 0.0743
H27 H 0.2910 0.9012 0.0299
C39 C 0.1609(14) 0.7239(15) 0.0381(10)
H28 H 0.1433 0.7573 0.0714
H29 H 0.1110 0.7276 0.0048
H30 H 0.1722 0.6601 0.0490
N6 N 0.2528(16) 0.7673(11) 0.0202(7)
O23 O 0.6203(5) 0.1350(5) 0.2481(3)
O25 O 0.6900(5) 0.1776(5) 0.3371(3)
O29 O 0.8550(6) 0.1448(6) 0.2425(5)
O31 O 0.8237(6) 0.2130(6) 0.1556(5)
Cd9 Cd 0.74400(4) 0.25011(4) 0.75952(3)
Cd12 Cd 0.81969(5) 0.12884(5) 0.64053(3)
H35 H 0.986628 0.32562 0.100819
H36 H 0.951214 0.422953 0.0693495
C18 C 0.7090(15) 0.1516(12) 0.9443(9)
H10 H 0.7475 0.1388 0.9141
H11 H 0.6457 0.1645 0.9257
H12 H 0.7090 0.0988 0.9701
C19 C 0.8391(14) 0.2761(15) 0.9619(10)
H13 H 0.8567 0.2427 0.9286
H14 H 0.8890 0.2724 0.9952
H15 H 0.8278 0.3399 0.9510
N2 N 0.7472(16) 0.2327(11) 0.9798(7)
C21 C 0.3738(6) 0.6083(7) 0.7908(4)
C22 C 0.4404(6) 0.5426(7) 0.8277(4)
C23 C 0.4995(6) 0.4883(7) 0.7998(4)
H16 H 0.4963 0.4906 0.7584
C24 C 0.5649(7) 0.4290(7) 0.8339(4)
C25 C 0.5680(7) 0.4243(8) 0.8944(4)
H17 H 0.6104 0.3844 0.9168
C26 C 0.5082(7) 0.4788(8) 0.9231(4)
C27 C 0.4424(7) 0.5371(7) 0.8892(4)
H18 H 0.4005 0.5717 0.9078
C28 C 0.6310(7) 0.3682(7) 0.8046(5)
N4 N 0.5150(7) 0.4671(8) 0.9856(4)
O12 O 0.3155(4) 0.6535(4) 0.8180(3)
O13 O 0.3787(5) 0.6209(6) 0.7385(3)
O14 O 0.6203(5) 0.3650(5) 0.7481(3)
O15 O 0.6900(5) 0.3224(5) 0.8371(3)
C37 C 0.3714(14) 0.7751(15) 0.9558(11)
H22 H 0.3877 0.8308 0.9782
H23 H 0.4233 0.7325 0.9625
H24 H 0.3577 0.7896 0.9140
C40 C 0.2806(12) 0.7290(11) 0.9773(7)
O20 O 0.2020(13) 0.4771(8) 0.8756(7)
O21 O 0.2539(7) 0.6575(6) 0.9520(4)
O22 O 0.0397(12) 0.6123(14) 0.8925(6)
O24 O 0.3797(5) 0.8650(5) 0.7519(3)
O26 O 0.3100(5) 0.8224(5) 0.6629(3)
O30 O 0.1450(6) 0.8552(6) 0.7575(5)
O32 O 0.1763(6) 0.7870(6) 0.8444(5)
H32 H 0.0487855 0.577047 0.93065
C3_2 C 0.4995(6) 0.0117(7) 0.2998(4)
H1_2 H 0.4963 0.0094 0.2584
C4_2 C 0.5649(7) 0.0710(7) 0.3339(4)
C5_2 C 0.5680(7) 0.0757(8) 0.3944(4)
H2_2 H 0.6104 0.1156 0.4168
C6_2 C 0.5082(7) 0.0212(8) 0.4231(4)
C8_2 C 0.6310(7) 0.1318(7) 0.3046(5)
N1_2 N 0.5150(7) 0.0329(8) 0.4856(4)
O9_2 O 0.2020(13) 0.0229(8) 0.3756(7)
C21_2 C 0.6262(6) 0.1083(7) 0.7092(4)
C22_2 C 0.5596(6) 0.0426(7) 0.6723(4)
C27_2 C 0.5576(7) 0.0371(7) 0.6108(4)
H18_2 H 0.5995 0.0717 0.5922
O12_2 O 0.6845(4) 0.1535(4) 0.6820(3)
O13_2 O 0.6213(5) 0.1209(6) 0.7615(3)
C37_2 C 0.6286(14) 0.2751(15) 0.5442(11)
H22_2 H 0.6123 0.3308 0.5218
H23_2 H 0.5767 0.2325 0.5375
H24_2 H 0.6423 0.2896 0.5860
C38_2 C 0.7090(15) 0.3484(12) 0.4443(9)
H25_2 H 0.7475 0.3612 0.4141
H26_2 H 0.6457 0.3355 0.4257
H27_2 H 0.7090 0.4012 0.4701
C39_2 C 0.8391(14) 0.2239(15) 0.4619(10)
H28_2 H 0.8567 0.2573 0.4286
H29_2 H 0.8890 0.2276 0.4952
H30_2 H 0.8278 0.1601 0.4510
C40_2 C 0.7194(12) 0.2290(11) 0.5227(7)
N6_2 N 0.7472(16) 0.2673(11) 0.4798(7)
O21_2 O 0.7461(7) 0.1575(6) 0.5480(4)
O22_2 O 0.9603(12) 0.1123(14) 0.6075(6)
O27 O 0.8488(5) 0.1587(5) 0.8126(3)
O28 O 0.8971(6) 0.0990(6) 0.7324(3)
H32_2 H 0.951214 0.0770474 0.56935
C1_2 C 0.3738(6) 0.8917(7) 0.2908(4)
C2_2 C 0.4404(6) 0.9574(7) 0.3277(4)
C7_2 C 0.4424(7) 0.9629(7) 0.3892(4)
H3_2 H 0.4005 0.9283 0.4078
C9_2 C 0.1038(6) 0.8973(7) 0.2133(4)
C10_2 C 0.0390(6) 0.9611(6) 0.1739(4)
C11_2 C 0.0385(7) 0.9592(7) 0.1122(4)
H4_2 H 0.0754 0.9167 0.0953
C17_2 C 0.3714(14) 0.7249(15) 0.4558(11)
H7_2 H 0.3877 0.6692 0.4782
H8_2 H 0.4233 0.7675 0.4625
H9_2 H 0.3577 0.7104 0.4140
C18_2 C 0.2910(15) 0.6516(12) 0.5557(9)
H10_2 H 0.2525 0.6388 0.5859
H11_2 H 0.3543 0.6645 0.5743
H12_2 H 0.2910 0.5988 0.5299
C19_2 C 0.1609(14) 0.7761(15) 0.5381(10)
H13_2 H 0.1433 0.7427 0.5714
H14_2 H 0.1110 0.7724 0.5048
H15_2 H 0.1722 0.8399 0.5490
C20_2 C 0.2806(12) 0.7710(11) 0.4773(7)
N2_2 N 0.2528(16) 0.7327(11) 0.5202(7)
O1_2 O 0.3155(4) 0.8465(4) 0.3180(3)
O2_2 O 0.3787(5) 0.8791(6) 0.2385(3)
O5_2 O 0.1512(5) 0.8413(5) 0.1874(3)
O6_2 O 0.1029(6) 0.9010(6) 0.2676(3)
O10_2 O 0.2539(7) 0.8425(6) 0.4520(4)
O11_2 O 0.0397(12) 0.8877(14) 0.3925(6)
C23_2 C 0.5005(6) 0.9883(7) 0.7002(4)
H16_2 H 0.5037 0.9906 0.7416
C24_2 C 0.4351(7) 0.9290(7) 0.6661(4)
C25_2 C 0.4320(7) 0.9243(8) 0.6056(4)
H17_2 H 0.3896 0.8844 0.5832
C26_2 C 0.4918(7) 0.9788(8) 0.5769(4)
C28_2 C 0.3690(7) 0.8682(7) 0.6954(5)
N4_2 N 0.4850(7) 0.9671(8) 0.5144(4)
O20_2 O 0.7980(13) 0.9771(8) 0.6244(7)
H35_2 H 0.0133722 0.82562 0.399181
H36_2 H 0.0487855 0.922953 0.43065
C32_2 C 0.0188(7) 0.9772(8) 0.9243(4)
C33_2 C 0.0722(8) 0.9151(8) 0.8999(5)
H20_2 H 0.1081 0.8724 0.9243
C34_2 C 0.0738(7) 0.9146(7) 0.8378(5)
C35_2 C 0.0167(6) 0.9766(6) 0.8013(4)
H21_2 H 0.0163 0.9759 0.7602
N5_2 N 0.0267(7) 0.9761(8) 0.9886(4)
C36_2 C 0.1361(7) 0.8458(7) 0.8105(7)
C12_2 C 0.9812(7) 0.0228(8) 0.0757(4)
C13_2 C 0.9278(8) 0.0849(8) 0.1001(5)
H5_2 H 0.8919 0.1276 0.0757
C14_2 C 0.9262(7) 0.0854(7) 0.1622(5)
C15_2 C 0.9833(6) 0.0234(6) 0.1987(4)
H6_2 H 0.9837 0.0241 0.2398
C16_2 C 0.8639(7) 0.1542(7) 0.1895(7)
N3_2 N 0.9733(7) 0.0239(8) 0.0114(4)
C29_2 C 0.8962(6) 0.1027(7) 0.7867(4)
C30_2 C 0.9610(6) 0.0389(6) 0.8261(4)
C31_2 C 0.9615(7) 0.0408(7) 0.8878(4)
H19_2 H 0.9246 0.0833 0.9047
H35_3 H 0.0133722 0.67438 0.899181
H35_4 H 0.986628 0.17438 0.600819
H31 H 0.995399 0.578233 0.862125
H31_2 H 0.0046008 0.0782332 0.637875
H31_3 H 0.0046008 0.421767 0.137875
H31_4 H 0.995399 0.921767 0.362125
loop_
_geom_bond_atom_site_label_1
_geom_bond_atom_site_label_2
_geom_bond_site_symmetry_1
_geom_bond_site_symmetry_2
C13 C12 1_555 1_555
H5 C13 1_555 1_555
C14 C13 1_555 1_555
H6 C15 1_555 1_555
C16 C14 1_555 1_555
N3 C12 1_555 1_555
O7 C16 1_555 1_555
O8 C16 1_555 1_555
C29 C30 1_555 1_555
C30 C31 1_555 1_555
C31 H19 1_555 1_555
O16 C29 1_555 1_555
O17 C29 1_555 1_555
Cd6 O7 1_555 1_555
Cd7 O16 1_555 1_555
Cd10 O8 1_555 1_555
Cd11 O17 1_555 1_555
C14 C15 1_555 1_555
O8 Cd6 1_555 1_555
C1 C2 1_555 1_555
C2 C3 1_555 1_555
C3 H1 1_555 1_555
C4 C3 1_555 1_555
C5 C4 1_555 1_555
H2 C5 1_555 1_555
C6 C5 1_555 1_555
C7 C2 1_555 1_555
H3 C7 1_555 1_555
C8 C4 1_555 1_555
C9 C10 1_555 1_555
C10 C11 1_555 1_555
C11 H4 1_555 1_555
C17 H7 1_555 1_555
H8 C17 1_555 1_555
H9 C17 1_555 1_555
C20 C17 1_555 1_555
N1 C6 1_555 1_555
O1 C1 1_555 1_555
O2 C1 1_555 1_555
O3 C8 1_555 1_555
O4 C8 1_555 1_555
O5 C9 1_555 1_555
O6 C9 1_555 1_555
O9 Cd2 1_555 1_555
O10 C20 1_555 1_555
O11 Cd2 1_555 1_555
Cd1 O1 1_555 1_555
Cd2 O1 1_555 1_555
C33 C32 1_555 1_555
H20 C33 1_555 1_555
C34 C33 1_555 1_555
H21 C35 1_555 1_555
C36 C34 1_555 1_555
O18 C36 1_555 1_555
O19 C36 1_555 1_555
C38 H25 1_555 1_555
H26 C38 1_555 1_555
H27 C38 1_555 1_555
C39 H28 1_555 1_555
H29 C39 1_555 1_555
H30 C39 1_555 1_555
N6 C38 1_555 1_555
O23 Cd1 1_555 1_555
O25 Cd1 1_555 1_555
O29 Cd1 1_555 1_555
O31 Cd1 1_555 1_555
Cd6 O3 1_555 1_555
Cd9 O18 1_555 1_555
Cd12 O19 1_555 1_555
C6 C7 1_555 1_555
O2 Cd1 1_555 1_555
O4 Cd6 1_555 1_555
O5 Cd1 1_555 1_555
O6 Cd2 1_555 1_555
O10 Cd2 1_555 1_555
Cd2 O31 1_555 1_555
C32 N5 1_555 1_555
C34 C35 1_555 1_555
O19 Cd9 1_555 1_555
C39 N6 1_555 1_555
O11 H35 1_555 1_555
O11 H36 1_555 1_555
C18 H10 1_555 1_555
H11 C18 1_555 1_555
H12 C18 1_555 1_555
C19 H13 1_555 1_555
H14 C19 1_555 1_555
H15 C19 1_555 1_555
N2 C18 1_555 1_555
C21 C22 1_555 1_555
C22 C23 1_555 1_555
C23 H16 1_555 1_555
C24 C23 1_555 1_555
C25 C24 1_555 1_555
H17 C25 1_555 1_555
C26 C25 1_555 1_555
C27 C22 1_555 1_555
H18 C27 1_555 1_555
C28 C24 1_555 1_555
O12 C21 1_555 1_555
O13 C21 1_555 1_555
O14 C28 1_555 1_555
O15 C28 1_555 1_555
C37 H22 1_555 1_555
H23 C37 1_555 1_555
H24 C37 1_555 1_555
C40 C37 1_555 1_555
O20 Cd11 1_555 1_555
O21 C40 1_555 1_555
O22 Cd11 1_555 1_555
Cd7 O12 1_555 1_555
Cd11 O12 1_555 1_555
O24 Cd7 1_555 1_555
O26 Cd7 1_555 1_555
O30 Cd7 1_555 1_555
O32 Cd7 1_555 1_555
Cd9 O14 1_555 1_555
C19 N2 1_555 1_555
C26 C27 1_555 1_555
C26 N4 1_555 1_555
O13 Cd7 1_555 1_555
O15 Cd9 1_555 1_555
O21 Cd11 1_555 1_555
Cd11 O32 1_555 1_555
O22 H32 1_555 1_555
C3_2 H1_2 1_555 1_555
C4_2 C3_2 1_555 1_555
C5_2 C4_2 1_555 1_555
H2_2 C5_2 1_555 1_555
C6_2 C5_2 1_555 1_555
C8_2 C4_2 1_555 1_555
N1_2 C6_2 1_555 1_555
O23 C8_2 1_555 1_555
O25 C8_2 1_555 1_555
C21_2 C22_2 1_555 1_555
C27_2 C22_2 1_555 1_555
H18_2 C27_2 1_555 1_555
O12_2 C21_2 1_555 1_555
O13_2 C21_2 1_555 1_555
C37_2 H22_2 1_555 1_555
H23_2 C37_2 1_555 1_555
H24_2 C37_2 1_555 1_555
C38_2 H25_2 1_555 1_555
H26_2 C38_2 1_555 1_555
H27_2 C38_2 1_555 1_555
C39_2 H28_2 1_555 1_555
H29_2 C39_2 1_555 1_555
H30_2 C39_2 1_555 1_555
C40_2 C37_2 1_555 1_555
N6_2 C38_2 1_555 1_555
O21_2 C40_2 1_555 1_555
O22_2 Cd12 1_555 1_555
Cd9 O12_2 1_555 1_555
Cd12 O12_2 1_555 1_555
O27 Cd9 1_555 1_555
O28 Cd12 1_555 1_555
O13_2 Cd9 1_555 1_555
C39_2 N6_2 1_555 1_555
C40_2 N6_2 1_555 1_555
O21_2 Cd12 1_555 1_555
O22_2 H32_2 1_555 1_555
C1_2 C2_2 1_555 1_555
C7_2 C2_2 1_555 1_555
H3_2 C7_2 1_555 1_555
C9_2 C10_2 1_555 1_555
C10_2 C11_2 1_555 1_555
C11_2 H4_2 1_555 1_555
C17_2 H7_2 1_555 1_555
H8_2 C17_2 1_555 1_555
H9_2 C17_2 1_555 1_555
C18_2 H10_2 1_555 1_555
H11_2 C18_2 1_555 1_555
H12_2 C18_2 1_555 1_555
C19_2 H13_2 1_555 1_555
H14_2 C19_2 1_555 1_555
H15_2 C19_2 1_555 1_555
C20_2 C17_2 1_555 1_555
N2_2 C18_2 1_555 1_555
O1_2 C1_2 1_555 1_555
O2_2 C1_2 1_555 1_555
O5_2 C9_2 1_555 1_555
O6_2 C9_2 1_555 1_555
O10_2 C20_2 1_555 1_555
O11_2 Cd10 1_555 1_555
Cd6 O1_2 1_555 1_555
Cd10 O1_2 1_555 1_555
C23_2 H16_2 1_555 1_555
C24_2 C23_2 1_555 1_555
C25_2 C24_2 1_555 1_555
H17_2 C25_2 1_555 1_555
C26_2 C25_2 1_555 1_555
C28_2 C24_2 1_555 1_555
O24 C28_2 1_555 1_555
O26 C28_2 1_555 1_555
C19_2 N2_2 1_555 1_555
C20_2 N2_2 1_555 1_555
O2_2 Cd6 1_555 1_555
O5_2 Cd6 1_555 1_555
O6_2 Cd10 1_555 1_555
O10_2 Cd10 1_555 1_555
C26_2 N4_2 1_555 1_555
O11_2 H35_2 1_555 1_555
O11_2 H36_2 1_555 1_555
C33_2 C32_2 1_555 1_555
H20_2 C33_2 1_555 1_555
C34_2 C33_2 1_555 1_555
H21_2 C35_2 1_555 1_555
C36_2 C34_2 1_555 1_555
O30 C36_2 1_555 1_555
O32 C36_2 1_555 1_555
C32_2 N5_2 1_555 1_555
C34_2 C35_2 1_555 1_555
C13_2 C12_2 1_555 1_555
H5_2 C13_2 1_555 1_555
C14_2 C13_2 1_555 1_555
H6_2 C15_2 1_555 1_555
C16_2 C14_2 1_555 1_555
N3_2 C12_2 1_555 1_555
O29 C16_2 1_555 1_555
O31 C16_2 1_555 1_555
C14_2 C15_2 1_555 1_555
C29_2 C30_2 1_555 1_555
C30_2 C31_2 1_555 1_555
C31_2 H19_2 1_555 1_555
O27 C29_2 1_555 1_555
O28 C29_2 1_555 1_555
O22 H35_3 1_555 1_555
O22_2 H35_4 1_555 1_555

#END
