
###############################################################################
#
# This file contains modified crystal structure data generated from the
# MOF subset of the Cambridge Structural Database (CSD) v543 
# hosted by the Cambridge Crystallographic Data Centre (CCDC).
#
# This work is licensed under the Creative Commons
# Attribution-NonCommercial-ShareAlike 4.0 International License.
# To view a copy of this license, visit
# http://creativecommons.org/licenses/by-nc-sa/4.0/
# or send a letter to
# Creative Commons, PO Box 1866, Mountain View, CA 94042, USA.
#
# CIF created using the CSD Python API on 29 September 2022
# The structure has been converted into the P1 space group
# The structure has a 3D framework
# The original CSD entry WIRMUH is in the monoclinic crystal system
# The framework has been calculated to contain at least 10.0% void space
# The void calculation uses a probe of radius 1.32A, grid spacing 0.4
#
###############################################################################

data_WIRMUH
_chemical_formula_moiety         '(C32 H34 Cu8 N16 O12)n'
_symmetry_cell_setting           triclinic
_symmetry_space_group_name_H-M   'P 1'
_symmetry_Int_Tables_number      1
_space_group_name_Hall           'P 1'
loop_
_symmetry_equiv_pos_site_id
_symmetry_equiv_pos_as_xyz
1 x,y,z
_cell_length_a                   10.7521(8)
_cell_length_b                   11.7077(7)
_cell_length_c                   12.3439(10)
_cell_angle_alpha                90
_cell_angle_beta                 92.146(7)
_cell_angle_gamma                90
_cell_volume                     1552.79
loop_
_atom_site_label
_atom_site_type_symbol
_atom_site_fract_x
_atom_site_fract_y
_atom_site_fract_z
C3 C 0.0924(11) 0.5877(10) 0.0222(9)
H2 H 0.1535 0.6447 0.0371
C10 C 0.0164(10) 0.4252(10) 0.2497(9)
C12 C 0.0484(10) 0.5164(10) 0.1025(8)
H11 H 0.0222 0.4010 0.3231
N6 N 0.0829(9) 0.5110(8) 0.2143(8)
Cu7 Cu 0.18605(15) 0.62091(14) 0.29494(13)
Cu1 Cu 0.1795(2) 0.7500 0.80638(18)
N1 N 0.0592(8) 0.6255(8) 0.8228(7)
C1 C 0.0409(9) 0.5697(10) 0.9190(9)
O5 O 0.153(3) 0.7500 0.606(2)
H10 H 0.1419 0.6969 0.5598
H15 H 0.1419 0.8031 0.5598
O7 O 0.3212(7) 0.8544(7) 0.8055(7)
H18 H 0.3112 0.9114 0.7634
N9 N 0.0592(8) 0.8745(8) 0.8228(7)
Cu9 Cu 0.4441(2) 0.7500 0.74703(18)
O10 O 0.3212(7) 0.6456(7) 0.8055(7)
N5 N 0.9408(8) 0.3745(8) 0.1772(7)
C9 C 0.9591(9) 0.4303(10) 0.0810(9)
Cu6 Cu 0.8205(2) 0.2500 0.19362(18)
C2 C 0.9836(10) 0.5748(10) 0.7503(9)
C4 C 0.9516(10) 0.4836(10) 0.8975(8)
H1 H 0.9778 0.5990 0.6769
N2 N 0.9171(9) 0.4890(8) 0.7857(8)
Cu2 Cu 0.81395(15) 0.37909(14) 0.70506(13)
O1 O 0.707(3) 0.2500 0.672(3)
O2 O 0.9211(12) 0.2500 0.7414(12)
O3 O 0.9157(17) 0.394(3) 0.5250(15)
N3 N 0.6854(8) 0.4907(8) 0.6590(8)
H3 H 0.6832 0.2500 0.6053
H4 H 0.9896 0.2500 0.7782
H5 H 0.8657 0.4504 0.5289
H6 H 0.8524 0.3618 0.4955
C5 C 0.5991(11) 0.4842(10) 0.5728(9)
C6 C 0.6465(10) 0.5742(10) 0.7232(9)
C7 C 0.5936(10) 0.4140(10) 0.4801(10)
C8 C 0.5064(11) 0.5679(10) 0.5905(8)
N4 N 0.5403(8) 0.6258(8) 0.6869(8)
H7 H 0.6897 0.5955 0.7886
H8 H 0.6551 0.3578 0.4671
H9 H 0.3112 0.5886 0.7634
C11 C 0.9076(11) 0.4123(10) 0.9778(9)
H12 H 0.8465 0.3553 0.9629
N7 N 0.3146(8) 0.5093(8) 0.3410(8)
C13 C 0.4009(11) 0.5158(10) 0.4272(9)
C14 C 0.3535(10) 0.4258(10) 0.2768(9)
C15 C 0.4064(10) 0.5860(10) 0.5199(10)
C16 C 0.4936(11) 0.4321(10) 0.4095(8)
N8 N 0.4597(8) 0.3742(8) 0.3131(8)
H13 H 0.3103 0.4045 0.2114
H14 H 0.3449 0.6422 0.5329
O6 O 0.0843(17) 0.606(3) 0.4750(15)
H16 H 0.1343 0.5496 0.4711
H17 H 0.1476 0.6382 0.5045
Cu8 Cu 0.81395(15) 0.12091(14) 0.70506(13)
O8 O 0.293(3) 0.7500 0.328(3)
O9 O 0.0789(12) 0.7500 0.2586(12)
N11 N 0.5403(8) 0.8742(8) 0.6869(8)
Cu10 Cu 0.5559(2) 0.2500 0.25297(18)
C2_2 C 0.0164(10) 0.0748(10) 0.2497(9)
H1_2 H 0.0222 0.0990 0.3231
C6_2 C 0.3535(10) 0.0742(10) 0.2768(9)
C8_2 C 0.4936(11) 0.0679(10) 0.4095(8)
N4_2 N 0.4597(8) 0.1258(8) 0.3131(8)
H7_2 H 0.3103 0.0955 0.2114
O4 O 0.6788(7) 0.1456(7) 0.1945(7)
H9_2 H 0.6888 0.0886 0.2366
N7_2 N 0.6854(8) 0.0093(8) 0.6590(8)
C13_2 C 0.5991(11) 0.0158(10) 0.5728(9)
C15_2 C 0.5936(10) 0.0860(10) 0.4801(10)
H14_2 H 0.6551 0.1422 0.4671
O6_2 O 0.9157(17) 0.106(3) 0.5250(15)
H16_2 H 0.8657 0.0496 0.5289
H17_2 H 0.8524 0.1382 0.4955
N10 N 0.9171(9) 0.0110(8) 0.7857(8)
O11 O 0.6788(7) 0.3544(7) 0.1945(7)
C4_2 C 0.0484(10) 0.9836(10) 0.1025(8)
N2_2 N 0.0829(9) 0.9890(8) 0.2143(8)
Cu2_2 Cu 0.18605(15) 0.87909(14) 0.29494(13)
O3_2 O 0.0843(17) 0.894(3) 0.4750(15)
N3_2 N 0.3146(8) 0.9907(8) 0.3410(8)
H3_2 H 0.3168 0.7500 0.3947
H4_2 H 0.0104 0.7500 0.2218
H5_2 H 0.1343 0.9504 0.4711
H6_2 H 0.1476 0.8618 0.5045
C5_2 C 0.4009(11) 0.9842(10) 0.4272(9)
C7_2 C 0.4064(10) 0.9140(10) 0.5199(10)
H8_2 H 0.3449 0.8578 0.5329
C11_2 C 0.0924(11) 0.9123(10) 0.0222(9)
H12_2 H 0.1535 0.8553 0.0371
C14_2 C 0.6465(10) 0.9258(10) 0.7232(9)
C16_2 C 0.5064(11) 0.9321(10) 0.5905(8)
H13_2 H 0.6897 0.9045 0.7886
C9_2 C 0.0409(9) 0.9303(10) 0.9190(9)
N1_2 N 0.9408(8) 0.1255(8) 0.1772(7)
C1_2 C 0.9591(9) 0.0697(10) 0.0810(9)
O5_2 O 0.847(3) 0.2500 0.394(2)
H10_2 H 0.8581 0.1969 0.4402
H15_2 H 0.8581 0.3031 0.4402
H18_2 H 0.6888 0.4114 0.2366
C3_2 C 0.9076(11) 0.0877(10) 0.9778(9)
H2_2 H 0.8465 0.1447 0.9629
C12_2 C 0.9516(10) 0.0164(10) 0.8975(8)
C10_2 C 0.9836(10) 0.9252(10) 0.7503(9)
H11_2 H 0.9778 0.9010 0.6769
loop_
_geom_bond_atom_site_label_1
_geom_bond_atom_site_label_2
_geom_bond_site_symmetry_1
_geom_bond_site_symmetry_2
C3 H2 1_555 1_555
C12 C3 1_555 1_555
H11 C10 1_555 1_555
N6 C10 1_555 1_555
Cu7 N6 1_555 1_555
C12 N6 1_555 1_555
Cu1 N1 1_555 1_555
N1 C1 1_555 1_555
O5 Cu1 1_555 1_555
H10 O5 1_555 1_555
H15 O5 1_555 1_555
O7 Cu1 1_555 1_555
H18 O7 1_555 1_555
N9 Cu1 1_555 1_555
Cu9 O7 1_555 1_555
O10 Cu1 1_555 1_555
Cu9 O10 1_555 1_555
N5 C9 1_555 1_555
Cu6 N5 1_555 1_555
H1 C2 1_555 1_555
N2 C2 1_555 1_555
Cu2 N2 1_555 1_555
O1 Cu2 1_555 1_555
O2 Cu2 1_555 1_555
O3 Cu2 1_555 1_555
N3 Cu2 1_555 1_555
H3 O1 1_555 1_555
H4 O2 1_555 1_555
H5 O3 1_555 1_555
H6 O3 1_555 1_555
C5 N3 1_555 1_555
C6 N3 1_555 1_555
C7 C5 1_555 1_555
C8 C5 1_555 1_555
N4 C6 1_555 1_555
H7 C6 1_555 1_555
H8 C7 1_555 1_555
Cu9 N4 1_555 1_555
H9 O10 1_555 1_555
C11 C4 1_555 1_555
H12 C11 1_555 1_555
N7 C13 1_555 1_555
C13 C15 1_555 1_555
C14 N7 1_555 1_555
C15 C8 1_555 1_555
C16 C7 1_555 1_555
N8 C14 1_555 1_555
H13 C14 1_555 1_555
H14 C15 1_555 1_555
Cu7 N7 1_555 1_555
O6 Cu7 1_555 1_555
H16 O6 1_555 1_555
H17 O6 1_555 1_555
Cu8 O1 1_555 1_555
O8 Cu7 1_555 1_555
O9 Cu7 1_555 1_555
N11 Cu9 1_555 1_555
Cu10 N8 1_555 1_555
C4 N2 1_555 1_555
O2 Cu8 1_555 1_555
C8 N4 1_555 1_555
C13 C16 1_555 1_555
C16 N8 1_555 1_555
H1_2 C2_2 1_555 1_555
N4_2 C6_2 1_555 1_555
H7_2 C6_2 1_555 1_555
Cu10 N4_2 1_555 1_555
O4 Cu10 1_555 1_555
H9_2 O4 1_555 1_555
N7_2 C13_2 1_555 1_555
C13_2 C15_2 1_555 1_555
C15_2 C8_2 1_555 1_555
H14_2 C15_2 1_555 1_555
Cu8 N7_2 1_555 1_555
O6_2 Cu8 1_555 1_555
H16_2 O6_2 1_555 1_555
H17_2 O6_2 1_555 1_555
Cu6 O4 1_555 1_555
N10 Cu8 1_555 1_555
O11 Cu10 1_555 1_555
C8_2 N4_2 1_555 1_555
Cu6 O11 1_555 1_555
Cu2_2 N2_2 1_555 1_555
O8 Cu2_2 1_555 1_555
O9 Cu2_2 1_555 1_555
O3_2 Cu2_2 1_555 1_555
N3_2 Cu2_2 1_555 1_555
H3_2 O8 1_555 1_555
H4_2 O9 1_555 1_555
H5_2 O3_2 1_555 1_555
H6_2 O3_2 1_555 1_555
C5_2 N3_2 1_555 1_555
C7_2 C5_2 1_555 1_555
H8_2 C7_2 1_555 1_555
C11_2 C4_2 1_555 1_555
H12_2 C11_2 1_555 1_555
C16_2 C7_2 1_555 1_555
N11 C14_2 1_555 1_555
H13_2 C14_2 1_555 1_555
C4_2 N2_2 1_555 1_555
C16_2 N11 1_555 1_555
N9 C9_2 1_555 1_555
Cu6 N1_2 1_555 1_555
N1_2 C1_2 1_555 1_555
O5_2 Cu6 1_555 1_555
H10_2 O5_2 1_555 1_555
H15_2 O5_2 1_555 1_555
H18_2 O11 1_555 1_555
C3_2 H2_2 1_555 1_555
C12_2 C3_2 1_555 1_555
C12_2 N10 1_555 1_555
H11_2 C10_2 1_555 1_555

#END
