
###############################################################################
#
# This file contains modified crystal structure data generated from the
# MOF subset of the Cambridge Structural Database (CSD) v543 
# hosted by the Cambridge Crystallographic Data Centre (CCDC).
#
# This work is licensed under the Creative Commons
# Attribution-NonCommercial-ShareAlike 4.0 International License.
# To view a copy of this license, visit
# http://creativecommons.org/licenses/by-nc-sa/4.0/
# or send a letter to
# Creative Commons, PO Box 1866, Mountain View, CA 94042, USA.
#
# CIF created using the CSD Python API on 29 September 2022
# The structure has been converted into the P1 space group
# The structure has a 3D framework
# The original CSD entry WISTID is in the triclinic crystal system
# The framework has been calculated to contain at least 10.0% void space
# The void calculation uses a probe of radius 1.32A, grid spacing 0.4
# H atom positions have been added when not included in the experimental data
#
###############################################################################

data_WISTID
_chemical_formula_moiety         '(C32 H16 O18 Zn2)n'
_symmetry_cell_setting           triclinic
_symmetry_space_group_name_H-M   'P 1'
_symmetry_Int_Tables_number      1
_space_group_name_Hall           'P 1'
loop_
_symmetry_equiv_pos_site_id
_symmetry_equiv_pos_as_xyz
1 x,y,z
_cell_length_a                   7.9974(18)
_cell_length_b                   10.3744(13)
_cell_length_c                   12.6106(15)
_cell_angle_alpha                90.316(10)
_cell_angle_beta                 90.311(14)
_cell_angle_gamma                107.047(15)
_cell_volume                     1000.27
loop_
_atom_site_label
_atom_site_type_symbol
_atom_site_fract_x
_atom_site_fract_y
_atom_site_fract_z
Zn4 Zn 0.17760(11) 0.12851(7) 0.94333(7)
O13 O 0.1687(7) 0.1208(5) 0.0987(4)
O3 O 0.9588(6) 0.0923(5) 0.8590(4)
H5 H 0.8579 0.0425 0.4870
C16 C 0.8649(10) 0.0203(7) 0.6438(6)
H6 H 0.9718 0.0855 0.6541
O5 O 0.5375(6) 0.0532(4) 0.8536(4)
O9 O 0.8163(7) 0.2929(5) 0.7925(5)
Zn2 Zn 0.55635(11) 0.21007(8) 0.76248(7)
O10 O 0.3326(9) 0.0882(6) 0.6626(5)
O11 O 0.5702(8) 0.2196(7) 0.6003(5)
O14 O 0.4821(8) 0.3639(5) 0.8068(5)
O15 O 0.2675(7) 0.3205(5) 0.9259(5)
H7 H 0.880899 0.229322 0.769409
H8 H 0.859726 0.378685 0.753021
Zn5 Zn 0.82240(11) 0.87149(7) 0.05667(7)
C1 C 0.3792(11) 0.3982(7) 0.8666(7)
O1 O 0.6674(9) 0.9118(6) 0.3374(5)
O2 O 0.4298(8) 0.7804(7) 0.3997(5)
C2 C 0.5795(13) 0.8613(9) 0.4145(8)
O4 O 0.8313(7) 0.8792(5) 0.9013(4)
C3 C 0.8592(9) 0.9749(7) 0.8377(6)
C4 C 0.7761(9) 0.9506(7) 0.7314(6)
C5 C 0.3997(11) 0.9614(7) 0.8768(6)
C6 C 0.4051(9) 0.8161(7) 0.8735(6)
C7 C 0.3027(10) 0.7272(7) 0.9454(6)
H1 H 0.2393 0.7598 0.9950
C8 C 0.2915(10) 0.5928(7) 0.9459(7)
H2 H 0.2202 0.5347 0.9942
C9 C 0.3890(9) 0.5453(6) 0.8730(6)
C10 C 0.4947(10) 0.6329(6) 0.8021(6)
H3 H 0.5583 0.5991 0.7534
C11 C 0.5096(10) 0.7695(6) 0.8009(6)
C12 C 0.6117(9) 0.8518(6) 0.7151(6)
C13 C 0.5487(10) 0.8291(7) 0.6128(7)
H4 H 0.4407 0.7658 0.6007
C14 C 0.6417(11) 0.8981(7) 0.5265(6)
C15 C 0.7973(10) 0.9943(8) 0.5439(6)
O6 O 0.2584(7) 0.9772(5) 0.9045(4)
Zn7 Zn 0.44365(11) 0.78993(8) 0.23752(7)
O12 O 0.0412(6) 0.9077(5) 0.1410(4)
C1_2 C 0.6208(11) 0.6018(7) 0.1334(7)
C2_2 C 0.4205(13) 0.1387(9) 0.5855(8)
C3_2 C 0.1408(9) 0.0251(7) 0.1623(6)
C4_2 C 0.2239(9) 0.0494(7) 0.2686(6)
C5_2 C 0.6003(11) 0.0386(7) 0.1232(6)
C6_2 C 0.5949(9) 0.1839(7) 0.1265(6)
C7_2 C 0.6973(10) 0.2728(7) 0.0546(6)
H1_2 H 0.7607 0.2402 0.0050
C8_2 C 0.7085(10) 0.4072(7) 0.0541(7)
H2_2 H 0.7798 0.4653 0.0058
C9_2 C 0.6110(9) 0.4547(6) 0.1270(6)
C10_2 C 0.5053(10) 0.3671(6) 0.1979(6)
H3_2 H 0.4417 0.4009 0.2466
C11_2 C 0.4904(10) 0.2305(6) 0.1991(6)
C12_2 C 0.3883(9) 0.1482(6) 0.2849(6)
C13_2 C 0.4513(10) 0.1709(7) 0.3872(7)
H4_2 H 0.5593 0.2342 0.3993
C14_2 C 0.3583(11) 0.1019(7) 0.4735(6)
C15_2 C 0.2027(10) 0.0057(8) 0.4561(6)
O6_2 O 0.7416(7) 0.0228(5) 0.0955(4)
O7 O 0.5179(8) 0.6361(5) 0.1932(5)
O8 O 0.7325(7) 0.6795(5) 0.0741(5)
H5_2 H 0.1421 0.9575 0.5130
C16_2 C 0.1351(10) 0.9797(7) 0.3562(6)
H6_2 H 0.0282 0.9145 0.3459
O5_2 O 0.4625(6) 0.9468(4) 0.1464(4)
O9_2 O 0.1837(7) 0.7071(5) 0.2075(5)
H7_2 H 0.119101 0.770678 0.230591
H8_2 H 0.140274 0.621315 0.246979
loop_
_geom_bond_atom_site_label_1
_geom_bond_atom_site_label_2
_geom_bond_site_symmetry_1
_geom_bond_site_symmetry_2
H6 C16 1_555 1_555
O9 Zn2 1_555 1_555
Zn2 O5 1_555 1_555
O10 Zn2 1_555 1_555
O11 Zn2 1_555 1_555
O14 Zn2 1_555 1_555
O15 Zn4 1_555 1_555
O9 H7 1_555 1_555
O9 H8 1_555 1_555
C1 C9 1_555 1_555
O1 C2 1_555 1_555
O2 C2 1_555 1_555
C2 C14 1_555 1_555
O4 C3 1_555 1_555
C3 C4 1_555 1_555
C4 C12 1_555 1_555
C5 C6 1_555 1_555
C6 C7 1_555 1_555
C7 H1 1_555 1_555
C8 C7 1_555 1_555
H2 C8 1_555 1_555
C9 C8 1_555 1_555
C10 C9 1_555 1_555
H3 C10 1_555 1_555
C11 C6 1_555 1_555
C12 C11 1_555 1_555
C13 C12 1_555 1_555
H4 C13 1_555 1_555
C14 C13 1_555 1_555
C15 C14 1_555 1_555
O6 C5 1_555 1_555
O14 C1 1_555 1_555
O15 C1 1_555 1_555
Zn7 O1 1_555 1_555
O2 Zn7 1_555 1_555
C10 C11 1_555 1_555
C1_2 C9_2 1_555 1_555
O10 C2_2 1_555 1_555
O11 C2_2 1_555 1_555
C2_2 C14_2 1_555 1_555
O13 C3_2 1_555 1_555
C3_2 C4_2 1_555 1_555
C4_2 C12_2 1_555 1_555
C5_2 C6_2 1_555 1_555
C6_2 C7_2 1_555 1_555
C7_2 H1_2 1_555 1_555
C8_2 C7_2 1_555 1_555
H2_2 C8_2 1_555 1_555
C9_2 C8_2 1_555 1_555
C10_2 C9_2 1_555 1_555
H3_2 C10_2 1_555 1_555
C11_2 C6_2 1_555 1_555
C12_2 C11_2 1_555 1_555
C13_2 C12_2 1_555 1_555
H4_2 C13_2 1_555 1_555
C14_2 C13_2 1_555 1_555
C15_2 C14_2 1_555 1_555
O6_2 C5_2 1_555 1_555
O7 C1_2 1_555 1_555
O8 C1_2 1_555 1_555
Zn5 O8 1_555 1_555
Zn7 O7 1_555 1_555
C10_2 C11_2 1_555 1_555
H6_2 C16_2 1_555 1_555
O9_2 Zn7 1_555 1_555
Zn7 O5_2 1_555 1_555
O9_2 H7_2 1_555 1_555
O9_2 H8_2 1_555 1_555

#END
