
###############################################################################
#
# This file contains modified crystal structure data generated from the
# MOF subset of the Cambridge Structural Database (CSD) v543 
# hosted by the Cambridge Crystallographic Data Centre (CCDC).
#
# This work is licensed under the Creative Commons
# Attribution-NonCommercial-ShareAlike 4.0 International License.
# To view a copy of this license, visit
# http://creativecommons.org/licenses/by-nc-sa/4.0/
# or send a letter to
# Creative Commons, PO Box 1866, Mountain View, CA 94042, USA.
#
# CIF created using the CSD Python API on 29 September 2022
# The structure has been converted into the P1 space group
# The structure has a 3D framework
# The original CSD entry WIVBUB is in the trigonal crystal system
# The original CSD entry WIVBUB is in a Sohncke space group
# The framework has been calculated to contain at least 10.0% void space
# The void calculation uses a probe of radius 1.32A, grid spacing 0.4
#
###############################################################################

data_WIVBUB
_chemical_formula_moiety         '(C54 H60 Cd6 N12 O24)n'
_symmetry_cell_setting           triclinic
_symmetry_space_group_name_H-M   'P 1'
_symmetry_Int_Tables_number      1
_space_group_name_Hall           'P 1'
loop_
_symmetry_equiv_pos_site_id
_symmetry_equiv_pos_as_xyz
1 x,y,z
_cell_length_a                   13.3227(4)
_cell_length_b                   13.3227(4)
_cell_length_c                   11.9170(7)
_cell_angle_alpha                90
_cell_angle_beta                 90
_cell_angle_gamma                120
_cell_volume                     1831.82
loop_
_atom_site_label
_atom_site_type_symbol
_atom_site_fract_x
_atom_site_fract_y
_atom_site_fract_z
H10 H 0.0344 0.0054 0.6068
C10 C 0.0444(15) 0.7738(11) 0.5450(12)
C11 C 0.0624(16) 0.7461(12) 0.6654(13)
H12 H 0.0051 0.7504 0.7136
C12 C 0.1845(23) 0.8376(13) 0.706(2)
H13 H 0.1935 0.9135 0.6995
H14 H 0.1941 0.8230 0.7832
H15 H 0.2420 0.8333 0.6611
H18 H 0.0217 0.2557 0.5815
H19 H 0.0506 0.4423 0.5716
N3 N 0.0468(13) 0.6309(8) 0.6746(10)
H20 H 0.1065 0.6220 0.6753
O6 O 0.0354(11) 0.7072(8) 0.4687(8)
O7 O 0.0341(11) 0.8605(8) 0.5298(8)
Cd2 Cd -0.0000 0.82780(7) 0.3334
Cd1 Cd 0.82780(7) -0.0000 0.6667
O1 O 0.9972(10) -0.0000 0.6667
C13 C 0.9423(15) 0.5395(10) 0.6820(14)
C14 C 0.9345(16) 0.4204(11) 0.6874(13)
C15 C 0.8615(18) 0.3436(12) 0.7637(16)
H16 H 0.8211 0.3645 0.8132
C16 C 0.8474(17) 0.2338(11) 0.7672(17)
H17 H 0.7969 0.1815 0.8199
C17 C 0.9792(18) 0.2770(11) 0.6277(16)
C18 C 0.9964(18) 0.3891(12) 0.6214(18)
N4 N 0.9027(12) 0.2003(8) 0.6992(12)
O5 O 0.8538(12) 0.5470(8) 0.6860(11)
Cd2_2 Cd 1.0000 0.82780(7) 0.3334
O8 O 0.7072(8) 0.0354(11) 0.5313(8)
O10 O 0.8605(8) 0.0341(11) 0.4702(8)
Cd3 Cd 0.17220(7) 0.17220(7) 0.0000
Cd1_2 Cd 0.82780(7) 1.0000 0.6667
C1 C 0.2706(10) 0.2262(11) 0.7883(12)
C2 C 0.3163(11) 0.2539(12) 0.6679(13)
H1 H 0.2547 0.2496 0.6197
C3 C 0.3469(19) 0.1624(13) 0.627(2)
H2 H 0.2800 0.0865 0.6338
H3 H 0.3711 0.1770 0.5501
H4 H 0.4087 0.1667 0.6722
C4 C 0.4028(11) 0.4605(10) 0.6513(14)
C5 C 0.5141(11) 0.5796(11) 0.6459(13)
C6 C 0.5179(14) 0.6564(12) 0.5696(16)
H5 H 0.4566 0.6355 0.5201
C7 C 0.6136(13) 0.7662(11) 0.5661(17)
H6 H 0.6154 0.8185 0.5134
C8 C 0.7022(14) 0.7230(11) 0.7056(16)
H7 H 0.7660 0.7443 0.7518
C9 C 0.6073(14) 0.6109(12) 0.7119(18)
H8 H 0.6083 0.5577 0.7617
N1 N 0.4159(10) 0.3691(8) 0.6587(10)
H9 H 0.4845 0.3780 0.6580
N2 N 0.7024(9) 0.7997(8) 0.6341(12)
O1_2 O 0.9972(10) 1.0000 0.6667
O2 O 0.3068(9) 0.4530(8) 0.6473(11)
O3 O 0.3282(8) 0.2928(8) 0.8646(8)
O4 O 0.1736(7) 0.1395(8) 0.8035(8)
Cd3_2 Cd 0.17220(7) 0.17220(7) 1.0000
O9 O 0.6718(8) 0.9646(11) 0.8021(8)
O11 O 0.8264(7) 0.9659(11) 0.8632(8)
C1_2 C 0.7738(11) 0.0444(15) 0.4550(12)
C2_2 C 0.7461(12) 0.0624(16) 0.3346(13)
H1_2 H 0.7504 0.0051 0.2864
C3_2 C 0.8376(13) 0.1845(23) 0.294(2)
H2_2 H 0.9135 0.1935 0.3005
H3_2 H 0.8230 0.1941 0.2168
H4_2 H 0.8333 0.2420 0.3389
H7_2 H 0.2557 0.0217 0.4185
H8_2 H 0.4423 0.0506 0.4284
N1_2 N 0.6309(8) 0.0468(13) 0.3254(10)
H9_2 H 0.6220 0.1065 0.3247
H11 H 0.0054 0.0344 0.3932
C4_2 C 0.5395(10) 0.9423(15) 0.3180(14)
C5_2 C 0.4204(11) 0.9345(16) 0.3126(13)
C6_2 C 0.3436(12) 0.8615(18) 0.2363(16)
H5_2 H 0.3645 0.8211 0.1868
C7_2 C 0.2338(11) 0.8474(17) 0.2328(17)
H6_2 H 0.1815 0.7969 0.1801
C8_2 C 0.2770(11) 0.9792(18) 0.3723(16)
C9_2 C 0.3891(12) 0.9964(18) 0.3786(18)
N2_2 N 0.2003(8) 0.9027(12) 0.3008(12)
O1_3 O 0.0000 0.9972(10) 0.3334
O2_2 O 0.5470(8) 0.8538(12) 0.3140(11)
O1_4 O 1.0000 0.9972(10) 0.3334
C10_2 C 0.2262(11) 0.2706(19) 0.2117(12)
C11_2 C 0.2539(12) 0.3163(20) 0.3321(13)
H12_2 H 0.2496 0.2547 0.3803
C12_2 C 0.1624(13) 0.3469(26) 0.373(2)
H13_2 H 0.0865 0.2800 0.3662
H14_2 H 0.1770 0.3711 0.4499
H15_2 H 0.1667 0.4087 0.3278
C13_2 C 0.4605(10) 0.4028(18) 0.3487(14)
C14_2 C 0.5796(11) 0.5141(19) 0.3541(13)
C15_2 C 0.6564(12) 0.5179(22) 0.4304(16)
H16_2 H 0.6355 0.4566 0.4799
C16_2 C 0.7662(11) 0.6136(20) 0.4339(17)
H17_2 H 0.8185 0.6154 0.4866
C17_2 C 0.7230(11) 0.7022(21) 0.2944(16)
H18_2 H 0.7443 0.7660 0.2482
C18_2 C 0.6109(12) 0.6073(22) 0.2881(18)
H19_2 H 0.5577 0.6083 0.2383
N3_2 N 0.3691(8) 0.4159(15) 0.3413(10)
H20_2 H 0.3780 0.4845 0.3420
N4_2 N 0.7997(8) 0.7024(14) 0.3659(12)
O5_2 O 0.4530(8) 0.3068(14) 0.3527(11)
O6_2 O 0.2928(8) 0.3282(14) 0.1354(8)
O7_2 O 0.1395(8) 0.1736(14) 0.1965(8)
O8_2 O 0.9646(11) 0.6718(14) 0.1979(8)
O10_2 O 0.9659(11) 0.8264(14) 0.1368(8)
C8_3 C 0.0208(18) 0.2978(14) 0.0389(16)
C9_3 C 0.0036(18) 0.3927(14) 0.0452(18)
O1_5 O 0.0028(10) 0.0028(10) 0.0000
C13_3 C 0.5972(18) 0.0577(15) 0.0154(14)
C14_3 C 0.4859(19) 0.0655(16) 0.0208(13)
C15_3 C 0.4821(22) 0.1385(18) 0.0971(16)
H16_3 H 0.5434 0.1789 0.1466
C16_3 C 0.3864(20) 0.1526(17) 0.1006(17)
H17_3 H 0.3846 0.2031 0.1533
N4_3 N 0.2976(14) 0.0973(12) 0.0326(12)
O5_3 O 0.6932(14) 0.1462(12) 0.0194(11)
C4_3 C 0.0577(15) 0.5972(11) 0.9846(14)
C5_3 C 0.0655(16) 0.4859(11) 0.9792(13)
C6_3 C 0.1385(18) 0.4821(14) 0.9029(16)
H5_3 H 0.1789 0.5434 0.8534
C7_3 C 0.1526(17) 0.3864(13) 0.8994(17)
H6_3 H 0.2031 0.3846 0.8467
N2_3 N 0.0973(12) 0.2976(9) 0.9674(12)
O1_6 O 0.0028(10) 0.0028(10) 1.0000
O2_3 O 0.1462(12) 0.6932(9) 0.9806(11)
C17_3 C 0.2978(21) 0.0208(18) 0.9611(16)
C18_3 C 0.3927(22) 0.0036(18) 0.9548(18)
C10_3 C 0.7294(19) 0.9556(15) 0.8784(12)
C11_3 C 0.6837(20) 0.9376(16) 0.9988(13)
H15_3 H 0.5913 0.7580 0.9945
H18_3 H 0.2340 0.9783 0.9149
H19_3 H 0.3917 0.9494 0.9050
C1_3 C 0.9556(15) 0.7294(10) 0.1216(12)
C2_3 C 0.9376(16) 0.6837(11) 0.0012(13)
H4_3 H 0.7580 0.5913 0.0055
H7_3 H 0.9783 0.2340 0.0851
H8_3 H 0.9494 0.3917 0.0950
H11_2 H 0.0290 0.9946 0.7265
H10_2 H 0.9946 0.0290 0.2735
H12_3 H 0.7453 0.9949 0.0470
C12_3 C 0.6531(26) 0.8155(23) 0.040(2)
H13_3 H 0.7200 0.8065 0.0329
H14_3 H 0.6289 0.8059 0.1166
N3_3 N 0.5841(15) 0.9532(13) 0.0080(10)
H20_3 H 0.5155 0.8935 0.0087
H1_3 H 0.9949 0.7453 0.9530
C3_3 C 0.8155(23) 0.6531(19) 0.960(2)
H2_3 H 0.8065 0.7200 0.9671
H3_3 H 0.8059 0.6289 0.8834
N1_3 N 0.9532(13) 0.5841(10) 0.9920(10)
H9_3 H 0.8935 0.5155 0.9913
H11_3 H 0.9656 0.9710 0.0599
H10_3 H 0.9710 0.9656 0.9401
loop_
_geom_bond_atom_site_label_1
_geom_bond_atom_site_label_2
_geom_bond_site_symmetry_1
_geom_bond_site_symmetry_2
C10 C11 1_555 1_555
C11 H12 1_555 1_555
C12 C11 1_555 1_555
H13 C12 1_555 1_555
H14 C12 1_555 1_555
H15 C12 1_555 1_555
N3 C11 1_555 1_555
H20 N3 1_555 1_555
O6 C10 1_555 1_555
O7 C10 1_555 1_555
Cd2 O6 1_555 1_555
O7 Cd2 1_555 1_555
O1 Cd1 1_555 1_555
C13 C14 1_555 1_555
C14 C15 1_555 1_555
C15 H16 1_555 1_555
C16 C15 1_555 1_555
H17 C16 1_555 1_555
C18 C14 1_555 1_555
N4 Cd1 1_555 1_555
O5 C13 1_555 1_555
O8 Cd1 1_555 1_555
O10 Cd1 1_555 1_555
C16 N4 1_555 1_555
C17 C18 1_555 1_555
C17 N4 1_555 1_555
Cd1_2 N2 1_555 1_555
C1 C2 1_555 1_555
C2 H1 1_555 1_555
C3 C2 1_555 1_555
H2 C3 1_555 1_555
H3 C3 1_555 1_555
H4 C3 1_555 1_555
C4 C5 1_555 1_555
C5 C6 1_555 1_555
C6 H5 1_555 1_555
C7 C6 1_555 1_555
H6 C7 1_555 1_555
C8 H7 1_555 1_555
C9 C5 1_555 1_555
H8 C9 1_555 1_555
N1 C2 1_555 1_555
H9 N1 1_555 1_555
N2 C7 1_555 1_555
O1_2 Cd1_2 1_555 1_555
O2 C4 1_555 1_555
O3 C1 1_555 1_555
O4 C1 1_555 1_555
Cd3_2 O3 1_555 1_555
O9 Cd1_2 1_555 1_555
O11 Cd1_2 1_555 1_555
C4 N1 1_555 1_555
C8 C9 1_555 1_555
C8 N2 1_555 1_555
O4 Cd3_2 1_555 1_555
C1_2 C2_2 1_555 1_555
C2_2 H1_2 1_555 1_555
C3_2 C2_2 1_555 1_555
H2_2 C3_2 1_555 1_555
H3_2 C3_2 1_555 1_555
H4_2 C3_2 1_555 1_555
N1_2 C2_2 1_555 1_555
H9_2 N1_2 1_555 1_555
O8 C1_2 1_555 1_555
O10 C1_2 1_555 1_555
Cd2 N2_2 1_555 1_555
C4_2 C5_2 1_555 1_555
C5_2 C6_2 1_555 1_555
C6_2 H5_2 1_555 1_555
C7_2 C6_2 1_555 1_555
H6_2 C7_2 1_555 1_555
C9_2 C5_2 1_555 1_555
N2_2 C7_2 1_555 1_555
O1_3 Cd2 1_555 1_555
O2_2 C4_2 1_555 1_555
C8_2 C9_2 1_555 1_555
C8_2 N2_2 1_555 1_555
O1_4 Cd2_2 1_555 1_555
C10_2 C11_2 1_555 1_555
C11_2 H12_2 1_555 1_555
C12_2 C11_2 1_555 1_555
H13_2 C12_2 1_555 1_555
H14_2 C12_2 1_555 1_555
H15_2 C12_2 1_555 1_555
C13_2 C14_2 1_555 1_555
C14_2 C15_2 1_555 1_555
C15_2 H16_2 1_555 1_555
C16_2 C15_2 1_555 1_555
H17_2 C16_2 1_555 1_555
C17_2 H18_2 1_555 1_555
C18_2 C14_2 1_555 1_555
H19_2 C18_2 1_555 1_555
N3_2 C11_2 1_555 1_555
H20_2 N3_2 1_555 1_555
N4_2 Cd2_2 1_555 1_555
O5_2 C13_2 1_555 1_555
O6_2 C10_2 1_555 1_555
O7_2 C10_2 1_555 1_555
Cd3 O6_2 1_555 1_555
O8_2 Cd2_2 1_555 1_555
O10_2 Cd2_2 1_555 1_555
C13_2 N3_2 1_555 1_555
C16_2 N4_2 1_555 1_555
C17_2 C18_2 1_555 1_555
C17_2 N4_2 1_555 1_555
O7_2 Cd3 1_555 1_555
O1_5 Cd3 1_555 1_555
C13_3 C14_3 1_555 1_555
C14_3 C15_3 1_555 1_555
C15_3 H16_3 1_555 1_555
C16_3 C15_3 1_555 1_555
H17_3 C16_3 1_555 1_555
N4_3 Cd3 1_555 1_555
O5_3 C13_3 1_555 1_555
C8_3 C9_3 1_555 1_555
C16_3 N4_3 1_555 1_555
Cd3_2 N2_3 1_555 1_555
C4_3 C5_3 1_555 1_555
C5_3 C6_3 1_555 1_555
C6_3 H5_3 1_555 1_555
C7_3 C6_3 1_555 1_555
H6_3 C7_3 1_555 1_555
N2_3 C7_3 1_555 1_555
O1_6 Cd3_2 1_555 1_555
O2_3 C4_3 1_555 1_555
C17_3 C18_3 1_555 1_555
C10_3 C11_3 1_555 1_555
O9 C10_3 1_555 1_555
O11 C10_3 1_555 1_555
C1_3 C2_3 1_555 1_555
O8_2 C1_3 1_555 1_555
O10_2 C1_3 1_555 1_555
H13_3 C12_3 1_555 1_555
H14_3 C12_3 1_555 1_555
H20_3 N3_3 1_555 1_555
H2_3 C3_3 1_555 1_555
H3_3 C3_3 1_555 1_555
H9_3 N1_3 1_555 1_555

#END
