
###############################################################################
#
# This file contains modified crystal structure data generated from the
# MOF subset of the Cambridge Structural Database (CSD) v543 
# hosted by the Cambridge Crystallographic Data Centre (CCDC).
#
# This work is licensed under the Creative Commons
# Attribution-NonCommercial-ShareAlike 4.0 International License.
# To view a copy of this license, visit
# http://creativecommons.org/licenses/by-nc-sa/4.0/
# or send a letter to
# Creative Commons, PO Box 1866, Mountain View, CA 94042, USA.
#
# CIF created using the CSD Python API on 29 September 2022
# The structure has been converted into the P1 space group
# The structure has a 3D framework
# The original CSD entry WIXLAT is in the monoclinic crystal system
# The framework has been calculated to contain at least 10.0% void space
# The void calculation uses a probe of radius 1.32A, grid spacing 0.4
# H atom positions have been added when not included in the experimental data
#
###############################################################################

data_WIXLAT
_chemical_formula_moiety         '(C64 H40 N4 O22 Sc4)n'
_symmetry_cell_setting           triclinic
_symmetry_space_group_name_H-M   'P 1'
_symmetry_Int_Tables_number      1
_space_group_name_Hall           'P 1'
loop_
_symmetry_equiv_pos_site_id
_symmetry_equiv_pos_as_xyz
1 x,y,z
_cell_length_a                   15.504(7)
_cell_length_b                   9.443(4)
_cell_length_c                   15.975(7)
_cell_angle_alpha                90
_cell_angle_beta                 99.277(14)
_cell_angle_gamma                90
_cell_volume                     2308.22
loop_
_atom_site_label
_atom_site_type_symbol
_atom_site_fract_x
_atom_site_fract_y
_atom_site_fract_z
Sc4 Sc 0.04345(10) 0.44651(18) 0.65128(10)
O7 O 0.9085(5) 0.4306(9) 0.4357(5)
O8 O 0.9644(4) 0.3288(7) 0.5600(4)
O9 O 0.1237(4) 0.4299(9) 0.2394(5)
O10 O 0.0611(4) 0.4141(7) 0.3562(4)
N2 N 0.5040(6) 0.1331(12) 0.4653(9)
C17 C 0.5777(6) 0.0616(13) 0.5010(9)
C18 C 0.4283(7) 0.0750(15) 0.4682(11)
C19 C 0.6598(6) 0.1412(13) 0.5047(9)
C20 C 0.7238(6) 0.1497(13) 0.5779(8)
H9 H 0.713342 0.106062 0.628930
C21 C 0.8014(6) 0.2205(12) 0.5767(6)
H10 H 0.843226 0.226578 0.627059
C22 C 0.8191(6) 0.2837(12) 0.5015(7)
C23 C 0.7571(9) 0.2798(18) 0.4303(9)
H11 H 0.768013 0.325197 0.380010
C24 C 0.6771(8) 0.2092(18) 0.4306(11)
H12 H 0.634611 0.207327 0.380619
C25 C 0.9027(6) 0.3535(11) 0.5003(6)
C26 C 0.3500(7) 0.1622(13) 0.4304(9)
C27 C 0.3471(7) 0.2227(17) 0.3508(10)
H13 H 0.394538 0.212313 0.320385
C28 C 0.2750(7) 0.2967(16) 0.3177(9)
H14 H 0.272837 0.337963 0.263132
C29 C 0.2045(7) 0.3154(12) 0.3592(7)
C30 C 0.2108(7) 0.2588(14) 0.4406(7)
H15 H 0.164872 0.274059 0.472393
C31 C 0.2817(8) 0.1823(16) 0.4747(9)
H16 H 0.284336 0.142220 0.529593
C32 C 0.1239(6) 0.3879(11) 0.3166(6)
Sc8 Sc 0.95655(10) 0.55349(18) 0.34872(10)
Sc9 Sc 0.04345(10) 0.55349(18) 0.15128(10)
O1 O 0.000000 0.3475(9) 0.750000
O2 O 0.1446(5) 0.2992(11) 0.6510(5)
O3 O 0.0915(5) 0.5694(9) 0.5643(5)
O4 O 0.0356(4) 0.6712(7) 0.4400(4)
O5 O 0.8763(4) 0.5701(9) 0.7606(5)
O6 O 0.9389(4) 0.5859(7) 0.6438(4)
N1 N 0.4960(6) 0.8669(12) 0.5347(9)
C1 C 0.4223(6) 0.9384(13) 0.4990(9)
C2 C 0.5717(7) 0.9250(15) 0.5318(11)
C3 C 0.3402(6) 0.8588(13) 0.4953(9)
C4 C 0.2762(6) 0.8503(13) 0.4221(8)
H1 H 0.286658 0.893938 0.371070
C5 C 0.1986(6) 0.7795(12) 0.4233(6)
H2 H 0.156774 0.773422 0.372941
C6 C 0.1809(6) 0.7163(12) 0.4985(7)
C7 C 0.2429(9) 0.7202(18) 0.5697(9)
H3 H 0.231987 0.674803 0.619990
C8 C 0.3229(8) 0.7908(18) 0.5694(11)
H4 H 0.365389 0.792673 0.619381
C9 C 0.0973(6) 0.6465(11) 0.4997(6)
C10 C 0.6500(7) 0.8378(13) 0.5696(9)
C11 C 0.6529(7) 0.7773(17) 0.6492(10)
H5 H 0.605462 0.787687 0.679615
C12 C 0.7250(7) 0.7033(16) 0.6823(9)
H6 H 0.727163 0.662037 0.736868
C13 C 0.7955(7) 0.6846(12) 0.6408(7)
C14 C 0.7892(7) 0.7412(14) 0.5594(7)
H7 H 0.835128 0.725941 0.527607
C15 C 0.7183(8) 0.8177(16) 0.5253(9)
H8 H 0.715664 0.857780 0.470407
C16 C 0.8761(6) 0.6121(11) 0.6834(6)
Sc5 Sc 0.95655(10) 0.44651(18) 0.84872(10)
O14 O 0.0356(4) 0.3288(7) 0.9400(4)
O16 O 0.1237(4) 0.5701(9) 0.7394(5)
O18 O 0.0611(4) 0.5859(7) 0.8562(4)
H19 H 0.119377 0.202958 0.64044
H20 H 0.178818 0.323935 0.605601
O1_2 O 1.000000 0.3475(9) 0.750000
O11 O 0.8554(5) 0.2992(11) 0.8490(5)
O12 O 0.9085(5) 0.5694(9) 0.9357(5)
H17 H 0.880623 0.202958 0.85956
H18 H 0.821182 0.323935 0.894399
O7_2 O 0.0915(5) 0.4306(9) 0.0643(5)
O9_2 O 0.8763(4) 0.4299(9) 0.2606(5)
O10_2 O 0.9389(4) 0.4141(7) 0.1438(4)
N2_2 N 0.4960(6) 0.1331(12) 0.0347(9)
C18_2 C 0.5717(7) 0.0750(15) 0.0318(11)
C23_2 C 0.2429(9) 0.2798(18) 0.0697(9)
H11_2 H 0.231987 0.325197 0.119990
C24_2 C 0.3229(8) 0.2092(18) 0.0694(11)
H12_2 H 0.365389 0.207327 0.119381
C26_2 C 0.6500(7) 0.1622(13) 0.0696(9)
C27_2 C 0.6529(7) 0.2227(17) 0.1492(10)
H13_2 H 0.605462 0.212313 0.179615
C28_2 C 0.7250(7) 0.2967(16) 0.1823(9)
H14_2 H 0.727163 0.337963 0.236868
C29_2 C 0.7955(7) 0.3154(12) 0.1408(7)
C30_2 C 0.7892(7) 0.2588(14) 0.0594(7)
H15_2 H 0.835128 0.274059 0.027607
C31_2 C 0.7183(8) 0.1823(16) 0.0253(9)
C32_2 C 0.8761(6) 0.3879(11) 0.1834(6)
C17_2 C 0.4223(6) 0.0616(13) 0.9990(9)
C19_2 C 0.3402(6) 0.1412(13) 0.9953(9)
C20_2 C 0.2762(6) 0.1497(13) 0.9221(8)
H9_2 H 0.286658 0.106062 0.871070
C21_2 C 0.1986(6) 0.2205(12) 0.9233(6)
H10_2 H 0.156774 0.226578 0.872941
C22_2 C 0.1809(6) 0.2837(12) 0.9985(7)
C25_2 C 0.0973(6) 0.3535(11) 0.9997(6)
H16_2 H 0.715664 0.142220 0.970407
O4_2 O 0.9644(4) 0.6712(7) 0.0600(4)
C1_2 C 0.5777(6) 0.9384(13) 0.0010(9)
C3_2 C 0.6598(6) 0.8588(13) 0.0047(9)
C4_2 C 0.7238(6) 0.8503(13) 0.0779(8)
H1_2 H 0.713342 0.893938 0.128930
C5_2 C 0.8014(6) 0.7795(12) 0.0767(6)
H2_2 H 0.843226 0.773422 0.127059
C6_2 C 0.8191(6) 0.7163(12) 0.0015(7)
C9_2 C 0.9027(6) 0.6465(11) 0.0003(6)
H8_2 H 0.284336 0.857780 0.029593
N1_2 N 0.5040(6) 0.8669(12) 0.9653(9)
C2_2 C 0.4283(7) 0.9250(15) 0.9682(11)
C7_2 C 0.7571(9) 0.7202(18) 0.9303(9)
H3_2 H 0.768013 0.674803 0.880010
C8_2 C 0.6771(8) 0.7908(18) 0.9306(11)
H4_2 H 0.634611 0.792673 0.880619
C10_2 C 0.3500(7) 0.8378(13) 0.9304(9)
C11_2 C 0.3471(7) 0.7773(17) 0.8508(10)
H5_2 H 0.394538 0.787687 0.820385
C12_2 C 0.2750(7) 0.7033(16) 0.8177(9)
H6_2 H 0.272837 0.662037 0.763132
C13_2 C 0.2045(7) 0.6846(12) 0.8592(7)
C14_2 C 0.2108(7) 0.7412(14) 0.9406(7)
H7_2 H 0.164872 0.725941 0.972393
C15_2 C 0.2817(8) 0.8177(16) 0.9747(9)
C16_2 C 0.1239(6) 0.6121(11) 0.8166(6)
O1_3 O 0.000000 0.6525(9) 0.250000
O11_2 O 0.1446(5) 0.7008(11) 0.1510(5)
H17_2 H 0.119377 0.797042 0.14044
H18_2 H 0.178818 0.676065 0.105601
O1_4 O 1.000000 0.6525(9) 0.250000
O2_2 O 0.8554(5) 0.7008(11) 0.3490(5)
H19_2 H 0.880623 0.797042 0.35956
H20_2 H 0.821182 0.676065 0.394399
loop_
_geom_bond_atom_site_label_1
_geom_bond_atom_site_label_2
_geom_bond_site_symmetry_1
_geom_bond_site_symmetry_2
O7 C25 1_555 1_555
O8 C25 1_555 1_555
O9 C32 1_555 1_555
O10 C32 1_555 1_555
N2 C17 1_555 1_555
C19 C17 1_555 1_555
C20 C19 1_555 1_555
H9 C20 1_555 1_555
C21 C20 1_555 1_555
H10 C21 1_555 1_555
C22 C21 1_555 1_555
C23 C22 1_555 1_555
H11 C23 1_555 1_555
C24 C19 1_555 1_555
H12 C24 1_555 1_555
C25 C22 1_555 1_555
C26 C18 1_555 1_555
C27 C26 1_555 1_555
H13 C27 1_555 1_555
C28 C27 1_555 1_555
H14 C28 1_555 1_555
C29 C28 1_555 1_555
C30 C29 1_555 1_555
H15 C30 1_555 1_555
C31 C26 1_555 1_555
H16 C31 1_555 1_555
C32 C29 1_555 1_555
Sc8 O7 1_555 1_555
Sc9 O9 1_555 1_555
N2 C18 1_555 1_555
C23 C24 1_555 1_555
C30 C31 1_555 1_555
Sc4 O1 1_555 1_555
O2 Sc4 1_555 1_555
O3 Sc4 1_555 1_555
O4 C9 1_555 1_555
O5 C16 1_555 1_555
O6 C16 1_555 1_555
N1 C1 1_555 1_555
C1 C3 1_555 1_555
C2 N1 1_555 1_555
C3 C4 1_555 1_555
C4 H1 1_555 1_555
C5 C4 1_555 1_555
H2 C5 1_555 1_555
C6 C5 1_555 1_555
C7 C6 1_555 1_555
H3 C7 1_555 1_555
C8 C3 1_555 1_555
H4 C8 1_555 1_555
C9 O3 1_555 1_555
C10 C2 1_555 1_555
C11 C10 1_555 1_555
H5 C11 1_555 1_555
C12 C11 1_555 1_555
H6 C12 1_555 1_555
C13 C12 1_555 1_555
C14 C13 1_555 1_555
H7 C14 1_555 1_555
C15 C10 1_555 1_555
H8 C15 1_555 1_555
C16 C13 1_555 1_555
Sc5 O5 1_555 1_555
O16 Sc4 1_555 1_555
C6 C9 1_555 1_555
C7 C8 1_555 1_555
C14 C15 1_555 1_555
O2 H19 1_555 1_555
O2 H20 1_555 1_555
O1_2 Sc5 1_555 1_555
Sc5 O11 1_555 1_555
O12 Sc5 1_555 1_555
O11 H17 1_555 1_555
O11 H18 1_555 1_555
O9_2 C32_2 1_555 1_555
O10_2 C32_2 1_555 1_555
H11_2 C23_2 1_555 1_555
H12_2 C24_2 1_555 1_555
C26_2 C18_2 1_555 1_555
C27_2 C26_2 1_555 1_555
H13_2 C27_2 1_555 1_555
C28_2 C27_2 1_555 1_555
H14_2 C28_2 1_555 1_555
C29_2 C28_2 1_555 1_555
C30_2 C29_2 1_555 1_555
H15_2 C30_2 1_555 1_555
C31_2 C26_2 1_555 1_555
C32_2 C29_2 1_555 1_555
Sc9 O7_2 1_555 1_555
Sc8 O9_2 1_555 1_555
N2_2 C18_2 1_555 1_555
C23_2 C24_2 1_555 1_555
C30_2 C31_2 1_555 1_555
O14 C25_2 1_555 1_555
C19_2 C17_2 1_555 1_555
C20_2 C19_2 1_555 1_555
H9_2 C20_2 1_555 1_555
C21_2 C20_2 1_555 1_555
H10_2 C21_2 1_555 1_555
C22_2 C21_2 1_555 1_555
C25_2 C22_2 1_555 1_555
O4_2 C9_2 1_555 1_555
C1_2 C3_2 1_555 1_555
C3_2 C4_2 1_555 1_555
C4_2 H1_2 1_555 1_555
C5_2 C4_2 1_555 1_555
H2_2 C5_2 1_555 1_555
C6_2 C5_2 1_555 1_555
C6_2 C9_2 1_555 1_555
O16 C16_2 1_555 1_555
O18 C16_2 1_555 1_555
C2_2 N1_2 1_555 1_555
H3_2 C7_2 1_555 1_555
H4_2 C8_2 1_555 1_555
C10_2 C2_2 1_555 1_555
C11_2 C10_2 1_555 1_555
H5_2 C11_2 1_555 1_555
C12_2 C11_2 1_555 1_555
H6_2 C12_2 1_555 1_555
C13_2 C12_2 1_555 1_555
C14_2 C13_2 1_555 1_555
H7_2 C14_2 1_555 1_555
C15_2 C10_2 1_555 1_555
C16_2 C13_2 1_555 1_555
C7_2 C8_2 1_555 1_555
C14_2 C15_2 1_555 1_555
O1_3 Sc9 1_555 1_555
Sc9 O11_2 1_555 1_555
O11_2 H17_2 1_555 1_555
O11_2 H18_2 1_555 1_555
Sc8 O1_4 1_555 1_555
O2_2 Sc8 1_555 1_555
O2_2 H19_2 1_555 1_555
O2_2 H20_2 1_555 1_555

#END
