
###############################################################################
#
# This file contains modified crystal structure data generated from the
# MOF subset of the Cambridge Structural Database (CSD) v543 
# hosted by the Cambridge Crystallographic Data Centre (CCDC).
#
# This work is licensed under the Creative Commons
# Attribution-NonCommercial-ShareAlike 4.0 International License.
# To view a copy of this license, visit
# http://creativecommons.org/licenses/by-nc-sa/4.0/
# or send a letter to
# Creative Commons, PO Box 1866, Mountain View, CA 94042, USA.
#
# CIF created using the CSD Python API on 29 September 2022
# The structure has been converted into the P1 space group
# The structure has a 3D framework
# The original CSD entry WIYCEP is in the orthorhombic crystal system
# The original CSD entry WIYCEP is in a Sohncke space group
# The framework has been calculated to contain at least 10.0% void space
# The void calculation uses a probe of radius 1.32A, grid spacing 0.4
#
###############################################################################

data_WIYCEP
_chemical_formula_moiety         '(C68 H96 O43 Zn8)n'
_symmetry_cell_setting           triclinic
_symmetry_space_group_name_H-M   'P 1'
_symmetry_Int_Tables_number      1
_space_group_name_Hall           'P 1'
loop_
_symmetry_equiv_pos_site_id
_symmetry_equiv_pos_as_xyz
1 x,y,z
_cell_length_a                   10.31858(14)
_cell_length_b                   12.5423(3)
_cell_length_c                   18.9242(3)
_cell_angle_alpha                90
_cell_angle_beta                 90
_cell_angle_gamma                90
_cell_volume                     2449.15
loop_
_atom_site_label
_atom_site_type_symbol
_atom_site_fract_x
_atom_site_fract_y
_atom_site_fract_z
Zn1 Zn 0.31791(6) 0.22530(5) 0.55025(4)
Zn2 Zn 0.50872(6) 0.37627(5) 0.44624(4)
C1 C 0.6749(6) 0.3786(5) 0.3229(3)
C2 C 0.6988(6) 0.4135(5) 0.2478(3)
C3 C 0.8198(6) 0.3925(5) 0.2179(3)
H1 H 0.881204 0.350476 0.242895
C4 C 0.8504(6) 0.4332(6) 0.1518(3)
H2 H 0.933029 0.419000 0.131644
C5 C 0.7604(6) 0.4949(5) 0.1145(3)
C6 C 0.6372(6) 0.5107(5) 0.1429(3)
H3 H 0.573694 0.548286 0.116480
C7 C 0.6068(6) 0.4718(5) 0.2097(3)
H4 H 0.523597 0.484772 0.229411
C8 C 0.7974(6) 0.5453(5) 0.0456(3)
O1 O 0.5625(4) 0.3996(4) 0.3487(2)
O2 O 0.7651(4) 0.3333(4) 0.3540(2)
O3 O 0.7101(4) 0.5725(4) 0.0034(2)
O4 O 0.9188(4) 0.5598(4) 0.0357(2)
C9 C 0.1081(5) 0.3062(5) 0.4661(3)
C10 C 0.2309(6) 0.3458(5) 0.4277(3)
H5 H 0.231022 0.425505 0.428258
C11 C 0.2293(6) 0.3084(6) 0.3508(4)
H6 H 0.150634 0.334624 0.327532
H7 H 0.305693 0.336361 0.326192
H8 H 0.230555 0.230322 0.349295
O5 O 0.1218(4) 0.2618(3) 0.5259(2)
O6 O 0.0033(4) 0.3233(3) 0.4352(2)
O7 O 0.3431(4) 0.3094(3) 0.4627(2)
C12 C 0.2334(7) 0.5257(6) 0.6034(5)
H9 H 0.193052 0.501290 0.558745
H10 H 0.170347 0.571436 0.628586
C13 C 0.2681(7) 0.4313(6) 0.6484(4)
H11 H 0.188316 0.386804 0.653625
C14 C 0.3150(9) 0.4594(8) 0.7221(4)
H12 H 0.249738 0.503490 0.745796
H13 H 0.328854 0.393865 0.749196
H14 H 0.396603 0.499067 0.718777
O8 O 0.3653(4) 0.3663(4) 0.6139(2)
H15 H 0.428(5) 0.397(6) 0.595(4)
O9 O 0.3496(5) 0.5856(4) 0.5882(3)
H16 H 0.329783 0.648899 0.578582
C15 C 0.3423(8) 0.6277(7) 0.4189(5)
H17 H 0.285698 0.656094 0.456673
H18 H 0.286156 0.598258 0.381215
C16 C 0.4244(7) 0.7181(7) 0.3886(5)
H19 H 0.367206 0.781118 0.379839
C17 C 0.4839(10) 0.6829(8) 0.3185(5)
H20 H 0.414785 0.662426 0.285714
H21 H 0.533943 0.741861 0.298295
H22 H 0.541206 0.621793 0.326634
O10 O 0.5241(6) 0.7482(5) 0.4370(4)
H23 H 0.500817 0.802604 0.459495
O11 O 0.4220(4) 0.5440(4) 0.4472(3)
H24 H 0.422(7) 0.559(7) 0.4908(16)
Zn5 Zn 0.81791(6) 0.27470(5) 0.44975(4)
Zn7 Zn 0.00872(6) 0.12373(5) 0.55376(4)
O12 O 0.2651(4) 0.1667(4) 0.6460(2)
O13 O 0.2899(4) 0.0725(4) 0.4966(2)
O14 O 0.5812(4) 0.4402(4) 0.5357(2)
O15 O 0.6218(4) 0.2382(3) 0.4741(2)
O16 O 0.5033(4) 0.1767(3) 0.5648(2)
Zn3 Zn 0.68209(6) 0.72530(5) 0.94975(4)
Zn6 Zn 0.99128(6) 0.62373(5) 0.94624(4)
Zn1_2 Zn 0.18209(6) 0.77470(5) 0.05025(4)
O5_2 O 0.3782(4) 0.7382(3) 0.0259(2)
C12_2 C 0.2666(7) 0.4743(6) 0.1034(5)
H9_2 H 0.306948 0.498710 0.058745
H10_2 H 0.329653 0.428564 0.128586
C13_2 C 0.2319(7) 0.5687(6) 0.1484(4)
H11_2 H 0.311684 0.613196 0.153625
C14_2 C 0.1850(9) 0.5406(8) 0.2221(4)
H12_2 H 0.250262 0.496510 0.245796
H13_2 H 0.171146 0.606135 0.249196
H14_2 H 0.103397 0.500933 0.218777
O8_2 O 0.1347(4) 0.6337(4) 0.1139(2)
H15_2 H 0.072(5) 0.603(6) 0.095(4)
O9_2 O 0.1504(5) 0.4144(4) 0.0882(3)
H16_2 H 0.170217 0.351101 0.078582
Zn7_2 Zn 0.49128(6) 0.87627(5) 0.05376(4)
O12_2 O 0.2349(4) 0.8333(4) 0.1460(2)
C9_2 C 0.3919(5) 0.6938(5) 0.9661(3)
C10_2 C 0.2691(6) 0.6542(5) 0.9277(3)
H5_2 H 0.268978 0.574495 0.928258
C11_2 C 0.2707(6) 0.6916(6) 0.8508(4)
H6_2 H 0.349366 0.665376 0.827532
H7_2 H 0.194307 0.663639 0.826192
H8_2 H 0.269445 0.769678 0.849295
O6_2 O 0.4967(4) 0.6767(3) 0.9352(2)
O7_2 O 0.1569(4) 0.6906(3) 0.9627(2)
C15_2 C 0.1577(8) 0.3723(7) 0.9189(5)
H17_2 H 0.214302 0.343906 0.956673
H18_2 H 0.213844 0.401742 0.881215
C16_2 C 0.0756(7) 0.2819(7) 0.8886(5)
H19_2 H 0.132794 0.218882 0.879839
C17_2 C 0.0161(10) 0.3171(8) 0.8185(5)
H20_2 H 0.085215 0.337574 0.785714
O11_2 O 0.0780(4) 0.4560(4) 0.9472(3)
H24_2 H 0.078(7) 0.441(7) 0.9908(16)
O13_2 O 0.2101(4) 0.9275(4) 0.9966(2)
O16_2 O 0.9967(4) 0.8233(3) 0.0648(2)
C1_2 C 0.8251(6) 0.6214(5) 0.8229(3)
C2_2 C 0.8012(6) 0.5865(5) 0.7478(3)
C3_2 C 0.6802(6) 0.6075(5) 0.7179(3)
H1_2 H 0.618796 0.649524 0.742895
C4_2 C 0.6496(6) 0.5668(6) 0.6518(3)
H2_2 H 0.566971 0.581000 0.631644
C5_2 C 0.7396(6) 0.5051(5) 0.6145(3)
C6_2 C 0.8628(6) 0.4893(5) 0.6429(3)
H3_2 H 0.926306 0.451714 0.616480
C7_2 C 0.8932(6) 0.5282(5) 0.7097(3)
H4_2 H 0.976403 0.515228 0.729411
C8_2 C 0.7026(6) 0.4547(5) 0.5456(3)
O1_2 O 0.9375(4) 0.6004(4) 0.8487(2)
O2_2 O 0.7349(4) 0.6667(4) 0.8540(2)
O3_2 O 0.7899(4) 0.4275(4) 0.5034(2)
H21_2 H 0.966057 0.258139 0.798295
H22_2 H 0.958794 0.378207 0.826634
O10_2 O 0.9759(6) 0.2518(5) 0.9370(4)
H23_2 H 0.999183 0.197396 0.959495
O15_2 O 0.8782(4) 0.7618(3) 0.9741(2)
C6_3 C 0.3628(6) 0.0107(5) 0.3571(3)
H3_3 H 0.426306 0.048286 0.383520
C8_3 C 0.2026(6) 0.0453(5) 0.4544(3)
O4_2 O 0.0812(4) 0.0598(4) 0.4643(2)
C15_3 C 0.6577(8) 0.1277(7) 0.0811(5)
H17_3 H 0.714302 0.156094 0.043327
H18_3 H 0.713844 0.098258 0.118785
C16_3 C 0.5756(7) 0.2181(7) 0.1114(5)
H19_3 H 0.632794 0.281118 0.120161
C17_3 C 0.5161(10) 0.1829(8) 0.1815(5)
H20_3 H 0.585215 0.162426 0.214286
H21_3 H 0.466057 0.241861 0.201705
H22_3 H 0.458794 0.121793 0.173366
O10_3 O 0.4759(6) 0.2482(5) 0.0630(4)
H23_3 H 0.499183 0.302604 0.040505
O11_3 O 0.5780(4) 0.0440(4) 0.0528(3)
H24_3 H 0.578(7) 0.059(7) 0.0092(16)
C1_3 C 0.3251(6) 0.8786(5) 0.1771(3)
C2_3 C 0.3012(6) 0.9135(5) 0.2522(3)
C3_3 C 0.1802(6) 0.8925(5) 0.2821(3)
H1_3 H 0.118796 0.850476 0.257105
C4_3 C 0.1496(6) 0.9332(6) 0.3482(3)
H2_3 H 0.066971 0.919000 0.368356
C5_3 C 0.2396(6) 0.9949(5) 0.3855(3)
C7_3 C 0.3932(6) 0.9718(5) 0.2903(3)
H4_3 H 0.476403 0.984772 0.270589
O1_3 O 0.4375(4) 0.8996(4) 0.1513(2)
C9_3 C 0.8919(5) 0.8062(5) 0.0339(3)
C10_3 C 0.7691(6) 0.8458(5) 0.0723(3)
H5_3 H 0.768978 0.925505 0.071742
C11_3 C 0.7707(6) 0.8084(6) 0.1492(4)
H6_3 H 0.849366 0.834624 0.172468
H7_3 H 0.694307 0.836361 0.173808
H8_3 H 0.769445 0.730322 0.150705
O7_3 O 0.6569(4) 0.8094(3) 0.0373(2)
C13_3 C 0.7319(7) 0.9313(6) 0.8516(4)
H11_3 H 0.811684 0.886804 0.846375
C14_3 C 0.6850(9) 0.9594(8) 0.7779(4)
H13_3 H 0.671146 0.893865 0.750804
H14_3 H 0.603397 0.999067 0.781223
O8_3 O 0.6347(4) 0.8663(4) 0.8861(2)
H15_3 H 0.572(5) 0.897(6) 0.905(4)
O14_2 O 0.4188(4) 0.9402(4) 0.9643(2)
C1_4 C 0.1749(6) 0.1214(5) 0.6771(3)
C2_4 C 0.1988(6) 0.0865(5) 0.7522(3)
C3_4 C 0.3198(6) 0.1075(5) 0.7821(3)
H1_4 H 0.381204 0.149524 0.757105
C4_4 C 0.3504(6) 0.0668(6) 0.8482(3)
H2_4 H 0.433029 0.081000 0.868356
C5_4 C 0.2604(6) 0.0051(5) 0.8855(3)
C7_4 C 0.1068(6) 0.0282(5) 0.7903(3)
H4_4 H 0.023597 0.015228 0.770589
O1_4 O 0.0625(4) 0.1004(4) 0.6513(2)
C6_4 C 0.1372(6) 0.9893(5) 0.8571(3)
H3_4 H 0.073694 0.951714 0.883520
C8_4 C 0.2974(6) 0.9547(5) 0.9544(3)
H21_4 H 0.033943 0.758139 0.701705
H22_4 H 0.041206 0.878207 0.673366
O10_4 O 0.0241(6) 0.7518(5) 0.5630(4)
H23_4 H 0.000817 0.697396 0.540505
C9_4 C 0.6081(5) 0.1938(5) 0.5339(3)
C10_4 C 0.7309(6) 0.1542(5) 0.5723(3)
H5_4 H 0.731022 0.074495 0.571742
C11_4 C 0.7293(6) 0.1916(6) 0.6492(4)
H6_4 H 0.650634 0.165376 0.672468
H7_4 H 0.805693 0.163639 0.673808
H8_4 H 0.730555 0.269678 0.650705
O7_4 O 0.8431(4) 0.1906(3) 0.5373(2)
C13_4 C 0.7681(7) 0.0687(6) 0.3516(4)
H11_4 H 0.688316 0.113196 0.346375
C14_4 C 0.8150(9) 0.0406(8) 0.2779(4)
H13_4 H 0.828854 0.106135 0.250804
H14_4 H 0.896603 0.000933 0.281223
O8_4 O 0.8653(4) 0.1337(4) 0.3861(2)
H15_4 H 0.928(5) 0.103(6) 0.405(4)
C12_3 C 0.7666(7) 0.0257(6) 0.8966(5)
H9_3 H 0.806948 0.001290 0.941255
H10_3 H 0.829653 0.071436 0.871414
H12_3 H 0.750262 0.003490 0.754204
O9_3 O 0.6504(5) 0.0856(4) 0.9118(3)
H16_3 H 0.670217 0.148899 0.921418
C12_4 C 0.7334(7) 0.9743(6) 0.3966(5)
H9_4 H 0.693052 0.998710 0.441255
H10_4 H 0.670347 0.928564 0.371414
H12_4 H 0.749738 0.996510 0.254204
O9_4 O 0.8496(5) 0.9144(4) 0.4118(3)
H16_4 H 0.829783 0.851101 0.421418
C15_4 C 0.8423(8) 0.8723(7) 0.5811(5)
H17_4 H 0.785698 0.843906 0.543327
H18_4 H 0.786156 0.901742 0.618785
C16_4 C 0.9244(7) 0.7819(7) 0.6114(5)
H19_4 H 0.867206 0.718882 0.620161
C17_4 C 0.9839(10) 0.8171(8) 0.6815(5)
H20_4 H 0.914785 0.837574 0.714286
O11_4 O 0.9220(4) 0.9560(4) 0.5528(3)
H24_4 H 0.922(7) 0.941(7) 0.5092(16)
loop_
_geom_bond_atom_site_label_1
_geom_bond_atom_site_label_2
_geom_bond_site_symmetry_1
_geom_bond_site_symmetry_2
Zn1 O5 1_555 1_555
Zn2 O1 1_555 1_555
C1 C2 1_555 1_555
C2 C3 1_555 1_555
C3 H1 1_555 1_555
C4 C3 1_555 1_555
H2 C4 1_555 1_555
C5 C4 1_555 1_555
C6 C5 1_555 1_555
H3 C6 1_555 1_555
C7 C2 1_555 1_555
H4 C7 1_555 1_555
C8 C5 1_555 1_555
O1 C1 1_555 1_555
O2 C1 1_555 1_555
O3 C8 1_555 1_555
O4 C8 1_555 1_555
C9 C10 1_555 1_555
C10 H5 1_555 1_555
C11 C10 1_555 1_555
H6 C11 1_555 1_555
H7 C11 1_555 1_555
H8 C11 1_555 1_555
O5 C9 1_555 1_555
O6 C9 1_555 1_555
O7 Zn1 1_555 1_555
C12 H9 1_555 1_555
H10 C12 1_555 1_555
C13 C12 1_555 1_555
H11 C13 1_555 1_555
C14 C13 1_555 1_555
H12 C14 1_555 1_555
H13 C14 1_555 1_555
H14 C14 1_555 1_555
O8 Zn1 1_555 1_555
H15 O8 1_555 1_555
O9 C12 1_555 1_555
H16 O9 1_555 1_555
C15 H17 1_555 1_555
H18 C15 1_555 1_555
C16 C15 1_555 1_555
H19 C16 1_555 1_555
C17 C16 1_555 1_555
H20 C17 1_555 1_555
H21 C17 1_555 1_555
H22 C17 1_555 1_555
O10 C16 1_555 1_555
H23 O10 1_555 1_555
O11 Zn2 1_555 1_555
H24 O11 1_555 1_555
Zn5 O2 1_555 1_555
Zn7 O5 1_555 1_555
O12 Zn1 1_555 1_555
O13 Zn1 1_555 1_555
O14 Zn2 1_555 1_555
O15 Zn2 1_555 1_555
O16 Zn1 1_555 1_555
Zn2 O7 1_555 1_555
C6 C7 1_555 1_555
C10 O7 1_555 1_555
C13 O8 1_555 1_555
C15 O11 1_555 1_555
Zn5 O15 1_555 1_555
Zn1_2 O5_2 1_555 1_555
C12_2 H9_2 1_555 1_555
H10_2 C12_2 1_555 1_555
C13_2 C12_2 1_555 1_555
H11_2 C13_2 1_555 1_555
C14_2 C13_2 1_555 1_555
H12_2 C14_2 1_555 1_555
H13_2 C14_2 1_555 1_555
H14_2 C14_2 1_555 1_555
O8_2 Zn1_2 1_555 1_555
H15_2 O8_2 1_555 1_555
O9_2 C12_2 1_555 1_555
H16_2 O9_2 1_555 1_555
Zn7_2 O5_2 1_555 1_555
O12_2 Zn1_2 1_555 1_555
C13_2 O8_2 1_555 1_555
C9_2 C10_2 1_555 1_555
C10_2 H5_2 1_555 1_555
C11_2 C10_2 1_555 1_555
H6_2 C11_2 1_555 1_555
H7_2 C11_2 1_555 1_555
H8_2 C11_2 1_555 1_555
O6_2 C9_2 1_555 1_555
C15_2 H17_2 1_555 1_555
H18_2 C15_2 1_555 1_555
C16_2 C15_2 1_555 1_555
H19_2 C16_2 1_555 1_555
C17_2 C16_2 1_555 1_555
H20_2 C17_2 1_555 1_555
H24_2 O11_2 1_555 1_555
Zn3 O6_2 1_555 1_555
C10_2 O7_2 1_555 1_555
C15_2 O11_2 1_555 1_555
Zn6 O1_2 1_555 1_555
C1_2 C2_2 1_555 1_555
C2_2 C3_2 1_555 1_555
C3_2 H1_2 1_555 1_555
C4_2 C3_2 1_555 1_555
H2_2 C4_2 1_555 1_555
C5_2 C4_2 1_555 1_555
C6_2 C5_2 1_555 1_555
H3_2 C6_2 1_555 1_555
C7_2 C2_2 1_555 1_555
H4_2 C7_2 1_555 1_555
C8_2 C5_2 1_555 1_555
O1_2 C1_2 1_555 1_555
O2_2 C1_2 1_555 1_555
O3_2 C8_2 1_555 1_555
O14 C8_2 1_555 1_555
H23_2 O10_2 1_555 1_555
Zn5 O3_2 1_555 1_555
Zn3 O2_2 1_555 1_555
O15_2 Zn6 1_555 1_555
C6_2 C7_2 1_555 1_555
Zn3 O15_2 1_555 1_555
H3_3 C6_3 1_555 1_555
O13 C8_3 1_555 1_555
O4_2 C8_3 1_555 1_555
C15_3 H17_3 1_555 1_555
H18_3 C15_3 1_555 1_555
C16_3 C15_3 1_555 1_555
H19_3 C16_3 1_555 1_555
C17_3 C16_3 1_555 1_555
H20_3 C17_3 1_555 1_555
H21_3 C17_3 1_555 1_555
H22_3 C17_3 1_555 1_555
O10_3 C16_3 1_555 1_555
H23_3 O10_3 1_555 1_555
H24_3 O11_3 1_555 1_555
Zn7 O4_2 1_555 1_555
C15_3 O11_3 1_555 1_555
Zn7_2 O1_3 1_555 1_555
C1_3 C2_3 1_555 1_555
C2_3 C3_3 1_555 1_555
C3_3 H1_3 1_555 1_555
C4_3 C3_3 1_555 1_555
H2_3 C4_3 1_555 1_555
C5_3 C4_3 1_555 1_555
C7_3 C2_3 1_555 1_555
H4_3 C7_3 1_555 1_555
O1_3 C1_3 1_555 1_555
O12_2 C1_3 1_555 1_555
C9_3 C10_3 1_555 1_555
C10_3 H5_3 1_555 1_555
C11_3 C10_3 1_555 1_555
H6_3 C11_3 1_555 1_555
H7_3 C11_3 1_555 1_555
H8_3 C11_3 1_555 1_555
O16_2 C9_3 1_555 1_555
Zn7_2 O7_3 1_555 1_555
C10_3 O7_3 1_555 1_555
H11_3 C13_3 1_555 1_555
C14_3 C13_3 1_555 1_555
H13_3 C14_3 1_555 1_555
H14_3 C14_3 1_555 1_555
O8_3 Zn3 1_555 1_555
H15_3 O8_3 1_555 1_555
C13_3 O8_3 1_555 1_555
Zn7 O1_4 1_555 1_555
C1_4 C2_4 1_555 1_555
C2_4 C3_4 1_555 1_555
C3_4 H1_4 1_555 1_555
C4_4 C3_4 1_555 1_555
H2_4 C4_4 1_555 1_555
C5_4 C4_4 1_555 1_555
C7_4 C2_4 1_555 1_555
H4_4 C7_4 1_555 1_555
O1_4 C1_4 1_555 1_555
O12 C1_4 1_555 1_555
H3_4 C6_4 1_555 1_555
O13_2 C8_4 1_555 1_555
O14_2 C8_4 1_555 1_555
H23_4 O10_4 1_555 1_555
C9_4 C10_4 1_555 1_555
C10_4 H5_4 1_555 1_555
C11_4 C10_4 1_555 1_555
H6_4 C11_4 1_555 1_555
H7_4 C11_4 1_555 1_555
H8_4 C11_4 1_555 1_555
O15 C9_4 1_555 1_555
O16 C9_4 1_555 1_555
O7_4 Zn5 1_555 1_555
H11_4 C13_4 1_555 1_555
C14_4 C13_4 1_555 1_555
H13_4 C14_4 1_555 1_555
H14_4 C14_4 1_555 1_555
O8_4 Zn5 1_555 1_555
H15_4 O8_4 1_555 1_555
C10_4 O7_4 1_555 1_555
C13_4 O8_4 1_555 1_555
C12_3 H9_3 1_555 1_555
H10_3 C12_3 1_555 1_555
O9_3 C12_3 1_555 1_555
H16_3 O9_3 1_555 1_555
C12_4 H9_4 1_555 1_555
H10_4 C12_4 1_555 1_555
O9_4 C12_4 1_555 1_555
H16_4 O9_4 1_555 1_555
C15_4 H17_4 1_555 1_555
H18_4 C15_4 1_555 1_555
C16_4 C15_4 1_555 1_555
H19_4 C16_4 1_555 1_555
C17_4 C16_4 1_555 1_555
H20_4 C17_4 1_555 1_555
H24_4 O11_4 1_555 1_555
C15_4 O11_4 1_555 1_555

#END
