
###############################################################################
#
# This file contains modified crystal structure data generated from the
# MOF subset of the Cambridge Structural Database (CSD) v543 
# hosted by the Cambridge Crystallographic Data Centre (CCDC).
#
# This work is licensed under the Creative Commons
# Attribution-NonCommercial-ShareAlike 4.0 International License.
# To view a copy of this license, visit
# http://creativecommons.org/licenses/by-nc-sa/4.0/
# or send a letter to
# Creative Commons, PO Box 1866, Mountain View, CA 94042, USA.
#
# CIF created using the CSD Python API on 29 September 2022
# The structure has been converted into the P1 space group
# The structure has a 3D framework
# The original CSD entry WIYZOU is in the monoclinic crystal system
# The framework has been calculated to contain at least 10.0% void space
# The void calculation uses a probe of radius 1.32A, grid spacing 0.4
# The framework is charged, counterions have been retained in the structure
#
###############################################################################

data_WIYZOU
_chemical_formula_moiety         '(C44 H54 Co18 O64 9+)n'
_symmetry_cell_setting           triclinic
_symmetry_space_group_name_H-M   'P 1'
_symmetry_Int_Tables_number      1
_space_group_name_Hall           'P 1'
loop_
_symmetry_equiv_pos_site_id
_symmetry_equiv_pos_as_xyz
1 x,y,z
_cell_length_a                   12.6162(2)
_cell_length_b                   11.3768(2)
_cell_length_c                   15.3401(3)
_cell_angle_alpha                90
_cell_angle_beta                 91.5390(10)
_cell_angle_gamma                90
_cell_volume                     2201
loop_
_atom_site_label
_atom_site_type_symbol
_atom_site_fract_x
_atom_site_fract_y
_atom_site_fract_z
Co1 Co 0.0000 0.0000 0.0000
O11 O 0.02601(16) 0.03515(18) 0.13248(12)
H2 H 0.081(2) -0.000(3) 0.164(2)
Co8 Co 0.71234(3) 0.09996(3) 0.22878(2)
Co13 Co 0.49401(3) 0.00197(3) 0.29242(2)
C16 C 0.4674(2) 0.1405(2) 0.02933(16)
C17 C 0.3632(2) 0.1072(2) 0.01299(17)
H14 H 0.320(3) 0.074(4) 0.064(3)
C22 C 0.5167(2) 0.1088(2) 0.11586(16)
O26 O 0.65348(15) 0.32275(16) 0.02459(12)
O27 O 0.45653(14) 0.07045(16) 0.17373(11)
O30 O 0.61612(14) 0.11596(16) 0.12230(11)
Co1_2 Co -0.0000 -0.0000 1.0000
Co7 Co 0.71234(3) 0.40004(3) 0.72878(2)
Co12 Co 0.49401(3) 0.49803(3) 0.79242(2)
C12 C 0.3179(2) 0.1119(2) 0.92948(16)
C13 C 0.3789(2) 0.1528(2) 0.86109(16)
C14 C 0.4825(2) 0.1936(2) 0.87821(16)
C15 C 0.5274(2) 0.1890(2) 0.96226(16)
C18 C 0.2083(2) 0.0631(2) 0.91562(17)
C19 C 0.3346(2) 0.1521(2) 0.76873(16)
C20 C 0.5492(2) 0.2338(2) 0.80420(16)
C21 C 0.6400(2) 0.2333(2) 0.97750(16)
O17 O 0.14565(15) 0.07881(17) 0.97667(12)
O18 O 0.18520(14) 0.00811(16) 0.84568(12)
O19 O 0.34849(14) 0.05758(15) 0.72448(11)
O20 O 0.28910(15) 0.24048(16) 0.74003(12)
O21 O 0.56497(14) 0.16590(16) 0.74240(11)
O22 O 0.58893(14) 0.33691(15) 0.81084(11)
O25 O 0.71278(14) 0.18143(17) 0.93825(11)
O37 O 0.49087(15) 0.05651(18) 0.58525(12)
H23 H 0.541(2) 0.109(3) 0.561(2)
H24 H 0.4278(19) 0.066(4) 0.553(2)
Co1_3 Co -0.0000 1.0000 1.0000
Co4 Co 0.28766(3) 0.90004(3) 0.77122(2)
Co9 Co 0.50599(3) 0.99803(3) 0.70758(2)
O24 O 0.41107(14) 0.83691(15) 0.68916(11)
O29 O 0.54347(14) 0.92955(16) 0.82627(11)
O32 O 0.38388(14) 0.88404(16) 0.87770(11)
H16 H 0.0399(17) 0.983(4) 0.843(3)
O35 O 0.21742(15) 0.74838(17) 0.82438(12)
H19 H 0.255(3) 0.718(3) 0.8710(17)
H20 H 0.208(3) 0.691(3) 0.7821(19)
O36 O 0.19482(16) 0.87562(18) 0.66055(13)
H21 H 0.1266(16) 0.855(4) 0.664(3)
H22 H 0.229(3) 0.824(3) 0.621(2)
O38 O 0.66003(15) 0.94014(16) 0.67818(12)
H25 H 0.677(3) 0.935(3) 0.6195(13)
H26 H 0.686(3) 0.870(3) 0.704(2)
Co1_4 Co 1.0000 0.0000 0.0000
H3 H 0.9601(17) 0.017(4) 0.157(3)
O13 O 0.78258(15) 0.25162(17) 0.17562(12)
H6 H 0.745(3) 0.282(3) 0.1290(17)
H7 H 0.792(3) 0.309(3) 0.2179(19)
O14 O 0.80518(16) 0.12438(18) 0.33945(13)
H8 H 0.8734(16) 0.145(4) 0.336(3)
H9 H 0.771(3) 0.176(3) 0.379(2)
O16 O 0.33997(15) 0.05986(16) 0.32182(12)
H12 H 0.323(3) 0.065(3) 0.3805(13)
H13 H 0.314(3) 0.130(3) 0.296(2)
O23 O 0.58893(14) 0.16309(15) 0.31084(11)
Co1_5 Co 1.0000 1.0000 0.0000
C1 C 0.6821(2) 0.8881(2) 0.07052(16)
C2 C 0.6211(2) 0.8472(2) 0.13891(16)
C3 C 0.5175(2) 0.8064(2) 0.12179(16)
C4 C 0.4726(2) 0.8110(2) 0.03774(16)
C7 C 0.7917(2) 0.9369(2) 0.08438(17)
C8 C 0.6654(2) 0.8479(2) 0.23127(16)
C9 C 0.4508(2) 0.7662(2) 0.19580(16)
C10 C 0.3600(2) 0.7667(2) 0.02250(16)
O1 O 0.85435(15) 0.92119(17) 0.02333(12)
O2 O 0.81480(14) 0.99189(16) 0.15432(12)
O3 O 0.65151(14) 0.94242(15) 0.27552(11)
O4 O 0.71090(15) 0.75952(16) 0.25997(12)
O5 O 0.43503(14) 0.83410(16) 0.25760(11)
O6 O 0.41107(14) 0.66309(15) 0.18916(11)
O7 O 0.28722(14) 0.81857(17) 0.06175(11)
O15 O 0.50913(15) 0.94349(18) 0.41475(12)
H10 H 0.459(2) 0.891(3) 0.439(2)
H11 H 0.5722(19) 0.934(4) 0.447(2)
Co5 Co 0.28766(3) 0.59996(3) 0.27122(2)
Co10 Co 0.50599(3) 0.50197(3) 0.20758(2)
Co1_6 Co 1.0000 1.0000 1.0000
C5 C 0.5326(2) 0.8595(2) 0.97067(16)
C6 C 0.6368(2) 0.8928(2) 0.98701(17)
H1 H 0.680(3) 0.926(4) 0.936(3)
C11 C 0.4833(2) 0.8912(2) 0.88414(16)
O8 O 0.34652(15) 0.67725(16) 0.97541(12)
O33 O 0.97399(16) 0.96485(18) 0.86752(12)
H15 H 0.919(2) 1.000(3) 0.836(2)
Co1_7 Co -0.0000 0.5000 0.5000
C1_2 C 0.3179(2) 0.3881(2) 0.42948(16)
C2_2 C 0.3789(2) 0.3472(2) 0.36109(16)
C3_2 C 0.4825(2) 0.3064(2) 0.37821(16)
C4_2 C 0.5274(2) 0.3110(2) 0.46226(16)
C5_2 C 0.4674(2) 0.3595(2) 0.52933(16)
C6_2 C 0.3632(2) 0.3928(2) 0.51299(17)
H1_2 H 0.320(3) 0.426(4) 0.564(3)
C7_2 C 0.2083(2) 0.4369(2) 0.41562(17)
C8_2 C 0.3346(2) 0.3479(2) 0.26873(16)
C9_2 C 0.5492(2) 0.2662(2) 0.30420(16)
C10_2 C 0.6400(2) 0.2667(2) 0.47750(16)
C11_2 C 0.5167(2) 0.3912(2) 0.61586(16)
O1_2 O 0.14565(15) 0.42119(17) 0.47667(12)
O2_2 O 0.18520(14) 0.49189(16) 0.34568(12)
O3_2 O 0.34849(14) 0.44242(15) 0.22448(11)
O4_2 O 0.28910(15) 0.25952(16) 0.24003(12)
O5_2 O 0.56497(14) 0.33410(16) 0.24240(11)
O7_2 O 0.71278(14) 0.31857(17) 0.43825(11)
O8_2 O 0.65348(15) 0.17725(16) 0.52459(12)
O9 O 0.45653(14) 0.42955(16) 0.67373(11)
O10 O 0.61612(14) 0.38404(16) 0.62230(11)
H3_2 H 0.0399(17) 0.517(4) 0.343(3)
O13_2 O 0.21742(15) 0.75162(17) 0.32438(12)
H6_2 H 0.255(3) 0.782(3) 0.3710(17)
H7_2 H 0.208(3) 0.809(3) 0.2821(19)
O14_2 O 0.19482(16) 0.62438(18) 0.16055(13)
H8_2 H 0.1266(16) 0.645(4) 0.164(3)
H9_2 H 0.229(3) 0.676(3) 0.121(2)
O15_2 O 0.49087(15) 0.44349(18) 0.08525(12)
H10_2 H 0.541(2) 0.391(3) 0.061(2)
H11_2 H 0.4278(19) 0.434(4) 0.053(2)
O16_2 O 0.66003(15) 0.55986(16) 0.17818(12)
H12_2 H 0.677(3) 0.565(3) 0.1195(13)
H13_2 H 0.686(3) 0.630(3) 0.204(2)
O28 O 0.54347(14) 0.57045(16) 0.32627(11)
O31 O 0.38388(14) 0.61596(16) 0.37770(11)
O33_2 O 0.02601(16) 0.46485(18) 0.63248(12)
H15_2 H 0.081(2) 0.500(3) 0.664(2)
O34 O 0.07223(16) 0.66514(18) 0.51238(13)
H17 H 0.1455(14) 0.672(4) 0.519(3)
H18 H 0.039(3) 0.706(3) 0.556(2)
Co1_8 Co 1.0000 0.5000 0.5000
O11_2 O 0.97399(16) 0.53515(18) 0.36752(12)
H2_2 H 0.919(2) 0.500(3) 0.336(2)
O12 O 0.92777(16) 0.33486(18) 0.48762(13)
H4 H 0.8545(14) 0.328(4) 0.481(3)
H5 H 0.961(3) 0.294(3) 0.444(2)
C12_2 C 0.6821(2) 0.6119(2) 0.57052(16)
C13_2 C 0.6211(2) 0.6528(2) 0.63891(16)
C14_2 C 0.5175(2) 0.6936(2) 0.62179(16)
C15_2 C 0.4726(2) 0.6890(2) 0.53774(16)
C16_2 C 0.5326(2) 0.6405(2) 0.47067(16)
C17_2 C 0.6368(2) 0.6072(2) 0.48701(17)
H14_2 H 0.680(3) 0.574(4) 0.436(3)
C18_2 C 0.7917(2) 0.5631(2) 0.58438(17)
C19_2 C 0.6654(2) 0.6521(2) 0.73127(16)
C20_2 C 0.4508(2) 0.7338(2) 0.69580(16)
C21_2 C 0.3600(2) 0.7333(2) 0.52250(16)
C22_2 C 0.4833(2) 0.6088(2) 0.38414(16)
O17_2 O 0.85435(15) 0.57881(17) 0.52333(12)
O18_2 O 0.81480(14) 0.50811(16) 0.65432(12)
O19_2 O 0.65151(14) 0.55758(15) 0.77552(11)
O20_2 O 0.71090(15) 0.74048(16) 0.75997(12)
O21_2 O 0.43503(14) 0.66590(16) 0.75760(11)
O25_2 O 0.28722(14) 0.68143(17) 0.56175(11)
O26_2 O 0.34652(15) 0.82275(16) 0.47541(12)
H16_2 H 0.9601(17) 0.483(4) 0.657(3)
O35_2 O 0.78258(15) 0.24838(17) 0.67562(12)
H19_2 H 0.745(3) 0.218(3) 0.6290(17)
H20_2 H 0.792(3) 0.191(3) 0.7179(19)
O36_2 O 0.80518(16) 0.37562(18) 0.83945(13)
H21_2 H 0.8734(16) 0.355(4) 0.836(3)
H22_2 H 0.771(3) 0.324(3) 0.879(2)
O37_2 O 0.50913(15) 0.55651(18) 0.91475(12)
H23_2 H 0.459(2) 0.609(3) 0.939(2)
H24_2 H 0.5722(19) 0.566(4) 0.947(2)
O38_2 O 0.33997(15) 0.44014(16) 0.82182(12)
H25_2 H 0.323(3) 0.435(3) 0.8805(13)
H26_2 H 0.314(3) 0.370(3) 0.796(2)
Co1_9 Co 0.0000 1.0000 0.0000
H2_3 H 0.081(2) 1.000(3) 0.164(2)
O12_2 O 0.07223(16) 0.83486(18) 0.01238(13)
H4_2 H 0.1455(14) 0.828(4) 0.019(3)
H5_2 H 0.039(3) 0.794(3) 0.056(2)
Co1_10 Co 1.0000 -0.0000 1.0000
H15_3 H 0.919(2) 0.000(3) 0.836(2)
O34_2 O 0.92777(16) 0.16514(18) 0.98762(13)
H17_2 H 0.8545(14) 0.172(4) 0.981(3)
H18_2 H 0.961(3) 0.206(3) 0.944(2)
loop_
_geom_bond_atom_site_label_1
_geom_bond_atom_site_label_2
_geom_bond_site_symmetry_1
_geom_bond_site_symmetry_2
O11 Co1 1_555 1_555
H2 O11 1_555 1_555
Co8 O30 1_555 1_555
Co13 O27 1_555 1_555
C16 C17 1_555 1_555
H14 C17 1_555 1_555
C22 C16 1_555 1_555
O27 C22 1_555 1_555
O30 C22 1_555 1_555
Co7 O22 1_555 1_555
Co12 O22 1_555 1_555
C12 C13 1_555 1_555
C13 C14 1_555 1_555
C14 C15 1_555 1_555
C18 C12 1_555 1_555
C19 C13 1_555 1_555
C20 C14 1_555 1_555
C21 C15 1_555 1_555
O17 Co1_2 1_555 1_555
O18 C18 1_555 1_555
O20 C19 1_555 1_555
O22 C20 1_555 1_555
O25 C21 1_555 1_555
H23 O37 1_555 1_555
H24 O37 1_555 1_555
C18 O17 1_555 1_555
C19 O19 1_555 1_555
C20 O21 1_555 1_555
O24 Co4 1_555 1_555
O29 Co9 1_555 1_555
O32 Co4 1_555 1_555
O35 Co4 1_555 1_555
H19 O35 1_555 1_555
H20 O35 1_555 1_555
O36 Co4 1_555 1_555
H21 O36 1_555 1_555
H22 O36 1_555 1_555
O38 Co9 1_555 1_555
H25 O38 1_555 1_555
H26 O38 1_555 1_555
Co9 O24 1_555 1_555
O13 Co8 1_555 1_555
H6 O13 1_555 1_555
H7 O13 1_555 1_555
O14 Co8 1_555 1_555
H8 O14 1_555 1_555
H9 O14 1_555 1_555
O16 Co13 1_555 1_555
H12 O16 1_555 1_555
H13 O16 1_555 1_555
O23 Co8 1_555 1_555
Co13 O23 1_555 1_555
Co1_5 O1 1_555 1_555
C1 C2 1_555 1_555
C2 C3 1_555 1_555
C3 C4 1_555 1_555
C7 C1 1_555 1_555
C8 C2 1_555 1_555
C9 C3 1_555 1_555
C10 C4 1_555 1_555
O1 C7 1_555 1_555
O2 C7 1_555 1_555
O4 C8 1_555 1_555
O6 C9 1_555 1_555
O7 C10 1_555 1_555
H10 O15 1_555 1_555
H11 O15 1_555 1_555
Co5 O6 1_555 1_555
Co10 O6 1_555 1_555
C8 O3 1_555 1_555
C9 O5 1_555 1_555
C5 C6 1_555 1_555
H1 C6 1_555 1_555
C11 C5 1_555 1_555
O29 C11 1_555 1_555
O32 C11 1_555 1_555
O33 Co1_6 1_555 1_555
H15 O33 1_555 1_555
Co1_7 O1_2 1_555 1_555
Co5 O2_2 1_555 1_555
Co10 O3_2 1_555 1_555
C1_2 C2_2 1_555 1_555
C2_2 C3_2 1_555 1_555
C3_2 C4_2 1_555 1_555
C4_2 C5_2 1_555 1_555
C5_2 C6_2 1_555 1_555
C6_2 C1_2 1_555 1_555
H1_2 C6_2 1_555 1_555
C7_2 C1_2 1_555 1_555
C8_2 C2_2 1_555 1_555
C9_2 C3_2 1_555 1_555
C10_2 C4_2 1_555 1_555
C11_2 C5_2 1_555 1_555
O1_2 C7_2 1_555 1_555
O2_2 C7_2 1_555 1_555
O3_2 Co5 1_555 1_555
O4_2 C8_2 1_555 1_555
O5_2 Co10 1_555 1_555
O23 C9_2 1_555 1_555
O7_2 C10_2 1_555 1_555
O8_2 C10_2 1_555 1_555
O9 C11_2 1_555 1_555
O10 C11_2 1_555 1_555
O13_2 Co5 1_555 1_555
H6_2 O13_2 1_555 1_555
H7_2 O13_2 1_555 1_555
O14_2 Co5 1_555 1_555
H8_2 O14_2 1_555 1_555
H9_2 O14_2 1_555 1_555
O15_2 Co10 1_555 1_555
H10_2 O15_2 1_555 1_555
H11_2 O15_2 1_555 1_555
O16_2 Co10 1_555 1_555
H12_2 O16_2 1_555 1_555
H13_2 O16_2 1_555 1_555
Co7 O10 1_555 1_555
Co12 O9 1_555 1_555
O28 Co10 1_555 1_555
O31 Co5 1_555 1_555
O33_2 Co1_7 1_555 1_555
H15_2 O33_2 1_555 1_555
O34 Co1_7 1_555 1_555
H17 O34 1_555 1_555
H18 O34 1_555 1_555
C8_2 O3_2 1_555 1_555
C9_2 O5_2 1_555 1_555
O11_2 Co1_8 1_555 1_555
H2_2 O11_2 1_555 1_555
O12 Co1_8 1_555 1_555
H4 O12 1_555 1_555
H5 O12 1_555 1_555
Co7 O18_2 1_555 1_555
Co12 O19_2 1_555 1_555
C12_2 C13_2 1_555 1_555
C13_2 C14_2 1_555 1_555
C14_2 C15_2 1_555 1_555
C15_2 C16_2 1_555 1_555
C16_2 C17_2 1_555 1_555
C17_2 C12_2 1_555 1_555
H14_2 C17_2 1_555 1_555
C18_2 C12_2 1_555 1_555
C19_2 C13_2 1_555 1_555
C20_2 C14_2 1_555 1_555
C21_2 C15_2 1_555 1_555
C22_2 C16_2 1_555 1_555
O17_2 Co1_8 1_555 1_555
O18_2 C18_2 1_555 1_555
O19_2 Co7 1_555 1_555
O20_2 C19_2 1_555 1_555
O21_2 Co12 1_555 1_555
O24 C20_2 1_555 1_555
O25_2 C21_2 1_555 1_555
O26_2 C21_2 1_555 1_555
O28 C22_2 1_555 1_555
O31 C22_2 1_555 1_555
O35_2 Co7 1_555 1_555
H19_2 O35_2 1_555 1_555
H20_2 O35_2 1_555 1_555
O36_2 Co7 1_555 1_555
H21_2 O36_2 1_555 1_555
H22_2 O36_2 1_555 1_555
O37_2 Co12 1_555 1_555
H23_2 O37_2 1_555 1_555
H24_2 O37_2 1_555 1_555
O38_2 Co12 1_555 1_555
H25_2 O38_2 1_555 1_555
H26_2 O38_2 1_555 1_555
C18_2 O17_2 1_555 1_555
C19_2 O19_2 1_555 1_555
C20_2 O21_2 1_555 1_555
O12_2 Co1_9 1_555 1_555
H4_2 O12_2 1_555 1_555
H5_2 O12_2 1_555 1_555
O34_2 Co1_10 1_555 1_555
H17_2 O34_2 1_555 1_555
H18_2 O34_2 1_555 1_555

#END
