
###############################################################################
#
# This file contains modified crystal structure data generated from the
# MOF subset of the Cambridge Structural Database (CSD) v543 
# hosted by the Cambridge Crystallographic Data Centre (CCDC).
#
# This work is licensed under the Creative Commons
# Attribution-NonCommercial-ShareAlike 4.0 International License.
# To view a copy of this license, visit
# http://creativecommons.org/licenses/by-nc-sa/4.0/
# or send a letter to
# Creative Commons, PO Box 1866, Mountain View, CA 94042, USA.
#
# CIF created using the CSD Python API on 29 September 2022
# The structure has been converted into the P1 space group
# The structure has a 3D framework
# The original CSD entry WIZDEP is in the rhombohedral crystal system
# The framework has been calculated to contain at least 10.0% void space
# The void calculation uses a probe of radius 1.32A, grid spacing 0.4
# H atom positions have been added when not included in the experimental data
# Generated hydrogen atom positions removed from atoms on special positions
#
###############################################################################

data_WIZDEP
_chemical_formula_moiety         '(C72 H72 O68 Zn18)n'
_symmetry_cell_setting           triclinic
_symmetry_space_group_name_H-M   'P 1'
_symmetry_Int_Tables_number      1
_space_group_name_Hall           'P 1'
loop_
_symmetry_equiv_pos_site_id
_symmetry_equiv_pos_as_xyz
1 x,y,z
_cell_length_a                   26.22054(87)
_cell_length_b                   26.22054(87)
_cell_length_c                   6.32019(48)
_cell_angle_alpha                90
_cell_angle_beta                 90
_cell_angle_gamma                120
_cell_volume                     3763.09
loop_
_atom_site_label
_atom_site_type_symbol
_atom_site_fract_x
_atom_site_fract_y
_atom_site_fract_z
C3 C 0.55685(4) 0.54486(5) 0.06906(15)
O3 O 0.61235(5) 0.58802(9) 0.13517(28)
C5 C 0.42538(6) 0.40955(8) 0.28115(25)
C6 C 0.46085(7) 0.45640(9) 0.14311(18)
C8 C 0.51988(7) 0.49984(10) 0.20839(18)
H2 H 0.53268(18) 0.49892(23) 0.35153(51)
Zn2 Zn 0.38659(3) 0.34975(3) 0.67280(13)
Zn4 Zn 0.61341(3) 0.65025(3) 0.32720(13)
Zn5 Zn 0.31692(3) 0.37017(4) 0.00613(13)
O5 O 0.44868(8) 0.40018(9) 0.44096(29)
O6 O 0.36989(6) 0.38521(9) 0.26956(35)
O8 O 0.34865(11) 0.29678(6) 0.93623(35)
O12 O 0.38765(5) 0.41198(9) 0.86483(28)
O13 O 0.35766(10) 0.27902(5) 0.53150(28)
O14 O 0.45754(25) 0.33970(23) 0.78100(78)
C1 C 0.57462(6) 0.59045(8) 0.71885(25)
C2 C 0.53915(7) 0.54360(9) 0.85689(18)
C4 C 0.48012(7) 0.50016(10) 0.79161(18)
H1 H 0.46732(18) 0.50108(23) 0.64847(51)
O1 O 0.55132(8) 0.59982(9) 0.55904(29)
O2 O 0.63011(6) 0.61479(9) 0.73044(35)
O4 O 0.54246(25) 0.66030(23) 0.21900(78)
C7 C 0.44315(4) 0.45514(5) 0.93094(15)
Zn3 Zn 0.68308(3) 0.62983(4) 0.99387(13)
O7 O 0.65135(11) 0.70322(6) 0.06377(35)
O11 O 0.64234(10) 0.72098(5) 0.46850(28)
Zn3_2 Zn 0.01642(3) 0.29649(4) 0.66053(13)
H2_2 H 0.86601(18) 0.16559(23) 0.01820(51)
Zn2_2 Zn 0.71992(3) 0.01642(3) 0.33947(13)
O5_2 O 0.78201(8) 0.06685(9) 0.10763(29)
O12_2 O 0.72098(5) 0.07865(9) 0.53150(28)
O14_2 O 0.79087(25) 0.00637(23) 0.44767(78)
H5 H 0.825013 0.0456356 0.481698
C1_2 C 0.90795(6) 0.25712(8) 0.38552(25)
C2_2 C 0.87248(7) 0.21027(9) 0.52356(18)
C3_2 C 0.89018(4) 0.21153(5) 0.73573(15)
C4_2 C 0.81345(7) 0.16683(10) 0.45828(18)
H1_2 H 0.80065(18) 0.16775(23) 0.31514(51)
O1_2 O 0.88465(8) 0.26649(9) 0.22571(29)
O2_2 O 0.96344(6) 0.28146(9) 0.39711(35)
O3_2 O 0.94568(5) 0.25469(9) 0.80184(28)
C5_2 C 0.75871(6) 0.07622(8) 0.94782(25)
C6_2 C 0.79418(7) 0.12307(9) 0.80978(18)
C7_2 C 0.77648(4) 0.12181(5) 0.59761(15)
C8_2 C 0.85321(7) 0.16651(10) 0.87506(18)
Zn4_2 Zn 0.94674(3) 0.31692(3) 0.99387(13)
Zn5_2 Zn 0.65025(3) 0.03684(4) 0.67280(13)
O6_2 O 0.70322(6) 0.05188(9) 0.93623(35)
O11_2 O 0.97567(10) 0.38765(5) 0.13517(28)
O4_2 O 0.87579(25) 0.32697(23) 0.88567(78)
O7_2 O 0.98468(11) 0.36989(6) 0.73044(35)
O8_2 O 0.68199(11) 0.96344(6) 0.60289(35)
O13_2 O 0.69100(10) 0.94568(5) 0.19816(28)
H6 H 0.778644 0.981346 0.576517
O7_3 O 0.31801(11) 0.03656(6) 0.39711(35)
O11_3 O 0.30900(10) 0.05432(5) 0.80184(28)
H3 H 0.197781 0.0125919 0.664499
H4 H 0.221356 0.0186543 0.423483
Zn2_3 Zn 0.05326(3) 0.68308(3) 0.00613(13)
O8_3 O 0.01532(11) 0.63011(6) 0.26956(35)
O12_3 O 0.05432(5) 0.74531(9) 0.19816(28)
O14_3 O 0.12421(25) 0.67303(23) 0.11433(78)
C1_3 C 0.24129(6) 0.92378(8) 0.05218(25)
C2_3 C 0.20582(7) 0.87693(9) 0.19022(18)
C3_3 C 0.22352(4) 0.87819(5) 0.40239(15)
C4_3 C 0.14679(7) 0.83349(10) 0.12494(18)
O2_3 O 0.29678(6) 0.94812(9) 0.06377(35)
O3_3 O 0.27902(5) 0.92135(9) 0.46850(28)
C5_3 C 0.09205(6) 0.74288(8) 0.61448(25)
C6_3 C 0.12752(7) 0.78973(9) 0.47644(18)
C7_3 C 0.10982(4) 0.78847(5) 0.26427(15)
C8_3 C 0.18655(7) 0.83317(10) 0.54172(18)
H2_3 H 0.19935(18) 0.83225(23) 0.68486(51)
Zn3_3 Zn 0.34975(3) 0.96316(4) 0.32720(13)
Zn4_3 Zn 0.28008(3) 0.98358(3) 0.66053(13)
O5_3 O 0.11535(8) 0.73351(9) 0.77429(29)
O6_3 O 0.03656(6) 0.71854(9) 0.60289(35)
O13_3 O 0.02433(10) 0.61235(5) 0.86483(28)
H1_3 H 0.13399(18) 0.83441(23) 0.98180(51)
O1_3 O 0.21799(8) 0.93315(9) 0.89237(29)
O4_3 O 0.20913(25) 0.99363(23) 0.55233(78)
Zn5_3 Zn 0.98358(3) 0.70351(4) 0.33947(13)
C3_4 C 0.45514(5) 0.01199(6) 0.06906(15)
O3_4 O 0.41198(9) 0.02433(10) 0.13517(28)
C5_4 C 0.59045(8) 0.01583(10) 0.28115(25)
C6_4 C 0.54360(9) 0.00445(11) 0.14311(18)
C8_4 C 0.50016(10) 0.02004(12) 0.20839(18)
H2_4 H 0.50108(23) 0.03376(29) 0.35153(51)
O5_4 O 0.59982(9) 0.04850(12) 0.44096(29)
O14_4 O 0.66030(23) 0.11784(34) 0.78100(78)
O2_4 O 0.38521(9) 0.01532(11) 0.73044(35)
Zn3_4 Zn 0.37017(4) 0.05326(5) 0.99387(13)
Zn5_4 Zn 0.62983(4) 0.94674(5) 0.00613(13)
O6_4 O 0.61479(9) 0.98468(11) 0.26956(35)
O12_4 O 0.58802(9) 0.97567(10) 0.86483(28)
C1_4 C 0.40955(8) 0.98417(10) 0.71885(25)
C2_4 C 0.45640(9) 0.99555(11) 0.85689(18)
C4_4 C 0.49984(10) 0.97996(12) 0.79161(18)
H1_4 H 0.49892(23) 0.96624(29) 0.64847(51)
O1_4 O 0.40018(9) 0.95150(12) 0.55904(29)
O4_4 O 0.33970(23) 0.88216(34) 0.21900(78)
C7_4 C 0.54486(5) 0.98801(6) 0.93094(15)
Zn4_4 Zn 0.03684(4) 0.38659(3) 0.32720(13)
C1_5 C 0.01583(10) 0.42538(6) 0.71885(25)
C2_5 C 0.00445(11) 0.46085(7) 0.85689(18)
C4_5 C 0.02004(12) 0.51988(7) 0.79161(18)
H1_5 H 0.03376(29) 0.53268(18) 0.64847(51)
O1_5 O 0.04850(12) 0.44868(8) 0.55904(29)
O4_5 O 0.11784(34) 0.45754(25) 0.21900(78)
C7_5 C 0.01199(6) 0.55685(4) 0.93094(15)
O7_4 O 0.05188(13) 0.34865(11) 0.06377(35)
O11_4 O 0.07865(11) 0.35766(10) 0.46850(28)
C3_5 C 0.98801(6) 0.44315(4) 0.06906(15)
C5_5 C 0.98417(10) 0.57462(6) 0.28115(25)
C6_5 C 0.99555(11) 0.53915(7) 0.14311(18)
C8_5 C 0.97996(12) 0.48012(7) 0.20839(18)
H2_5 H 0.96624(29) 0.46732(18) 0.35153(51)
Zn2_4 Zn 0.96316(4) 0.61341(3) 0.67280(13)
O5_5 O 0.95150(12) 0.55132(8) 0.44096(29)
O8_4 O 0.94812(13) 0.65135(11) 0.93623(35)
O13_4 O 0.92135(11) 0.64234(10) 0.53150(28)
O14_5 O 0.88216(34) 0.54246(25) 0.78100(78)
O12_5 O 0.25469(9) 0.30900(10) 0.19816(28)
O14_6 O 0.32697(23) 0.45117(34) 0.11433(78)
C1_6 C 0.07622(8) 0.31750(10) 0.05218(25)
C2_6 C 0.12307(9) 0.32888(11) 0.19022(18)
C3_6 C 0.12181(5) 0.34532(6) 0.40239(15)
C4_6 C 0.16651(10) 0.31329(12) 0.12494(18)
C5_6 C 0.25712(8) 0.34916(10) 0.61448(25)
C6_6 C 0.21027(9) 0.33778(11) 0.47644(18)
C7_6 C 0.21153(5) 0.32134(6) 0.26427(15)
C8_6 C 0.16683(10) 0.35337(12) 0.54172(18)
H2_6 H 0.16775(23) 0.36709(29) 0.68486(51)
Zn5_5 Zn 0.29649(4) 0.28008(5) 0.33947(13)
O5_6 O 0.26649(9) 0.38183(12) 0.77429(29)
O6_5 O 0.28146(9) 0.31801(11) 0.60289(35)
H1_6 H 0.16559(23) 0.29957(29) 0.98180(51)
O1_6 O 0.06685(9) 0.28483(12) 0.89237(29)
O4_6 O 0.00637(23) 0.21549(34) 0.55233(78)
H3_2 H 0.987408 0.185189 0.664499
H4_2 H 0.981346 0.202702 0.423483
O14_7 O 0.54883(34) 0.87579(25) 0.11433(78)
C1_7 C 0.68250(10) 0.75871(6) 0.05218(25)
C2_7 C 0.67112(11) 0.79418(7) 0.19022(18)
C3_7 C 0.65468(6) 0.77648(4) 0.40239(15)
C4_7 C 0.68671(12) 0.85321(7) 0.12494(18)
C5_7 C 0.65084(10) 0.90795(6) 0.61448(25)
C6_7 C 0.66222(11) 0.87248(7) 0.47644(18)
C7_7 C 0.67866(6) 0.89018(4) 0.26427(15)
C8_7 C 0.64663(12) 0.81345(7) 0.54172(18)
H2_7 H 0.63291(29) 0.80065(18) 0.68486(51)
Zn4_5 Zn 0.70351(4) 0.71992(3) 0.66053(13)
O5_7 O 0.61817(12) 0.88465(8) 0.77429(29)
H1_7 H 0.70043(29) 0.86601(18) 0.98180(51)
O1_7 O 0.71517(12) 0.78201(8) 0.89237(29)
O4_7 O 0.78451(34) 0.79087(25) 0.55233(78)
O7_5 O 0.71854(13) 0.68199(11) 0.39711(35)
O11_5 O 0.74531(11) 0.69100(10) 0.80184(28)
H6_2 H 0.0186543 0.797298 0.576517
H2_8 H 0.83441(23) 0.70043(29) 0.01820(51)
O5_8 O 0.93315(9) 0.71517(12) 0.10763(29)
O14_8 O 0.99363(23) 0.78451(34) 0.44767(78)
H5_2 H 0.954364 0.779377 0.481698
C1_8 C 0.74288(8) 0.65084(10) 0.38552(25)
C2_8 C 0.78973(9) 0.66222(11) 0.52356(18)
C3_8 C 0.78847(5) 0.67866(6) 0.73573(15)
C4_8 C 0.83317(10) 0.64663(12) 0.45828(18)
H1_8 H 0.83225(23) 0.63291(29) 0.31514(51)
O1_8 O 0.73351(9) 0.61817(12) 0.22571(29)
C5_8 C 0.92378(8) 0.68250(10) 0.94782(25)
C6_8 C 0.87693(9) 0.67112(11) 0.80978(18)
C7_8 C 0.87819(5) 0.65468(6) 0.59761(15)
C8_8 C 0.83349(10) 0.68671(12) 0.87506(18)
O4_8 O 0.67303(23) 0.54883(34) 0.88567(78)
H2_9 H 0.29957(29) 0.13399(18) 0.01820(51)
O5_9 O 0.28483(12) 0.21799(8) 0.10763(29)
O14_9 O 0.21549(34) 0.20913(25) 0.44767(78)
C1_9 C 0.34916(10) 0.09205(6) 0.38552(25)
C2_9 C 0.33778(11) 0.12752(7) 0.52356(18)
C3_9 C 0.32134(6) 0.10982(4) 0.73573(15)
C4_9 C 0.35337(12) 0.18655(7) 0.45828(18)
H1_9 H 0.36709(29) 0.19935(18) 0.31514(51)
O1_9 O 0.38183(12) 0.11535(8) 0.22571(29)
C5_9 C 0.31750(10) 0.24129(6) 0.94782(25)
C6_9 C 0.32888(11) 0.20582(7) 0.80978(18)
C7_9 C 0.34532(6) 0.22352(4) 0.59761(15)
C8_9 C 0.31329(12) 0.14679(7) 0.87506(18)
O4_9 O 0.45117(34) 0.12421(25) 0.88567(78)
H5_3 H 0.174987 0.954364 0.518302
H3_3 H 0.802219 0.987408 0.335501
H3_4 H 0.0125919 0.814811 0.335501
H5_4 H 0.0456356 0.220623 0.518302
loop_
_geom_bond_atom_site_label_1
_geom_bond_atom_site_label_2
_geom_bond_site_symmetry_1
_geom_bond_site_symmetry_2
C3 O3 1_555 1_555
C5 C6 1_555 1_555
C8 C3 1_555 1_555
H2 C8 1_555 1_555
Zn2 O5 1_555 1_555
Zn4 O3 1_555 1_555
Zn5 O6 1_555 1_555
O5 C5 1_555 1_555
O6 C5 1_555 1_555
O8 Zn2 1_555 1_555
O12 Zn2 1_555 1_555
O13 Zn2 1_555 1_555
O14 Zn2 1_555 1_555
C6 C8 1_555 1_555
C1 C2 1_555 1_555
C4 C2 1_555 1_555
H1 C4 1_555 1_555
Zn4 O1 1_555 1_555
O1 C1 1_555 1_555
O2 C1 1_555 1_555
O4 Zn4 1_555 1_555
C7 C4 1_555 1_555
Zn3 O2 1_555 1_555
O7 Zn4 1_555 1_555
O12 C7 1_555 1_555
O11 Zn4 1_555 1_555
Zn2_2 O5_2 1_555 1_555
O12_2 Zn2_2 1_555 1_555
O14_2 Zn2_2 1_555 1_555
O14_2 H5 1_555 1_555
C1_2 C2_2 1_555 1_555
C2_2 C3_2 1_555 1_555
C3_2 O3_2 1_555 1_555
C4_2 C2_2 1_555 1_555
H1_2 C4_2 1_555 1_555
O1_2 C1_2 1_555 1_555
O2_2 C1_2 1_555 1_555
C5_2 C6_2 1_555 1_555
C6_2 C7_2 1_555 1_555
C7_2 C4_2 1_555 1_555
C8_2 C3_2 1_555 1_555
Zn4_2 O3_2 1_555 1_555
Zn5_2 O6_2 1_555 1_555
O6_2 C5_2 1_555 1_555
O12_2 C7_2 1_555 1_555
C6_2 C8_2 1_555 1_555
Zn5_2 O12_2 1_555 1_555
O4_2 Zn4_2 1_555 1_555
O7_2 Zn4_2 1_555 1_555
O8_3 Zn2_3 1_555 1_555
O12_3 Zn2_3 1_555 1_555
O14_3 Zn2_3 1_555 1_555
C1_3 C2_3 1_555 1_555
C2_3 C3_3 1_555 1_555
C3_3 O3_3 1_555 1_555
C4_3 C2_3 1_555 1_555
O2_3 C1_3 1_555 1_555
O3_3 Zn3_3 1_555 1_555
C5_3 C6_3 1_555 1_555
C6_3 C7_3 1_555 1_555
C7_3 C4_3 1_555 1_555
C8_3 C3_3 1_555 1_555
H2_3 C8_3 1_555 1_555
Zn3_3 O2_3 1_555 1_555
Zn4_3 O3_3 1_555 1_555
O5_3 C5_3 1_555 1_555
O6_3 C5_3 1_555 1_555
O12_3 C7_3 1_555 1_555
C6_3 C8_3 1_555 1_555
Zn4_3 O1_3 1_555 1_555
O4_3 Zn4_3 1_555 1_555
C3_4 O3_4 1_555 1_555
C5_4 C6_4 1_555 1_555
C8_4 C3_4 1_555 1_555
H2_4 C8_4 1_555 1_555
Zn5_2 O5_4 1_555 1_555
O5_4 C5_4 1_555 1_555
O14_4 Zn5_2 1_555 1_555
C6_4 C8_4 1_555 1_555
Zn3_4 O2_4 1_555 1_555
Zn5_4 O6_4 1_555 1_555
C1_4 C2_4 1_555 1_555
C4_4 C2_4 1_555 1_555
H1_4 C4_4 1_555 1_555
Zn3_3 O1_4 1_555 1_555
O1_4 C1_4 1_555 1_555
O4_4 Zn3_3 1_555 1_555
C7_4 C4_4 1_555 1_555
O12_4 C7_4 1_555 1_555
C1_5 C2_5 1_555 1_555
C4_5 C2_5 1_555 1_555
H1_5 C4_5 1_555 1_555
Zn4_4 O1_5 1_555 1_555
O1_5 C1_5 1_555 1_555
O4_5 Zn4_4 1_555 1_555
C7_5 C4_5 1_555 1_555
O7_4 Zn4_4 1_555 1_555
O13_3 C7_5 1_555 1_555
O11_4 Zn4_4 1_555 1_555
C3_5 O11_2 1_555 1_555
C5_5 C6_5 1_555 1_555
C8_5 C3_5 1_555 1_555
H2_5 C8_5 1_555 1_555
Zn2_4 O5_5 1_555 1_555
O5_5 C5_5 1_555 1_555
O8_4 Zn2_4 1_555 1_555
O13_4 Zn2_4 1_555 1_555
O14_5 Zn2_4 1_555 1_555
C6_5 C8_5 1_555 1_555
O12_5 Zn5 1_555 1_555
O14_6 Zn5 1_555 1_555
C1_6 C2_6 1_555 1_555
C2_6 C3_6 1_555 1_555
C3_6 O11_4 1_555 1_555
C4_6 C2_6 1_555 1_555
O7_4 C1_6 1_555 1_555
C5_6 C6_6 1_555 1_555
C6_6 C7_6 1_555 1_555
C7_6 C4_6 1_555 1_555
C8_6 C3_6 1_555 1_555
H2_6 C8_6 1_555 1_555
Zn3_2 O11_4 1_555 1_555
Zn5_5 O6_5 1_555 1_555
O5_6 C5_6 1_555 1_555
O6_5 C5_6 1_555 1_555
O12_5 C7_6 1_555 1_555
C6_6 C8_6 1_555 1_555
Zn5_5 O12_5 1_555 1_555
Zn3_2 O1_6 1_555 1_555
O4_6 Zn3_2 1_555 1_555
O13_2 Zn5_4 1_555 1_555
O14_7 Zn5_4 1_555 1_555
C1_7 C2_7 1_555 1_555
C2_7 C3_7 1_555 1_555
C3_7 O11 1_555 1_555
C4_7 C2_7 1_555 1_555
O7 C1_7 1_555 1_555
C5_7 C6_7 1_555 1_555
C6_7 C7_7 1_555 1_555
C7_7 C4_7 1_555 1_555
C8_7 C3_7 1_555 1_555
H2_7 C8_7 1_555 1_555
Zn4_5 O11 1_555 1_555
O5_7 C5_7 1_555 1_555
O8_2 C5_7 1_555 1_555
O13_2 C7_7 1_555 1_555
C6_7 C8_7 1_555 1_555
Zn4_5 O1_7 1_555 1_555
O4_7 Zn4_5 1_555 1_555
O7_5 Zn4_5 1_555 1_555
O11_5 Zn4_5 1_555 1_555
Zn5_3 O5_8 1_555 1_555
O13_4 Zn5_3 1_555 1_555
O14_8 Zn5_3 1_555 1_555
O14_8 H5_2 1_555 1_555
C1_8 C2_8 1_555 1_555
C2_8 C3_8 1_555 1_555
C3_8 O11_5 1_555 1_555
C4_8 C2_8 1_555 1_555
H1_8 C4_8 1_555 1_555
O1_8 C1_8 1_555 1_555
O7_5 C1_8 1_555 1_555
C5_8 C6_8 1_555 1_555
C6_8 C7_8 1_555 1_555
C7_8 C4_8 1_555 1_555
C8_8 C3_8 1_555 1_555
Zn3 O11_5 1_555 1_555
O8_4 C5_8 1_555 1_555
O13_4 C7_8 1_555 1_555
C6_8 C8_8 1_555 1_555
O4_8 Zn3 1_555 1_555
Zn5_5 O5_9 1_555 1_555
O13 Zn5_5 1_555 1_555
O14_9 Zn5_5 1_555 1_555
C1_9 C2_9 1_555 1_555
C2_9 C3_9 1_555 1_555
C3_9 O11_3 1_555 1_555
C4_9 C2_9 1_555 1_555
H1_9 C4_9 1_555 1_555
O1_9 C1_9 1_555 1_555
O7_3 C1_9 1_555 1_555
C5_9 C6_9 1_555 1_555
C6_9 C7_9 1_555 1_555
C7_9 C4_9 1_555 1_555
C8_9 C3_9 1_555 1_555
Zn3_4 O11_3 1_555 1_555
O8 C5_9 1_555 1_555
O13 C7_9 1_555 1_555
C6_9 C8_9 1_555 1_555
O4_9 Zn3_4 1_555 1_555
O4_3 H5_3 1_555 1_555
O4_6 H5_4 1_555 1_555

#END
