
###############################################################################
#
# This file contains modified crystal structure data generated from the
# MOF subset of the Cambridge Structural Database (CSD) v543 
# hosted by the Cambridge Crystallographic Data Centre (CCDC).
#
# This work is licensed under the Creative Commons
# Attribution-NonCommercial-ShareAlike 4.0 International License.
# To view a copy of this license, visit
# http://creativecommons.org/licenses/by-nc-sa/4.0/
# or send a letter to
# Creative Commons, PO Box 1866, Mountain View, CA 94042, USA.
#
# CIF created using the CSD Python API on 29 September 2022
# The structure has been converted into the P1 space group
# The structure has a 3D framework
# The original CSD entry WIZKOH is in the monoclinic crystal system
# The framework has been calculated to contain at least 10.0% void space
# The void calculation uses a probe of radius 1.32A, grid spacing 0.4
#
###############################################################################

data_WIZKOH
_chemical_formula_moiety         '(C72 H44 Cu2 N12 O28)n'
_symmetry_cell_setting           triclinic
_symmetry_space_group_name_H-M   'P 1'
_symmetry_Int_Tables_number      1
_space_group_name_Hall           'P 1'
loop_
_symmetry_equiv_pos_site_id
_symmetry_equiv_pos_as_xyz
1 x,y,z
_cell_length_a                   15.6530(5)
_cell_length_b                   13.5330(5)
_cell_length_c                   13.6150(5)
_cell_angle_alpha                90
_cell_angle_beta                 103.918(2)
_cell_angle_gamma                90
_cell_volume                     2799.42
loop_
_atom_site_label
_atom_site_type_symbol
_atom_site_fract_x
_atom_site_fract_y
_atom_site_fract_z
Cu1 Cu 0.57263(5) 0.05758(5) 0.52446(6)
O1 O 0.5111(3) 0.1452(4) 0.4164(4)
O2 O 0.3909(3) 0.0488(4) 0.3767(4)
O3 O 0.3981(3) 0.4697(4) 0.0779(4)
O4 O 0.5173(3) 0.3726(4) 0.1185(4)
N2 N 0.1611(4) 0.2928(5) 0.1878(5)
C1 C 0.3879(4) 0.1999(5) 0.2932(5)
C2 C 0.4359(4) 0.2632(5) 0.2459(5)
H1 H 0.4983 0.2581 0.2603
C3 C 0.3926(4) 0.3330(5) 0.1784(5)
C4 C 0.3018(5) 0.3411(5) 0.1592(6)
H2 H 0.2716 0.3888 0.1122
C5 C 0.2556(4) 0.2801(5) 0.2083(6)
C6 C 0.2963(5) 0.2075(6) 0.2746(6)
H3 H 0.2633 0.1645 0.3065
C7 C 0.1294(6) 0.3852(7) 0.1840(8)
H4 H 0.1687 0.4397 0.1967
C8 C 0.0417(5) 0.4005(7) 0.1620(8)
H5 H 0.0206 0.4664 0.1609
C10 C 0.0176(5) 0.2299(6) 0.1469(7)
C11 C 0.1060(5) 0.2153(6) 0.1680(7)
H7 H 0.1289 0.1502 0.1687
C17 C 0.4339(4) 0.1262(5) 0.3687(5)
C18 C 0.4401(4) 0.3970(5) 0.1207(5)
Cu5 Cu 0.57263(5) 0.44242(5) 0.02446(6)
O7 O 0.5173(3) 0.1274(4) 0.6185(4)
N3 N 0.7054(3) 0.1144(4) 0.5630(4)
Cu2 Cu 0.42737(5) 0.55758(5) 0.97554(6)
Cu3 Cu 0.42737(5) 0.94242(5) 0.47554(6)
O5 O 0.6091(3) 0.9512(4) 0.6233(4)
O6 O 0.6019(3) 0.9697(4) 0.4221(4)
N1 N 0.7054(3) 0.3856(4) 0.0630(4)
C9 C 0.9823(5) 0.3251(6) 0.1413(6)
H6 H 0.9792 0.1745 0.1358
C12 C 0.8862(5) 0.3436(6) 0.1139(6)
C13 C 0.8558(6) 0.4397(6) 0.0906(7)
H8 H 0.8960 0.4924 0.0910
C14 C 0.7673(5) 0.4565(6) 0.0672(7)
H9 H 0.7477 0.5225 0.0529
C15 C 0.7364(5) 0.2949(6) 0.0828(6)
H10 H 0.6952 0.2428 0.0794
C16 C 0.8249(5) 0.2711(6) 0.1081(7)
H11 H 0.8428 0.2043 0.1215
N1_2 N 0.2946(3) 0.8856(4) 0.4370(4)
C9_2 C 0.0177(5) 0.8251(6) 0.3587(6)
H6_2 H 0.0208 0.6745 0.3642
C12_2 C 0.1138(5) 0.8436(6) 0.3861(6)
C13_2 C 0.1442(6) 0.9397(6) 0.4094(7)
H8_2 H 0.1040 0.9924 0.4090
C14_2 C 0.2327(5) 0.9565(6) 0.4328(7)
C15_2 C 0.2636(5) 0.7949(6) 0.4172(6)
H10_2 H 0.3048 0.7428 0.4206
C16_2 C 0.1751(5) 0.7711(6) 0.3919(7)
H11_2 H 0.1572 0.7043 0.3785
O1_2 O 0.4889(3) 0.6452(4) 0.0836(4)
O2_2 O 0.6091(3) 0.5488(4) 0.1233(4)
O4_2 O 0.4827(3) 0.8726(4) 0.3815(4)
N2_2 N 0.8389(4) 0.7928(5) 0.3122(5)
C1_2 C 0.6121(4) 0.6999(5) 0.2068(5)
C2_2 C 0.5641(4) 0.7632(5) 0.2541(5)
H1_2 H 0.5017 0.7581 0.2397
C3_2 C 0.6074(4) 0.8330(5) 0.3216(5)
C4_2 C 0.6982(5) 0.8411(5) 0.3408(6)
H2_2 H 0.7284 0.8888 0.3878
C5_2 C 0.7444(4) 0.7801(5) 0.2917(6)
C6_2 C 0.7037(5) 0.7075(6) 0.2254(6)
H3_2 H 0.7367 0.6645 0.1935
C7_2 C 0.8706(6) 0.8852(7) 0.3160(8)
H4_2 H 0.8313 0.9397 0.3033
C8_2 C 0.9583(5) 0.9005(7) 0.3380(8)
H5_2 H 0.9794 0.9664 0.3391
C10_2 C 0.9824(5) 0.7299(6) 0.3531(7)
C11_2 C 0.8940(5) 0.7153(6) 0.3320(7)
H7_2 H 0.8711 0.6502 0.3313
C17_2 C 0.5661(4) 0.6262(5) 0.1313(5)
C18_2 C 0.5599(4) 0.8970(5) 0.3793(5)
O5_2 O 0.3909(3) 0.4512(4) 0.8767(4)
O7_2 O 0.4827(3) 0.6274(4) 0.8815(4)
N3_2 N 0.2946(3) 0.6144(4) 0.9370(4)
C9_3 C 0.0177(5) 0.6749(6) 0.8587(6)
H6_3 H 0.0208 0.8255 0.8642
C12_3 C 0.1138(5) 0.6564(6) 0.8861(6)
C13_3 C 0.1442(6) 0.5603(6) 0.9094(7)
H8_3 H 0.1040 0.5076 0.9090
C14_3 C 0.2327(5) 0.5435(6) 0.9328(7)
H9_2 H 0.2523 0.4775 0.9471
C15_3 C 0.2636(5) 0.7051(6) 0.9172(6)
H10_3 H 0.3048 0.7572 0.9206
C16_3 C 0.1751(5) 0.7289(6) 0.8919(7)
H11_3 H 0.1572 0.7957 0.8785
O6_2 O 0.3981(3) 0.0303(4) 0.5779(4)
O1_3 O 0.4889(3) 0.8548(4) 0.5836(4)
O3_2 O 0.6019(3) 0.5303(4) 0.9221(4)
N2_3 N 0.8389(4) 0.7072(5) 0.8122(5)
C1_3 C 0.6121(4) 0.8001(5) 0.7068(5)
C2_3 C 0.5641(4) 0.7368(5) 0.7541(5)
H1_3 H 0.5017 0.7419 0.7397
C3_3 C 0.6074(4) 0.6670(5) 0.8216(5)
C4_3 C 0.6982(5) 0.6589(5) 0.8408(6)
H2_3 H 0.7284 0.6112 0.8878
C5_3 C 0.7444(4) 0.7199(5) 0.7917(6)
C6_3 C 0.7037(5) 0.7925(6) 0.7254(6)
H3_3 H 0.7367 0.8355 0.6935
C7_3 C 0.8706(6) 0.6148(7) 0.8160(8)
H4_3 H 0.8313 0.5603 0.8033
C8_3 C 0.9583(5) 0.5995(7) 0.8380(8)
H5_3 H 0.9794 0.5336 0.8391
C10_3 C 0.9824(5) 0.7701(6) 0.8531(7)
C11_3 C 0.8940(5) 0.7847(6) 0.8320(7)
H7_3 H 0.8711 0.8498 0.8313
C17_3 C 0.5661(4) 0.8738(5) 0.6313(5)
C18_3 C 0.5599(4) 0.6030(5) 0.8793(5)
O1_4 O 0.5111(3) 0.3548(4) 0.9164(4)
N2_4 N 0.1611(4) 0.2072(5) 0.6878(5)
C1_4 C 0.3879(4) 0.3001(5) 0.7932(5)
C2_4 C 0.4359(4) 0.2368(5) 0.7459(5)
H1_4 H 0.4983 0.2419 0.7603
C3_4 C 0.3926(4) 0.1670(5) 0.6784(5)
C4_4 C 0.3018(5) 0.1589(5) 0.6592(6)
H2_4 H 0.2716 0.1112 0.6122
C5_4 C 0.2556(4) 0.2199(5) 0.7083(6)
C6_4 C 0.2963(5) 0.2925(6) 0.7746(6)
H3_4 H 0.2633 0.3355 0.8065
C7_4 C 0.1294(6) 0.1148(7) 0.6840(8)
H4_4 H 0.1687 0.0603 0.6967
C8_4 C 0.0417(5) 0.0995(7) 0.6620(8)
H5_4 H 0.0206 0.0336 0.6609
C10_4 C 0.0176(5) 0.2701(6) 0.6469(7)
C11_4 C 0.1060(5) 0.2847(6) 0.6680(7)
H7_4 H 0.1289 0.3498 0.6687
C17_4 C 0.4339(4) 0.3738(5) 0.8687(5)
C18_4 C 0.4401(4) 0.1030(5) 0.6207(5)
C9_4 C 0.9823(5) 0.1749(6) 0.6413(6)
H6_4 H 0.9792 0.3255 0.6358
C12_4 C 0.8862(5) 0.1564(6) 0.6139(6)
C13_4 C 0.8558(6) 0.0603(6) 0.5906(7)
H8_4 H 0.8960 0.0076 0.5910
C14_4 C 0.7673(5) 0.0435(6) 0.5672(7)
C15_4 C 0.7364(5) 0.2051(6) 0.5828(6)
H10_4 H 0.6952 0.2572 0.5794
C16_4 C 0.8249(5) 0.2289(6) 0.6081(7)
H11_4 H 0.8428 0.2957 0.6215
H9_3 H 0.2523 0.0225 0.4471
H9_4 H 0.7477 0.9775 0.5529
O9 O 0.1546(12) 0.0592(12) 0.0340(11)
O10 O 0.1888(10) 0.1160(8) 0.9057(10)
N4 N 0.1613(10) 0.0473(9) 0.9495(10)
O8 O 0.1417(11) 0.9678(8) 0.9066(11)
O8_2 O 0.8583(11) 0.4678(8) 0.5934(11)
O9_2 O 0.8454(12) 0.5592(12) 0.4660(11)
O10_2 O 0.8112(10) 0.6160(8) 0.5943(10)
N4_2 N 0.8387(10) 0.5473(9) 0.5505(10)
O8_3 O 0.8583(11) 0.0322(8) 0.0934(11)
O10_3 O 0.8112(10) 0.8840(8) 0.0943(10)
N4_3 N 0.8387(10) 0.9527(9) 0.0505(10)
O9_3 O 0.8454(12) 0.9408(12) 0.9660(11)
O8_4 O 0.1417(11) 0.5322(8) 0.4066(11)
O9_4 O 0.1546(12) 0.4408(12) 0.5340(11)
O10_4 O 0.1888(10) 0.3840(8) 0.4057(10)
N4_4 N 0.1613(10) 0.4527(9) 0.4495(10)
loop_
_geom_bond_atom_site_label_1
_geom_bond_atom_site_label_2
_geom_bond_site_symmetry_1
_geom_bond_site_symmetry_2
Cu1 O1 1_555 1_555
O1 C17 1_555 1_555
O2 C17 1_555 1_555
O3 C18 1_555 1_555
O4 C18 1_555 1_555
N2 C5 1_555 1_555
C1 C2 1_555 1_555
C2 H1 1_555 1_555
C3 C2 1_555 1_555
C4 C3 1_555 1_555
H2 C4 1_555 1_555
C5 C4 1_555 1_555
C6 C1 1_555 1_555
H3 C6 1_555 1_555
C7 N2 1_555 1_555
H4 C7 1_555 1_555
C8 C7 1_555 1_555
H5 C8 1_555 1_555
C11 N2 1_555 1_555
H7 C11 1_555 1_555
C17 C1 1_555 1_555
C18 C3 1_555 1_555
Cu5 O4 1_555 1_555
O7 Cu1 1_555 1_555
N3 Cu1 1_555 1_555
C5 C6 1_555 1_555
C10 C11 1_555 1_555
N1 C14 1_555 1_555
C12 C9 1_555 1_555
C13 C12 1_555 1_555
H8 C13 1_555 1_555
C14 C13 1_555 1_555
H9 C14 1_555 1_555
C15 N1 1_555 1_555
H10 C15 1_555 1_555
C16 C12 1_555 1_555
H11 C16 1_555 1_555
Cu5 N1 1_555 1_555
C15 C16 1_555 1_555
N1_2 C14_2 1_555 1_555
C12_2 C9_2 1_555 1_555
C13_2 C12_2 1_555 1_555
H8_2 C13_2 1_555 1_555
C14_2 C13_2 1_555 1_555
C15_2 N1_2 1_555 1_555
H10_2 C15_2 1_555 1_555
C16_2 C12_2 1_555 1_555
H11_2 C16_2 1_555 1_555
Cu3 N1_2 1_555 1_555
C15_2 C16_2 1_555 1_555
O1_2 C17_2 1_555 1_555
O2_2 C17_2 1_555 1_555
O6 C18_2 1_555 1_555
O4_2 C18_2 1_555 1_555
N2_2 C5_2 1_555 1_555
C1_2 C2_2 1_555 1_555
C2_2 H1_2 1_555 1_555
C3_2 C2_2 1_555 1_555
C4_2 C3_2 1_555 1_555
H2_2 C4_2 1_555 1_555
C5_2 C4_2 1_555 1_555
C6_2 C1_2 1_555 1_555
H3_2 C6_2 1_555 1_555
C7_2 N2_2 1_555 1_555
H4_2 C7_2 1_555 1_555
C8_2 C7_2 1_555 1_555
H5_2 C8_2 1_555 1_555
C11_2 N2_2 1_555 1_555
H7_2 C11_2 1_555 1_555
C17_2 C1_2 1_555 1_555
C18_2 C3_2 1_555 1_555
Cu3 O4_2 1_555 1_555
O2_2 Cu5 1_555 1_555
C5_2 C6_2 1_555 1_555
C10_2 C11_2 1_555 1_555
O5_2 Cu2 1_555 1_555
O7_2 Cu2 1_555 1_555
N3_2 Cu2 1_555 1_555
N3_2 C14_3 1_555 1_555
C12_3 C9_3 1_555 1_555
C13_3 C12_3 1_555 1_555
H8_3 C13_3 1_555 1_555
C14_3 C13_3 1_555 1_555
H9_2 C14_3 1_555 1_555
C15_3 N3_2 1_555 1_555
H10_3 C15_3 1_555 1_555
C16_3 C12_3 1_555 1_555
H11_3 C16_3 1_555 1_555
C15_3 C16_3 1_555 1_555
Cu3 O1_3 1_555 1_555
O1_3 C17_3 1_555 1_555
O5 C17_3 1_555 1_555
O3_2 C18_3 1_555 1_555
O7_2 C18_3 1_555 1_555
N2_3 C5_3 1_555 1_555
C1_3 C2_3 1_555 1_555
C2_3 H1_3 1_555 1_555
C3_3 C2_3 1_555 1_555
C4_3 C3_3 1_555 1_555
H2_3 C4_3 1_555 1_555
C5_3 C4_3 1_555 1_555
C6_3 C1_3 1_555 1_555
H3_3 C6_3 1_555 1_555
C7_3 N2_3 1_555 1_555
H4_3 C7_3 1_555 1_555
C8_3 C7_3 1_555 1_555
H5_3 C8_3 1_555 1_555
C11_3 N2_3 1_555 1_555
H7_3 C11_3 1_555 1_555
C17_3 C1_3 1_555 1_555
C18_3 C3_3 1_555 1_555
C5_3 C6_3 1_555 1_555
C10_3 C11_3 1_555 1_555
O1_4 C17_4 1_555 1_555
O5_2 C17_4 1_555 1_555
O6_2 C18_4 1_555 1_555
O7 C18_4 1_555 1_555
N2_4 C5_4 1_555 1_555
C1_4 C2_4 1_555 1_555
C2_4 H1_4 1_555 1_555
C3_4 C2_4 1_555 1_555
C4_4 C3_4 1_555 1_555
H2_4 C4_4 1_555 1_555
C5_4 C4_4 1_555 1_555
C6_4 C1_4 1_555 1_555
H3_4 C6_4 1_555 1_555
C7_4 N2_4 1_555 1_555
H4_4 C7_4 1_555 1_555
C8_4 C7_4 1_555 1_555
H5_4 C8_4 1_555 1_555
C11_4 N2_4 1_555 1_555
H7_4 C11_4 1_555 1_555
C17_4 C1_4 1_555 1_555
C18_4 C3_4 1_555 1_555
C5_4 C6_4 1_555 1_555
C10_4 C11_4 1_555 1_555
N3 C14_4 1_555 1_555
C12_4 C9_4 1_555 1_555
C13_4 C12_4 1_555 1_555
H8_4 C13_4 1_555 1_555
C14_4 C13_4 1_555 1_555
C15_4 N3 1_555 1_555
H10_4 C15_4 1_555 1_555
C16_4 C12_4 1_555 1_555
H11_4 C16_4 1_555 1_555
C15_4 C16_4 1_555 1_555
O10 N4 1_555 1_555
O8_2 N4_2 1_555 1_555
O9_2 N4_2 1_555 1_555
O10_2 N4_2 1_555 1_555
O10_3 N4_3 1_555 1_555
O8_4 N4_4 1_555 1_555
O9_4 N4_4 1_555 1_555
O10_4 N4_4 1_555 1_555

#END
