
###############################################################################
#
# This file contains modified crystal structure data generated from the
# MOF subset of the Cambridge Structural Database (CSD) v543 
# hosted by the Cambridge Crystallographic Data Centre (CCDC).
#
# This work is licensed under the Creative Commons
# Attribution-NonCommercial-ShareAlike 4.0 International License.
# To view a copy of this license, visit
# http://creativecommons.org/licenses/by-nc-sa/4.0/
# or send a letter to
# Creative Commons, PO Box 1866, Mountain View, CA 94042, USA.
#
# CIF created using the CSD Python API on 29 September 2022
# The structure has been converted into the P1 space group
# The structure has a 3D framework
# The original CSD entry WOBHIF04 is in the rhombohedral crystal system
# The framework has been calculated to contain at least 10.0% void space
# The void calculation uses a probe of radius 1.32A, grid spacing 0.4
#
###############################################################################

data_WOBHIF04
_chemical_formula_moiety         '(C72 H18 O48 Zn4)n'
_symmetry_cell_setting           triclinic
_symmetry_space_group_name_H-M   'P 1'
_symmetry_Int_Tables_number      1
_space_group_name_Hall           'P 1'
loop_
_symmetry_equiv_pos_site_id
_symmetry_equiv_pos_as_xyz
1 x,y,z
_cell_length_a                   25.94680(40)
_cell_length_b                   25.94680(40)
_cell_length_c                   6.834654(95)
_cell_angle_alpha                90
_cell_angle_beta                 90
_cell_angle_gamma                120
_cell_volume                     3984.88
loop_
_atom_site_label
_atom_site_type_symbol
_atom_site_fract_x
_atom_site_fract_y
_atom_site_fract_z
Zn1 Zn 0.360555(67) 0.313000(78) 0.02900(16)
O2 O 0.41264(30) 0.39243(40) 0.16289(92)
C2 C 0.45428(37) 0.44385(57) 0.0695(13)
C4 C 0.50030(20) 0.48380(31) 0.19588(85)
H1 H 0.4994(16) 0.4722(24) 0.3363(71)
Zn3 Zn 0.353667(78) 0.38089(10) 0.36233(16)
C6 C 0.54538(44) 0.53940(62) 0.1266(12)
C8 C 0.59511(52) 0.57782(80) 0.2608(16)
O9 O 0.59183(32) 0.56062(47) 0.4343(10)
O10 O 0.63456(33) 0.62867(41) 0.20235(80)
Zn7 Zn 0.646333(78) 0.61911(10) 0.63767(16)
Zn8 Zn 0.71422(10) 0.693888(67) 0.30433(16)
O11 O 0.68688(50) 0.74597(30) 0.17044(92)
O12 O 0.66078(53) 0.69877(33) 0.53568(80)
O13 O 0.72576(40) 0.64646(50) 0.50378(92)
O14 O 0.77271(47) 0.69788(57) 0.1010(10)
O1 O 0.36544(33) 0.37133(41) 0.79765(80)
C1 C 0.40489(52) 0.42218(80) 0.7392(16)
C3 C 0.45462(44) 0.46060(62) 0.8734(12)
O3 O 0.40817(32) 0.43938(47) 0.5657(10)
O4 O 0.31312(50) 0.25403(30) 0.82956(92)
Zn2 Zn 0.28578(10) 0.306112(67) 0.69567(16)
O5 O 0.27424(40) 0.35354(50) 0.49622(92)
O6 O 0.33922(53) 0.30123(33) 0.46432(80)
O7 O 0.22729(47) 0.30212(57) 0.8990(10)
C5 C 0.49970(20) 0.51620(31) 0.80412(85)
H2 H 0.5006(16) 0.5278(24) 0.6637(71)
C7 C 0.54572(37) 0.55615(57) 0.9305(13)
O8 O 0.58736(30) 0.60757(40) 0.83711(92)
Zn5 Zn 0.639445(67) 0.687000(78) 0.97100(16)
Zn3_2 Zn 0.02722(13) 0.646333(78) 0.36233(16)
O11_2 O 0.05910(58) 0.31312(50) 0.17044(92)
O12_2 O 0.03800(62) 0.33922(53) 0.53568(80)
O1_2 O 0.00589(53) 0.63456(33) 0.79765(80)
C1_2 C 0.01729(95) 0.59511(52) 0.7392(16)
C3_2 C 0.00598(76) 0.54538(44) 0.8734(12)
O3_2 O 0.03121(57) 0.59183(32) 0.5657(10)
Zn2_2 Zn 0.02033(12) 0.71422(10) 0.69567(16)
O5_2 O 0.07931(64) 0.72576(40) 0.49622(92)
O7_2 O 0.07484(74) 0.77271(47) 0.8990(10)
C5_2 C 0.01650(37) 0.50030(20) 0.80412(85)
H2_2 H 0.0272(29) 0.4994(16) 0.6637(71)
C7_2 C 0.01043(68) 0.45428(37) 0.9305(13)
O8_2 O 0.02021(50) 0.41264(30) 0.83711(92)
Zn5_2 Zn 0.04755(10) 0.360555(67) 0.97100(16)
Zn1_2 Zn 0.95244(10) 0.639445(67) 0.02900(16)
O2_2 O 0.97979(50) 0.58736(30) 0.16289(92)
C2_2 C 0.98957(68) 0.54572(37) 0.0695(13)
C4_2 C 0.98350(37) 0.49970(20) 0.19588(85)
H1_2 H 0.9728(29) 0.5006(16) 0.3363(71)
C6_2 C 0.99402(76) 0.45462(44) 0.1266(12)
C8_2 C 0.98271(95) 0.40489(52) 0.2608(16)
O9_2 O 0.96879(57) 0.40817(32) 0.4343(10)
O10_2 O 0.99411(53) 0.36544(33) 0.20235(80)
Zn7_2 Zn 0.97278(13) 0.353667(78) 0.63767(16)
Zn8_2 Zn 0.97967(12) 0.28578(10) 0.30433(16)
O13_2 O 0.92069(64) 0.27424(40) 0.50378(92)
O14_2 O 0.92516(74) 0.22729(47) 0.1010(10)
O4_2 O 0.94090(58) 0.68688(50) 0.82956(92)
O6_2 O 0.96200(62) 0.66078(53) 0.46432(80)
H1_3 H 0.3061(29) 0.1673(16) 0.0030(71)
O9_3 O 0.30212(57) 0.07484(32) 0.1010(10)
Zn7_3 Zn 0.30611(13) 0.020333(78) 0.30433(16)
O12_3 O 0.37133(62) 0.00589(53) 0.20235(80)
C1_3 C 0.35062(95) 0.26178(52) 0.4059(16)
C2_3 C 0.32290(68) 0.21239(37) 0.7362(13)
C3_3 C 0.33931(76) 0.21205(44) 0.5401(12)
O3_3 O 0.36454(57) 0.25850(32) 0.2324(10)
C4_3 C 0.31683(37) 0.16637(20) 0.86255(85)
O6_3 O 0.29534(62) 0.32744(53) 0.13098(80)
C5_3 C 0.34983(37) 0.16697(20) 0.47079(85)
C6_3 C 0.32735(76) 0.12129(44) 0.7933(12)
H2_3 H 0.3605(29) 0.1661(16) 0.3304(71)
C7_3 C 0.34376(68) 0.12095(37) 0.5972(13)
C8_3 C 0.31604(95) 0.07156(52) 0.9275(16)
O8_3 O 0.35354(50) 0.07931(30) 0.50378(92)
O10_3 O 0.32744(53) 0.03211(33) 0.86902(80)
Zn5_3 Zn 0.38089(10) 0.027222(67) 0.63767(16)
O13_3 O 0.25403(64) 0.94090(40) 0.17044(92)
Zn8_3 Zn 0.31300(12) 0.95244(10) 0.97100(16)
O11_3 O 0.39243(58) 0.97979(50) 0.83711(92)
O14_3 O 0.25850(74) 0.89395(47) 0.7676(10)
O4_3 O 0.60757(58) 0.02021(50) 0.16289(92)
Zn2_3 Zn 0.68700(12) 0.04755(10) 0.02900(16)
O7_3 O 0.74150(74) 0.10605(47) 0.2324(10)
O5_3 O 0.74597(64) 0.05910(40) 0.82956(92)
Zn1_3 Zn 0.61911(10) 0.972778(67) 0.36233(16)
O1_3 O 0.67256(53) 0.96789(33) 0.13098(80)
O2_3 O 0.64646(50) 0.92069(30) 0.49622(92)
C1_4 C 0.68396(95) 0.92844(52) 0.0725(16)
C2_4 C 0.65624(68) 0.87905(37) 0.4028(13)
C3_4 C 0.67265(76) 0.87871(44) 0.2067(12)
C4_4 C 0.65017(37) 0.83303(20) 0.52921(85)
H1_4 H 0.6395(29) 0.8339(16) 0.6696(71)
Zn3_3 Zn 0.69389(13) 0.979667(78) 0.69567(16)
C5_4 C 0.68317(37) 0.83363(20) 0.13745(85)
C6_4 C 0.66069(76) 0.78795(44) 0.4599(12)
C7_4 C 0.67710(68) 0.78761(37) 0.2638(13)
C8_4 C 0.64938(95) 0.73822(52) 0.5941(16)
O9_4 O 0.63546(57) 0.74150(32) 0.7676(10)
O12_4 O 0.70466(62) 0.67256(53) 0.86902(80)
O3_4 O 0.69788(57) 0.92516(32) 0.8990(10)
O6_4 O 0.62867(62) 0.99411(53) 0.79765(80)
H2_4 H 0.6939(29) 0.8327(16) 0.9970(71)
C2_5 C 0.55615(57) 0.01043(68) 0.0695(13)
C4_5 C 0.51620(31) 0.01650(37) 0.19588(85)
H1_5 H 0.5278(24) 0.0272(29) 0.3363(71)
C6_5 C 0.46060(62) 0.00598(76) 0.1266(12)
C8_5 C 0.42218(80) 0.01729(95) 0.2608(16)
O9_5 O 0.43938(47) 0.03121(57) 0.4343(10)
O6_5 O 0.69877(33) 0.03800(62) 0.46432(80)
O12_5 O 0.30123(33) 0.96200(62) 0.53568(80)
C1_5 C 0.57782(80) 0.98271(95) 0.7392(16)
C3_5 C 0.53940(62) 0.99402(76) 0.8734(12)
O3_5 O 0.56062(47) 0.96879(57) 0.5657(10)
C5_5 C 0.48380(31) 0.98350(37) 0.80412(85)
H2_5 H 0.4722(24) 0.9728(29) 0.6637(71)
C7_5 C 0.44385(57) 0.98957(68) 0.9305(13)
O6_6 O 0.03211(33) 0.70466(62) 0.13098(80)
H1_6 H 0.8611(24) 0.6939(29) 0.0030(71)
C1_6 C 0.91115(80) 0.64938(95) 0.4059(16)
C2_6 C 0.88948(57) 0.67710(68) 0.7362(13)
C3_6 C 0.87273(62) 0.66069(76) 0.5401(12)
O3_6 O 0.89395(47) 0.63546(57) 0.2324(10)
C4_6 C 0.84953(31) 0.68317(37) 0.86255(85)
C5_6 C 0.81713(31) 0.65017(37) 0.47079(85)
C6_6 C 0.79393(62) 0.67265(76) 0.7933(12)
H2_6 H 0.8055(24) 0.6395(29) 0.3304(71)
C7_6 C 0.77718(57) 0.65624(68) 0.5972(13)
C8_6 C 0.75551(80) 0.68396(95) 0.9275(16)
C1_7 C 0.24449(80) 0.31604(95) 0.0725(16)
C2_7 C 0.22282(57) 0.34376(68) 0.4028(13)
C3_7 C 0.20607(62) 0.32735(76) 0.2067(12)
C4_7 C 0.18287(31) 0.34983(37) 0.52921(85)
H1_7 H 0.1945(24) 0.3605(29) 0.6696(71)
C5_7 C 0.15047(31) 0.31683(37) 0.13745(85)
C6_7 C 0.12727(62) 0.33931(76) 0.4599(12)
C7_7 C 0.11052(57) 0.32290(68) 0.2638(13)
C8_7 C 0.08885(80) 0.35062(95) 0.5941(16)
O9_6 O 0.10605(47) 0.36454(57) 0.7676(10)
H2_7 H 0.1389(24) 0.3061(29) 0.9970(71)
O12_6 O 0.96789(33) 0.29534(62) 0.86902(80)
H1_8 H 0.8327(16) 0.1389(24) 0.0030(71)
C1_8 C 0.73822(52) 0.08885(80) 0.4059(16)
C2_8 C 0.78761(37) 0.11052(57) 0.7362(13)
C3_8 C 0.78795(44) 0.12727(62) 0.5401(12)
C4_8 C 0.83363(20) 0.15047(31) 0.86255(85)
C5_8 C 0.83303(20) 0.18287(31) 0.47079(85)
C6_8 C 0.87871(44) 0.20607(62) 0.7933(12)
H2_8 H 0.8339(16) 0.1945(24) 0.3304(71)
C7_8 C 0.87905(37) 0.22282(57) 0.5972(13)
C8_8 C 0.92844(52) 0.24449(80) 0.9275(16)
C1_9 C 0.07156(52) 0.75551(80) 0.0725(16)
C2_9 C 0.12095(37) 0.77718(57) 0.4028(13)
C3_9 C 0.12129(44) 0.79393(62) 0.2067(12)
C4_9 C 0.16697(20) 0.81713(31) 0.52921(85)
H1_9 H 0.1661(16) 0.8055(24) 0.6696(71)
C5_9 C 0.16637(20) 0.84953(31) 0.13745(85)
C6_9 C 0.21205(44) 0.87273(62) 0.4599(12)
C7_9 C 0.21239(37) 0.88948(57) 0.2638(13)
C8_9 C 0.26178(52) 0.91115(80) 0.5941(16)
H2_9 H 0.1673(16) 0.8611(24) 0.9970(71)
loop_
_geom_bond_atom_site_label_1
_geom_bond_atom_site_label_2
_geom_bond_site_symmetry_1
_geom_bond_site_symmetry_2
O2 Zn1 1_555 1_555
C2 O2 1_555 1_555
C4 C2 1_555 1_555
H1 C4 1_555 1_555
Zn3 O2 1_555 1_555
C6 C4 1_555 1_555
C8 C6 1_555 1_555
O9 C8 1_555 1_555
O10 C8 1_555 1_555
Zn7 O9 1_555 1_555
Zn8 O10 1_555 1_555
O12 Zn7 1_555 1_555
O13 Zn7 1_555 1_555
O14 Zn8 1_555 1_555
Zn8 O11 1_555 1_555
Zn8 O12 1_555 1_555
Zn8 O13 1_555 1_555
O1 C1 1_555 1_555
C1 C3 1_555 1_555
O3 C1 1_555 1_555
Zn2 O1 1_555 1_555
O5 Zn2 1_555 1_555
O6 Zn2 1_555 1_555
O7 Zn2 1_555 1_555
C5 C3 1_555 1_555
Zn3 O3 1_555 1_555
H2 C5 1_555 1_555
C7 C5 1_555 1_555
O8 C7 1_555 1_555
Zn5 O8 1_555 1_555
Zn7 O8 1_555 1_555
O4 Zn2 1_555 1_555
O5 Zn3 1_555 1_555
O6 Zn3 1_555 1_555
O1_2 C1_2 1_555 1_555
C1_2 C3_2 1_555 1_555
O3_2 C1_2 1_555 1_555
Zn2_2 O1_2 1_555 1_555
O5_2 Zn2_2 1_555 1_555
O7_2 Zn2_2 1_555 1_555
C5_2 C3_2 1_555 1_555
Zn3_2 O3_2 1_555 1_555
H2_2 C5_2 1_555 1_555
C7_2 C5_2 1_555 1_555
O8_2 C7_2 1_555 1_555
Zn5_2 O8_2 1_555 1_555
O5_2 Zn3_2 1_555 1_555
O2_2 Zn1_2 1_555 1_555
C2_2 O2_2 1_555 1_555
C4_2 C2_2 1_555 1_555
H1_2 C4_2 1_555 1_555
C6_2 C4_2 1_555 1_555
C8_2 C6_2 1_555 1_555
O9_2 C8_2 1_555 1_555
O10_2 C8_2 1_555 1_555
Zn7_2 O9_2 1_555 1_555
Zn8_2 O10_2 1_555 1_555
O13_2 Zn7_2 1_555 1_555
O14_2 Zn8_2 1_555 1_555
Zn8_2 O13_2 1_555 1_555
Zn7_3 O9_3 1_555 1_555
O12_3 Zn7_3 1_555 1_555
O6 C1_3 1_555 1_555
C1_3 C3_3 1_555 1_555
C2_3 O4 1_555 1_555
C3_3 C2_3 1_555 1_555
O3_3 C1_3 1_555 1_555
C4_3 C2_3 1_555 1_555
O6_3 Zn3 1_555 1_555
C5_3 C3_3 1_555 1_555
Zn1 O3_3 1_555 1_555
C6_3 C4_3 1_555 1_555
H2_3 C5_3 1_555 1_555
C7_3 C5_3 1_555 1_555
C8_3 C6_3 1_555 1_555
O8_3 C7_3 1_555 1_555
O10_3 C8_3 1_555 1_555
Zn5_3 O8_3 1_555 1_555
Zn7_3 O8_3 1_555 1_555
O6_3 Zn1 1_555 1_555
C6_3 C7_3 1_555 1_555
O10_3 Zn5_3 1_555 1_555
O14_3 Zn8_3 1_555 1_555
Zn8_3 O11_3 1_555 1_555
O7_3 Zn2_3 1_555 1_555
O4_3 Zn2_3 1_555 1_555
Zn1_3 O1_3 1_555 1_555
O1_3 C1_4 1_555 1_555
O2_3 Zn1_3 1_555 1_555
C1_4 C3_4 1_555 1_555
C2_4 O2_3 1_555 1_555
C3_4 C2_4 1_555 1_555
C4_4 C2_4 1_555 1_555
H1_4 C4_4 1_555 1_555
Zn3_3 O2_3 1_555 1_555
C5_4 C3_4 1_555 1_555
C6_4 C4_4 1_555 1_555
C7_4 C5_4 1_555 1_555
C8_4 C6_4 1_555 1_555
O11 C7_4 1_555 1_555
O9_4 C8_4 1_555 1_555
O12 C8_4 1_555 1_555
Zn5 O9_4 1_555 1_555
O12_4 Zn5 1_555 1_555
C6_4 C7_4 1_555 1_555
Zn7 O12_4 1_555 1_555
Zn3_3 O3_4 1_555 1_555
O6_4 Zn3_3 1_555 1_555
C2_5 O4_3 1_555 1_555
C4_5 C2_5 1_555 1_555
H1_5 C4_5 1_555 1_555
C6_5 C4_5 1_555 1_555
C8_5 C6_5 1_555 1_555
O9_5 C8_5 1_555 1_555
O12_3 C8_5 1_555 1_555
Zn5_3 O9_5 1_555 1_555
O6_4 C1_5 1_555 1_555
C1_5 C3_5 1_555 1_555
O3_5 C1_5 1_555 1_555
C5_5 C3_5 1_555 1_555
Zn1_3 O3_5 1_555 1_555
H2_5 C5_5 1_555 1_555
C7_5 C5_5 1_555 1_555
O11_3 C7_5 1_555 1_555
O6_6 Zn3_2 1_555 1_555
O6_2 C1_6 1_555 1_555
C1_6 C3_6 1_555 1_555
C2_6 O4_2 1_555 1_555
C3_6 C2_6 1_555 1_555
O3_6 C1_6 1_555 1_555
C4_6 C2_6 1_555 1_555
C5_6 C3_6 1_555 1_555
Zn1_2 O3_6 1_555 1_555
C6_6 C4_6 1_555 1_555
H2_6 C5_6 1_555 1_555
C7_6 C5_6 1_555 1_555
C8_6 C6_6 1_555 1_555
O13 C7_6 1_555 1_555
O12_4 C8_6 1_555 1_555
C6_6 C7_6 1_555 1_555
O6_3 C1_7 1_555 1_555
C1_7 C3_7 1_555 1_555
C2_7 O5 1_555 1_555
C3_7 C2_7 1_555 1_555
C4_7 C2_7 1_555 1_555
H1_7 C4_7 1_555 1_555
C5_7 C3_7 1_555 1_555
C6_7 C4_7 1_555 1_555
C7_7 C5_7 1_555 1_555
C8_7 C6_7 1_555 1_555
O11_2 C7_7 1_555 1_555
O9_6 C8_7 1_555 1_555
O12_2 C8_7 1_555 1_555
Zn5_2 O9_6 1_555 1_555
C6_7 C7_7 1_555 1_555
Zn7_2 O12_6 1_555 1_555
O6_5 C1_8 1_555 1_555
C1_8 C3_8 1_555 1_555
C2_8 O5_3 1_555 1_555
C3_8 C2_8 1_555 1_555
O7_3 C1_8 1_555 1_555
C4_8 C2_8 1_555 1_555
C5_8 C3_8 1_555 1_555
C6_8 C4_8 1_555 1_555
H2_8 C5_8 1_555 1_555
C7_8 C5_8 1_555 1_555
C8_8 C6_8 1_555 1_555
O13_2 C7_8 1_555 1_555
O12_6 C8_8 1_555 1_555
C6_8 C7_8 1_555 1_555
O6_6 C1_9 1_555 1_555
C1_9 C3_9 1_555 1_555
C2_9 O5_2 1_555 1_555
C3_9 C2_9 1_555 1_555
C4_9 C2_9 1_555 1_555
H1_9 C4_9 1_555 1_555
C5_9 C3_9 1_555 1_555
C6_9 C4_9 1_555 1_555
C7_9 C5_9 1_555 1_555
C8_9 C6_9 1_555 1_555
O13_3 C7_9 1_555 1_555
O14_3 C8_9 1_555 1_555
O12_5 C8_9 1_555 1_555
C6_9 C7_9 1_555 1_555

#END
