
###############################################################################
#
# This file contains modified crystal structure data generated from the
# MOF subset of the Cambridge Structural Database (CSD) v543 
# hosted by the Cambridge Crystallographic Data Centre (CCDC).
#
# This work is licensed under the Creative Commons
# Attribution-NonCommercial-ShareAlike 4.0 International License.
# To view a copy of this license, visit
# http://creativecommons.org/licenses/by-nc-sa/4.0/
# or send a letter to
# Creative Commons, PO Box 1866, Mountain View, CA 94042, USA.
#
# CIF created using the CSD Python API on 29 September 2022
# The structure has been converted into the P1 space group
# The structure has a 3D framework
# The original CSD entry WOBHIF02 is in the rhombohedral crystal system
# The framework has been calculated to contain at least 10.0% void space
# The void calculation uses a probe of radius 1.32A, grid spacing 0.4
#
###############################################################################

data_WOBHIF02
_chemical_formula_moiety         '(C72 H18 O54 Zn18)n'
_symmetry_cell_setting           triclinic
_symmetry_space_group_name_H-M   'P 1'
_symmetry_Int_Tables_number      1
_space_group_name_Hall           'P 1'
loop_
_symmetry_equiv_pos_site_id
_symmetry_equiv_pos_as_xyz
1 x,y,z
_cell_length_a                   25.94301(32)
_cell_length_b                   25.94301(32)
_cell_length_c                   6.81968(56)
_cell_angle_alpha                90
_cell_angle_beta                 90
_cell_angle_gamma                120
_cell_volume                     3974.98
loop_
_atom_site_label
_atom_site_type_symbol
_atom_site_fract_x
_atom_site_fract_y
_atom_site_fract_z
_atom_site_U_iso_or_equiv
_atom_site_thermal_displace_type
C3 C 0.55665(3) 0.54498(4) 0.07104(9) 0.0190 Uiso
O3 O 0.61216(3) 0.58800(6) 0.13893(16) 0.0253 Uiso
C5 C 0.42030(6) 0.40912(6) 0.25444(12) 0.0190 Uiso
C6 C 0.45844(6) 0.45599(7) 0.12855(10) 0.0190 Uiso
C8 C 0.51732(8) 0.49957(9) 0.19693(13) 0.0190 Uiso
H2 H 0.52820(21) 0.49913(26) 0.33283(36) 0.0190 Uiso
Zn2 Zn 0.38258(2) 0.35583(3) 0.63793(9) 0.0253 Uiso
Zn4 Zn 0.68916(3) 0.63992(4) 0.02874(9) 0.0253 Uiso
Zn5 Zn 0.61742(2) 0.64417(3) 0.36207(9) 0.0253 Uiso
Zn7 Zn 0.30658(4) 0.28409(2) 0.30460(9) 0.0253 Uiso
O4 O 0.43927(7) 0.40442(6) 0.42083(16) 0.0253 Uiso
O5 O 0.37271(5) 0.36608(5) 0.18764(19) 0.0253 Uiso
O8 O 0.30059(5) 0.33996(7) 0.52097(19) 0.0253 Uiso
O9 O 0.32670(7) 0.29396(5) 0.85431(19) 0.0253 Uiso
O13 O 0.38784(3) 0.41200(6) 0.86107(16) 0.0253 Uiso
O14 O 0.35749(7) 0.27883(3) 0.52774(16) 0.0253 Uiso
C1 C 0.57970(6) 0.59088(6) 0.74556(12) 0.0190 Uiso
C2 C 0.54156(6) 0.54401(7) 0.87145(10) 0.0190 Uiso
C4 C 0.48268(8) 0.50043(9) 0.80307(13) 0.0190 Uiso
H1 H 0.47180(21) 0.50087(26) 0.66717(36) 0.0190 Uiso
O1 O 0.56073(7) 0.59558(6) 0.57917(16) 0.0253 Uiso
O2 O 0.62729(5) 0.63392(5) 0.81236(19) 0.0253 Uiso
C7 C 0.44335(3) 0.45502(4) 0.92896(9) 0.0190 Uiso
Zn3 Zn 0.69342(4) 0.71591(2) 0.69540(9) 0.0253 Uiso
Zn6 Zn 0.31084(3) 0.36008(4) 0.97126(9) 0.0253 Uiso
O6 O 0.67330(7) 0.70604(5) 0.14569(19) 0.0253 Uiso
O7 O 0.69941(5) 0.66004(7) 0.47903(19) 0.0253 Uiso
O12 O 0.64251(7) 0.72117(3) 0.47226(16) 0.0253 Uiso
Zn3_2 Zn 0.02675(4) 0.38258(2) 0.36207(9) 0.0253 Uiso
Zn4_2 Zn 0.02250(3) 0.30658(4) 0.69540(9) 0.0253 Uiso
O7_2 O 0.03275(5) 0.32670(7) 0.14569(19) 0.0253 Uiso
O6_2 O 0.00663(7) 0.37271(5) 0.81236(19) 0.0253 Uiso
Zn2_2 Zn 0.71591(2) 0.02250(3) 0.30460(9) 0.0253 Uiso
Zn5_2 Zn 0.95075(2) 0.31084(3) 0.02874(9) 0.0253 Uiso
O4_2 O 0.77260(7) 0.07109(6) 0.08750(16) 0.0253 Uiso
O8_2 O 0.63392(5) 0.00663(7) 0.18764(19) 0.0253 Uiso
O13_2 O 0.72117(3) 0.07867(6) 0.52774(16) 0.0253 Uiso
C1_2 C 0.91303(6) 0.25755(6) 0.41223(12) 0.0190 Uiso
C2_2 C 0.87489(6) 0.21068(7) 0.53812(10) 0.0190 Uiso
C3_2 C 0.88998(3) 0.21165(4) 0.73771(9) 0.0190 Uiso
C4_2 C 0.81601(8) 0.16710(9) 0.46974(13) 0.0190 Uiso
H1_2 H 0.80513(21) 0.16754(26) 0.33384(36) 0.0190 Uiso
O1_2 O 0.89406(7) 0.26225(6) 0.24584(16) 0.0253 Uiso
O2_2 O 0.96062(5) 0.30059(5) 0.47903(19) 0.0253 Uiso
O3_2 O 0.94549(3) 0.25467(6) 0.80560(16) 0.0253 Uiso
C5_2 C 0.75363(6) 0.07579(6) 0.92111(12) 0.0190 Uiso
C6_2 C 0.79177(6) 0.12266(7) 0.79522(10) 0.0190 Uiso
C7_2 C 0.77668(3) 0.12169(4) 0.59563(9) 0.0190 Uiso
C8_2 C 0.85065(8) 0.16624(9) 0.86360(13) 0.0190 Uiso
H2_2 H 0.86153(21) 0.16580(26) 0.99950(36) 0.0190 Uiso
Zn6_2 Zn 0.64417(3) 0.02675(4) 0.63793(9) 0.0253 Uiso
O5_2 O 0.70604(5) 0.03275(5) 0.85431(19) 0.0253 Uiso
O12_2 O 0.97584(7) 0.38784(3) 0.13893(16) 0.0253 Uiso
O9_2 O 0.66004(7) 0.96062(5) 0.52097(19) 0.0253 Uiso
O14_2 O 0.69083(7) 0.94549(3) 0.19440(16) 0.0253 Uiso
Zn7_2 Zn 0.63992(4) 0.95075(2) 0.97126(9) 0.0253 Uiso
Zn3_3 Zn 0.36008(4) 0.04925(2) 0.02874(9) 0.0253 Uiso
O6_3 O 0.33996(7) 0.03938(5) 0.47903(19) 0.0253 Uiso
O12_3 O 0.30917(7) 0.05451(3) 0.80560(16) 0.0253 Uiso
O13_3 O 0.05451(3) 0.74533(6) 0.19440(16) 0.0253 Uiso
C1_3 C 0.24637(6) 0.92421(6) 0.07889(12) 0.0190 Uiso
C2_3 C 0.20823(6) 0.87734(7) 0.20478(10) 0.0190 Uiso
C3_3 C 0.22332(3) 0.87831(4) 0.40437(9) 0.0190 Uiso
C4_3 C 0.14935(8) 0.83376(9) 0.13640(13) 0.0190 Uiso
H1_3 H 0.13847(21) 0.83420(26) 0.00050(36) 0.0190 Uiso
O2_3 O 0.29396(5) 0.96725(5) 0.14569(19) 0.0253 Uiso
O3_3 O 0.27883(3) 0.92133(6) 0.47226(16) 0.0253 Uiso
C5_3 C 0.08697(6) 0.74245(6) 0.58777(12) 0.0190 Uiso
C6_3 C 0.12511(6) 0.78932(7) 0.46188(10) 0.0190 Uiso
C7_3 C 0.11002(3) 0.78835(4) 0.26229(9) 0.0190 Uiso
C8_3 C 0.18399(8) 0.83290(9) 0.53026(13) 0.0190 Uiso
H2_3 H 0.19487(21) 0.83246(26) 0.66616(36) 0.0190 Uiso
Zn2_3 Zn 0.04925(2) 0.68916(3) 0.97126(9) 0.0253 Uiso
Zn4_3 Zn 0.35583(3) 0.97325(4) 0.36207(9) 0.0253 Uiso
Zn5_3 Zn 0.28409(2) 0.97750(3) 0.69540(9) 0.0253 Uiso
O4_3 O 0.10594(7) 0.73775(6) 0.75416(16) 0.0253 Uiso
O5_3 O 0.03938(5) 0.69941(5) 0.52097(19) 0.0253 Uiso
O14_3 O 0.02416(7) 0.61216(3) 0.86107(16) 0.0253 Uiso
O1_3 O 0.22740(7) 0.92891(6) 0.91250(16) 0.0253 Uiso
O7_3 O 0.36608(5) 0.99337(7) 0.81236(19) 0.0253 Uiso
O9_3 O 0.99337(7) 0.62729(5) 0.18764(19) 0.0253 Uiso
Zn6_3 Zn 0.97750(3) 0.69342(4) 0.30460(9) 0.0253 Uiso
Zn7_3 Zn 0.97325(4) 0.61742(2) 0.63793(9) 0.0253 Uiso
O8_3 O 0.96725(5) 0.67330(7) 0.85431(19) 0.0253 Uiso
C3_4 C 0.45502(4) 0.01167(5) 0.07104(9) 0.0190 Uiso
O3_4 O 0.41200(6) 0.02416(7) 0.13893(16) 0.0253 Uiso
C5_4 C 0.59088(6) 0.01118(8) 0.25444(12) 0.0190 Uiso
C6_4 C 0.54401(7) 0.00245(9) 0.12855(10) 0.0190 Uiso
C8_4 C 0.50043(9) 0.01775(12) 0.19693(13) 0.0190 Uiso
H2_4 H 0.50087(26) 0.02907(33) 0.33283(36) 0.0190 Uiso
O4_4 O 0.59558(6) 0.03485(9) 0.42083(16) 0.0253 Uiso
O13_4 O 0.58800(6) 0.97584(7) 0.86107(16) 0.0253 Uiso
C1_4 C 0.40912(6) 0.98882(8) 0.74556(12) 0.0190 Uiso
C2_4 C 0.45599(7) 0.99755(9) 0.87145(10) 0.0190 Uiso
C4_4 C 0.49957(9) 0.98225(12) 0.80307(13) 0.0190 Uiso
H1_4 H 0.49913(26) 0.97093(33) 0.66717(36) 0.0190 Uiso
O1_4 O 0.40442(6) 0.96515(9) 0.57917(16) 0.0253 Uiso
C7_4 C 0.54498(4) 0.98833(5) 0.92896(9) 0.0190 Uiso
C1_5 C 0.01118(8) 0.42030(6) 0.74556(12) 0.0190 Uiso
C2_5 C 0.00245(9) 0.45844(6) 0.87145(10) 0.0190 Uiso
C4_5 C 0.01775(12) 0.51732(8) 0.80307(13) 0.0190 Uiso
H1_5 H 0.02907(33) 0.52820(21) 0.66717(36) 0.0190 Uiso
O1_5 O 0.03485(9) 0.43927(7) 0.57917(16) 0.0253 Uiso
C7_5 C 0.01167(5) 0.55665(3) 0.92896(9) 0.0190 Uiso
O12_4 O 0.07867(8) 0.35749(7) 0.47226(16) 0.0253 Uiso
C3_5 C 0.98833(5) 0.44335(3) 0.07104(9) 0.0190 Uiso
C5_5 C 0.98882(8) 0.57970(6) 0.25444(12) 0.0190 Uiso
C6_5 C 0.99755(9) 0.54156(6) 0.12855(10) 0.0190 Uiso
C8_5 C 0.98225(12) 0.48268(8) 0.19693(13) 0.0190 Uiso
H2_5 H 0.97093(33) 0.47180(21) 0.33283(36) 0.0190 Uiso
O4_5 O 0.96515(9) 0.56073(7) 0.42083(16) 0.0253 Uiso
O14_4 O 0.92133(8) 0.64251(7) 0.52774(16) 0.0253 Uiso
O13_5 O 0.25467(6) 0.30917(7) 0.19440(16) 0.0253 Uiso
C1_6 C 0.07579(6) 0.32215(8) 0.07889(12) 0.0190 Uiso
C2_6 C 0.12266(7) 0.33088(9) 0.20478(10) 0.0190 Uiso
C3_6 C 0.12169(4) 0.34500(5) 0.40437(9) 0.0190 Uiso
C4_6 C 0.16624(9) 0.31558(12) 0.13640(13) 0.0190 Uiso
H1_6 H 0.16580(26) 0.30426(33) 0.00050(36) 0.0190 Uiso
C5_6 C 0.25755(6) 0.34451(8) 0.58777(12) 0.0190 Uiso
C6_6 C 0.21068(7) 0.33578(9) 0.46188(10) 0.0190 Uiso
C7_6 C 0.21165(4) 0.32166(5) 0.26229(9) 0.0190 Uiso
C8_6 C 0.16710(9) 0.35108(12) 0.53026(13) 0.0190 Uiso
H2_6 H 0.16754(26) 0.36240(33) 0.66616(36) 0.0190 Uiso
O4_6 O 0.26225(6) 0.36818(9) 0.75416(16) 0.0253 Uiso
O1_6 O 0.07109(6) 0.29848(9) 0.91250(16) 0.0253 Uiso
C1_7 C 0.67785(8) 0.75363(6) 0.07889(12) 0.0190 Uiso
C2_7 C 0.66912(9) 0.79177(6) 0.20478(10) 0.0190 Uiso
C3_7 C 0.65500(5) 0.77668(3) 0.40437(9) 0.0190 Uiso
C4_7 C 0.68442(12) 0.85065(8) 0.13640(13) 0.0190 Uiso
H1_7 H 0.69574(33) 0.86153(21) 0.00050(36) 0.0190 Uiso
C5_7 C 0.65549(8) 0.91303(6) 0.58777(12) 0.0190 Uiso
C6_7 C 0.66422(9) 0.87489(6) 0.46188(10) 0.0190 Uiso
C7_7 C 0.67834(5) 0.88998(3) 0.26229(9) 0.0190 Uiso
C8_7 C 0.64892(12) 0.81601(8) 0.53026(13) 0.0190 Uiso
H2_7 H 0.63760(33) 0.80513(21) 0.66616(36) 0.0190 Uiso
O4_7 O 0.63182(9) 0.89406(7) 0.75416(16) 0.0253 Uiso
O1_7 O 0.70152(9) 0.77260(7) 0.91250(16) 0.0253 Uiso
O12_5 O 0.74533(8) 0.69083(7) 0.80560(16) 0.0253 Uiso
O4_8 O 0.92891(6) 0.70152(9) 0.08750(16) 0.0253 Uiso
C1_8 C 0.74245(6) 0.65549(8) 0.41223(12) 0.0190 Uiso
C2_8 C 0.78932(7) 0.66422(9) 0.53812(10) 0.0190 Uiso
C3_8 C 0.78835(4) 0.67834(5) 0.73771(9) 0.0190 Uiso
C4_8 C 0.83290(9) 0.64892(12) 0.46974(13) 0.0190 Uiso
H1_8 H 0.83246(26) 0.63760(33) 0.33384(36) 0.0190 Uiso
O1_8 O 0.73775(6) 0.63182(9) 0.24584(16) 0.0253 Uiso
C5_8 C 0.92421(6) 0.67785(8) 0.92111(12) 0.0190 Uiso
C6_8 C 0.87734(7) 0.66912(9) 0.79522(10) 0.0190 Uiso
C7_8 C 0.87831(4) 0.65500(5) 0.59563(9) 0.0190 Uiso
C8_8 C 0.83376(9) 0.68442(12) 0.86360(13) 0.0190 Uiso
H2_8 H 0.83420(26) 0.69574(33) 0.99950(36) 0.0190 Uiso
O4_9 O 0.29848(9) 0.22740(7) 0.08750(16) 0.0253 Uiso
C1_9 C 0.34451(8) 0.08697(6) 0.41223(12) 0.0190 Uiso
C2_9 C 0.33578(9) 0.12511(6) 0.53812(10) 0.0190 Uiso
C3_9 C 0.32166(5) 0.11002(3) 0.73771(9) 0.0190 Uiso
C4_9 C 0.35108(12) 0.18399(8) 0.46974(13) 0.0190 Uiso
H1_9 H 0.36240(33) 0.19487(21) 0.33384(36) 0.0190 Uiso
O1_9 O 0.36818(9) 0.10594(7) 0.24584(16) 0.0253 Uiso
C5_9 C 0.32215(8) 0.24637(6) 0.92111(12) 0.0190 Uiso
C6_9 C 0.33088(9) 0.20823(6) 0.79522(10) 0.0190 Uiso
C7_9 C 0.34500(5) 0.22332(3) 0.59563(9) 0.0190 Uiso
C8_9 C 0.31558(12) 0.14935(8) 0.86360(13) 0.0190 Uiso
H2_9 H 0.30426(33) 0.13847(21) 0.99950(36) 0.0190 Uiso
loop_
_geom_bond_atom_site_label_1
_geom_bond_atom_site_label_2
_geom_bond_site_symmetry_1
_geom_bond_site_symmetry_2
C3 O3 1_555 1_555
O3 Zn4 1_555 1_555
C5 C6 1_555 1_555
C8 C3 1_555 1_555
H2 C8 1_555 1_555
Zn2 O4 1_555 1_555
Zn5 O3 1_555 1_555
Zn7 O5 1_555 1_555
O4 C5 1_555 1_555
O5 C5 1_555 1_555
O8 Zn2 1_555 1_555
O9 Zn2 1_555 1_555
O13 Zn2 1_555 1_555
O14 Zn2 1_555 1_555
C6 C8 1_555 1_555
Zn7 O8 1_555 1_555
Zn7 O14 1_555 1_555
C1 C2 1_555 1_555
C4 C2 1_555 1_555
H1 C4 1_555 1_555
Zn5 O1 1_555 1_555
O1 C1 1_555 1_555
O2 C1 1_555 1_555
C7 C4 1_555 1_555
Zn3 O2 1_555 1_555
O6 Zn5 1_555 1_555
O7 Zn5 1_555 1_555
O13 C7 1_555 1_555
O12 Zn5 1_555 1_555
Zn3 O7 1_555 1_555
Zn3 O12 1_555 1_555
Zn6 O13 1_555 1_555
Zn3_2 O7_2 1_555 1_555
Zn2_2 O4_2 1_555 1_555
O8_2 Zn2_2 1_555 1_555
O13_2 Zn2_2 1_555 1_555
C1_2 C2_2 1_555 1_555
C2_2 C3_2 1_555 1_555
C3_2 O3_2 1_555 1_555
C4_2 C2_2 1_555 1_555
H1_2 C4_2 1_555 1_555
Zn5_2 O1_2 1_555 1_555
O1_2 C1_2 1_555 1_555
O2_2 C1_2 1_555 1_555
C5_2 C6_2 1_555 1_555
C6_2 C7_2 1_555 1_555
C7_2 C4_2 1_555 1_555
C8_2 C3_2 1_555 1_555
H2_2 C8_2 1_555 1_555
Zn6_2 O5_2 1_555 1_555
O5_2 C5_2 1_555 1_555
O13_2 C7_2 1_555 1_555
O12_2 Zn5_2 1_555 1_555
C6_2 C8_2 1_555 1_555
Zn6_2 O13_2 1_555 1_555
C1_3 C2_3 1_555 1_555
C2_3 C3_3 1_555 1_555
C3_3 O3_3 1_555 1_555
C4_3 C2_3 1_555 1_555
H1_3 C4_3 1_555 1_555
O2_3 C1_3 1_555 1_555
O3_3 Zn4_3 1_555 1_555
C5_3 C6_3 1_555 1_555
C6_3 C7_3 1_555 1_555
C7_3 C4_3 1_555 1_555
C8_3 C3_3 1_555 1_555
H2_3 C8_3 1_555 1_555
Zn2_3 O4_3 1_555 1_555
Zn4_3 O2_3 1_555 1_555
Zn5_3 O3_3 1_555 1_555
O4_3 C5_3 1_555 1_555
O5_3 C5_3 1_555 1_555
O13_3 C7_3 1_555 1_555
O14_3 Zn2_3 1_555 1_555
C6_3 C8_3 1_555 1_555
Zn5_3 O1_3 1_555 1_555
O7_3 Zn5_3 1_555 1_555
Zn7_3 O8_3 1_555 1_555
C3_4 O3_4 1_555 1_555
O3_4 Zn3_3 1_555 1_555
C5_4 C6_4 1_555 1_555
C8_4 C3_4 1_555 1_555
H2_4 C8_4 1_555 1_555
Zn6_2 O4_4 1_555 1_555
O4_4 C5_4 1_555 1_555
O8_2 C5_4 1_555 1_555
C6_4 C8_4 1_555 1_555
C1_4 C2_4 1_555 1_555
C4_4 C2_4 1_555 1_555
H1_4 C4_4 1_555 1_555
Zn4_3 O1_4 1_555 1_555
O1_4 C1_4 1_555 1_555
O7_3 C1_4 1_555 1_555
C7_4 C4_4 1_555 1_555
O13_4 C7_4 1_555 1_555
Zn7_2 O13_4 1_555 1_555
C1_5 C2_5 1_555 1_555
C4_5 C2_5 1_555 1_555
H1_5 C4_5 1_555 1_555
Zn3_2 O1_5 1_555 1_555
O1_5 C1_5 1_555 1_555
O6_2 C1_5 1_555 1_555
C7_5 C4_5 1_555 1_555
Zn4_2 O6_2 1_555 1_555
O14_3 C7_5 1_555 1_555
O12_4 Zn3_2 1_555 1_555
Zn4_2 O12_4 1_555 1_555
C3_5 O12_2 1_555 1_555
C5_5 C6_5 1_555 1_555
C8_5 C3_5 1_555 1_555
H2_5 C8_5 1_555 1_555
Zn7_3 O4_5 1_555 1_555
Zn6_3 O9_3 1_555 1_555
O4_5 C5_5 1_555 1_555
O9_3 C5_5 1_555 1_555
O14_4 Zn7_3 1_555 1_555
C6_5 C8_5 1_555 1_555
Zn6_3 O14_4 1_555 1_555
C1_6 C2_6 1_555 1_555
C2_6 C3_6 1_555 1_555
C3_6 O12_4 1_555 1_555
C4_6 C2_6 1_555 1_555
H1_6 C4_6 1_555 1_555
O7_2 C1_6 1_555 1_555
C5_6 C6_6 1_555 1_555
C6_6 C7_6 1_555 1_555
C7_6 C4_6 1_555 1_555
C8_6 C3_6 1_555 1_555
H2_6 C8_6 1_555 1_555
Zn6 O4_6 1_555 1_555
O4_6 C5_6 1_555 1_555
O8 C5_6 1_555 1_555
O9 Zn6 1_555 1_555
O13_5 C7_6 1_555 1_555
C6_6 C8_6 1_555 1_555
Zn7 O13_5 1_555 1_555
Zn4_2 O1_6 1_555 1_555
C1_7 C2_7 1_555 1_555
C2_7 C3_7 1_555 1_555
C3_7 O12 1_555 1_555
C4_7 C2_7 1_555 1_555
H1_7 C4_7 1_555 1_555
O6 C1_7 1_555 1_555
C5_7 C6_7 1_555 1_555
C6_7 C7_7 1_555 1_555
C7_7 C4_7 1_555 1_555
C8_7 C3_7 1_555 1_555
H2_7 C8_7 1_555 1_555
Zn7_2 O4_7 1_555 1_555
Zn4 O6 1_555 1_555
O4_7 C5_7 1_555 1_555
O9_2 C5_7 1_555 1_555
O14_2 C7_7 1_555 1_555
C6_7 C8_7 1_555 1_555
Zn3 O1_7 1_555 1_555
O12_5 Zn3 1_555 1_555
Zn6_3 O4_8 1_555 1_555
C1_8 C2_8 1_555 1_555
C2_8 C3_8 1_555 1_555
C3_8 O12_5 1_555 1_555
C4_8 C2_8 1_555 1_555
H1_8 C4_8 1_555 1_555
Zn4 O1_8 1_555 1_555
O1_8 C1_8 1_555 1_555
O7 C1_8 1_555 1_555
C5_8 C6_8 1_555 1_555
C6_8 C7_8 1_555 1_555
C7_8 C4_8 1_555 1_555
C8_8 C3_8 1_555 1_555
H2_8 C8_8 1_555 1_555
O8_3 C5_8 1_555 1_555
O14_4 C7_8 1_555 1_555
C6_8 C8_8 1_555 1_555
Zn7 O4_9 1_555 1_555
C1_9 C2_9 1_555 1_555
C2_9 C3_9 1_555 1_555
C3_9 O12_3 1_555 1_555
C4_9 C2_9 1_555 1_555
H1_9 C4_9 1_555 1_555
Zn3_3 O1_9 1_555 1_555
O1_9 C1_9 1_555 1_555
O6_3 C1_9 1_555 1_555
C5_9 C6_9 1_555 1_555
C6_9 C7_9 1_555 1_555
C7_9 C4_9 1_555 1_555
C8_9 C3_9 1_555 1_555
H2_9 C8_9 1_555 1_555
O9 C5_9 1_555 1_555
O14 C7_9 1_555 1_555
C6_9 C8_9 1_555 1_555

#END
