
###############################################################################
#
# This file contains modified crystal structure data generated from the
# MOF subset of the Cambridge Structural Database (CSD) v543 
# hosted by the Cambridge Crystallographic Data Centre (CCDC).
#
# This work is licensed under the Creative Commons
# Attribution-NonCommercial-ShareAlike 4.0 International License.
# To view a copy of this license, visit
# http://creativecommons.org/licenses/by-nc-sa/4.0/
# or send a letter to
# Creative Commons, PO Box 1866, Mountain View, CA 94042, USA.
#
# CIF created using the CSD Python API on 29 September 2022
# The structure has been converted into the P1 space group
# The structure has a 3D framework
# The original CSD entry WOBHEB01 is in the rhombohedral crystal system
# The framework has been calculated to contain at least 10.0% void space
# The void calculation uses a probe of radius 1.32A, grid spacing 0.4
# H atom positions have been added when not included in the experimental data
# Generated hydrogen atom positions removed from atoms on special positions
#
###############################################################################

data_WOBHEB01
_chemical_formula_moiety         '(C72 H72 O72 Zn18)n'
_symmetry_cell_setting           triclinic
_symmetry_space_group_name_H-M   'P 1'
_symmetry_Int_Tables_number      1
_space_group_name_Hall           'P 1'
loop_
_symmetry_equiv_pos_site_id
_symmetry_equiv_pos_as_xyz
1 x,y,z
_cell_length_a                   26.20697(85)
_cell_length_b                   26.20697(85)
_cell_length_c                   6.64670(23)
_cell_angle_alpha                90
_cell_angle_beta                 90
_cell_angle_gamma                120
_cell_volume                     3953.4
loop_
_atom_site_label
_atom_site_type_symbol
_atom_site_fract_x
_atom_site_fract_y
_atom_site_fract_z
C3 C 0.55706(4) 0.54201(6) 0.07374(13)
O3 O 0.60978(3) 0.58605(5) 0.15332(18)
C5 C 0.42089(5) 0.40693(5) 0.25070(16)
C6 C 0.46009(5) 0.45284(7) 0.12320(15)
C8 C 0.51904(4) 0.49370(7) 0.19312(15)
H2 H 0.53140(22) 0.48854(34) 0.32539(83)
Zn2 Zn 0.38792(2) 0.35083(2) 0.65299(7)
Zn4 Zn 0.68416(2) 0.62958(3) 0.01368(7)
Zn5 Zn 0.61208(2) 0.64917(2) 0.34701(7)
Zn7 Zn 0.29624(3) 0.27875(2) 0.31966(7)
O5 O 0.43923(6) 0.39929(5) 0.41812(15)
O6 O 0.37241(4) 0.36644(4) 0.18138(22)
O9 O 0.30023(4) 0.33930(6) 0.51471(22)
O10 O 0.32736(6) 0.29426(4) 0.84805(22)
O14 O 0.39022(3) 0.41395(5) 0.84668(18)
O15 O 0.35706(6) 0.27645(3) 0.51335(18)
O16 O 0.45374(9) 0.33765(10) 0.80497(27)
C1 C 0.57911(5) 0.59307(5) 0.74930(16)
C2 C 0.53991(5) 0.54716(7) 0.87680(15)
C4 C 0.48096(4) 0.50630(7) 0.80688(15)
H1 H 0.46860(22) 0.51146(34) 0.67461(83)
O1 O 0.56077(6) 0.60071(5) 0.58188(15)
O2 O 0.62759(4) 0.63356(4) 0.81862(22)
O4 O 0.54626(9) 0.66235(10) 0.19503(27)
C7 C 0.44294(4) 0.45799(6) 0.92626(13)
Zn3 Zn 0.70376(3) 0.72125(2) 0.68034(7)
Zn6 Zn 0.31584(2) 0.37042(3) 0.98632(7)
O7 O 0.67264(6) 0.70574(4) 0.15195(22)
O8 O 0.69977(4) 0.66070(6) 0.48529(22)
O13 O 0.64294(6) 0.72355(3) 0.48665(18)
Zn3_2 Zn 0.03709(3) 0.38792(2) 0.34701(7)
Zn4_2 Zn 0.01750(2) 0.29624(3) 0.68034(7)
O8_2 O 0.03311(4) 0.32736(6) 0.15195(22)
O7_2 O 0.00597(6) 0.37241(4) 0.81862(22)
Zn2_2 Zn 0.72125(2) 0.01750(2) 0.31966(7)
Zn5_2 Zn 0.94541(2) 0.31584(2) 0.01368(7)
O5_2 O 0.77256(6) 0.06596(5) 0.08479(15)
O9_2 O 0.63356(4) 0.00597(6) 0.18138(22)
O14_2 O 0.72355(3) 0.08062(5) 0.51335(18)
O16_2 O 0.78707(9) 0.00432(10) 0.47164(27)
H5 H 0.821246 0.0431352 0.508535
C1_2 C 0.91244(5) 0.25974(5) 0.41597(16)
C2_2 C 0.87324(5) 0.21383(7) 0.54347(15)
C3_2 C 0.89039(4) 0.20868(6) 0.74041(13)
C4_2 C 0.81429(4) 0.17297(7) 0.47355(15)
H1_2 H 0.80193(22) 0.17813(34) 0.34128(83)
O1_2 O 0.89410(6) 0.26738(5) 0.24855(15)
O2_2 O 0.96092(4) 0.30023(4) 0.48529(22)
O3_2 O 0.94311(3) 0.25272(5) 0.81999(18)
C5_2 C 0.75422(5) 0.07360(5) 0.91737(16)
C6_2 C 0.79342(5) 0.11951(7) 0.78987(15)
C7_2 C 0.77627(4) 0.12466(6) 0.59293(13)
C8_2 C 0.85237(4) 0.16037(7) 0.85979(15)
H2_2 H 0.86473(22) 0.15521(34) 0.99206(83)
Zn6_2 Zn 0.64917(2) 0.03709(3) 0.65299(7)
O6_2 O 0.70574(4) 0.03311(4) 0.84805(22)
O13_2 O 0.97627(6) 0.39022(3) 0.15332(18)
O4_2 O 0.87959(9) 0.32902(10) 0.86170(27)
O10_2 O 0.66070(6) 0.96092(4) 0.51471(22)
O15_2 O 0.69040(6) 0.94311(3) 0.18001(18)
H6 H 0.769721 0.980582 0.595263
Zn7_2 Zn 0.62958(3) 0.94541(2) 0.98632(7)
Zn3_3 Zn 0.37042(3) 0.05459(2) 0.01368(7)
O7_3 O 0.33930(6) 0.03908(4) 0.48529(22)
O13_3 O 0.30960(6) 0.05689(3) 0.81999(18)
H3 H 0.199634 0.0167967 0.619357
H4 H 0.230279 0.0194184 0.404737
O14_3 O 0.05689(3) 0.74728(5) 0.18001(18)
O16_3 O 0.12041(9) 0.67098(10) 0.13830(27)
C1_3 C 0.24578(5) 0.92640(5) 0.08263(16)
C2_3 C 0.20658(5) 0.88049(7) 0.21013(15)
C3_3 C 0.22373(4) 0.87534(6) 0.40707(13)
C4_3 C 0.14763(4) 0.83963(7) 0.14021(15)
H1_3 H 0.13527(22) 0.84479(34) 0.00794(83)
O2_3 O 0.29426(4) 0.96689(4) 0.15195(22)
O3_3 O 0.27645(3) 0.91938(5) 0.48665(18)
C5_3 C 0.08756(5) 0.74026(5) 0.58403(16)
C6_3 C 0.12676(5) 0.78617(7) 0.45653(15)
C7_3 C 0.10961(4) 0.79132(6) 0.25959(13)
C8_3 C 0.18571(4) 0.82703(7) 0.52645(15)
H2_3 H 0.19807(22) 0.82187(34) 0.65872(83)
Zn2_3 Zn 0.05459(2) 0.68416(2) 0.98632(7)
Zn4_3 Zn 0.35083(2) 0.96291(3) 0.34701(7)
Zn5_3 Zn 0.27875(2) 0.98250(2) 0.68034(7)
O5_3 O 0.10590(6) 0.73262(5) 0.75145(15)
O6_3 O 0.03908(4) 0.69977(4) 0.51471(22)
O15_3 O 0.02373(6) 0.60978(3) 0.84668(18)
O1_3 O 0.22744(6) 0.93404(5) 0.91521(15)
O4_3 O 0.21293(9) 0.99568(10) 0.52836(27)
O8_3 O 0.36644(4) 0.99403(6) 0.81862(22)
O10_3 O 0.99403(6) 0.62759(4) 0.18138(22)
Zn6_3 Zn 0.98250(2) 0.70376(3) 0.31966(7)
Zn7_3 Zn 0.96291(3) 0.61208(2) 0.65299(7)
O9_3 O 0.96689(4) 0.67264(6) 0.84805(22)
C3_4 C 0.45799(6) 0.01505(7) 0.07374(13)
O3_4 O 0.41395(5) 0.02373(6) 0.15332(18)
C5_4 C 0.59307(5) 0.01396(7) 0.25070(16)
C6_4 C 0.54716(7) 0.00725(9) 0.12320(15)
C8_4 C 0.50630(7) 0.02534(8) 0.19312(15)
H2_4 H 0.51146(34) 0.04286(40) 0.32539(83)
O5_4 O 0.60071(5) 0.03994(8) 0.41812(15)
O16_4 O 0.66235(10) 0.11609(13) 0.80497(27)
O14_4 O 0.58605(5) 0.97627(6) 0.84668(18)
C1_4 C 0.40693(5) 0.98604(7) 0.74930(16)
C2_4 C 0.45284(7) 0.99275(9) 0.87680(15)
C4_4 C 0.49370(7) 0.97466(8) 0.80688(15)
H1_4 H 0.48854(34) 0.95714(40) 0.67461(83)
O1_4 O 0.39929(5) 0.96006(8) 0.58188(15)
O4_4 O 0.33765(10) 0.88391(13) 0.19503(27)
C7_4 C 0.54201(6) 0.98495(7) 0.92626(13)
C1_5 C 0.01396(7) 0.42089(5) 0.74930(16)
C2_5 C 0.00725(9) 0.46009(5) 0.87680(15)
C4_5 C 0.02534(8) 0.51904(4) 0.80688(15)
H1_5 H 0.04286(40) 0.53140(22) 0.67461(83)
O1_5 O 0.03994(8) 0.43923(6) 0.58188(15)
O4_5 O 0.11609(13) 0.45374(9) 0.19503(27)
C7_5 C 0.01505(7) 0.55706(4) 0.92626(13)
O13_4 O 0.08062(7) 0.35706(6) 0.48665(18)
C3_5 C 0.98495(7) 0.44294(4) 0.07374(13)
C5_5 C 0.98604(7) 0.57911(5) 0.25070(16)
C6_5 C 0.99275(9) 0.53991(5) 0.12320(15)
C8_5 C 0.97466(8) 0.48096(4) 0.19312(15)
H2_5 H 0.95714(40) 0.46860(22) 0.32539(83)
O5_5 O 0.96006(8) 0.56077(6) 0.41812(15)
O15_4 O 0.91938(7) 0.64294(6) 0.51335(18)
O16_5 O 0.88391(13) 0.54626(9) 0.80497(27)
O14_5 O 0.25272(5) 0.30960(6) 0.18001(18)
O16_6 O 0.32902(10) 0.44942(13) 0.13830(27)
C1_6 C 0.07360(5) 0.31937(7) 0.08263(16)
C2_6 C 0.11951(7) 0.32608(9) 0.21013(15)
C3_6 C 0.12466(6) 0.34838(7) 0.40707(13)
C4_6 C 0.16037(7) 0.30799(8) 0.14021(15)
H1_6 H 0.15521(34) 0.29047(40) 0.00794(83)
C5_6 C 0.25974(5) 0.34729(7) 0.58403(16)
C6_6 C 0.21383(7) 0.34058(9) 0.45653(15)
C7_6 C 0.20868(6) 0.31828(7) 0.25959(13)
C8_6 C 0.17297(7) 0.35867(8) 0.52645(15)
H2_6 H 0.17813(34) 0.37619(40) 0.65872(83)
O5_6 O 0.26738(5) 0.37327(8) 0.75145(15)
O1_6 O 0.06596(5) 0.29339(8) 0.91521(15)
O4_6 O 0.00432(10) 0.21724(13) 0.52836(27)
H3_2 H 0.983203 0.182838 0.619357
H4_2 H 0.980582 0.210861 0.404737
O16_7 O 0.55058(13) 0.87959(9) 0.13830(27)
C1_7 C 0.68063(7) 0.75422(5) 0.08263(16)
C2_7 C 0.67392(9) 0.79342(5) 0.21013(15)
C3_7 C 0.65162(7) 0.77627(4) 0.40707(13)
C4_7 C 0.69201(8) 0.85237(4) 0.14021(15)
H1_7 H 0.70953(40) 0.86473(22) 0.00794(83)
C5_7 C 0.65271(7) 0.91244(5) 0.58403(16)
C6_7 C 0.65942(9) 0.87324(5) 0.45653(15)
C7_7 C 0.68172(7) 0.89039(4) 0.25959(13)
C8_7 C 0.64133(8) 0.81429(4) 0.52645(15)
H2_7 H 0.62381(40) 0.80193(22) 0.65872(83)
O5_7 O 0.62673(8) 0.89410(6) 0.75145(15)
O1_7 O 0.70661(8) 0.77256(6) 0.91521(15)
O4_7 O 0.78276(13) 0.78707(9) 0.52836(27)
O13_5 O 0.74728(7) 0.69040(6) 0.81999(18)
H6_2 H 0.0194184 0.789139 0.595263
O5_8 O 0.93404(5) 0.70661(8) 0.08479(15)
O16_8 O 0.99568(10) 0.78276(13) 0.47164(27)
H5_2 H 0.956865 0.778111 0.508535
C1_8 C 0.74026(5) 0.65271(7) 0.41597(16)
C2_8 C 0.78617(7) 0.65942(9) 0.54347(15)
C3_8 C 0.79132(6) 0.68172(7) 0.74041(13)
C4_8 C 0.82703(7) 0.64133(8) 0.47355(15)
H1_8 H 0.82187(34) 0.62381(40) 0.34128(83)
O1_8 O 0.73262(5) 0.62673(8) 0.24855(15)
C5_8 C 0.92640(5) 0.68063(7) 0.91737(16)
C6_8 C 0.88049(7) 0.67392(9) 0.78987(15)
C7_8 C 0.87534(6) 0.65162(7) 0.59293(13)
C8_8 C 0.83963(7) 0.69201(8) 0.85979(15)
H2_8 H 0.84479(34) 0.70953(40) 0.99206(83)
O4_8 O 0.67098(10) 0.55058(13) 0.86170(27)
O5_9 O 0.29339(8) 0.22744(6) 0.08479(15)
O16_9 O 0.21724(13) 0.21293(9) 0.47164(27)
C1_9 C 0.34729(7) 0.08756(5) 0.41597(16)
C2_9 C 0.34058(9) 0.12676(5) 0.54347(15)
C3_9 C 0.31828(7) 0.10961(4) 0.74041(13)
C4_9 C 0.35867(8) 0.18571(4) 0.47355(15)
H1_9 H 0.37619(40) 0.19807(22) 0.34128(83)
O1_9 O 0.37327(8) 0.10590(6) 0.24855(15)
C5_9 C 0.31937(7) 0.24578(5) 0.91737(16)
C6_9 C 0.32608(9) 0.20658(5) 0.78987(15)
C7_9 C 0.34838(7) 0.22373(4) 0.59293(13)
C8_9 C 0.30799(8) 0.14763(4) 0.85979(15)
H2_9 H 0.29047(40) 0.13527(22) 0.99206(83)
O4_9 O 0.44942(13) 0.12041(9) 0.86170(27)
H5_3 H 0.178754 0.956865 0.491465
H3_3 H 0.800366 0.983203 0.380643
H3_4 H 0.0167967 0.817162 0.380643
H5_4 H 0.0431352 0.221889 0.491465
loop_
_geom_bond_atom_site_label_1
_geom_bond_atom_site_label_2
_geom_bond_site_symmetry_1
_geom_bond_site_symmetry_2
C3 O3 1_555 1_555
O3 Zn4 1_555 1_555
C5 C6 1_555 1_555
C8 C3 1_555 1_555
H2 C8 1_555 1_555
Zn2 O5 1_555 1_555
Zn5 O3 1_555 1_555
Zn7 O6 1_555 1_555
O5 C5 1_555 1_555
O6 C5 1_555 1_555
O9 Zn2 1_555 1_555
O10 Zn2 1_555 1_555
O14 Zn2 1_555 1_555
O15 Zn2 1_555 1_555
O16 Zn2 1_555 1_555
C6 C8 1_555 1_555
Zn7 O9 1_555 1_555
Zn7 O15 1_555 1_555
C1 C2 1_555 1_555
C4 C2 1_555 1_555
H1 C4 1_555 1_555
Zn5 O1 1_555 1_555
O1 C1 1_555 1_555
O2 C1 1_555 1_555
O4 Zn5 1_555 1_555
C7 C4 1_555 1_555
Zn3 O2 1_555 1_555
O7 Zn5 1_555 1_555
O8 Zn5 1_555 1_555
O14 C7 1_555 1_555
O13 Zn5 1_555 1_555
Zn3 O8 1_555 1_555
Zn3 O13 1_555 1_555
Zn6 O14 1_555 1_555
Zn3_2 O8_2 1_555 1_555
Zn2_2 O5_2 1_555 1_555
O9_2 Zn2_2 1_555 1_555
O14_2 Zn2_2 1_555 1_555
O16_2 Zn2_2 1_555 1_555
O16_2 H5 1_555 1_555
C1_2 C2_2 1_555 1_555
C2_2 C3_2 1_555 1_555
C3_2 O3_2 1_555 1_555
C4_2 C2_2 1_555 1_555
H1_2 C4_2 1_555 1_555
Zn5_2 O1_2 1_555 1_555
O1_2 C1_2 1_555 1_555
O2_2 C1_2 1_555 1_555
C5_2 C6_2 1_555 1_555
C6_2 C7_2 1_555 1_555
C7_2 C4_2 1_555 1_555
C8_2 C3_2 1_555 1_555
H2_2 C8_2 1_555 1_555
Zn6_2 O6_2 1_555 1_555
O6_2 C5_2 1_555 1_555
O14_2 C7_2 1_555 1_555
O13_2 Zn5_2 1_555 1_555
C6_2 C8_2 1_555 1_555
Zn6_2 O14_2 1_555 1_555
C1_3 C2_3 1_555 1_555
C2_3 C3_3 1_555 1_555
C3_3 O3_3 1_555 1_555
C4_3 C2_3 1_555 1_555
H1_3 C4_3 1_555 1_555
O2_3 C1_3 1_555 1_555
O3_3 Zn4_3 1_555 1_555
C5_3 C6_3 1_555 1_555
C6_3 C7_3 1_555 1_555
C7_3 C4_3 1_555 1_555
C8_3 C3_3 1_555 1_555
H2_3 C8_3 1_555 1_555
Zn2_3 O5_3 1_555 1_555
Zn4_3 O2_3 1_555 1_555
Zn5_3 O3_3 1_555 1_555
O5_3 C5_3 1_555 1_555
O6_3 C5_3 1_555 1_555
O14_3 C7_3 1_555 1_555
O15_3 Zn2_3 1_555 1_555
C6_3 C8_3 1_555 1_555
Zn5_3 O1_3 1_555 1_555
O4_3 Zn5_3 1_555 1_555
O8_3 Zn5_3 1_555 1_555
Zn7_3 O9_3 1_555 1_555
C3_4 O3_4 1_555 1_555
O3_4 Zn3_3 1_555 1_555
C5_4 C6_4 1_555 1_555
C8_4 C3_4 1_555 1_555
H2_4 C8_4 1_555 1_555
Zn6_2 O5_4 1_555 1_555
O5_4 C5_4 1_555 1_555
O9_2 C5_4 1_555 1_555
O16_4 Zn6_2 1_555 1_555
C6_4 C8_4 1_555 1_555
C1_4 C2_4 1_555 1_555
C4_4 C2_4 1_555 1_555
H1_4 C4_4 1_555 1_555
Zn4_3 O1_4 1_555 1_555
O1_4 C1_4 1_555 1_555
O8_3 C1_4 1_555 1_555
O4_4 Zn4_3 1_555 1_555
C7_4 C4_4 1_555 1_555
O14_4 C7_4 1_555 1_555
Zn7_2 O14_4 1_555 1_555
C1_5 C2_5 1_555 1_555
C4_5 C2_5 1_555 1_555
H1_5 C4_5 1_555 1_555
Zn3_2 O1_5 1_555 1_555
O1_5 C1_5 1_555 1_555
O7_2 C1_5 1_555 1_555
O4_5 Zn3_2 1_555 1_555
C7_5 C4_5 1_555 1_555
Zn4_2 O7_2 1_555 1_555
O15_3 C7_5 1_555 1_555
O13_4 Zn3_2 1_555 1_555
Zn4_2 O13_4 1_555 1_555
C3_5 O13_2 1_555 1_555
C5_5 C6_5 1_555 1_555
C8_5 C3_5 1_555 1_555
H2_5 C8_5 1_555 1_555
Zn7_3 O5_5 1_555 1_555
Zn6_3 O10_3 1_555 1_555
O5_5 C5_5 1_555 1_555
O10_3 C5_5 1_555 1_555
O15_4 Zn7_3 1_555 1_555
O16_5 Zn7_3 1_555 1_555
C6_5 C8_5 1_555 1_555
Zn6_3 O15_4 1_555 1_555
C1_6 C2_6 1_555 1_555
C2_6 C3_6 1_555 1_555
C3_6 O13_4 1_555 1_555
C4_6 C2_6 1_555 1_555
H1_6 C4_6 1_555 1_555
O8_2 C1_6 1_555 1_555
C5_6 C6_6 1_555 1_555
C6_6 C7_6 1_555 1_555
C7_6 C4_6 1_555 1_555
C8_6 C3_6 1_555 1_555
H2_6 C8_6 1_555 1_555
Zn6 O5_6 1_555 1_555
O5_6 C5_6 1_555 1_555
O9 C5_6 1_555 1_555
O10 Zn6 1_555 1_555
O14_5 C7_6 1_555 1_555
C6_6 C8_6 1_555 1_555
Zn7 O14_5 1_555 1_555
Zn4_2 O1_6 1_555 1_555
O4_6 Zn4_2 1_555 1_555
C1_7 C2_7 1_555 1_555
C2_7 C3_7 1_555 1_555
C3_7 O13 1_555 1_555
C4_7 C2_7 1_555 1_555
H1_7 C4_7 1_555 1_555
O7 C1_7 1_555 1_555
C5_7 C6_7 1_555 1_555
C6_7 C7_7 1_555 1_555
C7_7 C4_7 1_555 1_555
C8_7 C3_7 1_555 1_555
H2_7 C8_7 1_555 1_555
Zn7_2 O5_7 1_555 1_555
Zn4 O7 1_555 1_555
O5_7 C5_7 1_555 1_555
O10_2 C5_7 1_555 1_555
O15_2 C7_7 1_555 1_555
C6_7 C8_7 1_555 1_555
Zn3 O1_7 1_555 1_555
O4_7 Zn3 1_555 1_555
O13_5 Zn3 1_555 1_555
Zn6_3 O5_8 1_555 1_555
O16_8 Zn6_3 1_555 1_555
O16_8 H5_2 1_555 1_555
C1_8 C2_8 1_555 1_555
C2_8 C3_8 1_555 1_555
C3_8 O13_5 1_555 1_555
C4_8 C2_8 1_555 1_555
H1_8 C4_8 1_555 1_555
Zn4 O1_8 1_555 1_555
O1_8 C1_8 1_555 1_555
O8 C1_8 1_555 1_555
C5_8 C6_8 1_555 1_555
C6_8 C7_8 1_555 1_555
C7_8 C4_8 1_555 1_555
C8_8 C3_8 1_555 1_555
H2_8 C8_8 1_555 1_555
O9_3 C5_8 1_555 1_555
O15_4 C7_8 1_555 1_555
C6_8 C8_8 1_555 1_555
Zn7 O5_9 1_555 1_555
O16_9 Zn7 1_555 1_555
C1_9 C2_9 1_555 1_555
C2_9 C3_9 1_555 1_555
C3_9 O13_3 1_555 1_555
C4_9 C2_9 1_555 1_555
H1_9 C4_9 1_555 1_555
Zn3_3 O1_9 1_555 1_555
O1_9 C1_9 1_555 1_555
O7_3 C1_9 1_555 1_555
C5_9 C6_9 1_555 1_555
C6_9 C7_9 1_555 1_555
C7_9 C4_9 1_555 1_555
C8_9 C3_9 1_555 1_555
H2_9 C8_9 1_555 1_555
O10 C5_9 1_555 1_555
O15 C7_9 1_555 1_555
C6_9 C8_9 1_555 1_555
O4_3 H5_3 1_555 1_555
O4_6 H5_4 1_555 1_555

#END
