
###############################################################################
#
# This file contains modified crystal structure data generated from the
# MOF subset of the Cambridge Structural Database (CSD) v543 
# hosted by the Cambridge Crystallographic Data Centre (CCDC).
#
# This work is licensed under the Creative Commons
# Attribution-NonCommercial-ShareAlike 4.0 International License.
# To view a copy of this license, visit
# http://creativecommons.org/licenses/by-nc-sa/4.0/
# or send a letter to
# Creative Commons, PO Box 1866, Mountain View, CA 94042, USA.
#
# CIF created using the CSD Python API on 29 September 2022
# The structure has been converted into the P1 space group
# The structure has a 3D framework
# The original CSD entry WOBHIF is in the rhombohedral crystal system
# The framework has been calculated to contain at least 10.0% void space
# The void calculation uses a probe of radius 1.32A, grid spacing 0.4
#
###############################################################################

data_WOBHIF
_chemical_formula_moiety         '(C72 H18 O48 Zn10)n'
_symmetry_cell_setting           triclinic
_symmetry_space_group_name_H-M   'P 1'
_symmetry_Int_Tables_number      1
_space_group_name_Hall           'P 1'
loop_
_symmetry_equiv_pos_site_id
_symmetry_equiv_pos_as_xyz
1 x,y,z
_cell_length_a                   25.87(4)
_cell_length_b                   25.87(4)
_cell_length_c                   6.628(19)
_cell_angle_alpha                90
_cell_angle_beta                 90
_cell_angle_gamma                120
_cell_volume                     3841.55
loop_
_atom_site_label
_atom_site_type_symbol
_atom_site_fract_x
_atom_site_fract_y
_atom_site_fract_z
Zn3 Zn 0.02904(11) 0.64698(16) 0.3543(4)
O6 O 0.0583(8) 0.3116(6) 0.177(2)
O10 O 0.0018(7) 0.3719(6) 0.219(2)
O11 O 0.0386(6) 0.7034(9) 0.114(2)
O2 O 0.0345(6) 0.5940(7) 0.560(2)
C2 C 0.0052(10) 0.5448(9) 0.878(4)
C4 C 0.0160(9) 0.5912(9) 0.734(4)
Zn2 Zn 0.04872(11) 0.36237(11) 0.9790(4)
Zn5 Zn 0.01968(16) 0.71539(11) 0.6877(4)
O4 O 0.0217(6) 0.4133(5) 0.844(2)
O9 O 0.1072(9) 0.3678(6) 0.773(2)
C5 C 0.0173(8) 0.5005(11) 0.808(3)
H2 H 0.0302 0.5023 0.6757
C7 C 0.0107(9) 0.4556(9) 0.928(5)
Zn1 Zn 0.95128(11) 0.63763(11) 0.0210(4)
O1 O 0.9783(6) 0.5867(5) 0.156(2)
C1 C 0.9827(8) 0.4995(11) 0.192(3)
H1 H 0.9698 0.4977 0.3243
C3 C 0.9893(9) 0.5444(9) 0.072(5)
Zn7 Zn 0.97096(11) 0.35302(16) 0.6457(4)
Zn8 Zn 0.98032(16) 0.28461(11) 0.3123(4)
O7 O 0.9655(6) 0.4060(7) 0.440(2)
O8 O 0.8928(9) 0.6322(6) 0.227(2)
C6 C 0.9948(10) 0.4552(9) 0.122(4)
C8 C 0.9840(9) 0.4088(9) 0.266(4)
O3 O 0.9982(7) 0.6281(6) 0.781(2)
O5 O 0.9417(8) 0.6884(6) 0.823(2)
O12 O 0.9614(6) 0.2966(9) 0.886(2)
Zn1_2 Zn 0.36237(11) 0.31365(16) 0.0210(4)
O1_2 O 0.4133(5) 0.3916(8) 0.156(2)
C1_2 C 0.5005(11) 0.4832(14) 0.192(3)
H1_2 H 0.5023 0.4721 0.3243
C3_2 C 0.4556(9) 0.4449(13) 0.072(5)
Zn3_2 Zn 0.35302(16) 0.38205(19) 0.3543(4)
Zn7_2 Zn 0.64698(16) 0.61795(19) 0.6457(4)
Zn8_2 Zn 0.71539(11) 0.69570(19) 0.3123(4)
O6_2 O 0.6884(6) 0.7466(10) 0.177(2)
O7_2 O 0.5940(7) 0.5595(9) 0.440(2)
O8_2 O 0.3678(6) 0.2607(11) 0.227(2)
O10_2 O 0.6281(6) 0.6299(9) 0.219(2)
O11_2 O 0.2966(9) 0.3351(11) 0.114(2)
C6_2 C 0.5448(9) 0.5396(13) 0.122(4)
C8_2 C 0.5912(9) 0.5752(13) 0.266(4)
O2_2 O 0.4060(7) 0.4405(9) 0.560(2)
O3_2 O 0.3719(6) 0.3701(9) 0.781(2)
C2_2 C 0.4552(9) 0.4604(13) 0.878(4)
C4_2 C 0.4088(9) 0.4248(13) 0.734(4)
Zn2_2 Zn 0.63763(11) 0.68635(16) 0.9790(4)
Zn5_2 Zn 0.28461(11) 0.30430(19) 0.6877(4)
O4_2 O 0.5867(5) 0.6084(8) 0.844(2)
O5_2 O 0.3116(6) 0.2534(10) 0.823(2)
O9_2 O 0.6322(6) 0.7393(11) 0.773(2)
O12_2 O 0.7034(9) 0.6649(11) 0.886(2)
C5_2 C 0.4995(11) 0.5168(14) 0.808(3)
H2_2 H 0.4977 0.5279 0.6757
C7_2 C 0.5444(9) 0.5551(13) 0.928(5)
Zn1_3 Zn 0.68635(16) 0.04872(11) 0.0210(4)
O1_3 O 0.6084(8) 0.0217(6) 0.156(2)
C1_3 C 0.5168(14) 0.0173(8) 0.192(3)
H1_3 H 0.5279 0.0302 0.3243
C3_3 C 0.5551(13) 0.0107(9) 0.072(5)
Zn7_3 Zn 0.38205(19) 0.02904(11) 0.6457(4)
Zn8_3 Zn 0.30430(19) 0.01968(16) 0.3123(4)
O7_3 O 0.4405(9) 0.0345(6) 0.440(2)
O8_3 O 0.7393(11) 0.1072(9) 0.227(2)
C6_3 C 0.4604(13) 0.0052(10) 0.122(4)
C8_3 C 0.4248(13) 0.0160(9) 0.266(4)
O3_3 O 0.6299(9) 0.0018(7) 0.781(2)
O5_3 O 0.7466(10) 0.0583(8) 0.823(2)
O12_3 O 0.3351(11) 0.0386(6) 0.886(2)
Zn3_3 Zn 0.61795(19) 0.97096(11) 0.3543(4)
O6_3 O 0.2534(10) 0.9417(8) 0.177(2)
O10_3 O 0.3701(9) 0.9982(7) 0.219(2)
O11_3 O 0.6649(11) 0.9614(6) 0.114(2)
O2_3 O 0.5595(9) 0.9655(6) 0.560(2)
C2_3 C 0.5396(13) 0.9948(10) 0.878(4)
C4_3 C 0.5752(13) 0.9840(9) 0.734(4)
Zn2_3 Zn 0.31365(16) 0.95128(11) 0.9790(4)
Zn5_3 Zn 0.69570(19) 0.98032(16) 0.6877(4)
O4_3 O 0.3916(8) 0.9783(6) 0.844(2)
O9_3 O 0.2607(11) 0.8928(9) 0.773(2)
C5_3 C 0.4832(14) 0.9827(8) 0.808(3)
H2_3 H 0.4721 0.9698 0.6757
C7_3 C 0.4449(13) 0.9893(9) 0.928(5)
O11_4 O 0.7052(6) 0.0368(9) 0.448(2)
O1_4 O 0.6450(6) 0.9200(5) 0.489(2)
C1_4 C 0.6494(8) 0.8328(11) 0.525(3)
H1_4 H 0.6365 0.8310 0.6576
C2_4 C 0.6719(10) 0.8781(9) 0.211(4)
C3_4 C 0.6560(9) 0.8777(9) 0.405(5)
C4_4 C 0.6827(9) 0.9245(9) 0.067(4)
O6_4 O 0.7249(8) 0.6450(6) 0.511(2)
O9_4 O 0.7738(9) 0.7012(6) 0.107(2)
O10_4 O 0.6685(7) 0.7052(6) 0.552(2)
C5_4 C 0.6840(8) 0.8338(11) 0.141(3)
H2_4 H 0.6969 0.8356 0.0090
C6_4 C 0.6615(10) 0.7885(9) 0.455(4)
C7_4 C 0.6774(9) 0.7889(9) 0.261(5)
C8_4 C 0.6507(9) 0.7421(9) 0.599(4)
O2_4 O 0.7012(6) 0.9273(7) 0.893(2)
O6_5 O 0.3550(6) 0.0800(10) 0.511(2)
O9_5 O 0.2988(6) 0.0727(11) 0.107(2)
O1_5 O 0.0800(5) 0.7249(8) 0.489(2)
C1_5 C 0.1672(11) 0.8165(14) 0.525(3)
H1_5 H 0.1690 0.8054 0.6576
C2_5 C 0.1219(9) 0.7937(13) 0.211(4)
C3_5 C 0.1223(9) 0.7782(13) 0.405(5)
C4_5 C 0.0755(9) 0.7581(13) 0.067(4)
O10_5 O 0.2948(6) 0.9632(9) 0.552(2)
C5_5 C 0.1662(11) 0.8501(14) 0.141(3)
H2_5 H 0.1644 0.8612 0.0090
C6_5 C 0.2115(9) 0.8729(13) 0.455(4)
C7_5 C 0.2111(9) 0.8884(13) 0.261(5)
C8_5 C 0.2579(9) 0.9085(13) 0.599(4)
O2_5 O 0.0727(7) 0.7738(9) 0.893(2)
O11_5 O 0.9632(9) 0.6685(11) 0.448(2)
O1_6 O 0.2751(8) 0.3550(6) 0.489(2)
C1_6 C 0.1835(14) 0.3506(8) 0.525(3)
H1_6 H 0.1946 0.3635 0.6576
C2_6 C 0.2063(13) 0.3281(10) 0.211(4)
C3_6 C 0.2218(13) 0.3440(9) 0.405(5)
C4_6 C 0.2419(13) 0.3173(9) 0.067(4)
O10_6 O 0.0368(9) 0.3315(7) 0.552(2)
O11_6 O 0.3315(11) 0.2948(6) 0.448(2)
C5_6 C 0.1499(14) 0.3160(8) 0.141(3)
H2_6 H 0.1388 0.3031 0.0090
C6_6 C 0.1271(13) 0.3385(10) 0.455(4)
C7_6 C 0.1116(13) 0.3226(9) 0.261(5)
C8_6 C 0.0915(13) 0.3493(9) 0.599(4)
O2_6 O 0.2262(9) 0.2988(6) 0.893(2)
O6_6 O 0.9200(10) 0.2751(8) 0.511(2)
O9_6 O 0.9273(11) 0.2262(9) 0.107(2)
C1_7 C 0.3160(8) 0.1662(11) 0.859(3)
H1_7 H 0.3031 0.1644 0.9910
C2_7 C 0.3385(10) 0.2115(9) 0.545(4)
C3_7 C 0.3226(9) 0.2111(9) 0.739(5)
C4_7 C 0.3493(9) 0.2579(9) 0.401(4)
C5_7 C 0.3506(8) 0.1672(11) 0.475(3)
H2_7 H 0.3635 0.1690 0.3424
C6_7 C 0.3281(10) 0.1219(9) 0.789(4)
C7_7 C 0.3440(9) 0.1223(9) 0.595(5)
C8_7 C 0.3173(9) 0.0755(9) 0.933(4)
C1_8 C 0.8338(11) 0.1499(14) 0.859(3)
H1_8 H 0.8356 0.1388 0.9910
C2_8 C 0.7885(9) 0.1271(13) 0.545(4)
C3_8 C 0.7889(9) 0.1116(13) 0.739(5)
C4_8 C 0.7421(9) 0.0915(13) 0.401(4)
C5_8 C 0.8328(11) 0.1835(14) 0.475(3)
H2_8 H 0.8310 0.1946 0.3424
C6_8 C 0.8781(9) 0.2063(13) 0.789(4)
C7_8 C 0.8777(9) 0.2218(13) 0.595(5)
C8_8 C 0.9245(9) 0.2419(13) 0.933(4)
C1_9 C 0.8501(14) 0.6840(8) 0.859(3)
H1_9 H 0.8612 0.6969 0.9910
C2_9 C 0.8729(13) 0.6615(10) 0.545(4)
C3_9 C 0.8884(13) 0.6774(9) 0.739(5)
C4_9 C 0.9085(13) 0.6507(9) 0.401(4)
C5_9 C 0.8165(14) 0.6494(8) 0.475(3)
H2_9 H 0.8054 0.6365 0.3424
C6_9 C 0.7937(13) 0.6719(10) 0.789(4)
C7_9 C 0.7782(13) 0.6560(9) 0.595(5)
C8_9 C 0.7581(13) 0.6827(9) 0.933(4)
loop_
_geom_bond_atom_site_label_1
_geom_bond_atom_site_label_2
_geom_bond_site_symmetry_1
_geom_bond_site_symmetry_2
Zn3 O11 1_555 1_555
O2 C4 1_555 1_555
Zn2 O4 1_555 1_555
Zn3 O2 1_555 1_555
O4 C7 1_555 1_555
O9 Zn2 1_555 1_555
C5 C2 1_555 1_555
H2 C5 1_555 1_555
C7 C5 1_555 1_555
C2 C4 1_555 1_555
Zn1 O1 1_555 1_555
O1 C3 1_555 1_555
C1 H1 1_555 1_555
C3 C1 1_555 1_555
Zn7 O7 1_555 1_555
O7 C8 1_555 1_555
O8 Zn1 1_555 1_555
C6 C1 1_555 1_555
C6 C8 1_555 1_555
Zn7 O12 1_555 1_555
Zn1_2 O1_2 1_555 1_555
O1_2 C3_2 1_555 1_555
C1_2 H1_2 1_555 1_555
C3_2 C1_2 1_555 1_555
Zn3_2 O1_2 1_555 1_555
Zn7_2 O7_2 1_555 1_555
Zn8_2 O6_2 1_555 1_555
O7_2 C8_2 1_555 1_555
O8_2 Zn1_2 1_555 1_555
O11_2 Zn1_2 1_555 1_555
C6_2 C1_2 1_555 1_555
C8_2 O10_2 1_555 1_555
Zn3_2 O11_2 1_555 1_555
Zn8_2 O10_2 1_555 1_555
C6_2 C8_2 1_555 1_555
O2_2 C4_2 1_555 1_555
C4_2 O3_2 1_555 1_555
Zn2_2 O4_2 1_555 1_555
Zn3_2 O2_2 1_555 1_555
Zn5_2 O3_2 1_555 1_555
Zn7_2 O4_2 1_555 1_555
O4_2 C7_2 1_555 1_555
O9_2 Zn2_2 1_555 1_555
O12_2 Zn2_2 1_555 1_555
C5_2 C2_2 1_555 1_555
H2_2 C5_2 1_555 1_555
C7_2 C5_2 1_555 1_555
C2_2 C4_2 1_555 1_555
Zn5_2 O5_2 1_555 1_555
Zn7_2 O12_2 1_555 1_555
Zn1_3 O1_3 1_555 1_555
O1_3 C3_3 1_555 1_555
C1_3 H1_3 1_555 1_555
C3_3 C1_3 1_555 1_555
Zn7_3 O7_3 1_555 1_555
O7_3 C8_3 1_555 1_555
O8_3 Zn1_3 1_555 1_555
C6_3 C1_3 1_555 1_555
C6_3 C8_3 1_555 1_555
Zn7_3 O12_3 1_555 1_555
Zn3_3 O11_3 1_555 1_555
O2_3 C4_3 1_555 1_555
Zn2_3 O4_3 1_555 1_555
Zn3_3 O2_3 1_555 1_555
O4_3 C7_3 1_555 1_555
O9_3 Zn2_3 1_555 1_555
C5_3 C2_3 1_555 1_555
H2_3 C5_3 1_555 1_555
C7_3 C5_3 1_555 1_555
C2_3 C4_3 1_555 1_555
Zn3_3 O1_4 1_555 1_555
O1_4 C3_4 1_555 1_555
C1_4 H1_4 1_555 1_555
C2_4 C3_4 1_555 1_555
C3_4 C1_4 1_555 1_555
C4_4 O11_3 1_555 1_555
Zn5_3 O1_4 1_555 1_555
Zn7_2 O6_4 1_555 1_555
O6_2 C7_4 1_555 1_555
O6_4 Zn8_2 1_555 1_555
O9_2 C8_4 1_555 1_555
O9_4 Zn8_2 1_555 1_555
O10_4 Zn8_2 1_555 1_555
C5_4 C2_4 1_555 1_555
H2_4 C5_4 1_555 1_555
C6_4 C1_4 1_555 1_555
C7_4 C5_4 1_555 1_555
C8_4 O10_4 1_555 1_555
C2_4 C4_4 1_555 1_555
Zn7_2 O10_4 1_555 1_555
C6_4 C7_4 1_555 1_555
C6_4 C8_4 1_555 1_555
Zn5_3 O2_4 1_555 1_555
Zn7_3 O6_5 1_555 1_555
O6_5 Zn8_3 1_555 1_555
O9_5 Zn8_3 1_555 1_555
Zn3 O1_5 1_555 1_555
O1_5 C3_5 1_555 1_555
C1_5 H1_5 1_555 1_555
C2_5 C3_5 1_555 1_555
C3_5 C1_5 1_555 1_555
C4_5 O11 1_555 1_555
Zn5 O1_5 1_555 1_555
O6_3 C7_5 1_555 1_555
O9_3 C8_5 1_555 1_555
C5_5 C2_5 1_555 1_555
H2_5 C5_5 1_555 1_555
C6_5 C1_5 1_555 1_555
C7_5 C5_5 1_555 1_555
C8_5 O10_5 1_555 1_555
C2_5 C4_5 1_555 1_555
C6_5 C7_5 1_555 1_555
C6_5 C8_5 1_555 1_555
Zn5 O2_5 1_555 1_555
Zn3_2 O1_6 1_555 1_555
O1_6 C3_6 1_555 1_555
C1_6 H1_6 1_555 1_555
C2_6 C3_6 1_555 1_555
C3_6 C1_6 1_555 1_555
C4_6 O11_2 1_555 1_555
Zn5_2 O1_6 1_555 1_555
O6 C7_6 1_555 1_555
O9 C8_6 1_555 1_555
O11_6 Zn3_2 1_555 1_555
C5_6 C2_6 1_555 1_555
H2_6 C5_6 1_555 1_555
C6_6 C1_6 1_555 1_555
C7_6 C5_6 1_555 1_555
C8_6 O10_6 1_555 1_555
C2_6 C4_6 1_555 1_555
Zn5_2 O11_6 1_555 1_555
C6_6 C7_6 1_555 1_555
C6_6 C8_6 1_555 1_555
Zn5_2 O2_6 1_555 1_555
Zn7 O6_6 1_555 1_555
O6_6 Zn8 1_555 1_555
O9_6 Zn8 1_555 1_555
O5_2 C3_7 1_555 1_555
O8_2 C4_7 1_555 1_555
C1_7 H1_7 1_555 1_555
C2_7 C3_7 1_555 1_555
C3_7 C1_7 1_555 1_555
C4_7 O11_6 1_555 1_555
O6_5 C7_7 1_555 1_555
C5_7 C2_7 1_555 1_555
H2_7 C5_7 1_555 1_555
C6_7 C1_7 1_555 1_555
C7_7 C5_7 1_555 1_555
C8_7 O12_3 1_555 1_555
C2_7 C4_7 1_555 1_555
C6_7 C7_7 1_555 1_555
C6_7 C8_7 1_555 1_555
O5_3 C3_8 1_555 1_555
O8_3 C4_8 1_555 1_555
C1_8 H1_8 1_555 1_555
C2_8 C3_8 1_555 1_555
C3_8 C1_8 1_555 1_555
C4_8 O11_4 1_555 1_555
O6_6 C7_8 1_555 1_555
C5_8 C2_8 1_555 1_555
H2_8 C5_8 1_555 1_555
C6_8 C1_8 1_555 1_555
C7_8 C5_8 1_555 1_555
C8_8 O12 1_555 1_555
C2_8 C4_8 1_555 1_555
C6_8 C7_8 1_555 1_555
C6_8 C8_8 1_555 1_555
O5 C3_9 1_555 1_555
O8 C4_9 1_555 1_555
C1_9 H1_9 1_555 1_555
C2_9 C3_9 1_555 1_555
C3_9 C1_9 1_555 1_555
C4_9 O11_5 1_555 1_555
O6_4 C7_9 1_555 1_555
C5_9 C2_9 1_555 1_555
H2_9 C5_9 1_555 1_555
C6_9 C1_9 1_555 1_555
C7_9 C5_9 1_555 1_555
C8_9 O12_2 1_555 1_555
C2_9 C4_9 1_555 1_555
C6_9 C7_9 1_555 1_555
C6_9 C8_9 1_555 1_555

#END
