
###############################################################################
#
# This file contains modified crystal structure data generated from the
# MOF subset of the Cambridge Structural Database (CSD) v543 
# hosted by the Cambridge Crystallographic Data Centre (CCDC).
#
# This work is licensed under the Creative Commons
# Attribution-NonCommercial-ShareAlike 4.0 International License.
# To view a copy of this license, visit
# http://creativecommons.org/licenses/by-nc-sa/4.0/
# or send a letter to
# Creative Commons, PO Box 1866, Mountain View, CA 94042, USA.
#
# CIF created using the CSD Python API on 29 September 2022
# The structure has been converted into the P1 space group
# The structure has a 3D framework
# The original CSD entry WOBHEB is in the rhombohedral crystal system
# The framework has been calculated to contain at least 10.0% void space
# The void calculation uses a probe of radius 1.32A, grid spacing 0.4
#
###############################################################################

data_WOBHEB
_chemical_formula_moiety         '(C72 H54 O72 Zn18)n'
_symmetry_cell_setting           triclinic
_symmetry_space_group_name_H-M   'P 1'
_symmetry_Int_Tables_number      1
_space_group_name_Hall           'P 1'
loop_
_symmetry_equiv_pos_site_id
_symmetry_equiv_pos_as_xyz
1 x,y,z
_cell_length_a                   26.259(3)
_cell_length_b                   26.259(3)
_cell_length_c                   6.6693(15)
_cell_angle_alpha                90
_cell_angle_beta                 90
_cell_angle_gamma                120
_cell_volume                     3982.61
loop_
_atom_site_label
_atom_site_type_symbol
_atom_site_fract_x
_atom_site_fract_y
_atom_site_fract_z
Zn1 Zn 0.650552(18) 0.612106(19) 0.65507(6)
C1 C 0.59635(15) 0.57894(15) 0.2615(5)
C2 C 0.54707(15) 0.54048(15) 0.1212(5)
C3 C 0.50280(16) 0.48631(16) 0.1963(5)
O1 O 0.59659(11) 0.55953(11) 0.4335(3)
O2 O 0.63616(11) 0.62866(12) 0.2026(4)
O4 O 0.65782(17) 0.54430(16) 0.8006(5)
H1 H 0.5039(15) 0.4770(15) 0.344(5)
H2 H 0.629(2) 0.5122(16) 0.801(11)
H3 H 0.670(2) 0.549(2) 0.917(4)
Zn4 Zn 0.721227(19) 0.705113(26) 0.32174(6)
Zn7 Zn 0.371779(26) 0.317219(18) 0.01160(6)
Zn8 Zn 0.349448(18) 0.387894(19) 0.34493(6)
C8 C 0.45659(15) 0.44548(15) 0.0822(5)
O7 O 0.65917(16) 0.69717(11) 0.5359(4)
O8 O 0.70467(12) 0.67417(16) 0.8693(4)
O11 O 0.41681(10) 0.39345(10) 0.1710(3)
O12 O 0.58319(10) 0.60655(10) 0.8290(3)
O13 O 0.72678(10) 0.64331(14) 0.4957(3)
C4 C 0.54341(15) 0.55452(15) 0.9178(5)
Zn3 Zn 0.628221(26) 0.682781(18) 0.98840(6)
Zn6 Zn 0.278773(19) 0.294887(26) 0.67826(6)
C5 C 0.40365(15) 0.42106(15) 0.7385(5)
C6 C 0.45293(15) 0.45952(15) 0.8788(5)
C7 C 0.49720(16) 0.51369(16) 0.8037(5)
O5 O 0.40341(11) 0.44047(11) 0.5665(3)
O6 O 0.36384(11) 0.37134(12) 0.7974(4)
O9 O 0.29533(12) 0.32583(16) 0.1307(4)
O10 O 0.34083(16) 0.30283(11) 0.4641(4)
O14 O 0.27322(10) 0.35669(14) 0.5043(3)
O16 O 0.34218(17) 0.45570(16) 0.1994(5)
H4 H 0.4961(15) 0.5230(15) 0.656(5)
H5 H 0.371(2) 0.4878(16) 0.199(11)
H6 H 0.330(2) 0.451(2) 0.083(4)
Zn1_2 Zn 0.387894(19) 0.038446(26) 0.65507(6)
C1_2 C 0.42106(15) 0.01741(21) 0.2615(5)
C2_2 C 0.45952(15) 0.00659(21) 0.1212(5)
C3_2 C 0.51369(16) 0.01649(23) 0.1963(5)
O1_2 O 0.44047(11) 0.03706(16) 0.4335(3)
O2_2 O 0.37134(12) 0.00750(16) 0.2026(4)
O4_2 O 0.45570(16) 0.11352(23) 0.8006(5)
H1_2 H 0.5230(15) 0.0269(21) 0.344(5)
H2_2 H 0.4878(16) 0.1168(26) 0.801(11)
H3_2 H 0.451(2) 0.121(3) 0.917(4)
Zn4_2 Zn 0.294887(26) 0.016115(32) 0.32174(6)
Zn7_2 Zn 0.682781(18) 0.054561(32) 0.01160(6)
C8_2 C 0.55452(15) 0.01111(21) 0.0822(5)
O8_2 O 0.32583(16) 0.03051(20) 0.8693(4)
O11_2 O 0.60655(10) 0.02336(14) 0.1710(3)
O13_2 O 0.35669(14) 0.08348(17) 0.4957(3)
O10_2 O 0.69717(11) 0.03801(19) 0.4641(4)
Zn8_2 Zn 0.612106(19) 0.961554(26) 0.34493(6)
O7_2 O 0.30283(11) 0.96199(19) 0.5359(4)
O12_2 O 0.39345(10) 0.97664(14) 0.8290(3)
C4_2 C 0.44548(15) 0.98889(21) 0.9178(5)
Zn3_2 Zn 0.317219(18) 0.945439(32) 0.98840(6)
Zn6_2 Zn 0.705113(26) 0.983885(32) 0.67826(6)
C5_2 C 0.57894(15) 0.98259(21) 0.7385(5)
C6_2 C 0.54048(15) 0.99341(21) 0.8788(5)
C7_2 C 0.48631(16) 0.98351(23) 0.8037(5)
O5_2 O 0.55953(11) 0.96294(16) 0.5665(3)
O6_2 O 0.62866(12) 0.99250(16) 0.7974(4)
O9_2 O 0.67417(16) 0.96949(20) 0.1307(4)
O14_2 O 0.64331(14) 0.91652(17) 0.5043(3)
O16_2 O 0.54430(16) 0.88648(23) 0.1994(5)
H4_2 H 0.4770(15) 0.9731(21) 0.656(5)
H5_2 H 0.5122(16) 0.8832(26) 0.199(11)
H6_2 H 0.549(2) 0.879(3) 0.083(4)
Zn8_3 Zn 0.038446(26) 0.650552(18) 0.34493(6)
O7_3 O 0.03801(19) 0.34083(16) 0.5359(4)
O12_3 O 0.02336(14) 0.41681(10) 0.8290(3)
C4_3 C 0.01111(21) 0.45659(15) 0.9178(5)
Zn3_3 Zn 0.054561(32) 0.371779(26) 0.98840(6)
Zn6_3 Zn 0.016115(32) 0.721227(19) 0.67826(6)
C5_3 C 0.01741(21) 0.59635(15) 0.7385(5)
C6_3 C 0.00659(21) 0.54707(15) 0.8788(5)
C7_3 C 0.01649(23) 0.50280(16) 0.8037(5)
O5_3 O 0.03706(16) 0.59659(11) 0.5665(3)
O6_3 O 0.00750(16) 0.63616(11) 0.7974(4)
O9_3 O 0.03051(20) 0.70467(12) 0.1307(4)
O14_3 O 0.08348(17) 0.72678(10) 0.5043(3)
O16_3 O 0.11352(23) 0.65782(17) 0.1994(5)
H4_3 H 0.0269(21) 0.5039(15) 0.656(5)
H5_3 H 0.1168(26) 0.629(2) 0.199(11)
H6_3 H 0.121(3) 0.670(2) 0.083(4)
Zn1_3 Zn 0.961554(26) 0.349448(18) 0.65507(6)
C1_3 C 0.98259(21) 0.40365(15) 0.2615(5)
C2_3 C 0.99341(21) 0.45293(15) 0.1212(5)
C3_3 C 0.98351(23) 0.49720(16) 0.1963(5)
O1_3 O 0.96294(16) 0.40341(11) 0.4335(3)
O2_3 O 0.99250(16) 0.36384(11) 0.2026(4)
O4_3 O 0.88648(23) 0.34218(17) 0.8006(5)
H1_3 H 0.9731(21) 0.4961(15) 0.344(5)
H2_3 H 0.8832(26) 0.371(2) 0.801(11)
H3_3 H 0.879(3) 0.330(2) 0.917(4)
Zn4_3 Zn 0.983885(32) 0.278773(19) 0.32174(6)
Zn7_3 Zn 0.945439(32) 0.628221(26) 0.01160(6)
C8_3 C 0.98889(21) 0.54341(15) 0.0822(5)
O8_3 O 0.96949(20) 0.29533(12) 0.8693(4)
O11_3 O 0.97664(14) 0.58319(10) 0.1710(3)
O13_3 O 0.91652(17) 0.27322(10) 0.4957(3)
O10_3 O 0.96199(19) 0.65917(16) 0.4641(4)
O4_4 O 0.32449(17) 0.87763(16) 0.1339(5)
H2_4 H 0.296(2) 0.8455(16) 0.134(11)
H3_4 H 0.337(2) 0.882(2) 0.250(4)
O12_4 O 0.24986(10) 0.93988(10) 0.1623(3)
C1_4 C 0.26302(15) 0.91227(15) 0.5948(5)
C2_4 C 0.21374(15) 0.87381(15) 0.4545(5)
C3_4 C 0.16947(16) 0.81964(16) 0.5296(5)
C4_4 C 0.21008(15) 0.88785(15) 0.2511(5)
O1_4 O 0.26326(11) 0.89286(11) 0.7668(3)
H1_4 H 0.1706(15) 0.8103(15) 0.677(5)
C5_4 C 0.07032(15) 0.75439(15) 0.0718(5)
C6_4 C 0.11960(15) 0.79285(15) 0.2121(5)
C7_4 C 0.16387(16) 0.84702(16) 0.1370(5)
C8_4 C 0.12326(15) 0.77881(15) 0.4155(5)
O5_4 O 0.07008(11) 0.77380(11) 0.8998(3)
O16_4 O 0.00885(17) 0.78903(16) 0.5327(5)
H4_4 H 0.1628(15) 0.8563(15) 0.989(5)
H5_4 H 0.038(2) 0.8211(16) 0.532(11)
O14_4 O 0.93988(10) 0.69003(14) 0.8377(3)
H6_4 H 0.997(2) 0.784(2) 0.416(4)
O4_5 O 0.12237(16) 0.44685(23) 0.1339(5)
H2_5 H 0.1545(16) 0.4501(26) 0.134(11)
H3_5 H 0.118(2) 0.454(3) 0.250(4)
O12_5 O 0.06012(10) 0.30997(14) 0.1623(3)
C1_5 C 0.08773(15) 0.35074(21) 0.5948(5)
C2_5 C 0.12619(15) 0.33992(21) 0.4545(5)
C3_5 C 0.18036(16) 0.34982(23) 0.5296(5)
C4_5 C 0.11215(15) 0.32222(21) 0.2511(5)
O1_5 O 0.10714(11) 0.37039(16) 0.7668(3)
H1_5 H 0.1897(15) 0.3602(21) 0.677(5)
C5_5 C 0.24561(15) 0.31592(21) 0.0718(5)
C6_5 C 0.20715(15) 0.32674(21) 0.2121(5)
C7_5 C 0.15298(16) 0.31684(23) 0.1370(5)
C8_5 C 0.22119(15) 0.34444(21) 0.4155(5)
O5_5 O 0.22620(11) 0.29627(16) 0.8998(3)
O14_5 O 0.30997(14) 0.24986(17) 0.8377(3)
O16_5 O 0.21097(16) 0.21981(23) 0.5327(5)
H4_5 H 0.1437(15) 0.3064(21) 0.989(5)
H5_5 H 0.1789(16) 0.2165(26) 0.532(11)
H6_5 H 0.216(2) 0.212(3) 0.416(4)
O14_6 O 0.75014(17) 0.06012(10) 0.8377(3)
H6_6 H 0.788(3) 0.003(2) 0.416(4)
O4_6 O 0.55315(23) 0.67551(17) 0.1339(5)
H2_6 H 0.5499(26) 0.704(2) 0.134(11)
H3_6 H 0.546(3) 0.663(2) 0.250(4)
O12_6 O 0.69003(14) 0.75014(10) 0.1623(3)
C1_6 C 0.64926(21) 0.73698(15) 0.5948(5)
C2_6 C 0.66008(21) 0.78626(15) 0.4545(5)
C3_6 C 0.65018(23) 0.83053(16) 0.5296(5)
C4_6 C 0.67778(21) 0.78992(15) 0.2511(5)
O1_6 O 0.62961(16) 0.73674(11) 0.7668(3)
H1_6 H 0.6398(21) 0.8294(15) 0.677(5)
C5_6 C 0.68408(21) 0.92968(15) 0.0718(5)
C6_6 C 0.67326(21) 0.88040(15) 0.2121(5)
C7_6 C 0.68316(23) 0.83613(16) 0.1370(5)
C8_6 C 0.65556(21) 0.87674(15) 0.4155(5)
O5_6 O 0.70373(16) 0.92992(11) 0.8998(3)
O16_6 O 0.78019(23) 0.99115(17) 0.5327(5)
H4_6 H 0.6936(21) 0.8372(15) 0.989(5)
H5_6 H 0.7835(26) 0.962(2) 0.532(11)
H3_7 H 0.003(2) 0.216(2) 0.584(4)
O1_7 O 0.92992(11) 0.22620(11) 0.1002(3)
O4_7 O 0.99115(17) 0.21097(16) 0.4673(5)
H1_7 H 0.8372(15) 0.1437(15) 0.011(5)
H2_7 H 0.962(2) 0.1789(16) 0.468(11)
C1_7 C 0.92968(15) 0.24561(15) 0.9282(5)
C2_7 C 0.88040(15) 0.20715(15) 0.7879(5)
C3_7 C 0.83613(16) 0.15298(16) 0.8630(5)
C4_7 C 0.87674(15) 0.22119(15) 0.5845(5)
C5_7 C 0.73698(15) 0.08773(15) 0.4052(5)
C6_7 C 0.78626(15) 0.12619(15) 0.5455(5)
C7_7 C 0.83053(16) 0.18036(16) 0.4704(5)
C8_7 C 0.78992(15) 0.11215(15) 0.7489(5)
O5_7 O 0.73674(11) 0.10714(11) 0.2332(3)
H4_7 H 0.8294(15) 0.1897(15) 0.323(5)
O16_7 O 0.67551(17) 0.12237(16) 0.8661(5)
H5_7 H 0.704(2) 0.1545(16) 0.866(11)
H6_7 H 0.663(2) 0.118(2) 0.750(4)
O1_8 O 0.77380(11) 0.70373(16) 0.1002(3)
O4_8 O 0.78903(16) 0.78019(23) 0.4673(5)
H1_8 H 0.8563(15) 0.6936(21) 0.011(5)
H2_8 H 0.8211(16) 0.7835(26) 0.468(11)
H3_8 H 0.784(2) 0.788(3) 0.584(4)
C1_8 C 0.75439(15) 0.68408(21) 0.9282(5)
C2_8 C 0.79285(15) 0.67326(21) 0.7879(5)
C3_8 C 0.84702(16) 0.68316(23) 0.8630(5)
C4_8 C 0.77881(15) 0.65556(21) 0.5845(5)
C5_8 C 0.91227(15) 0.64926(21) 0.4052(5)
C6_8 C 0.87381(15) 0.66008(21) 0.5455(5)
C7_8 C 0.81964(16) 0.65018(23) 0.4704(5)
C8_8 C 0.88785(15) 0.67778(21) 0.7489(5)
O5_8 O 0.89286(11) 0.62961(16) 0.2332(3)
H4_8 H 0.8103(15) 0.6398(21) 0.323(5)
O16_8 O 0.87763(16) 0.55315(23) 0.8661(5)
H5_8 H 0.8455(16) 0.5499(26) 0.866(11)
H6_8 H 0.882(2) 0.546(3) 0.750(4)
O1_9 O 0.29627(16) 0.07008(11) 0.1002(3)
O4_9 O 0.21981(23) 0.00885(17) 0.4673(5)
H1_9 H 0.3064(21) 0.1628(15) 0.011(5)
H2_9 H 0.2165(26) 0.038(2) 0.468(11)
C1_9 C 0.31592(21) 0.07032(15) 0.9282(5)
C2_9 C 0.32674(21) 0.11960(15) 0.7879(5)
C3_9 C 0.31684(23) 0.16387(16) 0.8630(5)
C4_9 C 0.34444(21) 0.12326(15) 0.5845(5)
C5_9 C 0.35074(21) 0.26302(15) 0.4052(5)
C6_9 C 0.33992(21) 0.21374(15) 0.5455(5)
C7_9 C 0.34982(23) 0.16947(16) 0.4704(5)
C8_9 C 0.32222(21) 0.21008(15) 0.7489(5)
O5_9 O 0.37039(16) 0.26326(11) 0.2332(3)
H4_9 H 0.3602(21) 0.1706(15) 0.323(5)
O16_9 O 0.44685(23) 0.32449(17) 0.8661(5)
H5_9 H 0.4501(26) 0.296(2) 0.866(11)
H6_9 H 0.454(3) 0.337(2) 0.750(4)
H3_9 H 0.212(3) 0.997(2) 0.584(4)
loop_
_geom_bond_atom_site_label_1
_geom_bond_atom_site_label_2
_geom_bond_site_symmetry_1
_geom_bond_site_symmetry_2
Zn1 O1 1_555 1_555
C1 C2 1_555 1_555
C2 C3 1_555 1_555
C3 H1 1_555 1_555
O1 C1 1_555 1_555
O2 C1 1_555 1_555
O4 Zn1 1_555 1_555
H2 O4 1_555 1_555
H3 O4 1_555 1_555
Zn4 O2 1_555 1_555
Zn8 O11 1_555 1_555
C8 C3 1_555 1_555
O7 Zn1 1_555 1_555
O8 Zn1 1_555 1_555
O11 Zn7 1_555 1_555
O12 Zn1 1_555 1_555
O13 Zn1 1_555 1_555
Zn4 O7 1_555 1_555
Zn4 O13 1_555 1_555
C8 O11 1_555 1_555
O12 C4 1_555 1_555
Zn8 O5 1_555 1_555
Zn6 O6 1_555 1_555
C5 C6 1_555 1_555
C6 C7 1_555 1_555
C7 C4 1_555 1_555
O5 C5 1_555 1_555
O6 C5 1_555 1_555
O9 Zn8 1_555 1_555
O10 Zn8 1_555 1_555
O14 Zn8 1_555 1_555
O16 Zn8 1_555 1_555
H4 C7 1_555 1_555
H5 O16 1_555 1_555
H6 O16 1_555 1_555
O12 Zn3 1_555 1_555
Zn6 O10 1_555 1_555
Zn6 O14 1_555 1_555
Zn1_2 O1_2 1_555 1_555
C1_2 C2_2 1_555 1_555
C2_2 C3_2 1_555 1_555
C3_2 H1_2 1_555 1_555
O1_2 C1_2 1_555 1_555
O2_2 C1_2 1_555 1_555
O4_2 Zn1_2 1_555 1_555
H2_2 O4_2 1_555 1_555
H3_2 O4_2 1_555 1_555
Zn4_2 O2_2 1_555 1_555
C8_2 C3_2 1_555 1_555
O8_2 Zn1_2 1_555 1_555
O11_2 Zn7_2 1_555 1_555
O13_2 Zn1_2 1_555 1_555
Zn4_2 O13_2 1_555 1_555
C8_2 O11_2 1_555 1_555
O12_2 C4_2 1_555 1_555
Zn8_2 O5_2 1_555 1_555
Zn6_2 O6_2 1_555 1_555
C5_2 C6_2 1_555 1_555
C6_2 C7_2 1_555 1_555
C7_2 C4_2 1_555 1_555
O5_2 C5_2 1_555 1_555
O6_2 C5_2 1_555 1_555
O9_2 Zn8_2 1_555 1_555
O14_2 Zn8_2 1_555 1_555
O16_2 Zn8_2 1_555 1_555
H4_2 C7_2 1_555 1_555
H5_2 O16_2 1_555 1_555
H6_2 O16_2 1_555 1_555
O12_2 Zn3_2 1_555 1_555
Zn6_2 O14_2 1_555 1_555
O12_3 C4_3 1_555 1_555
Zn8_3 O5_3 1_555 1_555
Zn6_3 O6_3 1_555 1_555
C5_3 C6_3 1_555 1_555
C6_3 C7_3 1_555 1_555
C7_3 C4_3 1_555 1_555
O5_3 C5_3 1_555 1_555
O6_3 C5_3 1_555 1_555
O9_3 Zn8_3 1_555 1_555
O14_3 Zn8_3 1_555 1_555
O16_3 Zn8_3 1_555 1_555
H4_3 C7_3 1_555 1_555
H5_3 O16_3 1_555 1_555
H6_3 O16_3 1_555 1_555
O12_3 Zn3_3 1_555 1_555
Zn6_3 O14_3 1_555 1_555
Zn1_3 O1_3 1_555 1_555
C1_3 C2_3 1_555 1_555
C2_3 C3_3 1_555 1_555
C3_3 H1_3 1_555 1_555
O1_3 C1_3 1_555 1_555
O2_3 C1_3 1_555 1_555
O4_3 Zn1_3 1_555 1_555
H2_3 O4_3 1_555 1_555
H3_3 O4_3 1_555 1_555
Zn4_3 O2_3 1_555 1_555
C8_3 C3_3 1_555 1_555
O8_3 Zn1_3 1_555 1_555
O11_3 Zn7_3 1_555 1_555
O13_3 Zn1_3 1_555 1_555
Zn4_3 O13_3 1_555 1_555
C8_3 O11_3 1_555 1_555
H2_4 O4_4 1_555 1_555
H3_4 O4_4 1_555 1_555
Zn3_2 O1_4 1_555 1_555
C1_4 C2_4 1_555 1_555
C2_4 C3_4 1_555 1_555
C3_4 H1_4 1_555 1_555
C4_4 C2_4 1_555 1_555
O1_4 C1_4 1_555 1_555
O7_2 C1_4 1_555 1_555
O12_4 C4_4 1_555 1_555
C5_4 C6_4 1_555 1_555
C6_4 C7_4 1_555 1_555
C7_4 C4_4 1_555 1_555
C8_4 C3_4 1_555 1_555
O9_3 C5_4 1_555 1_555
C6_4 C8_4 1_555 1_555
C8_4 O14_3 1_555 1_555
Zn6_3 O5_4 1_555 1_555
O16_4 Zn6_3 1_555 1_555
H5_4 O16_4 1_555 1_555
H2_5 O4_5 1_555 1_555
H3_5 O4_5 1_555 1_555
Zn3_3 O1_5 1_555 1_555
C1_5 C2_5 1_555 1_555
C2_5 C3_5 1_555 1_555
C3_5 H1_5 1_555 1_555
C4_5 C2_5 1_555 1_555
O1_5 C1_5 1_555 1_555
O7_3 C1_5 1_555 1_555
O12_5 C4_5 1_555 1_555
Zn7 O9 1_555 1_555
C5_5 C6_5 1_555 1_555
C6_5 C7_5 1_555 1_555
C7_5 C4_5 1_555 1_555
C8_5 C3_5 1_555 1_555
O9 C5_5 1_555 1_555
C6_5 C8_5 1_555 1_555
C8_5 O14 1_555 1_555
Zn6 O5_5 1_555 1_555
O14_5 Zn6 1_555 1_555
O16_5 Zn6 1_555 1_555
H5_5 O16_5 1_555 1_555
H6_5 O16_5 1_555 1_555
H2_6 O4_6 1_555 1_555
H3_6 O4_6 1_555 1_555
Zn3 O1_6 1_555 1_555
C1_6 C2_6 1_555 1_555
C2_6 C3_6 1_555 1_555
C3_6 H1_6 1_555 1_555
C4_6 C2_6 1_555 1_555
O1_6 C1_6 1_555 1_555
O7 C1_6 1_555 1_555
O12_6 C4_6 1_555 1_555
C5_6 C6_6 1_555 1_555
C6_6 C7_6 1_555 1_555
C7_6 C4_6 1_555 1_555
C8_6 C3_6 1_555 1_555
O9_2 C5_6 1_555 1_555
O8 Zn3 1_555 1_555
O12_6 Zn4 1_555 1_555
C6_6 C8_6 1_555 1_555
C8_6 O14_2 1_555 1_555
Zn6_2 O5_6 1_555 1_555
O16_6 Zn6_2 1_555 1_555
H5_6 O16_6 1_555 1_555
Zn4_3 O1_7 1_555 1_555
O4_7 Zn4_3 1_555 1_555
H2_7 O4_7 1_555 1_555
C1_7 C2_7 1_555 1_555
C2_7 C3_7 1_555 1_555
C4_7 C2_7 1_555 1_555
O8_3 C1_7 1_555 1_555
O13_3 C4_7 1_555 1_555
Zn7_2 O5_7 1_555 1_555
C5_7 C6_7 1_555 1_555
C6_7 C7_7 1_555 1_555
C7_7 C4_7 1_555 1_555
C8_7 C3_7 1_555 1_555
O5_7 C5_7 1_555 1_555
O10_2 C5_7 1_555 1_555
H4_7 C7_7 1_555 1_555
C6_7 C8_7 1_555 1_555
C8_7 O14_6 1_555 1_555
H5_7 O16_7 1_555 1_555
H6_7 O16_7 1_555 1_555
Zn4 O1_8 1_555 1_555
O4_8 Zn4 1_555 1_555
H2_8 O4_8 1_555 1_555
H3_8 O4_8 1_555 1_555
C1_8 C2_8 1_555 1_555
C2_8 C3_8 1_555 1_555
C4_8 C2_8 1_555 1_555
O8 C1_8 1_555 1_555
O13 C4_8 1_555 1_555
Zn7_3 O5_8 1_555 1_555
C5_8 C6_8 1_555 1_555
C6_8 C7_8 1_555 1_555
C7_8 C4_8 1_555 1_555
C8_8 C3_8 1_555 1_555
O5_8 C5_8 1_555 1_555
O10_3 C5_8 1_555 1_555
H4_8 C7_8 1_555 1_555
C6_8 C8_8 1_555 1_555
C8_8 O14_4 1_555 1_555
H5_8 O16_8 1_555 1_555
H6_8 O16_8 1_555 1_555
Zn4_2 O1_9 1_555 1_555
O4_9 Zn4_2 1_555 1_555
H2_9 O4_9 1_555 1_555
C1_9 C2_9 1_555 1_555
C2_9 C3_9 1_555 1_555
C4_9 C2_9 1_555 1_555
O8_2 C1_9 1_555 1_555
O13_2 C4_9 1_555 1_555
Zn7 O5_9 1_555 1_555
C5_9 C6_9 1_555 1_555
C6_9 C7_9 1_555 1_555
C7_9 C4_9 1_555 1_555
C8_9 C3_9 1_555 1_555
O5_9 C5_9 1_555 1_555
O10 C5_9 1_555 1_555
H4_9 C7_9 1_555 1_555
C6_9 C8_9 1_555 1_555
C8_9 O14_5 1_555 1_555
H5_9 O16_9 1_555 1_555
H6_9 O16_9 1_555 1_555

#END
