
###############################################################################
#
# This file contains modified crystal structure data generated from the
# MOF subset of the Cambridge Structural Database (CSD) v543 
# hosted by the Cambridge Crystallographic Data Centre (CCDC).
#
# This work is licensed under the Creative Commons
# Attribution-NonCommercial-ShareAlike 4.0 International License.
# To view a copy of this license, visit
# http://creativecommons.org/licenses/by-nc-sa/4.0/
# or send a letter to
# Creative Commons, PO Box 1866, Mountain View, CA 94042, USA.
#
# CIF created using the CSD Python API on 29 September 2022
# The structure has been converted into the P1 space group
# The structure has a 3D framework
# The original CSD entry WOBHIF03 is in the rhombohedral crystal system
# The framework has been calculated to contain at least 10.0% void space
# The void calculation uses a probe of radius 1.32A, grid spacing 0.4
# The framework is charged, counterions have been retained in the structure
#
###############################################################################

data_WOBHIF03
_chemical_formula_moiety         '(C72 H18 O54 Zn8 20-)n'
_symmetry_cell_setting           triclinic
_symmetry_space_group_name_H-M   'P 1'
_symmetry_Int_Tables_number      1
_space_group_name_Hall           'P 1'
loop_
_symmetry_equiv_pos_site_id
_symmetry_equiv_pos_as_xyz
1 x,y,z
_cell_length_a                   25.9292(24)
_cell_length_b                   25.9292
_cell_length_c                   6.7962(9)
_cell_angle_alpha                90
_cell_angle_beta                 90
_cell_angle_gamma                120
_cell_volume                     3957.08
loop_
_atom_site_label
_atom_site_type_symbol
_atom_site_fract_x
_atom_site_fract_y
_atom_site_fract_z
_atom_site_U_iso_or_equiv
_atom_site_thermal_displace_type
Zn1 Zn 0.3833(9) 0.3534(11) 0.1394(27) 0.0210 Uiso
O1 O 0.3305(9) 0.2968(8) 0.3816(34) 0.0144 Uiso
O2 O 0.2999(10) 0.2273(10) 0.6027(28) 0.0144 Uiso
O3 O 0.3541(9) 0.2723(10) 0.0013(33) 0.0144 Uiso
C1 C 0.3166(9) 0.2450(9) 0.4287(29) 0.0146 Uiso
C2 C 0.3267(9) 0.2058(9) 0.2859(27) 0.0146 Uiso
C3 C 0.3441(9) 0.2235(10) 0.0940(26) 0.0146 Uiso
O6 O 0.3126(9) 0.0610(10) 0.3320(33) 0.0144 Uiso
C6 C 0.3400(9) 0.1275(9) 0.0474(27) 0.0146 Uiso
C7 C 0.3226(9) 0.1098(10) 0.2393(26) 0.0146 Uiso
C8 C 0.3146(9) 0.1488(10) 0.3627(29) 0.0146 Uiso
H2 H 0.3016(20) 0.1391(19) 0.491(7) 0.0520 Uiso
Zn3 Zn 0.3133(11) 0.3632(14) 0.4727(27) 0.0210 Uiso
Zn5 Zn 0.3034(14) 0.2834(9) 0.8061(27) 0.0210 Uiso
Zn8 Zn 0.3632(14) 0.0500(9) 0.5273(27) 0.0210 Uiso
O7 O 0.2996(12) 0.3362(9) 0.0483(34) 0.0144 Uiso
O11 O 0.3944(10) 0.4151(13) 0.3346(33) 0.0144 Uiso
C4 C 0.3521(9) 0.1845(10) 0.9706(29) 0.0146 Uiso
H1 H 0.3651(20) 0.1942(19) 0.842(7) 0.0520 Uiso
O4 O 0.3362(9) 0.0365(8) 0.9517(34) 0.0144 Uiso
O5 O 0.3668(10) 0.1060(10) 0.7306(28) 0.0144 Uiso
C5 C 0.3501(9) 0.0883(9) 0.9046(29) 0.0146 Uiso
O9 O 0.4394(10) 0.4059(14) 0.9360(28) 0.0144 Uiso
O13 O 0.4151(13) 0.0208(9) 0.6654(33) 0.0144 Uiso
Zn6 Zn 0.2834(9) 0.9799(11) 0.1939(27) 0.0210 Uiso
O10 O 0.4059(14) 0.9666(10) 0.0640(28) 0.0144 Uiso
Zn2 Zn 0.3534(11) 0.9701(14) 0.8606(27) 0.0210 Uiso
O8 O 0.2968(8) 0.9663(12) 0.6184(34) 0.0144 Uiso
O12 O 0.2723(10) 0.9182(13) 0.9987(33) 0.0144 Uiso
Zn6_2 Zn 0.0201(11) 0.3034(14) 0.1939(27) 0.0210 Uiso
O10_2 O 0.0334(10) 0.4394(17) 0.0640(28) 0.0144 Uiso
Zn2_2 Zn 0.0299(14) 0.3833(18) 0.8606(27) 0.0210 Uiso
O8_2 O 0.0337(12) 0.3305(14) 0.6184(34) 0.0144 Uiso
O12_2 O 0.0818(13) 0.3541(16) 0.9987(33) 0.0144 Uiso
Zn1_2 Zn 0.6466(11) 0.0299(14) 0.1394(27) 0.0210 Uiso
O1_2 O 0.7032(8) 0.0337(12) 0.3816(34) 0.0144 Uiso
O2_2 O 0.7727(10) 0.0726(14) 0.6027(28) 0.0144 Uiso
O3_2 O 0.7277(10) 0.0818(13) 0.0013(33) 0.0144 Uiso
C1_2 C 0.7550(9) 0.0716(13) 0.4287(29) 0.0146 Uiso
C2_2 C 0.7942(9) 0.1209(13) 0.2859(27) 0.0146 Uiso
C3_2 C 0.7765(10) 0.1206(13) 0.0940(26) 0.0146 Uiso
O6_2 O 0.9390(10) 0.2515(13) 0.3320(33) 0.0144 Uiso
C6_2 C 0.8725(9) 0.2124(13) 0.0474(27) 0.0146 Uiso
C7_2 C 0.8902(10) 0.2127(13) 0.2393(26) 0.0146 Uiso
C8_2 C 0.8512(10) 0.1657(13) 0.3627(29) 0.0146 Uiso
H2_2 H 0.8609(19) 0.1624(28) 0.491(7) 0.0520 Uiso
Zn5_2 Zn 0.7166(9) 0.0201(17) 0.8061(27) 0.0210 Uiso
Zn8_2 Zn 0.9500(9) 0.3133(17) 0.5273(27) 0.0210 Uiso
C4_2 C 0.8155(10) 0.1676(13) 0.9706(29) 0.0146 Uiso
H1_2 H 0.8058(19) 0.1709(28) 0.842(7) 0.0520 Uiso
O4_2 O 0.9635(8) 0.2996(12) 0.9517(34) 0.0144 Uiso
O5_2 O 0.8940(10) 0.2607(14) 0.7306(28) 0.0144 Uiso
C5_2 C 0.9117(9) 0.2617(13) 0.9046(29) 0.0146 Uiso
O9_2 O 0.5941(14) 0.0334(17) 0.9360(28) 0.0144 Uiso
O13_2 O 0.9792(9) 0.3944(16) 0.6654(33) 0.0144 Uiso
Zn3_2 Zn 0.6368(14) 0.9500(18) 0.4727(27) 0.0210 Uiso
O7_2 O 0.6638(9) 0.9635(15) 0.0483(34) 0.0144 Uiso
O11_2 O 0.5849(13) 0.9792(16) 0.3346(33) 0.0144 Uiso
Zn3_3 Zn 0.0500(18) 0.6867(11) 0.4727(27) 0.0210 Uiso
O7_3 O 0.0365(15) 0.7004(12) 0.0483(34) 0.0144 Uiso
O11_3 O 0.0208(16) 0.6056(10) 0.3346(33) 0.0144 Uiso
Zn1_3 Zn 0.9701(14) 0.6167(9) 0.1394(27) 0.0210 Uiso
O1_3 O 0.9663(12) 0.6695(9) 0.3816(34) 0.0144 Uiso
O2_3 O 0.9274(14) 0.7001(10) 0.6027(28) 0.0144 Uiso
O3_3 O 0.9182(13) 0.6459(9) 0.0013(33) 0.0144 Uiso
C1_3 C 0.9284(13) 0.6834(9) 0.4287(29) 0.0146 Uiso
C2_3 C 0.8791(13) 0.6733(9) 0.2859(27) 0.0146 Uiso
C3_3 C 0.8794(13) 0.6559(9) 0.0940(26) 0.0146 Uiso
O6_3 O 0.7485(13) 0.6874(9) 0.3320(33) 0.0144 Uiso
C6_3 C 0.7876(13) 0.6600(9) 0.0474(27) 0.0146 Uiso
C7_3 C 0.7873(13) 0.6774(9) 0.2393(26) 0.0146 Uiso
C8_3 C 0.8343(13) 0.6854(9) 0.3627(29) 0.0146 Uiso
H2_3 H 0.8376(28) 0.6984(20) 0.491(7) 0.0520 Uiso
Zn5_3 Zn 0.9799(17) 0.6966(14) 0.8061(27) 0.0210 Uiso
Zn6_3 Zn 0.6966(14) 0.7166(9) 0.1939(27) 0.0210 Uiso
Zn8_3 Zn 0.6867(17) 0.6368(14) 0.5273(27) 0.0210 Uiso
O10_3 O 0.5606(17) 0.5941(14) 0.0640(28) 0.0144 Uiso
C4_3 C 0.8324(13) 0.6479(9) 0.9706(29) 0.0146 Uiso
H1_3 H 0.8291(28) 0.6349(20) 0.842(7) 0.0520 Uiso
O4_3 O 0.7004(12) 0.6638(9) 0.9517(34) 0.0144 Uiso
O5_3 O 0.7393(14) 0.6332(10) 0.7306(28) 0.0144 Uiso
C5_3 C 0.7383(13) 0.6499(9) 0.9046(29) 0.0146 Uiso
Zn2_3 Zn 0.6167(18) 0.6466(11) 0.8606(27) 0.0210 Uiso
O8_3 O 0.6695(14) 0.7032(8) 0.6184(34) 0.0144 Uiso
O9_3 O 0.9666(17) 0.5606(10) 0.9360(28) 0.0144 Uiso
O12_3 O 0.6459(16) 0.7277(10) 0.9987(33) 0.0144 Uiso
O13_3 O 0.6056(16) 0.5849(13) 0.6654(33) 0.0144 Uiso
C3_4 C 0.0108(9) 0.5568(10) 0.4273(26) 0.0146 Uiso
C4_4 C 0.0188(9) 0.5178(10) 0.3039(29) 0.0146 Uiso
H1_4 H 0.0318(20) 0.5275(19) 0.175(7) 0.0520 Uiso
O4_4 O 0.0028(9) 0.3699(8) 0.2851(34) 0.0144 Uiso
C5_4 C 0.0167(9) 0.4217(9) 0.2380(29) 0.0146 Uiso
C6_4 C 0.0066(9) 0.4609(9) 0.3808(27) 0.0146 Uiso
O9_4 O 0.1060(10) 0.7393(14) 0.2694(28) 0.0144 Uiso
O10_4 O 0.0726(14) 0.2999(10) 0.3973(28) 0.0144 Uiso
O11_4 O 0.0610(10) 0.7485(13) 0.6680(33) 0.0144 Uiso
O1_4 O 0.9972(9) 0.6301(8) 0.7149(34) 0.0144 Uiso
C1_4 C 0.9833(9) 0.5783(9) 0.7620(29) 0.0146 Uiso
C2_4 C 0.9934(9) 0.5391(9) 0.6192(27) 0.0146 Uiso
C7_4 C 0.9892(9) 0.4432(10) 0.5727(26) 0.0146 Uiso
C8_4 C 0.9812(9) 0.4822(10) 0.6961(29) 0.0146 Uiso
H2_4 H 0.9682(20) 0.4725(19) 0.825(7) 0.0520 Uiso
O1_5 O 0.3699(8) 0.3670(12) 0.7149(34) 0.0144 Uiso
C1_5 C 0.4217(9) 0.4049(13) 0.7620(29) 0.0146 Uiso
C2_5 C 0.4609(9) 0.4542(13) 0.6192(27) 0.0146 Uiso
C3_5 C 0.4432(10) 0.4539(13) 0.4273(26) 0.0146 Uiso
C4_5 C 0.4822(10) 0.5009(13) 0.3039(29) 0.0146 Uiso
H1_5 H 0.4725(19) 0.5042(28) 0.175(7) 0.0520 Uiso
O4_5 O 0.6301(8) 0.6330(12) 0.2851(34) 0.0144 Uiso
C5_5 C 0.5783(9) 0.5951(13) 0.2380(29) 0.0146 Uiso
C6_5 C 0.5391(9) 0.5458(13) 0.3808(27) 0.0146 Uiso
C7_5 C 0.5568(10) 0.5461(13) 0.5727(26) 0.0146 Uiso
C8_5 C 0.5178(10) 0.4991(13) 0.6961(29) 0.0146 Uiso
H2_5 H 0.5275(19) 0.4958(28) 0.825(7) 0.0520 Uiso
O9_5 O 0.2607(14) 0.3668(17) 0.2694(28) 0.0144 Uiso
O10_5 O 0.7001(10) 0.7727(17) 0.3973(28) 0.0144 Uiso
O11_5 O 0.2515(13) 0.3126(16) 0.6680(33) 0.0144 Uiso
O1_6 O 0.6330(12) 0.0028(9) 0.7149(34) 0.0144 Uiso
C1_6 C 0.5951(13) 0.0167(9) 0.7620(29) 0.0146 Uiso
C2_6 C 0.5458(13) 0.0066(9) 0.6192(27) 0.0146 Uiso
C7_6 C 0.4539(13) 0.0108(9) 0.5727(26) 0.0146 Uiso
C8_6 C 0.5009(13) 0.0188(9) 0.6961(29) 0.0146 Uiso
H2_6 H 0.5042(28) 0.0318(20) 0.825(7) 0.0520 Uiso
C3_6 C 0.5461(13) 0.9892(9) 0.4273(26) 0.0146 Uiso
C4_6 C 0.4991(13) 0.9812(9) 0.3039(29) 0.0146 Uiso
H1_6 H 0.4958(28) 0.9682(20) 0.175(7) 0.0520 Uiso
O4_6 O 0.3670(12) 0.9972(9) 0.2851(34) 0.0144 Uiso
C5_6 C 0.4049(13) 0.9833(9) 0.2380(29) 0.0146 Uiso
C6_6 C 0.4542(13) 0.9934(9) 0.3808(27) 0.0146 Uiso
O9_6 O 0.6332(17) 0.8940(10) 0.2694(28) 0.0144 Uiso
O10_6 O 0.2273(17) 0.9274(14) 0.3973(28) 0.0144 Uiso
O11_6 O 0.6874(16) 0.9390(10) 0.6680(33) 0.0144 Uiso
C1_7 C 0.6499(9) 0.9117(9) 0.0954(29) 0.0146 Uiso
C8_7 C 0.6479(9) 0.8155(10) 0.0294(29) 0.0146 Uiso
H2_7 H 0.6349(20) 0.8058(19) 0.158(7) 0.0520 Uiso
C2_7 C 0.6600(9) 0.8725(9) 0.9526(27) 0.0146 Uiso
C3_7 C 0.6774(9) 0.8902(10) 0.7607(26) 0.0146 Uiso
C4_7 C 0.6854(9) 0.8512(10) 0.6373(29) 0.0146 Uiso
H1_7 H 0.6984(20) 0.8609(19) 0.509(7) 0.0520 Uiso
C5_7 C 0.6834(9) 0.7550(9) 0.5713(29) 0.0146 Uiso
C6_7 C 0.6733(9) 0.7942(9) 0.7141(27) 0.0146 Uiso
C7_7 C 0.6559(9) 0.7765(10) 0.9060(26) 0.0146 Uiso
C1_8 C 0.0883(9) 0.7383(13) 0.0954(29) 0.0146 Uiso
C8_8 C 0.1845(10) 0.8324(13) 0.0294(29) 0.0146 Uiso
H2_8 H 0.1942(19) 0.8291(28) 0.158(7) 0.0520 Uiso
C2_8 C 0.1275(9) 0.7876(13) 0.9526(27) 0.0146 Uiso
C3_8 C 0.1098(10) 0.7873(13) 0.7607(26) 0.0146 Uiso
C4_8 C 0.1488(10) 0.8343(13) 0.6373(29) 0.0146 Uiso
H1_8 H 0.1391(19) 0.8376(28) 0.509(7) 0.0520 Uiso
C5_8 C 0.2450(9) 0.9284(13) 0.5713(29) 0.0146 Uiso
C6_8 C 0.2058(9) 0.8791(13) 0.7141(27) 0.0146 Uiso
C7_8 C 0.2235(10) 0.8794(13) 0.9060(26) 0.0146 Uiso
C1_9 C 0.2617(13) 0.3501(9) 0.0954(29) 0.0146 Uiso
C8_9 C 0.1676(13) 0.3521(9) 0.0294(29) 0.0146 Uiso
H2_9 H 0.1709(28) 0.3651(20) 0.158(7) 0.0520 Uiso
C2_9 C 0.2124(13) 0.3400(9) 0.9526(27) 0.0146 Uiso
C3_9 C 0.2127(13) 0.3226(9) 0.7607(26) 0.0146 Uiso
C4_9 C 0.1657(13) 0.3146(9) 0.6373(29) 0.0146 Uiso
H1_9 H 0.1624(28) 0.3016(20) 0.509(7) 0.0520 Uiso
C5_9 C 0.0716(13) 0.3166(9) 0.5713(29) 0.0146 Uiso
C6_9 C 0.1209(13) 0.3267(9) 0.7141(27) 0.0146 Uiso
C7_9 C 0.1206(13) 0.3441(9) 0.9060(26) 0.0146 Uiso
loop_
_geom_bond_atom_site_label_1
_geom_bond_atom_site_label_2
_geom_bond_site_symmetry_1
_geom_bond_site_symmetry_2
Zn1 O1 1_555 1_555
O1 C1 1_555 1_555
O2 C1 1_555 1_555
O3 Zn1 1_555 1_555
C1 C2 1_555 1_555
C2 C3 1_555 1_555
C3 O3 1_555 1_555
O6 C7 1_555 1_555
C7 C6 1_555 1_555
C8 C2 1_555 1_555
H2 C8 1_555 1_555
Zn3 O1 1_555 1_555
Zn5 O2 1_555 1_555
Zn8 O6 1_555 1_555
O7 Zn1 1_555 1_555
O11 Zn1 1_555 1_555
C7 C8 1_555 1_555
Zn3 O11 1_555 1_555
H1 C4 1_555 1_555
O4 C5 1_555 1_555
O5 C5 1_555 1_555
Zn8 O5 1_555 1_555
Zn8 O13 1_555 1_555
O8 Zn2 1_555 1_555
O12 Zn2 1_555 1_555
O8_2 Zn2_2 1_555 1_555
O12_2 Zn2_2 1_555 1_555
Zn1_2 O1_2 1_555 1_555
O1_2 C1_2 1_555 1_555
O2_2 C1_2 1_555 1_555
O3_2 Zn1_2 1_555 1_555
C1_2 C2_2 1_555 1_555
C2_2 C3_2 1_555 1_555
C3_2 O3_2 1_555 1_555
O6_2 C7_2 1_555 1_555
C7_2 C6_2 1_555 1_555
C8_2 C2_2 1_555 1_555
H2_2 C8_2 1_555 1_555
Zn5_2 O2_2 1_555 1_555
Zn8_2 O6_2 1_555 1_555
C7_2 C8_2 1_555 1_555
H1_2 C4_2 1_555 1_555
O4_2 C5_2 1_555 1_555
O5_2 C5_2 1_555 1_555
Zn8_2 O5_2 1_555 1_555
Zn8_2 O13_2 1_555 1_555
Zn3_2 O11_2 1_555 1_555
Zn3_3 O11_3 1_555 1_555
Zn1_3 O1_3 1_555 1_555
O1_3 C1_3 1_555 1_555
O2_3 C1_3 1_555 1_555
O3_3 Zn1_3 1_555 1_555
C1_3 C2_3 1_555 1_555
C2_3 C3_3 1_555 1_555
C3_3 O3_3 1_555 1_555
O6_3 C7_3 1_555 1_555
C7_3 C6_3 1_555 1_555
C8_3 C2_3 1_555 1_555
H2_3 C8_3 1_555 1_555
Zn5_3 O2_3 1_555 1_555
Zn8_3 O6_3 1_555 1_555
O6_3 Zn6_3 1_555 1_555
C7_3 C8_3 1_555 1_555
H1_3 C4_3 1_555 1_555
O4_3 C5_3 1_555 1_555
O5_3 C5_3 1_555 1_555
Zn2_3 O4_3 1_555 1_555
Zn8_3 O5_3 1_555 1_555
O8_3 Zn2_3 1_555 1_555
O12_3 Zn2_3 1_555 1_555
O13_3 Zn2_3 1_555 1_555
Zn8_3 O8_3 1_555 1_555
Zn8_3 O13_3 1_555 1_555
C3_4 O11_3 1_555 1_555
C4_4 C3_4 1_555 1_555
H1_4 C4_4 1_555 1_555
O4_4 C5_4 1_555 1_555
O10_2 C5_4 1_555 1_555
C5_4 C6_4 1_555 1_555
C6_4 C4_4 1_555 1_555
Zn6_2 O4_4 1_555 1_555
O9_4 Zn3_3 1_555 1_555
O10_4 Zn6_2 1_555 1_555
O11_4 Zn3_3 1_555 1_555
O1_4 C1_4 1_555 1_555
O9_3 C1_4 1_555 1_555
C1_4 C2_4 1_555 1_555
O13_2 C7_4 1_555 1_555
C8_4 C2_4 1_555 1_555
H2_4 C8_4 1_555 1_555
Zn5_3 O1_4 1_555 1_555
C7_4 C8_4 1_555 1_555
Zn3 O1_5 1_555 1_555
O1_5 C1_5 1_555 1_555
O9 C1_5 1_555 1_555
C1_5 C2_5 1_555 1_555
C2_5 C3_5 1_555 1_555
C3_5 O11 1_555 1_555
C4_5 C3_5 1_555 1_555
H1_5 C4_5 1_555 1_555
O4_5 C5_5 1_555 1_555
O10_3 C5_5 1_555 1_555
O13_3 C7_5 1_555 1_555
C5_5 C6_5 1_555 1_555
C6_5 C4_5 1_555 1_555
C7_5 C6_5 1_555 1_555
C8_5 C2_5 1_555 1_555
H2_5 C8_5 1_555 1_555
Zn6_3 O4_5 1_555 1_555
Zn5 O1_5 1_555 1_555
Zn8_3 O4_5 1_555 1_555
O9_5 Zn3 1_555 1_555
O10_5 Zn6_3 1_555 1_555
O11_5 Zn3 1_555 1_555
C7_5 C8_5 1_555 1_555
Zn5 O11_5 1_555 1_555
O1_6 C1_6 1_555 1_555
O9_2 C1_6 1_555 1_555
C1_6 C2_6 1_555 1_555
O13 C7_6 1_555 1_555
C8_6 C2_6 1_555 1_555
H2_6 C8_6 1_555 1_555
Zn5_2 O1_6 1_555 1_555
C7_6 C8_6 1_555 1_555
C3_6 O11_2 1_555 1_555
C4_6 C3_6 1_555 1_555
H1_6 C4_6 1_555 1_555
O4_6 C5_6 1_555 1_555
O10 C5_6 1_555 1_555
C5_6 C6_6 1_555 1_555
C6_6 C4_6 1_555 1_555
Zn6 O4_6 1_555 1_555
O9_6 Zn3_2 1_555 1_555
O10_6 Zn6 1_555 1_555
O11_6 Zn3_2 1_555 1_555
O7_2 C1_7 1_555 1_555
O9_6 C1_7 1_555 1_555
H2_7 C8_7 1_555 1_555
C2_7 C3_7 1_555 1_555
C3_7 O11_6 1_555 1_555
C4_7 C3_7 1_555 1_555
H1_7 C4_7 1_555 1_555
O8_3 C5_7 1_555 1_555
O10_5 C5_7 1_555 1_555
O12_3 C7_7 1_555 1_555
C5_7 C6_7 1_555 1_555
C6_7 C4_7 1_555 1_555
C7_7 C6_7 1_555 1_555
O7_3 C1_8 1_555 1_555
O9_4 C1_8 1_555 1_555
H2_8 C8_8 1_555 1_555
C2_8 C3_8 1_555 1_555
C3_8 O11_4 1_555 1_555
C4_8 C3_8 1_555 1_555
H1_8 C4_8 1_555 1_555
O8 C5_8 1_555 1_555
O10_6 C5_8 1_555 1_555
O12 C7_8 1_555 1_555
C5_8 C6_8 1_555 1_555
C6_8 C4_8 1_555 1_555
C7_8 C6_8 1_555 1_555
O7 C1_9 1_555 1_555
O9_5 C1_9 1_555 1_555
H2_9 C8_9 1_555 1_555
C2_9 C3_9 1_555 1_555
C3_9 O11_5 1_555 1_555
C4_9 C3_9 1_555 1_555
H1_9 C4_9 1_555 1_555
O8_2 C5_9 1_555 1_555
O10_4 C5_9 1_555 1_555
O12_2 C7_9 1_555 1_555
C5_9 C6_9 1_555 1_555
C6_9 C4_9 1_555 1_555
C7_9 C6_9 1_555 1_555

#END
