
###############################################################################
#
# This file contains modified crystal structure data generated from the
# MOF subset of the Cambridge Structural Database (CSD) v543 
# hosted by the Cambridge Crystallographic Data Centre (CCDC).
#
# This work is licensed under the Creative Commons
# Attribution-NonCommercial-ShareAlike 4.0 International License.
# To view a copy of this license, visit
# http://creativecommons.org/licenses/by-nc-sa/4.0/
# or send a letter to
# Creative Commons, PO Box 1866, Mountain View, CA 94042, USA.
#
# CIF created using the CSD Python API on 29 September 2022
# The structure has been converted into the P1 space group
# The structure has a 3D framework
# The original CSD entry WOCGAZ is in the triclinic crystal system
# The framework has been calculated to contain at least 10.0% void space
# The void calculation uses a probe of radius 1.32A, grid spacing 0.4
#
###############################################################################

data_WOCGAZ
_chemical_formula_moiety         '(C30 H32 La2 O16)n'
_symmetry_cell_setting           triclinic
_symmetry_space_group_name_H-M   'P 1'
_symmetry_Int_Tables_number      1
_space_group_name_Hall           'P 1'
loop_
_symmetry_equiv_pos_site_id
_symmetry_equiv_pos_as_xyz
1 x,y,z
_cell_length_a                   9.1197(2)
_cell_length_b                   11.1231(2)
_cell_length_c                   11.9434(2)
_cell_angle_alpha                107.0490(10)
_cell_angle_beta                 107.7290(10)
_cell_angle_gamma                106.6220(10)
_cell_volume                     1005.21
loop_
_atom_site_label
_atom_site_type_symbol
_atom_site_fract_x
_atom_site_fract_y
_atom_site_fract_z
_atom_site_U_iso_or_equiv
_atom_site_thermal_displace_type
O11 O 0.1854(3) 0.2421(3) 0.3565(3) 0.0362 Uani
C21 C 0.3166(4) 0.2574(3) 0.3379(3) 0.0260 Uani
C22 C 0.1528(5) 0.0675(4) 0.1119(4) 0.0340 Uani
C24 C 0.3168(5) 0.1422(4) 0.2325(4) 0.0443 Uani
H22 H 0.339276 0.076278 0.265520 0.0670 Uiso
H23 H 0.407848 0.180202 0.210027 0.0670 Uiso
C25 C 0.1073(6) 0.1313(4) 0.0315(4) 0.0462 Uani
H24 H 0.179525 0.220492 0.051838 0.0550 Uiso
O12 O 0.4472(3) 0.3677(2) 0.4069(2) 0.0332 Uani
La4 La 0.75090(2) 0.52031(2) 0.47969(2) 0.0205 Uani
La8 La 0.24910(2) 0.47969(2) 0.52031(2) 0.0205 Uani
O9 O 0.2373(3) 0.6959(3) 0.4689(2) 0.0335 Uani
O10 O 0.2578(3) 0.5326(3) 0.3264(2) 0.0351 Uani
C16 C 0.2360(4) 0.6411(4) 0.3595(4) 0.0316 Uani
C17 C 0.1003(5) 0.6028(4) 0.1268(4) 0.0387 Uani
C19 C 0.1719(6) 0.5439(5) 0.0523(4) 0.0506 Uani
H18 H 0.288581 0.572528 0.086867 0.0600 Uiso
C20 C 0.2069(6) 0.7072(4) 0.2653(4) 0.0457 Uani
H19 H 0.315274 0.764121 0.272749 0.0690 Uiso
H20 H 0.151641 0.766999 0.288429 0.0690 Uiso
C23 C 0.0436(5) 0.9354(4) 0.0783(4) 0.0435 Uani
H21 H 0.071587 0.890045 0.130203 0.0520 Uiso
H4 H 0.026(4) 0.712(4) 0.435(5) 0.0600 Uiso
C13 C 0.0738(6) 0.4427(5) 0.9267(4) 0.0516 Uani
H13 H 0.125405 0.405378 0.878263 0.0620 Uiso
O21 O 0.0575(3) 0.5881(3) 0.6253(2) 0.0323 Uani
C8 C 0.9564(5) 0.0646(4) 0.9217(4) 0.0435 Uani
H8 H 0.928413 0.109955 0.869797 0.0520 Uiso
C18 C 0.9262(6) 0.5573(5) 0.0733(4) 0.0516 Uani
H17 H 0.874595 0.594622 0.121737 0.0620 Uiso
O1 O 0.5528(3) 0.6323(2) 0.5931(2) 0.0332 Uani
O2 O 0.9425(3) 0.4119(3) 0.3747(2) 0.0323 Uani
O3 O 0.7627(3) 0.3041(3) 0.5311(2) 0.0335 Uani
O4 O 0.8146(3) 0.7579(3) 0.6435(3) 0.0362 Uani
O5 O 0.7422(3) 0.4674(3) 0.6736(2) 0.0351 Uani
O6 O 0.6840(3) 0.3616(3) 0.2490(2) 0.0415 Uani
O7 O 0.5690(4) 0.5882(4) 0.3233(3) 0.0486 Uani
H1 H 0.468(3) 0.558(4) 0.307(5) 0.0580 Uiso
H2 H 0.591(5) 0.651(4) 0.302(5) 0.0580 Uiso
O8 O 0.9316(4) 0.7051(3) 0.4326(4) 0.0505 Uani
H3 H 0.947(6) 0.785(3) 0.470(4) 0.0600 Uiso
C1 C 0.6834(4) 0.7426(3) 0.6621(3) 0.0260 Uani
C2 C 0.8165(4) 0.3436(3) 0.2659(3) 0.0261 Uani
C3 C 0.7640(4) 0.3589(4) 0.6405(4) 0.0316 Uani
C4 C 0.6579(5) 0.1147(4) 0.0739(4) 0.0342 Uani
C5 C 0.8247(5) 0.2382(4) 0.1565(4) 0.0390 Uani
H5 H 0.857342 0.281262 0.102898 0.0580 Uiso
H6 H 0.910563 0.207990 0.192279 0.0580 Uiso
C6 C 0.6017(5) 0.0190(4) 0.1196(4) 0.0428 Uani
H7 H 0.669560 0.030195 0.201149 0.0510 Uiso
C7 C 0.8472(5) 0.9325(4) 0.8881(4) 0.0340 Uani
C10 C 0.6832(5) 0.8578(4) 0.7675(4) 0.0443 Uani
H10 H 0.660724 0.923722 0.734480 0.0670 Uiso
H11 H 0.592152 0.819798 0.789973 0.0670 Uiso
C11 C 0.8927(6) 0.8687(4) 0.9685(4) 0.0462 Uani
H12 H 0.820475 0.779508 0.948162 0.0550 Uiso
C12 C 0.8997(5) 0.3972(4) 0.8732(4) 0.0387 Uani
C14 C 0.8281(6) 0.4561(5) 0.9477(4) 0.0506 Uani
H14 H 0.711419 0.427472 0.913133 0.0600 Uiso
C15 C 0.7931(6) 0.2928(4) 0.7347(4) 0.0457 Uani
H15 H 0.684726 0.235879 0.727251 0.0690 Uiso
H16 H 0.848359 0.233001 0.711571 0.0690 Uiso
O13 O 0.3160(3) 0.6384(3) 0.7510(2) 0.0415 Uani
C26 C 0.1835(4) 0.6564(3) 0.7341(3) 0.0261 Uani
C27 C 0.3421(5) 0.8853(4) 0.9261(4) 0.0342 Uani
C28 C 0.1753(5) 0.7618(4) 0.8435(4) 0.0390 Uani
H25 H 0.142658 0.718738 0.897102 0.0580 Uiso
H26 H 0.089437 0.792010 0.807721 0.0580 Uiso
C29 C 0.3983(5) 0.9810(4) 0.8804(4) 0.0428 Uani
H27 H 0.330440 0.969805 0.798851 0.0510 Uiso
O15 O 0.4310(4) 0.4118(4) 0.6767(3) 0.0486 Uani
H29 H 0.532(3) 0.442(4) 0.693(5) 0.0580 Uiso
H30 H 0.409(5) 0.349(4) 0.698(5) 0.0580 Uiso
O16 O 0.0684(4) 0.2949(3) 0.5674(4) 0.0505 Uani
H31 H 0.053(6) 0.215(3) 0.530(4) 0.0600 Uiso
H32 H 0.974(4) 0.288(4) 0.565(5) 0.0600 Uiso
C9 C 0.5547(5) 0.0946(4) 0.9531(4) 0.0416 Uani
H9 H 0.589046 0.157191 0.919203 0.0490 Uiso
C30 C 0.4453(5) 0.9054(4) 0.0469(4) 0.0416 Uani
H28 H 0.410954 0.842809 0.080797 0.0490 Uiso
loop_
_atom_site_aniso_label
_atom_site_aniso_U_11
_atom_site_aniso_U_22
_atom_site_aniso_U_33
_atom_site_aniso_U_23
_atom_site_aniso_U_13
_atom_site_aniso_U_12
O11 0.0247 0.0283 0.0415 -0.0005 0.0129 0.0089
C21 0.0228 0.0219 0.026 0.0052 0.0051 0.01
C22 0.031 0.0293 0.029 -0.0032 0.0138 0.0102
C24 0.026 0.04 0.043 -0.0078 0.0102 0.0127
C25 0.042 0.0225 0.048 0.0006 0.016 -0.0033
O12 0.0242 0.0258 0.0312 0.004 0.0034 0.0032
La4 0.01729 0.02001 0.0185 0.00498 0.00482 0.00633
La8 0.01729 0.02001 0.0185 0.00498 0.00482 0.00633
O9 0.0352 0.0353 0.0339 0.0155 0.0168 0.0161
O10 0.0403 0.0427 0.0332 0.02 0.0173 0.0254
C16 0.0184 0.041 0.0332 0.0177 0.0083 0.0099
C17 0.043 0.044 0.035 0.026 0.0123 0.0206
C19 0.032 0.077 0.042 0.027 0.0112 0.024
C20 0.055 0.04 0.039 0.0233 0.012 0.017
C23 0.042 0.033 0.037 0.0059 0.0114 0.0058
C13 0.051 0.073 0.041 0.023 0.022 0.037
O21 0.0227 0.034 0.0229 0.0011 0.0027 0.0074
C8 0.042 0.033 0.037 0.0059 0.0114 0.0058
C18 0.051 0.073 0.041 0.023 0.022 0.037
O1 0.0242 0.0258 0.0312 0.004 0.0034 0.0032
O2 0.0227 0.034 0.0229 0.0011 0.0027 0.0074
O3 0.0352 0.0353 0.0339 0.0155 0.0168 0.0161
O4 0.0247 0.0283 0.0415 -0.0005 0.0129 0.0089
O5 0.0403 0.0427 0.0332 0.02 0.0173 0.0254
O6 0.0267 0.0515 0.0253 -0.0052 0.004 0.0175
O7 0.0425 0.075 0.067 0.0532 0.0345 0.039
O8 0.0456 0.0523 0.088 0.0469 0.0434 0.0315
C1 0.0228 0.0219 0.026 0.0052 0.0051 0.01
C2 0.0187 0.025 0.0236 0.0018 0.0062 0.006
C3 0.0184 0.041 0.0332 0.0177 0.0083 0.0099
C4 0.0261 0.03 0.0297 -0.0041 0.007 0.0117
C5 0.0233 0.04 0.0318 -0.0057 0.0074 0.0098
C6 0.039 0.044 0.028 0.0047 0.0002 0.0198
C7 0.031 0.0293 0.029 -0.0032 0.0138 0.0102
C10 0.026 0.04 0.043 -0.0078 0.0102 0.0127
C11 0.042 0.0225 0.048 0.0006 0.016 -0.0033
C12 0.043 0.044 0.035 0.026 0.0123 0.0206
C14 0.032 0.077 0.042 0.027 0.0112 0.024
C15 0.055 0.04 0.039 0.0233 0.012 0.017
O13 0.0267 0.0515 0.0253 -0.0052 0.004 0.0175
C26 0.0187 0.025 0.0236 0.0018 0.0062 0.006
C27 0.0261 0.03 0.0297 -0.0041 0.007 0.0117
C28 0.0233 0.04 0.0318 -0.0057 0.0074 0.0098
C29 0.039 0.044 0.028 0.0047 0.0002 0.0198
O15 0.0425 0.075 0.067 0.0532 0.0345 0.039
O16 0.0456 0.0523 0.088 0.0469 0.0434 0.0315
C9 0.043 0.037 0.031 0.0078 0.0076 0.0133
C30 0.043 0.037 0.031 0.0078 0.0076 0.0133
loop_
_geom_bond_atom_site_label_1
_geom_bond_atom_site_label_2
_geom_bond_site_symmetry_1
_geom_bond_site_symmetry_2
O11 C21 1_555 1_555
C21 C24 1_555 1_555
C24 C22 1_555 1_555
H22 C24 1_555 1_555
H23 C24 1_555 1_555
H24 C25 1_555 1_555
O12 C21 1_555 1_555
La4 O12 1_555 1_555
La8 O11 1_555 1_555
C22 C25 1_555 1_555
O12 La8 1_555 1_555
O9 C16 1_555 1_555
O10 C16 1_555 1_555
C16 C20 1_555 1_555
H18 C19 1_555 1_555
C20 C17 1_555 1_555
H19 C20 1_555 1_555
H20 C20 1_555 1_555
H21 C23 1_555 1_555
La8 O9 1_555 1_555
O10 La8 1_555 1_555
C17 C19 1_555 1_555
C13 H13 1_555 1_555
La8 O21 1_555 1_555
C8 H8 1_555 1_555
H17 C18 1_555 1_555
La4 O1 1_555 1_555
O1 C1 1_555 1_555
O2 La4 1_555 1_555
O3 La4 1_555 1_555
O4 La4 1_555 1_555
O5 La4 1_555 1_555
O6 La4 1_555 1_555
O7 La4 1_555 1_555
H1 O7 1_555 1_555
H2 O7 1_555 1_555
O8 La4 1_555 1_555
H3 O8 1_555 1_555
C1 O4 1_555 1_555
C2 O2 1_555 1_555
C3 O3 1_555 1_555
C4 C5 1_555 1_555
C5 C2 1_555 1_555
H5 C5 1_555 1_555
H6 C5 1_555 1_555
C6 C4 1_555 1_555
H7 C6 1_555 1_555
C10 C1 1_555 1_555
H10 C10 1_555 1_555
H11 C10 1_555 1_555
C11 C7 1_555 1_555
H12 C11 1_555 1_555
C14 C12 1_555 1_555
H14 C14 1_555 1_555
C15 C3 1_555 1_555
H15 C15 1_555 1_555
H16 C15 1_555 1_555
La8 O1 1_555 1_555
O5 C3 1_555 1_555
O6 C2 1_555 1_555
C7 C10 1_555 1_555
C12 C15 1_555 1_555
O13 C26 1_555 1_555
C26 C28 1_555 1_555
C27 C28 1_555 1_555
C28 H25 1_555 1_555
H26 C28 1_555 1_555
H27 C29 1_555 1_555
O21 C26 1_555 1_555
La8 O13 1_555 1_555
O15 La8 1_555 1_555
H29 O15 1_555 1_555
H30 O15 1_555 1_555
O16 La8 1_555 1_555
H31 O16 1_555 1_555
C27 C29 1_555 1_555
H9 C9 1_555 1_555
H28 C30 1_555 1_555

#END
