
###############################################################################
#
# This file contains modified crystal structure data generated from the
# MOF subset of the Cambridge Structural Database (CSD) v543 
# hosted by the Cambridge Crystallographic Data Centre (CCDC).
#
# This work is licensed under the Creative Commons
# Attribution-NonCommercial-ShareAlike 4.0 International License.
# To view a copy of this license, visit
# http://creativecommons.org/licenses/by-nc-sa/4.0/
# or send a letter to
# Creative Commons, PO Box 1866, Mountain View, CA 94042, USA.
#
# CIF created using the CSD Python API on 29 September 2022
# The structure has been converted into the P1 space group
# The structure has a 3D framework
# The original CSD entry WOCHAY01 is in the monoclinic crystal system
# The framework has been calculated to contain at least 10.0% void space
# The void calculation uses a probe of radius 1.32A, grid spacing 0.4
#
###############################################################################

data_WOCHAY01
_chemical_formula_moiety         '(C40 H36 N4 O26 Tb4)n'
_symmetry_cell_setting           triclinic
_symmetry_space_group_name_H-M   'P 1'
_symmetry_Int_Tables_number      1
_space_group_name_Hall           'P 1'
loop_
_symmetry_equiv_pos_site_id
_symmetry_equiv_pos_as_xyz
1 x,y,z
_cell_length_a                   9.2361(18)
_cell_length_b                   14.254(3)
_cell_length_c                   9.6006(19)
_cell_angle_alpha                90
_cell_angle_beta                 96.38(3)
_cell_angle_gamma                90
_cell_volume                     1256.1
loop_
_atom_site_label
_atom_site_type_symbol
_atom_site_fract_x
_atom_site_fract_y
_atom_site_fract_z
O9 O 0.5051(5) 0.2477(3) 0.1169(5)
H17 H 0.4605 0.2614 0.1870
H18 H 0.5055 0.2951 0.0633
O15 O 0.5382(5) 0.0384(3) 0.1494(5)
O23 O 0.2421(4) 0.1564(3) 0.1810(5)
Tb2 Tb 0.37940(3) 0.116409(19) 0.98725(3)
Tb9 Tb 0.37940(3) 0.383591(19) 0.48725(3)
H14 H 0.0099 0.0722 0.9856
C17 C 0.1033(6) 0.2433(5) 0.8126(7)
C20 C 0.2455(6) 0.2867(4) 0.7782(7)
O8 O 0.3582(4) 0.2571(3) 0.8509(5)
O11 O 0.6082(4) 0.1386(3) 0.8964(5)
O17 O 0.3217(5) 0.0680(3) 0.7462(5)
O21 O 0.2421(4) 0.3436(3) 0.6810(5)
N2 N 0.1195(5) 0.1688(4) 0.8972(6)
O20 O 0.2441(4) 0.9811(3) 0.0326(5)
O14 O 0.4618(5) 0.9616(3) 0.8506(5)
H3 H 0.3634 0.0460 0.4759
C11 C 0.6153(7) 0.0085(5) 0.2564(7)
C12 C 0.6304(8) 0.0656(5) 0.3891(8)
H10 H 0.7315 0.0839 0.4116
H11 H 0.5728 0.1224 0.3744
C13 C 0.5811(7) 0.0117(5) 0.5112(7)
H13 H 0.6009 0.0488 0.5959
C14 C 0.7293(6) 0.0986(4) 0.9171(6)
C15 C 0.8599(6) 0.1528(5) 0.8749(7)
C16 C 0.9997(7) 0.1244(4) 0.9272(7)
C18 C 0.9692(7) 0.2772(5) 0.7590(8)
H15 H 0.9620 0.3299 0.7015
C19 C 0.8448(7) 0.2315(5) 0.7921(8)
H16 H 0.7528 0.2539 0.7588
O18 O 0.7559(4) 0.0189(3) 0.9674(5)
Tb4 Tb 0.62060(3) 0.883591(19) 0.01275(3)
C1 C 0.3847(7) 0.9915(5) 0.7436(7)
C2 C 0.3696(8) 0.9344(5) 0.6109(8)
H1 H 0.2685 0.9161 0.5884
H2 H 0.4272 0.8776 0.6256
C3 C 0.4189(7) 0.9883(5) 0.4888(7)
H4 H 0.3991 0.9512 0.4041
H12 H 0.6366 0.9540 0.5241
O16 O 0.6783(5) 0.9320(3) 0.2538(5)
C4 C 0.2707(6) 0.5986(4) 0.5829(6)
C5 C 0.1401(6) 0.6528(5) 0.6251(7)
C6 C 0.0003(7) 0.6244(4) 0.5728(7)
C8 C 0.0308(7) 0.7772(5) 0.7410(8)
H6 H 0.0380 0.8299 0.7985
C9 C 0.1552(7) 0.7315(5) 0.7079(8)
H7 H 0.2472 0.7539 0.7412
O3 O 0.3918(4) 0.6386(3) 0.6036(5)
O6 O 0.2441(4) 0.5189(3) 0.5326(5)
Tb3 Tb 0.62060(3) 0.616409(19) 0.51275(3)
C3_2 C 0.5811(7) 0.4883(5) 0.0112(7)
H3_2 H 0.6366 0.5460 0.0241
H4_2 H 0.6009 0.4512 0.0959
C11_2 C 0.3847(7) 0.5085(5) 0.2436(7)
C12_2 C 0.3696(8) 0.5656(5) 0.1109(8)
H10_2 H 0.2685 0.5839 0.0884
H11_2 H 0.4272 0.6224 0.1256
O12 O 0.4618(5) 0.5384(3) 0.3506(5)
O16_2 O 0.3217(5) 0.4320(3) 0.2462(5)
C1_2 C 0.6153(7) 0.4915(5) 0.7564(7)
C2_2 C 0.6304(8) 0.4344(5) 0.8891(8)
H1_2 H 0.7315 0.4161 0.9116
H2_2 H 0.5728 0.3776 0.8744
H5 H 0.9901 0.5722 0.5144
C7 C 0.8967(6) 0.7433(5) 0.6874(7)
C10 C 0.7545(6) 0.7867(4) 0.7218(7)
O1 O 0.6418(4) 0.7571(3) 0.6491(5)
O2 O 0.4949(5) 0.7477(3) 0.3831(5)
H8 H 0.5395 0.7614 0.3130
H9 H 0.4945 0.7951 0.4367
O4 O 0.5382(5) 0.4616(3) 0.6494(5)
O5 O 0.6783(5) 0.5680(3) 0.7538(5)
O7 O 0.7579(4) 0.8436(3) 0.8190(5)
N1 N 0.8805(5) 0.6688(4) 0.6028(6)
C13_2 C 0.4189(7) 0.5117(5) 0.9888(7)
H12_2 H 0.3634 0.4540 0.9759
H13_2 H 0.3991 0.5488 0.9041
O19 O 0.7559(4) 0.4811(3) 0.4674(5)
O22 O 0.7579(4) 0.6564(3) 0.3190(5)
C4_2 C 0.2707(6) 0.9014(4) 0.0829(6)
C5_2 C 0.1401(6) 0.8472(5) 0.1251(7)
C6_2 C 0.0003(7) 0.8756(4) 0.0728(7)
C8_2 C 0.0308(7) 0.7228(5) 0.2410(8)
H6_2 H 0.0380 0.6701 0.2985
C9_2 C 0.1552(7) 0.7685(5) 0.2079(8)
H7_2 H 0.2472 0.7461 0.2412
O3_2 O 0.3918(4) 0.8614(3) 0.1036(5)
H5_2 H 0.9901 0.9278 0.0144
C7_2 C 0.8967(6) 0.7567(5) 0.1874(7)
C10_2 C 0.7545(6) 0.7133(4) 0.2218(7)
O1_2 O 0.6418(4) 0.7429(3) 0.1491(5)
N1_2 N 0.8805(5) 0.8312(4) 0.1028(6)
O2_2 O 0.4949(5) 0.7523(3) 0.8831(5)
H8_2 H 0.5395 0.7386 0.8130
H9_2 H 0.4945 0.7049 0.9367
H14_2 H 0.0099 0.4278 0.4856
C17_2 C 0.1033(6) 0.2567(5) 0.3126(7)
C20_2 C 0.2455(6) 0.2133(4) 0.2782(7)
O8_2 O 0.3582(4) 0.2429(3) 0.3509(5)
O9_2 O 0.5051(5) 0.2523(3) 0.6169(5)
H17_2 H 0.4605 0.2386 0.6870
H18_2 H 0.5055 0.2049 0.5633
O11_2 O 0.6082(4) 0.3614(3) 0.3964(5)
N2_2 N 0.1195(5) 0.3312(4) 0.3972(6)
C14_2 C 0.7293(6) 0.4014(4) 0.4171(6)
C15_2 C 0.8599(6) 0.3472(5) 0.3749(7)
C16_2 C 0.9997(7) 0.3756(4) 0.4272(7)
C18_2 C 0.9692(7) 0.2228(5) 0.2590(8)
H15_2 H 0.9620 0.1701 0.2015
C19_2 C 0.8448(7) 0.2685(5) 0.2921(8)
H16_2 H 0.7528 0.2461 0.2588
loop_
_geom_bond_atom_site_label_1
_geom_bond_atom_site_label_2
_geom_bond_site_symmetry_1
_geom_bond_site_symmetry_2
H17 O9 1_555 1_555
H18 O9 1_555 1_555
Tb2 O8 1_555 1_555
Tb9 O21 1_555 1_555
C20 C17 1_555 1_555
O8 C20 1_555 1_555
O11 Tb2 1_555 1_555
O17 Tb2 1_555 1_555
O21 C20 1_555 1_555
N2 Tb2 1_555 1_555
C17 N2 1_555 1_555
C11 C12 1_555 1_555
C12 H10 1_555 1_555
H11 C12 1_555 1_555
H13 C13 1_555 1_555
C14 C15 1_555 1_555
C15 C16 1_555 1_555
C18 H15 1_555 1_555
C19 C15 1_555 1_555
H16 C19 1_555 1_555
O15 C11 1_555 1_555
C12 C13 1_555 1_555
C14 O11 1_555 1_555
C14 O18 1_555 1_555
C18 C19 1_555 1_555
C1 C2 1_555 1_555
C2 H1 1_555 1_555
H2 C2 1_555 1_555
C3 C2 1_555 1_555
H4 C3 1_555 1_555
O16 Tb4 1_555 1_555
C1 O14 1_555 1_555
C4 C5 1_555 1_555
C5 C6 1_555 1_555
C8 H6 1_555 1_555
C9 C5 1_555 1_555
H7 C9 1_555 1_555
O3 C4 1_555 1_555
O6 C4 1_555 1_555
Tb3 O3 1_555 1_555
Tb9 O6 1_555 1_555
C8 C9 1_555 1_555
H3_2 C3_2 1_555 1_555
H4_2 C3_2 1_555 1_555
Tb9 O12 1_555 1_555
Tb3 O12 1_555 1_555
C11_2 C12_2 1_555 1_555
C12_2 H10_2 1_555 1_555
H11_2 C12_2 1_555 1_555
O12 C11_2 1_555 1_555
O16_2 Tb9 1_555 1_555
C11_2 O16_2 1_555 1_555
Tb3 O1 1_555 1_555
C1_2 C2_2 1_555 1_555
C2_2 H1_2 1_555 1_555
H2_2 C2_2 1_555 1_555
C10 C7 1_555 1_555
O1 C10 1_555 1_555
O2 Tb3 1_555 1_555
H8 O2 1_555 1_555
H9 O2 1_555 1_555
O4 Tb3 1_555 1_555
O5 Tb3 1_555 1_555
O7 C10 1_555 1_555
N1 Tb3 1_555 1_555
Tb9 O4 1_555 1_555
H12_2 C13_2 1_555 1_555
H13_2 C13_2 1_555 1_555
O19 Tb3 1_555 1_555
O22 Tb3 1_555 1_555
C1_2 O4 1_555 1_555
C1_2 O5 1_555 1_555
C7 N1 1_555 1_555
C4_2 C5_2 1_555 1_555
C5_2 C6_2 1_555 1_555
C8_2 H6_2 1_555 1_555
C9_2 C5_2 1_555 1_555
H7_2 C9_2 1_555 1_555
O3_2 C4_2 1_555 1_555
O20 C4_2 1_555 1_555
Tb4 O3_2 1_555 1_555
C8_2 C9_2 1_555 1_555
Tb4 O1_2 1_555 1_555
C10_2 C7_2 1_555 1_555
O1_2 C10_2 1_555 1_555
O22 C10_2 1_555 1_555
N1_2 Tb4 1_555 1_555
C7_2 N1_2 1_555 1_555
H8_2 O2_2 1_555 1_555
H9_2 O2_2 1_555 1_555
Tb9 O8_2 1_555 1_555
C20_2 C17_2 1_555 1_555
O8_2 C20_2 1_555 1_555
O9_2 Tb9 1_555 1_555
H17_2 O9_2 1_555 1_555
H18_2 O9_2 1_555 1_555
O11_2 Tb9 1_555 1_555
O23 C20_2 1_555 1_555
N2_2 Tb9 1_555 1_555
C17_2 N2_2 1_555 1_555
C14_2 C15_2 1_555 1_555
C15_2 C16_2 1_555 1_555
C18_2 H15_2 1_555 1_555
C19_2 C15_2 1_555 1_555
H16_2 C19_2 1_555 1_555
C14_2 O11_2 1_555 1_555
C14_2 O19 1_555 1_555
C18_2 C19_2 1_555 1_555

#END
