
###############################################################################
#
# This file contains modified crystal structure data generated from the
# MOF subset of the Cambridge Structural Database (CSD) v543 
# hosted by the Cambridge Crystallographic Data Centre (CCDC).
#
# This work is licensed under the Creative Commons
# Attribution-NonCommercial-ShareAlike 4.0 International License.
# To view a copy of this license, visit
# http://creativecommons.org/licenses/by-nc-sa/4.0/
# or send a letter to
# Creative Commons, PO Box 1866, Mountain View, CA 94042, USA.
#
# CIF created using the CSD Python API on 29 September 2022
# The structure has been converted into the P1 space group
# The structure has a 3D framework
# The original CSD entry WOCVUG01 is in the monoclinic crystal system
# The original CSD entry WOCVUG01 is in a Sohncke space group
# The framework has been calculated to contain at least 10.0% void space
# The void calculation uses a probe of radius 1.32A, grid spacing 0.4
#
###############################################################################

data_WOCVUG01
_chemical_formula_moiety         '(C88 H96 Cu8 N4 O32)n'
_symmetry_cell_setting           triclinic
_symmetry_space_group_name_H-M   'P 1'
_symmetry_Int_Tables_number      1
_space_group_name_Hall           'P 1'
loop_
_symmetry_equiv_pos_site_id
_symmetry_equiv_pos_as_xyz
1 x,y,z
_cell_length_a                   20.9834(4)
_cell_length_b                   13.6998(2)
_cell_length_c                   9.1183(2)
_cell_angle_alpha                90
_cell_angle_beta                 103.8970(10)
_cell_angle_gamma                90
_cell_volume                     2544.5
loop_
_atom_site_label
_atom_site_type_symbol
_atom_site_fract_x
_atom_site_fract_y
_atom_site_fract_z
Cu6 Cu 0.30513(2) 0.06638(3) 0.82909(5)
Cu1 Cu 0.29958(2) 0.47329(3) 0.31672(5)
Cu2 Cu 0.19487(2) 0.56638(3) 0.17091(5)
O1 O 0.24566(11) 0.4641(2) 0.4666(3)
O2 O 0.15140(12) 0.5268(2) 0.3322(3)
O3 O 0.17023(12) 0.1035(2) 0.6042(3)
O4 O 0.26462(12) 0.1797(2) 0.7086(3)
O5 O 0.33946(12) 0.49696(19) 0.1447(3)
O6 O 0.25293(12) 0.58884(19) 0.0327(3)
N1 N 0.37776(14) 0.3970(2) 0.4704(3)
C1 C 0.4263(3) 0.4428(3) 0.5632(7)
H1 H 0.4290 0.5117 0.5538
C2 C 0.4736(2) 0.3973(3) 0.6730(6)
H2 H 0.5073 0.4347 0.7368
C3 C 0.47189(16) 0.2990(3) 0.6897(4)
C4 C 0.4213(3) 0.2517(4) 0.5945(7)
H3 H 0.4173 0.1829 0.6026
C5 C 0.3759(3) 0.3021(4) 0.4866(7)
H4 H 0.3418 0.2664 0.4211
C6 C 0.62259(19) 0.2404(3) 0.9957(5)
C7 C 0.5772(2) 0.2924(3) 0.8894(6)
H6 H 0.5835 0.3602 0.8757
C8 C 0.52281(16) 0.2459(3) 0.8035(4)
C9 C 0.51816(17) 0.1463(3) 0.8259(4)
H7 H 0.4824 0.1102 0.7671
C10 C 0.56580(17) 0.1000(3) 0.9342(4)
H8 H 0.5617 0.0317 0.9474
C11 C 0.18582(15) 0.4823(3) 0.4444(4)
C12 C 0.15177(17) 0.4490(3) 0.5666(4)
H9 H 0.1048 0.4343 0.5178
C13 C 0.18326(18) 0.3574(3) 0.6491(4)
H10 H 0.1606 0.3407 0.7293
H11 H 0.2298 0.3714 0.6982
C14 C 0.17998(18) 0.2695(3) 0.5429(4)
H12 H 0.1337 0.2582 0.4890
H13 H 0.2050 0.2849 0.4665
C15 C 0.20717(17) 0.1778(3) 0.6249(4)
C16 C 0.1541(2) 0.5329(3) 0.6793(4)
H14 H 0.1332 0.5909 0.6255
H15 H 0.2000 0.5478 0.7285
H16 H 0.1308 0.5137 0.7558
C17 C 0.30917(17) 0.5543(3) 0.0418(4)
H21 H 0.3100 0.7504 0.0382
H24 H 0.4316 0.6223 0.0443
O9 O 0.32977(12) 0.6035(2) 0.3958(3)
O10 O 0.23538(12) 0.6797(2) 0.2914(3)
O11 O 0.25353(12) 0.3560(2) 0.2153(3)
O12 O 0.16841(13) 0.4385(2) 0.0755(3)
N3 N 0.11724(14) 0.6455(2) 0.0212(3)
O7 O 0.24647(12) 0.8560(2) 0.7847(3)
O8 O 0.33159(13) 0.9385(2) 0.9245(3)
C18 C 0.34275(18) 0.5810(3) 0.9167(5)
H17 H 0.3286 0.5309 0.8357
C19 C 0.3185(2) 0.6801(3) 0.8442(4)
H18 H 0.3410 0.6935 0.7626
H19 H 0.2709 0.6750 0.7972
C20 C 0.32967(12) 0.7657(2) 0.9525(3)
H20 H 0.3775 0.7743 0.9934
C21 C 0.30068(12) 0.8615(2) 0.8805(3)
C22 C 0.41518(12) 0.5766(2) 0.9611(3)
H22 H 0.4329 0.5943 0.8746
H23 H 0.4291 0.5102 0.9940
Cu4 Cu 0.20042(2) 0.97329(3) 0.68328(5)
N2 N 0.38276(14) 0.1455(2) 0.9788(3)
H5 H 0.3404 0.2743 0.9462
H5_2 H 0.1596 0.7743 0.0538
C18_2 C 0.15725(18) 0.0810(3) 0.0833(5)
H17_2 H 0.1714 0.0309 0.1643
C19_2 C 0.1815(2) 0.1801(3) 0.1558(4)
H18_2 H 0.1590 0.1935 0.2374
H19_2 H 0.2291 0.1750 0.2028
C20_2 C 0.17033(12) 0.2657(2) 0.0475(3)
H20_2 H 0.1225 0.2743 0.0066
C21_2 C 0.19932(12) 0.3615(2) 0.1195(3)
C22_2 C 0.08482(12) 0.0766(2) 0.0389(3)
H22_2 H 0.0671 0.0943 0.1254
H23_2 H 0.0709 0.0102 0.0060
O2_2 O 0.34860(12) 0.0268(2) 0.6678(3)
O6_2 O 0.24707(12) 0.08884(19) 0.9673(3)
H1_2 H 0.0710 0.0117 0.4462
C16_2 C 0.3459(2) 0.0329(3) 0.3207(4)
H14_2 H 0.3668 0.0909 0.3745
H15_2 H 0.3000 0.0478 0.2715
H16_2 H 0.3692 0.0137 0.2442
C17_2 C 0.19083(17) 0.0543(3) 0.9582(4)
H21_2 H 0.1900 0.2504 0.9618
H24_2 H 0.0684 0.1223 0.9557
O1_2 O 0.25434(11) 0.9641(2) 0.5334(3)
O5_2 O 0.16054(12) 0.99696(19) 0.8553(3)
N1_2 N 0.12224(14) 0.8970(2) 0.5296(3)
C1_2 C 0.0737(3) 0.9428(3) 0.4368(7)
C2_2 C 0.0264(2) 0.8973(3) 0.3270(6)
C3_2 C 0.02811(16) 0.7990(3) 0.3103(4)
C4_2 C 0.0787(3) 0.7517(4) 0.4055(7)
H3_2 H 0.0827 0.6829 0.3974
C5_2 C 0.1241(3) 0.8021(4) 0.5134(7)
H4_2 H 0.1582 0.7664 0.5789
H7_2 H 0.0176 0.6102 0.2329
C11_2 C 0.31418(15) 0.9823(3) 0.5556(4)
C12_2 C 0.34823(17) 0.9490(3) 0.4334(4)
H9_2 H 0.3952 0.9343 0.4822
C13_2 C 0.31674(18) 0.8574(3) 0.3509(4)
H10_2 H 0.3394 0.8407 0.2707
H11_2 H 0.2702 0.8714 0.3018
C14_2 C 0.32002(18) 0.7695(3) 0.4571(4)
H12_2 H 0.3663 0.7582 0.5110
H13_2 H 0.2950 0.7849 0.5335
C15_2 C 0.29283(17) 0.6778(3) 0.3751(4)
N2_2 N 0.61724(14) 0.1455(2) 0.0212(3)
H5_3 H 0.6596 0.2743 0.0538
Cu7 Cu 0.69487(2) 0.06638(3) 0.17091(5)
O7_2 O 0.75353(12) 0.8560(2) 0.2153(3)
O8_2 O 0.66841(13) 0.9385(2) 0.0755(3)
C18_3 C 0.65725(18) 0.5810(3) 0.0833(5)
H17_3 H 0.6714 0.5309 0.1643
C19_3 C 0.6815(2) 0.6801(3) 0.1558(4)
H18_3 H 0.6590 0.6935 0.2374
H19_3 H 0.7291 0.6750 0.2028
C20_3 C 0.67033(12) 0.7657(2) 0.0475(3)
H20_3 H 0.6225 0.7743 0.0066
C21_3 C 0.69932(12) 0.8615(2) 0.1195(3)
C22_3 C 0.58482(12) 0.5766(2) 0.0389(3)
H22_3 H 0.5671 0.5943 0.1254
H23_3 H 0.5709 0.5102 0.0060
Cu4_2 Cu 0.79958(2) 0.97329(3) 0.31672(5)
Cu1_2 Cu 0.70042(2) 0.47329(3) 0.68328(5)
Cu2_2 Cu 0.80513(2) 0.56638(3) 0.82909(5)
O1_3 O 0.75434(11) 0.4641(2) 0.5334(3)
O2_3 O 0.84860(12) 0.5268(2) 0.6678(3)
O3_2 O 0.82977(12) 0.1035(2) 0.3958(3)
O4_2 O 0.73538(12) 0.1797(2) 0.2914(3)
O5_3 O 0.66054(12) 0.49696(19) 0.8553(3)
O6_3 O 0.74707(12) 0.58884(19) 0.9673(3)
N1_3 N 0.62224(14) 0.3970(2) 0.5296(3)
C1_3 C 0.5737(3) 0.4428(3) 0.4368(7)
H1_3 H 0.5710 0.5117 0.4462
C2_3 C 0.5264(2) 0.3973(3) 0.3270(6)
H2_2 H 0.4927 0.4347 0.2632
C3_3 C 0.52811(16) 0.2990(3) 0.3103(4)
C4_3 C 0.5787(3) 0.2517(4) 0.4055(7)
H3_3 H 0.5827 0.1829 0.3974
C5_3 C 0.6241(3) 0.3021(4) 0.5134(7)
H4_3 H 0.6582 0.2664 0.5789
C6_2 C 0.37741(19) 0.2404(3) 0.0043(5)
C7_2 C 0.4228(2) 0.2924(3) 0.1106(6)
H6_2 H 0.4165 0.3602 0.1243
C8_2 C 0.47719(16) 0.2459(3) 0.1965(4)
C9_2 C 0.48184(17) 0.1463(3) 0.1741(4)
H7_3 H 0.5176 0.1102 0.2329
C10_2 C 0.43420(17) 0.1000(3) 0.0658(4)
H8_2 H 0.4383 0.0317 0.0526
C11_3 C 0.81418(15) 0.4823(3) 0.5556(4)
C12_3 C 0.84823(17) 0.4490(3) 0.4334(4)
H9_3 H 0.8952 0.4343 0.4822
C13_3 C 0.81674(18) 0.3574(3) 0.3509(4)
H10_3 H 0.8394 0.3407 0.2707
H11_3 H 0.7702 0.3714 0.3018
C14_3 C 0.82002(18) 0.2695(3) 0.4571(4)
H12_3 H 0.8663 0.2582 0.5110
H13_3 H 0.7950 0.2849 0.5335
C15_3 C 0.79283(17) 0.1778(3) 0.3751(4)
C16_3 C 0.8459(2) 0.5329(3) 0.3207(4)
H14_3 H 0.8668 0.5909 0.3745
H15_3 H 0.8000 0.5478 0.2715
H16_3 H 0.8692 0.5137 0.2442
C17_3 C 0.69083(17) 0.5543(3) 0.9582(4)
H21_3 H 0.6900 0.7504 0.9618
H24_3 H 0.5684 0.6223 0.9557
O9_2 O 0.67023(12) 0.6035(2) 0.6042(3)
O10_2 O 0.76462(12) 0.6797(2) 0.7086(3)
O11_2 O 0.74647(12) 0.3560(2) 0.7847(3)
O12_2 O 0.83159(13) 0.4385(2) 0.9245(3)
N3_2 N 0.88276(14) 0.6455(2) 0.9788(3)
O2_4 O 0.65140(12) 0.0268(2) 0.3322(3)
O6_4 O 0.75293(12) 0.08884(19) 0.0327(3)
H1_4 H 0.9290 0.0117 0.5538
C16_4 C 0.6541(2) 0.0329(3) 0.6793(4)
H14_4 H 0.6332 0.0909 0.6255
H15_4 H 0.7000 0.0478 0.7285
H16_4 H 0.6308 0.0137 0.7558
C17_4 C 0.80917(17) 0.0543(3) 0.0418(4)
H21_4 H 0.8100 0.2504 0.0382
H24_4 H 0.9316 0.1223 0.0443
C18_4 C 0.84275(18) 0.0810(3) 0.9167(5)
H17_4 H 0.8286 0.0309 0.8357
C19_4 C 0.8185(2) 0.1801(3) 0.8442(4)
H18_4 H 0.8410 0.1935 0.7626
H19_4 H 0.7709 0.1750 0.7972
C20_4 C 0.82967(12) 0.2657(2) 0.9525(3)
H20_4 H 0.8775 0.2743 0.9934
C21_4 C 0.80068(12) 0.3615(2) 0.8805(3)
C22_4 C 0.91518(12) 0.0766(2) 0.9611(3)
H22_4 H 0.9329 0.0943 0.8746
H23_4 H 0.9291 0.0102 0.9940
O1_4 O 0.74566(11) 0.9641(2) 0.4666(3)
O5_4 O 0.83946(12) 0.99696(19) 0.1447(3)
N1_4 N 0.87776(14) 0.8970(2) 0.4704(3)
C1_4 C 0.9263(3) 0.9428(3) 0.5632(7)
C2_4 C 0.9736(2) 0.8973(3) 0.6730(6)
C3_4 C 0.97189(16) 0.7990(3) 0.6897(4)
C4_4 C 0.9213(3) 0.7517(4) 0.5945(7)
H3_4 H 0.9173 0.6829 0.6026
C5_4 C 0.8759(3) 0.8021(4) 0.4866(7)
H4_4 H 0.8418 0.7664 0.4211
H7_4 H 0.9824 0.6102 0.7671
C11_4 C 0.68582(15) 0.9823(3) 0.4444(4)
C12_4 C 0.65177(17) 0.9490(3) 0.5666(4)
H9_4 H 0.6048 0.9343 0.5178
C13_4 C 0.68326(18) 0.8574(3) 0.6491(4)
H10_4 H 0.6606 0.8407 0.7293
H11_4 H 0.7298 0.8714 0.6982
C14_4 C 0.67998(18) 0.7695(3) 0.5429(4)
H12_4 H 0.6337 0.7582 0.4890
H13_4 H 0.7050 0.7849 0.4665
C15_4 C 0.70717(17) 0.6778(3) 0.6249(4)
H5_4 H 0.8404 0.7743 0.9462
H2_3 H 0.0073 0.9347 0.7368
C6_3 C 0.12259(19) 0.7404(3) 0.9957(5)
C7_3 C 0.0772(2) 0.7924(3) 0.8894(6)
H6_3 H 0.0835 0.8602 0.8757
C8_3 C 0.02281(16) 0.7459(3) 0.8035(4)
C9_3 C 0.01816(17) 0.6463(3) 0.8259(4)
C10_3 C 0.06580(17) 0.6000(3) 0.9342(4)
H8_3 H 0.0617 0.5317 0.9474
H2_4 H 0.9927 0.9347 0.2632
C6_4 C 0.87741(19) 0.7404(3) 0.0043(5)
C7_4 C 0.9228(2) 0.7924(3) 0.1106(6)
H6_4 H 0.9165 0.8602 0.1243
C8_4 C 0.97719(16) 0.7459(3) 0.1965(4)
C9_4 C 0.98184(17) 0.6463(3) 0.1741(4)
C10_4 C 0.93420(17) 0.6000(3) 0.0658(4)
H8_4 H 0.9383 0.5317 0.0526
loop_
_geom_bond_atom_site_label_1
_geom_bond_atom_site_label_2
_geom_bond_site_symmetry_1
_geom_bond_site_symmetry_2
Cu1 O1 1_555 1_555
Cu2 O2 1_555 1_555
O1 C11 1_555 1_555
O2 C11 1_555 1_555
O3 C15 1_555 1_555
O4 C15 1_555 1_555
O5 Cu1 1_555 1_555
O6 Cu2 1_555 1_555
N1 Cu1 1_555 1_555
C1 N1 1_555 1_555
H1 C1 1_555 1_555
C2 C1 1_555 1_555
H2 C2 1_555 1_555
C3 C2 1_555 1_555
C4 C3 1_555 1_555
H3 C4 1_555 1_555
C5 N1 1_555 1_555
H4 C5 1_555 1_555
C7 C6 1_555 1_555
H6 C7 1_555 1_555
C8 C3 1_555 1_555
C9 C8 1_555 1_555
H7 C9 1_555 1_555
H8 C10 1_555 1_555
C11 C12 1_555 1_555
C12 H9 1_555 1_555
C13 C12 1_555 1_555
H10 C13 1_555 1_555
H11 C13 1_555 1_555
C14 C13 1_555 1_555
H12 C14 1_555 1_555
H13 C14 1_555 1_555
C15 C14 1_555 1_555
C16 C12 1_555 1_555
H14 C16 1_555 1_555
H15 C16 1_555 1_555
H16 C16 1_555 1_555
C17 O5 1_555 1_555
Cu6 O4 1_555 1_555
O9 Cu1 1_555 1_555
O10 Cu2 1_555 1_555
O11 Cu1 1_555 1_555
O12 Cu2 1_555 1_555
N3 Cu2 1_555 1_555
O6 C17 1_555 1_555
C4 C5 1_555 1_555
C7 C8 1_555 1_555
C9 C10 1_555 1_555
O7 C21 1_555 1_555
O8 C21 1_555 1_555
H17 C18 1_555 1_555
C19 C18 1_555 1_555
H18 C19 1_555 1_555
H19 C19 1_555 1_555
C20 C19 1_555 1_555
H20 C20 1_555 1_555
C21 C20 1_555 1_555
C22 C18 1_555 1_555
H22 C22 1_555 1_555
H23 C22 1_555 1_555
Cu4 O7 1_555 1_555
Cu6 N2 1_555 1_555
O11 C21_2 1_555 1_555
O12 C21_2 1_555 1_555
H17_2 C18_2 1_555 1_555
C19_2 C18_2 1_555 1_555
H18_2 C19_2 1_555 1_555
H19_2 C19_2 1_555 1_555
C20_2 C19_2 1_555 1_555
H20_2 C20_2 1_555 1_555
C21_2 C20_2 1_555 1_555
C22_2 C18_2 1_555 1_555
H22_2 C22_2 1_555 1_555
H23_2 C22_2 1_555 1_555
Cu6 O2_2 1_555 1_555
O6_2 Cu6 1_555 1_555
H14_2 C16_2 1_555 1_555
H15_2 C16_2 1_555 1_555
H16_2 C16_2 1_555 1_555
O6_2 C17_2 1_555 1_555
Cu4 O1_2 1_555 1_555
O1_2 C11_2 1_555 1_555
O9 C15_2 1_555 1_555
O10 C15_2 1_555 1_555
O5_2 Cu4 1_555 1_555
N1_2 Cu4 1_555 1_555
C1_2 N1_2 1_555 1_555
C2_2 C1_2 1_555 1_555
C3_2 C2_2 1_555 1_555
C4_2 C3_2 1_555 1_555
H3_2 C4_2 1_555 1_555
C5_2 N1_2 1_555 1_555
H4_2 C5_2 1_555 1_555
C11_2 C12_2 1_555 1_555
C12_2 H9_2 1_555 1_555
C13_2 C12_2 1_555 1_555
H10_2 C13_2 1_555 1_555
H11_2 C13_2 1_555 1_555
C14_2 C13_2 1_555 1_555
H12_2 C14_2 1_555 1_555
H13_2 C14_2 1_555 1_555
C15_2 C14_2 1_555 1_555
C4_2 C5_2 1_555 1_555
Cu7 N2_2 1_555 1_555
O7_2 C21_3 1_555 1_555
O8_2 C21_3 1_555 1_555
H17_3 C18_3 1_555 1_555
C19_3 C18_3 1_555 1_555
H18_3 C19_3 1_555 1_555
H19_3 C19_3 1_555 1_555
C20_3 C19_3 1_555 1_555
H20_3 C20_3 1_555 1_555
C21_3 C20_3 1_555 1_555
C22_3 C18_3 1_555 1_555
H22_3 C22_3 1_555 1_555
H23_3 C22_3 1_555 1_555
Cu4_2 O7_2 1_555 1_555
Cu1_2 O1_3 1_555 1_555
Cu2_2 O2_3 1_555 1_555
O1_3 C11_3 1_555 1_555
O2_3 C11_3 1_555 1_555
O3_2 C15_3 1_555 1_555
O4_2 C15_3 1_555 1_555
O5_3 Cu1_2 1_555 1_555
O6_3 Cu2_2 1_555 1_555
N1_3 Cu1_2 1_555 1_555
C1_3 N1_3 1_555 1_555
H1_3 C1_3 1_555 1_555
C2_3 C1_3 1_555 1_555
H2_2 C2_3 1_555 1_555
C3_3 C2_3 1_555 1_555
C4_3 C3_3 1_555 1_555
H3_3 C4_3 1_555 1_555
C5_3 N1_3 1_555 1_555
H4_3 C5_3 1_555 1_555
C7_2 C6_2 1_555 1_555
H6_2 C7_2 1_555 1_555
C8_2 C3_3 1_555 1_555
C9_2 C8_2 1_555 1_555
H7_3 C9_2 1_555 1_555
H8_2 C10_2 1_555 1_555
C11_3 C12_3 1_555 1_555
C12_3 H9_3 1_555 1_555
C13_3 C12_3 1_555 1_555
H10_3 C13_3 1_555 1_555
H11_3 C13_3 1_555 1_555
C14_3 C13_3 1_555 1_555
H12_3 C14_3 1_555 1_555
H13_3 C14_3 1_555 1_555
C15_3 C14_3 1_555 1_555
C16_3 C12_3 1_555 1_555
H14_3 C16_3 1_555 1_555
H15_3 C16_3 1_555 1_555
H16_3 C16_3 1_555 1_555
C17_3 O5_3 1_555 1_555
Cu7 O4_2 1_555 1_555
O9_2 Cu1_2 1_555 1_555
O10_2 Cu2_2 1_555 1_555
O11_2 Cu1_2 1_555 1_555
O12_2 Cu2_2 1_555 1_555
N3_2 Cu2_2 1_555 1_555
O6_3 C17_3 1_555 1_555
C4_3 C5_3 1_555 1_555
C7_2 C8_2 1_555 1_555
C9_2 C10_2 1_555 1_555
Cu7 O2_4 1_555 1_555
O6_4 Cu7 1_555 1_555
H14_4 C16_4 1_555 1_555
H15_4 C16_4 1_555 1_555
H16_4 C16_4 1_555 1_555
O6_4 C17_4 1_555 1_555
O11_2 C21_4 1_555 1_555
O12_2 C21_4 1_555 1_555
H17_4 C18_4 1_555 1_555
C19_4 C18_4 1_555 1_555
H18_4 C19_4 1_555 1_555
H19_4 C19_4 1_555 1_555
C20_4 C19_4 1_555 1_555
H20_4 C20_4 1_555 1_555
C21_4 C20_4 1_555 1_555
C22_4 C18_4 1_555 1_555
H22_4 C22_4 1_555 1_555
H23_4 C22_4 1_555 1_555
Cu4_2 O1_4 1_555 1_555
O1_4 C11_4 1_555 1_555
O9_2 C15_4 1_555 1_555
O10_2 C15_4 1_555 1_555
O5_4 Cu4_2 1_555 1_555
N1_4 Cu4_2 1_555 1_555
C1_4 N1_4 1_555 1_555
C2_4 C1_4 1_555 1_555
C3_4 C2_4 1_555 1_555
C4_4 C3_4 1_555 1_555
H3_4 C4_4 1_555 1_555
C5_4 N1_4 1_555 1_555
H4_4 C5_4 1_555 1_555
C11_4 C12_4 1_555 1_555
C12_4 H9_4 1_555 1_555
C13_4 C12_4 1_555 1_555
H10_4 C13_4 1_555 1_555
H11_4 C13_4 1_555 1_555
C14_4 C13_4 1_555 1_555
H12_4 C14_4 1_555 1_555
H13_4 C14_4 1_555 1_555
C15_4 C14_4 1_555 1_555
C4_4 C5_4 1_555 1_555
C7_3 C6_3 1_555 1_555
H6_3 C7_3 1_555 1_555
C9_3 C8_3 1_555 1_555
H8_3 C10_3 1_555 1_555
C7_3 C8_3 1_555 1_555
C9_3 C10_3 1_555 1_555
C7_4 C6_4 1_555 1_555
H6_4 C7_4 1_555 1_555
C9_4 C8_4 1_555 1_555
H8_4 C10_4 1_555 1_555
C7_4 C8_4 1_555 1_555
C9_4 C10_4 1_555 1_555

#END
