
###############################################################################
#
# This file contains modified crystal structure data generated from the
# MOF subset of the Cambridge Structural Database (CSD) v543 
# hosted by the Cambridge Crystallographic Data Centre (CCDC).
#
# This work is licensed under the Creative Commons
# Attribution-NonCommercial-ShareAlike 4.0 International License.
# To view a copy of this license, visit
# http://creativecommons.org/licenses/by-nc-sa/4.0/
# or send a letter to
# Creative Commons, PO Box 1866, Mountain View, CA 94042, USA.
#
# CIF created using the CSD Python API on 29 September 2022
# The structure has been converted into the P1 space group
# The structure has a 3D framework
# The original CSD entry WOCVES is in the monoclinic crystal system
# The framework has been calculated to contain at least 10.0% void space
# The void calculation uses a probe of radius 1.32A, grid spacing 0.4
#
###############################################################################

data_WOCVES
_chemical_formula_moiety         '(C80 H48 Co4 N16 O24 S8)n'
_symmetry_cell_setting           triclinic
_symmetry_space_group_name_H-M   'P 1'
_symmetry_Int_Tables_number      1
_space_group_name_Hall           'P 1'
loop_
_symmetry_equiv_pos_site_id
_symmetry_equiv_pos_as_xyz
1 x,y,z
_cell_length_a                   17.33(2)
_cell_length_b                   9.707(7)
_cell_length_c                   15.16(2)
_cell_angle_alpha                90
_cell_angle_beta                 99.54(11)
_cell_angle_gamma                90
_cell_volume                     2514.98
loop_
_atom_site_label
_atom_site_type_symbol
_atom_site_fract_x
_atom_site_fract_y
_atom_site_fract_z
Co1 Co 0.03839(2) 0.57943(4) 0.65590(3)
O2 O 0.02995(13) 0.6366(2) 0.52407(14)
O3 O 0.05725(15) 0.7805(3) 0.70854(17)
H11 H 0.032(3) 0.853(6) 0.702(4)
H12 H 0.078(3) 0.776(5) 0.761(3)
O7 O 0.03493(13) 0.3710(2) 0.61698(14)
O8 O 0.04804(13) 0.5072(2) 0.78884(13)
N5 N 0.16852(16) 0.5708(3) 0.66164(19)
O5 O 0.95196(13) 0.0072(2) 0.71116(13)
O6 O 0.87779(16) 0.1713(3) 0.63524(16)
C5 C 0.91284(19) 0.0602(3) 0.6405(2)
C12 C 0.8764(2) 0.0102(4) 0.4708(2)
H7 H 0.8463 0.0870 0.4510
Co3 Co 0.96161(2) 0.07943(4) 0.84410(3)
S1 S 0.45990(6) 0.42430(14) 0.61515(12)
S2 S 0.62138(7) 0.71900(16) 0.70633(13)
O1 O 0.96507(13) 0.6290(2) 0.38302(14)
O4 O 0.95015(13) 0.8622(2) 0.55891(14)
N1 N 0.91122(15) 0.5888(3) 0.65101(17)
C1 C 0.98143(17) 0.6818(3) 0.4601(2)
C2 C 0.94028(19) 0.8117(3) 0.4741(2)
C3 C 0.75076(19) 0.5872(4) 0.6558(2)
C4 C 0.91031(19) 0.9836(3) 0.5559(2)
N3 N 0.62154(18) 0.4814(4) 0.6291(3)
C6 C 0.2018(2) 0.4687(4) 0.6241(3)
H1 H 0.1696 0.3989 0.5968
C7 C 0.7986(2) 0.6935(4) 0.6942(2)
H2 H 0.7774 0.7667 0.7218
C8 C 0.87685(19) 0.6895(4) 0.6912(2)
H3 H 0.9081 0.7605 0.7185
C9 C 0.7853(2) 0.4830(4) 0.6146(3)
H4 H 0.7555 0.4095 0.5885
C10 C 0.86432(19) 0.4886(4) 0.6124(2)
H5 H 0.8863 0.4190 0.5826
C11 C 0.8951(3) 0.8996(4) 0.4177(2)
H6 H 0.8796 0.8889 0.3564
N4 N 0.46043(19) 0.6601(4) 0.6947(3)
C13 C 0.3302(2) 0.5595(4) 0.6616(3)
C14 C 0.6667(2) 0.5835(4) 0.6597(3)
C15 C 0.2813(2) 0.4586(4) 0.6226(3)
H8 H 0.3011 0.3837 0.5952
C16 C 0.5469(2) 0.5107(4) 0.6420(3)
C17 C 0.5348(2) 0.6295(5) 0.6816(3)
C18 C 0.2170(2) 0.6692(5) 0.6997(3)
H9 H 0.1955 0.7432 0.7262
C19 C 0.4147(2) 0.5588(5) 0.6614(3)
C20 C 0.2968(2) 0.6671(5) 0.7019(3)
H10 H 0.3280 0.7374 0.7302
Co4 Co 0.96161(2) 0.42057(4) 0.34410(3)
S2_2 S 0.37862(7) 0.21900(16) 0.79367(13)
O4_2 O 0.04985(13) 0.3622(2) 0.94109(14)
O6_2 O 0.12221(16) 0.6713(3) 0.86476(16)
N1_2 N 0.08878(15) 0.0888(3) 0.84899(17)
N2 N 0.83148(16) 0.0708(3) 0.83836(19)
C3_2 C 0.24924(19) 0.0872(4) 0.8442(2)
C4_2 C 0.08969(19) 0.4836(3) 0.9441(2)
C5_2 C 0.08716(19) 0.5602(3) 0.8595(2)
C7_2 C 0.2014(2) 0.1935(4) 0.8058(2)
H2_2 H 0.2226 0.2667 0.7782
C8_2 C 0.12315(19) 0.1895(4) 0.8088(2)
H3_2 H 0.0919 0.2605 0.7815
N4_2 N 0.53957(19) 0.1601(4) 0.8053(3)
C13_2 C 0.6698(2) 0.0595(4) 0.8384(3)
C14_2 C 0.3333(2) 0.0835(4) 0.8403(3)
C16_2 C 0.4531(2) 0.0107(4) 0.8580(3)
C17_2 C 0.4652(2) 0.1295(5) 0.8184(3)
C18_2 C 0.7830(2) 0.1692(5) 0.8003(3)
H9_2 H 0.8045 0.2432 0.7738
C19_2 C 0.5853(2) 0.0588(5) 0.8386(3)
C20_2 C 0.7032(2) 0.1671(5) 0.7981(3)
H10_2 H 0.6720 0.2374 0.7698
Co4_2 Co 0.03839(2) 0.92057(4) 0.15590(3)
O2_2 O 0.97005(13) 0.1366(2) 0.97593(14)
O3_2 O 0.94275(15) 0.2805(3) 0.79146(17)
H11_2 H 0.968(3) 0.353(6) 0.798(4)
H12_2 H 0.922(3) 0.276(5) 0.739(3)
S1_2 S 0.54010(6) 0.57570(14) 0.38485(12)
S2_3 S 0.37862(7) 0.28100(16) 0.29367(13)
O4_3 O 0.04985(13) 0.1378(2) 0.44109(14)
N1_3 N 0.08878(15) 0.4112(3) 0.34899(17)
N2_2 N 0.83148(16) 0.4292(3) 0.33836(19)
C1_2 C 0.01857(17) 0.3182(3) 0.5399(2)
C2_2 C 0.05972(19) 0.1883(3) 0.5259(2)
C3_3 C 0.24924(19) 0.4128(4) 0.3442(2)
C4_3 C 0.08969(19) 0.0164(3) 0.4441(2)
N3_2 N 0.37846(18) 0.5186(4) 0.3709(3)
C6_2 C 0.7982(2) 0.5313(4) 0.3759(3)
H1_2 H 0.8304 0.6011 0.4032
C7_3 C 0.2014(2) 0.3065(4) 0.3058(2)
H2_3 H 0.2226 0.2333 0.2782
C8_3 C 0.12315(19) 0.3105(4) 0.3088(2)
H3_3 H 0.0919 0.2395 0.2815
C9_2 C 0.2147(2) 0.5170(4) 0.3854(3)
H4_2 H 0.2445 0.5905 0.4115
C10_2 C 0.13568(19) 0.5114(4) 0.3876(2)
H5_2 H 0.1137 0.5810 0.4174
C11_2 C 0.1049(3) 0.1004(4) 0.5823(2)
H6_2 H 0.1204 0.1111 0.6436
N4_3 N 0.53957(19) 0.3399(4) 0.3053(3)
C13_3 C 0.6698(2) 0.4405(4) 0.3384(3)
C14_3 C 0.3333(2) 0.4165(4) 0.3403(3)
C15_2 C 0.7187(2) 0.5414(4) 0.3774(3)
H8_2 H 0.6989 0.6163 0.4048
C16_3 C 0.4531(2) 0.4893(4) 0.3580(3)
C17_3 C 0.4652(2) 0.3705(5) 0.3184(3)
C18_3 C 0.7830(2) 0.3308(5) 0.3003(3)
H9_3 H 0.8045 0.2568 0.2738
C19_3 C 0.5853(2) 0.4412(5) 0.3386(3)
C20_3 C 0.7032(2) 0.3329(5) 0.2981(3)
H10_3 H 0.6720 0.2626 0.2698
O5_2 O 0.04804(13) 0.9928(2) 0.28884(13)
O6_3 O 0.12221(16) 0.8287(3) 0.36476(16)
C5_3 C 0.08716(19) 0.9398(3) 0.3595(2)
C12_2 C 0.1236(2) 0.9898(4) 0.5292(2)
H7_2 H 0.1537 0.9130 0.5490
O2_3 O 0.97005(13) 0.3634(2) 0.47593(14)
O3_3 O 0.94275(15) 0.2195(3) 0.29146(17)
H11_3 H 0.968(3) 0.147(6) 0.298(4)
H12_3 H 0.922(3) 0.224(5) 0.239(3)
O8_2 O 0.95196(13) 0.4928(2) 0.21116(13)
O2_4 O 0.02995(13) 0.8634(2) 0.02407(14)
O3_4 O 0.05725(15) 0.7195(3) 0.20854(17)
H11_4 H 0.032(3) 0.647(6) 0.202(4)
H12_4 H 0.078(3) 0.724(5) 0.261(3)
N5_2 N 0.16852(16) 0.9292(3) 0.16164(19)
S2_4 S 0.62138(7) 0.78100(16) 0.20633(13)
O4_4 O 0.95015(13) 0.6378(2) 0.05891(14)
O6_4 O 0.87779(16) 0.3287(3) 0.13524(16)
N1_4 N 0.91122(15) 0.9112(3) 0.15101(17)
C3_4 C 0.75076(19) 0.9128(4) 0.1558(2)
C4_4 C 0.91031(19) 0.5164(3) 0.0559(2)
C5_4 C 0.91284(19) 0.4398(3) 0.1405(2)
C7_4 C 0.7986(2) 0.8065(4) 0.1942(2)
H2_4 H 0.7774 0.7333 0.2218
C8_4 C 0.87685(19) 0.8105(4) 0.1912(2)
H3_4 H 0.9081 0.7395 0.2185
N4_4 N 0.46043(19) 0.8399(4) 0.1947(3)
C13_4 C 0.3302(2) 0.9405(4) 0.1616(3)
C14_4 C 0.6667(2) 0.9165(4) 0.1597(3)
C16_4 C 0.5469(2) 0.9893(4) 0.1420(3)
C17_4 C 0.5348(2) 0.8705(5) 0.1816(3)
C18_4 C 0.2170(2) 0.8308(5) 0.1997(3)
H9_4 H 0.1955 0.7568 0.2262
C19_4 C 0.4147(2) 0.9412(5) 0.1614(3)
C20_4 C 0.2968(2) 0.8329(5) 0.2019(3)
H10_4 H 0.3280 0.7626 0.2302
O1_2 O 0.03493(13) 0.1290(2) 0.11698(14)
C1_3 C 0.01857(17) 0.1818(3) 0.0399(2)
C2_3 C 0.05972(19) 0.3117(3) 0.0259(2)
C11_3 C 0.1049(3) 0.3996(4) 0.0823(2)
H6_3 H 0.1204 0.3889 0.1436
C12_3 C 0.1236(2) 0.5102(4) 0.0292(2)
H7_3 H 0.1537 0.5870 0.0490
S1_3 S 0.54010(6) 0.92430(14) 0.88485(12)
N3_3 N 0.37846(18) 0.9814(4) 0.8709(3)
C6_3 C 0.7982(2) 0.9687(4) 0.8759(3)
H1_3 H 0.8304 0.8989 0.9032
C9_3 C 0.2147(2) 0.9830(4) 0.8854(3)
H4_3 H 0.2445 0.9095 0.9115
C10_3 C 0.13568(19) 0.9886(4) 0.8876(2)
H5_3 H 0.1137 0.9190 0.9174
C15_3 C 0.7187(2) 0.9586(4) 0.8774(3)
H8_3 H 0.6989 0.8837 0.9048
O7_2 O 0.96507(13) 0.8710(2) 0.88302(14)
C1_4 C 0.98143(17) 0.8182(3) 0.9601(2)
C2_4 C 0.94028(19) 0.6883(3) 0.9741(2)
C11_4 C 0.8951(3) 0.6004(4) 0.9177(2)
H6_4 H 0.8796 0.6111 0.8564
C12_4 C 0.8764(2) 0.4898(4) 0.9708(2)
H7_4 H 0.8463 0.4130 0.9510
S1_4 S 0.45990(6) 0.07570(14) 0.11515(12)
N3_4 N 0.62154(18) 0.0186(4) 0.1291(3)
C6_4 C 0.2018(2) 0.0313(4) 0.1241(3)
H1_4 H 0.1696 0.1011 0.0968
C9_4 C 0.7853(2) 0.0170(4) 0.1146(3)
H4_4 H 0.7555 0.0905 0.0885
C10_4 C 0.86432(19) 0.0114(4) 0.1124(2)
H5_4 H 0.8863 0.0810 0.0826
C15_4 C 0.2813(2) 0.0414(4) 0.1226(3)
H8_4 H 0.3011 0.1163 0.0952
loop_
_geom_bond_atom_site_label_1
_geom_bond_atom_site_label_2
_geom_bond_site_symmetry_1
_geom_bond_site_symmetry_2
Co1 O2 1_555 1_555
O3 Co1 1_555 1_555
H11 O3 1_555 1_555
H12 O3 1_555 1_555
O7 Co1 1_555 1_555
O8 Co1 1_555 1_555
N5 Co1 1_555 1_555
O5 C5 1_555 1_555
O6 C5 1_555 1_555
H7 C12 1_555 1_555
Co3 O5 1_555 1_555
S1 C16 1_555 1_555
S2 C14 1_555 1_555
O1 C1 1_555 1_555
O4 C2 1_555 1_555
N5 C6 1_555 1_555
C1 C2 1_555 1_555
C2 C11 1_555 1_555
C3 C7 1_555 1_555
C4 O4 1_555 1_555
N3 C14 1_555 1_555
C6 H1 1_555 1_555
C7 H2 1_555 1_555
C8 N1 1_555 1_555
H3 C8 1_555 1_555
C9 C3 1_555 1_555
H4 C9 1_555 1_555
C10 N1 1_555 1_555
H5 C10 1_555 1_555
C11 H6 1_555 1_555
N4 C17 1_555 1_555
C13 C15 1_555 1_555
C14 C3 1_555 1_555
C15 C6 1_555 1_555
H8 C15 1_555 1_555
C16 N3 1_555 1_555
C17 S2 1_555 1_555
C18 N5 1_555 1_555
H9 C18 1_555 1_555
C19 S1 1_555 1_555
C20 C13 1_555 1_555
H10 C20 1_555 1_555
Co4 O1 1_555 1_555
C7 C8 1_555 1_555
C9 C10 1_555 1_555
N4 C19 1_555 1_555
C13 C19 1_555 1_555
C16 C17 1_555 1_555
C18 C20 1_555 1_555
S2_2 C14_2 1_555 1_555
O8 C5_2 1_555 1_555
O6_2 C5_2 1_555 1_555
C3_2 C7_2 1_555 1_555
C4_2 O4_2 1_555 1_555
C5_2 C4_2 1_555 1_555
C7_2 H2_2 1_555 1_555
C8_2 N1_2 1_555 1_555
H3_2 C8_2 1_555 1_555
N4_2 C17_2 1_555 1_555
C14_2 C3_2 1_555 1_555
C17_2 S2_2 1_555 1_555
C18_2 N2 1_555 1_555
H9_2 C18_2 1_555 1_555
C20_2 C13_2 1_555 1_555
H10_2 C20_2 1_555 1_555
Co3 N2 1_555 1_555
C7_2 C8_2 1_555 1_555
N4_2 C19_2 1_555 1_555
C13_2 C19_2 1_555 1_555
C16_2 C17_2 1_555 1_555
C18_2 C20_2 1_555 1_555
Co3 O2_2 1_555 1_555
O3_2 Co3 1_555 1_555
H11_2 O3_2 1_555 1_555
H12_2 O3_2 1_555 1_555
S1_2 C16_3 1_555 1_555
S2_3 C14_3 1_555 1_555
O7 C1_2 1_555 1_555
O4_3 C2_2 1_555 1_555
N2_2 C6_2 1_555 1_555
C1_2 C2_2 1_555 1_555
C2_2 C11_2 1_555 1_555
C3_3 C7_3 1_555 1_555
C4_3 O4_3 1_555 1_555
N3_2 C14_3 1_555 1_555
C6_2 H1_2 1_555 1_555
C7_3 H2_3 1_555 1_555
C8_3 N1_3 1_555 1_555
H3_3 C8_3 1_555 1_555
C9_2 C3_3 1_555 1_555
H4_2 C9_2 1_555 1_555
C10_2 N1_3 1_555 1_555
H5_2 C10_2 1_555 1_555
C11_2 H6_2 1_555 1_555
N4_3 C17_3 1_555 1_555
C13_3 C15_2 1_555 1_555
C14_3 C3_3 1_555 1_555
C15_2 C6_2 1_555 1_555
H8_2 C15_2 1_555 1_555
C16_3 N3_2 1_555 1_555
C17_3 S2_3 1_555 1_555
C18_3 N2_2 1_555 1_555
H9_3 C18_3 1_555 1_555
C19_3 S1_2 1_555 1_555
C20_3 C13_3 1_555 1_555
H10_3 C20_3 1_555 1_555
Co4 N2_2 1_555 1_555
C7_3 C8_3 1_555 1_555
C9_2 C10_2 1_555 1_555
N4_3 C19_3 1_555 1_555
C13_3 C19_3 1_555 1_555
C16_3 C17_3 1_555 1_555
C18_3 C20_3 1_555 1_555
O5_2 C5_3 1_555 1_555
O6_3 C5_3 1_555 1_555
H7_2 C12_2 1_555 1_555
Co4_2 O5_2 1_555 1_555
Co4 O2_3 1_555 1_555
O3_3 Co4 1_555 1_555
H11_3 O3_3 1_555 1_555
H12_3 O3_3 1_555 1_555
O8_2 Co4 1_555 1_555
Co4_2 O2_4 1_555 1_555
O3_4 Co4_2 1_555 1_555
H11_4 O3_4 1_555 1_555
H12_4 O3_4 1_555 1_555
N5_2 Co4_2 1_555 1_555
S2_4 C14_4 1_555 1_555
O8_2 C5_4 1_555 1_555
O6_4 C5_4 1_555 1_555
C3_4 C7_4 1_555 1_555
C4_4 O4_4 1_555 1_555
C5_4 C4_4 1_555 1_555
C7_4 H2_4 1_555 1_555
C8_4 N1_4 1_555 1_555
H3_4 C8_4 1_555 1_555
N4_4 C17_4 1_555 1_555
C14_4 C3_4 1_555 1_555
C17_4 S2_4 1_555 1_555
C18_4 N5_2 1_555 1_555
H9_4 C18_4 1_555 1_555
C20_4 C13_4 1_555 1_555
H10_4 C20_4 1_555 1_555
C7_4 C8_4 1_555 1_555
N4_4 C19_4 1_555 1_555
C13_4 C19_4 1_555 1_555
C16_4 C17_4 1_555 1_555
C18_4 C20_4 1_555 1_555
O1_2 C1_3 1_555 1_555
C1_3 C2_3 1_555 1_555
C2_3 C11_3 1_555 1_555
C11_3 H6_3 1_555 1_555
H7_3 C12_3 1_555 1_555
C11_3 C12_3 1_555 1_555
C6_3 H1_3 1_555 1_555
H4_3 C9_3 1_555 1_555
H5_3 C10_3 1_555 1_555
C15_3 C6_3 1_555 1_555
H8_3 C15_3 1_555 1_555
C9_3 C10_3 1_555 1_555
O7_2 C1_4 1_555 1_555
C1_4 C2_4 1_555 1_555
C2_4 C11_4 1_555 1_555
C11_4 H6_4 1_555 1_555
H7_4 C12_4 1_555 1_555
C11_4 C12_4 1_555 1_555
C6_4 H1_4 1_555 1_555
H4_4 C9_4 1_555 1_555
H5_4 C10_4 1_555 1_555
C15_4 C6_4 1_555 1_555
H8_4 C15_4 1_555 1_555
C9_4 C10_4 1_555 1_555

#END
