
###############################################################################
#
# This file contains modified crystal structure data generated from the
# MOF subset of the Cambridge Structural Database (CSD) v543 
# hosted by the Cambridge Crystallographic Data Centre (CCDC).
#
# This work is licensed under the Creative Commons
# Attribution-NonCommercial-ShareAlike 4.0 International License.
# To view a copy of this license, visit
# http://creativecommons.org/licenses/by-nc-sa/4.0/
# or send a letter to
# Creative Commons, PO Box 1866, Mountain View, CA 94042, USA.
#
# CIF created using the CSD Python API on 29 September 2022
# The structure has been converted into the P1 space group
# The structure has a 3D framework
# The original CSD entry WODKAE is in the monoclinic crystal system
# The framework has been calculated to contain at least 10.0% void space
# The void calculation uses a probe of radius 1.32A, grid spacing 0.4
#
###############################################################################

data_WODKAE
_chemical_formula_moiety         '(C60 H48 Cd8 N16 O28)n'
_symmetry_cell_setting           triclinic
_symmetry_space_group_name_H-M   'P 1'
_symmetry_Int_Tables_number      1
_space_group_name_Hall           'P 1'
loop_
_symmetry_equiv_pos_site_id
_symmetry_equiv_pos_as_xyz
1 x,y,z
_cell_length_a                   17.3031(6)
_cell_length_b                   7.2939(3)
_cell_length_c                   20.4716(9)
_cell_angle_alpha                90
_cell_angle_beta                 104.826(4)
_cell_angle_gamma                90
_cell_volume                     2497.64
loop_
_atom_site_label
_atom_site_type_symbol
_atom_site_fract_x
_atom_site_fract_y
_atom_site_fract_z
Cd6 Cd 0.00136(4) 0.59630(12) 0.74542(5)
H6 H 0.6530 0.0853 0.6942
H8 H 0.5163 0.0699 0.6686
Cd4 Cd 0.80023(4) 0.35056(11) 0.68931(4)
Cd8 Cd 0.99864(4) 0.09630(12) 0.75458(5)
N5 N 0.1941(5) 0.1900(14) 0.8170(5)
Cd1 Cd 0.19977(4) 0.85056(11) 0.81069(4)
O1 O 0.0678(4) 0.8432(9) 0.7958(4)
O2 O 0.1805(6) 0.8291(14) 0.6844(5)
N1 N 0.8059(5) 0.6900(14) 0.6830(5)
O3 O 0.2968(5) 0.8749(14) 0.7550(4)
O4 O 0.2813(6) 0.6872(13) 0.4106(5)
O5 O 0.1683(6) 0.712(2) 0.4381(5)
N2 N 0.8039(5) 0.9959(14) 0.6933(5)
N3 N 0.87947(16) 0.9318(4) 0.71093(15)
N4 N 0.88053(16) 0.7571(4) 0.70681(15)
C1 C 0.24913(18) 0.7835(4) 0.57674(15)
H1 H 0.1940 0.7702 0.5681
C2 C 0.75918(16) 0.8463(4) 0.67668(15)
C3 C 0.50515(16) 0.8264(4) 0.61985(15)
C4 C 0.37121(16) 0.7758(4) 0.53777(15)
H2 H 0.3967 0.7596 0.5033
C5 C 0.63223(17) 0.6901(4) 0.61984(15)
H3 H 0.6610 0.5935 0.6081
C6 C 0.2538(2) 0.8453(4) 0.69675(16)
C7 C 0.28814(16) 0.7592(4) 0.52359(15)
C8 C 0.29331(19) 0.8261(4) 0.63988(15)
O7 O 0.0389(5) 0.6252(6) 0.6476(2)
H4 H 0.0048 0.5713 0.6154
H5 H 0.0863 0.5766 0.6529
C9 C 0.24042(18) 0.7168(4) 0.45294(15)
C10 C 0.41645(16) 0.8162(4) 0.60303(15)
C11 C 0.62710(18) 0.9828(4) 0.67176(15)
C12 C 0.67253(16) 0.8396(4) 0.65526(15)
C13 C 0.54897(17) 0.6848(4) 0.60198(15)
H7 H 0.5226 0.5852 0.5778
C14 C 0.54516(19) 0.9752(4) 0.65560(15)
C15 C 0.37671(18) 0.8428(4) 0.65137(15)
H9 H 0.4063 0.8739 0.6946
H10 H 0.0034 0.6049 0.8774
H12 H 0.0583 0.8295 0.8373
Cd5 Cd 0.19977(4) 0.64944(11) 0.31069(4)
O9 O 0.2813(6) 0.8128(13) 0.9106(5)
N6 N 0.1961(5) 0.4959(14) 0.8067(5)
N7 N 0.12053(16) 0.4318(4) 0.78907(15)
O6 O 0.96733(17) 0.5529(13) 0.84669(15)
H11 H 0.9662 0.4363 0.8526
O8 O 0.9322(4) 0.3432(9) 0.7042(4)
O6_2 O 0.03267(17) 0.0529(13) 0.65331(15)
N8 N 0.11947(16) 0.2571(4) 0.79319(15)
H11_2 H 0.0338 0.9363 0.6474
O4_2 O 0.7187(6) 0.1872(13) 0.0894(5)
O5_2 O 0.8317(6) 0.212(2) 0.0619(5)
C9_2 C 0.75958(18) 0.2168(4) 0.04706(15)
Cd5_2 Cd 0.80023(4) 0.14944(11) 0.18931(4)
O2_2 O 0.8195(6) 0.3291(14) 0.8156(5)
O3_2 O 0.7032(5) 0.3749(14) 0.7450(4)
C1_2 C 0.75087(18) 0.2835(4) 0.92326(15)
H1_2 H 0.8060 0.2702 0.9319
C2_2 C 0.24082(16) 0.3463(4) 0.82332(15)
C3_2 C 0.49485(16) 0.3264(4) 0.88015(15)
C4_2 C 0.62879(16) 0.2758(4) 0.96223(15)
H2_2 H 0.6033 0.2596 0.9967
C5_2 C 0.36777(17) 0.1901(4) 0.88016(15)
H3_2 H 0.3390 0.0935 0.8919
C6_2 C 0.7462(2) 0.3453(4) 0.80325(16)
C7_2 C 0.71186(16) 0.2592(4) 0.97641(15)
C8_2 C 0.70669(19) 0.3261(4) 0.86012(15)
O7_2 O 0.9611(5) 0.1252(6) 0.8524(2)
H4_2 H 0.9952 0.0713 0.8846
H5_2 H 0.9137 0.0766 0.8471
C10_2 C 0.58355(16) 0.3162(4) 0.89697(15)
C11_2 C 0.37290(18) 0.4828(4) 0.82824(15)
H6_2 H 0.3470 0.5853 0.8058
C12_2 C 0.32747(16) 0.3396(4) 0.84474(15)
C13_2 C 0.45103(17) 0.1848(4) 0.89802(15)
H7_2 H 0.4774 0.0852 0.9222
C14_2 C 0.45484(19) 0.4752(4) 0.84440(15)
H8_2 H 0.4837 0.5699 0.8314
C15_2 C 0.62329(18) 0.3428(4) 0.84863(15)
H9_2 H 0.5937 0.3739 0.8054
H10_2 H 0.9966 0.1049 0.6226
H12_2 H 0.9417 0.3295 0.6627
O9_2 O 0.7187(6) 0.3128(13) 0.5894(5)
O6_3 O 0.03267(17) 0.4471(13) 0.15331(15)
H11_3 H 0.0338 0.5637 0.1474
O8_2 O 0.0678(4) 0.6568(9) 0.2958(4)
N8_2 N 0.11947(16) 0.2429(4) 0.29319(15)
Cd7 Cd 0.00136(4) 0.90370(12) 0.24542(5)
Cd2 Cd 0.99864(4) 0.40370(12) 0.25458(5)
O1_2 O 0.9322(4) 0.1568(9) 0.2042(4)
O2_3 O 0.8195(6) 0.1709(14) 0.3156(5)
N1_2 N 0.1941(5) 0.3100(14) 0.3170(5)
O3_3 O 0.7032(5) 0.1251(14) 0.2450(4)
O5_3 O 0.8317(6) 0.288(2) 0.5619(5)
N2_2 N 0.1961(5) 0.0041(14) 0.3067(5)
N3_2 N 0.12053(16) 0.0682(4) 0.28907(15)
C1_3 C 0.75087(18) 0.2165(4) 0.42326(15)
H1_3 H 0.8060 0.2298 0.4319
C2_3 C 0.24082(16) 0.1537(4) 0.32332(15)
C3_3 C 0.49485(16) 0.1736(4) 0.38015(15)
C4_3 C 0.62879(16) 0.2242(4) 0.46223(15)
H2_3 H 0.6033 0.2404 0.4967
C5_3 C 0.36777(17) 0.3099(4) 0.38016(15)
H3_3 H 0.3390 0.4065 0.3919
C6_3 C 0.7462(2) 0.1547(4) 0.30325(16)
C7_3 C 0.71186(16) 0.2408(4) 0.47641(15)
C8_3 C 0.70669(19) 0.1739(4) 0.36012(15)
O7_3 O 0.9611(5) 0.3748(6) 0.3524(2)
H4_3 H 0.9952 0.4287 0.3846
H5_3 H 0.9137 0.4234 0.3471
C9_3 C 0.75958(18) 0.2832(4) 0.54706(15)
C10_3 C 0.58355(16) 0.1838(4) 0.39697(15)
C11_3 C 0.37290(18) 0.0172(4) 0.32824(15)
C12_3 C 0.32747(16) 0.1604(4) 0.34474(15)
C13_3 C 0.45103(17) 0.3152(4) 0.39802(15)
H7_3 H 0.4774 0.4148 0.4222
C14_3 C 0.45484(19) 0.0248(4) 0.34440(15)
C15_3 C 0.62329(18) 0.1572(4) 0.34863(15)
H9_3 H 0.5937 0.1261 0.3054
H10_3 H 0.9966 0.3951 0.1226
H12_3 H 0.9417 0.1705 0.1627
N6_2 N 0.8039(5) 0.5041(14) 0.1933(5)
N7_2 N 0.87947(16) 0.5682(4) 0.21093(15)
H6_3 H 0.3470 0.9147 0.3058
H8_3 H 0.4837 0.9301 0.3314
N5_2 N 0.8059(5) 0.8100(14) 0.1830(5)
O2_4 O 0.1805(6) 0.6709(14) 0.1844(5)
O3_4 O 0.2968(5) 0.6251(14) 0.2550(4)
N4_2 N 0.88053(16) 0.7429(4) 0.20681(15)
C1_4 C 0.24913(18) 0.7165(4) 0.07674(15)
H1_4 H 0.1940 0.7298 0.0681
C2_4 C 0.75918(16) 0.6537(4) 0.17668(15)
C3_4 C 0.50515(16) 0.6736(4) 0.11985(15)
C4_4 C 0.37121(16) 0.7242(4) 0.03777(15)
H2_4 H 0.3967 0.7404 0.0033
C5_4 C 0.63223(17) 0.8099(4) 0.11984(15)
H3_4 H 0.6610 0.9065 0.1081
C6_4 C 0.2538(2) 0.6547(4) 0.19675(16)
C7_4 C 0.28814(16) 0.7408(4) 0.02359(15)
C8_4 C 0.29331(19) 0.6739(4) 0.13988(15)
O7_4 O 0.0389(5) 0.8748(6) 0.1476(2)
H4_4 H 0.0048 0.9287 0.1154
H5_4 H 0.0863 0.9234 0.1529
C10_4 C 0.41645(16) 0.6838(4) 0.10303(15)
C11_4 C 0.62710(18) 0.5172(4) 0.17176(15)
H6_4 H 0.6530 0.4147 0.1942
C12_4 C 0.67253(16) 0.6604(4) 0.15526(15)
C13_4 C 0.54897(17) 0.8152(4) 0.10198(15)
H7_4 H 0.5226 0.9148 0.0778
C14_4 C 0.54516(19) 0.5248(4) 0.15560(15)
H8_4 H 0.5163 0.4301 0.1686
C15_4 C 0.37671(18) 0.6572(4) 0.15137(15)
H9_4 H 0.4063 0.6261 0.1946
H10_4 H 0.0034 0.8951 0.3774
H12_4 H 0.0583 0.6705 0.3373
O5_4 O 0.1683(6) 0.788(2) 0.9381(5)
C9_4 C 0.24042(18) 0.7832(4) 0.95294(15)
H11_4 H 0.9662 0.0637 0.3526
O6_4 O 0.96733(17) 0.9471(13) 0.34669(15)
loop_
_geom_bond_atom_site_label_1
_geom_bond_atom_site_label_2
_geom_bond_site_symmetry_1
_geom_bond_site_symmetry_2
Cd1 O1 1_555 1_555
Cd6 O1 1_555 1_555
O1 H12 1_555 1_555
O2 Cd1 1_555 1_555
N1 N4 1_555 1_555
O3 Cd1 1_555 1_555
O4 C9 1_555 1_555
O5 C9 1_555 1_555
N2 N3 1_555 1_555
N3 N4 1_555 1_555
C1 H1 1_555 1_555
C2 N1 1_555 1_555
C3 C10 1_555 1_555
C4 H2 1_555 1_555
C5 H3 1_555 1_555
C6 O2 1_555 1_555
C7 C1 1_555 1_555
C8 C1 1_555 1_555
O7 Cd6 1_555 1_555
H4 O7 1_555 1_555
H5 O7 1_555 1_555
C9 C7 1_555 1_555
C10 C4 1_555 1_555
C12 C2 1_555 1_555
C13 C3 1_555 1_555
H7 C13 1_555 1_555
C14 C3 1_555 1_555
C15 C8 1_555 1_555
H9 C15 1_555 1_555
Cd4 N1 1_555 1_555
Cd5 O4 1_555 1_555
O9 Cd1 1_555 1_555
N6 Cd1 1_555 1_555
N7 Cd6 1_555 1_555
O3 C6 1_555 1_555
N2 C2 1_555 1_555
C4 C7 1_555 1_555
C5 C12 1_555 1_555
C5 C13 1_555 1_555
C6 C8 1_555 1_555
C10 C15 1_555 1_555
C11 C12 1_555 1_555
C11 C14 1_555 1_555
N6 N7 1_555 1_555
H11 O6 1_555 1_555
O4_2 C9_2 1_555 1_555
O5_2 C9_2 1_555 1_555
Cd5_2 O4_2 1_555 1_555
Cd4 O8 1_555 1_555
Cd8 O8 1_555 1_555
O8 H12_2 1_555 1_555
O2_2 Cd4 1_555 1_555
N5 N8 1_555 1_555
O3_2 Cd4 1_555 1_555
N7 N8 1_555 1_555
C1_2 H1_2 1_555 1_555
C2_2 N5 1_555 1_555
C3_2 C10_2 1_555 1_555
C4_2 H2_2 1_555 1_555
C5_2 H3_2 1_555 1_555
C6_2 O2_2 1_555 1_555
C7_2 C1_2 1_555 1_555
C8_2 C1_2 1_555 1_555
O7_2 Cd8 1_555 1_555
H4_2 O7_2 1_555 1_555
H5_2 O7_2 1_555 1_555
C10_2 C4_2 1_555 1_555
C11_2 H6_2 1_555 1_555
C12_2 C2_2 1_555 1_555
C13_2 C3_2 1_555 1_555
H7_2 C13_2 1_555 1_555
C14_2 C3_2 1_555 1_555
H8_2 C14_2 1_555 1_555
C15_2 C8_2 1_555 1_555
H9_2 C15_2 1_555 1_555
O9_2 Cd4 1_555 1_555
O3_2 C6_2 1_555 1_555
N6 C2_2 1_555 1_555
C4_2 C7_2 1_555 1_555
C5_2 C12_2 1_555 1_555
C5_2 C13_2 1_555 1_555
C6_2 C8_2 1_555 1_555
C10_2 C15_2 1_555 1_555
C11_2 C12_2 1_555 1_555
C11_2 C14_2 1_555 1_555
H11_3 O6_3 1_555 1_555
Cd5_2 O1_2 1_555 1_555
Cd2 O1_2 1_555 1_555
O1_2 H12_3 1_555 1_555
O2_3 Cd5_2 1_555 1_555
N1_2 N8_2 1_555 1_555
O3_3 Cd5_2 1_555 1_555
O9_2 C9_3 1_555 1_555
O5_3 C9_3 1_555 1_555
N2_2 N3_2 1_555 1_555
N3_2 N8_2 1_555 1_555
C1_3 H1_3 1_555 1_555
C2_3 N1_2 1_555 1_555
C3_3 C10_3 1_555 1_555
C4_3 H2_3 1_555 1_555
C5_3 H3_3 1_555 1_555
C6_3 O2_3 1_555 1_555
C7_3 C1_3 1_555 1_555
C8_3 C1_3 1_555 1_555
O7_3 Cd2 1_555 1_555
H4_3 O7_3 1_555 1_555
H5_3 O7_3 1_555 1_555
C9_3 C7_3 1_555 1_555
C10_3 C4_3 1_555 1_555
C12_3 C2_3 1_555 1_555
C13_3 C3_3 1_555 1_555
H7_3 C13_3 1_555 1_555
C14_3 C3_3 1_555 1_555
C15_3 C8_3 1_555 1_555
H9_3 C15_3 1_555 1_555
Cd5 N1_2 1_555 1_555
N6_2 Cd5_2 1_555 1_555
N7_2 Cd2 1_555 1_555
O3_3 C6_3 1_555 1_555
N2_2 C2_3 1_555 1_555
C4_3 C7_3 1_555 1_555
C5_3 C12_3 1_555 1_555
C5_3 C13_3 1_555 1_555
C6_3 C8_3 1_555 1_555
C10_3 C15_3 1_555 1_555
C11_3 C12_3 1_555 1_555
C11_3 C14_3 1_555 1_555
N6_2 N7_2 1_555 1_555
Cd5 O8_2 1_555 1_555
Cd7 O8_2 1_555 1_555
O8_2 H12_4 1_555 1_555
O2_4 Cd5 1_555 1_555
N5_2 N4_2 1_555 1_555
O3_4 Cd5 1_555 1_555
N7_2 N4_2 1_555 1_555
C1_4 H1_4 1_555 1_555
C2_4 N5_2 1_555 1_555
C3_4 C10_4 1_555 1_555
C4_4 H2_4 1_555 1_555
C5_4 H3_4 1_555 1_555
C6_4 O2_4 1_555 1_555
C7_4 C1_4 1_555 1_555
C8_4 C1_4 1_555 1_555
O7_4 Cd7 1_555 1_555
H4_4 O7_4 1_555 1_555
H5_4 O7_4 1_555 1_555
C10_4 C4_4 1_555 1_555
C11_4 H6_4 1_555 1_555
C12_4 C2_4 1_555 1_555
C13_4 C3_4 1_555 1_555
H7_4 C13_4 1_555 1_555
C14_4 C3_4 1_555 1_555
H8_4 C14_4 1_555 1_555
C15_4 C8_4 1_555 1_555
H9_4 C15_4 1_555 1_555
O3_4 C6_4 1_555 1_555
N6_2 C2_4 1_555 1_555
C4_4 C7_4 1_555 1_555
C5_4 C12_4 1_555 1_555
C5_4 C13_4 1_555 1_555
C6_4 C8_4 1_555 1_555
C10_4 C15_4 1_555 1_555
C11_4 C12_4 1_555 1_555
C11_4 C14_4 1_555 1_555
O9 C9_4 1_555 1_555
O5_4 C9_4 1_555 1_555

#END
