
###############################################################################
#
# This file contains modified crystal structure data generated from the
# MOF subset of the Cambridge Structural Database (CSD) v543 
# hosted by the Cambridge Crystallographic Data Centre (CCDC).
#
# This work is licensed under the Creative Commons
# Attribution-NonCommercial-ShareAlike 4.0 International License.
# To view a copy of this license, visit
# http://creativecommons.org/licenses/by-nc-sa/4.0/
# or send a letter to
# Creative Commons, PO Box 1866, Mountain View, CA 94042, USA.
#
# CIF created using the CSD Python API on 29 September 2022
# The structure has been converted into the P1 space group
# The structure has a 3D framework
# The original CSD entry WODROY is in the monoclinic crystal system
# The framework has been calculated to contain at least 10.0% void space
# The void calculation uses a probe of radius 1.32A, grid spacing 0.4
#
###############################################################################

data_WODROY
_chemical_formula_moiety         '(C44 H32 Cu8 N16 O23)n'
_symmetry_cell_setting           triclinic
_symmetry_space_group_name_H-M   'P 1'
_symmetry_Int_Tables_number      1
_space_group_name_Hall           'P 1'
loop_
_symmetry_equiv_pos_site_id
_symmetry_equiv_pos_as_xyz
1 x,y,z
_cell_length_a                   7.8590(16)
_cell_length_b                   13.253(3)
_cell_length_c                   17.452(4)
_cell_angle_alpha                90
_cell_angle_beta                 105.258(4)
_cell_angle_gamma                90
_cell_volume                     1753.65
loop_
_atom_site_label
_atom_site_type_symbol
_atom_site_fract_x
_atom_site_fract_y
_atom_site_fract_z
O4 O 0.0061(9) 0.1770(5) 0.9071(5)
Cu4 Cu 0.27256(12) 0.10358(7) 0.94661(6)
O8 O 0.1700(7) 0.4965(4) 0.5024(3)
Cu5 Cu 0.04820(13) 0.44950(8) 0.57897(6)
O9 O 0.0839(9) 0.6062(5) 0.3523(5)
Cu1 Cu 0.72744(12) 0.60358(7) 0.55339(6)
O1 O 0.8300(7) 0.5035(4) 0.4976(3)
H1 H 0.7462 0.4494 0.4757
N1 N 0.6909(10) 0.6924(6) 0.4555(4)
C1 C 0.7753(12) 0.4262(6) 0.6597(5)
Cu2 Cu 0.95180(13) 0.55050(8) 0.42103(6)
O2 O 0.9161(9) 0.3938(5) 0.6477(5)
N2 N 0.8089(11) 0.6804(6) 0.4097(5)
C2 C 0.7084(11) 0.3676(6) 0.7192(5)
O3 O 0.6900(9) 0.5013(5) 0.6286(4)
N3 N 0.6576(15) 0.8167(7) 0.3732(6)
C3 C 0.5477(11) 0.3924(6) 0.7340(5)
H2 H 0.4812 0.4457 0.7070
N4 N 0.598(2) 0.9060(9) 0.3336(9)
H3 H 0.5195 0.9418 0.3470
H4 H 0.6415 0.9258 0.2957
C4 C 0.4873(11) 0.3377(7) 0.7888(5)
H5 H 0.3790 0.3537 0.7978
O5 O 0.8216(9) 0.0607(5) 0.8393(4)
C5 C 0.5870(10) 0.2582(6) 0.8312(5)
O6 O 0.6271(9) 0.1605(6) 0.9488(4)
C6 C 0.5214(11) 0.2023(6) 0.8924(5)
O7 O 0.3551(8) 0.2039(5) 0.8838(4)
C7 C 0.7475(11) 0.2349(6) 0.8165(5)
C8 C 0.8675(11) 0.1511(7) 0.8589(6)
C9 C 0.8072(11) 0.2886(7) 0.7604(6)
H6 H 0.9141 0.2716 0.7504
C10 C 0.7876(17) 0.7578(8) 0.3619(7)
H7 H 0.8528 0.7702 0.3255
C11 C 0.6022(17) 0.7757(9) 0.4331(7)
H8 H 0.5158 0.8022 0.4549
O10 O 0.9939(9) 0.6770(5) 0.5929(5)
O11 O 0.8216(9) 0.4393(5) 0.3393(4)
O12 O 0.6449(8) 0.7039(5) 0.6162(4)
Cu6 Cu 0.95180(13) 0.94950(8) 0.92103(6)
O1_2 O 0.1700(7) 0.0035(4) 0.0024(3)
N1_2 N 0.3091(10) 0.1924(6) 0.0445(4)
Cu2_2 Cu 0.04820(13) 0.05050(8) 0.07897(6)
N2_2 N 0.1911(11) 0.1804(6) 0.0903(5)
N3_2 N 0.3424(15) 0.3167(7) 0.1268(6)
N4_2 N 0.402(2) 0.4060(9) 0.1664(9)
H3_2 H 0.4805 0.4418 0.1530
H4_2 H 0.3585 0.4258 0.2043
C10_2 C 0.2124(17) 0.2578(8) 0.1381(7)
H7_2 H 0.1472 0.2702 0.1745
C11_2 C 0.3978(17) 0.2757(9) 0.0669(7)
H8_2 H 0.4842 0.3022 0.0451
O3_2 O 0.3100(9) 0.0013(5) 0.8714(4)
H1_2 H 0.2538 0.9494 0.0243
O11_2 O 0.1784(9) 0.9393(5) 0.1607(4)
C1_2 C 0.2247(12) 0.9262(6) 0.8403(5)
O2_2 O 0.0839(9) 0.8938(5) 0.8523(5)
C2_2 C 0.2916(11) 0.8676(6) 0.7808(5)
C3_2 C 0.4523(11) 0.8924(6) 0.7660(5)
H2_2 H 0.5188 0.9457 0.7930
C4_2 C 0.5127(11) 0.8377(7) 0.7112(5)
H5_2 H 0.6210 0.8537 0.7022
O5_2 O 0.1784(9) 0.5607(5) 0.6607(4)
C5_2 C 0.4130(10) 0.7582(6) 0.6688(5)
O6_2 O 0.3729(9) 0.6605(6) 0.5512(4)
C6_2 C 0.4786(11) 0.7023(6) 0.6076(5)
C7_2 C 0.2525(11) 0.7349(6) 0.6835(5)
C8_2 C 0.1325(11) 0.6511(7) 0.6411(6)
C9_2 C 0.1928(11) 0.7886(7) 0.7396(6)
H6_2 H 0.0859 0.7716 0.7496
O9_2 O 0.9161(9) 0.1062(5) 0.1477(5)
O8_2 O 0.8300(7) 0.9965(4) 0.9976(3)
Cu1_2 Cu 0.27256(12) 0.39642(7) 0.44661(6)
H1_3 H 0.2538 0.5506 0.5243
N1_3 N 0.3091(10) 0.3076(6) 0.5445(4)
C1_3 C 0.2247(12) 0.5738(6) 0.3403(5)
N2_3 N 0.1911(11) 0.3196(6) 0.5903(5)
C2_3 C 0.2916(11) 0.6324(6) 0.2808(5)
O3_3 O 0.3100(9) 0.4987(5) 0.3714(4)
N3_3 N 0.3424(15) 0.1833(7) 0.6268(6)
C3_3 C 0.4523(11) 0.6076(6) 0.2660(5)
H2_3 H 0.5188 0.5543 0.2930
N4_3 N 0.402(2) 0.0940(9) 0.6664(9)
H3_3 H 0.4805 0.0582 0.6530
H4_3 H 0.3585 0.0742 0.7043
C4_3 C 0.5127(11) 0.6623(7) 0.2112(5)
H5_3 H 0.6210 0.6463 0.2022
C5_3 C 0.4130(10) 0.7418(6) 0.1688(5)
O6_3 O 0.3729(9) 0.8395(6) 0.0512(4)
C6_3 C 0.4786(11) 0.7977(6) 0.1076(5)
O7_2 O 0.6449(8) 0.7961(5) 0.1162(4)
C7_3 C 0.2525(11) 0.7651(6) 0.1835(5)
C8_3 C 0.1325(11) 0.8489(7) 0.1411(6)
C9_3 C 0.1928(11) 0.7114(7) 0.2396(6)
H6_3 H 0.0859 0.7284 0.2496
C10_3 C 0.2124(17) 0.2422(8) 0.6381(7)
H7_3 H 0.1472 0.2298 0.6745
C11_3 C 0.3978(17) 0.2243(9) 0.5669(7)
H8_3 H 0.4842 0.1978 0.5451
Cu3 Cu 0.72744(12) 0.89642(7) 0.05339(6)
O10_2 O 0.0061(9) 0.3230(5) 0.4071(5)
O12_2 O 0.3551(8) 0.2961(5) 0.3838(4)
O4_2 O 0.9939(9) 0.8230(5) 0.0929(5)
C1_4 C 0.7753(12) 0.0738(6) 0.1597(5)
C2_4 C 0.7084(11) 0.1324(6) 0.2192(5)
C3_4 C 0.5477(11) 0.1076(6) 0.2340(5)
H2_4 H 0.4812 0.0543 0.2070
C4_4 C 0.4873(11) 0.1623(7) 0.2888(5)
H5_4 H 0.3790 0.1463 0.2978
C5_4 C 0.5870(10) 0.2418(6) 0.3312(5)
O6_4 O 0.6271(9) 0.3395(6) 0.4488(4)
C6_4 C 0.5214(11) 0.2977(6) 0.3924(5)
C7_4 C 0.7475(11) 0.2651(6) 0.3165(5)
C8_4 C 0.8675(11) 0.3489(7) 0.3589(6)
C9_4 C 0.8072(11) 0.2114(7) 0.2604(6)
H6_4 H 0.9141 0.2284 0.2504
H1_4 H 0.7462 0.0506 0.9757
O3_4 O 0.6900(9) 0.9987(5) 0.1286(4)
N1_4 N 0.6909(10) 0.8076(6) 0.9555(4)
N2_4 N 0.8089(11) 0.8196(6) 0.9097(5)
N3_4 N 0.6576(15) 0.6833(7) 0.8732(6)
N4_4 N 0.598(2) 0.5940(9) 0.8336(9)
H3_4 H 0.5195 0.5582 0.8470
H4_4 H 0.6415 0.5742 0.7957
C10_4 C 0.7876(17) 0.7422(8) 0.8619(7)
H7_4 H 0.8528 0.7298 0.8255
C11_4 C 0.6022(17) 0.7243(9) 0.9331(7)
H8_4 H 0.5158 0.6978 0.9549
loop_
_geom_bond_atom_site_label_1
_geom_bond_atom_site_label_2
_geom_bond_site_symmetry_1
_geom_bond_site_symmetry_2
Cu4 O4 1_555 1_555
O8 Cu5 1_555 1_555
Cu1 O1 1_555 1_555
O1 H1 1_555 1_555
N1 Cu1 1_555 1_555
C1 O2 1_555 1_555
Cu2 O1 1_555 1_555
N2 N1 1_555 1_555
C2 C1 1_555 1_555
O3 Cu1 1_555 1_555
N3 N4 1_555 1_555
C3 C2 1_555 1_555
H2 C3 1_555 1_555
N4 H3 1_555 1_555
H4 N4 1_555 1_555
C4 C3 1_555 1_555
H5 C4 1_555 1_555
O5 C8 1_555 1_555
C5 C4 1_555 1_555
O6 C6 1_555 1_555
C6 C5 1_555 1_555
O7 C6 1_555 1_555
C7 C5 1_555 1_555
C8 C7 1_555 1_555
C9 C2 1_555 1_555
H6 C9 1_555 1_555
C10 N2 1_555 1_555
H7 C10 1_555 1_555
C11 N1 1_555 1_555
H8 C11 1_555 1_555
Cu4 O7 1_555 1_555
O10 Cu1 1_555 1_555
O11 Cu2 1_555 1_555
O12 Cu1 1_555 1_555
C1 O3 1_555 1_555
Cu2 N2 1_555 1_555
N3 C10 1_555 1_555
N3 C11 1_555 1_555
C7 C9 1_555 1_555
Cu2_2 O1_2 1_555 1_555
N2_2 N1_2 1_555 1_555
N3_2 N4_2 1_555 1_555
N4_2 H3_2 1_555 1_555
H4_2 N4_2 1_555 1_555
C10_2 N2_2 1_555 1_555
H7_2 C10_2 1_555 1_555
C11_2 N1_2 1_555 1_555
H8_2 C11_2 1_555 1_555
Cu2_2 N2_2 1_555 1_555
N3_2 C10_2 1_555 1_555
N3_2 C11_2 1_555 1_555
O3_2 Cu4 1_555 1_555
C1_2 O2_2 1_555 1_555
C2_2 C1_2 1_555 1_555
C3_2 C2_2 1_555 1_555
H2_2 C3_2 1_555 1_555
C4_2 C3_2 1_555 1_555
H5_2 C4_2 1_555 1_555
O5_2 C8_2 1_555 1_555
C5_2 C4_2 1_555 1_555
O6_2 C6_2 1_555 1_555
C6_2 C5_2 1_555 1_555
O12 C6_2 1_555 1_555
C7_2 C5_2 1_555 1_555
C8_2 C7_2 1_555 1_555
C9_2 C2_2 1_555 1_555
H6_2 C9_2 1_555 1_555
Cu5 O5_2 1_555 1_555
C7_2 C9_2 1_555 1_555
O8_2 Cu6 1_555 1_555
Cu1_2 O8 1_555 1_555
O8 H1_3 1_555 1_555
N1_3 Cu1_2 1_555 1_555
C1_3 O9 1_555 1_555
N2_3 N1_3 1_555 1_555
C2_3 C1_3 1_555 1_555
O3_3 Cu1_2 1_555 1_555
N3_3 N4_3 1_555 1_555
C3_3 C2_3 1_555 1_555
H2_3 C3_3 1_555 1_555
N4_3 H3_3 1_555 1_555
H4_3 N4_3 1_555 1_555
C4_3 C3_3 1_555 1_555
H5_3 C4_3 1_555 1_555
O11_2 C8_3 1_555 1_555
C5_3 C4_3 1_555 1_555
O6_3 C6_3 1_555 1_555
C6_3 C5_3 1_555 1_555
O7_2 C6_3 1_555 1_555
C7_3 C5_3 1_555 1_555
C8_3 C7_3 1_555 1_555
C9_3 C2_3 1_555 1_555
H6_3 C9_3 1_555 1_555
C10_3 N2_3 1_555 1_555
H7_3 C10_3 1_555 1_555
C11_3 N1_3 1_555 1_555
H8_3 C11_3 1_555 1_555
Cu3 O7_2 1_555 1_555
O10_2 Cu1_2 1_555 1_555
O12_2 Cu1_2 1_555 1_555
C1_3 O3_3 1_555 1_555
Cu5 N2_3 1_555 1_555
N3_3 C10_3 1_555 1_555
N3_3 C11_3 1_555 1_555
C7_3 C9_3 1_555 1_555
Cu3 O4_2 1_555 1_555
C1_4 O9_2 1_555 1_555
C2_4 C1_4 1_555 1_555
C3_4 C2_4 1_555 1_555
H2_4 C3_4 1_555 1_555
C4_4 C3_4 1_555 1_555
H5_4 C4_4 1_555 1_555
O11 C8_4 1_555 1_555
C5_4 C4_4 1_555 1_555
O6_4 C6_4 1_555 1_555
C6_4 C5_4 1_555 1_555
O12_2 C6_4 1_555 1_555
C7_4 C5_4 1_555 1_555
C8_4 C7_4 1_555 1_555
C9_4 C2_4 1_555 1_555
H6_4 C9_4 1_555 1_555
C7_4 C9_4 1_555 1_555
O3_4 Cu3 1_555 1_555
N2_4 N1_4 1_555 1_555
N3_4 N4_4 1_555 1_555
N4_4 H3_4 1_555 1_555
H4_4 N4_4 1_555 1_555
C10_4 N2_4 1_555 1_555
H7_4 C10_4 1_555 1_555
C11_4 N1_4 1_555 1_555
H8_4 C11_4 1_555 1_555
Cu6 N2_4 1_555 1_555
N3_4 C10_4 1_555 1_555
N3_4 C11_4 1_555 1_555

#END
