
###############################################################################
#
# This file contains modified crystal structure data generated from the
# MOF subset of the Cambridge Structural Database (CSD) v543 
# hosted by the Cambridge Crystallographic Data Centre (CCDC).
#
# This work is licensed under the Creative Commons
# Attribution-NonCommercial-ShareAlike 4.0 International License.
# To view a copy of this license, visit
# http://creativecommons.org/licenses/by-nc-sa/4.0/
# or send a letter to
# Creative Commons, PO Box 1866, Mountain View, CA 94042, USA.
#
# CIF created using the CSD Python API on 29 September 2022
# The structure has been converted into the P1 space group
# The structure has a 3D framework
# The original CSD entry WODWUJ is in the triclinic crystal system
# The framework has been calculated to contain at least 10.0% void space
# The void calculation uses a probe of radius 1.32A, grid spacing 0.4
# H atom positions have been added when not included in the experimental data
#
###############################################################################

data_WODWUJ
_chemical_formula_moiety         '(C40 H28 Gd2 N6 O24 Zn2)n'
_symmetry_cell_setting           triclinic
_symmetry_space_group_name_H-M   'P 1'
_symmetry_Int_Tables_number      1
_space_group_name_Hall           'P 1'
loop_
_symmetry_equiv_pos_site_id
_symmetry_equiv_pos_as_xyz
1 x,y,z
_cell_length_a                   10.602(2)
_cell_length_b                   11.330(2)
_cell_length_c                   12.446(3)
_cell_angle_alpha                86.27(3)
_cell_angle_beta                 82.02(3)
_cell_angle_gamma                89.22(3)
_cell_volume                     1477.39
loop_
_atom_site_label
_atom_site_type_symbol
_atom_site_fract_x
_atom_site_fract_y
_atom_site_fract_z
Zn1 Zn 0.63184(4) 0.33770(4) 0.29809(4)
O1 O 0.5342(3) 0.0888(2) 0.0937(2)
O2 O 0.5530(3) 0.1839(2) 0.2400(2)
O3 O 0.4141(3) 0.0756(3) 0.4327(2)
O5 O 0.2759(3) 0.1420(3) 0.2175(3)
N3 N 0.6477(4) 0.3754(3) 0.1227(3)
C2 C 0.5663(4) 0.1777(3) 0.1370(3)
C6 C 0.6187(4) 0.2838(3) 0.0674(3)
C7 C 0.1825(4) 0.0934(4) 0.2793(3)
C11 C 0.0533(4) 0.1505(4) 0.2842(4)
C14 C 0.0351(4) 0.2568(4) 0.2264(5)
H4 H 0.1031 0.2943 0.1827
C18 C 0.6864(6) 0.4763(4) 0.0667(4)
H8 H 0.7052 0.5405 0.1045
O13 O 0.5826(3) 0.2509(2) 0.4573(2)
O14 O 0.7005(3) 0.5026(2) 0.3249(2)
N4 N 0.4597(3) 0.4346(3) 0.3354(3)
N5 N 0.8130(3) 0.2570(3) 0.2945(3)
H11 H 0.367318 0.15191 0.428401
H12 H 0.368184 0.0218737 0.490968
H13 H 0.690721 0.00364079 0.300056
O8 O 0.6940(3) 0.1134(3) 0.8612(3)
O10 O 0.4980(3) 0.1789(3) 0.8584(2)
C9 C 0.6046(5) 0.1849(4) 0.8895(3)
C13 C 0.6324(5) 0.2875(4) 0.9544(3)
C19 C 0.6737(7) 0.3921(5) 0.8987(4)
H9 H 0.6844 0.3979 0.8231
C20 C 0.6993(7) 0.4882(5) 0.9545(4)
H10 H 0.7247 0.5597 0.9174
Gd2 Gd 0.572519(18) 0.014022(16) 0.738559(15)
Gd1 Gd 0.427481(18) 0.985978(16) 0.261441(15)
O4 O 0.1973(3) 0.9988(3) 0.3354(2)
O6 O 0.4174(3) 0.7491(2) 0.5427(2)
O9 O 0.3920(3) 0.8202(2) 0.3769(2)
O11 O 0.6416(3) 0.6825(3) 0.3766(3)
O12 O 0.6406(3) 0.9311(3) 0.2958(3)
C1 C 0.4789(4) 0.5429(3) 0.3682(3)
C3 C 0.3999(4) 0.7370(3) 0.4464(3)
C4 C 0.6186(4) 0.5804(4) 0.3561(3)
C5 C 0.3789(4) 0.6147(3) 0.4114(3)
C8 C 0.3400(4) 0.3944(4) 0.3429(4)
H1 H 0.3264 0.3200 0.3193
C10 C 0.2560(4) 0.5711(4) 0.4191(4)
H2 H 0.1870 0.6165 0.4475
C12 C 0.2365(4) 0.4607(4) 0.3849(4)
H3 H 0.1545 0.4309 0.3900
Zn4 Zn 0.36816(4) 0.66230(4) 0.70191(4)
O15 O 0.3060(3) 0.8866(3) 0.1388(3)
O16 O 0.5020(3) 0.8211(3) 0.1416(2)
H14 H 0.635842 0.882596 0.365616
C15 C 0.9486(4) 0.1002(4) 0.3482(4)
H5 H 0.9572 0.0299 0.3895
C16 C 0.8312(4) 0.1543(4) 0.3508(4)
H6 H 0.7615 0.1182 0.3933
C17 C 0.9151(5) 0.3061(4) 0.2345(4)
H7 H 0.9046 0.3778 0.1959
N2 N 0.1870(3) 0.7430(3) 0.7055(3)
C15_2 C 0.0514(4) 0.8998(4) 0.6518(4)
H5_2 H 0.0428 0.9701 0.6105
C16_2 C 0.1688(4) 0.8457(4) 0.6492(4)
H6_2 H 0.2385 0.8818 0.6067
C17_2 C 0.0849(5) 0.6939(4) 0.7655(4)
H7_2 H 0.0954 0.6222 0.8041
O4_2 O 0.8027(3) 0.0012(3) 0.6646(2)
O7 O 0.2995(3) 0.4974(2) 0.6751(2)
O9_2 O 0.6080(3) 0.1798(2) 0.6231(2)
O11_2 O 0.3584(3) 0.3175(3) 0.6234(3)
N1 N 0.5403(3) 0.5654(3) 0.6646(3)
O12_2 O 0.3594(3) 0.0689(3) 0.7042(3)
C1_2 C 0.5211(4) 0.4571(3) 0.6318(3)
C3_2 C 0.6001(4) 0.2630(3) 0.5536(3)
C4_2 C 0.3814(4) 0.4196(4) 0.6439(3)
C5_2 C 0.6211(4) 0.3853(3) 0.5886(3)
C8_2 C 0.6600(4) 0.6056(4) 0.6571(4)
H1_2 H 0.6736 0.6800 0.6807
C10_2 C 0.7440(4) 0.4289(4) 0.5809(4)
H2_2 H 0.8130 0.3835 0.5525
C12_2 C 0.7635(4) 0.5393(4) 0.6151(4)
H3_2 H 0.8455 0.5691 0.6100
H14_2 H 0.364158 0.117404 0.634384
C9_2 C 0.3954(5) 0.8151(4) 0.1105(3)
C13_2 C 0.3676(5) 0.7125(4) 0.0456(3)
C19_2 C 0.3263(7) 0.6079(5) 0.1013(4)
H9_2 H 0.3156 0.6021 0.1769
C20_2 C 0.3007(7) 0.5118(5) 0.0455(4)
H10_2 H 0.2753 0.4403 0.0826
O1_2 O 0.4658(3) 0.9112(2) 0.9063(2)
O2_2 O 0.4470(3) 0.8161(2) 0.7600(2)
O3_2 O 0.5859(3) 0.9244(3) 0.5673(2)
O5_2 O 0.7241(3) 0.8580(3) 0.7825(3)
N3_2 N 0.3523(4) 0.6246(3) 0.8773(3)
C2_2 C 0.4337(4) 0.8223(3) 0.8630(3)
C6_2 C 0.3813(4) 0.7162(3) 0.9326(3)
C7_2 C 0.8175(4) 0.9066(4) 0.7207(3)
C11_2 C 0.9467(4) 0.8495(4) 0.7158(4)
C14_2 C 0.9649(4) 0.7432(4) 0.7736(5)
H4_2 H 0.8969 0.7057 0.8173
C18_2 C 0.3136(6) 0.5237(4) 0.9333(4)
H8_2 H 0.2948 0.4595 0.8955
H11_2 H 0.632682 0.84809 0.571599
H12_2 H 0.631816 0.978126 0.509032
H13_2 H 0.309279 0.996359 0.699944
loop_
_geom_bond_atom_site_label_1
_geom_bond_atom_site_label_2
_geom_bond_site_symmetry_1
_geom_bond_site_symmetry_2
Zn1 O2 1_555 1_555
O1 C2 1_555 1_555
N3 Zn1 1_555 1_555
C2 O2 1_555 1_555
C6 N3 1_555 1_555
C11 C7 1_555 1_555
C14 C11 1_555 1_555
H4 C14 1_555 1_555
C18 N3 1_555 1_555
H8 C18 1_555 1_555
O13 Zn1 1_555 1_555
O14 Zn1 1_555 1_555
N4 Zn1 1_555 1_555
N5 Zn1 1_555 1_555
O5 C7 1_555 1_555
C2 C6 1_555 1_555
O3 H11 1_555 1_555
O3 H12 1_555 1_555
O8 C9 1_555 1_555
O10 C9 1_555 1_555
C9 C13 1_555 1_555
C19 C13 1_555 1_555
H9 C19 1_555 1_555
H10 C20 1_555 1_555
Gd2 O8 1_555 1_555
O10 Gd2 1_555 1_555
C19 C20 1_555 1_555
O4 Gd1 1_555 1_555
O6 C3 1_555 1_555
O14 C4 1_555 1_555
O9 Gd1 1_555 1_555
O11 C4 1_555 1_555
N4 C1 1_555 1_555
O12 Gd1 1_555 1_555
C1 C4 1_555 1_555
C3 O9 1_555 1_555
C5 C1 1_555 1_555
C8 N4 1_555 1_555
H1 C8 1_555 1_555
C10 C5 1_555 1_555
H2 C10 1_555 1_555
C12 C8 1_555 1_555
H3 C12 1_555 1_555
Zn4 O6 1_555 1_555
O15 Gd1 1_555 1_555
O16 Gd1 1_555 1_555
C3 C5 1_555 1_555
C10 C12 1_555 1_555
O12 H14 1_555 1_555
N5 C16 1_555 1_555
H5 C15 1_555 1_555
C16 C15 1_555 1_555
H6 C16 1_555 1_555
C17 N5 1_555 1_555
H7 C17 1_555 1_555
N2 C16_2 1_555 1_555
H5_2 C15_2 1_555 1_555
C16_2 C15_2 1_555 1_555
H6_2 C16_2 1_555 1_555
C17_2 N2 1_555 1_555
H7_2 C17_2 1_555 1_555
Zn4 N2 1_555 1_555
O4_2 Gd2 1_555 1_555
O13 C3_2 1_555 1_555
O7 C4_2 1_555 1_555
O9_2 Gd2 1_555 1_555
O11_2 C4_2 1_555 1_555
N1 C1_2 1_555 1_555
O12_2 Gd2 1_555 1_555
C1_2 C4_2 1_555 1_555
C3_2 O9_2 1_555 1_555
C5_2 C1_2 1_555 1_555
C8_2 N1 1_555 1_555
H1_2 C8_2 1_555 1_555
C10_2 C5_2 1_555 1_555
H2_2 C10_2 1_555 1_555
C12_2 C8_2 1_555 1_555
H3_2 C12_2 1_555 1_555
Zn4 O7 1_555 1_555
N1 Zn4 1_555 1_555
C3_2 C5_2 1_555 1_555
C10_2 C12_2 1_555 1_555
O12_2 H14_2 1_555 1_555
O15 C9_2 1_555 1_555
O16 C9_2 1_555 1_555
C9_2 C13_2 1_555 1_555
C19_2 C13_2 1_555 1_555
H9_2 C19_2 1_555 1_555
H10_2 C20_2 1_555 1_555
C19_2 C20_2 1_555 1_555
Zn4 O2_2 1_555 1_555
O1_2 C2_2 1_555 1_555
N3_2 Zn4 1_555 1_555
C2_2 O2_2 1_555 1_555
C6_2 N3_2 1_555 1_555
C11_2 C7_2 1_555 1_555
C14_2 C11_2 1_555 1_555
H4_2 C14_2 1_555 1_555
C18_2 N3_2 1_555 1_555
H8_2 C18_2 1_555 1_555
O5_2 C7_2 1_555 1_555
C2_2 C6_2 1_555 1_555
O3_2 H11_2 1_555 1_555
O3_2 H12_2 1_555 1_555

#END
