
###############################################################################
#
# This file contains modified crystal structure data generated from the
# MOF subset of the Cambridge Structural Database (CSD) v543 
# hosted by the Cambridge Crystallographic Data Centre (CCDC).
#
# This work is licensed under the Creative Commons
# Attribution-NonCommercial-ShareAlike 4.0 International License.
# To view a copy of this license, visit
# http://creativecommons.org/licenses/by-nc-sa/4.0/
# or send a letter to
# Creative Commons, PO Box 1866, Mountain View, CA 94042, USA.
#
# CIF created using the CSD Python API on 29 September 2022
# The structure has been converted into the P1 space group
# The structure has a 3D framework
# The original CSD entry WOHBOL is in the monoclinic crystal system
# The framework has been calculated to contain at least 10.0% void space
# The void calculation uses a probe of radius 1.32A, grid spacing 0.4
#
###############################################################################

data_WOHBOL
_chemical_formula_moiety         '(C88 H88 Cu8 N8 O32)n'
_symmetry_cell_setting           triclinic
_symmetry_space_group_name_H-M   'P 1'
_symmetry_Int_Tables_number      1
_space_group_name_Hall           'P 1'
loop_
_symmetry_equiv_pos_site_id
_symmetry_equiv_pos_as_xyz
1 x,y,z
_cell_length_a                   24.812(7)
_cell_length_b                   13.157(4)
_cell_length_c                   8.551(3)
_cell_angle_alpha                90
_cell_angle_beta                 91.263(10)
_cell_angle_gamma                90
_cell_volume                     2790.81
loop_
_atom_site_label
_atom_site_type_symbol
_atom_site_fract_x
_atom_site_fract_y
_atom_site_fract_z
H1 H 0.6704 0.0097 0.3410
C2 C 0.60521(9) 0.02044(17) 0.1971(3)
H2 H 0.6071 0.0921 0.1847
C6 C 0.52223(9) 0.01967(18) 0.0305(3)
H5 H 0.5265 0.0911 0.0193
Cu6 Cu 0.793691(10) 0.295842(18) 0.05373(3)
O7 O 0.81970(6) 0.15710(11) 0.0988(2)
O10 O 0.74530(7) 0.07894(11) 0.0093(2)
C22 C 0.79186(9) 0.07971(16) 0.0708(2)
Cu5 Cu 0.293691(10) 0.204158(18) 0.55373(3)
Cu7 Cu 0.706309(10) 0.204158(18) 0.94627(3)
N2 N 0.35981(7) 0.12896(13) 0.6776(2)
C12 C 0.35748(9) 0.02908(17) 0.7082(3)
C14 C 0.43741(9) 0.03432(17) 0.8716(3)
C15 C 0.43875(9) 0.13874(17) 0.8438(3)
H14 H 0.4655 0.1795 0.8946
C16 C 0.39993(9) 0.18204(17) 0.7468(3)
H15 H 0.4009 0.2537 0.7326
H8 H 0.6777 0.5985 0.0885
H9 H 0.7359 0.6150 0.0112
Cu1 Cu 0.706309(10) 0.795842(18) 0.44627(3)
O1 O 0.67732(7) 0.78068(13) 0.65843(19)
O2 O 0.75271(7) 0.70577(12) 0.74881(19)
O3 O 0.68030(6) 0.34290(11) 0.9012(2)
O4 O 0.75470(7) 0.42106(11) 0.9907(2)
N1 N 0.64019(7) 0.87104(13) 0.3224(2)
C1 C 0.64252(9) 0.97092(17) 0.2918(3)
C3 C 0.56259(9) 0.96568(17) 0.1284(3)
C4 C 0.56125(9) 0.86126(17) 0.1562(3)
H3 H 0.5345 0.8205 0.1054
C5 C 0.60007(9) 0.81796(17) 0.2532(3)
H4 H 0.5991 0.7463 0.2674
C7 C 0.70477(9) 0.73512(15) 0.7624(3)
C8 C 0.67790(9) 0.71236(16) 0.9168(3)
H6 H 0.6382 0.7095 0.9002
H7 H 0.6859 0.7682 0.9915
C9 C 0.69656(9) 0.61104(16) 0.9884(3)
C10 C 0.68415(9) 0.52200(16) 0.8786(3)
H10 H 0.6445 0.5146 0.8651
H11 H 0.6992 0.5397 0.7748
C11 C 0.70814(9) 0.42029(16) 0.9292(2)
Cu2 Cu 0.793691(10) 0.704158(18) 0.55373(3)
O5 O 0.82268(7) 0.71932(13) 0.34157(19)
O6 O 0.74729(7) 0.79423(12) 0.25119(19)
O8 O 0.68030(6) 0.65710(11) 0.4012(2)
O9 O 0.81970(6) 0.84290(11) 0.5988(2)
O11 O 0.74530(7) 0.92106(11) 0.5093(2)
O12 O 0.75470(7) 0.57894(11) 0.4907(2)
N3 N 0.85981(7) 0.62896(13) 0.6776(2)
C18 C 0.79523(9) 0.76488(15) 0.2376(3)
C19 C 0.82210(9) 0.78764(16) 0.0832(3)
H17 H 0.8618 0.7905 0.0998
H18 H 0.8141 0.7318 0.0085
C20 C 0.80344(9) 0.88896(16) 0.0116(3)
C21 C 0.81585(9) 0.97800(16) 0.1214(3)
H21 H 0.8555 0.9854 0.1349
H22 H 0.8008 0.9603 0.2252
H12 H 0.3296 0.9903 0.6590
C13 C 0.39479(9) 0.97956(17) 0.8029(3)
H13 H 0.3929 0.9079 0.8153
C17 C 0.47777(9) 0.98033(18) 0.9695(3)
H16 H 0.4735 0.9089 0.9807
H19 H 0.8223 0.9015 0.9115
H20 H 0.7641 0.8850 0.9888
H8_2 H 0.1777 0.0985 0.0885
H9_2 H 0.2359 0.1150 0.0112
Cu1_2 Cu 0.206309(10) 0.295842(18) 0.44627(3)
O1_2 O 0.17732(7) 0.28068(13) 0.65843(19)
O2_2 O 0.25271(7) 0.20577(12) 0.74881(19)
N1_2 N 0.14019(7) 0.37104(13) 0.3224(2)
C1_2 C 0.14252(9) 0.47092(17) 0.2918(3)
H1_2 H 0.1704 0.5097 0.3410
C2_2 C 0.10521(9) 0.52044(17) 0.1971(3)
H2_2 H 0.1071 0.5921 0.1847
C3_2 C 0.06259(9) 0.46568(17) 0.1284(3)
C4_2 C 0.06125(9) 0.36126(17) 0.1562(3)
H3_2 H 0.0345 0.3205 0.1054
C5_2 C 0.10007(9) 0.31796(17) 0.2532(3)
H4_2 H 0.0991 0.2463 0.2674
C6_2 C 0.02223(9) 0.51967(18) 0.0305(3)
H5_2 H 0.0265 0.5911 0.0193
C7_2 C 0.20477(9) 0.23512(15) 0.7624(3)
C8_2 C 0.17790(9) 0.21236(16) 0.9168(3)
H6_2 H 0.1382 0.2095 0.9002
H7_2 H 0.1859 0.2682 0.9915
C9_2 C 0.19656(9) 0.11104(16) 0.9884(3)
C10_2 C 0.18415(9) 0.02200(16) 0.8786(3)
H10_2 H 0.1445 0.0146 0.8651
H11_2 H 0.1992 0.0397 0.7748
Cu6_2 Cu 0.293691(10) 0.795842(18) 0.05373(3)
O5_2 O 0.32268(7) 0.21932(13) 0.34157(19)
O6_2 O 0.24729(7) 0.29423(12) 0.25119(19)
O7_2 O 0.31970(6) 0.65710(11) 0.0988(2)
O8_2 O 0.18030(6) 0.15710(11) 0.4012(2)
O9_2 O 0.31970(6) 0.34290(11) 0.5988(2)
O10_2 O 0.24530(7) 0.57894(11) 0.0093(2)
O11_2 O 0.24530(7) 0.42106(11) 0.5093(2)
O12_2 O 0.25470(7) 0.07894(11) 0.4907(2)
C18_2 C 0.29523(9) 0.26488(15) 0.2376(3)
C19_2 C 0.32210(9) 0.28764(16) 0.0832(3)
H17_2 H 0.3618 0.2905 0.0998
H18_2 H 0.3141 0.2318 0.0085
C20_2 C 0.30344(9) 0.38896(16) 0.0116(3)
C21_2 C 0.31585(9) 0.47800(16) 0.1214(3)
H21_2 H 0.3555 0.4854 0.1349
H22_2 H 0.3008 0.4603 0.2252
C22_2 C 0.29186(9) 0.57971(16) 0.0708(2)
Cu7_2 Cu 0.206309(10) 0.704158(18) 0.94627(3)
H19_2 H 0.3223 0.4015 0.9115
H20_2 H 0.2641 0.3850 0.9888
O3_2 O 0.18030(6) 0.84290(11) 0.9012(2)
O4_2 O 0.25470(7) 0.92106(11) 0.9907(2)
C11_2 C 0.20814(9) 0.92029(16) 0.9292(2)
C12_2 C 0.85748(9) 0.52908(17) 0.7082(3)
H12_2 H 0.8296 0.4903 0.6590
C13_2 C 0.89479(9) 0.47956(17) 0.8029(3)
H13_2 H 0.8929 0.4079 0.8153
C14_2 C 0.93741(9) 0.53432(17) 0.8716(3)
C15_2 C 0.93875(9) 0.63874(17) 0.8438(3)
H14_2 H 0.9655 0.6795 0.8946
C16_2 C 0.89993(9) 0.68204(17) 0.7468(3)
H15_2 H 0.9009 0.7537 0.7326
C17_2 C 0.97777(9) 0.48033(18) 0.9695(3)
H16_2 H 0.9735 0.4089 0.9807
H1_3 H 0.3296 0.0097 0.1590
C2_3 C 0.39479(9) 0.02044(17) 0.3029(3)
H2_3 H 0.3929 0.0921 0.3153
C6_3 C 0.47777(9) 0.01967(18) 0.4695(3)
H5_3 H 0.4735 0.0911 0.4807
N2_2 N 0.64019(7) 0.12896(13) 0.8224(2)
C12_3 C 0.64252(9) 0.02908(17) 0.7918(3)
C14_3 C 0.56259(9) 0.03432(17) 0.6284(3)
C15_3 C 0.56125(9) 0.13874(17) 0.6562(3)
H14_3 H 0.5345 0.1795 0.6054
C16_3 C 0.60007(9) 0.18204(17) 0.7532(3)
H15_3 H 0.5991 0.2537 0.7674
C22_3 C 0.20814(9) 0.07971(16) 0.4292(2)
N1_3 N 0.35981(7) 0.87104(13) 0.1776(2)
C1_3 C 0.35748(9) 0.97092(17) 0.2082(3)
C3_3 C 0.43741(9) 0.96568(17) 0.3716(3)
C4_3 C 0.43875(9) 0.86126(17) 0.3438(3)
H3_3 H 0.4655 0.8205 0.3946
C5_3 C 0.39993(9) 0.81796(17) 0.2468(3)
H4_3 H 0.4009 0.7463 0.2326
O5_3 O 0.17732(7) 0.71932(13) 0.15843(19)
O6_3 O 0.25271(7) 0.79423(12) 0.24881(19)
H12_3 H 0.6704 0.9903 0.8410
C13_3 C 0.60521(9) 0.97956(17) 0.6971(3)
H13_3 H 0.6071 0.9079 0.6847
C17_3 C 0.52223(9) 0.98033(18) 0.5305(3)
H16_3 H 0.5265 0.9089 0.5193
C18_3 C 0.20477(9) 0.76488(15) 0.2624(3)
C19_3 C 0.17790(9) 0.78764(16) 0.4168(3)
H17_3 H 0.1382 0.7905 0.4002
H18_3 H 0.1859 0.7318 0.4915
C20_3 C 0.19656(9) 0.88896(16) 0.4884(3)
H19_3 H 0.1777 0.9015 0.5885
H20_3 H 0.2359 0.8850 0.5112
C21_3 C 0.18415(9) 0.97800(16) 0.3786(3)
H21_3 H 0.1445 0.9854 0.3651
H22_3 H 0.1992 0.9603 0.2748
O1_3 O 0.32268(7) 0.78068(13) 0.84157(19)
O2_3 O 0.24729(7) 0.70577(12) 0.75119(19)
C7_3 C 0.29523(9) 0.73512(15) 0.7376(3)
C8_3 C 0.32210(9) 0.71236(16) 0.5832(3)
H6_3 H 0.3618 0.7095 0.5998
H7_3 H 0.3141 0.7682 0.5085
C9_3 C 0.30344(9) 0.61104(16) 0.5116(3)
H8_3 H 0.3223 0.5985 0.4115
H9_3 H 0.2641 0.6150 0.4888
C10_3 C 0.31585(9) 0.52200(16) 0.6214(3)
H10_3 H 0.3555 0.5146 0.6349
H11_3 H 0.3008 0.5397 0.7252
C11_3 C 0.29186(9) 0.42029(16) 0.5708(2)
N3_2 N 0.14019(7) 0.62896(13) 0.8224(2)
C12_4 C 0.14252(9) 0.52908(17) 0.7918(3)
H12_4 H 0.1704 0.4903 0.8410
C13_4 C 0.10521(9) 0.47956(17) 0.6971(3)
H13_4 H 0.1071 0.4079 0.6847
C14_4 C 0.06259(9) 0.53432(17) 0.6284(3)
C15_4 C 0.06125(9) 0.63874(17) 0.6562(3)
H14_4 H 0.0345 0.6795 0.6054
C16_4 C 0.10007(9) 0.68204(17) 0.7532(3)
H15_4 H 0.0991 0.7537 0.7674
C17_4 C 0.02223(9) 0.48033(18) 0.5305(3)
H16_4 H 0.0265 0.4089 0.5193
N1_4 N 0.85981(7) 0.37104(13) 0.1776(2)
C1_4 C 0.85748(9) 0.47092(17) 0.2082(3)
H1_4 H 0.8296 0.5097 0.1590
C2_4 C 0.89479(9) 0.52044(17) 0.3029(3)
H2_4 H 0.8929 0.5921 0.3153
C3_4 C 0.93741(9) 0.46568(17) 0.3716(3)
C4_4 C 0.93875(9) 0.36126(17) 0.3438(3)
H3_4 H 0.9655 0.3205 0.3946
C5_4 C 0.89993(9) 0.31796(17) 0.2468(3)
H4_4 H 0.9009 0.2463 0.2326
C6_4 C 0.97777(9) 0.51967(18) 0.4695(3)
H5_4 H 0.9735 0.5911 0.4807
O5_4 O 0.67732(7) 0.21932(13) 0.15843(19)
O6_4 O 0.75271(7) 0.29423(12) 0.24881(19)
C18_4 C 0.70477(9) 0.26488(15) 0.2624(3)
C19_4 C 0.67790(9) 0.28764(16) 0.4168(3)
H17_4 H 0.6382 0.2905 0.4002
H18_4 H 0.6859 0.2318 0.4915
C20_4 C 0.69656(9) 0.38896(16) 0.4884(3)
H19_4 H 0.6777 0.4015 0.5885
H20_4 H 0.7359 0.3850 0.5112
C21_4 C 0.68415(9) 0.47800(16) 0.3786(3)
H21_4 H 0.6445 0.4854 0.3651
H22_4 H 0.6992 0.4603 0.2748
C22_4 C 0.70814(9) 0.57971(16) 0.4292(2)
O1_4 O 0.82268(7) 0.28068(13) 0.84157(19)
O2_4 O 0.74729(7) 0.20577(12) 0.75119(19)
C7_4 C 0.79523(9) 0.23512(15) 0.7376(3)
C8_4 C 0.82210(9) 0.21236(16) 0.5832(3)
H6_4 H 0.8618 0.2095 0.5998
H7_4 H 0.8141 0.2682 0.5085
C9_4 C 0.80344(9) 0.11104(16) 0.5116(3)
H8_4 H 0.8223 0.0985 0.4115
H9_4 H 0.7641 0.1150 0.4888
C10_4 C 0.81585(9) 0.02200(16) 0.6214(3)
H10_4 H 0.8555 0.0146 0.6349
H11_4 H 0.8008 0.0397 0.7252
C11_4 C 0.79186(9) 0.92029(16) 0.5708(2)
loop_
_geom_bond_atom_site_label_1
_geom_bond_atom_site_label_2
_geom_bond_site_symmetry_1
_geom_bond_site_symmetry_2
H2 C2 1_555 1_555
H5 C6 1_555 1_555
Cu6 O7 1_555 1_555
O7 C22 1_555 1_555
O10 C22 1_555 1_555
Cu5 N2 1_555 1_555
N2 C12 1_555 1_555
C15 C14 1_555 1_555
H14 C15 1_555 1_555
C16 N2 1_555 1_555
H15 C16 1_555 1_555
C15 C16 1_555 1_555
Cu1 O1 1_555 1_555
O1 C7 1_555 1_555
O2 C7 1_555 1_555
O3 C11 1_555 1_555
O4 C11 1_555 1_555
N1 Cu1 1_555 1_555
C1 N1 1_555 1_555
C4 C3 1_555 1_555
H3 C4 1_555 1_555
C5 N1 1_555 1_555
H4 C5 1_555 1_555
C7 C8 1_555 1_555
C8 H6 1_555 1_555
H7 C8 1_555 1_555
C9 C8 1_555 1_555
C10 C9 1_555 1_555
H10 C10 1_555 1_555
H11 C10 1_555 1_555
C11 C10 1_555 1_555
Cu2 O2 1_555 1_555
Cu7 O3 1_555 1_555
O5 Cu2 1_555 1_555
O6 Cu1 1_555 1_555
O8 Cu1 1_555 1_555
O9 Cu2 1_555 1_555
O11 Cu1 1_555 1_555
O12 Cu2 1_555 1_555
N3 Cu2 1_555 1_555
C18 O5 1_555 1_555
C19 C18 1_555 1_555
H17 C19 1_555 1_555
H18 C19 1_555 1_555
C20 C19 1_555 1_555
C21 C20 1_555 1_555
H21 C21 1_555 1_555
H22 C21 1_555 1_555
C4 C5 1_555 1_555
O6 C18 1_555 1_555
H13 C13 1_555 1_555
H16 C17 1_555 1_555
Cu1_2 O1_2 1_555 1_555
O1_2 C7_2 1_555 1_555
O2_2 C7_2 1_555 1_555
N1_2 Cu1_2 1_555 1_555
C1_2 N1_2 1_555 1_555
H1_2 C1_2 1_555 1_555
C2_2 C1_2 1_555 1_555
H2_2 C2_2 1_555 1_555
C3_2 C2_2 1_555 1_555
C4_2 C3_2 1_555 1_555
H3_2 C4_2 1_555 1_555
C5_2 N1_2 1_555 1_555
H4_2 C5_2 1_555 1_555
C6_2 C3_2 1_555 1_555
H5_2 C6_2 1_555 1_555
C7_2 C8_2 1_555 1_555
C8_2 H6_2 1_555 1_555
H7_2 C8_2 1_555 1_555
C9_2 C8_2 1_555 1_555
C10_2 C9_2 1_555 1_555
H10_2 C10_2 1_555 1_555
H11_2 C10_2 1_555 1_555
Cu5 O2_2 1_555 1_555
Cu6_2 O7_2 1_555 1_555
O5_2 Cu5 1_555 1_555
O6_2 Cu1_2 1_555 1_555
O7_2 C22_2 1_555 1_555
O8_2 Cu1_2 1_555 1_555
O9_2 Cu5 1_555 1_555
O10_2 C22_2 1_555 1_555
O11_2 Cu1_2 1_555 1_555
O12_2 Cu5 1_555 1_555
C18_2 O5_2 1_555 1_555
C19_2 C18_2 1_555 1_555
H17_2 C19_2 1_555 1_555
H18_2 C19_2 1_555 1_555
C20_2 C19_2 1_555 1_555
C21_2 C20_2 1_555 1_555
H21_2 C21_2 1_555 1_555
H22_2 C21_2 1_555 1_555
C22_2 C21_2 1_555 1_555
C4_2 C5_2 1_555 1_555
O6_2 C18_2 1_555 1_555
O3_2 C11_2 1_555 1_555
O4_2 C11_2 1_555 1_555
Cu7_2 O3_2 1_555 1_555
N3 C12_2 1_555 1_555
C12_2 H12_2 1_555 1_555
C13_2 C12_2 1_555 1_555
H13_2 C13_2 1_555 1_555
C14_2 C13_2 1_555 1_555
C15_2 C14_2 1_555 1_555
H14_2 C15_2 1_555 1_555
C16_2 N3 1_555 1_555
H15_2 C16_2 1_555 1_555
H16_2 C17_2 1_555 1_555
C14_2 C17_2 1_555 1_555
C15_2 C16_2 1_555 1_555
H2_3 C2_3 1_555 1_555
H5_3 C6_3 1_555 1_555
Cu7 N2_2 1_555 1_555
O8_2 C22_3 1_555 1_555
O12_2 C22_3 1_555 1_555
N2_2 C12_3 1_555 1_555
C15_3 C14_3 1_555 1_555
H14_3 C15_3 1_555 1_555
C16_3 N2_2 1_555 1_555
H15_3 C16_3 1_555 1_555
C15_3 C16_3 1_555 1_555
N1_3 Cu6_2 1_555 1_555
C1_3 N1_3 1_555 1_555
C4_3 C3_3 1_555 1_555
H3_3 C4_3 1_555 1_555
C5_3 N1_3 1_555 1_555
H4_3 C5_3 1_555 1_555
O6_3 Cu6_2 1_555 1_555
H13_3 C13_3 1_555 1_555
H16_3 C17_3 1_555 1_555
C18_3 O5_3 1_555 1_555
C19_3 C18_3 1_555 1_555
H17_3 C19_3 1_555 1_555
H18_3 C19_3 1_555 1_555
C20_3 C19_3 1_555 1_555
H19_3 C20_3 1_555 1_555
H20_3 C20_3 1_555 1_555
C21_3 C20_3 1_555 1_555
H21_3 C21_3 1_555 1_555
H22_3 C21_3 1_555 1_555
C4_3 C5_3 1_555 1_555
O6_3 C18_3 1_555 1_555
O1_3 C7_3 1_555 1_555
O2_3 C7_3 1_555 1_555
O9_2 C11_3 1_555 1_555
O11_2 C11_3 1_555 1_555
C7_3 C8_3 1_555 1_555
C8_3 H6_3 1_555 1_555
H7_3 C8_3 1_555 1_555
C9_3 C8_3 1_555 1_555
H8_3 C9_3 1_555 1_555
H9_3 C9_3 1_555 1_555
C10_3 C9_3 1_555 1_555
H10_3 C10_3 1_555 1_555
H11_3 C10_3 1_555 1_555
C11_3 C10_3 1_555 1_555
Cu7_2 O2_3 1_555 1_555
N3_2 Cu7_2 1_555 1_555
N3_2 C12_4 1_555 1_555
C12_4 H12_4 1_555 1_555
C13_4 C12_4 1_555 1_555
H13_4 C13_4 1_555 1_555
C14_4 C13_4 1_555 1_555
C15_4 C14_4 1_555 1_555
H14_4 C15_4 1_555 1_555
C16_4 N3_2 1_555 1_555
H15_4 C16_4 1_555 1_555
H16_4 C17_4 1_555 1_555
C14_4 C17_4 1_555 1_555
C15_4 C16_4 1_555 1_555
N1_4 Cu6 1_555 1_555
C1_4 N1_4 1_555 1_555
H1_4 C1_4 1_555 1_555
C2_4 C1_4 1_555 1_555
H2_4 C2_4 1_555 1_555
C3_4 C2_4 1_555 1_555
C4_4 C3_4 1_555 1_555
H3_4 C4_4 1_555 1_555
C5_4 N1_4 1_555 1_555
H4_4 C5_4 1_555 1_555
C6_4 C3_4 1_555 1_555
H5_4 C6_4 1_555 1_555
O6_4 Cu6 1_555 1_555
O8 C22_4 1_555 1_555
O12 C22_4 1_555 1_555
C18_4 O5_4 1_555 1_555
C19_4 C18_4 1_555 1_555
H17_4 C19_4 1_555 1_555
H18_4 C19_4 1_555 1_555
C20_4 C19_4 1_555 1_555
H19_4 C20_4 1_555 1_555
H20_4 C20_4 1_555 1_555
C21_4 C20_4 1_555 1_555
H21_4 C21_4 1_555 1_555
H22_4 C21_4 1_555 1_555
C22_4 C21_4 1_555 1_555
C4_4 C5_4 1_555 1_555
O6_4 C18_4 1_555 1_555
O1_4 C7_4 1_555 1_555
O2_4 C7_4 1_555 1_555
C7_4 C8_4 1_555 1_555
C8_4 H6_4 1_555 1_555
H7_4 C8_4 1_555 1_555
C9_4 C8_4 1_555 1_555
H8_4 C9_4 1_555 1_555
H9_4 C9_4 1_555 1_555
C10_4 C9_4 1_555 1_555
H10_4 C10_4 1_555 1_555
H11_4 C10_4 1_555 1_555
Cu7 O2_4 1_555 1_555
O9 C11_4 1_555 1_555
O11 C11_4 1_555 1_555

#END
