
###############################################################################
#
# This file contains modified crystal structure data generated from the
# MOF subset of the Cambridge Structural Database (CSD) v543 
# hosted by the Cambridge Crystallographic Data Centre (CCDC).
#
# This work is licensed under the Creative Commons
# Attribution-NonCommercial-ShareAlike 4.0 International License.
# To view a copy of this license, visit
# http://creativecommons.org/licenses/by-nc-sa/4.0/
# or send a letter to
# Creative Commons, PO Box 1866, Mountain View, CA 94042, USA.
#
# CIF created using the CSD Python API on 29 September 2022
# The structure has been converted into the P1 space group
# The structure has a 3D framework
# The original CSD entry WOHQAN is in the triclinic crystal system
# The framework has been calculated to contain at least 10.0% void space
# The void calculation uses a probe of radius 1.32A, grid spacing 0.4
#
###############################################################################

data_WOHQAN
_chemical_formula_moiety         '(C36 H40 Cu6 Mn4 N6 O24 S6)n'
_symmetry_cell_setting           triclinic
_symmetry_space_group_name_H-M   'P 1'
_symmetry_Int_Tables_number      1
_space_group_name_Hall           'P 1'
loop_
_symmetry_equiv_pos_site_id
_symmetry_equiv_pos_as_xyz
1 x,y,z
_cell_length_a                   12.3484(6)
_cell_length_b                   12.4660(5)
_cell_length_c                   14.0980(8)
_cell_angle_alpha                97.148(4)
_cell_angle_beta                 108.384(5)
_cell_angle_gamma                119.315(5)
_cell_volume                     1690.65
loop_
_atom_site_label
_atom_site_type_symbol
_atom_site_fract_x
_atom_site_fract_y
_atom_site_fract_z
Cu1 Cu 0.09316(4) 0.42791(4) 0.58510(3)
Cu3 Cu 0.10148(4) 0.50696(4) 0.40835(3)
Mn1 Mn 0.11058(5) 0.01112(5) 0.10698(4)
Mn2 Mn 0.25358(5) 0.31832(5) 0.05971(4)
S3 S 0.29938(8) 0.62158(8) 0.65959(6)
O1 O 0.0758(2) 0.1269(2) 0.20693(18)
O5 O 0.6198(3) 0.6562(2) 0.7842(2)
O6 O 0.6683(2) 0.8535(2) 0.78334(18)
O9 O 0.1160(3) 0.3317(3) 0.1260(2)
O10 O 0.3908(4) 0.5313(3) 0.1103(3)
O12 O 0.4007(3) 0.3021(3) 0.0057(2)
N1 N 0.0967(3) 0.2769(3) 0.5169(2)
N3 N 0.3048(3) 0.5760(3) 0.4707(2)
C1 C 0.0387(3) 0.2244(3) 0.4102(2)
C2 C 0.0406(3) 0.1215(3) 0.3609(2)
C3 C 0.1017(3) 0.0714(3) 0.4232(3)
H1 H 0.1027 0.0019 0.3920
C4 C 0.1616(3) 0.1262(3) 0.5332(3)
H2 H 0.2040 0.0946 0.5767
C5 C 0.1567(3) 0.2284(3) 0.5764(3)
H3 H 0.1969 0.2651 0.6499
C13 C 0.3820(3) 0.6245(3) 0.5765(2)
C14 C 0.5228(3) 0.6758(3) 0.6207(3)
C15 C 0.5828(4) 0.6742(3) 0.5531(3)
H7 H 0.6763 0.7072 0.5808
C16 C 0.5037(4) 0.6234(3) 0.4440(3)
H8 H 0.5427 0.6214 0.3976
C17 C 0.3661(4) 0.5760(3) 0.4066(3)
H9 H 0.3126 0.5422 0.3336
C18 C 0.6106(3) 0.7334(3) 0.7397(3)
H15 H 0.116(6) 0.293(5) 0.179(3)
H16 H 0.106(8) 0.402(5) 0.140(5)
H17 H 0.348(6) 0.575(6) 0.117(6)
H18 H 0.485(3) 0.585(6) 0.161(5)
H20 H 0.483(6) 0.386(4) 0.046(5)
Cu5 Cu 0.16087(4) 0.68522(4) 0.58891(3)
Mn5 Mn 0.88942(5) 0.98888(5) 0.89302(4)
Mn6 Mn 0.74642(5) 0.68168(5) 0.94029(4)
S4 S 0.05049(8) 0.63628(8) 0.33653(6)
O14 O 0.3802(3) 0.3438(2) 0.2158(2)
O15 O 0.3317(2) 0.1465(2) 0.21666(18)
O8 O 0.1131(2) 0.1126(2) 0.99459(18)
O11 O 0.1519(3) 0.3369(3) 0.9118(3)
H10 H 0.133(4) 0.098(4) 0.956(3)
H11 H 0.195(5) 0.383(5) 0.892(4)
H12 H 0.078(6) 0.264(5) 0.870(4)
H19 H 0.373(8) 0.287(8) 0.9320(14)
O7 O 0.1547(3) 0.8826(3) 0.0281(2)
H13 H 0.173(6) 0.844(6) 0.081(5)
O13 O 0.1030(2) 0.8959(2) 0.21880(18)
Cu2 Cu 0.83913(4) 0.31478(4) 0.41109(3)
S1 S 0.96085(8) 0.28992(8) 0.33229(6)
S2 S 0.94951(8) 0.36372(8) 0.66347(6)
O3 O 0.8970(2) 0.1041(2) 0.78120(18)
O4 O 0.7801(3) 0.1895(3) 0.7999(2)
N2 N 0.7562(3) 0.1752(3) 0.4761(2)
C6 C 0.9865(3) 0.0728(3) 0.2422(3)
C7 C 0.6501(4) 0.0536(3) 0.4125(3)
H4 H 0.6155 0.0354 0.3394
C10 C 0.7524(3) 0.1065(3) 0.6266(3)
C11 C 0.8077(3) 0.2031(3) 0.5815(3)
C12 C 0.8138(3) 0.1367(3) 0.7453(3)
Cu4 Cu 0.90684(4) 0.57209(4) 0.41490(3)
Cu6 Cu 0.89852(4) 0.49304(4) 0.59165(3)
S5 S 0.70062(8) 0.37842(8) 0.34041(6)
O2 O 0.8625(3) 0.9842(3) 0.18659(19)
C8 C 0.5904(4) 0.9545(3) 0.4510(3)
H5 H 0.5163 0.8711 0.4051
C9 C 0.6430(4) 0.9820(3) 0.5598(3)
H6 H 0.6047 0.9166 0.5878
O16 O 0.8869(2) 0.8874(2) 0.00541(18)
O2_2 O 0.1375(3) 0.0158(3) 0.81341(19)
C8_2 C 0.4096(4) 0.0455(3) 0.5490(3)
H5_2 H 0.4837 0.1289 0.5949
C9_2 C 0.3570(4) 0.0180(3) 0.4402(3)
H6_2 H 0.3953 0.0834 0.4122
S1_2 S 0.03915(8) 0.71008(8) 0.66771(6)
O4_2 O 0.2199(3) 0.8105(3) 0.2001(2)
N2_2 N 0.2438(3) 0.8248(3) 0.5239(2)
C6_2 C 0.0135(3) 0.9272(3) 0.7578(3)
C7_2 C 0.3499(4) 0.9464(3) 0.5875(3)
H4_2 H 0.3845 0.9646 0.6606
C10_2 C 0.2476(3) 0.8935(3) 0.3734(3)
C11_2 C 0.1923(3) 0.7969(3) 0.4185(3)
C12_2 C 0.1862(3) 0.8633(3) 0.2547(3)
O7_2 O 0.8453(3) 0.1174(3) 0.9719(2)
H13_2 H 0.827(6) 0.156(6) 0.919(5)
O11_2 O 0.8481(3) 0.6631(3) 0.0882(3)
H10_2 H 0.867(4) 0.902(4) 0.044(3)
H11_2 H 0.805(5) 0.617(5) 0.108(4)
H12_2 H 0.922(6) 0.736(5) 0.130(4)
H19_2 H 0.627(8) 0.713(8) 0.0680(14)
O1_2 O 0.9242(2) 0.8731(2) 0.79307(18)
O9_2 O 0.8840(3) 0.6683(3) 0.8740(2)
O10_2 O 0.6092(4) 0.4687(3) 0.8897(3)
O12_2 O 0.5993(3) 0.6979(3) 0.9943(2)
N1_2 N 0.9033(3) 0.7231(3) 0.4831(2)
N3_2 N 0.6952(3) 0.4240(3) 0.5293(2)
C1_2 C 0.9613(3) 0.7756(3) 0.5898(2)
C2_2 C 0.9594(3) 0.8785(3) 0.6391(2)
C3_2 C 0.8983(3) 0.9286(3) 0.5768(3)
H1_2 H 0.8973 0.9981 0.6080
C4_2 C 0.8384(3) 0.8738(3) 0.4668(3)
H2_2 H 0.7960 0.9054 0.4233
C5_2 C 0.8433(3) 0.7716(3) 0.4236(3)
H3_2 H 0.8031 0.7349 0.3501
C13_2 C 0.6180(3) 0.3755(3) 0.4235(2)
C14_2 C 0.4772(3) 0.3242(3) 0.3793(3)
C15_2 C 0.4172(4) 0.3258(3) 0.4469(3)
H7_2 H 0.3237 0.2928 0.4192
C16_2 C 0.4963(4) 0.3766(3) 0.5560(3)
H8_2 H 0.4573 0.3786 0.6024
C17_2 C 0.6339(4) 0.4240(3) 0.5934(3)
H9_2 H 0.6874 0.4578 0.6664
C18_2 C 0.3894(3) 0.2666(3) 0.2603(3)
H15_2 H 0.884(6) 0.707(5) 0.821(3)
H16_2 H 0.894(8) 0.598(5) 0.860(5)
H17_2 H 0.652(6) 0.425(6) 0.883(6)
H18_2 H 0.515(3) 0.415(6) 0.839(5)
H20_2 H 0.517(6) 0.614(4) 0.954(5)
H14 H 0.092(7) 0.836(6) 0.992(5)
H14_2 H 0.908(7) 0.164(6) 0.008(5)
loop_
_geom_bond_atom_site_label_1
_geom_bond_atom_site_label_2
_geom_bond_site_symmetry_1
_geom_bond_site_symmetry_2
Cu3 Cu1 1_555 1_555
Mn1 O1 1_555 1_555
S3 Cu1 1_555 1_555
O5 C18 1_555 1_555
O6 C18 1_555 1_555
O9 Mn2 1_555 1_555
O10 Mn2 1_555 1_555
O12 Mn2 1_555 1_555
N1 Cu1 1_555 1_555
N3 Cu3 1_555 1_555
C2 C1 1_555 1_555
C3 C2 1_555 1_555
H1 C3 1_555 1_555
C4 C3 1_555 1_555
H2 C4 1_555 1_555
C5 N1 1_555 1_555
H3 C5 1_555 1_555
C13 S3 1_555 1_555
C14 C13 1_555 1_555
C15 C14 1_555 1_555
H7 C15 1_555 1_555
C16 C15 1_555 1_555
H8 C16 1_555 1_555
C17 N3 1_555 1_555
H9 C17 1_555 1_555
C18 C14 1_555 1_555
H15 O9 1_555 1_555
H16 O9 1_555 1_555
H17 O10 1_555 1_555
H18 O10 1_555 1_555
H20 O12 1_555 1_555
Cu5 Cu1 1_555 1_555
Mn5 O6 1_555 1_555
Mn6 O5 1_555 1_555
S4 Cu3 1_555 1_555
O14 Mn2 1_555 1_555
O15 Mn1 1_555 1_555
Cu3 Cu5 1_555 1_555
S3 Cu5 1_555 1_555
N1 C1 1_555 1_555
N3 C13 1_555 1_555
C4 C5 1_555 1_555
C16 C17 1_555 1_555
H10 O8 1_555 1_555
H11 O11 1_555 1_555
H12 O11 1_555 1_555
H13 O7 1_555 1_555
Cu2 S1 1_555 1_555
O3 C12 1_555 1_555
O4 C12 1_555 1_555
N2 Cu2 1_555 1_555
C7 N2 1_555 1_555
H4 C7 1_555 1_555
C11 S2 1_555 1_555
C12 C10 1_555 1_555
Cu4 Cu2 1_555 1_555
Cu6 Cu2 1_555 1_555
S5 Cu2 1_555 1_555
S2 Cu6 1_555 1_555
N2 C11 1_555 1_555
C10 C11 1_555 1_555
Cu4 Cu6 1_555 1_555
Cu4 S5 1_555 1_555
H5 C8 1_555 1_555
C9 C8 1_555 1_555
H6 C9 1_555 1_555
H5_2 C8_2 1_555 1_555
C9_2 C8_2 1_555 1_555
H6_2 C9_2 1_555 1_555
Cu5 S1_2 1_555 1_555
O13 C12_2 1_555 1_555
O4_2 C12_2 1_555 1_555
N2_2 Cu5 1_555 1_555
C7_2 N2_2 1_555 1_555
H4_2 C7_2 1_555 1_555
C11_2 S4 1_555 1_555
C12_2 C10_2 1_555 1_555
N2_2 C11_2 1_555 1_555
C10_2 C11_2 1_555 1_555
H13_2 O7_2 1_555 1_555
H10_2 O16 1_555 1_555
H11_2 O11_2 1_555 1_555
H12_2 O11_2 1_555 1_555
Mn5 O1_2 1_555 1_555
O14 C18_2 1_555 1_555
O15 C18_2 1_555 1_555
O9_2 Mn6 1_555 1_555
O10_2 Mn6 1_555 1_555
O12_2 Mn6 1_555 1_555
N1_2 Cu4 1_555 1_555
N3_2 Cu6 1_555 1_555
C2_2 C1_2 1_555 1_555
C3_2 C2_2 1_555 1_555
H1_2 C3_2 1_555 1_555
C4_2 C3_2 1_555 1_555
H2_2 C4_2 1_555 1_555
C5_2 N1_2 1_555 1_555
H3_2 C5_2 1_555 1_555
C13_2 S5 1_555 1_555
C14_2 C13_2 1_555 1_555
C15_2 C14_2 1_555 1_555
H7_2 C15_2 1_555 1_555
C16_2 C15_2 1_555 1_555
H8_2 C16_2 1_555 1_555
C17_2 N3_2 1_555 1_555
H9_2 C17_2 1_555 1_555
C18_2 C14_2 1_555 1_555
H15_2 O9_2 1_555 1_555
H16_2 O9_2 1_555 1_555
H17_2 O10_2 1_555 1_555
H18_2 O10_2 1_555 1_555
H20_2 O12_2 1_555 1_555
N1_2 C1_2 1_555 1_555
N3_2 C13_2 1_555 1_555
C4_2 C5_2 1_555 1_555
C16_2 C17_2 1_555 1_555

#END
