
###############################################################################
#
# This file contains modified crystal structure data generated from the
# MOF subset of the Cambridge Structural Database (CSD) v543 
# hosted by the Cambridge Crystallographic Data Centre (CCDC).
#
# This work is licensed under the Creative Commons
# Attribution-NonCommercial-ShareAlike 4.0 International License.
# To view a copy of this license, visit
# http://creativecommons.org/licenses/by-nc-sa/4.0/
# or send a letter to
# Creative Commons, PO Box 1866, Mountain View, CA 94042, USA.
#
# CIF created using the CSD Python API on 29 September 2022
# The structure has been converted into the P1 space group
# The structure has a 3D framework
# The original CSD entry WONYAC is in the triclinic crystal system
# The framework has been calculated to contain at least 10.0% void space
# The void calculation uses a probe of radius 1.32A, grid spacing 0.4
#
###############################################################################

data_WONYAC
_chemical_formula_moiety         '(C40 H24 Co1 O8)n'
_symmetry_cell_setting           triclinic
_symmetry_space_group_name_H-M   'P 1'
_symmetry_Int_Tables_number      1
_space_group_name_Hall           'P 1'
loop_
_symmetry_equiv_pos_site_id
_symmetry_equiv_pos_as_xyz
1 x,y,z
_cell_length_a                   4.81176(18)
_cell_length_b                   14.8530(11)
_cell_length_c                   14.9377(11)
_cell_angle_alpha                65.344(7)
_cell_angle_beta                 89.330(4)
_cell_angle_gamma                89.356(4)
_cell_volume                     970.161
loop_
_atom_site_label
_atom_site_type_symbol
_atom_site_fract_x
_atom_site_fract_y
_atom_site_fract_z
_atom_site_U_iso_or_equiv
_atom_site_thermal_displace_type
Co7 Co 0.24852(10) 0.53540(4) 0.03026(4) 0.0166 Uani
H1 H 0.0635 0.4801 0.2562 0.0370 Uiso
C6 C 0.0642(8) 0.4221(3) 0.4715(3) 0.0292 Uani
C7 C 0.1274(10) 0.3376(4) 0.4518(3) 0.0411 Uani
H3 H 0.0369 0.3305 0.4005 0.0490 Uiso
C8 C 0.3129(12) 0.2683(4) 0.5050(4) 0.0510 Uani
H4 H 0.3494 0.2147 0.4897 0.0610 Uiso
C9 C 0.4521(11) 0.2758(4) 0.5834(4) 0.0462 Uani
H5 H 0.5861 0.2289 0.6179 0.0550 Uiso
C10 C 0.3925(9) 0.3504(4) 0.6088(3) 0.0383 Uani
H6 H 0.4814 0.3526 0.6628 0.0460 Uiso
O5 O 0.5250(5) 0.4870(2) 0.84775(19) 0.0254 Uani
O6 O 0.1249(5) 0.53570(18) 0.89320(17) 0.0197 Uani
C21 C 0.2739(7) 0.5114(3) 0.8346(3) 0.0221 Uani
C22 C 0.1289(8) 0.5129(3) 0.7465(3) 0.0311 Uani
C23 C 0.2602(8) 0.5046(3) 0.6717(3) 0.0288 Uani
H14 H 0.4527 0.4983 0.6753 0.0350 Uiso
C24 C 0.1283(8) 0.5044(3) 0.5838(3) 0.0288 Uani
C25 C 0.1964(8) 0.4269(3) 0.5555(3) 0.0286 Uani
Co11 Co 0.75148(10) 0.46460(4) 0.96974(4) 0.0166 Uani
O8 O 0.0138(5) 0.65965(18) 0.9899(2) 0.0257 Uani
O1 O 0.4750(5) 0.5130(2) 0.15225(19) 0.0254 Uani
O2 O 0.8751(5) 0.46430(18) 0.10680(17) 0.0197 Uani
O3 O 0.3827(5) 0.39249(17) 0.04934(18) 0.0195 Uani
C1 C 0.7261(7) 0.4886(3) 0.1654(3) 0.0221 Uani
C2 C 0.8711(8) 0.4871(3) 0.2535(3) 0.0311 Uani
C3 C 0.7398(8) 0.4954(3) 0.3283(3) 0.0288 Uani
H2 H 0.5473 0.5017 0.3247 0.0350 Uiso
C4 C 0.8717(8) 0.4956(3) 0.4162(3) 0.0288 Uani
C5 C 0.8036(8) 0.5731(3) 0.4445(3) 0.0286 Uani
C11 C 0.2404(7) 0.3297(2) 0.0310(3) 0.0200 Uani
C12 C 0.3872(7) 0.2403(3) 0.0333(3) 0.0278 Uani
H7 H 0.5753 0.2321 0.0484 0.0330 Uiso
C13 C 0.2603(8) 0.1732(3) 0.0148(3) 0.0284 Uani
H8 H 0.0697 0.1812 0.0044 0.0340 Uiso
C14 C 0.3902(8) 0.0850(3) 0.0086(3) 0.0259 Uani
H13 H 0.9365 0.5199 0.7438 0.0370 Uiso
C26 C 0.9358(8) 0.5779(3) 0.5285(3) 0.0292 Uani
C27 C 0.8726(10) 0.6624(4) 0.5482(3) 0.0411 Uani
H15 H 0.9631 0.6695 0.5995 0.0490 Uiso
C28 C 0.6871(12) 0.7317(4) 0.4950(4) 0.0510 Uani
H16 H 0.6506 0.7853 0.5103 0.0610 Uiso
C29 C 0.5479(11) 0.7242(4) 0.4166(4) 0.0462 Uani
H17 H 0.4139 0.7711 0.3821 0.0550 Uiso
C30 C 0.6075(9) 0.6496(4) 0.3912(3) 0.0383 Uani
H18 H 0.5186 0.6474 0.3372 0.0460 Uiso
H24 H 0.0173 0.0332 0.1513 0.0470 Uiso
C16 C 0.5922(7) 0.0959(3) 0.9356(3) 0.0268 Uani
C17 C 0.6886(9) 0.1913(3) 0.8658(3) 0.0335 Uani
H9 H 0.6136 0.2485 0.8677 0.0400 Uiso
C18 C 0.8839(10) 0.1993(3) 0.7983(3) 0.0407 Uani
H10 H 0.9453 0.2616 0.7550 0.0490 Uiso
C19 C 0.9988(10) 0.1126(4) 0.7923(4) 0.0435 Uani
C20 C 0.9088(9) 0.0224(3) 0.8542(4) 0.0392 Uani
C35 C 0.7034(8) 0.0094(3) 0.9281(3) 0.0271 Uani
O14 O 0.6173(5) 0.60751(17) 0.95066(18) 0.0195 Uani
C15 C 0.2966(8) 0.9906(3) 0.0719(3) 0.0271 Uani
C36 C 0.4078(7) 0.9041(3) 0.0644(3) 0.0268 Uani
C37 C 0.3114(9) 0.8087(3) 0.1342(3) 0.0335 Uani
H21 H 0.3864 0.7515 0.1323 0.0400 Uiso
C38 C 0.1161(10) 0.8007(3) 0.2017(3) 0.0407 Uani
H22 H 0.0547 0.7384 0.2450 0.0490 Uiso
C39 C 0.0012(10) 0.8874(4) 0.2077(4) 0.0435 Uani
C40 C 0.0912(9) 0.9776(3) 0.1458(4) 0.0392 Uani
H12 H 0.9827 0.9668 0.8487 0.0470 Uiso
C31 C 0.7596(7) 0.6703(2) 0.9690(3) 0.0200 Uani
C32 C 0.6128(7) 0.7597(3) 0.9667(3) 0.0278 Uani
H19 H 0.4247 0.7679 0.9516 0.0330 Uiso
C33 C 0.7397(8) 0.8268(3) 0.9852(3) 0.0284 Uani
H20 H 0.9303 0.8188 0.9956 0.0340 Uiso
C34 C 0.6098(8) 0.9150(3) 0.9914(3) 0.0259 Uani
O4 O 0.9862(5) 0.34035(18) 0.0101(2) 0.0257 Uani
H11 H 0.1355 0.1187 0.7457 0.0520 Uiso
H23 H 0.8645 0.8813 0.2543 0.0520 Uiso
loop_
_atom_site_aniso_label
_atom_site_aniso_U_11
_atom_site_aniso_U_22
_atom_site_aniso_U_33
_atom_site_aniso_U_23
_atom_site_aniso_U_13
_atom_site_aniso_U_12
Co7 0.0134 0.0216 0.0205 -0.0143 -0.00254 0.00255
C6 0.03 0.044 0.0182 -0.0174 0.0019 -0.0031
C7 0.053 0.047 0.032 -0.025 -0.0083 0.003
C8 0.069 0.048 0.044 -0.027 -0.01 0.011
C9 0.046 0.05 0.039 -0.015 -0.011 0.013
C10 0.039 0.052 0.025 -0.0172 -0.0048 0.001
O5 0.0128 0.0467 0.0247 -0.0228 -0.003 0.0043
O6 0.0154 0.03 0.0188 -0.0151 -0.0025 0.0025
C21 0.0229 0.0286 0.0192 -0.0142 0.0009 -0.0017
C22 0.0183 0.056 0.026 -0.024 -0.0023 0.0009
C23 0.0231 0.047 0.0224 -0.0204 -0.0008 -0.0023
C24 0.0262 0.047 0.0163 -0.0161 0.0024 -0.0062
C25 0.0233 0.045 0.0193 -0.0153 0.0023 -0.0033
Co11 0.0134 0.0216 0.0205 -0.0143 -0.00254 0.00255
O8 0.0163 0.0226 0.0435 -0.0189 -0.002 0.0007
O1 0.0128 0.0467 0.0247 -0.0228 -0.003 0.0043
O2 0.0154 0.03 0.0188 -0.0151 -0.0025 0.0025
O3 0.0161 0.0197 0.0257 -0.0123 -0.0014 0.0012
C1 0.0229 0.0286 0.0192 -0.0142 0.0009 -0.0017
C2 0.0183 0.056 0.026 -0.024 -0.0023 0.0009
C3 0.0231 0.047 0.0224 -0.0204 -0.0008 -0.0023
C4 0.0262 0.047 0.0163 -0.0161 0.0024 -0.0062
C5 0.0233 0.045 0.0193 -0.0153 0.0023 -0.0033
C11 0.019 0.0175 0.0261 -0.0117 -0.0001 0.0005
C12 0.0145 0.0257 0.048 -0.0201 -0.0044 0.0061
C13 0.0224 0.027 0.043 -0.0217 -0.0045 0.0052
C14 0.0224 0.0251 0.038 -0.0209 -0.0077 0.0044
C26 0.03 0.044 0.0182 -0.0174 0.0019 -0.0031
C27 0.053 0.047 0.032 -0.025 -0.0083 0.003
C28 0.069 0.048 0.044 -0.027 -0.01 0.011
C29 0.046 0.05 0.039 -0.015 -0.011 0.013
C30 0.039 0.052 0.025 -0.0172 -0.0048 0.001
C16 0.021 0.0267 0.037 -0.0174 -0.0077 0.0026
C17 0.035 0.0284 0.039 -0.0159 -0.0071 0.0035
C18 0.043 0.036 0.037 -0.0092 -0.0016 -0.0026
C19 0.044 0.043 0.044 -0.019 0.011 -0.003
C20 0.036 0.04 0.048 -0.025 0.004 0.0061
C35 0.023 0.0266 0.037 -0.0185 -0.0055 0.0039
O14 0.0161 0.0197 0.0257 -0.0123 -0.0014 0.0012
C15 0.023 0.0266 0.037 -0.0185 -0.0055 0.0039
C36 0.021 0.0267 0.037 -0.0174 -0.0077 0.0026
C37 0.035 0.0284 0.039 -0.0159 -0.0071 0.0035
C38 0.043 0.036 0.037 -0.0092 -0.0016 -0.0026
C39 0.044 0.043 0.044 -0.019 0.011 -0.003
C40 0.036 0.04 0.048 -0.025 0.004 0.0061
C31 0.019 0.0175 0.0261 -0.0117 -0.0001 0.0005
C32 0.0145 0.0257 0.048 -0.0201 -0.0044 0.0061
C33 0.0224 0.027 0.043 -0.0217 -0.0045 0.0052
C34 0.0224 0.0251 0.038 -0.0209 -0.0077 0.0044
O4 0.0163 0.0226 0.0435 -0.0189 -0.002 0.0007
loop_
_geom_bond_atom_site_label_1
_geom_bond_atom_site_label_2
_geom_bond_site_symmetry_1
_geom_bond_site_symmetry_2
C7 C6 1_555 1_555
H3 C7 1_555 1_555
C8 C7 1_555 1_555
H4 C8 1_555 1_555
C9 C8 1_555 1_555
H5 C9 1_555 1_555
C10 C9 1_555 1_555
H6 C10 1_555 1_555
O5 C21 1_555 1_555
O6 C21 1_555 1_555
C21 C22 1_555 1_555
C23 C22 1_555 1_555
H14 C23 1_555 1_555
C24 C23 1_555 1_555
C25 C6 1_555 1_555
Co11 O5 1_555 1_555
C10 C25 1_555 1_555
C24 C25 1_555 1_555
Co7 O1 1_555 1_555
O1 C1 1_555 1_555
O2 C1 1_555 1_555
O3 Co7 1_555 1_555
C1 C2 1_555 1_555
C3 C2 1_555 1_555
H2 C3 1_555 1_555
C4 C3 1_555 1_555
C5 C4 1_555 1_555
C11 O3 1_555 1_555
C12 C11 1_555 1_555
H7 C12 1_555 1_555
C13 C12 1_555 1_555
H8 C13 1_555 1_555
C14 C13 1_555 1_555
C26 C5 1_555 1_555
C27 C26 1_555 1_555
H15 C27 1_555 1_555
C28 C27 1_555 1_555
H16 C28 1_555 1_555
C29 C28 1_555 1_555
H17 C29 1_555 1_555
C30 C5 1_555 1_555
H18 C30 1_555 1_555
C29 C30 1_555 1_555
C17 C16 1_555 1_555
H9 C17 1_555 1_555
C18 C17 1_555 1_555
H10 C18 1_555 1_555
C19 C18 1_555 1_555
C20 C19 1_555 1_555
C35 C16 1_555 1_555
C20 C35 1_555 1_555
Co11 O14 1_555 1_555
C36 C15 1_555 1_555
C37 C36 1_555 1_555
H21 C37 1_555 1_555
C38 C37 1_555 1_555
H22 C38 1_555 1_555
C39 C38 1_555 1_555
C40 C15 1_555 1_555
C39 C40 1_555 1_555
O14 C31 1_555 1_555
C31 C32 1_555 1_555
C32 H19 1_555 1_555
C33 C32 1_555 1_555
H20 C33 1_555 1_555
C34 C33 1_555 1_555

#END
