
###############################################################################
#
# This file contains modified crystal structure data generated from the
# MOF subset of the Cambridge Structural Database (CSD) v543 
# hosted by the Cambridge Crystallographic Data Centre (CCDC).
#
# This work is licensed under the Creative Commons
# Attribution-NonCommercial-ShareAlike 4.0 International License.
# To view a copy of this license, visit
# http://creativecommons.org/licenses/by-nc-sa/4.0/
# or send a letter to
# Creative Commons, PO Box 1866, Mountain View, CA 94042, USA.
#
# CIF created using the CSD Python API on 29 September 2022
# The structure has been converted into the P1 space group
# The structure has a 3D framework
# The original CSD entry WONYEG is in the triclinic crystal system
# The framework has been calculated to contain at least 10.0% void space
# The void calculation uses a probe of radius 1.32A, grid spacing 0.4
#
###############################################################################

data_WONYEG
_chemical_formula_moiety         '(C60 H40 Co7 N4 O8)n'
_symmetry_cell_setting           triclinic
_symmetry_space_group_name_H-M   'P 1'
_symmetry_Int_Tables_number      1
_space_group_name_Hall           'P 1'
loop_
_symmetry_equiv_pos_site_id
_symmetry_equiv_pos_as_xyz
1 x,y,z
_cell_length_a                   9.7685(6)
_cell_length_b                   12.0535(8)
_cell_length_c                   14.2217(9)
_cell_angle_alpha                72.835(6)
_cell_angle_beta                 85.070(5)
_cell_angle_gamma                71.601(6)
_cell_volume                     1518.11
loop_
_atom_site_label
_atom_site_type_symbol
_atom_site_fract_x
_atom_site_fract_y
_atom_site_fract_z
Co4 Co 0.0000 -0.0000 -0.0000
Co9 Co 0.5000 -0.0000 -0.0000
O1 O 0.1573(3) 0.0679(2) 0.92080(19)
O2 O 0.3870(3) 0.0204(2) 0.8755(2)
C2 C 0.3153(6) 0.1576(5) 0.3423(4)
H2 H 0.2924 0.1614 0.2791
C8 C 0.3104(5) 0.0698(5) 0.5204(4)
C11 C 0.2554(4) 0.0324(3) 0.8636(3)
C14 C 0.2829(5) 0.0687(4) 0.4226(3)
C19 C 0.3763(6) 0.1566(5) 0.5288(4)
H9 H 0.3953 0.1589 0.5911
C21 C 0.2126(4) 0.0125(4) 0.7739(3)
H11 H 0.1189 0.0112 0.7686
C23 C 0.4117(8) 0.2354(6) 0.4490(5)
H13 H 0.4582 0.2886 0.4568
C26 C 0.3789(8) 0.2379(6) 0.3538(4)
H16 H 0.4007 0.2944 0.2991
H20 H 0.0695 0.1933 0.0766
Co4_2 Co 0.0000 -0.0000 1.0000
Co9_2 Co 0.5000 -0.0000 1.0000
N6 N 0.3895(4) 0.1912(3) 0.0013(3)
O13 O 0.6496(3) 0.0709(2) 0.9114(2)
Co4_3 Co 0.0000 1.0000 -0.0000
Co9_3 Co 0.5000 1.0000 -0.0000
O3 O 0.1197(3) 0.9567(3) 0.13063(19)
O4 O 0.3504(3) 0.9291(2) 0.0886(2)
C1 C 0.2830(4) 0.9649(4) 0.2416(3)
H1 H 0.3760 0.9651 0.2507
C3 C 0.2467(4) 0.9510(3) 0.1464(3)
C4 C 0.2031(5) 0.9060(5) 0.5933(3)
C6 C 0.2708(5) 0.9898(5) 0.6035(3)
C7 C 0.1889(5) 0.9768(4) 0.3135(3)
H3 H 0.0952 0.9817 0.3005
C10 C 0.1757(5) 0.9047(5) 0.4959(3)
C13 C 0.2166(5) 0.9833(5) 0.4125(3)
C15 C 0.3030(5) 0.9964(4) 0.7013(3)
H6 H 0.3985 0.9883 0.7128
C16 C 0.1061(6) 0.8196(5) 0.4876(4)
H7 H 0.0893 0.8161 0.4253
C22 C 0.0948(8) 0.7441(6) 0.6634(4)
H12 H 0.0677 0.6913 0.7184
C25 C 0.0643(8) 0.7445(6) 0.5671(5)
H15 H 0.0154 0.6930 0.5591
C29 C 0.1638(6) 0.8213(5) 0.6741(4)
H19 H 0.1861 0.8181 0.7373
C39 C 0.4088(6) 0.2352(4) 0.0722(4)
H24 H 0.4627 0.1813 0.1272
C48 C 0.2925(5) 0.6300(4) 0.0174(4)
H28 H 0.3848 0.5872 0.0431
C50 C 0.3532(6) 0.3571(4) 0.0694(4)
H30 H 0.3704 0.3832 0.1213
C58 C 0.2328(5) 0.7518(4) 0.0128(4)
H38 H 0.2889 0.7902 0.0332
Co4_4 Co 0.0000 1.0000 1.0000
Co9_4 Co 0.5000 1.0000 1.0000
O12 O 0.6130(3) 0.9796(2) 0.1245(2)
N3 N 0.0996(4) 0.8169(3) 0.9810(3)
C35 C 0.2728(5) 0.4391(4) 0.9896(3)
C42 C 0.2510(6) 0.3942(4) 0.9161(4)
H25 H 0.1966 0.4460 0.8607
C47 C 0.2136(5) 0.5722(4) 0.9836(3)
C54 C 0.0760(5) 0.6425(4) 0.9457(4)
H34 H 0.0203 0.6086 0.9196
C57 C 0.3108(6) 0.2708(4) 0.9250(4)
H37 H 0.2947 0.2422 0.8743
C60 C 0.0235(5) 0.7620(4) 0.9471(4)
N5 N 0.6105(4) 0.8088(3) 0.9987(3)
Co4_5 Co 1.0000 -0.0000 -0.0000
N1 N 0.9004(4) 0.1831(3) 0.0190(3)
C5 C 0.7272(5) 0.5609(4) 0.0104(3)
C12 C 0.7490(6) 0.6058(4) 0.0839(4)
H5 H 0.8034 0.5540 0.1393
C17 C 0.7864(5) 0.4278(4) 0.0164(3)
C24 C 0.9240(5) 0.3575(4) 0.0543(4)
H14 H 0.9797 0.3914 0.0804
C27 C 0.6892(6) 0.7292(4) 0.0750(4)
H17 H 0.7053 0.7578 0.1257
C30 C 0.9765(5) 0.2380(4) 0.0529(4)
Co4_6 Co 1.0000 -0.0000 1.0000
C9 C 0.5912(6) 0.7648(4) 0.9278(4)
H4 H 0.5373 0.8187 0.8728
C18 C 0.7075(5) 0.3700(4) 0.9826(4)
H8 H 0.6152 0.4128 0.9569
C20 C 0.6468(6) 0.6429(4) 0.9306(4)
H10 H 0.6296 0.6168 0.8787
C28 C 0.7672(5) 0.2482(4) 0.9872(4)
H18 H 0.7111 0.2098 0.9668
O7 O 0.8803(3) 0.0433(3) 0.86937(19)
C31 C 0.7170(4) 0.0351(4) 0.7584(3)
H21 H 0.6240 0.0349 0.7493
C33 C 0.7533(4) 0.0490(3) 0.8536(3)
C34 C 0.7969(5) 0.0940(5) 0.4067(3)
C36 C 0.7292(5) 0.0102(5) 0.3965(3)
C37 C 0.8111(5) 0.0232(4) 0.6865(3)
H23 H 0.9048 0.0183 0.6995
C40 C 0.8243(5) 0.0953(5) 0.5041(3)
C43 C 0.7834(5) 0.0167(5) 0.5875(3)
C45 C 0.6970(5) 0.0036(4) 0.2987(3)
H26 H 0.6015 0.0117 0.2872
C46 C 0.8939(6) 0.1804(5) 0.5124(4)
H27 H 0.9107 0.1839 0.5747
C52 C 0.9052(8) 0.2559(6) 0.3366(4)
H32 H 0.9323 0.3087 0.2816
C55 C 0.9357(8) 0.2555(6) 0.4329(5)
H35 H 0.9846 0.3070 0.4409
C59 C 0.8362(6) 0.1787(5) 0.3259(4)
H39 H 0.8139 0.1819 0.2627
Co4_7 Co 1.0000 1.0000 -0.0000
Co4_8 Co 1.0000 1.0000 1.0000
O10 O 0.8427(3) 0.9321(2) 0.07920(19)
C32 C 0.6847(6) 0.8424(5) 0.6577(4)
H22 H 0.7076 0.8386 0.7209
C38 C 0.6896(5) 0.9302(5) 0.4796(4)
C41 C 0.7446(4) 0.9676(3) 0.1364(3)
C44 C 0.7171(5) 0.9313(4) 0.5774(3)
C49 C 0.6237(6) 0.8434(5) 0.4712(4)
H29 H 0.6047 0.8411 0.4089
C51 C 0.7874(4) 0.9875(4) 0.2261(3)
H31 H 0.8811 0.9888 0.2314
C53 C 0.5883(8) 0.7646(6) 0.5510(5)
H33 H 0.5418 0.7114 0.5432
C56 C 0.6211(8) 0.7621(6) 0.6462(4)
H36 H 0.5993 0.7056 0.7009
H40 H 0.9305 0.8067 0.9234
loop_
_geom_bond_atom_site_label_1
_geom_bond_atom_site_label_2
_geom_bond_site_symmetry_1
_geom_bond_site_symmetry_2
O1 C11 1_555 1_555
O2 C11 1_555 1_555
C2 H2 1_555 1_555
C8 C14 1_555 1_555
C11 C21 1_555 1_555
C14 C2 1_555 1_555
C19 C8 1_555 1_555
H9 C19 1_555 1_555
H11 C21 1_555 1_555
C23 C19 1_555 1_555
H13 C23 1_555 1_555
C26 C2 1_555 1_555
H16 C26 1_555 1_555
Co4_2 O1 1_555 1_555
Co9_2 O2 1_555 1_555
N6 Co9 1_555 1_555
C23 C26 1_555 1_555
O13 Co9_2 1_555 1_555
Co4_3 O3 1_555 1_555
Co9_3 O4 1_555 1_555
O3 C3 1_555 1_555
O4 C3 1_555 1_555
C1 H1 1_555 1_555
C3 C1 1_555 1_555
C4 C6 1_555 1_555
C7 C1 1_555 1_555
H3 C7 1_555 1_555
C10 C4 1_555 1_555
C13 C7 1_555 1_555
C15 C6 1_555 1_555
H6 C15 1_555 1_555
C16 C10 1_555 1_555
H7 C16 1_555 1_555
C22 H12 1_555 1_555
C25 C16 1_555 1_555
H15 C25 1_555 1_555
C29 C4 1_555 1_555
H19 C29 1_555 1_555
N6 C39 1_555 1_555
C39 H24 1_555 1_555
H28 C48 1_555 1_555
H30 C50 1_555 1_555
H38 C58 1_555 1_555
O12 Co9_3 1_555 1_555
C10 C13 1_555 1_555
C22 C25 1_555 1_555
C22 C29 1_555 1_555
C39 C50 1_555 1_555
C48 C58 1_555 1_555
N3 Co4_4 1_555 1_555
C35 C42 1_555 1_555
C42 H25 1_555 1_555
C47 C35 1_555 1_555
C54 C47 1_555 1_555
H34 C54 1_555 1_555
H37 C57 1_555 1_555
C60 N3 1_555 1_555
N5 Co9_4 1_555 1_555
C42 C57 1_555 1_555
C54 C60 1_555 1_555
N1 Co4_5 1_555 1_555
C5 C12 1_555 1_555
C12 H5 1_555 1_555
C17 C5 1_555 1_555
C24 C17 1_555 1_555
H14 C24 1_555 1_555
H17 C27 1_555 1_555
C30 N1 1_555 1_555
C12 C27 1_555 1_555
C24 C30 1_555 1_555
N5 C9 1_555 1_555
C9 H4 1_555 1_555
H8 C18 1_555 1_555
H10 C20 1_555 1_555
H18 C28 1_555 1_555
O7 Co4_6 1_555 1_555
O13 C33 1_555 1_555
C31 H21 1_555 1_555
C33 O7 1_555 1_555
C34 C36 1_555 1_555
C37 C31 1_555 1_555
H23 C37 1_555 1_555
C40 C34 1_555 1_555
C43 C37 1_555 1_555
C45 C36 1_555 1_555
H26 C45 1_555 1_555
C46 C40 1_555 1_555
H27 C46 1_555 1_555
C52 H32 1_555 1_555
C55 C46 1_555 1_555
H35 C55 1_555 1_555
C59 C34 1_555 1_555
H39 C59 1_555 1_555
C9 C20 1_555 1_555
C18 C28 1_555 1_555
C31 C33 1_555 1_555
C40 C43 1_555 1_555
C52 C55 1_555 1_555
C52 C59 1_555 1_555
O10 Co4_7 1_555 1_555
O10 C41 1_555 1_555
O12 C41 1_555 1_555
C32 H22 1_555 1_555
C38 C44 1_555 1_555
C41 C51 1_555 1_555
C44 C32 1_555 1_555
C49 C38 1_555 1_555
H29 C49 1_555 1_555
H31 C51 1_555 1_555
C53 C49 1_555 1_555
H33 C53 1_555 1_555
C56 C32 1_555 1_555
H36 C56 1_555 1_555
C53 C56 1_555 1_555

#END
