
###############################################################################
#
# This file contains modified crystal structure data generated from the
# MOF subset of the Cambridge Structural Database (CSD) v543 
# hosted by the Cambridge Crystallographic Data Centre (CCDC).
#
# This work is licensed under the Creative Commons
# Attribution-NonCommercial-ShareAlike 4.0 International License.
# To view a copy of this license, visit
# http://creativecommons.org/licenses/by-nc-sa/4.0/
# or send a letter to
# Creative Commons, PO Box 1866, Mountain View, CA 94042, USA.
#
# CIF created using the CSD Python API on 29 September 2022
# The structure has been converted into the P1 space group
# The structure has a 3D framework
# The original CSD entry WOPROK is in the triclinic crystal system
# The framework has been calculated to contain at least 10.0% void space
# The void calculation uses a probe of radius 1.32A, grid spacing 0.4
# H atom positions have been added when not included in the experimental data
#
###############################################################################

data_WOPROK
_chemical_formula_moiety         '(C64 H56 Cu2 La4 N8 O27)n'
_symmetry_cell_setting           triclinic
_symmetry_space_group_name_H-M   'P 1'
_symmetry_Int_Tables_number      1
_space_group_name_Hall           'P 1'
loop_
_symmetry_equiv_pos_site_id
_symmetry_equiv_pos_as_xyz
1 x,y,z
_cell_length_a                   12.643(5)
_cell_length_b                   13.944(4)
_cell_length_c                   15.443(5)
_cell_angle_alpha                59.647(7)
_cell_angle_beta                 83.262(10)
_cell_angle_gamma                86.876(9)
_cell_volume                     2333.07
loop_
_atom_site_label
_atom_site_type_symbol
_atom_site_fract_x
_atom_site_fract_y
_atom_site_fract_z
La3 La 0.068313(19) 0.093284(19) 0.251080(18)
Cu1 Cu 0.45225(4) 0.58724(5) 0.22545(4)
O1 O 0.1910(4) 0.9558(4) 0.2115(3)
O2 O 0.1882(3) 0.9185(3) 0.3680(3)
O3 O 0.8599(3) 0.3220(3) 0.4863(3)
O4 O 0.8358(3) 0.3295(3) 0.3445(3)
O7 O 0.0800(3) 0.3014(3) 0.3789(3)
O8 O 0.0588(3) 0.2716(3) 0.2541(3)
O9 O 0.0821(3) 0.0570(3) 0.4254(3)
N1 N 0.4105(4) 0.6822(4) 0.2910(4)
N2 N 0.5647(3) 0.5332(3) 0.3249(3)
N3 N 0.5014(4) 0.6525(4) 0.0748(3)
N4 N 0.3466(3) 0.5078(3) 0.1926(3)
C1 C 0.3277(4) 0.7521(5) 0.2718(5)
C2 C 0.3112(4) 0.8176(4) 0.3171(4)
C3 C 0.3795(5) 0.8046(5) 0.3857(5)
C4 C 0.4643(5) 0.7327(5) 0.4052(5)
C5 C 0.4787(4) 0.6730(4) 0.3550(4)
C6 C 0.5677(4) 0.5945(4) 0.3701(4)
C7 C 0.6501(4) 0.5839(5) 0.4268(4)
C8 C 0.7293(4) 0.5071(4) 0.4378(4)
C9 C 0.7267(4) 0.4441(4) 0.3915(4)
C10 C 0.6418(4) 0.4580(4) 0.3354(4)
C11 C 0.2530(7) 0.7484(9) 0.2062(9)
C12 C 0.2244(4) 0.9016(4) 0.2966(4)
C13 C 0.6266(5) 0.3925(6) 0.2856(6)
C14 C 0.8134(4) 0.3605(4) 0.4083(4)
C15 C 0.5918(4) 0.7111(4) 0.0237(4)
C19 C 0.4380(4) 0.6226(4) 0.0281(4)
C20 C 0.3456(4) 0.5517(4) 0.0917(4)
C21 C 0.2639(4) 0.5276(4) 0.0527(4)
C22 C 0.1853(4) 0.4533(4) 0.1190(4)
C23 C 0.1879(4) 0.4040(4) 0.2230(4)
C24 C 0.2708(4) 0.4346(4) 0.2580(4)
C25 C 0.6534(5) 0.7434(6) 0.0830(5)
C27 C 0.2827(5) 0.3882(6) 0.3666(4)
C28 C 0.1035(4) 0.3202(4) 0.2909(4)
H1 H 0.3680 0.8456 0.4198
H2 H 0.5119 0.7241 0.4519
H3 H 0.6519 0.6283 0.4572
H4 H 0.7856 0.4975 0.4771
H5 H 0.2763 0.8016 0.1354
H6 H 0.1812 0.7678 0.2239
H7 H 0.2520 0.6734 0.2158
H8 H 0.5851 0.3253 0.3331
H9 H 0.6962 0.3716 0.2651
H10 H 0.5885 0.4376 0.2261
H14 H 0.1291 0.4357 0.0936
H15 H 0.6288 0.8158 0.0731
H16 H 0.7294 0.7480 0.0596
H17 H 0.6421 0.6873 0.1548
H18 H 0.3255 0.3204 0.3910
H19 H 0.2122 0.3705 0.4052
H20 H 0.3182 0.4430 0.3754
La6 La 0.067659(18) 0.846341(18) 0.533374(17)
La8 La 0.932341(18) 0.153659(18) 0.466626(17)
O19 O 0.1944(3) 0.2167(4) 0.0885(3)
O20 O 0.2688(3) 0.1501(3) 0.2301(3)
H27 H 0.00729895 0.292982 0.054916
O5 O 0.8056(3) 0.7833(4) 0.9115(3)
O6 O 0.7312(3) 0.8499(3) 0.7699(3)
C16 C 0.6226(4) 0.7378(4) 0.9232(4)
C17 C 0.5534(4) 0.7105(5) 0.8746(4)
C18 C 0.4608(4) 0.6526(5) 0.9261(4)
C26 C 0.7259(4) 0.7946(4) 0.8651(4)
H11 H 0.5705 0.7321 0.8055
H12 H 0.4135 0.6334 0.8938
H13 H 0.2622 0.5614 0.9818
La5 La 0.931687(19) 0.906716(19) 0.748920(18)
O12 O 0.2513(3) 0.8993(4) 0.5658(4)
O13 O 0.1146(3) 0.8811(3) 0.6747(3)
C31 C 0.2140(4) 0.8950(5) 0.6465(4)
C32 C 0.2853(6) 0.9015(9) 0.7145(7)
H24 H 0.3074 0.8265 0.7633
H25 H 0.2467 0.9359 0.7507
H26 H 0.3484 0.9464 0.6741
O17 O 0.1401(3) 0.6780(3) 0.5137(3)
O18 O 0.1642(3) 0.6705(3) 0.6555(3)
O14 O 0.9625(3) 0.2271(4) 0.1032(3)
O23 O 0.8854(3) 0.1189(3) 0.3253(3)
H28 H 0.942063 0.188559 0.0683212
O10 O 0.9666(3) 0.8966(3) 0.3889(3)
O11 O 0.9435(4) 0.9673(4) 0.2296(3)
C29 C 0.8488(9) 0.7999(8) 0.3500(7)
C30 C 0.9244(5) 0.8921(5) 0.3203(4)
H21 H 0.8881 0.7365 0.3518
H22 H 0.7965 0.8251 0.3009
H23 H 0.8120 0.7775 0.4170
O21 O 0.9200(3) 0.6986(3) 0.6211(3)
O22 O 0.9179(3) 0.9430(3) 0.5746(3)
O10_2 O 0.0334(3) 0.1034(3) 0.6111(3)
O11_2 O 0.0565(4) 0.0327(4) 0.7704(3)
C29_2 C 0.1512(9) 0.2001(8) 0.6500(7)
C30_2 C 0.0756(5) 0.1079(5) 0.6797(4)
H21_2 H 0.1119 0.2635 0.6482
H22_2 H 0.2035 0.1749 0.6991
H23_2 H 0.1880 0.2225 0.5830
O14_2 O 0.0375(3) 0.7729(4) 0.8968(3)
H28_2 H 0.0579368 0.811441 0.931679
O12_2 O 0.7487(3) 0.1007(4) 0.4342(4)
C31_2 C 0.7860(4) 0.1050(5) 0.3535(4)
C32_2 C 0.7147(6) 0.0985(9) 0.2855(7)
H24_2 H 0.6926 0.1735 0.2367
H25_2 H 0.7533 0.0641 0.2493
H26_2 H 0.6516 0.0536 0.3259
O15 O 0.8090(4) 0.0442(4) 0.7885(3)
O16 O 0.8118(3) 0.0815(3) 0.6320(3)
C16_2 C 0.3774(4) 0.2622(4) 0.0768(4)
C17_2 C 0.4466(4) 0.2895(5) 0.1254(4)
C18_2 C 0.5392(4) 0.3474(5) 0.0739(4)
C26_2 C 0.2741(4) 0.2054(4) 0.1349(4)
H11_2 H 0.4295 0.2679 0.1945
H12_2 H 0.5865 0.3666 0.1062
H13_2 H 0.7378 0.4386 0.0182
Cu1_2 Cu 0.54775(4) 0.41276(5) 0.77455(4)
O8_2 O 0.9412(3) 0.7284(3) 0.7459(3)
N1_2 N 0.5895(4) 0.3178(4) 0.7090(4)
N2_2 N 0.4353(3) 0.4668(3) 0.6751(3)
N3_2 N 0.4986(4) 0.3475(4) 0.9252(3)
N4_2 N 0.6534(3) 0.4922(3) 0.8074(3)
C1_2 C 0.6723(4) 0.2479(5) 0.7282(5)
C2_2 C 0.6888(4) 0.1824(4) 0.6829(4)
C3_2 C 0.6205(5) 0.1954(5) 0.6143(5)
C4_2 C 0.5357(5) 0.2673(5) 0.5948(5)
C5_2 C 0.5213(4) 0.3270(4) 0.6450(4)
C6_2 C 0.4323(4) 0.4055(4) 0.6299(4)
C7_2 C 0.3499(4) 0.4161(5) 0.5732(4)
C8_2 C 0.2707(4) 0.4929(4) 0.5622(4)
C9_2 C 0.2733(4) 0.5559(4) 0.6085(4)
C10_2 C 0.3582(4) 0.5420(4) 0.6646(4)
C11_2 C 0.7470(7) 0.2516(9) 0.7938(9)
C12_2 C 0.7756(4) 0.0984(4) 0.7034(4)
C13_2 C 0.3734(5) 0.6075(6) 0.7144(6)
C14_2 C 0.1866(4) 0.6395(4) 0.5917(4)
C15_2 C 0.4082(4) 0.2889(4) 0.9763(4)
C19_2 C 0.5620(4) 0.3774(4) 0.9719(4)
C20_2 C 0.6544(4) 0.4483(4) 0.9083(4)
C21_2 C 0.7361(4) 0.4724(4) 0.9473(4)
C22_2 C 0.8147(4) 0.5467(4) 0.8810(4)
C23_2 C 0.8121(4) 0.5960(4) 0.7770(4)
C24_2 C 0.7292(4) 0.5654(4) 0.7420(4)
C25_2 C 0.3466(5) 0.2566(6) 0.9170(5)
C27_2 C 0.7173(5) 0.6118(6) 0.6334(4)
C28_2 C 0.8965(4) 0.6798(4) 0.7091(4)
H1_2 H 0.6320 0.1544 0.5802
H2_2 H 0.4881 0.2759 0.5481
H3_2 H 0.3481 0.3717 0.5428
H4_2 H 0.2144 0.5025 0.5229
H5_2 H 0.7237 0.1984 0.8646
H6_2 H 0.8188 0.2322 0.7761
H7_2 H 0.7480 0.3266 0.7842
H8_2 H 0.4149 0.6747 0.6669
H9_2 H 0.3038 0.6284 0.7349
H10_2 H 0.4115 0.5624 0.7739
H14_2 H 0.8709 0.5643 0.9064
H15_2 H 0.3712 0.1842 0.9269
H16_2 H 0.2706 0.2520 0.9404
H17_2 H 0.3579 0.3127 0.8452
H18_2 H 0.6745 0.6796 0.6090
H19_2 H 0.7878 0.6295 0.5948
H20_2 H 0.6818 0.5570 0.6246
H27_2 H 0.992701 0.707018 0.945084
loop_
_geom_bond_atom_site_label_1
_geom_bond_atom_site_label_2
_geom_bond_site_symmetry_1
_geom_bond_site_symmetry_2
La3 O8 1_555 1_555
Cu1 N1 1_555 1_555
O1 C12 1_555 1_555
O2 C12 1_555 1_555
O3 C14 1_555 1_555
O4 C14 1_555 1_555
O7 C28 1_555 1_555
O8 C28 1_555 1_555
O9 La3 1_555 1_555
N1 C1 1_555 1_555
N2 Cu1 1_555 1_555
N3 Cu1 1_555 1_555
N4 Cu1 1_555 1_555
C1 C2 1_555 1_555
C2 C3 1_555 1_555
C3 C4 1_555 1_555
C4 C5 1_555 1_555
C5 N1 1_555 1_555
C6 N2 1_555 1_555
C7 C6 1_555 1_555
C8 C7 1_555 1_555
C9 C8 1_555 1_555
C10 N2 1_555 1_555
C11 C1 1_555 1_555
C12 C2 1_555 1_555
C13 C10 1_555 1_555
C14 C9 1_555 1_555
C15 N3 1_555 1_555
C19 N3 1_555 1_555
C20 N4 1_555 1_555
C21 C20 1_555 1_555
C22 C21 1_555 1_555
C23 C22 1_555 1_555
C24 N4 1_555 1_555
C25 C15 1_555 1_555
C27 C24 1_555 1_555
C28 C23 1_555 1_555
H1 C3 1_555 1_555
H2 C4 1_555 1_555
H3 C7 1_555 1_555
H4 C8 1_555 1_555
H5 C11 1_555 1_555
H6 C11 1_555 1_555
H7 C11 1_555 1_555
H8 C13 1_555 1_555
H9 C13 1_555 1_555
H10 C13 1_555 1_555
H14 C22 1_555 1_555
H15 C25 1_555 1_555
H16 C25 1_555 1_555
H17 C25 1_555 1_555
H18 C27 1_555 1_555
H19 C27 1_555 1_555
H20 C27 1_555 1_555
La6 O2 1_555 1_555
La8 O3 1_555 1_555
O19 La3 1_555 1_555
O20 La3 1_555 1_555
O4 La8 1_555 1_555
C5 C6 1_555 1_555
C9 C10 1_555 1_555
C19 C20 1_555 1_555
C23 C24 1_555 1_555
O5 C26 1_555 1_555
O6 C26 1_555 1_555
C17 C16 1_555 1_555
C18 C17 1_555 1_555
C26 C16 1_555 1_555
H11 C17 1_555 1_555
H12 C18 1_555 1_555
La5 O5 1_555 1_555
O6 La5 1_555 1_555
O12 La6 1_555 1_555
O13 La6 1_555 1_555
C31 O12 1_555 1_555
C32 C31 1_555 1_555
H24 C32 1_555 1_555
H25 C32 1_555 1_555
H26 C32 1_555 1_555
O17 La6 1_555 1_555
O18 La6 1_555 1_555
O13 C31 1_555 1_555
La8 O23 1_555 1_555
O14 H28 1_555 1_555
C29 C30 1_555 1_555
C30 O10 1_555 1_555
H21 C29 1_555 1_555
H22 C29 1_555 1_555
H23 C29 1_555 1_555
O11 C30 1_555 1_555
La5 O22 1_555 1_555
C29_2 C30_2 1_555 1_555
C30_2 O10_2 1_555 1_555
H21_2 C29_2 1_555 1_555
H22_2 C29_2 1_555 1_555
H23_2 C29_2 1_555 1_555
O11_2 C30_2 1_555 1_555
O14_2 H28_2 1_555 1_555
O12_2 La8 1_555 1_555
C31_2 O12_2 1_555 1_555
C32_2 C31_2 1_555 1_555
H24_2 C32_2 1_555 1_555
H25_2 C32_2 1_555 1_555
H26_2 C32_2 1_555 1_555
La8 O16 1_555 1_555
O23 C31_2 1_555 1_555
O19 C26_2 1_555 1_555
O20 C26_2 1_555 1_555
C17_2 C16_2 1_555 1_555
C18_2 C17_2 1_555 1_555
C26_2 C16_2 1_555 1_555
H11_2 C17_2 1_555 1_555
H12_2 C18_2 1_555 1_555
La5 O8_2 1_555 1_555
Cu1_2 N1_2 1_555 1_555
O15 C12_2 1_555 1_555
O16 C12_2 1_555 1_555
O17 C14_2 1_555 1_555
O18 C14_2 1_555 1_555
O21 C28_2 1_555 1_555
O8_2 C28_2 1_555 1_555
N1_2 C1_2 1_555 1_555
N2_2 Cu1_2 1_555 1_555
N3_2 Cu1_2 1_555 1_555
N4_2 Cu1_2 1_555 1_555
C1_2 C2_2 1_555 1_555
C2_2 C3_2 1_555 1_555
C3_2 C4_2 1_555 1_555
C4_2 C5_2 1_555 1_555
C5_2 N1_2 1_555 1_555
C6_2 N2_2 1_555 1_555
C7_2 C6_2 1_555 1_555
C8_2 C7_2 1_555 1_555
C9_2 C8_2 1_555 1_555
C10_2 N2_2 1_555 1_555
C11_2 C1_2 1_555 1_555
C12_2 C2_2 1_555 1_555
C13_2 C10_2 1_555 1_555
C14_2 C9_2 1_555 1_555
C15_2 N3_2 1_555 1_555
C19_2 N3_2 1_555 1_555
C20_2 N4_2 1_555 1_555
C21_2 C20_2 1_555 1_555
C22_2 C21_2 1_555 1_555
C23_2 C22_2 1_555 1_555
C24_2 N4_2 1_555 1_555
C25_2 C15_2 1_555 1_555
C27_2 C24_2 1_555 1_555
C28_2 C23_2 1_555 1_555
H1_2 C3_2 1_555 1_555
H2_2 C4_2 1_555 1_555
H3_2 C7_2 1_555 1_555
H4_2 C8_2 1_555 1_555
H5_2 C11_2 1_555 1_555
H6_2 C11_2 1_555 1_555
H7_2 C11_2 1_555 1_555
H8_2 C13_2 1_555 1_555
H9_2 C13_2 1_555 1_555
H10_2 C13_2 1_555 1_555
H14_2 C22_2 1_555 1_555
H15_2 C25_2 1_555 1_555
H16_2 C25_2 1_555 1_555
H17_2 C25_2 1_555 1_555
H18_2 C27_2 1_555 1_555
H19_2 C27_2 1_555 1_555
H20_2 C27_2 1_555 1_555
C5_2 C6_2 1_555 1_555
C9_2 C10_2 1_555 1_555
C19_2 C20_2 1_555 1_555
C23_2 C24_2 1_555 1_555

#END
