
###############################################################################
#
# This file contains modified crystal structure data generated from the
# MOF subset of the Cambridge Structural Database (CSD) v543 
# hosted by the Cambridge Crystallographic Data Centre (CCDC).
#
# This work is licensed under the Creative Commons
# Attribution-NonCommercial-ShareAlike 4.0 International License.
# To view a copy of this license, visit
# http://creativecommons.org/licenses/by-nc-sa/4.0/
# or send a letter to
# Creative Commons, PO Box 1866, Mountain View, CA 94042, USA.
#
# CIF created using the CSD Python API on 29 September 2022
# The structure has been converted into the P1 space group
# The structure has a 3D framework
# The original CSD entry WOPSOL01 is in the rhombohedral crystal system
# The framework has been calculated to contain at least 10.0% void space
# The void calculation uses a probe of radius 1.32A, grid spacing 0.4
# H atom positions have been added when not included in the experimental data
# Generated hydrogen atom positions removed from atoms on special positions
#
###############################################################################

data_WOPSOL01
_chemical_formula_moiety         '(C72 H90 Fe18 O66)n'
_symmetry_cell_setting           triclinic
_symmetry_space_group_name_H-M   'P 1'
_symmetry_Int_Tables_number      1
_space_group_name_Hall           'P 1'
loop_
_symmetry_equiv_pos_site_id
_symmetry_equiv_pos_as_xyz
1 x,y,z
_cell_length_a                   25.61913(21)
_cell_length_b                   25.61913
_cell_length_c                   6.80420(13)
_cell_angle_alpha                90
_cell_angle_beta                 90
_cell_angle_gamma                120
_cell_volume                     3867.55
loop_
_atom_site_label
_atom_site_type_symbol
_atom_site_fract_x
_atom_site_fract_y
_atom_site_fract_z
Fe1 Fe 0.38968(12) 0.35116(11) 0.15400(35)
O1 O 0.32222(35) 0.2967(4) 0.3577(13)
O2 O 0.3005(4) 0.2295(4) 0.5958(13)
C1 C 0.3167(8) 0.2473(7) 0.4156(19)
C2 C 0.3265(6) 0.2051(7) 0.2935(22)
C3 C 0.3431(6) 0.2219(7) 0.1011(22)
O4 O 0.4528(5) 0.3489(6) 0.2966(12)
O7 O 0.31133(35) 0.0597(4) 0.3371(15)
C6 C 0.3402(6) 0.1282(7) 0.0398(22)
C7 C 0.3236(6) 0.1114(7) 0.2322(22)
C8 C 0.3179(6) 0.1518(7) 0.3718(19)
H2 H 0.3050 0.1426 0.499333
Fe3 Fe 0.31551(11) 0.37185(16) 0.48733(35)
Fe5 Fe 0.29481(16) 0.27699(12) 0.82067(35)
Fe8 Fe 0.37185(16) 0.05635(12) 0.51267(35)
O9 O 0.30781(53) 0.34445(35) 0.0244(13)
O13 O 0.3931(4) 0.41507(53) 0.3295(15)
O3 O 0.35534(35) 0.2736(4) 0.9962(15)
C4 C 0.3488(6) 0.1815(7) 0.9615(19)
H1 H 0.3617 0.1907 0.834
O5 O 0.34445(35) 0.0366(4) 0.9756(13)
O6 O 0.3662(4) 0.1038(4) 0.7375(13)
C5 C 0.3500(8) 0.0860(7) 0.9177(19)
O11 O 0.4372(4) 0.4043(6) 0.9291(13)
O15 O 0.41507(53) 0.02201(35) 0.6705(15)
Fe6 Fe 0.27699(12) 0.98217(11) 0.17933(35)
O12 O 0.4043(6) 0.9672(4) 0.0709(13)
O14 O 0.2736(4) 0.91826(53) 0.0038(15)
Fe2 Fe 0.35116(11) 0.96148(16) 0.84600(35)
O8 O 0.3489(6) 0.8961(8) 0.7034(12)
O10 O 0.2967(4) 0.97448(53) 0.6423(13)
Fe6_2 Fe 0.01783(11) 0.29481(16) 0.17933(35)
O12_2 O 0.0328(4) 0.4372(7) 0.0709(13)
O14_2 O 0.08174(53) 0.35534(66) 0.0038(15)
Fe2_2 Fe 0.03852(16) 0.38968(19) 0.84600(35)
O8_2 O 0.1039(8) 0.4528(10) 0.7034(12)
O10_2 O 0.02552(53) 0.32222(66) 0.6423(13)
Fe1_2 Fe 0.64884(11) 0.03852(16) 0.15400(35)
O1_2 O 0.7033(4) 0.02552(53) 0.3577(13)
O2_2 O 0.7705(4) 0.0710(6) 0.5958(13)
C1_2 C 0.7527(7) 0.0694(11) 0.4156(19)
C2_2 C 0.7949(7) 0.1214(9) 0.2935(22)
C3_2 C 0.7781(7) 0.1212(9) 0.1011(22)
O4_2 O 0.6511(6) 0.1039(8) 0.2966(12)
O7_2 O 0.9403(4) 0.25159(53) 0.3371(15)
C6_2 C 0.8718(7) 0.2119(9) 0.0398(22)
C7_2 C 0.8886(7) 0.2121(9) 0.2322(22)
C8_2 C 0.8482(7) 0.1660(9) 0.3718(19)
H2_2 H 0.8574 0.1623 0.499333
Fe5_2 Fe 0.72301(12) 0.01783(20) 0.82067(35)
Fe8_2 Fe 0.94365(12) 0.31551(20) 0.51267(35)
O3_2 O 0.7264(4) 0.08174(53) 0.9962(15)
C4_2 C 0.8185(7) 0.1673(9) 0.9615(19)
H1_2 H 0.8093 0.1710 0.834
O5_2 O 0.9634(4) 0.30781(53) 0.9756(13)
O6_2 O 0.8962(4) 0.2623(6) 0.7375(13)
C5_2 C 0.9140(7) 0.2639(11) 0.9177(19)
O11_2 O 0.5957(6) 0.0328(7) 0.9291(13)
O15_2 O 0.97799(35) 0.39307(64) 0.6705(15)
Fe3_2 Fe 0.62815(16) 0.94365(19) 0.48733(35)
O9_2 O 0.65555(35) 0.96337(64) 0.0244(13)
O13_2 O 0.58493(53) 0.97799(66) 0.3295(15)
Fe3_3 Fe 0.05635(19) 0.68449(11) 0.48733(35)
O9_3 O 0.03663(64) 0.69219(53) 0.0244(13)
O13_3 O 0.02201(66) 0.6069(4) 0.3295(15)
Fe1_3 Fe 0.96148(16) 0.61032(12) 0.15400(35)
O1_3 O 0.97448(53) 0.67778(35) 0.3577(13)
O2_3 O 0.9290(6) 0.6995(4) 0.5958(13)
C1_3 C 0.9306(11) 0.6833(8) 0.4156(19)
C2_3 C 0.8786(9) 0.6735(6) 0.2935(22)
C3_3 C 0.8788(9) 0.6569(6) 0.1011(22)
O4_3 O 0.8961(8) 0.5472(5) 0.2966(12)
O7_3 O 0.74841(53) 0.68867(35) 0.3371(15)
C6_3 C 0.7881(9) 0.6598(6) 0.0398(22)
C7_3 C 0.7879(9) 0.6764(6) 0.2322(22)
C8_3 C 0.8340(9) 0.6821(6) 0.3718(19)
H2_3 H 0.8377 0.6950 0.499333
Fe5_3 Fe 0.98217(20) 0.70519(16) 0.82067(35)
Fe6_3 Fe 0.70519(16) 0.72301(12) 0.17933(35)
Fe8_3 Fe 0.68449(20) 0.62815(16) 0.51267(35)
O12_3 O 0.5628(7) 0.5957(6) 0.0709(13)
O14_3 O 0.64466(66) 0.7264(4) 0.0038(15)
O3_3 O 0.91826(53) 0.64466(35) 0.9962(15)
C4_3 C 0.8327(9) 0.6512(6) 0.9615(19)
H1_3 H 0.8290 0.6383 0.834
O5_3 O 0.69219(53) 0.65555(35) 0.9756(13)
O6_3 O 0.7377(6) 0.6338(4) 0.7375(13)
C5_3 C 0.7361(11) 0.6500(8) 0.9177(19)
Fe2_3 Fe 0.61032(19) 0.64884(11) 0.84600(35)
O8_3 O 0.5472(10) 0.6511(6) 0.7034(12)
O10_3 O 0.67778(66) 0.7033(4) 0.6423(13)
O11_3 O 0.9672(7) 0.5628(4) 0.9291(13)
O15_3 O 0.60693(64) 0.58493(53) 0.6705(15)
C3_4 C 0.0098(6) 0.5552(7) 0.4344(22)
C4_4 C 0.0155(6) 0.5148(7) 0.2948(19)
H1_4 H 0.0284 0.5240 0.167333
O4_4 O 0.1195(5) 0.6822(6) 0.6299(12)
O5_4 O 0.01111(35) 0.3700(4) 0.3090(13)
C5_4 C 0.0166(8) 0.4194(7) 0.2511(19)
C6_4 C 0.0068(6) 0.4616(7) 0.3732(22)
O8_4 O 0.0156(6) 0.2294(8) 0.0367(12)
O11_4 O 0.1038(4) 0.7377(6) 0.2625(13)
O12_4 O 0.0710(6) 0.3005(4) 0.4042(13)
O13_4 O 0.0597(4) 0.74841(53) 0.6629(15)
H4 H 0.0412849 0.21608 0.104001
H3 H 0.0308123 0.242858 0.901272
O1_4 O 0.98889(35) 0.6300(4) 0.6910(13)
C1_4 C 0.9834(8) 0.5806(7) 0.7489(19)
C2_4 C 0.9932(6) 0.5384(7) 0.6268(22)
C7_4 C 0.9902(6) 0.4448(7) 0.5656(22)
C8_4 C 0.9845(6) 0.4852(7) 0.7052(19)
H2_4 H 0.9716 0.4760 0.832667
O1_5 O 0.3700(4) 0.35885(53) 0.6910(13)
C1_5 C 0.4194(7) 0.4027(11) 0.7489(19)
C2_5 C 0.4616(7) 0.4547(9) 0.6268(22)
C3_5 C 0.4448(7) 0.4545(9) 0.4344(22)
C4_5 C 0.4852(7) 0.5006(9) 0.2948(19)
H1_5 H 0.4760 0.5043 0.167333
O4_5 O 0.3178(6) 0.4372(8) 0.6299(12)
O5_5 O 0.6300(4) 0.64115(53) 0.3090(13)
C5_5 C 0.5806(7) 0.5973(11) 0.2511(19)
C6_5 C 0.5384(7) 0.5453(9) 0.3732(22)
C7_5 C 0.5552(7) 0.5455(9) 0.5656(22)
C8_5 C 0.5148(7) 0.4994(9) 0.7052(19)
H2_5 H 0.5240 0.4957 0.832667
O8_5 O 0.7706(8) 0.7861(10) 0.0367(12)
O11_5 O 0.2623(6) 0.3662(7) 0.2625(13)
O12_5 O 0.6995(4) 0.7705(7) 0.4042(13)
O13_5 O 0.25159(53) 0.31133(66) 0.6629(15)
H3_2 H 0.757142 0.787954 0.901272
O1_6 O 0.64115(53) 0.01111(35) 0.6910(13)
C1_6 C 0.5973(11) 0.0166(8) 0.7489(19)
C2_6 C 0.5453(9) 0.0068(6) 0.6268(22)
C7_6 C 0.4545(9) 0.0098(6) 0.5656(22)
C8_6 C 0.5006(9) 0.0155(6) 0.7052(19)
H2_6 H 0.5043 0.0284 0.832667
C3_6 C 0.5455(9) 0.9902(6) 0.4344(22)
C4_6 C 0.4994(9) 0.9845(6) 0.2948(19)
H1_6 H 0.4957 0.9716 0.167333
O4_6 O 0.5628(8) 0.8805(5) 0.6299(12)
O5_6 O 0.35885(53) 0.98889(35) 0.3090(13)
C5_6 C 0.4027(11) 0.9834(8) 0.2511(19)
C6_6 C 0.4547(9) 0.9932(6) 0.3732(22)
O8_6 O 0.2139(10) 0.9844(6) 0.0367(12)
O11_6 O 0.6338(7) 0.8962(4) 0.2625(13)
O12_6 O 0.2295(7) 0.9290(6) 0.4042(13)
O13_6 O 0.68867(66) 0.9403(4) 0.6629(15)
H4_2 H 0.174795 0.958715 0.104001
H3_3 H 0.212046 0.969188 0.901272
O4_7 O 0.7861(5) 0.0156(6) 0.9633(12)
H6 H 0.824865 0.0395068 0.892193
C1_7 C 0.6500(8) 0.9140(7) 0.0823(19)
C8_7 C 0.6512(6) 0.8185(7) 0.0385(19)
H2_7 H 0.6383 0.8093 0.166000
C2_7 C 0.6598(6) 0.8718(7) 0.9602(22)
C3_7 C 0.6764(6) 0.8886(7) 0.7678(22)
C4_7 C 0.6821(6) 0.8482(7) 0.6282(19)
H1_7 H 0.6950 0.8574 0.500667
C5_7 C 0.6833(8) 0.7527(7) 0.5844(19)
C6_7 C 0.6735(6) 0.7949(7) 0.7065(22)
C7_7 C 0.6569(6) 0.7781(7) 0.8989(22)
O8_7 O 0.6822(6) 0.5628(8) 0.3701(12)
H5 H 0.776929 0.973169 0.975337
O8_8 O 0.4372(8) 0.1195(10) 0.3701(12)
C1_8 C 0.0860(7) 0.7361(11) 0.0823(19)
C8_8 C 0.1815(7) 0.8327(9) 0.0385(19)
H2_8 H 0.1907 0.8290 0.166000
C2_8 C 0.1282(7) 0.7881(9) 0.9602(22)
C3_8 C 0.1114(7) 0.7879(9) 0.7678(22)
C4_8 C 0.1518(7) 0.8340(9) 0.6282(19)
H1_8 H 0.1426 0.8377 0.500667
C5_8 C 0.2473(7) 0.9306(11) 0.5844(19)
C6_8 C 0.2051(7) 0.8786(9) 0.7065(22)
C7_8 C 0.2219(7) 0.8788(9) 0.8989(22)
H5_2 H 0.0268314 0.80376 0.975337
O4_8 O 0.9844(6) 0.7706(8) 0.9633(12)
H6_2 H 0.960493 0.785358 0.892193
C1_9 C 0.2639(11) 0.3500(8) 0.0823(19)
C8_9 C 0.1673(9) 0.3488(6) 0.0385(19)
H2_9 H 0.1710 0.3617 0.166000
C2_9 C 0.2119(9) 0.3402(6) 0.9602(22)
C3_9 C 0.2121(9) 0.3236(6) 0.7678(22)
C4_9 C 0.1660(9) 0.3179(6) 0.6282(19)
H1_9 H 0.1623 0.3050 0.500667
O4_9 O 0.2294(8) 0.2139(5) 0.9633(12)
C5_9 C 0.0694(11) 0.3167(8) 0.5844(19)
C6_9 C 0.1214(9) 0.3265(6) 0.7065(22)
C7_9 C 0.1212(9) 0.3431(6) 0.8989(22)
O8_9 O 0.8805(10) 0.3178(6) 0.3701(12)
H3_4 H 0.969188 0.757142 0.0987277
H4_3 H 0.958715 0.78392 0.895999
H3_5 H 0.242858 0.212046 0.0987277
H3_6 H 0.787954 0.0308123 0.0987277
H4_4 H 0.825205 0.0412849 0.895999
H5_3 H 0.223071 0.0268314 0.0246631
H6_3 H 0.175135 0.960493 0.107807
H6_4 H 0.0395068 0.214642 0.107807
H5_4 H 0.973169 0.19624 0.0246631
loop_
_geom_bond_atom_site_label_1
_geom_bond_atom_site_label_2
_geom_bond_site_symmetry_1
_geom_bond_site_symmetry_2
Fe1 O1 1_555 1_555
O1 C1 1_555 1_555
O2 C1 1_555 1_555
C1 C2 1_555 1_555
C2 C3 1_555 1_555
O4 Fe1 1_555 1_555
O7 C7 1_555 1_555
C7 C6 1_555 1_555
C8 C2 1_555 1_555
H2 C8 1_555 1_555
Fe3 O1 1_555 1_555
Fe5 O2 1_555 1_555
Fe8 O7 1_555 1_555
O9 Fe1 1_555 1_555
O13 Fe1 1_555 1_555
C7 C8 1_555 1_555
Fe3 O13 1_555 1_555
H1 C4 1_555 1_555
O5 C5 1_555 1_555
O6 C5 1_555 1_555
Fe5 O3 1_555 1_555
Fe8 O6 1_555 1_555
Fe8 O15 1_555 1_555
Fe6 O14 1_555 1_555
O8 Fe2 1_555 1_555
O10 Fe2 1_555 1_555
Fe6_2 O14_2 1_555 1_555
O8_2 Fe2_2 1_555 1_555
O10_2 Fe2_2 1_555 1_555
Fe1_2 O1_2 1_555 1_555
O1_2 C1_2 1_555 1_555
O2_2 C1_2 1_555 1_555
C1_2 C2_2 1_555 1_555
C2_2 C3_2 1_555 1_555
O4_2 Fe1_2 1_555 1_555
O7_2 C7_2 1_555 1_555
C7_2 C6_2 1_555 1_555
C8_2 C2_2 1_555 1_555
H2_2 C8_2 1_555 1_555
Fe5_2 O2_2 1_555 1_555
Fe8_2 O7_2 1_555 1_555
C7_2 C8_2 1_555 1_555
H1_2 C4_2 1_555 1_555
O5_2 C5_2 1_555 1_555
O6_2 C5_2 1_555 1_555
Fe5_2 O3_2 1_555 1_555
Fe8_2 O6_2 1_555 1_555
Fe8_2 O15_2 1_555 1_555
Fe3_2 O13_2 1_555 1_555
Fe3_3 O13_3 1_555 1_555
Fe1_3 O1_3 1_555 1_555
O1_3 C1_3 1_555 1_555
O2_3 C1_3 1_555 1_555
C1_3 C2_3 1_555 1_555
C2_3 C3_3 1_555 1_555
O4_3 Fe1_3 1_555 1_555
O7_3 C7_3 1_555 1_555
C7_3 C6_3 1_555 1_555
C8_3 C2_3 1_555 1_555
H2_3 C8_3 1_555 1_555
Fe5_3 O2_3 1_555 1_555
Fe8_3 O7_3 1_555 1_555
O7_3 Fe6_3 1_555 1_555
C7_3 C8_3 1_555 1_555
Fe6_3 O14_3 1_555 1_555
H1_3 C4_3 1_555 1_555
O5_3 C5_3 1_555 1_555
O6_3 C5_3 1_555 1_555
Fe2_3 O5_3 1_555 1_555
O8_3 Fe2_3 1_555 1_555
Fe5_3 O3_3 1_555 1_555
Fe8_3 O6_3 1_555 1_555
O10_3 Fe2_3 1_555 1_555
O15_3 Fe2_3 1_555 1_555
Fe8_3 O10_3 1_555 1_555
Fe8_3 O15_3 1_555 1_555
C3_4 O13_3 1_555 1_555
C4_4 C3_4 1_555 1_555
H1_4 C4_4 1_555 1_555
O4_4 Fe3_3 1_555 1_555
O5_4 C5_4 1_555 1_555
O12_2 C5_4 1_555 1_555
C5_4 C6_4 1_555 1_555
C6_4 C4_4 1_555 1_555
Fe6_2 O5_4 1_555 1_555
O8_4 Fe6_2 1_555 1_555
O11_4 Fe3_3 1_555 1_555
O12_4 Fe6_2 1_555 1_555
O13_4 Fe3_3 1_555 1_555
O8_4 H4 1_555 1_555
O1_4 C1_4 1_555 1_555
O11_3 C1_4 1_555 1_555
C1_4 C2_4 1_555 1_555
O15_2 C7_4 1_555 1_555
C8_4 C2_4 1_555 1_555
H2_4 C8_4 1_555 1_555
Fe5_3 O1_4 1_555 1_555
C7_4 C8_4 1_555 1_555
Fe3 O1_5 1_555 1_555
O1_5 C1_5 1_555 1_555
O11 C1_5 1_555 1_555
C1_5 C2_5 1_555 1_555
C2_5 C3_5 1_555 1_555
C3_5 O13 1_555 1_555
C4_5 C3_5 1_555 1_555
H1_5 C4_5 1_555 1_555
O4_5 Fe3 1_555 1_555
O5_5 C5_5 1_555 1_555
O12_3 C5_5 1_555 1_555
O15_3 C7_5 1_555 1_555
C5_5 C6_5 1_555 1_555
C6_5 C4_5 1_555 1_555
C7_5 C6_5 1_555 1_555
C8_5 C2_5 1_555 1_555
H2_5 C8_5 1_555 1_555
Fe6_3 O5_5 1_555 1_555
O8_5 Fe6_3 1_555 1_555
Fe5 O1_5 1_555 1_555
Fe8_3 O5_5 1_555 1_555
O11_5 Fe3 1_555 1_555
O12_5 Fe6_3 1_555 1_555
O13_5 Fe3 1_555 1_555
C7_5 C8_5 1_555 1_555
Fe5 O13_5 1_555 1_555
O1_6 C1_6 1_555 1_555
O11_2 C1_6 1_555 1_555
C1_6 C2_6 1_555 1_555
O15 C7_6 1_555 1_555
C8_6 C2_6 1_555 1_555
H2_6 C8_6 1_555 1_555
Fe5_2 O1_6 1_555 1_555
C7_6 C8_6 1_555 1_555
C3_6 O13_2 1_555 1_555
C4_6 C3_6 1_555 1_555
H1_6 C4_6 1_555 1_555
O4_6 Fe3_2 1_555 1_555
O5_6 C5_6 1_555 1_555
O12 C5_6 1_555 1_555
C5_6 C6_6 1_555 1_555
C6_6 C4_6 1_555 1_555
Fe6 O5_6 1_555 1_555
O8_6 Fe6 1_555 1_555
O11_6 Fe3_2 1_555 1_555
O12_6 Fe6 1_555 1_555
O13_6 Fe3_2 1_555 1_555
O8_6 H4_2 1_555 1_555
O4_7 Fe5_2 1_555 1_555
O4_7 H6 1_555 1_555
O9_2 C1_7 1_555 1_555
O11_6 C1_7 1_555 1_555
H2_7 C8_7 1_555 1_555
C2_7 C3_7 1_555 1_555
C3_7 O13_6 1_555 1_555
C4_7 C3_7 1_555 1_555
H1_7 C4_7 1_555 1_555
O10_3 C5_7 1_555 1_555
O12_5 C5_7 1_555 1_555
C5_7 C6_7 1_555 1_555
C6_7 C4_7 1_555 1_555
C7_7 C6_7 1_555 1_555
O8_7 Fe8_3 1_555 1_555
O8_8 Fe8 1_555 1_555
O9_3 C1_8 1_555 1_555
O11_4 C1_8 1_555 1_555
H2_8 C8_8 1_555 1_555
C2_8 C3_8 1_555 1_555
C3_8 O13_4 1_555 1_555
C4_8 C3_8 1_555 1_555
H1_8 C4_8 1_555 1_555
O10 C5_8 1_555 1_555
O12_6 C5_8 1_555 1_555
C5_8 C6_8 1_555 1_555
C6_8 C4_8 1_555 1_555
C7_8 C6_8 1_555 1_555
O4_8 Fe5_3 1_555 1_555
O4_8 H6_2 1_555 1_555
O9 C1_9 1_555 1_555
O11_5 C1_9 1_555 1_555
H2_9 C8_9 1_555 1_555
C2_9 C3_9 1_555 1_555
C3_9 O13_5 1_555 1_555
C4_9 C3_9 1_555 1_555
H1_9 C4_9 1_555 1_555
O4_9 Fe5 1_555 1_555
O10_2 C5_9 1_555 1_555
O12_4 C5_9 1_555 1_555
C5_9 C6_9 1_555 1_555
C6_9 C4_9 1_555 1_555
C7_9 C6_9 1_555 1_555
O8_9 Fe8_2 1_555 1_555
O4_8 H4_3 1_555 1_555
O4_7 H4_4 1_555 1_555
O8_6 H6_3 1_555 1_555
O8_4 H6_4 1_555 1_555

#END
