
###############################################################################
#
# This file contains modified crystal structure data generated from the
# MOF subset of the Cambridge Structural Database (CSD) v543 
# hosted by the Cambridge Crystallographic Data Centre (CCDC).
#
# This work is licensed under the Creative Commons
# Attribution-NonCommercial-ShareAlike 4.0 International License.
# To view a copy of this license, visit
# http://creativecommons.org/licenses/by-nc-sa/4.0/
# or send a letter to
# Creative Commons, PO Box 1866, Mountain View, CA 94042, USA.
#
# CIF created using the CSD Python API on 29 September 2022
# The structure has been converted into the P1 space group
# The structure has a 3D framework
# The original CSD entry WOPSAX02 is in the rhombohedral crystal system
# The framework has been calculated to contain at least 10.0% void space
# The void calculation uses a probe of radius 1.32A, grid spacing 0.4
#
###############################################################################

data_WOPSAX02
_chemical_formula_moiety         '(C72 H18 Fe8 O54)n'
_symmetry_cell_setting           triclinic
_symmetry_space_group_name_H-M   'P 1'
_symmetry_Int_Tables_number      1
_space_group_name_Hall           'P 1'
loop_
_symmetry_equiv_pos_site_id
_symmetry_equiv_pos_as_xyz
1 x,y,z
_cell_length_a                   26.1577(4)
_cell_length_b                   26.1577
_cell_length_c                   6.86707(18)
_cell_angle_alpha                90
_cell_angle_beta                 90
_cell_angle_gamma                120
_cell_volume                     4069.13
loop_
_atom_site_label
_atom_site_type_symbol
_atom_site_fract_x
_atom_site_fract_y
_atom_site_fract_z
_atom_site_U_iso_or_equiv
_atom_site_thermal_displace_type
Fe1 Fe 0.38289(13) 0.35225(15) 0.1428(5) 0.0094 Uiso
O1 O 0.32676(19) 0.29450(20) 0.3667(8) 0.0017 Uiso
O2 O 0.30187(20) 0.22741(20) 0.6000(7) 0.0017 Uiso
O3 O 0.35501(19) 0.27326(19) 0.0093(8) 0.0017 Uiso
C1 C 0.31893(19) 0.24522(20) 0.4273(7) 0.0086 Uiso
C2 C 0.32803(22) 0.20589(20) 0.2857(7) 0.0086 Uiso
C3 C 0.34464(17) 0.22113(19) 0.0933(7) 0.0086 Uiso
O6 O 0.31166(19) 0.06007(19) 0.3240(8) 0.0017 Uiso
C6 C 0.33864(22) 0.12744(20) 0.0476(7) 0.0086 Uiso
C7 C 0.32203(17) 0.11220(19) 0.2400(7) 0.0086 Uiso
C8 C 0.31453(20) 0.15007(21) 0.3595(7) 0.0086 Uiso
H2 H 0.30644(34) 0.14067(32) 0.5037(14) 0.0102 Uiso
Fe3 Fe 0.31442(15) 0.36397(20) 0.4761(5) 0.0094 Uiso
Fe5 Fe 0.30269(20) 0.28378(13) 0.8095(5) 0.0094 Uiso
Fe8 Fe 0.36397(20) 0.04956(13) 0.5239(5) 0.0094 Uiso
O7 O 0.30107(28) 0.33991(19) 0.0334(8) 0.0017 Uiso
O11 O 0.39341(19) 0.41508(27) 0.3426(8) 0.0017 Uiso
C4 C 0.35214(20) 0.18326(21) 0.9738(7) 0.0086 Uiso
H1 H 0.36023(34) 0.19266(32) 0.8296(14) 0.0102 Uiso
O4 O 0.33991(19) 0.03883(20) 0.9666(8) 0.0017 Uiso
O5 O 0.36480(20) 0.10592(20) 0.7333(7) 0.0017 Uiso
C5 C 0.34774(19) 0.08811(20) 0.9060(7) 0.0086 Uiso
O9 O 0.43926(20) 0.40779(28) 0.9333(7) 0.0017 Uiso
O13 O 0.41508(27) 0.02168(19) 0.6574(8) 0.0017 Uiso
Fe6 Fe 0.28378(13) 0.98108(15) 0.1905(5) 0.0094 Uiso
O10 O 0.40779(28) 0.96854(20) 0.0667(7) 0.0017 Uiso
Fe2 Fe 0.35225(15) 0.96936(20) 0.8572(5) 0.0094 Uiso
O8 O 0.29450(20) 0.96774(28) 0.6333(8) 0.0017 Uiso
O12 O 0.27326(19) 0.91825(27) 0.9907(8) 0.0017 Uiso
Fe6_2 Fe 0.01892(15) 0.30269(20) 0.1905(5) 0.0094 Uiso
O10_2 O 0.03146(20) 0.43926(34) 0.0667(7) 0.0017 Uiso
Fe2_2 Fe 0.03064(20) 0.38289(25) 0.8572(5) 0.0094 Uiso
O8_2 O 0.03226(28) 0.32676(34) 0.6333(8) 0.0017 Uiso
O12_2 O 0.08175(27) 0.35501(33) 0.9907(8) 0.0017 Uiso
Fe1_2 Fe 0.64775(15) 0.03064(20) 0.1428(5) 0.0094 Uiso
O1_2 O 0.70550(20) 0.03226(28) 0.3667(8) 0.0017 Uiso
O2_2 O 0.77259(20) 0.07446(28) 0.6000(7) 0.0017 Uiso
O3_2 O 0.72674(19) 0.08175(27) 0.0093(8) 0.0017 Uiso
C1_2 C 0.75478(20) 0.07371(28) 0.4273(7) 0.0086 Uiso
C2_2 C 0.79411(20) 0.12214(30) 0.2857(7) 0.0086 Uiso
C3_2 C 0.77887(19) 0.12351(25) 0.0933(7) 0.0086 Uiso
O6_2 O 0.93993(19) 0.25158(27) 0.3240(8) 0.0017 Uiso
C6_2 C 0.87256(20) 0.21119(30) 0.0476(7) 0.0086 Uiso
C7_2 C 0.88780(19) 0.20982(25) 0.2400(7) 0.0086 Uiso
C8_2 C 0.84993(21) 0.16445(29) 0.3595(7) 0.0086 Uiso
H2_2 H 0.85933(32) 0.16576(47) 0.5037(14) 0.0102 Uiso
Fe5_2 Fe 0.71622(13) 0.01892(24) 0.8095(5) 0.0094 Uiso
Fe8_2 Fe 0.95044(13) 0.31442(24) 0.5239(5) 0.0094 Uiso
C4_2 C 0.81674(21) 0.16888(29) 0.9738(7) 0.0086 Uiso
H1_2 H 0.80734(32) 0.16757(47) 0.8296(14) 0.0102 Uiso
O4_2 O 0.96117(20) 0.30107(28) 0.9666(8) 0.0017 Uiso
O5_2 O 0.89408(20) 0.25887(28) 0.7333(7) 0.0017 Uiso
C5_2 C 0.91189(20) 0.25962(28) 0.9060(7) 0.0086 Uiso
O9_2 O 0.59221(28) 0.03146(34) 0.9333(7) 0.0017 Uiso
O13_2 O 0.97832(19) 0.39341(33) 0.6574(8) 0.0017 Uiso
Fe3_2 Fe 0.63603(20) 0.95044(25) 0.4761(5) 0.0094 Uiso
O7_2 O 0.66009(19) 0.96117(34) 0.0334(8) 0.0017 Uiso
O11_2 O 0.58492(27) 0.97832(33) 0.3426(8) 0.0017 Uiso
Fe3_3 Fe 0.04956(25) 0.68558(15) 0.4761(5) 0.0094 Uiso
O7_3 O 0.03883(34) 0.69893(28) 0.0334(8) 0.0017 Uiso
O11_3 O 0.02168(33) 0.60659(19) 0.3426(8) 0.0017 Uiso
Fe1_3 Fe 0.96936(20) 0.61711(13) 0.1428(5) 0.0094 Uiso
O1_3 O 0.96774(28) 0.67324(19) 0.3667(8) 0.0017 Uiso
O2_3 O 0.92554(28) 0.69813(20) 0.6000(7) 0.0017 Uiso
O3_3 O 0.91825(27) 0.64499(19) 0.0093(8) 0.0017 Uiso
C1_3 C 0.92629(28) 0.68107(19) 0.4273(7) 0.0086 Uiso
C2_3 C 0.87786(30) 0.67197(22) 0.2857(7) 0.0086 Uiso
C3_3 C 0.87649(25) 0.65536(17) 0.0933(7) 0.0086 Uiso
O6_3 O 0.74842(27) 0.68834(19) 0.3240(8) 0.0017 Uiso
C6_3 C 0.78881(30) 0.66136(22) 0.0476(7) 0.0086 Uiso
C7_3 C 0.79018(25) 0.67797(17) 0.2400(7) 0.0086 Uiso
C8_3 C 0.83555(29) 0.68547(20) 0.3595(7) 0.0086 Uiso
H2_3 H 0.83424(47) 0.69356(34) 0.5037(14) 0.0102 Uiso
Fe5_3 Fe 0.98108(24) 0.69731(20) 0.8095(5) 0.0094 Uiso
Fe6_3 Fe 0.69731(20) 0.71622(13) 0.1905(5) 0.0094 Uiso
Fe8_3 Fe 0.68558(24) 0.63603(20) 0.5239(5) 0.0094 Uiso
O10_3 O 0.56074(34) 0.59221(28) 0.0667(7) 0.0017 Uiso
C4_3 C 0.83112(29) 0.64786(20) 0.9738(7) 0.0086 Uiso
H1_3 H 0.83243(47) 0.63977(34) 0.8296(14) 0.0102 Uiso
O4_3 O 0.69893(28) 0.66009(19) 0.9666(8) 0.0017 Uiso
O5_3 O 0.74113(28) 0.63520(20) 0.7333(7) 0.0017 Uiso
C5_3 C 0.74038(28) 0.65226(19) 0.9060(7) 0.0086 Uiso
Fe2_3 Fe 0.61711(25) 0.64775(15) 0.8572(5) 0.0094 Uiso
O8_3 O 0.67324(34) 0.70550(20) 0.6333(8) 0.0017 Uiso
O9_3 O 0.96854(34) 0.56074(20) 0.9333(7) 0.0017 Uiso
O12_3 O 0.64499(33) 0.72674(19) 0.9907(8) 0.0017 Uiso
O13_3 O 0.60659(33) 0.58492(27) 0.6574(8) 0.0017 Uiso
C3_4 C 0.01131(17) 0.55446(19) 0.4266(7) 0.0086 Uiso
C4_4 C 0.01881(20) 0.51659(21) 0.3071(7) 0.0086 Uiso
H1_4 H 0.02690(34) 0.52599(32) 0.1629(14) 0.0102 Uiso
O4_4 O 0.00657(19) 0.37217(20) 0.3000(8) 0.0017 Uiso
C5_4 C 0.01440(19) 0.42145(20) 0.2394(7) 0.0086 Uiso
C6_4 C 0.00530(22) 0.46078(20) 0.3810(7) 0.0086 Uiso
O9_4 O 0.10592(20) 0.74113(28) 0.2667(7) 0.0017 Uiso
O10_4 O 0.07446(28) 0.30187(20) 0.4000(7) 0.0017 Uiso
O11_4 O 0.06007(19) 0.74842(27) 0.6760(8) 0.0017 Uiso
O1_4 O 0.99343(19) 0.62783(20) 0.7000(8) 0.0017 Uiso
C1_4 C 0.98560(19) 0.57855(20) 0.7606(7) 0.0086 Uiso
C2_4 C 0.99470(22) 0.53922(20) 0.6190(7) 0.0086 Uiso
C7_4 C 0.98869(17) 0.44554(19) 0.5734(7) 0.0086 Uiso
C8_4 C 0.98119(20) 0.48341(21) 0.6929(7) 0.0086 Uiso
H2_4 H 0.97310(34) 0.47401(32) 0.8371(14) 0.0102 Uiso
O1_5 O 0.37217(20) 0.36559(28) 0.7000(8) 0.0017 Uiso
C1_5 C 0.42145(20) 0.40704(28) 0.7606(7) 0.0086 Uiso
C2_5 C 0.46078(20) 0.45547(30) 0.6190(7) 0.0086 Uiso
C3_5 C 0.44554(19) 0.45684(25) 0.4266(7) 0.0086 Uiso
C4_5 C 0.48341(21) 0.50221(29) 0.3071(7) 0.0086 Uiso
H1_5 H 0.47401(32) 0.50090(47) 0.1629(14) 0.0102 Uiso
O4_5 O 0.62783(20) 0.63441(28) 0.3000(8) 0.0017 Uiso
C5_5 C 0.57855(20) 0.59296(28) 0.2394(7) 0.0086 Uiso
C6_5 C 0.53922(20) 0.54453(30) 0.3810(7) 0.0086 Uiso
C7_5 C 0.55446(19) 0.54316(25) 0.5734(7) 0.0086 Uiso
C8_5 C 0.51659(21) 0.49779(29) 0.6929(7) 0.0086 Uiso
H2_5 H 0.52599(32) 0.49910(47) 0.8371(14) 0.0102 Uiso
O9_5 O 0.25887(28) 0.36480(34) 0.2667(7) 0.0017 Uiso
O10_5 O 0.69813(20) 0.77259(34) 0.4000(7) 0.0017 Uiso
O11_5 O 0.25158(27) 0.31166(33) 0.6760(8) 0.0017 Uiso
O1_6 O 0.63441(28) 0.00657(19) 0.7000(8) 0.0017 Uiso
C1_6 C 0.59296(28) 0.01440(19) 0.7606(7) 0.0086 Uiso
C2_6 C 0.54453(30) 0.00530(22) 0.6190(7) 0.0086 Uiso
C7_6 C 0.45684(25) 0.01131(17) 0.5734(7) 0.0086 Uiso
C8_6 C 0.50221(29) 0.01881(20) 0.6929(7) 0.0086 Uiso
H2_6 H 0.50090(47) 0.02690(34) 0.8371(14) 0.0102 Uiso
C3_6 C 0.54316(25) 0.98869(17) 0.4266(7) 0.0086 Uiso
C4_6 C 0.49779(29) 0.98119(20) 0.3071(7) 0.0086 Uiso
H1_6 H 0.49910(47) 0.97310(34) 0.1629(14) 0.0102 Uiso
O4_6 O 0.36559(28) 0.99343(19) 0.3000(8) 0.0017 Uiso
C5_6 C 0.40704(28) 0.98560(19) 0.2394(7) 0.0086 Uiso
C6_6 C 0.45547(30) 0.99470(22) 0.3810(7) 0.0086 Uiso
O9_6 O 0.63520(34) 0.89408(20) 0.2667(7) 0.0017 Uiso
O10_6 O 0.22741(34) 0.92554(28) 0.4000(7) 0.0017 Uiso
O11_6 O 0.68834(33) 0.93993(19) 0.6760(8) 0.0017 Uiso
C1_7 C 0.65226(19) 0.91189(20) 0.0940(7) 0.0086 Uiso
C8_7 C 0.64786(20) 0.81674(21) 0.0262(7) 0.0086 Uiso
H2_7 H 0.63977(34) 0.80734(32) 0.1704(14) 0.0102 Uiso
C2_7 C 0.66136(22) 0.87256(20) 0.9524(7) 0.0086 Uiso
C3_7 C 0.67797(17) 0.88780(19) 0.7600(7) 0.0086 Uiso
C4_7 C 0.68547(20) 0.84993(21) 0.6405(7) 0.0086 Uiso
H1_7 H 0.69356(34) 0.85933(32) 0.4963(14) 0.0102 Uiso
C5_7 C 0.68107(19) 0.75478(20) 0.5727(7) 0.0086 Uiso
C6_7 C 0.67197(22) 0.79411(20) 0.7143(7) 0.0086 Uiso
C7_7 C 0.65536(17) 0.77887(19) 0.9067(7) 0.0086 Uiso
C1_8 C 0.08811(20) 0.74038(28) 0.0940(7) 0.0086 Uiso
C8_8 C 0.18326(21) 0.83112(29) 0.0262(7) 0.0086 Uiso
H2_8 H 0.19266(32) 0.83243(47) 0.1704(14) 0.0102 Uiso
C2_8 C 0.12744(20) 0.78881(30) 0.9524(7) 0.0086 Uiso
C3_8 C 0.11220(19) 0.79018(25) 0.7600(7) 0.0086 Uiso
C4_8 C 0.15007(21) 0.83555(29) 0.6405(7) 0.0086 Uiso
H1_8 H 0.14067(32) 0.83424(47) 0.4963(14) 0.0102 Uiso
C5_8 C 0.24522(20) 0.92629(28) 0.5727(7) 0.0086 Uiso
C6_8 C 0.20589(20) 0.87786(30) 0.7143(7) 0.0086 Uiso
C7_8 C 0.22113(19) 0.87649(25) 0.9067(7) 0.0086 Uiso
C1_9 C 0.25962(28) 0.34774(19) 0.0940(7) 0.0086 Uiso
C8_9 C 0.16888(29) 0.35214(20) 0.0262(7) 0.0086 Uiso
H2_9 H 0.16757(47) 0.36023(34) 0.1704(14) 0.0102 Uiso
C2_9 C 0.21119(30) 0.33864(22) 0.9524(7) 0.0086 Uiso
C3_9 C 0.20982(25) 0.32203(17) 0.7600(7) 0.0086 Uiso
C4_9 C 0.16445(29) 0.31453(20) 0.6405(7) 0.0086 Uiso
H1_9 H 0.16576(47) 0.30644(34) 0.4963(14) 0.0102 Uiso
C5_9 C 0.07371(28) 0.31893(19) 0.5727(7) 0.0086 Uiso
C6_9 C 0.12214(30) 0.32803(22) 0.7143(7) 0.0086 Uiso
C7_9 C 0.12351(25) 0.34464(17) 0.9067(7) 0.0086 Uiso
loop_
_geom_bond_atom_site_label_1
_geom_bond_atom_site_label_2
_geom_bond_site_symmetry_1
_geom_bond_site_symmetry_2
Fe1 O1 1_555 1_555
O1 C1 1_555 1_555
O2 C1 1_555 1_555
O3 Fe1 1_555 1_555
C1 C2 1_555 1_555
C2 C3 1_555 1_555
C3 O3 1_555 1_555
O6 C7 1_555 1_555
C7 C6 1_555 1_555
C8 C2 1_555 1_555
H2 C8 1_555 1_555
Fe3 O1 1_555 1_555
Fe5 O2 1_555 1_555
Fe8 O6 1_555 1_555
O7 Fe1 1_555 1_555
O11 Fe1 1_555 1_555
C7 C8 1_555 1_555
Fe3 O11 1_555 1_555
H1 C4 1_555 1_555
O4 C5 1_555 1_555
O5 C5 1_555 1_555
Fe8 O5 1_555 1_555
Fe8 O13 1_555 1_555
O8 Fe2 1_555 1_555
O12 Fe2 1_555 1_555
O8_2 Fe2_2 1_555 1_555
O12_2 Fe2_2 1_555 1_555
Fe1_2 O1_2 1_555 1_555
O1_2 C1_2 1_555 1_555
O2_2 C1_2 1_555 1_555
O3_2 Fe1_2 1_555 1_555
C1_2 C2_2 1_555 1_555
C2_2 C3_2 1_555 1_555
C3_2 O3_2 1_555 1_555
O6_2 C7_2 1_555 1_555
C7_2 C6_2 1_555 1_555
C8_2 C2_2 1_555 1_555
H2_2 C8_2 1_555 1_555
Fe5_2 O2_2 1_555 1_555
Fe8_2 O6_2 1_555 1_555
C7_2 C8_2 1_555 1_555
H1_2 C4_2 1_555 1_555
O4_2 C5_2 1_555 1_555
O5_2 C5_2 1_555 1_555
Fe8_2 O5_2 1_555 1_555
Fe8_2 O13_2 1_555 1_555
Fe3_2 O11_2 1_555 1_555
Fe3_3 O11_3 1_555 1_555
Fe1_3 O1_3 1_555 1_555
O1_3 C1_3 1_555 1_555
O2_3 C1_3 1_555 1_555
O3_3 Fe1_3 1_555 1_555
C1_3 C2_3 1_555 1_555
C2_3 C3_3 1_555 1_555
C3_3 O3_3 1_555 1_555
O6_3 C7_3 1_555 1_555
C7_3 C6_3 1_555 1_555
C8_3 C2_3 1_555 1_555
H2_3 C8_3 1_555 1_555
Fe5_3 O2_3 1_555 1_555
Fe8_3 O6_3 1_555 1_555
O6_3 Fe6_3 1_555 1_555
C7_3 C8_3 1_555 1_555
H1_3 C4_3 1_555 1_555
O4_3 C5_3 1_555 1_555
O5_3 C5_3 1_555 1_555
Fe2_3 O4_3 1_555 1_555
Fe8_3 O5_3 1_555 1_555
O8_3 Fe2_3 1_555 1_555
O12_3 Fe2_3 1_555 1_555
O13_3 Fe2_3 1_555 1_555
Fe8_3 O8_3 1_555 1_555
Fe8_3 O13_3 1_555 1_555
C3_4 O11_3 1_555 1_555
C4_4 C3_4 1_555 1_555
H1_4 C4_4 1_555 1_555
O4_4 C5_4 1_555 1_555
O10_2 C5_4 1_555 1_555
C5_4 C6_4 1_555 1_555
C6_4 C4_4 1_555 1_555
Fe6_2 O4_4 1_555 1_555
O9_4 Fe3_3 1_555 1_555
O10_4 Fe6_2 1_555 1_555
O11_4 Fe3_3 1_555 1_555
O1_4 C1_4 1_555 1_555
O9_3 C1_4 1_555 1_555
C1_4 C2_4 1_555 1_555
O13_2 C7_4 1_555 1_555
C8_4 C2_4 1_555 1_555
H2_4 C8_4 1_555 1_555
Fe5_3 O1_4 1_555 1_555
C7_4 C8_4 1_555 1_555
Fe3 O1_5 1_555 1_555
O1_5 C1_5 1_555 1_555
O9 C1_5 1_555 1_555
C1_5 C2_5 1_555 1_555
C2_5 C3_5 1_555 1_555
C3_5 O11 1_555 1_555
C4_5 C3_5 1_555 1_555
H1_5 C4_5 1_555 1_555
O4_5 C5_5 1_555 1_555
O10_3 C5_5 1_555 1_555
O13_3 C7_5 1_555 1_555
C5_5 C6_5 1_555 1_555
C6_5 C4_5 1_555 1_555
C7_5 C6_5 1_555 1_555
C8_5 C2_5 1_555 1_555
H2_5 C8_5 1_555 1_555
Fe6_3 O4_5 1_555 1_555
Fe5 O1_5 1_555 1_555
Fe8_3 O4_5 1_555 1_555
O9_5 Fe3 1_555 1_555
O10_5 Fe6_3 1_555 1_555
O11_5 Fe3 1_555 1_555
C7_5 C8_5 1_555 1_555
Fe5 O11_5 1_555 1_555
O1_6 C1_6 1_555 1_555
O9_2 C1_6 1_555 1_555
C1_6 C2_6 1_555 1_555
O13 C7_6 1_555 1_555
C8_6 C2_6 1_555 1_555
H2_6 C8_6 1_555 1_555
Fe5_2 O1_6 1_555 1_555
C7_6 C8_6 1_555 1_555
C3_6 O11_2 1_555 1_555
C4_6 C3_6 1_555 1_555
H1_6 C4_6 1_555 1_555
O4_6 C5_6 1_555 1_555
O10 C5_6 1_555 1_555
C5_6 C6_6 1_555 1_555
C6_6 C4_6 1_555 1_555
Fe6 O4_6 1_555 1_555
O9_6 Fe3_2 1_555 1_555
O10_6 Fe6 1_555 1_555
O11_6 Fe3_2 1_555 1_555
O7_2 C1_7 1_555 1_555
O9_6 C1_7 1_555 1_555
H2_7 C8_7 1_555 1_555
C2_7 C3_7 1_555 1_555
C3_7 O11_6 1_555 1_555
C4_7 C3_7 1_555 1_555
H1_7 C4_7 1_555 1_555
O8_3 C5_7 1_555 1_555
O10_5 C5_7 1_555 1_555
O12_3 C7_7 1_555 1_555
C5_7 C6_7 1_555 1_555
C6_7 C4_7 1_555 1_555
C7_7 C6_7 1_555 1_555
O7_3 C1_8 1_555 1_555
O9_4 C1_8 1_555 1_555
H2_8 C8_8 1_555 1_555
C2_8 C3_8 1_555 1_555
C3_8 O11_4 1_555 1_555
C4_8 C3_8 1_555 1_555
H1_8 C4_8 1_555 1_555
O8 C5_8 1_555 1_555
O10_6 C5_8 1_555 1_555
O12 C7_8 1_555 1_555
C5_8 C6_8 1_555 1_555
C6_8 C4_8 1_555 1_555
C7_8 C6_8 1_555 1_555
O7 C1_9 1_555 1_555
O9_5 C1_9 1_555 1_555
H2_9 C8_9 1_555 1_555
C2_9 C3_9 1_555 1_555
C3_9 O11_5 1_555 1_555
C4_9 C3_9 1_555 1_555
H1_9 C4_9 1_555 1_555
O8_2 C5_9 1_555 1_555
O10_4 C5_9 1_555 1_555
O12_2 C7_9 1_555 1_555
C5_9 C6_9 1_555 1_555
C6_9 C4_9 1_555 1_555
C7_9 C6_9 1_555 1_555

#END
