
###############################################################################
#
# This file contains modified crystal structure data generated from the
# MOF subset of the Cambridge Structural Database (CSD) v543 
# hosted by the Cambridge Crystallographic Data Centre (CCDC).
#
# This work is licensed under the Creative Commons
# Attribution-NonCommercial-ShareAlike 4.0 International License.
# To view a copy of this license, visit
# http://creativecommons.org/licenses/by-nc-sa/4.0/
# or send a letter to
# Creative Commons, PO Box 1866, Mountain View, CA 94042, USA.
#
# CIF created using the CSD Python API on 29 September 2022
# The structure has been converted into the P1 space group
# The structure has a 3D framework
# The original CSD entry WOPSAX is in the rhombohedral crystal system
# The framework has been calculated to contain at least 10.0% void space
# The void calculation uses a probe of radius 1.32A, grid spacing 0.4
#
###############################################################################

data_WOPSAX
_chemical_formula_moiety         '(C72 H18 Fe8 O54)n'
_symmetry_cell_setting           triclinic
_symmetry_space_group_name_H-M   'P 1'
_symmetry_Int_Tables_number      1
_space_group_name_Hall           'P 1'
loop_
_symmetry_equiv_pos_site_id
_symmetry_equiv_pos_as_xyz
1 x,y,z
_cell_length_a                   26.1660(4)
_cell_length_b                   26.166
_cell_length_c                   6.85952(17)
_cell_angle_alpha                90
_cell_angle_beta                 90
_cell_angle_gamma                120
_cell_volume                     4067.23
loop_
_atom_site_label
_atom_site_type_symbol
_atom_site_fract_x
_atom_site_fract_y
_atom_site_fract_z
_atom_site_U_iso_or_equiv
_atom_site_thermal_displace_type
Fe1 Fe 0.38189(13) 0.35205(15) 0.1437(4) 0.0049 Uiso
O1 O 0.32786(19) 0.29573(21) 0.3676(8) 0.0020 Uiso
O2 O 0.30104(21) 0.22715(21) 0.6019(7) 0.0020 Uiso
O3 O 0.35497(20) 0.27380(19) 0.0084(8) 0.0020 Uiso
C1 C 0.31930(18) 0.24630(20) 0.4292(7) 0.0042 Uiso
C2 C 0.32747(22) 0.20628(20) 0.2887(7) 0.0042 Uiso
C3 C 0.34380(18) 0.22133(19) 0.0924(7) 0.0042 Uiso
O6 O 0.31170(20) 0.05953(19) 0.3249(8) 0.0020 Uiso
C6 C 0.33920(22) 0.12705(20) 0.0446(7) 0.0042 Uiso
C7 C 0.32287(18) 0.11200(19) 0.2409(7) 0.0042 Uiso
C8 C 0.31607(20) 0.15167(21) 0.3605(7) 0.0042 Uiso
H2 H 0.3048(4) 0.14029(34) 0.5045(15) 0.0130 Uiso
Fe3 Fe 0.31462(15) 0.36317(20) 0.4770(4) 0.0049 Uiso
Fe5 Fe 0.30349(20) 0.28478(13) 0.8104(4) 0.0049 Uiso
Fe8 Fe 0.36317(20) 0.04856(13) 0.5230(4) 0.0049 Uiso
O7 O 0.30120(28) 0.33881(19) 0.0343(8) 0.0020 Uiso
O11 O 0.39287(19) 0.41450(28) 0.3417(8) 0.0020 Uiso
C4 C 0.35060(20) 0.18166(21) 0.9728(7) 0.0042 Uiso
H1 H 0.3619(4) 0.19304(34) 0.8288(15) 0.0130 Uiso
O4 O 0.33881(19) 0.03760(21) 0.9657(8) 0.0020 Uiso
O5 O 0.36563(21) 0.10618(21) 0.7314(7) 0.0020 Uiso
C5 C 0.34737(18) 0.08703(20) 0.9041(7) 0.0042 Uiso
O9 O 0.43952(21) 0.40722(30) 0.9352(7) 0.0020 Uiso
O13 O 0.41450(28) 0.02164(20) 0.6583(8) 0.0020 Uiso
Fe6 Fe 0.28478(13) 0.98128(15) 0.1896(4) 0.0049 Uiso
O10 O 0.40722(30) 0.96771(21) 0.0648(7) 0.0020 Uiso
Fe2 Fe 0.35205(15) 0.97016(20) 0.8563(4) 0.0049 Uiso
O8 O 0.29573(21) 0.96787(28) 0.6324(8) 0.0020 Uiso
O12 O 0.27380(19) 0.91883(28) 0.9916(8) 0.0020 Uiso
Fe6_2 Fe 0.01872(15) 0.30349(20) 0.1896(4) 0.0049 Uiso
O10_2 O 0.03229(21) 0.43952(37) 0.0648(7) 0.0020 Uiso
Fe2_2 Fe 0.02984(20) 0.38189(25) 0.8563(4) 0.0049 Uiso
O8_2 O 0.03213(28) 0.32786(35) 0.6324(8) 0.0020 Uiso
O12_2 O 0.08117(28) 0.35497(34) 0.9916(8) 0.0020 Uiso
Fe1_2 Fe 0.64795(15) 0.02984(20) 0.1437(4) 0.0049 Uiso
O1_2 O 0.70427(21) 0.03213(28) 0.3676(8) 0.0020 Uiso
O2_2 O 0.77285(21) 0.07389(30) 0.6019(7) 0.0020 Uiso
O3_2 O 0.72620(19) 0.08117(28) 0.0084(8) 0.0020 Uiso
C1_2 C 0.75370(20) 0.07300(27) 0.4292(7) 0.0042 Uiso
C2_2 C 0.79372(20) 0.12119(30) 0.2887(7) 0.0042 Uiso
C3_2 C 0.77867(19) 0.12247(26) 0.0924(7) 0.0042 Uiso
O6_2 O 0.94047(19) 0.25216(28) 0.3249(8) 0.0020 Uiso
C6_2 C 0.87295(20) 0.21214(30) 0.0446(7) 0.0042 Uiso
C7_2 C 0.88800(19) 0.21086(26) 0.2409(7) 0.0042 Uiso
C8_2 C 0.84833(21) 0.16439(29) 0.3605(7) 0.0042 Uiso
H2_2 H 0.85971(34) 0.16447(52) 0.5045(15) 0.0130 Uiso
Fe5_2 Fe 0.71522(13) 0.01872(24) 0.8104(4) 0.0049 Uiso
Fe8_2 Fe 0.95144(13) 0.31462(24) 0.5230(4) 0.0049 Uiso
C4_2 C 0.81834(21) 0.16894(29) 0.9728(7) 0.0042 Uiso
H1_2 H 0.80696(34) 0.16886(52) 0.8288(15) 0.0130 Uiso
O4_2 O 0.96240(21) 0.30120(28) 0.9657(8) 0.0020 Uiso
O5_2 O 0.89382(21) 0.25944(30) 0.7314(7) 0.0020 Uiso
C5_2 C 0.91297(20) 0.26033(27) 0.9041(7) 0.0042 Uiso
O9_2 O 0.59278(30) 0.03229(37) 0.9352(7) 0.0020 Uiso
O13_2 O 0.97836(20) 0.39287(34) 0.6583(8) 0.0020 Uiso
Fe3_2 Fe 0.63683(20) 0.95144(25) 0.4770(4) 0.0049 Uiso
O7_2 O 0.66119(19) 0.96240(34) 0.0343(8) 0.0020 Uiso
O11_2 O 0.58550(28) 0.97836(34) 0.3417(8) 0.0020 Uiso
Fe3_3 Fe 0.04856(25) 0.68538(15) 0.4770(4) 0.0049 Uiso
O7_3 O 0.03760(34) 0.69880(28) 0.0343(8) 0.0020 Uiso
O11_3 O 0.02164(34) 0.60713(19) 0.3417(8) 0.0020 Uiso
Fe1_3 Fe 0.97016(20) 0.61811(13) 0.1437(4) 0.0049 Uiso
O1_3 O 0.96787(28) 0.67214(19) 0.3676(8) 0.0020 Uiso
O2_3 O 0.92611(30) 0.69896(21) 0.6019(7) 0.0020 Uiso
O3_3 O 0.91883(28) 0.64503(20) 0.0084(8) 0.0020 Uiso
C1_3 C 0.92700(27) 0.68070(18) 0.4292(7) 0.0042 Uiso
C2_3 C 0.87881(30) 0.67253(22) 0.2887(7) 0.0042 Uiso
C3_3 C 0.87753(26) 0.65620(18) 0.0924(7) 0.0042 Uiso
O6_3 O 0.74784(28) 0.68830(20) 0.3249(8) 0.0020 Uiso
C6_3 C 0.78786(30) 0.66080(22) 0.0446(7) 0.0042 Uiso
C7_3 C 0.78914(26) 0.67713(18) 0.2409(7) 0.0042 Uiso
C8_3 C 0.83561(29) 0.68393(20) 0.3605(7) 0.0042 Uiso
H2_3 H 0.83553(52) 0.6952(4) 0.5045(15) 0.0130 Uiso
Fe5_3 Fe 0.98128(24) 0.69651(20) 0.8104(4) 0.0049 Uiso
Fe6_3 Fe 0.69651(20) 0.71522(13) 0.1896(4) 0.0049 Uiso
Fe8_3 Fe 0.68538(24) 0.63683(20) 0.5230(4) 0.0049 Uiso
O10_3 O 0.56048(37) 0.59278(30) 0.0648(7) 0.0020 Uiso
C4_3 C 0.83106(29) 0.64940(20) 0.9728(7) 0.0042 Uiso
H1_3 H 0.83114(52) 0.6381(4) 0.8288(15) 0.0130 Uiso
O4_3 O 0.69880(28) 0.66119(19) 0.9657(8) 0.0020 Uiso
O5_3 O 0.74056(30) 0.63437(21) 0.7314(7) 0.0020 Uiso
C5_3 C 0.73967(27) 0.65263(18) 0.9041(7) 0.0042 Uiso
Fe2_3 Fe 0.61811(25) 0.64795(15) 0.8563(4) 0.0049 Uiso
O8_3 O 0.67214(35) 0.70427(21) 0.6324(8) 0.0020 Uiso
O9_3 O 0.96771(37) 0.56048(21) 0.9352(7) 0.0020 Uiso
O12_3 O 0.64503(34) 0.72620(19) 0.9916(8) 0.0020 Uiso
O13_3 O 0.60713(34) 0.58550(28) 0.6583(8) 0.0020 Uiso
C3_4 C 0.01047(18) 0.55466(19) 0.4257(7) 0.0042 Uiso
C4_4 C 0.01727(20) 0.51499(21) 0.3061(7) 0.0042 Uiso
H1_4 H 0.0286(4) 0.52637(34) 0.1621(15) 0.0130 Uiso
O4_4 O 0.00547(19) 0.37094(21) 0.2991(8) 0.0020 Uiso
C5_4 C 0.01403(18) 0.42037(20) 0.2375(7) 0.0042 Uiso
C6_4 C 0.00586(22) 0.46039(20) 0.3780(7) 0.0042 Uiso
O9_4 O 0.10618(21) 0.74056(30) 0.2686(7) 0.0020 Uiso
O10_4 O 0.07389(30) 0.30104(21) 0.3981(7) 0.0020 Uiso
O11_4 O 0.05953(19) 0.74784(28) 0.6751(8) 0.0020 Uiso
O1_4 O 0.99453(19) 0.62906(21) 0.7009(8) 0.0020 Uiso
C1_4 C 0.98597(18) 0.57963(20) 0.7625(7) 0.0042 Uiso
C2_4 C 0.99414(22) 0.53961(20) 0.6220(7) 0.0042 Uiso
C7_4 C 0.98953(18) 0.44534(19) 0.5743(7) 0.0042 Uiso
C8_4 C 0.98273(20) 0.48501(21) 0.6939(7) 0.0042 Uiso
H2_4 H 0.9714(4) 0.47363(34) 0.8379(15) 0.0130 Uiso
O1_5 O 0.37094(21) 0.36546(28) 0.7009(8) 0.0020 Uiso
C1_5 C 0.42037(20) 0.40633(27) 0.7625(7) 0.0042 Uiso
C2_5 C 0.46039(20) 0.45452(30) 0.6220(7) 0.0042 Uiso
C3_5 C 0.44534(19) 0.45580(26) 0.4257(7) 0.0042 Uiso
C4_5 C 0.48501(21) 0.50227(29) 0.3061(7) 0.0042 Uiso
H1_5 H 0.47363(34) 0.50219(52) 0.1621(15) 0.0130 Uiso
O4_5 O 0.62906(21) 0.63454(28) 0.2991(8) 0.0020 Uiso
C5_5 C 0.57963(20) 0.59367(27) 0.2375(7) 0.0042 Uiso
C6_5 C 0.53961(20) 0.54548(30) 0.3780(7) 0.0042 Uiso
C7_5 C 0.55466(19) 0.54420(26) 0.5743(7) 0.0042 Uiso
C8_5 C 0.51499(21) 0.49773(29) 0.6939(7) 0.0042 Uiso
H2_5 H 0.52637(34) 0.49781(52) 0.8379(15) 0.0130 Uiso
O9_5 O 0.25944(30) 0.36563(37) 0.2686(7) 0.0020 Uiso
O10_5 O 0.69896(21) 0.77285(37) 0.3981(7) 0.0020 Uiso
O11_5 O 0.25216(28) 0.31170(34) 0.6751(8) 0.0020 Uiso
O1_6 O 0.63454(28) 0.00547(19) 0.7009(8) 0.0020 Uiso
C1_6 C 0.59367(27) 0.01403(18) 0.7625(7) 0.0042 Uiso
C2_6 C 0.54548(30) 0.00586(22) 0.6220(7) 0.0042 Uiso
C7_6 C 0.45580(26) 0.01047(18) 0.5743(7) 0.0042 Uiso
C8_6 C 0.50227(29) 0.01727(20) 0.6939(7) 0.0042 Uiso
H2_6 H 0.50219(52) 0.0286(4) 0.8379(15) 0.0130 Uiso
C3_6 C 0.54420(26) 0.98953(18) 0.4257(7) 0.0042 Uiso
C4_6 C 0.49773(29) 0.98273(20) 0.3061(7) 0.0042 Uiso
H1_6 H 0.49781(52) 0.9714(4) 0.1621(15) 0.0130 Uiso
O4_6 O 0.36546(28) 0.99453(19) 0.2991(8) 0.0020 Uiso
C5_6 C 0.40633(27) 0.98597(18) 0.2375(7) 0.0042 Uiso
C6_6 C 0.45452(30) 0.99414(22) 0.3780(7) 0.0042 Uiso
O9_6 O 0.63437(37) 0.89382(21) 0.2686(7) 0.0020 Uiso
O10_6 O 0.22715(37) 0.92611(30) 0.3981(7) 0.0020 Uiso
O11_6 O 0.68830(34) 0.94047(19) 0.6751(8) 0.0020 Uiso
C1_7 C 0.65263(18) 0.91297(20) 0.0959(7) 0.0042 Uiso
C8_7 C 0.64940(20) 0.81834(21) 0.0272(7) 0.0042 Uiso
H2_7 H 0.6381(4) 0.80696(34) 0.1712(15) 0.0130 Uiso
C2_7 C 0.66080(22) 0.87295(20) 0.9554(7) 0.0042 Uiso
C3_7 C 0.67713(18) 0.88800(19) 0.7591(7) 0.0042 Uiso
C4_7 C 0.68393(20) 0.84833(21) 0.6395(7) 0.0042 Uiso
H1_7 H 0.6952(4) 0.85971(34) 0.4955(15) 0.0130 Uiso
C5_7 C 0.68070(18) 0.75370(20) 0.5708(7) 0.0042 Uiso
C6_7 C 0.67253(22) 0.79372(20) 0.7113(7) 0.0042 Uiso
C7_7 C 0.65620(18) 0.77867(19) 0.9076(7) 0.0042 Uiso
C1_8 C 0.08703(20) 0.73967(27) 0.0959(7) 0.0042 Uiso
C8_8 C 0.18166(21) 0.83106(29) 0.0272(7) 0.0042 Uiso
H2_8 H 0.19304(34) 0.83114(52) 0.1712(15) 0.0130 Uiso
C2_8 C 0.12705(20) 0.78786(30) 0.9554(7) 0.0042 Uiso
C3_8 C 0.11200(19) 0.78914(26) 0.7591(7) 0.0042 Uiso
C4_8 C 0.15167(21) 0.83561(29) 0.6395(7) 0.0042 Uiso
H1_8 H 0.14029(34) 0.83553(52) 0.4955(15) 0.0130 Uiso
C5_8 C 0.24630(20) 0.92700(27) 0.5708(7) 0.0042 Uiso
C6_8 C 0.20628(20) 0.87881(30) 0.7113(7) 0.0042 Uiso
C7_8 C 0.22133(19) 0.87753(26) 0.9076(7) 0.0042 Uiso
C1_9 C 0.26033(27) 0.34737(18) 0.0959(7) 0.0042 Uiso
C8_9 C 0.16894(29) 0.35060(20) 0.0272(7) 0.0042 Uiso
H2_9 H 0.16886(52) 0.3619(4) 0.1712(15) 0.0130 Uiso
C2_9 C 0.21214(30) 0.33920(22) 0.9554(7) 0.0042 Uiso
C3_9 C 0.21086(26) 0.32287(18) 0.7591(7) 0.0042 Uiso
C4_9 C 0.16439(29) 0.31607(20) 0.6395(7) 0.0042 Uiso
H1_9 H 0.16447(52) 0.3048(4) 0.4955(15) 0.0130 Uiso
C5_9 C 0.07300(27) 0.31930(18) 0.5708(7) 0.0042 Uiso
C6_9 C 0.12119(30) 0.32747(22) 0.7113(7) 0.0042 Uiso
C7_9 C 0.12247(26) 0.34380(18) 0.9076(7) 0.0042 Uiso
loop_
_geom_bond_atom_site_label_1
_geom_bond_atom_site_label_2
_geom_bond_site_symmetry_1
_geom_bond_site_symmetry_2
Fe1 O1 1_555 1_555
O1 C1 1_555 1_555
O2 C1 1_555 1_555
O3 Fe1 1_555 1_555
C1 C2 1_555 1_555
C2 C3 1_555 1_555
C3 O3 1_555 1_555
O6 C7 1_555 1_555
C7 C6 1_555 1_555
C8 C2 1_555 1_555
H2 C8 1_555 1_555
Fe3 O1 1_555 1_555
Fe5 O2 1_555 1_555
Fe8 O6 1_555 1_555
O7 Fe1 1_555 1_555
O11 Fe1 1_555 1_555
C7 C8 1_555 1_555
Fe3 O11 1_555 1_555
H1 C4 1_555 1_555
O4 C5 1_555 1_555
O5 C5 1_555 1_555
Fe8 O5 1_555 1_555
Fe8 O13 1_555 1_555
O8 Fe2 1_555 1_555
O12 Fe2 1_555 1_555
O8_2 Fe2_2 1_555 1_555
O12_2 Fe2_2 1_555 1_555
Fe1_2 O1_2 1_555 1_555
O1_2 C1_2 1_555 1_555
O2_2 C1_2 1_555 1_555
O3_2 Fe1_2 1_555 1_555
C1_2 C2_2 1_555 1_555
C2_2 C3_2 1_555 1_555
C3_2 O3_2 1_555 1_555
O6_2 C7_2 1_555 1_555
C7_2 C6_2 1_555 1_555
C8_2 C2_2 1_555 1_555
H2_2 C8_2 1_555 1_555
Fe5_2 O2_2 1_555 1_555
Fe8_2 O6_2 1_555 1_555
C7_2 C8_2 1_555 1_555
H1_2 C4_2 1_555 1_555
O4_2 C5_2 1_555 1_555
O5_2 C5_2 1_555 1_555
Fe8_2 O5_2 1_555 1_555
Fe8_2 O13_2 1_555 1_555
Fe3_2 O11_2 1_555 1_555
Fe3_3 O11_3 1_555 1_555
Fe1_3 O1_3 1_555 1_555
O1_3 C1_3 1_555 1_555
O2_3 C1_3 1_555 1_555
O3_3 Fe1_3 1_555 1_555
C1_3 C2_3 1_555 1_555
C2_3 C3_3 1_555 1_555
C3_3 O3_3 1_555 1_555
O6_3 C7_3 1_555 1_555
C7_3 C6_3 1_555 1_555
C8_3 C2_3 1_555 1_555
H2_3 C8_3 1_555 1_555
Fe5_3 O2_3 1_555 1_555
Fe8_3 O6_3 1_555 1_555
O6_3 Fe6_3 1_555 1_555
C7_3 C8_3 1_555 1_555
H1_3 C4_3 1_555 1_555
O4_3 C5_3 1_555 1_555
O5_3 C5_3 1_555 1_555
Fe2_3 O4_3 1_555 1_555
Fe8_3 O5_3 1_555 1_555
O8_3 Fe2_3 1_555 1_555
O12_3 Fe2_3 1_555 1_555
O13_3 Fe2_3 1_555 1_555
Fe8_3 O8_3 1_555 1_555
Fe8_3 O13_3 1_555 1_555
C3_4 O11_3 1_555 1_555
C4_4 C3_4 1_555 1_555
H1_4 C4_4 1_555 1_555
O4_4 C5_4 1_555 1_555
O10_2 C5_4 1_555 1_555
C5_4 C6_4 1_555 1_555
C6_4 C4_4 1_555 1_555
Fe6_2 O4_4 1_555 1_555
O9_4 Fe3_3 1_555 1_555
O10_4 Fe6_2 1_555 1_555
O11_4 Fe3_3 1_555 1_555
O1_4 C1_4 1_555 1_555
O9_3 C1_4 1_555 1_555
C1_4 C2_4 1_555 1_555
O13_2 C7_4 1_555 1_555
C8_4 C2_4 1_555 1_555
H2_4 C8_4 1_555 1_555
Fe5_3 O1_4 1_555 1_555
C7_4 C8_4 1_555 1_555
Fe3 O1_5 1_555 1_555
O1_5 C1_5 1_555 1_555
O9 C1_5 1_555 1_555
C1_5 C2_5 1_555 1_555
C2_5 C3_5 1_555 1_555
C3_5 O11 1_555 1_555
C4_5 C3_5 1_555 1_555
H1_5 C4_5 1_555 1_555
O4_5 C5_5 1_555 1_555
O10_3 C5_5 1_555 1_555
O13_3 C7_5 1_555 1_555
C5_5 C6_5 1_555 1_555
C6_5 C4_5 1_555 1_555
C7_5 C6_5 1_555 1_555
C8_5 C2_5 1_555 1_555
H2_5 C8_5 1_555 1_555
Fe6_3 O4_5 1_555 1_555
Fe5 O1_5 1_555 1_555
Fe8_3 O4_5 1_555 1_555
O9_5 Fe3 1_555 1_555
O10_5 Fe6_3 1_555 1_555
O11_5 Fe3 1_555 1_555
C7_5 C8_5 1_555 1_555
Fe5 O11_5 1_555 1_555
O1_6 C1_6 1_555 1_555
O9_2 C1_6 1_555 1_555
C1_6 C2_6 1_555 1_555
O13 C7_6 1_555 1_555
C8_6 C2_6 1_555 1_555
H2_6 C8_6 1_555 1_555
Fe5_2 O1_6 1_555 1_555
C7_6 C8_6 1_555 1_555
C3_6 O11_2 1_555 1_555
C4_6 C3_6 1_555 1_555
H1_6 C4_6 1_555 1_555
O4_6 C5_6 1_555 1_555
O10 C5_6 1_555 1_555
C5_6 C6_6 1_555 1_555
C6_6 C4_6 1_555 1_555
Fe6 O4_6 1_555 1_555
O9_6 Fe3_2 1_555 1_555
O10_6 Fe6 1_555 1_555
O11_6 Fe3_2 1_555 1_555
O7_2 C1_7 1_555 1_555
O9_6 C1_7 1_555 1_555
H2_7 C8_7 1_555 1_555
C2_7 C3_7 1_555 1_555
C3_7 O11_6 1_555 1_555
C4_7 C3_7 1_555 1_555
H1_7 C4_7 1_555 1_555
O8_3 C5_7 1_555 1_555
O10_5 C5_7 1_555 1_555
O12_3 C7_7 1_555 1_555
C5_7 C6_7 1_555 1_555
C6_7 C4_7 1_555 1_555
C7_7 C6_7 1_555 1_555
O7_3 C1_8 1_555 1_555
O9_4 C1_8 1_555 1_555
H2_8 C8_8 1_555 1_555
C2_8 C3_8 1_555 1_555
C3_8 O11_4 1_555 1_555
C4_8 C3_8 1_555 1_555
H1_8 C4_8 1_555 1_555
O8 C5_8 1_555 1_555
O10_6 C5_8 1_555 1_555
O12 C7_8 1_555 1_555
C5_8 C6_8 1_555 1_555
C6_8 C4_8 1_555 1_555
C7_8 C6_8 1_555 1_555
O7 C1_9 1_555 1_555
O9_5 C1_9 1_555 1_555
H2_9 C8_9 1_555 1_555
C2_9 C3_9 1_555 1_555
C3_9 O11_5 1_555 1_555
C4_9 C3_9 1_555 1_555
H1_9 C4_9 1_555 1_555
O8_2 C5_9 1_555 1_555
O10_4 C5_9 1_555 1_555
O12_2 C7_9 1_555 1_555
C5_9 C6_9 1_555 1_555
C6_9 C4_9 1_555 1_555
C7_9 C6_9 1_555 1_555

#END
