
###############################################################################
#
# This file contains modified crystal structure data generated from the
# MOF subset of the Cambridge Structural Database (CSD) v543 
# hosted by the Cambridge Crystallographic Data Centre (CCDC).
#
# This work is licensed under the Creative Commons
# Attribution-NonCommercial-ShareAlike 4.0 International License.
# To view a copy of this license, visit
# http://creativecommons.org/licenses/by-nc-sa/4.0/
# or send a letter to
# Creative Commons, PO Box 1866, Mountain View, CA 94042, USA.
#
# CIF created using the CSD Python API on 29 September 2022
# The structure has been converted into the P1 space group
# The structure has a 3D framework
# The original CSD entry WOPSOL is in the rhombohedral crystal system
# The framework has been calculated to contain at least 10.0% void space
# The void calculation uses a probe of radius 1.32A, grid spacing 0.4
# H atom positions have been added when not included in the experimental data
# Generated hydrogen atom positions removed from atoms on special positions
#
###############################################################################

data_WOPSOL
_chemical_formula_moiety         '(C72 H90 Fe18 O66)n'
_symmetry_cell_setting           triclinic
_symmetry_space_group_name_H-M   'P 1'
_symmetry_Int_Tables_number      1
_space_group_name_Hall           'P 1'
loop_
_symmetry_equiv_pos_site_id
_symmetry_equiv_pos_as_xyz
1 x,y,z
_cell_length_a                   25.6125(4)
_cell_length_b                   25.6125
_cell_length_c                   6.80363(13)
_cell_angle_alpha                90
_cell_angle_beta                 90
_cell_angle_gamma                120
_cell_volume                     3865.23
loop_
_atom_site_label
_atom_site_type_symbol
_atom_site_fract_x
_atom_site_fract_y
_atom_site_fract_z
Fe1 Fe 0.38929(11) 0.35113(10) 0.15399(35)
O1 O 0.32300(33) 0.29715(35) 0.3555(13)
O2 O 0.3009(4) 0.22839(33) 0.5940(13)
C1 C 0.3164(8) 0.2467(6) 0.4151(18)
C2 C 0.3260(6) 0.2052(7) 0.2881(20)
C3 C 0.3431(5) 0.2202(7) 0.0922(20)
O4 O 0.4524(4) 0.3473(5) 0.2937(12)
O7 O 0.31133(32) 0.0605(4) 0.3344(14)
C6 C 0.3407(6) 0.1281(7) 0.0452(20)
C7 C 0.3236(5) 0.1131(7) 0.2411(20)
C8 C 0.3175(6) 0.1538(7) 0.3768(17)
Fe3 Fe 0.31554(10) 0.37149(15) 0.48732(35)
Fe5 Fe 0.29517(15) 0.27738(11) 0.82066(35)
Fe8 Fe 0.37149(15) 0.05596(11) 0.51268(35)
O9 O 0.30748(48) 0.34367(33) 0.0222(13)
O13 O 0.3939(4) 0.41587(51) 0.3322(14)
H6 H 0.307191 0.144197 0.532431
O3 O 0.35534(32) 0.2728(4) 0.9989(14)
C4 C 0.3492(6) 0.1795(7) 0.9565(17)
O5 O 0.34367(33) 0.03618(35) 0.9778(13)
O6 O 0.3658(4) 0.10494(33) 0.7393(13)
C5 C 0.3503(8) 0.0866(6) 0.9182(18)
O11 O 0.43828(33) 0.40584(52) 0.9273(13)
O15 O 0.41587(51) 0.02201(32) 0.6678(14)
H1 H 0.359476 0.189136 0.800902
Fe6 Fe 0.27738(11) 0.98220(10) 0.17934(35)
O12 O 0.40584(52) 0.9676(4) 0.0727(13)
O14 O 0.2728(4) 0.91746(51) 0.0011(14)
Fe2 Fe 0.35113(10) 0.96184(15) 0.84601(35)
O8 O 0.3473(5) 0.8949(6) 0.7063(12)
O10 O 0.29715(35) 0.97415(48) 0.6445(13)
Fe6_2 Fe 0.01780(10) 0.29517(15) 0.17934(35)
O12_2 O 0.0324(4) 0.43828(66) 0.0727(13)
O14_2 O 0.08254(51) 0.35534(65) 0.0011(14)
Fe2_2 Fe 0.03816(15) 0.38929(18) 0.84601(35)
O8_2 O 0.1051(6) 0.4524(8) 0.7063(12)
O10_2 O 0.02585(48) 0.32300(59) 0.6445(13)
Fe1_2 Fe 0.64887(10) 0.03816(15) 0.15399(35)
O1_2 O 0.70285(35) 0.02585(48) 0.3555(13)
O2_2 O 0.77161(33) 0.07251(52) 0.5940(13)
C1_2 C 0.7533(6) 0.0697(10) 0.4151(18)
C2_2 C 0.7948(7) 0.1208(9) 0.2881(20)
C3_2 C 0.7798(7) 0.1229(9) 0.0922(20)
O4_2 O 0.6527(5) 0.1051(6) 0.2937(12)
O7_2 O 0.9395(4) 0.25079(51) 0.3344(14)
C6_2 C 0.8719(7) 0.2125(9) 0.0452(20)
C7_2 C 0.8869(7) 0.2104(9) 0.2411(20)
C8_2 C 0.8462(7) 0.1636(9) 0.3768(17)
Fe5_2 Fe 0.72262(11) 0.01780(19) 0.82066(35)
Fe8_2 Fe 0.94404(11) 0.31554(19) 0.51268(35)
H6_2 H 0.855803 0.162994 0.532431
O3_2 O 0.7272(4) 0.08254(51) 0.9989(14)
C4_2 C 0.8205(7) 0.1697(9) 0.9565(17)
O5_2 O 0.96382(35) 0.30748(48) 0.9778(13)
O6_2 O 0.89506(33) 0.26082(52) 0.7393(13)
C5_2 C 0.9134(6) 0.2636(10) 0.9182(18)
O11_2 O 0.59416(52) 0.03243(62) 0.9273(13)
O15_2 O 0.97799(32) 0.39387(60) 0.6678(14)
H1_2 H 0.810864 0.170339 0.800902
Fe3_2 Fe 0.62851(15) 0.94404(18) 0.48732(35)
O9_2 O 0.65633(33) 0.96382(58) 0.0222(13)
O13_2 O 0.58413(51) 0.97799(65) 0.3322(14)
Fe3_3 Fe 0.05596(18) 0.68446(10) 0.48732(35)
O9_3 O 0.03618(58) 0.69252(48) 0.0222(13)
O13_3 O 0.02201(65) 0.6061(4) 0.3322(14)
Fe1_3 Fe 0.96184(15) 0.61071(11) 0.15399(35)
O1_3 O 0.97415(48) 0.67700(33) 0.3555(13)
O2_3 O 0.92749(52) 0.6991(4) 0.5940(13)
C1_3 C 0.9303(10) 0.6836(8) 0.4151(18)
C2_3 C 0.8792(9) 0.6740(6) 0.2881(20)
C3_3 C 0.8771(9) 0.6569(5) 0.0922(20)
O4_3 O 0.8949(6) 0.5476(4) 0.2937(12)
O7_3 O 0.74921(51) 0.68867(32) 0.3344(14)
C6_3 C 0.7875(9) 0.6593(6) 0.0452(20)
C7_3 C 0.7896(9) 0.6764(5) 0.2411(20)
C8_3 C 0.8364(9) 0.6825(6) 0.3768(17)
Fe5_3 Fe 0.98220(19) 0.70483(15) 0.82066(35)
Fe6_3 Fe 0.70483(15) 0.72262(11) 0.17934(35)
Fe8_3 Fe 0.68446(19) 0.62851(15) 0.51268(35)
O12_3 O 0.56172(66) 0.59416(52) 0.0727(13)
O14_3 O 0.64466(65) 0.7272(4) 0.0011(14)
H6_3 H 0.837006 0.692809 0.532431
O3_3 O 0.91746(51) 0.64466(32) 0.9989(14)
C4_3 C 0.8303(9) 0.6508(6) 0.9565(17)
O5_3 O 0.69252(48) 0.65633(33) 0.9778(13)
O6_3 O 0.73918(52) 0.6342(4) 0.7393(13)
C5_3 C 0.7364(10) 0.6497(8) 0.9182(18)
Fe2_3 Fe 0.61071(18) 0.64887(10) 0.84601(35)
O8_3 O 0.5476(8) 0.6527(5) 0.7063(12)
O10_3 O 0.67700(59) 0.70285(35) 0.6445(13)
O11_3 O 0.96757(62) 0.56172(33) 0.9273(13)
O15_3 O 0.60613(60) 0.58413(51) 0.6678(14)
H1_3 H 0.829661 0.640524 0.800902
C3_4 C 0.0098(5) 0.5535(7) 0.4255(20)
C4_4 C 0.0159(6) 0.5128(7) 0.2898(17)
O4_4 O 0.1191(4) 0.6806(5) 0.6270(12)
O5_4 O 0.01033(33) 0.36952(35) 0.3112(13)
C5_4 C 0.0169(8) 0.4200(6) 0.2516(18)
C6_4 C 0.0073(6) 0.4615(7) 0.3786(20)
O8_4 O 0.0140(5) 0.2282(6) 0.0396(12)
O11_4 O 0.10494(33) 0.73918(52) 0.2607(13)
O12_4 O 0.07251(52) 0.3009(4) 0.4060(13)
O13_4 O 0.0605(4) 0.74921(51) 0.6656(14)
H1_4 H 0.0261424 0.52247 0.134236
H5 H 0.0460645 0.220569 0.0884448
H4 H 0.0199198 0.237671 0.897038
O1_4 O 0.98967(33) 0.63048(35) 0.6888(13)
C1_4 C 0.9831(8) 0.5800(6) 0.7484(18)
C2_4 C 0.9927(6) 0.5385(7) 0.6214(20)
C7_4 C 0.9902(5) 0.4465(7) 0.5745(20)
C8_4 C 0.9841(6) 0.4872(7) 0.7102(17)
H6_4 H 0.973858 0.47753 0.865764
O1_5 O 0.36952(35) 0.35918(48) 0.6888(13)
C1_5 C 0.4200(6) 0.4030(10) 0.7484(18)
C2_5 C 0.4615(7) 0.4541(9) 0.6214(20)
C3_5 C 0.4465(7) 0.4562(9) 0.4255(20)
C4_5 C 0.4872(7) 0.5030(9) 0.2898(17)
O4_5 O 0.3194(5) 0.4384(6) 0.6270(12)
O5_5 O 0.63048(35) 0.64082(48) 0.3112(13)
C5_5 C 0.5800(6) 0.5970(10) 0.2516(18)
C6_5 C 0.5385(7) 0.5459(9) 0.3786(20)
C7_5 C 0.5535(7) 0.5438(9) 0.5745(20)
C8_5 C 0.5128(7) 0.4970(9) 0.7102(17)
O8_5 O 0.7718(6) 0.7857(8) 0.0396(12)
O11_5 O 0.26082(52) 0.36577(62) 0.2607(13)
O12_5 O 0.6991(4) 0.77161(66) 0.4060(13)
O13_5 O 0.25079(51) 0.31133(65) 0.6656(14)
H1_5 H 0.47753 0.503673 0.134236
H6_5 H 0.52247 0.496327 0.865764
H4_2 H 0.762329 0.782249 0.897038
O1_6 O 0.64082(48) 0.01033(33) 0.6888(13)
C1_6 C 0.5970(10) 0.0169(8) 0.7484(18)
C2_6 C 0.5459(9) 0.0073(6) 0.6214(20)
C7_6 C 0.4562(9) 0.0098(5) 0.5745(20)
C8_6 C 0.5030(9) 0.0159(6) 0.7102(17)
H6_6 H 0.503673 0.0261424 0.865764
C3_6 C 0.5438(9) 0.9902(5) 0.4255(20)
C4_6 C 0.4970(9) 0.9841(6) 0.2898(17)
O4_6 O 0.5616(6) 0.8809(4) 0.6270(12)
O5_6 O 0.35918(48) 0.98967(33) 0.3112(13)
C5_6 C 0.4030(10) 0.9831(8) 0.2516(18)
C6_6 C 0.4541(9) 0.9927(6) 0.3786(20)
O8_6 O 0.2143(8) 0.9860(5) 0.0396(12)
O11_6 O 0.63423(62) 0.89506(33) 0.2607(13)
O12_6 O 0.22839(66) 0.92749(52) 0.4060(13)
O13_6 O 0.68867(65) 0.9395(4) 0.6656(14)
H1_6 H 0.496327 0.973858 0.134236
H5_2 H 0.174505 0.953936 0.0884448
H4_3 H 0.217751 0.98008 0.897038
O4_7 O 0.7857(4) 0.0140(5) 0.9604(12)
H3 H 0.824424 0.0377862 0.888904
C1_7 C 0.6497(8) 0.9134(6) 0.0818(18)
C8_7 C 0.6508(6) 0.8205(7) 0.0435(17)
H6_7 H 0.640524 0.810864 0.199098
C2_7 C 0.6593(6) 0.8719(7) 0.9548(20)
C3_7 C 0.6764(5) 0.8869(7) 0.7589(20)
C4_7 C 0.6825(6) 0.8462(7) 0.6232(17)
C5_7 C 0.6836(8) 0.7533(6) 0.5849(18)
C6_7 C 0.6740(6) 0.7948(7) 0.7119(20)
C7_7 C 0.6569(5) 0.7798(7) 0.9078(20)
O8_7 O 0.6806(5) 0.5616(6) 0.3730(12)
H1_7 H 0.692809 0.855803 0.467569
H2 H 0.775965 0.971333 0.97002
O8_8 O 0.4384(6) 0.1191(8) 0.3730(12)
C1_8 C 0.0866(6) 0.7364(10) 0.0818(18)
C8_8 C 0.1795(7) 0.8303(9) 0.0435(17)
H6_8 H 0.189136 0.829661 0.199098
C2_8 C 0.1281(7) 0.7875(9) 0.9548(20)
C3_8 C 0.1131(7) 0.7896(9) 0.7589(20)
C4_8 C 0.1538(7) 0.8364(9) 0.6232(17)
C5_8 C 0.2467(6) 0.9303(10) 0.5849(18)
C6_8 C 0.2052(7) 0.8792(9) 0.7119(20)
C7_8 C 0.2202(7) 0.8771(9) 0.9078(20)
H1_8 H 0.144197 0.837006 0.467569
H2_2 H 0.0286666 0.804631 0.97002
O4_8 O 0.9860(5) 0.7718(6) 0.9604(12)
H3_2 H 0.962214 0.786638 0.888904
C1_9 C 0.2636(10) 0.3503(8) 0.0818(18)
C8_9 C 0.1697(9) 0.3492(6) 0.0435(17)
H6_9 H 0.170339 0.359476 0.199098
C2_9 C 0.2125(9) 0.3407(6) 0.9548(20)
C3_9 C 0.2104(9) 0.3236(5) 0.7589(20)
C4_9 C 0.1636(9) 0.3175(6) 0.6232(17)
O4_9 O 0.2282(6) 0.2143(4) 0.9604(12)
C5_9 C 0.0697(10) 0.3164(8) 0.5849(18)
C6_9 C 0.1208(9) 0.3260(6) 0.7119(20)
C7_9 C 0.1229(9) 0.3431(5) 0.9078(20)
H1_9 H 0.162994 0.307191 0.467569
O8_9 O 0.8809(8) 0.3194(5) 0.3730(12)
H4_4 H 0.98008 0.762329 0.102962
H5_3 H 0.953936 0.779431 0.911555
H4_5 H 0.237671 0.217751 0.102962
H4_6 H 0.782249 0.0199198 0.102962
H5_4 H 0.825495 0.0460645 0.911555
H2_3 H 0.224035 0.0286666 0.0299802
H3_3 H 0.175576 0.962214 0.111096
H3_4 H 0.0377862 0.213362 0.111096
H2_4 H 0.971333 0.195369 0.0299802
loop_
_geom_bond_atom_site_label_1
_geom_bond_atom_site_label_2
_geom_bond_site_symmetry_1
_geom_bond_site_symmetry_2
Fe1 O1 1_555 1_555
O1 C1 1_555 1_555
O2 C1 1_555 1_555
C1 C2 1_555 1_555
C2 C3 1_555 1_555
O4 Fe1 1_555 1_555
O7 C7 1_555 1_555
C7 C6 1_555 1_555
C8 C2 1_555 1_555
Fe3 O1 1_555 1_555
Fe5 O2 1_555 1_555
Fe8 O7 1_555 1_555
O9 Fe1 1_555 1_555
O13 Fe1 1_555 1_555
C7 C8 1_555 1_555
Fe3 O13 1_555 1_555
C8 H6 1_555 1_555
O5 C5 1_555 1_555
O6 C5 1_555 1_555
Fe5 O3 1_555 1_555
Fe8 O6 1_555 1_555
Fe8 O15 1_555 1_555
C4 H1 1_555 1_555
Fe6 O14 1_555 1_555
O8 Fe2 1_555 1_555
O10 Fe2 1_555 1_555
Fe6_2 O14_2 1_555 1_555
O8_2 Fe2_2 1_555 1_555
O10_2 Fe2_2 1_555 1_555
Fe1_2 O1_2 1_555 1_555
O1_2 C1_2 1_555 1_555
O2_2 C1_2 1_555 1_555
C1_2 C2_2 1_555 1_555
C2_2 C3_2 1_555 1_555
O4_2 Fe1_2 1_555 1_555
O7_2 C7_2 1_555 1_555
C7_2 C6_2 1_555 1_555
C8_2 C2_2 1_555 1_555
Fe5_2 O2_2 1_555 1_555
Fe8_2 O7_2 1_555 1_555
C7_2 C8_2 1_555 1_555
C8_2 H6_2 1_555 1_555
O5_2 C5_2 1_555 1_555
O6_2 C5_2 1_555 1_555
Fe5_2 O3_2 1_555 1_555
Fe8_2 O6_2 1_555 1_555
Fe8_2 O15_2 1_555 1_555
C4_2 H1_2 1_555 1_555
Fe3_2 O13_2 1_555 1_555
Fe3_3 O13_3 1_555 1_555
Fe1_3 O1_3 1_555 1_555
O1_3 C1_3 1_555 1_555
O2_3 C1_3 1_555 1_555
C1_3 C2_3 1_555 1_555
C2_3 C3_3 1_555 1_555
O4_3 Fe1_3 1_555 1_555
O7_3 C7_3 1_555 1_555
C7_3 C6_3 1_555 1_555
C8_3 C2_3 1_555 1_555
Fe5_3 O2_3 1_555 1_555
Fe8_3 O7_3 1_555 1_555
O7_3 Fe6_3 1_555 1_555
C7_3 C8_3 1_555 1_555
Fe6_3 O14_3 1_555 1_555
C8_3 H6_3 1_555 1_555
O5_3 C5_3 1_555 1_555
O6_3 C5_3 1_555 1_555
Fe2_3 O5_3 1_555 1_555
O8_3 Fe2_3 1_555 1_555
Fe5_3 O3_3 1_555 1_555
Fe8_3 O6_3 1_555 1_555
O10_3 Fe2_3 1_555 1_555
O15_3 Fe2_3 1_555 1_555
Fe8_3 O10_3 1_555 1_555
Fe8_3 O15_3 1_555 1_555
C4_3 H1_3 1_555 1_555
C3_4 O13_3 1_555 1_555
C4_4 C3_4 1_555 1_555
O4_4 Fe3_3 1_555 1_555
O5_4 C5_4 1_555 1_555
O12_2 C5_4 1_555 1_555
C5_4 C6_4 1_555 1_555
C6_4 C4_4 1_555 1_555
Fe6_2 O5_4 1_555 1_555
O8_4 Fe6_2 1_555 1_555
O11_4 Fe3_3 1_555 1_555
O12_4 Fe6_2 1_555 1_555
O13_4 Fe3_3 1_555 1_555
C4_4 H1_4 1_555 1_555
O8_4 H5 1_555 1_555
O1_4 C1_4 1_555 1_555
O11_3 C1_4 1_555 1_555
C1_4 C2_4 1_555 1_555
O15_2 C7_4 1_555 1_555
C8_4 C2_4 1_555 1_555
Fe5_3 O1_4 1_555 1_555
C7_4 C8_4 1_555 1_555
C8_4 H6_4 1_555 1_555
Fe3 O1_5 1_555 1_555
O1_5 C1_5 1_555 1_555
O11 C1_5 1_555 1_555
C1_5 C2_5 1_555 1_555
C2_5 C3_5 1_555 1_555
C3_5 O13 1_555 1_555
C4_5 C3_5 1_555 1_555
O4_5 Fe3 1_555 1_555
O5_5 C5_5 1_555 1_555
O12_3 C5_5 1_555 1_555
O15_3 C7_5 1_555 1_555
C5_5 C6_5 1_555 1_555
C6_5 C4_5 1_555 1_555
C7_5 C6_5 1_555 1_555
C8_5 C2_5 1_555 1_555
Fe6_3 O5_5 1_555 1_555
O8_5 Fe6_3 1_555 1_555
Fe5 O1_5 1_555 1_555
Fe8_3 O5_5 1_555 1_555
O11_5 Fe3 1_555 1_555
O12_5 Fe6_3 1_555 1_555
O13_5 Fe3 1_555 1_555
C7_5 C8_5 1_555 1_555
Fe5 O13_5 1_555 1_555
C4_5 H1_5 1_555 1_555
C8_5 H6_5 1_555 1_555
O1_6 C1_6 1_555 1_555
O11_2 C1_6 1_555 1_555
C1_6 C2_6 1_555 1_555
O15 C7_6 1_555 1_555
C8_6 C2_6 1_555 1_555
Fe5_2 O1_6 1_555 1_555
C7_6 C8_6 1_555 1_555
C8_6 H6_6 1_555 1_555
C3_6 O13_2 1_555 1_555
C4_6 C3_6 1_555 1_555
O4_6 Fe3_2 1_555 1_555
O5_6 C5_6 1_555 1_555
O12 C5_6 1_555 1_555
C5_6 C6_6 1_555 1_555
C6_6 C4_6 1_555 1_555
Fe6 O5_6 1_555 1_555
O8_6 Fe6 1_555 1_555
O11_6 Fe3_2 1_555 1_555
O12_6 Fe6 1_555 1_555
O13_6 Fe3_2 1_555 1_555
C4_6 H1_6 1_555 1_555
O8_6 H5_2 1_555 1_555
O4_7 Fe5_2 1_555 1_555
O4_7 H3 1_555 1_555
O9_2 C1_7 1_555 1_555
O11_6 C1_7 1_555 1_555
C8_7 H6_7 1_555 1_555
C2_7 C3_7 1_555 1_555
C3_7 O13_6 1_555 1_555
C4_7 C3_7 1_555 1_555
O10_3 C5_7 1_555 1_555
O12_5 C5_7 1_555 1_555
C5_7 C6_7 1_555 1_555
C6_7 C4_7 1_555 1_555
C7_7 C6_7 1_555 1_555
O8_7 Fe8_3 1_555 1_555
C4_7 H1_7 1_555 1_555
O8_8 Fe8 1_555 1_555
O9_3 C1_8 1_555 1_555
O11_4 C1_8 1_555 1_555
C8_8 H6_8 1_555 1_555
C2_8 C3_8 1_555 1_555
C3_8 O13_4 1_555 1_555
C4_8 C3_8 1_555 1_555
O10 C5_8 1_555 1_555
O12_6 C5_8 1_555 1_555
C5_8 C6_8 1_555 1_555
C6_8 C4_8 1_555 1_555
C7_8 C6_8 1_555 1_555
C4_8 H1_8 1_555 1_555
O4_8 Fe5_3 1_555 1_555
O4_8 H3_2 1_555 1_555
O9 C1_9 1_555 1_555
O11_5 C1_9 1_555 1_555
C8_9 H6_9 1_555 1_555
C2_9 C3_9 1_555 1_555
C3_9 O13_5 1_555 1_555
C4_9 C3_9 1_555 1_555
O4_9 Fe5 1_555 1_555
O10_2 C5_9 1_555 1_555
O12_4 C5_9 1_555 1_555
C5_9 C6_9 1_555 1_555
C6_9 C4_9 1_555 1_555
C7_9 C6_9 1_555 1_555
C4_9 H1_9 1_555 1_555
O8_9 Fe8_2 1_555 1_555
O4_8 H5_3 1_555 1_555
O4_7 H5_4 1_555 1_555
O8_6 H3_3 1_555 1_555
O8_4 H3_4 1_555 1_555

#END
