
###############################################################################
#
# This file contains modified crystal structure data generated from the
# MOF subset of the Cambridge Structural Database (CSD) v543 
# hosted by the Cambridge Crystallographic Data Centre (CCDC).
#
# This work is licensed under the Creative Commons
# Attribution-NonCommercial-ShareAlike 4.0 International License.
# To view a copy of this license, visit
# http://creativecommons.org/licenses/by-nc-sa/4.0/
# or send a letter to
# Creative Commons, PO Box 1866, Mountain View, CA 94042, USA.
#
# CIF created using the CSD Python API on 29 September 2022
# The structure has been converted into the P1 space group
# The structure has a 3D framework
# The original CSD entry WOPSAX01 is in the rhombohedral crystal system
# The framework has been calculated to contain at least 10.0% void space
# The void calculation uses a probe of radius 1.32A, grid spacing 0.4
#
###############################################################################

data_WOPSAX01
_chemical_formula_moiety         '(C72 H18 Fe8 O54)n'
_symmetry_cell_setting           triclinic
_symmetry_space_group_name_H-M   'P 1'
_symmetry_Int_Tables_number      1
_space_group_name_Hall           'P 1'
loop_
_symmetry_equiv_pos_site_id
_symmetry_equiv_pos_as_xyz
1 x,y,z
_cell_length_a                   26.1243(5)
_cell_length_b                   26.1243
_cell_length_c                   6.87522(23)
_cell_angle_alpha                90
_cell_angle_beta                 90
_cell_angle_gamma                120
_cell_volume                     4063.56
loop_
_atom_site_label
_atom_site_type_symbol
_atom_site_fract_x
_atom_site_fract_y
_atom_site_fract_z
_atom_site_U_iso_or_equiv
_atom_site_thermal_displace_type
Fe1 Fe 0.38284(18) 0.35180(20) 0.1479(6) 0.0095 Uiso
O1 O 0.32708(26) 0.29516(29) 0.3619(9) 0.0032 Uiso
O2 O 0.30065(28) 0.22525(28) 0.5929(10) 0.0032 Uiso
O3 O 0.35544(28) 0.27360(27) 0.0059(11) 0.0032 Uiso
C1 C 0.31936(25) 0.24711(26) 0.4234(9) 0.0081 Uiso
C2 C 0.32668(28) 0.20573(27) 0.2872(8) 0.0081 Uiso
C3 C 0.34574(23) 0.22231(26) 0.0956(9) 0.0081 Uiso
O6 O 0.31123(28) 0.05973(27) 0.3274(11) 0.0032 Uiso
C6 C 0.33999(28) 0.12760(27) 0.0461(8) 0.0081 Uiso
C7 C 0.32093(23) 0.11102(26) 0.2377(9) 0.0081 Uiso
C8 C 0.31594(28) 0.15252(28) 0.3565(9) 0.0081 Uiso
H2 H 0.3035(5) 0.1402(4) 0.5025(19) 0.0135 Uiso
Fe3 Fe 0.31487(20) 0.36437(27) 0.4812(6) 0.0095 Uiso
Fe5 Fe 0.30229(27) 0.28383(18) 0.8146(6) 0.0095 Uiso
Fe8 Fe 0.36437(27) 0.04951(18) 0.5188(6) 0.0095 Uiso
O7 O 0.30141(39) 0.33959(26) 0.0286(9) 0.0032 Uiso
O11 O 0.39307(27) 0.41517(39) 0.3392(11) 0.0032 Uiso
C4 C 0.35073(28) 0.18081(28) 0.9768(9) 0.0081 Uiso
H1 H 0.3632(5) 0.1931(4) 0.8308(19) 0.0135 Uiso
O4 O 0.33959(26) 0.03817(29) 0.9714(9) 0.0032 Uiso
O5 O 0.36602(28) 0.10808(28) 0.7404(10) 0.0032 Uiso
C5 C 0.34731(25) 0.08622(26) 0.9099(9) 0.0081 Uiso
O9 O 0.44142(28) 0.40873(40) 0.9262(10) 0.0032 Uiso
O13 O 0.41517(39) 0.02211(28) 0.6608(11) 0.0032 Uiso
Fe6 Fe 0.28383(18) 0.98153(20) 0.1854(6) 0.0095 Uiso
O10 O 0.40873(40) 0.96732(28) 0.0738(10) 0.0032 Uiso
Fe2 Fe 0.35180(20) 0.96896(27) 0.8521(6) 0.0095 Uiso
O8 O 0.29516(29) 0.96808(39) 0.6381(9) 0.0032 Uiso
O12 O 0.27360(27) 0.91816(39) 0.9941(11) 0.0032 Uiso
Fe6_2 Fe 0.01847(20) 0.30229(27) 0.1854(6) 0.0095 Uiso
O10_2 O 0.03268(28) 0.44142(49) 0.0738(10) 0.0032 Uiso
Fe2_2 Fe 0.03104(27) 0.38284(34) 0.8521(6) 0.0095 Uiso
O8_2 O 0.03192(39) 0.32708(49) 0.6381(9) 0.0032 Uiso
O12_2 O 0.08184(39) 0.35544(47) 0.9941(11) 0.0032 Uiso
Fe1_2 Fe 0.64820(20) 0.03104(27) 0.1479(6) 0.0095 Uiso
O1_2 O 0.70484(29) 0.03192(39) 0.3619(9) 0.0032 Uiso
O2_2 O 0.77475(28) 0.07540(40) 0.5929(10) 0.0032 Uiso
O3_2 O 0.72640(27) 0.08184(39) 0.0059(11) 0.0032 Uiso
C1_2 C 0.75289(26) 0.07225(36) 0.4234(9) 0.0081 Uiso
C2_2 C 0.79427(27) 0.12095(39) 0.2872(8) 0.0081 Uiso
C3_2 C 0.77769(26) 0.12343(35) 0.0956(9) 0.0081 Uiso
O6_2 O 0.94027(27) 0.25149(39) 0.3274(11) 0.0032 Uiso
C6_2 C 0.87240(27) 0.21238(39) 0.0461(8) 0.0081 Uiso
C7_2 C 0.88898(26) 0.20990(35) 0.2377(9) 0.0081 Uiso
C8_2 C 0.84748(28) 0.16341(40) 0.3565(9) 0.0081 Uiso
H2_2 H 0.8598(4) 0.1632(6) 0.5025(19) 0.0135 Uiso
Fe5_2 Fe 0.71617(18) 0.01847(32) 0.8146(6) 0.0095 Uiso
Fe8_2 Fe 0.95049(18) 0.31487(32) 0.5188(6) 0.0095 Uiso
C4_2 C 0.81919(28) 0.16992(40) 0.9768(9) 0.0081 Uiso
H1_2 H 0.8069(4) 0.1701(6) 0.8308(19) 0.0135 Uiso
O4_2 O 0.96183(29) 0.30141(39) 0.9714(9) 0.0032 Uiso
O5_2 O 0.89192(28) 0.25793(40) 0.7404(10) 0.0032 Uiso
C5_2 C 0.91378(26) 0.26108(36) 0.9099(9) 0.0081 Uiso
O9_2 O 0.59127(40) 0.03268(49) 0.9262(10) 0.0032 Uiso
O13_2 O 0.97789(28) 0.39307(48) 0.6608(11) 0.0032 Uiso
Fe3_2 Fe 0.63563(27) 0.95049(34) 0.4812(6) 0.0095 Uiso
O7_2 O 0.66041(26) 0.96183(47) 0.0286(9) 0.0032 Uiso
O11_2 O 0.58483(39) 0.97789(47) 0.3392(11) 0.0032 Uiso
Fe3_3 Fe 0.04951(34) 0.68513(20) 0.4812(6) 0.0095 Uiso
O7_3 O 0.03817(47) 0.69859(39) 0.0286(9) 0.0032 Uiso
O11_3 O 0.02211(47) 0.60693(27) 0.3392(11) 0.0032 Uiso
Fe1_3 Fe 0.96896(27) 0.61716(18) 0.1479(6) 0.0095 Uiso
O1_3 O 0.96808(39) 0.67292(26) 0.3619(9) 0.0032 Uiso
O2_3 O 0.92460(40) 0.69935(28) 0.5929(10) 0.0032 Uiso
O3_3 O 0.91816(39) 0.64456(28) 0.0059(11) 0.0032 Uiso
C1_3 C 0.92775(36) 0.68064(25) 0.4234(9) 0.0081 Uiso
C2_3 C 0.87905(39) 0.67332(28) 0.2872(8) 0.0081 Uiso
C3_3 C 0.87657(35) 0.65426(23) 0.0956(9) 0.0081 Uiso
O6_3 O 0.74851(39) 0.68877(28) 0.3274(11) 0.0032 Uiso
C6_3 C 0.78762(39) 0.66001(28) 0.0461(8) 0.0081 Uiso
C7_3 C 0.79010(35) 0.67907(23) 0.2377(9) 0.0081 Uiso
C8_3 C 0.83659(40) 0.68406(28) 0.3565(9) 0.0081 Uiso
H2_3 H 0.8368(6) 0.6965(5) 0.5025(19) 0.0135 Uiso
Fe5_3 Fe 0.98153(32) 0.69771(27) 0.8146(6) 0.0095 Uiso
Fe6_3 Fe 0.69771(27) 0.71617(18) 0.1854(6) 0.0095 Uiso
Fe8_3 Fe 0.68513(32) 0.63563(27) 0.5188(6) 0.0095 Uiso
O10_3 O 0.55858(49) 0.59127(40) 0.0738(10) 0.0032 Uiso
C4_3 C 0.83008(40) 0.64927(28) 0.9768(9) 0.0081 Uiso
H1_3 H 0.8299(6) 0.6368(5) 0.8308(19) 0.0135 Uiso
O4_3 O 0.69859(39) 0.66041(26) 0.9714(9) 0.0032 Uiso
O5_3 O 0.74207(40) 0.63398(28) 0.7404(10) 0.0032 Uiso
C5_3 C 0.73892(36) 0.65269(25) 0.9099(9) 0.0081 Uiso
Fe2_3 Fe 0.61716(34) 0.64820(20) 0.8521(6) 0.0095 Uiso
O8_3 O 0.67292(49) 0.70484(29) 0.6381(9) 0.0032 Uiso
O9_3 O 0.96732(49) 0.55858(28) 0.9262(10) 0.0032 Uiso
O12_3 O 0.64456(47) 0.72640(27) 0.9941(11) 0.0032 Uiso
O13_3 O 0.60693(48) 0.58483(39) 0.6608(11) 0.0032 Uiso
C3_4 C 0.01241(23) 0.55564(26) 0.4289(9) 0.0081 Uiso
C4_4 C 0.01740(28) 0.51414(28) 0.3101(9) 0.0081 Uiso
H1_4 H 0.0299(5) 0.5264(4) 0.1641(19) 0.0135 Uiso
O4_4 O 0.00625(26) 0.37151(29) 0.3048(9) 0.0032 Uiso
C5_4 C 0.01397(25) 0.41956(26) 0.2433(9) 0.0081 Uiso
C6_4 C 0.00665(28) 0.46094(27) 0.3795(8) 0.0081 Uiso
O9_4 O 0.10808(28) 0.74207(40) 0.2596(10) 0.0032 Uiso
O10_4 O 0.07540(40) 0.30065(28) 0.4071(10) 0.0032 Uiso
O11_4 O 0.05973(27) 0.74851(39) 0.6726(11) 0.0032 Uiso
O1_4 O 0.99375(26) 0.62849(29) 0.6952(9) 0.0032 Uiso
C1_4 C 0.98603(25) 0.58044(26) 0.7567(9) 0.0081 Uiso
C2_4 C 0.99335(28) 0.53906(27) 0.6205(8) 0.0081 Uiso
C7_4 C 0.98759(23) 0.44436(26) 0.5711(9) 0.0081 Uiso
C8_4 C 0.98260(28) 0.48586(28) 0.6899(9) 0.0081 Uiso
H2_4 H 0.9701(5) 0.4736(4) 0.8359(19) 0.0135 Uiso
O1_5 O 0.37151(29) 0.36525(39) 0.6952(9) 0.0032 Uiso
C1_5 C 0.41956(26) 0.40558(36) 0.7567(9) 0.0081 Uiso
C2_5 C 0.46094(27) 0.45428(39) 0.6205(8) 0.0081 Uiso
C3_5 C 0.44436(26) 0.45676(35) 0.4289(9) 0.0081 Uiso
C4_5 C 0.48586(28) 0.50325(40) 0.3101(9) 0.0081 Uiso
H1_5 H 0.4736(4) 0.5034(6) 0.1641(19) 0.0135 Uiso
O4_5 O 0.62849(29) 0.63475(39) 0.3048(9) 0.0032 Uiso
C5_5 C 0.58044(26) 0.59442(36) 0.2433(9) 0.0081 Uiso
C6_5 C 0.53906(27) 0.54572(39) 0.3795(8) 0.0081 Uiso
C7_5 C 0.55564(26) 0.54324(35) 0.5711(9) 0.0081 Uiso
C8_5 C 0.51414(28) 0.49675(40) 0.6899(9) 0.0081 Uiso
H2_5 H 0.5264(4) 0.4966(6) 0.8359(19) 0.0135 Uiso
O9_5 O 0.25793(40) 0.36602(49) 0.2596(10) 0.0032 Uiso
O10_5 O 0.69935(28) 0.77475(49) 0.4071(10) 0.0032 Uiso
O11_5 O 0.25149(39) 0.31123(47) 0.6726(11) 0.0032 Uiso
O1_6 O 0.63475(39) 0.00625(26) 0.6952(9) 0.0032 Uiso
C1_6 C 0.59442(36) 0.01397(25) 0.7567(9) 0.0081 Uiso
C2_6 C 0.54572(39) 0.00665(28) 0.6205(8) 0.0081 Uiso
C7_6 C 0.45676(35) 0.01241(23) 0.5711(9) 0.0081 Uiso
C8_6 C 0.50325(40) 0.01740(28) 0.6899(9) 0.0081 Uiso
H2_6 H 0.5034(6) 0.0299(5) 0.8359(19) 0.0135 Uiso
C3_6 C 0.54324(35) 0.98759(23) 0.4289(9) 0.0081 Uiso
C4_6 C 0.49675(40) 0.98260(28) 0.3101(9) 0.0081 Uiso
H1_6 H 0.4966(6) 0.9701(5) 0.1641(19) 0.0135 Uiso
O4_6 O 0.36525(39) 0.99375(26) 0.3048(9) 0.0032 Uiso
C5_6 C 0.40558(36) 0.98603(25) 0.2433(9) 0.0081 Uiso
C6_6 C 0.45428(39) 0.99335(28) 0.3795(8) 0.0081 Uiso
O9_6 O 0.63398(49) 0.89192(28) 0.2596(10) 0.0032 Uiso
O10_6 O 0.22525(49) 0.92460(40) 0.4071(10) 0.0032 Uiso
O11_6 O 0.68877(47) 0.94027(27) 0.6726(11) 0.0032 Uiso
C1_7 C 0.65269(25) 0.91378(26) 0.0901(9) 0.0081 Uiso
C8_7 C 0.64927(28) 0.81919(28) 0.0232(9) 0.0081 Uiso
H2_7 H 0.6368(5) 0.8069(4) 0.1692(19) 0.0135 Uiso
C2_7 C 0.66001(28) 0.87240(27) 0.9539(8) 0.0081 Uiso
C3_7 C 0.67907(23) 0.88898(26) 0.7623(9) 0.0081 Uiso
C4_7 C 0.68406(28) 0.84748(28) 0.6435(9) 0.0081 Uiso
H1_7 H 0.6965(5) 0.8598(4) 0.4975(19) 0.0135 Uiso
C5_7 C 0.68064(25) 0.75289(26) 0.5766(9) 0.0081 Uiso
C6_7 C 0.67332(28) 0.79427(27) 0.7128(8) 0.0081 Uiso
C7_7 C 0.65426(23) 0.77769(26) 0.9044(9) 0.0081 Uiso
C1_8 C 0.08622(26) 0.73892(36) 0.0901(9) 0.0081 Uiso
C8_8 C 0.18081(28) 0.83008(40) 0.0232(9) 0.0081 Uiso
H2_8 H 0.1931(4) 0.8299(6) 0.1692(19) 0.0135 Uiso
C2_8 C 0.12760(27) 0.78762(39) 0.9539(8) 0.0081 Uiso
C3_8 C 0.11102(26) 0.79010(35) 0.7623(9) 0.0081 Uiso
C4_8 C 0.15252(28) 0.83659(40) 0.6435(9) 0.0081 Uiso
H1_8 H 0.1402(4) 0.8368(6) 0.4975(19) 0.0135 Uiso
C5_8 C 0.24711(26) 0.92775(36) 0.5766(9) 0.0081 Uiso
C6_8 C 0.20573(27) 0.87905(39) 0.7128(8) 0.0081 Uiso
C7_8 C 0.22231(26) 0.87657(35) 0.9044(9) 0.0081 Uiso
C1_9 C 0.26108(36) 0.34731(25) 0.0901(9) 0.0081 Uiso
C8_9 C 0.16992(40) 0.35073(28) 0.0232(9) 0.0081 Uiso
H2_9 H 0.1701(6) 0.3632(5) 0.1692(19) 0.0135 Uiso
C2_9 C 0.21238(39) 0.33999(28) 0.9539(8) 0.0081 Uiso
C3_9 C 0.20990(35) 0.32093(23) 0.7623(9) 0.0081 Uiso
C4_9 C 0.16341(40) 0.31594(28) 0.6435(9) 0.0081 Uiso
H1_9 H 0.1632(6) 0.3035(5) 0.4975(19) 0.0135 Uiso
C5_9 C 0.07225(36) 0.31936(25) 0.5766(9) 0.0081 Uiso
C6_9 C 0.12095(39) 0.32668(28) 0.7128(8) 0.0081 Uiso
C7_9 C 0.12343(35) 0.34574(23) 0.9044(9) 0.0081 Uiso
loop_
_geom_bond_atom_site_label_1
_geom_bond_atom_site_label_2
_geom_bond_site_symmetry_1
_geom_bond_site_symmetry_2
Fe1 O1 1_555 1_555
O1 C1 1_555 1_555
O2 C1 1_555 1_555
O3 Fe1 1_555 1_555
C1 C2 1_555 1_555
C2 C3 1_555 1_555
C3 O3 1_555 1_555
O6 C7 1_555 1_555
C7 C6 1_555 1_555
C8 C2 1_555 1_555
H2 C8 1_555 1_555
Fe3 O1 1_555 1_555
Fe5 O2 1_555 1_555
Fe8 O6 1_555 1_555
O7 Fe1 1_555 1_555
O11 Fe1 1_555 1_555
C7 C8 1_555 1_555
Fe3 O11 1_555 1_555
H1 C4 1_555 1_555
O4 C5 1_555 1_555
O5 C5 1_555 1_555
Fe8 O5 1_555 1_555
Fe8 O13 1_555 1_555
O8 Fe2 1_555 1_555
O12 Fe2 1_555 1_555
O8_2 Fe2_2 1_555 1_555
O12_2 Fe2_2 1_555 1_555
Fe1_2 O1_2 1_555 1_555
O1_2 C1_2 1_555 1_555
O2_2 C1_2 1_555 1_555
O3_2 Fe1_2 1_555 1_555
C1_2 C2_2 1_555 1_555
C2_2 C3_2 1_555 1_555
C3_2 O3_2 1_555 1_555
O6_2 C7_2 1_555 1_555
C7_2 C6_2 1_555 1_555
C8_2 C2_2 1_555 1_555
H2_2 C8_2 1_555 1_555
Fe5_2 O2_2 1_555 1_555
Fe8_2 O6_2 1_555 1_555
C7_2 C8_2 1_555 1_555
H1_2 C4_2 1_555 1_555
O4_2 C5_2 1_555 1_555
O5_2 C5_2 1_555 1_555
Fe8_2 O5_2 1_555 1_555
Fe8_2 O13_2 1_555 1_555
Fe3_2 O11_2 1_555 1_555
Fe3_3 O11_3 1_555 1_555
Fe1_3 O1_3 1_555 1_555
O1_3 C1_3 1_555 1_555
O2_3 C1_3 1_555 1_555
O3_3 Fe1_3 1_555 1_555
C1_3 C2_3 1_555 1_555
C2_3 C3_3 1_555 1_555
C3_3 O3_3 1_555 1_555
O6_3 C7_3 1_555 1_555
C7_3 C6_3 1_555 1_555
C8_3 C2_3 1_555 1_555
H2_3 C8_3 1_555 1_555
Fe5_3 O2_3 1_555 1_555
Fe8_3 O6_3 1_555 1_555
O6_3 Fe6_3 1_555 1_555
C7_3 C8_3 1_555 1_555
H1_3 C4_3 1_555 1_555
O4_3 C5_3 1_555 1_555
O5_3 C5_3 1_555 1_555
Fe2_3 O4_3 1_555 1_555
Fe8_3 O5_3 1_555 1_555
O8_3 Fe2_3 1_555 1_555
O12_3 Fe2_3 1_555 1_555
O13_3 Fe2_3 1_555 1_555
Fe8_3 O8_3 1_555 1_555
Fe8_3 O13_3 1_555 1_555
C3_4 O11_3 1_555 1_555
C4_4 C3_4 1_555 1_555
H1_4 C4_4 1_555 1_555
O4_4 C5_4 1_555 1_555
O10_2 C5_4 1_555 1_555
C5_4 C6_4 1_555 1_555
C6_4 C4_4 1_555 1_555
Fe6_2 O4_4 1_555 1_555
O9_4 Fe3_3 1_555 1_555
O10_4 Fe6_2 1_555 1_555
O11_4 Fe3_3 1_555 1_555
O1_4 C1_4 1_555 1_555
O9_3 C1_4 1_555 1_555
C1_4 C2_4 1_555 1_555
O13_2 C7_4 1_555 1_555
C8_4 C2_4 1_555 1_555
H2_4 C8_4 1_555 1_555
Fe5_3 O1_4 1_555 1_555
C7_4 C8_4 1_555 1_555
Fe3 O1_5 1_555 1_555
O1_5 C1_5 1_555 1_555
O9 C1_5 1_555 1_555
C1_5 C2_5 1_555 1_555
C2_5 C3_5 1_555 1_555
C3_5 O11 1_555 1_555
C4_5 C3_5 1_555 1_555
H1_5 C4_5 1_555 1_555
O4_5 C5_5 1_555 1_555
O10_3 C5_5 1_555 1_555
O13_3 C7_5 1_555 1_555
C5_5 C6_5 1_555 1_555
C6_5 C4_5 1_555 1_555
C7_5 C6_5 1_555 1_555
C8_5 C2_5 1_555 1_555
H2_5 C8_5 1_555 1_555
Fe6_3 O4_5 1_555 1_555
Fe5 O1_5 1_555 1_555
Fe8_3 O4_5 1_555 1_555
O9_5 Fe3 1_555 1_555
O10_5 Fe6_3 1_555 1_555
O11_5 Fe3 1_555 1_555
C7_5 C8_5 1_555 1_555
Fe5 O11_5 1_555 1_555
O1_6 C1_6 1_555 1_555
O9_2 C1_6 1_555 1_555
C1_6 C2_6 1_555 1_555
O13 C7_6 1_555 1_555
C8_6 C2_6 1_555 1_555
H2_6 C8_6 1_555 1_555
Fe5_2 O1_6 1_555 1_555
C7_6 C8_6 1_555 1_555
C3_6 O11_2 1_555 1_555
C4_6 C3_6 1_555 1_555
H1_6 C4_6 1_555 1_555
O4_6 C5_6 1_555 1_555
O10 C5_6 1_555 1_555
C5_6 C6_6 1_555 1_555
C6_6 C4_6 1_555 1_555
Fe6 O4_6 1_555 1_555
O9_6 Fe3_2 1_555 1_555
O10_6 Fe6 1_555 1_555
O11_6 Fe3_2 1_555 1_555
O7_2 C1_7 1_555 1_555
O9_6 C1_7 1_555 1_555
H2_7 C8_7 1_555 1_555
C2_7 C3_7 1_555 1_555
C3_7 O11_6 1_555 1_555
C4_7 C3_7 1_555 1_555
H1_7 C4_7 1_555 1_555
O8_3 C5_7 1_555 1_555
O10_5 C5_7 1_555 1_555
O12_3 C7_7 1_555 1_555
C5_7 C6_7 1_555 1_555
C6_7 C4_7 1_555 1_555
C7_7 C6_7 1_555 1_555
O7_3 C1_8 1_555 1_555
O9_4 C1_8 1_555 1_555
H2_8 C8_8 1_555 1_555
C2_8 C3_8 1_555 1_555
C3_8 O11_4 1_555 1_555
C4_8 C3_8 1_555 1_555
H1_8 C4_8 1_555 1_555
O8 C5_8 1_555 1_555
O10_6 C5_8 1_555 1_555
O12 C7_8 1_555 1_555
C5_8 C6_8 1_555 1_555
C6_8 C4_8 1_555 1_555
C7_8 C6_8 1_555 1_555
O7 C1_9 1_555 1_555
O9_5 C1_9 1_555 1_555
H2_9 C8_9 1_555 1_555
C2_9 C3_9 1_555 1_555
C3_9 O11_5 1_555 1_555
C4_9 C3_9 1_555 1_555
H1_9 C4_9 1_555 1_555
O8_2 C5_9 1_555 1_555
O10_4 C5_9 1_555 1_555
O12_2 C7_9 1_555 1_555
C5_9 C6_9 1_555 1_555
C6_9 C4_9 1_555 1_555
C7_9 C6_9 1_555 1_555

#END
