
###############################################################################
#
# This file contains modified crystal structure data generated from the
# MOF subset of the Cambridge Structural Database (CSD) v543 
# hosted by the Cambridge Crystallographic Data Centre (CCDC).
#
# This work is licensed under the Creative Commons
# Attribution-NonCommercial-ShareAlike 4.0 International License.
# To view a copy of this license, visit
# http://creativecommons.org/licenses/by-nc-sa/4.0/
# or send a letter to
# Creative Commons, PO Box 1866, Mountain View, CA 94042, USA.
#
# CIF created using the CSD Python API on 29 September 2022
# The structure has been converted into the P1 space group
# The structure has a 3D framework
# The original CSD entry WOPWOP01 is in the triclinic crystal system
# The framework has been calculated to contain at least 10.0% void space
# The void calculation uses a probe of radius 1.32A, grid spacing 0.4
#
###############################################################################

data_WOPWOP01
_chemical_formula_moiety         '(C48 H36 Co4 N8 O18)n'
_symmetry_cell_setting           triclinic
_symmetry_space_group_name_H-M   'P 1'
_symmetry_Int_Tables_number      1
_space_group_name_Hall           'P 1'
loop_
_symmetry_equiv_pos_site_id
_symmetry_equiv_pos_as_xyz
1 x,y,z
_cell_length_a                   10.5474(10)
_cell_length_b                   11.8293(11)
_cell_length_c                   14.1028(13)
_cell_angle_alpha                106.955(2)
_cell_angle_beta                 102.362(2)
_cell_angle_gamma                110.979(2)
_cell_volume                     1468.21
loop_
_atom_site_label
_atom_site_type_symbol
_atom_site_fract_x
_atom_site_fract_y
_atom_site_fract_z
N6 N 0.0354(2) 0.06995(19) 0.84195(15)
Co4 Co 0.19345(3) 0.99134(3) 0.21284(2)
Co1 Co 0.80655(3) 0.00866(3) 0.78716(2)
C19 C 0.9224(3) 0.2885(3) 0.7955(2)
H13 H 0.9783 0.3092 0.8644
C20 C 0.9355(3) 0.3895(3) 0.7623(2)
H14 H 0.9994 0.4767 0.8085
C21 C 0.8536(3) 0.3608(3) 0.6604(2)
H15 H 0.8607 0.4281 0.6372
C22 C 0.7605(3) 0.2296(2) 0.59304(19)
C23 C 0.7545(3) 0.1344(2) 0.63226(19)
H16 H 0.6931 0.0463 0.5871
C24 C 0.6654(3) 0.1903(3) 0.4814(2)
N3 N 0.8320(2) 0.1617(2) 0.73172(15)
O7 O 0.66486(19) 0.28383(17) 0.45528(13)
O8 O 0.5953(2) 0.06947(19) 0.42315(15)
Co6 Co 0.54809(3) 0.26870(3) 0.30977(2)
O10 O 0.83692(18) 0.13503(17) 0.93959(13)
C7 C 0.8835(3) 0.9303(3) 0.2188(2)
H5 H 0.9278 0.9574 0.2914
C8 C 0.7364(3) 0.8920(3) 0.1782(2)
H6 H 0.6834 0.8946 0.2230
C9 C 0.6686(3) 0.8499(3) 0.0705(2)
H7 H 0.5690 0.8208 0.0415
C10 C 0.7515(2) 0.8515(2) 0.00608(18)
C11 C 0.8983(3) 0.8927(2) 0.05441(18)
H8 H 0.9547 0.8944 0.0119
C18 C 0.2581(3) 0.8660(2) 0.02004(19)
N2 N 0.9646(2) 0.93005(19) 0.15805(15)
O5 O 0.16308(18) 0.86497(17) 0.06041(13)
O6 O 0.3912(2) 0.9133(2) 0.07046(14)
Co2 Co 0.45191(3) 0.73130(3) 0.69023(2)
C1 C 0.7288(4) 0.5425(3) 0.3130(2)
H1 H 0.7307 0.4924 0.2493
C2 C 0.7927(5) 0.6765(3) 0.3476(3)
H2 H 0.8390 0.7166 0.3088
C3 C 0.7883(4) 0.7530(3) 0.4412(3)
H3 H 0.8316 0.8448 0.4661
C4 C 0.7188(3) 0.6905(2) 0.49623(19)
C5 C 0.6601(2) 0.5544(2) 0.45662(18)
H4 H 0.6153 0.5120 0.4950
C6 C 0.6989(3) 0.7659(2) 0.59429(18)
C12 C 0.6943(3) 0.8185(2) 0.88921(18)
C13 C 0.1464(3) 0.7125(3) 0.68698(19)
H9 H 0.1229 0.6775 0.6138
C14 C 0.0390(3) 0.7198(3) 0.7259(2)
C15 C 0.0701(3) 0.7668(3) 0.8342(2)
C16 C 0.2102(2) 0.8093(2) 0.90076(18)
C17 C 0.3116(3) 0.8017(2) 0.85442(18)
H12 H 0.4063 0.8323 0.8992
N1 N 0.6635(2) 0.4797(2) 0.36662(15)
N4 N 0.2832(2) 0.75349(19) 0.74967(15)
O1 O 0.78289(18) 0.88779(16) 0.64072(12)
O2 O 0.60053(18) 0.69954(16) 0.62010(13)
O3 O 0.55904(17) 0.74902(16) 0.83967(12)
O4 O 0.78640(17) 0.86603(17) 0.85049(13)
O9 O 0.57466(19) 0.94122(17) 0.74254(14)
H17 H 0.573(3) 0.994(2) 0.7975(16)
H18 H 0.535(4) 0.955(4) 0.691(2)
N5 N 0.3365(2) 0.5203(2) 0.63338(15)
O11 O 0.33514(19) 0.71617(17) 0.54472(13)
C1_2 C 0.2712(4) 0.4575(3) 0.6870(2)
H1_2 H 0.2693 0.5076 0.7507
C2_2 C 0.2073(5) 0.3235(3) 0.6524(3)
H2_2 H 0.1610 0.2834 0.6912
C3_2 C 0.2117(4) 0.2470(3) 0.5588(3)
H3_2 H 0.1684 0.1552 0.5339
C4_2 C 0.2812(3) 0.3095(2) 0.50377(19)
C5_2 C 0.3399(2) 0.4456(2) 0.54338(18)
H4_2 H 0.3847 0.4880 0.5050
C6_2 C 0.3011(3) 0.2341(2) 0.40571(18)
C12_2 C 0.3057(3) 0.1815(2) 0.11079(18)
C13_2 C 0.8536(3) 0.2875(3) 0.31302(19)
H9_2 H 0.8771 0.3225 0.3862
C14_2 C 0.9610(3) 0.2802(3) 0.2741(2)
C15_2 C 0.9299(3) 0.2332(3) 0.1658(2)
C16_2 C 0.7898(2) 0.1907(2) 0.09924(18)
C17_2 C 0.6884(3) 0.1983(2) 0.14558(18)
H12_2 H 0.5937 0.1677 0.1008
N4_2 N 0.7168(2) 0.24651(19) 0.25033(15)
O1_2 O 0.21711(18) 0.11221(16) 0.35928(12)
O2_2 O 0.39947(18) 0.30046(16) 0.37990(13)
O3_2 O 0.44096(17) 0.25098(16) 0.16033(12)
O4_2 O 0.21360(17) 0.13397(17) 0.14951(13)
O9_2 O 0.42534(19) 0.05878(17) 0.25746(14)
H17_2 H 0.427(3) 0.006(2) 0.2025(16)
H18_2 H 0.465(4) 0.045(4) 0.309(2)
C7_2 C 0.1165(3) 0.0697(3) 0.7812(2)
H5_2 H 0.0722 0.0426 0.7086
C8_2 C 0.2636(3) 0.1080(3) 0.8218(2)
H6_2 H 0.3166 0.1054 0.7770
C9_2 C 0.3314(3) 0.1501(3) 0.9295(2)
H7_2 H 0.4310 0.1792 0.9585
C10_2 C 0.2485(2) 0.1485(2) 0.99392(18)
C11_2 C 0.1017(3) 0.1073(2) 0.94559(18)
H8_2 H 0.0453 0.1056 0.9881
C18_2 C 0.7419(3) 0.1340(2) 0.97996(19)
O6_2 O 0.6088(2) 0.0867(2) 0.92954(14)
C19_2 C 0.0776(3) 0.7115(3) 0.2045(2)
H13_2 H 0.0217 0.6908 0.1356
C20_2 C 0.0645(3) 0.6105(3) 0.2377(2)
H14_2 H 0.0006 0.5233 0.1915
C21_2 C 0.1464(3) 0.6392(3) 0.3396(2)
H15_2 H 0.1393 0.5719 0.3628
C22_2 C 0.2395(3) 0.7704(2) 0.40696(19)
C23_2 C 0.2455(3) 0.8656(2) 0.36774(19)
H16_2 H 0.3069 0.9537 0.4129
C24_2 C 0.3346(3) 0.8097(3) 0.5186(2)
N3_2 N 0.1680(2) 0.8383(2) 0.26828(15)
O8_2 O 0.4047(2) 0.93053(19) 0.57685(15)
H10 H 0.9465 0.6933 0.6797
H11 H 0.9983 0.7699 0.8618
H10_2 H 0.0535 0.3067 0.3203
H11_2 H 0.0017 0.2301 0.1382
loop_
_geom_bond_atom_site_label_1
_geom_bond_atom_site_label_2
_geom_bond_site_symmetry_1
_geom_bond_site_symmetry_2
Co1 N3 1_555 1_555
C19 H13 1_555 1_555
C20 C19 1_555 1_555
H14 C20 1_555 1_555
C21 C20 1_555 1_555
H15 C21 1_555 1_555
C22 C21 1_555 1_555
C23 C22 1_555 1_555
H16 C23 1_555 1_555
C24 C22 1_555 1_555
N3 C19 1_555 1_555
O7 C24 1_555 1_555
O8 C24 1_555 1_555
Co6 O7 1_555 1_555
O10 Co1 1_555 1_555
C23 N3 1_555 1_555
C7 H5 1_555 1_555
C8 C7 1_555 1_555
H6 C8 1_555 1_555
C9 C8 1_555 1_555
H7 C9 1_555 1_555
C10 C9 1_555 1_555
C11 C10 1_555 1_555
H8 C11 1_555 1_555
N2 C7 1_555 1_555
O5 C18 1_555 1_555
O6 C18 1_555 1_555
Co4 O5 1_555 1_555
C11 N2 1_555 1_555
Co2 N4 1_555 1_555
C1 H1 1_555 1_555
C2 C1 1_555 1_555
H2 C2 1_555 1_555
C3 C2 1_555 1_555
H3 C3 1_555 1_555
C4 C3 1_555 1_555
C5 C4 1_555 1_555
H4 C5 1_555 1_555
C6 C4 1_555 1_555
C13 H9 1_555 1_555
C14 C13 1_555 1_555
C15 C14 1_555 1_555
C16 C15 1_555 1_555
C17 C16 1_555 1_555
H12 C17 1_555 1_555
N1 C1 1_555 1_555
N4 C13 1_555 1_555
O2 Co2 1_555 1_555
O3 Co2 1_555 1_555
H17 O9 1_555 1_555
H18 O9 1_555 1_555
Co6 N1 1_555 1_555
N5 Co2 1_555 1_555
O11 Co2 1_555 1_555
Co2 O9 1_555 1_555
C5 N1 1_555 1_555
C6 O1 1_555 1_555
C6 O2 1_555 1_555
C12 O3 1_555 1_555
C12 O4 1_555 1_555
C17 N4 1_555 1_555
Co6 N4_2 1_555 1_555
C1_2 H1_2 1_555 1_555
C2_2 C1_2 1_555 1_555
H2_2 C2_2 1_555 1_555
C3_2 C2_2 1_555 1_555
H3_2 C3_2 1_555 1_555
C4_2 C3_2 1_555 1_555
C5_2 C4_2 1_555 1_555
H4_2 C5_2 1_555 1_555
C6_2 C4_2 1_555 1_555
C13_2 H9_2 1_555 1_555
C14_2 C13_2 1_555 1_555
C15_2 C14_2 1_555 1_555
C16_2 C15_2 1_555 1_555
C17_2 C16_2 1_555 1_555
H12_2 C17_2 1_555 1_555
N5 C1_2 1_555 1_555
N4_2 C13_2 1_555 1_555
O2_2 Co6 1_555 1_555
O3_2 Co6 1_555 1_555
H17_2 O9_2 1_555 1_555
H18_2 O9_2 1_555 1_555
Co6 O9_2 1_555 1_555
C5_2 N5 1_555 1_555
C6_2 O1_2 1_555 1_555
C6_2 O2_2 1_555 1_555
C12_2 O3_2 1_555 1_555
C12_2 O4_2 1_555 1_555
C17_2 N4_2 1_555 1_555
C7_2 H5_2 1_555 1_555
C8_2 C7_2 1_555 1_555
H6_2 C8_2 1_555 1_555
C9_2 C8_2 1_555 1_555
H7_2 C9_2 1_555 1_555
C10_2 C9_2 1_555 1_555
C11_2 C10_2 1_555 1_555
H8_2 C11_2 1_555 1_555
N6 C7_2 1_555 1_555
O10 C18_2 1_555 1_555
O6_2 C18_2 1_555 1_555
C11_2 N6 1_555 1_555
Co4 N3_2 1_555 1_555
C19_2 H13_2 1_555 1_555
C20_2 C19_2 1_555 1_555
H14_2 C20_2 1_555 1_555
C21_2 C20_2 1_555 1_555
H15_2 C21_2 1_555 1_555
C22_2 C21_2 1_555 1_555
C23_2 C22_2 1_555 1_555
H16_2 C23_2 1_555 1_555
C24_2 C22_2 1_555 1_555
N3_2 C19_2 1_555 1_555
O11 C24_2 1_555 1_555
O8_2 C24_2 1_555 1_555
C23_2 N3_2 1_555 1_555

#END
