
###############################################################################
#
# This file contains modified crystal structure data generated from the
# MOF subset of the Cambridge Structural Database (CSD) v543 
# hosted by the Cambridge Crystallographic Data Centre (CCDC).
#
# This work is licensed under the Creative Commons
# Attribution-NonCommercial-ShareAlike 4.0 International License.
# To view a copy of this license, visit
# http://creativecommons.org/licenses/by-nc-sa/4.0/
# or send a letter to
# Creative Commons, PO Box 1866, Mountain View, CA 94042, USA.
#
# CIF created using the CSD Python API on 29 September 2022
# The structure has been converted into the P1 space group
# The structure has a 3D framework
# The original CSD entry WOQVAB is in the rhombohedral crystal system
# The framework has been calculated to contain at least 10.0% void space
# The void calculation uses a probe of radius 1.32A, grid spacing 0.4
# H atom positions have been added when not included in the experimental data
#
###############################################################################

data_WOQVAB
_chemical_formula_moiety         '(C72 H18 Fe8 O48)n'
_symmetry_cell_setting           triclinic
_symmetry_space_group_name_H-M   'P 1'
_symmetry_Int_Tables_number      1
_space_group_name_Hall           'P 1'
loop_
_symmetry_equiv_pos_site_id
_symmetry_equiv_pos_as_xyz
1 x,y,z
_cell_length_a                   26.067(2)
_cell_length_b                   26.067(2)
_cell_length_c                   6.8721(7)
_cell_angle_alpha                90
_cell_angle_beta                 90
_cell_angle_gamma                120
_cell_volume                     4043.92
loop_
_atom_site_label
_atom_site_type_symbol
_atom_site_fract_x
_atom_site_fract_y
_atom_site_fract_z
_atom_site_U_iso_or_equiv
_atom_site_thermal_displace_type
C1 C 0.4238(4) 0.4098(3) 0.2586(9) 0.0840 Uiso
C2 C 0.4601(2) 0.4567(3) 0.1318(5) 0.0840 Uiso
C3 C 0.55708(17) 0.5450(2) 0.0647(6) 0.0840 Uiso
C4 C 0.5186(4) 0.5013(4) 0.1949(6) 0.0840 Uiso
Fe1 Fe 0.6156(2) 0.6441(2) 0.3606(7) 0.0557 Uiso
O1 O 0.4445(5) 0.4050(5) 0.4199(14) 0.0750 Uiso
O2 O 0.3754(4) 0.3674(4) 0.1970(16) 0.0750 Uiso
O3 O 0.6133(2) 0.5877(5) 0.1246(13) 0.0750 Uiso
Fe4 Fe 0.6892(2) 0.6382(3) 0.0273(7) 0.0557 Uiso
Fe6 Fe 0.3844(2) 0.3559(2) 0.6394(7) 0.0557 Uiso
Fe8 Fe 0.3048(3) 0.2823(2) 0.3061(7) 0.0557 Uiso
O8 O 0.5555(5) 0.5950(5) 0.5801(14) 0.0750 Uiso
O11 O 0.6747(6) 0.7087(4) 0.1363(16) 0.0750 Uiso
O12 O 0.7007(4) 0.6587(6) 0.4697(16) 0.0750 Uiso
O13 O 0.6411(5) 0.7200(2) 0.4579(13) 0.0750 Uiso
H1 H 0.532734 0.500901 0.343741 . .
C5 C 0.5762(4) 0.5902(3) 0.7414(9) 0.0840 Uiso
C6 C 0.5399(2) 0.5433(3) 0.8682(5) 0.0840 Uiso
C7 C 0.44292(17) 0.4550(2) 0.9353(6) 0.0840 Uiso
C8 C 0.4814(4) 0.4987(4) 0.8051(6) 0.0840 Uiso
O5 O 0.6246(4) 0.6326(4) 0.8030(16) 0.0750 Uiso
O6 O 0.3867(2) 0.4123(5) 0.8754(13) 0.0750 Uiso
Fe5 Fe 0.6952(3) 0.7177(2) 0.6939(7) 0.0557 Uiso
Fe7 Fe 0.3108(2) 0.3618(3) 0.9727(7) 0.0557 Uiso
O9 O 0.3253(6) 0.2913(4) 0.8637(16) 0.0750 Uiso
O10 O 0.2993(4) 0.3413(6) 0.5303(16) 0.0750 Uiso
O14 O 0.3589(5) 0.2800(2) 0.5421(13) 0.0750 Uiso
H2 H 0.467266 0.499099 0.656259 . .
O12_2 O 0.0341(4) 0.3253(6) 0.1363(16) 0.0750 Uiso
Fe4_2 Fe 0.0226(2) 0.3048(3) 0.6939(7) 0.0557 Uiso
Fe5_2 Fe 0.0285(3) 0.3844(2) 0.3606(7) 0.0557 Uiso
O11_2 O 0.0080(6) 0.3754(4) 0.8030(16) 0.0750 Uiso
Fe1_2 Fe 0.9489(2) 0.3108(2) 0.0273(7) 0.0557 Uiso
O1_2 O 0.7778(5) 0.0717(5) 0.0866(14) 0.0750 Uiso
Fe6_2 Fe 0.7177(2) 0.0226(2) 0.3061(7) 0.0557 Uiso
O8_2 O 0.8888(5) 0.2617(5) 0.2468(14) 0.0750 Uiso
O13_2 O 0.9744(5) 0.3867(2) 0.1246(13) 0.0750 Uiso
H1_2 H 0.866068 0.167567 0.0104081 . .
C1_2 C 0.7571(4) 0.0765(3) 0.9253(9) 0.0840 Uiso
C2_2 C 0.7934(2) 0.1234(3) 0.7985(5) 0.0840 Uiso
C3_2 C 0.89041(17) 0.2117(2) 0.7314(6) 0.0840 Uiso
C4_2 C 0.8519(4) 0.1680(4) 0.8616(6) 0.0840 Uiso
O2_2 O 0.7087(4) 0.0341(4) 0.8637(16) 0.0750 Uiso
O3_2 O 0.9466(2) 0.2544(5) 0.7913(13) 0.0750 Uiso
C5_2 C 0.9095(4) 0.2569(3) 0.4081(9) 0.0840 Uiso
C6_2 C 0.8732(2) 0.2100(3) 0.5349(5) 0.0840 Uiso
C7_2 C 0.77625(17) 0.1217(2) 0.6020(6) 0.0840 Uiso
C8_2 C 0.8147(4) 0.1654(4) 0.4718(6) 0.0840 Uiso
O5_2 O 0.9579(4) 0.2993(4) 0.4697(16) 0.0750 Uiso
O6_2 O 0.7200(2) 0.0790(5) 0.5421(13) 0.0750 Uiso
Fe7_2 Fe 0.6441(2) 0.0285(3) 0.6394(7) 0.0557 Uiso
O10_2 O 0.6326(4) 0.0080(6) 0.1970(16) 0.0750 Uiso
H2_2 H 0.800599 0.165766 0.322925 . .
Fe8_2 Fe 0.6382(3) 0.9489(2) 0.9727(7) 0.0557 Uiso
O9_2 O 0.6587(6) 0.9579(4) 0.5303(16) 0.0750 Uiso
O14_2 O 0.6923(5) 0.9466(2) 0.2087(13) 0.0750 Uiso
Fe5_3 Fe 0.3618(3) 0.0511(2) 0.0273(7) 0.0557 Uiso
O11_3 O 0.3413(6) 0.0421(4) 0.4697(16) 0.0750 Uiso
O13_3 O 0.3077(5) 0.0534(2) 0.7913(13) 0.0750 Uiso
C1_3 C 0.0905(4) 0.7431(3) 0.5919(9) 0.0840 Uiso
C2_3 C 0.1268(2) 0.7900(3) 0.4651(5) 0.0840 Uiso
C3_3 C 0.22375(17) 0.8783(2) 0.3980(6) 0.0840 Uiso
C4_3 C 0.1853(4) 0.8346(4) 0.5282(6) 0.0840 Uiso
Fe1_3 Fe 0.2823(2) 0.9774(2) 0.6939(7) 0.0557 Uiso
O1_3 O 0.1112(5) 0.7383(5) 0.7532(14) 0.0750 Uiso
O2_3 O 0.0421(4) 0.7007(4) 0.5303(16) 0.0750 Uiso
O3_3 O 0.2800(2) 0.9210(5) 0.4579(13) 0.0750 Uiso
C5_3 C 0.2429(4) 0.9235(3) 0.0747(9) 0.0840 Uiso
C6_3 C 0.2066(2) 0.8766(3) 0.2015(5) 0.0840 Uiso
C7_3 C 0.10959(17) 0.7883(2) 0.2686(6) 0.0840 Uiso
C8_3 C 0.1481(4) 0.8320(4) 0.1384(6) 0.0840 Uiso
O5_3 O 0.2913(4) 0.9659(4) 0.1363(16) 0.0750 Uiso
O6_3 O 0.0534(2) 0.7456(5) 0.2087(13) 0.0750 Uiso
Fe4_3 Fe 0.3559(2) 0.9715(3) 0.3606(7) 0.0557 Uiso
Fe6_3 Fe 0.0511(2) 0.6892(2) 0.9727(7) 0.0557 Uiso
O8_3 O 0.2222(5) 0.9283(5) 0.9134(14) 0.0750 Uiso
O12_3 O 0.3674(4) 0.9920(6) 0.8030(16) 0.0750 Uiso
H1_3 H 0.199401 0.834234 0.677075 . .
O14_3 O 0.0256(5) 0.6133(2) 0.8754(13) 0.0750 Uiso
H2_3 H 0.133932 0.832433 0.989592 . .
Fe7_3 Fe 0.9774(2) 0.6952(3) 0.3061(7) 0.0557 Uiso
Fe8_3 Fe 0.9715(3) 0.6156(2) 0.6394(7) 0.0557 Uiso
O9_3 O 0.9920(6) 0.6246(4) 0.1970(16) 0.0750 Uiso
O10_3 O 0.9659(4) 0.6747(6) 0.8637(16) 0.0750 Uiso
C1_4 C 0.5902(3) 0.0140(5) 0.2586(9) 0.0840 Uiso
C2_4 C 0.5433(3) 0.0034(4) 0.1318(5) 0.0840 Uiso
C3_4 C 0.4550(2) 0.01208(26) 0.0647(6) 0.0840 Uiso
C4_4 C 0.4987(4) 0.0173(6) 0.1949(6) 0.0840 Uiso
O1_4 O 0.5950(5) 0.0395(7) 0.4199(14) 0.0750 Uiso
O3_4 O 0.4123(5) 0.0256(5) 0.1246(13) 0.0750 Uiso
H1_4 H 0.499099 0.0318337 0.343741 . .
O8_4 O 0.4050(5) 0.9605(7) 0.5801(14) 0.0750 Uiso
C5_4 C 0.4098(3) 0.9860(5) 0.7414(9) 0.0840 Uiso
C6_4 C 0.4567(3) 0.9966(4) 0.8682(5) 0.0840 Uiso
C7_4 C 0.5450(2) 0.98792(26) 0.9353(6) 0.0840 Uiso
C8_4 C 0.5013(4) 0.9827(6) 0.8051(6) 0.0840 Uiso
O6_4 O 0.5877(5) 0.9744(5) 0.8754(13) 0.0750 Uiso
H2_4 H 0.500901 0.968166 0.656259 . .
O8_5 O 0.0395(7) 0.4445(5) 0.5801(14) 0.0750 Uiso
O13_4 O 0.0790(5) 0.3589(5) 0.4579(13) 0.0750 Uiso
C5_5 C 0.0140(5) 0.4238(4) 0.7414(9) 0.0840 Uiso
C6_5 C 0.0034(4) 0.4601(2) 0.8682(5) 0.0840 Uiso
C7_5 C 0.01208(26) 0.55708(17) 0.9353(6) 0.0840 Uiso
C8_5 C 0.0173(6) 0.5186(4) 0.8051(6) 0.0840 Uiso
H2_5 H 0.0318337 0.532734 0.656259 . .
C1_5 C 0.9860(5) 0.5762(4) 0.2586(9) 0.0840 Uiso
C2_5 C 0.9966(4) 0.5399(2) 0.1318(5) 0.0840 Uiso
C3_5 C 0.98792(26) 0.44292(17) 0.0647(6) 0.0840 Uiso
C4_5 C 0.9827(6) 0.4814(4) 0.1949(6) 0.0840 Uiso
O1_5 O 0.9605(7) 0.5555(5) 0.4199(14) 0.0750 Uiso
H1_5 H 0.968166 0.467266 0.343741 . .
O14_4 O 0.9210(5) 0.6411(5) 0.5421(13) 0.0750 Uiso
O1_6 O 0.9283(5) 0.7062(7) 0.0866(14) 0.0750 Uiso
O8_6 O 0.7383(5) 0.6272(7) 0.2468(14) 0.0750 Uiso
H1_6 H 0.832433 0.6985 0.0104081 . .
C1_6 C 0.9235(3) 0.6807(5) 0.9253(9) 0.0840 Uiso
C2_6 C 0.8766(3) 0.6701(4) 0.7985(5) 0.0840 Uiso
C3_6 C 0.7883(2) 0.67875(26) 0.7314(6) 0.0840 Uiso
C4_6 C 0.8320(4) 0.6840(6) 0.8616(6) 0.0840 Uiso
O3_5 O 0.7456(5) 0.6923(5) 0.7913(13) 0.0750 Uiso
C5_6 C 0.7431(3) 0.6527(5) 0.4081(9) 0.0840 Uiso
C6_6 C 0.7900(3) 0.6633(4) 0.5349(5) 0.0840 Uiso
C7_6 C 0.8783(2) 0.65459(26) 0.6020(6) 0.0840 Uiso
C8_6 C 0.8346(4) 0.6494(6) 0.4718(6) 0.0840 Uiso
H2_6 H 0.834234 0.634833 0.322925 . .
O1_7 O 0.2938(7) 0.2222(5) 0.0866(14) 0.0750 Uiso
O8_7 O 0.3728(7) 0.1112(5) 0.2468(14) 0.0750 Uiso
H1_7 H 0.3015 0.133932 0.0104081 . .
C1_7 C 0.3193(5) 0.2429(4) 0.9253(9) 0.0840 Uiso
C2_7 C 0.3299(4) 0.2066(2) 0.7985(5) 0.0840 Uiso
C3_7 C 0.32125(26) 0.10959(17) 0.7314(6) 0.0840 Uiso
C4_7 C 0.3160(6) 0.1481(4) 0.8616(6) 0.0840 Uiso
C5_7 C 0.3473(5) 0.0905(4) 0.4081(9) 0.0840 Uiso
C6_7 C 0.3367(4) 0.1268(2) 0.5349(5) 0.0840 Uiso
C7_7 C 0.34541(26) 0.22375(17) 0.6020(6) 0.0840 Uiso
C8_7 C 0.3506(6) 0.1853(4) 0.4718(6) 0.0840 Uiso
O14_5 O 0.2544(5) 0.3077(5) 0.2087(13) 0.0750 Uiso
H2_7 H 0.365167 0.199401 0.322925 . .
C1_8 C 0.2569(3) 0.3473(5) 0.5919(9) 0.0840 Uiso
C2_8 C 0.2100(3) 0.3367(4) 0.4651(5) 0.0840 Uiso
C3_8 C 0.1217(2) 0.34541(26) 0.3980(6) 0.0840 Uiso
C4_8 C 0.1654(4) 0.3506(6) 0.5282(6) 0.0840 Uiso
O1_8 O 0.2617(5) 0.3728(7) 0.7532(14) 0.0750 Uiso
C5_8 C 0.0765(3) 0.3193(5) 0.0747(9) 0.0840 Uiso
C6_8 C 0.1234(3) 0.3299(4) 0.2015(5) 0.0840 Uiso
C7_8 C 0.2117(2) 0.32125(26) 0.2686(6) 0.0840 Uiso
C8_8 C 0.1680(4) 0.3160(6) 0.1384(6) 0.0840 Uiso
O8_8 O 0.0717(5) 0.2938(7) 0.9134(14) 0.0750 Uiso
H1_8 H 0.165766 0.365167 0.677075 . .
H2_8 H 0.167567 0.3015 0.989592 . .
C1_9 C 0.6527(5) 0.9095(4) 0.5919(9) 0.0840 Uiso
C2_9 C 0.6633(4) 0.8732(2) 0.4651(5) 0.0840 Uiso
C3_9 C 0.65459(26) 0.77625(17) 0.3980(6) 0.0840 Uiso
C4_9 C 0.6494(6) 0.8147(4) 0.5282(6) 0.0840 Uiso
O1_9 O 0.6272(7) 0.8888(5) 0.7532(14) 0.0750 Uiso
C5_9 C 0.6807(5) 0.7571(4) 0.0747(9) 0.0840 Uiso
C6_9 C 0.6701(4) 0.7934(2) 0.2015(5) 0.0840 Uiso
C7_9 C 0.67875(26) 0.89041(17) 0.2686(6) 0.0840 Uiso
C8_9 C 0.6840(6) 0.8519(4) 0.1384(6) 0.0840 Uiso
O8_9 O 0.7062(7) 0.7778(5) 0.9134(14) 0.0750 Uiso
H1_9 H 0.634833 0.800599 0.677075 . .
H2_9 H 0.6985 0.866068 0.989592 . .
loop_
_geom_bond_atom_site_label_1
_geom_bond_atom_site_label_2
_geom_bond_site_symmetry_1
_geom_bond_site_symmetry_2
C1 C2 1_555 1_555
C2 C4 1_555 1_555
C3 C4 1_555 1_555
Fe1 O3 1_555 1_555
O1 C1 1_555 1_555
O2 C1 1_555 1_555
O3 C3 1_555 1_555
Fe4 O3 1_555 1_555
Fe6 O1 1_555 1_555
Fe8 O2 1_555 1_555
O8 Fe1 1_555 1_555
O11 Fe1 1_555 1_555
O12 Fe1 1_555 1_555
O13 Fe1 1_555 1_555
Fe4 O11 1_555 1_555
C4 H1 1_555 1_555
C5 C6 1_555 1_555
C8 C6 1_555 1_555
O8 C5 1_555 1_555
O5 C5 1_555 1_555
O6 C7 1_555 1_555
Fe6 O6 1_555 1_555
Fe5 O5 1_555 1_555
O9 Fe6 1_555 1_555
O10 Fe6 1_555 1_555
O14 Fe6 1_555 1_555
C7 C8 1_555 1_555
O6 Fe7 1_555 1_555
Fe7 O9 1_555 1_555
C8 H2 1_555 1_555
Fe4_2 O11_2 1_555 1_555
Fe6_2 O1_2 1_555 1_555
O8_2 Fe1_2 1_555 1_555
O13_2 Fe1_2 1_555 1_555
C1_2 C2_2 1_555 1_555
C2_2 C4_2 1_555 1_555
C3_2 C4_2 1_555 1_555
O2_2 C1_2 1_555 1_555
O3_2 C3_2 1_555 1_555
C5_2 C6_2 1_555 1_555
C6_2 C3_2 1_555 1_555
C7_2 C2_2 1_555 1_555
C8_2 C6_2 1_555 1_555
O8_2 C5_2 1_555 1_555
O5_2 C5_2 1_555 1_555
O6_2 C7_2 1_555 1_555
Fe6_2 O6_2 1_555 1_555
Fe7_2 O2_2 1_555 1_555
O10_2 Fe6_2 1_555 1_555
C7_2 C8_2 1_555 1_555
O6_2 Fe7_2 1_555 1_555
C8_2 H2_2 1_555 1_555
C1_3 C2_3 1_555 1_555
C2_3 C4_3 1_555 1_555
C3_3 C4_3 1_555 1_555
Fe1_3 O3_3 1_555 1_555
O1_3 C1_3 1_555 1_555
O2_3 C1_3 1_555 1_555
O3_3 C3_3 1_555 1_555
C5_3 C6_3 1_555 1_555
C6_3 C3_3 1_555 1_555
C7_3 C2_3 1_555 1_555
C8_3 C6_3 1_555 1_555
O5_3 C5_3 1_555 1_555
O6_3 C7_3 1_555 1_555
Fe4_3 O3_3 1_555 1_555
Fe6_3 O1_3 1_555 1_555
O8_3 Fe1_3 1_555 1_555
O12_3 Fe1_3 1_555 1_555
C7_3 C8_3 1_555 1_555
O5_3 Fe4_3 1_555 1_555
C4_3 H1_3 1_555 1_555
O14_3 Fe6_3 1_555 1_555
Fe7_3 O9_3 1_555 1_555
C1_4 C2_4 1_555 1_555
C2_4 C4_4 1_555 1_555
C3_4 C4_4 1_555 1_555
O1_4 C1_4 1_555 1_555
O10_2 C1_4 1_555 1_555
O3_4 C3_4 1_555 1_555
Fe5_3 O3_4 1_555 1_555
Fe7_2 O1_4 1_555 1_555
C4_4 H1_4 1_555 1_555
O8_4 Fe4_3 1_555 1_555
C5_4 C6_4 1_555 1_555
C8_4 C6_4 1_555 1_555
O8_4 C5_4 1_555 1_555
O12_3 C5_4 1_555 1_555
O6_4 C7_4 1_555 1_555
C7_4 C8_4 1_555 1_555
O6_4 Fe8_2 1_555 1_555
C8_4 H2_4 1_555 1_555
O8_5 Fe5_2 1_555 1_555
O12_2 Fe5_2 1_555 1_555
O13_4 Fe5_2 1_555 1_555
C5_5 C6_5 1_555 1_555
C8_5 C6_5 1_555 1_555
O8_5 C5_5 1_555 1_555
O11_2 C5_5 1_555 1_555
O14_3 C7_5 1_555 1_555
C7_5 C8_5 1_555 1_555
C8_5 H2_5 1_555 1_555
C1_5 C2_5 1_555 1_555
C2_5 C4_5 1_555 1_555
C3_5 C4_5 1_555 1_555
O1_5 C1_5 1_555 1_555
O9_3 C1_5 1_555 1_555
O13_2 C3_5 1_555 1_555
Fe8_3 O1_5 1_555 1_555
C4_5 H1_5 1_555 1_555
O10_3 Fe8_3 1_555 1_555
O14_4 Fe8_3 1_555 1_555
Fe7_3 O1_6 1_555 1_555
O8_6 Fe4 1_555 1_555
C1_6 C2_6 1_555 1_555
C2_6 C4_6 1_555 1_555
C3_6 C4_6 1_555 1_555
O10_3 C1_6 1_555 1_555
O3_5 C3_6 1_555 1_555
C5_6 C6_6 1_555 1_555
C6_6 C3_6 1_555 1_555
C7_6 C2_6 1_555 1_555
C8_6 C6_6 1_555 1_555
O8_6 C5_6 1_555 1_555
O12 C5_6 1_555 1_555
O14_4 C7_6 1_555 1_555
Fe7_3 O14_4 1_555 1_555
Fe5 O3_5 1_555 1_555
C7_6 C8_6 1_555 1_555
O12 Fe5 1_555 1_555
C8_6 H2_6 1_555 1_555
Fe8 O1_7 1_555 1_555
O8_7 Fe5_3 1_555 1_555
C1_7 C2_7 1_555 1_555
C2_7 C4_7 1_555 1_555
C3_7 C4_7 1_555 1_555
O9 C1_7 1_555 1_555
O13_3 C3_7 1_555 1_555
C5_7 C6_7 1_555 1_555
C6_7 C3_7 1_555 1_555
C7_7 C2_7 1_555 1_555
C8_7 C6_7 1_555 1_555
O8_7 C5_7 1_555 1_555
O11_3 C5_7 1_555 1_555
O14 C7_7 1_555 1_555
Fe8 O14 1_555 1_555
O10 Fe8 1_555 1_555
O14_5 Fe8 1_555 1_555
C7_7 C8_7 1_555 1_555
C8_7 H2_7 1_555 1_555
C1_8 C2_8 1_555 1_555
C2_8 C4_8 1_555 1_555
C3_8 C4_8 1_555 1_555
Fe4_2 O13_4 1_555 1_555
O1_8 C1_8 1_555 1_555
O10 C1_8 1_555 1_555
O13_4 C3_8 1_555 1_555
C5_8 C6_8 1_555 1_555
C6_8 C3_8 1_555 1_555
C7_8 C2_8 1_555 1_555
C8_8 C6_8 1_555 1_555
O12_2 C5_8 1_555 1_555
O14_5 C7_8 1_555 1_555
Fe7 O1_8 1_555 1_555
O8_8 Fe4_2 1_555 1_555
C7_8 C8_8 1_555 1_555
C4_8 H1_8 1_555 1_555
C1_9 C2_9 1_555 1_555
C2_9 C4_9 1_555 1_555
C3_9 C4_9 1_555 1_555
Fe5 O13 1_555 1_555
O1_9 C1_9 1_555 1_555
O9_2 C1_9 1_555 1_555
O13 C3_9 1_555 1_555
C5_9 C6_9 1_555 1_555
C6_9 C3_9 1_555 1_555
C7_9 C2_9 1_555 1_555
C8_9 C6_9 1_555 1_555
O11 C5_9 1_555 1_555
O14_2 C7_9 1_555 1_555
Fe8_2 O1_9 1_555 1_555
O8_9 Fe5 1_555 1_555
C7_9 C8_9 1_555 1_555
C4_9 H1_9 1_555 1_555

#END
