
###############################################################################
#
# This file contains modified crystal structure data generated from the
# MOF subset of the Cambridge Structural Database (CSD) v543 
# hosted by the Cambridge Crystallographic Data Centre (CCDC).
#
# This work is licensed under the Creative Commons
# Attribution-NonCommercial-ShareAlike 4.0 International License.
# To view a copy of this license, visit
# http://creativecommons.org/licenses/by-nc-sa/4.0/
# or send a letter to
# Creative Commons, PO Box 1866, Mountain View, CA 94042, USA.
#
# CIF created using the CSD Python API on 29 September 2022
# The structure has been converted into the P1 space group
# The structure has a 3D framework
# The original CSD entry WOSGUI is in the tetragonal crystal system
# The framework has been calculated to contain at least 10.0% void space
# The void calculation uses a probe of radius 1.32A, grid spacing 0.4
#
###############################################################################

data_WOSGUI
_chemical_formula_moiety         '(C102 H96 Co16 N63 O16)n'
_symmetry_cell_setting           triclinic
_symmetry_space_group_name_H-M   'P 1'
_symmetry_Int_Tables_number      1
_space_group_name_Hall           'P 1'
loop_
_symmetry_equiv_pos_site_id
_symmetry_equiv_pos_as_xyz
1 x,y,z
_cell_length_a                   10.29180(10)
_cell_length_b                   10.29180(10)
_cell_length_c                   33.1588(8)
_cell_angle_alpha                90
_cell_angle_beta                 90
_cell_angle_gamma                90
_cell_volume                     3512.22
loop_
_atom_site_label
_atom_site_type_symbol
_atom_site_fract_x
_atom_site_fract_y
_atom_site_fract_z
C11 C 0.0417(5) 0.5558(5) 0.12949(15)
H9 H 0.1079 0.5417 0.1481
C12 C 0.0626(4) 0.5332(4) 0.08900(15)
H10 H 0.1443 0.5054 0.0807
Co5 Co -0.0000 0.5000 0.0000
Co5_2 Co -0.0000 0.5000 1.0000
Co1 Co -0.0000 0.0000 0.0000
N7 N 0.7003(3) 0.2196(3) 0.18869(10)
C20 C 0.6569(4) 0.1029(4) 0.17678(12)
H19 H 0.6449 0.0379 0.1959
C21 C 0.6296(4) 0.0765(4) 0.13664(13)
C22 C 0.6505(4) 0.1718(4) 0.10780(14)
H20 H 0.6354 0.1553 0.0806
C23 C 0.6942(5) 0.2917(5) 0.12051(15)
H21 H 0.7083 0.3579 0.1019
C24 C 0.7168(4) 0.3126(4) 0.16100(15)
H22 H 0.7446 0.3943 0.1693
N8 N 0.1349(3) 0.3512(3) 0.01986(11)
N9 N 0.1456(3) 0.2416(3) 0.01105(10)
N10 N 0.1615(4) 0.1323(4) 0.00227(11)
Co3 Co 0.7500 0.2500 0.2500
Co1_2 Co 0.0000 0.0000 1.0000
N19 N 0.0304(3) 0.4503(3) 0.93869(10)
N21 N 0.1615(4) 0.6323(4) 0.99773(11)
Co1_3 Co -0.0000 1.0000 0.0000
N1 N 0.0304(3) 0.9503(3) 0.06131(10)
C1 C 0.1471(4) 0.9069(4) 0.07322(12)
H1 H 0.2121 0.8949 0.0541
C2 C 0.1735(4) 0.8796(4) 0.11336(13)
C3 C 0.0782(4) 0.9005(4) 0.14220(14)
H2 H 0.0947 0.8854 0.1694
C6 C 0.3877(4) 0.7970(4) 0.09848(11)
H5 H 0.4144 0.8697 0.0818
H6 H 0.3564 0.7276 0.0812
C7 C 0.5000 0.7500 0.1250
O1 O 0.2887(3) 0.8362(3) 0.12706(8)
N5 N 0.9696(3) 0.5497(3) 0.06131(10)
C8 C 0.8529(4) 0.5931(4) 0.07322(12)
H7 H 0.7879 0.6051 0.0541
C9 C 0.8265(4) 0.6204(4) 0.11336(13)
C10 C 0.9218(4) 0.5995(4) 0.14220(14)
H8 H 0.9053 0.6146 0.1694
C13 C 0.6123(4) 0.7030(4) 0.09848(11)
H11 H 0.5856 0.6303 0.0818
H12 H 0.6436 0.7724 0.0812
O2 O 0.7113(3) 0.6638(3) 0.12706(8)
N6 N 0.2997(3) 0.2804(3) 0.18869(10)
C14 C 0.3431(4) 0.3971(4) 0.17678(12)
H13 H 0.3551 0.4621 0.1959
C15 C 0.3704(4) 0.4235(4) 0.13664(13)
C16 C 0.3495(4) 0.3282(4) 0.10780(14)
H14 H 0.3646 0.3447 0.0806
C17 C 0.3058(5) 0.2083(5) 0.12051(15)
H15 H 0.2917 0.1421 0.1019
C18 C 0.2832(4) 0.1874(4) 0.16100(15)
H16 H 0.2554 0.1057 0.1693
C19 C 0.4530(4) 0.6377(4) 0.15152(11)
H17 H 0.3803 0.6644 0.1682
H18 H 0.5224 0.6064 0.1688
O3 O 0.4138(3) 0.5387(3) 0.12294(8)
C25 C 0.5470(4) 0.8623(4) 0.15152(11)
H23 H 0.6197 0.8356 0.1682
H24 H 0.4776 0.8936 0.1688
O4 O 0.5862(3) 0.9613(3) 0.12294(8)
Co5_3 Co 1.0000 0.5000 0.0000
Co6 Co 0.2500 0.2500 0.2500
Co1_4 Co -0.0000 1.0000 1.0000
N11 N 0.1349(3) 0.8512(3) 0.98014(11)
N12 N 0.1456(3) 0.7416(3) 0.98895(10)
Co5_4 Co 1.0000 0.5000 1.0000
Co1_5 Co 1.0000 0.0000 0.0000
N2 N 0.8651(3) 0.1488(3) 0.01986(11)
N3 N 0.8544(3) 0.2584(3) 0.01105(10)
N4 N 0.8385(4) 0.3677(4) 0.00227(11)
Co1_6 Co 1.0000 0.0000 1.0000
N18 N 0.9696(3) 0.0497(3) 0.93869(10)
N20 N 0.8651(3) 0.6488(3) 0.98014(11)
Co1_7 Co 1.0000 1.0000 0.0000
C4 C 0.9583(5) 0.9442(5) 0.12949(15)
H3 H 0.8921 0.9583 0.1481
C5 C 0.9374(4) 0.9668(4) 0.08900(15)
H4 H 0.8557 0.9946 0.0807
Co1_8 Co 1.0000 1.0000 1.0000
N15 N 0.8544(3) 0.7584(3) 0.98895(10)
N16 N 0.8385(4) 0.8677(4) 0.99773(11)
Co1_9 Co 0.5000 0.0000 0.5000
N1_2 N 0.4696(3) 0.0497(3) 0.56131(10)
C1_2 C 0.3529(4) 0.0931(4) 0.57322(12)
H1_2 H 0.2879 0.1051 0.5541
C2_2 C 0.3265(4) 0.1204(4) 0.61336(13)
C3_2 C 0.4218(4) 0.0995(4) 0.64220(14)
H2_2 H 0.4053 0.1146 0.6694
C4_2 C 0.5417(5) 0.0558(5) 0.62949(15)
H3_2 H 0.6079 0.0417 0.6481
C5_2 C 0.5626(4) 0.0332(4) 0.58900(15)
H4_2 H 0.6443 0.0054 0.5807
C6_2 C 0.1123(4) 0.2030(4) 0.59848(11)
H5_2 H 0.0856 0.1303 0.5818
H6_2 H 0.1436 0.2724 0.5812
C7_2 C -0.0000 0.2500 0.6250
O1_2 O 0.2113(3) 0.1638(3) 0.62706(8)
N6_2 N 0.2003(3) 0.7196(3) 0.68869(10)
C14_2 C 0.1569(4) 0.6029(4) 0.67678(12)
H13_2 H 0.1449 0.5379 0.6959
C15_2 C 0.1296(4) 0.5765(4) 0.63664(13)
C16_2 C 0.1505(4) 0.6718(4) 0.60780(14)
H14_2 H 0.1354 0.6553 0.5806
C17_2 C 0.1942(5) 0.7917(5) 0.62051(15)
H15_2 H 0.2083 0.8579 0.6019
C18_2 C 0.2168(4) 0.8126(4) 0.66100(15)
H16_2 H 0.2446 0.8943 0.6693
C19_2 C 0.0470(4) 0.3623(4) 0.65152(11)
H17_2 H 0.1197 0.3356 0.6682
O3_2 O 0.0862(3) 0.4613(3) 0.62294(8)
H24_2 H 0.0224 0.1064 0.6688
N11_2 N 0.3651(3) 0.1488(3) 0.48014(11)
N12_2 N 0.3544(3) 0.2584(3) 0.48895(10)
N13 N 0.3385(4) 0.3677(4) 0.49773(11)
N14 N 0.6349(3) 0.3512(3) 0.48014(11)
N15_2 N 0.6456(3) 0.2416(3) 0.48895(10)
N16_2 N 0.6615(4) 0.1323(4) 0.49773(11)
Co4 Co 0.5000 0.5000 0.5000
Co6_2 Co 0.2500 0.7500 0.7500
Co1_10 Co 0.5000 1.0000 0.5000
N2_2 N 0.6349(3) 0.8512(3) 0.51986(11)
N3_2 N 0.6456(3) 0.7416(3) 0.51105(10)
N4_2 N 0.6615(4) 0.6323(4) 0.50227(11)
N8_2 N 0.3651(3) 0.6488(3) 0.51986(11)
N9_2 N 0.3544(3) 0.7584(3) 0.51105(10)
N10_2 N 0.3385(4) 0.8677(4) 0.50227(11)
N17 N 0.5304(3) 0.4503(3) 0.56131(10)
N18_2 N 0.5304(3) 0.9503(3) 0.43869(10)
N19_2 N 0.4696(3) 0.5497(3) 0.43869(10)
C7_3 C 1.0000 0.2500 0.6250
C8_2 C 0.6471(4) 0.4069(4) 0.57322(12)
H7_2 H 0.7121 0.3949 0.5541
C9_2 C 0.6735(4) 0.3796(4) 0.61336(13)
C10_2 C 0.5782(4) 0.4005(4) 0.64220(14)
H8_2 H 0.5947 0.3854 0.6694
C11_2 C 0.4583(5) 0.4442(5) 0.62949(15)
H9_2 H 0.3921 0.4583 0.6481
C12_2 C 0.4374(4) 0.4668(4) 0.58900(15)
H10_2 H 0.3557 0.4946 0.5807
C13_2 C 0.8877(4) 0.2970(4) 0.59848(11)
H11_2 H 0.9144 0.3697 0.5818
H12_2 H 0.8564 0.2276 0.5812
O2_2 O 0.7887(3) 0.3362(3) 0.62706(8)
H18_2 H 0.9776 0.3936 0.6688
C25_2 C 0.9530(4) 0.1377(4) 0.65152(11)
H23_2 H 0.8803 0.1644 0.6682
O4_2 O 0.9138(3) 0.0387(3) 0.62294(8)
N7_2 N 0.7997(3) 0.7804(3) 0.68869(10)
C20_2 C 0.8431(4) 0.8971(4) 0.67678(12)
H19_2 H 0.8551 0.9621 0.6959
C21_2 C 0.8704(4) 0.9235(4) 0.63664(13)
C22_2 C 0.8495(4) 0.8282(4) 0.60780(14)
H20_2 H 0.8646 0.8447 0.5806
C23_2 C 0.8058(5) 0.7083(5) 0.62051(15)
H21_2 H 0.7917 0.6421 0.6019
C24_2 C 0.7832(4) 0.6874(4) 0.66100(15)
H22_2 H 0.7554 0.6057 0.6693
Co3_2 Co 0.7500 0.7500 0.7500
N5_2 N 0.2003(3) 0.2196(3) 0.31131(10)
C8_3 C 0.1569(4) 0.1029(4) 0.32322(12)
H7_3 H 0.1449 0.0379 0.3041
C9_3 C 0.1296(4) 0.0765(4) 0.36336(13)
C10_3 C 0.1505(4) 0.1718(4) 0.39220(14)
H8_3 H 0.1354 0.1553 0.4194
C11_3 C 0.1942(5) 0.2917(5) 0.37949(15)
H9_3 H 0.2083 0.3579 0.3981
C12_3 C 0.2168(4) 0.3126(4) 0.33900(15)
H10_3 H 0.2446 0.3943 0.3307
H6_3 H 0.0224 0.6064 0.3312
C7_4 C 0.0000 0.7500 0.3750
C13_3 C 0.0470(4) 0.8623(4) 0.34848(11)
H11_3 H 0.1197 0.8356 0.3318
O2_3 O 0.0862(3) 0.9613(3) 0.37706(8)
C14_3 C 0.3529(4) 0.5931(4) 0.42678(12)
H13_3 H 0.2879 0.6051 0.4459
C15_3 C 0.3265(4) 0.6204(4) 0.38664(13)
C16_3 C 0.4218(4) 0.5995(4) 0.35780(14)
H14_3 H 0.4053 0.6146 0.3306
C17_3 C 0.5417(5) 0.5558(5) 0.37051(15)
H15_3 H 0.6079 0.5417 0.3519
C18_3 C 0.5626(4) 0.5332(4) 0.41100(15)
H16_3 H 0.6443 0.5054 0.4193
C19_3 C 0.1123(4) 0.7030(4) 0.40152(11)
H17_3 H 0.0856 0.6303 0.4182
H18_3 H 0.1436 0.7724 0.4188
O3_3 O 0.2113(3) 0.6638(3) 0.37294(8)
N12_3 N 0.0084(3) 0.3956(3) 0.23895(10)
N13_2 N 0.1177(4) 0.4115(4) 0.24773(11)
N14_2 N 0.1012(3) 0.1151(3) 0.23014(11)
N1_3 N 0.7997(3) 0.2804(3) 0.31131(10)
N2_3 N 0.6012(3) 0.1151(3) 0.26986(11)
N3_3 N 0.4916(3) 0.1044(3) 0.26105(10)
N4_3 N 0.3823(4) 0.0885(4) 0.25227(11)
C1_3 C 0.8431(4) 0.3971(4) 0.32322(12)
H1_3 H 0.8551 0.4621 0.3041
C2_3 C 0.8704(4) 0.4235(4) 0.36336(13)
C3_3 C 0.8495(4) 0.3282(4) 0.39220(14)
H2_3 H 0.8646 0.3447 0.4194
C4_3 C 0.8058(5) 0.2083(5) 0.37949(15)
H3_3 H 0.7917 0.1421 0.3981
C5_3 C 0.7832(4) 0.1874(4) 0.33900(15)
H4_3 H 0.7554 0.1057 0.3307
C6_3 C 0.9530(4) 0.6377(4) 0.34848(11)
H5_3 H 0.8803 0.6644 0.3318
C7_5 C 1.0000 0.7500 0.3750
O1_3 O 0.9138(3) 0.5387(3) 0.37706(8)
H12_3 H 0.9776 0.8936 0.3312
C20_3 C 0.6471(4) 0.9069(4) 0.42678(12)
H19_3 H 0.7121 0.8949 0.4459
C21_3 C 0.6735(4) 0.8796(4) 0.38664(13)
C22_3 C 0.5782(4) 0.9005(4) 0.35780(14)
H20_3 H 0.5947 0.8854 0.3306
C23_3 C 0.4583(5) 0.9442(5) 0.37051(15)
H21_3 H 0.3921 0.9583 0.3519
C24_3 C 0.4374(4) 0.9668(4) 0.41100(15)
H22_3 H 0.3557 0.9946 0.4193
C25_3 C 0.8877(4) 0.7970(4) 0.40152(11)
H23_3 H 0.9144 0.8697 0.4182
H24_3 H 0.8564 0.7276 0.4188
O4_3 O 0.7887(3) 0.8362(3) 0.37294(8)
N8_3 N 0.3988(3) 0.3849(3) 0.26986(11)
N9_3 N 0.5084(3) 0.3956(3) 0.26105(10)
N10_3 N 0.6177(4) 0.4115(4) 0.25227(11)
N11_3 N 0.8988(3) 0.3849(3) 0.23014(11)
N15_3 N 0.9916(3) 0.1044(3) 0.23895(10)
N16_3 N 0.8823(4) 0.0885(4) 0.24773(11)
N3_4 N 0.0084(3) 0.8956(3) 0.76105(10)
N4_4 N 0.1177(4) 0.9115(4) 0.75227(11)
C23_4 C 0.0417(5) 0.0558(5) 0.87051(15)
H21_4 H 0.1079 0.0417 0.8519
C24_4 C 0.0626(4) 0.0332(4) 0.91100(15)
H22_4 H 0.1443 0.0054 0.9193
N8_4 N 0.1012(3) 0.6151(3) 0.76986(11)
N17_2 N 0.2997(3) 0.7804(3) 0.81131(10)
N20_2 N 0.3988(3) 0.8849(3) 0.73014(11)
N21_2 N 0.3823(4) 0.5885(4) 0.74773(11)
N1_4 N 0.7003(3) 0.7196(3) 0.81131(10)
N2_4 N 0.8988(3) 0.8849(3) 0.76986(11)
C1_4 C 0.6569(4) 0.6029(4) 0.82322(12)
H1_4 H 0.6449 0.5379 0.8041
C2_4 C 0.6296(4) 0.5765(4) 0.86336(13)
C3_4 C 0.6505(4) 0.6718(4) 0.89220(14)
H2_4 H 0.6354 0.6553 0.9194
C4_4 C 0.6942(5) 0.7917(5) 0.87949(15)
H3_4 H 0.7083 0.8579 0.8981
C5_4 C 0.7168(4) 0.8126(4) 0.83900(15)
H4_4 H 0.7446 0.8943 0.8307
C6_4 C 0.5470(4) 0.3623(4) 0.84848(11)
H5_4 H 0.6197 0.3356 0.8318
H6_4 H 0.4776 0.3936 0.8312
C7_6 C 0.5000 0.2500 0.8750
O1_4 O 0.5862(3) 0.4613(3) 0.87706(8)
C13_4 C 0.4530(4) 0.1377(4) 0.84848(11)
H11_4 H 0.3803 0.1644 0.8318
H12_4 H 0.5224 0.1064 0.8312
O2_4 O 0.4138(3) 0.0387(3) 0.87706(8)
C14_4 C 0.1471(4) 0.4069(4) 0.92678(12)
H13_4 H 0.2121 0.3949 0.9459
C15_4 C 0.1735(4) 0.3796(4) 0.88664(13)
C16_4 C 0.0782(4) 0.4005(4) 0.85780(14)
H14_4 H 0.0947 0.3854 0.8306
C19_4 C 0.3877(4) 0.2970(4) 0.90152(11)
H17_4 H 0.4144 0.3697 0.9182
H18_4 H 0.3564 0.2276 0.9188
O3_4 O 0.2887(3) 0.3362(3) 0.87294(8)
C20_4 C 0.8529(4) 0.0931(4) 0.92678(12)
H19_4 H 0.7879 0.1051 0.9459
C21_4 C 0.8265(4) 0.1204(4) 0.88664(13)
C22_4 C 0.9218(4) 0.0995(4) 0.85780(14)
H20_4 H 0.9053 0.1146 0.8306
C25_4 C 0.6123(4) 0.2030(4) 0.90152(11)
H23_4 H 0.5856 0.1303 0.9182
H24_4 H 0.6436 0.2724 0.9188
O4_4 O 0.7113(3) 0.1638(3) 0.87294(8)
N9_4 N 0.9916(3) 0.6044(3) 0.76105(10)
N10_4 N 0.8823(4) 0.5885(4) 0.75227(11)
N11_4 N 0.6012(3) 0.6151(3) 0.73014(11)
N12_4 N 0.4916(3) 0.6044(3) 0.73895(10)
N15_4 N 0.5084(3) 0.8956(3) 0.73895(10)
N16_4 N 0.6177(4) 0.9115(4) 0.74773(11)
C8_4 C 0.3431(4) 0.8971(4) 0.82322(12)
H7_4 H 0.3551 0.9621 0.8041
C9_4 C 0.3704(4) 0.9235(4) 0.86336(13)
C10_4 C 0.3495(4) 0.8282(4) 0.89220(14)
H8_4 H 0.3646 0.8447 0.9194
C11_4 C 0.3058(5) 0.7083(5) 0.87949(15)
H9_4 H 0.2917 0.6421 0.8981
C12_4 C 0.2832(4) 0.6874(4) 0.83900(15)
H10_4 H 0.2554 0.6057 0.8307
C17_4 C 0.9583(5) 0.4442(5) 0.87051(15)
H15_4 H 0.8921 0.4583 0.8519
C18_4 C 0.9374(4) 0.4668(4) 0.91100(15)
H16_4 H 0.8557 0.4946 0.9193
loop_
_geom_bond_atom_site_label_1
_geom_bond_atom_site_label_2
_geom_bond_site_symmetry_1
_geom_bond_site_symmetry_2
H9 C11 1_555 1_555
H10 C12 1_555 1_555
C11 C12 1_555 1_555
N7 C20 1_555 1_555
C20 H19 1_555 1_555
C21 C20 1_555 1_555
C22 C21 1_555 1_555
H20 C22 1_555 1_555
C23 C22 1_555 1_555
H21 C23 1_555 1_555
C24 N7 1_555 1_555
H22 C24 1_555 1_555
N8 Co5 1_555 1_555
N9 N8 1_555 1_555
N10 Co1 1_555 1_555
Co3 N7 1_555 1_555
C23 C24 1_555 1_555
N9 N10 1_555 1_555
N19 Co5_2 1_555 1_555
N21 Co5_2 1_555 1_555
Co1_3 N1 1_555 1_555
N1 C1 1_555 1_555
C1 H1 1_555 1_555
C2 C1 1_555 1_555
C3 C2 1_555 1_555
H2 C3 1_555 1_555
C6 H5 1_555 1_555
H6 C6 1_555 1_555
C7 C6 1_555 1_555
O1 C2 1_555 1_555
N5 C8 1_555 1_555
C8 H7 1_555 1_555
C9 C8 1_555 1_555
C10 C9 1_555 1_555
H8 C10 1_555 1_555
C13 C7 1_555 1_555
H11 C13 1_555 1_555
H12 C13 1_555 1_555
O2 C9 1_555 1_555
N6 C14 1_555 1_555
C14 H13 1_555 1_555
C15 C14 1_555 1_555
C16 C15 1_555 1_555
H14 C16 1_555 1_555
C17 C16 1_555 1_555
H15 C17 1_555 1_555
C18 N6 1_555 1_555
H16 C18 1_555 1_555
C19 C7 1_555 1_555
H17 C19 1_555 1_555
H18 C19 1_555 1_555
O3 C15 1_555 1_555
C25 C7 1_555 1_555
H23 C25 1_555 1_555
H24 C25 1_555 1_555
Co5_3 N5 1_555 1_555
Co6 N6 1_555 1_555
C6 O1 1_555 1_555
C13 O2 1_555 1_555
C17 C18 1_555 1_555
C19 O3 1_555 1_555
C25 O4 1_555 1_555
N11 Co1_4 1_555 1_555
N12 N11 1_555 1_555
N21 N12 1_555 1_555
N2 Co1_5 1_555 1_555
N3 N2 1_555 1_555
N4 N3 1_555 1_555
Co5_3 N4 1_555 1_555
N18 Co1_6 1_555 1_555
N20 Co5_4 1_555 1_555
H3 C4 1_555 1_555
H4 C5 1_555 1_555
C4 C5 1_555 1_555
N20 N15 1_555 1_555
N15 N16 1_555 1_555
N16 Co1_8 1_555 1_555
Co1_9 N1_2 1_555 1_555
N1_2 C1_2 1_555 1_555
C1_2 H1_2 1_555 1_555
C2_2 C1_2 1_555 1_555
C3_2 C2_2 1_555 1_555
H2_2 C3_2 1_555 1_555
C4_2 C3_2 1_555 1_555
H3_2 C4_2 1_555 1_555
C5_2 N1_2 1_555 1_555
H4_2 C5_2 1_555 1_555
C6_2 H5_2 1_555 1_555
H6_2 C6_2 1_555 1_555
C7_2 C6_2 1_555 1_555
O1_2 C2_2 1_555 1_555
N6_2 C14_2 1_555 1_555
C14_2 H13_2 1_555 1_555
C15_2 C14_2 1_555 1_555
C16_2 C15_2 1_555 1_555
H14_2 C16_2 1_555 1_555
C17_2 C16_2 1_555 1_555
H15_2 C17_2 1_555 1_555
C18_2 N6_2 1_555 1_555
H16_2 C18_2 1_555 1_555
C19_2 C7_2 1_555 1_555
H17_2 C19_2 1_555 1_555
O3_2 C15_2 1_555 1_555
N11_2 Co1_9 1_555 1_555
N12_2 N11_2 1_555 1_555
N13 N12_2 1_555 1_555
N14 N15_2 1_555 1_555
N15_2 N16_2 1_555 1_555
N16_2 Co1_9 1_555 1_555
Co4 N13 1_555 1_555
Co6_2 N6_2 1_555 1_555
C4_2 C5_2 1_555 1_555
C6_2 O1_2 1_555 1_555
C17_2 C18_2 1_555 1_555
C19_2 O3_2 1_555 1_555
N14 Co4 1_555 1_555
N2_2 Co1_10 1_555 1_555
N3_2 N2_2 1_555 1_555
N4_2 N3_2 1_555 1_555
Co4 N4_2 1_555 1_555
N8_2 Co4 1_555 1_555
N9_2 N8_2 1_555 1_555
N10_2 Co1_10 1_555 1_555
N17 Co4 1_555 1_555
N18_2 Co1_10 1_555 1_555
N19_2 Co4 1_555 1_555
N9_2 N10_2 1_555 1_555
N17 C8_2 1_555 1_555
C8_2 H7_2 1_555 1_555
C9_2 C8_2 1_555 1_555
C10_2 C9_2 1_555 1_555
H8_2 C10_2 1_555 1_555
C11_2 C10_2 1_555 1_555
H9_2 C11_2 1_555 1_555
C12_2 N17 1_555 1_555
H10_2 C12_2 1_555 1_555
C13_2 C7_3 1_555 1_555
H11_2 C13_2 1_555 1_555
H12_2 C13_2 1_555 1_555
O2_2 C9_2 1_555 1_555
C25_2 C7_3 1_555 1_555
H23_2 C25_2 1_555 1_555
C11_2 C12_2 1_555 1_555
C13_2 O2_2 1_555 1_555
C25_2 O4_2 1_555 1_555
N7_2 C20_2 1_555 1_555
C20_2 H19_2 1_555 1_555
C21_2 C20_2 1_555 1_555
C22_2 C21_2 1_555 1_555
H20_2 C22_2 1_555 1_555
C23_2 C22_2 1_555 1_555
H21_2 C23_2 1_555 1_555
C24_2 N7_2 1_555 1_555
H22_2 C24_2 1_555 1_555
Co3_2 N7_2 1_555 1_555
C23_2 C24_2 1_555 1_555
N5_2 C8_3 1_555 1_555
C8_3 H7_3 1_555 1_555
C9_3 C8_3 1_555 1_555
C10_3 C9_3 1_555 1_555
H8_3 C10_3 1_555 1_555
C11_3 C10_3 1_555 1_555
H9_3 C11_3 1_555 1_555
C12_3 N5_2 1_555 1_555
H10_3 C12_3 1_555 1_555
Co6 N5_2 1_555 1_555
C11_3 C12_3 1_555 1_555
C13_3 C7_4 1_555 1_555
H11_3 C13_3 1_555 1_555
N19_2 C14_3 1_555 1_555
C14_3 H13_3 1_555 1_555
C15_3 C14_3 1_555 1_555
C16_3 C15_3 1_555 1_555
H14_3 C16_3 1_555 1_555
C17_3 C16_3 1_555 1_555
H15_3 C17_3 1_555 1_555
C18_3 N19_2 1_555 1_555
H16_3 C18_3 1_555 1_555
C19_3 C7_4 1_555 1_555
H17_3 C19_3 1_555 1_555
H18_3 C19_3 1_555 1_555
O3_3 C15_3 1_555 1_555
N13_2 N12_3 1_555 1_555
Co6 N13_2 1_555 1_555
C13_3 O2_3 1_555 1_555
C17_3 C18_3 1_555 1_555
C19_3 O3_3 1_555 1_555
N14_2 Co6 1_555 1_555
Co3 N1_3 1_555 1_555
N1_3 C1_3 1_555 1_555
N2_3 Co3 1_555 1_555
N3_3 N2_3 1_555 1_555
N4_3 N3_3 1_555 1_555
C1_3 H1_3 1_555 1_555
C2_3 C1_3 1_555 1_555
C3_3 C2_3 1_555 1_555
H2_3 C3_3 1_555 1_555
C4_3 C3_3 1_555 1_555
H3_3 C4_3 1_555 1_555
C5_3 N1_3 1_555 1_555
H4_3 C5_3 1_555 1_555
C6_3 H5_3 1_555 1_555
C7_5 C6_3 1_555 1_555
O1_3 C2_3 1_555 1_555
N18_2 C20_3 1_555 1_555
C20_3 H19_3 1_555 1_555
C21_3 C20_3 1_555 1_555
C22_3 C21_3 1_555 1_555
H20_3 C22_3 1_555 1_555
C23_3 C22_3 1_555 1_555
H21_3 C23_3 1_555 1_555
C24_3 N18_2 1_555 1_555
H22_3 C24_3 1_555 1_555
C25_3 C7_5 1_555 1_555
H23_3 C25_3 1_555 1_555
H24_3 C25_3 1_555 1_555
O4_3 C21_3 1_555 1_555
Co6 N4_3 1_555 1_555
N8_3 Co6 1_555 1_555
N9_3 N8_3 1_555 1_555
N10_3 Co3 1_555 1_555
N11_3 Co3 1_555 1_555
N15_3 N16_3 1_555 1_555
N16_3 Co3 1_555 1_555
C4_3 C5_3 1_555 1_555
C6_3 O1_3 1_555 1_555
C23_3 C24_3 1_555 1_555
C25_3 O4_3 1_555 1_555
N9_3 N10_3 1_555 1_555
N4_4 N3_4 1_555 1_555
H21_4 C23_4 1_555 1_555
H22_4 C24_4 1_555 1_555
Co6_2 N4_4 1_555 1_555
N8_4 Co6_2 1_555 1_555
N17_2 Co6_2 1_555 1_555
N20_2 Co6_2 1_555 1_555
N21_2 Co6_2 1_555 1_555
C23_4 C24_4 1_555 1_555
Co3_2 N1_4 1_555 1_555
N1_4 C1_4 1_555 1_555
N2_4 Co3_2 1_555 1_555
C1_4 H1_4 1_555 1_555
C2_4 C1_4 1_555 1_555
C3_4 C2_4 1_555 1_555
H2_4 C3_4 1_555 1_555
C4_4 C3_4 1_555 1_555
H3_4 C4_4 1_555 1_555
C5_4 N1_4 1_555 1_555
H4_4 C5_4 1_555 1_555
C6_4 H5_4 1_555 1_555
H6_4 C6_4 1_555 1_555
C7_6 C6_4 1_555 1_555
O1_4 C2_4 1_555 1_555
C13_4 C7_6 1_555 1_555
H11_4 C13_4 1_555 1_555
H12_4 C13_4 1_555 1_555
N19 C14_4 1_555 1_555
C14_4 H13_4 1_555 1_555
C15_4 C14_4 1_555 1_555
C16_4 C15_4 1_555 1_555
H14_4 C16_4 1_555 1_555
C19_4 C7_6 1_555 1_555
H17_4 C19_4 1_555 1_555
H18_4 C19_4 1_555 1_555
O3_4 C15_4 1_555 1_555
N18 C20_4 1_555 1_555
C20_4 H19_4 1_555 1_555
C21_4 C20_4 1_555 1_555
C22_4 C21_4 1_555 1_555
H20_4 C22_4 1_555 1_555
C25_4 C7_6 1_555 1_555
H23_4 C25_4 1_555 1_555
H24_4 C25_4 1_555 1_555
O4_4 C21_4 1_555 1_555
N10_4 Co3_2 1_555 1_555
N11_4 Co3_2 1_555 1_555
N12_4 N11_4 1_555 1_555
N21_2 N12_4 1_555 1_555
N20_2 N15_4 1_555 1_555
N15_4 N16_4 1_555 1_555
N16_4 Co3_2 1_555 1_555
C4_4 C5_4 1_555 1_555
C6_4 O1_4 1_555 1_555
C13_4 O2_4 1_555 1_555
C19_4 O3_4 1_555 1_555
C25_4 O4_4 1_555 1_555
N9_4 N10_4 1_555 1_555
N17_2 C8_4 1_555 1_555
C8_4 H7_4 1_555 1_555
C9_4 C8_4 1_555 1_555
C10_4 C9_4 1_555 1_555
H8_4 C10_4 1_555 1_555
C11_4 C10_4 1_555 1_555
H9_4 C11_4 1_555 1_555
C12_4 N17_2 1_555 1_555
H10_4 C12_4 1_555 1_555
C11_4 C12_4 1_555 1_555
H15_4 C17_4 1_555 1_555
H16_4 C18_4 1_555 1_555
C17_4 C18_4 1_555 1_555

#END
