
###############################################################################
#
# This file contains modified crystal structure data generated from the
# MOF subset of the Cambridge Structural Database (CSD) v543 
# hosted by the Cambridge Crystallographic Data Centre (CCDC).
#
# This work is licensed under the Creative Commons
# Attribution-NonCommercial-ShareAlike 4.0 International License.
# To view a copy of this license, visit
# http://creativecommons.org/licenses/by-nc-sa/4.0/
# or send a letter to
# Creative Commons, PO Box 1866, Mountain View, CA 94042, USA.
#
# CIF created using the CSD Python API on 29 September 2022
# The structure has been converted into the P1 space group
# The structure has a 3D framework
# The original CSD entry WOSMUP is in the monoclinic crystal system
# The framework has been calculated to contain at least 10.0% void space
# The void calculation uses a probe of radius 1.32A, grid spacing 0.4
#
###############################################################################

data_WOSMUP
_chemical_formula_moiety         '(C84 H84 Ca19 N12 O72 Tb4)n'
_symmetry_cell_setting           triclinic
_symmetry_space_group_name_H-M   'P 1'
_symmetry_Int_Tables_number      1
_space_group_name_Hall           'P 1'
loop_
_symmetry_equiv_pos_site_id
_symmetry_equiv_pos_as_xyz
1 x,y,z
_cell_length_a                   16.1572(8)
_cell_length_b                   9.3861(5)
_cell_length_c                   24.2643(11)
_cell_angle_alpha                90
_cell_angle_beta                 108.6510(10)
_cell_angle_gamma                90
_cell_volume                     3486.51
loop_
_atom_site_label
_atom_site_type_symbol
_atom_site_fract_x
_atom_site_fract_y
_atom_site_fract_z
H25 H 0.011077 0.359728 0.560819
H26 H 0.019520 0.539940 0.628831
Ca5 Ca 0.000000 0.000000 0.500000
Ca5_2 Ca 0.000000 1.000000 0.500000
O17 O 0.4687(2) 0.0963(4) 0.14832(12)
H17 H 0.444170 0.177485 0.142413
H18 H 0.455120 0.053305 0.115823
O31 O 0.5313(2) 0.0963(4) 0.35168(12)
H30 H 0.555830 0.177485 0.357587
H31 H 0.544880 0.053305 0.384177
O39 O 0.4023(2) 0.1987(4) 0.24815(13)
O40 O 0.5977(2) 0.1987(4) 0.25185(13)
Tb1 Tb 0.29924(2) 0.50209(2) 0.09703(2)
Ca1 Ca 0.500000 0.000000 0.000000
O1 O 0.3370(2) 0.3280(3) 0.03547(14)
N1 N 0.4542(2) 0.5068(3) 0.09784(17)
C1 C 0.4815(3) 0.4150(4) 0.0654(2)
Ca2 Ca 0.000000 0.000000 0.000000
O2 O 0.4352(2) 0.2117(3) 0.00539(15)
N2 N 0.1749(2) 0.5089(4) 0.00249(17)
C2 C 0.5655(3) 0.4207(5) 0.0608(2)
H1 H 0.583303 0.355301 0.038093
Ca3 Ca 0.500000 0.99987(13) 0.250000
O3 O 0.39060(19) 0.6815(3) 0.15763(15)
C3 C 0.6217(3) 0.5265(5) 0.0911(3)
H2 H 0.677724 0.534151 0.088602
N3 N 0.2640(2) 0.4888(4) 0.19011(18)
O4 O 0.5159(2) 0.8028(3) 0.19053(13)
C4 C 0.5932(3) 0.6211(5) 0.1253(2)
H3 H 0.629997 0.692295 0.146241
O5 O 0.18609(19) 0.3236(3) 0.08503(12)
C5 C 0.5088(3) 0.6074(4) 0.1277(2)
C6 C 0.4132(3) 0.3084(4) 0.03253(19)
O6 O 0.0627(2) 0.2149(3) 0.03395(15)
O7 O 0.3075(2) 0.6829(4) 0.02659(17)
C7 C 0.4703(3) 0.7061(4) 0.16192(19)
O9 O 0.37534(19) 0.3207(3) 0.16478(13)
O11 O 0.1944(2) 0.6751(5) 0.10794(18)
O12 O 0.1128(2) 0.7721(5) 0.15686(18)
C13 C 0.1189(3) 0.3088(4) 0.04078(18)
O13 O 0.6142(2) 0.0646(4) 0.08673(14)
H7 H 0.666846 0.080493 0.107209
H8 H 0.581606 0.097713 0.105059
C15 C 0.2989(3) 0.3874(6) 0.2287(2)
C16 C 0.2752(4) 0.3668(9) 0.2784(2)
H15 H 0.300548 0.294868 0.304743
C17 C 0.2129(5) 0.4561(12) 0.2875(3)
H16 H 0.195239 0.444457 0.320122
O18 O 0.34849(19) 0.9131(3) 0.21204(13)
H19 H 0.356850 0.852327 0.188365
H20 H 0.310020 0.968127 0.190235
C18 C 0.1767(4) 0.5637(11) 0.2475(3)
H21 H 0.135208 0.625494 0.253161
C19 C 0.2039(3) 0.5767(7) 0.1992(2)
C20 C 0.3647(3) 0.2934(5) 0.21367(18)
C21 C 0.1670(3) 0.6843(7) 0.1514(3)
Tb2 Tb 0.70076(2) 0.50209(2) 0.40297(2)
O19 O 0.6630(2) 0.3280(3) 0.46453(14)
N4 N 0.5458(2) 0.5068(3) 0.40216(17)
C22 C 0.5185(3) 0.4150(4) 0.4346(2)
O20 O 0.5648(2) 0.2117(3) 0.49461(15)
N5 N 0.8251(2) 0.5089(4) 0.49751(17)
C23 C 0.4345(3) 0.4207(5) 0.4392(2)
H22 H 0.416697 0.355301 0.461907
O21 O 0.60940(19) 0.6815(3) 0.34237(15)
C24 C 0.3783(3) 0.5265(5) 0.4089(3)
H23 H 0.322276 0.534151 0.411398
N6 N 0.7360(2) 0.4888(4) 0.30989(18)
O22 O 0.4841(2) 0.8028(3) 0.30947(13)
C25 C 0.4068(3) 0.6211(5) 0.3747(2)
H24 H 0.370003 0.692295 0.353759
O23 O 0.81391(19) 0.3236(3) 0.41497(12)
C26 C 0.4912(3) 0.6074(4) 0.3723(2)
C27 C 0.5868(3) 0.3084(4) 0.46747(19)
O24 O 0.9373(2) 0.2149(3) 0.46605(15)
O25 O 0.6925(2) 0.6829(4) 0.47341(17)
C28 C 0.5297(3) 0.7061(4) 0.33808(19)
O26 O 0.7437(2) 0.7915(5) 0.5602(2)
C29 C 0.8922(3) 0.4181(4) 0.50677(18)
O27 O 0.62466(19) 0.3207(3) 0.33522(13)
C30 C 0.9658(3) 0.4248(5) 0.5555(2)
C31 C 0.9703(4) 0.5312(7) 0.5961(3)
O29 O 0.8056(2) 0.6751(5) 0.39206(18)
C32 C 0.9009(3) 0.6236(7) 0.5875(3)
H27 H 0.902021 0.694037 0.614668
C33 C 0.8292(3) 0.6095(5) 0.5374(2)
O30 O 0.8872(2) 0.7721(5) 0.34314(18)
C34 C 0.8811(3) 0.3088(4) 0.45922(18)
C35 C 0.7495(3) 0.7033(6) 0.5233(3)
C36 C 0.7011(3) 0.3874(6) 0.2713(2)
C37 C 0.7248(4) 0.3668(9) 0.2216(2)
H28 H 0.699452 0.294868 0.195257
C38 C 0.7871(5) 0.4561(12) 0.2125(3)
H29 H 0.804761 0.444457 0.179878
O32 O 0.65151(19) 0.9131(3) 0.28796(13)
H32 H 0.643150 0.852327 0.311635
H33 H 0.689980 0.968127 0.309765
C39 C 0.8233(4) 0.5637(11) 0.2525(3)
H34 H 0.864792 0.625494 0.246839
C40 C 0.7961(3) 0.5767(7) 0.3008(2)
C41 C 0.6353(3) 0.2934(5) 0.28633(18)
C42 C 0.8330(3) 0.6843(7) 0.3486(3)
Ca4 Ca 0.500000 0.000000 0.500000
Ca5_3 Ca 1.000000 0.000000 0.500000
Ca1_2 Ca 0.500000 0.000000 1.000000
Ca2_2 Ca 0.000000 0.000000 1.000000
O8 O 0.2563(2) 0.7915(5) 0.9398(2)
C8 C 0.1078(3) 0.4181(4) 0.99323(18)
C9 C 0.0342(3) 0.4248(5) 0.9445(2)
C10 C 0.0297(4) 0.5312(7) 0.9039(3)
C11 C 0.0991(3) 0.6236(7) 0.9125(3)
H6 H 0.097979 0.694037 0.885332
C12 C 0.1708(3) 0.6095(5) 0.9626(2)
C14 C 0.2505(3) 0.7033(6) 0.9767(3)
O34 O 0.5835(2) 0.0892(4) 0.94620(15)
H37 H 0.620272 0.155358 0.948284
H38 H 0.540822 0.102188 0.915254
O36 O 0.0223(3) 0.0538(5) 0.9113(2)
H42 H 0.054267 0.020238 0.892573
Ca1_3 Ca 0.500000 1.000000 0.000000
Ca2_3 Ca 0.000000 1.000000 0.000000
O14 O 0.4165(2) 0.9108(4) 0.05380(15)
H9 H 0.379728 0.844642 0.051716
H10 H 0.459178 0.897812 0.084746
O15 O 0.1412(2) 0.9072(4) 0.0385(3)
H11 H 0.176664 0.939593 0.022188
H12 H 0.152324 0.827243 0.055798
H13 H 0.017853 0.890012 0.107937
Ca4_2 Ca 0.500000 1.000000 0.500000
Ca5_4 Ca 1.000000 1.000000 0.500000
Ca1_4 Ca 0.500000 1.000000 1.000000
Ca2_4 Ca 0.000000 1.000000 1.000000
O33 O 0.3858(2) 0.9354(4) 0.91327(14)
H35 H 0.333154 0.919507 0.892791
H36 H 0.418394 0.902287 0.894941
O37 O 0.5648(2) 0.7883(3) 0.99461(15)
Ca2_5 Ca 1.000000 0.000000 0.000000
Ca2_6 Ca 1.000000 0.000000 1.000000
H4 H 0.988923 0.359728 0.939181
H5 H 0.980480 0.539940 0.871169
O35 O 0.8588(2) 0.0928(4) 0.9615(3)
H39 H 0.823336 0.060407 0.977812
H40 H 0.847676 0.172757 0.944202
H41 H 0.982147 0.109988 0.892063
Ca2_7 Ca 1.000000 1.000000 0.000000
O16 O 0.9777(3) 0.9462(5) 0.0887(2)
H14 H 0.945733 0.979762 0.107427
Ca2_8 Ca 1.000000 1.000000 1.000000
O38 O 0.9373(2) 0.7851(3) 0.96605(15)
O35_2 O 0.1412(2) 0.0928(4) 0.5385(3)
H39_2 H 0.176664 0.060407 0.522188
H40_2 H 0.152324 0.172757 0.555798
H41_2 H 0.017853 0.109988 0.607937
O16_2 O 0.0223(3) 0.9462(5) 0.4113(2)
H14_2 H 0.054267 0.979762 0.392573
O38_2 O 0.0627(2) 0.7851(3) 0.53395(15)
O13_2 O 0.3858(2) 0.0646(4) 0.41327(14)
H7_2 H 0.333154 0.080493 0.392791
H8_2 H 0.418394 0.097713 0.394941
O34_2 O 0.4165(2) 0.0892(4) 0.55380(15)
H37_2 H 0.379728 0.155358 0.551716
H38_2 H 0.459178 0.102188 0.584746
O36_2 O 0.9777(3) 0.0538(5) 0.5887(2)
H42_2 H 0.945733 0.020238 0.607427
O14_2 O 0.5835(2) 0.9108(4) 0.44620(15)
H9_2 H 0.620272 0.844642 0.448284
H10_2 H 0.540822 0.897812 0.415254
O15_2 O 0.8588(2) 0.9072(4) 0.4615(3)
H11_2 H 0.823336 0.939593 0.477812
H12_2 H 0.847676 0.827243 0.444202
H13_2 H 0.982147 0.890012 0.392063
O33_2 O 0.6142(2) 0.9354(4) 0.58673(14)
H35_2 H 0.666846 0.919507 0.607209
H36_2 H 0.581606 0.902287 0.605059
O37_2 O 0.4352(2) 0.7883(3) 0.50539(15)
H4_2 H 0.011077 0.640272 0.060819
H5_2 H 0.019520 0.460060 0.128831
Ca6 Ca 0.500000 0.00013(13) 0.750000
O8_2 O 0.7437(2) 0.2085(5) 0.0602(2)
C8_2 C 0.8922(3) 0.5819(4) 0.00677(18)
C9_2 C 0.9658(3) 0.5752(5) 0.0555(2)
C10_2 C 0.9703(4) 0.4688(7) 0.0961(3)
C11_2 C 0.9009(3) 0.3764(7) 0.0875(3)
H6_2 H 0.902021 0.305963 0.114668
C12_2 C 0.8292(3) 0.3905(5) 0.0374(2)
C14_2 C 0.7495(3) 0.2967(6) 0.0233(3)
Tb1_2 Tb 0.70076(2) 0.49791(2) 0.90297(2)
O1_2 O 0.6630(2) 0.6720(3) 0.96453(14)
N1_2 N 0.5458(2) 0.4932(3) 0.90216(17)
C1_2 C 0.5185(3) 0.5850(4) 0.9346(2)
N2_2 N 0.8251(2) 0.4911(4) 0.99751(17)
C2_2 C 0.4345(3) 0.5793(5) 0.9392(2)
H1_2 H 0.416697 0.644699 0.961907
O3_2 O 0.60940(19) 0.3185(3) 0.84237(15)
C3_2 C 0.3783(3) 0.4735(5) 0.9089(3)
H2_2 H 0.322276 0.465849 0.911398
N3_2 N 0.7360(2) 0.5112(4) 0.80989(18)
O4_2 O 0.4841(2) 0.1972(3) 0.80947(13)
C4_2 C 0.4068(3) 0.3789(5) 0.8747(2)
H3_2 H 0.370003 0.307705 0.853759
O5_2 O 0.81391(19) 0.6764(3) 0.91497(12)
C5_2 C 0.4912(3) 0.3926(4) 0.8723(2)
C6_2 C 0.5868(3) 0.6916(4) 0.96747(19)
O7_2 O 0.6925(2) 0.3171(4) 0.97341(17)
C7_2 C 0.5297(3) 0.2939(4) 0.83808(19)
O9_2 O 0.62466(19) 0.6793(3) 0.83522(13)
O10 O 0.5977(2) 0.8013(4) 0.75185(13)
O11_2 O 0.8056(2) 0.3249(5) 0.89206(18)
O12_2 O 0.8872(2) 0.2279(5) 0.84314(18)
C13_2 C 0.8811(3) 0.6912(4) 0.95922(18)
C15_2 C 0.7011(3) 0.6126(6) 0.7713(2)
C16_2 C 0.7248(4) 0.6332(9) 0.7216(2)
H15_2 H 0.699452 0.705132 0.695257
C17_2 C 0.7871(5) 0.5439(12) 0.7125(3)
H16_2 H 0.804761 0.555543 0.679878
O18_2 O 0.65151(19) 0.0869(3) 0.78796(13)
H19_2 H 0.643150 0.147673 0.811635
H20_2 H 0.689980 0.031873 0.809765
C18_2 C 0.8233(4) 0.4363(11) 0.7525(3)
H21_2 H 0.864792 0.374506 0.746839
C19_2 C 0.7961(3) 0.4233(7) 0.8008(2)
C20_2 C 0.6353(3) 0.7066(5) 0.78633(18)
C21_2 C 0.8330(3) 0.3157(7) 0.8486(3)
Tb2_2 Tb 0.29924(2) 0.49791(2) 0.59703(2)
O19_2 O 0.3370(2) 0.6720(3) 0.53547(14)
N4_2 N 0.4542(2) 0.4932(3) 0.59784(17)
C22_2 C 0.4815(3) 0.5850(4) 0.5654(2)
N5_2 N 0.1749(2) 0.4911(4) 0.50249(17)
C23_2 C 0.5655(3) 0.5793(5) 0.5608(2)
H22_2 H 0.583303 0.644699 0.538093
O21_2 O 0.39060(19) 0.3185(3) 0.65763(15)
C24_2 C 0.6217(3) 0.4735(5) 0.5911(3)
H23_2 H 0.677724 0.465849 0.588602
N6_2 N 0.2640(2) 0.5112(4) 0.69011(18)
O22_2 O 0.5159(2) 0.1972(3) 0.69053(13)
C25_2 C 0.5932(3) 0.3789(5) 0.6253(2)
H24_2 H 0.629997 0.307705 0.646241
O23_2 O 0.18609(19) 0.6764(3) 0.58503(12)
C26_2 C 0.5088(3) 0.3926(4) 0.6277(2)
C27_2 C 0.4132(3) 0.6916(4) 0.53253(19)
O25_2 O 0.3075(2) 0.3171(4) 0.52659(17)
C28_2 C 0.4703(3) 0.2939(4) 0.66192(19)
O26_2 O 0.2563(2) 0.2085(5) 0.4398(2)
C29_2 C 0.1078(3) 0.5819(4) 0.49323(18)
O27_2 O 0.37534(19) 0.6793(3) 0.66478(13)
C30_2 C 0.0342(3) 0.5752(5) 0.4445(2)
O28 O 0.4023(2) 0.8013(4) 0.74815(13)
C31_2 C 0.0297(4) 0.4688(7) 0.4039(3)
O29_2 O 0.1944(2) 0.3249(5) 0.60794(18)
C32_2 C 0.0991(3) 0.3764(7) 0.4125(3)
H27_2 H 0.097979 0.305963 0.385332
C33_2 C 0.1708(3) 0.3905(5) 0.4626(2)
O30_2 O 0.1128(2) 0.2279(5) 0.65686(18)
C34_2 C 0.1189(3) 0.6912(4) 0.54078(18)
C35_2 C 0.2505(3) 0.2967(6) 0.4767(3)
C36_2 C 0.2989(3) 0.6126(6) 0.7287(2)
C37_2 C 0.2752(4) 0.6332(9) 0.7784(2)
H28_2 H 0.300548 0.705132 0.804743
C38_2 C 0.2129(5) 0.5439(12) 0.7875(3)
H29_2 H 0.195239 0.555543 0.820122
O32_2 O 0.34849(19) 0.0869(3) 0.71204(13)
H32_2 H 0.356850 0.147673 0.688365
H33_2 H 0.310020 0.031873 0.690235
C39_2 C 0.1767(4) 0.4363(11) 0.7475(3)
H34_2 H 0.135208 0.374506 0.753161
C40_2 C 0.2039(3) 0.4233(7) 0.6992(2)
C41_2 C 0.3647(3) 0.7066(5) 0.71367(18)
C42_2 C 0.1670(3) 0.3157(7) 0.6514(3)
O17_2 O 0.5313(2) 0.9037(4) 0.85168(12)
H17_2 H 0.555830 0.822515 0.857587
H18_2 H 0.544880 0.946695 0.884177
O31_2 O 0.4687(2) 0.9037(4) 0.64832(12)
H30_2 H 0.444170 0.822515 0.642413
H31_2 H 0.455120 0.946695 0.615823
H25_2 H 0.988923 0.640272 0.439181
H26_2 H 0.980480 0.460060 0.371169
loop_
_geom_bond_atom_site_label_1
_geom_bond_atom_site_label_2
_geom_bond_site_symmetry_1
_geom_bond_site_symmetry_2
H17 O17 1_555 1_555
H18 O17 1_555 1_555
H30 O31 1_555 1_555
H31 O31 1_555 1_555
Tb1 O1 1_555 1_555
Ca1 O2 1_555 1_555
O1 C6 1_555 1_555
N1 Tb1 1_555 1_555
C1 N1 1_555 1_555
Ca2 O6 1_555 1_555
O2 C6 1_555 1_555
N2 Tb1 1_555 1_555
C2 C1 1_555 1_555
H1 C2 1_555 1_555
Ca3 O4 1_555 1_555
O3 Tb1 1_555 1_555
C3 C2 1_555 1_555
H2 C3 1_555 1_555
N3 Tb1 1_555 1_555
O4 C7 1_555 1_555
C4 C3 1_555 1_555
H3 C4 1_555 1_555
O5 Tb1 1_555 1_555
C5 N1 1_555 1_555
C6 C1 1_555 1_555
O6 C13 1_555 1_555
O7 Tb1 1_555 1_555
C7 O3 1_555 1_555
O9 Tb1 1_555 1_555
O39 C20 1_555 1_555
O11 Tb1 1_555 1_555
O12 C21 1_555 1_555
C13 O5 1_555 1_555
O13 Ca1 1_555 1_555
H7 O13 1_555 1_555
H8 O13 1_555 1_555
C15 N3 1_555 1_555
C16 C15 1_555 1_555
H15 C16 1_555 1_555
C17 C16 1_555 1_555
H16 C17 1_555 1_555
O18 Ca3 1_555 1_555
H19 O18 1_555 1_555
H20 O18 1_555 1_555
C18 C17 1_555 1_555
H21 C18 1_555 1_555
C19 N3 1_555 1_555
C20 O9 1_555 1_555
C21 O11 1_555 1_555
Tb2 O19 1_555 1_555
O19 C27 1_555 1_555
N4 Tb2 1_555 1_555
C22 N4 1_555 1_555
O20 C27 1_555 1_555
N5 Tb2 1_555 1_555
C23 C22 1_555 1_555
H22 C23 1_555 1_555
O21 Tb2 1_555 1_555
C24 C23 1_555 1_555
H23 C24 1_555 1_555
N6 Tb2 1_555 1_555
O22 Ca3 1_555 1_555
C25 C24 1_555 1_555
H24 C25 1_555 1_555
O23 Tb2 1_555 1_555
C26 N4 1_555 1_555
C27 C22 1_555 1_555
O24 C34 1_555 1_555
O25 Tb2 1_555 1_555
C28 O21 1_555 1_555
O26 C35 1_555 1_555
C29 N5 1_555 1_555
O27 Tb2 1_555 1_555
C30 C29 1_555 1_555
O40 C41 1_555 1_555
C31 C30 1_555 1_555
O29 Tb2 1_555 1_555
C32 C31 1_555 1_555
H27 C32 1_555 1_555
C33 N5 1_555 1_555
O30 C42 1_555 1_555
C34 O23 1_555 1_555
C35 O25 1_555 1_555
C36 N6 1_555 1_555
C37 C36 1_555 1_555
H28 C37 1_555 1_555
C38 C37 1_555 1_555
H29 C38 1_555 1_555
O32 Ca3 1_555 1_555
H32 O32 1_555 1_555
H33 O32 1_555 1_555
C39 C38 1_555 1_555
H34 C39 1_555 1_555
C40 N6 1_555 1_555
C41 O27 1_555 1_555
C42 O29 1_555 1_555
Ca4 O20 1_555 1_555
Ca5_3 O24 1_555 1_555
C4 C5 1_555 1_555
C5 C7 1_555 1_555
C15 C20 1_555 1_555
C18 C19 1_555 1_555
C19 C21 1_555 1_555
O22 C28 1_555 1_555
C25 C26 1_555 1_555
C26 C28 1_555 1_555
C29 C34 1_555 1_555
C32 C33 1_555 1_555
C33 C35 1_555 1_555
C36 C41 1_555 1_555
C39 C40 1_555 1_555
C40 C42 1_555 1_555
O8 C14 1_555 1_555
C9 C8 1_555 1_555
C10 C9 1_555 1_555
C11 C10 1_555 1_555
H6 C11 1_555 1_555
O34 Ca1_2 1_555 1_555
H37 O34 1_555 1_555
H38 O34 1_555 1_555
O36 Ca2_2 1_555 1_555
H42 O36 1_555 1_555
C11 C12 1_555 1_555
C12 C14 1_555 1_555
O14 Ca1_3 1_555 1_555
H9 O14 1_555 1_555
H10 O14 1_555 1_555
O15 Ca2_3 1_555 1_555
H11 O15 1_555 1_555
H12 O15 1_555 1_555
O33 Ca1_4 1_555 1_555
H35 O33 1_555 1_555
H36 O33 1_555 1_555
O37 Ca1_4 1_555 1_555
O35 Ca2_6 1_555 1_555
H39 O35 1_555 1_555
H40 O35 1_555 1_555
O16 Ca2_7 1_555 1_555
H14 O16 1_555 1_555
O38 Ca2_8 1_555 1_555
O35_2 Ca5 1_555 1_555
H39_2 O35_2 1_555 1_555
H40_2 O35_2 1_555 1_555
O16_2 Ca5_2 1_555 1_555
H14_2 O16_2 1_555 1_555
O38_2 Ca5_2 1_555 1_555
O13_2 Ca4 1_555 1_555
H7_2 O13_2 1_555 1_555
H8_2 O13_2 1_555 1_555
O34_2 Ca4 1_555 1_555
H37_2 O34_2 1_555 1_555
H38_2 O34_2 1_555 1_555
O36_2 Ca5_3 1_555 1_555
H42_2 O36_2 1_555 1_555
O14_2 Ca4_2 1_555 1_555
H9_2 O14_2 1_555 1_555
H10_2 O14_2 1_555 1_555
O15_2 Ca5_4 1_555 1_555
H11_2 O15_2 1_555 1_555
H12_2 O15_2 1_555 1_555
O33_2 Ca4_2 1_555 1_555
H35_2 O33_2 1_555 1_555
H36_2 O33_2 1_555 1_555
O37_2 Ca4_2 1_555 1_555
O8_2 C14_2 1_555 1_555
C9_2 C8_2 1_555 1_555
C10_2 C9_2 1_555 1_555
C11_2 C10_2 1_555 1_555
H6_2 C11_2 1_555 1_555
C11_2 C12_2 1_555 1_555
C12_2 C14_2 1_555 1_555
Tb1_2 O1_2 1_555 1_555
O1_2 C6_2 1_555 1_555
N1_2 Tb1_2 1_555 1_555
C1_2 N1_2 1_555 1_555
O37 C6_2 1_555 1_555
N2_2 Tb1_2 1_555 1_555
C2_2 C1_2 1_555 1_555
H1_2 C2_2 1_555 1_555
Ca6 O4_2 1_555 1_555
O3_2 Tb1_2 1_555 1_555
C3_2 C2_2 1_555 1_555
H2_2 C3_2 1_555 1_555
N3_2 Tb1_2 1_555 1_555
O4_2 C7_2 1_555 1_555
C4_2 C3_2 1_555 1_555
H3_2 C4_2 1_555 1_555
O5_2 Tb1_2 1_555 1_555
C5_2 N1_2 1_555 1_555
C6_2 C1_2 1_555 1_555
O38 C13_2 1_555 1_555
O7_2 Tb1_2 1_555 1_555
C7_2 O3_2 1_555 1_555
O9_2 Tb1_2 1_555 1_555
O10 C20_2 1_555 1_555
O11_2 Tb1_2 1_555 1_555
O12_2 C21_2 1_555 1_555
C13_2 O5_2 1_555 1_555
C15_2 N3_2 1_555 1_555
C16_2 C15_2 1_555 1_555
H15_2 C16_2 1_555 1_555
C17_2 C16_2 1_555 1_555
H16_2 C17_2 1_555 1_555
O18_2 Ca6 1_555 1_555
H19_2 O18_2 1_555 1_555
H20_2 O18_2 1_555 1_555
C18_2 C17_2 1_555 1_555
H21_2 C18_2 1_555 1_555
C19_2 N3_2 1_555 1_555
C20_2 O9_2 1_555 1_555
C21_2 O11_2 1_555 1_555
Tb2_2 O19_2 1_555 1_555
O19_2 C27_2 1_555 1_555
N4_2 Tb2_2 1_555 1_555
C22_2 N4_2 1_555 1_555
O37_2 C27_2 1_555 1_555
N5_2 Tb2_2 1_555 1_555
C23_2 C22_2 1_555 1_555
H22_2 C23_2 1_555 1_555
O21_2 Tb2_2 1_555 1_555
C24_2 C23_2 1_555 1_555
H23_2 C24_2 1_555 1_555
N6_2 Tb2_2 1_555 1_555
O22_2 Ca6 1_555 1_555
C25_2 C24_2 1_555 1_555
H24_2 C25_2 1_555 1_555
O23_2 Tb2_2 1_555 1_555
C26_2 N4_2 1_555 1_555
C27_2 C22_2 1_555 1_555
O38_2 C34_2 1_555 1_555
O25_2 Tb2_2 1_555 1_555
C28_2 O21_2 1_555 1_555
O26_2 C35_2 1_555 1_555
C29_2 N5_2 1_555 1_555
O27_2 Tb2_2 1_555 1_555
C30_2 C29_2 1_555 1_555
O28 C41_2 1_555 1_555
C31_2 C30_2 1_555 1_555
O29_2 Tb2_2 1_555 1_555
C32_2 C31_2 1_555 1_555
H27_2 C32_2 1_555 1_555
C33_2 N5_2 1_555 1_555
O30_2 C42_2 1_555 1_555
C34_2 O23_2 1_555 1_555
C35_2 O25_2 1_555 1_555
C36_2 N6_2 1_555 1_555
C37_2 C36_2 1_555 1_555
H28_2 C37_2 1_555 1_555
C38_2 C37_2 1_555 1_555
H29_2 C38_2 1_555 1_555
O32_2 Ca6 1_555 1_555
H32_2 O32_2 1_555 1_555
H33_2 O32_2 1_555 1_555
C39_2 C38_2 1_555 1_555
H34_2 C39_2 1_555 1_555
C40_2 N6_2 1_555 1_555
C41_2 O27_2 1_555 1_555
C42_2 O29_2 1_555 1_555
C4_2 C5_2 1_555 1_555
C5_2 C7_2 1_555 1_555
C15_2 C20_2 1_555 1_555
C18_2 C19_2 1_555 1_555
C19_2 C21_2 1_555 1_555
O22_2 C28_2 1_555 1_555
C25_2 C26_2 1_555 1_555
C26_2 C28_2 1_555 1_555
C29_2 C34_2 1_555 1_555
C32_2 C33_2 1_555 1_555
C33_2 C35_2 1_555 1_555
C36_2 C41_2 1_555 1_555
C39_2 C40_2 1_555 1_555
C40_2 C42_2 1_555 1_555
H17_2 O17_2 1_555 1_555
H18_2 O17_2 1_555 1_555
H30_2 O31_2 1_555 1_555
H31_2 O31_2 1_555 1_555

#END
