
###############################################################################
#
# This file contains modified crystal structure data generated from the
# MOF subset of the Cambridge Structural Database (CSD) v543 
# hosted by the Cambridge Crystallographic Data Centre (CCDC).
#
# This work is licensed under the Creative Commons
# Attribution-NonCommercial-ShareAlike 4.0 International License.
# To view a copy of this license, visit
# http://creativecommons.org/licenses/by-nc-sa/4.0/
# or send a letter to
# Creative Commons, PO Box 1866, Mountain View, CA 94042, USA.
#
# CIF created using the CSD Python API on 29 September 2022
# The structure has been converted into the P1 space group
# The structure has a 3D framework
# The original CSD entry WOSNAW is in the monoclinic crystal system
# The framework has been calculated to contain at least 10.0% void space
# The void calculation uses a probe of radius 1.32A, grid spacing 0.4
#
###############################################################################

data_WOSNAW
_chemical_formula_moiety         '(C84 H84 Ca19 Eu4 N12 O72)n'
_symmetry_cell_setting           triclinic
_symmetry_space_group_name_H-M   'P 1'
_symmetry_Int_Tables_number      1
_space_group_name_Hall           'P 1'
loop_
_symmetry_equiv_pos_site_id
_symmetry_equiv_pos_as_xyz
1 x,y,z
_cell_length_a                   16.1764(7)
_cell_length_b                   9.3909(4)
_cell_length_c                   24.2329(12)
_cell_angle_alpha                90
_cell_angle_beta                 108.5750(10)
_cell_angle_gamma                90
_cell_volume                     3489.48
loop_
_atom_site_label
_atom_site_type_symbol
_atom_site_fract_x
_atom_site_fract_y
_atom_site_fract_z
H25 H 0.011754 0.360432 0.561922
H26 H 0.020501 0.538934 0.630448
Ca5 Ca 0.000000 0.000000 0.500000
Ca3 Ca 0.500000 0.00153(9) 0.250000
O17 O 0.46811(17) 0.0969(3) 0.14850(11)
H17 H 0.443552 0.178064 0.142603
H18 H 0.454482 0.053894 0.115973
O31 O 0.53189(17) 0.0969(3) 0.35150(11)
H30 H 0.556448 0.178064 0.357397
H31 H 0.545518 0.053894 0.384027
O39 O 0.40231(17) 0.1998(3) 0.24894(11)
O40 O 0.59769(17) 0.1998(3) 0.25106(11)
Eu1 Eu 0.29908(2) 0.50387(2) 0.09659(2)
Ca1 Ca 0.500000 0.000000 0.000000
O1 O 0.33900(16) 0.3286(2) 0.03506(11)
N1 N 0.45533(18) 0.5088(3) 0.09742(13)
C1 C 0.4833(2) 0.4166(4) 0.06549(16)
Ca2 Ca 0.000000 0.000000 0.000000
O2 O 0.43778(18) 0.2138(3) 0.00530(12)
N2 N 0.17332(19) 0.5099(3) 0.00096(13)
C2 C 0.5672(2) 0.4223(4) 0.06153(18)
H1 H 0.585375 0.356775 0.039010
O3 O 0.39135(15) 0.6845(3) 0.15728(12)
C3 C 0.6227(3) 0.5273(4) 0.0917(2)
H2 H 0.678858 0.534427 0.089383
N3 N 0.26369(19) 0.4895(3) 0.19069(14)
O4 O 0.51717(16) 0.8046(3) 0.19063(11)
C4 C 0.5945(2) 0.6223(4) 0.12569(18)
H3 H 0.631318 0.693368 0.146632
O5 O 0.18465(15) 0.3247(3) 0.08386(11)
C5 C 0.5098(2) 0.6092(4) 0.12778(16)
C6 C 0.4151(2) 0.3099(3) 0.03247(16)
O6 O 0.06146(17) 0.2163(3) 0.03284(12)
O7 O 0.30548(16) 0.6852(3) 0.02464(13)
C7 C 0.4710(2) 0.7085(3) 0.16190(15)
O9 O 0.37509(15) 0.3212(3) 0.16518(11)
O11 O 0.19424(18) 0.6778(4) 0.10918(14)
O12 O 0.11344(18) 0.7733(4) 0.15900(14)
C13 C 0.1177(2) 0.3103(3) 0.03957(15)
O13 O 0.61382(18) 0.0635(3) 0.08706(12)
H7 H 0.666387 0.079424 0.107503
H8 H 0.581196 0.096694 0.105403
C15 C 0.2987(2) 0.3870(5) 0.22937(16)
C16 C 0.2741(3) 0.3655(7) 0.27846(19)
H15 H 0.298814 0.292507 0.304428
C17 C 0.2125(3) 0.4539(9) 0.2881(2)
H16 H 0.194936 0.441448 0.320741
O18 O 0.34866(15) 0.9161(3) 0.21165(11)
H19 H 0.357024 0.855387 0.187946
H20 H 0.310244 0.971107 0.189866
C18 C 0.1764(3) 0.5630(8) 0.2483(2)
H21 H 0.135036 0.624677 0.254209
C19 C 0.2040(2) 0.5765(5) 0.20015(18)
C20 C 0.3645(2) 0.2944(4) 0.21430(15)
C21 C 0.1672(3) 0.6854(5) 0.1528(2)
Eu2 Eu 0.70092(2) 0.50387(2) 0.40341(2)
O19 O 0.66100(16) 0.3286(2) 0.46494(11)
N4 N 0.54467(18) 0.5088(3) 0.40258(13)
C22 C 0.5167(2) 0.4166(4) 0.43451(16)
O20 O 0.56222(18) 0.2138(3) 0.49470(12)
N5 N 0.82668(19) 0.5099(3) 0.49904(13)
C23 C 0.4328(2) 0.4223(4) 0.43847(18)
H22 H 0.414625 0.356775 0.460990
O21 O 0.60865(15) 0.6845(3) 0.34272(12)
C24 C 0.3773(3) 0.5273(4) 0.4083(2)
H23 H 0.321142 0.534427 0.410617
N6 N 0.73631(19) 0.4895(3) 0.30931(14)
O22 O 0.48283(16) 0.8046(3) 0.30937(11)
C25 C 0.4055(2) 0.6223(4) 0.37431(18)
H24 H 0.368682 0.693368 0.353368
O23 O 0.81535(15) 0.3247(3) 0.41614(11)
C26 C 0.4902(2) 0.6092(4) 0.37222(16)
C27 C 0.5849(2) 0.3099(3) 0.46753(16)
O24 O 0.93854(17) 0.2163(3) 0.46716(12)
O25 O 0.69452(16) 0.6852(3) 0.47536(13)
C28 C 0.5290(2) 0.7085(3) 0.33810(15)
O26 O 0.7456(2) 0.7909(4) 0.56293(18)
C29 C 0.8933(2) 0.4190(4) 0.50800(15)
O27 O 0.62491(15) 0.3212(3) 0.33482(11)
C30 C 0.9666(3) 0.4255(5) 0.55675(17)
C31 C 0.9714(3) 0.5306(6) 0.5977(2)
O29 O 0.80576(18) 0.6778(4) 0.39082(14)
C32 C 0.9016(3) 0.6233(5) 0.5891(2)
H27 H 0.902535 0.693372 0.616378
C33 C 0.8306(2) 0.6099(4) 0.53914(18)
O30 O 0.88656(18) 0.7733(4) 0.34100(14)
C34 C 0.8823(2) 0.3103(3) 0.46043(15)
C35 C 0.7511(2) 0.7047(4) 0.5254(2)
C36 C 0.7013(2) 0.3870(5) 0.27063(16)
C37 C 0.7259(3) 0.3655(7) 0.22154(19)
H28 H 0.701186 0.292507 0.195572
C38 C 0.7875(3) 0.4539(9) 0.2119(2)
H29 H 0.805064 0.441448 0.179259
O32 O 0.65134(15) 0.9161(3) 0.28835(11)
H32 H 0.642976 0.855387 0.312054
H33 H 0.689756 0.971107 0.310134
C39 C 0.8236(3) 0.5630(8) 0.2517(2)
H34 H 0.864964 0.624677 0.245791
C40 C 0.7960(2) 0.5765(5) 0.29985(18)
C41 C 0.6355(2) 0.2944(4) 0.28570(15)
C42 C 0.8328(3) 0.6854(5) 0.3472(2)
Ca4 Ca 0.500000 0.000000 0.500000
Ca5_2 Ca 1.000000 0.000000 0.500000
Ca1_2 Ca 0.500000 0.000000 1.000000
Ca2_2 Ca 0.000000 0.000000 1.000000
O8 O 0.2544(2) 0.7909(4) 0.93707(18)
C8 C 0.1067(2) 0.4190(4) 0.99200(15)
C9 C 0.0334(3) 0.4255(5) 0.94325(17)
C10 C 0.0286(3) 0.5306(6) 0.9023(2)
C11 C 0.0984(3) 0.6233(5) 0.9109(2)
H6 H 0.097465 0.693372 0.883622
C12 C 0.1694(2) 0.6099(4) 0.96086(18)
C14 C 0.2489(2) 0.7047(4) 0.9746(2)
O34 O 0.5856(2) 0.0869(3) 0.94682(13)
H37 H 0.622282 0.152991 0.948896
H38 H 0.542912 0.099841 0.915896
O36 O 0.0197(3) 0.0523(4) 0.9105(2)
H42 H 0.051670 0.018741 0.891798
Ca2_3 Ca 1.000000 0.000000 0.000000
Ca2_4 Ca 1.000000 0.000000 1.000000
H4 H 0.988246 0.360432 0.938078
H5 H 0.979499 0.538934 0.869552
O35 O 0.8594(2) 0.0919(3) 0.9627(2)
H39 H 0.823932 0.059499 0.979061
H40 H 0.848292 0.171819 0.945451
H41 H 0.979580 0.108421 0.891318
O35_2 O 0.1406(2) 0.0919(3) 0.5373(2)
H39_2 H 0.176068 0.059499 0.520939
H40_2 H 0.151708 0.171819 0.554549
H41_2 H 0.020420 0.108421 0.608682
O13_2 O 0.38618(18) 0.0635(3) 0.41294(12)
H7_2 H 0.333613 0.079424 0.392497
H8_2 H 0.418804 0.096694 0.394597
O34_2 O 0.4144(2) 0.0869(3) 0.55318(13)
H37_2 H 0.377718 0.152991 0.551104
H38_2 H 0.457088 0.099841 0.584104
O36_2 O 0.9803(3) 0.0523(4) 0.5895(2)
H42_2 H 0.948330 0.018741 0.608202
Ca5_3 Ca 0.000000 1.000000 0.500000
Ca1_3 Ca 0.500000 1.000000 0.000000
Ca2_5 Ca -0.000000 1.000000 0.000000
O14 O 0.4144(2) 0.9131(3) 0.05318(13)
H9 H 0.377718 0.847009 0.051104
H10 H 0.457088 0.900159 0.084104
O15 O 0.1406(2) 0.9081(3) 0.0373(2)
H11 H 0.176068 0.940501 0.020939
H12 H 0.151708 0.828181 0.054549
H13 H 0.020420 0.891579 0.108682
Ca4_2 Ca 0.500000 1.000000 0.500000
Ca5_4 Ca 1.000000 1.000000 0.500000
Ca1_4 Ca 0.500000 1.000000 1.000000
Ca2_6 Ca 0.000000 1.000000 1.000000
O33 O 0.38618(18) 0.9365(3) 0.91294(12)
H35 H 0.333613 0.920576 0.892497
H36 H 0.418804 0.903306 0.894597
O37 O 0.56222(18) 0.7862(3) 0.99470(12)
Ca2_7 Ca 1.000000 1.000000 0.000000
O16 O 0.9803(3) 0.9477(4) 0.0895(2)
H14 H 0.948330 0.981259 0.108202
Ca2_8 Ca 1.000000 1.000000 1.000000
O38 O 0.93854(17) 0.7837(3) 0.96716(12)
O16_2 O 0.0197(3) 0.9477(4) 0.4105(2)
H14_2 H 0.051670 0.981259 0.391798
O38_2 O 0.06146(17) 0.7837(3) 0.53284(12)
O14_2 O 0.5856(2) 0.9131(3) 0.44682(13)
H9_2 H 0.622282 0.847009 0.448896
H10_2 H 0.542912 0.900159 0.415896
O15_2 O 0.8594(2) 0.9081(3) 0.4627(2)
H11_2 H 0.823932 0.940501 0.479061
H12_2 H 0.848292 0.828181 0.445451
H13_2 H 0.979580 0.891579 0.391318
O33_2 O 0.61382(18) 0.9365(3) 0.58706(12)
H35_2 H 0.666387 0.920576 0.607503
H36_2 H 0.581196 0.903306 0.605403
O37_2 O 0.43778(18) 0.7862(3) 0.50530(12)
H4_2 H 0.011754 0.639568 0.061922
H5_2 H 0.020501 0.461066 0.130448
O8_2 O 0.7456(2) 0.2091(4) 0.06293(18)
C8_2 C 0.8933(2) 0.5810(4) 0.00800(15)
C9_2 C 0.9666(3) 0.5745(5) 0.05675(17)
C10_2 C 0.9714(3) 0.4694(6) 0.0977(2)
C11_2 C 0.9016(3) 0.3767(5) 0.0891(2)
H6_2 H 0.902535 0.306628 0.116378
C12_2 C 0.8306(2) 0.3901(4) 0.03914(18)
C14_2 C 0.7511(2) 0.2953(4) 0.0254(2)
Eu1_2 Eu 0.70092(2) 0.49613(2) 0.90341(2)
O1_2 O 0.66100(16) 0.6714(2) 0.96494(11)
N1_2 N 0.54467(18) 0.4912(3) 0.90258(13)
C1_2 C 0.5167(2) 0.5834(4) 0.93451(16)
N2_2 N 0.82668(19) 0.4901(3) 0.99904(13)
C2_2 C 0.4328(2) 0.5777(4) 0.93847(18)
H1_2 H 0.414625 0.643225 0.960990
O3_2 O 0.60865(15) 0.3155(3) 0.84272(12)
C3_2 C 0.3773(3) 0.4727(4) 0.9083(2)
H2_2 H 0.321142 0.465573 0.910617
N3_2 N 0.73631(19) 0.5105(3) 0.80931(14)
O4_2 O 0.48283(16) 0.1954(3) 0.80937(11)
C4_2 C 0.4055(2) 0.3777(4) 0.87431(18)
H3_2 H 0.368682 0.306632 0.853368
O5_2 O 0.81535(15) 0.6753(3) 0.91614(11)
C5_2 C 0.4902(2) 0.3908(4) 0.87222(16)
C6_2 C 0.5849(2) 0.6901(3) 0.96753(16)
O7_2 O 0.69452(16) 0.3148(3) 0.97536(13)
C7_2 C 0.5290(2) 0.2915(3) 0.83810(15)
O9_2 O 0.62491(15) 0.6788(3) 0.83482(11)
O10 O 0.59769(17) 0.8002(3) 0.75106(11)
O11_2 O 0.80576(18) 0.3222(4) 0.89082(14)
O12_2 O 0.88656(18) 0.2267(4) 0.84100(14)
C13_2 C 0.8823(2) 0.6897(3) 0.96043(15)
C15_2 C 0.7013(2) 0.6130(5) 0.77063(16)
C16_2 C 0.7259(3) 0.6345(7) 0.72154(19)
H15_2 H 0.701186 0.707493 0.695572
C17_2 C 0.7875(3) 0.5461(9) 0.7119(2)
H16_2 H 0.805064 0.558552 0.679259
O18_2 O 0.65134(15) 0.0839(3) 0.78835(11)
H19_2 H 0.642976 0.144613 0.812054
H20_2 H 0.689756 0.028893 0.810134
C18_2 C 0.8236(3) 0.4370(8) 0.7517(2)
H21_2 H 0.864964 0.375323 0.745791
C19_2 C 0.7960(2) 0.4235(5) 0.79985(18)
C20_2 C 0.6355(2) 0.7056(4) 0.78570(15)
C21_2 C 0.8328(3) 0.3146(5) 0.8472(2)
Eu2_2 Eu 0.29908(2) 0.49613(2) 0.59659(2)
O19_2 O 0.33900(16) 0.6714(2) 0.53506(11)
N4_2 N 0.45533(18) 0.4912(3) 0.59742(13)
C22_2 C 0.4833(2) 0.5834(4) 0.56549(16)
N5_2 N 0.17332(19) 0.4901(3) 0.50096(13)
C23_2 C 0.5672(2) 0.5777(4) 0.56153(18)
H22_2 H 0.585375 0.643225 0.539010
O21_2 O 0.39135(15) 0.3155(3) 0.65728(12)
C24_2 C 0.6227(3) 0.4727(4) 0.5917(2)
H23_2 H 0.678858 0.465573 0.589383
N6_2 N 0.26369(19) 0.5105(3) 0.69069(14)
O22_2 O 0.51717(16) 0.1954(3) 0.69063(11)
C25_2 C 0.5945(2) 0.3777(4) 0.62569(18)
H24_2 H 0.631318 0.306632 0.646632
O23_2 O 0.18465(15) 0.6753(3) 0.58386(11)
C26_2 C 0.5098(2) 0.3908(4) 0.62778(16)
C27_2 C 0.4151(2) 0.6901(3) 0.53247(16)
O25_2 O 0.30548(16) 0.3148(3) 0.52464(13)
C28_2 C 0.4710(2) 0.2915(3) 0.66190(15)
O26_2 O 0.2544(2) 0.2091(4) 0.43707(18)
C29_2 C 0.1067(2) 0.5810(4) 0.49200(15)
O27_2 O 0.37509(15) 0.6788(3) 0.66518(11)
C30_2 C 0.0334(3) 0.5745(5) 0.44325(17)
O28 O 0.40231(17) 0.8002(3) 0.74894(11)
C31_2 C 0.0286(3) 0.4694(6) 0.4023(2)
O29_2 O 0.19424(18) 0.3222(4) 0.60918(14)
C32_2 C 0.0984(3) 0.3767(5) 0.4109(2)
H27_2 H 0.097465 0.306628 0.383622
C33_2 C 0.1694(2) 0.3901(4) 0.46086(18)
O30_2 O 0.11344(18) 0.2267(4) 0.65900(14)
C34_2 C 0.1177(2) 0.6897(3) 0.53957(15)
C35_2 C 0.2489(2) 0.2953(4) 0.4746(2)
C36_2 C 0.2987(2) 0.6130(5) 0.72937(16)
C37_2 C 0.2741(3) 0.6345(7) 0.77846(19)
H28_2 H 0.298814 0.707493 0.804428
C38_2 C 0.2125(3) 0.5461(9) 0.7881(2)
H29_2 H 0.194936 0.558552 0.820741
O32_2 O 0.34866(15) 0.0839(3) 0.71165(11)
H32_2 H 0.357024 0.144613 0.687946
H33_2 H 0.310244 0.028893 0.689866
C39_2 C 0.1764(3) 0.4370(8) 0.7483(2)
H34_2 H 0.135036 0.375323 0.754209
C40_2 C 0.2040(2) 0.4235(5) 0.70015(18)
C41_2 C 0.3645(2) 0.7056(4) 0.71430(15)
C42_2 C 0.1672(3) 0.3146(5) 0.6528(2)
Ca6 Ca 0.500000 0.99847(9) 0.750000
O17_2 O 0.53189(17) 0.9031(3) 0.85150(11)
H17_2 H 0.556448 0.821936 0.857397
H18_2 H 0.545518 0.946106 0.884027
O31_2 O 0.46811(17) 0.9031(3) 0.64850(11)
H30_2 H 0.443552 0.821936 0.642603
H31_2 H 0.454482 0.946106 0.615973
H25_2 H 0.988246 0.639568 0.438078
H26_2 H 0.979499 0.461066 0.369552
loop_
_geom_bond_atom_site_label_1
_geom_bond_atom_site_label_2
_geom_bond_site_symmetry_1
_geom_bond_site_symmetry_2
O17 Ca3 1_555 1_555
H17 O17 1_555 1_555
H18 O17 1_555 1_555
O31 Ca3 1_555 1_555
H30 O31 1_555 1_555
H31 O31 1_555 1_555
O39 Ca3 1_555 1_555
O40 Ca3 1_555 1_555
Eu1 O1 1_555 1_555
Ca1 O2 1_555 1_555
O1 C6 1_555 1_555
N1 Eu1 1_555 1_555
C1 N1 1_555 1_555
Ca2 O6 1_555 1_555
O2 C6 1_555 1_555
N2 Eu1 1_555 1_555
C2 C1 1_555 1_555
H1 C2 1_555 1_555
O3 Eu1 1_555 1_555
C3 C2 1_555 1_555
H2 C3 1_555 1_555
N3 Eu1 1_555 1_555
O4 C7 1_555 1_555
C4 C3 1_555 1_555
H3 C4 1_555 1_555
O5 Eu1 1_555 1_555
C5 N1 1_555 1_555
C6 C1 1_555 1_555
O6 C13 1_555 1_555
O7 Eu1 1_555 1_555
C7 O3 1_555 1_555
O9 Eu1 1_555 1_555
O39 C20 1_555 1_555
O11 Eu1 1_555 1_555
O12 C21 1_555 1_555
C13 O5 1_555 1_555
O13 Ca1 1_555 1_555
H7 O13 1_555 1_555
H8 O13 1_555 1_555
C15 N3 1_555 1_555
C16 C15 1_555 1_555
H15 C16 1_555 1_555
C17 C16 1_555 1_555
H16 C17 1_555 1_555
H19 O18 1_555 1_555
H20 O18 1_555 1_555
C18 C17 1_555 1_555
H21 C18 1_555 1_555
C19 N3 1_555 1_555
C20 O9 1_555 1_555
C21 O11 1_555 1_555
Eu2 O19 1_555 1_555
O19 C27 1_555 1_555
N4 Eu2 1_555 1_555
C22 N4 1_555 1_555
O20 C27 1_555 1_555
N5 Eu2 1_555 1_555
C23 C22 1_555 1_555
H22 C23 1_555 1_555
O21 Eu2 1_555 1_555
C24 C23 1_555 1_555
H23 C24 1_555 1_555
N6 Eu2 1_555 1_555
C25 C24 1_555 1_555
H24 C25 1_555 1_555
O23 Eu2 1_555 1_555
C26 N4 1_555 1_555
C27 C22 1_555 1_555
O24 C34 1_555 1_555
O25 Eu2 1_555 1_555
C28 O21 1_555 1_555
O26 C35 1_555 1_555
C29 N5 1_555 1_555
O27 Eu2 1_555 1_555
C30 C29 1_555 1_555
O40 C41 1_555 1_555
C31 C30 1_555 1_555
O29 Eu2 1_555 1_555
C32 C31 1_555 1_555
H27 C32 1_555 1_555
C33 N5 1_555 1_555
O30 C42 1_555 1_555
C34 O23 1_555 1_555
C35 O25 1_555 1_555
C36 N6 1_555 1_555
C37 C36 1_555 1_555
H28 C37 1_555 1_555
C38 C37 1_555 1_555
H29 C38 1_555 1_555
H32 O32 1_555 1_555
H33 O32 1_555 1_555
C39 C38 1_555 1_555
H34 C39 1_555 1_555
C40 N6 1_555 1_555
C41 O27 1_555 1_555
C42 O29 1_555 1_555
Ca4 O20 1_555 1_555
Ca5_2 O24 1_555 1_555
C4 C5 1_555 1_555
C5 C7 1_555 1_555
C15 C20 1_555 1_555
C18 C19 1_555 1_555
C19 C21 1_555 1_555
O22 C28 1_555 1_555
C25 C26 1_555 1_555
C26 C28 1_555 1_555
C29 C34 1_555 1_555
C32 C33 1_555 1_555
C33 C35 1_555 1_555
C36 C41 1_555 1_555
C39 C40 1_555 1_555
C40 C42 1_555 1_555
O8 C14 1_555 1_555
C9 C8 1_555 1_555
C10 C9 1_555 1_555
C11 C10 1_555 1_555
H6 C11 1_555 1_555
O34 Ca1_2 1_555 1_555
H37 O34 1_555 1_555
H38 O34 1_555 1_555
O36 Ca2_2 1_555 1_555
H42 O36 1_555 1_555
C11 C12 1_555 1_555
C12 C14 1_555 1_555
O35 Ca2_4 1_555 1_555
H39 O35 1_555 1_555
H40 O35 1_555 1_555
O35_2 Ca5 1_555 1_555
H39_2 O35_2 1_555 1_555
H40_2 O35_2 1_555 1_555
O13_2 Ca4 1_555 1_555
H7_2 O13_2 1_555 1_555
H8_2 O13_2 1_555 1_555
O34_2 Ca4 1_555 1_555
H37_2 O34_2 1_555 1_555
H38_2 O34_2 1_555 1_555
O36_2 Ca5_2 1_555 1_555
H42_2 O36_2 1_555 1_555
O14 Ca1_3 1_555 1_555
H9 O14 1_555 1_555
H10 O14 1_555 1_555
O15 Ca2_5 1_555 1_555
H11 O15 1_555 1_555
H12 O15 1_555 1_555
O33 Ca1_4 1_555 1_555
H35 O33 1_555 1_555
H36 O33 1_555 1_555
O37 Ca1_4 1_555 1_555
O16 Ca2_7 1_555 1_555
H14 O16 1_555 1_555
O38 Ca2_8 1_555 1_555
O16_2 Ca5_3 1_555 1_555
H14_2 O16_2 1_555 1_555
O38_2 Ca5_3 1_555 1_555
O14_2 Ca4_2 1_555 1_555
H9_2 O14_2 1_555 1_555
H10_2 O14_2 1_555 1_555
O15_2 Ca5_4 1_555 1_555
H11_2 O15_2 1_555 1_555
H12_2 O15_2 1_555 1_555
O33_2 Ca4_2 1_555 1_555
H35_2 O33_2 1_555 1_555
H36_2 O33_2 1_555 1_555
O37_2 Ca4_2 1_555 1_555
O8_2 C14_2 1_555 1_555
C9_2 C8_2 1_555 1_555
C10_2 C9_2 1_555 1_555
C11_2 C10_2 1_555 1_555
H6_2 C11_2 1_555 1_555
C11_2 C12_2 1_555 1_555
C12_2 C14_2 1_555 1_555
Eu1_2 O1_2 1_555 1_555
O1_2 C6_2 1_555 1_555
N1_2 Eu1_2 1_555 1_555
C1_2 N1_2 1_555 1_555
O37 C6_2 1_555 1_555
N2_2 Eu1_2 1_555 1_555
C2_2 C1_2 1_555 1_555
H1_2 C2_2 1_555 1_555
O3_2 Eu1_2 1_555 1_555
C3_2 C2_2 1_555 1_555
H2_2 C3_2 1_555 1_555
N3_2 Eu1_2 1_555 1_555
O4_2 C7_2 1_555 1_555
C4_2 C3_2 1_555 1_555
H3_2 C4_2 1_555 1_555
O5_2 Eu1_2 1_555 1_555
C5_2 N1_2 1_555 1_555
C6_2 C1_2 1_555 1_555
O38 C13_2 1_555 1_555
O7_2 Eu1_2 1_555 1_555
C7_2 O3_2 1_555 1_555
O9_2 Eu1_2 1_555 1_555
O10 C20_2 1_555 1_555
O11_2 Eu1_2 1_555 1_555
O12_2 C21_2 1_555 1_555
C13_2 O5_2 1_555 1_555
C15_2 N3_2 1_555 1_555
C16_2 C15_2 1_555 1_555
H15_2 C16_2 1_555 1_555
C17_2 C16_2 1_555 1_555
H16_2 C17_2 1_555 1_555
H19_2 O18_2 1_555 1_555
H20_2 O18_2 1_555 1_555
C18_2 C17_2 1_555 1_555
H21_2 C18_2 1_555 1_555
C19_2 N3_2 1_555 1_555
C20_2 O9_2 1_555 1_555
C21_2 O11_2 1_555 1_555
Eu2_2 O19_2 1_555 1_555
O19_2 C27_2 1_555 1_555
N4_2 Eu2_2 1_555 1_555
C22_2 N4_2 1_555 1_555
O37_2 C27_2 1_555 1_555
N5_2 Eu2_2 1_555 1_555
C23_2 C22_2 1_555 1_555
H22_2 C23_2 1_555 1_555
O21_2 Eu2_2 1_555 1_555
C24_2 C23_2 1_555 1_555
H23_2 C24_2 1_555 1_555
N6_2 Eu2_2 1_555 1_555
C25_2 C24_2 1_555 1_555
H24_2 C25_2 1_555 1_555
O23_2 Eu2_2 1_555 1_555
C26_2 N4_2 1_555 1_555
C27_2 C22_2 1_555 1_555
O38_2 C34_2 1_555 1_555
O25_2 Eu2_2 1_555 1_555
C28_2 O21_2 1_555 1_555
O26_2 C35_2 1_555 1_555
C29_2 N5_2 1_555 1_555
O27_2 Eu2_2 1_555 1_555
C30_2 C29_2 1_555 1_555
O28 C41_2 1_555 1_555
C31_2 C30_2 1_555 1_555
O29_2 Eu2_2 1_555 1_555
C32_2 C31_2 1_555 1_555
H27_2 C32_2 1_555 1_555
C33_2 N5_2 1_555 1_555
O30_2 C42_2 1_555 1_555
C34_2 O23_2 1_555 1_555
C35_2 O25_2 1_555 1_555
C36_2 N6_2 1_555 1_555
C37_2 C36_2 1_555 1_555
H28_2 C37_2 1_555 1_555
C38_2 C37_2 1_555 1_555
H29_2 C38_2 1_555 1_555
H32_2 O32_2 1_555 1_555
H33_2 O32_2 1_555 1_555
C39_2 C38_2 1_555 1_555
H34_2 C39_2 1_555 1_555
C40_2 N6_2 1_555 1_555
C41_2 O27_2 1_555 1_555
C42_2 O29_2 1_555 1_555
Ca6 O10 1_555 1_555
C4_2 C5_2 1_555 1_555
C5_2 C7_2 1_555 1_555
C15_2 C20_2 1_555 1_555
C18_2 C19_2 1_555 1_555
C19_2 C21_2 1_555 1_555
O22_2 C28_2 1_555 1_555
C25_2 C26_2 1_555 1_555
C26_2 C28_2 1_555 1_555
C29_2 C34_2 1_555 1_555
O28 Ca6 1_555 1_555
C32_2 C33_2 1_555 1_555
C33_2 C35_2 1_555 1_555
C36_2 C41_2 1_555 1_555
C39_2 C40_2 1_555 1_555
C40_2 C42_2 1_555 1_555
O17_2 Ca6 1_555 1_555
H17_2 O17_2 1_555 1_555
H18_2 O17_2 1_555 1_555
O31_2 Ca6 1_555 1_555
H30_2 O31_2 1_555 1_555
H31_2 O31_2 1_555 1_555

#END
