
###############################################################################
#
# This file contains modified crystal structure data generated from the
# MOF subset of the Cambridge Structural Database (CSD) v543 
# hosted by the Cambridge Crystallographic Data Centre (CCDC).
#
# This work is licensed under the Creative Commons
# Attribution-NonCommercial-ShareAlike 4.0 International License.
# To view a copy of this license, visit
# http://creativecommons.org/licenses/by-nc-sa/4.0/
# or send a letter to
# Creative Commons, PO Box 1866, Mountain View, CA 94042, USA.
#
# CIF created using the CSD Python API on 29 September 2022
# The structure has been converted into the P1 space group
# The structure has a 3D framework
# The original CSD entry WOSNEA is in the monoclinic crystal system
# The framework has been calculated to contain at least 10.0% void space
# The void calculation uses a probe of radius 1.32A, grid spacing 0.4
#
###############################################################################

data_WOSNEA
_chemical_formula_moiety         '(C84 H84 Ca19 N12 O72 Sm4)n'
_symmetry_cell_setting           triclinic
_symmetry_space_group_name_H-M   'P 1'
_symmetry_Int_Tables_number      1
_space_group_name_Hall           'P 1'
loop_
_symmetry_equiv_pos_site_id
_symmetry_equiv_pos_as_xyz
1 x,y,z
_cell_length_a                   16.1644(8)
_cell_length_b                   9.3583(5)
_cell_length_c                   24.2607(14)
_cell_angle_alpha                90
_cell_angle_beta                 108.6940(10)
_cell_angle_gamma                90
_cell_volume                     3476.34
loop_
_atom_site_label
_atom_site_type_symbol
_atom_site_fract_x
_atom_site_fract_y
_atom_site_fract_z
H25 H 0.013228 0.363372 0.563113
H26 H 0.020907 0.542033 0.631345
Ca5 Ca -0.000000 0.000000 0.500000
Ca3 Ca 0.500000 0.00275(17) 0.250000
O17 O 0.4676(2) 0.0987(4) 0.14833(15)
H17 H 0.443085 0.179894 0.142424
H18 H 0.454015 0.055714 0.115834
O31 O 0.5324(2) 0.0987(4) 0.35167(15)
H30 H 0.556915 0.179894 0.357576
H31 H 0.545985 0.055714 0.384166
O39 O 0.4027(2) 0.2014(5) 0.24962(16)
O40 O 0.5973(2) 0.2014(5) 0.25038(16)
Sm1 Sm 0.29895(2) 0.50526(2) 0.09659(2)
Ca1 Ca 0.500000 0.000000 0.000000
O1 O 0.3394(2) 0.3297(4) 0.03489(17)
N1 N 0.4564(3) 0.5103(4) 0.0980(2)
C1 C 0.4836(3) 0.4183(5) 0.0656(3)
Ca2 Ca 0.000000 0.000000 0.000000
O2 O 0.4384(3) 0.2150(4) 0.00504(19)
N2 N 0.1728(3) 0.5126(4) 0.00064(19)
C2 C 0.5679(4) 0.4231(6) 0.0615(3)
H1 H 0.585822 0.356850 0.039102
O3 O 0.3926(2) 0.6870(4) 0.15730(18)
C3 C 0.6241(4) 0.5290(6) 0.0918(3)
H2 H 0.680033 0.536902 0.089116
N3 N 0.2635(3) 0.4911(5) 0.1912(2)
O4 O 0.5186(2) 0.8060(4) 0.19097(16)
C4 C 0.5956(3) 0.6238(6) 0.1263(3)
H3 H 0.632480 0.694443 0.147727
O5 O 0.1835(2) 0.3258(4) 0.08324(15)
C5 C 0.5107(3) 0.6102(5) 0.1280(2)
C6 C 0.4157(3) 0.3110(5) 0.0325(2)
O6 O 0.0595(2) 0.2185(4) 0.03155(17)
O7 O 0.3052(2) 0.6880(4) 0.0246(2)
C7 C 0.4722(3) 0.7102(5) 0.1620(2)
O9 O 0.3751(2) 0.3214(4) 0.16565(15)
O11 O 0.1938(3) 0.6802(6) 0.1095(2)
O12 O 0.1124(3) 0.7756(6) 0.1588(2)
C13 C 0.1160(3) 0.3122(5) 0.0387(2)
O13 O 0.6145(2) 0.0635(4) 0.08684(16)
H7 H 0.667165 0.079453 0.107321
H8 H 0.581905 0.096673 0.105171
C15 C 0.2986(3) 0.3885(8) 0.2293(2)
C16 C 0.2745(4) 0.3670(11) 0.2790(3)
H15 H 0.299742 0.294611 0.305245
C17 C 0.2120(5) 0.4567(14) 0.2880(3)
H16 H 0.194754 0.445045 0.320850
O18 O 0.3484(2) 0.9172(4) 0.21103(15)
H19 H 0.356765 0.856491 0.187356
H20 H 0.309945 0.972291 0.189226
C18 C 0.1752(5) 0.5632(12) 0.2485(3)
H21 H 0.132865 0.623751 0.253979
C19 C 0.2029(3) 0.5777(9) 0.2003(3)
C20 C 0.3648(3) 0.2953(6) 0.2149(2)
C21 C 0.1664(4) 0.6872(8) 0.1529(3)
Sm2 Sm 0.70105(2) 0.50526(2) 0.40341(2)
O19 O 0.6606(2) 0.3297(4) 0.46511(17)
N4 N 0.5436(3) 0.5103(4) 0.4020(2)
C22 C 0.5164(3) 0.4183(5) 0.4344(3)
O20 O 0.5616(3) 0.2150(4) 0.49496(19)
N5 N 0.8272(3) 0.5126(4) 0.49936(19)
C23 C 0.4321(4) 0.4231(6) 0.4385(3)
H22 H 0.414178 0.356850 0.460898
O21 O 0.6074(2) 0.6870(4) 0.34270(18)
C24 C 0.3759(4) 0.5290(6) 0.4082(3)
H23 H 0.319967 0.536902 0.410884
N6 N 0.7365(3) 0.4911(5) 0.3088(2)
O22 O 0.4814(2) 0.8060(4) 0.30903(16)
C25 C 0.4044(3) 0.6238(6) 0.3737(3)
H24 H 0.367520 0.694443 0.352273
O23 O 0.8165(2) 0.3258(4) 0.41676(15)
C26 C 0.4893(3) 0.6102(5) 0.3720(2)
C27 C 0.5843(3) 0.3110(5) 0.4675(2)
O24 O 0.9405(2) 0.2185(4) 0.46845(17)
O25 O 0.6948(2) 0.6880(4) 0.4754(2)
C28 C 0.5278(3) 0.7102(5) 0.3380(2)
O26 O 0.7465(3) 0.7965(6) 0.5623(3)
C29 C 0.8945(3) 0.4223(5) 0.5086(2)
O27 O 0.6249(2) 0.3214(4) 0.33435(15)
C30 C 0.9679(3) 0.4287(6) 0.5577(2)
C31 C 0.9722(4) 0.5344(8) 0.5982(3)
O29 O 0.8062(3) 0.6802(6) 0.3905(2)
C32 C 0.9034(4) 0.6285(9) 0.5891(3)
H27 H 0.904977 0.700612 0.615828
C33 C 0.8319(3) 0.6131(6) 0.5393(3)
O30 O 0.8876(3) 0.7756(6) 0.3412(2)
C34 C 0.8840(3) 0.3122(5) 0.4613(2)
C35 C 0.7524(4) 0.7082(7) 0.5258(4)
C36 C 0.7014(3) 0.3885(8) 0.2707(2)
C37 C 0.7255(4) 0.3670(11) 0.2210(3)
H28 H 0.700258 0.294611 0.194755
C38 C 0.7880(5) 0.4567(14) 0.2120(3)
H29 H 0.805246 0.445045 0.179150
O32 O 0.6516(2) 0.9172(4) 0.28897(15)
H32 H 0.643235 0.856491 0.312644
H33 H 0.690055 0.972291 0.310774
C39 C 0.8248(5) 0.5632(12) 0.2515(3)
H34 H 0.867135 0.623751 0.246021
C40 C 0.7971(3) 0.5777(9) 0.2997(3)
C41 C 0.6352(3) 0.2953(6) 0.2851(2)
C42 C 0.8336(4) 0.6872(8) 0.3471(3)
Ca4 Ca 0.500000 0.000000 0.500000
Ca5_2 Ca 1.000000 0.000000 0.500000
Ca1_2 Ca 0.500000 0.000000 1.000000
Ca2_2 Ca 0.000000 0.000000 1.000000
O8 O 0.2535(3) 0.7965(6) 0.9377(3)
C8 C 0.1055(3) 0.4223(5) 0.9914(2)
C9 C 0.0321(3) 0.4287(6) 0.9423(2)
C10 C 0.0278(4) 0.5344(8) 0.9018(3)
C11 C 0.0966(4) 0.6285(9) 0.9109(3)
H6 H 0.095023 0.700612 0.884172
C12 C 0.1681(3) 0.6131(6) 0.9607(3)
C14 C 0.2476(4) 0.7082(7) 0.9742(4)
O34 O 0.5845(3) 0.0856(4) 0.94631(18)
H37 H 0.621337 0.151720 0.948389
H38 H 0.541887 0.098550 0.915359
O36 O 0.0217(3) 0.0517(5) 0.9108(3)
H42 H 0.053663 0.018166 0.892121
Ca2_3 Ca 1.000000 0.000000 0.000000
Ca2_4 Ca 1.000000 0.000000 1.000000
H4 H 0.986772 0.363372 0.936887
H5 H 0.979093 0.542033 0.868655
O35 O 0.8585(3) 0.0897(5) 0.9612(3)
H39 H 0.823030 0.057274 0.977568
H40 H 0.847371 0.169624 0.943958
H41 H 0.981543 0.107906 0.891601
O35_2 O 0.1415(3) 0.0897(5) 0.5388(3)
H39_2 H 0.176970 0.057274 0.522432
H40_2 H 0.152629 0.169624 0.556042
H41_2 H 0.018457 0.107906 0.608399
O13_2 O 0.3855(2) 0.0635(4) 0.41316(16)
H7_2 H 0.332835 0.079453 0.392679
H8_2 H 0.418095 0.096673 0.394829
O34_2 O 0.4155(3) 0.0856(4) 0.55369(18)
H37_2 H 0.378663 0.151720 0.551611
H38_2 H 0.458113 0.098550 0.584641
O36_2 O 0.9783(3) 0.0517(5) 0.5892(3)
H42_2 H 0.946337 0.018166 0.607879
Ca5_3 Ca -0.000000 1.000000 0.500000
Ca1_3 Ca 0.500000 1.000000 0.000000
Ca2_5 Ca -0.000000 1.000000 0.000000
O14 O 0.4155(3) 0.9144(4) 0.05369(18)
H9 H 0.378663 0.848280 0.051611
H10 H 0.458113 0.901450 0.084641
O15 O 0.1415(3) 0.9103(5) 0.0388(3)
H11 H 0.176970 0.942726 0.022432
H12 H 0.152629 0.830376 0.056042
H13 H 0.018457 0.892094 0.108399
Ca4_2 Ca 0.500000 1.000000 0.500000
Ca5_4 Ca 1.000000 1.000000 0.500000
Ca1_4 Ca 0.500000 1.000000 1.000000
Ca2_6 Ca 0.000000 1.000000 1.000000
O33 O 0.3855(2) 0.9365(4) 0.91316(16)
H35 H 0.332835 0.920547 0.892679
H36 H 0.418095 0.903327 0.894829
O37 O 0.5616(3) 0.7850(4) 0.99496(19)
Ca2_7 Ca 1.000000 1.000000 0.000000
O16 O 0.9783(3) 0.9483(5) 0.0892(3)
H14 H 0.946337 0.981834 0.107879
Ca2_8 Ca 1.000000 1.000000 1.000000
O38 O 0.9405(2) 0.7815(4) 0.96845(17)
O16_2 O 0.0217(3) 0.9483(5) 0.4108(3)
H14_2 H 0.053663 0.981834 0.392121
O38_2 O 0.0595(2) 0.7815(4) 0.53155(17)
O14_2 O 0.5845(3) 0.9144(4) 0.44631(18)
H9_2 H 0.621337 0.848280 0.448389
H10_2 H 0.541887 0.901450 0.415359
O15_2 O 0.8585(3) 0.9103(5) 0.4612(3)
H11_2 H 0.823030 0.942726 0.477568
H12_2 H 0.847371 0.830376 0.443958
H13_2 H 0.981543 0.892094 0.391601
O33_2 O 0.6145(2) 0.9365(4) 0.58684(16)
H35_2 H 0.667165 0.920547 0.607321
H36_2 H 0.581905 0.903327 0.605171
O37_2 O 0.4384(3) 0.7850(4) 0.50504(19)
H4_2 H 0.013228 0.636628 0.063113
H5_2 H 0.020907 0.457967 0.131345
O8_2 O 0.7465(3) 0.2035(6) 0.0623(3)
C8_2 C 0.8945(3) 0.5777(5) 0.0086(2)
C9_2 C 0.9679(3) 0.5713(6) 0.0577(2)
C10_2 C 0.9722(4) 0.4656(8) 0.0982(3)
C11_2 C 0.9034(4) 0.3715(9) 0.0891(3)
H6_2 H 0.904977 0.299388 0.115828
C12_2 C 0.8319(3) 0.3869(6) 0.0393(3)
C14_2 C 0.7524(4) 0.2918(7) 0.0258(4)
Sm1_2 Sm 0.70105(2) 0.49474(2) 0.90341(2)
O1_2 O 0.6606(2) 0.6703(4) 0.96511(17)
N1_2 N 0.5436(3) 0.4897(4) 0.9020(2)
C1_2 C 0.5164(3) 0.5817(5) 0.9344(3)
N2_2 N 0.8272(3) 0.4874(4) 0.99936(19)
C2_2 C 0.4321(4) 0.5769(6) 0.9385(3)
H1_2 H 0.414178 0.643150 0.960898
O3_2 O 0.6074(2) 0.3130(4) 0.84270(18)
C3_2 C 0.3759(4) 0.4710(6) 0.9082(3)
H2_2 H 0.319967 0.463098 0.910884
N3_2 N 0.7365(3) 0.5089(5) 0.8088(2)
O4_2 O 0.4814(2) 0.1940(4) 0.80903(16)
C4_2 C 0.4044(3) 0.3762(6) 0.8737(3)
H3_2 H 0.367520 0.305557 0.852273
O5_2 O 0.8165(2) 0.6742(4) 0.91676(15)
C5_2 C 0.4893(3) 0.3898(5) 0.8720(2)
C6_2 C 0.5843(3) 0.6890(5) 0.9675(2)
O7_2 O 0.6948(2) 0.3120(4) 0.9754(2)
C7_2 C 0.5278(3) 0.2898(5) 0.8380(2)
O9_2 O 0.6249(2) 0.6786(4) 0.83435(15)
O10 O 0.5973(2) 0.7986(5) 0.75038(16)
O11_2 O 0.8062(3) 0.3198(6) 0.8905(2)
O12_2 O 0.8876(3) 0.2244(6) 0.8412(2)
C13_2 C 0.8840(3) 0.6878(5) 0.9613(2)
C15_2 C 0.7014(3) 0.6115(8) 0.7707(2)
C16_2 C 0.7255(4) 0.6330(11) 0.7210(3)
H15_2 H 0.700258 0.705389 0.694755
C17_2 C 0.7880(5) 0.5433(14) 0.7120(3)
H16_2 H 0.805246 0.554955 0.679150
O18_2 O 0.6516(2) 0.0828(4) 0.78897(15)
H19_2 H 0.643235 0.143509 0.812644
H20_2 H 0.690055 0.027709 0.810774
C18_2 C 0.8248(5) 0.4368(12) 0.7515(3)
H21_2 H 0.867135 0.376249 0.746021
C19_2 C 0.7971(3) 0.4223(9) 0.7997(3)
C20_2 C 0.6352(3) 0.7047(6) 0.7851(2)
C21_2 C 0.8336(4) 0.3128(8) 0.8471(3)
Sm2_2 Sm 0.29895(2) 0.49474(2) 0.59659(2)
O19_2 O 0.3394(2) 0.6703(4) 0.53489(17)
N4_2 N 0.4564(3) 0.4897(4) 0.5980(2)
C22_2 C 0.4836(3) 0.5817(5) 0.5656(3)
N5_2 N 0.1728(3) 0.4874(4) 0.50064(19)
C23_2 C 0.5679(4) 0.5769(6) 0.5615(3)
H22_2 H 0.585822 0.643150 0.539102
O21_2 O 0.3926(2) 0.3130(4) 0.65730(18)
C24_2 C 0.6241(4) 0.4710(6) 0.5918(3)
H23_2 H 0.680033 0.463098 0.589116
N6_2 N 0.2635(3) 0.5089(5) 0.6912(2)
O22_2 O 0.5186(2) 0.1940(4) 0.69097(16)
C25_2 C 0.5956(3) 0.3762(6) 0.6263(3)
H24_2 H 0.632480 0.305557 0.647727
O23_2 O 0.1835(2) 0.6742(4) 0.58324(15)
C26_2 C 0.5107(3) 0.3898(5) 0.6280(2)
C27_2 C 0.4157(3) 0.6890(5) 0.5325(2)
O25_2 O 0.3052(2) 0.3120(4) 0.5246(2)
C28_2 C 0.4722(3) 0.2898(5) 0.6620(2)
O26_2 O 0.2535(3) 0.2035(6) 0.4377(3)
C29_2 C 0.1055(3) 0.5777(5) 0.4914(2)
O27_2 O 0.3751(2) 0.6786(4) 0.66565(15)
C30_2 C 0.0321(3) 0.5713(6) 0.4423(2)
O28 O 0.4027(2) 0.7986(5) 0.74962(16)
C31_2 C 0.0278(4) 0.4656(8) 0.4018(3)
O29_2 O 0.1938(3) 0.3198(6) 0.6095(2)
C32_2 C 0.0966(4) 0.3715(9) 0.4109(3)
H27_2 H 0.095023 0.299388 0.384172
C33_2 C 0.1681(3) 0.3869(6) 0.4607(3)
O30_2 O 0.1124(3) 0.2244(6) 0.6588(2)
C34_2 C 0.1160(3) 0.6878(5) 0.5387(2)
C35_2 C 0.2476(4) 0.2918(7) 0.4742(4)
C36_2 C 0.2986(3) 0.6115(8) 0.7293(2)
C37_2 C 0.2745(4) 0.6330(11) 0.7790(3)
H28_2 H 0.299742 0.705389 0.805245
C38_2 C 0.2120(5) 0.5433(14) 0.7880(3)
H29_2 H 0.194754 0.554955 0.820850
O32_2 O 0.3484(2) 0.0828(4) 0.71103(15)
H32_2 H 0.356765 0.143509 0.687356
H33_2 H 0.309945 0.027709 0.689226
C39_2 C 0.1752(5) 0.4368(12) 0.7485(3)
H34_2 H 0.132865 0.376249 0.753979
C40_2 C 0.2029(3) 0.4223(9) 0.7003(3)
C41_2 C 0.3648(3) 0.7047(6) 0.7149(2)
C42_2 C 0.1664(4) 0.3128(8) 0.6529(3)
Ca6 Ca 0.500000 0.99725(17) 0.750000
O17_2 O 0.5324(2) 0.9013(4) 0.85167(15)
H17_2 H 0.556915 0.820106 0.857576
H18_2 H 0.545985 0.944286 0.884166
O31_2 O 0.4676(2) 0.9013(4) 0.64833(15)
H30_2 H 0.443085 0.820106 0.642424
H31_2 H 0.454015 0.944286 0.615834
H25_2 H 0.986772 0.636628 0.436887
H26_2 H 0.979093 0.457967 0.368655
loop_
_geom_bond_atom_site_label_1
_geom_bond_atom_site_label_2
_geom_bond_site_symmetry_1
_geom_bond_site_symmetry_2
O17 Ca3 1_555 1_555
H17 O17 1_555 1_555
H18 O17 1_555 1_555
O31 Ca3 1_555 1_555
H30 O31 1_555 1_555
H31 O31 1_555 1_555
O39 Ca3 1_555 1_555
O40 Ca3 1_555 1_555
Sm1 O1 1_555 1_555
Ca1 O2 1_555 1_555
O1 C6 1_555 1_555
N1 Sm1 1_555 1_555
C1 N1 1_555 1_555
Ca2 O6 1_555 1_555
O2 C6 1_555 1_555
N2 Sm1 1_555 1_555
C2 C1 1_555 1_555
H1 C2 1_555 1_555
O3 Sm1 1_555 1_555
C3 C2 1_555 1_555
H2 C3 1_555 1_555
N3 Sm1 1_555 1_555
O4 C7 1_555 1_555
C4 C3 1_555 1_555
H3 C4 1_555 1_555
O5 Sm1 1_555 1_555
C5 N1 1_555 1_555
C6 C1 1_555 1_555
O6 C13 1_555 1_555
O7 Sm1 1_555 1_555
C7 O3 1_555 1_555
O9 Sm1 1_555 1_555
O39 C20 1_555 1_555
O11 Sm1 1_555 1_555
O12 C21 1_555 1_555
C13 O5 1_555 1_555
O13 Ca1 1_555 1_555
H7 O13 1_555 1_555
H8 O13 1_555 1_555
C15 N3 1_555 1_555
C16 C15 1_555 1_555
H15 C16 1_555 1_555
C17 C16 1_555 1_555
H16 C17 1_555 1_555
H19 O18 1_555 1_555
H20 O18 1_555 1_555
C18 C17 1_555 1_555
H21 C18 1_555 1_555
C19 N3 1_555 1_555
C20 O9 1_555 1_555
C21 O11 1_555 1_555
Sm2 O19 1_555 1_555
O19 C27 1_555 1_555
N4 Sm2 1_555 1_555
C22 N4 1_555 1_555
O20 C27 1_555 1_555
N5 Sm2 1_555 1_555
C23 C22 1_555 1_555
H22 C23 1_555 1_555
O21 Sm2 1_555 1_555
C24 C23 1_555 1_555
H23 C24 1_555 1_555
N6 Sm2 1_555 1_555
C25 C24 1_555 1_555
H24 C25 1_555 1_555
O23 Sm2 1_555 1_555
C26 N4 1_555 1_555
C27 C22 1_555 1_555
O24 C34 1_555 1_555
O25 Sm2 1_555 1_555
C28 O21 1_555 1_555
O26 C35 1_555 1_555
C29 N5 1_555 1_555
O27 Sm2 1_555 1_555
C30 C29 1_555 1_555
O40 C41 1_555 1_555
C31 C30 1_555 1_555
O29 Sm2 1_555 1_555
C32 C31 1_555 1_555
H27 C32 1_555 1_555
C33 N5 1_555 1_555
O30 C42 1_555 1_555
C34 O23 1_555 1_555
C35 O25 1_555 1_555
C36 N6 1_555 1_555
C37 C36 1_555 1_555
H28 C37 1_555 1_555
C38 C37 1_555 1_555
H29 C38 1_555 1_555
H32 O32 1_555 1_555
H33 O32 1_555 1_555
C39 C38 1_555 1_555
H34 C39 1_555 1_555
C40 N6 1_555 1_555
C41 O27 1_555 1_555
C42 O29 1_555 1_555
Ca4 O20 1_555 1_555
Ca5_2 O24 1_555 1_555
C4 C5 1_555 1_555
C5 C7 1_555 1_555
C15 C20 1_555 1_555
C18 C19 1_555 1_555
C19 C21 1_555 1_555
O22 C28 1_555 1_555
C25 C26 1_555 1_555
C26 C28 1_555 1_555
C29 C34 1_555 1_555
C32 C33 1_555 1_555
C33 C35 1_555 1_555
C36 C41 1_555 1_555
C39 C40 1_555 1_555
C40 C42 1_555 1_555
O8 C14 1_555 1_555
C9 C8 1_555 1_555
C10 C9 1_555 1_555
C11 C10 1_555 1_555
H6 C11 1_555 1_555
O34 Ca1_2 1_555 1_555
H37 O34 1_555 1_555
H38 O34 1_555 1_555
O36 Ca2_2 1_555 1_555
H42 O36 1_555 1_555
C11 C12 1_555 1_555
C12 C14 1_555 1_555
O35 Ca2_4 1_555 1_555
H39 O35 1_555 1_555
H40 O35 1_555 1_555
O35_2 Ca5 1_555 1_555
H39_2 O35_2 1_555 1_555
H40_2 O35_2 1_555 1_555
O13_2 Ca4 1_555 1_555
H7_2 O13_2 1_555 1_555
H8_2 O13_2 1_555 1_555
O34_2 Ca4 1_555 1_555
H37_2 O34_2 1_555 1_555
H38_2 O34_2 1_555 1_555
O36_2 Ca5_2 1_555 1_555
H42_2 O36_2 1_555 1_555
O14 Ca1_3 1_555 1_555
H9 O14 1_555 1_555
H10 O14 1_555 1_555
O15 Ca2_5 1_555 1_555
H11 O15 1_555 1_555
H12 O15 1_555 1_555
O33 Ca1_4 1_555 1_555
H35 O33 1_555 1_555
H36 O33 1_555 1_555
O37 Ca1_4 1_555 1_555
O16 Ca2_7 1_555 1_555
H14 O16 1_555 1_555
O38 Ca2_8 1_555 1_555
O16_2 Ca5_3 1_555 1_555
H14_2 O16_2 1_555 1_555
O38_2 Ca5_3 1_555 1_555
O14_2 Ca4_2 1_555 1_555
H9_2 O14_2 1_555 1_555
H10_2 O14_2 1_555 1_555
O15_2 Ca5_4 1_555 1_555
H11_2 O15_2 1_555 1_555
H12_2 O15_2 1_555 1_555
O33_2 Ca4_2 1_555 1_555
H35_2 O33_2 1_555 1_555
H36_2 O33_2 1_555 1_555
O37_2 Ca4_2 1_555 1_555
O8_2 C14_2 1_555 1_555
C9_2 C8_2 1_555 1_555
C10_2 C9_2 1_555 1_555
C11_2 C10_2 1_555 1_555
H6_2 C11_2 1_555 1_555
C11_2 C12_2 1_555 1_555
C12_2 C14_2 1_555 1_555
Sm1_2 O1_2 1_555 1_555
O1_2 C6_2 1_555 1_555
N1_2 Sm1_2 1_555 1_555
C1_2 N1_2 1_555 1_555
O37 C6_2 1_555 1_555
N2_2 Sm1_2 1_555 1_555
C2_2 C1_2 1_555 1_555
H1_2 C2_2 1_555 1_555
O3_2 Sm1_2 1_555 1_555
C3_2 C2_2 1_555 1_555
H2_2 C3_2 1_555 1_555
N3_2 Sm1_2 1_555 1_555
O4_2 C7_2 1_555 1_555
C4_2 C3_2 1_555 1_555
H3_2 C4_2 1_555 1_555
O5_2 Sm1_2 1_555 1_555
C5_2 N1_2 1_555 1_555
C6_2 C1_2 1_555 1_555
O38 C13_2 1_555 1_555
O7_2 Sm1_2 1_555 1_555
C7_2 O3_2 1_555 1_555
O9_2 Sm1_2 1_555 1_555
O10 C20_2 1_555 1_555
O11_2 Sm1_2 1_555 1_555
O12_2 C21_2 1_555 1_555
C13_2 O5_2 1_555 1_555
C15_2 N3_2 1_555 1_555
C16_2 C15_2 1_555 1_555
H15_2 C16_2 1_555 1_555
C17_2 C16_2 1_555 1_555
H16_2 C17_2 1_555 1_555
H19_2 O18_2 1_555 1_555
H20_2 O18_2 1_555 1_555
C18_2 C17_2 1_555 1_555
H21_2 C18_2 1_555 1_555
C19_2 N3_2 1_555 1_555
C20_2 O9_2 1_555 1_555
C21_2 O11_2 1_555 1_555
Sm2_2 O19_2 1_555 1_555
O19_2 C27_2 1_555 1_555
N4_2 Sm2_2 1_555 1_555
C22_2 N4_2 1_555 1_555
O37_2 C27_2 1_555 1_555
N5_2 Sm2_2 1_555 1_555
C23_2 C22_2 1_555 1_555
H22_2 C23_2 1_555 1_555
O21_2 Sm2_2 1_555 1_555
C24_2 C23_2 1_555 1_555
H23_2 C24_2 1_555 1_555
N6_2 Sm2_2 1_555 1_555
C25_2 C24_2 1_555 1_555
H24_2 C25_2 1_555 1_555
O23_2 Sm2_2 1_555 1_555
C26_2 N4_2 1_555 1_555
C27_2 C22_2 1_555 1_555
O38_2 C34_2 1_555 1_555
O25_2 Sm2_2 1_555 1_555
C28_2 O21_2 1_555 1_555
O26_2 C35_2 1_555 1_555
C29_2 N5_2 1_555 1_555
O27_2 Sm2_2 1_555 1_555
C30_2 C29_2 1_555 1_555
O28 C41_2 1_555 1_555
C31_2 C30_2 1_555 1_555
O29_2 Sm2_2 1_555 1_555
C32_2 C31_2 1_555 1_555
H27_2 C32_2 1_555 1_555
C33_2 N5_2 1_555 1_555
O30_2 C42_2 1_555 1_555
C34_2 O23_2 1_555 1_555
C35_2 O25_2 1_555 1_555
C36_2 N6_2 1_555 1_555
C37_2 C36_2 1_555 1_555
H28_2 C37_2 1_555 1_555
C38_2 C37_2 1_555 1_555
H29_2 C38_2 1_555 1_555
H32_2 O32_2 1_555 1_555
H33_2 O32_2 1_555 1_555
C39_2 C38_2 1_555 1_555
H34_2 C39_2 1_555 1_555
C40_2 N6_2 1_555 1_555
C41_2 O27_2 1_555 1_555
C42_2 O29_2 1_555 1_555
Ca6 O10 1_555 1_555
C4_2 C5_2 1_555 1_555
C5_2 C7_2 1_555 1_555
C15_2 C20_2 1_555 1_555
C18_2 C19_2 1_555 1_555
C19_2 C21_2 1_555 1_555
O22_2 C28_2 1_555 1_555
C25_2 C26_2 1_555 1_555
C26_2 C28_2 1_555 1_555
C29_2 C34_2 1_555 1_555
O28 Ca6 1_555 1_555
C32_2 C33_2 1_555 1_555
C33_2 C35_2 1_555 1_555
C36_2 C41_2 1_555 1_555
C39_2 C40_2 1_555 1_555
C40_2 C42_2 1_555 1_555
O17_2 Ca6 1_555 1_555
H17_2 O17_2 1_555 1_555
H18_2 O17_2 1_555 1_555
O31_2 Ca6 1_555 1_555
H30_2 O31_2 1_555 1_555
H31_2 O31_2 1_555 1_555

#END
