
###############################################################################
#
# This file contains modified crystal structure data generated from the
# MOF subset of the Cambridge Structural Database (CSD) v543 
# hosted by the Cambridge Crystallographic Data Centre (CCDC).
#
# This work is licensed under the Creative Commons
# Attribution-NonCommercial-ShareAlike 4.0 International License.
# To view a copy of this license, visit
# http://creativecommons.org/licenses/by-nc-sa/4.0/
# or send a letter to
# Creative Commons, PO Box 1866, Mountain View, CA 94042, USA.
#
# CIF created using the CSD Python API on 29 September 2022
# The structure has been converted into the P1 space group
# The structure has a 3D framework
# The original CSD entry WOTVOT is in the monoclinic crystal system
# The framework has been calculated to contain at least 10.0% void space
# The void calculation uses a probe of radius 1.32A, grid spacing 0.4
# H atom positions have been added when not included in the experimental data
# Generated hydrogen atom positions removed from atoms on special positions
#
###############################################################################

data_WOTVOT
_chemical_formula_moiety         '(C72 H32 Ce8 F32 O46)n'
_symmetry_cell_setting           triclinic
_symmetry_space_group_name_H-M   'P 1'
_symmetry_Int_Tables_number      1
_space_group_name_Hall           'P 1'
loop_
_symmetry_equiv_pos_site_id
_symmetry_equiv_pos_as_xyz
1 x,y,z
_cell_length_a                   25.8200(6)
_cell_length_b                   11.60111(24)
_cell_length_c                   8.08410(18)
_cell_angle_alpha                90
_cell_angle_beta                 96.0474(21)
_cell_angle_gamma                90
_cell_volume                     2408.04
loop_
_atom_site_label
_atom_site_type_symbol
_atom_site_fract_x
_atom_site_fract_y
_atom_site_fract_z
_atom_site_U_iso_or_equiv
_atom_site_thermal_displace_type
C5 C 0.54455(27) 0.0449(9) 0.8083(20) 0.0250 Uiso
C7 C 0.500 0.1041(10) 0.750 0.0250 Uiso
F4 F 0.5862(4) 0.1019(10) 0.8744(24) 0.0250 Uiso
C10 C 0.500 0.2310(10) 0.750 0.0250 Uiso
O4 O 0.4678(9) 0.2844(10) 0.824(4) 0.0250 Uiso
C15 C 0.45545(27) 0.0449(9) 0.6917(20) 0.0250 Uiso
F8 F 0.4138(4) 0.1019(10) 0.6256(24) 0.0250 Uiso
O10 O 0.5322(9) 0.2844(10) 0.676(4) 0.0250 Uiso
Ce3 Ce 0.44122(11) 0.48686(26) 0.8480(4) 0.0235 Uiso
Ce4 Ce 0.55878(11) 0.48686(26) 0.6520(4) 0.0235 Uiso
O6 O 0.3713(10) 0.3454(21) 0.0185(30) 0.0250 Uiso
Ce5 Ce 0.55878(11) 0.51314(26) 0.1520(4) 0.0235 Uiso
O19 O 0.4624(8) 0.5088(31) 0.0792(14) 0.0250 Uiso
H2 H 0.382677 0.345725 0.139726 . .
C1 C 0.2165(6) 0.2743(22) 0.5952(30) 0.0250 Uiso
C2 C 0.2579(4) 0.3445(9) 0.6094(12) 0.0250 Uiso
C3 C 0.2963(5) 0.3181(17) 0.5065(23) 0.0250 Uiso
F1 F 0.2702(6) 0.4030(14) 0.7501(15) 0.0250 Uiso
F2 F 0.1811(6) 0.2817(14) 0.7049(17) 0.0250 Uiso
C4 C 0.3476(4) 0.3707(13) 0.5374(19) 0.0250 Uiso
O1 O 0.3651(9) 0.3861(19) 0.6841(21) 0.0250 Uiso
O2 O 0.3660(7) 0.4246(16) 0.4256(22) 0.0250 Uiso
C6 C 0.54451(25) 0.9264(9) 0.8090(25) 0.0250 Uiso
C8 C 0.500 0.8671(10) 0.750 0.0250 Uiso
F3 F 0.5881(4) 0.8698(10) 0.8524(24) 0.0250 Uiso
C9 C 0.500 0.7401(10) 0.750 0.0250 Uiso
O3 O 0.4689(10) 0.6869(10) 0.827(4) 0.0250 Uiso
O5 O 0.4624(8) 0.4912(31) 0.5792(14) 0.0250 Uiso
C11 C 0.2835(6) 0.2257(22) 0.4048(30) 0.0250 Uiso
C12 C 0.2421(4) 0.1555(9) 0.3906(12) 0.0250 Uiso
C13 C 0.2037(5) 0.1819(17) 0.4935(23) 0.0250 Uiso
F5 F 0.2298(6) 0.0970(14) 0.2499(15) 0.0250 Uiso
F6 F 0.3189(6) 0.2183(14) 0.2951(17) 0.0250 Uiso
C14 C 0.1524(4) 0.1293(13) 0.4626(19) 0.0250 Uiso
O7 O 0.1349(9) 0.1139(19) 0.3159(21) 0.0250 Uiso
O8 O 0.1340(7) 0.0754(16) 0.5744(22) 0.0250 Uiso
C16 C 0.45549(25) 0.9264(9) 0.6910(25) 0.0250 Uiso
F7 F 0.4119(4) 0.8698(10) 0.6476(24) 0.0250 Uiso
O9 O 0.5311(10) 0.6869(10) 0.673(4) 0.0250 Uiso
O11 O 0.5376(8) 0.4912(31) 0.9208(14) 0.0250 Uiso
O12 O 0.6287(10) 0.3454(21) 0.4815(30) 0.0250 Uiso
O13 O 0.6349(9) 0.3861(19) 0.8159(21) 0.0250 Uiso
O14 O 0.6340(7) 0.5754(16) 0.5744(22) 0.0250 Uiso
O15 O 0.3660(7) 0.5754(16) 0.9256(22) 0.0250 Uiso
Ce6 Ce 0.44122(11) 0.51314(26) 0.3480(4) 0.0235 Uiso
Ce8 Ce 0.05878(11) 0.01314(26) 0.1520(4) 0.0235 Uiso
O18 O 0.5376(8) 0.5088(31) 0.4208(14) 0.0250 Uiso
H1 H 0.371836 0.265206 0.975773 . .
Ce7 Ce 0.05878(11) 0.98686(26) 0.6520(4) 0.0235 Uiso
O2_2 O 0.6340(7) 0.4246(16) 0.0744(22) 0.0250 Uiso
C11_2 C 0.7165(6) 0.2257(22) 0.0952(30) 0.0250 Uiso
C12_2 C 0.7579(4) 0.1555(9) 0.1094(12) 0.0250 Uiso
C13_2 C 0.7963(5) 0.1819(17) 0.0065(23) 0.0250 Uiso
F5_2 F 0.7702(6) 0.0970(14) 0.2501(15) 0.0250 Uiso
F6_2 F 0.6811(6) 0.2183(14) 0.2049(17) 0.0250 Uiso
C14_2 C 0.8476(4) 0.1293(13) 0.0374(19) 0.0250 Uiso
O7_2 O 0.8651(9) 0.1139(19) 0.1841(21) 0.0250 Uiso
Ce8_2 Ce 0.94122(11) 0.01314(26) 0.3480(4) 0.0235 Uiso
H3 H 0.374252 0.366881 0.138026 . .
C1_2 C 0.7835(6) 0.2743(22) 0.9048(30) 0.0250 Uiso
C2_2 C 0.7421(4) 0.3445(9) 0.8906(12) 0.0250 Uiso
C3_2 C 0.7037(5) 0.3181(17) 0.9935(23) 0.0250 Uiso
F1_2 F 0.7298(6) 0.4030(14) 0.7499(15) 0.0250 Uiso
F2_2 F 0.8189(6) 0.2817(14) 0.7951(17) 0.0250 Uiso
C4_2 C 0.6524(4) 0.3707(13) 0.9626(19) 0.0250 Uiso
O8_2 O 0.8660(7) 0.0754(16) 0.9256(22) 0.0250 Uiso
H4 H 0.334948 0.35783 0.968331 . .
Ce7_2 Ce 0.94122(11) 0.98686(26) 0.8480(4) 0.0235 Uiso
C5_2 C 0.04455(27) 0.5449(9) 0.8083(20) 0.0250 Uiso
C6_2 C 0.04451(25) 0.4264(9) 0.8090(25) 0.0250 Uiso
C7_2 C -0.000 0.6041(10) 0.750 0.0250 Uiso
C8_2 C 0.000 0.3671(10) 0.750 0.0250 Uiso
F3_2 F 0.0881(4) 0.3698(10) 0.8524(24) 0.0250 Uiso
F4_2 F 0.0862(4) 0.6019(10) 0.8744(24) 0.0250 Uiso
C9_2 C 0.000 0.2401(10) 0.750 0.0250 Uiso
C10_2 C -0.000 0.7310(10) 0.750 0.0250 Uiso
O9_2 O 0.0311(10) 0.1869(10) 0.673(4) 0.0250 Uiso
O10_2 O 0.0322(9) 0.7844(10) 0.676(4) 0.0250 Uiso
O18_2 O 0.0376(8) 0.0088(31) 0.4208(14) 0.0250 Uiso
O11_2 O 0.0376(8) 0.9912(31) 0.9208(14) 0.0250 Uiso
O12_2 O 0.1287(10) 0.8454(21) 0.4815(30) 0.0250 Uiso
O13_2 O 0.1349(9) 0.8861(19) 0.8159(21) 0.0250 Uiso
O19_2 O 0.9624(8) 0.0088(31) 0.0792(14) 0.0250 Uiso
C7_3 C 1.000 0.6041(10) 0.750 0.0250 Uiso
C8_3 C 1.000 0.3671(10) 0.750 0.0250 Uiso
C9_3 C 1.000 0.2401(10) 0.750 0.0250 Uiso
O3_2 O 0.9689(10) 0.1869(10) 0.827(4) 0.0250 Uiso
C10_3 C 1.000 0.7310(10) 0.750 0.0250 Uiso
O4_2 O 0.9678(9) 0.7844(10) 0.824(4) 0.0250 Uiso
C15_2 C 0.95545(27) 0.5449(9) 0.6917(20) 0.0250 Uiso
C16_2 C 0.95549(25) 0.4264(9) 0.6910(25) 0.0250 Uiso
F7_2 F 0.9119(4) 0.3698(10) 0.6476(24) 0.0250 Uiso
F8_2 F 0.9138(4) 0.6019(10) 0.6256(24) 0.0250 Uiso
C1_3 C 0.7165(6) 0.7743(22) 0.5952(30) 0.0250 Uiso
C2_3 C 0.7579(4) 0.8445(9) 0.6094(12) 0.0250 Uiso
C3_3 C 0.7963(5) 0.8181(17) 0.5065(23) 0.0250 Uiso
F1_3 F 0.7702(6) 0.9030(14) 0.7501(15) 0.0250 Uiso
F2_3 F 0.6811(6) 0.7817(14) 0.7049(17) 0.0250 Uiso
C4_3 C 0.8476(4) 0.8707(13) 0.5374(19) 0.0250 Uiso
O1_2 O 0.8651(9) 0.8861(19) 0.6841(21) 0.0250 Uiso
O2_3 O 0.8660(7) 0.9246(16) 0.4256(22) 0.0250 Uiso
O5_2 O 0.9624(8) 0.9912(31) 0.5792(14) 0.0250 Uiso
C11_3 C 0.7835(6) 0.7257(22) 0.4048(30) 0.0250 Uiso
C12_3 C 0.7421(4) 0.6555(9) 0.3906(12) 0.0250 Uiso
C13_3 C 0.7037(5) 0.6819(17) 0.4935(23) 0.0250 Uiso
F5_3 F 0.7298(6) 0.5970(14) 0.2499(15) 0.0250 Uiso
F6_3 F 0.8189(6) 0.7183(14) 0.2951(17) 0.0250 Uiso
C14_3 C 0.6524(4) 0.6293(13) 0.4626(19) 0.0250 Uiso
O7_3 O 0.6349(9) 0.6139(19) 0.3159(21) 0.0250 Uiso
H1_2 H 0.871836 0.765206 0.975773 . .
O2_4 O 0.1340(7) 0.9246(16) 0.0744(22) 0.0250 Uiso
C11_4 C 0.2165(6) 0.7257(22) 0.0952(30) 0.0250 Uiso
C12_4 C 0.2579(4) 0.6555(9) 0.1094(12) 0.0250 Uiso
C13_4 C 0.2963(5) 0.6819(17) 0.0065(23) 0.0250 Uiso
F5_4 F 0.2702(6) 0.5970(14) 0.2501(15) 0.0250 Uiso
F6_4 F 0.1811(6) 0.7183(14) 0.2049(17) 0.0250 Uiso
C14_4 C 0.3476(4) 0.6293(13) 0.0374(19) 0.0250 Uiso
O7_4 O 0.3651(9) 0.6139(19) 0.1841(21) 0.0250 Uiso
C1_4 C 0.2835(6) 0.7743(22) 0.9048(30) 0.0250 Uiso
C2_4 C 0.2421(4) 0.8445(9) 0.8906(12) 0.0250 Uiso
C3_4 C 0.2037(5) 0.8181(17) 0.9935(23) 0.0250 Uiso
F1_4 F 0.2298(6) 0.9030(14) 0.7499(15) 0.0250 Uiso
F2_4 F 0.3189(6) 0.7817(14) 0.7951(17) 0.0250 Uiso
C4_4 C 0.1524(4) 0.8707(13) 0.9626(19) 0.0250 Uiso
H4_2 H 0.834948 0.85783 0.968331 . .
C6_3 C 0.45549(25) 0.0736(9) 0.1910(25) 0.0250 Uiso
C8_4 C 0.500 0.1329(10) 0.250 0.0250 Uiso
F3_3 F 0.4119(4) 0.1302(10) 0.1476(24) 0.0250 Uiso
C9_4 C 0.500 0.2599(10) 0.250 0.0250 Uiso
O3_3 O 0.5311(10) 0.3131(10) 0.173(4) 0.0250 Uiso
C16_3 C 0.54451(25) 0.0736(9) 0.3090(25) 0.0250 Uiso
F7_3 F 0.5881(4) 0.1302(10) 0.3524(24) 0.0250 Uiso
O9_3 O 0.4689(10) 0.3131(10) 0.327(4) 0.0250 Uiso
O12_3 O 0.3713(10) 0.6546(21) 0.5185(30) 0.0250 Uiso
O16 O 0.5322(9) 0.7156(10) 0.176(4) 0.0250 Uiso
O17 O 0.4678(9) 0.7156(10) 0.324(4) 0.0250 Uiso
H1_3 H 0.628164 0.734794 0.0242274 . .
O6_2 O 0.6287(10) 0.6546(21) 0.9815(30) 0.0250 Uiso
H2_2 H 0.617323 0.654275 0.860274 . .
C5_3 C 0.45545(27) 0.9551(9) 0.1917(20) 0.0250 Uiso
C7_4 C 0.500 0.8959(10) 0.250 0.0250 Uiso
F4_3 F 0.4138(4) 0.8981(10) 0.1256(24) 0.0250 Uiso
C10_4 C 0.500 0.7690(10) 0.250 0.0250 Uiso
C15_3 C 0.54455(27) 0.9551(9) 0.3083(20) 0.0250 Uiso
F8_3 F 0.5862(4) 0.8981(10) 0.3744(24) 0.0250 Uiso
H4_3 H 0.665052 0.64217 0.0316694 . .
H3_2 H 0.625748 0.633119 0.861974 . .
O16_2 O 0.0322(9) 0.2156(10) 0.176(4) 0.0250 Uiso
H1_4 H 0.128164 0.234794 0.0242274 . .
C7_5 C 0.000 0.3959(10) 0.250 0.0250 Uiso
C8_5 C 0.000 0.6329(10) 0.250 0.0250 Uiso
C9_5 C 0.000 0.7599(10) 0.250 0.0250 Uiso
O3_4 O 0.0311(10) 0.8131(10) 0.173(4) 0.0250 Uiso
C10_5 C 0.000 0.2690(10) 0.250 0.0250 Uiso
C15_4 C 0.04455(27) 0.4551(9) 0.3083(20) 0.0250 Uiso
C16_4 C 0.04451(25) 0.5736(9) 0.3090(25) 0.0250 Uiso
F7_4 F 0.0881(4) 0.6302(10) 0.3524(24) 0.0250 Uiso
F8_4 F 0.0862(4) 0.3981(10) 0.3744(24) 0.0250 Uiso
O12_4 O 0.8713(10) 0.1546(21) 0.5185(30) 0.0250 Uiso
O17_2 O 0.9678(9) 0.2156(10) 0.324(4) 0.0250 Uiso
C5_4 C 0.95545(27) 0.4551(9) 0.1917(20) 0.0250 Uiso
C6_4 C 0.95549(25) 0.5736(9) 0.1910(25) 0.0250 Uiso
C7_6 C 1.000 0.3959(10) 0.250 0.0250 Uiso
C8_6 C 1.000 0.6329(10) 0.250 0.0250 Uiso
F3_4 F 0.9119(4) 0.6302(10) 0.1476(24) 0.0250 Uiso
F4_4 F 0.9138(4) 0.3981(10) 0.1256(24) 0.0250 Uiso
C9_6 C 1.000 0.7599(10) 0.250 0.0250 Uiso
C10_6 C 1.000 0.2690(10) 0.250 0.0250 Uiso
O9_4 O 0.9689(10) 0.8131(10) 0.327(4) 0.0250 Uiso
H4_4 H 0.165052 0.14217 0.0316694 . .
O6_3 O 0.8713(10) 0.8454(21) 0.0185(30) 0.0250 Uiso
H2_3 H 0.882677 0.845725 0.139726 . .
H3_3 H 0.874252 0.866881 0.138026 . .
O6_4 O 0.1287(10) 0.1546(21) 0.9815(30) 0.0250 Uiso
H2_4 H 0.117323 0.154275 0.860274 . .
H3_4 H 0.125748 0.133119 0.861974 . .
loop_
_geom_bond_atom_site_label_1
_geom_bond_atom_site_label_2
_geom_bond_site_symmetry_1
_geom_bond_site_symmetry_2
C7 C5 1_555 1_555
F4 C5 1_555 1_555
C10 C7 1_555 1_555
O4 C10 1_555 1_555
C15 C7 1_555 1_555
F8 C15 1_555 1_555
O10 C10 1_555 1_555
Ce3 O4 1_555 1_555
Ce4 O10 1_555 1_555
Ce5 O19 1_555 1_555
O6 H2 1_555 1_555
C1 C2 1_555 1_555
C2 C3 1_555 1_555
C3 C4 1_555 1_555
F1 C2 1_555 1_555
F2 C1 1_555 1_555
C4 O1 1_555 1_555
O1 Ce3 1_555 1_555
O2 C4 1_555 1_555
Ce3 O3 1_555 1_555
C6 C8 1_555 1_555
C8 C9 1_555 1_555
F3 C6 1_555 1_555
C9 O3 1_555 1_555
O5 Ce3 1_555 1_555
C11 C3 1_555 1_555
C12 C11 1_555 1_555
C13 C1 1_555 1_555
F5 C12 1_555 1_555
F6 C11 1_555 1_555
C14 C13 1_555 1_555
O7 C14 1_555 1_555
O8 C14 1_555 1_555
C16 C8 1_555 1_555
F7 C16 1_555 1_555
O9 C9 1_555 1_555
Ce4 O5 1_555 1_555
O11 Ce3 1_555 1_555
O12 Ce4 1_555 1_555
O13 Ce4 1_555 1_555
O14 Ce4 1_555 1_555
O15 Ce3 1_555 1_555
Ce6 O2 1_555 1_555
Ce8 O7 1_555 1_555
O18 Ce4 1_555 1_555
O5 Ce6 1_555 1_555
C12 C13 1_555 1_555
O9 Ce4 1_555 1_555
Ce4 O11 1_555 1_555
Ce6 O18 1_555 1_555
C12_2 C11_2 1_555 1_555
F5_2 C12_2 1_555 1_555
F6_2 C11_2 1_555 1_555
C14_2 C13_2 1_555 1_555
O7_2 C14_2 1_555 1_555
Ce5 O2_2 1_555 1_555
Ce8_2 O7_2 1_555 1_555
C12_2 C13_2 1_555 1_555
O6 H3 1_555 1_555
C1_2 C2_2 1_555 1_555
C2_2 C3_2 1_555 1_555
C3_2 C4_2 1_555 1_555
F1_2 C2_2 1_555 1_555
F2_2 C1_2 1_555 1_555
C4_2 O13 1_555 1_555
C5_2 C6_2 1_555 1_555
C6_2 C8_2 1_555 1_555
C7_2 C5_2 1_555 1_555
C8_2 C9_2 1_555 1_555
F3_2 C6_2 1_555 1_555
F4_2 C5_2 1_555 1_555
C10_2 C7_2 1_555 1_555
O9_2 C9_2 1_555 1_555
O10_2 C10_2 1_555 1_555
Ce7 O10_2 1_555 1_555
O12_2 Ce7 1_555 1_555
O13_2 Ce7 1_555 1_555
Ce7 O11_2 1_555 1_555
C8_3 C9_3 1_555 1_555
C9_3 O3_2 1_555 1_555
C10_3 C7_3 1_555 1_555
O4_2 C10_3 1_555 1_555
C15_2 C7_3 1_555 1_555
C16_2 C8_3 1_555 1_555
F7_2 C16_2 1_555 1_555
F8_2 C15_2 1_555 1_555
Ce7_2 O4_2 1_555 1_555
C15_2 C16_2 1_555 1_555
C1_3 C2_3 1_555 1_555
C2_3 C3_3 1_555 1_555
C3_3 C4_3 1_555 1_555
F1_3 C2_3 1_555 1_555
F2_3 C1_3 1_555 1_555
C4_3 O1_2 1_555 1_555
O1_2 Ce7_2 1_555 1_555
O2_3 C4_3 1_555 1_555
O5_2 Ce7_2 1_555 1_555
C11_3 C3_3 1_555 1_555
C12_3 C11_3 1_555 1_555
C13_3 C1_3 1_555 1_555
F5_3 C12_3 1_555 1_555
F6_3 C11_3 1_555 1_555
C14_3 C13_3 1_555 1_555
O7_3 C14_3 1_555 1_555
O14 C14_3 1_555 1_555
Ce5 O7_3 1_555 1_555
C12_3 C13_3 1_555 1_555
C12_4 C11_4 1_555 1_555
F5_4 C12_4 1_555 1_555
F6_4 C11_4 1_555 1_555
C14_4 C13_4 1_555 1_555
O7_4 C14_4 1_555 1_555
Ce6 O7_4 1_555 1_555
C12_4 C13_4 1_555 1_555
C1_4 C2_4 1_555 1_555
C2_4 C3_4 1_555 1_555
C3_4 C4_4 1_555 1_555
F1_4 C2_4 1_555 1_555
F2_4 C1_4 1_555 1_555
C4_4 O13_2 1_555 1_555
Ce5 O3_3 1_555 1_555
C6_3 C8_4 1_555 1_555
C8_4 C9_4 1_555 1_555
F3_3 C6_3 1_555 1_555
C9_4 O3_3 1_555 1_555
O18 Ce5 1_555 1_555
C16_3 C8_4 1_555 1_555
F7_3 C16_3 1_555 1_555
O9_3 C9_4 1_555 1_555
O12_3 Ce6 1_555 1_555
O16 Ce5 1_555 1_555
O17 Ce6 1_555 1_555
O9_3 Ce6 1_555 1_555
Ce6 O19 1_555 1_555
O6_2 H2_2 1_555 1_555
C7_4 C5_3 1_555 1_555
F4_3 C5_3 1_555 1_555
C10_4 C7_4 1_555 1_555
O16 C10_4 1_555 1_555
C15_3 C7_4 1_555 1_555
F8_3 C15_3 1_555 1_555
O17 C10_4 1_555 1_555
O6_2 H3_2 1_555 1_555
O18_2 Ce8 1_555 1_555
O16_2 Ce8 1_555 1_555
C8_5 C9_5 1_555 1_555
C9_5 O3_4 1_555 1_555
C10_5 C7_5 1_555 1_555
O16_2 C10_5 1_555 1_555
C15_4 C7_5 1_555 1_555
C16_4 C8_5 1_555 1_555
F7_4 C16_4 1_555 1_555
F8_4 C15_4 1_555 1_555
C15_4 C16_4 1_555 1_555
O12_4 Ce8_2 1_555 1_555
O17_2 Ce8_2 1_555 1_555
Ce8_2 O19_2 1_555 1_555
C5_4 C6_4 1_555 1_555
C6_4 C8_6 1_555 1_555
C7_6 C5_4 1_555 1_555
C8_6 C9_6 1_555 1_555
F3_4 C6_4 1_555 1_555
F4_4 C5_4 1_555 1_555
C10_6 C7_6 1_555 1_555
O9_4 C9_6 1_555 1_555
O17_2 C10_6 1_555 1_555
O6_3 H2_3 1_555 1_555
O6_3 H3_3 1_555 1_555
O6_4 H2_4 1_555 1_555
O6_4 H3_4 1_555 1_555

#END
