
###############################################################################
#
# This file contains modified crystal structure data generated from the
# MOF subset of the Cambridge Structural Database (CSD) v543 
# hosted by the Cambridge Crystallographic Data Centre (CCDC).
#
# This work is licensed under the Creative Commons
# Attribution-NonCommercial-ShareAlike 4.0 International License.
# To view a copy of this license, visit
# http://creativecommons.org/licenses/by-nc-sa/4.0/
# or send a letter to
# Creative Commons, PO Box 1866, Mountain View, CA 94042, USA.
#
# CIF created using the CSD Python API on 29 September 2022
# The structure has been converted into the P1 space group
# The structure has a 3D framework
# The original CSD entry WOXWIS is in the trigonal crystal system
# The original CSD entry WOXWIS is in a Sohncke space group
# The framework has been calculated to contain at least 10.0% void space
# The void calculation uses a probe of radius 1.32A, grid spacing 0.4
#
###############################################################################

data_WOXWIS
_chemical_formula_moiety         '(C90 H120 Cd6 N24 O22 S6)n'
_symmetry_cell_setting           triclinic
_symmetry_space_group_name_H-M   'P 1'
_symmetry_Int_Tables_number      1
_space_group_name_Hall           'P 1'
loop_
_symmetry_equiv_pos_site_id
_symmetry_equiv_pos_as_xyz
1 x,y,z
_cell_length_a                   13.2119(9)
_cell_length_b                   13.2119(9)
_cell_length_c                   19.7637(17)
_cell_angle_alpha                90
_cell_angle_beta                 90
_cell_angle_gamma                120
_cell_volume                     2987.65
loop_
_atom_site_label
_atom_site_type_symbol
_atom_site_fract_x
_atom_site_fract_y
_atom_site_fract_z
Cd3 Cd 0.30140(13) 0.75325(9) 0.01950(5)
Cd1 Cd 0.24675(9) 0.54815(9) 0.68617(5)
O1 O 0.0520(9) 0.4957(10) 0.6836(7)
N1 N 0.2963(11) 0.5558(11) 0.4223(6)
N2 N 0.2019(10) 0.3676(10) 0.6365(5)
H1 H 0.127841 0.329076 0.629252
N3 N 0.2339(10) 0.4388(10) 0.7803(6)
H2 H 0.188676 0.445354 0.809067
N4 N 0.3914(9) 0.7173(10) 0.9292(6)
C1 C 0.1814(16) 0.5154(18) 0.4058(8)
H3 H 0.165380 0.547320 0.368234
C2 C 0.0950(15) 0.436(2) 0.4393(10)
H4 H 0.018935 0.413331 0.426218
C3 C 0.1148(16) 0.3834(19) 0.4962(9)
H5 H 0.052412 0.325255 0.520332
C4 C 0.2306(13) 0.4203(13) 0.5155(8)
C5 C 0.3179(13) 0.5077(13) 0.4751(7)
H6 H 0.395526 0.533336 0.485937
C6 C 0.2603(13) 0.3686(15) 0.5735(7)
H7 H 0.239149 0.288956 0.562233
H8 H 0.344117 0.412386 0.580634
C7 C 0.228(2) 0.3054(18) 0.6916(10)
H9 H 0.313264 0.342344 0.696877
C8 C 0.178(2) 0.1757(16) 0.6763(10)
H10 H 0.095737 0.134480 0.684623
H11 H 0.215281 0.144866 0.704923
H12 H 0.192804 0.166245 0.629776
C9 C 0.1759(17) 0.3158(14) 0.7577(7)
H13 H 0.093018 0.286734 0.751704
H14 H 0.185053 0.268466 0.792058
C10 C 0.3467(15) 0.4740(12) 0.8148(8)
H15 H 0.400390 0.471128 0.782406
H16 H 0.333552 0.418152 0.850352
C11 C 0.4022(13) 0.5943(12) 0.8450(6)
C12 C 0.5007(14) 0.6885(17) 0.8197(8)
H17 H 0.536611 0.680213 0.781293
C13 C 0.5472(17) 0.7967(17) 0.8515(9)
H18 H 0.617525 0.859638 0.837025
C14 C 0.4907(15) 0.8078(14) 0.9014(8)
H19 H 0.519137 0.881965 0.919861
C15 C 0.3500(13) 0.6140(13) 0.9005(7)
H20 H 0.282595 0.551307 0.918275
Cd2 Cd 0.45185(9) 0.69860(13) 0.35284(5)
O5 O 0.4429(13) 0.5946(10) 0.6711(5)
N5 N 0.2595(16) 0.7037(11) 0.7556(6)
N6 N 0.2827(10) 0.6741(13) 0.5959(6)
S1 S 0.9423(3) 0.3860(4) 0.68850(17)
O2 O 0.9501(10) 0.2972(10) 0.6475(6)
O3 O 0.8483(9) 0.4054(10) 0.6622(5)
O4 O 0.9237(12) 0.3521(14) 0.7589(6)
Cd4 Cd 0.69860(13) 0.45185(9) 0.64716(5)
S1_2 S 0.6140(4) 0.5563(5) 0.35517(17)
O1_2 O 0.5043(10) 0.5563(13) 0.3503(7)
O2_2 O 0.7028(10) 0.6529(14) 0.3142(6)
O3_2 O 0.5946(10) 0.4429(13) 0.3289(5)
O4_2 O 0.6479(14) 0.5716(18) 0.4256(6)
N1_2 N 0.4442(11) 0.7405(16) 0.0890(6)
N2_2 N 0.6324(10) 0.8343(14) 0.3032(5)
H1_2 H 0.670924 0.798765 0.295919
N3_2 N 0.5612(10) 0.7951(14) 0.4470(6)
H2_2 H 0.554646 0.743322 0.475734
C1_2 C 0.4846(18) 0.6660(24) 0.0725(8)
H3_2 H 0.452680 0.618060 0.034901
C2_2 C 0.564(2) 0.6590(25) 0.1060(10)
H4_2 H 0.586669 0.605604 0.092885
C3_2 C 0.6166(19) 0.7314(25) 0.1629(9)
H5_2 H 0.674745 0.727157 0.186999
C4_2 C 0.5797(13) 0.8103(18) 0.1822(8)
C5_2 C 0.4923(13) 0.8102(18) 0.1418(7)
H6_2 H 0.466664 0.862190 0.152604
C6_2 C 0.6314(15) 0.8917(20) 0.2402(7)
H7_2 H 0.711044 0.950193 0.228900
H8_2 H 0.587614 0.931731 0.247301
C7_2 C 0.6946(18) 0.9226(27) 0.3583(10)
H9_2 H 0.657656 0.970920 0.363544
H10_2 H 0.865520 0.961257 0.351290
C9_2 C 0.6842(14) 0.8601(22) 0.4244(7)
H13_2 H 0.713266 0.806284 0.418371
H14_2 H 0.731534 0.916587 0.458725
C10_2 C 0.5260(12) 0.8727(19) 0.4815(8)
H15_2 H 0.528872 0.929262 0.449073
H16_2 H 0.581848 0.915400 0.517019
C11_2 C 0.4057(12) 0.8079(18) 0.5117(6)
C12_2 C 0.3115(17) 0.8122(22) 0.4864(8)
H17_2 H 0.319787 0.856398 0.447960
C13_2 C 0.2033(17) 0.7505(24) 0.5182(9)
H18_2 H 0.140362 0.757887 0.503692
C14_2 C 0.1922(14) 0.6829(21) 0.5681(8)
H19_2 H 0.118035 0.637172 0.586528
C15_2 C 0.3860(13) 0.7360(18) 0.5672(7)
H20_2 H 0.448693 0.731288 0.584942
Cd4_2 Cd 0.54815(9) 0.24675(16) 0.31383(5)
O5_2 O 0.4054(10) 0.8483(16) 0.3378(5)
N6_2 N 0.3259(13) 0.6086(16) 0.2625(6)
O2_3 O 0.3471(14) 0.0499(10) 0.9808(6)
O3_3 O 0.5571(13) 0.1517(9) 0.9955(5)
Cd4_3 Cd 0.75325(16) 0.30140(13) 0.98050(5)
O1_3 O 0.4437(13) 0.9480(9) 0.0169(7)
N3_3 N 0.2049(14) 0.7661(10) 0.1136(6)
H2_3 H 0.256678 0.811324 0.142400
C7_3 C 0.0774(27) 0.772(2) 0.0249(10)
H9_3 H 0.029080 0.686736 0.030210
H10_3 H 0.038743 0.904263 0.017956
C9_3 C 0.1399(22) 0.8241(17) 0.0910(7)
H13_3 H 0.193716 0.906982 0.085037
H14_3 H 0.083413 0.814947 0.125391
C10_3 C 0.1273(19) 0.6533(15) 0.1481(8)
H15_3 H 0.070738 0.599610 0.115739
H16_3 H 0.084600 0.666448 0.183685
C11_3 C 0.1921(18) 0.5978(13) 0.1783(6)
C12_3 C 0.1878(22) 0.4993(14) 0.1530(8)
H17_3 H 0.143602 0.463389 0.114626
C13_3 C 0.2495(24) 0.4528(17) 0.1848(9)
H18_3 H 0.242113 0.382475 0.170358
C14_3 C 0.3171(21) 0.5093(15) 0.2347(8)
H19_3 H 0.362828 0.480863 0.253194
C15_3 C 0.2640(18) 0.6500(13) 0.2338(7)
H20_3 H 0.268712 0.717405 0.251608
O5_3 O 0.1517(16) 0.5571(13) 0.0045(5)
N2_3 N 0.1657(14) 0.7981(10) 0.9698(5)
H1_3 H 0.201235 0.872159 0.962585
C1_3 C 0.3340(24) 0.8186(16) 0.7391(8)
H3_3 H 0.381940 0.834620 0.701567
C2_3 C 0.3410(25) 0.9050(15) 0.7726(10)
H4_3 H 0.394396 0.981065 0.759551
C3_3 C 0.2686(25) 0.8852(16) 0.8295(9)
H5_3 H 0.272843 0.947588 0.853665
C4_3 C 0.1897(18) 0.7694(13) 0.8488(8)
C5_3 C 0.1898(18) 0.6821(13) 0.8084(7)
H6_3 H 0.137810 0.604474 0.819270
C6_3 C 0.1083(20) 0.7397(13) 0.9068(7)
H7_3 H 0.049807 0.760851 0.895566
H8_3 H 0.068269 0.655883 0.913967
S1_3 S 0.5563(5) 0.6140(4) 0.64483(17)
O1_4 O 0.5563(13) 0.5043(10) 0.6497(7)
O2_4 O 0.6529(14) 0.7028(10) 0.6858(6)
O4_3 O 0.5716(18) 0.6479(14) 0.5744(6)
N1_3 N 0.7405(16) 0.4442(11) 0.9110(6)
N2_4 N 0.8343(14) 0.6324(10) 0.6968(5)
H1_4 H 0.798765 0.670924 0.704081
N3_4 N 0.7951(14) 0.5612(10) 0.5530(6)
H2_4 H 0.743322 0.554646 0.524266
N4_2 N 0.6741(13) 0.2827(10) 0.4041(6)
C1_4 C 0.6660(24) 0.4846(18) 0.9275(8)
H3_4 H 0.618060 0.452680 0.965099
C2_4 C 0.6590(25) 0.564(2) 0.8940(10)
H4_4 H 0.605604 0.586669 0.907115
C3_4 C 0.7314(25) 0.6166(19) 0.8371(9)
H5_4 H 0.727157 0.674745 0.813001
C4_4 C 0.8103(18) 0.5797(13) 0.8178(8)
C5_4 C 0.8102(18) 0.4923(13) 0.8582(7)
H6_4 H 0.862190 0.466664 0.847396
C6_4 C 0.8917(20) 0.6314(15) 0.7598(7)
H7_4 H 0.950193 0.711044 0.771100
H8_4 H 0.931731 0.587614 0.752699
C7_4 C 0.9226(27) 0.6946(18) 0.6417(10)
H9_4 H 0.970920 0.657656 0.636456
H10_4 H 0.961257 0.865520 0.648710
C9_4 C 0.8601(22) 0.6842(14) 0.5756(7)
H13_4 H 0.806284 0.713266 0.581629
H14_4 H 0.916587 0.731534 0.541275
C10_4 C 0.8727(19) 0.5260(12) 0.5185(8)
H15_4 H 0.929262 0.528872 0.550927
H16_4 H 0.915400 0.581848 0.482981
C11_4 C 0.8079(18) 0.4057(12) 0.4883(6)
C12_4 C 0.8122(22) 0.3115(17) 0.5136(8)
H17_4 H 0.856398 0.319787 0.552040
C13_4 C 0.7505(24) 0.2033(17) 0.4818(9)
H18_4 H 0.757887 0.140362 0.496308
C14_4 C 0.6829(21) 0.1922(14) 0.4319(8)
H19_4 H 0.637172 0.118035 0.413472
C15_4 C 0.7360(18) 0.3860(13) 0.4328(7)
H20_4 H 0.731288 0.448693 0.415058
N5_2 N 0.5558(19) 0.2963(11) 0.5777(6)
N6_3 N 0.6086(16) 0.3259(13) 0.7375(6)
O2_5 O 0.0499(10) 0.3471(14) 0.0192(6)
N1_4 N 0.7037(11) 0.2595(16) 0.2444(6)
N2_5 N 0.7981(10) 0.1657(14) 0.0302(5)
H1_5 H 0.872159 0.201235 0.037415
C1_5 C 0.8186(16) 0.3340(24) 0.2609(8)
H3_5 H 0.834620 0.381940 0.298433
C2_5 C 0.9050(15) 0.3410(25) 0.2274(10)
H4_5 H 0.981065 0.394396 0.240449
C3_5 C 0.8852(16) 0.2686(25) 0.1705(9)
H5_5 H 0.947588 0.272843 0.146335
C4_5 C 0.7694(13) 0.1897(18) 0.1512(8)
C5_5 C 0.6821(13) 0.1898(18) 0.1916(7)
H6_5 H 0.604474 0.137810 0.180730
C6_5 C 0.7397(13) 0.1083(20) 0.0932(7)
H7_5 H 0.760851 0.049807 0.104434
H8_5 H 0.655883 0.068269 0.086033
N6_4 N 0.7173(10) 0.3914(16) 0.0708(6)
O1_5 O 0.9480(9) 0.4437(13) 0.9831(7)
N3_5 N 0.7661(10) 0.2049(14) 0.8864(6)
H2_5 H 0.811324 0.256678 0.857600
C7_5 C 0.772(2) 0.0774(27) 0.9751(10)
H9_5 H 0.686736 0.029080 0.969790
H10_5 H 0.904263 0.038743 0.982044
C9_5 C 0.8241(17) 0.1399(22) 0.9090(7)
H13_5 H 0.906982 0.193716 0.914963
H14_5 H 0.814947 0.083413 0.874609
C10_5 C 0.6533(15) 0.1273(19) 0.8519(8)
H15_5 H 0.599610 0.070738 0.884261
H16_5 H 0.666448 0.084600 0.816315
C11_5 C 0.5978(13) 0.1921(18) 0.8217(6)
C12_5 C 0.4993(14) 0.1878(22) 0.8470(8)
H17_5 H 0.463389 0.143602 0.885374
C13_5 C 0.4528(17) 0.2495(24) 0.8152(9)
H18_5 H 0.382475 0.242113 0.829642
C14_5 C 0.5093(15) 0.3171(21) 0.7653(8)
H19_5 H 0.480863 0.362828 0.746806
C15_5 C 0.6500(13) 0.2640(18) 0.7662(7)
H20_5 H 0.717405 0.268712 0.748392
O1_6 O 0.4957(10) 0.0520(9) 0.3164(7)
N2_6 N 0.3676(10) 0.2019(10) 0.3635(5)
H1_6 H 0.329076 0.127841 0.370748
N3_6 N 0.4388(10) 0.2339(10) 0.2197(6)
H2_6 H 0.445354 0.188676 0.190933
C1_6 C 0.5154(18) 0.1814(16) 0.5942(8)
H3_6 H 0.547320 0.165380 0.631766
C2_6 C 0.436(2) 0.0950(15) 0.5607(10)
H4_6 H 0.413331 0.018935 0.573782
C3_6 C 0.3834(19) 0.1148(16) 0.5038(9)
H5_6 H 0.325255 0.052412 0.479668
C4_6 C 0.4203(13) 0.2306(13) 0.4845(8)
C5_6 C 0.5077(13) 0.3179(13) 0.5249(7)
H6_6 H 0.533336 0.395526 0.514063
C6_6 C 0.3686(15) 0.2603(13) 0.4265(7)
H7_6 H 0.288956 0.239149 0.437767
H8_6 H 0.412386 0.344117 0.419366
C7_6 C 0.3054(18) 0.228(2) 0.3084(10)
H9_6 H 0.342344 0.313264 0.303123
C8_2 C 0.1757(16) 0.178(2) 0.3237(10)
H10_6 H 0.134480 0.095737 0.315377
H11_2 H 0.144866 0.215281 0.295077
H12_2 H 0.166245 0.192804 0.370224
C9_6 C 0.3158(14) 0.1759(17) 0.2423(7)
H13_6 H 0.286734 0.093018 0.248296
H14_6 H 0.268466 0.185053 0.207942
C10_6 C 0.4740(12) 0.3467(15) 0.1852(8)
H15_6 H 0.471128 0.400390 0.217594
H16_6 H 0.418152 0.333552 0.149648
C11_6 C 0.5943(12) 0.4022(13) 0.1550(6)
C12_6 C 0.6885(17) 0.5007(14) 0.1803(8)
H17_6 H 0.680213 0.536611 0.218707
C13_6 C 0.7967(17) 0.5472(17) 0.1485(9)
H18_6 H 0.859638 0.617525 0.162975
C14_6 C 0.8078(14) 0.4907(15) 0.0986(8)
H19_6 H 0.881965 0.519137 0.080139
C15_6 C 0.6140(13) 0.3500(13) 0.0995(7)
H20_6 H 0.551307 0.282595 0.081725
S1_4 S 0.3860(4) 0.9423(3) 0.31150(17)
O2_6 O 0.2972(10) 0.9501(10) 0.3525(6)
O4_4 O 0.3521(14) 0.9237(12) 0.2411(6)
C8_3 C 0.8243(16) 0.0023(26) 0.3430(10)
H11_3 H 0.855134 0.070415 0.371590
H12_3 H 0.833755 0.026559 0.296443
S1_5 S 0.4437(5) 0.0577(3) 0.02183(17)
O4_5 O 0.4284(18) 0.0763(12) 0.0922(6)
C8_4 C 0.9977(26) 0.822(2) 0.0096(10)
H11_4 H 0.929585 0.784719 0.038256
H12_4 H 0.973441 0.807196 0.963109
C8_5 C 0.0023(26) 0.8243(16) 0.6570(10)
H11_5 H 0.070415 0.855134 0.628410
H12_5 H 0.026559 0.833755 0.703557
S1_6 S 0.0577(3) 0.4437(5) 0.97817(17)
O4_6 O 0.0763(12) 0.4284(18) 0.9078(6)
H12_6 H 0.807196 0.973441 0.036891
C8_6 C 0.822(2) 0.9977(26) 0.9904(10)
H11_6 H 0.784719 0.929585 0.961744
loop_
_geom_bond_atom_site_label_1
_geom_bond_atom_site_label_2
_geom_bond_site_symmetry_1
_geom_bond_site_symmetry_2
Cd1 O1 1_555 1_555
N1 C1 1_555 1_555
N2 Cd1 1_555 1_555
H1 N2 1_555 1_555
N3 Cd1 1_555 1_555
H2 N3 1_555 1_555
N4 C14 1_555 1_555
C1 H3 1_555 1_555
C2 C1 1_555 1_555
H4 C2 1_555 1_555
C3 C2 1_555 1_555
H5 C3 1_555 1_555
C4 C3 1_555 1_555
C5 N1 1_555 1_555
H6 C5 1_555 1_555
C6 N2 1_555 1_555
H7 C6 1_555 1_555
H8 C6 1_555 1_555
C7 N2 1_555 1_555
H9 C7 1_555 1_555
C8 C7 1_555 1_555
H10 C8 1_555 1_555
H11 C8 1_555 1_555
H12 C8 1_555 1_555
C9 N3 1_555 1_555
H13 C9 1_555 1_555
H14 C9 1_555 1_555
C10 N3 1_555 1_555
H15 C10 1_555 1_555
H16 C10 1_555 1_555
C11 C10 1_555 1_555
C12 C11 1_555 1_555
H17 C12 1_555 1_555
C13 C12 1_555 1_555
H18 C13 1_555 1_555
C14 C13 1_555 1_555
H19 C14 1_555 1_555
C15 N4 1_555 1_555
H20 C15 1_555 1_555
Cd2 N1 1_555 1_555
O5 Cd1 1_555 1_555
N5 Cd1 1_555 1_555
N6 Cd1 1_555 1_555
C4 C5 1_555 1_555
C4 C6 1_555 1_555
C7 C9 1_555 1_555
C11 C15 1_555 1_555
O2 S1 1_555 1_555
O3 S1 1_555 1_555
O4 S1 1_555 1_555
Cd4 O3 1_555 1_555
Cd2 O1_2 1_555 1_555
S1_2 O1_2 1_555 1_555
O2_2 S1_2 1_555 1_555
O3_2 S1_2 1_555 1_555
O4_2 S1_2 1_555 1_555
N1_2 C1_2 1_555 1_555
N2_2 Cd2 1_555 1_555
H1_2 N2_2 1_555 1_555
N3_2 Cd2 1_555 1_555
H2_2 N3_2 1_555 1_555
N6 C14_2 1_555 1_555
C1_2 H3_2 1_555 1_555
C2_2 C1_2 1_555 1_555
H4_2 C2_2 1_555 1_555
C3_2 C2_2 1_555 1_555
H5_2 C3_2 1_555 1_555
C4_2 C3_2 1_555 1_555
C5_2 N1_2 1_555 1_555
H6_2 C5_2 1_555 1_555
C6_2 N2_2 1_555 1_555
H7_2 C6_2 1_555 1_555
H8_2 C6_2 1_555 1_555
C7_2 N2_2 1_555 1_555
H9_2 C7_2 1_555 1_555
C9_2 N3_2 1_555 1_555
H13_2 C9_2 1_555 1_555
H14_2 C9_2 1_555 1_555
C10_2 N3_2 1_555 1_555
H15_2 C10_2 1_555 1_555
H16_2 C10_2 1_555 1_555
C11_2 C10_2 1_555 1_555
C12_2 C11_2 1_555 1_555
H17_2 C12_2 1_555 1_555
C13_2 C12_2 1_555 1_555
H18_2 C13_2 1_555 1_555
C14_2 C13_2 1_555 1_555
H19_2 C14_2 1_555 1_555
C15_2 N6 1_555 1_555
H20_2 C15_2 1_555 1_555
Cd3 N1_2 1_555 1_555
Cd4_2 O3_2 1_555 1_555
O5_2 Cd2 1_555 1_555
N6_2 Cd2 1_555 1_555
C4_2 C5_2 1_555 1_555
C4_2 C6_2 1_555 1_555
C7_2 C9_2 1_555 1_555
C11_2 C15_2 1_555 1_555
Cd4_3 O3_3 1_555 1_555
Cd3 O1_3 1_555 1_555
N3_3 Cd3 1_555 1_555
H2_3 N3_3 1_555 1_555
N6_2 C14_3 1_555 1_555
H9_3 C7_3 1_555 1_555
C9_3 N3_3 1_555 1_555
H13_3 C9_3 1_555 1_555
H14_3 C9_3 1_555 1_555
C10_3 N3_3 1_555 1_555
H15_3 C10_3 1_555 1_555
H16_3 C10_3 1_555 1_555
C11_3 C10_3 1_555 1_555
C12_3 C11_3 1_555 1_555
H17_3 C12_3 1_555 1_555
C13_3 C12_3 1_555 1_555
H18_3 C13_3 1_555 1_555
C14_3 C13_3 1_555 1_555
H19_3 C14_3 1_555 1_555
C15_3 N6_2 1_555 1_555
H20_3 C15_3 1_555 1_555
O5_3 Cd3 1_555 1_555
C7_3 C9_3 1_555 1_555
C11_3 C15_3 1_555 1_555
N5 C1_3 1_555 1_555
H1_3 N2_3 1_555 1_555
C1_3 H3_3 1_555 1_555
C2_3 C1_3 1_555 1_555
H4_3 C2_3 1_555 1_555
C3_3 C2_3 1_555 1_555
H5_3 C3_3 1_555 1_555
C4_3 C3_3 1_555 1_555
C5_3 N5 1_555 1_555
H6_3 C5_3 1_555 1_555
C6_3 N2_3 1_555 1_555
H7_3 C6_3 1_555 1_555
H8_3 C6_3 1_555 1_555
C4_3 C5_3 1_555 1_555
C4_3 C6_3 1_555 1_555
Cd4 O1_4 1_555 1_555
S1_3 O1_4 1_555 1_555
O2_4 S1_3 1_555 1_555
O5 S1_3 1_555 1_555
O4_3 S1_3 1_555 1_555
N1_3 C1_4 1_555 1_555
N2_4 Cd4 1_555 1_555
H1_4 N2_4 1_555 1_555
N3_4 Cd4 1_555 1_555
H2_4 N3_4 1_555 1_555
N4_2 C14_4 1_555 1_555
C1_4 H3_4 1_555 1_555
C2_4 C1_4 1_555 1_555
H4_4 C2_4 1_555 1_555
C3_4 C2_4 1_555 1_555
H5_4 C3_4 1_555 1_555
C4_4 C3_4 1_555 1_555
C5_4 N1_3 1_555 1_555
H6_4 C5_4 1_555 1_555
C6_4 N2_4 1_555 1_555
H7_4 C6_4 1_555 1_555
H8_4 C6_4 1_555 1_555
C7_4 N2_4 1_555 1_555
H9_4 C7_4 1_555 1_555
C9_4 N3_4 1_555 1_555
H13_4 C9_4 1_555 1_555
H14_4 C9_4 1_555 1_555
C10_4 N3_4 1_555 1_555
H15_4 C10_4 1_555 1_555
H16_4 C10_4 1_555 1_555
C11_4 C10_4 1_555 1_555
C12_4 C11_4 1_555 1_555
H17_4 C12_4 1_555 1_555
C13_4 C12_4 1_555 1_555
H18_4 C13_4 1_555 1_555
C14_4 C13_4 1_555 1_555
H19_4 C14_4 1_555 1_555
C15_4 N4_2 1_555 1_555
H20_4 C15_4 1_555 1_555
Cd4_3 N1_3 1_555 1_555
Cd4_2 N4_2 1_555 1_555
N5_2 Cd4 1_555 1_555
N6_3 Cd4 1_555 1_555
C4_4 C5_4 1_555 1_555
C4_4 C6_4 1_555 1_555
C7_4 C9_4 1_555 1_555
C11_4 C15_4 1_555 1_555
N1_4 C1_5 1_555 1_555
H1_5 N2_5 1_555 1_555
C1_5 H3_5 1_555 1_555
C2_5 C1_5 1_555 1_555
H4_5 C2_5 1_555 1_555
C3_5 C2_5 1_555 1_555
H5_5 C3_5 1_555 1_555
C4_5 C3_5 1_555 1_555
C5_5 N1_4 1_555 1_555
H6_5 C5_5 1_555 1_555
C6_5 N2_5 1_555 1_555
H7_5 C6_5 1_555 1_555
H8_5 C6_5 1_555 1_555
Cd4_2 N1_4 1_555 1_555
C4_5 C5_5 1_555 1_555
C4_5 C6_5 1_555 1_555
Cd4_3 O1_5 1_555 1_555
N3_5 Cd4_3 1_555 1_555
H2_5 N3_5 1_555 1_555
N6_3 C14_5 1_555 1_555
H9_5 C7_5 1_555 1_555
C9_5 N3_5 1_555 1_555
H13_5 C9_5 1_555 1_555
H14_5 C9_5 1_555 1_555
C10_5 N3_5 1_555 1_555
H15_5 C10_5 1_555 1_555
H16_5 C10_5 1_555 1_555
C11_5 C10_5 1_555 1_555
C12_5 C11_5 1_555 1_555
H17_5 C12_5 1_555 1_555
C13_5 C12_5 1_555 1_555
H18_5 C13_5 1_555 1_555
C14_5 C13_5 1_555 1_555
H19_5 C14_5 1_555 1_555
C15_5 N6_3 1_555 1_555
H20_5 C15_5 1_555 1_555
C7_5 C9_5 1_555 1_555
C11_5 C15_5 1_555 1_555
Cd4_2 O1_6 1_555 1_555
N5_2 C1_6 1_555 1_555
N2_6 Cd4_2 1_555 1_555
H1_6 N2_6 1_555 1_555
N3_6 Cd4_2 1_555 1_555
H2_6 N3_6 1_555 1_555
N6_4 C14_6 1_555 1_555
C1_6 H3_6 1_555 1_555
C2_6 C1_6 1_555 1_555
H4_6 C2_6 1_555 1_555
C3_6 C2_6 1_555 1_555
H5_6 C3_6 1_555 1_555
C4_6 C3_6 1_555 1_555
C5_6 N5_2 1_555 1_555
H6_6 C5_6 1_555 1_555
C6_6 N2_6 1_555 1_555
H7_6 C6_6 1_555 1_555
H8_6 C6_6 1_555 1_555
C7_6 N2_6 1_555 1_555
H9_6 C7_6 1_555 1_555
C8_2 C7_6 1_555 1_555
H10_6 C8_2 1_555 1_555
H11_2 C8_2 1_555 1_555
H12_2 C8_2 1_555 1_555
C9_6 N3_6 1_555 1_555
H13_6 C9_6 1_555 1_555
H14_6 C9_6 1_555 1_555
C10_6 N3_6 1_555 1_555
H15_6 C10_6 1_555 1_555
H16_6 C10_6 1_555 1_555
C11_6 C10_6 1_555 1_555
C12_6 C11_6 1_555 1_555
H17_6 C12_6 1_555 1_555
C13_6 C12_6 1_555 1_555
H18_6 C13_6 1_555 1_555
C14_6 C13_6 1_555 1_555
H19_6 C14_6 1_555 1_555
C15_6 N6_4 1_555 1_555
H20_6 C15_6 1_555 1_555
C4_6 C5_6 1_555 1_555
C4_6 C6_6 1_555 1_555
C7_6 C9_6 1_555 1_555
C11_6 C15_6 1_555 1_555
O2_6 S1_4 1_555 1_555
O5_2 S1_4 1_555 1_555
O4_4 S1_4 1_555 1_555
H11_3 C8_3 1_555 1_555
H12_3 C8_3 1_555 1_555
O4_5 S1_5 1_555 1_555
H11_4 C8_4 1_555 1_555
H11_5 C8_5 1_555 1_555
H12_5 C8_5 1_555 1_555
O4_6 S1_6 1_555 1_555
H11_6 C8_6 1_555 1_555

#END
