
###############################################################################
#
# This file contains modified crystal structure data generated from the
# MOF subset of the Cambridge Structural Database (CSD) v543 
# hosted by the Cambridge Crystallographic Data Centre (CCDC).
#
# This work is licensed under the Creative Commons
# Attribution-NonCommercial-ShareAlike 4.0 International License.
# To view a copy of this license, visit
# http://creativecommons.org/licenses/by-nc-sa/4.0/
# or send a letter to
# Creative Commons, PO Box 1866, Mountain View, CA 94042, USA.
#
# CIF created using the CSD Python API on 29 September 2022
# The structure has been converted into the P1 space group
# The structure has a 3D framework
# The original CSD entry WOYWEO is in the triclinic crystal system
# The framework has been calculated to contain at least 10.0% void space
# The void calculation uses a probe of radius 1.32A, grid spacing 0.4
# H atom positions have been added when not included in the experimental data
#
###############################################################################

data_WOYWEO
_chemical_formula_moiety         '(C150 H132 Mn7 N24 O24)n'
_symmetry_cell_setting           triclinic
_symmetry_space_group_name_H-M   'P 1'
_symmetry_Int_Tables_number      1
_space_group_name_Hall           'P 1'
loop_
_symmetry_equiv_pos_site_id
_symmetry_equiv_pos_as_xyz
1 x,y,z
_cell_length_a                   12.281(3)
_cell_length_b                   12.919(3)
_cell_length_c                   30.425(6)
_cell_angle_alpha                94.65(3)
_cell_angle_beta                 93.93(3)
_cell_angle_gamma                92.40(3)
_cell_volume                     4794.51
loop_
_atom_site_label
_atom_site_type_symbol
_atom_site_fract_x
_atom_site_fract_y
_atom_site_fract_z
O8 O 0.52900(15) 0.42500(15) 0.56318(7)
O11 O 0.57487(16) 0.46088(17) 0.63432(7)
N9 N 0.0641(2) 0.1491(2) 0.20880(8)
N10 N 0.0486(2) 0.1450(2) 0.28733(9)
N11 N 0.0069(3) 0.0476(2) 0.29341(10)
N12 N 0.0541(3) 0.0554(2) 0.18523(9)
C2 C 0.0453(2) 0.4076(2) 0.63235(10)
C3 C 0.1641(2) 0.4102(2) 0.62721(10)
C6 C 0.5032(2) 0.4383(2) 0.60333(10)
C9 C 0.3858(2) 0.4244(2) 0.61220(10)
C20 C 0.1997(2) 0.3799(3) 0.58574(11)
H7 H 0.1478 0.3536 0.5625
C22 C 0.3513(2) 0.4517(2) 0.65410(10)
H8 H 0.4035 0.4751 0.6777
C25 C 0.3094(2) 0.3876(2) 0.57796(10)
H10 H 0.3324 0.3678 0.5494
C35 C 0.2412(2) 0.4448(3) 0.66143(10)
H16 H 0.2183 0.4637 0.6900
H27 H 0.0520 0.5401 0.5663
C48 C 0.1209(3) 0.1573(3) 0.25231(11)
H29 H 0.1603 0.2261 0.2575
H30 H 0.1759 0.1035 0.2533
C55 C 0.0292(3) 0.3096(3) 0.70363(11)
C64 C 0.0156(3) 0.2230(3) 0.18623(11)
C65 C 0.0125(3) 0.2189(3) 0.31672(11)
C72 C 0.0147(5) 0.3345(3) 0.20426(16)
H54 H 0.0886 0.3585 0.2160
C75 C 0.0496(4) 0.3315(3) 0.32046(15)
H61 H 0.1280 0.3376 0.3162
H62 H 0.0361 0.3633 0.3498
H63 H 0.0091 0.3672 0.2978
Mn8 Mn 0.70591(3) 0.43425(3) 0.58037(2)
Mn19 Mn 0.5000 0.5000 0.5000
H128 H 0.117819 0.306931 0.70442
H129 H 0.00623646 0.351682 0.733815
Mn4 Mn 0.5000 0.5000 0.0000
O5 O 0.62155(17) 0.40787(16) 0.47056(7)
O6 O 0.75790(17) 0.37675(17) 0.52024(7)
O7 O 0.63783(17) 0.42130(17) 0.02507(7)
N1 N 0.86620(18) 0.43018(18) 0.61777(8)
N2 N 0.73653(19) 0.24796(18) 0.64362(8)
N6 N 0.6896(2) 0.26758(18) 0.60319(8)
N8 N 0.88110(18) 0.37891(18) 0.65490(8)
C4 C 0.9646(2) 0.4481(2) 0.60370(10)
C7 C 0.7846(2) 0.3358(2) 0.67273(9)
H1 H 0.7305 0.3900 0.6761
H2 H 0.8043 0.3125 0.7023
C8 C 0.9887(2) 0.3637(2) 0.66461(9)
C19 C 0.6629(2) 0.1756(2) 0.58211(10)
C26 C 0.6942(2) 0.0946(2) 0.60852(10)
C28 C 0.7701(2) 0.3152(2) 0.44599(10)
C30 C 0.7116(2) 0.3712(2) 0.48172(10)
C32 C 0.7407(2) 0.1446(2) 0.64784(10)
C39 C 0.7221(2) 0.3783(2) 0.01327(10)
C40 C 0.7799(3) 0.1016(3) 0.68996(11)
H18 H 0.8599 0.1020 0.6921
H19 H 0.7501 0.0301 0.6903
H20 H 0.7554 0.1444 0.7151
C44 C 0.8688(3) 0.2592(2) 0.03569(10)
H25 H 0.8832 0.2472 0.0055
C45 C 0.9452(3) 0.1675(3) 0.34296(10)
C46 C 0.9730(3) 0.1771(3) 0.14672(10)
C47 C 0.9791(3) 0.5054(3) 0.56392(11)
H26 H 0.9713 0.4564 0.5374
H28 H 0.9236 0.5574 0.5618
C49 C 0.9093(3) 0.2269(3) 0.11174(11)
C50 C 0.7469(3) 0.3336(3) 0.40198(11)
H31 H 0.6908 0.3789 0.3945
C51 C 0.8840(3) 0.2161(3) 0.37906(11)
C52 C 0.8506(2) 0.2458(2) 0.45607(11)
H32 H 0.8676 0.2324 0.4860
C54 C 0.9056(3) 0.1965(3) 0.42284(11)
H34 H 0.9590 0.1484 0.4301
C58 C 0.7874(2) 0.3260(2) 0.04745(10)
C60 C 0.9291(3) 0.2099(2) 0.06735(10)
H40 H 0.9840 0.1644 0.0587
C62 C 0.9994(3) 0.0714(3) 0.14726(11)
C63 C 0.8047(3) 0.2865(3) 0.36890(11)
H42 H 0.7903 0.3022 0.3391
C66 C 0.6063(3) 0.1687(3) 0.53656(11)
H43 H 0.5942 0.2389 0.5278
H44 H 0.5358 0.1301 0.5366
H45 H 0.6518 0.1325 0.5156
C68 C 0.9446(3) 0.0611(3) 0.32769(12)
C69 C 0.7679(3) 0.3436(3) 0.09171(11)
H47 H 0.7131 0.3893 0.1003
C71 C 0.8281(3) 0.2949(3) 0.12345(11)
H51 H 0.8141 0.3078 0.1537
H52 H 0.9647 0.3407 0.2280
H53 H 0.9905 0.3772 0.1806
O14 O 0.31594(17) 0.43189(15) 0.08513(8)
O21 O 0.40589(18) 0.38002(16) 0.02618(7)
C80 C 0.3618(2) 0.3653(2) 0.06114(10)
C88 C 0.4528(2) 0.0941(2) 0.07989(10)
H66 H 0.5131 0.0527 0.0739
C111 C 0.4499(2) 0.1938(2) 0.06595(10)
H80 H 0.5064 0.2190 0.0492
C113 C 0.3675(2) 0.0545(2) 0.10261(10)
H85 H 0.3389 0.0416 0.1964
C117 C 0.3644(2) 0.2574(2) 0.07640(10)
C118 C 0.2825(3) 0.2198(2) 0.10062(12)
H87 H 0.2259 0.2637 0.1089
C134 C 0.2818(3) 0.1185(2) 0.11300(11)
H102 H 0.2233 0.0927 0.1285
Mn14 Mn 0.32996(3) 0.59468(3) 0.08370(2)
O27 O 0.49947(15) 0.59621(15) 0.06413(7)
O28 O 0.37845(17) 0.59213(16) 0.52944(7)
O32 O 0.47100(15) 0.57500(15) 0.43682(7)
O34 O 0.61231(18) 0.62263(16) 0.52470(7)
O35 O 0.38769(18) 0.37737(16) 0.47530(7)
O38 O 0.72964(18) 0.59749(16) 0.58213(8)
H127 H 0.993092 0.230717 0.701123
Mn2 Mn 0.67004(3) 0.40532(3) 0.91630(2)
Mn4_2 Mn 0.5000 0.5000 1.0000
O1 O 0.51789(16) 0.41113(17) 0.86430(7)
O3 O 0.50053(15) 0.40379(15) 0.93587(7)
O4 O 0.75401(16) 0.37300(16) 0.97457(7)
C1 C 0.4579(2) 0.4037(2) 0.89593(10)
C10 C 0.1096(2) 0.3704(2) 0.87234(10)
C17 C 0.3369(2) 0.3914(2) 0.88771(10)
C18 C 0.1751(2) 0.3929(2) 0.83822(10)
H6 H 0.1425 0.4009 0.8095
C24 C 0.2732(2) 0.3683(2) 0.92196(10)
H9 H 0.3063 0.3599 0.9505
C31 C 0.2880(2) 0.4036(2) 0.84633(10)
H11 H 0.3321 0.4195 0.8231
C33 C 0.1601(2) 0.3575(3) 0.91390(10)
H12 H 0.1164 0.3411 0.9372
H14 H 0.0314 0.2144 0.8002
H49 H 0.0165 0.5403 0.9221
O25 O 0.68406(17) 0.56811(15) 0.91487(8)
O29 O 0.36217(17) 0.57870(17) 0.97493(7)
O33 O 0.59411(18) 0.61998(16) 0.97382(7)
N25 N 0.64693(19) 0.23039(18) 0.89307(8)
N27 N 0.81362(19) 0.39533(19) 0.87621(8)
C16 C 0.6794(2) 0.7684(2) 0.57192(10)
C21 C 0.6733(2) 0.6546(2) 0.55858(10)
C37 C 0.6868(3) 0.9817(2) 0.59640(10)
C53 C 0.5907(3) 0.8271(2) 0.56070(11)
H33 H 0.5283 0.7947 0.5441
C57 C 0.5934(3) 0.9334(2) 0.57379(12)
H38 H 0.5315 0.9728 0.5673
C61 C 0.7703(3) 0.8153(2) 0.59579(11)
H41 H 0.8298 0.7747 0.6043
C67 C 0.7753(3) 0.9214(2) 0.60742(11)
H46 H 0.8392 0.9535 0.6230
C73 C 0.8848(4) 0.9724(3) 0.34417(15)
H55 H 0.8565 0.9240 0.3191
H56 H 0.8238 0.9977 0.3605
H57 H 0.9344 0.9365 0.3638
C74 C 0.9746(5) 0.9831(3) 0.11222(14)
H58 H 0.9892 0.9172 0.1248
H60 H 0.8976 0.9829 0.1014
N15 N 0.18133(18) 0.68243(19) 0.15648(8)
N16 N 0.32618(19) 0.80518(18) 0.14776(8)
N17 N 0.35307(19) 0.76961(18) 0.10693(8)
N19 N 0.18638(19) 0.60467(19) 0.12379(8)
C86 C 0.3614(2) 0.9459(2) 0.11396(10)
C87 C 0.0756(2) 0.7042(2) 0.16375(9)
C89 C 0.3761(2) 0.8541(2) 0.08611(10)
C90 C 0.2824(2) 0.7316(2) 0.17615(10)
H67 H 0.2696 0.7681 0.2051
H68 H 0.3360 0.6780 0.1813
C98 C 0.0107(2) 0.6380(2) 0.13430(10)
C102 C 0.3301(2) 0.9111(2) 0.15337(10)
C104 C 0.0824(2) 0.5771(2) 0.11012(10)
C109 C 0.0477(2) 0.7885(2) 0.19701(10)
H76 H 0.0704 0.8561 0.1874
H78 H 0.0857 0.7790 0.2257
C116 C 0.3131(3) 0.9689(2) 0.19676(10)
H84 H 0.3540 0.9371 0.2205
H86 H 0.2351 0.9659 0.2018
C131 C 0.4097(3) 0.8443(2) 0.03994(11)
H98 H 0.3457 0.8497 0.0193
H99 H 0.4640 0.9000 0.0361
H100 H 0.4415 0.7767 0.0340
C145 C 0.0557(3) 0.4918(3) 0.07422(12)
H111 H 0.1107 0.4392 0.0759
H113 H 0.0554 0.5206 0.0454
N3 N 0.81867(18) 0.31757(19) 0.84352(8)
N4 N 0.67382(19) 0.19482(18) 0.85224(8)
C11 C 0.6386(2) 0.0541(2) 0.88604(10)
C12 C 0.9244(2) 0.2958(2) 0.83625(9)
C14 C 0.6239(2) 0.1459(2) 0.91389(10)
C15 C 0.7176(2) 0.2684(2) 0.82385(10)
H4 H 0.7304 0.2319 0.7949
H5 H 0.6640 0.3220 0.8187
C23 C 0.9893(2) 0.3620(2) 0.86570(10)
C27 C 0.6699(2) 0.0889(2) 0.84663(10)
C29 C 0.9176(2) 0.4229(2) 0.88988(10)
C34 C 0.9523(2) 0.2115(2) 0.80299(10)
H13 H 0.9296 0.1439 0.8126
H15 H 0.9143 0.2210 0.7743
C41 C 0.6869(3) 0.0311(2) 0.80324(10)
H21 H 0.6460 0.0629 0.7795
H23 H 0.7649 0.0341 0.7982
C56 C 0.5903(3) 0.1557(2) 0.96006(11)
H35 H 0.6543 0.1503 0.9807
H36 H 0.5360 0.1000 0.9639
H37 H 0.5585 0.2233 0.9660
C70 C 0.9443(3) 0.5082(3) 0.92578(12)
H48 H 0.8893 0.5608 0.9241
H50 H 0.9446 0.4794 0.9546
O24 O 0.27036(18) 0.40251(16) 0.41787(8)
C91 C 0.3206(2) 0.2316(2) 0.42808(10)
C96 C 0.3267(2) 0.3454(2) 0.44142(10)
C112 C 0.3132(3) 0.0183(2) 0.40360(10)
C128 C 0.4093(3) 0.1729(2) 0.43930(11)
H96 H 0.4717 0.2053 0.4559
C132 C 0.4066(3) 0.0666(2) 0.42621(12)
H101 H 0.4685 0.0272 0.4327
C136 C 0.2297(3) 0.1847(2) 0.40421(11)
H104 H 0.1702 0.2253 0.3957
C142 C 0.2247(3) 0.0786(2) 0.39258(11)
H109 H 0.1608 0.0465 0.3770
C148 C 0.1152(4) 0.0276(3) 0.65583(15)
H118 H 0.1435 0.0760 0.6809
H119 H 0.1762 0.0023 0.6395
H120 H 0.0656 0.0635 0.6362
C149 C 0.0254(5) 0.0169(3) 0.88778(14)
H121 H 0.0108 0.0828 0.8752
H123 H 0.1024 0.0171 0.8986
Mn10 Mn 0.29409(3) 0.56575(3) 0.41963(2)
O13 O 0.48211(16) 0.58887(17) 0.13570(7)
O16 O 0.24599(16) 0.62700(16) 0.02543(7)
C76 C 0.5421(2) 0.5963(2) 0.10407(10)
C85 C 0.8904(2) 0.6296(2) 0.12766(10)
C92 C 0.6631(2) 0.6086(2) 0.11229(10)
C93 C 0.8249(2) 0.6071(2) 0.16178(10)
H69 H 0.8575 0.5991 0.1905
C99 C 0.7268(2) 0.6317(2) 0.07804(10)
H72 H 0.6937 0.6401 0.0495
C106 C 0.7120(2) 0.5964(2) 0.15367(10)
H74 H 0.6679 0.5805 0.1769
C108 C 0.8399(2) 0.6425(3) 0.08610(10)
H75 H 0.8836 0.6589 0.0628
H77 H 0.9686 0.7856 0.1998
H112 H 0.9835 0.4597 0.0779
C5 C 0.6382(2) 0.6347(2) 0.93886(10)
C13 C 0.5472(2) 0.9059(2) 0.92011(10)
H3 H 0.4869 0.9473 0.9261
C36 C 0.5501(2) 0.8062(2) 0.93405(10)
H17 H 0.4936 0.7810 0.9508
C38 C 0.6325(2) 0.9455(2) 0.89739(10)
H22 H 0.6611 0.9584 0.8036
C42 C 0.6356(2) 0.7426(2) 0.92360(10)
C43 C 0.7175(3) 0.7802(2) 0.89938(12)
H24 H 0.7741 0.7363 0.8911
C59 C 0.7182(3) 0.8815(2) 0.88700(11)
H39 H 0.7767 0.9073 0.8715
O18 O 0.24210(17) 0.62325(17) 0.47976(7)
N13 N 0.13380(18) 0.56982(18) 0.38223(8)
N14 N 0.26347(19) 0.75204(18) 0.35638(8)
N18 N 0.3104(2) 0.73242(18) 0.39681(8)
N20 N 0.11890(18) 0.62109(18) 0.34510(8)
C79 C 0.0354(2) 0.5519(2) 0.39630(10)
C82 C 0.2154(2) 0.6642(2) 0.32727(9)
H64 H 0.2695 0.6100 0.3239
H65 H 0.1957 0.6875 0.2977
C83 C 0.0113(2) 0.6363(2) 0.33539(9)
C94 C 0.3371(2) 0.8244(2) 0.41789(10)
C101 C 0.3058(2) 0.9054(2) 0.39148(10)
C103 C 0.2299(2) 0.6848(2) 0.55401(10)
C105 C 0.2884(2) 0.6288(2) 0.51828(10)
C107 C 0.2593(2) 0.8554(2) 0.35216(10)
C114 C 0.2779(2) 0.6217(2) 0.98673(10)
C115 C 0.2201(3) 0.8984(3) 0.31004(11)
H81 H 0.1401 0.8980 0.3079
H82 H 0.2499 0.9699 0.3097
H83 H 0.2446 0.8556 0.2849
C119 C 0.1312(3) 0.7408(2) 0.96431(10)
H88 H 0.1168 0.7528 0.9945
C120 C 0.0548(3) 0.8325(3) 0.65704(10)
C121 C 0.0270(3) 0.8229(3) 0.85328(10)
C122 C 0.0209(3) 0.4946(3) 0.43608(11)
H89 H 0.0287 0.5436 0.4626
H91 H 0.0764 0.4426 0.4382
C124 C 0.0907(3) 0.7731(3) 0.88826(11)
C125 C 0.2531(3) 0.6664(3) 0.59802(11)
H94 H 0.3092 0.6211 0.6055
C126 C 0.1160(3) 0.7839(3) 0.62094(11)
C127 C 0.1494(2) 0.7542(2) 0.54393(11)
H95 H 0.1324 0.7676 0.5140
C129 C 0.0944(3) 0.8035(3) 0.57716(11)
H97 H 0.0410 0.8516 0.5699
C133 C 0.2126(2) 0.6740(2) 0.95255(10)
C135 C 0.0709(3) 0.7901(2) 0.93265(10)
H103 H 0.0160 0.8356 0.9413
C137 C 0.0006(3) 0.9286(3) 0.85274(11)
C138 C 0.1953(3) 0.7135(3) 0.63110(11)
H105 H 0.2097 0.6978 0.6609
C141 C 0.3937(3) 0.8313(3) 0.46344(11)
H106 H 0.4058 0.7611 0.4722
H107 H 0.4642 0.8699 0.4634
H108 H 0.3482 0.8675 0.4844
C143 C 0.0554(3) 0.9389(3) 0.67231(12)
C144 C 0.2321(3) 0.6564(3) 0.90829(11)
H110 H 0.2869 0.6107 0.8997
C146 C 0.1719(3) 0.7051(3) 0.87655(11)
H114 H 0.1859 0.6922 0.8463
H115 H 0.0353 0.6593 0.7720
H116 H 0.0095 0.6228 0.8194
O37 O 0.42513(16) 0.53912(17) 0.36568(7)
H132 H 0.00690762 0.769283 0.298877
N21 N 0.9359(2) 0.8509(2) 0.79120(8)
N22 N 0.9514(2) 0.8550(2) 0.71267(9)
N23 N 0.9931(3) 0.9524(2) 0.70659(10)
N24 N 0.9459(3) 0.9446(2) 0.81477(9)
C77 C 0.9547(2) 0.5924(2) 0.36765(10)
C78 C 0.8359(2) 0.5898(2) 0.37279(10)
C81 C 0.4968(2) 0.5617(2) 0.39667(10)
C84 C 0.6142(2) 0.5756(2) 0.38780(10)
C95 C 0.8003(2) 0.6201(3) 0.41426(11)
H70 H 0.8522 0.6464 0.4375
C97 C 0.6487(2) 0.5483(2) 0.34590(10)
H71 H 0.5965 0.5249 0.3223
C100 C 0.6906(2) 0.6124(2) 0.42204(10)
H73 H 0.6676 0.6322 0.4506
C110 C 0.7588(2) 0.5552(3) 0.33857(10)
H79 H 0.7817 0.5363 0.3100
H90 H 0.9480 0.4599 0.4337
C123 C 0.8791(3) 0.8427(3) 0.74769(11)
H92 H 0.8397 0.7739 0.7425
H93 H 0.8241 0.8965 0.7467
C130 C 0.9708(3) 0.6904(3) 0.29637(11)
C139 C 0.9844(3) 0.7770(3) 0.81377(11)
C140 C 0.9875(3) 0.7811(3) 0.68328(11)
C147 C 0.9853(5) 0.6655(3) 0.79574(16)
H117 H 0.9114 0.6415 0.7840
C150 C 0.9504(4) 0.6685(3) 0.67954(15)
H124 H 0.8720 0.6624 0.6838
H125 H 0.9639 0.6367 0.6502
H126 H 0.9909 0.6328 0.7022
H130 H 0.993764 0.648318 0.266185
H131 H 0.882181 0.693069 0.29558
H59 H 0.0209 0.9918 0.0877
H122 H 0.9791 0.0082 0.9123
loop_
_geom_bond_atom_site_label_1
_geom_bond_atom_site_label_2
_geom_bond_site_symmetry_1
_geom_bond_site_symmetry_2
O8 C6 1_555 1_555
O11 C6 1_555 1_555
N9 N12 1_555 1_555
N10 N11 1_555 1_555
C2 C3 1_555 1_555
C3 C20 1_555 1_555
C6 C9 1_555 1_555
C9 C22 1_555 1_555
C20 H7 1_555 1_555
C22 H8 1_555 1_555
C25 C9 1_555 1_555
H10 C25 1_555 1_555
C35 C3 1_555 1_555
H16 C35 1_555 1_555
C48 N9 1_555 1_555
H29 C48 1_555 1_555
H30 C48 1_555 1_555
C64 N9 1_555 1_555
C65 N10 1_555 1_555
C72 C64 1_555 1_555
H54 C72 1_555 1_555
C75 C65 1_555 1_555
H61 C75 1_555 1_555
H62 C75 1_555 1_555
H63 C75 1_555 1_555
Mn8 O8 1_555 1_555
Mn19 O8 1_555 1_555
O11 Mn8 1_555 1_555
N10 C48 1_555 1_555
C20 C25 1_555 1_555
C22 C35 1_555 1_555
C55 H128 1_555 1_555
C55 H129 1_555 1_555
Mn8 O6 1_555 1_555
Mn19 O5 1_555 1_555
O5 C30 1_555 1_555
O6 C30 1_555 1_555
O7 Mn4 1_555 1_555
N1 Mn8 1_555 1_555
N2 N6 1_555 1_555
N6 Mn8 1_555 1_555
N8 N1 1_555 1_555
C4 N1 1_555 1_555
C7 N2 1_555 1_555
H1 C7 1_555 1_555
H2 C7 1_555 1_555
C8 N8 1_555 1_555
C19 N6 1_555 1_555
C26 C19 1_555 1_555
C28 C30 1_555 1_555
C32 N2 1_555 1_555
C40 C32 1_555 1_555
H18 C40 1_555 1_555
H19 C40 1_555 1_555
H20 C40 1_555 1_555
C44 H25 1_555 1_555
C45 C51 1_555 1_555
C46 C49 1_555 1_555
C47 C4 1_555 1_555
H26 C47 1_555 1_555
H28 C47 1_555 1_555
C49 C60 1_555 1_555
C50 C28 1_555 1_555
H31 C50 1_555 1_555
C51 C54 1_555 1_555
C52 C28 1_555 1_555
H32 C52 1_555 1_555
C54 C52 1_555 1_555
H34 C54 1_555 1_555
C58 C39 1_555 1_555
C60 C44 1_555 1_555
H40 C60 1_555 1_555
C62 C46 1_555 1_555
C63 C50 1_555 1_555
H42 C63 1_555 1_555
C66 C19 1_555 1_555
H43 C66 1_555 1_555
H44 C66 1_555 1_555
H45 C66 1_555 1_555
C68 C45 1_555 1_555
C69 C58 1_555 1_555
H47 C69 1_555 1_555
C71 C49 1_555 1_555
H51 C71 1_555 1_555
O14 C80 1_555 1_555
O21 Mn4 1_555 1_555
C80 O21 1_555 1_555
C88 H66 1_555 1_555
C111 C88 1_555 1_555
H80 C111 1_555 1_555
C117 C80 1_555 1_555
C118 C117 1_555 1_555
H87 C118 1_555 1_555
C134 C113 1_555 1_555
H102 C134 1_555 1_555
Mn14 O14 1_555 1_555
O27 Mn4 1_555 1_555
O28 Mn19 1_555 1_555
O32 Mn19 1_555 1_555
O34 Mn19 1_555 1_555
O35 Mn19 1_555 1_555
O38 Mn8 1_555 1_555
O7 C39 1_555 1_555
N8 C7 1_555 1_555
C26 C32 1_555 1_555
C44 C58 1_555 1_555
C51 C63 1_555 1_555
C69 C71 1_555 1_555
C88 C113 1_555 1_555
C111 C117 1_555 1_555
C118 C134 1_555 1_555
Mn14 O27 1_555 1_555
Mn2 O1 1_555 1_555
Mn4_2 O3 1_555 1_555
O1 C1 1_555 1_555
O3 Mn2 1_555 1_555
O4 Mn2 1_555 1_555
C1 O3 1_555 1_555
C10 C18 1_555 1_555
C17 C1 1_555 1_555
C18 H6 1_555 1_555
C24 C17 1_555 1_555
H9 C24 1_555 1_555
C31 C17 1_555 1_555
H11 C31 1_555 1_555
C33 C10 1_555 1_555
H12 C33 1_555 1_555
O25 Mn2 1_555 1_555
O29 Mn4_2 1_555 1_555
O33 Mn4_2 1_555 1_555
N25 Mn2 1_555 1_555
N27 Mn2 1_555 1_555
C18 C31 1_555 1_555
C24 C33 1_555 1_555
O34 C21 1_555 1_555
O38 C21 1_555 1_555
C16 C21 1_555 1_555
C53 C16 1_555 1_555
H33 C53 1_555 1_555
C57 C37 1_555 1_555
H38 C57 1_555 1_555
C61 C16 1_555 1_555
H41 C61 1_555 1_555
C67 C37 1_555 1_555
H46 C67 1_555 1_555
H55 C73 1_555 1_555
H56 C73 1_555 1_555
H57 C73 1_555 1_555
H58 C74 1_555 1_555
H60 C74 1_555 1_555
N15 N19 1_555 1_555
N16 N17 1_555 1_555
N17 C89 1_555 1_555
N19 C104 1_555 1_555
C86 C89 1_555 1_555
C87 N15 1_555 1_555
C89 C131 1_555 1_555
C90 N15 1_555 1_555
H67 C90 1_555 1_555
H68 C90 1_555 1_555
C102 N16 1_555 1_555
C104 C98 1_555 1_555
C109 C87 1_555 1_555
H76 C109 1_555 1_555
H78 C109 1_555 1_555
C116 C102 1_555 1_555
H84 C116 1_555 1_555
H86 C116 1_555 1_555
C131 H98 1_555 1_555
H99 C131 1_555 1_555
H100 C131 1_555 1_555
C145 C104 1_555 1_555
H111 C145 1_555 1_555
H113 C145 1_555 1_555
Mn14 N17 1_555 1_555
C53 C57 1_555 1_555
C61 C67 1_555 1_555
N16 C90 1_555 1_555
N19 Mn14 1_555 1_555
C86 C102 1_555 1_555
C87 C98 1_555 1_555
N3 N27 1_555 1_555
N4 N25 1_555 1_555
N25 C14 1_555 1_555
N27 C29 1_555 1_555
C11 C14 1_555 1_555
C12 N3 1_555 1_555
C14 C56 1_555 1_555
C15 N3 1_555 1_555
H4 C15 1_555 1_555
H5 C15 1_555 1_555
C27 N4 1_555 1_555
C29 C23 1_555 1_555
C34 C12 1_555 1_555
H13 C34 1_555 1_555
H15 C34 1_555 1_555
C41 C27 1_555 1_555
H21 C41 1_555 1_555
H23 C41 1_555 1_555
C56 H35 1_555 1_555
H36 C56 1_555 1_555
H37 C56 1_555 1_555
C70 C29 1_555 1_555
H48 C70 1_555 1_555
H50 C70 1_555 1_555
O35 C96 1_555 1_555
O24 C96 1_555 1_555
C91 C96 1_555 1_555
C128 C91 1_555 1_555
H96 C128 1_555 1_555
C132 C112 1_555 1_555
H101 C132 1_555 1_555
C136 C91 1_555 1_555
H104 C136 1_555 1_555
C142 C112 1_555 1_555
H109 C142 1_555 1_555
H118 C148 1_555 1_555
H119 C148 1_555 1_555
H120 C148 1_555 1_555
H121 C149 1_555 1_555
H123 C149 1_555 1_555
Mn10 O24 1_555 1_555
N4 C15 1_555 1_555
C11 C27 1_555 1_555
C12 C23 1_555 1_555
C128 C132 1_555 1_555
C136 C142 1_555 1_555
Mn14 O13 1_555 1_555
O13 C76 1_555 1_555
O16 Mn14 1_555 1_555
C76 O27 1_555 1_555
C85 C93 1_555 1_555
C92 C76 1_555 1_555
C93 H69 1_555 1_555
C99 C92 1_555 1_555
H72 C99 1_555 1_555
C106 C92 1_555 1_555
H74 C106 1_555 1_555
C108 C85 1_555 1_555
H75 C108 1_555 1_555
C93 C106 1_555 1_555
C99 C108 1_555 1_555
O25 C5 1_555 1_555
O33 C5 1_555 1_555
C5 C42 1_555 1_555
C13 H3 1_555 1_555
C36 C13 1_555 1_555
H17 C36 1_555 1_555
C42 C36 1_555 1_555
C43 C42 1_555 1_555
H24 C43 1_555 1_555
C59 C38 1_555 1_555
H39 C59 1_555 1_555
Mn10 O18 1_555 1_555
O28 C105 1_555 1_555
O18 C105 1_555 1_555
O29 C114 1_555 1_555
N13 Mn10 1_555 1_555
N14 N18 1_555 1_555
N18 Mn10 1_555 1_555
N20 N13 1_555 1_555
C79 N13 1_555 1_555
C82 N14 1_555 1_555
H64 C82 1_555 1_555
H65 C82 1_555 1_555
C83 N20 1_555 1_555
C94 N18 1_555 1_555
C101 C94 1_555 1_555
C103 C105 1_555 1_555
C107 N14 1_555 1_555
C115 C107 1_555 1_555
H81 C115 1_555 1_555
H82 C115 1_555 1_555
H83 C115 1_555 1_555
C119 H88 1_555 1_555
C120 C126 1_555 1_555
C121 C124 1_555 1_555
C122 C79 1_555 1_555
H89 C122 1_555 1_555
H91 C122 1_555 1_555
C124 C135 1_555 1_555
C125 C103 1_555 1_555
H94 C125 1_555 1_555
C126 C129 1_555 1_555
C127 C103 1_555 1_555
H95 C127 1_555 1_555
C129 C127 1_555 1_555
H97 C129 1_555 1_555
C133 C114 1_555 1_555
C135 C119 1_555 1_555
H103 C135 1_555 1_555
C137 C121 1_555 1_555
C138 C125 1_555 1_555
H105 C138 1_555 1_555
C141 C94 1_555 1_555
H106 C141 1_555 1_555
H107 C141 1_555 1_555
H108 C141 1_555 1_555
C143 C120 1_555 1_555
C144 C133 1_555 1_555
H110 C144 1_555 1_555
C146 C124 1_555 1_555
H114 C146 1_555 1_555
O32 Mn10 1_555 1_555
O37 Mn10 1_555 1_555
C13 C38 1_555 1_555
C43 C59 1_555 1_555
N20 C82 1_555 1_555
C101 C107 1_555 1_555
C119 C133 1_555 1_555
C126 C138 1_555 1_555
C144 C146 1_555 1_555
O32 C81 1_555 1_555
O37 C81 1_555 1_555
N21 N24 1_555 1_555
N22 N23 1_555 1_555
C77 C78 1_555 1_555
C78 C95 1_555 1_555
C81 C84 1_555 1_555
C84 C97 1_555 1_555
C95 H70 1_555 1_555
C97 H71 1_555 1_555
C100 C84 1_555 1_555
H73 C100 1_555 1_555
C110 C78 1_555 1_555
H79 C110 1_555 1_555
C123 N21 1_555 1_555
H92 C123 1_555 1_555
H93 C123 1_555 1_555
C139 N21 1_555 1_555
C140 N22 1_555 1_555
C147 C139 1_555 1_555
H117 C147 1_555 1_555
C150 C140 1_555 1_555
H124 C150 1_555 1_555
H125 C150 1_555 1_555
H126 C150 1_555 1_555
N22 C123 1_555 1_555
C95 C100 1_555 1_555
C97 C110 1_555 1_555
C130 H130 1_555 1_555
C130 H131 1_555 1_555

#END
