
###############################################################################
#
# This file contains modified crystal structure data generated from the
# MOF subset of the Cambridge Structural Database (CSD) v543 
# hosted by the Cambridge Crystallographic Data Centre (CCDC).
#
# This work is licensed under the Creative Commons
# Attribution-NonCommercial-ShareAlike 4.0 International License.
# To view a copy of this license, visit
# http://creativecommons.org/licenses/by-nc-sa/4.0/
# or send a letter to
# Creative Commons, PO Box 1866, Mountain View, CA 94042, USA.
#
# CIF created using the CSD Python API on 29 September 2022
# The structure has been converted into the P1 space group
# The structure has a 3D framework
# The original CSD entry WUBLOX is in the rhombohedral crystal system
# The framework has been calculated to contain at least 10.0% void space
# The void calculation uses a probe of radius 1.32A, grid spacing 0.4
#
###############################################################################

data_WUBLOX
_chemical_formula_moiety         '(C72 H18 Co6 O54)n'
_symmetry_cell_setting           triclinic
_symmetry_space_group_name_H-M   'P 1'
_symmetry_Int_Tables_number      1
_space_group_name_Hall           'P 1'
loop_
_symmetry_equiv_pos_site_id
_symmetry_equiv_pos_as_xyz
1 x,y,z
_cell_length_a                   25.8095(9)
_cell_length_b                   25.8095(9)
_cell_length_c                   6.8241(3)
_cell_angle_alpha                90
_cell_angle_beta                 90
_cell_angle_gamma                120
_cell_volume                     3936.73
loop_
_atom_site_label
_atom_site_type_symbol
_atom_site_fract_x
_atom_site_fract_y
_atom_site_fract_z
Co2 Co 0.68528(2) 0.05141(3) 0.51710(5)
O11 O 0.74858(9) 0.05892(13) 0.3291(3)
O12 O 0.60775(13) 0.02299(9) 0.6624(3)
O14 O 0.73915(9) 0.10400(13) 0.7348(3)
O1 O 0.65722(9) 0.69511(9) 0.0262(3)
O3 O 0.63515(9) 0.73915(9) 0.2652(3)
C1 C 0.65052(12) 0.73726(12) 0.0915(4)
C3 C 0.64898(13) 0.83049(13) 0.0246(4)
H1 H 0.636700 0.828184 0.157057
Co3 Co 0.63387(2) 0.68528(2) 0.48290(5)
Co5 Co 0.64805(2) 0.61526(3) 0.14957(5)
Co8 Co 0.69946(2) 0.98139(2) 0.18377(5)
O2 O 0.68966(9) 0.74858(9) 0.6709(3)
C2 C 0.67804(12) 0.78872(12) 0.7563(4)
C4 C 0.65986(12) 0.78599(12) 0.9533(4)
O4 O 0.67611(9) 0.97156(9) 0.6405(3)
O5 O 0.64367(9) 0.91809(9) 0.9958(3)
O6 O 0.69818(9) 0.92752(9) 0.4015(3)
C5 C 0.68281(12) 0.92941(12) 0.5752(4)
C6 C 0.65529(12) 0.87795(12) 0.9104(4)
C7 C 0.68435(13) 0.83618(13) 0.6421(4)
H2 H 0.696633 0.838483 0.509610
C8 C 0.67347(12) 0.88068(12) 0.7134(4)
Co4 Co 0.71808(3) 0.69946(2) 0.81623(5)
Co6 Co 0.61526(3) 0.96720(2) 0.85043(5)
O7 O 0.70456(13) 0.67611(9) 0.3595(3)
O8 O 0.63822(9) 0.62878(13) 0.6929(3)
O9 O 0.62878(13) 0.99055(9) 0.3071(3)
O10 O 0.58475(9) 0.60775(13) 0.3376(3)
Co5_2 Co 0.38474(3) 0.03280(4) 0.14957(5)
Co4_2 Co 0.30054(2) 0.01861(4) 0.81623(5)
O7_2 O 0.32389(9) 0.02844(16) 0.3595(3)
O8_2 O 0.37122(13) 0.00945(16) 0.6929(3)
O1_2 O 0.30489(9) 0.96211(13) 0.0262(3)
O3_2 O 0.26085(9) 0.89600(13) 0.2652(3)
C1_2 C 0.26274(12) 0.91326(17) 0.0915(4)
C3_2 C 0.16951(13) 0.81849(18) 0.0246(4)
H1_2 H 0.171816 0.808516 0.157057
Co3_2 Co 0.31472(2) 0.94859(3) 0.48290(5)
Co8_2 Co 0.01861(2) 0.71808(3) 0.18377(5)
O2_2 O 0.25142(9) 0.94108(13) 0.6709(3)
C2_2 C 0.21128(12) 0.88932(17) 0.7563(4)
C4_2 C 0.21401(12) 0.87387(17) 0.9533(4)
O4_2 O 0.02844(9) 0.70456(13) 0.6405(3)
O5_2 O 0.08191(9) 0.72559(13) 0.9958(3)
O6_2 O 0.07248(9) 0.77067(13) 0.4015(3)
C5_2 C 0.07059(12) 0.75341(17) 0.5752(4)
C6_2 C 0.12205(12) 0.77735(17) 0.9104(4)
C7_2 C 0.16382(13) 0.84818(18) 0.6421(4)
H2_2 H 0.161517 0.858151 0.509610
C8_2 C 0.11932(12) 0.79280(17) 0.7134(4)
Co6_2 Co 0.03280(2) 0.64805(4) 0.85043(5)
O9_2 O 0.00945(9) 0.63822(16) 0.3071(3)
O10_2 O 0.39225(13) 0.97701(16) 0.3376(3)
Co2_2 Co 0.94859(3) 0.63387(4) 0.51710(5)
O11_2 O 0.94108(13) 0.68966(16) 0.3291(3)
O12_2 O 0.97701(9) 0.58475(16) 0.6624(3)
O14_2 O 0.89600(13) 0.63515(16) 0.7348(3)
O1_3 O 0.03789(13) 0.34278(9) 0.0262(3)
O3_3 O 0.10400(13) 0.36485(9) 0.2652(3)
C1_3 C 0.08674(17) 0.34948(12) 0.0915(4)
C3_3 C 0.18151(18) 0.35102(13) 0.0246(4)
H1_3 H 0.191484 0.363300 0.157057
Co3_3 Co 0.05141(3) 0.36613(2) 0.48290(5)
Co8_3 Co 0.28192(3) 0.30054(2) 0.18377(5)
O2_3 O 0.05892(13) 0.31034(9) 0.6709(3)
C2_3 C 0.11068(17) 0.32196(12) 0.7563(4)
C4_3 C 0.12613(17) 0.34014(12) 0.9533(4)
O4_3 O 0.29544(13) 0.32389(9) 0.6405(3)
O5_3 O 0.27441(13) 0.35633(9) 0.9958(3)
O6_3 O 0.22933(13) 0.30182(9) 0.4015(3)
C5_3 C 0.24659(17) 0.31719(12) 0.5752(4)
C6_3 C 0.22265(17) 0.34471(12) 0.9104(4)
C7_3 C 0.15182(18) 0.31565(13) 0.6421(4)
H2_3 H 0.141849 0.303367 0.509610
C8_3 C 0.20720(17) 0.32653(12) 0.7134(4)
Co2_3 Co 0.36613(4) 0.31472(2) 0.51710(5)
Co6_3 Co 0.35195(4) 0.38474(3) 0.85043(5)
O9_3 O 0.36178(16) 0.37122(13) 0.3071(3)
O10_3 O 0.02299(16) 0.41525(9) 0.3376(3)
O11_3 O 0.31034(16) 0.25142(9) 0.3291(3)
O12_3 O 0.41525(16) 0.39225(13) 0.6624(3)
O14_3 O 0.36485(16) 0.26085(9) 0.7348(3)
Co5_3 Co 0.96720(4) 0.35195(2) 0.14957(5)
Co4_3 Co 0.98139(4) 0.28192(3) 0.81623(5)
O7_3 O 0.97156(16) 0.29544(13) 0.3595(3)
O8_3 O 0.99055(16) 0.36178(9) 0.6929(3)
O2_4 O 0.35633(9) 0.08191(9) 0.0042(3)
O3_4 O 0.30182(9) 0.07248(9) 0.5985(3)
C1_4 C 0.31719(12) 0.07059(12) 0.4248(4)
C2_4 C 0.34471(12) 0.12205(12) 0.0896(4)
C3_4 C 0.31565(13) 0.16382(13) 0.3579(4)
H1_4 H 0.303367 0.161517 0.490390
C4_4 C 0.32653(12) 0.11932(12) 0.2866(4)
C6_4 C 0.32196(12) 0.21128(12) 0.2437(4)
C8_4 C 0.34014(12) 0.21401(12) 0.0467(4)
O14_4 O 0.40582(9) 0.43733(13) 0.0681(3)
O4_4 O 0.34278(9) 0.30489(9) 0.9738(3)
C5_4 C 0.34948(12) 0.26274(12) 0.9085(4)
C7_4 C 0.35102(13) 0.16951(13) 0.9754(4)
H2_4 H 0.363300 0.171816 0.842943
O2_5 O 0.91809(9) 0.27441(13) 0.0042(3)
O3_5 O 0.92752(9) 0.22933(13) 0.5985(3)
C1_5 C 0.92941(12) 0.24659(17) 0.4248(4)
C2_5 C 0.87795(12) 0.22265(17) 0.0896(4)
C3_5 C 0.83618(13) 0.15182(18) 0.3579(4)
H1_5 H 0.838483 0.141849 0.490390
C4_5 C 0.88068(12) 0.20720(17) 0.2866(4)
C6_5 C 0.78872(12) 0.11068(17) 0.2437(4)
C8_5 C 0.78599(12) 0.12613(17) 0.0467(4)
O4_5 O 0.69511(9) 0.03789(13) 0.9738(3)
C5_5 C 0.73726(12) 0.08674(17) 0.9085(4)
C7_5 C 0.83049(13) 0.18151(18) 0.9754(4)
H2_5 H 0.828184 0.191484 0.842943
O14_5 O 0.56267(13) 0.96848(16) 0.0681(3)
O14_6 O 0.03152(16) 0.59418(9) 0.0681(3)
O2_6 O 0.72559(13) 0.64367(9) 0.0042(3)
O3_6 O 0.77067(13) 0.69818(9) 0.5985(3)
C1_6 C 0.75341(17) 0.68281(12) 0.4248(4)
C2_6 C 0.77735(17) 0.65529(12) 0.0896(4)
C3_6 C 0.84818(18) 0.68435(13) 0.3579(4)
H1_6 H 0.858151 0.696633 0.490390
C4_6 C 0.79280(17) 0.67347(12) 0.2866(4)
C6_6 C 0.88932(17) 0.67804(12) 0.2437(4)
C8_6 C 0.87387(17) 0.65986(12) 0.0467(4)
O4_6 O 0.96211(13) 0.65722(9) 0.9738(3)
C5_6 C 0.91326(17) 0.65052(12) 0.9085(4)
C7_6 C 0.81849(18) 0.64898(13) 0.9754(4)
H2_6 H 0.808516 0.636700 0.842943
C2_7 C 0.01137(12) 0.45539(12) 0.4230(4)
C5_7 C 0.01615(12) 0.59607(12) 0.2418(4)
C7_7 C 0.01769(13) 0.50284(13) 0.3087(4)
H2_7 H 0.029967 0.505149 0.176276
C8_7 C 0.00681(12) 0.54734(12) 0.3800(4)
O3_7 O 0.96848(9) 0.40582(9) 0.9319(3)
C1_7 C 0.98385(12) 0.40393(12) 0.7582(4)
C3_7 C 0.98231(13) 0.49716(13) 0.6913(4)
H1_7 H 0.970033 0.494851 0.823724
C4_7 C 0.99319(12) 0.45266(12) 0.6200(4)
C6_7 C 0.98863(12) 0.54461(12) 0.5770(4)
O3_8 O 0.59418(9) 0.56267(13) 0.9319(3)
C1_8 C 0.59607(12) 0.57993(17) 0.7582(4)
C2_8 C 0.54461(12) 0.55599(17) 0.4230(4)
C3_8 C 0.50284(13) 0.48516(18) 0.6913(4)
H1_8 H 0.505149 0.475183 0.823724
C4_8 C 0.54734(12) 0.54054(17) 0.6200(4)
C5_8 C 0.40393(12) 0.42007(17) 0.2418(4)
C6_8 C 0.45539(12) 0.44401(17) 0.5770(4)
C7_8 C 0.49716(13) 0.51484(18) 0.3087(4)
H2_8 H 0.494851 0.524817 0.176276
C8_8 C 0.45266(12) 0.45946(17) 0.3800(4)
O3_9 O 0.43733(13) 0.03152(9) 0.9319(3)
C1_9 C 0.42007(17) 0.01615(12) 0.7582(4)
C3_9 C 0.51484(18) 0.01769(13) 0.6913(4)
H1_9 H 0.524817 0.029967 0.823724
C4_9 C 0.45946(17) 0.00681(12) 0.6200(4)
C6_9 C 0.55599(17) 0.01137(12) 0.5770(4)
C2_9 C 0.44401(17) 0.98863(12) 0.4230(4)
C5_9 C 0.57993(17) 0.98385(12) 0.2418(4)
C7_9 C 0.48516(18) 0.98231(13) 0.3087(4)
H2_9 H 0.475183 0.970033 0.176276
C8_9 C 0.54054(17) 0.99319(12) 0.3800(4)
loop_
_geom_bond_atom_site_label_1
_geom_bond_atom_site_label_2
_geom_bond_site_symmetry_1
_geom_bond_site_symmetry_2
O11 Co2 1_555 1_555
O12 Co2 1_555 1_555
O14 Co2 1_555 1_555
O1 C1 1_555 1_555
O3 C1 1_555 1_555
C3 H1 1_555 1_555
Co3 O3 1_555 1_555
Co5 O1 1_555 1_555
Co3 O2 1_555 1_555
O2 C2 1_555 1_555
C2 C4 1_555 1_555
O4 C5 1_555 1_555
O5 C6 1_555 1_555
O6 C5 1_555 1_555
C5 C8 1_555 1_555
C7 C2 1_555 1_555
H2 C7 1_555 1_555
C8 C6 1_555 1_555
Co6 O4 1_555 1_555
Co8 O6 1_555 1_555
O7 Co3 1_555 1_555
O8 Co3 1_555 1_555
O10 Co3 1_555 1_555
O2 Co4 1_555 1_555
O5 Co6 1_555 1_555
C7 C8 1_555 1_555
Co4 O8 1_555 1_555
Co8 O9 1_555 1_555
Co4_2 O8_2 1_555 1_555
O1_2 C1_2 1_555 1_555
O3_2 C1_2 1_555 1_555
C3_2 H1_2 1_555 1_555
Co3_2 O3_2 1_555 1_555
Co3_2 O2_2 1_555 1_555
O2_2 C2_2 1_555 1_555
C2_2 C4_2 1_555 1_555
O4_2 C5_2 1_555 1_555
O5_2 C6_2 1_555 1_555
O6_2 C5_2 1_555 1_555
C5_2 C8_2 1_555 1_555
C7_2 C2_2 1_555 1_555
H2_2 C7_2 1_555 1_555
C8_2 C6_2 1_555 1_555
Co6_2 O4_2 1_555 1_555
Co8_2 O6_2 1_555 1_555
O10_2 Co3_2 1_555 1_555
O5_2 Co6_2 1_555 1_555
C7_2 C8_2 1_555 1_555
Co8_2 O9_2 1_555 1_555
O11_2 Co2_2 1_555 1_555
O12_2 Co2_2 1_555 1_555
O14_2 Co2_2 1_555 1_555
O1_3 C1_3 1_555 1_555
O3_3 C1_3 1_555 1_555
C3_3 H1_3 1_555 1_555
Co3_3 O3_3 1_555 1_555
Co3_3 O2_3 1_555 1_555
O2_3 C2_3 1_555 1_555
C2_3 C4_3 1_555 1_555
O4_3 C5_3 1_555 1_555
O5_3 C6_3 1_555 1_555
O6_3 C5_3 1_555 1_555
C5_3 C8_3 1_555 1_555
C7_3 C2_3 1_555 1_555
H2_3 C7_3 1_555 1_555
C8_3 C6_3 1_555 1_555
Co2_3 O4_3 1_555 1_555
Co6_3 O4_3 1_555 1_555
Co8_3 O6_3 1_555 1_555
O9_3 Co2_3 1_555 1_555
O10_3 Co3_3 1_555 1_555
O11_3 Co2_3 1_555 1_555
O12_3 Co2_3 1_555 1_555
O14_3 Co2_3 1_555 1_555
O5_3 Co6_3 1_555 1_555
C7_3 C8_3 1_555 1_555
Co6_3 O12_3 1_555 1_555
Co8_3 O9_3 1_555 1_555
Co8_3 O11_3 1_555 1_555
Co4_3 O8_3 1_555 1_555
O7_2 C1_4 1_555 1_555
O2_4 C2_4 1_555 1_555
O3_4 C1_4 1_555 1_555
C1_4 C4_4 1_555 1_555
C2_4 C4_4 1_555 1_555
C3_4 H1_4 1_555 1_555
C4_4 C3_4 1_555 1_555
O11_3 C6_4 1_555 1_555
C6_4 C3_4 1_555 1_555
C8_4 C6_4 1_555 1_555
Co4_2 O3_4 1_555 1_555
Co5_2 O7_2 1_555 1_555
O2_4 Co5_2 1_555 1_555
O4_4 C5_4 1_555 1_555
O14_3 C5_4 1_555 1_555
H2_4 C7_4 1_555 1_555
Co6_3 O4_4 1_555 1_555
O7_3 C1_5 1_555 1_555
O2_5 C2_5 1_555 1_555
O3_5 C1_5 1_555 1_555
C1_5 C4_5 1_555 1_555
C2_5 C4_5 1_555 1_555
C3_5 H1_5 1_555 1_555
C4_5 C3_5 1_555 1_555
O11 C6_5 1_555 1_555
C6_5 C3_5 1_555 1_555
C8_5 C6_5 1_555 1_555
Co4_3 O3_5 1_555 1_555
Co5_3 O7_3 1_555 1_555
O2_5 Co5_3 1_555 1_555
O4_5 C5_5 1_555 1_555
O14 C5_5 1_555 1_555
H2_5 C7_5 1_555 1_555
O7 C1_6 1_555 1_555
O2_6 C2_6 1_555 1_555
O3_6 C1_6 1_555 1_555
C1_6 C4_6 1_555 1_555
C2_6 C4_6 1_555 1_555
C3_6 H1_6 1_555 1_555
C4_6 C3_6 1_555 1_555
O11_2 C6_6 1_555 1_555
C6_6 C3_6 1_555 1_555
C8_6 C6_6 1_555 1_555
Co4 O3_6 1_555 1_555
Co5 O7 1_555 1_555
O2_6 Co5 1_555 1_555
O4_6 C5_6 1_555 1_555
O14_2 C5_6 1_555 1_555
H2_6 C7_6 1_555 1_555
O10_3 C2_7 1_555 1_555
O9_2 C5_7 1_555 1_555
O14_6 C5_7 1_555 1_555
C5_7 C8_7 1_555 1_555
C7_7 C2_7 1_555 1_555
H2_7 C7_7 1_555 1_555
C7_7 C8_7 1_555 1_555
O8_3 C1_7 1_555 1_555
O3_7 C1_7 1_555 1_555
C1_7 C4_7 1_555 1_555
C3_7 H1_7 1_555 1_555
C4_7 C3_7 1_555 1_555
O12_2 C6_7 1_555 1_555
C6_7 C3_7 1_555 1_555
Co5 O10 1_555 1_555
O8 C1_8 1_555 1_555
O10 C2_8 1_555 1_555
O3_8 C1_8 1_555 1_555
C1_8 C4_8 1_555 1_555
C2_8 C4_8 1_555 1_555
C3_8 H1_8 1_555 1_555
C4_8 C3_8 1_555 1_555
O9_3 C5_8 1_555 1_555
O12_3 C6_8 1_555 1_555
O14_4 C5_8 1_555 1_555
C5_8 C8_8 1_555 1_555
C6_8 C3_8 1_555 1_555
C7_8 C2_8 1_555 1_555
H2_8 C7_8 1_555 1_555
C8_8 C6_8 1_555 1_555
C7_8 C8_8 1_555 1_555
O8_2 C1_9 1_555 1_555
O3_9 C1_9 1_555 1_555
C1_9 C4_9 1_555 1_555
C3_9 H1_9 1_555 1_555
C4_9 C3_9 1_555 1_555
O12 C6_9 1_555 1_555
C6_9 C3_9 1_555 1_555
O10_2 C2_9 1_555 1_555
O9 C5_9 1_555 1_555
O14_5 C5_9 1_555 1_555
C5_9 C8_9 1_555 1_555
C7_9 C2_9 1_555 1_555
H2_9 C7_9 1_555 1_555
C7_9 C8_9 1_555 1_555

#END
