
###############################################################################
#
# This file contains modified crystal structure data generated from the
# MOF subset of the Cambridge Structural Database (CSD) v543 
# hosted by the Cambridge Crystallographic Data Centre (CCDC).
#
# This work is licensed under the Creative Commons
# Attribution-NonCommercial-ShareAlike 4.0 International License.
# To view a copy of this license, visit
# http://creativecommons.org/licenses/by-nc-sa/4.0/
# or send a letter to
# Creative Commons, PO Box 1866, Mountain View, CA 94042, USA.
#
# CIF created using the CSD Python API on 29 September 2022
# The structure has been converted into the P1 space group
# The structure has a 3D framework
# The original CSD entry WUBLUD is in the rhombohedral crystal system
# The framework has been calculated to contain at least 10.0% void space
# The void calculation uses a probe of radius 1.32A, grid spacing 0.4
#
###############################################################################

data_WUBLUD
_chemical_formula_moiety         '(C72 H18 Co5 O54)n'
_symmetry_cell_setting           triclinic
_symmetry_space_group_name_H-M   'P 1'
_symmetry_Int_Tables_number      1
_space_group_name_Hall           'P 1'
loop_
_symmetry_equiv_pos_site_id
_symmetry_equiv_pos_as_xyz
1 x,y,z
_cell_length_a                   25.892(4)
_cell_length_b                   25.892(4)
_cell_length_c                   6.8480(14)
_cell_angle_alpha                90
_cell_angle_beta                 90
_cell_angle_gamma                120
_cell_volume                     3975.81
loop_
_atom_site_label
_atom_site_type_symbol
_atom_site_fract_x
_atom_site_fract_y
_atom_site_fract_z
Co5 Co 0.01738(3) 0.71702(2) 0.19119(5)
O8 O 0.03002(13) 0.70359(9) 0.6415(3)
O9 O 0.00690(9) 0.63665(13) 0.3082(3)
Co4 Co 0.03297(2) 0.64928(3) 0.85785(5)
Co1 Co 0.94965(2) 0.63370(2) 0.52452(5)
O1 O 0.70359(9) 0.67357(9) 0.3585(3)
O2 O 0.93953(9) 0.68710(9) 0.3330(2)
O3 O 0.77000(9) 0.69793(10) 0.5951(3)
C1 C 0.75289(12) 0.68147(13) 0.4229(4)
C2 C 0.88826(13) 0.67662(13) 0.2474(3)
C3 C 0.79228(13) 0.67209(13) 0.2869(4)
C4 C 0.84638(13) 0.68150(13) 0.3602(3)
H1 H 0.855109 0.691787 0.494120
O5 O 0.72714(9) 0.64623(9) 0.0003(2)
C6 C 0.77841(13) 0.65671(13) 0.0859(3)
C7 C 0.87439(13) 0.66124(13) 0.0464(4)
Co2 Co 0.63370(2) 0.68405(3) 0.47548(5)
Co7 Co 0.71702(2) 0.69963(2) 0.80881(5)
Co8 Co 0.64928(3) 0.61632(2) 0.14215(5)
O7 O 0.63665(13) 0.62974(9) 0.6918(3)
O10 O 0.97957(9) 0.58576(13) 0.6663(2)
O11 O 0.68710(9) 0.74757(13) 0.6670(2)
O12 O 0.58576(13) 0.60620(9) 0.3337(2)
O13 O 0.63540(10) 0.73874(13) 0.2618(3)
O14 O 0.89667(9) 0.63540(10) 0.7382(3)
O4 O 0.96308(9) 0.65976(9) 0.9748(3)
C5 C 0.91378(12) 0.65186(13) 0.9104(4)
C8 C 0.82029(13) 0.65183(13) 0.9731(3)
H2 H 0.811558 0.641546 0.839213
Co1_2 Co 0.36630(2) 0.31595(3) 0.52452(5)
O1_2 O 0.32643(9) 0.03002(13) 0.3585(3)
O2_2 O 0.31290(9) 0.25243(13) 0.3330(2)
O3_2 O 0.30207(10) 0.07207(13) 0.5951(3)
C1_2 C 0.31853(13) 0.07142(18) 0.4229(4)
C2_2 C 0.32338(13) 0.21164(18) 0.2474(3)
C3_2 C 0.32791(13) 0.12019(18) 0.2869(4)
C4_2 C 0.31850(13) 0.16488(18) 0.3602(3)
H1_2 H 0.308213 0.163322 0.494120
O5_2 O 0.35377(9) 0.08090(13) 0.0003(2)
C6_2 C 0.34329(13) 0.12169(18) 0.0859(3)
C7_2 C 0.33876(13) 0.21314(18) 0.0464(4)
Co5_2 Co 0.28298(2) 0.30037(4) 0.19119(5)
Co7_2 Co 0.30037(2) 0.01738(3) 0.80881(5)
Co8_2 Co 0.38368(2) 0.03297(4) 0.14215(5)
O7_2 O 0.37026(9) 0.00690(16) 0.6918(3)
O8_2 O 0.29641(9) 0.32643(16) 0.6415(3)
O9_2 O 0.36335(13) 0.37026(16) 0.3082(3)
O10_2 O 0.41424(13) 0.39380(16) 0.6663(2)
O14_2 O 0.36460(10) 0.26126(13) 0.7382(3)
O4_2 O 0.34024(9) 0.30331(13) 0.9748(3)
C5_2 C 0.34814(13) 0.26191(18) 0.9104(4)
C8_2 C 0.34817(13) 0.16845(18) 0.9731(3)
H2_2 H 0.358454 0.170011 0.839213
Co4_2 Co 0.35072(3) 0.38368(4) 0.85785(5)
Co2_2 Co 0.31595(3) 0.94965(4) 0.47548(5)
O11_2 O 0.25243(13) 0.93953(16) 0.6670(2)
O12_2 O 0.39380(9) 0.97957(16) 0.3337(2)
O13_2 O 0.26126(13) 0.89667(16) 0.2618(3)
Co2_3 Co 0.05035(4) 0.36630(2) 0.47548(5)
O11_3 O 0.06047(16) 0.31290(9) 0.6670(2)
O12_3 O 0.02043(16) 0.41424(13) 0.3337(2)
O13_3 O 0.10333(16) 0.36460(10) 0.2618(3)
Co1_3 Co 0.68405(3) 0.05035(2) 0.52452(5)
O1_3 O 0.96998(13) 0.29641(9) 0.3585(3)
O2_3 O 0.74757(13) 0.06047(9) 0.3330(2)
O3_3 O 0.92793(13) 0.23000(9) 0.5951(3)
C1_3 C 0.92858(18) 0.24711(12) 0.4229(4)
C2_3 C 0.78836(18) 0.11174(13) 0.2474(3)
C3_3 C 0.87981(18) 0.20772(13) 0.2869(4)
C4_3 C 0.83512(18) 0.15362(13) 0.3602(3)
H1_3 H 0.836678 0.144891 0.494120
O5_3 O 0.91910(13) 0.27286(9) 0.0003(2)
C6_3 C 0.87831(18) 0.22159(13) 0.0859(3)
C7_3 C 0.78686(18) 0.12561(13) 0.0464(4)
Co7_3 Co 0.98262(3) 0.28298(2) 0.80881(5)
Co8_3 Co 0.96703(4) 0.35072(3) 0.14215(5)
O7_3 O 0.99310(16) 0.36335(13) 0.6918(3)
O10_3 O 0.60620(16) 0.02043(9) 0.6663(2)
O14_3 O 0.73874(13) 0.10333(9) 0.7382(3)
O4_3 O 0.69669(13) 0.03692(9) 0.9748(3)
C5_3 C 0.73809(18) 0.08622(12) 0.9104(4)
C8_3 C 0.83155(18) 0.17971(13) 0.9731(3)
H2_3 H 0.829989 0.188442 0.839213
Co5_3 Co 0.69963(4) 0.98262(3) 0.19119(5)
O8_3 O 0.67357(16) 0.96998(13) 0.6415(3)
O9_3 O 0.62974(16) 0.99310(9) 0.3082(3)
Co4_3 Co 0.61632(4) 0.96703(2) 0.85785(5)
O3_4 O 0.43667(9) 0.03126(10) 0.9284(3)
C1_4 C 0.41956(12) 0.01480(13) 0.7562(4)
C2_4 C 0.55493(13) 0.00995(13) 0.5807(3)
C3_4 C 0.45895(13) 0.00542(13) 0.6202(4)
C4_4 C 0.51305(13) 0.01483(13) 0.6935(3)
H1_4 H 0.521776 0.025120 0.827453
O7_4 O 0.30331(13) 0.96308(9) 0.0252(3)
O14_4 O 0.56333(9) 0.96874(10) 0.0716(3)
C5_4 C 0.58044(12) 0.98520(13) 0.2438(4)
C6_4 C 0.44507(13) 0.99005(13) 0.4193(3)
C7_4 C 0.54105(13) 0.99458(13) 0.3798(4)
C8_4 C 0.48695(13) 0.98517(13) 0.3065(3)
H2_4 H 0.478224 0.974880 0.172547
O10_4 O 0.64623(9) 0.91910(13) 0.9997(2)
O7_5 O 0.03692(9) 0.34024(16) 0.0252(3)
O14_5 O 0.03126(10) 0.59460(13) 0.0716(3)
C5_5 C 0.01480(13) 0.59525(18) 0.2438(4)
C6_5 C 0.00995(13) 0.45503(18) 0.4193(3)
C7_5 C 0.00542(13) 0.54648(18) 0.3798(4)
C8_5 C 0.01483(13) 0.50179(18) 0.3065(3)
H2_5 H 0.025120 0.503345 0.172547
O10_5 O 0.08090(13) 0.72714(16) 0.9997(2)
O3_5 O 0.96874(10) 0.40540(13) 0.9284(3)
C1_5 C 0.98520(13) 0.40475(18) 0.7562(4)
C2_5 C 0.99005(13) 0.54497(18) 0.5807(3)
C3_5 C 0.99458(13) 0.45352(18) 0.6202(4)
C4_5 C 0.98517(13) 0.49821(18) 0.6935(3)
H1_5 H 0.974880 0.496655 0.827453
O7_6 O 0.65976(16) 0.69669(13) 0.0252(3)
O14_6 O 0.40540(13) 0.43667(9) 0.0716(3)
O3_6 O 0.59460(13) 0.56333(9) 0.9284(3)
C1_6 C 0.59525(18) 0.58044(12) 0.7562(4)
C2_6 C 0.45503(18) 0.44507(13) 0.5807(3)
C3_6 C 0.54648(18) 0.54105(13) 0.6202(4)
C4_6 C 0.50179(18) 0.48695(13) 0.6935(3)
H1_6 H 0.503345 0.478224 0.827453
C5_6 C 0.40475(18) 0.41956(12) 0.2438(4)
C6_6 C 0.54497(18) 0.55493(13) 0.4193(3)
C7_6 C 0.45352(18) 0.45895(13) 0.3798(4)
C8_6 C 0.49821(18) 0.51305(13) 0.3065(3)
H2_6 H 0.496655 0.521776 0.172547
O10_6 O 0.27286(16) 0.35377(9) 0.9997(2)
C1_7 C 0.08622(12) 0.34814(13) 0.0896(4)
C4_7 C 0.17971(13) 0.34817(13) 0.0269(3)
H1_7 H 0.188442 0.358454 0.160787
O14_7 O 0.23000(9) 0.30207(10) 0.4049(3)
C2_7 C 0.22159(13) 0.34329(13) 0.9141(3)
C3_7 C 0.12561(13) 0.33876(13) 0.9536(4)
C5_7 C 0.24711(12) 0.31853(13) 0.5771(4)
C6_7 C 0.11174(13) 0.32338(13) 0.7526(3)
C7_7 C 0.20772(13) 0.32791(13) 0.7131(4)
C8_7 C 0.15362(13) 0.31850(13) 0.6398(3)
H2_7 H 0.144891 0.308213 0.505880
C1_8 C 0.65186(13) 0.73809(18) 0.0896(4)
C4_8 C 0.65183(13) 0.83155(18) 0.0269(3)
H1_8 H 0.641546 0.829989 0.160787
O14_8 O 0.69793(10) 0.92793(13) 0.4049(3)
C2_8 C 0.65671(13) 0.87831(18) 0.9141(3)
C3_8 C 0.66124(13) 0.78686(18) 0.9536(4)
C5_8 C 0.68147(13) 0.92858(18) 0.5771(4)
C6_8 C 0.67662(13) 0.78836(18) 0.7526(3)
C7_8 C 0.67209(13) 0.87981(18) 0.7131(4)
C8_8 C 0.68150(13) 0.83512(18) 0.6398(3)
H2_8 H 0.691787 0.836678 0.505880
C1_9 C 0.26191(18) 0.91378(12) 0.0896(4)
C4_9 C 0.16845(18) 0.82029(13) 0.0269(3)
H1_9 H 0.170011 0.811558 0.160787
O14_9 O 0.07207(13) 0.77000(9) 0.4049(3)
C2_9 C 0.12169(18) 0.77841(13) 0.9141(3)
C3_9 C 0.21314(18) 0.87439(13) 0.9536(4)
C5_9 C 0.07142(18) 0.75289(12) 0.5771(4)
C6_9 C 0.21164(18) 0.88826(13) 0.7526(3)
C7_9 C 0.12019(18) 0.79228(13) 0.7131(4)
C8_9 C 0.16488(18) 0.84638(13) 0.6398(3)
H2_9 H 0.163322 0.855109 0.505880
loop_
_geom_bond_atom_site_label_1
_geom_bond_atom_site_label_2
_geom_bond_site_symmetry_1
_geom_bond_site_symmetry_2
Co5 O9 1_555 1_555
Co1 O2 1_555 1_555
O1 C1 1_555 1_555
O2 C2 1_555 1_555
O3 C1 1_555 1_555
C1 C3 1_555 1_555
C2 C4 1_555 1_555
C3 C4 1_555 1_555
C4 H1 1_555 1_555
O5 C6 1_555 1_555
C6 C3 1_555 1_555
C7 C2 1_555 1_555
Co2 O1 1_555 1_555
Co7 O3 1_555 1_555
Co8 O1 1_555 1_555
O7 Co2 1_555 1_555
O10 Co1 1_555 1_555
O11 Co2 1_555 1_555
O12 Co2 1_555 1_555
O13 Co2 1_555 1_555
O14 Co1 1_555 1_555
O5 Co8 1_555 1_555
Co7 O7 1_555 1_555
Co7 O11 1_555 1_555
Co8 O12 1_555 1_555
O4 C5 1_555 1_555
O14 C5 1_555 1_555
H2 C8 1_555 1_555
Co1_2 O2_2 1_555 1_555
O1_2 C1_2 1_555 1_555
O2_2 C2_2 1_555 1_555
O3_2 C1_2 1_555 1_555
C1_2 C3_2 1_555 1_555
C2_2 C4_2 1_555 1_555
C3_2 C4_2 1_555 1_555
C4_2 H1_2 1_555 1_555
O5_2 C6_2 1_555 1_555
C6_2 C3_2 1_555 1_555
C7_2 C2_2 1_555 1_555
Co5_2 O2_2 1_555 1_555
Co7_2 O3_2 1_555 1_555
Co8_2 O1_2 1_555 1_555
O8_2 Co1_2 1_555 1_555
O9_2 Co1_2 1_555 1_555
O10_2 Co1_2 1_555 1_555
O14_2 Co1_2 1_555 1_555
O5_2 Co8_2 1_555 1_555
Co5_2 O9_2 1_555 1_555
Co7_2 O7_2 1_555 1_555
O4_2 C5_2 1_555 1_555
O14_2 C5_2 1_555 1_555
H2_2 C8_2 1_555 1_555
Co4_2 O4_2 1_555 1_555
O11_2 Co2_2 1_555 1_555
O12_2 Co2_2 1_555 1_555
O13_2 Co2_2 1_555 1_555
O11_3 Co2_3 1_555 1_555
O12_3 Co2_3 1_555 1_555
O13_3 Co2_3 1_555 1_555
Co1_3 O2_3 1_555 1_555
O1_3 C1_3 1_555 1_555
O2_3 C2_3 1_555 1_555
O3_3 C1_3 1_555 1_555
C1_3 C3_3 1_555 1_555
C2_3 C4_3 1_555 1_555
C3_3 C4_3 1_555 1_555
C4_3 H1_3 1_555 1_555
O5_3 C6_3 1_555 1_555
C6_3 C3_3 1_555 1_555
C7_3 C2_3 1_555 1_555
Co7_3 O3_3 1_555 1_555
Co8_3 O1_3 1_555 1_555
O10_3 Co1_3 1_555 1_555
O14_3 Co1_3 1_555 1_555
O5_3 Co8_3 1_555 1_555
Co7_3 O7_3 1_555 1_555
O4_3 C5_3 1_555 1_555
O14_3 C5_3 1_555 1_555
H2_3 C8_3 1_555 1_555
Co5_3 O9_3 1_555 1_555
O7_2 C1_4 1_555 1_555
O10_3 C2_4 1_555 1_555
O3_4 C1_4 1_555 1_555
C1_4 C3_4 1_555 1_555
C2_4 C4_4 1_555 1_555
C3_4 C4_4 1_555 1_555
C4_4 H1_4 1_555 1_555
O9_3 C5_4 1_555 1_555
O12_2 C6_4 1_555 1_555
O14_4 C5_4 1_555 1_555
C5_4 C7_4 1_555 1_555
C8_4 C6_4 1_555 1_555
H2_4 C8_4 1_555 1_555
O8_3 Co4_3 1_555 1_555
O10_4 Co4_3 1_555 1_555
C7_4 C8_4 1_555 1_555
O9 C5_5 1_555 1_555
O12_3 C6_5 1_555 1_555
O14_5 C5_5 1_555 1_555
C5_5 C7_5 1_555 1_555
C8_5 C6_5 1_555 1_555
H2_5 C8_5 1_555 1_555
O8 Co4 1_555 1_555
O10_5 Co4 1_555 1_555
C7_5 C8_5 1_555 1_555
O7_3 C1_5 1_555 1_555
O10 C2_5 1_555 1_555
O3_5 C1_5 1_555 1_555
C1_5 C3_5 1_555 1_555
C2_5 C4_5 1_555 1_555
C3_5 C4_5 1_555 1_555
C4_5 H1_5 1_555 1_555
Co8 O7_6 1_555 1_555
Co4_2 O10_2 1_555 1_555
O7 C1_6 1_555 1_555
O10_2 C2_6 1_555 1_555
O3_6 C1_6 1_555 1_555
C1_6 C3_6 1_555 1_555
C2_6 C4_6 1_555 1_555
C3_6 C4_6 1_555 1_555
C4_6 H1_6 1_555 1_555
O9_2 C5_6 1_555 1_555
O12 C6_6 1_555 1_555
O14_6 C5_6 1_555 1_555
C5_6 C7_6 1_555 1_555
C6_6 C3_6 1_555 1_555
C7_6 C2_6 1_555 1_555
C8_6 C6_6 1_555 1_555
H2_6 C8_6 1_555 1_555
O8_2 Co4_2 1_555 1_555
O10_6 Co4_2 1_555 1_555
C7_6 C8_6 1_555 1_555
O7_5 C1_7 1_555 1_555
O13_3 C1_7 1_555 1_555
C4_7 H1_7 1_555 1_555
O14_7 Co5_2 1_555 1_555
O10_6 C2_7 1_555 1_555
O8_2 C5_7 1_555 1_555
O11_3 C6_7 1_555 1_555
O14_7 C5_7 1_555 1_555
C5_7 C7_7 1_555 1_555
C6_7 C3_7 1_555 1_555
C7_7 C2_7 1_555 1_555
C8_7 C6_7 1_555 1_555
H2_7 C8_7 1_555 1_555
C7_7 C8_7 1_555 1_555
O7_6 C1_8 1_555 1_555
O13 C1_8 1_555 1_555
C4_8 H1_8 1_555 1_555
O14_8 Co5_3 1_555 1_555
O10_4 C2_8 1_555 1_555
O8_3 C5_8 1_555 1_555
O11 C6_8 1_555 1_555
O14_8 C5_8 1_555 1_555
C5_8 C7_8 1_555 1_555
C6_8 C3_8 1_555 1_555
C7_8 C2_8 1_555 1_555
C8_8 C6_8 1_555 1_555
H2_8 C8_8 1_555 1_555
C7_8 C8_8 1_555 1_555
O7_4 C1_9 1_555 1_555
O13_2 C1_9 1_555 1_555
C4_9 H1_9 1_555 1_555
O14_9 Co5 1_555 1_555
O10_5 C2_9 1_555 1_555
O8 C5_9 1_555 1_555
O11_2 C6_9 1_555 1_555
O14_9 C5_9 1_555 1_555
C5_9 C7_9 1_555 1_555
C6_9 C3_9 1_555 1_555
C7_9 C2_9 1_555 1_555
C8_9 C6_9 1_555 1_555
H2_9 C8_9 1_555 1_555
C7_9 C8_9 1_555 1_555

#END
