
###############################################################################
#
# This file contains modified crystal structure data generated from the
# MOF subset of the Cambridge Structural Database (CSD) v543 
# hosted by the Cambridge Crystallographic Data Centre (CCDC).
#
# This work is licensed under the Creative Commons
# Attribution-NonCommercial-ShareAlike 4.0 International License.
# To view a copy of this license, visit
# http://creativecommons.org/licenses/by-nc-sa/4.0/
# or send a letter to
# Creative Commons, PO Box 1866, Mountain View, CA 94042, USA.
#
# CIF created using the CSD Python API on 29 September 2022
# The structure has been converted into the P1 space group
# The structure has a 3D framework
# The original CSD entry WUBMAK is in the rhombohedral crystal system
# The framework has been calculated to contain at least 10.0% void space
# The void calculation uses a probe of radius 1.32A, grid spacing 0.4
#
###############################################################################

data_WUBMAK
_chemical_formula_moiety         '(C72 H18 Co5 O48)n'
_symmetry_cell_setting           triclinic
_symmetry_space_group_name_H-M   'P 1'
_symmetry_Int_Tables_number      1
_space_group_name_Hall           'P 1'
loop_
_symmetry_equiv_pos_site_id
_symmetry_equiv_pos_as_xyz
1 x,y,z
_cell_length_a                   25.8130(11)
_cell_length_b                   25.8130(11)
_cell_length_c                   6.8924(3)
_cell_angle_alpha                90
_cell_angle_beta                 90
_cell_angle_gamma                120
_cell_volume                     3977.21
loop_
_atom_site_label
_atom_site_type_symbol
_atom_site_fract_x
_atom_site_fract_y
_atom_site_fract_z
O12 O 0.03020(11) 0.70353(8) 0.1414(2)
Co5 Co 0.01786(2) 0.71685(2) 0.69206(4)
Co7 Co 0.03233(3) 0.64881(2) 0.35873(4)
O11 O 0.00666(8) 0.63647(11) 0.8081(2)
O3 O 0.76931(8) 0.69591(8) 0.0960(2)
O5 O 0.63647(11) 0.62980(8) 0.1919(2)
O6 O 0.68656(8) 0.74683(11) 0.1690(2)
Co4 Co 0.71685(2) 0.69900(3) 0.30794(4)
Co6 Co 0.94981(2) 0.63434(3) 0.02540(4)
O13 O 0.98010(8) 0.58651(11) 0.1644(2)
O14 O 0.89736(8) 0.63742(8) 0.2373(2)
Co1 Co 0.64881(2) 0.61648(2) 0.64127(4)
O1 O 0.72693(7) 0.64677(8) 0.5023(2)
O2 O 0.70353(8) 0.67333(8) 0.8586(2)
C1 C 0.77819(11) 0.65723(11) 0.5876(3)
C2 C 0.75269(10) 0.68050(10) 0.9238(3)
C3 C 0.79210(11) 0.67196(11) 0.7872(3)
C4 C 0.82015(11) 0.65249(11) 0.4739(3)
H1 H 0.811362 0.642727 0.340540
O4 O 0.58651(11) 0.60640(7) 0.8356(2)
Co3 Co 0.63434(3) 0.68452(2) 0.97460(4)
O7 O 0.63742(8) 0.74007(11) 0.7627(2)
C5 C 0.84652(11) 0.68084(11) 0.8594(3)
C6 C 0.87457(11) 0.66137(11) 0.5461(3)
H2 H 0.855305 0.690606 0.992793
C7 C 0.88848(11) 0.67610(11) 0.7457(3)
C8 C 0.91398(10) 0.65283(10) 0.4095(3)
O8 O 0.93974(7) 0.68656(8) 0.8310(2)
O9 O 0.96314(8) 0.66000(8) 0.4747(2)
O3_2 O 0.30409(8) 0.07340(11) 0.0960(2)
O5_2 O 0.37020(8) 0.00666(14) 0.1919(2)
Co4_2 Co 0.30100(3) 0.01786(4) 0.30794(4)
Co6_2 Co 0.36566(3) 0.31548(4) 0.02540(4)
O12_2 O 0.29647(8) 0.32667(14) 0.1414(2)
O13_2 O 0.41349(11) 0.39360(14) 0.1644(2)
O14_2 O 0.36258(8) 0.25993(11) 0.2373(2)
Co1_2 Co 0.38352(2) 0.03233(3) 0.64127(4)
O1_2 O 0.35323(8) 0.08016(11) 0.5023(2)
O2_2 O 0.32667(8) 0.03020(11) 0.8586(2)
C1_2 C 0.34277(11) 0.12096(16) 0.5876(3)
C2_2 C 0.31950(10) 0.07219(14) 0.9238(3)
C3_2 C 0.32804(11) 0.12014(16) 0.7872(3)
C4_2 C 0.34751(11) 0.16766(16) 0.4739(3)
H1_2 H 0.357273 0.168635 0.340540
C5_2 C 0.31916(11) 0.16567(16) 0.8594(3)
C6_2 C 0.33863(11) 0.21319(16) 0.5461(3)
H2_2 H 0.309394 0.164698 0.992793
C7_2 C 0.32390(11) 0.21237(16) 0.7457(3)
C8_2 C 0.34717(10) 0.26114(14) 0.4095(3)
O8_2 O 0.31344(8) 0.25317(11) 0.8310(2)
O9_2 O 0.34000(8) 0.30313(11) 0.4747(2)
Co5_2 Co 0.28315(2) 0.30100(3) 0.69206(4)
Co7_2 Co 0.35119(2) 0.38352(4) 0.35873(4)
O11_2 O 0.36353(11) 0.37020(14) 0.8081(2)
O6_2 O 0.25317(11) 0.93974(14) 0.1690(2)
O4_2 O 0.39360(7) 0.98010(13) 0.8356(2)
Co3_2 Co 0.31548(2) 0.94981(4) 0.97460(4)
O7_2 O 0.25993(11) 0.89736(14) 0.7627(2)
O6_3 O 0.06026(14) 0.31344(8) 0.1690(2)
O4_3 O 0.01990(13) 0.41349(11) 0.8356(2)
Co3_3 Co 0.05019(4) 0.36566(3) 0.97460(4)
O7_3 O 0.10264(14) 0.36258(8) 0.7627(2)
O3_3 O 0.92660(11) 0.23069(8) 0.0960(2)
O5_3 O 0.99334(14) 0.36353(11) 0.1919(2)
Co4_3 Co 0.98214(4) 0.28315(2) 0.30794(4)
Co6_3 Co 0.68452(4) 0.05019(2) 0.02540(4)
O13_3 O 0.60640(14) 0.01990(8) 0.1644(2)
O14_3 O 0.74007(11) 0.10264(8) 0.2373(2)
Co1_3 Co 0.96767(3) 0.35119(2) 0.64127(4)
O1_3 O 0.91984(11) 0.27307(7) 0.5023(2)
O2_3 O 0.96980(11) 0.29647(8) 0.8586(2)
C1_3 C 0.87904(16) 0.22181(11) 0.5876(3)
C2_3 C 0.92781(14) 0.24731(10) 0.9238(3)
C3_3 C 0.87986(16) 0.20790(11) 0.7872(3)
C4_3 C 0.83234(16) 0.17985(11) 0.4739(3)
H1_3 H 0.831365 0.188638 0.340540
C5_3 C 0.83433(16) 0.15348(11) 0.8594(3)
C6_3 C 0.78681(16) 0.12543(11) 0.5461(3)
H2_3 H 0.835302 0.144695 0.992793
C7_3 C 0.78763(16) 0.11152(11) 0.7457(3)
C8_3 C 0.73886(14) 0.08602(10) 0.4095(3)
O8_3 O 0.74683(11) 0.06026(7) 0.8310(2)
O9_3 O 0.69687(11) 0.03686(8) 0.4747(2)
O12_3 O 0.67333(14) 0.96980(11) 0.1414(2)
Co5_3 Co 0.69900(3) 0.98214(2) 0.69206(4)
Co7_3 Co 0.61648(4) 0.96767(3) 0.35873(4)
O11_3 O 0.62980(14) 0.99334(8) 0.8081(2)
C2_4 C 0.41936(10) 0.01383(10) 0.2571(3)
C3_4 C 0.45877(11) 0.00529(11) 0.1205(3)
O3_4 O 0.43598(8) 0.02924(8) 0.4293(2)
C5_4 C 0.51318(11) 0.01418(11) 0.1928(3)
H2_4 H 0.521971 0.023940 0.326127
C7_4 C 0.55514(11) 0.00944(11) 0.0791(3)
O5_4 O 0.30313(11) 0.96314(8) 0.5253(2)
O13_4 O 0.64677(8) 0.91984(11) 0.4977(2)
O14_4 O 0.56402(8) 0.97076(8) 0.5707(2)
C1_4 C 0.44486(11) 0.99056(11) 0.9209(3)
C4_4 C 0.48682(11) 0.98582(11) 0.8072(3)
H1_4 H 0.478029 0.976060 0.673873
C6_4 C 0.54123(11) 0.99471(11) 0.8795(3)
C8_4 C 0.58064(10) 0.98617(10) 0.7429(3)
O5_5 O 0.03686(8) 0.34000(14) 0.5253(2)
O13_5 O 0.08016(11) 0.72693(14) 0.4977(2)
O14_5 O 0.02924(8) 0.59327(11) 0.5707(2)
C1_5 C 0.00944(11) 0.45429(16) 0.9209(3)
C4_5 C 0.01418(11) 0.50099(16) 0.8072(3)
H1_5 H 0.023940 0.501968 0.673873
C6_5 C 0.00529(11) 0.54653(16) 0.8795(3)
C8_5 C 0.01383(10) 0.59448(14) 0.7429(3)
C2_5 C 0.98617(10) 0.40552(14) 0.2571(3)
C3_5 C 0.99471(11) 0.45347(16) 0.1205(3)
O3_5 O 0.97076(8) 0.40673(11) 0.4293(2)
C5_5 C 0.98582(11) 0.49901(16) 0.1928(3)
H2_5 H 0.976060 0.498032 0.326127
C7_5 C 0.99056(11) 0.54571(16) 0.0791(3)
C2_6 C 0.59448(14) 0.58064(10) 0.2571(3)
C3_6 C 0.54653(16) 0.54123(11) 0.1205(3)
O3_6 O 0.59327(11) 0.56402(8) 0.4293(2)
O5_6 O 0.66000(14) 0.69687(11) 0.5253(2)
C5_6 C 0.50099(16) 0.48682(11) 0.1928(3)
H2_6 H 0.501968 0.478029 0.326127
C7_6 C 0.45429(16) 0.44486(11) 0.0791(3)
O13_6 O 0.27307(14) 0.35323(8) 0.4977(2)
O14_6 O 0.40673(11) 0.43598(8) 0.5707(2)
C1_6 C 0.54571(16) 0.55514(11) 0.9209(3)
C4_6 C 0.49901(16) 0.51318(11) 0.8072(3)
H1_6 H 0.498032 0.521971 0.673873
C6_6 C 0.45347(16) 0.45877(11) 0.8795(3)
C8_6 C 0.40552(14) 0.41936(10) 0.7429(3)
C1_7 C 0.11152(11) 0.32390(11) 0.2543(3)
C2_7 C 0.08602(10) 0.34717(10) 0.5905(3)
C3_7 C 0.12543(11) 0.33863(11) 0.4539(3)
C4_7 C 0.15348(11) 0.31916(11) 0.1406(3)
H1_7 H 0.144695 0.309394 0.007207
C5_7 C 0.17985(11) 0.34751(11) 0.5261(3)
C6_7 C 0.20790(11) 0.32804(11) 0.2128(3)
H2_7 H 0.188638 0.357273 0.659460
C7_7 C 0.22181(11) 0.34277(11) 0.4124(3)
C8_7 C 0.24731(10) 0.31950(10) 0.0762(3)
O14_7 O 0.23069(8) 0.30409(8) 0.9040(2)
C1_8 C 0.67610(11) 0.78763(16) 0.2543(3)
C2_8 C 0.65283(10) 0.73886(14) 0.5905(3)
C3_8 C 0.66137(11) 0.78681(16) 0.4539(3)
C4_8 C 0.68084(11) 0.83433(16) 0.1406(3)
H1_8 H 0.690606 0.835302 0.007207
C5_8 C 0.65249(11) 0.83234(16) 0.5261(3)
C6_8 C 0.67196(11) 0.87986(16) 0.2128(3)
H2_8 H 0.642727 0.831365 0.659460
C7_8 C 0.65723(11) 0.87904(16) 0.4124(3)
C8_8 C 0.68050(10) 0.92781(14) 0.0762(3)
O14_8 O 0.69591(8) 0.92660(11) 0.9040(2)
C1_9 C 0.21237(16) 0.88848(11) 0.2543(3)
C2_9 C 0.26114(14) 0.91398(10) 0.5905(3)
C3_9 C 0.21319(16) 0.87457(11) 0.4539(3)
C4_9 C 0.16567(16) 0.84652(11) 0.1406(3)
H1_9 H 0.164698 0.855305 0.007207
C5_9 C 0.16766(16) 0.82015(11) 0.5261(3)
C6_9 C 0.12014(16) 0.79210(11) 0.2128(3)
H2_9 H 0.168635 0.811362 0.659460
C7_9 C 0.12096(16) 0.77819(11) 0.4124(3)
C8_9 C 0.07219(14) 0.75269(10) 0.0762(3)
O14_9 O 0.07340(11) 0.76931(8) 0.9040(2)
loop_
_geom_bond_atom_site_label_1
_geom_bond_atom_site_label_2
_geom_bond_site_symmetry_1
_geom_bond_site_symmetry_2
O11 Co5 1_555 1_555
Co4 O3 1_555 1_555
O13 Co6 1_555 1_555
O14 Co6 1_555 1_555
O5 Co4 1_555 1_555
O6 Co4 1_555 1_555
Co1 O1 1_555 1_555
O1 C1 1_555 1_555
O2 Co1 1_555 1_555
C1 C3 1_555 1_555
C2 O2 1_555 1_555
C3 C2 1_555 1_555
C4 C1 1_555 1_555
H1 C4 1_555 1_555
O4 Co1 1_555 1_555
Co4 O1 1_555 1_555
Co3 O2 1_555 1_555
O7 Co3 1_555 1_555
C5 C3 1_555 1_555
C6 C4 1_555 1_555
H2 C5 1_555 1_555
C7 C5 1_555 1_555
C8 C6 1_555 1_555
O8 C7 1_555 1_555
O9 C8 1_555 1_555
O14 C8 1_555 1_555
O4 Co3 1_555 1_555
C6 C7 1_555 1_555
Co4_2 O3_2 1_555 1_555
O12_2 Co6_2 1_555 1_555
O13_2 Co6_2 1_555 1_555
O14_2 Co6_2 1_555 1_555
O5_2 Co4_2 1_555 1_555
Co1_2 O1_2 1_555 1_555
O1_2 C1_2 1_555 1_555
O2_2 Co1_2 1_555 1_555
C1_2 C3_2 1_555 1_555
C2_2 O2_2 1_555 1_555
C3_2 C2_2 1_555 1_555
C4_2 C1_2 1_555 1_555
H1_2 C4_2 1_555 1_555
Co4_2 O1_2 1_555 1_555
C5_2 C3_2 1_555 1_555
C6_2 C4_2 1_555 1_555
H2_2 C5_2 1_555 1_555
C7_2 C5_2 1_555 1_555
C8_2 C6_2 1_555 1_555
O8_2 C7_2 1_555 1_555
O9_2 C8_2 1_555 1_555
O14_2 C8_2 1_555 1_555
Co5_2 O8_2 1_555 1_555
Co7_2 O9_2 1_555 1_555
O11_2 Co5_2 1_555 1_555
C6_2 C7_2 1_555 1_555
O9_2 Co5_2 1_555 1_555
O7_2 Co3_2 1_555 1_555
O4_2 Co3_2 1_555 1_555
O7_3 Co3_3 1_555 1_555
O4_3 Co3_3 1_555 1_555
Co4_3 O3_3 1_555 1_555
O13_3 Co6_3 1_555 1_555
O14_3 Co6_3 1_555 1_555
O5_3 Co4_3 1_555 1_555
Co1_3 O1_3 1_555 1_555
O1_3 C1_3 1_555 1_555
O2_3 Co1_3 1_555 1_555
C1_3 C3_3 1_555 1_555
C2_3 O2_3 1_555 1_555
C3_3 C2_3 1_555 1_555
C4_3 C1_3 1_555 1_555
H1_3 C4_3 1_555 1_555
Co4_3 O1_3 1_555 1_555
C5_3 C3_3 1_555 1_555
C6_3 C4_3 1_555 1_555
H2_3 C5_3 1_555 1_555
C7_3 C5_3 1_555 1_555
C8_3 C6_3 1_555 1_555
O8_3 C7_3 1_555 1_555
O9_3 C8_3 1_555 1_555
O14_3 C8_3 1_555 1_555
C6_3 C7_3 1_555 1_555
O11_3 Co5_3 1_555 1_555
C2_4 O5_2 1_555 1_555
C3_4 C2_4 1_555 1_555
O3_4 C2_4 1_555 1_555
C5_4 C3_4 1_555 1_555
Co1_2 O3_4 1_555 1_555
H2_4 C5_4 1_555 1_555
C7_4 C5_4 1_555 1_555
O13_3 C7_4 1_555 1_555
O13_4 Co7_3 1_555 1_555
O14_4 Co7_3 1_555 1_555
Co7_3 O12_3 1_555 1_555
O4_2 C1_4 1_555 1_555
C4_4 C1_4 1_555 1_555
H1_4 C4_4 1_555 1_555
C6_4 C4_4 1_555 1_555
C8_4 C6_4 1_555 1_555
O11_3 C8_4 1_555 1_555
O14_4 C8_4 1_555 1_555
O13_5 Co7 1_555 1_555
O14_5 Co7 1_555 1_555
Co7 O12 1_555 1_555
O4_3 C1_5 1_555 1_555
C4_5 C1_5 1_555 1_555
H1_5 C4_5 1_555 1_555
C6_5 C4_5 1_555 1_555
C8_5 C6_5 1_555 1_555
O11 C8_5 1_555 1_555
O14_5 C8_5 1_555 1_555
C2_5 O5_3 1_555 1_555
C3_5 C2_5 1_555 1_555
O3_5 C2_5 1_555 1_555
C5_5 C3_5 1_555 1_555
Co1_3 O3_5 1_555 1_555
H2_5 C5_5 1_555 1_555
C7_5 C5_5 1_555 1_555
O13 C7_5 1_555 1_555
C2_6 O5 1_555 1_555
C3_6 C2_6 1_555 1_555
O3_6 C2_6 1_555 1_555
O5_6 Co4 1_555 1_555
C5_6 C3_6 1_555 1_555
Co1 O3_6 1_555 1_555
H2_6 C5_6 1_555 1_555
C7_6 C5_6 1_555 1_555
O13_2 C7_6 1_555 1_555
Co7_2 O13_2 1_555 1_555
O13_6 Co7_2 1_555 1_555
O14_6 Co7_2 1_555 1_555
O5_6 Co1 1_555 1_555
Co7_2 O12_2 1_555 1_555
O4 C1_6 1_555 1_555
C4_6 C1_6 1_555 1_555
H1_6 C4_6 1_555 1_555
C6_6 C4_6 1_555 1_555
C8_6 C6_6 1_555 1_555
O11_2 C8_6 1_555 1_555
O14_6 C8_6 1_555 1_555
O6_3 C1_7 1_555 1_555
C1_7 C3_7 1_555 1_555
C2_7 O5_5 1_555 1_555
C3_7 C2_7 1_555 1_555
C4_7 C1_7 1_555 1_555
O7_3 C2_7 1_555 1_555
H1_7 C4_7 1_555 1_555
C5_7 C3_7 1_555 1_555
C6_7 C4_7 1_555 1_555
H2_7 C5_7 1_555 1_555
C7_7 C5_7 1_555 1_555
C8_7 C6_7 1_555 1_555
O13_6 C7_7 1_555 1_555
O12_2 C8_7 1_555 1_555
Co5_2 O13_6 1_555 1_555
O14_7 Co5_2 1_555 1_555
C6_7 C7_7 1_555 1_555
O6 C1_8 1_555 1_555
C1_8 C3_8 1_555 1_555
C2_8 O5_6 1_555 1_555
C3_8 C2_8 1_555 1_555
C4_8 C1_8 1_555 1_555
O7 C2_8 1_555 1_555
H1_8 C4_8 1_555 1_555
C5_8 C3_8 1_555 1_555
C6_8 C4_8 1_555 1_555
H2_8 C5_8 1_555 1_555
C7_8 C5_8 1_555 1_555
C8_8 C6_8 1_555 1_555
O13_4 C7_8 1_555 1_555
O12_3 C8_8 1_555 1_555
Co5_3 O13_4 1_555 1_555
O14_8 Co5_3 1_555 1_555
C6_8 C7_8 1_555 1_555
O6_2 C1_9 1_555 1_555
C1_9 C3_9 1_555 1_555
C2_9 O5_4 1_555 1_555
C3_9 C2_9 1_555 1_555
C4_9 C1_9 1_555 1_555
O7_2 C2_9 1_555 1_555
H1_9 C4_9 1_555 1_555
C5_9 C3_9 1_555 1_555
C6_9 C4_9 1_555 1_555
H2_9 C5_9 1_555 1_555
C7_9 C5_9 1_555 1_555
C8_9 C6_9 1_555 1_555
O13_5 C7_9 1_555 1_555
O12 C8_9 1_555 1_555
Co5 O13_5 1_555 1_555
O14_9 Co5 1_555 1_555
C6_9 C7_9 1_555 1_555

#END
