
###############################################################################
#
# This file contains modified crystal structure data generated from the
# MOF subset of the Cambridge Structural Database (CSD) v543 
# hosted by the Cambridge Crystallographic Data Centre (CCDC).
#
# This work is licensed under the Creative Commons
# Attribution-NonCommercial-ShareAlike 4.0 International License.
# To view a copy of this license, visit
# http://creativecommons.org/licenses/by-nc-sa/4.0/
# or send a letter to
# Creative Commons, PO Box 1866, Mountain View, CA 94042, USA.
#
# CIF created using the CSD Python API on 29 September 2022
# The structure has been converted into the P1 space group
# The structure has a 3D framework
# The original CSD entry WUFCEI is in the triclinic crystal system
# The framework has been calculated to contain at least 10.0% void space
# The void calculation uses a probe of radius 1.32A, grid spacing 0.4
# The framework is charged, counterions have been retained in the structure
#
###############################################################################

data_WUFCEI
_chemical_formula_moiety         '(C44 H92 La4 N6 O27 P6 5+)n'
_symmetry_cell_setting           triclinic
_symmetry_space_group_name_H-M   'P 1'
_symmetry_Int_Tables_number      1
_space_group_name_Hall           'P 1'
loop_
_symmetry_equiv_pos_site_id
_symmetry_equiv_pos_as_xyz
1 x,y,z
_cell_length_a                   9.6056(16)
_cell_length_b                   15.424(3)
_cell_length_c                   16.780(3)
_cell_angle_alpha                95.434(7)
_cell_angle_beta                 106.266(7)
_cell_angle_gamma                91.765(9)
_cell_volume                     2371.55
loop_
_atom_site_label
_atom_site_type_symbol
_atom_site_fract_x
_atom_site_fract_y
_atom_site_fract_z
_atom_site_U_iso_or_equiv
_atom_site_thermal_displace_type
La1 La 0.28704(3) 0.55640(2) 0.08450(2) 0.0106 Uani
P1 P 0.49612(15) 0.40347(9) 0.06409(8) 0.0116 Uani
O1 O 0.5213(4) 0.4827(2) 0.1281(2) 0.0149 Uani
O3 O 0.0739(4) 0.6441(2) 0.0041(2) 0.0120 Uani
O5 O 0.6128(4) 0.3919(2) 0.0209(2) 0.0132 Uani
O7 O 0.4256(5) 0.7051(3) 0.1459(2) 0.0224 Uani
H1 H 0.365211 0.743047 0.152820 0.0340 Uiso
H2 H 0.463117 0.725049 0.109997 0.0340 Uiso
O11 O 0.3440(4) 0.4030(2) 0.0063(2) 0.0152 Uani
N1 N 0.4705(5) 0.2247(3) 0.0741(3) 0.0143 Uani
H5 H 0.387249 0.228118 0.025115 0.0170 Uiso
C1 C 0.5219(6) 0.0422(3) 0.0300(3) 0.0166 Uani
H6 H 0.606101 0.031156 0.075925 0.0200 Uiso
C2 C 0.3992(7) 0.0689(4) 0.0673(4) 0.0191 Uani
H8 H 0.311547 0.073305 0.022257 0.0230 Uiso
H9 H 0.380066 0.023854 0.100076 0.0230 Uiso
C6 C 0.4346(7) 0.1541(4) 0.1214(3) 0.0202 Uani
H15 H 0.352187 0.169476 0.141401 0.0240 Uiso
H16 H 0.516586 0.148413 0.169488 0.0240 Uiso
C8 C 0.4964(6) 0.3116(3) 0.1251(3) 0.0145 Uani
H19 H 0.589292 0.313140 0.167348 0.0180 Uiso
H20 H 0.421738 0.318298 0.153603 0.0180 Uiso
C14 C 0.5987(6) 0.2014(4) 0.0437(4) 0.0197 Uani
H30 H 0.681932 0.195517 0.091078 0.0240 Uiso
H31 H 0.623065 0.247707 0.013759 0.0240 Uiso
O21 O 0.1673(4) 0.2320(3) 0.0180(2) 0.0189 Uani
H72 H 0.072347 0.098702 0.067057 0.0430 Uiso
O36 O 0.3519(4) 0.5540(3) 0.2405(2) 0.0162 Uani
O38 O 0.1279(4) 0.6245(2) 0.1782(2) 0.0145 Uani
O42 O 0.1383(4) 0.4360(2) 0.1072(2) 0.0139 Uani
P2 P 0.02392(15) 0.58141(9) 0.92497(8) 0.0114 Uani
O15 O 0.1066(4) 0.5005(2) 0.9415(2) 0.0123 Uani
C4 C 0.0791(6) 0.6274(4) 0.8402(3) 0.0172 Uani
H11 H 0.128306 0.684348 0.860765 0.0200 Uiso
H12 H 0.147072 0.589950 0.822908 0.0200 Uiso
C5 C 0.5657(7) 0.1168(4) 0.9868(4) 0.0209 Uani
H13 H 0.650746 0.102096 0.969135 0.0250 Uiso
H14 H 0.487441 0.124308 0.937299 0.0250 Uiso
C7 C 0.0020(6) 0.6529(4) 0.6916(3) 0.0186 Uani
H17 H 0.063805 0.607511 0.680398 0.0220 Uiso
H18 H 0.057403 0.708487 0.702259 0.0220 Uiso
La4 La 0.11412(3) 0.34199(2) 0.90578(2) 0.0123 Uani
O24 O 0.1079(5) 0.2419(3) 0.7692(2) 0.0279 Uani
O27 O 0.3069(5) 0.2377(3) 0.8748(2) 0.0249 Uani
O29 O 0.2309(5) 0.4210(3) 0.8105(2) 0.0212 Uani
H61 H 0.173149 0.416183 0.761391 0.0320 Uiso
H62 H 0.239523 0.475447 0.826023 0.0320 Uiso
C29 C 0.0542(6) 0.1832(4) 0.9807(4) 0.0182 Uani
C33 C 0.2304(7) 0.2114(4) 0.8008(4) 0.0287 Uani
C44 C 0.2827(9) 0.1409(5) 0.7499(5) 0.0531 Uani
H90 H 0.386872 0.142425 0.767942 0.0800 Uiso
H91 H 0.243837 0.085105 0.757154 0.0800 Uiso
H92 H 0.250651 0.150314 0.691945 0.0800 Uiso
La9 La 0.71296(3) 0.44360(2) 0.91550(2) 0.0106 Uani
O35 O 0.3872(4) 0.6081(2) 0.9791(2) 0.0132 Uani
C25 C 0.4343(7) 0.8832(4) 0.0132(4) 0.0209 Uani
H51 H 0.349254 0.897904 0.030865 0.0250 Uiso
H52 H 0.512559 0.875692 0.062701 0.0250 Uiso
La11 La 0.88588(3) 0.65801(2) 0.09422(2) 0.0123 Uani
P4 P 0.50388(15) 0.59653(9) 0.93591(8) 0.0116 Uani
O16 O 0.4787(4) 0.5173(2) 0.8719(2) 0.0149 Uani
O18 O 0.6560(4) 0.5970(2) 0.9937(2) 0.0152 Uani
N4 N 0.5295(5) 0.7753(3) 0.9259(3) 0.0143 Uani
H47 H 0.612751 0.771882 0.974885 0.0170 Uiso
C23 C 0.4781(6) 0.9578(3) 0.9700(3) 0.0166 Uani
H48 H 0.393899 0.968844 0.924075 0.0200 Uiso
C24 C 0.6008(7) 0.9311(4) 0.9327(4) 0.0191 Uani
H49 H 0.688453 0.926695 0.977743 0.0230 Uiso
H50 H 0.619934 0.976146 0.899924 0.0230 Uiso
C26 C 0.5654(7) 0.8459(4) 0.8786(3) 0.0202 Uani
H53 H 0.647813 0.830524 0.858599 0.0240 Uiso
H54 H 0.483414 0.851587 0.830512 0.0240 Uiso
C27 C 0.5036(6) 0.6884(3) 0.8749(3) 0.0145 Uani
H55 H 0.410708 0.686860 0.832652 0.0180 Uiso
H56 H 0.578262 0.681702 0.846397 0.0180 Uiso
C28 C 0.4013(6) 0.7986(4) 0.9563(4) 0.0197 Uani
H57 H 0.318068 0.804483 0.908922 0.0240 Uiso
H58 H 0.376935 0.752293 0.986241 0.0240 Uiso
C34 C 0.9941(8) 0.1232(4) 0.0282(4) 0.0286 Uani
H73 H 0.936438 0.154726 0.058079 0.0430 Uiso
P3 P 0.22042(16) 0.59295(10) 0.25883(8) 0.0144 Uani
O2 O 0.0079(5) 0.8123(3) 0.0960(2) 0.0240 Uani
O9 O 0.1394(4) 0.5346(3) 0.2994(2) 0.0196 Uani
O13 O 0.8617(4) 0.5640(2) 0.8928(2) 0.0139 Uani
N2 N 0.9521(5) 0.6359(3) 0.7667(3) 0.0146 Uani
H7 H 0.893256 0.580585 0.753362 0.0180 Uiso
N3 N 0.4272(6) 0.6882(3) 0.3904(3) 0.0192 Uani
H10 H 0.491393 0.656410 0.363275 0.0240 Uiso
C9 C 0.8589(6) 0.7065(4) 0.7842(3) 0.0156 Uani
H21 H 0.911750 0.762690 0.791829 0.0190 Uiso
H22 H 0.833713 0.698450 0.835189 0.0190 Uiso
H23 H 0.065344 0.922869 0.009744 0.0430 Uiso
C12 C 0.7232(7) 0.7045(4) 0.7129(3) 0.0226 Uani
H26 H 0.661063 0.749071 0.725405 0.0270 Uiso
H27 H 0.670587 0.648254 0.705253 0.0270 Uiso
C13 C 0.8678(7) 0.6540(4) 0.6163(3) 0.0184 Uani
H28 H 0.898798 0.667378 0.568314 0.0220 Uiso
H29 H 0.818469 0.596351 0.603112 0.0220 Uiso
C15 C 0.2855(7) 0.6957(4) 0.3255(3) 0.0198 Uani
H32 H 0.297516 0.740693 0.290861 0.0240 Uiso
H33 H 0.213065 0.713442 0.353017 0.0240 Uiso
C16 C 0.7612(6) 0.7207(4) 0.6319(3) 0.0197 Uani
H34 H 0.810875 0.778719 0.640718 0.0240 Uiso
C17 C 0.4072(7) 0.6383(4) 0.4581(3) 0.0210 Uani
H35 H 0.364975 0.580352 0.434599 0.0250 Uiso
H36 H 0.340406 0.667255 0.484233 0.0250 Uiso
C18 C 0.6219(7) 0.7207(4) 0.5588(3) 0.0220 Uani
H37 H 0.551946 0.752117 0.581556 0.0270 Uiso
C19 C 0.4984(8) 0.7775(4) 0.4244(4) 0.0299 Uani
H38 H 0.513558 0.807862 0.379206 0.0360 Uiso
H39 H 0.435473 0.811091 0.450028 0.0360 Uiso
C20 C 0.5496(7) 0.6311(4) 0.5229(3) 0.0222 Uani
H40 H 0.613542 0.597804 0.497846 0.0270 Uiso
H41 H 0.533036 0.600302 0.567489 0.0270 Uiso
C21 C 0.6409(8) 0.7702(4) 0.4877(4) 0.0313 Uani
H42 H 0.684705 0.828112 0.510059 0.0380 Uiso
H43 H 0.705883 0.739984 0.461061 0.0380 Uiso
P6 P 0.77958(16) 0.40705(10) 0.74117(8) 0.0144 Uani
O19 O 0.9921(5) 0.1877(3) 0.9040(2) 0.0240 Uani
O22 O 0.6481(4) 0.4460(3) 0.7595(2) 0.0162 Uani
O25 O 0.8606(4) 0.4654(3) 0.7006(2) 0.0196 Uani
O26 O 0.8721(4) 0.3755(2) 0.8218(2) 0.0145 Uani
N5 N 0.0479(5) 0.3641(3) 0.2333(3) 0.0146 Uani
H63 H 0.106744 0.419415 0.246638 0.0180 Uiso
N6 N 0.5728(6) 0.3118(3) 0.6096(3) 0.0192 Uani
H64 H 0.508607 0.343590 0.636725 0.0240 Uiso
C32 C 0.1411(6) 0.2935(4) 0.2158(3) 0.0156 Uani
H69 H 0.088250 0.237310 0.208171 0.0190 Uiso
H70 H 0.166287 0.301550 0.164811 0.0190 Uiso
H71 H 0.934656 0.077131 0.990256 0.0430 Uiso
C35 C 0.2768(7) 0.2955(4) 0.2871(3) 0.0226 Uani
H74 H 0.338937 0.250929 0.274595 0.0270 Uiso
H75 H 0.329413 0.351746 0.294747 0.0270 Uiso
C36 C 0.1322(7) 0.3460(4) 0.3837(3) 0.0184 Uani
H76 H 0.101202 0.332622 0.431686 0.0220 Uiso
H77 H 0.181531 0.403649 0.396888 0.0220 Uiso
C37 C 0.7145(7) 0.3043(4) 0.6745(3) 0.0198 Uani
H78 H 0.702484 0.259307 0.709139 0.0240 Uiso
H79 H 0.786935 0.286558 0.646983 0.0240 Uiso
C38 C 0.2388(6) 0.2793(4) 0.3681(3) 0.0197 Uani
H80 H 0.189125 0.221281 0.359282 0.0240 Uiso
C39 C 0.5928(7) 0.3617(4) 0.5419(3) 0.0210 Uani
H81 H 0.635025 0.419648 0.565401 0.0250 Uiso
H82 H 0.659594 0.332745 0.515767 0.0250 Uiso
C40 C 0.3781(7) 0.2793(4) 0.4412(3) 0.0220 Uani
H83 H 0.448054 0.247883 0.418444 0.0270 Uiso
C41 C 0.5016(8) 0.2225(4) 0.5756(4) 0.0299 Uani
H84 H 0.486442 0.192138 0.620794 0.0360 Uiso
H85 H 0.564527 0.188909 0.549972 0.0360 Uiso
C42 C 0.4504(7) 0.3689(4) 0.4771(3) 0.0222 Uani
H86 H 0.386458 0.402196 0.502154 0.0270 Uiso
H87 H 0.466964 0.399698 0.432511 0.0270 Uiso
C43 C 0.3591(8) 0.2298(4) 0.5123(4) 0.0313 Uani
H88 H 0.315295 0.171888 0.489941 0.0380 Uiso
H89 H 0.294117 0.260016 0.538939 0.0380 Uiso
O33 O 0.9261(4) 0.3559(2) 0.9959(2) 0.0120 Uani
C11 C 0.0059(8) 0.8768(4) 0.9718(4) 0.0286 Uani
H25 H 0.063562 0.845274 0.941921 0.0430 Uiso
O8 O 0.8921(5) 0.7581(3) 0.2308(2) 0.0279 Uani
O12 O 0.6931(5) 0.7623(3) 0.1252(2) 0.0249 Uani
O14 O 0.7691(5) 0.5790(3) 0.1895(2) 0.0212 Uani
H3 H 0.826851 0.583817 0.238609 0.0320 Uiso
H4 H 0.760477 0.524553 0.173977 0.0320 Uiso
C3 C 0.9458(6) 0.8168(4) 0.0193(4) 0.0182 Uani
C10 C 0.7696(7) 0.7886(4) 0.1992(4) 0.0287 Uani
C22 C 0.7173(9) 0.8591(5) 0.2501(5) 0.0531 Uani
H44 H 0.613128 0.857575 0.232058 0.0800 Uiso
H45 H 0.756163 0.914895 0.242846 0.0800 Uiso
H46 H 0.749349 0.849686 0.308055 0.0800 Uiso
P5 P 0.97608(15) 0.41859(9) 0.07503(8) 0.0114 Uani
O30 O 0.8934(4) 0.4995(2) 0.0585(2) 0.0123 Uani
C30 C 0.9209(6) 0.3726(4) 0.1598(3) 0.0172 Uani
H65 H 0.871694 0.315652 0.139235 0.0200 Uiso
H66 H 0.852928 0.410050 0.177092 0.0200 Uiso
C31 C 0.9980(6) 0.3471(4) 0.3084(3) 0.0186 Uani
H67 H 0.936195 0.392489 0.319602 0.0220 Uiso
H68 H 0.942597 0.291513 0.297741 0.0220 Uiso
O4 O 0.8327(4) 0.7680(3) 0.9820(2) 0.0189 Uani
H24 H 0.927653 0.901298 0.932943 0.0430 Uiso
O23 O 0.5744(5) 0.2949(3) 0.8541(2) 0.0224 Uani
H59 H 0.634789 0.256953 0.847180 0.0340 Uiso
H60 H 0.536883 0.274951 0.890003 0.0340 Uiso
loop_
_atom_site_aniso_label
_atom_site_aniso_U_11
_atom_site_aniso_U_22
_atom_site_aniso_U_33
_atom_site_aniso_U_23
_atom_site_aniso_U_13
_atom_site_aniso_U_12
La1 0.00735 0.01317 0.01091 0.00071 0.00245 -0.00099
P1 0.0092 0.0114 0.0131 0.0009 0.0019 -0.0008
O1 0.013 0.017 0.0137 -0.0016 0.0034 -0.0003
O3 0.0081 0.0132 0.0151 0.0016 0.0038 0.0012
O5 0.011 0.0138 0.0177 0.005 0.0075 0.0023
O7 0.022 0.023 0.023 -0.0031 0.0106 -0.0069
O11 0.014 0.017 0.0158 0.005 0.0052 -0.0015
N1 0.012 0.014 0.017 0.004 0.0034 0.0019
C1 0.017 0.011 0.023 0.006 0.006 0.002
C2 0.02 0.015 0.029 0.008 0.016 0.001
C6 0.028 0.018 0.019 0.008 0.012 0.001
C8 0.018 0.016 0.012 0.006 0.007 0.001
C14 0.012 0.016 0.034 0.003 0.011 0.004
O21 0.016 0.017 0.025 0.0039 0.0074 0.0015
O36 0.013 0.021 0.017 0.0016 0.0082 0.0039
O38 0.011 0.02 0.0116 -0.0007 0.0024 0.0024
O42 0.009 0.017 0.0166 0.0048 0.0041 0
P2 0.0101 0.0139 0.0099 0.0023 0.002 -0.0009
O15 0.012 0.0133 0.0103 -0.0006 0.0016 -0.0005
C4 0.01 0.024 0.015 0.004 -0.001 -0.002
C5 0.026 0.014 0.028 0.001 0.017 -0.002
C7 0.016 0.028 0.014 0.007 0.007 -0.005
La4 0.00795 0.0137 0.01379 -0.00101 0.00143 -0.00044
O24 0.018 0.035 0.027 -0.0105 0.0053 -0.003
O27 0.017 0.024 0.032 -0.0066 0.0069 0.003
O29 0.022 0.025 0.0132 -0.0039 0.0021 -0.0049
C29 0.015 0.01 0.03 -0.001 0.008 0.003
C33 0.015 0.027 0.04 -0.005 0.005 -0.007
C44 0.032 0.048 0.066 -0.027 0.002 0.014
La9 0.00735 0.01317 0.01091 0.00071 0.00245 -0.00099
O35 0.011 0.0138 0.0177 0.005 0.0075 0.0023
C25 0.026 0.014 0.028 0.001 0.017 -0.002
La11 0.00795 0.0137 0.01379 -0.00101 0.00143 -0.00044
P4 0.0092 0.0114 0.0131 0.0009 0.0019 -0.0008
O16 0.013 0.017 0.0137 -0.0016 0.0034 -0.0003
O18 0.014 0.017 0.0158 0.005 0.0052 -0.0015
N4 0.012 0.014 0.017 0.004 0.0034 0.0019
C23 0.017 0.011 0.023 0.006 0.006 0.002
C24 0.02 0.015 0.029 0.008 0.016 0.001
C26 0.028 0.018 0.019 0.008 0.012 0.001
C27 0.018 0.016 0.012 0.006 0.007 0.001
C28 0.012 0.016 0.034 0.003 0.011 0.004
C34 0.025 0.024 0.038 -0.001 0.013 -0.006
P3 0.0124 0.0187 0.0109 0.0002 0.0021 -0.0024
O2 0.023 0.02 0.027 -0.0017 0.006 -0.0058
O9 0.017 0.03 0.0142 0.003 0.0086 -0.0035
O13 0.009 0.017 0.0166 0.0048 0.0041 0
N2 0.009 0.023 0.013 0.0061 0.0033 0.003
N3 0.02 0.022 0.013 0.0043 0.0001 -0.004
C9 0.017 0.017 0.012 0.001 0.003 0.002
C12 0.017 0.027 0.022 0.001 0.003 0.001
C13 0.021 0.026 0.008 0.005 0.003 -0.003
C15 0.016 0.026 0.015 0.002 0.001 -0.001
C16 0.012 0.027 0.017 0.004 -0.001 -0.002
C17 0.024 0.025 0.012 0.004 0.002 -0.004
C18 0.02 0.031 0.013 0.001 0.002 0.002
C19 0.038 0.02 0.024 0.012 -0.006 -0.006
C20 0.024 0.023 0.018 0 0.005 -0.005
C21 0.034 0.028 0.023 0.014 -0.009 -0.009
P6 0.0124 0.0187 0.0109 0.0002 0.0021 -0.0024
O19 0.023 0.02 0.027 -0.0017 0.006 -0.0058
O22 0.013 0.021 0.017 0.0016 0.0082 0.0039
O25 0.017 0.03 0.0142 0.003 0.0086 -0.0035
O26 0.011 0.02 0.0116 -0.0007 0.0024 0.0024
N5 0.009 0.023 0.013 0.0061 0.0033 0.003
N6 0.02 0.022 0.013 0.0043 0.0001 -0.004
C32 0.017 0.017 0.012 0.001 0.003 0.002
C35 0.017 0.027 0.022 0.001 0.003 0.001
C36 0.021 0.026 0.008 0.005 0.003 -0.003
C37 0.016 0.026 0.015 0.002 0.001 -0.001
C38 0.012 0.027 0.017 0.004 -0.001 -0.002
C39 0.024 0.025 0.012 0.004 0.002 -0.004
C40 0.02 0.031 0.013 0.001 0.002 0.002
C41 0.038 0.02 0.024 0.012 -0.006 -0.006
C42 0.024 0.023 0.018 0 0.005 -0.005
C43 0.034 0.028 0.023 0.014 -0.009 -0.009
O33 0.0081 0.0132 0.0151 0.0016 0.0038 0.0012
C11 0.025 0.024 0.038 -0.001 0.013 -0.006
O8 0.018 0.035 0.027 -0.0105 0.0053 -0.003
O12 0.017 0.024 0.032 -0.0066 0.0069 0.003
O14 0.022 0.025 0.0132 -0.0039 0.0021 -0.0049
C3 0.015 0.01 0.03 -0.001 0.008 0.003
C10 0.015 0.027 0.04 -0.005 0.005 -0.007
C22 0.032 0.048 0.066 -0.027 0.002 0.014
P5 0.0101 0.0139 0.0099 0.0023 0.002 -0.0009
O30 0.012 0.0133 0.0103 -0.0006 0.0016 -0.0005
C30 0.01 0.024 0.015 0.004 -0.001 -0.002
C31 0.016 0.028 0.014 0.007 0.007 -0.005
O4 0.016 0.017 0.025 0.0039 0.0074 0.0015
O23 0.022 0.023 0.023 -0.0031 0.0106 -0.0069
loop_
_geom_bond_atom_site_label_1
_geom_bond_atom_site_label_2
_geom_bond_site_symmetry_1
_geom_bond_site_symmetry_2
La1 O1 1_555 1_555
P1 O1 1_555 1_555
O3 La1 1_555 1_555
O5 P1 1_555 1_555
O7 La1 1_555 1_555
H1 O7 1_555 1_555
H2 O7 1_555 1_555
O11 La1 1_555 1_555
N1 H5 1_555 1_555
C1 H6 1_555 1_555
C2 C1 1_555 1_555
H8 C2 1_555 1_555
H9 C2 1_555 1_555
C6 N1 1_555 1_555
H15 C6 1_555 1_555
H16 C6 1_555 1_555
C8 P1 1_555 1_555
H19 C8 1_555 1_555
H20 C8 1_555 1_555
C14 N1 1_555 1_555
H30 C14 1_555 1_555
H31 C14 1_555 1_555
O36 La1 1_555 1_555
O38 La1 1_555 1_555
O42 La1 1_555 1_555
P1 O11 1_555 1_555
N1 C8 1_555 1_555
C2 C6 1_555 1_555
C4 P2 1_555 1_555
H11 C4 1_555 1_555
H12 C4 1_555 1_555
H13 C5 1_555 1_555
H14 C5 1_555 1_555
H17 C7 1_555 1_555
H18 C7 1_555 1_555
O24 La4 1_555 1_555
O27 La4 1_555 1_555
O29 La4 1_555 1_555
H61 O29 1_555 1_555
H62 O29 1_555 1_555
C33 O24 1_555 1_555
C44 C33 1_555 1_555
H90 C44 1_555 1_555
H91 C44 1_555 1_555
H92 C44 1_555 1_555
P2 O15 1_555 1_555
O15 La4 1_555 1_555
O27 C33 1_555 1_555
H51 C25 1_555 1_555
H52 C25 1_555 1_555
P4 O16 1_555 1_555
O16 La9 1_555 1_555
O35 P4 1_555 1_555
O18 P4 1_555 1_555
N4 H47 1_555 1_555
H48 C23 1_555 1_555
C24 C23 1_555 1_555
H49 C24 1_555 1_555
H50 C24 1_555 1_555
C26 N4 1_555 1_555
H53 C26 1_555 1_555
H54 C26 1_555 1_555
C27 P4 1_555 1_555
H55 C27 1_555 1_555
H56 C27 1_555 1_555
C28 N4 1_555 1_555
H57 C28 1_555 1_555
H58 C28 1_555 1_555
La9 O18 1_555 1_555
N4 C27 1_555 1_555
C24 C26 1_555 1_555
H73 C34 1_555 1_555
P3 O36 1_555 1_555
O9 P3 1_555 1_555
N2 H7 1_555 1_555
N3 H10 1_555 1_555
C9 N2 1_555 1_555
H21 C9 1_555 1_555
H22 C9 1_555 1_555
C12 C9 1_555 1_555
H26 C12 1_555 1_555
H27 C12 1_555 1_555
H28 C13 1_555 1_555
H29 C13 1_555 1_555
C15 P3 1_555 1_555
H32 C15 1_555 1_555
H33 C15 1_555 1_555
C16 C12 1_555 1_555
H34 C16 1_555 1_555
C17 N3 1_555 1_555
H35 C17 1_555 1_555
H36 C17 1_555 1_555
C18 C16 1_555 1_555
H37 C18 1_555 1_555
C19 N3 1_555 1_555
H38 C19 1_555 1_555
H39 C19 1_555 1_555
C20 C17 1_555 1_555
H40 C20 1_555 1_555
H41 C20 1_555 1_555
C21 C18 1_555 1_555
H42 C21 1_555 1_555
H43 C21 1_555 1_555
P6 O22 1_555 1_555
O22 La9 1_555 1_555
O25 P6 1_555 1_555
N5 H63 1_555 1_555
N6 H64 1_555 1_555
C32 N5 1_555 1_555
H69 C32 1_555 1_555
H70 C32 1_555 1_555
C35 C32 1_555 1_555
H74 C35 1_555 1_555
H75 C35 1_555 1_555
H76 C36 1_555 1_555
H77 C36 1_555 1_555
C37 P6 1_555 1_555
H78 C37 1_555 1_555
H79 C37 1_555 1_555
C38 C35 1_555 1_555
H80 C38 1_555 1_555
C39 N6 1_555 1_555
H81 C39 1_555 1_555
H82 C39 1_555 1_555
C40 C38 1_555 1_555
H83 C40 1_555 1_555
C41 N6 1_555 1_555
H84 C41 1_555 1_555
H85 C41 1_555 1_555
C42 C39 1_555 1_555
H86 C42 1_555 1_555
H87 C42 1_555 1_555
C43 C40 1_555 1_555
H88 C43 1_555 1_555
H89 C43 1_555 1_555
La9 O13 1_555 1_555
P3 O38 1_555 1_555
N3 C15 1_555 1_555
C13 C16 1_555 1_555
C18 C20 1_555 1_555
C19 C21 1_555 1_555
P6 O26 1_555 1_555
O26 La9 1_555 1_555
N6 C37 1_555 1_555
C36 C38 1_555 1_555
C40 C42 1_555 1_555
C41 C43 1_555 1_555
La9 O33 1_555 1_555
H25 C11 1_555 1_555
O8 La11 1_555 1_555
O12 La11 1_555 1_555
O14 La11 1_555 1_555
H3 O14 1_555 1_555
H4 O14 1_555 1_555
C10 O8 1_555 1_555
C22 C10 1_555 1_555
H44 C22 1_555 1_555
H45 C22 1_555 1_555
H46 C22 1_555 1_555
O30 La11 1_555 1_555
C30 P5 1_555 1_555
H65 C30 1_555 1_555
H66 C30 1_555 1_555
H67 C31 1_555 1_555
H68 C31 1_555 1_555
O12 C10 1_555 1_555
P5 O30 1_555 1_555
O23 La9 1_555 1_555
H59 O23 1_555 1_555
H60 O23 1_555 1_555

#END
