
###############################################################################
#
# This file contains modified crystal structure data generated from the
# MOF subset of the Cambridge Structural Database (CSD) v543 
# hosted by the Cambridge Crystallographic Data Centre (CCDC).
#
# This work is licensed under the Creative Commons
# Attribution-NonCommercial-ShareAlike 4.0 International License.
# To view a copy of this license, visit
# http://creativecommons.org/licenses/by-nc-sa/4.0/
# or send a letter to
# Creative Commons, PO Box 1866, Mountain View, CA 94042, USA.
#
# CIF created using the CSD Python API on 29 September 2022
# The structure has been converted into the P1 space group
# The structure has a 3D framework
# The original CSD entry WUFHIQ is in the monoclinic crystal system
# The framework has been calculated to contain at least 10.0% void space
# The void calculation uses a probe of radius 1.32A, grid spacing 0.4
#
###############################################################################

data_WUFHIQ
_chemical_formula_moiety         '(C52 H28 N4 O16 Zn2)n'
_symmetry_cell_setting           triclinic
_symmetry_space_group_name_H-M   'P 1'
_symmetry_Int_Tables_number      1
_space_group_name_Hall           'P 1'
loop_
_symmetry_equiv_pos_site_id
_symmetry_equiv_pos_as_xyz
1 x,y,z
_cell_length_a                   8.530(2)
_cell_length_b                   11.729(3)
_cell_length_c                   14.543(3)
_cell_angle_alpha                90
_cell_angle_beta                 91.071(4)
_cell_angle_gamma                90
_cell_volume                     1454.75
loop_
_atom_site_label
_atom_site_type_symbol
_atom_site_fract_x
_atom_site_fract_y
_atom_site_fract_z
Zn1 Zn 0.36079(2) 0.071598(16) 0.518234(13)
O1 O 0.30645(18) 0.00982(14) 0.39150(10)
H5 H 0.1125 0.0015 0.2640
N2 N 0.16911(17) 0.17024(12) 0.54085(10)
O5 O 0.48728(17) 0.10045(14) 0.63542(10)
O7 O 0.50327(19) 0.18551(13) 0.45188(12)
C1 C 0.0542(2) 0.76992(15) 0.01984(12)
O2 O 0.51272(17) 0.89955(14) 0.36458(10)
C2 C 0.1437(2) 0.81265(15) 0.10219(13)
C3 C 0.3016(2) 0.89857(16) 0.25752(13)
O3 O 0.28663(19) 0.57991(11) 0.07241(13)
C5 C 0.3679(2) 0.81350(15) 0.20520(13)
H2 H 0.4669 0.7860 0.2214
C6 C 0.2894(2) 0.76809(15) 0.12864(12)
O4 O 0.49673(19) 0.68551(13) 0.04812(12)
C9 C 0.1574(3) 0.94310(18) 0.23021(16)
C10 C 0.3800(2) 0.93978(15) 0.34476(13)
C12 C 0.0808(2) 0.90119(19) 0.15352(15)
C13 C 0.3638(2) 0.67025(16) 0.07804(13)
Zn4 Zn 0.63921(2) 0.928402(16) 0.481766(13)
Zn5 Zn 0.36079(2) 0.428402(16) 0.018234(13)
O6 O 0.28663(19) 0.92009(11) 0.57241(13)
C4 C 0.0963(2) 0.7976(2) 0.93156(15)
H1 H 0.1865 0.8401 0.9217
C8 C 0.0043(3) 0.7623(2) 0.85792(14)
H4 H 0.0309 0.7816 0.7982
Zn3 Zn 0.63921(2) 0.571598(16) 0.981766(13)
N1 N 0.83089(17) 0.67024(12) 0.95915(10)
C7 C 0.8726(2) 0.69821(18) 0.87410(13)
H3 H 0.8111 0.6737 0.8245
C7_2 C 0.1274(2) 0.19821(18) 0.62590(13)
H3_2 H 0.1889 0.1737 0.6755
C11 C 0.0797(2) 0.20647(15) 0.46991(13)
H6 H 0.1099 0.1877 0.4107
H7 H 0.0151 0.4326 0.3645
C1_2 C 0.9458(2) 0.26992(15) 0.48016(12)
O1_2 O 0.69355(18) 0.50982(14) 0.10850(10)
O2_2 O 0.48728(17) 0.39955(14) 0.13542(10)
C2_2 C 0.8563(2) 0.31265(15) 0.39781(13)
C3_2 C 0.6984(2) 0.39857(16) 0.24248(13)
O3_2 O 0.71337(19) 0.07991(11) 0.42759(13)
C4_2 C 0.9037(2) 0.2976(2) 0.56844(15)
H1_2 H 0.8135 0.3401 0.5783
C5_2 C 0.6321(2) 0.31350(15) 0.29480(13)
H2_2 H 0.5331 0.2860 0.2786
C6_2 C 0.7106(2) 0.26809(15) 0.37136(12)
C8_2 C 0.9957(3) 0.2623(2) 0.64208(14)
H4_2 H 0.9691 0.2816 0.7018
C9_2 C 0.8426(3) 0.44310(18) 0.26979(16)
H5_2 H 0.8875 0.5015 0.2360
C10_2 C 0.6200(2) 0.43978(15) 0.15524(13)
C12_2 C 0.9192(2) 0.40119(19) 0.34648(15)
C13_2 C 0.6362(2) 0.17025(16) 0.42196(13)
O5_2 O 0.51272(17) 0.60045(14) 0.86458(10)
O6_2 O 0.71337(19) 0.42009(11) 0.92759(13)
N1_2 N 0.16911(17) 0.32976(12) 0.04085(10)
C7_3 C 0.1274(2) 0.30179(18) 0.12590(13)
H3_3 H 0.1889 0.3263 0.1755
C4_3 C 0.9037(2) 0.2024(2) 0.06844(15)
H1_3 H 0.8135 0.1599 0.0783
C8_3 C 0.9957(3) 0.2377(2) 0.14208(14)
H4_3 H 0.9691 0.2184 0.2018
C1_3 C 0.9458(2) 0.23008(15) 0.98016(12)
C2_3 C 0.8563(2) 0.18735(15) 0.89781(13)
C3_3 C 0.6984(2) 0.10143(16) 0.74248(13)
C5_3 C 0.6321(2) 0.18650(15) 0.79480(13)
H2_3 H 0.5331 0.2140 0.7786
C6_3 C 0.7106(2) 0.23191(15) 0.87136(12)
O4_2 O 0.50327(19) 0.31449(13) 0.95188(12)
C9_3 C 0.8426(3) 0.05690(18) 0.76979(16)
C10_3 C 0.6200(2) 0.06022(15) 0.65524(13)
C12_3 C 0.9192(2) 0.09881(19) 0.84648(15)
C13_3 C 0.6362(2) 0.32975(16) 0.92196(13)
O1_3 O 0.69355(18) 0.99018(14) 0.60850(10)
H5_3 H 0.8875 0.9985 0.7360
N2_2 N 0.83089(17) 0.82976(12) 0.45915(10)
O7_2 O 0.49673(19) 0.81449(13) 0.54812(12)
C1_4 C 0.0542(2) 0.73008(15) 0.51984(12)
O1_4 O 0.30645(18) 0.49018(14) 0.89150(10)
C2_4 C 0.1437(2) 0.68735(15) 0.60219(13)
C3_4 C 0.3016(2) 0.60143(16) 0.75752(13)
C4_4 C 0.0963(2) 0.7024(2) 0.43156(15)
H1_4 H 0.1865 0.6599 0.4217
C5_4 C 0.3679(2) 0.68650(15) 0.70520(13)
H2_4 H 0.4669 0.7140 0.7214
C6_4 C 0.2894(2) 0.73191(15) 0.62864(12)
C8_4 C 0.0043(3) 0.7377(2) 0.35792(14)
H4_4 H 0.0309 0.7184 0.2982
C9_4 C 0.1574(3) 0.55690(18) 0.73021(16)
H5_4 H 0.1125 0.4985 0.7640
C10_4 C 0.3800(2) 0.56022(15) 0.84476(13)
C12_4 C 0.0808(2) 0.59881(19) 0.65352(15)
C13_4 C 0.3638(2) 0.82975(16) 0.57804(13)
C7_4 C 0.8726(2) 0.80179(18) 0.37410(13)
H3_4 H 0.8111 0.8263 0.3245
C11_2 C 0.9203(2) 0.79353(15) 0.53009(13)
H6_2 H 0.8901 0.8123 0.5893
H7_2 H 0.9849 0.5674 0.6355
C11_3 C 0.9203(2) 0.70647(15) 0.03009(13)
H6_3 H 0.8901 0.6877 0.0893
H7_3 H 0.9849 0.9326 0.1355
C11_4 C 0.0797(2) 0.29353(15) 0.96991(13)
H6_4 H 0.1099 0.3123 0.9107
H7_4 H 0.0151 0.0674 0.8645
loop_
_geom_bond_atom_site_label_1
_geom_bond_atom_site_label_2
_geom_bond_site_symmetry_1
_geom_bond_site_symmetry_2
Zn1 O1 1_555 1_555
N2 Zn1 1_555 1_555
O5 Zn1 1_555 1_555
O7 Zn1 1_555 1_555
C1 C2 1_555 1_555
O2 C10 1_555 1_555
C2 C6 1_555 1_555
C3 C5 1_555 1_555
O3 C13 1_555 1_555
C5 H2 1_555 1_555
C6 C5 1_555 1_555
O4 C13 1_555 1_555
C9 C3 1_555 1_555
C10 C3 1_555 1_555
C12 C2 1_555 1_555
C13 C6 1_555 1_555
Zn4 O2 1_555 1_555
Zn5 O3 1_555 1_555
C9 C12 1_555 1_555
H1 C4 1_555 1_555
C8 C4 1_555 1_555
H4 C8 1_555 1_555
N1 C7 1_555 1_555
C7 H3 1_555 1_555
Zn3 N1 1_555 1_555
N2 C7_2 1_555 1_555
C7_2 H3_2 1_555 1_555
H6 C11 1_555 1_555
N2 C11 1_555 1_555
C1_2 C2_2 1_555 1_555
O1_2 C10_2 1_555 1_555
O2_2 C10_2 1_555 1_555
C2_2 C6_2 1_555 1_555
C3_2 C5_2 1_555 1_555
O3_2 C13_2 1_555 1_555
C4_2 C1_2 1_555 1_555
H1_2 C4_2 1_555 1_555
C5_2 H2_2 1_555 1_555
C6_2 C5_2 1_555 1_555
O7 C13_2 1_555 1_555
C8_2 C4_2 1_555 1_555
H4_2 C8_2 1_555 1_555
C9_2 C3_2 1_555 1_555
H5_2 C9_2 1_555 1_555
C10_2 C3_2 1_555 1_555
C12_2 C2_2 1_555 1_555
C13_2 C6_2 1_555 1_555
Zn5 O2_2 1_555 1_555
C9_2 C12_2 1_555 1_555
O5_2 Zn3 1_555 1_555
O6_2 Zn3 1_555 1_555
N1_2 C7_3 1_555 1_555
C7_3 H3_3 1_555 1_555
Zn5 N1_2 1_555 1_555
H1_3 C4_3 1_555 1_555
C8_3 C4_3 1_555 1_555
H4_3 C8_3 1_555 1_555
C1_3 C2_3 1_555 1_555
O5 C10_3 1_555 1_555
C2_3 C6_3 1_555 1_555
C3_3 C5_3 1_555 1_555
O6_2 C13_3 1_555 1_555
C5_3 H2_3 1_555 1_555
C6_3 C5_3 1_555 1_555
O4_2 C13_3 1_555 1_555
C9_3 C3_3 1_555 1_555
C10_3 C3_3 1_555 1_555
C12_3 C2_3 1_555 1_555
C13_3 C6_3 1_555 1_555
C9_3 C12_3 1_555 1_555
Zn4 O1_3 1_555 1_555
N2_2 Zn4 1_555 1_555
O7_2 Zn4 1_555 1_555
C1_4 C2_4 1_555 1_555
O1_4 C10_4 1_555 1_555
O5_2 C10_4 1_555 1_555
C2_4 C6_4 1_555 1_555
C3_4 C5_4 1_555 1_555
O6 C13_4 1_555 1_555
C4_4 C1_4 1_555 1_555
H1_4 C4_4 1_555 1_555
C5_4 H2_4 1_555 1_555
C6_4 C5_4 1_555 1_555
O7_2 C13_4 1_555 1_555
C8_4 C4_4 1_555 1_555
H4_4 C8_4 1_555 1_555
C9_4 C3_4 1_555 1_555
H5_4 C9_4 1_555 1_555
C10_4 C3_4 1_555 1_555
C12_4 C2_4 1_555 1_555
C13_4 C6_4 1_555 1_555
C9_4 C12_4 1_555 1_555
N2_2 C7_4 1_555 1_555
C7_4 H3_4 1_555 1_555
H6_2 C11_2 1_555 1_555
N2_2 C11_2 1_555 1_555
H6_3 C11_3 1_555 1_555
H6_4 C11_4 1_555 1_555

#END
