
###############################################################################
#
# This file contains modified crystal structure data generated from the
# MOF subset of the Cambridge Structural Database (CSD) v543 
# hosted by the Cambridge Crystallographic Data Centre (CCDC).
#
# This work is licensed under the Creative Commons
# Attribution-NonCommercial-ShareAlike 4.0 International License.
# To view a copy of this license, visit
# http://creativecommons.org/licenses/by-nc-sa/4.0/
# or send a letter to
# Creative Commons, PO Box 1866, Mountain View, CA 94042, USA.
#
# CIF created using the CSD Python API on 29 September 2022
# The structure has been converted into the P1 space group
# The structure has a 3D framework
# The original CSD entry WUFSIC is in the monoclinic crystal system
# The framework has been calculated to contain at least 10.0% void space
# The void calculation uses a probe of radius 1.32A, grid spacing 0.4
#
###############################################################################

data_WUFSIC
_chemical_formula_moiety         '(C104 H72 Mn6 N8 O40)n'
_symmetry_cell_setting           triclinic
_symmetry_space_group_name_H-M   'P 1'
_symmetry_Int_Tables_number      1
_space_group_name_Hall           'P 1'
loop_
_symmetry_equiv_pos_site_id
_symmetry_equiv_pos_as_xyz
1 x,y,z
_cell_length_a                   7.4273(8)
_cell_length_b                   18.7436(12)
_cell_length_c                   20.3724(17)
_cell_angle_alpha                90
_cell_angle_beta                 90.807(10)
_cell_angle_gamma                90
_cell_volume                     2835.85
loop_
_atom_site_label
_atom_site_type_symbol
_atom_site_fract_x
_atom_site_fract_y
_atom_site_fract_z
H10 H 0.1094 0.0049 0.7932
C20 C 0.1871(18) 0.0298(6) 0.9187(6)
O6 O 0.2474(15) 0.0249(4) 0.9762(5)
O7 O 0.1949(15) 0.0893(4) 0.8909(5)
Mn3 Mn 0.3395(3) 0.14408(8) 0.97337(9)
C4 C 0.0233(16) 0.8449(6) 0.6774(6)
H2 H 0.0626 0.8033 0.6980
C5 C 0.0023(17) 0.8462(6) 0.6090(6)
C8 C 0.0635(17) 0.7869(6) 0.5660(6)
O4 O 0.0817(14) 0.7254(4) 0.5922(5)
O5 O 0.0978(14) 0.7986(5) 0.5068(5)
C14 C 0.1137(17) 0.9666(6) 0.8867(6)
C15 C 0.0826(17) 0.9645(6) 0.8177(6)
C16 C 0.0138(17) 0.9050(6) 0.7849(6)
C19 C 0.0648(17) 0.9065(6) 0.9214(6)
H12 H 0.0777 0.9067 0.9668
Mn4 Mn 0.1605(3) 0.64408(8) 0.52663(9)
Mn6 Mn 0.3395(3) 0.85592(8) 0.47337(9)
Mn1 Mn 0.6605(3) 0.14408(8) 0.52663(9)
H1 H 0.8906 0.0049 0.7068
C7 C 0.8129(18) 0.0298(6) 0.5813(6)
C9 C 0.599(2) 0.0756(7) 0.3869(6)
H4 H 0.6368 0.0349 0.4094
C10 C 0.569(2) 0.0706(7) 0.3194(6)
H5 H 0.5875 0.0279 0.2973
C11 C 0.510(2) 0.1312(7) 0.2861(6)
C12 C 0.475(2) 0.1906(7) 0.3216(7)
H6 H 0.4299 0.2310 0.3006
C13 C 0.506(2) 0.1919(7) 0.3885(6)
H7 H 0.4774 0.2329 0.4119
N1 N 0.5773(17) 0.1358(5) 0.4212(5)
O1 O 0.7526(15) 0.0249(4) 0.5238(5)
O2 O 0.3943(15) 0.0994(6) 0.5473(6)
H8 H 0.4605 0.0662 0.5626
H9 H 0.3568 0.0874 0.5093
O3 O 0.8051(15) 0.0893(4) 0.6091(5)
C22 C 0.401(2) 0.0756(7) 0.1131(6)
H13 H 0.3632 0.0349 0.0906
C23 C 0.431(2) 0.0706(7) 0.1806(6)
H14 H 0.4125 0.0279 0.2027
C24 C 0.490(2) 0.1312(7) 0.2139(6)
C25 C 0.525(2) 0.1906(7) 0.1784(7)
H15 H 0.5701 0.2310 0.1994
C26 C 0.494(2) 0.1919(7) 0.1115(6)
H16 H 0.5226 0.2329 0.0881
N2 N 0.4227(17) 0.1358(5) 0.0788(5)
O13 O 0.5817(14) 0.2254(4) 0.5922(5)
O15 O 0.9022(14) 0.2014(5) 0.4932(5)
O16 O 0.0978(14) 0.2014(5) 0.0068(5)
O10 O 0.6057(15) 0.0994(6) 0.9527(6)
H17 H 0.5395 0.0662 0.9374
H18 H 0.6432 0.0874 0.9907
O14 O 0.4183(14) 0.2254(4) 0.9078(5)
Mn7 Mn 0.6605(3) 0.85592(8) 0.02663(9)
C1 C 0.8863(17) 0.9666(6) 0.6133(6)
C2 C 0.9174(17) 0.9645(6) 0.6823(6)
C3 C 0.9862(17) 0.9050(6) 0.7151(6)
C6 C 0.9352(17) 0.9065(6) 0.5786(6)
H3 H 0.9223 0.9067 0.5332
C17 C 0.9767(16) 0.8449(6) 0.8226(6)
H11 H 0.9374 0.8033 0.8020
C18 C 0.9977(17) 0.8462(6) 0.8910(6)
C21 C 0.9365(17) 0.7869(6) 0.9340(6)
O8 O 0.9183(14) 0.7254(4) 0.9078(5)
O9 O 0.9022(14) 0.7986(5) 0.9932(5)
Mn5 Mn 0.8395(3) 0.64408(8) 0.97337(9)
Mn7_2 Mn 0.1605(3) 0.35592(8) 0.02663(9)
C1_2 C 0.3863(17) 0.4666(6) 0.6133(6)
C2_2 C 0.4174(17) 0.4645(6) 0.6823(6)
H1_2 H 0.3906 0.5049 0.7068
C3_2 C 0.4862(17) 0.4050(6) 0.7151(6)
C4_2 C 0.5233(16) 0.3449(6) 0.6774(6)
H2_2 H 0.5626 0.3033 0.6980
C5_2 C 0.5023(17) 0.3462(6) 0.6090(6)
C6_2 C 0.4352(17) 0.4065(6) 0.5786(6)
H3_2 H 0.4223 0.4067 0.5332
C7_2 C 0.3129(18) 0.5298(6) 0.5813(6)
C8_2 C 0.5635(17) 0.2869(6) 0.5660(6)
C9_2 C 0.099(2) 0.5756(7) 0.3869(6)
H4_2 H 0.1368 0.5349 0.4094
C10_2 C 0.069(2) 0.5706(7) 0.3194(6)
H5_2 H 0.0875 0.5279 0.2973
C11_2 C 0.010(2) 0.6312(7) 0.2861(6)
C13_2 C 0.006(2) 0.6919(7) 0.3885(6)
N1_2 N 0.0773(17) 0.6358(5) 0.4212(5)
O1_2 O 0.2526(15) 0.5249(4) 0.5238(5)
O3_2 O 0.3051(15) 0.5893(4) 0.6091(5)
O5_2 O 0.5978(14) 0.2986(5) 0.5068(5)
C14_2 C 0.6137(17) 0.4666(6) 0.8867(6)
C15_2 C 0.5826(17) 0.4645(6) 0.8177(6)
H10_2 H 0.6094 0.5049 0.7932
C16_2 C 0.5138(17) 0.4050(6) 0.7849(6)
C17_2 C 0.4767(16) 0.3449(6) 0.8226(6)
H11_2 H 0.4374 0.3033 0.8020
C18_2 C 0.4977(17) 0.3462(6) 0.8910(6)
C19_2 C 0.5648(17) 0.4065(6) 0.9214(6)
H12_2 H 0.5777 0.4067 0.9668
C20_2 C 0.6871(18) 0.5298(6) 0.9187(6)
C21_2 C 0.4365(17) 0.2869(6) 0.9340(6)
O6_2 O 0.7474(15) 0.5249(4) 0.9762(5)
O7_2 O 0.6949(15) 0.5893(4) 0.8909(5)
O9_2 O 0.4022(14) 0.2986(5) 0.9932(5)
C25_2 C 0.025(2) 0.6906(7) 0.1784(7)
H15_2 H 0.0701 0.7310 0.1994
H16_2 H 0.0226 0.7329 0.0881
Mn6_2 Mn 0.8395(3) 0.35592(8) 0.47337(9)
O15_2 O 0.4022(14) 0.7014(5) 0.4932(5)
C12_2 C 0.975(2) 0.6906(7) 0.3216(7)
H6_2 H 0.9299 0.7310 0.3006
H7_2 H 0.9774 0.7329 0.4119
O2_2 O 0.8943(15) 0.5994(6) 0.5473(6)
H8_2 H 0.9605 0.5662 0.5626
H9_2 H 0.8568 0.5874 0.5093
C22_2 C 0.901(2) 0.5756(7) 0.1131(6)
H13_2 H 0.8632 0.5349 0.0906
C23_2 C 0.931(2) 0.5706(7) 0.1806(6)
H14_2 H 0.9125 0.5279 0.2027
C24_2 C 0.990(2) 0.6312(7) 0.2139(6)
C26_2 C 0.994(2) 0.6919(7) 0.1115(6)
N2_2 N 0.9227(17) 0.6358(5) 0.0788(5)
O16_2 O 0.5978(14) 0.7014(5) 0.0068(5)
C1_3 C 0.1137(17) 0.0334(6) 0.3867(6)
C2_3 C 0.0826(17) 0.0355(6) 0.3177(6)
C3_3 C 0.0138(17) 0.0950(6) 0.2849(6)
C6_3 C 0.0648(17) 0.0935(6) 0.4214(6)
H3_3 H 0.0777 0.0933 0.4668
C17_3 C 0.0233(16) 0.1551(6) 0.1774(6)
H11_3 H 0.0626 0.1967 0.1980
C18_3 C 0.0023(17) 0.1538(6) 0.1090(6)
C21_3 C 0.0635(17) 0.2131(6) 0.0660(6)
O8_2 O 0.0817(14) 0.2746(4) 0.0922(5)
O10_2 O 0.3943(15) 0.9006(6) 0.0473(6)
H17_2 H 0.4605 0.9338 0.0626
H18_2 H 0.3568 0.9126 0.0093
O11 O 0.7526(15) 0.9751(4) 0.0238(5)
O12 O 0.8051(15) 0.9107(4) 0.1091(5)
O14_2 O 0.5817(14) 0.7746(4) 0.0922(5)
H1_3 H 0.1094 0.9951 0.2932
C7_3 C 0.1871(18) 0.9702(6) 0.4187(6)
C9_3 C 0.401(2) 0.9244(7) 0.6131(6)
H4_3 H 0.3632 0.9651 0.5906
C10_3 C 0.431(2) 0.9294(7) 0.6806(6)
H5_3 H 0.4125 0.9721 0.7027
C11_3 C 0.490(2) 0.8688(7) 0.7139(6)
C12_3 C 0.525(2) 0.8094(7) 0.6784(7)
H6_3 H 0.5701 0.7690 0.6994
C13_3 C 0.494(2) 0.8081(7) 0.6115(6)
H7_3 H 0.5226 0.7671 0.5881
N1_3 N 0.4227(17) 0.8642(5) 0.5788(5)
O1_3 O 0.2474(15) 0.9751(4) 0.4762(5)
O2_3 O 0.6057(15) 0.9006(6) 0.4527(6)
H8_3 H 0.5395 0.9338 0.4374
H9_3 H 0.6432 0.9126 0.4907
O3_3 O 0.1949(15) 0.9107(4) 0.3909(5)
C22_3 C 0.599(2) 0.9244(7) 0.8869(6)
H13_3 H 0.6368 0.9651 0.9094
C23_3 C 0.569(2) 0.9294(7) 0.8194(6)
H14_3 H 0.5875 0.9721 0.7973
C24_3 C 0.510(2) 0.8688(7) 0.7861(6)
C25_3 C 0.475(2) 0.8094(7) 0.8216(7)
H15_3 H 0.4299 0.7690 0.8006
C26_3 C 0.506(2) 0.8081(7) 0.8885(6)
H16_3 H 0.4774 0.7671 0.9119
N2_3 N 0.5773(17) 0.8642(5) 0.9212(5)
O13_2 O 0.4183(14) 0.7746(4) 0.4078(5)
C4_3 C 0.9767(16) 0.1551(6) 0.3226(6)
H2_3 H 0.9374 0.1967 0.3020
C5_3 C 0.9977(17) 0.1538(6) 0.3910(6)
C8_3 C 0.9365(17) 0.2131(6) 0.4340(6)
O4_2 O 0.9183(14) 0.2746(4) 0.4078(5)
C14_3 C 0.8863(17) 0.0334(6) 0.1133(6)
C15_3 C 0.9174(17) 0.0355(6) 0.1823(6)
C16_3 C 0.9862(17) 0.0950(6) 0.2151(6)
C19_3 C 0.9352(17) 0.0935(6) 0.0786(6)
H12_3 H 0.9223 0.0933 0.0332
H10_3 H 0.8906 0.9951 0.2068
C20_3 C 0.8129(18) 0.9702(6) 0.0813(6)
O11_2 O 0.2526(15) 0.4751(4) 0.0238(5)
O12_2 O 0.3051(15) 0.4107(4) 0.1091(5)
C12_4 C 0.025(2) 0.3094(7) 0.6784(7)
H6_4 H 0.0701 0.2690 0.6994
H7_4 H 0.0226 0.2671 0.5881
O2_4 O 0.1057(15) 0.4006(6) 0.4527(6)
H8_4 H 0.0395 0.4338 0.4374
H9_4 H 0.1432 0.4126 0.4907
C22_4 C 0.099(2) 0.4244(7) 0.8869(6)
H13_4 H 0.1368 0.4651 0.9094
C23_4 C 0.069(2) 0.4294(7) 0.8194(6)
H14_4 H 0.0875 0.4721 0.7973
C24_4 C 0.010(2) 0.3688(7) 0.7861(6)
C26_4 C 0.006(2) 0.3081(7) 0.8885(6)
N2_4 N 0.0773(17) 0.3642(5) 0.9212(5)
C1_4 C 0.6137(17) 0.5334(6) 0.3867(6)
C2_4 C 0.5826(17) 0.5355(6) 0.3177(6)
H1_4 H 0.6094 0.4951 0.2932
C3_4 C 0.5138(17) 0.5950(6) 0.2849(6)
C4_4 C 0.4767(16) 0.6551(6) 0.3226(6)
H2_4 H 0.4374 0.6967 0.3020
C5_4 C 0.4977(17) 0.6538(6) 0.3910(6)
C6_4 C 0.5648(17) 0.5935(6) 0.4214(6)
H3_4 H 0.5777 0.5933 0.4668
C7_4 C 0.6871(18) 0.4702(6) 0.4187(6)
C8_4 C 0.4365(17) 0.7131(6) 0.4340(6)
C9_4 C 0.901(2) 0.4244(7) 0.6131(6)
H4_4 H 0.8632 0.4651 0.5906
C10_4 C 0.931(2) 0.4294(7) 0.6806(6)
H5_4 H 0.9125 0.4721 0.7027
C11_4 C 0.990(2) 0.3688(7) 0.7139(6)
C13_4 C 0.994(2) 0.3081(7) 0.6115(6)
N1_4 N 0.9227(17) 0.3642(5) 0.5788(5)
O1_4 O 0.7474(15) 0.4751(4) 0.4762(5)
O3_4 O 0.6949(15) 0.4107(4) 0.3909(5)
C14_4 C 0.3863(17) 0.5334(6) 0.1133(6)
C15_4 C 0.4174(17) 0.5355(6) 0.1823(6)
H10_4 H 0.3906 0.4951 0.2068
C16_4 C 0.4862(17) 0.5950(6) 0.2151(6)
C17_4 C 0.5233(16) 0.6551(6) 0.1774(6)
H11_4 H 0.5626 0.6967 0.1980
C18_4 C 0.5023(17) 0.6538(6) 0.1090(6)
C19_4 C 0.4352(17) 0.5935(6) 0.0786(6)
H12_4 H 0.4223 0.5933 0.0332
C20_4 C 0.3129(18) 0.4702(6) 0.0813(6)
C21_4 C 0.5635(17) 0.7131(6) 0.0660(6)
C25_4 C 0.975(2) 0.3094(7) 0.8216(7)
H15_4 H 0.9299 0.2690 0.8006
H16_4 H 0.9774 0.2671 0.9119
O10_3 O 0.1057(15) 0.5994(6) 0.9527(6)
H17_3 H 0.0395 0.5662 0.9374
H18_3 H 0.1432 0.5874 0.9907
O10_4 O 0.8943(15) 0.4006(6) 0.0473(6)
H17_4 H 0.9605 0.4338 0.0626
H18_4 H 0.8568 0.4126 0.0093
loop_
_geom_bond_atom_site_label_1
_geom_bond_atom_site_label_2
_geom_bond_site_symmetry_1
_geom_bond_site_symmetry_2
O6 C20 1_555 1_555
O7 C20 1_555 1_555
Mn3 O6 1_555 1_555
O7 Mn3 1_555 1_555
H2 C4 1_555 1_555
C5 C4 1_555 1_555
C8 C5 1_555 1_555
O4 C8 1_555 1_555
O5 C8 1_555 1_555
C14 C15 1_555 1_555
C19 C14 1_555 1_555
H12 C19 1_555 1_555
Mn4 O4 1_555 1_555
Mn6 O5 1_555 1_555
C15 C16 1_555 1_555
Mn1 N1 1_555 1_555
C9 H4 1_555 1_555
C10 C9 1_555 1_555
H5 C10 1_555 1_555
C11 C10 1_555 1_555
C12 C11 1_555 1_555
H6 C12 1_555 1_555
C13 C12 1_555 1_555
H7 C13 1_555 1_555
N1 C9 1_555 1_555
O1 Mn1 1_555 1_555
O2 Mn1 1_555 1_555
H8 O2 1_555 1_555
H9 O2 1_555 1_555
O3 Mn1 1_555 1_555
C22 H13 1_555 1_555
C23 C22 1_555 1_555
H14 C23 1_555 1_555
C24 C11 1_555 1_555
C25 C24 1_555 1_555
H15 C25 1_555 1_555
C26 C25 1_555 1_555
H16 C26 1_555 1_555
N2 C22 1_555 1_555
O13 Mn1 1_555 1_555
O15 Mn1 1_555 1_555
C7 O1 1_555 1_555
C7 O3 1_555 1_555
C13 N1 1_555 1_555
C23 C24 1_555 1_555
C26 N2 1_555 1_555
O10 Mn3 1_555 1_555
H17 O10 1_555 1_555
H18 O10 1_555 1_555
O14 Mn3 1_555 1_555
C1 C2 1_555 1_555
C3 C2 1_555 1_555
C6 C1 1_555 1_555
H3 C6 1_555 1_555
H11 C17 1_555 1_555
C18 C17 1_555 1_555
C21 C18 1_555 1_555
O8 C21 1_555 1_555
O9 C21 1_555 1_555
Mn5 O8 1_555 1_555
Mn4 N1_2 1_555 1_555
C1_2 C2_2 1_555 1_555
C2_2 H1_2 1_555 1_555
C3_2 C2_2 1_555 1_555
C4_2 C3_2 1_555 1_555
H2_2 C4_2 1_555 1_555
C5_2 C4_2 1_555 1_555
C6_2 C1_2 1_555 1_555
H3_2 C6_2 1_555 1_555
C7_2 C1_2 1_555 1_555
C8_2 C5_2 1_555 1_555
C9_2 H4_2 1_555 1_555
C10_2 C9_2 1_555 1_555
H5_2 C10_2 1_555 1_555
C11_2 C10_2 1_555 1_555
N1_2 C9_2 1_555 1_555
O1_2 Mn4 1_555 1_555
O3_2 Mn4 1_555 1_555
O13 C8_2 1_555 1_555
O5_2 C8_2 1_555 1_555
C14_2 C15_2 1_555 1_555
C15_2 H10_2 1_555 1_555
C16_2 C3_2 1_555 1_555
C17_2 C16_2 1_555 1_555
H11_2 C17_2 1_555 1_555
C18_2 C17_2 1_555 1_555
C19_2 C14_2 1_555 1_555
H12_2 C19_2 1_555 1_555
C20_2 C14_2 1_555 1_555
C21_2 C18_2 1_555 1_555
O6_2 C20_2 1_555 1_555
O7_2 C20_2 1_555 1_555
O14 C21_2 1_555 1_555
O9_2 C21_2 1_555 1_555
H15_2 C25_2 1_555 1_555
Mn5 O6_2 1_555 1_555
Mn6_2 O5_2 1_555 1_555
O15_2 Mn4 1_555 1_555
C5_2 C6_2 1_555 1_555
C7_2 O1_2 1_555 1_555
C7_2 O3_2 1_555 1_555
C13_2 N1_2 1_555 1_555
C15_2 C16_2 1_555 1_555
C18_2 C19_2 1_555 1_555
O7_2 Mn5 1_555 1_555
H6_2 C12_2 1_555 1_555
H8_2 O2_2 1_555 1_555
H9_2 O2_2 1_555 1_555
C22_2 H13_2 1_555 1_555
C23_2 C22_2 1_555 1_555
H14_2 C23_2 1_555 1_555
N2_2 C22_2 1_555 1_555
C23_2 C24_2 1_555 1_555
C26_2 N2_2 1_555 1_555
C1_3 C2_3 1_555 1_555
C3_3 C2_3 1_555 1_555
C6_3 C1_3 1_555 1_555
H3_3 C6_3 1_555 1_555
H11_3 C17_3 1_555 1_555
C18_3 C17_3 1_555 1_555
C21_3 C18_3 1_555 1_555
O8_2 C21_3 1_555 1_555
O16 C21_3 1_555 1_555
Mn7_2 O8_2 1_555 1_555
O10_2 Mn7 1_555 1_555
H17_2 O10_2 1_555 1_555
H18_2 O10_2 1_555 1_555
O11 Mn7 1_555 1_555
O12 Mn7 1_555 1_555
O14_2 Mn7 1_555 1_555
Mn6 N1_3 1_555 1_555
C9_3 H4_3 1_555 1_555
C10_3 C9_3 1_555 1_555
H5_3 C10_3 1_555 1_555
C11_3 C10_3 1_555 1_555
C12_3 C11_3 1_555 1_555
H6_3 C12_3 1_555 1_555
C13_3 C12_3 1_555 1_555
H7_3 C13_3 1_555 1_555
N1_3 C9_3 1_555 1_555
O1_3 Mn6 1_555 1_555
O2_3 Mn6 1_555 1_555
H8_3 O2_3 1_555 1_555
H9_3 O2_3 1_555 1_555
O3_3 Mn6 1_555 1_555
C22_3 H13_3 1_555 1_555
C23_3 C22_3 1_555 1_555
H14_3 C23_3 1_555 1_555
C24_3 C11_3 1_555 1_555
C25_3 C24_3 1_555 1_555
H15_3 C25_3 1_555 1_555
C26_3 C25_3 1_555 1_555
H16_3 C26_3 1_555 1_555
N2_3 C22_3 1_555 1_555
O13_2 Mn6 1_555 1_555
C7_3 O1_3 1_555 1_555
C7_3 O3_3 1_555 1_555
C13_3 N1_3 1_555 1_555
C23_3 C24_3 1_555 1_555
C26_3 N2_3 1_555 1_555
H2_3 C4_3 1_555 1_555
C5_3 C4_3 1_555 1_555
C8_3 C5_3 1_555 1_555
O4_2 C8_3 1_555 1_555
O15 C8_3 1_555 1_555
C14_3 C15_3 1_555 1_555
C19_3 C14_3 1_555 1_555
H12_3 C19_3 1_555 1_555
Mn6_2 O4_2 1_555 1_555
C15_3 C16_3 1_555 1_555
O11 C20_3 1_555 1_555
O12 C20_3 1_555 1_555
O11_2 Mn7_2 1_555 1_555
O12_2 Mn7_2 1_555 1_555
H6_4 C12_4 1_555 1_555
H8_4 O2_4 1_555 1_555
H9_4 O2_4 1_555 1_555
C22_4 H13_4 1_555 1_555
C23_4 C22_4 1_555 1_555
H14_4 C23_4 1_555 1_555
N2_4 C22_4 1_555 1_555
C23_4 C24_4 1_555 1_555
C26_4 N2_4 1_555 1_555
Mn6_2 N1_4 1_555 1_555
C1_4 C2_4 1_555 1_555
C2_4 H1_4 1_555 1_555
C3_4 C2_4 1_555 1_555
C4_4 C3_4 1_555 1_555
H2_4 C4_4 1_555 1_555
C5_4 C4_4 1_555 1_555
C6_4 C1_4 1_555 1_555
H3_4 C6_4 1_555 1_555
C7_4 C1_4 1_555 1_555
C8_4 C5_4 1_555 1_555
C9_4 H4_4 1_555 1_555
C10_4 C9_4 1_555 1_555
H5_4 C10_4 1_555 1_555
C11_4 C10_4 1_555 1_555
N1_4 C9_4 1_555 1_555
O1_4 Mn6_2 1_555 1_555
O3_4 Mn6_2 1_555 1_555
O13_2 C8_4 1_555 1_555
O15_2 C8_4 1_555 1_555
C14_4 C15_4 1_555 1_555
C15_4 H10_4 1_555 1_555
C16_4 C3_4 1_555 1_555
C17_4 C16_4 1_555 1_555
H11_4 C17_4 1_555 1_555
C18_4 C17_4 1_555 1_555
C19_4 C14_4 1_555 1_555
H12_4 C19_4 1_555 1_555
C20_4 C14_4 1_555 1_555
C21_4 C18_4 1_555 1_555
O11_2 C20_4 1_555 1_555
O12_2 C20_4 1_555 1_555
O14_2 C21_4 1_555 1_555
O16_2 C21_4 1_555 1_555
H15_4 C25_4 1_555 1_555
C5_4 C6_4 1_555 1_555
C7_4 O1_4 1_555 1_555
C7_4 O3_4 1_555 1_555
C13_4 N1_4 1_555 1_555
C15_4 C16_4 1_555 1_555
C18_4 C19_4 1_555 1_555
H17_3 O10_3 1_555 1_555
H18_3 O10_3 1_555 1_555
H17_4 O10_4 1_555 1_555
H18_4 O10_4 1_555 1_555

#END
