
###############################################################################
#
# This file contains modified crystal structure data generated from the
# MOF subset of the Cambridge Structural Database (CSD) v543 
# hosted by the Cambridge Crystallographic Data Centre (CCDC).
#
# This work is licensed under the Creative Commons
# Attribution-NonCommercial-ShareAlike 4.0 International License.
# To view a copy of this license, visit
# http://creativecommons.org/licenses/by-nc-sa/4.0/
# or send a letter to
# Creative Commons, PO Box 1866, Mountain View, CA 94042, USA.
#
# CIF created using the CSD Python API on 29 September 2022
# The structure has been converted into the P1 space group
# The structure has a 3D framework
# The original CSD entry WUJHIV is in the orthorhombic crystal system
# The original CSD entry WUJHIV is in a Sohncke space group
# The framework has been calculated to contain at least 10.0% void space
# The void calculation uses a probe of radius 1.32A, grid spacing 0.4
#
###############################################################################

data_WUJHIV
_chemical_formula_moiety         '(C98 H64 Cu4 N12)n'
_symmetry_cell_setting           triclinic
_symmetry_space_group_name_H-M   'P 1'
_symmetry_Int_Tables_number      1
_space_group_name_Hall           'P 1'
loop_
_symmetry_equiv_pos_site_id
_symmetry_equiv_pos_as_xyz
1 x,y,z
_cell_length_a                   9.0848(19)
_cell_length_b                   15.239(3)
_cell_length_c                   19.032(3)
_cell_angle_alpha                90
_cell_angle_beta                 90
_cell_angle_gamma                90
_cell_volume                     2634.85
loop_
_atom_site_label
_atom_site_type_symbol
_atom_site_fract_x
_atom_site_fract_y
_atom_site_fract_z
C25 C 0.7349(6) 0.2531(3) 0.0133(2)
Cu2 Cu 0.92349(7) 0.27512(4) 0.05062(3)
Cu1 Cu 0.42349(7) 0.22488(4) 0.94938(3)
N1 N 0.4621(4) 0.2666(3) 0.84380(19)
N2 N 0.5703(5) 0.5879(2) 0.5802(2)
N3 N 0.6196(5) 0.2437(3) 0.9893(2)
C1 C 0.4473(6) 0.5527(3) 0.6049(3)
H1 H 0.364975 0.590074 0.612096
C2 C 0.4321(7) 0.4646(3) 0.6208(3)
H2 H 0.342928 0.442967 0.640275
C3 C 0.6845(6) 0.5339(3) 0.5703(3)
H3 H 0.774685 0.558108 0.554107
C4 C 0.6775(6) 0.4450(3) 0.5823(3)
H4 H 0.760605 0.408897 0.573231
C5 C 0.5488(5) 0.4085(3) 0.6078(2)
C6 C 0.5409(5) 0.3129(3) 0.6247(2)
C7 C 0.5508(5) 0.2496(3) 0.5760(2)
C8 C 0.5190(5) 0.2953(3) 0.7010(2)
C9 C 0.3812(5) 0.2673(4) 0.7241(2)
H5 H 0.303912 0.256766 0.691590
C10 C 0.3592(6) 0.2553(3) 0.7952(3)
H6 H 0.263990 0.237682 0.810312
C11 C 0.5948(6) 0.2935(3) 0.8210(2)
H7 H 0.670981 0.301829 0.854521
C12 C 0.6252(5) 0.3095(3) 0.7508(3)
H8 H 0.719607 0.330314 0.737180
C13 C 0.5375(5) 0.2591(3) 0.4982(3)
C14 C 0.4961(6) 0.3300(3) 0.4571(3)
H9 H 0.478972 0.385803 0.477716
C15 C 0.4801(6) 0.3179(4) 0.3850(3)
H10 H 0.451675 0.366055 0.356397
C16 C 0.5048(6) 0.2374(4) 0.3545(3)
H11 H 0.496257 0.231181 0.305016
C17 C 0.5418(6) 0.1654(4) 0.3951(3)
H12 H 0.556467 0.109586 0.373999
C18 C 0.5570(6) 0.1761(3) 0.4669(2)
C19 C 0.5858(6) 0.1117(3) 0.5225(3)
C20 C 0.5794(6) 0.1539(3) 0.5878(2)
C21 C 0.6095(6) 0.1072(3) 0.6486(3)
H13 H 0.607338 0.135376 0.693097
C22 C 0.6430(7) 0.0184(3) 0.6435(3)
C24 C 0.6170(6) 0.0228(4) 0.5176(3)
Cu3 Cu 0.57651(7) 0.72488(4) 0.55062(3)
N4 N 0.4297(5) 0.0879(2) 0.9198(2)
C26 C 0.2349(6) 0.2469(3) 0.9867(2)
Cu1_2 Cu 0.07651(7) 0.77512(4) 0.44938(3)
N1_2 N 0.0379(4) 0.7334(3) 0.34380(19)
C1_2 C 0.0527(6) 0.4473(3) 0.1049(3)
H1_2 H 0.135025 0.409926 0.112096
C2_2 C 0.0679(7) 0.5354(3) 0.1208(3)
H2_2 H 0.157072 0.557033 0.140275
C9_2 C 0.1188(5) 0.7327(4) 0.2241(2)
H5_2 H 0.196088 0.743234 0.191590
C10_2 C 0.1408(6) 0.7447(3) 0.2952(3)
H6_2 H 0.236010 0.762318 0.310312
N4_2 N 0.0703(5) 0.9121(2) 0.4198(2)
C26_2 C 0.2651(6) 0.7531(3) 0.4867(2)
N2_2 N 0.9297(5) 0.4121(2) 0.0802(2)
N3_2 N 0.8804(5) 0.7563(3) 0.4893(2)
C3_2 C 0.8155(6) 0.4661(3) 0.0703(3)
H3_2 H 0.725315 0.441892 0.054107
C4_2 C 0.8225(6) 0.5550(3) 0.0823(3)
H4_2 H 0.739395 0.591103 0.073231
C5_2 C 0.9512(5) 0.5915(3) 0.1078(2)
C6_2 C 0.9591(5) 0.6871(3) 0.1247(2)
C7_2 C 0.9492(5) 0.7504(3) 0.0760(2)
C8_2 C 0.9810(5) 0.7047(3) 0.2010(2)
C11_2 C 0.9052(6) 0.7065(3) 0.3210(2)
H7_2 H 0.829019 0.698171 0.354521
C12_2 C 0.8748(5) 0.6905(3) 0.2508(3)
H8_2 H 0.780393 0.669686 0.237180
C19_2 C 0.9142(6) 0.8883(3) 0.0225(3)
C20_2 C 0.9206(6) 0.8461(3) 0.0878(2)
C21_2 C 0.8905(6) 0.8928(3) 0.1486(3)
H13_2 H 0.892662 0.864624 0.193097
C22_2 C 0.8570(7) 0.9816(3) 0.1435(3)
C24_2 C 0.8830(6) 0.9772(4) 0.0176(3)
C25_2 C 0.7651(6) 0.7469(3) 0.5133(2)
C3_3 C 0.1845(6) 0.9661(3) 0.4297(3)
H3_3 H 0.274685 0.941892 0.445893
N1_3 N 0.9621(4) 0.2334(3) 0.15620(19)
C2_3 C 0.9321(7) 0.0354(3) 0.3792(3)
H2_3 H 0.842928 0.057033 0.359725
C9_3 C 0.8812(5) 0.2327(4) 0.2759(2)
H5_3 H 0.803912 0.243234 0.308410
C10_3 C 0.8592(6) 0.2447(3) 0.2048(3)
H6_3 H 0.763990 0.262318 0.189688
C14_2 C 0.9961(6) 0.1700(3) 0.5429(3)
H9_2 H 0.978972 0.114197 0.522284
C15_2 C 0.9801(6) 0.1821(4) 0.6150(3)
H10_2 H 0.951675 0.133945 0.643603
H11_2 H 0.996257 0.268819 0.694984
C1_3 C 0.5527(6) 0.0527(3) 0.8951(3)
H1_3 H 0.635025 0.090074 0.887904
C3_4 C 0.3155(6) 0.0339(3) 0.9297(3)
H3_4 H 0.225315 0.058108 0.945893
N1_4 N 0.5379(4) 0.7666(3) 0.65620(19)
N3_3 N 0.3804(5) 0.7437(3) 0.5107(2)
C2_4 C 0.5679(7) 0.9646(3) 0.8792(3)
H2_4 H 0.657072 0.942967 0.859725
C4_3 C 0.3225(6) 0.9450(3) 0.9177(3)
H4_3 H 0.239395 0.908897 0.926769
C5_3 C 0.4512(5) 0.9085(3) 0.8922(2)
C6_3 C 0.4591(5) 0.8129(3) 0.8753(2)
C7_3 C 0.4492(5) 0.7496(3) 0.9240(2)
C8_3 C 0.4810(5) 0.7953(3) 0.7990(2)
C9_4 C 0.6188(5) 0.7673(4) 0.7759(2)
H5_4 H 0.696088 0.756766 0.808410
C10_4 C 0.6408(6) 0.7553(3) 0.7048(3)
H6_4 H 0.736010 0.737682 0.689688
C11_3 C 0.4052(6) 0.7935(3) 0.6790(2)
H7_3 H 0.329019 0.801829 0.645479
C12_3 C 0.3748(5) 0.8095(3) 0.7492(3)
H8_3 H 0.280393 0.830314 0.762820
C19_3 C 0.4142(6) 0.6117(3) 0.9775(3)
C20_3 C 0.4206(6) 0.6539(3) 0.9122(2)
C21_3 C 0.3905(6) 0.6072(3) 0.8514(3)
H13_3 H 0.392662 0.635376 0.806903
C22_3 C 0.3570(7) 0.5184(3) 0.8565(3)
H14 H 0.336131 0.485868 0.815102
C23 C 0.3536(7) 0.4766(4) 0.9213(3)
H15 H 0.331046 0.415840 0.923739
C24_3 C 0.3830(6) 0.5228(4) 0.9824(3)
H14_2 H 0.663869 0.985868 0.684898
C23_2 C 0.6464(7) 0.9766(4) 0.5787(3)
H15_2 H 0.668954 0.915840 0.576261
H16 H 0.618257 0.994241 0.473204
C14_3 C 0.0039(6) 0.6700(3) 0.9571(3)
H9_3 H 0.021028 0.614197 0.977716
C15_3 C 0.0199(6) 0.6821(4) 0.8850(3)
H10_3 H 0.048325 0.633945 0.856397
H11_3 H 0.003743 0.768819 0.805016
H14_3 H 0.836131 0.014132 0.184898
C23_3 C 0.8536(7) 0.0234(4) 0.0787(3)
H15_3 H 0.831046 0.084160 0.076261
H16_2 H 0.881743 0.005759 0.973204
C13_2 C 0.9625(5) 0.7409(3) 0.9982(3)
C16_2 C 0.9952(6) 0.7626(4) 0.8545(3)
C17_2 C 0.9582(6) 0.8346(4) 0.8951(3)
H12_2 H 0.943533 0.890414 0.873999
C18_2 C 0.9430(6) 0.8239(3) 0.9669(2)
N3_4 N 0.1196(5) 0.2563(3) 0.0107(2)
C4_4 C 0.1775(6) 0.0550(3) 0.4177(3)
H4_4 H 0.260605 0.091103 0.426769
C5_4 C 0.0488(5) 0.0915(3) 0.3922(2)
C6_4 C 0.0409(5) 0.1871(3) 0.3753(2)
C7_4 C 0.0508(5) 0.2504(3) 0.4240(2)
C8_4 C 0.0190(5) 0.2047(3) 0.2990(2)
C11_4 C 0.0948(6) 0.2065(3) 0.1790(2)
H7_4 H 0.170981 0.198171 0.145479
C12_4 C 0.1252(5) 0.1905(3) 0.2492(3)
H8_4 H 0.219607 0.169686 0.262820
C13_3 C 0.0375(5) 0.2409(3) 0.5018(3)
C16_3 C 0.0048(6) 0.2626(4) 0.6455(3)
C17_3 C 0.0418(6) 0.3346(4) 0.6049(3)
H12_3 H 0.056467 0.390414 0.626001
C18_3 C 0.0570(6) 0.3239(3) 0.5331(2)
C19_4 C 0.0858(6) 0.3883(3) 0.4775(3)
C20_4 C 0.0794(6) 0.3461(3) 0.4122(2)
C21_4 C 0.1095(6) 0.3928(3) 0.3514(3)
H13_4 H 0.107338 0.364624 0.306903
C22_4 C 0.1430(7) 0.4816(3) 0.3565(3)
H14_4 H 0.163869 0.514132 0.315102
C23_4 C 0.1464(7) 0.5234(4) 0.4213(3)
H15_4 H 0.168954 0.584160 0.423739
C24_4 C 0.1170(6) 0.4772(4) 0.4824(3)
H16_3 H 0.118257 0.505759 0.526796
C1_4 C 0.9473(6) 0.9473(3) 0.3951(3)
H1_4 H 0.864975 0.909926 0.387904
C13_4 C 0.4625(5) 0.7591(3) 0.0018(3)
C14_4 C 0.5039(6) 0.8300(3) 0.0429(3)
H9_4 H 0.521028 0.885803 0.022284
C15_4 C 0.5199(6) 0.8179(4) 0.1150(3)
H10_4 H 0.548325 0.866055 0.143603
C16_4 C 0.4952(6) 0.7374(4) 0.1455(3)
H11_4 H 0.503743 0.731181 0.194984
C17_4 C 0.4582(6) 0.6654(4) 0.1049(3)
H12_4 H 0.443533 0.609586 0.126001
C18_4 C 0.4430(6) 0.6761(3) 0.0331(2)
H16_4 H 0.381743 0.494241 0.026796
loop_
_geom_bond_atom_site_label_1
_geom_bond_atom_site_label_2
_geom_bond_site_symmetry_1
_geom_bond_site_symmetry_2
Cu2 C25 1_555 1_555
Cu1 N1 1_555 1_555
N1 C10 1_555 1_555
N2 C1 1_555 1_555
N3 Cu1 1_555 1_555
C1 H1 1_555 1_555
C2 C1 1_555 1_555
H2 C2 1_555 1_555
C3 N2 1_555 1_555
H3 C3 1_555 1_555
C4 C3 1_555 1_555
H4 C4 1_555 1_555
C5 C2 1_555 1_555
C6 C5 1_555 1_555
C7 C6 1_555 1_555
C8 C6 1_555 1_555
C9 C8 1_555 1_555
H5 C9 1_555 1_555
C10 C9 1_555 1_555
H6 C10 1_555 1_555
C11 N1 1_555 1_555
H7 C11 1_555 1_555
C12 C8 1_555 1_555
H8 C12 1_555 1_555
C13 C7 1_555 1_555
C14 C13 1_555 1_555
H9 C14 1_555 1_555
C15 C14 1_555 1_555
H10 C15 1_555 1_555
C16 C15 1_555 1_555
H11 C16 1_555 1_555
C17 C16 1_555 1_555
H12 C17 1_555 1_555
C18 C13 1_555 1_555
C19 C18 1_555 1_555
C20 C7 1_555 1_555
C21 C20 1_555 1_555
H13 C21 1_555 1_555
C22 C21 1_555 1_555
C24 C19 1_555 1_555
Cu3 N2 1_555 1_555
N4 Cu1 1_555 1_555
C26 Cu1 1_555 1_555
C4 C5 1_555 1_555
C11 C12 1_555 1_555
C17 C18 1_555 1_555
C19 C20 1_555 1_555
Cu1_2 N1_2 1_555 1_555
N1_2 C10_2 1_555 1_555
C1_2 H1_2 1_555 1_555
C2_2 C1_2 1_555 1_555
H2_2 C2_2 1_555 1_555
H5_2 C9_2 1_555 1_555
C10_2 C9_2 1_555 1_555
H6_2 C10_2 1_555 1_555
N4_2 Cu1_2 1_555 1_555
C26_2 Cu1_2 1_555 1_555
C3_2 N2_2 1_555 1_555
H3_2 C3_2 1_555 1_555
C4_2 C3_2 1_555 1_555
H4_2 C4_2 1_555 1_555
C6_2 C5_2 1_555 1_555
C7_2 C6_2 1_555 1_555
C8_2 C6_2 1_555 1_555
H7_2 C11_2 1_555 1_555
C12_2 C8_2 1_555 1_555
H8_2 C12_2 1_555 1_555
C20_2 C7_2 1_555 1_555
C21_2 C20_2 1_555 1_555
H13_2 C21_2 1_555 1_555
C22_2 C21_2 1_555 1_555
C24_2 C19_2 1_555 1_555
C25_2 N3_2 1_555 1_555
Cu3 C25_2 1_555 1_555
Cu2 N2_2 1_555 1_555
C4_2 C5_2 1_555 1_555
C11_2 C12_2 1_555 1_555
C19_2 C20_2 1_555 1_555
C3_3 N4_2 1_555 1_555
H3_3 C3_3 1_555 1_555
Cu2 N1_3 1_555 1_555
N1_3 C10_3 1_555 1_555
H2_3 C2_3 1_555 1_555
H5_3 C9_3 1_555 1_555
C10_3 C9_3 1_555 1_555
H6_3 C10_3 1_555 1_555
H9_2 C14_2 1_555 1_555
C15_2 C14_2 1_555 1_555
H10_2 C15_2 1_555 1_555
N4 C1_3 1_555 1_555
C1_3 H1_3 1_555 1_555
C3_4 N4 1_555 1_555
H3_4 C3_4 1_555 1_555
Cu3 N1_4 1_555 1_555
N1_4 C10_4 1_555 1_555
N3_3 Cu3 1_555 1_555
H2_4 C2_4 1_555 1_555
H4_3 C4_3 1_555 1_555
C5_3 C2_4 1_555 1_555
C6_3 C5_3 1_555 1_555
C7_3 C6_3 1_555 1_555
C8_3 C6_3 1_555 1_555
C9_4 C8_3 1_555 1_555
H5_4 C9_4 1_555 1_555
C10_4 C9_4 1_555 1_555
H6_4 C10_4 1_555 1_555
C11_3 N1_4 1_555 1_555
H7_3 C11_3 1_555 1_555
C12_3 C8_3 1_555 1_555
H8_3 C12_3 1_555 1_555
C20_3 C7_3 1_555 1_555
C21_3 C20_3 1_555 1_555
H13_3 C21_3 1_555 1_555
C22_3 C21_3 1_555 1_555
H14 C22_3 1_555 1_555
C23 C22_3 1_555 1_555
H15 C23 1_555 1_555
C24_3 C19_3 1_555 1_555
C26_2 N3_3 1_555 1_555
C4_3 C5_3 1_555 1_555
C11_3 C12_3 1_555 1_555
C19_3 C20_3 1_555 1_555
C23 C24_3 1_555 1_555
H15_2 C23_2 1_555 1_555
H9_3 C14_3 1_555 1_555
C15_3 C14_3 1_555 1_555
H10_3 C15_3 1_555 1_555
H15_3 C23_3 1_555 1_555
C17_2 C16_2 1_555 1_555
H12_2 C17_2 1_555 1_555
C18_2 C13_2 1_555 1_555
C17_2 C18_2 1_555 1_555
H4_4 C4_4 1_555 1_555
C6_4 C5_4 1_555 1_555
C7_4 C6_4 1_555 1_555
C8_4 C6_4 1_555 1_555
H7_4 C11_4 1_555 1_555
C12_4 C8_4 1_555 1_555
H8_4 C12_4 1_555 1_555
C13_3 C7_4 1_555 1_555
C17_3 C16_3 1_555 1_555
H12_3 C17_3 1_555 1_555
C18_3 C13_3 1_555 1_555
C19_4 C18_3 1_555 1_555
C20_4 C7_4 1_555 1_555
C21_4 C20_4 1_555 1_555
H13_4 C21_4 1_555 1_555
C22_4 C21_4 1_555 1_555
H14_4 C22_4 1_555 1_555
C23_4 C22_4 1_555 1_555
H15_4 C23_4 1_555 1_555
C24_4 C19_4 1_555 1_555
H16_3 C24_4 1_555 1_555
C4_4 C5_4 1_555 1_555
C11_4 C12_4 1_555 1_555
C17_3 C18_3 1_555 1_555
C19_4 C20_4 1_555 1_555
C23_4 C24_4 1_555 1_555
C1_4 H1_4 1_555 1_555
C14_4 C13_4 1_555 1_555
H9_4 C14_4 1_555 1_555
C15_4 C14_4 1_555 1_555
H10_4 C15_4 1_555 1_555
C16_4 C15_4 1_555 1_555
H11_4 C16_4 1_555 1_555
C17_4 C16_4 1_555 1_555
H12_4 C17_4 1_555 1_555
C18_4 C13_4 1_555 1_555
C17_4 C18_4 1_555 1_555

#END
