
###############################################################################
#
# This file contains modified crystal structure data generated from the
# MOF subset of the Cambridge Structural Database (CSD) v543 
# hosted by the Cambridge Crystallographic Data Centre (CCDC).
#
# This work is licensed under the Creative Commons
# Attribution-NonCommercial-ShareAlike 4.0 International License.
# To view a copy of this license, visit
# http://creativecommons.org/licenses/by-nc-sa/4.0/
# or send a letter to
# Creative Commons, PO Box 1866, Mountain View, CA 94042, USA.
#
# CIF created using the CSD Python API on 29 September 2022
# The structure has been converted into the P1 space group
# The structure has a 3D framework
# The original CSD entry WUKFAL is in the triclinic crystal system
# The framework has been calculated to contain at least 10.0% void space
# The void calculation uses a probe of radius 1.32A, grid spacing 0.4
#
###############################################################################

data_WUKFAL
_chemical_formula_moiety         '(C56 H44 N8 O44 Yb8)n'
_symmetry_cell_setting           triclinic
_symmetry_space_group_name_H-M   'P 1'
_symmetry_Int_Tables_number      1
_space_group_name_Hall           'P 1'
loop_
_symmetry_equiv_pos_site_id
_symmetry_equiv_pos_as_xyz
1 x,y,z
_cell_length_a                   8.6075(5)
_cell_length_b                   14.8478(7)
_cell_length_c                   15.9164(9)
_cell_angle_alpha                86.277(4)
_cell_angle_beta                 80.196(5)
_cell_angle_gamma                81.785(4)
_cell_volume                     1982.16
loop_
_atom_site_label
_atom_site_type_symbol
_atom_site_fract_x
_atom_site_fract_y
_atom_site_fract_z
Yb5 Yb 0.06252(4) 0.29092(2) 0.358246(19)
Yb2 Yb 0.14959(4) 0.19550(2) 0.135095(19)
Yb3 Yb 0.39035(4) 0.10461(2) 0.29513(2)
Yb4 Yb 0.42499(4) 0.34149(2) 0.203042(19)
O1 O 0.1536(5) 0.3263(3) 0.2133(3)
O2 O 0.3951(5) 0.1961(3) 0.1723(3)
O3 O 0.1333(5) 0.1623(3) 0.2821(3)
O4 O 0.3445(5) 0.2620(3) 0.3257(2)
N1 N 0.6039(6) 0.4636(4) 0.1600(3)
O5 O 0.6448(6) 0.1422(4) 0.2829(4)
O12 O 0.8520(5) 0.3814(3) 0.3110(3)
O13 O 0.3441(6) 0.0996(3) 0.0433(3)
O15 O 0.4688(6) 0.0109(3) 0.1795(3)
O16 O 0.6190(6) 0.3427(3) 0.2903(3)
N2 N 0.0079(7) 0.1591(4) 0.0155(3)
C1 C 0.7321(8) 0.3888(5) 0.2742(4)
C4 C 0.7119(8) 0.5795(5) 0.0649(4)
C12 C 0.6002(8) 0.5208(4) 0.0921(4)
H3 H 0.5177 0.5213 0.0612
C14 C 0.7242(8) 0.4625(4) 0.2035(4)
C16 C 0.8379(9) 0.5215(5) 0.1836(5)
H5 H 0.9164 0.5211 0.2172
C24 C 0.8327(10) 0.5811(5) 0.1128(5)
H10 H 0.9078 0.6211 0.0977
H13 H 0.391(5) 0.270(3) 0.3751(19)
H14 H 0.094(5) 0.379(2) 0.191(3)
H15 H 0.481(4) 0.172(3) 0.128(2)
H16 H 0.061(4) 0.117(2) 0.299(3)
H17 H 0.734(6) 0.114(4) 0.247(4)
H18 H 0.648(12) 0.2062(17) 0.286(9)
H19 H 0.441(12) 0.116(13) 0.012(12)
H20 H 0.36(2) 0.038(5) 0.064(14)
O24 O 0.1576(6) 0.2271(3) 0.4807(3)
O25 O 0.2145(6) 0.2988(3) 0.0278(3)
O26 O 0.6497(5) 0.2819(3) 0.1127(3)
O27 O 0.3691(6) 0.3905(3) 0.0695(3)
O29 O 0.0719(6) 0.0559(3) 0.1713(3)
O30 O 0.3091(6) 0.4696(3) 0.2736(3)
O31 O 0.1324(6) 0.4284(3) 0.3834(3)
O32 O 0.3287(7) 0.1050(3) 0.4369(3)
O8 O 0.7855(6) 0.7012(3) 0.9722(3)
O11 O 0.6309(6) 0.6095(3) 0.9305(3)
C11 C 0.0605(8) 0.0988(5) 0.9543(4)
H2 H 0.1674 0.0743 0.9465
C15 C 0.7088(8) 0.6356(4) 0.9831(4)
Yb9 Yb 0.85041(4) 0.80450(2) 0.864905(19)
Yb13 Yb 0.57501(4) 0.65851(2) 0.796958(19)
O6 O 0.5672(6) 0.8752(3) 0.1260(3)
O7 O 0.8424(6) 0.7729(3) 0.5193(3)
O20 O 0.6713(7) 0.8950(3) 0.5631(3)
O21 O 0.2378(7) 0.9784(4) 0.3299(4)
C3 C 0.7017(9) 0.8598(5) 0.4194(4)
N4 N 0.5644(7) 0.9638(4) 0.3258(3)
C6 C 0.5410(8) 0.9297(5) 0.1840(4)
C7 C 0.7435(9) 0.8401(5) 0.5071(4)
C10 C 0.6895(10) 0.8173(5) 0.2784(4)
H1 H 0.7138 0.7754 0.2355
C13 C 0.6150(9) 0.9419(5) 0.4004(4)
H4 H 0.5900 0.9849 0.4423
C17 C 0.7406(10) 0.7969(5) 0.3563(5)
H6 H 0.8007 0.7412 0.3661
C19 C 0.6018(8) 0.9009(5) 0.2658(4)
H21 H 0.133(7) 0.987(16) 0.363(9)
H22 H 0.225(18) 0.966(15) 0.273(5)
Yb7 Yb 0.93748(4) 0.70908(2) 0.641754(19)
Yb10 Yb 0.60965(4) 0.89539(2) 0.70487(2)
O9 O 0.8922(5) 0.2623(3) 0.1476(3)
O17 O 0.8769(7) 0.1932(4) 0.4042(3)
O18 O 0.6909(6) 0.5304(3) 0.7264(3)
O19 O 0.8676(6) 0.5716(3) 0.6166(3)
C2 C 0.7932(8) 0.2519(5) 0.1009(4)
N3 N 0.8689(7) 0.3385(4) 0.4911(4)
C5 C 0.8523(8) 0.1942(4) 0.0233(4)
C9 C 0.7782(8) 0.5183(5) 0.6552(4)
C18 C 0.8652(9) 0.4134(5) 0.5345(4)
H7 H 0.9302 0.4564 0.5104
C22 C 0.7717(9) 0.4309(5) 0.6124(5)
O23 O 0.7343(16) 0.1245(7) 0.5116(6)
C25 C 0.7816(13) 0.2762(7) 0.5277(7)
C26 C 0.7940(17) 0.1934(9) 0.4765(7)
C27 C 0.6818(18) 0.3665(9) 0.6494(8)
H11 H 0.6186 0.3749 0.7026
C28 C 0.686(2) 0.2878(11) 0.6060(9)
H12 H 0.6252 0.2429 0.6298
O14 O 0.9281(6) 0.9441(3) 0.8287(3)
O9_2 O 0.1078(5) 0.7377(3) 0.8524(3)
O10 O 0.3503(5) 0.7181(3) 0.8873(3)
O17_2 O 0.1231(7) 0.8068(4) 0.5958(3)
C2_2 C 0.2068(8) 0.7481(5) 0.8991(4)
N3_2 N 0.1311(7) 0.6615(4) 0.5089(4)
C5_2 C 0.1477(8) 0.8058(4) 0.9767(4)
C9_2 C 0.2218(8) 0.4817(5) 0.3448(4)
C18_2 C 0.1348(9) 0.5866(5) 0.4655(4)
H7_2 H 0.0698 0.5436 0.4896
C22_2 C 0.2283(9) 0.5691(5) 0.3876(5)
O23_2 O 0.2657(16) 0.8755(7) 0.4884(6)
C25_2 C 0.2184(13) 0.7238(7) 0.4723(7)
C26_2 C 0.2060(17) 0.8066(9) 0.5235(7)
C27_2 C 0.3182(18) 0.6335(9) 0.3506(8)
H11_2 H 0.3814 0.6251 0.2974
C28_2 C 0.314(2) 0.7122(11) 0.3940(9)
H12_2 H 0.3748 0.7571 0.3702
O28 O 0.1480(5) 0.6186(3) 0.6890(3)
O6_2 O 0.4328(6) 0.1248(3) 0.8740(3)
O21_2 O 0.7622(7) 0.0216(4) 0.6701(4)
C3_2 C 0.2983(9) 0.1402(5) 0.5806(4)
N4_2 N 0.4356(7) 0.0362(4) 0.6742(3)
C6_2 C 0.4590(8) 0.0703(5) 0.8160(4)
C7_2 C 0.2565(9) 0.1599(5) 0.4929(4)
C10_2 C 0.3105(10) 0.1827(5) 0.7216(4)
H1_2 H 0.2862 0.2246 0.7645
C13_2 C 0.3850(9) 0.0581(5) 0.5996(4)
H4_2 H 0.4100 0.0151 0.5577
C17_2 C 0.2594(10) 0.2031(5) 0.6437(5)
H6_2 H 0.1993 0.2588 0.6339
C19_2 C 0.3982(8) 0.0991(5) 0.7342(4)
H21_2 H 0.867(7) 0.013(16) 0.637(9)
H22_2 H 0.775(18) 0.034(15) 0.727(5)
C11_2 C 0.9395(8) 0.9012(5) 0.0457(4)
H2_2 H 0.8326 0.9257 0.0535
C15_2 C 0.2912(8) 0.3644(4) 0.0169(4)
O1_2 O 0.8464(5) 0.6737(3) 0.7867(3)
O2_2 O 0.6049(5) 0.8039(3) 0.8277(3)
O3_2 O 0.8667(5) 0.8377(3) 0.7179(3)
O4_2 O 0.6555(5) 0.7380(3) 0.6743(2)
N1_2 N 0.3961(6) 0.5364(4) 0.8400(3)
O5_2 O 0.3552(6) 0.8578(4) 0.7171(4)
O13_2 O 0.6559(6) 0.9004(3) 0.9567(3)
O15_2 O 0.5312(6) 0.9891(3) 0.8205(3)
O16_2 O 0.3810(6) 0.6573(3) 0.7097(3)
N2_2 N 0.9921(7) 0.8409(4) 0.9845(3)
C1_2 C 0.2679(8) 0.6112(5) 0.7258(4)
C4_2 C 0.2881(8) 0.4205(5) 0.9351(4)
C12_2 C 0.3998(8) 0.4792(4) 0.9079(4)
H3_2 H 0.4823 0.4787 0.9388
C14_2 C 0.2758(8) 0.5375(4) 0.7965(4)
C16_2 C 0.1621(9) 0.4785(5) 0.8164(5)
H5_2 H 0.0836 0.4789 0.7828
C24_2 C 0.1673(10) 0.4189(5) 0.8872(5)
H10_2 H 0.0922 0.3789 0.9023
H13_2 H 0.609(5) 0.730(3) 0.6249(19)
H14_2 H 0.906(5) 0.621(2) 0.809(3)
H15_2 H 0.519(4) 0.828(3) 0.872(2)
H16_2 H 0.939(4) 0.883(2) 0.701(3)
H17_2 H 0.266(6) 0.886(4) 0.753(4)
H18_2 H 0.352(12) 0.7938(17) 0.714(9)
H19_2 H 0.559(12) 0.884(13) 0.988(12)
H20_2 H 0.64(2) 0.962(5) 0.936(14)
O22 O 0.1733(7) 0.9757(4) 0.8234(4)
C23 C 0.0292(9) 0.9922(5) 0.8461(4)
C8 C 0.9646(8) 0.0711(5) 0.9021(4)
C20 C 0.8075(9) 0.1099(5) 0.9102(5)
H8 H 0.7404 0.0932 0.8756
C21 C 0.7525(8) 0.1742(5) 0.9710(5)
H9 H 0.6486 0.2035 0.9764
C8_2 C 0.0354(8) 0.9289(5) 0.0979(4)
C20_2 C 0.1925(9) 0.8901(5) 0.0898(5)
H8_2 H 0.2596 0.9068 0.1244
C21_2 C 0.2475(8) 0.8258(5) 0.0290(5)
H9_2 H 0.3514 0.7965 0.0236
O22_2 O 0.8267(7) 0.0243(4) 0.1766(4)
C23_2 C 0.9708(9) 0.0078(5) 0.1539(4)
loop_
_geom_bond_atom_site_label_1
_geom_bond_atom_site_label_2
_geom_bond_site_symmetry_1
_geom_bond_site_symmetry_2
Yb5 O1 1_555 1_555
Yb2 O1 1_555 1_555
Yb3 O2 1_555 1_555
Yb4 O1 1_555 1_555
O1 H14 1_555 1_555
O2 Yb2 1_555 1_555
O3 Yb5 1_555 1_555
O4 Yb5 1_555 1_555
N1 Yb4 1_555 1_555
O5 Yb3 1_555 1_555
O12 C1 1_555 1_555
O13 Yb2 1_555 1_555
O15 Yb3 1_555 1_555
O16 Yb4 1_555 1_555
N2 Yb2 1_555 1_555
C1 O16 1_555 1_555
C4 C12 1_555 1_555
C12 N1 1_555 1_555
H3 C12 1_555 1_555
C14 N1 1_555 1_555
C16 C14 1_555 1_555
H5 C16 1_555 1_555
C24 C4 1_555 1_555
H10 C24 1_555 1_555
H13 O4 1_555 1_555
H15 O2 1_555 1_555
H16 O3 1_555 1_555
H17 O5 1_555 1_555
H18 O5 1_555 1_555
H19 O13 1_555 1_555
H20 O13 1_555 1_555
O24 Yb5 1_555 1_555
O25 Yb2 1_555 1_555
O26 Yb4 1_555 1_555
O27 Yb4 1_555 1_555
O29 Yb2 1_555 1_555
O30 Yb4 1_555 1_555
O31 Yb5 1_555 1_555
O32 Yb3 1_555 1_555
Yb2 O3 1_555 1_555
Yb3 O3 1_555 1_555
Yb3 O4 1_555 1_555
Yb4 O2 1_555 1_555
Yb4 O4 1_555 1_555
C1 C14 1_555 1_555
C16 C24 1_555 1_555
O8 C15 1_555 1_555
O11 C15 1_555 1_555
H2 C11 1_555 1_555
Yb9 O8 1_555 1_555
Yb13 O11 1_555 1_555
O6 C6 1_555 1_555
O7 C7 1_555 1_555
O20 C7 1_555 1_555
C3 C7 1_555 1_555
C10 H1 1_555 1_555
C13 C3 1_555 1_555
H4 C13 1_555 1_555
C17 C3 1_555 1_555
H6 C17 1_555 1_555
C19 N4 1_555 1_555
H21 O21 1_555 1_555
H22 O21 1_555 1_555
Yb7 O7 1_555 1_555
Yb10 O20 1_555 1_555
N4 C13 1_555 1_555
C6 C19 1_555 1_555
C10 C17 1_555 1_555
C10 C19 1_555 1_555
O26 C2 1_555 1_555
O18 C9 1_555 1_555
O19 C9 1_555 1_555
C2 O9 1_555 1_555
C9 C22 1_555 1_555
C18 N3 1_555 1_555
H7 C18 1_555 1_555
C22 C18 1_555 1_555
O23 C26 1_555 1_555
C25 N3 1_555 1_555
C26 O17 1_555 1_555
C27 C22 1_555 1_555
H11 C27 1_555 1_555
C28 C25 1_555 1_555
H12 C28 1_555 1_555
Yb7 O19 1_555 1_555
Yb13 O18 1_555 1_555
C2 C5 1_555 1_555
C25 C26 1_555 1_555
C27 C28 1_555 1_555
Yb9 O14 1_555 1_555
O10 C2_2 1_555 1_555
O30 C9_2 1_555 1_555
O31 C9_2 1_555 1_555
C2_2 O9_2 1_555 1_555
C9_2 C22_2 1_555 1_555
C18_2 N3_2 1_555 1_555
H7_2 C18_2 1_555 1_555
C22_2 C18_2 1_555 1_555
O23_2 C26_2 1_555 1_555
C25_2 N3_2 1_555 1_555
C26_2 O17_2 1_555 1_555
C27_2 C22_2 1_555 1_555
H11_2 C27_2 1_555 1_555
C28_2 C25_2 1_555 1_555
H12_2 C28_2 1_555 1_555
Yb13 O10 1_555 1_555
C2_2 C5_2 1_555 1_555
C25_2 C26_2 1_555 1_555
C27_2 C28_2 1_555 1_555
O6_2 C6_2 1_555 1_555
O24 C7_2 1_555 1_555
O32 C7_2 1_555 1_555
C3_2 C7_2 1_555 1_555
C10_2 H1_2 1_555 1_555
C13_2 C3_2 1_555 1_555
H4_2 C13_2 1_555 1_555
C17_2 C3_2 1_555 1_555
H6_2 C17_2 1_555 1_555
C19_2 N4_2 1_555 1_555
H21_2 O21_2 1_555 1_555
H22_2 O21_2 1_555 1_555
N4_2 C13_2 1_555 1_555
C6_2 C19_2 1_555 1_555
C10_2 C17_2 1_555 1_555
C10_2 C19_2 1_555 1_555
O25 C15_2 1_555 1_555
O27 C15_2 1_555 1_555
H2_2 C11_2 1_555 1_555
Yb7 O1_2 1_555 1_555
Yb9 O1_2 1_555 1_555
Yb10 O2_2 1_555 1_555
Yb13 O1_2 1_555 1_555
O1_2 H14_2 1_555 1_555
O2_2 Yb9 1_555 1_555
O3_2 Yb7 1_555 1_555
O4_2 Yb7 1_555 1_555
N1_2 Yb13 1_555 1_555
O5_2 Yb10 1_555 1_555
O28 C1_2 1_555 1_555
O13_2 Yb9 1_555 1_555
O15_2 Yb10 1_555 1_555
O16_2 Yb13 1_555 1_555
N2_2 Yb9 1_555 1_555
C1_2 O16_2 1_555 1_555
C4_2 C12_2 1_555 1_555
C12_2 N1_2 1_555 1_555
H3_2 C12_2 1_555 1_555
C14_2 N1_2 1_555 1_555
C16_2 C14_2 1_555 1_555
H5_2 C16_2 1_555 1_555
C24_2 C4_2 1_555 1_555
H10_2 C24_2 1_555 1_555
H13_2 O4_2 1_555 1_555
H15_2 O2_2 1_555 1_555
H16_2 O3_2 1_555 1_555
H17_2 O5_2 1_555 1_555
H18_2 O5_2 1_555 1_555
H19_2 O13_2 1_555 1_555
H20_2 O13_2 1_555 1_555
Yb9 O3_2 1_555 1_555
Yb10 O3_2 1_555 1_555
Yb10 O4_2 1_555 1_555
Yb13 O2_2 1_555 1_555
Yb13 O4_2 1_555 1_555
C1_2 C14_2 1_555 1_555
C16_2 C24_2 1_555 1_555
O22 C23 1_555 1_555
C20 C8 1_555 1_555
H8 C20 1_555 1_555
H9 C21 1_555 1_555
C20 C21 1_555 1_555
C20_2 C8_2 1_555 1_555
H8_2 C20_2 1_555 1_555
H9_2 C21_2 1_555 1_555
C20_2 C21_2 1_555 1_555
O22_2 C23_2 1_555 1_555

#END
