
###############################################################################
#
# This file contains modified crystal structure data generated from the
# MOF subset of the Cambridge Structural Database (CSD) v543 
# hosted by the Cambridge Crystallographic Data Centre (CCDC).
#
# This work is licensed under the Creative Commons
# Attribution-NonCommercial-ShareAlike 4.0 International License.
# To view a copy of this license, visit
# http://creativecommons.org/licenses/by-nc-sa/4.0/
# or send a letter to
# Creative Commons, PO Box 1866, Mountain View, CA 94042, USA.
#
# CIF created using the CSD Python API on 29 September 2022
# The structure has been converted into the P1 space group
# The structure has a 3D framework
# The original CSD entry WULHAP is in the orthorhombic crystal system
# The framework has been calculated to contain at least 10.0% void space
# The void calculation uses a probe of radius 1.32A, grid spacing 0.4
#
###############################################################################

data_WULHAP
_chemical_formula_moiety         '(C136 H88 Cu8 N24 O38)n'
_symmetry_cell_setting           triclinic
_symmetry_space_group_name_H-M   'P 1'
_symmetry_Int_Tables_number      1
_space_group_name_Hall           'P 1'
loop_
_symmetry_equiv_pos_site_id
_symmetry_equiv_pos_as_xyz
1 x,y,z
_cell_length_a                   16.2205(7)
_cell_length_b                   20.7353(9)
_cell_length_c                   14.9655(6)
_cell_angle_alpha                90
_cell_angle_beta                 90
_cell_angle_gamma                90
_cell_volume                     5033.45
loop_
_atom_site_label
_atom_site_type_symbol
_atom_site_fract_x
_atom_site_fract_y
_atom_site_fract_z
O1 O 0.52540(13) 0.00356(9) 0.10300(14)
O2 O 0.45963(12) 0.09491(9) 0.06781(13)
N1 N 0.44231(15) 0.35942(11) 0.39930(16)
C1 C 0.54579(17) 0.09648(14) 0.1933(2)
C2 C 0.51290(17) 0.15449(14) 0.22222(19)
H1 H 0.4661 0.1723 0.1931
C3 C 0.54891(18) 0.18691(14) 0.2947(2)
C4 C 0.61754(19) 0.16031(15) 0.3368(2)
H2 H 0.6434 0.1830 0.3843
C5 C 0.64897(17) 0.10023(14) 0.30973(19)
C6 C 0.61199(18) 0.06858(14) 0.2374(2)
H3 H 0.6324 0.0279 0.2184
C7 C 0.50853(17) 0.06155(13) 0.11494(19)
C8 C 0.5129(2) 0.24773(14) 0.32864(19)
C9 C 0.56163(18) 0.29914(15) 0.3575(2)
H4 H 0.6200 0.2968 0.3539
C10 C 0.52384(19) 0.35321(15) 0.3911(2)
H5 H 0.5577 0.3882 0.4096
C11 C 0.3952(2) 0.31069(19) 0.3708(3)
H6 H 0.3370 0.3147 0.3748
C12 C 0.4285(2) 0.25427(17) 0.3353(3)
H7 H 0.3932 0.2205 0.3158
C13 C 0.71669(19) 0.06847(14) 0.3586(2)
C14 C 0.7318(2) 0.08232(15) 0.4492(2)
H8 H 0.7030 0.1162 0.4783
C15 C 0.78932(19) 0.04588(15) 0.4952(2)
H9 H 0.7996 0.0562 0.5561
C17 C 0.76385(19) 0.02019(16) 0.3207(2)
H11 H 0.7586 0.0110 0.2588
Cu2 Cu 0.39375(2) 0.43390(2) 0.46604(3)
Cu3 Cu 0.39375(2) 0.06610(2) 0.96604(3)
Cu1 Cu 0.60625(2) 0.93390(2) 0.03396(3)
O3 O 0.69479(13) 0.94206(10) 0.12938(14)
O4 O 0.82390(16) 0.92018(18) 0.1536(2)
O5 O 0.76304(17) 0.88128(14) 0.03624(16)
N2 N 0.83105(15) 0.99703(12) 0.45867(16)
N3 N 0.76297(15) 0.91357(14) 0.10544(19)
C16 C 0.81791(19) 0.98565(15) 0.3715(2)
H10 H 0.8478 0.9517 0.3438
Cu4 Cu 0.89375(2) 0.93390(2) 0.53396(3)
N4 N 0.55769(15) 0.85942(11) 0.10070(16)
O6 O 0.54037(12) 0.90509(9) 0.93219(13)
N5 N 0.66895(15) 0.99703(12) 0.95867(16)
O2_2 O 0.04037(12) 0.40509(9) 0.06781(13)
N1_2 N 0.05769(15) 0.14058(11) 0.39930(16)
H1_2 H 0.0339 0.3277 0.1931
C11_2 C 0.1048(2) 0.18931(19) 0.3708(3)
H6_2 H 0.1630 0.1853 0.3748
C12_2 C 0.0715(2) 0.24573(17) 0.3353(3)
H7_2 H 0.1068 0.2795 0.3158
Cu2_2 Cu 0.10625(2) 0.06610(2) 0.46604(3)
Cu3_2 Cu 0.10625(2) 0.43390(2) 0.96604(3)
Cu1_2 Cu 0.89375(2) 0.56610(2) 0.03396(3)
O1_2 O 0.97460(13) 0.49644(9) 0.10300(14)
O3_2 O 0.80521(13) 0.55794(10) 0.12938(14)
O4_2 O 0.67610(16) 0.57982(18) 0.1536(2)
O5_2 O 0.73696(17) 0.61872(14) 0.03624(16)
N2_2 N 0.66895(15) 0.50297(12) 0.45867(16)
N3_2 N 0.73703(15) 0.58643(14) 0.10544(19)
C1_2 C 0.95421(17) 0.40352(14) 0.1933(2)
C2_2 C 0.98710(17) 0.34551(14) 0.22222(19)
C3_2 C 0.95109(18) 0.31309(14) 0.2947(2)
C4_2 C 0.88246(19) 0.33969(15) 0.3368(2)
H2_2 H 0.8566 0.3170 0.3843
C5_2 C 0.85103(17) 0.39977(14) 0.30973(19)
C6_2 C 0.88801(18) 0.43142(14) 0.2374(2)
H3_2 H 0.8676 0.4721 0.2184
C7_2 C 0.99147(17) 0.43845(13) 0.11494(19)
C8_2 C 0.9871(2) 0.25227(14) 0.32864(19)
C9_2 C 0.93837(18) 0.20086(15) 0.3575(2)
H4_2 H 0.8800 0.2032 0.3539
C10_2 C 0.97616(19) 0.14679(15) 0.3911(2)
H5_2 H 0.9423 0.1118 0.4096
C13_2 C 0.78331(19) 0.43153(14) 0.3586(2)
C14_2 C 0.7682(2) 0.41768(15) 0.4492(2)
H8_2 H 0.7970 0.3838 0.4783
C15_2 C 0.71068(19) 0.45412(15) 0.4952(2)
H9_2 H 0.7004 0.4438 0.5561
C16_2 C 0.68209(19) 0.51435(15) 0.3715(2)
H10_2 H 0.6522 0.5483 0.3438
C17_2 C 0.73615(19) 0.47981(16) 0.3207(2)
H11_2 H 0.7414 0.4890 0.2588
Cu4_2 Cu 0.60625(2) 0.56610(2) 0.53396(3)
N4_2 N 0.94231(15) 0.64058(11) 0.10070(16)
O6_2 O 0.95963(12) 0.59491(9) 0.93219(13)
N5_2 N 0.83105(15) 0.50297(12) 0.95867(16)
O3_3 O 0.19479(13) 0.05794(10) 0.37062(14)
O4_3 O 0.32390(16) 0.07982(18) 0.3464(2)
O5_3 O 0.26304(17) 0.11872(14) 0.46376(16)
N2_3 N 0.33105(15) 0.00297(12) 0.04133(16)
N3_3 N 0.26297(15) 0.08643(14) 0.39456(19)
C16_3 C 0.31791(19) 0.01435(15) 0.1285(2)
H10_3 H 0.3478 0.0483 0.1562
O6_3 O 0.04037(12) 0.09491(9) 0.56781(13)
N5_3 N 0.16895(15) 0.00297(12) 0.54133(16)
O2_3 O 0.95963(12) 0.90509(9) 0.43219(13)
H1_3 H 0.9661 0.8277 0.3069
C11_3 C 0.8952(2) 0.68931(19) 0.1292(3)
H6_3 H 0.8370 0.6853 0.1252
C12_3 C 0.9285(2) 0.74573(17) 0.1647(3)
H7_3 H 0.8932 0.7795 0.1842
O1_3 O 0.47460(13) 0.50356(9) 0.39700(14)
O2_4 O 0.54037(12) 0.59491(9) 0.43219(13)
O3_4 O 0.30521(13) 0.44206(10) 0.37062(14)
O4_4 O 0.17610(16) 0.42018(18) 0.3464(2)
O5_4 O 0.23696(17) 0.38128(14) 0.46376(16)
N2_4 N 0.16895(15) 0.49703(12) 0.04133(16)
N3_4 N 0.23703(15) 0.41357(14) 0.39456(19)
C1_3 C 0.45421(17) 0.59648(14) 0.3067(2)
C2_3 C 0.48710(17) 0.65449(14) 0.27778(19)
H1_4 H 0.5339 0.6723 0.3069
C3_3 C 0.45109(18) 0.68691(14) 0.2053(2)
C4_3 C 0.38246(19) 0.66031(15) 0.1632(2)
H2_3 H 0.3566 0.6830 0.1157
C5_3 C 0.35103(17) 0.60023(14) 0.19027(19)
C6_3 C 0.38801(18) 0.56858(14) 0.2626(2)
H3_3 H 0.3676 0.5279 0.2816
C7_3 C 0.49147(17) 0.56155(13) 0.38506(19)
C8_3 C 0.4871(2) 0.74773(14) 0.17136(19)
C9_3 C 0.43837(18) 0.79914(15) 0.1425(2)
H4_3 H 0.3800 0.7968 0.1461
C10_3 C 0.47616(19) 0.85321(15) 0.1089(2)
H5_3 H 0.4423 0.8882 0.0904
C11_4 C 0.6048(2) 0.81069(19) 0.1292(3)
H6_4 H 0.6630 0.8147 0.1252
C12_4 C 0.5715(2) 0.75427(17) 0.1647(3)
H7_4 H 0.6068 0.7205 0.1842
C13_3 C 0.28331(19) 0.56847(14) 0.1414(2)
C14_3 C 0.2682(2) 0.58232(15) 0.0508(2)
H8_3 H 0.2970 0.6162 0.0217
C15_3 C 0.21068(19) 0.54588(15) 0.0048(2)
C16_4 C 0.18209(19) 0.48565(15) 0.1285(2)
H10_4 H 0.1522 0.4517 0.1562
C17_3 C 0.23615(19) 0.52019(16) 0.1793(2)
H11_3 H 0.2414 0.5110 0.2412
O6_4 O 0.45963(12) 0.40509(9) 0.56781(13)
N5_4 N 0.33105(15) 0.49703(12) 0.54133(16)
H9_3 H 0.2004 0.5562 0.9439
O3_5 O 0.30521(13) 0.05794(10) 0.87062(14)
O4_5 O 0.17610(16) 0.07982(18) 0.8464(2)
O5_5 O 0.23696(17) 0.11872(14) 0.96376(16)
N3_5 N 0.23703(15) 0.08643(14) 0.89456(19)
C16_5 C 0.18209(19) 0.01435(15) 0.6285(2)
H10_5 H 0.1522 0.0483 0.6562
N4_3 N 0.44231(15) 0.14058(11) 0.89930(16)
O1_4 O 0.47460(13) 0.99644(9) 0.89700(14)
N1_3 N 0.55769(15) 0.64058(11) 0.60070(16)
C1_4 C 0.45421(17) 0.90352(14) 0.8067(2)
C2_4 C 0.48710(17) 0.84551(14) 0.77778(19)
H1_5 H 0.5339 0.8277 0.8069
C3_4 C 0.45109(18) 0.81309(14) 0.7053(2)
C4_4 C 0.38246(19) 0.83969(15) 0.6632(2)
H2_4 H 0.3566 0.8170 0.6157
C5_4 C 0.35103(17) 0.89977(14) 0.69027(19)
C6_4 C 0.38801(18) 0.93142(14) 0.7626(2)
H3_4 H 0.3676 0.9721 0.7816
C7_4 C 0.49147(17) 0.93845(13) 0.88506(19)
C8_4 C 0.4871(2) 0.75227(14) 0.67136(19)
C9_4 C 0.43837(18) 0.70086(15) 0.6425(2)
H4_4 H 0.3800 0.7032 0.6461
C10_4 C 0.47616(19) 0.64679(15) 0.6089(2)
H5_4 H 0.4423 0.6118 0.5904
C11_5 C 0.6048(2) 0.68931(19) 0.6292(3)
H6_5 H 0.6630 0.6853 0.6252
C12_5 C 0.5715(2) 0.74573(17) 0.6647(3)
H7_5 H 0.6068 0.7795 0.6842
C13_4 C 0.28331(19) 0.93153(14) 0.6414(2)
C14_4 C 0.2682(2) 0.91768(15) 0.5508(2)
H8_4 H 0.2970 0.8838 0.5217
C15_4 C 0.21068(19) 0.95412(15) 0.5048(2)
H9_4 H 0.2004 0.9438 0.4439
C17_4 C 0.23615(19) 0.97981(16) 0.6793(2)
H11_4 H 0.2414 0.9890 0.7412
O1_5 O 0.02540(13) 0.50356(9) 0.89700(14)
O3_6 O 0.19479(13) 0.44206(10) 0.87062(14)
O4_6 O 0.32390(16) 0.42018(18) 0.8464(2)
O5_6 O 0.26304(17) 0.38128(14) 0.96376(16)
N3_6 N 0.26297(15) 0.41357(14) 0.89456(19)
C1_5 C 0.04579(17) 0.59648(14) 0.8067(2)
C2_5 C 0.01290(17) 0.65449(14) 0.77778(19)
C3_5 C 0.04891(18) 0.68691(14) 0.7053(2)
C4_5 C 0.11754(19) 0.66031(15) 0.6632(2)
H2_5 H 0.1434 0.6830 0.6157
C5_5 C 0.14897(17) 0.60023(14) 0.69027(19)
C6_5 C 0.11199(18) 0.56858(14) 0.7626(2)
H3_5 H 0.1324 0.5279 0.7816
C7_5 C 0.00853(17) 0.56155(13) 0.88506(19)
C8_5 C 0.0129(2) 0.74773(14) 0.67136(19)
C9_5 C 0.06163(18) 0.79914(15) 0.6425(2)
H4_5 H 0.1200 0.7968 0.6461
C10_5 C 0.02384(19) 0.85321(15) 0.6089(2)
H5_5 H 0.0577 0.8882 0.5904
C13_5 C 0.21669(19) 0.56847(14) 0.6414(2)
C14_5 C 0.2318(2) 0.58232(15) 0.5508(2)
H8_5 H 0.2030 0.6162 0.5217
C15_5 C 0.28932(19) 0.54588(15) 0.5048(2)
H9_5 H 0.2996 0.5562 0.4439
C16_6 C 0.31791(19) 0.48565(15) 0.6285(2)
H10_6 H 0.3478 0.4517 0.6562
C17_5 C 0.26385(19) 0.52019(16) 0.6793(2)
H11_5 H 0.2586 0.5110 0.7412
N4_4 N 0.05769(15) 0.35942(11) 0.89930(16)
N1_4 N 0.94231(15) 0.85942(11) 0.60070(16)
H1_6 H 0.9661 0.6723 0.8069
C11_6 C 0.8952(2) 0.81069(19) 0.6292(3)
H6_6 H 0.8370 0.8147 0.6252
C12_6 C 0.9285(2) 0.75427(17) 0.6647(3)
H7_6 H 0.8932 0.7205 0.6842
H1_7 H 0.0339 0.1723 0.6931
C11_7 C 0.1048(2) 0.31069(19) 0.8708(3)
H6_7 H 0.1630 0.3147 0.8748
C12_7 C 0.0715(2) 0.25427(17) 0.8353(3)
H7_7 H 0.1068 0.2205 0.8158
O3_7 O 0.80521(13) 0.94206(10) 0.62938(14)
O4_7 O 0.67610(16) 0.92018(18) 0.6536(2)
O5_7 O 0.73696(17) 0.88128(14) 0.53624(16)
N3_7 N 0.73703(15) 0.91357(14) 0.60544(19)
C16_7 C 0.68209(19) 0.98565(15) 0.8715(2)
H10_7 H 0.6522 0.9517 0.8438
H9_6 H 0.7996 0.4438 0.0561
O1_6 O 0.52540(13) 0.49644(9) 0.60300(14)
O3_8 O 0.69479(13) 0.55794(10) 0.62938(14)
O4_8 O 0.82390(16) 0.57982(18) 0.6536(2)
O5_8 O 0.76304(17) 0.61872(14) 0.53624(16)
N3_8 N 0.76297(15) 0.58643(14) 0.60544(19)
C1_6 C 0.54579(17) 0.40352(14) 0.6933(2)
C2_6 C 0.51290(17) 0.34551(14) 0.72222(19)
H1_8 H 0.4661 0.3277 0.6931
C3_6 C 0.54891(18) 0.31309(14) 0.7947(2)
C4_6 C 0.61754(19) 0.33969(15) 0.8368(2)
H2_6 H 0.6434 0.3170 0.8843
C5_6 C 0.64897(17) 0.39977(14) 0.80973(19)
C6_6 C 0.61199(18) 0.43142(14) 0.7374(2)
H3_6 H 0.6324 0.4721 0.7184
C7_6 C 0.50853(17) 0.43845(13) 0.61494(19)
C8_6 C 0.5129(2) 0.25227(14) 0.82864(19)
C9_6 C 0.56163(18) 0.20086(15) 0.8575(2)
H4_6 H 0.6200 0.2032 0.8539
C10_6 C 0.52384(19) 0.14679(15) 0.8911(2)
H5_6 H 0.5577 0.1118 0.9096
C11_8 C 0.3952(2) 0.18931(19) 0.8708(3)
H6_8 H 0.3370 0.1853 0.8748
C12_8 C 0.4285(2) 0.24573(17) 0.8353(3)
H7_8 H 0.3932 0.2795 0.8158
C13_6 C 0.71669(19) 0.43153(14) 0.8586(2)
C14_6 C 0.7318(2) 0.41768(15) 0.9492(2)
H8_6 H 0.7030 0.3838 0.9783
C15_6 C 0.78932(19) 0.45412(15) 0.9952(2)
C16_8 C 0.81791(19) 0.51435(15) 0.8715(2)
H10_8 H 0.8478 0.5483 0.8438
C17_6 C 0.76385(19) 0.47981(16) 0.8207(2)
H11_6 H 0.7586 0.4890 0.7588
O1_7 O 0.02540(13) 0.99644(9) 0.39700(14)
C1_7 C 0.04579(17) 0.90352(14) 0.3067(2)
C2_7 C 0.01290(17) 0.84551(14) 0.27778(19)
C3_7 C 0.04891(18) 0.81309(14) 0.2053(2)
C4_7 C 0.11754(19) 0.83969(15) 0.1632(2)
H2_7 H 0.1434 0.8170 0.1157
C5_7 C 0.14897(17) 0.89977(14) 0.19027(19)
C6_7 C 0.11199(18) 0.93142(14) 0.2626(2)
H3_7 H 0.1324 0.9721 0.2816
C7_7 C 0.00853(17) 0.93845(13) 0.38506(19)
C8_7 C 0.0129(2) 0.75227(14) 0.17136(19)
C9_7 C 0.06163(18) 0.70086(15) 0.1425(2)
H4_7 H 0.1200 0.7032 0.1461
C10_7 C 0.02384(19) 0.64679(15) 0.1089(2)
H5_7 H 0.0577 0.6118 0.0904
C13_7 C 0.21669(19) 0.93153(14) 0.1414(2)
C14_7 C 0.2318(2) 0.91768(15) 0.0508(2)
H8_7 H 0.2030 0.8838 0.0217
C15_7 C 0.28932(19) 0.95412(15) 0.0048(2)
C17_7 C 0.26385(19) 0.97981(16) 0.1793(2)
H11_7 H 0.2586 0.9890 0.2412
H9_7 H 0.2996 0.9438 0.9439
H9_8 H 0.7004 0.0562 0.0561
O1_8 O 0.97460(13) 0.00356(9) 0.60300(14)
C1_8 C 0.95421(17) 0.09648(14) 0.6933(2)
C2_8 C 0.98710(17) 0.15449(14) 0.72222(19)
C3_8 C 0.95109(18) 0.18691(14) 0.7947(2)
C4_8 C 0.88246(19) 0.16031(15) 0.8368(2)
H2_8 H 0.8566 0.1830 0.8843
C5_8 C 0.85103(17) 0.10023(14) 0.80973(19)
C6_8 C 0.88801(18) 0.06858(14) 0.7374(2)
H3_8 H 0.8676 0.0279 0.7184
C7_8 C 0.99147(17) 0.06155(13) 0.61494(19)
C8_8 C 0.9871(2) 0.24773(14) 0.82864(19)
C9_8 C 0.93837(18) 0.29914(15) 0.8575(2)
H4_8 H 0.8800 0.2968 0.8539
C10_8 C 0.97616(19) 0.35321(15) 0.8911(2)
H5_8 H 0.9423 0.3882 0.9096
C13_8 C 0.78331(19) 0.06847(14) 0.8586(2)
C14_8 C 0.7682(2) 0.08232(15) 0.9492(2)
H8_8 H 0.7970 0.1162 0.9783
C15_8 C 0.71068(19) 0.04588(15) 0.9952(2)
C17_8 C 0.73615(19) 0.02019(16) 0.8207(2)
H11_8 H 0.7414 0.0110 0.7588
loop_
_geom_bond_atom_site_label_1
_geom_bond_atom_site_label_2
_geom_bond_site_symmetry_1
_geom_bond_site_symmetry_2
O1 C7 1_555 1_555
O2 C7 1_555 1_555
N1 C10 1_555 1_555
C1 C2 1_555 1_555
C2 H1 1_555 1_555
C3 C2 1_555 1_555
C4 C3 1_555 1_555
H2 C4 1_555 1_555
C5 C4 1_555 1_555
C6 C1 1_555 1_555
H3 C6 1_555 1_555
C7 C1 1_555 1_555
C8 C3 1_555 1_555
C9 C8 1_555 1_555
H4 C9 1_555 1_555
C10 C9 1_555 1_555
H5 C10 1_555 1_555
C11 N1 1_555 1_555
H6 C11 1_555 1_555
C12 C8 1_555 1_555
H7 C12 1_555 1_555
C13 C5 1_555 1_555
C14 C13 1_555 1_555
H8 C14 1_555 1_555
C15 C14 1_555 1_555
H9 C15 1_555 1_555
C17 C13 1_555 1_555
H11 C17 1_555 1_555
Cu2 N1 1_555 1_555
C5 C6 1_555 1_555
C11 C12 1_555 1_555
O3 Cu1 1_555 1_555
O4 N3 1_555 1_555
O5 Cu1 1_555 1_555
N3 O3 1_555 1_555
C16 N2 1_555 1_555
H10 C16 1_555 1_555
Cu4 N2 1_555 1_555
N4 Cu1 1_555 1_555
O5 N3 1_555 1_555
C11_2 N1_2 1_555 1_555
H6_2 C11_2 1_555 1_555
H7_2 C12_2 1_555 1_555
Cu2_2 N1_2 1_555 1_555
C11_2 C12_2 1_555 1_555
Cu1_2 O1_2 1_555 1_555
O1_2 C7_2 1_555 1_555
O3_2 Cu1_2 1_555 1_555
O4_2 N3_2 1_555 1_555
O5_2 Cu1_2 1_555 1_555
N2_2 C15_2 1_555 1_555
N3_2 O3_2 1_555 1_555
C1_2 C2_2 1_555 1_555
C3_2 C2_2 1_555 1_555
C4_2 C3_2 1_555 1_555
H2_2 C4_2 1_555 1_555
C5_2 C4_2 1_555 1_555
C6_2 C1_2 1_555 1_555
H3_2 C6_2 1_555 1_555
C7_2 C1_2 1_555 1_555
C8_2 C3_2 1_555 1_555
C9_2 C8_2 1_555 1_555
H4_2 C9_2 1_555 1_555
C10_2 C9_2 1_555 1_555
H5_2 C10_2 1_555 1_555
C13_2 C5_2 1_555 1_555
C14_2 C13_2 1_555 1_555
H8_2 C14_2 1_555 1_555
C15_2 C14_2 1_555 1_555
H9_2 C15_2 1_555 1_555
C16_2 N2_2 1_555 1_555
H10_2 C16_2 1_555 1_555
C17_2 C13_2 1_555 1_555
H11_2 C17_2 1_555 1_555
Cu4_2 N2_2 1_555 1_555
N4_2 Cu1_2 1_555 1_555
O5_2 N3_2 1_555 1_555
C5_2 C6_2 1_555 1_555
C16_2 C17_2 1_555 1_555
O3_3 Cu2_2 1_555 1_555
O4_3 N3_3 1_555 1_555
O5_3 Cu2_2 1_555 1_555
N3_3 O3_3 1_555 1_555
C16_3 N2_3 1_555 1_555
H10_3 C16_3 1_555 1_555
O6_3 Cu2_2 1_555 1_555
N5_3 Cu2_2 1_555 1_555
O5_3 N3_3 1_555 1_555
C11_3 N4_2 1_555 1_555
H6_3 C11_3 1_555 1_555
H7_3 C12_3 1_555 1_555
Cu4 O2_3 1_555 1_555
C11_3 C12_3 1_555 1_555
Cu2 O1_3 1_555 1_555
O1_3 C7_3 1_555 1_555
O2_4 C7_3 1_555 1_555
O3_4 Cu2 1_555 1_555
O4_4 N3_4 1_555 1_555
O5_4 Cu2 1_555 1_555
N4 C10_3 1_555 1_555
N2_4 C15_3 1_555 1_555
N3_4 O3_4 1_555 1_555
C1_3 C2_3 1_555 1_555
C2_3 H1_4 1_555 1_555
C3_3 C2_3 1_555 1_555
C4_3 C3_3 1_555 1_555
H2_3 C4_3 1_555 1_555
C5_3 C4_3 1_555 1_555
C6_3 C1_3 1_555 1_555
H3_3 C6_3 1_555 1_555
C7_3 C1_3 1_555 1_555
C8_3 C3_3 1_555 1_555
C9_3 C8_3 1_555 1_555
H4_3 C9_3 1_555 1_555
C10_3 C9_3 1_555 1_555
H5_3 C10_3 1_555 1_555
C11_4 N4 1_555 1_555
H6_4 C11_4 1_555 1_555
C12_4 C8_3 1_555 1_555
H7_4 C12_4 1_555 1_555
C13_3 C5_3 1_555 1_555
C14_3 C13_3 1_555 1_555
H8_3 C14_3 1_555 1_555
C15_3 C14_3 1_555 1_555
C16_4 N2_4 1_555 1_555
H10_4 C16_4 1_555 1_555
C17_3 C13_3 1_555 1_555
H11_3 C17_3 1_555 1_555
Cu4_2 O2_4 1_555 1_555
O6_4 Cu2 1_555 1_555
N5_4 Cu2 1_555 1_555
O5_4 N3_4 1_555 1_555
C5_3 C6_3 1_555 1_555
C11_4 C12_4 1_555 1_555
C16_4 C17_3 1_555 1_555
O3_5 Cu3 1_555 1_555
O4_5 N3_5 1_555 1_555
O5_5 Cu3 1_555 1_555
N3_5 O3_5 1_555 1_555
C16_5 N5_3 1_555 1_555
H10_5 C16_5 1_555 1_555
N4_3 Cu3 1_555 1_555
O5_5 N3_5 1_555 1_555
O1_4 C7_4 1_555 1_555
O6 C7_4 1_555 1_555
N1_3 C10_4 1_555 1_555
C1_4 C2_4 1_555 1_555
C2_4 H1_5 1_555 1_555
C3_4 C2_4 1_555 1_555
C4_4 C3_4 1_555 1_555
H2_4 C4_4 1_555 1_555
C5_4 C4_4 1_555 1_555
C6_4 C1_4 1_555 1_555
H3_4 C6_4 1_555 1_555
C7_4 C1_4 1_555 1_555
C8_4 C3_4 1_555 1_555
C9_4 C8_4 1_555 1_555
H4_4 C9_4 1_555 1_555
C10_4 C9_4 1_555 1_555
H5_4 C10_4 1_555 1_555
C11_5 N1_3 1_555 1_555
H6_5 C11_5 1_555 1_555
C12_5 C8_4 1_555 1_555
H7_5 C12_5 1_555 1_555
C13_4 C5_4 1_555 1_555
C14_4 C13_4 1_555 1_555
H8_4 C14_4 1_555 1_555
C15_4 C14_4 1_555 1_555
H9_4 C15_4 1_555 1_555
C17_4 C13_4 1_555 1_555
H11_4 C17_4 1_555 1_555
Cu4_2 N1_3 1_555 1_555
C5_4 C6_4 1_555 1_555
C11_5 C12_5 1_555 1_555
Cu3_2 O1_5 1_555 1_555
O1_5 C7_5 1_555 1_555
O3_6 Cu3_2 1_555 1_555
O4_6 N3_6 1_555 1_555
O5_6 Cu3_2 1_555 1_555
N5_4 C15_5 1_555 1_555
N3_6 O3_6 1_555 1_555
C1_5 C2_5 1_555 1_555
C3_5 C2_5 1_555 1_555
C4_5 C3_5 1_555 1_555
H2_5 C4_5 1_555 1_555
C5_5 C4_5 1_555 1_555
C6_5 C1_5 1_555 1_555
H3_5 C6_5 1_555 1_555
C7_5 C1_5 1_555 1_555
C8_5 C3_5 1_555 1_555
C9_5 C8_5 1_555 1_555
H4_5 C9_5 1_555 1_555
C10_5 C9_5 1_555 1_555
H5_5 C10_5 1_555 1_555
C13_5 C5_5 1_555 1_555
C14_5 C13_5 1_555 1_555
H8_5 C14_5 1_555 1_555
C15_5 C14_5 1_555 1_555
H9_5 C15_5 1_555 1_555
C16_6 N5_4 1_555 1_555
H10_6 C16_6 1_555 1_555
C17_5 C13_5 1_555 1_555
H11_5 C17_5 1_555 1_555
N4_4 Cu3_2 1_555 1_555
O5_6 N3_6 1_555 1_555
C5_5 C6_5 1_555 1_555
C16_6 C17_5 1_555 1_555
C11_6 N1_4 1_555 1_555
H6_6 C11_6 1_555 1_555
H7_6 C12_6 1_555 1_555
Cu4 N1_4 1_555 1_555
C11_6 C12_6 1_555 1_555
C11_7 N4_4 1_555 1_555
H6_7 C11_7 1_555 1_555
H7_7 C12_7 1_555 1_555
C11_7 C12_7 1_555 1_555
O3_7 Cu4 1_555 1_555
O4_7 N3_7 1_555 1_555
O5_7 Cu4 1_555 1_555
N3_7 O3_7 1_555 1_555
C16_7 N5 1_555 1_555
H10_7 C16_7 1_555 1_555
O5_7 N3_7 1_555 1_555
Cu4_2 O1_6 1_555 1_555
O1_6 C7_6 1_555 1_555
O6_4 C7_6 1_555 1_555
O3_8 Cu4_2 1_555 1_555
O4_8 N3_8 1_555 1_555
O5_8 Cu4_2 1_555 1_555
N4_3 C10_6 1_555 1_555
N5_2 C15_6 1_555 1_555
N3_8 O3_8 1_555 1_555
C1_6 C2_6 1_555 1_555
C2_6 H1_8 1_555 1_555
C3_6 C2_6 1_555 1_555
C4_6 C3_6 1_555 1_555
H2_6 C4_6 1_555 1_555
C5_6 C4_6 1_555 1_555
C6_6 C1_6 1_555 1_555
H3_6 C6_6 1_555 1_555
C7_6 C1_6 1_555 1_555
C8_6 C3_6 1_555 1_555
C9_6 C8_6 1_555 1_555
H4_6 C9_6 1_555 1_555
C10_6 C9_6 1_555 1_555
H5_6 C10_6 1_555 1_555
C11_8 N4_3 1_555 1_555
H6_8 C11_8 1_555 1_555
C12_8 C8_6 1_555 1_555
H7_8 C12_8 1_555 1_555
C13_6 C5_6 1_555 1_555
C14_6 C13_6 1_555 1_555
H8_6 C14_6 1_555 1_555
C15_6 C14_6 1_555 1_555
C16_8 N5_2 1_555 1_555
H10_8 C16_8 1_555 1_555
C17_6 C13_6 1_555 1_555
H11_6 C17_6 1_555 1_555
O5_8 N3_8 1_555 1_555
C5_6 C6_6 1_555 1_555
C11_8 C12_8 1_555 1_555
C16_8 C17_6 1_555 1_555
O1_7 C7_7 1_555 1_555
C1_7 C2_7 1_555 1_555
C3_7 C2_7 1_555 1_555
C4_7 C3_7 1_555 1_555
H2_7 C4_7 1_555 1_555
C5_7 C4_7 1_555 1_555
C6_7 C1_7 1_555 1_555
H3_7 C6_7 1_555 1_555
C7_7 C1_7 1_555 1_555
C8_7 C3_7 1_555 1_555
C9_7 C8_7 1_555 1_555
H4_7 C9_7 1_555 1_555
C10_7 C9_7 1_555 1_555
H5_7 C10_7 1_555 1_555
C13_7 C5_7 1_555 1_555
C14_7 C13_7 1_555 1_555
H8_7 C14_7 1_555 1_555
C15_7 C14_7 1_555 1_555
C17_7 C13_7 1_555 1_555
H11_7 C17_7 1_555 1_555
C5_7 C6_7 1_555 1_555
O1_8 C7_8 1_555 1_555
C1_8 C2_8 1_555 1_555
C3_8 C2_8 1_555 1_555
C4_8 C3_8 1_555 1_555
H2_8 C4_8 1_555 1_555
C5_8 C4_8 1_555 1_555
C6_8 C1_8 1_555 1_555
H3_8 C6_8 1_555 1_555
C7_8 C1_8 1_555 1_555
C8_8 C3_8 1_555 1_555
C9_8 C8_8 1_555 1_555
H4_8 C9_8 1_555 1_555
C10_8 C9_8 1_555 1_555
H5_8 C10_8 1_555 1_555
C13_8 C5_8 1_555 1_555
C14_8 C13_8 1_555 1_555
H8_8 C14_8 1_555 1_555
C15_8 C14_8 1_555 1_555
C17_8 C13_8 1_555 1_555
H11_8 C17_8 1_555 1_555
C5_8 C6_8 1_555 1_555

#END
