
###############################################################################
#
# This file contains modified crystal structure data generated from the
# MOF subset of the Cambridge Structural Database (CSD) v543 
# hosted by the Cambridge Crystallographic Data Centre (CCDC).
#
# This work is licensed under the Creative Commons
# Attribution-NonCommercial-ShareAlike 4.0 International License.
# To view a copy of this license, visit
# http://creativecommons.org/licenses/by-nc-sa/4.0/
# or send a letter to
# Creative Commons, PO Box 1866, Mountain View, CA 94042, USA.
#
# CIF created using the CSD Python API on 29 September 2022
# The structure has been converted into the P1 space group
# The structure has a 3D framework
# The original CSD entry WULJOF is in the triclinic crystal system
# The framework has been calculated to contain at least 10.0% void space
# The void calculation uses a probe of radius 1.32A, grid spacing 0.4
#
###############################################################################

data_WULJOF
_chemical_formula_moiety         '(C72 H48 Ni8 O30)n'
_symmetry_cell_setting           triclinic
_symmetry_space_group_name_H-M   'P 1'
_symmetry_Int_Tables_number      1
_space_group_name_Hall           'P 1'
loop_
_symmetry_equiv_pos_site_id
_symmetry_equiv_pos_as_xyz
1 x,y,z
_cell_length_a                   7.09450(10)
_cell_length_b                   13.59080(10)
_cell_length_c                   20.7600(2)
_cell_angle_alpha                98.7080(10)
_cell_angle_beta                 95.1970(10)
_cell_angle_gamma                101.2540(10)
_cell_volume                     1925.6
loop_
_atom_site_label
_atom_site_type_symbol
_atom_site_fract_x
_atom_site_fract_y
_atom_site_fract_z
Ni8 Ni 0.16596(5) 0.43515(2) 0.73483(2)
O3 O 0.1794(2) 0.49836(10) 0.18439(7)
C2 C 0.0808(3) 0.55504(15) 0.15760(10)
C7 C 0.1527(3) 0.59567(15) 0.09929(10)
C17 C 0.1298(3) 0.69350(16) 0.08632(11)
C21 C 0.1749(4) 0.72037(17) 0.02487(11)
C22 C 0.2295(3) 0.53343(17) 0.05540(11)
H4 H 0.257375 0.473488 0.066324
C29 C 0.0747(4) 0.76677(18) 0.13279(12)
H11 H 0.040381 0.749564 0.172466
C34 C 0.1663(6) 0.8198(2) 0.01373(14)
C35 C 0.0711(6) 0.8618(2) 0.12042(15)
H17 H 0.036510 0.909183 0.151871
C36 C 0.1193(7) 0.8887(2) 0.06037(16)
H18 H 0.118988 0.954300 0.052614
Ni11 Ni 0.36991(5) 0.55948(2) 0.26902(2)
Ni14 Ni 0.05461(5) 0.35975(2) 0.21260(2)
Ni1 Ni 0.41549(5) 0.64835(2) 0.78388(2)
Ni3 Ni 0.63009(5) 0.44052(2) 0.73098(2)
O1 O 0.2438(2) 0.42005(10) 0.29994(7)
O2 O 0.14139(19) 0.58153(10) 0.74080(7)
O4 O 0.4379(2) 0.50110(10) 0.77645(7)
O7 O 0.8612(2) 0.37407(12) 0.69191(8)
O9 O 0.4937(2) 0.34207(11) 0.30574(7)
O10 O 0.3739(2) 0.64338(11) 0.87869(7)
O11 O 0.1976(2) 0.42706(12) 0.63658(7)
O12 O 0.4954(2) 0.39555(12) 0.64004(7)
O13 O 0.2059(2) 0.29056(10) 0.73341(8)
O14 O 0.0824(2) 0.68252(12) 0.88007(7)
O15 O 0.5273(2) 0.30312(10) 0.75708(8)
C1 C 0.3583(3) 0.37404(14) 0.33002(10)
C3 C 0.4098(3) 0.29343(16) 0.43348(10)
C4 C 0.3321(3) 0.36487(15) 0.40003(10)
C5 C 0.3367(3) 0.40102(15) 0.61022(10)
C6 C 0.3191(3) 0.37838(15) 0.53635(10)
C8 C 0.4013(3) 0.30030(16) 0.50235(10)
C9 C 0.2314(3) 0.66043(15) 0.90655(10)
C10 C 0.2306(3) 0.64805(16) 0.97744(10)
C12 C 0.2354(3) 0.44027(17) 0.50162(11)
H1 H 0.174043 0.487726 0.523291
C13 C 0.2414(3) 0.43268(17) 0.43376(11)
H2 H 0.182234 0.474815 0.411111
C14 C 0.1987(3) 0.06998(15) 0.69660(11)
C16 C 0.3530(3) 0.25517(15) 0.74618(10)
C19 C 0.3181(3) 0.14283(15) 0.74828(11)
C20 C 0.2665(3) 0.55933(17) 0.99408(11)
H3 H 0.315989 0.515596 0.964459
C23 C 0.3729(3) 0.00748(17) 0.80607(12)
C25 C 0.4046(3) 0.11144(16) 0.80110(12)
H7 H 0.485041 0.159339 0.833970
C26 C 0.4686(4) 0.22641(18) 0.53480(12)
H8 H 0.464584 0.230606 0.579764
C27 C 0.1176(4) 0.09799(17) 0.63901(12)
H9 H 0.139568 0.166341 0.634858
C28 C 0.4856(4) 0.21254(18) 0.40109(12)
H10 H 0.494284 0.207352 0.356322
C30 C 0.5457(5) 0.1426(2) 0.43379(13)
H12 H 0.591909 0.089598 0.411136
C32 C 0.0081(4) 0.02690(19) 0.58964(13)
C33 C 0.5383(5) 0.1502(2) 0.50193(13)
H15 H 0.581290 0.102830 0.524302
H16 H 0.193349 0.838088 0.973613
H19 H 0.448(3) 0.4876(18) 0.8145(9)
H20 H 0.126(4) 0.5957(19) 0.7030(9)
H21 H 0.864(4) 0.382(2) 0.6525(9)
H23 H 0.824(5) 0.3091(14) 0.6888(17)
Ni7 Ni 0.58451(5) 0.35165(2) 0.21612(2)
O18 O 0.7562(2) 0.57995(10) 0.70006(7)
O20 O 0.8206(2) 0.50164(10) 0.81561(7)
O21 O 0.3696(2) 0.79394(10) 0.78469(8)
O22 O 0.7183(2) 0.70638(12) 0.82616(8)
O24 O 0.0724(2) 0.42555(11) 0.82463(7)
O25 O 0.5063(2) 0.65793(11) 0.69426(7)
O26 O 0.0472(2) 0.77677(10) 0.76029(8)
C11 C 0.2534(3) 0.93546(15) 0.75871(11)
C15 C 0.1648(3) 0.96453(15) 0.70205(11)
C18 C 0.2205(3) 0.82583(15) 0.76839(10)
H5 H 0.433778 0.987432 0.841949
C24 C 0.0505(4) 0.89303(17) 0.64904(12)
H6 H 0.027175 0.824082 0.651642
O8 O 0.9276(2) 0.57445(11) 0.17537(7)
Ni9 Ni 0.83404(5) 0.56485(2) 0.26517(2)
Ni4 Ni 0.94539(5) 0.64025(2) 0.78740(2)
H14 H 0.955302 0.047039 0.552387
H22 H 0.740(5) 0.7697(15) 0.8223(17)
H24 H 0.727(5) 0.709(3) 0.8698(9)
C31 C 0.9744(4) 0.92294(19) 0.59472(12)
H13 H 0.899819 0.874622 0.560755
C31_2 C 0.0256(4) 0.07706(19) 0.40528(12)
H13_2 H 0.100181 0.125378 0.439245
O6 O 0.2817(2) 0.29362(12) 0.17384(8)
H14_2 H 0.044698 0.952961 0.447613
H22_2 H 0.260(5) 0.2303(15) 0.1777(17)
H24_2 H 0.273(5) 0.291(3) 0.1302(9)
O23 O 0.1388(2) 0.62593(12) 0.30809(8)
O5 O 0.6304(2) 0.20606(10) 0.21531(8)
O16 O 0.9528(2) 0.22323(10) 0.23971(8)
C11_2 C 0.7466(3) 0.06454(15) 0.24129(11)
C15_2 C 0.8352(3) 0.03547(15) 0.29795(11)
C18_2 C 0.7795(3) 0.17417(15) 0.23161(10)
H5_2 H 0.566222 0.012568 0.158051
C24_2 C 0.9495(4) 0.10697(17) 0.35096(12)
H6_2 H 0.972825 0.175918 0.348358
O2_2 O 0.85861(19) 0.41847(10) 0.25920(7)
O4_2 O 0.5621(2) 0.49890(10) 0.22355(7)
O10_2 O 0.6261(2) 0.35662(11) 0.12131(7)
O11_2 O 0.8024(2) 0.57294(12) 0.36342(7)
O12_2 O 0.5046(2) 0.60445(12) 0.35996(7)
O13_2 O 0.7941(2) 0.70944(10) 0.26659(8)
O14_2 O 0.9176(2) 0.31748(12) 0.11993(7)
O15_2 O 0.4727(2) 0.69688(10) 0.24292(8)
C1_2 C 0.6417(3) 0.62596(14) 0.66998(10)
C3_2 C 0.5902(3) 0.70657(16) 0.56652(10)
C4_2 C 0.6679(3) 0.63513(15) 0.59997(10)
C5_2 C 0.6633(3) 0.59898(15) 0.38978(10)
C6_2 C 0.6809(3) 0.62162(15) 0.46365(10)
C8_2 C 0.5987(3) 0.69970(16) 0.49765(10)
C9_2 C 0.7686(3) 0.33957(15) 0.09345(10)
C10_2 C 0.7694(3) 0.35195(16) 0.02256(10)
C12_2 C 0.7646(3) 0.55973(17) 0.49838(11)
H1_2 H 0.825957 0.512274 0.476709
C13_2 C 0.7586(3) 0.56732(17) 0.56624(11)
H2_2 H 0.817766 0.525185 0.588889
C14_2 C 0.8013(3) 0.93002(15) 0.30340(11)
C16_2 C 0.6470(3) 0.74483(15) 0.25382(10)
C19_2 C 0.6819(3) 0.85717(15) 0.25172(11)
C20_2 C 0.7335(3) 0.44067(17) 0.00592(11)
H3_2 H 0.684011 0.484404 0.035541
C23_2 C 0.6271(3) 0.99252(17) 0.19393(12)
C25_2 C 0.5954(3) 0.88856(16) 0.19890(12)
H7_2 H 0.514959 0.840661 0.166030
C26_2 C 0.5314(4) 0.77359(18) 0.46520(12)
H8_2 H 0.535416 0.769394 0.420236
C27_2 C 0.8824(4) 0.90201(17) 0.36099(12)
H9_2 H 0.860432 0.833659 0.365142
C28_2 C 0.5144(4) 0.78746(18) 0.59891(12)
H10_2 H 0.505716 0.792648 0.643678
C30_2 C 0.4543(5) 0.8574(2) 0.56621(13)
H12_2 H 0.408091 0.910402 0.588864
C32_2 C 0.9919(4) 0.97310(19) 0.41036(13)
C33_2 C 0.4617(5) 0.8498(2) 0.49807(13)
H15_2 H 0.418710 0.897170 0.475698
H16_2 H 0.806651 0.161912 0.026387
H19_2 H 0.552(3) 0.5124(18) 0.1855(9)
H20_2 H 0.874(4) 0.4043(19) 0.2970(9)
H21_2 H 0.136(4) 0.618(2) 0.3475(9)
H23_2 H 0.176(5) 0.6909(14) 0.3112(17)
C2_2 C 0.9192(3) 0.44496(15) 0.84240(10)
C7_2 C 0.8473(3) 0.40433(15) 0.90071(10)
C17_2 C 0.8702(3) 0.30650(16) 0.91368(11)
C21_2 C 0.8251(4) 0.27963(17) 0.97513(11)
C22_2 C 0.7705(3) 0.46657(17) 0.94460(11)
H4_2 H 0.742625 0.526512 0.933676
C29_2 C 0.9253(4) 0.23323(18) 0.86721(12)
H11_2 H 0.959619 0.250436 0.827534
C34_2 C 0.8337(6) 0.1802(2) 0.98627(14)
C35_2 C 0.9289(6) 0.1382(2) 0.87958(15)
H17_2 H 0.963490 0.090817 0.848129
C36_2 C 0.8807(7) 0.1113(2) 0.93963(16)
H18_2 H 0.881012 0.045700 0.947386
loop_
_geom_bond_atom_site_label_1
_geom_bond_atom_site_label_2
_geom_bond_site_symmetry_1
_geom_bond_site_symmetry_2
O3 C2 1_555 1_555
C2 C7 1_555 1_555
C7 C17 1_555 1_555
C17 C21 1_555 1_555
C22 C7 1_555 1_555
H4 C22 1_555 1_555
C29 C17 1_555 1_555
H11 C29 1_555 1_555
C34 C21 1_555 1_555
C35 C29 1_555 1_555
H17 C35 1_555 1_555
C36 C34 1_555 1_555
H18 C36 1_555 1_555
Ni11 O3 1_555 1_555
Ni14 O3 1_555 1_555
C35 C36 1_555 1_555
Ni1 O2 1_555 1_555
Ni8 O2 1_555 1_555
Ni3 O4 1_555 1_555
O1 C1 1_555 1_555
O2 H20 1_555 1_555
O4 Ni1 1_555 1_555
O7 Ni3 1_555 1_555
O9 C1 1_555 1_555
O10 Ni1 1_555 1_555
O11 Ni8 1_555 1_555
O12 Ni3 1_555 1_555
O13 Ni8 1_555 1_555
O15 Ni3 1_555 1_555
C1 C4 1_555 1_555
C3 C4 1_555 1_555
C4 C13 1_555 1_555
C5 O11 1_555 1_555
C6 C5 1_555 1_555
C8 C3 1_555 1_555
C9 O10 1_555 1_555
C10 C9 1_555 1_555
C12 C6 1_555 1_555
H1 C12 1_555 1_555
C13 C12 1_555 1_555
H2 C13 1_555 1_555
C16 O13 1_555 1_555
C19 C14 1_555 1_555
C20 C10 1_555 1_555
H3 C20 1_555 1_555
C25 C19 1_555 1_555
H7 C25 1_555 1_555
C26 C8 1_555 1_555
H8 C26 1_555 1_555
C27 C14 1_555 1_555
H9 C27 1_555 1_555
C28 C3 1_555 1_555
H10 C28 1_555 1_555
C30 C28 1_555 1_555
H12 C30 1_555 1_555
C32 C27 1_555 1_555
C33 C26 1_555 1_555
H15 C33 1_555 1_555
H19 O4 1_555 1_555
H21 O7 1_555 1_555
H23 O7 1_555 1_555
Ni7 O9 1_555 1_555
Ni11 O1 1_555 1_555
Ni14 O1 1_555 1_555
O18 Ni3 1_555 1_555
O20 Ni3 1_555 1_555
O21 Ni1 1_555 1_555
O22 Ni1 1_555 1_555
O24 Ni8 1_555 1_555
O25 Ni1 1_555 1_555
Ni8 O4 1_555 1_555
O12 C5 1_555 1_555
O14 C9 1_555 1_555
O15 C16 1_555 1_555
C6 C8 1_555 1_555
C16 C19 1_555 1_555
C23 C25 1_555 1_555
C30 C33 1_555 1_555
O21 C18 1_555 1_555
O26 C18 1_555 1_555
C11 C15 1_555 1_555
C15 C24 1_555 1_555
C18 C11 1_555 1_555
C24 H6 1_555 1_555
Ni9 O8 1_555 1_555
O22 Ni4 1_555 1_555
H22 O22 1_555 1_555
H24 O22 1_555 1_555
O18 Ni4 1_555 1_555
O20 Ni4 1_555 1_555
H13 C31 1_555 1_555
H13_2 C31_2 1_555 1_555
O6 Ni14 1_555 1_555
H22_2 O6 1_555 1_555
H24_2 O6 1_555 1_555
Ni7 O6 1_555 1_555
O5 C18_2 1_555 1_555
O16 C18_2 1_555 1_555
C11_2 C15_2 1_555 1_555
C15_2 C24_2 1_555 1_555
C18_2 C11_2 1_555 1_555
C24_2 H6_2 1_555 1_555
Ni7 O5 1_555 1_555
Ni7 O2_2 1_555 1_555
Ni9 O2_2 1_555 1_555
Ni11 O4_2 1_555 1_555
O18 C1_2 1_555 1_555
O2_2 H20_2 1_555 1_555
O4_2 Ni7 1_555 1_555
O23 Ni11 1_555 1_555
O25 C1_2 1_555 1_555
O10_2 Ni7 1_555 1_555
O11_2 Ni9 1_555 1_555
O12_2 Ni11 1_555 1_555
O13_2 Ni9 1_555 1_555
O15_2 Ni11 1_555 1_555
C1_2 C4_2 1_555 1_555
C3_2 C4_2 1_555 1_555
C4_2 C13_2 1_555 1_555
C5_2 O11_2 1_555 1_555
C6_2 C5_2 1_555 1_555
C8_2 C3_2 1_555 1_555
C9_2 O10_2 1_555 1_555
C10_2 C9_2 1_555 1_555
C12_2 C6_2 1_555 1_555
H1_2 C12_2 1_555 1_555
C13_2 C12_2 1_555 1_555
H2_2 C13_2 1_555 1_555
C16_2 O13_2 1_555 1_555
C19_2 C14_2 1_555 1_555
C20_2 C10_2 1_555 1_555
H3_2 C20_2 1_555 1_555
C25_2 C19_2 1_555 1_555
H7_2 C25_2 1_555 1_555
C26_2 C8_2 1_555 1_555
H8_2 C26_2 1_555 1_555
C27_2 C14_2 1_555 1_555
H9_2 C27_2 1_555 1_555
C28_2 C3_2 1_555 1_555
H10_2 C28_2 1_555 1_555
C30_2 C28_2 1_555 1_555
H12_2 C30_2 1_555 1_555
C32_2 C27_2 1_555 1_555
C33_2 C26_2 1_555 1_555
H15_2 C33_2 1_555 1_555
H19_2 O4_2 1_555 1_555
H21_2 O23 1_555 1_555
H23_2 O23 1_555 1_555
Ni9 O4_2 1_555 1_555
O12_2 C5_2 1_555 1_555
O14_2 C9_2 1_555 1_555
O15_2 C16_2 1_555 1_555
C6_2 C8_2 1_555 1_555
C16_2 C19_2 1_555 1_555
C23_2 C25_2 1_555 1_555
C30_2 C33_2 1_555 1_555
O20 C2_2 1_555 1_555
C2_2 C7_2 1_555 1_555
C7_2 C17_2 1_555 1_555
C17_2 C21_2 1_555 1_555
C22_2 C7_2 1_555 1_555
H4_2 C22_2 1_555 1_555
C29_2 C17_2 1_555 1_555
H11_2 C29_2 1_555 1_555
C34_2 C21_2 1_555 1_555
C35_2 C29_2 1_555 1_555
H17_2 C35_2 1_555 1_555
C36_2 C34_2 1_555 1_555
H18_2 C36_2 1_555 1_555
C35_2 C36_2 1_555 1_555

#END
