
###############################################################################
#
# This file contains modified crystal structure data generated from the
# MOF subset of the Cambridge Structural Database (CSD) v543 
# hosted by the Cambridge Crystallographic Data Centre (CCDC).
#
# This work is licensed under the Creative Commons
# Attribution-NonCommercial-ShareAlike 4.0 International License.
# To view a copy of this license, visit
# http://creativecommons.org/licenses/by-nc-sa/4.0/
# or send a letter to
# Creative Commons, PO Box 1866, Mountain View, CA 94042, USA.
#
# CIF created using the CSD Python API on 29 September 2022
# The structure has been converted into the P1 space group
# The structure has a 3D framework
# The original CSD entry WUSSEK is in the monoclinic crystal system
# The framework has been calculated to contain at least 10.0% void space
# The void calculation uses a probe of radius 1.32A, grid spacing 0.4
#
###############################################################################

data_WUSSEK
_chemical_formula_moiety         '(C104 H72 Cu4 N16 O24)n'
_symmetry_cell_setting           triclinic
_symmetry_space_group_name_H-M   'P 1'
_symmetry_Int_Tables_number      1
_space_group_name_Hall           'P 1'
loop_
_symmetry_equiv_pos_site_id
_symmetry_equiv_pos_as_xyz
1 x,y,z
_cell_length_a                   8.3259(14)
_cell_length_b                   22.773(4)
_cell_length_c                   20.105(3)
_cell_angle_alpha                90
_cell_angle_beta                 93.700(5)
_cell_angle_gamma                90
_cell_volume                     3804.08
loop_
_atom_site_label
_atom_site_type_symbol
_atom_site_fract_x
_atom_site_fract_y
_atom_site_fract_z
H3 H 0.0496 0.3750 0.7272
H5 H 0.0079 0.1515 0.9685
H6 H 0.0212 0.2237 0.8890
H11 H 0.0599 0.8312 0.3932
H12 H 0.0609 0.7443 0.4525
C25 C 0.8534(7) 0.0088(2) 0.1404(3)
H15 H 0.9118 0.0445 0.1452
N3 N 0.7614(5) 0.00038(18) 0.0839(2)
Cu3 Cu 0.78705(8) 0.05428(3) 0.00552(3)
C1 C 0.6920(6) 0.4489(2) 0.5656(2)
C2 C 0.7487(6) 0.4062(2) 0.6199(3)
C3 C 0.6465(7) 0.3619(2) 0.6378(3)
H1 H 0.5442 0.3576 0.6145
C4 C 0.6923(7) 0.3236(2) 0.6897(3)
H2 H 0.6193 0.2944 0.7029
C5 C 0.8413(7) 0.3278(2) 0.7216(3)
C6 C 0.9467(7) 0.3716(2) 0.7042(3)
C7 C 0.9007(7) 0.4108(2) 0.6523(3)
H4 H 0.9733 0.4403 0.6396
C8 C 0.8980(7) 0.2880(2) 0.7779(3)
C9 C 0.9336(7) 0.1500(2) 0.9307(3)
C10 C 0.9440(7) 0.1931(2) 0.8833(3)
C11 C 0.8374(7) 0.1908(2) 0.8262(3)
C12 C 0.7334(7) 0.1426(2) 0.8198(3)
H7 H 0.6642 0.1380 0.7807
C13 C 0.7314(6) 0.1021(2) 0.8700(3)
H8 H 0.6600 0.0697 0.8644
C14 C 0.8519(7) 0.6567(2) 0.4524(3)
C15 C 0.8564(6) 0.7130(2) 0.4112(3)
C16 C 0.7476(10) 0.7245(4) 0.3610(4)
H9 H 0.6603 0.6980 0.3532
C17 C 0.7556(10) 0.7724(4) 0.3206(4)
H10 H 0.6807 0.7760 0.2831
C18 C 0.8663(10) 0.8146(4) 0.3323(4)
C19 C 0.9776(10) 0.8031(4) 0.3828(4)
C20 C 0.9754(10) 0.7518(4) 0.4200(4)
C21 C 0.8807(9) 0.8681(3) 0.2927(3)
C22 C 0.7860(7) 0.9150(2) 0.1847(3)
C23 C 0.6873(7) 0.9066(2) 0.1271(3)
H13 H 0.6251 0.8717 0.1219
C24 C 0.6786(7) 0.9485(2) 0.0773(3)
H14 H 0.6137 0.9412 0.0375
C26 C 0.8686(7) 0.9690(2) 0.1917(3)
H16 H 0.9335 0.9776 0.2311
N1 N 0.8262(5) 0.10580(18) 0.9274(2)
N2 N 0.8284(6) 0.2333(2) 0.7758(2)
N4 N 0.7926(6) 0.8705(2) 0.2323(2)
O1 O 0.7844(5) 0.49285(15) 0.55803(18)
O2 O 0.5642(4) 0.43922(15) 0.53291(18)
O3 O 0.7314(4) 0.62349(15) 0.43695(17)
O4 O 0.9581(5) 0.64730(19) 0.4958(2)
O5 O 0.9645(8) 0.9096(2) 0.3127(2)
O6 O 0.9949(6) 0.3032(2) 0.8218(2)
Cu1 Cu 0.71295(8) 0.55428(3) 0.49448(3)
H17 H 0.770(6) 0.221(2) 0.7402(19)
H18 H 0.7305 0.8400 0.2229
N5 N 0.6738(5) 0.60580(18) 0.5726(2)
N6 N 0.7386(5) 0.50038(18) 0.4161(2)
O7 O 0.4358(4) 0.56078(15) 0.46709(18)
Cu4 Cu 0.28705(8) 0.44572(3) 0.50552(3)
O7_2 O 0.0642(4) 0.06078(15) 0.03291(18)
Cu4_2 Cu 0.21295(8) 0.94572(3) 0.99448(3)
C14_2 C 0.6481(7) 0.1567(2) 0.0476(3)
C15_2 C 0.6436(6) 0.2130(2) 0.0888(3)
C16_2 C 0.7524(10) 0.2245(4) 0.1390(4)
H9_2 H 0.8397 0.1980 0.1468
C17_2 C 0.7444(10) 0.2724(4) 0.1794(4)
H10_2 H 0.8193 0.2760 0.2169
C18_2 C 0.6337(10) 0.3146(4) 0.1677(4)
C19_2 C 0.5224(10) 0.3031(4) 0.1172(4)
H11_2 H 0.4401 0.3312 0.1068
C20_2 C 0.5246(10) 0.2518(4) 0.0800(4)
H12_2 H 0.4391 0.2443 0.0475
C21_2 C 0.6193(9) 0.3681(3) 0.2073(3)
C22_2 C 0.7140(7) 0.4150(2) 0.3153(3)
C23_2 C 0.8127(7) 0.4066(2) 0.3729(3)
H13_2 H 0.8749 0.3717 0.3781
C24_2 C 0.8214(7) 0.4485(2) 0.4227(3)
H14_2 H 0.8863 0.4412 0.4625
C25_2 C 0.6466(7) 0.5088(2) 0.3596(3)
H15_2 H 0.5882 0.5445 0.3548
C26_2 C 0.6314(7) 0.4690(2) 0.3083(3)
H16_2 H 0.5665 0.4776 0.2689
N4_2 N 0.7074(6) 0.3705(2) 0.2677(2)
O3_2 O 0.7686(4) 0.12349(15) 0.06305(17)
O4_2 O 0.5419(5) 0.14730(19) 0.0042(2)
O5_2 O 0.5355(8) 0.4096(2) 0.1873(2)
H18_2 H 0.7695 0.3400 0.2771
C1_2 C 0.8080(6) 0.9489(2) 0.9344(2)
C2_2 C 0.7513(6) 0.9062(2) 0.8801(3)
C3_2 C 0.8535(7) 0.8619(2) 0.8622(3)
H1_2 H 0.9558 0.8576 0.8855
C4_2 C 0.8077(7) 0.8236(2) 0.8103(3)
H2_2 H 0.8807 0.7944 0.7971
C5_2 C 0.6587(7) 0.8278(2) 0.7784(3)
C6_2 C 0.5533(7) 0.8716(2) 0.7958(3)
H3_2 H 0.4504 0.8750 0.7728
C7_2 C 0.5993(7) 0.9108(2) 0.8477(3)
H4_2 H 0.5267 0.9403 0.8604
C8_2 C 0.6020(7) 0.7880(2) 0.7221(3)
C9_2 C 0.5664(7) 0.6500(2) 0.5693(3)
H5_2 H 0.4921 0.6515 0.5315
C10_2 C 0.5560(7) 0.6931(2) 0.6167(3)
H6_2 H 0.4788 0.7237 0.6110
C11_2 C 0.6626(7) 0.6908(2) 0.6738(3)
C12_2 C 0.7666(7) 0.6426(2) 0.6802(3)
H7_2 H 0.8358 0.6380 0.7193
C13_2 C 0.7686(6) 0.6021(2) 0.6300(3)
H8_2 H 0.8400 0.5697 0.6356
N2_2 N 0.6716(6) 0.7333(2) 0.7242(2)
O1_2 O 0.7156(5) 0.99285(15) 0.94197(18)
O2_2 O 0.9358(4) 0.93922(15) 0.96709(18)
O6_2 O 0.5051(6) 0.8032(2) 0.6782(2)
H17_2 H 0.730(6) 0.721(2) 0.7598(19)
C1_3 C 0.3080(6) 0.5511(2) 0.4344(2)
C2_3 C 0.2513(6) 0.5938(2) 0.3801(3)
C3_3 C 0.3535(7) 0.6381(2) 0.3622(3)
H1_3 H 0.4558 0.6424 0.3855
C4_3 C 0.3077(7) 0.6764(2) 0.3103(3)
H2_3 H 0.3807 0.7056 0.2971
C5_3 C 0.1587(7) 0.6722(2) 0.2784(3)
C6_3 C 0.0533(7) 0.6284(2) 0.2958(3)
C7_3 C 0.0993(7) 0.5892(2) 0.3477(3)
H4_3 H 0.0267 0.5597 0.3604
C8_3 C 0.1020(7) 0.7120(2) 0.2221(3)
C9_3 C 0.0664(7) 0.8500(2) 0.0693(3)
C10_3 C 0.0560(7) 0.8069(2) 0.1167(3)
C11_3 C 0.1626(7) 0.8092(2) 0.1738(3)
C12_3 C 0.2666(7) 0.8574(2) 0.1802(3)
H7_3 H 0.3358 0.8620 0.2193
C13_3 C 0.2686(6) 0.8979(2) 0.1300(3)
H8_3 H 0.3400 0.9303 0.1356
C14_3 C 0.1481(7) 0.3433(2) 0.5476(3)
C15_3 C 0.1436(6) 0.2870(2) 0.5888(3)
C16_3 C 0.2524(10) 0.2755(4) 0.6390(4)
H9_3 H 0.3397 0.3020 0.6468
C17_3 C 0.2444(10) 0.2276(4) 0.6794(4)
H10_3 H 0.3193 0.2240 0.7169
C18_3 C 0.1337(10) 0.1854(4) 0.6677(4)
C19_3 C 0.0224(10) 0.1969(4) 0.6172(4)
C20_3 C 0.0246(10) 0.2482(4) 0.5800(4)
C21_3 C 0.1193(9) 0.1319(3) 0.7073(3)
C22_3 C 0.2140(7) 0.0850(2) 0.8153(3)
C23_3 C 0.3127(7) 0.0934(2) 0.8729(3)
H13_3 H 0.3749 0.1283 0.8781
C24_3 C 0.3214(7) 0.0515(2) 0.9227(3)
H14_3 H 0.3863 0.0588 0.9625
C26_3 C 0.1314(7) 0.0310(2) 0.8083(3)
H16_3 H 0.0665 0.0224 0.7689
N1_2 N 0.1738(5) 0.89420(18) 0.0726(2)
N2_3 N 0.1716(6) 0.7667(2) 0.2242(2)
N4_3 N 0.2074(6) 0.1295(2) 0.7677(2)
O1_3 O 0.2156(5) 0.50715(15) 0.44197(18)
O3_3 O 0.2686(4) 0.37651(15) 0.56305(17)
O4_3 O 0.0419(5) 0.35270(19) 0.5042(2)
O5_3 O 0.0355(8) 0.0904(2) 0.6873(2)
O6_3 O 0.0051(6) 0.6968(2) 0.1782(2)
H17_3 H 0.230(6) 0.779(2) 0.2598(19)
H18_3 H 0.2695 0.1600 0.7771
N5_2 N 0.3262(5) 0.39420(18) 0.4274(2)
N6_2 N 0.2614(5) 0.49962(18) 0.5839(2)
C25_3 C 0.1466(7) 0.9912(2) 0.8596(3)
H15_3 H 0.0882 0.9555 0.8548
N3_2 N 0.2386(5) 0.99962(18) 0.9161(2)
C1_4 C 0.1920(6) 0.0511(2) 0.0656(2)
C2_4 C 0.2487(6) 0.0938(2) 0.1199(3)
C3_4 C 0.1465(7) 0.1381(2) 0.1378(3)
H1_4 H 0.0442 0.1424 0.1145
C4_4 C 0.1923(7) 0.1764(2) 0.1897(3)
H2_4 H 0.1193 0.2056 0.2029
C5_4 C 0.3413(7) 0.1722(2) 0.2216(3)
C6_4 C 0.4467(7) 0.1284(2) 0.2042(3)
H3_3 H 0.5496 0.1250 0.2272
C7_4 C 0.4007(7) 0.0892(2) 0.1523(3)
H4_4 H 0.4733 0.0597 0.1396
C8_4 C 0.3980(7) 0.2120(2) 0.2779(3)
C9_4 C 0.4336(7) 0.3500(2) 0.4307(3)
H5_3 H 0.5079 0.3485 0.4685
C10_4 C 0.4440(7) 0.3069(2) 0.3833(3)
H6_3 H 0.5212 0.2763 0.3890
C11_4 C 0.3374(7) 0.3092(2) 0.3262(3)
C12_4 C 0.2334(7) 0.3574(2) 0.3198(3)
H7_4 H 0.1642 0.3620 0.2807
C13_4 C 0.2314(6) 0.3979(2) 0.3700(3)
H8_4 H 0.1600 0.4303 0.3644
N2_4 N 0.3284(6) 0.2667(2) 0.2758(2)
O1_4 O 0.2844(5) 0.00715(15) 0.05803(18)
O6_4 O 0.4949(6) 0.1968(2) 0.3218(2)
H17_4 H 0.270(6) 0.279(2) 0.2402(19)
C14_4 C 0.3519(7) 0.8433(2) 0.9524(3)
C15_4 C 0.3564(6) 0.7870(2) 0.9112(3)
C16_4 C 0.2476(10) 0.7755(4) 0.8610(4)
H9_4 H 0.1603 0.8020 0.8532
C17_4 C 0.2556(10) 0.7276(4) 0.8206(4)
H10_4 H 0.1807 0.7240 0.7831
C18_4 C 0.3663(10) 0.6854(4) 0.8323(4)
C19_4 C 0.4776(10) 0.6969(4) 0.8828(4)
H11_3 H 0.5599 0.6688 0.8932
C20_4 C 0.4754(10) 0.7482(4) 0.9200(4)
H12_3 H 0.5609 0.7557 0.9525
C21_4 C 0.3807(9) 0.6319(3) 0.7927(3)
C22_4 C 0.2860(7) 0.5850(2) 0.6847(3)
C23_4 C 0.1873(7) 0.5934(2) 0.6271(3)
H13_4 H 0.1251 0.6283 0.6219
C24_4 C 0.1786(7) 0.5515(2) 0.5773(3)
H14_4 H 0.1137 0.5588 0.5375
C25_4 C 0.3534(7) 0.4912(2) 0.6404(3)
H15_4 H 0.4118 0.4555 0.6452
C26_4 C 0.3686(7) 0.5310(2) 0.6917(3)
H16_4 H 0.4335 0.5224 0.7311
N4_4 N 0.2926(6) 0.6295(2) 0.7323(2)
O3_4 O 0.2314(4) 0.87651(15) 0.93695(17)
O4_4 O 0.4581(5) 0.85270(19) 0.9958(2)
O5_4 O 0.4645(8) 0.5904(2) 0.8127(2)
H18_4 H 0.2305 0.6600 0.7229
H3_4 H 0.9504 0.6250 0.2728
H5_4 H 0.9921 0.8485 0.0315
H6_4 H 0.9788 0.7763 0.1110
H11_4 H 0.9401 0.1688 0.6068
H12_4 H 0.9391 0.2557 0.5475
loop_
_geom_bond_atom_site_label_1
_geom_bond_atom_site_label_2
_geom_bond_site_symmetry_1
_geom_bond_site_symmetry_2
C25 H15 1_555 1_555
Cu3 N3 1_555 1_555
C25 N3 1_555 1_555
C1 C2 1_555 1_555
C2 C3 1_555 1_555
C3 H1 1_555 1_555
C4 C3 1_555 1_555
H2 C4 1_555 1_555
C5 C4 1_555 1_555
C6 C5 1_555 1_555
C7 C2 1_555 1_555
H4 C7 1_555 1_555
C8 C5 1_555 1_555
C10 C9 1_555 1_555
C11 C10 1_555 1_555
C12 C11 1_555 1_555
H7 C12 1_555 1_555
C13 C12 1_555 1_555
H8 C13 1_555 1_555
C14 C15 1_555 1_555
C15 C16 1_555 1_555
C16 H9 1_555 1_555
C17 C16 1_555 1_555
H10 C17 1_555 1_555
C18 C17 1_555 1_555
C19 C18 1_555 1_555
C20 C15 1_555 1_555
C21 C18 1_555 1_555
C22 C23 1_555 1_555
C23 H13 1_555 1_555
C24 C23 1_555 1_555
H14 C24 1_555 1_555
C26 C22 1_555 1_555
H16 C26 1_555 1_555
N1 C9 1_555 1_555
N2 C8 1_555 1_555
N4 C21 1_555 1_555
O1 C1 1_555 1_555
O2 C1 1_555 1_555
O3 C14 1_555 1_555
O4 C14 1_555 1_555
O5 C21 1_555 1_555
O6 C8 1_555 1_555
Cu1 O1 1_555 1_555
H17 N2 1_555 1_555
H18 N4 1_555 1_555
N5 Cu1 1_555 1_555
N6 Cu1 1_555 1_555
O7 Cu1 1_555 1_555
Cu4 O2 1_555 1_555
C6 C7 1_555 1_555
C11 N2 1_555 1_555
C13 N1 1_555 1_555
C19 C20 1_555 1_555
C22 N4 1_555 1_555
O3 Cu1 1_555 1_555
C14_2 C15_2 1_555 1_555
C15_2 C16_2 1_555 1_555
C16_2 H9_2 1_555 1_555
C17_2 C16_2 1_555 1_555
H10_2 C17_2 1_555 1_555
C18_2 C17_2 1_555 1_555
C19_2 C18_2 1_555 1_555
H11_2 C19_2 1_555 1_555
C20_2 C15_2 1_555 1_555
H12_2 C20_2 1_555 1_555
C21_2 C18_2 1_555 1_555
C22_2 C23_2 1_555 1_555
C23_2 H13_2 1_555 1_555
C24_2 C23_2 1_555 1_555
H14_2 C24_2 1_555 1_555
C25_2 H15_2 1_555 1_555
C26_2 C22_2 1_555 1_555
H16_2 C26_2 1_555 1_555
N6 C24_2 1_555 1_555
N4_2 C21_2 1_555 1_555
O3_2 C14_2 1_555 1_555
O4_2 C14_2 1_555 1_555
O5_2 C21_2 1_555 1_555
H18_2 N4_2 1_555 1_555
C19_2 C20_2 1_555 1_555
C22_2 N4_2 1_555 1_555
C25_2 C26_2 1_555 1_555
C25_2 N6 1_555 1_555
O3_2 Cu3 1_555 1_555
C1_2 C2_2 1_555 1_555
C2_2 C3_2 1_555 1_555
C3_2 H1_2 1_555 1_555
C4_2 C3_2 1_555 1_555
H2_2 C4_2 1_555 1_555
C5_2 C4_2 1_555 1_555
C6_2 C5_2 1_555 1_555
H3_2 C6_2 1_555 1_555
C7_2 C2_2 1_555 1_555
H4_2 C7_2 1_555 1_555
C8_2 C5_2 1_555 1_555
C9_2 H5_2 1_555 1_555
C10_2 C9_2 1_555 1_555
H6_2 C10_2 1_555 1_555
C11_2 C10_2 1_555 1_555
C12_2 C11_2 1_555 1_555
H7_2 C12_2 1_555 1_555
C13_2 C12_2 1_555 1_555
H8_2 C13_2 1_555 1_555
N5 C9_2 1_555 1_555
N2_2 C8_2 1_555 1_555
O1_2 C1_2 1_555 1_555
O2_2 C1_2 1_555 1_555
O6_2 C8_2 1_555 1_555
H17_2 N2_2 1_555 1_555
C6_2 C7_2 1_555 1_555
C11_2 N2_2 1_555 1_555
C13_2 N5 1_555 1_555
C1_3 C2_3 1_555 1_555
C2_3 C3_3 1_555 1_555
C3_3 H1_3 1_555 1_555
C4_3 C3_3 1_555 1_555
H2_3 C4_3 1_555 1_555
C5_3 C4_3 1_555 1_555
C6_3 C5_3 1_555 1_555
C7_3 C2_3 1_555 1_555
H4_3 C7_3 1_555 1_555
C8_3 C5_3 1_555 1_555
C10_3 C9_3 1_555 1_555
C11_3 C10_3 1_555 1_555
C12_3 C11_3 1_555 1_555
H7_3 C12_3 1_555 1_555
C13_3 C12_3 1_555 1_555
H8_3 C13_3 1_555 1_555
C14_3 C15_3 1_555 1_555
C15_3 C16_3 1_555 1_555
C16_3 H9_3 1_555 1_555
C17_3 C16_3 1_555 1_555
H10_3 C17_3 1_555 1_555
C18_3 C17_3 1_555 1_555
C19_3 C18_3 1_555 1_555
C20_3 C15_3 1_555 1_555
C21_3 C18_3 1_555 1_555
C22_3 C23_3 1_555 1_555
C23_3 H13_3 1_555 1_555
C24_3 C23_3 1_555 1_555
H14_3 C24_3 1_555 1_555
C26_3 C22_3 1_555 1_555
H16_3 C26_3 1_555 1_555
N1_2 C9_3 1_555 1_555
N2_3 C8_3 1_555 1_555
N4_3 C21_3 1_555 1_555
O1_3 C1_3 1_555 1_555
O7 C1_3 1_555 1_555
O3_3 C14_3 1_555 1_555
O4_3 C14_3 1_555 1_555
O5_3 C21_3 1_555 1_555
O6_3 C8_3 1_555 1_555
Cu4 O1_3 1_555 1_555
H17_3 N2_3 1_555 1_555
H18_3 N4_3 1_555 1_555
N5_2 Cu4 1_555 1_555
N6_2 Cu4 1_555 1_555
C6_3 C7_3 1_555 1_555
C11_3 N2_3 1_555 1_555
C13_3 N1_2 1_555 1_555
C19_3 C20_3 1_555 1_555
C22_3 N4_3 1_555 1_555
O3_3 Cu4 1_555 1_555
C25_3 H15_3 1_555 1_555
Cu4_2 N3_2 1_555 1_555
C25_3 N3_2 1_555 1_555
C1_4 C2_4 1_555 1_555
C2_4 C3_4 1_555 1_555
C3_4 H1_4 1_555 1_555
C4_4 C3_4 1_555 1_555
H2_4 C4_4 1_555 1_555
C5_4 C4_4 1_555 1_555
C6_4 C5_4 1_555 1_555
H3_3 C6_4 1_555 1_555
C7_4 C2_4 1_555 1_555
H4_4 C7_4 1_555 1_555
C8_4 C5_4 1_555 1_555
C9_4 H5_3 1_555 1_555
C10_4 C9_4 1_555 1_555
H6_3 C10_4 1_555 1_555
C11_4 C10_4 1_555 1_555
C12_4 C11_4 1_555 1_555
H7_4 C12_4 1_555 1_555
C13_4 C12_4 1_555 1_555
H8_4 C13_4 1_555 1_555
N5_2 C9_4 1_555 1_555
N2_4 C8_4 1_555 1_555
O1_4 C1_4 1_555 1_555
O7_2 C1_4 1_555 1_555
O6_4 C8_4 1_555 1_555
H17_4 N2_4 1_555 1_555
C6_4 C7_4 1_555 1_555
C11_4 N2_4 1_555 1_555
C13_4 N5_2 1_555 1_555
C14_4 C15_4 1_555 1_555
C15_4 C16_4 1_555 1_555
C16_4 H9_4 1_555 1_555
C17_4 C16_4 1_555 1_555
H10_4 C17_4 1_555 1_555
C18_4 C17_4 1_555 1_555
C19_4 C18_4 1_555 1_555
H11_3 C19_4 1_555 1_555
C20_4 C15_4 1_555 1_555
H12_3 C20_4 1_555 1_555
C21_4 C18_4 1_555 1_555
C22_4 C23_4 1_555 1_555
C23_4 H13_4 1_555 1_555
C24_4 C23_4 1_555 1_555
H14_4 C24_4 1_555 1_555
C25_4 H15_4 1_555 1_555
C26_4 C22_4 1_555 1_555
H16_4 C26_4 1_555 1_555
N6_2 C24_4 1_555 1_555
N4_4 C21_4 1_555 1_555
O3_4 C14_4 1_555 1_555
O4_4 C14_4 1_555 1_555
O5_4 C21_4 1_555 1_555
H18_4 N4_4 1_555 1_555
C19_4 C20_4 1_555 1_555
C22_4 N4_4 1_555 1_555
C25_4 C26_4 1_555 1_555
C25_4 N6_2 1_555 1_555
O3_4 Cu4_2 1_555 1_555

#END
