
###############################################################################
#
# This file contains modified crystal structure data generated from the
# MOF subset of the Cambridge Structural Database (CSD) v543 
# hosted by the Cambridge Crystallographic Data Centre (CCDC).
#
# This work is licensed under the Creative Commons
# Attribution-NonCommercial-ShareAlike 4.0 International License.
# To view a copy of this license, visit
# http://creativecommons.org/licenses/by-nc-sa/4.0/
# or send a letter to
# Creative Commons, PO Box 1866, Mountain View, CA 94042, USA.
#
# CIF created using the CSD Python API on 29 September 2022
# The structure has been converted into the P1 space group
# The structure has a 3D framework
# The original CSD entry WUSSAG is in the monoclinic crystal system
# The original CSD entry WUSSAG is in a Sohncke space group
# The framework has been calculated to contain at least 10.0% void space
# The void calculation uses a probe of radius 1.32A, grid spacing 0.4
#
###############################################################################

data_WUSSAG
_chemical_formula_moiety         '(C68 H44 N8 O19 Zn4)n'
_symmetry_cell_setting           triclinic
_symmetry_space_group_name_H-M   'P 1'
_symmetry_Int_Tables_number      1
_space_group_name_Hall           'P 1'
loop_
_symmetry_equiv_pos_site_id
_symmetry_equiv_pos_as_xyz
1 x,y,z
_cell_length_a                   8.0350(9)
_cell_length_b                   24.892(3)
_cell_length_c                   10.8856(13)
_cell_angle_alpha                90
_cell_angle_beta                 111.560(4)
_cell_angle_gamma                90
_cell_volume                     2024.87
loop_
_atom_site_label
_atom_site_type_symbol
_atom_site_fract_x
_atom_site_fract_y
_atom_site_fract_z
H10 H 0.0591 0.3908 0.0175
C20 C 0.0903(10) 0.2854(3) 0.9384(7)
C21 C 0.1424(8) 0.2308(2) 0.9004(6)
C22 C 0.0692(9) 0.1820(3) 0.9192(6)
C23 C 0.1314(7) 0.1343(2) 0.8859(5)
H12 H 0.0800 0.1019 0.8954
C24 C 0.2701(7) 0.1347(2) 0.8385(5)
C25 C 0.3371(9) 0.1825(3) 0.8181(7)
H13 H 0.4267 0.1831 0.7832
C26 C 0.2724(10) 0.2313(2) 0.8493(7)
H14 H 0.3193 0.2638 0.8348
C33 C 0.3439(8) 0.0831(2) 0.8082(5)
O2 O 0.2766(4) 0.03983(16) 0.8276(3)
O7 O 0.4689(5) 0.08644(16) 0.7673(4)
O8 O 0.1625(10) 0.3258(2) 0.9223(8)
Zn8 Zn 0.61303(6) 0.03367(2) 0.69558(4)
C3 C 0.1400(6) 0.0328(3) 0.2779(4)
H1 H 0.2417 0.0543 0.3029
C4 C 0.1048(6) 0.00202(19) 0.3723(4)
C5 C 0.2360(6) 0.00061(18) 0.5127(4)
C31 C 0.0255(6) 0.0316(3) 0.1479(4)
H19 H 0.0518 0.0519 0.0857
O5 O 0.3816(4) 0.02375(15) 0.5353(3)
C1 C 0.7408(6) 0.00140(18) 0.9688(4)
C8 C 0.6641(8) 0.1396(2) 0.6041(7)
H4 H 0.5639 0.1463 0.6252
C9 C 0.7395(8) 0.1813(2) 0.5618(7)
H5 H 0.6922 0.2157 0.5565
C10 C 0.8868(6) 0.1724(2) 0.5265(5)
H7 H 0.9871 0.3201 0.4576
C29 C 0.8673(7) 0.0807(2) 0.5795(5)
H17 H 0.9119 0.0459 0.5855
C30 C 0.9470(7) 0.1197(2) 0.5335(5)
N1 N 0.7289(5) 0.08918(17) 0.6167(4)
N2 N 0.9601(6) 0.2169(2) 0.4868(6)
O3 O 0.7863(4) 0.02682(19) 0.8857(3)
H21 H 0.911(7) 0.246(3) 0.491(5)
Zn5 Zn 0.36495(6) 0.96886(2) 0.78531(4)
C11 C 0.9070(8) 0.7168(2) 0.5643(6)
C12 C 0.8520(8) 0.7712(2) 0.5943(6)
C13 C 0.7146(6) 0.8676(2) 0.6467(5)
C14 C 0.8519(7) 0.8680(2) 0.6005(5)
H6 H 0.8996 0.9004 0.5866
C15 C 0.9201(8) 0.8196(3) 0.5741(6)
C16 C 0.7154(8) 0.7718(2) 0.6447(7)
H8 H 0.6693 0.7395 0.6612
C17 C 0.6491(8) 0.8185(3) 0.6700(6)
H9 H 0.5580 0.8178 0.7035
H18 H 0.9586 0.6112 0.4932
C32 C 0.6354(7) 0.9192(2) 0.6764(5)
O6 O 0.5091(6) 0.91575(16) 0.7150(4)
O9 O 0.7036(4) 0.96254(16) 0.6544(3)
O10 O 0.8411(9) 0.6758(2) 0.5841(8)
O1 O 0.1903(4) 0.97624(17) 0.5959(3)
C18 C 0.0350(8) 0.8826(3) 0.9552(6)
C19 C 0.1039(7) 0.8307(2) 0.9646(5)
C27 C 0.2507(10) 0.8213(3) 0.9277(8)
H15 H 0.3009 0.7872 0.9350
C28 C 0.1148(8) 0.9219(2) 0.9026(6)
H16 H 0.0685 0.9565 0.8937
C34 C 0.3181(9) 0.8632(3) 0.8808(8)
H20 H 0.4175 0.8567 0.8586
N3 N 0.2525(6) 0.91321(18) 0.8641(4)
O4 O 0.5951(4) 0.97800(16) 0.9470(3)
C1_2 C 0.2592(6) 0.50140(18) 0.0312(4)
C8_2 C 0.3359(8) 0.6396(2) 0.3959(7)
H4_2 H 0.4361 0.6463 0.3748
C9_2 C 0.2605(8) 0.6813(2) 0.4382(7)
H5_2 H 0.3078 0.7157 0.4435
C10_2 C 0.1132(6) 0.6724(2) 0.4735(5)
H7_2 H 0.0129 0.8201 0.5424
C18_2 C 0.9650(8) 0.3826(3) 0.0448(6)
C19_2 C 0.8961(7) 0.3307(2) 0.0354(5)
C27_2 C 0.7493(10) 0.3213(3) 0.0723(8)
H15_2 H 0.6991 0.2872 0.0650
C28_2 C 0.8852(8) 0.4219(2) 0.0974(6)
H16_2 H 0.9315 0.4565 0.1063
C29_2 C 0.1327(7) 0.5807(2) 0.4205(5)
H17_2 H 0.0881 0.5459 0.4145
C30_2 C 0.0530(7) 0.6197(2) 0.4665(5)
C34_2 C 0.6819(9) 0.3632(3) 0.1192(8)
H20_2 H 0.5825 0.3567 0.1414
N1_2 N 0.2711(5) 0.58918(17) 0.3833(4)
N2_2 N 0.0399(6) 0.7169(2) 0.5132(6)
N3_2 N 0.7475(6) 0.41321(18) 0.1359(4)
O3_2 O 0.2137(4) 0.52682(19) 0.1143(3)
O4_2 O 0.4049(4) 0.47800(16) 0.0530(3)
Zn1 Zn 0.63505(6) 0.46886(2) 0.21469(4)
Zn2 Zn 0.38697(6) 0.53367(2) 0.30442(4)
H21_2 H 0.089(7) 0.746(3) 0.509(5)
O11 O 0.8097(4) 0.47624(17) 0.4041(3)
O12 O 0.7234(4) 0.53983(16) 0.1724(3)
O13 O 0.6184(4) 0.52375(15) 0.4647(3)
O14 O 0.4909(6) 0.41575(16) 0.2850(4)
O15 O 0.5311(5) 0.58644(16) 0.2327(4)
O16 O 0.2964(4) 0.46254(16) 0.3456(3)
C3_2 C 0.8600(6) 0.5328(3) 0.7221(4)
H1_2 H 0.7583 0.5543 0.6971
C4_2 C 0.8952(6) 0.50202(19) 0.6277(4)
C5_2 C 0.7640(6) 0.50061(18) 0.4873(4)
C31_2 C 0.9745(6) 0.5316(3) 0.8521(4)
H19_2 H 0.9482 0.5519 0.9143
C11_2 C 0.0930(8) 0.2168(2) 0.4357(6)
C12_2 C 0.1480(8) 0.2712(2) 0.4057(6)
C13_2 C 0.2854(6) 0.3676(2) 0.3533(5)
C14_2 C 0.1481(7) 0.3680(2) 0.3995(5)
H6_2 H 0.1004 0.4004 0.4134
C15_2 C 0.0799(8) 0.3196(3) 0.4259(6)
C16_2 C 0.2846(8) 0.2718(2) 0.3553(7)
H8_2 H 0.3307 0.2395 0.3388
C17_2 C 0.3509(8) 0.3185(3) 0.3300(6)
H9_2 H 0.4420 0.3178 0.2965
H18_2 H 0.0414 0.1112 0.5068
C32_2 C 0.3646(7) 0.4192(2) 0.3236(5)
O10_2 O 0.1589(9) 0.1758(2) 0.4159(8)
C20_2 C 0.9097(10) 0.7854(3) 0.0616(7)
C21_2 C 0.8576(8) 0.7308(2) 0.0996(6)
C22_2 C 0.9308(9) 0.6820(3) 0.0808(6)
C23_2 C 0.8686(7) 0.6343(2) 0.1141(5)
H12_2 H 0.9200 0.6019 0.1046
C24_2 C 0.7299(7) 0.6347(2) 0.1615(5)
C25_2 C 0.6629(9) 0.6825(3) 0.1819(7)
H13_2 H 0.5733 0.6831 0.2168
C26_2 C 0.7276(10) 0.7313(2) 0.1507(7)
H14_2 H 0.6807 0.7638 0.1652
C33_2 C 0.6561(8) 0.5831(2) 0.1918(5)
O8_2 O 0.8375(10) 0.8258(2) 0.0777(8)
C2 C 0.1286(6) 0.50059(19) 0.8916(4)
C6 C 0.0492(6) 0.4711(3) 0.6667(4)
H2 H 0.0749 0.4506 0.6044
C7 C 0.1647(6) 0.4701(3) 0.7967(4)
H3 H 0.2675 0.4491 0.8213
H11 H 0.9792 0.1815 0.9538
N4 N 0.9646(7) 0.2855(2) 0.9913(6)
H22 H 0.911(7) 0.257(3) 0.997(5)
C2_2 C 0.8714(6) 0.00059(19) 0.1084(4)
C6_2 C 0.9508(6) 0.9711(3) 0.3333(4)
H2_2 H 0.9251 0.9506 0.3956
C7_2 C 0.8353(6) 0.9701(3) 0.2033(4)
H3_2 H 0.7325 0.9491 0.1787
H11_2 H 0.0208 0.6815 0.0462
N4_2 N 0.0354(7) 0.7855(2) 0.0087(6)
H22_2 H 0.089(7) 0.757(3) 0.003(5)
H10_2 H 0.9409 0.8908 0.9825
loop_
_geom_bond_atom_site_label_1
_geom_bond_atom_site_label_2
_geom_bond_site_symmetry_1
_geom_bond_site_symmetry_2
C20 C21 1_555 1_555
C21 C22 1_555 1_555
C23 C22 1_555 1_555
H12 C23 1_555 1_555
C24 C23 1_555 1_555
C25 C24 1_555 1_555
H13 C25 1_555 1_555
C26 C21 1_555 1_555
H14 C26 1_555 1_555
C33 C24 1_555 1_555
O2 C33 1_555 1_555
O7 C33 1_555 1_555
O8 C20 1_555 1_555
Zn8 O7 1_555 1_555
C25 C26 1_555 1_555
C3 H1 1_555 1_555
C4 C3 1_555 1_555
C5 C4 1_555 1_555
H19 C31 1_555 1_555
O5 C5 1_555 1_555
Zn8 O5 1_555 1_555
C3 C31 1_555 1_555
C8 H4 1_555 1_555
C9 C8 1_555 1_555
H5 C9 1_555 1_555
C10 C9 1_555 1_555
C29 H17 1_555 1_555
C30 C10 1_555 1_555
N1 C8 1_555 1_555
N2 C10 1_555 1_555
O3 C1 1_555 1_555
Zn8 N1 1_555 1_555
H21 N2 1_555 1_555
C29 C30 1_555 1_555
C29 N1 1_555 1_555
O3 Zn8 1_555 1_555
C11 C12 1_555 1_555
C12 C15 1_555 1_555
C13 C14 1_555 1_555
C14 H6 1_555 1_555
C15 C14 1_555 1_555
C16 C12 1_555 1_555
H8 C16 1_555 1_555
C17 C13 1_555 1_555
H9 C17 1_555 1_555
C32 C13 1_555 1_555
O6 C32 1_555 1_555
O9 C32 1_555 1_555
O10 C11 1_555 1_555
Zn5 O6 1_555 1_555
C16 C17 1_555 1_555
Zn5 O1 1_555 1_555
C19 C18 1_555 1_555
C27 C19 1_555 1_555
H15 C27 1_555 1_555
C28 C18 1_555 1_555
H16 C28 1_555 1_555
C34 C27 1_555 1_555
H20 C34 1_555 1_555
N3 C28 1_555 1_555
Zn5 N3 1_555 1_555
C34 N3 1_555 1_555
O4 Zn5 1_555 1_555
C8_2 H4_2 1_555 1_555
C9_2 C8_2 1_555 1_555
H5_2 C9_2 1_555 1_555
C10_2 C9_2 1_555 1_555
C19_2 C18_2 1_555 1_555
C27_2 C19_2 1_555 1_555
H15_2 C27_2 1_555 1_555
C28_2 C18_2 1_555 1_555
H16_2 C28_2 1_555 1_555
C29_2 H17_2 1_555 1_555
C30_2 C10_2 1_555 1_555
C34_2 C27_2 1_555 1_555
H20_2 C34_2 1_555 1_555
N1_2 C8_2 1_555 1_555
N2_2 C10_2 1_555 1_555
N3_2 C28_2 1_555 1_555
O3_2 C1_2 1_555 1_555
O4_2 C1_2 1_555 1_555
Zn1 N3_2 1_555 1_555
Zn2 N1_2 1_555 1_555
H21_2 N2_2 1_555 1_555
O11 Zn1 1_555 1_555
O12 Zn1 1_555 1_555
O13 Zn2 1_555 1_555
O14 Zn1 1_555 1_555
O15 Zn2 1_555 1_555
O16 Zn2 1_555 1_555
C29_2 C30_2 1_555 1_555
C29_2 N1_2 1_555 1_555
C34_2 N3_2 1_555 1_555
O3_2 Zn2 1_555 1_555
O4_2 Zn1 1_555 1_555
C3_2 H1_2 1_555 1_555
C4_2 C3_2 1_555 1_555
C5_2 C4_2 1_555 1_555
H19_2 C31_2 1_555 1_555
O11 C5_2 1_555 1_555
O13 C5_2 1_555 1_555
C3_2 C31_2 1_555 1_555
C11_2 C12_2 1_555 1_555
C12_2 C15_2 1_555 1_555
C13_2 C14_2 1_555 1_555
C14_2 H6_2 1_555 1_555
C15_2 C14_2 1_555 1_555
C16_2 C12_2 1_555 1_555
H8_2 C16_2 1_555 1_555
C17_2 C13_2 1_555 1_555
H9_2 C17_2 1_555 1_555
C32_2 C13_2 1_555 1_555
O14 C32_2 1_555 1_555
O16 C32_2 1_555 1_555
O10_2 C11_2 1_555 1_555
C16_2 C17_2 1_555 1_555
C20_2 C21_2 1_555 1_555
C21_2 C22_2 1_555 1_555
C23_2 C22_2 1_555 1_555
H12_2 C23_2 1_555 1_555
C24_2 C23_2 1_555 1_555
C25_2 C24_2 1_555 1_555
H13_2 C25_2 1_555 1_555
C26_2 C21_2 1_555 1_555
H14_2 C26_2 1_555 1_555
C33_2 C24_2 1_555 1_555
O12 C33_2 1_555 1_555
O15 C33_2 1_555 1_555
O8_2 C20_2 1_555 1_555
C25_2 C26_2 1_555 1_555
C2 C7 1_555 1_555
H2 C6 1_555 1_555
C7 C6 1_555 1_555
H3 C7 1_555 1_555
H22 N4 1_555 1_555
H2_2 C6_2 1_555 1_555
C7_2 C6_2 1_555 1_555
H3_2 C7_2 1_555 1_555
H22_2 N4_2 1_555 1_555

#END
