
###############################################################################
#
# This file contains modified crystal structure data generated from the
# MOF subset of the Cambridge Structural Database (CSD) v543 
# hosted by the Cambridge Crystallographic Data Centre (CCDC).
#
# This work is licensed under the Creative Commons
# Attribution-NonCommercial-ShareAlike 4.0 International License.
# To view a copy of this license, visit
# http://creativecommons.org/licenses/by-nc-sa/4.0/
# or send a letter to
# Creative Commons, PO Box 1866, Mountain View, CA 94042, USA.
#
# CIF created using the CSD Python API on 29 September 2022
# The structure has been converted into the P1 space group
# The structure has a 3D framework
# The original CSD entry WUYWAQ is in the triclinic crystal system
# The framework has been calculated to contain at least 10.0% void space
# The void calculation uses a probe of radius 1.32A, grid spacing 0.4
#
###############################################################################

data_WUYWAQ
_chemical_formula_moiety         '(C88 H60 Cd6 O21)n'
_symmetry_cell_setting           triclinic
_symmetry_space_group_name_H-M   'P 1'
_symmetry_Int_Tables_number      1
_space_group_name_Hall           'P 1'
loop_
_symmetry_equiv_pos_site_id
_symmetry_equiv_pos_as_xyz
1 x,y,z
_cell_length_a                   15.277(2)
_cell_length_b                   16.131(2)
_cell_length_c                   17.297(3)
_cell_angle_alpha                67.016(3)
_cell_angle_beta                 81.847(3)
_cell_angle_gamma                62.703(2)
_cell_volume                     3483.56
loop_
_atom_site_label
_atom_site_type_symbol
_atom_site_fract_x
_atom_site_fract_y
_atom_site_fract_z
Cd1 Cd 0.0000 0.0000 0.0000
O35 O 0.0024(3) 0.1322(4) 0.0202(3)
Cd1_2 Cd 0.0000 0.0000 1.0000
O33 O 0.0738(3) 0.0089(3) 0.87305(19)
Cd1_3 Cd 0.0000 1.0000 0.0000
H37 H 0.0248 0.6060 0.1306
C80 C 0.0087(6) 0.7781(7) 0.0144(4)
C88 C 0.0318(4) 0.0246(5) 0.8076(3)
O25 O 0.1468(3) 0.9068(4) 0.0678(2)
Cd1_4 Cd 0.0000 1.0000 1.0000
O23 O 0.0783(4) 0.7090(4) 0.9932(3)
Cd12 Cd 0.14218(3) 0.82434(4) 0.90102(3)
O27 O 0.2282(4) 0.7869(4) 0.0116(3)
O24 O 0.0400(3) 0.9519(3) 0.7872(2)
O29 O 0.2725(4) 0.8365(4) 0.8130(4)
O31 O 0.2624(4) 0.6966(4) 0.8630(3)
Cd1_5 Cd 1.0000 0.0000 0.0000
Cd9 Cd 0.85782(3) 0.17566(4) 0.09898(3)
C1 C 0.6896(5) 0.2131(6) 0.8804(4)
C2 C 0.5987(4) 0.2724(5) 0.9010(4)
H1 H 0.5932 0.2905 0.9470
C3 C 0.5167(5) 0.3049(5) 0.8547(4)
H2 H 0.4554 0.3428 0.8709
C4 C 0.5219(4) 0.2832(5) 0.7845(3)
C5 C 0.6143(6) 0.2327(9) 0.7610(4)
H3 H 0.6210 0.2235 0.7103
C6 C 0.6979(5) 0.1950(8) 0.8093(4)
H4 H 0.7595 0.1574 0.7931
C7 C 0.4306(5) 0.3109(5) 0.7376(4)
C8 C 0.4148(5) 0.3576(5) 0.6518(4)
C9 C 0.3304(5) 0.3765(5) 0.6126(4)
C10 C 0.2587(5) 0.3526(5) 0.6613(4)
C11 C 0.2719(5) 0.3076(5) 0.7496(4)
C12 C 0.3571(5) 0.2879(5) 0.7842(4)
H5 H 0.3668 0.2574 0.8424
C13 C 0.1971(4) 0.2862(5) 0.8061(3)
C14 C 0.1037(5) 0.3614(5) 0.8084(4)
H6 H 0.0857 0.4263 0.7693
C15 C 0.0361(5) 0.3421(6) 0.8676(4)
C16 C 0.0607(5) 0.2460(5) 0.9228(4)
C17 C 0.1512(5) 0.1687(5) 0.9187(4)
H8 H 0.1666 0.1025 0.9533
C18 C 0.2182(5) 0.1917(5) 0.8621(4)
H9 H 0.2804 0.1402 0.8625
C19 C 0.3170(4) 0.4235(4) 0.5179(3)
C20 C 0.3830(4) 0.3734(4) 0.4692(4)
C21 C 0.3758(4) 0.4204(5) 0.3808(3)
C22 C 0.3006(4) 0.5150(4) 0.3450(4)
H10 H 0.2948 0.5455 0.2867
C23 C 0.2324(4) 0.5675(4) 0.3918(3)
C24 C 0.2425(4) 0.5194(5) 0.4793(3)
C25 C 0.4554(4) 0.3742(5) 0.3274(4)
C26 C 0.4930(5) 0.2737(5) 0.3376(4)
H11 H 0.4663 0.2331 0.3761
C27 C 0.5707(5) 0.2345(5) 0.2898(4)
H12 H 0.5977 0.1668 0.2981
C28 C 0.6090(4) 0.2968(5) 0.2287(4)
C29 C 0.5642(5) 0.3972(5) 0.2148(4)
H13 H 0.5854 0.4400 0.1722
C30 C 0.4885(6) 0.4355(5) 0.2626(4)
H14 H 0.4586 0.5041 0.2513
C31 C 0.4989(5) 0.4489(5) 0.6063(4)
H15 H 0.5059 0.4369 0.6645
H16 H 0.4445 0.5132 0.5800
H17 H 0.5583 0.4480 0.5789
C32 C 0.1613(5) 0.2877(5) 0.6289(4)
H18 H 0.1158 0.3071 0.5850
H19 H 0.1356 0.2636 0.6826
H20 H 0.2236 0.2355 0.6238
C33 C 0.0779(5) 0.5966(6) 0.5228(4)
H21 H 0.0467 0.6018 0.5740
H22 H 0.0709 0.5463 0.5112
H23 H 0.0475 0.6601 0.4773
C34 C 0.4338(7) 0.2022(6) 0.5485(5)
H24 H 0.4628 0.1540 0.5217
H25 H 0.3633 0.2286 0.5455
H26 H 0.4569 0.1701 0.6064
C35 C 0.7814(4) 0.1696(5) 0.9398(4)
C37 C 0.0330(4) 0.8686(5) 0.2485(3)
C38 C 0.0835(5) 0.8501(5) 0.3194(4)
H27 H 0.0765 0.9025 0.3339
C39 C 0.1447(5) 0.7507(5) 0.3675(3)
H28 H 0.1767 0.7370 0.4160
C40 C 0.1597(5) 0.6704(5) 0.3450(3)
C41 C 0.1071(5) 0.6932(5) 0.2754(4)
H29 H 0.1147 0.6415 0.2596
C42 C 0.0425(5) 0.7920(5) 0.2277(4)
H30 H 0.0062 0.8052 0.1819
C43 C 0.6971(6) 0.2499(6) 0.1818(4)
O1 O 0.4833(3) 0.3827(3) 0.6007(3)
O2 O 0.1746(3) 0.3729(3) 0.6220(2)
O3 O 0.1820(3) 0.5687(3) 0.5315(2)
O4 O 0.4610(3) 0.2814(3) 0.5073(2)
O5 O 0.8532(3) 0.0932(4) 0.9322(2)
O6 O 0.7718(4) 0.2131(4) 0.9884(3)
O7 O 0.7275(4) 0.1635(4) 0.1870(4)
O8 O 0.7376(4) 0.3034(4) 0.1370(3)
Cd1_6 Cd 1.0000 0.0000 1.0000
Cd1_7 Cd 1.0000 1.0000 0.0000
C45 C 0.3104(5) 0.7869(6) 0.1196(4)
C46 C 0.4013(4) 0.7276(5) 0.0990(4)
H31 H 0.4068 0.7095 0.0530
C47 C 0.4833(5) 0.6951(5) 0.1453(4)
H32 H 0.5446 0.6572 0.1291
C48 C 0.4781(4) 0.7168(5) 0.2155(3)
C49 C 0.3857(6) 0.7673(9) 0.2390(4)
H33 H 0.3790 0.7765 0.2897
C50 C 0.3021(5) 0.8050(8) 0.1907(4)
H34 H 0.2405 0.8426 0.2069
C51 C 0.5694(5) 0.6891(5) 0.2624(4)
C52 C 0.5852(5) 0.6424(5) 0.3482(4)
C53 C 0.6696(5) 0.6235(5) 0.3874(4)
C54 C 0.7413(5) 0.6474(5) 0.3387(4)
C55 C 0.7281(5) 0.6924(5) 0.2504(4)
C56 C 0.6429(5) 0.7121(5) 0.2158(4)
H35 H 0.6332 0.7426 0.1576
C57 C 0.8029(4) 0.7138(5) 0.1939(3)
C58 C 0.8963(5) 0.6386(5) 0.1916(4)
H36 H 0.9143 0.5737 0.2307
C59 C 0.9639(5) 0.6579(6) 0.1324(4)
C60 C 0.9393(5) 0.7540(5) 0.0772(4)
C61 C 0.8488(5) 0.8313(5) 0.0813(4)
H38 H 0.8334 0.8975 0.0467
C62 C 0.7818(5) 0.8083(5) 0.1379(4)
H39 H 0.7196 0.8598 0.1375
C63 C 0.6830(4) 0.5765(4) 0.4821(3)
C64 C 0.6170(4) 0.6266(4) 0.5308(4)
C65 C 0.6242(4) 0.5796(5) 0.6192(3)
C66 C 0.6994(4) 0.4850(4) 0.6550(4)
H40 H 0.7052 0.4545 0.7133
C67 C 0.7676(4) 0.4325(4) 0.6082(3)
C68 C 0.7575(4) 0.4806(5) 0.5207(3)
C69 C 0.5446(4) 0.6258(5) 0.6726(4)
C70 C 0.5070(5) 0.7263(5) 0.6624(4)
H41 H 0.5337 0.7669 0.6239
C71 C 0.4293(5) 0.7655(5) 0.7102(4)
H42 H 0.4023 0.8332 0.7019
C72 C 0.3910(4) 0.7032(5) 0.7713(4)
C73 C 0.4358(5) 0.6028(5) 0.7852(4)
H43 H 0.4146 0.5600 0.8278
C74 C 0.5115(6) 0.5645(5) 0.7374(4)
H44 H 0.5414 0.4959 0.7487
C75 C 0.5011(5) 0.5511(5) 0.3937(4)
H45 H 0.4941 0.5631 0.3355
H46 H 0.5555 0.4868 0.4200
H47 H 0.4417 0.5520 0.4211
C76 C 0.8387(5) 0.7123(5) 0.3711(4)
H48 H 0.8842 0.6929 0.4150
H49 H 0.8644 0.7364 0.3174
H50 H 0.7764 0.7645 0.3762
C77 C 0.9221(5) 0.4034(6) 0.4772(4)
H51 H 0.9533 0.3982 0.4260
H52 H 0.9291 0.4537 0.4888
H53 H 0.9525 0.3399 0.5227
C78 C 0.5662(7) 0.7978(6) 0.4515(5)
H54 H 0.5372 0.8460 0.4783
H55 H 0.6367 0.7714 0.4545
H56 H 0.5431 0.8299 0.3936
C79 C 0.2186(4) 0.8304(5) 0.0602(4)
C81 C 0.9670(4) 0.1314(5) 0.7515(3)
C82 C 0.9165(5) 0.1499(5) 0.6806(4)
H57 H 0.9235 0.0975 0.6661
C83 C 0.8553(5) 0.2493(5) 0.6325(3)
H58 H 0.8233 0.2630 0.5840
C84 C 0.8403(5) 0.3296(5) 0.6550(3)
C85 C 0.8929(5) 0.3068(5) 0.7246(4)
H59 H 0.8853 0.3585 0.7404
C86 C 0.9575(5) 0.2080(5) 0.7723(4)
H60 H 0.9938 0.1948 0.8181
C87 C 0.3029(6) 0.7501(6) 0.8182(4)
O13 O 0.5167(3) 0.6173(3) 0.3993(3)
O14 O 0.8254(3) 0.6271(3) 0.3780(2)
O15 O 0.8180(3) 0.4313(3) 0.4685(2)
O16 O 0.5390(3) 0.7186(3) 0.4927(2)
O32 O 0.9262(3) 0.9911(3) 0.12695(19)
Cd1_8 Cd 1.0000 1.0000 1.0000
O22 O 0.9976(3) 0.8678(4) 0.9798(3)
O12 O 0.9600(3) 0.0481(3) 0.2128(2)
O37 O 0.9217(4) 0.2910(4) 0.0068(3)
H7 H 0.9752 0.3940 0.8694
C36 C 0.9913(6) 0.2219(7) 0.9856(4)
C44 C 0.9682(4) 0.9754(5) 0.1924(3)
loop_
_geom_bond_atom_site_label_1
_geom_bond_atom_site_label_2
_geom_bond_site_symmetry_1
_geom_bond_site_symmetry_2
O35 Cd1 1_555 1_555
O33 Cd1_2 1_555 1_555
O33 C88 1_555 1_555
O25 Cd1_3 1_555 1_555
O23 Cd12 1_555 1_555
O29 Cd12 1_555 1_555
O31 Cd12 1_555 1_555
O24 Cd12 1_555 1_555
C1 C2 1_555 1_555
C2 H1 1_555 1_555
C3 C2 1_555 1_555
H2 C3 1_555 1_555
C4 C3 1_555 1_555
C5 C4 1_555 1_555
H3 C5 1_555 1_555
C6 C1 1_555 1_555
H4 C6 1_555 1_555
C7 C4 1_555 1_555
C8 C7 1_555 1_555
C9 C8 1_555 1_555
C10 C9 1_555 1_555
C11 C10 1_555 1_555
C12 C7 1_555 1_555
H5 C12 1_555 1_555
C13 C11 1_555 1_555
C14 C13 1_555 1_555
H6 C14 1_555 1_555
C15 C14 1_555 1_555
C16 C15 1_555 1_555
C17 C16 1_555 1_555
H8 C17 1_555 1_555
C18 C13 1_555 1_555
H9 C18 1_555 1_555
C19 C9 1_555 1_555
C20 C19 1_555 1_555
C21 C20 1_555 1_555
C22 C21 1_555 1_555
H10 C22 1_555 1_555
C23 C22 1_555 1_555
C24 C19 1_555 1_555
C25 C21 1_555 1_555
C26 C25 1_555 1_555
H11 C26 1_555 1_555
C27 C26 1_555 1_555
H12 C27 1_555 1_555
C28 C27 1_555 1_555
C29 C28 1_555 1_555
H13 C29 1_555 1_555
C30 C25 1_555 1_555
H14 C30 1_555 1_555
C31 H15 1_555 1_555
H16 C31 1_555 1_555
H17 C31 1_555 1_555
C32 H18 1_555 1_555
H19 C32 1_555 1_555
H20 C32 1_555 1_555
C33 H21 1_555 1_555
H22 C33 1_555 1_555
H23 C33 1_555 1_555
C34 H24 1_555 1_555
H25 C34 1_555 1_555
H26 C34 1_555 1_555
C35 C1 1_555 1_555
C37 C38 1_555 1_555
C38 H27 1_555 1_555
C39 C38 1_555 1_555
H28 C39 1_555 1_555
C40 C23 1_555 1_555
C41 C40 1_555 1_555
H29 C41 1_555 1_555
C42 C37 1_555 1_555
H30 C42 1_555 1_555
C43 C28 1_555 1_555
O1 C8 1_555 1_555
O2 C10 1_555 1_555
O3 C24 1_555 1_555
O4 C20 1_555 1_555
O5 C35 1_555 1_555
O6 C35 1_555 1_555
O7 C43 1_555 1_555
O8 C43 1_555 1_555
Cd1_6 O5 1_555 1_555
Cd9 O7 1_555 1_555
C5 C6 1_555 1_555
C11 C12 1_555 1_555
C17 C18 1_555 1_555
C23 C24 1_555 1_555
C29 C30 1_555 1_555
C31 O1 1_555 1_555
C32 O2 1_555 1_555
C33 O3 1_555 1_555
C34 O4 1_555 1_555
C39 C40 1_555 1_555
C41 C42 1_555 1_555
O8 Cd9 1_555 1_555
C45 C46 1_555 1_555
C46 H31 1_555 1_555
C47 C46 1_555 1_555
H32 C47 1_555 1_555
C48 C47 1_555 1_555
C49 C48 1_555 1_555
H33 C49 1_555 1_555
C50 C45 1_555 1_555
H34 C50 1_555 1_555
C51 C48 1_555 1_555
C52 C51 1_555 1_555
C53 C52 1_555 1_555
C54 C53 1_555 1_555
C55 C54 1_555 1_555
C56 C51 1_555 1_555
H35 C56 1_555 1_555
C57 C55 1_555 1_555
C58 C57 1_555 1_555
H36 C58 1_555 1_555
C59 C58 1_555 1_555
C60 C59 1_555 1_555
C61 C60 1_555 1_555
H38 C61 1_555 1_555
C62 C57 1_555 1_555
H39 C62 1_555 1_555
C63 C53 1_555 1_555
C64 C63 1_555 1_555
C65 C64 1_555 1_555
C66 C65 1_555 1_555
H40 C66 1_555 1_555
C67 C66 1_555 1_555
C68 C63 1_555 1_555
C69 C65 1_555 1_555
C70 C69 1_555 1_555
H41 C70 1_555 1_555
C71 C70 1_555 1_555
H42 C71 1_555 1_555
C72 C71 1_555 1_555
C73 C72 1_555 1_555
H43 C73 1_555 1_555
C74 C69 1_555 1_555
H44 C74 1_555 1_555
C75 H45 1_555 1_555
H46 C75 1_555 1_555
H47 C75 1_555 1_555
C76 H48 1_555 1_555
H49 C76 1_555 1_555
H50 C76 1_555 1_555
C77 H51 1_555 1_555
H52 C77 1_555 1_555
H53 C77 1_555 1_555
C78 H54 1_555 1_555
H55 C78 1_555 1_555
H56 C78 1_555 1_555
C79 C45 1_555 1_555
C81 C82 1_555 1_555
C82 H57 1_555 1_555
C83 C82 1_555 1_555
H58 C83 1_555 1_555
C84 C67 1_555 1_555
C85 C84 1_555 1_555
H59 C85 1_555 1_555
C86 C81 1_555 1_555
H60 C86 1_555 1_555
C87 C72 1_555 1_555
O13 C52 1_555 1_555
O14 C54 1_555 1_555
O15 C68 1_555 1_555
O16 C64 1_555 1_555
O25 C79 1_555 1_555
O27 C79 1_555 1_555
O29 C87 1_555 1_555
O31 C87 1_555 1_555
O32 Cd1_7 1_555 1_555
C49 C50 1_555 1_555
C55 C56 1_555 1_555
C61 C62 1_555 1_555
C67 C68 1_555 1_555
C73 C74 1_555 1_555
C75 O13 1_555 1_555
C76 O14 1_555 1_555
C77 O15 1_555 1_555
C78 O16 1_555 1_555
C83 C84 1_555 1_555
C85 C86 1_555 1_555
O22 Cd1_8 1_555 1_555
O37 Cd9 1_555 1_555
O12 Cd9 1_555 1_555
O32 C44 1_555 1_555

#END
