
###############################################################################
#
# This file contains modified crystal structure data generated from the
# MOF subset of the Cambridge Structural Database (CSD) v543 
# hosted by the Cambridge Crystallographic Data Centre (CCDC).
#
# This work is licensed under the Creative Commons
# Attribution-NonCommercial-ShareAlike 4.0 International License.
# To view a copy of this license, visit
# http://creativecommons.org/licenses/by-nc-sa/4.0/
# or send a letter to
# Creative Commons, PO Box 1866, Mountain View, CA 94042, USA.
#
# CIF created using the CSD Python API on 29 September 2022
# The structure has been converted into the P1 space group
# The structure has a 3D framework
# The original CSD entry WUZGEF is in the triclinic crystal system
# The framework has been calculated to contain at least 10.0% void space
# The void calculation uses a probe of radius 1.32A, grid spacing 0.4
#
###############################################################################

data_WUZGEF
_chemical_formula_moiety         '(C88 H60 Cd6 O19)n'
_symmetry_cell_setting           triclinic
_symmetry_space_group_name_H-M   'P 1'
_symmetry_Int_Tables_number      1
_space_group_name_Hall           'P 1'
loop_
_symmetry_equiv_pos_site_id
_symmetry_equiv_pos_as_xyz
1 x,y,z
_cell_length_a                   15.462(5)
_cell_length_b                   16.063(5)
_cell_length_c                   18.103(5)
_cell_angle_alpha                107.120(5)
_cell_angle_beta                 102.556(5)
_cell_angle_gamma                111.229(5)
_cell_volume                     3731.08
loop_
_atom_site_label
_atom_site_type_symbol
_atom_site_fract_x
_atom_site_fract_y
_atom_site_fract_z
Cd12 Cd 0.0000 0.0000 -0.0000
Cd12_2 Cd -0.0000 -0.0000 1.0000
Cd12_3 Cd -0.0000 1.0000 -0.0000
Cd12_4 Cd -0.0000 1.0000 1.0000
O31 O 0.1329(5) 0.1252(6) 0.0032(4)
Cd12_5 Cd 1.0000 0.0000 -0.0000
O17 O 0.0103(5) 0.0530(6) 0.7948(3)
Cd9 Cd 0.02357(6) 0.17680(6) 0.91223(3)
Cd12_6 Cd 1.0000 -0.0000 1.0000
O3 O 0.8081(6) 0.7398(7) 0.0097(4)
O26 O 0.0704(4) 0.9922(5) 0.1263(3)
Cd6 Cd 0.97643(6) 0.82320(6) 0.08777(3)
Cd12_7 Cd 1.0000 1.0000 -0.0000
C1 C 0.0572(7) 0.7523(9) 0.1822(5)
C2 C 0.0949(9) 0.7031(11) 0.2322(5)
C3 C 0.0372(10) 0.6085(11) 0.2196(5)
C4 C 0.0652(9) 0.5653(8) 0.2652(5)
H2 H 0.0245 0.5004 0.2536
C5 C 0.1608(8) 0.6212(11) 0.3337(5)
C6 C 0.2175(9) 0.7162(10) 0.3457(6)
H3 H 0.2783 0.7553 0.3897
C7 C 0.1848(7) 0.7520(8) 0.2940(5)
H4 H 0.2267 0.8147 0.3010
C8 C 0.1852(8) 0.5691(9) 0.3874(5)
C9 C 0.1669(8) 0.4728(8) 0.3491(5)
H5 H 0.1415 0.4429 0.2914
C10 C 0.1849(8) 0.4176(9) 0.3934(5)
C11 C 0.2286(8) 0.4683(9) 0.4804(5)
C12 C 0.2487(8) 0.5677(9) 0.5202(5)
C13 C 0.2278(8) 0.6158(9) 0.4751(5)
C14 C 0.1576(8) 0.7314(8) 0.5152(5)
H6 H 0.1794 0.7999 0.5455
H7 H 0.1209 0.6948 0.5410
H8 H 0.1156 0.7108 0.4591
C15 C 0.3259(8) 0.3948(8) 0.5217(5)
H9 H 0.3564 0.3910 0.5720
H10 H 0.3746 0.4445 0.5129
H11 H 0.2998 0.3328 0.4758
C16 C 0.4853(8) 0.7012(9) 0.5930(5)
H12 H 0.5399 0.6984 0.5772
H13 H 0.5080 0.7641 0.6366
H14 H 0.4336 0.6913 0.5460
C17 C 0.1600(8) 0.3209(8) 0.3479(5)
C18 C 0.1870(9) 0.2931(8) 0.2791(5)
H15 H 0.2291 0.3386 0.2647
C19 C 0.1455(7) 0.1899(7) 0.2324(6)
H16 H 0.1606 0.1711 0.1851
C20 C 0.0906(6) 0.1201(7) 0.2467(5)
C21 C 0.0642(8) 0.1448(10) 0.3182(5)
H17 H 0.0231 0.0980 0.3320
C22 C 0.1070(9) 0.2492(9) 0.3673(4)
H18 H 0.0968 0.2683 0.4171
C23 C 0.3810(8) 0.6405(9) 0.6608(5)
C24 C 0.2854(8) 0.6152(9) 0.6135(5)
C25 C 0.2209(8) 0.6283(9) 0.6523(5)
C26 C 0.2529(8) 0.6692(9) 0.7394(5)
C27 C 0.3455(7) 0.6935(8) 0.7830(5)
H19 H 0.3674 0.7230 0.8405
C28 C 0.4097(8) 0.6777(9) 0.7480(5)
C29 C 0.1849(7) 0.6925(9) 0.7824(4)
C30 C 0.1354(8) 0.7436(9) 0.7613(5)
H20 H 0.1337 0.7549 0.7136
C31 C 0.0893(8) 0.7773(9) 0.8099(4)
H21 H 0.0568 0.8121 0.7954
C32 C 0.0903(8) 0.7602(9) 0.8817(4)
C33 C 0.1292(8) 0.7002(8) 0.8979(5)
H22 H 0.1216 0.6808 0.9406
C34 C 0.1793(7) 0.6689(9) 0.8511(5)
H23 H 0.2096 0.6321 0.8646
C35 C 0.0477(8) 0.8106(8) 0.9386(5)
C36 C 0.5409(10) 0.6393(11) 0.8120(9)
H24 H 0.4956 0.5738 0.7801
C37 C 0.5174(11) 0.7073(12) 0.8013(9)
C38 C 0.5887(10) 0.7969(12) 0.8301(9)
H25 H 0.5774 0.8417 0.8117
C39 C 0.6804(10) 0.8255(11) 0.8874(8)
H26 H 0.7317 0.8883 0.9059
C40 C 0.6952(10) 0.7600(12) 0.9169(9)
C41 C 0.6317(10) 0.6628(12) 0.8697(9)
H27 H 0.6483 0.6144 0.8758
C42 C 0.0607(8) 0.5045(9) 0.5950(5)
H29 H 0.0587 0.5077 0.6484
H30 H 0.0865 0.4602 0.5741
C43 C 0.0430(7) 0.0121(7) 0.1915(6)
C44 C 0.8060(8) 0.8009(8) 0.9824(6)
O2 O 0.8671(5) 0.8748(6) 0.9968(4)
O4 O 0.1152(6) 0.8284(7) 0.1862(4)
O6 O 0.2486(5) 0.7134(6) 0.5150(3)
O7 O 0.0227(5) 0.7657(6) 0.9864(4)
O8 O 0.2451(5) 0.4194(6) 0.5284(3)
O9 O 0.4460(5) 0.6236(6) 0.6226(3)
O11 O 0.0420(6) 0.8816(6) 0.9379(3)
O12 O 0.1234(5) 0.5996(7) 0.6028(3)
H31 H 0.0247 0.4271 0.8233
H58 H 0.0054 0.5183 0.4427
O22 O 0.0355(5) 0.2969(6) 0.8644(4)
O33 O 0.1919(6) 0.2602(7) 0.9903(4)
Cd12_8 Cd 1.0000 1.0000 1.0000
O38 O 0.9580(6) 0.1184(6) 0.0621(3)
O13 O 0.9296(4) 0.0078(5) 0.8737(3)
O37 O 0.9773(5) 0.2343(6) 0.0136(4)
H1 H 0.9753 0.5729 0.1767
H28 H 0.9946 0.4817 0.5573
O10 O 0.9645(5) 0.7031(6) 0.1356(4)
C45 C 0.9428(7) 0.2477(9) 0.8178(5)
C46 C 0.9051(9) 0.2969(11) 0.7678(5)
C47 C 0.9628(10) 0.3915(11) 0.7804(5)
C48 C 0.9348(9) 0.4347(8) 0.7348(5)
H32 H 0.9755 0.4996 0.7464
C49 C 0.8392(8) 0.3788(11) 0.6663(5)
C50 C 0.7825(9) 0.2838(10) 0.6543(6)
H33 H 0.7217 0.2447 0.6103
C51 C 0.8152(7) 0.2480(8) 0.7060(5)
H34 H 0.7733 0.1853 0.6990
C52 C 0.8148(8) 0.4309(9) 0.6126(5)
C53 C 0.8331(8) 0.5272(8) 0.6509(5)
H35 H 0.8585 0.5571 0.7086
C54 C 0.8151(8) 0.5824(9) 0.6066(5)
C55 C 0.7714(8) 0.5317(9) 0.5196(5)
C56 C 0.7513(8) 0.4323(9) 0.4798(5)
C57 C 0.7722(8) 0.3842(9) 0.5249(5)
C58 C 0.8424(8) 0.2686(8) 0.4848(5)
H36 H 0.8206 0.2001 0.4545
H37 H 0.8791 0.3052 0.4590
H38 H 0.8844 0.2892 0.5409
C59 C 0.6741(8) 0.6052(8) 0.4783(5)
H39 H 0.6436 0.6090 0.4280
H40 H 0.6254 0.5555 0.4871
H41 H 0.7002 0.6672 0.5242
C60 C 0.5147(8) 0.2988(9) 0.4070(5)
H42 H 0.4601 0.3016 0.4228
H43 H 0.4920 0.2359 0.3634
H44 H 0.5664 0.3087 0.4540
C61 C 0.8400(8) 0.6791(8) 0.6521(5)
C62 C 0.8130(9) 0.7069(8) 0.7209(5)
H45 H 0.7709 0.6614 0.7353
C63 C 0.8545(7) 0.8101(7) 0.7676(6)
H46 H 0.8394 0.8289 0.8149
C64 C 0.9094(6) 0.8799(7) 0.7533(5)
C65 C 0.9358(8) 0.8552(10) 0.6818(5)
H47 H 0.9769 0.9020 0.6680
C66 C 0.8930(9) 0.7508(9) 0.6327(4)
H48 H 0.9032 0.7317 0.5829
C67 C 0.6190(8) 0.3595(9) 0.3392(5)
C68 C 0.7146(8) 0.3848(9) 0.3865(5)
C69 C 0.7791(8) 0.3717(9) 0.3477(5)
C70 C 0.7471(8) 0.3308(9) 0.2606(5)
C71 C 0.6545(7) 0.3065(8) 0.2170(5)
H49 H 0.6326 0.2770 0.1595
C72 C 0.5903(8) 0.3223(9) 0.2520(5)
C73 C 0.8151(7) 0.3075(9) 0.2176(4)
C74 C 0.8646(8) 0.2564(9) 0.2387(5)
H50 H 0.8663 0.2451 0.2864
C75 C 0.9107(8) 0.2227(9) 0.1901(4)
H51 H 0.9432 0.1879 0.2046
C76 C 0.9097(8) 0.2398(9) 0.1183(4)
C77 C 0.8708(8) 0.2998(8) 0.1021(5)
H52 H 0.8784 0.3192 0.0594
C78 C 0.8207(7) 0.3311(9) 0.1489(5)
H53 H 0.7904 0.3679 0.1354
C79 C 0.9523(8) 0.1894(8) 0.0614(5)
C80 C 0.4591(10) 0.3607(11) 0.1880(9)
H54 H 0.5044 0.4262 0.2199
C81 C 0.4826(11) 0.2927(12) 0.1987(9)
C82 C 0.4113(10) 0.2031(12) 0.1699(9)
H55 H 0.4226 0.1583 0.1883
C83 C 0.3196(10) 0.1745(11) 0.1126(8)
H56 H 0.2683 0.1117 0.0941
C84 C 0.3048(10) 0.2400(12) 0.0831(9)
C85 C 0.3683(10) 0.3372(12) 0.1303(9)
H57 H 0.3517 0.3856 0.1242
C86 C 0.9393(8) 0.4955(9) 0.4050(5)
H59 H 0.9413 0.4923 0.3516
H60 H 0.9135 0.5398 0.4259
C87 C 0.9570(7) 0.9879(7) 0.8085(6)
C88 C 0.1940(8) 0.1991(8) 0.0176(6)
O16 O 0.8848(6) 0.1716(7) 0.8138(4)
O18 O 0.7514(5) 0.2866(6) 0.4850(3)
O20 O 0.7549(5) 0.5806(6) 0.4716(3)
O21 O 0.5540(5) 0.3764(6) 0.3774(3)
O24 O 0.8766(5) 0.4004(7) 0.3972(3)
O34 O 0.9897(5) 0.9470(6) 0.2052(3)
loop_
_geom_bond_atom_site_label_1
_geom_bond_atom_site_label_2
_geom_bond_site_symmetry_1
_geom_bond_site_symmetry_2
O31 Cd12 1_555 1_555
O17 Cd9 1_555 1_555
O26 Cd12_3 1_555 1_555
O3 Cd6 1_555 1_555
C1 C2 1_555 1_555
C2 C3 1_555 1_555
C4 C3 1_555 1_555
H2 C4 1_555 1_555
C5 C4 1_555 1_555
C6 C5 1_555 1_555
H3 C6 1_555 1_555
C7 C2 1_555 1_555
H4 C7 1_555 1_555
C8 C5 1_555 1_555
C9 C8 1_555 1_555
H5 C9 1_555 1_555
C10 C9 1_555 1_555
C11 C10 1_555 1_555
C12 C11 1_555 1_555
C13 C8 1_555 1_555
C14 H6 1_555 1_555
H7 C14 1_555 1_555
H8 C14 1_555 1_555
C15 H9 1_555 1_555
H10 C15 1_555 1_555
H11 C15 1_555 1_555
C16 H12 1_555 1_555
H13 C16 1_555 1_555
H14 C16 1_555 1_555
C17 C10 1_555 1_555
C18 C17 1_555 1_555
H15 C18 1_555 1_555
C19 C18 1_555 1_555
H16 C19 1_555 1_555
C20 C19 1_555 1_555
C21 C20 1_555 1_555
H17 C21 1_555 1_555
C22 C17 1_555 1_555
H18 C22 1_555 1_555
C23 C24 1_555 1_555
C24 C12 1_555 1_555
C25 C24 1_555 1_555
C26 C25 1_555 1_555
C27 C26 1_555 1_555
H19 C27 1_555 1_555
C28 C23 1_555 1_555
C29 C26 1_555 1_555
C30 C29 1_555 1_555
H20 C30 1_555 1_555
C31 C30 1_555 1_555
H21 C31 1_555 1_555
C32 C31 1_555 1_555
C33 C32 1_555 1_555
H22 C33 1_555 1_555
C34 C29 1_555 1_555
H23 C34 1_555 1_555
C35 C32 1_555 1_555
C36 H24 1_555 1_555
C37 C28 1_555 1_555
C38 C37 1_555 1_555
H25 C38 1_555 1_555
C39 C38 1_555 1_555
H26 C39 1_555 1_555
C40 C39 1_555 1_555
C41 C36 1_555 1_555
H27 C41 1_555 1_555
H29 C42 1_555 1_555
H30 C42 1_555 1_555
C43 C20 1_555 1_555
C44 C40 1_555 1_555
O2 C44 1_555 1_555
O4 C1 1_555 1_555
O6 C13 1_555 1_555
O7 C35 1_555 1_555
O8 C11 1_555 1_555
O9 C16 1_555 1_555
O11 C35 1_555 1_555
O12 C25 1_555 1_555
Cd12_4 O11 1_555 1_555
O33 Cd9 1_555 1_555
Cd12_8 O2 1_555 1_555
C6 C7 1_555 1_555
C12 C13 1_555 1_555
C14 O6 1_555 1_555
C15 O8 1_555 1_555
C21 C22 1_555 1_555
C23 O9 1_555 1_555
C27 C28 1_555 1_555
C33 C34 1_555 1_555
C36 C37 1_555 1_555
C40 C41 1_555 1_555
C42 O12 1_555 1_555
O22 Cd9 1_555 1_555
O38 Cd12_5 1_555 1_555
O13 Cd12_6 1_555 1_555
C45 C46 1_555 1_555
C46 C47 1_555 1_555
C48 C47 1_555 1_555
H32 C48 1_555 1_555
C49 C48 1_555 1_555
C50 C49 1_555 1_555
H33 C50 1_555 1_555
C51 C46 1_555 1_555
H34 C51 1_555 1_555
C52 C49 1_555 1_555
C53 C52 1_555 1_555
H35 C53 1_555 1_555
C54 C53 1_555 1_555
C55 C54 1_555 1_555
C56 C55 1_555 1_555
C57 C52 1_555 1_555
C58 H36 1_555 1_555
H37 C58 1_555 1_555
H38 C58 1_555 1_555
C59 H39 1_555 1_555
H40 C59 1_555 1_555
H41 C59 1_555 1_555
C60 H42 1_555 1_555
H43 C60 1_555 1_555
H44 C60 1_555 1_555
C61 C54 1_555 1_555
C62 C61 1_555 1_555
H45 C62 1_555 1_555
C63 C62 1_555 1_555
H46 C63 1_555 1_555
C64 C63 1_555 1_555
C65 C64 1_555 1_555
H47 C65 1_555 1_555
C66 C61 1_555 1_555
H48 C66 1_555 1_555
C67 C68 1_555 1_555
C68 C56 1_555 1_555
C69 C68 1_555 1_555
C70 C69 1_555 1_555
C71 C70 1_555 1_555
H49 C71 1_555 1_555
C72 C67 1_555 1_555
C73 C70 1_555 1_555
C74 C73 1_555 1_555
H50 C74 1_555 1_555
C75 C74 1_555 1_555
H51 C75 1_555 1_555
C76 C75 1_555 1_555
C77 C76 1_555 1_555
H52 C77 1_555 1_555
C78 C73 1_555 1_555
H53 C78 1_555 1_555
C79 C76 1_555 1_555
C80 H54 1_555 1_555
C81 C72 1_555 1_555
C82 C81 1_555 1_555
H55 C82 1_555 1_555
C83 C82 1_555 1_555
H56 C83 1_555 1_555
C84 C83 1_555 1_555
C85 C80 1_555 1_555
H57 C85 1_555 1_555
H59 C86 1_555 1_555
H60 C86 1_555 1_555
C87 C64 1_555 1_555
C88 C84 1_555 1_555
O31 C88 1_555 1_555
O16 C45 1_555 1_555
O18 C57 1_555 1_555
O37 C79 1_555 1_555
O20 C55 1_555 1_555
O21 C60 1_555 1_555
O38 C79 1_555 1_555
O24 C69 1_555 1_555
O34 Cd6 1_555 1_555
O10 Cd6 1_555 1_555
C50 C51 1_555 1_555
C56 C57 1_555 1_555
C58 O18 1_555 1_555
C59 O20 1_555 1_555
C65 C66 1_555 1_555
C67 O21 1_555 1_555
C71 C72 1_555 1_555
C77 C78 1_555 1_555
C80 C81 1_555 1_555
C84 C85 1_555 1_555
C86 O24 1_555 1_555

#END
