
###############################################################################
#
# This file contains modified crystal structure data generated from the
# MOF subset of the Cambridge Structural Database (CSD) v543 
# hosted by the Cambridge Crystallographic Data Centre (CCDC).
#
# This work is licensed under the Creative Commons
# Attribution-NonCommercial-ShareAlike 4.0 International License.
# To view a copy of this license, visit
# http://creativecommons.org/licenses/by-nc-sa/4.0/
# or send a letter to
# Creative Commons, PO Box 1866, Mountain View, CA 94042, USA.
#
# CIF created using the CSD Python API on 29 September 2022
# The structure has been converted into the P1 space group
# The structure has a 3D framework
# The original CSD entry WUZGOQ is in the orthorhombic crystal system
# The framework has been calculated to contain at least 10.0% void space
# The void calculation uses a probe of radius 1.32A, grid spacing 0.4
#
###############################################################################

data_WUZGOQ
_chemical_formula_moiety         '(C64 H40 Co2 N14 O16)n'
_symmetry_cell_setting           triclinic
_symmetry_space_group_name_H-M   'P 1'
_symmetry_Int_Tables_number      1
_space_group_name_Hall           'P 1'
loop_
_symmetry_equiv_pos_site_id
_symmetry_equiv_pos_as_xyz
1 x,y,z
_cell_length_a                   14.8116(8)
_cell_length_b                   8.7686(4)
_cell_length_c                   14.8164(7)
_cell_angle_alpha                90
_cell_angle_beta                 90
_cell_angle_gamma                90
_cell_volume                     1924.31
loop_
_atom_site_label
_atom_site_type_symbol
_atom_site_fract_x
_atom_site_fract_y
_atom_site_fract_z
C1 C 0.6309(3) 0.0515(5) 0.3455(5)
O1 O 0.54579(19) 0.0801(3) 0.3543(2)
N2 N 0.7079(2) 0.6061(3) 0.3506(5)
H1 H 0.657092 0.653467 0.352961
C2 C 0.6946(2) 0.1839(4) 0.3454(4)
C3 C 0.7202(2) 0.4496(4) 0.3482(4)
C4 C 0.6592(3) 0.3304(4) 0.3471(4)
H3 H 0.597271 0.347573 0.347547
N4 N 0.8559(5) 0.5703(6) 0.3448(4)
C5 C 0.7908(3) 0.6700(4) 0.3485(6)
H4 H 0.800399 0.774833 0.349576
C6 C 0.7876(3) 0.1602(4) 0.3438(5)
H5 H 0.809597 0.060864 0.344439
C7 C 0.8482(2) 0.2800(4) 0.3414(6)
H6 H 0.910053 0.262874 0.337294
C8 C 0.8131(2) 0.4280(4) 0.3454(4)
Co3 Co 0.99016(3) 0.62484(17) 0.33801(3)
O3 O 0.9896(4) 0.6685(7) 0.5068(5)
C9 C 0.9978(3) 0.8009(6) 0.4801(3)
C10 C 0.9985(3) 0.9320(6) 0.5429(3)
N5 N 0.9999(3) 0.6836(6) 0.2046(4)
C12 C 0.9951(4) 0.9709(5) 0.1968(4)
H8 H 0.990796 0.987246 0.258675
Co1 Co 0.49016(3) 0.87516(17) 0.33801(3)
N1 N 0.5001(3) 0.1836(6) 0.7046(4)
O2 O 0.5064(2) 0.6720(5) 0.3965(2)
O3_2 O 0.4896(4) 0.8315(7) 0.5068(5)
N3 N 0.4935(3) 0.1462(5) 0.5570(3)
H2 H 0.491120 0.098871 0.506184
O4 O 0.6586(4) 0.9181(5) 0.3387(5)
C9_2 C 0.4978(3) 0.6991(6) 0.4801(3)
C10_2 C 0.4985(3) 0.5680(6) 0.5429(3)
C11 C 0.5037(4) 0.5919(6) 0.6375(3)
H7 H 0.506230 0.690910 0.659777
C12_2 C 0.5049(4) 0.4709(5) 0.6968(4)
H8_2 H 0.509204 0.487246 0.758675
C13 C 0.4997(3) 0.3242(6) 0.6621(3)
C14 C 0.4951(3) 0.3011(5) 0.5689(3)
C15 C 0.4930(4) 0.4218(6) 0.5078(3)
H9 H 0.488048 0.404990 0.446000
C16 C 0.4964(4) 0.0822(6) 0.6389(4)
Co2 Co 0.50984(3) 0.12484(17) 0.83801(3)
N5_2 N 0.4999(3) 0.8164(6) 0.2046(4)
N6 N 0.3559(5) 0.9297(6) 0.3448(4)
O3_3 O 0.5104(4) 0.1685(7) 0.0068(5)
N3_2 N 0.5065(3) 0.8538(5) 0.0570(3)
H2_2 H 0.508880 0.901129 0.006184
C10_3 C 0.5015(3) 0.4320(6) 0.0429(3)
C11_2 C 0.4963(4) 0.4081(6) 0.1375(3)
H7_2 H 0.493770 0.309090 0.159777
C12_3 C 0.4951(4) 0.5291(5) 0.1968(4)
H8_3 H 0.490796 0.512754 0.258675
C13_2 C 0.5003(3) 0.6758(6) 0.1621(3)
C14_2 C 0.5049(3) 0.6989(5) 0.0689(3)
C15_2 C 0.5070(4) 0.5782(6) 0.0078(3)
C16_2 C 0.5036(4) 0.9178(6) 0.1389(4)
O2_2 O 0.4936(2) 0.3280(5) 0.8965(2)
O4_2 O 0.3414(4) 0.0819(5) 0.8387(5)
C9_3 C 0.5022(3) 0.3009(6) 0.9801(3)
H9_2 H 0.511952 0.595010 0.946000
N6_2 N 0.6441(5) 0.0703(6) 0.8448(4)
N2_2 N 0.2079(2) 0.8939(3) 0.3506(5)
H1_2 H 0.157092 0.846533 0.352961
C5_2 C 0.2908(3) 0.8300(4) 0.3485(6)
H4_2 H 0.300399 0.725167 0.349576
N2_3 N 0.7921(2) 0.1061(3) 0.8506(5)
H1_3 H 0.842908 0.153467 0.852961
C5_3 C 0.7092(3) 0.1700(4) 0.8485(6)
H4_3 H 0.699601 0.274833 0.849576
H10 H 0.495945 0.977442 0.648522
H10_2 H 0.504055 0.022558 0.148522
C1_2 C 0.3691(3) 0.9485(5) 0.8455(5)
O1_2 O 0.45421(19) 0.9199(3) 0.8543(2)
N2_4 N 0.2921(2) 0.3939(3) 0.8506(5)
H1_4 H 0.342908 0.346533 0.852961
C2_2 C 0.3054(2) 0.8161(4) 0.8454(4)
C3_2 C 0.2798(2) 0.5504(4) 0.8482(4)
C4_2 C 0.3408(3) 0.6696(4) 0.8471(4)
H3_2 H 0.402729 0.652427 0.847547
N4_2 N 0.1441(5) 0.4297(6) 0.8448(4)
C5_4 C 0.2092(3) 0.3300(4) 0.8485(6)
H4_4 H 0.199601 0.225167 0.849576
C6_2 C 0.2124(3) 0.8398(4) 0.8438(5)
H5_2 H 0.190403 0.939136 0.844439
C7_2 C 0.1518(2) 0.7200(4) 0.8414(6)
H6_2 H 0.089947 0.737126 0.837294
C8_2 C 0.1869(2) 0.5720(4) 0.8454(4)
Co3_2 Co 0.00984(3) 0.37516(17) 0.83801(3)
N1_2 N 0.0001(3) 0.3164(6) 0.7046(4)
C12_4 C 0.0049(4) 0.0291(5) 0.6968(4)
H8_4 H 0.009204 0.012754 0.758675
C9_4 C 0.0022(3) 0.1991(6) 0.9801(3)
C1_3 C 0.1309(3) 0.4485(5) 0.3455(5)
O1_3 O 0.04579(19) 0.4199(3) 0.3543(2)
O2_3 O 0.0064(2) 0.8280(5) 0.3965(2)
C2_3 C 0.1946(2) 0.3161(4) 0.3454(4)
C3_3 C 0.2202(2) 0.0504(4) 0.3482(4)
C4_3 C 0.1592(3) 0.1696(4) 0.3471(4)
H3_3 H 0.097271 0.152427 0.347547
O4_3 O 0.1586(4) 0.5819(5) 0.3387(5)
C6_3 C 0.2876(3) 0.3398(4) 0.3438(5)
H5_3 H 0.309597 0.439136 0.344439
C7_3 C 0.3482(2) 0.2200(4) 0.3414(6)
H6_3 H 0.410053 0.237126 0.337294
C8_3 C 0.3131(2) 0.0720(4) 0.3454(4)
C11_3 C 0.0037(4) 0.9081(6) 0.6375(3)
H7_3 H 0.006230 0.809090 0.659777
N3_3 N 0.9935(3) 0.3538(5) 0.5570(3)
H2_3 H 0.991120 0.401129 0.506184
C13_3 C 0.9997(3) 0.1758(6) 0.6621(3)
C14_3 C 0.9951(3) 0.1989(5) 0.5689(3)
C15_3 C 0.9930(4) 0.0782(6) 0.5078(3)
H9_3 H 0.988048 0.095010 0.446000
C16_3 C 0.9964(4) 0.4178(6) 0.6389(4)
H10_3 H 0.995945 0.522558 0.648522
O3_4 O 0.0104(4) 0.3315(7) 0.0068(5)
C10_4 C 0.0015(3) 0.0680(6) 0.0429(3)
N3_4 N 0.0065(3) 0.6462(5) 0.0570(3)
H2_4 H 0.008880 0.598871 0.006184
C13_4 C 0.0003(3) 0.8242(6) 0.1621(3)
C14_4 C 0.0049(3) 0.8011(5) 0.0689(3)
C15_4 C 0.0070(4) 0.9218(6) 0.0078(3)
C16_4 C 0.0036(4) 0.5822(6) 0.1389(4)
H10_4 H 0.004055 0.477442 0.148522
H9_4 H 0.011952 0.904990 0.946000
C11_4 C 0.9963(4) 0.0919(6) 0.1375(3)
H7_4 H 0.993770 0.190910 0.159777
C1_4 C 0.8691(3) 0.5515(5) 0.8455(5)
O1_4 O 0.95421(19) 0.5801(3) 0.8543(2)
O2_4 O 0.9936(2) 0.1720(5) 0.8965(2)
C2_4 C 0.8054(2) 0.6839(4) 0.8454(4)
C3_4 C 0.7798(2) 0.9496(4) 0.8482(4)
C4_4 C 0.8408(3) 0.8304(4) 0.8471(4)
H3_4 H 0.902729 0.847573 0.847547
O4_4 O 0.8414(4) 0.4181(5) 0.8387(5)
C6_4 C 0.7124(3) 0.6602(4) 0.8438(5)
H5_4 H 0.690403 0.560864 0.844439
C7_4 C 0.6518(2) 0.7800(4) 0.8414(6)
H6_4 H 0.589947 0.762874 0.837294
C8_4 C 0.6869(2) 0.9280(4) 0.8454(4)
loop_
_geom_bond_atom_site_label_1
_geom_bond_atom_site_label_2
_geom_bond_site_symmetry_1
_geom_bond_site_symmetry_2
C1 O1 1_555 1_555
N2 H1 1_555 1_555
C2 C1 1_555 1_555
C3 N2 1_555 1_555
C4 C2 1_555 1_555
H3 C4 1_555 1_555
N4 C5 1_555 1_555
C5 N2 1_555 1_555
H4 C5 1_555 1_555
C6 C2 1_555 1_555
H5 C6 1_555 1_555
C7 C6 1_555 1_555
H6 C7 1_555 1_555
C8 C3 1_555 1_555
Co3 N4 1_555 1_555
C3 C4 1_555 1_555
N4 C8 1_555 1_555
C7 C8 1_555 1_555
O3 C9 1_555 1_555
C10 C9 1_555 1_555
N5 Co3 1_555 1_555
H8 C12 1_555 1_555
N1 C13 1_555 1_555
O2 Co1 1_555 1_555
O3_2 C9_2 1_555 1_555
N3 H2 1_555 1_555
C9_2 O2 1_555 1_555
C10_2 C9_2 1_555 1_555
C11 C10_2 1_555 1_555
H7 C11 1_555 1_555
C12_2 C11 1_555 1_555
H8_2 C12_2 1_555 1_555
C13 C12_2 1_555 1_555
C14 N3 1_555 1_555
C15 C10_2 1_555 1_555
H9 C15 1_555 1_555
C16 N1 1_555 1_555
Co2 N1 1_555 1_555
N5_2 Co1 1_555 1_555
N6 Co1 1_555 1_555
N3 C16 1_555 1_555
C13 C14 1_555 1_555
C14 C15 1_555 1_555
N5_2 C13_2 1_555 1_555
N3_2 H2_2 1_555 1_555
C11_2 C10_3 1_555 1_555
H7_2 C11_2 1_555 1_555
C12_3 C11_2 1_555 1_555
H8_3 C12_3 1_555 1_555
C13_2 C12_3 1_555 1_555
C14_2 N3_2 1_555 1_555
C15_2 C10_3 1_555 1_555
C16_2 N5_2 1_555 1_555
N3_2 C16_2 1_555 1_555
C13_2 C14_2 1_555 1_555
C14_2 C15_2 1_555 1_555
O2_2 Co2 1_555 1_555
C9_3 O2_2 1_555 1_555
N6_2 Co2 1_555 1_555
N2_2 H1_2 1_555 1_555
N6 C5_2 1_555 1_555
C5_2 N2_2 1_555 1_555
H4_2 C5_2 1_555 1_555
N2_3 H1_3 1_555 1_555
N6_2 C5_3 1_555 1_555
C5_3 N2_3 1_555 1_555
H4_3 C5_3 1_555 1_555
C1_2 O1_2 1_555 1_555
N2_4 H1_4 1_555 1_555
C2_2 C1_2 1_555 1_555
C3_2 N2_4 1_555 1_555
C4_2 C2_2 1_555 1_555
H3_2 C4_2 1_555 1_555
N4_2 C5_4 1_555 1_555
C5_4 N2_4 1_555 1_555
H4_4 C5_4 1_555 1_555
C6_2 C2_2 1_555 1_555
H5_2 C6_2 1_555 1_555
C7_2 C6_2 1_555 1_555
H6_2 C7_2 1_555 1_555
C8_2 C3_2 1_555 1_555
Co3_2 N4_2 1_555 1_555
C3_2 C4_2 1_555 1_555
N4_2 C8_2 1_555 1_555
C7_2 C8_2 1_555 1_555
H8_4 C12_4 1_555 1_555
Co3_2 N1_2 1_555 1_555
C1_3 O1_3 1_555 1_555
C2_3 C1_3 1_555 1_555
C4_3 C2_3 1_555 1_555
H3_3 C4_3 1_555 1_555
O4_3 C1_3 1_555 1_555
C6_3 C2_3 1_555 1_555
H5_3 C6_3 1_555 1_555
C7_3 C6_3 1_555 1_555
H6_3 C7_3 1_555 1_555
C8_3 C3_3 1_555 1_555
H7_3 C11_3 1_555 1_555
C3_3 C4_3 1_555 1_555
C7_3 C8_3 1_555 1_555
N3_3 H2_3 1_555 1_555
C14_3 N3_3 1_555 1_555
H9_3 C15_3 1_555 1_555
H10_3 C16_3 1_555 1_555
N3_3 C16_3 1_555 1_555
C13_3 C14_3 1_555 1_555
C14_3 C15_3 1_555 1_555
N3_4 H2_4 1_555 1_555
C14_4 N3_4 1_555 1_555
H10_4 C16_4 1_555 1_555
N3_4 C16_4 1_555 1_555
C13_4 C14_4 1_555 1_555
C14_4 C15_4 1_555 1_555
H7_4 C11_4 1_555 1_555
C1_4 O1_4 1_555 1_555
C2_4 C1_4 1_555 1_555
C4_4 C2_4 1_555 1_555
H3_4 C4_4 1_555 1_555
O4_4 C1_4 1_555 1_555
C6_4 C2_4 1_555 1_555
H5_4 C6_4 1_555 1_555
C7_4 C6_4 1_555 1_555
H6_4 C7_4 1_555 1_555
C8_4 C3_4 1_555 1_555
C3_4 C4_4 1_555 1_555
C7_4 C8_4 1_555 1_555

#END
