
###############################################################################
#
# This file contains modified crystal structure data generated from the
# MOF subset of the Cambridge Structural Database (CSD) v543 
# hosted by the Cambridge Crystallographic Data Centre (CCDC).
#
# This work is licensed under the Creative Commons
# Attribution-NonCommercial-ShareAlike 4.0 International License.
# To view a copy of this license, visit
# http://creativecommons.org/licenses/by-nc-sa/4.0/
# or send a letter to
# Creative Commons, PO Box 1866, Mountain View, CA 94042, USA.
#
# CIF created using the CSD Python API on 29 September 2022
# The structure has been converted into the P1 space group
# The structure has a 3D framework
# The original CSD entry WUZRUE is in the monoclinic crystal system
# The framework has been calculated to contain at least 10.0% void space
# The void calculation uses a probe of radius 1.32A, grid spacing 0.4
#
###############################################################################

data_WUZRUE
_chemical_formula_moiety         '(C96 H64 N12 Ni8 O36)n'
_symmetry_cell_setting           triclinic
_symmetry_space_group_name_H-M   'P 1'
_symmetry_Int_Tables_number      1
_space_group_name_Hall           'P 1'
loop_
_symmetry_equiv_pos_site_id
_symmetry_equiv_pos_as_xyz
1 x,y,z
_cell_length_a                   10.75(1)
_cell_length_b                   19.60(2)
_cell_length_c                   13.79(1)
_cell_angle_alpha                90
_cell_angle_beta                 104.2(1)
_cell_angle_gamma                90
_cell_volume                     2816.77
loop_
_atom_site_label
_atom_site_type_symbol
_atom_site_fract_x
_atom_site_fract_y
_atom_site_fract_z
N1 N 0.0475(10) 0.0113(5) 0.7433(7)
Ni4 Ni 0.24574(15) 0.02508(8) 0.79542(11)
O3 O 0.7283(8) 0.0407(4) 0.3119(6)
N2 N 0.5608(10) 0.1236(5) 0.5771(7)
C2 C 0.9630(16) 0.0308(7) 0.7957(10)
H2 H 0.9930 0.0556 0.8542
C3 C 0.8346(15) 0.0157(8) 0.7664(11)
H3 H 0.7803 0.0307 0.8052
C7 C 0.6490(14) 0.0323(7) 0.3652(9)
C8 C 0.7672(17) 0.1198(7) 0.4897(11)
H5 H 0.8357 0.1193 0.4596
C9 C 0.7720(16) 0.1596(8) 0.5746(13)
H6 H 0.8446 0.1850 0.6036
C10 C 0.6684(15) 0.1601(7) 0.6136(11)
H7 H 0.6714 0.1874 0.6693
C11 C 0.5604(13) 0.0852(6) 0.4962(9)
H8 H 0.4874 0.0595 0.4690
C12 C 0.6597(13) 0.0816(6) 0.4518(9)
N7 N 0.7424(9) 0.0556(5) 0.1016(7)
Ni5 Ni 0.40449(15) 0.11806(8) 0.63925(11)
Ni1 Ni 0.59551(15) 0.88194(8) 0.36075(11)
Ni2 Ni 0.75426(15) 0.97492(8) 0.20458(11)
O1 O 0.7077(8) 0.9028(4) 0.5029(6)
O2 O 0.9075(9) 0.9054(5) 0.4817(6)
O4 O 0.5656(8) 0.9875(4) 0.3554(6)
O5 O 0.4797(8) 0.8693(4) 0.2225(6)
O6 O 0.5591(8) 0.9551(5) 0.1462(6)
O7 O 0.7771(9) 0.5878(5) 0.5901(6)
O8 O 0.7660(10) 0.6914(5) 0.6546(7)
O9 O 0.7622(7) 0.8909(4) 0.3023(5)
N4 N 0.6253(9) 0.7757(5) 0.3743(7)
C1 C 0.9956(12) 0.9766(6) 0.6582(9)
C4 C 0.7846(13) 0.9789(7) 0.6811(10)
H4 H 0.6976 0.9687 0.6616
C5 C 0.8682(11) 0.9572(6) 0.6247(8)
C6 C 0.8243(16) 0.9185(6) 0.5274(9)
C13 C 0.4773(13) 0.9104(7) 0.1499(9)
C14 C 0.3675(12) 0.9022(7) 0.0592(9)
C15 C 0.2856(17) 0.8497(8) 0.0483(12)
H9 H 0.2945 0.8175 0.0990
C19 C 0.7538(12) 0.6505(8) 0.5838(10)
C20 C 0.7001(13) 0.6794(7) 0.4803(9)
C21 C 0.6666(17) 0.6361(8) 0.3982(12)
H13 H 0.6765 0.5891 0.4060
C22 C 0.619(2) 0.6640(9) 0.3056(11)
H14 H 0.5991 0.6363 0.2491
C23 C 0.5991(16) 0.7339(7) 0.2965(11)
H15 H 0.5662 0.7522 0.2331
C24 C 0.6743(11) 0.7472(7) 0.4642(9)
H16 H 0.6919 0.7759 0.5196
N5 N 0.4392(10) 0.8764(5) 0.4229(7)
O10 O 0.7771(9) 0.9122(5) 0.0901(6)
N6 N 0.9525(10) 0.9887(5) 0.2567(7)
Ni3 Ni 0.75426(15) 0.52508(8) 0.70458(11)
N3 N 0.2576(9) 0.9444(5) 0.8984(7)
C16 C 0.1865(19) 0.8428(8) 0.9616(13)
H10 H 0.1304 0.8060 0.9532
C17 C 0.1748(18) 0.8917(8) 0.8898(12)
H11 H 0.1074 0.8887 0.8329
C18 C 0.3471(12) 0.9498(7) 0.9844(9)
H12 H 0.3988 0.9885 0.9941
Ni1_2 Ni 0.40449(15) 0.38194(8) 0.13925(11)
Ni2_2 Ni 0.24574(15) 0.47492(8) 0.29542(11)
O2_2 O 0.0925(9) 0.4054(5) 0.0183(6)
O3_2 O 0.2717(8) 0.5407(4) 0.1881(6)
O4_2 O 0.4344(8) 0.4875(4) 0.1446(6)
O5_2 O 0.5203(8) 0.3693(4) 0.2775(6)
O6_2 O 0.4409(8) 0.4551(5) 0.3538(6)
O9_2 O 0.2378(7) 0.3909(4) 0.1977(5)
N3_2 N 0.7424(9) 0.4444(5) 0.6016(7)
N4_2 N 0.3747(9) 0.2757(5) 0.1257(7)
C7_2 C 0.3510(14) 0.5323(7) 0.1348(9)
C8_2 C 0.2328(17) 0.6198(7) 0.0103(11)
H5_2 H 0.1643 0.6193 0.0404
C11_2 C 0.4396(13) 0.5852(6) 0.0038(9)
H8_2 H 0.5126 0.5595 0.0310
C12_2 C 0.3403(13) 0.5816(6) 0.0482(9)
C13_2 C 0.5227(13) 0.4104(7) 0.3501(9)
C14_2 C 0.6325(12) 0.4022(7) 0.4408(9)
C15_2 C 0.7144(17) 0.3497(8) 0.4517(12)
H9_2 H 0.7055 0.3175 0.4010
C16_2 C 0.8135(19) 0.3428(8) 0.5384(13)
H10_2 H 0.8696 0.3060 0.5468
C17_2 C 0.8252(18) 0.3917(8) 0.6102(12)
H11_2 H 0.8926 0.3887 0.6671
C18_2 C 0.6529(12) 0.4498(7) 0.5156(9)
H12_2 H 0.6012 0.4885 0.5059
C20_2 C 0.2999(13) 0.1794(7) 0.0197(9)
C21_2 C 0.3334(17) 0.1361(8) 0.1018(12)
H13_2 H 0.3235 0.0891 0.0940
C22_2 C 0.381(2) 0.1640(9) 0.1944(11)
H14_2 H 0.4009 0.1363 0.2509
C23_2 C 0.4009(16) 0.2339(7) 0.2035(11)
H15_2 H 0.4338 0.2522 0.2669
C24_2 C 0.3257(11) 0.2472(7) 0.0358(9)
N5_2 N 0.5608(10) 0.3764(5) 0.0771(7)
O10_2 O 0.2229(9) 0.4122(5) 0.4099(6)
N6_2 N 0.0475(10) 0.4887(5) 0.2433(7)
N7_2 N 0.2576(9) 0.5556(5) 0.3984(7)
O1_2 O 0.2923(8) 0.4028(4) 0.9971(6)
O7_2 O 0.2229(9) 0.0878(5) 0.9099(6)
O8_2 O 0.2340(10) 0.1914(5) 0.8454(7)
N2_2 N 0.4392(10) 0.6236(5) 0.9229(7)
C1_2 C 0.0044(12) 0.4766(6) 0.8418(9)
C2_2 C 0.0370(16) 0.5308(7) 0.7043(10)
H2_2 H 0.0070 0.5556 0.6458
C3_2 C 0.1654(15) 0.5157(8) 0.7336(11)
H3_2 H 0.2197 0.5307 0.6948
C4_2 C 0.2154(13) 0.4789(7) 0.8189(10)
H4_2 H 0.3024 0.4687 0.8384
C5_2 C 0.1318(11) 0.4572(6) 0.8753(8)
C6_2 C 0.1757(16) 0.4185(6) 0.9726(9)
C9_2 C 0.2280(16) 0.6596(8) 0.9254(13)
H6_2 H 0.1554 0.6850 0.8964
C10_2 C 0.3316(15) 0.6601(7) 0.8864(11)
H7_2 H 0.3286 0.6874 0.8307
C19_2 C 0.2462(12) 0.1505(8) 0.9162(10)
H16_2 H 0.3081 0.2759 0.9804
Ni5_2 Ni 0.59551(15) 0.61806(8) 0.86075(11)
N1_2 N 0.9525(10) 0.5113(5) 0.7567(7)
H1 H 0.9495 0.4646 0.8816
C16_3 C 0.8135(19) 0.1572(8) 0.0384(13)
H10_3 H 0.8696 0.1940 0.0468
C17_3 C 0.8252(18) 0.1083(8) 0.1102(12)
H11_3 H 0.8926 0.1113 0.1671
C18_3 C 0.6529(12) 0.0502(7) 0.0156(9)
H12_3 H 0.6012 0.0115 0.0059
O1_3 O 0.2923(8) 0.0972(4) 0.4971(6)
O2_3 O 0.0925(9) 0.0946(5) 0.5183(6)
O4_3 O 0.4344(8) 0.0125(4) 0.6446(6)
O5_3 O 0.5203(8) 0.1307(4) 0.7775(6)
O6_3 O 0.4409(8) 0.0449(5) 0.8538(6)
O8_3 O 0.2340(10) 0.3086(5) 0.3454(7)
O9_3 O 0.2378(7) 0.1091(4) 0.6977(5)
N4_3 N 0.3747(9) 0.2243(5) 0.6257(7)
C1_3 C 0.0044(12) 0.0234(6) 0.3418(9)
C4_3 C 0.2154(13) 0.0211(7) 0.3189(10)
H4_3 H 0.3024 0.0313 0.3384
C5_3 C 0.1318(11) 0.0428(6) 0.3753(8)
C6_3 C 0.1757(16) 0.0815(6) 0.4726(9)
C13_3 C 0.5227(13) 0.0896(7) 0.8501(9)
C14_3 C 0.6325(12) 0.0978(7) 0.9408(9)
C15_3 C 0.7144(17) 0.1503(8) 0.9517(12)
H9_3 H 0.7055 0.1825 0.9010
C19_3 C 0.2462(12) 0.3495(8) 0.4162(10)
C20_3 C 0.2999(13) 0.3206(7) 0.5197(9)
C21_3 C 0.3334(17) 0.3639(8) 0.6018(12)
H13_3 H 0.3235 0.4109 0.5940
C22_3 C 0.381(2) 0.3360(9) 0.6944(11)
H14_3 H 0.4009 0.3637 0.7509
C23_3 C 0.4009(16) 0.2661(7) 0.7035(11)
H15_3 H 0.4338 0.2478 0.7669
C24_3 C 0.3257(11) 0.2528(7) 0.5358(9)
H16_3 H 0.3081 0.2241 0.4804
O3_3 O 0.2717(8) 0.9593(4) 0.6881(6)
C2_3 C 0.0370(16) 0.9692(7) 0.2043(10)
H2_3 H 0.0070 0.9444 0.1458
C3_3 C 0.1654(15) 0.9843(8) 0.2336(11)
H3_3 H 0.2197 0.9693 0.1948
C7_3 C 0.3510(14) 0.9677(7) 0.6348(9)
C8_3 C 0.2328(17) 0.8802(7) 0.5103(11)
H5_3 H 0.1643 0.8807 0.5404
C9_3 C 0.2280(16) 0.8404(8) 0.4254(13)
H6_3 H 0.1554 0.8150 0.3964
C10_3 C 0.3316(15) 0.8399(7) 0.3864(11)
H7_3 H 0.3286 0.8126 0.3307
C11_3 C 0.4396(13) 0.9148(6) 0.5038(9)
H8_3 H 0.5126 0.9405 0.5310
C12_3 C 0.3403(13) 0.9184(6) 0.5482(9)
H1_2 H 0.0505 0.5354 0.1184
O1_4 O 0.7077(8) 0.5972(4) 0.0029(6)
O8_4 O 0.7660(10) 0.8086(5) 0.1546(7)
C1_4 C 0.9956(12) 0.5234(6) 0.1582(9)
C2_4 C 0.9630(16) 0.4692(7) 0.2957(10)
H2_4 H 0.9930 0.4444 0.3542
C3_4 C 0.8346(15) 0.4843(8) 0.2664(11)
H3_4 H 0.7803 0.4693 0.3052
C4_4 C 0.7846(13) 0.5211(7) 0.1811(10)
H4_4 H 0.6976 0.5313 0.1616
C5_4 C 0.8682(11) 0.5428(6) 0.1247(8)
C6_4 C 0.8243(16) 0.5815(6) 0.0274(9)
C9_4 C 0.7720(16) 0.3404(8) 0.0746(13)
H6_4 H 0.8446 0.3150 0.1036
C10_4 C 0.6684(15) 0.3399(7) 0.1136(11)
H7_4 H 0.6714 0.3126 0.1693
C19_4 C 0.7538(12) 0.8495(8) 0.0838(10)
H16_4 H 0.6919 0.7241 0.0196
O2_4 O 0.9075(9) 0.5946(5) 0.9817(6)
O3_4 O 0.7283(8) 0.4593(4) 0.8119(6)
O4_4 O 0.5656(8) 0.5125(4) 0.8554(6)
O5_4 O 0.4797(8) 0.6307(4) 0.7225(6)
O6_4 O 0.5591(8) 0.5449(5) 0.6462(6)
O9_4 O 0.7622(7) 0.6091(4) 0.8023(5)
N4_4 N 0.6253(9) 0.7243(5) 0.8743(7)
C7_4 C 0.6490(14) 0.4677(7) 0.8652(9)
C8_4 C 0.7672(17) 0.3802(7) 0.9897(11)
H5_4 H 0.8357 0.3807 0.9596
C11_4 C 0.5604(13) 0.4148(6) 0.9962(9)
H8_4 H 0.4874 0.4405 0.9690
C12_4 C 0.6597(13) 0.4184(6) 0.9518(9)
C13_4 C 0.4773(13) 0.5896(7) 0.6499(9)
C14_4 C 0.3675(12) 0.5978(7) 0.5592(9)
C15_4 C 0.2856(17) 0.6503(8) 0.5483(12)
H9_4 H 0.2945 0.6825 0.5990
C16_4 C 0.1865(19) 0.6572(8) 0.4616(13)
H10_4 H 0.1304 0.6940 0.4532
C17_4 C 0.1748(18) 0.6083(8) 0.3898(12)
H11_4 H 0.1074 0.6113 0.3329
C18_4 C 0.3471(12) 0.5502(7) 0.4844(9)
H12_4 H 0.3988 0.5115 0.4941
C20_4 C 0.7001(13) 0.8206(7) 0.9803(9)
C21_4 C 0.6666(17) 0.8639(8) 0.8982(12)
H13_4 H 0.6765 0.9109 0.9060
C22_4 C 0.619(2) 0.8360(9) 0.8056(11)
H14_4 H 0.5991 0.8637 0.7491
C23_4 C 0.5991(16) 0.7661(7) 0.7965(11)
H15_4 H 0.5662 0.7478 0.7331
C24_4 C 0.6743(11) 0.7528(7) 0.9642(9)
H1_3 H 0.0505 0.9646 0.6184
H1_4 H 0.9495 0.0354 0.3816
loop_
_geom_bond_atom_site_label_1
_geom_bond_atom_site_label_2
_geom_bond_site_symmetry_1
_geom_bond_site_symmetry_2
Ni4 N1 1_555 1_555
O3 C7 1_555 1_555
N2 C10 1_555 1_555
H2 C2 1_555 1_555
C3 C2 1_555 1_555
H3 C3 1_555 1_555
C8 H5 1_555 1_555
C9 C8 1_555 1_555
H6 C9 1_555 1_555
C10 C9 1_555 1_555
H7 C10 1_555 1_555
C11 N2 1_555 1_555
H8 C11 1_555 1_555
C12 C7 1_555 1_555
Ni5 N2 1_555 1_555
C8 C12 1_555 1_555
C11 C12 1_555 1_555
Ni1 O1 1_555 1_555
O1 C6 1_555 1_555
O2 C6 1_555 1_555
O4 Ni1 1_555 1_555
O5 Ni1 1_555 1_555
O6 Ni2 1_555 1_555
O7 C19 1_555 1_555
O8 C19 1_555 1_555
O9 Ni1 1_555 1_555
N4 Ni1 1_555 1_555
H4 C4 1_555 1_555
C5 C1 1_555 1_555
C6 C5 1_555 1_555
C13 O5 1_555 1_555
C14 C13 1_555 1_555
C15 C14 1_555 1_555
H9 C15 1_555 1_555
C19 C20 1_555 1_555
C20 C21 1_555 1_555
C21 H13 1_555 1_555
C22 C21 1_555 1_555
H14 C22 1_555 1_555
C23 N4 1_555 1_555
H15 C23 1_555 1_555
C24 N4 1_555 1_555
H16 C24 1_555 1_555
N5 Ni1 1_555 1_555
O10 Ni2 1_555 1_555
N6 Ni2 1_555 1_555
Ni3 O7 1_555 1_555
Ni2 O9 1_555 1_555
O6 C13 1_555 1_555
C4 C5 1_555 1_555
C20 C24 1_555 1_555
C22 C23 1_555 1_555
N3 C17 1_555 1_555
H10 C16 1_555 1_555
C17 C16 1_555 1_555
H11 C17 1_555 1_555
C18 N3 1_555 1_555
H12 C18 1_555 1_555
Ni2_2 O3_2 1_555 1_555
O3_2 C7_2 1_555 1_555
O4_2 Ni1_2 1_555 1_555
O5_2 Ni1_2 1_555 1_555
O6_2 Ni2_2 1_555 1_555
O9_2 Ni1_2 1_555 1_555
N3_2 C17_2 1_555 1_555
N4_2 Ni1_2 1_555 1_555
C7_2 O4_2 1_555 1_555
C8_2 H5_2 1_555 1_555
H8_2 C11_2 1_555 1_555
C12_2 C7_2 1_555 1_555
C13_2 O5_2 1_555 1_555
C14_2 C13_2 1_555 1_555
C15_2 C14_2 1_555 1_555
H9_2 C15_2 1_555 1_555
C16_2 C15_2 1_555 1_555
H10_2 C16_2 1_555 1_555
C17_2 C16_2 1_555 1_555
H11_2 C17_2 1_555 1_555
C18_2 N3_2 1_555 1_555
H12_2 C18_2 1_555 1_555
C20_2 C21_2 1_555 1_555
C21_2 H13_2 1_555 1_555
C22_2 C21_2 1_555 1_555
H14_2 C22_2 1_555 1_555
C23_2 N4_2 1_555 1_555
H15_2 C23_2 1_555 1_555
C24_2 N4_2 1_555 1_555
N5_2 Ni1_2 1_555 1_555
O10_2 Ni2_2 1_555 1_555
N6_2 Ni2_2 1_555 1_555
N7_2 Ni2_2 1_555 1_555
Ni3 N3_2 1_555 1_555
Ni2_2 O9_2 1_555 1_555
O6_2 C13_2 1_555 1_555
C8_2 C12_2 1_555 1_555
C11_2 C12_2 1_555 1_555
C14_2 C18_2 1_555 1_555
C20_2 C24_2 1_555 1_555
C22_2 C23_2 1_555 1_555
O1_2 C6_2 1_555 1_555
O7_2 C19_2 1_555 1_555
O8_2 C19_2 1_555 1_555
N2_2 C10_2 1_555 1_555
H2_2 C2_2 1_555 1_555
C3_2 C2_2 1_555 1_555
H3_2 C3_2 1_555 1_555
C4_2 C3_2 1_555 1_555
H4_2 C4_2 1_555 1_555
C5_2 C1_2 1_555 1_555
C6_2 C5_2 1_555 1_555
H6_2 C9_2 1_555 1_555
C10_2 C9_2 1_555 1_555
H7_2 C10_2 1_555 1_555
Ni4 O7_2 1_555 1_555
Ni5_2 N2_2 1_555 1_555
C4_2 C5_2 1_555 1_555
Ni3 N1_2 1_555 1_555
N7 C17_3 1_555 1_555
H10_3 C16_3 1_555 1_555
C17_3 C16_3 1_555 1_555
H11_3 C17_3 1_555 1_555
C18_3 N7 1_555 1_555
H12_3 C18_3 1_555 1_555
Ni5 O1_3 1_555 1_555
O1_3 C6_3 1_555 1_555
O2_3 C6_3 1_555 1_555
O4_3 Ni5 1_555 1_555
O5_3 Ni5 1_555 1_555
O6_3 Ni4 1_555 1_555
O10_2 C19_3 1_555 1_555
O8_3 C19_3 1_555 1_555
O9_3 Ni5 1_555 1_555
N4_3 Ni5 1_555 1_555
H4_3 C4_3 1_555 1_555
C5_3 C1_3 1_555 1_555
C6_3 C5_3 1_555 1_555
C13_3 O5_3 1_555 1_555
C14_3 C13_3 1_555 1_555
C15_3 C14_3 1_555 1_555
H9_3 C15_3 1_555 1_555
C19_3 C20_3 1_555 1_555
C20_3 C21_3 1_555 1_555
C21_3 H13_3 1_555 1_555
C22_3 C21_3 1_555 1_555
H14_3 C22_3 1_555 1_555
C23_3 N4_3 1_555 1_555
H15_3 C23_3 1_555 1_555
C24_3 N4_3 1_555 1_555
H16_3 C24_3 1_555 1_555
Ni4 O9_3 1_555 1_555
O6_3 C13_3 1_555 1_555
C4_3 C5_3 1_555 1_555
C20_3 C24_3 1_555 1_555
C22_3 C23_3 1_555 1_555
O3_3 C7_3 1_555 1_555
N5 C10_3 1_555 1_555
H2_3 C2_3 1_555 1_555
C3_3 C2_3 1_555 1_555
H3_3 C3_3 1_555 1_555
C8_3 H5_3 1_555 1_555
C9_3 C8_3 1_555 1_555
H6_3 C9_3 1_555 1_555
C10_3 C9_3 1_555 1_555
H7_3 C10_3 1_555 1_555
C11_3 N5 1_555 1_555
H8_3 C11_3 1_555 1_555
C12_3 C7_3 1_555 1_555
C8_3 C12_3 1_555 1_555
C11_3 C12_3 1_555 1_555
O1_4 C6_4 1_555 1_555
O10 C19_4 1_555 1_555
O8_4 C19_4 1_555 1_555
N5_2 C10_4 1_555 1_555
H2_4 C2_4 1_555 1_555
C3_4 C2_4 1_555 1_555
H3_4 C3_4 1_555 1_555
C4_4 C3_4 1_555 1_555
H4_4 C4_4 1_555 1_555
C5_4 C1_4 1_555 1_555
C6_4 C5_4 1_555 1_555
H6_4 C9_4 1_555 1_555
C10_4 C9_4 1_555 1_555
H7_4 C10_4 1_555 1_555
C4_4 C5_4 1_555 1_555
Ni3 O3_4 1_555 1_555
O3_4 C7_4 1_555 1_555
O4_4 Ni5_2 1_555 1_555
O5_4 Ni5_2 1_555 1_555
O6_4 Ni3 1_555 1_555
O9_4 Ni5_2 1_555 1_555
N7_2 C17_4 1_555 1_555
N4_4 Ni5_2 1_555 1_555
C7_4 O4_4 1_555 1_555
C8_4 H5_4 1_555 1_555
H8_4 C11_4 1_555 1_555
C12_4 C7_4 1_555 1_555
C13_4 O5_4 1_555 1_555
C14_4 C13_4 1_555 1_555
C15_4 C14_4 1_555 1_555
H9_4 C15_4 1_555 1_555
C16_4 C15_4 1_555 1_555
H10_4 C16_4 1_555 1_555
C17_4 C16_4 1_555 1_555
H11_4 C17_4 1_555 1_555
C18_4 N7_2 1_555 1_555
H12_4 C18_4 1_555 1_555
C20_4 C21_4 1_555 1_555
C21_4 H13_4 1_555 1_555
C22_4 C21_4 1_555 1_555
H14_4 C22_4 1_555 1_555
C23_4 N4_4 1_555 1_555
H15_4 C23_4 1_555 1_555
C24_4 N4_4 1_555 1_555
Ni3 O9_4 1_555 1_555
O6_4 C13_4 1_555 1_555
C8_4 C12_4 1_555 1_555
C11_4 C12_4 1_555 1_555
C14_4 C18_4 1_555 1_555
C20_4 C24_4 1_555 1_555
C22_4 C23_4 1_555 1_555

#END
