
###############################################################################
#
# This file contains modified crystal structure data generated from the
# MOF subset of the Cambridge Structural Database (CSD) v543 
# hosted by the Cambridge Crystallographic Data Centre (CCDC).
#
# This work is licensed under the Creative Commons
# Attribution-NonCommercial-ShareAlike 4.0 International License.
# To view a copy of this license, visit
# http://creativecommons.org/licenses/by-nc-sa/4.0/
# or send a letter to
# Creative Commons, PO Box 1866, Mountain View, CA 94042, USA.
#
# CIF created using the CSD Python API on 29 September 2022
# The structure has been converted into the P1 space group
# The structure has a 3D framework
# The original CSD entry XABNOG is in the monoclinic crystal system
# The framework has been calculated to contain at least 10.0% void space
# The void calculation uses a probe of radius 1.32A, grid spacing 0.4
#
###############################################################################

data_XABNOG
_chemical_formula_moiety         '(C96 H64 Bi8 N24 O72)n'
_symmetry_cell_setting           triclinic
_symmetry_space_group_name_H-M   'P 1'
_symmetry_Int_Tables_number      1
_space_group_name_Hall           'P 1'
loop_
_symmetry_equiv_pos_site_id
_symmetry_equiv_pos_as_xyz
1 x,y,z
_cell_length_a                   23.4678(10)
_cell_length_b                   13.3335(4)
_cell_length_c                   10.9118(5)
_cell_angle_alpha                90
_cell_angle_beta                 99.762(3)
_cell_angle_gamma                90
_cell_volume                     3364.95
loop_
_atom_site_label
_atom_site_type_symbol
_atom_site_fract_x
_atom_site_fract_y
_atom_site_fract_z
Bi1 Bi 0.335900(4) 0.266678(9) 0.596291(9)
C1 C 0.49507(14) 0.2713(2) 0.5578(3)
H1 H 0.4921 0.3274 0.6069
C2 C 0.54586(14) 0.2170(3) 0.5722(3)
C3 C 0.55006(15) 0.1338(3) 0.4988(3)
H2 H 0.5842 0.0969 0.5080
C4 C 0.50290(16) 0.1060(3) 0.4114(3)
H3 H 0.5050 0.0500 0.3616
C5 C 0.45294(15) 0.1617(3) 0.3986(3)
H4 H 0.4213 0.1437 0.3392
C6 C 0.29163(13) 0.3878(2) 0.2661(3)
H5 H 0.2839 0.4334 0.3257
C7 C 0.30823(14) 0.4216(3) 0.1578(3)
C8 C 0.31964(15) 0.3530(3) 0.0685(3)
C9 C 0.31427(16) 0.2520(3) 0.0922(3)
H7 H 0.3219 0.2050 0.0340
C10 C 0.29778(15) 0.2201(3) 0.2012(3)
H8 H 0.2943 0.1520 0.2171
C11 C 0.59441(15) 0.2450(3) 0.6735(3)
C12 C 0.31497(14) 0.5320(3) 0.1433(3)
N1 N 0.36230(13) 0.0408(2) 0.6351(3)
N2 N 0.44971(13) 0.2421(2) 0.4717(3)
N3 N 0.28678(11) 0.2896(2) 0.2848(2)
O1 O 0.40029(10) 0.2942(2) 0.4587(2)
O2 O 0.27179(10) 0.25724(18) 0.3916(2)
O3 O 0.39999(11) 0.10548(19) 0.6175(2)
O4 O 0.31033(11) 0.0603(2) 0.5960(3)
O6 O 0.58269(10) 0.30342(19) 0.75775(19)
O7 O 0.64312(10) 0.2068(2) 0.6753(2)
O8 O 0.33377(10) 0.56334(18) 0.0477(2)
O9 O 0.30328(10) 0.59047(18) 0.2247(2)
Bi2 Bi 0.664100(4) 0.266678(9) 0.903709(9)
Bi3 Bi 0.335900(4) 0.733322(9) 0.096291(9)
Bi4 Bi 0.164100(4) 0.233322(9) 0.403709(9)
O10 O 0.22821(10) 0.24276(18) 0.6084(2)
O11 O 0.41731(10) 0.30342(19) 0.74225(19)
O12 O 0.35688(10) 0.2068(2) 0.8247(2)
O13 O 0.33377(10) 0.43666(18) 0.5477(2)
O14 O 0.30328(10) 0.40953(18) 0.7247(2)
C3_2 C 0.44994(15) 0.1338(3) 0.0012(3)
C4_2 C 0.49710(16) 0.1060(3) 0.0886(3)
H3_2 H 0.4950 0.0500 0.1384
C5_2 C 0.54706(15) 0.1617(3) 0.1014(3)
H4_2 H 0.5787 0.1437 0.1608
C6_2 C 0.70837(13) 0.3878(2) 0.2339(3)
H5_2 H 0.7161 0.4334 0.1743
C7_2 C 0.69177(14) 0.4216(3) 0.3422(3)
C8_2 C 0.68036(15) 0.3530(3) 0.4315(3)
H6 H 0.6694 0.3747 0.5051
C9_2 C 0.68573(16) 0.2520(3) 0.4078(3)
H7_2 H 0.6781 0.2050 0.4660
C10_2 C 0.70222(15) 0.2201(3) 0.2988(3)
H8_2 H 0.7057 0.1520 0.2829
C12_2 C 0.68503(14) 0.5320(3) 0.3567(3)
N2_2 N 0.55029(13) 0.2421(2) 0.0283(3)
N3_2 N 0.71322(11) 0.2896(2) 0.2152(2)
O1_2 O 0.59971(10) 0.2942(2) 0.0413(2)
O2_2 O 0.72821(10) 0.25724(18) 0.1084(2)
O8_2 O 0.66623(10) 0.56334(18) 0.4523(2)
O9_2 O 0.69672(10) 0.59047(18) 0.2753(2)
Bi3_2 Bi 0.664100(4) 0.733322(9) 0.403709(9)
Bi4_2 Bi 0.835900(4) 0.233322(9) 0.096291(9)
C1_2 C 0.50493(14) 0.2713(2) 0.9422(3)
H1_2 H 0.5079 0.3274 0.8931
C2_2 C 0.45414(14) 0.2170(3) 0.9278(3)
H2_2 H 0.4158 0.0969 0.9920
C11_2 C 0.40559(15) 0.2450(3) 0.8265(3)
N1_2 N 0.63770(13) 0.0408(2) 0.8649(3)
O3_2 O 0.60001(11) 0.10548(19) 0.8825(2)
O4_2 O 0.68967(11) 0.0603(2) 0.9040(3)
O10_2 O 0.77179(10) 0.24276(18) 0.8916(2)
O13_2 O 0.66623(10) 0.43666(18) 0.9523(2)
O14_2 O 0.69672(10) 0.40953(18) 0.7753(2)
C2_3 C 0.04586(14) 0.7170(3) 0.5722(3)
C3_3 C 0.05006(15) 0.6338(3) 0.4988(3)
H2_3 H 0.0842 0.5969 0.5080
C4_3 C 0.00290(16) 0.6060(3) 0.4114(3)
H3_3 H 0.0050 0.5500 0.3616
C11_3 C 0.09441(15) 0.7450(3) 0.6735(3)
O6_2 O 0.08269(10) 0.80342(19) 0.75775(19)
O7_2 O 0.14312(10) 0.7068(2) 0.6753(2)
Bi2_2 Bi 0.164100(4) 0.766678(9) 0.903709(9)
C12_3 C 0.81497(14) 0.0320(3) 0.1433(3)
O8_3 O 0.83377(10) 0.06334(18) 0.0477(2)
O9_3 O 0.80328(10) 0.09047(18) 0.2247(2)
Bi1_2 Bi 0.835900(4) 0.766678(9) 0.596291(9)
C1_3 C 0.99507(14) 0.7713(2) 0.5578(3)
H1_3 H 0.9921 0.8274 0.6069
C5_3 C 0.95294(15) 0.6617(3) 0.3986(3)
H4_3 H 0.9213 0.6437 0.3392
C6_3 C 0.79163(13) 0.8878(2) 0.2661(3)
H5_3 H 0.7839 0.9334 0.3257
C7_3 C 0.80823(14) 0.9216(3) 0.1578(3)
C8_3 C 0.81964(15) 0.8530(3) 0.0685(3)
C9_3 C 0.81427(16) 0.7520(3) 0.0922(3)
H7_3 H 0.8219 0.7050 0.0340
C10_3 C 0.79778(15) 0.7201(3) 0.2012(3)
H8_3 H 0.7943 0.6520 0.2171
N1_3 N 0.86230(13) 0.5408(2) 0.6351(3)
N2_3 N 0.94971(13) 0.7421(2) 0.4717(3)
N3_3 N 0.78678(11) 0.7896(2) 0.2848(2)
O1_3 O 0.90029(10) 0.7942(2) 0.4587(2)
O2_3 O 0.77179(10) 0.75724(18) 0.3916(2)
O3_3 O 0.89999(11) 0.60548(19) 0.6175(2)
O4_3 O 0.81033(11) 0.5603(2) 0.5960(3)
O5 O 0.87756(13) 0.4622(2) 0.6894(3)
O10_3 O 0.72821(10) 0.74276(18) 0.6084(2)
O11_2 O 0.91731(10) 0.80342(19) 0.74225(19)
O12_2 O 0.85688(10) 0.7068(2) 0.8247(2)
O13_3 O 0.83377(10) 0.93666(18) 0.5477(2)
O14_3 O 0.80328(10) 0.90953(18) 0.7247(2)
C12_4 C 0.18503(14) 0.0320(3) 0.3567(3)
O8_4 O 0.16623(10) 0.06334(18) 0.4523(2)
O9_4 O 0.19672(10) 0.09047(18) 0.2753(2)
C5_4 C 0.04706(15) 0.6617(3) 0.1014(3)
H4_4 H 0.0787 0.6437 0.1608
C6_4 C 0.20837(13) 0.8878(2) 0.2339(3)
H5_4 H 0.2161 0.9334 0.1743
C7_4 C 0.19177(14) 0.9216(3) 0.3422(3)
C8_4 C 0.18036(15) 0.8530(3) 0.4315(3)
H6_2 H 0.1694 0.8747 0.5051
C9_4 C 0.18573(16) 0.7520(3) 0.4078(3)
H7_4 H 0.1781 0.7050 0.4660
C10_4 C 0.20222(15) 0.7201(3) 0.2988(3)
H8_4 H 0.2057 0.6520 0.2829
N2_4 N 0.05029(13) 0.7421(2) 0.0283(3)
N3_4 N 0.21322(11) 0.7896(2) 0.2152(2)
O1_4 O 0.09971(10) 0.7942(2) 0.0413(2)
O2_4 O 0.22821(10) 0.75724(18) 0.1084(2)
C1_4 C 0.00493(14) 0.7713(2) 0.9422(3)
H1_4 H 0.0079 0.8274 0.8931
N1_4 N 0.13770(13) 0.5408(2) 0.8649(3)
O3_4 O 0.10001(11) 0.60548(19) 0.8825(2)
O4_4 O 0.18967(11) 0.5603(2) 0.9040(3)
O5_2 O 0.12244(13) 0.4622(2) 0.8106(3)
O10_4 O 0.27179(10) 0.74276(18) 0.8916(2)
O13_4 O 0.16623(10) 0.93666(18) 0.9523(2)
O14_4 O 0.19672(10) 0.90953(18) 0.7753(2)
C2_4 C 0.95414(14) 0.7170(3) 0.9278(3)
H2_4 H 0.9158 0.5969 0.9920
C11_4 C 0.90559(15) 0.7450(3) 0.8265(3)
C1_5 C 0.50493(14) 0.7287(2) 0.4422(3)
H1_5 H 0.5079 0.6726 0.3931
C2_5 C 0.45414(14) 0.7830(3) 0.4278(3)
C3_4 C 0.44994(15) 0.8662(3) 0.5012(3)
H2_5 H 0.4158 0.9031 0.4920
C4_4 C 0.49710(16) 0.8940(3) 0.5886(3)
H3_4 H 0.4950 0.9500 0.6384
C5_5 C 0.54706(15) 0.8383(3) 0.6014(3)
H4_5 H 0.5787 0.8563 0.6608
C6_5 C 0.70837(13) 0.6122(2) 0.7339(3)
H5_5 H 0.7161 0.5666 0.6743
C7_5 C 0.69177(14) 0.5784(3) 0.8422(3)
C8_5 C 0.68036(15) 0.6470(3) 0.9315(3)
C9_5 C 0.68573(16) 0.7480(3) 0.9078(3)
H7_5 H 0.6781 0.7950 0.9660
C10_5 C 0.70222(15) 0.7799(3) 0.7988(3)
H8_5 H 0.7057 0.8480 0.7829
C11_5 C 0.40559(15) 0.7550(3) 0.3265(3)
C12_5 C 0.68503(14) 0.4680(3) 0.8567(3)
N1_5 N 0.63770(13) 0.9592(2) 0.3649(3)
N2_5 N 0.55029(13) 0.7579(2) 0.5283(3)
N3_5 N 0.71322(11) 0.7104(2) 0.7152(2)
O1_5 O 0.59971(10) 0.7058(2) 0.5413(2)
O3_5 O 0.60001(11) 0.89452(19) 0.3825(2)
O4_5 O 0.68967(11) 0.9397(2) 0.4040(3)
O6_3 O 0.41731(10) 0.69658(19) 0.24225(19)
O7_3 O 0.35688(10) 0.7932(2) 0.3247(2)
O11_3 O 0.58269(10) 0.69658(19) 0.25775(19)
O12_3 O 0.64312(10) 0.7932(2) 0.1753(2)
C1_6 C 0.49507(14) 0.7287(2) 0.0578(3)
H1_6 H 0.4921 0.6726 0.1069
C2_6 C 0.54586(14) 0.7830(3) 0.0722(3)
H2_6 H 0.5842 0.9031 0.0080
C11_6 C 0.59441(15) 0.7550(3) 0.1735(3)
N1_6 N 0.36230(13) 0.9592(2) 0.1351(3)
O3_6 O 0.39999(11) 0.89452(19) 0.1175(2)
O4_6 O 0.31033(11) 0.9397(2) 0.0960(3)
C3_5 C 0.55006(15) 0.8662(3) 0.9988(3)
C4_5 C 0.50290(16) 0.8940(3) 0.9114(3)
H3_5 H 0.5050 0.9500 0.8616
C5_6 C 0.45294(15) 0.8383(3) 0.8986(3)
H4_6 H 0.4213 0.8563 0.8392
C6_6 C 0.29163(13) 0.6122(2) 0.7661(3)
H5_6 H 0.2839 0.5666 0.8257
C7_6 C 0.30823(14) 0.5784(3) 0.6578(3)
C8_6 C 0.31964(15) 0.6470(3) 0.5685(3)
H6_3 H 0.3306 0.6253 0.4949
C9_6 C 0.31427(16) 0.7480(3) 0.5922(3)
H7_6 H 0.3219 0.7950 0.5340
C10_6 C 0.29778(15) 0.7799(3) 0.7012(3)
H8_6 H 0.2943 0.8480 0.7171
C12_6 C 0.31497(14) 0.4680(3) 0.6433(3)
N2_6 N 0.44971(13) 0.7579(2) 0.9717(3)
N3_6 N 0.28678(11) 0.7104(2) 0.7848(2)
O1_6 O 0.40029(10) 0.7058(2) 0.9587(2)
C1_7 C 0.00493(14) 0.2287(2) 0.4422(3)
H1_7 H 0.0079 0.1726 0.3931
C5_7 C 0.04706(15) 0.3383(3) 0.6014(3)
H4_7 H 0.0787 0.3563 0.6608
C6_7 C 0.20837(13) 0.1122(2) 0.7339(3)
H5_7 H 0.2161 0.0666 0.6743
C7_7 C 0.19177(14) 0.0784(3) 0.8422(3)
C8_7 C 0.18036(15) 0.1470(3) 0.9315(3)
C9_7 C 0.18573(16) 0.2480(3) 0.9078(3)
H7_7 H 0.1781 0.2950 0.9660
C10_7 C 0.20222(15) 0.2799(3) 0.7988(3)
H8_7 H 0.2057 0.3480 0.7829
N1_7 N 0.13770(13) 0.4592(2) 0.3649(3)
N2_7 N 0.05029(13) 0.2579(2) 0.5283(3)
N3_7 N 0.21322(11) 0.2104(2) 0.7152(2)
O1_7 O 0.09971(10) 0.2058(2) 0.5413(2)
O3_7 O 0.10001(11) 0.39452(19) 0.3825(2)
O4_7 O 0.18967(11) 0.4397(2) 0.4040(3)
O5_3 O 0.12244(13) 0.5378(2) 0.3106(3)
O11_4 O 0.08269(10) 0.19658(19) 0.25775(19)
O12_4 O 0.14312(10) 0.2932(2) 0.1753(2)
C12_7 C 0.18503(14) 0.9680(3) 0.8567(3)
C2_7 C 0.95414(14) 0.2830(3) 0.4278(3)
C3_6 C 0.94994(15) 0.3662(3) 0.5012(3)
H2_7 H 0.9158 0.4031 0.4920
C4_6 C 0.99710(16) 0.3940(3) 0.5886(3)
H3_6 H 0.9950 0.4500 0.6384
C11_7 C 0.90559(15) 0.2550(3) 0.3265(3)
O6_4 O 0.91731(10) 0.19658(19) 0.24225(19)
O7_4 O 0.85688(10) 0.2932(2) 0.3247(2)
C2_8 C 0.04586(14) 0.2830(3) 0.0722(3)
H2_8 H 0.0842 0.4031 0.0080
C11_8 C 0.09441(15) 0.2550(3) 0.1735(3)
C1_8 C 0.99507(14) 0.2287(2) 0.0578(3)
H1_8 H 0.9921 0.1726 0.1069
N1_8 N 0.86230(13) 0.4592(2) 0.1351(3)
O3_8 O 0.89999(11) 0.39452(19) 0.1175(2)
O4_8 O 0.81033(11) 0.4397(2) 0.0960(3)
O5_4 O 0.87756(13) 0.5378(2) 0.1894(3)
C5_8 C 0.95294(15) 0.3383(3) 0.8986(3)
H4_8 H 0.9213 0.3563 0.8392
C6_8 C 0.79163(13) 0.1122(2) 0.7661(3)
H5_8 H 0.7839 0.0666 0.8257
C7_8 C 0.80823(14) 0.0784(3) 0.6578(3)
C8_8 C 0.81964(15) 0.1470(3) 0.5685(3)
H6_4 H 0.8306 0.1253 0.4949
C9_8 C 0.81427(16) 0.2480(3) 0.5922(3)
H7_8 H 0.8219 0.2950 0.5340
C10_8 C 0.79778(15) 0.2799(3) 0.7012(3)
H8_8 H 0.7943 0.3480 0.7171
N2_8 N 0.94971(13) 0.2579(2) 0.9717(3)
N3_8 N 0.78678(11) 0.2104(2) 0.7848(2)
O1_8 O 0.90029(10) 0.2058(2) 0.9587(2)
C12_8 C 0.81497(14) 0.9680(3) 0.6433(3)
H6_5 H 0.3306 0.3747 0.9949
O5_5 O 0.37756(13) 0.9622(2) 0.6894(3)
O5_6 O 0.62244(13) 0.9622(2) 0.8106(3)
H6_6 H 0.8306 0.8747 0.9949
C3_7 C 0.94994(15) 0.6338(3) 0.0012(3)
C4_7 C 0.99710(16) 0.6060(3) 0.0886(3)
H3_7 H 0.9950 0.5500 0.1384
O5_7 O 0.62244(13) 0.0378(2) 0.3106(3)
H6_7 H 0.6694 0.6253 0.0051
O5_8 O 0.37756(13) 0.0378(2) 0.1894(3)
H6_8 H 0.1694 0.1253 0.0051
C3_8 C 0.05006(15) 0.3662(3) 0.9988(3)
C4_8 C 0.00290(16) 0.3940(3) 0.9114(3)
H3_8 H 0.0050 0.4500 0.8616
loop_
_geom_bond_atom_site_label_1
_geom_bond_atom_site_label_2
_geom_bond_site_symmetry_1
_geom_bond_site_symmetry_2
Bi1 O1 1_555 1_555
C1 H1 1_555 1_555
C2 C1 1_555 1_555
C3 C2 1_555 1_555
H2 C3 1_555 1_555
C4 C3 1_555 1_555
H3 C4 1_555 1_555
C5 C4 1_555 1_555
H4 C5 1_555 1_555
C6 H5 1_555 1_555
C7 C6 1_555 1_555
C8 C7 1_555 1_555
C9 C8 1_555 1_555
H7 C9 1_555 1_555
C10 C9 1_555 1_555
H8 C10 1_555 1_555
C11 C2 1_555 1_555
C12 C7 1_555 1_555
N1 O3 1_555 1_555
N2 C1 1_555 1_555
N3 C6 1_555 1_555
O1 N2 1_555 1_555
O2 Bi1 1_555 1_555
O3 Bi1 1_555 1_555
O4 Bi1 1_555 1_555
O6 C11 1_555 1_555
O7 C11 1_555 1_555
O8 C12 1_555 1_555
O9 C12 1_555 1_555
Bi2 O6 1_555 1_555
Bi3 O8 1_555 1_555
Bi4 O2 1_555 1_555
O10 Bi1 1_555 1_555
O11 Bi1 1_555 1_555
O12 Bi1 1_555 1_555
O13 Bi1 1_555 1_555
O14 Bi1 1_555 1_555
C5 N2 1_555 1_555
C10 N3 1_555 1_555
N1 O4 1_555 1_555
N3 O2 1_555 1_555
O7 Bi2 1_555 1_555
O9 Bi3 1_555 1_555
Bi4 O10 1_555 1_555
C4_2 C3_2 1_555 1_555
H3_2 C4_2 1_555 1_555
C5_2 C4_2 1_555 1_555
H4_2 C5_2 1_555 1_555
C6_2 H5_2 1_555 1_555
C7_2 C6_2 1_555 1_555
C8_2 C7_2 1_555 1_555
H6 C8_2 1_555 1_555
C9_2 C8_2 1_555 1_555
H7_2 C9_2 1_555 1_555
C10_2 C9_2 1_555 1_555
H8_2 C10_2 1_555 1_555
C12_2 C7_2 1_555 1_555
N3_2 C6_2 1_555 1_555
O1_2 N2_2 1_555 1_555
O8_2 C12_2 1_555 1_555
O9_2 C12_2 1_555 1_555
Bi3_2 O8_2 1_555 1_555
Bi4_2 O2_2 1_555 1_555
C5_2 N2_2 1_555 1_555
C10_2 N3_2 1_555 1_555
N3_2 O2_2 1_555 1_555
O9_2 Bi3_2 1_555 1_555
C1_2 H1_2 1_555 1_555
C2_2 C1_2 1_555 1_555
C11_2 C2_2 1_555 1_555
N1_2 O3_2 1_555 1_555
O3_2 Bi2 1_555 1_555
O4_2 Bi2 1_555 1_555
O11 C11_2 1_555 1_555
O12 C11_2 1_555 1_555
O10_2 Bi2 1_555 1_555
O13_2 Bi2 1_555 1_555
O14_2 Bi2 1_555 1_555
N1_2 O4_2 1_555 1_555
C3_3 C2_3 1_555 1_555
H2_3 C3_3 1_555 1_555
C4_3 C3_3 1_555 1_555
H3_3 C4_3 1_555 1_555
C11_3 C2_3 1_555 1_555
O6_2 C11_3 1_555 1_555
O7_2 C11_3 1_555 1_555
Bi2_2 O6_2 1_555 1_555
O7_2 Bi2_2 1_555 1_555
O8_3 C12_3 1_555 1_555
O9_3 C12_3 1_555 1_555
Bi4_2 O8_3 1_555 1_555
O9_3 Bi4_2 1_555 1_555
Bi1_2 O1_3 1_555 1_555
C1_3 H1_3 1_555 1_555
H4_3 C5_3 1_555 1_555
C6_3 H5_3 1_555 1_555
C7_3 C6_3 1_555 1_555
C8_3 C7_3 1_555 1_555
C9_3 C8_3 1_555 1_555
H7_3 C9_3 1_555 1_555
C10_3 C9_3 1_555 1_555
H8_3 C10_3 1_555 1_555
N1_3 O3_3 1_555 1_555
N2_3 C1_3 1_555 1_555
N3_3 C6_3 1_555 1_555
O1_3 N2_3 1_555 1_555
O2_3 Bi1_2 1_555 1_555
O3_3 Bi1_2 1_555 1_555
O4_3 Bi1_2 1_555 1_555
O5 N1_3 1_555 1_555
Bi3_2 O2_3 1_555 1_555
O10_3 Bi1_2 1_555 1_555
O11_2 Bi1_2 1_555 1_555
O12_2 Bi1_2 1_555 1_555
O13_3 Bi1_2 1_555 1_555
O14_3 Bi1_2 1_555 1_555
C5_3 N2_3 1_555 1_555
C10_3 N3_3 1_555 1_555
N1_3 O4_3 1_555 1_555
N3_3 O2_3 1_555 1_555
Bi3_2 O10_3 1_555 1_555
O8_4 C12_4 1_555 1_555
O9_4 C12_4 1_555 1_555
Bi4 O8_4 1_555 1_555
O9_4 Bi4 1_555 1_555
H4_4 C5_4 1_555 1_555
C6_4 H5_4 1_555 1_555
C7_4 C6_4 1_555 1_555
C8_4 C7_4 1_555 1_555
H6_2 C8_4 1_555 1_555
C9_4 C8_4 1_555 1_555
H7_4 C9_4 1_555 1_555
C10_4 C9_4 1_555 1_555
H8_4 C10_4 1_555 1_555
N3_4 C6_4 1_555 1_555
O1_4 N2_4 1_555 1_555
Bi3 O2_4 1_555 1_555
C5_4 N2_4 1_555 1_555
C10_4 N3_4 1_555 1_555
N3_4 O2_4 1_555 1_555
C1_4 H1_4 1_555 1_555
N1_4 O3_4 1_555 1_555
O3_4 Bi2_2 1_555 1_555
O4_4 Bi2_2 1_555 1_555
O5_2 N1_4 1_555 1_555
O10_4 Bi2_2 1_555 1_555
O13_4 Bi2_2 1_555 1_555
O14_4 Bi2_2 1_555 1_555
N1_4 O4_4 1_555 1_555
C11_4 C2_4 1_555 1_555
O11_2 C11_4 1_555 1_555
O12_2 C11_4 1_555 1_555
Bi3_2 O1_5 1_555 1_555
C1_5 H1_5 1_555 1_555
C2_5 C1_5 1_555 1_555
C3_4 C2_5 1_555 1_555
H2_5 C3_4 1_555 1_555
C4_4 C3_4 1_555 1_555
H3_4 C4_4 1_555 1_555
C5_5 C4_4 1_555 1_555
H4_5 C5_5 1_555 1_555
C6_5 H5_5 1_555 1_555
C7_5 C6_5 1_555 1_555
C8_5 C7_5 1_555 1_555
C9_5 C8_5 1_555 1_555
H7_5 C9_5 1_555 1_555
C10_5 C9_5 1_555 1_555
H8_5 C10_5 1_555 1_555
C11_5 C2_5 1_555 1_555
C12_5 C7_5 1_555 1_555
N1_5 O3_5 1_555 1_555
N2_5 C1_5 1_555 1_555
N3_5 C6_5 1_555 1_555
O1_5 N2_5 1_555 1_555
O3_5 Bi3_2 1_555 1_555
O4_5 Bi3_2 1_555 1_555
O6_3 C11_5 1_555 1_555
O7_3 C11_5 1_555 1_555
O13_2 C12_5 1_555 1_555
O14_2 C12_5 1_555 1_555
Bi3 O6_3 1_555 1_555
O11_3 Bi3_2 1_555 1_555
O12_3 Bi3_2 1_555 1_555
C5_5 N2_5 1_555 1_555
C10_5 N3_5 1_555 1_555
N1_5 O4_5 1_555 1_555
N3_5 O10_3 1_555 1_555
O7_3 Bi3 1_555 1_555
C1_6 H1_6 1_555 1_555
C2_6 C1_6 1_555 1_555
C11_6 C2_6 1_555 1_555
N1_6 O3_6 1_555 1_555
O3_6 Bi3 1_555 1_555
O4_6 Bi3 1_555 1_555
O11_3 C11_6 1_555 1_555
O12_3 C11_6 1_555 1_555
N1_6 O4_6 1_555 1_555
C4_5 C3_5 1_555 1_555
H3_5 C4_5 1_555 1_555
C5_6 C4_5 1_555 1_555
H4_6 C5_6 1_555 1_555
C6_6 H5_6 1_555 1_555
C7_6 C6_6 1_555 1_555
C8_6 C7_6 1_555 1_555
H6_3 C8_6 1_555 1_555
C9_6 C8_6 1_555 1_555
H7_6 C9_6 1_555 1_555
C10_6 C9_6 1_555 1_555
H8_6 C10_6 1_555 1_555
C12_6 C7_6 1_555 1_555
N3_6 C6_6 1_555 1_555
O1_6 N2_6 1_555 1_555
O13 C12_6 1_555 1_555
O14 C12_6 1_555 1_555
C5_6 N2_6 1_555 1_555
C10_6 N3_6 1_555 1_555
N3_6 O10_4 1_555 1_555
Bi4 O1_7 1_555 1_555
C1_7 H1_7 1_555 1_555
H4_7 C5_7 1_555 1_555
C6_7 H5_7 1_555 1_555
C7_7 C6_7 1_555 1_555
C8_7 C7_7 1_555 1_555
C9_7 C8_7 1_555 1_555
H7_7 C9_7 1_555 1_555
C10_7 C9_7 1_555 1_555
H8_7 C10_7 1_555 1_555
N1_7 O3_7 1_555 1_555
N2_7 C1_7 1_555 1_555
N3_7 C6_7 1_555 1_555
O1_7 N2_7 1_555 1_555
O3_7 Bi4 1_555 1_555
O4_7 Bi4 1_555 1_555
O5_3 N1_7 1_555 1_555
O11_4 Bi4 1_555 1_555
O12_4 Bi4 1_555 1_555
C5_7 N2_7 1_555 1_555
C10_7 N3_7 1_555 1_555
N1_7 O4_7 1_555 1_555
N3_7 O10 1_555 1_555
O13_4 C12_7 1_555 1_555
O14_4 C12_7 1_555 1_555
C3_6 C2_7 1_555 1_555
H2_7 C3_6 1_555 1_555
C4_6 C3_6 1_555 1_555
H3_6 C4_6 1_555 1_555
C11_7 C2_7 1_555 1_555
O6_4 C11_7 1_555 1_555
O7_4 C11_7 1_555 1_555
Bi4_2 O6_4 1_555 1_555
O7_4 Bi4_2 1_555 1_555
C11_8 C2_8 1_555 1_555
O11_4 C11_8 1_555 1_555
O12_4 C11_8 1_555 1_555
C1_8 H1_8 1_555 1_555
N1_8 O3_8 1_555 1_555
O3_8 Bi4_2 1_555 1_555
O4_8 Bi4_2 1_555 1_555
O5_4 N1_8 1_555 1_555
N1_8 O4_8 1_555 1_555
H4_8 C5_8 1_555 1_555
C6_8 H5_8 1_555 1_555
C7_8 C6_8 1_555 1_555
C8_8 C7_8 1_555 1_555
H6_4 C8_8 1_555 1_555
C9_8 C8_8 1_555 1_555
H7_8 C9_8 1_555 1_555
C10_8 C9_8 1_555 1_555
H8_8 C10_8 1_555 1_555
N3_8 C6_8 1_555 1_555
O1_8 N2_8 1_555 1_555
C5_8 N2_8 1_555 1_555
C10_8 N3_8 1_555 1_555
N3_8 O10_2 1_555 1_555
O13_3 C12_8 1_555 1_555
O14_3 C12_8 1_555 1_555
C4_7 C3_7 1_555 1_555
H3_7 C4_7 1_555 1_555
C4_8 C3_8 1_555 1_555
H3_8 C4_8 1_555 1_555

#END
