
###############################################################################
#
# This file contains modified crystal structure data generated from the
# MOF subset of the Cambridge Structural Database (CSD) v543 
# hosted by the Cambridge Crystallographic Data Centre (CCDC).
#
# This work is licensed under the Creative Commons
# Attribution-NonCommercial-ShareAlike 4.0 International License.
# To view a copy of this license, visit
# http://creativecommons.org/licenses/by-nc-sa/4.0/
# or send a letter to
# Creative Commons, PO Box 1866, Mountain View, CA 94042, USA.
#
# CIF created using the CSD Python API on 29 September 2022
# The structure has been converted into the P1 space group
# The structure has a 3D framework
# The original CSD entry XADCOW is in the orthorhombic crystal system
# The framework has been calculated to contain at least 10.0% void space
# The void calculation uses a probe of radius 1.32A, grid spacing 0.4
#
###############################################################################

data_XADCOW
_chemical_formula_moiety         '(C96 H48 Fe14 O59)n'
_symmetry_cell_setting           triclinic
_symmetry_space_group_name_H-M   'P 1'
_symmetry_Int_Tables_number      1
_space_group_name_Hall           'P 1'
loop_
_symmetry_equiv_pos_site_id
_symmetry_equiv_pos_as_xyz
1 x,y,z
_cell_length_a                   21.3011(12)
_cell_length_b                   36.873(2)
_cell_length_c                   6.8883(3)
_cell_angle_alpha                90
_cell_angle_beta                 90
_cell_angle_gamma                90
_cell_volume                     5410.32
loop_
_atom_site_label
_atom_site_type_symbol
_atom_site_fract_x
_atom_site_fract_y
_atom_site_fract_z
H2 H 0.1249 0.0886 0.0382
H3 H 0.1784 0.1428 0.0415
Fe4 Fe -0.0000 0.0000 0.0000
Fe5 Fe 0.2500 0.2500 0.0000
Fe8 Fe 0.7500 0.2500 0.0000
O10 O 0.1620(2) 0.26197(16) 0.0878(7)
O20 O 0.2771(3) 0.29978(14) 0.0867(7)
O23 O 0.2712(4) 0.2273(2) 0.2500
H4 H 0.5536 0.2336 0.0393
H5 H 0.4464 0.2336 0.0393
Fe1 Fe -0.0000 0.0000 0.5000
Fe2 Fe 0.2500 0.2500 0.5000
O1 O 0.3380(2) 0.23803(16) 0.5878(7)
O2 O 0.0634(3) 0.03713(13) 0.5869(7)
O3 O 0.2229(3) 0.20022(14) 0.5867(7)
O4 O 0.0000 0.0199(4) 0.2500
C1 C 0.3638(5) 0.2370(3) 0.7500
C2 C 0.4351(4) 0.2339(3) 0.7500
C3 C 0.4680(3) 0.2337(3) 0.5780(12)
H1 H 0.4464 0.2336 0.4607
C4 C 0.0791(5) 0.0494(3) 0.7500
C5 C 0.1177(5) 0.0840(3) 0.7500
C6 C 0.1349(4) 0.0999(2) 0.9216(11)
C7 C 0.1667(5) 0.1325(2) 0.9239(11)
C8 C 0.1813(6) 0.1498(3) 0.7500
C9 C 0.2107(5) 0.1873(3) 0.7500
Fe4_2 Fe -0.0000 0.0000 1.0000
Fe5_2 Fe 0.2500 0.2500 1.0000
Fe7 Fe 0.7500 0.2500 0.5000
Fe8_2 Fe 0.7500 0.2500 1.0000
O6 O 0.3380(2) 0.23803(16) 0.9122(7)
O7 O 0.6620(2) 0.23803(16) 0.5878(7)
O8 O 0.6620(2) 0.23803(16) 0.9122(7)
O9 O 0.1620(2) 0.26197(16) 0.4122(7)
O11 O 0.0634(3) 0.03713(13) 0.9131(7)
O16 O 0.2229(3) 0.20022(14) 0.9133(7)
O19 O 0.2771(3) 0.29978(14) 0.4133(7)
O22 O 0.2288(4) 0.2727(2) 0.7500
C10 C 0.6362(5) 0.2370(3) 0.7500
C11 C 0.5649(4) 0.2339(3) 0.7500
C12 C 0.5320(3) 0.2337(3) 0.5780(12)
C13 C 0.5320(3) 0.2337(3) 0.9220(12)
C14 C 0.4680(3) 0.2337(3) 0.9220(12)
H6 H 0.5536 0.2336 0.4607
C17 C 0.1349(4) 0.0999(2) 0.5784(11)
H7 H 0.1249 0.0886 0.4618
C20 C 0.1667(5) 0.1325(2) 0.5761(11)
H10 H 0.1784 0.1428 0.4585
Fe4_3 Fe 0.0000 1.0000 0.0000
Fe1_2 Fe 0.0000 1.0000 0.5000
Fe4_4 Fe 0.0000 1.0000 1.0000
O15 O 0.0634(3) 0.96287(13) 0.4131(7)
O21 O 0.0000 0.9801(4) 0.7500
Fe4_5 Fe 1.0000 0.0000 0.0000
Fe1_3 Fe 1.0000 0.0000 0.5000
O4_2 O 1.0000 0.0199(4) 0.2500
Fe4_6 Fe 1.0000 0.0000 1.0000
O14 O 0.9366(3) 0.03713(13) 0.5869(7)
Fe4_7 Fe 1.0000 1.0000 0.0000
Fe1_4 Fe 1.0000 1.0000 0.5000
Fe4_8 Fe 1.0000 1.0000 1.0000
Fe9 Fe 0.7500 0.7500 0.5000
Fe10 Fe 0.7500 0.7500 0.0000
O12 O 0.9366(3) 0.96287(13) 0.4131(7)
O13 O 0.9366(3) 0.96287(13) 0.0869(7)
O17 O 0.7771(3) 0.79978(14) 0.4133(7)
O18 O 0.7771(3) 0.79978(14) 0.0867(7)
O21_2 O 1.0000 0.9801(4) 0.7500
C15 C 0.9209(5) 0.9506(3) 0.2500
C16 C 0.8823(5) 0.9160(3) 0.2500
C18 C 0.8651(4) 0.9001(2) 0.0784(11)
C19 C 0.8651(4) 0.9001(2) 0.4216(11)
H9 H 0.8751 0.9114 0.5382
C21 C 0.8333(5) 0.8675(2) 0.0761(11)
C22 C 0.8333(5) 0.8675(2) 0.4239(11)
H12 H 0.8216 0.8572 0.5415
C23 C 0.8187(6) 0.8502(3) 0.2500
C24 C 0.7893(5) 0.8127(3) 0.2500
Fe10_2 Fe 0.7500 0.7500 1.0000
H8 H 0.8751 0.9114 0.9618
H11 H 0.8216 0.8572 0.9585
O14_2 O 0.0634(3) 0.96287(13) 0.0869(7)
O15_2 O 0.9366(3) 0.03713(13) 0.9131(7)
O1_2 O 0.6620(2) 0.76197(16) 0.0878(7)
C1_2 C 0.6362(5) 0.7630(3) 0.2500
C2_2 C 0.5649(4) 0.7661(3) 0.2500
C3_2 C 0.5320(3) 0.7663(3) 0.0780(12)
Fe7_2 Fe 0.2500 0.7500 0.0000
Fe8_3 Fe 0.2500 0.7500 0.5000
O6_2 O 0.6620(2) 0.76197(16) 0.4122(7)
O7_2 O 0.3380(2) 0.76197(16) 0.0878(7)
O8_2 O 0.3380(2) 0.76197(16) 0.4122(7)
O10_2 O 0.8380(2) 0.73803(16) 0.5878(7)
O20_2 O 0.7229(3) 0.70022(14) 0.5867(7)
O22_2 O 0.7712(4) 0.7273(2) 0.2500
O23_2 O 0.7288(4) 0.7727(2) 0.7500
C10_2 C 0.3638(5) 0.7630(3) 0.2500
C11_2 C 0.4351(4) 0.7661(3) 0.2500
C12_2 C 0.4680(3) 0.7663(3) 0.0780(12)
C13_2 C 0.4680(3) 0.7663(3) 0.4220(12)
C14_2 C 0.5320(3) 0.7663(3) 0.4220(12)
H4_2 H 0.4464 0.7664 0.5393
H5_2 H 0.5536 0.7664 0.5393
H1_2 H 0.5536 0.7664 0.9607
Fe7_3 Fe 0.2500 0.7500 1.0000
O9_2 O 0.8380(2) 0.73803(16) 0.9122(7)
O19_2 O 0.7229(3) 0.70022(14) 0.9133(7)
H6_2 H 0.4464 0.7664 0.9607
O17_2 O 0.2229(3) 0.79978(14) 0.0867(7)
O18_2 O 0.2229(3) 0.79978(14) 0.4133(7)
C15_2 C 0.0791(5) 0.9506(3) 0.2500
C16_2 C 0.1177(5) 0.9160(3) 0.2500
C18_2 C 0.1349(4) 0.9001(2) 0.4216(11)
C19_2 C 0.1349(4) 0.9001(2) 0.0784(11)
H8_2 H 0.1249 0.9114 0.5382
C21_2 C 0.1667(5) 0.8675(2) 0.4239(11)
C22_2 C 0.1667(5) 0.8675(2) 0.0761(11)
H11_2 H 0.1784 0.8572 0.5415
C23_2 C 0.1813(6) 0.8502(3) 0.2500
C24_2 C 0.2107(5) 0.8127(3) 0.2500
H9_2 H 0.1249 0.9114 0.9618
H12_2 H 0.1784 0.8572 0.9585
O5 O 0.7288(4) 0.2273(2) 0.2500
O9_3 O 0.8380(2) 0.26197(16) 0.0878(7)
O19_3 O 0.7229(3) 0.29978(14) 0.0867(7)
H7_2 H 0.8751 0.0886 0.0382
H10_2 H 0.8216 0.1428 0.0415
O3_2 O 0.7771(3) 0.20022(14) 0.9133(7)
C4_2 C 0.9209(5) 0.0494(3) 0.7500
C5_2 C 0.8823(5) 0.0840(3) 0.7500
C6_2 C 0.8651(4) 0.0999(2) 0.5784(11)
H2_2 H 0.8751 0.0886 0.4618
C7_2 C 0.8333(5) 0.1325(2) 0.5761(11)
H3_2 H 0.8216 0.1428 0.4585
C8_2 C 0.8187(6) 0.1498(3) 0.7500
C9_2 C 0.7893(5) 0.1873(3) 0.7500
O10_3 O 0.8380(2) 0.26197(16) 0.4122(7)
O16_2 O 0.7771(3) 0.20022(14) 0.5867(7)
O20_3 O 0.7229(3) 0.29978(14) 0.4133(7)
O22_3 O 0.7712(4) 0.2727(2) 0.7500
C17_2 C 0.8651(4) 0.0999(2) 0.9216(11)
C20_2 C 0.8333(5) 0.1325(2) 0.9239(11)
O5_2 O 0.2712(4) 0.7727(2) 0.7500
O9_4 O 0.1620(2) 0.73803(16) 0.5878(7)
O19_4 O 0.2771(3) 0.70022(14) 0.5867(7)
O22_4 O 0.2288(4) 0.7273(2) 0.2500
O10_4 O 0.1620(2) 0.73803(16) 0.9122(7)
O20_4 O 0.2771(3) 0.70022(14) 0.9133(7)
H4_3 H 0.0536 0.7336 0.0393
C10_3 C 0.1362(5) 0.7370(3) 0.7500
C11_3 C 0.0649(4) 0.7339(3) 0.7500
C12_3 C 0.0320(3) 0.7337(3) 0.5780(12)
C13_3 C 0.0320(3) 0.7337(3) 0.9220(12)
H6_3 H 0.0536 0.7336 0.4607
H2_3 H 0.6249 0.5886 0.0382
H3_3 H 0.6784 0.6428 0.0415
Fe4_9 Fe 0.5000 0.5000 0.0000
H5_3 H 0.9464 0.7336 0.0393
Fe1_5 Fe 0.5000 0.5000 0.5000
O2_2 O 0.5634(3) 0.53713(13) 0.5869(7)
O4_3 O 0.5000 0.5199(4) 0.2500
C1_3 C 0.8638(5) 0.7370(3) 0.7500
C2_3 C 0.9351(4) 0.7339(3) 0.7500
C3_3 C 0.9680(3) 0.7337(3) 0.5780(12)
H1_3 H 0.9464 0.7336 0.4607
C4_3 C 0.5791(5) 0.5494(3) 0.7500
C5_3 C 0.6177(5) 0.5840(3) 0.7500
C6_3 C 0.6349(4) 0.5999(2) 0.9216(11)
C7_3 C 0.6667(5) 0.6325(2) 0.9239(11)
C8_3 C 0.6813(6) 0.6498(3) 0.7500
C9_3 C 0.7107(5) 0.6873(3) 0.7500
Fe4_10 Fe 0.5000 0.5000 1.0000
O11_2 O 0.5634(3) 0.53713(13) 0.9131(7)
O12_2 O 0.4366(3) 0.46287(13) 0.4131(7)
O13_2 O 0.4366(3) 0.46287(13) 0.0869(7)
O14_3 O 0.4366(3) 0.53713(13) 0.5869(7)
O15_3 O 0.5634(3) 0.46287(13) 0.4131(7)
O21_3 O 0.5000 0.4801(4) 0.7500
C14_3 C 0.9680(3) 0.7337(3) 0.9220(12)
C15_3 C 0.4209(5) 0.4506(3) 0.2500
C16_3 C 0.3823(5) 0.4160(3) 0.2500
C17_3 C 0.6349(4) 0.5999(2) 0.5784(11)
C18_3 C 0.3651(4) 0.4001(2) 0.0784(11)
C19_3 C 0.3651(4) 0.4001(2) 0.4216(11)
H7_3 H 0.6249 0.5886 0.4618
H9_3 H 0.3751 0.4114 0.5382
C20_3 C 0.6667(5) 0.6325(2) 0.5761(11)
C21_3 C 0.3333(5) 0.3675(2) 0.0761(11)
C22_3 C 0.3333(5) 0.3675(2) 0.4239(11)
H10_3 H 0.6784 0.6428 0.4585
H12_3 H 0.3216 0.3572 0.5415
C23_3 C 0.3187(6) 0.3502(3) 0.2500
C24_3 C 0.2893(5) 0.3127(3) 0.2500
H8_3 H 0.3751 0.4114 0.9618
H11_3 H 0.3216 0.3572 0.9585
C1_4 C 0.1362(5) 0.2630(3) 0.2500
C2_4 C 0.0649(4) 0.2661(3) 0.2500
C3_4 C 0.0320(3) 0.2663(3) 0.0780(12)
O14_4 O 0.5634(3) 0.46287(13) 0.0869(7)
C14_4 C 0.0320(3) 0.2663(3) 0.4220(12)
H5_4 H 0.0536 0.2664 0.5393
H1_4 H 0.0536 0.2664 0.9607
O15_4 O 0.4366(3) 0.53713(13) 0.9131(7)
C10_4 C 0.8638(5) 0.2630(3) 0.2500
C11_4 C 0.9351(4) 0.2661(3) 0.2500
C12_4 C 0.9680(3) 0.2663(3) 0.0780(12)
C13_4 C 0.9680(3) 0.2663(3) 0.4220(12)
H4_4 H 0.9464 0.2664 0.5393
H6_4 H 0.9464 0.2664 0.9607
C15_4 C 0.5791(5) 0.4506(3) 0.2500
C16_4 C 0.6177(5) 0.4160(3) 0.2500
C18_4 C 0.6349(4) 0.4001(2) 0.4216(11)
C19_4 C 0.6349(4) 0.4001(2) 0.0784(11)
H7_4 H 0.3751 0.5886 0.0382
H8_4 H 0.6249 0.4114 0.5382
C21_4 C 0.6667(5) 0.3675(2) 0.4239(11)
C22_4 C 0.6667(5) 0.3675(2) 0.0761(11)
H10_4 H 0.3216 0.6428 0.0415
H11_4 H 0.6784 0.3572 0.5415
C23_4 C 0.6813(6) 0.3502(3) 0.2500
C24_4 C 0.7107(5) 0.3127(3) 0.2500
C4_4 C 0.4209(5) 0.5494(3) 0.7500
C5_4 C 0.3823(5) 0.5840(3) 0.7500
C6_4 C 0.3651(4) 0.5999(2) 0.5784(11)
H2_4 H 0.3751 0.5886 0.4618
C7_4 C 0.3333(5) 0.6325(2) 0.5761(11)
H3_4 H 0.3216 0.6428 0.4585
C8_4 C 0.3187(6) 0.6498(3) 0.7500
C9_4 C 0.2893(5) 0.6873(3) 0.7500
C17_4 C 0.3651(4) 0.5999(2) 0.9216(11)
H9_4 H 0.6249 0.4114 0.9618
C20_4 C 0.3333(5) 0.6325(2) 0.9239(11)
H12_4 H 0.6784 0.3572 0.9585
loop_
_geom_bond_atom_site_label_1
_geom_bond_atom_site_label_2
_geom_bond_site_symmetry_1
_geom_bond_site_symmetry_2
O10 Fe5 1_555 1_555
O20 Fe5 1_555 1_555
O23 Fe5 1_555 1_555
Fe1 O2 1_555 1_555
Fe2 O1 1_555 1_555
O1 C1 1_555 1_555
O2 C4 1_555 1_555
O3 Fe2 1_555 1_555
O4 Fe1 1_555 1_555
O23 Fe2 1_555 1_555
C1 C2 1_555 1_555
C2 C3 1_555 1_555
C3 H1 1_555 1_555
C4 C5 1_555 1_555
C5 C6 1_555 1_555
C7 C6 1_555 1_555
C8 C7 1_555 1_555
C9 O3 1_555 1_555
Fe4 O4 1_555 1_555
Fe4_2 O11 1_555 1_555
Fe5_2 O6 1_555 1_555
Fe7 O7 1_555 1_555
Fe8_2 O8 1_555 1_555
O6 C1 1_555 1_555
O7 C10 1_555 1_555
O8 C10 1_555 1_555
O9 Fe2 1_555 1_555
O11 C4 1_555 1_555
O16 C9 1_555 1_555
O19 Fe2 1_555 1_555
O22 Fe2 1_555 1_555
C10 C11 1_555 1_555
C11 C12 1_555 1_555
C12 C3 1_555 1_555
C13 C11 1_555 1_555
C14 C2 1_555 1_555
H6 C12 1_555 1_555
C17 C5 1_555 1_555
H7 C17 1_555 1_555
C20 C8 1_555 1_555
H10 C20 1_555 1_555
C8 C9 1_555 1_555
Fe5_2 O16 1_555 1_555
Fe5_2 O22 1_555 1_555
C13 C14 1_555 1_555
C17 C20 1_555 1_555
O15 Fe1_2 1_555 1_555
O21 Fe1_2 1_555 1_555
Fe4_4 O21 1_555 1_555
O4_2 Fe1_3 1_555 1_555
Fe4_5 O4_2 1_555 1_555
O14 Fe1_3 1_555 1_555
Fe9 O17 1_555 1_555
Fe10 O18 1_555 1_555
O12 Fe1_4 1_555 1_555
O13 Fe4_7 1_555 1_555
O17 C24 1_555 1_555
O18 C24 1_555 1_555
O21_2 Fe1_4 1_555 1_555
C15 O12 1_555 1_555
C16 C15 1_555 1_555
C18 C16 1_555 1_555
C19 C16 1_555 1_555
H9 C19 1_555 1_555
C21 C18 1_555 1_555
C22 C19 1_555 1_555
H12 C22 1_555 1_555
C23 C21 1_555 1_555
C24 C23 1_555 1_555
Fe4_8 O21_2 1_555 1_555
O13 C15 1_555 1_555
C22 C23 1_555 1_555
O14_2 Fe4_3 1_555 1_555
O15_2 Fe4_6 1_555 1_555
Fe10 O1_2 1_555 1_555
O1_2 C1_2 1_555 1_555
C1_2 C2_2 1_555 1_555
C2_2 C3_2 1_555 1_555
Fe9 O6_2 1_555 1_555
Fe7_2 O7_2 1_555 1_555
Fe8_3 O8_2 1_555 1_555
O6_2 C1_2 1_555 1_555
O7_2 C10_2 1_555 1_555
O8_2 C10_2 1_555 1_555
O10_2 Fe9 1_555 1_555
O20_2 Fe9 1_555 1_555
O22_2 Fe10 1_555 1_555
O23_2 Fe9 1_555 1_555
C10_2 C11_2 1_555 1_555
C11_2 C12_2 1_555 1_555
C12_2 C3_2 1_555 1_555
C13_2 C11_2 1_555 1_555
C14_2 C2_2 1_555 1_555
H4_2 C13_2 1_555 1_555
H5_2 C14_2 1_555 1_555
Fe9 O22_2 1_555 1_555
C13_2 C14_2 1_555 1_555
O23_2 Fe10_2 1_555 1_555
O9_2 Fe10_2 1_555 1_555
O19_2 Fe10_2 1_555 1_555
Fe7_2 O17_2 1_555 1_555
Fe8_3 O18_2 1_555 1_555
O17_2 C24_2 1_555 1_555
O18_2 C24_2 1_555 1_555
C15_2 O14_2 1_555 1_555
C16_2 C15_2 1_555 1_555
C18_2 C16_2 1_555 1_555
C19_2 C16_2 1_555 1_555
H8_2 C18_2 1_555 1_555
C21_2 C18_2 1_555 1_555
C22_2 C19_2 1_555 1_555
H11_2 C21_2 1_555 1_555
C23_2 C21_2 1_555 1_555
C24_2 C23_2 1_555 1_555
O15 C15_2 1_555 1_555
C22_2 C23_2 1_555 1_555
O5 Fe8 1_555 1_555
Fe7 O5 1_555 1_555
O9_3 Fe8 1_555 1_555
O19_3 Fe8 1_555 1_555
O15_2 C4_2 1_555 1_555
O3_2 Fe8_2 1_555 1_555
C4_2 C5_2 1_555 1_555
C5_2 C6_2 1_555 1_555
C6_2 H2_2 1_555 1_555
C7_2 C6_2 1_555 1_555
H3_2 C7_2 1_555 1_555
C8_2 C7_2 1_555 1_555
C9_2 O3_2 1_555 1_555
O10_3 Fe7 1_555 1_555
O14 C4_2 1_555 1_555
O16_2 C9_2 1_555 1_555
O20_3 Fe7 1_555 1_555
O22_3 Fe8_2 1_555 1_555
C17_2 C5_2 1_555 1_555
C20_2 C8_2 1_555 1_555
C8_2 C9_2 1_555 1_555
Fe7 O16_2 1_555 1_555
Fe7 O22_3 1_555 1_555
C17_2 C20_2 1_555 1_555
O5_2 Fe8_3 1_555 1_555
Fe7_3 O5_2 1_555 1_555
O9_4 Fe8_3 1_555 1_555
O19_4 Fe8_3 1_555 1_555
O22_4 Fe8_3 1_555 1_555
Fe7_2 O22_4 1_555 1_555
O10_4 Fe7_3 1_555 1_555
O20_4 Fe7_3 1_555 1_555
O9_4 C10_3 1_555 1_555
O10_4 C10_3 1_555 1_555
C10_3 C11_3 1_555 1_555
C11_3 C12_3 1_555 1_555
C13_3 C11_3 1_555 1_555
H6_3 C12_3 1_555 1_555
Fe1_5 O2_2 1_555 1_555
O10_2 C1_3 1_555 1_555
O2_2 C4_3 1_555 1_555
O4_3 Fe1_5 1_555 1_555
C1_3 C2_3 1_555 1_555
C2_3 C3_3 1_555 1_555
C3_3 H1_3 1_555 1_555
C4_3 C5_3 1_555 1_555
C5_3 C6_3 1_555 1_555
C7_3 C6_3 1_555 1_555
C8_3 C7_3 1_555 1_555
C9_3 O20_2 1_555 1_555
Fe4_9 O4_3 1_555 1_555
Fe4_10 O11_2 1_555 1_555
O9_2 C1_3 1_555 1_555
O11_2 C4_3 1_555 1_555
O12_2 Fe1_5 1_555 1_555
O13_2 Fe4_9 1_555 1_555
O14_3 Fe1_5 1_555 1_555
O15_3 Fe1_5 1_555 1_555
O19_2 C9_3 1_555 1_555
O19 C24_3 1_555 1_555
O20 C24_3 1_555 1_555
O21_3 Fe1_5 1_555 1_555
C14_3 C2_3 1_555 1_555
C15_3 O12_2 1_555 1_555
C16_3 C15_3 1_555 1_555
C17_3 C5_3 1_555 1_555
C18_3 C16_3 1_555 1_555
C19_3 C16_3 1_555 1_555
H7_3 C17_3 1_555 1_555
H9_3 C19_3 1_555 1_555
C20_3 C8_3 1_555 1_555
C21_3 C18_3 1_555 1_555
C22_3 C19_3 1_555 1_555
H10_3 C20_3 1_555 1_555
H12_3 C22_3 1_555 1_555
C23_3 C21_3 1_555 1_555
C24_3 C23_3 1_555 1_555
C8_3 C9_3 1_555 1_555
Fe4_10 O21_3 1_555 1_555
O13_2 C15_3 1_555 1_555
C17_3 C20_3 1_555 1_555
C22_3 C23_3 1_555 1_555
O10 C1_4 1_555 1_555
C1_4 C2_4 1_555 1_555
C2_4 C3_4 1_555 1_555
O9 C1_4 1_555 1_555
O14_4 Fe4_9 1_555 1_555
C14_4 C2_4 1_555 1_555
H5_4 C14_4 1_555 1_555
O15_4 Fe4_10 1_555 1_555
O9_3 C10_4 1_555 1_555
O10_3 C10_4 1_555 1_555
C10_4 C11_4 1_555 1_555
C11_4 C12_4 1_555 1_555
C13_4 C11_4 1_555 1_555
H4_4 C13_4 1_555 1_555
O19_3 C24_4 1_555 1_555
O20_3 C24_4 1_555 1_555
C15_4 O14_4 1_555 1_555
C16_4 C15_4 1_555 1_555
C18_4 C16_4 1_555 1_555
C19_4 C16_4 1_555 1_555
H8_4 C18_4 1_555 1_555
C21_4 C18_4 1_555 1_555
C22_4 C19_4 1_555 1_555
H11_4 C21_4 1_555 1_555
C23_4 C21_4 1_555 1_555
C24_4 C23_4 1_555 1_555
O15_3 C15_4 1_555 1_555
C22_4 C23_4 1_555 1_555
O15_4 C4_4 1_555 1_555
C4_4 C5_4 1_555 1_555
C5_4 C6_4 1_555 1_555
C6_4 H2_4 1_555 1_555
C7_4 C6_4 1_555 1_555
H3_4 C7_4 1_555 1_555
C8_4 C7_4 1_555 1_555
C9_4 O20_4 1_555 1_555
O14_3 C4_4 1_555 1_555
O19_4 C9_4 1_555 1_555
C17_4 C5_4 1_555 1_555
C20_4 C8_4 1_555 1_555
C8_4 C9_4 1_555 1_555
C17_4 C20_4 1_555 1_555

#END
