
###############################################################################
#
# This file contains modified crystal structure data generated from the
# MOF subset of the Cambridge Structural Database (CSD) v543 
# hosted by the Cambridge Crystallographic Data Centre (CCDC).
#
# This work is licensed under the Creative Commons
# Attribution-NonCommercial-ShareAlike 4.0 International License.
# To view a copy of this license, visit
# http://creativecommons.org/licenses/by-nc-sa/4.0/
# or send a letter to
# Creative Commons, PO Box 1866, Mountain View, CA 94042, USA.
#
# CIF created using the CSD Python API on 29 September 2022
# The structure has been converted into the P1 space group
# The structure has a 3D framework
# The original CSD entry XAFBEN is in the monoclinic crystal system
# The framework has been calculated to contain at least 10.0% void space
# The void calculation uses a probe of radius 1.32A, grid spacing 0.4
# The framework is charged, counterions have been retained in the structure
# H atom positions have been added when not included in the experimental data
#
###############################################################################

data_XAFBEN
_chemical_formula_moiety         '(C80 H96 Bi2 N8 O32 4+)n'
_symmetry_cell_setting           triclinic
_symmetry_space_group_name_H-M   'P 1'
_symmetry_Int_Tables_number      1
_space_group_name_Hall           'P 1'
loop_
_symmetry_equiv_pos_site_id
_symmetry_equiv_pos_as_xyz
1 x,y,z
_cell_length_a                   10.7068(2)
_cell_length_b                   17.7294(4)
_cell_length_c                   13.2435(2)
_cell_angle_alpha                90
_cell_angle_beta                 104.4460(10)
_cell_angle_gamma                90
_cell_volume                     2434.47
loop_
_atom_site_label
_atom_site_type_symbol
_atom_site_fract_x
_atom_site_fract_y
_atom_site_fract_z
C1 C 0.5640(15) 0.8703(8) 0.1885(11)
C2 C 0.7111(17) 0.9235(7) 0.1773(14)
N1 N 0.5958(9) 0.9357(4) 0.1648(9)
H9 H 0.578117 0.97604 0.213824
H10 H 0.552023 0.949951 0.0901279
H11 H 0.616033 0.856999 0.268168
H12 H 0.460657 0.868802 0.182205
H13 H 0.588037 0.829008 0.135454
H14 H 0.724642 0.878554 0.124997
H15 H 0.75867 0.974538 0.160321
H16 H 0.752639 0.906546 0.257711
C1_2 C 0.4360(15) 0.8703(8) 0.3115(11)
C2_2 C 0.2889(17) 0.9235(7) 0.3227(14)
N1_2 N 0.4042(9) 0.9357(4) 0.3352(9)
H9_2 H 0.421883 0.97604 0.286176
H10_2 H 0.447977 0.949951 0.409872
H11_2 H 0.383967 0.856999 0.231832
H12_2 H 0.539343 0.868802 0.317795
H13_2 H 0.411963 0.829008 0.364546
H14_2 H 0.275358 0.878554 0.375003
H15_2 H 0.24133 0.974538 0.339679
H16_2 H 0.247361 0.906546 0.242289
C1_3 C 0.0640(15) 0.3703(8) 0.1885(11)
C2_3 C 0.2111(17) 0.4235(7) 0.1773(14)
N1_3 N 0.0958(9) 0.4357(4) 0.1648(9)
H9_3 H 0.0781171 0.47604 0.213824
H10_3 H 0.0520231 0.449951 0.0901279
H11_3 H 0.116033 0.356999 0.268168
H13_3 H 0.0880366 0.329008 0.135454
H14_3 H 0.224642 0.378554 0.124997
H15_3 H 0.25867 0.474538 0.160321
H16_3 H 0.252639 0.406546 0.257711
H12_3 H 0.960657 0.368802 0.182205
H12_4 H 0.0393434 0.368802 0.317795
C1_4 C 0.9360(15) 0.3703(8) 0.3115(11)
C2_4 C 0.7889(17) 0.4235(7) 0.3227(14)
N1_4 N 0.9042(9) 0.4357(4) 0.3352(9)
H9_4 H 0.921883 0.47604 0.286176
H10_4 H 0.947977 0.449951 0.409872
H11_4 H 0.883967 0.356999 0.231832
H13_4 H 0.911963 0.329008 0.364546
H14_4 H 0.775358 0.378554 0.375003
H15_4 H 0.74133 0.474538 0.339679
H16_4 H 0.747361 0.406546 0.242289
C1_5 C 0.4360(15) 0.1297(8) 0.8115(11)
C2_5 C 0.2889(17) 0.0765(7) 0.8227(14)
N1_5 N 0.4042(9) 0.0643(4) 0.8352(9)
H9_5 H 0.421883 0.02396 0.786176
H10_5 H 0.447977 0.050049 0.909872
H11_5 H 0.383967 0.143001 0.731832
H12_5 H 0.539343 0.131198 0.817795
H13_5 H 0.411963 0.170992 0.864546
H14_5 H 0.275358 0.121446 0.875003
H15_5 H 0.24133 0.0254616 0.839679
H16_5 H 0.247361 0.0934545 0.742289
C1_6 C 0.5640(15) 0.1297(8) 0.6885(11)
C2_6 C 0.7111(17) 0.0765(7) 0.6773(14)
N1_6 N 0.5958(9) 0.0643(4) 0.6648(9)
H9_6 H 0.578117 0.02396 0.713824
H10_6 H 0.552023 0.050049 0.590128
H11_6 H 0.616033 0.143001 0.768168
H12_6 H 0.460657 0.131198 0.682205
H13_6 H 0.588037 0.170992 0.635454
H14_6 H 0.724642 0.121446 0.624997
H15_6 H 0.75867 0.0254616 0.660321
H16_6 H 0.752639 0.0934545 0.757711
H12_7 H 0.0393434 0.631198 0.817795
C1_7 C 0.9360(15) 0.6297(8) 0.8115(11)
C2_7 C 0.7889(17) 0.5765(7) 0.8227(14)
N1_7 N 0.9042(9) 0.5643(4) 0.8352(9)
H9_7 H 0.921883 0.52396 0.786176
H10_7 H 0.947977 0.550049 0.909872
H11_7 H 0.883967 0.643001 0.731832
H13_7 H 0.911963 0.670992 0.864546
H14_7 H 0.775358 0.621446 0.875003
H15_7 H 0.74133 0.525462 0.839679
H16_7 H 0.747361 0.593454 0.742289
C1_8 C 0.0640(15) 0.6297(8) 0.6885(11)
C2_8 C 0.2111(17) 0.5765(7) 0.6773(14)
N1_8 N 0.0958(9) 0.5643(4) 0.6648(9)
H9_8 H 0.0781171 0.52396 0.713824
H10_8 H 0.0520231 0.550049 0.590128
H11_8 H 0.116033 0.643001 0.768168
H13_8 H 0.0880366 0.670992 0.635454
H14_8 H 0.224642 0.621446 0.624997
H15_8 H 0.25867 0.525462 0.660321
H16_8 H 0.252639 0.593454 0.757711
H12_8 H 0.960657 0.631198 0.682205
C14 C 0.1024(5) 0.0159(4) 0.4577(5)
H6 H 0.1708 0.0264 0.4283
Bi3 Bi 0.0000 0.424439(11) 0.7500
C3 C 0.7433(5) 0.0513(3) 0.3971(4)
C4 C 0.8765(4) 0.0261(3) 0.4513(4)
C5 C 0.9802(5) 0.0423(5) 0.4101(5)
H1 H 0.9676 0.0712 0.3499
C7 C 0.6029(4) 0.1517(3) 0.0997(4)
C8 C 0.6754(5) 0.2038(3) 0.0462(4)
C9 C 0.7018(6) 0.2769(3) 0.0811(4)
H3 H 0.6695 0.2948 0.1355
O1 O 0.7285(4) 0.0941(3) 0.3201(4)
O2 O 0.6504(4) 0.0281(3) 0.4289(3)
O3 O 0.5437(4) 0.1799(2) 0.1639(3)
O4 O 0.6019(5) 0.0823(2) 0.0822(4)
Bi1 Bi 0.5000 0.075561(11) 0.2500
C18 C 0.7763(6) 0.3237(3) 0.0356(4)
H8 H 0.7939 0.3729 0.0592
O6 O 0.2715(4) 0.0941(3) 0.1799(4)
O8 O 0.3496(4) 0.0281(3) 0.0711(3)
O10 O 0.4563(4) 0.1799(2) 0.3361(3)
O12 O 0.3981(5) 0.0823(2) 0.4178(4)
C3_2 C 0.2567(5) 0.0513(3) 0.1029(4)
C4_2 C 0.1235(4) 0.0261(3) 0.0487(4)
C5_2 C 0.0198(5) 0.0423(5) 0.0899(5)
H1_2 H 0.0324 0.0712 0.1501
C7_2 C 0.3971(4) 0.1517(3) 0.4003(4)
C8_2 C 0.3246(5) 0.2038(3) 0.4538(4)
C9_2 C 0.2982(6) 0.2769(3) 0.4189(4)
H3_2 H 0.3305 0.2948 0.3645
C10 C 0.2763(6) 0.1763(3) 0.5356(4)
H4 H 0.2939 0.1271 0.5592
C15 C 0.1029(4) 0.3483(3) 0.5997(4)
C16 C 0.1754(5) 0.2962(3) 0.5462(4)
C17 C 0.2018(6) 0.2231(3) 0.5811(4)
H7 H 0.1695 0.2052 0.6355
C18_2 C 0.2237(6) 0.3237(3) 0.4644(4)
H8_2 H 0.2061 0.3729 0.4408
O9 O 0.0437(4) 0.3201(2) 0.6639(3)
O11 O 0.1019(5) 0.4177(2) 0.5822(4)
C6 C 0.6024(5) 0.4841(4) 0.9577(5)
H2 H 0.6708 0.4736 0.9283
C11 C 0.2433(5) 0.4487(3) 0.8971(4)
C12 C 0.3765(4) 0.4739(3) 0.9513(4)
C13 C 0.4802(5) 0.4577(5) 0.9101(5)
H5 H 0.4676 0.4288 0.8499
O5 O 0.2285(4) 0.4059(3) 0.8201(4)
O7 O 0.1504(4) 0.4719(3) 0.9289(3)
C11_2 C 0.2567(5) 0.9487(3) 0.6029(4)
C12_2 C 0.1235(4) 0.9739(3) 0.5487(4)
C13_2 C 0.0198(5) 0.9577(5) 0.5899(5)
H5_2 H 0.0324 0.9288 0.6501
O5_2 O 0.2715(4) 0.9059(3) 0.6799(4)
O7_2 O 0.3496(4) 0.9719(3) 0.5711(3)
Bi2 Bi 0.5000 0.924439(11) 0.7500
C11_3 C 0.7433(5) 0.9487(3) 0.8971(4)
C12_3 C 0.8765(4) 0.9739(3) 0.9513(4)
C13_3 C 0.9802(5) 0.9577(5) 0.9101(5)
H5_3 H 0.9676 0.9288 0.8499
O5_3 O 0.7285(4) 0.9059(3) 0.8201(4)
O7_3 O 0.6504(4) 0.9719(3) 0.9289(3)
C10_2 C 0.2237(6) 0.6763(3) 0.9644(4)
H4_2 H 0.2061 0.6271 0.9408
C15_2 C 0.3971(4) 0.8483(3) 0.9003(4)
C16_2 C 0.3246(5) 0.7962(3) 0.9538(4)
C17_2 C 0.2982(6) 0.7231(3) 0.9189(4)
H7_2 H 0.3305 0.7052 0.8645
O9_2 O 0.4563(4) 0.8201(2) 0.8361(3)
O11_2 O 0.3981(5) 0.9177(2) 0.9178(4)
Bi1_2 Bi 1.0000 0.575561(11) 0.2500
O6_2 O 0.7715(4) 0.5941(3) 0.1799(4)
O8_2 O 0.8496(4) 0.5281(3) 0.0711(3)
O10_2 O 0.9563(4) 0.6799(2) 0.3361(3)
O12_2 O 0.8981(5) 0.5823(2) 0.4178(4)
C3_3 C 0.7567(5) 0.5513(3) 0.1029(4)
C4_3 C 0.6235(4) 0.5261(3) 0.0487(4)
C5_3 C 0.5198(5) 0.5423(5) 0.0899(5)
H1_3 H 0.5324 0.5712 0.1501
C7_3 C 0.8971(4) 0.6517(3) 0.4003(4)
C8_3 C 0.8246(5) 0.7038(3) 0.4538(4)
C9_3 C 0.7982(6) 0.7769(3) 0.4189(4)
H3_3 H 0.8305 0.7948 0.3645
C10_3 C 0.7763(6) 0.6763(3) 0.5356(4)
H4_3 H 0.7939 0.6271 0.5592
C14_2 C 0.3976(5) 0.5159(4) 0.0423(5)
H6_2 H 0.3292 0.5264 0.0717
C15_3 C 0.6029(4) 0.8483(3) 0.5997(4)
C16_3 C 0.6754(5) 0.7962(3) 0.5462(4)
C17_3 C 0.7018(6) 0.7231(3) 0.5811(4)
H7_3 H 0.6695 0.7052 0.6355
C18_3 C 0.7237(6) 0.8237(3) 0.4644(4)
H8_3 H 0.7061 0.8729 0.4408
O9_3 O 0.5437(4) 0.8201(2) 0.6639(3)
O11_3 O 0.6019(5) 0.9177(2) 0.5822(4)
C10_4 C 0.7237(6) 0.1763(3) 0.9644(4)
H4_4 H 0.7061 0.1271 0.9408
C15_4 C 0.8971(4) 0.3483(3) 0.9003(4)
C16_4 C 0.8246(5) 0.2962(3) 0.9538(4)
C17_4 C 0.7982(6) 0.2231(3) 0.9189(4)
H7_4 H 0.8305 0.2052 0.8645
O9_4 O 0.9563(4) 0.3201(2) 0.8361(3)
O11_4 O 0.8981(5) 0.4177(2) 0.9178(4)
Bi3_2 Bi 1.0000 0.424439(11) 0.7500
C6_2 C 0.1024(5) 0.9841(4) 0.9577(5)
H2_2 H 0.1708 0.9736 0.9283
C14_3 C 0.8976(5) 0.0159(4) 0.0423(5)
H6_3 H 0.8292 0.0264 0.0717
C3_4 C 0.2433(5) 0.5513(3) 0.3971(4)
C4_4 C 0.3765(4) 0.5261(3) 0.4513(4)
C5_4 C 0.4802(5) 0.5423(5) 0.4101(5)
H1_4 H 0.4676 0.5712 0.3499
C6_3 C 0.3976(5) 0.4841(4) 0.5423(5)
H2_3 H 0.3292 0.4736 0.5717
C7_4 C 0.1029(4) 0.6517(3) 0.0997(4)
C8_4 C 0.1754(5) 0.7038(3) 0.0462(4)
C9_4 C 0.2018(6) 0.7769(3) 0.0811(4)
H3_4 H 0.1695 0.7948 0.1355
O1_2 O 0.2285(4) 0.5941(3) 0.3201(4)
O2_2 O 0.1504(4) 0.5281(3) 0.4289(3)
O3_2 O 0.0437(4) 0.6799(2) 0.1639(3)
O4_2 O 0.1019(5) 0.5823(2) 0.0822(4)
Bi1_3 Bi 0.0000 0.575561(11) 0.2500
C11_4 C 0.7567(5) 0.4487(3) 0.6029(4)
C12_4 C 0.6235(4) 0.4739(3) 0.5487(4)
C13_4 C 0.5198(5) 0.4577(5) 0.5899(5)
H5_4 H 0.5324 0.4288 0.6501
C14_4 C 0.6024(5) 0.5159(4) 0.4577(5)
H6_4 H 0.6708 0.5264 0.4283
C18_4 C 0.2763(6) 0.8237(3) 0.0356(4)
H8_4 H 0.2939 0.8729 0.0592
O5_4 O 0.7715(4) 0.4059(3) 0.6799(4)
O7_4 O 0.8496(4) 0.4719(3) 0.5711(3)
C6_4 C 0.8976(5) 0.9841(4) 0.5423(5)
H2_4 H 0.8292 0.9736 0.5717
loop_
_geom_bond_atom_site_label_1
_geom_bond_atom_site_label_2
_geom_bond_site_symmetry_1
_geom_bond_site_symmetry_2
C1 N1 1_555 1_555
C2 N1 1_555 1_555
N1 H9 1_555 1_555
N1 H10 1_555 1_555
C1 H11 1_555 1_555
C1 H12 1_555 1_555
C1 H13 1_555 1_555
C2 H14 1_555 1_555
C2 H15 1_555 1_555
C2 H16 1_555 1_555
C1_2 N1_2 1_555 1_555
C2_2 N1_2 1_555 1_555
N1_2 H9_2 1_555 1_555
N1_2 H10_2 1_555 1_555
C1_2 H11_2 1_555 1_555
C1_2 H12_2 1_555 1_555
C1_2 H13_2 1_555 1_555
C2_2 H14_2 1_555 1_555
C2_2 H15_2 1_555 1_555
C2_2 H16_2 1_555 1_555
C1_3 N1_3 1_555 1_555
C2_3 N1_3 1_555 1_555
N1_3 H9_3 1_555 1_555
N1_3 H10_3 1_555 1_555
C1_3 H11_3 1_555 1_555
C1_3 H13_3 1_555 1_555
C2_3 H14_3 1_555 1_555
C2_3 H15_3 1_555 1_555
C2_3 H16_3 1_555 1_555
C1_4 N1_4 1_555 1_555
C2_4 N1_4 1_555 1_555
N1_4 H9_4 1_555 1_555
N1_4 H10_4 1_555 1_555
C1_4 H11_4 1_555 1_555
C1_4 H13_4 1_555 1_555
C2_4 H14_4 1_555 1_555
C2_4 H15_4 1_555 1_555
C2_4 H16_4 1_555 1_555
C1_5 N1_5 1_555 1_555
C2_5 N1_5 1_555 1_555
N1_5 H9_5 1_555 1_555
N1_5 H10_5 1_555 1_555
C1_5 H11_5 1_555 1_555
C1_5 H12_5 1_555 1_555
C1_5 H13_5 1_555 1_555
C2_5 H14_5 1_555 1_555
C2_5 H15_5 1_555 1_555
C2_5 H16_5 1_555 1_555
C1_6 N1_6 1_555 1_555
C2_6 N1_6 1_555 1_555
N1_6 H9_6 1_555 1_555
N1_6 H10_6 1_555 1_555
C1_6 H11_6 1_555 1_555
C1_6 H12_6 1_555 1_555
C1_6 H13_6 1_555 1_555
C2_6 H14_6 1_555 1_555
C2_6 H15_6 1_555 1_555
C2_6 H16_6 1_555 1_555
C1_7 N1_7 1_555 1_555
C2_7 N1_7 1_555 1_555
N1_7 H9_7 1_555 1_555
N1_7 H10_7 1_555 1_555
C1_7 H11_7 1_555 1_555
C1_7 H13_7 1_555 1_555
C2_7 H14_7 1_555 1_555
C2_7 H15_7 1_555 1_555
C2_7 H16_7 1_555 1_555
C1_8 N1_8 1_555 1_555
C2_8 N1_8 1_555 1_555
N1_8 H9_8 1_555 1_555
N1_8 H10_8 1_555 1_555
C1_8 H11_8 1_555 1_555
C1_8 H13_8 1_555 1_555
C2_8 H14_8 1_555 1_555
C2_8 H15_8 1_555 1_555
C2_8 H16_8 1_555 1_555
H6 C14 1_555 1_555
C3 C4 1_555 1_555
C4 C5 1_555 1_555
C5 H1 1_555 1_555
C7 C8 1_555 1_555
C8 C9 1_555 1_555
C9 H3 1_555 1_555
O1 C3 1_555 1_555
O2 C3 1_555 1_555
O3 C7 1_555 1_555
O4 C7 1_555 1_555
Bi1 O1 1_555 1_555
C18 C9 1_555 1_555
H8 C18 1_555 1_555
O6 Bi1 1_555 1_555
O8 Bi1 1_555 1_555
O10 Bi1 1_555 1_555
O12 Bi1 1_555 1_555
O2 Bi1 1_555 1_555
O3 Bi1 1_555 1_555
O4 Bi1 1_555 1_555
C3_2 C4_2 1_555 1_555
C4_2 C5_2 1_555 1_555
C5_2 H1_2 1_555 1_555
C7_2 C8_2 1_555 1_555
C8_2 C9_2 1_555 1_555
C9_2 H3_2 1_555 1_555
C10 C8_2 1_555 1_555
H4 C10 1_555 1_555
O6 C3_2 1_555 1_555
O8 C3_2 1_555 1_555
O10 C7_2 1_555 1_555
O12 C7_2 1_555 1_555
C15 C16 1_555 1_555
C16 C17 1_555 1_555
C17 C10 1_555 1_555
H7 C17 1_555 1_555
C18_2 C9_2 1_555 1_555
H8_2 C18_2 1_555 1_555
O9 C15 1_555 1_555
O11 C15 1_555 1_555
Bi3 O9 1_555 1_555
C16 C18_2 1_555 1_555
O11 Bi3 1_555 1_555
H2 C6 1_555 1_555
C11 C12 1_555 1_555
C12 C13 1_555 1_555
C13 C6 1_555 1_555
H5 C13 1_555 1_555
O5 C11 1_555 1_555
O7 C11 1_555 1_555
Bi3 O5 1_555 1_555
O7 Bi3 1_555 1_555
C11_2 C12_2 1_555 1_555
C12_2 C13_2 1_555 1_555
H5_2 C13_2 1_555 1_555
O5_2 C11_2 1_555 1_555
O7_2 C11_2 1_555 1_555
Bi2 O5_2 1_555 1_555
O7_2 Bi2 1_555 1_555
C11_3 C12_3 1_555 1_555
C12_3 C13_3 1_555 1_555
H5_3 C13_3 1_555 1_555
O5_3 C11_3 1_555 1_555
O7_3 C11_3 1_555 1_555
Bi2 O5_3 1_555 1_555
O7_3 Bi2 1_555 1_555
H4_2 C10_2 1_555 1_555
C15_2 C16_2 1_555 1_555
C16_2 C17_2 1_555 1_555
C17_2 C10_2 1_555 1_555
H7_2 C17_2 1_555 1_555
O9_2 C15_2 1_555 1_555
O11_2 C15_2 1_555 1_555
Bi2 O9_2 1_555 1_555
O11_2 Bi2 1_555 1_555
O6_2 Bi1_2 1_555 1_555
O8_2 Bi1_2 1_555 1_555
O10_2 Bi1_2 1_555 1_555
O12_2 Bi1_2 1_555 1_555
C3_3 C4_3 1_555 1_555
C4_3 C5_3 1_555 1_555
C5_3 H1_3 1_555 1_555
C7_3 C8_3 1_555 1_555
C8_3 C9_3 1_555 1_555
C9_3 H3_3 1_555 1_555
C10_3 C8_3 1_555 1_555
H4_3 C10_3 1_555 1_555
O6_2 C3_3 1_555 1_555
O8_2 C3_3 1_555 1_555
O10_2 C7_3 1_555 1_555
O12_2 C7_3 1_555 1_555
C14_2 C5_3 1_555 1_555
H6_2 C14_2 1_555 1_555
C15_3 C16_3 1_555 1_555
C16_3 C17_3 1_555 1_555
C17_3 C10_3 1_555 1_555
H7_3 C17_3 1_555 1_555
C18_3 C9_3 1_555 1_555
H8_3 C18_3 1_555 1_555
O9_3 C15_3 1_555 1_555
O11_3 C15_3 1_555 1_555
Bi2 O9_3 1_555 1_555
C16_3 C18_3 1_555 1_555
O11_3 Bi2 1_555 1_555
H4_4 C10_4 1_555 1_555
C15_4 C16_4 1_555 1_555
C16_4 C17_4 1_555 1_555
C17_4 C10_4 1_555 1_555
H7_4 C17_4 1_555 1_555
O9_4 C15_4 1_555 1_555
O11_4 C15_4 1_555 1_555
Bi3_2 O9_4 1_555 1_555
O11_4 Bi3_2 1_555 1_555
H2_2 C6_2 1_555 1_555
H6_3 C14_3 1_555 1_555
C3_4 C4_4 1_555 1_555
C4_4 C5_4 1_555 1_555
C5_4 H1_4 1_555 1_555
C6_3 C4_4 1_555 1_555
H2_3 C6_3 1_555 1_555
C7_4 C8_4 1_555 1_555
C8_4 C9_4 1_555 1_555
C9_4 H3_4 1_555 1_555
O1_2 C3_4 1_555 1_555
O2_2 C3_4 1_555 1_555
O3_2 C7_4 1_555 1_555
O4_2 C7_4 1_555 1_555
Bi1_3 O1_2 1_555 1_555
C11_4 C12_4 1_555 1_555
C12_4 C13_4 1_555 1_555
C13_4 C6_3 1_555 1_555
H5_4 C13_4 1_555 1_555
C14_4 C5_4 1_555 1_555
H6_4 C14_4 1_555 1_555
C18_4 C9_4 1_555 1_555
H8_4 C18_4 1_555 1_555
O5_4 C11_4 1_555 1_555
O7_4 C11_4 1_555 1_555
Bi3_2 O5_4 1_555 1_555
O2_2 Bi1_3 1_555 1_555
O3_2 Bi1_3 1_555 1_555
O4_2 Bi1_3 1_555 1_555
C12_4 C14_4 1_555 1_555
O7_4 Bi3_2 1_555 1_555
H2_4 C6_4 1_555 1_555

#END
