
###############################################################################
#
# This file contains modified crystal structure data generated from the
# MOF subset of the Cambridge Structural Database (CSD) v543 
# hosted by the Cambridge Crystallographic Data Centre (CCDC).
#
# This work is licensed under the Creative Commons
# Attribution-NonCommercial-ShareAlike 4.0 International License.
# To view a copy of this license, visit
# http://creativecommons.org/licenses/by-nc-sa/4.0/
# or send a letter to
# Creative Commons, PO Box 1866, Mountain View, CA 94042, USA.
#
# CIF created using the CSD Python API on 29 September 2022
# The structure has been converted into the P1 space group
# The structure has a 3D framework
# The original CSD entry XAHKAW is in the tetragonal crystal system
# The framework has been calculated to contain at least 10.0% void space
# The void calculation uses a probe of radius 1.32A, grid spacing 0.4
# H atom positions have been added when not included in the experimental data
#
###############################################################################

data_XAHKAW
_chemical_formula_moiety         '(C104 H56 N92 O8 Zn16)n'
_symmetry_cell_setting           triclinic
_symmetry_space_group_name_H-M   'P 1'
_symmetry_Int_Tables_number      1
_space_group_name_Hall           'P 1'
loop_
_symmetry_equiv_pos_site_id
_symmetry_equiv_pos_as_xyz
1 x,y,z
_cell_length_a                   13.8461(3)
_cell_length_b                   13.8461(3)
_cell_length_c                   23.3810(10)
_cell_angle_alpha                90
_cell_angle_beta                 90
_cell_angle_gamma                90
_cell_volume                     4482.48
loop_
_atom_site_label
_atom_site_type_symbol
_atom_site_fract_x
_atom_site_fract_y
_atom_site_fract_z
N3 N 0.2214(13) 0.7682(16) 0.0073(7)
N13 N 0.4047(14) 0.7123(16) 0.0271(8)
C8 C 0.4982(15) 0.695(2) 0.0227(8)
H4 H 0.534191 0.660723 0.049563
Zn4 Zn 0.27108(16) 0.66353(15) 0.06630(9)
Zn1 Zn 0.27654(14) 0.85722(14) 0.83170(8)
Zn2 Zn 0.22892(16) 0.83647(15) 0.56630(9)
O1 O 0.3948(13) 0.7769(16) 0.8214(7)
N1 N 0.1244(11) 0.8552(12) 0.8360(7)
N2 N 0.1301(14) 0.7922(14) 0.9859(8)
N4 N 0.2454(10) 0.8251(14) 0.9213(7)
N5 N 0.5360(10) 0.7342(14) 0.9721(7)
N6 N 0.4580(11) 0.7768(13) 0.9438(7)
N7 N 0.0999(12) 0.8607(15) 0.6847(7)
N8 N 0.1852(10) 0.8492(16) 0.6527(7)
N9 N 0.2258(11) 0.8582(9) 0.7436(5)
N10 N 0.4348(11) 0.8249(12) 0.6959(7)
N11 N 0.5037(13) 0.8114(12) 0.6536(6)
N12 N 0.3660(12) 0.8349(13) 0.6099(6)
C1 C 0.0688(14) 0.869(2) 0.7902(10)
C5 C 0.0843(15) 0.8549(17) 0.8907(9)
C6 C 0.1482(13) 0.8247(13) 0.9331(9)
C7 C 0.2859(12) 0.7883(13) 0.9681(7)
C9 C 0.1311(15) 0.8647(15) 0.7370(8)
C10 C 0.2583(13) 0.8483(14) 0.6913(7)
C11 C 0.3544(13) 0.8386(11) 0.6679(8)
C12 C 0.4565(14) 0.8161(15) 0.6048(9)
H5 H 0.486199 0.806627 0.569569
C13 C 0.3853(15) 0.7631(16) 0.9796(9)
Zn3 Zn 0.64278(14) 0.77654(14) 0.66830(8)
Zn5 Zn 0.66353(15) 0.72892(16) 0.93370(9)
N14 N 0.2786(13) 0.7318(16) 0.5073(7)
N15 N 0.2342(14) 0.9640(10) 0.5279(7)
N16 N 0.3114(12) 0.9963(13) 0.8464(6)
N17 N 0.0953(14) 0.7877(16) 0.5271(8)
H6 H 0.392336 0.744225 0.783622
H7 H 0.452874 0.818864 0.823258
N3_2 N 0.7786(13) 0.2318(16) 0.0073(7)
N13_2 N 0.5953(14) 0.2877(16) 0.0271(8)
C8_2 C 0.5018(15) 0.305(2) 0.0227(8)
H4_2 H 0.465809 0.339277 0.049563
Zn4_2 Zn 0.72892(16) 0.33647(15) 0.06630(9)
Zn1_2 Zn 0.72346(14) 0.14278(14) 0.83170(8)
Zn2_2 Zn 0.77108(16) 0.16353(15) 0.56630(9)
O1_2 O 0.6052(13) 0.2231(16) 0.8214(7)
N1_2 N 0.8756(11) 0.1448(12) 0.8360(7)
N2_2 N 0.8699(14) 0.2078(14) 0.9859(8)
N4_2 N 0.7546(10) 0.1749(14) 0.9213(7)
N5_2 N 0.4640(10) 0.2658(14) 0.9721(7)
N6_2 N 0.5420(11) 0.2232(13) 0.9438(7)
N7_2 N 0.9001(12) 0.1393(15) 0.6847(7)
N8_2 N 0.8148(10) 0.1508(16) 0.6527(7)
N9_2 N 0.7742(11) 0.1418(9) 0.7436(5)
N10_2 N 0.5652(11) 0.1751(12) 0.6959(7)
N11_2 N 0.4963(13) 0.1886(12) 0.6536(6)
N12_2 N 0.6340(12) 0.1651(13) 0.6099(6)
C1_2 C 0.9312(14) 0.131(2) 0.7902(10)
C5_2 C 0.9157(15) 0.1451(17) 0.8907(9)
C6_2 C 0.8518(13) 0.1753(13) 0.9331(9)
C7_2 C 0.7141(12) 0.2117(13) 0.9681(7)
C9_2 C 0.8689(15) 0.1353(15) 0.7370(8)
C10_2 C 0.7417(13) 0.1517(14) 0.6913(7)
C11_2 C 0.6456(13) 0.1614(11) 0.6679(8)
C12_2 C 0.5435(14) 0.1839(15) 0.6048(9)
H5_2 H 0.513801 0.193373 0.569569
C13_2 C 0.6147(15) 0.2369(16) 0.9796(9)
Zn3_2 Zn 0.35722(14) 0.22346(14) 0.66830(8)
Zn5_2 Zn 0.33647(15) 0.27108(16) 0.93370(9)
N14_2 N 0.7214(13) 0.2682(16) 0.5073(7)
N15_2 N 0.7658(14) 0.0360(10) 0.5279(7)
N16_2 N 0.6886(12) 0.0037(13) 0.8464(6)
N17_2 N 0.9047(14) 0.2123(16) 0.5271(8)
H6_2 H 0.607664 0.255775 0.783622
H7_2 H 0.547126 0.181136 0.823258
Zn1_3 Zn 0.85722(14) 0.72346(14) 0.16830(8)
Zn2_3 Zn 0.83647(15) 0.77108(16) 0.43370(9)
O1_3 O 0.7769(16) 0.6052(13) 0.1786(7)
N1_3 N 0.8552(12) 0.8756(11) 0.1640(7)
N2_3 N 0.7922(14) 0.8699(14) 0.0141(8)
N4_3 N 0.8251(14) 0.7546(10) 0.0787(7)
N5_3 N 0.7342(14) 0.4640(10) 0.0279(7)
N6_3 N 0.7768(13) 0.5420(11) 0.0562(7)
N7_3 N 0.8607(15) 0.9001(12) 0.3153(7)
N8_3 N 0.8492(16) 0.8148(10) 0.3473(7)
N9_3 N 0.8582(9) 0.7742(11) 0.2564(5)
N10_3 N 0.8249(12) 0.5652(11) 0.3041(7)
N11_3 N 0.8114(12) 0.4963(13) 0.3464(6)
N12_3 N 0.8349(13) 0.6340(12) 0.3901(6)
C1_3 C 0.869(2) 0.9312(14) 0.2098(10)
C5_3 C 0.8549(17) 0.9157(15) 0.1093(9)
C6_3 C 0.8247(13) 0.8518(13) 0.0669(9)
C7_3 C 0.7883(13) 0.7141(12) 0.0319(7)
C9_3 C 0.8647(15) 0.8689(15) 0.2630(8)
C10_3 C 0.8483(14) 0.7417(13) 0.3087(7)
C11_3 C 0.8386(11) 0.6456(13) 0.3321(8)
C12_3 C 0.8161(15) 0.5435(14) 0.3952(9)
H5_3 H 0.806627 0.513801 0.430431
C13_3 C 0.7631(16) 0.6147(15) 0.0204(9)
Zn3_3 Zn 0.77654(14) 0.35722(14) 0.33170(8)
N14_3 N 0.7318(16) 0.7214(13) 0.4927(7)
N15_3 N 0.9640(10) 0.7658(14) 0.4721(7)
N16_3 N 0.9963(13) 0.6886(12) 0.1536(6)
N17_3 N 0.7877(16) 0.9047(14) 0.4729(8)
H6_3 H 0.744225 0.607664 0.216378
H7_3 H 0.818864 0.547126 0.176742
N3_3 N 0.7682(16) 0.7786(13) 0.9927(7)
N13_3 N 0.7123(16) 0.5953(14) 0.9729(8)
C8_3 C 0.695(2) 0.5018(15) 0.9773(8)
H4_3 H 0.660723 0.465809 0.950437
Zn1_4 Zn 0.14278(14) 0.27654(14) 0.16830(8)
Zn2_4 Zn 0.16353(15) 0.22892(16) 0.43370(9)
O1_4 O 0.2231(16) 0.3948(13) 0.1786(7)
N1_4 N 0.1448(12) 0.1244(11) 0.1640(7)
N2_4 N 0.2078(14) 0.1301(14) 0.0141(8)
N4_4 N 0.1749(14) 0.2454(10) 0.0787(7)
N5_4 N 0.2658(14) 0.5360(10) 0.0279(7)
N6_4 N 0.2232(13) 0.4580(11) 0.0562(7)
N7_4 N 0.1393(15) 0.0999(12) 0.3153(7)
N8_4 N 0.1508(16) 0.1852(10) 0.3473(7)
N9_4 N 0.1418(9) 0.2258(11) 0.2564(5)
N10_4 N 0.1751(12) 0.4348(11) 0.3041(7)
N11_4 N 0.1886(12) 0.5037(13) 0.3464(6)
N12_4 N 0.1651(13) 0.3660(12) 0.3901(6)
C1_4 C 0.131(2) 0.0688(14) 0.2098(10)
C5_4 C 0.1451(17) 0.0843(15) 0.1093(9)
C6_4 C 0.1753(13) 0.1482(13) 0.0669(9)
C7_4 C 0.2117(13) 0.2859(12) 0.0319(7)
C9_4 C 0.1353(15) 0.1311(15) 0.2630(8)
C10_4 C 0.1517(14) 0.2583(13) 0.3087(7)
C11_4 C 0.1614(11) 0.3544(13) 0.3321(8)
C12_4 C 0.1839(15) 0.4565(14) 0.3952(9)
H5_4 H 0.193373 0.486199 0.430431
C13_4 C 0.2369(16) 0.3853(15) 0.0204(9)
Zn3_4 Zn 0.22346(14) 0.64278(14) 0.33170(8)
N14_4 N 0.2682(16) 0.2786(13) 0.4927(7)
N15_4 N 0.0360(10) 0.2342(14) 0.4721(7)
N16_4 N 0.0037(13) 0.3114(12) 0.1536(6)
N17_4 N 0.2123(16) 0.0953(14) 0.4729(8)
H6_4 H 0.255775 0.392336 0.216378
H7_4 H 0.181136 0.452874 0.176742
N3_4 N 0.2318(16) 0.2214(13) 0.9927(7)
N13_4 N 0.2877(16) 0.4047(14) 0.9729(8)
C8_4 C 0.305(2) 0.4982(15) 0.9773(8)
H4_4 H 0.339277 0.534191 0.950437
H4_5 H 0.034191 0.160723 0.549563
O1_5 O 0.8948(13) 0.2769(16) 0.3214(7)
N1_5 N 0.6244(11) 0.3552(12) 0.3360(7)
N2_5 N 0.6301(14) 0.2922(14) 0.4859(8)
N4_5 N 0.7454(10) 0.3251(14) 0.4213(7)
N6_5 N 0.9580(11) 0.2768(13) 0.4438(7)
N7_5 N 0.5999(12) 0.3607(15) 0.1847(7)
N8_5 N 0.6852(10) 0.3492(16) 0.1527(7)
N9_5 N 0.7258(11) 0.3582(9) 0.2436(5)
N10_5 N 0.9348(11) 0.3249(12) 0.1959(7)
N12_5 N 0.8660(12) 0.3349(13) 0.1099(6)
C1_5 C 0.5688(14) 0.369(2) 0.2902(10)
C2 C 0.4705(16) 0.3778(19) 0.2945(11)
H1 H 0.432838 0.383250 0.261688
C3 C 0.4283(15) 0.379(2) 0.3473(14)
H2 H 0.362852 0.392781 0.350497
C4 C 0.4822(16) 0.359(2) 0.3972(12)
H3 H 0.452613 0.349765 0.432412
C5_5 C 0.5843(15) 0.3549(17) 0.3907(9)
C6_5 C 0.6482(13) 0.3247(13) 0.4331(9)
C7_5 C 0.7859(12) 0.2883(13) 0.4681(7)
C8_5 C 0.9982(15) 0.195(2) 0.5227(8)
C9_5 C 0.6311(15) 0.3647(15) 0.2370(8)
C10_5 C 0.7583(13) 0.3483(14) 0.1913(7)
C11_5 C 0.8544(13) 0.3386(11) 0.1679(8)
C12_5 C 0.9565(14) 0.3161(15) 0.1048(9)
H5_5 H 0.986199 0.306627 0.069569
C13_5 C 0.8853(15) 0.2631(16) 0.4796(9)
H6_5 H 0.892336 0.244225 0.283622
H7_5 H 0.952874 0.318864 0.323258
O1_6 O 0.1052(13) 0.7231(16) 0.3214(7)
N1_6 N 0.3756(11) 0.6448(12) 0.3360(7)
N2_6 N 0.3699(14) 0.7078(14) 0.4859(8)
N4_6 N 0.2546(10) 0.6749(14) 0.4213(7)
N6_6 N 0.0420(11) 0.7232(13) 0.4438(7)
N7_6 N 0.4001(12) 0.6393(15) 0.1847(7)
N8_6 N 0.3148(10) 0.6508(16) 0.1527(7)
N9_6 N 0.2742(11) 0.6418(9) 0.2436(5)
N10_6 N 0.0652(11) 0.6751(12) 0.1959(7)
N12_6 N 0.1340(12) 0.6651(13) 0.1099(6)
C1_6 C 0.4312(14) 0.631(2) 0.2902(10)
C2_2 C 0.5295(16) 0.6222(19) 0.2945(11)
H1_2 H 0.567162 0.616750 0.261688
C3_2 C 0.5717(15) 0.621(2) 0.3473(14)
H2_2 H 0.637148 0.607219 0.350497
C4_2 C 0.5178(16) 0.641(2) 0.3972(12)
H3_2 H 0.547387 0.650235 0.432412
C5_6 C 0.4157(15) 0.6451(17) 0.3907(9)
C6_6 C 0.3518(13) 0.6753(13) 0.4331(9)
C7_6 C 0.2141(12) 0.7117(13) 0.4681(7)
C8_6 C 0.0018(15) 0.805(2) 0.5227(8)
C9_6 C 0.3689(15) 0.6353(15) 0.2370(8)
C10_6 C 0.2417(13) 0.6517(14) 0.1913(7)
C11_6 C 0.1456(13) 0.6614(11) 0.1679(8)
C12_6 C 0.0435(14) 0.6839(15) 0.1048(9)
H5_6 H 0.013801 0.693373 0.069569
C13_6 C 0.1147(15) 0.7369(16) 0.4796(9)
H6_6 H 0.107664 0.755775 0.283622
H7_6 H 0.0471265 0.681136 0.323258
H4_6 H 0.965809 0.839277 0.549563
O1_7 O 0.2769(16) 0.1052(13) 0.6786(7)
N1_7 N 0.3552(12) 0.3756(11) 0.6640(7)
N2_7 N 0.2922(14) 0.3699(14) 0.5141(8)
N4_7 N 0.3251(14) 0.2546(10) 0.5787(7)
N6_7 N 0.2768(13) 0.0420(11) 0.5562(7)
N7_7 N 0.3607(15) 0.4001(12) 0.8153(7)
N8_7 N 0.3492(16) 0.3148(10) 0.8473(7)
N9_7 N 0.3582(9) 0.2742(11) 0.7564(5)
N10_7 N 0.3249(12) 0.0652(11) 0.8041(7)
N12_7 N 0.3349(13) 0.1340(12) 0.8901(6)
C1_7 C 0.369(2) 0.4312(14) 0.7098(10)
C2_3 C 0.3778(19) 0.5295(16) 0.7055(11)
H1_3 H 0.383250 0.567162 0.738312
C3_3 C 0.379(2) 0.5717(15) 0.6527(14)
H2_3 H 0.392781 0.637148 0.649503
C4_3 C 0.359(2) 0.5178(16) 0.6028(12)
H3_3 H 0.349765 0.547387 0.567588
C5_7 C 0.3549(17) 0.4157(15) 0.6093(9)
C6_7 C 0.3247(13) 0.3518(13) 0.5669(9)
C7_7 C 0.2883(13) 0.2141(12) 0.5319(7)
C8_7 C 0.195(2) 0.0018(15) 0.4773(8)
C9_7 C 0.3647(15) 0.3689(15) 0.7630(8)
C10_7 C 0.3483(14) 0.2417(13) 0.8087(7)
C11_7 C 0.3386(11) 0.1456(13) 0.8321(8)
C12_7 C 0.3161(15) 0.0435(14) 0.8952(9)
H5_7 H 0.306627 0.013801 0.930431
C13_7 C 0.2631(16) 0.1147(15) 0.5204(9)
H6_7 H 0.244225 0.107664 0.716378
H7_7 H 0.318864 0.0471265 0.676742
H4_7 H 0.160723 0.965809 0.450437
H4_8 H 0.839277 0.034191 0.450437
O1_8 O 0.7231(16) 0.8948(13) 0.6786(7)
N1_8 N 0.6448(12) 0.6244(11) 0.6640(7)
N2_8 N 0.7078(14) 0.6301(14) 0.5141(8)
N4_8 N 0.6749(14) 0.7454(10) 0.5787(7)
N6_8 N 0.7232(13) 0.9580(11) 0.5562(7)
N7_8 N 0.6393(15) 0.5999(12) 0.8153(7)
N8_8 N 0.6508(16) 0.6852(10) 0.8473(7)
N9_8 N 0.6418(9) 0.7258(11) 0.7564(5)
N10_8 N 0.6751(12) 0.9348(11) 0.8041(7)
N12_8 N 0.6651(13) 0.8660(12) 0.8901(6)
C1_8 C 0.631(2) 0.5688(14) 0.7098(10)
C2_4 C 0.6222(19) 0.4705(16) 0.7055(11)
H1_4 H 0.616750 0.432838 0.738312
C3_4 C 0.621(2) 0.4283(15) 0.6527(14)
H2_4 H 0.607219 0.362852 0.649503
C4_4 C 0.641(2) 0.4822(16) 0.6028(12)
H3_4 H 0.650235 0.452613 0.567588
C5_8 C 0.6451(17) 0.5843(15) 0.6093(9)
C6_8 C 0.6753(13) 0.6482(13) 0.5669(9)
C7_8 C 0.7117(13) 0.7859(12) 0.5319(7)
C8_8 C 0.805(2) 0.9982(15) 0.4773(8)
C9_8 C 0.6353(15) 0.6311(15) 0.7630(8)
C10_8 C 0.6517(14) 0.7583(13) 0.8087(7)
C11_8 C 0.6614(11) 0.8544(13) 0.8321(8)
C12_8 C 0.6839(15) 0.9565(14) 0.8952(9)
H5_8 H 0.693373 0.986199 0.930431
C13_8 C 0.7369(16) 0.8853(15) 0.5204(9)
H6_8 H 0.755775 0.892336 0.716378
H7_8 H 0.681136 0.952874 0.676742
C2_5 C 0.9705(16) 0.8778(19) 0.7945(11)
H1_5 H 0.932838 0.883250 0.761688
C3_5 C 0.9283(15) 0.879(2) 0.8473(14)
H2_5 H 0.862852 0.892781 0.850497
C4_5 C 0.9822(16) 0.859(2) 0.8972(12)
H3_5 H 0.952613 0.849765 0.932412
C2_6 C 0.0295(16) 0.1222(19) 0.7945(11)
H1_6 H 0.067162 0.116750 0.761688
C3_6 C 0.0717(15) 0.121(2) 0.8473(14)
H2_6 H 0.137148 0.107219 0.850497
C4_6 C 0.0178(16) 0.141(2) 0.8972(12)
H3_6 H 0.047387 0.150235 0.932412
C2_7 C 0.8778(19) 0.0295(16) 0.2055(11)
H1_7 H 0.883250 0.067162 0.238312
C3_7 C 0.879(2) 0.0717(15) 0.1527(14)
H2_7 H 0.892781 0.137148 0.149503
C4_7 C 0.859(2) 0.0178(16) 0.1028(12)
H3_7 H 0.849765 0.047387 0.067588
C2_8 C 0.1222(19) 0.9705(16) 0.2055(11)
H1_8 H 0.116750 0.932838 0.238312
C3_8 C 0.121(2) 0.9283(15) 0.1527(14)
H2_8 H 0.107219 0.862852 0.149503
C4_8 C 0.141(2) 0.9822(16) 0.1028(12)
H3_8 H 0.150235 0.952613 0.067588
loop_
_geom_bond_atom_site_label_1
_geom_bond_atom_site_label_2
_geom_bond_site_symmetry_1
_geom_bond_site_symmetry_2
N13 C8 1_555 1_555
H4 C8 1_555 1_555
Zn4 N3 1_555 1_555
N13 Zn4 1_555 1_555
Zn1 O1 1_555 1_555
Zn2 N8 1_555 1_555
N1 Zn1 1_555 1_555
N4 Zn1 1_555 1_555
N5 N6 1_555 1_555
N6 C13 1_555 1_555
N7 N8 1_555 1_555
N8 C10 1_555 1_555
N9 Zn1 1_555 1_555
N10 N11 1_555 1_555
N11 C12 1_555 1_555
N12 Zn2 1_555 1_555
C1 N1 1_555 1_555
C5 N1 1_555 1_555
C6 N2 1_555 1_555
C7 N4 1_555 1_555
C9 N7 1_555 1_555
C10 N9 1_555 1_555
C11 N10 1_555 1_555
C12 N12 1_555 1_555
H5 C12 1_555 1_555
Zn3 N11 1_555 1_555
Zn5 N5 1_555 1_555
N14 Zn2 1_555 1_555
N15 Zn2 1_555 1_555
N16 Zn1 1_555 1_555
N17 Zn2 1_555 1_555
N4 C6 1_555 1_555
N9 C9 1_555 1_555
N12 C11 1_555 1_555
C1 C9 1_555 1_555
C5 C6 1_555 1_555
C7 C13 1_555 1_555
C10 C11 1_555 1_555
O1 H6 1_555 1_555
O1 H7 1_555 1_555
N13_2 C8_2 1_555 1_555
H4_2 C8_2 1_555 1_555
Zn4_2 N3_2 1_555 1_555
N13_2 Zn4_2 1_555 1_555
Zn1_2 O1_2 1_555 1_555
Zn2_2 N8_2 1_555 1_555
N1_2 Zn1_2 1_555 1_555
N4_2 Zn1_2 1_555 1_555
N5_2 N6_2 1_555 1_555
N6_2 C13_2 1_555 1_555
N7_2 N8_2 1_555 1_555
N8_2 C10_2 1_555 1_555
N9_2 Zn1_2 1_555 1_555
N10_2 N11_2 1_555 1_555
N11_2 C12_2 1_555 1_555
N12_2 Zn2_2 1_555 1_555
C1_2 N1_2 1_555 1_555
C5_2 N1_2 1_555 1_555
C6_2 N2_2 1_555 1_555
C7_2 N4_2 1_555 1_555
C9_2 N7_2 1_555 1_555
C10_2 N9_2 1_555 1_555
C11_2 N10_2 1_555 1_555
C12_2 N12_2 1_555 1_555
H5_2 C12_2 1_555 1_555
Zn3_2 N11_2 1_555 1_555
Zn5_2 N5_2 1_555 1_555
N14_2 Zn2_2 1_555 1_555
N15_2 Zn2_2 1_555 1_555
N16_2 Zn1_2 1_555 1_555
N17_2 Zn2_2 1_555 1_555
N4_2 C6_2 1_555 1_555
N9_2 C9_2 1_555 1_555
N12_2 C11_2 1_555 1_555
C1_2 C9_2 1_555 1_555
C5_2 C6_2 1_555 1_555
C7_2 C13_2 1_555 1_555
C10_2 C11_2 1_555 1_555
O1_2 H6_2 1_555 1_555
O1_2 H7_2 1_555 1_555
Zn1_3 O1_3 1_555 1_555
Zn2_3 N8_3 1_555 1_555
N1_3 Zn1_3 1_555 1_555
N4_3 Zn1_3 1_555 1_555
N5_3 N6_3 1_555 1_555
N6_3 C13_3 1_555 1_555
N7_3 N8_3 1_555 1_555
N8_3 C10_3 1_555 1_555
N9_3 Zn1_3 1_555 1_555
N10_3 N11_3 1_555 1_555
N11_3 C12_3 1_555 1_555
N12_3 Zn2_3 1_555 1_555
C1_3 N1_3 1_555 1_555
C5_3 N1_3 1_555 1_555
C6_3 N2_3 1_555 1_555
C7_3 N4_3 1_555 1_555
C9_3 N7_3 1_555 1_555
C10_3 N9_3 1_555 1_555
C11_3 N10_3 1_555 1_555
C12_3 N12_3 1_555 1_555
H5_3 C12_3 1_555 1_555
Zn3_3 N11_3 1_555 1_555
Zn4_2 N5_3 1_555 1_555
N14_3 Zn2_3 1_555 1_555
N15_3 Zn2_3 1_555 1_555
N16_3 Zn1_3 1_555 1_555
N17_3 Zn2_3 1_555 1_555
N4_3 C6_3 1_555 1_555
N9_3 C9_3 1_555 1_555
N12_3 C11_3 1_555 1_555
C1_3 C9_3 1_555 1_555
C5_3 C6_3 1_555 1_555
C7_3 C13_3 1_555 1_555
C10_3 C11_3 1_555 1_555
O1_3 H6_3 1_555 1_555
O1_3 H7_3 1_555 1_555
N13_3 C8_3 1_555 1_555
H4_3 C8_3 1_555 1_555
Zn5 N3_3 1_555 1_555
N13_3 Zn5 1_555 1_555
Zn1_4 O1_4 1_555 1_555
Zn2_4 N8_4 1_555 1_555
N1_4 Zn1_4 1_555 1_555
N4_4 Zn1_4 1_555 1_555
N5_4 N6_4 1_555 1_555
N6_4 C13_4 1_555 1_555
N7_4 N8_4 1_555 1_555
N8_4 C10_4 1_555 1_555
N9_4 Zn1_4 1_555 1_555
N10_4 N11_4 1_555 1_555
N11_4 C12_4 1_555 1_555
N12_4 Zn2_4 1_555 1_555
C1_4 N1_4 1_555 1_555
C5_4 N1_4 1_555 1_555
C6_4 N2_4 1_555 1_555
C7_4 N4_4 1_555 1_555
C9_4 N7_4 1_555 1_555
C10_4 N9_4 1_555 1_555
C11_4 N10_4 1_555 1_555
C12_4 N12_4 1_555 1_555
H5_4 C12_4 1_555 1_555
Zn3_4 N11_4 1_555 1_555
Zn4 N5_4 1_555 1_555
N14_4 Zn2_4 1_555 1_555
N15_4 Zn2_4 1_555 1_555
N16_4 Zn1_4 1_555 1_555
N17_4 Zn2_4 1_555 1_555
N4_4 C6_4 1_555 1_555
N9_4 C9_4 1_555 1_555
N12_4 C11_4 1_555 1_555
C1_4 C9_4 1_555 1_555
C5_4 C6_4 1_555 1_555
C7_4 C13_4 1_555 1_555
C10_4 C11_4 1_555 1_555
O1_4 H6_4 1_555 1_555
O1_4 H7_4 1_555 1_555
N13_4 C8_4 1_555 1_555
H4_4 C8_4 1_555 1_555
Zn5_2 N3_4 1_555 1_555
N13_4 Zn5_2 1_555 1_555
Zn3_3 O1_5 1_555 1_555
Zn4_2 N8_5 1_555 1_555
N1_5 Zn3_3 1_555 1_555
N2_5 N14_2 1_555 1_555
N14_2 C7_5 1_555 1_555
N4_5 Zn3_3 1_555 1_555
N6_5 C13_5 1_555 1_555
N7_5 N8_5 1_555 1_555
N8_5 C10_5 1_555 1_555
N9_5 Zn3_3 1_555 1_555
N12_5 Zn4_2 1_555 1_555
N17_2 C8_5 1_555 1_555
C1_5 N1_5 1_555 1_555
C2 C1_5 1_555 1_555
H1 C2 1_555 1_555
C3 C2 1_555 1_555
H2 C3 1_555 1_555
C4 C3 1_555 1_555
H3 C4 1_555 1_555
C5_5 N1_5 1_555 1_555
C6_5 N2_5 1_555 1_555
C7_5 N4_5 1_555 1_555
C9_5 N7_5 1_555 1_555
C10_5 N9_5 1_555 1_555
C11_5 N10_5 1_555 1_555
C12_5 N12_5 1_555 1_555
H5_5 C12_5 1_555 1_555
C13_5 N17_2 1_555 1_555
N4_5 C6_5 1_555 1_555
N9_5 C9_5 1_555 1_555
N12_5 C11_5 1_555 1_555
C1_5 C9_5 1_555 1_555
C4 C5_5 1_555 1_555
C5_5 C6_5 1_555 1_555
C7_5 C13_5 1_555 1_555
C10_5 C11_5 1_555 1_555
O1_5 H6_5 1_555 1_555
O1_5 H7_5 1_555 1_555
Zn3_4 O1_6 1_555 1_555
Zn4 N8_6 1_555 1_555
N1_6 Zn3_4 1_555 1_555
N2_6 N14 1_555 1_555
N14 C7_6 1_555 1_555
N4_6 Zn3_4 1_555 1_555
N6_6 C13_6 1_555 1_555
N7_6 N8_6 1_555 1_555
N8_6 C10_6 1_555 1_555
N9_6 Zn3_4 1_555 1_555
N12_6 Zn4 1_555 1_555
N17 C8_6 1_555 1_555
C1_6 N1_6 1_555 1_555
C2_2 C1_6 1_555 1_555
H1_2 C2_2 1_555 1_555
C3_2 C2_2 1_555 1_555
H2_2 C3_2 1_555 1_555
C4_2 C3_2 1_555 1_555
H3_2 C4_2 1_555 1_555
C5_6 N1_6 1_555 1_555
C6_6 N2_6 1_555 1_555
C7_6 N4_6 1_555 1_555
C9_6 N7_6 1_555 1_555
C10_6 N9_6 1_555 1_555
C11_6 N10_6 1_555 1_555
C12_6 N12_6 1_555 1_555
H5_6 C12_6 1_555 1_555
C13_6 N17 1_555 1_555
N4_6 C6_6 1_555 1_555
N9_6 C9_6 1_555 1_555
N12_6 C11_6 1_555 1_555
C1_6 C9_6 1_555 1_555
C4_2 C5_6 1_555 1_555
C5_6 C6_6 1_555 1_555
C7_6 C13_6 1_555 1_555
C10_6 C11_6 1_555 1_555
O1_6 H6_6 1_555 1_555
O1_6 H7_6 1_555 1_555
Zn3_2 O1_7 1_555 1_555
Zn5_2 N8_7 1_555 1_555
N1_7 Zn3_2 1_555 1_555
N2_7 N14_4 1_555 1_555
N14_4 C7_7 1_555 1_555
N4_7 Zn3_2 1_555 1_555
N6_7 C13_7 1_555 1_555
N7_7 N8_7 1_555 1_555
N8_7 C10_7 1_555 1_555
N9_7 Zn3_2 1_555 1_555
N12_7 Zn5_2 1_555 1_555
N17_4 C8_7 1_555 1_555
C1_7 N1_7 1_555 1_555
C2_3 C1_7 1_555 1_555
H1_3 C2_3 1_555 1_555
C3_3 C2_3 1_555 1_555
H2_3 C3_3 1_555 1_555
C4_3 C3_3 1_555 1_555
H3_3 C4_3 1_555 1_555
C5_7 N1_7 1_555 1_555
C6_7 N2_7 1_555 1_555
C7_7 N4_7 1_555 1_555
C9_7 N7_7 1_555 1_555
C10_7 N9_7 1_555 1_555
C11_7 N10_7 1_555 1_555
C12_7 N12_7 1_555 1_555
H5_7 C12_7 1_555 1_555
C13_7 N17_4 1_555 1_555
N4_7 C6_7 1_555 1_555
N9_7 C9_7 1_555 1_555
N12_7 C11_7 1_555 1_555
C1_7 C9_7 1_555 1_555
C4_3 C5_7 1_555 1_555
C5_7 C6_7 1_555 1_555
C7_7 C13_7 1_555 1_555
C10_7 C11_7 1_555 1_555
O1_7 H6_7 1_555 1_555
O1_7 H7_7 1_555 1_555
Zn3 O1_8 1_555 1_555
Zn5 N8_8 1_555 1_555
N1_8 Zn3 1_555 1_555
N2_8 N14_3 1_555 1_555
N14_3 C7_8 1_555 1_555
N4_8 Zn3 1_555 1_555
N6_8 C13_8 1_555 1_555
N7_8 N8_8 1_555 1_555
N8_8 C10_8 1_555 1_555
N9_8 Zn3 1_555 1_555
N12_8 Zn5 1_555 1_555
N17_3 C8_8 1_555 1_555
C1_8 N1_8 1_555 1_555
C2_4 C1_8 1_555 1_555
H1_4 C2_4 1_555 1_555
C3_4 C2_4 1_555 1_555
H2_4 C3_4 1_555 1_555
C4_4 C3_4 1_555 1_555
H3_4 C4_4 1_555 1_555
C5_8 N1_8 1_555 1_555
C6_8 N2_8 1_555 1_555
C7_8 N4_8 1_555 1_555
C9_8 N7_8 1_555 1_555
C10_8 N9_8 1_555 1_555
C11_8 N10_8 1_555 1_555
C12_8 N12_8 1_555 1_555
H5_8 C12_8 1_555 1_555
C13_8 N17_3 1_555 1_555
N4_8 C6_8 1_555 1_555
N9_8 C9_8 1_555 1_555
N12_8 C11_8 1_555 1_555
C1_8 C9_8 1_555 1_555
C4_4 C5_8 1_555 1_555
C5_8 C6_8 1_555 1_555
C7_8 C13_8 1_555 1_555
C10_8 C11_8 1_555 1_555
O1_8 H6_8 1_555 1_555
O1_8 H7_8 1_555 1_555
H1_5 C2_5 1_555 1_555
C3_5 C2_5 1_555 1_555
H2_5 C3_5 1_555 1_555
C4_5 C3_5 1_555 1_555
H3_5 C4_5 1_555 1_555
H1_6 C2_6 1_555 1_555
C3_6 C2_6 1_555 1_555
H2_6 C3_6 1_555 1_555
C4_6 C3_6 1_555 1_555
H3_6 C4_6 1_555 1_555
H1_7 C2_7 1_555 1_555
C3_7 C2_7 1_555 1_555
H2_7 C3_7 1_555 1_555
C4_7 C3_7 1_555 1_555
H3_7 C4_7 1_555 1_555
H1_8 C2_8 1_555 1_555
C3_8 C2_8 1_555 1_555
H2_8 C3_8 1_555 1_555
C4_8 C3_8 1_555 1_555
H3_8 C4_8 1_555 1_555

#END
