
###############################################################################
#
# This file contains modified crystal structure data generated from the
# MOF subset of the Cambridge Structural Database (CSD) v543 
# hosted by the Cambridge Crystallographic Data Centre (CCDC).
#
# This work is licensed under the Creative Commons
# Attribution-NonCommercial-ShareAlike 4.0 International License.
# To view a copy of this license, visit
# http://creativecommons.org/licenses/by-nc-sa/4.0/
# or send a letter to
# Creative Commons, PO Box 1866, Mountain View, CA 94042, USA.
#
# CIF created using the CSD Python API on 29 September 2022
# The structure has been converted into the P1 space group
# The structure has a 3D framework
# The original CSD entry XAHROQ is in the tetragonal crystal system
# The original CSD entry XAHROQ is in a Sohncke space group
# The framework has been calculated to contain at least 10.0% void space
# The void calculation uses a probe of radius 1.32A, grid spacing 0.4
#
###############################################################################

data_XAHROQ
_chemical_formula_moiety         '(C40 H8 Cu8 N32)n'
_symmetry_cell_setting           triclinic
_symmetry_space_group_name_H-M   'P 1'
_symmetry_Int_Tables_number      1
_space_group_name_Hall           'P 1'
loop_
_symmetry_equiv_pos_site_id
_symmetry_equiv_pos_as_xyz
1 x,y,z
_cell_length_a                   9.3619(3)
_cell_length_b                   9.3619(3)
_cell_length_c                   21.4713(12)
_cell_angle_alpha                90
_cell_angle_beta                 90
_cell_angle_gamma                90
_cell_volume                     1881.86
loop_
_atom_site_label
_atom_site_type_symbol
_atom_site_fract_x
_atom_site_fract_y
_atom_site_fract_z
Cu1 Cu 0.45354(5) 0.07411(5) 0.12193(2)
N1 N 0.1607(4) 0.4060(4) 0.16093(14)
N2 N 0.3124(4) 0.2171(4) 0.15779(14)
N3 N 0.0184(4) 0.4359(4) 0.31035(15)
N4 N 0.3347(4) 0.0632(4) 0.30595(14)
C1 C 0.2526(5) 0.3236(4) 0.12766(19)
H1 H 0.2722 0.3417 0.0859
C2 C 0.0835(4) 0.3935(4) 0.26935(17)
C3 C 0.2572(4) 0.2267(4) 0.21632(16)
C4 C 0.1627(4) 0.3412(4) 0.21835(16)
C5 C 0.2981(4) 0.1349(4) 0.26604(18)
Cu3 Cu 0.04646(5) 0.57411(5) 0.12807(2)
N7 N 0.5632(4) 0.1653(4) 0.05595(14)
Cu2 Cu 0.42589(5) 0.95354(5) 0.37193(2)
N5 N 0.3393(4) 0.9060(4) 0.08907(14)
N6 N 0.5641(4) 0.9816(4) 0.18965(15)
Cu4 Cu 0.92589(5) 0.54646(5) 0.37807(2)
N6_2 N 0.5184(4) 0.0641(4) 0.43965(15)
N1_2 N 0.0940(4) 0.6607(4) 0.41093(14)
N2_2 N 0.2829(4) 0.8124(4) 0.40779(14)
N3_2 N 0.0641(4) 0.5184(4) 0.56035(15)
N4_2 N 0.4368(4) 0.8347(4) 0.55595(14)
C1_2 C 0.1764(4) 0.7526(5) 0.37766(19)
H1_2 H 0.1583 0.7722 0.3359
C2_2 C 0.1065(4) 0.5835(4) 0.51935(17)
C3_2 C 0.2733(4) 0.7572(4) 0.46632(16)
C4_2 C 0.1588(4) 0.6627(4) 0.46835(16)
C5_2 C 0.3651(4) 0.7981(4) 0.51604(18)
Cu2_2 Cu 0.54646(5) 0.92589(5) 0.62193(2)
N5_2 N 0.5940(4) 0.8393(4) 0.33907(14)
Cu4_2 Cu 0.95354(5) 0.42589(5) 0.62807(2)
Cu4_3 Cu 0.07411(5) 0.45354(5) 0.87807(2)
Cu2_3 Cu 0.57411(5) 0.04646(5) 0.87193(2)
N5_3 N 0.6607(4) 0.0940(4) 0.58907(14)
N6_3 N 0.4359(4) 0.0184(4) 0.68965(15)
N1_3 N 0.8393(4) 0.5940(4) 0.66093(14)
N2_3 N 0.6876(4) 0.7829(4) 0.65779(14)
N3_3 N 0.9816(4) 0.5641(4) 0.81035(15)
N4_3 N 0.6653(4) 0.9368(4) 0.80595(14)
C1_3 C 0.7474(5) 0.6764(4) 0.62766(19)
H1_3 H 0.7278 0.6583 0.5859
C2_3 C 0.9165(4) 0.6065(4) 0.76935(17)
C3_3 C 0.7428(4) 0.7733(4) 0.71632(16)
C4_3 C 0.8373(4) 0.6588(4) 0.71835(16)
C5_3 C 0.7019(4) 0.8651(4) 0.76604(18)
N3_4 N 0.9359(4) 0.4816(4) 0.06035(15)
C2_4 C 0.8935(4) 0.4165(4) 0.01935(17)
C5_4 C 0.6349(4) 0.2019(4) 0.01604(18)
N1_4 N 0.9060(4) 0.3393(4) 0.91093(14)
N2_4 N 0.7171(4) 0.1876(4) 0.90779(14)
C1_4 C 0.8236(4) 0.2474(5) 0.87766(19)
H1_4 H 0.8417 0.2278 0.8359
C3_4 C 0.7267(4) 0.2428(4) 0.96632(16)
C4_4 C 0.8412(4) 0.3373(4) 0.96835(16)
N5_4 N 0.4060(4) 0.1607(4) 0.83907(14)
N6_4 N 0.4816(4) 0.9359(4) 0.93965(15)
N7_2 N 0.0632(4) 0.3347(4) 0.69405(14)
N2_5 N 0.8124(4) 0.2829(4) 0.59221(14)
N4_4 N 0.8347(4) 0.4368(4) 0.44405(14)
C1_5 C 0.7526(5) 0.1764(4) 0.62234(19)
H1_5 H 0.7722 0.1583 0.6641
C2_5 C 0.5835(4) 0.1065(4) 0.48065(17)
C3_5 C 0.7572(4) 0.2733(4) 0.53368(16)
C4_5 C 0.6627(4) 0.1588(4) 0.53165(16)
C5_5 C 0.7981(4) 0.3651(4) 0.48396(18)
N2_6 N 0.1876(4) 0.7171(4) 0.09221(14)
C1_6 C 0.2474(5) 0.8236(4) 0.12234(19)
H1_6 H 0.2278 0.8417 0.1641
C3_6 C 0.2428(4) 0.7267(4) 0.03368(16)
C4_6 C 0.3373(4) 0.8412(4) 0.03165(16)
N4_5 N 0.1653(4) 0.5632(4) 0.94405(14)
C2_6 C 0.4165(4) 0.8935(4) 0.98065(17)
C5_6 C 0.2019(4) 0.6349(4) 0.98396(18)
N7_3 N 0.9368(4) 0.6653(4) 0.19405(14)
N2_7 N 0.2171(4) 0.3124(4) 0.84221(14)
C1_7 C 0.3236(4) 0.2526(5) 0.87234(19)
H1_7 H 0.3417 0.2722 0.9141
C2_7 C 0.3935(4) 0.0835(4) 0.73065(17)
C3_7 C 0.2267(4) 0.2572(4) 0.78368(16)
C4_7 C 0.3412(4) 0.1627(4) 0.78165(16)
C5_7 C 0.1349(4) 0.2981(4) 0.73396(18)
N2_8 N 0.7829(4) 0.6876(4) 0.34221(14)
C1_8 C 0.6764(4) 0.7474(5) 0.37234(19)
H1_8 H 0.6583 0.7278 0.4141
C2_8 C 0.6065(4) 0.9165(4) 0.23065(17)
C3_8 C 0.7733(4) 0.7428(4) 0.28368(16)
C4_8 C 0.6588(4) 0.8373(4) 0.28165(16)
C5_8 C 0.8651(4) 0.7019(4) 0.23396(18)
loop_
_geom_bond_atom_site_label_1
_geom_bond_atom_site_label_2
_geom_bond_site_symmetry_1
_geom_bond_site_symmetry_2
Cu1 N2 1_555 1_555
N1 C1 1_555 1_555
N2 C1 1_555 1_555
N3 C2 1_555 1_555
N4 C5 1_555 1_555
C1 H1 1_555 1_555
C2 C4 1_555 1_555
C3 N2 1_555 1_555
C4 N1 1_555 1_555
C5 C3 1_555 1_555
Cu3 N1 1_555 1_555
N7 Cu1 1_555 1_555
C3 C4 1_555 1_555
Cu2 N2_2 1_555 1_555
N1_2 C1_2 1_555 1_555
N2_2 C1_2 1_555 1_555
N3_2 C2_2 1_555 1_555
N4_2 C5_2 1_555 1_555
C1_2 H1_2 1_555 1_555
C2_2 C4_2 1_555 1_555
C3_2 N2_2 1_555 1_555
C4_2 N1_2 1_555 1_555
C5_2 C3_2 1_555 1_555
Cu2_2 N4_2 1_555 1_555
N5_2 Cu2 1_555 1_555
C3_2 C4_2 1_555 1_555
Cu2_2 N2_3 1_555 1_555
N1_3 C1_3 1_555 1_555
N2_3 C1_3 1_555 1_555
N3_3 C2_3 1_555 1_555
N4_3 C5_3 1_555 1_555
C1_3 H1_3 1_555 1_555
C2_3 C4_3 1_555 1_555
C3_3 N2_3 1_555 1_555
C4_3 N1_3 1_555 1_555
C5_3 C3_3 1_555 1_555
Cu4_2 N1_3 1_555 1_555
C3_3 C4_3 1_555 1_555
N3_4 C2_4 1_555 1_555
N7 C5_4 1_555 1_555
Cu2_3 N2_4 1_555 1_555
N1_4 C1_4 1_555 1_555
N2_4 C1_4 1_555 1_555
C1_4 H1_4 1_555 1_555
C3_4 N2_4 1_555 1_555
C4_4 N1_4 1_555 1_555
N5_4 Cu2_3 1_555 1_555
C3_4 C4_4 1_555 1_555
Cu4_2 N2_5 1_555 1_555
N5_3 C1_5 1_555 1_555
N2_5 C1_5 1_555 1_555
N6_2 C2_5 1_555 1_555
N4_4 C5_5 1_555 1_555
C1_5 H1_5 1_555 1_555
C2_5 C4_5 1_555 1_555
C3_5 N2_5 1_555 1_555
C4_5 N5_3 1_555 1_555
C5_5 C3_5 1_555 1_555
Cu4 N4_4 1_555 1_555
C3_5 C4_5 1_555 1_555
Cu3 N2_6 1_555 1_555
N5 C1_6 1_555 1_555
N2_6 C1_6 1_555 1_555
C1_6 H1_6 1_555 1_555
C3_6 N2_6 1_555 1_555
C4_6 N5 1_555 1_555
C3_6 C4_6 1_555 1_555
N6_4 C2_6 1_555 1_555
N4_5 C5_6 1_555 1_555
Cu4_3 N4_5 1_555 1_555
Cu4_3 N2_7 1_555 1_555
N5_4 C1_7 1_555 1_555
N2_7 C1_7 1_555 1_555
N6_3 C2_7 1_555 1_555
N7_2 C5_7 1_555 1_555
C1_7 H1_7 1_555 1_555
C2_7 C4_7 1_555 1_555
C3_7 N2_7 1_555 1_555
C4_7 N5_4 1_555 1_555
C5_7 C3_7 1_555 1_555
C3_7 C4_7 1_555 1_555
Cu4 N2_8 1_555 1_555
N5_2 C1_8 1_555 1_555
N2_8 C1_8 1_555 1_555
N6 C2_8 1_555 1_555
N7_3 C5_8 1_555 1_555
C1_8 H1_8 1_555 1_555
C2_8 C4_8 1_555 1_555
C3_8 N2_8 1_555 1_555
C4_8 N5_2 1_555 1_555
C5_8 C3_8 1_555 1_555
C3_8 C4_8 1_555 1_555

#END
