
###############################################################################
#
# This file contains modified crystal structure data generated from the
# MOF subset of the Cambridge Structural Database (CSD) v543 
# hosted by the Cambridge Crystallographic Data Centre (CCDC).
#
# This work is licensed under the Creative Commons
# Attribution-NonCommercial-ShareAlike 4.0 International License.
# To view a copy of this license, visit
# http://creativecommons.org/licenses/by-nc-sa/4.0/
# or send a letter to
# Creative Commons, PO Box 1866, Mountain View, CA 94042, USA.
#
# CIF created using the CSD Python API on 29 September 2022
# The structure has been converted into the P1 space group
# The structure has a 3D framework
# The original CSD entry XAJQAC is in the monoclinic crystal system
# The framework has been calculated to contain at least 10.0% void space
# The void calculation uses a probe of radius 1.32A, grid spacing 0.4
#
###############################################################################

data_XAJQAC
_chemical_formula_moiety         '(C88 H44 In6 O20)n'
_symmetry_cell_setting           triclinic
_symmetry_space_group_name_H-M   'P 1'
_symmetry_Int_Tables_number      1
_space_group_name_Hall           'P 1'
loop_
_symmetry_equiv_pos_site_id
_symmetry_equiv_pos_as_xyz
1 x,y,z
_cell_length_a                   15.6323(11)
_cell_length_b                   16.1854(4)
_cell_length_c                   14.3253(8)
_cell_angle_alpha                90
_cell_angle_beta                 76.763(15)
_cell_angle_gamma                90
_cell_volume                     3528.22
loop_
_atom_site_label
_atom_site_type_symbol
_atom_site_fract_x
_atom_site_fract_y
_atom_site_fract_z
In5 In 0.500000 0.000000 0.500000
C23 C 0.389600 0.118700 0.658700
C24 C 0.389700 0.877500 0.665200
C25 C 0.319400 0.180500 0.680200
C26 C 0.324100 0.811100 0.681700
C27 C 0.305900 0.224300 0.760300
C28 C 0.308700 0.767300 0.762000
C29 C 0.269500 0.304500 0.764800
C30 C 0.269200 0.688200 0.766700
C31 C 0.231300 0.334400 0.694500
C32 C 0.231800 0.658900 0.695400
C33 C 0.230700 0.279400 0.622800
C34 C 0.236700 0.712400 0.621200
C35 C 0.278800 0.204700 0.613600
C36 C 0.287800 0.785600 0.611900
C37 C 0.181400 0.418700 0.703100
C38 C 0.181500 0.574400 0.702400
C39 C 0.089500 0.417600 0.726100
C40 C 0.089600 0.575500 0.726400
C41 C 0.048300 0.335900 0.731200
C42 C 0.048400 0.657000 0.730600
C43 C 0.229700 0.496500 0.682000
C44 C 0.044500 0.496600 0.734300
In5_2 In 0.500000 1.000000 0.500000
In9 In 0.500000 0.991800 0.750000
O8 O 0.421300 0.099600 0.574400
O10 O 0.417300 0.894800 0.735800
O13 O 0.426300 0.100500 0.731600
O15 O 0.421900 0.901300 0.577700
H12 H 0.300300 0.496500 0.651600
H13 H 0.089100 0.280600 0.717400
H14 H 0.089100 0.712200 0.715300
H15 H 0.323200 0.198200 0.823700
H16 H 0.271900 0.343800 0.825900
H17 H 0.191800 0.293500 0.570700
H18 H 0.282600 0.166300 0.550200
H19 H 0.326600 0.792500 0.825400
H20 H 0.268600 0.649200 0.829000
H21 H 0.200000 0.698600 0.567000
H22 H 0.297500 0.821500 0.545900
In3 In 0.500000 0.000000 0.000000
In3_2 In 0.500000 0.000000 1.000000
O1 O 0.554800 0.001400 0.113000
In3_3 In 0.500000 1.000000 0.000000
In7 In 0.500000 0.008200 0.250000
O16 O 0.421900 0.098700 0.077700
C1 C 0.610400 0.118700 0.841300
C2 C 0.610300 0.877500 0.834800
C3 C 0.680600 0.180500 0.819800
C4 C 0.675900 0.811100 0.818300
C5 C 0.694100 0.224300 0.739700
C6 C 0.691300 0.767300 0.738000
C7 C 0.730500 0.304500 0.735200
C8 C 0.730800 0.688200 0.733300
C9 C 0.768700 0.334400 0.805500
C10 C 0.768200 0.658900 0.804600
C11 C 0.769300 0.279400 0.877200
C12 C 0.763300 0.712400 0.878800
C13 C 0.721200 0.204700 0.886400
C14 C 0.712200 0.785600 0.888100
C15 C 0.818600 0.418700 0.796900
C16 C 0.818500 0.574400 0.797600
C17 C 0.910500 0.417600 0.773900
C18 C 0.910400 0.575500 0.773600
C19 C 0.951700 0.335900 0.768800
C20 C 0.951600 0.657000 0.769400
C21 C 0.770300 0.496500 0.818000
C22 C 0.955500 0.496600 0.765700
O2 O 0.578700 0.099600 0.925600
O3 O 0.582700 0.894800 0.764200
O4 O 0.573700 0.100500 0.768400
O5 O 0.578100 0.901300 0.922300
H1 H 0.699700 0.496500 0.848400
H2 H 0.910900 0.280600 0.782600
H3 H 0.910900 0.712200 0.784700
H4 H 0.676800 0.198200 0.676300
H5 H 0.728100 0.343800 0.674100
H6 H 0.808200 0.293500 0.929300
H7 H 0.717400 0.166300 0.949800
H8 H 0.673400 0.792500 0.674600
H9 H 0.731400 0.649200 0.671000
H10 H 0.800000 0.698600 0.933000
H11 H 0.702500 0.821500 0.954100
In3_4 In 0.500000 1.000000 1.000000
O9 O 0.421300 0.900400 0.074400
O6 O 0.445200 0.998600 0.887000
O7 O 0.554800 0.998600 0.613000
O1_2 O 0.445200 0.001400 0.387000
O16_2 O 0.578100 0.098700 0.422300
O9_2 O 0.578700 0.900400 0.425600
O11 O 0.417300 0.105200 0.235800
O12 O 0.582700 0.105200 0.264200
C1_2 C 0.389600 0.881300 0.158700
C2_2 C 0.389700 0.122500 0.165200
C3_2 C 0.319400 0.819500 0.180200
C4_2 C 0.324100 0.188900 0.181700
C5_2 C 0.305900 0.775700 0.260300
C6_2 C 0.308700 0.232700 0.262000
C7_2 C 0.269500 0.695500 0.264800
C8_2 C 0.269200 0.311800 0.266700
C9_2 C 0.231300 0.665600 0.194500
C10_2 C 0.231800 0.341100 0.195400
C11_2 C 0.230700 0.720600 0.122800
C12_2 C 0.236700 0.287600 0.121200
C13_2 C 0.278800 0.795300 0.113600
C14_2 C 0.287800 0.214400 0.111900
C15_2 C 0.181400 0.581300 0.203100
C16_2 C 0.181500 0.425600 0.202400
C17_2 C 0.089500 0.582400 0.226100
C18_2 C 0.089600 0.424500 0.226400
C19_2 C 0.048300 0.664100 0.231200
C20_2 C 0.048400 0.343000 0.230600
C21_2 C 0.229700 0.503500 0.182000
C22_2 C 0.044500 0.503400 0.234300
O4_2 O 0.426300 0.899500 0.231600
H1_2 H 0.300300 0.503500 0.151600
H2_2 H 0.089100 0.719400 0.217400
H3_2 H 0.089100 0.287800 0.215300
H4_2 H 0.323200 0.801800 0.323700
H5_2 H 0.271900 0.656200 0.325900
H6_2 H 0.191800 0.706500 0.070700
H7_2 H 0.282600 0.833700 0.050200
H8_2 H 0.326600 0.207500 0.325400
H9_2 H 0.268600 0.350800 0.329000
H10_2 H 0.200000 0.301400 0.067000
H11_2 H 0.297500 0.178500 0.045900
O14 O 0.573700 0.899500 0.268400
C23_2 C 0.610400 0.881300 0.341300
C24_2 C 0.610300 0.122500 0.334800
C25_2 C 0.680600 0.819500 0.319800
C26_2 C 0.675900 0.188900 0.318300
C27_2 C 0.694100 0.775700 0.239700
C28_2 C 0.691300 0.232700 0.238000
C29_2 C 0.730500 0.695500 0.235200
C30_2 C 0.730800 0.311800 0.233300
C31_2 C 0.768700 0.665600 0.305500
C32_2 C 0.768200 0.341100 0.304600
C33_2 C 0.769300 0.720600 0.377200
C34_2 C 0.763300 0.287600 0.378800
C35_2 C 0.721200 0.795300 0.386400
C36_2 C 0.712200 0.214400 0.388100
C37_2 C 0.818600 0.581300 0.296900
C38_2 C 0.818500 0.425600 0.297600
C39_2 C 0.910500 0.582400 0.273900
C40_2 C 0.910400 0.424500 0.273600
C41_2 C 0.951700 0.664100 0.268800
C42_2 C 0.951600 0.343000 0.269400
C43_2 C 0.770300 0.503500 0.318000
C44_2 C 0.955500 0.503400 0.265700
H12_2 H 0.699700 0.503500 0.348400
H13_2 H 0.910900 0.719400 0.282600
H14_2 H 0.910900 0.287800 0.284700
H15_2 H 0.676800 0.801800 0.176300
H16_2 H 0.728100 0.656200 0.174100
H17_2 H 0.808200 0.706500 0.429300
H18_2 H 0.717400 0.833700 0.449800
H19_2 H 0.673400 0.207500 0.174600
H20_2 H 0.731400 0.350800 0.171000
H21_2 H 0.800000 0.301400 0.433000
H22_2 H 0.702500 0.178500 0.454100
loop_
_geom_bond_atom_site_label_1
_geom_bond_atom_site_label_2
_geom_bond_site_symmetry_1
_geom_bond_site_symmetry_2
C23 C25 1_555 1_555
C24 C26 1_555 1_555
C25 C27 1_555 1_555
C26 C28 1_555 1_555
C27 C29 1_555 1_555
C28 C30 1_555 1_555
C29 C31 1_555 1_555
C30 C32 1_555 1_555
C31 C33 1_555 1_555
C32 C34 1_555 1_555
C33 C35 1_555 1_555
C34 C36 1_555 1_555
C35 C25 1_555 1_555
C36 C26 1_555 1_555
C37 C31 1_555 1_555
C38 C32 1_555 1_555
C39 C37 1_555 1_555
C40 C38 1_555 1_555
C43 C37 1_555 1_555
In5 O8 1_555 1_555
In5_2 O15 1_555 1_555
In9 O10 1_555 1_555
O8 C23 1_555 1_555
O10 C24 1_555 1_555
O13 C23 1_555 1_555
O15 C24 1_555 1_555
H12 C43 1_555 1_555
H13 C41 1_555 1_555
H14 C42 1_555 1_555
H15 C27 1_555 1_555
H16 C29 1_555 1_555
H17 C33 1_555 1_555
H18 C35 1_555 1_555
H19 C28 1_555 1_555
H20 C30 1_555 1_555
H21 C34 1_555 1_555
H22 C36 1_555 1_555
C38 C43 1_555 1_555
C39 C41 1_555 1_555
C39 C44 1_555 1_555
C40 C42 1_555 1_555
C40 C44 1_555 1_555
In3 O1 1_555 1_555
O1 In7 1_555 1_555
O16 In3 1_555 1_555
C1 C3 1_555 1_555
C2 C4 1_555 1_555
C3 C5 1_555 1_555
C4 C6 1_555 1_555
C5 C7 1_555 1_555
C6 C8 1_555 1_555
C7 C9 1_555 1_555
C8 C10 1_555 1_555
C9 C11 1_555 1_555
C10 C12 1_555 1_555
C11 C13 1_555 1_555
C12 C14 1_555 1_555
C13 C3 1_555 1_555
C14 C4 1_555 1_555
C15 C9 1_555 1_555
C16 C10 1_555 1_555
C17 C15 1_555 1_555
C18 C16 1_555 1_555
C19 C17 1_555 1_555
C20 C18 1_555 1_555
C21 C15 1_555 1_555
C22 C17 1_555 1_555
O2 C1 1_555 1_555
O3 C2 1_555 1_555
O4 C1 1_555 1_555
O5 C2 1_555 1_555
H1 C21 1_555 1_555
H2 C19 1_555 1_555
H3 C20 1_555 1_555
H4 C5 1_555 1_555
H5 C7 1_555 1_555
H6 C11 1_555 1_555
H7 C13 1_555 1_555
H8 C6 1_555 1_555
H9 C8 1_555 1_555
H10 C12 1_555 1_555
H11 C14 1_555 1_555
In3_4 O5 1_555 1_555
In9 O3 1_555 1_555
C16 C21 1_555 1_555
C18 C22 1_555 1_555
In3_2 O2 1_555 1_555
O9 In3_3 1_555 1_555
O6 In3_4 1_555 1_555
O7 In9 1_555 1_555
In9 O6 1_555 1_555
In5 O1_2 1_555 1_555
O1_2 In7 1_555 1_555
O16_2 In5 1_555 1_555
O7 In5_2 1_555 1_555
O9_2 In5_2 1_555 1_555
O11 In7 1_555 1_555
O12 In7 1_555 1_555
C1_2 C3_2 1_555 1_555
C2_2 C4_2 1_555 1_555
C3_2 C5_2 1_555 1_555
C4_2 C6_2 1_555 1_555
C5_2 C7_2 1_555 1_555
C6_2 C8_2 1_555 1_555
C7_2 C9_2 1_555 1_555
C8_2 C10_2 1_555 1_555
C9_2 C11_2 1_555 1_555
C10_2 C12_2 1_555 1_555
C11_2 C13_2 1_555 1_555
C12_2 C14_2 1_555 1_555
C13_2 C3_2 1_555 1_555
C14_2 C4_2 1_555 1_555
C15_2 C9_2 1_555 1_555
C16_2 C10_2 1_555 1_555
C17_2 C15_2 1_555 1_555
C18_2 C16_2 1_555 1_555
C19_2 C17_2 1_555 1_555
C20_2 C18_2 1_555 1_555
C21_2 C15_2 1_555 1_555
C22_2 C17_2 1_555 1_555
O9 C1_2 1_555 1_555
O11 C2_2 1_555 1_555
O4_2 C1_2 1_555 1_555
O16 C2_2 1_555 1_555
H1_2 C21_2 1_555 1_555
H2_2 C19_2 1_555 1_555
H3_2 C20_2 1_555 1_555
H4_2 C5_2 1_555 1_555
H5_2 C7_2 1_555 1_555
H6_2 C11_2 1_555 1_555
H7_2 C13_2 1_555 1_555
H8_2 C6_2 1_555 1_555
H9_2 C8_2 1_555 1_555
H10_2 C12_2 1_555 1_555
H11_2 C14_2 1_555 1_555
C16_2 C21_2 1_555 1_555
C18_2 C22_2 1_555 1_555
C23_2 C25_2 1_555 1_555
C24_2 C26_2 1_555 1_555
C25_2 C27_2 1_555 1_555
C26_2 C28_2 1_555 1_555
C27_2 C29_2 1_555 1_555
C28_2 C30_2 1_555 1_555
C29_2 C31_2 1_555 1_555
C30_2 C32_2 1_555 1_555
C31_2 C33_2 1_555 1_555
C32_2 C34_2 1_555 1_555
C33_2 C35_2 1_555 1_555
C34_2 C36_2 1_555 1_555
C35_2 C25_2 1_555 1_555
C36_2 C26_2 1_555 1_555
C37_2 C31_2 1_555 1_555
C38_2 C32_2 1_555 1_555
C39_2 C37_2 1_555 1_555
C40_2 C38_2 1_555 1_555
C43_2 C37_2 1_555 1_555
O9_2 C23_2 1_555 1_555
O12 C24_2 1_555 1_555
O14 C23_2 1_555 1_555
O16_2 C24_2 1_555 1_555
H12_2 C43_2 1_555 1_555
H13_2 C41_2 1_555 1_555
H14_2 C42_2 1_555 1_555
H15_2 C27_2 1_555 1_555
H16_2 C29_2 1_555 1_555
H17_2 C33_2 1_555 1_555
H18_2 C35_2 1_555 1_555
H19_2 C28_2 1_555 1_555
H20_2 C30_2 1_555 1_555
H21_2 C34_2 1_555 1_555
H22_2 C36_2 1_555 1_555
C38_2 C43_2 1_555 1_555
C39_2 C41_2 1_555 1_555
C39_2 C44_2 1_555 1_555
C40_2 C42_2 1_555 1_555
C40_2 C44_2 1_555 1_555

#END
