
###############################################################################
#
# This file contains modified crystal structure data generated from the
# MOF subset of the Cambridge Structural Database (CSD) v543 
# hosted by the Cambridge Crystallographic Data Centre (CCDC).
#
# This work is licensed under the Creative Commons
# Attribution-NonCommercial-ShareAlike 4.0 International License.
# To view a copy of this license, visit
# http://creativecommons.org/licenses/by-nc-sa/4.0/
# or send a letter to
# Creative Commons, PO Box 1866, Mountain View, CA 94042, USA.
#
# CIF created using the CSD Python API on 29 September 2022
# The structure has been converted into the P1 space group
# The structure has a 3D framework
# The original CSD entry XAKCIZ is in the monoclinic crystal system
# The framework has been calculated to contain at least 10.0% void space
# The void calculation uses a probe of radius 1.32A, grid spacing 0.4
#
###############################################################################

data_XAKCIZ
_chemical_formula_moiety         '(C108 H96 N54 O40 Zn16)n'
_symmetry_cell_setting           triclinic
_symmetry_space_group_name_H-M   'P 1'
_symmetry_Int_Tables_number      1
_space_group_name_Hall           'P 1'
loop_
_symmetry_equiv_pos_site_id
_symmetry_equiv_pos_as_xyz
1 x,y,z
_cell_length_a                   13.7343(4)
_cell_length_b                   26.6952(6)
_cell_length_c                   18.7420(7)
_cell_angle_alpha                90
_cell_angle_beta                 132.855(2)
_cell_angle_gamma                90
_cell_volume                     5037.39
loop_
_atom_site_label
_atom_site_type_symbol
_atom_site_fract_x
_atom_site_fract_y
_atom_site_fract_z
Zn1 Zn 0.39348(6) 0.54470(2) 0.21806(5)
Zn2 Zn 0.60613(6) 0.45025(2) 0.24459(5)
O1 O 0.2921(6) 0.61282(17) 0.1438(5)
O2 O 0.5500(5) 0.5695(2) 0.2131(4)
H1 H 0.6121 0.5944 0.2609
H2 H 0.6133 0.5440 0.2303
O3 O 0.4394(6) 0.61762(19) 0.3013(6)
O4 O 0.3997(5) 0.87753(15) 0.2724(4)
O5 O 0.2143(5) 0.87356(16) 0.1164(4)
N1 N 0.7340(4) 0.50687(18) 0.5041(4)
N2 N 0.6389(4) 0.47771(17) 0.3582(4)
N3 N 0.5517(4) 0.51136(18) 0.3465(4)
N4 N 0.4214(4) 0.46490(17) 0.1206(4)
N5 N 0.3355(4) 0.49903(17) 0.1085(3)
C1 C 0.3606(9) 0.6377(3) 0.2230(8)
C2 C 0.3391(8) 0.6945(2) 0.2138(6)
C3 C 0.4328(8) 0.7235(3) 0.2949(6)
H5 H 0.5029 0.7084 0.3539
C4 C 0.4223(7) 0.7747(2) 0.2884(6)
H6 H 0.4874 0.7941 0.3426
C5 C 0.3164(6) 0.7978(2) 0.2024(5)
C6 C 0.2220(7) 0.7680(2) 0.1241(6)
H7 H 0.1485 0.7829 0.0661
C7 C 0.2334(7) 0.7168(3) 0.1292(6)
H8 H 0.1688 0.6974 0.0748
C8 C 0.3077(7) 0.8538(2) 0.1954(6)
C17 C 0.7449(5) 0.4765(2) 0.4518(4)
H13 H 0.8193 0.4569 0.4792
C18 C 0.6130(6) 0.5275(2) 0.4328(4)
H14 H 0.5769 0.5515 0.4452
C19 C 0.3524(6) 0.4413(2) 0.0370(5)
H15 H 0.3873 0.4163 0.0254
C20 C 0.2235(6) 0.4920(2) 0.0196(5)
Zn6 Zn 0.39387(6) 0.95025(2) 0.25541(5)
Zn8 Zn 0.87066(6) 0.52994(2) 0.64063(5)
O11 O 0.6003(5) 0.37753(15) 0.2276(4)
N16 N 0.7447(4) 0.47536(19) 0.2475(4)
N17 N 0.2521(5) 0.52420(18) 0.2241(4)
Zn3 Zn 0.08292(6) 0.43466(2) 0.82571(5)
O6 O 0.1922(6) 0.36910(18) 0.8515(4)
O7 O 0.0445(6) 0.36040(19) 0.8608(5)
O8 O 0.3013(6) 0.10977(19) 0.8957(5)
O9 O 0.1210(5) 0.10226(17) 0.8711(4)
N6 N 0.2260(4) 0.45729(18) 0.9700(4)
N7 N 0.2553(4) 0.52464(19) 0.7525(4)
N8 N 0.0544(4) 0.51573(18) 0.7001(4)
N9 N 0.1411(4) 0.48189(17) 0.7758(4)
C9 C 0.1279(10) 0.3426(3) 0.8619(6)
C10 C 0.1564(7) 0.2870(2) 0.8758(5)
C11 C 0.2603(9) 0.2664(3) 0.8902(6)
H9 H 0.3195 0.2874 0.8962
C12 C 0.2788(8) 0.2158(3) 0.8958(6)
H10 H 0.3507 0.2029 0.9064
C13 C 0.1929(7) 0.1841(2) 0.8858(5)
C14 C 0.0921(8) 0.2046(3) 0.8755(7)
H11 H 0.0353 0.1833 0.8721
C15 C 0.0725(8) 0.2548(3) 0.8702(7)
H12 H 0.0030 0.2675 0.8627
C16 C 0.2101(8) 0.1274(3) 0.8858(5)
H16 H 0.1472 0.5101 0.9926
C21 C 0.2545(6) 0.4891(2) 0.8005(5)
H17 H 0.3297 0.4704 0.8489
C22 C 0.1258(5) 0.5400(2) 0.6888(4)
H18 H 0.0922 0.5650 0.6426
Zn7 Zn 0.39387(6) 0.54975(2) 0.75541(5)
Zn9 Zn 0.12934(6) 0.02994(2) 0.85937(5)
O10 O 0.9294(5) 0.40972(19) 0.6630(4)
N10 N 0.9241(4) 0.46824(17) 0.7955(4)
N11 N 0.8414(5) 0.50224(16) 0.7221(4)
N12 N 0.7479(5) 0.47580(18) 0.7759(4)
N13 N 0.7618(12) 0.3699(6) 0.6432(9)
H3 H 0.7754 0.3833 0.6910
N14 N 0.7734(11) 0.3563(4) 0.5337(7)
H4 H 0.7579 0.3763 0.4909
C23 C 0.8667(6) 0.4539(2) 0.8264(5)
H19 H 0.9039 0.4314 0.8771
C24 C 0.7390(6) 0.5057(2) 0.7144(5)
H20 H 0.6672 0.5268 0.6703
C25 C 0.8310(10) 0.3811(4) 0.6197(7)
C26 C 0.6660(19) 0.3346(8) 0.5823(14)
H21 H 0.5819 0.3448 0.5610
H22 H 0.6913 0.3026 0.6154
C27 C 0.6542(17) 0.3303(7) 0.4955(12)
H23 H 0.6546 0.2957 0.4801
H24 H 0.5750 0.3469 0.4383
Zn5 Zn 0.60652(6) 0.45530(2) 0.78194(5)
O12 O 0.8790(5) 0.60226(17) 0.6289(4)
N11_2 N 0.1586(5) 0.00224(16) 0.7779(4)
C24_2 C 0.2610(6) 0.0057(2) 0.7856(5)
H20_2 H 0.3328 0.0268 0.8297
N15 N 0.2660(4) 0.00687(18) 0.9959(4)
O10_2 O 0.0706(5) 0.90972(19) 0.8370(4)
N10_2 N 0.0759(4) 0.96824(17) 0.7045(4)
N12_2 N 0.2521(5) 0.97580(18) 0.7241(4)
N13_2 N 0.2382(12) 0.8699(6) 0.8568(9)
H3_2 H 0.2246 0.8833 0.8090
N14_2 N 0.2266(11) 0.8563(4) 0.9663(7)
C23_2 C 0.1333(6) 0.9539(2) 0.6736(5)
H19_2 H 0.0961 0.9314 0.6229
C25_2 C 0.1690(10) 0.8811(4) 0.8803(7)
C26_2 C 0.3340(19) 0.8346(8) 0.9177(14)
H21_2 H 0.4181 0.8448 0.9390
H22_2 H 0.3087 0.8026 0.8846
Zn5_2 Zn 0.39348(6) 0.95530(2) 0.71806(5)
Zn1_2 Zn 0.60652(6) 0.04470(2) 0.28194(5)
O1_2 O 0.7079(6) 0.11282(17) 0.3562(5)
O2_2 O 0.4500(5) 0.0695(2) 0.2869(4)
H1_2 H 0.3879 0.0944 0.2391
H2_2 H 0.3867 0.0440 0.2697
O3_2 O 0.5606(6) 0.11762(19) 0.1987(6)
O5_2 O 0.7857(5) 0.37356(16) 0.3836(4)
N3_2 N 0.4483(4) 0.01136(18) 0.1535(4)
N7_2 N 0.7447(4) 0.02464(19) 0.7475(4)
N8_2 N 0.9456(4) 0.01573(18) 0.7999(4)
C1_2 C 0.6394(9) 0.1377(3) 0.2770(8)
C2_2 C 0.6609(8) 0.1945(2) 0.2862(6)
C3_2 C 0.5672(8) 0.2235(3) 0.2051(6)
H5_2 H 0.4971 0.2084 0.1461
C4_2 C 0.5777(7) 0.2747(2) 0.2116(6)
H6_2 H 0.5126 0.2941 0.1574
C5_2 C 0.6836(6) 0.2978(2) 0.2976(5)
C6_2 C 0.7780(7) 0.2680(2) 0.3759(6)
H7_2 H 0.8515 0.2829 0.4339
C7_2 C 0.7666(7) 0.2168(3) 0.3708(6)
H8_2 H 0.8312 0.1974 0.4252
C8_2 C 0.6923(7) 0.3538(2) 0.3046(6)
C18_2 C 0.3870(6) 0.0275(2) 0.0672(4)
H14_2 H 0.4231 0.0515 0.0548
H16_2 H 0.8528 0.0101 0.5074
C22_2 C 0.8742(5) 0.0400(2) 0.8112(4)
H18_2 H 0.9078 0.0650 0.8574
Zn7_2 Zn 0.60613(6) 0.04975(2) 0.74459(5)
N17_2 N 0.7479(5) 0.02420(18) 0.2759(4)
Zn3_2 Zn 0.91708(6) 0.93466(2) 0.67429(5)
O6_2 O 0.8078(6) 0.86910(18) 0.6485(4)
O7_2 O 0.9555(6) 0.86040(19) 0.6392(5)
O8_2 O 0.6987(6) 0.60977(19) 0.6043(5)
N2_2 N 0.3611(4) 0.97771(17) 0.1418(4)
N4_2 N 0.5786(4) 0.96490(17) 0.3794(4)
N5_2 N 0.6645(4) 0.99903(17) 0.3915(3)
N6_2 N 0.7740(4) 0.95729(18) 0.5300(4)
N9_2 N 0.8589(4) 0.98189(17) 0.7242(4)
C9_2 C 0.8721(10) 0.8426(3) 0.6381(6)
C10_2 C 0.8436(7) 0.7870(2) 0.6242(5)
C11_2 C 0.7397(9) 0.7664(3) 0.6098(6)
H9_2 H 0.6805 0.7874 0.6038
C12_2 C 0.7212(8) 0.7158(3) 0.6042(6)
H10_2 H 0.6493 0.7029 0.5936
C13_2 C 0.8071(7) 0.6841(2) 0.6142(5)
C14_2 C 0.9079(8) 0.7046(3) 0.6245(7)
H11_2 H 0.9647 0.6833 0.6279
C15_2 C 0.9275(8) 0.7548(3) 0.6298(7)
H12_2 H 0.9970 0.7675 0.6373
C16_2 C 0.7899(8) 0.6274(3) 0.6142(5)
C17_2 C 0.2551(5) 0.9765(2) 0.0482(4)
H13_2 H 0.1807 0.9569 0.0208
C19_2 C 0.6476(6) 0.9413(2) 0.4630(5)
H15_2 H 0.6127 0.9163 0.4746
C20_2 C 0.7765(6) 0.9920(2) 0.4804(5)
C21_2 C 0.7455(6) 0.9891(2) 0.6995(5)
H17_2 H 0.6703 0.9704 0.6511
N16_2 N 0.2553(4) 0.97536(19) 0.2525(4)
Zn4 Zn 0.12934(6) 0.47006(2) 0.35937(5)
O10_3 O 0.0706(5) 0.59028(19) 0.3370(4)
N10_3 N 0.0759(4) 0.53176(17) 0.2045(4)
N11_3 N 0.1586(5) 0.49776(16) 0.2779(4)
N13_3 N 0.2382(12) 0.6301(6) 0.3568(9)
H3_3 H 0.2246 0.6167 0.3090
N14_3 N 0.2266(11) 0.6437(4) 0.4663(7)
H4_2 H 0.2421 0.6237 0.5091
C23_3 C 0.1333(6) 0.5461(2) 0.1736(5)
H19_3 H 0.0961 0.5686 0.1229
C24_3 C 0.2610(6) 0.4943(2) 0.2856(5)
H20_3 H 0.3328 0.4732 0.3297
C25_3 C 0.1690(10) 0.6189(4) 0.3803(7)
C26_3 C 0.3340(19) 0.6654(8) 0.4177(14)
H21_3 H 0.4181 0.6552 0.4390
H22_3 H 0.3087 0.6974 0.3846
C27_2 C 0.3458(17) 0.6697(7) 0.5045(12)
H23_2 H 0.3454 0.7043 0.5199
H24_2 H 0.4250 0.6531 0.5617
O12_2 O 0.1210(5) 0.39774(17) 0.3711(4)
N15_2 N 0.2660(4) 0.49313(18) 0.4959(4)
Zn3_3 Zn 0.91708(6) 0.56534(2) 0.17429(5)
O6_3 O 0.8078(6) 0.63090(18) 0.1485(4)
O7_3 O 0.9555(6) 0.63960(19) 0.1392(5)
O8_3 O 0.6987(6) 0.89023(19) 0.1043(5)
O9_2 O 0.8790(5) 0.89774(17) 0.1289(4)
N6_3 N 0.7740(4) 0.54271(18) 0.0300(4)
N8_3 N 0.9456(4) 0.48427(18) 0.2999(4)
N9_3 N 0.8589(4) 0.51811(17) 0.2242(4)
C9_3 C 0.8721(10) 0.6574(3) 0.1381(6)
C10_3 C 0.8436(7) 0.7130(2) 0.1242(5)
C11_3 C 0.7397(9) 0.7336(3) 0.1098(6)
H9_3 H 0.6805 0.7126 0.1038
C12_3 C 0.7212(8) 0.7842(3) 0.1042(6)
H10_3 H 0.6493 0.7971 0.0936
C13_3 C 0.8071(7) 0.8159(2) 0.1142(5)
C14_3 C 0.9079(8) 0.7954(3) 0.1245(7)
H11_3 H 0.9647 0.8167 0.1279
C15_3 C 0.9275(8) 0.7452(3) 0.1298(7)
H12_3 H 0.9970 0.7325 0.1373
C16_3 C 0.7899(8) 0.8726(3) 0.1142(5)
H16_3 H 0.8528 0.4899 0.0074
C21_3 C 0.7455(6) 0.5109(2) 0.1995(5)
H17_3 H 0.6703 0.5296 0.1511
C22_3 C 0.8742(5) 0.4600(2) 0.3112(4)
H18_3 H 0.9078 0.4350 0.3574
Zn9_2 Zn 0.87066(6) 0.97006(2) 0.14063(5)
O1_3 O 0.7079(6) 0.38718(17) 0.8562(5)
O2_3 O 0.4500(5) 0.4305(2) 0.7869(4)
H1_3 H 0.3879 0.4056 0.7391
H2_3 H 0.3867 0.4560 0.7697
O3_3 O 0.5606(6) 0.38238(19) 0.6987(6)
O4_2 O 0.6003(5) 0.12247(15) 0.7276(4)
O5_3 O 0.7857(5) 0.12644(16) 0.8836(4)
N2_3 N 0.3611(4) 0.52229(17) 0.6418(4)
N3_3 N 0.4483(4) 0.48864(18) 0.6535(4)
N4_3 N 0.5786(4) 0.53510(17) 0.8794(4)
N5_3 N 0.6645(4) 0.50097(17) 0.8915(3)
C1_3 C 0.6394(9) 0.3623(3) 0.7770(8)
C2_3 C 0.6609(8) 0.3055(2) 0.7862(6)
C3_3 C 0.5672(8) 0.2765(3) 0.7051(6)
H5_3 H 0.4971 0.2916 0.6461
C4_3 C 0.5777(7) 0.2253(2) 0.7116(6)
H6_3 H 0.5126 0.2059 0.6574
C5_3 C 0.6836(6) 0.2022(2) 0.7976(5)
C6_3 C 0.7780(7) 0.2320(2) 0.8759(6)
H7_3 H 0.8515 0.2171 0.9339
C7_3 C 0.7666(7) 0.2832(3) 0.8708(6)
H8_3 H 0.8312 0.3026 0.9252
C8_3 C 0.6923(7) 0.1462(2) 0.8046(6)
C17_3 C 0.2551(5) 0.5235(2) 0.5482(4)
H13_3 H 0.1807 0.5431 0.5208
C18_3 C 0.3870(6) 0.4725(2) 0.5672(4)
H14_3 H 0.4231 0.4485 0.5548
C19_3 C 0.6476(6) 0.5587(2) 0.9630(5)
H15_3 H 0.6127 0.5837 0.9746
C20_3 C 0.7765(6) 0.5080(2) 0.9804(5)
O11_2 O 0.3997(5) 0.62247(15) 0.7724(4)
Zn3_4 Zn 0.08292(6) 0.06534(2) 0.32571(5)
O6_4 O 0.1922(6) 0.13090(18) 0.3515(4)
O7_4 O 0.0445(6) 0.13960(19) 0.3608(5)
O8_4 O 0.3013(6) 0.39023(19) 0.3957(5)
N2_4 N 0.6389(4) 0.02229(17) 0.8582(4)
N4_4 N 0.4214(4) 0.03510(17) 0.6206(4)
N5_4 N 0.3355(4) 0.00097(17) 0.6085(3)
N6_4 N 0.2260(4) 0.04271(18) 0.4700(4)
N9_4 N 0.1411(4) 0.01811(17) 0.2758(4)
C9_4 C 0.1279(10) 0.1574(3) 0.3619(6)
C10_4 C 0.1564(7) 0.2130(2) 0.3758(5)
C11_4 C 0.2603(9) 0.2336(3) 0.3902(6)
H9_4 H 0.3195 0.2126 0.3962
C12_4 C 0.2788(8) 0.2842(3) 0.3958(6)
H10_4 H 0.3507 0.2971 0.4064
C13_4 C 0.1929(7) 0.3159(2) 0.3858(5)
C14_4 C 0.0921(8) 0.2954(3) 0.3755(7)
H11_4 H 0.0353 0.3167 0.3721
C15_4 C 0.0725(8) 0.2452(3) 0.3702(7)
H12_4 H 0.0030 0.2325 0.3627
C16_4 C 0.2101(8) 0.3726(3) 0.3858(5)
C17_4 C 0.7449(5) 0.0235(2) 0.9518(4)
H13_4 H 0.8193 0.0431 0.9792
C19_4 C 0.3524(6) 0.0587(2) 0.5370(5)
H15_4 H 0.3873 0.0837 0.5254
C20_4 C 0.2235(6) 0.0080(2) 0.5196(5)
C21_4 C 0.2545(6) 0.0109(2) 0.3005(5)
H17_4 H 0.3297 0.0296 0.3489
N1_2 N 0.7340(4) 0.99313(18) 0.0041(4)
O1_4 O 0.2921(6) 0.88718(17) 0.6438(5)
O2_4 O 0.5500(5) 0.9305(2) 0.7131(4)
H1_4 H 0.6121 0.9056 0.7609
H2_4 H 0.6133 0.9560 0.7303
O3_4 O 0.4394(6) 0.88238(19) 0.8013(6)
O5_4 O 0.2143(5) 0.62644(16) 0.6164(4)
N3_4 N 0.5517(4) 0.98864(18) 0.8465(4)
N8_4 N 0.0544(4) 0.98427(18) 0.2001(4)
C1_4 C 0.3606(9) 0.8623(3) 0.7230(8)
C2_4 C 0.3391(8) 0.8055(2) 0.7138(6)
C3_4 C 0.4328(8) 0.7765(3) 0.7949(6)
H5_4 H 0.5029 0.7916 0.8539
C4_4 C 0.4223(7) 0.7253(2) 0.7884(6)
H6_4 H 0.4874 0.7059 0.8426
C5_4 C 0.3164(6) 0.7022(2) 0.7024(5)
C6_4 C 0.2220(7) 0.7320(2) 0.6241(6)
H7_4 H 0.1485 0.7171 0.5661
C7_4 C 0.2334(7) 0.7832(3) 0.6292(6)
H8_4 H 0.1688 0.8026 0.5748
C8_4 C 0.3077(7) 0.6462(2) 0.6954(6)
C18_4 C 0.6130(6) 0.9725(2) 0.9328(4)
H14_4 H 0.5769 0.9485 0.9452
H16_4 H 0.1472 0.9899 0.4926
C22_4 C 0.1258(5) 0.9600(2) 0.1888(4)
H18_4 H 0.0922 0.9350 0.1426
O10_4 O 0.9294(5) 0.09028(19) 0.1630(4)
N10_4 N 0.9241(4) 0.03176(17) 0.2955(4)
N13_4 N 0.7618(12) 0.1301(6) 0.1432(9)
H3_4 H 0.7754 0.1167 0.1910
N14_4 N 0.7734(11) 0.1437(4) 0.0337(7)
C23_4 C 0.8667(6) 0.0461(2) 0.3264(5)
H19_4 H 0.9039 0.0686 0.3771
C25_4 C 0.8310(10) 0.1189(4) 0.1197(7)
C26_4 C 0.6660(19) 0.1654(8) 0.0823(14)
H21_4 H 0.5819 0.1552 0.0610
H22_4 H 0.6913 0.1974 0.1154
N11_4 N 0.8414(5) 0.99776(16) 0.2221(4)
C24_4 C 0.7390(6) 0.9943(2) 0.2144(5)
H20_4 H 0.6672 0.9732 0.1703
H4_3 H 0.2421 0.8763 0.0091
C27_3 C 0.3458(17) 0.8303(7) 0.0045(12)
H23_3 H 0.3454 0.7957 0.0199
H24_3 H 0.4250 0.8469 0.0617
H4_4 H 0.7579 0.1237 0.9909
C27_4 C 0.6542(17) 0.1697(7) 0.9955(12)
H23_4 H 0.6546 0.2043 0.9801
H24_4 H 0.5750 0.1531 0.9383
loop_
_geom_bond_atom_site_label_1
_geom_bond_atom_site_label_2
_geom_bond_site_symmetry_1
_geom_bond_site_symmetry_2
Zn1 O1 1_555 1_555
Zn2 N2 1_555 1_555
O1 C1 1_555 1_555
O2 Zn1 1_555 1_555
H1 O2 1_555 1_555
H2 O2 1_555 1_555
O3 Zn1 1_555 1_555
O4 C8 1_555 1_555
O5 C8 1_555 1_555
N1 C17 1_555 1_555
N2 N3 1_555 1_555
N3 Zn1 1_555 1_555
N4 Zn2 1_555 1_555
N5 Zn1 1_555 1_555
C1 O3 1_555 1_555
C2 C1 1_555 1_555
C3 C2 1_555 1_555
H5 C3 1_555 1_555
C4 C3 1_555 1_555
H6 C4 1_555 1_555
C5 C4 1_555 1_555
C6 C5 1_555 1_555
H7 C6 1_555 1_555
C7 C2 1_555 1_555
H8 C7 1_555 1_555
C8 C5 1_555 1_555
C17 N2 1_555 1_555
H13 C17 1_555 1_555
C18 N1 1_555 1_555
H14 C18 1_555 1_555
C19 N4 1_555 1_555
H15 C19 1_555 1_555
C20 N5 1_555 1_555
Zn6 O4 1_555 1_555
Zn8 N1 1_555 1_555
O11 Zn2 1_555 1_555
N16 Zn2 1_555 1_555
N17 Zn1 1_555 1_555
N3 C18 1_555 1_555
N4 N5 1_555 1_555
C6 C7 1_555 1_555
Zn3 O6 1_555 1_555
O6 C9 1_555 1_555
O7 Zn3 1_555 1_555
O8 C16 1_555 1_555
O9 C16 1_555 1_555
N6 Zn3 1_555 1_555
N7 C21 1_555 1_555
N8 N9 1_555 1_555
N9 Zn3 1_555 1_555
C9 O7 1_555 1_555
C10 C9 1_555 1_555
C11 C10 1_555 1_555
H9 C11 1_555 1_555
C12 C11 1_555 1_555
H10 C12 1_555 1_555
C13 C12 1_555 1_555
C14 C13 1_555 1_555
H11 C14 1_555 1_555
C15 C10 1_555 1_555
H12 C15 1_555 1_555
C16 C13 1_555 1_555
C21 N9 1_555 1_555
H17 C21 1_555 1_555
C22 N7 1_555 1_555
H18 C22 1_555 1_555
Zn7 N7 1_555 1_555
Zn9 O9 1_555 1_555
N8 C22 1_555 1_555
C14 C15 1_555 1_555
N11 Zn8 1_555 1_555
N12 C23 1_555 1_555
N13 H3 1_555 1_555
N14 H4 1_555 1_555
C23 N10 1_555 1_555
H19 C23 1_555 1_555
C24 N11 1_555 1_555
H20 C24 1_555 1_555
C25 O10 1_555 1_555
C26 N13 1_555 1_555
H21 C26 1_555 1_555
H22 C26 1_555 1_555
C27 N14 1_555 1_555
H23 C27 1_555 1_555
H24 C27 1_555 1_555
Zn5 N12 1_555 1_555
O12 Zn8 1_555 1_555
N10 N11 1_555 1_555
N12 C24 1_555 1_555
N13 C25 1_555 1_555
N14 C25 1_555 1_555
C26 C27 1_555 1_555
N11_2 Zn9 1_555 1_555
C24_2 N11_2 1_555 1_555
H20_2 C24_2 1_555 1_555
N15 Zn9 1_555 1_555
N12_2 C23_2 1_555 1_555
N13_2 H3_2 1_555 1_555
C23_2 N10_2 1_555 1_555
H19_2 C23_2 1_555 1_555
C25_2 O10_2 1_555 1_555
C26_2 N13_2 1_555 1_555
H21_2 C26_2 1_555 1_555
H22_2 C26_2 1_555 1_555
Zn5_2 N12_2 1_555 1_555
N13_2 C25_2 1_555 1_555
N14_2 C25_2 1_555 1_555
Zn1_2 O1_2 1_555 1_555
O1_2 C1_2 1_555 1_555
O2_2 Zn1_2 1_555 1_555
H1_2 O2_2 1_555 1_555
H2_2 O2_2 1_555 1_555
O3_2 Zn1_2 1_555 1_555
O11 C8_2 1_555 1_555
O5_2 C8_2 1_555 1_555
N3_2 Zn1_2 1_555 1_555
C1_2 O3_2 1_555 1_555
C2_2 C1_2 1_555 1_555
C3_2 C2_2 1_555 1_555
H5_2 C3_2 1_555 1_555
C4_2 C3_2 1_555 1_555
H6_2 C4_2 1_555 1_555
C5_2 C4_2 1_555 1_555
C6_2 C5_2 1_555 1_555
H7_2 C6_2 1_555 1_555
C7_2 C2_2 1_555 1_555
H8_2 C7_2 1_555 1_555
C8_2 C5_2 1_555 1_555
H14_2 C18_2 1_555 1_555
C22_2 N7_2 1_555 1_555
H18_2 C22_2 1_555 1_555
Zn7_2 N7_2 1_555 1_555
N17_2 Zn1_2 1_555 1_555
N3_2 C18_2 1_555 1_555
N8_2 C22_2 1_555 1_555
C6_2 C7_2 1_555 1_555
Zn6 N2_2 1_555 1_555
Zn3_2 O6_2 1_555 1_555
O6_2 C9_2 1_555 1_555
O7_2 Zn3_2 1_555 1_555
O8_2 C16_2 1_555 1_555
O12 C16_2 1_555 1_555
N4_2 Zn6 1_555 1_555
N6_2 Zn3_2 1_555 1_555
N9_2 Zn3_2 1_555 1_555
C9_2 O7_2 1_555 1_555
C10_2 C9_2 1_555 1_555
C11_2 C10_2 1_555 1_555
H9_2 C11_2 1_555 1_555
C12_2 C11_2 1_555 1_555
H10_2 C12_2 1_555 1_555
C13_2 C12_2 1_555 1_555
C14_2 C13_2 1_555 1_555
H11_2 C14_2 1_555 1_555
C15_2 C10_2 1_555 1_555
H12_2 C15_2 1_555 1_555
C16_2 C13_2 1_555 1_555
C17_2 N2_2 1_555 1_555
H13_2 C17_2 1_555 1_555
C19_2 N4_2 1_555 1_555
H15_2 C19_2 1_555 1_555
C20_2 N5_2 1_555 1_555
C21_2 N9_2 1_555 1_555
H17_2 C21_2 1_555 1_555
N16_2 Zn6 1_555 1_555
N4_2 N5_2 1_555 1_555
N6_2 C19_2 1_555 1_555
N6_2 C20_2 1_555 1_555
C14_2 C15_2 1_555 1_555
N11_3 Zn4 1_555 1_555
N17 C23_3 1_555 1_555
N13_3 H3_3 1_555 1_555
N14_3 H4_2 1_555 1_555
C23_3 N10_3 1_555 1_555
H19_3 C23_3 1_555 1_555
C24_3 N11_3 1_555 1_555
H20_3 C24_3 1_555 1_555
C25_3 O10_3 1_555 1_555
C26_3 N13_3 1_555 1_555
H21_3 C26_3 1_555 1_555
H22_3 C26_3 1_555 1_555
C27_2 N14_3 1_555 1_555
H23_2 C27_2 1_555 1_555
H24_2 C27_2 1_555 1_555
O12_2 Zn4 1_555 1_555
N15_2 Zn4 1_555 1_555
N10_3 N11_3 1_555 1_555
N17 C24_3 1_555 1_555
N13_3 C25_3 1_555 1_555
N14_3 C25_3 1_555 1_555
C26_3 C27_2 1_555 1_555
Zn3_3 O6_3 1_555 1_555
O6_3 C9_3 1_555 1_555
O7_3 Zn3_3 1_555 1_555
O8_3 C16_3 1_555 1_555
O9_2 C16_3 1_555 1_555
N6_3 Zn3_3 1_555 1_555
N16 C21_3 1_555 1_555
N8_3 N9_3 1_555 1_555
N9_3 Zn3_3 1_555 1_555
C9_3 O7_3 1_555 1_555
C10_3 C9_3 1_555 1_555
C11_3 C10_3 1_555 1_555
H9_3 C11_3 1_555 1_555
C12_3 C11_3 1_555 1_555
H10_3 C12_3 1_555 1_555
C13_3 C12_3 1_555 1_555
C14_3 C13_3 1_555 1_555
H11_3 C14_3 1_555 1_555
C15_3 C10_3 1_555 1_555
H12_3 C15_3 1_555 1_555
C16_3 C13_3 1_555 1_555
C21_3 N9_3 1_555 1_555
H17_3 C21_3 1_555 1_555
C22_3 N16 1_555 1_555
H18_3 C22_3 1_555 1_555
Zn9_2 O9_2 1_555 1_555
N8_3 C22_3 1_555 1_555
C14_3 C15_3 1_555 1_555
Zn5 O1_3 1_555 1_555
Zn7 N2_3 1_555 1_555
O1_3 C1_3 1_555 1_555
O2_3 Zn5 1_555 1_555
H1_3 O2_3 1_555 1_555
H2_3 O2_3 1_555 1_555
O3_3 Zn5 1_555 1_555
O4_2 C8_3 1_555 1_555
O5_3 C8_3 1_555 1_555
N15_2 C17_3 1_555 1_555
N2_3 N3_3 1_555 1_555
N3_3 Zn5 1_555 1_555
N4_3 Zn7 1_555 1_555
N5_3 Zn5 1_555 1_555
C1_3 O3_3 1_555 1_555
C2_3 C1_3 1_555 1_555
C3_3 C2_3 1_555 1_555
H5_3 C3_3 1_555 1_555
C4_3 C3_3 1_555 1_555
H6_3 C4_3 1_555 1_555
C5_3 C4_3 1_555 1_555
C6_3 C5_3 1_555 1_555
H7_3 C6_3 1_555 1_555
C7_3 C2_3 1_555 1_555
H8_3 C7_3 1_555 1_555
C8_3 C5_3 1_555 1_555
C17_3 N2_3 1_555 1_555
H13_3 C17_3 1_555 1_555
C18_3 N15_2 1_555 1_555
H14_3 C18_3 1_555 1_555
C19_3 N4_3 1_555 1_555
H15_3 C19_3 1_555 1_555
C20_3 N5_3 1_555 1_555
Zn7_2 O4_2 1_555 1_555
O11_2 Zn7 1_555 1_555
N3_3 C18_3 1_555 1_555
N4_3 N5_3 1_555 1_555
C6_3 C7_3 1_555 1_555
Zn7_2 N2_4 1_555 1_555
Zn3_4 O6_4 1_555 1_555
O6_4 C9_4 1_555 1_555
O7_4 Zn3_4 1_555 1_555
O8_4 C16_4 1_555 1_555
O12_2 C16_4 1_555 1_555
N4_4 Zn7_2 1_555 1_555
N6_4 Zn3_4 1_555 1_555
N9_4 Zn3_4 1_555 1_555
C9_4 O7_4 1_555 1_555
C10_4 C9_4 1_555 1_555
C11_4 C10_4 1_555 1_555
H9_4 C11_4 1_555 1_555
C12_4 C11_4 1_555 1_555
H10_4 C12_4 1_555 1_555
C13_4 C12_4 1_555 1_555
C14_4 C13_4 1_555 1_555
H11_4 C14_4 1_555 1_555
C15_4 C10_4 1_555 1_555
H12_4 C15_4 1_555 1_555
C16_4 C13_4 1_555 1_555
C17_4 N2_4 1_555 1_555
H13_4 C17_4 1_555 1_555
C19_4 N4_4 1_555 1_555
H15_4 C19_4 1_555 1_555
C20_4 N5_4 1_555 1_555
C21_4 N9_4 1_555 1_555
H17_4 C21_4 1_555 1_555
N4_4 N5_4 1_555 1_555
N6_4 C19_4 1_555 1_555
N6_4 C20_4 1_555 1_555
C14_4 C15_4 1_555 1_555
Zn9_2 N1_2 1_555 1_555
Zn5_2 O1_4 1_555 1_555
O1_4 C1_4 1_555 1_555
O2_4 Zn5_2 1_555 1_555
H1_4 O2_4 1_555 1_555
H2_4 O2_4 1_555 1_555
O3_4 Zn5_2 1_555 1_555
O11_2 C8_4 1_555 1_555
O5_4 C8_4 1_555 1_555
N3_4 Zn5_2 1_555 1_555
C1_4 O3_4 1_555 1_555
C2_4 C1_4 1_555 1_555
C3_4 C2_4 1_555 1_555
H5_4 C3_4 1_555 1_555
C4_4 C3_4 1_555 1_555
H6_4 C4_4 1_555 1_555
C5_4 C4_4 1_555 1_555
C6_4 C5_4 1_555 1_555
H7_4 C6_4 1_555 1_555
C7_4 C2_4 1_555 1_555
H8_4 C7_4 1_555 1_555
C8_4 C5_4 1_555 1_555
H14_4 C18_4 1_555 1_555
C22_4 N16_2 1_555 1_555
H18_4 C22_4 1_555 1_555
N3_4 C18_4 1_555 1_555
N8_4 C22_4 1_555 1_555
C6_4 C7_4 1_555 1_555
N17_2 C23_4 1_555 1_555
N13_4 H3_4 1_555 1_555
C23_4 N10_4 1_555 1_555
H19_4 C23_4 1_555 1_555
C25_4 O10_4 1_555 1_555
C26_4 N13_4 1_555 1_555
H21_4 C26_4 1_555 1_555
H22_4 C26_4 1_555 1_555
N13_4 C25_4 1_555 1_555
N14_4 C25_4 1_555 1_555
N11_4 Zn9_2 1_555 1_555
C24_4 N11_4 1_555 1_555
H20_4 C24_4 1_555 1_555
H23_3 C27_3 1_555 1_555
H24_3 C27_3 1_555 1_555
H23_4 C27_4 1_555 1_555
H24_4 C27_4 1_555 1_555

#END
