
###############################################################################
#
# This file contains modified crystal structure data generated from the
# MOF subset of the Cambridge Structural Database (CSD) v543 
# hosted by the Cambridge Crystallographic Data Centre (CCDC).
#
# This work is licensed under the Creative Commons
# Attribution-NonCommercial-ShareAlike 4.0 International License.
# To view a copy of this license, visit
# http://creativecommons.org/licenses/by-nc-sa/4.0/
# or send a letter to
# Creative Commons, PO Box 1866, Mountain View, CA 94042, USA.
#
# CIF created using the CSD Python API on 29 September 2022
# The structure has been converted into the P1 space group
# The structure has a 3D framework
# The original CSD entry XALMAC is in the triclinic crystal system
# The framework has been calculated to contain at least 10.0% void space
# The void calculation uses a probe of radius 1.32A, grid spacing 0.4
# The framework is charged, counterions have been retained in the structure
#
###############################################################################

data_XALMAC
_chemical_formula_moiety         '(C156 H126 N18 O36 Zn6)n'
_symmetry_cell_setting           triclinic
_symmetry_space_group_name_H-M   'P 1'
_symmetry_Int_Tables_number      1
_space_group_name_Hall           'P 1'
loop_
_symmetry_equiv_pos_site_id
_symmetry_equiv_pos_as_xyz
1 x,y,z
_cell_length_a                   14.0258(7)
_cell_length_b                   23.6050(12)
_cell_length_c                   25.9645(13)
_cell_angle_alpha                97.984(2)
_cell_angle_beta                 95.386(3)
_cell_angle_gamma                97.759(2)
_cell_volume                     8379.3
loop_
_atom_site_label
_atom_site_type_symbol
_atom_site_fract_x
_atom_site_fract_y
_atom_site_fract_z
O7 O 0.2691(2) 0.24833(16) 0.28447(14)
C25 C 0.1840(3) 0.2627(2) 0.35879(19)
N3 N 0.0303(3) 0.39213(18) 0.48919(15)
O8 O 0.3002(3) 0.19783(18) 0.34884(15)
C26 C 0.1914(3) 0.2674(2) 0.4131(2)
H15 H 0.237715 0.249227 0.431205
C27 C 0.1310(3) 0.2987(2) 0.4406(2)
H16 H 0.139797 0.304748 0.477833
C28 C 0.0566(3) 0.3218(2) 0.41425(19)
O11 O 0.0614(3) 0.59603(17) 0.71915(13)
C29 C 0.0461(3) 0.3141(2) 0.36009(18)
C41 C 0.0497(3) 0.4882(2) 0.5757(2)
H22 H 0.105575 0.485488 0.558022
C42 C 0.0554(3) 0.5250(2) 0.6223(2)
H23 H 0.115655 0.547604 0.636575
C47 C 0.2569(3) 0.2339(2) 0.3296(2)
C48 C 0.1110(3) 0.2860(2) 0.3328(2)
H26 H 0.105492 0.282638 0.295716
Zn7 Zn 0.37128(4) 0.20652(3) 0.25954(3)
O23 O 0.0541(3) 0.56382(18) 0.83424(15)
O17 O 0.3873(2) 0.23897(14) 0.19363(13)
O18 O 0.5365(2) 0.22461(15) 0.17443(13)
C57 C 0.4305(4) 0.3906(3) 0.0096(2)
C64 C 0.4402(4) 0.3570(2) 0.0517(2)
C65 C 0.5270(4) 0.3348(2) 0.0639(2)
H34 H 0.581126 0.343784 0.045538
C66 C 0.5334(3) 0.3007(2) 0.1016(2)
H35 H 0.591960 0.285819 0.109141
C67 C 0.4545(3) 0.2870(2) 0.12987(19)
C68 C 0.3701(3) 0.3123(2) 0.1207(2)
H36 H 0.318023 0.306174 0.141169
C69 C 0.3643(4) 0.3461(2) 0.0815(2)
H37 H 0.306888 0.362302 0.074617
C70 C 0.4594(3) 0.2477(2) 0.16837(19)
Zn5 Zn 0.54868(4) 0.14946(3) 0.20012(3)
Zn3 Zn 0.93229(5) 0.58480(3) 0.80214(3)
O5 O 0.3243(2) 0.12512(15) 0.23263(13)
O6 O 0.4214(2) 0.10706(16) 0.16993(14)
C18 C 0.0940(4) 0.0147(2) 0.1446(2)
H10 H 0.035182 0.005185 0.159065
C19 C 0.1718(4) 0.0488(2) 0.1747(2)
H11 H 0.164832 0.065088 0.209443
C20 C 0.2593(3) 0.0602(2) 0.1558(2)
C21 C 0.2716(4) 0.0386(2) 0.1057(2)
H12 H 0.332516 0.046141 0.092820
C22 C 0.1903(3) 0.0042(2) 0.0731(2)
C23 C 0.3410(4) 0.1009(2) 0.1890(2)
N4 N 0.8739(2) 0.39276(17) 0.47759(14)
H14 H 0.816508 0.402349 0.482331
O9 O 0.5839(2) 0.17458(15) 0.27530(13)
O10 O 0.4933(2) 0.24215(15) 0.30113(13)
H17 H 0.994563 0.328058 0.341642
O12 O 0.9104(2) 0.55941(15) 0.72640(13)
C30 C 0.9920(3) 0.3536(2) 0.44409(19)
C31 C 0.8956(3) 0.3529(2) 0.43831(19)
C32 C 0.9572(4) 0.4139(2) 0.5070(2)
C33 C 0.8142(3) 0.3199(2) 0.40102(18)
C34 C 0.8161(3) 0.2631(2) 0.37969(19)
H18 H 0.871313 0.245414 0.388018
C35 C 0.7394(3) 0.2323(2) 0.34679(19)
H19 H 0.742649 0.193728 0.331431
C36 C 0.6572(3) 0.2565(2) 0.33559(18)
C37 C 0.6559(3) 0.3144(2) 0.3563(2)
H20 H 0.600550 0.331997 0.347896
C38 C 0.7327(3) 0.3456(2) 0.3880(2)
H21 H 0.731249 0.384911 0.401553
C39 C 0.5717(3) 0.2222(2) 0.30139(19)
C40 C 0.9618(3) 0.4550(2) 0.55486(19)
C43 C 0.9740(3) 0.5297(2) 0.64879(18)
C44 C 0.8860(3) 0.4973(2) 0.62656(19)
H24 H 0.829643 0.500519 0.643704
C45 C 0.8798(3) 0.4606(2) 0.57992(19)
H25 H 0.819110 0.438962 0.564858
C46 C 0.9838(4) 0.5652(2) 0.7023(2)
O13 O 0.7128(3) 0.54333(17) 0.77511(15)
C49 C 0.7418(4) 0.5408(2) 0.8206(2)
N5 N 0.3486(3) 0.4025(2) 0.98823(18)
O14 O 0.8292(3) 0.55585(17) 0.84195(14)
N6 N 0.5047(3) 0.41392(19) 0.98773(16)
H27 H 0.566004 0.411294 0.996298
C50 C 0.6720(4) 0.5164(3) 0.8548(2)
C51 C 0.7024(4) 0.4963(3) 0.8999(2)
H28 H 0.769881 0.498015 0.909629
C52 C 0.6379(4) 0.4737(3) 0.9314(2)
H29 H 0.661471 0.461103 0.962773
C53 C 0.5373(4) 0.4691(3) 0.9175(2)
C54 C 0.5723(4) 0.5127(3) 0.8404(2)
H30 H 0.549332 0.525863 0.809228
C55 C 0.4703(4) 0.4425(3) 0.9498(2)
C56 C 0.3716(4) 0.4349(3) 0.9499(2)
C58 C 0.2939(4) 0.4562(3) 0.9201(2)
C59 C 0.2918(4) 0.5120(3) 0.9155(2)
H31 H 0.345388 0.539714 0.931899
C60 C 0.2148(4) 0.5319(3) 0.8879(2)
H32 H 0.215987 0.571908 0.886019
C61 C 0.1387(4) 0.4919(3) 0.8639(3)
C62 C 0.2168(4) 0.4169(3) 0.8955(3)
H33 H 0.216166 0.376947 0.897550
C63 C 0.0541(4) 0.5114(3) 0.8340(3)
C71 C 0.1395(5) 0.4344(3) 0.8676(3)
H38 H 0.086598 0.406427 0.850924
C72 C 0.5054(4) 0.4890(3) 0.8730(2)
H39 H 0.437771 0.487021 0.863466
O19 O 0.6778(4) 0.1404(2) 0.16888(19)
O20 O 0.6049(3) 0.0659(2) 0.1883(2)
O21 O 0.9707(2) 0.66714(15) 0.82874(13)
C1 C 0.6705(5) 0.0902(4) 0.1669(3)
C2 C 0.8222(4) 0.0820(3) 0.1266(3)
H2 H 0.839700 0.122535 0.136874
C3 C 0.8866(4) 0.0505(3) 0.0986(2)
H3 H 0.946054 0.069688 0.090476
C24 C 0.7384(4) 0.0562(3) 0.1387(3)
O16 O 0.9883(3) 0.4723(2) 0.8084(2)
O3 O 0.8225(3) 0.68416(16) 0.80313(14)
C9 C 0.9543(4) 0.8921(2) 0.9949(2)
C10 C 0.9438(3) 0.8456(2) 0.95060(19)
C13 C 0.9198(3) 0.7523(2) 0.86990(18)
C14 C 0.8481(3) 0.7857(2) 0.87644(19)
H8 H 0.789698 0.776724 0.853277
C15 C 0.8595(3) 0.8328(2) 0.91678(19)
H9 H 0.809402 0.855930 0.920797
C16 C 0.9016(4) 0.6980(2) 0.83021(19)
N1 N 0.0382(2) 0.91745(16) 0.01831(15)
H1 H 0.095344 0.909885 0.010548
C8 C 0.0194(4) 0.9590(2) 0.0582(2)
C17 C 0.1024(3) 0.9935(2) 0.0913(2)
H13 H 0.197665 0.988644 0.038211
C11 C 0.0176(3) 0.8131(2) 0.9433(2)
H6 H 0.077588 0.823741 0.964921
C12 C 0.0046(3) 0.7644(2) 0.9039(2)
H7 H 0.053312 0.740229 0.900666
N2 N 0.8820(3) 0.91326(18) 0.01469(16)
C4 C 0.8600(4) 0.9920(3) 0.0838(2)
C5 C 0.7718(4) 0.9645(3) 0.0961(3)
H4 H 0.752288 0.924213 0.084566
C6 C 0.7119(5) 0.9965(3) 0.1255(3)
H5 H 0.654512 0.977624 0.136190
C7 C 0.9236(4) 0.9575(2) 0.0545(2)
O3_2 O 0.1775(3) 0.31584(16) 0.19687(14)
O4 O 0.0293(2) 0.33286(15) 0.17126(13)
C9_2 C 0.0457(4) 0.1079(2) 0.0051(2)
C10_2 C 0.0562(3) 0.1544(2) 0.04940(19)
C13_2 C 0.0802(3) 0.2477(2) 0.13010(18)
C14_2 C 0.1519(3) 0.2143(2) 0.12356(19)
H8_2 H 0.210302 0.223276 0.146723
C15_2 C 0.1405(3) 0.1672(2) 0.08322(19)
H9_2 H 0.190598 0.144070 0.079203
C16_2 C 0.0984(4) 0.3020(2) 0.16979(19)
Zn8 Zn 0.06771(5) 0.41520(3) 0.19786(3)
O1 O 0.3222(4) 0.8596(2) 0.83112(19)
C1_2 C 0.3295(5) 0.9098(4) 0.8331(3)
O2 O 0.3951(3) 0.9341(2) 0.8117(2)
C2_2 C 0.1778(4) 0.9180(3) 0.8734(3)
H2_2 H 0.160300 0.877465 0.863126
C3_2 C 0.1134(4) 0.9495(3) 0.9014(2)
H3_2 H 0.053946 0.930312 0.909524
C24_2 C 0.2616(4) 0.9438(3) 0.8613(3)
O16_2 O 0.0117(3) 0.5277(2) 0.1916(2)
Zn4 Zn 0.45132(4) 0.85054(3) 0.79988(3)
Zn2 Zn 0.62872(4) 0.79348(3) 0.74046(3)
O5_2 O 0.6757(2) 0.87488(15) 0.76737(13)
O6_2 O 0.5786(2) 0.89294(16) 0.83007(14)
C18_2 C 0.9060(4) 0.9853(2) 0.8554(2)
H10_2 H 0.964818 0.994815 0.840935
C19_2 C 0.8282(4) 0.9512(2) 0.8253(2)
H11_2 H 0.835168 0.934912 0.790557
C20_2 C 0.7407(3) 0.9398(2) 0.8442(2)
C21_2 C 0.7284(4) 0.9614(2) 0.8943(2)
H12_2 H 0.667484 0.953859 0.907180
C22_2 C 0.8097(3) 0.9958(2) 0.9269(2)
C23_2 C 0.6590(4) 0.8991(2) 0.8110(2)
N4_2 N 0.1261(2) 0.60724(17) 0.52241(14)
H14_2 H 0.183492 0.597651 0.517669
O9_2 O 0.4161(2) 0.82542(15) 0.72470(13)
O10_2 O 0.5067(2) 0.75785(15) 0.69887(13)
H17_2 H 0.005437 0.671942 0.658358
O12_2 O 0.0896(2) 0.44059(15) 0.27360(13)
C30_2 C 0.0080(3) 0.6464(2) 0.55591(19)
C31_2 C 0.1044(3) 0.6471(2) 0.56169(19)
C32_2 C 0.0428(4) 0.5861(2) 0.4930(2)
C33_2 C 0.1858(3) 0.6801(2) 0.59898(18)
C34_2 C 0.1839(3) 0.7369(2) 0.62031(19)
H18_2 H 0.128687 0.754586 0.611982
C35_2 C 0.2606(3) 0.7677(2) 0.65321(19)
H19_2 H 0.257351 0.806272 0.668569
C36_2 C 0.3428(3) 0.7435(2) 0.66441(18)
C37_2 C 0.3441(3) 0.6856(2) 0.6437(2)
H20_2 H 0.399450 0.668003 0.652104
C38_2 C 0.2673(3) 0.6544(2) 0.6120(2)
H21_2 H 0.268751 0.615089 0.598447
C39_2 C 0.4283(3) 0.7778(2) 0.69861(19)
C40_2 C 0.0382(3) 0.5450(2) 0.44514(19)
C43_2 C 0.0260(3) 0.4703(2) 0.35121(18)
C44_2 C 0.1140(3) 0.5027(2) 0.37344(19)
H24_2 H 0.170357 0.499481 0.356296
C45_2 C 0.1202(3) 0.5394(2) 0.42008(19)
H25_2 H 0.180890 0.561038 0.435142
C46_2 C 0.0162(4) 0.4348(2) 0.2977(2)
O13_2 O 0.2872(3) 0.45667(17) 0.22489(15)
C49_2 C 0.2582(4) 0.4592(2) 0.1794(2)
N5_2 N 0.6514(3) 0.5975(2) 0.01177(18)
O14_2 O 0.1708(3) 0.44415(17) 0.15805(14)
N6_2 N 0.4953(3) 0.58608(19) 0.01227(16)
H27_2 H 0.433996 0.588706 0.003702
C50_2 C 0.3280(4) 0.4836(3) 0.1452(2)
O15 O 0.9459(3) 0.43618(18) 0.16576(15)
C51_2 C 0.2976(4) 0.5037(3) 0.1001(2)
H28_2 H 0.230119 0.501985 0.090371
C52_2 C 0.3621(4) 0.5263(3) 0.0686(2)
H29_2 H 0.338529 0.538897 0.037227
C53_2 C 0.4627(4) 0.5309(3) 0.0825(2)
C54_2 C 0.4277(4) 0.4873(3) 0.1596(2)
H30_2 H 0.450668 0.474137 0.190772
C55_2 C 0.5297(4) 0.5575(3) 0.0502(2)
C56_2 C 0.6284(4) 0.5651(3) 0.0501(2)
C58_2 C 0.7061(4) 0.5438(3) 0.0799(2)
C59_2 C 0.7082(4) 0.4880(3) 0.0845(2)
H31_2 H 0.654612 0.460286 0.068101
C60_2 C 0.7852(4) 0.4681(3) 0.1121(2)
H32_2 H 0.784013 0.428092 0.113981
C61_2 C 0.8613(4) 0.5081(3) 0.1361(3)
C62_2 C 0.7832(4) 0.5831(3) 0.1045(3)
H33_2 H 0.783834 0.623053 0.102450
C63_2 C 0.9459(4) 0.4886(3) 0.1660(3)
C71_2 C 0.8605(5) 0.5656(3) 0.1324(3)
H38_2 H 0.913402 0.593573 0.149076
C72_2 C 0.4946(4) 0.5110(3) 0.1270(2)
H39_2 H 0.562229 0.512979 0.136534
O22 O 0.7309(2) 0.75167(16) 0.71553(14)
O24 O 0.6127(2) 0.76103(14) 0.80637(13)
O25 O 0.4635(2) 0.77539(15) 0.82557(13)
C57_2 C 0.5695(4) 0.6094(3) 0.9904(2)
C64_2 C 0.5598(4) 0.6430(2) 0.9483(2)
C65_2 C 0.4730(4) 0.6652(2) 0.9361(2)
H34_2 H 0.418874 0.656216 0.954462
C66_2 C 0.4666(3) 0.6993(2) 0.8984(2)
H35_2 H 0.408040 0.714181 0.890859
C67_2 C 0.5455(3) 0.7130(2) 0.87013(19)
C68_2 C 0.6299(3) 0.6877(2) 0.8793(2)
H36_2 H 0.681977 0.693826 0.858831
C69_2 C 0.6357(4) 0.6539(2) 0.9185(2)
H37_2 H 0.693112 0.637698 0.925383
C70_2 C 0.5406(3) 0.7523(2) 0.83163(19)
C25_2 C 0.8160(3) 0.7373(2) 0.64121(19)
N3_2 N 0.9697(3) 0.60787(18) 0.51081(15)
O8_2 O 0.6998(3) 0.80217(18) 0.65116(15)
C26_2 C 0.8086(3) 0.7326(2) 0.5869(2)
H15_2 H 0.762285 0.750773 0.568795
C27_2 C 0.8690(3) 0.7013(2) 0.5594(2)
H16_2 H 0.860203 0.695252 0.522167
C28_2 C 0.9434(3) 0.6782(2) 0.58575(19)
O11_2 O 0.9386(3) 0.40397(17) 0.28085(13)
C29_2 C 0.9539(3) 0.6859(2) 0.63991(18)
C41_2 C 0.9503(3) 0.5118(2) 0.4243(2)
H22_2 H 0.894425 0.514512 0.441978
C42_2 C 0.9446(3) 0.4750(2) 0.3777(2)
H23_2 H 0.884345 0.452396 0.363425
C47_2 C 0.7431(3) 0.7661(2) 0.6704(2)
C48_2 C 0.8890(3) 0.7140(2) 0.6672(2)
H26_2 H 0.894508 0.717362 0.704284
N2_2 N 0.1180(3) 0.08674(18) 0.98531(16)
C4_2 C 0.1400(4) 0.0080(3) 0.9162(2)
C5_2 C 0.2282(4) 0.0355(3) 0.9039(3)
H4_2 H 0.247712 0.075787 0.915434
C6_2 C 0.2881(5) 0.0035(3) 0.8745(3)
H5_2 H 0.345488 0.022376 0.863810
C7_2 C 0.0764(4) 0.0425(2) 0.9455(2)
C11_2 C 0.9824(3) 0.1869(2) 0.0567(2)
H6_2 H 0.922412 0.176259 0.035079
C12_2 C 0.9954(3) 0.2356(2) 0.0961(2)
H7_2 H 0.946688 0.259771 0.099334
N1_2 N 0.9618(2) 0.08255(16) 0.98169(15)
H1_2 H 0.904656 0.090115 0.989452
C8_2 C 0.9806(4) 0.0410(2) 0.9418(2)
C17_2 C 0.8976(3) 0.0065(2) 0.9087(2)
H13_2 H 0.802335 0.011356 0.961789
C73 C 0.7008(5) 0.6022(3) 0.6637(2)
H40 H 0.688555 0.629872 0.639880
H41 H 0.653566 0.566875 0.653573
H42 H 0.766383 0.592692 0.661619
C74 C 0.5885(4) 0.6315(3) 0.7264(3)
H43 H 0.558327 0.650486 0.699210
H44 H 0.586331 0.653893 0.760865
H45 H 0.553182 0.592384 0.724754
N7 N 0.6917(3) 0.6279(2) 0.71765(17)
H46 H 0.726506 0.664123 0.724579
H47 H 0.717128 0.606279 0.740307
C73_2 C 0.2992(5) 0.3978(3) 0.3363(2)
H40_2 H 0.311445 0.370128 0.360120
H41_2 H 0.346434 0.433125 0.346427
H42_2 H 0.233617 0.407308 0.338381
C74_2 C 0.4115(4) 0.3685(3) 0.2736(3)
H43_2 H 0.441673 0.349514 0.300790
H44_2 H 0.413669 0.346107 0.239135
H45_2 H 0.446818 0.407616 0.275246
N7_2 N 0.3083(3) 0.3721(2) 0.28235(17)
H46_2 H 0.273494 0.335877 0.275421
H47_2 H 0.282872 0.393721 0.259693
C75 C 0.2698(5) 0.6382(4) 0.7836(3)
H48 H 0.274002 0.637504 0.746065
H49 H 0.262625 0.598515 0.791494
H50 H 0.328840 0.660638 0.803533
C76 C 0.1782(6) 0.7218(4) 0.7833(3)
H51 H 0.183896 0.719706 0.745805
H52 H 0.231236 0.749982 0.803177
H53 H 0.116066 0.733767 0.790716
N8 N 0.1834(3) 0.6656(3) 0.79850(19)
H54 H 0.128790 0.641328 0.783775
H55 H 0.183773 0.669015 0.833861
C75_2 C 0.7302(5) 0.3618(4) 0.2164(3)
H48_2 H 0.725998 0.362496 0.253935
H49_2 H 0.737375 0.401485 0.208506
H50_2 H 0.671160 0.339362 0.196467
C76_2 C 0.8218(6) 0.2782(4) 0.2167(3)
H51_2 H 0.816104 0.280294 0.254195
H52_2 H 0.768764 0.250018 0.196823
H53_2 H 0.883934 0.266233 0.209284
N8_2 N 0.8166(3) 0.3344(3) 0.20150(19)
H54_2 H 0.871210 0.358672 0.216225
H55_2 H 0.816227 0.330985 0.166139
C78 C 0.0301(10) 0.1562(5) 0.2319(7)
H59 H 0.091660 0.144437 0.222979
H61 H 0.035901 0.198483 0.236665
N9 N 0.0052(10) 0.1346(5) 0.2828(6)
H62 H 0.055821 0.149453 0.307676
H63 H 0.003630 0.095570 0.277477
C77 C 0.9100(10) 0.1467(5) 0.3075(7)
H56 H 0.907057 0.129609 0.339696
H57 H 0.910565 0.188586 0.315603
H58 H 0.853366 0.129533 0.282506
H60 H 0.978702 0.139430 0.203568
C77_2 C 0.0900(10) 0.8533(5) 0.6925(7)
H56_2 H 0.092943 0.870391 0.660304
H57_2 H 0.089435 0.811414 0.684397
H58_2 H 0.146634 0.870467 0.717494
H60_2 H 0.021298 0.860570 0.796432
C78_2 C 0.9699(10) 0.8438(5) 0.7681(7)
H59_2 H 0.908340 0.855563 0.777021
H61_2 H 0.964099 0.801517 0.763335
N9_2 N 0.9948(10) 0.8654(5) 0.7172(6)
H62_2 H 0.944179 0.850547 0.692324
H63_2 H 0.996370 0.904430 0.722523
loop_
_geom_bond_atom_site_label_1
_geom_bond_atom_site_label_2
_geom_bond_site_symmetry_1
_geom_bond_site_symmetry_2
O7 C47 1_555 1_555
C25 C26 1_555 1_555
O8 C47 1_555 1_555
C26 H15 1_555 1_555
C27 C26 1_555 1_555
H16 C27 1_555 1_555
C28 C27 1_555 1_555
C29 C28 1_555 1_555
H22 C41 1_555 1_555
C42 C41 1_555 1_555
H23 C42 1_555 1_555
C47 C25 1_555 1_555
C48 C25 1_555 1_555
H26 C48 1_555 1_555
Zn7 O7 1_555 1_555
C29 C48 1_555 1_555
O17 C70 1_555 1_555
O18 C70 1_555 1_555
C64 C57 1_555 1_555
C65 C64 1_555 1_555
H34 C65 1_555 1_555
C66 C65 1_555 1_555
H35 C66 1_555 1_555
C67 C66 1_555 1_555
C68 C67 1_555 1_555
H36 C68 1_555 1_555
C69 C64 1_555 1_555
H37 C69 1_555 1_555
C70 C67 1_555 1_555
Zn5 O18 1_555 1_555
Zn7 O17 1_555 1_555
C68 C69 1_555 1_555
Zn5 O6 1_555 1_555
Zn7 O5 1_555 1_555
Zn3 O12 1_555 1_555
O5 C23 1_555 1_555
O6 C23 1_555 1_555
H10 C18 1_555 1_555
C19 C18 1_555 1_555
H11 C19 1_555 1_555
C20 C19 1_555 1_555
C21 C20 1_555 1_555
H12 C21 1_555 1_555
C23 C20 1_555 1_555
N4 H14 1_555 1_555
O9 Zn5 1_555 1_555
O10 Zn7 1_555 1_555
O12 C46 1_555 1_555
C31 N4 1_555 1_555
C33 C31 1_555 1_555
C34 C33 1_555 1_555
H18 C34 1_555 1_555
C35 C34 1_555 1_555
H19 C35 1_555 1_555
C36 C35 1_555 1_555
C37 C36 1_555 1_555
H20 C37 1_555 1_555
C38 C33 1_555 1_555
H21 C38 1_555 1_555
C39 O9 1_555 1_555
C40 C32 1_555 1_555
C44 C43 1_555 1_555
H24 C44 1_555 1_555
C45 C40 1_555 1_555
H25 C45 1_555 1_555
C46 C43 1_555 1_555
O13 C49 1_555 1_555
C49 O14 1_555 1_555
N5 C56 1_555 1_555
O14 Zn3 1_555 1_555
N6 H27 1_555 1_555
C50 C49 1_555 1_555
O23 C63 1_555 1_555
C51 C50 1_555 1_555
H28 C51 1_555 1_555
C52 C51 1_555 1_555
H29 C52 1_555 1_555
C53 C52 1_555 1_555
C54 C50 1_555 1_555
H30 C54 1_555 1_555
C55 N6 1_555 1_555
C56 C55 1_555 1_555
C58 C56 1_555 1_555
C59 C58 1_555 1_555
H31 C59 1_555 1_555
C60 C59 1_555 1_555
H32 C60 1_555 1_555
C61 C60 1_555 1_555
C62 C58 1_555 1_555
H33 C62 1_555 1_555
C63 C61 1_555 1_555
C71 C61 1_555 1_555
H38 C71 1_555 1_555
C72 C53 1_555 1_555
H39 C72 1_555 1_555
O19 Zn5 1_555 1_555
O20 Zn5 1_555 1_555
O21 Zn3 1_555 1_555
C21 C22 1_555 1_555
N4 C32 1_555 1_555
O10 C39 1_555 1_555
C30 C31 1_555 1_555
C36 C39 1_555 1_555
C37 C38 1_555 1_555
C44 C45 1_555 1_555
C53 C55 1_555 1_555
C54 C72 1_555 1_555
C62 C71 1_555 1_555
O19 C1 1_555 1_555
C1 O20 1_555 1_555
C2 H2 1_555 1_555
C3 C2 1_555 1_555
H3 C3 1_555 1_555
C24 C1 1_555 1_555
C2 C24 1_555 1_555
O3 C16 1_555 1_555
O21 C16 1_555 1_555
C10 C9 1_555 1_555
C14 C13 1_555 1_555
H8 C14 1_555 1_555
C15 C10 1_555 1_555
H9 C15 1_555 1_555
C16 C13 1_555 1_555
C14 C15 1_555 1_555
N1 H1 1_555 1_555
C8 N1 1_555 1_555
C17 C8 1_555 1_555
H6 C11 1_555 1_555
C12 C11 1_555 1_555
H7 C12 1_555 1_555
N2 C7 1_555 1_555
C5 C4 1_555 1_555
H4 C5 1_555 1_555
C6 C5 1_555 1_555
H5 C6 1_555 1_555
C7 C4 1_555 1_555
O3_2 C16_2 1_555 1_555
O4 C16_2 1_555 1_555
C10_2 C9_2 1_555 1_555
C14_2 C13_2 1_555 1_555
H8_2 C14_2 1_555 1_555
C15_2 C10_2 1_555 1_555
H9_2 C15_2 1_555 1_555
C16_2 C13_2 1_555 1_555
Zn8 O4 1_555 1_555
C14_2 C15_2 1_555 1_555
O1 C1_2 1_555 1_555
C1_2 O2 1_555 1_555
O2 Zn4 1_555 1_555
C2_2 H2_2 1_555 1_555
C3_2 C2_2 1_555 1_555
H3_2 C3_2 1_555 1_555
C24_2 C1_2 1_555 1_555
Zn4 O1 1_555 1_555
C2_2 C24_2 1_555 1_555
Zn4 O6_2 1_555 1_555
Zn2 O5_2 1_555 1_555
Zn8 O12_2 1_555 1_555
O5_2 C23_2 1_555 1_555
O6_2 C23_2 1_555 1_555
H10_2 C18_2 1_555 1_555
C19_2 C18_2 1_555 1_555
H11_2 C19_2 1_555 1_555
C20_2 C19_2 1_555 1_555
C21_2 C20_2 1_555 1_555
H12_2 C21_2 1_555 1_555
C23_2 C20_2 1_555 1_555
N4_2 H14_2 1_555 1_555
O9_2 Zn4 1_555 1_555
O10_2 Zn2 1_555 1_555
O12_2 C46_2 1_555 1_555
C31_2 N4_2 1_555 1_555
C33_2 C31_2 1_555 1_555
C34_2 C33_2 1_555 1_555
H18_2 C34_2 1_555 1_555
C35_2 C34_2 1_555 1_555
H19_2 C35_2 1_555 1_555
C36_2 C35_2 1_555 1_555
C37_2 C36_2 1_555 1_555
H20_2 C37_2 1_555 1_555
C38_2 C33_2 1_555 1_555
H21_2 C38_2 1_555 1_555
C39_2 O9_2 1_555 1_555
C40_2 C32_2 1_555 1_555
C44_2 C43_2 1_555 1_555
H24_2 C44_2 1_555 1_555
C45_2 C40_2 1_555 1_555
H25_2 C45_2 1_555 1_555
C46_2 C43_2 1_555 1_555
O13_2 C49_2 1_555 1_555
C49_2 O14_2 1_555 1_555
N5_2 C56_2 1_555 1_555
O14_2 Zn8 1_555 1_555
N6_2 H27_2 1_555 1_555
C50_2 C49_2 1_555 1_555
O15 C63_2 1_555 1_555
C51_2 C50_2 1_555 1_555
H28_2 C51_2 1_555 1_555
C52_2 C51_2 1_555 1_555
H29_2 C52_2 1_555 1_555
C53_2 C52_2 1_555 1_555
C54_2 C50_2 1_555 1_555
H30_2 C54_2 1_555 1_555
C55_2 N6_2 1_555 1_555
C56_2 C55_2 1_555 1_555
C58_2 C56_2 1_555 1_555
C59_2 C58_2 1_555 1_555
H31_2 C59_2 1_555 1_555
C60_2 C59_2 1_555 1_555
H32_2 C60_2 1_555 1_555
C61_2 C60_2 1_555 1_555
C62_2 C58_2 1_555 1_555
H33_2 C62_2 1_555 1_555
C63_2 C61_2 1_555 1_555
C71_2 C61_2 1_555 1_555
H38_2 C71_2 1_555 1_555
C72_2 C53_2 1_555 1_555
H39_2 C72_2 1_555 1_555
O22 Zn2 1_555 1_555
O24 Zn2 1_555 1_555
O25 Zn4 1_555 1_555
C21_2 C22_2 1_555 1_555
N4_2 C32_2 1_555 1_555
O10_2 C39_2 1_555 1_555
C30_2 C31_2 1_555 1_555
C36_2 C39_2 1_555 1_555
C37_2 C38_2 1_555 1_555
C44_2 C45_2 1_555 1_555
C53_2 C55_2 1_555 1_555
C54_2 C72_2 1_555 1_555
C62_2 C71_2 1_555 1_555
O24 C70_2 1_555 1_555
O25 C70_2 1_555 1_555
C64_2 C57_2 1_555 1_555
C65_2 C64_2 1_555 1_555
H34_2 C65_2 1_555 1_555
C66_2 C65_2 1_555 1_555
H35_2 C66_2 1_555 1_555
C67_2 C66_2 1_555 1_555
C68_2 C67_2 1_555 1_555
H36_2 C68_2 1_555 1_555
C69_2 C64_2 1_555 1_555
H37_2 C69_2 1_555 1_555
C70_2 C67_2 1_555 1_555
C68_2 C69_2 1_555 1_555
O22 C47_2 1_555 1_555
C25_2 C26_2 1_555 1_555
O8_2 C47_2 1_555 1_555
C26_2 H15_2 1_555 1_555
C27_2 C26_2 1_555 1_555
H16_2 C27_2 1_555 1_555
C28_2 C27_2 1_555 1_555
C29_2 C28_2 1_555 1_555
H22_2 C41_2 1_555 1_555
C42_2 C41_2 1_555 1_555
H23_2 C42_2 1_555 1_555
C47_2 C25_2 1_555 1_555
C48_2 C25_2 1_555 1_555
H26_2 C48_2 1_555 1_555
C29_2 C48_2 1_555 1_555
N2_2 C7_2 1_555 1_555
C5_2 C4_2 1_555 1_555
H4_2 C5_2 1_555 1_555
C6_2 C5_2 1_555 1_555
H5_2 C6_2 1_555 1_555
C7_2 C4_2 1_555 1_555
H6_2 C11_2 1_555 1_555
C12_2 C11_2 1_555 1_555
H7_2 C12_2 1_555 1_555
N1_2 H1_2 1_555 1_555
C8_2 N1_2 1_555 1_555
C17_2 C8_2 1_555 1_555
C73 H40 1_555 1_555
H41 C73 1_555 1_555
H42 C73 1_555 1_555
C74 H43 1_555 1_555
H44 C74 1_555 1_555
H45 C74 1_555 1_555
N7 C73 1_555 1_555
H46 N7 1_555 1_555
H47 N7 1_555 1_555
C74 N7 1_555 1_555
C73_2 H40_2 1_555 1_555
H41_2 C73_2 1_555 1_555
H42_2 C73_2 1_555 1_555
C74_2 H43_2 1_555 1_555
H44_2 C74_2 1_555 1_555
H45_2 C74_2 1_555 1_555
N7_2 C73_2 1_555 1_555
H46_2 N7_2 1_555 1_555
H47_2 N7_2 1_555 1_555
C74_2 N7_2 1_555 1_555
C75 H48 1_555 1_555
H49 C75 1_555 1_555
H50 C75 1_555 1_555
C76 H51 1_555 1_555
H52 C76 1_555 1_555
H53 C76 1_555 1_555
N8 C75 1_555 1_555
H54 N8 1_555 1_555
H55 N8 1_555 1_555
C76 N8 1_555 1_555
C75_2 H48_2 1_555 1_555
H49_2 C75_2 1_555 1_555
H50_2 C75_2 1_555 1_555
C76_2 H51_2 1_555 1_555
H52_2 C76_2 1_555 1_555
H53_2 C76_2 1_555 1_555
N8_2 C75_2 1_555 1_555
H54_2 N8_2 1_555 1_555
H55_2 N8_2 1_555 1_555
C76_2 N8_2 1_555 1_555
C78 H59 1_555 1_555
H61 C78 1_555 1_555
H62 N9 1_555 1_555
H63 N9 1_555 1_555
C78 N9 1_555 1_555
C77 H56 1_555 1_555
H57 C77 1_555 1_555
H58 C77 1_555 1_555
C77_2 H56_2 1_555 1_555
H57_2 C77_2 1_555 1_555
H58_2 C77_2 1_555 1_555
C78_2 H59_2 1_555 1_555
H61_2 C78_2 1_555 1_555
H62_2 N9_2 1_555 1_555
H63_2 N9_2 1_555 1_555
C78_2 N9_2 1_555 1_555

#END
