
###############################################################################
#
# This file contains modified crystal structure data generated from the
# MOF subset of the Cambridge Structural Database (CSD) v543 
# hosted by the Cambridge Crystallographic Data Centre (CCDC).
#
# This work is licensed under the Creative Commons
# Attribution-NonCommercial-ShareAlike 4.0 International License.
# To view a copy of this license, visit
# http://creativecommons.org/licenses/by-nc-sa/4.0/
# or send a letter to
# Creative Commons, PO Box 1866, Mountain View, CA 94042, USA.
#
# CIF created using the CSD Python API on 29 September 2022
# The structure has been converted into the P1 space group
# The structure has a 3D framework
# The original CSD entry XAMHOM02 is in the monoclinic crystal system
# The framework has been calculated to contain at least 10.0% void space
# The void calculation uses a probe of radius 1.32A, grid spacing 0.4
#
###############################################################################

data_XAMHOM02
_chemical_formula_moiety         '(C96 H56 Ag6 Fe4 N24)n'
_symmetry_cell_setting           triclinic
_symmetry_space_group_name_H-M   'P 1'
_symmetry_Int_Tables_number      1
_space_group_name_Hall           'P 1'
loop_
_symmetry_equiv_pos_site_id
_symmetry_equiv_pos_as_xyz
1 x,y,z
_cell_length_a                   15.5398(8)
_cell_length_b                   13.1923(5)
_cell_length_c                   16.0414(9)
_cell_angle_alpha                90
_cell_angle_beta                 98.013(2)
_cell_angle_gamma                90
_cell_volume                     3256.47
loop_
_atom_site_label
_atom_site_type_symbol
_atom_site_fract_x
_atom_site_fract_y
_atom_site_fract_z
N2 N 0.2657(2) 0.49894(19) 0.22202(19)
H7 H 0.0261 0.5781 0.0716
C20 C 0.0833(2) 0.5026(2) 0.2200(2)
C21 C 0.1313(3) 0.4129(3) 0.2325(2)
H11 H 0.1027 0.3509 0.2410
C22 C 0.2202(2) 0.4144(3) 0.2324(2)
H12 H 0.2508 0.3520 0.2401
C23 C 0.2204(2) 0.5860(3) 0.2121(2)
H13 H 0.2510 0.6473 0.2060
C24 C 0.1314(3) 0.5900(3) 0.2104(2)
H14 H 0.1024 0.6534 0.2025
Fe2 Fe 0.39855(3) 0.49983(3) 0.22295(3)
Ag1 Ag 0.40406(2) 0.25782(2) 0.47936(2)
N1 N 0.5309(2) 0.50172(19) 0.22603(19)
N3 N 0.40701(19) 0.6150(2) 0.3059(2)
N4 N 0.41015(19) 0.3996(2) 0.3181(2)
N5 N 0.39237(19) 0.3880(2) 0.1377(2)
N6 N 0.38732(19) 0.5972(2) 0.1248(2)
C1 C 0.4114(2) 0.3458(3) 0.3745(3)
C2 C 0.4082(2) 0.6741(3) 0.3593(3)
C3 C 0.3904(2) 0.6453(3) 0.0655(3)
C4 C 0.3961(2) 0.3343(3) 0.0819(3)
C5 C 0.5733(2) 0.5884(2) 0.2124(2)
H1 H 0.5410 0.6497 0.2052
C6 C 0.6610(2) 0.5916(2) 0.2085(2)
H2 H 0.6880 0.6542 0.1985
C7 C 0.7105(2) 0.5034(2) 0.2191(2)
C8 C 0.6666(2) 0.4148(3) 0.2340(2)
H3 H 0.6977 0.3527 0.2427
C9 C 0.5787(2) 0.4166(3) 0.2361(2)
H4 H 0.5502 0.3547 0.2451
C10 C 0.8055(2) 0.5038(2) 0.2166(2)
C11 C 0.8613(3) 0.4677(3) 0.2840(3)
H5 H 0.8382 0.4423 0.3317
C12 C 0.9514(3) 0.4675(3) 0.2844(3)
H6 H 0.9883 0.4415 0.3318
C13 C 0.9871(2) 0.5044(3) 0.2171(3)
C14 C 0.9323(3) 0.5419(3) 0.1453(2)
C15 C 0.9650(3) 0.5761(3) 0.0721(2)
C16 C 0.9102(3) 0.6064(3) 0.0021(3)
C17 C 0.8202(3) 0.6033(3) 0.0009(3)
C18 C 0.7863(3) 0.5701(3) 0.0704(3)
H10 H 0.7250 0.5671 0.0687
C19 C 0.8404(2) 0.5404(2) 0.1449(2)
Ag4 Ag 0.40412(2) 0.76923(2) 0.46065(2)
C26 C 0.3961(2) 0.1657(3) 0.5819(3)
Ag2 Ag 0.40412(2) 0.73077(2) 0.96065(2)
H8 H 0.9337 0.6297 0.9539
H9 H 0.7826 0.6240 0.9521
Ag3 Ag 0.40406(2) 0.24218(2) 0.97936(2)
C25 C 0.4082(2) 0.8259(3) 0.8593(3)
N2_2 N 0.2657(2) 0.00106(19) 0.72202(19)
C21_2 C 0.1313(3) 0.0871(3) 0.7325(2)
H11_2 H 0.1027 0.1491 0.7410
C22_2 C 0.2202(2) 0.0856(3) 0.7324(2)
H12_2 H 0.2508 0.1480 0.7401
Fe2_2 Fe 0.39855(3) 0.00017(3) 0.72295(3)
N4_2 N 0.41015(19) 0.1004(2) 0.8181(2)
N5_2 N 0.39237(19) 0.1120(2) 0.6377(2)
C1_2 C 0.4114(2) 0.1542(3) 0.8745(3)
C8_2 C 0.6666(2) 0.0852(3) 0.7340(2)
H3_2 H 0.6977 0.1473 0.7427
C9_2 C 0.5787(2) 0.0834(3) 0.7361(2)
H4_2 H 0.5502 0.1453 0.7451
C11_2 C 0.8613(3) 0.0323(3) 0.7840(3)
H5_2 H 0.8382 0.0577 0.8317
C12_2 C 0.9514(3) 0.0325(3) 0.7844(3)
H6_2 H 0.9883 0.0585 0.8318
N1_2 N 0.5309(2) 0.99828(19) 0.72603(19)
N3_2 N 0.40701(19) 0.8850(2) 0.8059(2)
N6_2 N 0.38732(19) 0.9028(2) 0.6248(2)
C3_2 C 0.3904(2) 0.8547(3) 0.5655(3)
C5_2 C 0.5733(2) 0.9116(2) 0.7124(2)
H1_2 H 0.5410 0.8503 0.7052
C6_2 C 0.6610(2) 0.9084(2) 0.7085(2)
H2_2 H 0.6880 0.8458 0.6985
C7_2 C 0.7105(2) 0.9966(2) 0.7191(2)
C10_2 C 0.8055(2) 0.9962(2) 0.7166(2)
C13_2 C 0.9871(2) 0.9956(3) 0.7171(3)
C14_2 C 0.9323(3) 0.9581(3) 0.6453(2)
C15_2 C 0.9650(3) 0.9239(3) 0.5721(2)
C16_2 C 0.9102(3) 0.8936(3) 0.5021(3)
H8_2 H 0.9337 0.8703 0.4539
C17_2 C 0.8202(3) 0.8967(3) 0.5009(3)
H9_2 H 0.7826 0.8760 0.4521
C18_2 C 0.7863(3) 0.9299(3) 0.5704(3)
H10_2 H 0.7250 0.9329 0.5687
C19_2 C 0.8404(2) 0.9596(2) 0.6449(2)
Ag2_2 Ag 0.59588(2) 0.23077(2) 0.53935(2)
N1_3 N 0.4691(2) 0.00172(19) 0.27397(19)
N3_3 N 0.59299(19) 0.1150(2) 0.1941(2)
N6_3 N 0.61268(19) 0.0972(2) 0.3752(2)
C2_2 C 0.5918(2) 0.1741(3) 0.1407(3)
C3_3 C 0.6096(2) 0.1453(3) 0.4345(3)
C5_3 C 0.4267(2) 0.0884(2) 0.2876(2)
H1_3 H 0.4590 0.1497 0.2948
C6_3 C 0.3390(2) 0.0916(2) 0.2915(2)
H2_3 H 0.3120 0.1542 0.3015
C7_3 C 0.2895(2) 0.0034(2) 0.2809(2)
C10_3 C 0.1945(2) 0.0038(2) 0.2834(2)
C13_3 C 0.0129(2) 0.0044(3) 0.2829(3)
C14_3 C 0.0677(3) 0.0419(3) 0.3547(2)
C15_3 C 0.0350(3) 0.0761(3) 0.4279(2)
C16_3 C 0.0898(3) 0.1064(3) 0.4979(3)
H8_3 H 0.0663 0.1297 0.5461
C17_3 C 0.1798(3) 0.1033(3) 0.4991(3)
H9_3 H 0.2174 0.1240 0.5479
C18_3 C 0.2137(3) 0.0701(3) 0.4296(3)
H10_3 H 0.2750 0.0671 0.4313
C19_3 C 0.1596(2) 0.0404(2) 0.3551(2)
Ag4_2 Ag 0.59588(2) 0.26923(2) 0.03935(2)
C25_2 C 0.5918(2) 0.3259(3) 0.6407(3)
Ag1_2 Ag 0.59594(2) 0.75782(2) 0.02064(2)
Fe1 Fe 0.60145(3) 0.99983(3) 0.27705(3)
N4_3 N 0.58985(19) 0.8996(2) 0.1819(2)
N5_3 N 0.60763(19) 0.8880(2) 0.3623(2)
C1_3 C 0.5886(2) 0.8458(3) 0.1255(3)
C4_2 C 0.6039(2) 0.8343(3) 0.4181(3)
C8_3 C 0.3334(2) 0.9148(3) 0.2660(2)
H3_3 H 0.3023 0.8527 0.2573
C9_3 C 0.4213(2) 0.9166(3) 0.2639(2)
H4_3 H 0.4498 0.8547 0.2549
C11_3 C 0.1387(3) 0.9677(3) 0.2160(3)
H5_3 H 0.1618 0.9423 0.1683
C12_3 C 0.0486(3) 0.9675(3) 0.2156(3)
H6_3 H 0.0117 0.9415 0.1682
Ag3_2 Ag 0.59594(2) 0.74218(2) 0.52064(2)
N7 N 0.7343(2) 0.99894(19) 0.27798(19)
C26_2 C 0.6039(2) 0.6657(3) 0.9181(3)
C21_3 C 0.8687(3) 0.9129(3) 0.2675(2)
H11_3 H 0.8973 0.8509 0.2590
C22_3 C 0.7798(2) 0.9144(3) 0.2676(2)
H12_3 H 0.7492 0.8520 0.2599
H8_4 H 0.0663 0.3703 0.0461
H9_4 H 0.2174 0.3760 0.0479
Fe1_2 Fe 0.60145(3) 0.50017(3) 0.77705(3)
N1_4 N 0.4691(2) 0.49828(19) 0.77397(19)
N3_4 N 0.59299(19) 0.3850(2) 0.6941(2)
N4_4 N 0.58985(19) 0.6004(2) 0.6819(2)
N5_4 N 0.60763(19) 0.6120(2) 0.8623(2)
N6_4 N 0.61268(19) 0.4028(2) 0.8752(2)
C1_4 C 0.5886(2) 0.6542(3) 0.6255(3)
C3_4 C 0.6096(2) 0.3547(3) 0.9345(3)
C5_4 C 0.4267(2) 0.4116(2) 0.7876(2)
H1_4 H 0.4590 0.3503 0.7948
C6_4 C 0.3390(2) 0.4084(2) 0.7915(2)
H2_4 H 0.3120 0.3458 0.8015
C7_4 C 0.2895(2) 0.4966(2) 0.7809(2)
C8_4 C 0.3334(2) 0.5852(3) 0.7660(2)
H3_4 H 0.3023 0.6473 0.7573
C9_4 C 0.4213(2) 0.5834(3) 0.7639(2)
H4_4 H 0.4498 0.6453 0.7549
C10_4 C 0.1945(2) 0.4962(2) 0.7834(2)
C11_4 C 0.1387(3) 0.5323(3) 0.7160(3)
H5_4 H 0.1618 0.5577 0.6683
C12_4 C 0.0486(3) 0.5325(3) 0.7156(3)
H6_4 H 0.0117 0.5585 0.6682
C13_4 C 0.0129(2) 0.4956(3) 0.7829(3)
C14_4 C 0.0677(3) 0.4581(3) 0.8547(2)
C15_4 C 0.0350(3) 0.4239(3) 0.9279(2)
C16_4 C 0.0898(3) 0.3936(3) 0.9979(3)
C17_4 C 0.1798(3) 0.3967(3) 0.9991(3)
C18_4 C 0.2137(3) 0.4299(3) 0.9296(3)
H10_4 H 0.2750 0.4329 0.9313
C19_4 C 0.1596(2) 0.4596(2) 0.8551(2)
N7_2 N 0.7343(2) 0.50106(19) 0.77798(19)
H7_2 H 0.9739 0.4219 0.9284
C20_2 C 0.9167(2) 0.4974(2) 0.7800(2)
C21_4 C 0.8687(3) 0.5871(3) 0.7675(2)
H11_4 H 0.8973 0.6491 0.7590
C22_4 C 0.7798(2) 0.5856(3) 0.7676(2)
H12_4 H 0.7492 0.6480 0.7599
C23_2 C 0.7796(2) 0.4140(3) 0.7879(2)
H13_2 H 0.7490 0.3527 0.7940
C24_2 C 0.8686(3) 0.4100(3) 0.7896(2)
H14_2 H 0.8976 0.3466 0.7975
H7_3 H 0.9739 0.0781 0.4284
C20_3 C 0.9167(2) 0.0026(2) 0.2800(2)
C23_3 C 0.7796(2) 0.0860(3) 0.2879(2)
H13_3 H 0.7490 0.1473 0.2940
C24_3 C 0.8686(3) 0.0900(3) 0.2896(2)
H14_3 H 0.8976 0.1534 0.2975
H7_4 H 0.0261 0.9219 0.5716
C20_4 C 0.0833(2) 0.9974(2) 0.7200(2)
C23_4 C 0.2204(2) 0.9140(3) 0.7121(2)
H13_4 H 0.2510 0.8527 0.7060
C24_4 C 0.1314(3) 0.9100(3) 0.7104(2)
H14_4 H 0.1024 0.8466 0.7025
loop_
_geom_bond_atom_site_label_1
_geom_bond_atom_site_label_2
_geom_bond_site_symmetry_1
_geom_bond_site_symmetry_2
N2 C22 1_555 1_555
C21 C20 1_555 1_555
H11 C21 1_555 1_555
C22 C21 1_555 1_555
H12 C22 1_555 1_555
C23 N2 1_555 1_555
H13 C23 1_555 1_555
C24 C20 1_555 1_555
H14 C24 1_555 1_555
Fe2 N2 1_555 1_555
C23 C24 1_555 1_555
Ag1 C1 1_555 1_555
Fe2 N1 1_555 1_555
N1 C5 1_555 1_555
N3 Fe2 1_555 1_555
N4 Fe2 1_555 1_555
N5 Fe2 1_555 1_555
N6 Fe2 1_555 1_555
C1 N4 1_555 1_555
C2 N3 1_555 1_555
C3 N6 1_555 1_555
C4 N5 1_555 1_555
C5 H1 1_555 1_555
C6 C5 1_555 1_555
H2 C6 1_555 1_555
C7 C6 1_555 1_555
C8 C7 1_555 1_555
H3 C8 1_555 1_555
C9 N1 1_555 1_555
H4 C9 1_555 1_555
C10 C7 1_555 1_555
C11 C10 1_555 1_555
H5 C11 1_555 1_555
C12 C11 1_555 1_555
H6 C12 1_555 1_555
C13 C12 1_555 1_555
C14 C13 1_555 1_555
C15 C14 1_555 1_555
C16 C15 1_555 1_555
C17 C16 1_555 1_555
C18 C17 1_555 1_555
H10 C18 1_555 1_555
C19 C10 1_555 1_555
Ag4 C2 1_555 1_555
C26 Ag1 1_555 1_555
C8 C9 1_555 1_555
C14 C19 1_555 1_555
C18 C19 1_555 1_555
C25 Ag2 1_555 1_555
N2_2 C22_2 1_555 1_555
H11_2 C21_2 1_555 1_555
C22_2 C21_2 1_555 1_555
H12_2 C22_2 1_555 1_555
Fe2_2 N2_2 1_555 1_555
Ag3 C1_2 1_555 1_555
N4_2 Fe2_2 1_555 1_555
N5_2 Fe2_2 1_555 1_555
C1_2 N4_2 1_555 1_555
C26 N5_2 1_555 1_555
H3_2 C8_2 1_555 1_555
H4_2 C9_2 1_555 1_555
H5_2 C11_2 1_555 1_555
C12_2 C11_2 1_555 1_555
H6_2 C12_2 1_555 1_555
C8_2 C9_2 1_555 1_555
Ag4 C3_2 1_555 1_555
N1_2 C5_2 1_555 1_555
C25 N3_2 1_555 1_555
C3_2 N6_2 1_555 1_555
C5_2 H1_2 1_555 1_555
C6_2 C5_2 1_555 1_555
H2_2 C6_2 1_555 1_555
C7_2 C6_2 1_555 1_555
C10_2 C7_2 1_555 1_555
C14_2 C13_2 1_555 1_555
C15_2 C14_2 1_555 1_555
C16_2 C15_2 1_555 1_555
H8_2 C16_2 1_555 1_555
C17_2 C16_2 1_555 1_555
H9_2 C17_2 1_555 1_555
C18_2 C17_2 1_555 1_555
H10_2 C18_2 1_555 1_555
C19_2 C10_2 1_555 1_555
C14_2 C19_2 1_555 1_555
C18_2 C19_2 1_555 1_555
Ag2_2 C3_3 1_555 1_555
N1_3 C5_3 1_555 1_555
C2_2 N3_3 1_555 1_555
C3_3 N6_3 1_555 1_555
C5_3 H1_3 1_555 1_555
C6_3 C5_3 1_555 1_555
H2_3 C6_3 1_555 1_555
C7_3 C6_3 1_555 1_555
C10_3 C7_3 1_555 1_555
C14_3 C13_3 1_555 1_555
C15_3 C14_3 1_555 1_555
C16_3 C15_3 1_555 1_555
H8_3 C16_3 1_555 1_555
C17_3 C16_3 1_555 1_555
H9_3 C17_3 1_555 1_555
C18_3 C17_3 1_555 1_555
H10_3 C18_3 1_555 1_555
C19_3 C10_3 1_555 1_555
Ag4_2 C2_2 1_555 1_555
C25_2 Ag2_2 1_555 1_555
C14_3 C19_3 1_555 1_555
C18_3 C19_3 1_555 1_555
Ag1_2 C1_3 1_555 1_555
N4_3 Fe1 1_555 1_555
N5_3 Fe1 1_555 1_555
C1_3 N4_3 1_555 1_555
C4_2 N5_3 1_555 1_555
H3_3 C8_3 1_555 1_555
H4_3 C9_3 1_555 1_555
H5_3 C11_3 1_555 1_555
C12_3 C11_3 1_555 1_555
H6_3 C12_3 1_555 1_555
Ag3_2 C4_2 1_555 1_555
N7 Fe1 1_555 1_555
C8_3 C9_3 1_555 1_555
N7 C22_3 1_555 1_555
H11_3 C21_3 1_555 1_555
C22_3 C21_3 1_555 1_555
H12_3 C22_3 1_555 1_555
Ag3_2 C1_4 1_555 1_555
Fe1_2 N1_4 1_555 1_555
N1_4 C5_4 1_555 1_555
N3_4 Fe1_2 1_555 1_555
N4_4 Fe1_2 1_555 1_555
N5_4 Fe1_2 1_555 1_555
N6_4 Fe1_2 1_555 1_555
C1_4 N4_4 1_555 1_555
C25_2 N3_4 1_555 1_555
C3_4 N6_4 1_555 1_555
C26_2 N5_4 1_555 1_555
C5_4 H1_4 1_555 1_555
C6_4 C5_4 1_555 1_555
H2_4 C6_4 1_555 1_555
C7_4 C6_4 1_555 1_555
C8_4 C7_4 1_555 1_555
H3_4 C8_4 1_555 1_555
C9_4 N1_4 1_555 1_555
H4_4 C9_4 1_555 1_555
C10_4 C7_4 1_555 1_555
C11_4 C10_4 1_555 1_555
H5_4 C11_4 1_555 1_555
C12_4 C11_4 1_555 1_555
H6_4 C12_4 1_555 1_555
C13_4 C12_4 1_555 1_555
C14_4 C13_4 1_555 1_555
C15_4 C14_4 1_555 1_555
C16_4 C15_4 1_555 1_555
C17_4 C16_4 1_555 1_555
C18_4 C17_4 1_555 1_555
H10_4 C18_4 1_555 1_555
C19_4 C10_4 1_555 1_555
N7_2 Fe1_2 1_555 1_555
C8_4 C9_4 1_555 1_555
C14_4 C19_4 1_555 1_555
C18_4 C19_4 1_555 1_555
N7_2 C22_4 1_555 1_555
C21_4 C20_2 1_555 1_555
H11_4 C21_4 1_555 1_555
C22_4 C21_4 1_555 1_555
H12_4 C22_4 1_555 1_555
C23_2 N7_2 1_555 1_555
H13_2 C23_2 1_555 1_555
C24_2 C20_2 1_555 1_555
H14_2 C24_2 1_555 1_555
C23_2 C24_2 1_555 1_555
H13_3 C23_3 1_555 1_555
C24_3 C20_3 1_555 1_555
H14_3 C24_3 1_555 1_555
C23_3 C24_3 1_555 1_555
H13_4 C23_4 1_555 1_555
C24_4 C20_4 1_555 1_555
H14_4 C24_4 1_555 1_555
C23_4 C24_4 1_555 1_555

#END
