
###############################################################################
#
# This file contains modified crystal structure data generated from the
# MOF subset of the Cambridge Structural Database (CSD) v543 
# hosted by the Cambridge Crystallographic Data Centre (CCDC).
#
# This work is licensed under the Creative Commons
# Attribution-NonCommercial-ShareAlike 4.0 International License.
# To view a copy of this license, visit
# http://creativecommons.org/licenses/by-nc-sa/4.0/
# or send a letter to
# Creative Commons, PO Box 1866, Mountain View, CA 94042, USA.
#
# CIF created using the CSD Python API on 29 September 2022
# The structure has been converted into the P1 space group
# The structure has a 3D framework
# The original CSD entry XAMHOM04 is in the monoclinic crystal system
# The framework has been calculated to contain at least 10.0% void space
# The void calculation uses a probe of radius 1.32A, grid spacing 0.4
#
###############################################################################

data_XAMHOM04
_chemical_formula_moiety         '(C96 H56 Ag6 Fe4 N24)n'
_symmetry_cell_setting           triclinic
_symmetry_space_group_name_H-M   'P 1'
_symmetry_Int_Tables_number      1
_space_group_name_Hall           'P 1'
loop_
_symmetry_equiv_pos_site_id
_symmetry_equiv_pos_as_xyz
1 x,y,z
_cell_length_a                   15.8393(13)
_cell_length_b                   13.1762(11)
_cell_length_c                   16.6150(15)
_cell_angle_alpha                90
_cell_angle_beta                 99.320(2)
_cell_angle_gamma                90
_cell_volume                     3421.81
loop_
_atom_site_label
_atom_site_type_symbol
_atom_site_fract_x
_atom_site_fract_y
_atom_site_fract_z
N2 N 0.2585(2) 0.4994(3) 0.2227(2)
H7 H 0.0178 0.5714 0.0736
C20 C 0.0800(3) 0.5034(4) 0.2188(3)
C21 C 0.1264(3) 0.4150(4) 0.2308(3)
H11 H 0.0988 0.3542 0.2384
C22 C 0.2144(3) 0.4157(4) 0.2318(3)
H12 H 0.2438 0.3544 0.2391
C23 C 0.2136(3) 0.5846(4) 0.2120(3)
H13 H 0.2429 0.6446 0.2063
C24 C 0.1260(3) 0.5898(4) 0.2089(3)
H14 H 0.0981 0.6519 0.2001
Fe2 Fe 0.39915(4) 0.49984(5) 0.22414(3)
Ag1 Ag 0.40419(3) 0.25691(3) 0.47971(2)
N1 N 0.5384(2) 0.5026(3) 0.2278(2)
N3 N 0.4091(2) 0.6235(3) 0.3102(2)
N4 N 0.4125(2) 0.3914(3) 0.3216(2)
N5 N 0.3915(2) 0.3798(3) 0.1358(2)
N6 N 0.3849(2) 0.6062(3) 0.1234(2)
C1 C 0.4113(3) 0.3408(4) 0.3774(3)
C2 C 0.4086(3) 0.6780(4) 0.3631(3)
C3 C 0.3893(3) 0.6498(4) 0.0654(3)
C4 C 0.3957(3) 0.3311(4) 0.0807(3)
C5 C 0.5795(3) 0.5878(4) 0.2138(3)
H1 H 0.5484 0.6479 0.2069
C6 C 0.6653(3) 0.5912(4) 0.2090(3)
H2 H 0.6907 0.6525 0.1989
C7 C 0.7142(3) 0.5032(4) 0.2193(3)
C8 C 0.6723(3) 0.4152(4) 0.2351(3)
H3 H 0.7026 0.3546 0.2435
C9 C 0.5853(3) 0.4168(4) 0.2385(3)
H4 H 0.5584 0.3565 0.2485
C10 C 0.8075(3) 0.5026(4) 0.2164(3)
C11 C 0.8632(3) 0.4690(4) 0.2813(3)
H5 H 0.8424 0.4454 0.3271
C12 C 0.9515(3) 0.4691(4) 0.2809(3)
H6 H 0.9879 0.4449 0.3264
C13 C 0.9857(3) 0.5037(4) 0.2159(3)
C14 C 0.9292(3) 0.5393(4) 0.1452(3)
C15 C 0.9592(3) 0.5705(4) 0.0744(3)
C16 C 0.9042(3) 0.5995(4) 0.0067(3)
C17 C 0.8154(3) 0.5960(5) 0.0050(3)
C18 C 0.7840(3) 0.5659(4) 0.0724(3)
H10 H 0.7251 0.5640 0.0710
C19 C 0.8391(3) 0.5373(4) 0.1448(3)
Ag4 Ag 0.40360(3) 0.76751(3) 0.46357(2)
C26 C 0.3957(3) 0.1689(4) 0.5807(3)
Ag2 Ag 0.40360(3) 0.73249(3) 0.96357(2)
H8 H 0.9258 0.6220 0.9610
H9 H 0.7783 0.6142 0.9579
Ag3 Ag 0.40419(3) 0.24309(3) 0.97971(2)
C25 C 0.4086(3) 0.8220(4) 0.8631(3)
N2_2 N 0.2585(2) 0.0006(3) 0.7227(2)
C21_2 C 0.1264(3) 0.0850(4) 0.7308(3)
H11_2 H 0.0988 0.1458 0.7384
C22_2 C 0.2144(3) 0.0843(4) 0.7318(3)
H12_2 H 0.2438 0.1456 0.7391
Fe2_2 Fe 0.39915(4) 0.00016(5) 0.72414(3)
N4_2 N 0.4125(2) 0.1086(3) 0.8216(2)
N5_2 N 0.3915(2) 0.1202(3) 0.6358(2)
C1_2 C 0.4113(3) 0.1592(4) 0.8774(3)
C8_2 C 0.6723(3) 0.0848(4) 0.7351(3)
H3_2 H 0.7026 0.1454 0.7435
C9_2 C 0.5853(3) 0.0832(4) 0.7385(3)
H4_2 H 0.5584 0.1435 0.7485
C11_2 C 0.8632(3) 0.0310(4) 0.7813(3)
H5_2 H 0.8424 0.0546 0.8271
C12_2 C 0.9515(3) 0.0309(4) 0.7809(3)
H6_2 H 0.9879 0.0551 0.8264
N1_2 N 0.5384(2) 0.9974(3) 0.7278(2)
N3_2 N 0.4091(2) 0.8765(3) 0.8102(2)
N6_2 N 0.3849(2) 0.8938(3) 0.6234(2)
C3_2 C 0.3893(3) 0.8502(4) 0.5654(3)
C5_2 C 0.5795(3) 0.9122(4) 0.7138(3)
H1_2 H 0.5484 0.8521 0.7069
C6_2 C 0.6653(3) 0.9088(4) 0.7090(3)
H2_2 H 0.6907 0.8475 0.6989
C7_2 C 0.7142(3) 0.9968(4) 0.7193(3)
C10_2 C 0.8075(3) 0.9974(4) 0.7164(3)
C13_2 C 0.9857(3) 0.9963(4) 0.7159(3)
C14_2 C 0.9292(3) 0.9607(4) 0.6452(3)
C15_2 C 0.9592(3) 0.9295(4) 0.5744(3)
C16_2 C 0.9042(3) 0.9005(4) 0.5067(3)
H8_2 H 0.9258 0.8780 0.4610
C17_2 C 0.8154(3) 0.9040(5) 0.5050(3)
H9_2 H 0.7783 0.8858 0.4579
C18_2 C 0.7840(3) 0.9341(4) 0.5724(3)
H10_2 H 0.7251 0.9360 0.5710
C19_2 C 0.8391(3) 0.9627(4) 0.6448(3)
Ag2_2 Ag 0.59640(3) 0.23249(3) 0.53643(2)
N1_3 N 0.4616(2) 0.0026(3) 0.2722(2)
N3_3 N 0.5909(2) 0.1235(3) 0.1898(2)
N6_3 N 0.6151(2) 0.1062(3) 0.3766(2)
C2_2 C 0.5914(3) 0.1780(4) 0.1369(3)
C3_3 C 0.6107(3) 0.1498(4) 0.4346(3)
C5_3 C 0.4205(3) 0.0878(4) 0.2862(3)
H1_3 H 0.4516 0.1479 0.2931
C6_3 C 0.3347(3) 0.0912(4) 0.2910(3)
H2_3 H 0.3093 0.1525 0.3011
C7_3 C 0.2858(3) 0.0032(4) 0.2807(3)
C10_3 C 0.1925(3) 0.0026(4) 0.2836(3)
C13_3 C 0.0143(3) 0.0037(4) 0.2841(3)
C14_3 C 0.0708(3) 0.0393(4) 0.3548(3)
C15_3 C 0.0408(3) 0.0705(4) 0.4256(3)
C16_3 C 0.0958(3) 0.0995(4) 0.4933(3)
H8_3 H 0.0742 0.1220 0.5390
C17_3 C 0.1846(3) 0.0960(5) 0.4950(3)
H9_3 H 0.2217 0.1142 0.5421
C18_3 C 0.2160(3) 0.0659(4) 0.4276(3)
H10_3 H 0.2749 0.0640 0.4290
C19_3 C 0.1609(3) 0.0373(4) 0.3552(3)
Ag4_2 Ag 0.59640(3) 0.26751(3) 0.03643(2)
C25_2 C 0.5914(3) 0.3220(4) 0.6369(3)
Ag1_2 Ag 0.59581(3) 0.75691(3) 0.02029(2)
Fe1 Fe 0.60085(4) 0.99984(5) 0.27586(3)
N4_3 N 0.5875(2) 0.8914(3) 0.1784(2)
N5_3 N 0.6085(2) 0.8798(3) 0.3642(2)
C1_3 C 0.5887(3) 0.8408(4) 0.1226(3)
C4_2 C 0.6043(3) 0.8311(4) 0.4193(3)
C8_3 C 0.3277(3) 0.9152(4) 0.2649(3)
H3_3 H 0.2974 0.8546 0.2565
C9_3 C 0.4147(3) 0.9168(4) 0.2615(3)
H4_3 H 0.4416 0.8565 0.2515
C11_3 C 0.1368(3) 0.9690(4) 0.2187(3)
H5_3 H 0.1576 0.9454 0.1729
C12_3 C 0.0485(3) 0.9691(4) 0.2191(3)
H6_3 H 0.0121 0.9449 0.1736
Ag3_2 Ag 0.59581(3) 0.74309(3) 0.52029(2)
N7 N 0.7415(2) 0.9994(3) 0.2773(2)
C26_2 C 0.6043(3) 0.6689(4) 0.9193(3)
C21_3 C 0.8736(3) 0.9150(4) 0.2692(3)
H11_3 H 0.9012 0.8542 0.2616
C22_3 C 0.7856(3) 0.9157(4) 0.2682(3)
H12_3 H 0.7562 0.8544 0.2609
H8_4 H 0.0742 0.3780 0.0390
H9_4 H 0.2217 0.3858 0.0421
Fe1_2 Fe 0.60085(4) 0.50016(5) 0.77586(3)
N1_4 N 0.4616(2) 0.4974(3) 0.7722(2)
N3_4 N 0.5909(2) 0.3765(3) 0.6898(2)
N4_4 N 0.5875(2) 0.6086(3) 0.6784(2)
N5_4 N 0.6085(2) 0.6202(3) 0.8642(2)
N6_4 N 0.6151(2) 0.3938(3) 0.8766(2)
C1_4 C 0.5887(3) 0.6592(4) 0.6226(3)
C3_4 C 0.6107(3) 0.3502(4) 0.9346(3)
C5_4 C 0.4205(3) 0.4122(4) 0.7862(3)
H1_4 H 0.4516 0.3521 0.7931
C6_4 C 0.3347(3) 0.4088(4) 0.7910(3)
H2_4 H 0.3093 0.3475 0.8011
C7_4 C 0.2858(3) 0.4968(4) 0.7807(3)
C8_4 C 0.3277(3) 0.5848(4) 0.7649(3)
H3_4 H 0.2974 0.6454 0.7565
C9_4 C 0.4147(3) 0.5832(4) 0.7615(3)
H4_4 H 0.4416 0.6435 0.7515
C10_4 C 0.1925(3) 0.4974(4) 0.7836(3)
C11_4 C 0.1368(3) 0.5310(4) 0.7187(3)
H5_4 H 0.1576 0.5546 0.6729
C12_4 C 0.0485(3) 0.5309(4) 0.7191(3)
H6_4 H 0.0121 0.5551 0.6736
C13_4 C 0.0143(3) 0.4963(4) 0.7841(3)
C14_4 C 0.0708(3) 0.4607(4) 0.8548(3)
C15_4 C 0.0408(3) 0.4295(4) 0.9256(3)
C16_4 C 0.0958(3) 0.4005(4) 0.9933(3)
C17_4 C 0.1846(3) 0.4040(5) 0.9950(3)
C18_4 C 0.2160(3) 0.4341(4) 0.9276(3)
H10_4 H 0.2749 0.4360 0.9290
C19_4 C 0.1609(3) 0.4627(4) 0.8552(3)
N7_2 N 0.7415(2) 0.5006(3) 0.7773(2)
H7_2 H 0.9822 0.4286 0.9264
C20_2 C 0.9200(3) 0.4966(4) 0.7812(3)
C21_4 C 0.8736(3) 0.5850(4) 0.7692(3)
H11_4 H 0.9012 0.6458 0.7616
C22_4 C 0.7856(3) 0.5843(4) 0.7682(3)
H12_4 H 0.7562 0.6456 0.7609
C23_2 C 0.7864(3) 0.4154(4) 0.7880(3)
H13_2 H 0.7571 0.3554 0.7937
C24_2 C 0.8740(3) 0.4102(4) 0.7911(3)
H14_2 H 0.9019 0.3481 0.7999
H7_3 H 0.9822 0.0714 0.4264
C20_3 C 0.9200(3) 0.0034(4) 0.2812(3)
C23_3 C 0.7864(3) 0.0846(4) 0.2880(3)
H13_3 H 0.7571 0.1446 0.2937
C24_3 C 0.8740(3) 0.0898(4) 0.2911(3)
H14_3 H 0.9019 0.1519 0.2999
H7_4 H 0.0178 0.9286 0.5736
C20_4 C 0.0800(3) 0.9966(4) 0.7188(3)
C23_4 C 0.2136(3) 0.9154(4) 0.7120(3)
H13_4 H 0.2429 0.8554 0.7063
C24_4 C 0.1260(3) 0.9102(4) 0.7089(3)
H14_4 H 0.0981 0.8481 0.7001
loop_
_geom_bond_atom_site_label_1
_geom_bond_atom_site_label_2
_geom_bond_site_symmetry_1
_geom_bond_site_symmetry_2
N2 C22 1_555 1_555
C21 C20 1_555 1_555
H11 C21 1_555 1_555
C22 C21 1_555 1_555
H12 C22 1_555 1_555
C23 N2 1_555 1_555
H13 C23 1_555 1_555
C24 C20 1_555 1_555
H14 C24 1_555 1_555
Fe2 N2 1_555 1_555
C23 C24 1_555 1_555
Ag1 C1 1_555 1_555
Fe2 N1 1_555 1_555
N1 C5 1_555 1_555
N3 Fe2 1_555 1_555
N4 Fe2 1_555 1_555
N5 Fe2 1_555 1_555
N6 Fe2 1_555 1_555
C1 N4 1_555 1_555
C2 N3 1_555 1_555
C3 N6 1_555 1_555
C4 N5 1_555 1_555
C5 H1 1_555 1_555
C6 C5 1_555 1_555
H2 C6 1_555 1_555
C7 C6 1_555 1_555
C8 C7 1_555 1_555
H3 C8 1_555 1_555
C9 N1 1_555 1_555
H4 C9 1_555 1_555
C10 C7 1_555 1_555
C11 C10 1_555 1_555
H5 C11 1_555 1_555
C12 C11 1_555 1_555
H6 C12 1_555 1_555
C13 C12 1_555 1_555
C14 C13 1_555 1_555
C15 C14 1_555 1_555
C16 C15 1_555 1_555
C17 C16 1_555 1_555
C18 C17 1_555 1_555
H10 C18 1_555 1_555
C19 C10 1_555 1_555
Ag4 C2 1_555 1_555
C26 Ag1 1_555 1_555
C8 C9 1_555 1_555
C14 C19 1_555 1_555
C18 C19 1_555 1_555
C25 Ag2 1_555 1_555
N2_2 C22_2 1_555 1_555
H11_2 C21_2 1_555 1_555
C22_2 C21_2 1_555 1_555
H12_2 C22_2 1_555 1_555
Fe2_2 N2_2 1_555 1_555
Ag3 C1_2 1_555 1_555
N4_2 Fe2_2 1_555 1_555
N5_2 Fe2_2 1_555 1_555
C1_2 N4_2 1_555 1_555
C26 N5_2 1_555 1_555
H3_2 C8_2 1_555 1_555
H4_2 C9_2 1_555 1_555
H5_2 C11_2 1_555 1_555
C12_2 C11_2 1_555 1_555
H6_2 C12_2 1_555 1_555
C8_2 C9_2 1_555 1_555
Ag4 C3_2 1_555 1_555
N1_2 C5_2 1_555 1_555
C25 N3_2 1_555 1_555
C3_2 N6_2 1_555 1_555
C5_2 H1_2 1_555 1_555
C6_2 C5_2 1_555 1_555
H2_2 C6_2 1_555 1_555
C7_2 C6_2 1_555 1_555
C10_2 C7_2 1_555 1_555
C14_2 C13_2 1_555 1_555
C15_2 C14_2 1_555 1_555
C16_2 C15_2 1_555 1_555
H8_2 C16_2 1_555 1_555
C17_2 C16_2 1_555 1_555
H9_2 C17_2 1_555 1_555
C18_2 C17_2 1_555 1_555
H10_2 C18_2 1_555 1_555
C19_2 C10_2 1_555 1_555
C14_2 C19_2 1_555 1_555
C18_2 C19_2 1_555 1_555
Ag2_2 C3_3 1_555 1_555
N1_3 C5_3 1_555 1_555
C2_2 N3_3 1_555 1_555
C3_3 N6_3 1_555 1_555
C5_3 H1_3 1_555 1_555
C6_3 C5_3 1_555 1_555
H2_3 C6_3 1_555 1_555
C7_3 C6_3 1_555 1_555
C10_3 C7_3 1_555 1_555
C14_3 C13_3 1_555 1_555
C15_3 C14_3 1_555 1_555
C16_3 C15_3 1_555 1_555
H8_3 C16_3 1_555 1_555
C17_3 C16_3 1_555 1_555
H9_3 C17_3 1_555 1_555
C18_3 C17_3 1_555 1_555
H10_3 C18_3 1_555 1_555
C19_3 C10_3 1_555 1_555
Ag4_2 C2_2 1_555 1_555
C25_2 Ag2_2 1_555 1_555
C14_3 C19_3 1_555 1_555
C18_3 C19_3 1_555 1_555
Ag1_2 C1_3 1_555 1_555
N4_3 Fe1 1_555 1_555
N5_3 Fe1 1_555 1_555
C1_3 N4_3 1_555 1_555
C4_2 N5_3 1_555 1_555
H3_3 C8_3 1_555 1_555
H4_3 C9_3 1_555 1_555
H5_3 C11_3 1_555 1_555
C12_3 C11_3 1_555 1_555
H6_3 C12_3 1_555 1_555
Ag3_2 C4_2 1_555 1_555
N7 Fe1 1_555 1_555
C8_3 C9_3 1_555 1_555
N7 C22_3 1_555 1_555
H11_3 C21_3 1_555 1_555
C22_3 C21_3 1_555 1_555
H12_3 C22_3 1_555 1_555
Ag3_2 C1_4 1_555 1_555
Fe1_2 N1_4 1_555 1_555
N1_4 C5_4 1_555 1_555
N3_4 Fe1_2 1_555 1_555
N4_4 Fe1_2 1_555 1_555
N5_4 Fe1_2 1_555 1_555
N6_4 Fe1_2 1_555 1_555
C1_4 N4_4 1_555 1_555
C25_2 N3_4 1_555 1_555
C3_4 N6_4 1_555 1_555
C26_2 N5_4 1_555 1_555
C5_4 H1_4 1_555 1_555
C6_4 C5_4 1_555 1_555
H2_4 C6_4 1_555 1_555
C7_4 C6_4 1_555 1_555
C8_4 C7_4 1_555 1_555
H3_4 C8_4 1_555 1_555
C9_4 N1_4 1_555 1_555
H4_4 C9_4 1_555 1_555
C10_4 C7_4 1_555 1_555
C11_4 C10_4 1_555 1_555
H5_4 C11_4 1_555 1_555
C12_4 C11_4 1_555 1_555
H6_4 C12_4 1_555 1_555
C13_4 C12_4 1_555 1_555
C14_4 C13_4 1_555 1_555
C15_4 C14_4 1_555 1_555
C16_4 C15_4 1_555 1_555
C17_4 C16_4 1_555 1_555
C18_4 C17_4 1_555 1_555
H10_4 C18_4 1_555 1_555
C19_4 C10_4 1_555 1_555
N7_2 Fe1_2 1_555 1_555
C8_4 C9_4 1_555 1_555
C14_4 C19_4 1_555 1_555
C18_4 C19_4 1_555 1_555
N7_2 C22_4 1_555 1_555
C21_4 C20_2 1_555 1_555
H11_4 C21_4 1_555 1_555
C22_4 C21_4 1_555 1_555
H12_4 C22_4 1_555 1_555
C23_2 N7_2 1_555 1_555
H13_2 C23_2 1_555 1_555
C24_2 C20_2 1_555 1_555
H14_2 C24_2 1_555 1_555
C23_2 C24_2 1_555 1_555
H13_3 C23_3 1_555 1_555
C24_3 C20_3 1_555 1_555
H14_3 C24_3 1_555 1_555
C23_3 C24_3 1_555 1_555
H13_4 C23_4 1_555 1_555
C24_4 C20_4 1_555 1_555
H14_4 C24_4 1_555 1_555
C23_4 C24_4 1_555 1_555

#END
