
###############################################################################
#
# This file contains modified crystal structure data generated from the
# MOF subset of the Cambridge Structural Database (CSD) v543 
# hosted by the Cambridge Crystallographic Data Centre (CCDC).
#
# This work is licensed under the Creative Commons
# Attribution-NonCommercial-ShareAlike 4.0 International License.
# To view a copy of this license, visit
# http://creativecommons.org/licenses/by-nc-sa/4.0/
# or send a letter to
# Creative Commons, PO Box 1866, Mountain View, CA 94042, USA.
#
# CIF created using the CSD Python API on 29 September 2022
# The structure has been converted into the P1 space group
# The structure has a 3D framework
# The original CSD entry XAMHOM03 is in the monoclinic crystal system
# The framework has been calculated to contain at least 10.0% void space
# The void calculation uses a probe of radius 1.32A, grid spacing 0.4
#
###############################################################################

data_XAMHOM03
_chemical_formula_moiety         '(C96 H56 Ag6 Fe4 N24)n'
_symmetry_cell_setting           triclinic
_symmetry_space_group_name_H-M   'P 1'
_symmetry_Int_Tables_number      1
_space_group_name_Hall           'P 1'
loop_
_symmetry_equiv_pos_site_id
_symmetry_equiv_pos_as_xyz
1 x,y,z
_cell_length_a                   15.4729(6)
_cell_length_b                   13.2137(5)
_cell_length_c                   15.8374(6)
_cell_angle_alpha                90
_cell_angle_beta                 97.505(2)
_cell_angle_gamma                90
_cell_volume                     3210.29
loop_
_atom_site_label
_atom_site_type_symbol
_atom_site_fract_x
_atom_site_fract_y
_atom_site_fract_z
N2 N 0.26785(15) 0.49881(18) 0.22150(15)
H7 H 0.0280 0.5802 0.0703
C20 C 0.08526(18) 0.5026(2) 0.22003(18)
C21 C 0.13292(19) 0.4125(2) 0.23202(18)
H11 H 0.1040 0.3505 0.2402
C22 C 0.22265(19) 0.4142(2) 0.23182(18)
H12 H 0.2536 0.3521 0.2394
C23 C 0.22228(18) 0.5857(2) 0.21170(18)
H13 H 0.2532 0.6468 0.2057
C24 C 0.13259(19) 0.5905(2) 0.20990(19)
H14 H 0.1034 0.6537 0.2018
Fe2 Fe 0.39851(2) 0.49988(3) 0.22242(3)
Ag1 Ag 0.40352(2) 0.25787(2) 0.47882(2)
N1 N 0.52865(15) 0.50146(18) 0.22467(15)
N3 N 0.40676(14) 0.61179(18) 0.30479(15)
N4 N 0.40887(15) 0.40238(18) 0.31633(15)
N5 N 0.39245(15) 0.39055(18) 0.13797(15)
N6 N 0.38873(15) 0.59491(19) 0.12592(15)
C1 C 0.41036(19) 0.3473(2) 0.37292(18)
C2 C 0.40820(18) 0.6721(2) 0.35764(18)
C3 C 0.39146(19) 0.6435(2) 0.0658(2)
C4 C 0.39565(18) 0.3360(2) 0.08242(19)
C5 C 0.57132(18) 0.5884(2) 0.21198(18)
H1 H 0.5390 0.6496 0.2053
C6 C 0.65978(18) 0.5917(2) 0.20831(18)
H2 H 0.6870 0.6542 0.1982
C7 C 0.70937(18) 0.5033(2) 0.21937(18)
C8 C 0.66539(18) 0.4141(2) 0.23370(18)
H3 H 0.6966 0.3522 0.2426
C9 C 0.57587(18) 0.4160(2) 0.23497(18)
H4 H 0.5468 0.3543 0.2435
C10 C 0.80533(18) 0.5037(2) 0.21736(19)
C11 C 0.86043(19) 0.4669(2) 0.28572(19)
H5 H 0.8366 0.4412 0.3337
C12 C 0.95151(19) 0.4664(2) 0.2858(2)
H6 H 0.9880 0.4397 0.3335
C13 C 0.98842(18) 0.5043(2) 0.21770(19)
C14 C 0.93366(18) 0.5431(2) 0.14494(19)
C15 C 0.96676(19) 0.5782(2) 0.07096(19)
C16 C 0.9127(2) 0.6093(2) 0.0005(2)
C18 C 0.78664(19) 0.5724(2) 0.06940(19)
H10 H 0.7251 0.5695 0.0677
C19 C 0.84082(19) 0.5418(2) 0.14427(19)
Ag4 Ag 0.40502(2) 0.76910(2) 0.45995(2)
C26 C 0.39565(18) 0.1640(2) 0.58242(19)
Ag2 Ag 0.40502(2) 0.73090(2) 0.95995(2)
H8 H 0.9367 0.6332 0.9521
C17 C 0.82202(19) 0.6061(2) 0.99942(19)
H9 H 0.7849 0.6273 0.9501
Ag3 Ag 0.40352(2) 0.24213(2) 0.97882(2)
C25 C 0.40820(18) 0.8279(2) 0.85764(18)
N2_2 N 0.26785(15) 0.00119(18) 0.72150(15)
C21_2 C 0.13292(19) 0.0875(2) 0.73202(18)
H11_2 H 0.1040 0.1495 0.7402
C22_2 C 0.22265(19) 0.0858(2) 0.73182(18)
H12_2 H 0.2536 0.1479 0.7394
Fe2_2 Fe 0.39851(2) 0.00012(3) 0.72242(3)
N4_2 N 0.40887(15) 0.09762(18) 0.81633(15)
N5_2 N 0.39245(15) 0.10945(18) 0.63797(15)
C1_2 C 0.41036(19) 0.1527(2) 0.87292(18)
C8_2 C 0.66539(18) 0.0859(2) 0.73370(18)
H3_2 H 0.6966 0.1478 0.7426
C9_2 C 0.57587(18) 0.0840(2) 0.73497(18)
H4_2 H 0.5468 0.1457 0.7435
C11_2 C 0.86043(19) 0.0331(2) 0.78572(19)
H5_2 H 0.8366 0.0588 0.8337
C12_2 C 0.95151(19) 0.0336(2) 0.7858(2)
H6_2 H 0.9880 0.0603 0.8335
N1_2 N 0.52865(15) 0.99854(18) 0.72467(15)
N3_2 N 0.40676(14) 0.88821(18) 0.80479(15)
N6_2 N 0.38873(15) 0.90509(19) 0.62592(15)
C3_2 C 0.39146(19) 0.8565(2) 0.5658(2)
C5_2 C 0.57132(18) 0.9116(2) 0.71198(18)
H1_2 H 0.5390 0.8504 0.7053
C6_2 C 0.65978(18) 0.9083(2) 0.70831(18)
H2_2 H 0.6870 0.8458 0.6982
C7_2 C 0.70937(18) 0.9967(2) 0.71937(18)
C10_2 C 0.80533(18) 0.9963(2) 0.71736(19)
C13_2 C 0.98842(18) 0.9957(2) 0.71770(19)
C14_2 C 0.93366(18) 0.9569(2) 0.64494(19)
C15_2 C 0.96676(19) 0.9218(2) 0.57096(19)
C16_2 C 0.9127(2) 0.8907(2) 0.5005(2)
H8_2 H 0.9367 0.8668 0.4521
C17_2 C 0.82202(19) 0.8939(2) 0.49942(19)
H9_2 H 0.7849 0.8727 0.4501
C18_2 C 0.78664(19) 0.9276(2) 0.56940(19)
H10_2 H 0.7251 0.9305 0.5677
C19_2 C 0.84082(19) 0.9582(2) 0.64427(19)
Ag2_2 Ag 0.59498(2) 0.23090(2) 0.54005(2)
N1_3 N 0.47135(15) 0.00146(18) 0.27533(15)
N3_3 N 0.59324(14) 0.11179(18) 0.19521(15)
N6_3 N 0.61127(15) 0.09491(19) 0.37408(15)
C2_2 C 0.59180(18) 0.1721(2) 0.14236(18)
C3_3 C 0.60854(19) 0.1435(2) 0.4342(2)
C5_3 C 0.42868(18) 0.0884(2) 0.28802(18)
H1_3 H 0.4610 0.1496 0.2947
C6_3 C 0.34022(18) 0.0917(2) 0.29169(18)
H2_3 H 0.3130 0.1542 0.3018
C7_3 C 0.29063(18) 0.0033(2) 0.28063(18)
C10_3 C 0.19467(18) 0.0037(2) 0.28264(19)
C13_3 C 0.01158(18) 0.0043(2) 0.28230(19)
C14_3 C 0.06634(18) 0.0431(2) 0.35506(19)
C15_3 C 0.03324(19) 0.0782(2) 0.42904(19)
C16_3 C 0.0873(2) 0.1093(2) 0.4995(2)
H8_3 H 0.0633 0.1332 0.5479
C17_3 C 0.17798(19) 0.1061(2) 0.50058(19)
H9_3 H 0.2151 0.1273 0.5499
C18_3 C 0.21336(19) 0.0724(2) 0.43060(19)
H10_3 H 0.2749 0.0695 0.4323
C19_3 C 0.15918(19) 0.0418(2) 0.35573(19)
Ag4_2 Ag 0.59498(2) 0.26910(2) 0.04005(2)
C25_2 C 0.59180(18) 0.3279(2) 0.64236(18)
Ag1_2 Ag 0.59648(2) 0.75787(2) 0.02118(2)
Fe1 Fe 0.60149(2) 0.99988(3) 0.27758(3)
N4_3 N 0.59113(15) 0.90238(18) 0.18367(15)
N5_3 N 0.60755(15) 0.89055(18) 0.36203(15)
C1_3 C 0.58964(19) 0.8473(2) 0.12708(18)
C4_2 C 0.60435(18) 0.8360(2) 0.41758(19)
C8_3 C 0.33461(18) 0.9141(2) 0.26630(18)
H3_3 H 0.3034 0.8522 0.2574
C9_3 C 0.42413(18) 0.9160(2) 0.26503(18)
H4_3 H 0.4532 0.8543 0.2565
C11_3 C 0.13957(19) 0.9669(2) 0.21428(19)
H5_3 H 0.1634 0.9412 0.1663
C12_3 C 0.04849(19) 0.9664(2) 0.2142(2)
H6_3 H 0.0120 0.9397 0.1665
Ag3_2 Ag 0.59648(2) 0.74213(2) 0.52118(2)
N7 N 0.73215(15) 0.99881(18) 0.27850(15)
C26_2 C 0.60435(18) 0.6640(2) 0.91758(19)
C21_3 C 0.86708(19) 0.9125(2) 0.26798(18)
H11_3 H 0.8960 0.8505 0.2598
C22_3 C 0.77735(19) 0.9142(2) 0.26818(18)
H12_3 H 0.7464 0.8521 0.2606
H8_4 H 0.0633 0.3668 0.0479
C17_4 C 0.17798(19) 0.3939(2) 0.00058(19)
H9_4 H 0.2151 0.3727 0.0499
Fe1_2 Fe 0.60149(2) 0.50012(3) 0.77758(3)
N1_4 N 0.47135(15) 0.49854(18) 0.77533(15)
N3_4 N 0.59324(14) 0.38821(18) 0.69521(15)
N4_4 N 0.59113(15) 0.59762(18) 0.68367(15)
N5_4 N 0.60755(15) 0.60945(18) 0.86203(15)
N6_4 N 0.61127(15) 0.40509(19) 0.87408(15)
C1_4 C 0.58964(19) 0.6527(2) 0.62708(18)
C3_4 C 0.60854(19) 0.3565(2) 0.9342(2)
C5_4 C 0.42868(18) 0.4116(2) 0.78802(18)
H1_4 H 0.4610 0.3504 0.7947
C6_4 C 0.34022(18) 0.4083(2) 0.79169(18)
H2_4 H 0.3130 0.3458 0.8018
C7_4 C 0.29063(18) 0.4967(2) 0.78063(18)
C8_4 C 0.33461(18) 0.5859(2) 0.76630(18)
H3_4 H 0.3034 0.6478 0.7574
C9_4 C 0.42413(18) 0.5840(2) 0.76503(18)
H4_4 H 0.4532 0.6457 0.7565
C10_4 C 0.19467(18) 0.4963(2) 0.78264(19)
C11_4 C 0.13957(19) 0.5331(2) 0.71428(19)
H5_4 H 0.1634 0.5588 0.6663
C12_4 C 0.04849(19) 0.5336(2) 0.7142(2)
H6_4 H 0.0120 0.5603 0.6665
C13_4 C 0.01158(18) 0.4957(2) 0.78230(19)
C14_4 C 0.06634(18) 0.4569(2) 0.85506(19)
C15_4 C 0.03324(19) 0.4218(2) 0.92904(19)
C16_4 C 0.0873(2) 0.3907(2) 0.9995(2)
C18_4 C 0.21336(19) 0.4276(2) 0.93060(19)
H10_4 H 0.2749 0.4305 0.9323
C19_4 C 0.15918(19) 0.4582(2) 0.85573(19)
N7_2 N 0.73215(15) 0.50119(18) 0.77850(15)
H7_2 H 0.9720 0.4198 0.9297
C20_2 C 0.91474(18) 0.4974(2) 0.77997(18)
C21_4 C 0.86708(19) 0.5875(2) 0.76798(18)
H11_4 H 0.8960 0.6495 0.7598
C22_4 C 0.77735(19) 0.5858(2) 0.76818(18)
H12_4 H 0.7464 0.6479 0.7606
C23_2 C 0.77772(18) 0.4143(2) 0.78830(18)
H13_2 H 0.7468 0.3532 0.7943
C24_2 C 0.86741(19) 0.4095(2) 0.79010(19)
H14_2 H 0.8966 0.3463 0.7982
H7_3 H 0.9720 0.0802 0.4297
C20_3 C 0.91474(18) 0.0026(2) 0.27997(18)
C23_3 C 0.77772(18) 0.0857(2) 0.28830(18)
H13_3 H 0.7468 0.1468 0.2943
C24_3 C 0.86741(19) 0.0905(2) 0.29010(19)
H14_3 H 0.8966 0.1537 0.2982
H7_4 H 0.0280 0.9198 0.5703
C20_4 C 0.08526(18) 0.9974(2) 0.72003(18)
C23_4 C 0.22228(18) 0.9143(2) 0.71170(18)
H13_4 H 0.2532 0.8532 0.7057
C24_4 C 0.13259(19) 0.9095(2) 0.70990(19)
H14_4 H 0.1034 0.8463 0.7018
loop_
_geom_bond_atom_site_label_1
_geom_bond_atom_site_label_2
_geom_bond_site_symmetry_1
_geom_bond_site_symmetry_2
N2 C22 1_555 1_555
C21 C20 1_555 1_555
H11 C21 1_555 1_555
C22 C21 1_555 1_555
H12 C22 1_555 1_555
C23 N2 1_555 1_555
H13 C23 1_555 1_555
C24 C20 1_555 1_555
H14 C24 1_555 1_555
Fe2 N2 1_555 1_555
C23 C24 1_555 1_555
Ag1 C1 1_555 1_555
Fe2 N1 1_555 1_555
N1 C5 1_555 1_555
N3 Fe2 1_555 1_555
N4 Fe2 1_555 1_555
N5 Fe2 1_555 1_555
N6 Fe2 1_555 1_555
C1 N4 1_555 1_555
C2 N3 1_555 1_555
C3 N6 1_555 1_555
C4 N5 1_555 1_555
C5 H1 1_555 1_555
C6 C5 1_555 1_555
H2 C6 1_555 1_555
C7 C6 1_555 1_555
C8 C7 1_555 1_555
H3 C8 1_555 1_555
C9 N1 1_555 1_555
H4 C9 1_555 1_555
C10 C7 1_555 1_555
C11 C10 1_555 1_555
H5 C11 1_555 1_555
C12 C11 1_555 1_555
H6 C12 1_555 1_555
C13 C12 1_555 1_555
C14 C13 1_555 1_555
C15 C14 1_555 1_555
C16 C15 1_555 1_555
H10 C18 1_555 1_555
C19 C10 1_555 1_555
Ag4 C2 1_555 1_555
C26 Ag1 1_555 1_555
C8 C9 1_555 1_555
C14 C19 1_555 1_555
C18 C19 1_555 1_555
H9 C17 1_555 1_555
C25 Ag2 1_555 1_555
N2_2 C22_2 1_555 1_555
H11_2 C21_2 1_555 1_555
C22_2 C21_2 1_555 1_555
H12_2 C22_2 1_555 1_555
Fe2_2 N2_2 1_555 1_555
Ag3 C1_2 1_555 1_555
N4_2 Fe2_2 1_555 1_555
N5_2 Fe2_2 1_555 1_555
C1_2 N4_2 1_555 1_555
C26 N5_2 1_555 1_555
H3_2 C8_2 1_555 1_555
H4_2 C9_2 1_555 1_555
H5_2 C11_2 1_555 1_555
C12_2 C11_2 1_555 1_555
H6_2 C12_2 1_555 1_555
C8_2 C9_2 1_555 1_555
Ag4 C3_2 1_555 1_555
N1_2 C5_2 1_555 1_555
C25 N3_2 1_555 1_555
C3_2 N6_2 1_555 1_555
C5_2 H1_2 1_555 1_555
C6_2 C5_2 1_555 1_555
H2_2 C6_2 1_555 1_555
C7_2 C6_2 1_555 1_555
C10_2 C7_2 1_555 1_555
C14_2 C13_2 1_555 1_555
C15_2 C14_2 1_555 1_555
C16_2 C15_2 1_555 1_555
H8_2 C16_2 1_555 1_555
C17_2 C16_2 1_555 1_555
H9_2 C17_2 1_555 1_555
C18_2 C17_2 1_555 1_555
H10_2 C18_2 1_555 1_555
C19_2 C10_2 1_555 1_555
C14_2 C19_2 1_555 1_555
C18_2 C19_2 1_555 1_555
Ag2_2 C3_3 1_555 1_555
N1_3 C5_3 1_555 1_555
C2_2 N3_3 1_555 1_555
C3_3 N6_3 1_555 1_555
C5_3 H1_3 1_555 1_555
C6_3 C5_3 1_555 1_555
H2_3 C6_3 1_555 1_555
C7_3 C6_3 1_555 1_555
C10_3 C7_3 1_555 1_555
C14_3 C13_3 1_555 1_555
C15_3 C14_3 1_555 1_555
C16_3 C15_3 1_555 1_555
H8_3 C16_3 1_555 1_555
C17_3 C16_3 1_555 1_555
H9_3 C17_3 1_555 1_555
C18_3 C17_3 1_555 1_555
H10_3 C18_3 1_555 1_555
C19_3 C10_3 1_555 1_555
Ag4_2 C2_2 1_555 1_555
C25_2 Ag2_2 1_555 1_555
C14_3 C19_3 1_555 1_555
C18_3 C19_3 1_555 1_555
Ag1_2 C1_3 1_555 1_555
N4_3 Fe1 1_555 1_555
N5_3 Fe1 1_555 1_555
C1_3 N4_3 1_555 1_555
C4_2 N5_3 1_555 1_555
H3_3 C8_3 1_555 1_555
H4_3 C9_3 1_555 1_555
H5_3 C11_3 1_555 1_555
C12_3 C11_3 1_555 1_555
H6_3 C12_3 1_555 1_555
Ag3_2 C4_2 1_555 1_555
N7 Fe1 1_555 1_555
C8_3 C9_3 1_555 1_555
N7 C22_3 1_555 1_555
H11_3 C21_3 1_555 1_555
C22_3 C21_3 1_555 1_555
H12_3 C22_3 1_555 1_555
H9_4 C17_4 1_555 1_555
Ag3_2 C1_4 1_555 1_555
Fe1_2 N1_4 1_555 1_555
N1_4 C5_4 1_555 1_555
N3_4 Fe1_2 1_555 1_555
N4_4 Fe1_2 1_555 1_555
N5_4 Fe1_2 1_555 1_555
N6_4 Fe1_2 1_555 1_555
C1_4 N4_4 1_555 1_555
C25_2 N3_4 1_555 1_555
C3_4 N6_4 1_555 1_555
C26_2 N5_4 1_555 1_555
C5_4 H1_4 1_555 1_555
C6_4 C5_4 1_555 1_555
H2_4 C6_4 1_555 1_555
C7_4 C6_4 1_555 1_555
C8_4 C7_4 1_555 1_555
H3_4 C8_4 1_555 1_555
C9_4 N1_4 1_555 1_555
H4_4 C9_4 1_555 1_555
C10_4 C7_4 1_555 1_555
C11_4 C10_4 1_555 1_555
H5_4 C11_4 1_555 1_555
C12_4 C11_4 1_555 1_555
H6_4 C12_4 1_555 1_555
C13_4 C12_4 1_555 1_555
C14_4 C13_4 1_555 1_555
C15_4 C14_4 1_555 1_555
C16_4 C15_4 1_555 1_555
H10_4 C18_4 1_555 1_555
C19_4 C10_4 1_555 1_555
N7_2 Fe1_2 1_555 1_555
C8_4 C9_4 1_555 1_555
C14_4 C19_4 1_555 1_555
C18_4 C19_4 1_555 1_555
N7_2 C22_4 1_555 1_555
C21_4 C20_2 1_555 1_555
H11_4 C21_4 1_555 1_555
C22_4 C21_4 1_555 1_555
H12_4 C22_4 1_555 1_555
C23_2 N7_2 1_555 1_555
H13_2 C23_2 1_555 1_555
C24_2 C20_2 1_555 1_555
H14_2 C24_2 1_555 1_555
C23_2 C24_2 1_555 1_555
H13_3 C23_3 1_555 1_555
C24_3 C20_3 1_555 1_555
H14_3 C24_3 1_555 1_555
C23_3 C24_3 1_555 1_555
H13_4 C23_4 1_555 1_555
C24_4 C20_4 1_555 1_555
H14_4 C24_4 1_555 1_555
C23_4 C24_4 1_555 1_555

#END
