
###############################################################################
#
# This file contains modified crystal structure data generated from the
# MOF subset of the Cambridge Structural Database (CSD) v543 
# hosted by the Cambridge Crystallographic Data Centre (CCDC).
#
# This work is licensed under the Creative Commons
# Attribution-NonCommercial-ShareAlike 4.0 International License.
# To view a copy of this license, visit
# http://creativecommons.org/licenses/by-nc-sa/4.0/
# or send a letter to
# Creative Commons, PO Box 1866, Mountain View, CA 94042, USA.
#
# CIF created using the CSD Python API on 29 September 2022
# The structure has been converted into the P1 space group
# The structure has a 3D framework
# The original CSD entry XAMHOM01 is in the monoclinic crystal system
# The framework has been calculated to contain at least 10.0% void space
# The void calculation uses a probe of radius 1.32A, grid spacing 0.4
#
###############################################################################

data_XAMHOM01
_chemical_formula_moiety         '(C96 H56 Ag6 Fe4 N24)n'
_symmetry_cell_setting           triclinic
_symmetry_space_group_name_H-M   'P 1'
_symmetry_Int_Tables_number      1
_space_group_name_Hall           'P 1'
loop_
_symmetry_equiv_pos_site_id
_symmetry_equiv_pos_as_xyz
1 x,y,z
_cell_length_a                   15.6887(7)
_cell_length_b                   13.1612(7)
_cell_length_c                   16.3715(8)
_cell_angle_alpha                90
_cell_angle_beta                 98.867(2)
_cell_angle_gamma                90
_cell_volume                     3340.02
loop_
_atom_site_label
_atom_site_type_symbol
_atom_site_fract_x
_atom_site_fract_y
_atom_site_fract_z
N2 N 0.26178(15) 0.49880(18) 0.22272(15)
H7 H 0.0223 0.5757 0.0722
C20 C 0.08197(19) 0.5028(2) 0.21913(19)
C21 C 0.1288(2) 0.4133(3) 0.2320(2)
H11 H 0.1004 0.3513 0.2403
C22 C 0.2170(2) 0.4147(2) 0.2326(2)
H12 H 0.2475 0.3522 0.2406
C23 C 0.2170(2) 0.5853(2) 0.21192(19)
H13 H 0.2474 0.6464 0.2056
C24 C 0.1286(2) 0.5906(3) 0.2095(2)
H14 H 0.0999 0.6541 0.2012
Fe2 Fe 0.39873(2) 0.49988(3) 0.22381(2)
Ag1 Ag 0.40451(2) 0.25803(2) 0.48027(2)
N1 N 0.53462(15) 0.50253(17) 0.22663(14)
N3 N 0.40796(15) 0.61998(19) 0.30784(15)
N4 N 0.41182(16) 0.39610(19) 0.32009(16)
N5 N 0.39178(15) 0.3833(2) 0.13771(16)
N6 N 0.38563(16) 0.6011(2) 0.12435(16)
C1 C 0.41144(19) 0.3439(2) 0.3759(2)
C2 C 0.40833(19) 0.6770(2) 0.3608(2)
C3 C 0.3894(2) 0.6467(3) 0.0658(2)
C4 C 0.3960(2) 0.3323(2) 0.0822(2)
C5 C 0.57621(19) 0.5889(2) 0.21258(18)
H1 H 0.5442 0.6504 0.2056
C6 C 0.66307(19) 0.5918(2) 0.20788(19)
H2 H 0.6895 0.6543 0.1970
C7 C 0.71201(19) 0.5037(2) 0.21901(19)
C8 C 0.66922(19) 0.4151(2) 0.23467(19)
H3 H 0.7002 0.3531 0.2437
C9 C 0.5816(2) 0.4170(2) 0.23705(19)
H4 H 0.5534 0.3552 0.2465
C10 C 0.80638(19) 0.5037(2) 0.2161(2)
C11 C 0.8624(2) 0.4682(3) 0.2825(2)
H5 H 0.8401 0.4430 0.3293
C12 C 0.9518(2) 0.4683(3) 0.2829(2)
H6 H 0.9890 0.4432 0.3299
C13 C 0.9862(2) 0.5038(2) 0.2168(2)
C14 C 0.9308(2) 0.5407(2) 0.14538(19)
C15 C 0.9619(2) 0.5737(2) 0.0728(2)
C16 C 0.9069(2) 0.6027(3) 0.0043(2)
C17 C 0.8179(2) 0.5993(3) 0.0030(2)
C18 C 0.7848(2) 0.5689(3) 0.0711(2)
H10 H 0.7240 0.5672 0.0694
C19 C 0.8396(2) 0.5394(2) 0.14496(19)
Ag4 Ag 0.40342(2) 0.76914(2) 0.46196(2)
C26 C 0.3960(2) 0.1677(2) 0.5822(2)
Ag2 Ag 0.40342(2) 0.73086(2) 0.96196(2)
H8 H 0.9294 0.6255 0.9568
H9 H 0.7802 0.6184 0.9544
Ag3 Ag 0.40451(2) 0.24197(2) 0.98027(2)
C25 C 0.40833(19) 0.8230(2) 0.8608(2)
N2_2 N 0.26178(15) 0.00120(18) 0.72272(15)
C21_2 C 0.1288(2) 0.0867(3) 0.7320(2)
H11_2 H 0.1004 0.1487 0.7403
C22_2 C 0.2170(2) 0.0853(2) 0.7326(2)
H12_2 H 0.2475 0.1478 0.7406
Fe2_2 Fe 0.39873(2) 0.00012(3) 0.72381(2)
N4_2 N 0.41182(16) 0.10390(19) 0.82009(16)
N5_2 N 0.39178(15) 0.1167(2) 0.63771(16)
C1_2 C 0.41144(19) 0.1561(2) 0.8759(2)
C8_2 C 0.66922(19) 0.0849(2) 0.73467(19)
H3_2 H 0.7002 0.1469 0.7437
C9_2 C 0.5816(2) 0.0830(2) 0.73705(19)
H4_2 H 0.5534 0.1448 0.7465
C11_2 C 0.8624(2) 0.0318(3) 0.7825(2)
H5_2 H 0.8401 0.0570 0.8293
C12_2 C 0.9518(2) 0.0317(3) 0.7829(2)
H6_2 H 0.9890 0.0568 0.8299
N1_2 N 0.53462(15) 0.99747(17) 0.72663(14)
N3_2 N 0.40796(15) 0.88002(19) 0.80784(15)
N6_2 N 0.38563(16) 0.8989(2) 0.62435(16)
C3_2 C 0.3894(2) 0.8533(3) 0.5658(2)
C5_2 C 0.57621(19) 0.9111(2) 0.71258(18)
H1_2 H 0.5442 0.8496 0.7056
C6_2 C 0.66307(19) 0.9082(2) 0.70788(19)
H2_2 H 0.6895 0.8457 0.6970
C7_2 C 0.71201(19) 0.9963(2) 0.71901(19)
C10_2 C 0.80638(19) 0.9963(2) 0.7161(2)
C13_2 C 0.9862(2) 0.9962(2) 0.7168(2)
C14_2 C 0.9308(2) 0.9593(2) 0.64538(19)
C15_2 C 0.9619(2) 0.9263(2) 0.5728(2)
C16_2 C 0.9069(2) 0.8973(3) 0.5043(2)
H8_2 H 0.9294 0.8745 0.4568
C17_2 C 0.8179(2) 0.9007(3) 0.5030(2)
H9_2 H 0.7802 0.8816 0.4544
C18_2 C 0.7848(2) 0.9311(3) 0.5711(2)
H10_2 H 0.7240 0.9328 0.5694
C19_2 C 0.8396(2) 0.9606(2) 0.64496(19)
Ag2_2 Ag 0.59658(2) 0.23086(2) 0.53804(2)
N1_3 N 0.46538(15) 0.00253(17) 0.27337(14)
N3_3 N 0.59204(15) 0.11998(19) 0.19216(15)
N6_3 N 0.61437(16) 0.1011(2) 0.37565(16)
C2_2 C 0.59167(19) 0.1770(2) 0.1392(2)
C3_3 C 0.6106(2) 0.1467(3) 0.4342(2)
C5_3 C 0.42379(19) 0.0889(2) 0.28742(18)
H1_3 H 0.4558 0.1504 0.2944
C6_3 C 0.33693(19) 0.0918(2) 0.29212(19)
H2_3 H 0.3105 0.1543 0.3030
C7_3 C 0.28799(19) 0.0037(2) 0.28099(19)
C10_3 C 0.19362(19) 0.0037(2) 0.2839(2)
C13_3 C 0.0138(2) 0.0038(2) 0.2832(2)
C14_3 C 0.0692(2) 0.0407(2) 0.35462(19)
C15_3 C 0.0381(2) 0.0737(2) 0.4272(2)
C16_3 C 0.0931(2) 0.1027(3) 0.4957(2)
H8_3 H 0.0706 0.1255 0.5432
C17_3 C 0.1821(2) 0.0993(3) 0.4970(2)
H9_3 H 0.2198 0.1184 0.5456
C18_3 C 0.2152(2) 0.0689(3) 0.4289(2)
H10_3 H 0.2760 0.0672 0.4306
C19_3 C 0.1604(2) 0.0394(2) 0.35504(19)
Ag4_2 Ag 0.59658(2) 0.26914(2) 0.03804(2)
C25_2 C 0.59167(19) 0.3230(2) 0.6392(2)
Ag1_2 Ag 0.59549(2) 0.75803(2) 0.01973(2)
Fe1 Fe 0.60127(2) 0.99988(3) 0.27619(2)
N4_3 N 0.58818(16) 0.89610(19) 0.17991(16)
N5_3 N 0.60822(15) 0.8833(2) 0.36229(16)
C1_3 C 0.58856(19) 0.8439(2) 0.1241(2)
C4_2 C 0.6040(2) 0.8323(2) 0.4178(2)
C8_3 C 0.33078(19) 0.9151(2) 0.26533(19)
H3_3 H 0.2998 0.8531 0.2563
C9_3 C 0.4184(2) 0.9170(2) 0.26295(19)
H4_3 H 0.4466 0.8552 0.2535
C11_3 C 0.1376(2) 0.9682(3) 0.2175(2)
H5_3 H 0.1599 0.9430 0.1707
C12_3 C 0.0482(2) 0.9683(3) 0.2171(2)
H6_3 H 0.0110 0.9432 0.1701
Ag3_2 Ag 0.59549(2) 0.74197(2) 0.51973(2)
N7 N 0.73822(15) 0.99880(18) 0.27728(15)
C26_2 C 0.6040(2) 0.6677(2) 0.9178(2)
C21_3 C 0.8712(2) 0.9133(3) 0.2680(2)
H11_3 H 0.8996 0.8513 0.2597
C22_3 C 0.7830(2) 0.9147(2) 0.2674(2)
H12_3 H 0.7525 0.8522 0.2594
H8_4 H 0.0706 0.3745 0.0432
H9_4 H 0.2198 0.3816 0.0456
Fe1_2 Fe 0.60127(2) 0.50012(3) 0.77619(2)
N1_4 N 0.46538(15) 0.49747(17) 0.77337(14)
N3_4 N 0.59204(15) 0.38002(19) 0.69216(15)
N4_4 N 0.58818(16) 0.60390(19) 0.67991(16)
N5_4 N 0.60822(15) 0.6167(2) 0.86229(16)
N6_4 N 0.61437(16) 0.3989(2) 0.87565(16)
C1_4 C 0.58856(19) 0.6561(2) 0.6241(2)
C3_4 C 0.6106(2) 0.3533(3) 0.9342(2)
C5_4 C 0.42379(19) 0.4111(2) 0.78742(18)
H1_4 H 0.4558 0.3496 0.7944
C6_4 C 0.33693(19) 0.4082(2) 0.79212(19)
H2_4 H 0.3105 0.3457 0.8030
C7_4 C 0.28799(19) 0.4963(2) 0.78099(19)
C8_4 C 0.33078(19) 0.5849(2) 0.76533(19)
H3_4 H 0.2998 0.6469 0.7563
C9_4 C 0.4184(2) 0.5830(2) 0.76295(19)
H4_4 H 0.4466 0.6448 0.7535
C10_4 C 0.19362(19) 0.4963(2) 0.7839(2)
C11_4 C 0.1376(2) 0.5318(3) 0.7175(2)
H5_4 H 0.1599 0.5570 0.6707
C12_4 C 0.0482(2) 0.5317(3) 0.7171(2)
H6_4 H 0.0110 0.5568 0.6701
C13_4 C 0.0138(2) 0.4962(2) 0.7832(2)
C14_4 C 0.0692(2) 0.4593(2) 0.85462(19)
C15_4 C 0.0381(2) 0.4263(2) 0.9272(2)
C16_4 C 0.0931(2) 0.3973(3) 0.9957(2)
C17_4 C 0.1821(2) 0.4007(3) 0.9970(2)
C18_4 C 0.2152(2) 0.4311(3) 0.9289(2)
H10_4 H 0.2760 0.4328 0.9306
C19_4 C 0.1604(2) 0.4606(2) 0.85504(19)
N7_2 N 0.73822(15) 0.50120(18) 0.77728(15)
H7_2 H 0.9777 0.4243 0.9278
C20_2 C 0.91803(19) 0.4972(2) 0.78087(19)
C21_4 C 0.8712(2) 0.5867(3) 0.7680(2)
H11_4 H 0.8996 0.6487 0.7597
C22_4 C 0.7830(2) 0.5853(2) 0.7674(2)
H12_4 H 0.7525 0.6478 0.7594
C23_2 C 0.7830(2) 0.4147(2) 0.78808(19)
H13_2 H 0.7526 0.3536 0.7944
C24_2 C 0.8714(2) 0.4094(3) 0.7905(2)
H14_2 H 0.9001 0.3459 0.7988
H7_3 H 0.9777 0.0757 0.4278
C20_3 C 0.91803(19) 0.0028(2) 0.28087(19)
C23_3 C 0.7830(2) 0.0853(2) 0.28808(19)
H13_3 H 0.7526 0.1464 0.2944
C24_3 C 0.8714(2) 0.0906(3) 0.2905(2)
H14_3 H 0.9001 0.1541 0.2988
H7_4 H 0.0223 0.9243 0.5722
C20_4 C 0.08197(19) 0.9972(2) 0.71913(19)
C23_4 C 0.2170(2) 0.9147(2) 0.71192(19)
H13_4 H 0.2474 0.8536 0.7056
C24_4 C 0.1286(2) 0.9094(3) 0.7095(2)
H14_4 H 0.0999 0.8459 0.7012
loop_
_geom_bond_atom_site_label_1
_geom_bond_atom_site_label_2
_geom_bond_site_symmetry_1
_geom_bond_site_symmetry_2
N2 C22 1_555 1_555
C21 C20 1_555 1_555
H11 C21 1_555 1_555
C22 C21 1_555 1_555
H12 C22 1_555 1_555
C23 N2 1_555 1_555
H13 C23 1_555 1_555
C24 C20 1_555 1_555
H14 C24 1_555 1_555
Fe2 N2 1_555 1_555
C23 C24 1_555 1_555
Ag1 C1 1_555 1_555
Fe2 N1 1_555 1_555
N1 C5 1_555 1_555
N3 Fe2 1_555 1_555
N4 Fe2 1_555 1_555
N5 Fe2 1_555 1_555
N6 Fe2 1_555 1_555
C1 N4 1_555 1_555
C2 N3 1_555 1_555
C3 N6 1_555 1_555
C4 N5 1_555 1_555
C5 H1 1_555 1_555
C6 C5 1_555 1_555
H2 C6 1_555 1_555
C7 C6 1_555 1_555
C8 C7 1_555 1_555
H3 C8 1_555 1_555
C9 N1 1_555 1_555
H4 C9 1_555 1_555
C10 C7 1_555 1_555
C11 C10 1_555 1_555
H5 C11 1_555 1_555
C12 C11 1_555 1_555
H6 C12 1_555 1_555
C13 C12 1_555 1_555
C14 C13 1_555 1_555
C15 C14 1_555 1_555
C16 C15 1_555 1_555
C17 C16 1_555 1_555
C18 C17 1_555 1_555
H10 C18 1_555 1_555
C19 C10 1_555 1_555
Ag4 C2 1_555 1_555
C26 Ag1 1_555 1_555
C8 C9 1_555 1_555
C14 C19 1_555 1_555
C18 C19 1_555 1_555
C25 Ag2 1_555 1_555
N2_2 C22_2 1_555 1_555
H11_2 C21_2 1_555 1_555
C22_2 C21_2 1_555 1_555
H12_2 C22_2 1_555 1_555
Fe2_2 N2_2 1_555 1_555
Ag3 C1_2 1_555 1_555
N4_2 Fe2_2 1_555 1_555
N5_2 Fe2_2 1_555 1_555
C1_2 N4_2 1_555 1_555
C26 N5_2 1_555 1_555
H3_2 C8_2 1_555 1_555
H4_2 C9_2 1_555 1_555
H5_2 C11_2 1_555 1_555
C12_2 C11_2 1_555 1_555
H6_2 C12_2 1_555 1_555
C8_2 C9_2 1_555 1_555
Ag4 C3_2 1_555 1_555
N1_2 C5_2 1_555 1_555
C25 N3_2 1_555 1_555
C3_2 N6_2 1_555 1_555
C5_2 H1_2 1_555 1_555
C6_2 C5_2 1_555 1_555
H2_2 C6_2 1_555 1_555
C7_2 C6_2 1_555 1_555
C10_2 C7_2 1_555 1_555
C14_2 C13_2 1_555 1_555
C15_2 C14_2 1_555 1_555
C16_2 C15_2 1_555 1_555
H8_2 C16_2 1_555 1_555
C17_2 C16_2 1_555 1_555
H9_2 C17_2 1_555 1_555
C18_2 C17_2 1_555 1_555
H10_2 C18_2 1_555 1_555
C19_2 C10_2 1_555 1_555
C14_2 C19_2 1_555 1_555
C18_2 C19_2 1_555 1_555
Ag2_2 C3_3 1_555 1_555
N1_3 C5_3 1_555 1_555
C2_2 N3_3 1_555 1_555
C3_3 N6_3 1_555 1_555
C5_3 H1_3 1_555 1_555
C6_3 C5_3 1_555 1_555
H2_3 C6_3 1_555 1_555
C7_3 C6_3 1_555 1_555
C10_3 C7_3 1_555 1_555
C14_3 C13_3 1_555 1_555
C15_3 C14_3 1_555 1_555
C16_3 C15_3 1_555 1_555
H8_3 C16_3 1_555 1_555
C17_3 C16_3 1_555 1_555
H9_3 C17_3 1_555 1_555
C18_3 C17_3 1_555 1_555
H10_3 C18_3 1_555 1_555
C19_3 C10_3 1_555 1_555
Ag4_2 C2_2 1_555 1_555
C25_2 Ag2_2 1_555 1_555
C14_3 C19_3 1_555 1_555
C18_3 C19_3 1_555 1_555
Ag1_2 C1_3 1_555 1_555
N4_3 Fe1 1_555 1_555
N5_3 Fe1 1_555 1_555
C1_3 N4_3 1_555 1_555
C4_2 N5_3 1_555 1_555
H3_3 C8_3 1_555 1_555
H4_3 C9_3 1_555 1_555
H5_3 C11_3 1_555 1_555
C12_3 C11_3 1_555 1_555
H6_3 C12_3 1_555 1_555
Ag3_2 C4_2 1_555 1_555
N7 Fe1 1_555 1_555
C8_3 C9_3 1_555 1_555
N7 C22_3 1_555 1_555
H11_3 C21_3 1_555 1_555
C22_3 C21_3 1_555 1_555
H12_3 C22_3 1_555 1_555
Ag3_2 C1_4 1_555 1_555
Fe1_2 N1_4 1_555 1_555
N1_4 C5_4 1_555 1_555
N3_4 Fe1_2 1_555 1_555
N4_4 Fe1_2 1_555 1_555
N5_4 Fe1_2 1_555 1_555
N6_4 Fe1_2 1_555 1_555
C1_4 N4_4 1_555 1_555
C25_2 N3_4 1_555 1_555
C3_4 N6_4 1_555 1_555
C26_2 N5_4 1_555 1_555
C5_4 H1_4 1_555 1_555
C6_4 C5_4 1_555 1_555
H2_4 C6_4 1_555 1_555
C7_4 C6_4 1_555 1_555
C8_4 C7_4 1_555 1_555
H3_4 C8_4 1_555 1_555
C9_4 N1_4 1_555 1_555
H4_4 C9_4 1_555 1_555
C10_4 C7_4 1_555 1_555
C11_4 C10_4 1_555 1_555
H5_4 C11_4 1_555 1_555
C12_4 C11_4 1_555 1_555
H6_4 C12_4 1_555 1_555
C13_4 C12_4 1_555 1_555
C14_4 C13_4 1_555 1_555
C15_4 C14_4 1_555 1_555
C16_4 C15_4 1_555 1_555
C17_4 C16_4 1_555 1_555
C18_4 C17_4 1_555 1_555
H10_4 C18_4 1_555 1_555
C19_4 C10_4 1_555 1_555
N7_2 Fe1_2 1_555 1_555
C8_4 C9_4 1_555 1_555
C14_4 C19_4 1_555 1_555
C18_4 C19_4 1_555 1_555
N7_2 C22_4 1_555 1_555
C21_4 C20_2 1_555 1_555
H11_4 C21_4 1_555 1_555
C22_4 C21_4 1_555 1_555
H12_4 C22_4 1_555 1_555
C23_2 N7_2 1_555 1_555
H13_2 C23_2 1_555 1_555
C24_2 C20_2 1_555 1_555
H14_2 C24_2 1_555 1_555
C23_2 C24_2 1_555 1_555
H13_3 C23_3 1_555 1_555
C24_3 C20_3 1_555 1_555
H14_3 C24_3 1_555 1_555
C23_3 C24_3 1_555 1_555
H13_4 C23_4 1_555 1_555
C24_4 C20_4 1_555 1_555
H14_4 C24_4 1_555 1_555
C23_4 C24_4 1_555 1_555

#END
