
###############################################################################
#
# This file contains modified crystal structure data generated from the
# MOF subset of the Cambridge Structural Database (CSD) v543 
# hosted by the Cambridge Crystallographic Data Centre (CCDC).
#
# This work is licensed under the Creative Commons
# Attribution-NonCommercial-ShareAlike 4.0 International License.
# To view a copy of this license, visit
# http://creativecommons.org/licenses/by-nc-sa/4.0/
# or send a letter to
# Creative Commons, PO Box 1866, Mountain View, CA 94042, USA.
#
# CIF created using the CSD Python API on 29 September 2022
# The structure has been converted into the P1 space group
# The structure has a 3D framework
# The original CSD entry XANDAU is in the monoclinic crystal system
# The framework has been calculated to contain at least 10.0% void space
# The void calculation uses a probe of radius 1.32A, grid spacing 0.4
# H atom positions have been added when not included in the experimental data
# Generated hydrogen atom positions removed from atoms on special positions
#
###############################################################################

data_XANDAU
_chemical_formula_moiety         '(C120 H144 La8 O60)n'
_symmetry_cell_setting           triclinic
_symmetry_space_group_name_H-M   'P 1'
_symmetry_Int_Tables_number      1
_space_group_name_Hall           'P 1'
loop_
_symmetry_equiv_pos_site_id
_symmetry_equiv_pos_as_xyz
1 x,y,z
_cell_length_a                   28.1295(5)
_cell_length_b                   15.2305(3)
_cell_length_c                   8.76070(10)
_cell_angle_alpha                90
_cell_angle_beta                 98.8350(10)
_cell_angle_gamma                90
_cell_volume                     3708.78
loop_
_atom_site_label
_atom_site_type_symbol
_atom_site_fract_x
_atom_site_fract_y
_atom_site_fract_z
La1 La 0.16754(2) 0.01363(2) 0.64202(2)
O1 O 0.28678(9) 0.47302(16) 0.6020(2)
O3 O 0.24528(9) 0.42920(17) 0.3828(2)
O7 O 0.16061(10) 0.17468(18) 0.5375(3)
O8 O 0.18060(11) 0.16019(18) 0.7881(3)
C1 C 0.13347(14) 0.3547(3) 0.5612(4)
C4 C 0.15587(13) 0.4267(3) 0.5112(4)
C5 C 0.24689(12) 0.4520(2) 0.5199(3)
C6 C 0.16613(13) 0.2067(3) 0.6716(4)
C8 C 0.1323(2) 0.4727(3) 0.3842(6)
H3 H 0.1464 0.5235 0.3529
C9 C 0.20156(18) 0.4646(4) 0.5926(6)
H4 H 0.2074 0.4396 0.6957
H5 H 0.1967 0.5271 0.604
C10 C 0.1539(2) 0.3007(3) 0.7018(5)
H6 H 0.1828 0.3295 0.7526
H7 H 0.1308 0.3011 0.7734
C11 C 0.08975(19) 0.3290(5) 0.4830(7)
H8 H 0.0746 0.28 0.5168
C13 C 0.0678(2) 0.3741(7) 0.3556(9)
H10 H 0.0382 0.3554 0.3044
C15 C 0.0891(2) 0.4460(5) 0.3038(7)
H12 H 0.0748 0.476 0.2163
La4 La 0.33246(2) 0.51363(2) 0.85798(2)
La7 La 0.33246(2) 0.48637(2) 0.35798(2)
O19 O 0.21322(9) 0.02698(16) 0.3980(2)
O21 O 0.25472(9) 0.07080(17) 0.6172(2)
O24 O 0.11821(10) 0.0266(2) 0.8895(3)
O26 O 0.08153(9) 0.0694(2) 0.6629(3)
O2 O 0.21560(11) 0.87307(18) 0.5899(3)
O4 O 0.11821(10) 0.9734(2) 0.3895(3)
O5 O 0.12331(11) 0.8690(2) 0.7067(3)
O6 O 0.08153(9) 0.9306(2) 0.1629(3)
C2 C 0.01870(13) 0.8223(3) 0.3135(4)
C3 C 0.08236(13) 0.9378(3) 0.3059(4)
C7 C 0.04051(15) 0.9055(4) 0.3810(4)
H1 H 0.0515 0.8965 0.4904
H2 H 0.0159 0.9506 0.3712
C12 C 0.0166(6) 0.6656(5) 0.3121(16)
H9 H 0.0272 0.6125 0.3574
C14 C 0.0357(3) 0.7422(5) 0.3751(9)
H11 H 0.0601 0.7408 0.4597
La6 La 0.16754(2) 0.98637(2) 0.14202(2)
O18 O 0.21322(9) 0.97302(16) 0.8980(2)
H25 H 0.228762 0.880244 0.491758
H26 H 0.242462 0.864126 0.676238
O13 O 0.75472(9) 0.42920(17) 0.1172(2)
C25 C 0.8677(2) 0.4727(3) 0.1158(6)
H17 H 0.8536 0.5235 0.1471
C28 C 0.91025(19) 0.3290(5) 0.0170(7)
C29 C 0.9322(2) 0.3741(7) 0.1444(9)
H23 H 0.9618 0.3554 0.1956
C30 C 0.9109(2) 0.4460(5) 0.1962(7)
H24 H 0.9252 0.476 0.2837
La8 La 0.66754(2) 0.48637(2) 0.14202(2)
O20 O 0.78678(9) 0.02698(16) 0.1020(2)
La2 La 0.83246(2) 0.01363(2) 0.85798(2)
O11 O 0.71322(9) 0.47302(16) 0.8980(2)
O15 O 0.83939(10) 0.17468(18) 0.9625(3)
O16 O 0.81940(11) 0.16019(18) 0.7119(3)
C21 C 0.86653(14) 0.3547(3) 0.9388(4)
C22 C 0.84413(13) 0.4267(3) 0.9888(4)
C23 C 0.75311(12) 0.4520(2) 0.9801(3)
C24 C 0.83387(13) 0.2067(3) 0.8284(4)
C26 C 0.79844(18) 0.4646(4) 0.9074(6)
H18 H 0.7926 0.4396 0.8043
H19 H 0.8033 0.5271 0.896
C27 C 0.8461(2) 0.3007(3) 0.7982(5)
H20 H 0.8172 0.3295 0.7474
H21 H 0.8692 0.3011 0.7266
H22 H 0.9254 0.28 0.9832
La3 La 0.66754(2) 0.51363(2) 0.64202(2)
O22 O 0.74528(9) 0.07080(17) 0.8828(2)
O23 O 0.88179(10) 0.0266(2) 0.6105(3)
O25 O 0.91847(9) 0.0694(2) 0.8371(3)
O9 O 0.88179(10) 0.9734(2) 0.1105(3)
O10 O 0.91847(9) 0.9306(2) 0.3371(3)
C16 C 0.98130(13) 0.8223(3) 0.1865(4)
C17 C 0.91764(13) 0.9378(3) 0.1941(4)
C18 C 0.95949(15) 0.9055(4) 0.1190(4)
H13 H 0.9485 0.8965 0.0096
H14 H 0.9841 0.9506 0.1288
C19 C 0.9834(6) 0.6656(5) 0.1879(16)
H15 H 0.9728 0.6125 0.1426
C20 C 0.9643(3) 0.7422(5) 0.1249(9)
H16 H 0.9399 0.7408 0.0403
La5 La 0.83246(2) 0.98637(2) 0.35798(2)
H29 H 0.771238 0.880244 0.00824218
O12 O 0.78440(11) 0.87307(18) 0.9101(3)
O14 O 0.87669(11) 0.8690(2) 0.7933(3)
O17 O 0.78678(9) 0.97302(16) 0.6020(2)
H30 H 0.757538 0.864126 0.823762
H3_2 H 0.6464 0.0235 0.3529
H5_2 H 0.6967 0.0271 0.604
H17_2 H 0.3536 0.0235 0.1471
H19_2 H 0.3033 0.0271 0.896
O2_2 O 0.71560(11) 0.37307(18) 0.5899(3)
O3_2 O 0.74528(9) 0.92920(17) 0.3828(2)
O4_2 O 0.61821(10) 0.4734(2) 0.3895(3)
O5_2 O 0.62331(11) 0.3690(2) 0.7067(3)
O6_2 O 0.58153(9) 0.4306(2) 0.1629(3)
O7_2 O 0.66061(10) 0.67468(18) 0.5375(3)
O8_2 O 0.68060(11) 0.66019(18) 0.7881(3)
C1_2 C 0.63347(14) 0.8547(3) 0.5612(4)
C2_2 C 0.51870(13) 0.3223(3) 0.3135(4)
C3_2 C 0.58236(13) 0.4378(3) 0.3059(4)
C4_2 C 0.65587(13) 0.9267(3) 0.5112(4)
C5_2 C 0.74689(12) 0.9520(2) 0.5199(3)
C6_2 C 0.66613(13) 0.7067(3) 0.6716(4)
C7_2 C 0.54051(15) 0.4055(4) 0.3810(4)
H1_2 H 0.5515 0.3965 0.4904
H2_2 H 0.5159 0.4506 0.3712
C8_2 C 0.6323(2) 0.9727(3) 0.3842(6)
C9_2 C 0.70156(18) 0.9646(4) 0.5926(6)
H4_2 H 0.7074 0.9396 0.6957
C10_2 C 0.6539(2) 0.8007(3) 0.7018(5)
H6_2 H 0.6828 0.8295 0.7526
H7_2 H 0.6308 0.8011 0.7734
C11_2 C 0.58975(19) 0.8290(5) 0.4830(7)
H8_2 H 0.5746 0.78 0.5168
C12_2 C 0.5166(6) 0.1656(5) 0.3121(16)
H9_2 H 0.5272 0.1125 0.3574
C13_2 C 0.5678(2) 0.8741(7) 0.3556(9)
H10_2 H 0.5382 0.8554 0.3044
C14_2 C 0.5357(3) 0.2422(5) 0.3751(9)
H11_2 H 0.5601 0.2408 0.4597
C15_2 C 0.5891(2) 0.9460(5) 0.3038(7)
H12_2 H 0.5748 0.976 0.2163
O9_2 O 0.38179(10) 0.4734(2) 0.1105(3)
O10_2 O 0.41847(9) 0.4306(2) 0.3371(3)
C16_2 C 0.48130(13) 0.3223(3) 0.1865(4)
C17_2 C 0.41764(13) 0.4378(3) 0.1941(4)
C18_2 C 0.45949(15) 0.4055(4) 0.1190(4)
H13_2 H 0.4485 0.3965 0.0096
H14_2 H 0.4841 0.4506 0.1288
C19_2 C 0.4834(6) 0.1656(5) 0.1879(16)
H15_2 H 0.4728 0.1125 0.1426
C20_2 C 0.4643(3) 0.2422(5) 0.1249(9)
H16_2 H 0.4399 0.2408 0.0403
O13_2 O 0.25472(9) 0.92920(17) 0.1172(2)
C25_2 C 0.3677(2) 0.9727(3) 0.1158(6)
C28_2 C 0.41025(19) 0.8290(5) 0.0170(7)
C29_2 C 0.4322(2) 0.8741(7) 0.1444(9)
H23_2 H 0.4618 0.8554 0.1956
C30_2 C 0.4109(2) 0.9460(5) 0.1962(7)
H24_2 H 0.4252 0.976 0.2837
O19_2 O 0.71322(9) 0.52698(16) 0.3980(2)
O20_2 O 0.28678(9) 0.52698(16) 0.1020(2)
O21_2 O 0.75472(9) 0.57080(17) 0.6172(2)
O24_2 O 0.61821(10) 0.5266(2) 0.8895(3)
O26_2 O 0.58153(9) 0.5694(2) 0.6629(3)
H25_2 H 0.728762 0.380244 0.491758
H26_2 H 0.742462 0.364126 0.676238
H29_2 H 0.271238 0.380244 0.00824218
O12_2 O 0.28440(11) 0.37307(18) 0.9101(3)
O14_2 O 0.37669(11) 0.3690(2) 0.7933(3)
O15_2 O 0.33939(10) 0.67468(18) 0.9625(3)
O16_2 O 0.31940(11) 0.66019(18) 0.7119(3)
C21_2 C 0.36653(14) 0.8547(3) 0.9388(4)
C22_2 C 0.34413(13) 0.9267(3) 0.9888(4)
C23_2 C 0.25311(12) 0.9520(2) 0.9801(3)
C24_2 C 0.33387(13) 0.7067(3) 0.8284(4)
C26_2 C 0.29844(18) 0.9646(4) 0.9074(6)
H18_2 H 0.2926 0.9396 0.8043
C27_2 C 0.3461(2) 0.8007(3) 0.7982(5)
H20_2 H 0.3172 0.8295 0.7474
H21_2 H 0.3692 0.8011 0.7266
H22_2 H 0.4254 0.78 0.9832
O22_2 O 0.24528(9) 0.57080(17) 0.8828(2)
O23_2 O 0.38179(10) 0.5266(2) 0.6105(3)
O25_2 O 0.41847(9) 0.5694(2) 0.8371(3)
H30_2 H 0.257538 0.364126 0.823762
O12_3 O 0.21560(11) 0.12693(18) 0.0899(3)
O14_3 O 0.12331(11) 0.1310(2) 0.2067(3)
H30_3 H 0.242462 0.135874 0.176238
C16_3 C 0.01870(13) 0.1777(3) 0.8135(4)
C17_3 C 0.08236(13) 0.0622(3) 0.8059(4)
C18_3 C 0.04051(15) 0.0945(4) 0.8810(4)
H13_3 H 0.0515 0.1035 0.9904
H14_3 H 0.0159 0.0494 0.8712
C19_3 C 0.0166(6) 0.3344(5) 0.8121(16)
H15_3 H 0.0272 0.3875 0.8574
C20_3 C 0.0357(3) 0.2578(5) 0.8751(9)
H16_3 H 0.0601 0.2592 0.9597
H29_3 H 0.228762 0.119756 0.991758
O15_3 O 0.16061(10) 0.82532(18) 0.0375(3)
O16_3 O 0.18060(11) 0.83981(18) 0.2881(3)
C21_3 C 0.13347(14) 0.6453(3) 0.0612(4)
C22_3 C 0.15587(13) 0.5733(3) 0.0112(4)
C23_3 C 0.24689(12) 0.5480(2) 0.0199(3)
C24_3 C 0.16613(13) 0.7933(3) 0.1716(4)
C26_3 C 0.20156(18) 0.5354(4) 0.0926(6)
H18_3 H 0.2074 0.5604 0.1957
H19_3 H 0.1967 0.4729 0.104
C27_3 C 0.1539(2) 0.6993(3) 0.2018(5)
H20_3 H 0.1828 0.6705 0.2526
H21_3 H 0.1308 0.6989 0.2734
H22_3 H 0.0746 0.72 0.0168
C25_3 C 0.1323(2) 0.5273(3) 0.8842(6)
H17_3 H 0.1464 0.4765 0.8529
C28_3 C 0.08975(19) 0.6710(5) 0.9830(7)
C29_3 C 0.0678(2) 0.6259(7) 0.8556(9)
H23_3 H 0.0382 0.6446 0.8044
C30_3 C 0.0891(2) 0.5540(5) 0.8038(7)
H24_3 H 0.0748 0.524 0.7163
O2_3 O 0.78440(11) 0.12693(18) 0.4101(3)
O5_3 O 0.87669(11) 0.1310(2) 0.2933(3)
C2_3 C 0.98130(13) 0.1777(3) 0.6865(4)
C3_3 C 0.91764(13) 0.0622(3) 0.6941(4)
C7_3 C 0.95949(15) 0.0945(4) 0.6190(4)
H1_3 H 0.9485 0.1035 0.5096
H2_3 H 0.9841 0.0494 0.6288
C12_3 C 0.9834(6) 0.3344(5) 0.6879(16)
H9_3 H 0.9728 0.3875 0.6426
C14_3 C 0.9643(3) 0.2578(5) 0.6249(9)
H11_3 H 0.9399 0.2592 0.5403
H25_3 H 0.771238 0.119756 0.508242
H26_3 H 0.757538 0.135874 0.323762
O7_3 O 0.83939(10) 0.82532(18) 0.4625(3)
O8_3 O 0.81940(11) 0.83981(18) 0.2119(3)
C1_3 C 0.86653(14) 0.6453(3) 0.4388(4)
C4_3 C 0.84413(13) 0.5733(3) 0.4888(4)
C5_3 C 0.75311(12) 0.5480(2) 0.4801(3)
C6_3 C 0.83387(13) 0.7933(3) 0.3284(4)
C8_3 C 0.8677(2) 0.5273(3) 0.6158(6)
H3_3 H 0.8536 0.4765 0.6471
C9_3 C 0.79844(18) 0.5354(4) 0.4074(6)
H4_3 H 0.7926 0.5604 0.3043
H5_3 H 0.8033 0.4729 0.396
C10_3 C 0.8461(2) 0.6993(3) 0.2982(5)
H6_3 H 0.8172 0.6705 0.2474
H7_3 H 0.8692 0.6989 0.2266
C11_3 C 0.91025(19) 0.6710(5) 0.5170(7)
H8_3 H 0.9254 0.72 0.4832
C13_3 C 0.9322(2) 0.6259(7) 0.6444(9)
H10_3 H 0.9618 0.6446 0.6956
C15_3 C 0.9109(2) 0.5540(5) 0.6962(7)
H12_3 H 0.9252 0.524 0.7837
O12_4 O 0.71560(11) 0.62693(18) 0.0899(3)
O14_4 O 0.62331(11) 0.6310(2) 0.2067(3)
O15_4 O 0.66061(10) 0.32532(18) 0.0375(3)
O16_4 O 0.68060(11) 0.33981(18) 0.2881(3)
C21_4 C 0.63347(14) 0.1453(3) 0.0612(4)
C22_4 C 0.65587(13) 0.0733(3) 0.0112(4)
C23_4 C 0.74689(12) 0.0480(2) 0.0199(3)
C24_4 C 0.66613(13) 0.2933(3) 0.1716(4)
C26_4 C 0.70156(18) 0.0354(4) 0.0926(6)
H18_4 H 0.7074 0.0604 0.1957
C27_4 C 0.6539(2) 0.1993(3) 0.2018(5)
H20_4 H 0.6828 0.1705 0.2526
H21_4 H 0.6308 0.1989 0.2734
H22_4 H 0.5746 0.22 0.0168
H30_4 H 0.742462 0.635874 0.176238
O2_4 O 0.28440(11) 0.62693(18) 0.4101(3)
O5_4 O 0.37669(11) 0.6310(2) 0.2933(3)
O7_4 O 0.33939(10) 0.32532(18) 0.4625(3)
O8_4 O 0.31940(11) 0.33981(18) 0.2119(3)
C1_4 C 0.36653(14) 0.1453(3) 0.4388(4)
C2_4 C 0.48130(13) 0.6777(3) 0.6865(4)
C3_4 C 0.41764(13) 0.5622(3) 0.6941(4)
C4_4 C 0.34413(13) 0.0733(3) 0.4888(4)
C5_4 C 0.25311(12) 0.0480(2) 0.4801(3)
C6_4 C 0.33387(13) 0.2933(3) 0.3284(4)
C7_4 C 0.45949(15) 0.5945(4) 0.6190(4)
H1_4 H 0.4485 0.6035 0.5096
H2_4 H 0.4841 0.5494 0.6288
C8_4 C 0.3677(2) 0.0273(3) 0.6158(6)
C9_4 C 0.29844(18) 0.0354(4) 0.4074(6)
H4_4 H 0.2926 0.0604 0.3043
C10_4 C 0.3461(2) 0.1993(3) 0.2982(5)
H6_4 H 0.3172 0.1705 0.2474
H7_4 H 0.3692 0.1989 0.2266
C11_4 C 0.41025(19) 0.1710(5) 0.5170(7)
H8_4 H 0.4254 0.22 0.4832
C12_4 C 0.4834(6) 0.8344(5) 0.6879(16)
H9_4 H 0.4728 0.8875 0.6426
C13_4 C 0.4322(2) 0.1259(7) 0.6444(9)
H10_4 H 0.4618 0.1446 0.6956
C14_4 C 0.4643(3) 0.7578(5) 0.6249(9)
H11_4 H 0.4399 0.7592 0.5403
C15_4 C 0.4109(2) 0.0540(5) 0.6962(7)
H12_4 H 0.4252 0.024 0.7837
C16_4 C 0.51870(13) 0.6777(3) 0.8135(4)
C17_4 C 0.58236(13) 0.5622(3) 0.8059(4)
C18_4 C 0.54051(15) 0.5945(4) 0.8810(4)
H13_4 H 0.5515 0.6035 0.9904
H14_4 H 0.5159 0.5494 0.8712
C19_4 C 0.5166(6) 0.8344(5) 0.8121(16)
H15_4 H 0.5272 0.8875 0.8574
C20_4 C 0.5357(3) 0.7578(5) 0.8751(9)
H16_4 H 0.5601 0.7592 0.9597
C25_4 C 0.6323(2) 0.0273(3) 0.8842(6)
C28_4 C 0.58975(19) 0.1710(5) 0.9830(7)
C29_4 C 0.5678(2) 0.1259(7) 0.8556(9)
H23_4 H 0.5382 0.1446 0.8044
C30_4 C 0.5891(2) 0.0540(5) 0.8038(7)
H24_4 H 0.5748 0.024 0.7163
H25_4 H 0.271238 0.619756 0.508242
H26_4 H 0.257538 0.635874 0.323762
H29_4 H 0.728762 0.619756 0.991758
H19_4 H 0.6967 0.9729 0.104
H3_4 H 0.3536 0.9765 0.6471
H5_4 H 0.3033 0.9729 0.396
H17_4 H 0.6464 0.9765 0.8529
loop_
_geom_bond_atom_site_label_1
_geom_bond_atom_site_label_2
_geom_bond_site_symmetry_1
_geom_bond_site_symmetry_2
O1 C5 1_555 1_555
O3 C5 1_555 1_555
O7 La1 1_555 1_555
O8 La1 1_555 1_555
C1 C4 1_555 1_555
C4 C8 1_555 1_555
C5 C9 1_555 1_555
C6 O7 1_555 1_555
C8 H3 1_555 1_555
C9 C4 1_555 1_555
H4 C9 1_555 1_555
H5 C9 1_555 1_555
C10 C1 1_555 1_555
H6 C10 1_555 1_555
H7 C10 1_555 1_555
C11 C1 1_555 1_555
H8 C11 1_555 1_555
C13 C11 1_555 1_555
H10 C13 1_555 1_555
C15 C8 1_555 1_555
H12 C15 1_555 1_555
La4 O1 1_555 1_555
La7 O1 1_555 1_555
O19 La1 1_555 1_555
O21 La1 1_555 1_555
O24 La1 1_555 1_555
O26 La1 1_555 1_555
O3 La7 1_555 1_555
O8 C6 1_555 1_555
C6 C10 1_555 1_555
C13 C15 1_555 1_555
O6 C3 1_555 1_555
C2 C7 1_555 1_555
C3 O4 1_555 1_555
C7 C3 1_555 1_555
H1 C7 1_555 1_555
H2 C7 1_555 1_555
C12 H9 1_555 1_555
C14 C2 1_555 1_555
H11 C14 1_555 1_555
La6 O4 1_555 1_555
O6 La6 1_555 1_555
C12 C14 1_555 1_555
O2 H25 1_555 1_555
O2 H26 1_555 1_555
C25 H17 1_555 1_555
C29 C28 1_555 1_555
H23 C29 1_555 1_555
C30 C25 1_555 1_555
H24 C30 1_555 1_555
O13 La8 1_555 1_555
C29 C30 1_555 1_555
O11 C23 1_555 1_555
O15 La2 1_555 1_555
O16 La2 1_555 1_555
C21 C22 1_555 1_555
C23 C26 1_555 1_555
C24 O15 1_555 1_555
C26 C22 1_555 1_555
H18 C26 1_555 1_555
H19 C26 1_555 1_555
C27 C21 1_555 1_555
H20 C27 1_555 1_555
H21 C27 1_555 1_555
La3 O11 1_555 1_555
O22 La2 1_555 1_555
O23 La2 1_555 1_555
O25 La2 1_555 1_555
O16 C24 1_555 1_555
C24 C27 1_555 1_555
O9 C17 1_555 1_555
O10 C17 1_555 1_555
C17 C18 1_555 1_555
C18 C16 1_555 1_555
H13 C18 1_555 1_555
H14 C18 1_555 1_555
H15 C19 1_555 1_555
C20 C16 1_555 1_555
H16 C20 1_555 1_555
La5 O9 1_555 1_555
O10 La5 1_555 1_555
C19 C20 1_555 1_555
O12 H30 1_555 1_555
La3 O2_2 1_555 1_555
O17 C5_2 1_555 1_555
O3_2 C5_2 1_555 1_555
O4_2 La3 1_555 1_555
O5_2 La3 1_555 1_555
O6_2 C3_2 1_555 1_555
O7_2 La3 1_555 1_555
O8_2 La3 1_555 1_555
C1_2 C4_2 1_555 1_555
C2_2 C7_2 1_555 1_555
C3_2 O4_2 1_555 1_555
C4_2 C8_2 1_555 1_555
C5_2 C9_2 1_555 1_555
C6_2 O7_2 1_555 1_555
C7_2 C3_2 1_555 1_555
H1_2 C7_2 1_555 1_555
H2_2 C7_2 1_555 1_555
C9_2 C4_2 1_555 1_555
H4_2 C9_2 1_555 1_555
C10_2 C1_2 1_555 1_555
H6_2 C10_2 1_555 1_555
H7_2 C10_2 1_555 1_555
C11_2 C1_2 1_555 1_555
H8_2 C11_2 1_555 1_555
C12_2 H9_2 1_555 1_555
C13_2 C11_2 1_555 1_555
H10_2 C13_2 1_555 1_555
C14_2 C2_2 1_555 1_555
H11_2 C14_2 1_555 1_555
C15_2 C8_2 1_555 1_555
H12_2 C15_2 1_555 1_555
O9_2 C17_2 1_555 1_555
O10_2 C17_2 1_555 1_555
C16_2 C2_2 1_555 1_555
C17_2 C18_2 1_555 1_555
C18_2 C16_2 1_555 1_555
H13_2 C18_2 1_555 1_555
H14_2 C18_2 1_555 1_555
C19_2 C12_2 1_555 1_555
H15_2 C19_2 1_555 1_555
C20_2 C16_2 1_555 1_555
H16_2 C20_2 1_555 1_555
C29_2 C28_2 1_555 1_555
H23_2 C29_2 1_555 1_555
C30_2 C25_2 1_555 1_555
H24_2 C30_2 1_555 1_555
La7 O9_2 1_555 1_555
La8 O4_2 1_555 1_555
La5 O17 1_555 1_555
O19_2 La3 1_555 1_555
O21_2 La3 1_555 1_555
O24_2 La3 1_555 1_555
O26_2 La3 1_555 1_555
O3_2 La5 1_555 1_555
O6_2 La8 1_555 1_555
O8_2 C6_2 1_555 1_555
C6_2 C10_2 1_555 1_555
C12_2 C14_2 1_555 1_555
C13_2 C15_2 1_555 1_555
O10_2 La7 1_555 1_555
C19_2 C20_2 1_555 1_555
O13_2 La6 1_555 1_555
C29_2 C30_2 1_555 1_555
La7 O20_2 1_555 1_555
La8 O19_2 1_555 1_555
O2_2 H25_2 1_555 1_555
O2_2 H26_2 1_555 1_555
O18 C23_2 1_555 1_555
O12_2 La4 1_555 1_555
O14_2 La4 1_555 1_555
O15_2 La4 1_555 1_555
O16_2 La4 1_555 1_555
C21_2 C22_2 1_555 1_555
C23_2 C26_2 1_555 1_555
C24_2 O15_2 1_555 1_555
C26_2 C22_2 1_555 1_555
H18_2 C26_2 1_555 1_555
C27_2 C21_2 1_555 1_555
H20_2 C27_2 1_555 1_555
H21_2 C27_2 1_555 1_555
O22_2 La4 1_555 1_555
O23_2 La4 1_555 1_555
O25_2 La4 1_555 1_555
O16_2 C24_2 1_555 1_555
C24_2 C27_2 1_555 1_555
O12_2 H30_2 1_555 1_555
O12_3 H30_3 1_555 1_555
O24 C17_3 1_555 1_555
O26 C17_3 1_555 1_555
C17_3 C18_3 1_555 1_555
C18_3 C16_3 1_555 1_555
H13_3 C18_3 1_555 1_555
H14_3 C18_3 1_555 1_555
H15_3 C19_3 1_555 1_555
C20_3 C16_3 1_555 1_555
H16_3 C20_3 1_555 1_555
C19_3 C20_3 1_555 1_555
O20_2 C23_3 1_555 1_555
O15_3 La6 1_555 1_555
O16_3 La6 1_555 1_555
C21_3 C22_3 1_555 1_555
C23_3 C26_3 1_555 1_555
C24_3 O15_3 1_555 1_555
C26_3 C22_3 1_555 1_555
H18_3 C26_3 1_555 1_555
H19_3 C26_3 1_555 1_555
C27_3 C21_3 1_555 1_555
H20_3 C27_3 1_555 1_555
H21_3 C27_3 1_555 1_555
O16_3 C24_3 1_555 1_555
C24_3 C27_3 1_555 1_555
C25_3 H17_3 1_555 1_555
C29_3 C28_3 1_555 1_555
H23_3 C29_3 1_555 1_555
C30_3 C25_3 1_555 1_555
H24_3 C30_3 1_555 1_555
C29_3 C30_3 1_555 1_555
O25 C3_3 1_555 1_555
C2_3 C7_3 1_555 1_555
C3_3 O23 1_555 1_555
C7_3 C3_3 1_555 1_555
H1_3 C7_3 1_555 1_555
H2_3 C7_3 1_555 1_555
C12_3 H9_3 1_555 1_555
C14_3 C2_3 1_555 1_555
H11_3 C14_3 1_555 1_555
C12_3 C14_3 1_555 1_555
O2_3 H25_3 1_555 1_555
O2_3 H26_3 1_555 1_555
O19_2 C5_3 1_555 1_555
O21_2 C5_3 1_555 1_555
O7_3 La5 1_555 1_555
O8_3 La5 1_555 1_555
C1_3 C4_3 1_555 1_555
C4_3 C8_3 1_555 1_555
C5_3 C9_3 1_555 1_555
C6_3 O7_3 1_555 1_555
C8_3 H3_3 1_555 1_555
C9_3 C4_3 1_555 1_555
H4_3 C9_3 1_555 1_555
H5_3 C9_3 1_555 1_555
C10_3 C1_3 1_555 1_555
H6_3 C10_3 1_555 1_555
H7_3 C10_3 1_555 1_555
C11_3 C1_3 1_555 1_555
H8_3 C11_3 1_555 1_555
C13_3 C11_3 1_555 1_555
H10_3 C13_3 1_555 1_555
C15_3 C8_3 1_555 1_555
H12_3 C15_3 1_555 1_555
O8_3 C6_3 1_555 1_555
C6_3 C10_3 1_555 1_555
C13_3 C15_3 1_555 1_555
O20 C23_4 1_555 1_555
O12_4 La8 1_555 1_555
O14_4 La8 1_555 1_555
O15_4 La8 1_555 1_555
O16_4 La8 1_555 1_555
C21_4 C22_4 1_555 1_555
C23_4 C26_4 1_555 1_555
C24_4 O15_4 1_555 1_555
C26_4 C22_4 1_555 1_555
H18_4 C26_4 1_555 1_555
C27_4 C21_4 1_555 1_555
H20_4 C27_4 1_555 1_555
H21_4 C27_4 1_555 1_555
O16_4 C24_4 1_555 1_555
C24_4 C27_4 1_555 1_555
O12_4 H30_4 1_555 1_555
La7 O2_4 1_555 1_555
O19 C5_4 1_555 1_555
O21 C5_4 1_555 1_555
O23_2 La7 1_555 1_555
O5_4 La7 1_555 1_555
O25_2 C3_4 1_555 1_555
O7_4 La7 1_555 1_555
O8_4 La7 1_555 1_555
C1_4 C4_4 1_555 1_555
C2_4 C7_4 1_555 1_555
C3_4 O23_2 1_555 1_555
C4_4 C8_4 1_555 1_555
C5_4 C9_4 1_555 1_555
C6_4 O7_4 1_555 1_555
C7_4 C3_4 1_555 1_555
H1_4 C7_4 1_555 1_555
H2_4 C7_4 1_555 1_555
C9_4 C4_4 1_555 1_555
H4_4 C9_4 1_555 1_555
C10_4 C1_4 1_555 1_555
H6_4 C10_4 1_555 1_555
H7_4 C10_4 1_555 1_555
C11_4 C1_4 1_555 1_555
H8_4 C11_4 1_555 1_555
C12_4 H9_4 1_555 1_555
C13_4 C11_4 1_555 1_555
H10_4 C13_4 1_555 1_555
C14_4 C2_4 1_555 1_555
H11_4 C14_4 1_555 1_555
C15_4 C8_4 1_555 1_555
H12_4 C15_4 1_555 1_555
O24_2 C17_4 1_555 1_555
O26_2 C17_4 1_555 1_555
C16_4 C2_4 1_555 1_555
C17_4 C18_4 1_555 1_555
C18_4 C16_4 1_555 1_555
H13_4 C18_4 1_555 1_555
H14_4 C18_4 1_555 1_555
C19_4 C12_4 1_555 1_555
H15_4 C19_4 1_555 1_555
C20_4 C16_4 1_555 1_555
H16_4 C20_4 1_555 1_555
C29_4 C28_4 1_555 1_555
H23_4 C29_4 1_555 1_555
C30_4 C25_4 1_555 1_555
H24_4 C30_4 1_555 1_555
O8_4 C6_4 1_555 1_555
C6_4 C10_4 1_555 1_555
C12_4 C14_4 1_555 1_555
C13_4 C15_4 1_555 1_555
C19_4 C20_4 1_555 1_555
C29_4 C30_4 1_555 1_555
O2_4 H25_4 1_555 1_555
O2_4 H26_4 1_555 1_555

#END
