
###############################################################################
#
# This file contains modified crystal structure data generated from the
# MOF subset of the Cambridge Structural Database (CSD) v543 
# hosted by the Cambridge Crystallographic Data Centre (CCDC).
#
# This work is licensed under the Creative Commons
# Attribution-NonCommercial-ShareAlike 4.0 International License.
# To view a copy of this license, visit
# http://creativecommons.org/licenses/by-nc-sa/4.0/
# or send a letter to
# Creative Commons, PO Box 1866, Mountain View, CA 94042, USA.
#
# CIF created using the CSD Python API on 29 September 2022
# The structure has been converted into the P1 space group
# The structure has a 3D framework
# The original CSD entry XANMUX02 is in the orthorhombic crystal system
# The framework has been calculated to contain at least 10.0% void space
# The void calculation uses a probe of radius 1.32A, grid spacing 0.4
# The framework is charged, counterions have been retained in the structure
#
###############################################################################

data_XANMUX02
_chemical_formula_moiety         '(C56 H48 Br11 Cu4 N24 4-)n'
_symmetry_cell_setting           triclinic
_symmetry_space_group_name_H-M   'P 1'
_symmetry_Int_Tables_number      1
_space_group_name_Hall           'P 1'
loop_
_symmetry_equiv_pos_site_id
_symmetry_equiv_pos_as_xyz
1 x,y,z
_cell_length_a                   21.850(4)
_cell_length_b                   7.3551(13)
_cell_length_c                   14.223(2)
_cell_angle_alpha                90
_cell_angle_beta                 90
_cell_angle_gamma                90
_cell_volume                     2285.76
loop_
_atom_site_label
_atom_site_type_symbol
_atom_site_fract_x
_atom_site_fract_y
_atom_site_fract_z
Br1 Br 0.2820(3) 0.7500 0.5756(5)
Br1_2 Br 0.7180(3) 0.7500 0.5756(5)
Br1_3 Br 0.2820(3) 0.2500 0.4244(5)
Br1_4 Br 0.7180(3) 0.2500 0.4244(5)
Br1_5 Br 0.7820(3) 0.2500 0.0756(5)
Br1_6 Br 0.2180(3) 0.2500 0.0756(5)
Br1_7 Br 0.7820(3) 0.7500 0.9244(5)
Br1_8 Br 0.2180(3) 0.7500 0.9244(5)
Cu2 Cu 0.5000 -0.0000 0.5000
H4 H 0.3780 0.0186 0.3777
H8 H 0.1220 0.0186 0.1223
Cu4 Cu 0.0000 0.0000 0.0000
Cu4_2 Cu 0.0000 0.0000 1.0000
Br2 Br 0.5000 0.2500 0.34974(9)
Cu1 Cu 0.5000 0.5000 0.5000
N1 N 0.4353(2) 0.3448(7) 0.5606(4)
C1 C 0.3883(3) 0.6019(10) 0.3897(5)
N2 N 0.3567(4) 0.7500 0.3580(6)
H1 H 0.3780 0.4814 0.3777
C2 C 0.3020(4) 0.7500 0.3037(8)
C3 C 0.2542(7) 0.855(3) 0.3319(13)
C4 C 0.2999(6) 0.854(2) 0.2232(11)
H2 H 0.2569 0.9203 0.3901
H3 H 0.3344 0.9258 0.2043
N3 N 0.4353(2) 0.6552(7) 0.4394(4)
Br3 Br 0.5000 0.7500 0.65026(9)
N4 N 0.5647(2) 0.3448(7) 0.5606(4)
N5 N 0.5647(2) 0.6552(7) 0.4394(4)
N6 N 0.4353(2) 0.8448(7) 0.4394(4)
Cu2_2 Cu 0.5000 1.0000 0.5000
C5 C 0.3883(3) 0.8981(10) 0.3897(5)
C6 C 0.2001(6) 0.854(2) 0.2768(11)
C7 C 0.2458(7) 0.855(3) 0.1681(13)
H5 H 0.1656 0.9258 0.2957
C8 C 0.1980(4) 0.7500 0.1963(8)
H6 H 0.2431 0.9203 0.1099
N7 N 0.1433(4) 0.7500 0.1420(6)
C9 C 0.1117(3) 0.6019(10) 0.1103(5)
C10 C 0.1117(3) 0.8981(10) 0.1103(5)
N8 N 0.0647(2) 0.6552(7) 0.0606(4)
H7 H 0.1220 0.4814 0.1223
N9 N 0.0647(2) 0.8448(7) 0.0606(4)
Cu3 Cu 0.0000 0.5000 0.0000
Cu4_3 Cu 0.0000 1.0000 0.0000
Cu3_2 Cu -0.0000 0.5000 1.0000
Cu4_4 Cu -0.0000 1.0000 1.0000
Cu4_5 Cu 1.0000 0.0000 0.0000
Cu4_6 Cu 1.0000 0.0000 1.0000
Cu3_3 Cu 1.0000 0.5000 0.0000
Cu4_7 Cu 1.0000 1.0000 0.0000
Cu3_4 Cu 1.0000 0.5000 1.0000
Cu4_8 Cu 1.0000 1.0000 1.0000
N1_2 N 0.5647(2) 0.1552(7) 0.5606(4)
H1_2 H 0.6220 0.0186 0.3777
N4_2 N 0.4353(2) 0.1552(7) 0.5606(4)
H7_2 H 0.8780 0.0186 0.1223
C1_2 C 0.6117(3) 0.8981(10) 0.3897(5)
N2_2 N 0.6433(4) 0.7500 0.3580(6)
C2_2 C 0.6980(4) 0.7500 0.3037(8)
C3_2 C 0.7458(7) 0.645(3) 0.3319(13)
C4_2 C 0.7001(6) 0.646(2) 0.2232(11)
H2_2 H 0.7431 0.5797 0.3901
H3_2 H 0.6656 0.5742 0.2043
N3_2 N 0.5647(2) 0.8448(7) 0.4394(4)
C5_2 C 0.6117(3) 0.6019(10) 0.3897(5)
H4_2 H 0.6220 0.4814 0.3777
C6_2 C 0.7999(6) 0.646(2) 0.2768(11)
C7_2 C 0.7542(7) 0.645(3) 0.1681(13)
H5_2 H 0.8344 0.5742 0.2957
C8_2 C 0.8020(4) 0.7500 0.1963(8)
H6_2 H 0.7569 0.5797 0.1099
N7_2 N 0.8567(4) 0.7500 0.1420(6)
C9_2 C 0.8883(3) 0.8981(10) 0.1103(5)
C10_2 C 0.8883(3) 0.6019(10) 0.1103(5)
N8_2 N 0.9353(2) 0.8448(7) 0.0606(4)
N9_2 N 0.9353(2) 0.6552(7) 0.0606(4)
H8_2 H 0.8780 0.4814 0.1223
C1_3 C 0.3883(3) 0.3981(10) 0.6103(5)
N2_3 N 0.3567(4) 0.2500 0.6420(6)
H1_3 H 0.3780 0.5186 0.6223
C2_3 C 0.3020(4) 0.2500 0.6963(8)
C3_3 C 0.2542(7) 0.145(3) 0.6681(13)
C4_3 C 0.2999(6) 0.146(2) 0.7768(11)
H2_3 H 0.2569 0.0797 0.6099
H3_3 H 0.3344 0.0742 0.7957
C5_3 C 0.3883(3) 0.1019(10) 0.6103(5)
C6_3 C 0.2001(6) 0.146(2) 0.7232(11)
C7_3 C 0.2458(7) 0.145(3) 0.8319(13)
H5_3 H 0.1656 0.0742 0.7043
C8_3 C 0.1980(4) 0.2500 0.8037(8)
H6_3 H 0.2431 0.0797 0.8901
N7_3 N 0.1433(4) 0.2500 0.8580(6)
C9_3 C 0.1117(3) 0.3981(10) 0.8897(5)
C10_3 C 0.1117(3) 0.1019(10) 0.8897(5)
N8_3 N 0.0647(2) 0.3448(7) 0.9394(4)
H7_3 H 0.1220 0.5186 0.8777
N9_3 N 0.0647(2) 0.1552(7) 0.9394(4)
H4_3 H 0.3780 0.9814 0.6223
H8_3 H 0.1220 0.9814 0.8777
C1_4 C 0.6117(3) 0.1019(10) 0.6103(5)
N2_4 N 0.6433(4) 0.2500 0.6420(6)
C2_4 C 0.6980(4) 0.2500 0.6963(8)
C3_4 C 0.7458(7) 0.355(3) 0.6681(13)
C4_4 C 0.7001(6) 0.354(2) 0.7768(11)
H2_4 H 0.7431 0.4203 0.6099
H3_4 H 0.6656 0.4258 0.7957
C5_4 C 0.6117(3) 0.3981(10) 0.6103(5)
H4_4 H 0.6220 0.5186 0.6223
C6_4 C 0.7999(6) 0.354(2) 0.7232(11)
C7_4 C 0.7542(7) 0.355(3) 0.8319(13)
H5_4 H 0.8344 0.4258 0.7043
C8_4 C 0.8020(4) 0.2500 0.8037(8)
H6_4 H 0.7569 0.4203 0.8901
N7_4 N 0.8567(4) 0.2500 0.8580(6)
C9_4 C 0.8883(3) 0.1019(10) 0.8897(5)
C10_4 C 0.8883(3) 0.3981(10) 0.8897(5)
N8_4 N 0.9353(2) 0.1552(7) 0.9394(4)
N9_4 N 0.9353(2) 0.3448(7) 0.9394(4)
H8_4 H 0.8780 0.5186 0.8777
H1_4 H 0.6220 0.9814 0.6223
H7_4 H 0.8780 0.9814 0.8777
Br3_2 Br 0.0000 0.2500 0.15026(9)
Br2_2 Br 0.0000 0.7500 0.84974(9)
Br3_3 Br 1.0000 0.2500 0.15026(9)
Br2_3 Br 1.0000 0.7500 0.84974(9)
C3_5 C 0.7458(7) 0.145(3) 0.6681(13)
C4_5 C 0.7001(6) 0.146(2) 0.7768(11)
H2_5 H 0.7431 0.0797 0.6099
H3_5 H 0.6656 0.0742 0.7957
C6_5 C 0.7999(6) 0.146(2) 0.7232(11)
C7_5 C 0.7542(7) 0.145(3) 0.8319(13)
H5_5 H 0.8344 0.0742 0.7043
H6_5 H 0.7569 0.0797 0.8901
C3_6 C 0.2542(7) 0.355(3) 0.6681(13)
C4_6 C 0.2999(6) 0.354(2) 0.7768(11)
H2_6 H 0.2569 0.4203 0.6099
H3_6 H 0.3344 0.4258 0.7957
C6_6 C 0.2001(6) 0.354(2) 0.7232(11)
C7_6 C 0.2458(7) 0.355(3) 0.8319(13)
H5_6 H 0.1656 0.4258 0.7043
H6_6 H 0.2431 0.4203 0.8901
C3_7 C 0.7458(7) 0.855(3) 0.3319(13)
C4_7 C 0.7001(6) 0.854(2) 0.2232(11)
H2_7 H 0.7431 0.9203 0.3901
H3_7 H 0.6656 0.9258 0.2043
C6_7 C 0.7999(6) 0.854(2) 0.2768(11)
C7_7 C 0.7542(7) 0.855(3) 0.1681(13)
H5_7 H 0.8344 0.9258 0.2957
H6_7 H 0.7569 0.9203 0.1099
C3_8 C 0.2542(7) 0.645(3) 0.3319(13)
C4_8 C 0.2999(6) 0.646(2) 0.2232(11)
H2_8 H 0.2569 0.5797 0.3901
H3_8 H 0.3344 0.5742 0.2043
C6_8 C 0.2001(6) 0.646(2) 0.2768(11)
C7_8 C 0.2458(7) 0.645(3) 0.1681(13)
H5_8 H 0.1656 0.5742 0.2957
H6_8 H 0.2431 0.5797 0.1099
loop_
_geom_bond_atom_site_label_1
_geom_bond_atom_site_label_2
_geom_bond_site_symmetry_1
_geom_bond_site_symmetry_2
Br2 Cu1 1_555 1_555
Cu1 N1 1_555 1_555
C1 N2 1_555 1_555
N2 C2 1_555 1_555
H1 C1 1_555 1_555
C2 C3 1_555 1_555
C3 H2 1_555 1_555
C4 C2 1_555 1_555
H3 C4 1_555 1_555
N3 Cu1 1_555 1_555
Br3 Cu1 1_555 1_555
N4 Cu1 1_555 1_555
N5 Cu1 1_555 1_555
N6 N3 1_555 1_555
Cu2_2 Br3 1_555 1_555
C5 N2 1_555 1_555
C6 C3 1_555 1_555
C7 C4 1_555 1_555
H5 C6 1_555 1_555
C8 C6 1_555 1_555
H6 C7 1_555 1_555
N7 C8 1_555 1_555
C9 N7 1_555 1_555
C10 N7 1_555 1_555
N8 C9 1_555 1_555
H7 C9 1_555 1_555
N9 C10 1_555 1_555
Cu3 N8 1_555 1_555
Cu4_3 N9 1_555 1_555
C1 N3 1_555 1_555
N6 Cu2_2 1_555 1_555
N6 C5 1_555 1_555
C7 C8 1_555 1_555
N8 N9 1_555 1_555
Br2 Cu2 1_555 1_555
Cu2 N1_2 1_555 1_555
N4_2 Cu2 1_555 1_555
C1_2 N2_2 1_555 1_555
N2_2 C2_2 1_555 1_555
C2_2 C3_2 1_555 1_555
C3_2 H2_2 1_555 1_555
C4_2 C2_2 1_555 1_555
H3_2 C4_2 1_555 1_555
N3_2 Cu2_2 1_555 1_555
N5 N3_2 1_555 1_555
C5_2 N2_2 1_555 1_555
H4_2 C5_2 1_555 1_555
C6_2 C3_2 1_555 1_555
C7_2 C4_2 1_555 1_555
H5_2 C6_2 1_555 1_555
C8_2 C6_2 1_555 1_555
H6_2 C7_2 1_555 1_555
N7_2 C8_2 1_555 1_555
C9_2 N7_2 1_555 1_555
C10_2 N7_2 1_555 1_555
N8_2 C9_2 1_555 1_555
N9_2 C10_2 1_555 1_555
H8_2 C10_2 1_555 1_555
Cu4_7 N8_2 1_555 1_555
Cu3_3 N9_2 1_555 1_555
C1_2 N3_2 1_555 1_555
N5 C5_2 1_555 1_555
C7_2 C8_2 1_555 1_555
N8_2 N9_2 1_555 1_555
C1_3 N2_3 1_555 1_555
N2_3 C2_3 1_555 1_555
H1_3 C1_3 1_555 1_555
C2_3 C3_3 1_555 1_555
C3_3 H2_3 1_555 1_555
C4_3 C2_3 1_555 1_555
H3_3 C4_3 1_555 1_555
N4_2 N1 1_555 1_555
C5_3 N2_3 1_555 1_555
C6_3 C3_3 1_555 1_555
C7_3 C4_3 1_555 1_555
H5_3 C6_3 1_555 1_555
C8_3 C6_3 1_555 1_555
H6_3 C7_3 1_555 1_555
N7_3 C8_3 1_555 1_555
C9_3 N7_3 1_555 1_555
C10_3 N7_3 1_555 1_555
N8_3 C9_3 1_555 1_555
H7_3 C9_3 1_555 1_555
N9_3 C10_3 1_555 1_555
Cu3_2 N8_3 1_555 1_555
Cu4_2 N9_3 1_555 1_555
C1_3 N1 1_555 1_555
N4_2 C5_3 1_555 1_555
C7_3 C8_3 1_555 1_555
N8_3 N9_3 1_555 1_555
C1_4 N2_4 1_555 1_555
N2_4 C2_4 1_555 1_555
C2_4 C3_4 1_555 1_555
C3_4 H2_4 1_555 1_555
C4_4 C2_4 1_555 1_555
H3_4 C4_4 1_555 1_555
N4 N1_2 1_555 1_555
C5_4 N2_4 1_555 1_555
H4_4 C5_4 1_555 1_555
C6_4 C3_4 1_555 1_555
C7_4 C4_4 1_555 1_555
H5_4 C6_4 1_555 1_555
C8_4 C6_4 1_555 1_555
H6_4 C7_4 1_555 1_555
N7_4 C8_4 1_555 1_555
C9_4 N7_4 1_555 1_555
C10_4 N7_4 1_555 1_555
N8_4 C9_4 1_555 1_555
N9_4 C10_4 1_555 1_555
H8_4 C10_4 1_555 1_555
Cu4_6 N8_4 1_555 1_555
Cu3_4 N9_4 1_555 1_555
C1_4 N1_2 1_555 1_555
N4 C5_4 1_555 1_555
C7_4 C8_4 1_555 1_555
N8_4 N9_4 1_555 1_555
Br3_2 Cu4 1_555 1_555
Cu3 Br3_2 1_555 1_555
Br2_2 Cu4_4 1_555 1_555
Br3_3 Cu4_5 1_555 1_555
Cu3_3 Br3_3 1_555 1_555
Br2_3 Cu4_8 1_555 1_555
Br2_2 Cu3_2 1_555 1_555
Br2_3 Cu3_4 1_555 1_555
C2_4 C3_5 1_555 1_555
C3_5 H2_5 1_555 1_555
C4_5 C2_4 1_555 1_555
H3_5 C4_5 1_555 1_555
C6_5 C3_5 1_555 1_555
C7_5 C4_5 1_555 1_555
H5_5 C6_5 1_555 1_555
C8_4 C6_5 1_555 1_555
H6_5 C7_5 1_555 1_555
C7_5 C8_4 1_555 1_555
C2_3 C3_6 1_555 1_555
C3_6 H2_6 1_555 1_555
C4_6 C2_3 1_555 1_555
H3_6 C4_6 1_555 1_555
C6_6 C3_6 1_555 1_555
C7_6 C4_6 1_555 1_555
H5_6 C6_6 1_555 1_555
C8_3 C6_6 1_555 1_555
H6_6 C7_6 1_555 1_555
C7_6 C8_3 1_555 1_555
C2_2 C3_7 1_555 1_555
C3_7 H2_7 1_555 1_555
C4_7 C2_2 1_555 1_555
H3_7 C4_7 1_555 1_555
C6_7 C3_7 1_555 1_555
C7_7 C4_7 1_555 1_555
H5_7 C6_7 1_555 1_555
C8_2 C6_7 1_555 1_555
H6_7 C7_7 1_555 1_555
C7_7 C8_2 1_555 1_555
C2 C3_8 1_555 1_555
C3_8 H2_8 1_555 1_555
C4_8 C2 1_555 1_555
H3_8 C4_8 1_555 1_555
C6_8 C3_8 1_555 1_555
C7_8 C4_8 1_555 1_555
H5_8 C6_8 1_555 1_555
C8 C6_8 1_555 1_555
H6_8 C7_8 1_555 1_555
C7_8 C8 1_555 1_555

#END
