
###############################################################################
#
# This file contains modified crystal structure data generated from the
# MOF subset of the Cambridge Structural Database (CSD) v543 
# hosted by the Cambridge Crystallographic Data Centre (CCDC).
#
# This work is licensed under the Creative Commons
# Attribution-NonCommercial-ShareAlike 4.0 International License.
# To view a copy of this license, visit
# http://creativecommons.org/licenses/by-nc-sa/4.0/
# or send a letter to
# Creative Commons, PO Box 1866, Mountain View, CA 94042, USA.
#
# CIF created using the CSD Python API on 29 September 2022
# The structure has been converted into the P1 space group
# The structure has a 3D framework
# The original CSD entry XANMUX03 is in the orthorhombic crystal system
# The framework has been calculated to contain at least 10.0% void space
# The void calculation uses a probe of radius 1.32A, grid spacing 0.4
# The framework is charged, counterions have been retained in the structure
#
###############################################################################

data_XANMUX03
_chemical_formula_moiety         '(C56 H48 Br11 Cu4 N24 4-)n'
_symmetry_cell_setting           triclinic
_symmetry_space_group_name_H-M   'P 1'
_symmetry_Int_Tables_number      1
_space_group_name_Hall           'P 1'
loop_
_symmetry_equiv_pos_site_id
_symmetry_equiv_pos_as_xyz
1 x,y,z
_cell_length_a                   21.742(4)
_cell_length_b                   7.3670(15)
_cell_length_c                   14.417(3)
_cell_angle_alpha                90
_cell_angle_beta                 90
_cell_angle_gamma                90
_cell_volume                     2309.22
loop_
_atom_site_label
_atom_site_type_symbol
_atom_site_fract_x
_atom_site_fract_y
_atom_site_fract_z
Br1 Br 0.2811(3) 0.2500 0.4265(5)
Br1_2 Br 0.7189(3) 0.2500 0.4265(5)
Br1_3 Br 0.2811(3) 0.7500 0.5735(5)
Br1_4 Br 0.7189(3) 0.7500 0.5735(5)
Br1_5 Br 0.7811(3) 0.7500 0.9265(5)
Br1_6 Br 0.2189(3) 0.7500 0.9265(5)
Br1_7 Br 0.7811(3) 0.2500 0.0735(5)
Br1_8 Br 0.2189(3) 0.2500 0.0735(5)
Cu2 Cu 0.5000 -0.0000 0.5000
H4 H 0.3769 0.0186 0.3792
H8 H 0.1231 0.0186 0.1208
Cu4 Cu -0.0000 0.0000 0.0000
Cu4_2 Cu 0.0000 0.0000 1.0000
Br2 Br 0.5000 0.2500 0.35163(9)
Cu1 Cu 0.5000 0.5000 0.5000
N1 N 0.4352(2) 0.3449(8) 0.5597(4)
C1 C 0.3876(3) 0.6015(12) 0.3908(5)
N2 N 0.3566(4) 0.7500 0.3592(7)
H1 H 0.3769 0.4814 0.3792
C2 C 0.3020(5) 0.7500 0.3029(8)
C3 C 0.3005(7) 0.852(3) 0.2239(13)
C4 C 0.2538(8) 0.850(3) 0.3318(14)
H2 H 0.3347 0.9263 0.2061
H3 H 0.2558 0.9142 0.3897
Br3 Br 0.5000 0.7500 0.64837(9)
N3 N 0.4352(2) 0.6551(8) 0.4403(4)
N4 N 0.5648(2) 0.3449(8) 0.5597(4)
N5 N 0.5648(2) 0.6551(8) 0.4403(4)
Cu2_2 Cu 0.5000 1.0000 0.5000
N6 N 0.4352(2) 0.8449(8) 0.4403(4)
C5 C 0.3876(3) 0.8985(12) 0.3908(5)
C6 C 0.2462(8) 0.850(3) 0.1682(14)
C7 C 0.1995(7) 0.852(3) 0.2761(13)
H5 H 0.2442 0.9142 0.1103
C8 C 0.1980(5) 0.7500 0.1971(8)
H6 H 0.1653 0.9263 0.2939
N7 N 0.1434(4) 0.7500 0.1408(7)
C9 C 0.1124(3) 0.6015(12) 0.1092(5)
C10 C 0.1124(3) 0.8985(12) 0.1092(5)
N8 N 0.0648(2) 0.6551(8) 0.0597(4)
H7 H 0.1231 0.4814 0.1208
N9 N 0.0648(2) 0.8449(8) 0.0597(4)
Cu3 Cu -0.0000 0.5000 0.0000
Cu4_3 Cu -0.0000 1.0000 0.0000
Cu3_2 Cu -0.0000 0.5000 1.0000
Cu4_4 Cu -0.0000 1.0000 1.0000
Cu4_5 Cu 1.0000 0.0000 0.0000
Cu4_6 Cu 1.0000 0.0000 1.0000
Cu3_3 Cu 1.0000 0.5000 0.0000
Cu4_7 Cu 1.0000 1.0000 0.0000
Cu3_4 Cu 1.0000 0.5000 1.0000
Cu4_8 Cu 1.0000 1.0000 1.0000
N1_2 N 0.5648(2) 0.1551(8) 0.5597(4)
H1_2 H 0.6231 0.0186 0.3792
N4_2 N 0.4352(2) 0.1551(8) 0.5597(4)
H7_2 H 0.8769 0.0186 0.1208
C1_2 C 0.6124(3) 0.8985(12) 0.3908(5)
N2_2 N 0.6434(4) 0.7500 0.3592(7)
C2_2 C 0.6980(5) 0.7500 0.3029(8)
C3_2 C 0.6995(7) 0.648(3) 0.2239(13)
C4_2 C 0.7462(8) 0.650(3) 0.3318(14)
H2_2 H 0.6653 0.5737 0.2061
H3_2 H 0.7442 0.5858 0.3897
N3_2 N 0.5648(2) 0.8449(8) 0.4403(4)
C5_2 C 0.6124(3) 0.6015(12) 0.3908(5)
H4_2 H 0.6231 0.4814 0.3792
C6_2 C 0.7538(8) 0.650(3) 0.1682(14)
C7_2 C 0.8005(7) 0.648(3) 0.2761(13)
H5_2 H 0.7558 0.5858 0.1103
C8_2 C 0.8020(5) 0.7500 0.1971(8)
H6_2 H 0.8347 0.5737 0.2939
N7_2 N 0.8566(4) 0.7500 0.1408(7)
C9_2 C 0.8876(3) 0.8985(12) 0.1092(5)
C10_2 C 0.8876(3) 0.6015(12) 0.1092(5)
N8_2 N 0.9352(2) 0.8449(8) 0.0597(4)
N9_2 N 0.9352(2) 0.6551(8) 0.0597(4)
H8_2 H 0.8769 0.4814 0.1208
C1_3 C 0.3876(3) 0.3985(12) 0.6092(5)
N2_3 N 0.3566(4) 0.2500 0.6408(7)
H1_3 H 0.3769 0.5186 0.6208
C2_3 C 0.3020(5) 0.2500 0.6971(8)
C3_3 C 0.3005(7) 0.148(3) 0.7761(13)
C4_3 C 0.2538(8) 0.150(3) 0.6682(14)
H2_3 H 0.3347 0.0737 0.7939
H3_3 H 0.2558 0.0858 0.6103
C5_3 C 0.3876(3) 0.1015(12) 0.6092(5)
C6_3 C 0.2462(8) 0.150(3) 0.8318(14)
C7_3 C 0.1995(7) 0.148(3) 0.7239(13)
H5_3 H 0.2442 0.0858 0.8897
C8_3 C 0.1980(5) 0.2500 0.8029(8)
H6_3 H 0.1653 0.0737 0.7061
N7_3 N 0.1434(4) 0.2500 0.8592(7)
C9_3 C 0.1124(3) 0.3985(12) 0.8908(5)
C10_3 C 0.1124(3) 0.1015(12) 0.8908(5)
N8_3 N 0.0648(2) 0.3449(8) 0.9403(4)
H7_3 H 0.1231 0.5186 0.8792
N9_3 N 0.0648(2) 0.1551(8) 0.9403(4)
H4_3 H 0.3769 0.9814 0.6208
H8_3 H 0.1231 0.9814 0.8792
C1_4 C 0.6124(3) 0.1015(12) 0.6092(5)
N2_4 N 0.6434(4) 0.2500 0.6408(7)
C2_4 C 0.6980(5) 0.2500 0.6971(8)
C3_4 C 0.6995(7) 0.352(3) 0.7761(13)
C4_4 C 0.7462(8) 0.350(3) 0.6682(14)
H2_4 H 0.6653 0.4263 0.7939
H3_4 H 0.7442 0.4142 0.6103
C5_4 C 0.6124(3) 0.3985(12) 0.6092(5)
H4_4 H 0.6231 0.5186 0.6208
C6_4 C 0.7538(8) 0.350(3) 0.8318(14)
C7_4 C 0.8005(7) 0.352(3) 0.7239(13)
H5_4 H 0.7558 0.4142 0.8897
C8_4 C 0.8020(5) 0.2500 0.8029(8)
H6_4 H 0.8347 0.4263 0.7061
N7_4 N 0.8566(4) 0.2500 0.8592(7)
C9_4 C 0.8876(3) 0.1015(12) 0.8908(5)
C10_4 C 0.8876(3) 0.3985(12) 0.8908(5)
N8_4 N 0.9352(2) 0.1551(8) 0.9403(4)
N9_4 N 0.9352(2) 0.3449(8) 0.9403(4)
H8_4 H 0.8769 0.5186 0.8792
H1_4 H 0.6231 0.9814 0.6208
H7_4 H 0.8769 0.9814 0.8792
Br3_2 Br -0.0000 0.2500 0.14837(9)
Br2_2 Br -0.0000 0.7500 0.85163(9)
Br3_3 Br 1.0000 0.2500 0.14837(9)
Br2_3 Br 1.0000 0.7500 0.85163(9)
C3_5 C 0.6995(7) 0.148(3) 0.7761(13)
C4_5 C 0.7462(8) 0.150(3) 0.6682(14)
H2_5 H 0.6653 0.0737 0.7939
H3_5 H 0.7442 0.0858 0.6103
C6_5 C 0.7538(8) 0.150(3) 0.8318(14)
C7_5 C 0.8005(7) 0.148(3) 0.7239(13)
H5_5 H 0.7558 0.0858 0.8897
H6_5 H 0.8347 0.0737 0.7061
C3_6 C 0.3005(7) 0.352(3) 0.7761(13)
C4_6 C 0.2538(8) 0.350(3) 0.6682(14)
H2_6 H 0.3347 0.4263 0.7939
H3_6 H 0.2558 0.4142 0.6103
C6_6 C 0.2462(8) 0.350(3) 0.8318(14)
C7_6 C 0.1995(7) 0.352(3) 0.7239(13)
H5_6 H 0.2442 0.4142 0.8897
H6_6 H 0.1653 0.4263 0.7061
C3_7 C 0.6995(7) 0.852(3) 0.2239(13)
C4_7 C 0.7462(8) 0.850(3) 0.3318(14)
H2_7 H 0.6653 0.9263 0.2061
H3_7 H 0.7442 0.9142 0.3897
C6_7 C 0.7538(8) 0.850(3) 0.1682(14)
C7_7 C 0.8005(7) 0.852(3) 0.2761(13)
H5_7 H 0.7558 0.9142 0.1103
H6_7 H 0.8347 0.9263 0.2939
C3_8 C 0.3005(7) 0.648(3) 0.2239(13)
C4_8 C 0.2538(8) 0.650(3) 0.3318(14)
H2_8 H 0.3347 0.5737 0.2061
H3_8 H 0.2558 0.5858 0.3897
C6_8 C 0.2462(8) 0.650(3) 0.1682(14)
C7_8 C 0.1995(7) 0.648(3) 0.2761(13)
H5_8 H 0.2442 0.5858 0.1103
H6_8 H 0.1653 0.5737 0.2939
loop_
_geom_bond_atom_site_label_1
_geom_bond_atom_site_label_2
_geom_bond_site_symmetry_1
_geom_bond_site_symmetry_2
Br2 Cu1 1_555 1_555
Cu1 N1 1_555 1_555
C1 N2 1_555 1_555
N2 C2 1_555 1_555
H1 C1 1_555 1_555
C2 C3 1_555 1_555
C3 H2 1_555 1_555
C4 C2 1_555 1_555
H3 C4 1_555 1_555
Br3 Cu1 1_555 1_555
N3 Cu1 1_555 1_555
N4 Cu1 1_555 1_555
N5 Cu1 1_555 1_555
Cu2_2 Br3 1_555 1_555
N6 N3 1_555 1_555
C5 N2 1_555 1_555
C6 C3 1_555 1_555
C7 C4 1_555 1_555
H5 C6 1_555 1_555
C8 C6 1_555 1_555
H6 C7 1_555 1_555
N7 C8 1_555 1_555
C9 N7 1_555 1_555
C10 N7 1_555 1_555
N8 C9 1_555 1_555
H7 C9 1_555 1_555
N9 C10 1_555 1_555
Cu3 N8 1_555 1_555
Cu4_3 N9 1_555 1_555
C1 N3 1_555 1_555
Cu2_2 N6 1_555 1_555
N6 C5 1_555 1_555
C7 C8 1_555 1_555
N8 N9 1_555 1_555
Br2 Cu2 1_555 1_555
Cu2 N1_2 1_555 1_555
N4_2 Cu2 1_555 1_555
C1_2 N2_2 1_555 1_555
N2_2 C2_2 1_555 1_555
C2_2 C3_2 1_555 1_555
C3_2 H2_2 1_555 1_555
C4_2 C2_2 1_555 1_555
H3_2 C4_2 1_555 1_555
N3_2 Cu2_2 1_555 1_555
N5 N3_2 1_555 1_555
C5_2 N2_2 1_555 1_555
H4_2 C5_2 1_555 1_555
C6_2 C3_2 1_555 1_555
C7_2 C4_2 1_555 1_555
H5_2 C6_2 1_555 1_555
C8_2 C6_2 1_555 1_555
H6_2 C7_2 1_555 1_555
N7_2 C8_2 1_555 1_555
C9_2 N7_2 1_555 1_555
C10_2 N7_2 1_555 1_555
N8_2 C9_2 1_555 1_555
N9_2 C10_2 1_555 1_555
H8_2 C10_2 1_555 1_555
Cu4_7 N8_2 1_555 1_555
Cu3_3 N9_2 1_555 1_555
C1_2 N3_2 1_555 1_555
N5 C5_2 1_555 1_555
C7_2 C8_2 1_555 1_555
N8_2 N9_2 1_555 1_555
C1_3 N2_3 1_555 1_555
N2_3 C2_3 1_555 1_555
H1_3 C1_3 1_555 1_555
C2_3 C3_3 1_555 1_555
C3_3 H2_3 1_555 1_555
C4_3 C2_3 1_555 1_555
H3_3 C4_3 1_555 1_555
N4_2 N1 1_555 1_555
C5_3 N2_3 1_555 1_555
C6_3 C3_3 1_555 1_555
C7_3 C4_3 1_555 1_555
H5_3 C6_3 1_555 1_555
C8_3 C6_3 1_555 1_555
H6_3 C7_3 1_555 1_555
N7_3 C8_3 1_555 1_555
C9_3 N7_3 1_555 1_555
C10_3 N7_3 1_555 1_555
N8_3 C9_3 1_555 1_555
H7_3 C9_3 1_555 1_555
N9_3 C10_3 1_555 1_555
Cu3_2 N8_3 1_555 1_555
Cu4_2 N9_3 1_555 1_555
C1_3 N1 1_555 1_555
N4_2 C5_3 1_555 1_555
C7_3 C8_3 1_555 1_555
N8_3 N9_3 1_555 1_555
C1_4 N2_4 1_555 1_555
N2_4 C2_4 1_555 1_555
C2_4 C3_4 1_555 1_555
C3_4 H2_4 1_555 1_555
C4_4 C2_4 1_555 1_555
H3_4 C4_4 1_555 1_555
N4 N1_2 1_555 1_555
C5_4 N2_4 1_555 1_555
H4_4 C5_4 1_555 1_555
C6_4 C3_4 1_555 1_555
C7_4 C4_4 1_555 1_555
H5_4 C6_4 1_555 1_555
C8_4 C6_4 1_555 1_555
H6_4 C7_4 1_555 1_555
N7_4 C8_4 1_555 1_555
C9_4 N7_4 1_555 1_555
C10_4 N7_4 1_555 1_555
N8_4 C9_4 1_555 1_555
N9_4 C10_4 1_555 1_555
H8_4 C10_4 1_555 1_555
Cu4_6 N8_4 1_555 1_555
Cu3_4 N9_4 1_555 1_555
C1_4 N1_2 1_555 1_555
N4 C5_4 1_555 1_555
C7_4 C8_4 1_555 1_555
N8_4 N9_4 1_555 1_555
Br3_2 Cu4 1_555 1_555
Cu3 Br3_2 1_555 1_555
Br2_2 Cu4_4 1_555 1_555
Br3_3 Cu4_5 1_555 1_555
Cu3_3 Br3_3 1_555 1_555
Br2_3 Cu4_8 1_555 1_555
Br2_2 Cu3_2 1_555 1_555
Br2_3 Cu3_4 1_555 1_555
C2_4 C3_5 1_555 1_555
C3_5 H2_5 1_555 1_555
C4_5 C2_4 1_555 1_555
H3_5 C4_5 1_555 1_555
C6_5 C3_5 1_555 1_555
C7_5 C4_5 1_555 1_555
H5_5 C6_5 1_555 1_555
C8_4 C6_5 1_555 1_555
H6_5 C7_5 1_555 1_555
C7_5 C8_4 1_555 1_555
C2_3 C3_6 1_555 1_555
C3_6 H2_6 1_555 1_555
C4_6 C2_3 1_555 1_555
H3_6 C4_6 1_555 1_555
C6_6 C3_6 1_555 1_555
C7_6 C4_6 1_555 1_555
H5_6 C6_6 1_555 1_555
C8_3 C6_6 1_555 1_555
H6_6 C7_6 1_555 1_555
C7_6 C8_3 1_555 1_555
C2_2 C3_7 1_555 1_555
C3_7 H2_7 1_555 1_555
C4_7 C2_2 1_555 1_555
H3_7 C4_7 1_555 1_555
C6_7 C3_7 1_555 1_555
C7_7 C4_7 1_555 1_555
H5_7 C6_7 1_555 1_555
C8_2 C6_7 1_555 1_555
H6_7 C7_7 1_555 1_555
C7_7 C8_2 1_555 1_555
C2 C3_8 1_555 1_555
C3_8 H2_8 1_555 1_555
C4_8 C2 1_555 1_555
H3_8 C4_8 1_555 1_555
C6_8 C3_8 1_555 1_555
C7_8 C4_8 1_555 1_555
H5_8 C6_8 1_555 1_555
C8 C6_8 1_555 1_555
H6_8 C7_8 1_555 1_555
C7_8 C8 1_555 1_555

#END
