
###############################################################################
#
# This file contains modified crystal structure data generated from the
# MOF subset of the Cambridge Structural Database (CSD) v543 
# hosted by the Cambridge Crystallographic Data Centre (CCDC).
#
# This work is licensed under the Creative Commons
# Attribution-NonCommercial-ShareAlike 4.0 International License.
# To view a copy of this license, visit
# http://creativecommons.org/licenses/by-nc-sa/4.0/
# or send a letter to
# Creative Commons, PO Box 1866, Mountain View, CA 94042, USA.
#
# CIF created using the CSD Python API on 29 September 2022
# The structure has been converted into the P1 space group
# The structure has a 3D framework
# The original CSD entry XANMUX is in the orthorhombic crystal system
# The framework has been calculated to contain at least 10.0% void space
# The void calculation uses a probe of radius 1.32A, grid spacing 0.4
# The framework is charged, counterions have been retained in the structure
#
###############################################################################

data_XANMUX
_chemical_formula_moiety         '(C56 H48 Br11 Cu4 N24 4-)n'
_symmetry_cell_setting           triclinic
_symmetry_space_group_name_H-M   'P 1'
_symmetry_Int_Tables_number      1
_space_group_name_Hall           'P 1'
loop_
_symmetry_equiv_pos_site_id
_symmetry_equiv_pos_as_xyz
1 x,y,z
_cell_length_a                   21.526(3)
_cell_length_b                   7.3473(9)
_cell_length_c                   14.680(2)
_cell_angle_alpha                90
_cell_angle_beta                 90
_cell_angle_gamma                90
_cell_volume                     2321.76
loop_
_atom_site_label
_atom_site_type_symbol
_atom_site_fract_x
_atom_site_fract_y
_atom_site_fract_z
Br1 Br 0.2215(2) 0.2500 0.5721(4)
Br1_2 Br 0.7785(2) 0.2500 0.5721(4)
Br1_3 Br 0.2215(2) 0.7500 0.4279(4)
Br1_4 Br 0.7785(2) 0.7500 0.4279(4)
Br1_5 Br 0.7215(2) 0.7500 0.0721(4)
Br1_6 Br 0.2785(2) 0.7500 0.0721(4)
Br1_7 Br 0.7215(2) 0.2500 0.9279(4)
Br1_8 Br 0.2785(2) 0.2500 0.9279(4)
Cu3 Cu 0.5000 -0.0000 0.0000
Cu2 Cu -0.0000 -0.0000 0.5000
H4 H 0.1240 0.0169 0.6195
H7 H 0.3760 0.0169 0.8805
Cu3_2 Cu 0.5000 -0.0000 1.0000
Cu3_3 Cu 0.5000 1.0000 0.0000
Cu4 Cu 0.5000 0.5000 0.0000
Br2 Br 0.0000 0.2500 0.64568(7)
Cu1 Cu 0.0000 0.5000 0.5000
N1 N 0.06589(17) 0.3436(5) 0.4402(3)
C1 C 0.1131(2) 0.6035(7) 0.6086(4)
N2 N 0.1437(3) 0.7500 0.6407(5)
H1 H 0.1240 0.4831 0.6195
C2 C 0.1983(4) 0.7500 0.6971(6)
C3 C 0.2476(6) 0.6451(19) 0.6709(10)
C4 C 0.1984(5) 0.853(2) 0.7735(10)
H2 H 0.2460 0.5753 0.6156
H3 H 0.1625 0.9231 0.7897
N3 N 0.06589(17) 0.6564(5) 0.5598(3)
Br3 Br 0.0000 0.7500 0.35432(7)
N6 N 0.06589(17) 0.8436(5) 0.5598(3)
Cu2_2 Cu -0.0000 1.0000 0.5000
C5 C 0.1131(2) 0.8965(7) 0.6086(4)
C6 C 0.3016(5) 0.647(2) 0.7265(10)
C7 C 0.2524(6) 0.8549(19) 0.8291(10)
C8 C 0.3017(4) 0.7500 0.8029(6)
H5 H 0.3375 0.5769 0.7103
H6 H 0.2540 0.9247 0.8844
N7 N 0.3563(3) 0.7500 0.8593(5)
C9 C 0.3869(2) 0.8965(7) 0.8914(4)
C10 C 0.3869(2) 0.6035(7) 0.8914(4)
N8 N 0.43411(17) 0.8436(5) 0.9402(3)
N9 N 0.43411(17) 0.6564(5) 0.9402(3)
H8 H 0.3760 0.4831 0.8805
Cu3_4 Cu 0.5000 1.0000 1.0000
Cu4_2 Cu 0.5000 0.5000 1.0000
Cu2_3 Cu 1.0000 -0.0000 0.5000
Br2_2 Br 1.0000 0.2500 0.64568(7)
Cu1_2 Cu 1.0000 0.5000 0.5000
N4 N 0.93411(17) 0.3436(5) 0.4402(3)
Br3_2 Br 1.0000 0.7500 0.35432(7)
N5 N 0.93411(17) 0.6564(5) 0.5598(3)
Cu2_4 Cu 1.0000 1.0000 0.5000
N4_2 N 0.06589(17) 0.1564(5) 0.4402(3)
N1_2 N 0.93411(17) 0.1564(5) 0.4402(3)
H1_2 H 0.8760 0.0169 0.6195
H8_2 H 0.6240 0.0169 0.8805
C1_2 C 0.8869(2) 0.8965(7) 0.6086(4)
N2_2 N 0.8563(3) 0.7500 0.6407(5)
C2_2 C 0.8017(4) 0.7500 0.6971(6)
C3_2 C 0.7524(6) 0.8549(19) 0.6709(10)
C4_2 C 0.8016(5) 0.647(2) 0.7735(10)
H2_2 H 0.7540 0.9247 0.6156
H3_2 H 0.8375 0.5769 0.7897
N3_2 N 0.93411(17) 0.8436(5) 0.5598(3)
C5_2 C 0.8869(2) 0.6035(7) 0.6086(4)
H4_2 H 0.8760 0.4831 0.6195
C6_2 C 0.6984(5) 0.853(2) 0.7265(10)
C7_2 C 0.7476(6) 0.6451(19) 0.8291(10)
C8_2 C 0.6983(4) 0.7500 0.8029(6)
H5_2 H 0.6625 0.9231 0.7103
H6_2 H 0.7460 0.5753 0.8844
N7_2 N 0.6437(3) 0.7500 0.8593(5)
C9_2 C 0.6131(2) 0.6035(7) 0.8914(4)
C10_2 C 0.6131(2) 0.8965(7) 0.8914(4)
N8_2 N 0.56589(17) 0.6564(5) 0.9402(3)
H7_2 H 0.6240 0.4831 0.8805
N9_2 N 0.56589(17) 0.8436(5) 0.9402(3)
C1_3 C 0.1131(2) 0.3965(7) 0.3914(4)
N2_3 N 0.1437(3) 0.2500 0.3593(5)
H1_3 H 0.1240 0.5169 0.3805
C2_3 C 0.1983(4) 0.2500 0.3029(6)
C3_3 C 0.2476(6) 0.3549(19) 0.3291(10)
C4_3 C 0.1984(5) 0.147(2) 0.2265(10)
H2_3 H 0.2460 0.4247 0.3844
H3_3 H 0.1625 0.0769 0.2103
C5_3 C 0.1131(2) 0.1035(7) 0.3914(4)
C6_3 C 0.3016(5) 0.353(2) 0.2735(10)
C7_3 C 0.2524(6) 0.1451(19) 0.1709(10)
C8_3 C 0.3017(4) 0.2500 0.1971(6)
H5_3 H 0.3375 0.4231 0.2897
H6_3 H 0.2540 0.0753 0.1156
N7_3 N 0.3563(3) 0.2500 0.1407(5)
C9_3 C 0.3869(2) 0.1035(7) 0.1086(4)
C10_3 C 0.3869(2) 0.3965(7) 0.1086(4)
N8_3 N 0.43411(17) 0.1564(5) 0.0598(3)
N9_3 N 0.43411(17) 0.3436(5) 0.0598(3)
H8_3 H 0.3760 0.5169 0.1195
H4_3 H 0.1240 0.9831 0.3805
H7_3 H 0.3760 0.9831 0.1195
C1_4 C 0.8869(2) 0.1035(7) 0.3914(4)
N2_4 N 0.8563(3) 0.2500 0.3593(5)
C2_4 C 0.8017(4) 0.2500 0.3029(6)
C3_4 C 0.7524(6) 0.1451(19) 0.3291(10)
C4_4 C 0.8016(5) 0.353(2) 0.2265(10)
H2_4 H 0.7540 0.0753 0.3844
H3_4 H 0.8375 0.4231 0.2103
C5_4 C 0.8869(2) 0.3965(7) 0.3914(4)
H4_4 H 0.8760 0.5169 0.3805
C6_4 C 0.6984(5) 0.147(2) 0.2735(10)
C7_4 C 0.7476(6) 0.3549(19) 0.1709(10)
C8_4 C 0.6983(4) 0.2500 0.1971(6)
H5_4 H 0.6625 0.0769 0.2897
H6_4 H 0.7460 0.4247 0.1156
N7_4 N 0.6437(3) 0.2500 0.1407(5)
C9_4 C 0.6131(2) 0.3965(7) 0.1086(4)
C10_4 C 0.6131(2) 0.1035(7) 0.1086(4)
N8_4 N 0.56589(17) 0.3436(5) 0.0598(3)
H7_4 H 0.6240 0.5169 0.1195
N9_4 N 0.56589(17) 0.1564(5) 0.0598(3)
H1_4 H 0.8760 0.9831 0.3805
H8_4 H 0.6240 0.9831 0.1195
C3_5 C 0.7476(6) 0.1451(19) 0.1709(10)
C4_5 C 0.6984(5) 0.353(2) 0.2735(10)
H2_5 H 0.7460 0.0753 0.1156
H3_5 H 0.6625 0.4231 0.2897
C6_5 C 0.8016(5) 0.147(2) 0.2265(10)
C7_5 C 0.7524(6) 0.3549(19) 0.3291(10)
H5_5 H 0.8375 0.0769 0.2103
H6_5 H 0.7540 0.4247 0.3844
Br3_3 Br 0.5000 0.2500 0.85432(7)
Br2_3 Br 0.5000 0.7500 0.14568(7)
C3_6 C 0.2524(6) 0.3549(19) 0.1709(10)
C4_6 C 0.3016(5) 0.147(2) 0.2735(10)
H2_6 H 0.2540 0.4247 0.1156
H3_6 H 0.3375 0.0769 0.2897
C6_6 C 0.1984(5) 0.353(2) 0.2265(10)
C7_6 C 0.2476(6) 0.1451(19) 0.3291(10)
H5_6 H 0.1625 0.4231 0.2103
H6_6 H 0.2460 0.0753 0.3844
C3_7 C 0.7476(6) 0.8549(19) 0.8291(10)
C4_7 C 0.6984(5) 0.647(2) 0.7265(10)
H2_7 H 0.7460 0.9247 0.8844
H3_7 H 0.6625 0.5769 0.7103
C6_7 C 0.8016(5) 0.853(2) 0.7735(10)
C7_7 C 0.7524(6) 0.6451(19) 0.6709(10)
H5_7 H 0.8375 0.9231 0.7897
H6_7 H 0.7540 0.5753 0.6156
C3_8 C 0.2524(6) 0.6451(19) 0.8291(10)
C4_8 C 0.3016(5) 0.853(2) 0.7265(10)
H2_8 H 0.2540 0.5753 0.8844
H3_8 H 0.3375 0.9231 0.7103
C6_8 C 0.1984(5) 0.647(2) 0.7735(10)
C7_8 C 0.2476(6) 0.8549(19) 0.6709(10)
H5_8 H 0.1625 0.5769 0.7897
H6_8 H 0.2460 0.9247 0.6156
loop_
_geom_bond_atom_site_label_1
_geom_bond_atom_site_label_2
_geom_bond_site_symmetry_1
_geom_bond_site_symmetry_2
Br2 Cu1 1_555 1_555
Cu1 N1 1_555 1_555
C1 N2 1_555 1_555
N2 C2 1_555 1_555
H1 C1 1_555 1_555
C2 C3 1_555 1_555
C3 H2 1_555 1_555
C4 C2 1_555 1_555
H3 C4 1_555 1_555
N3 Cu1 1_555 1_555
Br3 Cu1 1_555 1_555
N6 N3 1_555 1_555
Cu2_2 Br3 1_555 1_555
C5 N2 1_555 1_555
C6 C3 1_555 1_555
C7 C4 1_555 1_555
C8 C6 1_555 1_555
H5 C6 1_555 1_555
H6 C7 1_555 1_555
N7 C8 1_555 1_555
C9 N7 1_555 1_555
C10 N7 1_555 1_555
N8 C9 1_555 1_555
N9 C10 1_555 1_555
H8 C10 1_555 1_555
Cu3_4 N8 1_555 1_555
Cu4_2 N9 1_555 1_555
C1 N3 1_555 1_555
N6 Cu2_2 1_555 1_555
N6 C5 1_555 1_555
C7 C8 1_555 1_555
N8 N9 1_555 1_555
Br2_2 Cu1_2 1_555 1_555
N4 Cu1_2 1_555 1_555
Br3_2 Cu1_2 1_555 1_555
N5 Cu1_2 1_555 1_555
Cu2_4 Br3_2 1_555 1_555
Br2 Cu2 1_555 1_555
N4_2 Cu2 1_555 1_555
Br2_2 Cu2_3 1_555 1_555
Cu2_3 N1_2 1_555 1_555
C1_2 N2_2 1_555 1_555
N2_2 C2_2 1_555 1_555
C2_2 C3_2 1_555 1_555
C3_2 H2_2 1_555 1_555
C4_2 C2_2 1_555 1_555
H3_2 C4_2 1_555 1_555
N3_2 Cu2_4 1_555 1_555
N5 N3_2 1_555 1_555
C5_2 N2_2 1_555 1_555
H4_2 C5_2 1_555 1_555
C6_2 C3_2 1_555 1_555
C7_2 C4_2 1_555 1_555
C8_2 C6_2 1_555 1_555
H5_2 C6_2 1_555 1_555
H6_2 C7_2 1_555 1_555
N7_2 C8_2 1_555 1_555
C9_2 N7_2 1_555 1_555
C10_2 N7_2 1_555 1_555
N8_2 C9_2 1_555 1_555
H7_2 C9_2 1_555 1_555
N9_2 C10_2 1_555 1_555
Cu4_2 N8_2 1_555 1_555
Cu3_4 N9_2 1_555 1_555
C1_2 N3_2 1_555 1_555
N5 C5_2 1_555 1_555
C7_2 C8_2 1_555 1_555
N8_2 N9_2 1_555 1_555
C1_3 N2_3 1_555 1_555
N2_3 C2_3 1_555 1_555
H1_3 C1_3 1_555 1_555
C2_3 C3_3 1_555 1_555
C3_3 H2_3 1_555 1_555
C4_3 C2_3 1_555 1_555
H3_3 C4_3 1_555 1_555
N4_2 N1 1_555 1_555
C5_3 N2_3 1_555 1_555
C6_3 C3_3 1_555 1_555
C7_3 C4_3 1_555 1_555
C8_3 C6_3 1_555 1_555
H5_3 C6_3 1_555 1_555
H6_3 C7_3 1_555 1_555
N7_3 C8_3 1_555 1_555
C9_3 N7_3 1_555 1_555
C10_3 N7_3 1_555 1_555
N8_3 C9_3 1_555 1_555
N9_3 C10_3 1_555 1_555
H8_3 C10_3 1_555 1_555
Cu3 N8_3 1_555 1_555
Cu4 N9_3 1_555 1_555
C1_3 N1 1_555 1_555
N4_2 C5_3 1_555 1_555
C7_3 C8_3 1_555 1_555
N8_3 N9_3 1_555 1_555
C1_4 N2_4 1_555 1_555
N2_4 C2_4 1_555 1_555
C2_4 C3_4 1_555 1_555
C3_4 H2_4 1_555 1_555
C4_4 C2_4 1_555 1_555
H3_4 C4_4 1_555 1_555
N4 N1_2 1_555 1_555
C5_4 N2_4 1_555 1_555
H4_4 C5_4 1_555 1_555
C6_4 C3_4 1_555 1_555
C7_4 C4_4 1_555 1_555
C8_4 C6_4 1_555 1_555
H5_4 C6_4 1_555 1_555
H6_4 C7_4 1_555 1_555
N7_4 C8_4 1_555 1_555
C9_4 N7_4 1_555 1_555
C10_4 N7_4 1_555 1_555
N8_4 C9_4 1_555 1_555
H7_4 C9_4 1_555 1_555
N9_4 C10_4 1_555 1_555
Cu4 N8_4 1_555 1_555
Cu3 N9_4 1_555 1_555
C1_4 N1_2 1_555 1_555
N4 C5_4 1_555 1_555
C7_4 C8_4 1_555 1_555
N8_4 N9_4 1_555 1_555
C8_4 C3_5 1_555 1_555
C3_5 H2_5 1_555 1_555
C4_5 C8_4 1_555 1_555
H3_5 C4_5 1_555 1_555
C6_5 C3_5 1_555 1_555
C7_5 C4_5 1_555 1_555
C2_4 C6_5 1_555 1_555
H5_5 C6_5 1_555 1_555
H6_5 C7_5 1_555 1_555
C7_5 C2_4 1_555 1_555
Br3_3 Cu3_2 1_555 1_555
Cu4_2 Br3_3 1_555 1_555
Br2_3 Cu3_3 1_555 1_555
Br2_3 Cu4 1_555 1_555
C8_3 C3_6 1_555 1_555
C3_6 H2_6 1_555 1_555
C4_6 C8_3 1_555 1_555
H3_6 C4_6 1_555 1_555
C6_6 C3_6 1_555 1_555
C7_6 C4_6 1_555 1_555
C2_3 C6_6 1_555 1_555
H5_6 C6_6 1_555 1_555
H6_6 C7_6 1_555 1_555
C7_6 C2_3 1_555 1_555
C8_2 C3_7 1_555 1_555
C3_7 H2_7 1_555 1_555
C4_7 C8_2 1_555 1_555
H3_7 C4_7 1_555 1_555
C6_7 C3_7 1_555 1_555
C7_7 C4_7 1_555 1_555
C2_2 C6_7 1_555 1_555
H5_7 C6_7 1_555 1_555
H6_7 C7_7 1_555 1_555
C7_7 C2_2 1_555 1_555
C8 C3_8 1_555 1_555
C3_8 H2_8 1_555 1_555
C4_8 C8 1_555 1_555
H3_8 C4_8 1_555 1_555
C6_8 C3_8 1_555 1_555
C7_8 C4_8 1_555 1_555
C2 C6_8 1_555 1_555
H5_8 C6_8 1_555 1_555
H6_8 C7_8 1_555 1_555
C7_8 C2 1_555 1_555

#END
