
###############################################################################
#
# This file contains modified crystal structure data generated from the
# MOF subset of the Cambridge Structural Database (CSD) v543 
# hosted by the Cambridge Crystallographic Data Centre (CCDC).
#
# This work is licensed under the Creative Commons
# Attribution-NonCommercial-ShareAlike 4.0 International License.
# To view a copy of this license, visit
# http://creativecommons.org/licenses/by-nc-sa/4.0/
# or send a letter to
# Creative Commons, PO Box 1866, Mountain View, CA 94042, USA.
#
# CIF created using the CSD Python API on 29 September 2022
# The structure has been converted into the P1 space group
# The structure has a 3D framework
# The original CSD entry XANMUX08 is in the orthorhombic crystal system
# The framework has been calculated to contain at least 10.0% void space
# The void calculation uses a probe of radius 1.32A, grid spacing 0.4
# The framework is charged, counterions have been retained in the structure
#
###############################################################################

data_XANMUX08
_chemical_formula_moiety         '(C40 H32 Br11 Cu5 N24 3-)n'
_symmetry_cell_setting           triclinic
_symmetry_space_group_name_H-M   'P 1'
_symmetry_Int_Tables_number      1
_space_group_name_Hall           'P 1'
loop_
_symmetry_equiv_pos_site_id
_symmetry_equiv_pos_as_xyz
1 x,y,z
_cell_length_a                   20.780(4)
_cell_length_b                   7.2367(14)
_cell_length_c                   15.495(3)
_cell_angle_alpha                90
_cell_angle_beta                 90
_cell_angle_gamma                90
_cell_volume                     2330.12
loop_
_atom_site_label
_atom_site_type_symbol
_atom_site_fract_x
_atom_site_fract_y
_atom_site_fract_z
Br1 Br 0.2721(3) 0.2500 0.5326(10)
Br1_2 Br 0.7279(3) 0.2500 0.5326(10)
Br1_3 Br 0.2721(3) 0.7500 0.4674(10)
Br1_4 Br 0.7279(3) 0.7500 0.4674(10)
Br1_5 Br 0.7721(3) 0.7500 0.0326(10)
Br1_6 Br 0.2279(3) 0.7500 0.0326(10)
Br1_7 Br 0.7721(3) 0.2500 0.9674(10)
Br1_8 Br 0.2279(3) 0.2500 0.9674(10)
Cu1 Cu 0.5000 0.0000 0.5000
N1 N 0.4322(6) 0.1478(14) 0.4414(9)
N2 N 0.3584(8) 0.2500 0.3574(15)
C1 C 0.3868(7) 0.091(2) 0.3926(16)
C2 C 0.3018(10) 0.2500 0.3011(19)
C3 C 0.2667(18) 0.125(9) 0.284(4)
H2 H 0.2883 0.0082 0.2878
N3 N 0.0678(6) 0.1478(14) 0.0586(9)
N4 N 0.1416(8) 0.2500 0.1426(15)
C4 C 0.1132(7) 0.091(2) 0.1074(16)
C5 C 0.1982(10) 0.2500 0.1989(19)
C6 C 0.2333(18) 0.125(9) 0.216(4)
H4 H 0.2117 0.0082 0.2122
N5 N 0.4322(6) 0.3522(14) 0.4414(9)
C7 C 0.3868(7) 0.409(2) 0.3926(16)
H5 H 0.3750 0.5306 0.3823
C8 C 0.2667(18) 0.375(9) 0.284(4)
H6 H 0.2883 0.4918 0.2878
N6 N 0.0678(6) 0.3522(14) 0.0586(9)
C9 C 0.1132(7) 0.409(2) 0.1074(16)
H7 H 0.1250 0.5306 0.1177
C10 C 0.2333(18) 0.375(9) 0.216(4)
H8 H 0.2117 0.4918 0.2122
Br3 Br 0.5000 0.2500 0.6391(2)
Cu3 Cu 0.5000 0.5000 0.5000
Cu4 Cu 0.0000 0.5000 0.0000
Cu5 Cu 0.0000 0.0000 0.0000
N9 N 0.5678(6) 0.1478(14) 0.4414(9)
Cu4_2 Cu 0.0000 0.5000 1.0000
Cu5_2 Cu 0.0000 0.0000 1.0000
Br2 Br 0.5000 0.7500 0.3609(2)
Cu1_2 Cu 0.5000 1.0000 0.5000
H1 H 0.3750 0.9694 0.3823
H3 H 0.1250 0.9694 0.1177
Cu5_3 Cu 0.0000 1.0000 0.0000
N7 N 0.4322(6) 0.8522(14) 0.5586(9)
N8 N 0.5678(6) 0.8522(14) 0.5586(9)
Cu5_4 Cu -0.0000 1.0000 1.0000
Cu4_3 Cu 1.0000 0.5000 0.0000
Cu5_5 Cu 1.0000 0.0000 0.0000
Cu4_4 Cu 1.0000 0.5000 1.0000
Cu5_6 Cu 1.0000 0.0000 1.0000
Cu5_7 Cu 1.0000 1.0000 0.0000
Cu5_8 Cu 1.0000 1.0000 1.0000
N1_2 N 0.5678(6) 0.3522(14) 0.4414(9)
N2_2 N 0.6416(8) 0.2500 0.3574(15)
C1_2 C 0.6132(7) 0.409(2) 0.3926(16)
H1_2 H 0.6250 0.5306 0.3823
C2_2 C 0.6982(10) 0.2500 0.3011(19)
C3_2 C 0.7333(18) 0.375(9) 0.284(4)
H2_2 H 0.7117 0.4918 0.2878
N3_2 N 0.9322(6) 0.3522(14) 0.0586(9)
N4_2 N 0.8584(8) 0.2500 0.1426(15)
C4_2 C 0.8868(7) 0.409(2) 0.1074(16)
H3_2 H 0.8750 0.5306 0.1177
C5_2 C 0.8018(10) 0.2500 0.1989(19)
C6_2 C 0.7667(18) 0.375(9) 0.216(4)
H4_2 H 0.7883 0.4918 0.2122
C7_2 C 0.6132(7) 0.091(2) 0.3926(16)
C8_2 C 0.7333(18) 0.125(9) 0.284(4)
H6_2 H 0.7117 0.0082 0.2878
N6_2 N 0.9322(6) 0.1478(14) 0.0586(9)
C9_2 C 0.8868(7) 0.091(2) 0.1074(16)
C10_2 C 0.7667(18) 0.125(9) 0.216(4)
H8_2 H 0.7883 0.0082 0.2122
N7_2 N 0.5678(6) 0.6478(14) 0.5586(9)
N8_2 N 0.4322(6) 0.6478(14) 0.5586(9)
H5_2 H 0.6250 0.9694 0.3823
H7_2 H 0.8750 0.9694 0.1177
H1_3 H 0.3750 0.0306 0.6177
H3_3 H 0.1250 0.0306 0.8823
N2_3 N 0.3584(8) 0.7500 0.6426(15)
C1_3 C 0.3868(7) 0.909(2) 0.6074(16)
C2_3 C 0.3018(10) 0.7500 0.6989(19)
C3_3 C 0.2667(18) 0.875(9) 0.716(4)
H2_3 H 0.2883 0.9918 0.7122
N3_3 N 0.0678(6) 0.8522(14) 0.9414(9)
N4_3 N 0.1416(8) 0.7500 0.8574(15)
C4_3 C 0.1132(7) 0.909(2) 0.8926(16)
C5_3 C 0.1982(10) 0.7500 0.8011(19)
C6_3 C 0.2333(18) 0.875(9) 0.784(4)
H4_3 H 0.2117 0.9918 0.7878
C7_3 C 0.3868(7) 0.591(2) 0.6074(16)
H5_3 H 0.3750 0.4694 0.6177
C8_3 C 0.2667(18) 0.625(9) 0.716(4)
H6_3 H 0.2883 0.5082 0.7122
N6_3 N 0.0678(6) 0.6478(14) 0.9414(9)
C9_3 C 0.1132(7) 0.591(2) 0.8926(16)
H7_3 H 0.1250 0.4694 0.8823
C10_3 C 0.2333(18) 0.625(9) 0.784(4)
H8_3 H 0.2117 0.5082 0.7878
H5_4 H 0.6250 0.0306 0.6177
H7_4 H 0.8750 0.0306 0.8823
N2_4 N 0.6416(8) 0.7500 0.6426(15)
C1_4 C 0.6132(7) 0.591(2) 0.6074(16)
H1_4 H 0.6250 0.4694 0.6177
C2_4 C 0.6982(10) 0.7500 0.6989(19)
C3_4 C 0.7333(18) 0.625(9) 0.716(4)
H2_4 H 0.7117 0.5082 0.7122
N3_4 N 0.9322(6) 0.6478(14) 0.9414(9)
N4_4 N 0.8584(8) 0.7500 0.8574(15)
C4_4 C 0.8868(7) 0.591(2) 0.8926(16)
H3_4 H 0.8750 0.4694 0.8823
C5_4 C 0.8018(10) 0.7500 0.8011(19)
C6_4 C 0.7667(18) 0.625(9) 0.784(4)
H4_4 H 0.7883 0.5082 0.7878
C7_4 C 0.6132(7) 0.909(2) 0.6074(16)
C8_4 C 0.7333(18) 0.875(9) 0.716(4)
H6_4 H 0.7117 0.9918 0.7122
N6_4 N 0.9322(6) 0.8522(14) 0.9414(9)
C9_4 C 0.8868(7) 0.909(2) 0.8926(16)
C10_4 C 0.7667(18) 0.875(9) 0.784(4)
H8_4 H 0.7883 0.9918 0.7878
Br3_2 Br -0.0000 0.7500 0.1391(2)
Br2_2 Br 0.0000 0.2500 0.8609(2)
Br3_3 Br 1.0000 0.7500 0.1391(2)
Br2_3 Br 1.0000 0.2500 0.8609(2)
loop_
_geom_bond_atom_site_label_1
_geom_bond_atom_site_label_2
_geom_bond_site_symmetry_1
_geom_bond_site_symmetry_2
Cu1 N1 1_555 1_555
N1 C1 1_555 1_555
N2 C1 1_555 1_555
C2 N2 1_555 1_555
C3 C2 1_555 1_555
H2 C3 1_555 1_555
N3 C4 1_555 1_555
N4 C4 1_555 1_555
C5 N4 1_555 1_555
C6 C3 1_555 1_555
H4 C6 1_555 1_555
N5 N1 1_555 1_555
C7 N2 1_555 1_555
H5 C7 1_555 1_555
C8 C2 1_555 1_555
H6 C8 1_555 1_555
N6 N3 1_555 1_555
C9 N4 1_555 1_555
H7 C9 1_555 1_555
C10 C5 1_555 1_555
H8 C10 1_555 1_555
Br3 Cu1 1_555 1_555
Cu3 N5 1_555 1_555
Cu4 N6 1_555 1_555
Cu5 N3 1_555 1_555
N9 Cu1 1_555 1_555
C5 C6 1_555 1_555
N5 C7 1_555 1_555
C8 C10 1_555 1_555
N6 C9 1_555 1_555
Br3 Cu3 1_555 1_555
Br2 Cu1_2 1_555 1_555
Cu3 Br2 1_555 1_555
N7 Cu1_2 1_555 1_555
N8 Cu1_2 1_555 1_555
Cu3 N1_2 1_555 1_555
N1_2 C1_2 1_555 1_555
N2_2 C1_2 1_555 1_555
C1_2 H1_2 1_555 1_555
C2_2 N2_2 1_555 1_555
C3_2 C2_2 1_555 1_555
H2_2 C3_2 1_555 1_555
N3_2 C4_2 1_555 1_555
N4_2 C4_2 1_555 1_555
C4_2 H3_2 1_555 1_555
C5_2 N4_2 1_555 1_555
C6_2 C3_2 1_555 1_555
H4_2 C6_2 1_555 1_555
N9 N1_2 1_555 1_555
C7_2 N2_2 1_555 1_555
C8_2 C2_2 1_555 1_555
H6_2 C8_2 1_555 1_555
N6_2 N3_2 1_555 1_555
C9_2 N4_2 1_555 1_555
C10_2 C5_2 1_555 1_555
H8_2 C10_2 1_555 1_555
Cu5_5 N6_2 1_555 1_555
Cu4_3 N3_2 1_555 1_555
N7_2 Cu3 1_555 1_555
N8_2 Cu3 1_555 1_555
C5_2 C6_2 1_555 1_555
N9 C7_2 1_555 1_555
C8_2 C10_2 1_555 1_555
N6_2 C9_2 1_555 1_555
N7 C1_3 1_555 1_555
N2_3 C1_3 1_555 1_555
C2_3 N2_3 1_555 1_555
C3_3 C2_3 1_555 1_555
H2_3 C3_3 1_555 1_555
N3_3 C4_3 1_555 1_555
N4_3 C4_3 1_555 1_555
C5_3 N4_3 1_555 1_555
C6_3 C3_3 1_555 1_555
H4_3 C6_3 1_555 1_555
N8_2 N7 1_555 1_555
C7_3 N2_3 1_555 1_555
H5_3 C7_3 1_555 1_555
C8_3 C2_3 1_555 1_555
H6_3 C8_3 1_555 1_555
N6_3 N3_3 1_555 1_555
C9_3 N4_3 1_555 1_555
H7_3 C9_3 1_555 1_555
C10_3 C5_3 1_555 1_555
H8_3 C10_3 1_555 1_555
Cu4_2 N6_3 1_555 1_555
Cu5_4 N3_3 1_555 1_555
C5_3 C6_3 1_555 1_555
N8_2 C7_3 1_555 1_555
C8_3 C10_3 1_555 1_555
N6_3 C9_3 1_555 1_555
N7_2 C1_4 1_555 1_555
N2_4 C1_4 1_555 1_555
C1_4 H1_4 1_555 1_555
C2_4 N2_4 1_555 1_555
C3_4 C2_4 1_555 1_555
H2_4 C3_4 1_555 1_555
N3_4 C4_4 1_555 1_555
N4_4 C4_4 1_555 1_555
C4_4 H3_4 1_555 1_555
C5_4 N4_4 1_555 1_555
C6_4 C3_4 1_555 1_555
H4_4 C6_4 1_555 1_555
N8 N7_2 1_555 1_555
C7_4 N2_4 1_555 1_555
C8_4 C2_4 1_555 1_555
H6_4 C8_4 1_555 1_555
N6_4 N3_4 1_555 1_555
C9_4 N4_4 1_555 1_555
C10_4 C5_4 1_555 1_555
H8_4 C10_4 1_555 1_555
Cu5_8 N6_4 1_555 1_555
Cu4_4 N3_4 1_555 1_555
C5_4 C6_4 1_555 1_555
N8 C7_4 1_555 1_555
C8_4 C10_4 1_555 1_555
N6_4 C9_4 1_555 1_555
Br3_2 Cu4 1_555 1_555
Br3_2 Cu5_3 1_555 1_555
Br2_2 Cu4_2 1_555 1_555
Cu5_2 Br2_2 1_555 1_555
Br3_3 Cu4_3 1_555 1_555
Br3_3 Cu5_7 1_555 1_555
Br2_3 Cu4_4 1_555 1_555
Cu5_6 Br2_3 1_555 1_555

#END
