
###############################################################################
#
# This file contains modified crystal structure data generated from the
# MOF subset of the Cambridge Structural Database (CSD) v543 
# hosted by the Cambridge Crystallographic Data Centre (CCDC).
#
# This work is licensed under the Creative Commons
# Attribution-NonCommercial-ShareAlike 4.0 International License.
# To view a copy of this license, visit
# http://creativecommons.org/licenses/by-nc-sa/4.0/
# or send a letter to
# Creative Commons, PO Box 1866, Mountain View, CA 94042, USA.
#
# CIF created using the CSD Python API on 29 September 2022
# The structure has been converted into the P1 space group
# The structure has a 3D framework
# The original CSD entry XAPCOJ03 is in the tetragonal crystal system
# The original CSD entry XAPCOJ03 is in a Sohncke space group
# The framework has been calculated to contain at least 10.0% void space
# The void calculation uses a probe of radius 1.32A, grid spacing 0.4
#
###############################################################################

data_XAPCOJ03
_chemical_formula_moiety         '(C84 H40 O34 V6)n'
_symmetry_cell_setting           triclinic
_symmetry_space_group_name_H-M   'P 1'
_symmetry_Int_Tables_number      1
_space_group_name_Hall           'P 1'
loop_
_symmetry_equiv_pos_site_id
_symmetry_equiv_pos_as_xyz
1 x,y,z
_cell_length_a                   15.103452(43)
_cell_length_b                   15.103452(43)
_cell_length_c                   12.024677(44)
_cell_angle_alpha                90
_cell_angle_beta                 90
_cell_angle_gamma                90
_cell_volume                     2743
loop_
_atom_site_label
_atom_site_type_symbol
_atom_site_fract_x
_atom_site_fract_y
_atom_site_fract_z
_atom_site_U_iso_or_equiv
_atom_site_thermal_displace_type
O4 O 0.71030(14) 0.39838(15) 0.24408(24) 0.0452 Uiso
O5 O 0.61952(17) 0.38196(16) 0.39128(17) 0.0452 Uiso
C6 C 0.64006(25) 0.40882(29) 0.29847(32) 0.0596 Uiso
C7 C 0.56607(27) 0.45539(26) 0.23989(42) 0.0596 Uiso
C8 C 0.500 0.500 0.29654(43) 0.0596 Uiso
C9 C 0.56689(28) 0.45267(30) 0.12075(28) 0.0596 Uiso
C10 C 0.500 0.500 0.06379(33) 0.0596 Uiso
H4 H 0.500 0.500 0.3739(32) 0.0715 Uiso
H5 H 0.61838 0.42682 0.09265 0.0715 Uiso
O6 O 0.28970(14) 0.60162(15) 0.24408(24) 0.0452 Uiso
O7 O 0.38048(17) 0.61804(16) 0.39128(17) 0.0452 Uiso
C11 C 0.35994(25) 0.59118(29) 0.29847(32) 0.0596 Uiso
C12 C 0.43393(27) 0.54461(26) 0.23989(42) 0.0596 Uiso
C13 C 0.43311(28) 0.54733(30) 0.12075(28) 0.0596 Uiso
H6 H 0.38162 0.57318 0.09265 0.0715 Uiso
V2 V 0.808300(50) 0.308300(50) 0.250 0.0455 Uiso
O10 O 0.75516(22) 0.250 0.125 0.0452 Uiso
H8 H 0.694 0.250 0.125 0.0715 Uiso
V3 V 0.691700(50) 0.308300(50) 0.500 0.0455 Uiso
V5 V 0.808300(50) 0.191700(50) 0.000 0.0455 Uiso
V7 V 0.191700(50) 0.691700(50) 0.250 0.0455 Uiso
V9 V 0.308300(50) 0.691700(50) 0.500 0.0455 Uiso
O12 O 0.750 0.25516(22) 0.375 0.0452 Uiso
O15 O 0.89838(15) 0.21030(14) 0.25592(24) 0.0452 Uiso
O16 O 0.88196(16) 0.38048(17) 0.14128(17) 0.0452 Uiso
O18 O 0.88048(17) 0.38196(16) 0.35872(17) 0.0452 Uiso
O1 O 0.74484(22) 0.250 0.625 0.0452 Uiso
O2 O 0.60162(15) 0.28970(14) 0.75592(24) 0.0452 Uiso
O3 O 0.61804(16) 0.38048(17) 0.60872(17) 0.0452 Uiso
C1 C 0.59118(29) 0.35994(25) 0.70153(32) 0.0596 Uiso
C2 C 0.54461(26) 0.43393(27) 0.76011(42) 0.0596 Uiso
C3 C 0.500 0.500 0.70346(43) 0.0596 Uiso
C4 C 0.54733(30) 0.43311(28) 0.87925(28) 0.0596 Uiso
C5 C 0.500 0.500 0.93621(33) 0.0596 Uiso
H1 H 0.500 0.500 0.6261(32) 0.0715 Uiso
H2 H 0.57318 0.38162 0.90735 0.0715 Uiso
H3 H 0.806 0.250 0.625 0.0715 Uiso
O8 O 0.39838(15) 0.71030(14) 0.75592(24) 0.0452 Uiso
O9 O 0.38196(16) 0.61952(17) 0.60872(17) 0.0452 Uiso
C14 C 0.40882(29) 0.64006(25) 0.70153(32) 0.0596 Uiso
C15 C 0.45539(26) 0.56607(27) 0.76011(42) 0.0596 Uiso
C16 C 0.45267(30) 0.56689(28) 0.87925(28) 0.0596 Uiso
H7 H 0.42682 0.61838 0.90735 0.0715 Uiso
V4 V 0.691700(50) 0.191700(50) 0.750 0.0455 Uiso
V5_2 V 0.808300(50) 0.191700(50) 1.000 0.0455 Uiso
V6 V 0.308300(50) 0.808300(50) 0.750 0.0455 Uiso
O13 O 0.78970(14) 0.39838(15) 0.50592(24) 0.0452 Uiso
O14 O 0.60162(15) 0.21030(14) 0.49408(24) 0.0452 Uiso
C3_2 C 0.000 0.500 0.04654(43) 0.0596 Uiso
H1_2 H 0.000 0.500 0.1239(32) 0.0715 Uiso
O9_2 O 0.11804(16) 0.61952(17) 0.14128(17) 0.0452 Uiso
C14_2 C 0.09118(29) 0.64006(25) 0.04847(32) 0.0596 Uiso
V6_2 V 0.191700(50) 0.808300(50) 0.000 0.0455 Uiso
C5_2 C 0.000 0.500 0.81379(33) 0.0596 Uiso
C8_2 C 0.000 0.500 0.45346(43) 0.0596 Uiso
C10_2 C 0.000 0.500 0.68621(33) 0.0596 Uiso
H4_2 H 0.000 0.500 0.3761(32) 0.0715 Uiso
O6_2 O 0.21030(14) 0.60162(15) 0.50592(24) 0.0452 Uiso
O7_2 O 0.11952(17) 0.61804(16) 0.35872(17) 0.0452 Uiso
C11_2 C 0.14006(25) 0.59118(29) 0.45153(32) 0.0596 Uiso
C12_2 C 0.06607(27) 0.54461(26) 0.51011(42) 0.0596 Uiso
C13_2 C 0.06689(28) 0.54733(30) 0.62925(28) 0.0596 Uiso
H6_2 H 0.11838 0.57318 0.65735 0.0715 Uiso
O8_2 O 0.10162(15) 0.71030(14) 0.99408(24) 0.0452 Uiso
C15_2 C 0.04461(26) 0.56607(27) 0.98989(42) 0.0596 Uiso
C16_2 C 0.04733(30) 0.56689(28) 0.87075(28) 0.0596 Uiso
H7_2 H 0.07318 0.61838 0.84265 0.0715 Uiso
V6_3 V 0.191700(50) 0.808300(50) 1.000 0.0455 Uiso
C1_2 C 0.90882(29) 0.35994(25) 0.04847(32) 0.0596 Uiso
C3_3 C 1.000 0.500 0.04654(43) 0.0596 Uiso
H1_3 H 1.000 0.500 0.1239(32) 0.0715 Uiso
O2_2 O 0.89838(15) 0.28970(14) 0.99408(24) 0.0452 Uiso
C2_2 C 0.95539(26) 0.43393(27) 0.98989(42) 0.0596 Uiso
C4_2 C 0.95267(30) 0.43311(28) 0.87075(28) 0.0596 Uiso
C5_3 C 1.000 0.500 0.81379(33) 0.0596 Uiso
H2_2 H 0.92682 0.38162 0.84265 0.0715 Uiso
C6_2 C 0.85994(25) 0.40882(29) 0.45153(32) 0.0596 Uiso
C7_2 C 0.93393(27) 0.45539(26) 0.51011(42) 0.0596 Uiso
C8_3 C 1.000 0.500 0.45346(43) 0.0596 Uiso
C9_2 C 0.93311(28) 0.45267(30) 0.62925(28) 0.0596 Uiso
C10_3 C 1.000 0.500 0.68621(33) 0.0596 Uiso
H4_3 H 1.000 0.500 0.3761(32) 0.0715 Uiso
H5_2 H 0.88162 0.42682 0.65735 0.0715 Uiso
H3_2 H 0.750 0.194 0.375 0.0715 Uiso
O10_2 O 0.750 0.24484(22) 0.875 0.0452 Uiso
H8_2 H 0.750 0.306 0.875 0.0715 Uiso
O15_2 O 0.78970(14) 0.10162(15) 0.74408(24) 0.0452 Uiso
O16_2 O 0.61952(17) 0.11804(16) 0.85872(17) 0.0452 Uiso
O18_2 O 0.61804(16) 0.11952(17) 0.64128(17) 0.0452 Uiso
O2_3 O 0.71030(14) 0.10162(15) 0.00592(24) 0.0452 Uiso
C2_3 C 0.56607(27) 0.04461(26) 0.01011(42) 0.0596 Uiso
C4_3 C 0.56689(28) 0.04733(30) 0.12925(28) 0.0596 Uiso
C5_4 C 0.500 -0.000 0.18621(33) 0.0596 Uiso
H2_3 H 0.61838 0.07318 0.15735 0.0715 Uiso
C6_3 C 0.59118(29) 0.14006(25) 0.54847(32) 0.0596 Uiso
C7_3 C 0.54461(26) 0.06607(27) 0.48989(42) 0.0596 Uiso
C8_4 C 0.500 -0.000 0.54654(43) 0.0596 Uiso
C9_3 C 0.54733(30) 0.06689(28) 0.37075(28) 0.0596 Uiso
C10_4 C 0.500 -0.000 0.31379(33) 0.0596 Uiso
H4_4 H 0.500 -0.000 0.6239(32) 0.0715 Uiso
H5_3 H 0.57318 0.11838 0.34265 0.0715 Uiso
C1_3 C 0.64006(25) 0.09118(29) 0.95153(32) 0.0596 Uiso
C3_4 C 0.500 -0.000 0.95346(43) 0.0596 Uiso
H1_4 H 0.500 -0.000 0.8761(32) 0.0715 Uiso
C5_5 C 0.500 1.000 0.18621(33) 0.0596 Uiso
C8_5 C 0.500 1.000 0.54654(43) 0.0596 Uiso
C10_5 C 0.500 1.000 0.31379(33) 0.0596 Uiso
H4_5 H 0.500 1.000 0.6239(32) 0.0715 Uiso
O6_3 O 0.39838(15) 0.78970(14) 0.49408(24) 0.0452 Uiso
O7_3 O 0.38196(16) 0.88048(17) 0.64128(17) 0.0452 Uiso
C11_3 C 0.40882(29) 0.85994(25) 0.54847(32) 0.0596 Uiso
C12_3 C 0.45539(26) 0.93393(27) 0.48989(42) 0.0596 Uiso
C13_3 C 0.45267(30) 0.93311(28) 0.37075(28) 0.0596 Uiso
H6_3 H 0.42682 0.88162 0.34265 0.0715 Uiso
O8_3 O 0.28970(14) 0.89838(15) 0.00592(24) 0.0452 Uiso
C15_3 C 0.43393(27) 0.95539(26) 0.01011(42) 0.0596 Uiso
C16_3 C 0.43311(28) 0.95267(30) 0.12925(28) 0.0596 Uiso
H7_3 H 0.38162 0.92682 0.15735 0.0715 Uiso
C3_5 C 0.500 1.000 0.95346(43) 0.0596 Uiso
H1_5 H 0.500 1.000 0.8761(32) 0.0715 Uiso
O9_3 O 0.38048(17) 0.88196(16) 0.85872(17) 0.0452 Uiso
C14_3 C 0.35994(25) 0.90882(29) 0.95153(32) 0.0596 Uiso
O18_3 O 0.88196(16) 0.11952(17) 0.10872(17) 0.0452 Uiso
O16_3 O 0.88048(17) 0.11804(16) 0.89128(17) 0.0452 Uiso
C3_6 C -0.000 1.000 0.79654(43) 0.0596 Uiso
C5_6 C -0.000 1.000 0.56379(33) 0.0596 Uiso
H1_6 H -0.000 1.000 0.8739(32) 0.0715 Uiso
C8_6 C -0.000 1.000 0.20346(43) 0.0596 Uiso
C10_6 C -0.000 1.000 0.43621(33) 0.0596 Uiso
H4_6 H -0.000 1.000 0.1261(32) 0.0715 Uiso
O6_4 O 0.10162(15) 0.78970(14) 0.25592(24) 0.0452 Uiso
O7_4 O 0.11804(16) 0.88048(17) 0.10872(17) 0.0452 Uiso
C11_4 C 0.09118(29) 0.85994(25) 0.20153(32) 0.0596 Uiso
C12_4 C 0.04461(26) 0.93393(27) 0.26011(42) 0.0596 Uiso
C13_4 C 0.04733(30) 0.93311(28) 0.37925(28) 0.0596 Uiso
H6_4 H 0.07318 0.88162 0.40735 0.0715 Uiso
O8_4 O 0.21030(14) 0.89838(15) 0.74408(24) 0.0452 Uiso
O9_4 O 0.11952(17) 0.88196(16) 0.89128(17) 0.0452 Uiso
C14_4 C 0.14006(25) 0.90882(29) 0.79847(32) 0.0596 Uiso
C15_4 C 0.06607(27) 0.95539(26) 0.73989(42) 0.0596 Uiso
C16_4 C 0.06689(28) 0.95267(30) 0.62075(28) 0.0596 Uiso
H7_4 H 0.11838 0.92682 0.59265 0.0715 Uiso
C1_4 C 0.85994(25) 0.09118(29) 0.79847(32) 0.0596 Uiso
C2_4 C 0.93393(27) 0.04461(26) 0.73989(42) 0.0596 Uiso
C3_7 C 1.000 -0.000 0.79654(43) 0.0596 Uiso
C4_4 C 0.93311(28) 0.04733(30) 0.62075(28) 0.0596 Uiso
C5_7 C 1.000 -0.000 0.56379(33) 0.0596 Uiso
H1_7 H 1.000 -0.000 0.8739(32) 0.0715 Uiso
H2_4 H 0.88162 0.07318 0.59265 0.0715 Uiso
C6_4 C 0.90882(29) 0.14006(25) 0.20153(32) 0.0596 Uiso
C7_4 C 0.95539(26) 0.06607(27) 0.26011(42) 0.0596 Uiso
C8_7 C 1.000 -0.000 0.20346(43) 0.0596 Uiso
C9_4 C 0.95267(30) 0.06689(28) 0.37925(28) 0.0596 Uiso
C10_7 C 1.000 -0.000 0.43621(33) 0.0596 Uiso
H4_7 H 1.000 -0.000 0.1261(32) 0.0715 Uiso
H5_4 H 0.92682 0.11838 0.40735 0.0715 Uiso
O1_2 O 0.24484(22) 0.750 0.125 0.0452 Uiso
H3_3 H 0.306 0.750 0.125 0.0715 Uiso
O10_3 O 0.25516(22) 0.750 0.625 0.0452 Uiso
H8_3 H 0.194 0.750 0.625 0.0715 Uiso
O12_2 O 0.250 0.75516(22) 0.875 0.0452 Uiso
H3_4 H 0.250 0.694 0.875 0.0715 Uiso
O10_4 O 0.250 0.74484(22) 0.375 0.0452 Uiso
H8_4 H 0.250 0.806 0.375 0.0715 Uiso
C3_8 C -0.000 -0.000 0.79654(43) 0.0596 Uiso
C5_8 C -0.000 -0.000 0.56379(33) 0.0596 Uiso
H1_8 H -0.000 -0.000 0.8739(32) 0.0715 Uiso
C8_8 C -0.000 -0.000 0.20346(43) 0.0596 Uiso
C10_8 C -0.000 -0.000 0.43621(33) 0.0596 Uiso
H4_8 H -0.000 -0.000 0.1261(32) 0.0715 Uiso
C3_9 C 1.000 1.000 0.79654(43) 0.0596 Uiso
C5_9 C 1.000 1.000 0.56379(33) 0.0596 Uiso
H1_9 H 1.000 1.000 0.8739(32) 0.0715 Uiso
C8_9 C 1.000 1.000 0.20346(43) 0.0596 Uiso
C10_9 C 1.000 1.000 0.43621(33) 0.0596 Uiso
H4_9 H 1.000 1.000 0.1261(32) 0.0715 Uiso
loop_
_geom_bond_atom_site_label_1
_geom_bond_atom_site_label_2
_geom_bond_site_symmetry_1
_geom_bond_site_symmetry_2
O4 C6 1_555 1_555
O5 C6 1_555 1_555
C6 C7 1_555 1_555
C7 C8 1_555 1_555
C8 H4 1_555 1_555
C9 C7 1_555 1_555
H5 C9 1_555 1_555
O6 C11 1_555 1_555
O7 C11 1_555 1_555
C11 C12 1_555 1_555
C12 C8 1_555 1_555
C13 C10 1_555 1_555
H6 C13 1_555 1_555
V2 O4 1_555 1_555
O10 V2 1_555 1_555
H8 O10 1_555 1_555
V3 O5 1_555 1_555
V5 O10 1_555 1_555
V7 O6 1_555 1_555
V9 O7 1_555 1_555
O12 V2 1_555 1_555
O15 V2 1_555 1_555
O16 V2 1_555 1_555
O18 V2 1_555 1_555
C9 C10 1_555 1_555
C12 C13 1_555 1_555
V3 O12 1_555 1_555
V3 O1 1_555 1_555
O1 H3 1_555 1_555
O2 C1 1_555 1_555
O3 V3 1_555 1_555
C1 O3 1_555 1_555
C2 C1 1_555 1_555
C3 C2 1_555 1_555
C4 C2 1_555 1_555
C5 C4 1_555 1_555
H1 C3 1_555 1_555
H2 C4 1_555 1_555
O8 C14 1_555 1_555
O9 C14 1_555 1_555
C14 C15 1_555 1_555
C15 C3 1_555 1_555
C16 C5 1_555 1_555
H7 C16 1_555 1_555
V4 O1 1_555 1_555
V6 O8 1_555 1_555
V9 O9 1_555 1_555
O13 V3 1_555 1_555
O14 V3 1_555 1_555
O2 V4 1_555 1_555
C15 C16 1_555 1_555
H1_2 C3_2 1_555 1_555
O9_2 C14_2 1_555 1_555
V7 O9_2 1_555 1_555
C8_2 H4_2 1_555 1_555
C10_2 C5_2 1_555 1_555
O6_2 C11_2 1_555 1_555
O7_2 C11_2 1_555 1_555
C11_2 C12_2 1_555 1_555
C12_2 C8_2 1_555 1_555
C13_2 C10_2 1_555 1_555
H6_2 C13_2 1_555 1_555
C16_2 C5_2 1_555 1_555
H7_2 C16_2 1_555 1_555
V6_3 O8_2 1_555 1_555
V9 O6_2 1_555 1_555
V7 O7_2 1_555 1_555
C12_2 C13_2 1_555 1_555
C15_2 C16_2 1_555 1_555
C1_2 O16 1_555 1_555
H1_3 C3_3 1_555 1_555
C4_2 C2_2 1_555 1_555
C5_3 C4_2 1_555 1_555
H2_2 C4_2 1_555 1_555
O13 C6_2 1_555 1_555
O18 C6_2 1_555 1_555
C6_2 C7_2 1_555 1_555
C7_2 C8_3 1_555 1_555
C8_3 H4_3 1_555 1_555
C9_2 C7_2 1_555 1_555
C10_3 C5_3 1_555 1_555
H5_2 C9_2 1_555 1_555
O2_2 V5_2 1_555 1_555
C9_2 C10_3 1_555 1_555
O12 H3_2 1_555 1_555
O10_2 V4 1_555 1_555
H8_2 O10_2 1_555 1_555
V5_2 O10_2 1_555 1_555
O15_2 V4 1_555 1_555
O16_2 V4 1_555 1_555
O18_2 V4 1_555 1_555
C4_3 C2_3 1_555 1_555
C5_4 C4_3 1_555 1_555
H2_3 C4_3 1_555 1_555
O14 C6_3 1_555 1_555
O18_2 C6_3 1_555 1_555
C6_3 C7_3 1_555 1_555
C7_3 C8_4 1_555 1_555
C8_4 H4_4 1_555 1_555
C9_3 C7_3 1_555 1_555
C10_4 C5_4 1_555 1_555
H5_3 C9_3 1_555 1_555
O2_3 V5 1_555 1_555
C9_3 C10_4 1_555 1_555
C1_3 O16_2 1_555 1_555
H1_4 C3_4 1_555 1_555
C8_5 H4_5 1_555 1_555
C10_5 C5_5 1_555 1_555
O6_3 C11_3 1_555 1_555
O7_3 C11_3 1_555 1_555
C11_3 C12_3 1_555 1_555
C12_3 C8_5 1_555 1_555
C13_3 C10_5 1_555 1_555
H6_3 C13_3 1_555 1_555
C16_3 C5_5 1_555 1_555
H7_3 C16_3 1_555 1_555
V6_2 O8_3 1_555 1_555
V9 O6_3 1_555 1_555
V6 O7_3 1_555 1_555
C12_3 C13_3 1_555 1_555
C15_3 C16_3 1_555 1_555
H1_5 C3_5 1_555 1_555
O9_3 C14_3 1_555 1_555
V6 O9_3 1_555 1_555
O18_3 V5 1_555 1_555
O16_3 V5_2 1_555 1_555
H1_6 C3_6 1_555 1_555
C8_6 H4_6 1_555 1_555
C10_6 C5_6 1_555 1_555
O6_4 C11_4 1_555 1_555
O7_4 C11_4 1_555 1_555
C11_4 C12_4 1_555 1_555
C12_4 C8_6 1_555 1_555
C13_4 C10_6 1_555 1_555
H6_4 C13_4 1_555 1_555
O8_4 C14_4 1_555 1_555
O9_4 C14_4 1_555 1_555
C14_4 C15_4 1_555 1_555
C15_4 C3_6 1_555 1_555
C16_4 C5_6 1_555 1_555
H7_4 C16_4 1_555 1_555
V6 O8_4 1_555 1_555
V7 O6_4 1_555 1_555
V6_3 O9_4 1_555 1_555
V6_2 O7_4 1_555 1_555
C12_4 C13_4 1_555 1_555
C15_4 C16_4 1_555 1_555
O15_2 C1_4 1_555 1_555
C1_4 O16_3 1_555 1_555
C2_4 C1_4 1_555 1_555
C3_7 C2_4 1_555 1_555
C4_4 C2_4 1_555 1_555
C5_7 C4_4 1_555 1_555
H1_7 C3_7 1_555 1_555
H2_4 C4_4 1_555 1_555
O15 C6_4 1_555 1_555
O18_3 C6_4 1_555 1_555
C6_4 C7_4 1_555 1_555
C7_4 C8_7 1_555 1_555
C8_7 H4_7 1_555 1_555
C9_4 C7_4 1_555 1_555
C10_7 C5_7 1_555 1_555
H5_4 C9_4 1_555 1_555
C9_4 C10_7 1_555 1_555
V6_2 O1_2 1_555 1_555
O1_2 H3_3 1_555 1_555
O10_3 V6 1_555 1_555
H8_3 O10_3 1_555 1_555
V7 O1_2 1_555 1_555
V9 O10_3 1_555 1_555
O12_2 V6 1_555 1_555
V6_3 O12_2 1_555 1_555
O12_2 H3_4 1_555 1_555
O10_4 V7 1_555 1_555
H8_4 O10_4 1_555 1_555
V9 O10_4 1_555 1_555
H1_8 C3_8 1_555 1_555
C8_8 H4_8 1_555 1_555
C10_8 C5_8 1_555 1_555
H1_9 C3_9 1_555 1_555
C8_9 H4_9 1_555 1_555
C10_9 C5_9 1_555 1_555

#END
