
###############################################################################
#
# This file contains modified crystal structure data generated from the
# MOF subset of the Cambridge Structural Database (CSD) v543 
# hosted by the Cambridge Crystallographic Data Centre (CCDC).
#
# This work is licensed under the Creative Commons
# Attribution-NonCommercial-ShareAlike 4.0 International License.
# To view a copy of this license, visit
# http://creativecommons.org/licenses/by-nc-sa/4.0/
# or send a letter to
# Creative Commons, PO Box 1866, Mountain View, CA 94042, USA.
#
# CIF created using the CSD Python API on 29 September 2022
# The structure has been converted into the P1 space group
# The structure has a 3D framework
# The original CSD entry XAQXOG is in the monoclinic crystal system
# The framework has been calculated to contain at least 10.0% void space
# The void calculation uses a probe of radius 1.32A, grid spacing 0.4
#
###############################################################################

data_XAQXOG
_chemical_formula_moiety         '(C36 H8 Ag2 N16)n'
_symmetry_cell_setting           triclinic
_symmetry_space_group_name_H-M   'P 1'
_symmetry_Int_Tables_number      1
_space_group_name_Hall           'P 1'
loop_
_symmetry_equiv_pos_site_id
_symmetry_equiv_pos_as_xyz
1 x,y,z
_cell_length_a                   6.5948(2)
_cell_length_b                   16.3040(5)
_cell_length_c                   11.1075(4)
_cell_angle_alpha                90
_cell_angle_beta                 92.0270(10)
_cell_angle_gamma                90
_cell_volume                     1193.55
loop_
_atom_site_label
_atom_site_type_symbol
_atom_site_fract_x
_atom_site_fract_y
_atom_site_fract_z
N4 N 0.0084(3) 0.29961(11) 0.45008(15)
Ag4 Ag 0.27615(2) 0.32944(2) 0.56699(2)
N7 N 0.5084(3) 0.20039(11) 0.95008(15)
Ag4_2 Ag 0.22385(2) 0.82944(2) 0.93301(2)
N6 N 0.1945(3) 0.96789(12) 0.91670(17)
N8 N 0.4141(3) 0.82312(10) 0.73538(15)
C1 C 0.6379(3) 0.70084(11) 0.76050(16)
C2 C 0.6225(3) 0.61589(11) 0.72867(16)
C3 C 0.4366(3) 0.60491(11) 0.66669(16)
C4 C 0.3358(3) 0.68235(11) 0.65963(16)
C5 C 0.4614(3) 0.74161(11) 0.71746(15)
C6 C 0.8056(3) 0.73742(12) 0.82146(16)
C7 C 0.7665(3) 0.55292(13) 0.75192(18)
C8 C 0.3620(3) 0.52949(12) 0.62056(17)
C9 C 0.1455(3) 0.69435(11) 0.60035(16)
N1 N 0.9437(3) 0.76658(11) 0.87057(16)
N2 N 0.8804(3) 0.50073(13) 0.7700(2)
N3 N 0.3055(3) 0.46789(12) 0.58330(17)
H1 H 0.333(5) 0.8404(16) 0.689(3)
H2 H 0.512(5) 0.8519(18) 0.752(3)
C3_2 C 0.0634(3) 0.10491(11) 0.83331(16)
C4_2 C 0.1642(3) 0.18235(11) 0.84037(16)
C5_2 C 0.0386(3) 0.24161(11) 0.78254(15)
C8_2 C 0.1380(3) 0.02949(12) 0.87944(17)
C9_2 C 0.3545(3) 0.19435(11) 0.89965(16)
N5 N 0.0859(3) 0.32312(10) 0.76462(15)
H1_2 H 0.167(5) 0.3404(16) 0.811(3)
C1_2 C 0.8621(3) 0.20084(11) 0.73950(16)
C2_2 C 0.8775(3) 0.11589(11) 0.77133(16)
C6_2 C 0.6944(3) 0.23742(12) 0.67854(16)
C7_2 C 0.7335(3) 0.05292(13) 0.74808(18)
N1_2 N 0.5563(3) 0.26658(11) 0.62943(16)
N2_2 N 0.6196(3) 0.00073(13) 0.7300(2)
H2_2 H 0.988(5) 0.3519(18) 0.748(3)
C1_3 C 0.3621(3) 0.29916(11) 0.23950(16)
C2_3 C 0.3775(3) 0.38411(11) 0.27133(16)
C3_3 C 0.5634(3) 0.39509(11) 0.33331(16)
C4_3 C 0.6642(3) 0.31765(11) 0.34037(16)
C5_3 C 0.5386(3) 0.25839(11) 0.28254(15)
C6_3 C 0.1944(3) 0.26258(12) 0.17854(16)
C7_3 C 0.2335(3) 0.44708(13) 0.24808(18)
C8_3 C 0.6380(3) 0.47051(12) 0.37944(17)
C9_3 C 0.8545(3) 0.30565(11) 0.39965(16)
N1_3 N 0.0563(3) 0.23342(11) 0.12943(16)
N2_3 N 0.1196(3) 0.49927(13) 0.2300(2)
N3_2 N 0.6945(3) 0.53211(12) 0.41670(17)
N5_2 N 0.5859(3) 0.17688(10) 0.26462(15)
H1_3 H 0.667(5) 0.1596(16) 0.311(3)
H2_3 H 0.488(5) 0.1481(18) 0.248(3)
Ag2 Ag 0.77615(2) 0.17056(2) 0.06699(2)
Ag3 Ag 0.72385(2) 0.67056(2) 0.43301(2)
N6_2 N 0.8055(3) 0.03211(12) 0.08330(17)
C1_4 C 0.1379(3) 0.79916(11) 0.26050(16)
C2_4 C 0.1225(3) 0.88411(11) 0.22867(16)
C6_4 C 0.3056(3) 0.76258(12) 0.32146(16)
C7_4 C 0.2665(3) 0.94708(13) 0.25192(18)
N1_4 N 0.4437(3) 0.73342(11) 0.37057(16)
N2_4 N 0.3804(3) 0.99927(13) 0.2700(2)
H2_4 H 0.012(5) 0.6481(18) 0.252(3)
N7_2 N 0.9916(3) 0.70039(11) 0.54992(15)
N8_2 N 0.9141(3) 0.67688(10) 0.23538(15)
C3_4 C 0.9366(3) 0.89509(11) 0.16669(16)
C4_4 C 0.8358(3) 0.81765(11) 0.15963(16)
C5_4 C 0.9614(3) 0.75839(11) 0.21746(15)
C8_4 C 0.8620(3) 0.97051(12) 0.12056(17)
C9_4 C 0.6455(3) 0.80565(11) 0.10035(16)
N4_2 N 0.4916(3) 0.79961(11) 0.04992(15)
H1_4 H 0.833(5) 0.6596(16) 0.189(3)
loop_
_geom_bond_atom_site_label_1
_geom_bond_atom_site_label_2
_geom_bond_site_symmetry_1
_geom_bond_site_symmetry_2
Ag4 N4 1_555 1_555
N6 Ag4_2 1_555 1_555
N8 Ag4_2 1_555 1_555
C1 C2 1_555 1_555
C2 C3 1_555 1_555
C3 C4 1_555 1_555
C4 C5 1_555 1_555
C5 C1 1_555 1_555
C6 C1 1_555 1_555
C7 C2 1_555 1_555
C8 C3 1_555 1_555
C9 C4 1_555 1_555
N1 C6 1_555 1_555
N2 C7 1_555 1_555
N3 C8 1_555 1_555
N8 C5 1_555 1_555
H1 N8 1_555 1_555
H2 N8 1_555 1_555
Ag4 N3 1_555 1_555
C3_2 C4_2 1_555 1_555
C4_2 C5_2 1_555 1_555
C8_2 C3_2 1_555 1_555
C9_2 C4_2 1_555 1_555
N7 C9_2 1_555 1_555
N5 C5_2 1_555 1_555
H1_2 N5 1_555 1_555
Ag4 N5 1_555 1_555
C1_2 C2_2 1_555 1_555
C6_2 C1_2 1_555 1_555
C7_2 C2_2 1_555 1_555
N1_2 C6_2 1_555 1_555
N2_2 C7_2 1_555 1_555
Ag4 N1_2 1_555 1_555
C1_3 C2_3 1_555 1_555
C2_3 C3_3 1_555 1_555
C3_3 C4_3 1_555 1_555
C4_3 C5_3 1_555 1_555
C5_3 C1_3 1_555 1_555
C6_3 C1_3 1_555 1_555
C7_3 C2_3 1_555 1_555
C8_3 C3_3 1_555 1_555
C9_3 C4_3 1_555 1_555
N1_3 C6_3 1_555 1_555
N2_3 C7_3 1_555 1_555
N3_2 C8_3 1_555 1_555
N5_2 C5_3 1_555 1_555
H1_3 N5_2 1_555 1_555
H2_3 N5_2 1_555 1_555
Ag2 N5_2 1_555 1_555
Ag3 N3_2 1_555 1_555
N6_2 Ag2 1_555 1_555
C1_4 C2_4 1_555 1_555
C6_4 C1_4 1_555 1_555
C7_4 C2_4 1_555 1_555
N1_4 C6_4 1_555 1_555
N2_4 C7_4 1_555 1_555
Ag3 N1_4 1_555 1_555
N7_2 Ag3 1_555 1_555
N8_2 Ag3 1_555 1_555
C3_4 C4_4 1_555 1_555
C4_4 C5_4 1_555 1_555
C8_4 C3_4 1_555 1_555
C9_4 C4_4 1_555 1_555
N4_2 C9_4 1_555 1_555
N8_2 C5_4 1_555 1_555
H1_4 N8_2 1_555 1_555

#END
