
###############################################################################
#
# This file contains modified crystal structure data generated from the
# MOF subset of the Cambridge Structural Database (CSD) v543 
# hosted by the Cambridge Crystallographic Data Centre (CCDC).
#
# This work is licensed under the Creative Commons
# Attribution-NonCommercial-ShareAlike 4.0 International License.
# To view a copy of this license, visit
# http://creativecommons.org/licenses/by-nc-sa/4.0/
# or send a letter to
# Creative Commons, PO Box 1866, Mountain View, CA 94042, USA.
#
# CIF created using the CSD Python API on 29 September 2022
# The structure has been converted into the P1 space group
# The structure has a 3D framework
# The original CSD entry XARCEB is in the monoclinic crystal system
# The framework has been calculated to contain at least 10.0% void space
# The void calculation uses a probe of radius 1.32A, grid spacing 0.4
#
###############################################################################

data_XARCEB
_chemical_formula_moiety         '(C96 H56 N24 O32 Zn8)n'
_symmetry_cell_setting           triclinic
_symmetry_space_group_name_H-M   'P 1'
_symmetry_Int_Tables_number      1
_space_group_name_Hall           'P 1'
loop_
_symmetry_equiv_pos_site_id
_symmetry_equiv_pos_as_xyz
1 x,y,z
_cell_length_a                   33.467(3)
_cell_length_b                   12.7875(8)
_cell_length_c                   7.7342(7)
_cell_angle_alpha                90
_cell_angle_beta                 100.746(7)
_cell_angle_gamma                90
_cell_volume                     3251.88
loop_
_atom_site_label
_atom_site_type_symbol
_atom_site_fract_x
_atom_site_fract_y
_atom_site_fract_z
H14 H 0.2929 0.0058 0.9647
Zn3 Zn 0.304199(13) 0.54542(4) 0.09485(7)
C1 C 0.74839(11) 0.2004(3) 0.1950(5)
C2 C 0.71411(11) 0.2526(3) 0.2240(6)
C3 C 0.67601(14) 0.1115(4) 0.1243(8)
H1 H 0.6511 0.0768 0.1027
C4 C 0.70977(13) 0.0602(4) 0.0866(6)
C5 C 0.79122(12) 0.2464(4) 0.2406(6)
C6 C 0.71258(11) 0.3638(3) 0.2884(6)
C7 C 0.61919(15) 0.4181(4) 0.4150(8)
H3 H 0.6353 0.3605 0.4026
C8 C 0.57974(15) 0.4014(5) 0.4442(9)
H4 H 0.5707 0.3334 0.4549
C9 C 0.55447(12) 0.4828(4) 0.4571(6)
C10 C 0.57030(15) 0.5807(5) 0.4434(8)
H5 H 0.5544 0.6394 0.4521
C11 C 0.60969(15) 0.5927(5) 0.4168(9)
H6 H 0.6195 0.6600 0.4070
C12 C 0.51307(13) 0.4645(5) 0.4879(7)
H7 H 0.5048 0.3952 0.4903
N1 N 0.74583(10) 0.1058(3) 0.1242(5)
N2 N 0.67734(11) 0.2070(3) 0.1894(6)
N3 N 0.63428(10) 0.5118(3) 0.4044(5)
O1 O 0.81924(8) 0.1873(2) 0.2054(4)
O2 O 0.79552(9) 0.3342(3) 0.3047(5)
O3 O 0.71575(9) 0.3837(3) 0.4475(4)
O4 O 0.70371(9) 0.4347(2) 0.1747(4)
Zn1 Zn 0.695801(13) 0.54542(4) 0.40515(7)
C13 C 0.38081(15) 0.5819(4) 0.5850(8)
H8 H 0.3647 0.6395 0.5974
C14 C 0.42026(15) 0.5986(5) 0.5558(9)
H9 H 0.4293 0.6666 0.5451
C15 C 0.44553(12) 0.5172(4) 0.5429(6)
C16 C 0.42970(15) 0.4193(5) 0.5566(8)
H10 H 0.4456 0.3606 0.5479
C17 C 0.39031(15) 0.4073(5) 0.5832(9)
H11 H 0.3805 0.3400 0.5930
C18 C 0.48693(13) 0.5355(5) 0.5121(7)
H12 H 0.4952 0.6048 0.5097
N4 N 0.36572(10) 0.4882(3) 0.5956(5)
C19 C 0.25161(11) 0.7996(3) 0.8050(5)
C20 C 0.28589(11) 0.7474(3) 0.7760(6)
C21 C 0.32399(14) 0.8885(4) 0.8757(8)
H13 H 0.3489 0.9232 0.8973
C22 C 0.29023(13) 0.9398(4) 0.9134(6)
C23 C 0.20878(12) 0.7536(4) 0.7594(6)
C24 C 0.28742(11) 0.6362(3) 0.7116(6)
N5 N 0.25417(10) 0.8942(3) 0.8758(5)
N6 N 0.32266(11) 0.7930(3) 0.8106(6)
O5 O 0.18076(8) 0.8127(2) 0.7946(4)
O6 O 0.20448(9) 0.6658(3) 0.6953(5)
O7 O 0.28425(9) 0.6163(3) 0.5525(4)
O8 O 0.29629(9) 0.5653(2) 0.8253(4)
Zn2 Zn 0.304199(13) 0.45458(4) 0.59485(7)
N7 N 0.75417(10) 0.6058(3) 0.3758(5)
N8 N 0.24583(10) 0.3942(3) 0.6242(5)
O9 O 0.68076(8) 0.6873(2) 0.2946(4)
O10 O 0.31924(8) 0.3127(2) 0.7054(4)
O11 O 0.29629(9) 0.4347(2) 0.3253(4)
O12 O 0.70371(9) 0.5653(2) 0.6747(4)
Zn4 Zn 0.804199(13) 0.04542(4) 0.09485(7)
Zn6 Zn 0.195801(13) 0.95458(4) 0.90515(7)
Zn5 Zn 0.695801(13) 0.45458(4) 0.90515(7)
C1_2 C 0.25161(11) 0.2004(3) 0.3050(5)
C2_2 C 0.28589(11) 0.2526(3) 0.2760(6)
C3_2 C 0.32399(14) 0.1115(4) 0.3757(8)
H1_2 H 0.3489 0.0768 0.3973
C4_2 C 0.29023(13) 0.0602(4) 0.4134(6)
C5_2 C 0.20878(12) 0.2464(4) 0.2594(6)
C6_2 C 0.28742(11) 0.3638(3) 0.2116(6)
C7_2 C 0.38081(15) 0.4181(4) 0.0850(8)
H3_2 H 0.3647 0.3605 0.0974
C8_2 C 0.42026(15) 0.4014(5) 0.0558(9)
H4_2 H 0.4293 0.3334 0.0451
C9_2 C 0.44553(12) 0.4828(4) 0.0429(6)
C10_2 C 0.42970(15) 0.5807(5) 0.0566(8)
H5_2 H 0.4456 0.6394 0.0479
C11_2 C 0.39031(15) 0.5927(5) 0.0832(9)
H6_2 H 0.3805 0.6600 0.0930
C12_2 C 0.48693(13) 0.4645(5) 0.0121(7)
H7_2 H 0.4952 0.3952 0.0097
N1_2 N 0.25417(10) 0.1058(3) 0.3758(5)
N2_2 N 0.32266(11) 0.2070(3) 0.3106(6)
N3_2 N 0.36572(10) 0.5118(3) 0.0956(5)
O1_2 O 0.18076(8) 0.1873(2) 0.2946(4)
O2_2 O 0.20448(9) 0.3342(3) 0.1953(5)
O3_2 O 0.28425(9) 0.3837(3) 0.0525(4)
N7_2 N 0.24583(10) 0.6058(3) 0.1242(5)
O9_2 O 0.31924(8) 0.6873(2) 0.2054(4)
Zn4_2 Zn 0.195801(13) 0.04542(4) 0.40515(7)
C13_2 C 0.61919(15) 0.5819(4) 0.9150(8)
H8_2 H 0.6353 0.6395 0.9026
C14_2 C 0.57974(15) 0.5986(5) 0.9442(9)
H9_2 H 0.5707 0.6666 0.9549
C15_2 C 0.55447(12) 0.5172(4) 0.9571(6)
C16_2 C 0.57030(15) 0.4193(5) 0.9434(8)
H10_2 H 0.5544 0.3606 0.9521
C17_2 C 0.60969(15) 0.4073(5) 0.9168(9)
H11_2 H 0.6195 0.3400 0.9070
C18_2 C 0.51307(13) 0.5355(5) 0.9879(7)
H12_2 H 0.5048 0.6048 0.9903
N4_2 N 0.63428(10) 0.4882(3) 0.9044(5)
C19_2 C 0.74839(11) 0.7996(3) 0.6950(5)
C20_2 C 0.71411(11) 0.7474(3) 0.7240(6)
C21_2 C 0.67601(14) 0.8885(4) 0.6243(8)
H13_2 H 0.6511 0.9232 0.6027
C22_2 C 0.70977(13) 0.9398(4) 0.5866(6)
C23_2 C 0.79122(12) 0.7536(4) 0.7406(6)
C24_2 C 0.71258(11) 0.6362(3) 0.7884(6)
N5_2 N 0.74583(10) 0.8942(3) 0.6242(5)
N6_2 N 0.67734(11) 0.7930(3) 0.6894(6)
O5_2 O 0.81924(8) 0.8127(2) 0.7054(4)
O6_2 O 0.79552(9) 0.6658(3) 0.8047(5)
O7_2 O 0.71575(9) 0.6163(3) 0.9475(4)
N8_2 N 0.75417(10) 0.3942(3) 0.8758(5)
O10_2 O 0.68076(8) 0.3127(2) 0.7946(4)
Zn6_2 Zn 0.804199(13) 0.95458(4) 0.59485(7)
C10_3 C 0.07030(15) 0.0807(5) 0.4434(8)
H5_3 H 0.0544 0.1394 0.4521
C11_3 C 0.10969(15) 0.0927(5) 0.4168(9)
H6_3 H 0.1195 0.1600 0.4070
N3_3 N 0.13428(10) 0.0118(3) 0.4044(5)
O12_2 O 0.20371(9) 0.0653(2) 0.6747(4)
C1_3 C 0.24839(11) 0.7004(3) 0.1950(5)
C2_3 C 0.21411(11) 0.7526(3) 0.2240(6)
C3_3 C 0.17601(14) 0.6115(4) 0.1243(8)
H1_3 H 0.1511 0.5768 0.1027
C4_3 C 0.20977(13) 0.5602(4) 0.0866(6)
H2 H 0.2071 0.4942 0.0353
C5_3 C 0.29122(12) 0.7464(4) 0.2406(6)
C6_3 C 0.21258(11) 0.8638(3) 0.2884(6)
C7_3 C 0.11919(15) 0.9181(4) 0.4150(8)
H3_3 H 0.1353 0.8605 0.4026
C8_3 C 0.07974(15) 0.9014(5) 0.4442(9)
H4_3 H 0.0707 0.8334 0.4549
C9_3 C 0.05447(12) 0.9828(4) 0.4571(6)
C12_3 C 0.01307(13) 0.9645(5) 0.4879(7)
H7_3 H 0.0048 0.8952 0.4903
N2_3 N 0.17734(11) 0.7070(3) 0.1894(6)
O2_3 O 0.29552(9) 0.8342(3) 0.3047(5)
O3_3 O 0.21575(9) 0.8837(3) 0.4475(4)
O4_2 O 0.20371(9) 0.9347(2) 0.1747(4)
C13_3 C 0.88081(15) 0.0819(4) 0.5850(8)
H8_3 H 0.8647 0.1395 0.5974
C14_3 C 0.92026(15) 0.0986(5) 0.5558(9)
H9_3 H 0.9293 0.1666 0.5451
C15_3 C 0.94553(12) 0.0172(4) 0.5429(6)
C18_3 C 0.98693(13) 0.0355(5) 0.5121(7)
H12_3 H 0.9952 0.1048 0.5097
C19_3 C 0.75161(11) 0.2996(3) 0.8050(5)
C20_3 C 0.78589(11) 0.2474(3) 0.7760(6)
C21_3 C 0.82399(14) 0.3885(4) 0.8757(8)
H13_3 H 0.8489 0.4232 0.8973
C22_3 C 0.79023(13) 0.4398(4) 0.9134(6)
H14_2 H 0.7929 0.5058 0.9647
C23_3 C 0.70878(12) 0.2536(4) 0.7594(6)
C24_3 C 0.78742(11) 0.1362(3) 0.7116(6)
N6_3 N 0.82266(11) 0.2930(3) 0.8106(6)
O6_3 O 0.70448(9) 0.1658(3) 0.6953(5)
O7_3 O 0.78425(9) 0.1163(3) 0.5525(4)
O8_2 O 0.79629(9) 0.0653(2) 0.8253(4)
C16_3 C 0.92970(15) 0.9193(5) 0.5566(8)
H10_3 H 0.9456 0.8606 0.5479
C17_3 C 0.89031(15) 0.9073(5) 0.5832(9)
H11_3 H 0.8805 0.8400 0.5930
N4_3 N 0.86572(10) 0.9882(3) 0.5956(5)
O11_2 O 0.79629(9) 0.9347(2) 0.3253(4)
C13_4 C 0.11919(15) 0.0819(4) 0.9150(8)
H8_4 H 0.1353 0.1395 0.9026
C14_4 C 0.07974(15) 0.0986(5) 0.9442(9)
H9_4 H 0.0707 0.1666 0.9549
C15_4 C 0.05447(12) 0.0172(4) 0.9571(6)
C18_4 C 0.01307(13) 0.0355(5) 0.9879(7)
H12_4 H 0.0048 0.1048 0.9903
C19_4 C 0.24839(11) 0.2996(3) 0.6950(5)
C20_4 C 0.21411(11) 0.2474(3) 0.7240(6)
C21_4 C 0.17601(14) 0.3885(4) 0.6243(8)
H13_4 H 0.1511 0.4232 0.6027
C22_4 C 0.20977(13) 0.4398(4) 0.5866(6)
H14_3 H 0.2071 0.5058 0.5353
C23_4 C 0.29122(12) 0.2536(4) 0.7406(6)
C24_4 C 0.21258(11) 0.1362(3) 0.7884(6)
N6_4 N 0.17734(11) 0.2930(3) 0.6894(6)
O6_4 O 0.29552(9) 0.1658(3) 0.8047(5)
O7_4 O 0.21575(9) 0.1163(3) 0.9475(4)
C16_4 C 0.07030(15) 0.9193(5) 0.9434(8)
H10_4 H 0.0544 0.8606 0.9521
C17_4 C 0.10969(15) 0.9073(5) 0.9168(9)
H11_4 H 0.1195 0.8400 0.9070
N4_4 N 0.13428(10) 0.9882(3) 0.9044(5)
C10_4 C 0.92970(15) 0.0807(5) 0.0566(8)
H5_4 H 0.9456 0.1394 0.0479
C11_4 C 0.89031(15) 0.0927(5) 0.0832(9)
H6_4 H 0.8805 0.1600 0.0930
N3_4 N 0.86572(10) 0.0118(3) 0.0956(5)
C1_4 C 0.75161(11) 0.7004(3) 0.3050(5)
C2_4 C 0.78589(11) 0.7526(3) 0.2760(6)
C3_4 C 0.82399(14) 0.6115(4) 0.3757(8)
H1_4 H 0.8489 0.5768 0.3973
C4_4 C 0.79023(13) 0.5602(4) 0.4134(6)
H2_2 H 0.7929 0.4942 0.4647
C5_4 C 0.70878(12) 0.7464(4) 0.2594(6)
C6_4 C 0.78742(11) 0.8638(3) 0.2116(6)
C7_4 C 0.88081(15) 0.9181(4) 0.0850(8)
H3_4 H 0.8647 0.8605 0.0974
C8_4 C 0.92026(15) 0.9014(5) 0.0558(9)
H4_4 H 0.9293 0.8334 0.0451
C9_4 C 0.94553(12) 0.9828(4) 0.0429(6)
C12_4 C 0.98693(13) 0.9645(5) 0.0121(7)
H7_4 H 0.9952 0.8952 0.0097
N2_4 N 0.82266(11) 0.7070(3) 0.3106(6)
O2_4 O 0.70448(9) 0.8342(3) 0.1953(5)
O3_4 O 0.78425(9) 0.8837(3) 0.0525(4)
H2_3 H 0.7071 0.9942 0.0353
H14_4 H 0.7071 0.0058 0.5353
H2_4 H 0.2929 0.9942 0.4647
loop_
_geom_bond_atom_site_label_1
_geom_bond_atom_site_label_2
_geom_bond_site_symmetry_1
_geom_bond_site_symmetry_2
C1 C2 1_555 1_555
C2 C6 1_555 1_555
C3 H1 1_555 1_555
C4 C3 1_555 1_555
C5 C1 1_555 1_555
C6 O3 1_555 1_555
C7 H3 1_555 1_555
C8 C7 1_555 1_555
H4 C8 1_555 1_555
C9 C8 1_555 1_555
C10 C9 1_555 1_555
H5 C10 1_555 1_555
C11 C10 1_555 1_555
H6 C11 1_555 1_555
C12 C9 1_555 1_555
H7 C12 1_555 1_555
N1 C1 1_555 1_555
N2 C2 1_555 1_555
N3 C7 1_555 1_555
O1 C5 1_555 1_555
O2 C5 1_555 1_555
O3 Zn1 1_555 1_555
O4 C6 1_555 1_555
Zn1 N3 1_555 1_555
C13 H8 1_555 1_555
C14 C13 1_555 1_555
H9 C14 1_555 1_555
C15 C14 1_555 1_555
C16 C15 1_555 1_555
H10 C16 1_555 1_555
C17 C16 1_555 1_555
H11 C17 1_555 1_555
C18 C12 1_555 1_555
H12 C18 1_555 1_555
N4 C13 1_555 1_555
C19 C20 1_555 1_555
C20 C24 1_555 1_555
C21 H13 1_555 1_555
C22 C21 1_555 1_555
C23 C19 1_555 1_555
C24 O7 1_555 1_555
N5 C19 1_555 1_555
N6 C20 1_555 1_555
O5 C23 1_555 1_555
O6 C23 1_555 1_555
O7 Zn2 1_555 1_555
O8 C24 1_555 1_555
Zn2 N4 1_555 1_555
N7 Zn1 1_555 1_555
N8 Zn2 1_555 1_555
O9 Zn1 1_555 1_555
O10 Zn2 1_555 1_555
O11 Zn2 1_555 1_555
O12 Zn1 1_555 1_555
Zn4 N1 1_555 1_555
Zn6 N5 1_555 1_555
C3 N2 1_555 1_555
C4 N1 1_555 1_555
C11 N3 1_555 1_555
O1 Zn4 1_555 1_555
O4 Zn1 1_555 1_555
C15 C18 1_555 1_555
C17 N4 1_555 1_555
C21 N6 1_555 1_555
C22 N5 1_555 1_555
O5 Zn6 1_555 1_555
O8 Zn2 1_555 1_555
C1_2 C2_2 1_555 1_555
C2_2 C6_2 1_555 1_555
C3_2 H1_2 1_555 1_555
C4_2 C3_2 1_555 1_555
C5_2 C1_2 1_555 1_555
C6_2 O3_2 1_555 1_555
C7_2 H3_2 1_555 1_555
C8_2 C7_2 1_555 1_555
H4_2 C8_2 1_555 1_555
C9_2 C8_2 1_555 1_555
C10_2 C9_2 1_555 1_555
H5_2 C10_2 1_555 1_555
C11_2 C10_2 1_555 1_555
H6_2 C11_2 1_555 1_555
C12_2 C9_2 1_555 1_555
H7_2 C12_2 1_555 1_555
N1_2 C1_2 1_555 1_555
N2_2 C2_2 1_555 1_555
N3_2 C7_2 1_555 1_555
O1_2 C5_2 1_555 1_555
O2_2 C5_2 1_555 1_555
O3_2 Zn3 1_555 1_555
O11 C6_2 1_555 1_555
Zn3 N3_2 1_555 1_555
N7_2 Zn3 1_555 1_555
O9_2 Zn3 1_555 1_555
Zn4_2 N1_2 1_555 1_555
C3_2 N2_2 1_555 1_555
C4_2 N1_2 1_555 1_555
C11_2 N3_2 1_555 1_555
O1_2 Zn4_2 1_555 1_555
O11 Zn3 1_555 1_555
C13_2 H8_2 1_555 1_555
C14_2 C13_2 1_555 1_555
H9_2 C14_2 1_555 1_555
C15_2 C14_2 1_555 1_555
C16_2 C15_2 1_555 1_555
H10_2 C16_2 1_555 1_555
C17_2 C16_2 1_555 1_555
H11_2 C17_2 1_555 1_555
H12_2 C18_2 1_555 1_555
N4_2 C13_2 1_555 1_555
C19_2 C20_2 1_555 1_555
C20_2 C24_2 1_555 1_555
C21_2 H13_2 1_555 1_555
C22_2 C21_2 1_555 1_555
C23_2 C19_2 1_555 1_555
C24_2 O7_2 1_555 1_555
N5_2 C19_2 1_555 1_555
N6_2 C20_2 1_555 1_555
O5_2 C23_2 1_555 1_555
O6_2 C23_2 1_555 1_555
O7_2 Zn5 1_555 1_555
O12 C24_2 1_555 1_555
Zn5 N4_2 1_555 1_555
N8_2 Zn5 1_555 1_555
O10_2 Zn5 1_555 1_555
Zn6_2 N5_2 1_555 1_555
C15_2 C18_2 1_555 1_555
C17_2 N4_2 1_555 1_555
C21_2 N6_2 1_555 1_555
C22_2 N5_2 1_555 1_555
O5_2 Zn6_2 1_555 1_555
O12 Zn5 1_555 1_555
H5_3 C10_3 1_555 1_555
C11_3 C10_3 1_555 1_555
H6_3 C11_3 1_555 1_555
Zn4_2 N3_3 1_555 1_555
O12_2 Zn4_2 1_555 1_555
C11_3 N3_3 1_555 1_555
C1_3 C2_3 1_555 1_555
C2_3 C6_3 1_555 1_555
C3_3 H1_3 1_555 1_555
C4_3 C3_3 1_555 1_555
H2 C4_3 1_555 1_555
C5_3 C1_3 1_555 1_555
C6_3 O3_3 1_555 1_555
C7_3 H3_3 1_555 1_555
C8_3 C7_3 1_555 1_555
H4_3 C8_3 1_555 1_555
C9_3 C8_3 1_555 1_555
C12_3 C9_3 1_555 1_555
H7_3 C12_3 1_555 1_555
N7_2 C1_3 1_555 1_555
N2_3 C2_3 1_555 1_555
O9_2 C5_3 1_555 1_555
O2_3 C5_3 1_555 1_555
O4_2 C6_3 1_555 1_555
C3_3 N2_3 1_555 1_555
C4_3 N7_2 1_555 1_555
C13_3 H8_3 1_555 1_555
C14_3 C13_3 1_555 1_555
H9_3 C14_3 1_555 1_555
C15_3 C14_3 1_555 1_555
H12_3 C18_3 1_555 1_555
C19_3 C20_3 1_555 1_555
C20_3 C24_3 1_555 1_555
C21_3 H13_3 1_555 1_555
C22_3 C21_3 1_555 1_555
H14_2 C22_3 1_555 1_555
C23_3 C19_3 1_555 1_555
C24_3 O7_3 1_555 1_555
N8_2 C19_3 1_555 1_555
N6_3 C20_3 1_555 1_555
O10_2 C23_3 1_555 1_555
O6_3 C23_3 1_555 1_555
O8_2 C24_3 1_555 1_555
C15_3 C18_3 1_555 1_555
C21_3 N6_3 1_555 1_555
C22_3 N8_2 1_555 1_555
H10_3 C16_3 1_555 1_555
C17_3 C16_3 1_555 1_555
H11_3 C17_3 1_555 1_555
Zn6_2 N4_3 1_555 1_555
O11_2 Zn6_2 1_555 1_555
C17_3 N4_3 1_555 1_555
C13_4 H8_4 1_555 1_555
C14_4 C13_4 1_555 1_555
H9_4 C14_4 1_555 1_555
C15_4 C14_4 1_555 1_555
H12_4 C18_4 1_555 1_555
C19_4 C20_4 1_555 1_555
C20_4 C24_4 1_555 1_555
C21_4 H13_4 1_555 1_555
C22_4 C21_4 1_555 1_555
H14_3 C22_4 1_555 1_555
C23_4 C19_4 1_555 1_555
C24_4 O7_4 1_555 1_555
N8 C19_4 1_555 1_555
N6_4 C20_4 1_555 1_555
O10 C23_4 1_555 1_555
O6_4 C23_4 1_555 1_555
O12_2 C24_4 1_555 1_555
C15_4 C18_4 1_555 1_555
C21_4 N6_4 1_555 1_555
C22_4 N8 1_555 1_555
H10_4 C16_4 1_555 1_555
C17_4 C16_4 1_555 1_555
H11_4 C17_4 1_555 1_555
Zn6 N4_4 1_555 1_555
C17_4 N4_4 1_555 1_555
H5_4 C10_4 1_555 1_555
C11_4 C10_4 1_555 1_555
H6_4 C11_4 1_555 1_555
Zn4 N3_4 1_555 1_555
C11_4 N3_4 1_555 1_555
C1_4 C2_4 1_555 1_555
C2_4 C6_4 1_555 1_555
C3_4 H1_4 1_555 1_555
C4_4 C3_4 1_555 1_555
H2_2 C4_4 1_555 1_555
C5_4 C1_4 1_555 1_555
C6_4 O3_4 1_555 1_555
C7_4 H3_4 1_555 1_555
C8_4 C7_4 1_555 1_555
H4_4 C8_4 1_555 1_555
C9_4 C8_4 1_555 1_555
C12_4 C9_4 1_555 1_555
H7_4 C12_4 1_555 1_555
N7 C1_4 1_555 1_555
N2_4 C2_4 1_555 1_555
O9 C5_4 1_555 1_555
O2_4 C5_4 1_555 1_555
O11_2 C6_4 1_555 1_555
C3_4 N2_4 1_555 1_555
C4_4 N7 1_555 1_555

#END
