
###############################################################################
#
# This file contains modified crystal structure data generated from the
# MOF subset of the Cambridge Structural Database (CSD) v543 
# hosted by the Cambridge Crystallographic Data Centre (CCDC).
#
# This work is licensed under the Creative Commons
# Attribution-NonCommercial-ShareAlike 4.0 International License.
# To view a copy of this license, visit
# http://creativecommons.org/licenses/by-nc-sa/4.0/
# or send a letter to
# Creative Commons, PO Box 1866, Mountain View, CA 94042, USA.
#
# CIF created using the CSD Python API on 29 September 2022
# The structure has been converted into the P1 space group
# The structure has a 3D framework
# The original CSD entry XARPAK is in the monoclinic crystal system
# The framework has been calculated to contain at least 10.0% void space
# The void calculation uses a probe of radius 1.32A, grid spacing 0.4
# The framework is charged, counterions have been retained in the structure
#
###############################################################################

data_XARPAK
_chemical_formula_moiety         '(C68 H52 Cl4 Cu9 N8 O34)n'
_symmetry_cell_setting           triclinic
_symmetry_space_group_name_H-M   'P 1'
_symmetry_Int_Tables_number      1
_space_group_name_Hall           'P 1'
loop_
_symmetry_equiv_pos_site_id
_symmetry_equiv_pos_as_xyz
1 x,y,z
_cell_length_a                   6.6863(11)
_cell_length_b                   33.340(4)
_cell_length_c                   11.3250(19)
_cell_angle_alpha                90
_cell_angle_beta                 107.156(5)
_cell_angle_gamma                90
_cell_volume                     2412.25
loop_
_atom_site_label
_atom_site_type_symbol
_atom_site_fract_x
_atom_site_fract_y
_atom_site_fract_z
Cu1 Cu 0.5000 0.0000 0.5000
Cu2 Cu -0.0000 0.0000 0.5000
H2 H 0.078(8) 0.0162(11) 0.319(3)
O10 O 0.2187(6) 0.43468(12) 0.1899(4)
C32 C 0.0293(10) 0.36351(19) 0.2239(6)
H25 H 0.1775 0.3640 0.2428
H26 H 0.0061 0.3037 0.2528
C34 C 0.0230(10) 0.43574(19) 0.1623(6)
Cu5 Cu 0.0000 0.5000 0.0000
O11 O 0.8711(7) 0.00066(12) 0.6300(4)
O12 O 0.5484(6) 0.04811(12) 0.4153(4)
O13 O 0.4083(7) 0.03476(12) 0.6127(4)
Cu5_2 Cu -0.0000 0.5000 1.0000
Cu1_2 Cu 0.5000 1.0000 0.5000
Cu2_2 Cu -0.0000 1.0000 0.5000
O1 O 0.1289(7) 0.99934(12) 0.3700(4)
H1 H 0.154(9) 0.9768(7) 0.352(4)
O2 O 0.4516(6) 0.95189(12) 0.5847(4)
O3 O 0.1056(6) 0.94686(11) 0.5558(4)
O4 O 0.0917(7) 0.53476(12) 0.8873(4)
N1 N 0.4338(7) 0.77085(14) 0.7374(5)
N2 N 0.3852(7) 0.70943(14) 0.7818(5)
C1 C 0.2963(9) 0.74066(17) 0.7140(6)
H3 H 0.1585 0.7414 0.6585
C2 C 0.6157(9) 0.75834(18) 0.8216(6)
H4 H 0.7387 0.7739 0.8535
C3 C 0.5889(9) 0.72012(18) 0.8510(6)
H5 H 0.6883 0.7036 0.9074
C4 C 0.3916(9) 0.81093(17) 0.6910(5)
C5 C 0.5404(10) 0.8313(2) 0.6539(6)
H6 H 0.6668 0.8185 0.6531
C6 C 0.5037(10) 0.87078(18) 0.6177(7)
H7 H 0.6060 0.8852 0.5920
C7 C 0.3195(9) 0.88958(17) 0.6183(6)
C8 C 0.1677(9) 0.86841(18) 0.6515(6)
H8 H 0.0388 0.8810 0.6486
C9 C 0.2024(9) 0.82882(17) 0.6893(6)
H9 H 0.0992 0.8142 0.7136
C10 C 0.2883(10) 0.93325(17) 0.5823(6)
C11 C 0.2886(9) 0.67201(17) 0.7914(5)
C12 C 0.3990(9) 0.63732(18) 0.8187(6)
H10 H 0.5453 0.6374 0.8291
C13 C 0.3006(10) 0.60196(19) 0.8314(6)
H11 H 0.3802 0.5781 0.8536
C14 C 0.0856(10) 0.60111(18) 0.8118(6)
C16 C 0.0713(9) 0.67206(18) 0.7682(6)
O14 O 0.5917(7) 0.96524(12) 0.3873(4)
Cu2_3 Cu 1.0000 0.0000 0.5000
H14 H 0.846(9) 0.0232(7) 0.648(4)
O8 O 0.8944(6) 0.05314(11) 0.4442(4)
O9 O 0.9083(7) 0.46524(12) 0.1127(4)
N3 N 0.5662(7) 0.22915(14) 0.2626(5)
N4 N 0.6148(7) 0.29057(14) 0.2182(5)
C18 C 0.7037(9) 0.25934(17) 0.2860(6)
H16 H 0.8415 0.2586 0.3415
C19 C 0.3843(9) 0.24166(18) 0.1784(6)
H17 H 0.2613 0.2261 0.1465
C20 C 0.4111(9) 0.27988(18) 0.1490(6)
H18 H 0.3117 0.2964 0.0926
C21 C 0.6084(9) 0.18907(17) 0.3090(5)
C22 C 0.4596(10) 0.1687(2) 0.3461(6)
H19 H 0.3332 0.1815 0.3469
C23 C 0.4963(10) 0.12922(18) 0.3823(7)
H20 H 0.3940 0.1148 0.4080
C24 C 0.6805(9) 0.11042(17) 0.3817(6)
C25 C 0.8323(9) 0.13159(18) 0.3485(6)
H21 H 0.9612 0.1190 0.3514
C26 C 0.7976(9) 0.17118(17) 0.3107(6)
H22 H 0.9008 0.1858 0.2864
C27 C 0.7117(10) 0.06675(17) 0.4177(6)
C28 C 0.7114(9) 0.32799(17) 0.2086(5)
C29 C 0.6010(9) 0.36268(18) 0.1813(6)
H23 H 0.4547 0.3626 0.1709
C30 C 0.6994(10) 0.39804(19) 0.1686(6)
H24 H 0.6198 0.4219 0.1464
C31 C 0.9144(10) 0.39889(18) 0.1882(6)
C33 C 0.9287(9) 0.32794(18) 0.2318(6)
Cu5_3 Cu 1.0000 0.5000 0.0000
Cu5_4 Cu 1.0000 0.5000 1.0000
Cu2_4 Cu 1.0000 1.0000 0.5000
O5 O 0.7813(6) 0.56532(12) 0.8101(4)
C15 C 0.9707(10) 0.63649(19) 0.7761(6)
H12 H 0.8225 0.6360 0.7572
H13 H 0.9939 0.6963 0.7472
C17 C 0.9770(10) 0.56426(19) 0.8377(6)
H15 H 0.922(8) 0.9838(11) 0.681(3)
C19_2 C 0.1157(9) 0.74166(18) 0.3216(6)
H17_2 H 0.2387 0.7261 0.3535
C20_2 C 0.0889(9) 0.77988(18) 0.3510(6)
H18_2 H 0.1883 0.7964 0.4074
C22_2 C 0.0404(10) 0.6687(2) 0.1539(6)
H19_2 H 0.1668 0.6815 0.1531
C23_2 C 0.0037(10) 0.62922(18) 0.1177(7)
H20_2 H 0.1060 0.6148 0.0920
H23_2 H 0.0453 0.8626 0.3291
Cu2_5 Cu 0.5000 0.5000 0.0000
O1_2 O 0.3711(7) 0.49934(12) 0.1300(4)
H1_2 H 0.346(9) 0.4768(7) 0.148(4)
H2_2 H 0.422(8) 0.5162(11) 0.181(3)
O7 O 0.9516(6) 0.54811(12) 0.0847(4)
O8_2 O 0.6056(6) 0.55314(11) 0.0558(4)
O10_2 O 0.2813(6) 0.93468(12) 0.3101(4)
N3_2 N 0.9338(7) 0.72915(14) 0.2374(5)
N4_2 N 0.8852(7) 0.79057(14) 0.2818(5)
C18_2 C 0.7963(9) 0.75934(17) 0.2140(6)
H16_2 H 0.6585 0.7586 0.1585
C21_2 C 0.8916(9) 0.68907(17) 0.1910(5)
C24_2 C 0.8195(9) 0.61042(17) 0.1183(6)
C25_2 C 0.6677(9) 0.63159(18) 0.1515(6)
H21_2 H 0.5388 0.6190 0.1486
C26_2 C 0.7024(9) 0.67118(17) 0.1893(6)
H22_2 H 0.5992 0.6858 0.2136
C27_2 C 0.7883(10) 0.56675(17) 0.0823(6)
C28_2 C 0.7886(9) 0.82799(17) 0.2914(5)
C29_2 C 0.8990(9) 0.86268(18) 0.3187(6)
C30_2 C 0.8006(10) 0.89804(19) 0.3314(6)
H24_2 H 0.8802 0.9219 0.3536
C31_2 C 0.5856(10) 0.89889(18) 0.3118(6)
C32_2 C 0.4707(10) 0.86351(19) 0.2761(6)
H25_2 H 0.3225 0.8640 0.2572
C33_2 C 0.5713(9) 0.82794(18) 0.2682(6)
H26_2 H 0.4939 0.8037 0.2472
C34_2 C 0.4770(10) 0.93574(19) 0.3377(6)
Cu2_6 Cu 0.5000 0.5000 1.0000
O2_2 O 0.0484(6) 0.45189(12) 0.9153(4)
O3_2 O 0.3944(6) 0.44686(11) 0.9442(4)
O5_2 O 0.7187(6) 0.06532(12) 0.6899(4)
N1_2 N 0.0662(7) 0.27085(14) 0.7626(5)
N2_2 N 0.1148(7) 0.20943(14) 0.7182(5)
C1_2 C 0.2037(9) 0.24066(17) 0.7860(6)
H3_2 H 0.3415 0.2414 0.8415
C4_2 C 0.1084(9) 0.31093(17) 0.8090(5)
C7_2 C 0.1805(9) 0.38958(17) 0.8817(6)
C8_2 C 0.3323(9) 0.36841(18) 0.8485(6)
H8_2 H 0.4612 0.3810 0.8514
C9_2 C 0.2976(9) 0.32882(17) 0.8107(6)
H9_2 H 0.4008 0.3142 0.7864
C10_2 C 0.2117(10) 0.43325(17) 0.9177(6)
C11_2 C 0.2114(9) 0.17201(17) 0.7086(5)
C12_2 C 0.1010(9) 0.13732(18) 0.6813(6)
C13_2 C 0.1994(10) 0.10196(19) 0.6686(6)
H11_2 H 0.1198 0.0781 0.6464
C14_2 C 0.4144(10) 0.10111(18) 0.6882(6)
C15_2 C 0.5293(10) 0.13649(19) 0.7239(6)
H12_2 H 0.6775 0.1360 0.7428
C16_2 C 0.4287(9) 0.17206(18) 0.7318(6)
H13_2 H 0.5061 0.1963 0.7528
C17_2 C 0.5230(10) 0.06426(19) 0.6623(6)
O6 O 0.6289(7) 0.50066(12) 0.8700(4)
H14_2 H 0.654(9) 0.5232(7) 0.852(4)
H15_2 H 0.578(8) 0.4838(11) 0.819(3)
C2_2 C 0.8843(9) 0.25834(18) 0.6784(6)
H4_2 H 0.7613 0.2739 0.6465
C3_2 C 0.9111(9) 0.22012(18) 0.6490(6)
H5_2 H 0.8117 0.2036 0.5926
C5_2 C 0.9596(10) 0.3313(2) 0.8461(6)
H6_2 H 0.8332 0.3185 0.8469
C6_2 C 0.9963(10) 0.37078(18) 0.8823(7)
H7_2 H 0.8940 0.3852 0.9080
H10_2 H 0.9547 0.1374 0.6709
Cl1 Cl 0.2113(2) 0.77606(5) 0.00632(15)
O15 O 0.3218(7) 0.74338(13) 0.0801(4)
O18 O 0.0801(7) 0.79495(13) 0.0698(4)
O16 O 0.0850(7) 0.76160(14) 0.8887(4)
O17 O 0.3618(7) 0.80447(14) 0.9872(4)
Cl1_2 Cl 0.2887(2) 0.27606(5) 0.49368(15)
O15_2 O 0.1782(7) 0.24338(13) 0.4199(4)
O16_2 O 0.4150(7) 0.26160(14) 0.6113(4)
O17_2 O 0.1382(7) 0.30447(14) 0.5128(4)
O18_2 O 0.4199(7) 0.29495(13) 0.4302(4)
O16_3 O 0.9150(7) 0.23840(14) 0.1113(4)
O17_3 O 0.6382(7) 0.19553(14) 0.0128(4)
Cl1_3 Cl 0.7887(2) 0.22394(5) 0.99368(15)
O15_3 O 0.6782(7) 0.25662(13) 0.9199(4)
O18_3 O 0.9199(7) 0.20505(13) 0.9302(4)
Cl1_4 Cl 0.7113(2) 0.72394(5) 0.50632(15)
O15_4 O 0.8218(7) 0.75662(13) 0.5801(4)
O16_4 O 0.5850(7) 0.73840(14) 0.3887(4)
O17_4 O 0.8618(7) 0.69553(14) 0.4872(4)
O18_4 O 0.5801(7) 0.70505(13) 0.5698(4)
loop_
_geom_bond_atom_site_label_1
_geom_bond_atom_site_label_2
_geom_bond_site_symmetry_1
_geom_bond_site_symmetry_2
O10 C34 1_555 1_555
H25 C32 1_555 1_555
O11 Cu1 1_555 1_555
O12 Cu1 1_555 1_555
O13 Cu1 1_555 1_555
Cu1_2 O1 1_555 1_555
Cu2_2 O1 1_555 1_555
O1 H1 1_555 1_555
O2 Cu1_2 1_555 1_555
O3 Cu2_2 1_555 1_555
N1 C1 1_555 1_555
N2 C1 1_555 1_555
C1 H3 1_555 1_555
C2 N1 1_555 1_555
H4 C2 1_555 1_555
C3 N2 1_555 1_555
H5 C3 1_555 1_555
C4 N1 1_555 1_555
C5 C4 1_555 1_555
H6 C5 1_555 1_555
C6 C5 1_555 1_555
H7 C6 1_555 1_555
C7 C6 1_555 1_555
C8 C7 1_555 1_555
H8 C8 1_555 1_555
C9 C4 1_555 1_555
H9 C9 1_555 1_555
C10 O2 1_555 1_555
C11 N2 1_555 1_555
C12 C11 1_555 1_555
H10 C12 1_555 1_555
C13 C12 1_555 1_555
H11 C13 1_555 1_555
C14 C13 1_555 1_555
C16 C11 1_555 1_555
Cu5_2 O4 1_555 1_555
O14 Cu1_2 1_555 1_555
O3 C10 1_555 1_555
C2 C3 1_555 1_555
C7 C10 1_555 1_555
C8 C9 1_555 1_555
O11 Cu2_3 1_555 1_555
H14 O11 1_555 1_555
O12 C27 1_555 1_555
O8 Cu2_3 1_555 1_555
N3 C18 1_555 1_555
N4 C18 1_555 1_555
C18 H16 1_555 1_555
C19 N3 1_555 1_555
H17 C19 1_555 1_555
C20 N4 1_555 1_555
H18 C20 1_555 1_555
C21 N3 1_555 1_555
C22 C21 1_555 1_555
H19 C22 1_555 1_555
C23 C22 1_555 1_555
H20 C23 1_555 1_555
C24 C23 1_555 1_555
C25 C24 1_555 1_555
H21 C25 1_555 1_555
C26 C21 1_555 1_555
H22 C26 1_555 1_555
C27 O8 1_555 1_555
C28 N4 1_555 1_555
C29 C28 1_555 1_555
H23 C29 1_555 1_555
C30 C29 1_555 1_555
H24 C30 1_555 1_555
C31 C30 1_555 1_555
C33 C28 1_555 1_555
Cu5_3 O9 1_555 1_555
C19 C20 1_555 1_555
C24 C27 1_555 1_555
C25 C26 1_555 1_555
O5 C17 1_555 1_555
H12 C15 1_555 1_555
H17_2 C19_2 1_555 1_555
H18_2 C20_2 1_555 1_555
H19_2 C22_2 1_555 1_555
C23_2 C22_2 1_555 1_555
H20_2 C23_2 1_555 1_555
C19_2 C20_2 1_555 1_555
Cu5 O1_2 1_555 1_555
Cu2_5 O1_2 1_555 1_555
O1_2 H1_2 1_555 1_555
H2_2 O1_2 1_555 1_555
O7 C27_2 1_555 1_555
O8_2 Cu2_5 1_555 1_555
O14 C34_2 1_555 1_555
O10_2 C34_2 1_555 1_555
N3_2 C18_2 1_555 1_555
N4_2 C18_2 1_555 1_555
C18_2 H16_2 1_555 1_555
C21_2 N3_2 1_555 1_555
C25_2 C24_2 1_555 1_555
H21_2 C25_2 1_555 1_555
C26_2 C21_2 1_555 1_555
H22_2 C26_2 1_555 1_555
C27_2 O8_2 1_555 1_555
C28_2 N4_2 1_555 1_555
C29_2 C28_2 1_555 1_555
C30_2 C29_2 1_555 1_555
H24_2 C30_2 1_555 1_555
C31_2 C30_2 1_555 1_555
C32_2 C31_2 1_555 1_555
H25_2 C32_2 1_555 1_555
C33_2 C28_2 1_555 1_555
H26_2 C33_2 1_555 1_555
C34_2 C31_2 1_555 1_555
O7 Cu5_3 1_555 1_555
C24_2 C27_2 1_555 1_555
C25_2 C26_2 1_555 1_555
C32_2 C33_2 1_555 1_555
O2_2 Cu5_2 1_555 1_555
O3_2 Cu2_6 1_555 1_555
O13 C17_2 1_555 1_555
O5_2 C17_2 1_555 1_555
N1_2 C1_2 1_555 1_555
N2_2 C1_2 1_555 1_555
C1_2 H3_2 1_555 1_555
C4_2 N1_2 1_555 1_555
C8_2 C7_2 1_555 1_555
H8_2 C8_2 1_555 1_555
C9_2 C4_2 1_555 1_555
H9_2 C9_2 1_555 1_555
C10_2 O2_2 1_555 1_555
C11_2 N2_2 1_555 1_555
C12_2 C11_2 1_555 1_555
C13_2 C12_2 1_555 1_555
H11_2 C13_2 1_555 1_555
C14_2 C13_2 1_555 1_555
C15_2 C14_2 1_555 1_555
H12_2 C15_2 1_555 1_555
C16_2 C11_2 1_555 1_555
H13_2 C16_2 1_555 1_555
C17_2 C14_2 1_555 1_555
O6 Cu2_6 1_555 1_555
H14_2 O6 1_555 1_555
H15_2 O6 1_555 1_555
Cu5_4 O6 1_555 1_555
O3_2 C10_2 1_555 1_555
C7_2 C10_2 1_555 1_555
C8_2 C9_2 1_555 1_555
C15_2 C16_2 1_555 1_555
H4_2 C2_2 1_555 1_555
H5_2 C3_2 1_555 1_555
H6_2 C5_2 1_555 1_555
C6_2 C5_2 1_555 1_555
H7_2 C6_2 1_555 1_555
C2_2 C3_2 1_555 1_555
Cl1 O15 1_555 1_555
O18 Cl1 1_555 1_555
Cl1_2 O15_2 1_555 1_555
O16_2 Cl1_2 1_555 1_555
O17_2 Cl1_2 1_555 1_555
O18_2 Cl1_2 1_555 1_555
Cl1_3 O15_3 1_555 1_555
O18_3 Cl1_3 1_555 1_555
Cl1_4 O15_4 1_555 1_555
O16_4 Cl1_4 1_555 1_555
O17_4 Cl1_4 1_555 1_555
O18_4 Cl1_4 1_555 1_555

#END
