
###############################################################################
#
# This file contains modified crystal structure data generated from the
# MOF subset of the Cambridge Structural Database (CSD) v543 
# hosted by the Cambridge Crystallographic Data Centre (CCDC).
#
# This work is licensed under the Creative Commons
# Attribution-NonCommercial-ShareAlike 4.0 International License.
# To view a copy of this license, visit
# http://creativecommons.org/licenses/by-nc-sa/4.0/
# or send a letter to
# Creative Commons, PO Box 1866, Mountain View, CA 94042, USA.
#
# CIF created using the CSD Python API on 29 September 2022
# The structure has been converted into the P1 space group
# The structure has a 3D framework
# The original CSD entry XATDIJ is in the monoclinic crystal system
# The framework has been calculated to contain at least 10.0% void space
# The void calculation uses a probe of radius 1.32A, grid spacing 0.4
# The framework is charged, counterions have been retained in the structure
#
###############################################################################

data_XATDIJ
_chemical_formula_moiety         '(C28 H64 N4 O42 P8 Zn8)n'
_symmetry_cell_setting           triclinic
_symmetry_space_group_name_H-M   'P 1'
_symmetry_Int_Tables_number      1
_space_group_name_Hall           'P 1'
loop_
_symmetry_equiv_pos_site_id
_symmetry_equiv_pos_as_xyz
1 x,y,z
_cell_length_a                   6.4376(4)
_cell_length_b                   23.0649(13)
_cell_length_c                   11.6616(7)
_cell_angle_alpha                90
_cell_angle_beta                 104.128(6)
_cell_angle_gamma                90
_cell_volume                     1679.17
loop_
_atom_site_label
_atom_site_type_symbol
_atom_site_fract_x
_atom_site_fract_y
_atom_site_fract_z
O22 O 0.2867(4) 0.31976(12) 0.0143(2)
H20 H 0.392965 0.316464 0.077087
O25 O 0.0082(4) 0.28977(11) 0.1800(2)
O29 O 0.0960(5) 0.19582(13) 0.0222(2)
C12 C 0.0144(8) 0.38274(18) 0.6493(4)
H15 H 0.162256 0.386834 0.690437
O15 O 0.2897(4) 0.27962(13) 0.7888(2)
O16 O 0.0082(4) 0.21023(11) 0.6800(2)
O20 O 0.0960(5) 0.30418(13) 0.5222(2)
H18 H 0.230542 0.306311 0.553631
H19 H 0.279328 0.307464 0.945440
P3 P 0.05672(15) 0.27093(4) 0.73212(8)
Zn9 Zn 0.59256(7) 0.28513(2) 0.78195(4)
C4 C 0.2928(8) 0.5142(2) 0.9486(5)
H2 H 0.150908 0.523143 0.912908
O8 O 0.1463(5) 0.62315(12) 0.9945(3)
C7 C 0.6844(7) 0.39426(16) 0.9358(4)
C8 C 0.5897(7) 0.44956(17) 0.9680(4)
C9 C 0.3833(9) 0.4638(2) 0.9167(5)
H11 H 0.301436 0.439624 0.859307
O13 O 0.5865(5) 0.36955(12) 0.8428(3)
C11 C 0.9719(6) 0.32069(17) 0.6071(3)
H13 H 0.982674 0.408423 0.582538
H14 H 0.925299 0.392237 0.701706
H16 H 0.708(7) 0.1998(13) 0.714(4)
H17 H 0.596918 0.182623 0.794284
O14 O 0.9222(4) 0.28591(11) 0.8191(2)
O17 O 0.5487(4) 0.31176(12) 0.6114(2)
O18 O 0.6889(4) 0.24855(11) 0.4693(2)
O19 O 0.6306(5) 0.35579(12) 0.4307(2)
O21 O 0.6019(5) 0.19468(12) 0.7220(2)
P4 P 0.69021(16) 0.30865(4) 0.52422(8)
Zn3 Zn 0.97649(7) 0.29769(2) 0.99906(4)
O27 O 0.6889(4) 0.25145(11) 0.9693(2)
Zn5 Zn 0.97649(7) 0.20231(2) 0.49906(4)
Zn8 Zn 0.59256(7) 0.21487(2) 0.28195(4)
C6 C 0.0144(8) 0.11726(18) 0.1493(4)
H5 H 0.162256 0.113166 0.190437
O2 O 0.2897(4) 0.22038(13) 0.2888(2)
H8 H 0.230542 0.193689 0.053631
O11 O 0.2867(4) 0.18024(12) 0.5143(2)
H9 H 0.279328 0.192536 0.445440
H10 H 0.392965 0.183536 0.577087
P1 P 0.05672(15) 0.22907(4) 0.23212(8)
C1 C 0.6844(7) 0.10574(16) 0.4358(4)
C2 C 0.5897(7) 0.05044(17) 0.4680(4)
C3 C 0.3833(9) 0.0362(2) 0.4167(5)
H1 H 0.301436 0.060376 0.359307
C4_2 C 0.7072(8) 0.0142(2) 0.5514(5)
H2_2 H 0.849092 0.023143 0.587092
C5 C 0.9719(6) 0.17931(17) 0.1071(3)
H3 H 0.982674 0.091577 0.082538
H4 H 0.925299 0.107763 0.201706
H6 H 0.708(7) 0.3002(13) 0.214(4)
H7 H 0.596918 0.317377 0.294284
O1 O 0.9222(4) 0.21409(11) 0.3191(2)
O4 O 0.5487(4) 0.18824(12) 0.1114(2)
O8_2 O 0.8537(5) 0.12315(12) 0.5055(3)
O9 O 0.5865(5) 0.13045(12) 0.3428(3)
O10 O 0.6019(5) 0.30532(12) 0.2220(2)
P2 P 0.69021(16) 0.19135(4) 0.02422(8)
O6 O 0.6306(5) 0.14421(12) 0.9307(2)
C1_2 C 0.3156(7) 0.60574(16) 0.0642(4)
C2_2 C 0.4103(7) 0.55044(17) 0.0320(4)
C3_2 C 0.6167(9) 0.5362(2) 0.0833(5)
H1_2 H 0.698564 0.560376 0.140693
C5_2 C 0.0281(6) 0.67931(17) 0.3929(3)
H3_2 H 0.017326 0.591577 0.417462
H4_2 H 0.074701 0.607763 0.298294
H6_2 H 0.292(7) 0.8002(13) 0.286(4)
H7_2 H 0.403082 0.817377 0.205716
O1_2 O 0.0778(4) 0.71409(11) 0.1809(2)
O4_2 O 0.4513(4) 0.68824(12) 0.3886(2)
O5 O 0.3111(4) 0.75145(11) 0.5307(2)
O6_2 O 0.3694(5) 0.64421(12) 0.5693(2)
O9_2 O 0.4135(5) 0.63045(12) 0.1572(3)
O10_2 O 0.3981(5) 0.80532(12) 0.2780(2)
P2_2 P 0.30979(16) 0.69135(4) 0.47578(8)
Zn1 Zn 0.02351(7) 0.70231(2) 0.00094(4)
Zn2 Zn 0.40744(7) 0.71487(2) 0.21805(4)
C10 C 0.7072(8) 0.4858(2) 0.0514(5)
H12 H 0.849092 0.476857 0.087092
O12 O 0.8537(5) 0.37685(12) 0.0055(3)
O23 O 0.7103(4) 0.72038(13) 0.2112(2)
O28 O 0.3111(4) 0.74855(11) 0.0307(2)
Zn6 Zn 0.02351(7) 0.79769(2) 0.50094(4)
Zn10 Zn 0.40744(7) 0.78513(2) 0.71805(4)
C6_2 C 0.9856(8) 0.61726(18) 0.3507(4)
H5_2 H 0.837744 0.613166 0.309563
O3 O 0.9918(4) 0.78977(11) 0.3200(2)
O7 O 0.9040(5) 0.69582(13) 0.4778(2)
H8_2 H 0.769458 0.693689 0.446369
H9_2 H 0.720672 0.692536 0.054560
P1_2 P 0.94328(15) 0.72907(4) 0.26788(8)
O11_2 O 0.7133(4) 0.68024(12) 0.9857(2)
H10_2 H 0.607035 0.683536 0.922913
O26 O 0.9918(4) 0.71023(11) 0.8200(2)
O30 O 0.9040(5) 0.80418(13) 0.9778(2)
O19_2 O 0.3694(5) 0.85579(12) 0.0693(2)
C7_2 C 0.3156(7) 0.89426(16) 0.5642(4)
C8_2 C 0.4103(7) 0.94956(17) 0.5320(4)
C9_2 C 0.6167(9) 0.9638(2) 0.5833(5)
H11_2 H 0.698564 0.939624 0.640693
C10_2 C 0.2928(8) 0.9858(2) 0.4486(5)
H12_2 H 0.150908 0.976857 0.412908
O12_2 O 0.1463(5) 0.87685(12) 0.4945(3)
O13_2 O 0.4135(5) 0.86955(12) 0.6572(3)
C11_2 C 0.0281(6) 0.82069(17) 0.8929(3)
H13_2 H 0.017326 0.908423 0.917462
H14_2 H 0.074701 0.892237 0.798294
H16_2 H 0.292(7) 0.6998(13) 0.786(4)
H17_2 H 0.403082 0.682623 0.705716
O14_2 O 0.0778(4) 0.78591(11) 0.6809(2)
O17_2 O 0.4513(4) 0.81176(12) 0.8886(2)
O21_2 O 0.3981(5) 0.69468(12) 0.7780(2)
P4_2 P 0.30979(16) 0.80865(4) 0.97578(8)
O24 O 0.7103(4) 0.77962(13) 0.7112(2)
C12_2 C 0.9856(8) 0.88274(18) 0.8507(4)
H15_2 H 0.837744 0.886834 0.809563
H18_2 H 0.769458 0.806311 0.946369
O22_2 O 0.7133(4) 0.81976(12) 0.4857(2)
H19_2 H 0.720672 0.807464 0.554560
H20_2 H 0.607035 0.816464 0.422913
P3_2 P 0.94328(15) 0.77093(4) 0.76788(8)
C13 C 0.7251(10) 0.5712(3) 0.7779(6)
H21 H 0.840318 0.566986 0.847369
H22 H 0.691478 0.534022 0.740873
H23 H 0.601297 0.586312 0.799748
N1 N 0.7904(7) 0.61144(19) 0.6944(4)
H24 H 0.838670 0.644226 0.731771
H25 H 0.678170 0.619117 0.634757
H26 H 0.893500 0.595207 0.666559
C13_2 C 0.2749(10) 0.0712(3) 0.7221(6)
H21_2 H 0.159682 0.066986 0.652631
H22_2 H 0.308522 0.034022 0.759127
H23_2 H 0.398703 0.086312 0.700252
N1_2 N 0.2096(7) 0.11144(19) 0.8056(4)
H24_2 H 0.161330 0.144226 0.768229
H25_2 H 0.321830 0.119117 0.865243
H26_2 H 0.106500 0.095207 0.833441
C13_3 C 0.2749(10) 0.4288(3) 0.2221(6)
H21_3 H 0.159682 0.433014 0.152631
H22_3 H 0.308522 0.465978 0.259127
H23_3 H 0.398703 0.413688 0.200252
N1_3 N 0.2096(7) 0.38856(19) 0.3056(4)
H24_3 H 0.161330 0.355774 0.268229
H25_3 H 0.321830 0.380883 0.365243
H26_3 H 0.106500 0.404793 0.333441
C13_4 C 0.7251(10) 0.9288(3) 0.2779(6)
H21_4 H 0.840318 0.933014 0.347369
H22_4 H 0.691478 0.965978 0.240873
H23_4 H 0.601297 0.913688 0.299748
N1_4 N 0.7904(7) 0.88856(19) 0.1944(4)
H24_4 H 0.838670 0.855774 0.231771
H25_4 H 0.678170 0.880883 0.134757
H26_4 H 0.893500 0.904793 0.166559
loop_
_geom_bond_atom_site_label_1
_geom_bond_atom_site_label_2
_geom_bond_site_symmetry_1
_geom_bond_site_symmetry_2
H20 O22 1_555 1_555
H15 C12 1_555 1_555
O15 P3 1_555 1_555
O16 P3 1_555 1_555
H18 O20 1_555 1_555
Zn9 O15 1_555 1_555
H2 C4 1_555 1_555
C7 C8 1_555 1_555
C8 C9 1_555 1_555
C9 C4 1_555 1_555
H11 C9 1_555 1_555
O13 C7 1_555 1_555
H16 O21 1_555 1_555
H17 O21 1_555 1_555
O17 P4 1_555 1_555
O18 P4 1_555 1_555
O19 P4 1_555 1_555
O21 Zn9 1_555 1_555
P4 C11 1_555 1_555
Zn9 O13 1_555 1_555
O27 Zn3 1_555 1_555
Zn8 O18 1_555 1_555
O14 Zn3 1_555 1_555
O14 Zn9 1_555 1_555
O17 Zn9 1_555 1_555
O18 Zn5 1_555 1_555
Zn9 O27 1_555 1_555
H5 C6 1_555 1_555
O2 P1 1_555 1_555
O25 P1 1_555 1_555
H8 O29 1_555 1_555
O11 H9 1_555 1_555
H10 O11 1_555 1_555
Zn8 O2 1_555 1_555
C1 C2 1_555 1_555
C2 C3 1_555 1_555
C3 H1 1_555 1_555
C4_2 C2 1_555 1_555
H2_2 C4_2 1_555 1_555
H6 O10 1_555 1_555
H7 O10 1_555 1_555
O4 P2 1_555 1_555
O8_2 C1 1_555 1_555
O9 C1 1_555 1_555
O10 Zn8 1_555 1_555
P2 C5 1_555 1_555
Zn5 O1 1_555 1_555
Zn8 O1 1_555 1_555
O4 Zn8 1_555 1_555
O8_2 Zn5 1_555 1_555
O9 Zn8 1_555 1_555
C1_2 C2_2 1_555 1_555
C2_2 C3_2 1_555 1_555
C3_2 H1_2 1_555 1_555
H6_2 O10_2 1_555 1_555
H7_2 O10_2 1_555 1_555
O4_2 P2_2 1_555 1_555
O5 P2_2 1_555 1_555
O6_2 P2_2 1_555 1_555
O9_2 C1_2 1_555 1_555
O10_2 Zn2 1_555 1_555
P2_2 C5_2 1_555 1_555
Zn1 O1_2 1_555 1_555
Zn2 O1_2 1_555 1_555
C10 C3_2 1_555 1_555
H12 C10 1_555 1_555
O23 Zn2 1_555 1_555
O28 Zn1 1_555 1_555
Zn10 O5 1_555 1_555
O4_2 Zn2 1_555 1_555
O5 Zn6 1_555 1_555
O9_2 Zn2 1_555 1_555
Zn2 O28 1_555 1_555
H5_2 C6_2 1_555 1_555
O23 P1_2 1_555 1_555
O3 P1_2 1_555 1_555
H8_2 O7 1_555 1_555
H10_2 O11_2 1_555 1_555
C7_2 C8_2 1_555 1_555
C8_2 C9_2 1_555 1_555
H11_2 C9_2 1_555 1_555
H12_2 C10_2 1_555 1_555
O12_2 C7_2 1_555 1_555
O13_2 C7_2 1_555 1_555
H16_2 O21_2 1_555 1_555
H17_2 O21_2 1_555 1_555
O17_2 P4_2 1_555 1_555
O21_2 Zn10 1_555 1_555
P4_2 C11_2 1_555 1_555
Zn6 O12_2 1_555 1_555
Zn10 O13_2 1_555 1_555
O24 Zn10 1_555 1_555
C8_2 C10_2 1_555 1_555
O14_2 Zn6 1_555 1_555
O14_2 Zn10 1_555 1_555
O17_2 Zn10 1_555 1_555
H15_2 C12_2 1_555 1_555
O24 P3_2 1_555 1_555
O26 P3_2 1_555 1_555
H18_2 O30 1_555 1_555
O22_2 H19_2 1_555 1_555
H20_2 O22_2 1_555 1_555
C13 H21 1_555 1_555
H22 C13 1_555 1_555
H23 C13 1_555 1_555
N1 C13 1_555 1_555
H24 N1 1_555 1_555
H25 N1 1_555 1_555
H26 N1 1_555 1_555
C13_2 H21_2 1_555 1_555
H22_2 C13_2 1_555 1_555
H23_2 C13_2 1_555 1_555
N1_2 C13_2 1_555 1_555
H24_2 N1_2 1_555 1_555
H25_2 N1_2 1_555 1_555
H26_2 N1_2 1_555 1_555
C13_3 H21_3 1_555 1_555
H22_3 C13_3 1_555 1_555
H23_3 C13_3 1_555 1_555
N1_3 C13_3 1_555 1_555
H24_3 N1_3 1_555 1_555
H25_3 N1_3 1_555 1_555
H26_3 N1_3 1_555 1_555
C13_4 H21_4 1_555 1_555
H22_4 C13_4 1_555 1_555
H23_4 C13_4 1_555 1_555
N1_4 C13_4 1_555 1_555
H24_4 N1_4 1_555 1_555
H25_4 N1_4 1_555 1_555
H26_4 N1_4 1_555 1_555

#END
