
###############################################################################
#
# This file contains modified crystal structure data generated from the
# MOF subset of the Cambridge Structural Database (CSD) v543 
# hosted by the Cambridge Crystallographic Data Centre (CCDC).
#
# This work is licensed under the Creative Commons
# Attribution-NonCommercial-ShareAlike 4.0 International License.
# To view a copy of this license, visit
# http://creativecommons.org/licenses/by-nc-sa/4.0/
# or send a letter to
# Creative Commons, PO Box 1866, Mountain View, CA 94042, USA.
#
# CIF created using the CSD Python API on 29 September 2022
# The structure has been converted into the P1 space group
# The structure has a 3D framework
# The original CSD entry XATLIQ is in the monoclinic crystal system
# The framework has been calculated to contain at least 10.0% void space
# The void calculation uses a probe of radius 1.32A, grid spacing 0.4
#
###############################################################################

data_XATLIQ
_chemical_formula_moiety         '(C112 H80 Cd10 O38 Si6)n'
_symmetry_cell_setting           triclinic
_symmetry_space_group_name_H-M   'P 1'
_symmetry_Int_Tables_number      1
_space_group_name_Hall           'P 1'
loop_
_symmetry_equiv_pos_site_id
_symmetry_equiv_pos_as_xyz
1 x,y,z
_cell_length_a                   18.640(3)
_cell_length_b                   22.795(4)
_cell_length_c                   13.281(2)
_cell_angle_alpha                90
_cell_angle_beta                 130.484(3)
_cell_angle_gamma                90
_cell_volume                     4292.06
loop_
_atom_site_label
_atom_site_type_symbol
_atom_site_fract_x
_atom_site_fract_y
_atom_site_fract_z
Cd5 Cd 0.0000 0.68380(2) 0.2500
O3 O 0.83997(12) 0.66566(7) 0.06393(18)
O4 O 0.90850(15) 0.60340(8) 0.2272(2)
C8 C 0.84069(19) 0.61697(11) 0.1114(3)
C9 C 0.75911(17) 0.57616(10) 0.0238(3)
H9 H 0.6709 0.4570 0.0329
C14 C 0.75133(19) 0.52668(10) 0.0762(3)
H10 H 0.7974 0.5183 0.1660
O6 O 0.38594(13) 0.29186(7) 0.06755(18)
O7 O 0.51069(12) 0.24194(7) 0.12743(17)
C15 C 0.45250(18) 0.28380(10) 0.0683(2)
H14 H 0.5661 0.2802 0.0130
Cd3 Cd 0.5000 0.18380(2) 0.2500
Cd5_2 Cd 1.0000 0.68380(2) 0.2500
Cd6 Cd 0.2500 0.2500 0.0000
Cd8 Cd 0.7500 0.7500 0.0000
Cd2 Cd 0.7500 0.2500 0.5000
Si1 Si 0.5000 0.45157(4) 0.7500
O1 O 0.61406(13) 0.29186(7) 0.43245(18)
O2 O 0.48931(12) 0.24194(7) 0.37257(17)
O5 O 0.79860(16) 0.24212(10) 0.7032(2)
H1 H 0.7686 0.2667 0.7139
H2 H 0.8583 0.2499 0.7611
C1 C 0.54750(18) 0.28380(10) 0.4317(2)
C2 C 0.53359(17) 0.32572(9) 0.5047(2)
C3 C 0.5849(2) 0.37666(11) 0.5560(3)
H3 H 0.6269 0.3858 0.5428
C4 C 0.5747(2) 0.41457(11) 0.6271(3)
H4 H 0.6102 0.4488 0.6610
C5 C 0.51317(17) 0.40309(9) 0.6495(2)
C6 C 0.4610(2) 0.35192(11) 0.5943(3)
H5 H 0.4180 0.3429 0.6059
C7 C 0.4705(2) 0.31406(11) 0.5231(3)
H6 H 0.4339 0.2802 0.4870
C10 C 0.69192(19) 0.58711(10) 0.8904(3)
H7 H 0.6976 0.6198 0.8540
C11 C 0.61556(18) 0.54957(10) 0.8097(3)
H8 H 0.5703 0.5576 0.7197
C12 C 0.60558(17) 0.49980(9) 0.8616(2)
C13 C 0.67544(19) 0.48986(10) 0.9958(3)
O8 O 0.16003(12) 0.66566(7) 0.43607(18)
O9 O 0.09150(15) 0.60340(8) 0.2728(2)
C16 C 0.46641(17) 0.32572(9) 0.9953(2)
C17 C 0.4151(2) 0.37666(11) 0.9440(3)
H11 H 0.3731 0.3858 0.9572
C18 C 0.4253(2) 0.41457(11) 0.8729(3)
H12 H 0.3898 0.4488 0.8390
C19 C 0.48683(17) 0.40309(9) 0.8505(2)
C20 C 0.5390(2) 0.35192(11) 0.9057(3)
H13 H 0.5820 0.3429 0.8941
C21 C 0.5295(2) 0.31406(11) 0.9769(3)
C22 C 0.15931(19) 0.61697(11) 0.3886(3)
C23 C 0.24089(17) 0.57616(10) 0.4762(3)
C24 C 0.30808(19) 0.58711(10) 0.6096(3)
H15 H 0.3024 0.6198 0.6460
C25 C 0.38444(18) 0.54957(10) 0.6903(3)
H16 H 0.4297 0.5576 0.7803
C26 C 0.39442(17) 0.49980(9) 0.6384(2)
C27 C 0.32456(19) 0.48986(10) 0.5042(3)
H17 H 0.3291 0.4570 0.4671
C28 C 0.24867(19) 0.52668(10) 0.4238(3)
H18 H 0.2026 0.5183 0.3340
O10 O 0.70140(16) 0.25788(10) 0.2968(2)
H19 H 0.7314 0.2333 0.2861
H20 H 0.6417 0.2501 0.2389
Cd6_2 Cd 0.2500 0.2500 1.0000
Cd7 Cd 0.2500 0.7500 0.5000
Cd8_2 Cd 0.7500 0.7500 1.0000
O11 O 0.88594(13) 0.20814(7) 0.56755(18)
O13 O 0.33997(12) 0.16566(7) 0.06393(18)
O14 O 0.66003(12) 0.16566(7) 0.43607(18)
O15 O 0.83997(12) 0.33434(7) 0.56393(18)
O16 O 0.40850(15) 0.10340(8) 0.2272(2)
O17 O 0.59150(15) 0.10340(8) 0.2728(2)
O10_2 O 0.29860(16) 0.25788(10) 0.2032(2)
H19_2 H 0.2686 0.2333 0.2139
H20_2 H 0.3583 0.2501 0.2611
O5_2 O 0.20140(16) 0.24212(10) 0.7968(2)
H1_2 H 0.2314 0.2667 0.7861
H2_2 H 0.1417 0.2499 0.7389
O11_2 O 0.11406(13) 0.20814(7) 0.93245(18)
O15_2 O 0.16003(12) 0.33434(7) 0.93607(18)
C8_2 C 0.34069(19) 0.11697(11) 0.1114(3)
C9_2 C 0.25911(17) 0.07616(10) 0.0238(3)
C14_2 C 0.25133(19) 0.02668(10) 0.0762(3)
H10_2 H 0.2974 0.0183 0.1660
C10_2 C 0.19192(19) 0.08711(10) 0.8904(3)
H7_2 H 0.1976 0.1198 0.8540
C11_2 C 0.11556(18) 0.04957(10) 0.8097(3)
H8_2 H 0.0703 0.0576 0.7197
H9_2 H 0.1709 0.9570 0.0329
O7_2 O 0.01069(12) 0.74194(7) 0.12743(17)
H14_2 H 0.0661 0.7802 0.0130
Si1_2 Si -0.0000 0.95157(4) 0.7500
O1_2 O 0.11406(13) 0.79186(7) 0.43245(18)
O5_3 O 0.29860(16) 0.74212(10) 0.7032(2)
H1_3 H 0.2686 0.7667 0.7139
H2_3 H 0.3583 0.7499 0.7611
C1_2 C 0.04750(18) 0.78380(10) 0.4317(2)
C2_2 C 0.03359(17) 0.82572(9) 0.5047(2)
C3_2 C 0.0849(2) 0.87666(11) 0.5560(3)
H3_2 H 0.1269 0.8858 0.5428
C4_2 C 0.0747(2) 0.91457(11) 0.6271(3)
H4_2 H 0.1102 0.9488 0.6610
C5_2 C 0.01317(17) 0.90309(9) 0.6495(2)
C12_2 C 0.10558(17) 0.99980(9) 0.8616(2)
C13_2 C 0.17544(19) 0.98986(10) 0.9958(3)
C20_2 C 0.0390(2) 0.85192(11) 0.9057(3)
H13_2 H 0.0820 0.8429 0.8941
C21_2 C 0.0295(2) 0.81406(11) 0.9769(3)
O10_3 O 0.20140(16) 0.75788(10) 0.2968(2)
H19_3 H 0.2314 0.7333 0.2861
H20_3 H 0.1417 0.7501 0.2389
O11_3 O 0.38594(13) 0.70814(7) 0.56755(18)
O15_3 O 0.33997(12) 0.83434(7) 0.56393(18)
C22_2 C 0.65931(19) 0.11697(11) 0.3886(3)
C23_2 C 0.74089(17) 0.07616(10) 0.4762(3)
C24_2 C 0.80808(19) 0.08711(10) 0.6096(3)
H15_2 H 0.8024 0.1198 0.6460
C25_2 C 0.88444(18) 0.04957(10) 0.6903(3)
H16_2 H 0.9297 0.0576 0.7803
C28_2 C 0.74867(19) 0.02668(10) 0.4238(3)
H18_2 H 0.7026 0.0183 0.3340
O6_2 O 0.88594(13) 0.79186(7) 0.06755(18)
C15_2 C 0.95250(18) 0.78380(10) 0.0683(2)
Si1_3 Si 1.0000 0.95157(4) 0.7500
O2_2 O 0.98931(12) 0.74194(7) 0.37257(17)
C6_2 C 0.9610(2) 0.85192(11) 0.5943(3)
H5_2 H 0.9180 0.8429 0.6059
C7_2 C 0.9705(2) 0.81406(11) 0.5231(3)
H6_2 H 0.9339 0.7802 0.4870
C16_2 C 0.96641(17) 0.82572(9) 0.9953(2)
C17_2 C 0.9151(2) 0.87666(11) 0.9440(3)
H11_2 H 0.8731 0.8858 0.9572
C18_2 C 0.9253(2) 0.91457(11) 0.8729(3)
H12_2 H 0.8898 0.9488 0.8390
C19_2 C 0.98683(17) 0.90309(9) 0.8505(2)
C26_2 C 0.89442(17) 0.99980(9) 0.6384(2)
C27_2 C 0.82456(19) 0.98986(10) 0.5042(3)
H17_2 H 0.8291 0.9570 0.4671
O10_4 O 0.79860(16) 0.75788(10) 0.2032(2)
H19_4 H 0.7686 0.7333 0.2139
H20_4 H 0.8583 0.7501 0.2611
O5_4 O 0.70140(16) 0.74212(10) 0.7968(2)
H1_4 H 0.7314 0.7667 0.7861
H2_4 H 0.6417 0.7499 0.7389
O11_4 O 0.61406(13) 0.70814(7) 0.93245(18)
O15_4 O 0.66003(12) 0.83434(7) 0.93607(18)
Cd4 Cd 0.0000 0.31620(2) 0.7500
Cd1 Cd 0.5000 0.81620(2) 0.7500
Si1_4 Si 0.5000 0.54843(4) 0.2500
O2_3 O 0.51069(12) 0.75806(7) 0.62743(17)
C1_3 C 0.45250(18) 0.71620(10) 0.5683(2)
C2_3 C 0.46641(17) 0.67428(9) 0.4953(2)
C3_3 C 0.4151(2) 0.62334(11) 0.4440(3)
H3_3 H 0.3731 0.6142 0.4572
C4_3 C 0.4253(2) 0.58543(11) 0.3729(3)
H4_3 H 0.3898 0.5512 0.3390
C5_3 C 0.48683(17) 0.59691(9) 0.3505(2)
C6_3 C 0.5390(2) 0.64808(11) 0.4057(3)
H5_3 H 0.5820 0.6571 0.3941
C7_3 C 0.5295(2) 0.68594(11) 0.4769(3)
H6_3 H 0.5661 0.7198 0.5130
C10_3 C 0.30808(19) 0.41289(10) 0.1096(3)
H7_3 H 0.3024 0.3802 0.1460
C11_3 C 0.38444(18) 0.45043(10) 0.1903(3)
H8_3 H 0.4297 0.4424 0.2803
C12_3 C 0.39442(17) 0.50020(9) 0.1384(2)
C13_3 C 0.32456(19) 0.51014(10) 0.0042(3)
O9_2 O 0.90850(15) 0.39660(8) 0.7272(2)
C16_3 C 0.53359(17) 0.67428(9) 0.0047(2)
C17_3 C 0.5849(2) 0.62334(11) 0.0560(3)
H11_3 H 0.6269 0.6142 0.0428
C18_3 C 0.5747(2) 0.58543(11) 0.1271(3)
H12_3 H 0.6102 0.5512 0.1610
C19_3 C 0.51317(17) 0.59691(9) 0.1495(2)
C20_3 C 0.4610(2) 0.64808(11) 0.0943(3)
H13_3 H 0.4180 0.6571 0.1059
C21_3 C 0.4705(2) 0.68594(11) 0.0231(3)
C22_3 C 0.84069(19) 0.38303(11) 0.6114(3)
C23_3 C 0.75911(17) 0.42384(10) 0.5238(3)
C24_3 C 0.69192(19) 0.41289(10) 0.3904(3)
H15_3 H 0.6976 0.3802 0.3540
C25_3 C 0.61556(18) 0.45043(10) 0.3097(3)
H16_3 H 0.5703 0.4424 0.2197
C26_3 C 0.60558(17) 0.50020(9) 0.3616(2)
C27_3 C 0.67544(19) 0.51014(10) 0.4958(3)
H17_3 H 0.6709 0.5430 0.5329
C28_3 C 0.75133(19) 0.47332(10) 0.5762(3)
H18_3 H 0.7974 0.4817 0.6660
Cd4_2 Cd 1.0000 0.31620(2) 0.7500
O12 O 0.48931(12) 0.75806(7) 0.87257(17)
O16_2 O 0.59150(15) 0.89660(8) 0.7728(2)
O17_2 O 0.40850(15) 0.89660(8) 0.7272(2)
O4_2 O 0.09150(15) 0.39660(8) 0.7728(2)
C8_3 C 0.15931(19) 0.38303(11) 0.8886(3)
C9_3 C 0.24089(17) 0.42384(10) 0.9762(3)
H9_3 H 0.3291 0.5430 0.9671
C14_3 C 0.24867(19) 0.47332(10) 0.9238(3)
H10_3 H 0.2026 0.4817 0.8340
C15_3 C 0.54750(18) 0.71620(10) 0.9317(2)
H14_3 H 0.4339 0.7198 0.9870
Si1_5 Si 0.0000 0.04843(4) 0.2500
O2_4 O 0.01069(12) 0.25806(7) 0.62743(17)
C6_4 C 0.0390(2) 0.14808(11) 0.4057(3)
H5_4 H 0.0820 0.1571 0.3941
C7_4 C 0.0295(2) 0.18594(11) 0.4769(3)
H6_4 H 0.0661 0.2198 0.5130
C16_4 C 0.03359(17) 0.17428(9) 0.0047(2)
C17_4 C 0.0849(2) 0.12334(11) 0.0560(3)
H11_4 H 0.1269 0.1142 0.0428
C18_4 C 0.0747(2) 0.08543(11) 0.1271(3)
H12_4 H 0.1102 0.0512 0.1610
C19_4 C 0.01317(17) 0.09691(9) 0.1495(2)
C26_4 C 0.10558(17) 0.00020(9) 0.3616(2)
C27_4 C 0.17544(19) 0.01014(10) 0.4958(3)
H17_4 H 0.1709 0.0430 0.5329
C15_4 C 0.04750(18) 0.21620(10) 0.9317(2)
C22_4 C 0.34069(19) 0.88303(11) 0.6114(3)
C23_4 C 0.25911(17) 0.92384(10) 0.5238(3)
C24_4 C 0.19192(19) 0.91289(10) 0.3904(3)
H15_4 H 0.1976 0.8802 0.3540
C25_4 C 0.11556(18) 0.95043(10) 0.3097(3)
H16_4 H 0.0703 0.9424 0.2197
C28_4 C 0.25133(19) 0.97332(10) 0.5762(3)
H18_4 H 0.2974 0.9817 0.6660
Si1_6 Si 1.0000 0.04843(4) 0.2500
C1_4 C 0.95250(18) 0.21620(10) 0.5683(2)
C2_4 C 0.96641(17) 0.17428(9) 0.4953(2)
C3_4 C 0.9151(2) 0.12334(11) 0.4440(3)
H3_4 H 0.8731 0.1142 0.4572
C4_4 C 0.9253(2) 0.08543(11) 0.3729(3)
H4_4 H 0.8898 0.0512 0.3390
C5_4 C 0.98683(17) 0.09691(9) 0.3505(2)
C12_4 C 0.89442(17) 0.00020(9) 0.1384(2)
C13_4 C 0.82456(19) 0.01014(10) 0.0042(3)
C20_4 C 0.9610(2) 0.14808(11) 0.0943(3)
H13_4 H 0.9180 0.1571 0.1059
C21_4 C 0.9705(2) 0.18594(11) 0.0231(3)
O12_2 O 0.98931(12) 0.25806(7) 0.87257(17)
H9_4 H 0.8291 0.0430 0.9671
H14_4 H 0.9339 0.2198 0.9870
C10_4 C 0.80808(19) 0.91289(10) 0.1096(3)
H7_4 H 0.8024 0.8802 0.1460
C11_4 C 0.88444(18) 0.95043(10) 0.1903(3)
H8_4 H 0.9297 0.9424 0.2803
C8_4 C 0.65931(19) 0.88303(11) 0.8886(3)
C9_4 C 0.74089(17) 0.92384(10) 0.9762(3)
C14_4 C 0.74867(19) 0.97332(10) 0.9238(3)
H10_4 H 0.7026 0.9817 0.8340
loop_
_geom_bond_atom_site_label_1
_geom_bond_atom_site_label_2
_geom_bond_site_symmetry_1
_geom_bond_site_symmetry_2
O3 C8 1_555 1_555
O4 C8 1_555 1_555
C8 C9 1_555 1_555
C14 C9 1_555 1_555
H10 C14 1_555 1_555
O6 C15 1_555 1_555
O7 C15 1_555 1_555
Cd3 O7 1_555 1_555
Cd5_2 O3 1_555 1_555
Cd6 O6 1_555 1_555
Cd8 O3 1_555 1_555
O4 Cd5_2 1_555 1_555
Cd3 O2 1_555 1_555
Cd2 O1 1_555 1_555
Si1 C5 1_555 1_555
O1 C1 1_555 1_555
O2 C1 1_555 1_555
O5 Cd2 1_555 1_555
H1 O5 1_555 1_555
H2 O5 1_555 1_555
C1 C2 1_555 1_555
C2 C3 1_555 1_555
C3 H3 1_555 1_555
C4 C3 1_555 1_555
H4 C4 1_555 1_555
C5 C4 1_555 1_555
C6 C5 1_555 1_555
H5 C6 1_555 1_555
C7 C2 1_555 1_555
H6 C7 1_555 1_555
C10 H7 1_555 1_555
C11 C10 1_555 1_555
H8 C11 1_555 1_555
C12 Si1 1_555 1_555
C13 C12 1_555 1_555
O8 C22 1_555 1_555
O9 C22 1_555 1_555
C16 C17 1_555 1_555
C17 H11 1_555 1_555
C18 C17 1_555 1_555
H12 C18 1_555 1_555
C19 Si1 1_555 1_555
C20 C19 1_555 1_555
H13 C20 1_555 1_555
C21 C16 1_555 1_555
C22 C23 1_555 1_555
C23 C24 1_555 1_555
C24 H15 1_555 1_555
C25 C24 1_555 1_555
H16 C25 1_555 1_555
C26 Si1 1_555 1_555
C27 C26 1_555 1_555
H17 C27 1_555 1_555
C28 C23 1_555 1_555
H18 C28 1_555 1_555
O10 Cd2 1_555 1_555
H19 O10 1_555 1_555
H20 O10 1_555 1_555
Cd5 O8 1_555 1_555
Cd7 O8 1_555 1_555
O11 Cd2 1_555 1_555
O13 Cd3 1_555 1_555
O14 Cd3 1_555 1_555
O15 Cd2 1_555 1_555
O16 Cd3 1_555 1_555
O17 Cd3 1_555 1_555
Cd2 O14 1_555 1_555
C6 C7 1_555 1_555
C11 C12 1_555 1_555
O9 Cd5 1_555 1_555
C18 C19 1_555 1_555
C20 C21 1_555 1_555
C25 C26 1_555 1_555
C27 C28 1_555 1_555
O10_2 Cd6 1_555 1_555
H19_2 O10_2 1_555 1_555
H20_2 O10_2 1_555 1_555
Cd6 O13 1_555 1_555
O5_2 Cd6_2 1_555 1_555
H1_2 O5_2 1_555 1_555
H2_2 O5_2 1_555 1_555
O11_2 Cd6_2 1_555 1_555
O15_2 Cd6_2 1_555 1_555
O13 C8_2 1_555 1_555
O16 C8_2 1_555 1_555
C8_2 C9_2 1_555 1_555
C14_2 C9_2 1_555 1_555
H10_2 C14_2 1_555 1_555
C10_2 H7_2 1_555 1_555
C11_2 C10_2 1_555 1_555
H8_2 C11_2 1_555 1_555
Cd5 O7_2 1_555 1_555
Cd7 O1_2 1_555 1_555
Si1_2 C5_2 1_555 1_555
O1_2 C1_2 1_555 1_555
O5_3 Cd7 1_555 1_555
H1_3 O5_3 1_555 1_555
H2_3 O5_3 1_555 1_555
C1_2 C2_2 1_555 1_555
C2_2 C3_2 1_555 1_555
C3_2 H3_2 1_555 1_555
C4_2 C3_2 1_555 1_555
H4_2 C4_2 1_555 1_555
C5_2 C4_2 1_555 1_555
C12_2 Si1_2 1_555 1_555
C13_2 C12_2 1_555 1_555
H13_2 C20_2 1_555 1_555
O10_3 Cd7 1_555 1_555
H19_3 O10_3 1_555 1_555
H20_3 O10_3 1_555 1_555
O11_3 Cd7 1_555 1_555
O15_3 Cd7 1_555 1_555
C20_2 C21_2 1_555 1_555
O14 C22_2 1_555 1_555
O17 C22_2 1_555 1_555
C22_2 C23_2 1_555 1_555
C23_2 C24_2 1_555 1_555
C24_2 H15_2 1_555 1_555
C25_2 C24_2 1_555 1_555
H16_2 C25_2 1_555 1_555
C28_2 C23_2 1_555 1_555
H18_2 C28_2 1_555 1_555
O6_2 C15_2 1_555 1_555
Cd8 O6_2 1_555 1_555
Cd5_2 O2_2 1_555 1_555
H5_2 C6_2 1_555 1_555
H6_2 C7_2 1_555 1_555
C16_2 C17_2 1_555 1_555
C17_2 H11_2 1_555 1_555
C18_2 C17_2 1_555 1_555
H12_2 C18_2 1_555 1_555
C19_2 Si1_3 1_555 1_555
C26_2 Si1_3 1_555 1_555
C27_2 C26_2 1_555 1_555
H17_2 C27_2 1_555 1_555
C6_2 C7_2 1_555 1_555
C18_2 C19_2 1_555 1_555
O10_4 Cd8 1_555 1_555
H19_4 O10_4 1_555 1_555
H20_4 O10_4 1_555 1_555
O5_4 Cd8_2 1_555 1_555
H1_4 O5_4 1_555 1_555
H2_4 O5_4 1_555 1_555
O11_4 Cd8_2 1_555 1_555
O15_4 Cd8_2 1_555 1_555
Cd1 O2_3 1_555 1_555
Si1_4 C5_3 1_555 1_555
O11_3 C1_3 1_555 1_555
O2_3 C1_3 1_555 1_555
C1_3 C2_3 1_555 1_555
C2_3 C3_3 1_555 1_555
C3_3 H3_3 1_555 1_555
C4_3 C3_3 1_555 1_555
H4_3 C4_3 1_555 1_555
C5_3 C4_3 1_555 1_555
C6_3 C5_3 1_555 1_555
H5_3 C6_3 1_555 1_555
C7_3 C2_3 1_555 1_555
H6_3 C7_3 1_555 1_555
C10_3 H7_3 1_555 1_555
C11_3 C10_3 1_555 1_555
H8_3 C11_3 1_555 1_555
C12_3 Si1_4 1_555 1_555
C13_3 C12_3 1_555 1_555
O15 C22_3 1_555 1_555
O9_2 C22_3 1_555 1_555
C16_3 C17_3 1_555 1_555
C17_3 H11_3 1_555 1_555
C18_3 C17_3 1_555 1_555
H12_3 C18_3 1_555 1_555
C19_3 Si1_4 1_555 1_555
C20_3 C19_3 1_555 1_555
H13_3 C20_3 1_555 1_555
C21_3 C16_3 1_555 1_555
C22_3 C23_3 1_555 1_555
C23_3 C24_3 1_555 1_555
C24_3 H15_3 1_555 1_555
C25_3 C24_3 1_555 1_555
H16_3 C25_3 1_555 1_555
C26_3 Si1_4 1_555 1_555
C27_3 C26_3 1_555 1_555
H17_3 C27_3 1_555 1_555
C28_3 C23_3 1_555 1_555
H18_3 C28_3 1_555 1_555
Cd4_2 O15 1_555 1_555
O12 Cd1 1_555 1_555
O15_4 Cd1 1_555 1_555
O15_3 Cd1 1_555 1_555
O16_2 Cd1 1_555 1_555
O17_2 Cd1 1_555 1_555
C6_3 C7_3 1_555 1_555
C11_3 C12_3 1_555 1_555
O9_2 Cd4_2 1_555 1_555
C18_3 C19_3 1_555 1_555
C20_3 C21_3 1_555 1_555
C25_3 C26_3 1_555 1_555
C27_3 C28_3 1_555 1_555
O15_2 C8_3 1_555 1_555
O4_2 C8_3 1_555 1_555
C8_3 C9_3 1_555 1_555
C14_3 C9_3 1_555 1_555
H10_3 C14_3 1_555 1_555
O11_4 C15_3 1_555 1_555
O12 C15_3 1_555 1_555
Cd4 O15_2 1_555 1_555
O4_2 Cd4 1_555 1_555
Cd4 O2_4 1_555 1_555
H5_4 C6_4 1_555 1_555
H6_4 C7_4 1_555 1_555
C16_4 C17_4 1_555 1_555
C17_4 H11_4 1_555 1_555
C18_4 C17_4 1_555 1_555
H12_4 C18_4 1_555 1_555
C19_4 Si1_5 1_555 1_555
C26_4 Si1_5 1_555 1_555
C27_4 C26_4 1_555 1_555
H17_4 C27_4 1_555 1_555
C6_4 C7_4 1_555 1_555
C18_4 C19_4 1_555 1_555
O11_2 C15_4 1_555 1_555
O15_3 C22_4 1_555 1_555
O17_2 C22_4 1_555 1_555
C22_4 C23_4 1_555 1_555
C23_4 C24_4 1_555 1_555
C24_4 H15_4 1_555 1_555
C25_4 C24_4 1_555 1_555
H16_4 C25_4 1_555 1_555
C28_4 C23_4 1_555 1_555
H18_4 C28_4 1_555 1_555
Si1_6 C5_4 1_555 1_555
O11 C1_4 1_555 1_555
C1_4 C2_4 1_555 1_555
C2_4 C3_4 1_555 1_555
C3_4 H3_4 1_555 1_555
C4_4 C3_4 1_555 1_555
H4_4 C4_4 1_555 1_555
C5_4 C4_4 1_555 1_555
C12_4 Si1_6 1_555 1_555
C13_4 C12_4 1_555 1_555
H13_4 C20_4 1_555 1_555
O12_2 Cd4_2 1_555 1_555
C20_4 C21_4 1_555 1_555
C10_4 H7_4 1_555 1_555
C11_4 C10_4 1_555 1_555
H8_4 C11_4 1_555 1_555
O15_4 C8_4 1_555 1_555
O16_2 C8_4 1_555 1_555
C8_4 C9_4 1_555 1_555
C14_4 C9_4 1_555 1_555
H10_4 C14_4 1_555 1_555

#END
