
###############################################################################
#
# This file contains modified crystal structure data generated from the
# MOF subset of the Cambridge Structural Database (CSD) v543 
# hosted by the Cambridge Crystallographic Data Centre (CCDC).
#
# This work is licensed under the Creative Commons
# Attribution-NonCommercial-ShareAlike 4.0 International License.
# To view a copy of this license, visit
# http://creativecommons.org/licenses/by-nc-sa/4.0/
# or send a letter to
# Creative Commons, PO Box 1866, Mountain View, CA 94042, USA.
#
# CIF created using the CSD Python API on 29 September 2022
# The structure has been converted into the P1 space group
# The structure has a 3D framework
# The original CSD entry XATZOK is in the triclinic crystal system
# The framework has been calculated to contain at least 10.0% void space
# The void calculation uses a probe of radius 1.32A, grid spacing 0.4
# H atom positions have been added when not included in the experimental data
#
###############################################################################

data_XATZOK
_chemical_formula_moiety         '(C112 H68 N16 O16 Zn6)n'
_symmetry_cell_setting           triclinic
_symmetry_space_group_name_H-M   'P 1'
_symmetry_Int_Tables_number      1
_space_group_name_Hall           'P 1'
loop_
_symmetry_equiv_pos_site_id
_symmetry_equiv_pos_as_xyz
1 x,y,z
_cell_length_a                   14.1504(15)
_cell_length_b                   19.257(2)
_cell_length_c                   19.430(2)
_cell_angle_alpha                69.873(6)
_cell_angle_beta                 82.011(6)
_cell_angle_gamma                75.484(7)
_cell_volume                     4804.44
loop_
_atom_site_label
_atom_site_type_symbol
_atom_site_fract_x
_atom_site_fract_y
_atom_site_fract_z
Zn1 Zn 0.14162(3) 0.69482(2) 0.07492(2)
C2 C 0.3849(2) 0.59009(17) 0.31822(15)
H2 H 0.3326 0.6286 0.3237
C3 C 0.4581(2) 0.55915(17) 0.36744(14)
H3 H 0.4544 0.5782 0.4059
C4 C 0.5386(2) 0.47478(16) 0.30688(15)
H4 H 0.5899 0.4349 0.3032
O8 O 0.10984(16) 0.79304(13) 0.10518(12)
N4 N 0.29237(16) 0.67305(13) 0.07258(12)
C14 C 0.3920(2) 0.56154(17) 0.25978(15)
N5 N 0.53496(16) 0.50232(13) 0.36213(12)
C15 C 0.4686(2) 0.50366(17) 0.25514(15)
H8 H 0.4738 0.4836 0.2172
N6 N 0.14455(16) 0.61465(14) 0.17880(12)
C40 C 0.3519(2) 0.70632(16) 0.01489(15)
C41 C 0.4497(2) 0.68725(18) 0.03816(16)
H19 H 0.5038 0.7025 0.0095
C42 C 0.4488(2) 0.64307(17) 0.10943(16)
H20 H 0.5021 0.6219 0.1387
C43 C 0.3495(2) 0.63499(17) 0.13139(15)
C44 C 0.3163(2) 0.59683(17) 0.20220(15)
C45 C 0.2206(2) 0.58838(16) 0.22507(15)
C46 C 0.0646(2) 0.59031(17) 0.22103(15)
C54 C 0.0919(2) 0.54911(17) 0.29598(16)
H25 H 0.0513 0.5277 0.3353
C55 C 0.1882(2) 0.54780(17) 0.29781(16)
H26 H 0.2259 0.5249 0.3386
N8 N 0.00208(17) 0.68433(15) 0.06737(13)
Zn7 Zn 0.65016(2) 0.47337(2) 0.42777(2)
H33 H 0.047393 0.826008 0.0846013
H34 H 0.103695 0.778889 0.15955
Zn2 Zn 0.64648(2) 0.87853(2) 0.71009(2)
N1 N 0.14839(17) 0.74672(14) 0.96186(12)
C8 C 0.3988(2) 0.78576(18) 0.88992(15)
C9 C 0.4758(2) 0.88769(19) 0.82273(18)
H7 H 0.4796 0.9379 0.8118
N2 N 0.53968(17) 0.84455(14) 0.78713(12)
C27 C 0.0714(2) 0.77354(18) 0.91607(15)
C28 C 0.1048(2) 0.81781(18) 0.84464(15)
H13 H 0.0672 0.8425 0.8040
C29 C 0.1995(2) 0.81733(18) 0.84689(16)
H14 H 0.2393 0.8417 0.8087
C30 C 0.2271(2) 0.77126(17) 0.92052(15)
C31 C 0.3213(2) 0.75321(17) 0.94508(16)
C32 C 0.4058(2) 0.86073(19) 0.87407(18)
H15 H 0.3637 0.8918 0.8980
C38 C 0.5335(3) 0.7731(2) 0.80437(19)
H17 H 0.5778 0.7421 0.7814
C39 C 0.4644(3) 0.74284(19) 0.85480(19)
H18 H 0.4625 0.6923 0.8650
O10 O 0.69393(15) 0.79488(11) 0.66766(10)
O11 O 0.6585(2) 0.97134(14) 0.63065(13)
N9 N 0.76067(17) 0.84977(14) 0.77759(13)
O2 O 0.54488(17) 0.84442(13) 0.62735(12)
O4 O 0.60732(14) 0.55435(10) 0.47305(10)
O5 O 0.75725(15) 0.50603(12) 0.51297(10)
C5 C 0.7446(2) 0.63029(17) 0.56437(15)
H5 H 0.8067 0.6005 0.5608
O6 O 0.65724(14) 0.37478(11) 0.50240(10)
O7 O 0.70380(15) 0.33604(11) 0.40571(11)
C6 C 0.6961(3) 0.18490(19) 0.49320(18)
H6 H 0.7211 0.1926 0.4449
C10 C 0.5598(3) 0.7200(2) 0.57312(18)
C11 C 0.7304(3) 0.6881(2) 0.59402(18)
C12 C 0.6333(3) 0.0223(2) 0.6586(2)
C13 C 0.6467(2) 0.10164(19) 0.60894(19)
C16 C 0.8972(2) 0.57144(19) 0.24869(16)
N7 N 0.75469(17) 0.51000(14) 0.34936(12)
C17 C 0.6644(2) 0.61713(16) 0.53987(14)
C18 C 0.5732(2) 0.66350(17) 0.54395(16)
H9 H 0.5202 0.6557 0.5264
C19 C 0.6709(2) 0.24432(17) 0.52095(16)
C20 C 0.8276(2) 0.46705(19) 0.32482(17)
H10 H 0.8306 0.4152 0.3405
C21 C 0.9438(2) 0.6461(2) 0.12386(17)
C22 C 0.8509(2) 0.6545(2) 0.09674(17)
H11 H 0.7990 0.6341 0.1238
C23 C 0.8518(2) 0.6974(2) 0.02501(17)
C24 C 0.9462(2) 0.71742(19) 0.00705(16)
C34 C 0.6223(3) 0.79615(19) 0.63256(15)
C35 C 0.6378(2) 0.73337(17) 0.59934(15)
C36 C 0.6205(3) 0.1616(2) 0.6353(2)
C37 C 0.6841(3) 0.1131(2) 0.5379(2)
C47 C 0.9737(2) 0.60363(18) 0.19504(16)
C48 C 0.8152(3) 0.6178(2) 0.27072(19)
H21 H 0.8061 0.6703 0.2516
C49 C 0.7469(2) 0.58446(19) 0.32184(18)
H22 H 0.6933 0.6158 0.3375
C50 C 0.6796(2) 0.55429(16) 0.50741(15)
C51 C 0.6784(2) 0.32341(18) 0.47252(17)
C52 C 0.6327(3) 0.23386(19) 0.59200(18)
H23 H 0.6154 0.2740 0.6107
C53 C 0.9021(2) 0.4953(2) 0.27562(18)
H24 H 0.9548 0.4622 0.2614
O9 O 0.59887(18) 0.01361(14) 0.72418(16)
H27 H 0.738(3) 0.083(3) 0.510(2)
H28 H 0.766(3) 0.6983(19) 0.6137(18)
H30 H 0.494(4) 0.745(3) 0.581(3)
H32 H 0.592(2) 0.1632(18) 0.6731(17)
C1 C 0.7490(2) 0.87124(18) 0.83751(17)
H1 H 0.6921 0.9053 0.8446
C7 C 0.9041(2) 0.79365(18) 0.88045(15)
H12 H 0.8016 0.7113 0.9935
C25 C 0.9786(2) 0.76020(18) 0.93723(16)
C26 C 0.8195(3) 0.8441(2) 0.88956(19)
C33 C 0.8441(2) 0.80191(18) 0.76664(16)
H16 H 0.8533 0.7874 0.7248
C56 C 0.9164(2) 0.7739(2) 0.81633(19)
H29 H 0.965(3) 0.7388(19) 0.8052(19)
H31 H 0.804(2) 0.8562(17) 0.9298(16)
O3 O 0.3415(2) 0.02866(14) 0.36935(13)
Zn4 Zn 0.35352(2) 0.12147(2) 0.28991(2)
C1_2 C 0.2510(2) 0.12876(18) 0.16249(17)
H1_2 H 0.3079 0.0947 0.1554
C7_2 C 0.0959(2) 0.20635(18) 0.11955(15)
N3 N 0.23933(17) 0.15023(14) 0.22241(13)
H12_2 H 0.1984 0.2887 0.0065
C25_2 C 0.0214(2) 0.23980(18) 0.06277(16)
C26_2 C 0.1805(3) 0.1559(2) 0.11044(19)
C33_2 C 0.1559(2) 0.19809(18) 0.23336(16)
H16_2 H 0.1467 0.2126 0.2752
C56_2 C 0.0836(2) 0.2261(2) 0.18367(19)
H29_2 H 0.035(3) 0.2612(19) 0.1948(19)
H31_2 H 0.196(2) 0.1438(17) 0.0702(16)
Zn3 Zn 0.34984(2) 0.52663(2) 0.57223(2)
O1 O 0.30607(15) 0.20512(11) 0.33234(10)
O2_2 O 0.45512(17) 0.15558(13) 0.37265(12)
O4_2 O 0.39268(14) 0.44565(10) 0.52695(10)
O5_2 O 0.24275(15) 0.49397(12) 0.48703(10)
C5_2 C 0.2554(2) 0.36971(17) 0.43563(15)
H5_2 H 0.1933 0.3995 0.4392
O6_2 O 0.34276(14) 0.62522(11) 0.49760(10)
O7_2 O 0.29620(15) 0.66396(11) 0.59429(11)
C6_2 C 0.3039(3) 0.81510(19) 0.50680(18)
H6_2 H 0.2789 0.8074 0.5551
C10_2 C 0.4402(3) 0.2800(2) 0.42688(18)
C11_2 C 0.2696(3) 0.3119(2) 0.40598(18)
C12_2 C 0.3667(3) 0.9777(2) 0.3414(2)
C13_2 C 0.3533(2) 0.89836(19) 0.39106(19)
C16_2 C 0.1028(2) 0.42856(19) 0.75131(16)
N7_2 N 0.24531(17) 0.49000(14) 0.65064(12)
C17_2 C 0.3356(2) 0.38287(16) 0.46013(14)
C18_2 C 0.4268(2) 0.33650(17) 0.45605(16)
H9_2 H 0.4798 0.3443 0.4736
C19_2 C 0.3291(2) 0.75568(17) 0.47905(16)
C20_2 C 0.1724(2) 0.53295(19) 0.67518(17)
H10_2 H 0.1694 0.5848 0.6595
C21_2 C 0.0562(2) 0.3539(2) 0.87614(17)
C22_2 C 0.1491(2) 0.3455(2) 0.90326(17)
H11_2 H 0.2010 0.3659 0.8762
C23_2 C 0.1482(2) 0.3026(2) 0.97499(17)
C24_2 C 0.0538(2) 0.28258(19) 0.99295(16)
C34_2 C 0.3777(3) 0.20385(19) 0.36744(15)
C35_2 C 0.3622(2) 0.26663(17) 0.40066(15)
C36_2 C 0.3795(3) 0.8384(2) 0.3647(2)
C37_2 C 0.3159(3) 0.8869(2) 0.4621(2)
C47_2 C 0.0263(2) 0.39637(18) 0.80496(16)
C48_2 C 0.1848(3) 0.3822(2) 0.72928(19)
H21_2 H 0.1939 0.3297 0.7484
C49_2 C 0.2531(2) 0.41554(19) 0.67816(18)
H22_2 H 0.3067 0.3842 0.6625
C50_2 C 0.3204(2) 0.44571(16) 0.49259(15)
C51_2 C 0.3216(2) 0.67659(18) 0.52748(17)
C52_2 C 0.3673(3) 0.76614(19) 0.40800(18)
H23_2 H 0.3846 0.7260 0.3893
C53_2 C 0.0979(2) 0.5047(2) 0.72438(18)
H24_2 H 0.0452 0.5378 0.7386
O9_2 O 0.40113(18) 0.98639(14) 0.27582(16)
H27_2 H 0.262(3) 0.917(3) 0.490(2)
H28_2 H 0.234(3) 0.3017(19) 0.3863(18)
H30_2 H 0.506(4) 0.255(3) 0.419(3)
H32_2 H 0.408(2) 0.8368(18) 0.3269(17)
N10 N 0.46504(16) 0.49768(13) 0.63787(12)
N1_2 N 0.85161(17) 0.25328(14) 0.03814(12)
C8_2 C 0.6012(2) 0.21424(18) 0.11008(15)
C9_2 C 0.5242(2) 0.11231(19) 0.17727(18)
H7_2 H 0.5204 0.0621 0.1882
N2_2 N 0.46032(17) 0.15545(14) 0.21287(12)
C27_2 C 0.9286(2) 0.22646(18) 0.08393(15)
C28_2 C 0.8952(2) 0.18219(18) 0.15536(15)
H13_2 H 0.9328 0.1575 0.1960
C29_2 C 0.8005(2) 0.18267(18) 0.15311(16)
H14_2 H 0.7607 0.1583 0.1913
C30_2 C 0.7729(2) 0.22874(17) 0.07948(15)
C31_2 C 0.6787(2) 0.24679(17) 0.05492(16)
C32_2 C 0.5942(2) 0.13927(19) 0.12593(18)
H15_2 H 0.6363 0.1082 0.1020
C38_2 C 0.4665(3) 0.2269(2) 0.19563(19)
H17_2 H 0.4222 0.2579 0.2186
C39_2 C 0.5356(3) 0.25716(19) 0.14520(19)
H18_2 H 0.5375 0.3077 0.1350
Zn1_2 Zn 0.85838(3) 0.30518(2) 0.92508(2)
C2_2 C 0.6151(2) 0.40991(17) 0.68178(15)
H2_2 H 0.6674 0.3714 0.6763
C3_2 C 0.5419(2) 0.44085(17) 0.63256(14)
H3_2 H 0.5456 0.4218 0.5941
C4_2 C 0.4614(2) 0.52522(16) 0.69312(15)
H4_2 H 0.4101 0.5651 0.6968
O8_2 O 0.89016(16) 0.20696(13) 0.89482(12)
N4_2 N 0.70763(16) 0.32695(13) 0.92742(12)
C14_2 C 0.6080(2) 0.43846(17) 0.74022(15)
C15_2 C 0.5314(2) 0.49634(17) 0.74486(15)
H8_2 H 0.5262 0.5164 0.7828
N6_2 N 0.85545(16) 0.38535(14) 0.82120(12)
C40_2 C 0.6481(2) 0.29368(16) 0.98511(15)
C41_2 C 0.5503(2) 0.31275(18) 0.96184(16)
H19_2 H 0.4962 0.2975 0.9905
C42_2 C 0.5512(2) 0.35693(17) 0.89057(16)
H20_2 H 0.4979 0.3781 0.8613
C43_2 C 0.6505(2) 0.36501(17) 0.86861(15)
C44_2 C 0.6837(2) 0.40317(17) 0.79780(15)
C45_2 C 0.7794(2) 0.41162(16) 0.77493(15)
C46_2 C 0.9354(2) 0.40969(17) 0.77897(15)
C54_2 C 0.9081(2) 0.45089(17) 0.70402(16)
H25_2 H 0.9487 0.4723 0.6647
C55_2 C 0.8118(2) 0.45220(17) 0.70219(16)
H26_2 H 0.7741 0.4751 0.6614
N8_2 N 0.99792(17) 0.31567(15) 0.93263(13)
H33_2 H 0.952607 0.173992 0.915399
H34_2 H 0.896305 0.221111 0.84045
loop_
_geom_bond_atom_site_label_1
_geom_bond_atom_site_label_2
_geom_bond_site_symmetry_1
_geom_bond_site_symmetry_2
Zn1 O8 1_555 1_555
C2 H2 1_555 1_555
C3 C2 1_555 1_555
H3 C3 1_555 1_555
C4 H4 1_555 1_555
N4 Zn1 1_555 1_555
C14 C2 1_555 1_555
N5 C3 1_555 1_555
C15 C4 1_555 1_555
H8 C15 1_555 1_555
N6 Zn1 1_555 1_555
C40 N4 1_555 1_555
C41 C40 1_555 1_555
H19 C41 1_555 1_555
C42 C41 1_555 1_555
H20 C42 1_555 1_555
C43 N4 1_555 1_555
C44 C14 1_555 1_555
C45 N6 1_555 1_555
C46 N6 1_555 1_555
C54 C46 1_555 1_555
H25 C54 1_555 1_555
C55 C45 1_555 1_555
H26 C55 1_555 1_555
N8 Zn1 1_555 1_555
Zn7 N5 1_555 1_555
C4 N5 1_555 1_555
C14 C15 1_555 1_555
C42 C43 1_555 1_555
C43 C44 1_555 1_555
C44 C45 1_555 1_555
C54 C55 1_555 1_555
O8 H33 1_555 1_555
O8 H34 1_555 1_555
Zn2 N2 1_555 1_555
C8 C31 1_555 1_555
C9 H7 1_555 1_555
N2 C9 1_555 1_555
C27 N1 1_555 1_555
C28 C27 1_555 1_555
H13 C28 1_555 1_555
C29 C28 1_555 1_555
H14 C29 1_555 1_555
C30 N1 1_555 1_555
C31 C30 1_555 1_555
C32 C8 1_555 1_555
H15 C32 1_555 1_555
C38 N2 1_555 1_555
H17 C38 1_555 1_555
C39 C8 1_555 1_555
H18 C39 1_555 1_555
O10 Zn2 1_555 1_555
O11 Zn2 1_555 1_555
N9 Zn2 1_555 1_555
C9 C32 1_555 1_555
C29 C30 1_555 1_555
C38 C39 1_555 1_555
Zn7 O4 1_555 1_555
O10 C34 1_555 1_555
O2 C34 1_555 1_555
O4 C50 1_555 1_555
O5 C50 1_555 1_555
C5 H5 1_555 1_555
O6 Zn7 1_555 1_555
O7 C51 1_555 1_555
C6 H6 1_555 1_555
C10 C18 1_555 1_555
C11 C5 1_555 1_555
C12 C13 1_555 1_555
C13 C36 1_555 1_555
C16 C47 1_555 1_555
N7 Zn7 1_555 1_555
C17 C5 1_555 1_555
C18 C17 1_555 1_555
H9 C18 1_555 1_555
C19 C6 1_555 1_555
C20 N7 1_555 1_555
H10 C20 1_555 1_555
C21 C22 1_555 1_555
C22 H11 1_555 1_555
C23 C22 1_555 1_555
C24 C23 1_555 1_555
C34 C35 1_555 1_555
C35 C10 1_555 1_555
C36 C52 1_555 1_555
C37 C6 1_555 1_555
C47 C21 1_555 1_555
C48 C16 1_555 1_555
H21 C48 1_555 1_555
C49 N7 1_555 1_555
H22 C49 1_555 1_555
C50 C17 1_555 1_555
C51 O6 1_555 1_555
C52 C19 1_555 1_555
H23 C52 1_555 1_555
C53 C16 1_555 1_555
H24 C53 1_555 1_555
O9 C12 1_555 1_555
H27 C37 1_555 1_555
H28 C11 1_555 1_555
H30 C10 1_555 1_555
H32 C36 1_555 1_555
C11 C35 1_555 1_555
C13 C37 1_555 1_555
C19 C51 1_555 1_555
C20 C53 1_555 1_555
C48 C49 1_555 1_555
C1 H1 1_555 1_555
C7 C25 1_555 1_555
N9 C1 1_555 1_555
C26 C1 1_555 1_555
C33 N9 1_555 1_555
H16 C33 1_555 1_555
C56 C7 1_555 1_555
H29 C56 1_555 1_555
H31 C26 1_555 1_555
C7 C26 1_555 1_555
C33 C56 1_555 1_555
Zn4 O3 1_555 1_555
C1_2 H1_2 1_555 1_555
C7_2 C25_2 1_555 1_555
N3 C1_2 1_555 1_555
C26_2 C1_2 1_555 1_555
C33_2 N3 1_555 1_555
H16_2 C33_2 1_555 1_555
C56_2 C7_2 1_555 1_555
H29_2 C56_2 1_555 1_555
H31_2 C26_2 1_555 1_555
Zn4 N3 1_555 1_555
C7_2 C26_2 1_555 1_555
C33_2 C56_2 1_555 1_555
Zn3 O4_2 1_555 1_555
O1 C34_2 1_555 1_555
O2_2 C34_2 1_555 1_555
O4_2 C50_2 1_555 1_555
O5_2 C50_2 1_555 1_555
C5_2 H5_2 1_555 1_555
O6_2 Zn3 1_555 1_555
O7_2 C51_2 1_555 1_555
C6_2 H6_2 1_555 1_555
C10_2 C18_2 1_555 1_555
C11_2 C5_2 1_555 1_555
C12_2 C13_2 1_555 1_555
C13_2 C36_2 1_555 1_555
C16_2 C47_2 1_555 1_555
N7_2 Zn3 1_555 1_555
C17_2 C5_2 1_555 1_555
C18_2 C17_2 1_555 1_555
H9_2 C18_2 1_555 1_555
C19_2 C6_2 1_555 1_555
C20_2 N7_2 1_555 1_555
H10_2 C20_2 1_555 1_555
C21_2 C22_2 1_555 1_555
C22_2 H11_2 1_555 1_555
C23_2 C22_2 1_555 1_555
C24_2 C23_2 1_555 1_555
C34_2 C35_2 1_555 1_555
C35_2 C10_2 1_555 1_555
C36_2 C52_2 1_555 1_555
C37_2 C6_2 1_555 1_555
C47_2 C21_2 1_555 1_555
C48_2 C16_2 1_555 1_555
H21_2 C48_2 1_555 1_555
C49_2 N7_2 1_555 1_555
H22_2 C49_2 1_555 1_555
C50_2 C17_2 1_555 1_555
C51_2 O6_2 1_555 1_555
C52_2 C19_2 1_555 1_555
H23_2 C52_2 1_555 1_555
C53_2 C16_2 1_555 1_555
H24_2 C53_2 1_555 1_555
O9_2 C12_2 1_555 1_555
H27_2 C37_2 1_555 1_555
H28_2 C11_2 1_555 1_555
H30_2 C10_2 1_555 1_555
H32_2 C36_2 1_555 1_555
Zn4 O1 1_555 1_555
N10 Zn3 1_555 1_555
C11_2 C35_2 1_555 1_555
C13_2 C37_2 1_555 1_555
C19_2 C51_2 1_555 1_555
C20_2 C53_2 1_555 1_555
C48_2 C49_2 1_555 1_555
Zn4 N2_2 1_555 1_555
C8_2 C31_2 1_555 1_555
C9_2 H7_2 1_555 1_555
N2_2 C9_2 1_555 1_555
C27_2 N1_2 1_555 1_555
C28_2 C27_2 1_555 1_555
H13_2 C28_2 1_555 1_555
C29_2 C28_2 1_555 1_555
H14_2 C29_2 1_555 1_555
C30_2 N1_2 1_555 1_555
C31_2 C30_2 1_555 1_555
C32_2 C8_2 1_555 1_555
H15_2 C32_2 1_555 1_555
C38_2 N2_2 1_555 1_555
H17_2 C38_2 1_555 1_555
C39_2 C8_2 1_555 1_555
H18_2 C39_2 1_555 1_555
C9_2 C32_2 1_555 1_555
C29_2 C30_2 1_555 1_555
C38_2 C39_2 1_555 1_555
Zn1_2 O8_2 1_555 1_555
C2_2 H2_2 1_555 1_555
C3_2 C2_2 1_555 1_555
H3_2 C3_2 1_555 1_555
C4_2 H4_2 1_555 1_555
N4_2 Zn1_2 1_555 1_555
C14_2 C2_2 1_555 1_555
N10 C3_2 1_555 1_555
C15_2 C4_2 1_555 1_555
H8_2 C15_2 1_555 1_555
N6_2 Zn1_2 1_555 1_555
C40_2 N4_2 1_555 1_555
C41_2 C40_2 1_555 1_555
H19_2 C41_2 1_555 1_555
C42_2 C41_2 1_555 1_555
H20_2 C42_2 1_555 1_555
C43_2 N4_2 1_555 1_555
C44_2 C14_2 1_555 1_555
C45_2 N6_2 1_555 1_555
C46_2 N6_2 1_555 1_555
C54_2 C46_2 1_555 1_555
H25_2 C54_2 1_555 1_555
C55_2 C45_2 1_555 1_555
H26_2 C55_2 1_555 1_555
N8_2 Zn1_2 1_555 1_555
C4_2 N10 1_555 1_555
C14_2 C15_2 1_555 1_555
C42_2 C43_2 1_555 1_555
C43_2 C44_2 1_555 1_555
C44_2 C45_2 1_555 1_555
C54_2 C55_2 1_555 1_555
O8_2 H33_2 1_555 1_555
O8_2 H34_2 1_555 1_555

#END
