
###############################################################################
#
# This file contains modified crystal structure data generated from the
# MOF subset of the Cambridge Structural Database (CSD) v543 
# hosted by the Cambridge Crystallographic Data Centre (CCDC).
#
# This work is licensed under the Creative Commons
# Attribution-NonCommercial-ShareAlike 4.0 International License.
# To view a copy of this license, visit
# http://creativecommons.org/licenses/by-nc-sa/4.0/
# or send a letter to
# Creative Commons, PO Box 1866, Mountain View, CA 94042, USA.
#
# CIF created using the CSD Python API on 29 September 2022
# The structure has been converted into the P1 space group
# The structure has a 3D framework
# The original CSD entry XAWYAY is in the monoclinic crystal system
# The framework has been calculated to contain at least 10.0% void space
# The void calculation uses a probe of radius 1.32A, grid spacing 0.4
#
###############################################################################

data_XAWYAY
_chemical_formula_moiety         '(C32 H32 Hg1 N16)n'
_symmetry_cell_setting           triclinic
_symmetry_space_group_name_H-M   'P 1'
_symmetry_Int_Tables_number      1
_space_group_name_Hall           'P 1'
loop_
_symmetry_equiv_pos_site_id
_symmetry_equiv_pos_as_xyz
1 x,y,z
_cell_length_a                   16.6742(19)
_cell_length_b                   8.3702(11)
_cell_length_c                   6.9225(11)
_cell_angle_alpha                90
_cell_angle_beta                 99.8141(66)
_cell_angle_gamma                90
_cell_volume                     952.01
loop_
_atom_site_label
_atom_site_type_symbol
_atom_site_fract_x
_atom_site_fract_y
_atom_site_fract_z
_atom_site_U_iso_or_equiv
_atom_site_thermal_displace_type
Hg1 Hg 0.000 0.11296(25) 0.75 0.0633 Uiso
N7 N 0.088959 0.155867 0.549486 0.0887 Uiso
N2 N 0.088959 0.844133 0.049486 0.0887 Uiso
C3 C 0.154577 0.748014 0.105307 0.0887 Uiso
C4 C 0.162003 0.630783 0.251525 0.0887 Uiso
H2 H 0.106839 0.629938 0.318911 0.0887 Uiso
H3 H 0.215268 0.657092 0.364252 0.0887 Uiso
H4 H 0.169745 0.513078 0.186462 0.0887 Uiso
C5 C 0.288285 0.714230 0.005851 0.0887 Uiso
C6 C 0.318590 0.594776 0.130371 0.0887 Uiso
H5 H 0.291517 0.545229 0.224683 0.0887 Uiso
N3 N 0.394458 0.558705 0.096171 0.0887 Uiso
Hg2 Hg 0.000 0.88704(25) 0.25 0.0633 Uiso
Hg3 Hg 0.500 0.38704(25) 0.25 0.0633 Uiso
C1 C 0.211715 0.785770 0.994149 0.0887 Uiso
C2 C 0.181410 0.905224 0.869629 0.0887 Uiso
H1 H 0.208483 0.954771 0.775317 0.0887 Uiso
N1 N 0.105542 0.941295 0.903829 0.0887 Uiso
N4 N 0.411041 0.655867 0.950514 0.0887 Uiso
C7 C 0.345423 0.751986 0.894693 0.0887 Uiso
C8 C 0.337997 0.869217 0.748475 0.0887 Uiso
H6 H 0.393161 0.870062 0.681089 0.0887 Uiso
H7 H 0.284732 0.842908 0.635748 0.0887 Uiso
H8 H 0.330255 0.986922 0.813538 0.0887 Uiso
Hg4 Hg 0.500 0.61296(25) 0.75 0.0633 Uiso
Hg1_2 Hg 1.000 0.11296(25) 0.75 0.0633 Uiso
N6 N 0.911041 0.155867 0.950514 0.0887 Uiso
Hg2_2 Hg 1.000 0.88704(25) 0.25 0.0633 Uiso
N5 N 0.894458 0.941295 0.596171 0.0887 Uiso
C1_2 C 0.788285 0.785770 0.505851 0.0887 Uiso
C2_2 C 0.818590 0.905224 0.630371 0.0887 Uiso
H1_2 H 0.791517 0.954771 0.724683 0.0887 Uiso
N2_2 N 0.911041 0.844133 0.450514 0.0887 Uiso
C3_2 C 0.845423 0.748014 0.394693 0.0887 Uiso
C4_2 C 0.837997 0.630783 0.248475 0.0887 Uiso
H2_2 H 0.893161 0.629938 0.181089 0.0887 Uiso
H3_2 H 0.784732 0.657092 0.135748 0.0887 Uiso
H4_2 H 0.830255 0.513078 0.313538 0.0887 Uiso
C5_2 C 0.711715 0.714230 0.494149 0.0887 Uiso
C6_2 C 0.681410 0.594776 0.369629 0.0887 Uiso
H5_2 H 0.708483 0.545229 0.275317 0.0887 Uiso
N3_2 N 0.605542 0.558705 0.403829 0.0887 Uiso
N4_2 N 0.588959 0.655867 0.549486 0.0887 Uiso
C7_2 C 0.654577 0.751986 0.605307 0.0887 Uiso
C8_2 C 0.662003 0.869217 0.751525 0.0887 Uiso
H6_2 H 0.606839 0.870062 0.818911 0.0887 Uiso
H7_2 H 0.715268 0.842908 0.864252 0.0887 Uiso
H8_2 H 0.669745 0.986922 0.686462 0.0887 Uiso
C1_3 C 0.288285 0.285770 0.505851 0.0887 Uiso
C2_3 C 0.318590 0.405224 0.630371 0.0887 Uiso
H1_3 H 0.291517 0.454771 0.724683 0.0887 Uiso
N1_2 N 0.394458 0.441295 0.596171 0.0887 Uiso
N2_3 N 0.411041 0.344133 0.450514 0.0887 Uiso
C3_3 C 0.345423 0.248014 0.394693 0.0887 Uiso
C4_3 C 0.337997 0.130783 0.248475 0.0887 Uiso
H2_3 H 0.393161 0.129938 0.181089 0.0887 Uiso
H3_3 H 0.284732 0.157092 0.135748 0.0887 Uiso
H4_3 H 0.330255 0.013078 0.313538 0.0887 Uiso
C5_3 C 0.211715 0.214230 0.494149 0.0887 Uiso
C6_3 C 0.181410 0.094776 0.369629 0.0887 Uiso
H5_3 H 0.208483 0.045229 0.275317 0.0887 Uiso
N3_3 N 0.105542 0.058705 0.403829 0.0887 Uiso
C7_3 C 0.154577 0.251986 0.605307 0.0887 Uiso
C8_3 C 0.162003 0.369217 0.751525 0.0887 Uiso
H6_3 H 0.106839 0.370062 0.818911 0.0887 Uiso
H7_3 H 0.215268 0.342908 0.864252 0.0887 Uiso
H8_3 H 0.169745 0.486922 0.686462 0.0887 Uiso
N5_2 N 0.605542 0.441295 0.903829 0.0887 Uiso
N2_4 N 0.588959 0.344133 0.049486 0.0887 Uiso
C3_4 C 0.654577 0.248014 0.105307 0.0887 Uiso
C4_4 C 0.662003 0.130783 0.251525 0.0887 Uiso
H2_4 H 0.606839 0.129938 0.318911 0.0887 Uiso
H3_4 H 0.715268 0.157092 0.364252 0.0887 Uiso
H4_4 H 0.669745 0.013078 0.186462 0.0887 Uiso
C5_4 C 0.788285 0.214230 0.005851 0.0887 Uiso
C6_4 C 0.818590 0.094776 0.130371 0.0887 Uiso
H5_4 H 0.791517 0.045229 0.224683 0.0887 Uiso
N3_4 N 0.894458 0.058705 0.096171 0.0887 Uiso
C1_4 C 0.711715 0.285770 0.994149 0.0887 Uiso
C2_4 C 0.681410 0.405224 0.869629 0.0887 Uiso
H1_4 H 0.708483 0.454771 0.775317 0.0887 Uiso
C7_4 C 0.845423 0.251986 0.894693 0.0887 Uiso
C8_4 C 0.837997 0.369217 0.748475 0.0887 Uiso
H6_4 H 0.893161 0.370062 0.681089 0.0887 Uiso
H7_4 H 0.784732 0.342908 0.635748 0.0887 Uiso
H8_4 H 0.830255 0.486922 0.813538 0.0887 Uiso
loop_
_geom_bond_atom_site_label_1
_geom_bond_atom_site_label_2
_geom_bond_site_symmetry_1
_geom_bond_site_symmetry_2
N7 Hg1 1_555 1_555
C4 C3 1_555 1_555
H2 C4 1_555 1_555
H3 C4 1_555 1_555
H4 C4 1_555 1_555
C6 C5 1_555 1_555
H5 C6 1_555 1_555
N3 C6 1_555 1_555
Hg2 N2 1_555 1_555
Hg3 N3 1_555 1_555
N2 C3 1_555 1_555
C1 C2 1_555 1_555
C2 H1 1_555 1_555
N1 C2 1_555 1_555
C8 C7 1_555 1_555
H6 C8 1_555 1_555
H7 C8 1_555 1_555
H8 C8 1_555 1_555
Hg4 N4 1_555 1_555
N4 C7 1_555 1_555
N6 Hg1_2 1_555 1_555
C1_2 C2_2 1_555 1_555
C2_2 H1_2 1_555 1_555
N5 C2_2 1_555 1_555
N2_2 N5 1_555 1_555
C3_2 C1_2 1_555 1_555
C4_2 C3_2 1_555 1_555
H2_2 C4_2 1_555 1_555
H3_2 C4_2 1_555 1_555
H4_2 C4_2 1_555 1_555
C5_2 C1_2 1_555 1_555
C6_2 C5_2 1_555 1_555
H5_2 C6_2 1_555 1_555
N3_2 C6_2 1_555 1_555
N4_2 N3_2 1_555 1_555
C7_2 C5_2 1_555 1_555
C8_2 C7_2 1_555 1_555
H6_2 C8_2 1_555 1_555
H7_2 C8_2 1_555 1_555
H8_2 C8_2 1_555 1_555
Hg2_2 N2_2 1_555 1_555
Hg3 N3_2 1_555 1_555
Hg4 N4_2 1_555 1_555
N2_2 C3_2 1_555 1_555
N4_2 C7_2 1_555 1_555
C1_3 C2_3 1_555 1_555
C2_3 H1_3 1_555 1_555
N1_2 C2_3 1_555 1_555
N2_3 N1_2 1_555 1_555
C3_3 C1_3 1_555 1_555
C4_3 C3_3 1_555 1_555
H2_3 C4_3 1_555 1_555
H3_3 C4_3 1_555 1_555
H4_3 C4_3 1_555 1_555
Hg4 N1_2 1_555 1_555
C5_3 C1_3 1_555 1_555
C6_3 C5_3 1_555 1_555
H5_3 C6_3 1_555 1_555
N3_3 C6_3 1_555 1_555
N7 N3_3 1_555 1_555
C7_3 C5_3 1_555 1_555
C8_3 C7_3 1_555 1_555
H6_3 C8_3 1_555 1_555
H7_3 C8_3 1_555 1_555
H8_3 C8_3 1_555 1_555
N5_2 Hg4 1_555 1_555
Hg3 N2_3 1_555 1_555
N2_3 C3_3 1_555 1_555
N7 C7_3 1_555 1_555
C4_4 C3_4 1_555 1_555
H2_4 C4_4 1_555 1_555
H3_4 C4_4 1_555 1_555
H4_4 C4_4 1_555 1_555
C6_4 C5_4 1_555 1_555
H5_4 C6_4 1_555 1_555
N3_4 C6_4 1_555 1_555
Hg3 N2_4 1_555 1_555
N2_4 C3_4 1_555 1_555
C1_4 C2_4 1_555 1_555
C2_4 H1_4 1_555 1_555
N5_2 C2_4 1_555 1_555
C8_4 C7_4 1_555 1_555
H6_4 C8_4 1_555 1_555
H7_4 C8_4 1_555 1_555
H8_4 C8_4 1_555 1_555
N6 C7_4 1_555 1_555

#END
