
###############################################################################
#
# This file contains modified crystal structure data generated from the
# MOF subset of the Cambridge Structural Database (CSD) v543 
# hosted by the Cambridge Crystallographic Data Centre (CCDC).
#
# This work is licensed under the Creative Commons
# Attribution-NonCommercial-ShareAlike 4.0 International License.
# To view a copy of this license, visit
# http://creativecommons.org/licenses/by-nc-sa/4.0/
# or send a letter to
# Creative Commons, PO Box 1866, Mountain View, CA 94042, USA.
#
# CIF created using the CSD Python API on 29 September 2022
# The structure has been converted into the P1 space group
# The structure has a 3D framework
# The original CSD entry XAWZEE02 is in the triclinic crystal system
# The framework has been calculated to contain at least 10.0% void space
# The void calculation uses a probe of radius 1.32A, grid spacing 0.4
#
###############################################################################

data_XAWZEE02
_chemical_formula_moiety         '(C28 H20 Ag4 Fe2 N16 O4)n'
_symmetry_cell_setting           triclinic
_symmetry_space_group_name_H-M   'P 1'
_symmetry_Int_Tables_number      1
_space_group_name_Hall           'P 1'
loop_
_symmetry_equiv_pos_site_id
_symmetry_equiv_pos_as_xyz
1 x,y,z
_cell_length_a                   10.5889(19)
_cell_length_b                   10.661(2)
_cell_length_c                   16.043(3)
_cell_angle_alpha                98.712(7)
_cell_angle_beta                 93.327(7)
_cell_angle_gamma                101.212(5)
_cell_volume                     1748.84
loop_
_atom_site_label
_atom_site_type_symbol
_atom_site_fract_x
_atom_site_fract_y
_atom_site_fract_z
Ag1 Ag 0.31600(15) 0.76960(11) 0.09333(9)
Ag2 Ag 0.79120(12) 0.25967(15) 0.09897(9)
Fe1 Fe 0.29407(16) 0.26771(15) 0.10297(11)
N5 N 0.3037(12) 0.4733(11) 0.1048(8)
N6 N 0.5030(11) 0.3037(12) 0.1124(8)
N7 N 0.2971(13) 0.0664(10) 0.0974(7)
N8 N 0.0822(12) 0.2300(13) 0.0944(8)
C13 C 0.3092(15) 0.5777(13) 0.1015(9)
C14 C 0.6048(15) 0.2911(16) 0.1092(10)
N9 N 0.2926(12) 0.2934(11) 0.2412(7)
C17 C 0.3062(18) 0.9630(14) 0.0954(9)
C18 C 0.9776(13) 0.2354(16) 0.0949(10)
O1 O 0.3521(16) 0.4059(13) 0.6766(8)
O2 O 0.2295(17) 0.1274(12) 0.5310(7)
N1 N 0.2920(11) 0.2438(11) 0.9640(7)
N2 N 0.2590(14) 0.2029(12) 0.7004(7)
H1 H 0.222382 0.126665 0.674532
N3 N 0.3013(14) 0.3349(13) 0.5085(8)
H2 H 0.327015 0.412991 0.535099
C1 C 0.2173(18) 0.1379(14) 0.9124(10)
H3 H 0.168320 0.073701 0.937170
C2 C 0.2118(17) 0.1230(14) 0.8281(9)
H4 H 0.166446 0.045766 0.795820
C3 C 0.2732(15) 0.2220(14) 0.7879(9)
C4 C 0.3484(17) 0.3279(16) 0.8391(9)
H5 H 0.395010 0.395184 0.815735
C5 C 0.3542(14) 0.3334(14) 0.9243(8)
H6 H 0.406226 0.406271 0.957427
C6 C 0.299(2) 0.2971(16) 0.6508(9)
C7 C 0.2727(18) 0.2442(16) 0.5555(10)
C8 C 0.2943(14) 0.3182(13) 0.4186(9)
C9 C 0.2406(17) 0.2028(16) 0.3658(9)
H7 H 0.205077 0.130043 0.388604
C10 C 0.2400(16) 0.1961(14) 0.2800(10)
H8 H 0.199929 0.118162 0.246146
C11 C 0.3443(16) 0.4065(14) 0.2931(8)
H9 H 0.381896 0.477587 0.269418
C12 C 0.3433(16) 0.4203(14) 0.3820(9)
H10 H 0.376719 0.500496 0.415469
Ag4 Ag 0.68400(15) 0.23040(11) 0.90667(9)
Ag6 Ag 0.20880(12) 0.74033(15) 0.90103(9)
C16 C 0.0224(13) 0.7646(16) 0.9051(10)
C15 C 0.6938(18) 0.0370(14) 0.9046(9)
O1_2 O 0.6479(16) 0.5941(13) 0.3234(8)
O2_2 O 0.7705(17) 0.8726(12) 0.4690(7)
N1_2 N 0.7080(11) 0.7562(11) 0.0360(7)
N2_2 N 0.7410(14) 0.7971(12) 0.2996(7)
H1_2 H 0.777618 0.873335 0.325468
N3_2 N 0.6987(14) 0.6651(13) 0.4915(8)
H2_2 H 0.672985 0.587009 0.464901
N4 N 0.7074(12) 0.7066(11) 0.7588(7)
C1_2 C 0.7827(18) 0.8621(14) 0.0876(10)
H3_2 H 0.831680 0.926299 0.062830
C2_2 C 0.7882(17) 0.8770(14) 0.1719(9)
H4_2 H 0.833554 0.954234 0.204180
C3_2 C 0.7268(15) 0.7780(14) 0.2121(9)
C4_2 C 0.6516(17) 0.6721(16) 0.1609(9)
H5_2 H 0.604990 0.604816 0.184265
C5_2 C 0.6458(14) 0.6666(14) 0.0757(8)
H6_2 H 0.593774 0.593729 0.042573
C6_2 C 0.701(2) 0.7029(16) 0.3492(9)
C7_2 C 0.7273(18) 0.7558(16) 0.4445(10)
C8_2 C 0.7057(14) 0.6818(13) 0.5814(9)
C9_2 C 0.7594(17) 0.7972(16) 0.6342(9)
H7_2 H 0.794923 0.869957 0.611396
C10_2 C 0.7600(16) 0.8039(14) 0.7200(10)
H8_2 H 0.800071 0.881838 0.753854
C11_2 C 0.6557(16) 0.5935(14) 0.7069(8)
H9_2 H 0.618104 0.522413 0.730582
C12_2 C 0.6567(16) 0.5797(14) 0.6180(9)
H10_2 H 0.623281 0.499504 0.584531
Fe2 Fe 0.70593(16) 0.73229(15) 0.89703(11)
N5_2 N 0.6963(12) 0.5267(11) 0.8952(8)
N6_2 N 0.4970(11) 0.6963(12) 0.8876(8)
N7_2 N 0.7029(13) 0.9336(10) 0.9026(7)
N8_2 N 0.9178(12) 0.7700(13) 0.9056(8)
C13_2 C 0.6908(15) 0.4223(13) 0.8985(9)
C14_2 C 0.3952(15) 0.7089(16) 0.8908(10)
loop_
_geom_bond_atom_site_label_1
_geom_bond_atom_site_label_2
_geom_bond_site_symmetry_1
_geom_bond_site_symmetry_2
Ag1 C13 1_555 1_555
Ag2 C14 1_555 1_555
N5 Fe1 1_555 1_555
N6 Fe1 1_555 1_555
N7 Fe1 1_555 1_555
N8 Fe1 1_555 1_555
C13 N5 1_555 1_555
C14 N6 1_555 1_555
N9 Fe1 1_555 1_555
C17 Ag1 1_555 1_555
C18 Ag2 1_555 1_555
O1 C6 1_555 1_555
O2 C7 1_555 1_555
N1 C1 1_555 1_555
N2 H1 1_555 1_555
N3 H2 1_555 1_555
N9 C10 1_555 1_555
C1 H3 1_555 1_555
C2 C1 1_555 1_555
H4 C2 1_555 1_555
C3 N2 1_555 1_555
C4 C3 1_555 1_555
H5 C4 1_555 1_555
C5 N1 1_555 1_555
H6 C5 1_555 1_555
C6 N2 1_555 1_555
C7 N3 1_555 1_555
C8 N3 1_555 1_555
C9 C8 1_555 1_555
H7 C9 1_555 1_555
C10 C9 1_555 1_555
H8 C10 1_555 1_555
C11 N9 1_555 1_555
H9 C11 1_555 1_555
C12 C8 1_555 1_555
H10 C12 1_555 1_555
C2 C3 1_555 1_555
C4 C5 1_555 1_555
C6 C7 1_555 1_555
C11 C12 1_555 1_555
Ag6 C16 1_555 1_555
Ag4 C15 1_555 1_555
O1_2 C6_2 1_555 1_555
O2_2 C7_2 1_555 1_555
N1_2 C1_2 1_555 1_555
N2_2 H1_2 1_555 1_555
N3_2 H2_2 1_555 1_555
N4 C10_2 1_555 1_555
C1_2 H3_2 1_555 1_555
C2_2 C1_2 1_555 1_555
H4_2 C2_2 1_555 1_555
C3_2 N2_2 1_555 1_555
C4_2 C3_2 1_555 1_555
H5_2 C4_2 1_555 1_555
C5_2 N1_2 1_555 1_555
H6_2 C5_2 1_555 1_555
C6_2 N2_2 1_555 1_555
C7_2 N3_2 1_555 1_555
C8_2 N3_2 1_555 1_555
C9_2 C8_2 1_555 1_555
H7_2 C9_2 1_555 1_555
C10_2 C9_2 1_555 1_555
H8_2 C10_2 1_555 1_555
C11_2 N4 1_555 1_555
H9_2 C11_2 1_555 1_555
C12_2 C8_2 1_555 1_555
H10_2 C12_2 1_555 1_555
Fe2 N4 1_555 1_555
C2_2 C3_2 1_555 1_555
C4_2 C5_2 1_555 1_555
C6_2 C7_2 1_555 1_555
C11_2 C12_2 1_555 1_555
Ag4 C13_2 1_555 1_555
Ag6 C14_2 1_555 1_555
N5_2 Fe2 1_555 1_555
N6_2 Fe2 1_555 1_555
N7_2 Fe2 1_555 1_555
N8_2 Fe2 1_555 1_555
C13_2 N5_2 1_555 1_555
C14_2 N6_2 1_555 1_555

#END
