
###############################################################################
#
# This file contains modified crystal structure data generated from the
# MOF subset of the Cambridge Structural Database (CSD) v543 
# hosted by the Cambridge Crystallographic Data Centre (CCDC).
#
# This work is licensed under the Creative Commons
# Attribution-NonCommercial-ShareAlike 4.0 International License.
# To view a copy of this license, visit
# http://creativecommons.org/licenses/by-nc-sa/4.0/
# or send a letter to
# Creative Commons, PO Box 1866, Mountain View, CA 94042, USA.
#
# CIF created using the CSD Python API on 29 September 2022
# The structure has been converted into the P1 space group
# The structure has a 3D framework
# The original CSD entry XAWZUU01 is in the orthorhombic crystal system
# The framework has been calculated to contain at least 10.0% void space
# The void calculation uses a probe of radius 1.32A, grid spacing 0.4
#
###############################################################################

data_XAWZUU01
_chemical_formula_moiety         '(C128 H80 Ag10 Fe8 N64 O16)n'
_symmetry_cell_setting           triclinic
_symmetry_space_group_name_H-M   'P 1'
_symmetry_Int_Tables_number      1
_space_group_name_Hall           'P 1'
loop_
_symmetry_equiv_pos_site_id
_symmetry_equiv_pos_as_xyz
1 x,y,z
_cell_length_a                   15.8659(11)
_cell_length_b                   13.4924(10)
_cell_length_c                   31.595(2)
_cell_angle_alpha                90
_cell_angle_beta                 90
_cell_angle_gamma                90
_cell_volume                     6763.51
loop_
_atom_site_label
_atom_site_type_symbol
_atom_site_fract_x
_atom_site_fract_y
_atom_site_fract_z
Ag3 Ag 0.06341(10) 0.47773(11) 0.29540(5)
Ag2 Ag 0.03853(12) 0.99040(12) 0.29457(5)
C17 C 0.1430(14) 0.9000(12) 0.2945(7)
Ag1 Ag 0.56341(10) 0.52227(11) 0.29540(5)
Fe1 Fe 0.79681(13) 0.25059(14) 0.29608(8)
N1 N 0.6943(10) 0.2420(10) 0.7287(5)
O1 O 0.7350(8) 0.3750(10) 0.5732(4)
O2 O 0.6815(9) 0.1688(9) 0.5136(4)
N2 N 0.8995(10) 0.3448(11) 0.2974(6)
N3 N 0.7143(9) 0.3665(10) 0.2911(5)
N4 N 0.6995(8) 0.1526(9) 0.2960(5)
N5 N 0.6922(8) 0.2220(9) 0.5961(4)
H1 H 0.677183 0.164371 0.586350
N6 N 0.8802(11) 0.1352(13) 0.3000(6)
C1 C 0.6935(12) 0.1552(13) 0.7084(6)
H2 H 0.696463 0.096662 0.724460
C2 C 0.6951(12) 0.3237(12) 0.7045(6)
H3 H 0.695939 0.385582 0.718147
C3 C 0.6886(13) 0.1476(13) 0.6651(6)
H4 H 0.682989 0.085050 0.652285
C4 C 0.7532(10) 0.1987(13) 0.4313(5)
H5 H 0.741155 0.142729 0.447880
N7 N 0.7456(9) 0.3111(10) 0.4925(4)
H6 H 0.761155 0.368855 0.501865
C5 C 0.7663(11) 0.1902(13) 0.3892(6)
H7 H 0.762625 0.126498 0.377298
C6 C 0.6921(12) 0.2331(13) 0.6401(5)
C7 C 0.7135(11) 0.2921(13) 0.5666(6)
C8 C 0.7113(11) 0.2473(14) 0.5212(6)
C9 C 0.9266(15) 0.0749(17) 0.2977(8)
C10 C 0.7829(9) 0.3719(11) 0.4243(5)
H8 H 0.792915 0.434624 0.436203
C11 C 0.6636(11) 0.4257(12) 0.2929(6)
C12 C 0.6947(11) 0.3228(12) 0.6607(6)
H9 H 0.696078 0.382354 0.645283
C13 C 0.7924(11) 0.3558(12) 0.3811(6)
H10 H 0.805229 0.410253 0.363727
C14 C 0.6430(14) 0.1000(12) 0.2945(7)
N8 N 0.7841(9) 0.2656(10) 0.3630(5)
C15 C 0.7581(10) 0.2922(11) 0.4493(5)
C16 C 0.9542(13) 0.3938(15) 0.2983(7)
Ag4 Ag 0.53853(12) 0.00960(12) 0.29457(5)
Fe2 Fe 0.70319(13) 0.25059(14) 0.79608(8)
N9 N 0.8057(10) 0.2420(10) 0.2287(5)
C18 C 0.4542(13) 0.6062(15) 0.2983(7)
N1_2 N 0.3057(10) 0.7580(10) 0.2287(5)
O1_2 O 0.2650(8) 0.6250(10) 0.0732(4)
O2_2 O 0.3185(9) 0.8312(9) 0.0136(4)
N5_2 N 0.3078(8) 0.7780(9) 0.0961(4)
H1_2 H 0.322817 0.835629 0.086350
C1_2 C 0.3065(12) 0.8448(13) 0.2084(6)
H2_2 H 0.303537 0.903338 0.224460
C2_2 C 0.3049(12) 0.6763(12) 0.2045(6)
H3_2 H 0.304061 0.614418 0.218147
C3_2 C 0.3114(13) 0.8524(13) 0.1651(6)
H4_2 H 0.317011 0.914950 0.152285
H6_2 H 0.238845 0.631145 0.001865
C6_2 C 0.3079(12) 0.7669(13) 0.1401(5)
C7_2 C 0.2865(11) 0.7079(13) 0.0666(6)
C8_2 C 0.2887(11) 0.7527(14) 0.0212(6)
C12_2 C 0.3053(11) 0.6772(12) 0.1607(6)
H9_2 H 0.303922 0.617646 0.145283
Fe2_2 Fe 0.29681(13) 0.74941(14) 0.29608(8)
Ag1_2 Ag 0.43659(10) 0.47773(11) 0.79540(5)
Fe1_2 Fe 0.20319(13) 0.74941(14) 0.79608(8)
N2_2 N 0.1005(10) 0.6552(11) 0.7974(6)
N3_2 N 0.2857(9) 0.6335(10) 0.7911(5)
N4_2 N 0.3005(8) 0.8474(9) 0.7960(5)
N6_2 N 0.1198(11) 0.8648(13) 0.8000(6)
C4_2 C 0.2468(10) 0.8013(13) 0.9313(5)
H5_2 H 0.258845 0.857271 0.947880
N7_2 N 0.2544(9) 0.6889(10) 0.9925(4)
C5_2 C 0.2337(11) 0.8098(13) 0.8892(6)
H7_2 H 0.237375 0.873502 0.877298
C9_2 C 0.0734(15) 0.9251(17) 0.7977(8)
C10_2 C 0.2171(9) 0.6281(11) 0.9243(5)
H8_2 H 0.207085 0.565376 0.936203
C11_2 C 0.3364(11) 0.5743(12) 0.7929(6)
C13_2 C 0.2076(11) 0.6442(12) 0.8811(6)
H10_2 H 0.194771 0.589747 0.863727
C14_2 C 0.3570(14) 0.9000(12) 0.7945(7)
N8_2 N 0.2159(9) 0.7344(10) 0.8630(5)
C15_2 C 0.2419(10) 0.7078(11) 0.9493(5)
C16_2 C 0.0458(13) 0.6062(15) 0.7983(7)
Ag4_2 Ag 0.46147(12) 0.99040(12) 0.79457(5)
N9_2 N 0.1943(10) 0.7580(10) 0.7287(5)
C18_2 C 0.5458(13) 0.3938(15) 0.7983(7)
Ag2_2 Ag 0.96147(12) 0.00960(12) 0.79457(5)
C17_2 C 0.8570(14) 0.1000(12) 0.7945(7)
Ag3_2 Ag 0.93659(10) 0.52227(11) 0.79540(5)
O1_3 O 0.2350(8) 0.6250(10) 0.5732(4)
O2_3 O 0.1815(9) 0.8312(9) 0.5136(4)
N2_3 N 0.3995(10) 0.6552(11) 0.2974(6)
N3_3 N 0.2143(9) 0.6335(10) 0.2911(5)
N4_3 N 0.1995(8) 0.8474(9) 0.2960(5)
N5_3 N 0.1922(8) 0.7780(9) 0.5961(4)
H1_3 H 0.177183 0.835629 0.586350
N6_3 N 0.3802(11) 0.8648(13) 0.3000(6)
C1_3 C 0.1935(12) 0.8448(13) 0.7084(6)
H2_3 H 0.196463 0.903338 0.724460
C2_3 C 0.1951(12) 0.6763(12) 0.7045(6)
H3_3 H 0.195939 0.614418 0.718147
C3_3 C 0.1886(13) 0.8524(13) 0.6651(6)
H4_3 H 0.182989 0.914950 0.652285
C4_3 C 0.2532(10) 0.8013(13) 0.4313(5)
H5_3 H 0.241155 0.857271 0.447880
N7_3 N 0.2456(9) 0.6889(10) 0.4925(4)
H6_3 H 0.261155 0.631145 0.501865
C5_3 C 0.2663(11) 0.8098(13) 0.3892(6)
H7_3 H 0.262625 0.873502 0.377298
C6_3 C 0.1921(12) 0.7669(13) 0.6401(5)
C7_3 C 0.2135(11) 0.7079(13) 0.5666(6)
C8_3 C 0.2113(11) 0.7527(14) 0.5212(6)
C9_3 C 0.4266(15) 0.9251(17) 0.2977(8)
C10_3 C 0.2829(9) 0.6281(11) 0.4243(5)
H8_3 H 0.292915 0.565376 0.436203
C11_3 C 0.1636(11) 0.5743(12) 0.2929(6)
C12_3 C 0.1947(11) 0.6772(12) 0.6607(6)
H9_3 H 0.196078 0.617646 0.645283
C13_3 C 0.2924(11) 0.6442(12) 0.3811(6)
H10_3 H 0.305229 0.589747 0.363727
N8_3 N 0.2841(9) 0.7344(10) 0.3630(5)
C15_3 C 0.2581(10) 0.7078(11) 0.4493(5)
O1_4 O 0.7650(8) 0.3750(10) 0.0732(4)
O2_4 O 0.8185(9) 0.1688(9) 0.0136(4)
N5_4 N 0.8078(8) 0.2220(9) 0.0961(4)
H1_4 H 0.822817 0.164371 0.086350
C1_4 C 0.8065(12) 0.1552(13) 0.2084(6)
H2_4 H 0.803537 0.096662 0.224460
C2_4 C 0.8049(12) 0.3237(12) 0.2045(6)
H3_4 H 0.804061 0.385582 0.218147
C3_4 C 0.8114(13) 0.1476(13) 0.1651(6)
H4_4 H 0.817011 0.085050 0.152285
H6_4 H 0.738845 0.368855 0.001865
C6_4 C 0.8079(12) 0.2331(13) 0.1401(5)
C7_4 C 0.7865(11) 0.2921(13) 0.0666(6)
C8_4 C 0.7887(11) 0.2473(14) 0.0212(6)
C12_4 C 0.8053(11) 0.3228(12) 0.1607(6)
H9_4 H 0.803922 0.382354 0.145283
N2_4 N 0.6005(10) 0.3448(11) 0.7974(6)
N3_4 N 0.7857(9) 0.3665(10) 0.7911(5)
N4_4 N 0.8005(8) 0.1526(9) 0.7960(5)
N6_4 N 0.6198(11) 0.1352(13) 0.8000(6)
C4_4 C 0.7468(10) 0.1987(13) 0.9313(5)
H5_4 H 0.758845 0.142729 0.947880
N7_4 N 0.7544(9) 0.3111(10) 0.9925(4)
C5_4 C 0.7337(11) 0.1902(13) 0.8892(6)
H7_4 H 0.737375 0.126498 0.877298
C9_4 C 0.5734(15) 0.0749(17) 0.7977(8)
C10_4 C 0.7171(9) 0.3719(11) 0.9243(5)
H8_4 H 0.707085 0.434624 0.936203
C11_4 C 0.8364(11) 0.4257(12) 0.7929(6)
C13_4 C 0.7076(11) 0.3558(12) 0.8811(6)
H10_4 H 0.694771 0.410253 0.863727
N8_4 N 0.7159(9) 0.2656(10) 0.8630(5)
C15_4 C 0.7419(10) 0.2922(11) 0.9493(5)
C36 C 0.1216(13) 0.0859(14) 0.1967(6)
Ag6 Ag 0.01560(10) 0.99761(11) 0.19946(4)
Ag8 Ag 0.51560(10) 0.00239(11) 0.19946(4)
Ag5 Ag 0.49326(8) 0.52450(10) 0.20624(4)
Fe3 Fe 0.76151(11) 0.74917(13) 0.20311(8)
N10 N 0.6625(7) 0.6541(9) 0.2051(5)
N11 N 0.7576(9) 0.7592(9) 0.2699(5)
O3 O 0.7181(14) 0.8406(11) 0.4801(4)
C19 C 0.7485(13) 0.6778(12) 0.3371(5)
H11 H 0.745306 0.618712 0.352832
C20 C 0.7556(10) 0.6769(12) 0.2928(6)
H12 H 0.759027 0.615574 0.278849
C21 C 0.6001(11) 0.6077(12) 0.2035(6)
C22 C 0.7522(10) 0.8481(11) 0.2896(6)
H13 H 0.748528 0.905846 0.273107
N12 N 0.7393(10) 0.7826(11) 0.4009(5)
H14 H 0.727885 0.841727 0.410269
C23 C 0.7377(16) 0.7532(14) 0.4754(6)
N13 N 0.6773(10) 0.8615(11) 0.1980(5)
N14 N 0.8591(8) 0.8488(9) 0.2011(5)
N15 N 0.8448(7) 0.6336(9) 0.2076(5)
O4 O 0.7592(9) 0.6229(9) 0.4250(4)
C24 C 0.7556(11) 0.6249(12) 0.5783(6)
H15 H 0.767351 0.561284 0.567668
C25 C 0.7464(9) 0.7720(10) 0.3570(5)
N16 N 0.7497(9) 0.6873(10) 0.5072(4)
H16 H 0.763723 0.627363 0.499906
C26 C 0.7419(9) 0.7060(11) 0.5504(5)
C27 C 0.7485(15) 0.7099(14) 0.4303(5)
C28 C 0.7520(11) 0.8566(12) 0.3325(5)
H17 H 0.755537 0.919302 0.345323
C29 C 0.7252(10) 0.7971(12) 0.5672(6)
H18 H 0.716537 0.852555 0.549720
C30 C 0.9135(12) 0.9045(12) 0.1988(6)
C31 C 0.8946(9) 0.5728(10) 0.2066(6)
C32 C 0.7514(11) 0.6410(12) 0.6201(5)
H19 H 0.760415 0.586708 0.638118
C33 C 0.6216(13) 0.9141(14) 0.1967(6)
N17 N 0.7351(9) 0.7305(10) 0.6383(5)
C34 C 0.7213(11) 0.8052(13) 0.6106(5)
H20 H 0.707981 0.867650 0.621970
Ag7 Ag 0.99326(8) 0.47550(10) 0.20624(4)
Fe4 Fe 0.73849(11) 0.74917(13) 0.70311(8)
C35 C 0.3946(9) 0.4272(10) 0.2066(6)
N18 N 0.7649(9) 0.7305(10) 0.1383(5)
C24_2 C 0.2444(11) 0.3751(12) 0.0783(6)
H15_2 H 0.232649 0.438716 0.067668
N16_2 N 0.2503(9) 0.3127(10) 0.0072(4)
C26_2 C 0.2581(9) 0.2940(11) 0.0504(5)
C29_2 C 0.2748(10) 0.2029(12) 0.0672(6)
H18_2 H 0.283463 0.147445 0.049720
C32_2 C 0.2486(11) 0.3590(12) 0.1201(5)
H19_2 H 0.239585 0.413292 0.138118
N17_2 N 0.2649(9) 0.2695(10) 0.1383(5)
C34_2 C 0.2787(11) 0.1948(13) 0.1106(5)
H20_2 H 0.292019 0.132350 0.121970
Fe4_2 Fe 0.26151(11) 0.25083(13) 0.20311(8)
Ag5_2 Ag 0.50674(8) 0.47550(10) 0.70624(4)
Fe3_2 Fe 0.23849(11) 0.25083(13) 0.70311(8)
N10_2 N 0.3375(7) 0.3459(9) 0.7051(5)
N11_2 N 0.2424(9) 0.2408(9) 0.7699(5)
O3_2 O 0.2819(14) 0.1594(11) 0.9801(4)
C19_2 C 0.2515(13) 0.3222(12) 0.8371(5)
H11_2 H 0.254694 0.381288 0.852832
C20_2 C 0.2444(10) 0.3231(12) 0.7928(6)
H12_2 H 0.240973 0.384426 0.778849
C21_2 C 0.3999(11) 0.3923(12) 0.7035(6)
C22_2 C 0.2478(10) 0.1519(11) 0.7896(6)
H13_2 H 0.251472 0.094154 0.773107
N12_2 N 0.2607(10) 0.2174(11) 0.9009(5)
H14_2 H 0.272115 0.158273 0.910269
C23_2 C 0.2623(16) 0.2468(14) 0.9754(6)
N13_2 N 0.3227(10) 0.1385(11) 0.6980(5)
N14_2 N 0.1409(8) 0.1512(9) 0.7011(5)
N15_2 N 0.1552(7) 0.3664(9) 0.7076(5)
O4_2 O 0.2408(9) 0.3771(9) 0.9250(4)
C25_2 C 0.2536(9) 0.2280(10) 0.8570(5)
H16_2 H 0.236277 0.372637 0.999906
C27_2 C 0.2515(15) 0.2901(14) 0.9303(5)
C28_2 C 0.2480(11) 0.1434(12) 0.8325(5)
H17_2 H 0.244463 0.080698 0.845323
C30_2 C 0.0865(12) 0.0955(12) 0.6988(6)
C31_2 C 0.1054(9) 0.4272(10) 0.7066(6)
C33_2 C 0.3784(13) 0.0859(14) 0.6967(6)
Ag7_2 Ag 0.00674(8) 0.52450(10) 0.70624(4)
C35_2 C 0.6054(9) 0.5728(10) 0.7066(6)
N18_2 N 0.2351(9) 0.2695(10) 0.6383(5)
Ag8_2 Ag 0.48440(10) 0.99761(11) 0.69946(4)
Ag6_2 Ag 0.98440(10) 0.00239(11) 0.69946(4)
C36_2 C 0.8784(13) 0.9141(14) 0.6967(6)
N10_3 N 0.1625(7) 0.3459(9) 0.2051(5)
N11_3 N 0.2576(9) 0.2408(9) 0.2699(5)
O3_3 O 0.2181(14) 0.1594(11) 0.4801(4)
C19_3 C 0.2485(13) 0.3222(12) 0.3371(5)
H11_3 H 0.245306 0.381288 0.352832
C20_3 C 0.2556(10) 0.3231(12) 0.2928(6)
H12_3 H 0.259027 0.384426 0.278849
C21_3 C 0.1001(11) 0.3923(12) 0.2035(6)
C22_3 C 0.2522(10) 0.1519(11) 0.2896(6)
H13_3 H 0.248528 0.094154 0.273107
N12_3 N 0.2393(10) 0.2174(11) 0.4009(5)
H14_3 H 0.227885 0.158273 0.410269
C23_3 C 0.2377(16) 0.2468(14) 0.4754(6)
N13_3 N 0.1773(10) 0.1385(11) 0.1980(5)
N14_3 N 0.3591(8) 0.1512(9) 0.2011(5)
N15_3 N 0.3448(7) 0.3664(9) 0.2076(5)
O4_3 O 0.2592(9) 0.3771(9) 0.4250(4)
C24_3 C 0.2556(11) 0.3751(12) 0.5783(6)
H15_3 H 0.267351 0.438716 0.567668
C25_3 C 0.2464(9) 0.2280(10) 0.3570(5)
N16_3 N 0.2497(9) 0.3127(10) 0.5072(4)
H16_3 H 0.263723 0.372637 0.499906
C26_3 C 0.2419(9) 0.2940(11) 0.5504(5)
C27_3 C 0.2485(15) 0.2901(14) 0.4303(5)
C28_3 C 0.2520(11) 0.1434(12) 0.3325(5)
H17_3 H 0.255537 0.080698 0.345323
C29_3 C 0.2252(10) 0.2029(12) 0.5672(6)
H18_3 H 0.216537 0.147445 0.549720
C30_3 C 0.4135(12) 0.0955(12) 0.1988(6)
C32_3 C 0.2514(11) 0.3590(12) 0.6201(5)
H19_3 H 0.260415 0.413292 0.638118
C34_3 C 0.2213(11) 0.1948(13) 0.6106(5)
H20_3 H 0.207981 0.132350 0.621970
C24_4 C 0.7444(11) 0.6249(12) 0.0783(6)
H15_4 H 0.732649 0.561284 0.067668
N16_4 N 0.7503(9) 0.6873(10) 0.0072(4)
C26_4 C 0.7581(9) 0.7060(11) 0.0504(5)
C29_4 C 0.7748(10) 0.7971(12) 0.0672(6)
H18_4 H 0.783463 0.852555 0.049720
C32_4 C 0.7486(11) 0.6410(12) 0.1201(5)
H19_4 H 0.739585 0.586708 0.138118
C34_4 C 0.7787(11) 0.8052(13) 0.1106(5)
H20_4 H 0.792019 0.867650 0.121970
N10_4 N 0.8375(7) 0.6541(9) 0.7051(5)
N11_4 N 0.7424(9) 0.7592(9) 0.7699(5)
O3_4 O 0.7819(14) 0.8406(11) 0.9801(4)
C19_4 C 0.7515(13) 0.6778(12) 0.8371(5)
H11_4 H 0.754694 0.618712 0.852832
C20_4 C 0.7444(10) 0.6769(12) 0.7928(6)
H12_4 H 0.740973 0.615574 0.778849
C21_4 C 0.8999(11) 0.6077(12) 0.7035(6)
C22_4 C 0.7478(10) 0.8481(11) 0.7896(6)
H13_4 H 0.751472 0.905846 0.773107
N12_4 N 0.7607(10) 0.7826(11) 0.9009(5)
H14_4 H 0.772115 0.841727 0.910269
C23_4 C 0.7623(16) 0.7532(14) 0.9754(6)
N13_4 N 0.8227(10) 0.8615(11) 0.6980(5)
N14_4 N 0.6409(8) 0.8488(9) 0.7011(5)
N15_4 N 0.6552(7) 0.6336(9) 0.7076(5)
O4_4 O 0.7408(9) 0.6229(9) 0.9250(4)
C25_4 C 0.7536(9) 0.7720(10) 0.8570(5)
H16_4 H 0.736277 0.627363 0.999906
C27_4 C 0.7515(15) 0.7099(14) 0.9303(5)
C28_4 C 0.7480(11) 0.8566(12) 0.8325(5)
H17_4 H 0.744463 0.919302 0.845323
C30_4 C 0.5865(12) 0.9045(12) 0.6988(6)
loop_
_geom_bond_atom_site_label_1
_geom_bond_atom_site_label_2
_geom_bond_site_symmetry_1
_geom_bond_site_symmetry_2
C17 Ag2 1_555 1_555
Ag1 C11 1_555 1_555
Fe1 N2 1_555 1_555
N1 C1 1_555 1_555
O1 C7 1_555 1_555
O2 C8 1_555 1_555
N2 C16 1_555 1_555
N3 Fe1 1_555 1_555
N4 Fe1 1_555 1_555
N5 H1 1_555 1_555
N6 Fe1 1_555 1_555
C1 H2 1_555 1_555
C2 N1 1_555 1_555
H3 C2 1_555 1_555
C3 C1 1_555 1_555
H4 C3 1_555 1_555
C4 H5 1_555 1_555
N7 H6 1_555 1_555
C5 C4 1_555 1_555
H7 C5 1_555 1_555
C6 N5 1_555 1_555
C7 N5 1_555 1_555
C8 N7 1_555 1_555
C9 N6 1_555 1_555
C10 H8 1_555 1_555
C11 N3 1_555 1_555
C12 C2 1_555 1_555
H9 C12 1_555 1_555
C13 C10 1_555 1_555
H10 C13 1_555 1_555
C14 N4 1_555 1_555
N8 Fe1 1_555 1_555
C15 C4 1_555 1_555
Ag4 C14 1_555 1_555
Fe2 N1 1_555 1_555
N9 Fe1 1_555 1_555
C18 Ag1 1_555 1_555
C3 C6 1_555 1_555
N7 C15 1_555 1_555
C5 N8 1_555 1_555
C6 C12 1_555 1_555
C7 C8 1_555 1_555
C10 C15 1_555 1_555
C13 N8 1_555 1_555
N1_2 C1_2 1_555 1_555
O1_2 C7_2 1_555 1_555
O2_2 C8_2 1_555 1_555
N5_2 H1_2 1_555 1_555
C1_2 H2_2 1_555 1_555
C2_2 N1_2 1_555 1_555
H3_2 C2_2 1_555 1_555
C3_2 C1_2 1_555 1_555
H4_2 C3_2 1_555 1_555
C6_2 N5_2 1_555 1_555
C7_2 N5_2 1_555 1_555
C12_2 C2_2 1_555 1_555
H9_2 C12_2 1_555 1_555
Fe2_2 N1_2 1_555 1_555
C3_2 C6_2 1_555 1_555
C6_2 C12_2 1_555 1_555
C7_2 C8_2 1_555 1_555
Ag1_2 C11_2 1_555 1_555
Fe1_2 N2_2 1_555 1_555
N2_2 C16_2 1_555 1_555
N3_2 Fe1_2 1_555 1_555
N4_2 Fe1_2 1_555 1_555
N6_2 Fe1_2 1_555 1_555
C4_2 H5_2 1_555 1_555
C5_2 C4_2 1_555 1_555
H7_2 C5_2 1_555 1_555
C9_2 N6_2 1_555 1_555
C10_2 H8_2 1_555 1_555
C11_2 N3_2 1_555 1_555
C13_2 C10_2 1_555 1_555
H10_2 C13_2 1_555 1_555
C14_2 N4_2 1_555 1_555
N8_2 Fe1_2 1_555 1_555
C15_2 C4_2 1_555 1_555
Ag4_2 C14_2 1_555 1_555
N9_2 Fe1_2 1_555 1_555
C18_2 Ag1_2 1_555 1_555
N7_2 C15_2 1_555 1_555
C5_2 N8_2 1_555 1_555
C10_2 C15_2 1_555 1_555
C13_2 N8_2 1_555 1_555
C17_2 Ag2_2 1_555 1_555
Ag3 C11_3 1_555 1_555
Fe2_2 N2_3 1_555 1_555
N9_2 C1_3 1_555 1_555
O1_3 C7_3 1_555 1_555
O2_3 C8_3 1_555 1_555
N2_3 C18 1_555 1_555
N3_3 Fe2_2 1_555 1_555
N4_3 Fe2_2 1_555 1_555
N5_3 H1_3 1_555 1_555
N6_3 Fe2_2 1_555 1_555
C1_3 H2_3 1_555 1_555
C2_3 N9_2 1_555 1_555
H3_3 C2_3 1_555 1_555
C3_3 C1_3 1_555 1_555
H4_3 C3_3 1_555 1_555
C4_3 H5_3 1_555 1_555
N7_3 H6_3 1_555 1_555
C5_3 C4_3 1_555 1_555
H7_3 C5_3 1_555 1_555
C6_3 N5_3 1_555 1_555
C7_3 N5_3 1_555 1_555
C8_3 N7_3 1_555 1_555
C9_3 N6_3 1_555 1_555
C10_3 H8_3 1_555 1_555
C11_3 N3_3 1_555 1_555
C12_3 C2_3 1_555 1_555
H9_3 C12_3 1_555 1_555
C13_3 C10_3 1_555 1_555
H10_3 C13_3 1_555 1_555
C17 N4_3 1_555 1_555
N8_3 Fe2_2 1_555 1_555
C15_3 C4_3 1_555 1_555
C3_3 C6_3 1_555 1_555
N7_3 C15_3 1_555 1_555
C5_3 N8_3 1_555 1_555
C6_3 C12_3 1_555 1_555
C7_3 C8_3 1_555 1_555
C10_3 C15_3 1_555 1_555
C13_3 N8_3 1_555 1_555
N9 C1_4 1_555 1_555
O1_4 C7_4 1_555 1_555
O2_4 C8_4 1_555 1_555
N5_4 H1_4 1_555 1_555
C1_4 H2_4 1_555 1_555
C2_4 N9 1_555 1_555
H3_4 C2_4 1_555 1_555
C3_4 C1_4 1_555 1_555
H4_4 C3_4 1_555 1_555
C6_4 N5_4 1_555 1_555
C7_4 N5_4 1_555 1_555
C12_4 C2_4 1_555 1_555
H9_4 C12_4 1_555 1_555
C3_4 C6_4 1_555 1_555
C6_4 C12_4 1_555 1_555
C7_4 C8_4 1_555 1_555
Ag3_2 C11_4 1_555 1_555
Fe2 N2_4 1_555 1_555
N2_4 C18_2 1_555 1_555
N3_4 Fe2 1_555 1_555
N4_4 Fe2 1_555 1_555
N6_4 Fe2 1_555 1_555
C4_4 H5_4 1_555 1_555
C5_4 C4_4 1_555 1_555
H7_4 C5_4 1_555 1_555
C9_4 N6_4 1_555 1_555
C10_4 H8_4 1_555 1_555
C11_4 N3_4 1_555 1_555
C13_4 C10_4 1_555 1_555
H10_4 C13_4 1_555 1_555
C17_2 N4_4 1_555 1_555
N8_4 Fe2 1_555 1_555
C15_4 C4_4 1_555 1_555
N7_4 C15_4 1_555 1_555
C5_4 N8_4 1_555 1_555
C10_4 C15_4 1_555 1_555
C13_4 N8_4 1_555 1_555
Ag5 C21 1_555 1_555
Fe3 N10 1_555 1_555
N10 C21 1_555 1_555
N11 Fe3 1_555 1_555
O3 C23 1_555 1_555
C19 H11 1_555 1_555
C20 N11 1_555 1_555
H12 C20 1_555 1_555
C22 N11 1_555 1_555
H13 C22 1_555 1_555
N12 H14 1_555 1_555
C23 N16 1_555 1_555
N13 Fe3 1_555 1_555
N14 Fe3 1_555 1_555
N15 Fe3 1_555 1_555
O4 C27 1_555 1_555
C24 H15 1_555 1_555
C25 C19 1_555 1_555
N16 H16 1_555 1_555
C26 C24 1_555 1_555
C27 N12 1_555 1_555
C28 C22 1_555 1_555
H17 C28 1_555 1_555
C29 C26 1_555 1_555
H18 C29 1_555 1_555
C30 N14 1_555 1_555
C31 N15 1_555 1_555
C32 C24 1_555 1_555
H19 C32 1_555 1_555
C33 N13 1_555 1_555
N17 C32 1_555 1_555
C34 C29 1_555 1_555
H20 C34 1_555 1_555
Ag7 C31 1_555 1_555
Fe4 N17 1_555 1_555
C35 Ag5 1_555 1_555
N18 Fe3 1_555 1_555
C19 C20 1_555 1_555
N12 C25 1_555 1_555
C23 C27 1_555 1_555
C25 C28 1_555 1_555
N16 C26 1_555 1_555
N17 C34 1_555 1_555
C24_2 H15_2 1_555 1_555
C26_2 C24_2 1_555 1_555
C29_2 C26_2 1_555 1_555
H18_2 C29_2 1_555 1_555
C32_2 C24_2 1_555 1_555
H19_2 C32_2 1_555 1_555
N17_2 C32_2 1_555 1_555
C34_2 C29_2 1_555 1_555
H20_2 C34_2 1_555 1_555
Fe4_2 N17_2 1_555 1_555
N16_2 C26_2 1_555 1_555
N17_2 C34_2 1_555 1_555
Ag5_2 C21_2 1_555 1_555
Fe3_2 N10_2 1_555 1_555
N10_2 C21_2 1_555 1_555
N11_2 Fe3_2 1_555 1_555
O3_2 C23_2 1_555 1_555
C19_2 H11_2 1_555 1_555
C20_2 N11_2 1_555 1_555
H12_2 C20_2 1_555 1_555
C22_2 N11_2 1_555 1_555
H13_2 C22_2 1_555 1_555
N12_2 H14_2 1_555 1_555
N13_2 Fe3_2 1_555 1_555
N14_2 Fe3_2 1_555 1_555
N15_2 Fe3_2 1_555 1_555
O4_2 C27_2 1_555 1_555
C25_2 C19_2 1_555 1_555
C27_2 N12_2 1_555 1_555
C28_2 C22_2 1_555 1_555
H17_2 C28_2 1_555 1_555
C30_2 N14_2 1_555 1_555
C31_2 N15_2 1_555 1_555
C33_2 N13_2 1_555 1_555
Ag7_2 C31_2 1_555 1_555
C35_2 Ag5_2 1_555 1_555
N18_2 Fe3_2 1_555 1_555
C19_2 C20_2 1_555 1_555
N12_2 C25_2 1_555 1_555
C23_2 C27_2 1_555 1_555
C25_2 C28_2 1_555 1_555
Fe4_2 N10_3 1_555 1_555
N10_3 C21_3 1_555 1_555
N11_3 Fe4_2 1_555 1_555
O3_3 C23_3 1_555 1_555
C19_3 H11_3 1_555 1_555
C20_3 N11_3 1_555 1_555
H12_3 C20_3 1_555 1_555
C22_3 N11_3 1_555 1_555
H13_3 C22_3 1_555 1_555
N12_3 H14_3 1_555 1_555
C23_3 N16_3 1_555 1_555
N13_3 Fe4_2 1_555 1_555
N14_3 Fe4_2 1_555 1_555
N15_3 Fe4_2 1_555 1_555
O4_3 C27_3 1_555 1_555
C24_3 H15_3 1_555 1_555
C25_3 C19_3 1_555 1_555
N16_3 H16_3 1_555 1_555
C26_3 C24_3 1_555 1_555
C27_3 N12_3 1_555 1_555
C28_3 C22_3 1_555 1_555
H17_3 C28_3 1_555 1_555
C29_3 C26_3 1_555 1_555
H18_3 C29_3 1_555 1_555
C30_3 N14_3 1_555 1_555
C35 N15_3 1_555 1_555
C32_3 C24_3 1_555 1_555
H19_3 C32_3 1_555 1_555
C36 N13_3 1_555 1_555
N18_2 C32_3 1_555 1_555
C34_3 C29_3 1_555 1_555
H20_3 C34_3 1_555 1_555
Ag8 C30_3 1_555 1_555
C19_3 C20_3 1_555 1_555
N12_3 C25_3 1_555 1_555
C23_3 C27_3 1_555 1_555
C25_3 C28_3 1_555 1_555
N16_3 C26_3 1_555 1_555
N18_2 C34_3 1_555 1_555
C24_4 H15_4 1_555 1_555
C26_4 C24_4 1_555 1_555
C29_4 C26_4 1_555 1_555
H18_4 C29_4 1_555 1_555
C32_4 C24_4 1_555 1_555
H19_4 C32_4 1_555 1_555
N18 C32_4 1_555 1_555
C34_4 C29_4 1_555 1_555
H20_4 C34_4 1_555 1_555
N16_4 C26_4 1_555 1_555
N18 C34_4 1_555 1_555
Fe4 N10_4 1_555 1_555
N10_4 C21_4 1_555 1_555
N11_4 Fe4 1_555 1_555
O3_4 C23_4 1_555 1_555
C19_4 H11_4 1_555 1_555
C20_4 N11_4 1_555 1_555
H12_4 C20_4 1_555 1_555
C22_4 N11_4 1_555 1_555
H13_4 C22_4 1_555 1_555
N12_4 H14_4 1_555 1_555
N13_4 Fe4 1_555 1_555
N14_4 Fe4 1_555 1_555
N15_4 Fe4 1_555 1_555
O4_4 C27_4 1_555 1_555
C25_4 C19_4 1_555 1_555
C27_4 N12_4 1_555 1_555
C28_4 C22_4 1_555 1_555
H17_4 C28_4 1_555 1_555
C30_4 N14_4 1_555 1_555
C35_2 N15_4 1_555 1_555
C36_2 N13_4 1_555 1_555
Ag8_2 C30_4 1_555 1_555
C19_4 C20_4 1_555 1_555
N12_4 C25_4 1_555 1_555
C23_4 C27_4 1_555 1_555
C25_4 C28_4 1_555 1_555

#END
