
###############################################################################
#
# This file contains modified crystal structure data generated from the
# MOF subset of the Cambridge Structural Database (CSD) v543 
# hosted by the Cambridge Crystallographic Data Centre (CCDC).
#
# This work is licensed under the Creative Commons
# Attribution-NonCommercial-ShareAlike 4.0 International License.
# To view a copy of this license, visit
# http://creativecommons.org/licenses/by-nc-sa/4.0/
# or send a letter to
# Creative Commons, PO Box 1866, Mountain View, CA 94042, USA.
#
# CIF created using the CSD Python API on 29 September 2022
# The structure has been converted into the P1 space group
# The structure has a 3D framework
# The original CSD entry XAWZEE01 is in the triclinic crystal system
# The framework has been calculated to contain at least 10.0% void space
# The void calculation uses a probe of radius 1.32A, grid spacing 0.4
#
###############################################################################

data_XAWZEE01
_chemical_formula_moiety         '(C28 H20 Ag4 Fe2 N16 O4)n'
_symmetry_cell_setting           triclinic
_symmetry_space_group_name_H-M   'P 1'
_symmetry_Int_Tables_number      1
_space_group_name_Hall           'P 1'
loop_
_symmetry_equiv_pos_site_id
_symmetry_equiv_pos_as_xyz
1 x,y,z
_cell_length_a                   10.3978(5)
_cell_length_b                   10.4545(5)
_cell_length_c                   15.8251(7)
_cell_angle_alpha                99.428(2)
_cell_angle_beta                 92.387(2)
_cell_angle_gamma                98.549(2)
_cell_volume                     1674.31
loop_
_atom_site_label
_atom_site_type_symbol
_atom_site_fract_x
_atom_site_fract_y
_atom_site_fract_z
Ag1 Ag 0.31379(4) 0.77047(3) 0.09182(2)
Ag2 Ag 0.79122(3) 0.26204(4) 0.09918(2)
Fe1 Fe 0.29347(4) 0.26992(4) 0.10213(3)
N5 N 0.2956(3) 0.4659(3) 0.1045(2)
N6 N 0.4918(4) 0.2987(3) 0.1095(2)
N7 N 0.2983(3) 0.0747(3) 0.0963(2)
N8 N 0.0941(3) 0.2406(3) 0.0949(2)
C13 C 0.3031(4) 0.5748(4) 0.1008(2)
C14 C 0.6016(4) 0.2936(4) 0.1081(3)
N9 N 0.2901(3) 0.2963(3) 0.2366(2)
C17 C 0.3074(5) 0.9665(4) 0.0929(3)
C18 C 0.9839(4) 0.2395(5) 0.0959(3)
O1 O 0.3454(5) 0.4131(3) 0.6779(2)
O2 O 0.2211(4) 0.1333(3) 0.5281(2)
N1 N 0.2922(3) 0.2436(3) 0.9680(2)
N2 N 0.2563(4) 0.2074(3) 0.6992(2)
H1 H 0.217971 0.130297 0.671529
N3 N 0.2988(4) 0.3425(3) 0.5063(2)
H2 H 0.326950 0.422629 0.533776
C1 C 0.2166(4) 0.1418(4) 0.9178(3)
H3 H 0.168770 0.076620 0.944578
C2 C 0.2047(4) 0.1267(4) 0.8293(3)
H4 H 0.151116 0.052066 0.796529
C3 C 0.2721(4) 0.2224(4) 0.7886(2)
C4 C 0.3539(4) 0.3265(4) 0.8396(3)
H5 H 0.403916 0.392296 0.814480
C5 C 0.3606(4) 0.3321(4) 0.9282(2)
H6 H 0.417284 0.403075 0.962419
C6 C 0.2944(5) 0.3005(4) 0.6514(3)
C7 C 0.2666(4) 0.2484(4) 0.5545(3)
C8 C 0.2913(4) 0.3233(4) 0.4164(2)
C9 C 0.2322(4) 0.2070(4) 0.3632(3)
H7 H 0.192473 0.134422 0.387027
C10 C 0.2330(4) 0.2002(4) 0.2754(3)
H8 H 0.190087 0.121902 0.240068
C11 C 0.3452(4) 0.4077(4) 0.2881(3)
H9 H 0.385857 0.477772 0.262267
C12 C 0.3460(4) 0.4262(4) 0.3768(3)
H10 H 0.383579 0.508172 0.410312
Ag4 Ag 0.68621(4) 0.22953(3) 0.90818(2)
Ag6 Ag 0.20878(3) 0.73796(4) 0.90082(2)
C16 C 0.0161(4) 0.7605(5) 0.9041(3)
C15 C 0.6926(5) 0.0335(4) 0.9071(3)
O1_2 O 0.6546(5) 0.5869(3) 0.3221(2)
O2_2 O 0.7789(4) 0.8667(3) 0.4719(2)
N1_2 N 0.7078(3) 0.7564(3) 0.0320(2)
N2_2 N 0.7437(4) 0.7926(3) 0.3008(2)
H1_2 H 0.782029 0.869703 0.328471
N3_2 N 0.7012(4) 0.6575(3) 0.4937(2)
H2_2 H 0.673050 0.577371 0.466224
N4 N 0.7099(3) 0.7037(3) 0.7634(2)
C1_2 C 0.7834(4) 0.8582(4) 0.0822(3)
H3_2 H 0.831230 0.923380 0.055422
C2_2 C 0.7953(4) 0.8733(4) 0.1707(3)
H4_2 H 0.848884 0.947934 0.203471
C3_2 C 0.7279(4) 0.7776(4) 0.2114(2)
C4_2 C 0.6461(4) 0.6735(4) 0.1604(3)
H5_2 H 0.596084 0.607704 0.185520
C5_2 C 0.6394(4) 0.6679(4) 0.0718(2)
H6_2 H 0.582716 0.596925 0.037581
C6_2 C 0.7056(5) 0.6995(4) 0.3486(3)
C7_2 C 0.7334(4) 0.7516(4) 0.4455(3)
C8_2 C 0.7087(4) 0.6767(4) 0.5836(2)
C9_2 C 0.7678(4) 0.7930(4) 0.6368(3)
H7_2 H 0.807527 0.865578 0.612973
C10_2 C 0.7670(4) 0.7998(4) 0.7246(3)
H8_2 H 0.809913 0.878098 0.759932
C11_2 C 0.6548(4) 0.5923(4) 0.7119(3)
H9_2 H 0.614143 0.522228 0.737733
C12_2 C 0.6540(4) 0.5738(4) 0.6232(3)
H10_2 H 0.616421 0.491828 0.589688
Fe2 Fe 0.70653(4) 0.73008(4) 0.89787(3)
N5_2 N 0.7044(3) 0.5341(3) 0.8955(2)
N6_2 N 0.5082(4) 0.7013(3) 0.8905(2)
N7_2 N 0.7017(3) 0.9253(3) 0.9037(2)
N8_2 N 0.9059(3) 0.7594(3) 0.9051(2)
C13_2 C 0.6969(4) 0.4252(4) 0.8992(2)
C14_2 C 0.3984(4) 0.7064(4) 0.8919(3)
loop_
_geom_bond_atom_site_label_1
_geom_bond_atom_site_label_2
_geom_bond_site_symmetry_1
_geom_bond_site_symmetry_2
Ag1 C13 1_555 1_555
Ag2 C14 1_555 1_555
N5 Fe1 1_555 1_555
N6 Fe1 1_555 1_555
N7 Fe1 1_555 1_555
N8 Fe1 1_555 1_555
C13 N5 1_555 1_555
C14 N6 1_555 1_555
N9 Fe1 1_555 1_555
C17 Ag1 1_555 1_555
C18 Ag2 1_555 1_555
O1 C6 1_555 1_555
O2 C7 1_555 1_555
N1 C1 1_555 1_555
N2 H1 1_555 1_555
N3 H2 1_555 1_555
N9 C10 1_555 1_555
C1 H3 1_555 1_555
C2 C1 1_555 1_555
H4 C2 1_555 1_555
C3 N2 1_555 1_555
C4 C3 1_555 1_555
H5 C4 1_555 1_555
C5 N1 1_555 1_555
H6 C5 1_555 1_555
C6 N2 1_555 1_555
C7 N3 1_555 1_555
C8 N3 1_555 1_555
C9 C8 1_555 1_555
H7 C9 1_555 1_555
C10 C9 1_555 1_555
H8 C10 1_555 1_555
C11 N9 1_555 1_555
H9 C11 1_555 1_555
C12 C8 1_555 1_555
H10 C12 1_555 1_555
C2 C3 1_555 1_555
C4 C5 1_555 1_555
C6 C7 1_555 1_555
C11 C12 1_555 1_555
Ag6 C16 1_555 1_555
Ag4 C15 1_555 1_555
O1_2 C6_2 1_555 1_555
O2_2 C7_2 1_555 1_555
N1_2 C1_2 1_555 1_555
N2_2 H1_2 1_555 1_555
N3_2 H2_2 1_555 1_555
N4 C10_2 1_555 1_555
C1_2 H3_2 1_555 1_555
C2_2 C1_2 1_555 1_555
H4_2 C2_2 1_555 1_555
C3_2 N2_2 1_555 1_555
C4_2 C3_2 1_555 1_555
H5_2 C4_2 1_555 1_555
C5_2 N1_2 1_555 1_555
H6_2 C5_2 1_555 1_555
C6_2 N2_2 1_555 1_555
C7_2 N3_2 1_555 1_555
C8_2 N3_2 1_555 1_555
C9_2 C8_2 1_555 1_555
H7_2 C9_2 1_555 1_555
C10_2 C9_2 1_555 1_555
H8_2 C10_2 1_555 1_555
C11_2 N4 1_555 1_555
H9_2 C11_2 1_555 1_555
C12_2 C8_2 1_555 1_555
H10_2 C12_2 1_555 1_555
Fe2 N4 1_555 1_555
C2_2 C3_2 1_555 1_555
C4_2 C5_2 1_555 1_555
C6_2 C7_2 1_555 1_555
C11_2 C12_2 1_555 1_555
Ag4 C13_2 1_555 1_555
Ag6 C14_2 1_555 1_555
N5_2 Fe2 1_555 1_555
N6_2 Fe2 1_555 1_555
N7_2 Fe2 1_555 1_555
N8_2 Fe2 1_555 1_555
C13_2 N5_2 1_555 1_555
C14_2 N6_2 1_555 1_555

#END
