
###############################################################################
#
# This file contains modified crystal structure data generated from the
# MOF subset of the Cambridge Structural Database (CSD) v543 
# hosted by the Cambridge Crystallographic Data Centre (CCDC).
#
# This work is licensed under the Creative Commons
# Attribution-NonCommercial-ShareAlike 4.0 International License.
# To view a copy of this license, visit
# http://creativecommons.org/licenses/by-nc-sa/4.0/
# or send a letter to
# Creative Commons, PO Box 1866, Mountain View, CA 94042, USA.
#
# CIF created using the CSD Python API on 29 September 2022
# The structure has been converted into the P1 space group
# The structure has a 3D framework
# The original CSD entry XAWZUU02 is in the orthorhombic crystal system
# The framework has been calculated to contain at least 10.0% void space
# The void calculation uses a probe of radius 1.32A, grid spacing 0.4
#
###############################################################################

data_XAWZUU02
_chemical_formula_moiety         '(C128 H80 Ag10 Fe8 N64 O16)n'
_symmetry_cell_setting           triclinic
_symmetry_space_group_name_H-M   'P 1'
_symmetry_Int_Tables_number      1
_space_group_name_Hall           'P 1'
loop_
_symmetry_equiv_pos_site_id
_symmetry_equiv_pos_as_xyz
1 x,y,z
_cell_length_a                   16.2837(3)
_cell_length_b                   13.5591(2)
_cell_length_c                   31.9899(6)
_cell_angle_alpha                90
_cell_angle_beta                 90
_cell_angle_gamma                90
_cell_volume                     7063.12
loop_
_atom_site_label
_atom_site_type_symbol
_atom_site_fract_x
_atom_site_fract_y
_atom_site_fract_z
Ag3 Ag 0.06370(7) 0.47568(7) 0.29521(4)
Ag2 Ag 0.03894(8) 0.99105(9) 0.29442(4)
C17 C 0.1433(8) 0.9014(8) 0.2942(5)
Ag1 Ag 0.56370(7) 0.52432(7) 0.29521(4)
Fe1 Fe 0.79705(9) 0.25009(8) 0.29699(5)
N1 N 0.6957(6) 0.2426(6) 0.7265(3)
O1 O 0.7367(9) 0.3734(7) 0.5733(3)
O2 O 0.6835(8) 0.1673(7) 0.5145(3)
N2 N 0.8992(6) 0.3488(8) 0.2983(4)
N3 N 0.7119(5) 0.3736(6) 0.2910(4)
N4 N 0.6953(6) 0.1461(6) 0.2951(4)
N5 N 0.6908(8) 0.2213(7) 0.5954(3)
H1 H 0.673910 0.165500 0.585901
N6 N 0.8825(7) 0.1291(7) 0.2998(4)
C1 C 0.6918(8) 0.1557(7) 0.7063(4)
H2 H 0.692011 0.098147 0.722170
C2 C 0.6974(8) 0.3230(7) 0.7023(4)
H3 H 0.698635 0.384028 0.715564
C3 C 0.6874(9) 0.1474(9) 0.6634(4)
H4 H 0.681648 0.085567 0.651141
C4 C 0.7503(9) 0.1988(9) 0.4322(4)
H5 H 0.734619 0.144294 0.447886
N7 N 0.7468(7) 0.3088(7) 0.4933(3)
H6 H 0.762603 0.365360 0.502498
C5 C 0.7645(8) 0.1887(8) 0.3901(4)
H7 H 0.759282 0.126330 0.378271
C6 C 0.6916(9) 0.2319(9) 0.6382(4)
C7 C 0.7136(9) 0.2890(9) 0.5668(4)
C8 C 0.7121(9) 0.2464(9) 0.5218(4)
C9 C 0.9334(9) 0.0771(10) 0.2977(5)
C10 C 0.7813(9) 0.3696(8) 0.4254(4)
H8 H 0.787029 0.432604 0.436504
C11 C 0.6635(7) 0.4280(7) 0.2926(5)
C12 C 0.6975(9) 0.3224(8) 0.6593(4)
H9 H 0.701296 0.381135 0.644436
C13 C 0.7946(8) 0.3541(7) 0.3836(4)
H10 H 0.810429 0.407318 0.367191
C14 C 0.6433(8) 0.0986(8) 0.2942(5)
N8 N 0.7855(7) 0.2642(7) 0.3651(3)
C15 C 0.7591(7) 0.2905(7) 0.4514(4)
C16 C 0.9588(8) 0.3907(9) 0.2985(5)
Ag4 Ag 0.53894(8) 0.00895(9) 0.29442(4)
Fe2 Fe 0.70295(9) 0.25009(8) 0.79699(5)
N9 N 0.8043(6) 0.2426(6) 0.2265(3)
C18 C 0.4588(8) 0.6093(9) 0.2985(5)
N1_2 N 0.3043(6) 0.7574(6) 0.2265(3)
O1_2 O 0.2633(9) 0.6266(7) 0.0733(3)
O2_2 O 0.3165(8) 0.8327(7) 0.0145(3)
N5_2 N 0.3092(8) 0.7787(7) 0.0954(3)
H1_2 H 0.326090 0.834500 0.085901
C1_2 C 0.3082(8) 0.8443(7) 0.2063(4)
H2_2 H 0.307989 0.901853 0.222170
C2_2 C 0.3026(8) 0.6770(7) 0.2023(4)
H3_2 H 0.301365 0.615972 0.215564
C3_2 C 0.3126(9) 0.8526(9) 0.1634(4)
H4_2 H 0.318352 0.914433 0.151141
H6_2 H 0.237397 0.634640 0.002498
C6_2 C 0.3084(9) 0.7681(9) 0.1382(4)
C7_2 C 0.2864(9) 0.7110(9) 0.0668(4)
C8_2 C 0.2879(9) 0.7536(9) 0.0218(4)
C12_2 C 0.3025(9) 0.6776(8) 0.1593(4)
H9_2 H 0.298704 0.618865 0.144436
Fe2_2 Fe 0.29705(9) 0.74991(8) 0.29699(5)
Ag1_2 Ag 0.43630(7) 0.47568(7) 0.79521(4)
Fe1_2 Fe 0.20295(9) 0.74991(8) 0.79699(5)
N2_2 N 0.1008(6) 0.6512(8) 0.7983(4)
N3_2 N 0.2881(5) 0.6264(6) 0.7910(4)
N4_2 N 0.3047(6) 0.8539(6) 0.7951(4)
N6_2 N 0.1175(7) 0.8709(7) 0.7998(4)
C4_2 C 0.2497(9) 0.8012(9) 0.9322(4)
H5_2 H 0.265381 0.855706 0.947886
N7_2 N 0.2532(7) 0.6912(7) 0.9933(3)
C5_2 C 0.2355(8) 0.8113(8) 0.8901(4)
H7_2 H 0.240718 0.873670 0.878271
C9_2 C 0.0666(9) 0.9229(10) 0.7977(5)
C10_2 C 0.2187(9) 0.6304(8) 0.9254(4)
H8_2 H 0.212971 0.567396 0.936504
C11_2 C 0.3365(7) 0.5720(7) 0.7926(5)
C13_2 C 0.2054(8) 0.6459(7) 0.8836(4)
H10_2 H 0.189571 0.592682 0.867191
C14_2 C 0.3567(8) 0.9014(8) 0.7942(5)
N8_2 N 0.2145(7) 0.7358(7) 0.8651(3)
C15_2 C 0.2409(7) 0.7095(7) 0.9514(4)
C16_2 C 0.0412(8) 0.6093(9) 0.7985(5)
Ag4_2 Ag 0.46106(8) 0.99105(9) 0.79442(4)
N9_2 N 0.1957(6) 0.7574(6) 0.7265(3)
C18_2 C 0.5412(8) 0.3907(9) 0.7985(5)
Ag2_2 Ag 0.96106(8) 0.00895(9) 0.79442(4)
C17_2 C 0.8567(8) 0.0986(8) 0.7942(5)
Ag3_2 Ag 0.93630(7) 0.52432(7) 0.79521(4)
O1_3 O 0.2367(9) 0.6266(7) 0.5733(3)
O2_3 O 0.1835(8) 0.8327(7) 0.5145(3)
N2_3 N 0.3992(6) 0.6512(8) 0.2983(4)
N3_3 N 0.2119(5) 0.6264(6) 0.2910(4)
N4_3 N 0.1953(6) 0.8539(6) 0.2951(4)
N5_3 N 0.1908(8) 0.7787(7) 0.5954(3)
H1_3 H 0.173910 0.834500 0.585901
N6_3 N 0.3825(7) 0.8709(7) 0.2998(4)
C1_3 C 0.1918(8) 0.8443(7) 0.7063(4)
H2_3 H 0.192011 0.901853 0.722170
C2_3 C 0.1974(8) 0.6770(7) 0.7023(4)
H3_3 H 0.198635 0.615972 0.715564
C3_3 C 0.1874(9) 0.8526(9) 0.6634(4)
H4_3 H 0.181648 0.914433 0.651141
C4_3 C 0.2503(9) 0.8012(9) 0.4322(4)
H5_3 H 0.234619 0.855706 0.447886
N7_3 N 0.2468(7) 0.6912(7) 0.4933(3)
H6_3 H 0.262603 0.634640 0.502498
C5_3 C 0.2645(8) 0.8113(8) 0.3901(4)
H7_3 H 0.259282 0.873670 0.378271
C6_3 C 0.1916(9) 0.7681(9) 0.6382(4)
C7_3 C 0.2136(9) 0.7110(9) 0.5668(4)
C8_3 C 0.2121(9) 0.7536(9) 0.5218(4)
C9_3 C 0.4334(9) 0.9229(10) 0.2977(5)
C10_3 C 0.2813(9) 0.6304(8) 0.4254(4)
H8_3 H 0.287029 0.567396 0.436504
C11_3 C 0.1635(7) 0.5720(7) 0.2926(5)
C12_3 C 0.1975(9) 0.6776(8) 0.6593(4)
H9_3 H 0.201296 0.618865 0.644436
C13_3 C 0.2946(8) 0.6459(7) 0.3836(4)
H10_3 H 0.310429 0.592682 0.367191
N8_3 N 0.2855(7) 0.7358(7) 0.3651(3)
C15_3 C 0.2591(7) 0.7095(7) 0.4514(4)
O1_4 O 0.7633(9) 0.3734(7) 0.0733(3)
O2_4 O 0.8165(8) 0.1673(7) 0.0145(3)
N5_4 N 0.8092(8) 0.2213(7) 0.0954(3)
H1_4 H 0.826090 0.165500 0.085901
C1_4 C 0.8082(8) 0.1557(7) 0.2063(4)
H2_4 H 0.807989 0.098147 0.222170
C2_4 C 0.8026(8) 0.3230(7) 0.2023(4)
H3_4 H 0.801365 0.384028 0.215564
C3_4 C 0.8126(9) 0.1474(9) 0.1634(4)
H4_4 H 0.818352 0.085567 0.151141
H6_4 H 0.737397 0.365360 0.002498
C6_4 C 0.8084(9) 0.2319(9) 0.1382(4)
C7_4 C 0.7864(9) 0.2890(9) 0.0668(4)
C8_4 C 0.7879(9) 0.2464(9) 0.0218(4)
C12_4 C 0.8025(9) 0.3224(8) 0.1593(4)
H9_4 H 0.798704 0.381135 0.144436
N2_4 N 0.6008(6) 0.3488(8) 0.7983(4)
N3_4 N 0.7881(5) 0.3736(6) 0.7910(4)
N4_4 N 0.8047(6) 0.1461(6) 0.7951(4)
N6_4 N 0.6175(7) 0.1291(7) 0.7998(4)
C4_4 C 0.7497(9) 0.1988(9) 0.9322(4)
H5_4 H 0.765381 0.144294 0.947886
N7_4 N 0.7532(7) 0.3088(7) 0.9933(3)
C5_4 C 0.7355(8) 0.1887(8) 0.8901(4)
H7_4 H 0.740718 0.126330 0.878271
C9_4 C 0.5666(9) 0.0771(10) 0.7977(5)
C10_4 C 0.7187(9) 0.3696(8) 0.9254(4)
H8_4 H 0.712971 0.432604 0.936504
C11_4 C 0.8365(7) 0.4280(7) 0.7926(5)
C13_4 C 0.7054(8) 0.3541(7) 0.8836(4)
H10_4 H 0.689571 0.407318 0.867191
N8_4 N 0.7145(7) 0.2642(7) 0.8651(3)
C15_4 C 0.7409(7) 0.2905(7) 0.9514(4)
C36 C 0.1232(9) 0.0834(9) 0.1975(4)
Ag6 Ag 0.01582(7) 0.99806(8) 0.19970(4)
Ag8 Ag 0.51582(7) 0.00194(8) 0.19970(4)
Ag5 Ag 0.49321(6) 0.52766(7) 0.20602(4)
Fe3 Fe 0.76300(8) 0.74939(9) 0.20373(5)
N10 N 0.6589(5) 0.6506(7) 0.2039(4)
N11 N 0.7597(6) 0.7588(6) 0.2713(3)
O3 O 0.7130(14) 0.8355(9) 0.4790(4)
C19 C 0.7488(10) 0.6783(9) 0.3377(4)
H11 H 0.748116 0.619702 0.352784
C20 C 0.7548(9) 0.6778(8) 0.2941(4)
H12 H 0.755315 0.617222 0.280456
C21 C 0.5999(8) 0.6111(8) 0.2031(4)
C22 C 0.7558(10) 0.8467(8) 0.2909(4)
H13 H 0.758955 0.903979 0.274968
N12 N 0.7387(11) 0.7792(9) 0.4012(4)
H14 H 0.726376 0.837063 0.410262
C23 C 0.7355(15) 0.7515(11) 0.4750(5)
N13 N 0.6744(6) 0.8697(7) 0.1972(4)
N14 N 0.8615(5) 0.8542(6) 0.2010(4)
N15 N 0.8470(5) 0.6275(6) 0.2076(4)
O4 O 0.7633(10) 0.6223(7) 0.4251(3)
C24 C 0.7528(9) 0.6250(8) 0.5755(4)
H15 H 0.764660 0.562402 0.565269
C25 C 0.7440(10) 0.7683(9) 0.3578(4)
N16 N 0.7467(8) 0.6858(7) 0.5054(3)
H16 H 0.759372 0.626839 0.497854
C26 C 0.7400(8) 0.7028(8) 0.5479(4)
C27 C 0.7510(11) 0.7087(10) 0.4304(4)
C28 C 0.7474(10) 0.8547(8) 0.3336(4)
H17 H 0.743946 0.916343 0.346221
C29 C 0.7199(9) 0.7939(9) 0.5650(4)
H18 H 0.709123 0.847436 0.547673
C30 C 0.9136(8) 0.9065(8) 0.1995(4)
C31 C 0.8960(7) 0.5702(7) 0.2065(4)
C32 C 0.7479(8) 0.6407(7) 0.6178(3)
H19 H 0.755750 0.587152 0.635538
C33 C 0.6232(9) 0.9166(9) 0.1975(4)
N17 N 0.7322(6) 0.7293(7) 0.6350(3)
C34 C 0.7160(8) 0.8041(8) 0.6082(4)
H20 H 0.701649 0.865207 0.619194
Ag7 Ag 0.99321(6) 0.47234(7) 0.20602(4)
Fe4 Fe 0.73700(8) 0.74939(9) 0.70373(5)
C35 C 0.3960(7) 0.4298(7) 0.2065(4)
N18 N 0.7678(6) 0.7293(7) 0.1350(3)
C24_2 C 0.2472(9) 0.3750(8) 0.0755(4)
H15_2 H 0.235340 0.437598 0.065269
N16_2 N 0.2533(8) 0.3142(7) 0.0054(3)
C26_2 C 0.2600(8) 0.2972(8) 0.0479(4)
C29_2 C 0.2801(9) 0.2061(9) 0.0650(4)
H18_2 H 0.290877 0.152564 0.047673
C32_2 C 0.2521(8) 0.3593(7) 0.1178(3)
H19_2 H 0.244250 0.412848 0.135538
N17_2 N 0.2678(6) 0.2707(7) 0.1350(3)
C34_2 C 0.2840(8) 0.1959(8) 0.1082(4)
H20_2 H 0.298351 0.134793 0.119194
Fe4_2 Fe 0.26300(8) 0.25061(9) 0.20373(5)
Ag5_2 Ag 0.50679(6) 0.47234(7) 0.70602(4)
Fe3_2 Fe 0.23700(8) 0.25061(9) 0.70373(5)
N10_2 N 0.3411(5) 0.3494(7) 0.7039(4)
N11_2 N 0.2403(6) 0.2412(6) 0.7713(3)
O3_2 O 0.2870(14) 0.1645(9) 0.9790(4)
C19_2 C 0.2512(10) 0.3217(9) 0.8377(4)
H11_2 H 0.251884 0.380298 0.852784
C20_2 C 0.2452(9) 0.3222(8) 0.7941(4)
H12_2 H 0.244685 0.382778 0.780456
C21_2 C 0.4001(8) 0.3889(8) 0.7031(4)
C22_2 C 0.2442(10) 0.1533(8) 0.7909(4)
H13_2 H 0.241045 0.096021 0.774968
N12_2 N 0.2613(11) 0.2208(9) 0.9012(4)
H14_2 H 0.273624 0.162937 0.910262
C23_2 C 0.2645(15) 0.2485(11) 0.9750(5)
N13_2 N 0.3256(6) 0.1303(7) 0.6972(4)
N14_2 N 0.1385(5) 0.1458(6) 0.7010(4)
N15_2 N 0.1530(5) 0.3725(6) 0.7076(4)
O4_2 O 0.2367(10) 0.3777(7) 0.9251(3)
C25_2 C 0.2560(10) 0.2317(9) 0.8578(4)
H16_2 H 0.240628 0.373161 0.997854
C27_2 C 0.2490(11) 0.2913(10) 0.9304(4)
C28_2 C 0.2526(10) 0.1453(8) 0.8336(4)
H17_2 H 0.256054 0.083657 0.846221
C30_2 C 0.0864(8) 0.0935(8) 0.6995(4)
C31_2 C 0.1040(7) 0.4298(7) 0.7065(4)
C33_2 C 0.3768(9) 0.0834(9) 0.6975(4)
Ag7_2 Ag 0.00679(6) 0.52766(7) 0.70602(4)
C35_2 C 0.6040(7) 0.5702(7) 0.7065(4)
N18_2 N 0.2322(6) 0.2707(7) 0.6350(3)
Ag8_2 Ag 0.48418(7) 0.99806(8) 0.69970(4)
Ag6_2 Ag 0.98418(7) 0.00194(8) 0.69970(4)
C36_2 C 0.8768(9) 0.9166(9) 0.6975(4)
N10_3 N 0.1589(5) 0.3494(7) 0.2039(4)
N11_3 N 0.2597(6) 0.2412(6) 0.2713(3)
O3_3 O 0.2130(14) 0.1645(9) 0.4790(4)
C19_3 C 0.2488(10) 0.3217(9) 0.3377(4)
H11_3 H 0.248116 0.380298 0.352784
C20_3 C 0.2548(9) 0.3222(8) 0.2941(4)
H12_3 H 0.255315 0.382778 0.280456
C21_3 C 0.0999(8) 0.3889(8) 0.2031(4)
C22_3 C 0.2558(10) 0.1533(8) 0.2909(4)
H13_3 H 0.258955 0.096021 0.274968
N12_3 N 0.2387(11) 0.2208(9) 0.4012(4)
H14_3 H 0.226376 0.162937 0.410262
C23_3 C 0.2355(15) 0.2485(11) 0.4750(5)
N13_3 N 0.1744(6) 0.1303(7) 0.1972(4)
N14_3 N 0.3615(5) 0.1458(6) 0.2010(4)
N15_3 N 0.3470(5) 0.3725(6) 0.2076(4)
O4_3 O 0.2633(10) 0.3777(7) 0.4251(3)
C24_3 C 0.2528(9) 0.3750(8) 0.5755(4)
H15_3 H 0.264660 0.437598 0.565269
C25_3 C 0.2440(10) 0.2317(9) 0.3578(4)
N16_3 N 0.2467(8) 0.3142(7) 0.5054(3)
H16_3 H 0.259372 0.373161 0.497854
C26_3 C 0.2400(8) 0.2972(8) 0.5479(4)
C27_3 C 0.2510(11) 0.2913(10) 0.4304(4)
C28_3 C 0.2474(10) 0.1453(8) 0.3336(4)
H17_3 H 0.243946 0.083657 0.346221
C29_3 C 0.2199(9) 0.2061(9) 0.5650(4)
H18_3 H 0.209123 0.152564 0.547673
C30_3 C 0.4136(8) 0.0935(8) 0.1995(4)
C32_3 C 0.2479(8) 0.3593(7) 0.6178(3)
H19_3 H 0.255750 0.412848 0.635538
C34_3 C 0.2160(8) 0.1959(8) 0.6082(4)
H20_3 H 0.201649 0.134793 0.619194
C24_4 C 0.7472(9) 0.6250(8) 0.0755(4)
H15_4 H 0.735340 0.562402 0.065269
N16_4 N 0.7533(8) 0.6858(7) 0.0054(3)
C26_4 C 0.7600(8) 0.7028(8) 0.0479(4)
C29_4 C 0.7801(9) 0.7939(9) 0.0650(4)
H18_4 H 0.790877 0.847436 0.047673
C32_4 C 0.7521(8) 0.6407(7) 0.1178(3)
H19_4 H 0.744250 0.587152 0.135538
C34_4 C 0.7840(8) 0.8041(8) 0.1082(4)
H20_4 H 0.798351 0.865207 0.119194
N10_4 N 0.8411(5) 0.6506(7) 0.7039(4)
N11_4 N 0.7403(6) 0.7588(6) 0.7713(3)
O3_4 O 0.7870(14) 0.8355(9) 0.9790(4)
C19_4 C 0.7512(10) 0.6783(9) 0.8377(4)
H11_4 H 0.751884 0.619702 0.852784
C20_4 C 0.7452(9) 0.6778(8) 0.7941(4)
H12_4 H 0.744685 0.617222 0.780456
C21_4 C 0.9001(8) 0.6111(8) 0.7031(4)
C22_4 C 0.7442(10) 0.8467(8) 0.7909(4)
H13_4 H 0.741045 0.903979 0.774968
N12_4 N 0.7613(11) 0.7792(9) 0.9012(4)
H14_4 H 0.773624 0.837063 0.910262
C23_4 C 0.7645(15) 0.7515(11) 0.9750(5)
N13_4 N 0.8256(6) 0.8697(7) 0.6972(4)
N14_4 N 0.6385(5) 0.8542(6) 0.7010(4)
N15_4 N 0.6530(5) 0.6275(6) 0.7076(4)
O4_4 O 0.7367(10) 0.6223(7) 0.9251(3)
C25_4 C 0.7560(10) 0.7683(9) 0.8578(4)
H16_4 H 0.740628 0.626839 0.997854
C27_4 C 0.7490(11) 0.7087(10) 0.9304(4)
C28_4 C 0.7526(10) 0.8547(8) 0.8336(4)
H17_4 H 0.756054 0.916343 0.846221
C30_4 C 0.5864(8) 0.9065(8) 0.6995(4)
loop_
_geom_bond_atom_site_label_1
_geom_bond_atom_site_label_2
_geom_bond_site_symmetry_1
_geom_bond_site_symmetry_2
C17 Ag2 1_555 1_555
Ag1 C11 1_555 1_555
Fe1 N2 1_555 1_555
N1 C1 1_555 1_555
O1 C7 1_555 1_555
O2 C8 1_555 1_555
N2 C16 1_555 1_555
N3 Fe1 1_555 1_555
N4 Fe1 1_555 1_555
N5 H1 1_555 1_555
N6 Fe1 1_555 1_555
C1 H2 1_555 1_555
C2 N1 1_555 1_555
H3 C2 1_555 1_555
C3 C1 1_555 1_555
H4 C3 1_555 1_555
C4 H5 1_555 1_555
N7 H6 1_555 1_555
C5 C4 1_555 1_555
H7 C5 1_555 1_555
C6 N5 1_555 1_555
C7 N5 1_555 1_555
C8 N7 1_555 1_555
C9 N6 1_555 1_555
C10 H8 1_555 1_555
C11 N3 1_555 1_555
C12 C2 1_555 1_555
H9 C12 1_555 1_555
C13 C10 1_555 1_555
H10 C13 1_555 1_555
C14 N4 1_555 1_555
N8 Fe1 1_555 1_555
C15 C4 1_555 1_555
Ag4 C14 1_555 1_555
Fe2 N1 1_555 1_555
N9 Fe1 1_555 1_555
C18 Ag1 1_555 1_555
C3 C6 1_555 1_555
N7 C15 1_555 1_555
C5 N8 1_555 1_555
C6 C12 1_555 1_555
C7 C8 1_555 1_555
C10 C15 1_555 1_555
C13 N8 1_555 1_555
N1_2 C1_2 1_555 1_555
O1_2 C7_2 1_555 1_555
O2_2 C8_2 1_555 1_555
N5_2 H1_2 1_555 1_555
C1_2 H2_2 1_555 1_555
C2_2 N1_2 1_555 1_555
H3_2 C2_2 1_555 1_555
C3_2 C1_2 1_555 1_555
H4_2 C3_2 1_555 1_555
C6_2 N5_2 1_555 1_555
C7_2 N5_2 1_555 1_555
C12_2 C2_2 1_555 1_555
H9_2 C12_2 1_555 1_555
Fe2_2 N1_2 1_555 1_555
C3_2 C6_2 1_555 1_555
C6_2 C12_2 1_555 1_555
C7_2 C8_2 1_555 1_555
Ag1_2 C11_2 1_555 1_555
Fe1_2 N2_2 1_555 1_555
N2_2 C16_2 1_555 1_555
N3_2 Fe1_2 1_555 1_555
N4_2 Fe1_2 1_555 1_555
N6_2 Fe1_2 1_555 1_555
C4_2 H5_2 1_555 1_555
C5_2 C4_2 1_555 1_555
H7_2 C5_2 1_555 1_555
C9_2 N6_2 1_555 1_555
C10_2 H8_2 1_555 1_555
C11_2 N3_2 1_555 1_555
C13_2 C10_2 1_555 1_555
H10_2 C13_2 1_555 1_555
C14_2 N4_2 1_555 1_555
N8_2 Fe1_2 1_555 1_555
C15_2 C4_2 1_555 1_555
Ag4_2 C14_2 1_555 1_555
N9_2 Fe1_2 1_555 1_555
C18_2 Ag1_2 1_555 1_555
N7_2 C15_2 1_555 1_555
C5_2 N8_2 1_555 1_555
C10_2 C15_2 1_555 1_555
C13_2 N8_2 1_555 1_555
C17_2 Ag2_2 1_555 1_555
Ag3 C11_3 1_555 1_555
Fe2_2 N2_3 1_555 1_555
N9_2 C1_3 1_555 1_555
O1_3 C7_3 1_555 1_555
O2_3 C8_3 1_555 1_555
N2_3 C18 1_555 1_555
N3_3 Fe2_2 1_555 1_555
N4_3 Fe2_2 1_555 1_555
N5_3 H1_3 1_555 1_555
N6_3 Fe2_2 1_555 1_555
C1_3 H2_3 1_555 1_555
C2_3 N9_2 1_555 1_555
H3_3 C2_3 1_555 1_555
C3_3 C1_3 1_555 1_555
H4_3 C3_3 1_555 1_555
C4_3 H5_3 1_555 1_555
N7_3 H6_3 1_555 1_555
C5_3 C4_3 1_555 1_555
H7_3 C5_3 1_555 1_555
C6_3 N5_3 1_555 1_555
C7_3 N5_3 1_555 1_555
C8_3 N7_3 1_555 1_555
C9_3 N6_3 1_555 1_555
C10_3 H8_3 1_555 1_555
C11_3 N3_3 1_555 1_555
C12_3 C2_3 1_555 1_555
H9_3 C12_3 1_555 1_555
C13_3 C10_3 1_555 1_555
H10_3 C13_3 1_555 1_555
C17 N4_3 1_555 1_555
N8_3 Fe2_2 1_555 1_555
C15_3 C4_3 1_555 1_555
C3_3 C6_3 1_555 1_555
N7_3 C15_3 1_555 1_555
C5_3 N8_3 1_555 1_555
C6_3 C12_3 1_555 1_555
C7_3 C8_3 1_555 1_555
C10_3 C15_3 1_555 1_555
C13_3 N8_3 1_555 1_555
N9 C1_4 1_555 1_555
O1_4 C7_4 1_555 1_555
O2_4 C8_4 1_555 1_555
N5_4 H1_4 1_555 1_555
C1_4 H2_4 1_555 1_555
C2_4 N9 1_555 1_555
H3_4 C2_4 1_555 1_555
C3_4 C1_4 1_555 1_555
H4_4 C3_4 1_555 1_555
C6_4 N5_4 1_555 1_555
C7_4 N5_4 1_555 1_555
C12_4 C2_4 1_555 1_555
H9_4 C12_4 1_555 1_555
C3_4 C6_4 1_555 1_555
C6_4 C12_4 1_555 1_555
C7_4 C8_4 1_555 1_555
Ag3_2 C11_4 1_555 1_555
Fe2 N2_4 1_555 1_555
N2_4 C18_2 1_555 1_555
N3_4 Fe2 1_555 1_555
N4_4 Fe2 1_555 1_555
N6_4 Fe2 1_555 1_555
C4_4 H5_4 1_555 1_555
C5_4 C4_4 1_555 1_555
H7_4 C5_4 1_555 1_555
C9_4 N6_4 1_555 1_555
C10_4 H8_4 1_555 1_555
C11_4 N3_4 1_555 1_555
C13_4 C10_4 1_555 1_555
H10_4 C13_4 1_555 1_555
C17_2 N4_4 1_555 1_555
N8_4 Fe2 1_555 1_555
C15_4 C4_4 1_555 1_555
N7_4 C15_4 1_555 1_555
C5_4 N8_4 1_555 1_555
C10_4 C15_4 1_555 1_555
C13_4 N8_4 1_555 1_555
Ag5 C21 1_555 1_555
Fe3 N10 1_555 1_555
N10 C21 1_555 1_555
N11 Fe3 1_555 1_555
O3 C23 1_555 1_555
C19 H11 1_555 1_555
C20 N11 1_555 1_555
H12 C20 1_555 1_555
C22 N11 1_555 1_555
H13 C22 1_555 1_555
N12 H14 1_555 1_555
C23 N16 1_555 1_555
N13 Fe3 1_555 1_555
N14 Fe3 1_555 1_555
N15 Fe3 1_555 1_555
O4 C27 1_555 1_555
C24 H15 1_555 1_555
C25 C19 1_555 1_555
N16 H16 1_555 1_555
C26 C24 1_555 1_555
C27 N12 1_555 1_555
C28 C22 1_555 1_555
H17 C28 1_555 1_555
C29 C26 1_555 1_555
H18 C29 1_555 1_555
C30 N14 1_555 1_555
C31 N15 1_555 1_555
C32 C24 1_555 1_555
H19 C32 1_555 1_555
C33 N13 1_555 1_555
N17 C32 1_555 1_555
C34 C29 1_555 1_555
H20 C34 1_555 1_555
Ag7 C31 1_555 1_555
Fe4 N17 1_555 1_555
C35 Ag5 1_555 1_555
N18 Fe3 1_555 1_555
C19 C20 1_555 1_555
N12 C25 1_555 1_555
C23 C27 1_555 1_555
C25 C28 1_555 1_555
N16 C26 1_555 1_555
N17 C34 1_555 1_555
C24_2 H15_2 1_555 1_555
C26_2 C24_2 1_555 1_555
C29_2 C26_2 1_555 1_555
H18_2 C29_2 1_555 1_555
C32_2 C24_2 1_555 1_555
H19_2 C32_2 1_555 1_555
N17_2 C32_2 1_555 1_555
C34_2 C29_2 1_555 1_555
H20_2 C34_2 1_555 1_555
Fe4_2 N17_2 1_555 1_555
N16_2 C26_2 1_555 1_555
N17_2 C34_2 1_555 1_555
Ag5_2 C21_2 1_555 1_555
Fe3_2 N10_2 1_555 1_555
N10_2 C21_2 1_555 1_555
N11_2 Fe3_2 1_555 1_555
O3_2 C23_2 1_555 1_555
C19_2 H11_2 1_555 1_555
C20_2 N11_2 1_555 1_555
H12_2 C20_2 1_555 1_555
C22_2 N11_2 1_555 1_555
H13_2 C22_2 1_555 1_555
N12_2 H14_2 1_555 1_555
N13_2 Fe3_2 1_555 1_555
N14_2 Fe3_2 1_555 1_555
N15_2 Fe3_2 1_555 1_555
O4_2 C27_2 1_555 1_555
C25_2 C19_2 1_555 1_555
C27_2 N12_2 1_555 1_555
C28_2 C22_2 1_555 1_555
H17_2 C28_2 1_555 1_555
C30_2 N14_2 1_555 1_555
C31_2 N15_2 1_555 1_555
C33_2 N13_2 1_555 1_555
Ag7_2 C31_2 1_555 1_555
C35_2 Ag5_2 1_555 1_555
N18_2 Fe3_2 1_555 1_555
C19_2 C20_2 1_555 1_555
N12_2 C25_2 1_555 1_555
C23_2 C27_2 1_555 1_555
C25_2 C28_2 1_555 1_555
Fe4_2 N10_3 1_555 1_555
N10_3 C21_3 1_555 1_555
N11_3 Fe4_2 1_555 1_555
O3_3 C23_3 1_555 1_555
C19_3 H11_3 1_555 1_555
C20_3 N11_3 1_555 1_555
H12_3 C20_3 1_555 1_555
C22_3 N11_3 1_555 1_555
H13_3 C22_3 1_555 1_555
N12_3 H14_3 1_555 1_555
C23_3 N16_3 1_555 1_555
N13_3 Fe4_2 1_555 1_555
N14_3 Fe4_2 1_555 1_555
N15_3 Fe4_2 1_555 1_555
O4_3 C27_3 1_555 1_555
C24_3 H15_3 1_555 1_555
C25_3 C19_3 1_555 1_555
N16_3 H16_3 1_555 1_555
C26_3 C24_3 1_555 1_555
C27_3 N12_3 1_555 1_555
C28_3 C22_3 1_555 1_555
H17_3 C28_3 1_555 1_555
C29_3 C26_3 1_555 1_555
H18_3 C29_3 1_555 1_555
C30_3 N14_3 1_555 1_555
C35 N15_3 1_555 1_555
C32_3 C24_3 1_555 1_555
H19_3 C32_3 1_555 1_555
C36 N13_3 1_555 1_555
N18_2 C32_3 1_555 1_555
C34_3 C29_3 1_555 1_555
H20_3 C34_3 1_555 1_555
Ag8 C30_3 1_555 1_555
C19_3 C20_3 1_555 1_555
N12_3 C25_3 1_555 1_555
C23_3 C27_3 1_555 1_555
C25_3 C28_3 1_555 1_555
N16_3 C26_3 1_555 1_555
N18_2 C34_3 1_555 1_555
C24_4 H15_4 1_555 1_555
C26_4 C24_4 1_555 1_555
C29_4 C26_4 1_555 1_555
H18_4 C29_4 1_555 1_555
C32_4 C24_4 1_555 1_555
H19_4 C32_4 1_555 1_555
N18 C32_4 1_555 1_555
C34_4 C29_4 1_555 1_555
H20_4 C34_4 1_555 1_555
N16_4 C26_4 1_555 1_555
N18 C34_4 1_555 1_555
Fe4 N10_4 1_555 1_555
N10_4 C21_4 1_555 1_555
N11_4 Fe4 1_555 1_555
O3_4 C23_4 1_555 1_555
C19_4 H11_4 1_555 1_555
C20_4 N11_4 1_555 1_555
H12_4 C20_4 1_555 1_555
C22_4 N11_4 1_555 1_555
H13_4 C22_4 1_555 1_555
N12_4 H14_4 1_555 1_555
N13_4 Fe4 1_555 1_555
N14_4 Fe4 1_555 1_555
N15_4 Fe4 1_555 1_555
O4_4 C27_4 1_555 1_555
C25_4 C19_4 1_555 1_555
C27_4 N12_4 1_555 1_555
C28_4 C22_4 1_555 1_555
H17_4 C28_4 1_555 1_555
C30_4 N14_4 1_555 1_555
C35_2 N15_4 1_555 1_555
C36_2 N13_4 1_555 1_555
Ag8_2 C30_4 1_555 1_555
C19_4 C20_4 1_555 1_555
N12_4 C25_4 1_555 1_555
C23_4 C27_4 1_555 1_555
C25_4 C28_4 1_555 1_555

#END
