
###############################################################################
#
# This file contains modified crystal structure data generated from the
# MOF subset of the Cambridge Structural Database (CSD) v543 
# hosted by the Cambridge Crystallographic Data Centre (CCDC).
#
# This work is licensed under the Creative Commons
# Attribution-NonCommercial-ShareAlike 4.0 International License.
# To view a copy of this license, visit
# http://creativecommons.org/licenses/by-nc-sa/4.0/
# or send a letter to
# Creative Commons, PO Box 1866, Mountain View, CA 94042, USA.
#
# CIF created using the CSD Python API on 29 September 2022
# The structure has been converted into the P1 space group
# The structure has a 3D framework
# The original CSD entry XAWZUU is in the orthorhombic crystal system
# The framework has been calculated to contain at least 10.0% void space
# The void calculation uses a probe of radius 1.32A, grid spacing 0.4
#
###############################################################################

data_XAWZUU
_chemical_formula_moiety         '(C128 H80 Ag10 Fe8 N64 O16)n'
_symmetry_cell_setting           triclinic
_symmetry_space_group_name_H-M   'P 1'
_symmetry_Int_Tables_number      1
_space_group_name_Hall           'P 1'
loop_
_symmetry_equiv_pos_site_id
_symmetry_equiv_pos_as_xyz
1 x,y,z
_cell_length_a                   15.5183(7)
_cell_length_b                   13.4052(5)
_cell_length_c                   31.2743(11)
_cell_angle_alpha                90
_cell_angle_beta                 90
_cell_angle_gamma                90
_cell_volume                     6505.86
loop_
_atom_site_label
_atom_site_type_symbol
_atom_site_fract_x
_atom_site_fract_y
_atom_site_fract_z
Ag3 Ag 0.05942(3) 0.48127(3) 0.29513(2)
Ag2 Ag 0.03919(3) 0.99271(3) 0.29493(2)
C17 C 0.1449(4) 0.8997(4) 0.2957(2)
Ag1 Ag 0.55942(3) 0.51873(3) 0.29513(2)
Fe1 Fe 0.79536(5) 0.25116(5) 0.29600(3)
N1 N 0.6988(3) 0.2429(3) 0.73131(17)
O1 O 0.7370(3) 0.3765(3) 0.57417(13)
O2 O 0.6829(3) 0.1662(3) 0.51392(13)
N2 N 0.8912(3) 0.3434(3) 0.29626(17)
N3 N 0.7130(3) 0.3595(3) 0.29194(17)
N4 N 0.7011(3) 0.1555(3) 0.29596(18)
N5 N 0.6959(3) 0.2207(4) 0.59713(15)
H1 H 0.680095 0.161964 0.587370
N6 N 0.8788(3) 0.1432(3) 0.29942(17)
C1 C 0.6981(4) 0.1540(4) 0.71086(19)
H2 H 0.698764 0.094662 0.727490
C2 C 0.6998(4) 0.3254(4) 0.7068(2)
H3 H 0.700780 0.388401 0.720692
C3 C 0.6965(4) 0.1456(4) 0.66668(18)
H4 H 0.694899 0.081721 0.653572
C4 C 0.7561(4) 0.1970(4) 0.4299(2)
H5 H 0.743962 0.139883 0.446832
N7 N 0.7483(4) 0.3107(3) 0.49219(15)
H6 H 0.765041 0.369284 0.501764
C5 C 0.7700(4) 0.1884(4) 0.38638(19)
H7 H 0.767076 0.123616 0.374158
C6 C 0.6972(4) 0.2318(4) 0.64156(18)
C7 C 0.7165(4) 0.2906(4) 0.56726(18)
C8 C 0.7131(4) 0.2468(5) 0.5216(2)
C9 C 0.9321(4) 0.0846(4) 0.2980(2)
C10 C 0.7809(4) 0.3723(4) 0.42183(18)
H8 H 0.786043 0.437634 0.433273
C11 C 0.6611(4) 0.4202(4) 0.2932(2)
C12 C 0.6995(4) 0.3238(4) 0.66244(19)
H9 H 0.700837 0.384236 0.646570
C13 C 0.7936(4) 0.3557(4) 0.37870(19)
H10 H 0.807525 0.411230 0.361137
C14 C 0.6449(4) 0.1003(4) 0.2957(2)
N8 N 0.7874(3) 0.2654(4) 0.36009(17)
C15 C 0.7604(4) 0.2924(4) 0.44837(19)
C16 C 0.9512(4) 0.3933(4) 0.2980(2)
Ag4 Ag 0.53919(3) 0.00729(3) 0.29493(2)
Fe2 Fe 0.70464(5) 0.25116(5) 0.79600(3)
N9 N 0.8012(3) 0.2429(3) 0.23131(17)
C18 C 0.4512(4) 0.6067(4) 0.2980(2)
N1_2 N 0.3012(3) 0.7571(3) 0.23131(17)
O1_2 O 0.2630(3) 0.6235(3) 0.07417(13)
O2_2 O 0.3171(3) 0.8338(3) 0.01392(13)
N5_2 N 0.3041(3) 0.7793(4) 0.09713(15)
H1_2 H 0.319905 0.838036 0.087370
C1_2 C 0.3019(4) 0.8460(4) 0.21086(19)
H2_2 H 0.301236 0.905338 0.227490
C2_2 C 0.3002(4) 0.6746(4) 0.2068(2)
H3_2 H 0.299220 0.611599 0.220692
C3_2 C 0.3035(4) 0.8544(4) 0.16668(18)
H4_2 H 0.305101 0.918279 0.153572
H6_2 H 0.234959 0.630716 0.001764
C6_2 C 0.3028(4) 0.7682(4) 0.14156(18)
C7_2 C 0.2835(4) 0.7094(4) 0.06726(18)
C8_2 C 0.2869(4) 0.7532(5) 0.0216(2)
C12_2 C 0.3005(4) 0.6762(4) 0.16244(19)
H9_2 H 0.299163 0.615764 0.146570
Fe2_2 Fe 0.29536(5) 0.74884(5) 0.29600(3)
Ag1_2 Ag 0.44058(3) 0.48127(3) 0.79513(2)
Fe1_2 Fe 0.20464(5) 0.74884(5) 0.79600(3)
N2_2 N 0.1088(3) 0.6566(3) 0.79626(17)
N3_2 N 0.2870(3) 0.6405(3) 0.79194(17)
N4_2 N 0.2989(3) 0.8445(3) 0.79596(18)
N6_2 N 0.1212(3) 0.8568(3) 0.79942(17)
C4_2 C 0.2439(4) 0.8030(4) 0.9299(2)
H5_2 H 0.256038 0.860117 0.946832
N7_2 N 0.2517(4) 0.6893(3) 0.99219(15)
C5_2 C 0.2300(4) 0.8116(4) 0.88638(19)
H7_2 H 0.232924 0.876384 0.874158
C9_2 C 0.0679(4) 0.9154(4) 0.7980(2)
C10_2 C 0.2191(4) 0.6277(4) 0.92183(18)
H8_2 H 0.213957 0.562366 0.933273
C11_2 C 0.3389(4) 0.5798(4) 0.7932(2)
C13_2 C 0.2064(4) 0.6443(4) 0.87870(19)
H10_2 H 0.192475 0.588770 0.861137
C14_2 C 0.3551(4) 0.8997(4) 0.7957(2)
N8_2 N 0.2126(3) 0.7346(4) 0.86009(17)
C15_2 C 0.2396(4) 0.7076(4) 0.94837(19)
C16_2 C 0.0488(4) 0.6067(4) 0.7980(2)
Ag4_2 Ag 0.46081(3) 0.99271(3) 0.79493(2)
N9_2 N 0.1988(3) 0.7571(3) 0.73131(17)
C18_2 C 0.5488(4) 0.3933(4) 0.7980(2)
Ag2_2 Ag 0.96081(3) 0.00729(3) 0.79493(2)
C17_2 C 0.8551(4) 0.1003(4) 0.7957(2)
Ag3_2 Ag 0.94058(3) 0.51873(3) 0.79513(2)
O1_3 O 0.2370(3) 0.6235(3) 0.57417(13)
O2_3 O 0.1829(3) 0.8338(3) 0.51392(13)
N2_3 N 0.3912(3) 0.6566(3) 0.29626(17)
N3_3 N 0.2130(3) 0.6405(3) 0.29194(17)
N4_3 N 0.2011(3) 0.8445(3) 0.29596(18)
N5_3 N 0.1959(3) 0.7793(4) 0.59713(15)
H1_3 H 0.180095 0.838036 0.587370
N6_3 N 0.3788(3) 0.8568(3) 0.29942(17)
C1_3 C 0.1981(4) 0.8460(4) 0.71086(19)
H2_3 H 0.198764 0.905338 0.727490
C2_3 C 0.1998(4) 0.6746(4) 0.7068(2)
H3_3 H 0.200780 0.611599 0.720692
C3_3 C 0.1965(4) 0.8544(4) 0.66668(18)
H4_3 H 0.194899 0.918279 0.653572
C4_3 C 0.2561(4) 0.8030(4) 0.4299(2)
H5_3 H 0.243962 0.860117 0.446832
N7_3 N 0.2483(4) 0.6893(3) 0.49219(15)
H6_3 H 0.265041 0.630716 0.501764
C5_3 C 0.2700(4) 0.8116(4) 0.38638(19)
H7_3 H 0.267076 0.876384 0.374158
C6_3 C 0.1972(4) 0.7682(4) 0.64156(18)
C7_3 C 0.2165(4) 0.7094(4) 0.56726(18)
C8_3 C 0.2131(4) 0.7532(5) 0.5216(2)
C9_3 C 0.4321(4) 0.9154(4) 0.2980(2)
C10_3 C 0.2809(4) 0.6277(4) 0.42183(18)
H8_3 H 0.286043 0.562366 0.433273
C11_3 C 0.1611(4) 0.5798(4) 0.2932(2)
C12_3 C 0.1995(4) 0.6762(4) 0.66244(19)
H9_3 H 0.200837 0.615764 0.646570
C13_3 C 0.2936(4) 0.6443(4) 0.37870(19)
H10_3 H 0.307525 0.588770 0.361137
N8_3 N 0.2874(3) 0.7346(4) 0.36009(17)
C15_3 C 0.2604(4) 0.7076(4) 0.44837(19)
O1_4 O 0.7630(3) 0.3765(3) 0.07417(13)
O2_4 O 0.8171(3) 0.1662(3) 0.01392(13)
N5_4 N 0.8041(3) 0.2207(4) 0.09713(15)
H1_4 H 0.819905 0.161964 0.087370
C1_4 C 0.8019(4) 0.1540(4) 0.21086(19)
H2_4 H 0.801236 0.094662 0.227490
C2_4 C 0.8002(4) 0.3254(4) 0.2068(2)
H3_4 H 0.799220 0.388401 0.220692
C3_4 C 0.8035(4) 0.1456(4) 0.16668(18)
H4_4 H 0.805101 0.081721 0.153572
H6_4 H 0.734959 0.369284 0.001764
C6_4 C 0.8028(4) 0.2318(4) 0.14156(18)
C7_4 C 0.7835(4) 0.2906(4) 0.06726(18)
C8_4 C 0.7869(4) 0.2468(5) 0.0216(2)
C12_4 C 0.8005(4) 0.3238(4) 0.16244(19)
H9_4 H 0.799163 0.384236 0.146570
N2_4 N 0.6088(3) 0.3434(3) 0.79626(17)
N3_4 N 0.7870(3) 0.3595(3) 0.79194(17)
N4_4 N 0.7989(3) 0.1555(3) 0.79596(18)
N6_4 N 0.6212(3) 0.1432(3) 0.79942(17)
C4_4 C 0.7439(4) 0.1970(4) 0.9299(2)
H5_4 H 0.756038 0.139883 0.946832
N7_4 N 0.7517(4) 0.3107(3) 0.99219(15)
C5_4 C 0.7300(4) 0.1884(4) 0.88638(19)
H7_4 H 0.732924 0.123616 0.874158
C9_4 C 0.5679(4) 0.0846(4) 0.7980(2)
C10_4 C 0.7191(4) 0.3723(4) 0.92183(18)
H8_4 H 0.713957 0.437634 0.933273
C11_4 C 0.8389(4) 0.4202(4) 0.7932(2)
C13_4 C 0.7064(4) 0.3557(4) 0.87870(19)
H10_4 H 0.692475 0.411230 0.861137
N8_4 N 0.7126(3) 0.2654(4) 0.86009(17)
C15_4 C 0.7396(4) 0.2924(4) 0.94837(19)
C36 C 0.1167(4) 0.0886(4) 0.1978(2)
Ag6 Ag 0.01025(3) 0.99673(3) 0.19969(2)
Ag8 Ag 0.51025(3) 0.00327(3) 0.19969(2)
Ag5 Ag 0.48976(3) 0.52248(3) 0.20595(2)
Fe3 Fe 0.75677(5) 0.74881(5) 0.20294(3)
N10 N 0.6595(3) 0.6580(3) 0.20472(18)
N11 N 0.7529(3) 0.7593(3) 0.26660(17)
O3 O 0.7205(4) 0.8417(3) 0.48020(14)
C19 C 0.7444(4) 0.6785(4) 0.33542(18)
H11 H 0.741179 0.618446 0.351483
C20 C 0.7486(4) 0.6768(4) 0.29092(19)
H12 H 0.748323 0.613861 0.276993
C21 C 0.5983(4) 0.6099(4) 0.2038(2)
C22 C 0.7522(4) 0.8478(4) 0.2869(2)
H13 H 0.754530 0.906955 0.270173
N12 N 0.7413(4) 0.7831(4) 0.40043(15)
H14 H 0.731451 0.843800 0.409944
C23 C 0.7400(5) 0.7548(4) 0.4756(2)
N13 N 0.6727(3) 0.8561(3) 0.19835(15)
N14 N 0.8510(3) 0.8445(3) 0.20107(17)
N15 N 0.8388(3) 0.6402(3) 0.20685(16)
O4 O 0.7628(4) 0.6227(3) 0.42432(14)
C24 C 0.7575(4) 0.6251(4) 0.57856(18)
H15 H 0.767039 0.559944 0.567650
C25 C 0.7453(4) 0.7713(4) 0.35558(19)
N16 N 0.7538(3) 0.6876(4) 0.50689(14)
H16 H 0.768307 0.626797 0.499064
C26 C 0.7469(4) 0.7063(4) 0.55087(18)
C27 C 0.7509(4) 0.7110(5) 0.43029(18)
C28 C 0.7482(4) 0.8568(4) 0.33066(18)
H17 H 0.747382 0.920869 0.343667
C29 C 0.7293(4) 0.7983(4) 0.56858(18)
H18 H 0.719188 0.854385 0.550680
C30 C 0.9064(4) 0.9009(4) 0.2000(2)
C31 C 0.8900(4) 0.5779(4) 0.2068(2)
C32 C 0.7537(4) 0.6419(4) 0.62195(17)
H19 H 0.761339 0.586534 0.640528
C33 C 0.6167(4) 0.9114(4) 0.1978(2)
N17 N 0.7400(3) 0.7321(3) 0.63963(16)
C34 C 0.7266(4) 0.8085(4) 0.61263(18)
H20 H 0.714686 0.872418 0.624302
Ag7 Ag 0.98976(3) 0.47752(3) 0.20595(2)
Fe4 Fe 0.74323(5) 0.74881(5) 0.70294(3)
C35 C 0.3900(4) 0.4221(4) 0.2068(2)
N18 N 0.7600(3) 0.7321(3) 0.13963(16)
C24_2 C 0.2425(4) 0.3749(4) 0.07856(18)
H15_2 H 0.232961 0.440056 0.067650
N16_2 N 0.2462(3) 0.3124(4) 0.00689(14)
C26_2 C 0.2531(4) 0.2937(4) 0.05087(18)
C29_2 C 0.2707(4) 0.2017(4) 0.06858(18)
H18_2 H 0.280812 0.145615 0.050680
C32_2 C 0.2463(4) 0.3581(4) 0.12195(17)
H19_2 H 0.238661 0.413466 0.140528
N17_2 N 0.2600(3) 0.2679(3) 0.13963(16)
C34_2 C 0.2734(4) 0.1915(4) 0.11263(18)
H20_2 H 0.285314 0.127582 0.124302
Fe4_2 Fe 0.25677(5) 0.25119(5) 0.20294(3)
Ag5_2 Ag 0.51024(3) 0.47752(3) 0.70595(2)
Fe3_2 Fe 0.24323(5) 0.25119(5) 0.70294(3)
N10_2 N 0.3405(3) 0.3420(3) 0.70472(18)
N11_2 N 0.2471(3) 0.2407(3) 0.76660(17)
O3_2 O 0.2795(4) 0.1583(3) 0.98020(14)
C19_2 C 0.2556(4) 0.3215(4) 0.83542(18)
H11_2 H 0.258821 0.381554 0.851483
C20_2 C 0.2514(4) 0.3232(4) 0.79092(19)
H12_2 H 0.251677 0.386139 0.776993
C21_2 C 0.4017(4) 0.3901(4) 0.7038(2)
C22_2 C 0.2478(4) 0.1522(4) 0.7869(2)
H13_2 H 0.245470 0.093045 0.770173
N12_2 N 0.2587(4) 0.2169(4) 0.90043(15)
H14_2 H 0.268549 0.156200 0.909944
C23_2 C 0.2600(5) 0.2452(4) 0.9756(2)
N13_2 N 0.3273(3) 0.1439(3) 0.69835(15)
N14_2 N 0.1490(3) 0.1555(3) 0.70107(17)
N15_2 N 0.1612(3) 0.3598(3) 0.70685(16)
O4_2 O 0.2372(4) 0.3773(3) 0.92432(14)
C25_2 C 0.2547(4) 0.2287(4) 0.85558(19)
H16_2 H 0.231693 0.373203 0.999064
C27_2 C 0.2491(4) 0.2890(5) 0.93029(18)
C28_2 C 0.2518(4) 0.1432(4) 0.83066(18)
H17_2 H 0.252618 0.079131 0.843667
C30_2 C 0.0936(4) 0.0991(4) 0.7000(2)
C31_2 C 0.1100(4) 0.4221(4) 0.7068(2)
C33_2 C 0.3833(4) 0.0886(4) 0.6978(2)
Ag7_2 Ag 0.01024(3) 0.52248(3) 0.70595(2)
C35_2 C 0.6100(4) 0.5779(4) 0.7068(2)
N18_2 N 0.2400(3) 0.2679(3) 0.63963(16)
Ag8_2 Ag 0.48975(3) 0.99673(3) 0.69969(2)
Ag6_2 Ag 0.98975(3) 0.00327(3) 0.69969(2)
C36_2 C 0.8833(4) 0.9114(4) 0.6978(2)
N10_3 N 0.1595(3) 0.3420(3) 0.20472(18)
N11_3 N 0.2529(3) 0.2407(3) 0.26660(17)
O3_3 O 0.2205(4) 0.1583(3) 0.48020(14)
C19_3 C 0.2444(4) 0.3215(4) 0.33542(18)
H11_3 H 0.241179 0.381554 0.351483
C20_3 C 0.2486(4) 0.3232(4) 0.29092(19)
H12_3 H 0.248323 0.386139 0.276993
C21_3 C 0.0983(4) 0.3901(4) 0.2038(2)
C22_3 C 0.2522(4) 0.1522(4) 0.2869(2)
H13_3 H 0.254530 0.093045 0.270173
N12_3 N 0.2413(4) 0.2169(4) 0.40043(15)
H14_3 H 0.231451 0.156200 0.409944
C23_3 C 0.2400(5) 0.2452(4) 0.4756(2)
N13_3 N 0.1727(3) 0.1439(3) 0.19835(15)
N14_3 N 0.3510(3) 0.1555(3) 0.20107(17)
N15_3 N 0.3388(3) 0.3598(3) 0.20685(16)
O4_3 O 0.2628(4) 0.3773(3) 0.42432(14)
C24_3 C 0.2575(4) 0.3749(4) 0.57856(18)
H15_3 H 0.267039 0.440056 0.567650
C25_3 C 0.2453(4) 0.2287(4) 0.35558(19)
N16_3 N 0.2538(3) 0.3124(4) 0.50689(14)
H16_3 H 0.268307 0.373203 0.499064
C26_3 C 0.2469(4) 0.2937(4) 0.55087(18)
C27_3 C 0.2509(4) 0.2890(5) 0.43029(18)
C28_3 C 0.2482(4) 0.1432(4) 0.33066(18)
H17_3 H 0.247382 0.079131 0.343667
C29_3 C 0.2293(4) 0.2017(4) 0.56858(18)
H18_3 H 0.219188 0.145615 0.550680
C30_3 C 0.4064(4) 0.0991(4) 0.2000(2)
C32_3 C 0.2537(4) 0.3581(4) 0.62195(17)
H19_3 H 0.261339 0.413466 0.640528
C34_3 C 0.2266(4) 0.1915(4) 0.61263(18)
H20_3 H 0.214686 0.127582 0.624302
C24_4 C 0.7425(4) 0.6251(4) 0.07856(18)
H15_4 H 0.732961 0.559944 0.067650
N16_4 N 0.7462(3) 0.6876(4) 0.00689(14)
C26_4 C 0.7531(4) 0.7063(4) 0.05087(18)
C29_4 C 0.7707(4) 0.7983(4) 0.06858(18)
H18_4 H 0.780812 0.854385 0.050680
C32_4 C 0.7463(4) 0.6419(4) 0.12195(17)
H19_4 H 0.738661 0.586534 0.140528
C34_4 C 0.7734(4) 0.8085(4) 0.11263(18)
H20_4 H 0.785314 0.872418 0.124302
N10_4 N 0.8405(3) 0.6580(3) 0.70472(18)
N11_4 N 0.7471(3) 0.7593(3) 0.76660(17)
O3_4 O 0.7795(4) 0.8417(3) 0.98020(14)
C19_4 C 0.7556(4) 0.6785(4) 0.83542(18)
H11_4 H 0.758821 0.618446 0.851483
C20_4 C 0.7514(4) 0.6768(4) 0.79092(19)
H12_4 H 0.751677 0.613861 0.776993
C21_4 C 0.9017(4) 0.6099(4) 0.7038(2)
C22_4 C 0.7478(4) 0.8478(4) 0.7869(2)
H13_4 H 0.745470 0.906955 0.770173
N12_4 N 0.7587(4) 0.7831(4) 0.90043(15)
H14_4 H 0.768549 0.843800 0.909944
C23_4 C 0.7600(5) 0.7548(4) 0.9756(2)
N13_4 N 0.8273(3) 0.8561(3) 0.69835(15)
N14_4 N 0.6490(3) 0.8445(3) 0.70107(17)
N15_4 N 0.6612(3) 0.6402(3) 0.70685(16)
O4_4 O 0.7372(4) 0.6227(3) 0.92432(14)
C25_4 C 0.7547(4) 0.7713(4) 0.85558(19)
H16_4 H 0.731693 0.626797 0.999064
C27_4 C 0.7491(4) 0.7110(5) 0.93029(18)
C28_4 C 0.7518(4) 0.8568(4) 0.83066(18)
H17_4 H 0.752618 0.920869 0.843667
C30_4 C 0.5936(4) 0.9009(4) 0.7000(2)
loop_
_geom_bond_atom_site_label_1
_geom_bond_atom_site_label_2
_geom_bond_site_symmetry_1
_geom_bond_site_symmetry_2
C17 Ag2 1_555 1_555
Ag1 C11 1_555 1_555
Fe1 N2 1_555 1_555
N1 C1 1_555 1_555
O1 C7 1_555 1_555
O2 C8 1_555 1_555
N2 C16 1_555 1_555
N3 Fe1 1_555 1_555
N4 Fe1 1_555 1_555
N5 H1 1_555 1_555
N6 Fe1 1_555 1_555
C1 H2 1_555 1_555
C2 N1 1_555 1_555
H3 C2 1_555 1_555
C3 C1 1_555 1_555
H4 C3 1_555 1_555
C4 H5 1_555 1_555
N7 H6 1_555 1_555
C5 C4 1_555 1_555
H7 C5 1_555 1_555
C6 N5 1_555 1_555
C7 N5 1_555 1_555
C8 N7 1_555 1_555
C9 N6 1_555 1_555
C10 H8 1_555 1_555
C11 N3 1_555 1_555
C12 C2 1_555 1_555
H9 C12 1_555 1_555
C13 C10 1_555 1_555
H10 C13 1_555 1_555
C14 N4 1_555 1_555
N8 Fe1 1_555 1_555
C15 C4 1_555 1_555
Ag4 C14 1_555 1_555
Fe2 N1 1_555 1_555
N9 Fe1 1_555 1_555
C18 Ag1 1_555 1_555
C3 C6 1_555 1_555
N7 C15 1_555 1_555
C5 N8 1_555 1_555
C6 C12 1_555 1_555
C7 C8 1_555 1_555
C10 C15 1_555 1_555
C13 N8 1_555 1_555
N1_2 C1_2 1_555 1_555
O1_2 C7_2 1_555 1_555
O2_2 C8_2 1_555 1_555
N5_2 H1_2 1_555 1_555
C1_2 H2_2 1_555 1_555
C2_2 N1_2 1_555 1_555
H3_2 C2_2 1_555 1_555
C3_2 C1_2 1_555 1_555
H4_2 C3_2 1_555 1_555
C6_2 N5_2 1_555 1_555
C7_2 N5_2 1_555 1_555
C12_2 C2_2 1_555 1_555
H9_2 C12_2 1_555 1_555
Fe2_2 N1_2 1_555 1_555
C3_2 C6_2 1_555 1_555
C6_2 C12_2 1_555 1_555
C7_2 C8_2 1_555 1_555
Ag1_2 C11_2 1_555 1_555
Fe1_2 N2_2 1_555 1_555
N2_2 C16_2 1_555 1_555
N3_2 Fe1_2 1_555 1_555
N4_2 Fe1_2 1_555 1_555
N6_2 Fe1_2 1_555 1_555
C4_2 H5_2 1_555 1_555
C5_2 C4_2 1_555 1_555
H7_2 C5_2 1_555 1_555
C9_2 N6_2 1_555 1_555
C10_2 H8_2 1_555 1_555
C11_2 N3_2 1_555 1_555
C13_2 C10_2 1_555 1_555
H10_2 C13_2 1_555 1_555
C14_2 N4_2 1_555 1_555
N8_2 Fe1_2 1_555 1_555
C15_2 C4_2 1_555 1_555
Ag4_2 C14_2 1_555 1_555
N9_2 Fe1_2 1_555 1_555
C18_2 Ag1_2 1_555 1_555
N7_2 C15_2 1_555 1_555
C5_2 N8_2 1_555 1_555
C10_2 C15_2 1_555 1_555
C13_2 N8_2 1_555 1_555
C17_2 Ag2_2 1_555 1_555
Ag3 C11_3 1_555 1_555
Fe2_2 N2_3 1_555 1_555
N9_2 C1_3 1_555 1_555
O1_3 C7_3 1_555 1_555
O2_3 C8_3 1_555 1_555
N2_3 C18 1_555 1_555
N3_3 Fe2_2 1_555 1_555
N4_3 Fe2_2 1_555 1_555
N5_3 H1_3 1_555 1_555
N6_3 Fe2_2 1_555 1_555
C1_3 H2_3 1_555 1_555
C2_3 N9_2 1_555 1_555
H3_3 C2_3 1_555 1_555
C3_3 C1_3 1_555 1_555
H4_3 C3_3 1_555 1_555
C4_3 H5_3 1_555 1_555
N7_3 H6_3 1_555 1_555
C5_3 C4_3 1_555 1_555
H7_3 C5_3 1_555 1_555
C6_3 N5_3 1_555 1_555
C7_3 N5_3 1_555 1_555
C8_3 N7_3 1_555 1_555
C9_3 N6_3 1_555 1_555
C10_3 H8_3 1_555 1_555
C11_3 N3_3 1_555 1_555
C12_3 C2_3 1_555 1_555
H9_3 C12_3 1_555 1_555
C13_3 C10_3 1_555 1_555
H10_3 C13_3 1_555 1_555
C17 N4_3 1_555 1_555
N8_3 Fe2_2 1_555 1_555
C15_3 C4_3 1_555 1_555
C3_3 C6_3 1_555 1_555
N7_3 C15_3 1_555 1_555
C5_3 N8_3 1_555 1_555
C6_3 C12_3 1_555 1_555
C7_3 C8_3 1_555 1_555
C10_3 C15_3 1_555 1_555
C13_3 N8_3 1_555 1_555
N9 C1_4 1_555 1_555
O1_4 C7_4 1_555 1_555
O2_4 C8_4 1_555 1_555
N5_4 H1_4 1_555 1_555
C1_4 H2_4 1_555 1_555
C2_4 N9 1_555 1_555
H3_4 C2_4 1_555 1_555
C3_4 C1_4 1_555 1_555
H4_4 C3_4 1_555 1_555
C6_4 N5_4 1_555 1_555
C7_4 N5_4 1_555 1_555
C12_4 C2_4 1_555 1_555
H9_4 C12_4 1_555 1_555
C3_4 C6_4 1_555 1_555
C6_4 C12_4 1_555 1_555
C7_4 C8_4 1_555 1_555
Ag3_2 C11_4 1_555 1_555
Fe2 N2_4 1_555 1_555
N2_4 C18_2 1_555 1_555
N3_4 Fe2 1_555 1_555
N4_4 Fe2 1_555 1_555
N6_4 Fe2 1_555 1_555
C4_4 H5_4 1_555 1_555
C5_4 C4_4 1_555 1_555
H7_4 C5_4 1_555 1_555
C9_4 N6_4 1_555 1_555
C10_4 H8_4 1_555 1_555
C11_4 N3_4 1_555 1_555
C13_4 C10_4 1_555 1_555
H10_4 C13_4 1_555 1_555
C17_2 N4_4 1_555 1_555
N8_4 Fe2 1_555 1_555
C15_4 C4_4 1_555 1_555
N7_4 C15_4 1_555 1_555
C5_4 N8_4 1_555 1_555
C10_4 C15_4 1_555 1_555
C13_4 N8_4 1_555 1_555
Ag5 C21 1_555 1_555
Fe3 N10 1_555 1_555
N10 C21 1_555 1_555
N11 Fe3 1_555 1_555
O3 C23 1_555 1_555
C19 H11 1_555 1_555
C20 N11 1_555 1_555
H12 C20 1_555 1_555
C22 N11 1_555 1_555
H13 C22 1_555 1_555
N12 H14 1_555 1_555
C23 N16 1_555 1_555
N13 Fe3 1_555 1_555
N14 Fe3 1_555 1_555
N15 Fe3 1_555 1_555
O4 C27 1_555 1_555
C24 H15 1_555 1_555
C25 C19 1_555 1_555
N16 H16 1_555 1_555
C26 C24 1_555 1_555
C27 N12 1_555 1_555
C28 C22 1_555 1_555
H17 C28 1_555 1_555
C29 C26 1_555 1_555
H18 C29 1_555 1_555
C30 N14 1_555 1_555
C31 N15 1_555 1_555
C32 C24 1_555 1_555
H19 C32 1_555 1_555
C33 N13 1_555 1_555
N17 C32 1_555 1_555
C34 C29 1_555 1_555
H20 C34 1_555 1_555
Ag7 C31 1_555 1_555
Fe4 N17 1_555 1_555
C35 Ag5 1_555 1_555
N18 Fe3 1_555 1_555
C19 C20 1_555 1_555
N12 C25 1_555 1_555
C23 C27 1_555 1_555
C25 C28 1_555 1_555
N16 C26 1_555 1_555
N17 C34 1_555 1_555
C24_2 H15_2 1_555 1_555
C26_2 C24_2 1_555 1_555
C29_2 C26_2 1_555 1_555
H18_2 C29_2 1_555 1_555
C32_2 C24_2 1_555 1_555
H19_2 C32_2 1_555 1_555
N17_2 C32_2 1_555 1_555
C34_2 C29_2 1_555 1_555
H20_2 C34_2 1_555 1_555
Fe4_2 N17_2 1_555 1_555
N16_2 C26_2 1_555 1_555
N17_2 C34_2 1_555 1_555
Ag5_2 C21_2 1_555 1_555
Fe3_2 N10_2 1_555 1_555
N10_2 C21_2 1_555 1_555
N11_2 Fe3_2 1_555 1_555
O3_2 C23_2 1_555 1_555
C19_2 H11_2 1_555 1_555
C20_2 N11_2 1_555 1_555
H12_2 C20_2 1_555 1_555
C22_2 N11_2 1_555 1_555
H13_2 C22_2 1_555 1_555
N12_2 H14_2 1_555 1_555
N13_2 Fe3_2 1_555 1_555
N14_2 Fe3_2 1_555 1_555
N15_2 Fe3_2 1_555 1_555
O4_2 C27_2 1_555 1_555
C25_2 C19_2 1_555 1_555
C27_2 N12_2 1_555 1_555
C28_2 C22_2 1_555 1_555
H17_2 C28_2 1_555 1_555
C30_2 N14_2 1_555 1_555
C31_2 N15_2 1_555 1_555
C33_2 N13_2 1_555 1_555
Ag7_2 C31_2 1_555 1_555
C35_2 Ag5_2 1_555 1_555
N18_2 Fe3_2 1_555 1_555
C19_2 C20_2 1_555 1_555
N12_2 C25_2 1_555 1_555
C23_2 C27_2 1_555 1_555
C25_2 C28_2 1_555 1_555
Fe4_2 N10_3 1_555 1_555
N10_3 C21_3 1_555 1_555
N11_3 Fe4_2 1_555 1_555
O3_3 C23_3 1_555 1_555
C19_3 H11_3 1_555 1_555
C20_3 N11_3 1_555 1_555
H12_3 C20_3 1_555 1_555
C22_3 N11_3 1_555 1_555
H13_3 C22_3 1_555 1_555
N12_3 H14_3 1_555 1_555
C23_3 N16_3 1_555 1_555
N13_3 Fe4_2 1_555 1_555
N14_3 Fe4_2 1_555 1_555
N15_3 Fe4_2 1_555 1_555
O4_3 C27_3 1_555 1_555
C24_3 H15_3 1_555 1_555
C25_3 C19_3 1_555 1_555
N16_3 H16_3 1_555 1_555
C26_3 C24_3 1_555 1_555
C27_3 N12_3 1_555 1_555
C28_3 C22_3 1_555 1_555
H17_3 C28_3 1_555 1_555
C29_3 C26_3 1_555 1_555
H18_3 C29_3 1_555 1_555
C30_3 N14_3 1_555 1_555
C35 N15_3 1_555 1_555
C32_3 C24_3 1_555 1_555
H19_3 C32_3 1_555 1_555
C36 N13_3 1_555 1_555
N18_2 C32_3 1_555 1_555
C34_3 C29_3 1_555 1_555
H20_3 C34_3 1_555 1_555
Ag8 C30_3 1_555 1_555
C19_3 C20_3 1_555 1_555
N12_3 C25_3 1_555 1_555
C23_3 C27_3 1_555 1_555
C25_3 C28_3 1_555 1_555
N16_3 C26_3 1_555 1_555
N18_2 C34_3 1_555 1_555
C24_4 H15_4 1_555 1_555
C26_4 C24_4 1_555 1_555
C29_4 C26_4 1_555 1_555
H18_4 C29_4 1_555 1_555
C32_4 C24_4 1_555 1_555
H19_4 C32_4 1_555 1_555
N18 C32_4 1_555 1_555
C34_4 C29_4 1_555 1_555
H20_4 C34_4 1_555 1_555
N16_4 C26_4 1_555 1_555
N18 C34_4 1_555 1_555
Fe4 N10_4 1_555 1_555
N10_4 C21_4 1_555 1_555
N11_4 Fe4 1_555 1_555
O3_4 C23_4 1_555 1_555
C19_4 H11_4 1_555 1_555
C20_4 N11_4 1_555 1_555
H12_4 C20_4 1_555 1_555
C22_4 N11_4 1_555 1_555
H13_4 C22_4 1_555 1_555
N12_4 H14_4 1_555 1_555
N13_4 Fe4 1_555 1_555
N14_4 Fe4 1_555 1_555
N15_4 Fe4 1_555 1_555
O4_4 C27_4 1_555 1_555
C25_4 C19_4 1_555 1_555
C27_4 N12_4 1_555 1_555
C28_4 C22_4 1_555 1_555
H17_4 C28_4 1_555 1_555
C30_4 N14_4 1_555 1_555
C35_2 N15_4 1_555 1_555
C36_2 N13_4 1_555 1_555
Ag8_2 C30_4 1_555 1_555
C19_4 C20_4 1_555 1_555
N12_4 C25_4 1_555 1_555
C23_4 C27_4 1_555 1_555
C25_4 C28_4 1_555 1_555

#END
