
###############################################################################
#
# This file contains modified crystal structure data generated from the
# MOF subset of the Cambridge Structural Database (CSD) v543 
# hosted by the Cambridge Crystallographic Data Centre (CCDC).
#
# This work is licensed under the Creative Commons
# Attribution-NonCommercial-ShareAlike 4.0 International License.
# To view a copy of this license, visit
# http://creativecommons.org/licenses/by-nc-sa/4.0/
# or send a letter to
# Creative Commons, PO Box 1866, Mountain View, CA 94042, USA.
#
# CIF created using the CSD Python API on 29 September 2022
# The structure has been converted into the P1 space group
# The structure has a 3D framework
# The original CSD entry XAWZEE is in the triclinic crystal system
# The framework has been calculated to contain at least 10.0% void space
# The void calculation uses a probe of radius 1.32A, grid spacing 0.4
#
###############################################################################

data_XAWZEE
_chemical_formula_moiety         '(C28 H20 Ag4 Fe2 N16 O4)n'
_symmetry_cell_setting           triclinic
_symmetry_space_group_name_H-M   'P 1'
_symmetry_Int_Tables_number      1
_space_group_name_Hall           'P 1'
loop_
_symmetry_equiv_pos_site_id
_symmetry_equiv_pos_as_xyz
1 x,y,z
_cell_length_a                   10.2313(6)
_cell_length_b                   10.2643(5)
_cell_length_c                   15.6664(9)
_cell_angle_alpha                99.678(2)
_cell_angle_beta                 91.423(2)
_cell_angle_gamma                97.468(2)
_cell_volume                     1606.23
loop_
_atom_site_label
_atom_site_type_symbol
_atom_site_fract_x
_atom_site_fract_y
_atom_site_fract_z
Ag1 Ag 0.30962(4) 0.76977(4) 0.09227(2)
Ag2 Ag 0.78949(4) 0.26332(4) 0.09955(2)
Fe1 Fe 0.29113(6) 0.26984(6) 0.10270(4)
N1 N 0.0988(4) 0.2460(4) 0.0978(2)
N4 N 0.2930(4) 0.4597(4) 0.1051(2)
N5 N 0.4826(4) 0.2935(4) 0.1074(2)
N6 N 0.2955(4) 0.0805(4) 0.0966(2)
C6 C 0.2986(5) 0.5710(5) 0.1019(3)
C14 C 0.5949(5) 0.2918(5) 0.1068(3)
N9 N 0.2880(4) 0.2959(4) 0.2327(2)
C17 C 0.9880(5) 0.2435(5) 0.0985(3)
C18 C 0.3041(5) 0.9695(5) 0.0932(3)
N2 N 0.2907(4) 0.2438(4) 0.9732(2)
O1 O 0.2173(4) 0.1333(4) 0.5289(2)
N7 N 0.2564(4) 0.2064(4) 0.7012(2)
H1 H 0.218940 0.128240 0.673422
N8 N 0.2972(4) 0.3439(4) 0.5060(2)
H2 H 0.326168 0.424934 0.533410
O2 O 0.3466(5) 0.4146(4) 0.6789(2)
C1 C 0.3624(5) 0.3301(5) 0.9312(3)
H3 H 0.421558 0.399919 0.964899
C2 C 0.2284(5) 0.2002(5) 0.2734(3)
H4 H 0.184138 0.121396 0.238483
C4 C 0.3559(5) 0.3242(5) 0.8423(3)
H5 H 0.408300 0.388919 0.816430
C5 C 0.2721(5) 0.2225(5) 0.7919(3)
C7 C 0.2010(5) 0.1276(5) 0.8338(3)
H6 H 0.145461 0.053806 0.801092
C9 C 0.2891(5) 0.3243(5) 0.4148(3)
C10 C 0.2272(5) 0.2084(5) 0.3622(3)
H7 H 0.185036 0.136625 0.387054
C11 C 0.3463(5) 0.4077(5) 0.2847(3)
H8 H 0.389728 0.477122 0.258302
C12 C 0.3465(5) 0.4271(5) 0.3741(3)
H9 H 0.385259 0.509589 0.407524
C13 C 0.2125(5) 0.1423(5) 0.9228(3)
H10 H 0.162853 0.077537 0.950151
C15 C 0.2645(5) 0.2494(5) 0.5552(3)
C16 C 0.2944(5) 0.3017(5) 0.6527(3)
Ag4 Ag 0.69038(4) 0.23023(4) 0.90773(2)
Ag6 Ag 0.21051(4) 0.73668(4) 0.90045(2)
C3 C 0.0120(5) 0.7565(5) 0.9015(3)
C8 C 0.6959(5) 0.0305(5) 0.9068(3)
N2_2 N 0.7093(4) 0.7562(4) 0.0268(2)
N3 N 0.7120(4) 0.7041(4) 0.7673(2)
O1_2 O 0.7827(4) 0.8667(4) 0.4711(2)
N7_2 N 0.7436(4) 0.7936(4) 0.2988(2)
H1_2 H 0.781060 0.871760 0.326578
N8_2 N 0.7028(4) 0.6561(4) 0.4940(2)
H2_2 H 0.673832 0.575066 0.466590
O2_2 O 0.6534(5) 0.5854(4) 0.3211(2)
C1_2 C 0.6376(5) 0.6699(5) 0.0688(3)
H3_2 H 0.578442 0.600081 0.035101
C2_2 C 0.7716(5) 0.7998(5) 0.7266(3)
H4_2 H 0.815862 0.878604 0.761517
C4_2 C 0.6441(5) 0.6758(5) 0.1577(3)
H5_2 H 0.591700 0.611081 0.183570
C5_2 C 0.7279(5) 0.7775(5) 0.2081(3)
C7_2 C 0.7990(5) 0.8724(5) 0.1662(3)
H6_2 H 0.854539 0.946194 0.198908
C9_2 C 0.7109(5) 0.6757(5) 0.5852(3)
C10_2 C 0.7728(5) 0.7916(5) 0.6378(3)
H7_2 H 0.814964 0.863375 0.612946
C11_2 C 0.6537(5) 0.5923(5) 0.7153(3)
H8_2 H 0.610272 0.522878 0.741698
C12_2 C 0.6535(5) 0.5729(5) 0.6259(3)
H9_2 H 0.614741 0.490411 0.592476
C13_2 C 0.7875(5) 0.8577(5) 0.0772(3)
H10_2 H 0.837147 0.922463 0.049849
C15_2 C 0.7355(5) 0.7506(5) 0.4448(3)
C16_2 C 0.7056(5) 0.6983(5) 0.3473(3)
Fe2 Fe 0.70887(6) 0.73016(6) 0.89730(4)
N1_2 N 0.9012(4) 0.7540(4) 0.9022(2)
N4_2 N 0.7070(4) 0.5403(4) 0.8949(2)
N5_2 N 0.5174(4) 0.7065(4) 0.8926(2)
N6_2 N 0.7045(4) 0.9195(4) 0.9034(2)
C6_2 C 0.7014(5) 0.4290(5) 0.8981(3)
C14_2 C 0.4051(5) 0.7082(5) 0.8932(3)
loop_
_geom_bond_atom_site_label_1
_geom_bond_atom_site_label_2
_geom_bond_site_symmetry_1
_geom_bond_site_symmetry_2
Ag1 C6 1_555 1_555
Ag2 C14 1_555 1_555
Fe1 N1 1_555 1_555
N4 Fe1 1_555 1_555
N5 Fe1 1_555 1_555
N6 Fe1 1_555 1_555
C6 N4 1_555 1_555
C14 N5 1_555 1_555
N9 Fe1 1_555 1_555
C17 Ag2 1_555 1_555
C18 Ag1 1_555 1_555
N9 C2 1_555 1_555
O1 C15 1_555 1_555
N7 H1 1_555 1_555
N8 H2 1_555 1_555
O2 C16 1_555 1_555
C1 N2 1_555 1_555
H3 C1 1_555 1_555
C2 H4 1_555 1_555
C4 C1 1_555 1_555
H5 C4 1_555 1_555
C5 N7 1_555 1_555
C7 C5 1_555 1_555
H6 C7 1_555 1_555
C9 N8 1_555 1_555
C10 C2 1_555 1_555
H7 C10 1_555 1_555
C11 N9 1_555 1_555
H8 C11 1_555 1_555
C12 C9 1_555 1_555
H9 C12 1_555 1_555
C13 N2 1_555 1_555
H10 C13 1_555 1_555
C15 N8 1_555 1_555
C16 N7 1_555 1_555
C4 C5 1_555 1_555
C7 C13 1_555 1_555
C9 C10 1_555 1_555
C11 C12 1_555 1_555
C15 C16 1_555 1_555
C3 Ag6 1_555 1_555
Ag4 C8 1_555 1_555
N3 C2_2 1_555 1_555
O1_2 C15_2 1_555 1_555
N7_2 H1_2 1_555 1_555
N8_2 H2_2 1_555 1_555
O2_2 C16_2 1_555 1_555
C1_2 N2_2 1_555 1_555
H3_2 C1_2 1_555 1_555
C2_2 H4_2 1_555 1_555
C4_2 C1_2 1_555 1_555
H5_2 C4_2 1_555 1_555
C5_2 N7_2 1_555 1_555
C7_2 C5_2 1_555 1_555
H6_2 C7_2 1_555 1_555
C9_2 N8_2 1_555 1_555
C10_2 C2_2 1_555 1_555
H7_2 C10_2 1_555 1_555
C11_2 N3 1_555 1_555
H8_2 C11_2 1_555 1_555
C12_2 C9_2 1_555 1_555
H9_2 C12_2 1_555 1_555
C13_2 N2_2 1_555 1_555
H10_2 C13_2 1_555 1_555
C15_2 N8_2 1_555 1_555
C16_2 N7_2 1_555 1_555
Fe2 N3 1_555 1_555
C4_2 C5_2 1_555 1_555
C7_2 C13_2 1_555 1_555
C9_2 C10_2 1_555 1_555
C11_2 C12_2 1_555 1_555
C15_2 C16_2 1_555 1_555
Ag4 C6_2 1_555 1_555
Ag6 C14_2 1_555 1_555
Fe2 N1_2 1_555 1_555
N4_2 Fe2 1_555 1_555
N5_2 Fe2 1_555 1_555
N6_2 Fe2 1_555 1_555
C6_2 N4_2 1_555 1_555
C14_2 N5_2 1_555 1_555

#END
