
###############################################################################
#
# This file contains modified crystal structure data generated from the
# MOF subset of the Cambridge Structural Database (CSD) v543 
# hosted by the Cambridge Crystallographic Data Centre (CCDC).
#
# This work is licensed under the Creative Commons
# Attribution-NonCommercial-ShareAlike 4.0 International License.
# To view a copy of this license, visit
# http://creativecommons.org/licenses/by-nc-sa/4.0/
# or send a letter to
# Creative Commons, PO Box 1866, Mountain View, CA 94042, USA.
#
# CIF created using the CSD Python API on 29 September 2022
# The structure has been converted into the P1 space group
# The structure has a 3D framework
# The original CSD entry XAYKUG is in the orthorhombic crystal system
# The framework has been calculated to contain at least 10.0% void space
# The void calculation uses a probe of radius 1.32A, grid spacing 0.4
#
###############################################################################

data_XAYKUG
_chemical_formula_moiety         '(C96 H64 Cu8 N16 O32)n'
_symmetry_cell_setting           triclinic
_symmetry_space_group_name_H-M   'P 1'
_symmetry_Int_Tables_number      1
_space_group_name_Hall           'P 1'
loop_
_symmetry_equiv_pos_site_id
_symmetry_equiv_pos_as_xyz
1 x,y,z
_cell_length_a                   12.678(5)
_cell_length_b                   14.408(5)
_cell_length_c                   20.225(7)
_cell_angle_alpha                90
_cell_angle_beta                 90
_cell_angle_gamma                90
_cell_volume                     3694.39
loop_
_atom_site_label
_atom_site_type_symbol
_atom_site_fract_x
_atom_site_fract_y
_atom_site_fract_z
C1 C 0.3859(9) 0.5167(7) 0.3026(5)
C2 C 0.3199(9) 0.4475(8) 0.3386(5)
C3 C 0.2509(9) 0.3874(6) 0.3033(5)
H1 H 0.2467 0.3905 0.2574
C4 C 0.1918(9) 0.3261(8) 0.3371(5)
C5 C 0.1964(9) 0.3205(9) 0.4070(5)
H2 H 0.1542 0.2786 0.4299
C6 C 0.2631(10) 0.3770(7) 0.4396(5)
C7 C 0.3215(9) 0.4416(8) 0.4071(5)
H3 H 0.3632 0.4826 0.4312
C8 C 0.3597(9) 0.3640(8) 0.5473(5)
C9 C 0.4697(10) 0.3595(10) 0.5201(6)
H4 H 0.4933 0.4210 0.5094
H5 H 0.4702 0.3218 0.4810
H6 H 0.5159 0.3328 0.5526
C10 C 0.2272(9) 0.3657(8) 0.6147(6)
H7 H 0.1884 0.3634 0.6537
C11 C 0.1848(10) 0.3743(8) 0.5536(6)
H8 H 0.1140 0.3813 0.5428
C12 C 0.1173(9) 0.2597(7) 0.3016(5)
Cu1 Cu 0.43604(9) 0.63946(8) 0.19638(5)
N1 N 0.2703(7) 0.3703(6) 0.5103(4)
N2 N 0.3353(6) 0.3608(6) 0.6113(4)
O1 O 0.3563(5) 0.5447(5) 0.2468(3)
O2 O 0.4664(6) 0.5423(5) 0.3341(3)
O3 O 0.0402(6) 0.2319(5) 0.3342(3)
O4 O 0.1424(5) 0.2386(5) 0.2441(3)
Cu2 Cu 0.56396(9) 0.63946(8) 0.30362(5)
Cu4 Cu 0.06396(9) 0.13946(8) 0.19638(5)
Cu5 Cu 0.43604(9) 0.36054(8) 0.69638(5)
N3 N 0.3353(6) 0.6392(6) 0.1113(4)
O5 O 0.5336(6) 0.5423(5) 0.1659(3)
O6 O 0.5402(6) 0.7319(5) 0.1658(3)
O7 O 0.3576(5) 0.7386(5) 0.2441(3)
Cu3 Cu 0.93604(9) 0.13946(8) 0.30362(5)
C8_2 C 0.1403(9) 0.1360(8) 0.0473(5)
C9_2 C 0.0303(10) 0.1405(10) 0.0201(6)
H4_2 H 0.0067 0.0790 0.0094
C10_2 C 0.2728(9) 0.1343(8) 0.1147(6)
H7_2 H 0.3116 0.1366 0.1537
C11_2 C 0.3152(10) 0.1257(8) 0.0536(6)
H8_2 H 0.3860 0.1187 0.0428
N1_2 N 0.2297(7) 0.1297(6) 0.0103(4)
N2_2 N 0.1647(6) 0.1392(6) 0.1113(4)
C2_2 C 0.1801(9) 0.0525(8) 0.8386(5)
C3_2 C 0.2491(9) 0.1126(6) 0.8033(5)
H1_2 H 0.2533 0.1095 0.7574
C4_2 C 0.3082(9) 0.1739(8) 0.8371(5)
C5_2 C 0.3036(9) 0.1795(9) 0.9070(5)
H2_2 H 0.3458 0.2214 0.9299
C6_2 C 0.2369(10) 0.1230(7) 0.9396(5)
C7_2 C 0.1785(9) 0.0584(8) 0.9071(5)
H3_2 H 0.1368 0.0174 0.9312
H5_2 H 0.0298 0.1782 0.9810
C12_2 C 0.3827(9) 0.2403(7) 0.8016(5)
O3_2 O 0.4598(6) 0.2681(5) 0.8342(3)
O4_2 O 0.3576(5) 0.2614(5) 0.7441(3)
Cu3_2 Cu 0.56396(9) 0.36054(8) 0.80362(5)
C1_2 C 0.1141(9) 0.9833(7) 0.8026(5)
Cu1_2 Cu 0.06396(9) 0.86054(8) 0.69638(5)
O1_2 O 0.1437(5) 0.9553(5) 0.7468(3)
O2_2 O 0.0336(6) 0.9577(5) 0.8341(3)
N3_2 N 0.1647(6) 0.8608(6) 0.6113(4)
O7_2 O 0.1424(5) 0.7614(5) 0.7441(3)
Cu2_2 Cu 0.93604(9) 0.86054(8) 0.80362(5)
O5_2 O 0.9664(6) 0.9577(5) 0.6659(3)
O6_2 O 0.9598(6) 0.7681(5) 0.6658(3)
O6_3 O 0.0402(6) 0.7681(5) 0.8342(3)
C2_3 C 0.8199(9) 0.0525(8) 0.6614(5)
C3_3 C 0.7509(9) 0.1126(6) 0.6967(5)
H1_3 H 0.7467 0.1095 0.7426
C4_3 C 0.6918(9) 0.1739(8) 0.6629(5)
C5_3 C 0.6964(9) 0.1795(9) 0.5930(5)
H2_3 H 0.6542 0.2214 0.5701
C6_3 C 0.7631(10) 0.1230(7) 0.5604(5)
C7_3 C 0.8215(9) 0.0584(8) 0.5929(5)
H3_3 H 0.8632 0.0174 0.5688
C8_3 C 0.8597(9) 0.1360(8) 0.4527(5)
C9_3 C 0.9697(10) 0.1405(10) 0.4799(6)
H4_3 H 0.9933 0.0790 0.4906
H5_3 H 0.9702 0.1782 0.5190
C10_3 C 0.7272(9) 0.1343(8) 0.3853(6)
H7_3 H 0.6884 0.1366 0.3463
C11_3 C 0.6848(10) 0.1257(8) 0.4464(6)
H8_3 H 0.6140 0.1187 0.4572
C12_3 C 0.6173(9) 0.2403(7) 0.6984(5)
N1_3 N 0.7703(7) 0.1297(6) 0.4897(4)
N2_3 N 0.8353(6) 0.1392(6) 0.3887(4)
O3_3 O 0.5402(6) 0.2681(5) 0.6658(3)
O4_3 O 0.6424(5) 0.2614(5) 0.7559(3)
C1_3 C 0.8859(9) 0.9833(7) 0.6974(5)
O1_3 O 0.8563(5) 0.9553(5) 0.7532(3)
N3_3 N 0.8353(6) 0.8608(6) 0.8887(4)
O7_3 O 0.8576(5) 0.7614(5) 0.7559(3)
C1_4 C 0.6141(9) 0.5167(7) 0.1974(5)
C2_4 C 0.6801(9) 0.4475(8) 0.1614(5)
C3_4 C 0.7491(9) 0.3874(6) 0.1967(5)
H1_4 H 0.7533 0.3905 0.2426
C4_4 C 0.8082(9) 0.3261(8) 0.1629(5)
C5_4 C 0.8036(9) 0.3205(9) 0.0930(5)
H2_4 H 0.8458 0.2786 0.0701
C6_4 C 0.7369(10) 0.3770(7) 0.0604(5)
C7_4 C 0.6785(9) 0.4416(8) 0.0929(5)
H3_4 H 0.6368 0.4826 0.0688
H5_4 H 0.5298 0.3218 0.0190
C12_4 C 0.8827(9) 0.2597(7) 0.1984(5)
O1_4 O 0.6437(5) 0.5447(5) 0.2532(3)
O3_4 O 0.9598(6) 0.2319(5) 0.1658(3)
O4_4 O 0.8576(5) 0.2386(5) 0.2559(3)
N3_4 N 0.6647(6) 0.6392(6) 0.3887(4)
O6_4 O 0.4598(6) 0.7319(5) 0.3342(3)
O7_4 O 0.6424(5) 0.7386(5) 0.2559(3)
C8_4 C 0.6403(9) 0.3640(8) 0.9527(5)
C9_4 C 0.5303(10) 0.3595(10) 0.9799(6)
H4_4 H 0.5067 0.4210 0.9906
H6_2 H 0.4841 0.3328 0.9474
C10_4 C 0.7728(9) 0.3657(8) 0.8853(6)
H7_4 H 0.8116 0.3634 0.8463
C11_4 C 0.8152(10) 0.3743(8) 0.9464(6)
H8_4 H 0.8860 0.3813 0.9572
N1_4 N 0.7297(7) 0.3703(6) 0.9897(4)
N2_4 N 0.6647(6) 0.3608(6) 0.8887(4)
C1_5 C 0.6141(9) 0.4833(7) 0.6974(5)
C2_5 C 0.6801(9) 0.5525(8) 0.6614(5)
C3_5 C 0.7491(9) 0.6126(6) 0.6967(5)
H1_5 H 0.7533 0.6095 0.7426
C4_5 C 0.8082(9) 0.6739(8) 0.6629(5)
C5_5 C 0.8036(9) 0.6795(9) 0.5930(5)
H2_5 H 0.8458 0.7214 0.5701
C6_5 C 0.7369(10) 0.6230(7) 0.5604(5)
C7_5 C 0.6785(9) 0.5584(8) 0.5929(5)
H3_5 H 0.6368 0.5174 0.5688
C8_5 C 0.6403(9) 0.6360(8) 0.4527(5)
C9_5 C 0.5303(10) 0.6405(10) 0.4799(6)
H4_5 H 0.5067 0.5790 0.4906
H5_5 H 0.5298 0.6782 0.5190
H6_3 H 0.4841 0.6672 0.4474
C10_5 C 0.7728(9) 0.6343(8) 0.3853(6)
H7_5 H 0.8116 0.6366 0.3463
C11_5 C 0.8152(10) 0.6257(8) 0.4464(6)
H8_5 H 0.8860 0.6187 0.4572
C12_5 C 0.8827(9) 0.7403(7) 0.6984(5)
N1_5 N 0.7297(7) 0.6297(6) 0.4897(4)
O1_5 O 0.6437(5) 0.4553(5) 0.7532(3)
O2_3 O 0.5336(6) 0.4577(5) 0.6659(3)
O5_3 O 0.4664(6) 0.4577(5) 0.8341(3)
O5_4 O 0.0336(6) 0.0423(5) 0.3341(3)
C1_6 C 0.8859(9) 0.0167(7) 0.1974(5)
O1_6 O 0.8563(5) 0.0447(5) 0.2532(3)
O2_4 O 0.9664(6) 0.0423(5) 0.1659(3)
C2_6 C 0.8199(9) 0.9475(8) 0.1614(5)
C3_6 C 0.7509(9) 0.8874(6) 0.1967(5)
H1_6 H 0.7467 0.8905 0.2426
C4_6 C 0.6918(9) 0.8261(8) 0.1629(5)
C5_6 C 0.6964(9) 0.8205(9) 0.0930(5)
H2_6 H 0.6542 0.7786 0.0701
C6_6 C 0.7631(10) 0.8770(7) 0.0604(5)
C7_6 C 0.8215(9) 0.9416(8) 0.0929(5)
H3_6 H 0.8632 0.9826 0.0688
H5_6 H 0.9702 0.8218 0.0190
C12_6 C 0.6173(9) 0.7597(7) 0.1984(5)
C8_6 C 0.8597(9) 0.8640(8) 0.9527(5)
C9_6 C 0.9697(10) 0.8595(10) 0.9799(6)
H4_6 H 0.9933 0.9210 0.9906
C10_6 C 0.7272(9) 0.8657(8) 0.8853(6)
H7_6 H 0.6884 0.8634 0.8463
C11_6 C 0.6848(10) 0.8743(8) 0.9464(6)
H8_6 H 0.6140 0.8813 0.9572
N1_6 N 0.7703(7) 0.8703(6) 0.9897(4)
C1_7 C 0.1141(9) 0.0167(7) 0.3026(5)
O1_7 O 0.1437(5) 0.0447(5) 0.2468(3)
C2_7 C 0.1801(9) 0.9475(8) 0.3386(5)
C3_7 C 0.2491(9) 0.8874(6) 0.3033(5)
H1_7 H 0.2533 0.8905 0.2574
C4_7 C 0.3082(9) 0.8261(8) 0.3371(5)
C5_7 C 0.3036(9) 0.8205(9) 0.4070(5)
H2_7 H 0.3458 0.7786 0.4299
C6_7 C 0.2369(10) 0.8770(7) 0.4396(5)
C7_7 C 0.1785(9) 0.9416(8) 0.4071(5)
H3_7 H 0.1368 0.9826 0.4312
C8_7 C 0.1403(9) 0.8640(8) 0.5473(5)
C9_7 C 0.0303(10) 0.8595(10) 0.5201(6)
H4_7 H 0.0067 0.9210 0.5094
H5_7 H 0.0298 0.8218 0.4810
C10_7 C 0.2728(9) 0.8657(8) 0.6147(6)
H7_7 H 0.3116 0.8634 0.6537
C11_7 C 0.3152(10) 0.8743(8) 0.5536(6)
H8_7 H 0.3860 0.8813 0.5428
C12_7 C 0.3827(9) 0.7597(7) 0.3016(5)
N1_7 N 0.2297(7) 0.8703(6) 0.5103(4)
C8_8 C 0.3597(9) 0.6360(8) 0.0473(5)
C9_8 C 0.4697(10) 0.6405(10) 0.0201(6)
H4_8 H 0.4933 0.5790 0.0094
H6_4 H 0.5159 0.6672 0.0526
C10_8 C 0.2272(9) 0.6343(8) 0.1147(6)
H7_8 H 0.1884 0.6366 0.1537
C11_8 C 0.1848(10) 0.6257(8) 0.0536(6)
H8_8 H 0.1140 0.6187 0.0428
N1_8 N 0.2703(7) 0.6297(6) 0.0103(4)
C1_8 C 0.3859(9) 0.4833(7) 0.8026(5)
C2_8 C 0.3199(9) 0.5525(8) 0.8386(5)
C3_8 C 0.2509(9) 0.6126(6) 0.8033(5)
H1_8 H 0.2467 0.6095 0.7574
C4_8 C 0.1918(9) 0.6739(8) 0.8371(5)
C5_8 C 0.1964(9) 0.6795(9) 0.9070(5)
H2_8 H 0.1542 0.7214 0.9299
C6_8 C 0.2631(10) 0.6230(7) 0.9396(5)
C7_8 C 0.3215(9) 0.5584(8) 0.9071(5)
H3_8 H 0.3632 0.5174 0.9312
H5_8 H 0.4702 0.6782 0.9810
C12_8 C 0.1173(9) 0.7403(7) 0.8016(5)
O1_8 O 0.3563(5) 0.4553(5) 0.7468(3)
H6_5 H 0.9841 0.1672 0.0526
H6_6 H 0.0159 0.1672 0.4474
H6_7 H 0.0159 0.8328 0.9474
H6_8 H 0.9841 0.8328 0.5526
loop_
_geom_bond_atom_site_label_1
_geom_bond_atom_site_label_2
_geom_bond_site_symmetry_1
_geom_bond_site_symmetry_2
C1 C2 1_555 1_555
C2 C3 1_555 1_555
C3 H1 1_555 1_555
C4 C3 1_555 1_555
C5 C4 1_555 1_555
H2 C5 1_555 1_555
C6 C5 1_555 1_555
C7 C2 1_555 1_555
H3 C7 1_555 1_555
C8 C9 1_555 1_555
C9 H4 1_555 1_555
H5 C9 1_555 1_555
H6 C9 1_555 1_555
C10 H7 1_555 1_555
C11 C10 1_555 1_555
H8 C11 1_555 1_555
C12 C4 1_555 1_555
Cu1 O1 1_555 1_555
N1 C6 1_555 1_555
N2 C8 1_555 1_555
O1 C1 1_555 1_555
O2 C1 1_555 1_555
O3 C12 1_555 1_555
O4 C12 1_555 1_555
Cu2 Cu1 1_555 1_555
Cu4 O4 1_555 1_555
Cu5 N2 1_555 1_555
N3 Cu1 1_555 1_555
O5 Cu1 1_555 1_555
O6 Cu1 1_555 1_555
O7 Cu1 1_555 1_555
C6 C7 1_555 1_555
C8 N1 1_555 1_555
C10 N2 1_555 1_555
C11 N1 1_555 1_555
O2 Cu2 1_555 1_555
C8_2 C9_2 1_555 1_555
C9_2 H4_2 1_555 1_555
C10_2 H7_2 1_555 1_555
C11_2 C10_2 1_555 1_555
H8_2 C11_2 1_555 1_555
N2_2 C8_2 1_555 1_555
Cu4 N2_2 1_555 1_555
C8_2 N1_2 1_555 1_555
C10_2 N2_2 1_555 1_555
C11_2 N1_2 1_555 1_555
C2_2 C3_2 1_555 1_555
C3_2 H1_2 1_555 1_555
C4_2 C3_2 1_555 1_555
C5_2 C4_2 1_555 1_555
H2_2 C5_2 1_555 1_555
C6_2 C5_2 1_555 1_555
C7_2 C2_2 1_555 1_555
H3_2 C7_2 1_555 1_555
C12_2 C4_2 1_555 1_555
O3_2 C12_2 1_555 1_555
O4_2 C12_2 1_555 1_555
Cu3_2 O3_2 1_555 1_555
Cu5 O4_2 1_555 1_555
C6_2 C7_2 1_555 1_555
Cu3_2 Cu5 1_555 1_555
Cu1_2 O1_2 1_555 1_555
O1_2 C1_2 1_555 1_555
O2_2 C1_2 1_555 1_555
N3_2 Cu1_2 1_555 1_555
O7_2 Cu1_2 1_555 1_555
C2_3 C3_3 1_555 1_555
C3_3 H1_3 1_555 1_555
C4_3 C3_3 1_555 1_555
C5_3 C4_3 1_555 1_555
H2_3 C5_3 1_555 1_555
C6_3 C5_3 1_555 1_555
C7_3 C2_3 1_555 1_555
H3_3 C7_3 1_555 1_555
C8_3 C9_3 1_555 1_555
C9_3 H4_3 1_555 1_555
H5_3 C9_3 1_555 1_555
C10_3 H7_3 1_555 1_555
C11_3 C10_3 1_555 1_555
H8_3 C11_3 1_555 1_555
C12_3 C4_3 1_555 1_555
N1_3 C6_3 1_555 1_555
N2_3 C8_3 1_555 1_555
O3_3 C12_3 1_555 1_555
O4_3 C12_3 1_555 1_555
Cu5 O3_3 1_555 1_555
Cu3_2 O4_3 1_555 1_555
Cu3 N2_3 1_555 1_555
C6_3 C7_3 1_555 1_555
C8_3 N1_3 1_555 1_555
C10_3 N2_3 1_555 1_555
C11_3 N1_3 1_555 1_555
Cu2_2 O1_3 1_555 1_555
O1_3 C1_3 1_555 1_555
O5_2 C1_3 1_555 1_555
N3_3 Cu2_2 1_555 1_555
O7_3 Cu2_2 1_555 1_555
C1_4 C2_4 1_555 1_555
C2_4 C3_4 1_555 1_555
C3_4 H1_4 1_555 1_555
C4_4 C3_4 1_555 1_555
C5_4 C4_4 1_555 1_555
H2_4 C5_4 1_555 1_555
C6_4 C5_4 1_555 1_555
C7_4 C2_4 1_555 1_555
H3_4 C7_4 1_555 1_555
C12_4 C4_4 1_555 1_555
Cu2 O1_4 1_555 1_555
O1_4 C1_4 1_555 1_555
O5 C1_4 1_555 1_555
O3_4 C12_4 1_555 1_555
O4_4 C12_4 1_555 1_555
Cu3 O4_4 1_555 1_555
N3_4 Cu2 1_555 1_555
O6_4 Cu2 1_555 1_555
O7_4 Cu2 1_555 1_555
C6_4 C7_4 1_555 1_555
C8_4 C9_4 1_555 1_555
C9_4 H4_4 1_555 1_555
H6_2 C9_4 1_555 1_555
C10_4 H7_4 1_555 1_555
C11_4 C10_4 1_555 1_555
H8_4 C11_4 1_555 1_555
N2_4 C8_4 1_555 1_555
Cu3_2 N2_4 1_555 1_555
C8_4 N1_4 1_555 1_555
C10_4 N2_4 1_555 1_555
C11_4 N1_4 1_555 1_555
C1_5 C2_5 1_555 1_555
C2_5 C3_5 1_555 1_555
C3_5 H1_5 1_555 1_555
C4_5 C3_5 1_555 1_555
C5_5 C4_5 1_555 1_555
H2_5 C5_5 1_555 1_555
C6_5 C5_5 1_555 1_555
C7_5 C2_5 1_555 1_555
H3_5 C7_5 1_555 1_555
C8_5 C9_5 1_555 1_555
C9_5 H4_5 1_555 1_555
H5_5 C9_5 1_555 1_555
H6_3 C9_5 1_555 1_555
C10_5 H7_5 1_555 1_555
C11_5 C10_5 1_555 1_555
H8_5 C11_5 1_555 1_555
C12_5 C4_5 1_555 1_555
Cu3_2 O1_5 1_555 1_555
N1_5 C6_5 1_555 1_555
N3_4 C8_5 1_555 1_555
O1_5 C1_5 1_555 1_555
O2_3 C1_5 1_555 1_555
O6_2 C12_5 1_555 1_555
O7_3 C12_5 1_555 1_555
O5_3 Cu3_2 1_555 1_555
C6_5 C7_5 1_555 1_555
C8_5 N1_5 1_555 1_555
C10_5 N3_4 1_555 1_555
C11_5 N1_5 1_555 1_555
O2_3 Cu5 1_555 1_555
Cu3 O1_6 1_555 1_555
O1_6 C1_6 1_555 1_555
O2_4 C1_6 1_555 1_555
C2_6 C3_6 1_555 1_555
C3_6 H1_6 1_555 1_555
C4_6 C3_6 1_555 1_555
C5_6 C4_6 1_555 1_555
H2_6 C5_6 1_555 1_555
C6_6 C5_6 1_555 1_555
C7_6 C2_6 1_555 1_555
H3_6 C7_6 1_555 1_555
C12_6 C4_6 1_555 1_555
O6 C12_6 1_555 1_555
O7_4 C12_6 1_555 1_555
C6_6 C7_6 1_555 1_555
C8_6 C9_6 1_555 1_555
C9_6 H4_6 1_555 1_555
C10_6 H7_6 1_555 1_555
C11_6 C10_6 1_555 1_555
H8_6 C11_6 1_555 1_555
N3_3 C8_6 1_555 1_555
C8_6 N1_6 1_555 1_555
C10_6 N3_3 1_555 1_555
C11_6 N1_6 1_555 1_555
Cu4 O1_7 1_555 1_555
O1_7 C1_7 1_555 1_555
O5_4 C1_7 1_555 1_555
C2_7 C3_7 1_555 1_555
C3_7 H1_7 1_555 1_555
C4_7 C3_7 1_555 1_555
C5_7 C4_7 1_555 1_555
H2_7 C5_7 1_555 1_555
C6_7 C5_7 1_555 1_555
C7_7 C2_7 1_555 1_555
H3_7 C7_7 1_555 1_555
C8_7 C9_7 1_555 1_555
C9_7 H4_7 1_555 1_555
H5_7 C9_7 1_555 1_555
C10_7 H7_7 1_555 1_555
C11_7 C10_7 1_555 1_555
H8_7 C11_7 1_555 1_555
C12_7 C4_7 1_555 1_555
N1_7 C6_7 1_555 1_555
N3_2 C8_7 1_555 1_555
O6_4 C12_7 1_555 1_555
O7 C12_7 1_555 1_555
C6_7 C7_7 1_555 1_555
C8_7 N1_7 1_555 1_555
C10_7 N3_2 1_555 1_555
C11_7 N1_7 1_555 1_555
C8_8 C9_8 1_555 1_555
C9_8 H4_8 1_555 1_555
H6_4 C9_8 1_555 1_555
C10_8 H7_8 1_555 1_555
C11_8 C10_8 1_555 1_555
H8_8 C11_8 1_555 1_555
N3 C8_8 1_555 1_555
C8_8 N1_8 1_555 1_555
C10_8 N3 1_555 1_555
C11_8 N1_8 1_555 1_555
C1_8 C2_8 1_555 1_555
C2_8 C3_8 1_555 1_555
C3_8 H1_8 1_555 1_555
C4_8 C3_8 1_555 1_555
C5_8 C4_8 1_555 1_555
H2_8 C5_8 1_555 1_555
C6_8 C5_8 1_555 1_555
C7_8 C2_8 1_555 1_555
H3_8 C7_8 1_555 1_555
C12_8 C4_8 1_555 1_555
Cu5 O1_8 1_555 1_555
O1_8 C1_8 1_555 1_555
O5_3 C1_8 1_555 1_555
O6_3 C12_8 1_555 1_555
O7_2 C12_8 1_555 1_555
C6_8 C7_8 1_555 1_555

#END
