
###############################################################################
#
# This file contains modified crystal structure data generated from the
# MOF subset of the Cambridge Structural Database (CSD) v543 
# hosted by the Cambridge Crystallographic Data Centre (CCDC).
#
# This work is licensed under the Creative Commons
# Attribution-NonCommercial-ShareAlike 4.0 International License.
# To view a copy of this license, visit
# http://creativecommons.org/licenses/by-nc-sa/4.0/
# or send a letter to
# Creative Commons, PO Box 1866, Mountain View, CA 94042, USA.
#
# CIF created using the CSD Python API on 29 September 2022
# The structure has been converted into the P1 space group
# The structure has a 3D framework
# The original CSD entry XAYKOA is in the monoclinic crystal system
# The framework has been calculated to contain at least 10.0% void space
# The void calculation uses a probe of radius 1.32A, grid spacing 0.4
#
###############################################################################

data_XAYKOA
_chemical_formula_moiety         '(C44 H24 Cu4 N8 O16)n'
_symmetry_cell_setting           triclinic
_symmetry_space_group_name_H-M   'P 1'
_symmetry_Int_Tables_number      1
_space_group_name_Hall           'P 1'
loop_
_symmetry_equiv_pos_site_id
_symmetry_equiv_pos_as_xyz
1 x,y,z
_cell_length_a                   10.830(7)
_cell_length_b                   11.889(8)
_cell_length_c                   14.559(9)
_cell_angle_alpha                90
_cell_angle_beta                 109.594(8)
_cell_angle_gamma                90
_cell_volume                     1766.03
loop_
_atom_site_label
_atom_site_type_symbol
_atom_site_fract_x
_atom_site_fract_y
_atom_site_fract_z
C9 C 0.1154(10) 0.3381(9) 0.8946(10)
H4 H 0.0899 0.4123 0.8786
C10 C 0.1136(8) 0.1563(7) 0.9073(7)
H5 H 0.0862 0.0817 0.9034
C11 C 0.2385(9) 0.3028(8) 0.9314(10)
H6 H 0.3126 0.3483 0.9505
N1 N 0.0311(7) 0.2486(5) 0.8839(7)
N2 N 0.2377(7) 0.1899(6) 0.9362(6)
Cu2 Cu 0.40048(9) 0.07457(8) 0.97527(8)
O6 O 0.5062(6) 0.1505(6) 0.0962(6)
C1 C 0.6202(9) 0.3862(8) 0.6495(7)
C2 C 0.6903(9) 0.3144(8) 0.7337(8)
C3 C 0.6266(9) 0.2488(6) 0.7824(7)
H1 H 0.5356 0.2508 0.7630
C4 C 0.6936(9) 0.1823(8) 0.8573(8)
C5 C 0.8261(9) 0.1798(8) 0.8899(8)
H2 H 0.8711 0.1319 0.9406
C6 C 0.8932(8) 0.2483(6) 0.8479(8)
C7 C 0.8283(10) 0.3167(8) 0.7679(9)
H3 H 0.8745 0.3618 0.7385
C8 C 0.6165(9) 0.1104(8) 0.9092(7)
O1 O 0.6741(7) 0.4722(6) 0.6356(6)
O2 O 0.5062(6) 0.3495(6) 0.5962(6)
O3 O 0.5115(6) 0.1445(6) 0.9050(5)
O4 O 0.6755(7) 0.0240(6) 0.9499(5)
Cu3 Cu 0.59952(9) 0.57457(8) 0.52473(8)
Cu5 Cu 0.40048(9) 0.42543(8) 0.47527(8)
Cu4 Cu 0.59952(9) 0.92543(8) 0.02473(8)
O7 O 0.3245(7) 0.9760(6) 0.0501(5)
O5 O 0.3259(7) 0.9722(6) 0.8644(6)
C1_2 C 0.3798(9) 0.8862(8) 0.8505(7)
C2_2 C 0.3097(9) 0.8144(8) 0.7663(8)
C3_2 C 0.3734(9) 0.7488(6) 0.7176(7)
H1_2 H 0.4644 0.7508 0.7370
C4_2 C 0.3064(9) 0.6823(8) 0.6427(8)
C5_2 C 0.1739(9) 0.6798(8) 0.6101(8)
H2_2 H 0.1289 0.6319 0.5594
C6_2 C 0.1068(8) 0.7483(6) 0.6521(8)
C7_2 C 0.1717(10) 0.8167(8) 0.7321(9)
H3_2 H 0.1255 0.8618 0.7615
C8_2 C 0.3835(9) 0.6104(8) 0.5908(7)
O2_2 O 0.4938(6) 0.8495(6) 0.9038(6)
O3_2 O 0.4885(6) 0.6445(6) 0.5950(5)
O4_2 O 0.3245(7) 0.5240(6) 0.5501(5)
N3 N 0.7623(7) 0.6899(6) 0.5638(6)
O6_2 O 0.4938(6) 0.6505(6) 0.4038(6)
O7_2 O 0.6755(7) 0.4760(6) 0.4499(5)
C9_2 C 0.8846(10) 0.8381(9) 0.6054(10)
H4_2 H 0.9101 0.9123 0.6214
C10_2 C 0.8864(8) 0.6563(7) 0.5927(7)
H5_2 H 0.9138 0.5817 0.5966
C11_2 C 0.7615(9) 0.8028(8) 0.5686(10)
H6_2 H 0.6874 0.8483 0.5495
N1_2 N 0.9689(7) 0.7486(5) 0.6161(7)
O5_2 O 0.6741(7) 0.0278(6) 0.1356(6)
C1_3 C 0.3798(9) 0.6138(8) 0.3505(7)
C2_3 C 0.3097(9) 0.6856(8) 0.2663(8)
C3_3 C 0.3734(9) 0.7512(6) 0.2176(7)
H1_3 H 0.4644 0.7492 0.2370
C4_3 C 0.3064(9) 0.8177(8) 0.1427(8)
C5_3 C 0.1739(9) 0.8202(8) 0.1101(8)
H2_3 H 0.1289 0.8681 0.0594
C6_3 C 0.1068(8) 0.7517(6) 0.1521(8)
C7_3 C 0.1717(10) 0.6833(8) 0.2321(9)
H3_3 H 0.1255 0.6382 0.2615
C8_3 C 0.3835(9) 0.8896(8) 0.0908(7)
O1_2 O 0.3259(7) 0.5278(6) 0.3644(6)
O3_3 O 0.4885(6) 0.8555(6) 0.0950(5)
N3_2 N 0.7623(7) 0.8101(6) 0.0638(6)
C9_3 C 0.8846(10) 0.6619(9) 0.1054(10)
H4_3 H 0.9101 0.5877 0.1214
C10_3 C 0.8864(8) 0.8437(7) 0.0927(7)
H5_3 H 0.9138 0.9183 0.0966
C11_3 C 0.7615(9) 0.6972(8) 0.0686(10)
H6_3 H 0.6874 0.6517 0.0495
N1_3 N 0.9689(7) 0.7514(5) 0.1161(7)
C9_4 C 0.1154(10) 0.1619(9) 0.3946(10)
H4_4 H 0.0899 0.0877 0.3786
C10_4 C 0.1136(8) 0.3437(7) 0.4073(7)
H5_4 H 0.0862 0.4183 0.4034
C11_4 C 0.2385(9) 0.1972(8) 0.4314(10)
H6_4 H 0.3126 0.1517 0.4505
N1_4 N 0.0311(7) 0.2514(5) 0.3839(7)
N2_2 N 0.2377(7) 0.3101(6) 0.4362(6)
C1_4 C 0.6202(9) 0.1138(8) 0.1495(7)
C2_4 C 0.6903(9) 0.1856(8) 0.2337(8)
C3_4 C 0.6266(9) 0.2512(6) 0.2824(7)
H1_4 H 0.5356 0.2492 0.2630
C4_4 C 0.6936(9) 0.3177(8) 0.3573(8)
C5_4 C 0.8261(9) 0.3202(8) 0.3899(8)
H2_4 H 0.8711 0.3681 0.4406
C6_4 C 0.8932(8) 0.2517(6) 0.3479(8)
C7_4 C 0.8283(10) 0.1833(8) 0.2679(9)
H3_4 H 0.8745 0.1382 0.2385
C8_4 C 0.6165(9) 0.3896(8) 0.4092(7)
O3_4 O 0.5115(6) 0.3555(6) 0.4050(5)
loop_
_geom_bond_atom_site_label_1
_geom_bond_atom_site_label_2
_geom_bond_site_symmetry_1
_geom_bond_site_symmetry_2
C9 H4 1_555 1_555
C10 H5 1_555 1_555
C11 C9 1_555 1_555
H6 C11 1_555 1_555
N2 C10 1_555 1_555
Cu2 N2 1_555 1_555
C9 N1 1_555 1_555
C10 N1 1_555 1_555
C11 N2 1_555 1_555
C1 C2 1_555 1_555
C2 C3 1_555 1_555
C3 H1 1_555 1_555
C4 C3 1_555 1_555
C5 C4 1_555 1_555
H2 C5 1_555 1_555
C6 C5 1_555 1_555
C7 C2 1_555 1_555
H3 C7 1_555 1_555
C8 C4 1_555 1_555
Cu2 O3 1_555 1_555
O1 C1 1_555 1_555
O2 C1 1_555 1_555
O3 C8 1_555 1_555
O4 C8 1_555 1_555
Cu3 O1 1_555 1_555
Cu5 O2 1_555 1_555
C6 C7 1_555 1_555
Cu3 Cu5 1_555 1_555
C1_2 C2_2 1_555 1_555
C2_2 C3_2 1_555 1_555
C3_2 H1_2 1_555 1_555
C4_2 C3_2 1_555 1_555
C5_2 C4_2 1_555 1_555
H2_2 C5_2 1_555 1_555
C6_2 C5_2 1_555 1_555
C7_2 C2_2 1_555 1_555
H3_2 C7_2 1_555 1_555
C8_2 C4_2 1_555 1_555
Cu3 O3_2 1_555 1_555
O5 C1_2 1_555 1_555
O2_2 C1_2 1_555 1_555
O3_2 C8_2 1_555 1_555
O4_2 C8_2 1_555 1_555
N3 Cu3 1_555 1_555
O6_2 Cu3 1_555 1_555
O7_2 Cu3 1_555 1_555
C6_2 C7_2 1_555 1_555
O4_2 Cu5 1_555 1_555
C9_2 H4_2 1_555 1_555
C10_2 H5_2 1_555 1_555
C11_2 C9_2 1_555 1_555
H6_2 C11_2 1_555 1_555
N3 C10_2 1_555 1_555
C9_2 N1_2 1_555 1_555
C10_2 N1_2 1_555 1_555
C11_2 N3 1_555 1_555
C1_3 C2_3 1_555 1_555
C2_3 C3_3 1_555 1_555
C3_3 H1_3 1_555 1_555
C4_3 C3_3 1_555 1_555
C5_3 C4_3 1_555 1_555
H2_3 C5_3 1_555 1_555
C6_3 C5_3 1_555 1_555
C7_3 C2_3 1_555 1_555
H3_3 C7_3 1_555 1_555
C8_3 C4_3 1_555 1_555
Cu4 O3_3 1_555 1_555
O1_2 C1_3 1_555 1_555
O6_2 C1_3 1_555 1_555
O3_3 C8_3 1_555 1_555
O7 C8_3 1_555 1_555
Cu5 O1_2 1_555 1_555
N3_2 Cu4 1_555 1_555
C6_3 C7_3 1_555 1_555
C9_3 H4_3 1_555 1_555
C10_3 H5_3 1_555 1_555
C11_3 C9_3 1_555 1_555
H6_3 C11_3 1_555 1_555
N3_2 C10_3 1_555 1_555
C9_3 N1_3 1_555 1_555
C10_3 N1_3 1_555 1_555
C11_3 N3_2 1_555 1_555
C9_4 H4_4 1_555 1_555
C10_4 H5_4 1_555 1_555
C11_4 C9_4 1_555 1_555
H6_4 C11_4 1_555 1_555
N2_2 C10_4 1_555 1_555
Cu5 N2_2 1_555 1_555
C9_4 N1_4 1_555 1_555
C10_4 N1_4 1_555 1_555
C11_4 N2_2 1_555 1_555
C1_4 C2_4 1_555 1_555
C2_4 C3_4 1_555 1_555
C3_4 H1_4 1_555 1_555
C4_4 C3_4 1_555 1_555
C5_4 C4_4 1_555 1_555
H2_4 C5_4 1_555 1_555
C6_4 C5_4 1_555 1_555
C7_4 C2_4 1_555 1_555
H3_4 C7_4 1_555 1_555
C8_4 C4_4 1_555 1_555
Cu5 O3_4 1_555 1_555
O5_2 C1_4 1_555 1_555
O6 C1_4 1_555 1_555
O3_4 C8_4 1_555 1_555
O7_2 C8_4 1_555 1_555
C6_4 C7_4 1_555 1_555

#END
