
###############################################################################
#
# This file contains modified crystal structure data generated from the
# MOF subset of the Cambridge Structural Database (CSD) v543 
# hosted by the Cambridge Crystallographic Data Centre (CCDC).
#
# This work is licensed under the Creative Commons
# Attribution-NonCommercial-ShareAlike 4.0 International License.
# To view a copy of this license, visit
# http://creativecommons.org/licenses/by-nc-sa/4.0/
# or send a letter to
# Creative Commons, PO Box 1866, Mountain View, CA 94042, USA.
#
# CIF created using the CSD Python API on 29 September 2022
# The structure has been converted into the P1 space group
# The structure has a 3D framework
# The original CSD entry XAYLER is in the monoclinic crystal system
# The framework has been calculated to contain at least 10.0% void space
# The void calculation uses a probe of radius 1.32A, grid spacing 0.4
#
###############################################################################

data_XAYLER
_chemical_formula_moiety         '(C52 H40 Cu2 N8 O16)n'
_symmetry_cell_setting           triclinic
_symmetry_space_group_name_H-M   'P 1'
_symmetry_Int_Tables_number      1
_space_group_name_Hall           'P 1'
loop_
_symmetry_equiv_pos_site_id
_symmetry_equiv_pos_as_xyz
1 x,y,z
_cell_length_a                   10.93(3)
_cell_length_b                   13.71(4)
_cell_length_c                   13.47(3)
_cell_angle_alpha                90
_cell_angle_beta                 111.86(3)
_cell_angle_gamma                90
_cell_volume                     1873.35
loop_
_atom_site_label
_atom_site_type_symbol
_atom_site_fract_x
_atom_site_fract_y
_atom_site_fract_z
Cu1 Cu 0.38937(11) 0.05785(9) 0.46271(10)
N3 N 0.2207(7) 0.1517(6) 0.4108(8)
O5 O 0.4914(7) 0.1402(5) 0.5882(6)
O6 O 0.4862(6) 0.1245(5) 0.3829(6)
C1 C 0.3906(11) 0.8809(9) 0.3475(9)
C2 C 0.3241(10) 0.8019(8) 0.2683(8)
C3 C 0.1882(11) 0.7940(9) 0.2384(9)
H1 H 0.1400 0.8373 0.2627
C4 C 0.1280(12) 0.7161(10) 0.1686(11)
C5 C 0.1875(12) 0.6576(10) 0.1230(10)
H2 H 0.1406 0.6122 0.0716
C6 C 0.3284(9) 0.6671(8) 0.1564(8)
C7 C 0.3918(10) 0.7385(8) 0.2272(8)
H3 H 0.4827 0.7447 0.2483
C8 C 0.3943(10) 0.6000(9) 0.1043(9)
O1 O 0.3295(7) 0.9574(5) 0.3531(6)
O2 O 0.5086(7) 0.8598(5) 0.4118(6)
O3 O 0.5138(6) 0.6245(5) 0.1171(6)
O4 O 0.3342(7) 0.5293(5) 0.0527(6)
H6 H 0.0598 0.5532 0.2675
C13 C 0.029(3) 0.4367(19) 0.164(2)
H8 H 0.1126 0.4157 0.2141
H9 H 0.0364 0.4513 0.0965
O7 O 0.3342(7) 0.9707(5) 0.5527(6)
Cu3 Cu 0.61063(11) 0.55785(9) 0.03729(10)
Cu4 Cu 0.61063(11) 0.94215(9) 0.53729(10)
Cu5 Cu 0.38937(11) 0.44215(9) 0.96271(10)
C9 C 0.7651(9) 0.7432(8) 0.0367(11)
N1 N 0.7793(7) 0.6517(6) 0.0892(8)
C10 C 0.9161(9) 0.6326(7) 0.1414(9)
N2 N 0.9864(7) 0.7124(9) 0.1211(11)
C11 C 0.8931(12) 0.7807(8) 0.0564(13)
H5 H 0.9125 0.8397 0.0313
C12 C 0.983(2) 0.5316(16) 0.208(2)
H7 H 0.9206 0.5086 0.2384
H10 H 0.9650 0.3858 0.1538
C9_2 C 0.2349(9) 0.2432(8) 0.4633(11)
H4 H 0.3141 0.2733 0.5036
C10_2 C 0.0839(9) 0.1326(7) 0.3586(9)
N2_2 N 0.0136(7) 0.2124(9) 0.3789(11)
C11_2 C 0.1069(12) 0.2807(8) 0.4436(13)
H5_2 H 0.0875 0.3397 0.4687
C12_2 C 0.017(2) 0.0316(16) 0.292(2)
H7_2 H 0.0794 0.0086 0.2616
C1_2 C 0.6094(11) 0.3809(9) 0.1525(9)
C2_2 C 0.6759(10) 0.3019(8) 0.2317(8)
C3_2 C 0.8118(11) 0.2940(9) 0.2616(9)
H1_2 H 0.8600 0.3373 0.2373
C4_2 C 0.8720(12) 0.2161(10) 0.3314(11)
C5_2 C 0.8125(12) 0.1576(10) 0.3770(10)
H2_2 H 0.8594 0.1122 0.4284
C6_2 C 0.6716(9) 0.1671(8) 0.3436(8)
C7_2 C 0.6082(10) 0.2385(8) 0.2728(8)
H3_2 H 0.5173 0.2447 0.2517
C8_2 C 0.6057(10) 0.1000(9) 0.3957(9)
O1_2 O 0.6705(7) 0.4574(5) 0.1469(6)
O2_2 O 0.4914(7) 0.3598(5) 0.0882(6)
O4_2 O 0.6658(7) 0.0293(5) 0.4473(6)
H6_2 H 0.9402 0.0532 0.2325
O5_2 O 0.5086(7) 0.6402(5) 0.9118(6)
O7_2 O 0.6658(7) 0.4707(5) 0.9473(6)
C13_2 C 0.971(3) 0.9367(19) 0.336(2)
H8_2 H 0.8874 0.9157 0.2859
H9_2 H 0.9636 0.9513 0.4035
C9_3 C 0.2349(9) 0.2568(8) 0.9633(11)
N1_2 N 0.2207(7) 0.3483(6) 0.9108(8)
C10_3 C 0.0839(9) 0.3674(7) 0.8586(9)
N2_3 N 0.0136(7) 0.2876(9) 0.8789(11)
C11_3 C 0.1069(12) 0.2193(8) 0.9436(13)
H5_3 H 0.0875 0.1603 0.9687
C12_3 C 0.017(2) 0.4684(16) 0.792(2)
H7_3 H 0.0794 0.4914 0.7616
H10_2 H 0.0350 0.6142 0.8462
C1_3 C 0.6094(11) 0.1191(9) 0.6525(9)
C2_3 C 0.6759(10) 0.1981(8) 0.7317(8)
C3_3 C 0.8118(11) 0.2060(9) 0.7616(9)
H1_3 H 0.8600 0.1627 0.7373
C4_3 C 0.8720(12) 0.2839(10) 0.8314(11)
C5_3 C 0.8125(12) 0.3424(10) 0.8770(10)
H2_3 H 0.8594 0.3878 0.9284
C6_3 C 0.6716(9) 0.3329(8) 0.8436(8)
C7_3 C 0.6082(10) 0.2615(8) 0.7728(8)
H3_3 H 0.5173 0.2553 0.7517
C8_3 C 0.6057(10) 0.4000(9) 0.8957(9)
O1_3 O 0.6705(7) 0.0426(5) 0.6469(6)
O3_2 O 0.4862(6) 0.3755(5) 0.8829(6)
H6_3 H 0.9402 0.4468 0.7325
C13_3 C 0.971(3) 0.5633(19) 0.836(2)
H8_3 H 0.8874 0.5843 0.7859
H9_3 H 0.9636 0.5487 0.9035
N3_2 N 0.7793(7) 0.8483(6) 0.5892(8)
O6_2 O 0.5138(6) 0.8755(5) 0.6171(6)
C13_4 C 0.029(3) 0.0633(19) 0.664(2)
H8_4 H 0.1126 0.0843 0.7141
H9_4 H 0.0364 0.0487 0.5965
C1_4 C 0.3906(11) 0.6191(9) 0.8475(9)
C2_4 C 0.3241(10) 0.6981(8) 0.7683(8)
C3_4 C 0.1882(11) 0.7060(9) 0.7384(9)
H1_4 H 0.1400 0.6627 0.7627
C4_4 C 0.1280(12) 0.7839(10) 0.6686(11)
C5_4 C 0.1875(12) 0.8424(10) 0.6230(10)
H2_4 H 0.1406 0.8878 0.5716
C6_4 C 0.3284(9) 0.8329(8) 0.6564(8)
C7_4 C 0.3918(10) 0.7615(8) 0.7272(8)
H3_4 H 0.4827 0.7553 0.7483
C8_4 C 0.3943(10) 0.9000(9) 0.6043(9)
O1_4 O 0.3295(7) 0.5426(5) 0.8531(6)
H6_4 H 0.0598 0.9468 0.7675
C9_4 C 0.7651(9) 0.7568(8) 0.5367(11)
H4_2 H 0.6859 0.7267 0.4964
C10_4 C 0.9161(9) 0.8674(7) 0.6414(9)
N2_4 N 0.9864(7) 0.7876(9) 0.6211(11)
C11_4 C 0.8931(12) 0.7193(8) 0.5564(13)
H5_4 H 0.9125 0.6603 0.5313
C12_4 C 0.983(2) 0.9684(16) 0.708(2)
H7_4 H 0.9206 0.9914 0.7384
H4_3 H 0.6859 0.7733 0.9964
H10_3 H 0.0350 0.8858 0.3462
H4_4 H 0.3141 0.2267 0.0036
H10_4 H 0.9650 0.1142 0.6538
loop_
_geom_bond_atom_site_label_1
_geom_bond_atom_site_label_2
_geom_bond_site_symmetry_1
_geom_bond_site_symmetry_2
N3 Cu1 1_555 1_555
O5 Cu1 1_555 1_555
O6 Cu1 1_555 1_555
C1 C2 1_555 1_555
C2 C3 1_555 1_555
C3 H1 1_555 1_555
C4 C3 1_555 1_555
C5 C4 1_555 1_555
H2 C5 1_555 1_555
C6 C5 1_555 1_555
C7 C2 1_555 1_555
H3 C7 1_555 1_555
C8 C6 1_555 1_555
O1 C1 1_555 1_555
O2 C1 1_555 1_555
O3 C8 1_555 1_555
O4 C8 1_555 1_555
H8 C13 1_555 1_555
H9 C13 1_555 1_555
Cu3 O3 1_555 1_555
Cu4 O2 1_555 1_555
C6 C7 1_555 1_555
N1 C9 1_555 1_555
C10 N1 1_555 1_555
C11 C9 1_555 1_555
H5 C11 1_555 1_555
C12 C10 1_555 1_555
H7 C12 1_555 1_555
Cu3 N1 1_555 1_555
C10 N2 1_555 1_555
N2 C11 1_555 1_555
C9_2 H4 1_555 1_555
N3 C9_2 1_555 1_555
C10_2 N3 1_555 1_555
C11_2 C9_2 1_555 1_555
H5_2 C11_2 1_555 1_555
C12_2 C10_2 1_555 1_555
H7_2 C12_2 1_555 1_555
C10_2 N2_2 1_555 1_555
N2_2 C11_2 1_555 1_555
C1_2 C2_2 1_555 1_555
C2_2 C3_2 1_555 1_555
C3_2 H1_2 1_555 1_555
C4_2 C3_2 1_555 1_555
C5_2 C4_2 1_555 1_555
H2_2 C5_2 1_555 1_555
C6_2 C5_2 1_555 1_555
C7_2 C2_2 1_555 1_555
H3_2 C7_2 1_555 1_555
C8_2 C6_2 1_555 1_555
O1_2 C1_2 1_555 1_555
O2_2 C1_2 1_555 1_555
O6 C8_2 1_555 1_555
O4_2 C8_2 1_555 1_555
Cu3 O1_2 1_555 1_555
C6_2 C7_2 1_555 1_555
H8_2 C13_2 1_555 1_555
H9_2 C13_2 1_555 1_555
N1_2 C9_3 1_555 1_555
C10_3 N1_2 1_555 1_555
C11_3 C9_3 1_555 1_555
H5_3 C11_3 1_555 1_555
C12_3 C10_3 1_555 1_555
H7_3 C12_3 1_555 1_555
Cu5 N1_2 1_555 1_555
C10_3 N2_3 1_555 1_555
N2_3 C11_3 1_555 1_555
C1_3 C2_3 1_555 1_555
C2_3 C3_3 1_555 1_555
C3_3 H1_3 1_555 1_555
C4_3 C3_3 1_555 1_555
C5_3 C4_3 1_555 1_555
H2_3 C5_3 1_555 1_555
C6_3 C5_3 1_555 1_555
C7_3 C2_3 1_555 1_555
H3_3 C7_3 1_555 1_555
C8_3 C6_3 1_555 1_555
O1_3 C1_3 1_555 1_555
O5 C1_3 1_555 1_555
O3_2 C8_3 1_555 1_555
O7_2 C8_3 1_555 1_555
H8_3 C13_3 1_555 1_555
H9_3 C13_3 1_555 1_555
Cu5 O3_2 1_555 1_555
C6_3 C7_3 1_555 1_555
N3_2 Cu4 1_555 1_555
O6_2 Cu4 1_555 1_555
H8_4 C13_4 1_555 1_555
H9_4 C13_4 1_555 1_555
C1_4 C2_4 1_555 1_555
C2_4 C3_4 1_555 1_555
C3_4 H1_4 1_555 1_555
C4_4 C3_4 1_555 1_555
C5_4 C4_4 1_555 1_555
H2_4 C5_4 1_555 1_555
C6_4 C5_4 1_555 1_555
C7_4 C2_4 1_555 1_555
H3_4 C7_4 1_555 1_555
C8_4 C6_4 1_555 1_555
O1_4 C1_4 1_555 1_555
O5_2 C1_4 1_555 1_555
O6_2 C8_4 1_555 1_555
O7 C8_4 1_555 1_555
Cu5 O1_4 1_555 1_555
C6_4 C7_4 1_555 1_555
C9_4 H4_2 1_555 1_555
N3_2 C9_4 1_555 1_555
C10_4 N3_2 1_555 1_555
C11_4 C9_4 1_555 1_555
H5_4 C11_4 1_555 1_555
C12_4 C10_4 1_555 1_555
H7_4 C12_4 1_555 1_555
C10_4 N2_4 1_555 1_555
N2_4 C11_4 1_555 1_555

#END
