
###############################################################################
#
# This file contains modified crystal structure data generated from the
# MOF subset of the Cambridge Structural Database (CSD) v543 
# hosted by the Cambridge Crystallographic Data Centre (CCDC).
#
# This work is licensed under the Creative Commons
# Attribution-NonCommercial-ShareAlike 4.0 International License.
# To view a copy of this license, visit
# http://creativecommons.org/licenses/by-nc-sa/4.0/
# or send a letter to
# Creative Commons, PO Box 1866, Mountain View, CA 94042, USA.
#
# CIF created using the CSD Python API on 29 September 2022
# The structure has been converted into the P1 space group
# The structure has a 3D framework
# The original CSD entry XAYSEZ is in the monoclinic crystal system
# The original CSD entry XAYSEZ is in a Sohncke space group
# The framework has been calculated to contain at least 10.0% void space
# The void calculation uses a probe of radius 1.32A, grid spacing 0.4
#
###############################################################################

data_XAYSEZ
_chemical_formula_moiety         '(C104 H65 Co4 N8 O16)n'
_symmetry_cell_setting           triclinic
_symmetry_space_group_name_H-M   'P 1'
_symmetry_Int_Tables_number      1
_space_group_name_Hall           'P 1'
loop_
_symmetry_equiv_pos_site_id
_symmetry_equiv_pos_as_xyz
1 x,y,z
_cell_length_a                   11.453(3)
_cell_length_b                   21.919(5)
_cell_length_c                   11.366(3)
_cell_angle_alpha                90
_cell_angle_beta                 114.74(2)
_cell_angle_gamma                90
_cell_volume                     2591.41
loop_
_atom_site_label
_atom_site_type_symbol
_atom_site_fract_x
_atom_site_fract_y
_atom_site_fract_z
O7 O 0.5143(3) 0.02354(18) 0.7697(3)
C36 C 0.2850(5) 0.0254(3) 0.6640(5)
C37 C 0.2791(6) 0.0875(3) 0.6323(6)
H21 H 0.3558 0.1105 0.6547
C38 C 0.1615(5) 0.1147(3) 0.5687(6)
H22 H 0.1583 0.1567 0.5463
C39 C 0.0484(6) 0.0837(3) 0.5362(6)
C40 C 0.0537(5) 0.0220(3) 0.5740(6)
C7 C 0.9939(5) 0.0584(3) 0.9182(7)
H4 H 0.9150 0.0763 0.9091
O8 O 0.4105(3) 0.93615(18) 0.7439(3)
C41 C 0.1712(5) 0.9938(3) 0.6361(6)
H24 H 0.1745 0.9522 0.6603
C42 C 0.4120(4) 0.9935(3) 0.7304(4)
Co4 Co 0.61936(6) 0.93621(4) 0.82906(7)
Co6 Co 0.90094(7) 0.80800(4) 0.87579(7)
N1 N 0.8938(3) 0.8090(2) 0.6832(3)
N2 N 0.9003(4) 0.8090(2) 0.0637(4)
C17 C 0.9851(5) 0.8377(3) 0.6600(5)
C18 C 0.9880(5) 0.8393(3) 0.5394(5)
C19 C 0.8908(5) 0.8101(3) 0.4350(5)
C20 C 0.7957(5) 0.7808(3) 0.4586(5)
H11 H 0.7273 0.7606 0.3903
C21 C 0.8008(5) 0.7812(3) 0.5822(5)
H12 H 0.7348 0.7607 0.5964
C22 C 0.8407(4) 0.7638(3) 0.0994(4)
H13 H 0.8005 0.7318 0.0397
C23 C 0.8362(5) 0.7625(3) 0.2158(5)
H14 H 0.7950 0.7296 0.2375
C24 C 0.8930(4) 0.8103(3) 0.3065(4)
C25 C 0.9524(5) 0.8553(3) 0.2681(5)
H15 H 0.9928 0.8883 0.3247
C26 C 0.9535(5) 0.8528(3) 0.1465(5)
H16 H 0.9954 0.8846 0.1224
N3 N 0.6184(4) 0.9354(2) 0.6395(4)
N4 N 0.6265(3) 0.9382(2) 0.0209(3)
C43 C 0.5641(5) 0.8909(3) 0.5524(4)
H25 H 0.5214 0.8589 0.5749
C44 C 0.5663(5) 0.8889(3) 0.4329(5)
H26 H 0.5314 0.8548 0.3775
C45 C 0.6210(4) 0.9379(2) 0.3928(4)
C46 C 0.6760(5) 0.9838(2) 0.4845(5)
C47 C 0.6717(5) 0.9809(3) 0.6027(5)
C48 C 0.7148(4) 0.9685(3) 0.1213(5)
H29 H 0.7794 0.9906 0.1076
C49 C 0.7167(5) 0.9693(3) 0.2416(5)
H30 H 0.7819 0.9911 0.3097
C50 C 0.6238(4) 0.9383(3) 0.2644(4)
C51 C 0.5312(5) 0.9068(3) 0.1597(5)
H31 H 0.4657 0.8842 0.1708
C52 C 0.5356(5) 0.9086(3) 0.0430(5)
O1 O 0.8978(3) 0.90024(17) 0.8639(3)
O2 O 0.7951(3) 0.97830(18) 0.8999(3)
C1 C 0.8911(5) 0.9549(3) 0.8946(4)
O5 O 0.6139(3) 0.84395(16) 0.8409(3)
O6 O 0.7251(3) 0.76922(18) 0.8025(3)
C27 C 0.6227(5) 0.7915(2) 0.7991(5)
C28 C 0.5049(5) 0.7532(3) 0.7459(5)
C29 C 0.3842(5) 0.7777(3) 0.7207(6)
H17 H 0.3766 0.8194 0.7389
C30 C 0.2748(5) 0.7409(3) 0.6686(6)
H18 H 0.1929 0.7576 0.6524
C31 C 0.2854(5) 0.6789(3) 0.6400(6)
C32 C 0.4060(6) 0.6552(4) 0.6703(8)
H19 H 0.4148 0.6129 0.6580
C33 C 0.5146(6) 0.6917(4) 0.7183(8)
H20 H 0.5959 0.6750 0.7324
C34 C 0.1717(5) 0.6432(3) 0.5842(6)
C35 C 0.0742(6) 0.6138(3) 0.5316(6)
H23 H 0.0233 0.5000 0.4433
H32 H 0.4706 0.8877 0.9728
Co1 Co 0.38064(6) 0.43621(4) 0.17094(7)
Co2 Co 0.09906(7) 0.30800(4) 0.12421(7)
O1_2 O 0.1022(3) 0.40024(17) 0.1361(3)
O2_2 O 0.2049(3) 0.47830(18) 0.1001(3)
C1_2 C 0.1089(5) 0.4549(3) 0.1054(4)
C7_2 C 0.0061(5) 0.5584(3) 0.0818(7)
H4_2 H 0.0850 0.5763 0.0909
O5_2 O 0.3861(3) 0.34395(16) 0.1591(3)
O6_2 O 0.2749(3) 0.26922(18) 0.1975(3)
C27_2 C 0.3773(5) 0.2915(2) 0.2009(5)
C28_2 C 0.4951(5) 0.2532(3) 0.2541(5)
C29_2 C 0.6158(5) 0.2777(3) 0.2793(6)
H17_2 H 0.6234 0.3194 0.2611
C30_2 C 0.7252(5) 0.2409(3) 0.3314(6)
H18_2 H 0.8071 0.2576 0.3476
C31_2 C 0.7146(5) 0.1789(3) 0.3600(6)
C32_2 C 0.5940(6) 0.1552(4) 0.3297(8)
H19_2 H 0.5852 0.1129 0.3420
C33_2 C 0.4854(6) 0.1917(4) 0.2817(8)
H20_2 H 0.4041 0.1750 0.2676
C34_2 C 0.8283(5) 0.1432(3) 0.4158(6)
C35_2 C 0.9258(6) 0.1138(3) 0.4684(6)
H23_2 H 0.9767 0.0000 0.5567
H32_2 H 0.5294 0.3877 0.0272
N5 N 0.1062(3) 0.3090(2) 0.3168(3)
O11 O 0.4857(3) 0.52354(18) 0.2303(3)
O12 O 0.5895(3) 0.43615(18) 0.2561(3)
N6 N 0.3816(4) 0.4354(2) 0.3605(4)
N2_2 N 0.0997(4) 0.3090(2) 0.9363(4)
C17_2 C 0.0149(5) 0.3377(3) 0.3400(5)
C18_2 C 0.0120(5) 0.3393(3) 0.4606(5)
C19_2 C 0.1092(5) 0.3101(3) 0.5650(5)
C20_2 C 0.2043(5) 0.2808(3) 0.5414(5)
H11_2 H 0.2727 0.2606 0.6097
C21_2 C 0.1992(5) 0.2812(3) 0.4178(5)
H12_2 H 0.2652 0.2607 0.4036
C22_2 C 0.1593(4) 0.2638(3) 0.9006(4)
H13_2 H 0.1995 0.2318 0.9603
C23_2 C 0.1638(5) 0.2625(3) 0.7842(5)
H14_2 H 0.2050 0.2296 0.7625
C24_2 C 0.1070(4) 0.3103(3) 0.6935(4)
C25_2 C 0.0476(5) 0.3553(3) 0.7319(5)
H15_2 H 0.0072 0.3883 0.6753
C26_2 C 0.0465(5) 0.3528(3) 0.8535(5)
H16_2 H 0.0046 0.3846 0.8776
N4_2 N 0.3735(3) 0.4382(2) 0.9791(3)
C43_2 C 0.4359(5) 0.3909(3) 0.4476(4)
H25_2 H 0.4786 0.3589 0.4251
C44_2 C 0.4337(5) 0.3889(3) 0.5671(5)
H26_2 H 0.4686 0.3548 0.6225
C45_2 C 0.3790(4) 0.4379(2) 0.6072(4)
C46_2 C 0.3240(5) 0.4838(2) 0.5155(5)
H27 H 0.2830 0.5174 0.5354
C47_2 C 0.3283(5) 0.4809(3) 0.3973(5)
H28 H 0.2910 0.5134 0.3380
C48_2 C 0.2852(4) 0.4685(3) 0.8787(5)
H29_2 H 0.2206 0.4906 0.8924
C49_2 C 0.2833(5) 0.4693(3) 0.7584(5)
H30_2 H 0.2181 0.4911 0.6903
C50_2 C 0.3762(4) 0.4383(3) 0.7356(4)
C51_2 C 0.4688(5) 0.4068(3) 0.8403(5)
H31_2 H 0.5343 0.3842 0.8292
C52_2 C 0.4644(5) 0.4086(3) 0.9570(5)
C36_2 C 0.7150(5) 0.5254(3) 0.3360(5)
C37_2 C 0.7209(6) 0.5875(3) 0.3677(6)
H21_2 H 0.6442 0.6105 0.3453
C38_2 C 0.8385(5) 0.6147(3) 0.4313(6)
H22_2 H 0.8417 0.6567 0.4537
C39_2 C 0.9516(6) 0.5837(3) 0.4638(6)
C40_2 C 0.9463(5) 0.5220(3) 0.4260(6)
C41_2 C 0.8288(5) 0.4938(3) 0.3639(6)
H24_2 H 0.8255 0.4522 0.3397
C42_2 C 0.5880(4) 0.4935(3) 0.2696(4)
H23_3 H 0.9767 1.0000 0.5567
C2 C 0.9951(5) 0.4943(3) 0.0826(5)
C3 C 0.8774(5) 0.4701(3) 0.0661(5)
H1 H 0.8679 0.4270 0.0665
C4 C 0.7744(5) 0.5066(3) 0.0494(6)
H2 H 0.6943 0.4885 0.0356
C5 C 0.7861(5) 0.5708(3) 0.0525(6)
C6 C 0.9032(6) 0.5959(3) 0.0681(8)
H3 H 0.9130 0.6389 0.0693
C8 C 0.6793(6) 0.6072(3) 0.0416(6)
C9 C 0.5882(6) 0.6354(3) 0.0346(6)
C13 C 0.4706(5) 0.6643(3) 0.0224(6)
C14 C 0.4642(5) 0.7284(3) 0.0370(6)
H7 H 0.5392 0.7527 0.0600
C15 C 0.3493(4) 0.7551(3) 0.0177(5)
H8 H 0.3470 0.7980 0.0297
O9 O 0.9900(3) 0.22135(18) 0.0840(4)
O10 O 0.8895(3) 0.31047(18) 0.0382(3)
C10 C 0.7616(4) 0.2226(3) 0.0180(5)
C11 C 0.7554(5) 0.1582(3) 0.0302(7)
H5 H 0.8301 0.1340 0.0508
C12 C 0.6411(6) 0.1314(3) 0.0120(7)
H6 H 0.6389 0.0886 0.0236
C16 C 0.8887(5) 0.2523(3) 0.0482(4)
O3 O 0.0100(3) 0.72135(18) 0.9160(4)
O4 O 0.1105(3) 0.81047(18) 0.9618(3)
C10_2 C 0.2384(4) 0.7226(3) 0.9820(5)
C11_2 C 0.2446(5) 0.6582(3) 0.9698(7)
H5_2 H 0.1699 0.6340 0.9492
C12_2 C 0.3589(6) 0.6314(3) 0.9880(7)
H6_2 H 0.3611 0.5886 0.9764
C16_2 C 0.1113(5) 0.7523(3) 0.9518(4)
H9 H 0.9486 0.3580 0.2701
H10 H 0.9446 0.3600 0.4721
C2_2 C 0.0049(5) 0.9943(3) 0.9174(5)
C3_2 C 0.1226(5) 0.9701(3) 0.9339(5)
H1_2 H 0.1321 0.9270 0.9335
H2_2 H 0.3057 0.9885 0.9644
C4_2 C 0.2256(5) 0.0066(3) 0.9506(6)
C5_2 C 0.2139(5) 0.0708(3) 0.9475(6)
C6_2 C 0.0968(6) 0.0959(3) 0.9319(8)
H3_2 H 0.0870 0.1389 0.9307
C8_2 C 0.3207(6) 0.1072(3) 0.9584(6)
C9_2 C 0.4118(6) 0.1354(3) 0.9654(6)
C13_2 C 0.5294(5) 0.1643(3) 0.9776(6)
C14_2 C 0.5358(5) 0.2284(3) 0.9630(6)
H7_2 H 0.4608 0.2527 0.9400
C15_2 C 0.6507(4) 0.2551(3) 0.9823(5)
H8_2 H 0.6530 0.2980 0.9703
H9_2 H 0.0514 0.8580 0.7299
H10_2 H 0.0554 0.8600 0.5279
H27_2 H 0.7170 0.0174 0.4646
H28_2 H 0.7090 0.0134 0.6620
loop_
_geom_bond_atom_site_label_1
_geom_bond_atom_site_label_2
_geom_bond_site_symmetry_1
_geom_bond_site_symmetry_2
C36 C37 1_555 1_555
C37 H21 1_555 1_555
C38 C37 1_555 1_555
H22 C38 1_555 1_555
C40 C39 1_555 1_555
C38 C39 1_555 1_555
H4 C7 1_555 1_555
O8 C42 1_555 1_555
H24 C41 1_555 1_555
O8 Co4 1_555 1_555
N1 C17 1_555 1_555
C18 C17 1_555 1_555
C19 C18 1_555 1_555
C20 C19 1_555 1_555
H11 C20 1_555 1_555
C21 N1 1_555 1_555
H12 C21 1_555 1_555
C22 N2 1_555 1_555
H13 C22 1_555 1_555
C23 C22 1_555 1_555
H14 C23 1_555 1_555
C24 C19 1_555 1_555
C25 C24 1_555 1_555
H15 C25 1_555 1_555
C26 N2 1_555 1_555
H16 C26 1_555 1_555
N3 C43 1_555 1_555
C43 H25 1_555 1_555
C44 C43 1_555 1_555
H26 C44 1_555 1_555
C45 C44 1_555 1_555
C46 C45 1_555 1_555
C47 N3 1_555 1_555
C48 N4 1_555 1_555
H29 C48 1_555 1_555
C49 C48 1_555 1_555
H30 C49 1_555 1_555
C50 C45 1_555 1_555
C51 C50 1_555 1_555
H31 C51 1_555 1_555
C52 N4 1_555 1_555
Co4 N3 1_555 1_555
Co6 N1 1_555 1_555
C20 C21 1_555 1_555
C23 C24 1_555 1_555
C25 C26 1_555 1_555
C46 C47 1_555 1_555
C49 C50 1_555 1_555
C51 C52 1_555 1_555
Co4 O2 1_555 1_555
Co6 O1 1_555 1_555
O1 C1 1_555 1_555
O2 C1 1_555 1_555
O5 Co4 1_555 1_555
O6 Co6 1_555 1_555
C27 O5 1_555 1_555
C28 C27 1_555 1_555
C29 C28 1_555 1_555
H17 C29 1_555 1_555
C30 C29 1_555 1_555
H18 C30 1_555 1_555
C31 C30 1_555 1_555
C32 C31 1_555 1_555
H19 C32 1_555 1_555
C33 C28 1_555 1_555
H20 C33 1_555 1_555
C34 C31 1_555 1_555
C35 C34 1_555 1_555
O6 C27 1_555 1_555
C32 C33 1_555 1_555
Co1 O2_2 1_555 1_555
Co2 O1_2 1_555 1_555
O1_2 C1_2 1_555 1_555
O2_2 C1_2 1_555 1_555
H4_2 C7_2 1_555 1_555
O5_2 Co1 1_555 1_555
O6_2 Co2 1_555 1_555
C27_2 O5_2 1_555 1_555
C28_2 C27_2 1_555 1_555
C29_2 C28_2 1_555 1_555
H17_2 C29_2 1_555 1_555
C30_2 C29_2 1_555 1_555
H18_2 C30_2 1_555 1_555
C31_2 C30_2 1_555 1_555
C32_2 C31_2 1_555 1_555
H19_2 C32_2 1_555 1_555
C33_2 C28_2 1_555 1_555
H20_2 C33_2 1_555 1_555
C34_2 C31_2 1_555 1_555
C35_2 C34_2 1_555 1_555
N5 Co2 1_555 1_555
O11 Co1 1_555 1_555
O12 Co1 1_555 1_555
N6 Co1 1_555 1_555
O6_2 C27_2 1_555 1_555
C32_2 C33_2 1_555 1_555
N5 C17_2 1_555 1_555
C18_2 C17_2 1_555 1_555
C19_2 C18_2 1_555 1_555
C20_2 C19_2 1_555 1_555
H11_2 C20_2 1_555 1_555
C21_2 N5 1_555 1_555
H12_2 C21_2 1_555 1_555
C22_2 N2_2 1_555 1_555
H13_2 C22_2 1_555 1_555
C23_2 C22_2 1_555 1_555
H14_2 C23_2 1_555 1_555
C24_2 C19_2 1_555 1_555
C25_2 C24_2 1_555 1_555
H15_2 C25_2 1_555 1_555
C26_2 N2_2 1_555 1_555
H16_2 C26_2 1_555 1_555
N6 C43_2 1_555 1_555
C43_2 H25_2 1_555 1_555
C44_2 C43_2 1_555 1_555
H26_2 C44_2 1_555 1_555
C45_2 C44_2 1_555 1_555
C46_2 C45_2 1_555 1_555
H27 C46_2 1_555 1_555
C47_2 N6 1_555 1_555
H28 C47_2 1_555 1_555
C48_2 N4_2 1_555 1_555
H29_2 C48_2 1_555 1_555
C49_2 C48_2 1_555 1_555
H30_2 C49_2 1_555 1_555
C50_2 C45_2 1_555 1_555
C51_2 C50_2 1_555 1_555
H31_2 C51_2 1_555 1_555
C52_2 N4_2 1_555 1_555
C20_2 C21_2 1_555 1_555
C23_2 C24_2 1_555 1_555
C25_2 C26_2 1_555 1_555
C46_2 C47_2 1_555 1_555
C49_2 C50_2 1_555 1_555
C51_2 C52_2 1_555 1_555
O11 C42_2 1_555 1_555
O12 C42_2 1_555 1_555
C36_2 C37_2 1_555 1_555
C37_2 H21_2 1_555 1_555
C38_2 C37_2 1_555 1_555
H22_2 C38_2 1_555 1_555
C40_2 C39_2 1_555 1_555
C41_2 C36_2 1_555 1_555
H24_2 C41_2 1_555 1_555
C42_2 C36_2 1_555 1_555
C38_2 C39_2 1_555 1_555
C40_2 C41_2 1_555 1_555
C2 C3 1_555 1_555
C3 H1 1_555 1_555
C4 C3 1_555 1_555
H2 C4 1_555 1_555
C5 C4 1_555 1_555
C6 C5 1_555 1_555
H3 C6 1_555 1_555
C8 C5 1_555 1_555
C9 C8 1_555 1_555
C13 C9 1_555 1_555
C14 C13 1_555 1_555
H7 C14 1_555 1_555
H8 C15 1_555 1_555
C14 C15 1_555 1_555
O9 C16 1_555 1_555
O10 C16 1_555 1_555
C10 C11 1_555 1_555
C11 H5 1_555 1_555
C12 C11 1_555 1_555
H6 C12 1_555 1_555
C16 C10 1_555 1_555
O3 C16_2 1_555 1_555
O4 C16_2 1_555 1_555
C10_2 C11_2 1_555 1_555
C11_2 H5_2 1_555 1_555
C12_2 C11_2 1_555 1_555
H6_2 C12_2 1_555 1_555
C16_2 C10_2 1_555 1_555
C2_2 C3_2 1_555 1_555
C3_2 H1_2 1_555 1_555
C5_2 C4_2 1_555 1_555
C6_2 C5_2 1_555 1_555
H3_2 C6_2 1_555 1_555
C8_2 C5_2 1_555 1_555
C9_2 C8_2 1_555 1_555
C13_2 C9_2 1_555 1_555
C14_2 C13_2 1_555 1_555
H7_2 C14_2 1_555 1_555
H8_2 C15_2 1_555 1_555
C14_2 C15_2 1_555 1_555

#END
