
###############################################################################
#
# This file contains modified crystal structure data generated from the
# MOF subset of the Cambridge Structural Database (CSD) v543 
# hosted by the Cambridge Crystallographic Data Centre (CCDC).
#
# This work is licensed under the Creative Commons
# Attribution-NonCommercial-ShareAlike 4.0 International License.
# To view a copy of this license, visit
# http://creativecommons.org/licenses/by-nc-sa/4.0/
# or send a letter to
# Creative Commons, PO Box 1866, Mountain View, CA 94042, USA.
#
# CIF created using the CSD Python API on 29 September 2022
# The structure has been converted into the P1 space group
# The structure has a 3D framework
# The original CSD entry XAYSOJ is in the monoclinic crystal system
# The original CSD entry XAYSOJ is in a Sohncke space group
# The framework has been calculated to contain at least 10.0% void space
# The void calculation uses a probe of radius 1.32A, grid spacing 0.4
#
###############################################################################

data_XAYSOJ
_chemical_formula_moiety         '(C104 H64 Co4 N8 O13)n'
_symmetry_cell_setting           triclinic
_symmetry_space_group_name_H-M   'P 1'
_symmetry_Int_Tables_number      1
_space_group_name_Hall           'P 1'
loop_
_symmetry_equiv_pos_site_id
_symmetry_equiv_pos_as_xyz
1 x,y,z
_cell_length_a                   11.5585(9)
_cell_length_b                   22.1616(14)
_cell_length_c                   11.4154(9)
_cell_angle_alpha                90
_cell_angle_beta                 115.758(9)
_cell_angle_gamma                90
_cell_volume                     2633.56
loop_
_atom_site_label
_atom_site_type_symbol
_atom_site_fract_x
_atom_site_fract_y
_atom_site_fract_z
O7 O 0.5085(9) 0.0318(5) 0.2315(8)
C36 C 0.2809(14) 0.0334(7) 0.1328(12)
C37 C 0.2708(14) 0.0948(6) 0.1117(14)
H21 H 0.3464 0.1181 0.1342
C38 C 0.1530(14) 0.1230(7) 0.0586(15)
H22 H 0.1486 0.1652 0.0428
C39 C 0.0414(13) 0.0910(7) 0.0280(13)
C40 C 0.0508(13) 0.0283(6) 0.0523(12)
C41 C 0.1679(14) 0.0004(6) 0.1034(13)
C42 C 0.4071(13) 0.0009(6) 0.1860(11)
C3 C 0.9865(14) 0.0641(6) 0.3604(13)
H1 H 0.9053 0.0813 0.3428
H15 H 0.7158 0.0283 0.9110
O8 O 0.4068(9) 0.9444(5) 0.1839(7)
H24 H 0.1729 0.9582 0.1192
Co4 Co 0.61672(19) 0.94564(9) 0.27385(16)
O4 O 0.9975(9) 0.7306(4) 0.3513(9)
Co6 Co 0.89230(19) 0.81684(9) 0.31143(17)
N2 N 0.6122(9) 0.9463(5) 0.0816(9)
N4 N 0.8808(10) 0.8170(6) 0.1140(9)
H13 H 0.5226 0.8696 0.0232
C26 C 0.6669(14) 0.9930(6) 0.0468(13)
C48 C 0.7935(13) 0.7880(6) 0.0187(12)
H29 H 0.7298 0.7667 0.0333
C52 C 0.9705(13) 0.8473(7) 0.0953(12)
O1 O 0.7923(8) 0.9833(4) 0.3466(8)
O2 O 0.8937(9) 0.9083(4) 0.3012(8)
O5 O 0.6110(9) 0.8546(4) 0.2825(8)
O6 O 0.7148(9) 0.7798(4) 0.2375(8)
N1 N 0.6269(10) 0.9452(6) 0.4642(9)
N3 N 0.8945(9) 0.8152(5) 0.4976(8)
C1 C 0.8870(12) 0.9613(6) 0.3359(10)
C17 C 0.7168(14) 0.9758(7) 0.5682(12)
H9 H 0.7820 0.9973 0.5560
C18 C 0.7182(13) 0.9773(6) 0.6893(12)
H10 H 0.7836 0.9995 0.7569
C19 C 0.6281(13) 0.9477(7) 0.7153(12)
C20 C 0.5363(13) 0.9138(6) 0.6095(11)
H11 H 0.4727 0.8908 0.6212
C21 C 0.5399(14) 0.9144(6) 0.4902(13)
H12 H 0.4769 0.8916 0.4217
C22 C 0.5625(11) 0.9018(6) 0.9998(11)
C23 C 0.5660(11) 0.9002(7) 0.8806(12)
H14 H 0.5295 0.8670 0.8237
C24 C 0.6233(12) 0.9474(7) 0.8433(12)
C25 C 0.6755(14) 0.9952(6) 0.9313(12)
C27 C 0.6179(13) 0.8021(6) 0.2462(12)
C28 C 0.5059(12) 0.7611(6) 0.2131(11)
C29 C 0.3839(14) 0.7848(6) 0.1843(12)
H17 H 0.3743 0.8269 0.1936
C30 C 0.2780(14) 0.7477(7) 0.1429(13)
H18 H 0.1949 0.7643 0.1185
C31 C 0.2940(14) 0.6857(7) 0.1372(13)
C32 C 0.4158(16) 0.6626(7) 0.1703(14)
H19 H 0.4278 0.6203 0.1683
C33 C 0.5172(13) 0.7000(6) 0.2054(13)
H20 H 0.5994 0.6834 0.2255
C34 C 0.1788(13) 0.6485(6) 0.0848(14)
C35 C 0.0818(13) 0.6210(6) 0.0345(14)
C43 C 0.9470(13) 0.8611(7) 0.5876(12)
H25 H 0.9900 0.8929 0.5668
C44 C 0.9410(12) 0.8638(6) 0.7046(10)
H26 H 0.9764 0.8976 0.7599
C45 C 0.8852(11) 0.8188(7) 0.7425(10)
C46 C 0.8331(13) 0.7698(6) 0.6559(12)
H27 H 0.7939 0.7368 0.6779
C47 C 0.8407(12) 0.7713(6) 0.5399(11)
H28 H 0.8045 0.7381 0.4831
C49 C 0.7892(13) 0.7869(7) 0.8941(13)
H30 H 0.7247 0.7645 0.8259
C50 C 0.8813(11) 0.8194(7) 0.8720(12)
C51 C 0.9754(16) 0.8481(8) 0.9768(14)
H23 H 0.9753 0.0054 0.0330
Co1 Co 0.38328(19) 0.44564(9) 0.72615(16)
Co2 Co 0.10770(19) 0.31684(9) 0.68857(17)
O1_2 O 0.2077(8) 0.4833(4) 0.6534(8)
O2_2 O 0.1063(9) 0.4083(4) 0.6988(8)
O5_2 O 0.3890(9) 0.3546(4) 0.7175(8)
O6_2 O 0.2852(9) 0.2798(4) 0.7625(8)
N1_2 N 0.3731(10) 0.4452(6) 0.5358(9)
N3_2 N 0.1055(9) 0.3152(5) 0.5024(8)
C1_2 C 0.1130(12) 0.4613(6) 0.6641(10)
C3_2 C 0.0135(14) 0.5641(6) 0.6396(13)
H1_2 H 0.0947 0.5813 0.6572
C17_2 C 0.2832(14) 0.4758(7) 0.4318(12)
H9_2 H 0.2180 0.4973 0.4440
C18_2 C 0.2818(13) 0.4773(6) 0.3107(12)
H10_2 H 0.2164 0.4995 0.2431
C19_2 C 0.3719(13) 0.4477(7) 0.2847(12)
C20_2 C 0.4637(13) 0.4138(6) 0.3905(11)
H11_2 H 0.5273 0.3908 0.3788
C21_2 C 0.4601(14) 0.4144(6) 0.5098(13)
H12_2 H 0.5231 0.3916 0.5783
C22_2 C 0.4375(11) 0.4018(6) 0.0002(11)
C23_2 C 0.4340(11) 0.4002(7) 0.1194(12)
H14_2 H 0.4705 0.3670 0.1763
C24_2 C 0.3767(12) 0.4474(7) 0.1567(12)
C25_2 C 0.3245(14) 0.4952(6) 0.0687(12)
H15_2 H 0.2842 0.5283 0.0890
C27_2 C 0.3821(13) 0.3021(6) 0.7538(12)
C28_2 C 0.4941(12) 0.2611(6) 0.7869(11)
C29_2 C 0.6161(14) 0.2848(6) 0.8157(12)
H17_2 H 0.6257 0.3269 0.8064
C30_2 C 0.7220(14) 0.2477(7) 0.8571(13)
H18_2 H 0.8051 0.2643 0.8815
C31_2 C 0.7060(14) 0.1857(7) 0.8628(13)
C32_2 C 0.5842(16) 0.1626(7) 0.8297(14)
H19_2 H 0.5722 0.1203 0.8317
C33_2 C 0.4828(13) 0.2000(6) 0.7946(13)
H20_2 H 0.4006 0.1834 0.7745
C34_2 C 0.8212(13) 0.1485(6) 0.9152(14)
C35_2 C 0.9182(13) 0.1210(6) 0.9655(14)
C43_2 C 0.0530(13) 0.3611(7) 0.4124(12)
H25_2 H 0.0100 0.3929 0.4332
C44_2 C 0.0590(12) 0.3638(6) 0.2954(10)
H26_2 H 0.0236 0.3976 0.2401
C45_2 C 0.1148(11) 0.3188(7) 0.2575(10)
C46_2 C 0.1669(13) 0.2698(6) 0.3441(12)
H27_2 H 0.2061 0.2368 0.3221
C47_2 C 0.1593(12) 0.2713(6) 0.4601(11)
H28_2 H 0.1955 0.2381 0.5169
C49_2 C 0.2108(13) 0.2869(7) 0.1059(13)
H30_2 H 0.2753 0.2645 0.1741
C50_2 C 0.1187(11) 0.3194(7) 0.1280(12)
C51_2 C 0.0246(16) 0.3481(8) 0.0232(14)
O10 O 0.0025(9) 0.2306(4) 0.6487(9)
O11 O 0.4915(9) 0.5318(5) 0.7685(8)
O12 O 0.5932(9) 0.4444(5) 0.8161(7)
N5 N 0.3878(9) 0.4463(5) 0.9184(9)
N6 N 0.1192(10) 0.3170(6) 0.8860(9)
H13_2 H 0.4774 0.3696 0.9768
C26_2 C 0.3331(14) 0.4930(6) 0.9532(13)
H16 H 0.2992 0.5258 0.8944
C48_2 C 0.2065(13) 0.2880(6) 0.9813(12)
H29_2 H 0.2702 0.2667 0.9667
C52_2 C 0.0295(13) 0.3473(7) 0.9047(12)
C36_2 C 0.7191(14) 0.5334(7) 0.8672(12)
C37_2 C 0.7292(14) 0.5948(6) 0.8883(14)
H21_2 H 0.6536 0.6181 0.8658
C38_2 C 0.8470(14) 0.6230(7) 0.9414(15)
H22_2 H 0.8514 0.6652 0.9572
C39_2 C 0.9586(13) 0.5910(7) 0.9720(13)
C40_2 C 0.9492(13) 0.5283(6) 0.9477(12)
C41_2 C 0.8321(14) 0.5004(6) 0.8966(13)
H24_2 H 0.8271 0.4582 0.8808
C42_2 C 0.5929(13) 0.5009(6) 0.8140(11)
O3 O 0.0987(8) 0.8182(5) 0.3953(7)
C2 C 0.9994(14) 0.5015(6) 0.6392(11)
C4 C 0.9087(12) 0.6009(6) 0.6141(14)
H2 H 0.9175 0.6435 0.6125
C5 C 0.7894(13) 0.5756(6) 0.5907(12)
C6 C 0.7780(14) 0.5132(6) 0.5924(12)
H3 H 0.6977 0.4955 0.5765
C7 C 0.8833(13) 0.4770(7) 0.6171(12)
H4 H 0.8749 0.4344 0.6187
C8 C 0.6798(14) 0.6131(7) 0.5655(14)
C9 C 0.5826(14) 0.6409(7) 0.5397(13)
C10 C 0.2283(13) 0.7288(6) 0.4345(12)
C11 C 0.3365(13) 0.7615(7) 0.4568(12)
H5 H 0.3308 0.8041 0.4471
C12 C 0.4544(14) 0.7331(7) 0.4935(12)
H6 H 0.5285 0.7561 0.5076
C13 C 0.4633(14) 0.6716(6) 0.5091(13)
C14 C 0.3527(16) 0.6381(6) 0.4886(16)
H7 H 0.3572 0.5955 0.4996
C15 C 0.2384(14) 0.6678(7) 0.4524(14)
H8 H 0.1638 0.6452 0.4393
C16 C 0.1000(14) 0.7606(7) 0.3913(12)
H31 H 0.9567 0.3685 0.0324
O9 O 0.9013(8) 0.3182(5) 0.6047(7)
C2_2 C 0.0006(14) 0.0015(6) 0.3608(11)
C4_2 C 0.0913(12) 0.1009(6) 0.3859(14)
H2_2 H 0.0825 0.1435 0.3875
C5_2 C 0.2106(13) 0.0756(6) 0.4093(12)
C6_2 C 0.2220(14) 0.0132(6) 0.4076(12)
C8_2 C 0.3202(14) 0.1131(7) 0.4345(14)
C9_2 C 0.4174(14) 0.1409(7) 0.4603(13)
C10_2 C 0.7717(13) 0.2288(6) 0.5655(12)
C11_2 C 0.6635(13) 0.2615(7) 0.5432(12)
H5_2 H 0.6692 0.3041 0.5529
C12_2 C 0.5456(14) 0.2331(7) 0.5065(12)
H6_2 H 0.4715 0.2561 0.4924
C13_2 C 0.5367(14) 0.1716(6) 0.4909(13)
C14_2 C 0.6473(16) 0.1381(6) 0.5114(16)
H7_2 H 0.6428 0.0955 0.5004
C15_2 C 0.7616(14) 0.1678(7) 0.5476(14)
H8_2 H 0.8362 0.1452 0.5607
C16_2 C 0.9000(14) 0.2606(7) 0.6087(12)
H3_2 H 0.3023 0.9955 0.4235
C7_2 C 0.1167(13) 0.9770(7) 0.3829(12)
H4_2 H 0.1251 0.9344 0.3813
H31_2 H 0.0433 0.8685 0.9676
H32 H 0.9666 0.3691 0.8340
H32_2 H 0.0334 0.8691 0.1660
H16_2 H 0.7008 0.0258 0.1056
H23_2 H 0.0247 0.5054 0.9670
loop_
_geom_bond_atom_site_label_1
_geom_bond_atom_site_label_2
_geom_bond_site_symmetry_1
_geom_bond_site_symmetry_2
O7 C42 1_555 1_555
C36 C37 1_555 1_555
C37 H21 1_555 1_555
C38 C37 1_555 1_555
H22 C38 1_555 1_555
C40 C39 1_555 1_555
C41 C36 1_555 1_555
C42 C36 1_555 1_555
C38 C39 1_555 1_555
C40 C41 1_555 1_555
C3 H1 1_555 1_555
O8 Co4 1_555 1_555
O4 Co6 1_555 1_555
N4 C48 1_555 1_555
C26 N2 1_555 1_555
C48 H29 1_555 1_555
C52 N4 1_555 1_555
Co4 N2 1_555 1_555
Co6 N4 1_555 1_555
Co4 O1 1_555 1_555
Co6 O2 1_555 1_555
O1 C1 1_555 1_555
O2 C1 1_555 1_555
O5 Co4 1_555 1_555
O6 Co6 1_555 1_555
N1 Co4 1_555 1_555
N3 Co6 1_555 1_555
C17 N1 1_555 1_555
H9 C17 1_555 1_555
C18 C17 1_555 1_555
H10 C18 1_555 1_555
C19 C18 1_555 1_555
C20 C19 1_555 1_555
H11 C20 1_555 1_555
C21 N1 1_555 1_555
H12 C21 1_555 1_555
C23 C22 1_555 1_555
H14 C23 1_555 1_555
C24 C19 1_555 1_555
C25 C24 1_555 1_555
C27 O5 1_555 1_555
C28 C27 1_555 1_555
C29 C28 1_555 1_555
H17 C29 1_555 1_555
C30 C29 1_555 1_555
H18 C30 1_555 1_555
C31 C30 1_555 1_555
C32 C31 1_555 1_555
H19 C32 1_555 1_555
C33 C28 1_555 1_555
H20 C33 1_555 1_555
C34 C31 1_555 1_555
C35 C34 1_555 1_555
C43 N3 1_555 1_555
H25 C43 1_555 1_555
C44 C43 1_555 1_555
H26 C44 1_555 1_555
C45 C44 1_555 1_555
C46 C45 1_555 1_555
H27 C46 1_555 1_555
C47 N3 1_555 1_555
H28 C47 1_555 1_555
H30 C49 1_555 1_555
C50 C45 1_555 1_555
C51 C50 1_555 1_555
O6 C27 1_555 1_555
C20 C21 1_555 1_555
C23 C24 1_555 1_555
C32 C33 1_555 1_555
C46 C47 1_555 1_555
C49 C50 1_555 1_555
Co1 O1_2 1_555 1_555
Co2 O2_2 1_555 1_555
O1_2 C1_2 1_555 1_555
O2_2 C1_2 1_555 1_555
O5_2 Co1 1_555 1_555
O6_2 Co2 1_555 1_555
N1_2 Co1 1_555 1_555
N3_2 Co2 1_555 1_555
C3_2 H1_2 1_555 1_555
C17_2 N1_2 1_555 1_555
H9_2 C17_2 1_555 1_555
C18_2 C17_2 1_555 1_555
H10_2 C18_2 1_555 1_555
C19_2 C18_2 1_555 1_555
C20_2 C19_2 1_555 1_555
H11_2 C20_2 1_555 1_555
C21_2 N1_2 1_555 1_555
H12_2 C21_2 1_555 1_555
C23_2 C22_2 1_555 1_555
H14_2 C23_2 1_555 1_555
C24_2 C19_2 1_555 1_555
C25_2 C24_2 1_555 1_555
H15_2 C25_2 1_555 1_555
C27_2 O5_2 1_555 1_555
C28_2 C27_2 1_555 1_555
C29_2 C28_2 1_555 1_555
H17_2 C29_2 1_555 1_555
C30_2 C29_2 1_555 1_555
H18_2 C30_2 1_555 1_555
C31_2 C30_2 1_555 1_555
C32_2 C31_2 1_555 1_555
H19_2 C32_2 1_555 1_555
C33_2 C28_2 1_555 1_555
H20_2 C33_2 1_555 1_555
C34_2 C31_2 1_555 1_555
C35_2 C34_2 1_555 1_555
C43_2 N3_2 1_555 1_555
H25_2 C43_2 1_555 1_555
C44_2 C43_2 1_555 1_555
H26_2 C44_2 1_555 1_555
C45_2 C44_2 1_555 1_555
C46_2 C45_2 1_555 1_555
H27_2 C46_2 1_555 1_555
C47_2 N3_2 1_555 1_555
H28_2 C47_2 1_555 1_555
H30_2 C49_2 1_555 1_555
C50_2 C45_2 1_555 1_555
C51_2 C50_2 1_555 1_555
O10 Co2 1_555 1_555
O11 Co1 1_555 1_555
O12 Co1 1_555 1_555
N5 Co1 1_555 1_555
N6 Co2 1_555 1_555
O6_2 C27_2 1_555 1_555
C20_2 C21_2 1_555 1_555
C23_2 C24_2 1_555 1_555
C32_2 C33_2 1_555 1_555
C46_2 C47_2 1_555 1_555
C49_2 C50_2 1_555 1_555
N6 C48_2 1_555 1_555
C26_2 N5 1_555 1_555
H16 C26_2 1_555 1_555
C48_2 H29_2 1_555 1_555
C52_2 N6 1_555 1_555
O11 C42_2 1_555 1_555
O12 C42_2 1_555 1_555
C36_2 C37_2 1_555 1_555
C37_2 H21_2 1_555 1_555
C38_2 C37_2 1_555 1_555
H22_2 C38_2 1_555 1_555
C40_2 C39_2 1_555 1_555
C41_2 C36_2 1_555 1_555
H24_2 C41_2 1_555 1_555
C42_2 C36_2 1_555 1_555
C38_2 C39_2 1_555 1_555
C40_2 C41_2 1_555 1_555
O3 C16 1_555 1_555
H2 C4 1_555 1_555
C5 C4 1_555 1_555
C6 C5 1_555 1_555
H3 C6 1_555 1_555
C7 C2 1_555 1_555
H4 C7 1_555 1_555
C8 C5 1_555 1_555
C9 C8 1_555 1_555
C10 C11 1_555 1_555
C11 H5 1_555 1_555
C12 C11 1_555 1_555
H6 C12 1_555 1_555
C13 C9 1_555 1_555
C14 C13 1_555 1_555
H7 C14 1_555 1_555
C15 C10 1_555 1_555
H8 C15 1_555 1_555
C16 C10 1_555 1_555
C6 C7 1_555 1_555
C12 C13 1_555 1_555
C14 C15 1_555 1_555
O9 C16_2 1_555 1_555
H2_2 C4_2 1_555 1_555
C5_2 C4_2 1_555 1_555
C6_2 C5_2 1_555 1_555
C8_2 C5_2 1_555 1_555
C9_2 C8_2 1_555 1_555
C10_2 C11_2 1_555 1_555
C11_2 H5_2 1_555 1_555
C12_2 C11_2 1_555 1_555
H6_2 C12_2 1_555 1_555
C13_2 C9_2 1_555 1_555
C14_2 C13_2 1_555 1_555
H7_2 C14_2 1_555 1_555
C15_2 C10_2 1_555 1_555
H8_2 C15_2 1_555 1_555
C16_2 C10_2 1_555 1_555
C12_2 C13_2 1_555 1_555
C14_2 C15_2 1_555 1_555
H4_2 C7_2 1_555 1_555

#END
