
###############################################################################
#
# This file contains modified crystal structure data generated from the
# MOF subset of the Cambridge Structural Database (CSD) v543 
# hosted by the Cambridge Crystallographic Data Centre (CCDC).
#
# This work is licensed under the Creative Commons
# Attribution-NonCommercial-ShareAlike 4.0 International License.
# To view a copy of this license, visit
# http://creativecommons.org/licenses/by-nc-sa/4.0/
# or send a letter to
# Creative Commons, PO Box 1866, Mountain View, CA 94042, USA.
#
# CIF created using the CSD Python API on 29 September 2022
# The structure has been converted into the P1 space group
# The structure has a 3D framework
# The original CSD entry XAYSID is in the triclinic crystal system
# The framework has been calculated to contain at least 10.0% void space
# The void calculation uses a probe of radius 1.32A, grid spacing 0.4
#
###############################################################################

data_XAYSID
_chemical_formula_moiety         '(C104 H64 Co4 N8 O16)n'
_symmetry_cell_setting           triclinic
_symmetry_space_group_name_H-M   'P 1'
_symmetry_Int_Tables_number      1
_space_group_name_Hall           'P 1'
loop_
_symmetry_equiv_pos_site_id
_symmetry_equiv_pos_as_xyz
1 x,y,z
_cell_length_a                   11.4615(4)
_cell_length_b                   22.5462(19)
_cell_length_c                   11.3788(6)
_cell_angle_alpha                77.800(5)
_cell_angle_beta                 115.734(4)
_cell_angle_gamma                94.152(5)
_cell_volume                     2588.35
loop_
_atom_site_label
_atom_site_type_symbol
_atom_site_fract_x
_atom_site_fract_y
_atom_site_fract_z
O12 O 0.0276(8) 0.1018(5) 0.5097(10)
C19 C 0.7921(13) 0.3512(8) 0.8000(16)
H9 H 0.7167 0.3725 0.7787
C20 C 0.9119(14) 0.3790(8) 0.8503(16)
H10 H 0.9158 0.4187 0.8627
O8 O 0.1453(10) 0.0297(5) 0.4949(10)
C27 C 0.8973(13) 0.2607(8) 0.8067(16)
H16 H 0.8934 0.2224 0.7870
C28 C 0.7852(14) 0.2902(9) 0.781(2)
C29 C 0.6636(14) 0.2636(9) 0.715(2)
C30 C 0.5672(15) 0.2374(11) 0.673(2)
C31 C 0.2429(13) 0.1231(8) 0.5534(17)
C32 C 0.3683(18) 0.1024(9) 0.580(2)
H17 H 0.3778 0.0641 0.5662
C33 C 0.4747(14) 0.1376(10) 0.6240(19)
H18 H 0.5567 0.1221 0.6482
C34 C 0.4593(14) 0.1966(9) 0.633(2)
C35 C 0.3368(16) 0.2202(10) 0.593(2)
H19 H 0.3257 0.2611 0.5898
C36 C 0.2284(14) 0.1821(8) 0.5580(17)
H20 H 0.1471 0.1973 0.5380
C37 C 0.1333(16) 0.0804(8) 0.5209(14)
H27 H 0.2346 0.0172 0.9682
H28 H 0.2328 0.0185 0.7630
H31 H 0.0160 0.1165 0.9123
H32 H 0.0143 0.1174 0.7073
Co7 Co 0.14480(18) 0.93914(11) 0.5485(2)
O3 O 0.2541(9) 0.8512(5) 0.6249(12)
O4 O 0.3542(10) 0.9380(5) 0.6372(11)
H2 H 0.9396 0.6223 0.8063
C8 C 0.9366(15) 0.7362(9) 0.8019(17)
C9 C 0.8376(13) 0.7641(10) 0.7801(17)
C10 C 0.4844(15) 0.8482(8) 0.6936(17)
C11 C 0.4933(14) 0.7862(8) 0.7080(17)
H5 H 0.4197 0.7633 0.6958
C12 C 0.6072(12) 0.7576(9) 0.7397(16)
H6 H 0.6109 0.7156 0.7501
C13 C 0.7201(12) 0.7923(7) 0.7568(12)
C14 C 0.7105(12) 0.8547(8) 0.7412(15)
H7 H 0.7818 0.8786 0.7482
C15 C 0.5918(13) 0.8818(9) 0.715(2)
H8 H 0.5875 0.9232 0.7115
C16 C 0.3586(13) 0.8799(8) 0.6548(16)
N4 N 0.1381(8) 0.9377(4) 0.3565(6)
C48 C 0.2289(8) 0.9710(4) 0.3211(7)
H29 H 0.2903 0.9930 0.3796
C49 C 0.2279(8) 0.9716(4) 0.1983(8)
H30 H 0.2886 0.9940 0.1746
C50 C 0.1362(8) 0.9388(4) 0.1108(6)
C51 C 0.0454(8) 0.9055(4) 0.1462(7)
C52 C 0.0464(8) 0.9049(4) 0.2690(8)
N3 N 0.1443(8) 0.9383(4) 0.7363(6)
C43 C 0.0920(9) 0.8898(3) 0.7940(7)
H25 H 0.0562 0.8578 0.7503
C44 C 0.0931(10) 0.8889(3) 0.9169(7)
H26 H 0.0580 0.8565 0.9555
C45 C 0.1465(10) 0.9367(4) 0.9822(7)
C46 C 0.1988(10) 0.9852(4) 0.9245(8)
C47 C 0.1978(8) 0.9860(3) 0.8015(7)
Co2 Co 0.85520(18) 0.06086(11) 0.4515(2)
N3_2 N 0.8557(8) 0.0617(4) 0.2637(6)
C43_2 C 0.9080(9) 0.1102(3) 0.2060(7)
H25_2 H 0.9438 0.1422 0.2497
C44_2 C 0.9069(10) 0.1111(3) 0.0831(7)
H26_2 H 0.9420 0.1435 0.0445
C45_2 C 0.8535(10) 0.0633(4) 0.0178(7)
C46_2 C 0.8012(10) 0.0148(4) 0.0755(8)
C47_2 C 0.8022(8) 0.0140(3) 0.1985(7)
O10 O 0.7459(9) 0.1488(5) 0.3751(12)
O11 O 0.6458(10) 0.0620(5) 0.3628(11)
N6 N 0.8619(8) 0.0623(4) 0.6435(6)
C48_2 C 0.7711(8) 0.0290(4) 0.6789(7)
H29_2 H 0.7097 0.0070 0.6204
C49_2 C 0.7721(8) 0.0284(4) 0.8017(8)
H30_2 H 0.7114 0.0060 0.8254
C50_2 C 0.8638(8) 0.0612(4) 0.8892(6)
C51_2 C 0.9546(8) 0.0945(4) 0.8538(7)
C52_2 C 0.9536(8) 0.0951(4) 0.7310(8)
H2_2 H 0.0604 0.3777 0.1937
C8_2 C 0.0634(15) 0.2638(9) 0.1981(17)
C9_2 C 0.1624(13) 0.2359(10) 0.2199(17)
C10_2 C 0.5156(15) 0.1518(8) 0.3064(17)
C11_2 C 0.5067(14) 0.2138(8) 0.2920(17)
H5_2 H 0.5803 0.2367 0.3042
C12_2 C 0.3928(12) 0.2424(9) 0.2603(16)
H6_2 H 0.3891 0.2844 0.2499
C13_2 C 0.2799(12) 0.2077(7) 0.2432(12)
C14_2 C 0.2895(12) 0.1453(8) 0.2588(15)
H7_2 H 0.2182 0.1214 0.2518
C15_2 C 0.4082(13) 0.1182(9) 0.285(2)
H8_2 H 0.4125 0.0768 0.2885
C16_2 C 0.6414(13) 0.1201(8) 0.3452(16)
C19_2 C 0.2079(13) 0.6488(8) 0.2000(16)
H9_2 H 0.2833 0.6275 0.2213
C20_2 C 0.0881(14) 0.6210(8) 0.1497(16)
H10_2 H 0.0842 0.5813 0.1373
O7 O 0.9724(8) 0.8982(5) 0.4903(10)
O8_2 O 0.8547(10) 0.9703(5) 0.5051(10)
C27_2 C 0.1027(13) 0.7393(8) 0.1933(16)
H16_2 H 0.1066 0.7776 0.2130
C28_2 C 0.2148(14) 0.7098(9) 0.219(2)
C29_2 C 0.3364(14) 0.7364(9) 0.285(2)
C30_2 C 0.4328(15) 0.7626(11) 0.327(2)
C31_2 C 0.7571(13) 0.8769(8) 0.4466(17)
C32_2 C 0.6317(18) 0.8976(9) 0.420(2)
H17_2 H 0.6222 0.9359 0.4338
C33_2 C 0.5253(14) 0.8624(10) 0.3760(19)
H18_2 H 0.4433 0.8779 0.3518
C34_2 C 0.5407(14) 0.8034(9) 0.367(2)
C35_2 C 0.6632(16) 0.7798(10) 0.407(2)
H19_2 H 0.6743 0.7389 0.4102
C36_2 C 0.7716(14) 0.8179(8) 0.4420(17)
H20_2 H 0.8529 0.8027 0.4620
C37_2 C 0.8667(16) 0.9196(8) 0.4791(14)
H27_2 H 0.7654 0.9828 0.0318
H28_2 H 0.7672 0.9815 0.2370
O5 O 0.8496(8) 0.5633(5) 0.0859(9)
O6 O 0.7415(9) 0.6507(5) 0.0155(10)
C17 C 0.8479(13) 0.6205(8) 0.0696(13)
C18 C 0.9747(15) 0.6522(9) 0.1180(19)
C26 C 0.9770(16) 0.7104(9) 0.1352(19)
H15 H 0.9004 0.7314 0.1106
O9 O 0.6440(8) 0.4734(5) 0.0303(8)
Co4 Co 0.36257(17) 0.43697(11) 0.00157(19)
N5 N 0.6416(7) 0.5607(4) 0.1894(6)
O1 O 0.3560(8) 0.5266(5) 0.9697(8)
O2 O 0.4618(8) 0.6065(5) 0.9099(9)
C1 C 0.3636(12) 0.5819(8) 0.9272(12)
C2 C 0.2529(12) 0.6239(7) 0.8845(14)
C3 C 0.1262(12) 0.5988(8) 0.8625(17)
H1 H 0.1145 0.5572 0.8709
C4 C 0.0224(13) 0.6377(8) 0.8287(17)
C5 C 0.0420(16) 0.7000(9) 0.8282(17)
C6 C 0.1633(15) 0.7230(9) 0.854(2)
H3 H 0.1766 0.7640 0.8559
C7 C 0.2678(15) 0.6859(9) 0.876(2)
H4 H 0.3469 0.7031 0.8861
Co1 Co 0.63743(17) 0.56303(11) 0.99843(19)
N1 N 0.6315(7) 0.5655(4) 0.8064(6)
C21 C 0.5394(7) 0.5996(4) 0.6900(7)
H11 H 0.4780 0.6230 0.6937
C22 C 0.5391(7) 0.5987(4) 0.5681(6)
H12 H 0.4775 0.6215 0.4902
C23 C 0.6309(7) 0.5637(4) 0.5626(5)
C24 C 0.7229(7) 0.5296(4) 0.6789(7)
H13 H 0.7843 0.5061 0.6752
C25 C 0.7232(7) 0.5305(4) 0.8008(6)
H14 H 0.7848 0.5077 0.8787
C38 C 0.6940(8) 0.5122(3) 0.2960(7)
H21 H 0.7300 0.4789 0.2865
C39 C 0.6926(8) 0.5135(3) 0.4170(6)
H22 H 0.7276 0.4810 0.4884
C40 C 0.6387(8) 0.5632(4) 0.4313(6)
C41 C 0.5863(9) 0.6118(4) 0.3247(7)
H23 H 0.5503 0.6451 0.3342
C42 C 0.5878(8) 0.6105(3) 0.2037(6)
H24 H 0.5527 0.6430 0.1323
O2_2 O 0.5382(8) 0.3935(5) 0.0901(9)
C1_2 C 0.6364(12) 0.4181(8) 0.0728(12)
C2_2 C 0.7471(12) 0.3761(7) 0.1155(14)
C3_2 C 0.8738(12) 0.4012(8) 0.1375(17)
H1_2 H 0.8855 0.4428 0.1291
C4_2 C 0.9776(13) 0.3623(8) 0.1713(17)
C5_2 C 0.9580(16) 0.3000(9) 0.1718(17)
C6_2 C 0.8367(15) 0.2770(9) 0.146(2)
H3_2 H 0.8234 0.2360 0.1441
C7_2 C 0.7322(15) 0.3141(9) 0.124(2)
H4_2 H 0.6531 0.2969 0.1139
N1_2 N 0.3685(7) 0.4345(4) 0.1936(6)
C21_2 C 0.4606(7) 0.4004(4) 0.3100(7)
H11_2 H 0.5220 0.3770 0.3063
C22_2 C 0.4609(7) 0.4013(4) 0.4319(6)
H12_2 H 0.5225 0.3785 0.5098
C23_2 C 0.3691(7) 0.4363(4) 0.4374(5)
C24_2 C 0.2771(7) 0.4704(4) 0.3211(7)
H13_2 H 0.2157 0.4939 0.3248
C25_2 C 0.2768(7) 0.4695(4) 0.1992(6)
H14_2 H 0.2152 0.4923 0.1213
N2 N 0.3584(7) 0.4393(4) 0.8106(6)
C38_2 C 0.3060(8) 0.4878(3) 0.7040(7)
H21_2 H 0.2700 0.5211 0.7135
C39_2 C 0.3074(8) 0.4865(3) 0.5830(6)
H22_2 H 0.2724 0.5190 0.5116
C40_2 C 0.3613(8) 0.4368(4) 0.5687(6)
C41_2 C 0.4137(9) 0.3882(4) 0.6753(7)
H23_2 H 0.4497 0.3549 0.6658
C42_2 C 0.4122(8) 0.3895(3) 0.7963(6)
H24_2 H 0.4473 0.3570 0.8677
O5_2 O 0.1504(8) 0.4367(5) 0.9141(9)
O6_2 O 0.2585(9) 0.3493(5) 0.9845(10)
C17_2 C 0.1521(13) 0.3795(8) 0.9304(13)
C18_2 C 0.0253(15) 0.3478(9) 0.8820(19)
C26_2 C 0.0230(16) 0.2896(9) 0.8648(19)
H15_2 H 0.0996 0.2686 0.8894
H31_2 H 0.9840 0.8835 0.0877
H32_2 H 0.9857 0.8826 0.2927
loop_
_geom_bond_atom_site_label_1
_geom_bond_atom_site_label_2
_geom_bond_site_symmetry_1
_geom_bond_site_symmetry_2
C19 H9 1_555 1_555
H10 C20 1_555 1_555
O12 C37 1_555 1_555
O8 C37 1_555 1_555
H16 C27 1_555 1_555
C28 C19 1_555 1_555
C29 C28 1_555 1_555
C30 C29 1_555 1_555
C31 C32 1_555 1_555
C32 H17 1_555 1_555
C33 C32 1_555 1_555
H18 C33 1_555 1_555
C34 C30 1_555 1_555
C35 C34 1_555 1_555
H19 C35 1_555 1_555
C36 C31 1_555 1_555
H20 C36 1_555 1_555
C37 C31 1_555 1_555
C19 C20 1_555 1_555
C27 C28 1_555 1_555
C33 C34 1_555 1_555
C35 C36 1_555 1_555
O3 C16 1_555 1_555
O4 C16 1_555 1_555
C9 C8 1_555 1_555
C10 C11 1_555 1_555
C11 H5 1_555 1_555
C12 C11 1_555 1_555
H6 C12 1_555 1_555
C13 C9 1_555 1_555
C14 C13 1_555 1_555
H7 C14 1_555 1_555
C15 C10 1_555 1_555
H8 C15 1_555 1_555
C16 C10 1_555 1_555
Co7 O3 1_555 1_555
O4 Co7 1_555 1_555
C12 C13 1_555 1_555
C14 C15 1_555 1_555
N4 C48 1_555 1_555
C48 H29 1_555 1_555
C49 C48 1_555 1_555
H30 C49 1_555 1_555
C51 C50 1_555 1_555
C52 N4 1_555 1_555
Co7 N4 1_555 1_555
C49 C50 1_555 1_555
C51 C52 1_555 1_555
N3 Co7 1_555 1_555
C43 N3 1_555 1_555
H25 C43 1_555 1_555
C44 C43 1_555 1_555
H26 C44 1_555 1_555
C45 C44 1_555 1_555
C46 C45 1_555 1_555
C47 N3 1_555 1_555
C46 C47 1_555 1_555
N3_2 Co2 1_555 1_555
C43_2 N3_2 1_555 1_555
H25_2 C43_2 1_555 1_555
C44_2 C43_2 1_555 1_555
H26_2 C44_2 1_555 1_555
C45_2 C44_2 1_555 1_555
C46_2 C45_2 1_555 1_555
C47_2 N3_2 1_555 1_555
O10 Co2 1_555 1_555
O11 Co2 1_555 1_555
N6 Co2 1_555 1_555
C46_2 C47_2 1_555 1_555
N6 C48_2 1_555 1_555
C48_2 H29_2 1_555 1_555
C49_2 C48_2 1_555 1_555
H30_2 C49_2 1_555 1_555
C51_2 C50_2 1_555 1_555
C52_2 N6 1_555 1_555
C49_2 C50_2 1_555 1_555
C51_2 C52_2 1_555 1_555
O10 C16_2 1_555 1_555
O11 C16_2 1_555 1_555
C9_2 C8_2 1_555 1_555
C10_2 C11_2 1_555 1_555
C11_2 H5_2 1_555 1_555
C12_2 C11_2 1_555 1_555
H6_2 C12_2 1_555 1_555
C13_2 C9_2 1_555 1_555
C14_2 C13_2 1_555 1_555
H7_2 C14_2 1_555 1_555
C15_2 C10_2 1_555 1_555
H8_2 C15_2 1_555 1_555
C16_2 C10_2 1_555 1_555
C12_2 C13_2 1_555 1_555
C14_2 C15_2 1_555 1_555
C19_2 H9_2 1_555 1_555
H10_2 C20_2 1_555 1_555
O7 C37_2 1_555 1_555
O8_2 C37_2 1_555 1_555
H16_2 C27_2 1_555 1_555
C28_2 C19_2 1_555 1_555
C29_2 C28_2 1_555 1_555
C30_2 C29_2 1_555 1_555
C31_2 C32_2 1_555 1_555
C32_2 H17_2 1_555 1_555
C33_2 C32_2 1_555 1_555
H18_2 C33_2 1_555 1_555
C34_2 C30_2 1_555 1_555
C35_2 C34_2 1_555 1_555
H19_2 C35_2 1_555 1_555
C36_2 C31_2 1_555 1_555
H20_2 C36_2 1_555 1_555
C37_2 C31_2 1_555 1_555
C19_2 C20_2 1_555 1_555
C27_2 C28_2 1_555 1_555
C33_2 C34_2 1_555 1_555
C35_2 C36_2 1_555 1_555
C17 O5 1_555 1_555
C18 C17 1_555 1_555
C26 C18 1_555 1_555
H15 C26 1_555 1_555
O6 C17 1_555 1_555
O1 C1 1_555 1_555
O2 C1 1_555 1_555
C1 C2 1_555 1_555
C2 C3 1_555 1_555
C3 H1 1_555 1_555
C4 C3 1_555 1_555
C5 C4 1_555 1_555
C6 C5 1_555 1_555
H3 C6 1_555 1_555
C7 C2 1_555 1_555
H4 C7 1_555 1_555
Co1 O2 1_555 1_555
N1 Co1 1_555 1_555
C21 N1 1_555 1_555
H11 C21 1_555 1_555
C22 C21 1_555 1_555
H12 C22 1_555 1_555
C23 C22 1_555 1_555
C24 C23 1_555 1_555
H13 C24 1_555 1_555
C25 N1 1_555 1_555
H14 C25 1_555 1_555
N5 C38 1_555 1_555
C38 H21 1_555 1_555
C39 C38 1_555 1_555
H22 C39 1_555 1_555
C40 C23 1_555 1_555
C41 C40 1_555 1_555
H23 C41 1_555 1_555
C42 N5 1_555 1_555
H24 C42 1_555 1_555
C6 C7 1_555 1_555
C24 C25 1_555 1_555
C39 C40 1_555 1_555
C41 C42 1_555 1_555
O9 C1_2 1_555 1_555
O2_2 C1_2 1_555 1_555
C1_2 C2_2 1_555 1_555
C2_2 C3_2 1_555 1_555
C3_2 H1_2 1_555 1_555
C4_2 C3_2 1_555 1_555
C5_2 C4_2 1_555 1_555
C6_2 C5_2 1_555 1_555
H3_2 C6_2 1_555 1_555
C7_2 C2_2 1_555 1_555
H4_2 C7_2 1_555 1_555
Co4 O2_2 1_555 1_555
N1_2 Co4 1_555 1_555
C21_2 N1_2 1_555 1_555
H11_2 C21_2 1_555 1_555
C22_2 C21_2 1_555 1_555
H12_2 C22_2 1_555 1_555
C23_2 C22_2 1_555 1_555
C24_2 C23_2 1_555 1_555
H13_2 C24_2 1_555 1_555
C25_2 N1_2 1_555 1_555
H14_2 C25_2 1_555 1_555
N2 C38_2 1_555 1_555
C38_2 H21_2 1_555 1_555
C39_2 C38_2 1_555 1_555
H22_2 C39_2 1_555 1_555
C40_2 C23_2 1_555 1_555
C41_2 C40_2 1_555 1_555
H23_2 C41_2 1_555 1_555
C42_2 N2 1_555 1_555
H24_2 C42_2 1_555 1_555
C6_2 C7_2 1_555 1_555
C24_2 C25_2 1_555 1_555
C39_2 C40_2 1_555 1_555
C41_2 C42_2 1_555 1_555
C17_2 O5_2 1_555 1_555
C18_2 C17_2 1_555 1_555
C26_2 C18_2 1_555 1_555
H15_2 C26_2 1_555 1_555
O6_2 C17_2 1_555 1_555

#END
