
###############################################################################
#
# This file contains modified crystal structure data generated from the
# MOF subset of the Cambridge Structural Database (CSD) v543 
# hosted by the Cambridge Crystallographic Data Centre (CCDC).
#
# This work is licensed under the Creative Commons
# Attribution-NonCommercial-ShareAlike 4.0 International License.
# To view a copy of this license, visit
# http://creativecommons.org/licenses/by-nc-sa/4.0/
# or send a letter to
# Creative Commons, PO Box 1866, Mountain View, CA 94042, USA.
#
# CIF created using the CSD Python API on 29 September 2022
# The structure has been converted into the P1 space group
# The structure has a 3D framework
# The original CSD entry XAYSUP is in the monoclinic crystal system
# The framework has been calculated to contain at least 10.0% void space
# The void calculation uses a probe of radius 1.32A, grid spacing 0.4
#
###############################################################################

data_XAYSUP
_chemical_formula_moiety         '(C104 H64 Co4 N8 O16)n'
_symmetry_cell_setting           triclinic
_symmetry_space_group_name_H-M   'P 1'
_symmetry_Int_Tables_number      1
_space_group_name_Hall           'P 1'
loop_
_symmetry_equiv_pos_site_id
_symmetry_equiv_pos_as_xyz
1 x,y,z
_cell_length_a                   8.128(3)
_cell_length_b                   30.382(11)
_cell_length_c                   11.390(4)
_cell_angle_alpha                90
_cell_angle_beta                 106.930(5)
_cell_angle_gamma                90
_cell_volume                     2690.8
loop_
_atom_site_label
_atom_site_type_symbol
_atom_site_fract_x
_atom_site_fract_y
_atom_site_fract_z
Co1 Co 0.69870(5) 0.54143(2) 0.08562(3)
O1 O 0.4463(2) 0.55517(6) 0.03751(15)
H1 H 0.4279 0.6375 0.0101
O5 O 0.7644(2) 0.47668(6) 0.10716(14)
O6 O 0.9587(2) 0.56559(6) 0.15072(16)
O7 O 0.7476(2) 0.61293(6) 0.09480(17)
N3 N 0.6892(3) 0.53955(6) 0.27252(18)
O2 O 0.2356(2) 0.52332(6) 0.89284(14)
N1 N 0.6995(3) 0.54105(6) 0.89768(19)
C1 C 0.3097(3) 0.55636(8) 0.9510(2)
C2 C 0.2249(3) 0.60016(8) 0.9151(2)
C3 C 0.3127(3) 0.63858(9) 0.9585(3)
C4 C 0.2307(4) 0.67891(9) 0.9260(3)
H2 H 0.2907 0.7053 0.9564
C5 C 0.0639(4) 0.68124(9) 0.8504(3)
C7 C 0.0605(4) 0.60184(10) 0.8388(3)
H4 H 0.0021 0.5753 0.8077
C17 C 0.6132(3) 0.57169(9) 0.8190(2)
H9 H 0.5577 0.5946 0.8497
C18 C 0.6010(3) 0.57161(9) 0.6964(2)
H10 H 0.5355 0.5937 0.6443
C19 C 0.6839(3) 0.53940(7) 0.6474(2)
C20 C 0.7717(3) 0.50816(8) 0.7307(2)
H11 H 0.8290 0.4849 0.7030
C21 C 0.7781(3) 0.50996(8) 0.8525(2)
H12 H 0.8414 0.4880 0.9065
C22 C 0.7658(5) 0.50882(11) 0.3511(3)
H13 H 0.8267 0.4864 0.3232
C23 C 0.7626(5) 0.50744(12) 0.4712(3)
H14 H 0.8177 0.4838 0.5223
C24 C 0.6819(3) 0.53922(7) 0.5185(2)
C25 C 0.5970(4) 0.57019(11) 0.4354(3)
H15 H 0.5318 0.5924 0.4602
C26 C 0.6051(4) 0.56952(10) 0.3161(2)
H16 H 0.5466 0.5920 0.2620
Co3 Co 0.30130(5) 0.45857(2) 0.91438(3)
O3 O 0.0413(2) 0.43441(6) 0.84928(16)
O4 O 0.2524(2) 0.38707(6) 0.90520(17)
C15 C 0.0232(4) 0.31479(10) 0.8515(3)
H8 H 0.1404 0.3087 0.8929
C16 C 0.0942(3) 0.39524(9) 0.8640(2)
N1_2 N 0.3005(3) 0.45895(6) 0.10232(19)
N2 N 0.3108(3) 0.46045(6) 0.72748(18)
C1_2 C 0.6903(3) 0.44364(8) 0.0490(2)
C2_2 C 0.7751(3) 0.39984(8) 0.0849(2)
C3_2 C 0.6873(3) 0.36142(9) 0.0415(3)
C4_2 C 0.7693(4) 0.32109(9) 0.0740(3)
H2_2 H 0.7093 0.2947 0.0436
C5_2 C 0.9361(4) 0.31876(9) 0.1496(3)
C7_2 C 0.9395(4) 0.39816(10) 0.1612(3)
H4_2 H 0.9979 0.4247 0.1923
C17_2 C 0.3868(3) 0.42831(9) 0.1810(2)
H9_2 H 0.4423 0.4054 0.1503
C18_2 C 0.3990(3) 0.42839(9) 0.3036(2)
H10_2 H 0.4645 0.4063 0.3557
C19_2 C 0.3161(3) 0.46060(7) 0.3526(2)
C20_2 C 0.2283(3) 0.49184(8) 0.2693(2)
H11_2 H 0.1710 0.5151 0.2970
C21_2 C 0.2219(3) 0.49004(8) 0.1475(2)
H12_2 H 0.1586 0.5120 0.0935
C22_2 C 0.2342(5) 0.49118(11) 0.6489(3)
H13_2 H 0.1733 0.5136 0.6768
C23_2 C 0.2374(5) 0.49256(12) 0.5288(3)
H14_2 H 0.1823 0.5162 0.4777
C24_2 C 0.3181(3) 0.46078(7) 0.4815(2)
C25_2 C 0.4030(4) 0.42981(11) 0.5646(3)
H15_2 H 0.4682 0.4076 0.5398
C26_2 C 0.3949(4) 0.43048(10) 0.6839(2)
H16_2 H 0.4534 0.4080 0.7380
O1_2 O 0.5537(2) 0.44483(6) 0.96249(15)
H1_2 H 0.5721 0.3625 0.9899
C15_2 C 0.9768(4) 0.68521(10) 0.1485(3)
H8_2 H 0.8596 0.6913 0.1071
C16_2 C 0.9058(3) 0.60476(9) 0.1360(2)
O3_2 O 0.4587(2) 0.93441(6) 0.65072(16)
O4_2 O 0.2476(2) 0.88707(6) 0.59480(17)
C6 C 0.9782(4) 0.64180(10) 0.8063(3)
H3 H 0.8635 0.6425 0.7539
C8 C 0.9699(4) 0.72171(10) 0.8172(3)
C9 C 0.8795(4) 0.75312(10) 0.7843(3)
C10 C 0.5304(3) 0.85801(9) 0.6717(2)
C11 C 0.7030(4) 0.86615(9) 0.7297(3)
H5 H 0.7425 0.8957 0.7438
C12 C 0.8164(4) 0.83238(10) 0.7665(3)
H6 H 0.9336 0.8386 0.8075
C13 C 0.7633(4) 0.78908(9) 0.7451(3)
C14 C 0.5904(4) 0.78066(10) 0.6844(3)
H7 H 0.5516 0.7512 0.6679
C15_3 C 0.4768(4) 0.81479(10) 0.6485(3)
H8_3 H 0.3596 0.8087 0.6071
C16_3 C 0.4058(3) 0.89524(9) 0.6360(2)
Co4 Co 0.19870(5) 0.95857(2) 0.58562(3)
N1_3 N 0.1995(3) 0.95895(6) 0.39768(19)
C17_3 C 0.1132(3) 0.92831(9) 0.3190(2)
H9_3 H 0.0577 0.9054 0.3497
C18_3 C 0.1010(3) 0.92839(9) 0.1964(2)
H10_3 H 0.0355 0.9063 0.1443
C19_3 C 0.1839(3) 0.96060(7) 0.1474(2)
C20_3 C 0.2717(3) 0.99184(8) 0.2307(2)
C21_3 C 0.2781(3) 0.99004(8) 0.3525(2)
C24_3 C 0.1819(3) 0.96078(7) 0.0185(2)
N3_2 N 0.1892(3) 0.96045(6) 0.77252(18)
C22_3 C 0.2658(5) 0.99118(11) 0.8511(3)
C23_3 C 0.2626(5) 0.99256(12) 0.9712(3)
C25_3 C 0.0970(4) 0.92981(11) 0.9354(3)
H15_3 H 0.0318 0.9076 0.9602
C26_3 C 0.1051(4) 0.93048(10) 0.8161(2)
H16_3 H 0.0466 0.9080 0.7620
O1_3 O 0.0537(2) 0.05517(6) 0.46249(15)
O2_2 O 0.2644(2) 0.02332(6) 0.60716(14)
C1_3 C 0.1903(3) 0.05636(8) 0.5490(2)
C2_3 C 0.2751(3) 0.10016(8) 0.5849(2)
C3_3 C 0.1873(3) 0.13858(9) 0.5415(3)
H1_3 H 0.0721 0.1375 0.4899
C4_3 C 0.2693(4) 0.17891(9) 0.5740(3)
H2_3 H 0.2093 0.2053 0.5436
C5_3 C 0.4361(4) 0.18124(9) 0.6496(3)
C6_2 C 0.5218(4) 0.14180(10) 0.6937(3)
H3_2 H 0.6365 0.1425 0.7461
C7_3 C 0.4395(4) 0.10184(10) 0.6612(3)
H4_3 H 0.4979 0.0753 0.6923
C8_2 C 0.5301(4) 0.22171(10) 0.6828(3)
C9_2 C 0.6205(4) 0.25312(10) 0.7157(3)
C10_2 C 0.9696(3) 0.35801(9) 0.8283(2)
C11_2 C 0.7970(4) 0.36615(9) 0.7703(3)
H5_2 H 0.7575 0.3957 0.7562
C12_2 C 0.6836(4) 0.33238(10) 0.7335(3)
H6_2 H 0.5664 0.3386 0.6925
C13_2 C 0.7367(4) 0.28908(9) 0.7549(3)
C14_2 C 0.9096(4) 0.28066(10) 0.8156(3)
H7_2 H 0.9484 0.2512 0.8321
H11_3 H 0.3290 0.0151 0.2030
H12_3 H 0.3414 0.0120 0.4065
H14_3 H 0.3177 0.0162 0.0223
N2_2 N 0.8108(3) 0.03955(6) 0.22748(18)
C22_4 C 0.7342(5) 0.00882(11) 0.1489(3)
C23_4 C 0.7374(5) 0.00744(12) 0.0288(3)
C25_4 C 0.9030(4) 0.07019(11) 0.0646(3)
H15_4 H 0.9682 0.0924 0.0398
C26_4 C 0.8949(4) 0.06952(10) 0.1839(2)
H16_4 H 0.9534 0.0920 0.2380
Co2 Co 0.80130(5) 0.04143(2) 0.41438(3)
N1_4 N 0.8005(3) 0.04105(6) 0.60232(19)
C17_4 C 0.8868(3) 0.07169(9) 0.6810(2)
H9_4 H 0.9423 0.0946 0.6503
C18_4 C 0.8990(3) 0.07161(9) 0.8036(2)
H10_4 H 0.9645 0.0937 0.8557
C19_4 C 0.8161(3) 0.03940(7) 0.8526(2)
C20_4 C 0.7283(3) 0.00816(8) 0.7693(2)
C21_4 C 0.7219(3) 0.00996(8) 0.6475(2)
C24_4 C 0.8181(3) 0.03922(7) 0.9815(2)
O6_2 O 0.5413(2) 0.06559(6) 0.34928(16)
O7_2 O 0.7524(2) 0.11293(6) 0.40520(17)
C6_3 C 0.0218(4) 0.35820(10) 0.1937(3)
H3_3 H 0.1365 0.3575 0.2461
C8_3 C 0.0301(4) 0.27829(10) 0.1828(3)
C9_3 C 0.1205(4) 0.24688(10) 0.2157(3)
C10_3 C 0.4696(3) 0.14199(9) 0.3283(2)
C11_3 C 0.2970(4) 0.13385(9) 0.2703(3)
H5_3 H 0.2575 0.1043 0.2562
C12_3 C 0.1836(4) 0.16762(10) 0.2335(3)
H6_3 H 0.0664 0.1614 0.1925
C13_3 C 0.2367(4) 0.21092(9) 0.2549(3)
C14_3 C 0.4096(4) 0.21934(10) 0.3156(3)
H7_3 H 0.4484 0.2488 0.3321
C15_4 C 0.5232(4) 0.18521(10) 0.3515(3)
H8_4 H 0.6404 0.1913 0.3929
C16_4 C 0.5942(3) 0.10476(9) 0.3640(2)
H13_3 H 0.6733 0.9864 0.1768
H11_4 H 0.6710 0.9849 0.7970
H12_4 H 0.6586 0.9880 0.5935
H14_4 H 0.6823 0.9838 0.9777
O5_2 O 0.7356(2) 0.97668(6) 0.39284(14)
O1_4 O 0.9463(2) 0.94483(6) 0.53751(15)
C1_4 C 0.8097(3) 0.94364(8) 0.4510(2)
C2_4 C 0.7249(3) 0.89984(8) 0.4151(2)
C3_4 C 0.8127(3) 0.86142(9) 0.4585(3)
H1_4 H 0.9279 0.8625 0.5101
C4_4 C 0.7307(4) 0.82109(9) 0.4260(3)
H2_4 H 0.7907 0.7947 0.4564
C5_4 C 0.5639(4) 0.81876(9) 0.3504(3)
C6_4 C 0.4782(4) 0.85820(10) 0.3063(3)
H3_4 H 0.3635 0.8575 0.2539
C7_4 C 0.5605(4) 0.89816(10) 0.3388(3)
H4_4 H 0.5021 0.9247 0.3077
C8_4 C 0.4699(4) 0.77829(10) 0.3172(3)
C9_4 C 0.3795(4) 0.74688(10) 0.2843(3)
C10_4 C 0.0304(3) 0.64199(9) 0.1717(2)
C11_4 C 0.2030(4) 0.63385(9) 0.2297(3)
H5_4 H 0.2425 0.6043 0.2438
C12_4 C 0.3164(4) 0.66762(10) 0.2665(3)
H6_4 H 0.4336 0.6614 0.3075
C13_4 C 0.2633(4) 0.71092(9) 0.2451(3)
C14_4 C 0.0904(4) 0.71934(10) 0.1844(3)
H7_4 H 0.0516 0.7488 0.1679
H13_4 H 0.3267 0.0136 0.8232
loop_
_geom_bond_atom_site_label_1
_geom_bond_atom_site_label_2
_geom_bond_site_symmetry_1
_geom_bond_site_symmetry_2
Co1 O1 1_555 1_555
O5 Co1 1_555 1_555
O6 Co1 1_555 1_555
O7 Co1 1_555 1_555
N3 Co1 1_555 1_555
O2 C1 1_555 1_555
N3 C22 1_555 1_555
C1 C2 1_555 1_555
C2 C3 1_555 1_555
C4 C3 1_555 1_555
H2 C4 1_555 1_555
C5 C4 1_555 1_555
C7 C2 1_555 1_555
H4 C7 1_555 1_555
C17 N1 1_555 1_555
H9 C17 1_555 1_555
C18 C17 1_555 1_555
H10 C18 1_555 1_555
C19 C18 1_555 1_555
C20 C19 1_555 1_555
H11 C20 1_555 1_555
C21 N1 1_555 1_555
H12 C21 1_555 1_555
C22 H13 1_555 1_555
C23 C22 1_555 1_555
H14 C23 1_555 1_555
C24 C19 1_555 1_555
C25 C24 1_555 1_555
H15 C25 1_555 1_555
C26 N3 1_555 1_555
H16 C26 1_555 1_555
Co3 O2 1_555 1_555
C20 C21 1_555 1_555
C23 C24 1_555 1_555
C25 C26 1_555 1_555
O3 C16 1_555 1_555
O4 C16 1_555 1_555
H8 C15 1_555 1_555
Co3 O3 1_555 1_555
O4 Co3 1_555 1_555
O5 C1_2 1_555 1_555
N2 C22_2 1_555 1_555
C1_2 C2_2 1_555 1_555
C2_2 C3_2 1_555 1_555
C4_2 C3_2 1_555 1_555
H2_2 C4_2 1_555 1_555
C5_2 C4_2 1_555 1_555
C7_2 C2_2 1_555 1_555
H4_2 C7_2 1_555 1_555
C17_2 N1_2 1_555 1_555
H9_2 C17_2 1_555 1_555
C18_2 C17_2 1_555 1_555
H10_2 C18_2 1_555 1_555
C19_2 C18_2 1_555 1_555
C20_2 C19_2 1_555 1_555
H11_2 C20_2 1_555 1_555
C21_2 N1_2 1_555 1_555
H12_2 C21_2 1_555 1_555
C22_2 H13_2 1_555 1_555
C23_2 C22_2 1_555 1_555
H14_2 C23_2 1_555 1_555
C24_2 C19_2 1_555 1_555
C25_2 C24_2 1_555 1_555
H15_2 C25_2 1_555 1_555
C26_2 N2 1_555 1_555
H16_2 C26_2 1_555 1_555
Co3 N2 1_555 1_555
C20_2 C21_2 1_555 1_555
C23_2 C24_2 1_555 1_555
C25_2 C26_2 1_555 1_555
Co3 O1_2 1_555 1_555
O6 C16_2 1_555 1_555
O7 C16_2 1_555 1_555
H8_2 C15_2 1_555 1_555
O3_2 C16_3 1_555 1_555
O4_2 C16_3 1_555 1_555
H3 C6 1_555 1_555
C9 C8 1_555 1_555
C10 C11 1_555 1_555
C11 H5 1_555 1_555
C12 C11 1_555 1_555
H6 C12 1_555 1_555
C13 C9 1_555 1_555
C14 C13 1_555 1_555
H7 C14 1_555 1_555
C15_3 C10 1_555 1_555
H8_3 C15_3 1_555 1_555
C16_3 C10 1_555 1_555
Co4 O3_2 1_555 1_555
O4_2 Co4 1_555 1_555
C12 C13 1_555 1_555
C14 C15_3 1_555 1_555
N1_3 Co4 1_555 1_555
C17_3 N1_3 1_555 1_555
H9_3 C17_3 1_555 1_555
C18_3 C17_3 1_555 1_555
H10_3 C18_3 1_555 1_555
C19_3 C18_3 1_555 1_555
C20_3 C19_3 1_555 1_555
C21_3 N1_3 1_555 1_555
C24_3 C19_3 1_555 1_555
N3_2 Co4 1_555 1_555
C20_3 C21_3 1_555 1_555
N3_2 C22_3 1_555 1_555
C23_3 C22_3 1_555 1_555
H15_3 C25_3 1_555 1_555
C26_3 N3_2 1_555 1_555
H16_3 C26_3 1_555 1_555
C25_3 C26_3 1_555 1_555
O1_3 C1_3 1_555 1_555
O2_2 C1_3 1_555 1_555
C1_3 C2_3 1_555 1_555
C2_3 C3_3 1_555 1_555
C3_3 H1_3 1_555 1_555
C4_3 C3_3 1_555 1_555
H2_3 C4_3 1_555 1_555
C5_3 C4_3 1_555 1_555
C6_2 C5_3 1_555 1_555
H3_2 C6_2 1_555 1_555
C7_3 C2_3 1_555 1_555
H4_3 C7_3 1_555 1_555
C8_2 C5_3 1_555 1_555
C9_2 C8_2 1_555 1_555
C10_2 C11_2 1_555 1_555
C11_2 H5_2 1_555 1_555
C12_2 C11_2 1_555 1_555
H6_2 C12_2 1_555 1_555
C13_2 C9_2 1_555 1_555
C14_2 C13_2 1_555 1_555
H7_2 C14_2 1_555 1_555
C6_2 C7_3 1_555 1_555
C12_2 C13_2 1_555 1_555
N2_2 C22_4 1_555 1_555
C23_4 C22_4 1_555 1_555
H15_4 C25_4 1_555 1_555
C26_4 N2_2 1_555 1_555
H16_4 C26_4 1_555 1_555
Co2 N2_2 1_555 1_555
C25_4 C26_4 1_555 1_555
N1_4 Co2 1_555 1_555
C17_4 N1_4 1_555 1_555
H9_4 C17_4 1_555 1_555
C18_4 C17_4 1_555 1_555
H10_4 C18_4 1_555 1_555
C19_4 C18_4 1_555 1_555
C20_4 C19_4 1_555 1_555
C21_4 N1_4 1_555 1_555
C24_4 C19_4 1_555 1_555
O6_2 Co2 1_555 1_555
O7_2 Co2 1_555 1_555
C20_4 C21_4 1_555 1_555
O6_2 C16_4 1_555 1_555
O7_2 C16_4 1_555 1_555
H3_3 C6_3 1_555 1_555
C9_3 C8_3 1_555 1_555
C10_3 C11_3 1_555 1_555
C11_3 H5_3 1_555 1_555
C12_3 C11_3 1_555 1_555
H6_3 C12_3 1_555 1_555
C13_3 C9_3 1_555 1_555
C14_3 C13_3 1_555 1_555
H7_3 C14_3 1_555 1_555
C15_4 C10_3 1_555 1_555
H8_4 C15_4 1_555 1_555
C16_4 C10_3 1_555 1_555
C12_3 C13_3 1_555 1_555
C14_3 C15_4 1_555 1_555
O1_4 C1_4 1_555 1_555
O5_2 C1_4 1_555 1_555
C1_4 C2_4 1_555 1_555
C2_4 C3_4 1_555 1_555
C3_4 H1_4 1_555 1_555
C4_4 C3_4 1_555 1_555
H2_4 C4_4 1_555 1_555
C5_4 C4_4 1_555 1_555
C6_4 C5_4 1_555 1_555
H3_4 C6_4 1_555 1_555
C7_4 C2_4 1_555 1_555
H4_4 C7_4 1_555 1_555
C8_4 C5_4 1_555 1_555
C9_4 C8_4 1_555 1_555
C10_4 C11_4 1_555 1_555
C11_4 H5_4 1_555 1_555
C12_4 C11_4 1_555 1_555
H6_4 C12_4 1_555 1_555
C13_4 C9_4 1_555 1_555
C14_4 C13_4 1_555 1_555
H7_4 C14_4 1_555 1_555
C6_4 C7_4 1_555 1_555
C12_4 C13_4 1_555 1_555

#END
