
###############################################################################
#
# This file contains modified crystal structure data generated from the
# MOF subset of the Cambridge Structural Database (CSD) v543 
# hosted by the Cambridge Crystallographic Data Centre (CCDC).
#
# This work is licensed under the Creative Commons
# Attribution-NonCommercial-ShareAlike 4.0 International License.
# To view a copy of this license, visit
# http://creativecommons.org/licenses/by-nc-sa/4.0/
# or send a letter to
# Creative Commons, PO Box 1866, Mountain View, CA 94042, USA.
#
# CIF created using the CSD Python API on 29 September 2022
# The structure has been converted into the P1 space group
# The structure has a 3D framework
# The original CSD entry XAYTAW is in the monoclinic crystal system
# The framework has been calculated to contain at least 10.0% void space
# The void calculation uses a probe of radius 1.32A, grid spacing 0.4
#
###############################################################################

data_XAYTAW
_chemical_formula_moiety         '(C104 H64 Co4 N8 O16)n'
_symmetry_cell_setting           triclinic
_symmetry_space_group_name_H-M   'P 1'
_symmetry_Int_Tables_number      1
_space_group_name_Hall           'P 1'
loop_
_symmetry_equiv_pos_site_id
_symmetry_equiv_pos_as_xyz
1 x,y,z
_cell_length_a                   9.2120(6)
_cell_length_b                   29.769(2)
_cell_length_c                   11.3963(9)
_cell_angle_alpha                90
_cell_angle_beta                 119.136(7)
_cell_angle_gamma                90
_cell_volume                     2729.78
loop_
_atom_site_label
_atom_site_type_symbol
_atom_site_fract_x
_atom_site_fract_y
_atom_site_fract_z
Co1 Co 0.69230(12) 0.54051(3) 0.12363(9)
O1 O 0.4494(6) 0.55505(16) 0.0368(5)
H1 H 0.4018 0.6379 0.0437
O5 O 0.7540(6) 0.47485(16) 0.1524(4)
O6 O 0.9551(6) 0.56283(17) 0.2239(5)
O7 O 0.7470(6) 0.61105(16) 0.1372(5)
N3 N 0.6900(7) 0.53920(19) 0.3099(5)
O2 O 0.2460(6) 0.52515(16) 0.8476(4)
C1 C 0.3129(7) 0.5573(2) 0.9294(6)
C2 C 0.2180(9) 0.6004(2) 0.8982(7)
C3 C 0.2921(10) 0.6388(2) 0.9750(8)
C4 C 0.2013(12) 0.6779(3) 0.9480(9)
H2 H 0.2522 0.7037 0.9970
C5 C 0.0367(11) 0.6797(3) 0.8499(10)
C7 C 0.0562(9) 0.6027(3) 0.7959(10)
H4 H 0.0071 0.5778 0.7414
N1 N 0.6921(7) 0.54081(18) 0.9357(5)
C17 C 0.5975(9) 0.5694(2) 0.8365(7)
H9 H 0.5326 0.5901 0.8517
C18 C 0.5917(9) 0.5698(3) 0.7134(7)
H10 H 0.5243 0.5904 0.6482
C19 C 0.6868(8) 0.5393(2) 0.6861(6)
C20 C 0.7862(8) 0.5098(2) 0.7905(7)
H11 H 0.8533 0.4890 0.7785
C21 C 0.7848(8) 0.5114(2) 0.9095(6)
H12 H 0.8512 0.4912 0.9765
C22 C 0.7739(10) 0.5088(3) 0.4062(7)
H13 H 0.8357 0.4874 0.3901
C23 C 0.7752(11) 0.5069(3) 0.5265(8)
H14 H 0.8360 0.4847 0.5885
C24 C 0.6852(8) 0.5384(2) 0.5566(7)
C25 C 0.6012(11) 0.5697(3) 0.4572(7)
H15 H 0.5416 0.5922 0.4719
C26 C 0.6025(11) 0.5689(3) 0.3368(8)
H16 H 0.5395 0.5901 0.2716
Co3 Co 0.30770(12) 0.45949(3) 0.87637(9)
O3 O 0.0449(6) 0.43717(17) 0.7761(5)
O4 O 0.2530(6) 0.38895(16) 0.8628(5)
C15 C 0.0354(13) 0.3171(3) 0.8178(14)
H8 H 0.1492 0.3116 0.8629
C16 C 0.0982(8) 0.3974(2) 0.8046(7)
C1_2 C 0.6871(7) 0.4427(2) 0.0706(6)
C2_2 C 0.7820(9) 0.3996(2) 0.1018(7)
C3_2 C 0.7079(10) 0.3612(2) 0.0250(8)
C4_2 C 0.7987(12) 0.3221(3) 0.0520(9)
H2_2 H 0.7478 0.2963 0.0030
C5_2 C 0.9633(11) 0.3203(3) 0.1501(10)
C7_2 C 0.9438(9) 0.3973(3) 0.2041(10)
H4_2 H 0.9929 0.4222 0.2586
N1_2 N 0.3079(7) 0.45919(18) 0.0643(5)
N2 N 0.3100(7) 0.46080(19) 0.6901(5)
C17_2 C 0.4025(9) 0.4306(2) 0.1635(7)
H9_2 H 0.4674 0.4099 0.1483
C18_2 C 0.4083(9) 0.4302(3) 0.2866(7)
H10_2 H 0.4757 0.4096 0.3518
C19_2 C 0.3132(8) 0.4607(2) 0.3139(6)
C20_2 C 0.2138(8) 0.4902(2) 0.2095(7)
H11_2 H 0.1467 0.5110 0.2215
C21_2 C 0.2152(8) 0.4886(2) 0.0905(6)
H12_2 H 0.1488 0.5088 0.0235
C22_2 C 0.2261(10) 0.4912(3) 0.5938(7)
H13_2 H 0.1643 0.5126 0.6099
C23_2 C 0.2248(11) 0.4931(3) 0.4735(8)
H14_2 H 0.1640 0.5153 0.4115
C24_2 C 0.3148(8) 0.4616(2) 0.4434(7)
C25_2 C 0.3988(11) 0.4303(3) 0.5428(7)
H15_2 H 0.4584 0.4078 0.5281
C26_2 C 0.3975(11) 0.4311(3) 0.6632(8)
H16_2 H 0.4605 0.4099 0.7284
O1_2 O 0.5506(6) 0.44495(16) 0.9632(5)
H1_2 H 0.5982 0.3621 0.9563
C15_2 C 0.9646(13) 0.6829(3) 0.1822(14)
H8_2 H 0.8508 0.6884 0.1371
C16_2 C 0.9018(8) 0.6026(2) 0.1954(7)
O3_2 O 0.4551(6) 0.93717(17) 0.7239(5)
O4_2 O 0.2470(6) 0.88895(16) 0.6372(5)
C6 C 0.9670(11) 0.6418(3) 0.7744(12)
H3 H 0.8566 0.6426 0.7069
C8 C 0.9379(13) 0.7192(3) 0.8252(11)
C9 C 0.8534(12) 0.7512(3) 0.8043(11)
C10 C 0.5190(9) 0.8598(3) 0.7229(8)
C11 C 0.6896(11) 0.8669(3) 0.7880(11)
H5 H 0.7309 0.8959 0.8139
C12 C 0.7980(12) 0.8319(3) 0.8147(12)
H6 H 0.9119 0.8372 0.8601
C13 C 0.7394(11) 0.7888(3) 0.7748(10)
C14 C 0.5695(14) 0.7824(3) 0.7049(15)
H7 H 0.5268 0.7540 0.6731
C15_3 C 0.4646(13) 0.8171(3) 0.6822(14)
H8_3 H 0.3508 0.8116 0.6371
C16_3 C 0.4018(8) 0.8974(2) 0.6954(7)
Co4 Co 0.19230(12) 0.95949(3) 0.62363(9)
N1_3 N 0.1921(7) 0.95919(18) 0.4357(5)
C17_3 C 0.0975(9) 0.9306(2) 0.3365(7)
H9_3 H 0.0326 0.9099 0.3517
C18_3 C 0.0917(9) 0.9302(3) 0.2134(7)
H10_3 H 0.0243 0.9096 0.1482
C19_3 C 0.1868(8) 0.9607(2) 0.1861(6)
C20_3 C 0.2862(8) 0.9902(2) 0.2905(7)
C21_3 C 0.2848(8) 0.9886(2) 0.4095(6)
C23_3 C 0.2752(11) 0.9931(3) 0.0265(8)
C24_3 C 0.1852(8) 0.9616(2) 0.0566(7)
N3_2 N 0.1900(7) 0.96080(19) 0.8099(5)
C22_3 C 0.2739(10) 0.9912(3) 0.9062(7)
C25_3 C 0.1012(11) 0.9303(3) 0.9572(7)
H15_3 H 0.0416 0.9078 0.9719
C26_3 C 0.1025(11) 0.9311(3) 0.8368(8)
H16_3 H 0.0395 0.9099 0.7716
O1_3 O 0.0506(6) 0.05505(16) 0.4632(5)
O2_2 O 0.2540(6) 0.02515(16) 0.6524(4)
C1_3 C 0.1871(7) 0.0573(2) 0.5706(6)
C2_3 C 0.2820(9) 0.1004(2) 0.6018(7)
C3_3 C 0.2079(10) 0.1388(2) 0.5250(8)
H1_3 H 0.0982 0.1379 0.4563
C4_3 C 0.2987(12) 0.1779(3) 0.5520(9)
H2_3 H 0.2478 0.2037 0.5030
C5_3 C 0.4633(11) 0.1797(3) 0.6501(10)
C6_2 C 0.5330(11) 0.1418(3) 0.7256(12)
H3_2 H 0.6434 0.1426 0.7931
C7_3 C 0.4438(9) 0.1027(3) 0.7041(10)
H4_3 H 0.4929 0.0778 0.7586
C8_2 C 0.5621(13) 0.2192(3) 0.6748(11)
C9_2 C 0.6466(12) 0.2512(3) 0.6957(11)
C10_2 C 0.9810(9) 0.3598(3) 0.7771(8)
C11_2 C 0.8104(11) 0.3669(3) 0.7120(11)
H5_2 H 0.7691 0.3959 0.6861
C12_2 C 0.7020(12) 0.3319(3) 0.6853(12)
H6_2 H 0.5881 0.3372 0.6399
C13_2 C 0.7606(11) 0.2888(3) 0.7252(10)
C14_2 C 0.9305(14) 0.2824(3) 0.7951(15)
H7_2 H 0.9732 0.2540 0.8269
H11_3 H 0.3533 0.0110 0.2785
H12_3 H 0.3512 0.0088 0.4765
H14_3 H 0.3360 0.0153 0.0885
N2_2 N 0.8100(7) 0.03920(19) 0.1901(5)
C22_4 C 0.7261(10) 0.0088(3) 0.0938(7)
C25_4 C 0.8988(11) 0.0697(3) 0.0428(7)
H15_4 H 0.9584 0.0922 0.0281
C26_4 C 0.8975(11) 0.0689(3) 0.1632(8)
H16_4 H 0.9605 0.0901 0.2284
Co2 Co 0.80770(12) 0.04051(3) 0.37637(9)
N1_4 N 0.8079(7) 0.04081(18) 0.5643(5)
C17_4 C 0.9025(9) 0.0694(2) 0.6635(7)
H9_4 H 0.9674 0.0901 0.6483
C18_4 C 0.9083(9) 0.0698(3) 0.7866(7)
H10_4 H 0.9757 0.0904 0.8518
C19_4 C 0.8132(8) 0.0393(2) 0.8139(6)
C20_4 C 0.7138(8) 0.0098(2) 0.7095(7)
C21_4 C 0.7152(8) 0.0114(2) 0.5905(6)
C23_4 C 0.7248(11) 0.0069(3) 0.9735(8)
C24_4 C 0.8148(8) 0.0384(2) 0.9434(7)
O6_2 O 0.5449(6) 0.06283(17) 0.2761(5)
O7_2 O 0.7530(6) 0.11105(16) 0.3628(5)
C6_3 C 0.0330(11) 0.3582(3) 0.2256(12)
H3_3 H 0.1434 0.3574 0.2931
C8_3 C 0.0621(13) 0.2808(3) 0.1748(11)
C9_3 C 0.1466(12) 0.2488(3) 0.1957(11)
C10_3 C 0.4810(9) 0.1402(3) 0.2771(8)
C11_3 C 0.3104(11) 0.1331(3) 0.2120(11)
H5_3 H 0.2691 0.1041 0.1861
C12_3 C 0.2020(12) 0.1681(3) 0.1853(12)
H6_3 H 0.0881 0.1628 0.1399
C13_3 C 0.2606(11) 0.2112(3) 0.2252(10)
C14_3 C 0.4305(14) 0.2176(3) 0.2951(15)
H7_3 H 0.4732 0.2460 0.3269
C15_4 C 0.5354(13) 0.1829(3) 0.3178(14)
H8_4 H 0.6492 0.1884 0.3629
C16_4 C 0.5982(8) 0.1026(2) 0.3046(7)
H13_3 H 0.6643 0.9874 0.1099
H11_4 H 0.6467 0.9890 0.7215
H12_4 H 0.6488 0.9912 0.5235
H14_4 H 0.6640 0.9847 0.9115
O5_2 O 0.7460(6) 0.97485(16) 0.3476(4)
O1_4 O 0.9494(6) 0.94495(16) 0.5368(5)
C1_4 C 0.8129(7) 0.9427(2) 0.4294(6)
C2_4 C 0.7180(9) 0.8996(2) 0.3982(7)
C3_4 C 0.7921(10) 0.8612(2) 0.4750(8)
H1_4 H 0.9018 0.8621 0.5437
C4_4 C 0.7013(12) 0.8221(3) 0.4480(9)
H2_4 H 0.7522 0.7963 0.4970
C5_4 C 0.5367(11) 0.8203(3) 0.3499(10)
C6_4 C 0.4670(11) 0.8582(3) 0.2744(12)
H3_4 H 0.3566 0.8574 0.2069
C7_4 C 0.5562(9) 0.8973(3) 0.2959(10)
H4_4 H 0.5071 0.9222 0.2414
C8_4 C 0.4379(13) 0.7808(3) 0.3252(11)
C9_4 C 0.3534(12) 0.7488(3) 0.3043(11)
C10_4 C 0.0190(9) 0.6402(3) 0.2229(8)
C11_4 C 0.1896(11) 0.6331(3) 0.2880(11)
H5_4 H 0.2309 0.6041 0.3139
C12_4 C 0.2980(12) 0.6681(3) 0.3147(12)
H6_4 H 0.4119 0.6628 0.3601
C13_4 C 0.2394(11) 0.7112(3) 0.2748(10)
C14_4 C 0.0695(14) 0.7176(3) 0.2049(15)
H7_4 H 0.0268 0.7460 0.1731
H13_4 H 0.3357 0.0126 0.8901
loop_
_geom_bond_atom_site_label_1
_geom_bond_atom_site_label_2
_geom_bond_site_symmetry_1
_geom_bond_site_symmetry_2
Co1 O1 1_555 1_555
O5 Co1 1_555 1_555
O6 Co1 1_555 1_555
O7 Co1 1_555 1_555
N3 Co1 1_555 1_555
O2 C1 1_555 1_555
C1 C2 1_555 1_555
C2 C3 1_555 1_555
C4 C3 1_555 1_555
H2 C4 1_555 1_555
C5 C4 1_555 1_555
C7 C2 1_555 1_555
H4 C7 1_555 1_555
N3 C22 1_555 1_555
C17 N1 1_555 1_555
H9 C17 1_555 1_555
C18 C17 1_555 1_555
H10 C18 1_555 1_555
C19 C18 1_555 1_555
C20 C19 1_555 1_555
H11 C20 1_555 1_555
C21 N1 1_555 1_555
H12 C21 1_555 1_555
C22 H13 1_555 1_555
C23 C22 1_555 1_555
H14 C23 1_555 1_555
C24 C19 1_555 1_555
C25 C24 1_555 1_555
H15 C25 1_555 1_555
C26 N3 1_555 1_555
H16 C26 1_555 1_555
Co3 O2 1_555 1_555
C20 C21 1_555 1_555
C23 C24 1_555 1_555
C25 C26 1_555 1_555
O3 C16 1_555 1_555
O4 C16 1_555 1_555
H8 C15 1_555 1_555
Co3 O3 1_555 1_555
O4 Co3 1_555 1_555
O5 C1_2 1_555 1_555
C1_2 C2_2 1_555 1_555
C2_2 C3_2 1_555 1_555
C4_2 C3_2 1_555 1_555
H2_2 C4_2 1_555 1_555
C5_2 C4_2 1_555 1_555
C7_2 C2_2 1_555 1_555
H4_2 C7_2 1_555 1_555
N2 C22_2 1_555 1_555
C17_2 N1_2 1_555 1_555
H9_2 C17_2 1_555 1_555
C18_2 C17_2 1_555 1_555
H10_2 C18_2 1_555 1_555
C19_2 C18_2 1_555 1_555
C20_2 C19_2 1_555 1_555
H11_2 C20_2 1_555 1_555
C21_2 N1_2 1_555 1_555
H12_2 C21_2 1_555 1_555
C22_2 H13_2 1_555 1_555
C23_2 C22_2 1_555 1_555
H14_2 C23_2 1_555 1_555
C24_2 C19_2 1_555 1_555
C25_2 C24_2 1_555 1_555
H15_2 C25_2 1_555 1_555
C26_2 N2 1_555 1_555
H16_2 C26_2 1_555 1_555
Co3 N2 1_555 1_555
C20_2 C21_2 1_555 1_555
C23_2 C24_2 1_555 1_555
C25_2 C26_2 1_555 1_555
Co3 O1_2 1_555 1_555
O6 C16_2 1_555 1_555
O7 C16_2 1_555 1_555
H8_2 C15_2 1_555 1_555
O3_2 C16_3 1_555 1_555
O4_2 C16_3 1_555 1_555
H3 C6 1_555 1_555
C9 C8 1_555 1_555
C10 C11 1_555 1_555
C11 H5 1_555 1_555
C12 C11 1_555 1_555
H6 C12 1_555 1_555
C13 C9 1_555 1_555
C14 C13 1_555 1_555
H7 C14 1_555 1_555
C15_3 C10 1_555 1_555
H8_3 C15_3 1_555 1_555
C16_3 C10 1_555 1_555
Co4 O3_2 1_555 1_555
O4_2 Co4 1_555 1_555
C12 C13 1_555 1_555
C14 C15_3 1_555 1_555
N1_3 Co4 1_555 1_555
C17_3 N1_3 1_555 1_555
H9_3 C17_3 1_555 1_555
C18_3 C17_3 1_555 1_555
H10_3 C18_3 1_555 1_555
C19_3 C18_3 1_555 1_555
C20_3 C19_3 1_555 1_555
C21_3 N1_3 1_555 1_555
C24_3 C19_3 1_555 1_555
N3_2 Co4 1_555 1_555
C20_3 C21_3 1_555 1_555
C23_3 C24_3 1_555 1_555
N3_2 C22_3 1_555 1_555
H15_3 C25_3 1_555 1_555
C26_3 N3_2 1_555 1_555
H16_3 C26_3 1_555 1_555
C25_3 C26_3 1_555 1_555
O1_3 C1_3 1_555 1_555
O2_2 C1_3 1_555 1_555
C1_3 C2_3 1_555 1_555
C2_3 C3_3 1_555 1_555
C3_3 H1_3 1_555 1_555
C4_3 C3_3 1_555 1_555
H2_3 C4_3 1_555 1_555
C5_3 C4_3 1_555 1_555
C6_2 C5_3 1_555 1_555
H3_2 C6_2 1_555 1_555
C7_3 C2_3 1_555 1_555
H4_3 C7_3 1_555 1_555
C8_2 C5_3 1_555 1_555
C9_2 C8_2 1_555 1_555
C10_2 C11_2 1_555 1_555
C11_2 H5_2 1_555 1_555
C12_2 C11_2 1_555 1_555
H6_2 C12_2 1_555 1_555
C13_2 C9_2 1_555 1_555
C14_2 C13_2 1_555 1_555
H7_2 C14_2 1_555 1_555
C6_2 C7_3 1_555 1_555
C12_2 C13_2 1_555 1_555
N2_2 C22_4 1_555 1_555
H15_4 C25_4 1_555 1_555
C26_4 N2_2 1_555 1_555
H16_4 C26_4 1_555 1_555
Co2 N2_2 1_555 1_555
C25_4 C26_4 1_555 1_555
N1_4 Co2 1_555 1_555
C17_4 N1_4 1_555 1_555
H9_4 C17_4 1_555 1_555
C18_4 C17_4 1_555 1_555
H10_4 C18_4 1_555 1_555
C19_4 C18_4 1_555 1_555
C20_4 C19_4 1_555 1_555
C21_4 N1_4 1_555 1_555
C24_4 C19_4 1_555 1_555
O6_2 Co2 1_555 1_555
O7_2 Co2 1_555 1_555
C20_4 C21_4 1_555 1_555
C23_4 C24_4 1_555 1_555
O6_2 C16_4 1_555 1_555
O7_2 C16_4 1_555 1_555
H3_3 C6_3 1_555 1_555
C9_3 C8_3 1_555 1_555
C10_3 C11_3 1_555 1_555
C11_3 H5_3 1_555 1_555
C12_3 C11_3 1_555 1_555
H6_3 C12_3 1_555 1_555
C13_3 C9_3 1_555 1_555
C14_3 C13_3 1_555 1_555
H7_3 C14_3 1_555 1_555
C15_4 C10_3 1_555 1_555
H8_4 C15_4 1_555 1_555
C16_4 C10_3 1_555 1_555
C12_3 C13_3 1_555 1_555
C14_3 C15_4 1_555 1_555
O1_4 C1_4 1_555 1_555
O5_2 C1_4 1_555 1_555
C1_4 C2_4 1_555 1_555
C2_4 C3_4 1_555 1_555
C3_4 H1_4 1_555 1_555
C4_4 C3_4 1_555 1_555
H2_4 C4_4 1_555 1_555
C5_4 C4_4 1_555 1_555
C6_4 C5_4 1_555 1_555
H3_4 C6_4 1_555 1_555
C7_4 C2_4 1_555 1_555
H4_4 C7_4 1_555 1_555
C8_4 C5_4 1_555 1_555
C9_4 C8_4 1_555 1_555
C10_4 C11_4 1_555 1_555
C11_4 H5_4 1_555 1_555
C12_4 C11_4 1_555 1_555
H6_4 C12_4 1_555 1_555
C13_4 C9_4 1_555 1_555
C14_4 C13_4 1_555 1_555
H7_4 C14_4 1_555 1_555
C6_4 C7_4 1_555 1_555
C12_4 C13_4 1_555 1_555

#END
