
###############################################################################
#
# This file contains modified crystal structure data generated from the
# MOF subset of the Cambridge Structural Database (CSD) v543 
# hosted by the Cambridge Crystallographic Data Centre (CCDC).
#
# This work is licensed under the Creative Commons
# Attribution-NonCommercial-ShareAlike 4.0 International License.
# To view a copy of this license, visit
# http://creativecommons.org/licenses/by-nc-sa/4.0/
# or send a letter to
# Creative Commons, PO Box 1866, Mountain View, CA 94042, USA.
#
# CIF created using the CSD Python API on 29 September 2022
# The structure has been converted into the P1 space group
# The structure has a 3D framework
# The original CSD entry XAYTIE is in the monoclinic crystal system
# The framework has been calculated to contain at least 10.0% void space
# The void calculation uses a probe of radius 1.32A, grid spacing 0.4
#
###############################################################################

data_XAYTIE
_chemical_formula_moiety         '(C104 H64 Co2 N8 O16)n'
_symmetry_cell_setting           triclinic
_symmetry_space_group_name_H-M   'P 1'
_symmetry_Int_Tables_number      1
_space_group_name_Hall           'P 1'
loop_
_symmetry_equiv_pos_site_id
_symmetry_equiv_pos_as_xyz
1 x,y,z
_cell_length_a                   10.291(2)
_cell_length_b                   29.915(5)
_cell_length_c                   11.379(3)
_cell_angle_alpha                90
_cell_angle_beta                 132.839(5)
_cell_angle_gamma                90
_cell_volume                     2568.7
loop_
_atom_site_label
_atom_site_type_symbol
_atom_site_fract_x
_atom_site_fract_y
_atom_site_fract_z
Co1 Co 0.70009(6) 0.54371(2) 0.07221(6)
O5 O 0.7672(3) 0.47763(7) 0.1059(3)
O6 O 0.9718(3) 0.56624(7) 0.2038(3)
O7 O 0.7570(3) 0.61464(7) 0.0963(3)
N3 N 0.7178(4) 0.54497(8) 0.2720(4)
O1 O 0.4405(3) 0.55896(8) 0.9222(3)
O2 O 0.2328(3) 0.52237(7) 0.8941(3)
C1 C 0.3031(4) 0.55734(11) 0.8994(4)
C2 C 0.2145(4) 0.60081(11) 0.8754(4)
C3 C 0.2859(5) 0.64126(13) 0.8847(6)
H1 H 0.3939 0.6418 0.9083
C4 C 0.2008(6) 0.68131(13) 0.8598(6)
H2 H 0.2509 0.7089 0.8664
C5 C 0.0413(5) 0.68081(13) 0.8251(5)
C7 C 0.0612(5) 0.60066(11) 0.8484(5)
H4 H 0.0146 0.5730 0.8469
N1 N 0.6706(4) 0.54068(8) 0.8657(3)
C17 C 0.5782(5) 0.57079(11) 0.7471(4)
H9 H 0.5100 0.5923 0.7468
C18 C 0.5770(5) 0.57224(12) 0.6258(4)
H10 H 0.5096 0.5944 0.5448
C19 C 0.6743(4) 0.54127(10) 0.6214(4)
C20 C 0.7650(4) 0.50895(11) 0.7415(4)
H11 H 0.8304 0.4863 0.7424
C21 C 0.7595(4) 0.50994(11) 0.8576(4)
H12 H 0.8225 0.4875 0.9380
C22 C 0.7761(4) 0.51018(11) 0.3710(4)
H13 H 0.8289 0.4859 0.3627
C23 C 0.7640(4) 0.50751(12) 0.4839(4)
H14 H 0.8063 0.4818 0.5500
C24 C 0.6894(4) 0.54276(10) 0.5008(4)
C25 C 0.6340(6) 0.57913(12) 0.4004(5)
H15 H 0.5833 0.6043 0.4076
C26 C 0.6512(5) 0.57932(12) 0.2913(5)
H16 H 0.6141 0.6051 0.2264
Co3 Co 0.29991(6) 0.45629(2) 0.92779(6)
O3 O 0.0282(3) 0.43376(7) 0.7962(3)
O4 O 0.2430(3) 0.38536(7) 0.9037(3)
C15 C 0.0159(7) 0.31316(14) 0.8168(7)
H8 H 0.1234 0.3066 0.8431
C16 C 0.0855(5) 0.39431(11) 0.8348(4)
O1_2 O 0.5595(3) 0.44104(8) 0.0778(3)
C1_2 C 0.6969(4) 0.44266(11) 0.1006(4)
C2_2 C 0.7855(4) 0.39919(11) 0.1246(4)
C3_2 C 0.7141(5) 0.35874(13) 0.1153(6)
H1_2 H 0.6061 0.3582 0.0917
C4_2 C 0.7992(6) 0.31869(13) 0.1402(6)
H2_2 H 0.7491 0.2911 0.1336
C5_2 C 0.9587(5) 0.31919(13) 0.1749(5)
C7_2 C 0.9388(5) 0.39934(11) 0.1516(5)
H4_2 H 0.9854 0.4270 0.1531
N1_2 N 0.3294(4) 0.45932(8) 0.1343(3)
N2 N 0.2822(4) 0.45503(8) 0.7280(4)
C17_2 C 0.4218(5) 0.42921(11) 0.2529(4)
H9_2 H 0.4900 0.4077 0.2532
C18_2 C 0.4230(5) 0.42776(12) 0.3742(4)
H10_2 H 0.4904 0.4056 0.4552
C19_2 C 0.3257(4) 0.45873(10) 0.3786(4)
C20_2 C 0.2350(4) 0.49105(11) 0.2585(4)
H11_2 H 0.1696 0.5137 0.2576
C21_2 C 0.2405(4) 0.49006(11) 0.1424(4)
H12_2 H 0.1775 0.5125 0.0620
C22_2 C 0.2239(4) 0.48982(11) 0.6290(4)
H13_2 H 0.1711 0.5141 0.6373
C23_2 C 0.2360(4) 0.49249(12) 0.5161(4)
H14_2 H 0.1937 0.5182 0.4500
C24_2 C 0.3106(4) 0.45724(10) 0.4992(4)
C25_2 C 0.3660(6) 0.42087(12) 0.5996(5)
H15_2 H 0.4167 0.3957 0.5924
C26_2 C 0.3488(5) 0.42068(12) 0.7087(5)
H16_2 H 0.3859 0.3949 0.7736
C15_2 C 0.9841(7) 0.68684(14) 0.1832(7)
H8_2 H 0.8766 0.6934 0.1569
C16_2 C 0.9145(5) 0.60569(11) 0.1652(4)
O3_2 O 0.4718(3) 0.93376(7) 0.7038(3)
O4_2 O 0.2570(3) 0.88536(7) 0.5963(3)
C6 C 0.9757(5) 0.63985(12) 0.8237(5)
H3 H 0.8710 0.6390 0.8055
C8 C 0.9464(6) 0.72071(14) 0.7966(6)
C9 C 0.8560(6) 0.75173(13) 0.7715(6)
C10 C 0.5336(5) 0.85733(12) 0.6972(5)
C11 C 0.6879(5) 0.86620(12) 0.7306(5)
H5 H 0.7223 0.8963 0.7381
C12 C 0.7922(5) 0.83197(13) 0.7530(6)
H6 H 0.8965 0.8387 0.7738
C13 C 0.7465(5) 0.78779(13) 0.7454(5)
C14 C 0.5891(7) 0.77856(14) 0.7070(8)
H7 H 0.5534 0.7484 0.6970
C15_3 C 0.4841(7) 0.81316(14) 0.6832(7)
H8_3 H 0.3766 0.8066 0.6569
C16_3 C 0.4145(5) 0.89431(11) 0.6652(4)
Co4 Co 0.20009(6) 0.95629(2) 0.57221(6)
N1_3 N 0.1706(4) 0.95932(8) 0.3657(3)
C17_3 C 0.0782(5) 0.92921(11) 0.2471(4)
H9_3 H 0.0100 0.9077 0.2468
C18_3 C 0.0770(5) 0.92776(12) 0.1258(4)
H10_3 H 0.0096 0.9056 0.0448
C19_3 C 0.1743(4) 0.95873(10) 0.1214(4)
C20_3 C 0.2650(4) 0.99105(11) 0.2415(4)
C21_3 C 0.2595(4) 0.99006(11) 0.3576(4)
C24_3 C 0.1894(4) 0.95724(10) 0.0008(4)
N3_2 N 0.2178(4) 0.95503(8) 0.7720(4)
C22_3 C 0.2761(4) 0.98982(11) 0.8710(4)
C23_3 C 0.2640(4) 0.99249(12) 0.9839(4)
C25_3 C 0.1340(6) 0.92087(12) 0.9004(5)
H15_3 H 0.0833 0.8957 0.9076
C26_3 C 0.1512(5) 0.92068(12) 0.7913(5)
H16_3 H 0.1141 0.8949 0.7264
O1_3 O 0.0595(3) 0.05896(8) 0.5778(3)
O2_2 O 0.2672(3) 0.02237(7) 0.6059(3)
C1_3 C 0.1969(4) 0.05734(11) 0.6006(4)
C2_3 C 0.2855(4) 0.10081(11) 0.6246(4)
C3_3 C 0.2141(5) 0.14126(13) 0.6153(6)
H1_3 H 0.1061 0.1418 0.5917
C4_3 C 0.2992(6) 0.18131(13) 0.6402(6)
H2_3 H 0.2491 0.2089 0.6336
C5_3 C 0.4587(5) 0.18081(13) 0.6749(5)
C6_2 C 0.5243(5) 0.13985(12) 0.6763(5)
H3_2 H 0.6290 0.1390 0.6945
C7_3 C 0.4388(5) 0.10066(11) 0.6516(5)
H4_3 H 0.4854 0.0730 0.6531
C8_2 C 0.5536(6) 0.22071(14) 0.7034(6)
C9_2 C 0.6440(6) 0.25173(13) 0.7285(6)
C10_2 C 0.9664(5) 0.35733(12) 0.8028(5)
C11_2 C 0.8121(5) 0.36620(12) 0.7694(5)
H5_2 H 0.7777 0.3963 0.7619
C12_2 C 0.7078(5) 0.33197(13) 0.7470(6)
H6_2 H 0.6035 0.3387 0.7262
C13_2 C 0.7535(5) 0.28779(13) 0.7546(5)
C14_2 C 0.9109(7) 0.27856(14) 0.7930(8)
H7_2 H 0.9466 0.2484 0.8030
H11_3 H 0.3304 0.0137 0.2424
H12_3 H 0.3225 0.0125 0.4380
H14_3 H 0.3063 0.0182 0.0500
N2_2 N 0.7822(4) 0.04497(8) 0.2280(4)
C22_4 C 0.7239(4) 0.01018(11) 0.1290(4)
C23_4 C 0.7360(4) 0.00751(12) 0.0161(4)
C25_4 C 0.8660(6) 0.07913(12) 0.0996(5)
H15_4 H 0.9167 0.1043 0.0924
C26_4 C 0.8488(5) 0.07932(12) 0.2087(5)
H16_4 H 0.8859 0.1051 0.2736
Co2 Co 0.79991(6) 0.04371(2) 0.42779(6)
N1_4 N 0.8294(4) 0.04068(8) 0.6343(3)
C17_4 C 0.9218(5) 0.07079(11) 0.7529(4)
H9_4 H 0.9900 0.0923 0.7532
C18_4 C 0.9230(5) 0.07224(12) 0.8742(4)
H10_4 H 0.9904 0.0944 0.9552
C19_4 C 0.8257(4) 0.04127(10) 0.8786(4)
C20_4 C 0.7350(4) 0.00895(11) 0.7585(4)
C21_4 C 0.7405(4) 0.00994(11) 0.6424(4)
C24_4 C 0.8106(4) 0.04276(10) 0.9992(4)
O6_2 O 0.5282(3) 0.06624(7) 0.2962(3)
O7_2 O 0.7430(3) 0.11464(7) 0.4037(3)
C6_3 C 0.0243(5) 0.36015(12) 0.1763(5)
H3_3 H 0.1290 0.3610 0.1945
C8_3 C 0.0536(6) 0.27929(14) 0.2034(6)
C9_3 C 0.1440(6) 0.24827(13) 0.2285(6)
C10_3 C 0.4664(5) 0.14267(12) 0.3028(5)
C11_3 C 0.3121(5) 0.13380(12) 0.2694(5)
H5_3 H 0.2777 0.1037 0.2619
C12_3 C 0.2078(5) 0.16803(13) 0.2470(6)
H6_3 H 0.1035 0.1613 0.2262
C13_3 C 0.2535(5) 0.21221(13) 0.2546(5)
C14_3 C 0.4109(7) 0.22144(14) 0.2930(8)
H7_3 H 0.4466 0.2516 0.3030
C15_4 C 0.5159(7) 0.18684(14) 0.3168(7)
H8_4 H 0.6234 0.1934 0.3431
C16_4 C 0.5855(5) 0.10569(11) 0.3348(4)
H13_3 H 0.6711 0.9859 0.1373
H11_4 H 0.6696 0.9863 0.7576
H12_4 H 0.6775 0.9875 0.5620
H14_4 H 0.6937 0.9818 0.9500
O5_2 O 0.7328(3) 0.97763(7) 0.3941(3)
O1_4 O 0.9405(3) 0.94104(8) 0.4222(3)
C1_4 C 0.8031(4) 0.94266(11) 0.3994(4)
C2_4 C 0.7145(4) 0.89919(11) 0.3754(4)
C3_4 C 0.7859(5) 0.85874(13) 0.3847(6)
H1_4 H 0.8939 0.8582 0.4083
C4_4 C 0.7008(6) 0.81869(13) 0.3598(6)
H2_4 H 0.7509 0.7911 0.3664
C5_4 C 0.5413(5) 0.81919(13) 0.3251(5)
C6_4 C 0.4757(5) 0.86015(12) 0.3237(5)
H3_4 H 0.3710 0.8610 0.3055
C7_4 C 0.5612(5) 0.89934(11) 0.3484(5)
H4_4 H 0.5146 0.9270 0.3469
C8_4 C 0.4464(6) 0.77929(14) 0.2966(6)
C9_4 C 0.3560(6) 0.74827(13) 0.2715(6)
C10_4 C 0.0336(5) 0.64267(12) 0.1972(5)
C11_4 C 0.1879(5) 0.63380(12) 0.2306(5)
H5_4 H 0.2223 0.6037 0.2381
C12_4 C 0.2922(5) 0.66803(13) 0.2530(6)
H6_4 H 0.3965 0.6613 0.2738
C13_4 C 0.2465(5) 0.71221(13) 0.2454(5)
C14_4 C 0.0891(7) 0.72144(14) 0.2070(8)
H7_4 H 0.0534 0.7516 0.1970
H13_4 H 0.3289 0.0141 0.8627
loop_
_geom_bond_atom_site_label_1
_geom_bond_atom_site_label_2
_geom_bond_site_symmetry_1
_geom_bond_site_symmetry_2
O5 Co1 1_555 1_555
O6 Co1 1_555 1_555
O7 Co1 1_555 1_555
N3 Co1 1_555 1_555
O1 C1 1_555 1_555
O2 C1 1_555 1_555
C1 C2 1_555 1_555
C2 C3 1_555 1_555
C3 H1 1_555 1_555
C4 C3 1_555 1_555
H2 C4 1_555 1_555
C5 C4 1_555 1_555
C7 C2 1_555 1_555
H4 C7 1_555 1_555
N3 C22 1_555 1_555
C17 N1 1_555 1_555
H9 C17 1_555 1_555
C18 C17 1_555 1_555
H10 C18 1_555 1_555
C19 C18 1_555 1_555
C20 C19 1_555 1_555
H11 C20 1_555 1_555
C21 N1 1_555 1_555
H12 C21 1_555 1_555
C22 H13 1_555 1_555
C23 C22 1_555 1_555
H14 C23 1_555 1_555
C24 C19 1_555 1_555
C25 C24 1_555 1_555
H15 C25 1_555 1_555
C26 N3 1_555 1_555
H16 C26 1_555 1_555
Co3 O2 1_555 1_555
C20 C21 1_555 1_555
C23 C24 1_555 1_555
C25 C26 1_555 1_555
O3 C16 1_555 1_555
O4 C16 1_555 1_555
H8 C15 1_555 1_555
Co3 O3 1_555 1_555
O4 Co3 1_555 1_555
O1_2 C1_2 1_555 1_555
O5 C1_2 1_555 1_555
C1_2 C2_2 1_555 1_555
C2_2 C3_2 1_555 1_555
C3_2 H1_2 1_555 1_555
C4_2 C3_2 1_555 1_555
H2_2 C4_2 1_555 1_555
C5_2 C4_2 1_555 1_555
C7_2 C2_2 1_555 1_555
H4_2 C7_2 1_555 1_555
N2 C22_2 1_555 1_555
C17_2 N1_2 1_555 1_555
H9_2 C17_2 1_555 1_555
C18_2 C17_2 1_555 1_555
H10_2 C18_2 1_555 1_555
C19_2 C18_2 1_555 1_555
C20_2 C19_2 1_555 1_555
H11_2 C20_2 1_555 1_555
C21_2 N1_2 1_555 1_555
H12_2 C21_2 1_555 1_555
C22_2 H13_2 1_555 1_555
C23_2 C22_2 1_555 1_555
H14_2 C23_2 1_555 1_555
C24_2 C19_2 1_555 1_555
C25_2 C24_2 1_555 1_555
H15_2 C25_2 1_555 1_555
C26_2 N2 1_555 1_555
H16_2 C26_2 1_555 1_555
Co3 N2 1_555 1_555
C20_2 C21_2 1_555 1_555
C23_2 C24_2 1_555 1_555
C25_2 C26_2 1_555 1_555
O6 C16_2 1_555 1_555
O7 C16_2 1_555 1_555
H8_2 C15_2 1_555 1_555
O3_2 C16_3 1_555 1_555
O4_2 C16_3 1_555 1_555
H3 C6 1_555 1_555
C9 C8 1_555 1_555
C10 C11 1_555 1_555
C11 H5 1_555 1_555
C12 C11 1_555 1_555
H6 C12 1_555 1_555
C13 C9 1_555 1_555
C14 C13 1_555 1_555
H7 C14 1_555 1_555
C15_3 C10 1_555 1_555
H8_3 C15_3 1_555 1_555
C16_3 C10 1_555 1_555
Co4 O3_2 1_555 1_555
O4_2 Co4 1_555 1_555
C12 C13 1_555 1_555
C14 C15_3 1_555 1_555
N1_3 Co4 1_555 1_555
C17_3 N1_3 1_555 1_555
H9_3 C17_3 1_555 1_555
C18_3 C17_3 1_555 1_555
H10_3 C18_3 1_555 1_555
C19_3 C18_3 1_555 1_555
C20_3 C19_3 1_555 1_555
C21_3 N1_3 1_555 1_555
C24_3 C19_3 1_555 1_555
N3_2 Co4 1_555 1_555
C20_3 C21_3 1_555 1_555
N3_2 C22_3 1_555 1_555
C23_3 C22_3 1_555 1_555
H15_3 C25_3 1_555 1_555
C26_3 N3_2 1_555 1_555
H16_3 C26_3 1_555 1_555
C25_3 C26_3 1_555 1_555
O1_3 C1_3 1_555 1_555
O2_2 C1_3 1_555 1_555
C1_3 C2_3 1_555 1_555
C2_3 C3_3 1_555 1_555
C3_3 H1_3 1_555 1_555
C4_3 C3_3 1_555 1_555
H2_3 C4_3 1_555 1_555
C5_3 C4_3 1_555 1_555
C6_2 C5_3 1_555 1_555
H3_2 C6_2 1_555 1_555
C7_3 C2_3 1_555 1_555
H4_3 C7_3 1_555 1_555
C8_2 C5_3 1_555 1_555
C9_2 C8_2 1_555 1_555
C10_2 C11_2 1_555 1_555
C11_2 H5_2 1_555 1_555
C12_2 C11_2 1_555 1_555
H6_2 C12_2 1_555 1_555
C13_2 C9_2 1_555 1_555
C14_2 C13_2 1_555 1_555
H7_2 C14_2 1_555 1_555
C6_2 C7_3 1_555 1_555
C12_2 C13_2 1_555 1_555
N2_2 C22_4 1_555 1_555
C23_4 C22_4 1_555 1_555
H15_4 C25_4 1_555 1_555
C26_4 N2_2 1_555 1_555
H16_4 C26_4 1_555 1_555
Co2 N2_2 1_555 1_555
C25_4 C26_4 1_555 1_555
N1_4 Co2 1_555 1_555
C17_4 N1_4 1_555 1_555
H9_4 C17_4 1_555 1_555
C18_4 C17_4 1_555 1_555
H10_4 C18_4 1_555 1_555
C19_4 C18_4 1_555 1_555
C20_4 C19_4 1_555 1_555
C21_4 N1_4 1_555 1_555
C24_4 C19_4 1_555 1_555
O6_2 Co2 1_555 1_555
O7_2 Co2 1_555 1_555
C20_4 C21_4 1_555 1_555
O6_2 C16_4 1_555 1_555
O7_2 C16_4 1_555 1_555
H3_3 C6_3 1_555 1_555
C9_3 C8_3 1_555 1_555
C10_3 C11_3 1_555 1_555
C11_3 H5_3 1_555 1_555
C12_3 C11_3 1_555 1_555
H6_3 C12_3 1_555 1_555
C13_3 C9_3 1_555 1_555
C14_3 C13_3 1_555 1_555
H7_3 C14_3 1_555 1_555
C15_4 C10_3 1_555 1_555
H8_4 C15_4 1_555 1_555
C16_4 C10_3 1_555 1_555
C12_3 C13_3 1_555 1_555
C14_3 C15_4 1_555 1_555
O1_4 C1_4 1_555 1_555
O5_2 C1_4 1_555 1_555
C1_4 C2_4 1_555 1_555
C2_4 C3_4 1_555 1_555
C3_4 H1_4 1_555 1_555
C4_4 C3_4 1_555 1_555
H2_4 C4_4 1_555 1_555
C5_4 C4_4 1_555 1_555
C6_4 C5_4 1_555 1_555
H3_4 C6_4 1_555 1_555
C7_4 C2_4 1_555 1_555
H4_4 C7_4 1_555 1_555
C8_4 C5_4 1_555 1_555
C9_4 C8_4 1_555 1_555
C10_4 C11_4 1_555 1_555
C11_4 H5_4 1_555 1_555
C12_4 C11_4 1_555 1_555
H6_4 C12_4 1_555 1_555
C13_4 C9_4 1_555 1_555
C14_4 C13_4 1_555 1_555
H7_4 C14_4 1_555 1_555
C6_4 C7_4 1_555 1_555
C12_4 C13_4 1_555 1_555

#END
