
###############################################################################
#
# This file contains modified crystal structure data generated from the
# MOF subset of the Cambridge Structural Database (CSD) v543 
# hosted by the Cambridge Crystallographic Data Centre (CCDC).
#
# This work is licensed under the Creative Commons
# Attribution-NonCommercial-ShareAlike 4.0 International License.
# To view a copy of this license, visit
# http://creativecommons.org/licenses/by-nc-sa/4.0/
# or send a letter to
# Creative Commons, PO Box 1866, Mountain View, CA 94042, USA.
#
# CIF created using the CSD Python API on 29 September 2022
# The structure has been converted into the P1 space group
# The structure has a 3D framework
# The original CSD entry XAYTEA is in the monoclinic crystal system
# The framework has been calculated to contain at least 10.0% void space
# The void calculation uses a probe of radius 1.32A, grid spacing 0.4
#
###############################################################################

data_XAYTEA
_chemical_formula_moiety         '(C104 H64 Co4 N8 O16)n'
_symmetry_cell_setting           triclinic
_symmetry_space_group_name_H-M   'P 1'
_symmetry_Int_Tables_number      1
_space_group_name_Hall           'P 1'
loop_
_symmetry_equiv_pos_site_id
_symmetry_equiv_pos_as_xyz
1 x,y,z
_cell_length_a                   8.0220(2)
_cell_length_b                   30.5853(7)
_cell_length_c                   11.3779(3)
_cell_angle_alpha                90
_cell_angle_beta                 106.239(3)
_cell_angle_gamma                90
_cell_volume                     2680.25
loop_
_atom_site_label
_atom_site_type_symbol
_atom_site_fract_x
_atom_site_fract_y
_atom_site_fract_z
Co1 Co 0.69992(6) 0.54160(2) 0.08671(4)
O1 O 0.4436(3) 0.55436(7) 0.03959(19)
H1 H 0.4271 0.6368 0.0141
O5 O 0.7660(3) 0.47703(7) 0.10871(18)
O6 O 0.9633(3) 0.56560(7) 0.15350(19)
O7 O 0.7483(3) 0.61252(7) 0.0954(2)
N3 N 0.6871(3) 0.53999(8) 0.2725(2)
O2 O 0.2340(3) 0.52297(7) 0.89129(18)
C1 C 0.3079(4) 0.55583(9) 0.9510(3)
C2 C 0.2245(4) 0.59983(10) 0.9149(3)
C3 C 0.3132(4) 0.63814(10) 0.9599(3)
C4 C 0.2346(4) 0.67826(10) 0.9254(3)
H2 H 0.2961 0.7044 0.9548
C5 C 0.0656(4) 0.68058(10) 0.8477(3)
C7 C 0.0585(4) 0.60206(10) 0.8359(3)
N1 N 0.7008(3) 0.54215(8) 0.8999(2)
C17 C 0.6145(4) 0.57297(10) 0.8224(3)
H9 H 0.5602 0.5958 0.8546
C18 C 0.6003(4) 0.57336(10) 0.6993(3)
H10 H 0.5368 0.5959 0.6486
C19 C 0.6799(4) 0.54025(10) 0.6487(3)
C20 C 0.7700(4) 0.50818(10) 0.7299(3)
H11 H 0.8259 0.4849 0.7007
C21 C 0.7773(4) 0.51050(10) 0.8521(3)
H12 H 0.8399 0.4885 0.9054
C22 C 0.7690(5) 0.50964(12) 0.3521(3)
H13 H 0.8314 0.4875 0.3238
C23 C 0.7681(5) 0.50863(12) 0.4725(3)
H14 H 0.8299 0.4864 0.5250
C24 C 0.6771(4) 0.54000(9) 0.5180(3)
C25 C 0.5903(5) 0.57130(11) 0.4349(3)
H15 H 0.5245 0.5934 0.4601
C26 C 0.5997(5) 0.57022(11) 0.3151(3)
H16 H 0.5405 0.5923 0.2604
Co3 Co 0.30008(6) 0.45840(2) 0.91329(4)
O3 O 0.0367(3) 0.43440(7) 0.84650(19)
O4 O 0.2517(3) 0.38748(7) 0.9046(2)
C15 C 0.0201(5) 0.31541(11) 0.8535(3)
H8 H 0.1381 0.3095 0.8954
C16 C 0.0917(4) 0.39545(10) 0.8629(3)
C1_2 C 0.6921(4) 0.44417(9) 0.0490(3)
C2_2 C 0.7755(4) 0.40017(10) 0.0851(3)
C3_2 C 0.6868(4) 0.36186(10) 0.0401(3)
C4_2 C 0.7654(4) 0.32174(10) 0.0746(3)
H2_2 H 0.7039 0.2956 0.0452
C5_2 C 0.9344(4) 0.31942(10) 0.1523(3)
C7_2 C 0.9415(4) 0.39794(10) 0.1641(3)
N1_2 N 0.2992(3) 0.45785(8) 0.1001(2)
N2 N 0.3129(3) 0.46001(8) 0.7275(2)
C17_2 C 0.3855(4) 0.42703(10) 0.1776(3)
H9_2 H 0.4398 0.4042 0.1454
C18_2 C 0.3997(4) 0.42664(10) 0.3007(3)
H10_2 H 0.4632 0.4041 0.3514
C19_2 C 0.3201(4) 0.45975(10) 0.3513(3)
C20_2 C 0.2300(4) 0.49182(10) 0.2701(3)
H11_2 H 0.1741 0.5151 0.2993
C21_2 C 0.2227(4) 0.48950(10) 0.1479(3)
H12_2 H 0.1601 0.5115 0.0946
C22_2 C 0.2310(5) 0.49036(12) 0.6479(3)
H13_2 H 0.1686 0.5125 0.6762
C23_2 C 0.2319(5) 0.49137(12) 0.5275(3)
H14_2 H 0.1701 0.5136 0.4750
C24_2 C 0.3229(4) 0.46000(9) 0.4820(3)
C25_2 C 0.4097(5) 0.42870(11) 0.5651(3)
H15_2 H 0.4755 0.4066 0.5399
C26_2 C 0.4003(5) 0.42978(11) 0.6849(3)
H16_2 H 0.4595 0.4077 0.7396
O1_2 O 0.5564(3) 0.44564(7) 0.96041(19)
H1_2 H 0.5729 0.3632 0.9859
C15_2 C 0.9799(5) 0.68459(11) 0.1465(3)
H8_2 H 0.8619 0.6905 0.1046
C16_2 C 0.9083(4) 0.60455(10) 0.1371(3)
O3_2 O 0.4633(3) 0.93440(7) 0.65350(19)
O4_2 O 0.2483(3) 0.88748(7) 0.5954(2)
C6 C 0.9783(4) 0.64203(11) 0.8029(3)
H3 H 0.8635 0.6432 0.7498
H4 H 0.9991 0.5759 0.8040
C8 C 0.9757(5) 0.72150(11) 0.8142(3)
C9 C 0.8866(5) 0.75313(11) 0.7826(3)
C10 C 0.5340(4) 0.85829(10) 0.6719(3)
C11 C 0.7076(4) 0.86642(10) 0.7318(3)
H5 H 0.7467 0.8957 0.7479
C12 C 0.8243(4) 0.83216(10) 0.7684(3)
H6 H 0.9422 0.8381 0.8105
C13 C 0.7688(4) 0.78929(10) 0.7437(3)
C14 C 0.5948(5) 0.78125(11) 0.6810(4)
H7 H 0.5560 0.7521 0.6622
C15_3 C 0.4799(5) 0.81541(11) 0.6465(3)
H8_3 H 0.3619 0.8095 0.6046
C16_3 C 0.4083(4) 0.89545(10) 0.6371(3)
Co4 Co 0.19992(6) 0.95840(2) 0.58671(4)
N1_3 N 0.2008(3) 0.95785(8) 0.3999(2)
C17_3 C 0.1145(4) 0.92703(10) 0.3224(3)
H9_3 H 0.0602 0.9042 0.3546
C18_3 C 0.1003(4) 0.92664(10) 0.1993(3)
H10_3 H 0.0368 0.9041 0.1486
C19_3 C 0.1799(4) 0.95975(10) 0.1487(3)
C20_3 C 0.2700(4) 0.99182(10) 0.2299(3)
C21_3 C 0.2773(4) 0.98950(10) 0.3521(3)
C24_3 C 0.1771(4) 0.96000(9) 0.0180(3)
N3_2 N 0.1871(3) 0.96001(8) 0.7725(2)
C22_3 C 0.2690(5) 0.99036(12) 0.8521(3)
C23_3 C 0.2681(5) 0.99137(12) 0.9725(3)
C25_3 C 0.0903(5) 0.92870(11) 0.9349(3)
H15_3 H 0.0245 0.9066 0.9601
C26_3 C 0.0997(5) 0.92978(11) 0.8151(3)
H16_3 H 0.0405 0.9077 0.7604
O1_3 O 0.0564(3) 0.05436(7) 0.46041(19)
O2_2 O 0.2660(3) 0.02297(7) 0.60871(18)
C1_3 C 0.1921(4) 0.05583(9) 0.5490(3)
C2_3 C 0.2755(4) 0.09983(10) 0.5851(3)
C3_3 C 0.1868(4) 0.13814(10) 0.5401(3)
H1_3 H 0.0729 0.1368 0.4859
C4_3 C 0.2654(4) 0.17826(10) 0.5746(3)
H2_3 H 0.2039 0.2044 0.5452
C5_3 C 0.4344(4) 0.18058(10) 0.6523(3)
C6_2 C 0.5217(4) 0.14203(11) 0.6971(3)
H3_2 H 0.6365 0.1432 0.7502
C7_3 C 0.4415(4) 0.10206(10) 0.6641(3)
H4_2 H 0.5009 0.0759 0.6960
C8_2 C 0.5243(5) 0.22150(11) 0.6858(3)
C9_2 C 0.6134(5) 0.25313(11) 0.7174(3)
C10_2 C 0.9660(4) 0.35829(10) 0.8281(3)
C11_2 C 0.7924(4) 0.36642(10) 0.7682(3)
H5_2 H 0.7533 0.3957 0.7521
C12_2 C 0.6757(4) 0.33216(10) 0.7316(3)
H6_2 H 0.5578 0.3381 0.6895
C13_2 C 0.7312(4) 0.28929(10) 0.7563(3)
C14_2 C 0.9052(5) 0.28125(11) 0.8190(4)
H7_2 H 0.9440 0.2521 0.8378
H11_3 H 0.3259 0.0151 0.2007
H12_3 H 0.3399 0.0115 0.4054
H14_3 H 0.3299 0.0136 0.0250
N2_2 N 0.8129(3) 0.03999(8) 0.2275(2)
C22_4 C 0.7310(5) 0.00964(12) 0.1479(3)
C23_4 C 0.7319(5) 0.00863(12) 0.0275(3)
C25_4 C 0.9097(5) 0.07130(11) 0.0651(3)
H15_4 H 0.9755 0.0934 0.0399
C26_4 C 0.9003(5) 0.07022(11) 0.1849(3)
H16_4 H 0.9595 0.0923 0.2396
Co2 Co 0.80008(6) 0.04160(2) 0.41329(4)
N1_4 N 0.7992(3) 0.04215(8) 0.6001(2)
C17_4 C 0.8855(4) 0.07297(10) 0.6776(3)
H9_4 H 0.9398 0.0958 0.6454
C18_4 C 0.8997(4) 0.07336(10) 0.8007(3)
H10_4 H 0.9632 0.0959 0.8514
C19_4 C 0.8201(4) 0.04025(10) 0.8513(3)
C20_4 C 0.7300(4) 0.00818(10) 0.7701(3)
C21_4 C 0.7227(4) 0.01050(10) 0.6479(3)
C24_4 C 0.8229(4) 0.04000(9) 0.9820(3)
O6_2 O 0.5367(3) 0.06560(7) 0.34650(19)
O7_2 O 0.7517(3) 0.11252(7) 0.4046(2)
C6_3 C 0.0217(4) 0.35797(11) 0.1971(3)
H3_3 H 0.1365 0.3568 0.2502
H4_3 H 0.0009 0.4241 0.1960
C8_3 C 0.0243(5) 0.27850(11) 0.1858(3)
C9_3 C 0.1134(5) 0.24687(11) 0.2174(3)
C10_3 C 0.4660(4) 0.14171(10) 0.3281(3)
C11_3 C 0.2924(4) 0.13358(10) 0.2682(3)
H5_3 H 0.2533 0.1043 0.2521
C12_3 C 0.1757(4) 0.16784(10) 0.2316(3)
H6_3 H 0.0578 0.1619 0.1895
C13_3 C 0.2312(4) 0.21071(10) 0.2563(3)
C14_3 C 0.4052(5) 0.21875(11) 0.3190(4)
H7_3 H 0.4440 0.2479 0.3378
C15_4 C 0.5201(5) 0.18459(11) 0.3535(3)
H8_4 H 0.6381 0.1905 0.3954
C16_4 C 0.5917(4) 0.10455(10) 0.3629(3)
H13_3 H 0.6686 0.9875 0.1762
H11_4 H 0.6741 0.9849 0.7993
H12_4 H 0.6601 0.9885 0.5946
H14_4 H 0.6701 0.9864 0.9750
O5_2 O 0.7340(3) 0.97703(7) 0.39129(18)
O1_4 O 0.9436(3) 0.94564(7) 0.53959(19)
C1_4 C 0.8079(4) 0.94417(9) 0.4510(3)
C2_4 C 0.7245(4) 0.90017(10) 0.4149(3)
C3_4 C 0.8132(4) 0.86186(10) 0.4599(3)
H1_4 H 0.9271 0.8632 0.5141
C4_4 C 0.7346(4) 0.82174(10) 0.4254(3)
H2_4 H 0.7961 0.7956 0.4548
C5_4 C 0.5656(4) 0.81942(10) 0.3477(3)
C6_4 C 0.4783(4) 0.85797(11) 0.3029(3)
H3_4 H 0.3635 0.8568 0.2498
C7_4 C 0.5585(4) 0.89794(10) 0.3359(3)
H4_4 H 0.4991 0.9241 0.3040
C8_4 C 0.4757(5) 0.77850(11) 0.3142(3)
C9_4 C 0.3866(5) 0.74687(11) 0.2826(3)
C10_4 C 0.0340(4) 0.64171(10) 0.1719(3)
C11_4 C 0.2076(4) 0.63358(10) 0.2318(3)
H5_4 H 0.2467 0.6043 0.2479
C12_4 C 0.3243(4) 0.66784(10) 0.2684(3)
H6_4 H 0.4422 0.6619 0.3105
C13_4 C 0.2688(4) 0.71071(10) 0.2437(3)
C14_4 C 0.0948(5) 0.71875(11) 0.1810(4)
H7_4 H 0.0560 0.7479 0.1622
H13_4 H 0.3314 0.0125 0.8238
loop_
_geom_bond_atom_site_label_1
_geom_bond_atom_site_label_2
_geom_bond_site_symmetry_1
_geom_bond_site_symmetry_2
Co1 O1 1_555 1_555
O5 Co1 1_555 1_555
O6 Co1 1_555 1_555
O7 Co1 1_555 1_555
N3 Co1 1_555 1_555
O2 C1 1_555 1_555
C1 C2 1_555 1_555
C2 C3 1_555 1_555
C4 C3 1_555 1_555
H2 C4 1_555 1_555
C5 C4 1_555 1_555
C7 C2 1_555 1_555
N3 C22 1_555 1_555
C17 N1 1_555 1_555
H9 C17 1_555 1_555
C18 C17 1_555 1_555
H10 C18 1_555 1_555
C19 C18 1_555 1_555
C20 C19 1_555 1_555
H11 C20 1_555 1_555
C21 N1 1_555 1_555
H12 C21 1_555 1_555
C22 H13 1_555 1_555
C23 C22 1_555 1_555
H14 C23 1_555 1_555
C24 C19 1_555 1_555
C25 C24 1_555 1_555
H15 C25 1_555 1_555
C26 N3 1_555 1_555
H16 C26 1_555 1_555
Co3 O2 1_555 1_555
C20 C21 1_555 1_555
C23 C24 1_555 1_555
C25 C26 1_555 1_555
O3 C16 1_555 1_555
O4 C16 1_555 1_555
H8 C15 1_555 1_555
Co3 O3 1_555 1_555
O4 Co3 1_555 1_555
O5 C1_2 1_555 1_555
C1_2 C2_2 1_555 1_555
C2_2 C3_2 1_555 1_555
C4_2 C3_2 1_555 1_555
H2_2 C4_2 1_555 1_555
C5_2 C4_2 1_555 1_555
C7_2 C2_2 1_555 1_555
N2 C22_2 1_555 1_555
C17_2 N1_2 1_555 1_555
H9_2 C17_2 1_555 1_555
C18_2 C17_2 1_555 1_555
H10_2 C18_2 1_555 1_555
C19_2 C18_2 1_555 1_555
C20_2 C19_2 1_555 1_555
H11_2 C20_2 1_555 1_555
C21_2 N1_2 1_555 1_555
H12_2 C21_2 1_555 1_555
C22_2 H13_2 1_555 1_555
C23_2 C22_2 1_555 1_555
H14_2 C23_2 1_555 1_555
C24_2 C19_2 1_555 1_555
C25_2 C24_2 1_555 1_555
H15_2 C25_2 1_555 1_555
C26_2 N2 1_555 1_555
H16_2 C26_2 1_555 1_555
Co3 N2 1_555 1_555
C20_2 C21_2 1_555 1_555
C23_2 C24_2 1_555 1_555
C25_2 C26_2 1_555 1_555
Co3 O1_2 1_555 1_555
O6 C16_2 1_555 1_555
O7 C16_2 1_555 1_555
H8_2 C15_2 1_555 1_555
O3_2 C16_3 1_555 1_555
O4_2 C16_3 1_555 1_555
H3 C6 1_555 1_555
C9 C8 1_555 1_555
C10 C11 1_555 1_555
C11 H5 1_555 1_555
C12 C11 1_555 1_555
H6 C12 1_555 1_555
C13 C9 1_555 1_555
C14 C13 1_555 1_555
H7 C14 1_555 1_555
C15_3 C10 1_555 1_555
H8_3 C15_3 1_555 1_555
C16_3 C10 1_555 1_555
Co4 O3_2 1_555 1_555
O4_2 Co4 1_555 1_555
C12 C13 1_555 1_555
C14 C15_3 1_555 1_555
N1_3 Co4 1_555 1_555
C17_3 N1_3 1_555 1_555
H9_3 C17_3 1_555 1_555
C18_3 C17_3 1_555 1_555
H10_3 C18_3 1_555 1_555
C19_3 C18_3 1_555 1_555
C20_3 C19_3 1_555 1_555
C21_3 N1_3 1_555 1_555
C24_3 C19_3 1_555 1_555
N3_2 Co4 1_555 1_555
C20_3 C21_3 1_555 1_555
N3_2 C22_3 1_555 1_555
C23_3 C22_3 1_555 1_555
H15_3 C25_3 1_555 1_555
C26_3 N3_2 1_555 1_555
H16_3 C26_3 1_555 1_555
C25_3 C26_3 1_555 1_555
O1_3 C1_3 1_555 1_555
O2_2 C1_3 1_555 1_555
C1_3 C2_3 1_555 1_555
C2_3 C3_3 1_555 1_555
C3_3 H1_3 1_555 1_555
C4_3 C3_3 1_555 1_555
H2_3 C4_3 1_555 1_555
C5_3 C4_3 1_555 1_555
C6_2 C5_3 1_555 1_555
H3_2 C6_2 1_555 1_555
C7_3 C2_3 1_555 1_555
H4_2 C7_3 1_555 1_555
C8_2 C5_3 1_555 1_555
C9_2 C8_2 1_555 1_555
C10_2 C11_2 1_555 1_555
C11_2 H5_2 1_555 1_555
C12_2 C11_2 1_555 1_555
H6_2 C12_2 1_555 1_555
C13_2 C9_2 1_555 1_555
C14_2 C13_2 1_555 1_555
H7_2 C14_2 1_555 1_555
C6_2 C7_3 1_555 1_555
C12_2 C13_2 1_555 1_555
N2_2 C22_4 1_555 1_555
C23_4 C22_4 1_555 1_555
H15_4 C25_4 1_555 1_555
C26_4 N2_2 1_555 1_555
H16_4 C26_4 1_555 1_555
Co2 N2_2 1_555 1_555
C25_4 C26_4 1_555 1_555
N1_4 Co2 1_555 1_555
C17_4 N1_4 1_555 1_555
H9_4 C17_4 1_555 1_555
C18_4 C17_4 1_555 1_555
H10_4 C18_4 1_555 1_555
C19_4 C18_4 1_555 1_555
C20_4 C19_4 1_555 1_555
C21_4 N1_4 1_555 1_555
C24_4 C19_4 1_555 1_555
O6_2 Co2 1_555 1_555
O7_2 Co2 1_555 1_555
C20_4 C21_4 1_555 1_555
O6_2 C16_4 1_555 1_555
O7_2 C16_4 1_555 1_555
H3_3 C6_3 1_555 1_555
C9_3 C8_3 1_555 1_555
C10_3 C11_3 1_555 1_555
C11_3 H5_3 1_555 1_555
C12_3 C11_3 1_555 1_555
H6_3 C12_3 1_555 1_555
C13_3 C9_3 1_555 1_555
C14_3 C13_3 1_555 1_555
H7_3 C14_3 1_555 1_555
C15_4 C10_3 1_555 1_555
H8_4 C15_4 1_555 1_555
C16_4 C10_3 1_555 1_555
C12_3 C13_3 1_555 1_555
C14_3 C15_4 1_555 1_555
O1_4 C1_4 1_555 1_555
O5_2 C1_4 1_555 1_555
C1_4 C2_4 1_555 1_555
C2_4 C3_4 1_555 1_555
C3_4 H1_4 1_555 1_555
C4_4 C3_4 1_555 1_555
H2_4 C4_4 1_555 1_555
C5_4 C4_4 1_555 1_555
C6_4 C5_4 1_555 1_555
H3_4 C6_4 1_555 1_555
C7_4 C2_4 1_555 1_555
H4_4 C7_4 1_555 1_555
C8_4 C5_4 1_555 1_555
C9_4 C8_4 1_555 1_555
C10_4 C11_4 1_555 1_555
C11_4 H5_4 1_555 1_555
C12_4 C11_4 1_555 1_555
H6_4 C12_4 1_555 1_555
C13_4 C9_4 1_555 1_555
C14_4 C13_4 1_555 1_555
H7_4 C14_4 1_555 1_555
C6_4 C7_4 1_555 1_555
C12_4 C13_4 1_555 1_555

#END
