
###############################################################################
#
# This file contains modified crystal structure data generated from the
# MOF subset of the Cambridge Structural Database (CSD) v543 
# hosted by the Cambridge Crystallographic Data Centre (CCDC).
#
# This work is licensed under the Creative Commons
# Attribution-NonCommercial-ShareAlike 4.0 International License.
# To view a copy of this license, visit
# http://creativecommons.org/licenses/by-nc-sa/4.0/
# or send a letter to
# Creative Commons, PO Box 1866, Mountain View, CA 94042, USA.
#
# CIF created using the CSD Python API on 29 September 2022
# The structure has been converted into the P1 space group
# The structure has a 3D framework
# The original CSD entry XAZDOU is in the monoclinic crystal system
# The framework has been calculated to contain at least 10.0% void space
# The void calculation uses a probe of radius 1.32A, grid spacing 0.4
# The framework is charged, counterions have been retained in the structure
#
###############################################################################

data_XAZDOU
_chemical_formula_moiety         '(C68 H48 Ag2 N24 2+)n'
_symmetry_cell_setting           triclinic
_symmetry_space_group_name_H-M   'P 1'
_symmetry_Int_Tables_number      1
_space_group_name_Hall           'P 1'
loop_
_symmetry_equiv_pos_site_id
_symmetry_equiv_pos_as_xyz
1 x,y,z
_cell_length_a                   10.1531(2)
_cell_length_b                   13.2623(4)
_cell_length_c                   15.5979(3)
_cell_angle_alpha                90
_cell_angle_beta                 95.662(2)
_cell_angle_gamma                90
_cell_volume                     2090.06
loop_
_atom_site_label
_atom_site_type_symbol
_atom_site_fract_x
_atom_site_fract_y
_atom_site_fract_z
C1 C 0.1336(4) 0.3385(3) 0.4392(2)
C2 C 0.3089(4) 0.3874(3) 0.3812(2)
C3 C 0.1600(4) 0.2691(3) 0.2912(2)
C4 C 0.0433(4) 0.2890(3) 0.2416(3)
C5 C 0.0135(4) 0.2320(3) 0.1683(3)
C6 C 0.2051(4) 0.1426(3) 0.1925(2)
H3 H 0.2610 0.0925 0.1754
C7 C 0.2422(4) 0.1943(3) 0.2677(2)
H4 H 0.3203 0.1788 0.3014
C8 C 0.0096(4) 0.2865(3) 0.4531(2)
H5 H 0.0605 0.1431 0.4259
C13 C 0.4111(4) 0.4039(3) 0.3221(2)
C14 C 0.3826(4) 0.4160(3) 0.2343(3)
H9 H 0.2959 0.4115 0.2091
C15 C 0.4848(5) 0.4350(4) 0.1849(3)
H10 H 0.4680 0.4422 0.1255
C16 C 0.6116(5) 0.4432(4) 0.2238(3)
H11 H 0.6822 0.4559 0.1916
C17 C 0.6314(4) 0.4319(4) 0.3122(3)
H12 H 0.7171 0.4381 0.3388
N1 N 0.1984(3) 0.4000(2) 0.4940(2)
N2 N 0.3092(3) 0.4314(2) 0.4566(2)
N3 N 0.1985(3) 0.3280(2) 0.36689(19)
N4 N 0.0930(3) 0.1611(2) 0.1428(2)
N6 N 0.5341(3) 0.4126(2) 0.3613(2)
Ag2 Ag 0.58182(3) 0.40386(3) 0.50713(2)
Ag3 Ag 0.41818(3) 0.59614(3) 0.49287(2)
Ag4 Ag 0.08182(3) 0.09614(3) 0.00713(2)
H1 H 0.9862 0.3392 0.2571
H2 H 0.9339 0.2440 0.1350
C9 C 0.9927(4) 0.1833(3) 0.4429(3)
C10 C 0.8733(4) 0.1419(3) 0.4584(3)
H6 H 0.8592 0.0728 0.4525
C11 C 0.7751(4) 0.2037(4) 0.4827(3)
H7 H 0.6947 0.1747 0.4929
C12 C 0.9045(4) 0.3428(3) 0.4780(3)
H8 H 0.9160 0.4120 0.4849
N5 N 0.7889(3) 0.3034(3) 0.4923(2)
N7 N 0.6908(3) 0.5686(2) 0.5434(2)
N8 N 0.5930(3) 0.3389(2) 0.6428(2)
N7_2 N 0.8092(3) 0.0686(2) 0.9566(2)
C1_2 C 0.3664(4) 0.8385(3) 0.0608(2)
C2_2 C 0.1911(4) 0.8874(3) 0.1188(2)
C3_2 C 0.3400(4) 0.7691(3) 0.2088(2)
C4_2 C 0.4567(4) 0.7890(3) 0.2584(3)
H1_2 H 0.5138 0.8392 0.2429
C5_2 C 0.4865(4) 0.7320(3) 0.3317(3)
H2_2 H 0.5661 0.7440 0.3650
C6_2 C 0.2949(4) 0.6426(3) 0.3075(2)
H3_2 H 0.2390 0.5925 0.3246
C7_2 C 0.2578(4) 0.6943(3) 0.2323(2)
H4_2 H 0.1797 0.6788 0.1986
C8_2 C 0.4904(4) 0.7865(3) 0.0469(2)
C9_2 C 0.5073(4) 0.6833(3) 0.0571(3)
H5_2 H 0.4395 0.6431 0.0741
C10_2 C 0.6267(4) 0.6419(3) 0.0416(3)
H6_2 H 0.6408 0.5728 0.0475
C11_2 C 0.7249(4) 0.7037(4) 0.0173(3)
H7_2 H 0.8053 0.6747 0.0071
C12_2 C 0.5955(4) 0.8428(3) 0.0220(3)
H8_2 H 0.5840 0.9120 0.0151
C13_2 C 0.0889(4) 0.9039(3) 0.1779(2)
C14_2 C 0.1174(4) 0.9160(3) 0.2657(3)
H9_2 H 0.2041 0.9115 0.2909
C15_2 C 0.0152(5) 0.9350(4) 0.3151(3)
H10_2 H 0.0320 0.9422 0.3745
N1_2 N 0.3016(3) 0.9000(2) 0.0060(2)
N2_2 N 0.1908(3) 0.9314(2) 0.0434(2)
N3_2 N 0.3015(3) 0.8280(2) 0.13311(19)
N4_2 N 0.4070(3) 0.6611(2) 0.3572(2)
N5_2 N 0.7111(3) 0.8034(3) 0.0077(2)
N9 N 0.9659(3) 0.9126(2) 0.1387(2)
Ag1 Ag 0.91818(3) 0.90386(3) 0.99287(2)
N8_2 N 0.9070(3) 0.8389(2) 0.8572(2)
C16_2 C 0.8884(5) 0.9432(4) 0.2762(3)
H11_2 H 0.8178 0.9559 0.3084
C17_2 C 0.8686(4) 0.9319(4) 0.1878(3)
H12_2 H 0.7829 0.9381 0.1612
H1_3 H 0.0138 0.6608 0.7429
H2_3 H 0.0661 0.7560 0.8650
C9_3 C 0.0073(4) 0.8167(3) 0.5571(3)
C10_3 C 0.1267(4) 0.8581(3) 0.5416(3)
H6_3 H 0.1408 0.9272 0.5475
C11_3 C 0.2249(4) 0.7963(4) 0.5173(3)
H7_3 H 0.3053 0.8253 0.5071
C12_3 C 0.0955(4) 0.6572(3) 0.5220(3)
H8_3 H 0.0840 0.5880 0.5151
N5_3 N 0.2111(3) 0.6966(3) 0.5077(2)
N9_2 N 0.4659(3) 0.5874(2) 0.6387(2)
C1_3 C 0.8664(4) 0.6615(3) 0.5608(2)
C2_3 C 0.6911(4) 0.6126(3) 0.6188(2)
C3_3 C 0.8400(4) 0.7309(3) 0.7088(2)
C4_3 C 0.9567(4) 0.7110(3) 0.7584(3)
C5_3 C 0.9865(4) 0.7680(3) 0.8317(3)
C6_3 C 0.7949(4) 0.8574(3) 0.8075(2)
H3_3 H 0.7390 0.9075 0.8246
C7_3 C 0.7578(4) 0.8057(3) 0.7323(2)
H4_3 H 0.6797 0.8212 0.6986
C8_3 C 0.9904(4) 0.7135(3) 0.5469(2)
H5_3 H 0.9395 0.8569 0.5741
C13_3 C 0.5889(4) 0.5961(3) 0.6779(2)
C14_3 C 0.6174(4) 0.5840(3) 0.7657(3)
H9_3 H 0.7041 0.5885 0.7909
C15_3 C 0.5152(5) 0.5650(4) 0.8151(3)
H10_3 H 0.5320 0.5578 0.8745
C16_3 C 0.3884(5) 0.5568(4) 0.7762(3)
H11_3 H 0.3178 0.5441 0.8084
C17_3 C 0.3686(4) 0.5681(4) 0.6878(3)
H12_3 H 0.2829 0.5619 0.6612
N1_3 N 0.8016(3) 0.6000(2) 0.5060(2)
N3_3 N 0.8015(3) 0.6720(2) 0.63311(19)
C16_4 C 0.1116(5) 0.0568(4) 0.7238(3)
H11_4 H 0.1822 0.0441 0.6916
C17_4 C 0.1314(4) 0.0681(4) 0.8122(3)
H12_4 H 0.2171 0.0619 0.8388
N6_2 N 0.0341(3) 0.0874(2) 0.8613(2)
C1_4 C 0.6336(4) 0.1615(3) 0.9392(2)
C2_4 C 0.8089(4) 0.1126(3) 0.8812(2)
C3_4 C 0.6600(4) 0.2309(3) 0.7912(2)
C4_4 C 0.5433(4) 0.2110(3) 0.7416(3)
H1_4 H 0.4862 0.1608 0.7571
C5_4 C 0.5135(4) 0.2680(3) 0.6683(3)
H2_4 H 0.4339 0.2560 0.6350
C6_4 C 0.7051(4) 0.3574(3) 0.6925(2)
H3_4 H 0.7610 0.4075 0.6754
C7_4 C 0.7422(4) 0.3057(3) 0.7677(2)
H4_4 H 0.8203 0.3212 0.8014
C8_4 C 0.5096(4) 0.2135(3) 0.9531(2)
C9_4 C 0.4927(4) 0.3167(3) 0.9429(3)
H5_4 H 0.5605 0.3569 0.9259
C10_4 C 0.3733(4) 0.3581(3) 0.9584(3)
H6_4 H 0.3592 0.4272 0.9525
C11_4 C 0.2751(4) 0.2963(4) 0.9827(3)
H7_4 H 0.1947 0.3253 0.9929
C12_4 C 0.4045(4) 0.1572(3) 0.9780(3)
H8_4 H 0.4160 0.0880 0.9849
C13_4 C 0.9111(4) 0.0961(3) 0.8221(2)
C14_4 C 0.8826(4) 0.0840(3) 0.7343(3)
H9_4 H 0.7959 0.0885 0.7091
C15_4 C 0.9848(5) 0.0650(4) 0.6849(3)
H10_4 H 0.9680 0.0578 0.6255
N1_4 N 0.6984(3) 0.1000(2) 0.9940(2)
N3_4 N 0.6985(3) 0.1720(2) 0.86689(19)
N5_4 N 0.2889(3) 0.1966(3) 0.9923(2)
loop_
_geom_bond_atom_site_label_1
_geom_bond_atom_site_label_2
_geom_bond_site_symmetry_1
_geom_bond_site_symmetry_2
C1 C8 1_555 1_555
C2 C13 1_555 1_555
C3 C4 1_555 1_555
C5 C4 1_555 1_555
C6 H3 1_555 1_555
C7 C3 1_555 1_555
H4 C7 1_555 1_555
C13 C14 1_555 1_555
C14 H9 1_555 1_555
C15 C14 1_555 1_555
H10 C15 1_555 1_555
C16 C15 1_555 1_555
H11 C16 1_555 1_555
C17 C16 1_555 1_555
H12 C17 1_555 1_555
N1 C1 1_555 1_555
N2 C2 1_555 1_555
N3 C1 1_555 1_555
N4 C5 1_555 1_555
N6 C13 1_555 1_555
Ag2 N6 1_555 1_555
Ag3 N2 1_555 1_555
Ag4 N4 1_555 1_555
C2 N3 1_555 1_555
C3 N3 1_555 1_555
C6 C7 1_555 1_555
C6 N4 1_555 1_555
C17 N6 1_555 1_555
N1 N2 1_555 1_555
Ag2 N5 1_555 1_555
C10 C9 1_555 1_555
H6 C10 1_555 1_555
C11 C10 1_555 1_555
H7 C11 1_555 1_555
H8 C12 1_555 1_555
N5 C11 1_555 1_555
N7 Ag2 1_555 1_555
N8 Ag2 1_555 1_555
C12 N5 1_555 1_555
C1_2 C8_2 1_555 1_555
C2_2 C13_2 1_555 1_555
C3_2 C4_2 1_555 1_555
C4_2 H1_2 1_555 1_555
C5_2 C4_2 1_555 1_555
H2_2 C5_2 1_555 1_555
C6_2 H3_2 1_555 1_555
C7_2 C3_2 1_555 1_555
H4_2 C7_2 1_555 1_555
C8_2 C9_2 1_555 1_555
C9_2 H5_2 1_555 1_555
C10_2 C9_2 1_555 1_555
H6_2 C10_2 1_555 1_555
C11_2 C10_2 1_555 1_555
H7_2 C11_2 1_555 1_555
C12_2 C8_2 1_555 1_555
H8_2 C12_2 1_555 1_555
C13_2 C14_2 1_555 1_555
C14_2 H9_2 1_555 1_555
C15_2 C14_2 1_555 1_555
H10_2 C15_2 1_555 1_555
N1_2 C1_2 1_555 1_555
N2_2 C2_2 1_555 1_555
N3_2 C1_2 1_555 1_555
N4_2 C5_2 1_555 1_555
N5_2 C11_2 1_555 1_555
Ag3 N4_2 1_555 1_555
C2_2 N3_2 1_555 1_555
C3_2 N3_2 1_555 1_555
C6_2 C7_2 1_555 1_555
C6_2 N4_2 1_555 1_555
C12_2 N5_2 1_555 1_555
N1_2 N2_2 1_555 1_555
N8_2 Ag1 1_555 1_555
H11_2 C16_2 1_555 1_555
C17_2 C16_2 1_555 1_555
H12_2 C17_2 1_555 1_555
C17_2 N9 1_555 1_555
Ag3 N5_3 1_555 1_555
C10_3 C9_3 1_555 1_555
H6_3 C10_3 1_555 1_555
C11_3 C10_3 1_555 1_555
H7_3 C11_3 1_555 1_555
H8_3 C12_3 1_555 1_555
N5_3 C11_3 1_555 1_555
N9_2 Ag3 1_555 1_555
C12_3 N5_3 1_555 1_555
C1_3 C8_3 1_555 1_555
C2_3 C13_3 1_555 1_555
C3_3 C4_3 1_555 1_555
C5_3 C4_3 1_555 1_555
C6_3 H3_3 1_555 1_555
C7_3 C3_3 1_555 1_555
H4_3 C7_3 1_555 1_555
C13_3 C14_3 1_555 1_555
C14_3 H9_3 1_555 1_555
C15_3 C14_3 1_555 1_555
H10_3 C15_3 1_555 1_555
C16_3 C15_3 1_555 1_555
H11_3 C16_3 1_555 1_555
C17_3 C16_3 1_555 1_555
H12_3 C17_3 1_555 1_555
N1_3 C1_3 1_555 1_555
N7 C2_3 1_555 1_555
N3_3 C1_3 1_555 1_555
N8_2 C5_3 1_555 1_555
N9_2 C13_3 1_555 1_555
C2_3 N3_3 1_555 1_555
C3_3 N3_3 1_555 1_555
C6_3 C7_3 1_555 1_555
C6_3 N8_2 1_555 1_555
C17_3 N9_2 1_555 1_555
N1_3 N7 1_555 1_555
H11_4 C16_4 1_555 1_555
C17_4 C16_4 1_555 1_555
H12_4 C17_4 1_555 1_555
C17_4 N6_2 1_555 1_555
C1_4 C8_4 1_555 1_555
C2_4 C13_4 1_555 1_555
C3_4 C4_4 1_555 1_555
C4_4 H1_4 1_555 1_555
C5_4 C4_4 1_555 1_555
H2_4 C5_4 1_555 1_555
C6_4 H3_4 1_555 1_555
C7_4 C3_4 1_555 1_555
H4_4 C7_4 1_555 1_555
C8_4 C9_4 1_555 1_555
C9_4 H5_4 1_555 1_555
C10_4 C9_4 1_555 1_555
H6_4 C10_4 1_555 1_555
C11_4 C10_4 1_555 1_555
H7_4 C11_4 1_555 1_555
C12_4 C8_4 1_555 1_555
H8_4 C12_4 1_555 1_555
C13_4 C14_4 1_555 1_555
C14_4 H9_4 1_555 1_555
C15_4 C14_4 1_555 1_555
H10_4 C15_4 1_555 1_555
N1_4 C1_4 1_555 1_555
N7_2 C2_4 1_555 1_555
N3_4 C1_4 1_555 1_555
N8 C5_4 1_555 1_555
N5_4 C11_4 1_555 1_555
C2_4 N3_4 1_555 1_555
C3_4 N3_4 1_555 1_555
C6_4 C7_4 1_555 1_555
C6_4 N8 1_555 1_555
C12_4 N5_4 1_555 1_555
N1_4 N7_2 1_555 1_555

#END
