
###############################################################################
#
# This file contains modified crystal structure data generated from the
# MOF subset of the Cambridge Structural Database (CSD) v543 
# hosted by the Cambridge Crystallographic Data Centre (CCDC).
#
# This work is licensed under the Creative Commons
# Attribution-NonCommercial-ShareAlike 4.0 International License.
# To view a copy of this license, visit
# http://creativecommons.org/licenses/by-nc-sa/4.0/
# or send a letter to
# Creative Commons, PO Box 1866, Mountain View, CA 94042, USA.
#
# CIF created using the CSD Python API on 29 September 2022
# The structure has been converted into the P1 space group
# The structure has a 3D framework
# The original CSD entry XAZDEK is in the monoclinic crystal system
# The framework has been calculated to contain at least 10.0% void space
# The void calculation uses a probe of radius 1.32A, grid spacing 0.4
# The framework is charged, counterions have been retained in the structure
#
###############################################################################

data_XAZDEK
_chemical_formula_moiety         '(C68 H48 Ag2 N28 O8 2-)n'
_symmetry_cell_setting           triclinic
_symmetry_space_group_name_H-M   'P 1'
_symmetry_Int_Tables_number      1
_space_group_name_Hall           'P 1'
loop_
_symmetry_equiv_pos_site_id
_symmetry_equiv_pos_as_xyz
1 x,y,z
_cell_length_a                   10.0544(6)
_cell_length_b                   14.8631(9)
_cell_length_c                   13.3957(8)
_cell_angle_alpha                90
_cell_angle_beta                 98.2720(10)
_cell_angle_gamma                90
_cell_volume                     1981.02
loop_
_atom_site_label
_atom_site_type_symbol
_atom_site_fract_x
_atom_site_fract_y
_atom_site_fract_z
Ag1 Ag 0.43397(2) 0.49646(2) 0.59165(2)
N1 N 0.3031(2) 0.55887(15) 0.44586(17)
N2 N 0.1791(2) 0.51883(16) 0.41413(17)
N3 N 0.1857(2) 0.65091(14) 0.33947(16)
N5 N 0.0402(2) 0.88088(15) 0.17545(18)
N6 N 0.5421(2) 0.66092(15) 0.41465(17)
C1 C 0.3056(3) 0.63708(17) 0.40004(19)
C2 C 0.1111(3) 0.57491(17) 0.35061(19)
C3 C 0.4209(3) 0.69978(17) 0.41339(19)
C4 C 0.4036(3) 0.79217(18) 0.4244(2)
H1 H 0.3166 0.8170 0.4249
C5 C 0.5167(3) 0.84696(19) 0.4348(2)
H2 H 0.5081 0.9102 0.4415
C6 C 0.6429(3) 0.8081(2) 0.4353(2)
H3 H 0.7217 0.8442 0.4419
C7 C 0.6507(3) 0.71526(19) 0.4259(2)
H4 H 0.7368 0.6887 0.4274
H6 H 0.0147 0.5868 0.1534
C14 C 0.0169(3) 0.76661(19) 0.2987(2)
C15 C 0.1385(3) 0.72929(17) 0.28252(19)
C16 C 0.2109(3) 0.76693(18) 0.2122(2)
H11 H 0.2928 0.7410 0.1985
C17 C 0.1585(3) 0.84430(18) 0.1625(2)
H12 H 0.2094 0.8727 0.1169
Ag3 Ag 0.56603(2) 0.50354(2) 0.40835(2)
N7 N 0.2546(2) 0.47770(17) 0.69395(19)
N8 N 0.5402(2) 0.61912(15) 0.67545(18)
N9 N 0.4579(2) 0.33908(15) 0.58535(17)
Ag4 Ag 0.93397(2) 0.00354(2) 0.09165(2)
N4 N 0.7454(2) 0.52230(17) 0.30605(19)
C8 C 0.8730(3) 0.53431(19) 0.3500(2)
H5 H 0.8940 0.5253 0.4208
C9 C 0.9753(3) 0.55929(17) 0.2962(2)
C10 C 0.9462(3) 0.5708(2) 0.1921(2)
C11 C 0.8140(3) 0.5582(2) 0.1461(2)
H7 H 0.7906 0.5651 0.0752
C12 C 0.7173(3) 0.5356(2) 0.2058(2)
H8 H 0.6268 0.5291 0.1745
C13 C 0.9713(3) 0.84153(19) 0.2423(2)
H9 H 0.8868 0.8663 0.2514
H10 H 0.9666 0.7416 0.3468
N1_2 N 0.1969(2) 0.05887(15) 0.05414(17)
N2_2 N 0.3209(2) 0.01883(16) 0.08587(17)
N3_2 N 0.3143(2) 0.15091(14) 0.16053(16)
N4_2 N 0.7546(2) 0.02230(17) 0.19395(19)
N5_2 N 0.4598(2) 0.38088(15) 0.32455(18)
C1_2 C 0.1944(3) 0.13708(17) 0.09996(19)
C2_2 C 0.3889(3) 0.07491(17) 0.14939(19)
C3_2 C 0.0791(3) 0.19978(17) 0.08661(19)
C4_2 C 0.0964(3) 0.29217(18) 0.0756(2)
H1_2 H 0.1834 0.3170 0.0751
C8_2 C 0.6270(3) 0.03431(19) 0.1500(2)
H5_2 H 0.6060 0.0253 0.0792
C9_2 C 0.5247(3) 0.05929(17) 0.2038(2)
C10_2 C 0.5538(3) 0.0708(2) 0.3079(2)
H6_2 H 0.4853 0.0868 0.3466
C11_2 C 0.6860(3) 0.0582(2) 0.3539(2)
H7_2 H 0.7094 0.0651 0.4248
C12_2 C 0.7827(3) 0.0356(2) 0.2942(2)
H8_2 H 0.8732 0.0291 0.3255
C13_2 C 0.5287(3) 0.34153(19) 0.2577(2)
H9_2 H 0.6132 0.3663 0.2486
C14_2 C 0.4831(3) 0.26661(19) 0.2013(2)
H10_2 H 0.5334 0.2416 0.1532
C15_2 C 0.3615(3) 0.22929(17) 0.21748(19)
C16_2 C 0.2891(3) 0.26693(18) 0.2878(2)
H11_2 H 0.2072 0.2410 0.3015
C17_2 C 0.3415(3) 0.34430(18) 0.3375(2)
H12_2 H 0.2906 0.3727 0.3831
Ag1_2 Ag 0.06603(2) 0.99646(2) 0.90835(2)
N7_2 N 0.2454(2) 0.97770(17) 0.80605(19)
N9_2 N 0.0421(2) 0.83908(15) 0.91465(17)
N6_2 N 0.9579(2) 0.16092(15) 0.08535(17)
C5_2 C 0.9833(3) 0.34696(19) 0.0652(2)
H2_2 H 0.9919 0.4102 0.0585
C6_2 C 0.8571(3) 0.3081(2) 0.0647(2)
H3_2 H 0.7783 0.3442 0.0581
C7_2 C 0.8493(3) 0.21526(19) 0.0741(2)
H4_2 H 0.7632 0.1887 0.0726
N8_2 N 0.9598(2) 0.11912(15) 0.82455(18)
C8_3 C 0.1270(3) 0.46569(19) 0.6500(2)
H5_3 H 0.1060 0.4747 0.5792
C9_3 C 0.0247(3) 0.44071(17) 0.7038(2)
C10_3 C 0.0538(3) 0.4292(2) 0.8079(2)
C11_3 C 0.1860(3) 0.4418(2) 0.8539(2)
H7_3 H 0.2094 0.4349 0.9248
C12_3 C 0.2827(3) 0.4644(2) 0.7942(2)
H8_3 H 0.3732 0.4709 0.8255
C13_3 C 0.0287(3) 0.15847(19) 0.7577(2)
H9_3 H 0.1132 0.1337 0.7486
H10_3 H 0.0334 0.2584 0.6532
N1_3 N 0.6969(2) 0.44113(15) 0.55414(17)
N2_3 N 0.8209(2) 0.48117(16) 0.58587(17)
N3_3 N 0.8143(2) 0.34909(14) 0.66053(16)
C1_3 C 0.6944(3) 0.36292(17) 0.59996(19)
C2_3 C 0.8889(3) 0.42509(17) 0.64939(19)
C3_3 C 0.5791(3) 0.30022(17) 0.58661(19)
C4_3 C 0.5964(3) 0.20783(18) 0.5756(2)
H1_3 H 0.6834 0.1830 0.5751
C5_3 C 0.4833(3) 0.15304(19) 0.5652(2)
H2_3 H 0.4919 0.0898 0.5585
C6_3 C 0.3571(3) 0.1919(2) 0.5647(2)
H3_3 H 0.2783 0.1558 0.5581
C7_3 C 0.3493(3) 0.28474(19) 0.5741(2)
H4_3 H 0.2632 0.3113 0.5726
H6_3 H 0.9853 0.4132 0.8466
C14_3 C 0.9831(3) 0.23339(19) 0.7013(2)
C15_3 C 0.8615(3) 0.27071(17) 0.71748(19)
C16_3 C 0.7891(3) 0.23307(18) 0.7878(2)
H11_3 H 0.7072 0.2590 0.8015
C17_3 C 0.8415(3) 0.15570(18) 0.8375(2)
H12_3 H 0.7906 0.1273 0.8831
C5_4 C 0.0167(3) 0.65304(19) 0.9348(2)
H2_4 H 0.0081 0.5898 0.9415
C6_4 C 0.1429(3) 0.6919(2) 0.9353(2)
H3_4 H 0.2217 0.6558 0.9419
C7_4 C 0.1507(3) 0.78474(19) 0.9259(2)
H4_4 H 0.2368 0.8113 0.9274
N1_4 N 0.8031(2) 0.94113(15) 0.94586(17)
N2_4 N 0.6791(2) 0.98117(16) 0.91413(17)
N3_4 N 0.6857(2) 0.84909(14) 0.83947(16)
C1_4 C 0.8056(3) 0.86292(17) 0.90004(19)
C2_4 C 0.6111(3) 0.92509(17) 0.85061(19)
C3_4 C 0.9209(3) 0.80022(17) 0.91339(19)
C4_4 C 0.9036(3) 0.70783(18) 0.9244(2)
H1_4 H 0.8166 0.6830 0.9249
C8_4 C 0.3730(3) 0.96569(19) 0.8500(2)
H5_4 H 0.3940 0.9747 0.9208
C9_4 C 0.4753(3) 0.94071(17) 0.7962(2)
C10_4 C 0.4462(3) 0.9292(2) 0.6921(2)
H6_4 H 0.5147 0.9132 0.6534
C11_4 C 0.3140(3) 0.9418(2) 0.6461(2)
H7_4 H 0.2906 0.9349 0.5752
C12_4 C 0.2173(3) 0.9644(2) 0.7058(2)
H8_4 H 0.1268 0.9709 0.6745
C13_4 C 0.4713(3) 0.65847(19) 0.7423(2)
H9_4 H 0.3868 0.6337 0.7514
C14_4 C 0.5169(3) 0.73339(19) 0.7987(2)
H10_4 H 0.4666 0.7584 0.8468
C15_4 C 0.6385(3) 0.77071(17) 0.78252(19)
C16_4 C 0.7109(3) 0.73307(18) 0.7122(2)
H11_4 H 0.7928 0.7590 0.6985
C17_4 C 0.6585(3) 0.65570(18) 0.6625(2)
H12_4 H 0.7094 0.6273 0.6169
N10 N 0.2144(5) 0.0293(3) 0.3454(4)
O1 O 0.1173(3) 0.0796(2) 0.3278(3)
O2 O 0.2083(4) 0.9654(2) 0.4045(3)
N10_2 N 0.2856(5) 0.5293(3) 0.1546(4)
O1_2 O 0.3827(3) 0.5796(2) 0.1722(3)
O2_2 O 0.2917(4) 0.4654(2) 0.0955(3)
O2_3 O 0.7917(4) 0.0346(2) 0.5955(3)
N10_3 N 0.7856(5) 0.9707(3) 0.6546(4)
O1_3 O 0.8827(3) 0.9204(2) 0.6722(3)
N10_4 N 0.7144(5) 0.4707(3) 0.8454(4)
O1_4 O 0.6173(3) 0.4204(2) 0.8278(3)
O2_4 O 0.7083(4) 0.5346(2) 0.9045(3)
loop_
_geom_bond_atom_site_label_1
_geom_bond_atom_site_label_2
_geom_bond_site_symmetry_1
_geom_bond_site_symmetry_2
Ag1 N1 1_555 1_555
N1 N2 1_555 1_555
N2 C2 1_555 1_555
N3 C1 1_555 1_555
N6 C3 1_555 1_555
C1 N1 1_555 1_555
C2 N3 1_555 1_555
C3 C1 1_555 1_555
C4 C3 1_555 1_555
H1 C4 1_555 1_555
C5 C4 1_555 1_555
H2 C5 1_555 1_555
C6 C5 1_555 1_555
H3 C6 1_555 1_555
C7 N6 1_555 1_555
H4 C7 1_555 1_555
C15 N3 1_555 1_555
C16 C15 1_555 1_555
H11 C16 1_555 1_555
C17 N5 1_555 1_555
H12 C17 1_555 1_555
Ag3 N6 1_555 1_555
N7 Ag1 1_555 1_555
N8 Ag1 1_555 1_555
N9 Ag1 1_555 1_555
C6 C7 1_555 1_555
C14 C15 1_555 1_555
C16 C17 1_555 1_555
N4 C8 1_555 1_555
C8 H5 1_555 1_555
C10 C9 1_555 1_555
C11 C10 1_555 1_555
H7 C11 1_555 1_555
C12 N4 1_555 1_555
H8 C12 1_555 1_555
C13 H9 1_555 1_555
Ag3 N4 1_555 1_555
C8 C9 1_555 1_555
C11 C12 1_555 1_555
N1_2 N2_2 1_555 1_555
N2_2 C2_2 1_555 1_555
N3_2 C1_2 1_555 1_555
N4_2 C8_2 1_555 1_555
N5_2 C13_2 1_555 1_555
C1_2 N1_2 1_555 1_555
C2_2 N3_2 1_555 1_555
C3_2 C1_2 1_555 1_555
C4_2 C3_2 1_555 1_555
H1_2 C4_2 1_555 1_555
C8_2 H5_2 1_555 1_555
C9_2 C2_2 1_555 1_555
C10_2 C9_2 1_555 1_555
H6_2 C10_2 1_555 1_555
C11_2 C10_2 1_555 1_555
H7_2 C11_2 1_555 1_555
C12_2 N4_2 1_555 1_555
H8_2 C12_2 1_555 1_555
C13_2 H9_2 1_555 1_555
C14_2 C13_2 1_555 1_555
H10_2 C14_2 1_555 1_555
C15_2 N3_2 1_555 1_555
C16_2 C15_2 1_555 1_555
H11_2 C16_2 1_555 1_555
C17_2 N5_2 1_555 1_555
H12_2 C17_2 1_555 1_555
Ag4 N4_2 1_555 1_555
Ag3 N5_2 1_555 1_555
C8_2 C9_2 1_555 1_555
C11_2 C12_2 1_555 1_555
C14_2 C15_2 1_555 1_555
C16_2 C17_2 1_555 1_555
N7_2 Ag1_2 1_555 1_555
N9_2 Ag1_2 1_555 1_555
H2_2 C5_2 1_555 1_555
C6_2 C5_2 1_555 1_555
H3_2 C6_2 1_555 1_555
C7_2 N6_2 1_555 1_555
H4_2 C7_2 1_555 1_555
Ag4 N6_2 1_555 1_555
C6_2 C7_2 1_555 1_555
N7 C8_3 1_555 1_555
C8_3 H5_3 1_555 1_555
C10_3 C9_3 1_555 1_555
C11_3 C10_3 1_555 1_555
H7_3 C11_3 1_555 1_555
C12_3 N7 1_555 1_555
H8_3 C12_3 1_555 1_555
C13_3 H9_3 1_555 1_555
C8_3 C9_3 1_555 1_555
C11_3 C12_3 1_555 1_555
Ag3 N1_3 1_555 1_555
N1_3 N2_3 1_555 1_555
N2_3 C2_3 1_555 1_555
N3_3 C1_3 1_555 1_555
N9 C3_3 1_555 1_555
C1_3 N1_3 1_555 1_555
C2_3 N3_3 1_555 1_555
C3_3 C1_3 1_555 1_555
C4_3 C3_3 1_555 1_555
H1_3 C4_3 1_555 1_555
C5_3 C4_3 1_555 1_555
H2_3 C5_3 1_555 1_555
C6_3 C5_3 1_555 1_555
H3_3 C6_3 1_555 1_555
C7_3 N9 1_555 1_555
H4_3 C7_3 1_555 1_555
C15_3 N3_3 1_555 1_555
C16_3 C15_3 1_555 1_555
H11_3 C16_3 1_555 1_555
C17_3 N8_2 1_555 1_555
H12_3 C17_3 1_555 1_555
C6_3 C7_3 1_555 1_555
C14_3 C15_3 1_555 1_555
C16_3 C17_3 1_555 1_555
H2_4 C5_4 1_555 1_555
C6_4 C5_4 1_555 1_555
H3_4 C6_4 1_555 1_555
C7_4 N9_2 1_555 1_555
H4_4 C7_4 1_555 1_555
C6_4 C7_4 1_555 1_555
N1_4 N2_4 1_555 1_555
N2_4 C2_4 1_555 1_555
N3_4 C1_4 1_555 1_555
N7_2 C8_4 1_555 1_555
N8 C13_4 1_555 1_555
C1_4 N1_4 1_555 1_555
C2_4 N3_4 1_555 1_555
C3_4 C1_4 1_555 1_555
C4_4 C3_4 1_555 1_555
H1_4 C4_4 1_555 1_555
C8_4 H5_4 1_555 1_555
C9_4 C2_4 1_555 1_555
C10_4 C9_4 1_555 1_555
H6_4 C10_4 1_555 1_555
C11_4 C10_4 1_555 1_555
H7_4 C11_4 1_555 1_555
C12_4 N7_2 1_555 1_555
H8_4 C12_4 1_555 1_555
C13_4 H9_4 1_555 1_555
C14_4 C13_4 1_555 1_555
H10_4 C14_4 1_555 1_555
C15_4 N3_4 1_555 1_555
C16_4 C15_4 1_555 1_555
H11_4 C16_4 1_555 1_555
C17_4 N8 1_555 1_555
H12_4 C17_4 1_555 1_555
C8_4 C9_4 1_555 1_555
C11_4 C12_4 1_555 1_555
C14_4 C15_4 1_555 1_555
C16_4 C17_4 1_555 1_555
N10 O1 1_555 1_555
N10_2 O1_2 1_555 1_555
O2_2 N10_2 1_555 1_555
N10_3 O1_3 1_555 1_555
N10_4 O1_4 1_555 1_555
O2_4 N10_4 1_555 1_555

#END
