
###############################################################################
#
# This file contains modified crystal structure data generated from the
# MOF subset of the Cambridge Structural Database (CSD) v543 
# hosted by the Cambridge Crystallographic Data Centre (CCDC).
#
# This work is licensed under the Creative Commons
# Attribution-NonCommercial-ShareAlike 4.0 International License.
# To view a copy of this license, visit
# http://creativecommons.org/licenses/by-nc-sa/4.0/
# or send a letter to
# Creative Commons, PO Box 1866, Mountain View, CA 94042, USA.
#
# CIF created using the CSD Python API on 29 September 2022
# The structure has been converted into the P1 space group
# The structure has a 3D framework
# The original CSD entry XAZFEJ is in the orthorhombic crystal system
# The framework has been calculated to contain at least 10.0% void space
# The void calculation uses a probe of radius 1.32A, grid spacing 0.4
# The framework is charged, counterions have been retained in the structure
#
###############################################################################

data_XAZFEJ
_chemical_formula_moiety         '(C28 H60 Ag12 N20 O6 12+)n'
_symmetry_cell_setting           triclinic
_symmetry_space_group_name_H-M   'P 1'
_symmetry_Int_Tables_number      1
_space_group_name_Hall           'P 1'
loop_
_symmetry_equiv_pos_site_id
_symmetry_equiv_pos_as_xyz
1 x,y,z
_cell_length_a                   10.011(4)
_cell_length_b                   19.369(7)
_cell_length_c                   6.4140(10)
_cell_angle_alpha                90
_cell_angle_beta                 90
_cell_angle_gamma                90
_cell_volume                     1243.69
loop_
_atom_site_label
_atom_site_type_symbol
_atom_site_fract_x
_atom_site_fract_y
_atom_site_fract_z
Ag1 Ag 0.14116(5) 0.19616(3) 0.0000
O1 O 0.0639(8) 0.0785(4) 0.0000
H1 H 0.0204 0.0995 0.1093
N9 N 0.2675(3) 0.18646(16) 0.3105(5)
Ag1_2 Ag 0.14116(5) 0.19616(3) 1.0000
Ag2 Ag 0.5000 0.0000 0.5000
O1_2 O 0.0639(8) 0.0785(4) 1.0000
N1 N 0.2675(3) 0.18646(16) 0.6895(5)
N2 N 0.4090(5) 0.1061(3) 0.5000
N3 N 0.4620(5) 0.2285(3) 0.5000
C1 C 0.3263(4) 0.1164(2) 0.6870(7)
H2 H 0.2558 0.0828 0.6885
H3 H 0.3797 0.1097 0.8096
C2 C 0.3782(4) 0.2370(2) 0.6870(7)
H4 H 0.4323 0.2305 0.8090
H5 H 0.3427 0.2830 0.6907
C3 C 0.1873(6) 0.1956(3) 0.5000
H6 H 0.1189 0.1609 0.5000
H7 H 0.1468 0.2406 0.5000
C4 C 0.5169(6) 0.1573(3) 0.5000
H8 H 0.5717 0.1508 0.3788
H9 H 0.0204 0.0995 0.8907
C5 C 0.3263(4) 0.1164(2) 0.3130(7)
C6 C 0.3782(4) 0.2370(2) 0.3130(7)
H10 H 0.5717 0.1508 0.6212
H11 H 0.4323 0.2305 0.1910
H12 H 0.3427 0.2830 0.3093
H13 H 0.2558 0.0828 0.3115
H14 H 0.3797 0.1097 0.1904
Ag4 Ag 0.64116(5) 0.30384(3) 0.5000
Ag7 Ag 0.85884(5) 0.80384(3) 0.0000
Ag2_2 Ag 0.5000 1.0000 0.5000
N5 N 0.7325(3) 0.81354(16) 0.3105(5)
N6 N 0.5910(5) 0.8939(3) 0.5000
N7 N 0.5380(5) 0.7715(3) 0.5000
C7 C 0.6737(4) 0.8836(2) 0.3130(7)
H15 H 0.7442 0.9172 0.3115
H16 H 0.6203 0.8903 0.1904
C8 C 0.6218(4) 0.7630(2) 0.3130(7)
H17 H 0.5677 0.7695 0.1910
H18 H 0.6573 0.7170 0.3093
C9 C 0.8127(6) 0.8044(3) 0.5000
H19 H 0.8811 0.8391 0.5000
H20 H 0.8532 0.7594 0.5000
C10 C 0.4831(6) 0.8427(3) 0.5000
H21 H 0.4283 0.8492 0.6212
C11 C 0.6737(4) 0.8836(2) 0.6870(7)
N8 N 0.7325(3) 0.81354(16) 0.6895(5)
C12 C 0.6218(4) 0.7630(2) 0.6870(7)
H22 H 0.4283 0.8492 0.3788
H23 H 0.5677 0.7695 0.8090
H24 H 0.6573 0.7170 0.6907
H25 H 0.7442 0.9172 0.6885
H26 H 0.6203 0.8903 0.8096
Ag6 Ag 0.35884(5) 0.69616(3) 0.5000
Ag7_2 Ag 0.85884(5) 0.80384(3) 1.0000
N10 N 0.9620(5) 0.2715(3) 0.0000
N10_2 N 0.9620(5) 0.2715(3) 1.0000
Ag2_3 Ag -0.0000 0.5000 0.0000
C4_2 C 0.0169(6) 0.3427(3) 0.0000
H10_2 H 0.0717 0.3492 0.1212
N6_2 N 0.0910(5) 0.6061(3) 0.0000
N7_2 N 0.0380(5) 0.7285(3) 0.0000
C9_2 C 0.3127(6) 0.6956(3) 0.0000
H19_2 H 0.3811 0.6609 0.0000
H20_2 H 0.3532 0.7406 0.0000
C11_2 C 0.1737(4) 0.6164(2) 0.1870(7)
N8_2 N 0.2325(3) 0.68646(16) 0.1895(5)
C12_2 C 0.1218(4) 0.7370(2) 0.1870(7)
H23_2 H 0.0677 0.7305 0.3090
H24_2 H 0.1573 0.7830 0.1907
H25_2 H 0.2442 0.5828 0.1885
H26_2 H 0.1203 0.6097 0.3096
Ag2_4 Ag -0.0000 0.5000 1.0000
C4_3 C 0.0169(6) 0.3427(3) 1.0000
H8_2 H 0.0717 0.3492 0.8788
N5_2 N 0.2325(3) 0.68646(16) 0.8105(5)
N6_3 N 0.0910(5) 0.6061(3) 1.0000
N7_3 N 0.0380(5) 0.7285(3) 1.0000
C7_2 C 0.1737(4) 0.6164(2) 0.8130(7)
H15_2 H 0.2442 0.5828 0.8115
H16_2 H 0.1203 0.6097 0.6904
C8_2 C 0.1218(4) 0.7370(2) 0.8130(7)
H17_2 H 0.0677 0.7305 0.6910
H18_2 H 0.1573 0.7830 0.8093
C9_3 C 0.3127(6) 0.6956(3) 1.0000
H19_3 H 0.3811 0.6609 1.0000
H20_3 H 0.3532 0.7406 1.0000
Ag2_5 Ag 1.0000 0.5000 0.0000
O1_3 O 0.5639(8) 0.4215(4) 0.5000
H1_2 H 0.5204 0.4005 0.6093
N1_2 N 0.7675(3) 0.31354(16) 0.1895(5)
N2_2 N 0.9090(5) 0.3939(3) 0.0000
C1_2 C 0.8263(4) 0.3836(2) 0.1870(7)
H2_2 H 0.7558 0.4172 0.1885
H3_2 H 0.8797 0.3903 0.3096
C2_2 C 0.8782(4) 0.2630(2) 0.1870(7)
H4_2 H 0.9323 0.2695 0.3090
H5_2 H 0.8427 0.2170 0.1907
C3_2 C 0.6873(6) 0.3044(3) 0.0000
H6_2 H 0.6189 0.3391 0.0000
H7_2 H 0.6468 0.2594 0.0000
H9_2 H 0.5204 0.4005 0.3907
C10_2 C 0.9831(6) 0.6573(3) 0.0000
H21_2 H 0.9283 0.6508 0.1212
N9_2 N 0.7675(3) 0.31354(16) 0.8105(5)
Ag2_6 Ag 1.0000 0.5000 1.0000
N2_3 N 0.9090(5) 0.3939(3) 1.0000
C3_3 C 0.6873(6) 0.3044(3) 1.0000
H6_3 H 0.6189 0.3391 1.0000
H7_3 H 0.6468 0.2594 1.0000
C5_2 C 0.8263(4) 0.3836(2) 0.8130(7)
C6_2 C 0.8782(4) 0.2630(2) 0.8130(7)
H11_2 H 0.9323 0.2695 0.6910
H12_2 H 0.8427 0.2170 0.8093
H13_2 H 0.7558 0.4172 0.8115
H14_2 H 0.8797 0.3903 0.6904
C10_3 C 0.9831(6) 0.6573(3) 1.0000
H22_2 H 0.9283 0.6508 0.8788
O1_4 O 0.4361(8) 0.5785(4) 0.5000
H1_3 H 0.4796 0.5995 0.6093
H9_3 H 0.4796 0.5995 0.3907
O2 O 0.9361(8) 0.9215(4) -0.0000
H28 H 0.9796 0.9005 0.1093
O2_2 O 0.9361(8) 0.9215(4) 1.0000
H27 H 0.9796 0.9005 0.8907
loop_
_geom_bond_atom_site_label_1
_geom_bond_atom_site_label_2
_geom_bond_site_symmetry_1
_geom_bond_site_symmetry_2
Ag1 O1 1_555 1_555
O1 H1 1_555 1_555
N9 Ag1 1_555 1_555
Ag1_2 O1_2 1_555 1_555
Ag2 N2 1_555 1_555
N1 Ag1_2 1_555 1_555
N2 C1 1_555 1_555
N3 C2 1_555 1_555
C1 N1 1_555 1_555
H2 C1 1_555 1_555
H3 C1 1_555 1_555
C2 N1 1_555 1_555
H4 C2 1_555 1_555
H5 C2 1_555 1_555
C3 N1 1_555 1_555
H6 C3 1_555 1_555
H7 C3 1_555 1_555
C4 N2 1_555 1_555
H8 C4 1_555 1_555
H9 O1_2 1_555 1_555
C5 N2 1_555 1_555
N9 C3 1_555 1_555
C6 N3 1_555 1_555
H10 C4 1_555 1_555
H11 C6 1_555 1_555
H12 C6 1_555 1_555
H13 C5 1_555 1_555
H14 C5 1_555 1_555
Ag4 N3 1_555 1_555
N3 C4 1_555 1_555
C5 N9 1_555 1_555
N9 C6 1_555 1_555
N5 C7 1_555 1_555
N6 Ag2_2 1_555 1_555
N7 C8 1_555 1_555
C7 N6 1_555 1_555
H15 C7 1_555 1_555
H16 C7 1_555 1_555
C8 N5 1_555 1_555
H17 C8 1_555 1_555
H18 C8 1_555 1_555
C9 N5 1_555 1_555
H19 C9 1_555 1_555
H20 C9 1_555 1_555
C10 N6 1_555 1_555
H21 C10 1_555 1_555
C11 N6 1_555 1_555
N8 C9 1_555 1_555
C12 N7 1_555 1_555
H22 C10 1_555 1_555
H23 C12 1_555 1_555
H24 C12 1_555 1_555
H25 C11 1_555 1_555
H26 C11 1_555 1_555
Ag7 N5 1_555 1_555
Ag6 N7 1_555 1_555
Ag7_2 N8 1_555 1_555
N7 C10 1_555 1_555
C11 N8 1_555 1_555
N8 C12 1_555 1_555
H10_2 C4_2 1_555 1_555
N6_2 Ag2_3 1_555 1_555
H19_2 C9_2 1_555 1_555
H20_2 C9_2 1_555 1_555
C11_2 N6_2 1_555 1_555
N8_2 C9_2 1_555 1_555
C12_2 N7_2 1_555 1_555
H23_2 C12_2 1_555 1_555
H24_2 C12_2 1_555 1_555
H25_2 C11_2 1_555 1_555
H26_2 C11_2 1_555 1_555
Ag6 N8_2 1_555 1_555
C11_2 N8_2 1_555 1_555
N8_2 C12_2 1_555 1_555
H8_2 C4_3 1_555 1_555
N5_2 C7_2 1_555 1_555
N6_3 Ag2_4 1_555 1_555
N7_3 C8_2 1_555 1_555
C7_2 N6_3 1_555 1_555
H15_2 C7_2 1_555 1_555
H16_2 C7_2 1_555 1_555
C8_2 N5_2 1_555 1_555
H17_2 C8_2 1_555 1_555
H18_2 C8_2 1_555 1_555
C9_3 N5_2 1_555 1_555
H19_3 C9_3 1_555 1_555
H20_3 C9_3 1_555 1_555
Ag6 N5_2 1_555 1_555
Ag4 O1_3 1_555 1_555
Ag2_5 N2_2 1_555 1_555
O1_3 H1_2 1_555 1_555
N1_2 Ag4 1_555 1_555
N2_2 C1_2 1_555 1_555
N10 C2_2 1_555 1_555
C1_2 N1_2 1_555 1_555
H2_2 C1_2 1_555 1_555
H3_2 C1_2 1_555 1_555
C2_2 N1_2 1_555 1_555
H4_2 C2_2 1_555 1_555
H5_2 C2_2 1_555 1_555
C3_2 N1_2 1_555 1_555
H6_2 C3_2 1_555 1_555
H7_2 C3_2 1_555 1_555
H9_2 O1_3 1_555 1_555
H21_2 C10_2 1_555 1_555
N9_2 Ag4 1_555 1_555
Ag2_6 N2_3 1_555 1_555
H6_3 C3_3 1_555 1_555
H7_3 C3_3 1_555 1_555
C5_2 N2_3 1_555 1_555
N9_2 C3_3 1_555 1_555
C6_2 N10_2 1_555 1_555
H11_2 C6_2 1_555 1_555
H12_2 C6_2 1_555 1_555
H13_2 C5_2 1_555 1_555
H14_2 C5_2 1_555 1_555
H22_2 C10_3 1_555 1_555
C5_2 N9_2 1_555 1_555
N9_2 C6_2 1_555 1_555
Ag6 O1_4 1_555 1_555
O1_4 H1_3 1_555 1_555
H9_3 O1_4 1_555 1_555
O2 Ag7 1_555 1_555
H28 O2 1_555 1_555
O2_2 Ag7_2 1_555 1_555
H27 O2_2 1_555 1_555

#END
