
###############################################################################
#
# This file contains modified crystal structure data generated from the
# MOF subset of the Cambridge Structural Database (CSD) v543 
# hosted by the Cambridge Crystallographic Data Centre (CCDC).
#
# This work is licensed under the Creative Commons
# Attribution-NonCommercial-ShareAlike 4.0 International License.
# To view a copy of this license, visit
# http://creativecommons.org/licenses/by-nc-sa/4.0/
# or send a letter to
# Creative Commons, PO Box 1866, Mountain View, CA 94042, USA.
#
# CIF created using the CSD Python API on 29 September 2022
# The structure has been converted into the P1 space group
# The structure has a 3D framework
# The original CSD entry XAZFOT is in the monoclinic crystal system
# The framework has been calculated to contain at least 10.0% void space
# The void calculation uses a probe of radius 1.32A, grid spacing 0.4
#
###############################################################################

data_XAZFOT
_chemical_formula_moiety         '(C88 H112 Ag13 N32 O32)n'
_symmetry_cell_setting           triclinic
_symmetry_space_group_name_H-M   'P 1'
_symmetry_Int_Tables_number      1
_space_group_name_Hall           'P 1'
loop_
_symmetry_equiv_pos_site_id
_symmetry_equiv_pos_as_xyz
1 x,y,z
_cell_length_a                   12.587(7)
_cell_length_b                   22.311(10)
_cell_length_c                   13.063(7)
_cell_angle_alpha                90
_cell_angle_beta                 103.30
_cell_angle_gamma                90
_cell_volume                     3570.07
loop_
_atom_site_label
_atom_site_type_symbol
_atom_site_fract_x
_atom_site_fract_y
_atom_site_fract_z
O1 O 0.1932(4) 0.4719(2) 0.0072(4)
O3 O 0.3190(4) 0.6771(2) 0.1135(4)
O4 O 0.3396(4) 0.6295(2) 0.2656(4)
C1 C 0.0000 0.4316(4) 0.2500
C3 C 0.0932(4) 0.3555(3) 0.1737(5)
H4 H 0.0899 0.3308 0.1129
H5 H 0.1575 0.3799 0.1836
C4 C 0.0000 0.2793(4) 0.2500
C9 C 0.2241(4) 0.5197(3) 0.0566(4)
C10 C 0.3452(5) 0.5321(3) 0.0807(5)
H13 H 0.3902 0.5019 0.0596
C11 C 0.3949(5) 0.5801(3) 0.1282(5)
H14 H 0.4725 0.5819 0.1354
C12 C 0.3455(4) 0.6322(3) 0.1715(5)
H15 H 0.0634 0.4569 0.2613
N5 N 0.0045(4) 0.3944(2) 0.3439(4)
N6 N 0.0999(3) 0.31683(19) 0.2680(4)
H16 H 0.0030 0.2541 0.3101
O5 O 0.1638(3) 0.5567(2) 0.0855(4)
Ag4 Ag 0.24903(4) 0.75888(2) 0.21566(4)
C20 C 0.1034(4) 0.3562(3) 0.3603(5)
Ag9 Ag 0.25097(4) 0.25888(2) 0.28434(4)
H27 H 0.1081 0.3320 0.4220
H28 H 0.1671 0.3812 0.3713
Ag1 Ag 0.02143(4) 0.43905(2) 0.98545(4)
N4 N 0.0260(4) 0.3641(2) 0.8469(4)
C5 C 0.0000 0.2482(3) 0.7500
C7 C 0.1210(4) 0.3255(2) 0.8424(4)
H10 H 0.1394 0.3011 0.9046
H11 H 0.1827 0.3504 0.8403
C8 C 0.0000 0.4006(3) 0.7500
N8 N 0.0966(3) 0.28618(18) 0.7474(4)
H17 H 0.0613 0.4259 0.7485
N10 N 0.0045(4) 0.6056(2) 0.8439(4)
C18 C 0.0685(4) 0.3245(2) 0.6532(4)
Ag7 Ag 0.24903(4) 0.24112(2) 0.71566(4)
H20 H 0.1308 0.3486 0.6499
H21 H 0.0520 0.2996 0.5917
H26 H 0.0164 0.2229 0.8111
Ag2 Ag 0.74903(4) 0.25888(2) 0.21566(4)
N1 N 0.9955(4) 0.3944(2) 0.1561(4)
N2 N 0.9001(3) 0.31683(19) 0.2320(4)
C1_2 C 1.0000 0.4316(4) 0.2500
H1 H 0.9366 0.4569 0.2387
C2 C 0.8966(4) 0.3562(3) 0.1397(5)
H2 H 0.8919 0.3320 0.0780
H3 H 0.8329 0.3812 0.1287
C4_2 C 1.0000 0.2793(4) 0.2500
H6 H 0.9970 0.2541 0.1899
Ag3 Ag 0.97857(4) 0.56095(2) 0.01455(4)
C13 C 0.9068(4) 0.3555(3) 0.3263(5)
N7 N 0.5966(3) 0.21382(18) 0.2474(4)
N11 N 0.9740(4) 0.6359(2) 0.1531(4)
O7 O 0.8190(4) 0.1771(2) 0.1135(4)
Ag8 Ag 0.97857(4) 0.43905(2) 0.51455(4)
H22 H 0.9101 0.3308 0.3871
H23 H 0.8425 0.3799 0.3164
N3 N 0.9034(3) 0.28618(18) 0.7526(4)
O2 O 0.8362(3) 0.4433(2) 0.9145(4)
C5_2 C 1.0000 0.2482(3) 0.7500
H7 H 0.9836 0.2229 0.6889
C6 C 0.9315(4) 0.3245(2) 0.8468(4)
H8 H 0.8692 0.3486 0.8501
H9 H 0.9480 0.2996 0.9083
C8_2 C 1.0000 0.4006(3) 0.7500
H12 H 0.9387 0.4259 0.7515
C14 C 0.7759(4) 0.4803(3) 0.9434(4)
N9 N 0.9740(4) 0.3641(2) 0.6531(4)
O6 O 0.8068(4) 0.5281(2) 0.9928(4)
C15 C 0.6548(5) 0.4679(3) 0.9193(5)
H18 H 0.6098 0.4981 0.9404
C16 C 0.6051(5) 0.4199(3) 0.8718(5)
H19 H 0.5275 0.4181 0.8646
C17 C 0.6545(4) 0.3678(3) 0.8285(5)
O8 O 0.6810(4) 0.3229(2) 0.8865(4)
O9 O 0.6604(4) 0.3705(2) 0.7344(4)
Ag5 Ag 0.75097(4) 0.24112(2) 0.78434(4)
C19 C 0.8790(4) 0.3255(2) 0.6576(4)
N12 N 0.5999(3) 0.18317(19) 0.7680(4)
H24 H 0.8606 0.3011 0.5954
H25 H 0.8173 0.3504 0.6597
O4_2 O 0.8396(4) 0.1295(2) 0.2656(4)
C9_2 C 0.7241(4) 0.0197(3) 0.0566(4)
C10_2 C 0.8452(5) 0.0321(3) 0.0807(5)
H13_2 H 0.8902 0.0019 0.0596
C11_2 C 0.8949(5) 0.0801(3) 0.1282(5)
H14_2 H 0.9725 0.0819 0.1354
C12_2 C 0.8455(4) 0.1322(3) 0.1715(5)
Ag3_2 Ag 0.47857(4) 0.06095(2) 0.01455(4)
O5_2 O 0.6638(3) 0.0567(2) 0.0855(4)
N11_2 N 0.4740(4) 0.1359(2) 0.1531(4)
N10_2 N 0.5045(4) 0.1056(2) 0.8439(4)
O6_2 O 0.3068(4) 0.0281(2) 0.9928(4)
N1_2 N 0.4955(4) 0.8944(2) 0.1561(4)
N2_2 N 0.4001(3) 0.81683(19) 0.2320(4)
O1_2 O 0.6932(4) 0.9719(2) 0.0072(4)
C1_3 C 0.5000 0.9316(4) 0.2500
H1_2 H 0.4366 0.9569 0.2387
C2_2 C 0.3966(4) 0.8562(3) 0.1397(5)
H2_2 H 0.3919 0.8320 0.0780
H3_2 H 0.3329 0.8812 0.1287
C3_2 C 0.5932(4) 0.8555(3) 0.1737(5)
H4_2 H 0.5899 0.8308 0.1129
H5_2 H 0.6575 0.8799 0.1836
C4_3 C 0.5000 0.7793(4) 0.2500
H6_2 H 0.4970 0.7541 0.1899
C13_2 C 0.4068(4) 0.8555(3) 0.3263(5)
H15_2 H 0.5634 0.9569 0.2613
N5_2 N 0.5045(4) 0.8944(2) 0.3439(4)
N6_2 N 0.5999(3) 0.81683(19) 0.2680(4)
H16_2 H 0.5030 0.7541 0.3101
N7_2 N 0.0966(3) 0.71382(18) 0.2474(4)
Ag8_2 Ag 0.47857(4) 0.93905(2) 0.51455(4)
C20_2 C 0.6034(4) 0.8562(3) 0.3603(5)
H22_2 H 0.4101 0.8308 0.3871
H23_2 H 0.3425 0.8799 0.3164
Ag9_2 Ag 0.75097(4) 0.75888(2) 0.28434(4)
H27_2 H 0.6081 0.8320 0.4220
H28_2 H 0.6671 0.8812 0.3713
Ag1_2 Ag 0.52143(4) 0.93905(2) 0.98545(4)
N3_2 N 0.4034(3) 0.78618(18) 0.7526(4)
N4_2 N 0.5260(4) 0.8641(2) 0.8469(4)
O2_2 O 0.3362(3) 0.9433(2) 0.9145(4)
C5_3 C 0.5000 0.7482(3) 0.7500
H7_2 H 0.4836 0.7229 0.6889
C6_2 C 0.4315(4) 0.8245(2) 0.8468(4)
H8_2 H 0.3692 0.8486 0.8501
H9_2 H 0.4480 0.7996 0.9083
C7_2 C 0.6210(4) 0.8255(2) 0.8424(4)
H10_2 H 0.6394 0.8011 0.9046
H11_2 H 0.6827 0.8504 0.8403
C8_3 C 0.5000 0.9006(3) 0.7500
H12_2 H 0.4387 0.9259 0.7515
C14_2 C 0.2759(4) 0.9803(3) 0.9434(4)
N8_2 N 0.5966(3) 0.78618(18) 0.7474(4)
H17_2 H 0.5613 0.9259 0.7485
N9_2 N 0.4740(4) 0.8641(2) 0.6531(4)
C15_2 C 0.1548(5) 0.9679(3) 0.9193(5)
H18_2 H 0.1098 0.9981 0.9404
C16_2 C 0.1051(5) 0.9199(3) 0.8718(5)
H19_2 H 0.0275 0.9181 0.8646
C17_2 C 0.1545(4) 0.8678(3) 0.8285(5)
O8_2 O 0.1810(4) 0.8229(2) 0.8865(4)
O9_2 O 0.1604(4) 0.8705(2) 0.7344(4)
Ag5_2 Ag 0.25097(4) 0.74112(2) 0.78434(4)
C18_2 C 0.5685(4) 0.8245(2) 0.6532(4)
C19_2 C 0.3790(4) 0.8255(2) 0.6576(4)
Ag7_2 Ag 0.74903(4) 0.74112(2) 0.71566(4)
H20_2 H 0.6308 0.8486 0.6499
H21_2 H 0.5520 0.7996 0.5917
N12_2 N 0.0999(3) 0.68317(19) 0.7680(4)
H24_2 H 0.3606 0.8011 0.5954
H25_2 H 0.3173 0.8504 0.6597
H26_2 H 0.5164 0.7229 0.8111
O2_3 O 0.1638(3) 0.4433(2) 0.5855(4)
Ag3_3 Ag 0.02143(4) 0.56095(2) 0.48545(4)
C14_3 C 0.2241(4) 0.4803(3) 0.5566(4)
N7_3 N 0.4034(3) 0.21382(18) 0.2526(4)
N11_3 N 0.0260(4) 0.6359(2) 0.3469(4)
O6_3 O 0.1932(4) 0.5281(2) 0.5072(4)
C15_3 C 0.3452(5) 0.4679(3) 0.5807(5)
O7_2 O 0.1810(4) 0.1771(2) 0.3865(4)
H18_3 H 0.3902 0.4981 0.5596
C16_3 C 0.3949(5) 0.4199(3) 0.6282(5)
H19_3 H 0.4725 0.4181 0.6354
C17_3 C 0.3455(4) 0.3678(3) 0.6715(5)
O8_3 O 0.3190(4) 0.3229(2) 0.6135(4)
O9_3 O 0.3396(4) 0.3705(2) 0.7656(4)
N12_3 N 0.4001(3) 0.18317(19) 0.7320(4)
O1_3 O 0.8068(4) 0.4719(2) 0.4928(4)
O3_2 O 0.6810(4) 0.6771(2) 0.3865(4)
O4_3 O 0.6604(4) 0.6295(2) 0.2344(4)
C9_3 C 0.7759(4) 0.5197(3) 0.4434(4)
C10_3 C 0.6548(5) 0.5321(3) 0.4193(5)
H13_3 H 0.6098 0.5019 0.4404
C11_3 C 0.6051(5) 0.5801(3) 0.3718(5)
H14_3 H 0.5275 0.5819 0.3646
C12_3 C 0.6545(4) 0.6322(3) 0.3285(5)
O5_3 O 0.8362(3) 0.5567(2) 0.4145(4)
N10_3 N 0.9955(4) 0.6056(2) 0.6561(4)
O4_4 O 0.1604(4) 0.1295(2) 0.2344(4)
C9_4 C 0.2759(4) 0.0197(3) 0.4434(4)
C10_4 C 0.1548(5) 0.0321(3) 0.4193(5)
H13_4 H 0.1098 0.0019 0.4404
C11_4 C 0.1051(5) 0.0801(3) 0.3718(5)
H14_4 H 0.0275 0.0819 0.3646
C12_4 C 0.1545(4) 0.1322(3) 0.3285(5)
Ag3_4 Ag 0.52143(4) 0.06095(2) 0.48545(4)
O5_4 O 0.3362(3) 0.0567(2) 0.4145(4)
N10_4 N 0.4955(4) 0.1056(2) 0.6561(4)
N11_4 N 0.5260(4) 0.1359(2) 0.3469(4)
O6_4 O 0.6932(4) 0.0281(2) 0.5072(4)
O1_4 O 0.3068(4) 0.9719(2) 0.4928(4)
O2_4 O 0.6638(3) 0.9433(2) 0.5855(4)
C14_4 C 0.7241(4) 0.9803(3) 0.5566(4)
N7_4 N 0.9034(3) 0.71382(18) 0.2526(4)
C15_4 C 0.8452(5) 0.9679(3) 0.5807(5)
H18_4 H 0.8902 0.9981 0.5596
C16_4 C 0.8949(5) 0.9199(3) 0.6282(5)
H19_4 H 0.9725 0.9181 0.6354
C17_4 C 0.8455(4) 0.8678(3) 0.6715(5)
O8_4 O 0.8190(4) 0.8229(2) 0.6135(4)
O9_4 O 0.8396(4) 0.8705(2) 0.7656(4)
N12_4 N 0.9001(3) 0.68317(19) 0.7320(4)
C5_4 C 0.0000 0.7518(3) 0.2500
H7_3 H 0.0164 0.7771 0.3111
C6_3 C 0.0685(4) 0.6755(2) 0.1532(4)
H8_3 H 0.1308 0.6514 0.1499
H9_3 H 0.0520 0.7004 0.0917
C8_4 C 0.0000 0.5994(3) 0.2500
H12_3 H 0.0613 0.5741 0.2485
C19_3 C 0.1210(4) 0.6745(2) 0.3424(4)
H24_3 H 0.1394 0.6989 0.4046
H25_3 H 0.1827 0.6496 0.3403
C1_4 C 0.0000 0.5684(4) 0.7500
H1_3 H 0.0634 0.5431 0.7613
C2_3 C 0.1034(4) 0.6438(3) 0.8603(5)
H2_3 H 0.1081 0.6680 0.9220
H3_3 H 0.1671 0.6188 0.8713
C4_4 C 0.0000 0.7207(4) 0.7500
H6_3 H 0.0030 0.7459 0.8101
C13_3 C 0.0932(4) 0.6445(3) 0.6737(5)
H22_3 H 0.0899 0.6692 0.6129
H23_3 H 0.1575 0.6201 0.6836
C5_5 C 1.0000 0.7518(3) 0.2500
C7_3 C 0.8790(4) 0.6745(2) 0.1576(4)
H10_3 H 0.8606 0.6989 0.0954
H11_3 H 0.8173 0.6496 0.1597
C8_5 C 1.0000 0.5994(3) 0.2500
H17_3 H 0.9387 0.5741 0.2515
C18_3 C 0.9315(4) 0.6755(2) 0.3468(4)
H20_3 H 0.8692 0.6514 0.3501
H21_3 H 0.9480 0.7004 0.4083
H26_3 H 0.9836 0.7771 0.1889
C1_5 C 1.0000 0.5684(4) 0.7500
C3_3 C 0.9068(4) 0.6445(3) 0.8263(5)
H4_3 H 0.9101 0.6692 0.8871
H5_3 H 0.8425 0.6201 0.8164
C4_5 C 1.0000 0.7207(4) 0.7500
H15_3 H 0.9366 0.5431 0.7387
H16_3 H 0.9970 0.7459 0.6899
C20_3 C 0.8966(4) 0.6438(3) 0.6397(5)
H27_3 H 0.8919 0.6680 0.5780
H28_3 H 0.8329 0.6188 0.6287
C5_6 C 0.5000 0.2518(3) 0.2500
H7_4 H 0.5164 0.2771 0.3111
C6_4 C 0.5685(4) 0.1755(2) 0.1532(4)
H8_4 H 0.6308 0.1514 0.1499
H9_4 H 0.5520 0.2004 0.0917
C7_4 C 0.3790(4) 0.1745(2) 0.1576(4)
H10_4 H 0.3606 0.1989 0.0954
H11_4 H 0.3173 0.1496 0.1597
C8_6 C 0.5000 0.0994(3) 0.2500
H12_4 H 0.5613 0.0741 0.2485
H17_4 H 0.4387 0.0741 0.2515
C18_4 C 0.4315(4) 0.1755(2) 0.3468(4)
C19_4 C 0.6210(4) 0.1745(2) 0.3424(4)
H20_4 H 0.3692 0.1514 0.3501
H21_4 H 0.4480 0.2004 0.4083
H24_4 H 0.6394 0.1989 0.4046
H25_4 H 0.6827 0.1496 0.3403
H26_4 H 0.4836 0.2771 0.1889
C1_6 C 0.5000 0.0684(4) 0.7500
H1_4 H 0.5634 0.0431 0.7613
C2_4 C 0.6034(4) 0.1438(3) 0.8603(5)
H2_4 H 0.6081 0.1680 0.9220
H3_4 H 0.6671 0.1188 0.8713
C3_4 C 0.4068(4) 0.1445(3) 0.8263(5)
H4_4 H 0.4101 0.1692 0.8871
H5_4 H 0.3425 0.1201 0.8164
C4_6 C 0.5000 0.2207(4) 0.7500
H6_4 H 0.5030 0.2459 0.8101
C13_4 C 0.5932(4) 0.1445(3) 0.6737(5)
H15_4 H 0.4366 0.0431 0.7387
H16_4 H 0.4970 0.2459 0.6899
C20_4 C 0.3966(4) 0.1438(3) 0.6397(5)
H22_4 H 0.5899 0.1692 0.6129
H23_4 H 0.6575 0.1201 0.6836
H27_4 H 0.3919 0.1680 0.5780
H28_4 H 0.3329 0.1188 0.6287
loop_
_geom_bond_atom_site_label_1
_geom_bond_atom_site_label_2
_geom_bond_site_symmetry_1
_geom_bond_site_symmetry_2
O3 C12 1_555 1_555
O4 C12 1_555 1_555
H4 C3 1_555 1_555
H5 C3 1_555 1_555
C9 O1 1_555 1_555
C10 C9 1_555 1_555
H13 C10 1_555 1_555
C11 C10 1_555 1_555
H14 C11 1_555 1_555
C12 C11 1_555 1_555
H15 C1 1_555 1_555
N5 C1 1_555 1_555
N6 C3 1_555 1_555
H16 C4 1_555 1_555
O5 C9 1_555 1_555
Ag4 O3 1_555 1_555
C20 N5 1_555 1_555
Ag9 N6 1_555 1_555
H27 C20 1_555 1_555
H28 C20 1_555 1_555
C4 N6 1_555 1_555
N6 C20 1_555 1_555
N4 Ag1 1_555 1_555
C7 N4 1_555 1_555
H10 C7 1_555 1_555
H11 C7 1_555 1_555
C8 N4 1_555 1_555
N8 C5 1_555 1_555
H17 C8 1_555 1_555
C18 N8 1_555 1_555
Ag7 N8 1_555 1_555
H20 C18 1_555 1_555
H21 C18 1_555 1_555
H26 C5 1_555 1_555
C7 N8 1_555 1_555
Ag2 N2 1_555 1_555
N1 C1_2 1_555 1_555
N2 C2 1_555 1_555
C1_2 H1 1_555 1_555
C2 N1 1_555 1_555
H2 C2 1_555 1_555
H3 C2 1_555 1_555
C4_2 N2 1_555 1_555
H6 C4_2 1_555 1_555
C13 N2 1_555 1_555
N7 Ag2 1_555 1_555
N11 Ag3 1_555 1_555
O7 Ag2 1_555 1_555
H22 C13 1_555 1_555
H23 C13 1_555 1_555
N3 C5_2 1_555 1_555
C5_2 H7 1_555 1_555
C6 N3 1_555 1_555
H8 C6 1_555 1_555
H9 C6 1_555 1_555
H12 C8_2 1_555 1_555
C14 O2 1_555 1_555
N9 C8_2 1_555 1_555
C15 C14 1_555 1_555
H18 C15 1_555 1_555
C16 C15 1_555 1_555
H19 C16 1_555 1_555
C17 C16 1_555 1_555
O8 C17 1_555 1_555
O9 C17 1_555 1_555
Ag5 N3 1_555 1_555
Ag8 N9 1_555 1_555
C19 N3 1_555 1_555
N12 Ag5 1_555 1_555
H24 C19 1_555 1_555
H25 C19 1_555 1_555
C14 O6 1_555 1_555
N9 C19 1_555 1_555
O8 Ag5 1_555 1_555
O7 C12_2 1_555 1_555
O4_2 C12_2 1_555 1_555
C10_2 C9_2 1_555 1_555
H13_2 C10_2 1_555 1_555
C11_2 C10_2 1_555 1_555
H14_2 C11_2 1_555 1_555
C12_2 C11_2 1_555 1_555
O5_2 C9_2 1_555 1_555
N11_2 Ag3_2 1_555 1_555
Ag3_2 O5_2 1_555 1_555
Ag4 N2_2 1_555 1_555
N1_2 C1_3 1_555 1_555
N2_2 C2_2 1_555 1_555
C1_3 H1_2 1_555 1_555
C2_2 N1_2 1_555 1_555
H2_2 C2_2 1_555 1_555
H3_2 C2_2 1_555 1_555
C3_2 N1_2 1_555 1_555
H4_2 C3_2 1_555 1_555
H5_2 C3_2 1_555 1_555
C4_3 N2_2 1_555 1_555
H6_2 C4_3 1_555 1_555
C13_2 N2_2 1_555 1_555
H15_2 C1_3 1_555 1_555
N5_2 C1_3 1_555 1_555
N6_2 C3_2 1_555 1_555
H16_2 C4_3 1_555 1_555
N7_2 Ag4 1_555 1_555
Ag8_2 N5_2 1_555 1_555
C20_2 N5_2 1_555 1_555
H22_2 C13_2 1_555 1_555
H23_2 C13_2 1_555 1_555
Ag9_2 N6_2 1_555 1_555
H27_2 C20_2 1_555 1_555
H28_2 C20_2 1_555 1_555
C4_3 N6_2 1_555 1_555
C13_2 N5_2 1_555 1_555
N6_2 C20_2 1_555 1_555
N3_2 C5_3 1_555 1_555
N4_2 Ag1_2 1_555 1_555
O2_2 Ag1_2 1_555 1_555
C5_3 H7_2 1_555 1_555
C6_2 N3_2 1_555 1_555
H8_2 C6_2 1_555 1_555
H9_2 C6_2 1_555 1_555
C7_2 N4_2 1_555 1_555
H10_2 C7_2 1_555 1_555
H11_2 C7_2 1_555 1_555
C8_3 N4_2 1_555 1_555
H12_2 C8_3 1_555 1_555
C14_2 O2_2 1_555 1_555
N8_2 C5_3 1_555 1_555
H17_2 C8_3 1_555 1_555
N9_2 C8_3 1_555 1_555
C15_2 C14_2 1_555 1_555
H18_2 C15_2 1_555 1_555
C16_2 C15_2 1_555 1_555
H19_2 C16_2 1_555 1_555
C17_2 C16_2 1_555 1_555
O8_2 C17_2 1_555 1_555
O9_2 C17_2 1_555 1_555
Ag5_2 N3_2 1_555 1_555
Ag8_2 N9_2 1_555 1_555
C18_2 N8_2 1_555 1_555
C19_2 N3_2 1_555 1_555
Ag7_2 N8_2 1_555 1_555
H20_2 C18_2 1_555 1_555
H21_2 C18_2 1_555 1_555
N12_2 Ag5_2 1_555 1_555
H24_2 C19_2 1_555 1_555
H25_2 C19_2 1_555 1_555
H26_2 C5_3 1_555 1_555
N4_2 C6_2 1_555 1_555
C7_2 N8_2 1_555 1_555
N9_2 C18_2 1_555 1_555
N9_2 C19_2 1_555 1_555
O8_2 Ag5_2 1_555 1_555
C14_3 O2_3 1_555 1_555
N7_3 Ag9 1_555 1_555
N11_3 Ag3_3 1_555 1_555
O6_3 Ag3_3 1_555 1_555
C15_3 C14_3 1_555 1_555
O7_2 Ag9 1_555 1_555
H18_3 C15_3 1_555 1_555
C16_3 C15_3 1_555 1_555
H19_3 C16_3 1_555 1_555
C17_3 C16_3 1_555 1_555
O8_3 C17_3 1_555 1_555
O9_3 C17_3 1_555 1_555
N12_3 Ag7 1_555 1_555
C14_3 O6_3 1_555 1_555
O8_3 Ag7 1_555 1_555
O1_3 Ag8 1_555 1_555
O3_2 C12_3 1_555 1_555
O4_3 C12_3 1_555 1_555
C9_3 O1_3 1_555 1_555
C10_3 C9_3 1_555 1_555
H13_3 C10_3 1_555 1_555
C11_3 C10_3 1_555 1_555
H14_3 C11_3 1_555 1_555
C12_3 C11_3 1_555 1_555
O5_3 C9_3 1_555 1_555
Ag9_2 O3_2 1_555 1_555
O7_2 C12_4 1_555 1_555
O4_4 C12_4 1_555 1_555
C10_4 C9_4 1_555 1_555
H13_4 C10_4 1_555 1_555
C11_4 C10_4 1_555 1_555
H14_4 C11_4 1_555 1_555
C12_4 C11_4 1_555 1_555
O5_4 C9_4 1_555 1_555
N10_4 Ag3_4 1_555 1_555
N11_4 Ag3_4 1_555 1_555
O6_4 Ag3_4 1_555 1_555
Ag3_4 O5_4 1_555 1_555
O1_4 Ag8_2 1_555 1_555
O2_4 Ag8_2 1_555 1_555
C14_4 O2_4 1_555 1_555
N7_4 Ag9_2 1_555 1_555
C15_4 C14_4 1_555 1_555
H18_4 C15_4 1_555 1_555
C16_4 C15_4 1_555 1_555
H19_4 C16_4 1_555 1_555
C17_4 C16_4 1_555 1_555
O8_4 C17_4 1_555 1_555
O9_4 C17_4 1_555 1_555
N12_4 Ag7_2 1_555 1_555
O8_4 Ag7_2 1_555 1_555
N7_2 C5_4 1_555 1_555
C5_4 H7_3 1_555 1_555
C6_3 N7_2 1_555 1_555
H8_3 C6_3 1_555 1_555
H9_3 C6_3 1_555 1_555
H12_3 C8_4 1_555 1_555
N11_3 C8_4 1_555 1_555
C19_3 N7_2 1_555 1_555
H24_3 C19_3 1_555 1_555
H25_3 C19_3 1_555 1_555
N11_3 C19_3 1_555 1_555
N10 C1_4 1_555 1_555
N12_2 C2_3 1_555 1_555
C1_4 H1_3 1_555 1_555
C2_3 N10 1_555 1_555
H2_3 C2_3 1_555 1_555
H3_3 C2_3 1_555 1_555
C4_4 N12_2 1_555 1_555
H6_3 C4_4 1_555 1_555
C13_3 N12_2 1_555 1_555
H22_3 C13_3 1_555 1_555
H23_3 C13_3 1_555 1_555
C7_3 N11 1_555 1_555
H10_3 C7_3 1_555 1_555
H11_3 C7_3 1_555 1_555
C8_5 N11 1_555 1_555
N7_4 C5_5 1_555 1_555
H17_3 C8_5 1_555 1_555
C18_3 N7_4 1_555 1_555
H20_3 C18_3 1_555 1_555
H21_3 C18_3 1_555 1_555
H26_3 C5_5 1_555 1_555
C7_3 N7_4 1_555 1_555
H4_3 C3_3 1_555 1_555
H5_3 C3_3 1_555 1_555
H15_3 C1_5 1_555 1_555
N10_3 C1_5 1_555 1_555
N12_4 C3_3 1_555 1_555
H16_3 C4_5 1_555 1_555
C20_3 N10_3 1_555 1_555
H27_3 C20_3 1_555 1_555
H28_3 C20_3 1_555 1_555
C4_5 N12_4 1_555 1_555
N12_4 C20_3 1_555 1_555
N7 C5_6 1_555 1_555
C5_6 H7_4 1_555 1_555
C6_4 N7 1_555 1_555
H8_4 C6_4 1_555 1_555
H9_4 C6_4 1_555 1_555
C7_4 N11_2 1_555 1_555
H10_4 C7_4 1_555 1_555
H11_4 C7_4 1_555 1_555
C8_6 N11_2 1_555 1_555
H12_4 C8_6 1_555 1_555
N7_3 C5_6 1_555 1_555
H17_4 C8_6 1_555 1_555
N11_4 C8_6 1_555 1_555
C18_4 N7_3 1_555 1_555
C19_4 N7 1_555 1_555
H20_4 C18_4 1_555 1_555
H21_4 C18_4 1_555 1_555
H24_4 C19_4 1_555 1_555
H25_4 C19_4 1_555 1_555
H26_4 C5_6 1_555 1_555
N11_2 C6_4 1_555 1_555
C7_4 N7_3 1_555 1_555
N11_4 C18_4 1_555 1_555
N11_4 C19_4 1_555 1_555
N10_2 C1_6 1_555 1_555
N12 C2_4 1_555 1_555
C1_6 H1_4 1_555 1_555
C2_4 N10_2 1_555 1_555
H2_4 C2_4 1_555 1_555
H3_4 C2_4 1_555 1_555
C3_4 N10_2 1_555 1_555
H4_4 C3_4 1_555 1_555
H5_4 C3_4 1_555 1_555
C4_6 N12 1_555 1_555
H6_4 C4_6 1_555 1_555
C13_4 N12 1_555 1_555
H15_4 C1_6 1_555 1_555
N10_4 C1_6 1_555 1_555
N12_3 C3_4 1_555 1_555
H16_4 C4_6 1_555 1_555
C20_4 N10_4 1_555 1_555
H22_4 C13_4 1_555 1_555
H23_4 C13_4 1_555 1_555
H27_4 C20_4 1_555 1_555
H28_4 C20_4 1_555 1_555
C4_6 N12_3 1_555 1_555
C13_4 N10_4 1_555 1_555
N12_3 C20_4 1_555 1_555

#END
