
###############################################################################
#
# This file contains modified crystal structure data generated from the
# MOF subset of the Cambridge Structural Database (CSD) v543 
# hosted by the Cambridge Crystallographic Data Centre (CCDC).
#
# This work is licensed under the Creative Commons
# Attribution-NonCommercial-ShareAlike 4.0 International License.
# To view a copy of this license, visit
# http://creativecommons.org/licenses/by-nc-sa/4.0/
# or send a letter to
# Creative Commons, PO Box 1866, Mountain View, CA 94042, USA.
#
# CIF created using the CSD Python API on 29 September 2022
# The structure has been converted into the P1 space group
# The structure has a 3D framework
# The original CSD entry XEBHOC is in the orthorhombic crystal system
# The framework has been calculated to contain at least 10.0% void space
# The void calculation uses a probe of radius 1.32A, grid spacing 0.4
# H atom positions have been added when not included in the experimental data
# Generated hydrogen atom positions removed from atoms on special positions
#
###############################################################################

data_XEBHOC
_chemical_formula_moiety         '(C136 H112 Cu12 N8 O44)n'
_symmetry_cell_setting           triclinic
_symmetry_space_group_name_H-M   'P 1'
_symmetry_Int_Tables_number      1
_space_group_name_Hall           'P 1'
loop_
_symmetry_equiv_pos_site_id
_symmetry_equiv_pos_as_xyz
1 x,y,z
_cell_length_a                   23.712(4)
_cell_length_b                   27.877(4)
_cell_length_c                   15.376(2)
_cell_angle_alpha                90
_cell_angle_beta                 90
_cell_angle_gamma                90
_cell_volume                     10163.8
loop_
_atom_site_label
_atom_site_type_symbol
_atom_site_fract_x
_atom_site_fract_y
_atom_site_fract_z
Cu5 Cu 0.0000 0.032000(11) 0.93700(2)
Cu3 Cu -0.0000 0.532000(11) 0.06300(2)
O13 O 0.05801(6) 0.43618(5) 0.00670(12)
Cu6 Cu -0.0000 0.968000(11) 0.06300(2)
Cu1 Cu 0.0000 0.468000(11) 0.93700(2)
O3 O 0.0000 0.41685(11) 0.83414(19)
O11 O 0.05831(6) 0.50939(5) 0.88728(11)
H21 H 0.0100278 0.433024 0.778717
H22 H 0.0280577 0.39135 0.846836
Cu5_2 Cu 1.0000 0.032000(11) 0.93700(2)
Cu7 Cu 0.5000 0.032000(11) 0.56300(2)
Cu3_2 Cu 1.0000 0.532000(11) 0.06300(2)
O12 O 0.94199(6) 0.43618(5) 0.00670(12)
Cu6_2 Cu 1.0000 0.968000(11) 0.06300(2)
Cu1_2 Cu 1.0000 0.468000(11) 0.93700(2)
O1 O 0.94169(6) 0.50939(5) 0.88728(11)
O2 O 0.94199(6) 0.56382(5) 0.99330(12)
O3_2 O 1.0000 0.41685(11) 0.83414(19)
N1 N 0.7500 0.64918(9) 0.7500
C1 C 0.92450(9) 0.54713(8) 0.92222(17)
C2 C 0.87927(9) 0.57448(8) 0.87739(17)
C3 C 0.85851(11) 0.61659(9) 0.9109(2)
H1 H 0.8735 0.6287 0.9623
C4 C 0.81564(11) 0.64133(9) 0.8694(2)
H2 H 0.8016 0.6695 0.8936
C5 C 0.79381(10) 0.62427(8) 0.79216(19)
C6 C 0.81455(11) 0.58223(9) 0.7573(2)
H3 H 0.7999 0.5705 0.7053
C7 C 0.85735(10) 0.55735(9) 0.79968(19)
H4 H 0.8713 0.5291 0.7758
C8 C 0.7500 0.69996(10) 0.7500
C9 C 0.70139(10) 0.72542(8) 0.7672(2)
H5 H 0.6681 0.7090 0.7790
C10 C 0.70619(10) 0.62427(8) 0.70784(19)
C11 C 0.68436(11) 0.64133(9) 0.6306(2)
C12 C 0.64149(11) 0.61659(9) 0.5891(2)
C13 C 0.62073(9) 0.57448(8) 0.62261(17)
C14 C 0.57550(9) 0.54713(8) 0.57778(17)
O4 O 0.55831(6) 0.50939(5) 0.61272(11)
O5 O 0.55801(6) 0.56382(5) 0.50670(12)
C15 C 0.64265(10) 0.55735(9) 0.70032(19)
C16 C 0.68545(11) 0.58223(9) 0.7427(2)
H6 H 0.7001 0.5705 0.7947
H7 H 0.6287 0.5291 0.7242
H8 H 0.6265 0.6287 0.5377
H9 H 0.6984 0.6695 0.6064
C17 C 0.70139(10) 0.77458(8) 0.7672(2)
C18 C 0.7500 0.80004(10) 0.7500
N2 N 0.7500 0.85082(9) 0.7500
C19 C 0.79381(10) 0.87573(8) 0.79216(19)
C20 C 0.81564(11) 0.85867(9) 0.8694(2)
C21 C 0.85851(11) 0.88341(9) 0.9109(2)
C22 C 0.87927(9) 0.92552(8) 0.87739(17)
C23 C 0.92450(9) 0.95287(8) 0.92222(17)
O6 O 0.94169(6) 0.99061(5) 0.88728(11)
O7 O 0.94199(6) 0.93618(5) 0.99330(12)
C24 C 0.85735(10) 0.94265(9) 0.79968(19)
C25 C 0.81455(11) 0.91777(9) 0.7573(2)
H10 H 0.7999 0.9295 0.7053
H11 H 0.8713 0.9709 0.7758
H12 H 0.8735 0.8713 0.9623
H13 H 0.8016 0.8305 0.8936
C26 C 0.70619(10) 0.87573(8) 0.70784(19)
C27 C 0.68436(11) 0.85867(9) 0.6306(2)
C28 C 0.64149(11) 0.88341(9) 0.5891(2)
C29 C 0.62073(9) 0.92552(8) 0.62261(17)
C30 C 0.57550(9) 0.95287(8) 0.57778(17)
O8 O 0.55831(6) 0.99061(5) 0.61272(11)
O9 O 0.55801(6) 0.93618(5) 0.50670(12)
C31 C 0.64265(10) 0.94265(9) 0.70032(19)
C32 C 0.68545(11) 0.91777(9) 0.7427(2)
H14 H 0.7001 0.9295 0.7947
H15 H 0.6287 0.9709 0.7242
H16 H 0.6265 0.8713 0.5377
H17 H 0.6984 0.8305 0.6064
C33 C 0.79861(10) 0.77458(8) 0.7328(2)
C34 C 0.79861(10) 0.72542(8) 0.7328(2)
H18 H 0.8319 0.7090 0.7210
H19 H 0.8319 0.7910 0.7210
H20 H 0.6681 0.7910 0.7790
Cu2 Cu 0.5000 0.468000(11) 0.56300(2)
O10 O 0.5000 0.41685(11) 0.66586(19)
Cu4 Cu 0.5000 0.532000(11) 0.43700(2)
Cu8 Cu 0.5000 0.968000(11) 0.43700(2)
O14 O 0.44169(6) 0.50939(5) 0.61272(11)
O15 O 0.55801(6) 0.43618(5) 0.49330(12)
O16 O 0.44199(6) 0.43618(5) 0.49330(12)
O1_2 O 0.44169(6) 0.00939(5) 0.38728(11)
O2_2 O 0.44199(6) 0.06382(5) 0.49330(12)
N1_2 N 0.2500 0.14918(9) 0.2500
C1_2 C 0.42450(9) 0.04713(8) 0.42222(17)
C2_2 C 0.37927(9) 0.07448(8) 0.37739(17)
C3_2 C 0.35851(11) 0.11659(9) 0.4109(2)
H1_2 H 0.3735 0.1287 0.4623
C4_2 C 0.31564(11) 0.14133(9) 0.3694(2)
H2_2 H 0.3016 0.1695 0.3936
C5_2 C 0.29381(10) 0.12427(8) 0.29216(19)
C6_2 C 0.31455(11) 0.08223(9) 0.2573(2)
H3_2 H 0.2999 0.0705 0.2053
C7_2 C 0.35735(10) 0.05735(9) 0.29968(19)
H4_2 H 0.3713 0.0291 0.2758
C8_2 C 0.2500 0.19996(10) 0.2500
C9_2 C 0.20139(10) 0.22542(8) 0.2672(2)
H5_2 H 0.1681 0.2090 0.2790
C10_2 C 0.20619(10) 0.12427(8) 0.20784(19)
C11_2 C 0.18436(11) 0.14133(9) 0.1306(2)
C12_2 C 0.14149(11) 0.11659(9) 0.0891(2)
C13_2 C 0.12073(9) 0.07448(8) 0.12261(17)
C14_2 C 0.07550(9) 0.04713(8) 0.07778(17)
O4_2 O 0.05831(6) 0.00939(5) 0.11272(11)
O5_2 O 0.05801(6) 0.06382(5) 0.00670(12)
C15_2 C 0.14265(10) 0.05735(9) 0.20032(19)
C16_2 C 0.18545(11) 0.08223(9) 0.2427(2)
H6_2 H 0.2001 0.0705 0.2947
H7_2 H 0.1287 0.0291 0.2242
H8_2 H 0.1265 0.1287 0.0377
H9_2 H 0.1984 0.1695 0.1064
C17_2 C 0.20139(10) 0.27458(8) 0.2672(2)
C18_2 C 0.2500 0.30004(10) 0.2500
N2_2 N 0.2500 0.35082(9) 0.2500
C19_2 C 0.29381(10) 0.37573(8) 0.29216(19)
C20_2 C 0.31564(11) 0.35867(9) 0.3694(2)
C21_2 C 0.35851(11) 0.38341(9) 0.4109(2)
C22_2 C 0.37927(9) 0.42552(8) 0.37739(17)
C23_2 C 0.42450(9) 0.45287(8) 0.42222(17)
O6_2 O 0.44169(6) 0.49061(5) 0.38728(11)
C24_2 C 0.35735(10) 0.44265(9) 0.29968(19)
C25_2 C 0.31455(11) 0.41777(9) 0.2573(2)
H10_2 H 0.2999 0.4295 0.2053
H11_2 H 0.3713 0.4709 0.2758
H12_2 H 0.3735 0.3713 0.4623
H13_2 H 0.3016 0.3305 0.3936
C26_2 C 0.20619(10) 0.37573(8) 0.20784(19)
C27_2 C 0.18436(11) 0.35867(9) 0.1306(2)
C28_2 C 0.14149(11) 0.38341(9) 0.0891(2)
C29_2 C 0.12073(9) 0.42552(8) 0.12261(17)
C30_2 C 0.07550(9) 0.45287(8) 0.07778(17)
O8_2 O 0.05831(6) 0.49061(5) 0.11272(11)
C31_2 C 0.14265(10) 0.44265(9) 0.20032(19)
C32_2 C 0.18545(11) 0.41777(9) 0.2427(2)
H14_2 H 0.2001 0.4295 0.2947
H15_2 H 0.1287 0.4709 0.2242
H16_2 H 0.1265 0.3713 0.0377
H17_2 H 0.1984 0.3305 0.1064
C33_2 C 0.29861(10) 0.27458(8) 0.2328(2)
C34_2 C 0.29861(10) 0.22542(8) 0.2328(2)
H18_2 H 0.3319 0.2090 0.2210
H19_2 H 0.3319 0.2910 0.2210
H20_2 H 0.1681 0.2910 0.2790
O11_2 O 0.55831(6) 0.00939(5) 0.38728(11)
O3_3 O 0.5000 0.91685(11) 0.33414(19)
O10_2 O 0.0000 0.91685(11) 0.16586(19)
O12_2 O 0.44199(6) 0.93618(5) 0.50670(12)
O15_2 O 0.05801(6) 0.93618(5) 0.99330(12)
O14_2 O 0.94169(6) 0.00939(5) 0.11272(11)
O10_3 O 1.0000 0.91685(11) 0.16586(19)
H23 H 0.989972 0.933024 0.221283
H24 H 0.971942 0.89135 0.153164
O3_4 O 0.0000 0.08315(11) 0.83414(19)
O10_4 O 0.5000 0.08315(11) 0.66586(19)
O16_2 O 0.55801(6) 0.06382(5) 0.49330(12)
O1_3 O 0.05831(6) 0.99061(5) 0.88728(11)
N1_3 N 0.2500 0.85082(9) 0.7500
C1_3 C 0.07550(9) 0.95287(8) 0.92222(17)
C2_3 C 0.12073(9) 0.92552(8) 0.87739(17)
C3_3 C 0.14149(11) 0.88341(9) 0.9109(2)
H1_3 H 0.1265 0.8713 0.9623
C4_3 C 0.18436(11) 0.85867(9) 0.8694(2)
H2_3 H 0.1984 0.8305 0.8936
C5_3 C 0.20619(10) 0.87573(8) 0.79216(19)
C6_3 C 0.18545(11) 0.91777(9) 0.7573(2)
H3_3 H 0.2001 0.9295 0.7053
C7_3 C 0.14265(10) 0.94265(9) 0.79968(19)
H4_3 H 0.1287 0.9709 0.7758
C8_3 C 0.2500 0.80004(10) 0.7500
C9_3 C 0.29861(10) 0.77458(8) 0.7672(2)
H5_3 H 0.3319 0.7910 0.7790
C10_3 C 0.29381(10) 0.87573(8) 0.70784(19)
C11_3 C 0.31564(11) 0.85867(9) 0.6306(2)
C12_3 C 0.35851(11) 0.88341(9) 0.5891(2)
C13_3 C 0.37927(9) 0.92552(8) 0.62261(17)
C14_3 C 0.42450(9) 0.95287(8) 0.57778(17)
O4_3 O 0.44169(6) 0.99061(5) 0.61272(11)
C15_3 C 0.35735(10) 0.94265(9) 0.70032(19)
C16_3 C 0.31455(11) 0.91777(9) 0.7427(2)
H6_3 H 0.2999 0.9295 0.7947
H7_3 H 0.3713 0.9709 0.7242
H8_3 H 0.3735 0.8713 0.5377
H9_3 H 0.3016 0.8305 0.6064
C17_3 C 0.29861(10) 0.72542(8) 0.7672(2)
C18_3 C 0.2500 0.69996(10) 0.7500
N2_3 N 0.2500 0.64918(9) 0.7500
C19_3 C 0.20619(10) 0.62427(8) 0.79216(19)
C20_3 C 0.18436(11) 0.64133(9) 0.8694(2)
C21_3 C 0.14149(11) 0.61659(9) 0.9109(2)
C22_3 C 0.12073(9) 0.57448(8) 0.87739(17)
C23_3 C 0.07550(9) 0.54713(8) 0.92222(17)
O7_2 O 0.05801(6) 0.56382(5) 0.99330(12)
C24_3 C 0.14265(10) 0.55735(9) 0.79968(19)
C25_3 C 0.18545(11) 0.58223(9) 0.7573(2)
H10_3 H 0.2001 0.5705 0.7053
H11_3 H 0.1287 0.5291 0.7758
H12_3 H 0.1265 0.6287 0.9623
H13_3 H 0.1984 0.6695 0.8936
C26_3 C 0.29381(10) 0.62427(8) 0.70784(19)
C27_3 C 0.31564(11) 0.64133(9) 0.6306(2)
C28_3 C 0.35851(11) 0.61659(9) 0.5891(2)
C29_3 C 0.37927(9) 0.57448(8) 0.62261(17)
C30_3 C 0.42450(9) 0.54713(8) 0.57778(17)
O9_2 O 0.44199(6) 0.56382(5) 0.50670(12)
C31_3 C 0.35735(10) 0.55735(9) 0.70032(19)
C32_3 C 0.31455(11) 0.58223(9) 0.7427(2)
H14_3 H 0.2999 0.5705 0.7947
H15_3 H 0.3713 0.5291 0.7242
H16_3 H 0.3735 0.6287 0.5377
H17_3 H 0.3016 0.6695 0.6064
C33_3 C 0.20139(10) 0.72542(8) 0.7328(2)
C34_3 C 0.20139(10) 0.77458(8) 0.7328(2)
H18_3 H 0.1681 0.7910 0.7210
H19_3 H 0.1681 0.7090 0.7210
H20_3 H 0.3319 0.7090 0.7790
O13_2 O 0.94199(6) 0.06382(5) 0.00670(12)
O3_5 O 1.0000 0.08315(11) 0.83414(19)
H21_2 H 0.989972 0.0669757 0.778717
H22_2 H 0.971942 0.10865 0.846836
O3_6 O 0.0000 0.58315(11) 0.16586(19)
H21_3 H 0.0100278 0.566976 0.221283
H22_3 H 0.0280577 0.60865 0.153164
O1_4 O 0.94169(6) 0.49061(5) 0.11272(11)
O3_7 O 1.0000 0.58315(11) 0.16586(19)
N1_4 N 0.7500 0.35082(9) 0.2500
C1_4 C 0.92450(9) 0.45287(8) 0.07778(17)
C2_4 C 0.87927(9) 0.42552(8) 0.12261(17)
C3_4 C 0.85851(11) 0.38341(9) 0.0891(2)
H1_4 H 0.8735 0.3713 0.0377
C4_4 C 0.81564(11) 0.35867(9) 0.1306(2)
H2_4 H 0.8016 0.3305 0.1064
C5_4 C 0.79381(10) 0.37573(8) 0.20784(19)
C6_4 C 0.81455(11) 0.41777(9) 0.2427(2)
H3_4 H 0.7999 0.4295 0.2947
C7_4 C 0.85735(10) 0.44265(9) 0.20032(19)
H4_4 H 0.8713 0.4709 0.2242
C8_4 C 0.7500 0.30004(10) 0.2500
C9_4 C 0.70139(10) 0.27458(8) 0.2328(2)
H5_4 H 0.6681 0.2910 0.2210
C10_4 C 0.70619(10) 0.37573(8) 0.29216(19)
C11_4 C 0.68436(11) 0.35867(9) 0.3694(2)
C12_4 C 0.64149(11) 0.38341(9) 0.4109(2)
C13_4 C 0.62073(9) 0.42552(8) 0.37739(17)
C14_4 C 0.57550(9) 0.45287(8) 0.42222(17)
O4_4 O 0.55831(6) 0.49061(5) 0.38728(11)
C15_4 C 0.64265(10) 0.44265(9) 0.29968(19)
C16_4 C 0.68545(11) 0.41777(9) 0.2573(2)
H6_4 H 0.7001 0.4295 0.2053
H7_4 H 0.6287 0.4709 0.2758
H8_4 H 0.6265 0.3713 0.4623
H9_4 H 0.6984 0.3305 0.3936
C17_4 C 0.70139(10) 0.22542(8) 0.2328(2)
C18_4 C 0.7500 0.19996(10) 0.2500
N2_4 N 0.7500 0.14918(9) 0.2500
C19_4 C 0.79381(10) 0.12427(8) 0.20784(19)
C20_4 C 0.81564(11) 0.14133(9) 0.1306(2)
C21_4 C 0.85851(11) 0.11659(9) 0.0891(2)
C22_4 C 0.87927(9) 0.07448(8) 0.12261(17)
C23_4 C 0.92450(9) 0.04713(8) 0.07778(17)
C24_4 C 0.85735(10) 0.05735(9) 0.20032(19)
C25_4 C 0.81455(11) 0.08223(9) 0.2427(2)
H10_4 H 0.7999 0.0705 0.2947
H11_4 H 0.8713 0.0291 0.2242
H12_4 H 0.8735 0.1287 0.0377
H13_4 H 0.8016 0.1695 0.1064
C26_4 C 0.70619(10) 0.12427(8) 0.29216(19)
C27_4 C 0.68436(11) 0.14133(9) 0.3694(2)
C28_4 C 0.64149(11) 0.11659(9) 0.4109(2)
C29_4 C 0.62073(9) 0.07448(8) 0.37739(17)
C30_4 C 0.57550(9) 0.04713(8) 0.42222(17)
C31_4 C 0.64265(10) 0.05735(9) 0.29968(19)
C32_4 C 0.68545(11) 0.08223(9) 0.2573(2)
H14_4 H 0.7001 0.0705 0.2053
H15_4 H 0.6287 0.0291 0.2758
H16_4 H 0.6265 0.1287 0.4623
H17_4 H 0.6984 0.1695 0.3936
C33_4 C 0.79861(10) 0.22542(8) 0.2672(2)
C34_4 C 0.79861(10) 0.27458(8) 0.2672(2)
H18_4 H 0.8319 0.2910 0.2790
H19_4 H 0.8319 0.2090 0.2790
H20_4 H 0.6681 0.2090 0.2210
O10_5 O 0.5000 0.58315(11) 0.33414(19)
H21_4 H 0.989972 0.566976 0.221283
H22_4 H 0.971942 0.60865 0.153164
H23_2 H 0.0100278 0.0669757 0.778717
H24_2 H 0.0280577 0.10865 0.846836
H21_5 H 0.0100278 0.933024 0.221283
H22_5 H 0.0280577 0.89135 0.153164
H21_6 H 0.989972 0.433024 0.778717
H22_6 H 0.971942 0.39135 0.846836
loop_
_geom_bond_atom_site_label_1
_geom_bond_atom_site_label_2
_geom_bond_site_symmetry_1
_geom_bond_site_symmetry_2
O3 Cu1 1_555 1_555
O11 Cu1 1_555 1_555
O3 H21 1_555 1_555
O3 H22 1_555 1_555
Cu1_2 O1 1_555 1_555
O1 C1 1_555 1_555
O2 C1 1_555 1_555
O3_2 Cu1_2 1_555 1_555
N1 C5 1_555 1_555
C1 C2 1_555 1_555
C2 C3 1_555 1_555
C3 H1 1_555 1_555
C4 C3 1_555 1_555
H2 C4 1_555 1_555
C5 C4 1_555 1_555
C6 C5 1_555 1_555
H3 C6 1_555 1_555
C7 C2 1_555 1_555
H4 C7 1_555 1_555
C8 N1 1_555 1_555
C9 C8 1_555 1_555
H5 C9 1_555 1_555
C10 N1 1_555 1_555
C11 C10 1_555 1_555
C12 C11 1_555 1_555
C13 C12 1_555 1_555
C14 C13 1_555 1_555
O4 C14 1_555 1_555
O5 C14 1_555 1_555
C15 C13 1_555 1_555
C16 C10 1_555 1_555
H6 C16 1_555 1_555
H7 C15 1_555 1_555
H8 C12 1_555 1_555
H9 C11 1_555 1_555
C17 C9 1_555 1_555
C18 C17 1_555 1_555
N2 C18 1_555 1_555
C19 N2 1_555 1_555
C20 C19 1_555 1_555
C21 C20 1_555 1_555
C22 C21 1_555 1_555
C23 C22 1_555 1_555
O6 C23 1_555 1_555
O7 C23 1_555 1_555
C24 C22 1_555 1_555
C25 C19 1_555 1_555
H10 C25 1_555 1_555
H11 C24 1_555 1_555
H12 C21 1_555 1_555
H13 C20 1_555 1_555
C26 N2 1_555 1_555
C27 C26 1_555 1_555
C28 C27 1_555 1_555
C29 C28 1_555 1_555
C30 C29 1_555 1_555
O8 C30 1_555 1_555
O9 C30 1_555 1_555
C31 C29 1_555 1_555
C32 C26 1_555 1_555
H14 C32 1_555 1_555
H15 C31 1_555 1_555
H16 C28 1_555 1_555
H17 C27 1_555 1_555
C33 C18 1_555 1_555
C34 C8 1_555 1_555
H18 C34 1_555 1_555
H19 C33 1_555 1_555
H20 C17 1_555 1_555
Cu2 O4 1_555 1_555
O10 Cu2 1_555 1_555
Cu4 O5 1_555 1_555
Cu8 O9 1_555 1_555
O14 Cu2 1_555 1_555
O15 Cu2 1_555 1_555
O16 Cu2 1_555 1_555
C6 C7 1_555 1_555
C15 C16 1_555 1_555
C24 C25 1_555 1_555
C31 C32 1_555 1_555
C33 C34 1_555 1_555
Cu2 Cu4 1_555 1_555
O1_2 C1_2 1_555 1_555
O2_2 C1_2 1_555 1_555
N1_2 C5_2 1_555 1_555
C1_2 C2_2 1_555 1_555
C2_2 C3_2 1_555 1_555
C3_2 H1_2 1_555 1_555
C4_2 C3_2 1_555 1_555
H2_2 C4_2 1_555 1_555
C5_2 C4_2 1_555 1_555
C6_2 C5_2 1_555 1_555
H3_2 C6_2 1_555 1_555
C7_2 C2_2 1_555 1_555
H4_2 C7_2 1_555 1_555
C8_2 N1_2 1_555 1_555
C9_2 C8_2 1_555 1_555
H5_2 C9_2 1_555 1_555
C10_2 N1_2 1_555 1_555
C11_2 C10_2 1_555 1_555
C12_2 C11_2 1_555 1_555
C13_2 C12_2 1_555 1_555
C14_2 C13_2 1_555 1_555
O4_2 C14_2 1_555 1_555
O5_2 C14_2 1_555 1_555
C15_2 C13_2 1_555 1_555
C16_2 C10_2 1_555 1_555
H6_2 C16_2 1_555 1_555
H7_2 C15_2 1_555 1_555
H8_2 C12_2 1_555 1_555
H9_2 C11_2 1_555 1_555
C17_2 C9_2 1_555 1_555
C18_2 C17_2 1_555 1_555
N2_2 C18_2 1_555 1_555
C19_2 N2_2 1_555 1_555
C20_2 C19_2 1_555 1_555
C21_2 C20_2 1_555 1_555
C22_2 C21_2 1_555 1_555
C23_2 C22_2 1_555 1_555
O6_2 C23_2 1_555 1_555
O16 C23_2 1_555 1_555
C24_2 C22_2 1_555 1_555
C25_2 C19_2 1_555 1_555
H10_2 C25_2 1_555 1_555
H11_2 C24_2 1_555 1_555
H12_2 C21_2 1_555 1_555
H13_2 C20_2 1_555 1_555
C26_2 N2_2 1_555 1_555
C27_2 C26_2 1_555 1_555
C28_2 C27_2 1_555 1_555
C29_2 C28_2 1_555 1_555
C30_2 C29_2 1_555 1_555
O8_2 C30_2 1_555 1_555
O13 C30_2 1_555 1_555
C31_2 C29_2 1_555 1_555
C32_2 C26_2 1_555 1_555
H14_2 C32_2 1_555 1_555
H15_2 C31_2 1_555 1_555
H16_2 C28_2 1_555 1_555
H17_2 C27_2 1_555 1_555
C33_2 C18_2 1_555 1_555
C34_2 C8_2 1_555 1_555
H18_2 C34_2 1_555 1_555
H19_2 C33_2 1_555 1_555
H20_2 C17_2 1_555 1_555
Cu4 O6_2 1_555 1_555
Cu3 O8_2 1_555 1_555
O2_2 Cu7 1_555 1_555
C6_2 C7_2 1_555 1_555
C15_2 C16_2 1_555 1_555
C24_2 C25_2 1_555 1_555
C31_2 C32_2 1_555 1_555
C33_2 C34_2 1_555 1_555
O3_3 Cu8 1_555 1_555
O10_2 Cu6 1_555 1_555
O12_2 Cu8 1_555 1_555
O10_3 Cu6_2 1_555 1_555
O10_3 H23 1_555 1_555
O10_3 H24 1_555 1_555
O3_4 Cu5 1_555 1_555
O10_4 Cu7 1_555 1_555
O16_2 Cu7 1_555 1_555
O1_3 C1_3 1_555 1_555
O15_2 C1_3 1_555 1_555
N1_3 C5_3 1_555 1_555
C1_3 C2_3 1_555 1_555
C2_3 C3_3 1_555 1_555
C3_3 H1_3 1_555 1_555
C4_3 C3_3 1_555 1_555
H2_3 C4_3 1_555 1_555
C5_3 C4_3 1_555 1_555
C6_3 C5_3 1_555 1_555
H3_3 C6_3 1_555 1_555
C7_3 C2_3 1_555 1_555
H4_3 C7_3 1_555 1_555
C8_3 N1_3 1_555 1_555
C9_3 C8_3 1_555 1_555
H5_3 C9_3 1_555 1_555
C10_3 N1_3 1_555 1_555
C11_3 C10_3 1_555 1_555
C12_3 C11_3 1_555 1_555
C13_3 C12_3 1_555 1_555
C14_3 C13_3 1_555 1_555
O4_3 C14_3 1_555 1_555
O12_2 C14_3 1_555 1_555
C15_3 C13_3 1_555 1_555
C16_3 C10_3 1_555 1_555
H6_3 C16_3 1_555 1_555
H7_3 C15_3 1_555 1_555
H8_3 C12_3 1_555 1_555
H9_3 C11_3 1_555 1_555
C17_3 C9_3 1_555 1_555
C18_3 C17_3 1_555 1_555
N2_3 C18_3 1_555 1_555
C19_3 N2_3 1_555 1_555
C20_3 C19_3 1_555 1_555
C21_3 C20_3 1_555 1_555
C22_3 C21_3 1_555 1_555
C23_3 C22_3 1_555 1_555
O11 C23_3 1_555 1_555
O7_2 C23_3 1_555 1_555
C24_3 C22_3 1_555 1_555
C25_3 C19_3 1_555 1_555
H10_3 C25_3 1_555 1_555
H11_3 C24_3 1_555 1_555
H12_3 C21_3 1_555 1_555
H13_3 C20_3 1_555 1_555
C26_3 N2_3 1_555 1_555
C27_3 C26_3 1_555 1_555
C28_3 C27_3 1_555 1_555
C29_3 C28_3 1_555 1_555
C30_3 C29_3 1_555 1_555
O14 C30_3 1_555 1_555
O9_2 C30_3 1_555 1_555
C31_3 C29_3 1_555 1_555
C32_3 C26_3 1_555 1_555
H14_3 C32_3 1_555 1_555
H15_3 C31_3 1_555 1_555
H16_3 C28_3 1_555 1_555
H17_3 C27_3 1_555 1_555
C33_3 C18_3 1_555 1_555
C34_3 C8_3 1_555 1_555
H18_3 C34_3 1_555 1_555
H19_3 C33_3 1_555 1_555
H20_3 C17_3 1_555 1_555
Cu4 O9_2 1_555 1_555
C6_3 C7_3 1_555 1_555
C15_3 C16_3 1_555 1_555
C24_3 C25_3 1_555 1_555
C31_3 C32_3 1_555 1_555
C33_3 C34_3 1_555 1_555
O3_5 Cu5_2 1_555 1_555
O3_5 H21_2 1_555 1_555
O3_5 H22_2 1_555 1_555
O3_6 Cu3 1_555 1_555
O3_6 H21_3 1_555 1_555
O3_6 H22_3 1_555 1_555
Cu3_2 O1_4 1_555 1_555
O1_4 C1_4 1_555 1_555
O12 C1_4 1_555 1_555
O3_7 Cu3_2 1_555 1_555
N1_4 C5_4 1_555 1_555
C1_4 C2_4 1_555 1_555
C2_4 C3_4 1_555 1_555
C3_4 H1_4 1_555 1_555
C4_4 C3_4 1_555 1_555
H2_4 C4_4 1_555 1_555
C5_4 C4_4 1_555 1_555
C6_4 C5_4 1_555 1_555
H3_4 C6_4 1_555 1_555
C7_4 C2_4 1_555 1_555
H4_4 C7_4 1_555 1_555
C8_4 N1_4 1_555 1_555
C9_4 C8_4 1_555 1_555
H5_4 C9_4 1_555 1_555
C10_4 N1_4 1_555 1_555
C11_4 C10_4 1_555 1_555
C12_4 C11_4 1_555 1_555
C13_4 C12_4 1_555 1_555
C14_4 C13_4 1_555 1_555
O4_4 C14_4 1_555 1_555
O15 C14_4 1_555 1_555
C15_4 C13_4 1_555 1_555
C16_4 C10_4 1_555 1_555
H6_4 C16_4 1_555 1_555
H7_4 C15_4 1_555 1_555
H8_4 C12_4 1_555 1_555
H9_4 C11_4 1_555 1_555
C17_4 C9_4 1_555 1_555
C18_4 C17_4 1_555 1_555
N2_4 C18_4 1_555 1_555
C19_4 N2_4 1_555 1_555
C20_4 C19_4 1_555 1_555
C21_4 C20_4 1_555 1_555
C22_4 C21_4 1_555 1_555
C23_4 C22_4 1_555 1_555
O14_2 C23_4 1_555 1_555
O13_2 C23_4 1_555 1_555
C24_4 C22_4 1_555 1_555
C25_4 C19_4 1_555 1_555
H10_4 C25_4 1_555 1_555
H11_4 C24_4 1_555 1_555
H12_4 C21_4 1_555 1_555
H13_4 C20_4 1_555 1_555
C26_4 N2_4 1_555 1_555
C27_4 C26_4 1_555 1_555
C28_4 C27_4 1_555 1_555
C29_4 C28_4 1_555 1_555
C30_4 C29_4 1_555 1_555
O11_2 C30_4 1_555 1_555
O16_2 C30_4 1_555 1_555
C31_4 C29_4 1_555 1_555
C32_4 C26_4 1_555 1_555
H14_4 C32_4 1_555 1_555
H15_4 C31_4 1_555 1_555
H16_4 C28_4 1_555 1_555
H17_4 C27_4 1_555 1_555
C33_4 C18_4 1_555 1_555
C34_4 C8_4 1_555 1_555
H18_4 C34_4 1_555 1_555
H19_4 C33_4 1_555 1_555
H20_4 C17_4 1_555 1_555
Cu4 O4_4 1_555 1_555
O10_5 Cu4 1_555 1_555
C6_4 C7_4 1_555 1_555
C15_4 C16_4 1_555 1_555
C24_4 C25_4 1_555 1_555
C31_4 C32_4 1_555 1_555
C33_4 C34_4 1_555 1_555
O3_7 H21_4 1_555 1_555
O3_7 H22_4 1_555 1_555
O3_4 H23_2 1_555 1_555
O3_4 H24_2 1_555 1_555
O10_2 H21_5 1_555 1_555
O10_2 H22_5 1_555 1_555
O3_2 H21_6 1_555 1_555
O3_2 H22_6 1_555 1_555

#END
