
###############################################################################
#
# This file contains modified crystal structure data generated from the
# MOF subset of the Cambridge Structural Database (CSD) v543 
# hosted by the Cambridge Crystallographic Data Centre (CCDC).
#
# This work is licensed under the Creative Commons
# Attribution-NonCommercial-ShareAlike 4.0 International License.
# To view a copy of this license, visit
# http://creativecommons.org/licenses/by-nc-sa/4.0/
# or send a letter to
# Creative Commons, PO Box 1866, Mountain View, CA 94042, USA.
#
# CIF created using the CSD Python API on 29 September 2022
# The structure has been converted into the P1 space group
# The structure has a 3D framework
# The original CSD entry XECBUD is in the triclinic crystal system
# The framework has been calculated to contain at least 10.0% void space
# The void calculation uses a probe of radius 1.32A, grid spacing 0.4
#
###############################################################################

data_XECBUD
_chemical_formula_moiety         '(C40 H26 N10 O8 Zn13)n'
_symmetry_cell_setting           triclinic
_symmetry_space_group_name_H-M   'P 1'
_symmetry_Int_Tables_number      1
_space_group_name_Hall           'P 1'
loop_
_symmetry_equiv_pos_site_id
_symmetry_equiv_pos_as_xyz
1 x,y,z
_cell_length_a                   11.558(7)
_cell_length_b                   11.617(7)
_cell_length_c                   11.841(7)
_cell_angle_alpha                64.110(10)
_cell_angle_beta                 81.057(11)
_cell_angle_gamma                72.690(10)
_cell_volume                     1364.93
loop_
_atom_site_label
_atom_site_type_symbol
_atom_site_fract_x
_atom_site_fract_y
_atom_site_fract_z
Zn6 Zn -0.0000 0.5000 0.5000
Zn4 Zn 0.0000 0.0000 0.0000
Zn1 Zn 0.0000 0.0000 0.5000
Zn4_2 Zn 0.0000 0.0000 1.0000
C22 C 0.0200(4) 0.1121(5) 0.7309(5)
O8 O 0.0825(3) 0.1525(4) 0.4536(3)
O10 O 0.0468(4) 0.3639(3) 0.4127(3)
C37 C 0.0229(4) 0.2219(5) 0.6214(5)
C38 C 0.0515(4) 0.2461(5) 0.4861(4)
Zn4_3 Zn 0.0000 1.0000 0.0000
Zn1_2 Zn 0.0000 1.0000 0.5000
O1 O 0.0393(3) 0.9224(3) 0.6897(3)
O2 O 0.0508(3) 0.8955(3) 0.8831(3)
C1 C 0.0392(4) 0.9674(5) 0.7667(4)
N1 N 0.0087(4) 0.8471(4) 0.1717(4)
N2 N 0.1745(4) 0.8746(4) 0.4759(4)
C3 C 0.2488(5) 0.9187(6) 0.3779(5)
H1 H 0.2190 0.9994 0.3115
C4 C 0.5441(5) 0.6593(5) 0.4692(5)
C5 C 0.4145(5) 0.7282(5) 0.4674(5)
C6 C 0.3345(5) 0.6833(6) 0.5656(6)
H2 H 0.3602 0.6012 0.6320
C7 C 0.2188(5) 0.7570(5) 0.5668(5)
H3 H 0.1680 0.7233 0.6351
C8 C 0.3671(5) 0.8505(6) 0.3705(5)
H4 H 0.4157 0.8859 0.3007
C10 C 0.6009(5) 0.5709(6) 0.5820(6)
H6 H 0.5555 0.5472 0.6569
C13 C 0.6174(5) 0.6811(7) 0.3618(6)
H8 H 0.5836 0.7354 0.2835
C16 C 0.0216(4) 0.7190(5) 0.2269(5)
H11 H 0.0415 0.6661 0.1827
C19 C 0.7397(5) 0.6228(6) 0.3701(6)
H12 H 0.7865 0.6376 0.2962
C20 C 0.7241(5) 0.5192(6) 0.5820(6)
H13 H 0.7603 0.4619 0.6585
N4 N 0.0043(4) 0.6704(4) 0.3500(4)
N5 N 0.7945(4) 0.5463(5) 0.4789(5)
Zn4_4 Zn -0.0000 1.0000 1.0000
Zn6_2 Zn 1.0000 0.5000 0.5000
N10 N 0.1931(4) 0.9962(5) 0.0138(4)
N13 N 0.2055(4) 0.4537(5) 0.5211(5)
Zn4_5 Zn 1.0000 0.0000 0.0000
Zn1_3 Zn 1.0000 0.0000 0.5000
Zn4_6 Zn 1.0000 0.0000 1.0000
O5 O 0.9607(3) 0.0776(3) 0.3103(3)
O6 O 0.9492(3) 0.1045(3) 0.1169(3)
C21 C 0.9608(4) 0.0326(5) 0.2333(4)
N7 N 0.9913(4) 0.1529(4) 0.8283(4)
N8 N 0.8255(4) 0.1254(4) 0.5241(4)
C23 C 0.7512(5) 0.0813(6) 0.6221(5)
H14 H 0.7810 0.0006 0.6885
C24 C 0.4559(5) 0.3407(5) 0.5308(5)
C25 C 0.5855(5) 0.2718(5) 0.5326(5)
C26 C 0.6655(5) 0.3167(6) 0.4344(6)
H15 H 0.6398 0.3988 0.3680
C27 C 0.7812(5) 0.2430(5) 0.4332(5)
H16 H 0.8320 0.2767 0.3649
C28 C 0.6329(5) 0.1495(6) 0.6295(5)
H17 H 0.5843 0.1141 0.6993
C30 C 0.3991(5) 0.4291(6) 0.4180(6)
H19 H 0.4445 0.4528 0.3431
C33 C 0.3826(5) 0.3189(7) 0.6382(6)
H21 H 0.4164 0.2646 0.7165
C36 C 0.9784(4) 0.2810(5) 0.7731(5)
H24 H 0.9585 0.3339 0.8173
C39 C 0.2603(5) 0.3772(6) 0.6299(6)
H25 H 0.2135 0.3624 0.7038
C40 C 0.2759(5) 0.4808(6) 0.4180(6)
H26 H 0.2397 0.5381 0.3415
N12 N 0.9957(4) 0.3296(4) 0.6500(4)
N3 N 0.8069(4) 0.0038(5) 0.9862(4)
C11 C 0.5646(5) 0.0011(6) 0.9969(5)
H9 H 0.1629 0.1808 0.9809
C29 C 0.3409(5) 0.1118(6) 0.9865(6)
H18 H 0.3570 0.1912 0.9715
C32 C 0.5976(6) 0.1156(7) 0.9708(7)
H20 H 0.5385 0.1947 0.9555
C34 C 0.2246(5) 0.1042(7) 0.9926(6)
C35 C 0.7178(6) 0.1119(7) 0.9673(7)
H23 H 0.7376 0.1899 0.9508
Zn4_7 Zn 1.0000 1.0000 0.0000
Zn1_4 Zn 1.0000 1.0000 0.5000
C2 C 0.9800(4) 0.8879(5) 0.2691(5)
C9 C 0.6591(5) 0.8882(6) 0.0135(6)
H5 H 0.6430 0.8088 0.0285
C12 C 0.4024(6) 0.8844(7) 0.0292(7)
H7 H 0.4615 0.8053 0.0445
C14 C 0.7754(5) 0.8958(7) 0.0074(6)
C15 C 0.2822(6) 0.8881(7) 0.0327(7)
H10 H 0.2624 0.8101 0.0492
O3 O 0.9175(3) 0.8475(4) 0.5464(3)
O4 O 0.9532(4) 0.6361(3) 0.5873(3)
C17 C 0.9771(4) 0.7781(5) 0.3786(5)
C18 C 0.9485(4) 0.7539(5) 0.5139(4)
Zn4_8 Zn 1.0000 1.0000 1.0000
C31 C 0.4354(5) 0.9989(6) 0.0031(5)
H22 H 0.8371 0.8192 0.0191
loop_
_geom_bond_atom_site_label_1
_geom_bond_atom_site_label_2
_geom_bond_site_symmetry_1
_geom_bond_site_symmetry_2
Zn6 O10 1_555 1_555
O8 Zn1 1_555 1_555
O10 C38 1_555 1_555
C37 C22 1_555 1_555
C38 O8 1_555 1_555
C37 C38 1_555 1_555
Zn1_2 O1 1_555 1_555
Zn4_3 N1 1_555 1_555
O1 C1 1_555 1_555
O2 C1 1_555 1_555
N2 Zn1_2 1_555 1_555
C3 N2 1_555 1_555
H1 C3 1_555 1_555
C4 C5 1_555 1_555
C5 C6 1_555 1_555
C6 H2 1_555 1_555
C7 N2 1_555 1_555
H3 C7 1_555 1_555
C8 C3 1_555 1_555
H4 C8 1_555 1_555
C10 C4 1_555 1_555
H6 C10 1_555 1_555
C13 C4 1_555 1_555
H8 C13 1_555 1_555
C16 N1 1_555 1_555
H11 C16 1_555 1_555
C19 C13 1_555 1_555
H12 C19 1_555 1_555
C20 C10 1_555 1_555
H13 C20 1_555 1_555
N4 Zn6 1_555 1_555
N5 C19 1_555 1_555
Zn4_4 O2 1_555 1_555
Zn6_2 N5 1_555 1_555
N10 Zn4_3 1_555 1_555
N13 Zn6 1_555 1_555
C5 C8 1_555 1_555
C6 C7 1_555 1_555
C16 N4 1_555 1_555
C20 N5 1_555 1_555
O5 Zn1_3 1_555 1_555
O6 Zn4_5 1_555 1_555
N7 Zn4_6 1_555 1_555
N8 Zn1_3 1_555 1_555
C23 N8 1_555 1_555
H14 C23 1_555 1_555
C24 C25 1_555 1_555
C25 C26 1_555 1_555
C26 H15 1_555 1_555
C27 N8 1_555 1_555
H16 C27 1_555 1_555
C28 C23 1_555 1_555
H17 C28 1_555 1_555
C30 C24 1_555 1_555
H19 C30 1_555 1_555
C33 C24 1_555 1_555
H21 C33 1_555 1_555
C36 N7 1_555 1_555
H24 C36 1_555 1_555
C39 C33 1_555 1_555
H25 C39 1_555 1_555
C40 C30 1_555 1_555
H26 C40 1_555 1_555
N12 Zn6_2 1_555 1_555
N13 C39 1_555 1_555
O5 C21 1_555 1_555
O6 C21 1_555 1_555
C25 C28 1_555 1_555
C26 C27 1_555 1_555
C36 N12 1_555 1_555
C40 N13 1_555 1_555
N3 Zn4_6 1_555 1_555
H9 C34 1_555 1_555
C29 H18 1_555 1_555
C32 C11 1_555 1_555
H20 C32 1_555 1_555
C35 N3 1_555 1_555
H23 C35 1_555 1_555
C29 C34 1_555 1_555
C32 C35 1_555 1_555
Zn6_2 O4 1_555 1_555
C2 C17 1_555 1_555
C9 H5 1_555 1_555
C12 H7 1_555 1_555
C15 C12 1_555 1_555
H10 C15 1_555 1_555
O3 Zn1_4 1_555 1_555
O4 C18 1_555 1_555
C17 C18 1_555 1_555
C18 O3 1_555 1_555
N10 C15 1_555 1_555
H22 C14 1_555 1_555
C9 C14 1_555 1_555
C12 C31 1_555 1_555

#END
