
###############################################################################
#
# This file contains modified crystal structure data generated from the
# MOF subset of the Cambridge Structural Database (CSD) v543 
# hosted by the Cambridge Crystallographic Data Centre (CCDC).
#
# This work is licensed under the Creative Commons
# Attribution-NonCommercial-ShareAlike 4.0 International License.
# To view a copy of this license, visit
# http://creativecommons.org/licenses/by-nc-sa/4.0/
# or send a letter to
# Creative Commons, PO Box 1866, Mountain View, CA 94042, USA.
#
# CIF created using the CSD Python API on 29 September 2022
# The structure has been converted into the P1 space group
# The structure has a 3D framework
# The original CSD entry XECJUK01 is in the triclinic crystal system
# The original CSD entry XECJUK01 is in a Sohncke space group
# The framework has been calculated to contain at least 10.0% void space
# The void calculation uses a probe of radius 1.32A, grid spacing 0.4
# H atom positions have been added when not included in the experimental data
#
###############################################################################

data_XECJUK01
_chemical_formula_moiety         '(C12 H12 N4 O12 Sr2)n'
_symmetry_cell_setting           triclinic
_symmetry_space_group_name_H-M   'P 1'
_symmetry_Int_Tables_number      1
_space_group_name_Hall           'P 1'
loop_
_symmetry_equiv_pos_site_id
_symmetry_equiv_pos_as_xyz
1 x,y,z
_cell_length_a                   6.2281(2)
_cell_length_b                   9.4499(4)
_cell_length_c                   10.6160(7)
_cell_angle_alpha                73.814(5)
_cell_angle_beta                 80.723(6)
_cell_angle_gamma                75.136(5)
_cell_volume                     577.245
loop_
_atom_site_label
_atom_site_type_symbol
_atom_site_fract_x
_atom_site_fract_y
_atom_site_fract_z
_atom_site_U_iso_or_equiv
_atom_site_thermal_displace_type
O8 O 0.1911(11) 0.1547(8) 0.2864(7) 0.0299 Uani
C11 C 0.0143(14) 0.1696(9) 0.3553(9) 0.0174 Uani
Sr7 Sr 0.01129(5) 0.54202(4) 0.25571(4) 0.0187 Uani
O12 O 0.1302(10) 0.5116(7) 0.4956(6) 0.0210 Uani
O13 O 0.3091(11) 0.6977(8) 0.1660(7) 0.0290 Uani
N2 N 0.1968(12) 0.4721(9) 0.0190(8) 0.0205 Uani
H3 H 0.1037 0.9177 0.2695 0.0260 Uiso
Sr5 Sr 0.53759(5) 0.33093(4) 0.53619(4) 0.0190 Uani
O18 O 0.4205(10) 0.3596(7) 0.2975(6) 0.0236 Uani
H5 H 0.24887 0.788995 0.0974933 . .
H6 H 0.35093 0.728836 0.238973 . .
O1 O 0.7478(11) 0.4617(8) 0.6545(7) 0.0310 Uani
O2 O 0.7083(13) 0.6352(9) 0.7715(8) 0.0368 Uani
O10 O 0.7407(17) 0.1152(11) 0.7247(11) 0.0673 Uani
O11 O 0.2404(12) 0.1746(8) 0.6263(7) 0.0338 Uani
N1 N 0.3506(13) 0.4005(10) 0.7762(7) 0.0216 Uani
C1 C 0.4528(14) 0.4796(10) 0.8219(7) 0.0172 Uani
C2 C 0.3743(15) 0.5171(12) 0.9455(9) 0.0214 Uani
H1 H 0.4481 0.5737 0.9752 0.0260 Uiso
C3 C 0.0977(14) 0.3909(10) 0.9673(10) 0.0212 Uani
C4 C 0.1713(16) 0.3597(11) 0.8494(10) 0.0224 Uani
H2 H 0.0932 0.3073 0.8177 0.0270 Uiso
C5 C 0.6493(16) 0.5310(11) 0.7406(10) 0.0246 Uani
O15 O 0.6228(11) 0.5945(7) 0.3831(7) 0.0251 Uani
O17 O 0.9291(11) 0.2754(7) 0.4124(7) 0.0234 Uani
N5 N 0.6873(13) 0.0621(9) 0.4523(9) 0.0248 Uani
H9 H 0.106378 0.236563 0.665519 . .
H10 H 0.19873 0.143196 0.553433 . .
H11 H 0.684063 0.138488 0.811279 . .
H12 H 0.710374 0.0169907 0.724841 . .
C8 C 0.8822(13) 0.0448(10) 0.3804(9) 0.0173 Uani
O3 O 0.7978(11) 0.4104(9) 0.1352(7) 0.0321 Uani
O4 O 0.8322(15) 0.2383(11) 0.0269(10) 0.0516 Uani
O6 O 0.3523(11) 0.7214(8) 0.5038(8) 0.0296 Uani
O14 O 0.8029(16) 0.7504(10) 0.0705(10) 0.0656 Uani
N3 N 0.8592(12) 0.8161(9) 0.3398(8) 0.0204 Uani
C6 C 0.8859(15) 0.3440(11) 0.0487(10) 0.0236 Uani
C7 C 0.9681(15) 0.9227(10) 0.3217(10) 0.0218 Uani
C9 C 0.5789(15) 0.9477(11) 0.4673(9) 0.0242 Uani
H4 H 0.4408 0.9536 0.5168 0.0290 Uiso
C10 C 0.6611(14) 0.8259(9) 0.4142(8) 0.0176 Uani
C12 C 0.5372(15) 0.7061(10) 0.4333(9) 0.0218 Uani
H7 H 0.640327 0.753962 0.0877751 . .
H8 H 0.829865 0.849965 0.069082 . .
loop_
_atom_site_aniso_label
_atom_site_aniso_U_11
_atom_site_aniso_U_22
_atom_site_aniso_U_33
_atom_site_aniso_U_23
_atom_site_aniso_U_13
_atom_site_aniso_U_12
O8 0.028 0.03 0.039 -0.019 0.01 -0.016
C11 0.019 0.014 0.025 -0.007 -0.001 -0.012
Sr7 0.0202 0.018 0.0197 -0.0087 0.0051 -0.0075
O12 0.016 0.026 0.018 -0.005 0.003 -0.003
O13 0.023 0.026 0.039 -0.009 -0.003 -0.006
N2 0.016 0.023 0.026 -0.014 0 -0.003
Sr5 0.0204 0.0183 0.0197 -0.0081 0.0047 -0.0072
O18 0.024 0.022 0.031 -0.017 0.006 -0.01
O1 0.022 0.04 0.031 -0.014 0.012 -0.01
O2 0.032 0.034 0.049 -0.013 0.016 -0.025
O10 0.063 0.041 0.088 -0.005 -0.026 0.005
O11 0.035 0.039 0.035 -0.018 0.008 -0.019
N1 0.024 0.028 0.013 -0.004 0.006 -0.012
C1 0.019 0.022 0.008 -0.003 0.004 -0.004
C2 0.019 0.035 0.016 -0.013 0.003 -0.012
C3 0.012 0.022 0.033 -0.011 0.001 -0.007
C4 0.023 0.017 0.032 -0.011 0 -0.009
C5 0.021 0.026 0.025 -0.002 0.001 -0.009
O15 0.029 0.021 0.031 -0.018 0.01 -0.011
O17 0.025 0.016 0.033 -0.01 0.005 -0.012
N5 0.028 0.016 0.032 -0.011 0.01 -0.01
C8 0.014 0.016 0.024 -0.006 -0.002 -0.006
O3 0.021 0.047 0.024 -0.007 0.009 -0.009
O4 0.037 0.057 0.073 -0.031 0.013 -0.027
O6 0.017 0.032 0.046 -0.023 0.015 -0.013
O14 0.056 0.044 0.073 0.025 -0.017 -0.006
N3 0.016 0.02 0.03 -0.016 0.005 -0.006
C6 0.014 0.031 0.024 -0.002 0.003 -0.01
C7 0.019 0.016 0.036 -0.017 0.002 -0.005
C9 0.021 0.026 0.026 -0.007 0.013 -0.015
C10 0.025 0.011 0.018 -0.006 0.004 -0.007
C12 0.02 0.022 0.022 -0.006 0.005 -0.006
loop_
_geom_bond_atom_site_label_1
_geom_bond_atom_site_label_2
_geom_bond_site_symmetry_1
_geom_bond_site_symmetry_2
O8 C11 1_555 1_555
O12 Sr7 1_555 1_555
O13 Sr7 1_555 1_555
N2 Sr7 1_555 1_555
Sr5 O12 1_555 1_555
O18 Sr7 1_555 1_555
Sr5 O18 1_555 1_555
O13 H5 1_555 1_555
O13 H6 1_555 1_555
Sr5 O1 1_555 1_555
O1 C5 1_555 1_555
O2 C5 1_555 1_555
O10 Sr5 1_555 1_555
O11 Sr5 1_555 1_555
N1 Sr5 1_555 1_555
C1 N1 1_555 1_555
H1 C2 1_555 1_555
C4 N1 1_555 1_555
H2 C4 1_555 1_555
C5 C1 1_555 1_555
O15 Sr5 1_555 1_555
O17 Sr5 1_555 1_555
N5 Sr5 1_555 1_555
C1 C2 1_555 1_555
C3 C4 1_555 1_555
O11 H9 1_555 1_555
O11 H10 1_555 1_555
O10 H11 1_555 1_555
O10 H12 1_555 1_555
N5 C8 1_555 1_555
O3 C6 1_555 1_555
O4 C6 1_555 1_555
O6 C12 1_555 1_555
C7 N3 1_555 1_555
H4 C9 1_555 1_555
C10 N3 1_555 1_555
C12 O15 1_555 1_555
C9 C10 1_555 1_555
C10 C12 1_555 1_555
O14 H7 1_555 1_555
O14 H8 1_555 1_555

#END
