
###############################################################################
#
# This file contains modified crystal structure data generated from the
# MOF subset of the Cambridge Structural Database (CSD) v543 
# hosted by the Cambridge Crystallographic Data Centre (CCDC).
#
# This work is licensed under the Creative Commons
# Attribution-NonCommercial-ShareAlike 4.0 International License.
# To view a copy of this license, visit
# http://creativecommons.org/licenses/by-nc-sa/4.0/
# or send a letter to
# Creative Commons, PO Box 1866, Mountain View, CA 94042, USA.
#
# CIF created using the CSD Python API on 29 September 2022
# The structure has been converted into the P1 space group
# The structure has a 3D framework
# The original CSD entry XECQIJ is in the triclinic crystal system
# The framework has been calculated to contain at least 10.0% void space
# The void calculation uses a probe of radius 1.32A, grid spacing 0.4
# H atom positions have been added when not included in the experimental data
#
###############################################################################

data_XECQIJ
_chemical_formula_moiety         '(C48 H32 O36 Sm4)n'
_symmetry_cell_setting           triclinic
_symmetry_space_group_name_H-M   'P 1'
_symmetry_Int_Tables_number      1
_space_group_name_Hall           'P 1'
loop_
_symmetry_equiv_pos_site_id
_symmetry_equiv_pos_as_xyz
1 x,y,z
_cell_length_a                   12.455
_cell_length_b                   12.732
_cell_length_c                   13.716
_cell_angle_alpha                84.67
_cell_angle_beta                 71.72
_cell_angle_gamma                70.88
_cell_volume                     1951.23
loop_
_atom_site_label
_atom_site_type_symbol
_atom_site_fract_x
_atom_site_fract_y
_atom_site_fract_z
O19 O 0.1406(10) 0.2841(10) 0.2185(9)
O20 O 0.0096(9) 0.2602(9) 0.1529(9)
O23 O 0.1448(10) 0.4154(10) 0.0425(9)
O27 O 0.0968(12) 0.6037(12) 0.1955(10)
O28 O 0.0768(11) 0.4965(10) 0.3275(9)
Sm6 Sm 0.01411(8) 0.53441(7) 0.79679(6)
Sm9 Sm 0.18231(8) 0.76185(8) 0.81662(7)
C8 C 0.7725(16) 0.1119(15) 0.0483(13)
O3 O 0.8636(11) 0.0717(10) 0.0774(9)
O4 O 0.7010(12) 0.2082(11) 0.0773(11)
Sm7 Sm 0.81769(8) 0.23815(8) 0.18338(7)
C4 C 0.7457(9) 0.0478(8) 0.9751(7)
C5 C 0.6406(8) 0.0888(7) 0.9487(8)
H2 H 0.5853 0.1566 0.9757
C6 C 0.6181(7) 0.0286(8) 0.8822(8)
C9 C 0.4671(8) 0.1794(5) 0.8471(8)
C10 C 0.3471(8) 0.2262(7) 0.9002(7)
H4 H 0.3051 0.1823 0.9426
C11 C 0.2900(6) 0.3385(7) 0.8897(7)
C12 C 0.3527(8) 0.4041(5) 0.8263(7)
C13 C 0.4727(8) 0.3573(7) 0.7732(7)
H5 H 0.5147 0.4012 0.7308
C14 C 0.5299(6) 0.2450(7) 0.7837(7)
C15 C 0.1616(16) 0.3864(14) 0.9508(12)
C16 C 0.2957(15) 0.5258(14) 0.8154(12)
C17 C 0.7143(8) 0.2504(8) 0.6751(7)
C18 C 0.7356(9) 0.2603(9) 0.5695(7)
H6 H 0.7015 0.2257 0.5362
C19 C 0.8078(10) 0.3220(9) 0.5136(5)
C20 C 0.8588(9) 0.3738(9) 0.5633(7)
H7 H 0.9071 0.4150 0.5259
C21 C 0.8375(10) 0.3639(9) 0.6690(7)
C22 C 0.7652(9) 0.3022(9) 0.7249(5)
H8 H 0.7510 0.2956 0.7955
C23 C 0.8283(15) 0.3321(14) 0.4010(14)
C24 C 0.8904(18) 0.4222(14) 0.7200(14)
O6 O 0.0790(10) 0.3902(9) 0.9151(8)
O7 O 0.1820(10) 0.5609(9) 0.8297(9)
O8 O 0.3577(11) 0.5890(10) 0.7908(11)
O9 O 0.6454(10) 0.1858(9) 0.7301(9)
O10 O 0.9032(12) 0.3963(12) 0.8045(10)
O11 O 0.9232(11) 0.5035(10) 0.6725(9)
O12 O 0.8936(12) 0.3909(11) 0.3551(8)
O13 O 0.7853(13) 0.2820(12) 0.3577(9)
O14 O 0.9243(14) 0.0666(12) 0.2624(13)
O15 O 0.6507(13) 0.1746(13) 0.2955(11)
O17 O 0.8300(12) 0.6220(12) 0.3116(10)
O18 O 0.5184(9) 0.0649(9) 0.8534(8)
Sm1 Sm 0.98589(8) 0.46559(7) 0.20321(6)
O24 O 0.9210(10) 0.6098(9) 0.0849(8)
O25 O 0.8180(10) 0.4391(9) 0.1703(9)
O26 O 0.6423(11) 0.4110(10) 0.2092(11)
H9 H 0.847114 0.624061 0.377274
H10 H 0.829545 0.693067 0.27489
H13 H 0.866061 0.0441386 0.321307
H14 H 0.964305 0.00563065 0.210403
H15 H 0.585509 0.239306 0.333534
H16 H 0.620347 0.139721 0.252521
C1 C 0.8888(15) 0.7732(13) 0.8303(13)
C2 C 0.8059(8) 0.8864(7) 0.8683(8)
C3 C 0.8284(8) 0.9466(8) 0.9348(8)
H1 H 0.8987 0.9192 0.9525
C7 C 0.7007(9) 0.9274(8) 0.8419(7)
H3 H 0.6856 0.8871 0.7974
O1 O 0.8594(10) 0.7159(10) 0.7815(9)
O2 O 0.9904(9) 0.7398(9) 0.8471(9)
C1_2 C 0.1112(15) 0.2268(13) 0.1697(13)
C2_2 C 0.1941(8) 0.1136(7) 0.1317(8)
C3_2 C 0.1716(8) 0.0534(8) 0.0652(8)
H1_2 H 0.1013 0.0808 0.0475
C7_2 C 0.2993(9) 0.0726(8) 0.1581(7)
H3_2 H 0.3144 0.1129 0.2026
C4_2 C 0.2543(9) 0.9522(8) 0.0249(7)
C5_2 C 0.3594(8) 0.9112(7) 0.0513(8)
H2_2 H 0.4147 0.8434 0.0243
C6_2 C 0.3819(7) 0.9714(8) 0.1178(8)
C9_2 C 0.5329(8) 0.8206(5) 0.1529(8)
C10_2 C 0.6529(8) 0.7738(7) 0.0998(7)
H4_2 H 0.6949 0.8177 0.0574
C11_2 C 0.7100(6) 0.6615(7) 0.1103(7)
C12_2 C 0.6473(8) 0.5959(5) 0.1737(7)
C13_2 C 0.5273(8) 0.6427(7) 0.2268(7)
H5_2 H 0.4853 0.5988 0.2692
C14_2 C 0.4701(6) 0.7550(7) 0.2163(7)
C15_2 C 0.8384(16) 0.6136(14) 0.0492(12)
C16_2 C 0.7043(15) 0.4742(14) 0.1846(12)
C17_2 C 0.2857(8) 0.7496(8) 0.3249(7)
C18_2 C 0.2644(9) 0.7397(9) 0.4305(7)
H6_2 H 0.2985 0.7743 0.4638
C19_2 C 0.1922(10) 0.6780(9) 0.4864(5)
C20_2 C 0.1412(9) 0.6262(9) 0.4367(7)
H7_2 H 0.0929 0.5850 0.4741
C21_2 C 0.1625(10) 0.6361(9) 0.3310(7)
C22_2 C 0.2348(9) 0.6978(9) 0.2751(5)
H8_2 H 0.2490 0.7044 0.2045
C23_2 C 0.1717(15) 0.6679(14) 0.5990(14)
C24_2 C 0.1096(18) 0.5778(14) 0.2800(14)
O9_2 O 0.3546(10) 0.8142(9) 0.2699(9)
O12_2 O 0.1064(12) 0.6091(11) 0.6449(8)
O13_2 O 0.2147(13) 0.7180(12) 0.6423(9)
O14_2 O 0.0757(14) 0.9334(12) 0.7376(13)
O15_2 O 0.3493(13) 0.8254(13) 0.7045(11)
O17_2 O 0.1700(12) 0.3780(12) 0.6884(10)
O18_2 O 0.4816(9) 0.9351(9) 0.1466(8)
O21 O 0.1364(11) 0.9283(10) 0.9226(9)
O22 O 0.2990(12) 0.7918(11) 0.9227(11)
H9_2 H 0.152886 0.375939 0.622726
H10_2 H 0.170455 0.306933 0.72511
H13_2 H 0.133939 0.955861 0.678693
H14_2 H 0.0356947 0.994369 0.789597
H15_2 H 0.414491 0.760694 0.666466
H16_2 H 0.379653 0.860279 0.747479
C8_2 C 0.2275(16) 0.8881(15) 0.9517(13)
O5 O 0.8552(10) 0.5846(10) 0.9575(9)
O16 O 0.8956(13) 0.2943(11) 0.9984(9)
H11 H 0.980707 0.288789 0.982779
H12 H 0.88796 0.243997 0.951593
O16_2 O 0.1044(13) 0.7057(11) 0.0016(9)
H11_2 H 0.0192926 0.711211 0.0172209
H12_2 H 0.11204 0.756003 0.0484073
loop_
_geom_bond_atom_site_label_1
_geom_bond_atom_site_label_2
_geom_bond_site_symmetry_1
_geom_bond_site_symmetry_2
O3 C8 1_555 1_555
O4 C8 1_555 1_555
Sm7 O3 1_555 1_555
O4 Sm7 1_555 1_555
C5 C4 1_555 1_555
H2 C5 1_555 1_555
C6 C5 1_555 1_555
C9 C10 1_555 1_555
C10 H4 1_555 1_555
C11 C10 1_555 1_555
C12 C11 1_555 1_555
C13 C12 1_555 1_555
H5 C13 1_555 1_555
C14 C9 1_555 1_555
C15 C11 1_555 1_555
C16 C12 1_555 1_555
C17 C18 1_555 1_555
C18 H6 1_555 1_555
C19 C18 1_555 1_555
C20 C19 1_555 1_555
H7 C20 1_555 1_555
C21 C20 1_555 1_555
C22 C17 1_555 1_555
H8 C22 1_555 1_555
C23 C19 1_555 1_555
C24 C21 1_555 1_555
O6 C15 1_555 1_555
O7 C16 1_555 1_555
O8 C16 1_555 1_555
O9 C14 1_555 1_555
O10 C24 1_555 1_555
O11 C24 1_555 1_555
O12 C23 1_555 1_555
O13 C23 1_555 1_555
O14 Sm7 1_555 1_555
O15 Sm7 1_555 1_555
O17 Sm1 1_555 1_555
O18 C6 1_555 1_555
Sm1 O12 1_555 1_555
Sm7 O13 1_555 1_555
O24 Sm1 1_555 1_555
O25 Sm1 1_555 1_555
O26 Sm7 1_555 1_555
Sm6 O6 1_555 1_555
Sm9 O7 1_555 1_555
C9 O18 1_555 1_555
C13 C14 1_555 1_555
C17 O9 1_555 1_555
C21 C22 1_555 1_555
O7 Sm6 1_555 1_555
O8 Sm9 1_555 1_555
Sm7 O25 1_555 1_555
O17 H9 1_555 1_555
O17 H10 1_555 1_555
O14 H13 1_555 1_555
O14 H14 1_555 1_555
O15 H15 1_555 1_555
O15 H16 1_555 1_555
C1 C2 1_555 1_555
C2 C3 1_555 1_555
C3 H1 1_555 1_555
C7 C2 1_555 1_555
H3 C7 1_555 1_555
O1 C1 1_555 1_555
O2 C1 1_555 1_555
C1_2 C2_2 1_555 1_555
C2_2 C3_2 1_555 1_555
C3_2 H1_2 1_555 1_555
C7_2 C2_2 1_555 1_555
H3_2 C7_2 1_555 1_555
O19 C1_2 1_555 1_555
O20 C1_2 1_555 1_555
C5_2 C4_2 1_555 1_555
H2_2 C5_2 1_555 1_555
C6_2 C5_2 1_555 1_555
C9_2 C10_2 1_555 1_555
C10_2 H4_2 1_555 1_555
C11_2 C10_2 1_555 1_555
C12_2 C11_2 1_555 1_555
C13_2 C12_2 1_555 1_555
H5_2 C13_2 1_555 1_555
C14_2 C9_2 1_555 1_555
C15_2 C11_2 1_555 1_555
C16_2 C12_2 1_555 1_555
C17_2 C18_2 1_555 1_555
C18_2 H6_2 1_555 1_555
C19_2 C18_2 1_555 1_555
C20_2 C19_2 1_555 1_555
H7_2 C20_2 1_555 1_555
C21_2 C20_2 1_555 1_555
C22_2 C17_2 1_555 1_555
H8_2 C22_2 1_555 1_555
C23_2 C19_2 1_555 1_555
C24_2 C21_2 1_555 1_555
O24 C15_2 1_555 1_555
O25 C16_2 1_555 1_555
O26 C16_2 1_555 1_555
O9_2 C14_2 1_555 1_555
O27 C24_2 1_555 1_555
O28 C24_2 1_555 1_555
O12_2 C23_2 1_555 1_555
O13_2 C23_2 1_555 1_555
O14_2 Sm9 1_555 1_555
O15_2 Sm9 1_555 1_555
O17_2 Sm6 1_555 1_555
O18_2 C6_2 1_555 1_555
Sm6 O12_2 1_555 1_555
Sm9 O13_2 1_555 1_555
O21 Sm9 1_555 1_555
O22 Sm9 1_555 1_555
C9_2 O18_2 1_555 1_555
C13_2 C14_2 1_555 1_555
C17_2 O9_2 1_555 1_555
C21_2 C22_2 1_555 1_555
O17_2 H9_2 1_555 1_555
O17_2 H10_2 1_555 1_555
O14_2 H13_2 1_555 1_555
O14_2 H14_2 1_555 1_555
O15_2 H15_2 1_555 1_555
O15_2 H16_2 1_555 1_555
O21 C8_2 1_555 1_555
O22 C8_2 1_555 1_555
O16 H11 1_555 1_555
O16 H12 1_555 1_555
O16_2 H11_2 1_555 1_555
O16_2 H12_2 1_555 1_555

#END
