
###############################################################################
#
# This file contains modified crystal structure data generated from the
# MOF subset of the Cambridge Structural Database (CSD) v543 
# hosted by the Cambridge Crystallographic Data Centre (CCDC).
#
# This work is licensed under the Creative Commons
# Attribution-NonCommercial-ShareAlike 4.0 International License.
# To view a copy of this license, visit
# http://creativecommons.org/licenses/by-nc-sa/4.0/
# or send a letter to
# Creative Commons, PO Box 1866, Mountain View, CA 94042, USA.
#
# CIF created using the CSD Python API on 29 September 2022
# The structure has been converted into the P1 space group
# The structure has a 3D framework
# The original CSD entry XEDDIX is in the triclinic crystal system
# The framework has been calculated to contain at least 10.0% void space
# The void calculation uses a probe of radius 1.32A, grid spacing 0.4
# H atom positions have been added when not included in the experimental data
#
###############################################################################

data_XEDDIX
_chemical_formula_moiety         '(C102 H58 F36 Mn8 N2 O29)n'
_symmetry_cell_setting           triclinic
_symmetry_space_group_name_H-M   'P 1'
_symmetry_Int_Tables_number      1
_space_group_name_Hall           'P 1'
loop_
_symmetry_equiv_pos_site_id
_symmetry_equiv_pos_as_xyz
1 x,y,z
_cell_length_a                   15.9327(6)
_cell_length_b                   17.4960(7)
_cell_length_c                   17.8395(8)
_cell_angle_alpha                63.784(4)
_cell_angle_beta                 85.830(3)
_cell_angle_gamma                65.470(4)
_cell_volume                     4021.21
loop_
_atom_site_label
_atom_site_type_symbol
_atom_site_fract_x
_atom_site_fract_y
_atom_site_fract_z
O20 O 0.0503(3) 0.0218(3) 0.5431(3)
Mn1 Mn 0.02805(7) 0.89377(7) 0.58358(7)
O2 O 0.1468(3) 0.8536(3) 0.5241(3)
Mn10 Mn 0.14108(7) 0.89548(8) 0.39173(7)
Mn12 Mn 0.27998(7) 0.74633(8) 0.58756(7)
O24 O 0.1172(3) 0.8093(4) 0.7008(3)
H26 H 0.0108319 0.802105 0.819002
Mn9 Mn 0.85892(7) 0.10452(8) 0.60827(7)
O25 O 0.7424(3) 0.0508(4) 0.6241(4)
O5 O 0.7333(3) 0.2210(4) 0.3096(3)
O6 O 0.8828(3) 0.1907(4) 0.2992(3)
C2 C 0.8055(5) 0.1675(5) 0.2096(4)
F4 F 0.5593(4) 0.2680(7) 0.0711(5)
C9 C 0.8067(5) 0.1951(5) 0.2772(5)
C11 C 0.7230(6) 0.1976(6) 0.1630(5)
H3 H 0.667136 0.230471 0.177654
C13 C 0.8037(6) 0.1264(6) 0.0757(5)
C16 C 0.8872(6) 0.1123(5) 0.1931(5)
H6 H 0.942909 0.089672 0.225891
C18 C 0.7210(6) 0.1803(6) 0.0950(5)
C25 C 0.8873(6) 0.0901(6) 0.1277(5)
H7 H 0.942931 0.050913 0.117905
F9 F 0.6061(6) 0.1566(7) 0.0441(7)
C30 C 0.8122(6) 0.1022(6) 0.0042(5)
C44 C 0.8020(8) 0.0249(7) 0.0126(6)
C45 C 0.6311(8) 0.2186(9) 0.0453(7)
Mn7 Mn 0.97195(7) 0.10623(7) 0.41642(7)
Mn11 Mn 0.72002(7) 0.25367(8) 0.41244(7)
Mn4 Mn 0.84122(8) 0.90103(9) 0.72484(8)
O1 O 0.9283(3) 0.9570(3) 0.6483(3)
O7 O 0.9756(3) 0.7956(3) 0.6025(3)
O9 O 0.7870(4) 0.2504(4) 0.5689(4)
O10 O 0.6625(4) 0.1739(4) 0.5041(4)
O11 O 0.8373(4) 0.8336(4) 0.6521(4)
O12 O 0.9737(4) 0.7803(4) 0.7978(4)
O13 O 0.8547(4) 0.0828(5) 0.7332(4)
O14 O 0.7500(4) 0.3488(4) 0.4318(4)
O15 O 0.5868(4) 0.3639(5) 0.3450(5)
C1 C 0.1557(4) 0.0538(5) 0.5978(5)
F1 F 0.3475(5) 0.1178(6) 0.7278(5)
O17 O 0.7654(5) 0.8259(6) 0.8101(5)
F2 F 0.7390(5) 0.5253(5) 0.7064(5)
F3 F 0.6580(5) 0.6695(6) 0.6740(6)
C3 C 0.0610(5) 0.0608(5) 0.5860(5)
C4 C 0.2234(5) 0.0186(6) 0.5560(5)
C5 C 0.6701(5) 0.1032(6) 0.5717(6)
C6 C 0.3314(5) 0.0485(5) 0.6135(5)
C7 C 0.1767(5) 0.0841(6) 0.6503(6)
H2 H 0.131005 0.108000 0.679635
F5 F 0.6601(5) 0.6186(5) 0.5881(5)
C8 C 0.8999(5) 0.7895(5) 0.6200(5)
C10 C 0.5843(5) 0.0845(5) 0.5864(5)
C12 C 0.3101(5) 0.0159(6) 0.5627(6)
C14 C 0.8305(6) 0.0519(6) 0.8725(6)
C15 C 0.8093(5) 0.6980(5) 0.6301(6)
H5 H 0.768162 0.727522 0.658876
C17 C 0.8558(6) 0.5867(6) 0.5732(6)
C19 C 0.8060(5) 0.3897(5) 0.5225(5)
C20 C 0.7797(5) 0.3247(6) 0.5069(6)
C21 C 0.8388(6) 0.0292(6) 0.7999(5)
F6 F 0.2121(5) 0.1415(7) 0.7570(6)
C22 C 0.8840(6) 0.7199(6) 0.6024(5)
C23 C 0.4228(5) 0.0564(6) 0.6088(5)
F7 F 0.6282(5) 0.2719(7) 0.9630(5)
C24 C 0.7956(6) 0.6324(6) 0.6149(6)
C26 C 0.2628(6) 0.0798(7) 0.6603(6)
N1 N 0.4738(6) 0.4511(7) 0.2358(6)
C27 C 0.9320(6) 0.6067(6) 0.5476(7)
H8 H 0.973673 0.576035 0.519832
C28 C 0.8429(6) 0.5167(5) 0.5527(6)
C29 C 0.8555(6) 0.3605(6) 0.5944(6)
H9 H 0.878175 0.297354 0.633831
C31 C 0.5013(6) 0.1536(7) 0.5416(7)
H10 H 0.498012 0.211666 0.501445
C34 C 0.9467(6) 0.6721(6) 0.5630(6)
H13 H 0.998758 0.683591 0.546656
C35 C 0.8404(7) 0.1313(7) 0.8615(6)
H14 H 0.853312 0.168278 0.809923
C36 C 0.4230(6) 0.1399(6) 0.5541(7)
H15 H 0.366762 0.190032 0.523695
F11 F 0.7945(8) 0.2948(6) 0.9393(6)
C38 C 0.8747(7) 0.4226(7) 0.6126(7)
C39 C 0.8314(7) 0.1559(6) 0.9265(6)
C40 C 0.5438(7) 0.3736(8) 0.2838(7)
H16 H 0.562718 0.322647 0.271860
C41 C 0.7131(7) 0.6124(7) 0.6474(7)
C42 C 0.7984(8) 0.5426(6) 0.4798(7)
F12 F 0.8453(10) 0.2925(7) 0.8301(7)
C43 C 0.7795(8) 0.4823(7) 0.4605(7)
H17 H 0.749857 0.503070 0.407580
F13 F 0.9333(9) 0.2134(8) 0.9450(9)
C47 C 0.2857(7) 0.0938(9) 0.7303(8)
C48 C 0.8468(13) 0.2360(11) 0.9114(10)
F14 F 0.3260(11) 0.0086(9) 0.8084(8)
C49 C 0.4273(9) 0.4610(12) 0.1584(10)
H19 H 0.448213 0.400060 0.160418
H20 H 0.443301 0.501504 0.108369
H21 H 0.360919 0.487714 0.157482
C50 C 0.4375(10) 0.5346(10) 0.2523(10)
H22 H 0.461076 0.515689 0.308758
H23 H 0.370699 0.561330 0.245897
H24 H 0.457273 0.580739 0.212991
F16 F 0.7571(12) 0.6463(9) 0.3282(9)
F17 F 0.7709(15) 0.7093(10) 0.4048(10)
C51 C 0.7671(17) 0.6358(12) 0.4082(11)
F18 F 0.6643(16) 0.675(2) 0.4111(18)
O19 O 0.8532(3) 0.1464(3) 0.4759(3)
O21 O 0.9497(3) 0.9782(3) 0.4569(3)
O22 O 0.9958(3) 0.1036(4) 0.6167(3)
O26 O 0.8316(5) 0.9560(4) 0.8125(4)
H25 H 0.913901 0.397412 0.672721
H27 H 0.960434 0.731795 0.846239
H28 H 0.796354 0.79396 0.868958
H29 H 0.700344 0.871446 0.80567
H1 H 0.210893 0.995793 0.521971
H4 H 0.354969 0.991984 0.532742
F8 F 0.5992(5) 0.8205(5) 0.7365(6)
C32 C 0.5884(6) 0.9978(6) 0.6428(6)
H11 H 0.645083 0.949289 0.674083
C33 C 0.8147(8) 0.9981(7) 0.9485(6)
H12 H 0.812298 0.942325 0.958218
C37 C 0.5079(6) 0.9820(6) 0.6536(6)
F10 F 0.4898(8) 0.8508(7) 0.6584(8)
C46 C 0.5157(7) 0.8868(9) 0.7074(9)
F15 F 0.4560(8) 0.8784(7) 0.7551(7)
O4 O 0.0042(3) 0.8964(4) 0.3833(3)
O16 O 0.1684(5) 0.0440(4) 0.1875(4)
H1_2 H 0.789107 0.004207 0.478029
H4_2 H 0.645031 0.008016 0.467258
F8_2 F 0.4008(5) 0.1795(5) 0.2635(6)
C32_2 C 0.4116(6) 0.0022(6) 0.3572(6)
H11_2 H 0.354917 0.050711 0.325917
C33_2 C 0.1853(8) 0.0019(7) 0.0515(6)
H12_2 H 0.187702 0.057675 0.041782
C37_2 C 0.4921(6) 0.0180(6) 0.3464(6)
F10_2 F 0.5102(8) 0.1492(7) 0.3416(8)
C46_2 C 0.4843(7) 0.1132(9) 0.2926(9)
F15_2 F 0.5440(8) 0.1216(7) 0.2449(7)
Mn13 Mn 0.15878(8) 0.09897(9) 0.27516(8)
O18 O 0.0717(3) 0.0430(3) 0.3517(3)
O7_2 O 0.0244(3) 0.2044(3) 0.3975(3)
O8 O 0.2576(3) 0.9492(4) 0.3759(4)
O9_2 O 0.2130(4) 0.7496(4) 0.4311(4)
O10_2 O 0.3375(4) 0.8261(4) 0.4959(4)
O11_2 O 0.1627(4) 0.1664(4) 0.3479(4)
O12_2 O 0.0263(4) 0.2197(4) 0.2022(4)
O13_2 O 0.1453(4) 0.9172(5) 0.2668(4)
O14_2 O 0.2500(4) 0.6512(4) 0.5682(4)
O15_2 O 0.4132(4) 0.6361(5) 0.6550(5)
C1_2 C 0.8443(4) 0.9462(5) 0.4022(5)
F1_2 F 0.6525(5) 0.8822(6) 0.2722(5)
O17_2 O 0.2346(5) 0.1741(6) 0.1899(5)
F2_2 F 0.2610(5) 0.4747(5) 0.2936(5)
F3_2 F 0.3420(5) 0.3305(6) 0.3260(6)
C3_2 C 0.9390(5) 0.9392(5) 0.4140(5)
C4_2 C 0.7766(5) 0.9814(6) 0.4440(5)
C5_2 C 0.3299(5) 0.8968(6) 0.4283(6)
C6_2 C 0.6686(5) 0.9515(5) 0.3865(5)
C7_2 C 0.8233(5) 0.9159(6) 0.3497(6)
H2_2 H 0.868995 0.892000 0.320365
F5_2 F 0.3399(5) 0.3814(5) 0.4119(5)
C8_2 C 0.1001(5) 0.2105(5) 0.3800(5)
C10_2 C 0.4157(5) 0.9155(5) 0.4136(5)
C12_2 C 0.6899(5) 0.9841(6) 0.4373(6)
C14_2 C 0.1695(6) 0.9481(6) 0.1275(6)
C15_2 C 0.1907(5) 0.3020(5) 0.3699(6)
H5_2 H 0.231838 0.272478 0.341124
C17_2 C 0.1442(6) 0.4133(6) 0.4268(6)
C19_2 C 0.1940(5) 0.6103(5) 0.4775(5)
C20_2 C 0.2203(5) 0.6753(6) 0.4931(6)
C21_2 C 0.1612(6) 0.9708(6) 0.2001(5)
F6_2 F 0.7879(5) 0.8585(7) 0.2430(6)
C22_2 C 0.1160(6) 0.2801(6) 0.3976(5)
C23_2 C 0.5772(5) 0.9436(6) 0.3912(5)
F7_2 F 0.3718(5) 0.7281(7) 0.0370(5)
C24_2 C 0.2044(6) 0.3676(6) 0.3851(6)
C26_2 C 0.7372(6) 0.9202(7) 0.3397(6)
N1_2 N 0.5262(6) 0.5489(7) 0.7642(6)
C27_2 C 0.0680(6) 0.3933(6) 0.4524(7)
H8_2 H 0.026327 0.423965 0.480168
C28_2 C 0.1571(6) 0.4833(5) 0.4473(6)
C29_2 C 0.1445(6) 0.6395(6) 0.4056(6)
H9_2 H 0.121825 0.702646 0.366169
C31_2 C 0.4987(6) 0.8464(7) 0.4584(7)
H10_2 H 0.501988 0.788334 0.498555
C34_2 C 0.0533(6) 0.3279(6) 0.4370(6)
H13_2 H 0.001242 0.316409 0.453344
C35_2 C 0.1596(7) 0.8687(7) 0.1385(6)
H14_2 H 0.146688 0.831722 0.190077
C36_2 C 0.5770(6) 0.8601(6) 0.4459(7)
H15_2 H 0.633238 0.809968 0.476305
F11_2 F 0.2055(8) 0.7052(6) 0.0607(6)
C38_2 C 0.1253(7) 0.5774(7) 0.3874(7)
C39_2 C 0.1686(7) 0.8441(6) 0.0735(6)
C40_2 C 0.4562(7) 0.6264(8) 0.7162(7)
H16_2 H 0.437282 0.677353 0.728140
C41_2 C 0.2869(7) 0.3876(7) 0.3526(7)
C42_2 C 0.2016(8) 0.4574(6) 0.5202(7)
F12_2 F 0.1547(10) 0.7075(7) 0.1699(7)
C43_2 C 0.2205(8) 0.5177(7) 0.5395(7)
H17_2 H 0.250143 0.496930 0.592420
F13_2 F 0.0667(9) 0.7866(8) 0.0550(9)
C47_2 C 0.7143(7) 0.9062(9) 0.2697(8)
C48_2 C 0.1532(13) 0.7640(11) 0.0886(10)
F14_2 F 0.6740(11) 0.9914(9) 0.1916(8)
C49_2 C 0.5727(9) 0.5390(12) 0.8416(10)
H19_2 H 0.551787 0.599940 0.839582
H20_2 H 0.556699 0.498496 0.891631
H21_2 H 0.639081 0.512286 0.842518
C50_2 C 0.5625(10) 0.4654(10) 0.7477(10)
H22_2 H 0.538924 0.484311 0.691242
H23_2 H 0.629301 0.438670 0.754103
H24_2 H 0.542727 0.419261 0.787009
F16_2 F 0.2429(12) 0.3537(9) 0.6718(9)
F17_2 F 0.2291(15) 0.2907(10) 0.5952(10)
C51_2 C 0.2329(17) 0.3642(12) 0.5918(11)
F18_2 F 0.3357(16) 0.325(2) 0.5889(18)
O23 O 0.2667(3) 0.7790(4) 0.6904(3)
H25_2 H 0.0860986 0.602588 0.327279
H27_2 H 0.0395662 0.268205 0.153761
H28_2 H 0.203646 0.20604 0.131042
H29_2 H 0.299656 0.128554 0.19433
C2_2 C 0.1945(5) 0.8325(5) 0.7904(4)
F4_2 F 0.4407(4) 0.7320(7) 0.9289(5)
C9_2 C 0.1933(5) 0.8049(5) 0.7228(5)
C11_2 C 0.2770(6) 0.8024(6) 0.8370(5)
H3_2 H 0.332864 0.769529 0.822346
C13_2 C 0.1963(6) 0.8736(6) 0.9243(5)
C16_2 C 0.1128(6) 0.8877(5) 0.8069(5)
H6_2 H 0.057091 0.910328 0.774109
C18_2 C 0.2790(6) 0.8197(6) 0.9050(5)
C25_2 C 0.1127(6) 0.9099(6) 0.8723(5)
H7_2 H 0.057069 0.949087 0.882095
F9_2 F 0.3939(6) 0.8434(7) 0.9559(7)
C30_2 C 0.1878(6) 0.8978(6) 0.9958(5)
C44_2 C 0.1980(8) 0.9751(7) 0.9874(6)
C45_2 C 0.3689(8) 0.7814(9) 0.9547(7)
H26_2 H 0.989168 0.197895 0.180998
H18 H 0.786053 0.989188 0.062918
H18_2 H 0.213947 0.010812 0.937082
loop_
_geom_bond_atom_site_label_1
_geom_bond_atom_site_label_2
_geom_bond_site_symmetry_1
_geom_bond_site_symmetry_2
O2 Mn1 1_555 1_555
Mn10 O2 1_555 1_555
Mn12 O2 1_555 1_555
O24 Mn1 1_555 1_555
Mn9 O25 1_555 1_555
O5 C9 1_555 1_555
O6 C9 1_555 1_555
C2 C9 1_555 1_555
F4 C45 1_555 1_555
C11 C2 1_555 1_555
H3 C11 1_555 1_555
C13 C18 1_555 1_555
C16 C2 1_555 1_555
H6 C16 1_555 1_555
C18 C11 1_555 1_555
C25 C13 1_555 1_555
H7 C25 1_555 1_555
F9 C45 1_555 1_555
C30 C13 1_555 1_555
C44 C30 1_555 1_555
C45 C18 1_555 1_555
Mn7 O6 1_555 1_555
Mn11 O5 1_555 1_555
C16 C25 1_555 1_555
Mn11 O10 1_555 1_555
Mn4 O1 1_555 1_555
O20 C3 1_555 1_555
O25 C5 1_555 1_555
O9 Mn9 1_555 1_555
O10 C5 1_555 1_555
O11 Mn4 1_555 1_555
O12 Mn4 1_555 1_555
O13 Mn9 1_555 1_555
O14 Mn11 1_555 1_555
O15 Mn11 1_555 1_555
C1 C3 1_555 1_555
F1 C47 1_555 1_555
O17 Mn4 1_555 1_555
F2 C41 1_555 1_555
F3 C41 1_555 1_555
C4 C1 1_555 1_555
C5 C10 1_555 1_555
C6 C12 1_555 1_555
C7 C1 1_555 1_555
H2 C7 1_555 1_555
F5 C41 1_555 1_555
C8 O7 1_555 1_555
C10 C31 1_555 1_555
C12 C4 1_555 1_555
C14 C21 1_555 1_555
C15 H5 1_555 1_555
C17 C24 1_555 1_555
C19 C20 1_555 1_555
C20 O9 1_555 1_555
C21 O13 1_555 1_555
F6 C47 1_555 1_555
C22 C8 1_555 1_555
C23 C6 1_555 1_555
C24 C15 1_555 1_555
C26 C6 1_555 1_555
N1 C40 1_555 1_555
C27 C17 1_555 1_555
H8 C27 1_555 1_555
C28 C17 1_555 1_555
C29 C19 1_555 1_555
H9 C29 1_555 1_555
C31 H10 1_555 1_555
C34 C22 1_555 1_555
H13 C34 1_555 1_555
C35 C14 1_555 1_555
H14 C35 1_555 1_555
C36 C23 1_555 1_555
H15 C36 1_555 1_555
F11 C48 1_555 1_555
C38 C28 1_555 1_555
C40 O15 1_555 1_555
H16 C40 1_555 1_555
C41 C24 1_555 1_555
C42 C28 1_555 1_555
F12 C48 1_555 1_555
C43 C19 1_555 1_555
H17 C43 1_555 1_555
F13 C48 1_555 1_555
C47 C26 1_555 1_555
C48 C39 1_555 1_555
F14 C47 1_555 1_555
C49 N1 1_555 1_555
H19 C49 1_555 1_555
H20 C49 1_555 1_555
H21 C49 1_555 1_555
C50 N1 1_555 1_555
H22 C50 1_555 1_555
H23 C50 1_555 1_555
H24 C50 1_555 1_555
F16 C51 1_555 1_555
F17 C51 1_555 1_555
C51 C42 1_555 1_555
F18 C51 1_555 1_555
O19 Mn9 1_555 1_555
O22 Mn9 1_555 1_555
O26 Mn4 1_555 1_555
Mn11 O19 1_555 1_555
O11 C8 1_555 1_555
O14 C20 1_555 1_555
C7 C26 1_555 1_555
C15 C22 1_555 1_555
C27 C34 1_555 1_555
C29 C38 1_555 1_555
C31 C36 1_555 1_555
C35 C39 1_555 1_555
C42 C43 1_555 1_555
C38 H25 1_555 1_555
O12 H27 1_555 1_555
O17 H28 1_555 1_555
O17 H29 1_555 1_555
F8 C46 1_555 1_555
H11 C32 1_555 1_555
H12 C33 1_555 1_555
F10 C46 1_555 1_555
C46 C37 1_555 1_555
F15 C46 1_555 1_555
C32 C37 1_555 1_555
Mn10 O4 1_555 1_555
F8_2 C46_2 1_555 1_555
H11_2 C32_2 1_555 1_555
H12_2 C33_2 1_555 1_555
F10_2 C46_2 1_555 1_555
C46_2 C37_2 1_555 1_555
F15_2 C46_2 1_555 1_555
O16 Mn13 1_555 1_555
C32_2 C37_2 1_555 1_555
Mn13 O18 1_555 1_555
Mn10 O8 1_555 1_555
Mn12 O10_2 1_555 1_555
O21 C3_2 1_555 1_555
O8 C5_2 1_555 1_555
O9_2 Mn10 1_555 1_555
O10_2 C5_2 1_555 1_555
O11_2 Mn13 1_555 1_555
O12_2 Mn13 1_555 1_555
O13_2 Mn10 1_555 1_555
O14_2 Mn12 1_555 1_555
O15_2 Mn12 1_555 1_555
C1_2 C3_2 1_555 1_555
F1_2 C47_2 1_555 1_555
O17_2 Mn13 1_555 1_555
F2_2 C41_2 1_555 1_555
F3_2 C41_2 1_555 1_555
C4_2 C1_2 1_555 1_555
C5_2 C10_2 1_555 1_555
C6_2 C12_2 1_555 1_555
C7_2 C1_2 1_555 1_555
H2_2 C7_2 1_555 1_555
F5_2 C41_2 1_555 1_555
C8_2 O7_2 1_555 1_555
C10_2 C31_2 1_555 1_555
C12_2 C4_2 1_555 1_555
C14_2 C21_2 1_555 1_555
C15_2 H5_2 1_555 1_555
C17_2 C24_2 1_555 1_555
C19_2 C20_2 1_555 1_555
C20_2 O9_2 1_555 1_555
C21_2 O13_2 1_555 1_555
F6_2 C47_2 1_555 1_555
C22_2 C8_2 1_555 1_555
C23_2 C6_2 1_555 1_555
C24_2 C15_2 1_555 1_555
C26_2 C6_2 1_555 1_555
N1_2 C40_2 1_555 1_555
C27_2 C17_2 1_555 1_555
H8_2 C27_2 1_555 1_555
C28_2 C17_2 1_555 1_555
C29_2 C19_2 1_555 1_555
H9_2 C29_2 1_555 1_555
C31_2 H10_2 1_555 1_555
C34_2 C22_2 1_555 1_555
H13_2 C34_2 1_555 1_555
C35_2 C14_2 1_555 1_555
H14_2 C35_2 1_555 1_555
C36_2 C23_2 1_555 1_555
H15_2 C36_2 1_555 1_555
F11_2 C48_2 1_555 1_555
C38_2 C28_2 1_555 1_555
C40_2 O15_2 1_555 1_555
H16_2 C40_2 1_555 1_555
C41_2 C24_2 1_555 1_555
C42_2 C28_2 1_555 1_555
F12_2 C48_2 1_555 1_555
C43_2 C19_2 1_555 1_555
H17_2 C43_2 1_555 1_555
F13_2 C48_2 1_555 1_555
C47_2 C26_2 1_555 1_555
C48_2 C39_2 1_555 1_555
F14_2 C47_2 1_555 1_555
C49_2 N1_2 1_555 1_555
H19_2 C49_2 1_555 1_555
H20_2 C49_2 1_555 1_555
H21_2 C49_2 1_555 1_555
C50_2 N1_2 1_555 1_555
H22_2 C50_2 1_555 1_555
H23_2 C50_2 1_555 1_555
H24_2 C50_2 1_555 1_555
F16_2 C51_2 1_555 1_555
F17_2 C51_2 1_555 1_555
C51_2 C42_2 1_555 1_555
F18_2 C51_2 1_555 1_555
O23 Mn12 1_555 1_555
O11_2 C8_2 1_555 1_555
O14_2 C20_2 1_555 1_555
C7_2 C26_2 1_555 1_555
C15_2 C22_2 1_555 1_555
C27_2 C34_2 1_555 1_555
C29_2 C38_2 1_555 1_555
C31_2 C36_2 1_555 1_555
C35_2 C39_2 1_555 1_555
C42_2 C43_2 1_555 1_555
C38_2 H25_2 1_555 1_555
O12_2 H27_2 1_555 1_555
O17_2 H28_2 1_555 1_555
O17_2 H29_2 1_555 1_555
O23 C9_2 1_555 1_555
O24 C9_2 1_555 1_555
C2_2 C9_2 1_555 1_555
F4_2 C45_2 1_555 1_555
C11_2 C2_2 1_555 1_555
H3_2 C11_2 1_555 1_555
C13_2 C18_2 1_555 1_555
C16_2 C2_2 1_555 1_555
H6_2 C16_2 1_555 1_555
C18_2 C11_2 1_555 1_555
C25_2 C13_2 1_555 1_555
H7_2 C25_2 1_555 1_555
F9_2 C45_2 1_555 1_555
C30_2 C13_2 1_555 1_555
C44_2 C30_2 1_555 1_555
C45_2 C18_2 1_555 1_555
C16_2 C25_2 1_555 1_555
O19 Mn7 1_555 1_555

#END
