
###############################################################################
#
# This file contains modified crystal structure data generated from the
# MOF subset of the Cambridge Structural Database (CSD) v543 
# hosted by the Cambridge Crystallographic Data Centre (CCDC).
#
# This work is licensed under the Creative Commons
# Attribution-NonCommercial-ShareAlike 4.0 International License.
# To view a copy of this license, visit
# http://creativecommons.org/licenses/by-nc-sa/4.0/
# or send a letter to
# Creative Commons, PO Box 1866, Mountain View, CA 94042, USA.
#
# CIF created using the CSD Python API on 29 September 2022
# The structure has been converted into the P1 space group
# The structure has a 3D framework
# The original CSD entry XEDLUN01 is in the monoclinic crystal system
# The framework has been calculated to contain at least 10.0% void space
# The void calculation uses a probe of radius 1.32A, grid spacing 0.4
#
###############################################################################

data_XEDLUN01
_chemical_formula_moiety         '(C96 H108 O18 Ti4)n'
_symmetry_cell_setting           triclinic
_symmetry_space_group_name_H-M   'P 1'
_symmetry_Int_Tables_number      1
_space_group_name_Hall           'P 1'
loop_
_symmetry_equiv_pos_site_id
_symmetry_equiv_pos_as_xyz
1 x,y,z
_cell_length_a                   10.137(2)
_cell_length_b                   15.988(3)
_cell_length_c                   15.745(3)
_cell_angle_alpha                90
_cell_angle_beta                 107.76(3)
_cell_angle_gamma                90
_cell_volume                     2430.19
loop_
_atom_site_label
_atom_site_type_symbol
_atom_site_fract_x
_atom_site_fract_y
_atom_site_fract_z
O8 O 0.0052 0.3691 0.0939
C47 C 0.0198 0.1018 0.6504
H49 H 0.0260 0.0449 0.6290
H50 H 0.0976 0.1350 0.6444
H51 H 0.0230 0.1000 0.7132
Ti5 Ti 0.1178 0.46192 0.0924
O2 O 0.9948 0.6309 0.9061
C23 C 0.9802 0.8982 0.3496
H22 H 0.9740 0.9551 0.3710
H23 H 0.9024 0.8650 0.3556
H24 H 0.9770 0.9000 0.2868
Ti3 Ti 0.8822 0.53808 0.9076
O3 O 0.1426 0.4970 0.2071
O4 O 0.2138 0.5752 0.0722
O5 O 0.2726 0.4087 0.1020
C13 C 0.2363 0.4960 0.2853
C14 C 0.3258 0.4278 0.3188
C15 C 0.4252 0.4283 0.4015
C16 C 0.4472 0.4988 0.4570
C17 C 0.3511 0.5614 0.4274
C18 C 0.2558 0.5630 0.3460
C19 C 0.3129 0.6261 0.1182
C20 C 0.4012 0.6572 0.0544
C21 C 0.2808 0.7026 0.1408
C22 C 0.3852 0.3586 0.0957
C23_2 C 0.5198 0.3982 0.1504
C24 C 0.3670 0.2715 0.1236
H1 H 0.1748 0.5954 0.0144
H10 H 0.3170 0.3792 0.2829
H11 H 0.4798 0.3798 0.4211
H12 H 0.3514 0.6064 0.4668
H13 H 0.1992 0.6110 0.3291
H14 H 0.3744 0.5966 0.1714
H15 H 0.4384 0.6091 0.0316
H16 H 0.4776 0.6926 0.0885
H17 H 0.3406 0.6889 0.0049
H18 H 0.2264 0.6976 0.1812
H19 H 0.2267 0.7324 0.0876
H20 H 0.3660 0.7328 0.1700
H21 H 0.3836 0.3575 0.0320
H22_2 H 0.5260 0.4551 0.1290
H23_2 H 0.5976 0.3650 0.1444
H24_2 H 0.5230 0.4000 0.2132
H25 H 0.2792 0.2490 0.0856
H26 H 0.3664 0.2714 0.1856
H27 H 0.4434 0.2368 0.1180
C25 C 0.5528 0.5012 0.5430
C26 C 0.5748 0.5717 0.5985
C27 C 0.6742 0.5722 0.6812
C28 C 0.7637 0.5040 0.7147
O6 O 0.8574 0.5030 0.7929
C29 C 0.7442 0.4370 0.6540
C30 C 0.6489 0.4386 0.5726
H28 H 0.6486 0.3936 0.5332
H29 H 0.8008 0.3890 0.6709
H30 H 0.6830 0.6208 0.7171
H31 H 0.5202 0.6202 0.5789
O9 O 0.7862 0.4248 0.9278
C43 C 0.6871 0.3739 0.8818
C44 C 0.5988 0.3428 0.9456
C45 C 0.7192 0.2974 0.8592
H40 H 0.8252 0.4046 0.9856
H41 H 0.6256 0.4034 0.8286
H42 H 0.5616 0.3909 0.9684
H43 H 0.5224 0.3074 0.9115
H44 H 0.6594 0.3111 0.9951
H45 H 0.7736 0.3024 0.8188
H46 H 0.7733 0.2676 0.9124
H47 H 0.6340 0.2672 0.8300
O10 O 0.7274 0.5913 0.8980
C46 C 0.6148 0.6414 0.9043
C47_2 C 0.4802 0.6018 0.8496
C48 C 0.6330 0.7285 0.8764
H48 H 0.6164 0.6425 0.9680
H49_2 H 0.4740 0.5449 0.8710
H50_2 H 0.4024 0.6350 0.8556
H51_2 H 0.4770 0.6000 0.7868
H52 H 0.7208 0.7510 0.9144
H53 H 0.6336 0.7286 0.8144
H54 H 0.5566 0.7632 0.8820
O4_2 O 0.2862 0.0752 0.4278
C17_2 C 0.1489 0.0614 0.0726
C18_2 C 0.2442 0.0630 0.1540
C19_2 C 0.1871 0.1261 0.3818
C20_2 C 0.0988 0.1572 0.4456
C21_2 C 0.2192 0.2026 0.3592
H1_2 H 0.3252 0.0954 0.4856
H2 H 0.2970 0.0135 0.6412
H12_2 H 0.1486 0.1064 0.0332
H13_2 H 0.3008 0.1110 0.1709
H14_2 H 0.1256 0.0966 0.3286
H15_2 H 0.0616 0.1091 0.4684
H16_2 H 0.0224 0.1926 0.4115
H17_2 H 0.1594 0.1889 0.4951
H18_2 H 0.2736 0.1976 0.3188
H19_2 H 0.2733 0.2324 0.4124
H20_2 H 0.1340 0.2328 0.3300
O7 O 0.5554 0.0394 0.4554
C31 C 0.6178 0.0862 0.4054
C32 C 0.6945 0.0456 0.3572
C33 C 0.7580 0.0930 0.3066
C34 C 0.7464 0.1802 0.3018
C35 C 0.8161 0.2286 0.2480
C36 C 0.8374 0.1968 0.1722
C37 C 0.9030 0.2440 0.1222
C38 C 0.9514 0.3226 0.1476
C39 C 0.9343 0.3548 0.2260
C40 C 0.8695 0.3082 0.2755
C41 C 0.6704 0.2189 0.3504
C42 C 0.6042 0.1710 0.4007
H33 H 0.8102 0.0655 0.2744
H34 H 0.8074 0.1416 0.1536
H35 H 0.9143 0.2209 0.0694
H36 H 0.9676 0.4092 0.2454
H37 H 0.8608 0.3306 0.3293
H38 H 0.6628 0.2782 0.3498
H39 H 0.5494 0.1984 0.4318
Ti2 Ti 0.6178 0.03808 0.5924
O10_2 O 0.7726 0.0913 0.6020
C46_2 C 0.8852 0.1414 0.5957
C48_2 C 0.8670 0.2285 0.6236
H48_2 H 0.8836 0.1425 0.5320
H52_2 H 0.7792 0.2510 0.5856
H53_2 H 0.8664 0.2286 0.6856
H54_2 H 0.9434 0.2632 0.6180
O12 O 0.5052 0.1309 0.5939
O13 O 0.6426 0.0030 0.7071
C25_2 C 0.9472 0.0012 0.9570
C26_2 C 0.9252 0.0717 0.9015
C27_2 C 0.8258 0.0722 0.8188
C28_2 C 0.7363 0.0040 0.7853
H30_2 H 0.8170 0.1208 0.7829
H31_2 H 0.9798 0.1202 0.9211
O1 O 0.0554 0.4606 0.9554
C1 C 0.1178 0.4138 0.9054
C2 C 0.1945 0.4544 0.8572
C3 C 0.2580 0.4070 0.8066
C4 C 0.2464 0.3198 0.8018
C5 C 0.3161 0.2714 0.7480
C6 C 0.3374 0.3032 0.6722
C7 C 0.4030 0.2560 0.6222
C8 C 0.4514 0.1774 0.6476
C9 C 0.4343 0.1452 0.7260
C10 C 0.3695 0.1918 0.7755
C11 C 0.1704 0.2811 0.8504
C12 C 0.1042 0.3290 0.9007
H2_2 H 0.2030 0.5135 0.8588
H3 H 0.3102 0.4345 0.7744
H4 H 0.3074 0.3584 0.6536
H5 H 0.4143 0.2791 0.5694
H6 H 0.4676 0.0908 0.7454
H7 H 0.3608 0.1694 0.8293
H8 H 0.1628 0.2218 0.8498
H9 H 0.0494 0.3016 0.9318
Ti1 Ti 0.3822 0.96192 0.4076
O1_2 O 0.4446 0.9606 0.5446
O3_2 O 0.3574 0.9970 0.2929
O5_2 O 0.2274 0.9087 0.3980
C1_2 C 0.3822 0.9138 0.5946
C2_2 C 0.3055 0.9544 0.6428
C3_2 C 0.2420 0.9070 0.6934
C4_2 C 0.2536 0.8198 0.6982
C5_2 C 0.1839 0.7714 0.7520
C6_2 C 0.1626 0.8032 0.8278
C7_2 C 0.0970 0.7560 0.8778
C8_2 C 0.0486 0.6774 0.8524
C9_2 C 0.0657 0.6452 0.7740
C10_2 C 0.1305 0.6918 0.7245
C11_2 C 0.3296 0.7811 0.6496
C12_2 C 0.3958 0.8290 0.5993
C13_2 C 0.2637 0.9960 0.2147
C14_2 C 0.1742 0.9278 0.1812
C15_2 C 0.0748 0.9283 0.0985
C16_2 C 0.0528 0.9988 0.0430
C22_2 C 0.1148 0.8586 0.4043
C24_2 C 0.1330 0.7715 0.3764
H3_2 H 0.1898 0.9345 0.7256
H4_2 H 0.1926 0.8584 0.8464
H5_2 H 0.0857 0.7791 0.9306
H6_2 H 0.0324 0.5908 0.7546
H7_2 H 0.1392 0.6694 0.6707
H8_2 H 0.3372 0.7218 0.6502
H9_2 H 0.4506 0.8016 0.5682
H10_2 H 0.1830 0.8792 0.2171
H11_2 H 0.0202 0.8798 0.0789
H21_2 H 0.1164 0.8575 0.4680
H25_2 H 0.2208 0.7490 0.4144
H26_2 H 0.1336 0.7714 0.3144
H27_2 H 0.0566 0.7368 0.3820
H32 H 0.7030 0.9865 0.3588
O9_2 O 0.7138 0.9248 0.5722
C43_2 C 0.8129 0.8739 0.6182
C44_2 C 0.9012 0.8428 0.5544
C45_2 C 0.7808 0.7974 0.6408
H40_2 H 0.6748 0.9046 0.5144
H41_2 H 0.8744 0.9034 0.6714
H42_2 H 0.9384 0.8909 0.5316
H43_2 H 0.9776 0.8074 0.5885
H44_2 H 0.8406 0.8111 0.5049
H45_2 H 0.7264 0.8024 0.6812
H46_2 H 0.7267 0.7676 0.5876
H47_2 H 0.8660 0.7672 0.6700
O11 O 0.4948 0.8691 0.4061
C29_2 C 0.7558 0.9370 0.8460
C30_2 C 0.8511 0.9386 0.9274
H28_2 H 0.8514 0.8936 0.9668
H29_2 H 0.6992 0.8890 0.8291
O7_2 O 0.9446 0.5394 0.0446
C31_2 C 0.8822 0.5862 0.0946
C32_2 C 0.8055 0.5456 0.1428
C33_2 C 0.7420 0.5930 0.1934
C34_2 C 0.7536 0.6802 0.1982
C35_2 C 0.6839 0.7286 0.2520
C36_2 C 0.6626 0.6968 0.3278
C37_2 C 0.5970 0.7440 0.3778
C38_2 C 0.5486 0.8226 0.3524
C39_2 C 0.5657 0.8548 0.2740
C40_2 C 0.6305 0.8082 0.2245
C41_2 C 0.8296 0.7189 0.1496
C42_2 C 0.8958 0.6710 0.0993
H32_2 H 0.7970 0.4865 0.1412
H33_2 H 0.6898 0.5655 0.2256
H34_2 H 0.6926 0.6416 0.3464
H35_2 H 0.5857 0.7209 0.4306
H36_2 H 0.5324 0.9092 0.2546
H37_2 H 0.6392 0.8306 0.1707
H38_2 H 0.8372 0.7782 0.1502
H39_2 H 0.9506 0.6984 0.0682
loop_
_geom_bond_atom_site_label_1
_geom_bond_atom_site_label_2
_geom_bond_site_symmetry_1
_geom_bond_site_symmetry_2
H49 C47 1_555 1_555
H50 C47 1_555 1_555
H51 C47 1_555 1_555
Ti5 O8 1_555 1_555
H22 C23 1_555 1_555
H23 C23 1_555 1_555
H24 C23 1_555 1_555
Ti3 O2 1_555 1_555
O3 Ti5 1_555 1_555
O4 Ti5 1_555 1_555
O5 Ti5 1_555 1_555
C13 O3 1_555 1_555
C14 C13 1_555 1_555
C15 C14 1_555 1_555
C16 C15 1_555 1_555
C17 C16 1_555 1_555
C18 C13 1_555 1_555
C19 O4 1_555 1_555
C20 C19 1_555 1_555
C21 C19 1_555 1_555
C22 O5 1_555 1_555
C23_2 C22 1_555 1_555
C24 C22 1_555 1_555
H1 O4 1_555 1_555
H10 C14 1_555 1_555
H11 C15 1_555 1_555
H12 C17 1_555 1_555
H13 C18 1_555 1_555
H14 C19 1_555 1_555
H15 C20 1_555 1_555
H16 C20 1_555 1_555
H17 C20 1_555 1_555
H18 C21 1_555 1_555
H19 C21 1_555 1_555
H20 C21 1_555 1_555
H21 C22 1_555 1_555
H22_2 C23_2 1_555 1_555
H23_2 C23_2 1_555 1_555
H24_2 C23_2 1_555 1_555
H25 C24 1_555 1_555
H26 C24 1_555 1_555
H27 C24 1_555 1_555
C25 C16 1_555 1_555
C26 C25 1_555 1_555
C27 C26 1_555 1_555
C28 C27 1_555 1_555
O6 C28 1_555 1_555
C29 C28 1_555 1_555
C30 C25 1_555 1_555
H28 C30 1_555 1_555
H29 C29 1_555 1_555
H30 C27 1_555 1_555
H31 C26 1_555 1_555
Ti3 O6 1_555 1_555
C17 C18 1_555 1_555
C29 C30 1_555 1_555
O9 Ti3 1_555 1_555
C43 O9 1_555 1_555
C44 C43 1_555 1_555
C45 C43 1_555 1_555
H40 O9 1_555 1_555
H41 C43 1_555 1_555
H42 C44 1_555 1_555
H43 C44 1_555 1_555
H44 C44 1_555 1_555
H45 C45 1_555 1_555
H46 C45 1_555 1_555
H47 C45 1_555 1_555
O10 Ti3 1_555 1_555
C46 O10 1_555 1_555
C47_2 C46 1_555 1_555
C48 C46 1_555 1_555
H48 C46 1_555 1_555
H49_2 C47_2 1_555 1_555
H50_2 C47_2 1_555 1_555
H51_2 C47_2 1_555 1_555
H52 C48 1_555 1_555
H53 C48 1_555 1_555
H54 C48 1_555 1_555
C19_2 O4_2 1_555 1_555
C20_2 C19_2 1_555 1_555
C21_2 C19_2 1_555 1_555
H1_2 O4_2 1_555 1_555
H12_2 C17_2 1_555 1_555
H13_2 C18_2 1_555 1_555
H14_2 C19_2 1_555 1_555
H15_2 C20_2 1_555 1_555
H16_2 C20_2 1_555 1_555
H17_2 C20_2 1_555 1_555
H18_2 C21_2 1_555 1_555
H19_2 C21_2 1_555 1_555
H20_2 C21_2 1_555 1_555
C31 O7 1_555 1_555
C32 C31 1_555 1_555
C33 C32 1_555 1_555
C34 C33 1_555 1_555
C35 C34 1_555 1_555
C36 C35 1_555 1_555
C37 C36 1_555 1_555
C38 C37 1_555 1_555
C39 C38 1_555 1_555
C40 C35 1_555 1_555
C41 C34 1_555 1_555
C42 C31 1_555 1_555
H33 C33 1_555 1_555
H34 C36 1_555 1_555
H35 C37 1_555 1_555
H36 C39 1_555 1_555
H37 C40 1_555 1_555
H38 C41 1_555 1_555
H39 C42 1_555 1_555
O10_2 Ti2 1_555 1_555
C46_2 O10_2 1_555 1_555
C48_2 C46_2 1_555 1_555
H48_2 C46_2 1_555 1_555
H52_2 C48_2 1_555 1_555
H53_2 C48_2 1_555 1_555
H54_2 C48_2 1_555 1_555
O12 Ti2 1_555 1_555
O13 Ti2 1_555 1_555
C17_2 C18_2 1_555 1_555
O7 Ti2 1_555 1_555
C39 C40 1_555 1_555
C41 C42 1_555 1_555
C26_2 C25_2 1_555 1_555
C27_2 C26_2 1_555 1_555
C28_2 C27_2 1_555 1_555
O13 C28_2 1_555 1_555
H30_2 C27_2 1_555 1_555
H31_2 C26_2 1_555 1_555
O1 C1 1_555 1_555
O12 C8 1_555 1_555
C1 C2 1_555 1_555
C2 C3 1_555 1_555
C3 C4 1_555 1_555
C4 C5 1_555 1_555
C5 C6 1_555 1_555
C6 C7 1_555 1_555
C7 C8 1_555 1_555
C8 C9 1_555 1_555
C9 C10 1_555 1_555
C10 C5 1_555 1_555
C11 C4 1_555 1_555
C12 C1 1_555 1_555
H2_2 C2 1_555 1_555
H3 C3 1_555 1_555
H4 C6 1_555 1_555
H5 C7 1_555 1_555
H6 C9 1_555 1_555
H7 C10 1_555 1_555
H8 C11 1_555 1_555
H9 C12 1_555 1_555
C11 C12 1_555 1_555
Ti1 O1_2 1_555 1_555
O1_2 C1_2 1_555 1_555
O3_2 Ti1 1_555 1_555
O5_2 Ti1 1_555 1_555
C1_2 C2_2 1_555 1_555
C2_2 C3_2 1_555 1_555
C3_2 C4_2 1_555 1_555
C4_2 C5_2 1_555 1_555
C5_2 C6_2 1_555 1_555
C6_2 C7_2 1_555 1_555
C7_2 C8_2 1_555 1_555
C8_2 C9_2 1_555 1_555
C9_2 C10_2 1_555 1_555
C10_2 C5_2 1_555 1_555
C11_2 C4_2 1_555 1_555
C12_2 C1_2 1_555 1_555
C13_2 O3_2 1_555 1_555
C14_2 C13_2 1_555 1_555
C15_2 C14_2 1_555 1_555
C16_2 C15_2 1_555 1_555
C22_2 O5_2 1_555 1_555
C24_2 C22_2 1_555 1_555
H3_2 C3_2 1_555 1_555
H4_2 C6_2 1_555 1_555
H5_2 C7_2 1_555 1_555
H6_2 C9_2 1_555 1_555
H7_2 C10_2 1_555 1_555
H8_2 C11_2 1_555 1_555
H9_2 C12_2 1_555 1_555
H10_2 C14_2 1_555 1_555
H11_2 C15_2 1_555 1_555
H21_2 C22_2 1_555 1_555
H25_2 C24_2 1_555 1_555
H26_2 C24_2 1_555 1_555
H27_2 C24_2 1_555 1_555
C43_2 O9_2 1_555 1_555
C44_2 C43_2 1_555 1_555
C45_2 C43_2 1_555 1_555
H40_2 O9_2 1_555 1_555
H41_2 C43_2 1_555 1_555
H42_2 C44_2 1_555 1_555
H43_2 C44_2 1_555 1_555
H44_2 C44_2 1_555 1_555
H45_2 C45_2 1_555 1_555
H46_2 C45_2 1_555 1_555
H47_2 C45_2 1_555 1_555
O11 Ti1 1_555 1_555
C11_2 C12_2 1_555 1_555
H28_2 C30_2 1_555 1_555
H29_2 C29_2 1_555 1_555
C29_2 C30_2 1_555 1_555
O11 C38_2 1_555 1_555
C31_2 O7_2 1_555 1_555
C32_2 C31_2 1_555 1_555
C33_2 C32_2 1_555 1_555
C34_2 C33_2 1_555 1_555
C35_2 C34_2 1_555 1_555
C36_2 C35_2 1_555 1_555
C37_2 C36_2 1_555 1_555
C38_2 C37_2 1_555 1_555
C39_2 C38_2 1_555 1_555
C40_2 C35_2 1_555 1_555
C41_2 C34_2 1_555 1_555
C42_2 C31_2 1_555 1_555
H32_2 C32_2 1_555 1_555
H33_2 C33_2 1_555 1_555
H34_2 C36_2 1_555 1_555
H35_2 C37_2 1_555 1_555
H36_2 C39_2 1_555 1_555
H37_2 C40_2 1_555 1_555
H38_2 C41_2 1_555 1_555
H39_2 C42_2 1_555 1_555
C39_2 C40_2 1_555 1_555
C41_2 C42_2 1_555 1_555

#END
