
###############################################################################
#
# This file contains modified crystal structure data generated from the
# MOF subset of the Cambridge Structural Database (CSD) v543 
# hosted by the Cambridge Crystallographic Data Centre (CCDC).
#
# This work is licensed under the Creative Commons
# Attribution-NonCommercial-ShareAlike 4.0 International License.
# To view a copy of this license, visit
# http://creativecommons.org/licenses/by-nc-sa/4.0/
# or send a letter to
# Creative Commons, PO Box 1866, Mountain View, CA 94042, USA.
#
# CIF created using the CSD Python API on 29 September 2022
# The structure has been converted into the P1 space group
# The structure has a 3D framework
# The original CSD entry XEDMEB is in the monoclinic crystal system
# The framework has been calculated to contain at least 10.0% void space
# The void calculation uses a probe of radius 1.32A, grid spacing 0.4
# H atom positions have been added when not included in the experimental data
# Generated hydrogen atom positions removed from atoms on special positions
#
###############################################################################

data_XEDMEB
_chemical_formula_moiety         '(C94 H98 Cu16 N18 O40)n'
_symmetry_cell_setting           triclinic
_symmetry_space_group_name_H-M   'P 1'
_symmetry_Int_Tables_number      1
_space_group_name_Hall           'P 1'
loop_
_symmetry_equiv_pos_site_id
_symmetry_equiv_pos_as_xyz
1 x,y,z
_cell_length_a                   14.9611(7)
_cell_length_b                   18.8833(9)
_cell_length_c                   15.2457(8)
_cell_angle_alpha                90
_cell_angle_beta                 102.2435(18)
_cell_angle_gamma                90
_cell_volume                     4209.17
loop_
_atom_site_label
_atom_site_type_symbol
_atom_site_fract_x
_atom_site_fract_y
_atom_site_fract_z
Cu16 Cu -0.0000 0.0000 -0.0000
N4 N 0.0818(6) 0.0028(4) 0.9149(5)
C5 C 0.0601(8) 0.0109(5) 0.6670(7)
C6 C 0.1986(6) 0.0067(4) 0.7954(6)
H3 H 0.2373 0.0078 0.7551
O7 O 0.3851(4) 0.0268(3) 0.8788(4)
C7 C 0.2333(6) 0.0022(4) 0.8842(6)
C9 C 0.0502(6) 0.0080(5) 0.8281(7)
C21 C 0.1052(6) 0.0097(4) 0.7647(6)
H38 H 0.2635 0.0055 0.5458
H44 H 0.3913 0.0254 0.6306
Cu13 Cu 0.51732(8) 0.03344(6) 0.92730(8)
O29 O 0.1172(4) 0.0630(3) 0.4662(4)
Cu16_2 Cu -0.0000 -0.0000 1.0000
O8 O 0.3580(4) 0.9729(3) 0.0017(5)
H4 H 0.1983 0.9934 0.0016
Cu4 Cu -0.0000 0.5000 -0.0000
O12 O 0.0119(8) 0.6186(6) 0.0087(8)
O18 O 0.0119(8) 0.8814(6) 0.0087(8)
Cu10 Cu 0.48268(8) 0.96656(6) 0.07270(8)
Cu16_3 Cu -0.0000 1.0000 -0.0000
O36 O 0.0987(7) 0.4384(5) 0.0947(7)
O3 O 0.1081(4) 0.9836(3) 0.6170(4)
O5 O 0.0069(5) 0.8823(3) 0.5054(4)
C8 C 0.1737(7) 0.9988(4) 0.9407(6)
C10 C 0.3331(6) 0.9996(5) 0.9261(8)
Cu4_2 Cu -0.0000 0.5000 1.0000
O14 O 0.0069(5) 0.6177(3) 0.5054(4)
Cu6 Cu 0.07495(8) 0.96682(6) 0.48482(7)
O21 O 0.2066(5) 0.9190(3) 0.4957(5)
N8 N 0.3443(9) 0.9299(8) 0.5948(8)
O23 O 0.0160(5) 0.9640(3) 0.3569(4)
H37 H 0.0128 0.9893 0.1926
C44 C 0.2708(10) 0.9566(7) 0.5456(10)
C45 C 0.3627(11) 0.8503(10) 0.5940(12)
H39 H 0.3969 0.8359 0.6518
H40 H 0.3056 0.8252 0.5806
H41 H 0.3971 0.8398 0.5491
C46 C 0.4112(11) 0.9775(10) 0.6435(12)
H42 H 0.4189 0.9687 0.7067
H43 H 0.4685 0.9702 0.6258
Cu7 Cu 0.07495(8) 0.53318(6) 0.48482(7)
N11 N 0.0818(6) 0.4972(4) 0.9149(5)
Cu16_4 Cu -0.0000 1.0000 1.0000
H14 H 0.2362 0.0028 0.2739
O34 O 0.4695(4) 0.0629(3) 0.1170(4)
Cu16_5 Cu 1.0000 0.0000 -0.0000
Cu1 Cu 0.92505(8) 0.03318(6) 0.51518(7)
O1 O 0.7934(5) 0.0810(3) 0.5043(5)
N2 N 0.6557(9) 0.0701(8) 0.4052(8)
O4 O 0.9840(5) 0.0360(3) 0.6431(4)
H5 H 0.9872 0.0107 0.8074
C18 C 0.7292(10) 0.0434(7) 0.4544(10)
C19 C 0.6373(11) 0.1497(10) 0.4060(12)
H17 H 0.6031 0.1641 0.3482
H18 H 0.6944 0.1748 0.4194
H19 H 0.6029 0.1602 0.4509
C20 C 0.5888(11) 0.0225(10) 0.3565(12)
H20 H 0.5811 0.0313 0.2933
H21 H 0.5315 0.0298 0.3742
N7 N 0.6695(9) 0.0705(7) 0.7339(10)
O20 O 0.5599(6) 0.0792(4) 0.8148(5)
C35 C 0.6339(11) 0.0554(7) 0.8006(9)
H28 H 0.6657 0.0238 0.8427
C36 C 0.6114(15) 0.1100(11) 0.6594(15)
H29 H 0.6453 0.1493 0.6431
H30 H 0.5932 0.0792 0.6087
H31 H 0.5581 0.1273 0.6782
C37 C 0.7561(11) 0.0469(9) 0.7140(14)
H32 H 0.8056 0.0725 0.7509
H34 H 0.7557 0.0557 0.6519
O22 O 0.8919(4) 0.0164(3) 0.3830(4)
C41 C 0.8263(7) 0.0012(4) 0.0593(6)
C43 C 0.6669(6) 0.0004(5) 0.0739(8)
O27 O 0.4973(4) 0.1189(3) 0.9957(4)
O28 O 0.9931(5) 0.1177(3) 0.4946(4)
O33 O 0.6420(4) 0.0271(3) 0.9983(5)
Cu16_6 Cu 1.0000 -0.0000 1.0000
H36 H 0.8017 0.0066 0.9984
O2 O 0.5027(4) 0.8811(3) 0.0043(4)
N5 N 0.3305(9) 0.9295(7) 0.2661(10)
O9 O 0.4401(6) 0.9208(4) 0.1852(5)
C15 C 0.3661(11) 0.9446(7) 0.1994(9)
H9 H 0.3343 0.9762 0.1573
C16 C 0.3886(15) 0.8900(11) 0.3406(15)
H10 H 0.3547 0.8507 0.3569
H11 H 0.4068 0.9208 0.3913
H12 H 0.4419 0.8727 0.3218
C17 C 0.2439(11) 0.9531(9) 0.2860(14)
H13 H 0.1944 0.9275 0.2491
H15 H 0.2443 0.9443 0.3481
Cu4_3 Cu 1.0000 0.5000 -0.0000
O16 O 0.5027(4) 0.6189(3) 0.0043(4)
Cu14 Cu 0.48268(8) 0.53344(6) 0.07270(8)
N10 N 0.9182(6) 0.5028(4) 0.0851(5)
O31 O 0.6149(4) 0.9732(3) 0.1212(4)
Cu16_7 Cu 1.0000 1.0000 -0.0000
N1 N 0.7772(7) 0.7500 0.6045(6)
C1 C 0.9323(9) 0.8835(5) 0.5266(6)
C2 C 0.8128(6) 0.8080(5) 0.5852(6)
H1 H 0.7868 0.8501 0.5993
N3 N 0.5981(7) 0.7500 0.7746(7)
C3 C 0.8882(7) 0.8127(5) 0.5444(6)
Cu3 Cu 0.68013(15) 0.7500 0.68297(14)
C4 C 0.9278(8) 0.7500 0.5249(7)
H2 H 0.9791 0.7500 0.4996
O6 O 0.8828(4) 0.9370(3) 0.5338(4)
O10 O 0.5305(4) 0.9371(3) 0.8830(4)
O11 O 0.6392(8) 0.8597(5) 0.6395(9)
C11 C 0.5764(6) 0.8090(5) 0.8126(6)
H7 H 0.5870 0.8516 0.7859
C12 C 0.5396(6) 0.8129(4) 0.8878(6)
C13 C 0.5216(8) 0.7500 0.9280(8)
H8 H 0.4982 0.7500 0.9799
C14 C 0.5216(6) 0.8831(6) 0.9291(8)
H16 H 0.7365 0.9945 0.4542
H22 H 0.6087 0.9746 0.3694
Cu4_4 Cu 1.0000 0.5000 1.0000
N6 N 0.7854(9) 0.7500 0.7882(8)
O13 O 0.9013(7) 0.5616(5) 0.9053(7)
C22 C 0.9437(13) 0.6144(8) 0.9442(13)
C23 C 0.8955(9) 0.6861(6) 0.8979(9)
C24 C 0.9373(13) 0.7500 0.9396(13)
H23 H 0.9865 0.7500 0.9885
C25 C 0.8264(9) 0.6873(5) 0.8264(9)
H24 H 0.8043 0.6444 0.8006
C26 C 0.9323(9) 0.6165(5) 0.5266(6)
C27 C 0.8128(6) 0.6920(5) 0.5852(6)
H25 H 0.7868 0.6499 0.5993
C28 C 0.8882(7) 0.6873(5) 0.5444(6)
O15 O 0.8828(4) 0.5630(3) 0.5338(4)
O17 O 0.5305(4) 0.5629(3) 0.8830(4)
C29 C 0.5764(6) 0.6910(5) 0.8126(6)
H26 H 0.5870 0.6484 0.7859
C30 C 0.5396(6) 0.6871(4) 0.8878(6)
C31 C 0.5216(6) 0.6169(6) 0.9291(8)
O19 O 0.9013(7) 0.9384(5) 0.9053(7)
C32 C 0.9437(13) 0.8856(8) 0.9442(13)
C33 C 0.8955(9) 0.8139(6) 0.8979(9)
C34 C 0.8264(9) 0.8127(5) 0.8264(9)
H27 H 0.8043 0.8556 0.8006
H33 H 0.7638 0.9972 0.7261
N9 N 0.9182(6) 0.9972(4) 0.0851(5)
C38 C 0.9399(8) 0.9891(5) 0.3330(7)
C39 C 0.8014(6) 0.9933(4) 0.2046(6)
H35 H 0.7627 0.9922 0.2449
C40 C 0.7667(6) 0.9978(4) 0.1158(6)
C42 C 0.9498(6) 0.9920(5) 0.1719(7)
C47 C 0.8948(6) 0.9903(4) 0.2353(6)
O26 O 0.6392(8) 0.6403(5) 0.6395(9)
Cu8 Cu 0.92505(8) 0.46682(6) 0.51518(7)
Cu11 Cu 0.51732(8) 0.46656(6) 0.92730(8)
Cu16_8 Cu 1.0000 1.0000 1.0000
O35 O 0.9881(8) 0.3814(6) 0.9913(8)
O25 O 0.3580(4) 0.5271(3) 0.0017(5)
H36_2 H 0.1983 0.5066 0.0016
O1_2 O 0.2066(5) 0.5810(3) 0.4957(5)
N1_2 N 0.2228(7) 0.2500 0.3955(6)
C1_2 C 0.0677(9) 0.3835(5) 0.4734(6)
N2_2 N 0.3443(9) 0.5701(8) 0.5948(8)
C2_2 C 0.1872(6) 0.3080(5) 0.4148(6)
H1_2 H 0.2132 0.3501 0.4007
N3_2 N 0.4019(7) 0.2500 0.2254(7)
C3_2 C 0.1118(7) 0.3127(5) 0.4556(6)
Cu3_2 Cu 0.31987(15) 0.2500 0.31703(14)
O4_2 O 0.0160(5) 0.5360(3) 0.3569(4)
C4_2 C 0.0722(8) 0.2500 0.4751(7)
H2_2 H 0.0209 0.2500 0.5004
O6_2 O 0.1172(4) 0.4370(3) 0.4662(4)
O10_2 O 0.4695(4) 0.4371(3) 0.1170(4)
H5_2 H 0.0128 0.5107 0.1926
O11_2 O 0.3608(8) 0.3597(5) 0.3605(9)
C11_2 C 0.4236(6) 0.3090(5) 0.1874(6)
H7_2 H 0.4130 0.3516 0.2141
C12_2 C 0.4604(6) 0.3129(4) 0.1122(6)
C13_2 C 0.4784(8) 0.2500 0.0720(8)
H8_2 H 0.5018 0.2500 0.0201
C14_2 C 0.4784(6) 0.3831(6) 0.0709(8)
C18_2 C 0.2708(10) 0.5434(7) 0.5456(10)
H16_2 H 0.2635 0.4945 0.5458
C19_2 C 0.3627(11) 0.6497(10) 0.5940(12)
H17_2 H 0.3969 0.6641 0.6518
H18_2 H 0.3056 0.6748 0.5806
H19_2 H 0.3971 0.6602 0.5491
C20_2 C 0.4112(11) 0.5225(10) 0.6435(12)
H20_2 H 0.4189 0.5313 0.7067
H21_2 H 0.4685 0.5298 0.6258
H22_2 H 0.3913 0.4746 0.6306
N6_2 N 0.2146(9) 0.2500 0.2118(8)
O13_2 O 0.0987(7) 0.0616(5) 0.0947(7)
C22_2 C 0.0563(13) 0.1144(8) 0.0558(13)
C23_2 C 0.1045(9) 0.1861(6) 0.1021(9)
C24_2 C 0.0627(13) 0.2500 0.0604(13)
H23_2 H 0.0135 0.2500 0.0115
C25_2 C 0.1736(9) 0.1873(5) 0.1736(9)
H24_2 H 0.1957 0.1444 0.1994
C26_2 C 0.0677(9) 0.1165(5) 0.4734(6)
C27_2 C 0.1872(6) 0.1920(5) 0.4148(6)
H25_2 H 0.2132 0.1499 0.4007
C28_2 C 0.1118(7) 0.1873(5) 0.4556(6)
C29_2 C 0.4236(6) 0.1910(5) 0.1874(6)
H26_2 H 0.4130 0.1484 0.2141
C30_2 C 0.4604(6) 0.1871(4) 0.1122(6)
C31_2 C 0.4784(6) 0.1169(6) 0.0709(8)
C32_2 C 0.0563(13) 0.3856(8) 0.0558(13)
C33_2 C 0.1045(9) 0.3139(6) 0.1021(9)
C34_2 C 0.1736(9) 0.3127(5) 0.1736(9)
H27_2 H 0.1957 0.3556 0.1994
N7_2 N 0.3305(9) 0.5705(7) 0.2661(10)
O20_2 O 0.4401(6) 0.5792(4) 0.1852(5)
C35_2 C 0.3661(11) 0.5554(7) 0.1994(9)
H28_2 H 0.3343 0.5238 0.1573
C36_2 C 0.3886(15) 0.6100(11) 0.3406(15)
H29_2 H 0.3547 0.6493 0.3569
H30_2 H 0.4068 0.5792 0.3913
H31_2 H 0.4419 0.6273 0.3218
C37_2 C 0.2439(11) 0.5469(9) 0.2860(14)
H32_2 H 0.1944 0.5725 0.2491
H33_2 H 0.2362 0.4972 0.2739
H34_2 H 0.2443 0.5557 0.3481
O22_2 O 0.1081(4) 0.5164(3) 0.6170(4)
C38_2 C 0.0601(8) 0.4891(5) 0.6670(7)
C39_2 C 0.1986(6) 0.4933(4) 0.7954(6)
H35_2 H 0.2373 0.4922 0.7551
O24 O 0.3851(4) 0.4732(3) 0.8788(4)
C40_2 C 0.2333(6) 0.4978(4) 0.8842(6)
C41_2 C 0.1737(7) 0.5012(4) 0.9407(6)
C42_2 C 0.0502(6) 0.4920(5) 0.8281(7)
C43_2 C 0.3331(6) 0.5004(5) 0.9261(8)
C47_2 C 0.1052(6) 0.4903(4) 0.7647(6)
O26_2 O 0.3608(8) 0.1403(5) 0.3605(9)
O30 O 0.6149(4) 0.5268(3) 0.1212(4)
O2_2 O 0.4973(4) 0.3811(3) 0.9957(4)
N5_2 N 0.6695(9) 0.4295(7) 0.7339(10)
O9_2 O 0.5599(6) 0.4208(4) 0.8148(5)
C15_2 C 0.6339(11) 0.4446(7) 0.8006(9)
H9_2 H 0.6657 0.4762 0.8427
C16_2 C 0.6114(15) 0.3900(11) 0.6594(15)
H10_2 H 0.6453 0.3507 0.6431
H11_2 H 0.5932 0.4208 0.6087
H12_2 H 0.5581 0.3727 0.6782
C17_2 C 0.7561(11) 0.4531(9) 0.7140(14)
H13_2 H 0.8056 0.4275 0.7509
H14_2 H 0.7638 0.5028 0.7261
H15_2 H 0.7557 0.4443 0.6519
O32 O 0.6420(4) 0.4729(3) 0.9983(5)
O3_2 O 0.8919(4) 0.4836(3) 0.3830(4)
O5_2 O 0.9931(5) 0.3823(3) 0.4946(4)
C5_2 C 0.9399(8) 0.5109(5) 0.3330(7)
C6_2 C 0.8014(6) 0.5067(4) 0.2046(6)
H3_2 H 0.7627 0.5078 0.2449
C7_2 C 0.7667(6) 0.5022(4) 0.1158(6)
C8_2 C 0.8263(7) 0.4988(4) 0.0593(6)
C9_2 C 0.9498(6) 0.5080(5) 0.1719(7)
C10_2 C 0.6669(6) 0.4996(5) 0.0739(8)
C21_2 C 0.8948(6) 0.5097(4) 0.2353(6)
O21_2 O 0.7934(5) 0.4190(3) 0.5043(5)
N8_2 N 0.6557(9) 0.4299(8) 0.4052(8)
O23_2 O 0.9840(5) 0.4640(3) 0.6431(4)
H37_2 H 0.9872 0.4893 0.8074
C44_2 C 0.7292(10) 0.4566(7) 0.4544(10)
H38_2 H 0.7365 0.5055 0.4542
C45_2 C 0.6373(11) 0.3503(10) 0.4060(12)
H39_2 H 0.6031 0.3359 0.3482
H40_2 H 0.6944 0.3252 0.4194
H41_2 H 0.6029 0.3398 0.4509
C46_2 C 0.5888(11) 0.4775(10) 0.3565(12)
H42_2 H 0.5811 0.4687 0.2933
H43_2 H 0.5315 0.4702 0.3742
H44_2 H 0.6087 0.5254 0.3694
H4_2 H 0.8017 0.4934 0.9984
O12_2 O 0.9881(8) 0.1186(6) 0.9913(8)
loop_
_geom_bond_atom_site_label_1
_geom_bond_atom_site_label_2
_geom_bond_site_symmetry_1
_geom_bond_site_symmetry_2
C6 H3 1_555 1_555
C7 C6 1_555 1_555
C9 N4 1_555 1_555
C21 C5 1_555 1_555
Cu13 O7 1_555 1_555
Cu16_2 N4 1_555 1_555
C6 C21 1_555 1_555
C9 C21 1_555 1_555
Cu4 O12 1_555 1_555
Cu10 O8 1_555 1_555
O36 Cu4 1_555 1_555
O18 Cu16_3 1_555 1_555
Cu6 O3 1_555 1_555
O21 Cu6 1_555 1_555
N8 C44 1_555 1_555
O23 Cu6 1_555 1_555
C44 O21 1_555 1_555
C45 N8 1_555 1_555
H39 C45 1_555 1_555
H40 C45 1_555 1_555
H41 C45 1_555 1_555
C46 N8 1_555 1_555
H42 C46 1_555 1_555
H43 C46 1_555 1_555
Cu7 O14 1_555 1_555
N11 Cu4_2 1_555 1_555
O5 Cu6 1_555 1_555
Cu1 O1 1_555 1_555
O1 C18 1_555 1_555
N2 C18 1_555 1_555
O4 Cu1 1_555 1_555
C19 N2 1_555 1_555
H17 C19 1_555 1_555
H18 C19 1_555 1_555
H19 C19 1_555 1_555
C20 N2 1_555 1_555
H20 C20 1_555 1_555
H21 C20 1_555 1_555
N7 C35 1_555 1_555
O20 Cu13 1_555 1_555
C35 O20 1_555 1_555
H28 C35 1_555 1_555
C36 N7 1_555 1_555
H29 C36 1_555 1_555
H30 C36 1_555 1_555
H31 C36 1_555 1_555
C37 N7 1_555 1_555
H32 C37 1_555 1_555
H34 C37 1_555 1_555
O22 Cu1 1_555 1_555
O27 Cu13 1_555 1_555
O28 Cu1 1_555 1_555
O33 Cu13 1_555 1_555
Cu10 O2 1_555 1_555
N5 C15 1_555 1_555
O9 Cu10 1_555 1_555
C15 O9 1_555 1_555
H9 C15 1_555 1_555
C16 N5 1_555 1_555
H10 C16 1_555 1_555
H11 C16 1_555 1_555
H12 C16 1_555 1_555
C17 N5 1_555 1_555
H13 C17 1_555 1_555
H15 C17 1_555 1_555
Cu14 O16 1_555 1_555
N10 Cu4_3 1_555 1_555
O31 Cu10 1_555 1_555
N1 C2 1_555 1_555
C1 C3 1_555 1_555
C2 H1 1_555 1_555
N3 Cu3 1_555 1_555
C3 C2 1_555 1_555
Cu3 N1 1_555 1_555
C4 C3 1_555 1_555
H2 C4 1_555 1_555
O10 C14 1_555 1_555
O11 Cu3 1_555 1_555
C11 N3 1_555 1_555
H7 C11 1_555 1_555
C12 C11 1_555 1_555
C13 C12 1_555 1_555
H8 C13 1_555 1_555
C14 C12 1_555 1_555
N6 Cu3 1_555 1_555
O13 Cu4_4 1_555 1_555
C22 O13 1_555 1_555
C23 C22 1_555 1_555
C24 C23 1_555 1_555
H23 C24 1_555 1_555
C25 N6 1_555 1_555
H24 C25 1_555 1_555
C26 C28 1_555 1_555
C27 N1 1_555 1_555
H25 C27 1_555 1_555
C28 C4 1_555 1_555
O15 C26 1_555 1_555
O17 C31 1_555 1_555
C29 N3 1_555 1_555
H26 C29 1_555 1_555
C30 C13 1_555 1_555
C31 C30 1_555 1_555
O19 C32 1_555 1_555
C32 C33 1_555 1_555
C33 C24 1_555 1_555
C34 N6 1_555 1_555
H27 C34 1_555 1_555
C39 H35 1_555 1_555
C40 C39 1_555 1_555
C42 N9 1_555 1_555
C47 C38 1_555 1_555
O26 Cu3 1_555 1_555
Cu8 O15 1_555 1_555
Cu11 O17 1_555 1_555
Cu16_7 N9 1_555 1_555
O35 Cu4_4 1_555 1_555
C1 O6 1_555 1_555
C23 C25 1_555 1_555
C27 C28 1_555 1_555
C29 C30 1_555 1_555
O19 Cu16_8 1_555 1_555
C33 C34 1_555 1_555
C39 C47 1_555 1_555
C42 C47 1_555 1_555
Cu14 O25 1_555 1_555
Cu7 O1_2 1_555 1_555
O1_2 C18_2 1_555 1_555
N1_2 C2_2 1_555 1_555
C1_2 C3_2 1_555 1_555
N2_2 C18_2 1_555 1_555
C2_2 H1_2 1_555 1_555
N3_2 Cu3_2 1_555 1_555
C3_2 C2_2 1_555 1_555
Cu3_2 N1_2 1_555 1_555
O4_2 Cu7 1_555 1_555
C4_2 C3_2 1_555 1_555
H2_2 C4_2 1_555 1_555
O6_2 Cu7 1_555 1_555
O10_2 C14_2 1_555 1_555
O11_2 Cu3_2 1_555 1_555
C11_2 N3_2 1_555 1_555
H7_2 C11_2 1_555 1_555
C12_2 C11_2 1_555 1_555
C13_2 C12_2 1_555 1_555
H8_2 C13_2 1_555 1_555
C14_2 C12_2 1_555 1_555
C18_2 H16_2 1_555 1_555
C19_2 N2_2 1_555 1_555
H17_2 C19_2 1_555 1_555
H18_2 C19_2 1_555 1_555
H19_2 C19_2 1_555 1_555
C20_2 N2_2 1_555 1_555
H20_2 C20_2 1_555 1_555
H21_2 C20_2 1_555 1_555
H22_2 C20_2 1_555 1_555
N6_2 Cu3_2 1_555 1_555
O13_2 Cu16 1_555 1_555
C22_2 O13_2 1_555 1_555
C23_2 C22_2 1_555 1_555
C24_2 C23_2 1_555 1_555
H23_2 C24_2 1_555 1_555
C25_2 N6_2 1_555 1_555
H24_2 C25_2 1_555 1_555
C26_2 C28_2 1_555 1_555
C27_2 N1_2 1_555 1_555
H25_2 C27_2 1_555 1_555
C28_2 C4_2 1_555 1_555
O29 C26_2 1_555 1_555
O34 C31_2 1_555 1_555
C29_2 N3_2 1_555 1_555
H26_2 C29_2 1_555 1_555
C30_2 C13_2 1_555 1_555
C31_2 C30_2 1_555 1_555
O36 C32_2 1_555 1_555
C32_2 C33_2 1_555 1_555
C33_2 C24_2 1_555 1_555
C34_2 N6_2 1_555 1_555
H27_2 C34_2 1_555 1_555
Cu14 O10_2 1_555 1_555
N7_2 C35_2 1_555 1_555
O20_2 Cu14 1_555 1_555
C35_2 O20_2 1_555 1_555
H28_2 C35_2 1_555 1_555
C36_2 N7_2 1_555 1_555
H29_2 C36_2 1_555 1_555
H30_2 C36_2 1_555 1_555
H31_2 C36_2 1_555 1_555
C37_2 N7_2 1_555 1_555
H32_2 C37_2 1_555 1_555
H33_2 C37_2 1_555 1_555
H34_2 C37_2 1_555 1_555
O22_2 Cu7 1_555 1_555
N11 C41_2 1_555 1_555
C38_2 O22_2 1_555 1_555
C39_2 H35_2 1_555 1_555
O24 C43_2 1_555 1_555
C40_2 C39_2 1_555 1_555
C41_2 C40_2 1_555 1_555
C42_2 N11 1_555 1_555
C43_2 C40_2 1_555 1_555
C47_2 C38_2 1_555 1_555
O26_2 Cu3_2 1_555 1_555
Cu11 O24 1_555 1_555
O30 Cu14 1_555 1_555
C1_2 O6_2 1_555 1_555
C23_2 C25_2 1_555 1_555
C27_2 C28_2 1_555 1_555
C29_2 C30_2 1_555 1_555
C33_2 C34_2 1_555 1_555
C39_2 C47_2 1_555 1_555
C42_2 C47_2 1_555 1_555
Cu11 O2_2 1_555 1_555
N5_2 C15_2 1_555 1_555
O9_2 Cu11 1_555 1_555
C15_2 O9_2 1_555 1_555
H9_2 C15_2 1_555 1_555
C16_2 N5_2 1_555 1_555
H10_2 C16_2 1_555 1_555
H11_2 C16_2 1_555 1_555
H12_2 C16_2 1_555 1_555
C17_2 N5_2 1_555 1_555
H13_2 C17_2 1_555 1_555
H14_2 C17_2 1_555 1_555
H15_2 C17_2 1_555 1_555
O32 Cu11 1_555 1_555
O3_2 C5_2 1_555 1_555
N10 C8_2 1_555 1_555
C6_2 H3_2 1_555 1_555
O30 C10_2 1_555 1_555
C7_2 C6_2 1_555 1_555
C8_2 C7_2 1_555 1_555
C9_2 N10 1_555 1_555
C10_2 C7_2 1_555 1_555
C21_2 C5_2 1_555 1_555
Cu8 O3_2 1_555 1_555
O21_2 Cu8 1_555 1_555
N8_2 C44_2 1_555 1_555
O23_2 Cu8 1_555 1_555
C44_2 O21_2 1_555 1_555
H38_2 C44_2 1_555 1_555
C45_2 N8_2 1_555 1_555
H39_2 C45_2 1_555 1_555
H40_2 C45_2 1_555 1_555
H41_2 C45_2 1_555 1_555
C46_2 N8_2 1_555 1_555
H42_2 C46_2 1_555 1_555
H43_2 C46_2 1_555 1_555
H44_2 C46_2 1_555 1_555
O5_2 Cu8 1_555 1_555
C6_2 C21_2 1_555 1_555
C9_2 C21_2 1_555 1_555
Cu16_6 O12_2 1_555 1_555

#END
