
###############################################################################
#
# This file contains modified crystal structure data generated from the
# MOF subset of the Cambridge Structural Database (CSD) v543 
# hosted by the Cambridge Crystallographic Data Centre (CCDC).
#
# This work is licensed under the Creative Commons
# Attribution-NonCommercial-ShareAlike 4.0 International License.
# To view a copy of this license, visit
# http://creativecommons.org/licenses/by-nc-sa/4.0/
# or send a letter to
# Creative Commons, PO Box 1866, Mountain View, CA 94042, USA.
#
# CIF created using the CSD Python API on 29 September 2022
# The structure has been converted into the P1 space group
# The structure has a 3D framework
# The original CSD entry XEFHEY is in the triclinic crystal system
# The framework has been calculated to contain at least 10.0% void space
# The void calculation uses a probe of radius 1.32A, grid spacing 0.4
#
###############################################################################

data_XEFHEY
_chemical_formula_moiety         '(C66 H60 Cd4 N12 Na2 O19)n'
_symmetry_cell_setting           triclinic
_symmetry_space_group_name_H-M   'P 1'
_symmetry_Int_Tables_number      1
_space_group_name_Hall           'P 1'
loop_
_symmetry_equiv_pos_site_id
_symmetry_equiv_pos_as_xyz
1 x,y,z
_cell_length_a                   9.8070(14)
_cell_length_b                   13.1382(19)
_cell_length_c                   18.607(3)
_cell_angle_alpha                89.278(2)
_cell_angle_beta                 76.577(2)
_cell_angle_gamma                70.256(2)
_cell_volume                     2189.18
loop_
_atom_site_label
_atom_site_type_symbol
_atom_site_fract_x
_atom_site_fract_y
_atom_site_fract_z
_atom_site_U_iso_or_equiv
_atom_site_thermal_displace_type
Cd7 Cd 0.02275(3) 0.09711(2) 0.89236(2) 0.0176 Uani
Na5 Na 0.08917(17) 0.81226(12) 0.90252(9) 0.0187 Uani
C31 C 0.3601(4) 0.0792(3) 0.0058(2) 0.0196 Uani
H25 H 0.2666 0.1318 0.0098 0.0240 Uiso
O9 O 0.1059(3) 0.0174(2) 0.05863(18) 0.0242 Uani
C32 C 0.4877(4) 0.1042(3) 0.9799(2) 0.0197 Uani
H26 H 0.4801 0.1739 0.9663 0.0240 Uiso
C42 C 0.7675(4) 0.0535(3) 0.9440(2) 0.0179 Uani
C43 C 0.6274(4) 0.0261(3) 0.9739(2) 0.0185 Uani
O16 O 0.7550(3) 0.1458(2) 0.92170(18) 0.0254 Uani
C12 C 0.4877(5) 0.5822(3) 0.0491(3) 0.0283 Uani
H6 H 0.4788 0.6375 0.0825 0.0340 Uiso
C34 C 0.6603(5) 0.4519(3) 0.1166(2) 0.0219 Uani
C35 C 0.5784(4) 0.4762(3) 0.0551(2) 0.0211 Uani
C36 C 0.5887(5) 0.3943(3) 0.0059(3) 0.0259 Uani
H31 H 0.6475 0.3232 0.0100 0.0310 Uiso
O11 O 0.6596(4) 0.5288(3) 0.1564(2) 0.0387 Uani
O12 O 0.7254(3) 0.3547(2) 0.12705(17) 0.0258 Uani
Cd5 Cd 0.75649(3) 0.42341(3) 0.24717(2) 0.0236 Uani
Na8 Na 0.91083(17) 0.18774(12) 0.09748(9) 0.0187 Uani
Cd1 Cd 0.24351(3) 0.57659(3) 0.75283(2) 0.0236 Uani
C9 C 0.3397(5) 0.5481(3) 0.8834(2) 0.0219 Uani
C10 C 0.4216(4) 0.5238(3) 0.9449(2) 0.0211 Uani
C11 C 0.4113(5) 0.6057(3) 0.9941(3) 0.0259 Uani
H5 H 0.3525 0.6768 0.9900 0.0310 Uiso
C13 C 0.2367(6) 0.4364(4) 0.6163(3) 0.0397 Uani
H7 H 0.1285 0.4613 0.6277 0.0480 Uiso
H8 H 0.2741 0.3690 0.5856 0.0480 Uiso
C14 C 0.2894(6) 0.5186(4) 0.5741(3) 0.0361 Uani
H9 H 0.3977 0.4924 0.5607 0.0430 Uiso
H10 H 0.2550 0.5286 0.5288 0.0430 Uiso
N1 N 0.4377(5) 0.6363(4) 0.7078(2) 0.0459 Uani
H11 H 0.4133 0.7038 0.7266 0.0550 Uiso
H12 H 0.5166 0.5952 0.7233 0.0550 Uiso
C15 C 0.4802(7) 0.6349(6) 0.6265(3) 0.0524 Uani
H13 H 0.5328 0.5608 0.6056 0.0630 Uiso
H14 H 0.5463 0.6761 0.6118 0.0630 Uiso
C16 C 0.0817(6) 0.6890(5) 0.6135(3) 0.0460 Uani
H15 H 0.0443 0.7490 0.6509 0.0550 Uiso
H16 H 0.0187 0.6451 0.6260 0.0550 Uiso
C17 C 0.0648(6) 0.7350(4) 0.5394(3) 0.0414 Uani
C18 C 0.0917(9) 0.8315(5) 0.5203(3) 0.0601 Uani
H17 H 0.1246 0.8657 0.5527 0.0720 Uiso
C19 C 0.0706(8) 0.8763(5) 0.4554(4) 0.0592 Uani
H18 H 0.0912 0.9393 0.4433 0.0710 Uiso
C20 C 0.0183(6) 0.8270(4) 0.4079(3) 0.0388 Uani
C22 C 0.0197(6) 0.6838(4) 0.4875(3) 0.0407 Uani
H20 H 0.0053 0.6182 0.4974 0.0490 Uiso
C23 C 0.0041(5) 0.8379(4) 0.2760(3) 0.0276 Uani
H21 H 0.0310 0.7644 0.2631 0.0340 Uiso
C25 C 0.0084(4) 0.6972(3) 0.0605(2) 0.0180 Uani
C26 C 0.0069(4) 0.5950(3) 0.0288(2) 0.0192 Uani
C28 C 0.0836(5) 0.4963(3) 0.0518(2) 0.0232 Uani
H24 H 0.1395 0.4936 0.0863 0.0280 Uiso
C29 C 0.2325(4) 0.9465(3) 0.0560(2) 0.0179 Uani
C30 C 0.3726(4) 0.9739(3) 0.0261(2) 0.0185 Uani
N2 N 0.2345(5) 0.6227(3) 0.6175(2) 0.0354 Uani
N3 N 0.2860(5) 0.4156(3) 0.6859(2) 0.0324 Uani
H27 H 0.3830 0.3767 0.6756 0.0390 Uiso
H28 H 0.2370 0.3772 0.7135 0.0390 Uiso
C33 C 0.3439(7) 0.6828(5) 0.5985(3) 0.0528 Uani
H29 H 0.2941 0.7573 0.6190 0.0640 Uiso
H30 H 0.3732 0.6840 0.5451 0.0640 Uiso
O1 O 0.0384(3) 0.7620(2) 0.79111(16) 0.0217 Uani
O3 O 0.3404(4) 0.4712(3) 0.8436(2) 0.0387 Uani
O4 O 0.2746(3) 0.6453(2) 0.87295(17) 0.0258 Uani
O8 O 0.0246(3) 0.7045(2) 0.12500(16) 0.0240 Uani
O10 O 0.2450(3) 0.8542(2) 0.07830(18) 0.0254 Uani
C37 C 0.5123(5) 0.4178(3) 0.9509(3) 0.0283 Uani
H32 H 0.5212 0.3625 0.9175 0.0340 Uiso
C40 C 0.0773(5) 0.4013(3) 0.0236(2) 0.0243 Uani
H33 H 0.1289 0.3350 0.0393 0.0290 Uiso
C45 C 0.5123(4) 0.8958(3) 0.0201(2) 0.0197 Uani
H36 H 0.5199 0.8261 0.0337 0.0240 Uiso
O23 O 0.2233(3) 0.9246(2) 0.87182(18) 0.0270 Uani
O13 O 0.0099(3) 0.2216(2) 0.97941(16) 0.0196 Uani
C44 C 0.6399(4) 0.9208(3) 0.9942(2) 0.0196 Uani
H35 H 0.7334 0.8682 0.9902 0.0240 Uiso
O15 O 0.8941(3) 0.9826(2) 0.94137(18) 0.0242 Uani
H3 H 0.5588 0.0249 0.8057 0.0270 Uiso
C24 C 0.9413(6) 0.0064(4) 0.2731(3) 0.0354 Uani
H22 H 0.9135 0.0753 0.2557 0.0430 Uiso
O6 O 0.2815(3) 0.0708(2) 0.84771(18) 0.0240 Uani
C46 C 0.0530(4) 0.2862(3) 0.2079(2) 0.0182 Uani
C47 C 0.2153(4) 0.2215(3) 0.1936(2) 0.0191 Uani
C48 C 0.3245(5) 0.2708(3) 0.1733(2) 0.0225 Uani
H37 H 0.2951 0.3454 0.1697 0.0270 Uiso
C49 C 0.4740(4) 0.2100(3) 0.1585(2) 0.0233 Uani
H38 H 0.5451 0.2431 0.1435 0.0280 Uiso
C50 C 0.5189(4) 0.0982(3) 0.1662(2) 0.0182 Uani
C51 C 0.4115(5) 0.0491(3) 0.1881(2) 0.0230 Uani
C52 C 0.2613(4) 0.1096(3) 0.2006(2) 0.0208 Uani
H40 H 0.1906 0.0758 0.2136 0.0250 Uiso
C53 C 0.6811(4) 0.0298(3) 0.1482(2) 0.0197 Uani
C62 C 0.0032(6) 0.2696(4) 0.5780(3) 0.0366 Uani
H53 H 0.0328 0.3037 0.6119 0.0440 Uiso
N10 N 0.0093(5) 0.1211(3) 0.6580(2) 0.0345 Uani
N11 N 0.0483(7) 0.0100(3) 0.6588(3) 0.0527 Uani
N12 N 0.0260(4) 0.0844(3) 0.7698(2) 0.0241 Uani
O18 O 0.0102(3) 0.3885(2) 0.22018(17) 0.0239 Uani
O19 O 0.7767(3) 0.0754(2) 0.12818(18) 0.0270 Uani
O25 O 0.9901(3) 0.7784(2) 0.02059(16) 0.0196 Uani
Cd2 Cd 0.97725(3) 0.90289(2) 0.10764(2) 0.0176 Uani
C1 C 0.9470(4) 0.7138(3) 0.7921(2) 0.0182 Uani
C2 C 0.7847(4) 0.7785(3) 0.8064(2) 0.0191 Uani
C3 C 0.6755(5) 0.7292(3) 0.8267(2) 0.0225 Uani
H1 H 0.7049 0.6546 0.8303 0.0270 Uiso
C4 C 0.5260(4) 0.7900(3) 0.8415(2) 0.0233 Uani
H2 H 0.4549 0.7569 0.8565 0.0280 Uiso
C5 C 0.4811(4) 0.9018(3) 0.8338(2) 0.0182 Uani
C6 C 0.5885(5) 0.9509(3) 0.8119(2) 0.0230 Uani
C7 C 0.7387(4) 0.8904(3) 0.7994(2) 0.0208 Uani
H4 H 0.8094 0.9242 0.7864 0.0250 Uiso
C8 C 0.3189(4) 0.9702(3) 0.8518(2) 0.0197 Uani
C21 C 0.9968(6) 0.7304(4) 0.4220(3) 0.0366 Uani
H19 H 0.9672 0.6963 0.3881 0.0440 Uiso
N4 N 0.9907(5) 0.8789(3) 0.3420(2) 0.0345 Uani
N5 N 0.9517(7) 0.9900(3) 0.3412(3) 0.0527 Uani
N6 N 0.9740(4) 0.9156(3) 0.2302(2) 0.0241 Uani
O2 O 0.9898(3) 0.6115(2) 0.77982(17) 0.0239 Uani
H39 H 0.4412 0.9751 0.1943 0.0270 Uiso
C65 C 0.0587(6) 0.9936(4) 0.7269(3) 0.0354 Uani
H56 H 0.0865 0.9247 0.7443 0.0430 Uiso
O20 O 0.7185(3) 0.9292(2) 0.15229(18) 0.0240 Uani
C27 C 0.9227(5) 0.5987(3) 0.9764(2) 0.0243 Uani
H23 H 0.8711 0.6650 0.9607 0.0290 Uiso
C38 C 0.9916(4) 0.3028(3) 0.9395(2) 0.0180 Uani
C39 C 0.9931(4) 0.4050(3) 0.9712(2) 0.0192 Uani
C41 C 0.9164(5) 0.5037(3) 0.9482(2) 0.0232 Uani
H34 H 0.8605 0.5064 0.9137 0.0280 Uiso
O14 O 0.9754(3) 0.2955(2) 0.87500(16) 0.0240 Uani
C54 C 0.7633(6) 0.5636(4) 0.3837(3) 0.0397 Uani
H41 H 0.8715 0.5387 0.3723 0.0480 Uiso
H42 H 0.7259 0.6310 0.4144 0.0480 Uiso
C55 C 0.7106(6) 0.4814(4) 0.4259(3) 0.0361 Uani
H43 H 0.6023 0.5076 0.4393 0.0430 Uiso
H44 H 0.7450 0.4714 0.4712 0.0430 Uiso
N7 N 0.5623(5) 0.3637(4) 0.2922(2) 0.0459 Uani
H45 H 0.5867 0.2962 0.2734 0.0550 Uiso
H46 H 0.4834 0.4048 0.2767 0.0550 Uiso
C56 C 0.5198(7) 0.3651(6) 0.3735(3) 0.0524 Uani
H47 H 0.4672 0.4392 0.3944 0.0630 Uiso
H48 H 0.4537 0.3239 0.3882 0.0630 Uiso
C57 C 0.9183(6) 0.3110(5) 0.3865(3) 0.0460 Uani
H49 H 0.9557 0.2510 0.3491 0.0550 Uiso
H50 H 0.9813 0.3549 0.3740 0.0550 Uiso
C58 C 0.9352(6) 0.2650(4) 0.4606(3) 0.0414 Uani
C59 C 0.9083(9) 0.1685(5) 0.4797(3) 0.0601 Uani
H51 H 0.8754 0.1343 0.4473 0.0720 Uiso
C60 C 0.9294(8) 0.1237(5) 0.5446(4) 0.0592 Uani
H52 H 0.9088 0.0607 0.5567 0.0710 Uiso
C61 C 0.9817(6) 0.1730(4) 0.5921(3) 0.0388 Uani
C63 C 0.9803(6) 0.3162(4) 0.5125(3) 0.0407 Uani
H54 H 0.9947 0.3818 0.5026 0.0490 Uiso
C64 C 0.9959(5) 0.1621(4) 0.7240(3) 0.0276 Uani
H55 H 0.9690 0.2356 0.7369 0.0340 Uiso
N8 N 0.7655(5) 0.3773(3) 0.3825(2) 0.0354 Uani
N9 N 0.7140(5) 0.5844(3) 0.3141(2) 0.0324 Uani
H57 H 0.6170 0.6233 0.3244 0.0390 Uiso
H58 H 0.7630 0.6228 0.2865 0.0390 Uiso
C66 C 0.6561(7) 0.3172(5) 0.4015(3) 0.0528 Uani
H59 H 0.7059 0.2427 0.3810 0.0640 Uiso
H60 H 0.6268 0.3160 0.4549 0.0640 Uiso
O17 O 0.9616(3) 0.2380(2) 0.20889(16) 0.0217 Uani
loop_
_atom_site_aniso_label
_atom_site_aniso_U_11
_atom_site_aniso_U_22
_atom_site_aniso_U_33
_atom_site_aniso_U_23
_atom_site_aniso_U_13
_atom_site_aniso_U_12
Cd7 0.01461 0.01445 0.02214 -0.00138 -0.00146 -0.00486
Na5 0.0186 0.0181 0.019 0.0025 -0.0034 -0.0066
C31 0.0157 0.019 0.022 0.0004 -0.0038 -0.0039
O9 0.0126 0.0185 0.0393 0.0038 -0.0035 -0.0045
C32 0.0205 0.0158 0.023 0.0016 -0.0049 -0.0066
C42 0.0153 0.0162 0.023 -0.0003 -0.0039 -0.0069
C43 0.018 0.0186 0.019 0.0005 -0.0023 -0.0077
O16 0.0161 0.0216 0.0365 0.0043 -0.0007 -0.0078
C12 0.041 0.017 0.027 -0.0011 -0.015 -0.0055
C34 0.022 0.022 0.02 0.0028 -0.0084 -0.0031
C35 0.0195 0.018 0.023 0.0006 -0.0062 -0.0023
C36 0.024 0.018 0.034 -0.0002 -0.016 0.001
O11 0.058 0.0238 0.042 0.0002 -0.0321 -0.0106
O12 0.0252 0.0228 0.0239 0.0032 -0.0101 0.0016
Cd5 0.01803 0.02735 0.02045 -0.00111 -0.00641 -0.00011
Na8 0.0186 0.0181 0.019 0.0025 -0.0034 -0.0066
Cd1 0.01803 0.02735 0.02045 -0.00111 -0.00641 -0.00011
C9 0.022 0.022 0.02 0.0028 -0.0084 -0.0031
C10 0.0195 0.018 0.023 0.0006 -0.0062 -0.0023
C11 0.024 0.018 0.034 -0.0002 -0.016 0.001
C13 0.042 0.042 0.037 -0.008 -0.012 -0.015
C14 0.035 0.041 0.028 -0.002 -0.01 -0.006
N1 0.049 0.062 0.034 -0.003 -0.01 -0.028
C15 0.056 0.072 0.042 0.005 -0.005 -0.043
C16 0.049 0.048 0.022 0.001 -0.011 0.009
C17 0.053 0.039 0.024 0.001 -0.013 -0.003
C18 0.114 0.03 0.045 0.001 -0.049 -0.016
C19 0.103 0.032 0.058 0.008 -0.048 -0.024
C20 0.062 0.026 0.024 0.001 -0.02 -0.003
C22 0.046 0.04 0.042 0.018 -0.021 -0.016
C23 0.033 0.024 0.029 0 -0.014 -0.0093
C25 0.0139 0.019 0.022 0.0017 -0.0071 -0.0049
C26 0.023 0.019 0.015 -0.0017 -0.0026 -0.0076
C28 0.027 0.018 0.026 0.002 -0.0114 -0.0063
C29 0.0153 0.0162 0.023 -0.0003 -0.0039 -0.0069
C30 0.018 0.0186 0.019 0.0005 -0.0023 -0.0077
N2 0.042 0.036 0.024 0.0024 -0.0097 -0.0069
N3 0.038 0.03 0.028 0.0004 -0.0085 -0.0098
C33 0.074 0.044 0.04 0.012 -0.008 -0.024
O1 0.021 0.0221 0.0208 0.0021 -0.0067 -0.0047
O3 0.058 0.0238 0.042 0.0002 -0.0321 -0.0106
O4 0.0252 0.0228 0.0239 0.0032 -0.0101 0.0016
O8 0.04 0.016 0.0194 0.0031 -0.0096 -0.0124
O10 0.0161 0.0216 0.0365 0.0043 -0.0007 -0.0078
C37 0.041 0.017 0.027 -0.0011 -0.015 -0.0055
C40 0.028 0.017 0.026 0.0064 -0.0092 -0.0037
C45 0.0205 0.0158 0.023 0.0016 -0.0049 -0.0066
O23 0.015 0.0265 0.0379 0.0097 -0.0027 -0.0078
O13 0.0251 0.0168 0.0184 -0.0005 -0.0057 -0.0089
C44 0.0157 0.019 0.022 0.0004 -0.0038 -0.0039
O15 0.0126 0.0185 0.0393 0.0038 -0.0035 -0.0045
C24 0.053 0.024 0.036 0.004 -0.023 -0.014
O6 0.016 0.0212 0.0348 -0.002 -0.0081 -0.0049
C46 0.0183 0.021 0.0138 0.0005 -0.0046 -0.0045
C47 0.0167 0.023 0.018 -0.0001 -0.0049 -0.0067
C48 0.021 0.019 0.026 0.0016 -0.0056 -0.0052
C49 0.0182 0.025 0.028 -0.001 -0.0048 -0.0095
C50 0.0131 0.0181 0.02 -0.0015 -0.0013 -0.0027
C51 0.023 0.017 0.028 0.0018 -0.0068 -0.0053
C52 0.0185 0.022 0.024 0.0029 -0.005 -0.0096
C53 0.0164 0.022 0.021 0.0019 -0.0069 -0.0054
C62 0.045 0.041 0.035 0.013 -0.022 -0.021
N10 0.056 0.0198 0.031 0.0036 -0.023 -0.0091
N11 0.111 0.02 0.034 0.0053 -0.035 -0.02
N12 0.0282 0.0191 0.026 0.0016 -0.0097 -0.0073
O18 0.0191 0.0163 0.0327 -0.0004 -0.0067 -0.001
O19 0.015 0.0265 0.0379 0.0097 -0.0027 -0.0078
O25 0.0251 0.0168 0.0184 -0.0005 -0.0057 -0.0089
Cd2 0.01461 0.01445 0.02214 -0.00138 -0.00146 -0.00486
C1 0.0183 0.021 0.0138 0.0005 -0.0046 -0.0045
C2 0.0167 0.023 0.018 -0.0001 -0.0049 -0.0067
C3 0.021 0.019 0.026 0.0016 -0.0056 -0.0052
C4 0.0182 0.025 0.028 -0.001 -0.0048 -0.0095
C5 0.0131 0.0181 0.02 -0.0015 -0.0013 -0.0027
C6 0.023 0.017 0.028 0.0018 -0.0068 -0.0053
C7 0.0185 0.022 0.024 0.0029 -0.005 -0.0096
C8 0.0164 0.022 0.021 0.0019 -0.0069 -0.0054
C21 0.045 0.041 0.035 0.013 -0.022 -0.021
N4 0.056 0.0198 0.031 0.0036 -0.023 -0.0091
N5 0.111 0.02 0.034 0.0053 -0.035 -0.02
N6 0.0282 0.0191 0.026 0.0016 -0.0097 -0.0073
O2 0.0191 0.0163 0.0327 -0.0004 -0.0067 -0.001
C65 0.053 0.024 0.036 0.004 -0.023 -0.014
O20 0.016 0.0212 0.0348 -0.002 -0.0081 -0.0049
C27 0.028 0.017 0.026 0.0064 -0.0092 -0.0037
C38 0.0139 0.019 0.022 0.0017 -0.0071 -0.0049
C39 0.023 0.019 0.015 -0.0017 -0.0026 -0.0076
C41 0.027 0.018 0.026 0.002 -0.0114 -0.0063
O14 0.04 0.016 0.0194 0.0031 -0.0096 -0.0124
C54 0.042 0.042 0.037 -0.008 -0.012 -0.015
C55 0.035 0.041 0.028 -0.002 -0.01 -0.006
N7 0.049 0.062 0.034 -0.003 -0.01 -0.028
C56 0.056 0.072 0.042 0.005 -0.005 -0.043
C57 0.049 0.048 0.022 0.001 -0.011 0.009
C58 0.053 0.039 0.024 0.001 -0.013 -0.003
C59 0.114 0.03 0.045 0.001 -0.049 -0.016
C60 0.103 0.032 0.058 0.008 -0.048 -0.024
C61 0.062 0.026 0.024 0.001 -0.02 -0.003
C63 0.046 0.04 0.042 0.018 -0.021 -0.016
C64 0.033 0.024 0.029 0 -0.014 -0.0093
N8 0.042 0.036 0.024 0.0024 -0.0097 -0.0069
N9 0.038 0.03 0.028 0.0004 -0.0085 -0.0098
C66 0.074 0.044 0.04 0.012 -0.008 -0.024
O17 0.021 0.0221 0.0208 0.0021 -0.0067 -0.0047
loop_
_geom_bond_atom_site_label_1
_geom_bond_atom_site_label_2
_geom_bond_site_symmetry_1
_geom_bond_site_symmetry_2
C31 H25 1_555 1_555
H26 C32 1_555 1_555
C42 C43 1_555 1_555
C43 C32 1_555 1_555
O16 C42 1_555 1_555
H6 C12 1_555 1_555
C34 C35 1_555 1_555
C35 C12 1_555 1_555
C36 C35 1_555 1_555
H31 C36 1_555 1_555
O11 C34 1_555 1_555
O12 C34 1_555 1_555
Cd5 O11 1_555 1_555
Na8 O12 1_555 1_555
O12 Cd5 1_555 1_555
Cd1 N1 1_555 1_555
Na5 O1 1_555 1_555
C9 C10 1_555 1_555
C10 C11 1_555 1_555
C11 H5 1_555 1_555
C13 H7 1_555 1_555
H8 C13 1_555 1_555
C14 C13 1_555 1_555
H9 C14 1_555 1_555
H10 C14 1_555 1_555
N1 H11 1_555 1_555
H12 N1 1_555 1_555
C15 N1 1_555 1_555
H13 C15 1_555 1_555
H14 C15 1_555 1_555
C16 H15 1_555 1_555
H16 C16 1_555 1_555
C17 C16 1_555 1_555
C18 C17 1_555 1_555
H17 C18 1_555 1_555
C19 C18 1_555 1_555
H18 C19 1_555 1_555
C20 C19 1_555 1_555
C22 C17 1_555 1_555
H20 C22 1_555 1_555
C23 H21 1_555 1_555
C25 C26 1_555 1_555
C28 C26 1_555 1_555
H24 C28 1_555 1_555
C29 C30 1_555 1_555
N2 Cd1 1_555 1_555
N3 Cd1 1_555 1_555
H27 N3 1_555 1_555
H28 N3 1_555 1_555
C33 C15 1_555 1_555
H29 C33 1_555 1_555
H30 C33 1_555 1_555
O1 Cd1 1_555 1_555
O3 Cd1 1_555 1_555
O4 Cd1 1_555 1_555
C37 C10 1_555 1_555
H32 C37 1_555 1_555
C40 C28 1_555 1_555
H33 C40 1_555 1_555
C45 C30 1_555 1_555
H36 C45 1_555 1_555
O23 Na5 1_555 1_555
Na5 O4 1_555 1_555
C9 O3 1_555 1_555
C9 O4 1_555 1_555
C13 N3 1_555 1_555
C14 N2 1_555 1_555
C16 N2 1_555 1_555
C25 O8 1_555 1_555
C29 O10 1_555 1_555
N2 C33 1_555 1_555
H35 C44 1_555 1_555
Cd7 O13 1_555 1_555
C24 H22 1_555 1_555
C46 C47 1_555 1_555
C47 C48 1_555 1_555
C48 H37 1_555 1_555
C49 C48 1_555 1_555
H38 C49 1_555 1_555
C50 C49 1_555 1_555
C51 C50 1_555 1_555
C52 C47 1_555 1_555
H40 C52 1_555 1_555
C53 C50 1_555 1_555
H53 C62 1_555 1_555
N12 Cd7 1_555 1_555
O6 Cd7 1_555 1_555
C46 O18 1_555 1_555
C51 C52 1_555 1_555
C53 O19 1_555 1_555
N10 N11 1_555 1_555
O19 Na8 1_555 1_555
Cd2 N6 1_555 1_555
C1 C2 1_555 1_555
C2 C3 1_555 1_555
C3 H1 1_555 1_555
C4 C3 1_555 1_555
H2 C4 1_555 1_555
C5 C4 1_555 1_555
C6 C5 1_555 1_555
C7 C2 1_555 1_555
H4 C7 1_555 1_555
C8 C5 1_555 1_555
H19 C21 1_555 1_555
O23 C8 1_555 1_555
O25 Cd2 1_555 1_555
C65 H56 1_555 1_555
O20 Cd2 1_555 1_555
C1 O2 1_555 1_555
C6 C7 1_555 1_555
N4 N5 1_555 1_555
C27 H23 1_555 1_555
C38 C39 1_555 1_555
C41 C27 1_555 1_555
H34 C41 1_555 1_555
O14 C38 1_555 1_555
C39 C41 1_555 1_555
Cd5 N7 1_555 1_555
Na8 O17 1_555 1_555
C54 H41 1_555 1_555
H42 C54 1_555 1_555
C55 C54 1_555 1_555
H43 C55 1_555 1_555
H44 C55 1_555 1_555
N7 H45 1_555 1_555
H46 N7 1_555 1_555
C56 N7 1_555 1_555
H47 C56 1_555 1_555
H48 C56 1_555 1_555
C57 H49 1_555 1_555
H50 C57 1_555 1_555
C58 C57 1_555 1_555
C59 C58 1_555 1_555
H51 C59 1_555 1_555
C60 C59 1_555 1_555
H52 C60 1_555 1_555
C61 C60 1_555 1_555
C63 C58 1_555 1_555
H54 C63 1_555 1_555
C64 H55 1_555 1_555
N8 Cd5 1_555 1_555
N9 Cd5 1_555 1_555
H57 N9 1_555 1_555
H58 N9 1_555 1_555
C66 C56 1_555 1_555
H59 C66 1_555 1_555
H60 C66 1_555 1_555
O17 Cd5 1_555 1_555
C54 N9 1_555 1_555
C55 N8 1_555 1_555
C57 N8 1_555 1_555
N8 C66 1_555 1_555

#END
