
###############################################################################
#
# This file contains modified crystal structure data generated from the
# MOF subset of the Cambridge Structural Database (CSD) v543 
# hosted by the Cambridge Crystallographic Data Centre (CCDC).
#
# This work is licensed under the Creative Commons
# Attribution-NonCommercial-ShareAlike 4.0 International License.
# To view a copy of this license, visit
# http://creativecommons.org/licenses/by-nc-sa/4.0/
# or send a letter to
# Creative Commons, PO Box 1866, Mountain View, CA 94042, USA.
#
# CIF created using the CSD Python API on 29 September 2022
# The structure has been converted into the P1 space group
# The structure has a 3D framework
# The original CSD entry XEFHIC is in the triclinic crystal system
# The framework has been calculated to contain at least 10.0% void space
# The void calculation uses a probe of radius 1.32A, grid spacing 0.4
#
###############################################################################

data_XEFHIC
_chemical_formula_moiety         '(C74 H64 Cd4 N12 O16)n'
_symmetry_cell_setting           triclinic
_symmetry_space_group_name_H-M   'P 1'
_symmetry_Int_Tables_number      1
_space_group_name_Hall           'P 1'
loop_
_symmetry_equiv_pos_site_id
_symmetry_equiv_pos_as_xyz
1 x,y,z
_cell_length_a                   10.9405(12)
_cell_length_b                   12.6609(13)
_cell_length_c                   17.2175(18)
_cell_angle_alpha                91.149(3)
_cell_angle_beta                 96.514(3)
_cell_angle_gamma                112.944(3)
_cell_volume                     2176.66
loop_
_atom_site_label
_atom_site_type_symbol
_atom_site_fract_x
_atom_site_fract_y
_atom_site_fract_z
_atom_site_U_iso_or_equiv
_atom_site_thermal_displace_type
C12 C 0.1832(5) 0.0353(5) 0.5045(3) 0.0455 Uani
H6 H 0.2397 0.0024 0.4888 0.0550 Uiso
C44 C 0.2082(6) 0.3132(4) 0.6109(3) 0.0426 Uani
C45 C 0.1489(6) 0.1916(5) 0.5690(3) 0.0435 Uani
C46 C 0.2349(6) 0.1429(4) 0.5447(3) 0.0446 Uani
H36 H 0.3272 0.1830 0.5556 0.0530 Uiso
C47 C 0.0135(6) 0.1357(4) 0.5543(3) 0.0438 Uani
O11 O 0.3296(4) 0.3675(3) 0.6182(2) 0.0461 Uani
O12 O 0.1270(4) 0.3530(3) 0.6348(2) 0.0517 Uani
Cd7 Cd 0.29287(3) 0.51719(3) 0.69543(2) 0.0264 Uani
Cd2 Cd 0.16940(3) 0.45039(3) 0.30026(2) 0.0310 Uani
H5 H 0.0414 0.8305 0.4287 0.0530 Uiso
C11 C 0.0460(5) 0.9783(4) 0.4884(3) 0.0357 Uani
C25 C 0.0103(5) 0.3553(4) 0.4374(2) 0.0324 Uani
H14 H 0.0810 0.3391 0.4671 0.0390 Uiso
C27 C 0.1175(5) 0.1981(4) 0.3509(3) 0.0367 Uani
H17 H 0.0719 0.1150 0.3466 0.0440 Uiso
H18 H 0.1442 0.2231 0.4061 0.0440 Uiso
C28 C 0.2406(6) 0.2326(5) 0.3095(4) 0.0533 Uani
H19 H 0.3005 0.1992 0.3336 0.0640 Uiso
H20 H 0.2149 0.2038 0.2550 0.0640 Uiso
H21 H 0.0077 0.1702 0.2108 0.0370 Uiso
N1 N 0.0246(4) 0.2495(3) 0.3169(2) 0.0250 Uani
N2 N 0.3103(5) 0.3595(4) 0.3146(4) 0.0659 Uani
H29 H 0.3643 0.3796 0.2777 0.0790 Uiso
H30 H 0.3609 0.3825 0.3610 0.0790 Uiso
N3 N 0.0689(4) 0.4694(3) 0.4055(2) 0.0311 Uani
H31 H 0.1287 0.5197 0.4419 0.0370 Uiso
H32 H 0.0050 0.4947 0.3910 0.0370 Uiso
O4 O 0.0344(3) 0.4564(3) 0.19322(18) 0.0304 Uani
N13 N 0.3102(4) 0.6260(3) 0.2637(2) 0.0348 Uani
C13 C 0.4131(7) 0.4479(5) 0.8207(3) 0.0452 Uani
C19 C 0.4240(7) 0.3401(5) 0.9417(3) 0.0591 Uani
H9 H 0.3325 0.2976 0.9291 0.0700 Uiso
C20 C 0.4951(7) 0.4234(6) 0.8902(3) 0.0553 Uani
C21 C 0.6239(8) 0.4852(6) 0.9037(4) 0.0649 Uani
H10 H 0.6663 0.5393 0.8694 0.0780 Uiso
C22 C 0.7031(7) 0.4665(5) 0.9774(4) 0.0564 Uani
C23 C 0.8336(8) 0.5251(7) 0.9913(4) 0.0832 Uani
H11 H 0.8804 0.5715 0.9545 0.1000 Uiso
O7 O 0.4742(4) 0.5362(4) 0.7810(2) 0.0518 Uani
O8 O 0.2963(4) 0.3881(3) 0.8047(2) 0.0499 Uani
C31 C 0.8292(5) 0.9726(4) 0.2519(3) 0.0297 Uani
H23 H 0.9119 0.9669 0.2584 0.0360 Uiso
C32 C 0.7133(5) 0.8743(4) 0.2501(3) 0.0294 Uani
H24 H 0.7174 0.8026 0.2549 0.0350 Uiso
C33 C 0.5919(4) 0.8846(4) 0.2410(2) 0.0298 Uani
C34 C 0.5844(5) 0.9902(4) 0.2327(3) 0.0361 Uani
H25 H 0.5017 0.9960 0.2261 0.0430 Uiso
C36 C 0.2637(5) 0.6865(4) 0.2135(4) 0.0570 Uani
H27 H 0.1738 0.6622 0.1935 0.0680 Uiso
C37 C 0.4390(5) 0.6914(4) 0.2787(3) 0.0285 Uani
H28 H 0.5005 0.6745 0.3125 0.0340 Uiso
N4 N 0.4684(4) 0.7846(3) 0.2387(2) 0.0335 Uani
N6 N 0.3557(4) 0.7822(4) 0.1954(3) 0.0640 Uani
C38 C 0.3566(5) 0.6918(4) 0.5906(3) 0.0361 Uani
C39 C 0.4000(5) 0.7988(4) 0.5454(3) 0.0331 Uani
C40 C 0.4818(5) 0.9027(4) 0.5820(3) 0.0343 Uani
H33 H 0.5119 0.9073 0.6352 0.0410 Uiso
C41 C 0.3541(5) 0.7900(4) 0.4647(3) 0.0409 Uani
H34 H 0.2972 0.7191 0.4398 0.0490 Uiso
C42 C 0.3935(5) 0.8867(4) 0.4225(3) 0.0407 Uani
H35 H 0.3643 0.8800 0.3691 0.0490 Uiso
C43 C 0.4774(4) 0.9953(4) 0.4593(3) 0.0314 Uani
O9 O 0.4038(4) 0.7013(3) 0.6623(2) 0.0471 Uani
O10 O 0.2744(4) 0.5989(3) 0.5573(2) 0.0564 Uani
C51 C 0.0860(4) 0.5570(3) 0.8033(3) 0.0265 Uani
C52 C 0.1680(5) 0.5585(4) 0.8805(3) 0.0364 Uani
C53 C 0.3018(6) 0.6266(5) 0.8948(4) 0.0546 Uani
H39 H 0.3469 0.6771 0.8593 0.0650 Uiso
C54 C 0.3722(5) 0.6128(5) 0.9755(4) 0.0529 Uani
C55 C 0.5085(7) 0.6773(5) 0.9897(4) 0.0650 Uani
H40 H 0.5529 0.7299 0.9550 0.0780 Uiso
C61 C 0.1015(7) 0.4849(6) 0.9370(3) 0.0596 Uani
H44 H 0.0101 0.4414 0.9254 0.0710 Uiso
H45 H 0.0519 0.6432 0.5270 0.0390 Uiso
C63 C 0.0633(4) 0.7406(4) 0.6272(2) 0.0268 Uani
H47 H 0.1016 0.8131 0.6034 0.0320 Uiso
H48 H 0.1363 0.7258 0.6554 0.0320 Uiso
C66 C 0.0524(5) 0.8107(4) 0.7597(2) 0.0304 Uani
H54 H 0.0797 0.7572 0.7890 0.0370 Uiso
C67 C 0.1764(5) 0.9201(4) 0.7560(2) 0.0273 Uani
C72 C 0.3007(5) 0.9141(4) 0.7656(3) 0.0364 Uani
H58 H 0.3058 0.8429 0.7710 0.0440 Uiso
O13 O 0.1383(3) 0.5701(3) 0.74154(18) 0.0334 Uani
H37 H 0.9586 0.1695 0.5713 0.0530 Uiso
C48 C 0.9540(5) 0.0217(4) 0.5116(3) 0.0357 Uani
Cd1 Cd 0.70713(3) 0.48281(3) 0.30457(2) 0.0264 Uani
C1 C 0.6434(5) 0.3082(4) 0.4094(3) 0.0361 Uani
C2 C 0.6000(5) 0.2012(4) 0.4546(3) 0.0331 Uani
C3 C 0.5182(5) 0.0973(4) 0.4180(3) 0.0343 Uani
H1 H 0.4881 0.0927 0.3648 0.0410 Uiso
C4 C 0.6459(5) 0.2100(4) 0.5353(3) 0.0409 Uani
H2 H 0.7028 0.2809 0.5602 0.0490 Uiso
C5 C 0.6065(5) 0.1133(4) 0.5775(3) 0.0407 Uani
H3 H 0.6357 0.1200 0.6309 0.0490 Uiso
C6 C 0.5226(4) 0.0047(4) 0.5407(3) 0.0314 Uani
C7 C 0.7918(6) 0.6868(4) 0.3891(3) 0.0426 Uani
C8 C 0.8511(6) 0.8084(5) 0.4310(3) 0.0435 Uani
C9 C 0.7651(6) 0.8571(4) 0.4553(3) 0.0446 Uani
H4 H 0.6728 0.8170 0.4444 0.0530 Uiso
C10 C 0.9865(6) 0.8643(4) 0.4457(3) 0.0438 Uani
C14 C 0.9140(4) 0.4430(3) 0.1967(3) 0.0265 Uani
C15 C 0.8320(5) 0.4415(4) 0.1195(3) 0.0364 Uani
C16 C 0.6982(6) 0.3734(5) 0.1052(4) 0.0546 Uani
H7 H 0.6531 0.3229 0.1407 0.0650 Uiso
C17 C 0.6278(5) 0.3872(5) 0.0245(4) 0.0529 Uani
C18 C 0.4915(7) 0.3227(5) 0.0103(4) 0.0650 Uani
H8 H 0.4471 0.2701 0.0450 0.0780 Uiso
C24 C 0.8985(7) 0.5151(6) 0.0630(3) 0.0596 Uani
H12 H 0.9899 0.5586 0.0746 0.0710 Uiso
H13 H 0.9481 0.3568 0.4730 0.0390 Uiso
C26 C 0.9367(4) 0.2594(4) 0.3728(2) 0.0268 Uani
H15 H 0.8984 0.1869 0.3966 0.0320 Uiso
H16 H 0.8637 0.2742 0.3446 0.0320 Uiso
C29 C 0.9476(5) 0.1893(4) 0.2403(2) 0.0304 Uani
H22 H 0.9203 0.2428 0.2110 0.0370 Uiso
C30 C 0.8236(5) 0.0799(4) 0.2440(2) 0.0273 Uani
C35 C 0.6993(5) 0.0859(4) 0.2344(3) 0.0364 Uani
H26 H 0.6942 0.1571 0.2290 0.0440 Uiso
O1 O 0.5962(4) 0.2987(3) 0.3377(2) 0.0471 Uani
O2 O 0.7256(4) 0.4011(3) 0.4427(2) 0.0564 Uani
O3 O 0.8617(3) 0.4299(3) 0.25846(18) 0.0334 Uani
O5 O 0.6704(4) 0.6325(3) 0.3818(2) 0.0461 Uani
O6 O 0.8730(4) 0.6470(3) 0.3652(2) 0.0517 Uani
C49 C 0.8168(5) 0.9647(5) 0.4955(3) 0.0455 Uani
H38 H 0.7603 0.9976 0.5112 0.0550 Uiso
C68 C 0.1708(5) 0.0274(4) 0.7481(3) 0.0297 Uani
H55 H 0.0881 0.0331 0.7416 0.0360 Uiso
C69 C 0.2867(5) 0.1257(4) 0.7499(3) 0.0294 Uani
H56 H 0.2826 0.1974 0.7451 0.0350 Uiso
C70 C 0.4081(4) 0.1154(4) 0.7590(2) 0.0298 Uani
C71 C 0.4156(5) 0.0098(4) 0.7673(3) 0.0361 Uani
H57 H 0.4983 0.0040 0.7739 0.0430 Uiso
C73 C 0.7363(5) 0.3135(4) 0.7865(4) 0.0570 Uani
H59 H 0.8262 0.3378 0.8065 0.0680 Uiso
C74 C 0.5610(5) 0.3086(4) 0.7213(3) 0.0285 Uani
H60 H 0.4995 0.3255 0.6875 0.0340 Uiso
N10 N 0.5316(4) 0.2154(3) 0.7613(2) 0.0335 Uani
N11 N 0.6898(4) 0.3740(3) 0.7363(2) 0.0348 Uani
N12 N 0.6443(4) 0.2178(4) 0.8046(3) 0.0640 Uani
Cd9 Cd 0.83060(3) 0.54961(3) 0.69974(2) 0.0310 Uani
O20 O 0.5258(4) 0.4638(4) 0.2190(2) 0.0518 Uani
O22 O 0.7037(4) 0.6119(3) 0.1953(2) 0.0499 Uani
C50 C 0.5869(7) 0.5521(5) 0.1793(3) 0.0452 Uani
C56 C 0.5760(7) 0.6599(5) 0.0583(3) 0.0591 Uani
H41 H 0.6675 0.7024 0.0709 0.0700 Uiso
C57 C 0.5049(7) 0.5766(6) 0.1098(3) 0.0553 Uani
C58 C 0.3761(8) 0.5148(6) 0.0963(4) 0.0649 Uani
H42 H 0.3337 0.4607 0.1306 0.0780 Uiso
C59 C 0.2969(7) 0.5335(5) 0.0226(4) 0.0564 Uani
C60 C 0.1664(8) 0.4749(7) 0.0087(4) 0.0832 Uani
H43 H 0.1196 0.4285 0.0455 0.1000 Uiso
C62 C 0.9897(5) 0.6447(4) 0.5626(2) 0.0324 Uani
H46 H 0.9190 0.6609 0.5329 0.0390 Uiso
C64 C 0.8825(5) 0.8019(4) 0.6491(3) 0.0367 Uani
H49 H 0.9281 0.8850 0.6534 0.0440 Uiso
H50 H 0.8558 0.7769 0.5939 0.0440 Uiso
C65 C 0.7594(6) 0.7674(5) 0.6905(4) 0.0533 Uani
H51 H 0.6995 0.8008 0.6664 0.0640 Uiso
H52 H 0.7851 0.7962 0.7450 0.0640 Uiso
H53 H 0.9923 0.8298 0.7892 0.0370 Uiso
N7 N 0.9754(4) 0.7505(3) 0.6831(2) 0.0250 Uani
N8 N 0.6897(5) 0.6405(4) 0.6854(4) 0.0659 Uani
H61 H 0.6357 0.6204 0.7223 0.0790 Uiso
H62 H 0.6391 0.6175 0.6390 0.0790 Uiso
N9 N 0.9311(4) 0.5306(3) 0.5945(2) 0.0311 Uani
H63 H 0.8713 0.4803 0.5581 0.0370 Uiso
H64 H 0.9950 0.5053 0.6090 0.0370 Uiso
O14 O 0.9656(3) 0.5436(3) 0.80678(18) 0.0304 Uani
loop_
_atom_site_aniso_label
_atom_site_aniso_U_11
_atom_site_aniso_U_22
_atom_site_aniso_U_33
_atom_site_aniso_U_23
_atom_site_aniso_U_13
_atom_site_aniso_U_12
C12 0.035 0.05 0.055 0.007 0.004 0.021
C44 0.064 0.03 0.032 0.008 -0.011 0.021
C45 0.048 0.039 0.034 0.006 -0.014 0.012
C46 0.041 0.035 0.049 -0.003 -0.009 0.01
C47 0.054 0.035 0.043 0.008 -0.001 0.02
O11 0.054 0.0321 0.042 -0.0029 -0.0197 0.0134
O12 0.05 0.033 0.056 -0.0027 -0.021 0.007
Cd7 0.02277 0.02192 0.02972 0.00262 -0.00747 0.00664
Cd2 0.02533 0.02324 0.0338 0.00763 -0.00325 -0.00017
C11 0.032 0.047 0.032 0.013 0.002 0.02
C25 0.039 0.032 0.024 0.0051 -0.001 0.013
C27 0.035 0.031 0.044 0.008 0 0.014
C28 0.041 0.046 0.077 0.012 0.009 0.021
N1 0.0221 0.0166 0.0299 0.0013 -0.0016 0.0021
N2 0.031 0.059 0.11 0.035 0.02 0.016
N3 0.029 0.026 0.034 -0.0031 -0.0087 0.01
O4 0.0199 0.0296 0.0353 0.0055 -0.0049 0.0049
N13 0.0214 0.028 0.045 0.0074 -0.006 0.0017
C13 0.079 0.06 0.019 -0.002 -0.002 0.054
C19 0.058 0.056 0.058 0.002 -0.015 0.023
C20 0.065 0.066 0.049 -0.014 -0.011 0.047
C21 0.075 0.069 0.055 -0.014 0.005 0.035
C22 0.062 0.051 0.066 0.013 0.021 0.029
C23 0.08 0.106 0.055 0.013 -0.017 0.034
O7 0.029 0.087 0.042 -0.005 -0.01 0.03
O8 0.062 0.048 0.043 0.0006 -0.007 0.029
C31 0.028 0.024 0.036 0.0023 0.003 0.0093
C32 0.033 0.018 0.035 0.0013 0.002 0.0084
C33 0.027 0.021 0.028 0.0043 -0.005 -0.0026
C34 0.023 0.026 0.056 0.001 -0.005 0.009
C36 0.03 0.032 0.091 0.023 -0.022 0
C37 0.028 0.017 0.034 0.0004 -0.0029 0.0038
N4 0.025 0.0225 0.044 0.007 -0.0088 0.003
N6 0.031 0.036 0.098 0.031 -0.029 -0.007
C38 0.031 0.031 0.054 0.011 0.014 0.018
C39 0.027 0.03 0.049 0.01 0.013 0.016
C40 0.031 0.035 0.042 0.009 0.009 0.017
C41 0.039 0.027 0.054 0.005 0.01 0.009
C42 0.047 0.037 0.038 0.003 0.004 0.017
C43 0.021 0.029 0.047 0.005 0.007 0.012
O9 0.042 0.035 0.065 0.0169 0.0162 0.0127
O10 0.068 0.025 0.074 0.016 0.011 0.015
C51 0.024 0.015 0.036 0.0026 -0.0057 0.0054
C52 0.033 0.041 0.04 -0.01 -0.012 0.025
C53 0.039 0.055 0.07 -0.026 -0.025 0.029
C54 0.028 0.052 0.078 -0.041 -0.014 0.023
C55 0.056 0.051 0.072 0.006 -0.014 0.01
C61 0.077 0.075 0.034 0.008 -0.006 0.041
C63 0.025 0.022 0.029 0.0057 0.0045 0.004
C66 0.033 0.019 0.029 0.0002 -0.004 0.0016
C67 0.029 0.017 0.029 0.0022 -0.0006 0.0027
C72 0.035 0.02 0.048 0.005 -0.006 0.007
O13 0.0315 0.0391 0.0342 0.013 0.002 0.0189
C48 0.032 0.047 0.032 0.013 0.002 0.02
Cd1 0.02277 0.02192 0.02972 0.00262 -0.00747 0.00664
C1 0.031 0.031 0.054 0.011 0.014 0.018
C2 0.027 0.03 0.049 0.01 0.013 0.016
C3 0.031 0.035 0.042 0.009 0.009 0.017
C4 0.039 0.027 0.054 0.005 0.01 0.009
C5 0.047 0.037 0.038 0.003 0.004 0.017
C6 0.021 0.029 0.047 0.005 0.007 0.012
C7 0.064 0.03 0.032 0.008 -0.011 0.021
C8 0.048 0.039 0.034 0.006 -0.014 0.012
C9 0.041 0.035 0.049 -0.003 -0.009 0.01
C10 0.054 0.035 0.043 0.008 -0.001 0.02
C14 0.024 0.015 0.036 0.0026 -0.0057 0.0054
C15 0.033 0.041 0.04 -0.01 -0.012 0.025
C16 0.039 0.055 0.07 -0.026 -0.025 0.029
C17 0.028 0.052 0.078 -0.041 -0.014 0.023
C18 0.056 0.051 0.072 0.006 -0.014 0.01
C24 0.077 0.075 0.034 0.008 -0.006 0.041
C26 0.025 0.022 0.029 0.0057 0.0045 0.004
C29 0.033 0.019 0.029 0.0002 -0.004 0.0016
C30 0.029 0.017 0.029 0.0022 -0.0006 0.0027
C35 0.035 0.02 0.048 0.005 -0.006 0.007
O1 0.042 0.035 0.065 0.0169 0.0162 0.0127
O2 0.068 0.025 0.074 0.016 0.011 0.015
O3 0.0315 0.0391 0.0342 0.013 0.002 0.0189
O5 0.054 0.0321 0.042 -0.0029 -0.0197 0.0134
O6 0.05 0.033 0.056 -0.0027 -0.021 0.007
C49 0.035 0.05 0.055 0.007 0.004 0.021
C68 0.028 0.024 0.036 0.0023 0.003 0.0093
C69 0.033 0.018 0.035 0.0013 0.002 0.0084
C70 0.027 0.021 0.028 0.0043 -0.005 -0.0026
C71 0.023 0.026 0.056 0.001 -0.005 0.009
C73 0.03 0.032 0.091 0.023 -0.022 0
C74 0.028 0.017 0.034 0.0004 -0.0029 0.0038
N10 0.025 0.0225 0.044 0.007 -0.0088 0.003
N11 0.0214 0.028 0.045 0.0074 -0.006 0.0017
N12 0.031 0.036 0.098 0.031 -0.029 -0.007
Cd9 0.02533 0.02324 0.0338 0.00763 -0.00325 -0.00017
O20 0.029 0.087 0.042 -0.005 -0.01 0.03
O22 0.062 0.048 0.043 0.0006 -0.007 0.029
C50 0.079 0.06 0.019 -0.002 -0.002 0.054
C56 0.058 0.056 0.058 0.002 -0.015 0.023
C57 0.065 0.066 0.049 -0.014 -0.011 0.047
C58 0.075 0.069 0.055 -0.014 0.005 0.035
C59 0.062 0.051 0.066 0.013 0.021 0.029
C60 0.08 0.106 0.055 0.013 -0.017 0.034
C62 0.039 0.032 0.024 0.0051 -0.001 0.013
C64 0.035 0.031 0.044 0.008 0 0.014
C65 0.041 0.046 0.077 0.012 0.009 0.021
N7 0.0221 0.0166 0.0299 0.0013 -0.0016 0.0021
N8 0.031 0.059 0.11 0.035 0.02 0.016
N9 0.029 0.026 0.034 -0.0031 -0.0087 0.01
O14 0.0199 0.0296 0.0353 0.0055 -0.0049 0.0049
loop_
_geom_bond_atom_site_label_1
_geom_bond_atom_site_label_2
_geom_bond_site_symmetry_1
_geom_bond_site_symmetry_2
H6 C12 1_555 1_555
C44 C45 1_555 1_555
C45 C46 1_555 1_555
C46 C12 1_555 1_555
H36 C46 1_555 1_555
C47 C45 1_555 1_555
O11 C44 1_555 1_555
O12 C44 1_555 1_555
Cd7 O11 1_555 1_555
O12 Cd7 1_555 1_555
Cd2 N1 1_555 1_555
H14 C25 1_555 1_555
C27 H17 1_555 1_555
H18 C27 1_555 1_555
C28 C27 1_555 1_555
H19 C28 1_555 1_555
H20 C28 1_555 1_555
N2 Cd2 1_555 1_555
H29 N2 1_555 1_555
H30 N2 1_555 1_555
N3 Cd2 1_555 1_555
H31 N3 1_555 1_555
H32 N3 1_555 1_555
O4 Cd2 1_555 1_555
N13 Cd2 1_555 1_555
C25 N3 1_555 1_555
C27 N1 1_555 1_555
C28 N2 1_555 1_555
C13 C20 1_555 1_555
H9 C19 1_555 1_555
C20 C19 1_555 1_555
C21 C20 1_555 1_555
H10 C21 1_555 1_555
C23 C22 1_555 1_555
H11 C23 1_555 1_555
O7 C13 1_555 1_555
O8 C13 1_555 1_555
Cd7 O7 1_555 1_555
C21 C22 1_555 1_555
O8 Cd7 1_555 1_555
H23 C31 1_555 1_555
C32 C31 1_555 1_555
H24 C32 1_555 1_555
C33 C32 1_555 1_555
C34 C33 1_555 1_555
H25 C34 1_555 1_555
C36 H27 1_555 1_555
C37 H28 1_555 1_555
N4 C33 1_555 1_555
N13 C36 1_555 1_555
N6 C36 1_555 1_555
C38 C39 1_555 1_555
C39 C40 1_555 1_555
H33 C40 1_555 1_555
C41 C39 1_555 1_555
H34 C41 1_555 1_555
C42 C41 1_555 1_555
H35 C42 1_555 1_555
O9 C38 1_555 1_555
O10 C38 1_555 1_555
Cd7 O9 1_555 1_555
C51 C52 1_555 1_555
C52 C53 1_555 1_555
C53 H39 1_555 1_555
C54 C53 1_555 1_555
C55 C54 1_555 1_555
H40 C55 1_555 1_555
C61 C52 1_555 1_555
H44 C61 1_555 1_555
H47 C63 1_555 1_555
H48 C63 1_555 1_555
H54 C66 1_555 1_555
C67 C66 1_555 1_555
C72 C67 1_555 1_555
H58 C72 1_555 1_555
O13 Cd7 1_555 1_555
C37 N4 1_555 1_555
C37 N13 1_555 1_555
N4 N6 1_555 1_555
C42 C43 1_555 1_555
O10 Cd7 1_555 1_555
C51 O13 1_555 1_555
Cd1 O1 1_555 1_555
C1 C2 1_555 1_555
C2 C3 1_555 1_555
C3 H1 1_555 1_555
C4 C2 1_555 1_555
H2 C4 1_555 1_555
C5 C4 1_555 1_555
H3 C5 1_555 1_555
C6 C5 1_555 1_555
C7 C8 1_555 1_555
C8 C9 1_555 1_555
C9 H4 1_555 1_555
C10 C8 1_555 1_555
C14 C15 1_555 1_555
C15 C16 1_555 1_555
C16 H7 1_555 1_555
C17 C16 1_555 1_555
C18 C17 1_555 1_555
H8 C18 1_555 1_555
C24 C15 1_555 1_555
H12 C24 1_555 1_555
H15 C26 1_555 1_555
H16 C26 1_555 1_555
H22 C29 1_555 1_555
C30 C29 1_555 1_555
C35 C30 1_555 1_555
H26 C35 1_555 1_555
O1 C1 1_555 1_555
O2 Cd1 1_555 1_555
O3 Cd1 1_555 1_555
O5 Cd1 1_555 1_555
O6 Cd1 1_555 1_555
C49 C9 1_555 1_555
H38 C49 1_555 1_555
H55 C68 1_555 1_555
C69 C68 1_555 1_555
H56 C69 1_555 1_555
C70 C69 1_555 1_555
C71 C70 1_555 1_555
H57 C71 1_555 1_555
C73 H59 1_555 1_555
C74 H60 1_555 1_555
N10 C70 1_555 1_555
N11 C73 1_555 1_555
N12 C73 1_555 1_555
Cd9 N11 1_555 1_555
O20 Cd1 1_555 1_555
O22 Cd1 1_555 1_555
C1 O2 1_555 1_555
C7 O5 1_555 1_555
C7 O6 1_555 1_555
C14 O3 1_555 1_555
C74 N10 1_555 1_555
C74 N11 1_555 1_555
N10 N12 1_555 1_555
C50 C57 1_555 1_555
H41 C56 1_555 1_555
C57 C56 1_555 1_555
C58 C57 1_555 1_555
H42 C58 1_555 1_555
C60 C59 1_555 1_555
H43 C60 1_555 1_555
O20 C50 1_555 1_555
O22 C50 1_555 1_555
C58 C59 1_555 1_555
Cd9 N7 1_555 1_555
H46 C62 1_555 1_555
C64 H49 1_555 1_555
H50 C64 1_555 1_555
C65 C64 1_555 1_555
H51 C65 1_555 1_555
H52 C65 1_555 1_555
N8 Cd9 1_555 1_555
H61 N8 1_555 1_555
H62 N8 1_555 1_555
N9 Cd9 1_555 1_555
H63 N9 1_555 1_555
H64 N9 1_555 1_555
O14 Cd9 1_555 1_555
C62 N9 1_555 1_555
C64 N7 1_555 1_555
C65 N8 1_555 1_555

#END
