
###############################################################################
#
# This file contains modified crystal structure data generated from the
# MOF subset of the Cambridge Structural Database (CSD) v543 
# hosted by the Cambridge Crystallographic Data Centre (CCDC).
#
# This work is licensed under the Creative Commons
# Attribution-NonCommercial-ShareAlike 4.0 International License.
# To view a copy of this license, visit
# http://creativecommons.org/licenses/by-nc-sa/4.0/
# or send a letter to
# Creative Commons, PO Box 1866, Mountain View, CA 94042, USA.
#
# CIF created using the CSD Python API on 29 September 2022
# The structure has been converted into the P1 space group
# The structure has a 3D framework
# The original CSD entry XEFXOZ is in the monoclinic crystal system
# The framework has been calculated to contain at least 10.0% void space
# The void calculation uses a probe of radius 1.32A, grid spacing 0.4
# The framework is charged, counterions have been retained in the structure
#
###############################################################################

data_XEFXOZ
_chemical_formula_moiety         '(C118 H134 N16 O40 Zn8 4+)n'
_symmetry_cell_setting           triclinic
_symmetry_space_group_name_H-M   'P 1'
_symmetry_Int_Tables_number      1
_space_group_name_Hall           'P 1'
loop_
_symmetry_equiv_pos_site_id
_symmetry_equiv_pos_as_xyz
1 x,y,z
_cell_length_a                   40.094(2)
_cell_length_b                   13.0784(10)
_cell_length_c                   18.2044(11)
_cell_angle_alpha                90
_cell_angle_beta                 109.282(3)
_cell_angle_gamma                90
_cell_volume                     9010.29
loop_
_atom_site_label
_atom_site_type_symbol
_atom_site_fract_x
_atom_site_fract_y
_atom_site_fract_z
O6 O 0.05390(12) 0.0308(5) 0.2887(3)
O8 O 0.01537(13) 0.0334(5) 0.3513(3)
C14 C 0.04465(17) 0.0104(7) 0.3449(5)
Zn5 Zn 0.02854(2) 0.10939(11) 0.19931(6)
Zn1 Zn 0.47146(2) 0.39061(11) 0.80069(6)
O1 O 0.44610(12) 0.4692(5) 0.7113(3)
O2 O 0.45272(13) 0.5923(6) 0.3848(3)
O3 O 0.48463(13) 0.4666(5) 0.6487(3)
N1 N 0.34208(16) 0.6590(6) 0.5350(4)
H1 H 0.3450 0.6838 0.5816
O4 O 0.40648(16) 0.6922(6) 0.3360(4)
C1 C 0.45535(17) 0.4896(7) 0.6551(5)
C2 C 0.43975(9) 0.5663(4) 0.5218(3)
H2 H 0.4619 0.5440 0.5192
C3 C 0.41599(11) 0.6164(4) 0.4587(2)
C4 C 0.38360(10) 0.6490(4) 0.4625(3)
H3 H 0.3674 0.6832 0.4194
C5 C 0.37498(9) 0.6315(4) 0.5294(3)
C6 C 0.39874(11) 0.5815(4) 0.5925(2)
H4 H 0.3928 0.5696 0.6382
C7 C 0.43112(10) 0.5489(4) 0.5887(2)
C8 C 0.2828(2) 0.7346(8) 0.4905(5)
C9 C 0.2725(2) 0.6750(8) 0.5412(5)
H5 H 0.2876 0.6223 0.5696
C10 C 0.4251(2) 0.6375(8) 0.3870(5)
C11 C 0.3183(2) 0.7179(9) 0.4771(5)
H6 H 0.3139 0.6838 0.4262
H7 H 0.3292 0.7852 0.4747
C12 C 0.2605(2) 0.8080(8) 0.4491(5)
H8 H 0.2672 0.8484 0.4130
O5 O 0.4828(3) 0.2612(7) 0.7874(5)
C13 C 0.5000 0.2267(17) 0.7500
H9 H 0.5000 0.1541 0.7500
O7 O 0.04728(13) 0.9077(6) 0.6152(3)
N2 N 0.15792(16) 0.8410(6) 0.4650(4)
H10 H 0.1550 0.8162 0.4184
O9 O 0.09352(16) 0.8078(6) 0.6640(4)
C15 C 0.06025(9) 0.9337(4) 0.4782(3)
H11 H 0.0381 0.9560 0.4808
C16 C 0.08401(11) 0.8836(4) 0.5413(2)
C17 C 0.11640(10) 0.8510(4) 0.5375(3)
H12 H 0.1326 0.8168 0.5806
C18 C 0.12502(9) 0.8685(4) 0.4706(3)
C19 C 0.10126(11) 0.9185(4) 0.4075(2)
H13 H 0.1072 0.9304 0.3618
C20 C 0.06888(10) 0.9511(4) 0.4113(2)
C21 C 0.2172(2) 0.7654(8) 0.5095(5)
C22 C 0.2275(2) 0.8250(8) 0.4588(5)
H14 H 0.2124 0.8777 0.4304
C23 C 0.0749(2) 0.8625(8) 0.6130(5)
C24 C 0.1817(2) 0.7821(9) 0.5229(5)
H15 H 0.1861 0.8162 0.5738
H16 H 0.1708 0.7148 0.5253
C25 C 0.2395(2) 0.6920(8) 0.5509(5)
H17 H 0.2328 0.6516 0.5870
O10 O 0.5172(3) 0.2612(7) 0.7126(5)
Zn2 Zn 0.52854(2) 0.39061(11) 0.69931(6)
Zn3 Zn 0.02854(2) 0.89061(11) 0.69931(6)
Zn4 Zn 0.47146(2) 0.60939(11) 0.30069(6)
O11 O 0.55390(12) 0.4692(5) 0.7887(3)
O12 O 0.54728(13) 0.4077(6) 0.6152(3)
O13 O 0.45272(13) 0.4077(6) 0.8848(3)
O14 O 0.51537(13) 0.4666(5) 0.8513(3)
Zn6 Zn 0.97146(2) 0.10939(11) 0.30069(6)
O6_2 O 0.94610(12) 0.0308(5) 0.2113(3)
O8_2 O 0.98463(13) 0.0334(5) 0.1487(3)
C14_2 C 0.95535(17) 0.0104(7) 0.1551(5)
O2_2 O 0.54728(13) 0.5923(6) 0.1152(3)
O4_2 O 0.59352(16) 0.6922(6) 0.1640(4)
C3_2 C 0.58401(11) 0.6164(4) 0.0413(2)
C4_2 C 0.61640(10) 0.6490(4) 0.0375(3)
H3_2 H 0.6326 0.6832 0.0806
C8_2 C 0.7172(2) 0.7346(8) 0.0095(5)
C10_2 C 0.5749(2) 0.6375(8) 0.1130(5)
C11_2 C 0.6817(2) 0.7179(9) 0.0229(5)
H6_2 H 0.6861 0.6838 0.0738
H7_2 H 0.6708 0.7852 0.0253
C12_2 C 0.7395(2) 0.8080(8) 0.0509(5)
H8_2 H 0.7328 0.8484 0.0870
N2_2 N 0.84208(16) 0.8410(6) 0.0350(4)
H10_2 H 0.8450 0.8162 0.0816
C15_2 C 0.93975(9) 0.9337(4) 0.0218(3)
H11_2 H 0.9619 0.9560 0.0192
C18_2 C 0.87498(9) 0.8685(4) 0.0294(3)
C19_2 C 0.89874(11) 0.9185(4) 0.0925(2)
H13_2 H 0.8928 0.9304 0.1382
C20_2 C 0.93112(10) 0.9511(4) 0.0887(2)
C22_2 C 0.7725(2) 0.8250(8) 0.0412(5)
H14_2 H 0.7876 0.8777 0.0696
Zn4_2 Zn 0.52854(2) 0.60939(11) 0.19931(6)
N1_2 N 0.65792(16) 0.6590(6) 0.9650(4)
H1_2 H 0.6550 0.6838 0.9184
C1_2 C 0.54465(17) 0.4896(7) 0.8449(5)
C2_2 C 0.56025(9) 0.5663(4) 0.9782(3)
H2_2 H 0.5381 0.5440 0.9808
C5_2 C 0.62502(9) 0.6315(4) 0.9706(3)
C6_2 C 0.60126(11) 0.5815(4) 0.9075(2)
H4_2 H 0.6072 0.5696 0.8618
C7_2 C 0.56888(10) 0.5489(4) 0.9113(2)
C9_2 C 0.7275(2) 0.6750(8) 0.9588(5)
H5_2 H 0.7124 0.6223 0.9304
O7_2 O 0.95272(13) 0.9077(6) 0.8848(3)
O9_2 O 0.90648(16) 0.8078(6) 0.8360(4)
C16_2 C 0.91599(11) 0.8836(4) 0.9587(2)
C17_2 C 0.88360(10) 0.8510(4) 0.9625(3)
H12_2 H 0.8674 0.8168 0.9194
C21_2 C 0.7828(2) 0.7654(8) 0.9905(5)
C23_2 C 0.9251(2) 0.8625(8) 0.8870(5)
C24_2 C 0.8183(2) 0.7821(9) 0.9771(5)
H15_2 H 0.8139 0.8162 0.9262
H16_2 H 0.8292 0.7148 0.9747
C25_2 C 0.7605(2) 0.6920(8) 0.9491(5)
H17_2 H 0.7672 0.6516 0.9130
Zn3_2 Zn 0.97146(2) 0.89061(11) 0.80069(6)
C13_2 C -0.0000 0.7267(17) 0.7500
H9_2 H -0.0000 0.6541 0.7500
O10_2 O 0.0172(3) 0.7612(7) 0.7126(5)
O11_2 O 0.05390(12) 0.9692(5) 0.7887(3)
O14_2 O 0.01537(13) 0.9666(5) 0.8513(3)
O2_3 O 0.95272(13) 0.0923(6) 0.3848(3)
N1_3 N 0.84208(16) 0.1590(6) 0.5350(4)
H1_3 H 0.8450 0.1838 0.5816
O4_3 O 0.90648(16) 0.1922(6) 0.3360(4)
C2_3 C 0.93975(9) 0.0663(4) 0.5218(3)
H2_3 H 0.9619 0.0440 0.5192
C3_3 C 0.91599(11) 0.1164(4) 0.4587(2)
C4_3 C 0.88360(10) 0.1490(4) 0.4625(3)
H3_3 H 0.8674 0.1832 0.4194
C5_3 C 0.87498(9) 0.1315(4) 0.5294(3)
C6_3 C 0.89874(11) 0.0815(4) 0.5925(2)
H4_3 H 0.8928 0.0696 0.6382
C7_3 C 0.93112(10) 0.0489(4) 0.5887(2)
C8_3 C 0.7828(2) 0.2346(8) 0.4905(5)
C9_3 C 0.7725(2) 0.1750(8) 0.5412(5)
H5_3 H 0.7876 0.1223 0.5696
C10_3 C 0.9251(2) 0.1375(8) 0.3870(5)
C11_3 C 0.8183(2) 0.2179(9) 0.4771(5)
H6_3 H 0.8139 0.1838 0.4262
H7_3 H 0.8292 0.2852 0.4747
C12_3 C 0.7605(2) 0.3080(8) 0.4491(5)
H8_3 H 0.7672 0.3484 0.4130
O6_3 O 0.55390(12) 0.5308(5) 0.2887(3)
O8_3 O 0.51537(13) 0.5334(5) 0.3513(3)
N2_3 N 0.65792(16) 0.3410(6) 0.4650(4)
H10_3 H 0.6550 0.3162 0.4184
O9_3 O 0.59352(16) 0.3078(6) 0.6640(4)
C14_3 C 0.54465(17) 0.5104(7) 0.3449(5)
C15_3 C 0.56025(9) 0.4337(4) 0.4782(3)
H11_3 H 0.5381 0.4560 0.4808
C16_3 C 0.58401(11) 0.3836(4) 0.5413(2)
C17_3 C 0.61640(10) 0.3510(4) 0.5375(3)
H12_3 H 0.6326 0.3168 0.5806
C18_3 C 0.62502(9) 0.3685(4) 0.4706(3)
C19_3 C 0.60126(11) 0.4185(4) 0.4075(2)
H13_3 H 0.6072 0.4304 0.3618
C20_3 C 0.56888(10) 0.4511(4) 0.4113(2)
C21_3 C 0.7172(2) 0.2654(8) 0.5095(5)
C22_3 C 0.7275(2) 0.3250(8) 0.4588(5)
H14_3 H 0.7124 0.3777 0.4304
C23_3 C 0.5749(2) 0.3625(8) 0.6130(5)
C24_3 C 0.6817(2) 0.2821(9) 0.5229(5)
H15_3 H 0.6861 0.3162 0.5738
H16_3 H 0.6708 0.2148 0.5253
C25_3 C 0.7395(2) 0.1920(8) 0.5509(5)
H17_3 H 0.7328 0.1516 0.5870
O1_2 O 0.94610(12) 0.9692(5) 0.7113(3)
O3_2 O 0.98463(13) 0.9666(5) 0.6487(3)
C1_3 C 0.95535(17) 0.9896(7) 0.6551(5)
O5_2 O 0.9828(3) 0.7612(7) 0.7874(5)
C13_3 C 1.0000 0.7267(17) 0.7500
H9_3 H 1.0000 0.6541 0.7500
O2_4 O 0.04728(13) 0.0923(6) 0.1152(3)
O4_4 O 0.09352(16) 0.1922(6) 0.1640(4)
C3_4 C 0.08401(11) 0.1164(4) 0.0413(2)
C4_4 C 0.11640(10) 0.1490(4) 0.0375(3)
H3_4 H 0.1326 0.1832 0.0806
C8_4 C 0.2172(2) 0.2346(8) 0.0095(5)
C10_4 C 0.0749(2) 0.1375(8) 0.1130(5)
C11_4 C 0.1817(2) 0.2179(9) 0.0229(5)
H6_4 H 0.1861 0.1838 0.0738
H7_4 H 0.1708 0.2852 0.0253
C12_4 C 0.2395(2) 0.3080(8) 0.0509(5)
H8_4 H 0.2328 0.3484 0.0870
O6_4 O 0.44610(12) 0.5308(5) 0.2113(3)
O8_4 O 0.48463(13) 0.5334(5) 0.1487(3)
N2_4 N 0.34208(16) 0.3410(6) 0.0350(4)
H10_4 H 0.3450 0.3162 0.0816
C14_4 C 0.45535(17) 0.5104(7) 0.1551(5)
C15_4 C 0.43975(9) 0.4337(4) 0.0218(3)
H11_4 H 0.4619 0.4560 0.0192
C18_4 C 0.37498(9) 0.3685(4) 0.0294(3)
C19_4 C 0.39874(11) 0.4185(4) 0.0925(2)
H13_4 H 0.3928 0.4304 0.1382
C20_4 C 0.43112(10) 0.4511(4) 0.0887(2)
C22_4 C 0.2725(2) 0.3250(8) 0.0412(5)
H14_4 H 0.2876 0.3777 0.0696
N1_4 N 0.15792(16) 0.1590(6) 0.9650(4)
H1_4 H 0.1550 0.1838 0.9184
C2_4 C 0.06025(9) 0.0663(4) 0.9782(3)
H2_4 H 0.0381 0.0440 0.9808
C5_4 C 0.12502(9) 0.1315(4) 0.9706(3)
C6_4 C 0.10126(11) 0.0815(4) 0.9075(2)
H4_4 H 0.1072 0.0696 0.8618
C7_4 C 0.06888(10) 0.0489(4) 0.9113(2)
C9_4 C 0.2275(2) 0.1750(8) 0.9588(5)
H5_4 H 0.2124 0.1223 0.9304
O9_4 O 0.40648(16) 0.3078(6) 0.8360(4)
C16_4 C 0.41599(11) 0.3836(4) 0.9587(2)
C17_4 C 0.38360(10) 0.3510(4) 0.9625(3)
H12_4 H 0.3674 0.3168 0.9194
C21_4 C 0.2828(2) 0.2654(8) 0.9905(5)
C23_4 C 0.4251(2) 0.3625(8) 0.8870(5)
C24_4 C 0.3183(2) 0.2821(9) 0.9771(5)
H15_4 H 0.3139 0.3162 0.9262
H16_4 H 0.3292 0.2148 0.9747
C25_4 C 0.2605(2) 0.1920(8) 0.9491(5)
H17_4 H 0.2672 0.1516 0.9130
C1_4 C 0.04465(17) 0.9896(7) 0.8449(5)
O5_3 O 0.5172(3) 0.7388(7) 0.2126(5)
C13_4 C 0.5000 0.7733(17) 0.2500
H9_4 H 0.5000 0.8459 0.2500
O10_3 O 0.4828(3) 0.7388(7) 0.2874(5)
O5_4 O 0.0172(3) 0.2388(7) 0.2126(5)
C13_5 C -0.0000 0.2733(17) 0.2500
H9_5 H -0.0000 0.3459 0.2500
C13_6 C 1.0000 0.2733(17) 0.2500
H9_6 H 1.0000 0.3459 0.2500
O10_4 O 0.9828(3) 0.2388(7) 0.2874(5)
N3 N 0.4703(7) 0.322(2) 0.465(2)
H18 H 0.4709 0.3902 0.4555
H19 H 0.4905 0.3056 0.5040
C26 C 0.4663(12) 0.299(3) 0.386(2)
H20 H 0.4886 0.3030 0.3747
H21 H 0.4473 0.3297 0.3429
H22 H 0.4606 0.2269 0.3914
C27 C 0.4418(10) 0.297(3) 0.494(3)
H23 H 0.4474 0.2379 0.5293
H24 H 0.4206 0.2818 0.4496
H25 H 0.4376 0.3569 0.5218
N3_2 N 0.5297(7) 0.322(2) 0.035(2)
H18_2 H 0.5291 0.3902 0.0445
C26_2 C 0.5337(12) 0.299(3) 0.114(2)
H20_2 H 0.5114 0.3030 0.1253
H21_2 H 0.5527 0.3297 0.1571
H22_2 H 0.5394 0.2269 0.1086
C27_2 C 0.5582(10) 0.297(3) 0.006(3)
H24_2 H 0.5794 0.2818 0.0504
H19_2 H 0.5095 0.3056 0.9960
H23_2 H 0.5526 0.2379 0.9707
H25_2 H 0.5624 0.3569 0.9782
N3_3 N 0.9703(7) 0.822(2) 0.465(2)
H18_3 H 0.9709 0.8902 0.4555
H19_3 H 0.9905 0.8056 0.5040
C26_3 C 0.9663(12) 0.799(3) 0.386(2)
H20_3 H 0.9886 0.8030 0.3747
H21_3 H 0.9473 0.8297 0.3429
H22_3 H 0.9606 0.7269 0.3914
C27_3 C 0.9418(10) 0.797(3) 0.494(3)
H23_3 H 0.9474 0.7379 0.5293
H24_3 H 0.9206 0.7818 0.4496
H25_3 H 0.9376 0.8569 0.5218
N3_4 N 0.0297(7) 0.822(2) 0.035(2)
H18_4 H 0.0291 0.8902 0.0445
C26_4 C 0.0337(12) 0.799(3) 0.114(2)
H20_4 H 0.0114 0.8030 0.1253
H21_4 H 0.0527 0.8297 0.1571
H22_4 H 0.0394 0.7269 0.1086
C27_4 C 0.0582(10) 0.797(3) 0.006(3)
H24_4 H 0.0794 0.7818 0.0504
H19_4 H 0.0095 0.8056 0.9960
H23_4 H 0.0526 0.7379 0.9707
H25_4 H 0.0624 0.8569 0.9782
N3_5 N 0.5297(7) 0.678(2) 0.535(2)
H18_5 H 0.5291 0.6098 0.5445
H19_5 H 0.5095 0.6944 0.4960
C26_5 C 0.5337(12) 0.701(3) 0.614(2)
H20_5 H 0.5114 0.6970 0.6253
H21_5 H 0.5527 0.6703 0.6571
H22_5 H 0.5394 0.7731 0.6086
C27_5 C 0.5582(10) 0.703(3) 0.506(3)
H23_5 H 0.5526 0.7621 0.4707
H24_5 H 0.5794 0.7182 0.5504
H25_5 H 0.5624 0.6431 0.4782
H19_6 H 0.4905 0.6944 0.0040
H23_6 H 0.4474 0.7621 0.0293
H25_6 H 0.4376 0.6431 0.0218
N3_6 N 0.4703(7) 0.678(2) 0.965(2)
H18_6 H 0.4709 0.6098 0.9555
C26_6 C 0.4663(12) 0.701(3) 0.886(2)
H20_6 H 0.4886 0.6970 0.8747
H21_6 H 0.4473 0.6703 0.8429
H22_6 H 0.4606 0.7731 0.8914
C27_6 C 0.4418(10) 0.703(3) 0.994(3)
H24_6 H 0.4206 0.7182 0.9496
N3_7 N 0.0297(7) 0.178(2) 0.535(2)
H18_7 H 0.0291 0.1098 0.5445
H19_7 H 0.0095 0.1944 0.4960
C26_7 C 0.0337(12) 0.201(3) 0.614(2)
H20_7 H 0.0114 0.1970 0.6253
H21_7 H 0.0527 0.1703 0.6571
H22_7 H 0.0394 0.2731 0.6086
C27_7 C 0.0582(10) 0.203(3) 0.506(3)
H23_7 H 0.0526 0.2621 0.4707
H24_7 H 0.0794 0.2182 0.5504
H25_7 H 0.0624 0.1431 0.4782
H19_8 H 0.9905 0.1944 0.0040
H23_8 H 0.9474 0.2621 0.0293
H25_8 H 0.9376 0.1431 0.0218
N3_8 N 0.9703(7) 0.178(2) 0.965(2)
H18_8 H 0.9709 0.1098 0.9555
C26_8 C 0.9663(12) 0.201(3) 0.886(2)
H20_8 H 0.9886 0.1970 0.8747
H21_8 H 0.9473 0.1703 0.8429
H22_8 H 0.9606 0.2731 0.8914
C27_8 C 0.9418(10) 0.203(3) 0.994(3)
H24_8 H 0.9206 0.2182 0.9496
loop_
_geom_bond_atom_site_label_1
_geom_bond_atom_site_label_2
_geom_bond_site_symmetry_1
_geom_bond_site_symmetry_2
O6 C14 1_555 1_555
O8 C14 1_555 1_555
Zn5 O6 1_555 1_555
Zn1 O1 1_555 1_555
O1 C1 1_555 1_555
O2 C10 1_555 1_555
O3 C1 1_555 1_555
N1 H1 1_555 1_555
O4 C10 1_555 1_555
C1 C7 1_555 1_555
C2 H2 1_555 1_555
C3 C2 1_555 1_555
C4 C3 1_555 1_555
H3 C4 1_555 1_555
C5 N1 1_555 1_555
C6 C5 1_555 1_555
H4 C6 1_555 1_555
C7 C2 1_555 1_555
C8 C9 1_555 1_555
C9 H5 1_555 1_555
C10 C3 1_555 1_555
C11 N1 1_555 1_555
H6 C11 1_555 1_555
H7 C11 1_555 1_555
C12 C8 1_555 1_555
H8 C12 1_555 1_555
O5 Zn1 1_555 1_555
C13 O5 1_555 1_555
H9 C13 1_555 1_555
O7 C23 1_555 1_555
N2 H10 1_555 1_555
O9 C23 1_555 1_555
C15 H11 1_555 1_555
C16 C15 1_555 1_555
C17 C16 1_555 1_555
H12 C17 1_555 1_555
C18 N2 1_555 1_555
C19 C18 1_555 1_555
H13 C19 1_555 1_555
C20 C15 1_555 1_555
C21 C22 1_555 1_555
C22 C12 1_555 1_555
H14 C22 1_555 1_555
C23 C16 1_555 1_555
C24 N2 1_555 1_555
H15 C24 1_555 1_555
H16 C24 1_555 1_555
C25 C9 1_555 1_555
H17 C25 1_555 1_555
O10 C13 1_555 1_555
Zn2 O3 1_555 1_555
Zn3 O7 1_555 1_555
Zn4 O2 1_555 1_555
O11 Zn2 1_555 1_555
O12 Zn2 1_555 1_555
O13 Zn1 1_555 1_555
O14 Zn1 1_555 1_555
C4 C5 1_555 1_555
C6 C7 1_555 1_555
C8 C11 1_555 1_555
C17 C18 1_555 1_555
C19 C20 1_555 1_555
C21 C24 1_555 1_555
C21 C25 1_555 1_555
O10 Zn2 1_555 1_555
O6_2 C14_2 1_555 1_555
O8_2 C14_2 1_555 1_555
Zn6 O6_2 1_555 1_555
O2_2 C10_2 1_555 1_555
O4_2 C10_2 1_555 1_555
C4_2 C3_2 1_555 1_555
H3_2 C4_2 1_555 1_555
C10_2 C3_2 1_555 1_555
H6_2 C11_2 1_555 1_555
H7_2 C11_2 1_555 1_555
C12_2 C8_2 1_555 1_555
H8_2 C12_2 1_555 1_555
N2_2 H10_2 1_555 1_555
C15_2 H11_2 1_555 1_555
C18_2 N2_2 1_555 1_555
C19_2 C18_2 1_555 1_555
H13_2 C19_2 1_555 1_555
C20_2 C15_2 1_555 1_555
C22_2 C12_2 1_555 1_555
H14_2 C22_2 1_555 1_555
Zn4_2 O2_2 1_555 1_555
C8_2 C11_2 1_555 1_555
C19_2 C20_2 1_555 1_555
O11 C1_2 1_555 1_555
O14 C1_2 1_555 1_555
N1_2 H1_2 1_555 1_555
C1_2 C7_2 1_555 1_555
C2_2 H2_2 1_555 1_555
C5_2 N1_2 1_555 1_555
C6_2 C5_2 1_555 1_555
H4_2 C6_2 1_555 1_555
C7_2 C2_2 1_555 1_555
C9_2 H5_2 1_555 1_555
O7_2 C23_2 1_555 1_555
O9_2 C23_2 1_555 1_555
C17_2 C16_2 1_555 1_555
H12_2 C17_2 1_555 1_555
C23_2 C16_2 1_555 1_555
H15_2 C24_2 1_555 1_555
H16_2 C24_2 1_555 1_555
C25_2 C9_2 1_555 1_555
H17_2 C25_2 1_555 1_555
Zn3_2 O7_2 1_555 1_555
C6_2 C7_2 1_555 1_555
C21_2 C24_2 1_555 1_555
C21_2 C25_2 1_555 1_555
H9_2 C13_2 1_555 1_555
O10_2 C13_2 1_555 1_555
O11_2 Zn3 1_555 1_555
O10_2 Zn3 1_555 1_555
O2_3 C10_3 1_555 1_555
N1_3 H1_3 1_555 1_555
O4_3 C10_3 1_555 1_555
C2_3 H2_3 1_555 1_555
C3_3 C2_3 1_555 1_555
C4_3 C3_3 1_555 1_555
H3_3 C4_3 1_555 1_555
C5_3 N1_3 1_555 1_555
C6_3 C5_3 1_555 1_555
H4_3 C6_3 1_555 1_555
C7_3 C2_3 1_555 1_555
C8_3 C9_3 1_555 1_555
C9_3 H5_3 1_555 1_555
C10_3 C3_3 1_555 1_555
C11_3 N1_3 1_555 1_555
H6_3 C11_3 1_555 1_555
H7_3 C11_3 1_555 1_555
C12_3 C8_3 1_555 1_555
H8_3 C12_3 1_555 1_555
O6_3 C14_3 1_555 1_555
O12 C23_3 1_555 1_555
O8_3 C14_3 1_555 1_555
N2_3 H10_3 1_555 1_555
O9_3 C23_3 1_555 1_555
C14_3 C20_3 1_555 1_555
C15_3 H11_3 1_555 1_555
C16_3 C15_3 1_555 1_555
C17_3 C16_3 1_555 1_555
H12_3 C17_3 1_555 1_555
C18_3 N2_3 1_555 1_555
C19_3 C18_3 1_555 1_555
H13_3 C19_3 1_555 1_555
C20_3 C15_3 1_555 1_555
C21_3 C22_3 1_555 1_555
C22_3 C12_3 1_555 1_555
H14_3 C22_3 1_555 1_555
C23_3 C16_3 1_555 1_555
C24_3 N2_3 1_555 1_555
H15_3 C24_3 1_555 1_555
H16_3 C24_3 1_555 1_555
C25_3 C9_3 1_555 1_555
H17_3 C25_3 1_555 1_555
Zn6 O2_3 1_555 1_555
Zn4_2 O6_3 1_555 1_555
Zn4 O8_3 1_555 1_555
C4_3 C5_3 1_555 1_555
C6_3 C7_3 1_555 1_555
C8_3 C11_3 1_555 1_555
C17_3 C18_3 1_555 1_555
C19_3 C20_3 1_555 1_555
C21_3 C24_3 1_555 1_555
C21_3 C25_3 1_555 1_555
Zn3_2 O1_2 1_555 1_555
O1_2 C1_3 1_555 1_555
O3_2 C1_3 1_555 1_555
O5_2 Zn3_2 1_555 1_555
C13_3 O5_2 1_555 1_555
H9_3 C13_3 1_555 1_555
O2_4 C10_4 1_555 1_555
O4_4 C10_4 1_555 1_555
C4_4 C3_4 1_555 1_555
H3_4 C4_4 1_555 1_555
C10_4 C3_4 1_555 1_555
H6_4 C11_4 1_555 1_555
H7_4 C11_4 1_555 1_555
C12_4 C8_4 1_555 1_555
H8_4 C12_4 1_555 1_555
O6_4 C14_4 1_555 1_555
O8_4 C14_4 1_555 1_555
N2_4 H10_4 1_555 1_555
C14_4 C20_4 1_555 1_555
C15_4 H11_4 1_555 1_555
C18_4 N2_4 1_555 1_555
C19_4 C18_4 1_555 1_555
H13_4 C19_4 1_555 1_555
C20_4 C15_4 1_555 1_555
C22_4 C12_4 1_555 1_555
H14_4 C22_4 1_555 1_555
Zn5 O2_4 1_555 1_555
Zn4 O6_4 1_555 1_555
Zn4_2 O8_4 1_555 1_555
C8_4 C11_4 1_555 1_555
C19_4 C20_4 1_555 1_555
N1_4 H1_4 1_555 1_555
C2_4 H2_4 1_555 1_555
C5_4 N1_4 1_555 1_555
C6_4 C5_4 1_555 1_555
H4_4 C6_4 1_555 1_555
C7_4 C2_4 1_555 1_555
C9_4 H5_4 1_555 1_555
O13 C23_4 1_555 1_555
O9_4 C23_4 1_555 1_555
C17_4 C16_4 1_555 1_555
H12_4 C17_4 1_555 1_555
C23_4 C16_4 1_555 1_555
H15_4 C24_4 1_555 1_555
H16_4 C24_4 1_555 1_555
C25_4 C9_4 1_555 1_555
H17_4 C25_4 1_555 1_555
C6_4 C7_4 1_555 1_555
C21_4 C24_4 1_555 1_555
C21_4 C25_4 1_555 1_555
O11_2 C1_4 1_555 1_555
O14_2 C1_4 1_555 1_555
O5_3 Zn4_2 1_555 1_555
C13_4 O5_3 1_555 1_555
H9_4 C13_4 1_555 1_555
O10_3 C13_4 1_555 1_555
O10_3 Zn4 1_555 1_555
O5_4 Zn5 1_555 1_555
C13_5 O5_4 1_555 1_555
H9_5 C13_5 1_555 1_555
H9_6 C13_6 1_555 1_555
O10_4 C13_6 1_555 1_555
O10_4 Zn6 1_555 1_555
N3 H18 1_555 1_555
H19 N3 1_555 1_555
C26 N3 1_555 1_555
H20 C26 1_555 1_555
H21 C26 1_555 1_555
H22 C26 1_555 1_555
C27 N3 1_555 1_555
H23 C27 1_555 1_555
H24 C27 1_555 1_555
H25 C27 1_555 1_555
N3_2 H18_2 1_555 1_555
C26_2 N3_2 1_555 1_555
H20_2 C26_2 1_555 1_555
H21_2 C26_2 1_555 1_555
H22_2 C26_2 1_555 1_555
C27_2 N3_2 1_555 1_555
H24_2 C27_2 1_555 1_555
N3_3 H18_3 1_555 1_555
H19_3 N3_3 1_555 1_555
C26_3 N3_3 1_555 1_555
H20_3 C26_3 1_555 1_555
H21_3 C26_3 1_555 1_555
H22_3 C26_3 1_555 1_555
C27_3 N3_3 1_555 1_555
H23_3 C27_3 1_555 1_555
H24_3 C27_3 1_555 1_555
H25_3 C27_3 1_555 1_555
N3_4 H18_4 1_555 1_555
C26_4 N3_4 1_555 1_555
H20_4 C26_4 1_555 1_555
H21_4 C26_4 1_555 1_555
H22_4 C26_4 1_555 1_555
C27_4 N3_4 1_555 1_555
H24_4 C27_4 1_555 1_555
N3_5 H18_5 1_555 1_555
H19_5 N3_5 1_555 1_555
C26_5 N3_5 1_555 1_555
H20_5 C26_5 1_555 1_555
H21_5 C26_5 1_555 1_555
H22_5 C26_5 1_555 1_555
C27_5 N3_5 1_555 1_555
H23_5 C27_5 1_555 1_555
H24_5 C27_5 1_555 1_555
H25_5 C27_5 1_555 1_555
N3_6 H18_6 1_555 1_555
C26_6 N3_6 1_555 1_555
H20_6 C26_6 1_555 1_555
H21_6 C26_6 1_555 1_555
H22_6 C26_6 1_555 1_555
C27_6 N3_6 1_555 1_555
H24_6 C27_6 1_555 1_555
N3_7 H18_7 1_555 1_555
H19_7 N3_7 1_555 1_555
C26_7 N3_7 1_555 1_555
H20_7 C26_7 1_555 1_555
H21_7 C26_7 1_555 1_555
H22_7 C26_7 1_555 1_555
C27_7 N3_7 1_555 1_555
H23_7 C27_7 1_555 1_555
H24_7 C27_7 1_555 1_555
H25_7 C27_7 1_555 1_555
N3_8 H18_8 1_555 1_555
C26_8 N3_8 1_555 1_555
H20_8 C26_8 1_555 1_555
H21_8 C26_8 1_555 1_555
H22_8 C26_8 1_555 1_555
C27_8 N3_8 1_555 1_555
H24_8 C27_8 1_555 1_555

#END
