
###############################################################################
#
# This file contains modified crystal structure data generated from the
# MOF subset of the Cambridge Structural Database (CSD) v543 
# hosted by the Cambridge Crystallographic Data Centre (CCDC).
#
# This work is licensed under the Creative Commons
# Attribution-NonCommercial-ShareAlike 4.0 International License.
# To view a copy of this license, visit
# http://creativecommons.org/licenses/by-nc-sa/4.0/
# or send a letter to
# Creative Commons, PO Box 1866, Mountain View, CA 94042, USA.
#
# CIF created using the CSD Python API on 29 September 2022
# The structure has been converted into the P1 space group
# The structure has a 3D framework
# The original CSD entry XEFXIS is in the monoclinic crystal system
# The framework has been calculated to contain at least 10.0% void space
# The void calculation uses a probe of radius 1.32A, grid spacing 0.4
#
###############################################################################

data_XEFXIS
_chemical_formula_moiety         '(C120 H72 N16 O16 Zn2)n'
_symmetry_cell_setting           triclinic
_symmetry_space_group_name_H-M   'P 1'
_symmetry_Int_Tables_number      1
_space_group_name_Hall           'P 1'
loop_
_symmetry_equiv_pos_site_id
_symmetry_equiv_pos_as_xyz
1 x,y,z
_cell_length_a                   27.318(5)
_cell_length_b                   5.888(5)
_cell_length_c                   20.775(5)
_cell_angle_alpha                90
_cell_angle_beta                 100.112(5)
_cell_angle_gamma                90
_cell_volume                     3289.72
loop_
_atom_site_label
_atom_site_type_symbol
_atom_site_fract_x
_atom_site_fract_y
_atom_site_fract_z
C8 C 0.1689(3) 0.1674(14) 0.4187(4)
C9 C 0.1298(3) 0.0684(13) 0.3708(4)
H5 H 0.097979 0.138633 0.361977
C10 C 0.2129(4) 0.0678(18) 0.4336(5)
C13 C 0.2549(3) 0.1600(14) 0.4821(5)
C14 C 0.1607(7) 0.323(3) 0.4548(8)
H8 H 0.127574 0.371624 0.455192
C15 C 0.2952(6) 0.062(3) 0.5006(9)
O3 O 0.44492(16) 0.6350(7) 0.7147(2)
O4 O 0.3969(2) 0.9266(9) 0.7270(3)
C16 C 0.4025(3) 0.7372(12) 0.7045(3)
C17 C 0.3619(3) 0.6225(15) 0.6614(5)
C18 C 0.3311(3) 0.3326(14) 0.5813(4)
C19 C 0.3702(3) 0.4316(13) 0.6292(4)
H10 H 0.402021 0.361367 0.638023
C20 C 0.2871(4) 0.4322(18) 0.5664(5)
C21 C 0.3188(3) 0.7265(16) 0.6416(5)
H11 H 0.313722 0.866926 0.661987
C22 C 0.2790(4) 0.6461(16) 0.5922(5)
H12 H 0.249497 0.731171 0.578164
C23 C 0.2451(3) 0.3400(14) 0.5179(5)
C24 C 0.3393(7) 0.177(3) 0.5452(8)
H13 H 0.372426 0.128376 0.544808
C25 C 0.2048(6) 0.438(3) 0.4994(9)
H14 H 0.200936 0.589413 0.513291
Zn3 Zn 0.500000 0.83274(16) 0.750000
C15_2 C 0.7048(6) 0.062(3) 0.9994(9)
O3_2 O 0.55508(16) 0.6350(7) 0.7853(2)
O4_2 O 0.6031(2) 0.9266(9) 0.7730(3)
C16_2 C 0.5975(3) 0.7372(12) 0.7955(3)
C17_2 C 0.6381(3) 0.6225(15) 0.8386(5)
C18_2 C 0.6689(3) 0.3326(14) 0.9187(4)
C19_2 C 0.6298(3) 0.4316(13) 0.8708(4)
H10_2 H 0.597979 0.361367 0.861977
C20_2 C 0.7129(4) 0.4322(18) 0.9336(5)
C21_2 C 0.6812(3) 0.7265(16) 0.8584(5)
H11_2 H 0.686278 0.866926 0.838013
C22_2 C 0.7210(4) 0.6461(16) 0.9078(5)
H12_2 H 0.750503 0.731171 0.921836
C23_2 C 0.7549(3) 0.3400(14) 0.9821(5)
C24_2 C 0.6607(7) 0.177(3) 0.9548(8)
H13_2 H 0.627574 0.128376 0.955192
H14_2 H 0.799064 0.589413 0.986709
H16 H 0.541055 0.863674 0.893405
H16_2 H 0.458945 0.863674 0.606595
Zn1 Zn 0.000000 0.66726(16) 0.250000
O1 O 0.05508(16) 0.8650(7) 0.2853(2)
N1 N 0.00284(19) 0.4559(8) 0.1730(2)
O2 O 0.1031(2) 0.5734(9) 0.2730(3)
C2 C 0.0975(3) 0.7628(12) 0.2955(3)
C4 C 0.0044(3) 0.1431(11) 0.0741(4)
C5 C 0.0285(2) 0.2617(11) 0.1835(3)
H3 H 0.046804 0.232832 0.225951
C6 C 0.0295(3) 0.1011(12) 0.1350(3)
C7 C 0.1381(3) 0.8775(15) 0.3386(5)
C11 C 0.1812(3) 0.7735(16) 0.3584(5)
H6 H 0.186278 0.633074 0.338013
C12 C 0.2210(4) 0.8539(16) 0.4078(5)
H7 H 0.250503 0.768829 0.421836
H9 H 0.299064 0.910587 0.486709
C1 C 0.0232(3) 0.3475(11) 0.4376(3)
H1 H 0.041571 0.380403 0.479715
C3 C 0.0227(3) 0.4990(11) 0.3861(3)
H2 H 0.041055 0.636326 0.393405
N4 N 0.0069(2) 0.0338(10) 0.5260(2)
H18 H 0.047544 0.036407 0.644358
N2 N 0.0069(2) 0.9662(10) 0.0260(2)
H4 H 0.047544 0.963593 0.144358
C26 C 0.0232(3) 0.6525(11) 0.9376(3)
H15 H 0.041571 0.619597 0.979715
C27 C 0.0227(3) 0.5010(11) 0.8861(3)
H16_3 H 0.041055 0.363674 0.893405
Zn2 Zn 0.000000 0.33274(16) 0.750000
N3 N 0.00284(19) 0.5441(8) 0.6730(2)
C28 C 0.0044(3) 0.8569(11) 0.5741(4)
C29 C 0.0285(2) 0.7383(11) 0.6835(3)
H17 H 0.046804 0.767168 0.725951
C30 C 0.0295(3) 0.8989(12) 0.6350(3)
O3_3 O 0.05508(16) 0.1350(7) 0.7853(2)
O4_3 O 0.1031(2) 0.4266(9) 0.7730(3)
C16_3 C 0.0975(3) 0.2372(12) 0.7955(3)
C17_3 C 0.1381(3) 0.1225(15) 0.8386(5)
C21_3 C 0.1812(3) 0.2265(16) 0.8584(5)
H11_3 H 0.186278 0.366926 0.838013
C22_3 C 0.2210(4) 0.1461(16) 0.9078(5)
H12_3 H 0.250503 0.231171 0.921836
H14_3 H 0.299064 0.089413 0.986709
Zn1_2 Zn 1.000000 0.66726(16) 0.250000
C1_2 C 0.9768(3) 0.3475(11) 0.0624(3)
H1_2 H 0.958429 0.380403 0.020285
C3_2 C 0.9773(3) 0.4990(11) 0.1139(3)
H2_2 H 0.958945 0.636326 0.106595
O5 O 0.94492(16) 0.8650(7) 0.2147(2)
N5 N 0.99716(19) 0.4559(8) 0.3270(2)
O2_2 O 0.8969(2) 0.5734(9) 0.2270(3)
C2_2 C 0.9025(3) 0.7628(12) 0.2045(3)
C4_2 C 0.9956(3) 0.1431(11) 0.4259(4)
C5_2 C 0.9715(2) 0.2617(11) 0.3165(3)
H3_2 H 0.953196 0.232832 0.274049
C6_2 C 0.9705(3) 0.1011(12) 0.3650(3)
C7_2 C 0.8619(3) 0.8775(15) 0.1614(5)
C11_2 C 0.8188(3) 0.7735(16) 0.1416(5)
H6_2 H 0.813722 0.633074 0.161987
C12_2 C 0.7790(4) 0.8539(16) 0.0922(5)
H7_2 H 0.749497 0.768829 0.078164
H9_2 H 0.700936 0.910587 0.013291
N4_2 N 0.9931(2) 0.0338(10) 0.9740(2)
H18_2 H 0.952456 0.036407 0.855642
N3_2 N 0.99716(19) 0.5441(8) 0.8270(2)
C28_2 C 0.9956(3) 0.8569(11) 0.9259(4)
C29_2 C 0.9715(2) 0.7383(11) 0.8165(3)
H17_2 H 0.953196 0.767168 0.774049
C30_2 C 0.9705(3) 0.8989(12) 0.8650(3)
Zn2_2 Zn 1.000000 0.33274(16) 0.750000
N2_2 N 0.9931(2) 0.9662(10) 0.4740(2)
H4_2 H 0.952456 0.963593 0.355642
C26_2 C 0.9768(3) 0.6525(11) 0.5624(3)
H15_2 H 0.958429 0.619597 0.520285
C27_2 C 0.9773(3) 0.5010(11) 0.6139(3)
H16_4 H 0.958945 0.363674 0.606595
O3_4 O 0.94492(16) 0.1350(7) 0.7147(2)
O4_4 O 0.8969(2) 0.4266(9) 0.7270(3)
C16_4 C 0.9025(3) 0.2372(12) 0.7045(3)
C17_4 C 0.8619(3) 0.1225(15) 0.6614(5)
C21_4 C 0.8188(3) 0.2265(16) 0.6416(5)
H11_4 H 0.813722 0.366926 0.661987
C22_4 C 0.7790(4) 0.1461(16) 0.5922(5)
H12_4 H 0.749497 0.231171 0.578164
H14_4 H 0.700936 0.089413 0.513291
C8_2 C 0.8311(3) 0.1674(14) 0.0813(4)
C9_2 C 0.8702(3) 0.0684(13) 0.1292(4)
H5_2 H 0.902021 0.138633 0.138023
C10_2 C 0.7871(4) 0.0678(18) 0.0664(5)
C13_2 C 0.7451(3) 0.1600(14) 0.0179(5)
C14_2 C 0.8393(7) 0.323(3) 0.0452(8)
H8_2 H 0.872426 0.371624 0.044808
C25_2 C 0.7952(6) 0.438(3) 0.0006(9)
Zn1_3 Zn 0.500000 0.16726(16) 0.250000
O1_2 O 0.55508(16) 0.3650(7) 0.2853(2)
O2_3 O 0.6031(2) 0.0734(9) 0.2730(3)
C2_3 C 0.5975(3) 0.2628(12) 0.2955(3)
H2_3 H 0.458945 0.136326 0.106595
C7_3 C 0.6381(3) 0.3775(15) 0.3386(5)
C8_3 C 0.6689(3) 0.6674(14) 0.4187(4)
C9_3 C 0.6298(3) 0.5684(13) 0.3708(4)
H5_3 H 0.597979 0.638633 0.361977
C10_3 C 0.7129(4) 0.5678(18) 0.4336(5)
C11_3 C 0.6812(3) 0.2735(16) 0.3584(5)
H6_3 H 0.686278 0.133074 0.338013
C12_3 C 0.7210(4) 0.3539(16) 0.4078(5)
H7_3 H 0.750503 0.268829 0.421836
C13_3 C 0.7549(3) 0.6600(14) 0.4821(5)
C14_3 C 0.6607(7) 0.823(3) 0.4548(8)
H8_3 H 0.627574 0.871624 0.455192
C15_3 C 0.7952(6) 0.562(3) 0.5006(9)
H9_3 H 0.799064 0.410587 0.486709
C18_3 C 0.8311(3) 0.8326(14) 0.5813(4)
C19_3 C 0.8702(3) 0.9316(13) 0.6292(4)
H10_3 H 0.902021 0.861367 0.638023
C20_3 C 0.7871(4) 0.9322(18) 0.5664(5)
C23_3 C 0.7451(3) 0.8400(14) 0.5179(5)
C24_3 C 0.8393(7) 0.677(3) 0.5452(8)
H13_3 H 0.872426 0.628376 0.544808
C25_3 C 0.7048(6) 0.938(3) 0.4994(9)
O5_2 O 0.44492(16) 0.3650(7) 0.2147(2)
O2_4 O 0.3969(2) 0.0734(9) 0.2270(3)
C2_4 C 0.4025(3) 0.2628(12) 0.2045(3)
H2_4 H 0.541055 0.136326 0.393405
C7_4 C 0.3619(3) 0.3775(15) 0.1614(5)
C8_4 C 0.3311(3) 0.6674(14) 0.0813(4)
C9_4 C 0.3702(3) 0.5684(13) 0.1292(4)
H5_4 H 0.402021 0.638633 0.138023
C10_4 C 0.2871(4) 0.5678(18) 0.0664(5)
C11_4 C 0.3188(3) 0.2735(16) 0.1416(5)
H6_4 H 0.313722 0.133074 0.161987
C12_4 C 0.2790(4) 0.3539(16) 0.0922(5)
H7_4 H 0.249497 0.268829 0.078164
C13_4 C 0.2451(3) 0.6600(14) 0.0179(5)
C14_4 C 0.3393(7) 0.823(3) 0.0452(8)
H8_4 H 0.372426 0.871624 0.044808
H9_4 H 0.200936 0.410587 0.013291
C25_4 C 0.2952(6) 0.938(3) 0.0006(9)
C1_3 C 0.4768(3) 0.8475(11) 0.0624(3)
H1_3 H 0.458429 0.880403 0.020285
N1_2 N 0.50284(19) 0.9559(8) 0.1730(2)
C3_3 C 0.4773(3) 0.9990(11) 0.1139(3)
N2_3 N 0.5069(2) 0.4662(10) 0.0260(2)
C4_3 C 0.5044(3) 0.6431(11) 0.0741(4)
C5_3 C 0.5285(2) 0.7617(11) 0.1835(3)
H3_3 H 0.546804 0.732832 0.225951
C6_3 C 0.5295(3) 0.6011(12) 0.1350(3)
H4_3 H 0.547544 0.463593 0.144358
N5_2 N 0.49716(19) 0.9559(8) 0.3270(2)
C26_3 C 0.5232(3) 0.1525(11) 0.9376(3)
H15_3 H 0.541571 0.119597 0.979715
N3_3 N 0.49716(19) 0.0441(8) 0.8270(2)
C27_3 C 0.5227(3) 0.0010(11) 0.8861(3)
N4_3 N 0.4931(2) 0.5338(10) 0.9740(2)
C28_3 C 0.4956(3) 0.3569(11) 0.9259(4)
C29_3 C 0.4715(2) 0.2383(11) 0.8165(3)
H17_3 H 0.453196 0.267168 0.774049
C30_3 C 0.4705(3) 0.3989(12) 0.8650(3)
H18_3 H 0.452456 0.536407 0.855642
C1_4 C 0.5232(3) 0.8475(11) 0.4376(3)
H1_4 H 0.541571 0.880403 0.479715
C3_4 C 0.5227(3) 0.9990(11) 0.3861(3)
N2_4 N 0.4931(2) 0.4662(10) 0.4740(2)
C4_4 C 0.4956(3) 0.6431(11) 0.4259(4)
C5_4 C 0.4715(2) 0.7617(11) 0.3165(3)
H3_4 H 0.453196 0.732832 0.274049
C6_4 C 0.4705(3) 0.6011(12) 0.3650(3)
H4_4 H 0.452456 0.463593 0.355642
C26_4 C 0.4768(3) 0.1525(11) 0.5624(3)
H15_4 H 0.458429 0.119597 0.520285
N3_4 N 0.50284(19) 0.0441(8) 0.6730(2)
C27_4 C 0.4773(3) 0.0010(11) 0.6139(3)
N4_4 N 0.5069(2) 0.5338(10) 0.5260(2)
C28_4 C 0.5044(3) 0.3569(11) 0.5741(4)
C29_4 C 0.5285(2) 0.2383(11) 0.6835(3)
H17_4 H 0.546804 0.267168 0.725951
C30_4 C 0.5295(3) 0.3989(12) 0.6350(3)
H18_4 H 0.547544 0.536407 0.644358
C15_4 C 0.2048(6) 0.562(3) 0.9994(9)
C18_4 C 0.1689(3) 0.8326(14) 0.9187(4)
C19_4 C 0.1298(3) 0.9316(13) 0.8708(4)
H10_4 H 0.097979 0.861367 0.861977
C20_4 C 0.2129(4) 0.9322(18) 0.9336(5)
C23_4 C 0.2549(3) 0.8400(14) 0.9821(5)
C24_4 C 0.1607(7) 0.677(3) 0.9548(8)
H13_4 H 0.127574 0.628376 0.955192
loop_
_geom_bond_atom_site_label_1
_geom_bond_atom_site_label_2
_geom_bond_site_symmetry_1
_geom_bond_site_symmetry_2
C8 C9 1_555 1_555
C9 H5 1_555 1_555
C10 C8 1_555 1_555
C13 C10 1_555 1_555
C14 C8 1_555 1_555
H8 C14 1_555 1_555
C15 C13 1_555 1_555
O3 C16 1_555 1_555
O4 C16 1_555 1_555
C16 C17 1_555 1_555
C17 C19 1_555 1_555
C18 C19 1_555 1_555
C19 H10 1_555 1_555
C20 C18 1_555 1_555
C21 C17 1_555 1_555
H11 C21 1_555 1_555
C22 C20 1_555 1_555
H12 C22 1_555 1_555
C23 C13 1_555 1_555
C24 C15 1_555 1_555
H13 C24 1_555 1_555
C25 C14 1_555 1_555
H14 C25 1_555 1_555
Zn3 O3 1_555 1_555
C18 C24 1_555 1_555
C20 C23 1_555 1_555
C21 C22 1_555 1_555
C23 C25 1_555 1_555
O3_2 C16_2 1_555 1_555
O4_2 C16_2 1_555 1_555
C16_2 C17_2 1_555 1_555
C17_2 C19_2 1_555 1_555
C18_2 C19_2 1_555 1_555
C19_2 H10_2 1_555 1_555
C20_2 C18_2 1_555 1_555
C21_2 C17_2 1_555 1_555
H11_2 C21_2 1_555 1_555
C22_2 C20_2 1_555 1_555
H12_2 C22_2 1_555 1_555
C24_2 C15_2 1_555 1_555
H13_2 C24_2 1_555 1_555
Zn3 O3_2 1_555 1_555
C18_2 C24_2 1_555 1_555
C20_2 C23_2 1_555 1_555
C21_2 C22_2 1_555 1_555
Zn1 O1 1_555 1_555
O1 C2 1_555 1_555
N1 Zn1 1_555 1_555
O2 C2 1_555 1_555
C2 C7 1_555 1_555
C5 N1 1_555 1_555
H3 C5 1_555 1_555
C6 C4 1_555 1_555
C11 C7 1_555 1_555
H6 C11 1_555 1_555
H7 C12 1_555 1_555
C5 C6 1_555 1_555
C11 C12 1_555 1_555
C1 H1 1_555 1_555
C3 C1 1_555 1_555
H2 C3 1_555 1_555
C26 H15 1_555 1_555
C27 C26 1_555 1_555
H16_3 C27 1_555 1_555
C29 N3 1_555 1_555
H17 C29 1_555 1_555
C30 C28 1_555 1_555
Zn2 N3 1_555 1_555
C29 C30 1_555 1_555
O3_3 C16_3 1_555 1_555
O4_3 C16_3 1_555 1_555
C16_3 C17_3 1_555 1_555
C21_3 C17_3 1_555 1_555
H11_3 C21_3 1_555 1_555
H12_3 C22_3 1_555 1_555
Zn2 O3_3 1_555 1_555
C21_3 C22_3 1_555 1_555
C1_2 H1_2 1_555 1_555
C3_2 C1_2 1_555 1_555
H2_2 C3_2 1_555 1_555
O5 Zn1_2 1_555 1_555
N5 Zn1_2 1_555 1_555
O5 C2_2 1_555 1_555
O2_2 C2_2 1_555 1_555
C2_2 C7_2 1_555 1_555
C5_2 N5 1_555 1_555
H3_2 C5_2 1_555 1_555
C6_2 C4_2 1_555 1_555
C11_2 C7_2 1_555 1_555
H6_2 C11_2 1_555 1_555
H7_2 C12_2 1_555 1_555
C5_2 C6_2 1_555 1_555
C11_2 C12_2 1_555 1_555
C29_2 N3_2 1_555 1_555
H17_2 C29_2 1_555 1_555
C30_2 C28_2 1_555 1_555
Zn2_2 N3_2 1_555 1_555
C29_2 C30_2 1_555 1_555
C26_2 H15_2 1_555 1_555
C27_2 C26_2 1_555 1_555
H16_4 C27_2 1_555 1_555
O3_4 C16_4 1_555 1_555
O4_4 C16_4 1_555 1_555
C16_4 C17_4 1_555 1_555
C21_4 C17_4 1_555 1_555
H11_4 C21_4 1_555 1_555
H12_4 C22_4 1_555 1_555
Zn2_2 O3_4 1_555 1_555
C21_4 C22_4 1_555 1_555
C8_2 C9_2 1_555 1_555
C9_2 H5_2 1_555 1_555
C10_2 C8_2 1_555 1_555
C13_2 C10_2 1_555 1_555
C14_2 C8_2 1_555 1_555
H8_2 C14_2 1_555 1_555
C25_2 C14_2 1_555 1_555
Zn1_3 O1_2 1_555 1_555
O1_2 C2_3 1_555 1_555
O2_3 C2_3 1_555 1_555
C2_3 C7_3 1_555 1_555
C7_3 C9_3 1_555 1_555
C8_3 C9_3 1_555 1_555
C9_3 H5_3 1_555 1_555
C10_3 C8_3 1_555 1_555
C11_3 C7_3 1_555 1_555
H6_3 C11_3 1_555 1_555
C12_3 C10_3 1_555 1_555
H7_3 C12_3 1_555 1_555
C13_3 C10_3 1_555 1_555
C14_3 C8_3 1_555 1_555
H8_3 C14_3 1_555 1_555
C15_3 C13_3 1_555 1_555
H9_3 C15_3 1_555 1_555
C18_3 C19_3 1_555 1_555
C19_3 H10_3 1_555 1_555
C20_3 C18_3 1_555 1_555
C23_3 C13_3 1_555 1_555
C24_3 C15_3 1_555 1_555
H13_3 C24_3 1_555 1_555
C25_3 C14_3 1_555 1_555
O5_2 Zn1_3 1_555 1_555
C11_3 C12_3 1_555 1_555
C18_3 C24_3 1_555 1_555
C20_3 C23_3 1_555 1_555
C23_3 C25_3 1_555 1_555
O5_2 C2_4 1_555 1_555
O2_4 C2_4 1_555 1_555
C2_4 C7_4 1_555 1_555
C7_4 C9_4 1_555 1_555
C8_4 C9_4 1_555 1_555
C9_4 H5_4 1_555 1_555
C10_4 C8_4 1_555 1_555
C11_4 C7_4 1_555 1_555
H6_4 C11_4 1_555 1_555
C12_4 C10_4 1_555 1_555
H7_4 C12_4 1_555 1_555
C13_4 C10_4 1_555 1_555
C14_4 C8_4 1_555 1_555
H8_4 C14_4 1_555 1_555
C25_4 C14_4 1_555 1_555
C11_4 C12_4 1_555 1_555
C1_3 H1_3 1_555 1_555
C3_3 C1_3 1_555 1_555
N2_3 C4_3 1_555 1_555
C4_3 C1_3 1_555 1_555
C5_3 N1_2 1_555 1_555
H3_3 C5_3 1_555 1_555
C6_3 C4_3 1_555 1_555
H4_3 C6_3 1_555 1_555
N1_2 C3_3 1_555 1_555
C5_3 C6_3 1_555 1_555
C26_3 H15_3 1_555 1_555
N3_3 C27_3 1_555 1_555
C27_3 C26_3 1_555 1_555
C28_3 C26_3 1_555 1_555
C29_3 N3_3 1_555 1_555
H17_3 C29_3 1_555 1_555
C30_3 C28_3 1_555 1_555
H18_3 C30_3 1_555 1_555
N4_3 C28_3 1_555 1_555
C29_3 C30_3 1_555 1_555
C1_4 H1_4 1_555 1_555
C3_4 C1_4 1_555 1_555
N2_4 C4_4 1_555 1_555
C4_4 C1_4 1_555 1_555
C5_4 N5_2 1_555 1_555
H3_4 C5_4 1_555 1_555
C6_4 C4_4 1_555 1_555
H4_4 C6_4 1_555 1_555
C26_4 H15_4 1_555 1_555
N3_4 C27_4 1_555 1_555
C27_4 C26_4 1_555 1_555
N4_4 N2_4 1_555 1_555
C28_4 C26_4 1_555 1_555
C29_4 N3_4 1_555 1_555
H17_4 C29_4 1_555 1_555
C30_4 C28_4 1_555 1_555
H18_4 C30_4 1_555 1_555
N5_2 C3_4 1_555 1_555
C5_4 C6_4 1_555 1_555
N4_4 C28_4 1_555 1_555
C29_4 C30_4 1_555 1_555
C18_4 C19_4 1_555 1_555
C19_4 H10_4 1_555 1_555
C20_4 C18_4 1_555 1_555
C24_4 C15_4 1_555 1_555
H13_4 C24_4 1_555 1_555
C18_4 C24_4 1_555 1_555
C20_4 C23_4 1_555 1_555

#END
