
###############################################################################
#
# This file contains modified crystal structure data generated from the
# MOF subset of the Cambridge Structural Database (CSD) v543 
# hosted by the Cambridge Crystallographic Data Centre (CCDC).
#
# This work is licensed under the Creative Commons
# Attribution-NonCommercial-ShareAlike 4.0 International License.
# To view a copy of this license, visit
# http://creativecommons.org/licenses/by-nc-sa/4.0/
# or send a letter to
# Creative Commons, PO Box 1866, Mountain View, CA 94042, USA.
#
# CIF created using the CSD Python API on 29 September 2022
# The structure has been converted into the P1 space group
# The structure has a 3D framework
# The original CSD entry XEFXOY is in the triclinic crystal system
# The framework has been calculated to contain at least 10.0% void space
# The void calculation uses a probe of radius 1.32A, grid spacing 0.4
#
###############################################################################

data_XEFXOY
_chemical_formula_moiety         '(C92 H56 N8 O12 Zn4)n'
_symmetry_cell_setting           triclinic
_symmetry_space_group_name_H-M   'P 1'
_symmetry_Int_Tables_number      1
_space_group_name_Hall           'P 1'
loop_
_symmetry_equiv_pos_site_id
_symmetry_equiv_pos_as_xyz
1 x,y,z
_cell_length_a                   15.840(5)
_cell_length_b                   17.273(5)
_cell_length_c                   17.369(5)
_cell_angle_alpha                78.151(5)
_cell_angle_beta                 82.772(5)
_cell_angle_gamma                74.275(5)
_cell_volume                     4464.47
loop_
_atom_site_label
_atom_site_type_symbol
_atom_site_fract_x
_atom_site_fract_y
_atom_site_fract_z
N5 N 0.0305(2) 0.1059(2) 0.8564(2)
C1 C 0.7990(3) 0.1123(3) 0.0178(3)
C2 C 0.7945(4) 0.1121(4) 0.1048(3)
C3 C 0.8671(4) 0.0945(4) 0.1438(3)
H1 H 0.923310 0.080357 0.116376
C4 C 0.8611(4) 0.0969(4) 0.2241(3)
C5 C 0.9300(5) 0.0700(5) 0.2693(5)
H2 H 0.986717 0.048543 0.245624
C6 C 0.9204(5) 0.0728(5) 0.3531(5)
H3 H 0.970245 0.052377 0.383502
C7 C 0.8408(4) 0.1043(4) 0.3877(4)
C8 C 0.7707(4) 0.1256(4) 0.3499(4)
H4 H 0.714658 0.144579 0.375938
C9 C 0.7792(4) 0.1201(4) 0.2649(3)
C10 C 0.7029(4) 0.1413(4) 0.2235(3)
H5 H 0.646568 0.159573 0.249317
C11 C 0.7113(4) 0.1353(4) 0.1441(3)
H6 H 0.660144 0.147034 0.116205
C12 C 0.8352(4) 0.1126(4) 0.4737(3)
C13 C 0.9063(4) 0.1108(5) 0.5096(3)
H7 H 0.961830 0.106092 0.480387
C14 C 0.8991(4) 0.1156(4) 0.5880(3)
H8 H 0.950625 0.112031 0.612669
C15 C 0.8184(3) 0.1257(3) 0.6329(3)
C16 C 0.8126(3) 0.1297(3) 0.7188(2)
C17 C 0.7450(4) 0.1326(4) 0.5968(3)
H9 H 0.688554 0.143394 0.624321
C18 C 0.7553(4) 0.1232(4) 0.5150(3)
H10 H 0.705082 0.124399 0.489634
C37 C 0.5414(3) 0.1133(3) 0.9488(3)
H21 H 0.573179 0.097887 0.994746
C38 C 0.5372(3) 0.1604(3) 0.8150(3)
H22 H 0.566073 0.178640 0.766018
C39 C 0.4507(3) 0.1561(4) 0.8169(3)
H23 H 0.420000 0.172363 0.770273
C40 C 0.4107(3) 0.1279(3) 0.8875(3)
C41 C 0.4549(3) 0.1081(3) 0.9550(3)
C42 C 0.2028(3) 0.1136(3) 0.8475(3)
C43 C 0.1595(3) 0.0946(3) 0.9190(3)
H25 H 0.188590 0.082698 0.966214
C44 C 0.0735(3) 0.0931(3) 0.9212(3)
H26 H 0.042665 0.082418 0.971207
C45 C 0.0744(3) 0.1204(3) 0.7877(3)
H27 H 0.044604 0.129047 0.741319
C46 C 0.1607(3) 0.1239(4) 0.7794(3)
H28 H 0.190602 0.133030 0.728693
N1 N 0.5807(2) 0.1395(2) 0.8800(2)
N2 N 0.3216(2) 0.1206(2) 0.8977(2)
N3 N 0.2918(2) 0.1190(3) 0.8354(2)
O1 O 0.8832(2) 0.1169(2) 0.74865(17)
O2 O 0.7393(2) 0.1432(2) 0.75511(18)
O3 O 0.7581(2) 0.01495(19) 0.8823(2)
Zn1 Zn 0.71011(3) 0.13819(3) 0.87209(3)
Zn2 Zn 0.90165(3) 0.10542(3) 0.86421(3)
O9 O 0.8532(2) 0.22996(19) 0.8523(2)
O10 O 0.7085(2) 0.2576(2) 0.8595(3)
O11 O 0.87229(18) 0.09928(19) 0.98227(16)
O12 O 0.72799(19) 0.1256(2) 0.98812(17)
C19 C 0.8322(3) 0.9669(3) 0.8761(2)
C20 C 0.8336(3) 0.8811(3) 0.8723(4)
C21 C 0.9123(3) 0.8227(3) 0.8637(4)
H11 H 0.966175 0.837429 0.861833
C22 C 0.9141(4) 0.7447(4) 0.8579(5)
H12 H 0.969478 0.706997 0.851198
C23 C 0.8388(4) 0.7187(4) 0.8612(5)
C24 C 0.7610(5) 0.7751(5) 0.8772(6)
C25 C 0.7602(4) 0.8548(3) 0.8831(4)
H13 H 0.705710 0.891574 0.895042
C26 C 0.6878(5) 0.7497(5) 0.8808(6)
H14 H 0.632584 0.786947 0.889194
C27 C 0.6893(5) 0.6697(5) 0.8728(6)
H15 H 0.634944 0.655656 0.874897
C28 C 0.7662(5) 0.6109(5) 0.8619(6)
C29 C 0.8383(4) 0.6395(3) 0.8519(4)
H16 H 0.892681 0.604102 0.837539
C30 C 0.7801(3) 0.2774(3) 0.8552(3)
C31 C 0.7766(4) 0.3646(4) 0.8533(4)
C32 C 0.6978(4) 0.4216(3) 0.8624(4)
H17 H 0.644600 0.405089 0.866862
C33 C 0.6935(4) 0.5024(4) 0.8653(5)
H18 H 0.638089 0.539628 0.872978
C34 C 0.7683(4) 0.5281(4) 0.8570(5)
C35 C 0.8453(4) 0.4732(3) 0.8437(5)
H19 H 0.898555 0.490114 0.835579
C36 C 0.8478(4) 0.3931(4) 0.8418(5)
H20 H 0.903171 0.356682 0.831821
O4 O 0.9031(2) 0.98532(19) 0.87526(19)
H24 H 0.426790 0.091110 0.004809
Zn5 Zn 0.09835(3) 0.89458(3) 0.13579(3)
C19_2 C 0.1678(3) 0.0331(3) 0.1239(2)
C20_2 C 0.1664(3) 0.1189(3) 0.1277(4)
C21_2 C 0.0877(3) 0.1773(3) 0.1363(4)
H11_2 H 0.033825 0.162571 0.138167
C22_2 C 0.0859(4) 0.2553(4) 0.1421(5)
H12_2 H 0.030522 0.293003 0.148802
C23_2 C 0.1612(4) 0.2813(4) 0.1388(5)
C24_2 C 0.2390(5) 0.2249(5) 0.1228(6)
C25_2 C 0.2398(4) 0.1452(3) 0.1169(4)
H13_2 H 0.294290 0.108426 0.104958
C26_2 C 0.3122(5) 0.2503(5) 0.1192(6)
H14_2 H 0.367416 0.213053 0.110806
C27_2 C 0.3107(5) 0.3303(5) 0.1272(6)
H15_2 H 0.365056 0.344344 0.125103
C28_2 C 0.2338(5) 0.3891(5) 0.1381(6)
C29_2 C 0.1617(4) 0.3605(3) 0.1481(4)
H16_2 H 0.107319 0.395898 0.162461
C30_2 C 0.2199(3) 0.7226(3) 0.1448(3)
C31_2 C 0.2234(4) 0.6354(4) 0.1467(4)
C32_2 C 0.3022(4) 0.5784(3) 0.1376(4)
H17_2 H 0.355400 0.594911 0.133138
C33_2 C 0.3065(4) 0.4976(4) 0.1347(5)
H18_2 H 0.361911 0.460372 0.127022
C34_2 C 0.2317(4) 0.4719(4) 0.1430(5)
C35_2 C 0.1547(4) 0.5268(3) 0.1563(5)
H19_2 H 0.101445 0.509886 0.164421
C36_2 C 0.1522(4) 0.6069(4) 0.1582(5)
H20_2 H 0.096829 0.643318 0.168179
O4_2 O 0.0969(2) 0.01468(19) 0.12474(19)
O5 O 0.1468(2) 0.77004(19) 0.1477(2)
O6 O 0.2915(2) 0.7424(2) 0.1405(3)
Zn3 Zn 0.28989(3) 0.86181(3) 0.12791(3)
O7 O 0.12771(18) 0.90072(19) 0.01773(16)
O8 O 0.27201(19) 0.8744(2) 0.01188(17)
C1_2 C 0.2010(3) 0.8877(3) 0.9822(3)
C2_2 C 0.2055(4) 0.8879(4) 0.8952(3)
C3_2 C 0.1329(4) 0.9055(4) 0.8562(3)
H1_2 H 0.076690 0.919643 0.883624
C4_2 C 0.1389(4) 0.9031(4) 0.7759(3)
C5_2 C 0.0700(5) 0.9300(5) 0.7307(5)
H2_2 H 0.013283 0.951457 0.754376
C6_2 C 0.0796(5) 0.9272(5) 0.6469(5)
H3_2 H 0.029755 0.947623 0.616498
C7_2 C 0.1592(4) 0.8957(4) 0.6123(4)
C8_2 C 0.2293(4) 0.8744(4) 0.6501(4)
H4_2 H 0.285342 0.855421 0.624062
C9_2 C 0.2208(4) 0.8799(4) 0.7351(3)
C10_2 C 0.2971(4) 0.8587(4) 0.7765(3)
H5_2 H 0.353432 0.840427 0.750683
C11_2 C 0.2887(4) 0.8647(4) 0.8559(3)
H6_2 H 0.339856 0.852966 0.883795
C12_2 C 0.1648(4) 0.8874(4) 0.5263(3)
C13_2 C 0.0937(4) 0.8892(5) 0.4904(3)
H7_2 H 0.038170 0.893908 0.519613
C14_2 C 0.1009(4) 0.8844(4) 0.4120(3)
H8_2 H 0.049375 0.887969 0.387331
C15_2 C 0.1816(3) 0.8743(3) 0.3671(3)
C16_2 C 0.1874(3) 0.8703(3) 0.2812(2)
C17_2 C 0.2550(4) 0.8674(4) 0.4032(3)
H9_2 H 0.311446 0.856606 0.375679
C18_2 C 0.2447(4) 0.8768(4) 0.4850(3)
H10_2 H 0.294918 0.875601 0.510366
C37_2 C 0.4586(3) 0.8867(3) 0.0512(3)
H21_2 H 0.426821 0.902113 0.005254
C38_2 C 0.4628(3) 0.8396(3) 0.1850(3)
H22_2 H 0.433927 0.821360 0.233982
C39_2 C 0.5493(3) 0.8439(4) 0.1831(3)
H23_2 H 0.580000 0.827637 0.229727
C40_2 C 0.5893(3) 0.8721(3) 0.1125(3)
C41_2 C 0.5451(3) 0.8919(3) 0.0450(3)
C42_2 C 0.7972(3) 0.8864(3) 0.1525(3)
C43_2 C 0.8405(3) 0.9054(3) 0.0810(3)
H25_2 H 0.811410 0.917302 0.033786
C44_2 C 0.9265(3) 0.9069(3) 0.0788(3)
H26_2 H 0.957335 0.917582 0.028793
C45_2 C 0.9256(3) 0.8796(3) 0.2123(3)
H27_2 H 0.955396 0.870953 0.258681
C46_2 C 0.8393(3) 0.8761(4) 0.2206(3)
H28_2 H 0.809398 0.866970 0.271307
N1_2 N 0.4193(2) 0.8605(2) 0.1200(2)
N2_2 N 0.6784(2) 0.8794(2) 0.1023(2)
N3_2 N 0.7082(2) 0.8810(3) 0.1646(2)
N4 N 0.9695(2) 0.8941(2) 0.1436(2)
O1_2 O 0.1168(2) 0.8831(2) 0.25135(17)
O2_2 O 0.2607(2) 0.8568(2) 0.24489(18)
O3_2 O 0.2419(2) 0.98505(19) 0.1177(2)
H24_2 H 0.573210 0.908890 0.995191
loop_
_geom_bond_atom_site_label_1
_geom_bond_atom_site_label_2
_geom_bond_site_symmetry_1
_geom_bond_site_symmetry_2
C1 C2 1_555 1_555
C2 C3 1_555 1_555
C3 H1 1_555 1_555
C4 C3 1_555 1_555
C5 C4 1_555 1_555
H2 C5 1_555 1_555
C6 C5 1_555 1_555
H3 C6 1_555 1_555
C7 C6 1_555 1_555
C8 C7 1_555 1_555
H4 C8 1_555 1_555
C9 C4 1_555 1_555
C10 C9 1_555 1_555
H5 C10 1_555 1_555
C11 C2 1_555 1_555
H6 C11 1_555 1_555
C12 C7 1_555 1_555
C13 C12 1_555 1_555
H7 C13 1_555 1_555
C14 C13 1_555 1_555
H8 C14 1_555 1_555
C15 C14 1_555 1_555
C16 C15 1_555 1_555
C17 C15 1_555 1_555
H9 C17 1_555 1_555
C18 C12 1_555 1_555
H10 C18 1_555 1_555
C37 H21 1_555 1_555
C38 H22 1_555 1_555
C39 C38 1_555 1_555
H23 C39 1_555 1_555
C40 C39 1_555 1_555
C41 C37 1_555 1_555
C42 C43 1_555 1_555
C43 H25 1_555 1_555
C44 C43 1_555 1_555
H26 C44 1_555 1_555
C45 H27 1_555 1_555
C46 C42 1_555 1_555
H28 C46 1_555 1_555
N1 C37 1_555 1_555
N2 C40 1_555 1_555
N3 C42 1_555 1_555
N5 C44 1_555 1_555
O1 C16 1_555 1_555
O2 C16 1_555 1_555
Zn1 N1 1_555 1_555
Zn2 O1 1_555 1_555
O9 Zn2 1_555 1_555
O10 Zn1 1_555 1_555
O11 Zn2 1_555 1_555
O12 Zn1 1_555 1_555
C8 C9 1_555 1_555
C10 C11 1_555 1_555
C17 C18 1_555 1_555
C38 N1 1_555 1_555
C40 C41 1_555 1_555
C45 C46 1_555 1_555
C45 N5 1_555 1_555
N2 N3 1_555 1_555
O2 Zn1 1_555 1_555
O3 Zn1 1_555 1_555
C19 C20 1_555 1_555
C20 C21 1_555 1_555
C21 H11 1_555 1_555
C22 C21 1_555 1_555
H12 C22 1_555 1_555
C23 C22 1_555 1_555
C24 C23 1_555 1_555
C25 C20 1_555 1_555
H13 C25 1_555 1_555
C26 C24 1_555 1_555
H14 C26 1_555 1_555
C27 C26 1_555 1_555
H15 C27 1_555 1_555
C28 C27 1_555 1_555
C29 C23 1_555 1_555
H16 C29 1_555 1_555
C30 C31 1_555 1_555
C31 C32 1_555 1_555
C32 H17 1_555 1_555
C33 C32 1_555 1_555
H18 C33 1_555 1_555
C34 C28 1_555 1_555
C35 C34 1_555 1_555
H19 C35 1_555 1_555
C36 C31 1_555 1_555
H20 C36 1_555 1_555
O4 C19 1_555 1_555
O9 C30 1_555 1_555
O10 C30 1_555 1_555
C24 C25 1_555 1_555
C28 C29 1_555 1_555
C33 C34 1_555 1_555
C35 C36 1_555 1_555
C19_2 C20_2 1_555 1_555
C20_2 C21_2 1_555 1_555
C21_2 H11_2 1_555 1_555
C22_2 C21_2 1_555 1_555
H12_2 C22_2 1_555 1_555
C23_2 C22_2 1_555 1_555
C24_2 C23_2 1_555 1_555
C25_2 C20_2 1_555 1_555
H13_2 C25_2 1_555 1_555
C26_2 C24_2 1_555 1_555
H14_2 C26_2 1_555 1_555
C27_2 C26_2 1_555 1_555
H15_2 C27_2 1_555 1_555
C28_2 C27_2 1_555 1_555
C29_2 C23_2 1_555 1_555
H16_2 C29_2 1_555 1_555
C30_2 C31_2 1_555 1_555
C31_2 C32_2 1_555 1_555
C32_2 H17_2 1_555 1_555
C33_2 C32_2 1_555 1_555
H18_2 C33_2 1_555 1_555
C34_2 C28_2 1_555 1_555
C35_2 C34_2 1_555 1_555
H19_2 C35_2 1_555 1_555
C36_2 C31_2 1_555 1_555
H20_2 C36_2 1_555 1_555
O4_2 C19_2 1_555 1_555
O5 C30_2 1_555 1_555
O6 C30_2 1_555 1_555
Zn3 O6 1_555 1_555
Zn5 O5 1_555 1_555
C24_2 C25_2 1_555 1_555
C28_2 C29_2 1_555 1_555
C33_2 C34_2 1_555 1_555
C35_2 C36_2 1_555 1_555
Zn3 O8 1_555 1_555
Zn5 O7 1_555 1_555
C1_2 C2_2 1_555 1_555
C2_2 C3_2 1_555 1_555
C3_2 H1_2 1_555 1_555
C4_2 C3_2 1_555 1_555
C5_2 C4_2 1_555 1_555
H2_2 C5_2 1_555 1_555
C6_2 C5_2 1_555 1_555
H3_2 C6_2 1_555 1_555
C7_2 C6_2 1_555 1_555
C8_2 C7_2 1_555 1_555
H4_2 C8_2 1_555 1_555
C9_2 C4_2 1_555 1_555
C10_2 C9_2 1_555 1_555
H5_2 C10_2 1_555 1_555
C11_2 C2_2 1_555 1_555
H6_2 C11_2 1_555 1_555
C12_2 C7_2 1_555 1_555
C13_2 C12_2 1_555 1_555
H7_2 C13_2 1_555 1_555
C14_2 C13_2 1_555 1_555
H8_2 C14_2 1_555 1_555
C15_2 C14_2 1_555 1_555
C16_2 C15_2 1_555 1_555
C17_2 C15_2 1_555 1_555
H9_2 C17_2 1_555 1_555
C18_2 C12_2 1_555 1_555
H10_2 C18_2 1_555 1_555
C37_2 H21_2 1_555 1_555
C38_2 H22_2 1_555 1_555
C39_2 C38_2 1_555 1_555
H23_2 C39_2 1_555 1_555
C40_2 C39_2 1_555 1_555
C41_2 C37_2 1_555 1_555
C42_2 C43_2 1_555 1_555
C43_2 H25_2 1_555 1_555
C44_2 C43_2 1_555 1_555
H26_2 C44_2 1_555 1_555
C45_2 H27_2 1_555 1_555
C46_2 C42_2 1_555 1_555
H28_2 C46_2 1_555 1_555
N1_2 C37_2 1_555 1_555
N2_2 C40_2 1_555 1_555
N3_2 C42_2 1_555 1_555
N4 C44_2 1_555 1_555
O1_2 C16_2 1_555 1_555
O2_2 C16_2 1_555 1_555
Zn3 N1_2 1_555 1_555
Zn5 O1_2 1_555 1_555
C8_2 C9_2 1_555 1_555
C10_2 C11_2 1_555 1_555
C17_2 C18_2 1_555 1_555
C38_2 N1_2 1_555 1_555
C40_2 C41_2 1_555 1_555
C45_2 C46_2 1_555 1_555
C45_2 N4 1_555 1_555
N2_2 N3_2 1_555 1_555
O2_2 Zn3 1_555 1_555
O3_2 Zn3 1_555 1_555

#END
