
###############################################################################
#
# This file contains modified crystal structure data generated from the
# MOF subset of the Cambridge Structural Database (CSD) v543 
# hosted by the Cambridge Crystallographic Data Centre (CCDC).
#
# This work is licensed under the Creative Commons
# Attribution-NonCommercial-ShareAlike 4.0 International License.
# To view a copy of this license, visit
# http://creativecommons.org/licenses/by-nc-sa/4.0/
# or send a letter to
# Creative Commons, PO Box 1866, Mountain View, CA 94042, USA.
#
# CIF created using the CSD Python API on 29 September 2022
# The structure has been converted into the P1 space group
# The structure has a 3D framework
# The original CSD entry XEGRAF is in the monoclinic crystal system
# The framework has been calculated to contain at least 10.0% void space
# The void calculation uses a probe of radius 1.32A, grid spacing 0.4
#
###############################################################################

data_XEGRAF
_chemical_formula_moiety         '(C96 H64 Cd6 N36)n'
_symmetry_cell_setting           triclinic
_symmetry_space_group_name_H-M   'P 1'
_symmetry_Int_Tables_number      1
_space_group_name_Hall           'P 1'
loop_
_symmetry_equiv_pos_site_id
_symmetry_equiv_pos_as_xyz
1 x,y,z
_cell_length_a                   21.111(4)
_cell_length_b                   18.172(3)
_cell_length_c                   6.9278(12)
_cell_angle_alpha                90
_cell_angle_beta                 105.913(3)
_cell_angle_gamma                90
_cell_volume                     2555.86
loop_
_atom_site_label
_atom_site_type_symbol
_atom_site_fract_x
_atom_site_fract_y
_atom_site_fract_z
H15 H 0.0092 0.2792 0.5156
Cd5 Cd -0.0000 0.42456(3) 0.7500
Cd1 Cd 0.5000 0.07544(3) 0.2500
N1 N 0.3796(2) 0.1151(3) 0.4384(7)
N2 N 0.4353(2) 0.0748(2) 0.4808(7)
N3 N 0.4265(2) 0.0150(3) 0.5793(7)
N4 N 0.3665(2) 0.0144(3) 0.6075(7)
C1 C 0.3389(3) 0.0757(3) 0.5180(8)
C2 C 0.2706(3) 0.0975(4) 0.5073(10)
C3 C 0.2388(4) 0.0645(5) 0.6362(13)
H1 H 0.2600 0.0281 0.7245
C4 C 0.1771(5) 0.0853(6) 0.6333(17)
H2 H 0.1567 0.0648 0.7238
C5 C 0.1442(4) 0.1373(6) 0.4953(16)
H3 H 0.1015 0.1509 0.4933
C6 C 0.1734(3) 0.1690(4) 0.3616(12)
C7 C 0.2375(3) 0.1490(3) 0.3701(10)
H4 H 0.2584 0.1706 0.2824
C8 C 0.1366(3) 0.2234(4) 0.2129(10)
C9 C 0.1679(3) 0.2806(4) 0.1387(10)
H5 H 0.2136 0.2840 0.1781
C10 C 0.1314(3) 0.3321(4) 0.0077(10)
C11 C 0.0366(4) 0.2797(5) 0.0200(15)
C12 C 0.0694(4) 0.2253(5) 0.1470(15)
H8 H 0.0453 0.1889 0.1890
N6 N 0.6204(2) 0.1151(3) 0.0616(7)
N7 N 0.5647(2) 0.0748(2) 0.0192(7)
N10 N 0.9345(2) 0.3314(3) 0.5531(8)
C17 C 0.8558(4) 0.1373(6) 0.0047(16)
H11 H 0.8985 0.1509 0.0067
C18 C 0.8266(3) 0.1690(4) 0.1384(12)
C19 C 0.7625(3) 0.1490(3) 0.1299(10)
H12 H 0.7416 0.1706 0.2176
C20 C 0.8634(3) 0.2234(4) 0.2871(10)
C21 C 0.8321(3) 0.2806(4) 0.3613(10)
H13 H 0.7864 0.2840 0.3219
C22 C 0.8686(3) 0.3321(4) 0.4923(10)
H14 H 0.8464 0.3689 0.5406
C23 C 0.9634(4) 0.2797(5) 0.4800(15)
C24 C 0.9306(4) 0.2253(5) 0.3530(15)
H16 H 0.9547 0.1889 0.3110
Cd5_2 Cd 1.0000 0.42456(3) 0.7500
N13 N 0.4345(2) 0.1686(3) 0.0531(8)
N14 N 0.5655(2) 0.1686(3) 0.4469(8)
N5 N 0.0655(2) 0.3314(3) 0.9469(8)
H6 H 0.1536 0.3689 0.9594
N8 N 0.5735(2) 0.0150(3) 0.9207(7)
N9 N 0.6335(2) 0.0144(3) 0.8925(7)
C13 C 0.6611(3) 0.0757(3) 0.9820(8)
C14 C 0.7294(3) 0.0975(4) 0.9927(10)
C15 C 0.7612(4) 0.0645(5) 0.8638(13)
H9 H 0.7400 0.0281 0.7755
C16 C 0.8229(5) 0.0853(6) 0.8667(17)
H10 H 0.8433 0.0648 0.7762
Cd3 Cd 0.5000 0.92456(3) 0.7500
N11 N 0.5735(2) 0.9850(3) 0.4207(7)
N12 N 0.4265(2) 0.9850(3) 0.0793(7)
H7 H 0.9908 0.2792 0.9844
Cd1_2 Cd 0.0000 0.57544(3) 0.2500
N6_2 N 0.1204(2) 0.6151(3) 0.0616(7)
N7_2 N 0.0647(2) 0.5748(2) 0.0192(7)
N10_2 N 0.4345(2) 0.8314(3) 0.5531(8)
C17_2 C 0.3558(4) 0.6373(6) 0.0047(16)
H11_2 H 0.3985 0.6509 0.0067
C18_2 C 0.3266(3) 0.6690(4) 0.1384(12)
C19_2 C 0.2625(3) 0.6490(3) 0.1299(10)
H12_2 H 0.2416 0.6706 0.2176
C20_2 C 0.3634(3) 0.7234(4) 0.2871(10)
C21_2 C 0.3321(3) 0.7806(4) 0.3613(10)
H13_2 H 0.2864 0.7840 0.3219
C22_2 C 0.3686(3) 0.8321(4) 0.4923(10)
H14_2 H 0.3464 0.8689 0.5406
C23_2 C 0.4634(4) 0.7797(5) 0.4800(15)
H15_2 H 0.5092 0.7792 0.5156
C24_2 C 0.4306(4) 0.7253(5) 0.3530(15)
H16_2 H 0.4547 0.6889 0.3110
N11_2 N 0.0735(2) 0.4850(3) 0.4207(7)
N14_2 N 0.0655(2) 0.6686(3) 0.4469(8)
N8_2 N 0.0735(2) 0.5150(3) 0.9207(7)
N9_2 N 0.1335(2) 0.5144(3) 0.8925(7)
C13_2 C 0.1611(3) 0.5757(3) 0.9820(8)
C14_2 C 0.2294(3) 0.5975(4) 0.9927(10)
C15_2 C 0.2612(4) 0.5645(5) 0.8638(13)
H9_2 H 0.2400 0.5281 0.7755
C16_2 C 0.3229(5) 0.5853(6) 0.8667(17)
H10_2 H 0.3433 0.5648 0.7762
Cd1_3 Cd 1.0000 0.57544(3) 0.2500
N1_2 N 0.8796(2) 0.6151(3) 0.4384(7)
N2_2 N 0.9353(2) 0.5748(2) 0.4808(7)
N3_2 N 0.9265(2) 0.5150(3) 0.5793(7)
N4_2 N 0.8665(2) 0.5144(3) 0.6075(7)
C1_2 C 0.8389(3) 0.5757(3) 0.5180(8)
C2_2 C 0.7706(3) 0.5975(4) 0.5073(10)
C3_2 C 0.7388(4) 0.5645(5) 0.6362(13)
H1_2 H 0.7600 0.5281 0.7245
C4_2 C 0.6771(5) 0.5853(6) 0.6333(17)
H2_2 H 0.6567 0.5648 0.7238
C5_2 C 0.6442(4) 0.6373(6) 0.4953(16)
H3_2 H 0.6015 0.6509 0.4933
C6_2 C 0.6734(3) 0.6690(4) 0.3616(12)
C7_2 C 0.7375(3) 0.6490(3) 0.3701(10)
H4_2 H 0.7584 0.6706 0.2824
C8_2 C 0.6366(3) 0.7234(4) 0.2129(10)
C9_2 C 0.6679(3) 0.7806(4) 0.1387(10)
H5_2 H 0.7136 0.7840 0.1781
C10_2 C 0.6314(3) 0.8321(4) 0.0077(10)
C11_2 C 0.5366(4) 0.7797(5) 0.0200(15)
C12_2 C 0.5694(4) 0.7253(5) 0.1470(15)
H8_2 H 0.5453 0.6889 0.1890
N12_2 N 0.9265(2) 0.4850(3) 0.0793(7)
N13_2 N 0.9345(2) 0.6686(3) 0.0531(8)
N5_2 N 0.5655(2) 0.8314(3) 0.9469(8)
H6_2 H 0.6536 0.8689 0.9594
H7_2 H 0.4908 0.7792 0.9844
H7_3 H 0.0092 0.7208 0.0156
H6_3 H 0.8464 0.6311 0.0406
N9_3 N 0.3665(2) 0.9856(3) 0.1075(7)
C13_3 C 0.3389(3) 0.9243(3) 0.0180(8)
C14_3 C 0.2706(3) 0.9025(4) 0.0073(10)
C15_3 C 0.2388(4) 0.9355(5) 0.1362(13)
H9_3 H 0.2600 0.9719 0.2245
C16_3 C 0.1771(5) 0.9147(6) 0.1333(17)
H10_3 H 0.1567 0.9352 0.2238
N1_3 N 0.6204(2) 0.8849(3) 0.5616(7)
N2_3 N 0.5647(2) 0.9252(2) 0.5192(7)
N4_3 N 0.6335(2) 0.9856(3) 0.3925(7)
C1_3 C 0.6611(3) 0.9243(3) 0.4820(8)
C2_3 C 0.7294(3) 0.9025(4) 0.4927(10)
C3_3 C 0.7612(4) 0.9355(5) 0.3638(13)
H1_3 H 0.7400 0.9719 0.2755
C4_3 C 0.8229(5) 0.9147(6) 0.3667(17)
H2_3 H 0.8433 0.9352 0.2762
C5_3 C 0.8558(4) 0.8627(6) 0.5047(16)
H3_3 H 0.8985 0.8491 0.5067
C6_3 C 0.8266(3) 0.8310(4) 0.6384(12)
C7_3 C 0.7625(3) 0.8510(3) 0.6299(10)
H4_3 H 0.7416 0.8294 0.7176
C8_3 C 0.8634(3) 0.7766(4) 0.7871(10)
C9_3 C 0.8321(3) 0.7194(4) 0.8613(10)
H5_3 H 0.7864 0.7160 0.8219
C10_3 C 0.8686(3) 0.6679(4) 0.9923(10)
C11_3 C 0.9634(4) 0.7203(5) 0.9800(15)
C12_3 C 0.9306(4) 0.7747(5) 0.8530(15)
H8_3 H 0.9547 0.8111 0.8110
N6_3 N 0.3796(2) 0.8849(3) 0.9384(7)
N7_3 N 0.4353(2) 0.9252(2) 0.9808(7)
C17_3 C 0.1442(4) 0.8627(6) 0.9953(16)
H11_3 H 0.1015 0.8491 0.9933
C18_3 C 0.1734(3) 0.8310(4) 0.8616(12)
C19_3 C 0.2375(3) 0.8510(3) 0.8701(10)
H12_3 H 0.2584 0.8294 0.7824
C20_3 C 0.1366(3) 0.7766(4) 0.7129(10)
C21_3 C 0.1679(3) 0.7194(4) 0.6387(10)
H13_3 H 0.2136 0.7160 0.6781
C22_3 C 0.1314(3) 0.6679(4) 0.5077(10)
H14_3 H 0.1536 0.6311 0.4594
C23_3 C 0.0366(4) 0.7203(5) 0.5200(15)
C24_3 C 0.0694(4) 0.7747(5) 0.6470(15)
H16_3 H 0.0453 0.8111 0.6890
H15_3 H 0.9908 0.7208 0.4844
H6_4 H 0.3464 0.1311 0.0406
H7_4 H 0.5092 0.2208 0.0156
N1_4 N 0.1204(2) 0.3849(3) 0.5616(7)
N2_4 N 0.0647(2) 0.4252(2) 0.5192(7)
N4_4 N 0.1335(2) 0.4856(3) 0.3925(7)
C1_4 C 0.1611(3) 0.4243(3) 0.4820(8)
C2_4 C 0.2294(3) 0.4025(4) 0.4927(10)
C3_4 C 0.2612(4) 0.4355(5) 0.3638(13)
H1_4 H 0.2400 0.4719 0.2755
C4_4 C 0.3229(5) 0.4147(6) 0.3667(17)
H2_4 H 0.3433 0.4352 0.2762
C5_4 C 0.3558(4) 0.3627(6) 0.5047(16)
H3_4 H 0.3985 0.3491 0.5067
C6_4 C 0.3266(3) 0.3310(4) 0.6384(12)
C7_4 C 0.2625(3) 0.3510(3) 0.6299(10)
H4_4 H 0.2416 0.3294 0.7176
C8_4 C 0.3634(3) 0.2766(4) 0.7871(10)
C9_4 C 0.3321(3) 0.2194(4) 0.8613(10)
H5_4 H 0.2864 0.2160 0.8219
C10_4 C 0.3686(3) 0.1679(4) 0.9923(10)
C11_4 C 0.4634(4) 0.2203(5) 0.9800(15)
C12_4 C 0.4306(4) 0.2747(5) 0.8530(15)
H8_4 H 0.4547 0.3111 0.8110
N9_4 N 0.8665(2) 0.4856(3) 0.1075(7)
C13_4 C 0.8389(3) 0.4243(3) 0.0180(8)
C14_4 C 0.7706(3) 0.4025(4) 0.0073(10)
C15_4 C 0.7388(4) 0.4355(5) 0.1362(13)
H9_4 H 0.7600 0.4719 0.2245
C16_4 C 0.6771(5) 0.4147(6) 0.1333(17)
H10_4 H 0.6567 0.4352 0.2238
N6_4 N 0.8796(2) 0.3849(3) 0.9384(7)
N7_4 N 0.9353(2) 0.4252(2) 0.9808(7)
C17_4 C 0.6442(4) 0.3627(6) 0.9953(16)
H11_4 H 0.6015 0.3491 0.9933
C18_4 C 0.6734(3) 0.3310(4) 0.8616(12)
C19_4 C 0.7375(3) 0.3510(3) 0.8701(10)
H12_4 H 0.7584 0.3294 0.7824
C20_4 C 0.6366(3) 0.2766(4) 0.7129(10)
C21_4 C 0.6679(3) 0.2194(4) 0.6387(10)
H13_4 H 0.7136 0.2160 0.6781
C22_4 C 0.6314(3) 0.1679(4) 0.5077(10)
H14_4 H 0.6536 0.1311 0.4594
C23_4 C 0.5366(4) 0.2203(5) 0.5200(15)
H15_4 H 0.4908 0.2208 0.4844
C24_4 C 0.5694(4) 0.2747(5) 0.6470(15)
H16_4 H 0.5453 0.3111 0.6890
loop_
_geom_bond_atom_site_label_1
_geom_bond_atom_site_label_2
_geom_bond_site_symmetry_1
_geom_bond_site_symmetry_2
Cd1 N2 1_555 1_555
N1 N2 1_555 1_555
N2 N3 1_555 1_555
N3 N4 1_555 1_555
N4 C1 1_555 1_555
C1 N1 1_555 1_555
C2 C1 1_555 1_555
C3 C2 1_555 1_555
H1 C3 1_555 1_555
C4 C3 1_555 1_555
H2 C4 1_555 1_555
C5 C4 1_555 1_555
H3 C5 1_555 1_555
C6 C5 1_555 1_555
C7 C2 1_555 1_555
H4 C7 1_555 1_555
C8 C6 1_555 1_555
C9 C8 1_555 1_555
H5 C9 1_555 1_555
C10 C9 1_555 1_555
C12 C8 1_555 1_555
H8 C12 1_555 1_555
N6 N7 1_555 1_555
N7 Cd1 1_555 1_555
N10 C22 1_555 1_555
H11 C17 1_555 1_555
C18 C17 1_555 1_555
H12 C19 1_555 1_555
C20 C18 1_555 1_555
C21 C20 1_555 1_555
H13 C21 1_555 1_555
C22 C21 1_555 1_555
H14 C22 1_555 1_555
C23 N10 1_555 1_555
C24 C20 1_555 1_555
H16 C24 1_555 1_555
Cd5_2 N10 1_555 1_555
N13 Cd1 1_555 1_555
N14 Cd1 1_555 1_555
C6 C7 1_555 1_555
C11 C12 1_555 1_555
C18 C19 1_555 1_555
C23 C24 1_555 1_555
N9 N8 1_555 1_555
C14 C13 1_555 1_555
C15 C14 1_555 1_555
H9 C15 1_555 1_555
C16 C15 1_555 1_555
H10 C16 1_555 1_555
Cd5 N5 1_555 1_555
N9 C13 1_555 1_555
N6_2 N7_2 1_555 1_555
N7_2 Cd1_2 1_555 1_555
N10_2 C22_2 1_555 1_555
H11_2 C17_2 1_555 1_555
C18_2 C17_2 1_555 1_555
H12_2 C19_2 1_555 1_555
C20_2 C18_2 1_555 1_555
C21_2 C20_2 1_555 1_555
H13_2 C21_2 1_555 1_555
C22_2 C21_2 1_555 1_555
H14_2 C22_2 1_555 1_555
C23_2 N10_2 1_555 1_555
H15_2 C23_2 1_555 1_555
C24_2 C20_2 1_555 1_555
H16_2 C24_2 1_555 1_555
Cd3 N10_2 1_555 1_555
N11_2 Cd1_2 1_555 1_555
N14_2 Cd1_2 1_555 1_555
C18_2 C19_2 1_555 1_555
C23_2 C24_2 1_555 1_555
N9_2 N8_2 1_555 1_555
C14_2 C13_2 1_555 1_555
C15_2 C14_2 1_555 1_555
H9_2 C15_2 1_555 1_555
C16_2 C15_2 1_555 1_555
H10_2 C16_2 1_555 1_555
Cd5 N8_2 1_555 1_555
N9_2 C13_2 1_555 1_555
Cd1_3 N2_2 1_555 1_555
N1_2 N2_2 1_555 1_555
N2_2 N3_2 1_555 1_555
N3_2 N4_2 1_555 1_555
N4_2 C1_2 1_555 1_555
C1_2 N1_2 1_555 1_555
C2_2 C1_2 1_555 1_555
C3_2 C2_2 1_555 1_555
H1_2 C3_2 1_555 1_555
C4_2 C3_2 1_555 1_555
H2_2 C4_2 1_555 1_555
C5_2 C4_2 1_555 1_555
H3_2 C5_2 1_555 1_555
C6_2 C5_2 1_555 1_555
C7_2 C2_2 1_555 1_555
H4_2 C7_2 1_555 1_555
C8_2 C6_2 1_555 1_555
C9_2 C8_2 1_555 1_555
H5_2 C9_2 1_555 1_555
C10_2 C9_2 1_555 1_555
C12_2 C8_2 1_555 1_555
H8_2 C12_2 1_555 1_555
Cd5_2 N3_2 1_555 1_555
N12_2 Cd1_3 1_555 1_555
N13_2 Cd1_3 1_555 1_555
C6_2 C7_2 1_555 1_555
C11_2 C12_2 1_555 1_555
Cd3 N5_2 1_555 1_555
N9_3 N12 1_555 1_555
C14_3 C13_3 1_555 1_555
C15_3 C14_3 1_555 1_555
H9_3 C15_3 1_555 1_555
C16_3 C15_3 1_555 1_555
H10_3 C16_3 1_555 1_555
N9_3 C13_3 1_555 1_555
Cd3 N2_3 1_555 1_555
N1_3 N2_3 1_555 1_555
N2_3 N11 1_555 1_555
N11 N4_3 1_555 1_555
N4_3 C1_3 1_555 1_555
C1_3 N1_3 1_555 1_555
C2_3 C1_3 1_555 1_555
C3_3 C2_3 1_555 1_555
H1_3 C3_3 1_555 1_555
C4_3 C3_3 1_555 1_555
H2_3 C4_3 1_555 1_555
C5_3 C4_3 1_555 1_555
H3_3 C5_3 1_555 1_555
C6_3 C5_3 1_555 1_555
C7_3 C2_3 1_555 1_555
H4_3 C7_3 1_555 1_555
C8_3 C6_3 1_555 1_555
C9_3 C8_3 1_555 1_555
H5_3 C9_3 1_555 1_555
C10_3 C9_3 1_555 1_555
C12_3 C8_3 1_555 1_555
H8_3 C12_3 1_555 1_555
N6_3 N7_3 1_555 1_555
N7_3 Cd3 1_555 1_555
N14_2 C22_3 1_555 1_555
H11_3 C17_3 1_555 1_555
C18_3 C17_3 1_555 1_555
H12_3 C19_3 1_555 1_555
C20_3 C18_3 1_555 1_555
C21_3 C20_3 1_555 1_555
H13_3 C21_3 1_555 1_555
C22_3 C21_3 1_555 1_555
H14_3 C22_3 1_555 1_555
C23_3 N14_2 1_555 1_555
C24_3 C20_3 1_555 1_555
H16_3 C24_3 1_555 1_555
C6_3 C7_3 1_555 1_555
C11_3 C12_3 1_555 1_555
C18_3 C19_3 1_555 1_555
C23_3 C24_3 1_555 1_555
Cd5 N2_4 1_555 1_555
N1_4 N2_4 1_555 1_555
N2_4 N11_2 1_555 1_555
N11_2 N4_4 1_555 1_555
N4_4 C1_4 1_555 1_555
C1_4 N1_4 1_555 1_555
C2_4 C1_4 1_555 1_555
C3_4 C2_4 1_555 1_555
H1_4 C3_4 1_555 1_555
C4_4 C3_4 1_555 1_555
H2_4 C4_4 1_555 1_555
C5_4 C4_4 1_555 1_555
H3_4 C5_4 1_555 1_555
C6_4 C5_4 1_555 1_555
C7_4 C2_4 1_555 1_555
H4_4 C7_4 1_555 1_555
C8_4 C6_4 1_555 1_555
C9_4 C8_4 1_555 1_555
H5_4 C9_4 1_555 1_555
C10_4 C9_4 1_555 1_555
C12_4 C8_4 1_555 1_555
H8_4 C12_4 1_555 1_555
C6_4 C7_4 1_555 1_555
C11_4 C12_4 1_555 1_555
N9_4 N12_2 1_555 1_555
C14_4 C13_4 1_555 1_555
C15_4 C14_4 1_555 1_555
H9_4 C15_4 1_555 1_555
C16_4 C15_4 1_555 1_555
H10_4 C16_4 1_555 1_555
N9_4 C13_4 1_555 1_555
N6_4 N7_4 1_555 1_555
N7_4 Cd5_2 1_555 1_555
N14 C22_4 1_555 1_555
H11_4 C17_4 1_555 1_555
C18_4 C17_4 1_555 1_555
H12_4 C19_4 1_555 1_555
C20_4 C18_4 1_555 1_555
C21_4 C20_4 1_555 1_555
H13_4 C21_4 1_555 1_555
C22_4 C21_4 1_555 1_555
H14_4 C22_4 1_555 1_555
C23_4 N14 1_555 1_555
H15_4 C23_4 1_555 1_555
C24_4 C20_4 1_555 1_555
H16_4 C24_4 1_555 1_555
C18_4 C19_4 1_555 1_555
C23_4 C24_4 1_555 1_555

#END
