
###############################################################################
#
# This file contains modified crystal structure data generated from the
# MOF subset of the Cambridge Structural Database (CSD) v543 
# hosted by the Cambridge Crystallographic Data Centre (CCDC).
#
# This work is licensed under the Creative Commons
# Attribution-NonCommercial-ShareAlike 4.0 International License.
# To view a copy of this license, visit
# http://creativecommons.org/licenses/by-nc-sa/4.0/
# or send a letter to
# Creative Commons, PO Box 1866, Mountain View, CA 94042, USA.
#
# CIF created using the CSD Python API on 29 September 2022
# The structure has been converted into the P1 space group
# The structure has a 3D framework
# The original CSD entry XEHFUL02 is in the orthorhombic crystal system
# The original CSD entry XEHFUL02 is in a Sohncke space group
# The framework has been calculated to contain at least 10.0% void space
# The void calculation uses a probe of radius 1.32A, grid spacing 0.4
# H atom positions have been added when not included in the experimental data
# Generated hydrogen atom positions removed from atoms on special positions
#
###############################################################################

data_XEHFUL02
_chemical_formula_moiety         '(C16 H32 O52 Y12)n'
_symmetry_cell_setting           triclinic
_symmetry_space_group_name_H-M   'P 1'
_symmetry_Int_Tables_number      1
_space_group_name_Hall           'P 1'
loop_
_symmetry_equiv_pos_site_id
_symmetry_equiv_pos_as_xyz
1 x,y,z
_cell_length_a                   7.8177(7)
_cell_length_b                   14.943(1)
_cell_length_c                   9.4845(7)
_cell_angle_alpha                90
_cell_angle_beta                 90
_cell_angle_gamma                90
_cell_volume                     1107.98
loop_
_atom_site_label
_atom_site_type_symbol
_atom_site_fract_x
_atom_site_fract_y
_atom_site_fract_z
Y1 Y 0.0000 0.2932(5) 0.2500
Y2 Y 0.0000 0.7074(5) 0.2500
O6 O 0.0000 0.143(3) 0.2500
O7 O 0.0000 0.871(3) 0.2500
C3 C 0.100(1) 0.507(1) 0.247(5)
O8 O 0.169(2) 0.4290(9) 0.254(3)
O9 O 0.166(3) 0.5815(9) 0.217(2)
O10 O 0.253(2) 0.263(1) 0.113(1)
O14 O 0.0498(9) 0.3149(6) 0.495(2)
O16 O 0.270(2) 0.263(1) 0.377(1)
O17 O 0.247(2) 0.763(1) 0.387(1)
O19 O 0.0498(9) 0.6851(6) 0.505(2)
O21 O 0.230(2) 0.763(1) 0.123(1)
Y5 Y 0.0000 0.2926(5) 0.7500
Y6 Y 0.5000 0.2074(5) 0.2500
H2 H 0.119706 0.120849 0.252833
H4 H 0.116417 0.893151 0.226857
O11 O 0.4502(9) 0.1851(6) 0.995(2)
O12 O 0.230(2) 0.237(1) 0.877(1)
C4 C 0.308(1) 0.225(1) 0.997(2)
Y7 Y 0.5000 0.2068(5) 0.7500
Y1_2 Y 1.0000 0.2932(5) 0.2500
Y2_2 Y 1.0000 0.7074(5) 0.2500
O1 O 0.831(2) 0.4290(9) 0.246(3)
O2 O 0.834(3) 0.5815(9) 0.283(2)
C1 C 0.900(1) 0.507(1) 0.253(5)
O3 O 0.747(2) 0.263(1) 0.387(1)
O4 O 0.5498(9) 0.1851(6) 0.505(2)
O5 O 0.770(2) 0.237(1) 0.623(1)
C2 C 0.692(1) 0.225(1) 0.503(2)
O6_2 O 1.0000 0.143(3) 0.2500
O7_2 O 1.0000 0.871(3) 0.2500
O13 O 0.9502(9) 0.3149(6) 0.005(2)
O15 O 0.730(2) 0.263(1) 0.123(1)
O18 O 0.753(2) 0.763(1) 0.113(1)
O22 O 0.770(2) 0.763(1) 0.377(1)
Y5_2 Y 1.0000 0.2926(5) 0.7500
H1 H 0.943124 0.120849 0.163134
H3 H 0.966107 0.893151 0.344674
O20 O 0.9502(9) 0.6851(6) 0.995(2)
O4_2 O 0.4502(9) 0.8149(6) 0.005(2)
C2_2 C 0.308(1) 0.775(1) 0.003(2)
Y4 Y 0.5000 0.7932(5) 0.2500
Y1_3 Y -0.0000 0.7068(5) 0.7500
O1_2 O 0.169(2) 0.5710(9) 0.746(3)
O2_2 O 0.166(3) 0.4185(9) 0.783(2)
C1_2 C 0.100(1) 0.493(1) 0.753(5)
O3_2 O 0.253(2) 0.737(1) 0.887(1)
O6_3 O -0.0000 0.857(3) 0.7500
O7_3 O -0.0000 0.129(3) 0.7500
O15_2 O 0.270(2) 0.737(1) 0.623(1)
O18_2 O 0.247(2) 0.237(1) 0.613(1)
Y3 Y 0.5000 0.7926(5) 0.7500
H1_2 H 0.056876 0.879151 0.663134
H3_2 H 0.0338927 0.106849 0.844674
Y1_4 Y 1.0000 0.7068(5) 0.7500
O6_4 O 1.0000 0.857(3) 0.7500
O7_4 O 1.0000 0.129(3) 0.7500
C3_2 C 0.900(1) 0.493(1) 0.747(5)
O8_2 O 0.831(2) 0.5710(9) 0.754(3)
O9_2 O 0.834(3) 0.4185(9) 0.717(2)
O10_2 O 0.747(2) 0.737(1) 0.613(1)
O11_2 O 0.5498(9) 0.8149(6) 0.495(2)
C4_2 C 0.692(1) 0.775(1) 0.497(2)
O16_2 O 0.730(2) 0.737(1) 0.877(1)
O17_2 O 0.753(2) 0.237(1) 0.887(1)
H2_2 H 0.880294 0.879151 0.752833
H4_2 H 0.883583 0.106849 0.726857
H2_3 H 0.119706 0.879151 0.747167
H4_3 H 0.116417 0.106849 0.773143
H1_3 H 0.943124 0.879151 0.836866
H3_3 H 0.966107 0.106849 0.655326
H1_4 H 0.056876 0.120849 0.336866
H3_4 H 0.0338927 0.893151 0.155326
H2_4 H 0.880294 0.120849 0.247167
H4_4 H 0.883583 0.893151 0.273143
O2_3 O 0.334(3) 0.0815(9) 0.283(2)
C1_3 C 0.400(1) 0.007(1) 0.253(5)
O7_5 O 0.5000 0.371(3) 0.2500
C3_3 C 0.600(1) 0.007(1) 0.247(5)
O9_3 O 0.666(3) 0.0815(9) 0.217(2)
O1_3 O 0.331(2) 0.9290(9) 0.246(3)
C2_3 C 0.192(1) 0.725(1) 0.503(2)
O6_5 O 0.5000 0.643(3) 0.2500
O8_3 O 0.669(2) 0.9290(9) 0.254(3)
C4_3 C 0.808(1) 0.725(1) 0.997(2)
C2_4 C 0.808(1) 0.275(1) 0.003(2)
O1_4 O 0.669(2) 0.0710(9) 0.746(3)
O6_6 O 0.5000 0.357(3) 0.7500
O8_4 O 0.331(2) 0.0710(9) 0.754(3)
C4_4 C 0.192(1) 0.275(1) 0.497(2)
O2_4 O 0.666(3) 0.9185(9) 0.783(2)
C1_4 C 0.600(1) 0.993(1) 0.753(5)
O7_6 O 0.5000 0.629(3) 0.7500
C3_4 C 0.400(1) 0.993(1) 0.747(5)
O9_4 O 0.334(3) 0.9185(9) 0.717(2)
loop_
_geom_bond_atom_site_label_1
_geom_bond_atom_site_label_2
_geom_bond_site_symmetry_1
_geom_bond_site_symmetry_2
O6 Y1 1_555 1_555
O7 Y2 1_555 1_555
C3 O8 1_555 1_555
O8 Y1 1_555 1_555
O9 Y2 1_555 1_555
O10 Y1 1_555 1_555
O14 Y1 1_555 1_555
O16 Y1 1_555 1_555
O17 Y2 1_555 1_555
O19 Y2 1_555 1_555
O21 Y2 1_555 1_555
Y6 O10 1_555 1_555
C3 O9 1_555 1_555
O14 Y5 1_555 1_555
O16 Y6 1_555 1_555
O6 H2 1_555 1_555
O7 H4 1_555 1_555
O11 C4 1_555 1_555
O12 C4 1_555 1_555
Y7 O11 1_555 1_555
Y5 O12 1_555 1_555
O12 Y7 1_555 1_555
Y1_2 O1 1_555 1_555
Y2_2 O2 1_555 1_555
O1 C1 1_555 1_555
O2 C1 1_555 1_555
O3 Y1_2 1_555 1_555
O4 C2 1_555 1_555
O5 C2 1_555 1_555
C2 O3 1_555 1_555
O6_2 Y1_2 1_555 1_555
O7_2 Y2_2 1_555 1_555
O13 Y1_2 1_555 1_555
O15 Y1_2 1_555 1_555
O18 Y2_2 1_555 1_555
O22 Y2_2 1_555 1_555
Y6 O3 1_555 1_555
Y7 O4 1_555 1_555
Y5_2 O5 1_555 1_555
O4 Y6 1_555 1_555
O5 Y7 1_555 1_555
O15 Y6 1_555 1_555
O6_2 H1 1_555 1_555
O7_2 H3 1_555 1_555
O4_2 C2_2 1_555 1_555
O21 C2_2 1_555 1_555
Y4 O4_2 1_555 1_555
O21 Y4 1_555 1_555
Y1_3 O1_2 1_555 1_555
Y5 O2_2 1_555 1_555
O1_2 C1_2 1_555 1_555
O2_2 C1_2 1_555 1_555
O3_2 Y1_3 1_555 1_555
O6_3 Y1_3 1_555 1_555
O7_3 Y5 1_555 1_555
O19 Y1_3 1_555 1_555
O15_2 Y1_3 1_555 1_555
O18_2 Y5 1_555 1_555
Y3 O3_2 1_555 1_555
O15_2 Y3 1_555 1_555
O6_3 H1_2 1_555 1_555
O7_3 H3_2 1_555 1_555
O6_4 Y1_4 1_555 1_555
O7_4 Y5_2 1_555 1_555
C3_2 O8_2 1_555 1_555
O8_2 Y1_4 1_555 1_555
O9_2 Y5_2 1_555 1_555
O10_2 Y1_4 1_555 1_555
O11_2 C4_2 1_555 1_555
O22 C4_2 1_555 1_555
C4_2 O10_2 1_555 1_555
O20 Y1_4 1_555 1_555
O16_2 Y1_4 1_555 1_555
O17_2 Y5_2 1_555 1_555
Y3 O10_2 1_555 1_555
Y4 O11_2 1_555 1_555
C3_2 O9_2 1_555 1_555
O11_2 Y3 1_555 1_555
O22 Y4 1_555 1_555
O16_2 Y3 1_555 1_555
O6_4 H2_2 1_555 1_555
O7_4 H4_2 1_555 1_555
O6_3 H2_3 1_555 1_555
O7_3 H4_3 1_555 1_555
O6_4 H1_3 1_555 1_555
O7_4 H3_3 1_555 1_555
O6 H1_4 1_555 1_555
O7 H3_4 1_555 1_555
O6_2 H2_4 1_555 1_555
O7_2 H4_4 1_555 1_555
Y6 O2_3 1_555 1_555
O2_3 C1_3 1_555 1_555
C1_3 C3_3 1_555 1_555
O7_5 Y6 1_555 1_555
O9_3 Y6 1_555 1_555
C3_3 O9_3 1_555 1_555
Y4 O1_3 1_555 1_555
O17 Y4 1_555 1_555
O19 C2_3 1_555 1_555
O15_2 C2_3 1_555 1_555
C2_3 O17 1_555 1_555
O6_5 Y4 1_555 1_555
O8_3 Y4 1_555 1_555
O18 Y4 1_555 1_555
O20 C4_3 1_555 1_555
O16_2 C4_3 1_555 1_555
O13 C2_4 1_555 1_555
O15 C2_4 1_555 1_555
Y7 O1_4 1_555 1_555
O17_2 Y7 1_555 1_555
O6_6 Y7 1_555 1_555
O8_4 Y7 1_555 1_555
O18_2 Y7 1_555 1_555
O14 C4_4 1_555 1_555
O16 C4_4 1_555 1_555
C4_4 O18_2 1_555 1_555
Y3 O2_4 1_555 1_555
O2_4 C1_4 1_555 1_555
C1_4 C3_4 1_555 1_555
O7_6 Y3 1_555 1_555
O9_4 Y3 1_555 1_555
C3_4 O9_4 1_555 1_555

#END
