
###############################################################################
#
# This file contains modified crystal structure data generated from the
# MOF subset of the Cambridge Structural Database (CSD) v543 
# hosted by the Cambridge Crystallographic Data Centre (CCDC).
#
# This work is licensed under the Creative Commons
# Attribution-NonCommercial-ShareAlike 4.0 International License.
# To view a copy of this license, visit
# http://creativecommons.org/licenses/by-nc-sa/4.0/
# or send a letter to
# Creative Commons, PO Box 1866, Mountain View, CA 94042, USA.
#
# CIF created using the CSD Python API on 29 September 2022
# The structure has been converted into the P1 space group
# The structure has a 3D framework
# The original CSD entry XEHHUR is in the monoclinic crystal system
# The framework has been calculated to contain at least 10.0% void space
# The void calculation uses a probe of radius 1.32A, grid spacing 0.4
#
###############################################################################

data_XEHHUR
_chemical_formula_moiety         '(C108 H104 Cu4 O56 P16)n'
_symmetry_cell_setting           triclinic
_symmetry_space_group_name_H-M   'P 1'
_symmetry_Int_Tables_number      1
_space_group_name_Hall           'P 1'
loop_
_symmetry_equiv_pos_site_id
_symmetry_equiv_pos_as_xyz
1 x,y,z
_cell_length_a                   27.933(7)
_cell_length_b                   12.094(3)
_cell_length_c                   10.560(2)
_cell_angle_alpha                90
_cell_angle_beta                 99.607(7)
_cell_angle_gamma                90
_cell_volume                     3517.37
loop_
_atom_site_label
_atom_site_type_symbol
_atom_site_fract_x
_atom_site_fract_y
_atom_site_fract_z
P1 P 0.68747(5) 0.74860(10) 0.34416(11)
P2 P 0.68596(5) 0.10005(10) 0.34830(11)
O1 O 0.72899(11) 0.6704(3) 0.3275(3)
O2 O 0.69038(12) 0.0353(3) 0.2289(3)
O3 O 0.69224(12) 0.8023(3) 0.4744(3)
O4 O 0.73025(12) 0.1829(3) 0.3789(3)
H1 H 0.7456 0.1838 0.3170
O5 O 0.77632(13) 0.0536(3) 0.6102(3)
H2 H 0.7659 0.1173 0.5715
H3 H 0.8042 0.0408 0.5787
O6 O 0.68446(12) 0.0321(3) 0.4668(3)
H4 H 0.6539(4) 0.019(3) 0.470(3)
O7 O 0.68253(13) 0.8281(3) 0.2283(3)
H5 H 0.6820 0.8937 0.2543
C1 C 0.63262(18) 0.6693(4) 0.3197(4)
C2 C 0.54604(17) 0.5474(4) 0.2715(5)
C3 C 0.59575(18) 0.6887(4) 0.3893(5)
H6 H 0.6000 0.7434 0.4548
C4 C 0.55257(19) 0.6296(4) 0.3649(5)
H7 H 0.5273 0.6454 0.4124
C5 C 0.5000 0.4813(6) 0.2500
C6 C 0.55532(19) 0.2254(4) 0.1899(5)
H8 H 0.5320 0.2123 0.1150
C7 C 0.58284(18) 0.5287(4) 0.1997(5)
H9 H 0.5786 0.4741 0.1341
C8 C 0.62546(18) 0.5889(4) 0.2233(5)
H10 H 0.6502 0.5756 0.1734
C9 C 0.57947(19) 0.3187(4) 0.3900(5)
H11 H 0.5731 0.3711 0.4521
C10 C 0.6218(2) 0.2579(4) 0.4113(5)
H12 H 0.6442 0.2676 0.4889
C11 C 0.54558(17) 0.3035(4) 0.2769(5)
C12 C 0.63213(17) 0.1822(4) 0.3200(5)
C13 C 0.59832(19) 0.1653(4) 0.2088(5)
H13 H 0.6046 0.1131 0.1464
C14 C 0.5000 0.3689(6) 0.2500
P3 P 0.31253(5) 0.74860(10) 0.15584(11)
P4 P 0.31404(5) 0.10005(10) 0.15170(11)
O8 O 0.27101(11) 0.6704(3) 0.1725(3)
O9 O 0.30962(12) 0.0353(3) 0.2711(3)
O10 O 0.30776(12) 0.8023(3) 0.0256(3)
O11 O 0.26975(12) 0.1829(3) 0.1211(3)
H14 H 0.2544 0.1838 0.1830
O12 O 0.31554(12) 0.0321(3) 0.0332(3)
H15 H 0.3461(4) 0.019(3) 0.030(3)
O13 O 0.31747(13) 0.8281(3) 0.2717(3)
H16 H 0.3180 0.8937 0.2457
C15 C 0.36738(18) 0.6693(4) 0.1803(4)
C16 C 0.45396(17) 0.5474(4) 0.2285(5)
C17 C 0.40425(18) 0.6887(4) 0.1107(5)
H17 H 0.4000 0.7434 0.0452
C18 C 0.44743(19) 0.6296(4) 0.1351(5)
H18 H 0.4727 0.6454 0.0876
C19 C 0.44468(19) 0.2254(4) 0.3101(5)
H19 H 0.4680 0.2123 0.3850
C20 C 0.41716(18) 0.5287(4) 0.3003(5)
H20 H 0.4214 0.4741 0.3659
C21 C 0.37454(18) 0.5889(4) 0.2767(5)
H21 H 0.3498 0.5756 0.3266
C22 C 0.42053(19) 0.3187(4) 0.1100(5)
H22 H 0.4269 0.3711 0.0479
C23 C 0.3782(2) 0.2579(4) 0.0887(5)
H23 H 0.3558 0.2676 0.0111
C24 C 0.45442(17) 0.3035(4) 0.2231(5)
C25 C 0.36787(17) 0.1822(4) 0.1800(5)
C26 C 0.40168(19) 0.1653(4) 0.2912(5)
H24 H 0.3954 0.1131 0.3536
Cu3 Cu 0.72730(2) 0.92912(5) 0.56233(5)
Cu5 Cu 0.27270(2) 0.07088(5) 0.43767(5)
Cu6 Cu 0.72730(2) 0.07088(5) 0.06233(5)
Cu7 Cu 0.77270(2) 0.57088(5) 0.43767(5)
Cu8 Cu 0.22730(2) 0.57088(5) 0.06233(5)
O14 O 0.22368(13) 0.0536(3) 0.8898(3)
H25 H 0.2341 0.1173 0.9285
H26 H 0.1958 0.0408 0.9213
Cu4 Cu 0.27270(2) 0.92912(5) 0.93767(5)
O15 O 0.77101(11) 0.8296(3) 0.6725(3)
O18 O 0.69038(12) 0.9647(3) 0.7289(3)
O16 O 0.22899(11) 0.8296(3) 0.8275(3)
O17 O 0.30962(12) 0.9647(3) 0.7711(3)
P1_2 P 0.18747(5) 0.24860(10) 0.34416(11)
O1_2 O 0.22899(11) 0.1704(3) 0.3275(3)
O3_2 O 0.19224(12) 0.3023(3) 0.4744(3)
O7_2 O 0.18253(13) 0.3281(3) 0.2283(3)
H5_2 H 0.1820 0.3937 0.2543
C1_2 C 0.13262(18) 0.1693(4) 0.3197(4)
C2_2 C 0.04604(17) 0.0474(4) 0.2715(5)
C3_2 C 0.09575(18) 0.1887(4) 0.3893(5)
H6_2 H 0.1000 0.2434 0.4548
C4_2 C 0.05257(19) 0.1296(4) 0.3649(5)
H7_2 H 0.0273 0.1454 0.4124
C7_2 C 0.08284(18) 0.0287(4) 0.1997(5)
C8_2 C 0.12546(18) 0.0889(4) 0.2233(5)
H10_2 H 0.1502 0.0756 0.1734
Cu3_2 Cu 0.22730(2) 0.42912(5) 0.56233(5)
P2_2 P 0.18596(5) 0.60005(10) 0.34830(11)
O2_2 O 0.19038(12) 0.5353(3) 0.2289(3)
O4_2 O 0.23025(12) 0.6829(3) 0.3789(3)
H1_2 H 0.2456 0.6838 0.3170
O5_2 O 0.27632(13) 0.5536(3) 0.6102(3)
H2_2 H 0.2659 0.6173 0.5715
H3_2 H 0.3042 0.5408 0.5787
O6_2 O 0.18446(12) 0.5321(3) 0.4668(3)
H4_2 H 0.1539(4) 0.519(3) 0.470(3)
C5_2 C 0.0000 0.9813(6) 0.2500
C6_2 C 0.05532(19) 0.7254(4) 0.1899(5)
H8_2 H 0.0320 0.7123 0.1150
H9_2 H 0.0786 0.9741 0.1341
C9_2 C 0.07947(19) 0.8187(4) 0.3900(5)
H11_2 H 0.0731 0.8711 0.4521
C10_2 C 0.1218(2) 0.7579(4) 0.4113(5)
H12_2 H 0.1442 0.7676 0.4889
C11_2 C 0.04558(17) 0.8035(4) 0.2769(5)
C12_2 C 0.13213(17) 0.6822(4) 0.3200(5)
C13_2 C 0.09832(19) 0.6653(4) 0.2088(5)
H13_2 H 0.1046 0.6131 0.1464
C14_2 C 0.0000 0.8689(6) 0.2500
O15_2 O 0.27101(11) 0.3296(3) 0.6725(3)
O18_2 O 0.19038(12) 0.4647(3) 0.7289(3)
P3_2 P 0.81253(5) 0.24860(10) 0.15584(11)
O8_2 O 0.77101(11) 0.1704(3) 0.1725(3)
O10_2 O 0.80776(12) 0.3023(3) 0.0256(3)
O13_2 O 0.81747(13) 0.3281(3) 0.2717(3)
H16_2 H 0.8180 0.3937 0.2457
C15_2 C 0.86738(18) 0.1693(4) 0.1803(4)
C16_2 C 0.95396(17) 0.0474(4) 0.2285(5)
C17_2 C 0.90425(18) 0.1887(4) 0.1107(5)
H17_2 H 0.9000 0.2434 0.0452
C18_2 C 0.94743(19) 0.1296(4) 0.1351(5)
H18_2 H 0.9727 0.1454 0.0876
C20_2 C 0.91716(18) 0.0287(4) 0.3003(5)
C21_2 C 0.87454(18) 0.0889(4) 0.2767(5)
H21_2 H 0.8498 0.0756 0.3266
Cu4_2 Cu 0.77270(2) 0.42912(5) 0.93767(5)
C5_3 C 1.0000 0.9813(6) 0.2500
C14_3 C 1.0000 0.8689(6) 0.2500
P4_2 P 0.81404(5) 0.60005(10) 0.15170(11)
O9_2 O 0.80962(12) 0.5353(3) 0.2711(3)
O11_2 O 0.76975(12) 0.6829(3) 0.1211(3)
H14_2 H 0.7544 0.6838 0.1830
O12_2 O 0.81554(12) 0.5321(3) 0.0332(3)
H15_2 H 0.8461(4) 0.519(3) 0.030(3)
C19_2 C 0.94468(19) 0.7254(4) 0.3101(5)
H19_2 H 0.9680 0.7123 0.3850
H20_2 H 0.9214 0.9741 0.3659
C22_2 C 0.92053(19) 0.8187(4) 0.1100(5)
H22_2 H 0.9269 0.8711 0.0479
C23_2 C 0.8782(2) 0.7579(4) 0.0887(5)
H23_2 H 0.8558 0.7676 0.0111
C24_2 C 0.95442(17) 0.8035(4) 0.2231(5)
C25_2 C 0.86787(17) 0.6822(4) 0.1800(5)
C26_2 C 0.90168(19) 0.6653(4) 0.2912(5)
H24_2 H 0.8954 0.6131 0.3536
O14_2 O 0.72368(13) 0.5536(3) 0.8898(3)
H25_2 H 0.7341 0.6173 0.9285
H26_2 H 0.6958 0.5408 0.9213
O16_2 O 0.72899(11) 0.3296(3) 0.8275(3)
O17_2 O 0.80962(12) 0.4647(3) 0.7711(3)
O19 O 0.30776(12) 0.1977(3) 0.5256(3)
O20 O 0.69224(12) 0.1977(3) 0.9744(3)
O14_3 O 0.77632(13) 0.9464(3) 0.1102(3)
H25_3 H 0.7659 0.8827 0.0715
H26_3 H 0.8042 0.9592 0.0787
P1_3 P 0.31253(5) 0.25140(10) 0.65584(11)
P2_3 P 0.31404(5) 0.89995(10) 0.65170(11)
O4_3 O 0.26975(12) 0.8171(3) 0.6211(3)
H1_3 H 0.2544 0.8162 0.6830
O5_3 O 0.22368(13) 0.9464(3) 0.3898(3)
H2_3 H 0.2341 0.8827 0.4285
H3_3 H 0.1958 0.9592 0.4213
O6_3 O 0.31554(12) 0.9679(3) 0.5332(3)
H4_3 H 0.3461(4) 0.981(3) 0.530(3)
O7_3 O 0.31747(13) 0.1719(3) 0.7717(3)
H5_3 H 0.3180 0.1063 0.7457
C1_3 C 0.36738(18) 0.3307(4) 0.6803(4)
C2_3 C 0.45396(17) 0.4526(4) 0.7285(5)
C3_3 C 0.40425(18) 0.3113(4) 0.6107(5)
H6_3 H 0.4000 0.2566 0.5452
C4_3 C 0.44743(19) 0.3704(4) 0.6351(5)
H7_3 H 0.4727 0.3546 0.5876
C5_4 C 0.5000 0.5187(6) 0.7500
C6_3 C 0.44468(19) 0.7746(4) 0.8101(5)
H8_3 H 0.4680 0.7877 0.8850
C7_3 C 0.41716(18) 0.4713(4) 0.8003(5)
H9_3 H 0.4214 0.5259 0.8659
C8_3 C 0.37454(18) 0.4111(4) 0.7767(5)
H10_3 H 0.3498 0.4244 0.8266
C9_3 C 0.42053(19) 0.6813(4) 0.6100(5)
H11_3 H 0.4269 0.6289 0.5479
C10_3 C 0.3782(2) 0.7421(4) 0.5887(5)
H12_3 H 0.3558 0.7324 0.5111
C11_3 C 0.45442(17) 0.6965(4) 0.7231(5)
C12_3 C 0.36787(17) 0.8178(4) 0.6800(5)
C13_3 C 0.40168(19) 0.8347(4) 0.7912(5)
H13_3 H 0.3954 0.8869 0.8536
C14_4 C 0.5000 0.6311(6) 0.7500
P3_3 P 0.68747(5) 0.25140(10) 0.84416(11)
P4_3 P 0.68596(5) 0.89995(10) 0.84830(11)
O11_3 O 0.73025(12) 0.8171(3) 0.8789(3)
H14_3 H 0.7456 0.8162 0.8170
O12_3 O 0.68446(12) 0.9679(3) 0.9668(3)
H15_3 H 0.6539(4) 0.981(3) 0.970(3)
O13_3 O 0.68253(13) 0.1719(3) 0.7283(3)
H16_3 H 0.6820 0.1063 0.7543
C15_3 C 0.63262(18) 0.3307(4) 0.8197(4)
C16_3 C 0.54604(17) 0.4526(4) 0.7715(5)
C17_3 C 0.59575(18) 0.3113(4) 0.8893(5)
H17_3 H 0.6000 0.2566 0.9548
C18_3 C 0.55257(19) 0.3704(4) 0.8649(5)
H18_3 H 0.5273 0.3546 0.9124
C19_3 C 0.55532(19) 0.7746(4) 0.6899(5)
H19_3 H 0.5320 0.7877 0.6150
C20_3 C 0.58284(18) 0.4713(4) 0.6997(5)
H20_3 H 0.5786 0.5259 0.6341
C21_3 C 0.62546(18) 0.4111(4) 0.7233(5)
H21_3 H 0.6502 0.4244 0.6734
C22_3 C 0.57947(19) 0.6813(4) 0.8900(5)
H22_3 H 0.5731 0.6289 0.9521
C23_3 C 0.6218(2) 0.7421(4) 0.9113(5)
H23_3 H 0.6442 0.7324 0.9889
C24_3 C 0.54558(17) 0.6965(4) 0.7769(5)
C25_3 C 0.63213(17) 0.8178(4) 0.8200(5)
C26_3 C 0.59832(19) 0.8347(4) 0.7088(5)
H24_3 H 0.6046 0.8869 0.6464
O14_4 O 0.27632(13) 0.4464(3) 0.1102(3)
H25_4 H 0.2659 0.3827 0.0715
H26_4 H 0.3042 0.4592 0.0787
C5_5 C 0.0000 0.0187(6) 0.7500
C14_5 C 0.0000 0.1311(6) 0.7500
P4_4 P 0.18596(5) 0.39995(10) 0.84830(11)
O11_4 O 0.23025(12) 0.3171(3) 0.8789(3)
H14_4 H 0.2456 0.3162 0.8170
O12_4 O 0.18446(12) 0.4679(3) 0.9668(3)
H15_4 H 0.1539(4) 0.481(3) 0.970(3)
C19_4 C 0.05532(19) 0.2746(4) 0.6899(5)
H19_4 H 0.0320 0.2877 0.6150
H20_4 H 0.0786 0.0259 0.6341
C22_4 C 0.07947(19) 0.1813(4) 0.8900(5)
H22_4 H 0.0731 0.1289 0.9521
C23_4 C 0.1218(2) 0.2421(4) 0.9113(5)
H23_4 H 0.1442 0.2324 0.9889
C24_4 C 0.04558(17) 0.1965(4) 0.7769(5)
C25_4 C 0.13213(17) 0.3178(4) 0.8200(5)
C26_4 C 0.09832(19) 0.3347(4) 0.7088(5)
H24_4 H 0.1046 0.3869 0.6464
O20_2 O 0.19224(12) 0.6977(3) 0.9744(3)
P3_4 P 0.18747(5) 0.75140(10) 0.84416(11)
O13_4 O 0.18253(13) 0.6719(3) 0.7283(3)
H16_4 H 0.1820 0.6063 0.7543
C15_4 C 0.13262(18) 0.8307(4) 0.8197(4)
C16_4 C 0.04604(17) 0.9526(4) 0.7715(5)
C17_4 C 0.09575(18) 0.8113(4) 0.8893(5)
H17_4 H 0.1000 0.7566 0.9548
C18_4 C 0.05257(19) 0.8704(4) 0.8649(5)
H18_4 H 0.0273 0.8546 0.9124
C20_4 C 0.08284(18) 0.9713(4) 0.6997(5)
C21_4 C 0.12546(18) 0.9111(4) 0.7233(5)
H21_4 H 0.1502 0.9244 0.6734
P2_4 P 0.81404(5) 0.39995(10) 0.65170(11)
O4_4 O 0.76975(12) 0.3171(3) 0.6211(3)
H1_4 H 0.7544 0.3162 0.6830
O5_4 O 0.72368(13) 0.4464(3) 0.3898(3)
H2_4 H 0.7341 0.3827 0.4285
H3_4 H 0.6958 0.4592 0.4213
O6_4 O 0.81554(12) 0.4679(3) 0.5332(3)
H4_4 H 0.8461(4) 0.481(3) 0.530(3)
C5_6 C 1.0000 0.0187(6) 0.7500
C6_4 C 0.94468(19) 0.2746(4) 0.8101(5)
H8_4 H 0.9680 0.2877 0.8850
H9_4 H 0.9214 0.0259 0.8659
C9_4 C 0.92053(19) 0.1813(4) 0.6100(5)
H11_4 H 0.9269 0.1289 0.5479
C10_4 C 0.8782(2) 0.2421(4) 0.5887(5)
H12_4 H 0.8558 0.2324 0.5111
C11_4 C 0.95442(17) 0.1965(4) 0.7231(5)
C12_4 C 0.86787(17) 0.3178(4) 0.6800(5)
C13_4 C 0.90168(19) 0.3347(4) 0.7912(5)
H13_4 H 0.8954 0.3869 0.8536
C14_6 C 1.0000 0.1311(6) 0.7500
O19_2 O 0.80776(12) 0.6977(3) 0.5256(3)
P1_4 P 0.81253(5) 0.75140(10) 0.65584(11)
O7_4 O 0.81747(13) 0.6719(3) 0.7717(3)
H5_4 H 0.8180 0.6063 0.7457
C1_4 C 0.86738(18) 0.8307(4) 0.6803(4)
C2_4 C 0.95396(17) 0.9526(4) 0.7285(5)
C3_4 C 0.90425(18) 0.8113(4) 0.6107(5)
H6_4 H 0.9000 0.7566 0.5452
C4_4 C 0.94743(19) 0.8704(4) 0.6351(5)
H7_4 H 0.9727 0.8546 0.5876
C7_4 C 0.91716(18) 0.9713(4) 0.8003(5)
C8_4 C 0.87454(18) 0.9111(4) 0.7767(5)
H10_4 H 0.8498 0.9244 0.8266
loop_
_geom_bond_atom_site_label_1
_geom_bond_atom_site_label_2
_geom_bond_site_symmetry_1
_geom_bond_site_symmetry_2
P1 O1 1_555 1_555
P2 O2 1_555 1_555
O1 Cu7 1_555 1_555
O2 Cu6 1_555 1_555
O3 P1 1_555 1_555
O4 P2 1_555 1_555
H1 O4 1_555 1_555
O5 H2 1_555 1_555
H3 O5 1_555 1_555
H4 O6 1_555 1_555
O7 P1 1_555 1_555
H5 O7 1_555 1_555
C1 P1 1_555 1_555
C2 C4 1_555 1_555
C3 C1 1_555 1_555
H6 C3 1_555 1_555
C4 C3 1_555 1_555
H7 C4 1_555 1_555
C5 C2 1_555 1_555
C6 H8 1_555 1_555
C7 C2 1_555 1_555
H9 C7 1_555 1_555
C8 C1 1_555 1_555
H10 C8 1_555 1_555
C9 H11 1_555 1_555
C10 C9 1_555 1_555
H12 C10 1_555 1_555
C11 C6 1_555 1_555
C12 P2 1_555 1_555
C13 C6 1_555 1_555
H13 C13 1_555 1_555
C14 C5 1_555 1_555
P3 O8 1_555 1_555
P4 O9 1_555 1_555
O8 Cu8 1_555 1_555
O9 Cu5 1_555 1_555
O10 P3 1_555 1_555
O11 P4 1_555 1_555
H14 O11 1_555 1_555
O12 P4 1_555 1_555
H15 O12 1_555 1_555
O13 P3 1_555 1_555
H16 O13 1_555 1_555
C15 P3 1_555 1_555
C16 C5 1_555 1_555
C17 C15 1_555 1_555
H17 C17 1_555 1_555
C18 C16 1_555 1_555
H18 C18 1_555 1_555
C19 H19 1_555 1_555
C20 C16 1_555 1_555
H20 C20 1_555 1_555
C21 C15 1_555 1_555
H21 C21 1_555 1_555
C22 H22 1_555 1_555
C23 C22 1_555 1_555
H23 C23 1_555 1_555
C24 C14 1_555 1_555
C25 P4 1_555 1_555
C26 C19 1_555 1_555
H24 C26 1_555 1_555
Cu3 O3 1_555 1_555
P2 O6 1_555 1_555
C7 C8 1_555 1_555
C9 C11 1_555 1_555
C10 C12 1_555 1_555
C11 C14 1_555 1_555
C12 C13 1_555 1_555
C17 C18 1_555 1_555
C19 C24 1_555 1_555
C20 C21 1_555 1_555
C22 C24 1_555 1_555
C23 C25 1_555 1_555
C25 C26 1_555 1_555
H25 O14 1_555 1_555
H26 O14 1_555 1_555
O15 Cu3 1_555 1_555
O18 Cu3 1_555 1_555
O16 Cu4 1_555 1_555
O17 Cu4 1_555 1_555
P1_2 O1_2 1_555 1_555
O1_2 Cu5 1_555 1_555
O3_2 P1_2 1_555 1_555
O7_2 P1_2 1_555 1_555
H5_2 O7_2 1_555 1_555
C1_2 P1_2 1_555 1_555
C2_2 C4_2 1_555 1_555
C3_2 C1_2 1_555 1_555
H6_2 C3_2 1_555 1_555
C4_2 C3_2 1_555 1_555
H7_2 C4_2 1_555 1_555
C7_2 C2_2 1_555 1_555
C8_2 C1_2 1_555 1_555
H10_2 C8_2 1_555 1_555
Cu3_2 O3_2 1_555 1_555
C7_2 C8_2 1_555 1_555
Cu3_2 O5_2 1_555 1_555
P2_2 O2_2 1_555 1_555
O2_2 Cu8 1_555 1_555
O4_2 P2_2 1_555 1_555
H1_2 O4_2 1_555 1_555
O5_2 H2_2 1_555 1_555
H3_2 O5_2 1_555 1_555
O6_2 Cu3_2 1_555 1_555
H4_2 O6_2 1_555 1_555
C6_2 H8_2 1_555 1_555
C9_2 H11_2 1_555 1_555
C10_2 C9_2 1_555 1_555
H12_2 C10_2 1_555 1_555
C11_2 C6_2 1_555 1_555
C12_2 P2_2 1_555 1_555
C13_2 C6_2 1_555 1_555
H13_2 C13_2 1_555 1_555
C14_2 C5_2 1_555 1_555
O15_2 Cu3_2 1_555 1_555
O18_2 Cu3_2 1_555 1_555
P2_2 O6_2 1_555 1_555
C9_2 C11_2 1_555 1_555
C10_2 C12_2 1_555 1_555
C11_2 C14_2 1_555 1_555
C12_2 C13_2 1_555 1_555
P3_2 O8_2 1_555 1_555
O8_2 Cu6 1_555 1_555
O10_2 P3_2 1_555 1_555
O13_2 P3_2 1_555 1_555
H16_2 O13_2 1_555 1_555
C15_2 P3_2 1_555 1_555
C17_2 C15_2 1_555 1_555
H17_2 C17_2 1_555 1_555
C18_2 C16_2 1_555 1_555
H18_2 C18_2 1_555 1_555
C20_2 C16_2 1_555 1_555
C21_2 C15_2 1_555 1_555
H21_2 C21_2 1_555 1_555
C17_2 C18_2 1_555 1_555
C20_2 C21_2 1_555 1_555
C14_3 C5_3 1_555 1_555
P4_2 O9_2 1_555 1_555
O9_2 Cu7 1_555 1_555
O11_2 P4_2 1_555 1_555
H14_2 O11_2 1_555 1_555
O12_2 P4_2 1_555 1_555
H15_2 O12_2 1_555 1_555
C19_2 H19_2 1_555 1_555
C22_2 H22_2 1_555 1_555
C23_2 C22_2 1_555 1_555
H23_2 C23_2 1_555 1_555
C24_2 C14_3 1_555 1_555
C25_2 P4_2 1_555 1_555
C26_2 C19_2 1_555 1_555
H24_2 C26_2 1_555 1_555
C19_2 C24_2 1_555 1_555
C22_2 C24_2 1_555 1_555
C23_2 C25_2 1_555 1_555
C25_2 C26_2 1_555 1_555
O14_2 Cu4_2 1_555 1_555
H25_2 O14_2 1_555 1_555
H26_2 O14_2 1_555 1_555
O16_2 Cu4_2 1_555 1_555
O17_2 Cu4_2 1_555 1_555
O19 Cu5 1_555 1_555
H25_3 O14_3 1_555 1_555
H26_3 O14_3 1_555 1_555
P1_3 O15_2 1_555 1_555
P2_3 O17 1_555 1_555
O19 P1_3 1_555 1_555
O4_3 P2_3 1_555 1_555
H1_3 O4_3 1_555 1_555
O5_3 H2_3 1_555 1_555
H3_3 O5_3 1_555 1_555
H4_3 O6_3 1_555 1_555
O7_3 P1_3 1_555 1_555
H5_3 O7_3 1_555 1_555
C1_3 P1_3 1_555 1_555
C2_3 C4_3 1_555 1_555
C3_3 C1_3 1_555 1_555
H6_3 C3_3 1_555 1_555
C4_3 C3_3 1_555 1_555
H7_3 C4_3 1_555 1_555
C5_4 C2_3 1_555 1_555
C6_3 H8_3 1_555 1_555
C7_3 C2_3 1_555 1_555
H9_3 C7_3 1_555 1_555
C8_3 C1_3 1_555 1_555
H10_3 C8_3 1_555 1_555
C9_3 H11_3 1_555 1_555
C10_3 C9_3 1_555 1_555
H12_3 C10_3 1_555 1_555
C11_3 C6_3 1_555 1_555
C12_3 P2_3 1_555 1_555
C13_3 C6_3 1_555 1_555
H13_3 C13_3 1_555 1_555
C14_4 C5_4 1_555 1_555
P3_3 O16_2 1_555 1_555
P4_3 O18 1_555 1_555
O20 P3_3 1_555 1_555
O11_3 P4_3 1_555 1_555
H14_3 O11_3 1_555 1_555
O12_3 P4_3 1_555 1_555
H15_3 O12_3 1_555 1_555
O13_3 P3_3 1_555 1_555
H16_3 O13_3 1_555 1_555
C15_3 P3_3 1_555 1_555
C16_3 C5_4 1_555 1_555
C17_3 C15_3 1_555 1_555
H17_3 C17_3 1_555 1_555
C18_3 C16_3 1_555 1_555
H18_3 C18_3 1_555 1_555
C19_3 H19_3 1_555 1_555
C20_3 C16_3 1_555 1_555
H20_3 C20_3 1_555 1_555
C21_3 C15_3 1_555 1_555
H21_3 C21_3 1_555 1_555
C22_3 H22_3 1_555 1_555
C23_3 C22_3 1_555 1_555
H23_3 C23_3 1_555 1_555
C24_3 C14_4 1_555 1_555
C25_3 P4_3 1_555 1_555
C26_3 C19_3 1_555 1_555
H24_3 C26_3 1_555 1_555
P2_3 O6_3 1_555 1_555
C7_3 C8_3 1_555 1_555
C9_3 C11_3 1_555 1_555
C10_3 C12_3 1_555 1_555
C11_3 C14_4 1_555 1_555
C12_3 C13_3 1_555 1_555
C17_3 C18_3 1_555 1_555
C19_3 C24_3 1_555 1_555
C20_3 C21_3 1_555 1_555
C22_3 C24_3 1_555 1_555
C23_3 C25_3 1_555 1_555
C25_3 C26_3 1_555 1_555
O14_4 Cu8 1_555 1_555
H25_4 O14_4 1_555 1_555
H26_4 O14_4 1_555 1_555
C14_5 C5_5 1_555 1_555
P4_4 O18_2 1_555 1_555
O11_4 P4_4 1_555 1_555
H14_4 O11_4 1_555 1_555
O12_4 P4_4 1_555 1_555
H15_4 O12_4 1_555 1_555
C19_4 H19_4 1_555 1_555
C22_4 H22_4 1_555 1_555
C23_4 C22_4 1_555 1_555
H23_4 C23_4 1_555 1_555
C24_4 C14_5 1_555 1_555
C25_4 P4_4 1_555 1_555
C26_4 C19_4 1_555 1_555
H24_4 C26_4 1_555 1_555
C19_4 C24_4 1_555 1_555
C22_4 C24_4 1_555 1_555
C23_4 C25_4 1_555 1_555
C25_4 C26_4 1_555 1_555
P3_4 O16 1_555 1_555
O20_2 P3_4 1_555 1_555
O13_4 P3_4 1_555 1_555
H16_4 O13_4 1_555 1_555
C15_4 P3_4 1_555 1_555
C17_4 C15_4 1_555 1_555
H17_4 C17_4 1_555 1_555
C18_4 C16_4 1_555 1_555
H18_4 C18_4 1_555 1_555
C20_4 C16_4 1_555 1_555
C21_4 C15_4 1_555 1_555
H21_4 C21_4 1_555 1_555
C17_4 C18_4 1_555 1_555
C20_4 C21_4 1_555 1_555
Cu7 O5_4 1_555 1_555
P2_4 O17_2 1_555 1_555
O4_4 P2_4 1_555 1_555
H1_4 O4_4 1_555 1_555
O5_4 H2_4 1_555 1_555
H3_4 O5_4 1_555 1_555
O6_4 Cu7 1_555 1_555
H4_4 O6_4 1_555 1_555
C6_4 H8_4 1_555 1_555
C9_4 H11_4 1_555 1_555
C10_4 C9_4 1_555 1_555
H12_4 C10_4 1_555 1_555
C11_4 C6_4 1_555 1_555
C12_4 P2_4 1_555 1_555
C13_4 C6_4 1_555 1_555
H13_4 C13_4 1_555 1_555
C14_6 C5_6 1_555 1_555
O19_2 Cu7 1_555 1_555
P2_4 O6_4 1_555 1_555
C9_4 C11_4 1_555 1_555
C10_4 C12_4 1_555 1_555
C11_4 C14_6 1_555 1_555
C12_4 C13_4 1_555 1_555
P1_4 O15 1_555 1_555
O19_2 P1_4 1_555 1_555
O7_4 P1_4 1_555 1_555
H5_4 O7_4 1_555 1_555
C1_4 P1_4 1_555 1_555
C2_4 C4_4 1_555 1_555
C3_4 C1_4 1_555 1_555
H6_4 C3_4 1_555 1_555
C4_4 C3_4 1_555 1_555
H7_4 C4_4 1_555 1_555
C7_4 C2_4 1_555 1_555
C8_4 C1_4 1_555 1_555
H10_4 C8_4 1_555 1_555
C7_4 C8_4 1_555 1_555

#END
