
###############################################################################
#
# This file contains modified crystal structure data generated from the
# MOF subset of the Cambridge Structural Database (CSD) v543 
# hosted by the Cambridge Crystallographic Data Centre (CCDC).
#
# This work is licensed under the Creative Commons
# Attribution-NonCommercial-ShareAlike 4.0 International License.
# To view a copy of this license, visit
# http://creativecommons.org/licenses/by-nc-sa/4.0/
# or send a letter to
# Creative Commons, PO Box 1866, Mountain View, CA 94042, USA.
#
# CIF created using the CSD Python API on 29 September 2022
# The structure has been converted into the P1 space group
# The structure has a 3D framework
# The original CSD entry XEHSOT is in the monoclinic crystal system
# The framework has been calculated to contain at least 10.0% void space
# The void calculation uses a probe of radius 1.32A, grid spacing 0.4
#
###############################################################################

data_XEHSOT
_chemical_formula_moiety         '(C24 H24 Mg19 O48)n'
_symmetry_cell_setting           triclinic
_symmetry_space_group_name_H-M   'P 1'
_symmetry_Int_Tables_number      1
_space_group_name_Hall           'P 1'
loop_
_symmetry_equiv_pos_site_id
_symmetry_equiv_pos_as_xyz
1 x,y,z
_cell_length_a                   11.2888(7)
_cell_length_b                   9.8179(6)
_cell_length_c                   14.5465(7)
_cell_angle_alpha                90
_cell_angle_beta                 91.622(3)
_cell_angle_gamma                90
_cell_volume                     1611.58
loop_
_atom_site_label
_atom_site_type_symbol
_atom_site_fract_x
_atom_site_fract_y
_atom_site_fract_z
Mg14 Mg 0.0000 -0.0000 -0.0000
Mg11 Mg 0.26039(8) 0.10880(9) 0.68958(6)
Mg14_2 Mg 0.0000 -0.0000 1.0000
Mg14_3 Mg 0.0000 1.0000 -0.0000
Mg1 Mg 0.25611(7) 0.41873(9) 0.63497(6)
Mg2 Mg 0.0000 0.5000 0.5000
Mg3 Mg 0.23961(8) 0.60880(9) 0.81042(6)
Mg4 Mg 0.5000 0.5000 0.5000
O1 O 0.13033(16) 0.50304(19) 0.72039(12)
O3 O 0.15608(16) 0.24154(19) 0.61125(12)
O4 O 0.01828(17) 0.2931(2) 0.50353(13)
O5 O 0.39878(16) 0.34659(19) 0.56225(12)
O6 O 0.38826(16) 0.12366(19) 0.59508(12)
O7 O 0.30957(16) 0.29679(19) 0.74630(11)
O8 O 0.31435(17) 0.43889(19) 0.86673(12)
O9 O 0.18421(16) 0.52584(19) 0.52580(12)
O10 O 0.34990(17) 0.6053(2) 0.46407(13)
O11 O 0.34949(16) 0.58000(19) 0.69678(12)
O12 O 0.51703(18) 0.6069(2) 0.62105(13)
C1 C 0.0187(2) 0.5149(3) 0.71046(18)
C2 C 0.0742(2) 0.2111(3) 0.55241(18)
H2 H 0.0546 0.1175 0.5457
C3 C 0.4305(2) 0.2222(3) 0.55441(18)
H3 H 0.4924 0.2037 0.5134
C4 C 0.3328(2) 0.3271(3) 0.82984(18)
H4 H 0.3675 0.2579 0.8675
C5 C 0.2413(2) 0.6012(3) 0.47061(18)
H5 H 0.1959 0.6592 0.4310
C6 C 0.4514(2) 0.6306(3) 0.68548(19)
H6 H 0.4800 0.6926 0.7310
Mg6 Mg 0.24389(7) 0.91873(9) 0.86503(6)
Mg7 Mg 0.74389(7) 0.58127(9) 0.36503(6)
Mg12 Mg 0.76039(8) 0.39120(9) 0.18958(6)
Mg14_4 Mg 0.0000 1.0000 1.0000
O14 O 0.03833(17) 0.4989(2) 0.36243(12)
O16 O 0.34392(16) 0.74154(19) 0.88875(12)
O19 O 0.10122(16) 0.84659(19) 0.93775(12)
O20 O 0.60122(16) 0.65341(19) 0.43775(12)
O22 O 0.11174(16) 0.62366(19) 0.90492(12)
O24 O 0.19043(16) 0.79679(19) 0.75370(11)
O27 O 0.18565(17) 0.93889(19) 0.63327(12)
O31 O 0.65010(17) 0.3947(2) 0.53593(13)
O32 O 0.65051(16) 0.42000(19) 0.30322(12)
O34 O 0.48297(18) 0.3931(2) 0.37895(13)
H7 H 0.0245 0.4639 0.2363
C9 C 0.0695(2) 0.7222(3) 0.94559(18)
H9 H 0.0076 0.7037 0.9866
C10 C 0.1672(2) 0.8271(3) 0.67016(18)
H10 H 0.1325 0.7579 0.6325
C12 C 0.5486(2) 0.3694(3) 0.31452(19)
H12 H 0.5200 0.3074 0.2690
Mg14_5 Mg 1.0000 -0.0000 -0.0000
Mg14_6 Mg 1.0000 -0.0000 1.0000
Mg14_7 Mg 1.0000 1.0000 -0.0000
Mg2_2 Mg 1.0000 0.5000 0.5000
O2 O 0.96167(17) 0.5011(2) 0.63757(12)
H1 H 0.9755 0.5361 0.7637
Mg10 Mg 0.73961(8) 0.89120(9) 0.31042(6)
Mg14_8 Mg 1.0000 1.0000 1.0000
O13 O 0.86967(16) 0.49696(19) 0.27961(12)
O15 O 0.84392(16) 0.75846(19) 0.38875(12)
O17 O 0.65608(16) 0.25846(19) 0.11125(12)
O18 O 0.98172(17) 0.7069(2) 0.49647(13)
O23 O 0.88826(16) 0.37634(19) 0.09508(12)
O25 O 0.69043(16) 0.70321(19) 0.25370(11)
O26 O 0.80957(16) 0.20321(19) 0.24630(11)
O28 O 0.68565(17) 0.56111(19) 0.13327(12)
O29 O 0.81579(16) 0.47416(19) 0.47420(12)
C7 C 0.9813(2) 0.4851(3) 0.28954(18)
C8 C 0.9258(2) 0.7889(3) 0.44759(18)
H8 H 0.9454 0.8825 0.4543
C11 C 0.7587(2) 0.3988(3) 0.52939(18)
H11 H 0.8041 0.3408 0.5690
Mg2_3 Mg 0.5000 -0.0000 0.0000
O10_2 O 0.15010(17) 0.1053(2) 0.03593(13)
C5_2 C 0.2587(2) 0.1012(3) 0.02939(18)
H5_2 H 0.3041 0.1592 0.0690
Mg5 Mg 0.75611(7) 0.08127(9) 0.13497(6)
O18_2 O 0.51828(17) 0.2069(2) 0.00353(13)
O21 O 0.89878(16) 0.15341(19) 0.06225(12)
O28_2 O 0.81435(17) 0.06111(19) 0.36673(12)
C8_2 C 0.5742(2) 0.2889(3) 0.05241(18)
H8_2 H 0.5546 0.3825 0.0457
Mg2_4 Mg 0.5000 -0.0000 1.0000
O1_2 O 0.36967(16) 0.00304(19) 0.77961(12)
O2_2 O 0.53833(17) 0.0011(2) 0.86243(12)
O9_2 O 0.31579(16) 0.02584(19) 0.97420(12)
O11_2 O 0.15051(16) 0.08000(19) 0.80322(12)
C1_2 C 0.4813(2) 0.0149(3) 0.78954(18)
H1_2 H 0.5245 0.0361 0.7363
C6_2 C 0.0486(2) 0.1306(3) 0.81452(19)
H6_2 H 0.0200 0.1926 0.7690
Mg2_5 Mg 0.5000 1.0000 0.0000
O13_2 O 0.63033(16) 0.99696(19) 0.22039(12)
O14_2 O 0.46167(17) 0.9989(2) 0.13757(12)
O23_2 O 0.61174(16) 0.87634(19) 0.40492(12)
O29_2 O 0.68421(16) 0.97416(19) 0.02580(12)
O33 O 0.84949(16) 0.92000(19) 0.19678(12)
O34_2 O 0.01703(18) 0.8931(2) 0.12105(13)
C7_2 C 0.5187(2) 0.9851(3) 0.21046(18)
H7_2 H 0.4755 0.9639 0.2637
Mg2_6 Mg 0.5000 1.0000 1.0000
O4_2 O 0.48172(17) 0.7931(2) 0.99647(13)
C2_2 C 0.4258(2) 0.7111(3) 0.94759(18)
H2_2 H 0.4454 0.6175 0.9543
O30 O 0.84990(17) 0.8947(2) 0.96407(13)
C11_2 C 0.7413(2) 0.8988(3) 0.97061(18)
H11_2 H 0.6959 0.8408 0.9310
O12_2 O 0.98297(18) 0.1069(2) 0.87895(13)
C12_2 C 0.9514(2) 0.8694(3) 0.18548(19)
H12_2 H 0.9800 0.8074 0.2310
C3_2 C 0.5695(2) 0.7778(3) 0.44559(18)
H3_2 H 0.5076 0.7963 0.4866
C4_2 C 0.6672(2) 0.6729(3) 0.17016(18)
H4_2 H 0.6325 0.7421 0.1325
C9_2 C 0.9305(2) 0.2778(3) 0.05441(18)
H9_2 H 0.9924 0.2963 0.0134
C10_2 C 0.8328(2) 0.1729(3) 0.32984(18)
H10_2 H 0.8675 0.2421 0.3675
loop_
_geom_bond_atom_site_label_1
_geom_bond_atom_site_label_2
_geom_bond_site_symmetry_1
_geom_bond_site_symmetry_2
Mg1 O1 1_555 1_555
Mg3 O1 1_555 1_555
Mg4 O5 1_555 1_555
O1 C1 1_555 1_555
O3 Mg1 1_555 1_555
O4 Mg2 1_555 1_555
O5 Mg1 1_555 1_555
O6 C3 1_555 1_555
O7 Mg1 1_555 1_555
O8 Mg3 1_555 1_555
O9 Mg1 1_555 1_555
O10 Mg4 1_555 1_555
O11 Mg1 1_555 1_555
O12 Mg4 1_555 1_555
C2 O3 1_555 1_555
H2 C2 1_555 1_555
C3 O5 1_555 1_555
H3 C3 1_555 1_555
C4 O7 1_555 1_555
H4 C4 1_555 1_555
C5 O9 1_555 1_555
H5 C5 1_555 1_555
C6 O11 1_555 1_555
H6 C6 1_555 1_555
Mg6 O16 1_555 1_555
Mg7 O20 1_555 1_555
Mg11 O3 1_555 1_555
Mg12 O32 1_555 1_555
Mg14_4 O19 1_555 1_555
O14 Mg2 1_555 1_555
O16 Mg3 1_555 1_555
O19 Mg6 1_555 1_555
O20 Mg4 1_555 1_555
O22 Mg3 1_555 1_555
O24 Mg3 1_555 1_555
O27 C10 1_555 1_555
O31 Mg4 1_555 1_555
O32 Mg7 1_555 1_555
O34 Mg4 1_555 1_555
C9 O19 1_555 1_555
H9 C9 1_555 1_555
C10 O24 1_555 1_555
H10 C10 1_555 1_555
C12 O32 1_555 1_555
H12 C12 1_555 1_555
Mg2 O9 1_555 1_555
Mg3 O11 1_555 1_555
O4 C2 1_555 1_555
O6 Mg11 1_555 1_555
O7 Mg11 1_555 1_555
O8 C4 1_555 1_555
O10 C5 1_555 1_555
O12 C6 1_555 1_555
Mg6 O24 1_555 1_555
O22 C9 1_555 1_555
O34 C12 1_555 1_555
Mg2_2 O2 1_555 1_555
Mg7 O13 1_555 1_555
Mg12 O13 1_555 1_555
Mg10 O15 1_555 1_555
O13 C7 1_555 1_555
O15 Mg7 1_555 1_555
O17 Mg12 1_555 1_555
O18 Mg2_2 1_555 1_555
O23 Mg12 1_555 1_555
O25 Mg7 1_555 1_555
O26 Mg12 1_555 1_555
O28 Mg12 1_555 1_555
O29 Mg2_2 1_555 1_555
C8 O15 1_555 1_555
H8 C8 1_555 1_555
C11 O29 1_555 1_555
H11 C11 1_555 1_555
Mg7 O29 1_555 1_555
Mg10 O25 1_555 1_555
O18 C8 1_555 1_555
O31 C11 1_555 1_555
O10_2 Mg14 1_555 1_555
H5_2 C5_2 1_555 1_555
Mg14_5 O21 1_555 1_555
O17 Mg5 1_555 1_555
O18_2 Mg2_3 1_555 1_555
O21 Mg5 1_555 1_555
O26 Mg5 1_555 1_555
C8_2 O17 1_555 1_555
H8_2 C8_2 1_555 1_555
O10_2 C5_2 1_555 1_555
O18_2 C8_2 1_555 1_555
Mg2_4 O2_2 1_555 1_555
Mg11 O1_2 1_555 1_555
O1_2 C1_2 1_555 1_555
O2_2 C1_2 1_555 1_555
C1_2 H1_2 1_555 1_555
C6_2 O11_2 1_555 1_555
H6_2 C6_2 1_555 1_555
Mg2_4 O9_2 1_555 1_555
Mg11 O11_2 1_555 1_555
Mg10 O13_2 1_555 1_555
O13_2 C7_2 1_555 1_555
O14_2 Mg2_5 1_555 1_555
O23_2 Mg10 1_555 1_555
O29_2 Mg2_5 1_555 1_555
O34_2 Mg14_3 1_555 1_555
C7_2 O14_2 1_555 1_555
H7_2 C7_2 1_555 1_555
Mg10 O33 1_555 1_555
O4_2 Mg2_6 1_555 1_555
C2_2 O16 1_555 1_555
H2_2 C2_2 1_555 1_555
O30 Mg14_8 1_555 1_555
H11_2 C11_2 1_555 1_555
O4_2 C2_2 1_555 1_555
O30 C11_2 1_555 1_555
O12_2 Mg14_6 1_555 1_555
C12_2 O33 1_555 1_555
H12_2 C12_2 1_555 1_555
O23_2 C3_2 1_555 1_555
C3_2 O20 1_555 1_555
H3_2 C3_2 1_555 1_555
C4_2 O25 1_555 1_555
H4_2 C4_2 1_555 1_555
O28_2 C10_2 1_555 1_555
C9_2 O21 1_555 1_555
H9_2 C9_2 1_555 1_555
C10_2 O26 1_555 1_555
H10_2 C10_2 1_555 1_555
O28 C4_2 1_555 1_555
O23 C9_2 1_555 1_555

#END
