
###############################################################################
#
# This file contains modified crystal structure data generated from the
# MOF subset of the Cambridge Structural Database (CSD) v543 
# hosted by the Cambridge Crystallographic Data Centre (CCDC).
#
# This work is licensed under the Creative Commons
# Attribution-NonCommercial-ShareAlike 4.0 International License.
# To view a copy of this license, visit
# http://creativecommons.org/licenses/by-nc-sa/4.0/
# or send a letter to
# Creative Commons, PO Box 1866, Mountain View, CA 94042, USA.
#
# CIF created using the CSD Python API on 29 September 2022
# The structure has been converted into the P1 space group
# The structure has a 3D framework
# The original CSD entry XEJHIG is in the monoclinic crystal system
# The framework has been calculated to contain at least 10.0% void space
# The void calculation uses a probe of radius 1.32A, grid spacing 0.4
#
###############################################################################

data_XEJHIG
_chemical_formula_moiety         '(C48 H16 O38 Zn11)n'
_symmetry_cell_setting           triclinic
_symmetry_space_group_name_H-M   'P 1'
_symmetry_Int_Tables_number      1
_space_group_name_Hall           'P 1'
loop_
_symmetry_equiv_pos_site_id
_symmetry_equiv_pos_as_xyz
1 x,y,z
_cell_length_a                   9.26680(10)
_cell_length_b                   15.20770(10)
_cell_length_c                   17.8002(2)
_cell_angle_alpha                90
_cell_angle_beta                 96.1230(10)
_cell_angle_gamma                90
_cell_volume                     2494.21
loop_
_atom_site_label
_atom_site_type_symbol
_atom_site_fract_x
_atom_site_fract_y
_atom_site_fract_z
Zn1 Zn 0.000000 0.000000 0.000000
O24 O 0.19794(13) 0.03441(9) 0.05052(7)
Zn1_2 Zn 0.000000 0.000000 1.000000
O21 O 0.07020(13) 0.02181(8) 0.88808(7)
Zn1_3 Zn 0.000000 1.000000 0.000000
Zn2 Zn 0.07348(2) 0.88854(2) 0.15971(2)
O2 O 0.05314(15) 0.78244(8) 0.09534(7)
C9 C 0.0982(3) 0.62491(13) 0.01009(11)
H2 H 0.100938 0.605779 0.061024
C11 C 0.05912(18) 0.79204(11) 0.02454(9)
O23 O 0.09724(16) 0.82672(12) 0.26001(7)
O26 O 0.26682(13) 0.92859(9) 0.13576(7)
O29 O 0.1091(2) 0.96831(13) 0.28266(10)
Zn1_4 Zn 0.000000 1.000000 1.000000
O1 O 0.08364(14) 0.71101(9) 0.90812(7)
O4 O 0.09724(16) 0.67328(12) 0.76001(7)
O8 O 0.05232(13) 0.86206(8) 0.98858(7)
O10 O 0.1091(2) 0.53169(13) 0.78266(10)
C4 C 0.0789(2) 0.70825(12) 0.98464(9)
C6 C 0.1046(2) 0.60822(16) 0.80466(11)
C7 C 0.1039(2) 0.62610(13) 0.88620(11)
C12 C 0.1135(3) 0.57143(14) 0.94599(11)
H4 H 0.127576 0.509567 0.945433
Zn8 Zn 0.07348(2) 0.61146(2) 0.65971(2)
Zn1_5 Zn 1.000000 0.000000 0.000000
C1 C 0.44281(19) 0.01982(12) 0.09248(10)
C2 C 0.67711(18) 0.00105(12) 0.11028(9)
C5 C 0.65612(19) 0.08206(13) 0.07921(11)
H1 H 0.728786 0.122468 0.067696
C10 C 0.5025(2) 0.09432(13) 0.06731(11)
H3 H 0.452331 0.144445 0.046091
O25 O 0.94768(13) 0.13794(8) 0.01142(7)
Zn1_6 Zn 1.000000 0.000000 1.000000
O15 O 0.45212(13) 0.03787(8) 0.87981(7)
O16 O 0.19677(15) 0.11825(9) 0.82900(8)
O19 O 0.73318(13) 0.07141(9) 0.86424(7)
C15 C 0.19131(18) 0.05139(12) 0.86721(9)
C20 C 0.71013(19) 0.00810(12) 0.90711(10)
Zn7 Zn 0.92652(2) 0.11146(2) 0.84029(2)
Zn1_7 Zn 1.000000 1.000000 0.000000
O3 O 0.92980(13) 0.97819(8) 0.11192(7)
O5 O 0.54788(13) 0.96213(8) 0.12019(7)
O6 O 0.80323(15) 0.88175(9) 0.17100(8)
C3 C 0.80869(18) 0.94861(12) 0.13279(9)
C8 C 0.28987(19) 0.99190(12) 0.09289(10)
Zn1_8 Zn 1.000000 1.000000 1.000000
O17 O 0.80206(13) 0.96559(9) 0.94948(7)
C13 C 0.55719(19) 0.98018(12) 0.90752(10)
C14 C 0.32289(18) 0.99895(12) 0.88972(9)
C17 C 0.34388(19) 0.91794(13) 0.92079(11)
H5 H 0.271214 0.877532 0.932304
C22 C 0.4975(2) 0.90568(13) 0.93269(11)
H7 H 0.547669 0.855555 0.953909
O11 O 0.91636(14) 0.28899(9) 0.09188(7)
O14 O 0.90276(16) 0.32672(12) 0.23999(7)
O20 O 0.8909(2) 0.46831(13) 0.21734(10)
C16 C 0.9211(2) 0.29175(12) 0.01536(9)
C18 C 0.8954(2) 0.39178(16) 0.19534(11)
C19 C 0.8961(2) 0.37390(13) 0.11380(11)
C24 C 0.8865(3) 0.42857(14) 0.05401(11)
H8 H 0.872424 0.490433 0.054567
Zn6 Zn 0.92652(2) 0.38854(2) 0.34029(2)
O12 O 0.94686(15) 0.21756(8) 0.90466(7)
C21 C 0.9018(3) 0.37509(13) 0.98991(11)
H6 H 0.899062 0.394221 0.938976
C23 C 0.94088(18) 0.20796(11) 0.97546(9)
O22 O 0.90276(16) 0.17328(12) 0.73999(7)
O28 O 0.8909(2) 0.03169(13) 0.71734(10)
O11_2 O 0.08364(14) 0.78899(9) 0.40812(7)
O12_2 O 0.05314(15) 0.71756(8) 0.59534(7)
O18 O 0.05232(13) 0.63794(8) 0.48858(7)
C16_2 C 0.0789(2) 0.79175(12) 0.48464(9)
C18_2 C 0.1046(2) 0.89178(16) 0.30466(11)
C19_2 C 0.1039(2) 0.87390(13) 0.38620(11)
C21_2 C 0.0982(3) 0.87509(13) 0.51009(11)
H6_2 H 0.100938 0.894221 0.561024
C23_2 C 0.05912(18) 0.70796(11) 0.52454(9)
C24_2 C 0.1135(3) 0.92857(14) 0.44599(11)
H8_2 H 0.127576 0.990433 0.445433
Zn4 Zn -0.000000 0.500000 0.500000
O27 O 0.26682(13) 0.57141(9) 0.63576(7)
O3_2 O 0.07020(13) 0.47819(8) 0.38808(7)
O5_2 O 0.45212(13) 0.46213(8) 0.37981(7)
O6_2 O 0.19677(15) 0.38175(9) 0.32900(8)
O7 O 0.80206(13) 0.53441(9) 0.44948(7)
O9 O 0.73318(13) 0.42859(9) 0.36424(7)
C1_2 C 0.55719(19) 0.51982(12) 0.40752(10)
C2_2 C 0.32289(18) 0.50105(12) 0.38972(9)
C3_2 C 0.19131(18) 0.44861(12) 0.36721(9)
C5_2 C 0.34388(19) 0.58206(13) 0.42079(11)
H1_2 H 0.271214 0.622468 0.432304
C8_2 C 0.71013(19) 0.49190(12) 0.40711(10)
C10_2 C 0.4975(2) 0.59432(13) 0.43269(11)
H3_2 H 0.547669 0.644445 0.453909
O13 O 0.92980(13) 0.52181(8) 0.61192(7)
O15_2 O 0.54788(13) 0.53787(8) 0.62019(7)
O16_2 O 0.80323(15) 0.61825(9) 0.67100(8)
O17_2 O 0.19794(13) 0.46559(9) 0.55052(7)
C13_2 C 0.44281(19) 0.48018(12) 0.59248(10)
C14_2 C 0.67711(18) 0.49895(12) 0.61028(9)
C15_2 C 0.80869(18) 0.55139(12) 0.63279(9)
C17_2 C 0.65612(19) 0.41794(13) 0.57921(11)
H5_2 H 0.728786 0.377532 0.567696
C20_2 C 0.28987(19) 0.50810(12) 0.59289(10)
C22_2 C 0.5025(2) 0.40568(13) 0.56731(11)
H7_2 H 0.452331 0.355555 0.546091
Zn4_2 Zn 1.000000 0.500000 0.500000
O1_2 O 0.91636(14) 0.21101(9) 0.59188(7)
O2_2 O 0.94686(15) 0.28244(8) 0.40466(7)
O8_2 O 0.94768(13) 0.36206(8) 0.51142(7)
C4_2 C 0.9211(2) 0.20825(12) 0.51536(9)
C6_2 C 0.8954(2) 0.10822(16) 0.69534(11)
C7_2 C 0.8961(2) 0.12610(13) 0.61380(11)
C9_2 C 0.9018(3) 0.12491(13) 0.48991(11)
H2_2 H 0.899062 0.105779 0.438976
C11_2 C 0.94088(18) 0.29204(11) 0.47546(9)
C12_2 C 0.8865(3) 0.07143(14) 0.55401(11)
H4_2 H 0.872424 0.009567 0.554567
loop_
_geom_bond_atom_site_label_1
_geom_bond_atom_site_label_2
_geom_bond_site_symmetry_1
_geom_bond_site_symmetry_2
O24 Zn1 1_555 1_555
O21 Zn1_2 1_555 1_555
Zn2 O2 1_555 1_555
O2 C11 1_555 1_555
C9 H2 1_555 1_555
O23 Zn2 1_555 1_555
O26 Zn2 1_555 1_555
O29 Zn2 1_555 1_555
O1 C4 1_555 1_555
O4 C6 1_555 1_555
O8 Zn1_4 1_555 1_555
O10 C6 1_555 1_555
C6 C7 1_555 1_555
C7 O1 1_555 1_555
C12 C7 1_555 1_555
H4 C12 1_555 1_555
Zn8 O4 1_555 1_555
O10 Zn8 1_555 1_555
C5 C2 1_555 1_555
H1 C5 1_555 1_555
C10 C1 1_555 1_555
H3 C10 1_555 1_555
O25 Zn1_5 1_555 1_555
C5 C10 1_555 1_555
O19 C20 1_555 1_555
C15 O21 1_555 1_555
Zn7 O19 1_555 1_555
O16 C15 1_555 1_555
Zn1_7 O3 1_555 1_555
O26 C8 1_555 1_555
C3 O3 1_555 1_555
O6 C3 1_555 1_555
O17 Zn1_8 1_555 1_555
C17 C14 1_555 1_555
H5 C17 1_555 1_555
C22 C13 1_555 1_555
H7 C22 1_555 1_555
C17 C22 1_555 1_555
O11 C16 1_555 1_555
O14 C18 1_555 1_555
O20 C18 1_555 1_555
C18 C19 1_555 1_555
C19 O11 1_555 1_555
C24 C19 1_555 1_555
H8 C24 1_555 1_555
Zn6 O14 1_555 1_555
O20 Zn6 1_555 1_555
Zn7 O12 1_555 1_555
O12 C23 1_555 1_555
C21 H6 1_555 1_555
O22 Zn7 1_555 1_555
O28 Zn7 1_555 1_555
Zn8 O12_2 1_555 1_555
O11_2 C16_2 1_555 1_555
O12_2 C23_2 1_555 1_555
O23 C18_2 1_555 1_555
O18 C23_2 1_555 1_555
O29 C18_2 1_555 1_555
C16_2 C21_2 1_555 1_555
C18_2 C19_2 1_555 1_555
C19_2 O11_2 1_555 1_555
C21_2 H6_2 1_555 1_555
C23_2 C16_2 1_555 1_555
C24_2 C19_2 1_555 1_555
H8_2 C24_2 1_555 1_555
O27 Zn8 1_555 1_555
O18 Zn4 1_555 1_555
C21_2 C24_2 1_555 1_555
Zn4 O3_2 1_555 1_555
O5_2 C1_2 1_555 1_555
O7 C8_2 1_555 1_555
O9 C8_2 1_555 1_555
C1_2 C8_2 1_555 1_555
C2_2 O5_2 1_555 1_555
C3_2 O3_2 1_555 1_555
C5_2 C2_2 1_555 1_555
H1_2 C5_2 1_555 1_555
C10_2 C1_2 1_555 1_555
H3_2 C10_2 1_555 1_555
O15_2 C13_2 1_555 1_555
O17_2 Zn4 1_555 1_555
O27 C20_2 1_555 1_555
C13_2 C20_2 1_555 1_555
C14_2 O15_2 1_555 1_555
C15_2 O13 1_555 1_555
C17_2 C14_2 1_555 1_555
H5_2 C17_2 1_555 1_555
C20_2 O17_2 1_555 1_555
C22_2 C13_2 1_555 1_555
H7_2 C22_2 1_555 1_555
Zn4_2 O7 1_555 1_555
Zn6 O9 1_555 1_555
O6_2 C3_2 1_555 1_555
C2_2 C3_2 1_555 1_555
C5_2 C10_2 1_555 1_555
O13 Zn4_2 1_555 1_555
O16_2 C15_2 1_555 1_555
C14_2 C15_2 1_555 1_555
C17_2 C22_2 1_555 1_555
Zn6 O2_2 1_555 1_555
O1_2 C4_2 1_555 1_555
O2_2 C11_2 1_555 1_555
O22 C6_2 1_555 1_555
O8_2 Zn4_2 1_555 1_555
O28 C6_2 1_555 1_555
C4_2 C9_2 1_555 1_555
C6_2 C7_2 1_555 1_555
C7_2 O1_2 1_555 1_555
C9_2 H2_2 1_555 1_555
C11_2 O8_2 1_555 1_555
C12_2 C7_2 1_555 1_555
H4_2 C12_2 1_555 1_555
C4_2 C11_2 1_555 1_555
C9_2 C12_2 1_555 1_555

#END
