
###############################################################################
#
# This file contains modified crystal structure data generated from the
# MOF subset of the Cambridge Structural Database (CSD) v543 
# hosted by the Cambridge Crystallographic Data Centre (CCDC).
#
# This work is licensed under the Creative Commons
# Attribution-NonCommercial-ShareAlike 4.0 International License.
# To view a copy of this license, visit
# http://creativecommons.org/licenses/by-nc-sa/4.0/
# or send a letter to
# Creative Commons, PO Box 1866, Mountain View, CA 94042, USA.
#
# CIF created using the CSD Python API on 29 September 2022
# The structure has been converted into the P1 space group
# The structure has a 3D framework
# The original CSD entry XEJJOM is in the triclinic crystal system
# The framework has been calculated to contain at least 10.0% void space
# The void calculation uses a probe of radius 1.32A, grid spacing 0.4
# H atom positions have been added when not included in the experimental data
#
###############################################################################

data_XEJJOM
_chemical_formula_moiety         '(C24 H22 Dy2 O14)n'
_symmetry_cell_setting           triclinic
_symmetry_space_group_name_H-M   'P 1'
_symmetry_Int_Tables_number      1
_space_group_name_Hall           'P 1'
loop_
_symmetry_equiv_pos_site_id
_symmetry_equiv_pos_as_xyz
1 x,y,z
_cell_length_a                   7.648(4)
_cell_length_b                   9.676(4)
_cell_length_c                   10.562(5)
_cell_angle_alpha                106.672(14)
_cell_angle_beta                 105.283(16)
_cell_angle_gamma                100.706(14)
_cell_volume                     692.776
loop_
_atom_site_label
_atom_site_type_symbol
_atom_site_fract_x
_atom_site_fract_y
_atom_site_fract_z
Dy3 Dy 0.24668(3) 0.032076(19) 0.45167(2)
O4 O 0.0426(4) 0.8319(2) 0.2277(3)
O3 O 0.9344(3) 0.8616(2) 0.4036(3)
C3 C 0.6869(5) 0.6508(3) 0.0303(4)
H2 H 0.5367 0.8024 0.0469
C9 C 0.7399(6) 0.6657(4) 0.1803(4)
H6 H 0.7615 0.5705 0.1887
H7 H 0.6332 0.6818 0.2135
C10 C 0.9160(5) 0.7944(4) 0.2744(4)
Dy4 Dy 0.75332(3) 0.967924(19) 0.54833(2)
O1 O 0.5985(3) 0.1556(2) 0.5839(3)
O2 O 0.4120(3) 0.2971(2) 0.5583(3)
O5 O 0.6077(3) 0.9317(2) 0.7094(3)
O6 O 0.3150(4) 0.9601(3) 0.6551(3)
O7 O 0.0384(4) 0.1431(2) 0.3248(3)
C1 C 0.6915(5) 0.5414(3) 0.7941(4)
C2 C 0.7407(5) 0.5535(3) 0.9334(4)
H1 H 0.8143 0.4926 0.9637
C4 C 0.5764(5) 0.7357(4) 0.9824(4)
C5 C 0.5215(5) 0.7269(3) 0.8433(4)
C6 C 0.5829(5) 0.6293(3) 0.7503(4)
H3 H 0.5495 0.6231 0.6552
C7 C 0.7404(5) 0.4253(3) 0.6898(4)
H4 H 0.8482 0.3967 0.7404
H5 H 0.7799 0.4697 0.6246
C8 C 0.5735(6) 0.2850(4) 0.6056(4)
C11 C 0.3866(6) 0.8102(4) 0.7936(5)
H8 H 0.3664 0.8752 0.8766
H9 H 0.2636 0.7354 0.7334
C12 C 0.4429(5) 0.9076(4) 0.7125(4)
O10 O 0.0656(3) 0.1384(2) 0.5964(3)
O12 O 0.3923(3) 0.0683(2) 0.2906(3)
H10 H 0.0833775 0.161822 0.249569
O8 O 0.4015(3) 0.8444(2) 0.4161(3)
O11 O 0.9574(4) 0.1681(2) 0.7723(3)
O13 O 0.6850(4) 0.0399(3) 0.3449(3)
O2_2 O 0.5880(3) 0.7029(2) 0.4417(3)
O7_2 O 0.9616(4) 0.8569(2) 0.6752(3)
C1_2 C 0.3085(5) 0.4586(3) 0.2059(4)
C2_2 C 0.2593(5) 0.4465(3) 0.0666(4)
H1_2 H 0.1857 0.5074 0.0363
C4_2 C 0.4236(5) 0.2643(4) 0.0176(4)
C5_2 C 0.4785(5) 0.2731(3) 0.1567(4)
C6_2 C 0.4171(5) 0.3707(3) 0.2497(4)
H3_2 H 0.4505 0.3769 0.3448
C7_2 C 0.2596(5) 0.5747(3) 0.3102(4)
H4_2 H 0.1518 0.6033 0.2596
H5_2 H 0.2201 0.5303 0.3754
C8_2 C 0.4265(6) 0.7150(4) 0.3944(4)
C11_2 C 0.6134(6) 0.1898(4) 0.2064(5)
H8_2 H 0.6336 0.1248 0.1234
H9_2 H 0.7364 0.2646 0.2666
C12_2 C 0.5571(5) 0.0924(4) 0.2875(4)
H10_2 H 0.916622 0.838178 0.750431
C3_2 C 0.3131(5) 0.3492(3) 0.9697(4)
H2_2 H 0.4633 0.1976 0.9531
C9_2 C 0.2601(6) 0.3343(4) 0.8197(4)
H6_2 H 0.2385 0.4295 0.8113
H7_2 H 0.3668 0.3182 0.7865
C10_2 C 0.0840(5) 0.2056(4) 0.7256(4)
H11 H 0.908448 0.0734199 0.282305
H11_2 H 0.091552 0.92658 0.717695
loop_
_geom_bond_atom_site_label_1
_geom_bond_atom_site_label_2
_geom_bond_site_symmetry_1
_geom_bond_site_symmetry_2
O3 C10 1_555 1_555
C9 C3 1_555 1_555
H6 C9 1_555 1_555
H7 C9 1_555 1_555
C10 C9 1_555 1_555
Dy4 O3 1_555 1_555
Dy3 O1 1_555 1_555
O1 C8 1_555 1_555
O2 Dy3 1_555 1_555
O5 C12 1_555 1_555
O6 C12 1_555 1_555
O7 Dy3 1_555 1_555
C1 C2 1_555 1_555
C2 H1 1_555 1_555
C5 C4 1_555 1_555
C6 C1 1_555 1_555
H3 C6 1_555 1_555
C7 C1 1_555 1_555
H4 C7 1_555 1_555
H5 C7 1_555 1_555
C8 O2 1_555 1_555
C11 C5 1_555 1_555
H8 C11 1_555 1_555
H9 C11 1_555 1_555
C12 C11 1_555 1_555
Dy4 O5 1_555 1_555
O10 Dy3 1_555 1_555
O12 Dy3 1_555 1_555
C5 C6 1_555 1_555
C7 C8 1_555 1_555
O7 H10 1_555 1_555
Dy4 O8 1_555 1_555
O8 C8_2 1_555 1_555
O2_2 Dy4 1_555 1_555
O12 C12_2 1_555 1_555
O13 C12_2 1_555 1_555
O7_2 Dy4 1_555 1_555
C1_2 C2_2 1_555 1_555
C2_2 H1_2 1_555 1_555
C5_2 C4_2 1_555 1_555
C6_2 C1_2 1_555 1_555
H3_2 C6_2 1_555 1_555
C7_2 C1_2 1_555 1_555
H4_2 C7_2 1_555 1_555
H5_2 C7_2 1_555 1_555
C8_2 O2_2 1_555 1_555
C11_2 C5_2 1_555 1_555
H8_2 C11_2 1_555 1_555
H9_2 C11_2 1_555 1_555
C12_2 C11_2 1_555 1_555
C5_2 C6_2 1_555 1_555
C7_2 C8_2 1_555 1_555
O7_2 H10_2 1_555 1_555
O10 C10_2 1_555 1_555
C9_2 C3_2 1_555 1_555
H6_2 C9_2 1_555 1_555
H7_2 C9_2 1_555 1_555
C10_2 C9_2 1_555 1_555

#END
