
###############################################################################
#
# This file contains modified crystal structure data generated from the
# MOF subset of the Cambridge Structural Database (CSD) v543 
# hosted by the Cambridge Crystallographic Data Centre (CCDC).
#
# This work is licensed under the Creative Commons
# Attribution-NonCommercial-ShareAlike 4.0 International License.
# To view a copy of this license, visit
# http://creativecommons.org/licenses/by-nc-sa/4.0/
# or send a letter to
# Creative Commons, PO Box 1866, Mountain View, CA 94042, USA.
#
# CIF created using the CSD Python API on 29 September 2022
# The structure has been converted into the P1 space group
# The structure has a 3D framework
# The original CSD entry XEJQEK is in the monoclinic crystal system
# The framework has been calculated to contain at least 10.0% void space
# The void calculation uses a probe of radius 1.32A, grid spacing 0.4
# The framework is charged, counterions have been retained in the structure
#
###############################################################################

data_XEJQEK
_chemical_formula_moiety         '(C84 H76 Cu13 Er4 N12 O66 1+)n'
_symmetry_cell_setting           triclinic
_symmetry_space_group_name_H-M   'P 1'
_symmetry_Int_Tables_number      1
_space_group_name_Hall           'P 1'
loop_
_symmetry_equiv_pos_site_id
_symmetry_equiv_pos_as_xyz
1 x,y,z
_cell_length_a                   11.7154(14)
_cell_length_b                   13.1026(16)
_cell_length_c                   19.534(2)
_cell_angle_alpha                90
_cell_angle_beta                 96.545(1)
_cell_angle_gamma                90
_cell_volume                     2978.97
loop_
_atom_site_label
_atom_site_type_symbol
_atom_site_fract_x
_atom_site_fract_y
_atom_site_fract_z
Cu2 Cu 0.0000 -0.0000 0.0000
Er4 Er 0.370042(13) 0.437300(12) 0.150520(8)
O27 O 0.0355(2) 0.0105(2) 0.13065(13)
O28 O 0.15755(19) 0.04759(17) 0.00334(13)
O29 O 0.26239(19) 0.18844(19) 0.00984(12)
O31 O 0.2009(2) 0.39159(19) 0.08371(12)
O36 O 0.2653(2) 0.0502(2) 0.31620(13)
H24 H 0.3153(8) 0.0724(12) 0.3471(4)
H25 H 0.2921(8) 0.0366(11) 0.2789(3)
H27 H 0.0785(8) 0.0545(5) 0.4644(13)
O38 O 0.0420(2) 0.1014(2) 0.33523(15)
H29 H 0.0628(12) 0.1385(6) 0.3699(4)
C36 C 0.1700(3) 0.1441(3) 0.00723(17)
C37 C 0.0594(3) 0.2045(3) 0.00808(17)
C38 C 0.0554(3) 0.3095(3) 0.01150(18)
C39 C 0.1593(3) 0.3791(3) 0.02241(19)
Cu1 Cu 0.16031(4) 0.41745(4) 0.84479(3)
Cu2_2 Cu 0.0000 -0.0000 1.0000
O2 O 0.06806(19) 0.09673(19) 0.65337(14)
O3 O 0.1222(2) 0.2978(2) 0.59565(15)
O4 O 0.1410(2) 0.3533(2) 0.70335(15)
O5 O 0.00043(19) 0.37529(18) 0.83989(13)
N1 N 0.3671(2) 0.0648(2) 0.67298(17)
N2 N 0.1905(2) 0.2709(2) 0.84940(15)
C1 C 0.1644(3) 0.0569(3) 0.65572(18)
C2 C 0.2704(3) 0.1207(3) 0.66573(18)
C3 C 0.2725(3) 0.2263(3) 0.6710(2)
C4 C 0.1682(3) 0.2978(3) 0.6569(2)
C5 C 0.3801(3) 0.2715(3) 0.6871(2)
H11 H 0.3852 0.3420 0.6919
C6 C 0.4782(3) 0.2142(3) 0.6958(2)
H12 H 0.5491 0.2454 0.7074
C7 C 0.4710(3) 0.1096(3) 0.6872(2)
H13 H 0.5374 0.0702 0.6913
C9 C 0.0929(3) 0.2158(3) 0.84004(17)
C10 C 0.0952(3) 0.1095(3) 0.83426(17)
C12 C 0.2022(3) 0.0629(3) 0.8402(2)
C13 C 0.3012(3) 0.1205(3) 0.8493(2)
H15 H 0.3729 0.0895 0.8515
C14 C 0.2919(3) 0.2235(3) 0.8550(2)
H16 H 0.3586 0.2623 0.8630
Er5 Er 0.629958(13) 0.562700(12) 0.849480(8)
O18 O 0.3204(2) 0.46047(18) 0.84745(15)
O20 O 0.43194(19) 0.59673(19) 0.84663(14)
O22 O 0.3778(2) 0.7978(2) 0.90435(15)
O23 O 0.3590(2) 0.8533(2) 0.79665(15)
O30 O 0.1905(2) 0.42374(19) 0.97102(13)
N4 N 0.1329(2) 0.5648(2) 0.82702(17)
C22 C 0.3356(3) 0.5569(3) 0.84428(18)
C23 C 0.2296(3) 0.6207(3) 0.83427(18)
C24 C 0.2275(3) 0.7263(3) 0.8290(2)
C25 C 0.3318(3) 0.7978(3) 0.8431(2)
C26 C 0.1199(3) 0.7715(3) 0.8129(2)
H30 H 0.1148 0.8420 0.8081
C27 C 0.0218(3) 0.7142(3) 0.8042(2)
C28 C 0.0290(3) 0.6096(3) 0.8128(2)
Cu2_3 Cu 0.0000 1.0000 0.0000
H19 H 0.2024 0.8496 0.0016
Er2 Er 0.129958(13) 0.937300(12) 0.349480(8)
O25 O 0.10792(19) 0.7636(2) 0.16009(13)
O26 O 0.0667(2) 0.95108(19) 0.23672(13)
O33 O 0.2991(2) 0.89159(19) 0.41629(12)
O34 O 0.2270(2) 0.8193(2) 0.28591(13)
H20 H 0.2498(13) 0.7621(5) 0.3013(7)
H21 H 0.1889(10) 0.8198(16) 0.2468(4)
O35 O 0.0930(2) 0.7808(2) 0.39753(15)
H22 H 0.1379(7) 0.7346(6) 0.4139(9)
H23 H 0.0481(6) 0.8040(10) 0.4244(5)
O37 O 0.1119(2) 0.9983(2) 0.46061(14)
H26 H 0.1643(7) 0.9826(11) 0.4917(5)
C29 C 0.0154(3) 0.7219(3) 0.16054(17)
C32 C 0.0117(3) 0.9561(3) 0.17846(19)
Cu2_4 Cu 0.0000 1.0000 1.0000
O1 O 0.1796(2) 0.96047(18) 0.65255(15)
H9 H 0.0287(5) 0.9129(13) 0.6691(11)
N3 N 0.0343(2) 0.8535(2) 0.99721(15)
H14 H 0.2072 0.9922 0.8380
C19 C 0.0527(3) 0.6457(3) 0.98985(19)
H17 H 0.0594 0.5752 0.9868
C20 C 0.1492(3) 0.7056(3) 0.9957(2)
H18 H 0.2218 0.6763 0.9977
C21 C 0.1371(3) 0.8088(3) 0.99859(18)
Cu4 Cu 0.33969(4) 0.91745(4) 0.65521(3)
Cu2_5 Cu 1.0000 -0.0000 0.0000
H28 H 0.9713(5) 0.0871(13) 0.3309(11)
N7 N 0.9657(2) 0.1465(2) 0.00279(15)
H33 H 0.7928 0.0078 0.1620
C40 C 0.9473(3) 0.3543(3) 0.01015(19)
H36 H 0.9406 0.4248 0.0132
C41 C 0.8508(3) 0.2944(3) 0.0043(2)
H37 H 0.7782 0.3237 0.0023
C42 C 0.8629(3) 0.1912(3) 0.00141(18)
Er1 Er 0.870042(13) 0.062700(12) 0.650520(8)
Cu2_6 Cu 1.0000 -0.0000 1.0000
O6 O 0.89208(19) 0.2364(2) 0.83991(13)
O7 O 0.9333(2) 0.04892(19) 0.76328(13)
O13 O 0.7730(2) 0.1807(2) 0.71409(13)
H1 H 0.7502(13) 0.2379(5) 0.6987(7)
H2 H 0.8111(10) 0.1802(16) 0.7532(4)
O14 O 0.9070(2) 0.2192(2) 0.60247(15)
H3 H 0.8621(7) 0.2654(6) 0.5861(9)
H4 H 0.9519(6) 0.1960(10) 0.5756(5)
O16 O 0.8881(2) 0.0017(2) 0.53939(14)
H7 H 0.8357(7) 0.0174(11) 0.5083(5)
C8 C 0.9846(3) 0.2781(3) 0.83946(17)
C11 C 0.9883(3) 0.0439(3) 0.82154(19)
O32 O 0.7009(2) 0.10841(19) 0.58371(12)
H31 H 0.9509 0.7454 0.7926
H32 H 0.9626 0.5702 0.8087
H38 H 0.7976 0.1504 0.9984
Cu2_7 Cu 1.0000 1.0000 0.0000
O11 O 0.8095(2) 0.57626(19) 0.02898(13)
Cu3 Cu 0.83969(4) 0.58255(4) 0.15521(3)
O19 O 0.6796(2) 0.53953(18) 0.15255(15)
O21 O 0.93194(19) 0.90327(19) 0.34663(14)
O24 O 0.99957(19) 0.62471(18) 0.16011(13)
N5 N 0.8671(2) 0.4352(2) 0.17298(17)
N6 N 0.8095(2) 0.7291(2) 0.15060(15)
C30 C 0.9071(3) 0.7842(3) 0.15996(17)
C31 C 0.9048(3) 0.8905(3) 0.16574(17)
C33 C 0.7978(3) 0.9371(3) 0.1598(2)
C34 C 0.6988(3) 0.8795(3) 0.1507(2)
H34 H 0.6271 0.9105 0.1485
C35 C 0.7081(3) 0.7765(3) 0.1450(2)
H35 H 0.6414 0.7377 0.1370
Cu2_8 Cu 1.0000 1.0000 1.0000
O8 O 0.9645(2) 0.9895(2) 0.86935(13)
O9 O 0.84245(19) 0.95241(17) 0.99666(13)
O10 O 0.73761(19) 0.81156(19) 0.99016(12)
O12 O 0.7991(2) 0.60841(19) 0.91629(12)
O15 O 0.7347(2) 0.9498(2) 0.68380(13)
H5 H 0.6847(8) 0.9276(12) 0.6529(4)
H6 H 0.7079(8) 0.9634(11) 0.7211(3)
H8 H 0.9215(8) 0.9455(5) 0.5356(13)
O17 O 0.9580(2) 0.8986(2) 0.66477(15)
H10 H 0.9372(12) 0.8615(6) 0.6301(4)
C15 C 0.8300(3) 0.8559(3) 0.99277(17)
C16 C 0.9406(3) 0.7955(3) 0.99192(17)
C17 C 0.9446(3) 0.6905(3) 0.98850(18)
C18 C 0.8407(3) 0.6209(3) 0.97759(19)
Cu2_9 Cu 0.5000 0.5000 0.5000
O5_2 O 0.49957(19) 0.87529(18) 0.66011(13)
O6_2 O 0.60792(19) 0.7364(2) 0.66009(13)
O7_2 O 0.5667(2) 0.54892(19) 0.73672(13)
O8_2 O 0.5355(2) 0.4895(2) 0.63065(13)
O9_2 O 0.65755(19) 0.45241(17) 0.50334(13)
O10_2 O 0.76239(19) 0.31156(19) 0.50984(12)
O11_2 O 0.6905(2) 0.07626(19) 0.47102(13)
O13_2 O 0.7270(2) 0.6807(2) 0.78591(13)
H1_2 H 0.7498(13) 0.7379(5) 0.8013(7)
H2_2 H 0.6889(10) 0.6802(16) 0.7468(4)
O14_2 O 0.5930(2) 0.7192(2) 0.89753(15)
H3_2 H 0.6379(7) 0.7654(6) 0.9139(9)
H4_2 H 0.5481(6) 0.6960(10) 0.9244(5)
O15_2 O 0.7653(2) 0.4498(2) 0.81620(13)
H5_2 H 0.8153(8) 0.4276(12) 0.8471(4)
H6_2 H 0.7921(8) 0.4634(11) 0.7789(3)
O16_2 O 0.6119(2) 0.5017(2) 0.96061(14)
H7_2 H 0.6643(7) 0.5174(11) 0.9917(5)
H8_2 H 0.5785(8) 0.4455(5) 0.9644(13)
O17_2 O 0.5420(2) 0.3986(2) 0.83523(15)
H9_2 H 0.4713(5) 0.4129(13) 0.8309(11)
H10_2 H 0.5628(12) 0.3615(6) 0.8699(4)
N2_2 N 0.3095(2) 0.7709(2) 0.65060(15)
N3_2 N 0.4657(2) 0.3535(2) 0.50279(15)
C8_2 C 0.5154(3) 0.7781(3) 0.66054(17)
C9_2 C 0.4071(3) 0.7158(3) 0.65996(17)
C10_2 C 0.4048(3) 0.6095(3) 0.66574(17)
C11_2 C 0.5117(3) 0.5439(3) 0.67846(19)
C12_2 C 0.2978(3) 0.5629(3) 0.6598(2)
H14_2 H 0.2928 0.4922 0.6620
C13_2 C 0.1988(3) 0.6205(3) 0.6507(2)
H15_2 H 0.1271 0.5895 0.6485
C14_2 C 0.2081(3) 0.7235(3) 0.6450(2)
H16_2 H 0.1414 0.7623 0.6370
C15_2 C 0.6700(3) 0.3559(3) 0.50723(17)
C16_2 C 0.5594(3) 0.2955(3) 0.50808(17)
C17_2 C 0.5554(3) 0.1905(3) 0.51150(18)
C18_2 C 0.6593(3) 0.1209(3) 0.52241(19)
C19_2 C 0.4473(3) 0.1457(3) 0.51015(19)
H17_2 H 0.4406 0.0752 0.5132
C20_2 C 0.3508(3) 0.2056(3) 0.5043(2)
H18_2 H 0.2782 0.1763 0.5023
C21_2 C 0.3629(3) 0.3088(3) 0.50141(18)
H19_2 H 0.2976 0.3496 0.4984
Cu3_2 Cu 0.66031(4) 0.08255(4) 0.34479(3)
O19_2 O 0.8204(2) 0.03953(18) 0.34745(15)
O21_2 O 0.56806(19) 0.40327(19) 0.15337(14)
O24_2 O 0.50043(19) 0.12471(18) 0.33989(13)
O25_2 O 0.39208(19) 0.2636(2) 0.33991(13)
O26_2 O 0.4333(2) 0.45108(19) 0.26328(13)
O27_2 O 0.4645(2) 0.5105(2) 0.36935(13)
O28_2 O 0.34245(19) 0.54759(17) 0.49666(13)
O29_2 O 0.23761(19) 0.68844(19) 0.49016(12)
O30_2 O 0.3095(2) 0.92374(19) 0.52898(13)
O34_2 O 0.2730(2) 0.3193(2) 0.21409(13)
H20_2 H 0.2502(13) 0.2621(5) 0.1987(7)
H21_2 H 0.3111(10) 0.3198(16) 0.2532(4)
O35_2 O 0.4070(2) 0.2808(2) 0.10247(15)
H22_2 H 0.3621(7) 0.2346(6) 0.0861(9)
H23_2 H 0.4519(6) 0.3040(10) 0.0756(5)
O36_2 O 0.2347(2) 0.5502(2) 0.18380(13)
H24_2 H 0.1847(8) 0.5724(12) 0.1529(4)
H25_2 H 0.2079(8) 0.5366(11) 0.2211(3)
O37_2 O 0.3881(2) 0.4983(2) 0.03939(14)
H26_2 H 0.3357(7) 0.4826(11) 0.0083(5)
H27_2 H 0.4215(8) 0.5545(5) 0.0356(13)
O38_2 O 0.4580(2) 0.6014(2) 0.16477(15)
H28_2 H 0.5287(5) 0.5871(13) 0.1691(11)
H29_2 H 0.4372(12) 0.6385(6) 0.1301(4)
N6_2 N 0.6905(2) 0.2291(2) 0.34940(15)
N7_2 N 0.5343(2) 0.6465(2) 0.49721(15)
C29_2 C 0.4846(3) 0.2219(3) 0.33946(17)
C30_2 C 0.5929(3) 0.2842(3) 0.34004(17)
C31_2 C 0.5952(3) 0.3905(3) 0.33426(17)
C32_2 C 0.4883(3) 0.4561(3) 0.32154(19)
C33_2 C 0.7022(3) 0.4371(3) 0.3402(2)
H33_2 H 0.7072 0.5078 0.3380
C34_2 C 0.8012(3) 0.3795(3) 0.3493(2)
H34_2 H 0.8729 0.4105 0.3515
C35_2 C 0.7919(3) 0.2765(3) 0.3550(2)
H35_2 H 0.8586 0.2377 0.3630
C36_2 C 0.3300(3) 0.6441(3) 0.49277(17)
C37_2 C 0.4406(3) 0.7045(3) 0.49192(17)
C38_2 C 0.4446(3) 0.8095(3) 0.48850(18)
C39_2 C 0.3407(3) 0.8791(3) 0.47759(19)
C40_2 C 0.5527(3) 0.8543(3) 0.48985(19)
H36_2 H 0.5594 0.9248 0.4868
C41_2 C 0.6492(3) 0.7944(3) 0.4957(2)
H37_2 H 0.7218 0.8237 0.4977
C42_2 C 0.6371(3) 0.6912(3) 0.49859(18)
H38_2 H 0.7024 0.6504 0.5016
N5_2 N 0.6329(2) 0.9352(2) 0.32702(17)
H31_2 H 0.0491 0.2546 0.2074
H32_2 H 0.0374 0.4298 0.1913
O3_2 O 0.8778(2) 0.7022(2) 0.40435(15)
O4_2 O 0.8590(2) 0.6467(2) 0.29665(15)
C1_2 C 0.8356(3) 0.9431(3) 0.34428(18)
C2_2 C 0.7296(3) 0.8793(3) 0.33427(18)
C3_2 C 0.7275(3) 0.7737(3) 0.3290(2)
C4_2 C 0.8318(3) 0.7022(3) 0.3431(2)
C5_2 C 0.6199(3) 0.7285(3) 0.3129(2)
H11_2 H 0.6148 0.6580 0.3081
C6_2 C 0.5218(3) 0.7858(3) 0.3042(2)
H12_2 H 0.4509 0.7546 0.2926
C7_2 C 0.5290(3) 0.8904(3) 0.3128(2)
H13_2 H 0.4626 0.9298 0.3087
O22_2 O 0.6222(2) 0.2022(2) 0.09565(15)
O23_2 O 0.6410(2) 0.1467(2) 0.20335(15)
C22_2 C 0.6644(3) 0.4431(3) 0.15572(18)
C23_2 C 0.7704(3) 0.3793(3) 0.16573(18)
C24_2 C 0.7725(3) 0.2737(3) 0.1710(2)
C25_2 C 0.6682(3) 0.2022(3) 0.1569(2)
C26_2 C 0.8801(3) 0.2285(3) 0.1871(2)
H30_2 H 0.8852 0.1580 0.1919
C27_2 C 0.9782(3) 0.2858(3) 0.1958(2)
C28_2 C 0.9710(3) 0.3904(3) 0.1872(2)
loop_
_geom_bond_atom_site_label_1
_geom_bond_atom_site_label_2
_geom_bond_site_symmetry_1
_geom_bond_site_symmetry_2
Er4 O31 1_555 1_555
O27 Cu2 1_555 1_555
O28 Cu2 1_555 1_555
O29 C36 1_555 1_555
O31 C39 1_555 1_555
H24 O36 1_555 1_555
H25 O36 1_555 1_555
H29 O38 1_555 1_555
C36 O28 1_555 1_555
C38 C37 1_555 1_555
C36 C37 1_555 1_555
C38 C39 1_555 1_555
Cu1 O5 1_555 1_555
O2 C1 1_555 1_555
O3 C4 1_555 1_555
O4 C4 1_555 1_555
N1 C2 1_555 1_555
N2 Cu1 1_555 1_555
C1 C2 1_555 1_555
C2 C3 1_555 1_555
C3 C4 1_555 1_555
C5 C3 1_555 1_555
H11 C5 1_555 1_555
C6 C5 1_555 1_555
H12 C6 1_555 1_555
C7 N1 1_555 1_555
H13 C7 1_555 1_555
C9 N2 1_555 1_555
C10 C9 1_555 1_555
C12 C10 1_555 1_555
C13 C12 1_555 1_555
H15 C13 1_555 1_555
C14 N2 1_555 1_555
H16 C14 1_555 1_555
Er5 O20 1_555 1_555
O18 Cu1 1_555 1_555
O20 C22 1_555 1_555
O22 C25 1_555 1_555
O23 C25 1_555 1_555
O30 Cu1 1_555 1_555
N4 Cu1 1_555 1_555
C22 O18 1_555 1_555
C23 N4 1_555 1_555
C24 C23 1_555 1_555
C25 C24 1_555 1_555
C26 C24 1_555 1_555
H30 C26 1_555 1_555
C27 C26 1_555 1_555
C28 N4 1_555 1_555
C6 C7 1_555 1_555
C13 C14 1_555 1_555
C22 C23 1_555 1_555
C27 C28 1_555 1_555
O25 C29 1_555 1_555
O26 Er2 1_555 1_555
O33 Er2 1_555 1_555
O34 Er2 1_555 1_555
H20 O34 1_555 1_555
H21 O34 1_555 1_555
O35 Er2 1_555 1_555
H22 O35 1_555 1_555
H23 O35 1_555 1_555
O37 Er2 1_555 1_555
H26 O37 1_555 1_555
C32 O26 1_555 1_555
N3 Cu2_4 1_555 1_555
H17 C19 1_555 1_555
C20 C19 1_555 1_555
H18 C20 1_555 1_555
C21 N3 1_555 1_555
Cu4 O1 1_555 1_555
C20 C21 1_555 1_555
N7 Cu2_5 1_555 1_555
H36 C40 1_555 1_555
C41 C40 1_555 1_555
H37 C41 1_555 1_555
C42 N7 1_555 1_555
C41 C42 1_555 1_555
O6 C8 1_555 1_555
O7 Er1 1_555 1_555
O13 Er1 1_555 1_555
H1 O13 1_555 1_555
H2 O13 1_555 1_555
O14 Er1 1_555 1_555
H3 O14 1_555 1_555
H4 O14 1_555 1_555
O16 Er1 1_555 1_555
H7 O16 1_555 1_555
C11 O7 1_555 1_555
O32 Er1 1_555 1_555
Cu3 O11 1_555 1_555
O19 Cu3 1_555 1_555
O24 Cu3 1_555 1_555
N5 Cu3 1_555 1_555
N6 Cu3 1_555 1_555
C30 N6 1_555 1_555
C31 C30 1_555 1_555
C33 C31 1_555 1_555
C34 C33 1_555 1_555
H34 C34 1_555 1_555
C35 N6 1_555 1_555
H35 C35 1_555 1_555
C34 C35 1_555 1_555
Cu2_8 O8 1_555 1_555
O9 Cu2_8 1_555 1_555
O10 C15 1_555 1_555
O12 C18 1_555 1_555
H5 O15 1_555 1_555
H6 O15 1_555 1_555
H10 O17 1_555 1_555
C15 O9 1_555 1_555
C17 C16 1_555 1_555
C18 C17 1_555 1_555
Er5 O12 1_555 1_555
C15 C16 1_555 1_555
Cu4 O5_2 1_555 1_555
Cu2_9 O8_2 1_555 1_555
O5_2 C8_2 1_555 1_555
O6_2 C8_2 1_555 1_555
O7_2 Er5 1_555 1_555
O8_2 C11_2 1_555 1_555
O9_2 Cu2_9 1_555 1_555
O10_2 C15_2 1_555 1_555
O11_2 C18_2 1_555 1_555
O32 C18_2 1_555 1_555
O13_2 Er5 1_555 1_555
H1_2 O13_2 1_555 1_555
H2_2 O13_2 1_555 1_555
O14_2 Er5 1_555 1_555
H3_2 O14_2 1_555 1_555
H4_2 O14_2 1_555 1_555
O15_2 Er5 1_555 1_555
H5_2 O15_2 1_555 1_555
H6_2 O15_2 1_555 1_555
O16_2 Er5 1_555 1_555
H7_2 O16_2 1_555 1_555
H8_2 O16_2 1_555 1_555
O17_2 Er5 1_555 1_555
H9_2 O17_2 1_555 1_555
H10_2 O17_2 1_555 1_555
N2_2 Cu4 1_555 1_555
N3_2 Cu2_9 1_555 1_555
C8_2 C9_2 1_555 1_555
C9_2 N2_2 1_555 1_555
C10_2 C9_2 1_555 1_555
C11_2 O7_2 1_555 1_555
C12_2 C10_2 1_555 1_555
H14_2 C12_2 1_555 1_555
C13_2 C12_2 1_555 1_555
H15_2 C13_2 1_555 1_555
C14_2 N2_2 1_555 1_555
H16_2 C14_2 1_555 1_555
C15_2 O9_2 1_555 1_555
C16_2 N3_2 1_555 1_555
C17_2 C16_2 1_555 1_555
C18_2 C17_2 1_555 1_555
C19_2 C17_2 1_555 1_555
H17_2 C19_2 1_555 1_555
C20_2 C19_2 1_555 1_555
H18_2 C20_2 1_555 1_555
C21_2 N3_2 1_555 1_555
H19_2 C21_2 1_555 1_555
Er4 O21_2 1_555 1_555
Cu3_2 O11_2 1_555 1_555
O19_2 Cu3_2 1_555 1_555
O24_2 Cu3_2 1_555 1_555
O25_2 C29_2 1_555 1_555
O26_2 Er4 1_555 1_555
O27_2 Cu2_9 1_555 1_555
O28_2 Cu2_9 1_555 1_555
O29_2 C36_2 1_555 1_555
O30_2 Cu4 1_555 1_555
O33 C39_2 1_555 1_555
O34_2 Er4 1_555 1_555
H20_2 O34_2 1_555 1_555
H21_2 O34_2 1_555 1_555
O35_2 Er4 1_555 1_555
H22_2 O35_2 1_555 1_555
H23_2 O35_2 1_555 1_555
O36_2 Er4 1_555 1_555
H24_2 O36_2 1_555 1_555
H25_2 O36_2 1_555 1_555
O37_2 Er4 1_555 1_555
H26_2 O37_2 1_555 1_555
H27_2 O37_2 1_555 1_555
O38_2 Er4 1_555 1_555
H28_2 O38_2 1_555 1_555
H29_2 O38_2 1_555 1_555
N6_2 Cu3_2 1_555 1_555
N7_2 Cu2_9 1_555 1_555
C29_2 O24_2 1_555 1_555
C30_2 N6_2 1_555 1_555
C31_2 C30_2 1_555 1_555
C32_2 O26_2 1_555 1_555
C33_2 C31_2 1_555 1_555
H33_2 C33_2 1_555 1_555
C34_2 C33_2 1_555 1_555
H34_2 C34_2 1_555 1_555
C35_2 N6_2 1_555 1_555
H35_2 C35_2 1_555 1_555
C36_2 O28_2 1_555 1_555
C37_2 N7_2 1_555 1_555
C38_2 C37_2 1_555 1_555
C39_2 O30_2 1_555 1_555
C40_2 C38_2 1_555 1_555
H36_2 C40_2 1_555 1_555
C41_2 C40_2 1_555 1_555
H37_2 C41_2 1_555 1_555
C42_2 N7_2 1_555 1_555
H38_2 C42_2 1_555 1_555
C10_2 C11_2 1_555 1_555
C13_2 C14_2 1_555 1_555
C15_2 C16_2 1_555 1_555
C20_2 C21_2 1_555 1_555
O27_2 C32_2 1_555 1_555
C29_2 C30_2 1_555 1_555
C31_2 C32_2 1_555 1_555
C34_2 C35_2 1_555 1_555
C36_2 C37_2 1_555 1_555
C38_2 C39_2 1_555 1_555
C41_2 C42_2 1_555 1_555
O21 C1_2 1_555 1_555
O3_2 C4_2 1_555 1_555
O4_2 C4_2 1_555 1_555
N5_2 C2_2 1_555 1_555
C1_2 C2_2 1_555 1_555
C2_2 C3_2 1_555 1_555
C3_2 C4_2 1_555 1_555
C5_2 C3_2 1_555 1_555
H11_2 C5_2 1_555 1_555
C6_2 C5_2 1_555 1_555
H12_2 C6_2 1_555 1_555
C7_2 N5_2 1_555 1_555
H13_2 C7_2 1_555 1_555
O21_2 C22_2 1_555 1_555
O22_2 C25_2 1_555 1_555
O23_2 C25_2 1_555 1_555
C22_2 O19 1_555 1_555
C23_2 N5 1_555 1_555
C24_2 C23_2 1_555 1_555
C25_2 C24_2 1_555 1_555
C26_2 C24_2 1_555 1_555
H30_2 C26_2 1_555 1_555
C27_2 C26_2 1_555 1_555
C28_2 N5 1_555 1_555
C6_2 C7_2 1_555 1_555
C22_2 C23_2 1_555 1_555
C27_2 C28_2 1_555 1_555

#END
