
###############################################################################
#
# This file contains modified crystal structure data generated from the
# MOF subset of the Cambridge Structural Database (CSD) v543 
# hosted by the Cambridge Crystallographic Data Centre (CCDC).
#
# This work is licensed under the Creative Commons
# Attribution-NonCommercial-ShareAlike 4.0 International License.
# To view a copy of this license, visit
# http://creativecommons.org/licenses/by-nc-sa/4.0/
# or send a letter to
# Creative Commons, PO Box 1866, Mountain View, CA 94042, USA.
#
# CIF created using the CSD Python API on 29 September 2022
# The structure has been converted into the P1 space group
# The structure has a 3D framework
# The original CSD entry XEJWUG is in the orthorhombic crystal system
# The original CSD entry XEJWUG is in a Sohncke space group
# The framework has been calculated to contain at least 10.0% void space
# The void calculation uses a probe of radius 1.32A, grid spacing 0.4
#
###############################################################################

data_XEJWUG
_chemical_formula_moiety         '(C36 H32 Co4 N4 O18)n'
_symmetry_cell_setting           triclinic
_symmetry_space_group_name_H-M   'P 1'
_symmetry_Int_Tables_number      1
_space_group_name_Hall           'P 1'
loop_
_symmetry_equiv_pos_site_id
_symmetry_equiv_pos_as_xyz
1 x,y,z
_cell_length_a                   22.334(1)
_cell_length_b                   6.746(1)
_cell_length_c                   7.597(1)
_cell_angle_alpha                90
_cell_angle_beta                 90
_cell_angle_gamma                90
_cell_volume                     1144.6
loop_
_atom_site_label
_atom_site_type_symbol
_atom_site_fract_x
_atom_site_fract_y
_atom_site_fract_z
Co4 Co 0.78910(2) 0.03534(8) 0.24849(7)
C6 C 0.5805(2) 0.0197(7) 0.7222(7)
H6 H 0.5818 0.1526 0.6810
Co5 Co 0.28910(2) 0.46466(8) 0.75151(7)
N2 N 0.36748(16) 0.2870(6) 0.7750(5)
C14 C 0.3686(2) 0.0991(8) 0.7141(7)
H13 H 0.3332 0.0457 0.6637
C16 C 0.4722(2) 0.0585(7) 0.7912(6)
C17 C 0.4696(3) 0.2469(9) 0.8591(10)
H15 H 0.5044 0.3048 0.9093
C18 C 0.4165(3) 0.3532(9) 0.8547(11)
H16 H 0.4151 0.4788 0.9111
O5 O 0.82626(13) 0.8176(5) 0.0816(4)
Co1 Co 0.71090(2) 0.53534(8) 0.75151(7)
O1 O 0.75403(13) 0.7467(5) 0.5998(4)
O2 O 0.82852(13) 0.8922(5) 0.4554(4)
C1 C 0.80861(19) 0.7859(7) 0.5773(6)
C2 C 0.85638(19) 0.7057(8) 0.7018(6)
H1 H 0.8852 0.6275 0.6313
H2 H 0.8785 0.8200 0.7513
C3 C 0.83552(19) 0.5777(6) 0.8537(5)
H3 H 0.8714 0.5230 0.9157
O3 O 0.80121(13) 0.4158(5) 0.7831(4)
H4 H 0.8148 0.2858 0.7562
C4 C 0.79878(19) 0.6996(7) 0.9846(5)
O4 O 0.74233(14) 0.6755(5) 0.9815(4)
N1 N 0.63252(16) 0.7130(6) 0.7750(5)
C5 C 0.6314(2) 0.9009(8) 0.7141(7)
H5 H 0.6668 0.9543 0.6637
C7 C 0.5278(2) 0.9415(7) 0.7912(6)
C8 C 0.5304(3) 0.7531(9) 0.8591(10)
H7 H 0.4956 0.6952 0.9093
C9 C 0.5835(3) 0.6468(9) 0.8547(11)
H8 H 0.5849 0.5212 0.9111
O6 O 0.74597(13) 0.2467(5) 0.4002(4)
O7 O 0.67148(13) 0.3922(5) 0.5446(4)
C10 C 0.69139(19) 0.2859(7) 0.4227(6)
C11 C 0.64362(19) 0.2057(8) 0.2982(6)
H9 H 0.6148 0.1275 0.3687
H10 H 0.6215 0.3200 0.2487
C12 C 0.66448(19) 0.0777(6) 0.1463(5)
H11 H 0.6286 0.0230 0.0843
C13 C 0.70122(19) 0.1996(7) 0.0154(5)
O10 O 0.75767(14) 0.1755(5) 0.0185(4)
O12 O 0.67374(13) 0.3176(5) 0.9184(4)
N3 N 0.86748(16) 0.2130(6) 0.2250(5)
C15 C 0.4195(2) 0.9803(7) 0.7222(7)
H14 H 0.4182 0.8474 0.6810
O9 O 0.69879(13) 0.9158(5) 0.2169(4)
H12 H 0.6852 0.7858 0.2438
O8 O 0.17148(13) 0.1078(5) 0.4554(4)
O9_2 O 0.30121(13) 0.0842(5) 0.2169(4)
H12_2 H 0.3148 0.2142 0.2438
O13 O 0.17374(13) 0.1824(5) 0.0816(4)
O1_2 O 0.24597(13) 0.2533(5) 0.5998(4)
C1_2 C 0.19139(19) 0.2141(7) 0.5773(6)
C2_2 C 0.14362(19) 0.2943(8) 0.7018(6)
H1_2 H 0.1148 0.3725 0.6313
H2_2 H 0.1215 0.1800 0.7513
C3_2 C 0.16448(19) 0.4223(6) 0.8537(5)
H3_2 H 0.1286 0.4770 0.9157
O3_2 O 0.19879(13) 0.5842(5) 0.7831(4)
H4_2 H 0.1852 0.7142 0.7562
C4_2 C 0.20122(19) 0.3004(7) 0.9846(5)
O4_2 O 0.25767(14) 0.3245(5) 0.9815(4)
Co2 Co 0.21090(2) 0.96466(8) 0.24849(7)
O6_2 O 0.25403(13) 0.7533(5) 0.4002(4)
O7_2 O 0.32852(13) 0.6078(5) 0.5446(4)
C10_2 C 0.30861(19) 0.7141(7) 0.4227(6)
C11_2 C 0.35638(19) 0.7943(8) 0.2982(6)
H9_2 H 0.3852 0.8725 0.3687
H10_2 H 0.3785 0.6800 0.2487
C12_2 C 0.33552(19) 0.9223(6) 0.1463(5)
H11_2 H 0.3714 0.9770 0.0843
C13_2 C 0.29878(19) 0.8004(7) 0.0154(5)
O10_2 O 0.24233(14) 0.8245(5) 0.0185(4)
O12_2 O 0.32626(13) 0.6824(5) 0.9184(4)
N3_2 N 0.13252(16) 0.7870(6) 0.2250(5)
C5_2 C 0.1314(2) 0.5991(8) 0.2859(7)
H5_2 H 0.1668 0.5457 0.3363
C6_2 C 0.0805(2) 0.4803(7) 0.2778(7)
H6_2 H 0.0818 0.3474 0.3190
C7_2 C 0.0278(2) 0.5585(7) 0.2088(6)
C8_2 C 0.0304(3) 0.7469(9) 0.1409(10)
C9_2 C 0.0835(3) 0.8532(9) 0.1453(11)
H8_2 H 0.0849 0.9788 0.0889
H15_2 H 0.0044 0.1952 0.0907
H7_2 H 0.9956 0.8048 0.0907
C14_2 C 0.8686(2) 0.4009(8) 0.2859(7)
H13_2 H 0.8332 0.4543 0.3363
C15_2 C 0.9195(2) 0.5197(7) 0.2778(7)
H14_2 H 0.9182 0.6526 0.3190
C16_2 C 0.9722(2) 0.4415(7) 0.2088(6)
C17_2 C 0.9696(3) 0.2531(9) 0.1409(10)
C18_2 C 0.9165(3) 0.1468(9) 0.1453(11)
H16_2 H 0.9151 0.0212 0.0889
loop_
_geom_bond_atom_site_label_1
_geom_bond_atom_site_label_2
_geom_bond_site_symmetry_1
_geom_bond_site_symmetry_2
H6 C6 1_555 1_555
Co5 N2 1_555 1_555
N2 C14 1_555 1_555
C14 H13 1_555 1_555
C17 C16 1_555 1_555
H15 C17 1_555 1_555
C18 N2 1_555 1_555
H16 C18 1_555 1_555
C17 C18 1_555 1_555
Co1 O1 1_555 1_555
O1 C1 1_555 1_555
O2 C1 1_555 1_555
C1 C2 1_555 1_555
C2 H1 1_555 1_555
H2 C2 1_555 1_555
C3 C2 1_555 1_555
H3 C3 1_555 1_555
O3 Co1 1_555 1_555
H4 O3 1_555 1_555
C4 C3 1_555 1_555
O4 Co1 1_555 1_555
N1 Co1 1_555 1_555
C5 N1 1_555 1_555
H5 C5 1_555 1_555
C8 C7 1_555 1_555
H7 C8 1_555 1_555
C9 N1 1_555 1_555
H8 C9 1_555 1_555
Co4 O6 1_555 1_555
O6 C10 1_555 1_555
O7 Co1 1_555 1_555
C10 O7 1_555 1_555
C11 C10 1_555 1_555
H9 C11 1_555 1_555
H10 C11 1_555 1_555
C12 C11 1_555 1_555
H11 C12 1_555 1_555
C13 C12 1_555 1_555
O10 Co4 1_555 1_555
O12 Co1 1_555 1_555
N3 Co4 1_555 1_555
H14 C15 1_555 1_555
C3 O3 1_555 1_555
C4 O4 1_555 1_555
C8 C9 1_555 1_555
C13 O10 1_555 1_555
H12 O9 1_555 1_555
H12_2 O9_2 1_555 1_555
Co5 O1_2 1_555 1_555
O1_2 C1_2 1_555 1_555
O8 C1_2 1_555 1_555
C1_2 C2_2 1_555 1_555
C2_2 H1_2 1_555 1_555
H2_2 C2_2 1_555 1_555
C3_2 C2_2 1_555 1_555
H3_2 C3_2 1_555 1_555
O3_2 Co5 1_555 1_555
H4_2 O3_2 1_555 1_555
C4_2 C3_2 1_555 1_555
O4_2 Co5 1_555 1_555
Co2 O6_2 1_555 1_555
O6_2 C10_2 1_555 1_555
O7_2 Co5 1_555 1_555
C10_2 O7_2 1_555 1_555
C11_2 C10_2 1_555 1_555
H9_2 C11_2 1_555 1_555
H10_2 C11_2 1_555 1_555
C12_2 C11_2 1_555 1_555
H11_2 C12_2 1_555 1_555
C13_2 C12_2 1_555 1_555
O10_2 Co2 1_555 1_555
O12_2 Co5 1_555 1_555
N3_2 Co2 1_555 1_555
C3_2 O3_2 1_555 1_555
C4_2 O4_2 1_555 1_555
C13_2 O10_2 1_555 1_555
C5_2 N3_2 1_555 1_555
H5_2 C5_2 1_555 1_555
C6_2 C5_2 1_555 1_555
H6_2 C6_2 1_555 1_555
C7_2 C6_2 1_555 1_555
C8_2 C7_2 1_555 1_555
C9_2 N3_2 1_555 1_555
H8_2 C9_2 1_555 1_555
C8_2 C9_2 1_555 1_555
N3 C14_2 1_555 1_555
C14_2 H13_2 1_555 1_555
C15_2 C14_2 1_555 1_555
H14_2 C15_2 1_555 1_555
C17_2 C16_2 1_555 1_555
C18_2 N3 1_555 1_555
H16_2 C18_2 1_555 1_555
C15_2 C16_2 1_555 1_555
C17_2 C18_2 1_555 1_555

#END
