
###############################################################################
#
# This file contains modified crystal structure data generated from the
# MOF subset of the Cambridge Structural Database (CSD) v543 
# hosted by the Cambridge Crystallographic Data Centre (CCDC).
#
# This work is licensed under the Creative Commons
# Attribution-NonCommercial-ShareAlike 4.0 International License.
# To view a copy of this license, visit
# http://creativecommons.org/licenses/by-nc-sa/4.0/
# or send a letter to
# Creative Commons, PO Box 1866, Mountain View, CA 94042, USA.
#
# CIF created using the CSD Python API on 29 September 2022
# The structure has been converted into the P1 space group
# The structure has a 3D framework
# The original CSD entry XEKDAW is in the orthorhombic crystal system
# The original CSD entry XEKDAW is in a Sohncke space group
# The framework has been calculated to contain at least 10.0% void space
# The void calculation uses a probe of radius 1.32A, grid spacing 0.4
# H atom positions have been added when not included in the experimental data
#
###############################################################################

data_XEKDAW
_chemical_formula_moiety         '(C60 H76 Co6 N12 O46)n'
_symmetry_cell_setting           triclinic
_symmetry_space_group_name_H-M   'P 1'
_symmetry_Int_Tables_number      1
_space_group_name_Hall           'P 1'
loop_
_symmetry_equiv_pos_site_id
_symmetry_equiv_pos_as_xyz
1 x,y,z
_cell_length_a                   11.2200(8)
_cell_length_b                   14.9226(10)
_cell_length_c                   16.4675(11)
_cell_angle_alpha                90
_cell_angle_beta                 90
_cell_angle_gamma                90
_cell_volume                     2757.18
loop_
_atom_site_label
_atom_site_type_symbol
_atom_site_fract_x
_atom_site_fract_y
_atom_site_fract_z
C1 C 0.1224(14) 0.3275(9) 0.0205(4)
H2 H 0.1341 0.2779 0.0568
H3 H 0.0689 0.3699 0.0449
H4 H 0.1976 0.3560 0.0101
Co1 Co 0.16251(5) 0.33023(3) 0.70186(3)
Co2 Co 0.50479(5) 0.51140(3) 0.10391(3)
O1 O 0.3958(4) 0.1224(2) 0.4491(2)
O2 O 0.6108(4) 0.4194(3) 0.0406(3)
O3 O 0.6892(4) 0.4653(3) 0.1504(3)
O4 O 0.3394(4) 0.3096(3) 0.7408(3)
H1 H 0.4305 0.3498 0.7258
O5 O 0.3289(3) 0.5470(2) 0.25851(19)
O6 O 0.2243(3) 0.3770(2) 0.59398(19)
O7 O 0.1245(3) 0.4759(2) 0.51996(19)
O8 O 0.4319(3) 0.4413(2) 0.19341(19)
O9 O 0.1578(4) 0.2085(2) 0.6425(2)
O10 O 0.4840(3) 0.14067(19) 0.33340(19)
O11 O 0.0974(4) 0.2749(3) 0.8096(2)
N1 N 0.1435(5) 0.0600(3) 0.6210(3)
N2 N 0.0709(7) 0.2946(4) 0.9430(3)
C2 C 0.3721(4) 0.2649(3) 0.3873(3)
C3 C 0.1999(4) 0.4149(3) 0.5293(2)
N3 N 0.6998(4) 0.4183(4) 0.0907(4)
C4 C 0.3863(4) 0.3188(3) 0.3199(2)
H5 H 0.4245 0.2966 0.2740
C5 C 0.3683(4) 0.4701(3) 0.2509(2)
C6 C 0.2817(4) 0.4377(3) 0.3874(3)
H6 H 0.2506 0.4954 0.3873
C7 C 0.3435(4) 0.4065(3) 0.3204(2)
C8 C 0.2659(4) 0.3833(3) 0.4547(2)
C9 C 0.3128(4) 0.2967(3) 0.4544(2)
H7 H 0.3039 0.2603 0.4998
C10 C 0.4192(4) 0.1706(3) 0.3908(3)
C11 C 0.1577(5) 0.1314(3) 0.6678(3)
H8 H 0.1683 0.1223 0.7232
O12 O 0.7850(5) 0.3735(5) 0.0731(5)
C12 C 0.1358(7) 0.3003(4) 0.8760(3)
H9 H 0.2123 0.3241 0.8791
C13 C 0.1182(7) 0.0711(5) 0.5353(4)
H10 H 0.0508 0.1100 0.5288
H11 H 0.1008 0.0137 0.5117
H12 H 0.1863 0.0968 0.5088
Co3 Co 0.33749(5) 0.66977(3) 0.20186(3)
Co4 Co 0.66251(5) 0.16977(3) 0.29814(3)
Co6 Co 0.49521(5) 0.01140(3) 0.39609(3)
O13 O 0.6042(4) 0.6224(2) 0.0509(2)
O14 O 0.1711(3) 0.4530(2) 0.75851(19)
O15 O 0.3755(3) 0.5241(2) 0.01996(19)
O16 O 0.5160(3) 0.64067(19) 0.16660(19)
H19 H 0.357054 0.247218 0.7236
C15 C 0.9533(10) 0.2531(7) 0.9425(5)
H16 H 0.8950 0.2957 0.9606
H17 H 0.9533 0.2022 0.9782
H18 H 0.9342 0.2339 0.8883
Co5 Co 0.99521(5) 0.48860(3) 0.60391(3)
O17 O 0.9840(3) 0.35933(19) 0.66660(19)
O4_2 O 0.1606(4) 0.6904(3) 0.2408(3)
H1_2 H 0.0695 0.6502 0.2258
O6_2 O 0.2757(3) 0.6230(2) 0.09398(19)
O9_2 O 0.3422(4) 0.7915(2) 0.1425(2)
O11_2 O 0.4026(4) 0.7251(3) 0.3096(2)
N1_2 N 0.3565(5) 0.9400(3) 0.1210(3)
N2_2 N 0.4291(7) 0.7054(4) 0.4430(3)
C1_2 C 0.3776(14) 0.6725(9) 0.5205(4)
H2_2 H 0.3659 0.7221 0.5568
H3_2 H 0.4311 0.6301 0.5449
H4_2 H 0.3024 0.6440 0.5101
C3_2 C 0.3001(4) 0.5851(3) 0.0293(2)
C11_2 C 0.3423(5) 0.8686(3) 0.1678(3)
H8_2 H 0.3317 0.8777 0.2232
C12_2 C 0.3642(7) 0.6997(4) 0.3760(3)
H9_2 H 0.2877 0.6759 0.3791
C13_2 C 0.3818(7) 0.9289(5) 0.0353(4)
H10_2 H 0.4492 0.8900 0.0288
H11_2 H 0.3992 0.9863 0.0117
H12_2 H 0.3137 0.9032 0.0088
C15_2 C 0.5467(10) 0.7469(7) 0.4425(5)
H16_2 H 0.6050 0.7043 0.4606
H17_2 H 0.5467 0.7978 0.4782
H18_2 H 0.5658 0.7661 0.3883
H19_2 H 0.142946 0.752782 0.2236
O1_2 O 0.1042(4) 0.8776(2) 0.9491(2)
O8_2 O 0.0681(3) 0.5587(2) 0.69341(19)
O10_2 O 0.0160(3) 0.85933(19) 0.83340(19)
C2_2 C 0.1279(4) 0.7351(3) 0.8873(3)
C4_2 C 0.1137(4) 0.6812(3) 0.8199(2)
H5_2 H 0.0755 0.7034 0.7740
C5_2 C 0.1317(4) 0.5299(3) 0.7509(2)
C6_2 C 0.2183(4) 0.5623(3) 0.8874(3)
H6_2 H 0.2494 0.5046 0.8873
C7_2 C 0.1565(4) 0.5935(3) 0.8204(2)
C8_2 C 0.2341(4) 0.6167(3) 0.9547(2)
C9_2 C 0.1872(4) 0.7033(3) 0.9544(2)
H7_2 H 0.1961 0.7397 0.9998
C10_2 C 0.0808(4) 0.8294(3) 0.8908(3)
Co6_2 Co 0.00479(5) 0.98860(3) 0.89609(3)
O2_2 O 0.8892(4) 0.5806(3) 0.5406(3)
O3_2 O 0.8108(4) 0.5347(3) 0.6504(3)
N3_2 N 0.8002(4) 0.5817(4) 0.5907(4)
O12_2 O 0.7150(5) 0.6265(5) 0.5731(5)
Co4_2 Co 0.83749(5) 0.83023(3) 0.79814(3)
O13_2 O 0.8958(4) 0.3776(2) 0.5509(2)
C15_3 C 0.0467(10) 0.7531(7) 0.5575(5)
H16_3 H 0.1050 0.7957 0.5394
H17_3 H 0.0467 0.7022 0.5218
H18_3 H 0.0658 0.7339 0.6117
O5_2 O 0.6711(3) 0.0470(2) 0.24149(19)
O15_2 O 0.6245(3) 0.0241(2) 0.48004(19)
O2_3 O 0.3892(4) 0.9194(3) 0.4594(3)
O3_3 O 0.3108(4) 0.9653(3) 0.3496(3)
O8_3 O 0.5681(3) 0.9413(2) 0.30659(19)
C2_3 C 0.6279(4) 0.7649(3) 0.1127(3)
N3_3 N 0.3002(4) 0.9183(4) 0.4093(4)
C4_3 C 0.6137(4) 0.8188(3) 0.1801(2)
H5_3 H 0.5755 0.7966 0.2260
C5_3 C 0.6317(4) 0.9701(3) 0.2491(2)
C6_3 C 0.7183(4) 0.9377(3) 0.1126(3)
H6_3 H 0.7494 0.9954 0.1127
C7_3 C 0.6565(4) 0.9065(3) 0.1796(2)
C8_3 C 0.7341(4) 0.8833(3) 0.0453(2)
C9_3 C 0.6872(4) 0.7967(3) 0.0456(2)
H7_3 H 0.6961 0.7603 0.0002
C10_3 C 0.5808(4) 0.6706(3) 0.1092(3)
O12_3 O 0.2150(5) 0.8735(5) 0.4269(5)
O4_3 O 0.6606(4) 0.8096(3) 0.7592(3)
H1_3 H 0.5695 0.8498 0.7742
O6_3 O 0.7757(3) 0.8770(2) 0.90602(19)
O7_2 O 0.8755(3) 0.9759(2) 0.98004(19)
O9_3 O 0.8422(4) 0.7085(2) 0.8575(2)
O11_3 O 0.9026(4) 0.7749(3) 0.6904(2)
N1_3 N 0.8565(5) 0.5600(3) 0.8790(3)
N2_3 N 0.9291(7) 0.7946(4) 0.5570(3)
C1_3 C 0.8776(14) 0.8275(9) 0.4795(4)
H2_3 H 0.8659 0.7779 0.4432
H3_3 H 0.9311 0.8699 0.4551
H4_3 H 0.8024 0.8560 0.4899
C3_3 C 0.8001(4) 0.9149(3) 0.9707(2)
C11_3 C 0.8423(5) 0.6314(3) 0.8322(3)
H8_3 H 0.8317 0.6223 0.7768
C12_3 C 0.8642(7) 0.8003(4) 0.6240(3)
H9_3 H 0.7877 0.8241 0.6209
C13_3 C 0.8818(7) 0.5711(5) 0.9647(4)
H10_3 H 0.9492 0.6100 0.9712
H11_3 H 0.8992 0.5137 0.9883
H12_3 H 0.8137 0.5968 0.9912
C14 C 0.8582(9) 0.4719(4) 0.8483(6)
H13 H 0.7901 0.4398 0.8682
H14 H 0.9297 0.4423 0.8658
H15 H 0.8560 0.4736 0.7901
O14_2 O 0.8289(3) 0.9530(2) 0.74149(19)
H19_3 H 0.642946 0.747218 0.7764
O2_4 O 0.1108(4) 0.0806(3) 0.9594(3)
O3_4 O 0.1892(4) 0.0347(3) 0.8496(3)
N3_4 N 0.1998(4) 0.0817(4) 0.9093(4)
O12_4 O 0.2850(5) 0.1265(5) 0.9269(5)
O4_4 O 0.8394(4) 0.1904(3) 0.2592(3)
H1_4 H 0.9305 0.1502 0.2742
O6_4 O 0.7243(3) 0.1230(2) 0.40602(19)
O8_4 O 0.9319(3) 0.0587(2) 0.80659(19)
O9_4 O 0.6578(4) 0.2915(2) 0.3575(2)
O11_4 O 0.5974(4) 0.2251(3) 0.1904(2)
N1_4 N 0.6435(5) 0.4400(3) 0.3790(3)
N2_4 N 0.5709(7) 0.2054(4) 0.0570(3)
C2_4 C 0.8721(4) 0.2351(3) 0.6127(3)
C3_4 C 0.6999(4) 0.0851(3) 0.4707(2)
C4_4 C 0.8863(4) 0.1812(3) 0.6801(2)
H5_4 H 0.9245 0.2034 0.7260
C5_4 C 0.8683(4) 0.0299(3) 0.7491(2)
C6_4 C 0.7817(4) 0.0623(3) 0.6126(3)
H6_4 H 0.7506 0.0046 0.6127
C7_4 C 0.8435(4) 0.0935(3) 0.6796(2)
C8_4 C 0.7659(4) 0.1167(3) 0.5453(2)
C9_4 C 0.8128(4) 0.2033(3) 0.5456(2)
H7_4 H 0.8039 0.2397 0.5002
C10_4 C 0.9192(4) 0.3294(3) 0.6092(3)
C11_4 C 0.6577(5) 0.3686(3) 0.3322(3)
H8_4 H 0.6683 0.3777 0.2768
C12_4 C 0.6358(7) 0.1997(4) 0.1240(3)
H9_4 H 0.7123 0.1759 0.1209
C13_4 C 0.6182(7) 0.4289(5) 0.4647(4)
H10_4 H 0.5508 0.3900 0.4712
H11_4 H 0.6008 0.4863 0.4883
H12_4 H 0.6863 0.4032 0.4912
C14_2 C 0.6418(9) 0.5281(4) 0.3483(6)
H13_2 H 0.7099 0.5602 0.3682
H14_2 H 0.5703 0.5577 0.3658
H15_2 H 0.6440 0.5264 0.2901
C15_4 C 0.4533(10) 0.2469(7) 0.0575(5)
H16_4 H 0.3950 0.2043 0.0394
H17_4 H 0.4533 0.2978 0.0218
H18_4 H 0.4342 0.2661 0.1117
H19_4 H 0.857054 0.252782 0.2764
C14_3 C 0.1418(9) 0.9719(4) 0.6517(6)
H13_3 H 0.2099 0.9398 0.6318
H14_3 H 0.0703 0.9423 0.6342
H15_3 H 0.1440 0.9736 0.7099
C14_4 C 0.3582(9) 0.0281(4) 0.1517(6)
H13_4 H 0.2901 0.0602 0.1318
H14_4 H 0.4297 0.0577 0.1342
H15_4 H 0.3560 0.0264 0.2099
C1_4 C 0.6224(14) 0.1725(9) 0.9795(4)
H2_4 H 0.6341 0.2221 0.9432
H3_4 H 0.5689 0.1301 0.9551
H4_4 H 0.6976 0.1440 0.9899
loop_
_geom_bond_atom_site_label_1
_geom_bond_atom_site_label_2
_geom_bond_site_symmetry_1
_geom_bond_site_symmetry_2
C1 H2 1_555 1_555
H3 C1 1_555 1_555
H4 C1 1_555 1_555
Co1 O4 1_555 1_555
Co2 O2 1_555 1_555
O1 C10 1_555 1_555
O2 N3 1_555 1_555
O3 Co2 1_555 1_555
O4 H1 1_555 1_555
O5 C5 1_555 1_555
O6 Co1 1_555 1_555
O7 C3 1_555 1_555
O8 Co2 1_555 1_555
O9 Co1 1_555 1_555
O10 C10 1_555 1_555
O11 Co1 1_555 1_555
N1 C11 1_555 1_555
C2 C4 1_555 1_555
C3 O6 1_555 1_555
N3 O3 1_555 1_555
C4 H5 1_555 1_555
C5 O8 1_555 1_555
C6 H6 1_555 1_555
C7 C4 1_555 1_555
C8 C3 1_555 1_555
C9 C2 1_555 1_555
H7 C9 1_555 1_555
C10 C2 1_555 1_555
C11 O9 1_555 1_555
H8 C11 1_555 1_555
O12 N3 1_555 1_555
C12 O11 1_555 1_555
H9 C12 1_555 1_555
C13 N1 1_555 1_555
H10 C13 1_555 1_555
H11 C13 1_555 1_555
H12 C13 1_555 1_555
Co3 O5 1_555 1_555
Co4 O10 1_555 1_555
Co6 O1 1_555 1_555
O13 Co2 1_555 1_555
O14 Co1 1_555 1_555
O15 Co2 1_555 1_555
O16 Co2 1_555 1_555
O10 Co6 1_555 1_555
N2 C12 1_555 1_555
C5 C7 1_555 1_555
C6 C7 1_555 1_555
C6 C8 1_555 1_555
C8 C9 1_555 1_555
Co3 O16 1_555 1_555
O4 H19 1_555 1_555
H16 C15 1_555 1_555
H17 C15 1_555 1_555
H18 C15 1_555 1_555
Co5 O17 1_555 1_555
Co3 O4_2 1_555 1_555
O4_2 H1_2 1_555 1_555
O6_2 Co3 1_555 1_555
O15 C3_2 1_555 1_555
O9_2 Co3 1_555 1_555
O11_2 Co3 1_555 1_555
N1_2 C11_2 1_555 1_555
N2_2 C1_2 1_555 1_555
C1_2 H2_2 1_555 1_555
H3_2 C1_2 1_555 1_555
H4_2 C1_2 1_555 1_555
C3_2 O6_2 1_555 1_555
C11_2 O9_2 1_555 1_555
H8_2 C11_2 1_555 1_555
C12_2 O11_2 1_555 1_555
H9_2 C12_2 1_555 1_555
C13_2 N1_2 1_555 1_555
H10_2 C13_2 1_555 1_555
H11_2 C13_2 1_555 1_555
H12_2 C13_2 1_555 1_555
C15_2 N2_2 1_555 1_555
H16_2 C15_2 1_555 1_555
H17_2 C15_2 1_555 1_555
H18_2 C15_2 1_555 1_555
N2_2 C12_2 1_555 1_555
O4_2 H19_2 1_555 1_555
O1_2 C10_2 1_555 1_555
O14 C5_2 1_555 1_555
O10_2 C10_2 1_555 1_555
C2_2 C4_2 1_555 1_555
C4_2 H5_2 1_555 1_555
C5_2 O8_2 1_555 1_555
C6_2 H6_2 1_555 1_555
C7_2 C4_2 1_555 1_555
C9_2 C2_2 1_555 1_555
H7_2 C9_2 1_555 1_555
C10_2 C2_2 1_555 1_555
Co6_2 O1_2 1_555 1_555
O10_2 Co6_2 1_555 1_555
C5_2 C7_2 1_555 1_555
C6_2 C7_2 1_555 1_555
C6_2 C8_2 1_555 1_555
C8_2 C9_2 1_555 1_555
Co5 O2_2 1_555 1_555
O2_2 N3_2 1_555 1_555
O3_2 Co5 1_555 1_555
N3_2 O3_2 1_555 1_555
O12_2 N3_2 1_555 1_555
O13_2 Co5 1_555 1_555
H16_3 C15_3 1_555 1_555
H17_3 C15_3 1_555 1_555
H18_3 C15_3 1_555 1_555
Co4 O5_2 1_555 1_555
O15_2 Co6 1_555 1_555
O13 C10_3 1_555 1_555
O2_3 N3_3 1_555 1_555
O16 C10_3 1_555 1_555
C2_3 C4_3 1_555 1_555
N3_3 O3_3 1_555 1_555
C4_3 H5_3 1_555 1_555
C5_3 O8_3 1_555 1_555
C6_3 H6_3 1_555 1_555
C7_3 C4_3 1_555 1_555
C9_3 C2_3 1_555 1_555
H7_3 C9_3 1_555 1_555
C10_3 C2_3 1_555 1_555
O12_3 N3_3 1_555 1_555
C5_3 C7_3 1_555 1_555
C6_3 C7_3 1_555 1_555
C6_3 C8_3 1_555 1_555
C8_3 C9_3 1_555 1_555
Co4_2 O4_3 1_555 1_555
O4_3 H1_3 1_555 1_555
O6_3 Co4_2 1_555 1_555
O7_2 C3_3 1_555 1_555
O9_3 Co4_2 1_555 1_555
O11_3 Co4_2 1_555 1_555
N1_3 C11_3 1_555 1_555
N2_3 C1_3 1_555 1_555
C1_3 H2_3 1_555 1_555
H3_3 C1_3 1_555 1_555
H4_3 C1_3 1_555 1_555
C3_3 O6_3 1_555 1_555
C11_3 O9_3 1_555 1_555
H8_3 C11_3 1_555 1_555
C12_3 O11_3 1_555 1_555
H9_3 C12_3 1_555 1_555
C13_3 N1_3 1_555 1_555
H10_3 C13_3 1_555 1_555
H11_3 C13_3 1_555 1_555
H12_3 C13_3 1_555 1_555
C14 N1_3 1_555 1_555
H13 C14 1_555 1_555
H14 C14 1_555 1_555
H15 C14 1_555 1_555
O14_2 Co4_2 1_555 1_555
N2_3 C12_3 1_555 1_555
O4_3 H19_3 1_555 1_555
O2_4 N3_4 1_555 1_555
N3_4 O3_4 1_555 1_555
O12_4 N3_4 1_555 1_555
Co4 O4_4 1_555 1_555
O13_2 C10_4 1_555 1_555
O4_4 H1_4 1_555 1_555
O6_4 Co4 1_555 1_555
O15_2 C3_4 1_555 1_555
O9_4 Co4 1_555 1_555
O17 C10_4 1_555 1_555
O11_4 Co4 1_555 1_555
N1_4 C11_4 1_555 1_555
C2_4 C4_4 1_555 1_555
C3_4 O6_4 1_555 1_555
C4_4 H5_4 1_555 1_555
C5_4 O8_4 1_555 1_555
C6_4 H6_4 1_555 1_555
C7_4 C4_4 1_555 1_555
C8_4 C3_4 1_555 1_555
C9_4 C2_4 1_555 1_555
H7_4 C9_4 1_555 1_555
C10_4 C2_4 1_555 1_555
C11_4 O9_4 1_555 1_555
H8_4 C11_4 1_555 1_555
C12_4 O11_4 1_555 1_555
H9_4 C12_4 1_555 1_555
C13_4 N1_4 1_555 1_555
H10_4 C13_4 1_555 1_555
H11_4 C13_4 1_555 1_555
H12_4 C13_4 1_555 1_555
C14_2 N1_4 1_555 1_555
H13_2 C14_2 1_555 1_555
H14_2 C14_2 1_555 1_555
H15_2 C14_2 1_555 1_555
C15_4 N2_4 1_555 1_555
H16_4 C15_4 1_555 1_555
H17_4 C15_4 1_555 1_555
H18_4 C15_4 1_555 1_555
N2_4 C12_4 1_555 1_555
C5_4 C7_4 1_555 1_555
C6_4 C7_4 1_555 1_555
C6_4 C8_4 1_555 1_555
C8_4 C9_4 1_555 1_555
O4_4 H19_4 1_555 1_555
H13_3 C14_3 1_555 1_555
H14_3 C14_3 1_555 1_555
H15_3 C14_3 1_555 1_555
H13_4 C14_4 1_555 1_555
H14_4 C14_4 1_555 1_555
H15_4 C14_4 1_555 1_555
C1_4 H2_4 1_555 1_555
H3_4 C1_4 1_555 1_555
H4_4 C1_4 1_555 1_555

#END
