
###############################################################################
#
# This file contains modified crystal structure data generated from the
# MOF subset of the Cambridge Structural Database (CSD) v543 
# hosted by the Cambridge Crystallographic Data Centre (CCDC).
#
# This work is licensed under the Creative Commons
# Attribution-NonCommercial-ShareAlike 4.0 International License.
# To view a copy of this license, visit
# http://creativecommons.org/licenses/by-nc-sa/4.0/
# or send a letter to
# Creative Commons, PO Box 1866, Mountain View, CA 94042, USA.
#
# CIF created using the CSD Python API on 29 September 2022
# The structure has been converted into the P1 space group
# The structure has a 3D framework
# The original CSD entry XEKREM is in the triclinic crystal system
# The framework has been calculated to contain at least 10.0% void space
# The void calculation uses a probe of radius 1.32A, grid spacing 0.4
#
###############################################################################

data_XEKREM
_chemical_formula_moiety         '(C68 H60 Co4 N6 O24 S2)n'
_symmetry_cell_setting           triclinic
_symmetry_space_group_name_H-M   'P 1'
_symmetry_Int_Tables_number      1
_space_group_name_Hall           'P 1'
loop_
_symmetry_equiv_pos_site_id
_symmetry_equiv_pos_as_xyz
1 x,y,z
_cell_length_a                   11.3454(18)
_cell_length_b                   13.476(2)
_cell_length_c                   13.524(2)
_cell_angle_alpha                67.947(2)
_cell_angle_beta                 84.063(2)
_cell_angle_gamma                76.911(2)
_cell_volume                     1866.24
loop_
_atom_site_label
_atom_site_type_symbol
_atom_site_fract_x
_atom_site_fract_y
_atom_site_fract_z
_atom_site_U_iso_or_equiv
_atom_site_thermal_displace_type
N1 N 0.3174(3) 0.6742(3) 0.2320(3) 0.0325 Uani
C1 C 0.2313(5) 0.7465(4) 0.1667(4) 0.0443 Uani
H1 H 0.1712 0.7891 0.1944 0.0530 Uiso
C2 C 0.4046(5) 0.6295(5) 0.0827(5) 0.0574 Uani
H2 H 0.4673 0.5890 0.0551 0.0690 Uiso
C3 C 0.2268(5) 0.7613(4) 0.0617(4) 0.0507 Uani
H3 H 0.1644 0.8127 0.0201 0.0610 Uiso
C4 C 0.3128(5) 0.7014(4) 0.0169(4) 0.0451 Uani
C23 C 0.4047(5) 0.6168(5) 0.1888(4) 0.0448 Uani
H17 H 0.4671 0.5670 0.2315 0.0540 Uiso
C34 C 0.4392(6) 0.0027(8) 0.0106(7) 0.1022 Uani
H27 H 0.4115 0.0433 0.0575 0.1220 Uiso
Co5 Co 0.31737(5) 0.63828(5) 0.40074(5) 0.0259 Uani
H56 H 0.6165 0.0734 0.1338 0.0950 Uiso
C5 C 0.3128(6) 0.7101(5) 0.9029(4) 0.0611 Uani
H4 H 0.2494 0.7709 0.8657 0.0740 Uiso
H5 H 0.3895 0.7259 0.8690 0.0740 Uiso
O2 O 0.4995(3) 0.6524(3) 0.3797(3) 0.0332 Uani
H6 H 0.5194 0.7206 0.3607 0.0400 Uiso
H7 H 0.5603 0.5905 0.3894 0.0400 Uiso
C8 C 0.0985(4) 0.0042(4) 0.3189(4) 0.0337 Uani
C10 C 0.0228(4) 0.1058(4) 0.2783(4) 0.0434 Uani
C11 C 0.2693(4) 0.0869(4) 0.2368(4) 0.0330 Uani
H9 H 0.3524 0.0811 0.2249 0.0390 Uiso
Co2 Co 0.13460(5) 0.23875(5) 0.57552(5) 0.0293 Uani
S1 S 0.24577(13) 0.30542(10) 0.11598(10) 0.0402 Uani
O5 O 0.1390(3) 0.6103(3) 0.4266(3) 0.0324 Uani
O6 O 0.3658(3) 0.4686(2) 0.4353(3) 0.0304 Uani
O7 O 0.2639(3) 0.3381(3) 0.5179(3) 0.0410 Uani
O8 O 0.0194(3) 0.3082(3) 0.4423(3) 0.0375 Uani
N2 N 0.3183(3) 0.6105(3) 0.5687(3) 0.0316 Uani
N3 N 0.2434(3) 0.1609(3) 0.7125(3) 0.0358 Uani
O10 O 0.2346(3) 0.1439(3) 0.4874(3) 0.0472 Uani
H11 H 0.2252 0.0806 0.5156 0.0710 Uiso
C12 C 0.2848(4) 0.4168(3) 0.4382(4) 0.0266 Uani
C13 C 0.0667(4) 0.6006(3) 0.3671(4) 0.0288 Uani
C14 C 0.2173(4) 0.4439(3) 0.3368(4) 0.0263 Uani
O11 O 0.3754(3) 0.2773(3) 0.1153(3) 0.0568 Uani
O12 O 0.1841(4) 0.3534(3) 0.0164(3) 0.0610 Uani
C15 C 0.2567(4) 0.3778(4) 0.2781(4) 0.0309 Uani
H12 H 0.3239 0.3210 0.2997 0.0370 Uiso
C16 C 0.1962(4) 0.3958(4) 0.1864(4) 0.0325 Uani
C17 C 0.1144(4) 0.5284(3) 0.3049(4) 0.0277 Uani
C18 C 0.1907(4) 0.1878(4) 0.1950(4) 0.0342 Uani
C19 C 0.0659(5) 0.1962(4) 0.2163(5) 0.0453 Uani
H13 H 0.0131 0.2633 0.1881 0.0550 Uiso
C20 C 0.0566(4) 0.5446(4) 0.2121(4) 0.0376 Uani
C21 C 0.3757(4) 0.6728(4) 0.5964(4) 0.0383 Uani
H15 H 0.4208 0.7173 0.5443 0.0460 Uiso
C22 C 0.0958(4) 0.4791(4) 0.1527(4) 0.0377 Uani
H16 H 0.0557 0.4907 0.0915 0.0450 Uiso
C24 C 0.2488(5) 0.5427(4) 0.7503(4) 0.0412 Uani
H18 H 0.2054 0.4955 0.8014 0.0490 Uiso
C25 C 0.3048(5) 0.6095(4) 0.7785(4) 0.0378 Uani
C26 C 0.3712(5) 0.6742(4) 0.6983(4) 0.0391 Uani
H19 H 0.4130 0.7187 0.7132 0.0470 Uiso
C27 C 0.2572(4) 0.5459(4) 0.6467(4) 0.0361 Uani
H20 H 0.2181 0.5005 0.6303 0.0430 Uiso
C28 C 0.2937(6) 0.6088(5) 0.8913(4) 0.0551 Uani
H21 H 0.2137 0.5972 0.9194 0.0660 Uiso
H22 H 0.3520 0.5471 0.9348 0.0660 Uiso
C29 C 0.2700(5) 0.2187(5) 0.7649(5) 0.0513 Uani
H23 H 0.2445 0.2943 0.7368 0.0620 Uiso
C30 C 0.2862(5) 0.0525(4) 0.7518(5) 0.0539 Uani
H24 H 0.2707 0.0103 0.7157 0.0650 Uiso
C31 C 0.3721(6) 0.0613(6) 0.9026(6) 0.0758 Uani
C32 C 0.3330(6) 0.1730(6) 0.8583(5) 0.0706 Uani
H25 H 0.3493 0.2175 0.8915 0.0840 Uiso
C33 C 0.3521(6) 0.0014(5) 0.8435(6) 0.0795 Uani
H30 H 0.3099 0.1463 0.4779 0.1580 Uiso
O16 O 0.0419(3) 0.3550(3) 0.6412(3) 0.0392 Uani
O19 O 0.2570(3) 0.8028(2) 0.3652(3) 0.0344 Uani
O21 O 0.0270(3) 0.1233(3) 0.6498(3) 0.0380 Uani
H58 H 0.5771 0.0703 0.9544 0.1220 Uiso
H28 H 0.4229 0.9297 0.0456 0.1220 Uiso
Co11 Co 0.86540(5) 0.76125(5) 0.42448(5) 0.0293 Uani
N8 N 0.7566(3) 0.8391(3) 0.2875(3) 0.0358 Uani
C63 C 0.7300(5) 0.7813(5) 0.2351(5) 0.0513 Uani
H53 H 0.7555 0.7057 0.2632 0.0620 Uiso
C64 C 0.7138(5) 0.9475(4) 0.2482(5) 0.0539 Uani
H54 H 0.7293 0.9897 0.2843 0.0650 Uiso
C65 C 0.6279(6) 0.9387(6) 0.0974(6) 0.0758 Uani
C66 C 0.6670(6) 0.8270(6) 0.1417(5) 0.0706 Uani
H55 H 0.6507 0.7825 0.1085 0.0840 Uiso
C67 C 0.6479(6) 0.9986(5) 0.1565(6) 0.0795 Uani
C6 C 0.3068(4) 0.8828(4) 0.3340(4) 0.0343 Uani
C7 C 0.0413(4) 0.9114(4) 0.3922(4) 0.0343 Uani
C9 C 0.2217(4) 0.9940(4) 0.2971(4) 0.0321 Uani
O9 O 0.0595(3) 0.8787(3) 0.4911(3) 0.0421 Uani
O13 O 0.4187(3) 0.8778(3) 0.3294(4) 0.0580 Uani
H26 H 0.3835 0.9266 0.8662 0.0950 Uiso
H38 H 0.0598 0.8876 0.7061 0.0520 Uiso
H40 H 0.0014 0.7406 0.5696 0.0560 Uiso
H44 H 0.0105 0.3987 0.8103 0.0450 Uiso
C68 C 0.5608(6) 0.9973(8) 0.9894(7) 0.1022 Uani
H57 H 0.5885 0.9567 0.9425 0.1220 Uiso
H59 H 0.041(2) 0.671(4) 0.519(4) 0.1300 Uiso
O1 O 0.9581(3) 0.6450(3) 0.3588(3) 0.0392 Uani
H8 H 0.9402 0.1124 0.2939 0.0520 Uiso
H10 H 0.9986 0.2594 0.4304 0.0560 Uiso
H14 H 0.9895 0.6013 0.1897 0.0450 Uiso
H29 H 0.959(2) 0.329(4) 0.481(4) 0.1300 Uiso
O18 O 0.7430(3) 0.1972(2) 0.6348(3) 0.0344 Uani
C40 C 0.6932(4) 0.1172(4) 0.6660(4) 0.0343 Uani
C41 C 0.9587(4) 0.0886(4) 0.6078(4) 0.0343 Uani
C43 C 0.7783(4) 0.0060(4) 0.7029(4) 0.0321 Uani
Co7 Co 0.68263(5) 0.36172(5) 0.59926(5) 0.0259 Uani
O26 O 0.9405(3) 0.1213(3) 0.5089(3) 0.0421 Uani
O30 O 0.5813(3) 0.1222(3) 0.6706(4) 0.0580 Uani
O4 O 0.9730(3) 0.8767(3) 0.3502(3) 0.0380 Uani
N6 N 0.6826(3) 0.3258(3) 0.7680(3) 0.0325 Uani
C39 C 0.6872(6) 0.2899(5) 0.0971(4) 0.0611 Uani
H34 H 0.7506 0.2291 0.1343 0.0740 Uiso
H35 H 0.6105 0.2741 0.1310 0.0740 Uiso
O17 O 0.5005(3) 0.3476(3) 0.6203(3) 0.0332 Uani
H36 H 0.4806 0.2794 0.6393 0.0400 Uiso
H37 H 0.4397 0.4095 0.6106 0.0400 Uiso
C42 C 0.9015(4) 0.9958(4) 0.6811(4) 0.0337 Uani
C44 C 0.9772(4) 0.8942(4) 0.7217(4) 0.0434 Uani
C45 C 0.7307(4) 0.9131(4) 0.7632(4) 0.0330 Uani
H39 H 0.6476 0.9189 0.7751 0.0390 Uiso
S2 S 0.75423(13) 0.69458(10) 0.88402(10) 0.0402 Uani
O22 O 0.8610(3) 0.3897(3) 0.5734(3) 0.0324 Uani
O23 O 0.6342(3) 0.5314(2) 0.5647(3) 0.0304 Uani
O24 O 0.7361(3) 0.6619(3) 0.4821(3) 0.0410 Uani
O25 O 0.9806(3) 0.6918(3) 0.5577(3) 0.0375 Uani
N7 N 0.6817(3) 0.3895(3) 0.4313(3) 0.0316 Uani
O27 O 0.7654(3) 0.8561(3) 0.5126(3) 0.0472 Uani
H41 H 0.7748 0.9194 0.4844 0.0710 Uiso
C46 C 0.7152(4) 0.5832(3) 0.5618(4) 0.0266 Uani
C47 C 0.9333(4) 0.3994(3) 0.6329(4) 0.0288 Uani
C48 C 0.7827(4) 0.5561(3) 0.6632(4) 0.0263 Uani
O28 O 0.6246(3) 0.7227(3) 0.8847(3) 0.0568 Uani
O29 O 0.8159(4) 0.6466(3) 0.9836(3) 0.0610 Uani
C49 C 0.7433(4) 0.6222(4) 0.7219(4) 0.0309 Uani
H42 H 0.6761 0.6790 0.7003 0.0370 Uiso
C50 C 0.8038(4) 0.6042(4) 0.8136(4) 0.0325 Uani
C51 C 0.8856(4) 0.4716(3) 0.6951(4) 0.0277 Uani
C52 C 0.8093(4) 0.8122(4) 0.8050(4) 0.0342 Uani
C53 C 0.9341(5) 0.8038(4) 0.7837(5) 0.0453 Uani
H43 H 0.9869 0.7367 0.8119 0.0550 Uiso
C54 C 0.9434(4) 0.4554(4) 0.7879(4) 0.0376 Uani
C55 C 0.6243(4) 0.3272(4) 0.4036(4) 0.0383 Uani
H45 H 0.5792 0.2827 0.4557 0.0460 Uiso
C56 C 0.9042(4) 0.5209(4) 0.8473(4) 0.0377 Uani
H46 H 0.9443 0.5093 0.9085 0.0450 Uiso
C58 C 0.7512(5) 0.4573(4) 0.2497(4) 0.0412 Uani
H48 H 0.7946 0.5045 0.1986 0.0490 Uiso
C59 C 0.6952(5) 0.3905(4) 0.2215(4) 0.0378 Uani
C60 C 0.6288(5) 0.3258(4) 0.3017(4) 0.0391 Uani
H49 H 0.5870 0.2813 0.2868 0.0470 Uiso
C61 C 0.7428(4) 0.4541(4) 0.3533(4) 0.0361 Uani
H50 H 0.7819 0.4995 0.3697 0.0430 Uiso
C62 C 0.7063(6) 0.3912(5) 0.1087(4) 0.0551 Uani
H51 H 0.7863 0.4028 0.0806 0.0660 Uiso
H52 H 0.6480 0.4529 0.0652 0.0660 Uiso
H60 H 0.6901 0.8537 0.5221 0.1580 Uiso
C35 C 0.7687(5) 0.2535(4) 0.8333(4) 0.0443 Uani
H31 H 0.8288 0.2109 0.8056 0.0530 Uiso
C36 C 0.5954(5) 0.3705(5) 0.9173(5) 0.0574 Uani
H32 H 0.5327 0.4110 0.9449 0.0690 Uiso
C37 C 0.7732(5) 0.2387(4) 0.9383(4) 0.0507 Uani
H33 H 0.8356 0.1873 0.9799 0.0610 Uiso
C38 C 0.6872(5) 0.2986(4) 0.9831(4) 0.0451 Uani
C57 C 0.5953(5) 0.3832(5) 0.8112(4) 0.0448 Uani
H47 H 0.5329 0.4330 0.7685 0.0540 Uiso
loop_
_atom_site_aniso_label
_atom_site_aniso_U_11
_atom_site_aniso_U_22
_atom_site_aniso_U_33
_atom_site_aniso_U_23
_atom_site_aniso_U_13
_atom_site_aniso_U_12
N1 0.041 0.034 0.024 -0.0097 0.001 -0.0125
C1 0.052 0.044 0.035 -0.015 -0.005 -0.003
C2 0.053 0.078 0.047 -0.036 0.011 -0.007
C3 0.066 0.041 0.037 -0.009 -0.017 0.003
C4 0.065 0.045 0.028 -0.012 -0.009 -0.015
C23 0.042 0.058 0.034 -0.021 -0.005 0
C34 0.088 0.12 0.079 -0.013 -0.027 -0.012
Co5 0.0293 0.0248 0.0232 -0.0079 -0.0051 -0.0044
C5 0.099 0.06 0.029 -0.018 -0.008 -0.019
O2 0.0297 0.0316 0.0382 -0.0118 -0.0057 -0.0051
C8 0.036 0.029 0.038 -0.011 -0.002 -0.012
C10 0.036 0.038 0.05 -0.01 0.002 -0.007
C11 0.034 0.035 0.032 -0.015 0.001 -0.007
Co2 0.0298 0.0258 0.0303 -0.0071 -0.0077 -0.0042
S1 0.0637 0.0307 0.0305 -0.0135 0.0088 -0.0185
O5 0.0285 0.0373 0.0348 -0.0169 -0.0069 -0.004
O6 0.0284 0.0294 0.0333 -0.0096 -0.007 -0.0062
O7 0.046 0.039 0.033 0.0001 -0.013 -0.0165
O8 0.0375 0.038 0.037 -0.0115 -0.0045 -0.0095
N2 0.034 0.031 0.031 -0.0113 -0.0026 -0.0079
N3 0.039 0.033 0.032 -0.006 -0.011 -0.0063
O10 0.047 0.04 0.052 -0.017 0.0046 -0.006
C12 0.027 0.022 0.024 -0.005 -0.0087 0.0061
C13 0.032 0.021 0.029 -0.005 -0.001 -0.0037
C14 0.03 0.02 0.028 -0.004 -0.006 -0.0093
O11 0.058 0.05 0.071 -0.033 0.035 -0.025
O12 0.115 0.043 0.026 -0.01 -0.003 -0.022
C15 0.035 0.026 0.031 -0.009 -0.001 -0.007
C16 0.042 0.029 0.03 -0.011 0 -0.014
C17 0.032 0.021 0.033 -0.01 -0.002 -0.0101
C18 0.049 0.028 0.029 -0.012 0 -0.012
C19 0.042 0.03 0.06 -0.015 -0.006 0
C20 0.043 0.032 0.038 -0.01 -0.016 -0.006
C21 0.047 0.034 0.034 -0.01 0.003 -0.014
C22 0.051 0.037 0.033 -0.017 -0.007 -0.014
C24 0.055 0.038 0.029 -0.007 -0.001 -0.015
C25 0.054 0.034 0.026 -0.011 -0.001 -0.01
C26 0.053 0.043 0.028 -0.017 -0.007 -0.013
C27 0.044 0.037 0.029 -0.011 -0.01 -0.009
C28 0.087 0.057 0.025 -0.012 -0.003 -0.026
C29 0.057 0.044 0.052 -0.016 -0.021 -0.002
C30 0.06 0.038 0.058 -0.005 -0.029 -0.008
C31 0.075 0.085 0.062 -0.015 -0.042 -0.008
C32 0.08 0.071 0.061 -0.025 -0.041 0.004
C33 0.099 0.045 0.076 0.006 -0.054 -0.004
O16 0.0269 0.046 0.05 -0.0273 -0.0127 0.0048
O19 0.0369 0.0252 0.041 -0.0114 -0.0028 -0.0062
O21 0.042 0.0316 0.038 -0.0039 -0.0108 -0.0135
Co11 0.0298 0.0258 0.0303 -0.0071 -0.0077 -0.0042
N8 0.039 0.033 0.032 -0.006 -0.011 -0.0063
C63 0.057 0.044 0.052 -0.016 -0.021 -0.002
C64 0.06 0.038 0.058 -0.005 -0.029 -0.008
C65 0.075 0.085 0.062 -0.015 -0.042 -0.008
C66 0.08 0.071 0.061 -0.025 -0.041 0.004
C67 0.099 0.045 0.076 0.006 -0.054 -0.004
C6 0.039 0.032 0.034 -0.014 -0.007 -0.005
C7 0.034 0.028 0.041 -0.014 0.001 -0.005
C9 0.039 0.029 0.033 -0.016 0 -0.008
O9 0.06 0.037 0.034 -0.0119 0.0015 -0.0221
O13 0.0314 0.037 0.096 -0.013 -0.006 -0.0055
C68 0.088 0.12 0.079 -0.013 -0.027 -0.012
O1 0.0269 0.046 0.05 -0.0273 -0.0127 0.0048
O18 0.0369 0.0252 0.041 -0.0114 -0.0028 -0.0062
C40 0.039 0.032 0.034 -0.014 -0.007 -0.005
C41 0.034 0.028 0.041 -0.014 0.001 -0.005
C43 0.039 0.029 0.033 -0.016 0 -0.008
Co7 0.0293 0.0248 0.0232 -0.0079 -0.0051 -0.0044
O26 0.06 0.037 0.034 -0.0119 0.0015 -0.0221
O30 0.0314 0.037 0.096 -0.013 -0.006 -0.0055
O4 0.042 0.0316 0.038 -0.0039 -0.0108 -0.0135
N6 0.041 0.034 0.024 -0.0097 0.001 -0.0125
C39 0.099 0.06 0.029 -0.018 -0.008 -0.019
O17 0.0297 0.0316 0.0382 -0.0118 -0.0057 -0.0051
C42 0.036 0.029 0.038 -0.011 -0.002 -0.012
C44 0.036 0.038 0.05 -0.01 0.002 -0.007
C45 0.034 0.035 0.032 -0.015 0.001 -0.007
S2 0.0637 0.0307 0.0305 -0.0135 0.0088 -0.0185
O22 0.0285 0.0373 0.0348 -0.0169 -0.0069 -0.004
O23 0.0284 0.0294 0.0333 -0.0096 -0.007 -0.0062
O24 0.046 0.039 0.033 0.0001 -0.013 -0.0165
O25 0.0375 0.038 0.037 -0.0115 -0.0045 -0.0095
N7 0.034 0.031 0.031 -0.0113 -0.0026 -0.0079
O27 0.047 0.04 0.052 -0.017 0.0046 -0.006
C46 0.027 0.022 0.024 -0.005 -0.0087 0.0061
C47 0.032 0.021 0.029 -0.005 -0.001 -0.0037
C48 0.03 0.02 0.028 -0.004 -0.006 -0.0093
O28 0.058 0.05 0.071 -0.033 0.035 -0.025
O29 0.115 0.043 0.026 -0.01 -0.003 -0.022
C49 0.035 0.026 0.031 -0.009 -0.001 -0.007
C50 0.042 0.029 0.03 -0.011 0 -0.014
C51 0.032 0.021 0.033 -0.01 -0.002 -0.0101
C52 0.049 0.028 0.029 -0.012 0 -0.012
C53 0.042 0.03 0.06 -0.015 -0.006 0
C54 0.043 0.032 0.038 -0.01 -0.016 -0.006
C55 0.047 0.034 0.034 -0.01 0.003 -0.014
C56 0.051 0.037 0.033 -0.017 -0.007 -0.014
C58 0.055 0.038 0.029 -0.007 -0.001 -0.015
C59 0.054 0.034 0.026 -0.011 -0.001 -0.01
C60 0.053 0.043 0.028 -0.017 -0.007 -0.013
C61 0.044 0.037 0.029 -0.011 -0.01 -0.009
C62 0.087 0.057 0.025 -0.012 -0.003 -0.026
C35 0.052 0.044 0.035 -0.015 -0.005 -0.003
C36 0.053 0.078 0.047 -0.036 0.011 -0.007
C37 0.066 0.041 0.037 -0.009 -0.017 0.003
C38 0.065 0.045 0.028 -0.012 -0.009 -0.015
C57 0.042 0.058 0.034 -0.021 -0.005 0
loop_
_geom_bond_atom_site_label_1
_geom_bond_atom_site_label_2
_geom_bond_site_symmetry_1
_geom_bond_site_symmetry_2
N1 C1 1_555 1_555
C1 H1 1_555 1_555
C2 H2 1_555 1_555
C3 C1 1_555 1_555
H3 C3 1_555 1_555
C4 C2 1_555 1_555
C23 N1 1_555 1_555
H17 C23 1_555 1_555
H27 C34 1_555 1_555
Co5 N1 1_555 1_555
C2 C23 1_555 1_555
C3 C4 1_555 1_555
H4 C5 1_555 1_555
H5 C5 1_555 1_555
O2 H6 1_555 1_555
H7 O2 1_555 1_555
C10 C8 1_555 1_555
C11 H9 1_555 1_555
Co5 O2 1_555 1_555
Co2 O7 1_555 1_555
S1 O11 1_555 1_555
O5 Co5 1_555 1_555
O6 Co5 1_555 1_555
O7 C12 1_555 1_555
O8 Co2 1_555 1_555
N2 Co5 1_555 1_555
N3 Co2 1_555 1_555
O10 Co2 1_555 1_555
H11 O10 1_555 1_555
C12 O6 1_555 1_555
C13 O5 1_555 1_555
C14 C12 1_555 1_555
O12 S1 1_555 1_555
C15 C14 1_555 1_555
H12 C15 1_555 1_555
C16 S1 1_555 1_555
C17 C13 1_555 1_555
C18 C11 1_555 1_555
C19 C10 1_555 1_555
H13 C19 1_555 1_555
C20 C17 1_555 1_555
C21 N2 1_555 1_555
H15 C21 1_555 1_555
C22 C16 1_555 1_555
H16 C22 1_555 1_555
C24 H18 1_555 1_555
C25 C24 1_555 1_555
C26 C21 1_555 1_555
H19 C26 1_555 1_555
C27 N2 1_555 1_555
H20 C27 1_555 1_555
C28 C5 1_555 1_555
H21 C28 1_555 1_555
H22 C28 1_555 1_555
C29 N3 1_555 1_555
H23 C29 1_555 1_555
C30 N3 1_555 1_555
H24 C30 1_555 1_555
C31 C32 1_555 1_555
C32 C29 1_555 1_555
H25 C32 1_555 1_555
C33 C30 1_555 1_555
H30 O10 1_555 1_555
O16 Co2 1_555 1_555
O19 Co5 1_555 1_555
O21 Co2 1_555 1_555
S1 C18 1_555 1_555
C14 C17 1_555 1_555
C15 C16 1_555 1_555
C18 C19 1_555 1_555
C20 C22 1_555 1_555
C24 C27 1_555 1_555
C25 C26 1_555 1_555
C25 C28 1_555 1_555
C31 C33 1_555 1_555
Co11 N8 1_555 1_555
N8 C63 1_555 1_555
C63 H53 1_555 1_555
C64 N8 1_555 1_555
H54 C64 1_555 1_555
C65 C66 1_555 1_555
C66 C63 1_555 1_555
H55 C66 1_555 1_555
C67 C64 1_555 1_555
C65 C67 1_555 1_555
O19 C6 1_555 1_555
C6 C9 1_555 1_555
O9 C7 1_555 1_555
O13 C6 1_555 1_555
H57 C68 1_555 1_555
O18 C40 1_555 1_555
C40 C43 1_555 1_555
Co7 O18 1_555 1_555
Co11 O1 1_555 1_555
O26 C41 1_555 1_555
O30 C40 1_555 1_555
N6 Co7 1_555 1_555
H34 C39 1_555 1_555
H35 C39 1_555 1_555
O17 H36 1_555 1_555
H37 O17 1_555 1_555
C44 C42 1_555 1_555
H39 C45 1_555 1_555
Co7 O17 1_555 1_555
Co11 O4 1_555 1_555
S2 O28 1_555 1_555
O22 Co7 1_555 1_555
O23 Co7 1_555 1_555
O24 Co11 1_555 1_555
O25 Co11 1_555 1_555
N7 Co7 1_555 1_555
O27 Co11 1_555 1_555
H41 O27 1_555 1_555
C46 O23 1_555 1_555
C48 C46 1_555 1_555
O29 S2 1_555 1_555
C49 C48 1_555 1_555
H42 C49 1_555 1_555
C50 S2 1_555 1_555
C51 C47 1_555 1_555
C52 C45 1_555 1_555
C53 C44 1_555 1_555
H43 C53 1_555 1_555
C54 C51 1_555 1_555
C55 N7 1_555 1_555
H45 C55 1_555 1_555
C56 C50 1_555 1_555
H46 C56 1_555 1_555
C58 H48 1_555 1_555
C59 C58 1_555 1_555
C60 C55 1_555 1_555
H49 C60 1_555 1_555
C61 N7 1_555 1_555
H50 C61 1_555 1_555
C62 C39 1_555 1_555
H51 C62 1_555 1_555
H52 C62 1_555 1_555
H60 O27 1_555 1_555
S2 C52 1_555 1_555
O22 C47 1_555 1_555
O24 C46 1_555 1_555
C48 C51 1_555 1_555
C49 C50 1_555 1_555
C52 C53 1_555 1_555
C54 C56 1_555 1_555
C58 C61 1_555 1_555
C59 C60 1_555 1_555
C59 C62 1_555 1_555
N6 C35 1_555 1_555
C35 H31 1_555 1_555
C36 H32 1_555 1_555
C37 C35 1_555 1_555
H33 C37 1_555 1_555
C38 C36 1_555 1_555
C57 N6 1_555 1_555
H47 C57 1_555 1_555
C36 C57 1_555 1_555
C37 C38 1_555 1_555

#END
