
###############################################################################
#
# This file contains modified crystal structure data generated from the
# MOF subset of the Cambridge Structural Database (CSD) v543 
# hosted by the Cambridge Crystallographic Data Centre (CCDC).
#
# This work is licensed under the Creative Commons
# Attribution-NonCommercial-ShareAlike 4.0 International License.
# To view a copy of this license, visit
# http://creativecommons.org/licenses/by-nc-sa/4.0/
# or send a letter to
# Creative Commons, PO Box 1866, Mountain View, CA 94042, USA.
#
# CIF created using the CSD Python API on 29 September 2022
# The structure has been converted into the P1 space group
# The structure has a 3D framework
# The original CSD entry XEKYOE is in the monoclinic crystal system
# The framework has been calculated to contain at least 10.0% void space
# The void calculation uses a probe of radius 1.32A, grid spacing 0.4
#
###############################################################################

data_XEKYOE
_chemical_formula_moiety         '(C44 H24 N8 O16 Zn4)n'
_symmetry_cell_setting           triclinic
_symmetry_space_group_name_H-M   'P 1'
_symmetry_Int_Tables_number      1
_space_group_name_Hall           'P 1'
loop_
_symmetry_equiv_pos_site_id
_symmetry_equiv_pos_as_xyz
1 x,y,z
_cell_length_a                   10.906(2)
_cell_length_b                   12.850(2)
_cell_length_c                   13.942(2)
_cell_angle_alpha                90
_cell_angle_beta                 109.019(3)
_cell_angle_gamma                90
_cell_volume                     1847.2
loop_
_atom_site_label
_atom_site_type_symbol
_atom_site_fract_x
_atom_site_fract_y
_atom_site_fract_z
Zn5 Zn 0.11313(7) 0.07485(6) 0.03602(6)
Zn2 Zn 0.11313(7) 0.42515(6) 0.53602(6)
O1 O 0.8236(5) 0.0422(4) 0.8610(4)
O2 O 0.8251(5) 0.4824(4) 0.5596(4)
O3 O 0.9954(5) 0.3765(5) 0.6159(4)
O4 O 0.9915(5) 0.1527(5) 0.9144(4)
N1 N 0.2655(5) 0.3274(5) 0.5810(4)
N2 N 0.4665(6) 0.2706(5) 0.6320(5)
C1 C 0.8066(7) 0.3387(6) 0.6570(5)
C2 C 0.8741(7) 0.2711(5) 0.7372(5)
H1 H 0.964240 0.271905 0.761525
C3 C 0.8818(7) 0.4052(6) 0.6084(5)
C4 C 0.3882(6) 0.3583(6) 0.6062(6)
H2 H 0.416605 0.426553 0.606455
C5 C 0.6065(7) 0.2720(5) 0.6682(5)
C6 C 0.8814(7) 0.1291(6) 0.8599(5)
C7 C 0.6751(7) 0.3405(6) 0.6238(5)
H3 H 0.630332 0.386000 0.572469
C8 C 0.6719(7) 0.2052(6) 0.7437(6)
H4 H 0.626303 0.160051 0.771808
C9 C 0.8079(7) 0.2049(6) 0.7788(5)
C10 C 0.3901(7) 0.1881(6) 0.6255(6)
H5 H 0.417063 0.119663 0.640769
C11 C 0.2653(7) 0.2227(6) 0.5922(6)
H6 H 0.191815 0.181212 0.579298
Zn4 Zn 0.88687(7) 0.57485(6) 0.46398(6)
O5 O 0.1764(5) 0.5422(4) 0.6390(4)
O6 O 0.1749(5) 0.5176(4) 0.4404(4)
Zn3 Zn 0.88687(7) 0.92515(6) 0.96398(6)
O8 O 0.9915(5) 0.3473(5) 0.4144(4)
O8_2 O 0.0085(5) 0.8473(5) 0.0856(4)
O7 O 0.0046(5) 0.8765(5) 0.8841(4)
O6_2 O 0.8251(5) 0.0176(4) 0.0596(4)
O2_2 O 0.1749(5) 0.9824(4) 0.9404(4)
O4_2 O 0.0085(5) 0.6527(5) 0.5856(4)
N1_2 N 0.7345(5) 0.8274(5) 0.9190(4)
N2_2 N 0.5335(6) 0.7706(5) 0.8680(5)
C1_2 C 0.1934(7) 0.8387(6) 0.8430(5)
C2_2 C 0.1259(7) 0.7711(5) 0.7628(5)
H1_2 H 0.035760 0.771905 0.738475
C3_2 C 0.1182(7) 0.9052(6) 0.8916(5)
C4_2 C 0.6118(6) 0.8583(6) 0.8938(6)
H2_2 H 0.583395 0.926553 0.893545
C5_2 C 0.3935(7) 0.7720(5) 0.8318(5)
C6_2 C 0.1186(7) 0.6291(6) 0.6401(5)
C7_2 C 0.3249(7) 0.8405(6) 0.8762(5)
H3_2 H 0.369668 0.886000 0.927531
C8_2 C 0.3281(7) 0.7052(6) 0.7563(6)
H4_2 H 0.373697 0.660051 0.728192
C9_2 C 0.1921(7) 0.7049(6) 0.7212(5)
C10_2 C 0.6099(7) 0.6881(6) 0.8745(6)
H5_2 H 0.582937 0.619663 0.859231
C11_2 C 0.7347(7) 0.7227(6) 0.9078(6)
H6_2 H 0.808185 0.681212 0.920702
O7_2 O 0.0046(5) 0.6235(5) 0.3841(4)
O1_2 O 0.1764(5) 0.9578(4) 0.1390(4)
N1_3 N 0.7345(5) 0.6726(5) 0.4190(4)
N2_3 N 0.5335(6) 0.7294(5) 0.3680(5)
C1_3 C 0.1934(7) 0.6613(6) 0.3430(5)
C2_3 C 0.1259(7) 0.7289(5) 0.2628(5)
H1_3 H 0.035760 0.728095 0.238475
C3_3 C 0.1182(7) 0.5948(6) 0.3916(5)
C4_3 C 0.6118(6) 0.6417(6) 0.3938(6)
H2_3 H 0.583395 0.573447 0.393545
C5_3 C 0.3935(7) 0.7280(5) 0.3318(5)
C6_3 C 0.1186(7) 0.8709(6) 0.1401(5)
C7_3 C 0.3249(7) 0.6595(6) 0.3762(5)
H3_3 H 0.369668 0.614000 0.427531
C8_3 C 0.3281(7) 0.7948(6) 0.2563(6)
H4_3 H 0.373697 0.839949 0.228192
C9_3 C 0.1921(7) 0.7951(6) 0.2212(5)
C10_3 C 0.6099(7) 0.8119(6) 0.3745(6)
H5_3 H 0.582937 0.880337 0.359231
C11_3 C 0.7347(7) 0.7773(6) 0.4078(6)
H6_3 H 0.808185 0.818788 0.420702
O5_2 O 0.8236(5) 0.4578(4) 0.3610(4)
O3_2 O 0.9954(5) 0.1235(5) 0.1159(4)
N1_4 N 0.2655(5) 0.1726(5) 0.0810(4)
N2_4 N 0.4665(6) 0.2294(5) 0.1320(5)
C1_4 C 0.8066(7) 0.1613(6) 0.1570(5)
C2_4 C 0.8741(7) 0.2289(5) 0.2372(5)
H1_4 H 0.964240 0.228095 0.261525
C3_4 C 0.8818(7) 0.0948(6) 0.1084(5)
C4_4 C 0.3882(6) 0.1417(6) 0.1062(6)
H2_4 H 0.416605 0.073447 0.106455
C5_4 C 0.6065(7) 0.2280(5) 0.1682(5)
C6_4 C 0.8814(7) 0.3709(6) 0.3599(5)
C7_4 C 0.6751(7) 0.1595(6) 0.1238(5)
H3_4 H 0.630332 0.114000 0.072469
C8_4 C 0.6719(7) 0.2948(6) 0.2437(6)
H4_4 H 0.626303 0.339949 0.271808
C9_4 C 0.8079(7) 0.2951(6) 0.2788(5)
C10_4 C 0.3901(7) 0.3119(6) 0.1255(6)
H5_4 H 0.417063 0.380337 0.140769
C11_4 C 0.2653(7) 0.2773(6) 0.0922(6)
H6_4 H 0.191815 0.318788 0.079298
loop_
_geom_bond_atom_site_label_1
_geom_bond_atom_site_label_2
_geom_bond_site_symmetry_1
_geom_bond_site_symmetry_2
Zn2 N1 1_555 1_555
O1 C6 1_555 1_555
O2 C3 1_555 1_555
O3 C3 1_555 1_555
O4 C6 1_555 1_555
N1 C4 1_555 1_555
N2 C4 1_555 1_555
C1 C2 1_555 1_555
C2 H1 1_555 1_555
C3 C1 1_555 1_555
C4 H2 1_555 1_555
C5 N2 1_555 1_555
C6 C9 1_555 1_555
C7 C1 1_555 1_555
H3 C7 1_555 1_555
C8 C5 1_555 1_555
H4 C8 1_555 1_555
C9 C2 1_555 1_555
C10 N2 1_555 1_555
H5 C10 1_555 1_555
C11 N1 1_555 1_555
H6 C11 1_555 1_555
Zn4 O2 1_555 1_555
O5 Zn2 1_555 1_555
O6 Zn2 1_555 1_555
C5 C7 1_555 1_555
C8 C9 1_555 1_555
C10 C11 1_555 1_555
Zn3 N1_2 1_555 1_555
O5 C6_2 1_555 1_555
O2_2 C3_2 1_555 1_555
O7 C3_2 1_555 1_555
O4_2 C6_2 1_555 1_555
N1_2 C4_2 1_555 1_555
N2_2 C4_2 1_555 1_555
C1_2 C2_2 1_555 1_555
C2_2 H1_2 1_555 1_555
C3_2 C1_2 1_555 1_555
C4_2 H2_2 1_555 1_555
C5_2 N2_2 1_555 1_555
C6_2 C9_2 1_555 1_555
C7_2 C1_2 1_555 1_555
H3_2 C7_2 1_555 1_555
C8_2 C5_2 1_555 1_555
H4_2 C8_2 1_555 1_555
C9_2 C2_2 1_555 1_555
C10_2 N2_2 1_555 1_555
H5_2 C10_2 1_555 1_555
C11_2 N1_2 1_555 1_555
H6_2 C11_2 1_555 1_555
C5_2 C7_2 1_555 1_555
C8_2 C9_2 1_555 1_555
C10_2 C11_2 1_555 1_555
Zn4 N1_3 1_555 1_555
O1_2 C6_3 1_555 1_555
O6 C3_3 1_555 1_555
O7_2 C3_3 1_555 1_555
O8_2 C6_3 1_555 1_555
N1_3 C4_3 1_555 1_555
N2_3 C4_3 1_555 1_555
C1_3 C2_3 1_555 1_555
C2_3 H1_3 1_555 1_555
C3_3 C1_3 1_555 1_555
C4_3 H2_3 1_555 1_555
C5_3 N2_3 1_555 1_555
C6_3 C9_3 1_555 1_555
C7_3 C1_3 1_555 1_555
H3_3 C7_3 1_555 1_555
C8_3 C5_3 1_555 1_555
H4_3 C8_3 1_555 1_555
C9_3 C2_3 1_555 1_555
C10_3 N2_3 1_555 1_555
H5_3 C10_3 1_555 1_555
C11_3 N1_3 1_555 1_555
H6_3 C11_3 1_555 1_555
O5_2 Zn4 1_555 1_555
C5_3 C7_3 1_555 1_555
C8_3 C9_3 1_555 1_555
C10_3 C11_3 1_555 1_555
Zn5 N1_4 1_555 1_555
O5_2 C6_4 1_555 1_555
O6_2 C3_4 1_555 1_555
O3_2 C3_4 1_555 1_555
O8 C6_4 1_555 1_555
N1_4 C4_4 1_555 1_555
N2_4 C4_4 1_555 1_555
C1_4 C2_4 1_555 1_555
C2_4 H1_4 1_555 1_555
C3_4 C1_4 1_555 1_555
C4_4 H2_4 1_555 1_555
C5_4 N2_4 1_555 1_555
C6_4 C9_4 1_555 1_555
C7_4 C1_4 1_555 1_555
H3_4 C7_4 1_555 1_555
C8_4 C5_4 1_555 1_555
H4_4 C8_4 1_555 1_555
C9_4 C2_4 1_555 1_555
C10_4 N2_4 1_555 1_555
H5_4 C10_4 1_555 1_555
C11_4 N1_4 1_555 1_555
H6_4 C11_4 1_555 1_555
C5_4 C7_4 1_555 1_555
C8_4 C9_4 1_555 1_555
C10_4 C11_4 1_555 1_555

#END
