
###############################################################################
#
# This file contains modified crystal structure data generated from the
# MOF subset of the Cambridge Structural Database (CSD) v543 
# hosted by the Cambridge Crystallographic Data Centre (CCDC).
#
# This work is licensed under the Creative Commons
# Attribution-NonCommercial-ShareAlike 4.0 International License.
# To view a copy of this license, visit
# http://creativecommons.org/licenses/by-nc-sa/4.0/
# or send a letter to
# Creative Commons, PO Box 1866, Mountain View, CA 94042, USA.
#
# CIF created using the CSD Python API on 29 September 2022
# The structure has been converted into the P1 space group
# The structure has a 3D framework
# The original CSD entry XELYOF is in the monoclinic crystal system
# The framework has been calculated to contain at least 10.0% void space
# The void calculation uses a probe of radius 1.32A, grid spacing 0.4
#
###############################################################################

data_XELYOF
_chemical_formula_moiety         '(C20 H12 N12 O12 Pb2)n'
_symmetry_cell_setting           triclinic
_symmetry_space_group_name_H-M   'P 1'
_symmetry_Int_Tables_number      1
_space_group_name_Hall           'P 1'
loop_
_symmetry_equiv_pos_site_id
_symmetry_equiv_pos_as_xyz
1 x,y,z
_cell_length_a                   4.5685(9)
_cell_length_b                   12.060(2)
_cell_length_c                   15.462(3)
_cell_angle_alpha                90
_cell_angle_beta                 95.66(3)
_cell_angle_gamma                90
_cell_volume                     847.743
loop_
_atom_site_label
_atom_site_type_symbol
_atom_site_fract_x
_atom_site_fract_y
_atom_site_fract_z
Pb4 Pb 0.44863(6) 0.10788(2) 0.70525(2)
O6 O 0.1251(11) 0.8762(5) 0.3795(3)
C1 C 0.5314(16) 0.2891(6) 0.3751(5)
H1 H 0.5872 0.3557 0.4021
C2 C 0.3179(15) 0.1684(7) 0.2940(4)
C3 C 0.8616(14) 0.1631(7) 0.4693(4)
H2 H 0.9937 0.2254 0.4816
H3 H 0.9778 0.1003 0.4536
C4 C 0.7138(16) 0.1350(7) 0.5503(5)
C5 C 0.1163(18) 0.1175(7) 0.2237(5)
N1 N 0.6478(12) 0.1910(5) 0.3966(4)
N2 N 0.5112(13) 0.1113(5) 0.3460(4)
N3 N 0.3242(13) 0.2784(5) 0.3094(4)
O1 O 0.8749(11) 0.1238(5) 0.6205(3)
O2 O 0.4463(11) 0.1284(5) 0.5447(4)
O3 O 0.1308(13) 0.0134(5) 0.2154(4)
Pb1 Pb 0.55137(6) 0.89212(2) 0.29475(2)
N4 N 0.1758(13) 0.7784(5) 0.1906(4)
O7 O 0.5537(11) 0.8716(5) 0.4553(4)
O8 O 0.5631(11) 0.6807(5) 0.3178(3)
O4 O 0.9369(11) 0.1807(5) 0.1822(3)
Pb2 Pb 0.94863(6) 0.39212(2) 0.20525(2)
C2_2 C 0.1821(15) 0.6684(7) 0.2060(4)
C5_2 C 0.3837(18) 0.6175(7) 0.2763(5)
O3_2 O 0.3692(13) 0.5134(5) 0.2846(4)
O5 O 0.3749(11) 0.3762(5) 0.1205(3)
O2_2 O 0.0537(11) 0.6284(5) 0.9553(4)
Pb3 Pb 0.05137(6) 0.60788(2) 0.79475(2)
C1_2 C 0.9686(16) 0.7891(6) 0.1249(5)
H1_2 H 0.9128 0.8557 0.0979
C3_2 C 0.6384(14) 0.6631(7) 0.0307(4)
H2_2 H 0.5063 0.7254 0.0184
H3_2 H 0.5222 0.6003 0.0464
N1_2 N 0.8522(12) 0.6910(5) 0.1034(4)
N2_2 N 0.9888(13) 0.6113(5) 0.1540(4)
O7_2 O 0.9463(11) 0.3716(5) 0.0447(4)
C4_2 C 0.7862(16) 0.6350(7) 0.9497(5)
O1_2 O 0.6251(11) 0.6238(5) 0.8795(3)
O4_2 O 0.0631(11) 0.8193(5) 0.8178(3)
N4_2 N 0.8242(13) 0.2216(5) 0.8094(4)
O8_2 O 0.4369(11) 0.3193(5) 0.6822(3)
C1_3 C 0.4686(16) 0.7109(6) 0.6249(5)
H1_3 H 0.4128 0.6443 0.5979
C2_3 C 0.6821(15) 0.8316(7) 0.7060(4)
C3_3 C 0.1384(14) 0.8369(7) 0.5307(4)
H2_3 H 0.0063 0.7746 0.5184
H3_3 H 0.0222 0.8997 0.5464
C4_3 C 0.2862(16) 0.8650(7) 0.4497(5)
C5_3 C 0.8837(18) 0.8825(7) 0.7763(5)
N1_3 N 0.3522(12) 0.8090(5) 0.6034(4)
N2_3 N 0.4888(13) 0.8887(5) 0.6540(4)
N3_2 N 0.6758(13) 0.7216(5) 0.6906(4)
O3_3 O 0.8692(13) 0.9866(5) 0.7846(4)
C4_4 C 0.2138(16) 0.3650(7) 0.0503(5)
C1_4 C 0.0314(16) 0.2109(6) 0.8751(5)
H1_4 H 0.0872 0.1443 0.9021
C3_4 C 0.3616(14) 0.3369(7) 0.9693(4)
H2_4 H 0.4937 0.2746 0.9816
H3_4 H 0.4778 0.3997 0.9536
N1_4 N 0.1478(12) 0.3090(5) 0.8966(4)
N2_4 N 0.0112(13) 0.3887(5) 0.8460(4)
C2_4 C 0.8179(15) 0.3316(7) 0.7940(4)
C5_4 C 0.6163(18) 0.3825(7) 0.7237(5)
O3_4 O 0.6308(13) 0.4866(5) 0.7154(4)
loop_
_geom_bond_atom_site_label_1
_geom_bond_atom_site_label_2
_geom_bond_site_symmetry_1
_geom_bond_site_symmetry_2
C1 H1 1_555 1_555
C2 C5 1_555 1_555
C3 H2 1_555 1_555
H3 C3 1_555 1_555
C4 C3 1_555 1_555
C5 O3 1_555 1_555
N1 C1 1_555 1_555
N2 C2 1_555 1_555
N3 C1 1_555 1_555
O1 C4 1_555 1_555
O2 C4 1_555 1_555
Pb4 O1 1_555 1_555
C2 N3 1_555 1_555
C3 N1 1_555 1_555
N1 N2 1_555 1_555
O2 Pb4 1_555 1_555
N4 Pb1 1_555 1_555
O6 Pb1 1_555 1_555
O7 Pb1 1_555 1_555
O8 Pb1 1_555 1_555
O4 Pb2 1_555 1_555
C2_2 C5_2 1_555 1_555
C5_2 O3_2 1_555 1_555
O8 C5_2 1_555 1_555
C2_2 N4 1_555 1_555
O2_2 Pb3 1_555 1_555
C1_2 H1_2 1_555 1_555
C3_2 H2_2 1_555 1_555
H3_2 C3_2 1_555 1_555
N1_2 C1_2 1_555 1_555
Pb2 N2_2 1_555 1_555
O5 Pb2 1_555 1_555
O7_2 Pb2 1_555 1_555
C3_2 N1_2 1_555 1_555
N1_2 N2_2 1_555 1_555
O1_2 C4_2 1_555 1_555
Pb3 O1_2 1_555 1_555
O4_2 Pb3 1_555 1_555
N4_2 Pb4 1_555 1_555
O8_2 Pb4 1_555 1_555
C1_3 H1_3 1_555 1_555
C2_3 C5_3 1_555 1_555
C3_3 H2_3 1_555 1_555
H3_3 C3_3 1_555 1_555
C4_3 C3_3 1_555 1_555
C5_3 O3_3 1_555 1_555
N1_3 C1_3 1_555 1_555
N2_3 C2_3 1_555 1_555
N3_2 C1_3 1_555 1_555
O6 C4_3 1_555 1_555
O7 C4_3 1_555 1_555
C2_3 N3_2 1_555 1_555
C3_3 N1_3 1_555 1_555
N1_3 N2_3 1_555 1_555
O5 C4_4 1_555 1_555
C1_4 H1_4 1_555 1_555
C3_4 H2_4 1_555 1_555
H3_4 C3_4 1_555 1_555
N1_4 C1_4 1_555 1_555
Pb3 N2_4 1_555 1_555
C3_4 N1_4 1_555 1_555
N1_4 N2_4 1_555 1_555
C2_4 C5_4 1_555 1_555
C5_4 O3_4 1_555 1_555
O8_2 C5_4 1_555 1_555
C2_4 N4_2 1_555 1_555

#END
