
###############################################################################
#
# This file contains modified crystal structure data generated from the
# MOF subset of the Cambridge Structural Database (CSD) v543 
# hosted by the Cambridge Crystallographic Data Centre (CCDC).
#
# This work is licensed under the Creative Commons
# Attribution-NonCommercial-ShareAlike 4.0 International License.
# To view a copy of this license, visit
# http://creativecommons.org/licenses/by-nc-sa/4.0/
# or send a letter to
# Creative Commons, PO Box 1866, Mountain View, CA 94042, USA.
#
# CIF created using the CSD Python API on 29 September 2022
# The structure has been converted into the P1 space group
# The structure has a 3D framework
# The original CSD entry XEMROZ is in the triclinic crystal system
# The framework has been calculated to contain at least 10.0% void space
# The void calculation uses a probe of radius 1.32A, grid spacing 0.4
#
###############################################################################

data_XEMROZ
_chemical_formula_moiety         '(C42 H26 N10 O8)n'
_symmetry_cell_setting           triclinic
_symmetry_space_group_name_H-M   'P 1'
_symmetry_Int_Tables_number      1
_space_group_name_Hall           'P 1'
loop_
_symmetry_equiv_pos_site_id
_symmetry_equiv_pos_as_xyz
1 x,y,z
_cell_length_a                   10.0361(16)
_cell_length_b                   10.3968(17)
_cell_length_c                   11.9591(19)
_cell_angle_alpha                81.792(3)
_cell_angle_beta                 67.635(3)
_cell_angle_gamma                77.335(3)
_cell_volume                     1123.47
loop_
_atom_site_label
_atom_site_type_symbol
_atom_site_fract_x
_atom_site_fract_y
_atom_site_fract_z
H7 H 0.0244 0.5703 0.7998
O3 O 0.63918(17) 0.34733(17) 0.01978(16)
Co5 Co 0.13760(3) 0.63728(3) 0.02143(3)
O1 O 0.08060(16) 0.30446(17) 0.91612(16)
O2 O 0.17396(18) 0.47515(17) 0.92994(16)
O4 O 0.81211(17) 0.20363(17) 0.90219(16)
N1 N 0.8443(2) 0.2408(2) 0.14378(18)
N3 N 0.6243(2) 0.0308(2) 0.56792(19)
C1 C 0.9211(3) 0.1195(3) 0.1501(2)
H1 H 0.9967 0.0891 0.0800
C2 C 0.7362(3) 0.2831(3) 0.2461(2)
H2 H 0.6810 0.3672 0.2438
C3 C 0.7032(3) 0.2077(3) 0.3547(2)
H3 H 0.6280 0.2414 0.4236
C4 C 0.8957(3) 0.0358(3) 0.2543(2)
C5 C 0.7828(3) 0.0813(3) 0.3604(2)
C14 C 0.4891(3) 0.0582(2) 0.8307(2)
C15 C 0.5947(3) 0.0944(2) 0.8638(2)
H11 H 0.6849 0.0389 0.8501
C16 C 0.5654(2) 0.2126(2) 0.9168(2)
C17 C 0.6787(3) 0.2550(2) 0.9501(2)
C18 C 0.4319(2) 0.2977(2) 0.9341(2)
H12 H 0.4138 0.3784 0.9670
C19 C 0.3259(2) 0.2628(2) 0.9024(2)
C20 C 0.3552(3) 0.1425(2) 0.8524(2)
H13 H 0.2834 0.1179 0.8330
C21 C 0.1828(2) 0.3552(2) 0.9189(2)
Co4 Co 0.86240(3) 0.36272(3) 0.97857(3)
N2 N 0.8350(2) 0.8833(2) 0.4933(2)
N4 N 0.6332(2) 0.9300(2) 0.65221(18)
N5 N 0.8545(2) 0.4977(2) 0.8224(2)
H4 H 0.9520 0.9517 0.2537
C6 C 0.7477(3) 0.9982(3) 0.4744(2)
C7 C 0.7593(3) 0.8430(3) 0.6060(2)
C8 C 0.7971(3) 0.7209(3) 0.6746(2)
C9 C 0.7042(3) 0.6317(3) 0.7186(3)
H5 H 0.6202 0.6445 0.7000
C10 C 0.7357(4) 0.5228(3) 0.7906(3)
H6 H 0.6714 0.4632 0.8189
C11 C 0.9416(3) 0.5844(3) 0.7791(3)
C12 C 0.9198(3) 0.6950(3) 0.7051(3)
H8 H 0.9875 0.7516 0.6760
C13 C 0.5196(3) 0.9302(3) 0.7730(2)
H9 H 0.5459 0.8547 0.8269
H10 H 0.4234 0.9126 0.7726
O5 O 0.82604(18) 0.52485(17) 0.07006(16)
O7 O 0.18789(17) 0.79637(17) 0.09781(16)
N7 N 0.1455(2) 0.5023(2) 0.1776(2)
O6 O 0.36082(17) 0.65267(17) 0.98022(16)
N6 N 0.1557(2) 0.7592(2) 0.85622(18)
N2_2 N 0.1650(2) 0.1167(2) 0.5067(2)
N4_2 N 0.3668(2) 0.0700(2) 0.34779(18)
H4_2 H 0.0480 0.0483 0.7463
C6_2 C 0.2523(3) 0.0018(3) 0.5256(2)
C7_2 C 0.2407(3) 0.1570(3) 0.3940(2)
C8_2 C 0.2029(3) 0.2791(3) 0.3254(2)
C9_2 C 0.2958(3) 0.3683(3) 0.2814(3)
H5_2 H 0.3798 0.3555 0.3000
C10_2 C 0.2643(4) 0.4772(3) 0.2094(3)
H6_2 H 0.3286 0.5368 0.1811
C11_2 C 0.0584(3) 0.4156(3) 0.2209(3)
C12_2 C 0.0802(3) 0.3050(3) 0.2949(3)
H8_2 H 0.0125 0.2484 0.3240
C13_2 C 0.4804(3) 0.0698(3) 0.2270(2)
H9_2 H 0.4541 0.1453 0.1731
H10_2 H 0.5766 0.0874 0.2274
O1_2 O 0.91940(16) 0.69554(17) 0.08388(16)
N3_2 N 0.3757(2) 0.9692(2) 0.43208(19)
C1_2 C 0.0789(3) 0.8805(3) 0.8499(2)
H1_2 H 0.0033 0.9109 0.9200
C2_2 C 0.2638(3) 0.7169(3) 0.7539(2)
H2_2 H 0.3190 0.6328 0.7562
C3_2 C 0.2968(3) 0.7923(3) 0.6453(2)
H3_2 H 0.3720 0.7586 0.5764
C4_2 C 0.1043(3) 0.9642(3) 0.7457(2)
C5_2 C 0.2172(3) 0.9187(3) 0.6396(2)
C14_2 C 0.5109(3) 0.9418(2) 0.1693(2)
C15_2 C 0.4053(3) 0.9056(2) 0.1362(2)
H11_2 H 0.3151 0.9611 0.1499
C16_2 C 0.4346(2) 0.7874(2) 0.0832(2)
C17_2 C 0.3213(3) 0.7450(2) 0.0499(2)
C18_2 C 0.5681(2) 0.7023(2) 0.0659(2)
H12_2 H 0.5862 0.6216 0.0330
C19_2 C 0.6741(2) 0.7372(2) 0.0976(2)
C20_2 C 0.6448(3) 0.8575(2) 0.1476(2)
H13_2 H 0.7166 0.8821 0.1670
C21_2 C 0.8172(2) 0.6448(2) 0.0811(2)
H7_2 H 0.9756 0.4297 0.2002
loop_
_geom_bond_atom_site_label_1
_geom_bond_atom_site_label_2
_geom_bond_site_symmetry_1
_geom_bond_site_symmetry_2
O1 C21 1_555 1_555
O2 C21 1_555 1_555
O4 C17 1_555 1_555
N1 C1 1_555 1_555
C1 H1 1_555 1_555
C2 N1 1_555 1_555
H2 C2 1_555 1_555
C3 C2 1_555 1_555
H3 C3 1_555 1_555
C4 C1 1_555 1_555
C5 C3 1_555 1_555
C15 C14 1_555 1_555
H11 C15 1_555 1_555
C16 C15 1_555 1_555
C17 C16 1_555 1_555
C18 C16 1_555 1_555
H12 C18 1_555 1_555
C19 C18 1_555 1_555
C20 C14 1_555 1_555
H13 C20 1_555 1_555
C21 C19 1_555 1_555
O4 Co4 1_555 1_555
C4 C5 1_555 1_555
C19 C20 1_555 1_555
N2 C6 1_555 1_555
N4 C7 1_555 1_555
N5 C10 1_555 1_555
C7 N2 1_555 1_555
C8 C7 1_555 1_555
C9 C8 1_555 1_555
H5 C9 1_555 1_555
C10 C9 1_555 1_555
H6 C10 1_555 1_555
C11 N5 1_555 1_555
C12 C8 1_555 1_555
H8 C12 1_555 1_555
C13 N4 1_555 1_555
H9 C13 1_555 1_555
H10 C13 1_555 1_555
Co4 N5 1_555 1_555
C11 C12 1_555 1_555
O7 Co5 1_555 1_555
N7 Co5 1_555 1_555
N2_2 C6_2 1_555 1_555
N4_2 C7_2 1_555 1_555
N7 C10_2 1_555 1_555
C7_2 N2_2 1_555 1_555
C8_2 C7_2 1_555 1_555
C9_2 C8_2 1_555 1_555
H5_2 C9_2 1_555 1_555
C10_2 C9_2 1_555 1_555
H6_2 C10_2 1_555 1_555
C11_2 N7 1_555 1_555
C12_2 C8_2 1_555 1_555
H8_2 C12_2 1_555 1_555
C13_2 N4_2 1_555 1_555
H9_2 C13_2 1_555 1_555
H10_2 C13_2 1_555 1_555
C11_2 C12_2 1_555 1_555
O1_2 C21_2 1_555 1_555
O5 C21_2 1_555 1_555
O7 C17_2 1_555 1_555
N6 C1_2 1_555 1_555
C1_2 H1_2 1_555 1_555
C2_2 N6 1_555 1_555
H2_2 C2_2 1_555 1_555
C3_2 C2_2 1_555 1_555
H3_2 C3_2 1_555 1_555
C4_2 C1_2 1_555 1_555
C5_2 C3_2 1_555 1_555
C15_2 C14_2 1_555 1_555
H11_2 C15_2 1_555 1_555
C16_2 C15_2 1_555 1_555
C17_2 C16_2 1_555 1_555
C18_2 C16_2 1_555 1_555
H12_2 C18_2 1_555 1_555
C19_2 C18_2 1_555 1_555
C20_2 C14_2 1_555 1_555
H13_2 C20_2 1_555 1_555
C21_2 C19_2 1_555 1_555
C4_2 C5_2 1_555 1_555
C19_2 C20_2 1_555 1_555

#END
