
###############################################################################
#
# This file contains modified crystal structure data generated from the
# MOF subset of the Cambridge Structural Database (CSD) v543 
# hosted by the Cambridge Crystallographic Data Centre (CCDC).
#
# This work is licensed under the Creative Commons
# Attribution-NonCommercial-ShareAlike 4.0 International License.
# To view a copy of this license, visit
# http://creativecommons.org/licenses/by-nc-sa/4.0/
# or send a letter to
# Creative Commons, PO Box 1866, Mountain View, CA 94042, USA.
#
# CIF created using the CSD Python API on 29 September 2022
# The structure has been converted into the P1 space group
# The structure has a 3D framework
# The original CSD entry XESKOX is in the rhombohedral crystal system
# The framework has been calculated to contain at least 10.0% void space
# The void calculation uses a probe of radius 1.32A, grid spacing 0.4
# H atom positions have been added when not included in the experimental data
#
###############################################################################

data_XESKOX
_chemical_formula_moiety         '(C54 H108 Mn12 N18 O44 P18)n'
_symmetry_cell_setting           triclinic
_symmetry_space_group_name_H-M   'P 1'
_symmetry_Int_Tables_number      1
_space_group_name_Hall           'P 1'
loop_
_symmetry_equiv_pos_site_id
_symmetry_equiv_pos_as_xyz
1 x,y,z
_cell_length_a                   26.0701(18)
_cell_length_b                   26.0701(18)
_cell_length_c                   5.9630(6)
_cell_angle_alpha                90
_cell_angle_beta                 90
_cell_angle_gamma                120
_cell_volume                     3509.79
loop_
_atom_site_label
_atom_site_type_symbol
_atom_site_fract_x
_atom_site_fract_y
_atom_site_fract_z
Mn2 Mn 0.37815(33) 0.30900(28) 0.6094(12)
Mn8 Mn 0.26419(43) 0.28852(33) 0.2761(12)
P2 P 0.3914(5) 0.2971(6) 0.1453(21)
O4 O 0.4393(10) 0.3244(8) 0.3187(31)
O8 O 0.2816(9) 0.2733(5) 0.6435(21)
O9 O 0.3934(5) 0.3416(8) 0.9768(21)
O10 O 0.3363(5) 0.2605(5) 0.2831(23)
O12 O 0.4061(5) 0.4091(7) 0.6165(23)
N4 N 0.3717(7) 0.2240(7) 0.7692(24)
H5 H 0.404209 0.211889 0.0816423
P1 P 0.2753(5) 0.0362(6) 0.1880(21)
O1 O 0.2274(10) 0.0089(8) 0.0146(31)
O3 O 0.3304(5) 0.0728(5) 0.0502(23)
N1 N 0.2950(7) 0.1093(7) 0.5641(24)
C1 C 0.2565(6) 0.0846(7) 0.3562(26)
C2 C 0.3538(8) 0.1550(7) 0.4563(19)
C3 C 0.2696(8) 0.14229(28) 0.6916(31)
Mn4 Mn 0.28852(33) 0.02433(28) 0.7239(12)
Mn5 Mn 0.40248(43) 0.04481(33) 0.0572(12)
Mn7 Mn 0.35766(28) 0.40248(43) 0.9428(12)
C4 C 0.4102(6) 0.2487(7) 0.9771(26)
C5 C 0.3129(8) 0.1783(7) 0.8770(19)
C6 C 0.3971(8) 0.19104(28) 0.6417(31)
H1 H 0.320188 0.149098 0.986119
H2 H 0.29489 0.200997 0.97486
H3 H 0.226989 0.110684 0.764372
H4 H 0.263839 0.171705 0.577844
H6 H 0.456294 0.274477 0.925056
H7 H 0.210372 0.0588559 0.408278
H8 H 0.262458 0.121444 0.251691
H9 H 0.439677 0.222649 0.568962
H10 H 0.402828 0.161628 0.755489
H11 H 0.346479 0.184235 0.347215
H12 H 0.371776 0.132336 0.358473
O6 O 0.3851(9) 0.0600(5) 0.6898(21)
O2 O 0.2733(5) 0.9917(8) 0.3565(21)
Mn3 Mn 0.30900(28) 0.93086(43) 0.3906(12)
O11 O 0.2605(5) 0.9243(7) 0.7169(23)
O2_2 O 0.0083(8) 0.2816(9) 0.3565(21)
Mn3_2 Mn 0.06914(43) 0.37815(51) 0.3906(12)
O11_2 O 0.0757(7) 0.3363(9) 0.7169(23)
Mn2_2 Mn 0.69100(28) 0.06914(43) 0.6094(12)
P2_2 P 0.7029(6) 0.0942(8) 0.1453(21)
O4_2 O 0.6756(8) 0.1148(13) 0.3187(31)
O8_2 O 0.7267(5) 0.0083(10) 0.6435(21)
O9_2 O 0.6584(8) 0.0517(9) 0.9768(21)
O10_2 O 0.7395(5) 0.0757(7) 0.2831(23)
N4_2 N 0.7760(7) 0.1476(10) 0.7692(24)
H5_2 H 0.788111 0.19232 0.0816423
P1_2 P 0.9638(6) 0.2391(8) 0.1880(21)
O1_2 O 0.9911(8) 0.2185(13) 0.0146(31)
O3_2 O 0.9272(5) 0.2576(7) 0.0502(23)
N1_2 N 0.8907(7) 0.1857(10) 0.5641(24)
C1_2 C 0.9154(7) 0.1719(9) 0.3562(26)
C2_2 C 0.8450(7) 0.1988(11) 0.4563(19)
C3_2 C 0.85771(28) 0.12731(85) 0.6916(31)
Mn4_2 Mn 0.97567(28) 0.26419(43) 0.7239(12)
Mn5_2 Mn 0.95519(33) 0.35766(54) 0.0572(12)
C4_2 C 0.7513(7) 0.1614(9) 0.9771(26)
C5_2 C 0.8217(7) 0.1345(11) 0.8770(19)
C6_2 C 0.80896(28) 0.20602(85) 0.6417(31)
H1_2 H 0.850902 0.17109 0.986119
H2_2 H 0.799003 0.093893 0.97486
H3_2 H 0.889316 0.116305 0.764372
H4_2 H 0.828295 0.0921339 0.577844
H6_2 H 0.725523 0.181817 0.925056
H7_2 H 0.941144 0.151516 0.408278
H8_2 H 0.878556 0.141014 0.251691
H9_2 H 0.777351 0.217028 0.568962
H10_2 H 0.838372 0.241199 0.755489
H11_2 H 0.815765 0.162243 0.347215
H12_2 H 0.867664 0.23944 0.358473
O6_2 O 0.9400(5) 0.3250(10) 0.6898(21)
Mn8_2 Mn 0.71148(33) 0.97567(54) 0.2761(12)
O12_2 O 0.5909(7) 0.9971(9) 0.6165(23)
Mn7_2 Mn 0.59752(43) 0.95519(51) 0.9428(12)
Mn8_3 Mn 0.02433(54) 0.73581(43) 0.2761(12)
O12_3 O 0.0029(9) 0.5939(5) 0.6165(23)
Mn7_3 Mn 0.04481(51) 0.64234(28) 0.9428(12)
Mn2_3 Mn 0.93086(43) 0.62185(33) 0.6094(12)
P2_3 P 0.9058(8) 0.6086(5) 0.1453(21)
O4_3 O 0.8852(13) 0.5607(10) 0.3187(31)
O8_3 O 0.9917(10) 0.7184(9) 0.6435(21)
O9_3 O 0.9483(9) 0.6066(5) 0.9768(21)
O10_3 O 0.9243(7) 0.6637(5) 0.2831(23)
N4_3 N 0.8524(10) 0.6283(7) 0.7692(24)
H5_3 H 0.80768 0.595791 0.0816423
P1_3 P 0.7609(8) 0.7247(5) 0.1880(21)
O1_3 O 0.7815(13) 0.7726(10) 0.0146(31)
O2_3 O 0.7184(9) 0.7267(5) 0.3565(21)
O3_3 O 0.7424(7) 0.6696(5) 0.0502(23)
N1_3 N 0.8143(10) 0.7050(7) 0.5641(24)
C1_3 C 0.8281(9) 0.7435(6) 0.3562(26)
C2_3 C 0.8012(11) 0.6462(8) 0.4563(19)
C3_3 C 0.87269(85) 0.7304(8) 0.6916(31)
Mn3_3 Mn 0.62185(51) 0.69100(28) 0.3906(12)
Mn4_3 Mn 0.73581(43) 0.71148(33) 0.7239(12)
Mn5_3 Mn 0.64234(54) 0.59752(43) 0.0572(12)
C4_3 C 0.8386(9) 0.5898(6) 0.9771(26)
C5_3 C 0.8655(11) 0.6871(8) 0.8770(19)
C6_3 C 0.79398(85) 0.6029(8) 0.6417(31)
H1_3 H 0.82891 0.679812 0.986119
H2_3 H 0.906107 0.70511 0.97486
H3_3 H 0.883695 0.773011 0.764372
H4_3 H 0.907866 0.736161 0.577844
H6_3 H 0.818183 0.543706 0.925056
H7_3 H 0.848484 0.789628 0.408278
H8_3 H 0.858986 0.737542 0.251691
H9_3 H 0.782972 0.560323 0.568962
H10_3 H 0.758801 0.597172 0.755489
H11_3 H 0.837757 0.653521 0.347215
H12_3 H 0.76056 0.628224 0.358473
O6_3 O 0.6750(10) 0.6149(9) 0.6898(21)
O11_3 O 0.6637(9) 0.7395(5) 0.7169(23)
O8_4 O 0.6149(9) 0.9400(5) 0.3102(21)
N4_4 N 0.7050(7) 0.8907(7) 0.4359(24)
O2_4 O 0.6066(5) 0.6584(8) 0.0232(21)
N1_4 N 0.6283(7) 0.7760(7) 0.2308(24)
C1_4 C 0.5898(6) 0.7513(7) 0.0229(26)
C2_4 C 0.6871(8) 0.8217(7) 0.1230(19)
C3_4 C 0.6029(8) 0.80896(28) 0.3583(31)
P2_4 P 0.7247(5) 0.9638(6) 0.8120(21)
O4_4 O 0.7726(10) 0.9911(8) 0.9854(31)
O10_4 O 0.6696(5) 0.9272(5) 0.9498(23)
C4_4 C 0.7435(6) 0.9154(7) 0.6438(26)
C5_4 C 0.6462(8) 0.8450(7) 0.5437(19)
C6_4 C 0.7304(8) 0.85771(28) 0.3084(31)
H1_4 H 0.653521 0.815765 0.652785
H2_4 H 0.628224 0.867664 0.641527
H3_4 H 0.560323 0.777351 0.431038
H4_4 H 0.597172 0.838372 0.244511
H5_4 H 0.737542 0.878556 0.748309
H6_4 H 0.789628 0.941144 0.591722
H7_4 H 0.543706 0.725523 0.0749444
H9_4 H 0.773011 0.889316 0.235628
H10_4 H 0.736161 0.828295 0.422156
H11_4 H 0.679812 0.850902 0.0138812
H12_4 H 0.70511 0.799003 0.02514
P1_4 P 0.6086(5) 0.7029(6) 0.8547(21)
O1_4 O 0.5607(10) 0.6756(8) 0.6813(31)
O11_4 O 0.5939(5) 0.5909(7) 0.3835(23)
H8_4 H 0.595791 0.788111 0.918358
O11_5 O 0.4091(7) 0.0029(9) 0.3835(23)
O8_5 O 0.0600(5) 0.6750(10) 0.3102(21)
N4_5 N 0.1093(7) 0.8143(10) 0.4359(24)
O2_5 O 0.3416(8) 0.9483(9) 0.0232(21)
N1_5 N 0.2240(7) 0.8524(10) 0.2308(24)
C1_5 C 0.2487(7) 0.8386(9) 0.0229(26)
C2_5 C 0.1783(7) 0.8655(11) 0.1230(19)
C3_5 C 0.19104(28) 0.79398(85) 0.3583(31)
P2_5 P 0.0362(6) 0.7609(8) 0.8120(21)
O4_5 O 0.0089(8) 0.7815(13) 0.9854(31)
O10_5 O 0.0728(5) 0.7424(7) 0.9498(23)
C4_5 C 0.0846(7) 0.8281(9) 0.6438(26)
C5_5 C 0.1550(7) 0.8012(11) 0.5437(19)
C6_5 C 0.14229(28) 0.87269(85) 0.3084(31)
H1_5 H 0.184235 0.837757 0.652785
H2_5 H 0.132336 0.76056 0.641527
H3_5 H 0.222649 0.782972 0.431038
H4_5 H 0.161628 0.758801 0.244511
H5_5 H 0.121444 0.858986 0.748309
H6_5 H 0.0588559 0.848484 0.591722
H7_5 H 0.274477 0.818183 0.0749444
H9_5 H 0.110684 0.883695 0.235628
H10_5 H 0.171705 0.907866 0.422156
H11_5 H 0.149098 0.82891 0.0138812
H12_5 H 0.200997 0.906107 0.02514
P1_5 P 0.2971(6) 0.9058(8) 0.8547(21)
O1_5 O 0.3244(8) 0.8852(13) 0.6813(31)
H8_5 H 0.211889 0.80768 0.918358
O8_6 O 0.3250(10) 0.3851(9) 0.3102(21)
N4_6 N 0.1857(10) 0.2950(7) 0.4359(24)
O2_6 O 0.0517(9) 0.3934(5) 0.0232(21)
N1_6 N 0.1476(10) 0.3717(7) 0.2308(24)
C1_6 C 0.1614(9) 0.4102(6) 0.0229(26)
C2_6 C 0.1345(11) 0.3129(8) 0.1230(19)
C3_6 C 0.20602(85) 0.3971(8) 0.3583(31)
P2_6 P 0.2391(8) 0.2753(5) 0.8120(21)
O4_6 O 0.2185(13) 0.2274(10) 0.9854(31)
O10_6 O 0.2576(7) 0.3304(5) 0.9498(23)
C4_6 C 0.1719(9) 0.2565(6) 0.6438(26)
C5_6 C 0.1988(11) 0.3538(8) 0.5437(19)
C6_6 C 0.12731(85) 0.2696(8) 0.3084(31)
H1_6 H 0.162243 0.346479 0.652785
H2_6 H 0.23944 0.371776 0.641527
H3_6 H 0.217028 0.439677 0.431038
H4_6 H 0.241199 0.402828 0.244511
H5_6 H 0.141014 0.262458 0.748309
H6_6 H 0.151516 0.210372 0.591722
H7_6 H 0.181817 0.456294 0.0749444
H9_6 H 0.116305 0.226989 0.235628
H10_6 H 0.0921339 0.263839 0.422156
H11_6 H 0.17109 0.320188 0.0138812
H12_6 H 0.093893 0.29489 0.02514
P1_6 P 0.0942(8) 0.3914(5) 0.8547(21)
O1_6 O 0.1148(13) 0.4393(10) 0.6813(31)
H8_6 H 0.19232 0.404209 0.918358
O11_6 O 0.9971(9) 0.4061(5) 0.3835(23)
N4_7 N 0.0383(7) 0.5574(7) 0.1026(24)
P2_7 P 0.0580(5) 0.6305(6) 0.4787(21)
O4_7 O 0.1059(10) 0.6578(8) 0.6521(31)
C4_7 C 0.0768(6) 0.5821(7) 0.3105(26)
H5_7 H 0.0708752 0.545222 0.414976
H6_7 H 0.122961 0.607811 0.258389
H10_7 H 0.0694945 0.494962 0.0888228
C2_7 C 0.0205(8) 0.4883(7) 0.7896(19)
C6_7 C 0.0637(8) 0.52438(28) 0.9751(31)
H9_7 H 0.106344 0.555982 0.902295
H11_7 H 0.0131454 0.517569 0.680548
H12_7 H 0.0384432 0.465669 0.691807
C3_7 C 0.9363(8) 0.47562(28) 0.0249(31)
C5_7 C 0.9795(8) 0.5117(7) 0.2104(19)
H1_7 H 0.986855 0.482431 0.319452
H2_7 H 0.961557 0.534331 0.308193
H3_7 H 0.893656 0.444018 0.0977049
P1_7 P 0.9420(5) 0.3695(6) 0.5213(21)
O1_7 O 0.8941(10) 0.3422(8) 0.3479(31)
N1_7 N 0.9617(7) 0.4426(7) 0.8974(24)
C1_7 C 0.9232(6) 0.4179(7) 0.6895(26)
H4_7 H 0.930506 0.505038 0.911177
H7_7 H 0.877039 0.392189 0.741611
H8_7 H 0.929125 0.454778 0.585024
N4_8 N 0.4426(7) 0.4810(10) 0.1026(24)
C3_8 C 0.52438(28) 0.46064(85) 0.0249(31)
P2_8 P 0.3695(6) 0.4276(8) 0.4787(21)
O4_8 O 0.3422(8) 0.4482(13) 0.6521(31)
C4_8 C 0.4179(7) 0.4948(9) 0.3105(26)
C5_8 C 0.4883(7) 0.4679(11) 0.2104(19)
H1_8 H 0.517569 0.504423 0.319452
H2_8 H 0.465669 0.427226 0.308193
H3_8 H 0.555982 0.449638 0.0977049
H5_8 H 0.454778 0.525653 0.414976
H6_8 H 0.392189 0.51515 0.258389
H10_8 H 0.505038 0.574533 0.0888228
P1_8 P 0.6305(6) 0.5724(8) 0.5213(21)
O1_8 O 0.6578(8) 0.5518(13) 0.3479(31)
N1_8 N 0.5574(7) 0.5190(10) 0.8974(24)
C1_8 C 0.5821(7) 0.5052(9) 0.6895(26)
C2_8 C 0.5117(7) 0.5321(11) 0.7896(19)
C6_8 C 0.47562(28) 0.53936(85) 0.9751(31)
H4_8 H 0.494962 0.425467 0.911177
H7_8 H 0.607811 0.48485 0.741611
H8_8 H 0.545222 0.474347 0.585024
H9_8 H 0.444018 0.550362 0.902295
H11_8 H 0.482431 0.495577 0.680548
H12_8 H 0.534331 0.572774 0.691807
C3_9 C 0.53936(85) 0.0637(8) 0.0249(31)
C5_9 C 0.5321(11) 0.0205(8) 0.2104(19)
H1_9 H 0.495577 0.0131454 0.319452
H2_9 H 0.572774 0.0384432 0.308193
H3_9 H 0.550362 0.106344 0.0977049
P1_9 P 0.4276(8) 0.0580(5) 0.5213(21)
O1_9 O 0.4482(13) 0.1059(10) 0.3479(31)
N1_9 N 0.4810(10) 0.0383(7) 0.8974(24)
C1_9 C 0.4948(9) 0.0768(6) 0.6895(26)
H4_9 H 0.574533 0.0694945 0.911177
H7_9 H 0.51515 0.122961 0.741611
H8_9 H 0.525653 0.0708752 0.585024
N4_9 N 0.5190(10) 0.9617(7) 0.1026(24)
P2_9 P 0.5724(8) 0.9420(5) 0.4787(21)
O4_9 O 0.5518(13) 0.8941(10) 0.6521(31)
C4_9 C 0.5052(9) 0.9232(6) 0.3105(26)
H5_9 H 0.474347 0.929125 0.414976
H6_9 H 0.48485 0.877039 0.258389
H10_9 H 0.425467 0.930506 0.0888228
C2_9 C 0.4679(11) 0.9795(8) 0.7896(19)
C6_9 C 0.46064(85) 0.9363(8) 0.9751(31)
H9_9 H 0.449638 0.893656 0.902295
H11_9 H 0.504423 0.986855 0.680548
H12_9 H 0.427226 0.961557 0.691807
loop_
_geom_bond_atom_site_label_1
_geom_bond_atom_site_label_2
_geom_bond_site_symmetry_1
_geom_bond_site_symmetry_2
Mn2 O4 1_555 1_555
Mn8 O8 1_555 1_555
P2 O4 1_555 1_555
O8 Mn2 1_555 1_555
O9 Mn2 1_555 1_555
O10 Mn2 1_555 1_555
O12 Mn2 1_555 1_555
N4 Mn2 1_555 1_555
Mn8 O10 1_555 1_555
P2 O10 1_555 1_555
P1 O1 1_555 1_555
N1 C1 1_555 1_555
C1 P1 1_555 1_555
C2 N1 1_555 1_555
C3 N1 1_555 1_555
Mn5 O3 1_555 1_555
Mn7 O9 1_555 1_555
C5 C3 1_555 1_555
C6 C2 1_555 1_555
P1 O3 1_555 1_555
N1 Mn4 1_555 1_555
N4 C4 1_555 1_555
N4 C5 1_555 1_555
N4 C6 1_555 1_555
C5 H1 1_555 1_555
C5 H2 1_555 1_555
C3 H3 1_555 1_555
C3 H4 1_555 1_555
C4 H6 1_555 1_555
C1 H7 1_555 1_555
C1 H8 1_555 1_555
C6 H9 1_555 1_555
C6 H10 1_555 1_555
C2 H11 1_555 1_555
C2 H12 1_555 1_555
O6 Mn4 1_555 1_555
Mn3 O2 1_555 1_555
Mn3_2 O2_2 1_555 1_555
Mn2_2 O4_2 1_555 1_555
P2_2 O4_2 1_555 1_555
O8_2 Mn2_2 1_555 1_555
O9_2 Mn2_2 1_555 1_555
O10_2 Mn2_2 1_555 1_555
N4_2 Mn2_2 1_555 1_555
P2_2 O10_2 1_555 1_555
P1_2 O1_2 1_555 1_555
N1_2 C1_2 1_555 1_555
C1_2 P1_2 1_555 1_555
C2_2 N1_2 1_555 1_555
C3_2 N1_2 1_555 1_555
Mn5_2 O3_2 1_555 1_555
C5_2 C3_2 1_555 1_555
C6_2 C2_2 1_555 1_555
P1_2 O3_2 1_555 1_555
N1_2 Mn4_2 1_555 1_555
N4_2 C4_2 1_555 1_555
N4_2 C5_2 1_555 1_555
N4_2 C6_2 1_555 1_555
C5_2 H1_2 1_555 1_555
C5_2 H2_2 1_555 1_555
C3_2 H3_2 1_555 1_555
C3_2 H4_2 1_555 1_555
C4_2 H6_2 1_555 1_555
C1_2 H7_2 1_555 1_555
C1_2 H8_2 1_555 1_555
C6_2 H9_2 1_555 1_555
C6_2 H10_2 1_555 1_555
C2_2 H11_2 1_555 1_555
C2_2 H12_2 1_555 1_555
O6_2 Mn4_2 1_555 1_555
Mn2_3 O4_3 1_555 1_555
P2_3 O4_3 1_555 1_555
O8_3 Mn2_3 1_555 1_555
O9_3 Mn2_3 1_555 1_555
O10_3 Mn2_3 1_555 1_555
N4_3 Mn2_3 1_555 1_555
P2_3 O10_3 1_555 1_555
P1_3 O1_3 1_555 1_555
O2_3 P1_3 1_555 1_555
N1_3 C1_3 1_555 1_555
C1_3 P1_3 1_555 1_555
C2_3 N1_3 1_555 1_555
C3_3 N1_3 1_555 1_555
Mn3_3 O2_3 1_555 1_555
Mn4_3 O2_3 1_555 1_555
Mn5_3 O3_3 1_555 1_555
C5_3 C3_3 1_555 1_555
C6_3 C2_3 1_555 1_555
P1_3 O3_3 1_555 1_555
N1_3 Mn4_3 1_555 1_555
N4_3 C4_3 1_555 1_555
N4_3 C5_3 1_555 1_555
N4_3 C6_3 1_555 1_555
C5_3 H1_3 1_555 1_555
C5_3 H2_3 1_555 1_555
C3_3 H3_3 1_555 1_555
C3_3 H4_3 1_555 1_555
C4_3 H6_3 1_555 1_555
C1_3 H7_3 1_555 1_555
C1_3 H8_3 1_555 1_555
C6_3 H9_3 1_555 1_555
C6_3 H10_3 1_555 1_555
C2_3 H11_3 1_555 1_555
C2_3 H12_3 1_555 1_555
O6_3 Mn4_3 1_555 1_555
O11_3 Mn4_3 1_555 1_555
O8_4 Mn8_2 1_555 1_555
N4_4 Mn8_2 1_555 1_555
N1_4 C1_4 1_555 1_555
C2_4 N1_4 1_555 1_555
C3_4 N1_4 1_555 1_555
Mn5_3 O2_4 1_555 1_555
Mn3_3 O2_4 1_555 1_555
P2_4 O4_4 1_555 1_555
C4_4 P2_4 1_555 1_555
C5_4 C3_4 1_555 1_555
C6_4 C2_4 1_555 1_555
N1_4 Mn3_3 1_555 1_555
Mn7_2 O10_4 1_555 1_555
P2_4 O10_4 1_555 1_555
N4_4 C4_4 1_555 1_555
N4_4 C5_4 1_555 1_555
N4_4 C6_4 1_555 1_555
C5_4 H1_4 1_555 1_555
C5_4 H2_4 1_555 1_555
C3_4 H3_4 1_555 1_555
C3_4 H4_4 1_555 1_555
C4_4 H5_4 1_555 1_555
C4_4 H6_4 1_555 1_555
C1_4 H7_4 1_555 1_555
C6_4 H9_4 1_555 1_555
C6_4 H10_4 1_555 1_555
C2_4 H11_4 1_555 1_555
C2_4 H12_4 1_555 1_555
Mn3_3 O1_4 1_555 1_555
P1_4 O1_4 1_555 1_555
O11_3 Mn3_3 1_555 1_555
O11_4 Mn3_3 1_555 1_555
P1_4 O11_3 1_555 1_555
O8_5 Mn8_3 1_555 1_555
N4_5 Mn8_3 1_555 1_555
N1_5 C1_5 1_555 1_555
C2_5 N1_5 1_555 1_555
C3_5 N1_5 1_555 1_555
Mn3 O2_5 1_555 1_555
P2_5 O4_5 1_555 1_555
C4_5 P2_5 1_555 1_555
C5_5 C3_5 1_555 1_555
C6_5 C2_5 1_555 1_555
N1_5 Mn3 1_555 1_555
Mn7_3 O10_5 1_555 1_555
P2_5 O10_5 1_555 1_555
N4_5 C4_5 1_555 1_555
N4_5 C5_5 1_555 1_555
N4_5 C6_5 1_555 1_555
C5_5 H1_5 1_555 1_555
C5_5 H2_5 1_555 1_555
C3_5 H3_5 1_555 1_555
C3_5 H4_5 1_555 1_555
C4_5 H5_5 1_555 1_555
C4_5 H6_5 1_555 1_555
C1_5 H7_5 1_555 1_555
C6_5 H9_5 1_555 1_555
C6_5 H10_5 1_555 1_555
C2_5 H11_5 1_555 1_555
C2_5 H12_5 1_555 1_555
Mn3 O1_5 1_555 1_555
P1_5 O1_5 1_555 1_555
O11 Mn3 1_555 1_555
P1_5 O11 1_555 1_555
O8_6 Mn8 1_555 1_555
N4_6 Mn8 1_555 1_555
N1_6 C1_6 1_555 1_555
C2_6 N1_6 1_555 1_555
C3_6 N1_6 1_555 1_555
Mn3_2 O2_6 1_555 1_555
P2_6 O4_6 1_555 1_555
O8 P2_6 1_555 1_555
C4_6 P2_6 1_555 1_555
C5_6 C3_6 1_555 1_555
C6_6 C2_6 1_555 1_555
N1_6 Mn3_2 1_555 1_555
Mn7 O10_6 1_555 1_555
P2_6 O10_6 1_555 1_555
N4_6 C4_6 1_555 1_555
N4_6 C5_6 1_555 1_555
N4_6 C6_6 1_555 1_555
C5_6 H1_6 1_555 1_555
C5_6 H2_6 1_555 1_555
C3_6 H3_6 1_555 1_555
C3_6 H4_6 1_555 1_555
C4_6 H5_6 1_555 1_555
C4_6 H6_6 1_555 1_555
C1_6 H7_6 1_555 1_555
C6_6 H9_6 1_555 1_555
C6_6 H10_6 1_555 1_555
C2_6 H11_6 1_555 1_555
C2_6 H12_6 1_555 1_555
Mn3_2 O1_6 1_555 1_555
P1_6 O1_6 1_555 1_555
O11_2 Mn3_2 1_555 1_555
P1_6 O11_2 1_555 1_555
Mn7_3 O4_7 1_555 1_555
P2_7 O4_7 1_555 1_555
O8_5 P2_7 1_555 1_555
O12_3 Mn7_3 1_555 1_555
C4_7 P2_7 1_555 1_555
P2_7 O12_3 1_555 1_555
N4_7 C4_7 1_555 1_555
C4_7 H5_7 1_555 1_555
C4_7 H6_7 1_555 1_555
C6_7 C2_7 1_555 1_555
C6_7 H9_7 1_555 1_555
C2_7 H11_7 1_555 1_555
C2_7 H12_7 1_555 1_555
C5_7 C3_7 1_555 1_555
C5_7 H1_7 1_555 1_555
C5_7 H2_7 1_555 1_555
C3_7 H3_7 1_555 1_555
Mn5_2 O1_7 1_555 1_555
P1_7 O1_7 1_555 1_555
O6_2 P1_7 1_555 1_555
O11_6 Mn5_2 1_555 1_555
N1_7 C1_7 1_555 1_555
C1_7 P1_7 1_555 1_555
P1_7 O11_6 1_555 1_555
C1_7 H7_7 1_555 1_555
C1_7 H8_7 1_555 1_555
Mn7 O4_8 1_555 1_555
P2_8 O4_8 1_555 1_555
O8_6 P2_8 1_555 1_555
O12 Mn7 1_555 1_555
C4_8 P2_8 1_555 1_555
C5_8 C3_8 1_555 1_555
P2_8 O12 1_555 1_555
N4_8 C4_8 1_555 1_555
N4_8 C5_8 1_555 1_555
C5_8 H1_8 1_555 1_555
C5_8 H2_8 1_555 1_555
C3_8 H3_8 1_555 1_555
C4_8 H5_8 1_555 1_555
C4_8 H6_8 1_555 1_555
Mn5_3 O1_8 1_555 1_555
P1_8 O1_8 1_555 1_555
O6_3 P1_8 1_555 1_555
O11_4 Mn5_3 1_555 1_555
N1_8 C1_8 1_555 1_555
C1_8 P1_8 1_555 1_555
C2_8 N1_8 1_555 1_555
C6_8 C2_8 1_555 1_555
P1_8 O11_4 1_555 1_555
C1_8 H7_8 1_555 1_555
C1_8 H8_8 1_555 1_555
C6_8 H9_8 1_555 1_555
C2_8 H11_8 1_555 1_555
C2_8 H12_8 1_555 1_555
C5_9 C3_9 1_555 1_555
C5_9 H1_9 1_555 1_555
C5_9 H2_9 1_555 1_555
C3_9 H3_9 1_555 1_555
Mn5 O1_9 1_555 1_555
P1_9 O1_9 1_555 1_555
O6 P1_9 1_555 1_555
O11_5 Mn5 1_555 1_555
N1_9 C1_9 1_555 1_555
C1_9 P1_9 1_555 1_555
P1_9 O11_5 1_555 1_555
C1_9 H7_9 1_555 1_555
C1_9 H8_9 1_555 1_555
Mn7_2 O4_9 1_555 1_555
P2_9 O4_9 1_555 1_555
O8_4 P2_9 1_555 1_555
O12_2 Mn7_2 1_555 1_555
C4_9 P2_9 1_555 1_555
P2_9 O12_2 1_555 1_555
N4_9 C4_9 1_555 1_555
C4_9 H5_9 1_555 1_555
C4_9 H6_9 1_555 1_555
C6_9 C2_9 1_555 1_555
C6_9 H9_9 1_555 1_555
C2_9 H11_9 1_555 1_555
C2_9 H12_9 1_555 1_555

#END
