
###############################################################################
#
# This file contains modified crystal structure data generated from the
# MOF subset of the Cambridge Structural Database (CSD) v543 
# hosted by the Cambridge Crystallographic Data Centre (CCDC).
#
# This work is licensed under the Creative Commons
# Attribution-NonCommercial-ShareAlike 4.0 International License.
# To view a copy of this license, visit
# http://creativecommons.org/licenses/by-nc-sa/4.0/
# or send a letter to
# Creative Commons, PO Box 1866, Mountain View, CA 94042, USA.
#
# CIF created using the CSD Python API on 29 September 2022
# The structure has been converted into the P1 space group
# The structure has a 3D framework
# The original CSD entry XEVJIT is in the orthorhombic crystal system
# The framework has been calculated to contain at least 10.0% void space
# The void calculation uses a probe of radius 1.32A, grid spacing 0.4
#
###############################################################################

data_XEVJIT
_chemical_formula_moiety         '(C144 H96 Co6 N16 O40)n'
_symmetry_cell_setting           triclinic
_symmetry_space_group_name_H-M   'P 1'
_symmetry_Int_Tables_number      1
_space_group_name_Hall           'P 1'
loop_
_symmetry_equiv_pos_site_id
_symmetry_equiv_pos_as_xyz
1 x,y,z
_cell_length_a                   17.5123(17)
_cell_length_b                   13.6834(15)
_cell_length_c                   15.2911(14)
_cell_angle_alpha                90
_cell_angle_beta                 90
_cell_angle_gamma                90
_cell_volume                     3664.17
loop_
_atom_site_label
_atom_site_type_symbol
_atom_site_fract_x
_atom_site_fract_y
_atom_site_fract_z
C13 C 0.4550(3) 0.0065(3) 0.1191(3)
C14 C 0.4486(3) 0.1135(3) 0.1171(3)
C15 C 0.5140(3) 0.1697(4) 0.1052(4)
H9 H 0.5619 0.1384 0.0970
C16 C 0.3814(3) 0.1649(4) 0.1272(4)
H10 H 0.3345 0.1307 0.1340
N2 N 0.4452(2) 0.3192(3) 0.1159(2)
C17 C 0.5100(3) 0.2693(4) 0.1051(4)
H11 H 0.5559 0.3051 0.0968
C18 C 0.3821(3) 0.2656(4) 0.1274(4)
H12 H 0.3351 0.2988 0.1361
Co2 Co 0.44282(3) 0.47752(4) 0.11997(3)
O1 O 0.55799(15) 0.4867(2) 0.1428(2)
C1 C 0.6023(2) 0.5129(3) 0.0830(3)
C2 C 0.6832(2) 0.5293(3) 0.1022(3)
O2 O 0.70987(14) 0.5191(2) 0.18623(17)
C3 C 0.7870(2) 0.5350(3) 0.1822(3)
C4 C 0.8089(2) 0.5541(5) 0.0990(3)
H1 H 0.8591 0.5681 0.0793
C5 C 0.7417(2) 0.5492(4) 0.0474(3)
O3 O 0.58395(18) 0.5284(3) 0.0059(2)
O4 O 0.90340(17) 0.5335(2) 0.2538(2)
O5 O 0.8003(2) 0.5219(2) 0.3361(2)
C6 C 0.8316(2) 0.5290(3) 0.2642(3)
N1 N 0.4305(2) 0.6333(3) 0.1200(2)
C7 C 0.4825(3) 0.6939(3) 0.1556(3)
H3 H 0.5269 0.6662 0.1812
C8 C 0.4745(3) 0.7944(3) 0.1567(3)
H4 H 0.5130 0.8340 0.1824
C9 C 0.4103(3) 0.8371(3) 0.1203(3)
C10 C 0.3561(3) 0.7750(3) 0.0840(4)
H5 H 0.3108 0.8009 0.0588
C11 C 0.3686(3) 0.6749(3) 0.0849(4)
H6 H 0.3312 0.6337 0.0592
C12 C 0.3982(3) 0.9436(3) 0.1183(3)
H7 H 0.3474 0.9678 0.1165
H8 H 0.5052 0.9801 0.1211
Co3 Co 0.94282(3) 0.52248(4) 0.38003(3)
O7 O 0.40340(17) 0.4665(2) 0.2462(2)
O8 O 0.3003(2) 0.4781(2) 0.1639(2)
H2 H 0.7384 0.5581 0.9859
Co4 Co 0.55718(3) 0.52248(4) 0.88003(3)
O6 O 0.41605(18) 0.4716(3) 0.9941(2)
O1_2 O 0.05799(15) 0.5133(2) 0.3572(2)
C1_2 C 0.1023(2) 0.4871(3) 0.4170(3)
C2_2 C 0.1832(2) 0.4707(3) 0.3978(3)
O2_2 O 0.20987(14) 0.4809(2) 0.31377(17)
C3_2 C 0.2870(2) 0.4650(3) 0.3178(3)
C4_2 C 0.3089(2) 0.4459(5) 0.4010(3)
H1_2 H 0.3591 0.4319 0.4207
C5_2 C 0.2417(2) 0.4508(4) 0.4526(3)
H2_2 H 0.2384 0.4419 0.5141
O3_2 O 0.08395(18) 0.4716(3) 0.4941(2)
C6_2 C 0.3316(2) 0.4710(3) 0.2358(3)
H3_2 H 0.0269 0.3338 0.3188
H4_2 H 0.0130 0.1660 0.3176
H8_2 H 0.0052 0.0199 0.3789
Co4_2 Co 0.05718(3) 0.47752(4) 0.61997(3)
N1_2 N 0.9305(2) 0.3667(3) 0.3800(2)
C7_2 C 0.9825(3) 0.3061(3) 0.3444(3)
C8_2 C 0.9745(3) 0.2056(3) 0.3433(3)
C9_2 C 0.9103(3) 0.1629(3) 0.3797(3)
C10_2 C 0.8561(3) 0.2250(3) 0.4160(4)
H5_2 H 0.8108 0.1991 0.4412
C11_2 C 0.8686(3) 0.3251(3) 0.4151(4)
H6_2 H 0.8312 0.3663 0.4408
C12_2 C 0.8982(3) 0.0564(3) 0.3817(3)
H7_2 H 0.8474 0.0322 0.3835
O6_2 O 0.91605(18) 0.5284(3) 0.5059(2)
N3 N 0.9452(2) 0.6808(3) 0.3841(2)
C13_2 C 0.9550(3) 0.9935(3) 0.3809(3)
C14_2 C 0.9486(3) 0.8865(3) 0.3829(3)
C16_2 C 0.8814(3) 0.8351(4) 0.3728(4)
H10_2 H 0.8345 0.8693 0.3660
C18_2 C 0.8821(3) 0.7344(4) 0.3726(4)
H12_2 H 0.8351 0.7012 0.3639
H2_3 H 0.2616 0.4419 0.0141
O1_3 O 0.44201(15) 0.5133(2) 0.8572(2)
C1_3 C 0.3977(2) 0.4871(3) 0.9170(3)
C2_3 C 0.3168(2) 0.4707(3) 0.8978(3)
O2_3 O 0.29013(14) 0.4809(2) 0.81377(17)
C3_3 C 0.2130(2) 0.4650(3) 0.8178(3)
C4_3 C 0.1911(2) 0.4459(5) 0.9010(3)
H1_3 H 0.1409 0.4319 0.9207
C5_3 C 0.2583(2) 0.4508(4) 0.9526(3)
O4_2 O 0.09660(17) 0.4665(2) 0.7462(2)
O5_2 O 0.1997(2) 0.4781(2) 0.6639(2)
C6_3 C 0.1684(2) 0.4710(3) 0.7358(3)
N1_3 N 0.5695(2) 0.3667(3) 0.8800(2)
C7_3 C 0.5175(3) 0.3061(3) 0.8444(3)
H3_3 H 0.4731 0.3338 0.8188
C8_3 C 0.5255(3) 0.2056(3) 0.8433(3)
H4_3 H 0.4870 0.1660 0.8176
C9_3 C 0.5897(3) 0.1629(3) 0.8797(3)
C10_3 C 0.6439(3) 0.2250(3) 0.9160(4)
H5_3 H 0.6892 0.1991 0.9412
C11_3 C 0.6314(3) 0.3251(3) 0.9151(4)
H6_3 H 0.6688 0.3663 0.9408
C12_3 C 0.6018(3) 0.0564(3) 0.8817(3)
H7_3 H 0.6526 0.0322 0.8835
H8_3 H 0.4948 0.0199 0.8789
O7_2 O 0.59660(17) 0.5335(2) 0.7538(2)
O8_2 O 0.6997(2) 0.5219(2) 0.8361(2)
N3_2 N 0.5548(2) 0.6808(3) 0.8841(2)
C13_3 C 0.5450(3) 0.9935(3) 0.8809(3)
C14_3 C 0.5514(3) 0.8865(3) 0.8829(3)
C15_2 C 0.4860(3) 0.8303(4) 0.8948(4)
H9_2 H 0.4381 0.8616 0.9030
C16_3 C 0.6186(3) 0.8351(4) 0.8728(4)
H10_3 H 0.6655 0.8693 0.8660
C17_2 C 0.4900(3) 0.7307(4) 0.8949(4)
H11_2 H 0.4441 0.6949 0.9032
C18_3 C 0.6179(3) 0.7344(4) 0.8726(4)
H12_3 H 0.6649 0.7012 0.8639
C13_4 C 0.0450(3) 0.0065(3) 0.6191(3)
C14_4 C 0.0514(3) 0.1135(3) 0.6171(3)
C16_4 C 0.1186(3) 0.1649(4) 0.6272(4)
H10_4 H 0.1655 0.1307 0.6340
N2_2 N 0.0548(2) 0.3192(3) 0.6159(2)
C18_4 C 0.1179(3) 0.2656(4) 0.6274(4)
H12_4 H 0.1649 0.2988 0.6361
N1_4 N 0.0695(2) 0.6333(3) 0.6200(2)
C7_4 C 0.0175(3) 0.6939(3) 0.6556(3)
C8_4 C 0.0255(3) 0.7944(3) 0.6567(3)
C9_4 C 0.0897(3) 0.8371(3) 0.6203(3)
C10_4 C 0.1439(3) 0.7750(3) 0.5840(4)
H5_4 H 0.1892 0.8009 0.5588
C11_4 C 0.1314(3) 0.6749(3) 0.5849(4)
H6_4 H 0.1688 0.6337 0.5592
C12_4 C 0.1018(3) 0.9436(3) 0.6183(3)
H7_4 H 0.1526 0.9678 0.6165
O1_4 O 0.94201(15) 0.4867(2) 0.6428(2)
C1_4 C 0.8977(2) 0.5129(3) 0.5830(3)
C2_4 C 0.8168(2) 0.5293(3) 0.6022(3)
O2_4 O 0.79013(14) 0.5191(2) 0.68623(17)
C3_4 C 0.7130(2) 0.5350(3) 0.6822(3)
C4_4 C 0.6911(2) 0.5541(5) 0.5990(3)
H1_4 H 0.6409 0.5681 0.5793
C5_4 C 0.7583(2) 0.5492(4) 0.5474(3)
H2_4 H 0.7616 0.5581 0.4859
C6_4 C 0.6684(2) 0.5290(3) 0.7642(3)
H3_4 H 0.9731 0.6662 0.6812
H4_4 H 0.9870 0.8340 0.6824
H8_4 H 0.9948 0.9801 0.6211
Co1 Co 0.05718(3) 0.02248(4) 0.11997(3)
O7_3 O 0.09660(17) 0.0335(2) 0.2462(2)
O8_3 O 0.1997(2) 0.0219(2) 0.1639(2)
N3_3 N 0.0548(2) 0.1808(3) 0.1159(2)
O6_3 O 0.08395(18) 0.0284(3) 0.9941(2)
N1_5 N 0.0695(2) 0.8667(3) 0.1200(2)
C7_5 C 0.0175(3) 0.8061(3) 0.1556(3)
C8_5 C 0.0255(3) 0.7056(3) 0.1567(3)
C9_5 C 0.0897(3) 0.6629(3) 0.1203(3)
C10_5 C 0.1439(3) 0.7250(3) 0.0840(4)
H5_5 H 0.1892 0.6991 0.0588
C11_5 C 0.1314(3) 0.8251(3) 0.0849(4)
H6_5 H 0.1688 0.8663 0.0592
C12_5 C 0.1018(3) 0.5564(3) 0.1183(3)
H7_5 H 0.1526 0.5322 0.1165
C13_5 C 0.0450(3) 0.4935(3) 0.1191(3)
C14_5 C 0.0514(3) 0.3865(3) 0.1171(3)
C16_5 C 0.1186(3) 0.3351(4) 0.1272(4)
H10_5 H 0.1655 0.3693 0.1340
C18_5 C 0.1179(3) 0.2344(4) 0.1274(4)
H12_5 H 0.1649 0.2012 0.1361
C1_5 C 0.8977(2) 0.9871(3) 0.0830(3)
C2_5 C 0.8168(2) 0.9707(3) 0.1022(3)
O2_5 O 0.79013(14) 0.9809(2) 0.18623(17)
C3_5 C 0.7130(2) 0.9650(3) 0.1822(3)
C4_5 C 0.6911(2) 0.9459(5) 0.0990(3)
H1_5 H 0.6409 0.9319 0.0793
C5_5 C 0.7583(2) 0.9508(4) 0.0474(3)
O3_3 O 0.91605(18) 0.9716(3) 0.0059(2)
O4_3 O 0.59660(17) 0.9665(2) 0.2538(2)
O5_3 O 0.6997(2) 0.9781(2) 0.3361(2)
C6_5 C 0.6684(2) 0.9710(3) 0.2642(3)
H3_5 H 0.9731 0.8338 0.1812
H4_5 H 0.9870 0.6660 0.1824
H8_5 H 0.9948 0.5199 0.1211
C15_3 C 0.9860(3) 0.3303(4) 0.1052(4)
H9_3 H 0.9381 0.3616 0.0970
C17_3 C 0.9900(3) 0.2307(4) 0.1051(4)
H11_3 H 0.9441 0.1949 0.0968
Co3_2 Co 0.55718(3) 0.97752(4) 0.38003(3)
H2_5 H 0.7616 0.9419 0.9859
Co4_3 Co 0.94282(3) 0.97752(4) 0.88003(3)
C1_6 C 0.3977(2) 0.0129(3) 0.4170(3)
C2_6 C 0.3168(2) 0.0293(3) 0.3978(3)
O2_6 O 0.29013(14) 0.0191(2) 0.31377(17)
C3_6 C 0.2130(2) 0.0350(3) 0.3178(3)
C4_6 C 0.1911(2) 0.0541(5) 0.4010(3)
H1_6 H 0.1409 0.0681 0.4207
C5_6 C 0.2583(2) 0.0492(4) 0.4526(3)
H2_6 H 0.2616 0.0581 0.5141
O3_4 O 0.41605(18) 0.0284(3) 0.4941(2)
C6_6 C 0.1684(2) 0.0290(3) 0.2358(3)
N1_6 N 0.5695(2) 0.1333(3) 0.3800(2)
C7_6 C 0.5175(3) 0.1939(3) 0.3444(3)
H3_6 H 0.4731 0.1662 0.3188
C8_6 C 0.5255(3) 0.2944(3) 0.3433(3)
H4_6 H 0.4870 0.3340 0.3176
C9_6 C 0.5897(3) 0.3371(3) 0.3797(3)
C10_6 C 0.6439(3) 0.2750(3) 0.4160(4)
H5_6 H 0.6892 0.3009 0.4412
C11_6 C 0.6314(3) 0.1749(3) 0.4151(4)
H6_6 H 0.6688 0.1337 0.4408
C12_6 C 0.6018(3) 0.4436(3) 0.3817(3)
H7_6 H 0.6526 0.4678 0.3835
C13_6 C 0.5450(3) 0.5065(3) 0.3809(3)
H8_6 H 0.4948 0.4801 0.3789
C14_6 C 0.5514(3) 0.6135(3) 0.3829(3)
C15_4 C 0.4860(3) 0.6697(4) 0.3948(4)
H9_4 H 0.4381 0.6384 0.4030
C16_6 C 0.6186(3) 0.6649(4) 0.3728(4)
H10_6 H 0.6655 0.6307 0.3660
N2_3 N 0.5548(2) 0.8192(3) 0.3841(2)
C17_4 C 0.4900(3) 0.7693(4) 0.3949(4)
H11_4 H 0.4441 0.8051 0.4032
C18_6 C 0.6179(3) 0.7656(4) 0.3726(4)
H12_6 H 0.6649 0.7988 0.3639
Co4_4 Co 0.44282(3) 0.02248(4) 0.61997(3)
O1_5 O 0.44201(15) 0.9867(2) 0.3572(2)
O6_4 O 0.58395(18) 0.9716(3) 0.5059(2)
H2_7 H 0.2384 0.0581 0.0141
C1_7 C 0.1023(2) 0.0129(3) 0.9170(3)
C2_7 C 0.1832(2) 0.0293(3) 0.8978(3)
O2_7 O 0.20987(14) 0.0191(2) 0.81377(17)
C3_7 C 0.2870(2) 0.0350(3) 0.8178(3)
C4_7 C 0.3089(2) 0.0541(5) 0.9010(3)
H1_7 H 0.3591 0.0681 0.9207
C5_7 C 0.2417(2) 0.0492(4) 0.9526(3)
O4_4 O 0.40340(17) 0.0335(2) 0.7462(2)
O5_4 O 0.3003(2) 0.0219(2) 0.6639(2)
C6_7 C 0.3316(2) 0.0290(3) 0.7358(3)
H3_7 H 0.0269 0.1662 0.8188
H4_7 H 0.0130 0.3340 0.8176
H8_7 H 0.0052 0.4801 0.8789
C15_5 C 0.0140(3) 0.6697(4) 0.8948(4)
H9_5 H 0.0619 0.6384 0.9030
C17_5 C 0.0100(3) 0.7693(4) 0.8949(4)
H11_5 H 0.0559 0.8051 0.9032
N1_7 N 0.9305(2) 0.1333(3) 0.8800(2)
C7_7 C 0.9825(3) 0.1939(3) 0.8444(3)
C8_7 C 0.9745(3) 0.2944(3) 0.8433(3)
C9_7 C 0.9103(3) 0.3371(3) 0.8797(3)
C10_7 C 0.8561(3) 0.2750(3) 0.9160(4)
H5_7 H 0.8108 0.3009 0.9412
C11_7 C 0.8686(3) 0.1749(3) 0.9151(4)
H6_7 H 0.8312 0.1337 0.9408
C12_7 C 0.8982(3) 0.4436(3) 0.8817(3)
H7_7 H 0.8474 0.4678 0.8835
C13_7 C 0.9550(3) 0.5065(3) 0.8809(3)
C14_7 C 0.9486(3) 0.6135(3) 0.8829(3)
C16_7 C 0.8814(3) 0.6649(4) 0.8728(4)
H10_7 H 0.8345 0.6307 0.8660
N2_4 N 0.9452(2) 0.8192(3) 0.8841(2)
C18_7 C 0.8821(3) 0.7656(4) 0.8726(4)
H12_7 H 0.8351 0.7988 0.8639
O7_4 O 0.90340(17) 0.9665(2) 0.7538(2)
O8_4 O 0.8003(2) 0.9781(2) 0.8361(2)
O1_6 O 0.55799(15) 0.0133(2) 0.6428(2)
N3_4 N 0.4452(2) 0.1808(3) 0.6159(2)
C1_8 C 0.6023(2) 0.9871(3) 0.5830(3)
C2_8 C 0.6832(2) 0.9707(3) 0.6022(3)
O2_8 O 0.70987(14) 0.9809(2) 0.68623(17)
C3_8 C 0.7870(2) 0.9650(3) 0.6822(3)
C4_8 C 0.8089(2) 0.9459(5) 0.5990(3)
H1_8 H 0.8591 0.9319 0.5793
C5_8 C 0.7417(2) 0.9508(4) 0.5474(3)
H2_8 H 0.7384 0.9419 0.4859
C6_8 C 0.8316(2) 0.9710(3) 0.7642(3)
N1_8 N 0.4305(2) 0.8667(3) 0.6200(2)
C7_8 C 0.4825(3) 0.8061(3) 0.6556(3)
H3_8 H 0.5269 0.8338 0.6812
C8_8 C 0.4745(3) 0.7056(3) 0.6567(3)
H4_8 H 0.5130 0.6660 0.6824
C9_8 C 0.4103(3) 0.6629(3) 0.6203(3)
C10_8 C 0.3561(3) 0.7250(3) 0.5840(4)
H5_8 H 0.3108 0.6991 0.5588
C11_8 C 0.3686(3) 0.8251(3) 0.5849(4)
H6_8 H 0.3312 0.8663 0.5592
C12_8 C 0.3982(3) 0.5564(3) 0.6183(3)
H7_8 H 0.3474 0.5322 0.6165
C13_8 C 0.4550(3) 0.4935(3) 0.6191(3)
H8_8 H 0.5052 0.5199 0.6211
C14_8 C 0.4486(3) 0.3865(3) 0.6171(3)
C15_6 C 0.5140(3) 0.3303(4) 0.6052(4)
H9_6 H 0.5619 0.3616 0.5970
C16_8 C 0.3814(3) 0.3351(4) 0.6272(4)
H10_8 H 0.3345 0.3693 0.6340
C17_6 C 0.5100(3) 0.2307(4) 0.6051(4)
H11_6 H 0.5559 0.1949 0.5968
C18_8 C 0.3821(3) 0.2344(4) 0.6274(4)
H12_8 H 0.3351 0.2012 0.6361
O1_7 O 0.94201(15) 0.0133(2) 0.1428(2)
C15_7 C 0.0140(3) 0.8303(4) 0.3948(4)
H9_7 H 0.0619 0.8616 0.4030
C17_7 C 0.0100(3) 0.7307(4) 0.3949(4)
H11_7 H 0.0559 0.6949 0.4032
O1_8 O 0.05799(15) 0.9867(2) 0.8572(2)
C15_8 C 0.9860(3) 0.1697(4) 0.6052(4)
H9_8 H 0.9381 0.1384 0.5970
C17_8 C 0.9900(3) 0.2693(4) 0.6051(4)
H11_8 H 0.9441 0.3051 0.5968
loop_
_geom_bond_atom_site_label_1
_geom_bond_atom_site_label_2
_geom_bond_site_symmetry_1
_geom_bond_site_symmetry_2
C14 C13 1_555 1_555
C15 C14 1_555 1_555
H9 C15 1_555 1_555
C16 C14 1_555 1_555
H10 C16 1_555 1_555
N2 C17 1_555 1_555
C17 C15 1_555 1_555
H11 C17 1_555 1_555
C18 C16 1_555 1_555
H12 C18 1_555 1_555
Co2 N2 1_555 1_555
N2 C18 1_555 1_555
Co2 O1 1_555 1_555
O1 C1 1_555 1_555
C1 C2 1_555 1_555
C2 O2 1_555 1_555
O2 C3 1_555 1_555
C3 C4 1_555 1_555
C4 H1 1_555 1_555
C5 C2 1_555 1_555
O3 C1 1_555 1_555
O4 C6 1_555 1_555
O5 C6 1_555 1_555
C6 C3 1_555 1_555
N1 Co2 1_555 1_555
C7 N1 1_555 1_555
H3 C7 1_555 1_555
C8 C7 1_555 1_555
H4 C8 1_555 1_555
C9 C8 1_555 1_555
C10 C9 1_555 1_555
H5 C10 1_555 1_555
C11 N1 1_555 1_555
H6 C11 1_555 1_555
C12 C9 1_555 1_555
H7 C12 1_555 1_555
Co3 O4 1_555 1_555
O7 Co2 1_555 1_555
O8 Co2 1_555 1_555
C4 C5 1_555 1_555
O5 Co3 1_555 1_555
C10 C11 1_555 1_555
O1_2 C1_2 1_555 1_555
C1_2 C2_2 1_555 1_555
C2_2 O2_2 1_555 1_555
O2_2 C3_2 1_555 1_555
C3_2 C4_2 1_555 1_555
C4_2 H1_2 1_555 1_555
C5_2 C2_2 1_555 1_555
H2_2 C5_2 1_555 1_555
O3_2 C1_2 1_555 1_555
O7 C6_2 1_555 1_555
O8 C6_2 1_555 1_555
C6_2 C3_2 1_555 1_555
Co4_2 O3_2 1_555 1_555
C4_2 C5_2 1_555 1_555
N1_2 Co3 1_555 1_555
C7_2 N1_2 1_555 1_555
C8_2 C7_2 1_555 1_555
C9_2 C8_2 1_555 1_555
C10_2 C9_2 1_555 1_555
H5_2 C10_2 1_555 1_555
C11_2 N1_2 1_555 1_555
H6_2 C11_2 1_555 1_555
C12_2 C9_2 1_555 1_555
H7_2 C12_2 1_555 1_555
O6_2 Co3 1_555 1_555
N3 Co3 1_555 1_555
C10_2 C11_2 1_555 1_555
C14_2 C13_2 1_555 1_555
C16_2 C14_2 1_555 1_555
H10_2 C16_2 1_555 1_555
C18_2 C16_2 1_555 1_555
H12_2 C18_2 1_555 1_555
N3 C18_2 1_555 1_555
Co4 O1_3 1_555 1_555
O1_3 C1_3 1_555 1_555
C1_3 C2_3 1_555 1_555
C2_3 O2_3 1_555 1_555
O2_3 C3_3 1_555 1_555
C3_3 C4_3 1_555 1_555
C4_3 H1_3 1_555 1_555
C5_3 C2_3 1_555 1_555
O6 C1_3 1_555 1_555
O4_2 C6_3 1_555 1_555
O5_2 C6_3 1_555 1_555
C6_3 C3_3 1_555 1_555
N1_3 Co4 1_555 1_555
C7_3 N1_3 1_555 1_555
H3_3 C7_3 1_555 1_555
C8_3 C7_3 1_555 1_555
H4_3 C8_3 1_555 1_555
C9_3 C8_3 1_555 1_555
C10_3 C9_3 1_555 1_555
H5_3 C10_3 1_555 1_555
C11_3 N1_3 1_555 1_555
H6_3 C11_3 1_555 1_555
C12_3 C9_3 1_555 1_555
H7_3 C12_3 1_555 1_555
Co4_2 O4_2 1_555 1_555
O7_2 Co4 1_555 1_555
O8_2 Co4 1_555 1_555
N3_2 Co4 1_555 1_555
C4_3 C5_3 1_555 1_555
O5_2 Co4_2 1_555 1_555
C10_3 C11_3 1_555 1_555
C14_3 C13_3 1_555 1_555
C15_2 C14_3 1_555 1_555
H9_2 C15_2 1_555 1_555
C16_3 C14_3 1_555 1_555
H10_3 C16_3 1_555 1_555
N3_2 C17_2 1_555 1_555
C17_2 C15_2 1_555 1_555
H11_2 C17_2 1_555 1_555
C18_3 C16_3 1_555 1_555
H12_3 C18_3 1_555 1_555
N3_2 C18_3 1_555 1_555
C14_4 C13_4 1_555 1_555
C16_4 C14_4 1_555 1_555
H10_4 C16_4 1_555 1_555
C18_4 C16_4 1_555 1_555
H12_4 C18_4 1_555 1_555
Co4_2 N2_2 1_555 1_555
N2_2 C18_4 1_555 1_555
N1_4 Co4_2 1_555 1_555
C7_4 N1_4 1_555 1_555
C8_4 C7_4 1_555 1_555
C9_4 C8_4 1_555 1_555
C10_4 C9_4 1_555 1_555
H5_4 C10_4 1_555 1_555
C11_4 N1_4 1_555 1_555
H6_4 C11_4 1_555 1_555
C12_4 C9_4 1_555 1_555
H7_4 C12_4 1_555 1_555
C10_4 C11_4 1_555 1_555
O1_4 C1_4 1_555 1_555
C1_4 C2_4 1_555 1_555
C2_4 O2_4 1_555 1_555
O2_4 C3_4 1_555 1_555
C3_4 C4_4 1_555 1_555
C4_4 H1_4 1_555 1_555
C5_4 C2_4 1_555 1_555
H2_4 C5_4 1_555 1_555
O6_2 C1_4 1_555 1_555
O7_2 C6_4 1_555 1_555
O8_2 C6_4 1_555 1_555
C6_4 C3_4 1_555 1_555
C4_4 C5_4 1_555 1_555
O7_3 Co1 1_555 1_555
O8_3 Co1 1_555 1_555
N3_3 Co1 1_555 1_555
C7_5 N1_5 1_555 1_555
C8_5 C7_5 1_555 1_555
C9_5 C8_5 1_555 1_555
C10_5 C9_5 1_555 1_555
H5_5 C10_5 1_555 1_555
C11_5 N1_5 1_555 1_555
H6_5 C11_5 1_555 1_555
C12_5 C9_5 1_555 1_555
H7_5 C12_5 1_555 1_555
C13_5 C12_5 1_555 1_555
C14_5 C13_5 1_555 1_555
C16_5 C14_5 1_555 1_555
H10_5 C16_5 1_555 1_555
C18_5 C16_5 1_555 1_555
H12_5 C18_5 1_555 1_555
C10_5 C11_5 1_555 1_555
N3_3 C18_5 1_555 1_555
C1_5 C2_5 1_555 1_555
C2_5 O2_5 1_555 1_555
O2_5 C3_5 1_555 1_555
C3_5 C4_5 1_555 1_555
C4_5 H1_5 1_555 1_555
C5_5 C2_5 1_555 1_555
O3_3 C1_5 1_555 1_555
O4_3 C6_5 1_555 1_555
O5_3 C6_5 1_555 1_555
C6_5 C3_5 1_555 1_555
H9_3 C15_3 1_555 1_555
C17_3 C15_3 1_555 1_555
H11_3 C17_3 1_555 1_555
Co3_2 O4_3 1_555 1_555
C4_5 C5_5 1_555 1_555
O5_3 Co3_2 1_555 1_555
C1_6 C2_6 1_555 1_555
C2_6 O2_6 1_555 1_555
O2_6 C3_6 1_555 1_555
C3_6 C4_6 1_555 1_555
C4_6 H1_6 1_555 1_555
C5_6 C2_6 1_555 1_555
H2_6 C5_6 1_555 1_555
O3_4 C1_6 1_555 1_555
O7_3 C6_6 1_555 1_555
O8_3 C6_6 1_555 1_555
C6_6 C3_6 1_555 1_555
C7_6 N1_6 1_555 1_555
H3_6 C7_6 1_555 1_555
C8_6 C7_6 1_555 1_555
H4_6 C8_6 1_555 1_555
C9_6 C8_6 1_555 1_555
C10_6 C9_6 1_555 1_555
H5_6 C10_6 1_555 1_555
C11_6 N1_6 1_555 1_555
H6_6 C11_6 1_555 1_555
C12_6 C9_6 1_555 1_555
H7_6 C12_6 1_555 1_555
C13_6 C12_6 1_555 1_555
H8_6 C13_6 1_555 1_555
C14_6 C13_6 1_555 1_555
C15_4 C14_6 1_555 1_555
H9_4 C15_4 1_555 1_555
C16_6 C14_6 1_555 1_555
H10_6 C16_6 1_555 1_555
N2_3 C17_4 1_555 1_555
C17_4 C15_4 1_555 1_555
H11_4 C17_4 1_555 1_555
C18_6 C16_6 1_555 1_555
H12_6 C18_6 1_555 1_555
Co3_2 N2_3 1_555 1_555
Co4_4 O3_4 1_555 1_555
C4_6 C5_6 1_555 1_555
C10_6 C11_6 1_555 1_555
N2_3 C18_6 1_555 1_555
Co3_2 O1_5 1_555 1_555
O6_4 Co3_2 1_555 1_555
C1_7 C2_7 1_555 1_555
C2_7 O2_7 1_555 1_555
O2_7 C3_7 1_555 1_555
C3_7 C4_7 1_555 1_555
C4_7 H1_7 1_555 1_555
C5_7 C2_7 1_555 1_555
O6_3 C1_7 1_555 1_555
O4_4 C6_7 1_555 1_555
O5_4 C6_7 1_555 1_555
C6_7 C3_7 1_555 1_555
H9_5 C15_5 1_555 1_555
C17_5 C15_5 1_555 1_555
H11_5 C17_5 1_555 1_555
Co4_4 O4_4 1_555 1_555
C4_7 C5_7 1_555 1_555
O5_4 Co4_4 1_555 1_555
C7_7 N1_7 1_555 1_555
C8_7 C7_7 1_555 1_555
C9_7 C8_7 1_555 1_555
C10_7 C9_7 1_555 1_555
H5_7 C10_7 1_555 1_555
C11_7 N1_7 1_555 1_555
H6_7 C11_7 1_555 1_555
C12_7 C9_7 1_555 1_555
H7_7 C12_7 1_555 1_555
C13_7 C12_7 1_555 1_555
C14_7 C13_7 1_555 1_555
C16_7 C14_7 1_555 1_555
H10_7 C16_7 1_555 1_555
C18_7 C16_7 1_555 1_555
H12_7 C18_7 1_555 1_555
Co4_3 N2_4 1_555 1_555
C10_7 C11_7 1_555 1_555
N2_4 C18_7 1_555 1_555
O7_4 Co4_3 1_555 1_555
O8_4 Co4_3 1_555 1_555
Co4_4 O1_6 1_555 1_555
N3_4 Co4_4 1_555 1_555
C1_8 C2_8 1_555 1_555
C2_8 O2_8 1_555 1_555
O2_8 C3_8 1_555 1_555
C3_8 C4_8 1_555 1_555
C4_8 H1_8 1_555 1_555
C5_8 C2_8 1_555 1_555
H2_8 C5_8 1_555 1_555
O6_4 C1_8 1_555 1_555
O7_4 C6_8 1_555 1_555
O8_4 C6_8 1_555 1_555
C6_8 C3_8 1_555 1_555
C7_8 N1_8 1_555 1_555
H3_8 C7_8 1_555 1_555
C8_8 C7_8 1_555 1_555
H4_8 C8_8 1_555 1_555
C9_8 C8_8 1_555 1_555
C10_8 C9_8 1_555 1_555
H5_8 C10_8 1_555 1_555
C11_8 N1_8 1_555 1_555
H6_8 C11_8 1_555 1_555
C12_8 C9_8 1_555 1_555
H7_8 C12_8 1_555 1_555
C13_8 C12_8 1_555 1_555
H8_8 C13_8 1_555 1_555
C14_8 C13_8 1_555 1_555
C15_6 C14_8 1_555 1_555
H9_6 C15_6 1_555 1_555
C16_8 C14_8 1_555 1_555
H10_8 C16_8 1_555 1_555
N3_4 C17_6 1_555 1_555
C17_6 C15_6 1_555 1_555
H11_6 C17_6 1_555 1_555
C18_8 C16_8 1_555 1_555
H12_8 C18_8 1_555 1_555
C4_8 C5_8 1_555 1_555
C10_8 C11_8 1_555 1_555
N3_4 C18_8 1_555 1_555
H9_7 C15_7 1_555 1_555
C17_7 C15_7 1_555 1_555
H11_7 C17_7 1_555 1_555
H9_8 C15_8 1_555 1_555
C17_8 C15_8 1_555 1_555
H11_8 C17_8 1_555 1_555

#END
