
###############################################################################
#
# This file contains modified crystal structure data generated from the
# MOF subset of the Cambridge Structural Database (CSD) v543 
# hosted by the Cambridge Crystallographic Data Centre (CCDC).
#
# This work is licensed under the Creative Commons
# Attribution-NonCommercial-ShareAlike 4.0 International License.
# To view a copy of this license, visit
# http://creativecommons.org/licenses/by-nc-sa/4.0/
# or send a letter to
# Creative Commons, PO Box 1866, Mountain View, CA 94042, USA.
#
# CIF created using the CSD Python API on 29 September 2022
# The structure has been converted into the P1 space group
# The structure has a 3D framework
# The original CSD entry XEWCUA is in the trigonal crystal system
# The framework has been calculated to contain at least 10.0% void space
# The void calculation uses a probe of radius 1.32A, grid spacing 0.4
# H atom positions have been added when not included in the experimental data
#
###############################################################################

data_XEWCUA
_chemical_formula_moiety         '(C30 H24 Al15 O30)n'
_symmetry_cell_setting           triclinic
_symmetry_space_group_name_H-M   'P 1'
_symmetry_Int_Tables_number      1
_space_group_name_Hall           'P 1'
loop_
_symmetry_equiv_pos_site_id
_symmetry_equiv_pos_as_xyz
1 x,y,z
_cell_length_a                   16.89124(73)
_cell_length_b                   16.89124(73)
_cell_length_c                   6.6697(20)
_cell_angle_alpha                90
_cell_angle_beta                 90
_cell_angle_gamma                120
_cell_volume                     1648.01
loop_
_atom_site_label
_atom_site_type_symbol
_atom_site_fract_x
_atom_site_fract_y
_atom_site_fract_z
_atom_site_U_iso_or_equiv
_atom_site_thermal_displace_type
Al4 Al 0.500 0.000 0.000 0.0101 Uiso
Al7 Al 0.500 0.000 0.500 0.0101 Uiso
Al4_2 Al 0.500 0.000 1.000 0.0101 Uiso
Al1 Al 0.500 0.500 0.000 0.0101 Uiso
Al2 Al 0.500 0.500 0.500 0.0101 Uiso
O1 O 0.53875(54) 0.48711(70) 0.24864(68) 0.0101 Uiso
O2 O 0.51340(56) 0.61480(34) 0.41576(65) 0.0101 Uiso
O3 O 0.52411(60) 0.62040(34) 0.06151(61) 0.0101 Uiso
O4 O 0.55552(47) 0.93128(57) 0.09299(68) 0.0101 Uiso
O5 O 0.55132(53) 0.93050(62) 0.40665(73) 0.0101 Uiso
C1 C 0.55306(53) 0.89294(59) 0.25110(54) 0.0101 Uiso
C2 C 0.52334(66) 0.64192(57) 0.23894(47) 0.0101 Uiso
C3 C 0.51272(63) 0.72671(79) 0.2329(22) 0.0101 Uiso
C4 C 0.57233(50) 0.81438(59) 0.2199(19) 0.0101 Uiso
C5 C 0.67098(55) 0.8466(12) 0.2361(17) 0.0101 Uiso
Al4_3 Al 0.500 1.000 0.000 0.0101 Uiso
Al7_2 Al 0.500 1.000 0.500 0.0101 Uiso
O11 O 0.46125(54) 0.51289(70) 0.75136(68) 0.0101 Uiso
O12 O 0.48660(56) 0.38520(34) 0.58424(65) 0.0101 Uiso
O13 O 0.37576(74) 0.44448(47) 0.09299(68) 0.0101 Uiso
O15 O 0.37918(82) 0.44868(53) 0.40665(73) 0.0101 Uiso
O16 O 0.62082(82) 0.55132(53) 0.59335(73) 0.0101 Uiso
H4 H 0.442034 0.711345 0.240943 . .
H5 H 0.69521 0.87566 0.384401 . .
H6 H 0.682559 0.789343 0.213282 . .
H7 H 0.707971 0.898573 0.122572 . .
Al1_2 Al 0.500 0.500 1.000 0.0101 Uiso
O8 O 0.47589(60) 0.37960(34) 0.93849(61) 0.0101 Uiso
O9 O 0.44448(47) 0.06872(57) 0.90701(68) 0.0101 Uiso
O10 O 0.44868(53) 0.06950(62) 0.59335(73) 0.0101 Uiso
C6 C 0.44694(53) 0.10706(59) 0.74890(54) 0.0101 Uiso
C7 C 0.47666(66) 0.35808(57) 0.76106(47) 0.0101 Uiso
C8 C 0.48728(63) 0.27329(79) 0.7671(22) 0.0101 Uiso
C9 C 0.42767(50) 0.18562(59) 0.7801(19) 0.0101 Uiso
C10 C 0.32902(55) 0.1534(12) 0.7639(17) 0.0101 Uiso
Al4_4 Al 0.500 1.000 1.000 0.0101 Uiso
O14 O 0.62424(74) 0.55552(47) 0.90701(68) 0.0101 Uiso
H1 H 0.292029 0.101427 0.877428 . .
H2 H 0.317441 0.210657 0.786718 . .
H3 H 0.30479 0.12434 0.615599 . .
H8 H 0.557966 0.288655 0.759057 . .
Al1_3 Al 0.000 0.500 0.000 0.0101 Uiso
Al2_2 Al -0.000 0.500 0.500 0.0101 Uiso
O2_2 O 0.10140(66) 0.48660(56) 0.41576(65) 0.0101 Uiso
O3_2 O 0.09629(69) 0.47589(60) 0.06151(61) 0.0101 Uiso
C1_2 C 0.33988(79) 0.44694(53) 0.25110(54) 0.0101 Uiso
C2_2 C 0.11858(87) 0.47666(66) 0.23894(47) 0.0101 Uiso
C3_2 C 0.2140(10) 0.48728(63) 0.2329(22) 0.0101 Uiso
C4_2 C 0.24205(77) 0.42767(50) 0.2199(19) 0.0101 Uiso
C5_2 C 0.1756(13) 0.32902(55) 0.2361(17) 0.0101 Uiso
O11_2 O 0.05164(88) 0.53875(54) 0.75136(68) 0.0101 Uiso
O13_2 O 0.06872(88) 0.62424(74) 0.09299(68) 0.0101 Uiso
O15_2 O 0.06950(98) 0.62082(82) 0.40665(73) 0.0101 Uiso
H4_2 H 0.269311 0.557966 0.240943 . .
H5_2 H 0.18045 0.30479 0.384401 . .
H6_2 H 0.106784 0.317441 0.213282 . .
H7_2 H 0.190602 0.292029 0.122572 . .
Al1_4 Al -0.000 0.500 1.000 0.0101 Uiso
Al1_5 Al 1.000 0.500 0.000 0.0101 Uiso
Al2_3 Al 1.000 0.500 0.500 0.0101 Uiso
O1_2 O 0.94836(88) 0.46125(54) 0.24864(68) 0.0101 Uiso
O12_2 O 0.89860(66) 0.51340(56) 0.58424(65) 0.0101 Uiso
O16_2 O 0.93050(98) 0.37918(82) 0.59335(73) 0.0101 Uiso
Al1_6 Al 1.000 0.500 1.000 0.0101 Uiso
O8_2 O 0.90371(69) 0.52411(60) 0.93849(61) 0.0101 Uiso
C6_2 C 0.66012(79) 0.55306(53) 0.74890(54) 0.0101 Uiso
C7_2 C 0.88142(87) 0.52334(66) 0.76106(47) 0.0101 Uiso
C8_2 C 0.7860(10) 0.51272(63) 0.7671(22) 0.0101 Uiso
C9_2 C 0.75795(77) 0.57233(50) 0.7801(19) 0.0101 Uiso
C10_2 C 0.8244(13) 0.67098(55) 0.7639(17) 0.0101 Uiso
O14_2 O 0.93128(88) 0.37576(74) 0.90701(68) 0.0101 Uiso
H1_2 H 0.809398 0.707971 0.877428 . .
H2_2 H 0.893216 0.682559 0.786718 . .
H3_2 H 0.81955 0.69521 0.615599 . .
H8_2 H 0.730689 0.442034 0.759057 . .
O1_3 O 0.51289(70) 0.05164(88) 0.24864(68) 0.0101 Uiso
O12_3 O 0.61480(34) 0.10140(66) 0.58424(65) 0.0101 Uiso
O8_3 O 0.62040(34) 0.09629(69) 0.93849(61) 0.0101 Uiso
C6_3 C 0.89294(59) 0.33988(79) 0.74890(54) 0.0101 Uiso
C7_3 C 0.64192(57) 0.11858(87) 0.76106(47) 0.0101 Uiso
C8_3 C 0.72671(79) 0.2140(10) 0.7671(22) 0.0101 Uiso
C9_3 C 0.81438(59) 0.24205(77) 0.7801(19) 0.0101 Uiso
C10_3 C 0.8466(12) 0.1756(13) 0.7639(17) 0.0101 Uiso
H1_3 H 0.898573 0.190602 0.877428 . .
H2_3 H 0.789343 0.106784 0.786718 . .
H3_3 H 0.87566 0.18045 0.615599 . .
H8_3 H 0.711345 0.269311 0.759057 . .
O2_3 O 0.38520(34) 0.89860(66) 0.41576(65) 0.0101 Uiso
O3_3 O 0.37960(34) 0.90371(69) 0.06151(61) 0.0101 Uiso
C1_3 C 0.10706(59) 0.66012(79) 0.25110(54) 0.0101 Uiso
C2_3 C 0.35808(57) 0.88142(87) 0.23894(47) 0.0101 Uiso
C3_3 C 0.27329(79) 0.7860(10) 0.2329(22) 0.0101 Uiso
C4_3 C 0.18562(59) 0.75795(77) 0.2199(19) 0.0101 Uiso
C5_3 C 0.1534(12) 0.8244(13) 0.2361(17) 0.0101 Uiso
O11_3 O 0.48711(70) 0.94836(88) 0.75136(68) 0.0101 Uiso
H4_3 H 0.288655 0.730689 0.240943 . .
H5_3 H 0.12434 0.81955 0.384401 . .
H6_3 H 0.210657 0.893216 0.213282 . .
H7_3 H 0.101427 0.809398 0.122572 . .
loop_
_geom_bond_atom_site_label_1
_geom_bond_atom_site_label_2
_geom_bond_site_symmetry_1
_geom_bond_site_symmetry_2
Al1 O1 1_555 1_555
Al2 O1 1_555 1_555
O2 Al2 1_555 1_555
O3 Al1 1_555 1_555
O4 C1 1_555 1_555
O5 C1 1_555 1_555
C1 C4 1_555 1_555
C2 O2 1_555 1_555
C3 C2 1_555 1_555
C4 C3 1_555 1_555
C5 C4 1_555 1_555
Al4_3 O4 1_555 1_555
Al7_2 O5 1_555 1_555
O11 Al2 1_555 1_555
O12 Al2 1_555 1_555
O13 Al1 1_555 1_555
O15 Al2 1_555 1_555
O16 Al2 1_555 1_555
O3 C2 1_555 1_555
C3 H4 1_555 1_555
C5 H5 1_555 1_555
C5 H6 1_555 1_555
C5 H7 1_555 1_555
O11 Al1_2 1_555 1_555
O12 C7 1_555 1_555
O8 Al1_2 1_555 1_555
O9 C6 1_555 1_555
O10 C6 1_555 1_555
C6 C9 1_555 1_555
C7 O8 1_555 1_555
C8 C7 1_555 1_555
C9 C8 1_555 1_555
C10 C9 1_555 1_555
Al4_2 O9 1_555 1_555
Al7 O10 1_555 1_555
O14 Al1_2 1_555 1_555
C10 H1 1_555 1_555
C10 H2 1_555 1_555
C10 H3 1_555 1_555
C8 H8 1_555 1_555
O2_2 Al2_2 1_555 1_555
O3_2 Al1_3 1_555 1_555
O13 C1_2 1_555 1_555
O15 C1_2 1_555 1_555
C1_2 C4_2 1_555 1_555
C2_2 O2_2 1_555 1_555
C3_2 C2_2 1_555 1_555
C4_2 C3_2 1_555 1_555
C5_2 C4_2 1_555 1_555
O11_2 Al2_2 1_555 1_555
O13_2 Al1_3 1_555 1_555
O15_2 Al2_2 1_555 1_555
O3_2 C2_2 1_555 1_555
C3_2 H4_2 1_555 1_555
C5_2 H5_2 1_555 1_555
C5_2 H6_2 1_555 1_555
C5_2 H7_2 1_555 1_555
O11_2 Al1_4 1_555 1_555
Al1_5 O1_2 1_555 1_555
Al2_3 O1_2 1_555 1_555
O12_2 Al2_3 1_555 1_555
O16_2 Al2_3 1_555 1_555
O12_2 C7_2 1_555 1_555
O8_2 Al1_6 1_555 1_555
O14 C6_2 1_555 1_555
O16 C6_2 1_555 1_555
C6_2 C9_2 1_555 1_555
C7_2 O8_2 1_555 1_555
C8_2 C7_2 1_555 1_555
C9_2 C8_2 1_555 1_555
C10_2 C9_2 1_555 1_555
O14_2 Al1_6 1_555 1_555
C10_2 H1_2 1_555 1_555
C10_2 H2_2 1_555 1_555
C10_2 H3_2 1_555 1_555
C8_2 H8_2 1_555 1_555
Al4 O1_3 1_555 1_555
Al7 O1_3 1_555 1_555
O12_3 Al7 1_555 1_555
O12_3 C7_3 1_555 1_555
O8_3 Al4_2 1_555 1_555
O14_2 C6_3 1_555 1_555
O16_2 C6_3 1_555 1_555
C6_3 C9_3 1_555 1_555
C7_3 O8_3 1_555 1_555
C8_3 C7_3 1_555 1_555
C9_3 C8_3 1_555 1_555
C10_3 C9_3 1_555 1_555
C10_3 H1_3 1_555 1_555
C10_3 H2_3 1_555 1_555
C10_3 H3_3 1_555 1_555
C8_3 H8_3 1_555 1_555
O2_3 Al7_2 1_555 1_555
O3_3 Al4_3 1_555 1_555
O13_2 C1_3 1_555 1_555
O15_2 C1_3 1_555 1_555
C1_3 C4_3 1_555 1_555
C2_3 O2_3 1_555 1_555
C3_3 C2_3 1_555 1_555
C4_3 C3_3 1_555 1_555
C5_3 C4_3 1_555 1_555
O11_3 Al7_2 1_555 1_555
O3_3 C2_3 1_555 1_555
C3_3 H4_3 1_555 1_555
C5_3 H5_3 1_555 1_555
C5_3 H6_3 1_555 1_555
C5_3 H7_3 1_555 1_555
O11_3 Al4_4 1_555 1_555

#END
