
###############################################################################
#
# This file contains modified crystal structure data generated from the
# MOF subset of the Cambridge Structural Database (CSD) v543 
# hosted by the Cambridge Crystallographic Data Centre (CCDC).
#
# This work is licensed under the Creative Commons
# Attribution-NonCommercial-ShareAlike 4.0 International License.
# To view a copy of this license, visit
# http://creativecommons.org/licenses/by-nc-sa/4.0/
# or send a letter to
# Creative Commons, PO Box 1866, Mountain View, CA 94042, USA.
#
# CIF created using the CSD Python API on 29 September 2022
# The structure has been converted into the P1 space group
# The structure has a 3D framework
# The original CSD entry XEWFAI is in the triclinic crystal system
# The framework has been calculated to contain at least 10.0% void space
# The void calculation uses a probe of radius 1.32A, grid spacing 0.4
# H atom positions have been added when not included in the experimental data
# Generated hydrogen atom positions removed from atoms on special positions
#
###############################################################################

data_XEWFAI
_chemical_formula_moiety         '(C54 H100 Eu2 N12 O28 Zn10)n'
_symmetry_cell_setting           triclinic
_symmetry_space_group_name_H-M   'P 1'
_symmetry_Int_Tables_number      1
_space_group_name_Hall           'P 1'
loop_
_symmetry_equiv_pos_site_id
_symmetry_equiv_pos_as_xyz
1 x,y,z
_cell_length_a                   8.619(2)
_cell_length_b                   17.818(6)
_cell_length_c                   18.385(6)
_cell_angle_alpha                95.672(14)
_cell_angle_beta                 102.223(10)
_cell_angle_gamma                101.053(10)
_cell_volume                     2679.49
loop_
_atom_site_label
_atom_site_type_symbol
_atom_site_fract_x
_atom_site_fract_y
_atom_site_fract_z
Eu7 Eu 0.05711(2) 0.773577(10) 0.143177(11)
Zn1 Zn 0.5000 0.5000 0.0000
Zn3 Zn 0.5000 0.0000 0.0000
N6 N 0.6776(4) 0.08906(18) 0.07466(19)
C6 C 0.7835(5) 0.4331(2) 0.0258(3)
H9 H 0.8576 0.4822 0.0473
H10 H 0.8476 0.3959 0.0154
C21 C 0.3264(5) 0.1309(2) 0.0180(2)
H31 H 0.2730 0.0989 0.0492
C22 C 0.4857(6) 0.1817(2) 0.0674(3)
H33 H 0.5442 0.2087 0.0346
H34 H 0.4576 0.2206 0.1000
C23 C 0.6019(6) 0.1428(2) 0.1165(2)
H35 H 0.6882 0.1826 0.1492
H36 H 0.5436 0.1141 0.1482
C24 C 0.7686(5) 0.0461(2) 0.1287(2)
H37 H 0.7040 0.0293 0.1638
H38 H 0.8694 0.0801 0.1573
C25 C 0.7871(5) 0.1299(2) 0.0330(2)
H39 H 0.8983 0.1370 0.0618
H40 H 0.7644 0.1808 0.0288
O15 O 0.8742(4) 0.65337(16) 0.15140(17)
O16 O 0.6935(3) 0.59752(15) 0.04496(17)
O17 O 0.2608(4) 0.73786(16) 0.07302(17)
O18 O 0.2018(4) 0.66506(18) 0.1559(2)
N7 N 0.5962(4) 0.46503(18) 0.1037(2)
N8 N 0.3275(4) 0.55805(19) 0.0462(2)
C28 C 0.7649(5) 0.5997(2) 0.1137(2)
C29 C 0.7116(5) 0.5321(2) 0.1535(2)
H43 H 0.6610 0.5498 0.1924
H44 H 0.8073 0.5152 0.1780
C30 C 0.4658(6) 0.4301(3) 0.1392(3)
H45 H 0.4017 0.3833 0.1068
H46 H 0.5161 0.4151 0.1864
C31 C 0.3517(6) 0.4817(3) 0.1548(3)
H47 H 0.4175 0.5292 0.1854
H48 H 0.2837 0.4563 0.1849
C32 C 0.2423(6) 0.5033(3) 0.0891(3)
H49 H 0.1619 0.5264 0.1071
H50 H 0.1847 0.4565 0.0550
C34 C 0.6857(6) 0.4059(2) 0.0819(3)
H53 H 0.7585 0.3965 0.1264
H54 H 0.6088 0.3577 0.0597
C35 C 0.4028(5) 0.6354(2) 0.0914(3)
H55 H 0.4705 0.6285 0.1386
H56 H 0.4731 0.6647 0.0645
C36 C 0.2810(5) 0.6821(2) 0.1086(3)
H91 H 0.0579578 0.250039 0.0225116
Zn1_2 Zn 0.5000 0.5000 1.0000
Zn2 Zn 0.0000 0.0000 0.5000
Zn3_2 Zn 0.5000 0.0000 1.0000
O2 O 0.0865(4) 0.28591(18) 0.98698(18)
O3 O 0.1258(4) 0.34663(16) 0.84860(17)
O4 O 0.3065(3) 0.40248(15) 0.95504(17)
O5 O 0.7392(4) 0.26214(16) 0.92698(17)
O6 O 0.7982(4) 0.33494(18) 0.8441(2)
O9 O 0.0911(7) 0.2230(3) 0.4590(3)
O11 O 0.1957(3) 0.19243(17) 0.87752(17)
O12 O 0.3801(4) 0.20739(17) 0.80824(17)
O13 O 0.8713(4) 0.11925(16) 0.91848(18)
O14 O 0.6657(3) 0.02791(16) 0.92951(16)
N1 N 0.4038(4) 0.53497(18) 0.8963(2)
N2 N 0.6725(4) 0.44195(19) 0.9538(2)
N4 N 0.2433(5) 0.0585(2) 0.5193(2)
N5 N 0.3481(4) 0.07974(19) 0.9532(2)
C1 C 0.2351(5) 0.4003(2) 0.8863(2)
C2 C 0.2884(5) 0.4679(2) 0.8465(2)
H1 H 0.3390 0.4502 0.8076
H2 H 0.1927 0.4848 0.8220
C3 C 0.5342(6) 0.5699(3) 0.8608(3)
H3 H 0.5983 0.6167 0.8932
H4 H 0.4839 0.5849 0.8136
C4 C 0.6483(6) 0.5183(3) 0.8452(3)
H5 H 0.5825 0.4708 0.8146
H6 H 0.7163 0.5437 0.8151
C5 C 0.7577(6) 0.4967(3) 0.9109(3)
H7 H 0.8381 0.4736 0.8929
H8 H 0.8153 0.5435 0.9450
C7 C 0.3143(6) 0.5941(2) 0.9181(3)
H11 H 0.2415 0.6035 0.8736
H12 H 0.3912 0.6423 0.9403
C8 C 0.5972(5) 0.3646(2) 0.9086(3)
H13 H 0.5295 0.3715 0.8614
H14 H 0.5269 0.3353 0.9355
C9 C 0.7190(5) 0.3179(2) 0.8914(3)
H16 H 0.0615 0.1519 0.6233
C12 C 0.1227(6) 0.0234(3) 0.6705(3)
H18 H 0.1129 0.0356 0.7217
C13 C 0.2876(6) 0.0701(3) 0.6622(3)
H19 H 0.2814 0.1240 0.6638
H20 H 0.3710 0.0665 0.7056
C14 C 0.3427(6) 0.0459(3) 0.5915(3)
H21 H 0.4537 0.0740 0.5970
C15 C 0.2987(6) 0.0232(3) 0.4554(3)
H24 H 0.4013 0.0550 0.4523
C16 C 0.2513(7) 0.1414(3) 0.5156(3)
H25 H 0.3325 0.1603 0.4886
H26 H 0.2853 0.1696 0.5663
C17 C 0.0880(8) 0.1572(3) 0.4767(3)
C19 C 0.3187(5) 0.1792(2) 0.8579(2)
C20 C 0.4150(5) 0.1251(2) 0.8994(2)
H29 H 0.4346 0.0887 0.8613
H30 H 0.5203 0.1564 0.9263
H32 H 0.2552 0.1641 0.9988
C26 C 0.7730(5) 0.0890(2) 0.9549(2)
C27 C 0.1936(5) 0.0250(2) 0.9138(3)
H41 H 0.1286 0.0504 0.8785
H42 H 0.1318 0.0086 0.9500
C33 C 0.2165(5) 0.5669(2) 0.9742(3)
H51 H 0.1424 0.5178 0.9527
H52 H 0.1524 0.6041 0.9846
C45 C 0.1744(6) 0.0151(3) 0.3804(3)
H70 H 0.1525 0.0653 0.3716
Eu3 Eu 0.94289(2) 0.226423(10) 0.856823(11)
H92 H 0.205777 0.296406 0.991455
Zn3_3 Zn 0.5000 1.0000 0.0000
O23 O 0.8043(3) 0.80757(17) 0.12248(17)
O24 O 0.6199(4) 0.79261(17) 0.19176(17)
O25 O 0.1287(4) 0.88075(16) 0.08152(18)
O26 O 0.3343(3) 0.97209(16) 0.07049(16)
N11 N 0.6519(4) 0.92026(19) 0.0468(2)
C46 C 0.6813(5) 0.8208(2) 0.1421(2)
C47 C 0.5850(5) 0.8749(2) 0.1006(2)
H71 H 0.5654 0.9113 0.1387
H72 H 0.4797 0.8436 0.0737
H74 H 0.7448 0.8359 0.0012
C53 C 0.2270(5) 0.9110(2) 0.0451(2)
C54 C 0.8064(5) 0.9750(2) 0.0862(3)
H83 H 0.8714 0.9496 0.1215
H84 H 0.8682 0.9914 0.0500
Zn2_2 Zn 0.0000 1.0000 0.5000
Zn3_4 Zn 0.5000 1.0000 1.0000
H17 H 0.1215 0.9686 0.6617
H22 H 0.3440 0.9914 0.5886
H23 H 0.3171 0.9726 0.4646
O19 O 0.0398(4) 0.77795(17) 0.27493(17)
O20 O 0.0711(4) 0.89296(17) 0.23917(18)
O22 O 0.0409(4) 0.89413(19) 0.53343(19)
N9 N 0.0204(5) 0.9609(2) 0.3823(2)
C37 C 0.0490(5) 0.8494(3) 0.2876(3)
C38 C 0.0335(6) 0.8806(3) 0.3669(3)
H57 H 0.1275 0.8736 0.4031
H69 H 0.2178 0.9956 0.3396
N12 N 0.3224(4) 0.91094(18) 0.92534(19)
C48 C 0.6736(5) 0.8691(2) 0.9820(2)
H73 H 0.7270 0.9011 0.9508
C49 C 0.5143(6) 0.8183(2) 0.9326(3)
H75 H 0.4558 0.7913 0.9654
H76 H 0.5424 0.7794 0.9000
C50 C 0.3981(6) 0.8572(2) 0.8835(2)
H77 H 0.3118 0.8174 0.8508
H78 H 0.4564 0.8859 0.8518
C51 C 0.2314(5) 0.9539(2) 0.8713(2)
H79 H 0.2960 0.9707 0.8362
H80 H 0.1306 0.9199 0.8427
C52 C 0.2129(5) 0.8701(2) 0.9670(2)
H81 H 0.1017 0.8630 0.9382
H82 H 0.2356 0.8192 0.9712
O27 O 0.3406(4) 0.8248(2) 0.22379(19)
Zn2_3 Zn 1.0000 0.0000 0.5000
O1 O 0.6594(4) 0.1752(2) 0.77621(19)
O7 O 0.9602(4) 0.22205(17) 0.72507(17)
O8 O 0.9289(4) 0.10704(17) 0.76083(18)
O10 O 0.9591(4) 0.10587(19) 0.46657(19)
N3 N 0.9796(5) 0.0391(2) 0.6177(2)
C10 C 0.9510(5) 0.1506(3) 0.7124(3)
C11 C 0.9665(6) 0.1194(3) 0.6331(3)
H15 H 0.8725 0.1264 0.5969
H27 H 0.7822 0.0044 0.6604
H59 H 0.8785 0.0314 0.3383
H64 H 0.6560 0.0086 0.4114
H65 H 0.6829 0.0274 0.5354
Zn2_4 Zn 1.0000 1.0000 0.5000
C18 C 0.8256(6) 0.9849(3) 0.6196(3)
H28 H 0.8475 0.9347 0.6284
O21 O 0.9089(7) 0.7770(3) 0.5410(3)
N10 N 0.7567(5) 0.9415(2) 0.4807(2)
H58 H 0.9385 0.8481 0.3767
C39 C 0.8773(6) 0.9766(3) 0.3295(3)
H60 H 0.8871 0.9644 0.2783
C40 C 0.7124(6) 0.9299(3) 0.3378(3)
H61 H 0.7186 0.8760 0.3362
H62 H 0.6290 0.9335 0.2944
C41 C 0.6573(6) 0.9541(3) 0.4085(3)
H63 H 0.5463 0.9260 0.4030
C42 C 0.7013(6) 0.9768(3) 0.5446(3)
H66 H 0.5987 0.9450 0.5477
C43 C 0.7487(7) 0.8586(3) 0.4844(3)
H67 H 0.6675 0.8397 0.5114
H68 H 0.7147 0.8304 0.4337
C44 C 0.9120(8) 0.8428(3) 0.5233(3)
O28 O 0.9135(4) 0.71409(18) 0.01302(18)
H85 H 0.80543 0.727677 0.00042401
H85_2 H 0.19457 0.272323 0.999576
H92_2 H 0.794223 0.703594 0.0085452
H91_2 H 0.942042 0.749961 0.977488
H86 H 0.978635 0.733675 0.977585
H86_2 H 0.0213653 0.266325 0.0224154
loop_
_geom_bond_atom_site_label_1
_geom_bond_atom_site_label_2
_geom_bond_site_symmetry_1
_geom_bond_site_symmetry_2
N6 Zn3 1_555 1_555
H9 C6 1_555 1_555
H10 C6 1_555 1_555
H31 C21 1_555 1_555
C22 C21 1_555 1_555
H33 C22 1_555 1_555
H34 C22 1_555 1_555
C23 N6 1_555 1_555
H35 C23 1_555 1_555
H36 C23 1_555 1_555
C24 N6 1_555 1_555
H37 C24 1_555 1_555
H38 C24 1_555 1_555
C25 N6 1_555 1_555
H39 C25 1_555 1_555
H40 C25 1_555 1_555
O15 C28 1_555 1_555
O16 Zn1 1_555 1_555
O17 C36 1_555 1_555
O18 C36 1_555 1_555
N7 Zn1 1_555 1_555
N8 Zn1 1_555 1_555
C28 O16 1_555 1_555
C29 N7 1_555 1_555
H43 C29 1_555 1_555
H44 C29 1_555 1_555
C30 N7 1_555 1_555
H45 C30 1_555 1_555
H46 C30 1_555 1_555
C31 C30 1_555 1_555
H47 C31 1_555 1_555
H48 C31 1_555 1_555
C32 N8 1_555 1_555
H49 C32 1_555 1_555
H50 C32 1_555 1_555
C34 C6 1_555 1_555
H53 C34 1_555 1_555
H54 C34 1_555 1_555
C35 N8 1_555 1_555
H55 C35 1_555 1_555
H56 C35 1_555 1_555
C36 C35 1_555 1_555
Eu7 O17 1_555 1_555
C22 C23 1_555 1_555
O18 Eu7 1_555 1_555
N7 C34 1_555 1_555
C28 C29 1_555 1_555
C31 C32 1_555 1_555
Zn1_2 O4 1_555 1_555
Zn3_2 O14 1_555 1_555
O4 C1 1_555 1_555
O5 C9 1_555 1_555
O6 C9 1_555 1_555
O9 C17 1_555 1_555
O12 C19 1_555 1_555
O13 C26 1_555 1_555
O14 C26 1_555 1_555
N1 Zn1_2 1_555 1_555
N2 Zn1_2 1_555 1_555
N4 Zn2 1_555 1_555
N5 Zn3_2 1_555 1_555
C1 O3 1_555 1_555
C2 N1 1_555 1_555
H1 C2 1_555 1_555
H2 C2 1_555 1_555
C3 N1 1_555 1_555
H3 C3 1_555 1_555
H4 C3 1_555 1_555
C4 C3 1_555 1_555
H5 C4 1_555 1_555
H6 C4 1_555 1_555
C5 N2 1_555 1_555
H7 C5 1_555 1_555
H8 C5 1_555 1_555
C7 N1 1_555 1_555
H11 C7 1_555 1_555
H12 C7 1_555 1_555
C8 N2 1_555 1_555
H13 C8 1_555 1_555
H14 C8 1_555 1_555
C9 C8 1_555 1_555
H18 C12 1_555 1_555
C13 C12 1_555 1_555
H19 C13 1_555 1_555
H20 C13 1_555 1_555
C14 N4 1_555 1_555
H21 C14 1_555 1_555
C15 N4 1_555 1_555
H24 C15 1_555 1_555
C16 N4 1_555 1_555
H25 C16 1_555 1_555
H26 C16 1_555 1_555
C17 C16 1_555 1_555
C19 O11 1_555 1_555
C20 N5 1_555 1_555
H29 C20 1_555 1_555
H30 C20 1_555 1_555
C27 N5 1_555 1_555
H41 C27 1_555 1_555
H42 C27 1_555 1_555
C33 C7 1_555 1_555
H51 C33 1_555 1_555
H52 C33 1_555 1_555
C45 C15 1_555 1_555
H70 C45 1_555 1_555
Eu3 O5 1_555 1_555
O6 Eu3 1_555 1_555
O13 Eu3 1_555 1_555
C1 C2 1_555 1_555
C4 C5 1_555 1_555
C13 C14 1_555 1_555
C19 C20 1_555 1_555
O2 H92 1_555 1_555
O23 C46 1_555 1_555
O24 C46 1_555 1_555
O25 C53 1_555 1_555
O26 Zn3_3 1_555 1_555
N11 Zn3_3 1_555 1_555
C46 C47 1_555 1_555
C47 N11 1_555 1_555
H71 C47 1_555 1_555
H72 C47 1_555 1_555
C53 O26 1_555 1_555
H83 C54 1_555 1_555
H84 C54 1_555 1_555
Eu7 O25 1_555 1_555
N11 C54 1_555 1_555
O19 C37 1_555 1_555
O20 C37 1_555 1_555
O22 Zn2_2 1_555 1_555
N9 Zn2_2 1_555 1_555
C37 C38 1_555 1_555
C38 N9 1_555 1_555
H57 C38 1_555 1_555
N12 Zn3_4 1_555 1_555
H73 C48 1_555 1_555
C49 C48 1_555 1_555
H75 C49 1_555 1_555
H76 C49 1_555 1_555
C50 N12 1_555 1_555
H77 C50 1_555 1_555
H78 C50 1_555 1_555
H79 C51 1_555 1_555
H80 C51 1_555 1_555
C52 N12 1_555 1_555
H81 C52 1_555 1_555
H82 C52 1_555 1_555
Eu7 O19 1_555 1_555
O27 Eu7 1_555 1_555
O20 Eu7 1_555 1_555
N12 C51 1_555 1_555
C49 C50 1_555 1_555
Eu3 O1 1_555 1_555
Zn2_3 O10 1_555 1_555
O7 Eu3 1_555 1_555
O8 Eu3 1_555 1_555
N3 Zn2_3 1_555 1_555
C10 O7 1_555 1_555
C11 N3 1_555 1_555
H15 C11 1_555 1_555
O8 C10 1_555 1_555
C10 C11 1_555 1_555
H28 C18 1_555 1_555
O21 C44 1_555 1_555
N10 Zn2_4 1_555 1_555
H60 C39 1_555 1_555
C40 C39 1_555 1_555
H61 C40 1_555 1_555
H62 C40 1_555 1_555
C41 N10 1_555 1_555
H63 C41 1_555 1_555
C42 C18 1_555 1_555
H66 C42 1_555 1_555
C43 N10 1_555 1_555
H67 C43 1_555 1_555
H68 C43 1_555 1_555
N10 C42 1_555 1_555
C40 C41 1_555 1_555
C43 C44 1_555 1_555
O28 H85 1_555 1_555
O2 H85_2 1_555 1_555
O28 H92_2 1_555 1_555

#END
