
###############################################################################
#
# This file contains modified crystal structure data generated from the
# MOF subset of the Cambridge Structural Database (CSD) v543 
# hosted by the Cambridge Crystallographic Data Centre (CCDC).
#
# This work is licensed under the Creative Commons
# Attribution-NonCommercial-ShareAlike 4.0 International License.
# To view a copy of this license, visit
# http://creativecommons.org/licenses/by-nc-sa/4.0/
# or send a letter to
# Creative Commons, PO Box 1866, Mountain View, CA 94042, USA.
#
# CIF created using the CSD Python API on 29 September 2022
# The structure has been converted into the P1 space group
# The structure has a 3D framework
# The original CSD entry XEXLIX is in the monoclinic crystal system
# The framework has been calculated to contain at least 10.0% void space
# The void calculation uses a probe of radius 1.32A, grid spacing 0.4
#
###############################################################################

data_XEXLIX
_chemical_formula_moiety         '(C76 H32 N8 O22 Zn2)n'
_symmetry_cell_setting           triclinic
_symmetry_space_group_name_H-M   'P 1'
_symmetry_Int_Tables_number      1
_space_group_name_Hall           'P 1'
loop_
_symmetry_equiv_pos_site_id
_symmetry_equiv_pos_as_xyz
1 x,y,z
_cell_length_a                   5.6415(14)
_cell_length_b                   27.633(7)
_cell_length_c                   14.847(4)
_cell_angle_alpha                90
_cell_angle_beta                 100.149(4)
_cell_angle_gamma                90
_cell_volume                     2278.31
loop_
_atom_site_label
_atom_site_type_symbol
_atom_site_fract_x
_atom_site_fract_y
_atom_site_fract_z
Zn2 Zn 0.03925(10) 0.023721(18) 0.41077(4)
O9 O 0.2478(6) 0.05396(12) 0.5259(2)
N3 N 0.0762(8) 0.08022(14) 0.3265(3)
O1 O 0.2434(6) 0.96427(11) 0.3985(2)
O2 O 0.2377(6) 0.93907(12) 0.5426(2)
O3 O 0.7679(6) 0.98186(11) 0.3382(2)
O4 O 0.7522(6) 0.94604(12) 0.4741(2)
O5 O 0.7291(8) 0.73895(13) 0.1908(3)
O6 O 0.1610(7) 0.70401(13) 0.3647(3)
N1 N 0.4238(8) 0.58022(14) 0.1735(3)
C1 C 0.6221(9) 0.59740(18) 0.2269(4)
H1 H 0.7602 0.5772 0.2395
C2 C 0.6346(9) 0.64334(18) 0.2643(4)
H2 H 0.7773 0.6544 0.3026
C3 C 0.4349(10) 0.67270(18) 0.2448(4)
C4 C 0.2237(9) 0.65553(18) 0.1917(4)
H3 H 0.0833 0.6751 0.1794
C5 C 0.2247(9) 0.60871(17) 0.1571(4)
H4 H 0.0818 0.5963 0.1210
N2 N 0.4443(8) 0.72224(15) 0.2773(3)
C6 C 0.2931(9) 0.73448(18) 0.3399(4)
C7 C 0.3065(9) 0.78537(17) 0.3725(4)
C8 C 0.4592(9) 0.81932(17) 0.3394(3)
C9 C 0.6015(9) 0.80498(17) 0.2742(4)
C10 C 0.6037(10) 0.75370(18) 0.2433(4)
C11 C 0.1739(10) 0.79847(19) 0.4383(4)
H5 H 0.0792 0.7750 0.4626
C12 C 0.1793(10) 0.84634(18) 0.4691(4)
H6 H 0.0862 0.8551 0.5140
C13 C 0.3159(8) 0.88098(17) 0.4361(4)
C14 C 0.4699(8) 0.86808(16) 0.3716(3)
C15 C 0.6344(8) 0.90064(17) 0.3398(4)
C16 C 0.7612(10) 0.88570(18) 0.2728(4)
H7 H 0.8598 0.9083 0.2483
C17 C 0.7466(10) 0.83769(19) 0.2403(4)
H8 H 0.8369 0.8280 0.1951
C18 C 0.2708(8) 0.93292(17) 0.4613(4)
C19 C 0.7157(8) 0.94768(16) 0.3879(4)
Zn3 Zn 0.46075(10) 0.523721(18) 0.08923(4)
Zn5 Zn 0.96075(10) 0.976279(18) 0.58923(4)
O7 O 0.7623(6) 0.06093(12) 0.4574(2)
O1_2 O 0.2566(6) 0.46427(11) 0.1015(2)
O6_2 O 0.3390(7) 0.20401(13) 0.1353(3)
C3_2 C 0.0651(10) 0.17270(18) 0.2552(4)
C4_2 C 0.2763(9) 0.15553(18) 0.3083(4)
H3_2 H 0.4167 0.1751 0.3206
C5_2 C 0.2753(9) 0.10871(17) 0.3429(4)
H4_2 H 0.4182 0.0963 0.3790
N2_2 N 0.0557(8) 0.22224(15) 0.2227(3)
C6_2 C 0.2069(9) 0.23448(18) 0.1601(4)
C7_2 C 0.1935(9) 0.28537(17) 0.1275(4)
C8_2 C 0.0408(9) 0.31932(17) 0.1606(3)
C11_2 C 0.3261(10) 0.29847(19) 0.0617(4)
H5_2 H 0.4208 0.2750 0.0374
C12_2 C 0.3207(10) 0.34634(18) 0.0309(4)
C13_2 C 0.1841(8) 0.38098(17) 0.0639(4)
C14_2 C 0.0301(8) 0.36808(16) 0.1284(3)
C18_2 C 0.2292(8) 0.43292(17) 0.0387(4)
O7_2 O 0.7377(6) 0.56093(12) 0.0426(2)
O8 O 0.7321(6) 0.48186(11) 0.1618(2)
O2_2 O 0.2623(6) 0.43907(12) 0.9574(2)
H6_2 H 0.4138 0.3551 0.9860
Zn4 Zn 0.53925(10) 0.476279(18) 0.91077(4)
O9_2 O 0.2522(6) 0.55396(12) 0.9741(2)
O4_2 O 0.7478(6) 0.44604(12) 0.0259(2)
O5_2 O 0.7709(8) 0.23895(13) 0.3092(3)
C1_2 C 0.8779(9) 0.09740(18) 0.2731(4)
H1_2 H 0.7398 0.0772 0.2605
C2_2 C 0.8654(9) 0.14334(18) 0.2357(4)
H2_2 H 0.7227 0.1544 0.1974
C9_2 C 0.8985(9) 0.30498(17) 0.2258(4)
C10_2 C 0.8963(10) 0.25370(18) 0.2567(4)
C15_2 C 0.8656(8) 0.40064(17) 0.1602(4)
C16_2 C 0.7388(10) 0.38570(18) 0.2272(4)
H7_2 H 0.6402 0.4083 0.2517
C17_2 C 0.7534(10) 0.33769(19) 0.2597(4)
H8_2 H 0.6631 0.3280 0.3049
C19_2 C 0.7843(8) 0.44768(16) 0.1121(4)
O8_2 O 0.2321(6) 0.01814(11) 0.6618(2)
O1_3 O 0.7566(6) 0.03573(11) 0.6015(2)
O5_3 O 0.2709(8) 0.26105(13) 0.8092(3)
O6_3 O 0.8390(7) 0.29599(13) 0.6353(3)
N1_2 N 0.5762(8) 0.41978(14) 0.8265(3)
C1_3 C 0.3779(9) 0.40260(18) 0.7731(4)
H1_3 H 0.2398 0.4228 0.7605
C2_3 C 0.3654(9) 0.35666(18) 0.7357(4)
H2_3 H 0.2227 0.3456 0.6974
C3_3 C 0.5651(10) 0.32730(18) 0.7552(4)
C4_3 C 0.7763(9) 0.34447(18) 0.8083(4)
H3_3 H 0.9167 0.3249 0.8206
C5_3 C 0.7753(9) 0.39129(17) 0.8429(4)
H4_3 H 0.9182 0.4037 0.8790
N2_3 N 0.5557(8) 0.27776(15) 0.7227(3)
C6_3 C 0.7069(9) 0.26552(18) 0.6601(4)
C7_3 C 0.6935(9) 0.21463(17) 0.6275(4)
C8_3 C 0.5408(9) 0.18068(17) 0.6606(3)
C9_3 C 0.3985(9) 0.19502(17) 0.7258(4)
C10_3 C 0.3963(10) 0.24630(18) 0.7567(4)
C11_3 C 0.8261(10) 0.20153(19) 0.5617(4)
H5_3 H 0.9208 0.2250 0.5374
C12_3 C 0.8207(10) 0.15366(18) 0.5309(4)
H6_3 H 0.9138 0.1449 0.4860
C13_3 C 0.6841(8) 0.11902(17) 0.5639(4)
C14_3 C 0.5301(8) 0.13192(16) 0.6284(3)
C15_3 C 0.3656(8) 0.09936(17) 0.6602(4)
C16_3 C 0.2388(10) 0.11430(18) 0.7272(4)
H7_3 H 0.1402 0.0917 0.7517
C17_3 C 0.2534(10) 0.16231(19) 0.7597(4)
H8_3 H 0.1631 0.1720 0.8049
C18_3 C 0.7292(8) 0.06708(17) 0.5387(4)
C19_3 C 0.2843(8) 0.05232(16) 0.6121(4)
N3_2 N 0.9238(8) 0.91978(14) 0.6735(3)
O3_2 O 0.2679(6) 0.51814(11) 0.8382(2)
O5_4 O 0.2291(8) 0.76105(13) 0.6908(3)
C1_4 C 0.1221(9) 0.90260(18) 0.7269(4)
H1_4 H 0.2602 0.9228 0.7395
C2_4 C 0.1346(9) 0.85666(18) 0.7643(4)
H2_4 H 0.2773 0.8456 0.8026
C9_4 C 0.1015(9) 0.69502(17) 0.7742(4)
C10_4 C 0.1037(10) 0.74630(18) 0.7433(4)
C15_4 C 0.1344(8) 0.59936(17) 0.8398(4)
C16_4 C 0.2612(10) 0.61430(18) 0.7728(4)
H7_4 H 0.3598 0.5917 0.7483
C17_4 C 0.2466(10) 0.66231(19) 0.7403(4)
H8_4 H 0.3369 0.6720 0.6951
C19_4 C 0.2157(8) 0.55232(16) 0.8879(4)
H6_4 H 0.5862 0.6449 0.0140
O1_4 O 0.7434(6) 0.53573(11) 0.8985(2)
O6_4 O 0.6610(7) 0.79599(13) 0.8647(3)
C3_4 C 0.9349(10) 0.82730(18) 0.7448(4)
C4_4 C 0.7237(9) 0.84447(18) 0.6917(4)
H3_4 H 0.5833 0.8249 0.6794
C5_4 C 0.7247(9) 0.89129(17) 0.6571(4)
H4_4 H 0.5818 0.9037 0.6210
N2_4 N 0.9443(8) 0.77776(15) 0.7773(3)
C6_4 C 0.7931(9) 0.76552(18) 0.8399(4)
C7_4 C 0.8065(9) 0.71463(17) 0.8725(4)
C8_4 C 0.9592(9) 0.68068(17) 0.8394(3)
C11_4 C 0.6739(10) 0.70153(19) 0.9383(4)
H5_4 H 0.5792 0.7250 0.9626
C12_4 C 0.6793(10) 0.65366(18) 0.9691(4)
C13_4 C 0.8159(8) 0.61902(17) 0.9361(4)
C14_4 C 0.9699(8) 0.63192(16) 0.8716(3)
C18_4 C 0.7708(8) 0.56708(17) 0.9613(4)
loop_
_geom_bond_atom_site_label_1
_geom_bond_atom_site_label_2
_geom_bond_site_symmetry_1
_geom_bond_site_symmetry_2
O9 Zn2 1_555 1_555
N3 Zn2 1_555 1_555
O1 C18 1_555 1_555
O2 C18 1_555 1_555
O3 C19 1_555 1_555
O4 C19 1_555 1_555
O5 C10 1_555 1_555
O6 C6 1_555 1_555
N1 C1 1_555 1_555
C1 H1 1_555 1_555
C2 C1 1_555 1_555
H2 C2 1_555 1_555
C3 C2 1_555 1_555
C4 C3 1_555 1_555
H3 C4 1_555 1_555
C5 N1 1_555 1_555
H4 C5 1_555 1_555
N2 C3 1_555 1_555
C6 N2 1_555 1_555
C7 C6 1_555 1_555
C8 C7 1_555 1_555
C9 C8 1_555 1_555
C10 N2 1_555 1_555
C11 C7 1_555 1_555
H5 C11 1_555 1_555
C12 C11 1_555 1_555
H6 C12 1_555 1_555
C13 C12 1_555 1_555
C14 C8 1_555 1_555
C15 C14 1_555 1_555
C16 C15 1_555 1_555
H7 C16 1_555 1_555
C17 C9 1_555 1_555
H8 C17 1_555 1_555
C18 C13 1_555 1_555
C19 C15 1_555 1_555
Zn3 N1 1_555 1_555
Zn5 O4 1_555 1_555
C4 C5 1_555 1_555
C9 C10 1_555 1_555
C13 C14 1_555 1_555
C16 C17 1_555 1_555
Zn3 O1_2 1_555 1_555
O1_2 C18_2 1_555 1_555
O6_2 C6_2 1_555 1_555
C4_2 C3_2 1_555 1_555
H3_2 C4_2 1_555 1_555
C5_2 N3 1_555 1_555
H4_2 C5_2 1_555 1_555
N2_2 C3_2 1_555 1_555
C6_2 N2_2 1_555 1_555
C7_2 C6_2 1_555 1_555
C8_2 C7_2 1_555 1_555
C11_2 C7_2 1_555 1_555
H5_2 C11_2 1_555 1_555
C12_2 C11_2 1_555 1_555
C13_2 C12_2 1_555 1_555
C14_2 C8_2 1_555 1_555
C18_2 C13_2 1_555 1_555
O7_2 Zn3 1_555 1_555
O8 Zn3 1_555 1_555
C4_2 C5_2 1_555 1_555
C13_2 C14_2 1_555 1_555
Zn4 O2_2 1_555 1_555
O8 C19_2 1_555 1_555
O4_2 C19_2 1_555 1_555
O5_2 C10_2 1_555 1_555
C1_2 H1_2 1_555 1_555
C2_2 C1_2 1_555 1_555
H2_2 C2_2 1_555 1_555
C16_2 C15_2 1_555 1_555
H7_2 C16_2 1_555 1_555
C17_2 C9_2 1_555 1_555
H8_2 C17_2 1_555 1_555
C19_2 C15_2 1_555 1_555
C9_2 C10_2 1_555 1_555
C16_2 C17_2 1_555 1_555
O1_3 C18_3 1_555 1_555
O7 C18_3 1_555 1_555
O8_2 C19_3 1_555 1_555
O9 C19_3 1_555 1_555
O5_3 C10_3 1_555 1_555
O6_3 C6_3 1_555 1_555
N1_2 C1_3 1_555 1_555
C1_3 H1_3 1_555 1_555
C2_3 C1_3 1_555 1_555
H2_3 C2_3 1_555 1_555
C3_3 C2_3 1_555 1_555
C4_3 C3_3 1_555 1_555
H3_3 C4_3 1_555 1_555
C5_3 N1_2 1_555 1_555
H4_3 C5_3 1_555 1_555
N2_3 C3_3 1_555 1_555
C6_3 N2_3 1_555 1_555
C7_3 C6_3 1_555 1_555
C8_3 C7_3 1_555 1_555
C9_3 C8_3 1_555 1_555
C10_3 N2_3 1_555 1_555
C11_3 C7_3 1_555 1_555
H5_3 C11_3 1_555 1_555
C12_3 C11_3 1_555 1_555
H6_3 C12_3 1_555 1_555
C13_3 C12_3 1_555 1_555
C14_3 C8_3 1_555 1_555
C15_3 C14_3 1_555 1_555
C16_3 C15_3 1_555 1_555
H7_3 C16_3 1_555 1_555
C17_3 C9_3 1_555 1_555
H8_3 C17_3 1_555 1_555
C18_3 C13_3 1_555 1_555
C19_3 C15_3 1_555 1_555
Zn4 N1_2 1_555 1_555
C4_3 C5_3 1_555 1_555
C9_3 C10_3 1_555 1_555
C13_3 C14_3 1_555 1_555
C16_3 C17_3 1_555 1_555
N3_2 Zn5 1_555 1_555
O3_2 C19_4 1_555 1_555
O9_2 C19_4 1_555 1_555
O5_4 C10_4 1_555 1_555
C1_4 H1_4 1_555 1_555
C2_4 C1_4 1_555 1_555
H2_4 C2_4 1_555 1_555
C16_4 C15_4 1_555 1_555
H7_4 C16_4 1_555 1_555
C17_4 C9_4 1_555 1_555
H8_4 C17_4 1_555 1_555
C19_4 C15_4 1_555 1_555
Zn4 O3_2 1_555 1_555
C9_4 C10_4 1_555 1_555
C16_4 C17_4 1_555 1_555
Zn4 O1_4 1_555 1_555
O1_4 C18_4 1_555 1_555
O6_4 C6_4 1_555 1_555
C4_4 C3_4 1_555 1_555
H3_4 C4_4 1_555 1_555
C5_4 N3_2 1_555 1_555
H4_4 C5_4 1_555 1_555
N2_4 C3_4 1_555 1_555
C6_4 N2_4 1_555 1_555
C7_4 C6_4 1_555 1_555
C8_4 C7_4 1_555 1_555
C11_4 C7_4 1_555 1_555
H5_4 C11_4 1_555 1_555
C12_4 C11_4 1_555 1_555
C13_4 C12_4 1_555 1_555
C14_4 C8_4 1_555 1_555
C18_4 C13_4 1_555 1_555
C4_4 C5_4 1_555 1_555
C13_4 C14_4 1_555 1_555

#END
