
###############################################################################
#
# This file contains modified crystal structure data generated from the
# MOF subset of the Cambridge Structural Database (CSD) v543 
# hosted by the Cambridge Crystallographic Data Centre (CCDC).
#
# This work is licensed under the Creative Commons
# Attribution-NonCommercial-ShareAlike 4.0 International License.
# To view a copy of this license, visit
# http://creativecommons.org/licenses/by-nc-sa/4.0/
# or send a letter to
# Creative Commons, PO Box 1866, Mountain View, CA 94042, USA.
#
# CIF created using the CSD Python API on 29 September 2022
# The structure has been converted into the P1 space group
# The structure has a 3D framework
# The original CSD entry XICTEL is in the triclinic crystal system
# The framework has been calculated to contain at least 10.0% void space
# The void calculation uses a probe of radius 1.32A, grid spacing 0.4
#
###############################################################################

data_XICTEL
_chemical_formula_moiety         '(C56 H36 Cd3 N2 O12)n'
_symmetry_cell_setting           triclinic
_symmetry_space_group_name_H-M   'P 1'
_symmetry_Int_Tables_number      1
_space_group_name_Hall           'P 1'
loop_
_symmetry_equiv_pos_site_id
_symmetry_equiv_pos_as_xyz
1 x,y,z
_cell_length_a                   9.3921(14)
_cell_length_b                   13.524(2)
_cell_length_c                   14.015(2)
_cell_angle_alpha                62.981(4)
_cell_angle_beta                 89.266(4)
_cell_angle_gamma                73.310(4)
_cell_volume                     1504.56
loop_
_atom_site_label
_atom_site_type_symbol
_atom_site_fract_x
_atom_site_fract_y
_atom_site_fract_z
Cd8 Cd -0.0000 0.5000 0.0000
H1 H 0.0254 0.3092 0.8472
H5 H 0.0800 0.1995 0.7558
H7 H 0.0440 0.1918 0.5938
H8 H 0.0688 0.0065 0.6013
H10 H 0.0323 0.3602 0.4275
Cd8_2 Cd -0.0000 0.5000 1.0000
O17 O 0.0559(5) 0.3220(3) 0.1362(4)
O21 O 0.1299(6) 0.5559(4) 0.0903(4)
O13 O 0.2246(4) 0.4512(3) 0.9269(3)
H3 H 0.0279 0.8272 0.6982
Cd8_3 Cd 1.0000 0.5000 0.0000
C1 C 0.7856(8) 0.4777(7) 0.8281(6)
C2 C 0.8235(8) 0.4120(6) 0.7644(6)
C3 C 0.9570(8) 0.3255(6) 0.7905(6)
H2 H 0.6367 0.4954 0.6610
C4 C 0.9917(8) 0.2621(6) 0.7339(6)
C5 C 0.8956(7) 0.2854(6) 0.6502(6)
C6 C 0.7630(8) 0.3746(6) 0.6203(6)
H6 H 0.7004 0.3977 0.5580
C7 C 0.7295(8) 0.4374(6) 0.6803(7)
C8 C 0.9371(7) 0.2115(5) 0.5923(5)
C9 C 0.9039(7) 0.0972(6) 0.6495(6)
C10 C 0.9926(7) 0.0001(6) 0.6446(5)
C14 C 0.7869(7) 0.0860(6) 0.7090(6)
H9 H 0.7248 0.1507 0.7134
C16 C 0.8731(7) 0.2794(5) 0.4733(6)
C17 C 0.9426(7) 0.3550(5) 0.4008(6)
C18 C 0.8876(7) 0.4204(6) 0.2925(6)
H11 H 0.9358 0.4737 0.2440
C19 C 0.7626(7) 0.4117(5) 0.2504(5)
C20 C 0.6928(7) 0.3372(5) 0.3215(5)
H12 H 0.6029 0.3321 0.2948
C21 C 0.7470(7) 0.2719(6) 0.4308(6)
H13 H 0.6984 0.2184 0.4785
C22 C 0.7105(7) 0.4783(5) 0.1341(5)
C26 C 0.3286(9) 0.8888(8) 0.0021(8)
H16 H 0.3534 0.9475 0.0128
H17 H 0.5383 0.7918 0.0056
C28 C 0.0695(6) 0.9894(7) 0.0058(7)
O1 O 0.7754(4) 0.5488(3) 0.0731(3)
O2 O 0.5995(5) 0.4663(3) 0.0958(4)
O5 O 0.8701(6) 0.4441(4) 0.9097(4)
O6 O 0.6672(5) 0.5623(5) 0.7955(4)
Cd8_4 Cd 1.0000 0.5000 1.0000
Cd11 Cd 0.59921(5) 0.61899(4) 0.91627(4)
Cd14 Cd 0.40079(5) 0.38101(4) 0.08373(4)
C23 C 0.2677(8) 0.7644(7) 0.9236(8)
H14 H 0.2390 0.7167 0.8984
C24 C 0.1552(8) 0.8421(7) 0.9443(7)
H15 H 0.0525 0.8462 0.9338
C25 C 0.1810(8) 0.9097(7) 0.9785(8)
C27 C 0.4365(9) 0.8101(7) 0.9767(8)
N1 N 0.4068(6) 0.7479(5) 0.9401(5)
O15 O 0.4005(5) 0.5337(3) 0.9042(4)
O16 O 0.9441(5) 0.6780(3) 0.8638(4)
O18 O 0.6976(5) 0.7648(4) 0.8421(4)
H4 H 0.6757 0.9740 0.8006
C11 C 0.9681(7) 0.8928(6) 0.7026(6)
C12 C 0.8508(7) 0.8820(5) 0.7605(6)
C13 C 0.7605(7) 0.9806(6) 0.7619(6)
C15 C 0.8288(8) 0.7662(6) 0.8271(6)
H27 H 0.3243 0.0260 0.1994
C45 C 0.0319(7) 0.1072(6) 0.2974(6)
C46 C 0.1492(7) 0.1180(5) 0.2395(6)
C47 C 0.2395(7) 0.0194(6) 0.2381(6)
C49 C 0.1712(8) 0.2338(6) 0.1729(6)
O10 O 0.3024(5) 0.2352(4) 0.1579(4)
C29 C 0.7323(8) 0.2356(7) 0.0764(8)
H19 H 0.7610 0.2833 0.1016
C30 C 0.8448(8) 0.1579(7) 0.0557(7)
H20 H 0.9475 0.1538 0.0662
C31 C 0.8190(8) 0.0903(7) 0.0215(8)
C33 C 0.5635(9) 0.1899(7) 0.0233(8)
N2 N 0.5932(6) 0.2521(5) 0.0599(5)
O23 O 0.3328(5) 0.4377(5) 0.2045(4)
C32 C 0.6714(9) 0.1112(8) 0.9979(8)
H21 H 0.6466 0.0525 0.9872
H22 H 0.4617 0.2082 0.9944
C34 C 0.9305(6) 0.0106(7) 0.9942(7)
C35 C 0.2144(8) 0.5223(7) 0.1719(6)
C36 C 0.1765(8) 0.5880(6) 0.2356(6)
C37 C 0.0430(8) 0.6745(6) 0.2095(6)
H25 H 0.3633 0.5046 0.3390
C38 C 0.0083(8) 0.7379(6) 0.2661(6)
C39 C 0.1044(7) 0.7146(6) 0.3498(6)
C40 C 0.2370(8) 0.6254(6) 0.3797(6)
H29 H 0.2996 0.6023 0.4420
C41 C 0.2705(8) 0.5626(6) 0.3197(7)
C42 C 0.0629(7) 0.7885(5) 0.4077(5)
C43 C 0.0961(7) 0.9028(6) 0.3505(6)
C44 C 0.0074(7) 0.9999(6) 0.3554(5)
C48 C 0.2131(7) 0.9140(6) 0.2910(6)
H32 H 0.2752 0.8493 0.2866
C50 C 0.1269(7) 0.7206(5) 0.5267(6)
C51 C 0.0574(7) 0.6450(5) 0.5992(6)
C52 C 0.1124(7) 0.5796(6) 0.7075(6)
H34 H 0.0642 0.5263 0.7560
C53 C 0.2374(7) 0.5883(5) 0.7496(5)
C54 C 0.3072(7) 0.6628(5) 0.6785(5)
H35 H 0.3971 0.6679 0.7052
C55 C 0.2530(7) 0.7281(6) 0.5692(6)
H36 H 0.3016 0.7816 0.5215
C56 C 0.2895(7) 0.5217(5) 0.8659(5)
H26 H 0.9721 0.1728 0.3018
H24 H 0.9746 0.6908 0.1528
H28 H 0.9200 0.8005 0.2442
H30 H 0.9560 0.8082 0.4062
H31 H 0.9312 0.9935 0.3987
H33 H 0.9677 0.6398 0.5725
H18 H 0.1056 0.0286 0.0348
H23 H 0.8944 0.9714 0.9652
loop_
_geom_bond_atom_site_label_1
_geom_bond_atom_site_label_2
_geom_bond_site_symmetry_1
_geom_bond_site_symmetry_2
O17 Cd8 1_555 1_555
O21 Cd8 1_555 1_555
O13 Cd8_2 1_555 1_555
C1 C2 1_555 1_555
C2 C3 1_555 1_555
H2 C7 1_555 1_555
C4 C3 1_555 1_555
C5 C4 1_555 1_555
C6 C5 1_555 1_555
H6 C6 1_555 1_555
C7 C2 1_555 1_555
C8 C5 1_555 1_555
C9 C8 1_555 1_555
C10 C9 1_555 1_555
C14 C9 1_555 1_555
H9 C14 1_555 1_555
C16 C8 1_555 1_555
C17 C16 1_555 1_555
C18 C17 1_555 1_555
H11 C18 1_555 1_555
C19 C18 1_555 1_555
C20 C19 1_555 1_555
H12 C20 1_555 1_555
C21 C16 1_555 1_555
H13 C21 1_555 1_555
C22 C19 1_555 1_555
H16 C26 1_555 1_555
Cd8_3 O1 1_555 1_555
O1 C22 1_555 1_555
O2 C22 1_555 1_555
O5 C1 1_555 1_555
O6 C1 1_555 1_555
Cd8_4 O5 1_555 1_555
Cd11 O6 1_555 1_555
Cd14 O2 1_555 1_555
C6 C7 1_555 1_555
C20 C21 1_555 1_555
C23 H14 1_555 1_555
C24 C23 1_555 1_555
H15 C24 1_555 1_555
C25 C24 1_555 1_555
Cd11 N1 1_555 1_555
N1 C23 1_555 1_555
O15 Cd11 1_555 1_555
O16 Cd8_4 1_555 1_555
O18 Cd11 1_555 1_555
C27 N1 1_555 1_555
H4 C13 1_555 1_555
C12 C11 1_555 1_555
C13 C12 1_555 1_555
C15 C12 1_555 1_555
O16 C15 1_555 1_555
O18 C15 1_555 1_555
H27 C47 1_555 1_555
C46 C45 1_555 1_555
C47 C46 1_555 1_555
C49 C46 1_555 1_555
O17 C49 1_555 1_555
O10 C49 1_555 1_555
Cd14 O10 1_555 1_555
C29 H19 1_555 1_555
C30 C29 1_555 1_555
H20 C30 1_555 1_555
C31 C30 1_555 1_555
N2 C29 1_555 1_555
Cd14 N2 1_555 1_555
O23 Cd14 1_555 1_555
C33 N2 1_555 1_555
H21 C32 1_555 1_555
C35 C36 1_555 1_555
C36 C37 1_555 1_555
H25 C41 1_555 1_555
C38 C37 1_555 1_555
C39 C38 1_555 1_555
C40 C39 1_555 1_555
H29 C40 1_555 1_555
C41 C36 1_555 1_555
C42 C39 1_555 1_555
C43 C42 1_555 1_555
C44 C43 1_555 1_555
C48 C43 1_555 1_555
H32 C48 1_555 1_555
C50 C42 1_555 1_555
C51 C50 1_555 1_555
C52 C51 1_555 1_555
H34 C52 1_555 1_555
C53 C52 1_555 1_555
C54 C53 1_555 1_555
H35 C54 1_555 1_555
C55 C50 1_555 1_555
H36 C55 1_555 1_555
C56 C53 1_555 1_555
O13 C56 1_555 1_555
O15 C56 1_555 1_555
O21 C35 1_555 1_555
O23 C35 1_555 1_555
C40 C41 1_555 1_555
C54 C55 1_555 1_555

#END
