
###############################################################################
#
# This file contains modified crystal structure data generated from the
# MOF subset of the Cambridge Structural Database (CSD) v543 
# hosted by the Cambridge Crystallographic Data Centre (CCDC).
#
# This work is licensed under the Creative Commons
# Attribution-NonCommercial-ShareAlike 4.0 International License.
# To view a copy of this license, visit
# http://creativecommons.org/licenses/by-nc-sa/4.0/
# or send a letter to
# Creative Commons, PO Box 1866, Mountain View, CA 94042, USA.
#
# CIF created using the CSD Python API on 29 September 2022
# The structure has been converted into the P1 space group
# The structure has a 3D framework
# The original CSD entry XICTIP is in the triclinic crystal system
# The framework has been calculated to contain at least 10.0% void space
# The void calculation uses a probe of radius 1.32A, grid spacing 0.4
#
###############################################################################

data_XICTIP
_chemical_formula_moiety         '(C54 H34 Cd3 N4 O12)n'
_symmetry_cell_setting           triclinic
_symmetry_space_group_name_H-M   'P 1'
_symmetry_Int_Tables_number      1
_space_group_name_Hall           'P 1'
loop_
_symmetry_equiv_pos_site_id
_symmetry_equiv_pos_as_xyz
1 x,y,z
_cell_length_a                   9.342(3)
_cell_length_b                   13.560(4)
_cell_length_c                   14.018(4)
_cell_angle_alpha                63.123(4)
_cell_angle_beta                 88.980(4)
_cell_angle_gamma                72.127(4)
_cell_volume                     1492.13
loop_
_atom_site_label
_atom_site_type_symbol
_atom_site_fract_x
_atom_site_fract_y
_atom_site_fract_z
N2 N 0.0640(5) 0.0020(4) 0.0001(4)
C1 C 0.1750(5) 0.2333(4) 0.1700(3)
C2 C 0.1515(5) 0.1167(3) 0.2370(3)
C3 C 0.0340(6) 0.1089(4) 0.2979(4)
C4 C 0.0069(6) 0.0044(4) 0.3526(4)
C7 C 0.2441(6) 0.0170(4) 0.2353(4)
H4 H 0.3276 0.0195 0.1983
Cd2 Cd -0.0000 0.5000 0.0000
O1 O 0.0576(4) 0.3224(3) 0.1360(3)
O2 O 0.3065(4) 0.2309(3) 0.1538(3)
Cd10 Cd 0.40518(3) 0.37742(2) 0.08415(2)
O24 O 0.1260(5) 0.5588(4) 0.0879(3)
Cd2_2 Cd -0.0000 0.5000 1.0000
H26 H 0.0526 0.1848 0.5955
H27 H 0.0341 0.3574 0.4279
H31 H 0.0878 0.1945 0.7585
H32 H 0.0281 0.2975 0.8547
O19 O 0.2275(3) 0.4516(2) 0.9266(2)
H16 H 0.3471 0.9514 0.0164
O17 O 0.5995(3) 0.4664(3) 0.0942(2)
O21 O 0.7725(3) 0.5484(2) 0.0734(2)
C5 C 0.0955(5) 0.9048(3) 0.3477(3)
C6 C 0.2138(6) 0.9130(4) 0.2882(4)
H3 H 0.2747 0.8472 0.2834
C8 C 0.0581(5) 0.7914(4) 0.4073(3)
C9 C 0.1238(5) 0.7224(3) 0.5265(3)
C10 C 0.0524(5) 0.6484(4) 0.5979(4)
C11 C 0.1082(5) 0.5835(4) 0.7064(3)
H7 H 0.0594 0.5340 0.7528
C12 C 0.2361(4) 0.5910(3) 0.7473(3)
C13 C 0.3073(5) 0.6642(4) 0.6774(3)
H8 H 0.3929 0.6708 0.7035
C14 C 0.2518(5) 0.7285(4) 0.5678(3)
H9 H 0.3021 0.7767 0.5213
C15 C 0.2912(4) 0.5234(3) 0.8654(3)
C16 C 0.0995(5) 0.7154(4) 0.3503(3)
C17 C 0.0033(6) 0.7434(5) 0.2627(4)
C18 C 0.0386(6) 0.6811(5) 0.2052(4)
C19 C 0.1723(5) 0.5874(4) 0.2357(4)
C20 C 0.2674(6) 0.5589(5) 0.3228(5)
H12 H 0.3577 0.4959 0.3450
C21 C 0.2315(7) 0.6234(6) 0.3798(5)
H13 H 0.2988 0.6030 0.4390
C22 C 0.2092(6) 0.5223(5) 0.1714(4)
C23 C 0.2546(5) 0.7647(5) 0.9310(5)
H14 H 0.2290 0.7138 0.9124
C24 C 0.1390(5) 0.8439(5) 0.9493(5)
H15 H 0.0391 0.8464 0.9415
C25 C 0.1715(6) 0.9162(5) 0.9779(5)
C26 C 0.3187(8) 0.9055(7) 0.9924(8)
C27 C 0.4277(7) 0.8243(7) 0.9707(7)
H17 H 0.5289 0.8182 0.9802
Cd1 Cd 0.59482(3) 0.62258(2) 0.91585(2)
N1 N 0.3962(4) 0.7566(3) 0.9380(4)
O3 O 0.4005(3) 0.5336(3) 0.9058(2)
O5 O 0.3306(4) 0.4341(4) 0.2056(3)
O15 O 0.6935(4) 0.7691(3) 0.8462(3)
O23 O 0.6694(4) 0.5659(4) 0.7944(3)
H22 H 0.0275 0.8251 0.6980
H23 H 0.0725 0.9993 0.6063
C28 C 0.7454(5) 0.2353(5) 0.0690(5)
H18 H 0.7710 0.2862 0.0876
C29 C 0.8610(5) 0.1561(5) 0.0507(5)
H19 H 0.9609 0.1536 0.0585
C30 C 0.8285(6) 0.0838(5) 0.0221(5)
C31 C 0.6813(8) 0.0945(7) 0.0076(8)
C32 C 0.5723(7) 0.1757(7) 0.0293(7)
H21 H 0.4711 0.1818 0.0198
N3 N 0.6038(4) 0.2434(3) 0.0620(4)
H1 H 0.9725 0.1749 0.3020
H2 H 0.9275 0.0007 0.3937
Cd2_3 Cd 1.0000 0.5000 0.0000
H20 H 0.6529 0.0486 0.9836
Cd2_4 Cd 1.0000 0.5000 1.0000
C37 C 0.9045(5) 0.0952(3) 0.6523(3)
C38 C 0.7862(6) 0.0870(4) 0.7118(4)
H24 H 0.7253 0.1528 0.7166
C40 C 0.9419(5) 0.2086(4) 0.5927(3)
C41 C 0.8762(5) 0.2776(3) 0.4735(3)
C42 C 0.9476(5) 0.3516(4) 0.4021(4)
C43 C 0.8918(5) 0.4165(4) 0.2936(3)
H28 H 0.9406 0.4660 0.2472
C44 C 0.7639(4) 0.4090(3) 0.2527(3)
C45 C 0.6927(5) 0.3358(4) 0.3226(3)
H29 H 0.6071 0.3292 0.2965
C46 C 0.7482(5) 0.2715(4) 0.4322(3)
H30 H 0.6979 0.2233 0.4787
C47 C 0.7088(4) 0.4766(3) 0.1346(3)
C48 C 0.9005(5) 0.2846(4) 0.6497(3)
C49 C 0.9967(6) 0.2566(5) 0.7373(4)
C50 C 0.9614(6) 0.3189(5) 0.7948(4)
C51 C 0.8277(5) 0.4126(4) 0.7643(4)
C52 C 0.7326(6) 0.4411(5) 0.6772(5)
H33 H 0.6423 0.5041 0.6550
C53 C 0.7685(7) 0.3766(6) 0.6202(5)
H34 H 0.7012 0.3970 0.5610
C54 C 0.7908(6) 0.4777(5) 0.8286(4)
O12 O 0.8740(5) 0.4412(4) 0.9121(3)
O13 O 0.9424(4) 0.6776(3) 0.8640(3)
H5 H 0.9474 0.8152 0.4045
H6 H 0.9659 0.6426 0.5721
H10 H 0.9122 0.8055 0.2415
H11 H 0.9719 0.7025 0.1453
N4 N 0.9360(5) 0.9980(4) 0.9999(4)
C33 C 0.8250(5) 0.7667(4) 0.8300(3)
C34 C 0.8485(5) 0.8833(3) 0.7630(3)
C35 C 0.9660(6) 0.8911(4) 0.7021(4)
C36 C 0.9931(6) 0.9956(4) 0.6474(4)
C39 C 0.7559(6) 0.9830(4) 0.7647(4)
H25 H 0.6724 0.9805 0.8017
loop_
_geom_bond_atom_site_label_1
_geom_bond_atom_site_label_2
_geom_bond_site_symmetry_1
_geom_bond_site_symmetry_2
C1 C2 1_555 1_555
C2 C3 1_555 1_555
C4 C3 1_555 1_555
C7 C2 1_555 1_555
H4 C7 1_555 1_555
Cd2 O1 1_555 1_555
O1 C1 1_555 1_555
O2 C1 1_555 1_555
Cd10 O2 1_555 1_555
O24 Cd2 1_555 1_555
O19 Cd2_2 1_555 1_555
Cd10 O17 1_555 1_555
C6 C5 1_555 1_555
H3 C6 1_555 1_555
C8 C5 1_555 1_555
C9 C8 1_555 1_555
C10 C9 1_555 1_555
C11 C10 1_555 1_555
H7 C11 1_555 1_555
C12 C11 1_555 1_555
C13 C12 1_555 1_555
H8 C13 1_555 1_555
C14 C9 1_555 1_555
H9 C14 1_555 1_555
C15 C12 1_555 1_555
C16 C8 1_555 1_555
C17 C16 1_555 1_555
C18 C17 1_555 1_555
C19 C18 1_555 1_555
C20 C19 1_555 1_555
H12 C20 1_555 1_555
C21 C16 1_555 1_555
H13 C21 1_555 1_555
C22 C19 1_555 1_555
C23 H14 1_555 1_555
C24 C23 1_555 1_555
H15 C24 1_555 1_555
C25 C24 1_555 1_555
C26 C25 1_555 1_555
C27 C26 1_555 1_555
H17 C27 1_555 1_555
Cd1 N1 1_555 1_555
N1 C23 1_555 1_555
O3 C15 1_555 1_555
O19 C15 1_555 1_555
O5 C22 1_555 1_555
O24 C22 1_555 1_555
Cd10 O5 1_555 1_555
O15 Cd1 1_555 1_555
O23 Cd1 1_555 1_555
C13 C14 1_555 1_555
C20 C21 1_555 1_555
C27 N1 1_555 1_555
Cd1 O3 1_555 1_555
C28 H18 1_555 1_555
C29 C28 1_555 1_555
H19 C29 1_555 1_555
C30 C29 1_555 1_555
C31 C30 1_555 1_555
C32 C31 1_555 1_555
H21 C32 1_555 1_555
N3 C28 1_555 1_555
Cd10 N3 1_555 1_555
C32 N3 1_555 1_555
O21 Cd2_3 1_555 1_555
C38 C37 1_555 1_555
H24 C38 1_555 1_555
C40 C37 1_555 1_555
C41 C40 1_555 1_555
C42 C41 1_555 1_555
C43 C42 1_555 1_555
H28 C43 1_555 1_555
C44 C43 1_555 1_555
C45 C44 1_555 1_555
H29 C45 1_555 1_555
C46 C41 1_555 1_555
H30 C46 1_555 1_555
C47 C44 1_555 1_555
C48 C40 1_555 1_555
C49 C48 1_555 1_555
C50 C49 1_555 1_555
C51 C50 1_555 1_555
C52 C51 1_555 1_555
H33 C52 1_555 1_555
C53 C48 1_555 1_555
H34 C53 1_555 1_555
C54 C51 1_555 1_555
O17 C47 1_555 1_555
O21 C47 1_555 1_555
O23 C54 1_555 1_555
O12 Cd2_4 1_555 1_555
O13 Cd2_4 1_555 1_555
C45 C46 1_555 1_555
C52 C53 1_555 1_555
C54 O12 1_555 1_555
C33 C34 1_555 1_555
C34 C35 1_555 1_555
C36 C35 1_555 1_555
C39 C34 1_555 1_555
H25 C39 1_555 1_555
O13 C33 1_555 1_555
O15 C33 1_555 1_555

#END
