
###############################################################################
#
# This file contains modified crystal structure data generated from the
# MOF subset of the Cambridge Structural Database (CSD) v543 
# hosted by the Cambridge Crystallographic Data Centre (CCDC).
#
# This work is licensed under the Creative Commons
# Attribution-NonCommercial-ShareAlike 4.0 International License.
# To view a copy of this license, visit
# http://creativecommons.org/licenses/by-nc-sa/4.0/
# or send a letter to
# Creative Commons, PO Box 1866, Mountain View, CA 94042, USA.
#
# CIF created using the CSD Python API on 29 September 2022
# The structure has been converted into the P1 space group
# The structure has a 3D framework
# The original CSD entry XIDBUJ is in the monoclinic crystal system
# The framework has been calculated to contain at least 10.0% void space
# The void calculation uses a probe of radius 1.32A, grid spacing 0.4
#
###############################################################################

data_XIDBUJ
_chemical_formula_moiety         '(C140 H80 N24 O32 Zn8)n'
_symmetry_cell_setting           triclinic
_symmetry_space_group_name_H-M   'P 1'
_symmetry_Int_Tables_number      1
_space_group_name_Hall           'P 1'
loop_
_symmetry_equiv_pos_site_id
_symmetry_equiv_pos_as_xyz
1 x,y,z
_cell_length_a                   19.926(7)
_cell_length_b                   22.305(8)
_cell_length_c                   11.721(4)
_cell_angle_alpha                90
_cell_angle_beta                 116.127(4)
_cell_angle_gamma                90
_cell_volume                     4677.1
loop_
_atom_site_label
_atom_site_type_symbol
_atom_site_fract_x
_atom_site_fract_y
_atom_site_fract_z
Zn3 Zn 0.31688(2) 0.12231(2) 0.11810(4)
N1 N 0.28422(19) 0.14300(17) 0.9284(3)
N2 N 0.1432(2) 0.20843(17) 0.4770(3)
O1 O 0.3163(2) 0.12410(17) 0.3102(4)
O2 O 0.23608(18) 0.17564(15) 0.1480(3)
O3 O 0.24159(15) 0.04976(14) 0.0707(3)
O4 O 0.39015(15) 0.05003(13) 0.1500(3)
C1 C 0.3275(3) 0.1312(2) 0.8714(4)
H1 H 0.3749 0.1153 0.9195
C2 C 0.3050(3) 0.1416(3) 0.7434(4)
H2 H 0.3368 0.1325 0.7070
C3 C 0.2350(2) 0.1654(2) 0.6697(4)
C4 C 0.1914(3) 0.1779(3) 0.7305(4)
H3 H 0.1441 0.1944 0.6852
C5 C 0.2170(3) 0.1661(2) 0.8569(4)
H4 H 0.1859 0.1746 0.8951
C6 C 0.2077(2) 0.1788(2) 0.5316(4)
C7 C 0.2476(2) 0.1602(2) 0.4641(4)
H5 H 0.2923 0.1392 0.5045
C8 C 0.2187(2) 0.1742(2) 0.3362(4)
C9 C 0.1510(2) 0.2037(2) 0.2790(4)
H6 H 0.1299 0.2125 0.1926
C10 C 0.1148(2) 0.2203(2) 0.3521(4)
C13 C 0.0439(2) 0.2542(2) 0.2971(4)
C14 C 0.0304(3) 0.3004(2) 0.3633(4)
H9 H 0.0658 0.3097 0.4451
C16 C 0.2602(3) 0.1564(2) 0.2596(4)
C17 C 0.2726(3) 0.0000 0.0876(5)
C18 C 0.3582(3) 0.0000 0.1333(5)
N10 N 0.41147(19) 0.17955(16) 0.1926(3)
Zn5 Zn 0.31688(2) 0.87769(2) 0.11810(4)
C17_2 C 0.2726(3) 1.0000 0.0876(5)
C18_2 C 0.3582(3) 1.0000 0.1333(5)
O5 O 0.24159(15) 0.95024(14) 0.0707(3)
O6 O 0.39015(15) 0.94997(13) 0.1500(3)
N4 N 0.28422(19) 0.85700(17) 0.9284(3)
N5 N 0.1432(2) 0.79157(17) 0.4770(3)
O7 O 0.3163(2) 0.87590(17) 0.3102(4)
O8 O 0.23608(18) 0.82436(15) 0.1480(3)
C19 C 0.3275(3) 0.8688(2) 0.8714(4)
H11 H 0.3749 0.8847 0.9195
C20 C 0.3050(3) 0.8584(3) 0.7434(4)
H12 H 0.3368 0.8675 0.7070
C21 C 0.2350(2) 0.8346(2) 0.6697(4)
C22 C 0.1914(3) 0.8221(3) 0.7305(4)
H13 H 0.1441 0.8056 0.6852
C23 C 0.2170(3) 0.8339(2) 0.8569(4)
H14 H 0.1859 0.8254 0.8951
C24 C 0.2077(2) 0.8212(2) 0.5316(4)
C25 C 0.2476(2) 0.8398(2) 0.4641(4)
H15 H 0.2923 0.8608 0.5045
C26 C 0.2187(2) 0.8258(2) 0.3362(4)
C27 C 0.1510(2) 0.7963(2) 0.2790(4)
H16 H 0.1299 0.7875 0.1926
C28 C 0.1148(2) 0.7797(2) 0.3521(4)
C31 C 0.0439(2) 0.7458(2) 0.2971(4)
C32 C 0.0304(3) 0.6996(2) 0.3633(4)
H19 H 0.0658 0.6903 0.4451
C34 C 0.2602(3) 0.8436(2) 0.2596(4)
N9 N 0.41147(19) 0.82045(16) 0.1926(3)
N3 N 0.91147(19) 0.32045(16) 0.1926(3)
C11 C 0.9234(3) 0.2752(2) 0.1288(4)
H7 H 0.8861 0.2659 0.0484
C12 C 0.9880(3) 0.2415(2) 0.1764(4)
H8 H 0.9942 0.2107 0.1284
C15 C 0.9656(3) 0.3321(2) 0.3094(4)
H10 H 0.9585 0.3634 0.3554
Zn6 Zn 0.81688(2) 0.37769(2) 0.11810(4)
N6 N 0.91147(19) 0.67955(16) 0.1926(3)
C29 C 0.9234(3) 0.7248(2) 0.1288(4)
H17 H 0.8861 0.7341 0.0484
C30 C 0.9880(3) 0.7585(2) 0.1764(4)
H18 H 0.9942 0.7893 0.1284
C33 C 0.9656(3) 0.6679(2) 0.3094(4)
H20 H 0.9585 0.6366 0.3554
Zn4 Zn 0.81688(2) 0.62231(2) 0.11810(4)
N1_2 N 0.78422(19) 0.64300(17) 0.9284(3)
N2_2 N 0.6432(2) 0.70843(17) 0.4770(3)
O1_2 O 0.8163(2) 0.62410(17) 0.3102(4)
O2_2 O 0.73608(18) 0.67564(15) 0.1480(3)
O3_2 O 0.74159(15) 0.54976(14) 0.0707(3)
O4_2 O 0.89015(15) 0.55003(13) 0.1500(3)
C1_2 C 0.8275(3) 0.6312(2) 0.8714(4)
H1_2 H 0.8749 0.6153 0.9195
C2_2 C 0.8050(3) 0.6416(3) 0.7434(4)
H2_2 H 0.8368 0.6325 0.7070
C3_2 C 0.7350(2) 0.6654(2) 0.6697(4)
C4_2 C 0.6914(3) 0.6779(3) 0.7305(4)
H3_2 H 0.6441 0.6944 0.6852
C5_2 C 0.7170(3) 0.6661(2) 0.8569(4)
H4_2 H 0.6859 0.6746 0.8951
C6_2 C 0.7077(2) 0.6788(2) 0.5316(4)
C7_2 C 0.7476(2) 0.6602(2) 0.4641(4)
H5_2 H 0.7923 0.6392 0.5045
C8_2 C 0.7187(2) 0.6742(2) 0.3362(4)
C9_2 C 0.6510(2) 0.7037(2) 0.2790(4)
H6_2 H 0.6299 0.7125 0.1926
C10_2 C 0.6148(2) 0.7203(2) 0.3521(4)
C11_2 C 0.4234(3) 0.7752(2) 0.1288(4)
H7_2 H 0.3861 0.7659 0.0484
C12_2 C 0.4880(3) 0.7415(2) 0.1764(4)
H8_2 H 0.4942 0.7107 0.1284
C13_2 C 0.5439(2) 0.7542(2) 0.2971(4)
C14_2 C 0.5304(3) 0.8004(2) 0.3633(4)
H9_2 H 0.5658 0.8097 0.4451
C15_2 C 0.4656(3) 0.8321(2) 0.3094(4)
H10_2 H 0.4585 0.8634 0.3554
C16_2 C 0.7602(3) 0.6564(2) 0.2596(4)
C17_3 C 0.7726(3) 0.5000 0.0876(5)
C18_3 C 0.8582(3) 0.5000 0.1333(5)
O5_2 O 0.74159(15) 0.45024(14) 0.0707(3)
O6_2 O 0.89015(15) 0.44997(13) 0.1500(3)
N4_2 N 0.78422(19) 0.35700(17) 0.9284(3)
N5_2 N 0.6432(2) 0.29157(17) 0.4770(3)
O7_2 O 0.8163(2) 0.37590(17) 0.3102(4)
O8_2 O 0.73608(18) 0.32436(15) 0.1480(3)
C19_2 C 0.8275(3) 0.3688(2) 0.8714(4)
H11_2 H 0.8749 0.3847 0.9195
C20_2 C 0.8050(3) 0.3584(3) 0.7434(4)
H12_2 H 0.8368 0.3675 0.7070
C21_2 C 0.7350(2) 0.3346(2) 0.6697(4)
C22_2 C 0.6914(3) 0.3221(3) 0.7305(4)
H13_2 H 0.6441 0.3056 0.6852
C23_2 C 0.7170(3) 0.3339(2) 0.8569(4)
H14_2 H 0.6859 0.3254 0.8951
C24_2 C 0.7077(2) 0.3212(2) 0.5316(4)
C25_2 C 0.7476(2) 0.3398(2) 0.4641(4)
H15_2 H 0.7923 0.3608 0.5045
C26_2 C 0.7187(2) 0.3258(2) 0.3362(4)
C27_2 C 0.6510(2) 0.2963(2) 0.2790(4)
H16_2 H 0.6299 0.2875 0.1926
C28_2 C 0.6148(2) 0.2797(2) 0.3521(4)
C29_2 C 0.4234(3) 0.2248(2) 0.1288(4)
H17_2 H 0.3861 0.2341 0.0484
C30_2 C 0.4880(3) 0.2585(2) 0.1764(4)
H18_2 H 0.4942 0.2893 0.1284
C31_2 C 0.5439(2) 0.2458(2) 0.2971(4)
C32_2 C 0.5304(3) 0.1996(2) 0.3633(4)
H19_2 H 0.5658 0.1903 0.4451
C33_2 C 0.4656(3) 0.1679(2) 0.3094(4)
H20_2 H 0.4585 0.1366 0.3554
C34_2 C 0.7602(3) 0.3436(2) 0.2596(4)
N3_2 N 0.08853(19) 0.32045(16) 0.8074(3)
C11_3 C 0.0766(3) 0.2752(2) 0.8712(4)
H7_3 H 0.1139 0.2659 0.9516
C12_3 C 0.0120(3) 0.2415(2) 0.8236(4)
H8_3 H 0.0058 0.2107 0.8716
C15_3 C 0.0344(3) 0.3321(2) 0.6906(4)
H10_3 H 0.0415 0.3634 0.6446
Zn6_2 Zn 0.18312(2) 0.37769(2) 0.88190(4)
N6_2 N 0.08853(19) 0.67955(16) 0.8074(3)
C29_3 C 0.0766(3) 0.7248(2) 0.8712(4)
H17_3 H 0.1139 0.7341 0.9516
C30_3 C 0.0120(3) 0.7585(2) 0.8236(4)
H18_3 H 0.0058 0.7893 0.8716
C33_3 C 0.0344(3) 0.6679(2) 0.6906(4)
H20_3 H 0.0415 0.6366 0.6446
Zn4_2 Zn 0.18312(2) 0.62231(2) 0.88190(4)
N7 N 0.71578(19) 0.14300(17) 0.0716(3)
Zn1 Zn 0.68312(2) 0.12231(2) 0.88190(4)
N2_3 N 0.8568(2) 0.20843(17) 0.5230(3)
O1_3 O 0.6837(2) 0.12410(17) 0.6898(4)
O2_3 O 0.76392(18) 0.17564(15) 0.8520(3)
O3_3 O 0.75841(15) 0.04976(14) 0.9293(3)
O4_3 O 0.60985(15) 0.05003(13) 0.8500(3)
C1_3 C 0.6725(3) 0.1312(2) 0.1286(4)
H1_3 H 0.6251 0.1153 0.0805
C2_3 C 0.6950(3) 0.1416(3) 0.2566(4)
H2_3 H 0.6632 0.1325 0.2930
C3_3 C 0.7650(2) 0.1654(2) 0.3303(4)
C4_3 C 0.8086(3) 0.1779(3) 0.2695(4)
H3_3 H 0.8559 0.1944 0.3148
C5_3 C 0.7830(3) 0.1661(2) 0.1431(4)
H4_3 H 0.8141 0.1746 0.1049
C6_3 C 0.7923(2) 0.1788(2) 0.4684(4)
C7_3 C 0.7524(2) 0.1602(2) 0.5359(4)
H5_3 H 0.7077 0.1392 0.4955
C8_3 C 0.7813(2) 0.1742(2) 0.6638(4)
C9_3 C 0.8490(2) 0.2037(2) 0.7210(4)
H6_3 H 0.8701 0.2125 0.8074
C10_3 C 0.8852(2) 0.2203(2) 0.6479(4)
C13_3 C 0.9561(2) 0.2542(2) 0.7029(4)
C14_3 C 0.9696(3) 0.3004(2) 0.6367(4)
H9_3 H 0.9342 0.3097 0.5549
C16_3 C 0.7398(3) 0.1564(2) 0.7404(4)
C17_4 C 0.7274(3) 0.0000 0.9124(5)
C18_4 C 0.6418(3) -0.0000 0.8667(5)
N10_2 N 0.58853(19) 0.17955(16) 0.8074(3)
N8 N 0.71578(19) 0.85700(17) 0.0716(3)
C17_5 C 0.7274(3) 1.0000 0.9124(5)
C18_5 C 0.6418(3) 1.0000 0.8667(5)
O5_3 O 0.75841(15) 0.95024(14) 0.9293(3)
O6_3 O 0.60985(15) 0.94997(13) 0.8500(3)
Zn2 Zn 0.68312(2) 0.87769(2) 0.88190(4)
N5_3 N 0.8568(2) 0.79157(17) 0.5230(3)
O7_3 O 0.6837(2) 0.87590(17) 0.6898(4)
O8_3 O 0.76392(18) 0.82436(15) 0.8520(3)
C19_3 C 0.6725(3) 0.8688(2) 0.1286(4)
H11_3 H 0.6251 0.8847 0.0805
C20_3 C 0.6950(3) 0.8584(3) 0.2566(4)
H12_3 H 0.6632 0.8675 0.2930
C21_3 C 0.7650(2) 0.8346(2) 0.3303(4)
C22_3 C 0.8086(3) 0.8221(3) 0.2695(4)
H13_3 H 0.8559 0.8056 0.3148
C23_3 C 0.7830(3) 0.8339(2) 0.1431(4)
H14_3 H 0.8141 0.8254 0.1049
C24_3 C 0.7923(2) 0.8212(2) 0.4684(4)
C25_3 C 0.7524(2) 0.8398(2) 0.5359(4)
H15_3 H 0.7077 0.8608 0.4955
C26_3 C 0.7813(2) 0.8258(2) 0.6638(4)
C27_3 C 0.8490(2) 0.7963(2) 0.7210(4)
H16_3 H 0.8701 0.7875 0.8074
C28_3 C 0.8852(2) 0.7797(2) 0.6479(4)
C31_3 C 0.9561(2) 0.7458(2) 0.7029(4)
C32_3 C 0.9696(3) 0.6996(2) 0.6367(4)
H19_3 H 0.9342 0.6903 0.5549
C34_3 C 0.7398(3) 0.8436(2) 0.7404(4)
N9_2 N 0.58853(19) 0.82045(16) 0.8074(3)
N7_2 N 0.21578(19) 0.64300(17) 0.0716(3)
N8_2 N 0.21578(19) 0.35700(17) 0.0716(3)
N2_4 N 0.3568(2) 0.70843(17) 0.5230(3)
O1_4 O 0.1837(2) 0.62410(17) 0.6898(4)
O2_4 O 0.26392(18) 0.67564(15) 0.8520(3)
O3_4 O 0.25841(15) 0.54976(14) 0.9293(3)
O4_4 O 0.10985(15) 0.55003(13) 0.8500(3)
C1_4 C 0.1725(3) 0.6312(2) 0.1286(4)
H1_4 H 0.1251 0.6153 0.0805
C2_4 C 0.1950(3) 0.6416(3) 0.2566(4)
H2_4 H 0.1632 0.6325 0.2930
C3_4 C 0.2650(2) 0.6654(2) 0.3303(4)
C4_4 C 0.3086(3) 0.6779(3) 0.2695(4)
H3_4 H 0.3559 0.6944 0.3148
C5_4 C 0.2830(3) 0.6661(2) 0.1431(4)
H4_4 H 0.3141 0.6746 0.1049
C6_4 C 0.2923(2) 0.6788(2) 0.4684(4)
C7_4 C 0.2524(2) 0.6602(2) 0.5359(4)
H5_4 H 0.2077 0.6392 0.4955
C8_4 C 0.2813(2) 0.6742(2) 0.6638(4)
C9_4 C 0.3490(2) 0.7037(2) 0.7210(4)
H6_4 H 0.3701 0.7125 0.8074
C10_4 C 0.3852(2) 0.7203(2) 0.6479(4)
C11_4 C 0.5766(3) 0.7752(2) 0.8712(4)
H7_4 H 0.6139 0.7659 0.9516
C12_4 C 0.5120(3) 0.7415(2) 0.8236(4)
H8_4 H 0.5058 0.7107 0.8716
C13_4 C 0.4561(2) 0.7542(2) 0.7029(4)
C14_4 C 0.4696(3) 0.8004(2) 0.6367(4)
H9_4 H 0.4342 0.8097 0.5549
C15_4 C 0.5344(3) 0.8321(2) 0.6906(4)
H10_4 H 0.5415 0.8634 0.6446
C16_4 C 0.2398(3) 0.6564(2) 0.7404(4)
C17_6 C 0.2274(3) 0.5000 0.9124(5)
C18_6 C 0.1418(3) 0.5000 0.8667(5)
O5_4 O 0.25841(15) 0.45024(14) 0.9293(3)
O6_4 O 0.10985(15) 0.44997(13) 0.8500(3)
N5_4 N 0.3568(2) 0.29157(17) 0.5230(3)
O7_4 O 0.1837(2) 0.37590(17) 0.6898(4)
O8_4 O 0.26392(18) 0.32436(15) 0.8520(3)
C19_4 C 0.1725(3) 0.3688(2) 0.1286(4)
H11_4 H 0.1251 0.3847 0.0805
C20_4 C 0.1950(3) 0.3584(3) 0.2566(4)
H12_4 H 0.1632 0.3675 0.2930
C21_4 C 0.2650(2) 0.3346(2) 0.3303(4)
C22_4 C 0.3086(3) 0.3221(3) 0.2695(4)
H13_4 H 0.3559 0.3056 0.3148
C23_4 C 0.2830(3) 0.3339(2) 0.1431(4)
H14_4 H 0.3141 0.3254 0.1049
C24_4 C 0.2923(2) 0.3212(2) 0.4684(4)
C25_4 C 0.2524(2) 0.3398(2) 0.5359(4)
H15_4 H 0.2077 0.3608 0.4955
C26_4 C 0.2813(2) 0.3258(2) 0.6638(4)
C27_4 C 0.3490(2) 0.2963(2) 0.7210(4)
H16_4 H 0.3701 0.2875 0.8074
C28_4 C 0.3852(2) 0.2797(2) 0.6479(4)
C29_4 C 0.5766(3) 0.2248(2) 0.8712(4)
H17_4 H 0.6139 0.2341 0.9516
C30_4 C 0.5120(3) 0.2585(2) 0.8236(4)
H18_4 H 0.5058 0.2893 0.8716
C31_4 C 0.4561(2) 0.2458(2) 0.7029(4)
C32_4 C 0.4696(3) 0.1996(2) 0.6367(4)
H19_4 H 0.4342 0.1903 0.5549
C33_4 C 0.5344(3) 0.1679(2) 0.6906(4)
H20_4 H 0.5415 0.1366 0.6446
C34_4 C 0.2398(3) 0.3436(2) 0.7404(4)
loop_
_geom_bond_atom_site_label_1
_geom_bond_atom_site_label_2
_geom_bond_site_symmetry_1
_geom_bond_site_symmetry_2
Zn3 O1 1_555 1_555
N1 C1 1_555 1_555
N2 C6 1_555 1_555
O1 C16 1_555 1_555
O2 Zn3 1_555 1_555
O3 Zn3 1_555 1_555
O4 Zn3 1_555 1_555
C1 H1 1_555 1_555
C2 C1 1_555 1_555
H2 C2 1_555 1_555
C3 C2 1_555 1_555
C4 C3 1_555 1_555
H3 C4 1_555 1_555
C5 N1 1_555 1_555
H4 C5 1_555 1_555
C6 C3 1_555 1_555
C7 C6 1_555 1_555
H5 C7 1_555 1_555
C8 C7 1_555 1_555
C9 C8 1_555 1_555
H6 C9 1_555 1_555
C10 N2 1_555 1_555
C13 C10 1_555 1_555
C14 C13 1_555 1_555
H9 C14 1_555 1_555
C16 O2 1_555 1_555
C17 O3 1_555 1_555
C18 O4 1_555 1_555
N10 Zn3 1_555 1_555
C4 C5 1_555 1_555
C8 C16 1_555 1_555
C9 C10 1_555 1_555
C17 C18 1_555 1_555
O5 C17_2 1_555 1_555
O6 C18_2 1_555 1_555
Zn5 O5 1_555 1_555
N4 C19 1_555 1_555
N5 C24 1_555 1_555
O7 Zn5 1_555 1_555
O8 Zn5 1_555 1_555
C19 H11 1_555 1_555
C20 C19 1_555 1_555
H12 C20 1_555 1_555
C21 C20 1_555 1_555
C22 C21 1_555 1_555
H13 C22 1_555 1_555
C23 N4 1_555 1_555
H14 C23 1_555 1_555
C24 C21 1_555 1_555
C25 C24 1_555 1_555
H15 C25 1_555 1_555
C26 C25 1_555 1_555
C27 C26 1_555 1_555
H16 C27 1_555 1_555
C28 N5 1_555 1_555
C31 C28 1_555 1_555
C32 C31 1_555 1_555
H19 C32 1_555 1_555
C34 O7 1_555 1_555
N9 Zn5 1_555 1_555
C17_2 C18_2 1_555 1_555
O6 Zn5 1_555 1_555
O8 C34 1_555 1_555
C22 C23 1_555 1_555
C26 C34 1_555 1_555
C27 C28 1_555 1_555
N3 C11 1_555 1_555
C11 H7 1_555 1_555
C12 C11 1_555 1_555
H8 C12 1_555 1_555
C15 N3 1_555 1_555
H10 C15 1_555 1_555
Zn6 N3 1_555 1_555
N6 C29 1_555 1_555
C29 H17 1_555 1_555
C30 C29 1_555 1_555
H18 C30 1_555 1_555
C33 N6 1_555 1_555
H20 C33 1_555 1_555
Zn4 N6 1_555 1_555
Zn4 O1_2 1_555 1_555
N1_2 C1_2 1_555 1_555
N2_2 C6_2 1_555 1_555
N9 C11_2 1_555 1_555
O1_2 C16_2 1_555 1_555
O2_2 Zn4 1_555 1_555
O3_2 Zn4 1_555 1_555
O4_2 Zn4 1_555 1_555
C1_2 H1_2 1_555 1_555
C2_2 C1_2 1_555 1_555
H2_2 C2_2 1_555 1_555
C3_2 C2_2 1_555 1_555
C4_2 C3_2 1_555 1_555
H3_2 C4_2 1_555 1_555
C5_2 N1_2 1_555 1_555
H4_2 C5_2 1_555 1_555
C6_2 C3_2 1_555 1_555
C7_2 C6_2 1_555 1_555
H5_2 C7_2 1_555 1_555
C8_2 C7_2 1_555 1_555
C9_2 C8_2 1_555 1_555
H6_2 C9_2 1_555 1_555
C10_2 N2_2 1_555 1_555
C11_2 H7_2 1_555 1_555
C12_2 C11_2 1_555 1_555
H8_2 C12_2 1_555 1_555
C13_2 C10_2 1_555 1_555
C14_2 C13_2 1_555 1_555
H9_2 C14_2 1_555 1_555
C15_2 N9 1_555 1_555
H10_2 C15_2 1_555 1_555
C16_2 O2_2 1_555 1_555
C17_3 O3_2 1_555 1_555
C18_3 O4_2 1_555 1_555
O5_2 C17_3 1_555 1_555
O6_2 C18_3 1_555 1_555
Zn6 O5_2 1_555 1_555
N4_2 C19_2 1_555 1_555
N5_2 C24_2 1_555 1_555
N10 C29_2 1_555 1_555
O7_2 Zn6 1_555 1_555
O8_2 Zn6 1_555 1_555
C19_2 H11_2 1_555 1_555
C20_2 C19_2 1_555 1_555
H12_2 C20_2 1_555 1_555
C21_2 C20_2 1_555 1_555
C22_2 C21_2 1_555 1_555
H13_2 C22_2 1_555 1_555
C23_2 N4_2 1_555 1_555
H14_2 C23_2 1_555 1_555
C24_2 C21_2 1_555 1_555
C25_2 C24_2 1_555 1_555
H15_2 C25_2 1_555 1_555
C26_2 C25_2 1_555 1_555
C27_2 C26_2 1_555 1_555
H16_2 C27_2 1_555 1_555
C28_2 N5_2 1_555 1_555
C29_2 H17_2 1_555 1_555
C30_2 C29_2 1_555 1_555
H18_2 C30_2 1_555 1_555
C31_2 C28_2 1_555 1_555
C32_2 C31_2 1_555 1_555
H19_2 C32_2 1_555 1_555
C33_2 N10 1_555 1_555
H20_2 C33_2 1_555 1_555
C34_2 O7_2 1_555 1_555
C4_2 C5_2 1_555 1_555
C8_2 C16_2 1_555 1_555
C9_2 C10_2 1_555 1_555
C12_2 C13_2 1_555 1_555
C14_2 C15_2 1_555 1_555
C17_3 C18_3 1_555 1_555
O6_2 Zn6 1_555 1_555
O8_2 C34_2 1_555 1_555
C22_2 C23_2 1_555 1_555
C26_2 C34_2 1_555 1_555
C27_2 C28_2 1_555 1_555
C30_2 C31_2 1_555 1_555
C32_2 C33_2 1_555 1_555
N3_2 C11_3 1_555 1_555
C11_3 H7_3 1_555 1_555
C12_3 C11_3 1_555 1_555
H8_3 C12_3 1_555 1_555
C15_3 N3_2 1_555 1_555
H10_3 C15_3 1_555 1_555
Zn6_2 N3_2 1_555 1_555
N6_2 C29_3 1_555 1_555
C29_3 H17_3 1_555 1_555
C30_3 C29_3 1_555 1_555
H18_3 C30_3 1_555 1_555
C33_3 N6_2 1_555 1_555
H20_3 C33_3 1_555 1_555
Zn4_2 N6_2 1_555 1_555
Zn1 O1_3 1_555 1_555
N7 C1_3 1_555 1_555
N2_3 C6_3 1_555 1_555
O1_3 C16_3 1_555 1_555
O2_3 Zn1 1_555 1_555
O3_3 Zn1 1_555 1_555
O4_3 Zn1 1_555 1_555
C1_3 H1_3 1_555 1_555
C2_3 C1_3 1_555 1_555
H2_3 C2_3 1_555 1_555
C3_3 C2_3 1_555 1_555
C4_3 C3_3 1_555 1_555
H3_3 C4_3 1_555 1_555
C5_3 N7 1_555 1_555
H4_3 C5_3 1_555 1_555
C6_3 C3_3 1_555 1_555
C7_3 C6_3 1_555 1_555
H5_3 C7_3 1_555 1_555
C8_3 C7_3 1_555 1_555
C9_3 C8_3 1_555 1_555
H6_3 C9_3 1_555 1_555
C10_3 N2_3 1_555 1_555
C13_3 C10_3 1_555 1_555
C14_3 C13_3 1_555 1_555
H9_3 C14_3 1_555 1_555
C16_3 O2_3 1_555 1_555
C17_4 O3_3 1_555 1_555
C18_4 O4_3 1_555 1_555
N10_2 Zn1 1_555 1_555
C4_3 C5_3 1_555 1_555
C8_3 C16_3 1_555 1_555
C9_3 C10_3 1_555 1_555
C17_4 C18_4 1_555 1_555
O5_3 C17_5 1_555 1_555
O6_3 C18_5 1_555 1_555
Zn2 O5_3 1_555 1_555
N8 C19_3 1_555 1_555
N5_3 C24_3 1_555 1_555
O7_3 Zn2 1_555 1_555
O8_3 Zn2 1_555 1_555
C19_3 H11_3 1_555 1_555
C20_3 C19_3 1_555 1_555
H12_3 C20_3 1_555 1_555
C21_3 C20_3 1_555 1_555
C22_3 C21_3 1_555 1_555
H13_3 C22_3 1_555 1_555
C23_3 N8 1_555 1_555
H14_3 C23_3 1_555 1_555
C24_3 C21_3 1_555 1_555
C25_3 C24_3 1_555 1_555
H15_3 C25_3 1_555 1_555
C26_3 C25_3 1_555 1_555
C27_3 C26_3 1_555 1_555
H16_3 C27_3 1_555 1_555
C28_3 N5_3 1_555 1_555
C31_3 C28_3 1_555 1_555
C32_3 C31_3 1_555 1_555
H19_3 C32_3 1_555 1_555
C34_3 O7_3 1_555 1_555
N9_2 Zn2 1_555 1_555
C17_5 C18_5 1_555 1_555
O6_3 Zn2 1_555 1_555
O8_3 C34_3 1_555 1_555
C22_3 C23_3 1_555 1_555
C26_3 C34_3 1_555 1_555
C27_3 C28_3 1_555 1_555
Zn4_2 O1_4 1_555 1_555
N7_2 C1_4 1_555 1_555
N2_4 C6_4 1_555 1_555
N9_2 C11_4 1_555 1_555
O1_4 C16_4 1_555 1_555
O2_4 Zn4_2 1_555 1_555
O3_4 Zn4_2 1_555 1_555
O4_4 Zn4_2 1_555 1_555
C1_4 H1_4 1_555 1_555
C2_4 C1_4 1_555 1_555
H2_4 C2_4 1_555 1_555
C3_4 C2_4 1_555 1_555
C4_4 C3_4 1_555 1_555
H3_4 C4_4 1_555 1_555
C5_4 N7_2 1_555 1_555
H4_4 C5_4 1_555 1_555
C6_4 C3_4 1_555 1_555
C7_4 C6_4 1_555 1_555
H5_4 C7_4 1_555 1_555
C8_4 C7_4 1_555 1_555
C9_4 C8_4 1_555 1_555
H6_4 C9_4 1_555 1_555
C10_4 N2_4 1_555 1_555
C11_4 H7_4 1_555 1_555
C12_4 C11_4 1_555 1_555
H8_4 C12_4 1_555 1_555
C13_4 C10_4 1_555 1_555
C14_4 C13_4 1_555 1_555
H9_4 C14_4 1_555 1_555
C15_4 N9_2 1_555 1_555
H10_4 C15_4 1_555 1_555
C16_4 O2_4 1_555 1_555
C17_6 O3_4 1_555 1_555
C18_6 O4_4 1_555 1_555
O5_4 C17_6 1_555 1_555
O6_4 C18_6 1_555 1_555
Zn6_2 O5_4 1_555 1_555
N8_2 C19_4 1_555 1_555
N5_4 C24_4 1_555 1_555
N10_2 C29_4 1_555 1_555
O7_4 Zn6_2 1_555 1_555
O8_4 Zn6_2 1_555 1_555
C19_4 H11_4 1_555 1_555
C20_4 C19_4 1_555 1_555
H12_4 C20_4 1_555 1_555
C21_4 C20_4 1_555 1_555
C22_4 C21_4 1_555 1_555
H13_4 C22_4 1_555 1_555
C23_4 N8_2 1_555 1_555
H14_4 C23_4 1_555 1_555
C24_4 C21_4 1_555 1_555
C25_4 C24_4 1_555 1_555
H15_4 C25_4 1_555 1_555
C26_4 C25_4 1_555 1_555
C27_4 C26_4 1_555 1_555
H16_4 C27_4 1_555 1_555
C28_4 N5_4 1_555 1_555
C29_4 H17_4 1_555 1_555
C30_4 C29_4 1_555 1_555
H18_4 C30_4 1_555 1_555
C31_4 C28_4 1_555 1_555
C32_4 C31_4 1_555 1_555
H19_4 C32_4 1_555 1_555
C33_4 N10_2 1_555 1_555
H20_4 C33_4 1_555 1_555
C34_4 O7_4 1_555 1_555
C4_4 C5_4 1_555 1_555
C8_4 C16_4 1_555 1_555
C9_4 C10_4 1_555 1_555
C12_4 C13_4 1_555 1_555
C14_4 C15_4 1_555 1_555
C17_6 C18_6 1_555 1_555
O6_4 Zn6_2 1_555 1_555
O8_4 C34_4 1_555 1_555
C22_4 C23_4 1_555 1_555
C26_4 C34_4 1_555 1_555
C27_4 C28_4 1_555 1_555
C30_4 C31_4 1_555 1_555
C32_4 C33_4 1_555 1_555

#END
