
###############################################################################
#
# This file contains modified crystal structure data generated from the
# MOF subset of the Cambridge Structural Database (CSD) v543 
# hosted by the Cambridge Crystallographic Data Centre (CCDC).
#
# This work is licensed under the Creative Commons
# Attribution-NonCommercial-ShareAlike 4.0 International License.
# To view a copy of this license, visit
# http://creativecommons.org/licenses/by-nc-sa/4.0/
# or send a letter to
# Creative Commons, PO Box 1866, Mountain View, CA 94042, USA.
#
# CIF created using the CSD Python API on 29 September 2022
# The structure has been converted into the P1 space group
# The structure has a 3D framework
# The original CSD entry XIDCIZ is in the monoclinic crystal system
# The framework has been calculated to contain at least 10.0% void space
# The void calculation uses a probe of radius 1.32A, grid spacing 0.4
# H atom positions have been added when not included in the experimental data
#
###############################################################################

data_XIDCIZ
_chemical_formula_moiety         '(C124 H108 Cu12 N4 O56 P8)n'
_symmetry_cell_setting           triclinic
_symmetry_space_group_name_H-M   'P 1'
_symmetry_Int_Tables_number      1
_space_group_name_Hall           'P 1'
loop_
_symmetry_equiv_pos_site_id
_symmetry_equiv_pos_as_xyz
1 x,y,z
_cell_length_a                   12.86130(10)
_cell_length_b                   18.9007(2)
_cell_length_c                   20.5254(2)
_cell_angle_alpha                90
_cell_angle_beta                 102.9910(10)
_cell_angle_gamma                90
_cell_volume                     4861.77
loop_
_atom_site_label
_atom_site_type_symbol
_atom_site_fract_x
_atom_site_fract_y
_atom_site_fract_z
Cu4 Cu 0.41469(3) 0.001534(19) 0.767689(17)
Cu10 Cu 0.01168(3) 0.03355(2) 0.753592(18)
Cu3 Cu 0.51168(3) 0.46645(2) 0.253592(18)
P2 P 0.30355(5) 0.41402(3) 0.15747(3)
O1 O 0.39901(4) 0.46781(4) 0.30457(3)
H1 H 0.3455 0.4441 0.2838
H2 H 0.3800 0.5104 0.3089
O4 O 0.50751(7) 0.08799(4) 0.20661(5)
O6 O 0.61868(5) 0.47517(3) 0.20001(4)
H3 H 0.6156 0.5169 0.1805
H4 H 0.6096 0.4429 0.1682
O7 O 0.50920(6) 0.95385(4) 0.14824(4)
O9 O 0.36491(7) 0.06839(4) 0.24796(5)
O10 O 0.35301(6) 0.94685(3) 0.17600(4)
C3 C 0.26946(6) 0.27995(3) 0.20499(4)
H5 H 0.2096 0.3000 0.2182
C5 C 0.1314(2) 0.42237(14) 0.04927(13)
H6 H 0.0893 0.4114 0.0805
C6 C 0.3295(2) 0.32102(14) 0.17098(12)
C7 C 0.3855(2) 0.18029(14) 0.20083(13)
C8 C 0.3040(2) 0.43683(15) 0.02345(14)
H7 H 0.3796 0.4369 0.0374
C9 C 0.4217(2) 0.10621(14) 0.21987(12)
C14 C 0.2421(2) 0.42483(13) 0.07008(12)
C15 C 0.3581(2) 0.93391(14) 0.06234(13)
C18 C 0.4097(2) 0.94410(13) 0.13485(13)
C21 C 0.4208(2) 0.93317(14) 0.01524(13)
H14 H 0.4963 0.9311 0.0295
C22 C 0.4447(2) 0.22177(14) 0.16560(13)
H15 H 0.5045 0.2019 0.1522
C24 C 0.4167(2) 0.29149(15) 0.15016(13)
H17 H 0.4562 0.3192 0.1256
C26 C 0.2467(2) 0.93240(15) 0.04083(13)
H18 H 0.2037 0.9291 0.0728
C27 C 0.2969(2) 0.20901(14) 0.21998(14)
H19 H 0.2555 0.1808 0.2429
O12 O 0.22925(14) 0.43842(10) 0.19939(9)
O14 O 0.41134(14) 0.45034(10) 0.16927(9)
O15 O 0.56506(18) 0.35491(11) 0.29186(11)
N1 N 0.5294(2) 0.25489(15) 0.34590(14)
C29 C 0.5052(3) 0.31866(17) 0.31883(15)
C30 C 0.4551(3) 0.21739(19) 0.37780(18)
H21 H 0.4886 0.2092 0.4250
H22 H 0.4363 0.1719 0.3554
H23 H 0.3905 0.2459 0.3745
C31 C 0.6303(3) 0.22105(18) 0.34603(18)
H24 H 0.6720 0.2511 0.3225
H25 H 0.6174 0.1752 0.3235
H26 H 0.6700 0.2140 0.3923
Cu6 Cu 0.58531(3) 0.998466(19) 0.232311(17)
Cu7 Cu 0.09077(3) 0.470693(19) 0.228308(17)
Cu9 Cu 0.40923(3) 0.970693(19) 0.271692(17)
O22 O 0.60140(14) 0.50954(10) 0.33199(9)
H27 H 0.427565 0.340717 0.320364
Cu1 Cu 0.08531(3) 0.501534(19) 0.732311(17)
P1 P 0.20063(5) 0.94568(3) 0.83849(3)
O2 O 0.13462(4) 0.59591(4) 0.76506(3)
O8 O 0.14203(4) 0.46520(4) 0.82239(3)
C1 C 0.06881(4) 0.63860(4) 0.78126(3)
C2 C 0.26319(5) 0.93911(3) 0.92658(3)
C4 C 0.1018(2) 0.71446(14) 0.79353(13)
C10 C 0.1992(2) 0.93558(15) 0.97398(14)
H8 H 0.1237 0.9354 0.9597
C11 C 0.1600(2) 0.85595(14) 0.81609(13)
C12 C 0.2012(2) 0.73767(14) 0.78486(14)
H9 H 0.2488 0.7053 0.7714
C13 C 0.0823(2) 0.43594(14) 0.98284(13)
H10 H 0.0066 0.4353 0.9689
C16 C 0.2297(2) 0.80800(15) 0.79604(14)
H11 H 0.2971 0.8238 0.7901
C17 C 0.0908(2) 0.47095(13) 0.86598(12)
C19 C 0.3736(2) 0.93539(14) 0.94753(13)
H12 H 0.4167 0.9344 0.9155
C20 C 0.2553(2) 0.44876(15) 0.95642(13)
H13 H 0.2974 0.4557 0.9244
C23 C 0.0322(2) 0.76210(15) 0.81326(15)
C25 C 0.1439(2) 0.45037(14) 0.93699(12)
C28 C 0.0608(2) 0.83249(15) 0.82438(15)
H20 H 0.0130 0.8648 0.8377
O11 O 0.27995(14) 0.96970(10) 0.79984(9)
O13 O 0.10140(14) 0.99046(10) 0.83199(9)
O16 O 0.00751(7) 0.41201(4) 0.70661(5)
O17 O 0.00920(6) 0.54615(4) 0.64824(4)
O20 O 0.22005(14) 0.46970(10) 0.70016(9)
Cu2 Cu 0.90923(3) 0.529307(19) 0.771692(17)
O3 O 0.97610(4) 0.62282(4) 0.78659(3)
O5 O 0.99738(4) 0.49353(4) 0.85811(3)
H16 H 0.9648 0.7463 0.8191
O18 O 0.86491(7) 0.43161(4) 0.74796(5)
O19 O 0.85301(6) 0.55315(3) 0.67600(4)
O21 O 0.77075(14) 0.56158(10) 0.80061(9)
Cu2_2 Cu 0.59077(3) 0.029307(19) 0.728308(17)
P1_2 P 0.29937(5) 0.44568(3) 0.66151(3)
H2_2 H 0.1200 0.0104 0.1911
O2_2 O 0.36538(4) 0.09591(4) 0.73494(3)
O3_2 O 0.52390(4) 0.12282(4) 0.71341(3)
C1_2 C 0.43119(4) 0.13860(4) 0.71874(3)
C2_2 C 0.23681(5) 0.43911(3) 0.57342(3)
O10_2 O 0.14699(6) 0.44685(3) 0.32400(4)
C4_2 C 0.3982(2) 0.21446(14) 0.70647(13)
C10_2 C 0.3008(2) 0.43558(15) 0.52602(14)
H8_2 H 0.3763 0.4354 0.5403
C11_2 C 0.3400(2) 0.35595(14) 0.68391(13)
C12_2 C 0.2988(2) 0.23767(14) 0.71514(14)
H9_2 H 0.2512 0.2053 0.7286
C15_2 C 0.1419(2) 0.43391(14) 0.43766(13)
C16_2 C 0.2703(2) 0.30800(15) 0.70396(14)
H11_2 H 0.2029 0.3238 0.7099
C18_2 C 0.0903(2) 0.44410(13) 0.36515(13)
C19_2 C 0.1264(2) 0.43539(14) 0.55247(13)
H12_2 H 0.0833 0.4344 0.5845
C21_2 C 0.0792(2) 0.43317(14) 0.48476(13)
H14_2 H 0.0037 0.4311 0.4705
C23_2 C 0.4678(2) 0.26210(15) 0.68674(15)
H16_2 H 0.5352 0.2463 0.6809
C26_2 C 0.2533(2) 0.43240(15) 0.45917(13)
H18_2 H 0.2963 0.4291 0.4272
C28_2 C 0.4392(2) 0.33249(15) 0.67562(15)
H20_2 H 0.4870 0.3648 0.6623
O13_2 O 0.39860(14) 0.49046(10) 0.66801(9)
Cu10_2 Cu 0.48832(3) 0.53355(2) 0.746408(18)
O17_2 O 0.49080(6) 0.04615(4) 0.85176(4)
O19_2 O 0.64699(6) 0.05315(3) 0.82400(4)
O21_2 O 0.72925(14) 0.06158(10) 0.69939(9)
P2_2 P 0.19645(5) 0.91402(3) 0.34253(3)
O1_2 O 0.10099(4) 0.96781(4) 0.19543(3)
H1_2 H 0.1545 0.9441 0.2162
O5_2 O 0.50262(4) 0.99353(4) 0.64189(3)
O8_2 O 0.35797(4) 0.96520(4) 0.67761(3)
O9_2 O 0.13509(7) 0.56839(4) 0.25204(5)
C3_2 C 0.23054(6) 0.77995(3) 0.29501(4)
H5_2 H 0.2904 0.8000 0.2818
C5_2 C 0.3686(2) 0.92237(14) 0.45073(13)
H6_2 H 0.4107 0.9114 0.4195
C6_2 C 0.1705(2) 0.82102(14) 0.32902(12)
C7_2 C 0.1145(2) 0.68029(14) 0.29917(13)
C8_2 C 0.1960(2) 0.93683(15) 0.47655(14)
H7_2 H 0.1204 0.9369 0.4626
C9_2 C 0.0783(2) 0.60621(14) 0.28013(12)
C13_2 C 0.4177(2) 0.93594(14) 0.51716(13)
H10_2 H 0.4934 0.9353 0.5311
C14_2 C 0.2579(2) 0.92483(13) 0.42992(12)
C17_2 C 0.4092(2) 0.97095(13) 0.63402(12)
C20_2 C 0.2447(2) 0.94876(15) 0.54358(13)
H13_2 H 0.2026 0.9557 0.5756
C22_2 C 0.0553(2) 0.72177(14) 0.33440(13)
C24_2 C 0.0833(2) 0.79149(15) 0.34984(13)
H17_2 H 0.0438 0.8192 0.3744
C25_2 C 0.3561(2) 0.95037(14) 0.56301(12)
C27_2 C 0.2031(2) 0.70901(14) 0.28002(14)
H19_2 H 0.2445 0.6808 0.2571
O12_2 O 0.27075(14) 0.93842(10) 0.30061(9)
O14_2 O 0.08866(14) 0.95034(10) 0.33073(9)
C30_2 C 0.0449(3) 0.71739(19) 0.12220(18)
H21_2 H 0.0114 0.7092 0.0750
H22_2 H 0.0637 0.6719 0.1446
H23_2 H 0.1095 0.7459 0.1255
O16_2 O 0.49249(7) 0.91201(4) 0.79339(5)
O18_2 O 0.63509(7) 0.93161(4) 0.75204(5)
H27_2 H 0.0724354 0.840717 0.179636
H3_2 H 0.8844 0.0169 0.3195
O7_2 O 0.99080(6) 0.45385(4) 0.35176(4)
Cu6_2 Cu 0.91469(3) 0.498466(19) 0.267689(17)
O22_2 O 0.89860(14) 0.00954(10) 0.16801(9)
Cu3_2 Cu 0.98832(3) 0.96645(2) 0.246408(18)
O4_2 O 0.99249(7) 0.58799(4) 0.29339(5)
O6_2 O 0.88132(5) 0.97517(3) 0.29999(4)
H4_2 H 0.8904 0.9429 0.3318
H15_2 H 0.9955 0.7019 0.3478
O15_2 O 0.93494(18) 0.85491(11) 0.20814(11)
N1_2 N 0.9706(2) 0.75489(15) 0.15410(14)
C29_2 C 0.9948(3) 0.81866(17) 0.18117(15)
C31_2 C 0.8697(3) 0.72105(18) 0.15397(18)
H24_2 H 0.8280 0.7511 0.1775
H25_2 H 0.8826 0.6752 0.1765
H26_2 H 0.8300 0.7140 0.1077
O3_3 O 0.02390(4) 0.37718(4) 0.21341(3)
O5_3 O 0.00262(4) 0.50647(4) 0.14189(3)
H16_3 H 0.0352 0.2537 0.1809
P1_3 P 0.79937(5) 0.05432(3) 0.16151(3)
O2_3 O 0.86538(4) 0.40409(4) 0.23494(3)
O8_3 O 0.85797(4) 0.53480(4) 0.17761(3)
C1_3 C 0.93119(4) 0.36140(4) 0.21874(3)
C2_3 C 0.73681(5) 0.06089(3) 0.07342(3)
C4_3 C 0.8982(2) 0.28554(14) 0.20647(13)
C10_3 C 0.8008(2) 0.06442(15) 0.02602(14)
H8_3 H 0.8763 0.0646 0.0403
C11_3 C 0.8400(2) 0.14405(14) 0.18391(13)
C12_3 C 0.7988(2) 0.26233(14) 0.21514(14)
H9_3 H 0.7512 0.2947 0.2286
C13_3 C 0.9177(2) 0.56406(14) 0.01716(13)
H10_3 H 0.9934 0.5647 0.0311
C16_3 C 0.7703(2) 0.19200(15) 0.20396(14)
H11_3 H 0.7029 0.1762 0.2099
C17_3 C 0.9092(2) 0.52905(13) 0.13402(12)
C19_3 C 0.6264(2) 0.06461(14) 0.05247(13)
H12_3 H 0.5833 0.0656 0.0845
C20_3 C 0.7447(2) 0.55124(15) 0.04358(13)
H13_3 H 0.7026 0.5443 0.0756
C23_3 C 0.9678(2) 0.23790(15) 0.18674(15)
C25_3 C 0.8561(2) 0.54963(14) 0.06301(12)
C28_3 C 0.9392(2) 0.16751(15) 0.17562(15)
H20_3 H 0.9870 0.1352 0.1623
O11_2 O 0.72005(14) 0.03030(10) 0.20016(9)
O20_2 O 0.77995(14) 0.53030(10) 0.29984(9)
P2_3 P 0.69645(5) 0.58598(3) 0.84253(3)
O1_3 O 0.60099(4) 0.53219(4) 0.69543(3)
H1_3 H 0.6545 0.5559 0.7162
H2_3 H 0.6200 0.4896 0.6911
O6_3 O 0.38132(5) 0.52483(3) 0.79999(4)
H3_3 H 0.3844 0.4831 0.8195
H4_3 H 0.3904 0.5571 0.8318
C3_3 C 0.73054(6) 0.72005(3) 0.79501(4)
H5_3 H 0.7904 0.7000 0.7818
C5_3 C 0.8686(2) 0.57763(14) 0.95073(13)
H6_3 H 0.9107 0.5886 0.9195
C6_3 C 0.6705(2) 0.67898(14) 0.82902(12)
C7_3 C 0.6145(2) 0.81971(14) 0.79917(13)
C8_3 C 0.6960(2) 0.56317(15) 0.97655(14)
H7_3 H 0.6204 0.5631 0.9626
C9_3 C 0.5783(2) 0.89379(14) 0.78013(12)
C14_3 C 0.7579(2) 0.57517(13) 0.92992(12)
C15_3 C 0.6419(2) 0.06609(14) 0.93766(13)
C18_3 C 0.5903(2) 0.05590(13) 0.86515(13)
C21_3 C 0.5792(2) 0.06683(14) 0.98476(13)
H14_3 H 0.5037 0.0689 0.9705
C22_3 C 0.5553(2) 0.77823(14) 0.83440(13)
H15_3 H 0.4955 0.7981 0.8478
C24_3 C 0.5833(2) 0.70851(15) 0.84984(13)
H17_3 H 0.5438 0.6808 0.8744
C26_3 C 0.7533(2) 0.06760(15) 0.95917(13)
H18_3 H 0.7963 0.0709 0.9272
C27_3 C 0.7031(2) 0.79099(14) 0.78002(14)
H19_3 H 0.7445 0.8192 0.7571
O14_3 O 0.58866(14) 0.54966(10) 0.83073(9)
O15_3 O 0.43494(18) 0.64509(11) 0.70814(11)
N1_3 N 0.4706(2) 0.74511(15) 0.65410(14)
C29_3 C 0.4948(3) 0.68134(17) 0.68117(15)
C30_3 C 0.5449(3) 0.78261(19) 0.62220(18)
H21_3 H 0.5114 0.7908 0.5750
H22_3 H 0.5637 0.8281 0.6446
H23_3 H 0.6095 0.7541 0.6255
C31_3 C 0.3697(3) 0.77895(18) 0.65397(18)
H24_3 H 0.3280 0.7489 0.6775
H25_3 H 0.3826 0.8248 0.6765
H26_3 H 0.3300 0.7860 0.6077
H27_3 H 0.572435 0.659283 0.679636
O6_4 O 0.11868(5) 0.02483(3) 0.70001(4)
H4_4 H 0.1096 0.0571 0.6682
H15_4 H 0.0045 0.2981 0.6522
O15_4 O 0.06506(18) 0.14509(11) 0.79186(11)
N1_4 N 0.0294(2) 0.24511(15) 0.84590(14)
C29_4 C 0.0052(3) 0.18134(17) 0.81883(15)
C31_4 C 0.1303(3) 0.27895(18) 0.84603(18)
H24_4 H 0.1720 0.2489 0.8225
H25_4 H 0.1174 0.3248 0.8235
H26_4 H 0.1700 0.2860 0.8923
H3_4 H 0.1156 0.9831 0.6805
P2_4 P 0.80355(5) 0.08598(3) 0.65747(3)
O1_4 O 0.89901(4) 0.03219(4) 0.80457(3)
H1_4 H 0.8455 0.0559 0.7838
O5_4 O 0.49738(4) 0.00647(4) 0.35811(3)
O8_4 O 0.64203(4) 0.03480(4) 0.32239(3)
C3_4 C 0.76946(6) 0.22005(3) 0.70499(4)
H5_4 H 0.7096 0.2000 0.7182
C5_4 C 0.6314(2) 0.07763(14) 0.54927(13)
H6_4 H 0.5893 0.0886 0.5805
C6_4 C 0.8295(2) 0.17898(14) 0.67098(12)
C7_4 C 0.8855(2) 0.31971(14) 0.70083(13)
C8_4 C 0.8040(2) 0.06317(15) 0.52345(14)
H7_4 H 0.8796 0.0631 0.5374
C9_4 C 0.9217(2) 0.39379(14) 0.71987(12)
C13_4 C 0.5823(2) 0.06406(14) 0.48284(13)
H10_4 H 0.5066 0.0647 0.4689
C14_4 C 0.7421(2) 0.07517(13) 0.57008(12)
C17_4 C 0.5908(2) 0.02905(13) 0.36598(12)
C20_4 C 0.7553(2) 0.05124(15) 0.45642(13)
H13_4 H 0.7974 0.0443 0.4244
C22_4 C 0.9447(2) 0.27823(14) 0.66560(13)
C24_4 C 0.9167(2) 0.20851(15) 0.65016(13)
H17_4 H 0.9562 0.1808 0.6256
C25_4 C 0.6439(2) 0.04963(14) 0.43699(12)
C27_4 C 0.7969(2) 0.29099(14) 0.71998(14)
H19_4 H 0.7555 0.3192 0.7429
O14_4 O 0.91134(14) 0.04966(10) 0.66927(9)
C30_4 C 0.9551(3) 0.28261(19) 0.87780(18)
H21_4 H 0.9886 0.2908 0.9250
H22_4 H 0.9363 0.3281 0.8554
H23_4 H 0.8905 0.2541 0.8745
H27_4 H 0.927565 0.159283 0.820364
P1_4 P 0.70063(5) 0.55432(3) 0.33849(3)
H2_4 H 0.8800 0.9896 0.8089
O2_4 O 0.63462(4) 0.90409(4) 0.26506(3)
O3_4 O 0.47610(4) 0.87718(4) 0.28659(3)
C1_4 C 0.56881(4) 0.86140(4) 0.28126(3)
C2_4 C 0.76319(5) 0.56089(3) 0.42658(3)
C4_4 C 0.6018(2) 0.78554(14) 0.29353(13)
C10_4 C 0.6992(2) 0.56442(15) 0.47398(14)
H8_4 H 0.6237 0.5646 0.4597
C11_4 C 0.6600(2) 0.64405(14) 0.31609(13)
C12_4 C 0.7012(2) 0.76233(14) 0.28486(14)
H9_4 H 0.7488 0.7947 0.2714
C15_4 C 0.8581(2) 0.56609(14) 0.56234(13)
C16_4 C 0.7297(2) 0.69200(15) 0.29604(14)
H11_4 H 0.7971 0.6762 0.2901
C18_4 C 0.9097(2) 0.55590(13) 0.63485(13)
C19_4 C 0.8736(2) 0.56461(14) 0.44753(13)
H12_4 H 0.9167 0.5656 0.4155
C21_4 C 0.9208(2) 0.56683(14) 0.51524(13)
H14_4 H 0.9963 0.5689 0.5295
C23_4 C 0.5322(2) 0.73790(15) 0.31326(15)
H16_4 H 0.4648 0.7537 0.3191
C26_4 C 0.7467(2) 0.56760(15) 0.54083(13)
H18_4 H 0.7037 0.5709 0.5728
C28_4 C 0.5608(2) 0.66751(15) 0.32438(15)
H20_4 H 0.5130 0.6352 0.3377
loop_
_geom_bond_atom_site_label_1
_geom_bond_atom_site_label_2
_geom_bond_site_symmetry_1
_geom_bond_site_symmetry_2
Cu3 O1 1_555 1_555
P2 C6 1_555 1_555
O1 H1 1_555 1_555
H2 O1 1_555 1_555
O4 C9 1_555 1_555
O6 Cu3 1_555 1_555
H3 O6 1_555 1_555
H4 O6 1_555 1_555
O7 C18 1_555 1_555
O9 C9 1_555 1_555
O10 C18 1_555 1_555
C3 H5 1_555 1_555
C5 H6 1_555 1_555
C6 C3 1_555 1_555
C7 C9 1_555 1_555
C8 H7 1_555 1_555
C14 P2 1_555 1_555
C15 C18 1_555 1_555
C21 C15 1_555 1_555
H14 C21 1_555 1_555
C22 C7 1_555 1_555
H15 C22 1_555 1_555
C24 C6 1_555 1_555
H17 C24 1_555 1_555
H18 C26 1_555 1_555
C27 C3 1_555 1_555
H19 C27 1_555 1_555
O12 P2 1_555 1_555
O14 Cu3 1_555 1_555
O15 Cu3 1_555 1_555
N1 C29 1_555 1_555
C29 O15 1_555 1_555
C30 N1 1_555 1_555
H21 C30 1_555 1_555
H22 C30 1_555 1_555
H23 C30 1_555 1_555
C31 N1 1_555 1_555
H24 C31 1_555 1_555
H25 C31 1_555 1_555
H26 C31 1_555 1_555
Cu6 O7 1_555 1_555
Cu7 O12 1_555 1_555
Cu9 O10 1_555 1_555
O22 Cu3 1_555 1_555
P2 O14 1_555 1_555
C5 C14 1_555 1_555
C7 C27 1_555 1_555
C8 C14 1_555 1_555
C15 C26 1_555 1_555
C22 C24 1_555 1_555
Cu6 Cu9 1_555 1_555
C29 H27 1_555 1_555
P1 C2 1_555 1_555
O2 Cu1 1_555 1_555
O8 Cu1 1_555 1_555
C1 O2 1_555 1_555
C2 C10 1_555 1_555
C4 C1 1_555 1_555
C10 H8 1_555 1_555
C11 P1 1_555 1_555
C12 C4 1_555 1_555
H9 C12 1_555 1_555
H10 C13 1_555 1_555
C16 C11 1_555 1_555
H11 C16 1_555 1_555
C19 C2 1_555 1_555
H12 C19 1_555 1_555
H13 C20 1_555 1_555
C23 C4 1_555 1_555
C25 C13 1_555 1_555
C28 C11 1_555 1_555
H20 C28 1_555 1_555
O11 P1 1_555 1_555
O13 P1 1_555 1_555
O16 Cu1 1_555 1_555
O17 Cu1 1_555 1_555
O20 Cu1 1_555 1_555
O8 C17 1_555 1_555
C12 C16 1_555 1_555
C17 C25 1_555 1_555
C20 C25 1_555 1_555
C23 C28 1_555 1_555
Cu2 O3 1_555 1_555
O5 Cu2 1_555 1_555
O18 Cu2 1_555 1_555
O19 Cu2 1_555 1_555
O21 Cu2 1_555 1_555
Cu4 Cu2_2 1_555 1_555
Cu2_2 O3_2 1_555 1_555
P1_2 C2_2 1_555 1_555
O2_2 Cu4 1_555 1_555
O3_2 C1_2 1_555 1_555
C1_2 O2_2 1_555 1_555
C2_2 C10_2 1_555 1_555
O10_2 C18_2 1_555 1_555
C4_2 C1_2 1_555 1_555
C10_2 H8_2 1_555 1_555
C11_2 P1_2 1_555 1_555
C12_2 C4_2 1_555 1_555
H9_2 C12_2 1_555 1_555
C15_2 C18_2 1_555 1_555
C16_2 C11_2 1_555 1_555
H11_2 C16_2 1_555 1_555
C19_2 C2_2 1_555 1_555
H12_2 C19_2 1_555 1_555
C21_2 C15_2 1_555 1_555
H14_2 C21_2 1_555 1_555
C23_2 C4_2 1_555 1_555
H16_2 C23_2 1_555 1_555
C26_2 C10_2 1_555 1_555
H18_2 C26_2 1_555 1_555
C28_2 C11_2 1_555 1_555
H20_2 C28_2 1_555 1_555
O20 P1_2 1_555 1_555
O13_2 P1_2 1_555 1_555
Cu7 O10_2 1_555 1_555
Cu10_2 O13_2 1_555 1_555
O17_2 Cu4 1_555 1_555
O19_2 Cu2_2 1_555 1_555
O21_2 Cu2_2 1_555 1_555
C12_2 C16_2 1_555 1_555
C15_2 C26_2 1_555 1_555
C19_2 C21_2 1_555 1_555
C23_2 C28_2 1_555 1_555
P2_2 C6_2 1_555 1_555
O1_2 H1_2 1_555 1_555
O9_2 C9_2 1_555 1_555
C3_2 H5_2 1_555 1_555
C5_2 H6_2 1_555 1_555
C6_2 C3_2 1_555 1_555
C7_2 C9_2 1_555 1_555
C8_2 H7_2 1_555 1_555
C13_2 C5_2 1_555 1_555
H10_2 C13_2 1_555 1_555
C14_2 P2_2 1_555 1_555
C17_2 O5_2 1_555 1_555
C20_2 C8_2 1_555 1_555
H13_2 C20_2 1_555 1_555
C22_2 C7_2 1_555 1_555
C24_2 C6_2 1_555 1_555
H17_2 C24_2 1_555 1_555
C25_2 C13_2 1_555 1_555
C27_2 C3_2 1_555 1_555
H19_2 C27_2 1_555 1_555
O12_2 P2_2 1_555 1_555
H21_2 C30_2 1_555 1_555
H22_2 C30_2 1_555 1_555
H23_2 C30_2 1_555 1_555
Cu9 O12_2 1_555 1_555
Cu7 O9_2 1_555 1_555
P2_2 O14_2 1_555 1_555
O8_2 C17_2 1_555 1_555
C5_2 C14_2 1_555 1_555
C7_2 C27_2 1_555 1_555
C8_2 C14_2 1_555 1_555
C17_2 C25_2 1_555 1_555
C20_2 C25_2 1_555 1_555
C22_2 C24_2 1_555 1_555
Cu6_2 O7_2 1_555 1_555
O6_2 Cu3_2 1_555 1_555
H4_2 O6_2 1_555 1_555
O15_2 Cu3_2 1_555 1_555
N1_2 C29_2 1_555 1_555
C29_2 O15_2 1_555 1_555
C31_2 N1_2 1_555 1_555
H24_2 C31_2 1_555 1_555
H25_2 C31_2 1_555 1_555
H26_2 C31_2 1_555 1_555
Cu6_2 O4_2 1_555 1_555
Cu7 O3_3 1_555 1_555
O5_3 Cu7 1_555 1_555
P1_3 C2_3 1_555 1_555
O2_3 Cu6_2 1_555 1_555
O8_3 Cu6_2 1_555 1_555
C1_3 O2_3 1_555 1_555
C2_3 C10_3 1_555 1_555
C4_3 C1_3 1_555 1_555
C10_3 H8_3 1_555 1_555
C11_3 P1_3 1_555 1_555
C12_3 C4_3 1_555 1_555
H9_3 C12_3 1_555 1_555
H10_3 C13_3 1_555 1_555
C16_3 C11_3 1_555 1_555
H11_3 C16_3 1_555 1_555
C19_3 C2_3 1_555 1_555
H12_3 C19_3 1_555 1_555
H13_3 C20_3 1_555 1_555
C23_3 C4_3 1_555 1_555
C25_3 C13_3 1_555 1_555
C28_3 C11_3 1_555 1_555
H20_3 C28_3 1_555 1_555
O11_2 P1_3 1_555 1_555
O22_2 P1_3 1_555 1_555
O20_2 Cu6_2 1_555 1_555
O8_3 C17_3 1_555 1_555
C12_3 C16_3 1_555 1_555
C17_3 C25_3 1_555 1_555
C20_3 C25_3 1_555 1_555
C23_3 C28_3 1_555 1_555
Cu10_2 O1_3 1_555 1_555
P2_3 C6_3 1_555 1_555
O1_3 H1_3 1_555 1_555
H2_3 O1_3 1_555 1_555
O16_2 C9_3 1_555 1_555
O6_3 Cu10_2 1_555 1_555
H3_3 O6_3 1_555 1_555
H4_3 O6_3 1_555 1_555
O17_2 C18_3 1_555 1_555
O18_2 C9_3 1_555 1_555
O19_2 C18_3 1_555 1_555
C3_3 H5_3 1_555 1_555
C5_3 H6_3 1_555 1_555
C6_3 C3_3 1_555 1_555
C7_3 C9_3 1_555 1_555
C8_3 H7_3 1_555 1_555
C14_3 P2_3 1_555 1_555
C15_3 C18_3 1_555 1_555
C21_3 C15_3 1_555 1_555
H14_3 C21_3 1_555 1_555
C22_3 C7_3 1_555 1_555
H15_3 C22_3 1_555 1_555
C24_3 C6_3 1_555 1_555
H17_3 C24_3 1_555 1_555
H18_3 C26_3 1_555 1_555
C27_3 C3_3 1_555 1_555
H19_3 C27_3 1_555 1_555
O21 P2_3 1_555 1_555
O14_3 Cu10_2 1_555 1_555
O15_3 Cu10_2 1_555 1_555
N1_3 C29_3 1_555 1_555
C29_3 O15_3 1_555 1_555
C30_3 N1_3 1_555 1_555
H21_3 C30_3 1_555 1_555
H22_3 C30_3 1_555 1_555
H23_3 C30_3 1_555 1_555
C31_3 N1_3 1_555 1_555
H24_3 C31_3 1_555 1_555
H25_3 C31_3 1_555 1_555
H26_3 C31_3 1_555 1_555
P2_3 O14_3 1_555 1_555
C5_3 C14_3 1_555 1_555
C7_3 C27_3 1_555 1_555
C8_3 C14_3 1_555 1_555
C15_3 C26_3 1_555 1_555
C22_3 C24_3 1_555 1_555
C29_3 H27_3 1_555 1_555
O6_4 Cu10 1_555 1_555
H4_4 O6_4 1_555 1_555
O15_4 Cu10 1_555 1_555
N1_4 C29_4 1_555 1_555
C29_4 O15_4 1_555 1_555
C31_4 N1_4 1_555 1_555
H24_4 C31_4 1_555 1_555
H25_4 C31_4 1_555 1_555
H26_4 C31_4 1_555 1_555
P2_4 C6_4 1_555 1_555
O1_4 H1_4 1_555 1_555
O18 C9_4 1_555 1_555
C3_4 H5_4 1_555 1_555
C5_4 H6_4 1_555 1_555
C6_4 C3_4 1_555 1_555
C7_4 C9_4 1_555 1_555
C8_4 H7_4 1_555 1_555
C13_4 C5_4 1_555 1_555
H10_4 C13_4 1_555 1_555
C14_4 P2_4 1_555 1_555
C17_4 O5_4 1_555 1_555
C20_4 C8_4 1_555 1_555
H13_4 C20_4 1_555 1_555
C22_4 C7_4 1_555 1_555
C24_4 C6_4 1_555 1_555
H17_4 C24_4 1_555 1_555
C25_4 C13_4 1_555 1_555
C27_4 C3_4 1_555 1_555
H19_4 C27_4 1_555 1_555
O21_2 P2_4 1_555 1_555
H21_4 C30_4 1_555 1_555
H22_4 C30_4 1_555 1_555
H23_4 C30_4 1_555 1_555
P2_4 O14_4 1_555 1_555
O8_4 C17_4 1_555 1_555
C5_4 C14_4 1_555 1_555
C7_4 C27_4 1_555 1_555
C8_4 C14_4 1_555 1_555
C17_4 C25_4 1_555 1_555
C20_4 C25_4 1_555 1_555
C22_4 C24_4 1_555 1_555
Cu9 O3_4 1_555 1_555
P1_4 C2_4 1_555 1_555
O2_4 Cu6 1_555 1_555
O3_4 C1_4 1_555 1_555
C1_4 O2_4 1_555 1_555
C2_4 C10_4 1_555 1_555
O19 C18_4 1_555 1_555
C4_4 C1_4 1_555 1_555
C10_4 H8_4 1_555 1_555
C11_4 P1_4 1_555 1_555
C12_4 C4_4 1_555 1_555
H9_4 C12_4 1_555 1_555
C15_4 C18_4 1_555 1_555
C16_4 C11_4 1_555 1_555
H11_4 C16_4 1_555 1_555
C19_4 C2_4 1_555 1_555
H12_4 C19_4 1_555 1_555
C21_4 C15_4 1_555 1_555
H14_4 C21_4 1_555 1_555
C23_4 C4_4 1_555 1_555
H16_4 C23_4 1_555 1_555
C26_4 C10_4 1_555 1_555
H18_4 C26_4 1_555 1_555
C28_4 C11_4 1_555 1_555
H20_4 C28_4 1_555 1_555
O20_2 P1_4 1_555 1_555
O22 P1_4 1_555 1_555
C12_4 C16_4 1_555 1_555
C15_4 C26_4 1_555 1_555
C19_4 C21_4 1_555 1_555
C23_4 C28_4 1_555 1_555

#END
