
###############################################################################
#
# This file contains modified crystal structure data generated from the
# MOF subset of the Cambridge Structural Database (CSD) v543 
# hosted by the Cambridge Crystallographic Data Centre (CCDC).
#
# This work is licensed under the Creative Commons
# Attribution-NonCommercial-ShareAlike 4.0 International License.
# To view a copy of this license, visit
# http://creativecommons.org/licenses/by-nc-sa/4.0/
# or send a letter to
# Creative Commons, PO Box 1866, Mountain View, CA 94042, USA.
#
# CIF created using the CSD Python API on 29 September 2022
# The structure has been converted into the P1 space group
# The structure has a 3D framework
# The original CSD entry XIDCEV is in the orthorhombic crystal system
# The framework has been calculated to contain at least 10.0% void space
# The void calculation uses a probe of radius 1.32A, grid spacing 0.4
# H atom positions have been added when not included in the experimental data
# Generated hydrogen atom positions removed from atoms on special positions
#
###############################################################################

data_XIDCEV
_chemical_formula_moiety         '(C56 H62 Mg12 O36 P10)n'
_symmetry_cell_setting           triclinic
_symmetry_space_group_name_H-M   'P 1'
_symmetry_Int_Tables_number      1
_space_group_name_Hall           'P 1'
loop_
_symmetry_equiv_pos_site_id
_symmetry_equiv_pos_as_xyz
1 x,y,z
_cell_length_a                   11.3020(2)
_cell_length_b                   13.5426(2)
_cell_length_c                   15.7763(2)
_cell_angle_alpha                90
_cell_angle_beta                 90
_cell_angle_gamma                90
_cell_volume                     2414.7
loop_
_atom_site_label
_atom_site_type_symbol
_atom_site_fract_x
_atom_site_fract_y
_atom_site_fract_z
Mg4 Mg 0.5000 -0.0000 0.5000
Mg7 Mg 0.30424(14) 0.41037(11) 0.0000
Mg9 Mg 0.69576(14) 0.58963(11) 0.0000
P1 P 0.5000 0.5000 0.14063(7)
Mg2 Mg 0.80424(14) 0.08963(11) 0.5000
O1 O 0.5198(2) 0.1057(2) 0.40741(17)
O2 O 0.6119(3) 0.5192(2) 0.09311(16)
O3 O 0.9268(4) 0.2056(3) 0.5000
C1 C 0.5284(3) 0.3974(3) 0.2116(2)
C2 C 0.5748(3) 0.2438(3) 0.3249(2)
C3 C 0.6011(3) 0.1611(3) 0.3865(3)
C4 C 0.4643(4) 0.2535(4) 0.2873(3)
H1 H 0.4035 0.2075 0.3001
O4 O 0.7030(3) 0.1574(3) 0.4128(3)
C5 C 0.4424(4) 0.3305(4) 0.2306(3)
H2 H 0.3666 0.3364 0.2050
C6 C 0.6389(4) 0.3885(3) 0.2492(3)
H3 H 0.6997 0.4344 0.2357
C7 C 0.6611(2) 0.3132(2) 0.3061(3)
H4 H 0.7364 0.3090 0.3327
O6 O 0.4802(2) 0.8943(2) 0.40741(17)
C8 C 0.4716(3) 0.6026(3) 0.2116(2)
C9 C 0.4252(3) 0.7562(3) 0.3249(2)
C10 C 0.3989(3) 0.8389(3) 0.3865(3)
C11 C 0.5357(4) 0.7465(4) 0.2873(3)
H5 H 0.5965 0.7925 0.3001
O7 O 0.2970(3) 0.8426(3) 0.4128(3)
C12 C 0.5576(4) 0.6695(4) 0.2306(3)
H6 H 0.6334 0.6636 0.2050
C13 C 0.3611(4) 0.6115(3) 0.2492(3)
H7 H 0.3003 0.5656 0.2357
C14 C 0.3389(2) 0.6868(2) 0.3061(3)
H8 H 0.2636 0.6910 0.3327
O8 O 0.3881(3) 0.4808(2) 0.09311(16)
O10 O 0.3165(2) 0.0388(2) 0.5000(3)
P2 P 0.5000 0.5000 0.85937(7)
O11 O 0.5198(2) 0.1057(2) 0.59259(17)
O12 O 0.6119(3) 0.5192(2) 0.90689(16)
C15 C 0.5284(3) 0.3974(3) 0.7884(2)
C16 C 0.5748(3) 0.2438(3) 0.6751(2)
C17 C 0.6011(3) 0.1611(3) 0.6135(3)
C18 C 0.4643(4) 0.2535(4) 0.7127(3)
H9 H 0.4035 0.2075 0.6999
O13 O 0.7030(3) 0.1574(3) 0.5872(3)
C19 C 0.4424(4) 0.3305(4) 0.7694(3)
H10 H 0.3666 0.3364 0.7950
C20 C 0.6389(4) 0.3885(3) 0.7508(3)
H11 H 0.6997 0.4344 0.7643
C21 C 0.6611(2) 0.3132(2) 0.6939(3)
H12 H 0.7364 0.3090 0.6673
O14 O 0.4802(2) 0.8943(2) 0.59259(17)
C22 C 0.4716(3) 0.6026(3) 0.7884(2)
C23 C 0.4252(3) 0.7562(3) 0.6751(2)
C24 C 0.3989(3) 0.8389(3) 0.6135(3)
C25 C 0.5357(4) 0.7465(4) 0.7127(3)
H13 H 0.5965 0.7925 0.6999
O15 O 0.2970(3) 0.8426(3) 0.5872(3)
C26 C 0.5576(4) 0.6695(4) 0.7694(3)
H14 H 0.6334 0.6636 0.7950
C27 C 0.3611(4) 0.6115(3) 0.7508(3)
H15 H 0.3003 0.5656 0.7643
C28 C 0.3389(2) 0.6868(2) 0.6939(3)
H16 H 0.2636 0.6910 0.6673
O16 O 0.3881(3) 0.4808(2) 0.90689(16)
Mg4_2 Mg 0.5000 1.0000 0.5000
Mg5 Mg 0.19576(14) 0.91037(11) 0.5000
Mg7_2 Mg 0.30424(14) 0.41037(11) 1.0000
Mg9_2 Mg 0.69576(14) 0.58963(11) 1.0000
O20 O 0.8881(3) 0.0192(2) 0.40689(16)
O21 O 0.8881(3) 0.0192(2) 0.59311(16)
O5 O 0.6835(2) 0.9612(2) 0.5000(3)
O9 O 0.0732(4) 0.7944(3) 0.5000
O19 O 0.1119(3) 0.9808(2) 0.40689(16)
O22 O 0.1119(3) 0.9808(2) 0.59311(16)
P1_2 P 0.0000 0.0000 0.35937(7)
Mg1 Mg 0.0000 0.5000 0.0000
O1_2 O 0.0198(2) 0.3943(2) 0.09259(17)
O3_2 O 0.4268(4) 0.2944(3) 0.0000
C1_2 C 0.0284(3) 0.1026(3) 0.2884(2)
C2_2 C 0.0748(3) 0.2562(3) 0.1751(2)
C3_2 C 0.1011(3) 0.3389(3) 0.1135(3)
O4_2 O 0.2030(3) 0.3426(3) 0.0872(3)
C6_2 C 0.1389(4) 0.1115(3) 0.2508(3)
H3_2 H 0.1997 0.0656 0.2643
C7_2 C 0.1611(2) 0.1868(2) 0.1939(3)
H4_2 H 0.2364 0.1910 0.1673
O5_2 O 0.1835(2) 0.5388(2) 0.0000(3)
Mg1_2 Mg 0.0000 0.5000 1.0000
O3_3 O 0.4268(4) 0.2944(3) 1.0000
O5_3 O 0.1835(2) 0.5388(2) 1.0000(3)
P2_2 P 0.0000 0.0000 0.64063(7)
O11_2 O 0.0198(2) 0.3943(2) 0.90741(17)
C15_2 C 0.0284(3) 0.1026(3) 0.7116(2)
C16_2 C 0.0748(3) 0.2562(3) 0.8249(2)
C17_2 C 0.1011(3) 0.3389(3) 0.8865(3)
O13_2 O 0.2030(3) 0.3426(3) 0.9128(3)
C20_2 C 0.1389(4) 0.1115(3) 0.7492(3)
H11_2 H 0.1997 0.0656 0.7357
C21_2 C 0.1611(2) 0.1868(2) 0.8061(3)
H12_2 H 0.2364 0.1910 0.8327
P1_3 P 0.0000 1.0000 0.35937(7)
C11_2 C 0.0357(4) 0.7535(4) 0.2127(3)
H5_2 H 0.0965 0.7075 0.1999
C12_2 C 0.0576(4) 0.8305(4) 0.2694(3)
H6_2 H 0.1334 0.8364 0.2950
P2_3 P 0.0000 1.0000 0.64063(7)
C25_2 C 0.0357(4) 0.7535(4) 0.7873(3)
H13_2 H 0.0965 0.7075 0.8001
C26_2 C 0.0576(4) 0.8305(4) 0.7306(3)
H14_2 H 0.1334 0.8364 0.7050
P1_4 P 1.0000 0.0000 0.35937(7)
Mg1_3 Mg 1.0000 0.5000 0.0000
C4_2 C 0.9643(4) 0.2465(4) 0.2127(3)
H1_2 H 0.9035 0.2925 0.1999
C5_2 C 0.9424(4) 0.1695(4) 0.2694(3)
H2_2 H 0.8666 0.1636 0.2950
O9_2 O 0.5732(4) 0.7056(3) 0.0000
O10_2 O 0.8165(2) 0.4612(2) 0.0000(3)
O17 O 0.9802(2) 0.6057(2) 0.09259(17)
O23 O 0.7970(3) 0.6574(3) 0.0872(3)
Mg1_4 Mg 1.0000 0.5000 1.0000
O9_3 O 0.5732(4) 0.7056(3) 1.0000
O10_3 O 0.8165(2) 0.4612(2) 1.0000(3)
P2_4 P 1.0000 0.0000 0.64063(7)
C18_2 C 0.9643(4) 0.2465(4) 0.7873(3)
H9_2 H 0.9035 0.2925 0.8001
C19_2 C 0.9424(4) 0.1695(4) 0.7306(3)
H10_2 H 0.8666 0.1636 0.7050
O18 O 0.9802(2) 0.6057(2) 0.90741(17)
O24 O 0.7970(3) 0.6574(3) 0.9128(3)
P1_5 P 1.0000 1.0000 0.35937(7)
C8_2 C 0.9716(3) 0.8974(3) 0.2884(2)
C9_2 C 0.9252(3) 0.7438(3) 0.1751(2)
C10_2 C 0.8989(3) 0.6611(3) 0.1135(3)
C13_2 C 0.8611(4) 0.8885(3) 0.2508(3)
H7_2 H 0.8003 0.9344 0.2643
C14_2 C 0.8389(2) 0.8132(2) 0.1939(3)
H8_2 H 0.7636 0.8090 0.1673
P2_5 P 1.0000 1.0000 0.64063(7)
C22_2 C 0.9716(3) 0.8974(3) 0.7116(2)
C23_2 C 0.9252(3) 0.7438(3) 0.8249(2)
C24_2 C 0.8989(3) 0.6611(3) 0.8865(3)
C27_2 C 0.8611(4) 0.8885(3) 0.7492(3)
H15_2 H 0.8003 0.9344 0.7357
C28_2 C 0.8389(2) 0.8132(2) 0.8061(3)
H16_2 H 0.7636 0.8090 0.8327
loop_
_geom_bond_atom_site_label_1
_geom_bond_atom_site_label_2
_geom_bond_site_symmetry_1
_geom_bond_site_symmetry_2
P1 O2 1_555 1_555
Mg4 O1 1_555 1_555
Mg2 O3 1_555 1_555
O1 C3 1_555 1_555
O2 Mg9 1_555 1_555
C1 P1 1_555 1_555
C2 C3 1_555 1_555
C3 O4 1_555 1_555
C4 C2 1_555 1_555
H1 C4 1_555 1_555
O4 Mg2 1_555 1_555
C5 C1 1_555 1_555
H2 C5 1_555 1_555
C6 C1 1_555 1_555
H3 C6 1_555 1_555
C7 C2 1_555 1_555
H4 C7 1_555 1_555
O6 C10 1_555 1_555
C8 P1 1_555 1_555
C9 C10 1_555 1_555
C10 O7 1_555 1_555
C11 C9 1_555 1_555
H5 C11 1_555 1_555
O7 Mg5 1_555 1_555
C12 C8 1_555 1_555
H6 C12 1_555 1_555
C13 C8 1_555 1_555
H7 C13 1_555 1_555
C14 C9 1_555 1_555
H8 C14 1_555 1_555
O8 P1 1_555 1_555
O10 Mg4 1_555 1_555
P2 O12 1_555 1_555
O11 Mg4 1_555 1_555
O12 Mg9_2 1_555 1_555
C15 P2 1_555 1_555
C16 C17 1_555 1_555
C17 O11 1_555 1_555
C18 C16 1_555 1_555
H9 C18 1_555 1_555
O13 Mg2 1_555 1_555
C19 C15 1_555 1_555
H10 C19 1_555 1_555
C20 C15 1_555 1_555
H11 C20 1_555 1_555
C21 C16 1_555 1_555
H12 C21 1_555 1_555
O14 C24 1_555 1_555
C22 P2 1_555 1_555
C23 C24 1_555 1_555
C24 O15 1_555 1_555
C25 C23 1_555 1_555
H13 C25 1_555 1_555
O15 Mg5 1_555 1_555
C26 C22 1_555 1_555
H14 C26 1_555 1_555
C27 C22 1_555 1_555
H15 C27 1_555 1_555
C28 C23 1_555 1_555
H16 C28 1_555 1_555
O16 P2 1_555 1_555
Mg4_2 O6 1_555 1_555
Mg7 O8 1_555 1_555
Mg7_2 O16 1_555 1_555
O20 Mg2 1_555 1_555
O21 Mg2 1_555 1_555
C4 C5 1_555 1_555
C6 C7 1_555 1_555
C11 C12 1_555 1_555
C13 C14 1_555 1_555
C17 O13 1_555 1_555
C18 C19 1_555 1_555
C20 C21 1_555 1_555
O14 Mg4_2 1_555 1_555
C25 C26 1_555 1_555
C27 C28 1_555 1_555
O5 Mg4_2 1_555 1_555
Mg5 O9 1_555 1_555
O19 Mg5 1_555 1_555
O22 Mg5 1_555 1_555
Mg1 O1_2 1_555 1_555
Mg7 O3_2 1_555 1_555
O1_2 C3_2 1_555 1_555
C1_2 P1_2 1_555 1_555
C2_2 C3_2 1_555 1_555
C3_2 O4_2 1_555 1_555
O4_2 Mg7 1_555 1_555
C6_2 C1_2 1_555 1_555
H3_2 C6_2 1_555 1_555
C7_2 C2_2 1_555 1_555
H4_2 C7_2 1_555 1_555
O5_2 Mg1 1_555 1_555
Mg7 O5_2 1_555 1_555
C6_2 C7_2 1_555 1_555
Mg7_2 O3_3 1_555 1_555
O5_3 Mg1_2 1_555 1_555
O11_2 Mg1_2 1_555 1_555
C15_2 P2_2 1_555 1_555
C16_2 C17_2 1_555 1_555
C17_2 O11_2 1_555 1_555
O13_2 Mg7_2 1_555 1_555
C20_2 C15_2 1_555 1_555
H11_2 C20_2 1_555 1_555
C21_2 C16_2 1_555 1_555
H12_2 C21_2 1_555 1_555
Mg7_2 O5_3 1_555 1_555
C17_2 O13_2 1_555 1_555
C20_2 C21_2 1_555 1_555
P1_3 O19 1_555 1_555
H5_2 C11_2 1_555 1_555
H6_2 C12_2 1_555 1_555
C11_2 C12_2 1_555 1_555
P2_3 O22 1_555 1_555
H13_2 C25_2 1_555 1_555
H14_2 C26_2 1_555 1_555
C25_2 C26_2 1_555 1_555
H1_2 C4_2 1_555 1_555
H2_2 C5_2 1_555 1_555
O20 P1_4 1_555 1_555
Mg9 O9_2 1_555 1_555
O10_2 Mg1_3 1_555 1_555
O17 Mg1_3 1_555 1_555
O23 Mg9 1_555 1_555
C4_2 C5_2 1_555 1_555
Mg9 O10_2 1_555 1_555
Mg9_2 O9_3 1_555 1_555
O10_3 Mg1_4 1_555 1_555
H9_2 C18_2 1_555 1_555
H10_2 C19_2 1_555 1_555
O21 P2_4 1_555 1_555
O18 Mg1_4 1_555 1_555
O24 Mg9_2 1_555 1_555
Mg9_2 O10_3 1_555 1_555
C18_2 C19_2 1_555 1_555
O17 C10_2 1_555 1_555
C8_2 P1_5 1_555 1_555
C9_2 C10_2 1_555 1_555
C10_2 O23 1_555 1_555
C13_2 C8_2 1_555 1_555
H7_2 C13_2 1_555 1_555
C14_2 C9_2 1_555 1_555
H8_2 C14_2 1_555 1_555
C13_2 C14_2 1_555 1_555
O18 C24_2 1_555 1_555
C22_2 P2_5 1_555 1_555
C23_2 C24_2 1_555 1_555
C24_2 O24 1_555 1_555
C27_2 C22_2 1_555 1_555
H15_2 C27_2 1_555 1_555
C28_2 C23_2 1_555 1_555
H16_2 C28_2 1_555 1_555
C27_2 C28_2 1_555 1_555

#END
