
###############################################################################
#
# This file contains modified crystal structure data generated from the
# MOF subset of the Cambridge Structural Database (CSD) v543 
# hosted by the Cambridge Crystallographic Data Centre (CCDC).
#
# This work is licensed under the Creative Commons
# Attribution-NonCommercial-ShareAlike 4.0 International License.
# To view a copy of this license, visit
# http://creativecommons.org/licenses/by-nc-sa/4.0/
# or send a letter to
# Creative Commons, PO Box 1866, Mountain View, CA 94042, USA.
#
# CIF created using the CSD Python API on 29 September 2022
# The structure has been converted into the P1 space group
# The structure has a 3D framework
# The original CSD entry XIGZUL is in the monoclinic crystal system
# The framework has been calculated to contain at least 10.0% void space
# The void calculation uses a probe of radius 1.32A, grid spacing 0.4
#
###############################################################################

data_XIGZUL
_chemical_formula_moiety         '(C48 H48 Cd4 N16 O18 S4)n'
_symmetry_cell_setting           triclinic
_symmetry_space_group_name_H-M   'P 1'
_symmetry_Int_Tables_number      1
_space_group_name_Hall           'P 1'
loop_
_symmetry_equiv_pos_site_id
_symmetry_equiv_pos_as_xyz
1 x,y,z
_cell_length_a                   5.6469(6)
_cell_length_b                   10.3807(8)
_cell_length_c                   30.356(4)
_cell_angle_alpha                90
_cell_angle_beta                 94.598(10)
_cell_angle_gamma                90
_cell_volume                     1773.7
loop_
_atom_site_label
_atom_site_type_symbol
_atom_site_fract_x
_atom_site_fract_y
_atom_site_fract_z
H6 H 0.0469 0.8278 0.9689
C9 C 0.1167(11) 0.7879(6) 0.8840(2)
H7 H 0.2505 0.7605 0.9026
C10 C 0.1150(10) 0.7743(5) 0.83907(19)
H8 H 0.2493 0.7368 0.8272
O6 O 0.1331(7) 0.5712(3) 0.75979(13)
O7 O 0.3018(7) 0.8418(3) 0.74046(12)
O2 O 0.3669(7) 0.0712(3) 0.74021(13)
Cd3 Cd 0.57445(6) 0.25748(3) 0.76212(2)
N1 N 0.4639(8) 0.7903(4) 0.16491(15)
C1 C 0.2924(11) 0.7548(5) 0.1339(2)
H1 H 0.1515 0.7165 0.1430
C2 C 0.3146(11) 0.7723(6) 0.0895(2)
H2 H 0.1890 0.7482 0.0684
C3 C 0.5207(10) 0.8252(5) 0.07571(19)
C4 C 0.6992(10) 0.8620(5) 0.10762(19)
H3 H 0.8427 0.8992 0.0993
C5 C 0.6624(10) 0.8430(5) 0.15183(19)
H4 H 0.7832 0.8686 0.1737
C6 C 0.5509(10) 0.8401(6) 0.0282(2)
H5 H 0.4177 0.8242 0.0078
N2 N 0.7426(9) 0.8726(5) 0.01326(16)
Cd4 Cd 0.42555(6) 0.74252(3) 0.23788(2)
Cd1 Cd 0.92555(6) 0.75748(3) 0.73788(2)
N3 N 0.7238(9) 0.8777(6) 0.96713(17)
C7 C 0.9090(10) 0.8476(6) 0.95008(19)
C8 C 0.9226(10) 0.8416(5) 0.90210(19)
N4 N 0.9303(8) 0.8122(4) 0.81102(15)
C11 C 0.7459(10) 0.8669(5) 0.82865(18)
H9 H 0.6162 0.8957 0.8093
C12 C 0.7333(10) 0.8840(5) 0.87372(18)
H10 H 0.5988 0.9237 0.8849
O1 O 0.6052(6) 0.6228(4) 0.73595(13)
H11 H 0.6724 0.5618 0.7509
H12 H 0.4565 0.6141 0.7416
O3 O 0.6730(7) 0.9273(3) 0.71929(13)
S1 S 0.4111(2) 0.94915(11) 0.71688(4)
O5 O 0.3192(8) 0.9553(4) 0.67087(14)
N5 N 0.9639(8) 0.7097(4) 0.66491(15)
N1_2 N 0.0361(8) 0.2903(4) 0.33509(15)
C1_2 C 0.2076(11) 0.2548(5) 0.3661(2)
H1_2 H 0.3485 0.2165 0.3570
C2_2 C 0.1854(11) 0.2723(6) 0.4105(2)
H2_2 H 0.3110 0.2482 0.4316
H5_2 H 0.0823 0.3242 0.4922
H12_2 H 0.0435 0.1141 0.7584
S1_2 S 0.0889(2) 0.44915(11) 0.78312(4)
O4 O 0.1982(7) 0.3418(3) 0.75954(12)
O5_2 O 0.1808(8) 0.4553(4) 0.82913(14)
Cd4_2 Cd 0.07445(6) 0.24252(3) 0.26212(2)
C3_2 C 0.9793(10) 0.3252(5) 0.42429(19)
C4_2 C 0.8008(10) 0.3620(5) 0.39238(19)
H3_2 H 0.6573 0.3992 0.4007
C5_2 C 0.8376(10) 0.3430(5) 0.34817(19)
H4_2 H 0.7168 0.3686 0.3263
C6_2 C 0.9491(10) 0.3401(6) 0.4718(2)
N2_2 N 0.7574(9) 0.3726(5) 0.48674(16)
N3_2 N 0.7762(9) 0.3777(6) 0.53287(17)
C7_2 C 0.5910(10) 0.3476(6) 0.54992(19)
H6_2 H 0.4531 0.3278 0.5311
C8_2 C 0.5774(10) 0.3416(5) 0.59790(19)
C9_2 C 0.3833(11) 0.2879(6) 0.6160(2)
H7_2 H 0.2495 0.2605 0.5974
C10_2 C 0.3850(10) 0.2743(5) 0.66093(19)
H8_2 H 0.2507 0.2368 0.6728
N4_2 N 0.5697(8) 0.3122(4) 0.68898(15)
C11_2 C 0.7541(10) 0.3669(5) 0.67135(18)
H9_2 H 0.8838 0.3957 0.6907
C12_2 C 0.7667(10) 0.3840(5) 0.62628(18)
H10_2 H 0.9012 0.4237 0.6151
O1_2 O 0.8948(6) 0.1228(4) 0.76405(13)
H11_2 H 0.8276 0.0618 0.7491
O3_2 O 0.8270(7) 0.4273(3) 0.78071(13)
N5_2 N 0.5361(8) 0.2097(4) 0.83509(15)
N3_3 N 0.2762(9) 0.1223(6) 0.03287(17)
C7_3 C 0.0910(10) 0.1524(6) 0.04992(19)
C8_3 C 0.0774(10) 0.1584(5) 0.09790(19)
N4_3 N 0.0697(8) 0.1878(4) 0.18898(15)
C11_3 C 0.2541(10) 0.1331(5) 0.17135(18)
H9_3 H 0.3838 0.1043 0.1907
C12_3 C 0.2667(10) 0.1160(5) 0.12628(18)
H10_3 H 0.4012 0.0763 0.1151
O1_3 O 0.3948(6) 0.3772(4) 0.26405(13)
H11_3 H 0.3276 0.4382 0.2491
H12_3 H 0.5435 0.3859 0.2584
O3_3 O 0.3270(7) 0.0727(3) 0.28071(13)
S1_3 S 0.5889(2) 0.05085(11) 0.28312(4)
O4_2 O 0.6982(7) 0.1582(3) 0.25954(12)
O5_3 O 0.6808(8) 0.0447(4) 0.32913(14)
C1_3 C 0.7076(11) 0.2452(5) 0.8661(2)
H1_3 H 0.8485 0.2835 0.8570
C2_3 C 0.6854(11) 0.2277(6) 0.9105(2)
H2_3 H 0.8110 0.2518 0.9316
C3_3 C 0.4793(10) 0.1748(5) 0.92429(19)
C4_3 C 0.3008(10) 0.1380(5) 0.89238(19)
H3_3 H 0.1573 0.1008 0.9007
C5_3 C 0.3376(10) 0.1570(5) 0.84817(19)
H4_3 H 0.2168 0.1314 0.8263
C6_3 C 0.4491(10) 0.1599(6) 0.9718(2)
H5_3 H 0.5823 0.1758 0.9922
N2_3 N 0.2574(9) 0.1274(5) 0.98674(16)
O2_2 O 0.6331(7) 0.9288(3) 0.25979(13)
H6_3 H 0.9531 0.1722 0.0311
C9_3 C 0.8833(11) 0.2121(6) 0.1160(2)
H7_3 H 0.7495 0.2395 0.0974
C10_3 C 0.8850(10) 0.2257(5) 0.16093(19)
H8_3 H 0.7507 0.2632 0.1728
O6_2 O 0.8669(7) 0.4288(3) 0.24021(13)
C3_4 C 0.0207(10) 0.6748(5) 0.57571(19)
C4_4 C 0.1992(10) 0.6380(5) 0.60762(19)
H3_4 H 0.3427 0.6008 0.5993
C5_4 C 0.1624(10) 0.6570(5) 0.65183(19)
H4_4 H 0.2832 0.6314 0.6737
C6_4 C 0.0509(10) 0.6599(6) 0.5282(2)
N2_4 N 0.2426(9) 0.6274(5) 0.51326(16)
N3_4 N 0.2238(9) 0.6223(6) 0.46713(17)
C7_4 C 0.4090(10) 0.6524(6) 0.45008(19)
H6_4 H 0.5469 0.6722 0.4689
C8_4 C 0.4226(10) 0.6584(5) 0.40210(19)
C9_4 C 0.6167(11) 0.7121(6) 0.3840(2)
H7_4 H 0.7505 0.7395 0.4026
C10_4 C 0.6150(10) 0.7257(5) 0.33907(19)
H8_4 H 0.7493 0.7632 0.3272
N4_4 N 0.4303(8) 0.6878(4) 0.31102(15)
C11_4 C 0.2459(10) 0.6331(5) 0.32865(18)
H9_4 H 0.1162 0.6043 0.3093
C12_4 C 0.2333(10) 0.6160(5) 0.37372(18)
H10_4 H 0.0988 0.5763 0.3849
O1_4 O 0.1052(6) 0.8772(4) 0.23595(13)
H11_4 H 0.1724 0.9382 0.2509
O3_4 O 0.1730(7) 0.5727(3) 0.21929(13)
O7_2 O 0.8018(7) 0.6582(3) 0.24046(12)
C1_4 C 0.7924(11) 0.7452(5) 0.6339(2)
H1_4 H 0.6515 0.7835 0.6430
C2_4 C 0.8146(11) 0.7277(6) 0.5895(2)
H2_4 H 0.6890 0.7518 0.5684
H5_4 H 0.9177 0.6758 0.5078
H12_4 H 0.9565 0.8859 0.2416
S1_4 S 0.9111(2) 0.55085(11) 0.21688(4)
O5_4 O 0.8192(8) 0.5447(4) 0.17087(14)
loop_
_geom_bond_atom_site_label_1
_geom_bond_atom_site_label_2
_geom_bond_site_symmetry_1
_geom_bond_site_symmetry_2
H7 C9 1_555 1_555
C10 C9 1_555 1_555
H8 C10 1_555 1_555
Cd3 O2 1_555 1_555
N1 C1 1_555 1_555
C1 H1 1_555 1_555
C2 C1 1_555 1_555
H2 C2 1_555 1_555
C3 C2 1_555 1_555
C4 C3 1_555 1_555
H3 C4 1_555 1_555
C5 N1 1_555 1_555
H4 C5 1_555 1_555
C6 C3 1_555 1_555
H5 C6 1_555 1_555
N2 C6 1_555 1_555
Cd4 N1 1_555 1_555
C4 C5 1_555 1_555
Cd1 N4 1_555 1_555
C7 N3 1_555 1_555
C8 C7 1_555 1_555
C11 N4 1_555 1_555
H9 C11 1_555 1_555
C12 C8 1_555 1_555
H10 C12 1_555 1_555
O1 Cd1 1_555 1_555
H11 O1 1_555 1_555
H12 O1 1_555 1_555
O3 Cd1 1_555 1_555
S1 O3 1_555 1_555
O7 S1 1_555 1_555
O5 S1 1_555 1_555
N5 Cd1 1_555 1_555
C11 C12 1_555 1_555
N1_2 C1_2 1_555 1_555
C1_2 H1_2 1_555 1_555
C2_2 C1_2 1_555 1_555
H2_2 C2_2 1_555 1_555
O6 S1_2 1_555 1_555
O4 S1_2 1_555 1_555
O5_2 S1_2 1_555 1_555
Cd3 O4 1_555 1_555
Cd4_2 N1_2 1_555 1_555
Cd3 N4_2 1_555 1_555
C4_2 C3_2 1_555 1_555
H3_2 C4_2 1_555 1_555
H4_2 C5_2 1_555 1_555
C6_2 C3_2 1_555 1_555
N2_2 C6_2 1_555 1_555
N3_2 N2_2 1_555 1_555
C7_2 N3_2 1_555 1_555
H6_2 C7_2 1_555 1_555
C8_2 C7_2 1_555 1_555
C9_2 C8_2 1_555 1_555
H7_2 C9_2 1_555 1_555
C10_2 C9_2 1_555 1_555
H8_2 C10_2 1_555 1_555
N4_2 C10_2 1_555 1_555
C11_2 N4_2 1_555 1_555
H9_2 C11_2 1_555 1_555
C12_2 C8_2 1_555 1_555
H10_2 C12_2 1_555 1_555
O1_2 Cd3 1_555 1_555
H11_2 O1_2 1_555 1_555
O3_2 Cd3 1_555 1_555
N5_2 Cd3 1_555 1_555
C4_2 C5_2 1_555 1_555
C11_2 C12_2 1_555 1_555
Cd4_2 N4_3 1_555 1_555
C7_3 N3_3 1_555 1_555
C8_3 C7_3 1_555 1_555
C11_3 N4_3 1_555 1_555
H9_3 C11_3 1_555 1_555
C12_3 C8_3 1_555 1_555
H10_3 C12_3 1_555 1_555
O1_3 Cd4_2 1_555 1_555
H11_3 O1_3 1_555 1_555
H12_3 O1_3 1_555 1_555
O3_3 Cd4_2 1_555 1_555
S1_3 O3_3 1_555 1_555
O4_2 S1_3 1_555 1_555
O5_3 S1_3 1_555 1_555
C11_3 C12_3 1_555 1_555
N5_2 C1_3 1_555 1_555
C1_3 H1_3 1_555 1_555
C2_3 C1_3 1_555 1_555
H2_3 C2_3 1_555 1_555
C3_3 C2_3 1_555 1_555
C4_3 C3_3 1_555 1_555
H3_3 C4_3 1_555 1_555
C5_3 N5_2 1_555 1_555
H4_3 C5_3 1_555 1_555
C6_3 C3_3 1_555 1_555
H5_3 C6_3 1_555 1_555
N2_3 C6_3 1_555 1_555
C4_3 C5_3 1_555 1_555
Cd4 O2_2 1_555 1_555
H7_3 C9_3 1_555 1_555
C10_3 C9_3 1_555 1_555
H8_3 C10_3 1_555 1_555
Cd4 N4_4 1_555 1_555
C4_4 C3_4 1_555 1_555
H3_4 C4_4 1_555 1_555
H4_4 C5_4 1_555 1_555
C6_4 C3_4 1_555 1_555
N2_4 C6_4 1_555 1_555
N3_4 N2_4 1_555 1_555
C7_4 N3_4 1_555 1_555
H6_4 C7_4 1_555 1_555
C8_4 C7_4 1_555 1_555
C9_4 C8_4 1_555 1_555
H7_4 C9_4 1_555 1_555
C10_4 C9_4 1_555 1_555
H8_4 C10_4 1_555 1_555
N4_4 C10_4 1_555 1_555
C11_4 N4_4 1_555 1_555
H9_4 C11_4 1_555 1_555
C12_4 C8_4 1_555 1_555
H10_4 C12_4 1_555 1_555
O1_4 Cd4 1_555 1_555
H11_4 O1_4 1_555 1_555
O3_4 Cd4 1_555 1_555
O7_2 Cd4 1_555 1_555
C4_4 C5_4 1_555 1_555
C11_4 C12_4 1_555 1_555
N5 C1_4 1_555 1_555
C1_4 H1_4 1_555 1_555
C2_4 C1_4 1_555 1_555
H2_4 C2_4 1_555 1_555
O6_2 S1_4 1_555 1_555
O7_2 S1_4 1_555 1_555
O5_4 S1_4 1_555 1_555

#END
