
###############################################################################
#
# This file contains modified crystal structure data generated from the
# MOF subset of the Cambridge Structural Database (CSD) v543 
# hosted by the Cambridge Crystallographic Data Centre (CCDC).
#
# This work is licensed under the Creative Commons
# Attribution-NonCommercial-ShareAlike 4.0 International License.
# To view a copy of this license, visit
# http://creativecommons.org/licenses/by-nc-sa/4.0/
# or send a letter to
# Creative Commons, PO Box 1866, Mountain View, CA 94042, USA.
#
# CIF created using the CSD Python API on 29 September 2022
# The structure has been converted into the P1 space group
# The structure has a 3D framework
# The original CSD entry XILVEV is in the monoclinic crystal system
# The framework has been calculated to contain at least 10.0% void space
# The void calculation uses a probe of radius 1.32A, grid spacing 0.4
#
###############################################################################

data_XILVEV
_chemical_formula_moiety         '(C156 H80 Mn8 N30 O20 Zn6)n'
_symmetry_cell_setting           triclinic
_symmetry_space_group_name_H-M   'P 1'
_symmetry_Int_Tables_number      1
_space_group_name_Hall           'P 1'
loop_
_symmetry_equiv_pos_site_id
_symmetry_equiv_pos_as_xyz
1 x,y,z
_cell_length_a                   21.453(5)
_cell_length_b                   16.258(5)
_cell_length_c                   15.921(5)
_cell_angle_alpha                90
_cell_angle_beta                 130.17(4)
_cell_angle_gamma                90
_cell_volume                     4243.21
loop_
_atom_site_label
_atom_site_type_symbol
_atom_site_fract_x
_atom_site_fract_y
_atom_site_fract_z
Zn1 Zn 0.41721(12) 0.5000 0.44511(18)
Mn1 Mn 0.5000 0.0000 0.0000
O1 O 0.4097(7) 0.4124(6) 0.3579(8)
O2 O 0.5525(8) 0.4068(8) 0.4689(16)
O3 O 0.1494(8) 0.3706(12) 0.4830(10)
N1 N 0.5000 0.1186(8) 0.0000
N2 N 0.4808(7) 0.0000 0.1132(11)
N3 N 0.3285(8) 0.5000 0.4432(14)
N4 N 0.1427(9) 0.5000 0.4684(11)
C1 C 0.4944(13) 0.2525(13) 0.0400(15)
H1 H 0.4946 0.2982 0.0753
C2 C 0.4830(9) 0.1673(11) 0.0549(11)
C3 C 0.4804(7) 0.1360(12) 0.1356(10)
C4 C 0.4744(6) 0.0606(9) 0.1520(9)
C5 C 0.4577(4) 0.0390(4) 0.2230(5)
H2 H 0.4488 0.0742 0.2605
C6 C 0.4720(4) 0.2077(4) 0.1928(5)
C7 C 0.5388(4) 0.2413(4) 0.2722(5)
H3 H 0.5857 0.2217 0.2879
C8 C 0.5378(4) 0.3034(4) 0.3289(5)
H4 H 0.5840 0.3266 0.3837
C9 C 0.4699(4) 0.3318(4) 0.3061(5)
C10 C 0.4031(4) 0.2982(4) 0.2267(5)
H5 H 0.3562 0.3178 0.2110
C11 C 0.4041(4) 0.2361(4) 0.1700(5)
H6 H 0.3579 0.2129 0.1152
C12 C 0.4843(4) 0.4074(4) 0.3868(5)
C13 C 0.2572(4) 0.5000(4) 0.3602(5)
H7 H 0.2456 0.5000 0.2954
C14 C 0.191(2) 0.5000 0.369(3)
H8 H 0.1370 0.5000 0.3039
C15 C 0.2052(16) 0.5000 0.458(2)
C16 C 0.2693(16) 0.5000 0.535(2)
H9 H 0.2801 0.5000 0.6018
C17 C 0.3394(11) 0.5000 0.5354(16)
H10 H 0.3924 0.5000 0.6025
C18 C 0.1225(13) 0.4328(14) 0.4747(16)
C19 C 0.0289(9) 0.3532(13) 0.4925(13)
H11 H 0.0486 0.3044 0.4869
C20 C 0.0546(9) 0.4274(16) 0.4867(12)
C21 C 0.0338(12) 0.5000 0.4992(15)
O12 O 0.1494(8) 0.6294(12) 0.4830(10)
C70 C 0.1225(13) 0.5672(14) 0.4747(16)
C71 C 0.0289(9) 0.6468(13) 0.4925(13)
H36 H 0.0486 0.6956 0.4869
C72 C 0.0546(9) 0.5726(16) 0.4867(12)
Zn10 Zn 0.58279(12) 0.5000 0.55489(18)
O15 O 0.4097(7) 0.5876(6) 0.3579(8)
O17 O 0.4475(8) 0.4068(8) 0.5311(16)
O18 O 0.4475(8) 0.5932(8) 0.5311(16)
Mn1_2 Mn 0.5000 0.0000 1.0000
N1_2 N 0.5000 0.1186(8) 1.0000
O4 O 0.5903(7) 0.4124(6) 0.6421(8)
N5 N 0.5192(7) 0.0000 0.8868(11)
C22 C 0.5056(13) 0.2525(13) 0.9600(15)
H12 H 0.5054 0.2982 0.9247
C23 C 0.5170(9) 0.1673(11) 0.9451(11)
C24 C 0.5196(7) 0.1360(12) 0.8644(10)
C25 C 0.5256(6) 0.0606(9) 0.8480(9)
C26 C 0.5423(4) 0.0390(4) 0.7770(5)
H13 H 0.5512 0.0742 0.7395
C27 C 0.5280(4) 0.2077(4) 0.8072(5)
C28 C 0.4612(4) 0.2413(4) 0.7278(5)
H14 H 0.4143 0.2217 0.7121
C29 C 0.4622(4) 0.3034(4) 0.6711(5)
H15 H 0.4160 0.3266 0.6163
C30 C 0.5301(4) 0.3318(4) 0.6939(5)
C31 C 0.5969(4) 0.2982(4) 0.7733(5)
H16 H 0.6438 0.3178 0.7890
C32 C 0.5959(4) 0.2361(4) 0.8300(5)
H17 H 0.6421 0.2129 0.8848
C33 C 0.5157(4) 0.4074(4) 0.6132(5)
Mn1_3 Mn 0.5000 1.0000 0.0000
N2_2 N 0.4808(7) 1.0000 0.1132(11)
N6 N 0.5000 0.8814(8) 0.0000
O9 O 0.5525(8) 0.5932(8) 0.4689(16)
C46 C 0.4944(13) 0.7475(13) 0.0400(15)
H24 H 0.4946 0.7018 0.0753
C47 C 0.4830(9) 0.8327(11) 0.0549(11)
C48 C 0.4804(7) 0.8640(12) 0.1356(10)
C49 C 0.4744(6) 0.9394(9) 0.1520(9)
C50 C 0.4577(4) 0.9610(4) 0.2230(5)
H25 H 0.4488 0.9258 0.2605
C51 C 0.4720(4) 0.7923(4) 0.1928(5)
C52 C 0.5388(4) 0.7587(4) 0.2722(5)
H26 H 0.5857 0.7783 0.2879
C53 C 0.5378(4) 0.6966(4) 0.3289(5)
H27 H 0.5840 0.6734 0.3837
C54 C 0.4699(4) 0.6682(4) 0.3061(5)
C55 C 0.4031(4) 0.7018(4) 0.2267(5)
H28 H 0.3562 0.6822 0.2110
C56 C 0.4041(4) 0.7639(4) 0.1700(5)
H29 H 0.3579 0.7871 0.1152
C57 C 0.4843(4) 0.5926(4) 0.3868(5)
Mn1_4 Mn 0.5000 1.0000 1.0000
N5_2 N 0.5192(7) 1.0000 0.8868(11)
O6 O 0.5903(7) 0.5876(6) 0.6421(8)
N6_2 N 0.5000 0.8814(8) 1.0000
C34 C 0.5056(13) 0.7475(13) 0.9600(15)
H18 H 0.5054 0.7018 0.9247
C35 C 0.5170(9) 0.8327(11) 0.9451(11)
C36 C 0.5196(7) 0.8640(12) 0.8644(10)
C37 C 0.5256(6) 0.9394(9) 0.8480(9)
C38 C 0.5423(4) 0.9610(4) 0.7770(5)
H19 H 0.5512 0.9258 0.7395
C39 C 0.5280(4) 0.7923(4) 0.8072(5)
C40 C 0.4612(4) 0.7587(4) 0.7278(5)
H20 H 0.4143 0.7783 0.7121
C41 C 0.4622(4) 0.6966(4) 0.6711(5)
H21 H 0.4160 0.6734 0.6163
C42 C 0.5301(4) 0.6682(4) 0.6939(5)
C43 C 0.5969(4) 0.7018(4) 0.7733(5)
H22 H 0.6438 0.6822 0.7890
C44 C 0.5959(4) 0.7639(4) 0.8300(5)
H23 H 0.6421 0.7871 0.8848
C45 C 0.5157(4) 0.5926(4) 0.6132(5)
O10 O 0.8506(8) 0.3706(12) 0.5170(10)
N7 N 0.6715(8) 0.5000 0.5568(14)
N8 N 0.8573(9) 0.5000 0.5316(11)
C58 C 0.7428(4) 0.5000(4) 0.6398(5)
H30 H 0.7544 0.5000 0.7046
C59 C 0.809(2) 0.5000 0.631(3)
H31 H 0.8630 0.5000 0.6961
C60 C 0.7948(16) 0.5000 0.542(2)
C61 C 0.7307(16) 0.5000 0.465(2)
H32 H 0.7199 0.5000 0.3982
C62 C 0.6606(11) 0.5000 0.4646(16)
H33 H 0.6076 0.5000 0.3975
C63 C 0.8775(13) 0.4328(14) 0.5253(16)
C64 C 0.9711(9) 0.3532(13) 0.5075(13)
H34 H 0.9514 0.3044 0.5131
C65 C 0.9454(9) 0.4274(16) 0.5133(12)
C66 C 0.9662(12) 0.5000 0.5008(15)
O11 O 0.8506(8) 0.6294(12) 0.5170(10)
C67 C 0.8775(13) 0.5672(14) 0.5253(16)
C68 C 0.9711(9) 0.6468(13) 0.5075(13)
H35 H 0.9514 0.6956 0.5131
C69 C 0.9454(9) 0.5726(16) 0.5133(12)
Zn10_2 Zn 0.08279(12) -0.0000 0.55489(18)
Mn1_5 Mn -0.0000 0.5000 0.0000
O2_2 O 0.0525(8) 0.9068(8) 0.4689(16)
N1_3 N -0.0000 0.6186(8) 0.0000
C7_2 C 0.0388(4) 0.7413(4) 0.2722(5)
H3_2 H 0.0857 0.7217 0.2879
C8_2 C 0.0378(4) 0.8034(4) 0.3289(5)
H4_2 H 0.0840 0.8266 0.3837
N6_3 N -0.0000 0.3814(8) 0.0000
O9_2 O 0.0525(8) 0.0932(8) 0.4689(16)
C52_2 C 0.0388(4) 0.2587(4) 0.2722(5)
H26_2 H 0.0857 0.2783 0.2879
C53_2 C 0.0378(4) 0.1966(4) 0.3289(5)
H27_2 H 0.0840 0.1734 0.3837
Zn10_3 Zn 0.08279(12) 1.0000 0.55489(18)
Mn1_6 Mn 0.0000 0.5000 1.0000
N1_4 N -0.0000 0.6186(8) 1.0000
O4_2 O 0.0903(7) 0.9124(6) 0.6421(8)
N5_3 N 0.0192(7) 0.5000 0.8868(11)
C22_2 C 0.0056(13) 0.7525(13) 0.9600(15)
H12_2 H 0.0054 0.7982 0.9247
C23_2 C 0.0170(9) 0.6673(11) 0.9451(11)
C24_2 C 0.0196(7) 0.6360(12) 0.8644(10)
C25_2 C 0.0256(6) 0.5606(9) 0.8480(9)
C26_2 C 0.0423(4) 0.5390(4) 0.7770(5)
H13_2 H 0.0512 0.5742 0.7395
C27_2 C 0.0280(4) 0.7077(4) 0.8072(5)
C30_2 C 0.0301(4) 0.8318(4) 0.6939(5)
C31_2 C 0.0969(4) 0.7982(4) 0.7733(5)
H16_2 H 0.1438 0.8178 0.7890
C32_2 C 0.0959(4) 0.7361(4) 0.8300(5)
H17_2 H 0.1421 0.7129 0.8848
C33_2 C 0.0157(4) 0.9074(4) 0.6132(5)
O6_2 O 0.0903(7) 0.0876(6) 0.6421(8)
N6_4 N 0.0000 0.3814(8) 1.0000
C34_2 C 0.0056(13) 0.2475(13) 0.9600(15)
H18_2 H 0.0054 0.2018 0.9247
C35_2 C 0.0170(9) 0.3327(11) 0.9451(11)
C36_2 C 0.0196(7) 0.3640(12) 0.8644(10)
C37_2 C 0.0256(6) 0.4394(9) 0.8480(9)
C38_2 C 0.0423(4) 0.4610(4) 0.7770(5)
H19_2 H 0.0512 0.4258 0.7395
C39_2 C 0.0280(4) 0.2923(4) 0.8072(5)
C42_2 C 0.0301(4) 0.1682(4) 0.6939(5)
C43_2 C 0.0969(4) 0.2018(4) 0.7733(5)
H22_2 H 0.1438 0.1822 0.7890
C44_2 C 0.0959(4) 0.2639(4) 0.8300(5)
H23_2 H 0.1421 0.2871 0.8848
C45_2 C 0.0157(4) 0.0926(4) 0.6132(5)
Zn1_2 Zn 0.91721(12) -0.0000 0.44511(18)
N3_2 N 0.8285(8) -0.0000 0.4432(14)
N4_2 N 0.6427(9) -0.0000 0.4684(11)
C13_2 C 0.7572(4) -0.0000(4) 0.3602(5)
H7_2 H 0.7456 -0.0000 0.2954
C14_2 C 0.691(2) -0.0000 0.369(3)
H8_2 H 0.6370 -0.0000 0.3039
C15_2 C 0.7052(16) -0.0000 0.458(2)
C16_2 C 0.7693(16) -0.0000 0.535(2)
H9_2 H 0.7801 -0.0000 0.6018
C17_2 C 0.8394(11) -0.0000 0.5354(16)
H10_2 H 0.8924 -0.0000 0.6025
C21_2 C 0.5338(12) -0.0000 0.4992(15)
N7_2 N 0.1715(8) -0.0000 0.5568(14)
N8_2 N 0.3573(9) -0.0000 0.5316(11)
C58_2 C 0.2428(4) -0.0000(4) 0.6398(5)
H30_2 H 0.2544 -0.0000 0.7046
C59_2 C 0.309(2) -0.0000 0.631(3)
H31_2 H 0.3630 -0.0000 0.6961
C60_2 C 0.2948(16) -0.0000 0.542(2)
C61_2 C 0.2307(16) -0.0000 0.465(2)
H32_2 H 0.2199 -0.0000 0.3982
C62_2 C 0.1606(11) -0.0000 0.4646(16)
H33_2 H 0.1076 -0.0000 0.3975
C66_2 C 0.4662(12) -0.0000 0.5008(15)
O11_2 O 0.3506(8) 0.1294(12) 0.5170(10)
C67_2 C 0.3775(13) 0.0672(14) 0.5253(16)
C68_2 C 0.4711(9) 0.1468(13) 0.5075(13)
H35_2 H 0.4514 0.1956 0.5131
C69_2 C 0.4454(9) 0.0726(16) 0.5133(12)
O12_2 O 0.6494(8) 0.1294(12) 0.4830(10)
C70_2 C 0.6225(13) 0.0672(14) 0.4747(16)
C71_2 C 0.5289(9) 0.1468(13) 0.4925(13)
H36_2 H 0.5486 0.1956 0.4869
C72_2 C 0.5546(9) 0.0726(16) 0.4867(12)
O15_2 O 0.9097(7) 0.0876(6) 0.3579(8)
O18_2 O 0.9475(8) 0.0932(8) 0.5311(16)
Zn1_3 Zn 0.91721(12) 1.0000 0.44511(18)
Mn1_7 Mn 1.0000 0.5000 0.0000
O1_2 O 0.9097(7) 0.9124(6) 0.3579(8)
O3_2 O 0.6494(8) 0.8706(12) 0.4830(10)
N1_5 N 1.0000 0.6186(8) 0.0000
N2_3 N 0.9808(7) 0.5000 0.1132(11)
N3_3 N 0.8285(8) 1.0000 0.4432(14)
N4_3 N 0.6427(9) 1.0000 0.4684(11)
C1_2 C 0.9944(13) 0.7525(13) 0.0400(15)
H1_2 H 0.9946 0.7982 0.0753
C2_2 C 0.9830(9) 0.6673(11) 0.0549(11)
C3_2 C 0.9804(7) 0.6360(12) 0.1356(10)
C4_2 C 0.9744(6) 0.5606(9) 0.1520(9)
C5_2 C 0.9577(4) 0.5390(4) 0.2230(5)
H2_2 H 0.9488 0.5742 0.2605
C6_2 C 0.9720(4) 0.7077(4) 0.1928(5)
C9_2 C 0.9699(4) 0.8318(4) 0.3061(5)
C10_2 C 0.9031(4) 0.7982(4) 0.2267(5)
H5_2 H 0.8562 0.8178 0.2110
C11_2 C 0.9041(4) 0.7361(4) 0.1700(5)
H6_2 H 0.8579 0.7129 0.1152
C12_2 C 0.9843(4) 0.9074(4) 0.3868(5)
C13_3 C 0.7572(4) 1.0000(4) 0.3602(5)
H7_3 H 0.7456 1.0000 0.2954
C14_3 C 0.691(2) 1.0000 0.369(3)
H8_3 H 0.6370 1.0000 0.3039
C15_3 C 0.7052(16) 1.0000 0.458(2)
C16_3 C 0.7693(16) 1.0000 0.535(2)
H9_3 H 0.7801 1.0000 0.6018
C17_3 C 0.8394(11) 1.0000 0.5354(16)
H10_3 H 0.8924 1.0000 0.6025
C18_2 C 0.6225(13) 0.9328(14) 0.4747(16)
C19_2 C 0.5289(9) 0.8532(13) 0.4925(13)
H11_2 H 0.5486 0.8044 0.4869
C20_2 C 0.5546(9) 0.9274(16) 0.4867(12)
C21_3 C 0.5338(12) 1.0000 0.4992(15)
N6_5 N 1.0000 0.3814(8) 0.0000
C46_2 C 0.9944(13) 0.2475(13) 0.0400(15)
H24_2 H 0.9946 0.2018 0.0753
C47_2 C 0.9830(9) 0.3327(11) 0.0549(11)
C48_2 C 0.9804(7) 0.3640(12) 0.1356(10)
C49_2 C 0.9744(6) 0.4394(9) 0.1520(9)
C50_2 C 0.9577(4) 0.4610(4) 0.2230(5)
H25_2 H 0.9488 0.4258 0.2605
C51_2 C 0.9720(4) 0.2923(4) 0.1928(5)
C54_2 C 0.9699(4) 0.1682(4) 0.3061(5)
C55_2 C 0.9031(4) 0.2018(4) 0.2267(5)
H28_2 H 0.8562 0.1822 0.2110
C56_2 C 0.9041(4) 0.2639(4) 0.1700(5)
H29_2 H 0.8579 0.2871 0.1152
C57_2 C 0.9843(4) 0.0926(4) 0.3868(5)
O10_2 O 0.3506(8) 0.8706(12) 0.5170(10)
N7_3 N 0.1715(8) 1.0000 0.5568(14)
N8_3 N 0.3573(9) 1.0000 0.5316(11)
C58_3 C 0.2428(4) 1.0000(4) 0.6398(5)
H30_3 H 0.2544 1.0000 0.7046
C59_3 C 0.309(2) 1.0000 0.631(3)
H31_3 H 0.3630 1.0000 0.6961
C60_3 C 0.2948(16) 1.0000 0.542(2)
C61_3 C 0.2307(16) 1.0000 0.465(2)
H32_3 H 0.2199 1.0000 0.3982
C62_3 C 0.1606(11) 1.0000 0.4646(16)
H33_3 H 0.1076 1.0000 0.3975
C63_2 C 0.3775(13) 0.9328(14) 0.5253(16)
C64_2 C 0.4711(9) 0.8532(13) 0.5075(13)
H34_2 H 0.4514 0.8044 0.5131
C65_2 C 0.4454(9) 0.9274(16) 0.5133(12)
C66_3 C 0.4662(12) 1.0000 0.5008(15)
O17_2 O 0.9475(8) 0.9068(8) 0.5311(16)
Mn1_8 Mn 1.0000 0.5000 1.0000
N1_6 N 1.0000 0.6186(8) 1.0000
C28_2 C 0.9612(4) 0.7413(4) 0.7278(5)
H14_2 H 0.9143 0.7217 0.7121
C29_2 C 0.9622(4) 0.8034(4) 0.6711(5)
H15_2 H 0.9160 0.8266 0.6163
N6_6 N 1.0000 0.3814(8) 1.0000
C40_2 C 0.9612(4) 0.2587(4) 0.7278(5)
H20_2 H 0.9143 0.2783 0.7121
C41_2 C 0.9622(4) 0.1966(4) 0.6711(5)
H21_2 H 0.9160 0.1734 0.6163
loop_
_geom_bond_atom_site_label_1
_geom_bond_atom_site_label_2
_geom_bond_site_symmetry_1
_geom_bond_site_symmetry_2
Zn1 O1 1_555 1_555
Mn1 N1 1_555 1_555
O1 C12 1_555 1_555
O2 C12 1_555 1_555
O3 C18 1_555 1_555
N1 C2 1_555 1_555
N2 Mn1 1_555 1_555
N3 Zn1 1_555 1_555
N4 C15 1_555 1_555
C1 H1 1_555 1_555
C2 C1 1_555 1_555
C3 C2 1_555 1_555
C4 N2 1_555 1_555
C5 C4 1_555 1_555
H2 C5 1_555 1_555
C6 C3 1_555 1_555
C7 C6 1_555 1_555
H3 C7 1_555 1_555
C8 C7 1_555 1_555
H4 C8 1_555 1_555
C9 C8 1_555 1_555
C10 C9 1_555 1_555
H5 C10 1_555 1_555
C11 C6 1_555 1_555
H6 C11 1_555 1_555
C12 C9 1_555 1_555
C13 N3 1_555 1_555
H7 C13 1_555 1_555
C14 C13 1_555 1_555
H8 C14 1_555 1_555
C15 C14 1_555 1_555
C16 C15 1_555 1_555
H9 C16 1_555 1_555
C17 N3 1_555 1_555
H10 C17 1_555 1_555
C18 N4 1_555 1_555
C19 H11 1_555 1_555
C20 C18 1_555 1_555
C21 C20 1_555 1_555
O12 C70 1_555 1_555
C70 N4 1_555 1_555
H36 C71 1_555 1_555
C72 C21 1_555 1_555
Zn10 Zn1 1_555 1_555
O15 Zn1 1_555 1_555
O17 Zn1 1_555 1_555
O18 Zn1 1_555 1_555
O2 Zn10 1_555 1_555
C3 C4 1_555 1_555
C10 C11 1_555 1_555
C16 C17 1_555 1_555
C19 C20 1_555 1_555
C70 C72 1_555 1_555
C71 C72 1_555 1_555
Mn1_2 N1_2 1_555 1_555
O4 C33 1_555 1_555
O17 C33 1_555 1_555
N5 Mn1_2 1_555 1_555
H12 C22 1_555 1_555
C23 N1_2 1_555 1_555
C24 C23 1_555 1_555
C25 N5 1_555 1_555
C26 C25 1_555 1_555
H13 C26 1_555 1_555
C27 C24 1_555 1_555
C28 C27 1_555 1_555
H14 C28 1_555 1_555
C29 C28 1_555 1_555
H15 C29 1_555 1_555
C30 C29 1_555 1_555
C31 C30 1_555 1_555
H16 C31 1_555 1_555
C32 C27 1_555 1_555
H17 C32 1_555 1_555
C33 C30 1_555 1_555
Zn10 O4 1_555 1_555
C22 C23 1_555 1_555
C24 C25 1_555 1_555
C31 C32 1_555 1_555
N2_2 Mn1_3 1_555 1_555
N6 Mn1_3 1_555 1_555
O15 C57 1_555 1_555
O9 C57 1_555 1_555
H24 C46 1_555 1_555
C47 N6 1_555 1_555
C48 C47 1_555 1_555
C49 N2_2 1_555 1_555
H25 C50 1_555 1_555
C51 C48 1_555 1_555
C52 C51 1_555 1_555
H26 C52 1_555 1_555
C53 C52 1_555 1_555
H27 C53 1_555 1_555
C54 C53 1_555 1_555
C55 C54 1_555 1_555
H28 C55 1_555 1_555
C56 C51 1_555 1_555
H29 C56 1_555 1_555
C57 C54 1_555 1_555
Zn10 O9 1_555 1_555
C46 C47 1_555 1_555
C48 C49 1_555 1_555
C49 C50 1_555 1_555
C55 C56 1_555 1_555
N5_2 Mn1_4 1_555 1_555
O6 C45 1_555 1_555
O18 C45 1_555 1_555
N6_2 Mn1_4 1_555 1_555
C34 H18 1_555 1_555
C35 N6_2 1_555 1_555
C36 C35 1_555 1_555
C37 N5_2 1_555 1_555
H19 C38 1_555 1_555
C39 C36 1_555 1_555
C40 C39 1_555 1_555
H20 C40 1_555 1_555
C41 C40 1_555 1_555
H21 C41 1_555 1_555
C42 C41 1_555 1_555
C43 C42 1_555 1_555
H22 C43 1_555 1_555
C44 C39 1_555 1_555
H23 C44 1_555 1_555
C45 C42 1_555 1_555
Zn10 O6 1_555 1_555
C34 C35 1_555 1_555
C36 C37 1_555 1_555
C37 C38 1_555 1_555
C43 C44 1_555 1_555
O10 C63 1_555 1_555
N7 C58 1_555 1_555
N8 C60 1_555 1_555
C58 H30 1_555 1_555
C59 C58 1_555 1_555
H31 C59 1_555 1_555
C60 C59 1_555 1_555
C61 C60 1_555 1_555
H32 C61 1_555 1_555
C62 N7 1_555 1_555
H33 C62 1_555 1_555
C63 N8 1_555 1_555
H34 C64 1_555 1_555
C65 C63 1_555 1_555
O11 C67 1_555 1_555
C67 N8 1_555 1_555
C68 H35 1_555 1_555
C69 C66 1_555 1_555
Zn10 N7 1_555 1_555
C61 C62 1_555 1_555
C64 C65 1_555 1_555
C65 C66 1_555 1_555
C67 C69 1_555 1_555
C68 C69 1_555 1_555
Mn1_5 N1_3 1_555 1_555
H3_2 C7_2 1_555 1_555
C8_2 C7_2 1_555 1_555
H4_2 C8_2 1_555 1_555
N6_3 Mn1_5 1_555 1_555
H26_2 C52_2 1_555 1_555
C53_2 C52_2 1_555 1_555
H27_2 C53_2 1_555 1_555
Zn10_2 O9_2 1_555 1_555
O2_2 Zn10_3 1_555 1_555
Mn1_6 N1_4 1_555 1_555
O4_2 C33_2 1_555 1_555
N5_3 Mn1_6 1_555 1_555
H12_2 C22_2 1_555 1_555
C23_2 N1_4 1_555 1_555
C24_2 C23_2 1_555 1_555
C25_2 N5_3 1_555 1_555
C26_2 C25_2 1_555 1_555
H13_2 C26_2 1_555 1_555
C27_2 C24_2 1_555 1_555
C31_2 C30_2 1_555 1_555
H16_2 C31_2 1_555 1_555
C32_2 C27_2 1_555 1_555
H17_2 C32_2 1_555 1_555
C33_2 C30_2 1_555 1_555
O6_2 C45_2 1_555 1_555
N6_4 Mn1_6 1_555 1_555
C34_2 H18_2 1_555 1_555
C35_2 N6_4 1_555 1_555
C36_2 C35_2 1_555 1_555
C37_2 N5_3 1_555 1_555
C38_2 C26_2 1_555 1_555
H19_2 C38_2 1_555 1_555
C39_2 C36_2 1_555 1_555
C43_2 C42_2 1_555 1_555
H22_2 C43_2 1_555 1_555
C44_2 C39_2 1_555 1_555
H23_2 C44_2 1_555 1_555
C45_2 C42_2 1_555 1_555
Zn10_2 O6_2 1_555 1_555
Zn10_3 O4_2 1_555 1_555
C22_2 C23_2 1_555 1_555
C24_2 C25_2 1_555 1_555
C31_2 C32_2 1_555 1_555
C34_2 C35_2 1_555 1_555
C36_2 C37_2 1_555 1_555
C37_2 C38_2 1_555 1_555
C43_2 C44_2 1_555 1_555
N3_2 Zn1_2 1_555 1_555
N4_2 C15_2 1_555 1_555
C13_2 N3_2 1_555 1_555
H7_2 C13_2 1_555 1_555
C14_2 C13_2 1_555 1_555
H8_2 C14_2 1_555 1_555
C15_2 C14_2 1_555 1_555
C16_2 C15_2 1_555 1_555
H9_2 C16_2 1_555 1_555
C17_2 N3_2 1_555 1_555
H10_2 C17_2 1_555 1_555
N7_2 C58_2 1_555 1_555
N8_2 C60_2 1_555 1_555
C58_2 H30_2 1_555 1_555
C59_2 C58_2 1_555 1_555
H31_2 C59_2 1_555 1_555
C60_2 C59_2 1_555 1_555
C61_2 C60_2 1_555 1_555
H32_2 C61_2 1_555 1_555
C62_2 N7_2 1_555 1_555
H33_2 C62_2 1_555 1_555
C66_2 C21_2 1_555 1_555
O11_2 C67_2 1_555 1_555
C67_2 N8_2 1_555 1_555
C68_2 H35_2 1_555 1_555
C69_2 C66_2 1_555 1_555
O12_2 C70_2 1_555 1_555
C70_2 N4_2 1_555 1_555
C71_2 C68_2 1_555 1_555
H36_2 C71_2 1_555 1_555
C72_2 C21_2 1_555 1_555
Zn10_2 N7_2 1_555 1_555
O15_2 Zn1_2 1_555 1_555
O18_2 Zn1_2 1_555 1_555
C16_2 C17_2 1_555 1_555
C61_2 C62_2 1_555 1_555
C67_2 C69_2 1_555 1_555
C68_2 C69_2 1_555 1_555
C70_2 C72_2 1_555 1_555
C71_2 C72_2 1_555 1_555
Zn1_3 O1_2 1_555 1_555
Mn1_7 N1_5 1_555 1_555
O1_2 C12_2 1_555 1_555
O3_2 C18_2 1_555 1_555
N1_5 C2_2 1_555 1_555
N2_3 Mn1_7 1_555 1_555
N3_3 Zn1_3 1_555 1_555
N4_3 C15_3 1_555 1_555
C1_2 H1_2 1_555 1_555
C2_2 C1_2 1_555 1_555
C3_2 C2_2 1_555 1_555
C4_2 N2_3 1_555 1_555
C5_2 C4_2 1_555 1_555
H2_2 C5_2 1_555 1_555
C6_2 C3_2 1_555 1_555
C10_2 C9_2 1_555 1_555
H5_2 C10_2 1_555 1_555
C11_2 C6_2 1_555 1_555
H6_2 C11_2 1_555 1_555
C12_2 C9_2 1_555 1_555
C13_3 N3_3 1_555 1_555
H7_3 C13_3 1_555 1_555
C14_3 C13_3 1_555 1_555
H8_3 C14_3 1_555 1_555
C15_3 C14_3 1_555 1_555
C16_3 C15_3 1_555 1_555
H9_3 C16_3 1_555 1_555
C17_3 N3_3 1_555 1_555
H10_3 C17_3 1_555 1_555
C18_2 N4_3 1_555 1_555
C19_2 H11_2 1_555 1_555
C20_2 C18_2 1_555 1_555
C21_3 C20_2 1_555 1_555
N6_5 Mn1_7 1_555 1_555
O15_2 C57_2 1_555 1_555
H24_2 C46_2 1_555 1_555
C47_2 N6_5 1_555 1_555
C48_2 C47_2 1_555 1_555
C49_2 N2_3 1_555 1_555
C50_2 C5_2 1_555 1_555
H25_2 C50_2 1_555 1_555
C51_2 C48_2 1_555 1_555
C55_2 C54_2 1_555 1_555
H28_2 C55_2 1_555 1_555
C56_2 C51_2 1_555 1_555
H29_2 C56_2 1_555 1_555
C57_2 C54_2 1_555 1_555
O10_2 C63_2 1_555 1_555
N7_3 C58_3 1_555 1_555
N8_3 C60_3 1_555 1_555
C58_3 H30_3 1_555 1_555
C59_3 C58_3 1_555 1_555
H31_3 C59_3 1_555 1_555
C60_3 C59_3 1_555 1_555
C61_3 C60_3 1_555 1_555
H32_3 C61_3 1_555 1_555
C62_3 N7_3 1_555 1_555
H33_3 C62_3 1_555 1_555
C63_2 N8_3 1_555 1_555
C64_2 C19_2 1_555 1_555
H34_2 C64_2 1_555 1_555
C65_2 C63_2 1_555 1_555
C66_3 C21_3 1_555 1_555
Zn10_3 N7_3 1_555 1_555
O17_2 Zn1_3 1_555 1_555
C3_2 C4_2 1_555 1_555
C10_2 C11_2 1_555 1_555
C16_3 C17_3 1_555 1_555
C19_2 C20_2 1_555 1_555
C46_2 C47_2 1_555 1_555
C48_2 C49_2 1_555 1_555
C49_2 C50_2 1_555 1_555
C55_2 C56_2 1_555 1_555
C61_3 C62_3 1_555 1_555
C64_2 C65_2 1_555 1_555
C65_2 C66_3 1_555 1_555
Mn1_8 N1_6 1_555 1_555
H14_2 C28_2 1_555 1_555
C29_2 C28_2 1_555 1_555
H15_2 C29_2 1_555 1_555
N6_6 Mn1_8 1_555 1_555
H20_2 C40_2 1_555 1_555
C41_2 C40_2 1_555 1_555
H21_2 C41_2 1_555 1_555

#END
