
###############################################################################
#
# This file contains modified crystal structure data generated from the
# MOF subset of the Cambridge Structural Database (CSD) v543 
# hosted by the Cambridge Crystallographic Data Centre (CCDC).
#
# This work is licensed under the Creative Commons
# Attribution-NonCommercial-ShareAlike 4.0 International License.
# To view a copy of this license, visit
# http://creativecommons.org/licenses/by-nc-sa/4.0/
# or send a letter to
# Creative Commons, PO Box 1866, Mountain View, CA 94042, USA.
#
# CIF created using the CSD Python API on 29 September 2022
# The structure has been converted into the P1 space group
# The structure has a 3D framework
# The original CSD entry XINRAP is in the tetragonal crystal system
# The framework has been calculated to contain at least 10.0% void space
# The void calculation uses a probe of radius 1.32A, grid spacing 0.4
# H atom positions have been added when not included in the experimental data
#
###############################################################################

data_XINRAP
_chemical_formula_moiety         '(C64 H112 Co16 N48 O48)n'
_symmetry_cell_setting           triclinic
_symmetry_space_group_name_H-M   'P 1'
_symmetry_Int_Tables_number      1
_space_group_name_Hall           'P 1'
loop_
_symmetry_equiv_pos_site_id
_symmetry_equiv_pos_as_xyz
1 x,y,z
_cell_length_a                   16.515(6)
_cell_length_b                   16.515(6)
_cell_length_c                   18.161(7)
_cell_angle_alpha                90
_cell_angle_beta                 90
_cell_angle_gamma                90
_cell_volume                     4953.33
loop_
_atom_site_label
_atom_site_type_symbol
_atom_site_fract_x
_atom_site_fract_y
_atom_site_fract_z
N4 N 0.0387(2) 0.5595(2) 0.4234(2)
H6 H 0.00259707 0.446568 0.308682
Co1 Co 0.92367(4) 0.50966(4) 0.41684(4)
O1 O 0.8829(3) 0.6144(2) 0.4904(2)
O2 O 0.7991(3) 0.5505(2) 0.1618(2)
O3 O 0.9573(2) 0.4248(2) 0.3387(2)
N1 N 0.8734(2) 0.5943(2) 0.3471(2)
N2 N 0.8095(2) 0.7113(2) 0.3266(2)
N3 N 0.8055(2) 0.6652(2) 0.2624(2)
C1 C 0.8501(3) 0.6669(3) 0.3743(3)
C2 C 0.8441(3) 0.5970(3) 0.2773(3)
C3 C 0.8691(4) 0.6874(3) 0.4526(3)
H1 H 0.9168 0.7216 0.4550
H2 H 0.8241 0.7163 0.4747
C4 C 0.8493(4) 0.5306(3) 0.2218(3)
H3 H 0.9048 0.5242 0.2053
H4 H 0.8318 0.4799 0.2436
H5 H 0.842(5) 0.586(7) 0.480(7)
Co2 Co 0.74034(4) 0.67367(4) 0.16684(4)
Co3 Co 0.75966(4) 0.82633(4) 0.33316(4)
O4 O 0.8005(2) 0.4509(3) 0.4118(2)
N5 N 0.9152(2) 0.4445(2) 0.5124(2)
H7 H 0.974989 0.374346 0.363716
Co1_2 Co 0.24034(4) 0.17367(4) 0.66684(4)
O1_2 O 0.1356(2) 0.1329(3) 0.7404(2)
O2_2 O 0.1995(2) 0.0491(3) 0.4118(2)
O3_2 O 0.3252(2) 0.2073(2) 0.5887(2)
N1_2 N 0.1557(2) 0.1234(2) 0.5971(2)
N2_2 N 0.0387(2) 0.0595(2) 0.5766(2)
N3_2 N 0.0848(2) 0.0555(2) 0.5124(2)
C1_2 C 0.0831(3) 0.1001(3) 0.6243(3)
C2_2 C 0.1530(3) 0.0941(3) 0.5273(3)
C3_2 C 0.0626(3) 0.1191(4) 0.7026(3)
H1_2 H 0.0284 0.1668 0.7050
H2_2 H 0.0337 0.0741 0.7247
C4_2 C 0.2194(3) 0.0993(4) 0.4718(3)
H3_2 H 0.2258 0.1548 0.4553
H4_2 H 0.2701 0.0818 0.4936
H5_2 H 0.164(7) 0.092(5) 0.730(7)
O4_2 O 0.2991(3) 0.0505(2) 0.6618(2)
N4_2 N 0.1905(2) 0.2887(2) 0.6734(2)
N5_2 N 0.3055(2) 0.1652(2) 0.7624(2)
H6_2 H 0.303432 0.252597 0.558682
H7_2 H 0.375654 0.224989 0.613716
Co2_2 Co 0.07633(4) 0.99034(4) 0.41684(4)
Co3_2 Co 0.92367(4) 0.00966(4) 0.58316(4)
N5_3 N 0.5848(2) 0.5555(2) 0.0124(2)
Co1_3 Co 0.57633(4) 0.49034(4) 0.91684(4)
O1_3 O 0.6171(3) 0.3856(2) 0.9904(2)
O2_3 O 0.7009(3) 0.4495(2) 0.6618(2)
O3_3 O 0.5427(2) 0.5752(2) 0.8387(2)
N1_3 N 0.6266(2) 0.4057(2) 0.8471(2)
N2_3 N 0.6905(2) 0.2887(2) 0.8266(2)
N3_3 N 0.6945(2) 0.3348(2) 0.7624(2)
C1_3 C 0.6499(3) 0.3331(3) 0.8743(3)
C2_3 C 0.6559(3) 0.4030(3) 0.7773(3)
C3_3 C 0.6309(4) 0.3126(3) 0.9526(3)
H1_3 H 0.5832 0.2784 0.9550
H2_3 H 0.6759 0.2837 0.9747
C4_3 C 0.6507(4) 0.4694(3) 0.7218(3)
H3_3 H 0.5952 0.4758 0.7053
H4_3 H 0.6682 0.5201 0.7436
H5_3 H 0.658(5) 0.414(7) 0.980(7)
Co2_3 Co 0.75966(4) 0.32633(4) 0.66684(4)
Co3_3 Co 0.74034(4) 0.17367(4) 0.83316(4)
O4_3 O 0.6995(2) 0.5491(3) 0.9118(2)
N4_3 N 0.4613(2) 0.4405(2) 0.9234(2)
H6_3 H 0.497403 0.553432 0.808682
H7_3 H 0.525011 0.625654 0.863716
Co2_4 Co 0.42367(4) 0.00966(4) 0.91684(4)
Co1_4 Co 0.25966(4) 0.82633(4) 0.16684(4)
O1_4 O 0.3644(2) 0.8671(3) 0.2404(2)
O3_4 O 0.1748(2) 0.7927(2) 0.0887(2)
N1_4 N 0.3443(2) 0.8766(2) 0.0971(2)
N2_4 N 0.4613(2) 0.9405(2) 0.0766(2)
N3_4 N 0.4152(2) 0.9445(2) 0.0124(2)
C1_4 C 0.4169(3) 0.8999(3) 0.1243(3)
C2_4 C 0.3470(3) 0.9059(3) 0.0273(3)
C3_4 C 0.4374(3) 0.8809(4) 0.2026(3)
H1_4 H 0.4716 0.8332 0.2050
H2_4 H 0.4663 0.9259 0.2247
H5_4 H 0.336(7) 0.908(5) 0.230(7)
Co3_4 Co 0.57633(4) 0.99034(4) 0.08316(4)
O4_4 O 0.2009(3) 0.9495(2) 0.1618(2)
N4_4 N 0.3095(2) 0.7113(2) 0.1734(2)
N5_4 N 0.1945(2) 0.8348(2) 0.2624(2)
H6_4 H 0.196568 0.747403 0.0586824
H7_4 H 0.124346 0.775011 0.113716
O1_5 O 0.3829(3) 0.1144(2) 0.9904(2)
N1_5 N 0.3734(2) 0.0943(2) 0.8471(2)
N2_5 N 0.3095(2) 0.2113(2) 0.8266(2)
C1_5 C 0.3501(3) 0.1669(3) 0.8743(3)
C2_5 C 0.3441(3) 0.0970(3) 0.7773(3)
C3_5 C 0.3691(4) 0.1874(3) 0.9526(3)
H1_5 H 0.4168 0.2216 0.9550
H2_5 H 0.3241 0.2163 0.9747
C4_4 C 0.3493(4) 0.0306(3) 0.7218(3)
H3_4 H 0.4048 0.0242 0.7053
H5_5 H 0.342(5) 0.086(7) 0.980(7)
Co3_5 Co 0.25966(4) 0.32633(4) 0.83316(4)
N4_5 N 0.5387(2) 0.0595(2) 0.9234(2)
O1_6 O 0.6356(2) 0.6329(3) 0.2404(2)
O3_5 O 0.8252(2) 0.7073(2) 0.0887(2)
N1_6 N 0.6557(2) 0.6234(2) 0.0971(2)
N2_6 N 0.5387(2) 0.5595(2) 0.0766(2)
C1_6 C 0.5831(3) 0.6001(3) 0.1243(3)
C2_6 C 0.6530(3) 0.5941(3) 0.0273(3)
C3_6 C 0.5626(3) 0.6191(4) 0.2026(3)
H1_6 H 0.5284 0.6668 0.2050
H2_6 H 0.5337 0.5741 0.2247
H5_6 H 0.664(7) 0.592(5) 0.230(7)
Co3_6 Co 0.42367(4) 0.50966(4) 0.08316(4)
N4_6 N 0.6905(2) 0.7887(2) 0.1734(2)
H6_5 H 0.803432 0.752597 0.0586824
H7_5 H 0.875654 0.724989 0.113716
C4_5 C 0.7194(3) 0.5993(4) 0.9718(3)
H3_5 H 0.7258 0.6548 0.9553
H4_4 H 0.7701 0.5818 0.9936
O3_6 O 0.0427(2) 0.0752(2) 0.3387(2)
H4_5 H 0.1682 0.0201 0.2436
H7_6 H 0.0250113 0.125654 0.363716
O1_7 O 0.1171(3) 0.8856(2) 0.4904(2)
N1_7 N 0.1266(2) 0.9057(2) 0.3471(2)
N2_7 N 0.1905(2) 0.7887(2) 0.3266(2)
C1_7 C 0.1499(3) 0.8331(3) 0.3743(3)
C2_7 C 0.1559(3) 0.9030(3) 0.2773(3)
C3_7 C 0.1309(4) 0.8126(3) 0.4526(3)
H1_7 H 0.0832 0.7784 0.4550
H2_7 H 0.1759 0.7837 0.4747
C4_6 C 0.1507(4) 0.9694(3) 0.2218(3)
H3_6 H 0.0952 0.9758 0.2053
H5_7 H 0.158(5) 0.914(7) 0.480(7)
Co3_7 Co 0.24034(4) 0.67367(4) 0.33316(4)
N4_7 N 0.9613(2) 0.9405(2) 0.4234(2)
Co3_8 Co 0.07633(4) 0.49034(4) 0.58316(4)
O1_8 O 0.8644(2) 0.3671(3) 0.7404(2)
O3_7 O 0.6748(2) 0.2927(2) 0.5887(2)
N1_8 N 0.8443(2) 0.3766(2) 0.5971(2)
N2_8 N 0.9613(2) 0.4405(2) 0.5766(2)
C1_8 C 0.9169(3) 0.3999(3) 0.6243(3)
C2_8 C 0.8470(3) 0.4059(3) 0.5273(3)
C3_8 C 0.9374(3) 0.3809(4) 0.7026(3)
H1_8 H 0.9716 0.3332 0.7050
H2_8 H 0.9663 0.4259 0.7247
C4_7 C 0.7806(3) 0.4007(4) 0.4718(3)
H3_7 H 0.7742 0.3452 0.4553
H4_6 H 0.7299 0.4182 0.4936
H5_8 H 0.836(7) 0.408(5) 0.730(7)
N4_8 N 0.8095(2) 0.2113(2) 0.6734(2)
H6_6 H 0.696568 0.247403 0.558682
H7_7 H 0.624346 0.275011 0.613716
O1_9 O 0.1171(3) 0.3856(2) 0.5096(2)
O2_4 O 0.2009(3) 0.4495(2) 0.8382(2)
O3_8 O 0.0427(2) 0.5752(2) 0.6613(2)
N1_9 N 0.1266(2) 0.4057(2) 0.6529(2)
N3_5 N 0.1945(2) 0.3348(2) 0.7376(2)
C1_9 C 0.1499(3) 0.3331(3) 0.6257(3)
C2_9 C 0.1559(3) 0.4030(3) 0.7227(3)
C3_9 C 0.1309(4) 0.3126(3) 0.5474(3)
H1_9 H 0.0832 0.2784 0.5450
H2_9 H 0.1759 0.2837 0.5253
C4_8 C 0.1507(4) 0.4694(3) 0.7782(3)
H3_8 H 0.0952 0.4758 0.7947
H4_7 H 0.1682 0.5201 0.7564
H5_9 H 0.158(5) 0.414(7) 0.520(7)
O4_5 O 0.1995(2) 0.5491(3) 0.5882(2)
N5_5 N 0.0848(2) 0.5555(2) 0.4876(2)
H7_8 H 0.0250113 0.625654 0.636284
H6_7 H 0.997403 0.553432 0.691318
O1_10 O 0.8644(2) 0.8671(3) 0.2596(2)
O2_5 O 0.8005(2) 0.9509(3) 0.5882(2)
O3_9 O 0.6748(2) 0.7927(2) 0.4113(2)
N1_10 N 0.8443(2) 0.8766(2) 0.4029(2)
N3_6 N 0.9152(2) 0.9445(2) 0.4876(2)
C1_10 C 0.9169(3) 0.8999(3) 0.3757(3)
C2_10 C 0.8470(3) 0.9059(3) 0.4727(3)
C3_10 C 0.9374(3) 0.8809(4) 0.2974(3)
H1_10 H 0.9716 0.8332 0.2950
H2_10 H 0.9663 0.9259 0.2753
C4_9 C 0.7806(3) 0.9007(4) 0.5282(3)
H3_9 H 0.7742 0.8452 0.5447
H4_8 H 0.7299 0.9182 0.5064
H5_10 H 0.836(7) 0.908(5) 0.270(7)
O4_6 O 0.7009(3) 0.9495(2) 0.3382(2)
N5_6 N 0.6945(2) 0.8348(2) 0.2376(2)
H6_8 H 0.696568 0.747403 0.441318
H7_9 H 0.624346 0.775011 0.386284
O1_11 O 0.3829(3) 0.6144(2) 0.0096(2)
O2_6 O 0.2991(3) 0.5505(2) 0.3382(2)
O3_10 O 0.4573(2) 0.4248(2) 0.1613(2)
N1_11 N 0.3734(2) 0.5943(2) 0.1529(2)
N3_7 N 0.3055(2) 0.6652(2) 0.2376(2)
C1_11 C 0.3501(3) 0.6669(3) 0.1257(3)
C2_11 C 0.3441(3) 0.5970(3) 0.2227(3)
C3_11 C 0.3691(4) 0.6874(3) 0.0474(3)
H1_11 H 0.4168 0.7216 0.0450
H2_11 H 0.3241 0.7163 0.0253
C4_10 C 0.3493(4) 0.5306(3) 0.2782(3)
H3_10 H 0.4048 0.5242 0.2947
H4_9 H 0.3318 0.4799 0.2564
H5_11 H 0.342(5) 0.586(7) 0.020(7)
O4_7 O 0.3005(2) 0.4509(3) 0.0882(2)
H6_9 H 0.502597 0.446568 0.191318
H7_10 H 0.474989 0.374346 0.136284
N5_7 N 0.4152(2) 0.4445(2) 0.9876(2)
O1_12 O 0.6356(2) 0.1329(3) 0.7596(2)
O3_11 O 0.8252(2) 0.2073(2) 0.9113(2)
N1_12 N 0.6557(2) 0.1234(2) 0.9029(2)
N3_8 N 0.5848(2) 0.0555(2) 0.9876(2)
C1_12 C 0.5831(3) 0.1001(3) 0.8757(3)
C2_12 C 0.6530(3) 0.0941(3) 0.9727(3)
C3_12 C 0.5626(3) 0.1191(4) 0.7974(3)
H1_12 H 0.5284 0.1668 0.7950
H2_12 H 0.5337 0.0741 0.7753
H5_12 H 0.664(7) 0.092(5) 0.770(7)
O4_8 O 0.7991(3) 0.0505(2) 0.8382(2)
N5_8 N 0.8055(2) 0.1652(2) 0.7376(2)
H6_10 H 0.803432 0.252597 0.941318
H7_11 H 0.875654 0.224989 0.886284
O1_13 O 0.6171(3) 0.8856(2) 0.0096(2)
N1_13 N 0.6266(2) 0.9057(2) 0.1529(2)
C1_13 C 0.6499(3) 0.8331(3) 0.1257(3)
C2_13 C 0.6559(3) 0.9030(3) 0.2227(3)
C3_13 C 0.6309(4) 0.8126(3) 0.0474(3)
H1_13 H 0.5832 0.7784 0.0450
H2_13 H 0.6759 0.7837 0.0253
C4_11 C 0.6507(4) 0.9694(3) 0.2782(3)
H3_11 H 0.5952 0.9758 0.2947
H5_13 H 0.658(5) 0.914(7) 0.020(7)
C4_12 C 0.2806(3) 0.4007(4) 0.0282(3)
H3_12 H 0.2742 0.3452 0.0447
H4_10 H 0.2299 0.4182 0.0064
O1_14 O 0.3644(2) 0.3671(3) 0.7596(2)
O3_12 O 0.1748(2) 0.2927(2) 0.9113(2)
N1_14 N 0.3443(2) 0.3766(2) 0.9029(2)
C1_14 C 0.4169(3) 0.3999(3) 0.8757(3)
C2_14 C 0.3470(3) 0.4059(3) 0.9727(3)
C3_14 C 0.4374(3) 0.3809(4) 0.7974(3)
H1_14 H 0.4716 0.3332 0.7950
H2_14 H 0.4663 0.4259 0.7753
H5_14 H 0.336(7) 0.408(5) 0.770(7)
H6_11 H 0.196568 0.247403 0.941318
H7_12 H 0.124346 0.275011 0.886284
O1_15 O 0.8829(3) 0.1144(2) 0.5096(2)
N1_15 N 0.8734(2) 0.0943(2) 0.6529(2)
C1_15 C 0.8501(3) 0.1669(3) 0.6257(3)
C2_15 C 0.8441(3) 0.0970(3) 0.7227(3)
C3_15 C 0.8691(4) 0.1874(3) 0.5474(3)
H1_15 H 0.9168 0.2216 0.5450
H2_15 H 0.8241 0.2163 0.5253
C4_13 C 0.8493(4) 0.0306(3) 0.7782(3)
H3_13 H 0.9048 0.0242 0.7947
H5_15 H 0.842(5) 0.086(7) 0.520(7)
O3_13 O 0.9573(2) 0.9248(2) 0.6613(2)
H4_11 H 0.8318 0.9799 0.7564
H7_13 H 0.974989 0.874346 0.636284
O1_16 O 0.1356(2) 0.6329(3) 0.2596(2)
O3_14 O 0.3252(2) 0.7073(2) 0.4113(2)
N1_16 N 0.1557(2) 0.6234(2) 0.4029(2)
C1_16 C 0.0831(3) 0.6001(3) 0.3757(3)
C2_16 C 0.1530(3) 0.5941(3) 0.4727(3)
C3_16 C 0.0626(3) 0.6191(4) 0.2974(3)
H1_16 H 0.0284 0.6668 0.2950
H2_16 H 0.0337 0.5741 0.2753
C4_14 C 0.2194(3) 0.5993(4) 0.5282(3)
H3_14 H 0.2258 0.6548 0.5447
H4_12 H 0.2701 0.5818 0.5064
H5_16 H 0.164(7) 0.592(5) 0.270(7)
H6_12 H 0.303432 0.752597 0.441318
H7_14 H 0.375654 0.724989 0.386284
O2_7 O 0.3005(2) 0.9509(3) 0.9118(2)
C4_15 C 0.2806(3) 0.9007(4) 0.9718(3)
H3_15 H 0.2742 0.8452 0.9553
H4_13 H 0.2299 0.9182 0.9936
O3_15 O 0.4573(2) 0.9248(2) 0.8387(2)
H4_14 H 0.3318 0.9799 0.7436
H6_13 H 0.502597 0.946568 0.808682
H7_15 H 0.474989 0.874346 0.863716
H6_14 H 0.997403 0.0534324 0.308682
O2_8 O 0.6995(2) 0.0491(3) 0.0882(2)
C4_16 C 0.7194(3) 0.0993(4) 0.0282(3)
H3_16 H 0.7258 0.1548 0.0447
H4_15 H 0.7701 0.0818 0.0064
O3_16 O 0.5427(2) 0.0752(2) 0.1613(2)
H4_16 H 0.6682 0.0201 0.2564
H6_15 H 0.497403 0.0534324 0.191318
H7_16 H 0.525011 0.125654 0.136284
H6_16 H 0.00259707 0.946568 0.691318
loop_
_geom_bond_atom_site_label_1
_geom_bond_atom_site_label_2
_geom_bond_site_symmetry_1
_geom_bond_site_symmetry_2
Co1 O1 1_555 1_555
O1 C3 1_555 1_555
O2 C4 1_555 1_555
O3 Co1 1_555 1_555
N1 Co1 1_555 1_555
N2 N3 1_555 1_555
N3 C2 1_555 1_555
C1 N1 1_555 1_555
C2 N1 1_555 1_555
C3 C1 1_555 1_555
H1 C3 1_555 1_555
H2 C3 1_555 1_555
C4 C2 1_555 1_555
H3 C4 1_555 1_555
H4 C4 1_555 1_555
H5 O1 1_555 1_555
Co2 O2 1_555 1_555
Co3 N2 1_555 1_555
O4 Co1 1_555 1_555
N5 Co1 1_555 1_555
N2 C1 1_555 1_555
N3 Co2 1_555 1_555
O3 H7 1_555 1_555
Co1_2 O1_2 1_555 1_555
O1_2 C3_2 1_555 1_555
O2_2 C4_2 1_555 1_555
O3_2 Co1_2 1_555 1_555
N1_2 Co1_2 1_555 1_555
N2_2 N3_2 1_555 1_555
N3_2 C2_2 1_555 1_555
C1_2 N1_2 1_555 1_555
C2_2 N1_2 1_555 1_555
C3_2 C1_2 1_555 1_555
H1_2 C3_2 1_555 1_555
H2_2 C3_2 1_555 1_555
C4_2 C2_2 1_555 1_555
H3_2 C4_2 1_555 1_555
H4_2 C4_2 1_555 1_555
H5_2 O1_2 1_555 1_555
O4_2 Co1_2 1_555 1_555
N4_2 Co1_2 1_555 1_555
N5_2 Co1_2 1_555 1_555
N2_2 C1_2 1_555 1_555
O3_2 H6_2 1_555 1_555
O3_2 H7_2 1_555 1_555
Co1_3 O1_3 1_555 1_555
O1_3 C3_3 1_555 1_555
O2_3 C4_3 1_555 1_555
O3_3 Co1_3 1_555 1_555
N1_3 Co1_3 1_555 1_555
N2_3 N3_3 1_555 1_555
N3_3 C2_3 1_555 1_555
C1_3 N1_3 1_555 1_555
C2_3 N1_3 1_555 1_555
C3_3 C1_3 1_555 1_555
H1_3 C3_3 1_555 1_555
H2_3 C3_3 1_555 1_555
C4_3 C2_3 1_555 1_555
H3_3 C4_3 1_555 1_555
H4_3 C4_3 1_555 1_555
H5_3 O1_3 1_555 1_555
Co2_3 O2_3 1_555 1_555
Co3_3 N2_3 1_555 1_555
O4_3 Co1_3 1_555 1_555
N4_3 Co1_3 1_555 1_555
N2_3 C1_3 1_555 1_555
N3_3 Co2_3 1_555 1_555
O3_3 H6_3 1_555 1_555
O3_3 H7_3 1_555 1_555
Co1_4 O1_4 1_555 1_555
O1_4 C3_4 1_555 1_555
O3_4 Co1_4 1_555 1_555
N1_4 Co1_4 1_555 1_555
N2_4 N3_4 1_555 1_555
N3_4 C2_4 1_555 1_555
C1_4 N1_4 1_555 1_555
C2_4 N1_4 1_555 1_555
C3_4 C1_4 1_555 1_555
H1_4 C3_4 1_555 1_555
H2_4 C3_4 1_555 1_555
H5_4 O1_4 1_555 1_555
Co3_4 N2_4 1_555 1_555
O4_4 Co1_4 1_555 1_555
N4_4 Co1_4 1_555 1_555
N5_4 Co1_4 1_555 1_555
N2_4 C1_4 1_555 1_555
O3_4 H6_4 1_555 1_555
O3_4 H7_4 1_555 1_555
Co2_4 O1_5 1_555 1_555
O1_5 C3_5 1_555 1_555
O4_2 C4_4 1_555 1_555
N1_5 Co2_4 1_555 1_555
N2_5 N5_2 1_555 1_555
N5_2 C2_5 1_555 1_555
C1_5 N1_5 1_555 1_555
C2_5 N1_5 1_555 1_555
C3_5 C1_5 1_555 1_555
H1_5 C3_5 1_555 1_555
H2_5 C3_5 1_555 1_555
C4_4 C2_5 1_555 1_555
H3_4 C4_4 1_555 1_555
H5_5 O1_5 1_555 1_555
Co3_5 N2_5 1_555 1_555
N4_5 Co2_4 1_555 1_555
N2_5 C1_5 1_555 1_555
Co2 O1_6 1_555 1_555
O1_6 C3_6 1_555 1_555
O3_5 Co2 1_555 1_555
N1_6 Co2 1_555 1_555
N2_6 N5_3 1_555 1_555
N5_3 C2_6 1_555 1_555
C1_6 N1_6 1_555 1_555
C2_6 N1_6 1_555 1_555
C3_6 C1_6 1_555 1_555
H1_6 C3_6 1_555 1_555
H2_6 C3_6 1_555 1_555
H5_6 O1_6 1_555 1_555
Co3_6 N2_6 1_555 1_555
N4_6 Co2 1_555 1_555
N2_6 C1_6 1_555 1_555
O3_5 H6_5 1_555 1_555
O3_5 H7_5 1_555 1_555
O4_3 C4_5 1_555 1_555
H3_5 C4_5 1_555 1_555
H4_4 C4_5 1_555 1_555
O3_6 H7_6 1_555 1_555
Co2_2 O1_7 1_555 1_555
O1_7 C3_7 1_555 1_555
O4_4 C4_6 1_555 1_555
N1_7 Co2_2 1_555 1_555
N2_7 N5_4 1_555 1_555
N5_4 C2_7 1_555 1_555
C1_7 N1_7 1_555 1_555
C2_7 N1_7 1_555 1_555
C3_7 C1_7 1_555 1_555
H1_7 C3_7 1_555 1_555
H2_7 C3_7 1_555 1_555
C4_6 C2_7 1_555 1_555
H3_6 C4_6 1_555 1_555
H5_7 O1_7 1_555 1_555
Co3_7 N2_7 1_555 1_555
N2_7 C1_7 1_555 1_555
Co2_3 O1_8 1_555 1_555
O1_8 C3_8 1_555 1_555
O4 C4_7 1_555 1_555
O3_7 Co2_3 1_555 1_555
N1_8 Co2_3 1_555 1_555
N2_8 N5 1_555 1_555
N5 C2_8 1_555 1_555
C1_8 N1_8 1_555 1_555
C2_8 N1_8 1_555 1_555
C3_8 C1_8 1_555 1_555
H1_8 C3_8 1_555 1_555
H2_8 C3_8 1_555 1_555
C4_7 C2_8 1_555 1_555
H3_7 C4_7 1_555 1_555
H4_6 C4_7 1_555 1_555
H5_8 O1_8 1_555 1_555
N4_8 Co2_3 1_555 1_555
N2_8 C1_8 1_555 1_555
O3_7 H6_6 1_555 1_555
O3_7 H7_7 1_555 1_555
Co3_8 O1_9 1_555 1_555
O1_9 C3_9 1_555 1_555
O2_4 C4_8 1_555 1_555
O3_8 Co3_8 1_555 1_555
N1_9 Co3_8 1_555 1_555
N4_2 N3_5 1_555 1_555
N3_5 C2_9 1_555 1_555
C1_9 N1_9 1_555 1_555
C2_9 N1_9 1_555 1_555
C3_9 C1_9 1_555 1_555
H1_9 C3_9 1_555 1_555
H2_9 C3_9 1_555 1_555
C4_8 C2_9 1_555 1_555
H3_8 C4_8 1_555 1_555
H4_7 C4_8 1_555 1_555
H5_9 O1_9 1_555 1_555
Co3_5 O2_4 1_555 1_555
O4_5 Co3_8 1_555 1_555
N5_5 Co3_8 1_555 1_555
N4_2 C1_9 1_555 1_555
N3_5 Co3_5 1_555 1_555
O3_8 H7_8 1_555 1_555
Co3 O1_10 1_555 1_555
O1_10 C3_10 1_555 1_555
O2_5 C4_9 1_555 1_555
O3_9 Co3 1_555 1_555
N1_10 Co3 1_555 1_555
N4_7 N3_6 1_555 1_555
N3_6 C2_10 1_555 1_555
C1_10 N1_10 1_555 1_555
C2_10 N1_10 1_555 1_555
C3_10 C1_10 1_555 1_555
H1_10 C3_10 1_555 1_555
H2_10 C3_10 1_555 1_555
C4_9 C2_10 1_555 1_555
H3_9 C4_9 1_555 1_555
H4_8 C4_9 1_555 1_555
H5_10 O1_10 1_555 1_555
O4_6 Co3 1_555 1_555
N5_6 Co3 1_555 1_555
N4_7 C1_10 1_555 1_555
O3_9 H6_8 1_555 1_555
O3_9 H7_9 1_555 1_555
Co3_6 O1_11 1_555 1_555
O1_11 C3_11 1_555 1_555
O2_6 C4_10 1_555 1_555
O3_10 Co3_6 1_555 1_555
N1_11 Co3_6 1_555 1_555
N4_4 N3_7 1_555 1_555
N3_7 C2_11 1_555 1_555
C1_11 N1_11 1_555 1_555
C2_11 N1_11 1_555 1_555
C3_11 C1_11 1_555 1_555
H1_11 C3_11 1_555 1_555
H2_11 C3_11 1_555 1_555
C4_10 C2_11 1_555 1_555
H3_10 C4_10 1_555 1_555
H4_9 C4_10 1_555 1_555
H5_11 O1_11 1_555 1_555
Co3_7 O2_6 1_555 1_555
O4_7 Co3_6 1_555 1_555
N4_4 C1_11 1_555 1_555
N3_7 Co3_7 1_555 1_555
O3_10 H6_9 1_555 1_555
O3_10 H7_10 1_555 1_555
Co3_3 O1_12 1_555 1_555
O1_12 C3_12 1_555 1_555
O3_11 Co3_3 1_555 1_555
N1_12 Co3_3 1_555 1_555
N4_5 N3_8 1_555 1_555
N3_8 C2_12 1_555 1_555
C1_12 N1_12 1_555 1_555
C2_12 N1_12 1_555 1_555
C3_12 C1_12 1_555 1_555
H1_12 C3_12 1_555 1_555
H2_12 C3_12 1_555 1_555
H5_12 O1_12 1_555 1_555
O4_8 Co3_3 1_555 1_555
N5_8 Co3_3 1_555 1_555
N4_5 C1_12 1_555 1_555
O3_11 H6_10 1_555 1_555
O3_11 H7_11 1_555 1_555
Co3_4 O1_13 1_555 1_555
O1_13 C3_13 1_555 1_555
O4_6 C4_11 1_555 1_555
N1_13 Co3_4 1_555 1_555
N4_6 N5_6 1_555 1_555
N5_6 C2_13 1_555 1_555
C1_13 N1_13 1_555 1_555
C2_13 N1_13 1_555 1_555
C3_13 C1_13 1_555 1_555
H1_13 C3_13 1_555 1_555
H2_13 C3_13 1_555 1_555
C4_11 C2_13 1_555 1_555
H3_11 C4_11 1_555 1_555
H5_13 O1_13 1_555 1_555
N4_6 C1_13 1_555 1_555
O4_7 C4_12 1_555 1_555
H3_12 C4_12 1_555 1_555
H4_10 C4_12 1_555 1_555
Co3_5 O1_14 1_555 1_555
O1_14 C3_14 1_555 1_555
O3_12 Co3_5 1_555 1_555
N1_14 Co3_5 1_555 1_555
N4_3 N5_7 1_555 1_555
N5_7 C2_14 1_555 1_555
C1_14 N1_14 1_555 1_555
C2_14 N1_14 1_555 1_555
C3_14 C1_14 1_555 1_555
H1_14 C3_14 1_555 1_555
H2_14 C3_14 1_555 1_555
H5_14 O1_14 1_555 1_555
N4_3 C1_14 1_555 1_555
O3_12 H6_11 1_555 1_555
O3_12 H7_12 1_555 1_555
Co3_2 O1_15 1_555 1_555
O1_15 C3_15 1_555 1_555
O4_8 C4_13 1_555 1_555
N1_15 Co3_2 1_555 1_555
N4_8 N5_8 1_555 1_555
N5_8 C2_15 1_555 1_555
C1_15 N1_15 1_555 1_555
C2_15 N1_15 1_555 1_555
C3_15 C1_15 1_555 1_555
H1_15 C3_15 1_555 1_555
H2_15 C3_15 1_555 1_555
C4_13 C2_15 1_555 1_555
H3_13 C4_13 1_555 1_555
H5_15 O1_15 1_555 1_555
N4_8 C1_15 1_555 1_555
O3_13 H7_13 1_555 1_555
Co3_7 O1_16 1_555 1_555
O1_16 C3_16 1_555 1_555
O4_5 C4_14 1_555 1_555
O3_14 Co3_7 1_555 1_555
N1_16 Co3_7 1_555 1_555
N4 N5_5 1_555 1_555
N5_5 C2_16 1_555 1_555
C1_16 N1_16 1_555 1_555
C2_16 N1_16 1_555 1_555
C3_16 C1_16 1_555 1_555
H1_16 C3_16 1_555 1_555
H2_16 C3_16 1_555 1_555
C4_14 C2_16 1_555 1_555
H3_14 C4_14 1_555 1_555
H4_12 C4_14 1_555 1_555
H5_16 O1_16 1_555 1_555
N4 C1_16 1_555 1_555
O3_14 H6_12 1_555 1_555
O3_14 H7_14 1_555 1_555
O2_7 C4_15 1_555 1_555
H3_15 C4_15 1_555 1_555
H4_13 C4_15 1_555 1_555
O3_15 H6_13 1_555 1_555
O3_15 H7_15 1_555 1_555
O2_8 C4_16 1_555 1_555
H3_16 C4_16 1_555 1_555
H4_15 C4_16 1_555 1_555
O3_16 H6_15 1_555 1_555
O3_16 H7_16 1_555 1_555

#END
