
###############################################################################
#
# This file contains modified crystal structure data generated from the
# MOF subset of the Cambridge Structural Database (CSD) v543 
# hosted by the Cambridge Crystallographic Data Centre (CCDC).
#
# This work is licensed under the Creative Commons
# Attribution-NonCommercial-ShareAlike 4.0 International License.
# To view a copy of this license, visit
# http://creativecommons.org/licenses/by-nc-sa/4.0/
# or send a letter to
# Creative Commons, PO Box 1866, Mountain View, CA 94042, USA.
#
# CIF created using the CSD Python API on 29 September 2022
# The structure has been converted into the P1 space group
# The structure has a 3D framework
# The original CSD entry XISPEW01 is in the triclinic crystal system
# The framework has been calculated to contain at least 10.0% void space
# The void calculation uses a probe of radius 1.32A, grid spacing 0.4
#
###############################################################################

data_XISPEW01
_chemical_formula_moiety         '(C36 H16 Fe7 N12 Pt2)n'
_symmetry_cell_setting           triclinic
_symmetry_space_group_name_H-M   'P 1'
_symmetry_Int_Tables_number      1
_space_group_name_Hall           'P 1'
loop_
_symmetry_equiv_pos_site_id
_symmetry_equiv_pos_as_xyz
1 x,y,z
_cell_length_a                   7.3635(2)
_cell_length_b                   14.1112(4)
_cell_length_c                   16.3906(5)
_cell_angle_alpha                74.663(3)
_cell_angle_beta                 82.349(2)
_cell_angle_gamma                89.878(2)
_cell_volume                     1626.86
loop_
_atom_site_label
_atom_site_type_symbol
_atom_site_fract_x
_atom_site_fract_y
_atom_site_fract_z
Fe7 Fe 0.0000 0.5000 0.0000
Fe9 Fe 0.0000 0.0000 0.0000
Fe7_2 Fe 0.0000 0.5000 1.0000
Fe9_2 Fe 0.0000 0.0000 1.0000
Fe9_3 Fe 0.0000 1.0000 0.0000
Fe9_4 Fe 0.0000 1.0000 1.0000
Pt1 Pt 0.491722(10) 0.228367(6) 0.034498(5)
N2 N 0.1789(3) 0.08126(14) 0.02915(12)
N3 N 0.7992(3) 0.38447(15) 0.02452(14)
N4 N 0.2108(3) 0.39621(15) 0.00416(14)
N6 N 0.7986(3) 0.07500(14) 0.03587(12)
C8 C 0.2942(3) 0.13261(16) 0.03515(14)
C9 C 0.6861(3) 0.32595(17) 0.02987(15)
C10 C 0.3132(3) 0.33441(16) 0.01620(15)
C11 C 0.6802(3) 0.12674(16) 0.04247(14)
Fe7_3 Fe 1.0000 0.5000 0.0000
Fe9_5 Fe 1.0000 0.0000 0.0000
N1 N 0.0213(3) 0.09424(14) 0.88385(12)
C1 C 0.0421(4) 0.06127(19) 0.81365(16)
C2 C 0.0485(4) 0.1221(2) 0.73235(17)
H2 H 0.0638 0.0961 0.6854
C3 C 0.0318(4) 0.2225(2) 0.72096(16)
C4 C 0.0141(4) 0.2568(2) 0.79300(17)
H3 H 0.0051 0.3238 0.7878
C5 C 0.0097(3) 0.19184(18) 0.87254(15)
C6 C 0.0288(4) 0.2863(2) 0.63701(18)
C7 C 0.0210(5) 0.3319(2) 0.56528(19)
C12 C 0.1454(4) 0.4927(2) 0.17307(18)
H5 H 0.2523 0.5160 0.1360
C13 C 0.1512(5) 0.4729(2) 0.25948(19)
H6 H 0.2594 0.4835 0.2797
C18 C 0.0084(5) 0.3769(2) 0.48072(19)
Fe7_4 Fe 1.0000 0.5000 1.0000
Fe9_6 Fe 1.0000 0.0000 1.0000
N14 N 0.2008(3) 0.61553(15) 0.97548(14)
N17 N 0.0054(3) 0.51983(16) 0.86020(13)
H12 H 0.0018 0.7836 0.0798
C32 C 0.0060(5) 0.5629(2) 0.68387(18)
C33 C 0.1638(5) 0.5752(3) 0.71785(19)
H15 H 0.2726 0.5983 0.6822
C34 C 0.1572(4) 0.5526(2) 0.80556(18)
H16 H 0.2643 0.5607 0.8277
C35 C 0.0016(6) 0.5914(2) 0.59310(19)
Fe9_7 Fe 1.0000 1.0000 0.0000
H1 H 0.0528 0.9941 0.8202
Fe9_8 Fe 1.0000 1.0000 1.0000
N19 N 0.2014(3) 0.92500(14) 0.96413(12)
H9 H 0.9472 0.0059 0.1798
N16 N 0.9946(3) 0.48017(16) 0.13980(13)
H4 H 0.9982 0.2164 0.9202
C14 C 0.9940(5) 0.4371(2) 0.31613(18)
C15 C 0.8362(5) 0.4248(3) 0.28215(19)
H7 H 0.7274 0.4017 0.3178
C16 C 0.8428(4) 0.4474(2) 0.19444(18)
H8 H 0.7357 0.4393 0.1723
C17 C 0.9984(6) 0.4086(2) 0.40690(19)
N15 N 0.7892(3) 0.60379(15) 0.99584(14)
N7 N 0.9787(3) 0.90576(14) 0.11615(12)
C19 C 0.9579(4) 0.93873(19) 0.18635(16)
C20 C 0.9515(4) 0.8779(2) 0.26765(17)
H10 H 0.9362 0.9039 0.3146
C21 C 0.9682(4) 0.7775(2) 0.27904(16)
C22 C 0.9859(4) 0.7432(2) 0.20700(17)
H11 H 0.9949 0.6762 0.2122
C23 C 0.9903(3) 0.80816(18) 0.12746(15)
C24 C 0.9712(4) 0.7137(2) 0.36299(18)
C25 C 0.9790(5) 0.6681(2) 0.43472(19)
C30 C 0.8546(4) 0.5073(2) 0.82693(18)
H13 H 0.7477 0.4840 0.8640
C31 C 0.8488(5) 0.5271(2) 0.74052(19)
H14 H 0.7406 0.5165 0.7203
C36 C 0.9916(5) 0.6231(2) 0.51928(19)
Pt2 Pt 0.508278(10) 0.771633(6) 0.965502(5)
N8 N 0.8211(3) 0.91874(14) 0.97085(12)
C26 C 0.7058(3) 0.86739(16) 0.96485(14)
C27 C 0.3139(3) 0.67405(17) 0.97013(15)
C28 C 0.6868(3) 0.66559(16) 0.98380(15)
C29 C 0.3198(3) 0.87326(16) 0.95753(14)
loop_
_geom_bond_atom_site_label_1
_geom_bond_atom_site_label_2
_geom_bond_site_symmetry_1
_geom_bond_site_symmetry_2
Pt1 C8 1_555 1_555
Fe7 N4 1_555 1_555
N2 Fe9 1_555 1_555
N3 C9 1_555 1_555
N4 C10 1_555 1_555
N6 C11 1_555 1_555
C8 N2 1_555 1_555
C9 Pt1 1_555 1_555
C10 Pt1 1_555 1_555
C11 Pt1 1_555 1_555
Fe7_3 N3 1_555 1_555
Fe9_5 N6 1_555 1_555
Fe9_2 N1 1_555 1_555
N1 C1 1_555 1_555
C2 C1 1_555 1_555
H2 C2 1_555 1_555
C3 C2 1_555 1_555
C4 C3 1_555 1_555
H3 C4 1_555 1_555
C5 N1 1_555 1_555
C6 C3 1_555 1_555
C7 C6 1_555 1_555
C12 H5 1_555 1_555
C13 C12 1_555 1_555
H6 C13 1_555 1_555
C18 C7 1_555 1_555
N14 Fe7_2 1_555 1_555
N17 Fe7_2 1_555 1_555
C4 C5 1_555 1_555
C33 C32 1_555 1_555
H15 C33 1_555 1_555
C34 N17 1_555 1_555
H16 C34 1_555 1_555
C35 C32 1_555 1_555
C33 C34 1_555 1_555
N19 Fe9_4 1_555 1_555
N16 Fe7_3 1_555 1_555
C15 C14 1_555 1_555
H7 C15 1_555 1_555
C16 N16 1_555 1_555
H8 C16 1_555 1_555
C17 C14 1_555 1_555
N15 Fe7_4 1_555 1_555
C15 C16 1_555 1_555
N7 Fe9_7 1_555 1_555
C19 N7 1_555 1_555
C20 C19 1_555 1_555
H10 C20 1_555 1_555
C21 C20 1_555 1_555
C22 C21 1_555 1_555
H11 C22 1_555 1_555
C23 N7 1_555 1_555
C24 C21 1_555 1_555
C25 C24 1_555 1_555
C30 H13 1_555 1_555
C31 C30 1_555 1_555
H14 C31 1_555 1_555
C36 C25 1_555 1_555
C22 C23 1_555 1_555
Pt2 C26 1_555 1_555
N8 Fe9_8 1_555 1_555
N14 C27 1_555 1_555
N15 C28 1_555 1_555
N19 C29 1_555 1_555
C26 N8 1_555 1_555
C27 Pt2 1_555 1_555
C28 Pt2 1_555 1_555
C29 Pt2 1_555 1_555

#END
