
###############################################################################
#
# This file contains modified crystal structure data generated from the
# MOF subset of the Cambridge Structural Database (CSD) v543 
# hosted by the Cambridge Crystallographic Data Centre (CCDC).
#
# This work is licensed under the Creative Commons
# Attribution-NonCommercial-ShareAlike 4.0 International License.
# To view a copy of this license, visit
# http://creativecommons.org/licenses/by-nc-sa/4.0/
# or send a letter to
# Creative Commons, PO Box 1866, Mountain View, CA 94042, USA.
#
# CIF created using the CSD Python API on 29 September 2022
# The structure has been converted into the P1 space group
# The structure has a 3D framework
# The original CSD entry XISPEW is in the triclinic crystal system
# The framework has been calculated to contain at least 10.0% void space
# The void calculation uses a probe of radius 1.32A, grid spacing 0.4
#
###############################################################################

data_XISPEW
_chemical_formula_moiety         '(C36 H16 Fe7 N12 Pt2)n'
_symmetry_cell_setting           triclinic
_symmetry_space_group_name_H-M   'P 1'
_symmetry_Int_Tables_number      1
_space_group_name_Hall           'P 1'
loop_
_symmetry_equiv_pos_site_id
_symmetry_equiv_pos_as_xyz
1 x,y,z
_cell_length_a                   7.2452(2)
_cell_length_b                   13.9706(5)
_cell_length_c                   16.3779(7)
_cell_angle_alpha                73.531(3)
_cell_angle_beta                 83.678(3)
_cell_angle_gamma                89.998(3)
_cell_volume                     1579.24
loop_
_atom_site_label
_atom_site_type_symbol
_atom_site_fract_x
_atom_site_fract_y
_atom_site_fract_z
Fe7 Fe 0.0000 0.5000 0.0000
Fe9 Fe 0.0000 0.0000 0.0000
Fe7_2 Fe 0.0000 0.5000 1.0000
Fe9_2 Fe 0.0000 0.0000 1.0000
Fe9_3 Fe 0.0000 1.0000 0.0000
Fe9_4 Fe 0.0000 1.0000 1.0000
Pt1 Pt 0.49309(2) 0.237530(12) 0.032574(11)
N2 N 0.1813(6) 0.0837(3) 0.0281(3)
N3 N 0.8116(6) 0.3952(3) 0.0199(3)
N4 N 0.1934(6) 0.4030(3) 0.0081(3)
N6 N 0.7990(6) 0.0794(3) 0.0317(3)
C8 C 0.2953(7) 0.1390(4) 0.0334(3)
C9 C 0.6939(7) 0.3368(4) 0.0266(3)
C10 C 0.3041(7) 0.3427(4) 0.0183(4)
C11 C 0.6842(7) 0.1348(4) 0.0376(4)
Fe7_3 Fe 1.0000 0.5000 0.0000
Fe9_5 Fe 1.0000 0.0000 0.0000
N1 N 0.0223(6) 0.0943(4) 0.8816(3)
C1 C 0.0450(8) 0.0605(4) 0.8124(4)
C2 C 0.0552(9) 0.1229(5) 0.7292(4)
H2 H 0.0738 0.0968 0.6827
C3 C 0.0369(10) 0.2257(5) 0.7164(4)
C4 C 0.0172(10) 0.2622(5) 0.7871(4)
H3 H 0.0081 0.3304 0.7801
C5 C 0.0114(9) 0.1957(4) 0.8685(4)
C6 C 0.0334(10) 0.2899(6) 0.6307(5)
C7 C 0.0239(11) 0.3361(6) 0.5570(5)
C12 C 0.1507(10) 0.4846(5) 0.1623(4)
H5 H 0.2618 0.5011 0.1265
C13 C 0.1564(11) 0.4658(5) 0.2498(5)
H6 H 0.2678 0.4718 0.2716
C18 C 0.0111(12) 0.3792(6) 0.4714(5)
Fe7_4 Fe 1.0000 0.5000 1.0000
Fe9_6 Fe 1.0000 0.0000 1.0000
N14 N 0.1884(6) 0.6048(3) 0.9801(3)
N17 N 0.0075(7) 0.5196(4) 0.8741(3)
H12 H 0.0003 0.7794 0.0842
C32 C 0.0079(11) 0.5623(5) 0.6956(5)
C33 C 0.1727(11) 0.5668(5) 0.7314(5)
H15 H 0.2848 0.5845 0.6965
C34 C 0.1670(9) 0.5446(5) 0.8204(4)
H16 H 0.2776 0.5469 0.8438
C35 C 0.0036(12) 0.5899(6) 0.6038(5)
Fe9_7 Fe 1.0000 1.0000 0.0000
H1 H 0.0544 0.9921 0.8206
Fe9_8 Fe 1.0000 1.0000 1.0000
N19 N 0.2010(6) 0.9206(3) 0.9683(3)
H9 H 0.9456 0.0079 0.1794
N16 N 0.9925(7) 0.4804(4) 0.1259(3)
H4 H 0.9997 0.2206 0.9158
C14 C 0.9921(11) 0.4377(5) 0.3044(5)
C15 C 0.8273(11) 0.4332(5) 0.2686(5)
H7 H 0.7152 0.4155 0.3035
C16 C 0.8330(9) 0.4554(5) 0.1796(4)
H8 H 0.7224 0.4531 0.1562
C17 C 0.9964(12) 0.4101(6) 0.3962(5)
N15 N 0.8066(6) 0.5970(3) 0.9919(3)
N7 N 0.9777(6) 0.9057(4) 0.1184(3)
C19 C 0.9550(8) 0.9395(4) 0.1876(4)
C20 C 0.9448(9) 0.8771(5) 0.2708(4)
H10 H 0.9262 0.9032 0.3173
C21 C 0.9631(10) 0.7743(5) 0.2836(4)
C22 C 0.9828(10) 0.7378(5) 0.2129(4)
H11 H 0.9919 0.6696 0.2199
C23 C 0.9886(9) 0.8043(4) 0.1315(4)
C24 C 0.9666(10) 0.7101(6) 0.3693(5)
C25 C 0.9761(11) 0.6639(6) 0.4430(5)
C30 C 0.8493(10) 0.5154(5) 0.8377(4)
H13 H 0.7382 0.4989 0.8735
C31 C 0.8436(11) 0.5342(5) 0.7502(5)
H14 H 0.7322 0.5282 0.7284
C36 C 0.9889(12) 0.6208(6) 0.5286(5)
Pt2 Pt 0.50691(2) 0.762470(12) 0.967426(11)
N8 N 0.8187(6) 0.9163(3) 0.9719(3)
C26 C 0.7047(7) 0.8610(4) 0.9666(3)
C27 C 0.3061(7) 0.6632(4) 0.9734(3)
C28 C 0.6959(7) 0.6573(4) 0.9817(4)
C29 C 0.3158(7) 0.8652(4) 0.9624(4)
loop_
_geom_bond_atom_site_label_1
_geom_bond_atom_site_label_2
_geom_bond_site_symmetry_1
_geom_bond_site_symmetry_2
Pt1 C8 1_555 1_555
Fe7 N4 1_555 1_555
N2 Fe9 1_555 1_555
N3 C9 1_555 1_555
N4 C10 1_555 1_555
N6 C11 1_555 1_555
C8 N2 1_555 1_555
C9 Pt1 1_555 1_555
C10 Pt1 1_555 1_555
C11 Pt1 1_555 1_555
Fe7_3 N3 1_555 1_555
Fe9_5 N6 1_555 1_555
Fe9_2 N1 1_555 1_555
N1 C1 1_555 1_555
C2 C1 1_555 1_555
H2 C2 1_555 1_555
C3 C2 1_555 1_555
C4 C3 1_555 1_555
H3 C4 1_555 1_555
C5 N1 1_555 1_555
C6 C3 1_555 1_555
C7 C6 1_555 1_555
C12 H5 1_555 1_555
C13 C12 1_555 1_555
H6 C13 1_555 1_555
C18 C7 1_555 1_555
N14 Fe7_2 1_555 1_555
N17 Fe7_2 1_555 1_555
C4 C5 1_555 1_555
C33 C32 1_555 1_555
H15 C33 1_555 1_555
C34 N17 1_555 1_555
H16 C34 1_555 1_555
C35 C32 1_555 1_555
C33 C34 1_555 1_555
N19 Fe9_4 1_555 1_555
N16 Fe7_3 1_555 1_555
C15 C14 1_555 1_555
H7 C15 1_555 1_555
C16 N16 1_555 1_555
H8 C16 1_555 1_555
C17 C14 1_555 1_555
N15 Fe7_4 1_555 1_555
C15 C16 1_555 1_555
N7 Fe9_7 1_555 1_555
C19 N7 1_555 1_555
C20 C19 1_555 1_555
H10 C20 1_555 1_555
C21 C20 1_555 1_555
C22 C21 1_555 1_555
H11 C22 1_555 1_555
C23 N7 1_555 1_555
C24 C21 1_555 1_555
C25 C24 1_555 1_555
C30 H13 1_555 1_555
C31 C30 1_555 1_555
H14 C31 1_555 1_555
C36 C25 1_555 1_555
C22 C23 1_555 1_555
Pt2 C26 1_555 1_555
N8 Fe9_8 1_555 1_555
N14 C27 1_555 1_555
N15 C28 1_555 1_555
N19 C29 1_555 1_555
C26 N8 1_555 1_555
C27 Pt2 1_555 1_555
C28 Pt2 1_555 1_555
C29 Pt2 1_555 1_555

#END
