
###############################################################################
#
# This file contains modified crystal structure data generated from the
# MOF subset of the Cambridge Structural Database (CSD) v543 
# hosted by the Cambridge Crystallographic Data Centre (CCDC).
#
# This work is licensed under the Creative Commons
# Attribution-NonCommercial-ShareAlike 4.0 International License.
# To view a copy of this license, visit
# http://creativecommons.org/licenses/by-nc-sa/4.0/
# or send a letter to
# Creative Commons, PO Box 1866, Mountain View, CA 94042, USA.
#
# CIF created using the CSD Python API on 29 September 2022
# The structure has been converted into the P1 space group
# The structure has a 3D framework
# The original CSD entry XIVBAI is in the monoclinic crystal system
# The original CSD entry XIVBAI is in a Sohncke space group
# The framework has been calculated to contain at least 10.0% void space
# The void calculation uses a probe of radius 1.32A, grid spacing 0.4
# H atom positions have been added when not included in the experimental data
#
###############################################################################

data_XIVBAI
_chemical_formula_moiety         '(C181 H104 Cd7 N9 O33)n'
_symmetry_cell_setting           triclinic
_symmetry_space_group_name_H-M   'P 1'
_symmetry_Int_Tables_number      1
_space_group_name_Hall           'P 1'
loop_
_symmetry_equiv_pos_site_id
_symmetry_equiv_pos_as_xyz
1 x,y,z
_cell_length_a                   21.063(4)
_cell_length_b                   35.104(7)
_cell_length_c                   9.879(2)
_cell_angle_alpha                90
_cell_angle_beta                 97.87(3)
_cell_angle_gamma                90
_cell_volume                     7235.69
loop_
_atom_site_label
_atom_site_type_symbol
_atom_site_fract_x
_atom_site_fract_y
_atom_site_fract_z
Cd12 Cd 0.000000 0.04355(2) 0.000000
Cd12_2 Cd 0.000000 0.04355(2) 1.000000
N2 N -0.000000 0.6789(3) 0.000000
C36 C -0.000000 0.7181(3) 0.000000
C39 C -0.000000 0.7991(3) 0.000000
C40 C 0.000000 0.8403(3) 0.000000
C43 C 0.000000 0.9204(4) 0.000000
C44 C 0.000000 0.9635(3) 0.000000
H43 H 0.118075 0.702919 0.007287
C77 C 0.0303(6) 0.8606(3) 0.1155(10)
H47 H 0.051267 0.847231 0.192375
C78 C 0.0290(4) 0.9010(3) 0.1154(8)
H48 H 0.047805 0.914774 0.193482
O14 O 0.0306(3) 0.97864(15) 0.1021(7)
Cd7 Cd 0.02249(3) 0.99611(2) 0.32321(7)
Cd9 Cd 0.500000 0.54355(2) 0.000000
N2_2 N -0.000000 0.6789(3) 1.000000
C36_2 C -0.000000 0.7181(3) 1.000000
C39_2 C -0.000000 0.7991(3) 1.000000
C40_2 C 0.000000 0.8403(3) 1.000000
C43_2 C 0.000000 0.9204(4) 1.000000
C44_2 C 0.000000 0.9635(3) 1.000000
O12 O 0.3751(3) 0.5113(3) 0.6729(8)
O13 O 0.4425(4) 0.55584(18) 0.7824(8)
C62 C 0.3799(5) 0.5394(5) 0.7302(12)
C63 C 0.3255(4) 0.5625(3) 0.7677(8)
C64 C 0.2678(5) 0.5481(5) 0.7560(13)
H37 H 0.263046 0.523245 0.718279
C65 C 0.2128(6) 0.5647(3) 0.7915(12)
H38 H 0.173752 0.550835 0.785689
C66 C 0.2168(4) 0.6016(3) 0.8352(10)
C67 C 0.2772(5) 0.6199(3) 0.8277(16)
H39 H 0.282301 0.646583 0.840162
C68 C 0.3273(6) 0.5973(5) 0.802(2)
H40 H 0.368217 0.609168 0.810313
C69 C 0.1602(4) 0.6233(3) 0.8682(9)
C70 C 0.1009(4) 0.6068(3) 0.8566(9)
H41 H 0.096138 0.581949 0.818906
C71 C 0.0476(4) 0.6242(2) 0.8963(9)
H42 H 0.007176 0.611770 0.882647
C72 C 0.0537(4) 0.6586(3) 0.9541(9)
C73 C 0.1139(4) 0.6781(2) 0.9687(11)
C74 C 0.1639(4) 0.6606(3) 0.9270(11)
H44 H 0.203952 0.673512 0.936861
C75 C 0.0036(5) 0.7385(2) 0.8793(9)
H45 H 0.007257 0.725157 0.797060
C76 C 0.0019(5) 0.7782(3) 0.8792(10)
H46 H 0.001934 0.791475 0.795373
Cd5 Cd 0.47751(3) 0.49611(2) 0.67679(7)
Cd9_2 Cd 0.500000 0.54355(2) 1.000000
Cd12_3 Cd 1.000000 0.04355(2) 0.000000
Cd12_4 Cd 1.000000 0.04355(2) 1.000000
Cd1 Cd 0.52249(3) 0.49611(2) 0.32321(7)
O1 O 0.5390(3) 0.4439(2) 0.4337(7)
C1 C 0.500000 0.4223(4) 0.500000
C2 C 0.500000 0.3819(3) 0.500000
C3 C 0.4457(4) 0.3630(3) 0.5267(8)
H1 H 0.409507 0.376909 0.547418
C4 C 0.4444(4) 0.3240(3) 0.5232(8)
H2 H 0.405801 0.311386 0.536270
C5 C 0.500000 0.3008(4) 0.500000
C6 C 0.500000 0.2588(4) 0.500000
C7 C 0.4462(4) 0.2389(3) 0.4507(11)
H3 H 0.408606 0.252699 0.416662
C8 C 0.4441(3) 0.1994(3) 0.4480(9)
H4 H 0.406519 0.185702 0.412719
C9 C 0.500000 0.1816(5) 0.500000
N1 N 0.500000 0.1392(3) 0.500000
C10 C 0.4500(4) 0.1203(3) 0.5513(10)
C11 C 0.4277(4) 0.0850(3) 0.4971(9)
H5 H 0.448960 0.072783 0.430334
C12 C 0.3733(4) 0.0676(3) 0.5418(8)
H6 H 0.355632 0.045396 0.496626
C13 C 0.3453(4) 0.0824(3) 0.6503(9)
C14 C 0.3682(4) 0.1168(3) 0.7025(10)
H7 H 0.346852 0.128700 0.769891
C15 C 0.4227(4) 0.1357(2) 0.6604(9)
H8 H 0.439735 0.158115 0.705538
C16 C 0.2915(4) 0.0671(3) 0.6981(8)
C17 C 0.2502(5) 0.0408(4) 0.6054(13)
H9 H 0.261268 0.034959 0.517585
C18 C 0.1918(4) 0.0236(4) 0.6502(11)
H10 H 0.167466 0.004705 0.597102
C19 C 0.1737(4) 0.0369(3) 0.7785(8)
C20 C 0.2132(4) 0.0593(3) 0.8623(10)
H11 H 0.202272 0.064346 0.950753
C21 C 0.2708(4) 0.0762(3) 0.8270(9)
H12 H 0.295159 0.093167 0.888490
C22 C 0.1091(5) 0.0239(3) 0.8063(12)
O2 O 0.0783(3) 0.0001(2) 0.7290(6)
O3 O 0.0880(2) 0.0429(2) 0.9036(6)
O4 O 0.6249(3) 0.5113(3) 0.3271(8)
O5 O 0.5575(4) 0.55584(18) 0.2176(8)
C23 C 0.6201(5) 0.5394(5) 0.2698(12)
C24 C 0.6745(4) 0.5625(3) 0.2323(8)
C25 C 0.7322(5) 0.5481(5) 0.2440(13)
H13 H 0.736954 0.523245 0.281721
C26 C 0.7872(6) 0.5647(3) 0.2085(12)
H14 H 0.826248 0.550835 0.214311
C27 C 0.7832(4) 0.6016(3) 0.1648(10)
C28 C 0.7228(5) 0.6199(3) 0.1723(16)
H15 H 0.717699 0.646583 0.159838
C29 C 0.6727(6) 0.5973(5) 0.198(2)
H16 H 0.631783 0.609168 0.189687
C30 C 0.8398(4) 0.6233(3) 0.1318(9)
C31 C 0.8991(4) 0.6068(3) 0.1434(9)
H17 H 0.903862 0.581949 0.181094
C32 C 0.9524(4) 0.6242(2) 0.1037(9)
H18 H 0.992824 0.611770 0.117353
C33 C 0.9463(4) 0.6586(3) 0.0459(9)
C34 C 0.8861(4) 0.6781(2) 0.0313(11)
C35 C 0.8361(4) 0.6606(3) 0.0730(11)
H20 H 0.796048 0.673512 0.063139
N2_3 N 1.000000 0.6789(3) 0.000000
C36_3 C 1.000000 0.7181(3) 0.000000
C37 C 0.9964(5) 0.7385(2) 0.1207(9)
H21 H 0.992743 0.725157 0.202940
C38 C 0.9981(5) 0.7782(3) 0.1208(10)
H22 H 0.998066 0.791475 0.204627
C39_3 C 1.000000 0.7991(3) 0.000000
C40_3 C 1.000000 0.8403(3) 0.000000
C43_3 C 1.000000 0.9204(4) 0.000000
C44_3 C 1.000000 0.9635(3) 0.000000
O7 O 0.500000 0.5420(4) 0.500000
O8 O 0.500000 0.6083(3) 0.000000
O9 O 0.4610(3) 0.4439(2) 0.5663(7)
C45 C 0.5543(4) 0.3630(3) 0.4733(8)
H25 H 0.590493 0.376909 0.452582
C46 C 0.5556(4) 0.3240(3) 0.4768(8)
H26 H 0.594199 0.311386 0.463730
C47 C 0.5538(4) 0.2389(3) 0.5493(11)
H27 H 0.591394 0.252699 0.583338
C48 C 0.5559(3) 0.1994(3) 0.5520(9)
H28 H 0.593481 0.185702 0.587281
C49 C 0.5500(4) 0.1203(3) 0.4487(10)
C50 C 0.5723(4) 0.0850(3) 0.5029(9)
H29 H 0.551040 0.072783 0.569666
C51 C 0.6267(4) 0.0676(3) 0.4582(8)
H30 H 0.644368 0.045396 0.503374
C52 C 0.6547(4) 0.0824(3) 0.3497(9)
C53 C 0.6318(4) 0.1168(3) 0.2975(10)
H31 H 0.653148 0.128700 0.230109
C54 C 0.5773(4) 0.1357(2) 0.3396(9)
H32 H 0.560265 0.158115 0.294462
C55 C 0.7085(4) 0.0671(3) 0.3019(8)
C56 C 0.7498(5) 0.0408(4) 0.3946(13)
H33 H 0.738732 0.034959 0.482415
C57 C 0.8082(4) 0.0236(4) 0.3498(11)
H34 H 0.832534 0.004705 0.402898
C58 C 0.8263(4) 0.0369(3) 0.2215(8)
C59 C 0.7868(4) 0.0593(3) 0.1377(10)
H35 H 0.797728 0.064346 0.049247
C60 C 0.7292(4) 0.0762(3) 0.1730(9)
H36 H 0.704841 0.093167 0.111510
C61 C 0.8909(5) 0.0239(3) 0.1937(12)
O10 O 0.9217(3) 0.0001(2) 0.2710(6)
O11 O 0.9120(2) 0.0429(2) 0.0964(6)
O16 O 0.4217(3) 0.5001(2) 0.2710(6)
O18 O 0.4120(2) 0.5429(2) 0.0964(6)
O24 O 0.5306(3) 0.47864(15) 0.1021(7)
O25 O 0.000000 0.0420(4) 0.500000
H49 H 0.544861 0.617729 0.0111729
H19 H 0.881925 0.702919 0.992713
N2_4 N 1.000000 0.6789(3) 1.000000
C36_4 C 1.000000 0.7181(3) 1.000000
C39_4 C 1.000000 0.7991(3) 1.000000
C40_4 C 1.000000 0.8403(3) 1.000000
C41 C 0.9697(6) 0.8606(3) 0.8845(10)
H23 H 0.948733 0.847231 0.807625
C42 C 0.9710(4) 0.9010(3) 0.8846(8)
H24 H 0.952195 0.914774 0.806518
C43_4 C 1.000000 0.9204(4) 1.000000
C44_4 C 1.000000 0.9635(3) 1.000000
O6 O 0.9694(3) 0.97864(15) 0.8979(7)
O8_2 O 0.500000 0.6083(3) 1.000000
Cd8 Cd 0.97751(3) 0.99611(2) 0.67679(7)
O17 O 0.5880(2) 0.5429(2) 0.9036(6)
O23 O 0.4694(3) 0.47864(15) 0.8979(7)
H50 H 0.47678 0.617729 0.912129
O19 O 0.8751(3) 0.0113(3) 0.6729(8)
O21 O 0.9425(4) 0.05584(18) 0.7824(8)
O25_2 O 1.000000 0.0420(4) 0.500000
O15 O 0.9610(3) 0.9439(2) 0.5663(7)
O19_2 O 0.1249(3) 0.0113(3) 0.3271(8)
O21_2 O 0.0575(4) 0.05584(18) 0.2176(8)
O15_2 O 0.0390(3) 0.9439(2) 0.4337(7)
H50_2 H 0.52322 0.617729 0.087871
O16_2 O 0.5783(3) 0.5001(2) 0.7290(6)
H49_2 H 0.455139 0.617729 0.988827
C23_2 C 0.1201(5) 0.0394(5) 0.2698(12)
C24_2 C 0.1745(4) 0.0625(3) 0.2323(8)
C25_2 C 0.2322(5) 0.0481(5) 0.2440(13)
H13_2 H 0.236954 0.023245 0.281721
C26_2 C 0.2872(6) 0.0647(3) 0.2085(12)
H14_2 H 0.326248 0.050835 0.214311
C27_2 C 0.2832(4) 0.1016(3) 0.1648(10)
C28_2 C 0.2228(5) 0.1199(3) 0.1723(16)
H15_2 H 0.217699 0.146583 0.159838
C29_2 C 0.1727(6) 0.0973(5) 0.198(2)
H16_2 H 0.131783 0.109168 0.189687
C30_2 C 0.3398(4) 0.1233(3) 0.1318(9)
C31_2 C 0.3991(4) 0.1068(3) 0.1434(9)
H17_2 H 0.403862 0.081949 0.181094
C32_2 C 0.4524(4) 0.1242(2) 0.1037(9)
H18_2 H 0.492824 0.111770 0.117353
C33_2 C 0.4463(4) 0.1586(3) 0.0459(9)
C34_2 C 0.3861(4) 0.1781(2) 0.0313(11)
C35_2 C 0.3361(4) 0.1606(3) 0.0730(11)
H20_2 H 0.296048 0.173512 0.063139
N2_5 N 0.500000 0.1789(3) 0.000000
C36_5 C 0.500000 0.2181(3) 0.000000
C37_2 C 0.4964(5) 0.2385(2) 0.1207(9)
H21_2 H 0.492743 0.225157 0.202940
C38_2 C 0.4981(5) 0.2782(3) 0.1208(10)
H22_2 H 0.498066 0.291475 0.204627
C39_5 C 0.500000 0.2991(3) 0.000000
C40_5 C 0.500000 0.3403(3) 0.000000
C43_5 C 0.500000 0.4204(4) 0.000000
C44_5 C 0.500000 0.4635(3) 0.000000
O8_3 O 0.000000 0.1083(3) 0.000000
H43_2 H 0.618075 0.202919 0.007287
C77_2 C 0.5303(6) 0.3606(3) 0.1155(10)
H47_2 H 0.551267 0.347231 0.192375
C78_2 C 0.5290(4) 0.4010(3) 0.1154(8)
H48_2 H 0.547805 0.414774 0.193482
H49_3 H 0.0448614 0.117729 0.0111729
H19_2 H 0.381925 0.202919 0.992713
N2_6 N 0.500000 0.1789(3) 1.000000
C36_6 C 0.500000 0.2181(3) 1.000000
C39_6 C 0.500000 0.2991(3) 1.000000
C40_6 C 0.500000 0.3403(3) 1.000000
C41_2 C 0.4697(6) 0.3606(3) 0.8845(10)
H23_2 H 0.448733 0.347231 0.807625
C42_2 C 0.4710(4) 0.4010(3) 0.8846(8)
H24_2 H 0.452195 0.414774 0.806518
C43_6 C 0.500000 0.4204(4) 1.000000
C44_6 C 0.500000 0.4635(3) 1.000000
O8_4 O 0.000000 0.1083(3) 1.000000
C62_2 C 0.8799(5) 0.0394(5) 0.7302(12)
C63_2 C 0.8255(4) 0.0625(3) 0.7677(8)
C64_2 C 0.7678(5) 0.0481(5) 0.7560(13)
H37_2 H 0.763046 0.023245 0.718279
C65_2 C 0.7128(6) 0.0647(3) 0.7915(12)
H38_2 H 0.673752 0.050835 0.785689
C66_2 C 0.7168(4) 0.1016(3) 0.8352(10)
C67_2 C 0.7772(5) 0.1199(3) 0.8277(16)
H39_2 H 0.782301 0.146583 0.840162
C68_2 C 0.8273(6) 0.0973(5) 0.802(2)
H40_2 H 0.868217 0.109168 0.810313
C69_2 C 0.6602(4) 0.1233(3) 0.8682(9)
C70_2 C 0.6009(4) 0.1068(3) 0.8566(9)
H41_2 H 0.596138 0.081949 0.818906
C71_2 C 0.5476(4) 0.1242(2) 0.8963(9)
H42_2 H 0.507176 0.111770 0.882647
C72_2 C 0.5537(4) 0.1586(3) 0.9541(9)
C73_2 C 0.6139(4) 0.1781(2) 0.9687(11)
C74_2 C 0.6639(4) 0.1606(3) 0.9270(11)
H44_2 H 0.703952 0.173512 0.936861
C75_2 C 0.5036(5) 0.2385(2) 0.8793(9)
H45_2 H 0.507257 0.225157 0.797060
C76_2 C 0.5019(5) 0.2782(3) 0.8792(10)
H46_2 H 0.501934 0.291475 0.795373
C1_2 C -0.000000 0.9223(4) 0.500000
C2_2 C -0.000000 0.8819(3) 0.500000
C5_2 C -0.000000 0.8008(4) 0.500000
C6_2 C 0.000000 0.7588(4) 0.500000
C9_2 C 0.000000 0.6816(5) 0.500000
N1_2 N 0.000000 0.6392(3) 0.500000
C45_2 C 0.0543(4) 0.8630(3) 0.4733(8)
H25_2 H 0.090493 0.876909 0.452582
C46_2 C 0.0556(4) 0.8240(3) 0.4768(8)
H26_2 H 0.094199 0.811386 0.463730
C47_2 C 0.0538(4) 0.7389(3) 0.5493(11)
H27_2 H 0.091394 0.752699 0.583338
C48_2 C 0.0559(3) 0.6994(3) 0.5520(9)
H28_2 H 0.093481 0.685702 0.587281
C49_2 C 0.0500(4) 0.6203(3) 0.4487(10)
C50_2 C 0.0723(4) 0.5850(3) 0.5029(9)
H29_2 H 0.051040 0.572783 0.569666
C51_2 C 0.1267(4) 0.5676(3) 0.4582(8)
H30_2 H 0.144368 0.545396 0.503374
C52_2 C 0.1547(4) 0.5824(3) 0.3497(9)
C53_2 C 0.1318(4) 0.6168(3) 0.2975(10)
H31_2 H 0.153148 0.628700 0.230109
C54_2 C 0.0773(4) 0.6357(2) 0.3396(9)
H32_2 H 0.060265 0.658115 0.294462
C55_2 C 0.2085(4) 0.5671(3) 0.3019(8)
C56_2 C 0.2498(5) 0.5408(4) 0.3946(13)
H33_2 H 0.238732 0.534959 0.482415
C57_2 C 0.3082(4) 0.5236(4) 0.3498(11)
H34_2 H 0.332534 0.504705 0.402898
C58_2 C 0.3263(4) 0.5369(3) 0.2215(8)
C59_2 C 0.2868(4) 0.5593(3) 0.1377(10)
H35_2 H 0.297728 0.564346 0.049247
C60_2 C 0.2292(4) 0.5762(3) 0.1730(9)
H36_2 H 0.204841 0.593167 0.111510
C61_2 C 0.3909(5) 0.5239(3) 0.1937(12)
O8_5 O 1.000000 0.1083(3) 0.000000
O8_6 O 1.000000 0.1083(3) 1.000000
H50_3 H 0.97678 0.117729 0.912129
C1_3 C 1.000000 0.9223(4) 0.500000
C2_3 C 1.000000 0.8819(3) 0.500000
C3_2 C 0.9457(4) 0.8630(3) 0.5267(8)
H1_2 H 0.909507 0.876909 0.547418
C4_2 C 0.9444(4) 0.8240(3) 0.5232(8)
H2_2 H 0.905801 0.811386 0.536270
C5_3 C 1.000000 0.8008(4) 0.500000
C6_3 C 1.000000 0.7588(4) 0.500000
C7_2 C 0.9462(4) 0.7389(3) 0.4507(11)
H3_2 H 0.908606 0.752699 0.416662
C8_2 C 0.9441(3) 0.6994(3) 0.4480(9)
H4_2 H 0.906519 0.685702 0.412719
C9_3 C 1.000000 0.6816(5) 0.500000
N1_3 N 1.000000 0.6392(3) 0.500000
C10_2 C 0.9500(4) 0.6203(3) 0.5513(10)
C11_2 C 0.9277(4) 0.5850(3) 0.4971(9)
H5_2 H 0.948960 0.572783 0.430334
C12_2 C 0.8733(4) 0.5676(3) 0.5418(8)
H6_2 H 0.855632 0.545396 0.496626
C13_2 C 0.8453(4) 0.5824(3) 0.6503(9)
C14_2 C 0.8682(4) 0.6168(3) 0.7025(10)
H7_2 H 0.846852 0.628700 0.769891
C15_2 C 0.9227(4) 0.6357(2) 0.6604(9)
H8_2 H 0.939735 0.658115 0.705538
C16_2 C 0.7915(4) 0.5671(3) 0.6981(8)
C17_2 C 0.7502(5) 0.5408(4) 0.6054(13)
H9_2 H 0.761268 0.534959 0.517585
C18_2 C 0.6918(4) 0.5236(4) 0.6502(11)
H10_2 H 0.667466 0.504705 0.597102
C19_2 C 0.6737(4) 0.5369(3) 0.7785(8)
C20_2 C 0.7132(4) 0.5593(3) 0.8623(10)
H11_2 H 0.702272 0.564346 0.950753
C21_2 C 0.7708(4) 0.5762(3) 0.8270(9)
H12_2 H 0.795159 0.593167 0.888490
C22_2 C 0.6091(5) 0.5239(3) 0.8063(12)
H50_4 H 0.0232196 0.117729 0.087871
H49_4 H 0.955139 0.117729 0.988827
loop_
_geom_bond_atom_site_label_1
_geom_bond_atom_site_label_2
_geom_bond_site_symmetry_1
_geom_bond_site_symmetry_2
C36 N2 1_555 1_555
C40 C39 1_555 1_555
C44 C43 1_555 1_555
C77 C40 1_555 1_555
H47 C77 1_555 1_555
C78 C43 1_555 1_555
H48 C78 1_555 1_555
O14 C44 1_555 1_555
Cd7 O14 1_555 1_555
C77 C78 1_555 1_555
C36_2 N2_2 1_555 1_555
C40_2 C39_2 1_555 1_555
C44_2 C43_2 1_555 1_555
O12 C62 1_555 1_555
O13 C62 1_555 1_555
C62 C63 1_555 1_555
C63 C64 1_555 1_555
C64 H37 1_555 1_555
C65 C64 1_555 1_555
H38 C65 1_555 1_555
C66 C65 1_555 1_555
C67 C66 1_555 1_555
H39 C67 1_555 1_555
C68 C63 1_555 1_555
H40 C68 1_555 1_555
C69 C66 1_555 1_555
C70 C69 1_555 1_555
H41 C70 1_555 1_555
C71 C70 1_555 1_555
H42 C71 1_555 1_555
C72 N2_2 1_555 1_555
C73 C72 1_555 1_555
C74 C69 1_555 1_555
H44 C74 1_555 1_555
C75 C36_2 1_555 1_555
H45 C75 1_555 1_555
C76 C39_2 1_555 1_555
H46 C76 1_555 1_555
Cd5 O12 1_555 1_555
Cd9_2 O13 1_555 1_555
O13 Cd5 1_555 1_555
C67 C68 1_555 1_555
C71 C72 1_555 1_555
C73 C74 1_555 1_555
C75 C76 1_555 1_555
Cd1 O1 1_555 1_555
O1 C1 1_555 1_555
C1 C2 1_555 1_555
C2 C3 1_555 1_555
C3 H1 1_555 1_555
C4 C3 1_555 1_555
H2 C4 1_555 1_555
C5 C4 1_555 1_555
C6 C5 1_555 1_555
C7 C6 1_555 1_555
H3 C7 1_555 1_555
C8 C7 1_555 1_555
H4 C8 1_555 1_555
C9 C8 1_555 1_555
N1 C9 1_555 1_555
C10 N1 1_555 1_555
C11 C10 1_555 1_555
H5 C11 1_555 1_555
C12 C11 1_555 1_555
H6 C12 1_555 1_555
C13 C12 1_555 1_555
C14 C13 1_555 1_555
H7 C14 1_555 1_555
C15 C10 1_555 1_555
H8 C15 1_555 1_555
C16 C13 1_555 1_555
C17 C16 1_555 1_555
H9 C17 1_555 1_555
C18 C17 1_555 1_555
H10 C18 1_555 1_555
C19 C18 1_555 1_555
C20 C19 1_555 1_555
H11 C20 1_555 1_555
C21 C16 1_555 1_555
H12 C21 1_555 1_555
C22 C19 1_555 1_555
O2 C22 1_555 1_555
O3 C22 1_555 1_555
O4 Cd1 1_555 1_555
O5 Cd1 1_555 1_555
C23 O4 1_555 1_555
C24 C23 1_555 1_555
C25 C24 1_555 1_555
H13 C25 1_555 1_555
C26 C25 1_555 1_555
H14 C26 1_555 1_555
C27 C26 1_555 1_555
C28 C27 1_555 1_555
H15 C28 1_555 1_555
C29 C24 1_555 1_555
H16 C29 1_555 1_555
C30 C27 1_555 1_555
C31 C30 1_555 1_555
H17 C31 1_555 1_555
C32 C31 1_555 1_555
H18 C32 1_555 1_555
C33 C32 1_555 1_555
C34 C33 1_555 1_555
C35 C30 1_555 1_555
H20 C35 1_555 1_555
N2_3 C33 1_555 1_555
C36_3 N2_3 1_555 1_555
C37 C36_3 1_555 1_555
H21 C37 1_555 1_555
C38 C37 1_555 1_555
H22 C38 1_555 1_555
C39_3 C38 1_555 1_555
C40_3 C39_3 1_555 1_555
C44_3 C43_3 1_555 1_555
O7 Cd1 1_555 1_555
Cd9 O5 1_555 1_555
O8 Cd9 1_555 1_555
O9 C1 1_555 1_555
C45 C2 1_555 1_555
H25 C45 1_555 1_555
C46 C5 1_555 1_555
H26 C46 1_555 1_555
C47 C6 1_555 1_555
H27 C47 1_555 1_555
C48 C9 1_555 1_555
H28 C48 1_555 1_555
C49 N1 1_555 1_555
C50 C49 1_555 1_555
H29 C50 1_555 1_555
C51 C50 1_555 1_555
H30 C51 1_555 1_555
C52 C51 1_555 1_555
C53 C52 1_555 1_555
H31 C53 1_555 1_555
C54 C49 1_555 1_555
H32 C54 1_555 1_555
C55 C52 1_555 1_555
C56 C55 1_555 1_555
H33 C56 1_555 1_555
C57 C56 1_555 1_555
H34 C57 1_555 1_555
C58 C57 1_555 1_555
C59 C58 1_555 1_555
H35 C59 1_555 1_555
C60 C55 1_555 1_555
H36 C60 1_555 1_555
C61 C58 1_555 1_555
O10 C61 1_555 1_555
O11 C61 1_555 1_555
Cd5 O7 1_555 1_555
O16 Cd1 1_555 1_555
O18 Cd9 1_555 1_555
O24 Cd1 1_555 1_555
Cd12_2 O3 1_555 1_555
Cd12_3 O11 1_555 1_555
C14 C15 1_555 1_555
C20 C21 1_555 1_555
O5 C23 1_555 1_555
C28 C29 1_555 1_555
C34 C35 1_555 1_555
Cd9 O24 1_555 1_555
O9 Cd5 1_555 1_555
C45 C46 1_555 1_555
C47 C48 1_555 1_555
C53 C54 1_555 1_555
C59 C60 1_555 1_555
O8 H49 1_555 1_555
C36_4 N2_4 1_555 1_555
C40_4 C39_4 1_555 1_555
C41 C40_4 1_555 1_555
H23 C41 1_555 1_555
C42 C41 1_555 1_555
H24 C42 1_555 1_555
C43_4 C42 1_555 1_555
C44_4 C43_4 1_555 1_555
O6 C44_4 1_555 1_555
O8_2 Cd9_2 1_555 1_555
Cd8 O6 1_555 1_555
O17 Cd9_2 1_555 1_555
O23 Cd9_2 1_555 1_555
O8_2 H50 1_555 1_555
O21 Cd12_4 1_555 1_555
O15 Cd8 1_555 1_555
O21_2 Cd12 1_555 1_555
O15_2 Cd7 1_555 1_555
O8 H50_2 1_555 1_555
O16_2 Cd5 1_555 1_555
O23 Cd5 1_555 1_555
O8_2 H49_2 1_555 1_555
C23_2 O19_2 1_555 1_555
C24_2 C23_2 1_555 1_555
C25_2 C24_2 1_555 1_555
H13_2 C25_2 1_555 1_555
C26_2 C25_2 1_555 1_555
H14_2 C26_2 1_555 1_555
C27_2 C26_2 1_555 1_555
C28_2 C27_2 1_555 1_555
H15_2 C28_2 1_555 1_555
C29_2 C24_2 1_555 1_555
H16_2 C29_2 1_555 1_555
C30_2 C27_2 1_555 1_555
C31_2 C30_2 1_555 1_555
H17_2 C31_2 1_555 1_555
C32_2 C31_2 1_555 1_555
H18_2 C32_2 1_555 1_555
C33_2 C32_2 1_555 1_555
C34_2 C33_2 1_555 1_555
C35_2 C30_2 1_555 1_555
H20_2 C35_2 1_555 1_555
N2_5 C33_2 1_555 1_555
C36_5 N2_5 1_555 1_555
C37_2 C36_5 1_555 1_555
H21_2 C37_2 1_555 1_555
C38_2 C37_2 1_555 1_555
H22_2 C38_2 1_555 1_555
C39_5 C38_2 1_555 1_555
C40_5 C39_5 1_555 1_555
C44_5 C43_5 1_555 1_555
O8_3 Cd12 1_555 1_555
C77_2 C40_5 1_555 1_555
H47_2 C77_2 1_555 1_555
C78_2 C43_5 1_555 1_555
H48_2 C78_2 1_555 1_555
O24 C44_5 1_555 1_555
O21_2 C23_2 1_555 1_555
C28_2 C29_2 1_555 1_555
C34_2 C35_2 1_555 1_555
C77_2 C78_2 1_555 1_555
O8_3 H49_3 1_555 1_555
C36_6 N2_6 1_555 1_555
C40_6 C39_6 1_555 1_555
C41_2 C40_6 1_555 1_555
H23_2 C41_2 1_555 1_555
C42_2 C41_2 1_555 1_555
H24_2 C42_2 1_555 1_555
C43_6 C42_2 1_555 1_555
C44_6 C43_6 1_555 1_555
O23 C44_6 1_555 1_555
O8_4 Cd12_2 1_555 1_555
O19 C62_2 1_555 1_555
O21 C62_2 1_555 1_555
C62_2 C63_2 1_555 1_555
C63_2 C64_2 1_555 1_555
C64_2 H37_2 1_555 1_555
C65_2 C64_2 1_555 1_555
H38_2 C65_2 1_555 1_555
C66_2 C65_2 1_555 1_555
C67_2 C66_2 1_555 1_555
H39_2 C67_2 1_555 1_555
C68_2 C63_2 1_555 1_555
H40_2 C68_2 1_555 1_555
C69_2 C66_2 1_555 1_555
C70_2 C69_2 1_555 1_555
H41_2 C70_2 1_555 1_555
C71_2 C70_2 1_555 1_555
H42_2 C71_2 1_555 1_555
C72_2 N2_6 1_555 1_555
C73_2 C72_2 1_555 1_555
C74_2 C69_2 1_555 1_555
H44_2 C74_2 1_555 1_555
C75_2 C36_6 1_555 1_555
H45_2 C75_2 1_555 1_555
C76_2 C39_6 1_555 1_555
H46_2 C76_2 1_555 1_555
C67_2 C68_2 1_555 1_555
C71_2 C72_2 1_555 1_555
C73_2 C74_2 1_555 1_555
C75_2 C76_2 1_555 1_555
O15_2 C1_2 1_555 1_555
C1_2 C2_2 1_555 1_555
C6_2 C5_2 1_555 1_555
N1_2 C9_2 1_555 1_555
C45_2 C2_2 1_555 1_555
H25_2 C45_2 1_555 1_555
C46_2 C5_2 1_555 1_555
H26_2 C46_2 1_555 1_555
C47_2 C6_2 1_555 1_555
H27_2 C47_2 1_555 1_555
C48_2 C9_2 1_555 1_555
H28_2 C48_2 1_555 1_555
C49_2 N1_2 1_555 1_555
C50_2 C49_2 1_555 1_555
H29_2 C50_2 1_555 1_555
C51_2 C50_2 1_555 1_555
H30_2 C51_2 1_555 1_555
C52_2 C51_2 1_555 1_555
C53_2 C52_2 1_555 1_555
H31_2 C53_2 1_555 1_555
C54_2 C49_2 1_555 1_555
H32_2 C54_2 1_555 1_555
C55_2 C52_2 1_555 1_555
C56_2 C55_2 1_555 1_555
H33_2 C56_2 1_555 1_555
C57_2 C56_2 1_555 1_555
H34_2 C57_2 1_555 1_555
C58_2 C57_2 1_555 1_555
C59_2 C58_2 1_555 1_555
H35_2 C59_2 1_555 1_555
C60_2 C55_2 1_555 1_555
H36_2 C60_2 1_555 1_555
C61_2 C58_2 1_555 1_555
O16 C61_2 1_555 1_555
O18 C61_2 1_555 1_555
C45_2 C46_2 1_555 1_555
C47_2 C48_2 1_555 1_555
C53_2 C54_2 1_555 1_555
C59_2 C60_2 1_555 1_555
O8_5 Cd12_3 1_555 1_555
O8_6 Cd12_4 1_555 1_555
O8_6 H50_3 1_555 1_555
C1_3 C2_3 1_555 1_555
C2_3 C3_2 1_555 1_555
C3_2 H1_2 1_555 1_555
C4_2 C3_2 1_555 1_555
H2_2 C4_2 1_555 1_555
C5_3 C4_2 1_555 1_555
C6_3 C5_3 1_555 1_555
C7_2 C6_3 1_555 1_555
H3_2 C7_2 1_555 1_555
C8_2 C7_2 1_555 1_555
H4_2 C8_2 1_555 1_555
C9_3 C8_2 1_555 1_555
N1_3 C9_3 1_555 1_555
C10_2 N1_3 1_555 1_555
C11_2 C10_2 1_555 1_555
H5_2 C11_2 1_555 1_555
C12_2 C11_2 1_555 1_555
H6_2 C12_2 1_555 1_555
C13_2 C12_2 1_555 1_555
C14_2 C13_2 1_555 1_555
H7_2 C14_2 1_555 1_555
C15_2 C10_2 1_555 1_555
H8_2 C15_2 1_555 1_555
C16_2 C13_2 1_555 1_555
C17_2 C16_2 1_555 1_555
H9_2 C17_2 1_555 1_555
C18_2 C17_2 1_555 1_555
H10_2 C18_2 1_555 1_555
C19_2 C18_2 1_555 1_555
C20_2 C19_2 1_555 1_555
H11_2 C20_2 1_555 1_555
C21_2 C16_2 1_555 1_555
H12_2 C21_2 1_555 1_555
C22_2 C19_2 1_555 1_555
O16_2 C22_2 1_555 1_555
O17 C22_2 1_555 1_555
O15 C1_3 1_555 1_555
C14_2 C15_2 1_555 1_555
C20_2 C21_2 1_555 1_555
O8_3 H50_4 1_555 1_555
O8_6 H49_4 1_555 1_555

#END
