
###############################################################################
#
# This file contains modified crystal structure data generated from the
# MOF subset of the Cambridge Structural Database (CSD) v543 
# hosted by the Cambridge Crystallographic Data Centre (CCDC).
#
# This work is licensed under the Creative Commons
# Attribution-NonCommercial-ShareAlike 4.0 International License.
# To view a copy of this license, visit
# http://creativecommons.org/licenses/by-nc-sa/4.0/
# or send a letter to
# Creative Commons, PO Box 1866, Mountain View, CA 94042, USA.
#
# CIF created using the CSD Python API on 29 September 2022
# The structure has been converted into the P1 space group
# The structure has a 3D framework
# The original CSD entry XIXCIT01 is in the orthorhombic crystal system
# The framework has been calculated to contain at least 10.0% void space
# The void calculation uses a probe of radius 1.32A, grid spacing 0.4
#
###############################################################################

data_XIXCIT01
_chemical_formula_moiety         '(C88 H48 Ca6 O20)n'
_symmetry_cell_setting           triclinic
_symmetry_space_group_name_H-M   'P 1'
_symmetry_Int_Tables_number      1
_space_group_name_Hall           'P 1'
loop_
_symmetry_equiv_pos_site_id
_symmetry_equiv_pos_as_xyz
1 x,y,z
_cell_length_a                   20.371(6)
_cell_length_b                   6.895(2)
_cell_length_c                   16.506(5)
_cell_angle_alpha                90
_cell_angle_beta                 90
_cell_angle_gamma                90
_cell_volume                     2318.4
loop_
_atom_site_label
_atom_site_type_symbol
_atom_site_fract_x
_atom_site_fract_y
_atom_site_fract_z
Ca10 Ca 0.27368(7) 0.1018(2) 0.000000
C5 C 0.1149(3) 0.0956(10) 0.3513(4)
C6 C 0.1515(6) 0.1941(15) 0.2931(6)
H3 H 0.162213 0.323801 0.301237
C7 C 0.1718(4) 0.1026(11) 0.2246(5)
H4 H 0.198610 0.169994 0.188680
C8 C 0.0892(3) 0.1918(11) 0.4283(4)
C9 C 0.1108(5) 0.1138(16) 0.500000
H5 H 0.139670 0.009328 0.500000
C10 C 0.0434(3) 0.3494(8) 0.4231(3)
C11 C 0.0237(5) 0.4261(14) 0.500000
C12 C 0.0237(3) 0.4183(10) 0.3517(4)
H6 H 0.039143 0.365712 0.303437
C39 C 0.1149(3) 0.0956(10) 0.6487(4)
C40 C 0.1515(6) 0.1941(15) 0.7069(6)
H21 H 0.162213 0.323801 0.698763
C41 C 0.1718(4) 0.1026(11) 0.7754(5)
H22 H 0.198610 0.169994 0.811320
C42 C 0.0892(3) 0.1918(11) 0.5717(4)
C43 C 0.0434(3) 0.3494(8) 0.5769(3)
C44 C 0.0237(3) 0.4183(10) 0.6483(4)
H23 H 0.039143 0.365712 0.696563
Ca10_2 Ca 0.27368(7) 0.1018(2) 1.000000
Ca3 Ca 0.22632(7) 0.6018(2) 0.000000
C1 C 0.1750(3) 0.8235(8) 0.1296(4)
C2 C 0.1553(3) 0.9223(9) 0.2065(4)
C3 C 0.1187(6) 0.8309(14) 0.2644(6)
H1 H 0.105212 0.703995 0.254887
C4 C 0.1013(5) 0.9147(14) 0.3337(6)
H2 H 0.078394 0.841280 0.371584
O1 O 0.1657(3) 0.2854(8) 0.000000
O2 O 0.22078(19) 0.8960(5) 0.0893(2)
O3 O 0.1503(3) 0.6697(7) 0.1092(3)
H7 H 0.1273(12) 0.278(5) 0.0306(18)
C35 C 0.1750(3) 0.8235(8) 0.8704(4)
C36 C 0.1553(3) 0.9223(9) 0.7935(4)
C37 C 0.1187(6) 0.8309(14) 0.7356(6)
H19 H 0.105212 0.703995 0.745113
C38 C 0.1013(5) 0.9147(14) 0.6663(6)
H20 H 0.078394 0.841280 0.628416
O8 O 0.22078(19) 0.8960(5) 0.9107(2)
O9 O 0.1503(3) 0.6697(7) 0.8908(3)
Ca3_2 Ca 0.22632(7) 0.6018(2) 1.000000
O12 O 0.3343(3) 0.7854(8) 0.000000
O17 O 0.27922(19) 0.3960(5) 0.0893(2)
O1_2 O 0.1657(3) 0.2854(8) 1.000000
H24 H 0.1273(12) 0.278(5) 0.9694(18)
O12_2 O 0.3343(3) 0.7854(8) 1.000000
O14 O 0.27922(19) 0.3960(5) 0.9107(2)
O19 O 0.3497(3) 0.1697(7) 0.1092(3)
C13 C 0.3250(3) 0.3235(8) 0.8704(4)
C14 C 0.3447(3) 0.4223(9) 0.7935(4)
C15 C 0.3813(6) 0.3309(14) 0.7356(6)
H8 H 0.394788 0.203995 0.745113
C16 C 0.3987(5) 0.4147(14) 0.6663(6)
H9 H 0.421606 0.341280 0.628416
C17 C 0.3851(3) 0.5956(10) 0.6487(4)
C18 C 0.3485(6) 0.6941(15) 0.7069(6)
H10 H 0.337787 0.823801 0.698763
C19 C 0.3282(4) 0.6026(11) 0.7754(5)
H11 H 0.301390 0.669994 0.811320
C20 C 0.4108(3) 0.6918(11) 0.5717(4)
C21 C 0.3892(5) 0.6138(16) 0.500000
H12 H 0.360330 0.509328 0.500000
C22 C 0.4566(3) 0.8494(8) 0.5769(3)
C23 C 0.4763(5) 0.9261(14) 0.500000
C24 C 0.4763(3) 0.9183(10) 0.6483(4)
H13 H 0.460857 0.865712 0.696563
O5 O 0.3497(3) 0.1697(7) 0.8908(3)
C25 C 0.3250(3) 0.3235(8) 0.1296(4)
C26 C 0.3447(3) 0.4223(9) 0.2065(4)
C27 C 0.3813(6) 0.3309(14) 0.2644(6)
H14 H 0.394788 0.203995 0.254887
C28 C 0.3987(5) 0.4147(14) 0.3337(6)
H15 H 0.421606 0.341280 0.371584
C29 C 0.3851(3) 0.5956(10) 0.3513(4)
C30 C 0.3485(6) 0.6941(15) 0.2931(6)
H16 H 0.337787 0.823801 0.301237
C31 C 0.3282(4) 0.6026(11) 0.2246(5)
H17 H 0.301390 0.669994 0.188680
C32 C 0.4108(3) 0.6918(11) 0.4283(4)
C33 C 0.4566(3) 0.8494(8) 0.4231(3)
C34 C 0.4763(3) 0.9183(10) 0.3517(4)
H18 H 0.460857 0.865712 0.303437
H26 H 0.3727(12) 0.778(5) 0.0306(18)
H25 H 0.3727(12) 0.778(5) 0.9694(18)
Ca4 Ca 0.77368(7) 0.3982(2) 0.000000
C13_2 C 0.8250(3) 0.1765(8) 0.1296(4)
C14_2 C 0.8447(3) 0.0777(9) 0.2065(4)
C15_2 C 0.8813(6) 0.1691(14) 0.2644(6)
H8_2 H 0.894788 0.296005 0.254887
C16_2 C 0.8987(5) 0.0853(14) 0.3337(6)
H9_2 H 0.921606 0.158720 0.371584
O4 O 0.77922(19) 0.1040(5) 0.0893(2)
O5_2 O 0.8497(3) 0.3303(7) 0.1092(3)
C25_2 C 0.8250(3) 0.1765(8) 0.8704(4)
C26_2 C 0.8447(3) 0.0777(9) 0.7935(4)
C27_2 C 0.8813(6) 0.1691(14) 0.7356(6)
H14_2 H 0.894788 0.296005 0.745113
C28_2 C 0.8987(5) 0.0853(14) 0.6663(6)
H15_2 H 0.921606 0.158720 0.628416
O6 O 0.77922(19) 0.1040(5) 0.9107(2)
O7 O 0.8497(3) 0.3303(7) 0.8908(3)
O10 O 0.8343(3) 0.7146(8) 0.000000
H25_2 H 0.8727(12) 0.722(5) 0.0306(18)
Ca4_2 Ca 0.77368(7) 0.3982(2) 1.000000
Ca7 Ca 0.72632(7) 0.8982(2) 0.000000
O11 O 0.6657(3) 0.2146(8) 0.000000
O18 O 0.72078(19) 0.6040(5) 0.0893(2)
O10_2 O 0.8343(3) 0.7146(8) 1.000000
H26_2 H 0.8727(12) 0.722(5) 0.9694(18)
Ca7_2 Ca 0.72632(7) 0.8982(2) 1.000000
O11_2 O 0.6657(3) 0.2146(8) 1.000000
O13 O 0.72078(19) 0.6040(5) 0.9107(2)
C17_2 C 0.8851(3) 0.9044(10) 0.3513(4)
C18_2 C 0.8485(6) 0.8059(15) 0.2931(6)
H10_2 H 0.837787 0.676199 0.301237
C19_2 C 0.8282(4) 0.8974(11) 0.2246(5)
H11_2 H 0.801390 0.830006 0.188680
C20_2 C 0.9108(3) 0.8082(11) 0.4283(4)
C21_2 C 0.8892(5) 0.8862(16) 0.500000
H12_2 H 0.860330 0.990672 0.500000
C22_2 C 0.9566(3) 0.6506(8) 0.4231(3)
C23_2 C 0.9763(5) 0.5739(14) 0.500000
C24_2 C 0.9763(3) 0.5817(10) 0.3517(4)
H13_2 H 0.960857 0.634288 0.303437
C29_2 C 0.8851(3) 0.9044(10) 0.6487(4)
C30_2 C 0.8485(6) 0.8059(15) 0.7069(6)
H16_2 H 0.837787 0.676199 0.698763
C31_2 C 0.8282(4) 0.8974(11) 0.7754(5)
H17_2 H 0.801390 0.830006 0.811320
C32_2 C 0.9108(3) 0.8082(11) 0.5717(4)
C33_2 C 0.9566(3) 0.6506(8) 0.5769(3)
C34_2 C 0.9763(3) 0.5817(10) 0.6483(4)
H18_2 H 0.960857 0.634288 0.696563
H24_2 H 0.6273(12) 0.222(5) 0.0306(18)
H7_2 H 0.6273(12) 0.222(5) 0.9694(18)
O20 O 0.6503(3) 0.8303(7) 0.1092(3)
C1_2 C 0.6750(3) 0.6765(8) 0.8704(4)
C2_2 C 0.6553(3) 0.5777(9) 0.7935(4)
C3_2 C 0.6187(6) 0.6691(14) 0.7356(6)
H1_2 H 0.605212 0.796005 0.745113
C4_2 C 0.6013(5) 0.5853(14) 0.6663(6)
H2_2 H 0.578394 0.658720 0.628416
C5_2 C 0.6149(3) 0.4044(10) 0.6487(4)
C6_2 C 0.6515(6) 0.3059(15) 0.7069(6)
H3_2 H 0.662213 0.176199 0.698763
C7_2 C 0.6718(4) 0.3974(11) 0.7754(5)
H4_2 H 0.698610 0.330006 0.811320
C8_2 C 0.5892(3) 0.3082(11) 0.5717(4)
C9_2 C 0.6108(5) 0.3862(16) 0.500000
H5_2 H 0.639670 0.490672 0.500000
C10_2 C 0.5434(3) 0.1506(8) 0.5769(3)
C11_2 C 0.5237(5) 0.0739(14) 0.500000
C12_2 C 0.5237(3) 0.0817(10) 0.6483(4)
H6_2 H 0.539143 0.134288 0.696563
O3_2 O 0.6503(3) 0.8303(7) 0.8908(3)
C35_2 C 0.6750(3) 0.6765(8) 0.1296(4)
C36_2 C 0.6553(3) 0.5777(9) 0.2065(4)
C37_2 C 0.6187(6) 0.6691(14) 0.2644(6)
H19_2 H 0.605212 0.796005 0.254887
C38_2 C 0.6013(5) 0.5853(14) 0.3337(6)
H20_2 H 0.578394 0.658720 0.371584
C39_2 C 0.6149(3) 0.4044(10) 0.3513(4)
C40_2 C 0.6515(6) 0.3059(15) 0.2931(6)
H21_2 H 0.662213 0.176199 0.301237
C41_2 C 0.6718(4) 0.3974(11) 0.2246(5)
H22_2 H 0.698610 0.330006 0.188680
C42_2 C 0.5892(3) 0.3082(11) 0.4283(4)
C43_2 C 0.5434(3) 0.1506(8) 0.4231(3)
C44_2 C 0.5237(3) 0.0817(10) 0.3517(4)
H23_2 H 0.539143 0.134288 0.303437
loop_
_geom_bond_atom_site_label_1
_geom_bond_atom_site_label_2
_geom_bond_site_symmetry_1
_geom_bond_site_symmetry_2
C6 C5 1_555 1_555
H3 C6 1_555 1_555
H4 C7 1_555 1_555
C8 C5 1_555 1_555
C9 C8 1_555 1_555
H5 C9 1_555 1_555
C10 C8 1_555 1_555
C11 C10 1_555 1_555
C12 C10 1_555 1_555
H6 C12 1_555 1_555
C40 C39 1_555 1_555
H21 C40 1_555 1_555
H22 C41 1_555 1_555
C42 C9 1_555 1_555
C43 C11 1_555 1_555
H23 C44 1_555 1_555
C6 C7 1_555 1_555
C39 C42 1_555 1_555
C40 C41 1_555 1_555
C42 C43 1_555 1_555
C43 C44 1_555 1_555
C1 C2 1_555 1_555
C2 C3 1_555 1_555
C3 H1 1_555 1_555
C4 C3 1_555 1_555
H2 C4 1_555 1_555
Ca3 O1 1_555 1_555
O1 H7 1_555 1_555
O2 C1 1_555 1_555
O3 C1 1_555 1_555
C35 C36 1_555 1_555
C36 C37 1_555 1_555
C37 H19 1_555 1_555
C38 C37 1_555 1_555
H20 C38 1_555 1_555
O8 C35 1_555 1_555
O9 C35 1_555 1_555
Ca3_2 O8 1_555 1_555
Ca10 O1 1_555 1_555
O12 Ca3 1_555 1_555
O17 Ca3 1_555 1_555
Ca3 O2 1_555 1_555
Ca3 O3 1_555 1_555
O9 Ca3_2 1_555 1_555
Ca10 O17 1_555 1_555
Ca3_2 O1_2 1_555 1_555
H24 O1_2 1_555 1_555
Ca10_2 O1_2 1_555 1_555
O12_2 Ca3_2 1_555 1_555
O14 Ca3_2 1_555 1_555
Ca10_2 O14 1_555 1_555
O19 Ca10 1_555 1_555
C13 C14 1_555 1_555
C14 C15 1_555 1_555
C15 H8 1_555 1_555
C16 C15 1_555 1_555
H9 C16 1_555 1_555
C17 C16 1_555 1_555
C18 C17 1_555 1_555
H10 C18 1_555 1_555
C19 C14 1_555 1_555
H11 C19 1_555 1_555
C20 C17 1_555 1_555
C21 C20 1_555 1_555
H12 C21 1_555 1_555
C22 C20 1_555 1_555
H13 C24 1_555 1_555
O14 C13 1_555 1_555
O5 C13 1_555 1_555
C25 C26 1_555 1_555
C26 C27 1_555 1_555
C27 H14 1_555 1_555
C28 C27 1_555 1_555
H15 C28 1_555 1_555
C29 C28 1_555 1_555
C30 C29 1_555 1_555
H16 C30 1_555 1_555
C31 C26 1_555 1_555
H17 C31 1_555 1_555
C32 C21 1_555 1_555
C33 C23 1_555 1_555
C34 C33 1_555 1_555
H18 C34 1_555 1_555
O17 C25 1_555 1_555
O19 C25 1_555 1_555
C18 C19 1_555 1_555
C22 C23 1_555 1_555
C22 C24 1_555 1_555
O5 Ca10_2 1_555 1_555
C29 C32 1_555 1_555
C30 C31 1_555 1_555
C32 C33 1_555 1_555
H26 O12 1_555 1_555
H25 O12_2 1_555 1_555
C13_2 C14_2 1_555 1_555
C14_2 C15_2 1_555 1_555
C15_2 H8_2 1_555 1_555
C16_2 C15_2 1_555 1_555
H9_2 C16_2 1_555 1_555
O4 C13_2 1_555 1_555
O5_2 C13_2 1_555 1_555
C25_2 C26_2 1_555 1_555
C26_2 C27_2 1_555 1_555
C27_2 H14_2 1_555 1_555
C28_2 C27_2 1_555 1_555
H15_2 C28_2 1_555 1_555
O6 C25_2 1_555 1_555
O7 C25_2 1_555 1_555
Ca4 O4 1_555 1_555
O10 Ca4 1_555 1_555
H25_2 O10 1_555 1_555
Ca4_2 O6 1_555 1_555
Ca7 O10 1_555 1_555
O11 Ca4 1_555 1_555
O18 Ca4 1_555 1_555
O5_2 Ca4 1_555 1_555
O7 Ca4_2 1_555 1_555
Ca7 O18 1_555 1_555
O10_2 Ca4_2 1_555 1_555
H26_2 O10_2 1_555 1_555
Ca7_2 O10_2 1_555 1_555
O11_2 Ca4_2 1_555 1_555
O13 Ca4_2 1_555 1_555
Ca7_2 O13 1_555 1_555
C18_2 C17_2 1_555 1_555
H10_2 C18_2 1_555 1_555
H11_2 C19_2 1_555 1_555
C20_2 C17_2 1_555 1_555
C21_2 C20_2 1_555 1_555
H12_2 C21_2 1_555 1_555
C22_2 C20_2 1_555 1_555
H13_2 C24_2 1_555 1_555
C30_2 C29_2 1_555 1_555
H16_2 C30_2 1_555 1_555
H17_2 C31_2 1_555 1_555
C32_2 C21_2 1_555 1_555
C33_2 C23_2 1_555 1_555
C34_2 C33_2 1_555 1_555
H18_2 C34_2 1_555 1_555
C18_2 C19_2 1_555 1_555
C22_2 C23_2 1_555 1_555
C22_2 C24_2 1_555 1_555
C29_2 C32_2 1_555 1_555
C30_2 C31_2 1_555 1_555
C32_2 C33_2 1_555 1_555
H24_2 O11 1_555 1_555
O11_2 H7_2 1_555 1_555
O20 Ca7 1_555 1_555
C1_2 C2_2 1_555 1_555
C2_2 C3_2 1_555 1_555
C3_2 H1_2 1_555 1_555
C4_2 C3_2 1_555 1_555
H2_2 C4_2 1_555 1_555
C5_2 C4_2 1_555 1_555
C6_2 C5_2 1_555 1_555
H3_2 C6_2 1_555 1_555
C7_2 C2_2 1_555 1_555
H4_2 C7_2 1_555 1_555
C8_2 C5_2 1_555 1_555
C9_2 C8_2 1_555 1_555
H5_2 C9_2 1_555 1_555
C10_2 C8_2 1_555 1_555
C11_2 C10_2 1_555 1_555
C12_2 C10_2 1_555 1_555
H6_2 C12_2 1_555 1_555
O13 C1_2 1_555 1_555
O3_2 C1_2 1_555 1_555
C35_2 C36_2 1_555 1_555
C36_2 C37_2 1_555 1_555
C37_2 H19_2 1_555 1_555
C38_2 C37_2 1_555 1_555
H20_2 C38_2 1_555 1_555
C39_2 C38_2 1_555 1_555
C40_2 C39_2 1_555 1_555
H21_2 C40_2 1_555 1_555
C41_2 C36_2 1_555 1_555
H22_2 C41_2 1_555 1_555
C42_2 C9_2 1_555 1_555
C43_2 C11_2 1_555 1_555
H23_2 C44_2 1_555 1_555
O18 C35_2 1_555 1_555
O20 C35_2 1_555 1_555
C6_2 C7_2 1_555 1_555
Ca7_2 O3_2 1_555 1_555
C39_2 C42_2 1_555 1_555
C40_2 C41_2 1_555 1_555
C42_2 C43_2 1_555 1_555
C43_2 C44_2 1_555 1_555

#END
