
###############################################################################
#
# This file contains modified crystal structure data generated from the
# MOF subset of the Cambridge Structural Database (CSD) v543 
# hosted by the Cambridge Crystallographic Data Centre (CCDC).
#
# This work is licensed under the Creative Commons
# Attribution-NonCommercial-ShareAlike 4.0 International License.
# To view a copy of this license, visit
# http://creativecommons.org/licenses/by-nc-sa/4.0/
# or send a letter to
# Creative Commons, PO Box 1866, Mountain View, CA 94042, USA.
#
# CIF created using the CSD Python API on 29 September 2022
# The structure has been converted into the P1 space group
# The structure has a 3D framework
# The original CSD entry XIXCOZ is in the orthorhombic crystal system
# The framework has been calculated to contain at least 10.0% void space
# The void calculation uses a probe of radius 1.32A, grid spacing 0.4
#
###############################################################################

data_XIXCOZ
_chemical_formula_moiety         '(C88 H44 Ca4 O20)n'
_symmetry_cell_setting           triclinic
_symmetry_space_group_name_H-M   'P 1'
_symmetry_Int_Tables_number      1
_space_group_name_Hall           'P 1'
loop_
_symmetry_equiv_pos_site_id
_symmetry_equiv_pos_as_xyz
1 x,y,z
_cell_length_a                   6.9388(3)
_cell_length_b                   20.8110(7)
_cell_length_c                   16.5100(3)
_cell_angle_alpha                90
_cell_angle_beta                 90
_cell_angle_gamma                90
_cell_volume                     2384.1
loop_
_atom_site_label
_atom_site_type_symbol
_atom_site_fract_x
_atom_site_fract_y
_atom_site_fract_z
Ca2 Ca 0.4127(3) 0.77264(9) 0.0000
O10 O 0.7298(9) 0.8345(3) 0.0000
Ca6 Ca 0.9127(3) 0.72736(9) 0.0000
O11 O 0.2298(9) 0.6655(3) 0.0000
O13 O 0.1161(7) 0.7799(2) 0.0899(3)
O15 O 0.6161(7) 0.7201(2) 0.0899(3)
O19 O 0.3474(11) 0.8500(3) 0.1087(4)
C13 C 0.6908(11) 0.6751(3) 0.8695(4)
C14 C 0.5913(12) 0.6565(4) 0.7918(4)
C15 C 0.4104(13) 0.6702(4) 0.7753(4)
H7 H 0.3397 0.6957 0.8128
C16 C 0.3187(18) 0.6492(5) 0.7057(5)
H8 H 0.1893 0.6615 0.6953
C17 C 0.4170(13) 0.6093(4) 0.6504(4)
C18 C 0.5951(19) 0.5991(9) 0.6635(8)
H9 H 0.6651 0.5748 0.6246
C19 C 0.6936(19) 0.6215(7) 0.7317(7)
H10 H 0.8275 0.6133 0.7378
C20 C 0.3190(16) 0.5846(4) 0.5729(4)
C21 C 0.405(2) 0.6029(7) 0.5000
H11 H 0.5211 0.6274 0.5000
C22 C 0.1573(13) 0.5427(4) 0.5760(3)
C23 C 0.0776(18) 0.5227(6) 0.5000
C24 C 0.0818(12) 0.5210(4) 0.6508(4)
H12 H 0.1389 0.5341 0.7005
O4 O 0.6161(7) 0.7201(2) 0.9101(3)
O5 O 0.8474(11) 0.6500(3) 0.8913(4)
C25 C 0.6908(11) 0.6751(3) 0.1305(4)
C26 C 0.5913(12) 0.6565(4) 0.2082(4)
C27 C 0.4104(13) 0.6702(4) 0.2247(4)
H13 H 0.3397 0.6957 0.1872
C28 C 0.3187(18) 0.6492(5) 0.2943(5)
H14 H 0.1893 0.6615 0.3047
C29 C 0.4170(13) 0.6093(4) 0.3496(4)
C30 C 0.5951(19) 0.5991(9) 0.3365(8)
H15 H 0.6651 0.5748 0.3754
C31 C 0.6936(19) 0.6215(7) 0.2683(7)
H16 H 0.8275 0.6133 0.2622
C32 C 0.3190(16) 0.5846(4) 0.4271(4)
C33 C 0.1573(13) 0.5427(4) 0.4240(3)
C34 C 0.0818(12) 0.5210(4) 0.3492(4)
H17 H 0.1389 0.5341 0.2995
O7 O 0.8474(11) 0.6500(3) 0.1087(4)
Ca2_2 Ca 0.4127(3) 0.77264(9) 1.0000
O10_2 O 0.7298(9) 0.8345(3) 1.0000
Ca6_2 Ca 0.9127(3) 0.72736(9) 1.0000
O11_2 O 0.2298(9) 0.6655(3) 1.0000
O18 O 0.1161(7) 0.7799(2) 0.9101(3)
O22 O 0.3474(11) 0.8500(3) 0.8913(4)
C1 C 0.1908(11) 0.8249(3) 0.1305(4)
C2 C 0.0913(12) 0.8435(4) 0.2082(4)
C6 C 0.0951(19) 0.9009(9) 0.3365(8)
H3 H 0.1651 0.9252 0.3754
C7 C 0.1936(19) 0.8785(7) 0.2683(7)
H4 H 0.3275 0.8867 0.2622
H5 H 0.0211 0.8726 0.5000
C35 C 0.1908(11) 0.8249(3) 0.8695(4)
C36 C 0.0913(12) 0.8435(4) 0.7918(4)
C40 C 0.0951(19) 0.9009(9) 0.6635(8)
H20 H 0.1651 0.9252 0.6246
C41 C 0.1936(19) 0.8785(7) 0.7317(7)
H21 H 0.3275 0.8867 0.7378
C3 C 0.9104(13) 0.8298(4) 0.2247(4)
H1 H 0.8397 0.8043 0.1872
C4 C 0.8187(18) 0.8508(5) 0.2943(5)
H2 H 0.6893 0.8385 0.3047
C5 C 0.9170(13) 0.8907(4) 0.3496(4)
C8 C 0.8190(16) 0.9154(4) 0.4271(4)
C9 C 0.905(2) 0.8971(7) 0.5000
C10 C 0.6573(13) 0.9573(4) 0.4240(3)
C11 C 0.5776(18) 0.9773(6) 0.5000
C12 C 0.5818(12) 0.9790(4) 0.3492(4)
H6 H 0.6389 0.9659 0.2995
C37 C 0.9104(13) 0.8298(4) 0.7753(4)
H18 H 0.8397 0.8043 0.8128
C38 C 0.8187(18) 0.8508(5) 0.7057(5)
H19 H 0.6893 0.8385 0.6953
C39 C 0.9170(13) 0.8907(4) 0.6504(4)
C42 C 0.8190(16) 0.9154(4) 0.5729(4)
C43 C 0.6573(13) 0.9573(4) 0.5760(3)
C44 C 0.5818(12) 0.9790(4) 0.6508(4)
H22 H 0.6389 0.9659 0.7005
Ca1 Ca 0.5873(3) 0.22736(9) 0.0000
O1 O 0.2702(9) 0.1655(3) 0.0000
Ca8 Ca 0.0873(3) 0.27264(9) 0.0000
O12 O 0.7702(9) 0.3345(3) 0.0000
O14 O 0.8839(7) 0.2201(2) 0.0899(3)
O16 O 0.3839(7) 0.2799(2) 0.0899(3)
O20 O 0.6526(11) 0.1500(3) 0.1087(4)
C1_2 C 0.3092(11) 0.3249(3) 0.8695(4)
C2_2 C 0.4087(12) 0.3435(4) 0.7918(4)
C3_2 C 0.5896(13) 0.3298(4) 0.7753(4)
H1_2 H 0.6603 0.3043 0.8128
C4_2 C 0.6813(18) 0.3508(5) 0.7057(5)
H2_2 H 0.8107 0.3385 0.6953
C5_2 C 0.5830(13) 0.3907(4) 0.6504(4)
C6_2 C 0.4049(19) 0.4009(9) 0.6635(8)
H3_2 H 0.3349 0.4252 0.6246
C7_2 C 0.3064(19) 0.3785(7) 0.7317(7)
H4_2 H 0.1725 0.3867 0.7378
C8_2 C 0.6810(16) 0.4154(4) 0.5729(4)
C9_2 C 0.595(2) 0.3971(7) 0.5000
H5_2 H 0.4789 0.3726 0.5000
C10_2 C 0.8427(13) 0.4573(4) 0.5760(3)
C11_2 C 0.9224(18) 0.4773(6) 0.5000
C12_2 C 0.9182(12) 0.4790(4) 0.6508(4)
H6_2 H 0.8611 0.4659 0.7005
Ca1_2 Ca 0.5873(3) 0.22736(9) 1.0000
O1_2 O 0.2702(9) 0.1655(3) 1.0000
O2 O 0.3839(7) 0.2799(2) 0.9101(3)
O3 O 0.1526(11) 0.3500(3) 0.8913(4)
C35_2 C 0.3092(11) 0.3249(3) 0.1305(4)
C36_2 C 0.4087(12) 0.3435(4) 0.2082(4)
C37_2 C 0.5896(13) 0.3298(4) 0.2247(4)
H18_2 H 0.6603 0.3043 0.1872
C38_2 C 0.6813(18) 0.3508(5) 0.2943(5)
H19_2 H 0.8107 0.3385 0.3047
C39_2 C 0.5830(13) 0.3907(4) 0.3496(4)
C40_2 C 0.4049(19) 0.4009(9) 0.3365(8)
H20_2 H 0.3349 0.4252 0.3754
C41_2 C 0.3064(19) 0.3785(7) 0.2683(7)
H21_2 H 0.1725 0.3867 0.2622
C42_2 C 0.6810(16) 0.4154(4) 0.4271(4)
C43_2 C 0.8427(13) 0.4573(4) 0.4240(3)
C44_2 C 0.9182(12) 0.4790(4) 0.3492(4)
H22_2 H 0.8611 0.4659 0.2995
O9 O 0.1526(11) 0.3500(3) 0.1087(4)
Ca8_2 Ca 0.0873(3) 0.27264(9) 1.0000
O12_2 O 0.7702(9) 0.3345(3) 1.0000
O17 O 0.8839(7) 0.2201(2) 0.9101(3)
O21 O 0.6526(11) 0.1500(3) 0.8913(4)
C15_2 C 0.0896(13) 0.1702(4) 0.2247(4)
H7_2 H 0.1603 0.1957 0.1872
C16_2 C 0.1813(18) 0.1492(5) 0.2943(5)
H8_2 H 0.3107 0.1615 0.3047
C17_2 C 0.0830(13) 0.1093(4) 0.3496(4)
C20_2 C 0.1810(16) 0.0846(4) 0.4271(4)
C21_2 C 0.095(2) 0.1029(7) 0.5000
C22_2 C 0.3427(13) 0.0427(4) 0.4240(3)
C23_2 C 0.4224(18) 0.0227(6) 0.5000
C24_2 C 0.4182(12) 0.0210(4) 0.3492(4)
H12_2 H 0.3611 0.0341 0.2995
C27_2 C 0.0896(13) 0.1702(4) 0.7753(4)
H13_2 H 0.1603 0.1957 0.8128
C28_2 C 0.1813(18) 0.1492(5) 0.7057(5)
H14_2 H 0.3107 0.1615 0.6953
C29_2 C 0.0830(13) 0.1093(4) 0.6504(4)
C32_2 C 0.1810(16) 0.0846(4) 0.5729(4)
C33_2 C 0.3427(13) 0.0427(4) 0.5760(3)
C34_2 C 0.4182(12) 0.0210(4) 0.6508(4)
H17_2 H 0.3611 0.0341 0.7005
C13_2 C 0.8092(11) 0.1751(3) 0.1305(4)
C14_2 C 0.9087(12) 0.1565(4) 0.2082(4)
C18_2 C 0.9049(19) 0.0991(9) 0.3365(8)
H9_2 H 0.8349 0.0748 0.3754
C19_2 C 0.8064(19) 0.1215(7) 0.2683(7)
H10_2 H 0.6725 0.1133 0.2622
H11_2 H 0.9789 0.1274 0.5000
C25_2 C 0.8092(11) 0.1751(3) 0.8695(4)
C26_2 C 0.9087(12) 0.1565(4) 0.7918(4)
C30_2 C 0.9049(19) 0.0991(9) 0.6635(8)
H15_2 H 0.8349 0.0748 0.6246
C31_2 C 0.8064(19) 0.1215(7) 0.7317(7)
H16_2 H 0.6725 0.1133 0.7378
loop_
_geom_bond_atom_site_label_1
_geom_bond_atom_site_label_2
_geom_bond_site_symmetry_1
_geom_bond_site_symmetry_2
O10 Ca2 1_555 1_555
O11 Ca2 1_555 1_555
O13 Ca2 1_555 1_555
O15 Ca2 1_555 1_555
O19 Ca2 1_555 1_555
O10 Ca6 1_555 1_555
Ca6 O15 1_555 1_555
C13 C14 1_555 1_555
C14 C15 1_555 1_555
C15 H7 1_555 1_555
C16 C15 1_555 1_555
H8 C16 1_555 1_555
C17 C16 1_555 1_555
C18 C17 1_555 1_555
H9 C18 1_555 1_555
C19 C14 1_555 1_555
H10 C19 1_555 1_555
C20 C17 1_555 1_555
C21 C20 1_555 1_555
H11 C21 1_555 1_555
C22 C20 1_555 1_555
H12 C24 1_555 1_555
O4 C13 1_555 1_555
O5 C13 1_555 1_555
C25 C26 1_555 1_555
C26 C27 1_555 1_555
C27 H13 1_555 1_555
C28 C27 1_555 1_555
H14 C28 1_555 1_555
C29 C28 1_555 1_555
C30 C29 1_555 1_555
H15 C30 1_555 1_555
C31 C26 1_555 1_555
H16 C31 1_555 1_555
C32 C21 1_555 1_555
C33 C23 1_555 1_555
C34 C33 1_555 1_555
H17 C34 1_555 1_555
O15 C25 1_555 1_555
O7 C25 1_555 1_555
Ca2_2 O4 1_555 1_555
O10_2 Ca2_2 1_555 1_555
Ca6_2 O4 1_555 1_555
O11_2 Ca2_2 1_555 1_555
O18 Ca2_2 1_555 1_555
O22 Ca2_2 1_555 1_555
C18 C19 1_555 1_555
C22 C23 1_555 1_555
C22 C24 1_555 1_555
O5 Ca6_2 1_555 1_555
C29 C32 1_555 1_555
C30 C31 1_555 1_555
C32 C33 1_555 1_555
O7 Ca6 1_555 1_555
O10_2 Ca6_2 1_555 1_555
C1 C2 1_555 1_555
H3 C6 1_555 1_555
C7 C2 1_555 1_555
H4 C7 1_555 1_555
O13 C1 1_555 1_555
O19 C1 1_555 1_555
C35 C36 1_555 1_555
H20 C40 1_555 1_555
C41 C36 1_555 1_555
H21 C41 1_555 1_555
O18 C35 1_555 1_555
O22 C35 1_555 1_555
C6 C7 1_555 1_555
C40 C41 1_555 1_555
C3 H1 1_555 1_555
C4 C3 1_555 1_555
H2 C4 1_555 1_555
C5 C4 1_555 1_555
C8 C5 1_555 1_555
C9 C8 1_555 1_555
C10 C8 1_555 1_555
C11 C10 1_555 1_555
C12 C10 1_555 1_555
H6 C12 1_555 1_555
C37 H18 1_555 1_555
C38 C37 1_555 1_555
H19 C38 1_555 1_555
C39 C38 1_555 1_555
C42 C9 1_555 1_555
C43 C11 1_555 1_555
H22 C44 1_555 1_555
C39 C42 1_555 1_555
C42 C43 1_555 1_555
C43 C44 1_555 1_555
Ca1 O1 1_555 1_555
O1 Ca8 1_555 1_555
O12 Ca1 1_555 1_555
O14 Ca1 1_555 1_555
O16 Ca1 1_555 1_555
O20 Ca1 1_555 1_555
Ca8 O16 1_555 1_555
C1_2 C2_2 1_555 1_555
C2_2 C3_2 1_555 1_555
C3_2 H1_2 1_555 1_555
C4_2 C3_2 1_555 1_555
H2_2 C4_2 1_555 1_555
C5_2 C4_2 1_555 1_555
C6_2 C5_2 1_555 1_555
H3_2 C6_2 1_555 1_555
C7_2 C2_2 1_555 1_555
H4_2 C7_2 1_555 1_555
C8_2 C5_2 1_555 1_555
C9_2 C8_2 1_555 1_555
H5_2 C9_2 1_555 1_555
C10_2 C8_2 1_555 1_555
C11_2 C10_2 1_555 1_555
C12_2 C10_2 1_555 1_555
H6_2 C12_2 1_555 1_555
Ca1_2 O1_2 1_555 1_555
O1_2 Ca8_2 1_555 1_555
O2 C1_2 1_555 1_555
O3 C1_2 1_555 1_555
C35_2 C36_2 1_555 1_555
C36_2 C37_2 1_555 1_555
C37_2 H18_2 1_555 1_555
C38_2 C37_2 1_555 1_555
H19_2 C38_2 1_555 1_555
C39_2 C38_2 1_555 1_555
C40_2 C39_2 1_555 1_555
H20_2 C40_2 1_555 1_555
C41_2 C36_2 1_555 1_555
H21_2 C41_2 1_555 1_555
C42_2 C9_2 1_555 1_555
C43_2 C11_2 1_555 1_555
H22_2 C44_2 1_555 1_555
O16 C35_2 1_555 1_555
O9 C35_2 1_555 1_555
Ca8_2 O2 1_555 1_555
O12_2 Ca1_2 1_555 1_555
O17 Ca1_2 1_555 1_555
O21 Ca1_2 1_555 1_555
C6_2 C7_2 1_555 1_555
Ca1_2 O2 1_555 1_555
O3 Ca8_2 1_555 1_555
C39_2 C42_2 1_555 1_555
C40_2 C41_2 1_555 1_555
C42_2 C43_2 1_555 1_555
C43_2 C44_2 1_555 1_555
O9 Ca8 1_555 1_555
C15_2 H7_2 1_555 1_555
C16_2 C15_2 1_555 1_555
H8_2 C16_2 1_555 1_555
C17_2 C16_2 1_555 1_555
C20_2 C17_2 1_555 1_555
C21_2 C20_2 1_555 1_555
C22_2 C20_2 1_555 1_555
H12_2 C24_2 1_555 1_555
C27_2 H13_2 1_555 1_555
C28_2 C27_2 1_555 1_555
H14_2 C28_2 1_555 1_555
C29_2 C28_2 1_555 1_555
C32_2 C21_2 1_555 1_555
C33_2 C23_2 1_555 1_555
C34_2 C33_2 1_555 1_555
H17_2 C34_2 1_555 1_555
C22_2 C23_2 1_555 1_555
C22_2 C24_2 1_555 1_555
C29_2 C32_2 1_555 1_555
C32_2 C33_2 1_555 1_555
C13_2 C14_2 1_555 1_555
H9_2 C18_2 1_555 1_555
C19_2 C14_2 1_555 1_555
H10_2 C19_2 1_555 1_555
O14 C13_2 1_555 1_555
O20 C13_2 1_555 1_555
C25_2 C26_2 1_555 1_555
H15_2 C30_2 1_555 1_555
C31_2 C26_2 1_555 1_555
H16_2 C31_2 1_555 1_555
O17 C25_2 1_555 1_555
O21 C25_2 1_555 1_555
C18_2 C19_2 1_555 1_555
C30_2 C31_2 1_555 1_555

#END
