
###############################################################################
#
# This file contains modified crystal structure data generated from the
# MOF subset of the Cambridge Structural Database (CSD) v543 
# hosted by the Cambridge Crystallographic Data Centre (CCDC).
#
# This work is licensed under the Creative Commons
# Attribution-NonCommercial-ShareAlike 4.0 International License.
# To view a copy of this license, visit
# http://creativecommons.org/licenses/by-nc-sa/4.0/
# or send a letter to
# Creative Commons, PO Box 1866, Mountain View, CA 94042, USA.
#
# CIF created using the CSD Python API on 29 September 2022
# The structure has been converted into the P1 space group
# The structure has a 3D framework
# The original CSD entry XIYZIR is in the tetragonal crystal system
# The framework has been calculated to contain at least 10.0% void space
# The void calculation uses a probe of radius 1.32A, grid spacing 0.4
# The framework is charged, counterions have been retained in the structure
#
###############################################################################

data_XIYZIR
_chemical_formula_moiety         '(C96 H48 Cu2 N16 O16 2+)n'
_symmetry_cell_setting           triclinic
_symmetry_space_group_name_H-M   'P 1'
_symmetry_Int_Tables_number      1
_space_group_name_Hall           'P 1'
loop_
_symmetry_equiv_pos_site_id
_symmetry_equiv_pos_as_xyz
1 x,y,z
_cell_length_a                   23.6145(7)
_cell_length_b                   23.6145(7)
_cell_length_c                   6.5579(3)
_cell_angle_alpha                90
_cell_angle_beta                 90
_cell_angle_gamma                90
_cell_volume                     3656.98
loop_
_atom_site_label
_atom_site_type_symbol
_atom_site_fract_x
_atom_site_fract_y
_atom_site_fract_z
O1 O 0.08139(8) 0.34208(7) 0.0066(3)
C3 C 0.00397(12) 0.41208(11) 0.2179(4)
H2 H 0.0116 0.3769 0.2752
C4 C 0.02987(9) 0.42784(9) 0.0392(3)
O5 O 0.41861(8) 0.15792(7) 0.0066(3)
C26 C 0.53380(12) 0.05108(11) 0.3133(4)
H13 H 0.5513 0.0621 0.4340
C27 C 0.49603(12) 0.08792(11) 0.2179(4)
H14 H 0.4884 0.1231 0.2752
C28 C 0.47013(9) 0.07216(9) 0.0392(3)
Cu1 Cu 0.2500 0.2500 0.2500
O2 O 0.10918(8) 0.47229(7) 0.5052(3)
C5 C 0.01908(9) 0.48147(9) 0.9510(3)
C6 C 0.06969(10) 0.38841(9) 0.9393(3)
C7 C 0.08489(11) 0.46001(10) 0.6639(4)
C8 C 0.12992(9) 0.36820(9) 0.6488(3)
C9 C 0.10698(9) 0.32312(8) 0.5464(3)
H3 H 0.0682 0.3162 0.5491
C10 C 0.14325(8) 0.28842(9) 0.4393(3)
H4 H 0.1279 0.2578 0.3695
C11 C 0.22091(8) 0.34001(9) 0.5384(3)
H5 H 0.2599 0.3453 0.5382
C12 C 0.18816(9) 0.37719(9) 0.6494(3)
H6 H 0.2043 0.4070 0.7216
N1 N 0.09336(8) 0.40720(7) 0.7546(3)
N2 N 0.19951(6) 0.29624(6) 0.4297(2)
C13 C 0.04553(10) 0.49863(9) 0.7687(3)
C14 C 0.03380(12) 0.55108(11) 0.6867(4)
H7 H 0.0513 0.5621 0.5660
O6 O 0.39082(8) 0.02771(7) 0.5052(3)
C29 C 0.48092(9) 0.01853(9) 0.9510(3)
C30 C 0.43031(10) 0.11159(9) 0.9393(3)
C31 C 0.41511(11) 0.03999(10) 0.6639(4)
C32 C 0.37008(9) 0.13180(9) 0.6488(3)
C33 C 0.39302(9) 0.17688(8) 0.5464(3)
H15 H 0.4318 0.1838 0.5491
C34 C 0.35675(8) 0.21158(9) 0.4393(3)
H16 H 0.3721 0.2422 0.3695
C35 C 0.27909(8) 0.15999(9) 0.5384(3)
H17 H 0.2401 0.1547 0.5382
C36 C 0.31184(9) 0.12281(9) 0.6494(3)
H18 H 0.2957 0.0930 0.7216
N5 N 0.40664(8) 0.09280(7) 0.7546(3)
N6 N 0.30049(6) 0.20376(6) 0.4297(2)
C37 C 0.45447(10) 0.00137(9) 0.7687(3)
N9 N 0.29624(6) 0.30049(6) 0.0703(2)
N10 N 0.20376(6) 0.19951(6) 0.0703(2)
C46 C 0.21158(9) 0.14325(8) 0.0607(3)
H22 H 0.2422 0.1279 0.1305
C22 C 0.28842(9) 0.35675(8) 0.0607(3)
H10 H 0.2578 0.3721 0.1305
C25 C 0.54553(10) 0.99863(9) 0.2313(3)
O8 O 0.60918(8) 0.97229(7) 0.4948(3)
C41 C 0.51908(9) 0.98147(9) 0.0490(3)
C42 C 0.56969(10) 0.88841(9) 0.0607(3)
C43 C 0.58489(11) 0.96001(10) 0.3361(4)
C44 C 0.62992(9) 0.86820(9) 0.3512(3)
C45 C 0.60698(9) 0.82312(8) 0.4536(3)
H21 H 0.5682 0.8162 0.4509
C46_2 C 0.64325(8) 0.78842(9) 0.5607(3)
H22_2 H 0.6279 0.7578 0.6305
C47 C 0.72091(8) 0.84001(9) 0.4616(3)
H23 H 0.7599 0.8453 0.4618
C48 C 0.68816(9) 0.87719(9) 0.3506(3)
H24 H 0.7043 0.9070 0.2784
N7 N 0.59336(8) 0.90720(7) 0.2454(3)
N8 N 0.69951(6) 0.79624(6) 0.5703(2)
Cu3 Cu 0.7500 0.7500 0.7500
C1 C 0.95447(10) 0.50137(9) 0.2313(3)
C2 C 0.96620(12) 0.44892(11) 0.3133(4)
H1 H 0.9487 0.4379 0.4340
O4 O 0.89082(8) 0.52771(7) 0.4948(3)
C17 C 0.98092(9) 0.51853(9) 0.0490(3)
C18 C 0.93031(10) 0.61159(9) 0.0607(3)
C19 C 0.91511(11) 0.53999(10) 0.3361(4)
C20 C 0.87008(9) 0.63180(9) 0.3512(3)
C21 C 0.89302(9) 0.67688(8) 0.4536(3)
H9 H 0.9318 0.6838 0.4509
C22_2 C 0.85675(8) 0.71158(9) 0.5607(3)
H10_2 H 0.8721 0.7422 0.6305
C23 C 0.77909(8) 0.65999(9) 0.4616(3)
H11 H 0.7401 0.6547 0.4618
C24 C 0.81184(9) 0.62281(9) 0.3506(3)
H12 H 0.7957 0.5930 0.2784
N3 N 0.90664(8) 0.59280(7) 0.2454(3)
N4 N 0.80049(6) 0.70376(6) 0.5703(2)
C10_2 C 0.71158(9) 0.64325(8) 0.9393(3)
H4_2 H 0.7422 0.6279 0.8695
N2_2 N 0.70376(6) 0.69951(6) 0.9297(2)
C34_2 C 0.78842(9) 0.85675(8) 0.9393(3)
H16_2 H 0.7578 0.8721 0.8695
N6_2 N 0.79624(6) 0.80049(6) 0.9297(2)
O7 O 0.58139(8) 0.84208(7) 0.9934(3)
C38 C 0.46620(12) 0.94892(11) 0.6867(4)
H19 H 0.4487 0.9379 0.5660
C39 C 0.50397(12) 0.91208(11) 0.7821(4)
H20 H 0.5116 0.8769 0.7248
C40 C 0.52987(9) 0.92784(9) 0.9608(3)
O3 O 0.91861(8) 0.65792(7) 0.9934(3)
C15 C 0.99603(12) 0.58792(11) 0.7821(4)
H8 H 0.9884 0.6231 0.7248
C16 C 0.97013(9) 0.57216(9) 0.9608(3)
C25_2 C 0.00137(9) 0.04553(10) 0.7313(3)
O7_2 O 0.15792(7) 0.08139(8) 0.4934(3)
O8_2 O 0.02771(7) 0.10918(8) 0.9948(3)
C39_2 C 0.08792(11) 0.00397(12) 0.2821(4)
H20_2 H 0.1231 0.0116 0.2248
C40_2 C 0.07216(9) 0.02987(9) 0.4608(3)
C41_2 C 0.01853(9) 0.01908(9) 0.5490(3)
C42_2 C 0.11159(9) 0.06969(10) 0.5607(3)
C43_2 C 0.03999(10) 0.08489(11) 0.8361(4)
C44_2 C 0.13180(9) 0.12992(9) 0.8512(3)
C45_2 C 0.17688(8) 0.10698(9) 0.9536(3)
H21_2 H 0.1838 0.0682 0.9509
C47_2 C 0.15999(9) 0.22091(8) 0.9616(3)
H23_2 H 0.1547 0.2599 0.9618
C48_2 C 0.12281(9) 0.18816(9) 0.8506(3)
H24_2 H 0.0930 0.2043 0.7784
N7_2 N 0.09280(7) 0.09336(8) 0.7454(3)
O1_2 O 0.65792(7) 0.58139(8) 0.5066(3)
O2_2 O 0.52771(7) 0.60918(8) 0.0052(3)
C1_2 C 0.49863(9) 0.45447(10) 0.7313(3)
C2_2 C 0.55108(11) 0.46620(12) 0.8133(4)
H1_2 H 0.5621 0.4487 0.9340
C3_2 C 0.58792(11) 0.50397(12) 0.7179(4)
H2_2 H 0.6231 0.5116 0.7752
C4_2 C 0.57216(9) 0.52987(9) 0.5392(3)
C5_2 C 0.51853(9) 0.51908(9) 0.4510(3)
C6_2 C 0.61159(9) 0.56969(10) 0.4393(3)
C7_2 C 0.53999(10) 0.58489(11) 0.1639(4)
C8_2 C 0.63180(9) 0.62992(9) 0.1488(3)
C9_2 C 0.67688(8) 0.60698(9) 0.0464(3)
H3_2 H 0.6838 0.5682 0.0491
C11_2 C 0.65999(9) 0.72091(8) 0.0384(3)
H5_2 H 0.6547 0.7599 0.0382
C12_2 C 0.62281(9) 0.68816(9) 0.1494(3)
H6_2 H 0.5930 0.7043 0.2216
N1_2 N 0.59280(7) 0.59336(8) 0.2546(3)
O3_2 O 0.34208(7) 0.41861(8) 0.4934(3)
O4_2 O 0.47229(7) 0.39082(8) 0.9948(3)
C13_2 C 0.50137(9) 0.54553(10) 0.2687(3)
C14_2 C 0.44892(11) 0.53380(12) 0.1867(4)
H7_2 H 0.4379 0.5513 0.0660
C15_2 C 0.41208(11) 0.49603(12) 0.2821(4)
H8_2 H 0.3769 0.4884 0.2248
C16_2 C 0.42784(9) 0.47013(9) 0.4608(3)
C17_2 C 0.48147(9) 0.48092(9) 0.5490(3)
C18_2 C 0.38841(9) 0.43031(10) 0.5607(3)
C19_2 C 0.46001(10) 0.41511(11) 0.8361(4)
C20_2 C 0.36820(9) 0.37008(9) 0.8512(3)
C21_2 C 0.32312(8) 0.39302(9) 0.9536(3)
H9_2 H 0.3162 0.4318 0.9509
C23_2 C 0.34001(9) 0.27909(8) 0.9616(3)
H11_2 H 0.3453 0.2401 0.9618
C24_2 C 0.37719(9) 0.31184(9) 0.8506(3)
H12_2 H 0.4070 0.2957 0.7784
N3_2 N 0.40720(7) 0.40664(8) 0.7454(3)
O5_2 O 0.84208(7) 0.91861(8) 0.5066(3)
O6_2 O 0.97229(7) 0.89082(8) 0.0052(3)
C27_2 C 0.91208(11) 0.99603(12) 0.7179(4)
H14_2 H 0.8769 0.9884 0.7752
C28_2 C 0.92784(9) 0.97013(9) 0.5392(3)
C29_2 C 0.98147(9) 0.98092(9) 0.4510(3)
C30_2 C 0.88841(9) 0.93031(10) 0.4393(3)
C31_2 C 0.96001(10) 0.91511(11) 0.1639(4)
C32_2 C 0.86820(9) 0.87008(9) 0.1488(3)
C33_2 C 0.82312(8) 0.89302(9) 0.0464(3)
H15_2 H 0.8162 0.9318 0.0491
C35_2 C 0.84001(9) 0.77909(8) 0.0384(3)
H17_2 H 0.8453 0.7401 0.0382
C36_2 C 0.87719(9) 0.81184(9) 0.1494(3)
H18_2 H 0.9070 0.7957 0.2216
N5_2 N 0.90720(7) 0.90664(8) 0.2546(3)
C37_2 C 0.99863(9) 0.95447(10) 0.2687(3)
C38_2 C 0.05108(11) 0.96620(12) 0.1867(4)
H19_2 H 0.0621 0.9487 0.0660
C26_2 C 0.94892(11) 0.03380(12) 0.8133(4)
H13_2 H 0.9379 0.0513 0.9340
loop_
_geom_bond_atom_site_label_1
_geom_bond_atom_site_label_2
_geom_bond_site_symmetry_1
_geom_bond_site_symmetry_2
H2 C3 1_555 1_555
C4 C3 1_555 1_555
C26 H13 1_555 1_555
C27 C26 1_555 1_555
H14 C27 1_555 1_555
C28 C27 1_555 1_555
Cu1 N2 1_555 1_555
O2 C7 1_555 1_555
C7 N1 1_555 1_555
C8 C9 1_555 1_555
C9 H3 1_555 1_555
C10 C9 1_555 1_555
H4 C10 1_555 1_555
C11 H5 1_555 1_555
C12 C8 1_555 1_555
H6 C12 1_555 1_555
N1 C6 1_555 1_555
N2 C10 1_555 1_555
C13 C5 1_555 1_555
C14 C13 1_555 1_555
H7 C14 1_555 1_555
O6 C31 1_555 1_555
C31 N5 1_555 1_555
C32 C33 1_555 1_555
C33 H15 1_555 1_555
C34 C33 1_555 1_555
H16 C34 1_555 1_555
C35 H17 1_555 1_555
C36 C32 1_555 1_555
H18 C36 1_555 1_555
N5 C30 1_555 1_555
N6 Cu1 1_555 1_555
C37 C29 1_555 1_555
N9 Cu1 1_555 1_555
N10 Cu1 1_555 1_555
C7 C13 1_555 1_555
C8 N1 1_555 1_555
C11 C12 1_555 1_555
C11 N2 1_555 1_555
C31 C37 1_555 1_555
C32 N5 1_555 1_555
C34 N6 1_555 1_555
C35 C36 1_555 1_555
C35 N6 1_555 1_555
H22 C46 1_555 1_555
N10 C46 1_555 1_555
H10 C22 1_555 1_555
N9 C22 1_555 1_555
O8 C43 1_555 1_555
C41 C25 1_555 1_555
C43 C25 1_555 1_555
C44 C45 1_555 1_555
C45 H21 1_555 1_555
C46_2 C45 1_555 1_555
H22_2 C46_2 1_555 1_555
C47 H23 1_555 1_555
C48 C44 1_555 1_555
H24 C48 1_555 1_555
N7 C42 1_555 1_555
N8 C46_2 1_555 1_555
Cu3 N8 1_555 1_555
C43 N7 1_555 1_555
C44 N7 1_555 1_555
C47 C48 1_555 1_555
C47 N8 1_555 1_555
C1 C2 1_555 1_555
C2 H1 1_555 1_555
O4 C19 1_555 1_555
C17 C1 1_555 1_555
C19 C1 1_555 1_555
C20 C21 1_555 1_555
C21 H9 1_555 1_555
C22_2 C21 1_555 1_555
H10_2 C22_2 1_555 1_555
C23 H11 1_555 1_555
C24 C20 1_555 1_555
H12 C24 1_555 1_555
N3 C18 1_555 1_555
N4 C22_2 1_555 1_555
Cu3 N4 1_555 1_555
C19 N3 1_555 1_555
C20 N3 1_555 1_555
C23 C24 1_555 1_555
C23 N4 1_555 1_555
Cu3 N2_2 1_555 1_555
H4_2 C10_2 1_555 1_555
N2_2 C10_2 1_555 1_555
H16_2 C34_2 1_555 1_555
N6_2 Cu3 1_555 1_555
C34_2 N6_2 1_555 1_555
H19 C38 1_555 1_555
C39 C38 1_555 1_555
H20 C39 1_555 1_555
C40 C39 1_555 1_555
H8 C15 1_555 1_555
C16 C15 1_555 1_555
O7_2 C42_2 1_555 1_555
O8_2 C43_2 1_555 1_555
H20_2 C39_2 1_555 1_555
C40_2 C39_2 1_555 1_555
C41_2 C25_2 1_555 1_555
C42_2 C40_2 1_555 1_555
C43_2 C25_2 1_555 1_555
C44_2 C45_2 1_555 1_555
C45_2 H21_2 1_555 1_555
C47_2 H23_2 1_555 1_555
C48_2 C44_2 1_555 1_555
H24_2 C48_2 1_555 1_555
N7_2 C42_2 1_555 1_555
C40_2 C41_2 1_555 1_555
C43_2 N7_2 1_555 1_555
C44_2 N7_2 1_555 1_555
C47_2 C48_2 1_555 1_555
O1_2 C6_2 1_555 1_555
O2_2 C7_2 1_555 1_555
C1_2 C2_2 1_555 1_555
C2_2 H1_2 1_555 1_555
C3_2 C2_2 1_555 1_555
H2_2 C3_2 1_555 1_555
C4_2 C3_2 1_555 1_555
C5_2 C4_2 1_555 1_555
C6_2 C4_2 1_555 1_555
C7_2 N1_2 1_555 1_555
C8_2 C9_2 1_555 1_555
C9_2 H3_2 1_555 1_555
C11_2 H5_2 1_555 1_555
C12_2 C8_2 1_555 1_555
H6_2 C12_2 1_555 1_555
N1_2 C6_2 1_555 1_555
O3_2 C18_2 1_555 1_555
O4_2 C19_2 1_555 1_555
C13_2 C5_2 1_555 1_555
C14_2 C13_2 1_555 1_555
H7_2 C14_2 1_555 1_555
C15_2 C14_2 1_555 1_555
H8_2 C15_2 1_555 1_555
C16_2 C15_2 1_555 1_555
C17_2 C1_2 1_555 1_555
C18_2 C16_2 1_555 1_555
C19_2 C1_2 1_555 1_555
C20_2 C21_2 1_555 1_555
C21_2 H9_2 1_555 1_555
C23_2 H11_2 1_555 1_555
C24_2 C20_2 1_555 1_555
H12_2 C24_2 1_555 1_555
N3_2 C18_2 1_555 1_555
O5_2 C30_2 1_555 1_555
O6_2 C31_2 1_555 1_555
H14_2 C27_2 1_555 1_555
C28_2 C27_2 1_555 1_555
C29_2 C28_2 1_555 1_555
C30_2 C28_2 1_555 1_555
C31_2 N5_2 1_555 1_555
C32_2 C33_2 1_555 1_555
C33_2 H15_2 1_555 1_555
C35_2 H17_2 1_555 1_555
C36_2 C32_2 1_555 1_555
H18_2 C36_2 1_555 1_555
N5_2 C30_2 1_555 1_555
C37_2 C29_2 1_555 1_555
C5_2 C17_2 1_555 1_555
C7_2 C13_2 1_555 1_555
C8_2 N1_2 1_555 1_555
C11_2 C12_2 1_555 1_555
C16_2 C17_2 1_555 1_555
C19_2 N3_2 1_555 1_555
C20_2 N3_2 1_555 1_555
C23_2 C24_2 1_555 1_555
C31_2 C37_2 1_555 1_555
C32_2 N5_2 1_555 1_555
C35_2 C36_2 1_555 1_555
H19_2 C38_2 1_555 1_555
C26_2 H13_2 1_555 1_555

#END
