
###############################################################################
#
# This file contains modified crystal structure data generated from the
# MOF subset of the Cambridge Structural Database (CSD) v543 
# hosted by the Cambridge Crystallographic Data Centre (CCDC).
#
# This work is licensed under the Creative Commons
# Attribution-NonCommercial-ShareAlike 4.0 International License.
# To view a copy of this license, visit
# http://creativecommons.org/licenses/by-nc-sa/4.0/
# or send a letter to
# Creative Commons, PO Box 1866, Mountain View, CA 94042, USA.
#
# CIF created using the CSD Python API on 29 September 2022
# The structure has been converted into the P1 space group
# The structure has a 3D framework
# The original CSD entry XOBBUO is in the triclinic crystal system
# The framework has been calculated to contain at least 10.0% void space
# The void calculation uses a probe of radius 1.32A, grid spacing 0.4
#
###############################################################################

data_XOBBUO
_chemical_formula_moiety         '(C76 H48 Cd4 N12 O26)n'
_symmetry_cell_setting           triclinic
_symmetry_space_group_name_H-M   'P 1'
_symmetry_Int_Tables_number      1
_space_group_name_Hall           'P 1'
loop_
_symmetry_equiv_pos_site_id
_symmetry_equiv_pos_as_xyz
1 x,y,z
_cell_length_a                   8.342(4)
_cell_length_b                   13.903(6)
_cell_length_c                   23.568(10)
_cell_angle_alpha                86.840(6)
_cell_angle_beta                 89.264(6)
_cell_angle_gamma                78.826(6)
_cell_volume                     2677.49
loop_
_atom_site_label
_atom_site_type_symbol
_atom_site_fract_x
_atom_site_fract_y
_atom_site_fract_z
O14 O 0.1062(10) 0.2465(6) 0.2710(4)
H24 H 0.078938 0.075724 0.292373
Cd3 Cd 0.14848(6) 0.39801(4) 0.25248(2)
C1 C 0.4715(14) 0.0874(7) 0.2944(4)
H1 H 0.419775 0.125696 0.322910
C5 C 0.6253(15) 0.0731(6) 0.2153(4)
H4 H 0.682748 0.099857 0.186390
N1 N 0.5531(8) 0.1297(4) 0.2560(3)
Cd6 Cd 0.58087(6) 0.29285(4) 0.25474(2)
O1 O 0.5705(6) 0.4585(3) 0.2500(2)
O2 O 0.2986(6) 0.5166(3) 0.2466(2)
O3 O 0.9204(9) 0.7147(7) 0.2344(4)
O4 O 0.8411(10) 0.8193(7) 0.2932(5)
O5 O 0.6035(7) 0.2934(4) 0.3567(2)
O6 O 0.3557(7) 0.3230(4) 0.3234(2)
O7 O 0.6635(10) 0.3956(8) 0.5551(4)
O8 O 0.5107(9) 0.3274(7) 0.6121(3)
O9 O 0.3424(7) 0.3183(4) 0.1859(2)
O10 O 0.5922(6) 0.2976(4) 0.1543(2)
O13 O 0.8562(8) 0.2748(5) 0.2537(3)
C2 C 0.4566(15) 0.9920(7) 0.2958(4)
H2 H 0.393948 0.968087 0.324205
C3 C 0.5325(10) 0.9299(5) 0.2559(4)
C4 C 0.6150(13) 0.9727(7) 0.2159(4)
H3 H 0.667508 0.934800 0.187288
C6 C 0.5156(10) 0.8261(5) 0.2547(3)
C7 C 0.6457(9) 0.7479(5) 0.2544(3)
C8 C 0.6257(9) 0.6507(5) 0.2516(3)
H5 H 0.716696 0.600128 0.251074
C9 C 0.4716(8) 0.6302(5) 0.2498(3)
C10 C 0.3384(9) 0.7069(5) 0.2500(3)
H6 H 0.233277 0.694309 0.247658
C11 C 0.3617(9) 0.8033(6) 0.2538(4)
H7 H 0.270674 0.853643 0.255663
C12 C 0.4449(9) 0.5263(5) 0.2485(3)
C13 C 0.1425(9) 0.5448(6) 0.6554(3)
H8 H 0.177900 0.596846 0.671081
C14 C 0.2276(9) 0.5006(6) 0.6102(3)
H9 H 0.321436 0.521777 0.597357
C15 C 0.1775(9) 0.4261(6) 0.5839(3)
C16 C 0.0390(11) 0.3955(6) 0.6076(3)
H10 H 0.000241 0.344135 0.592321
C18 C 0.2537(11) 0.3867(6) 0.5304(3)
C19 C 0.4242(10) 0.3661(6) 0.5198(3)
C20 C 0.4853(10) 0.3418(6) 0.4678(3)
H12 H 0.598002 0.327871 0.462660
C21 C 0.3836(10) 0.3373(5) 0.4217(3)
C22 C 0.2162(10) 0.3534(6) 0.4321(3)
H13 H 0.145266 0.347257 0.403001
C23 C 0.1538(9) 0.3783(6) 0.4849(3)
H14 H 0.041160 0.389869 0.490216
C24 C 0.4531(11) 0.3167(5) 0.3642(3)
C32 C 0.4816(10) 0.3433(6) 0.0407(3)
H19 H 0.593790 0.331484 0.046804
C33 C 0.3756(9) 0.3367(5) 0.0857(3)
C34 C 0.2097(9) 0.3524(6) 0.0753(3)
H20 H 0.137647 0.346814 0.105162
C35 C 0.1504(9) 0.3758(6) 0.0217(3)
H21 H 0.038455 0.384029 0.015766
C36 C 0.4416(11) 0.3172(5) 0.1459(3)
C37 C 0.9741(12) 0.2203(7) 0.2677(5)
C38 C 0.9694(17) 0.1119(10) 0.2870(8)
H22 H 0.916451 0.082685 0.258367
H23 H 0.909940 0.110404 0.322049
N2 N 0.8123(10) 0.7629(5) 0.2586(4)
N3 N 0.0088(7) 0.5148(4) 0.6775(2)
N4 N 0.5415(11) 0.3618(8) 0.5653(4)
O11 O 0.5117(9) 0.3371(6) 0.8959(3)
O12 O 0.6622(10) 0.3982(7) 0.9505(3)
C25 C 0.1403(9) 0.5463(6) 0.8417(3)
H15 H 0.175434 0.598206 0.821947
C26 C 0.2251(9) 0.5056(6) 0.8883(3)
H16 H 0.316211 0.528922 0.899717
C27 C 0.1745(9) 0.4276(6) 0.9195(3)
C28 C 0.0410(10) 0.3968(6) 0.8991(3)
H17 H 0.005523 0.343808 0.917514
C30 C 0.2521(10) 0.3881(6) 0.9749(3)
C31 C 0.4202(10) 0.3675(6) 0.9869(3)
N5 N 0.0090(7) 0.5168(4) 0.8223(2)
N6 N 0.5403(10) 0.3666(7) 0.9412(3)
C29 C 0.0404(9) 0.5579(5) 0.1474(3)
H18 H 0.133626 0.578821 0.158965
C17 C 0.0385(10) 0.5590(6) 0.3471(3)
H11 H 0.129936 0.580858 0.332447
C17_2 C 0.9615(10) 0.4410(6) 0.6529(3)
H11_2 H 0.870064 0.419142 0.667553
Cd5 Cd 0.85152(6) 0.60199(4) 0.74752(2)
N8 N 0.9912(7) 0.4852(4) 0.3225(2)
N9 N 0.9910(7) 0.4832(4) 0.1777(2)
C29_2 C 0.9596(9) 0.4421(5) 0.8526(3)
H18_2 H 0.866374 0.421179 0.841035
O11_2 O 0.4883(9) 0.6629(6) 0.1041(3)
O12_2 O 0.3378(10) 0.6018(7) 0.0495(3)
C25_2 C 0.8597(9) 0.4537(6) 0.1583(3)
H15_2 H 0.824566 0.401794 0.178053
C26_2 C 0.7749(9) 0.4944(6) 0.1117(3)
H16_2 H 0.683789 0.471078 0.100283
C27_2 C 0.8255(9) 0.5724(6) 0.0805(3)
C28_2 C 0.9590(10) 0.6032(6) 0.1009(3)
H17_2 H 0.994477 0.656192 0.082486
C30_2 C 0.7479(10) 0.6119(6) 0.0251(3)
C31_2 C 0.5798(10) 0.6325(6) 0.0131(3)
N6_2 N 0.4597(10) 0.6334(7) 0.0588(3)
Cd2 Cd 0.41913(6) 0.70715(4) 0.74526(2)
O1_2 O 0.4295(6) 0.5415(3) 0.7500(2)
O2_2 O 0.7014(6) 0.4834(3) 0.7534(2)
O3_2 O 0.0796(9) 0.2853(7) 0.7656(4)
O4_2 O 0.1589(10) 0.1807(7) 0.7068(5)
O5_2 O 0.3965(7) 0.7066(4) 0.6433(2)
O6_2 O 0.6443(7) 0.6770(4) 0.6766(2)
O7_2 O 0.3365(10) 0.6044(8) 0.4449(4)
O8_2 O 0.4893(9) 0.6726(7) 0.3879(3)
O9_2 O 0.6576(7) 0.6817(4) 0.8141(2)
O10_2 O 0.4078(6) 0.7024(4) 0.8457(2)
O13_2 O 0.1438(8) 0.7252(5) 0.7463(3)
C2_2 C 0.5434(15) 0.0080(7) 0.7042(4)
H2_2 H 0.606052 0.031913 0.675795
C3_2 C 0.4675(10) 0.0701(5) 0.7441(4)
C4_2 C 0.3850(13) 0.0273(7) 0.7841(4)
H3_2 H 0.332492 0.065200 0.812712
C6_2 C 0.4844(10) 0.1739(5) 0.7453(3)
C7_2 C 0.3543(9) 0.2521(5) 0.7456(3)
C8_2 C 0.3743(9) 0.3493(5) 0.7484(3)
H5_2 H 0.283304 0.399872 0.748926
C9_2 C 0.5284(8) 0.3698(5) 0.7502(3)
C10_2 C 0.6616(9) 0.2931(5) 0.7500(3)
H6_2 H 0.766723 0.305691 0.752342
C11_2 C 0.6383(9) 0.1967(6) 0.7462(4)
H7_2 H 0.729326 0.146357 0.744337
C12_2 C 0.5551(9) 0.4737(5) 0.7515(3)
C13_2 C 0.8575(9) 0.4552(6) 0.3446(3)
H8_2 H 0.822100 0.403154 0.328919
C14_2 C 0.7724(9) 0.4994(6) 0.3898(3)
H9_2 H 0.678564 0.478223 0.402643
C15_2 C 0.8225(9) 0.5739(6) 0.4161(3)
C16_2 C 0.9610(11) 0.6045(6) 0.3924(3)
H10_2 H 0.999759 0.655865 0.407679
C18_2 C 0.7463(11) 0.6133(6) 0.4696(3)
C19_2 C 0.5758(10) 0.6339(6) 0.4802(3)
C20_2 C 0.5147(10) 0.6582(6) 0.5322(3)
H12_2 H 0.401998 0.672129 0.537340
C21_2 C 0.6164(10) 0.6627(5) 0.5783(3)
C22_2 C 0.7838(10) 0.6466(6) 0.5679(3)
H13_2 H 0.854734 0.652743 0.596999
C23_2 C 0.8462(9) 0.6217(6) 0.5151(3)
H14_2 H 0.958840 0.610131 0.509784
C24_2 C 0.5469(11) 0.6833(5) 0.6358(3)
C32_2 C 0.5184(10) 0.6567(6) 0.9593(3)
H19_2 H 0.406210 0.668516 0.953196
C33_2 C 0.6244(9) 0.6633(5) 0.9143(3)
C34_2 C 0.7903(9) 0.6476(6) 0.9247(3)
H20_2 H 0.862353 0.653186 0.894838
C35_2 C 0.8496(9) 0.6242(6) 0.9783(3)
H21_2 H 0.961545 0.615971 0.984234
C36_2 C 0.5584(11) 0.6828(5) 0.8541(3)
C37_2 C 0.0259(12) 0.7797(7) 0.7323(5)
C38_2 C 0.0306(17) 0.8881(10) 0.7130(8)
H22_2 H 0.083549 0.917315 0.741633
H23_2 H 0.090060 0.889596 0.677951
N2_2 N 0.1877(10) 0.2371(5) 0.7414(4)
N4_2 N 0.4585(11) 0.6382(8) 0.4347(4)
O15 O 0.8938(10) 0.7535(6) 0.7290(4)
N7 N 0.4469(8) 0.8703(4) 0.7440(3)
C1_2 C 0.5285(14) 0.9126(7) 0.7056(4)
H1_2 H 0.580225 0.874304 0.677090
C5_2 C 0.3747(15) 0.9269(6) 0.7847(4)
H4_2 H 0.317252 0.900143 0.813610
H24_2 H 0.921062 0.924276 0.707627
loop_
_geom_bond_atom_site_label_1
_geom_bond_atom_site_label_2
_geom_bond_site_symmetry_1
_geom_bond_site_symmetry_2
Cd3 O14 1_555 1_555
C1 H1 1_555 1_555
H4 C5 1_555 1_555
N1 C1 1_555 1_555
Cd6 N1 1_555 1_555
C5 N1 1_555 1_555
Cd3 O2 1_555 1_555
Cd6 O1 1_555 1_555
O1 C12 1_555 1_555
O2 C12 1_555 1_555
O3 N2 1_555 1_555
O4 N2 1_555 1_555
O5 Cd6 1_555 1_555
O6 Cd3 1_555 1_555
O7 N4 1_555 1_555
O8 N4 1_555 1_555
O9 Cd3 1_555 1_555
O10 Cd6 1_555 1_555
O13 Cd6 1_555 1_555
H2 C2 1_555 1_555
C3 C2 1_555 1_555
C4 C3 1_555 1_555
H3 C4 1_555 1_555
C6 C3 1_555 1_555
C7 C6 1_555 1_555
C8 C7 1_555 1_555
H5 C8 1_555 1_555
C9 C8 1_555 1_555
C10 C9 1_555 1_555
H6 C10 1_555 1_555
C11 C6 1_555 1_555
H7 C11 1_555 1_555
C12 C9 1_555 1_555
C13 H8 1_555 1_555
C14 C13 1_555 1_555
H9 C14 1_555 1_555
C15 C14 1_555 1_555
C16 C15 1_555 1_555
H10 C16 1_555 1_555
C18 C15 1_555 1_555
C19 C18 1_555 1_555
C20 C19 1_555 1_555
H12 C20 1_555 1_555
C21 C20 1_555 1_555
C22 C21 1_555 1_555
H13 C22 1_555 1_555
C23 C18 1_555 1_555
H14 C23 1_555 1_555
C24 O5 1_555 1_555
H19 C32 1_555 1_555
C33 C32 1_555 1_555
C34 C33 1_555 1_555
H20 C34 1_555 1_555
H21 C35 1_555 1_555
C36 O9 1_555 1_555
C37 O13 1_555 1_555
C38 C37 1_555 1_555
H22 C38 1_555 1_555
H23 C38 1_555 1_555
N2 C7 1_555 1_555
N3 C13 1_555 1_555
N4 C19 1_555 1_555
Cd6 O6 1_555 1_555
Cd6 O9 1_555 1_555
O6 C24 1_555 1_555
O10 C36 1_555 1_555
C10 C11 1_555 1_555
C21 C24 1_555 1_555
C22 C23 1_555 1_555
C33 C36 1_555 1_555
C34 C35 1_555 1_555
O11 N6 1_555 1_555
O12 N6 1_555 1_555
C25 H15 1_555 1_555
C26 C25 1_555 1_555
H16 C26 1_555 1_555
C27 C26 1_555 1_555
C28 C27 1_555 1_555
H17 C28 1_555 1_555
C30 C27 1_555 1_555
C31 C30 1_555 1_555
N5 C25 1_555 1_555
N6 C31 1_555 1_555
H18 C29 1_555 1_555
H11 C17 1_555 1_555
H11_2 C17_2 1_555 1_555
H18_2 C29_2 1_555 1_555
O11_2 N6_2 1_555 1_555
O12_2 N6_2 1_555 1_555
C25_2 H15_2 1_555 1_555
C26_2 C25_2 1_555 1_555
H16_2 C26_2 1_555 1_555
C27_2 C26_2 1_555 1_555
C28_2 C27_2 1_555 1_555
H17_2 C28_2 1_555 1_555
C30_2 C27_2 1_555 1_555
C31_2 C30_2 1_555 1_555
N9 C25_2 1_555 1_555
N6_2 C31_2 1_555 1_555
Cd5 O2_2 1_555 1_555
Cd2 O1_2 1_555 1_555
O1_2 C12_2 1_555 1_555
O2_2 C12_2 1_555 1_555
O3_2 N2_2 1_555 1_555
O4_2 N2_2 1_555 1_555
O5_2 Cd2 1_555 1_555
O6_2 Cd5 1_555 1_555
O7_2 N4_2 1_555 1_555
O8_2 N4_2 1_555 1_555
O9_2 Cd5 1_555 1_555
O10_2 Cd2 1_555 1_555
O13_2 Cd2 1_555 1_555
H2_2 C2_2 1_555 1_555
C3_2 C2_2 1_555 1_555
C4_2 C3_2 1_555 1_555
H3_2 C4_2 1_555 1_555
C6_2 C3_2 1_555 1_555
C7_2 C6_2 1_555 1_555
C8_2 C7_2 1_555 1_555
H5_2 C8_2 1_555 1_555
C9_2 C8_2 1_555 1_555
C10_2 C9_2 1_555 1_555
H6_2 C10_2 1_555 1_555
C11_2 C6_2 1_555 1_555
H7_2 C11_2 1_555 1_555
C12_2 C9_2 1_555 1_555
C13_2 H8_2 1_555 1_555
C14_2 C13_2 1_555 1_555
H9_2 C14_2 1_555 1_555
C15_2 C14_2 1_555 1_555
C16_2 C15_2 1_555 1_555
H10_2 C16_2 1_555 1_555
C18_2 C15_2 1_555 1_555
C19_2 C18_2 1_555 1_555
C20_2 C19_2 1_555 1_555
H12_2 C20_2 1_555 1_555
C21_2 C20_2 1_555 1_555
C22_2 C21_2 1_555 1_555
H13_2 C22_2 1_555 1_555
C23_2 C18_2 1_555 1_555
H14_2 C23_2 1_555 1_555
C24_2 O5_2 1_555 1_555
H19_2 C32_2 1_555 1_555
C33_2 C32_2 1_555 1_555
C34_2 C33_2 1_555 1_555
H20_2 C34_2 1_555 1_555
H21_2 C35_2 1_555 1_555
C36_2 O9_2 1_555 1_555
C37_2 O13_2 1_555 1_555
C38_2 C37_2 1_555 1_555
H22_2 C38_2 1_555 1_555
H23_2 C38_2 1_555 1_555
N2_2 C7_2 1_555 1_555
N8 C13_2 1_555 1_555
N4_2 C19_2 1_555 1_555
O15 Cd5 1_555 1_555
N7 Cd2 1_555 1_555
Cd2 O6_2 1_555 1_555
Cd2 O9_2 1_555 1_555
O6_2 C24_2 1_555 1_555
O10_2 C36_2 1_555 1_555
C10_2 C11_2 1_555 1_555
C21_2 C24_2 1_555 1_555
C22_2 C23_2 1_555 1_555
C33_2 C36_2 1_555 1_555
C34_2 C35_2 1_555 1_555
C1_2 H1_2 1_555 1_555
H4_2 C5_2 1_555 1_555
N7 C1_2 1_555 1_555
C5_2 N7 1_555 1_555

#END
