
###############################################################################
#
# This file contains modified crystal structure data generated from the
# MOF subset of the Cambridge Structural Database (CSD) v543 
# hosted by the Cambridge Crystallographic Data Centre (CCDC).
#
# This work is licensed under the Creative Commons
# Attribution-NonCommercial-ShareAlike 4.0 International License.
# To view a copy of this license, visit
# http://creativecommons.org/licenses/by-nc-sa/4.0/
# or send a letter to
# Creative Commons, PO Box 1866, Mountain View, CA 94042, USA.
#
# CIF created using the CSD Python API on 29 September 2022
# The structure has been converted into the P1 space group
# The structure has a 3D framework
# The original CSD entry XOCWOD is in the triclinic crystal system
# The framework has been calculated to contain at least 10.0% void space
# The void calculation uses a probe of radius 1.32A, grid spacing 0.4
#
###############################################################################

data_XOCWOD
_chemical_formula_moiety         '(C30 H26 Er2 O36 U4)n'
_symmetry_cell_setting           triclinic
_symmetry_space_group_name_H-M   'P 1'
_symmetry_Int_Tables_number      1
_space_group_name_Hall           'P 1'
loop_
_symmetry_equiv_pos_site_id
_symmetry_equiv_pos_as_xyz
1 x,y,z
_cell_length_a                   10.5136(5)
_cell_length_b                   11.4650(6)
_cell_length_c                   13.4175(7)
_cell_angle_alpha                69.0840(10)
_cell_angle_beta                 78.6070(10)
_cell_angle_gamma                63.5420(10)
_cell_volume                     1351.08
loop_
_atom_site_label
_atom_site_type_symbol
_atom_site_fract_x
_atom_site_fract_y
_atom_site_fract_z
O11 O 0.3270(6) 0.1971(6) 0.0514(5)
U7 U 0.37696(3) 0.28657(3) 0.16360(2)
U2 U -0.0000 0.5000 0.5000
O3 O 0.0672(7) 0.5002(7) 0.6099(5)
O9 O 0.5039(7) 0.0784(7) 0.7536(6)
O10 O 0.4841(7) 0.1769(7) 0.9168(5)
C2 C 0.1111(9) 0.3129(9) 0.9095(7)
H11 H 0.0968 0.3586 0.9584
C3 C 0.2460(9) 0.2151(9) 0.8948(6)
C4 C 0.2657(9) 0.1413(8) 0.8247(7)
C5 C 0.1468(9) 0.1661(9) 0.7745(6)
H12 H 0.1580 0.1126 0.7325
C6 C 0.0133(9) 0.2673(8) 0.7854(6)
C11 C 0.3622(9) 0.1944(8) 0.9557(6)
C12 C 0.4068(9) 0.0416(8) 0.7958(6)
Er3 Er 0.59886(4) 0.23045(4) 0.75015(3)
O41 O 0.1139(6) 0.6364(6) 0.3731(5)
O50 O 0.2671(8) 0.3660(7) 0.4660(6)
O51 O 0.1346(7) 0.2504(7) 0.5212(6)
O8 O 0.4185(6) 0.9200(6) 0.8193(5)
U5 U 0.62304(3) 0.71343(3) 0.83640(2)
O21 O 0.4992(7) 0.3061(6) 0.2819(4)
O22 O 0.5903(8) 0.2984(7) 0.4192(5)
C16 C 0.3737(9) 0.0006(8) 0.5499(6)
H14 H 0.2874 0.0015 0.5842
C17 C 0.3836(10) 0.1241(9) 0.4946(7)
C18 C 0.5130(9) 0.1238(9) 0.4439(6)
C19 C 0.5320(8) 0.2525(8) 0.3787(6)
C20 C 0.2555(10) 0.2546(9) 0.4921(7)
Er2 Er 0.40114(4) 0.76955(4) 0.24985(3)
O25 O 0.4685(7) 0.3660(6) 0.0545(5)
O26 O 0.2823(8) 0.2116(7) 0.2689(5)
O27 O 0.1505(8) 0.4626(7) 0.0863(6)
O28 O 0.2392(7) 0.5036(7) 0.1983(5)
O29 O 0.1869(7) 0.7643(6) 0.2291(5)
O35 O 0.3938(7) 0.5782(7) 0.3935(5)
H15 H 0.4738 0.5142 0.4268
H16 H 0.3109 0.5695 0.4148
O36 O 0.6334(8) 0.6239(9) 0.3150(7)
H17 H 0.6470 0.5467 0.3700
H18 H 0.7072 0.6463 0.2852
O37 O 0.4769(10) 0.5911(8) 0.1746(6)
H19 H 0.5634 0.5217 0.1882
H20 H 0.4194 0.5920 0.1324
O38 O 0.2381(7) 0.9840(7) 0.1617(6)
H22 H 0.1504 0.9958 0.1521
O39 O 0.2860(8) 0.8470(7) 0.3932(5)
H23 H 0.3334 0.8189 0.4522
H24 H 0.1937 0.9056 0.3901
C21 C 0.0021(9) 0.6565(9) 0.1472(7)
C27 C 0.1391(11) 0.5382(10) 0.1408(8)
C30 C 0.1063(8) 0.7088(8) 0.2745(6)
O43 O 0.5815(6) 0.0800(6) 0.1807(5)
O45 O 0.4961(7) 0.9216(7) 0.2464(6)
O47 O 0.5159(7) 0.8231(7) 0.0832(5)
U2_2 U 1.0000 0.5000 0.5000
O1 O 0.5315(7) 0.6340(6) 0.9455(5)
O2 O 0.7177(8) 0.7884(7) 0.7311(5)
O4 O 0.8495(8) 0.5374(7) 0.9137(6)
O5 O 0.7608(7) 0.4964(7) 0.8017(5)
O6 O 0.8131(7) 0.2357(6) 0.7709(5)
O7 O 0.8861(6) 0.3636(6) 0.6269(5)
O12 O 0.5008(7) 0.6939(6) 0.7181(4)
O13 O 0.4097(8) 0.7016(7) 0.5808(5)
O14 O 0.7329(8) 0.6340(7) 0.5340(6)
O15 O 0.8654(7) 0.7496(7) 0.4788(6)
O16 O 0.6062(7) 0.4218(7) 0.6065(5)
H1 H 0.5262 0.4858 0.5732
H2 H 0.6891 0.4305 0.5852
O17 O 0.3666(8) 0.3761(9) 0.6850(7)
H3 H 0.3530 0.4533 0.6300
H4 H 0.2928 0.3537 0.7148
O18 O 0.5231(10) 0.4089(8) 0.8254(6)
H5 H 0.4366 0.4783 0.8118
H6 H 0.5806 0.4080 0.8676
O19 O 0.7619(7) 0.0160(7) 0.8383(6)
H8 H 0.8496 0.0042 0.8479
O20 O 0.7140(8) 0.1530(7) 0.6068(5)
H9 H 0.6666 0.1811 0.5478
H10 H 0.8063 0.0944 0.6099
C1 C 0.9979(9) 0.3435(9) 0.8528(7)
C7 C 0.6263(9) 0.9994(8) 0.4501(6)
H13 H 0.7126 0.9985 0.4158
C8 C 0.6164(10) 0.8759(9) 0.5054(7)
C9 C 0.4870(9) 0.8762(9) 0.5561(6)
C10 C 0.8609(11) 0.4618(10) 0.8592(8)
C13 C 0.8937(8) 0.2912(8) 0.7255(6)
C14 C 0.4680(8) 0.7475(8) 0.6213(6)
C15 C 0.7445(10) 0.7454(9) 0.5079(7)
O40 O 0.9328(7) 0.4998(7) 0.3901(5)
O49 O 0.6730(6) 0.8029(6) 0.9486(5)
C22 C 0.8889(9) 0.6871(9) 0.0905(7)
H25 H 0.9032 0.6414 0.0416
C23 C 0.7540(9) 0.7849(9) 0.1052(6)
C24 C 0.7343(9) 0.8587(8) 0.1753(7)
C25 C 0.8532(9) 0.8339(9) 0.2255(6)
H26 H 0.8420 0.8874 0.2675
C26 C 0.9867(9) 0.7327(8) 0.2146(6)
C28 C 0.6378(9) 0.8056(8) 0.0443(6)
C29 C 0.5932(9) 0.9584(8) 0.2042(6)
H21 H 0.2624 0.0557 0.1374
H7 H 0.7376 0.9443 0.8626
loop_
_geom_bond_atom_site_label_1
_geom_bond_atom_site_label_2
_geom_bond_site_symmetry_1
_geom_bond_site_symmetry_2
U7 O11 1_555 1_555
U2 O3 1_555 1_555
O9 C12 1_555 1_555
O10 C11 1_555 1_555
C2 H11 1_555 1_555
C3 C2 1_555 1_555
C4 C3 1_555 1_555
C5 C4 1_555 1_555
H12 C5 1_555 1_555
C11 C3 1_555 1_555
C12 C4 1_555 1_555
Er3 O9 1_555 1_555
O41 U2 1_555 1_555
O50 U2 1_555 1_555
O51 U2 1_555 1_555
O10 Er3 1_555 1_555
C5 C6 1_555 1_555
U5 O8 1_555 1_555
O21 C19 1_555 1_555
O22 C19 1_555 1_555
O50 C20 1_555 1_555
O51 C20 1_555 1_555
H14 C16 1_555 1_555
C17 C16 1_555 1_555
C19 C18 1_555 1_555
C20 C17 1_555 1_555
U7 O21 1_555 1_555
Er2 O29 1_555 1_555
O25 U7 1_555 1_555
O26 U7 1_555 1_555
O27 U7 1_555 1_555
O28 U7 1_555 1_555
O29 C30 1_555 1_555
O41 C30 1_555 1_555
O35 Er2 1_555 1_555
H15 O35 1_555 1_555
H16 O35 1_555 1_555
O36 Er2 1_555 1_555
H17 O36 1_555 1_555
H18 O36 1_555 1_555
O37 Er2 1_555 1_555
H19 O37 1_555 1_555
H20 O37 1_555 1_555
O38 Er2 1_555 1_555
H22 O38 1_555 1_555
O39 Er2 1_555 1_555
H23 O39 1_555 1_555
H24 O39 1_555 1_555
C27 O27 1_555 1_555
O43 U7 1_555 1_555
O45 Er2 1_555 1_555
O47 Er2 1_555 1_555
C17 C18 1_555 1_555
O28 C27 1_555 1_555
C21 C27 1_555 1_555
U5 O1 1_555 1_555
Er3 O6 1_555 1_555
O2 U5 1_555 1_555
O4 U5 1_555 1_555
O5 U5 1_555 1_555
O6 C13 1_555 1_555
O7 U2_2 1_555 1_555
O12 U5 1_555 1_555
O13 C14 1_555 1_555
O14 U2_2 1_555 1_555
O15 U2_2 1_555 1_555
O16 Er3 1_555 1_555
H1 O16 1_555 1_555
H2 O16 1_555 1_555
O17 Er3 1_555 1_555
H3 O17 1_555 1_555
H4 O17 1_555 1_555
O18 Er3 1_555 1_555
H5 O18 1_555 1_555
H6 O18 1_555 1_555
O19 Er3 1_555 1_555
H8 O19 1_555 1_555
O20 Er3 1_555 1_555
H9 O20 1_555 1_555
H10 O20 1_555 1_555
C7 H13 1_555 1_555
C8 C7 1_555 1_555
C9 C8 1_555 1_555
C10 O4 1_555 1_555
C13 O7 1_555 1_555
C14 O12 1_555 1_555
C15 O14 1_555 1_555
O40 U2_2 1_555 1_555
O49 U5 1_555 1_555
O5 C10 1_555 1_555
O15 C15 1_555 1_555
C1 C10 1_555 1_555
C8 C15 1_555 1_555
C9 C14 1_555 1_555
O45 C29 1_555 1_555
O47 C28 1_555 1_555
C22 H25 1_555 1_555
C23 C22 1_555 1_555
C24 C23 1_555 1_555
C25 C24 1_555 1_555
H26 C25 1_555 1_555
C28 C23 1_555 1_555
C29 C24 1_555 1_555
C25 C26 1_555 1_555

#END
