
###############################################################################
#
# This file contains modified crystal structure data generated from the
# MOF subset of the Cambridge Structural Database (CSD) v543 
# hosted by the Cambridge Crystallographic Data Centre (CCDC).
#
# This work is licensed under the Creative Commons
# Attribution-NonCommercial-ShareAlike 4.0 International License.
# To view a copy of this license, visit
# http://creativecommons.org/licenses/by-nc-sa/4.0/
# or send a letter to
# Creative Commons, PO Box 1866, Mountain View, CA 94042, USA.
#
# CIF created using the CSD Python API on 29 September 2022
# The structure has been converted into the P1 space group
# The structure has a 3D framework
# The original CSD entry XOGHAF is in the monoclinic crystal system
# The framework has been calculated to contain at least 10.0% void space
# The void calculation uses a probe of radius 1.32A, grid spacing 0.4
# The framework is charged, counterions have been retained in the structure
#
###############################################################################

data_XOGHAF
_chemical_formula_moiety         '(C96 H96 Cu4 N48 8+)n'
_symmetry_cell_setting           triclinic
_symmetry_space_group_name_H-M   'P 1'
_symmetry_Int_Tables_number      1
_space_group_name_Hall           'P 1'
loop_
_symmetry_equiv_pos_site_id
_symmetry_equiv_pos_as_xyz
1 x,y,z
_cell_length_a                   10.953(6)
_cell_length_b                   15.982(8)
_cell_length_c                   24.080(10)
_cell_angle_alpha                90
_cell_angle_beta                 107.46(2)
_cell_angle_gamma                90
_cell_volume                     4021.01
loop_
_atom_site_label
_atom_site_type_symbol
_atom_site_fract_x
_atom_site_fract_y
_atom_site_fract_z
H4 H 0.0560 0.9666 0.2636
Cu1 Cu 0.36629(10) 0.25588(6) 0.23183(4)
H3 H 0.9874 0.0103 0.2041
C4 C 0.6306(9) 0.2508(5) 0.3116(4)
H5 H 0.6347 0.1927 0.3107
C5 C 0.5668(12) 0.3725(6) 0.3015(6)
H6 H 0.5129 0.4186 0.2911
C6 C 0.8626(10) 0.2764(7) 0.3645(4)
H7 H 0.8758 0.2626 0.4051
H8 H 0.9186 0.3226 0.3627
C7 C 0.8926(8) 0.2019(6) 0.3327(4)
C8 C 0.9342(11) 0.1270(7) 0.3611(4)
H9 H 0.9433 0.1223 0.4006
C9 C 0.9614(11) 0.0612(7) 0.3323(4)
H10 H 0.9950 0.0130 0.3529
C10 C 0.9407(9) 0.0633(6) 0.2724(4)
C11 C 0.8926(9) 0.1364(6) 0.2439(4)
H11 H 0.8749 0.1392 0.2037
C12 C 0.8706(10) 0.2042(6) 0.2729(4)
H12 H 0.8403 0.2532 0.2525
C13 C 0.4834(14) 0.0935(6) 0.2058(5)
H13 H 0.4567 0.0662 0.2342
C14 C 0.5208(9) 0.1875(5) 0.1541(4)
H14 H 0.5258 0.2389 0.1368
C15 C 0.6369(10) 0.1006(6) 0.0988(4)
H15 H 0.7168 0.0726 0.1184
H16 H 0.6578 0.1536 0.0843
C16 C 0.5646(10) 0.0483(5) 0.0482(4)
C17 C 0.4476(12) 0.0694(7) 0.0133(4)
H17 H 0.4087 0.1170 0.0225
C19 C 0.1121(11) 0.1766(8) 0.1839(4)
H19 H 0.1120 0.1632 0.2215
C20 C 0.1696(9) 0.2239(6) 0.1160(4)
H20 H 0.2154 0.2503 0.0942
H21 H 0.0178 0.2088 0.0089
C24 C 0.1062(11) 0.0392(8) 0.0320(6)
H24 H 0.1805 0.0659 0.0539
N4 N 0.5278(7) 0.2948(4) 0.2881(3)
N5 N 0.6890(11) 0.3786(5) 0.3310(5)
N6 N 0.7281(8) 0.3004(5) 0.3368(3)
N7 N 0.4642(7) 0.1747(4) 0.1952(3)
N8 N 0.5682(8) 0.1172(4) 0.1415(3)
N9 N 0.5426(12) 0.0544(6) 0.1735(4)
N10 N 0.2067(7) 0.2181(4) 0.1731(3)
N11 N 0.0183(9) 0.1558(6) 0.1377(3)
N12 N 0.0585(8) 0.1870(5) 0.0943(3)
N25 N 0.2623(7) 0.3305(4) 0.2679(3)
C30 C 0.3830(11) 0.0244(6) 0.9650(4)
H30 H 0.3041 0.0429 0.9413
C1 C 0.8223(10) 0.8874(7) 0.2617(4)
H1 H 0.8397 0.8987 0.3013
C2 C 0.7445(15) 0.8383(8) 0.1778(4)
H2 H 0.6953 0.8070 0.1465
C3 C 0.9755(10) 0.9903(6) 0.2401(4)
C18 C 0.6170(11) 0.9756(6) 0.0350(4)
H18 H 0.6959 0.9571 0.0587
N1 N 0.7377(7) 0.8305(4) 0.2321(3)
N2 N 0.8278(13) 0.8946(7) 0.1736(4)
N3 N 0.8770(8) 0.9249(5) 0.2269(3)
C35 C 0.1123(10) 0.9579(7) 0.0161(5)
H35 H 0.1900 0.9297 0.0278
Cu3 Cu 0.63371(10) 0.75588(6) 0.26817(4)
C25 C 0.5166(14) 0.9065(6) 0.7942(5)
H25 H 0.5433 0.9338 0.7658
C26 C 0.4792(9) 0.8125(5) 0.8459(4)
H26 H 0.4742 0.7611 0.8632
C27 C 0.3631(10) 0.8994(6) 0.9012(4)
H27 H 0.2832 0.9274 0.8816
H28 H 0.3422 0.8464 0.9157
C28 C 0.4354(10) 0.9517(5) 0.9518(4)
C29 C 0.5524(12) 0.9306(7) 0.9867(4)
H29 H 0.5913 0.8830 0.9775
N13 N 0.5358(7) 0.8253(4) 0.8048(3)
N14 N 0.4318(8) 0.8828(4) 0.8585(3)
N15 N 0.4574(12) 0.9456(6) 0.8265(4)
C33 C 0.0145(10) 0.8272(6) 0.9663(4)
H34 H 0.1036 0.8130 0.9721
C34 C 0.0052(10) 0.9178(6) 0.9834(4)
Cu4 Cu 0.63371(10) 0.74412(6) 0.76817(4)
C21 C 0.9855(10) 0.1728(6) 0.0337(4)
H22 H 0.8964 0.1870 0.0279
C22 C 0.9948(10) 0.0822(6) 0.0166(4)
C23 C 0.8877(10) 0.0421(7) 0.9839(5)
H23 H 0.8100 0.0703 0.9722
C37 C 0.1777(10) 0.1126(7) 0.7383(4)
H37 H 0.1603 0.1013 0.6987
C38 C 0.2555(15) 0.1617(8) 0.8222(4)
H38 H 0.3047 0.1930 0.8535
C39 C 0.0245(10) 0.0097(6) 0.7599(4)
N19 N 0.2623(7) 0.1695(4) 0.7679(3)
N20 N 0.1722(13) 0.1054(7) 0.8264(4)
N21 N 0.1230(8) 0.0751(5) 0.7731(3)
Cu5 Cu 0.36629(10) 0.24412(6) 0.73183(4)
C31 C 0.8879(11) 0.8234(8) 0.8161(4)
H31 H 0.8880 0.8368 0.7785
C32 C 0.8304(9) 0.7761(6) 0.8840(4)
H32 H 0.7846 0.7497 0.9058
H33 H 0.9822 0.7912 0.9911
C36 C 0.8938(11) 0.9608(8) 0.9680(6)
H36 H 0.8195 0.9341 0.9461
N16 N 0.7933(7) 0.7819(4) 0.8269(3)
N17 N 0.9817(9) 0.8442(6) 0.8623(3)
N18 N 0.9415(8) 0.8130(5) 0.9057(3)
H39 H 0.0126 0.9897 0.7959
C40 C 0.3694(9) 0.7492(5) 0.6884(4)
H41 H 0.3653 0.8073 0.6893
C41 C 0.4332(12) 0.6275(6) 0.6985(6)
H42 H 0.4871 0.5814 0.7089
C42 C 0.1374(10) 0.7236(7) 0.6355(4)
H43 H 0.1242 0.7374 0.5949
H44 H 0.0814 0.6774 0.6373
C43 C 0.1074(8) 0.7981(6) 0.6673(4)
C44 C 0.0658(11) 0.8730(7) 0.6389(4)
H45 H 0.0567 0.8777 0.5994
C45 C 0.0386(11) 0.9388(7) 0.6677(4)
H46 H 0.0050 0.9870 0.6471
C46 C 0.0593(9) 0.9367(6) 0.7276(4)
C47 C 0.1074(9) 0.8636(6) 0.7561(4)
H47 H 0.1251 0.8608 0.7963
C48 C 0.1294(10) 0.7958(6) 0.7271(4)
H48 H 0.1597 0.7468 0.7475
N22 N 0.4722(7) 0.7052(4) 0.7119(3)
N23 N 0.3110(11) 0.6214(5) 0.6690(5)
N24 N 0.2719(8) 0.6996(5) 0.6632(3)
N26 N 0.7377(7) 0.6695(4) 0.7321(3)
C21_2 C 0.0145(10) 0.6728(6) 0.4663(4)
H22_2 H 0.1036 0.6870 0.4721
C22_2 C 0.0052(10) 0.5822(6) 0.4834(4)
C23_2 C 0.1123(10) 0.5421(7) 0.5161(5)
H23_2 H 0.1900 0.5703 0.5278
C31_2 C 0.1121(11) 0.3234(8) 0.6839(4)
H31_2 H 0.1120 0.3368 0.7215
C32_2 C 0.1696(9) 0.2761(6) 0.6160(4)
H32_2 H 0.2154 0.2497 0.5942
H33_2 H 0.0178 0.2912 0.5089
C36_2 C 0.1062(11) 0.4608(8) 0.5320(6)
H36_2 H 0.1805 0.4341 0.5539
N16_2 N 0.2067(7) 0.2819(4) 0.6731(3)
N17_2 N 0.0183(9) 0.3442(6) 0.6377(3)
N18_2 N 0.0585(8) 0.3130(5) 0.5943(3)
C37_2 C 0.8223(10) 0.6126(7) 0.7617(4)
H37_2 H 0.8397 0.6013 0.8013
C38_2 C 0.7445(15) 0.6617(8) 0.6778(4)
H38_2 H 0.6953 0.6930 0.6465
C39_2 C 0.9755(10) 0.5097(6) 0.7401(4)
H39_2 H 0.9874 0.4897 0.7041
C40_2 C 0.6306(9) 0.2492(5) 0.8116(4)
H41_2 H 0.6347 0.3073 0.8107
C41_2 C 0.5668(12) 0.1275(6) 0.8015(6)
H42_2 H 0.5129 0.0814 0.7911
C42_2 C 0.8626(10) 0.2236(7) 0.8645(4)
H43_2 H 0.8758 0.2374 0.9051
H44_2 H 0.9186 0.1774 0.8627
C43_2 C 0.8926(8) 0.2981(6) 0.8327(4)
C44_2 C 0.9342(11) 0.3730(7) 0.8611(4)
H45_2 H 0.9433 0.3777 0.9006
C45_2 C 0.9614(11) 0.4388(7) 0.8323(4)
H46_2 H 0.9950 0.4870 0.8529
C46_2 C 0.9407(9) 0.4367(6) 0.7724(4)
C47_2 C 0.8926(9) 0.3636(6) 0.7439(4)
H47_2 H 0.8749 0.3608 0.7037
C48_2 C 0.8706(10) 0.2958(6) 0.7729(4)
H48_2 H 0.8403 0.2468 0.7525
N20_2 N 0.8278(13) 0.6054(7) 0.6736(4)
N21_2 N 0.8770(8) 0.5751(5) 0.7269(3)
N22_2 N 0.5278(7) 0.2052(4) 0.7881(3)
N23_2 N 0.6890(11) 0.1214(5) 0.8310(5)
N24_2 N 0.7281(8) 0.1996(5) 0.8368(3)
N27 N 0.4642(7) 0.3253(4) 0.6952(3)
C1_2 C 0.1777(10) 0.3874(7) 0.2383(4)
H1_2 H 0.1603 0.3987 0.1987
C2_2 C 0.2555(15) 0.3383(8) 0.3222(4)
H2_2 H 0.3047 0.3070 0.3535
C3_2 C 0.0245(10) 0.4903(6) 0.2599(4)
H3_2 H 0.0126 0.5103 0.2959
C4_2 C 0.3694(9) 0.7508(5) 0.1884(4)
H5_2 H 0.3653 0.6927 0.1893
C5_2 C 0.4332(12) 0.8725(6) 0.1985(6)
H6_2 H 0.4871 0.9186 0.2089
C6_2 C 0.1374(10) 0.7764(7) 0.1355(4)
H7_2 H 0.1242 0.7626 0.0949
H8_2 H 0.0814 0.8226 0.1373
C7_2 C 0.1074(8) 0.7019(6) 0.1673(4)
C8_2 C 0.0658(11) 0.6270(7) 0.1389(4)
H9_2 H 0.0567 0.6223 0.0994
C9_2 C 0.0386(11) 0.5612(7) 0.1677(4)
H10_2 H 0.0050 0.5130 0.1471
C10_2 C 0.0593(9) 0.5633(6) 0.2276(4)
C11_2 C 0.1074(9) 0.6364(6) 0.2561(4)
H11_2 H 0.1251 0.6392 0.2963
C12_2 C 0.1294(10) 0.7042(6) 0.2271(4)
H12_2 H 0.1597 0.7532 0.2475
C13_2 C 0.5166(14) 0.5935(6) 0.2942(5)
H13_2 H 0.5433 0.5662 0.2658
C14_2 C 0.4792(9) 0.6875(5) 0.3459(4)
H14_2 H 0.4742 0.7389 0.3632
C15_2 C 0.3631(10) 0.6006(6) 0.4012(4)
H15_2 H 0.2832 0.5726 0.3816
H16_2 H 0.3422 0.6536 0.4157
C16_2 C 0.4354(10) 0.5483(5) 0.4518(4)
C17_2 C 0.5524(12) 0.5694(7) 0.4867(4)
H17_2 H 0.5913 0.6170 0.4775
C18_2 C 0.3830(11) 0.4756(6) 0.4650(4)
H18_2 H 0.3041 0.4571 0.4413
C19_2 C 0.8879(11) 0.6766(8) 0.3161(4)
H19_2 H 0.8880 0.6632 0.2785
C20_2 C 0.8304(9) 0.7239(6) 0.3840(4)
H20_2 H 0.7846 0.7503 0.4058
H21_2 H 0.9822 0.7088 0.4911
C24_2 C 0.8938(11) 0.5392(8) 0.4680(6)
H24_2 H 0.8195 0.5659 0.4461
N2_2 N 0.1722(13) 0.3946(7) 0.3264(4)
N3_2 N 0.1230(8) 0.4249(5) 0.2731(3)
N4_2 N 0.4722(7) 0.7948(4) 0.2119(3)
N5_2 N 0.3110(11) 0.8786(5) 0.1690(5)
N6_2 N 0.2719(8) 0.8004(5) 0.1632(3)
N7_2 N 0.5358(7) 0.6747(4) 0.3048(3)
N8_2 N 0.4318(8) 0.6172(4) 0.3585(3)
N9_2 N 0.4574(12) 0.5544(6) 0.3265(4)
N10_2 N 0.7933(7) 0.7181(4) 0.3269(3)
N11_2 N 0.9817(9) 0.6558(6) 0.3623(3)
N12_2 N 0.9415(8) 0.6870(5) 0.4057(3)
C25_2 C 0.4834(14) 0.4065(6) 0.7058(5)
H25_2 H 0.4567 0.4338 0.7342
C26_2 C 0.5208(9) 0.3125(5) 0.6541(4)
H26_2 H 0.5258 0.2611 0.6368
C27_2 C 0.6369(10) 0.3994(6) 0.5988(4)
H27_2 H 0.7168 0.4274 0.6184
H28_2 H 0.6578 0.3464 0.5843
C28_2 C 0.5646(10) 0.4517(5) 0.5482(4)
C29_2 C 0.4476(12) 0.4306(7) 0.5133(4)
H29_2 H 0.4087 0.3830 0.5225
C30_2 C 0.6170(11) 0.5244(6) 0.5350(4)
H30_2 H 0.6959 0.5429 0.5587
N14_2 N 0.5682(8) 0.3828(4) 0.6415(3)
N15_2 N 0.5426(12) 0.4456(6) 0.6735(4)
C33_2 C 0.9855(10) 0.3272(6) 0.5337(4)
H34_2 H 0.8964 0.3130 0.5279
C34_2 C 0.9948(10) 0.4178(6) 0.5166(4)
C35_2 C 0.8877(10) 0.4579(7) 0.4839(5)
H35_2 H 0.8100 0.4297 0.4722
H40 H 0.9440 0.0334 0.7364
H40_2 H 0.0560 0.5334 0.7636
H4_2 H 0.9440 0.4666 0.2364
loop_
_geom_bond_atom_site_label_1
_geom_bond_atom_site_label_2
_geom_bond_site_symmetry_1
_geom_bond_site_symmetry_2
Cu1 N4 1_555 1_555
C4 H5 1_555 1_555
C5 H6 1_555 1_555
C6 H7 1_555 1_555
H8 C6 1_555 1_555
C7 C6 1_555 1_555
C8 C7 1_555 1_555
H9 C8 1_555 1_555
C9 C8 1_555 1_555
H10 C9 1_555 1_555
C11 C10 1_555 1_555
H11 C11 1_555 1_555
C12 C7 1_555 1_555
H12 C12 1_555 1_555
C13 H13 1_555 1_555
C14 H14 1_555 1_555
C15 H15 1_555 1_555
H16 C15 1_555 1_555
C16 C15 1_555 1_555
C17 C16 1_555 1_555
H17 C17 1_555 1_555
C19 H19 1_555 1_555
C20 H20 1_555 1_555
H24 C24 1_555 1_555
N4 C4 1_555 1_555
N5 C5 1_555 1_555
N6 C4 1_555 1_555
N7 Cu1 1_555 1_555
N8 C14 1_555 1_555
N9 C13 1_555 1_555
N10 Cu1 1_555 1_555
N11 C19 1_555 1_555
N12 C20 1_555 1_555
N25 Cu1 1_555 1_555
C5 N4 1_555 1_555
C6 N6 1_555 1_555
C9 C10 1_555 1_555
C11 C12 1_555 1_555
C13 N7 1_555 1_555
C14 N7 1_555 1_555
C15 N8 1_555 1_555
C19 N10 1_555 1_555
C20 N10 1_555 1_555
N5 N6 1_555 1_555
N8 N9 1_555 1_555
N11 N12 1_555 1_555
H30 C30 1_555 1_555
C1 H1 1_555 1_555
C2 H2 1_555 1_555
H18 C18 1_555 1_555
N1 C1 1_555 1_555
N2 C2 1_555 1_555
N3 C1 1_555 1_555
H35 C35 1_555 1_555
Cu3 N1 1_555 1_555
C2 N1 1_555 1_555
C3 N3 1_555 1_555
N2 N3 1_555 1_555
C25 H25 1_555 1_555
C26 H26 1_555 1_555
C27 H27 1_555 1_555
H28 C27 1_555 1_555
C28 C27 1_555 1_555
H29 C29 1_555 1_555
N13 C25 1_555 1_555
N14 C26 1_555 1_555
N15 C25 1_555 1_555
H34 C33 1_555 1_555
C34 C33 1_555 1_555
Cu4 N13 1_555 1_555
C26 N13 1_555 1_555
C27 N14 1_555 1_555
C28 C29 1_555 1_555
N14 N15 1_555 1_555
H22 C21 1_555 1_555
C22 C21 1_555 1_555
H23 C23 1_555 1_555
C37 H37 1_555 1_555
C38 H38 1_555 1_555
N19 C37 1_555 1_555
N20 C38 1_555 1_555
N21 C37 1_555 1_555
Cu5 N19 1_555 1_555
C38 N19 1_555 1_555
C39 N21 1_555 1_555
N20 N21 1_555 1_555
C31 H31 1_555 1_555
C32 H32 1_555 1_555
H36 C36 1_555 1_555
N16 C31 1_555 1_555
N17 C31 1_555 1_555
N18 C32 1_555 1_555
Cu4 N16 1_555 1_555
C40 H41 1_555 1_555
C41 H42 1_555 1_555
C42 H43 1_555 1_555
H44 C42 1_555 1_555
C43 C42 1_555 1_555
C44 C43 1_555 1_555
H45 C44 1_555 1_555
C45 C44 1_555 1_555
H46 C45 1_555 1_555
C47 C46 1_555 1_555
H47 C47 1_555 1_555
C48 C43 1_555 1_555
H48 C48 1_555 1_555
N22 Cu4 1_555 1_555
N23 C41 1_555 1_555
N24 C40 1_555 1_555
N26 Cu4 1_555 1_555
C32 N16 1_555 1_555
N17 N18 1_555 1_555
C40 N22 1_555 1_555
C41 N22 1_555 1_555
C42 N24 1_555 1_555
C45 C46 1_555 1_555
C47 C48 1_555 1_555
N23 N24 1_555 1_555
H22_2 C21_2 1_555 1_555
C22_2 C21_2 1_555 1_555
C23_2 C22_2 1_555 1_555
H23_2 C23_2 1_555 1_555
C31_2 H31_2 1_555 1_555
C32_2 H32_2 1_555 1_555
C36_2 C23_2 1_555 1_555
H36_2 C36_2 1_555 1_555
N16_2 C31_2 1_555 1_555
N17_2 C31_2 1_555 1_555
N18_2 C32_2 1_555 1_555
Cu5 N16_2 1_555 1_555
C37_2 H37_2 1_555 1_555
C38_2 H38_2 1_555 1_555
C39_2 H39_2 1_555 1_555
C40_2 H41_2 1_555 1_555
C41_2 H42_2 1_555 1_555
C42_2 H43_2 1_555 1_555
H44_2 C42_2 1_555 1_555
C43_2 C42_2 1_555 1_555
C44_2 C43_2 1_555 1_555
H45_2 C44_2 1_555 1_555
C45_2 C44_2 1_555 1_555
H46_2 C45_2 1_555 1_555
C46_2 C39_2 1_555 1_555
C47_2 C46_2 1_555 1_555
H47_2 C47_2 1_555 1_555
C48_2 C43_2 1_555 1_555
H48_2 C48_2 1_555 1_555
N26 C37_2 1_555 1_555
N20_2 C38_2 1_555 1_555
N21_2 C37_2 1_555 1_555
N22_2 Cu5 1_555 1_555
N23_2 C41_2 1_555 1_555
N24_2 C40_2 1_555 1_555
N27 Cu5 1_555 1_555
C32_2 N16_2 1_555 1_555
N17_2 N18_2 1_555 1_555
C38_2 N26 1_555 1_555
C39_2 N21_2 1_555 1_555
C40_2 N22_2 1_555 1_555
C41_2 N22_2 1_555 1_555
C42_2 N24_2 1_555 1_555
C45_2 C46_2 1_555 1_555
C47_2 C48_2 1_555 1_555
N20_2 N21_2 1_555 1_555
N23_2 N24_2 1_555 1_555
Cu3 N4_2 1_555 1_555
C1_2 H1_2 1_555 1_555
C2_2 H2_2 1_555 1_555
C3_2 H3_2 1_555 1_555
C4_2 H5_2 1_555 1_555
C5_2 H6_2 1_555 1_555
C6_2 H7_2 1_555 1_555
H8_2 C6_2 1_555 1_555
C7_2 C6_2 1_555 1_555
C8_2 C7_2 1_555 1_555
H9_2 C8_2 1_555 1_555
C9_2 C8_2 1_555 1_555
H10_2 C9_2 1_555 1_555
C10_2 C3_2 1_555 1_555
C11_2 C10_2 1_555 1_555
H11_2 C11_2 1_555 1_555
C12_2 C7_2 1_555 1_555
H12_2 C12_2 1_555 1_555
C13_2 H13_2 1_555 1_555
C14_2 H14_2 1_555 1_555
C15_2 H15_2 1_555 1_555
H16_2 C15_2 1_555 1_555
C16_2 C15_2 1_555 1_555
C17_2 C16_2 1_555 1_555
H17_2 C17_2 1_555 1_555
C18_2 C16_2 1_555 1_555
H18_2 C18_2 1_555 1_555
C19_2 H19_2 1_555 1_555
C20_2 H20_2 1_555 1_555
H24_2 C24_2 1_555 1_555
N25 C1_2 1_555 1_555
N2_2 C2_2 1_555 1_555
N3_2 C1_2 1_555 1_555
N4_2 C4_2 1_555 1_555
N5_2 C5_2 1_555 1_555
N6_2 C4_2 1_555 1_555
N7_2 Cu3 1_555 1_555
N8_2 C14_2 1_555 1_555
N9_2 C13_2 1_555 1_555
N10_2 Cu3 1_555 1_555
N11_2 C19_2 1_555 1_555
N12_2 C20_2 1_555 1_555
C25_2 H25_2 1_555 1_555
C26_2 H26_2 1_555 1_555
C27_2 H27_2 1_555 1_555
H28_2 C27_2 1_555 1_555
C28_2 C27_2 1_555 1_555
C29_2 C18_2 1_555 1_555
H29_2 C29_2 1_555 1_555
C30_2 C17_2 1_555 1_555
H30_2 C30_2 1_555 1_555
N27 C25_2 1_555 1_555
N14_2 C26_2 1_555 1_555
N15_2 C25_2 1_555 1_555
H34_2 C33_2 1_555 1_555
C34_2 C33_2 1_555 1_555
C35_2 C24_2 1_555 1_555
H35_2 C35_2 1_555 1_555
C2_2 N25 1_555 1_555
C3_2 N3_2 1_555 1_555
C5_2 N4_2 1_555 1_555
C6_2 N6_2 1_555 1_555
C9_2 C10_2 1_555 1_555
C11_2 C12_2 1_555 1_555
C13_2 N7_2 1_555 1_555
C14_2 N7_2 1_555 1_555
C15_2 N8_2 1_555 1_555
C19_2 N10_2 1_555 1_555
C20_2 N10_2 1_555 1_555
N2_2 N3_2 1_555 1_555
N5_2 N6_2 1_555 1_555
N8_2 N9_2 1_555 1_555
N11_2 N12_2 1_555 1_555
C26_2 N27 1_555 1_555
C27_2 N14_2 1_555 1_555
C28_2 C29_2 1_555 1_555
C28_2 C30_2 1_555 1_555
N14_2 N15_2 1_555 1_555
C34_2 C35_2 1_555 1_555

#END
