
###############################################################################
#
# This file contains modified crystal structure data generated from the
# MOF subset of the Cambridge Structural Database (CSD) v543 
# hosted by the Cambridge Crystallographic Data Centre (CCDC).
#
# This work is licensed under the Creative Commons
# Attribution-NonCommercial-ShareAlike 4.0 International License.
# To view a copy of this license, visit
# http://creativecommons.org/licenses/by-nc-sa/4.0/
# or send a letter to
# Creative Commons, PO Box 1866, Mountain View, CA 94042, USA.
#
# CIF created using the CSD Python API on 29 September 2022
# The structure has been converted into the P1 space group
# The structure has a 3D framework
# The original CSD entry XOHJUA is in the monoclinic crystal system
# The framework has been calculated to contain at least 10.0% void space
# The void calculation uses a probe of radius 1.32A, grid spacing 0.4
#
###############################################################################

data_XOHJUA
_chemical_formula_moiety         '(C56 H32 Cu4 La4 N8 O29)n'
_symmetry_cell_setting           triclinic
_symmetry_space_group_name_H-M   'P 1'
_symmetry_Int_Tables_number      1
_space_group_name_Hall           'P 1'
loop_
_symmetry_equiv_pos_site_id
_symmetry_equiv_pos_as_xyz
1 x,y,z
_cell_length_a                   9.5454(3)
_cell_length_b                   21.5679(8)
_cell_length_c                   9.1550(3)
_cell_angle_alpha                90
_cell_angle_beta                 116.278(2)
_cell_angle_gamma                90
_cell_volume                     1690
loop_
_atom_site_label
_atom_site_type_symbol
_atom_site_fract_x
_atom_site_fract_y
_atom_site_fract_z
Cu3 Cu 0.30919(14) 0.14575(6) 0.45125(18)
La4 La 0.35765(5) 0.00938(2) 0.12122(5)
C17 C 0.0169(11) 0.0846(5) 0.3826(12)
H9 H 0.0214 0.0718 0.2878
C18 C 0.1229(12) 0.1377(5) 0.6240(12)
H10 H 0.1999 0.1636 0.6975
C19 C 0.0033(13) 0.1203(6) 0.6596(13)
H11 H 0.0025 0.1325 0.7567
N3 N 0.1361(9) 0.1200(4) 0.4906(10)
O13 O 0.1159(7) 0.0662(3) 0.0498(8)
C7 C 0.0071(9) 0.9658(5) 0.0109(10)
O4 O 0.1435(7) 0.9435(3) 0.0884(8)
C15 C 0.7601(10) 0.0304(5) 0.2764(11)
C16 C 0.8906(10) 0.0670(4) 0.4066(11)
C20 C 0.8854(11) 0.0849(5) 0.5499(11)
H12 H 0.8025 0.0729 0.5707
O9 O 0.6327(7) 0.0311(3) 0.2861(7)
O11 O 0.7848(8) 0.0039(3) 0.1682(8)
C21 C 0.9929(9) 0.0342(5) 0.9891(10)
O15 O 0.8565(7) 0.0565(3) 0.9116(8)
O20 O 0.5394(7) 0.0606(3) 0.6386(7)
O24 O 0.5312(8) 0.0742(3) 0.9514(8)
Cu4 Cu 0.69081(14) 0.64575(6) 0.04875(18)
C23 C 0.4328(12) 0.6965(5) 0.0990(14)
H13 H 0.4121 0.6557 0.1159
C24 C 0.3393(14) 0.7426(6) 0.1131(15)
H14 H 0.2581 0.7329 0.1392
C25 C 0.3685(12) 0.8032(5) 0.0880(14)
H15 H 0.3090 0.8353 0.0995
C26 C 0.4876(10) 0.8156(4) 0.0456(11)
C27 C 0.5249(10) 0.8801(5) 0.0098(10)
C28 C 0.5750(11) 0.7670(4) 0.0328(12)
H16 H 0.6539 0.7757 0.0023
N5 N 0.5520(10) 0.7073(4) 0.0622(11)
O23 O 0.4688(8) 0.9258(3) 0.0486(8)
La1 La 0.64235(5) 0.99062(2) 0.87878(5)
C1 C 0.2399(10) 0.9696(5) 0.7236(11)
C2 C 0.1094(10) 0.9330(4) 0.5934(11)
C6 C 0.1146(11) 0.9151(5) 0.4501(11)
H4 H 0.1975 0.9271 0.4293
O1 O 0.3673(7) 0.9689(3) 0.7139(7)
O2 O 0.2152(8) 0.9961(3) 0.8318(8)
O3 O 0.8841(7) 0.9338(3) 0.9502(8)
O18 O 0.6190(7) 0.9419(3) 0.6273(7)
O21 O 0.6141(8) 0.8849(3) 0.9422(9)
C22 C 0.4772(10) 0.0339(5) 0.5034(10)
N6 N 0.4480(10) 0.2073(4) 0.4378(11)
O17 O 0.3810(7) 0.0581(3) 0.3727(7)
O22 O 0.3859(8) 0.1151(3) 0.0578(9)
Cu1 Cu 0.69081(14) 0.85425(6) 0.54875(18)
C3 C 0.9831(11) 0.9154(5) 0.6174(12)
H1 H 0.9786 0.9282 0.7122
C4 C 0.8771(12) 0.8623(5) 0.3760(12)
H2 H 0.8001 0.8364 0.3025
C5 C 0.9967(13) 0.8797(6) 0.3404(13)
H3 H 0.9975 0.8675 0.2433
C8 C 0.5228(10) 0.9661(5) 0.4966(10)
C9 C 0.4328(12) 0.8035(5) 0.5990(14)
H5 H 0.4121 0.8443 0.6159
C10 C 0.3393(14) 0.7574(6) 0.6131(15)
H6 H 0.2581 0.7671 0.6392
C11 C 0.3685(12) 0.6968(5) 0.5880(14)
H7 H 0.3090 0.6647 0.5995
C12 C 0.4876(10) 0.6844(4) 0.5456(11)
C13 C 0.5249(10) 0.6199(5) 0.5098(10)
C14 C 0.5750(11) 0.7330(4) 0.5328(12)
H8 H 0.6539 0.7243 0.5023
N1 N 0.8639(9) 0.8800(4) 0.5094(10)
N2 N 0.5520(10) 0.7927(4) 0.5622(11)
O6 O 0.4606(7) 0.9394(3) 0.3614(7)
O7 O 0.6141(8) 0.6151(3) 0.4422(9)
O8 O 0.4688(8) 0.5742(3) 0.5486(8)
La6 La 0.64235(5) 0.50938(2) 0.37878(5)
La7 La 0.35765(5) 0.49062(2) 0.62122(5)
C4_2 C 0.1229(12) 0.3623(5) 0.1240(12)
H2_2 H 0.1999 0.3364 0.1975
C5_2 C 0.0033(13) 0.3797(6) 0.1596(13)
H3_2 H 0.0025 0.3675 0.2567
C8_2 C 0.4772(10) 0.4661(5) 0.0034(10)
O6_2 O 0.5394(7) 0.4394(3) 0.1386(7)
N4 N 0.8639(9) 0.6200(4) 0.0094(10)
O10 O 0.3673(7) 0.5311(3) 0.2139(7)
O12 O 0.7848(8) 0.4961(3) 0.6682(8)
O14 O 0.8841(7) 0.5662(3) 0.4502(8)
O16 O 0.8565(7) 0.4435(3) 0.4116(8)
O17_2 O 0.6190(7) 0.5581(3) 0.1273(7)
O25 O 0.5312(8) 0.4258(3) 0.4514(8)
Cu1_2 Cu 0.30919(14) 0.35425(6) 0.95125(18)
C3_2 C 0.0169(11) 0.4154(5) 0.8826(12)
H1_2 H 0.0214 0.4282 0.7878
C9_2 C 0.5672(12) 0.3035(5) 0.9010(14)
H5_2 H 0.5879 0.3443 0.8841
C10_2 C 0.6607(14) 0.2574(6) 0.8869(15)
H6_2 H 0.7419 0.2671 0.8608
C11_2 C 0.6315(12) 0.1968(5) 0.9120(14)
H7_2 H 0.6910 0.1647 0.9005
C12_2 C 0.5124(10) 0.1844(4) 0.9544(11)
C13_2 C 0.4751(10) 0.1199(5) 0.9902(10)
C14_2 C 0.4250(11) 0.2330(4) 0.9672(12)
H8_2 H 0.3461 0.2243 0.9977
N1_2 N 0.1361(9) 0.3800(4) 0.9906(10)
N2_2 N 0.4480(10) 0.2927(4) 0.9378(11)
O5 O 0.3810(7) 0.4419(3) 0.8727(7)
C22_2 C 0.5228(10) 0.5339(5) 0.9966(10)
O19 O 0.4606(7) 0.5606(3) 0.8614(7)
C1_2 C 0.7601(10) 0.4696(5) 0.7764(11)
C2_2 C 0.8906(10) 0.4330(4) 0.9066(11)
O1_2 O 0.6327(7) 0.4689(3) 0.7861(7)
O3_2 O 0.1159(7) 0.4338(3) 0.5498(8)
C15_2 C 0.2399(10) 0.5304(5) 0.2236(11)
C16_2 C 0.1094(10) 0.5670(4) 0.0934(11)
C21_2 C 0.0071(9) 0.5342(5) 0.5109(10)
C23_2 C 0.5672(12) 0.1965(5) 0.4010(14)
H13_2 H 0.5879 0.1557 0.3841
C24_2 C 0.6607(14) 0.2426(6) 0.3869(15)
H14_2 H 0.7419 0.2329 0.3608
C25_2 C 0.6315(12) 0.3032(5) 0.4120(14)
H15_2 H 0.6910 0.3353 0.4005
C26_2 C 0.5124(10) 0.3156(4) 0.4544(11)
C27_2 C 0.4751(10) 0.3801(5) 0.4902(10)
C28_2 C 0.4250(11) 0.2670(4) 0.4672(12)
H16_2 H 0.3461 0.2757 0.4977
O11_2 O 0.2152(8) 0.5039(3) 0.3318(8)
O15_2 O 0.1435(7) 0.5565(3) 0.5884(8)
O21_2 O 0.3859(8) 0.3849(3) 0.5578(9)
C7_2 C 0.9929(9) 0.4658(5) 0.4891(10)
C17_2 C 0.9831(11) 0.5846(5) 0.1174(12)
H9_2 H 0.9786 0.5718 0.2122
C18_2 C 0.8771(12) 0.6377(5) 0.8760(12)
H10_2 H 0.8001 0.6636 0.8025
C19_2 C 0.9967(13) 0.6203(6) 0.8404(13)
H11_2 H 0.9975 0.6325 0.7433
C6_2 C 0.8854(11) 0.4151(5) 0.0499(11)
H4_2 H 0.8025 0.4271 0.0707
C20_2 C 0.1146(11) 0.5849(5) 0.9501(11)
H12_2 H 0.1975 0.5729 0.9293
loop_
_geom_bond_atom_site_label_1
_geom_bond_atom_site_label_2
_geom_bond_site_symmetry_1
_geom_bond_site_symmetry_2
Cu3 N3 1_555 1_555
C17 H9 1_555 1_555
C18 H10 1_555 1_555
C19 C18 1_555 1_555
H11 C19 1_555 1_555
N3 C17 1_555 1_555
O13 La4 1_555 1_555
C18 N3 1_555 1_555
O4 C7 1_555 1_555
C15 C16 1_555 1_555
C20 C16 1_555 1_555
H12 C20 1_555 1_555
O9 La4 1_555 1_555
C15 O9 1_555 1_555
C15 O11 1_555 1_555
C21 O15 1_555 1_555
Cu4 N5 1_555 1_555
C23 H13 1_555 1_555
C24 C23 1_555 1_555
H14 C24 1_555 1_555
C25 C24 1_555 1_555
H15 C25 1_555 1_555
C26 C25 1_555 1_555
C27 C26 1_555 1_555
C28 C26 1_555 1_555
H16 C28 1_555 1_555
N5 C23 1_555 1_555
C27 O23 1_555 1_555
C28 N5 1_555 1_555
La1 O1 1_555 1_555
C1 C2 1_555 1_555
C6 C2 1_555 1_555
H4 C6 1_555 1_555
O1 C1 1_555 1_555
O2 C1 1_555 1_555
O3 La1 1_555 1_555
O18 La1 1_555 1_555
O21 La1 1_555 1_555
N6 Cu3 1_555 1_555
O17 Cu3 1_555 1_555
O22 La4 1_555 1_555
La4 O17 1_555 1_555
C22 O17 1_555 1_555
C22 O20 1_555 1_555
Cu1 N1 1_555 1_555
C3 H1 1_555 1_555
C4 H2 1_555 1_555
C5 C4 1_555 1_555
H3 C5 1_555 1_555
C8 O18 1_555 1_555
C9 H5 1_555 1_555
C10 C9 1_555 1_555
H6 C10 1_555 1_555
C11 C10 1_555 1_555
H7 C11 1_555 1_555
C12 C11 1_555 1_555
C13 C12 1_555 1_555
C14 C12 1_555 1_555
H8 C14 1_555 1_555
N1 C3 1_555 1_555
N2 Cu1 1_555 1_555
O18 Cu1 1_555 1_555
O6 C8 1_555 1_555
O7 C13 1_555 1_555
O8 C13 1_555 1_555
La6 O7 1_555 1_555
La7 O8 1_555 1_555
C4 N1 1_555 1_555
C9 N2 1_555 1_555
C14 N2 1_555 1_555
C4_2 H2_2 1_555 1_555
C5_2 C4_2 1_555 1_555
H3_2 C5_2 1_555 1_555
O6_2 C8_2 1_555 1_555
Cu4 N4 1_555 1_555
La6 O6_2 1_555 1_555
O10 La6 1_555 1_555
O12 La6 1_555 1_555
O14 La6 1_555 1_555
O16 La6 1_555 1_555
O17_2 Cu4 1_555 1_555
O25 La6 1_555 1_555
La6 O17_2 1_555 1_555
Cu1_2 N1_2 1_555 1_555
C3_2 H1_2 1_555 1_555
C9_2 H5_2 1_555 1_555
C10_2 C9_2 1_555 1_555
H6_2 C10_2 1_555 1_555
C11_2 C10_2 1_555 1_555
H7_2 C11_2 1_555 1_555
C12_2 C11_2 1_555 1_555
C13_2 C12_2 1_555 1_555
C14_2 C12_2 1_555 1_555
H8_2 C14_2 1_555 1_555
N1_2 C3_2 1_555 1_555
N2_2 Cu1_2 1_555 1_555
O5 Cu1_2 1_555 1_555
O24 C13_2 1_555 1_555
La7 O5 1_555 1_555
O19 La7 1_555 1_555
C9_2 N2_2 1_555 1_555
C14_2 N2_2 1_555 1_555
C22_2 O19 1_555 1_555
La7 O1_2 1_555 1_555
C1_2 C2_2 1_555 1_555
O1_2 C1_2 1_555 1_555
O12 C1_2 1_555 1_555
O3_2 La7 1_555 1_555
C15_2 C16_2 1_555 1_555
C23_2 H13_2 1_555 1_555
C24_2 C23_2 1_555 1_555
H14_2 C24_2 1_555 1_555
C25_2 C24_2 1_555 1_555
H15_2 C25_2 1_555 1_555
C26_2 C25_2 1_555 1_555
C27_2 C26_2 1_555 1_555
C28_2 C26_2 1_555 1_555
H16_2 C28_2 1_555 1_555
N6 C23_2 1_555 1_555
O11_2 La7 1_555 1_555
O15_2 La7 1_555 1_555
O21_2 La7 1_555 1_555
C15_2 O10 1_555 1_555
C15_2 O11_2 1_555 1_555
C21_2 O15_2 1_555 1_555
C27_2 O21_2 1_555 1_555
C27_2 O25 1_555 1_555
C28_2 N6 1_555 1_555
O16 C7_2 1_555 1_555
C17_2 H9_2 1_555 1_555
N4 C17_2 1_555 1_555
C18_2 H10_2 1_555 1_555
C19_2 C18_2 1_555 1_555
H11_2 C19_2 1_555 1_555
H4_2 C6_2 1_555 1_555
H12_2 C20_2 1_555 1_555

#END
