
###############################################################################
#
# This file contains modified crystal structure data generated from the
# MOF subset of the Cambridge Structural Database (CSD) v543 
# hosted by the Cambridge Crystallographic Data Centre (CCDC).
#
# This work is licensed under the Creative Commons
# Attribution-NonCommercial-ShareAlike 4.0 International License.
# To view a copy of this license, visit
# http://creativecommons.org/licenses/by-nc-sa/4.0/
# or send a letter to
# Creative Commons, PO Box 1866, Mountain View, CA 94042, USA.
#
# CIF created using the CSD Python API on 29 September 2022
# The structure has been converted into the P1 space group
# The structure has a 3D framework
# The original CSD entry XOHLEM is in the orthorhombic crystal system
# The original CSD entry XOHLEM is in a Sohncke space group
# The framework has been calculated to contain at least 10.0% void space
# The void calculation uses a probe of radius 1.32A, grid spacing 0.4
# H atom positions have been added when not included in the experimental data
#
###############################################################################

data_XOHLEM
_chemical_formula_moiety         '(C72 H40 O56 Zn16)n'
_symmetry_cell_setting           triclinic
_symmetry_space_group_name_H-M   'P 1'
_symmetry_Int_Tables_number      1
_space_group_name_Hall           'P 1'
loop_
_symmetry_equiv_pos_site_id
_symmetry_equiv_pos_as_xyz
1 x,y,z
_cell_length_a                   12.971(3)
_cell_length_b                   16.715(3)
_cell_length_c                   15.828(3)
_cell_angle_alpha                90
_cell_angle_beta                 90
_cell_angle_gamma                90
_cell_volume                     3431.67
loop_
_atom_site_label
_atom_site_type_symbol
_atom_site_fract_x
_atom_site_fract_y
_atom_site_fract_z
O5 O 0.0516(2) 0.00474(15) 0.39258(19)
Zn5 Zn 0.18319(4) 0.05433(2) 0.42379(3)
O23 O 0.04007(13) 0.42569(10) 0.40956(11)
H9 H 0.049765 0.459912 0.358898
H10 H 0.0782593 0.449091 0.457993
C9 C 0.0375(3) 0.9335(3) 0.4228(4)
O6 O 0.09364(17) 0.89523(14) 0.4709(2)
Zn6 Zn 0.18319(4) 0.94567(2) 0.57621(3)
Zn1 Zn 0.81681(4) 0.05433(2) 0.07621(3)
O7 O 0.7168(3) 0.0000 0.0000
Zn3 Zn 0.68319(4) 0.55433(2) 0.42379(3)
Zn8 Zn 0.31681(4) 0.55433(2) 0.07621(3)
Zn10 Zn 0.86039(4) 0.41832(3) 0.44336(3)
C10 C 0.7023(3) 0.3868(2) 0.2197(3)
C11 C 0.7365(3) 0.3142(2) 0.1898(3)
H4 H 0.7931 0.2874 0.2120
C12 C 0.6709(3) 0.2816(2) 0.1152(3)
C13 C 0.5821(4) 0.3146(3) 0.0892(3)
H5 H 0.5419 0.2880 0.0494
C14 C 0.5471(3) 0.3928(2) 0.1229(3)
C15 C 0.6051(3) 0.4206(2) 0.1884(3)
H6 H 0.5804 0.4658 0.2163
C16 C 0.7517(3) 0.4227(2) 0.2915(2)
C17 C 0.7057(3) 0.1957(2) 0.0833(3)
C18 C 0.4625(3) 0.4335(3) 0.0772(4)
O9 O 0.7485(2) 0.49759(15) 0.3046(2)
O10 O 0.8034(2) 0.37211(18) 0.34233(18)
O11 O 0.7770(2) 0.15993(15) 0.1177(2)
O12 O 0.7230(2) 0.65993(15) 0.3823(2)
O13 O 0.6520(2) 0.17713(17) 0.0186(2)
O15 O 0.8480(2) 0.32287(17) 0.5186(2)
O16 O 0.4484(2) 0.50474(15) 0.10742(19)
O17 O 0.9484(2) 0.00474(15) 0.10742(19)
O18 O 0.5516(2) 0.50474(15) 0.39258(19)
O19 O 0.40636(17) 0.39523(14) 0.0291(2)
O21 O 0.59364(17) 0.60477(14) 0.5291(2)
O22 O 0.7832(3) 0.5000 0.5000
O7_2 O 0.7168(3) 0.0000 1.0000
Zn9 Zn 0.31681(4) 0.44567(2) 0.92379(3)
Zn12 Zn 0.63961(4) 0.08168(3) 0.94336(3)
O20 O 0.90636(17) 0.10477(14) 0.9709(2)
Zn2 Zn 0.63961(4) 0.91832(3) 0.05664(3)
C1 C 0.7977(3) 0.8868(2) 0.2803(3)
C2 C 0.7635(3) 0.8142(2) 0.3102(3)
H1 H 0.7069 0.7874 0.2880
C3 C 0.8291(3) 0.7816(2) 0.3848(3)
C4 C 0.9179(4) 0.8146(3) 0.4108(3)
H2 H 0.9581 0.7880 0.4506
C5 C 0.9529(3) 0.8928(2) 0.3771(3)
C6 C 0.8949(3) 0.9206(2) 0.3116(3)
H3 H 0.9196 0.9658 0.2837
C7 C 0.7483(3) 0.9227(2) 0.2085(2)
C8 C 0.7943(3) 0.6957(2) 0.4167(3)
O1 O 0.7515(2) 0.99759(15) 0.1954(2)
O2 O 0.6966(2) 0.87211(18) 0.15767(18)
O4 O 0.8480(2) 0.67713(17) 0.4814(2)
O7_3 O 0.7168(3) 1.0000 0.0000
O8 O 0.45993(13) 0.92569(10) 0.09044(11)
Zn11 Zn 0.86039(4) 0.58168(3) 0.55664(3)
H7 H 0.450235 0.959912 0.141102
H8 H 0.421741 0.949091 0.0420069
O7_4 O 0.7168(3) 1.0000 1.0000
Zn7 Zn 0.81681(4) 0.94567(2) 0.92379(3)
O14 O 0.6520(2) 0.82287(17) 0.9814(2)
Zn11_2 Zn 0.13961(4) 0.41832(3) 0.05664(3)
Zn2_2 Zn 0.36039(4) 0.08168(3) 0.55664(3)
C1_2 C 0.2023(3) 0.1132(2) 0.7803(3)
C2_2 C 0.2365(3) 0.1858(2) 0.8102(3)
H1_2 H 0.2931 0.2126 0.7880
C3_2 C 0.1709(3) 0.2184(2) 0.8848(3)
C4_2 C 0.0821(4) 0.1854(3) 0.9108(3)
H2_2 H 0.0419 0.2120 0.9506
C5_2 C 0.0471(3) 0.1072(2) 0.8771(3)
C6_2 C 0.1051(3) 0.0794(2) 0.8116(3)
H3_2 H 0.0804 0.0342 0.7837
C7_2 C 0.2517(3) 0.0773(2) 0.7085(2)
C8_2 C 0.2057(3) 0.3043(2) 0.9167(3)
O1_2 O 0.2485(2) 0.00241(15) 0.6954(2)
O2_2 O 0.3034(2) 0.12789(18) 0.65767(18)
O3 O 0.2770(2) 0.34007(15) 0.8823(2)
O4_2 O 0.1520(2) 0.32287(17) 0.9814(2)
O7_5 O 0.2832(3) 0.0000 0.5000
O8_2 O 0.54007(13) 0.07431(10) 0.59044(11)
O14_2 O 0.3480(2) 0.17713(17) 0.4814(2)
H7_2 H 0.549765 0.0400876 0.641102
H8_2 H 0.578259 0.0509088 0.542007
O15_2 O 0.1520(2) 0.67713(17) 0.0186(2)
O22_2 O 0.2168(3) 0.5000 0.0000
O7_6 O 0.2832(3) 1.0000 0.5000
Zn8_2 Zn 0.68319(4) 0.44567(2) 0.57621(3)
Zn10_2 Zn 0.13961(4) 0.58168(3) 0.94336(3)
Zn12_2 Zn 0.36039(4) 0.91832(3) 0.44336(3)
C10_2 C 0.2977(3) 0.6132(2) 0.7197(3)
C11_2 C 0.2635(3) 0.6858(2) 0.6898(3)
H4_2 H 0.2069 0.7126 0.7120
C12_2 C 0.3291(3) 0.7184(2) 0.6152(3)
C13_2 C 0.4179(4) 0.6854(3) 0.5892(3)
H5_2 H 0.4581 0.7120 0.5494
C14_2 C 0.4529(3) 0.6072(2) 0.6229(3)
C15_2 C 0.3949(3) 0.5794(2) 0.6884(3)
H6_2 H 0.4196 0.5342 0.7163
C16_2 C 0.2483(3) 0.5773(2) 0.7915(2)
C17_2 C 0.2943(3) 0.8043(2) 0.5833(3)
C18_2 C 0.5375(3) 0.5665(3) 0.5772(4)
O9_2 O 0.2515(2) 0.50241(15) 0.8046(2)
O10_2 O 0.1966(2) 0.62789(18) 0.84233(18)
O11_2 O 0.2230(2) 0.84007(15) 0.6177(2)
O13_2 O 0.3480(2) 0.82287(17) 0.5186(2)
O16_2 O 0.5516(2) 0.49526(15) 0.60742(19)
O17_2 O 0.0516(2) 0.99526(15) 0.60742(19)
O18_2 O 0.4484(2) 0.49526(15) 0.89258(19)
O22_3 O 0.2168(3) 0.5000 1.0000
C9_2 C 0.9625(3) 0.0665(3) 0.9228(4)
O5_2 O 0.9484(2) 0.99526(15) 0.89258(19)
O23_2 O 0.95993(13) 0.57431(10) 0.90956(11)
H9_2 H 0.950235 0.540088 0.858898
H10_2 H 0.921741 0.550909 0.957993
C10_3 C 0.2977(3) 0.3868(2) 0.2803(3)
C11_3 C 0.2635(3) 0.3142(2) 0.3102(3)
H4_3 H 0.2069 0.2874 0.2880
C12_3 C 0.3291(3) 0.2816(2) 0.3848(3)
C13_3 C 0.4179(4) 0.3146(3) 0.4108(3)
H5_3 H 0.4581 0.2880 0.4506
C14_3 C 0.4529(3) 0.3928(2) 0.3771(3)
C15_3 C 0.3949(3) 0.4206(2) 0.3116(3)
H6_3 H 0.4196 0.4658 0.2837
C16_3 C 0.2483(3) 0.4227(2) 0.2085(2)
C17_3 C 0.2943(3) 0.1957(2) 0.4167(3)
C18_3 C 0.5375(3) 0.4335(3) 0.4228(4)
O9_3 O 0.2515(2) 0.49759(15) 0.1954(2)
O10_3 O 0.1966(2) 0.37211(18) 0.15767(18)
O11_3 O 0.2230(2) 0.15993(15) 0.3823(2)
O12_2 O 0.2770(2) 0.65993(15) 0.1177(2)
O19_2 O 0.59364(17) 0.39523(14) 0.4709(2)
O20_2 O 0.09364(17) 0.10477(14) 0.5291(2)
O21_2 O 0.40636(17) 0.60477(14) 0.9709(2)
C1_3 C 0.2023(3) 0.8868(2) 0.2197(3)
C2_3 C 0.2365(3) 0.8142(2) 0.1898(3)
H1_3 H 0.2931 0.7874 0.2120
C3_3 C 0.1709(3) 0.7816(2) 0.1152(3)
C4_3 C 0.0821(4) 0.8146(3) 0.0892(3)
H2_3 H 0.0419 0.7880 0.0494
C5_3 C 0.0471(3) 0.8928(2) 0.1229(3)
C6_3 C 0.1051(3) 0.9206(2) 0.1884(3)
H3_3 H 0.0804 0.9658 0.2163
C7_3 C 0.2517(3) 0.9227(2) 0.2915(2)
C8_3 C 0.2057(3) 0.6957(2) 0.0833(3)
O1_3 O 0.2485(2) 0.99759(15) 0.3046(2)
O2_3 O 0.3034(2) 0.87211(18) 0.34233(18)
O8_3 O 0.54007(13) 0.92569(10) 0.40956(11)
H7_3 H 0.549765 0.959912 0.358898
H8_3 H 0.578259 0.949091 0.457993
O23_3 O 0.95993(13) 0.42569(10) 0.09044(11)
H9_3 H 0.950235 0.459912 0.141102
H10_3 H 0.921741 0.449091 0.0420069
C9_3 C 0.9625(3) 0.9335(3) 0.0772(4)
O6_2 O 0.90636(17) 0.89523(14) 0.0291(2)
C9_4 C 0.0375(3) 0.0665(3) 0.5772(4)
O23_4 O 0.04007(13) 0.57431(10) 0.59044(11)
H9_4 H 0.049765 0.540088 0.641102
H10_4 H 0.0782593 0.550909 0.542007
C1_4 C 0.7977(3) 0.1132(2) 0.7197(3)
C2_4 C 0.7635(3) 0.1858(2) 0.6898(3)
H1_4 H 0.7069 0.2126 0.7120
C3_4 C 0.8291(3) 0.2184(2) 0.6152(3)
C4_4 C 0.9179(4) 0.1854(3) 0.5892(3)
H2_4 H 0.9581 0.2120 0.5494
C5_4 C 0.9529(3) 0.1072(2) 0.6229(3)
C6_4 C 0.8949(3) 0.0794(2) 0.6884(3)
H3_4 H 0.9196 0.0342 0.7163
C7_4 C 0.7483(3) 0.0773(2) 0.7915(2)
C8_4 C 0.7943(3) 0.3043(2) 0.5833(3)
O1_4 O 0.7515(2) 0.00241(15) 0.8046(2)
O2_4 O 0.6966(2) 0.12789(18) 0.84233(18)
O3_2 O 0.7230(2) 0.34007(15) 0.6177(2)
O8_4 O 0.45993(13) 0.07431(10) 0.90956(11)
H7_4 H 0.450235 0.0400876 0.858898
H8_4 H 0.421741 0.0509088 0.957993
C10_4 C 0.7023(3) 0.6132(2) 0.7803(3)
C11_4 C 0.7365(3) 0.6858(2) 0.8102(3)
H4_4 H 0.7931 0.7126 0.7880
C12_4 C 0.6709(3) 0.7184(2) 0.8848(3)
C13_4 C 0.5821(4) 0.6854(3) 0.9108(3)
H5_4 H 0.5419 0.7120 0.9506
C14_4 C 0.5471(3) 0.6072(2) 0.8771(3)
C15_4 C 0.6051(3) 0.5794(2) 0.8116(3)
H6_4 H 0.5804 0.5342 0.7837
C16_4 C 0.7517(3) 0.5773(2) 0.7085(2)
C17_4 C 0.7057(3) 0.8043(2) 0.9167(3)
C18_4 C 0.4625(3) 0.5665(3) 0.9228(4)
O9_4 O 0.7485(2) 0.50241(15) 0.6954(2)
O10_4 O 0.8034(2) 0.62789(18) 0.65767(18)
O11_4 O 0.7770(2) 0.84007(15) 0.8823(2)
loop_
_geom_bond_atom_site_label_1
_geom_bond_atom_site_label_2
_geom_bond_site_symmetry_1
_geom_bond_site_symmetry_2
Zn5 O5 1_555 1_555
O23 H9 1_555 1_555
O23 H10 1_555 1_555
O6 C9 1_555 1_555
Zn6 O6 1_555 1_555
O7 Zn1 1_555 1_555
Zn3 O9 1_555 1_555
Zn8 O16 1_555 1_555
Zn10 O10 1_555 1_555
C10 C11 1_555 1_555
C11 H4 1_555 1_555
C12 C11 1_555 1_555
C13 C12 1_555 1_555
H5 C13 1_555 1_555
C14 C13 1_555 1_555
C15 C10 1_555 1_555
H6 C15 1_555 1_555
C16 C10 1_555 1_555
C17 C12 1_555 1_555
C18 C14 1_555 1_555
O9 C16 1_555 1_555
O10 C16 1_555 1_555
O11 Zn1 1_555 1_555
O12 Zn3 1_555 1_555
O15 Zn10 1_555 1_555
O16 C18 1_555 1_555
O17 Zn1 1_555 1_555
O18 Zn3 1_555 1_555
O19 C18 1_555 1_555
O21 Zn3 1_555 1_555
O22 Zn3 1_555 1_555
Zn10 O22 1_555 1_555
C14 C15 1_555 1_555
C17 O11 1_555 1_555
C17 O13 1_555 1_555
Zn12 O7_2 1_555 1_555
Zn2 O2 1_555 1_555
C1 C2 1_555 1_555
C2 H1 1_555 1_555
C3 C2 1_555 1_555
C4 C3 1_555 1_555
H2 C4 1_555 1_555
C5 C4 1_555 1_555
C6 C1 1_555 1_555
H3 C6 1_555 1_555
C7 C1 1_555 1_555
C8 C3 1_555 1_555
O1 C7 1_555 1_555
O2 C7 1_555 1_555
O12 C8 1_555 1_555
O4 C8 1_555 1_555
O8 Zn2 1_555 1_555
Zn11 O4 1_555 1_555
Zn2 O7_3 1_555 1_555
C5 C6 1_555 1_555
O8 H7 1_555 1_555
O8 H8 1_555 1_555
Zn7 O7_4 1_555 1_555
Zn2_2 O2_2 1_555 1_555
C1_2 C2_2 1_555 1_555
C2_2 H1_2 1_555 1_555
C3_2 C2_2 1_555 1_555
C4_2 C3_2 1_555 1_555
H2_2 C4_2 1_555 1_555
C5_2 C4_2 1_555 1_555
C6_2 C1_2 1_555 1_555
H3_2 C6_2 1_555 1_555
C7_2 C1_2 1_555 1_555
C8_2 C3_2 1_555 1_555
O1_2 C7_2 1_555 1_555
O2_2 C7_2 1_555 1_555
O3 C8_2 1_555 1_555
O4_2 C8_2 1_555 1_555
O8_2 Zn2_2 1_555 1_555
Zn9 O3 1_555 1_555
Zn5 O7_5 1_555 1_555
O14_2 Zn2_2 1_555 1_555
Zn2_2 O7_5 1_555 1_555
C5_2 C6_2 1_555 1_555
O8_2 H7_2 1_555 1_555
O8_2 H8_2 1_555 1_555
O7_6 Zn6 1_555 1_555
Zn9 O9_2 1_555 1_555
Zn8_2 O16_2 1_555 1_555
Zn10_2 O10_2 1_555 1_555
Zn12_2 O7_6 1_555 1_555
C10_2 C11_2 1_555 1_555
C11_2 H4_2 1_555 1_555
C12_2 C11_2 1_555 1_555
C13_2 C12_2 1_555 1_555
H5_2 C13_2 1_555 1_555
C14_2 C13_2 1_555 1_555
C15_2 C10_2 1_555 1_555
H6_2 C15_2 1_555 1_555
C16_2 C10_2 1_555 1_555
C17_2 C12_2 1_555 1_555
C18_2 C14_2 1_555 1_555
O9_2 C16_2 1_555 1_555
O10_2 C16_2 1_555 1_555
O11_2 Zn6 1_555 1_555
O13_2 Zn12_2 1_555 1_555
O16_2 C18_2 1_555 1_555
O17_2 Zn6 1_555 1_555
O18_2 Zn9 1_555 1_555
O21 C18_2 1_555 1_555
O22_3 Zn9 1_555 1_555
Zn10_2 O22_3 1_555 1_555
C14_2 C15_2 1_555 1_555
C17_2 O11_2 1_555 1_555
C17_2 O13_2 1_555 1_555
O20 C9_2 1_555 1_555
Zn7 O5_2 1_555 1_555
O23_2 H9_2 1_555 1_555
O23_2 H10_2 1_555 1_555
Zn8 O9_3 1_555 1_555
Zn8_2 O19_2 1_555 1_555
Zn11_2 O10_3 1_555 1_555
C10_3 C11_3 1_555 1_555
C11_3 H4_3 1_555 1_555
C12_3 C11_3 1_555 1_555
C13_3 C12_3 1_555 1_555
H5_3 C13_3 1_555 1_555
C14_3 C13_3 1_555 1_555
C15_3 C10_3 1_555 1_555
H6_3 C15_3 1_555 1_555
C16_3 C10_3 1_555 1_555
C17_3 C12_3 1_555 1_555
C18_3 C14_3 1_555 1_555
O9_3 C16_3 1_555 1_555
O10_3 C16_3 1_555 1_555
O11_3 Zn5 1_555 1_555
O12_2 Zn8 1_555 1_555
O18 C18_3 1_555 1_555
O19_2 C18_3 1_555 1_555
O20_2 Zn5 1_555 1_555
O22_2 Zn8 1_555 1_555
Zn11_2 O22_2 1_555 1_555
C14_3 C15_3 1_555 1_555
C17_3 O11_3 1_555 1_555
C17_3 O14_2 1_555 1_555
Zn12_2 O2_3 1_555 1_555
C1_3 C2_3 1_555 1_555
C2_3 H1_3 1_555 1_555
C3_3 C2_3 1_555 1_555
C4_3 C3_3 1_555 1_555
H2_3 C4_3 1_555 1_555
C5_3 C4_3 1_555 1_555
C6_3 C1_3 1_555 1_555
H3_3 C6_3 1_555 1_555
C7_3 C1_3 1_555 1_555
C8_3 C3_3 1_555 1_555
O1_3 C7_3 1_555 1_555
O2_3 C7_3 1_555 1_555
O12_2 C8_3 1_555 1_555
O15_2 C8_3 1_555 1_555
O8_3 Zn12_2 1_555 1_555
C5_3 C6_3 1_555 1_555
O8_3 H7_3 1_555 1_555
O8_3 H8_3 1_555 1_555
O23_3 H9_3 1_555 1_555
O23_3 H10_3 1_555 1_555
O6_2 C9_3 1_555 1_555
O20_2 C9_4 1_555 1_555
O23_4 H9_4 1_555 1_555
O23_4 H10_4 1_555 1_555
Zn12 O2_4 1_555 1_555
C1_4 C2_4 1_555 1_555
C2_4 H1_4 1_555 1_555
C3_4 C2_4 1_555 1_555
C4_4 C3_4 1_555 1_555
H2_4 C4_4 1_555 1_555
C5_4 C4_4 1_555 1_555
C6_4 C1_4 1_555 1_555
H3_4 C6_4 1_555 1_555
C7_4 C1_4 1_555 1_555
C8_4 C3_4 1_555 1_555
O1_4 C7_4 1_555 1_555
O2_4 C7_4 1_555 1_555
O3_2 C8_4 1_555 1_555
O15 C8_4 1_555 1_555
O8_4 Zn12 1_555 1_555
Zn8_2 O3_2 1_555 1_555
C5_4 C6_4 1_555 1_555
O8_4 H7_4 1_555 1_555
O8_4 H8_4 1_555 1_555
Zn8_2 O9_4 1_555 1_555
Zn11 O10_4 1_555 1_555
C10_4 C11_4 1_555 1_555
C11_4 H4_4 1_555 1_555
C12_4 C11_4 1_555 1_555
C13_4 C12_4 1_555 1_555
H5_4 C13_4 1_555 1_555
C14_4 C13_4 1_555 1_555
C15_4 C10_4 1_555 1_555
H6_4 C15_4 1_555 1_555
C16_4 C10_4 1_555 1_555
C17_4 C12_4 1_555 1_555
C18_4 C14_4 1_555 1_555
O9_4 C16_4 1_555 1_555
O10_4 C16_4 1_555 1_555
O11_4 Zn7 1_555 1_555
O18_2 C18_4 1_555 1_555
O21_2 C18_4 1_555 1_555
O22 Zn8_2 1_555 1_555
Zn11 O22 1_555 1_555
C14_4 C15_4 1_555 1_555
C17_4 O11_4 1_555 1_555
C17_4 O14 1_555 1_555

#END
