
###############################################################################
#
# This file contains modified crystal structure data generated from the
# MOF subset of the Cambridge Structural Database (CSD) v543 
# hosted by the Cambridge Crystallographic Data Centre (CCDC).
#
# This work is licensed under the Creative Commons
# Attribution-NonCommercial-ShareAlike 4.0 International License.
# To view a copy of this license, visit
# http://creativecommons.org/licenses/by-nc-sa/4.0/
# or send a letter to
# Creative Commons, PO Box 1866, Mountain View, CA 94042, USA.
#
# CIF created using the CSD Python API on 29 September 2022
# The structure has been converted into the P1 space group
# The structure has a 3D framework
# The original CSD entry XOHTUJ is in the monoclinic crystal system
# The framework has been calculated to contain at least 10.0% void space
# The void calculation uses a probe of radius 1.32A, grid spacing 0.4
# The framework is charged, counterions have been retained in the structure
#
###############################################################################

data_XOHTUJ
_chemical_formula_moiety         '(C72 H64 Ag8 Cl6 F24 N29 O24 Ru4 S8 3+)n'
_symmetry_cell_setting           triclinic
_symmetry_space_group_name_H-M   'P 1'
_symmetry_Int_Tables_number      1
_space_group_name_Hall           'P 1'
loop_
_symmetry_equiv_pos_site_id
_symmetry_equiv_pos_as_xyz
1 x,y,z
_cell_length_a                   18.837(2)
_cell_length_b                   15.021(2)
_cell_length_c                   14.950(2)
_cell_angle_alpha                90.00
_cell_angle_beta                 109.520(10)
_cell_angle_gamma                90.00
_cell_volume                     3986.99
loop_
_atom_site_label
_atom_site_type_symbol
_atom_site_fract_x
_atom_site_fract_y
_atom_site_fract_z
H14 H 0.0013 0.0897 0.2589
N6 N 0.0019(7) 0.1031(8) 0.3892(9)
Ag5 Ag 0.12946(7) 0.11902(9) 0.46084(9)
Ru4 Ru 0.25262(5) 0.01067(6) 0.74710(7)
C23 C 0.1165(7) 0.9391(8) 0.5989(10)
H21 H 0.1460 0.9459 0.5604
C24 C 0.0988(7) 0.9510(9) 0.7413(10)
H22 H 0.1160 0.9661 0.8054
C25 C 0.0451(8) 0.9056(10) 0.5609(10)
H23 H 0.0284 0.8880 0.4976
C26 C 0.0278(8) 0.9182(9) 0.7022(11)
N11 N 0.1447(6) 0.9622(7) 0.6907(8)
Cl1 Cl 0.73163(18) 0.0810(2) 0.1167(2)
C3 C 0.8835(7) 0.0609(8) 0.4011(10)
H3 H 0.8540 0.0541 0.4396
C7 C 0.7295(8) 0.1743(9) 0.3182(10)
H7 H 0.7566 0.1902 0.2788
C8 C 0.9012(7) 0.0490(9) 0.2587(10)
H8 H 0.8840 0.0339 0.1946
C9 C 0.5801(7) 0.0038(9) 0.1582(10)
H9 H 0.5899 0.0646 0.1634
C10 C 0.6719(8) 0.0730(9) 0.3812(10)
H10 H 0.6582 0.0146 0.3883
H11 H 0.4720 0.0183 0.0911
C13 C 0.9549(8) 0.0944(10) 0.4391(10)
H13 H 0.9716 0.1120 0.5024
C14 C 0.9722(8) 0.0818(9) 0.2978(11)
C15 C 0.6506(9) 0.1399(11) 0.4310(11)
H15 H 0.6218 0.1253 0.4687
C16 C 0.7093(9) 0.2371(9) 0.3690(11)
H16 H 0.7242 0.2953 0.3634
N5 N 0.8553(6) 0.0378(7) 0.3093(8)
N7 N 0.7110(6) 0.0891(7) 0.3238(8)
N8 N 0.6700(7) 0.2231(8) 0.4265(9)
S1 S 0.5491(3) 0.2814(4) 0.1471(4)
O1 O 0.5500(14) 0.2167(13) 0.0784(15)
O2 O 0.5395(11) 0.2410(15) 0.2272(12)
O3 O 0.6107(12) 0.3396(14) 0.1676(19)
S2 S 0.8994(3) 0.0857(3) 0.6790(4)
O4 O 0.9013(9) 0.0409(11) 0.7627(8)
O5 O 0.9681(6) 0.1211(9) 0.6771(11)
O6 O 0.8557(8) 0.0413(9) 0.5945(8)
C17 C 0.4669(14) 0.3380(15) 0.0891(16)
F1 F 0.4718(14) 0.3791(17) 0.0142(17)
F2 F 0.4535(17) 0.3972(19) 0.1446(17)
F3 F 0.4096(11) 0.284(2) 0.061(2)
C18 C 0.8452(10) 0.1835(15) 0.6784(13)
F4 F 0.7778(7) 0.1641(10) 0.6785(12)
F5 F 0.8391(11) 0.2298(12) 0.6017(15)
F6 F 0.8791(10) 0.2328(11) 0.7530(14)
Ag6 Ag 0.62555(6) 0.33783(9) 0.49419(9)
Ag2 Ag 0.62555(6) 0.16217(9) 0.99419(9)
C27 C 0.3817(7) 0.1403(9) 0.8142(9)
H25 H 0.3449 0.1831 0.7886
C28 C 0.4557(8) 0.1674(9) 0.8608(10)
H26 H 0.4668 0.2279 0.8666
C30 C 0.4906(8) 0.0243(10) 0.8854(10)
N13 N 0.5103(6) 0.1091(8) 0.8969(8)
N14 N 0.3624(5) 0.0540(7) 0.8052(7)
C31 C 0.7295(8) 0.3257(9) 0.8182(10)
H29 H 0.7566 0.3098 0.7788
C32 C 0.6719(8) 0.4270(9) 0.8812(10)
H30 H 0.6582 0.4854 0.8883
C33 C 0.6506(9) 0.3601(11) 0.9310(11)
H31 H 0.6218 0.3747 0.9687
C34 C 0.7093(9) 0.2629(9) 0.8690(11)
H32 H 0.7242 0.2047 0.8634
N15 N 0.7110(6) 0.4109(7) 0.8238(8)
N16 N 0.6700(7) 0.2769(8) 0.9265(9)
Ru5 Ru 0.74738(5) 0.51067(6) 0.75290(7)
Cl5 Cl 0.23436(19) 0.1104(2) 0.6158(2)
N19 N 0.2141(6) 0.1100(7) 0.8133(7)
Ru1 Ru 0.74738(5) 0.98933(6) 0.25290(7)
Ag1 Ag 0.87054(7) 0.88098(9) 0.53916(9)
Cl2 Cl 0.76564(19) 0.8896(2) 0.3842(2)
C1 C 0.6183(7) 0.8597(9) 0.1858(9)
H1 H 0.6551 0.8169 0.2114
C2 C 0.8502(8) 0.8463(9) 0.2296(10)
H2 H 0.8795 0.8632 0.2907
C4 C 0.5443(8) 0.8326(9) 0.1392(10)
H4 H 0.5332 0.7721 0.1334
C5 C 0.7734(8) 0.7910(10) 0.0563(10)
C6 C 0.7486(8) 0.8622(10) 0.0964(9)
H6 H 0.7051 0.8921 0.0607
C11 C 0.5094(8) 0.9757(10) 0.1146(10)
C12 C 0.8748(8) 0.7767(10) 0.1864(11)
H12 H 0.9203 0.7491 0.2189
N1 N 0.4897(6) 0.8909(8) 0.1031(8)
N2 N 0.6376(5) 0.9460(7) 0.1948(7)
N3 N 0.7859(6) 0.8900(7) 0.1867(7)
N4 N 0.8351(6) 0.7482(8) 0.0997(8)
Ag3 Ag 0.87054(7) 0.61902(9) 0.03916(9)
Ag4 Ag 0.37445(6) 0.83783(9) 0.00581(9)
C19 C 0.8502(8) 0.6537(9) 0.7296(10)
H17 H 0.8795 0.6368 0.7907
C20 C 0.7734(8) 0.7090(10) 0.5563(10)
H18 H 0.7447 0.7270 0.4954
C21 C 0.7486(8) 0.6378(10) 0.5964(9)
H19 H 0.7051 0.6079 0.5607
C22 C 0.8748(8) 0.7233(10) 0.6864(11)
H20 H 0.9203 0.7509 0.7189
N9 N 0.7859(6) 0.6100(7) 0.6867(7)
N10 N 0.8351(6) 0.7518(8) 0.5997(8)
H24 H 0.9987 0.9103 0.7411
N12 N 0.9981(7) 0.8969(8) 0.6108(9)
S3 S 0.8994(3) 0.4143(3) 0.1790(4)
O7 O 0.9013(9) 0.4591(11) 0.2627(8)
O8 O 0.9681(6) 0.3789(9) 0.1771(11)
O9 O 0.8557(8) 0.4587(9) 0.0945(8)
C35 C 0.8452(10) 0.3165(15) 0.1784(13)
F7 F 0.7778(7) 0.3359(10) 0.1785(12)
F8 F 0.8391(11) 0.2702(12) 0.1017(15)
F9 F 0.8791(10) 0.2672(11) 0.2530(14)
N17 N 0.9981(7) 0.6031(8) 0.1108(9)
N18 N 0.3300(7) 0.7231(8) 0.0735(9)
H5 H 0.7447 0.7730 0.9954
C29 C 0.4199(7) 0.9962(9) 0.8418(10)
H27 H 0.4101 0.9354 0.8366
H28 H 0.5280 0.9817 0.9089
Cl3 Cl 0.76564(19) 0.6104(2) 0.8842(2)
Cl4 Cl 0.26837(18) 0.9190(2) 0.8833(2)
S4 S 0.4509(3) 0.7186(4) 0.8529(4)
O10 O 0.4500(14) 0.7833(13) 0.9216(15)
O11 O 0.4605(11) 0.7590(15) 0.7728(12)
O12 O 0.3893(12) 0.6604(14) 0.8324(19)
C36 C 0.5331(14) 0.6620(15) 0.9109(16)
F10 F 0.5282(14) 0.6209(17) 0.9858(17)
F11 F 0.5465(17) 0.6028(19) 0.8554(17)
F12 F 0.5904(11) 0.716(2) 0.939(2)
N21 N 0.2890(6) 0.9109(7) 0.6762(8)
C23_2 C 0.1165(7) 0.5609(8) 0.0989(10)
H21_2 H 0.1460 0.5541 0.0604
C24_2 C 0.0988(7) 0.5490(9) 0.2413(10)
H22_2 H 0.1160 0.5339 0.3054
C25_2 C 0.0451(8) 0.5944(10) 0.0609(10)
C26_2 C 0.0278(8) 0.5818(9) 0.2022(11)
N11_2 N 0.1447(6) 0.5378(7) 0.1907(8)
Ru4_2 Ru 0.25262(5) 0.48933(6) 0.24710(7)
H14_2 H 0.0013 0.4103 0.7589
N6_2 N 0.0019(7) 0.3969(8) 0.8892(9)
H23_2 H 0.0284 0.6120 0.9976
Ag5_2 Ag 0.12946(7) 0.38098(9) 0.96084(9)
H13_2 H 0.9716 0.3880 0.0024
H24_2 H 0.9987 0.5897 0.2411
Cl1_2 Cl 0.73163(18) 0.4190(2) 0.6167(2)
C1_2 C 0.6183(7) 0.6403(9) 0.6858(9)
H1_2 H 0.6551 0.6831 0.7114
C3_2 C 0.8835(7) 0.4391(8) 0.9011(10)
H3_2 H 0.8540 0.4459 0.9396
C4_2 C 0.5443(8) 0.6674(9) 0.6392(10)
H4_2 H 0.5332 0.7279 0.6334
C8_2 C 0.9012(7) 0.4510(9) 0.7587(10)
H8_2 H 0.8840 0.4661 0.6946
C9_2 C 0.5801(7) 0.4962(9) 0.6582(10)
H9_2 H 0.5899 0.4354 0.6634
C11_2 C 0.5094(8) 0.5243(10) 0.6146(10)
H11_2 H 0.4720 0.4817 0.5911
C13_2 C 0.9549(8) 0.4056(10) 0.9391(10)
C14_2 C 0.9722(8) 0.4182(9) 0.7978(11)
N1_2 N 0.4897(6) 0.6091(8) 0.6031(8)
N2_2 N 0.6376(5) 0.5540(7) 0.6948(7)
N5_2 N 0.8553(6) 0.4622(7) 0.8093(8)
S1_2 S 0.5491(3) 0.2186(4) 0.6471(4)
O1_2 O 0.5500(14) 0.2833(13) 0.5784(15)
O2_2 O 0.5395(11) 0.2590(15) 0.7272(12)
O3_2 O 0.6107(12) 0.1604(14) 0.6676(19)
C17_2 C 0.4669(14) 0.1620(15) 0.5891(16)
F1_2 F 0.4718(14) 0.1209(17) 0.5142(17)
F2_2 F 0.4535(17) 0.1028(19) 0.6446(17)
F3_2 F 0.4096(11) 0.216(2) 0.561(2)
Ag4_2 Ag 0.37445(6) 0.66217(9) 0.50581(9)
C27_2 C 0.3817(7) 0.3597(9) 0.3142(9)
H25_2 H 0.3449 0.3169 0.2886
C28_2 C 0.4557(8) 0.3326(9) 0.3608(10)
H26_2 H 0.4668 0.2721 0.3666
C29_2 C 0.4199(7) 0.5038(9) 0.3418(10)
H27_2 H 0.4101 0.5646 0.3366
C30_2 C 0.4906(8) 0.4757(10) 0.3854(10)
H28_2 H 0.5280 0.5183 0.4089
N13_2 N 0.5103(6) 0.3909(8) 0.3969(8)
N14_2 N 0.3624(5) 0.4460(7) 0.3052(7)
Cl4_2 Cl 0.26837(18) 0.5810(2) 0.3833(2)
S4_2 S 0.4509(3) 0.7814(4) 0.3529(4)
O10_2 O 0.4500(14) 0.7167(13) 0.4216(15)
O11_2 O 0.4605(11) 0.7410(15) 0.2728(12)
O12_2 O 0.3893(12) 0.8396(14) 0.3324(19)
C36_2 C 0.5331(14) 0.8380(15) 0.4109(16)
F10_2 F 0.5282(14) 0.8791(17) 0.4858(17)
F11_2 F 0.5465(17) 0.8972(19) 0.3554(17)
F12_2 F 0.5904(11) 0.784(2) 0.439(2)
N18_2 N 0.3300(7) 0.7769(8) 0.5735(9)
Cl5_2 Cl 0.23436(19) 0.3896(2) 0.1158(2)
N19_2 N 0.2141(6) 0.3900(7) 0.3133(7)
N21_2 N 0.2890(6) 0.5891(7) 0.1762(8)
H5_2 H 0.2553 0.2270 0.0046
C2_2 C 0.1498(8) 0.1537(9) 0.7704(10)
H2_2 H 0.1205 0.1368 0.7093
C5_2 C 0.2266(8) 0.2090(10) 0.9437(10)
C6_2 C 0.2514(8) 0.1378(10) 0.9036(9)
H6_2 H 0.2949 0.1079 0.9393
C12_2 C 0.1252(8) 0.2233(10) 0.8136(11)
H12_2 H 0.0797 0.2509 0.7811
N4_2 N 0.1649(6) 0.2518(8) 0.9003(8)
C19_2 C 0.1498(8) 0.3463(9) 0.2704(10)
H17_2 H 0.1205 0.3632 0.2093
C20_2 C 0.2266(8) 0.2910(10) 0.4437(10)
H18_2 H 0.2553 0.2730 0.5046
C21_2 C 0.2514(8) 0.3622(10) 0.4036(9)
H19_2 H 0.2949 0.3921 0.4393
C22_2 C 0.1252(8) 0.2767(10) 0.3136(11)
H20_2 H 0.0797 0.2491 0.2811
N10_2 N 0.1649(6) 0.2482(8) 0.4003(8)
S3_2 S 0.1006(3) 0.5857(3) 0.8210(4)
O7_2 O 0.0987(9) 0.5409(11) 0.7373(8)
O8_2 O 0.0319(6) 0.6211(9) 0.8229(11)
O9_2 O 0.1443(8) 0.5413(9) 0.9055(8)
C35_2 C 0.1548(10) 0.6835(15) 0.8216(13)
F7_2 F 0.2222(7) 0.6641(10) 0.8215(12)
F8_2 F 0.1609(11) 0.7298(12) 0.8983(15)
F9_2 F 0.1209(10) 0.7328(11) 0.7470(14)
C31_2 C 0.2705(8) 0.6743(9) 0.1818(10)
H29_2 H 0.2434 0.6902 0.2212
C32_2 C 0.3281(8) 0.5730(9) 0.1188(10)
H30_2 H 0.3418 0.5146 0.1117
C33_2 C 0.3494(9) 0.6399(11) 0.0690(11)
H31_2 H 0.3782 0.6253 0.0313
C34_2 C 0.2907(9) 0.7371(9) 0.1310(11)
H32_2 H 0.2758 0.7953 0.1366
C7_2 C 0.2705(8) 0.8257(9) 0.6818(10)
H7_2 H 0.2434 0.8098 0.7212
C10_2 C 0.3281(8) 0.9270(9) 0.6188(10)
H10_2 H 0.3418 0.9854 0.6117
C15_2 C 0.3494(9) 0.8601(11) 0.5690(11)
H15_2 H 0.3782 0.8747 0.5313
C16_2 C 0.2907(9) 0.7629(9) 0.6310(11)
H16_2 H 0.2758 0.7047 0.6366
S2_2 S 0.1006(3) 0.9143(3) 0.3210(4)
O4_2 O 0.0987(9) 0.9591(11) 0.2373(8)
O5_2 O 0.0319(6) 0.8789(9) 0.3229(11)
O6_2 O 0.1443(8) 0.9587(9) 0.4055(8)
C18_2 C 0.1548(10) 0.8165(15) 0.3216(13)
F4_2 F 0.2222(7) 0.8359(10) 0.3215(12)
F5_2 F 0.1609(11) 0.7702(12) 0.3983(15)
F6_2 F 0.1209(10) 0.7672(11) 0.2470(14)
loop_
_geom_bond_atom_site_label_1
_geom_bond_atom_site_label_2
_geom_bond_site_symmetry_1
_geom_bond_site_symmetry_2
Ag5 N6 1_555 1_555
C23 H21 1_555 1_555
C24 H22 1_555 1_555
C25 C23 1_555 1_555
H23 C25 1_555 1_555
C26 C24 1_555 1_555
N11 C23 1_555 1_555
C24 N11 1_555 1_555
C3 H3 1_555 1_555
C7 H7 1_555 1_555
C8 H8 1_555 1_555
C9 H9 1_555 1_555
C10 H10 1_555 1_555
C13 C3 1_555 1_555
H13 C13 1_555 1_555
C14 C8 1_555 1_555
C15 C10 1_555 1_555
H15 C15 1_555 1_555
C16 C7 1_555 1_555
H16 C16 1_555 1_555
N8 C15 1_555 1_555
S1 O1 1_555 1_555
O2 S1 1_555 1_555
O3 S1 1_555 1_555
S2 O4 1_555 1_555
O5 S2 1_555 1_555
C17 S1 1_555 1_555
F1 C17 1_555 1_555
F2 C17 1_555 1_555
F3 C17 1_555 1_555
C18 S2 1_555 1_555
F4 C18 1_555 1_555
F5 C18 1_555 1_555
F6 C18 1_555 1_555
Ag6 N8 1_555 1_555
C3 N5 1_555 1_555
C7 N7 1_555 1_555
C8 N5 1_555 1_555
C10 N7 1_555 1_555
C16 N8 1_555 1_555
S2 O6 1_555 1_555
C27 H25 1_555 1_555
C28 C27 1_555 1_555
H26 C28 1_555 1_555
N13 Ag2 1_555 1_555
N14 C27 1_555 1_555
C31 H29 1_555 1_555
C32 H30 1_555 1_555
C33 C32 1_555 1_555
H31 C33 1_555 1_555
C34 C31 1_555 1_555
H32 C34 1_555 1_555
N15 C31 1_555 1_555
N16 Ag2 1_555 1_555
Ru4 N14 1_555 1_555
Ru5 N15 1_555 1_555
Cl5 Ru4 1_555 1_555
N19 Ru4 1_555 1_555
C28 N13 1_555 1_555
C30 N13 1_555 1_555
C32 N15 1_555 1_555
C33 N16 1_555 1_555
C34 N16 1_555 1_555
Ag1 Cl2 1_555 1_555
Cl2 Ru1 1_555 1_555
C1 H1 1_555 1_555
C2 H2 1_555 1_555
C4 C1 1_555 1_555
H4 C4 1_555 1_555
C6 C5 1_555 1_555
H6 C6 1_555 1_555
C12 C2 1_555 1_555
H12 C12 1_555 1_555
N1 C4 1_555 1_555
N2 Ru1 1_555 1_555
N3 Ru1 1_555 1_555
N4 C5 1_555 1_555
Ag3 N4 1_555 1_555
Ag4 N1 1_555 1_555
C19 H17 1_555 1_555
C20 H18 1_555 1_555
C21 C20 1_555 1_555
H19 C21 1_555 1_555
C22 C19 1_555 1_555
H20 C22 1_555 1_555
N9 C19 1_555 1_555
N10 Ag1 1_555 1_555
N12 Ag1 1_555 1_555
S3 O7 1_555 1_555
O8 S3 1_555 1_555
O9 Ag3 1_555 1_555
C35 S3 1_555 1_555
F7 C35 1_555 1_555
F8 C35 1_555 1_555
F9 C35 1_555 1_555
N17 Ag3 1_555 1_555
N18 Ag4 1_555 1_555
Ru5 N9 1_555 1_555
C1 N2 1_555 1_555
C2 N3 1_555 1_555
C6 N3 1_555 1_555
C11 N1 1_555 1_555
C12 N4 1_555 1_555
C20 N10 1_555 1_555
C21 N9 1_555 1_555
C22 N10 1_555 1_555
S3 O9 1_555 1_555
C29 H27 1_555 1_555
S4 O10 1_555 1_555
O11 S4 1_555 1_555
O12 S4 1_555 1_555
C36 S4 1_555 1_555
F10 C36 1_555 1_555
F11 C36 1_555 1_555
F12 C36 1_555 1_555
Ru5 Cl3 1_555 1_555
C23_2 H21_2 1_555 1_555
C24_2 H22_2 1_555 1_555
C25_2 C23_2 1_555 1_555
C26_2 C24_2 1_555 1_555
N11_2 C23_2 1_555 1_555
Ru4_2 N11_2 1_555 1_555
C24_2 N11_2 1_555 1_555
Ag5_2 N6_2 1_555 1_555
Ru5 Cl1_2 1_555 1_555
Ag6 Cl1_2 1_555 1_555
C1_2 H1_2 1_555 1_555
C3_2 H3_2 1_555 1_555
C4_2 C1_2 1_555 1_555
H4_2 C4_2 1_555 1_555
C8_2 H8_2 1_555 1_555
C9_2 H9_2 1_555 1_555
C11_2 C9_2 1_555 1_555
H11_2 C11_2 1_555 1_555
C13_2 C3_2 1_555 1_555
C14_2 C8_2 1_555 1_555
N1_2 C4_2 1_555 1_555
N2_2 Ru5 1_555 1_555
N5_2 Ru5 1_555 1_555
S1_2 O1_2 1_555 1_555
O1_2 Ag6 1_555 1_555
O2_2 S1_2 1_555 1_555
O3_2 S1_2 1_555 1_555
C17_2 S1_2 1_555 1_555
F1_2 C17_2 1_555 1_555
F2_2 C17_2 1_555 1_555
F3_2 C17_2 1_555 1_555
Ag4_2 N1_2 1_555 1_555
C27_2 H25_2 1_555 1_555
C28_2 C27_2 1_555 1_555
H26_2 C28_2 1_555 1_555
C29_2 H27_2 1_555 1_555
C30_2 C29_2 1_555 1_555
H28_2 C30_2 1_555 1_555
N13_2 Ag6 1_555 1_555
N14_2 C27_2 1_555 1_555
Cl4_2 Ag4_2 1_555 1_555
S4_2 O10_2 1_555 1_555
O10_2 Ag4_2 1_555 1_555
O11_2 S4_2 1_555 1_555
O12_2 S4_2 1_555 1_555
C36_2 S4_2 1_555 1_555
F10_2 C36_2 1_555 1_555
F11_2 C36_2 1_555 1_555
F12_2 C36_2 1_555 1_555
Ru4_2 N14_2 1_555 1_555
N18_2 Ag4_2 1_555 1_555
Cl5_2 Ru4_2 1_555 1_555
N19_2 Ru4_2 1_555 1_555
N21_2 Ru4_2 1_555 1_555
C1_2 N2_2 1_555 1_555
C3_2 N5_2 1_555 1_555
C8_2 N5_2 1_555 1_555
C9_2 N2_2 1_555 1_555
C11_2 N1_2 1_555 1_555
C28_2 N13_2 1_555 1_555
C29_2 N14_2 1_555 1_555
C30_2 N13_2 1_555 1_555
Cl4_2 Ru4_2 1_555 1_555
Ag5 Cl5 1_555 1_555
C2_2 H2_2 1_555 1_555
C6_2 C5_2 1_555 1_555
H6_2 C6_2 1_555 1_555
C12_2 C2_2 1_555 1_555
H12_2 C12_2 1_555 1_555
N4_2 C5_2 1_555 1_555
Ag5_2 N4_2 1_555 1_555
C19_2 H17_2 1_555 1_555
C20_2 H18_2 1_555 1_555
C21_2 C20_2 1_555 1_555
H19_2 C21_2 1_555 1_555
C22_2 C19_2 1_555 1_555
H20_2 C22_2 1_555 1_555
N19_2 C19_2 1_555 1_555
N10_2 Ag5 1_555 1_555
S3_2 O7_2 1_555 1_555
O8_2 S3_2 1_555 1_555
O9_2 Ag5_2 1_555 1_555
C35_2 S3_2 1_555 1_555
F7_2 C35_2 1_555 1_555
F8_2 C35_2 1_555 1_555
F9_2 C35_2 1_555 1_555
C2_2 N19 1_555 1_555
C6_2 N19 1_555 1_555
C12_2 N4_2 1_555 1_555
C20_2 N10_2 1_555 1_555
C21_2 N19_2 1_555 1_555
C22_2 N10_2 1_555 1_555
S3_2 O9_2 1_555 1_555
C31_2 H29_2 1_555 1_555
C32_2 H30_2 1_555 1_555
C33_2 C32_2 1_555 1_555
H31_2 C33_2 1_555 1_555
C34_2 C31_2 1_555 1_555
H32_2 C34_2 1_555 1_555
N21_2 C31_2 1_555 1_555
C32_2 N21_2 1_555 1_555
C33_2 N18 1_555 1_555
C34_2 N18 1_555 1_555
C7_2 H7_2 1_555 1_555
C10_2 H10_2 1_555 1_555
C15_2 C10_2 1_555 1_555
H15_2 C15_2 1_555 1_555
C16_2 C7_2 1_555 1_555
H16_2 C16_2 1_555 1_555
N18_2 C15_2 1_555 1_555
S2_2 O4_2 1_555 1_555
O5_2 S2_2 1_555 1_555
C18_2 S2_2 1_555 1_555
F4_2 C18_2 1_555 1_555
F5_2 C18_2 1_555 1_555
F6_2 C18_2 1_555 1_555
C7_2 N21 1_555 1_555
C10_2 N21 1_555 1_555
C16_2 N18_2 1_555 1_555
S2_2 O6_2 1_555 1_555

#END
