
###############################################################################
#
# This file contains modified crystal structure data generated from the
# MOF subset of the Cambridge Structural Database (CSD) v543 
# hosted by the Cambridge Crystallographic Data Centre (CCDC).
#
# This work is licensed under the Creative Commons
# Attribution-NonCommercial-ShareAlike 4.0 International License.
# To view a copy of this license, visit
# http://creativecommons.org/licenses/by-nc-sa/4.0/
# or send a letter to
# Creative Commons, PO Box 1866, Mountain View, CA 94042, USA.
#
# CIF created using the CSD Python API on 29 September 2022
# The structure has been converted into the P1 space group
# The structure has a 3D framework
# The original CSD entry XOMSUP is in the tetragonal crystal system
# The framework has been calculated to contain at least 10.0% void space
# The void calculation uses a probe of radius 1.32A, grid spacing 0.4
# The framework is charged, counterions have been retained in the structure
#
###############################################################################

data_XOMSUP
_chemical_formula_moiety         '(C56 H32 In4 O14 1-)n'
_symmetry_cell_setting           triclinic
_symmetry_space_group_name_H-M   'P 1'
_symmetry_Int_Tables_number      1
_space_group_name_Hall           'P 1'
loop_
_symmetry_equiv_pos_site_id
_symmetry_equiv_pos_as_xyz
1 x,y,z
_cell_length_a                   10.74540(10)
_cell_length_b                   10.74540(10)
_cell_length_c                   14.4927(5)
_cell_angle_alpha                90
_cell_angle_beta                 90
_cell_angle_gamma                90
_cell_volume                     1673.38
loop_
_atom_site_label
_atom_site_type_symbol
_atom_site_fract_x
_atom_site_fract_y
_atom_site_fract_z
In1 In 0.0000 0.0000 0.0000
O10 O 0.1960(6) 0.0775(6) 0.0352(6)
In3 In 0.0000 1.0000 0.5000
In1_2 In 1.0000 1.0000 1.0000
C15 C 0.7889(8) 0.9181(7) 0.9515(8)
C16 C 0.6570(8) 0.8737(7) 0.9223(9)
C17 C 0.4189(10) 0.7969(6) 0.8733(11)
H9 H 0.3384 0.7694 0.8555
O6 O 0.8593(7) 0.9484(5) 0.8880(6)
C18 C 0.6291(8) 0.8652(6) 0.8313(9)
H10 H 0.6915 0.8832 0.7868
C19 C 0.5104(10) 0.8304(5) 0.8018(8)
C20 C 0.5701(10) 0.8414(8) 0.9860(10)
C21 C 0.4469(12) 0.8046(10) 0.9610(10)
C22 C 0.2111(8) 0.9181(7) 0.5485(8)
C23 C 0.3430(8) 0.8737(7) 0.5777(9)
O7 O 0.1960(6) 0.9225(6) 0.4648(6)
C24 C 0.5811(10) 0.7969(6) 0.6267(11)
H13 H 0.6616 0.7694 0.6445
O8 O 0.1407(7) 0.9484(5) 0.6120(6)
C25 C 0.3709(8) 0.8652(6) 0.6687(9)
H14 H 0.3085 0.8832 0.7132
C26 C 0.4896(10) 0.8304(5) 0.6982(8)
C27 C 0.4299(10) 0.8414(8) 0.5140(10)
H15 H 0.4080 0.8433 0.4505
C28 C 0.5531(12) 0.8046(10) 0.5390(10)
H16 H 0.6133 0.7862 0.4930
H11 H 0.4080 0.1567 0.0495
H12 H 0.6133 0.2138 0.0070
In1_3 In 0.0000 0.0000 1.0000
O12 O 0.1407(7) 0.0516(5) 0.8880(6)
In1_4 In 1.0000 1.0000 0.0000
O5 O 0.8040(6) 0.9225(6) 0.0352(6)
H11_2 H 0.5920 0.8433 0.0495
H12_2 H 0.3867 0.7862 0.0070
In3_2 In 1.0000 0.0000 0.5000
C15_2 C 0.2111(8) 0.0819(7) 0.9515(8)
C16_2 C 0.3430(8) 0.1263(7) 0.9223(9)
C17_2 C 0.5811(10) 0.2031(6) 0.8733(11)
H9_2 H 0.6616 0.2306 0.8555
C18_2 C 0.3709(8) 0.1348(6) 0.8313(9)
H10_2 H 0.3085 0.1168 0.7868
C19_2 C 0.4896(10) 0.1696(5) 0.8018(8)
C20_2 C 0.4299(10) 0.1586(8) 0.9860(10)
C21_2 C 0.5531(12) 0.1954(10) 0.9610(10)
C22_2 C 0.7889(8) 0.0819(7) 0.5485(8)
C23_2 C 0.6570(8) 0.1263(7) 0.5777(9)
O7_2 O 0.8040(6) 0.0775(6) 0.4648(6)
C24_2 C 0.4189(10) 0.2031(6) 0.6267(11)
H13_2 H 0.3384 0.2306 0.6445
O8_2 O 0.8593(7) 0.0516(5) 0.6120(6)
C25_2 C 0.6291(8) 0.1348(6) 0.6687(9)
H14_2 H 0.6915 0.1168 0.7132
C26_2 C 0.5104(10) 0.1696(5) 0.6982(8)
C27_2 C 0.5701(10) 0.1586(8) 0.5140(10)
H15_2 H 0.5920 0.1567 0.4505
C28_2 C 0.4469(12) 0.1954(10) 0.5390(10)
H16_2 H 0.3867 0.2138 0.4930
In1_5 In 0.0000 1.0000 0.0000
C1 C 0.0819(7) 0.7889(8) 0.0485(8)
C2 C 0.1263(7) 0.6570(8) 0.0777(9)
C3 C 0.2031(6) 0.4189(10) 0.1267(11)
H1 H 0.2306 0.3384 0.1445
O2 O 0.0516(5) 0.8593(7) 0.1120(6)
C4 C 0.1348(6) 0.6291(8) 0.1687(9)
H2 H 0.1168 0.6915 0.2132
C5 C 0.1696(5) 0.5104(10) 0.1982(8)
C6 C 0.1586(8) 0.5701(10) 0.0140(10)
C7 C 0.1954(10) 0.4469(12) 0.0390(10)
C8 C 0.0819(7) 0.2111(8) 0.4515(8)
C9 C 0.1263(7) 0.3430(8) 0.4223(9)
O3 O 0.0775(6) 0.1960(6) 0.5352(6)
C10 C 0.2031(6) 0.5811(10) 0.3733(11)
H5 H 0.2306 0.6616 0.3555
O4 O 0.0516(5) 0.1407(7) 0.3880(6)
C11 C 0.1348(6) 0.3709(8) 0.3313(9)
H6 H 0.1168 0.3085 0.2868
C12 C 0.1696(5) 0.4896(10) 0.3018(8)
C13 C 0.1586(8) 0.4299(10) 0.4860(10)
H7 H 0.1567 0.4080 0.5495
C14 C 0.1954(10) 0.5531(12) 0.4610(10)
H8 H 0.2138 0.6133 0.5070
In3_3 In 0.0000 0.0000 0.5000
In1_6 In 1.0000 0.0000 1.0000
O9 O 0.9225(6) 0.1960(6) 0.9648(6)
H11_3 H 0.8433 0.4080 0.9505
H12_3 H 0.7862 0.6133 0.9930
In1_7 In 0.0000 1.0000 1.0000
O1 O 0.0775(6) 0.8040(6) 0.9648(6)
H3 H 0.1567 0.5920 0.9505
H4 H 0.2138 0.3867 0.9930
In1_8 In 1.0000 0.0000 0.0000
O11 O 0.9484(5) 0.1407(7) 0.1120(6)
In3_4 In 1.0000 1.0000 0.5000
C15_3 C 0.9181(7) 0.2111(8) 0.0485(8)
C16_3 C 0.8737(7) 0.3430(8) 0.0777(9)
C17_3 C 0.7969(6) 0.5811(10) 0.1267(11)
H9_3 H 0.7694 0.6616 0.1445
C18_3 C 0.8652(6) 0.3709(8) 0.1687(9)
H10_3 H 0.8832 0.3085 0.2132
C19_3 C 0.8304(5) 0.4896(10) 0.1982(8)
C20_3 C 0.8414(8) 0.4299(10) 0.0140(10)
C21_3 C 0.8046(10) 0.5531(12) 0.0390(10)
C22_3 C 0.9181(7) 0.7889(8) 0.4515(8)
C23_3 C 0.8737(7) 0.6570(8) 0.4223(9)
O7_3 O 0.9225(6) 0.8040(6) 0.5352(6)
C24_3 C 0.7969(6) 0.4189(10) 0.3733(11)
H13_3 H 0.7694 0.3384 0.3555
O8_3 O 0.9484(5) 0.8593(7) 0.3880(6)
C25_3 C 0.8652(6) 0.6291(8) 0.3313(9)
H14_3 H 0.8832 0.6915 0.2868
C26_3 C 0.8304(5) 0.5104(10) 0.3018(8)
C27_3 C 0.8414(8) 0.5701(10) 0.4860(10)
H15_3 H 0.8433 0.5920 0.5495
C28_3 C 0.8046(10) 0.4469(12) 0.4610(10)
H16_3 H 0.7862 0.3867 0.5070
loop_
_geom_bond_atom_site_label_1
_geom_bond_atom_site_label_2
_geom_bond_site_symmetry_1
_geom_bond_site_symmetry_2
O10 In1 1_555 1_555
C15 C16 1_555 1_555
C16 C18 1_555 1_555
C17 H9 1_555 1_555
O6 In1_2 1_555 1_555
C18 H10 1_555 1_555
C19 C17 1_555 1_555
C20 C16 1_555 1_555
C21 C17 1_555 1_555
C22 C23 1_555 1_555
C23 C25 1_555 1_555
O7 C22 1_555 1_555
C24 H13 1_555 1_555
O8 C22 1_555 1_555
C25 H14 1_555 1_555
C26 C19 1_555 1_555
C27 C23 1_555 1_555
H15 C27 1_555 1_555
C28 C24 1_555 1_555
H16 C28 1_555 1_555
In3 O7 1_555 1_555
C15 O6 1_555 1_555
C18 C19 1_555 1_555
C20 C21 1_555 1_555
C24 C26 1_555 1_555
O8 In3 1_555 1_555
C25 C26 1_555 1_555
C27 C28 1_555 1_555
O12 In1_3 1_555 1_555
O5 In1_4 1_555 1_555
C15_2 C16_2 1_555 1_555
C16_2 C18_2 1_555 1_555
C17_2 H9_2 1_555 1_555
C18_2 H10_2 1_555 1_555
C19_2 C17_2 1_555 1_555
C20_2 C16_2 1_555 1_555
C21_2 C17_2 1_555 1_555
C22_2 C23_2 1_555 1_555
C23_2 C25_2 1_555 1_555
O7_2 C22_2 1_555 1_555
C24_2 H13_2 1_555 1_555
O8_2 C22_2 1_555 1_555
C25_2 H14_2 1_555 1_555
C26_2 C19_2 1_555 1_555
C27_2 C23_2 1_555 1_555
H15_2 C27_2 1_555 1_555
C28_2 C24_2 1_555 1_555
H16_2 C28_2 1_555 1_555
In3_2 O7_2 1_555 1_555
C15_2 O12 1_555 1_555
C18_2 C19_2 1_555 1_555
C20_2 C21_2 1_555 1_555
C24_2 C26_2 1_555 1_555
O8_2 In3_2 1_555 1_555
C25_2 C26_2 1_555 1_555
C27_2 C28_2 1_555 1_555
C1 C2 1_555 1_555
C2 C4 1_555 1_555
C3 H1 1_555 1_555
O2 In1_5 1_555 1_555
C4 H2 1_555 1_555
C5 C3 1_555 1_555
C6 C2 1_555 1_555
C7 C3 1_555 1_555
C8 C9 1_555 1_555
C9 C11 1_555 1_555
O3 C8 1_555 1_555
C10 H5 1_555 1_555
O4 C8 1_555 1_555
C11 H6 1_555 1_555
C12 C5 1_555 1_555
C13 C9 1_555 1_555
H7 C13 1_555 1_555
C14 C10 1_555 1_555
H8 C14 1_555 1_555
In3_3 O3 1_555 1_555
C1 O2 1_555 1_555
C4 C5 1_555 1_555
C6 C7 1_555 1_555
C10 C12 1_555 1_555
O4 In3_3 1_555 1_555
C11 C12 1_555 1_555
C13 C14 1_555 1_555
O9 In1_6 1_555 1_555
In1_7 O1 1_555 1_555
O11 In1_8 1_555 1_555
C15_3 C16_3 1_555 1_555
C16_3 C18_3 1_555 1_555
C17_3 H9_3 1_555 1_555
C18_3 H10_3 1_555 1_555
C19_3 C17_3 1_555 1_555
C20_3 C16_3 1_555 1_555
C21_3 C17_3 1_555 1_555
C22_3 C23_3 1_555 1_555
C23_3 C25_3 1_555 1_555
O7_3 C22_3 1_555 1_555
C24_3 H13_3 1_555 1_555
O8_3 C22_3 1_555 1_555
C25_3 H14_3 1_555 1_555
C26_3 C19_3 1_555 1_555
C27_3 C23_3 1_555 1_555
H15_3 C27_3 1_555 1_555
C28_3 C24_3 1_555 1_555
H16_3 C28_3 1_555 1_555
In3_4 O7_3 1_555 1_555
C15_3 O11 1_555 1_555
C18_3 C19_3 1_555 1_555
C20_3 C21_3 1_555 1_555
C24_3 C26_3 1_555 1_555
O8_3 In3_4 1_555 1_555
C25_3 C26_3 1_555 1_555
C27_3 C28_3 1_555 1_555

#END
