
###############################################################################
#
# This file contains modified crystal structure data generated from the
# MOF subset of the Cambridge Structural Database (CSD) v543 
# hosted by the Cambridge Crystallographic Data Centre (CCDC).
#
# This work is licensed under the Creative Commons
# Attribution-NonCommercial-ShareAlike 4.0 International License.
# To view a copy of this license, visit
# http://creativecommons.org/licenses/by-nc-sa/4.0/
# or send a letter to
# Creative Commons, PO Box 1866, Mountain View, CA 94042, USA.
#
# CIF created using the CSD Python API on 29 September 2022
# The structure has been converted into the P1 space group
# The structure has a 3D framework
# The original CSD entry XOPLUL is in the triclinic crystal system
# The framework has been calculated to contain at least 10.0% void space
# The void calculation uses a probe of radius 1.32A, grid spacing 0.4
# The framework is charged, counterions have been retained in the structure
#
###############################################################################

data_XOPLUL
_chemical_formula_moiety         '(C28 H24 Cd4 N2 O19)n'
_symmetry_cell_setting           triclinic
_symmetry_space_group_name_H-M   'P 1'
_symmetry_Int_Tables_number      1
_space_group_name_Hall           'P 1'
loop_
_symmetry_equiv_pos_site_id
_symmetry_equiv_pos_as_xyz
1 x,y,z
_cell_length_a                   9.4327(2)
_cell_length_b                   10.1954(2)
_cell_length_c                   11.2452(2)
_cell_angle_alpha                63.9830(10)
_cell_angle_beta                 73.2120(10)
_cell_angle_gamma                83.2200(10)
_cell_volume                     930.395
loop_
_atom_site_label
_atom_site_type_symbol
_atom_site_fract_x
_atom_site_fract_y
_atom_site_fract_z
Cd6 Cd -0.0000 0.0000 0.5000
Cd8 Cd 0.0142 0.3412 0.1868
Cd6_2 Cd -0.0000 1.0000 0.5000
O2 O 0.1291 0.1884 0.1033
O4 O 0.7847 0.2608 0.3053
O5 O 0.7807 0.1085 0.5224
O6 O 0.4884 0.2427 0.3644
O8 O 0.1069 0.2317 0.3839
C1 C 0.0895 0.0567 0.1702
C4 C 0.2425 0.2754 0.3317
C5 C 0.3403 0.2192 0.4247
O10 O 0.2907 0.3624 0.2110
C6 C 0.7217 0.1827 0.4290
C7 C 0.5569 0.1807 0.4665
C8 C 0.3141 0.1440 0.5630
H1 H 0.2225 0.1153 0.6267
C9 C 0.4549 0.1181 0.5906
H2 H 0.4740 0.0685 0.6761
Cd6_3 Cd 1.0000 0.0000 0.5000
C12 C 0.2132 0.0038 0.9560
H4 H 0.2601 0.0924 0.8933
O13 O 0.0029 0.4423 0.7957
O29 O 0.1223 0.5818 0.9960
O1 O 0.0163 0.9952 0.2913
O7 O 0.0761 0.8319 0.1463
C2 C 0.0778 0.6302 0.0851
C3 C 0.1245 0.7781 0.0484
C10 C 0.1336 0.9696 0.0882
Cd6_4 Cd 1.0000 1.0000 0.5000
O27 O 0.2193 0.8915 0.4776
C11 C 0.2109 0.8786 0.9321
H3 H 0.2592 0.8678 0.8522
O25 O 0.2153 0.7392 0.6947
O19 O 0.8777 0.4182 0.0040
C23 C 0.7891 0.1214 0.0679
H7 H 0.7408 0.1322 0.1478
O21 O 0.9837 0.0048 0.7087
O22 O 0.9971 0.5577 0.2043
O17 O 0.9239 0.1681 0.8537
C14 C 0.9222 0.3698 0.9149
C15 C 0.8755 0.2219 0.9516
C22 C 0.8664 0.0304 0.9118
Cd10 Cd 0.9858 0.6588 0.8132
C24 C 0.7868 0.9962 0.0440
H8 H 0.7399 0.9076 0.1067
O28 O 0.8931 0.7683 0.6161
O12 O 0.8709 0.8116 0.8967
O16 O 0.5116 0.7573 0.6356
C13 C 0.9105 0.9433 0.8298
C16 C 0.7575 0.7246 0.6683
C17 C 0.6597 0.7808 0.5753
O20 O 0.7093 0.6376 0.7890
C18 C 0.2783 0.8173 0.5710
C19 C 0.4431 0.8193 0.5335
C20 C 0.6859 0.8560 0.4370
H5 H 0.7775 0.8847 0.3733
C21 C 0.5451 0.8819 0.4094
H6 H 0.5260 0.9315 0.3239
N1 N 0.4701 0.3554 0.7916
H9 H 0.5574 0.3782 0.7293
H10 H 0.4586 0.2590 0.8376
C25 C 0.3537 0.4231 0.7385
H11 H 0.3867 0.4661 0.6401
H12 H 0.3162 0.4980 0.7691
H13 H 0.2768 0.3528 0.7691
C26 C 0.4350 0.4517 0.9066
H14 H 0.4496 0.5548 0.8515
H15 H 0.5023 0.4166 0.9634
H16 H 0.3350 0.4328 0.9634
N1_2 N 0.5299 0.6446 0.2084
H9_2 H 0.4426 0.6218 0.2707
H10_2 H 0.5414 0.7410 0.1624
C25_2 C 0.6463 0.5769 0.2615
H11_2 H 0.6133 0.5339 0.3599
H12_2 H 0.6838 0.5020 0.2309
H13_2 H 0.7232 0.6472 0.2309
C26_2 C 0.5650 0.5483 0.0934
H14_2 H 0.5504 0.4452 0.1485
H15_2 H 0.4977 0.5834 0.0366
H16_2 H 0.6650 0.5672 0.0366
loop_
_geom_bond_atom_site_label_1
_geom_bond_atom_site_label_2
_geom_bond_site_symmetry_1
_geom_bond_site_symmetry_2
Cd8 O2 1_555 1_555
O2 C1 1_555 1_555
O4 C6 1_555 1_555
O5 C6 1_555 1_555
O6 C5 1_555 1_555
O8 Cd6 1_555 1_555
C4 O8 1_555 1_555
C5 C4 1_555 1_555
O10 Cd8 1_555 1_555
C6 C7 1_555 1_555
C7 O6 1_555 1_555
C8 C5 1_555 1_555
H1 C8 1_555 1_555
C9 C7 1_555 1_555
H2 C9 1_555 1_555
Cd6_3 O5 1_555 1_555
Cd8 O8 1_555 1_555
C4 O10 1_555 1_555
C8 C9 1_555 1_555
H4 C12 1_555 1_555
Cd6_2 O1 1_555 1_555
O7 C3 1_555 1_555
C3 C2 1_555 1_555
C10 O7 1_555 1_555
O27 Cd6_2 1_555 1_555
H3 C11 1_555 1_555
H7 C23 1_555 1_555
O21 Cd6_3 1_555 1_555
O17 C15 1_555 1_555
C15 C14 1_555 1_555
C22 O17 1_555 1_555
H8 C24 1_555 1_555
O28 Cd6_4 1_555 1_555
Cd10 O12 1_555 1_555
O12 C13 1_555 1_555
O25 C18 1_555 1_555
O27 C18 1_555 1_555
O16 C17 1_555 1_555
O28 Cd10 1_555 1_555
C16 O28 1_555 1_555
C17 C16 1_555 1_555
O20 Cd10 1_555 1_555
C18 C19 1_555 1_555
C19 O16 1_555 1_555
C20 C17 1_555 1_555
H5 C20 1_555 1_555
C21 C19 1_555 1_555
H6 C21 1_555 1_555
C16 O20 1_555 1_555
C20 C21 1_555 1_555
N1 H9 1_555 1_555
H10 N1 1_555 1_555
C25 N1 1_555 1_555
H11 C25 1_555 1_555
H12 C25 1_555 1_555
H13 C25 1_555 1_555
C26 N1 1_555 1_555
H14 C26 1_555 1_555
H15 C26 1_555 1_555
H16 C26 1_555 1_555
N1_2 H9_2 1_555 1_555
H10_2 N1_2 1_555 1_555
C25_2 N1_2 1_555 1_555
H11_2 C25_2 1_555 1_555
H12_2 C25_2 1_555 1_555
H13_2 C25_2 1_555 1_555
C26_2 N1_2 1_555 1_555
H14_2 C26_2 1_555 1_555
H15_2 C26_2 1_555 1_555
H16_2 C26_2 1_555 1_555

#END
