
###############################################################################
#
# This file contains modified crystal structure data generated from the
# MOF subset of the Cambridge Structural Database (CSD) v543 
# hosted by the Cambridge Crystallographic Data Centre (CCDC).
#
# This work is licensed under the Creative Commons
# Attribution-NonCommercial-ShareAlike 4.0 International License.
# To view a copy of this license, visit
# http://creativecommons.org/licenses/by-nc-sa/4.0/
# or send a letter to
# Creative Commons, PO Box 1866, Mountain View, CA 94042, USA.
#
# CIF created using the CSD Python API on 29 September 2022
# The structure has been converted into the P1 space group
# The structure has a 3D framework
# The original CSD entry XOTGUI is in the monoclinic crystal system
# The framework has been calculated to contain at least 10.0% void space
# The void calculation uses a probe of radius 1.32A, grid spacing 0.4
# The framework is charged, counterions have been retained in the structure
# H atom positions have been added when not included in the experimental data
#
###############################################################################

data_XOTGUI
_chemical_formula_moiety         '(C20 H4 Nd4 O40 8-)n'
_symmetry_cell_setting           triclinic
_symmetry_space_group_name_H-M   'P 1'
_symmetry_Int_Tables_number      1
_space_group_name_Hall           'P 1'
loop_
_symmetry_equiv_pos_site_id
_symmetry_equiv_pos_as_xyz
1 x,y,z
_cell_length_a                   9.0279(4)
_cell_length_b                   18.1362(8)
_cell_length_c                   8.5631(4)
_cell_angle_alpha                90
_cell_angle_beta                 102.7350(10)
_cell_angle_gamma                90
_cell_volume                     1367.56
loop_
_atom_site_label
_atom_site_type_symbol
_atom_site_fract_x
_atom_site_fract_y
_atom_site_fract_z
O26 O 0.0099(4) 0.9040(2) 0.9962(5)
Nd1 Nd 0.26854(3) 0.119235(14) 0.06426(3)
O1 O 0.4879(4) 0.0409(2) 0.1806(4)
O2 O 0.4164(4) 0.1866(2) 0.3027(4)
O3 O 0.1476(4) 0.3255(2) 0.3028(4)
O4 O 0.1433(4) 0.2324(2) 0.1346(5)
O5 O 0.4207(4) 0.2814(2) 0.4712(5)
O9 O 0.2022(5) 0.0627(3) 0.3077(5)
C1 C 0.2036(6) 0.2690(3) 0.2536(6)
C2 C 0.3621(6) 0.2430(3) 0.3512(6)
C5 C 0.2723(8) 0.0537(4) 0.4485(8)
O10 O 0.32 0.11 0.52
Nd3 Nd 0.26854(3) 0.380765(14) 0.56426(3)
O25 O 0.8101(4) 0.0129(2) 0.0041(5)
C6 C 0.4751(6) 0.0070(3) 0.9087(6)
O12 O 0.4031(4) 0.0647(2) 0.8643(4)
O15 O 0.4164(4) 0.3134(2) 0.8027(4)
O16 O 0.1476(4) 0.1745(2) 0.8028(4)
O17 O 0.1433(4) 0.2676(2) 0.6346(5)
O18 O 0.4207(4) 0.2186(2) 0.9712(5)
C8 C 0.2036(6) 0.2310(3) 0.7536(6)
C9 C 0.3621(6) 0.2570(3) 0.8512(6)
H2 H 0.710144 0.000550968 0.49599
O8 O 0.5969(4) 0.9353(2) 0.1357(4)
C3 C 0.5249(6) 0.9930(3) 0.0913(6)
O22 O 0.8524(4) 0.8255(2) 0.1972(4)
O24 O 0.5793(4) 0.7814(2) 0.0288(5)
H1 H 0.289856 0.999449 0.50401
O6 O 0.1899(4) 0.9871(2) 0.9959(5)
C4 C 0.0574(6) 0.9687(3) 0.9973(6)
O11 O 0.5121(4) 0.9591(2) 0.8194(4)
Nd2 Nd 0.73146(3) 0.880765(14) 0.93574(3)
O19 O 0.7978(5) 0.9373(3) 0.6923(5)
C10 C 0.7277(8) 0.9463(4) 0.5515(8)
O20 O 0.68 0.89 0.48
O21 O 0.5836(4) 0.8134(2) 0.6973(4)
O23 O 0.8567(4) 0.7676(2) 0.8654(5)
C7 C 0.9426(6) 0.0313(3) 0.0027(6)
O14 O 0.9901(4) 0.0960(2) 0.0038(5)
O26_2 O 0.0099(4) 0.5960(2) 0.4962(5)
O10_2 O 0.32 0.39 0.02
H1_2 H 0.289856 0.500551 0.00400981
O1_2 O 0.4879(4) 0.4591(2) 0.6806(4)
O6_2 O 0.1899(4) 0.5129(2) 0.4959(5)
O8_2 O 0.5969(4) 0.5647(2) 0.6357(4)
O9_2 O 0.2022(5) 0.4373(3) 0.8077(5)
C3_2 C 0.5249(6) 0.5070(3) 0.5913(6)
C4_2 C 0.0574(6) 0.5313(3) 0.4973(6)
C5_2 C 0.2723(8) 0.4463(4) 0.9485(8)
C6_2 C 0.4751(6) 0.4930(3) 0.4087(6)
O11_2 O 0.5121(4) 0.5409(2) 0.3194(4)
O12_2 O 0.4031(4) 0.4353(2) 0.3643(4)
Nd2_2 Nd 0.73146(3) 0.619235(14) 0.43574(3)
O19_2 O 0.7978(5) 0.5627(3) 0.1923(5)
C10_2 C 0.7277(8) 0.5537(4) 0.0515(8)
O21_2 O 0.5836(4) 0.6866(2) 0.1973(4)
O22_2 O 0.8524(4) 0.6745(2) 0.6972(4)
O23_2 O 0.8567(4) 0.7324(2) 0.3654(5)
O24_2 O 0.5793(4) 0.7186(2) 0.5288(5)
O25_2 O 0.8101(4) 0.4871(2) 0.5041(5)
O20_2 O 0.68 0.61 0.98
H2_2 H 0.710144 0.499449 0.99599
C7_2 C 0.9426(6) 0.4687(3) 0.5027(6)
O14_2 O 0.9901(4) 0.4040(2) 0.5038(5)
C8_2 C 0.7964(6) 0.7690(3) 0.2464(6)
C9_2 C 0.6379(6) 0.7430(3) 0.1488(6)
C1_2 C 0.7964(6) 0.7310(3) 0.7464(6)
C2_2 C 0.6379(6) 0.7570(3) 0.6488(6)
loop_
_geom_bond_atom_site_label_1
_geom_bond_atom_site_label_2
_geom_bond_site_symmetry_1
_geom_bond_site_symmetry_2
Nd1 O1 1_555 1_555
O2 Nd1 1_555 1_555
O3 C1 1_555 1_555
O4 Nd1 1_555 1_555
O5 C2 1_555 1_555
O9 Nd1 1_555 1_555
C1 O4 1_555 1_555
C2 O2 1_555 1_555
C5 O9 1_555 1_555
O10 C5 1_555 1_555
Nd3 O3 1_555 1_555
O5 Nd3 1_555 1_555
C1 C2 1_555 1_555
O15 C9 1_555 1_555
O17 C8 1_555 1_555
C8 O16 1_555 1_555
C9 O18 1_555 1_555
Nd3 O15 1_555 1_555
C6 O12 1_555 1_555
O17 Nd3 1_555 1_555
C8 C9 1_555 1_555
O8 C3 1_555 1_555
O26 C4 1_555 1_555
C4 O6 1_555 1_555
O11 Nd2 1_555 1_555
O19 Nd2 1_555 1_555
C10 O19 1_555 1_555
O20 C10 1_555 1_555
O21 Nd2 1_555 1_555
O23 Nd2 1_555 1_555
O25 C7 1_555 1_555
C7 O14 1_555 1_555
Nd3 O1_2 1_555 1_555
O1_2 C3_2 1_555 1_555
O6_2 Nd3 1_555 1_555
O26_2 C4_2 1_555 1_555
O8_2 C3_2 1_555 1_555
O9_2 Nd3 1_555 1_555
C3_2 C6_2 1_555 1_555
C4_2 O6_2 1_555 1_555
C5_2 O9_2 1_555 1_555
C6_2 O11_2 1_555 1_555
O11_2 Nd2_2 1_555 1_555
O12_2 Nd3 1_555 1_555
Nd2_2 O8_2 1_555 1_555
O19_2 Nd2_2 1_555 1_555
C10_2 O19_2 1_555 1_555
O21_2 Nd2_2 1_555 1_555
O22_2 Nd2_2 1_555 1_555
O23_2 Nd2_2 1_555 1_555
O24_2 Nd2_2 1_555 1_555
O25_2 Nd2_2 1_555 1_555
C6_2 O12_2 1_555 1_555
O25_2 C7_2 1_555 1_555
C7_2 O14_2 1_555 1_555
O21_2 C9_2 1_555 1_555
O23_2 C8_2 1_555 1_555
C8_2 O22 1_555 1_555
C9_2 O24 1_555 1_555
C8_2 C9_2 1_555 1_555
O22_2 C1_2 1_555 1_555
O24_2 C2_2 1_555 1_555
C1_2 O23 1_555 1_555
C2_2 O21 1_555 1_555
C1_2 C2_2 1_555 1_555

#END
