
###############################################################################
#
# This file contains modified crystal structure data generated from the
# MOF subset of the Cambridge Structural Database (CSD) v543 
# hosted by the Cambridge Crystallographic Data Centre (CCDC).
#
# This work is licensed under the Creative Commons
# Attribution-NonCommercial-ShareAlike 4.0 International License.
# To view a copy of this license, visit
# http://creativecommons.org/licenses/by-nc-sa/4.0/
# or send a letter to
# Creative Commons, PO Box 1866, Mountain View, CA 94042, USA.
#
# CIF created using the CSD Python API on 29 September 2022
# The structure has been converted into the P1 space group
# The structure has a 3D framework
# The original CSD entry XOTXUB is in the monoclinic crystal system
# The framework has been calculated to contain at least 10.0% void space
# The void calculation uses a probe of radius 1.32A, grid spacing 0.4
#
###############################################################################

data_XOTXUB
_chemical_formula_moiety         '(C88 H112 Mn4 N16 O24)n'
_symmetry_cell_setting           triclinic
_symmetry_space_group_name_H-M   'P 1'
_symmetry_Int_Tables_number      1
_space_group_name_Hall           'P 1'
loop_
_symmetry_equiv_pos_site_id
_symmetry_equiv_pos_as_xyz
1 x,y,z
_cell_length_a                   22.297(15)
_cell_length_b                   5.501(4)
_cell_length_c                   20.799(13)
_cell_angle_alpha                90
_cell_angle_beta                 97.543(9)
_cell_angle_gamma                90
_cell_volume                     2529.04
loop_
_atom_site_label
_atom_site_type_symbol
_atom_site_fract_x
_atom_site_fract_y
_atom_site_fract_z
C23 C 0.6781(2) 0.1259(8) 0.1154(2)
H29 H 0.7038 0.2527 0.1076
C24 C 0.6177(2) 0.1196(8) 0.0952(2)
H30 H 0.5949 0.2374 0.0711
C3 C 0.1824(2) 0.5810(7) 0.04291(19)
H2 H 0.1775 0.4289 0.0652
H3 H 0.1428 0.6338 0.0228
C4 C 0.2091(2) 0.7719(7) 0.09179(19)
H4 H 0.1823 0.7945 0.1245
H5 H 0.2123 0.9259 0.0698
C5 C 0.2717(2) 0.6944(7) 0.12461(18)
H6 H 0.2893 0.8360 0.1488
C6 C 0.3136(2) 0.6343(8) 0.0740(2)
H7 H 0.3237 0.7834 0.0529
H8 H 0.3509 0.5658 0.0958
C7 C 0.28550(19) 0.4552(8) 0.02236(19)
H10 H 0.2814 0.2974 0.0422
C8 C 0.26716(19) 0.4928(7) 0.17436(18)
C14 C 0.4563(2) 0.3247(8) 0.0039(2)
H16 H 0.4267 0.2078 0.0070
C15 C 0.47427(19) 0.4761(8) 0.0559(2)
H17 H 0.4568 0.4589 0.0939
O3 O 0.23174(13) 0.5358(5) 0.21669(12)
O4 O 0.29659(16) 0.3024(5) 0.17296(16)
C25 C 0.6455(2) 0.7909(8) 0.1494(2)
H31 H 0.6437 0.6402 0.1693
C26 C 0.5349(2) 0.8168(9) 0.1109(2)
H32 H 0.5290 0.7276 0.1498
H33 H 0.5078 0.9555 0.1077
C27 C 0.5179(2) 0.6532(8) 0.0523(2)
N5 N 0.69583(16) 0.9172(6) 0.14917(16)
N6 N 0.59731(16) 0.9050(6) 0.11750(17)
Mn4 Mn 0.78785(3) 0.81180(10) 0.20071(3)
Mn5 Mn 0.21215(3) 0.31180(10) 0.29929(3)
C1 C 0.19810(19) 0.3643(7) 0.93852(19)
C2 C 0.22345(19) 0.5416(7) 0.99071(18)
H1 H 0.2288 0.6986 0.9699
H9 H 0.3121 0.4370 0.9894
C11 C 0.3545(2) 0.2091(8) 0.8506(2)
H13 H 0.3563 0.3598 0.8307
C12 C 0.4651(2) 0.1832(9) 0.8891(2)
H14 H 0.4710 0.2724 0.8502
H15 H 0.4922 0.0445 0.8923
C13 C 0.4821(2) 0.3468(8) 0.9477(2)
C16 C 0.0351(2) 0.4500(10) 0.7006(2)
H18 H 0.0019 0.5536 0.6944
C17 C 0.0834(2) 0.4700(9) 0.7469(2)
H19 H 0.0889 0.5912 0.7783
C18 C 0.0977(2) 0.1583(8) 0.6907(2)
H20 H 0.1150 0.0200 0.6752
C19 C 0.0062(3) 0.1594(10) 0.6068(2)
H22 H 0.0222 0.0059 0.5937
C20 C 0.0027(2) 0.3337(9) 0.5515(2)
C21 C 0.0504(2) 0.3651(11) 0.5168(3)
H23 H 0.0854 0.2739 0.5275
C22 C 0.0474(2) 0.5289(11) 0.4664(3)
H24 H 0.0806 0.5460 0.4440
Mn1 Mn 0.21215(3) 0.18820(10) 0.79929(3)
N1 N 0.30417(16) 0.0828(6) 0.85083(16)
N2 N 0.40269(16) 0.0950(6) 0.88250(17)
N3 N 0.12315(17) 0.2848(6) 0.74049(16)
N4 N 0.04426(18) 0.2489(7) 0.66456(18)
O1 O 0.19775(13) 0.4283(5) 0.87959(13)
O2 O 0.18131(16) 0.1603(5) 0.95509(14)
O6 O 0.25907(14) 0.4942(5) 0.76068(13)
H26 H 0.2722 0.4521 0.7274
H28 H 0.2443 0.6215 0.7420
C28 C 0.5437(2) 0.6753(8) 0.9961(2)
H34 H 0.5733 0.7922 0.9930
C29 C 0.52573(19) 0.5239(8) 0.9441(2)
H35 H 0.5432 0.5411 0.9061
H39 H 0.0343 0.8702 0.3826
C9 C 0.3219(2) 0.8741(8) 0.8846(2)
H11 H 0.2962 0.7473 0.8924
C10 C 0.3823(2) 0.8804(8) 0.9048(2)
H12 H 0.4051 0.7626 0.9289
O5 O 0.16793(13) 0.8956(5) 0.84773(13)
H25 H 0.1617 0.9415 0.8838
H27 H 0.1743 0.7438 0.8544
O14 O 0.23174(13) 0.9642(5) 0.71669(12)
O11 O 0.83207(13) 0.1044(5) 0.15227(13)
H53 H 0.8383 0.0585 0.1162
H55 H 0.8257 0.2562 0.1456
O13 O 0.76826(13) 0.0358(5) 0.28331(12)
H21 H 0.9657 0.1298 0.6174
C30 C 0.9649(2) 0.5500(10) 0.2994(2)
H36 H 0.9981 0.4464 0.3056
C31 C 0.9166(2) 0.5300(9) 0.2531(2)
H37 H 0.9111 0.4088 0.2217
C32 C 0.9023(2) 0.8417(8) 0.3093(2)
H38 H 0.8850 0.9800 0.3248
C33 C 0.9938(3) 0.8406(10) 0.3932(2)
H40 H 0.9778 0.9941 0.4063
C34 C 0.9973(2) 0.6663(9) 0.4485(2)
C35 C 0.9496(2) 0.6349(11) 0.4832(3)
H41 H 0.9146 0.7261 0.4725
C36 C 0.9526(2) 0.4711(11) 0.5336(3)
H42 H 0.9194 0.4540 0.5560
N7 N 0.87685(17) 0.7152(6) 0.25951(16)
N8 N 0.95574(18) 0.7511(7) 0.33544(18)
C37 C 0.80190(19) 0.6357(7) 0.06148(19)
C38 C 0.77655(19) 0.4584(7) 0.00929(18)
H43 H 0.7712 0.3014 0.0301
H51 H 0.6879 0.5630 0.0106
O7 O 0.80225(13) 0.5717(5) 0.12041(13)
O8 O 0.81869(16) 0.8397(5) 0.04491(14)
O12 O 0.74093(14) 0.5058(5) 0.23932(13)
H54 H 0.7278 0.5479 0.2726
H56 H 0.7557 0.3785 0.2580
C39 C 0.8176(2) 0.4190(7) 0.95709(19)
H44 H 0.8225 0.5711 0.9348
H45 H 0.8572 0.3662 0.9772
C40 C 0.7909(2) 0.2281(7) 0.90821(19)
H46 H 0.8177 0.2055 0.8755
H47 H 0.7877 0.0741 0.9302
C41 C 0.7283(2) 0.3056(7) 0.87539(18)
H48 H 0.7107 0.1640 0.8512
C42 C 0.6864(2) 0.3657(8) 0.9260(2)
H49 H 0.6763 0.2166 0.9471
H50 H 0.6491 0.4342 0.9042
C43 C 0.71450(19) 0.5448(8) 0.97764(19)
H52 H 0.7186 0.7026 0.9578
C44 C 0.73284(19) 0.5072(7) 0.82564(18)
O9 O 0.76826(13) 0.4642(5) 0.78331(12)
O10 O 0.70341(16) 0.6976(5) 0.82704(16)
Mn3 Mn 0.78785(3) 0.68820(10) 0.70071(3)
C30_2 C 0.0351(2) 0.0500(10) 0.2006(2)
C31_2 C 0.0834(2) 0.0300(9) 0.2469(2)
C32_2 C 0.0977(2) 0.3417(8) 0.1907(2)
H38_2 H 0.1150 0.4800 0.1752
C33_2 C 0.0062(3) 0.3406(10) 0.1068(2)
H40_2 H 0.0222 0.4941 0.0937
C34_2 C 0.0027(2) 0.1663(9) 0.0515(2)
C35_2 C 0.0504(2) 0.1349(11) 0.0168(3)
H41_2 H 0.0854 0.2261 0.0275
N7_2 N 0.12315(17) 0.2152(6) 0.24049(16)
N8_2 N 0.04426(18) 0.2511(7) 0.16456(18)
C37_2 C 0.19810(19) 0.1357(7) 0.43852(19)
H44_2 H 0.1775 0.0711 0.5652
C43_2 C 0.28550(19) 0.0448(8) 0.52236(19)
H51_2 H 0.3121 0.0630 0.4894
H52_2 H 0.2814 0.2026 0.5422
C44_2 C 0.26716(19) 0.0072(7) 0.67436(18)
O7_2 O 0.19775(13) 0.0717(5) 0.37959(13)
O8_2 O 0.18131(16) 0.3397(5) 0.45509(14)
O10_2 O 0.29659(16) 0.1976(5) 0.67296(16)
O11_2 O 0.16793(13) 0.6044(5) 0.34773(13)
H53_2 H 0.1617 0.5585 0.3838
O12_2 O 0.25907(14) 0.0058(5) 0.26068(13)
H54_2 H 0.2722 0.0479 0.2274
H55_2 H 0.1743 0.7562 0.3544
N9 N 0.30417(16) 0.4172(6) 0.35083(16)
H36_2 H 0.0019 0.9464 0.1944
H37_2 H 0.0889 0.9088 0.2783
C38_2 C 0.22345(19) 0.9584(7) 0.49071(18)
H43_2 H 0.2288 0.8014 0.4699
C39_2 C 0.1824(2) 0.9190(7) 0.54291(19)
H45_2 H 0.1428 0.8662 0.5228
C40_2 C 0.2091(2) 0.7281(7) 0.59179(19)
H46_2 H 0.1823 0.7055 0.6245
H47_2 H 0.2123 0.5741 0.5698
C41_2 C 0.2717(2) 0.8056(7) 0.62461(18)
H48_2 H 0.2893 0.6640 0.6488
C42_2 C 0.3136(2) 0.8657(8) 0.5740(2)
H49_2 H 0.3237 0.7166 0.5529
H50_2 H 0.3509 0.9342 0.5958
H56_2 H 0.2443 0.8785 0.2420
C2_2 C 0.77655(19) 0.0416(7) 0.50929(18)
H1_2 H 0.7712 0.1986 0.5301
C3_2 C 0.8176(2) 0.0810(7) 0.45709(19)
H3_2 H 0.8572 0.1338 0.4772
C4_2 C 0.7909(2) 0.2719(7) 0.40821(19)
H4_2 H 0.8177 0.2945 0.3755
H5_2 H 0.7877 0.4259 0.4302
C5_2 C 0.7283(2) 0.1944(7) 0.37539(18)
H6_2 H 0.7107 0.3360 0.3512
C6_2 C 0.6864(2) 0.1343(8) 0.4260(2)
H7_2 H 0.6763 0.2834 0.4471
H8_2 H 0.6491 0.0658 0.4042
H18_2 H 0.9981 0.0536 0.8056
H19_2 H 0.9111 0.0912 0.7217
H28_2 H 0.7557 0.1215 0.7580
C23_2 C 0.3219(2) 0.6259(8) 0.3846(2)
H29_2 H 0.2962 0.7527 0.3924
C24_2 C 0.3823(2) 0.6196(8) 0.4048(2)
H30_2 H 0.4051 0.7374 0.4289
C25_2 C 0.3545(2) 0.2909(8) 0.3506(2)
H31_2 H 0.3563 0.1402 0.3307
C26_2 C 0.4651(2) 0.3168(9) 0.3891(2)
H32_2 H 0.4710 0.2276 0.3502
H33_2 H 0.4922 0.4555 0.3923
C27_2 C 0.4821(2) 0.1532(8) 0.4477(2)
C28_2 C 0.4563(2) 0.1753(8) 0.5039(2)
H34_2 H 0.4267 0.2922 0.5070
C29_2 C 0.47427(19) 0.0239(8) 0.5559(2)
H35_2 H 0.4568 0.0411 0.5939
N6_2 N 0.40269(16) 0.4050(6) 0.38250(17)
C1_2 C 0.80190(19) 0.8643(7) 0.56148(19)
H2_2 H 0.8225 0.9289 0.4348
C7_2 C 0.71450(19) 0.9552(8) 0.47764(19)
H9_2 H 0.6879 0.9370 0.5106
H10_2 H 0.7186 0.7974 0.4578
C8_2 C 0.73284(19) 0.9928(7) 0.32564(18)
C9_2 C 0.6781(2) 0.3741(8) 0.6154(2)
H11_2 H 0.7038 0.2473 0.6076
C10_2 C 0.6177(2) 0.3804(8) 0.5952(2)
H12_2 H 0.5949 0.2626 0.5711
C11_2 C 0.6455(2) 0.7091(8) 0.6494(2)
H13_2 H 0.6437 0.8598 0.6693
C12_2 C 0.5349(2) 0.6832(9) 0.6109(2)
H14_2 H 0.5290 0.7724 0.6498
H15_2 H 0.5078 0.5445 0.6077
C13_2 C 0.5179(2) 0.8468(8) 0.5523(2)
C14_2 C 0.5437(2) 0.8247(8) 0.4961(2)
H16_2 H 0.5733 0.7078 0.4930
C15_2 C 0.52573(19) 0.9761(8) 0.4441(2)
H17_2 H 0.5432 0.9589 0.4061
C16_2 C 0.9649(2) 0.9500(10) 0.7994(2)
C17_2 C 0.9166(2) 0.9700(9) 0.7531(2)
C18_2 C 0.9023(2) 0.6583(8) 0.8093(2)
H20_2 H 0.8850 0.5200 0.8248
C19_2 C 0.9938(3) 0.6594(10) 0.8932(2)
H22_2 H 0.9778 0.5059 0.9063
C20_2 C 0.9973(2) 0.8337(9) 0.9485(2)
C21_2 C 0.9496(2) 0.8651(11) 0.9832(3)
H23_2 H 0.9146 0.7739 0.9725
N1_2 N 0.69583(16) 0.5828(6) 0.64917(16)
N2_2 N 0.59731(16) 0.5950(6) 0.61750(17)
N3_2 N 0.87685(17) 0.7848(6) 0.75951(16)
N4_2 N 0.95574(18) 0.7489(7) 0.83544(18)
O1_2 O 0.80225(13) 0.9283(5) 0.62041(13)
O2_2 O 0.81869(16) 0.6603(5) 0.54491(14)
O4_2 O 0.70341(16) 0.8024(5) 0.32704(16)
O5_2 O 0.83207(13) 0.3956(5) 0.65227(13)
H25_2 H 0.8383 0.4415 0.6162
O6_2 O 0.74093(14) 0.9942(5) 0.73932(13)
H26_2 H 0.7278 0.9521 0.7726
H27_2 H 0.8257 0.2438 0.6456
H21_2 H 0.0343 0.6298 0.8826
C36_2 C 0.0474(2) 0.9711(11) 0.9664(3)
H42_2 H 0.0806 0.9540 0.9440
C22_2 C 0.9526(2) 0.0289(11) 0.0336(3)
H24_2 H 0.9194 0.0460 0.0560
H39_2 H 0.9657 0.3702 0.1174
loop_
_geom_bond_atom_site_label_1
_geom_bond_atom_site_label_2
_geom_bond_site_symmetry_1
_geom_bond_site_symmetry_2
C23 H29 1_555 1_555
C24 C23 1_555 1_555
H30 C24 1_555 1_555
H2 C3 1_555 1_555
H3 C3 1_555 1_555
C4 C3 1_555 1_555
H4 C4 1_555 1_555
H5 C4 1_555 1_555
C5 C4 1_555 1_555
H6 C5 1_555 1_555
C6 C5 1_555 1_555
H7 C6 1_555 1_555
H8 C6 1_555 1_555
H10 C7 1_555 1_555
C8 C5 1_555 1_555
H16 C14 1_555 1_555
C15 C14 1_555 1_555
H17 C15 1_555 1_555
O3 C8 1_555 1_555
O4 C8 1_555 1_555
C25 H31 1_555 1_555
C26 H32 1_555 1_555
H33 C26 1_555 1_555
C27 C15 1_555 1_555
Mn4 N5 1_555 1_555
Mn5 O3 1_555 1_555
C6 C7 1_555 1_555
C25 N5 1_555 1_555
C25 N6 1_555 1_555
C26 C27 1_555 1_555
C26 N6 1_555 1_555
C1 C2 1_555 1_555
C2 H1 1_555 1_555
C11 H13 1_555 1_555
C12 H14 1_555 1_555
H15 C12 1_555 1_555
C13 C12 1_555 1_555
C16 H18 1_555 1_555
C17 C16 1_555 1_555
H19 C17 1_555 1_555
C18 H20 1_555 1_555
H22 C19 1_555 1_555
C20 C19 1_555 1_555
C21 C20 1_555 1_555
H23 C21 1_555 1_555
C22 C21 1_555 1_555
H24 C22 1_555 1_555
Mn1 N1 1_555 1_555
N3 C17 1_555 1_555
N4 C16 1_555 1_555
O1 C1 1_555 1_555
O2 C1 1_555 1_555
O6 Mn1 1_555 1_555
H26 O6 1_555 1_555
H28 O6 1_555 1_555
H34 C28 1_555 1_555
C29 C13 1_555 1_555
H35 C29 1_555 1_555
C11 N1 1_555 1_555
C11 N2 1_555 1_555
C12 N2 1_555 1_555
C18 N3 1_555 1_555
C18 N4 1_555 1_555
C19 N4 1_555 1_555
Mn1 N3 1_555 1_555
Mn1 O1 1_555 1_555
C28 C29 1_555 1_555
C9 H11 1_555 1_555
C10 C9 1_555 1_555
H12 C10 1_555 1_555
H25 O5 1_555 1_555
H27 O5 1_555 1_555
H53 O11 1_555 1_555
H55 O11 1_555 1_555
C30 H36 1_555 1_555
C31 C30 1_555 1_555
H37 C31 1_555 1_555
C32 H38 1_555 1_555
H40 C33 1_555 1_555
C35 C34 1_555 1_555
H41 C35 1_555 1_555
H42 C36 1_555 1_555
N7 C31 1_555 1_555
N8 C30 1_555 1_555
C37 C38 1_555 1_555
C38 H43 1_555 1_555
Mn4 N7 1_555 1_555
O7 C37 1_555 1_555
O8 C37 1_555 1_555
O12 Mn4 1_555 1_555
H54 O12 1_555 1_555
H56 O12 1_555 1_555
C32 N7 1_555 1_555
C32 N8 1_555 1_555
C33 C34 1_555 1_555
C33 N8 1_555 1_555
C35 C36 1_555 1_555
Mn4 O7 1_555 1_555
H44 C39 1_555 1_555
H45 C39 1_555 1_555
C40 C39 1_555 1_555
H46 C40 1_555 1_555
H47 C40 1_555 1_555
C41 C40 1_555 1_555
H48 C41 1_555 1_555
C42 C41 1_555 1_555
H49 C42 1_555 1_555
H50 C42 1_555 1_555
H52 C43 1_555 1_555
C44 C41 1_555 1_555
O9 C44 1_555 1_555
O10 C44 1_555 1_555
Mn3 O9 1_555 1_555
C42 C43 1_555 1_555
C31_2 C30_2 1_555 1_555
C32_2 H38_2 1_555 1_555
H40_2 C33_2 1_555 1_555
C35_2 C34_2 1_555 1_555
H41_2 C35_2 1_555 1_555
N7_2 C31_2 1_555 1_555
N8_2 C30_2 1_555 1_555
H51_2 C43_2 1_555 1_555
H52_2 C43_2 1_555 1_555
Mn5 N7_2 1_555 1_555
O7_2 C37_2 1_555 1_555
O8_2 C37_2 1_555 1_555
O10_2 C44_2 1_555 1_555
O11_2 Mn5 1_555 1_555
H53_2 O11_2 1_555 1_555
O12_2 Mn5 1_555 1_555
H54_2 O12_2 1_555 1_555
H55_2 O11_2 1_555 1_555
N9 Mn5 1_555 1_555
C32_2 N7_2 1_555 1_555
C32_2 N8_2 1_555 1_555
C33_2 C34_2 1_555 1_555
C33_2 N8_2 1_555 1_555
Mn5 O7_2 1_555 1_555
C38_2 H43_2 1_555 1_555
C39_2 C38_2 1_555 1_555
H45_2 C39_2 1_555 1_555
C40_2 C39_2 1_555 1_555
H46_2 C40_2 1_555 1_555
H47_2 C40_2 1_555 1_555
C41_2 C40_2 1_555 1_555
H48_2 C41_2 1_555 1_555
C42_2 C41_2 1_555 1_555
H49_2 C42_2 1_555 1_555
H50_2 C42_2 1_555 1_555
C2_2 H1_2 1_555 1_555
C3_2 C2_2 1_555 1_555
H3_2 C3_2 1_555 1_555
C4_2 C3_2 1_555 1_555
H4_2 C4_2 1_555 1_555
H5_2 C4_2 1_555 1_555
C5_2 C4_2 1_555 1_555
H6_2 C5_2 1_555 1_555
C6_2 C5_2 1_555 1_555
H7_2 C6_2 1_555 1_555
H8_2 C6_2 1_555 1_555
C23_2 H29_2 1_555 1_555
C24_2 C23_2 1_555 1_555
H30_2 C24_2 1_555 1_555
C25_2 H31_2 1_555 1_555
C26_2 H32_2 1_555 1_555
H33_2 C26_2 1_555 1_555
C28_2 C27_2 1_555 1_555
H34_2 C28_2 1_555 1_555
H35_2 C29_2 1_555 1_555
N9 C23_2 1_555 1_555
N6_2 C24_2 1_555 1_555
C25_2 N9 1_555 1_555
C25_2 N6_2 1_555 1_555
C26_2 C27_2 1_555 1_555
C26_2 N6_2 1_555 1_555
C28_2 C29_2 1_555 1_555
H9_2 C7_2 1_555 1_555
H10_2 C7_2 1_555 1_555
C9_2 H11_2 1_555 1_555
C10_2 C9_2 1_555 1_555
H12_2 C10_2 1_555 1_555
C11_2 H13_2 1_555 1_555
C12_2 H14_2 1_555 1_555
H15_2 C12_2 1_555 1_555
C13_2 C12_2 1_555 1_555
C14_2 C13_2 1_555 1_555
H16_2 C14_2 1_555 1_555
C15_2 C14_2 1_555 1_555
H17_2 C15_2 1_555 1_555
C17_2 C16_2 1_555 1_555
C18_2 H20_2 1_555 1_555
H22_2 C19_2 1_555 1_555
C20_2 C19_2 1_555 1_555
C21_2 C20_2 1_555 1_555
H23_2 C21_2 1_555 1_555
Mn3 N1_2 1_555 1_555
N1_2 C9_2 1_555 1_555
N2_2 C10_2 1_555 1_555
N3_2 C17_2 1_555 1_555
N4_2 C16_2 1_555 1_555
O1_2 C1_2 1_555 1_555
O2_2 C1_2 1_555 1_555
O4_2 C8_2 1_555 1_555
O5_2 Mn3 1_555 1_555
H25_2 O5_2 1_555 1_555
O6_2 Mn3 1_555 1_555
H26_2 O6_2 1_555 1_555
H27_2 O5_2 1_555 1_555
C11_2 N1_2 1_555 1_555
C11_2 N2_2 1_555 1_555
C12_2 N2_2 1_555 1_555
C18_2 N3_2 1_555 1_555
C18_2 N4_2 1_555 1_555
C19_2 N4_2 1_555 1_555
Mn3 N3_2 1_555 1_555
Mn3 O1_2 1_555 1_555
H42_2 C36_2 1_555 1_555
H24_2 C22_2 1_555 1_555

#END
