
###############################################################################
#
# This file contains modified crystal structure data generated from the
# MOF subset of the Cambridge Structural Database (CSD) v543 
# hosted by the Cambridge Crystallographic Data Centre (CCDC).
#
# This work is licensed under the Creative Commons
# Attribution-NonCommercial-ShareAlike 4.0 International License.
# To view a copy of this license, visit
# http://creativecommons.org/licenses/by-nc-sa/4.0/
# or send a letter to
# Creative Commons, PO Box 1866, Mountain View, CA 94042, USA.
#
# CIF created using the CSD Python API on 29 September 2022
# The structure has been converted into the P1 space group
# The structure has a 3D framework
# The original CSD entry XOTXAG is in the monoclinic crystal system
# The framework has been calculated to contain at least 10.0% void space
# The void calculation uses a probe of radius 1.32A, grid spacing 0.4
# H atom positions have been added when not included in the experimental data
#
###############################################################################

data_XOTXAG
_chemical_formula_moiety         '(C56 H48 La4 Na4 O55)n'
_symmetry_cell_setting           triclinic
_symmetry_space_group_name_H-M   'P 1'
_symmetry_Int_Tables_number      1
_space_group_name_Hall           'P 1'
loop_
_symmetry_equiv_pos_site_id
_symmetry_equiv_pos_as_xyz
1 x,y,z
_cell_length_a                   6.44670(10)
_cell_length_b                   21.6974(3)
_cell_length_c                   16.6485(3)
_cell_angle_alpha                90
_cell_angle_beta                 91.2830(10)
_cell_angle_gamma                90
_cell_volume                     2328.15
loop_
_atom_site_label
_atom_site_type_symbol
_atom_site_fract_x
_atom_site_fract_y
_atom_site_fract_z
La1 La 0.43754(2) 0.077726(8) 0.219314(10)
Na1 Na 0.3883(2) 0.07417(7) 0.46196(10)
C1 C 0.2059(4) 0.27018(15) 0.28712(18)
C2 C 0.3426(5) 0.30909(15) 0.3271(2)
H1 H 0.4565 0.2928 0.3550
C3 C 0.3106(5) 0.37301(15) 0.3260(2)
H2 H 0.4030 0.3987 0.3536
C4 C 0.1454(4) 0.39793(14) 0.28484(19)
C6 C 0.0133(4) 0.29374(14) 0.25555(18)
C11 C 0.2855(4) 0.20751(15) 0.26575(19)
C12 C 0.1643(4) 0.46418(14) 0.25918(19)
O1 O 0.4055(4) 0.17932(11) 0.31421(15)
O2 O 0.2441(3) 0.18588(11) 0.19698(14)
O7 O 0.1015(3) 0.47786(11) 0.18924(14)
O8 O 0.2557(3) 0.50210(10) 0.30642(14)
O9 O 0.0855(4) 0.07847(11) 0.14021(17)
O10 O 0.4997(4) 0.07982(15) 0.07188(17)
O11 O 0.6455(3) 0.07518(10) 0.35489(14)
O12 O 0.1613(3) 0.07613(10) 0.33300(15)
O13 O 0.4818(5) 0.18490(15) 0.47408(17)
O14 O 0.1160(5) 0.09837(16) 0.55276(19)
O15 O 0.6878(5) 0.03670(15) 0.53663(17)
La4 La 0.56246(2) 0.577726(8) 0.280686(10)
O16 O 0.7431(3) 0.15057(11) 0.20044(14)
O19 O 0.7443(3) 0.00210(10) 0.19358(14)
H6 H 0.0984048 0.0637118 0.59096
H7 H 0.0724913 0.117316 0.108967
H8 H 0.0794906 0.0427561 0.102933
H9 H 0.633495 0.100818 0.0618217
H10 H 0.505124 0.0369674 0.0510923
H11 H 0.450808 0.206079 0.422316
H12 H 0.399889 0.204139 0.517226
Na2 Na 0.6117(2) 0.92583(7) 0.53804(10)
O17 O 0.4065(3) 0.97337(11) 0.30677(15)
O18 O 0.2483(3) 0.96792(11) 0.18818(15)
O20 O 0.3122(5) 0.96330(15) 0.46337(17)
C5 C 0.9815(4) 0.35853(14) 0.25438(18)
C7 C 0.8511(4) 0.25432(14) 0.22400(18)
C8 C 0.6878(4) 0.27996(15) 0.18213(19)
H3 H 0.5966 0.2546 0.1533
C9 C 0.6556(5) 0.34375(15) 0.1819(2)
H4 H 0.5424 0.3601 0.1537
C10 C 0.7887(4) 0.38237(15) 0.22281(19)
C13 C 0.8332(4) 0.18748(14) 0.24786(19)
C14 C 0.7098(4) 0.44557(15) 0.2433(2)
O3 O 0.8981(3) 0.17387(11) 0.31815(14)
O5 O 0.5935(3) 0.47337(11) 0.19323(15)
O6 O 0.7517(3) 0.46792(11) 0.31182(15)
H5 H 0.98441 0.104996 0.521822
C5_2 C 0.0185(4) 0.85853(14) 0.24562(18)
C7_2 C 0.1489(4) 0.75432(14) 0.27600(18)
C8_2 C 0.3122(4) 0.77996(15) 0.31787(19)
H3_2 H 0.4034 0.7546 0.3467
C9_2 C 0.3444(5) 0.84375(15) 0.3181(2)
H4_2 H 0.4576 0.8601 0.3463
C10_2 C 0.2113(4) 0.88237(15) 0.27719(19)
C13_2 C 0.1668(4) 0.68748(14) 0.25214(19)
C14_2 C 0.2902(4) 0.94557(15) 0.2567(2)
O3_2 O 0.1019(3) 0.67387(11) 0.18185(14)
O4 O 0.2569(3) 0.65057(11) 0.29956(14)
Na1_2 Na 0.6117(2) 0.57417(7) 0.03804(10)
C1_2 C 0.7941(4) 0.77018(15) 0.21288(18)
C2_2 C 0.6574(5) 0.80909(15) 0.1729(2)
H1_2 H 0.5435 0.7928 0.1450
C3_2 C 0.6894(5) 0.87301(15) 0.1740(2)
H2_2 H 0.5970 0.8987 0.1464
C4_2 C 0.8546(4) 0.89793(14) 0.21516(19)
C6_2 C 0.9867(4) 0.79374(14) 0.24445(18)
C11_2 C 0.7145(4) 0.70751(15) 0.23425(19)
C12_2 C 0.8357(4) 0.96418(14) 0.24082(19)
O1_2 O 0.5945(4) 0.67932(11) 0.18579(15)
O2_2 O 0.7559(3) 0.68588(11) 0.30302(14)
O7_2 O 0.8985(3) 0.97786(11) 0.31076(14)
O9_2 O 0.9145(4) 0.57847(11) 0.35979(17)
O10_2 O 0.5003(4) 0.57982(15) 0.42812(17)
O11_2 O 0.3545(3) 0.57518(10) 0.14511(14)
O12_2 O 0.8387(3) 0.57613(10) 0.16700(15)
O13_2 O 0.5182(5) 0.68490(15) 0.02592(17)
O20_2 O 0.6878(5) 0.46330(15) 0.03663(17)
H7_2 H 0.927509 0.617316 0.391033
H8_2 H 0.920509 0.542756 0.397067
H9_2 H 0.366505 0.600818 0.438178
H10_2 H 0.494876 0.536967 0.448908
H11_2 H 0.549192 0.706079 0.0776837
O14_2 O 0.8840(5) 0.59837(16) 0.94724(19)
O15_2 O 0.3122(5) 0.53670(15) 0.96337(17)
Na2_2 Na 0.3883(2) 0.42583(7) 0.96196(10)
H6_2 H 0.901595 0.563712 0.90904
H12_2 H 0.600111 0.704139 0.982774
C5_3 C 0.0185(4) 0.64147(14) 0.74562(18)
C7_3 C 0.1489(4) 0.74568(14) 0.77600(18)
C8_3 C 0.3122(4) 0.72004(15) 0.81787(19)
H3_3 H 0.4034 0.7454 0.8467
C9_3 C 0.3444(5) 0.65625(15) 0.8181(2)
H4_3 H 0.4576 0.6399 0.8463
C10_3 C 0.2113(4) 0.61763(15) 0.77719(19)
C13_3 C 0.1668(4) 0.81252(14) 0.75214(19)
C14_3 C 0.2902(4) 0.55443(15) 0.7567(2)
O3_3 O 0.1019(3) 0.82613(11) 0.68185(14)
O4_2 O 0.2569(3) 0.84943(11) 0.79956(14)
O5_2 O 0.4065(3) 0.52663(11) 0.80677(15)
O6_2 O 0.2483(3) 0.53208(11) 0.68818(15)
La2 La 0.56246(2) 0.922274(8) 0.780686(10)
La3 La 0.43754(2) 0.422274(8) 0.719314(10)
H5_2 H 0.0155896 0.895004 0.478178
O17_2 O 0.5935(3) 0.02663(11) 0.69323(15)
O18_2 O 0.7517(3) 0.03208(11) 0.81182(15)
C1_3 C 0.7941(4) 0.72982(15) 0.71288(18)
C2_3 C 0.6574(5) 0.69091(15) 0.6729(2)
H1_3 H 0.5435 0.7072 0.6450
C3_3 C 0.6894(5) 0.62699(15) 0.6740(2)
H2_3 H 0.5970 0.6013 0.6464
C4_3 C 0.8546(4) 0.60207(14) 0.71516(19)
C6_3 C 0.9867(4) 0.70626(14) 0.74445(18)
C11_3 C 0.7145(4) 0.79249(15) 0.73425(19)
C12_3 C 0.8357(4) 0.53582(14) 0.74082(19)
O1_3 O 0.5945(4) 0.82068(11) 0.68579(15)
O2_3 O 0.7559(3) 0.81412(11) 0.80302(14)
O7_3 O 0.8985(3) 0.52214(11) 0.81076(14)
O8_2 O 0.7443(3) 0.49790(10) 0.69358(14)
O9_3 O 0.9145(4) 0.92153(11) 0.85979(17)
O10_3 O 0.5003(4) 0.92018(15) 0.92812(17)
O11_3 O 0.3545(3) 0.92482(10) 0.64511(14)
O12_3 O 0.8387(3) 0.92387(10) 0.66700(15)
O13_3 O 0.5182(5) 0.81510(15) 0.52592(17)
O14_3 O 0.8840(5) 0.90163(16) 0.44724(19)
O19_2 O 0.2557(3) 0.99790(10) 0.80642(14)
H6_3 H 0.901595 0.936288 0.40904
H7_3 H 0.927509 0.882684 0.891033
H8_3 H 0.920509 0.957244 0.897067
H9_3 H 0.366505 0.899182 0.938178
H10_3 H 0.494876 0.963033 0.948908
H11_3 H 0.549192 0.793921 0.577684
H12_3 H 0.600111 0.795861 0.482774
O14_4 O 0.1160(5) 0.40163(16) 0.05276(19)
H6_4 H 0.0984048 0.436288 0.0909598
H12_4 H 0.399889 0.295861 0.0172256
C1_4 C 0.2059(4) 0.22982(15) 0.78712(18)
C2_4 C 0.3426(5) 0.19091(15) 0.8271(2)
H1_4 H 0.4565 0.2072 0.8550
C3_4 C 0.3106(5) 0.12699(15) 0.8260(2)
H2_4 H 0.4030 0.1013 0.8536
C4_4 C 0.1454(4) 0.10207(14) 0.78484(19)
C6_4 C 0.0133(4) 0.20626(14) 0.75555(18)
C11_4 C 0.2855(4) 0.29249(15) 0.76575(19)
C12_4 C 0.1643(4) 0.03582(14) 0.75918(19)
O1_4 O 0.4055(4) 0.32068(11) 0.81421(15)
O2_4 O 0.2441(3) 0.31412(11) 0.69698(14)
O7_4 O 0.1015(3) 0.02214(11) 0.68924(14)
O9_4 O 0.0855(4) 0.42153(11) 0.64021(17)
O10_4 O 0.4997(4) 0.42018(15) 0.57188(17)
O11_4 O 0.6455(3) 0.42482(10) 0.85489(14)
O12_4 O 0.1613(3) 0.42387(10) 0.83300(15)
O13_4 O 0.4818(5) 0.31510(15) 0.97408(17)
O16_2 O 0.7431(3) 0.34943(11) 0.70044(14)
H7_4 H 0.0724913 0.382684 0.608967
H8_4 H 0.0794906 0.457244 0.602933
H9_4 H 0.633495 0.399182 0.561822
H10_4 H 0.505124 0.463033 0.551092
H11_4 H 0.450808 0.293921 0.922316
C5_4 C 0.9815(4) 0.14147(14) 0.75438(18)
C7_4 C 0.8511(4) 0.24568(14) 0.72400(18)
C8_4 C 0.6878(4) 0.22004(15) 0.68213(19)
H3_4 H 0.5966 0.2454 0.6533
C9_4 C 0.6556(5) 0.15625(15) 0.6819(2)
H4_4 H 0.5424 0.1399 0.6537
C10_4 C 0.7887(4) 0.11763(15) 0.72281(19)
C13_4 C 0.8332(4) 0.31252(14) 0.74786(19)
C14_4 C 0.7098(4) 0.05443(15) 0.7433(2)
O3_4 O 0.8981(3) 0.32613(11) 0.81815(14)
H5_3 H 0.0155896 0.604996 0.978178
H5_4 H 0.98441 0.395004 0.0218216
loop_
_geom_bond_atom_site_label_1
_geom_bond_atom_site_label_2
_geom_bond_site_symmetry_1
_geom_bond_site_symmetry_2
La1 O1 1_555 1_555
Na1 O11 1_555 1_555
C1 C2 1_555 1_555
C2 H1 1_555 1_555
C3 C2 1_555 1_555
H2 C3 1_555 1_555
C4 C3 1_555 1_555
C6 C1 1_555 1_555
C11 C1 1_555 1_555
C12 C4 1_555 1_555
O1 C11 1_555 1_555
O2 La1 1_555 1_555
O7 C12 1_555 1_555
O8 C12 1_555 1_555
O9 La1 1_555 1_555
O10 La1 1_555 1_555
O11 La1 1_555 1_555
O12 La1 1_555 1_555
O13 Na1 1_555 1_555
O14 Na1 1_555 1_555
O15 Na1 1_555 1_555
La4 O8 1_555 1_555
O16 La1 1_555 1_555
O19 La1 1_555 1_555
Na1 O12 1_555 1_555
C11 O2 1_555 1_555
O14 H6 1_555 1_555
O9 H7 1_555 1_555
O9 H8 1_555 1_555
O10 H9 1_555 1_555
O10 H10 1_555 1_555
O13 H11 1_555 1_555
O13 H12 1_555 1_555
Na2 O20 1_555 1_555
C8 C7 1_555 1_555
H3 C8 1_555 1_555
C9 C8 1_555 1_555
H4 C9 1_555 1_555
C10 C5 1_555 1_555
C13 C7 1_555 1_555
C14 C10 1_555 1_555
O3 C13 1_555 1_555
O16 C13 1_555 1_555
O5 C14 1_555 1_555
O6 C14 1_555 1_555
La4 O5 1_555 1_555
C9 C10 1_555 1_555
O6 La4 1_555 1_555
C8_2 C7_2 1_555 1_555
H3_2 C8_2 1_555 1_555
C9_2 C8_2 1_555 1_555
H4_2 C9_2 1_555 1_555
C10_2 C5_2 1_555 1_555
C13_2 C7_2 1_555 1_555
C14_2 C10_2 1_555 1_555
O3_2 C13_2 1_555 1_555
O4 C13_2 1_555 1_555
O17 C14_2 1_555 1_555
O18 C14_2 1_555 1_555
La4 O4 1_555 1_555
C9_2 C10_2 1_555 1_555
La4 O1_2 1_555 1_555
Na1_2 O11_2 1_555 1_555
C1_2 C2_2 1_555 1_555
C2_2 H1_2 1_555 1_555
C3_2 C2_2 1_555 1_555
H2_2 C3_2 1_555 1_555
C4_2 C3_2 1_555 1_555
C6_2 C1_2 1_555 1_555
C11_2 C1_2 1_555 1_555
C12_2 C4_2 1_555 1_555
O1_2 C11_2 1_555 1_555
O2_2 La4 1_555 1_555
O7_2 C12_2 1_555 1_555
O9_2 La4 1_555 1_555
O10_2 La4 1_555 1_555
O11_2 La4 1_555 1_555
O12_2 La4 1_555 1_555
O13_2 Na1_2 1_555 1_555
O20_2 Na1_2 1_555 1_555
Na1_2 O12_2 1_555 1_555
C11_2 O2_2 1_555 1_555
O9_2 H7_2 1_555 1_555
O9_2 H8_2 1_555 1_555
O10_2 H9_2 1_555 1_555
O10_2 H10_2 1_555 1_555
O13_2 H11_2 1_555 1_555
Na2_2 O15_2 1_555 1_555
O14_2 H6_2 1_555 1_555
C8_3 C7_3 1_555 1_555
H3_3 C8_3 1_555 1_555
C9_3 C8_3 1_555 1_555
H4_3 C9_3 1_555 1_555
C10_3 C5_3 1_555 1_555
C13_3 C7_3 1_555 1_555
C14_3 C10_3 1_555 1_555
O3_3 C13_3 1_555 1_555
O4_2 C13_3 1_555 1_555
O5_2 C14_3 1_555 1_555
O6_2 C14_3 1_555 1_555
La2 O4_2 1_555 1_555
La3 O5_2 1_555 1_555
C9_3 C10_3 1_555 1_555
O6_2 La3 1_555 1_555
La2 O1_3 1_555 1_555
Na2 O11_3 1_555 1_555
C1_3 C2_3 1_555 1_555
C2_3 H1_3 1_555 1_555
C3_3 C2_3 1_555 1_555
H2_3 C3_3 1_555 1_555
C4_3 C3_3 1_555 1_555
C6_3 C1_3 1_555 1_555
C11_3 C1_3 1_555 1_555
C12_3 C4_3 1_555 1_555
O1_3 C11_3 1_555 1_555
O2_3 La2 1_555 1_555
O7_3 C12_3 1_555 1_555
O8_2 C12_3 1_555 1_555
O9_3 La2 1_555 1_555
O10_3 La2 1_555 1_555
O11_3 La2 1_555 1_555
O12_3 La2 1_555 1_555
O13_3 Na2 1_555 1_555
O14_3 Na2 1_555 1_555
La3 O8_2 1_555 1_555
O19_2 La2 1_555 1_555
Na2 O12_3 1_555 1_555
C11_3 O2_3 1_555 1_555
O14_3 H6_3 1_555 1_555
O9_3 H7_3 1_555 1_555
O9_3 H8_3 1_555 1_555
O10_3 H9_3 1_555 1_555
O10_3 H10_3 1_555 1_555
O13_3 H11_3 1_555 1_555
O13_3 H12_3 1_555 1_555
O14_4 H6_4 1_555 1_555
La3 O1_4 1_555 1_555
Na2_2 O11_4 1_555 1_555
C1_4 C2_4 1_555 1_555
C2_4 H1_4 1_555 1_555
C3_4 C2_4 1_555 1_555
H2_4 C3_4 1_555 1_555
C4_4 C3_4 1_555 1_555
C6_4 C1_4 1_555 1_555
C11_4 C1_4 1_555 1_555
C12_4 C4_4 1_555 1_555
O1_4 C11_4 1_555 1_555
O2_4 La3 1_555 1_555
O7_4 C12_4 1_555 1_555
O9_4 La3 1_555 1_555
O10_4 La3 1_555 1_555
O11_4 La3 1_555 1_555
O12_4 La3 1_555 1_555
O13_4 Na2_2 1_555 1_555
O16_2 La3 1_555 1_555
Na2_2 O12_4 1_555 1_555
C11_4 O2_4 1_555 1_555
O9_4 H7_4 1_555 1_555
O9_4 H8_4 1_555 1_555
O10_4 H9_4 1_555 1_555
O10_4 H10_4 1_555 1_555
O13_4 H11_4 1_555 1_555
C8_4 C7_4 1_555 1_555
H3_4 C8_4 1_555 1_555
C9_4 C8_4 1_555 1_555
H4_4 C9_4 1_555 1_555
C10_4 C5_4 1_555 1_555
C13_4 C7_4 1_555 1_555
C14_4 C10_4 1_555 1_555
O3_4 C13_4 1_555 1_555
O16_2 C13_4 1_555 1_555
O17_2 C14_4 1_555 1_555
O18_2 C14_4 1_555 1_555
C9_4 C10_4 1_555 1_555

#END
