
###############################################################################
#
# This file contains modified crystal structure data generated from the
# MOF subset of the Cambridge Structural Database (CSD) v543 
# hosted by the Cambridge Crystallographic Data Centre (CCDC).
#
# This work is licensed under the Creative Commons
# Attribution-NonCommercial-ShareAlike 4.0 International License.
# To view a copy of this license, visit
# http://creativecommons.org/licenses/by-nc-sa/4.0/
# or send a letter to
# Creative Commons, PO Box 1866, Mountain View, CA 94042, USA.
#
# CIF created using the CSD Python API on 29 September 2022
# The structure has been converted into the P1 space group
# The structure has a 3D framework
# The original CSD entry XOVHIC is in the triclinic crystal system
# The framework has been calculated to contain at least 10.0% void space
# The void calculation uses a probe of radius 1.32A, grid spacing 0.4
#
###############################################################################

data_XOVHIC
_chemical_formula_moiety         '(C48 H36 N8 Ni4 O18)n'
_symmetry_cell_setting           triclinic
_symmetry_space_group_name_H-M   'P 1'
_symmetry_Int_Tables_number      1
_space_group_name_Hall           'P 1'
loop_
_symmetry_equiv_pos_site_id
_symmetry_equiv_pos_as_xyz
1 x,y,z
_cell_length_a                   10.5356(13)
_cell_length_b                   11.8154(14)
_cell_length_c                   13.9691(16)
_cell_angle_alpha                105.856(2)
_cell_angle_beta                 103.440(2)
_cell_angle_gamma                111.325(2)
_cell_volume                     1447.47
loop_
_atom_site_label
_atom_site_type_symbol
_atom_site_fract_x
_atom_site_fract_y
_atom_site_fract_z
Ni2 Ni 0.01847(6) 0.22350(5) 0.21269(4)
C7 C 0.4142(6) 0.2244(5) 0.6884(4)
H5 H 0.4782 0.2376 0.7534
C8 C 0.4465(7) 0.3260(6) 0.6534(5)
H6 H 0.5333 0.4041 0.6922
C9 C 0.3479(6) 0.3105(5) 0.5598(4)
H7 H 0.3666 0.3788 0.5358
C10 C 0.2212(5) 0.1916(4) 0.5023(3)
C11 C 0.2022(5) 0.0938(4) 0.5416(3)
H8 H 0.1194 0.0126 0.5021
C12 C 0.1034(5) 0.1702(4) 0.4045(3)
C19 C 0.1211(6) 0.4912(5) 0.2008(4)
H13 H 0.1062 0.4424 0.1309
C20 C 0.1672(7) 0.6247(5) 0.2322(4)
H14 H 0.1849 0.6654 0.1850
C21 C 0.1868(6) 0.6972(5) 0.3346(4)
H15 H 0.2154 0.7874 0.3572
C22 C 0.1636(5) 0.6347(4) 0.4035(3)
C23 C 0.1178(5) 0.4999(4) 0.3658(3)
H16 H 0.1010 0.4573 0.4119
C24 C 0.1804(5) 0.7076(5) 0.5168(4)
N2 N 0.2955(4) 0.1082(3) 0.6331(3)
N4 N 0.0965(4) 0.4278(3) 0.2654(3)
O3 O 0.1418(3) 0.2493(3) 0.3593(2)
O7 O 0.2034(3) 0.8264(3) 0.5420(2)
O8 O 0.1705(5) 0.6463(3) 0.5771(3)
Ni4 Ni 0.23680(6) 0.95636(5) 0.68942(4)
N5 N 0.1897(4) 0.2305(3) 0.1583(3)
Ni1 Ni 0.76320(6) 0.04364(5) 0.31058(4)
C13 C 0.4683(5) 0.0319(5) 0.3171(3)
H9 H 0.5192 0.0711 0.3908
H10 H 0.2762 0.0203 0.3262
N3 N 0.5408(4) 0.0095(4) 0.2535(3)
O1 O 0.9380(3) 0.0189(3) 0.1493(2)
O4 O 0.9793(3) 0.0781(3) 0.3786(2)
O9 O 0.8340(3) 0.1979(3) 0.2579(2)
H17 H 0.8170 0.2122 0.2010
H18 H 0.8655 0.2711 0.3099
O10 O 0.8952(3) 0.1947(3) 0.0583(2)
O11 O 0.7966(3) 0.1736(3) 0.4580(2)
C6 C 0.8072(5) 0.9307(4) 0.1119(3)
C14 C 0.3216(5) 0.9998(5) 0.2790(4)
C15 C 0.2419(5) 0.9366(5) 0.1691(3)
H11 H 0.1420 0.9114 0.1418
C16 C 0.3145(5) 0.9121(4) 0.1019(3)
C17 C 0.4624(5) 0.9509(4) 0.1470(3)
H12 H 0.5113 0.9359 0.1012
O2 O 0.7208(3) 0.9113(3) 0.1619(2)
N6 N 0.7045(4) 0.8918(3) 0.3669(3)
C1 C 0.6685(5) 0.7087(5) 0.7811(4)
H1 H 0.6404 0.6614 0.7082
C2 C 0.5614(5) 0.7120(5) 0.8203(4)
H2 H 0.4638 0.6704 0.7744
C3 C 0.6009(5) 0.7784(5) 0.9297(3)
H3 H 0.5300 0.7783 0.9588
C4 C 0.7482(5) 0.8445(4) 0.9940(3)
C5 C 0.8477(5) 0.8381(4) 0.9469(3)
H4 H 0.9467 0.8838 0.9902
C18 C 0.2404(5) 0.8470(4) 0.9810(3)
N1 N 0.8103(4) 0.7695(3) 0.8417(3)
O5 O 0.1048(3) 0.8053(3) 0.9417(2)
O6 O 0.3217(4) 0.8416(4) 0.9293(2)
Ni6 Ni 0.98153(6) 0.77650(5) 0.78731(4)
C1_2 C 0.3315(5) 0.2913(5) 0.2189(4)
H1_2 H 0.3596 0.3386 0.2918
C2_2 C 0.4386(5) 0.2880(5) 0.1797(4)
H2_2 H 0.5362 0.3296 0.2256
C3_2 C 0.3991(5) 0.2216(5) 0.0703(3)
H3_2 H 0.4700 0.2217 0.0412
C4_2 C 0.2518(5) 0.1555(4) 0.0060(3)
C5_2 C 0.1523(5) 0.1619(4) 0.0531(3)
H4_2 H 0.0533 0.1162 0.0098
C18_2 C 0.7596(5) 0.1530(4) 0.0190(3)
O6_2 O 0.6783(4) 0.1584(4) 0.0707(2)
C6_2 C 0.1928(5) 0.0693(4) 0.8881(3)
C14_2 C 0.6784(5) 0.0002(5) 0.7210(4)
C15_2 C 0.7581(5) 0.0634(5) 0.8309(3)
H11_2 H 0.8580 0.0886 0.8582
C16_2 C 0.6855(5) 0.0879(4) 0.8981(3)
C17_2 C 0.5376(5) 0.0491(4) 0.8530(3)
H12_2 H 0.4887 0.0641 0.8988
O2_2 O 0.2792(3) 0.0887(3) 0.8381(2)
C13_2 C 0.5317(5) 0.9681(5) 0.6829(3)
H9_2 H 0.4808 0.9289 0.6092
H10_2 H 0.7238 0.9797 0.6738
N3_2 N 0.4592(4) 0.9905(4) 0.7465(3)
O1_2 O 0.0620(3) 0.9811(3) 0.8507(2)
O4_2 O 0.0207(3) 0.9219(3) 0.6214(2)
O9_2 O 0.1660(3) 0.8021(3) 0.7421(2)
H17_2 H 0.1830 0.7878 0.7990
H18_2 H 0.1345 0.7289 0.6901
C7_2 C 0.5858(6) 0.7756(5) 0.3116(4)
H5_2 H 0.5218 0.7624 0.2466
C8_2 C 0.5535(7) 0.6740(6) 0.3466(5)
H6_2 H 0.4667 0.5959 0.3078
C9_2 C 0.6521(6) 0.6895(5) 0.4402(4)
H7_2 H 0.6334 0.6212 0.4642
C10_2 C 0.7788(5) 0.8084(4) 0.4977(3)
C11_2 C 0.7978(5) 0.9062(4) 0.4584(3)
H8_2 H 0.8806 0.9874 0.4979
C12_2 C 0.8966(5) 0.8298(4) 0.5955(3)
C19_2 C 0.8789(6) 0.5088(5) 0.7992(4)
H13_2 H 0.8938 0.5576 0.8691
C20_2 C 0.8328(7) 0.3753(5) 0.7678(4)
H14_2 H 0.8151 0.3346 0.8150
C21_2 C 0.8132(6) 0.3028(5) 0.6654(4)
H15_2 H 0.7846 0.2126 0.6428
C22_2 C 0.8364(5) 0.3653(4) 0.5965(3)
C23_2 C 0.8822(5) 0.5001(4) 0.6342(3)
H16_2 H 0.8990 0.5427 0.5881
C24_2 C 0.8196(5) 0.2924(5) 0.4832(4)
N4_2 N 0.9035(4) 0.5722(3) 0.7346(3)
O3_2 O 0.8582(3) 0.7507(3) 0.6407(2)
O8_2 O 0.8295(5) 0.3537(3) 0.4229(3)
loop_
_geom_bond_atom_site_label_1
_geom_bond_atom_site_label_2
_geom_bond_site_symmetry_1
_geom_bond_site_symmetry_2
Ni2 N4 1_555 1_555
C7 H5 1_555 1_555
C8 C7 1_555 1_555
H6 C8 1_555 1_555
C9 C8 1_555 1_555
H7 C9 1_555 1_555
C10 C9 1_555 1_555
C11 C10 1_555 1_555
H8 C11 1_555 1_555
C12 C10 1_555 1_555
C19 H13 1_555 1_555
C20 C19 1_555 1_555
H14 C20 1_555 1_555
C21 C20 1_555 1_555
H15 C21 1_555 1_555
C22 C21 1_555 1_555
C23 C22 1_555 1_555
H16 C23 1_555 1_555
C24 C22 1_555 1_555
N2 C7 1_555 1_555
N4 C19 1_555 1_555
O3 Ni2 1_555 1_555
O7 C24 1_555 1_555
O8 C24 1_555 1_555
Ni4 O7 1_555 1_555
N5 Ni2 1_555 1_555
C11 N2 1_555 1_555
C12 O3 1_555 1_555
C23 N4 1_555 1_555
Ni1 N3 1_555 1_555
C13 H9 1_555 1_555
N3 C13 1_555 1_555
O4 Ni1 1_555 1_555
O9 Ni1 1_555 1_555
H17 O9 1_555 1_555
H18 O9 1_555 1_555
O11 Ni1 1_555 1_555
C15 C14 1_555 1_555
H11 C15 1_555 1_555
C16 C15 1_555 1_555
C17 C16 1_555 1_555
H12 C17 1_555 1_555
C6 O2 1_555 1_555
C1 H1 1_555 1_555
C2 C1 1_555 1_555
H2 C2 1_555 1_555
C3 C2 1_555 1_555
H3 C3 1_555 1_555
C4 C3 1_555 1_555
C5 C4 1_555 1_555
H4 C5 1_555 1_555
N1 C1 1_555 1_555
O5 C18 1_555 1_555
O6 C18 1_555 1_555
Ni6 N1 1_555 1_555
C5 N1 1_555 1_555
C1_2 H1_2 1_555 1_555
C2_2 C1_2 1_555 1_555
H2_2 C2_2 1_555 1_555
C3_2 C2_2 1_555 1_555
H3_2 C3_2 1_555 1_555
C4_2 C3_2 1_555 1_555
C5_2 C4_2 1_555 1_555
H4_2 C5_2 1_555 1_555
N5 C1_2 1_555 1_555
O10 C18_2 1_555 1_555
O6_2 C18_2 1_555 1_555
C5_2 N5 1_555 1_555
C15_2 C14_2 1_555 1_555
H11_2 C15_2 1_555 1_555
C16_2 C15_2 1_555 1_555
C17_2 C16_2 1_555 1_555
H12_2 C17_2 1_555 1_555
C6_2 O2_2 1_555 1_555
Ni4 N3_2 1_555 1_555
C13_2 H9_2 1_555 1_555
N3_2 C13_2 1_555 1_555
O4_2 Ni4 1_555 1_555
O9_2 Ni4 1_555 1_555
H17_2 O9_2 1_555 1_555
H18_2 O9_2 1_555 1_555
Ni6 N4_2 1_555 1_555
C7_2 H5_2 1_555 1_555
C8_2 C7_2 1_555 1_555
H6_2 C8_2 1_555 1_555
C9_2 C8_2 1_555 1_555
H7_2 C9_2 1_555 1_555
C10_2 C9_2 1_555 1_555
C11_2 C10_2 1_555 1_555
H8_2 C11_2 1_555 1_555
C12_2 C10_2 1_555 1_555
C19_2 H13_2 1_555 1_555
C20_2 C19_2 1_555 1_555
H14_2 C20_2 1_555 1_555
C21_2 C20_2 1_555 1_555
H15_2 C21_2 1_555 1_555
C22_2 C21_2 1_555 1_555
C23_2 C22_2 1_555 1_555
H16_2 C23_2 1_555 1_555
C24_2 C22_2 1_555 1_555
N6 C7_2 1_555 1_555
N4_2 C19_2 1_555 1_555
O3_2 Ni6 1_555 1_555
O11 C24_2 1_555 1_555
O8_2 C24_2 1_555 1_555
C11_2 N6 1_555 1_555
C12_2 O3_2 1_555 1_555
C23_2 N4_2 1_555 1_555

#END
