
###############################################################################
#
# This file contains modified crystal structure data generated from the
# MOF subset of the Cambridge Structural Database (CSD) v543 
# hosted by the Cambridge Crystallographic Data Centre (CCDC).
#
# This work is licensed under the Creative Commons
# Attribution-NonCommercial-ShareAlike 4.0 International License.
# To view a copy of this license, visit
# http://creativecommons.org/licenses/by-nc-sa/4.0/
# or send a letter to
# Creative Commons, PO Box 1866, Mountain View, CA 94042, USA.
#
# CIF created using the CSD Python API on 29 September 2022
# The structure has been converted into the P1 space group
# The structure has a 3D framework
# The original CSD entry XOXSOV is in the monoclinic crystal system
# The framework has been calculated to contain at least 10.0% void space
# The void calculation uses a probe of radius 1.32A, grid spacing 0.4
#
###############################################################################

data_XOXSOV
_chemical_formula_moiety         '(C64 H48 Cu10 N16 O18)n'
_symmetry_cell_setting           triclinic
_symmetry_space_group_name_H-M   'P 1'
_symmetry_Int_Tables_number      1
_space_group_name_Hall           'P 1'
loop_
_symmetry_equiv_pos_site_id
_symmetry_equiv_pos_as_xyz
1 x,y,z
_cell_length_a                   14.251(2)
_cell_length_b                   13.399(2)
_cell_length_c                   14.6369(19)
_cell_angle_alpha                90
_cell_angle_beta                 93.001(11)
_cell_angle_gamma                90
_cell_volume                     2791.07
loop_
_atom_site_label
_atom_site_type_symbol
_atom_site_fract_x
_atom_site_fract_y
_atom_site_fract_z
C1 C 0.36894(16) 0.4910(2) 0.14127(18)
C2 C 0.28957(15) 0.43643(16) 0.18439(16)
C3 C 0.26384(14) 0.34086(16) 0.15394(14)
H1 H 0.2973 0.3092 0.1085
C4 C 0.18861(13) 0.29339(15) 0.19147(13)
C5 C 0.13789(14) 0.33888(16) 0.25828(14)
H2 H 0.0865 0.3061 0.2827
C6 C 0.16424(15) 0.43362(16) 0.28865(15)
C7 C 0.24001(16) 0.48184(14) 0.25177(18)
H3 H 0.2577 0.5458 0.2728
C8 C 0.11249(16) 0.48148(17) 0.36424(16)
C9 C 0.04111(19) 0.25232(19) 0.03968(18)
H5 H 0.0223 0.3045 0.0808
C10 C 0.09499(14) 0.17490(16) 0.09246(14)
C11 C 0.19270(15) 0.10383(16) 0.19207(15)
C12 C 0.26620(15) 0.08375(16) 0.26444(15)
C13 C 0.28948(17) 0.14986(19) 0.33531(16)
H7 H 0.2585 0.2116 0.3386
C14 C 0.35870(17) 0.12380(19) 0.40092(17)
H8 H 0.3742 0.1693 0.4482
Cu1 Cu 0.5000 0.0000 0.5000
Cu2 Cu 0.0000 0.0000 0.0000
N1 N 0.16132(11) 0.19498(13) 0.16090(11)
N2 N 0.08729(12) 0.07815(13) 0.08350(12)
N3 N 0.14822(13) 0.03214(13) 0.14577(13)
N4 N 0.40442(13) 0.03663(16) 0.39982(14)
O1 O 0.41394(12) 0.44178(14) 0.08610(11)
O2 O 0.38373(16) 0.57955(16) 0.1631(2)
O3 O 0.04806(11) 0.42921(12) 0.39662(10)
O4 O 0.13361(12) 0.56689(14) 0.39145(13)
O5 O 0.56905(19) 0.1805(2) 0.4977(2)
H11 H 0.607(2) 0.223(2) 0.521(2)
H12 H 0.575(3) 0.187(3) 0.4408(8)
Cu5 Cu 0.5000 0.5000 0.0000
Cu7 Cu 0.0000 0.5000 0.5000
O12 O 0.41394(12) 0.05822(14) 0.58610(11)
H4 H 0.0801 0.2807 0.9939
Cu2_2 Cu 0.0000 0.0000 1.0000
Cu5_2 Cu 0.5000 0.5000 1.0000
O14 O 0.04806(11) 0.07079(12) 0.89662(10)
C15 C 0.38190(18) 0.97316(19) 0.33172(18)
H9 H 0.4136 0.9117 0.3302
C16 C 0.31407(16) 0.9938(2) 0.26341(17)
H10 H 0.3005 0.9472 0.2166
Cu1_2 Cu 0.5000 1.0000 0.5000
Cu2_3 Cu 0.0000 1.0000 0.0000
O10 O 0.43095(19) 0.8195(2) 0.5023(2)
H23 H 0.393(2) 0.777(2) 0.479(2)
H24 H 0.425(3) 0.813(3) 0.5592(8)
N9 N 0.59558(13) 0.96337(16) 0.60018(14)
O11 O 0.58606(12) 0.94178(14) 0.41390(11)
Cu2_4 Cu 0.0000 1.0000 1.0000
H18 H 0.0143 0.7776 0.9902
O16 O 0.13361(12) 0.93311(14) 0.89145(13)
H6 H 0.9857 0.2224 0.0098
Cu2_5 Cu 1.0000 0.0000 0.0000
Cu7_2 Cu 1.0000 0.5000 0.5000
O15 O 0.86639(12) 0.06689(14) 0.10855(13)
Cu2_6 Cu 1.0000 0.0000 1.0000
C31 C 0.61810(18) 0.02684(19) 0.66828(18)
H21 H 0.5864 0.0883 0.6698
C32 C 0.68593(16) 0.0062(2) 0.73659(17)
H22 H 0.6995 0.0528 0.7834
Cu2_7 Cu 1.0000 1.0000 0.0000
H16 H 0.9199 0.7193 0.0061
O13 O 0.95194(11) 0.92921(12) 0.10338(10)
Cu2_8 Cu 1.0000 1.0000 1.0000
C17 C 0.63106(16) 0.5090(2) 0.85873(18)
C18 C 0.71043(15) 0.56357(16) 0.81561(16)
C19 C 0.73616(14) 0.65914(16) 0.84606(14)
H13 H 0.7027 0.6908 0.8915
C20 C 0.81139(13) 0.70661(15) 0.80853(13)
C21 C 0.86211(14) 0.66112(16) 0.74172(14)
H14 H 0.9135 0.6939 0.7173
C22 C 0.83576(15) 0.56638(16) 0.71135(15)
C23 C 0.75999(16) 0.51816(14) 0.74823(18)
H15 H 0.7423 0.4542 0.7272
C24 C 0.88751(16) 0.51852(17) 0.63576(16)
C25 C 0.95889(19) 0.74768(19) 0.96032(18)
H17 H 0.9777 0.6955 0.9192
C26 C 0.90501(14) 0.82510(16) 0.90754(14)
C27 C 0.80730(15) 0.89617(16) 0.80793(15)
C28 C 0.73380(15) 0.91625(16) 0.73556(15)
C29 C 0.71052(17) 0.85014(19) 0.66469(16)
H19 H 0.7415 0.7884 0.6614
C30 C 0.64130(17) 0.87620(19) 0.59908(17)
H20 H 0.6258 0.8307 0.5518
N5 N 0.83868(11) 0.80502(13) 0.83910(11)
N6 N 0.91271(12) 0.92185(13) 0.91650(12)
N7 N 0.85178(13) 0.96786(13) 0.85423(13)
O6 O 0.58606(12) 0.55822(14) 0.91390(11)
O7 O 0.61627(16) 0.42045(16) 0.8369(2)
O8 O 0.95194(11) 0.57079(12) 0.60338(10)
O9 O 0.86639(12) 0.43311(14) 0.60855(13)
H6_2 H 0.0143 0.7224 0.4902
C17_2 C 0.36894(16) 0.0090(2) 0.64127(18)
C18_2 C 0.28957(15) 0.06357(16) 0.68439(16)
C19_2 C 0.26384(14) 0.15914(16) 0.65394(14)
H13_2 H 0.2973 0.1908 0.6085
C20_2 C 0.18861(13) 0.20661(15) 0.69147(13)
C21_2 C 0.13789(14) 0.16112(16) 0.75828(14)
H14_2 H 0.0865 0.1939 0.7827
C22_2 C 0.16424(15) 0.06638(16) 0.78865(15)
C23_2 C 0.24001(16) 0.01816(14) 0.75177(18)
C24_2 C 0.11249(16) 0.01852(17) 0.86424(16)
C25_2 C 0.04111(19) 0.24768(19) 0.53968(18)
H16_2 H 0.0801 0.2193 0.4939
H17_2 H 0.0223 0.1955 0.5808
C26_2 C 0.09499(14) 0.32510(16) 0.59246(14)
C27_2 C 0.19270(15) 0.39617(16) 0.69207(15)
C28_2 C 0.26620(15) 0.41625(16) 0.76444(15)
C29_2 C 0.28948(17) 0.35014(19) 0.83531(16)
H19_2 H 0.2585 0.2884 0.8386
C30_2 C 0.35870(17) 0.37620(19) 0.90092(17)
H20_2 H 0.3742 0.3307 0.9482
C31_2 C 0.38190(18) 0.52684(19) 0.83172(18)
H21_2 H 0.4136 0.5883 0.8302
C32_2 C 0.31407(16) 0.5062(2) 0.76341(17)
H22_2 H 0.3005 0.5528 0.7166
N5_2 N 0.16132(11) 0.30502(13) 0.66090(11)
N6_2 N 0.08729(12) 0.42185(13) 0.58350(12)
N7_2 N 0.14822(13) 0.46786(13) 0.64577(13)
N8 N 0.40442(13) 0.46337(16) 0.89982(14)
H15_2 H 0.2577 0.9542 0.7728
O7_2 O 0.38373(16) 0.92045(16) 0.6631(2)
H3_2 H 0.7423 0.0458 0.2272
O2_2 O 0.61627(16) 0.07955(16) 0.3369(2)
C1_2 C 0.63106(16) 0.9910(2) 0.35873(18)
C2_2 C 0.71043(15) 0.93643(16) 0.31561(16)
C3_2 C 0.73616(14) 0.84086(16) 0.34606(14)
H1_2 H 0.7027 0.8092 0.3915
C4_2 C 0.81139(13) 0.79339(15) 0.30853(13)
C5_2 C 0.86211(14) 0.83888(16) 0.24172(14)
H2_2 H 0.9135 0.8061 0.2173
C6_2 C 0.83576(15) 0.93362(16) 0.21135(15)
C7_2 C 0.75999(16) 0.98184(14) 0.24823(18)
C8_2 C 0.88751(16) 0.98148(17) 0.13576(16)
C9_2 C 0.95889(19) 0.75232(19) 0.46032(18)
H4_2 H 0.9199 0.7807 0.5061
H5_2 H 0.9777 0.8045 0.4192
C10_2 C 0.90501(14) 0.67490(16) 0.40754(14)
C11_2 C 0.80730(15) 0.60383(16) 0.30793(15)
C12_2 C 0.73380(15) 0.58375(16) 0.23556(15)
C13_2 C 0.71052(17) 0.64986(19) 0.16469(16)
H7_2 H 0.7415 0.7116 0.1614
C14_2 C 0.64130(17) 0.62380(19) 0.09908(17)
H8_2 H 0.6258 0.6693 0.0518
C15_2 C 0.61810(18) 0.47316(19) 0.16828(18)
H9_2 H 0.5864 0.4117 0.1698
C16_2 C 0.68593(16) 0.4938(2) 0.23659(17)
H10_2 H 0.6995 0.4472 0.2834
N1_2 N 0.83868(11) 0.69498(13) 0.33910(11)
N2_2 N 0.91271(12) 0.57815(13) 0.41650(12)
N3_2 N 0.85178(13) 0.53214(13) 0.35423(13)
N4_2 N 0.59558(13) 0.53663(16) 0.10018(14)
O5_2 O 0.43095(19) 0.6805(2) 0.0023(2)
H12_2 H 0.425(3) 0.687(3) 0.0592(8)
H18_2 H 0.9857 0.2776 0.5098
H23_2 H 0.607(2) 0.277(2) 0.021(2)
H11_2 H 0.393(2) 0.723(2) 0.979(2)
O10_2 O 0.56905(19) 0.3195(2) 0.9977(2)
H24_2 H 0.575(3) 0.313(3) 0.9408(8)
loop_
_geom_bond_atom_site_label_1
_geom_bond_atom_site_label_2
_geom_bond_site_symmetry_1
_geom_bond_site_symmetry_2
C1 C2 1_555 1_555
C2 C3 1_555 1_555
C3 H1 1_555 1_555
C4 C3 1_555 1_555
C5 C4 1_555 1_555
H2 C5 1_555 1_555
C6 C5 1_555 1_555
C7 C2 1_555 1_555
H3 C7 1_555 1_555
C8 C6 1_555 1_555
H5 C9 1_555 1_555
C10 C9 1_555 1_555
C11 C12 1_555 1_555
C12 C13 1_555 1_555
C13 H7 1_555 1_555
C14 C13 1_555 1_555
H8 C14 1_555 1_555
Cu1 N4 1_555 1_555
Cu2 N2 1_555 1_555
N1 C4 1_555 1_555
N2 C10 1_555 1_555
N3 C11 1_555 1_555
N4 C14 1_555 1_555
O1 C1 1_555 1_555
O2 C1 1_555 1_555
O3 C8 1_555 1_555
O4 C8 1_555 1_555
O5 Cu1 1_555 1_555
H11 O5 1_555 1_555
H12 O5 1_555 1_555
Cu5 O1 1_555 1_555
Cu7 O3 1_555 1_555
O12 Cu1 1_555 1_555
C6 C7 1_555 1_555
C10 N1 1_555 1_555
C11 N1 1_555 1_555
N2 N3 1_555 1_555
O4 Cu7 1_555 1_555
O14 Cu2_2 1_555 1_555
C15 H9 1_555 1_555
H10 C16 1_555 1_555
O10 Cu1_2 1_555 1_555
H23 O10 1_555 1_555
H24 O10 1_555 1_555
N9 Cu1_2 1_555 1_555
O11 Cu1_2 1_555 1_555
C15 C16 1_555 1_555
O16 Cu2_4 1_555 1_555
O15 Cu2_5 1_555 1_555
C31 H21 1_555 1_555
H22 C32 1_555 1_555
C31 C32 1_555 1_555
O13 Cu2_7 1_555 1_555
C17 C18 1_555 1_555
C18 C19 1_555 1_555
C19 H13 1_555 1_555
C20 C19 1_555 1_555
C21 C20 1_555 1_555
H14 C21 1_555 1_555
C22 C21 1_555 1_555
C23 C18 1_555 1_555
H15 C23 1_555 1_555
C24 C22 1_555 1_555
H17 C25 1_555 1_555
C26 C25 1_555 1_555
C27 C28 1_555 1_555
C28 C29 1_555 1_555
C29 H19 1_555 1_555
C30 C29 1_555 1_555
H20 C30 1_555 1_555
N5 C20 1_555 1_555
N6 Cu2_8 1_555 1_555
N7 C27 1_555 1_555
N9 C30 1_555 1_555
O6 C17 1_555 1_555
O7 C17 1_555 1_555
O8 C24 1_555 1_555
O9 C24 1_555 1_555
Cu5_2 O6 1_555 1_555
Cu7_2 O8 1_555 1_555
C22 C23 1_555 1_555
C26 N5 1_555 1_555
C26 N6 1_555 1_555
C27 N5 1_555 1_555
N6 N7 1_555 1_555
O9 Cu7_2 1_555 1_555
C17_2 C18_2 1_555 1_555
C18_2 C19_2 1_555 1_555
C19_2 H13_2 1_555 1_555
C20_2 C19_2 1_555 1_555
C21_2 C20_2 1_555 1_555
H14_2 C21_2 1_555 1_555
C22_2 C21_2 1_555 1_555
C23_2 C18_2 1_555 1_555
C24_2 C22_2 1_555 1_555
C25_2 H16_2 1_555 1_555
H17_2 C25_2 1_555 1_555
C26_2 C25_2 1_555 1_555
C27_2 C28_2 1_555 1_555
C28_2 C29_2 1_555 1_555
C29_2 H19_2 1_555 1_555
C30_2 C29_2 1_555 1_555
H20_2 C30_2 1_555 1_555
C31_2 H21_2 1_555 1_555
C32_2 C28_2 1_555 1_555
H22_2 C32_2 1_555 1_555
N5_2 C20_2 1_555 1_555
N6_2 Cu7 1_555 1_555
N7_2 C27_2 1_555 1_555
N8 C30_2 1_555 1_555
O12 C17_2 1_555 1_555
O14 C24_2 1_555 1_555
Cu5_2 N8 1_555 1_555
C22_2 C23_2 1_555 1_555
C26_2 N5_2 1_555 1_555
C26_2 N6_2 1_555 1_555
C27_2 N5_2 1_555 1_555
C31_2 C32_2 1_555 1_555
C31_2 N8 1_555 1_555
N6_2 N7_2 1_555 1_555
C1_2 C2_2 1_555 1_555
C2_2 C3_2 1_555 1_555
C3_2 H1_2 1_555 1_555
C4_2 C3_2 1_555 1_555
C5_2 C4_2 1_555 1_555
H2_2 C5_2 1_555 1_555
C6_2 C5_2 1_555 1_555
C7_2 C2_2 1_555 1_555
C8_2 C6_2 1_555 1_555
C9_2 H4_2 1_555 1_555
H5_2 C9_2 1_555 1_555
C10_2 C9_2 1_555 1_555
C11_2 C12_2 1_555 1_555
C12_2 C13_2 1_555 1_555
C13_2 H7_2 1_555 1_555
C14_2 C13_2 1_555 1_555
H8_2 C14_2 1_555 1_555
C15_2 H9_2 1_555 1_555
C16_2 C12_2 1_555 1_555
H10_2 C16_2 1_555 1_555
Cu5 N4_2 1_555 1_555
Cu7_2 N2_2 1_555 1_555
N1_2 C4_2 1_555 1_555
N2_2 C10_2 1_555 1_555
N3_2 C11_2 1_555 1_555
N4_2 C14_2 1_555 1_555
O11 C1_2 1_555 1_555
O13 C8_2 1_555 1_555
O5_2 Cu5 1_555 1_555
H12_2 O5_2 1_555 1_555
C6_2 C7_2 1_555 1_555
C10_2 N1_2 1_555 1_555
C11_2 N1_2 1_555 1_555
C15_2 C16_2 1_555 1_555
C15_2 N4_2 1_555 1_555
N2_2 N3_2 1_555 1_555
O10_2 Cu5_2 1_555 1_555
H24_2 O10_2 1_555 1_555

#END
