
###############################################################################
#
# This file contains modified crystal structure data generated from the
# MOF subset of the Cambridge Structural Database (CSD) v543 
# hosted by the Cambridge Crystallographic Data Centre (CCDC).
#
# This work is licensed under the Creative Commons
# Attribution-NonCommercial-ShareAlike 4.0 International License.
# To view a copy of this license, visit
# http://creativecommons.org/licenses/by-nc-sa/4.0/
# or send a letter to
# Creative Commons, PO Box 1866, Mountain View, CA 94042, USA.
#
# CIF created using the CSD Python API on 29 September 2022
# The structure has been converted into the P1 space group
# The structure has a 3D framework
# The original CSD entry XOXSUB is in the monoclinic crystal system
# The framework has been calculated to contain at least 10.0% void space
# The void calculation uses a probe of radius 1.32A, grid spacing 0.4
#
###############################################################################

data_XOXSUB
_chemical_formula_moiety         '(C64 H48 Cu10 N16 O18)n'
_symmetry_cell_setting           triclinic
_symmetry_space_group_name_H-M   'P 1'
_symmetry_Int_Tables_number      1
_space_group_name_Hall           'P 1'
loop_
_symmetry_equiv_pos_site_id
_symmetry_equiv_pos_as_xyz
1 x,y,z
_cell_length_a                   13.8663(4)
_cell_length_b                   13.2350(4)
_cell_length_c                   15.0241(4)
_cell_angle_alpha                90
_cell_angle_beta                 93.199(2)
_cell_angle_gamma                90
_cell_volume                     2752.93
loop_
_atom_site_label
_atom_site_type_symbol
_atom_site_fract_x
_atom_site_fract_y
_atom_site_fract_z
C1 C 0.3669(3) 0.4935(4) 0.1367(4)
C2 C 0.2875(3) 0.4384(3) 0.1834(3)
C3 C 0.2625(3) 0.3417(3) 0.1547(2)
H1 H 0.2958 0.3100 0.1096
C4 C 0.1875(2) 0.2929(3) 0.1940(2)
C5 C 0.1377(2) 0.3373(3) 0.2608(2)
H2 H 0.0860 0.3033 0.2857
C6 C 0.1653(3) 0.4338(3) 0.2911(2)
C7 C 0.2401(3) 0.4832(3) 0.2502(3)
H3 H 0.2582 0.5486 0.2690
C8 C 0.1160(3) 0.4800(3) 0.3672(3)
C9 C 0.0375(3) 0.2532(3) 0.0450(3)
H5 H 0.0695 0.3180 0.0534
C10 C 0.0937(2) 0.1739(3) 0.0960(2)
C11 C 0.1928(3) 0.1013(3) 0.1920(2)
C12 C 0.2668(3) 0.0806(3) 0.2640(2)
C13 C 0.2834(3) 0.1436(4) 0.3368(3)
H7 H 0.2487 0.2043 0.3409
C14 C 0.3508(3) 0.1171(4) 0.4029(3)
H8 H 0.3614 0.1608 0.4519
Cu1 Cu 0.5000 0.0000 0.5000
Cu2 Cu 0.0000 0.0000 0.0000
N1 N 0.1593(2) 0.1932(2) 0.16382(18)
N2 N 0.0876(2) 0.0765(2) 0.08408(19)
N3 N 0.1508(2) 0.0293(2) 0.1444(2)
N4 N 0.4020(2) 0.0322(3) 0.4007(2)
O1 O 0.4107(2) 0.4440(3) 0.08271(18)
O2 O 0.3828(4) 0.5857(3) 0.1590(4)
O3 O 0.05164(19) 0.42648(19) 0.40136(16)
O4 O 0.1373(2) 0.5659(2) 0.3949(2)
O5 O 0.5697(6) 0.1854(6) 0.4955(7)
H11 H 0.615(6) 0.228(7) 0.504(7)
H12 H 0.542(7) 0.206(8) 0.447(5)
Cu5 Cu 0.5000 0.5000 0.0000
Cu7 Cu -0.0000 0.5000 0.5000
O12 O 0.4107(2) 0.0560(3) 0.58271(18)
H4 H 0.0336 0.2360 0.9822
Cu2_2 Cu -0.0000 0.0000 1.0000
Cu5_2 Cu 0.5000 0.5000 1.0000
O14 O 0.05164(19) 0.07352(19) 0.90136(16)
C15 C 0.3857(3) 0.9697(4) 0.3301(3)
H9 H 0.4208 0.9091 0.3281
C16 C 0.3201(3) 0.9916(3) 0.2621(3)
H10 H 0.3108 0.9467 0.2139
Cu1_2 Cu 0.5000 1.0000 0.5000
Cu2_3 Cu 0.0000 1.0000 0.0000
O10 O 0.4303(6) 0.8146(6) 0.5045(7)
H23 H 0.385(6) 0.772(7) 0.496(7)
H24 H 0.458(7) 0.794(8) 0.553(5)
N9 N 0.5980(2) 0.9678(3) 0.5993(2)
O11 O 0.5893(2) 0.9440(3) 0.41729(18)
Cu2_4 Cu -0.0000 1.0000 1.0000
H18 H 0.0271 0.7428 0.9335
O16 O 0.1373(2) 0.9341(2) 0.8949(2)
H6 H 0.9729 0.2572 0.0665
Cu2_5 Cu 1.0000 0.0000 0.0000
Cu7_2 Cu 1.0000 0.5000 0.5000
O15 O 0.8627(2) 0.0659(2) 0.1051(2)
Cu2_6 Cu 1.0000 0.0000 1.0000
C31 C 0.6143(3) 0.0303(4) 0.6699(3)
H21 H 0.5792 0.0909 0.6719
C32 C 0.6799(3) 0.0084(3) 0.7379(3)
H22 H 0.6892 0.0533 0.7861
Cu2_7 Cu 1.0000 1.0000 0.0000
H16 H 0.9664 0.7640 0.0178
O13 O 0.94836(19) 0.92648(19) 0.09864(16)
Cu2_8 Cu 1.0000 1.0000 1.0000
C17 C 0.6331(3) 0.5065(4) 0.8633(4)
C18 C 0.7125(3) 0.5616(3) 0.8166(3)
C19 C 0.7375(3) 0.6583(3) 0.8453(2)
H13 H 0.7042 0.6900 0.8904
C20 C 0.8125(2) 0.7071(3) 0.8060(2)
C21 C 0.8623(2) 0.6627(3) 0.7392(2)
H14 H 0.9140 0.6967 0.7143
C22 C 0.8347(3) 0.5662(3) 0.7089(2)
C23 C 0.7599(3) 0.5168(3) 0.7498(3)
H15 H 0.7418 0.4514 0.7310
C24 C 0.8840(3) 0.5200(3) 0.6328(3)
C25 C 0.9625(3) 0.7468(3) 0.9550(3)
H17 H 0.9305 0.6820 0.9466
C26 C 0.9063(2) 0.8261(3) 0.9040(2)
C27 C 0.8072(3) 0.8987(3) 0.8080(2)
C28 C 0.7332(3) 0.9194(3) 0.7360(2)
C29 C 0.7166(3) 0.8564(4) 0.6632(3)
H19 H 0.7513 0.7957 0.6591
C30 C 0.6492(3) 0.8829(4) 0.5971(3)
H20 H 0.6386 0.8392 0.5481
N5 N 0.8407(2) 0.8068(2) 0.83618(18)
N6 N 0.9124(2) 0.9235(2) 0.91592(19)
N7 N 0.8492(2) 0.9707(2) 0.8556(2)
O6 O 0.5893(2) 0.5560(3) 0.91729(18)
O7 O 0.6172(4) 0.4143(3) 0.8410(4)
O8 O 0.94836(19) 0.57352(19) 0.59864(16)
O9 O 0.8627(2) 0.4341(2) 0.6051(2)
H6_2 H 0.0271 0.7572 0.4335
C17_2 C 0.3669(3) 0.0065(4) 0.6367(4)
C18_2 C 0.2875(3) 0.0616(3) 0.6834(3)
C19_2 C 0.2625(3) 0.1583(3) 0.6547(2)
H13_2 H 0.2958 0.1900 0.6096
C20_2 C 0.1875(2) 0.2071(3) 0.6940(2)
C21_2 C 0.1377(2) 0.1627(3) 0.7608(2)
H14_2 H 0.0860 0.1967 0.7857
C22_2 C 0.1653(3) 0.0662(3) 0.7911(2)
C23_2 C 0.2401(3) 0.0168(3) 0.7502(3)
C24_2 C 0.1160(3) 0.0200(3) 0.8672(3)
C25_2 C 0.0375(3) 0.2468(3) 0.5450(3)
H16_2 H 0.0336 0.2640 0.4822
H17_2 H 0.0695 0.1820 0.5534
C26_2 C 0.0937(2) 0.3261(3) 0.5960(2)
C27_2 C 0.1928(3) 0.3987(3) 0.6920(2)
C28_2 C 0.2668(3) 0.4194(3) 0.7640(2)
C29_2 C 0.2834(3) 0.3564(4) 0.8368(3)
H19_2 H 0.2487 0.2957 0.8409
C30_2 C 0.3508(3) 0.3829(4) 0.9029(3)
H20_2 H 0.3614 0.3392 0.9519
C31_2 C 0.3857(3) 0.5303(4) 0.8301(3)
H21_2 H 0.4208 0.5909 0.8281
C32_2 C 0.3201(3) 0.5084(3) 0.7621(3)
H22_2 H 0.3108 0.5533 0.7139
N5_2 N 0.1593(2) 0.3068(2) 0.66382(18)
N6_2 N 0.0876(2) 0.4235(2) 0.58408(19)
N7_2 N 0.1508(2) 0.4707(2) 0.6444(2)
N8 N 0.4020(2) 0.4678(3) 0.9007(2)
H15_2 H 0.2582 0.9514 0.7690
O7_2 O 0.3828(4) 0.9143(3) 0.6590(4)
H3_2 H 0.7418 0.0486 0.2310
O2_2 O 0.6172(4) 0.0857(3) 0.3410(4)
C1_2 C 0.6331(3) 0.9935(4) 0.3633(4)
C2_2 C 0.7125(3) 0.9384(3) 0.3166(3)
C3_2 C 0.7375(3) 0.8417(3) 0.3453(2)
H1_2 H 0.7042 0.8100 0.3904
C4_2 C 0.8125(2) 0.7929(3) 0.3060(2)
C5_2 C 0.8623(2) 0.8373(3) 0.2392(2)
H2_2 H 0.9140 0.8033 0.2143
C6_2 C 0.8347(3) 0.9338(3) 0.2089(2)
C7_2 C 0.7599(3) 0.9832(3) 0.2498(3)
C8_2 C 0.8840(3) 0.9800(3) 0.1328(3)
C9_2 C 0.9625(3) 0.7532(3) 0.4550(3)
H4_2 H 0.9664 0.7360 0.5178
H5_2 H 0.9305 0.8180 0.4466
C10_2 C 0.9063(2) 0.6739(3) 0.4040(2)
C11_2 C 0.8072(3) 0.6013(3) 0.3080(2)
C12_2 C 0.7332(3) 0.5806(3) 0.2360(2)
C13_2 C 0.7166(3) 0.6436(4) 0.1632(3)
H7_2 H 0.7513 0.7043 0.1591
C14_2 C 0.6492(3) 0.6171(4) 0.0971(3)
H8_2 H 0.6386 0.6608 0.0481
C15_2 C 0.6143(3) 0.4697(4) 0.1699(3)
H9_2 H 0.5792 0.4091 0.1719
C16_2 C 0.6799(3) 0.4916(3) 0.2379(3)
H10_2 H 0.6892 0.4467 0.2861
N1_2 N 0.8407(2) 0.6932(2) 0.33618(18)
N2_2 N 0.9124(2) 0.5765(2) 0.41592(19)
N3_2 N 0.8492(2) 0.5293(2) 0.3556(2)
N4_2 N 0.5980(2) 0.5322(3) 0.0993(2)
O5_2 O 0.4303(6) 0.6854(6) 0.0045(7)
H12_2 H 0.458(7) 0.706(8) 0.053(5)
H18_2 H 0.9729 0.2428 0.5665
H23_2 H 0.615(6) 0.272(7) 0.004(7)
H11_2 H 0.385(6) 0.728(7) 0.996(7)
O10_2 O 0.5697(6) 0.3146(6) 0.9955(7)
H24_2 H 0.542(7) 0.294(8) 0.947(5)
loop_
_geom_bond_atom_site_label_1
_geom_bond_atom_site_label_2
_geom_bond_site_symmetry_1
_geom_bond_site_symmetry_2
C1 C2 1_555 1_555
C2 C3 1_555 1_555
C3 H1 1_555 1_555
C4 C3 1_555 1_555
C5 C4 1_555 1_555
H2 C5 1_555 1_555
C6 C5 1_555 1_555
C7 C2 1_555 1_555
H3 C7 1_555 1_555
C8 C6 1_555 1_555
H5 C9 1_555 1_555
C10 C9 1_555 1_555
C11 C12 1_555 1_555
C12 C13 1_555 1_555
C13 H7 1_555 1_555
C14 C13 1_555 1_555
H8 C14 1_555 1_555
Cu1 N4 1_555 1_555
Cu2 N2 1_555 1_555
N1 C4 1_555 1_555
N2 C10 1_555 1_555
N3 C11 1_555 1_555
N4 C14 1_555 1_555
O1 C1 1_555 1_555
O2 C1 1_555 1_555
O3 C8 1_555 1_555
O4 C8 1_555 1_555
O5 Cu1 1_555 1_555
H11 O5 1_555 1_555
H12 O5 1_555 1_555
Cu5 O1 1_555 1_555
Cu7 O3 1_555 1_555
O12 Cu1 1_555 1_555
C6 C7 1_555 1_555
C10 N1 1_555 1_555
C11 N1 1_555 1_555
N2 N3 1_555 1_555
O4 Cu7 1_555 1_555
O14 Cu2_2 1_555 1_555
C15 H9 1_555 1_555
H10 C16 1_555 1_555
O10 Cu1_2 1_555 1_555
H23 O10 1_555 1_555
H24 O10 1_555 1_555
N9 Cu1_2 1_555 1_555
O11 Cu1_2 1_555 1_555
C15 C16 1_555 1_555
O16 Cu2_4 1_555 1_555
O15 Cu2_5 1_555 1_555
C31 H21 1_555 1_555
H22 C32 1_555 1_555
C31 C32 1_555 1_555
O13 Cu2_7 1_555 1_555
C17 C18 1_555 1_555
C18 C19 1_555 1_555
C19 H13 1_555 1_555
C20 C19 1_555 1_555
C21 C20 1_555 1_555
H14 C21 1_555 1_555
C22 C21 1_555 1_555
C23 C18 1_555 1_555
H15 C23 1_555 1_555
C24 C22 1_555 1_555
H17 C25 1_555 1_555
C26 C25 1_555 1_555
C27 C28 1_555 1_555
C28 C29 1_555 1_555
C29 H19 1_555 1_555
C30 C29 1_555 1_555
H20 C30 1_555 1_555
N5 C20 1_555 1_555
N6 Cu2_8 1_555 1_555
N7 C27 1_555 1_555
N9 C30 1_555 1_555
O6 C17 1_555 1_555
O7 C17 1_555 1_555
O8 C24 1_555 1_555
O9 C24 1_555 1_555
Cu5_2 O6 1_555 1_555
Cu7_2 O8 1_555 1_555
C22 C23 1_555 1_555
C26 N5 1_555 1_555
C26 N6 1_555 1_555
C27 N5 1_555 1_555
N6 N7 1_555 1_555
O9 Cu7_2 1_555 1_555
C17_2 C18_2 1_555 1_555
C18_2 C19_2 1_555 1_555
C19_2 H13_2 1_555 1_555
C20_2 C19_2 1_555 1_555
C21_2 C20_2 1_555 1_555
H14_2 C21_2 1_555 1_555
C22_2 C21_2 1_555 1_555
C23_2 C18_2 1_555 1_555
C24_2 C22_2 1_555 1_555
C25_2 H16_2 1_555 1_555
H17_2 C25_2 1_555 1_555
C26_2 C25_2 1_555 1_555
C27_2 C28_2 1_555 1_555
C28_2 C29_2 1_555 1_555
C29_2 H19_2 1_555 1_555
C30_2 C29_2 1_555 1_555
H20_2 C30_2 1_555 1_555
C31_2 H21_2 1_555 1_555
C32_2 C28_2 1_555 1_555
H22_2 C32_2 1_555 1_555
N5_2 C20_2 1_555 1_555
N6_2 Cu7 1_555 1_555
N7_2 C27_2 1_555 1_555
N8 C30_2 1_555 1_555
O12 C17_2 1_555 1_555
O14 C24_2 1_555 1_555
Cu5_2 N8 1_555 1_555
C22_2 C23_2 1_555 1_555
C26_2 N5_2 1_555 1_555
C26_2 N6_2 1_555 1_555
C27_2 N5_2 1_555 1_555
C31_2 C32_2 1_555 1_555
C31_2 N8 1_555 1_555
N6_2 N7_2 1_555 1_555
C1_2 C2_2 1_555 1_555
C2_2 C3_2 1_555 1_555
C3_2 H1_2 1_555 1_555
C4_2 C3_2 1_555 1_555
C5_2 C4_2 1_555 1_555
H2_2 C5_2 1_555 1_555
C6_2 C5_2 1_555 1_555
C7_2 C2_2 1_555 1_555
C8_2 C6_2 1_555 1_555
C9_2 H4_2 1_555 1_555
H5_2 C9_2 1_555 1_555
C10_2 C9_2 1_555 1_555
C11_2 C12_2 1_555 1_555
C12_2 C13_2 1_555 1_555
C13_2 H7_2 1_555 1_555
C14_2 C13_2 1_555 1_555
H8_2 C14_2 1_555 1_555
C15_2 H9_2 1_555 1_555
C16_2 C12_2 1_555 1_555
H10_2 C16_2 1_555 1_555
Cu5 N4_2 1_555 1_555
Cu7_2 N2_2 1_555 1_555
N1_2 C4_2 1_555 1_555
N2_2 C10_2 1_555 1_555
N3_2 C11_2 1_555 1_555
N4_2 C14_2 1_555 1_555
O11 C1_2 1_555 1_555
O13 C8_2 1_555 1_555
O5_2 Cu5 1_555 1_555
H12_2 O5_2 1_555 1_555
C6_2 C7_2 1_555 1_555
C10_2 N1_2 1_555 1_555
C11_2 N1_2 1_555 1_555
C15_2 C16_2 1_555 1_555
C15_2 N4_2 1_555 1_555
N2_2 N3_2 1_555 1_555
O10_2 Cu5_2 1_555 1_555
H24_2 O10_2 1_555 1_555

#END
