
###############################################################################
#
# This file contains modified crystal structure data generated from the
# MOF subset of the Cambridge Structural Database (CSD) v543 
# hosted by the Cambridge Crystallographic Data Centre (CCDC).
#
# This work is licensed under the Creative Commons
# Attribution-NonCommercial-ShareAlike 4.0 International License.
# To view a copy of this license, visit
# http://creativecommons.org/licenses/by-nc-sa/4.0/
# or send a letter to
# Creative Commons, PO Box 1866, Mountain View, CA 94042, USA.
#
# CIF created using the CSD Python API on 29 September 2022
# The structure has been converted into the P1 space group
# The structure has a 3D framework
# The original CSD entry XOXTIQ is in the monoclinic crystal system
# The original CSD entry XOXTIQ is in a Sohncke space group
# The framework has been calculated to contain at least 10.0% void space
# The void calculation uses a probe of radius 1.32A, grid spacing 0.4
# H atom positions have been added when not included in the experimental data
#
###############################################################################

data_XOXTIQ
_chemical_formula_moiety         '(C64 H48 Cu4 N16 O20)n'
_symmetry_cell_setting           triclinic
_symmetry_space_group_name_H-M   'P 1'
_symmetry_Int_Tables_number      1
_space_group_name_Hall           'P 1'
loop_
_symmetry_equiv_pos_site_id
_symmetry_equiv_pos_as_xyz
1 x,y,z
_cell_length_a                   14.5493(3)
_cell_length_b                   11.93948(14)
_cell_length_c                   14.1517(3)
_cell_angle_alpha                90
_cell_angle_beta                 93.6939(5)
_cell_angle_gamma                90
_cell_volume                     2453.2
loop_
_atom_site_label
_atom_site_type_symbol
_atom_site_fract_x
_atom_site_fract_y
_atom_site_fract_z
_atom_site_U_iso_or_equiv
_atom_site_thermal_displace_type
C4 C 0.3167(2) 0.00708(3) 0.06441(7) 0.0500 Uiso
C9 C 0.4418(4) 0.09936(6) 0.22526(4) 0.0500 Uiso
H4 H 0.4250(2) 0.021636(9) 0.223609(1) 0.0500 Uiso
H5 H 0.5008(2) 0.10840(4) 0.19927(4) 0.0500 Uiso
H6 H 0.4453(2) 0.125417(16) 0.289529(5) 0.0500 Uiso
C10 C 0.3716(2) 0.16516(3) 0.16845(6) 0.0500 Uiso
C11 C 0.2620(3) 0.20939(6) 0.06239(15) 0.0500 Uiso
Cu2 Cu 0.4351(4) 0.3783(7) 0.2456(5) 0.0500 Uiso
N1 N 0.3156(2) 0.12189(4) 0.09631(10) 0.0500 Uiso
N2 N 0.3532(2) 0.27149(4) 0.17723(10) 0.0500 Uiso
N3 N 0.2842(3) 0.30118(6) 0.11116(15) 0.0500 Uiso
C17 C 0.0677(3) 0.24738(14) 0.63153(14) 0.0500 Uiso
C18 C 0.1548(3) 0.22567(5) 0.58135(10) 0.0500 Uiso
C19 C 0.2096(3) 0.13252(4) 0.60616(12) 0.0500 Uiso
H11 H 0.1917(3) 0.08216(9) 0.65159(17) 0.0500 Uiso
C20 C 0.2905(3) 0.11623(4) 0.56203(9) 0.0500 Uiso
C21 C 0.3191(3) 0.19032(11) 0.49460(2) 0.0500 Uiso
H12 H 0.3742(3) 0.17883(17) 0.466302 0.0500 Uiso
C22 C 0.2641(3) 0.28216(11) 0.469816(1) 0.0500 Uiso
C23 C 0.1822(3) 0.29928(2) 0.51347(4) 0.0500 Uiso
H13 H 0.1456(3) 0.360866(18) 0.496632(18) 0.0500 Uiso
C24 C 0.2924(3) 0.35995(19) 0.39317(7) 0.0500 Uiso
C25 C 0.4542(3) 0.12173(7) 0.70557(4) 0.0500 Uiso
H14 H 0.4046(3) 0.15137(6) 0.739539(11) 0.0500 Uiso
H15 H 0.4747(3) 0.17751(5) 0.66280(5) 0.0500 Uiso
H16 H 0.5044(3) 0.101211(12) 0.749690(14) 0.0500 Uiso
C26 C 0.4219(3) 0.02141(3) 0.65124(8) 0.0500 Uiso
H17 H 0.2182(3) 0.01102(12) 0.42800(19) 0.0500 Uiso
N5 N 0.3477(3) 0.02050(5) 0.58696(12) 0.0500 Uiso
O5 O 0.0165(3) 0.16495(18) 0.6408(2) 0.0500 Uiso
O6 O 0.0536(3) 0.34378(18) 0.66046(9) 0.0500 Uiso
O7 O 0.3731(3) 0.3459(3) 0.36670(10) 0.0500 Uiso
O8 O 0.2382(3) 0.43205(19) 0.35957(8) 0.0500 Uiso
O10 O 0.3374(11) 0.542(2) 0.2486(12) 0.0500 Uiso
O11 O 0.5172(3) 0.40778(13) 0.15277(8) 0.0500 Uiso
N10 N 0.5417(3) 0.42140(5) 0.34473(12) 0.0500 Uiso
H21 H 0.281422 0.523871 0.282192 . .
H22 H 0.371491 0.603856 0.282112 . .
H2 H 0.4166(3) 0.02973(6) 0.973400(4) 0.0500 Uiso
C12 C 0.1889(3) 0.20660(8) 0.9859(2) 0.0500 Uiso
C13 C 0.1342(3) 0.29784(11) 0.9601(3) 0.0500 Uiso
H7 H 0.1433(3) 0.36631(11) 0.9906(3) 0.0500 Uiso
C14 C 0.0653(4) 0.28594(13) 0.8878(3) 0.0500 Uiso
H8 H 0.0292(4) 0.34790(15) 0.8709(3) 0.0500 Uiso
C15 C 0.1019(3) 0.10210(10) 0.8668(2) 0.0500 Uiso
H9 H 0.0912(3) 0.03472(10) 0.8350(2) 0.0500 Uiso
C16 C 0.1716(3) 0.10654(8) 0.9377(2) 0.0500 Uiso
H10 H 0.2068(3) 0.04319(6) 0.95315(16) 0.0500 Uiso
N4 N 0.0490(4) 0.19005(13) 0.8417(3) 0.0500 Uiso
C1 C 0.1993(2) 0.73177(11) 0.11331(12) 0.0500 Uiso
C2 C 0.2601(2) 0.81860(6) 0.07047(8) 0.0500 Uiso
C3 C 0.2583(2) 0.92972(7) 0.10187(11) 0.0500 Uiso
H1 H 0.2185(2) 0.95133(11) 0.14737(14) 0.0500 Uiso
C7 C 0.3194(2) 0.788308(10) 0.00268(3) 0.0500 Uiso
Cu1 Cu 0.0636(4) 0.7031(7) 0.2529(4) 0.0500 Uiso
O1 O 0.1373(2) 0.76488(16) 0.16297(17) 0.0500 Uiso
O2 O 0.2160(2) 0.63231(10) 0.09417(8) 0.0500 Uiso
C27 C 0.3418(3) 0.91314(8) 0.55265(18) 0.0500 Uiso
C28 C 0.2724(3) 0.86749(10) 0.4832(2) 0.0500 Uiso
C29 C 0.2150(3) 0.93329(12) 0.4243(2) 0.0500 Uiso
C30 C 0.1526(4) 0.88173(15) 0.3595(3) 0.0500 Uiso
H18 H 0.1143(4) 0.92673(16) 0.3204(3) 0.0500 Uiso
C31 C 0.2006(4) 0.70760(13) 0.4076(4) 0.0500 Uiso
H19 H 0.1960(4) 0.63018(13) 0.4024(4) 0.0500 Uiso
C32 C 0.2646(4) 0.75185(11) 0.4739(3) 0.0500 Uiso
H20 H 0.3019(4) 0.70478(9) 0.5121(3) 0.0500 Uiso
N6 N 0.4583(3) 0.92140(5) 0.65527(12) 0.0500 Uiso
N7 N 0.4088(3) 0.85171(8) 0.59375(18) 0.0500 Uiso
N8 N 0.1453(4) 0.77101(15) 0.3508(4) 0.0500 Uiso
O9 O 0.1150(11) 0.530(2) 0.2334(14) 0.0500 Uiso
Cu6 Cu 0.5649(4) 0.8783(7) 0.7544(5) 0.0500 Uiso
H23 H 0.182576 0.527897 0.248539 . .
H24 H 0.0841081 0.478294 0.276255 . .
C5 C 0.3772(2) 0.97697(3) 0.997175(18) 0.0500 Uiso
C6 C 0.3780(2) 0.86688(3) 0.965790(3) 0.0500 Uiso
H3 H 0.3202(2) 0.714628(3) 0.981415(15) 0.0500 Uiso
C8 C 0.4402(3) 0.83483(9) 0.88911(6) 0.0500 Uiso
O3 O 0.4828(3) 0.90778(13) 0.84723(8) 0.0500 Uiso
O4 O 0.4453(2) 0.73095(10) 0.87183(8) 0.0500 Uiso
Cu4 Cu 0.9364(4) 0.2031(7) 0.7471(4) 0.0500 Uiso
N9 N 0.9510(4) 0.69005(13) 0.1583(3) 0.0500 Uiso
O12 O 0.9835(3) 0.66495(18) 0.3592(2) 0.0500 Uiso
O13 O 0.9464(3) 0.84378(18) 0.33954(9) 0.0500 Uiso
C5_2 C 0.6228(2) 0.47697(3) 0.002825(18) 0.0500 Uiso
H2_2 H 0.5834(3) 0.52973(6) 0.026600(4) 0.0500 Uiso
C6_2 C 0.6220(2) 0.36688(3) 0.034210(3) 0.0500 Uiso
H3_2 H 0.6798(2) 0.214628(3) 0.018585(15) 0.0500 Uiso
C8_2 C 0.5598(3) 0.33483(9) 0.11089(6) 0.0500 Uiso
C12_2 C 0.8111(3) 0.70660(8) 0.0141(2) 0.0500 Uiso
C13_2 C 0.8658(3) 0.79784(11) 0.0399(3) 0.0500 Uiso
H7_2 H 0.8567(3) 0.86631(11) 0.0094(3) 0.0500 Uiso
C14_2 C 0.9347(4) 0.78594(13) 0.1122(3) 0.0500 Uiso
H8_2 H 0.9708(4) 0.84790(15) 0.1291(3) 0.0500 Uiso
C15_2 C 0.8981(3) 0.60210(10) 0.1332(2) 0.0500 Uiso
H9_2 H 0.9088(3) 0.53472(10) 0.1650(2) 0.0500 Uiso
C16_2 C 0.8284(3) 0.60654(8) 0.0623(2) 0.0500 Uiso
H10_2 H 0.7932(3) 0.54319(6) 0.04685(16) 0.0500 Uiso
O4_2 O 0.5547(2) 0.23095(10) 0.12817(8) 0.0500 Uiso
C1_2 C 0.8007(2) 0.23177(11) 0.88669(12) 0.0500 Uiso
C2_2 C 0.7399(2) 0.31860(6) 0.92953(8) 0.0500 Uiso
C3_2 C 0.7417(2) 0.42972(7) 0.89813(11) 0.0500 Uiso
H1_2 H 0.7815(2) 0.45133(11) 0.85263(14) 0.0500 Uiso
C4_2 C 0.6833(2) 0.50708(3) 0.93559(7) 0.0500 Uiso
C7_2 C 0.6806(2) 0.288308(10) 0.99732(3) 0.0500 Uiso
C9_2 C 0.5582(4) 0.59936(6) 0.77474(4) 0.0500 Uiso
H4_2 H 0.5750(2) 0.521636(9) 0.776391(1) 0.0500 Uiso
H5_2 H 0.4992(2) 0.60840(4) 0.80073(4) 0.0500 Uiso
H6_2 H 0.5547(2) 0.625417(16) 0.710471(5) 0.0500 Uiso
C10_2 C 0.6284(2) 0.66516(3) 0.83155(6) 0.0500 Uiso
C11_2 C 0.7380(3) 0.70939(6) 0.93761(15) 0.0500 Uiso
N1_2 N 0.6844(2) 0.62189(4) 0.90369(10) 0.0500 Uiso
N2_2 N 0.6468(2) 0.77149(4) 0.82277(10) 0.0500 Uiso
N3_2 N 0.7158(3) 0.80118(6) 0.88884(15) 0.0500 Uiso
O1_2 O 0.8627(2) 0.26488(16) 0.83703(17) 0.0500 Uiso
O2_2 O 0.7840(2) 0.13231(10) 0.90583(8) 0.0500 Uiso
C17_2 C 0.9323(3) 0.74738(14) 0.36847(14) 0.0500 Uiso
C18_2 C 0.8452(3) 0.72567(5) 0.41865(10) 0.0500 Uiso
C19_2 C 0.7904(3) 0.63252(4) 0.39384(12) 0.0500 Uiso
H11_2 H 0.8083(3) 0.58216(9) 0.34841(17) 0.0500 Uiso
C20_2 C 0.7095(3) 0.61623(4) 0.43797(9) 0.0500 Uiso
C21_2 C 0.6809(3) 0.69032(11) 0.50540(2) 0.0500 Uiso
H12_2 H 0.6258(3) 0.67883(17) 0.533698 0.0500 Uiso
C22_2 C 0.7359(3) 0.78216(11) 0.530184(1) 0.0500 Uiso
C23_2 C 0.8178(3) 0.79928(2) 0.48653(4) 0.0500 Uiso
H13_2 H 0.8544(3) 0.860866(18) 0.503368(18) 0.0500 Uiso
C24_2 C 0.7076(3) 0.85995(19) 0.60683(7) 0.0500 Uiso
C25_2 C 0.5458(3) 0.62173(7) 0.29443(4) 0.0500 Uiso
H14_2 H 0.5954(3) 0.65137(6) 0.260461(11) 0.0500 Uiso
H15_2 H 0.5253(3) 0.67751(5) 0.33720(5) 0.0500 Uiso
H16_2 H 0.4956(3) 0.601211(12) 0.250310(14) 0.0500 Uiso
C26_2 C 0.5781(3) 0.52141(3) 0.34876(8) 0.0500 Uiso
C27_2 C 0.6582(3) 0.41314(8) 0.44735(18) 0.0500 Uiso
C28_2 C 0.7276(3) 0.36749(10) 0.5168(2) 0.0500 Uiso
C29_2 C 0.7850(3) 0.43329(12) 0.5757(2) 0.0500 Uiso
H17_2 H 0.7818(3) 0.51102(12) 0.57200(19) 0.0500 Uiso
C30_2 C 0.8474(4) 0.38173(15) 0.6405(3) 0.0500 Uiso
H18_2 H 0.8857(4) 0.42673(16) 0.6796(3) 0.0500 Uiso
C31_2 C 0.7994(4) 0.20760(13) 0.5924(4) 0.0500 Uiso
H19_2 H 0.8040(4) 0.13018(13) 0.5976(4) 0.0500 Uiso
C32_2 C 0.7354(4) 0.25185(11) 0.5261(3) 0.0500 Uiso
H20_2 H 0.6981(4) 0.20478(9) 0.4879(3) 0.0500 Uiso
N5_2 N 0.6523(3) 0.52050(5) 0.41304(12) 0.0500 Uiso
N7_2 N 0.5912(3) 0.35171(8) 0.40625(18) 0.0500 Uiso
N8_2 N 0.8547(4) 0.27101(15) 0.6492(4) 0.0500 Uiso
O7_2 O 0.6269(3) 0.8459(3) 0.63330(10) 0.0500 Uiso
O8_2 O 0.7618(3) 0.93205(19) 0.64043(8) 0.0500 Uiso
O9_2 O 0.8850(11) 0.030(2) 0.7666(14) 0.0500 Uiso
H23_2 H 0.817424 0.0278971 0.751461 . .
O10_2 O 0.6626(11) 0.042(2) 0.7514(12) 0.0500 Uiso
H21_2 H 0.718578 0.0238707 0.717808 . .
H22_2 H 0.628509 0.103856 0.717888 . .
H24_2 H 0.915892 0.978294 0.723745 . .
loop_
_geom_bond_atom_site_label_1
_geom_bond_atom_site_label_2
_geom_bond_site_symmetry_1
_geom_bond_site_symmetry_2
C9 H4 1_555 1_555
H5 C9 1_555 1_555
H6 C9 1_555 1_555
C10 C9 1_555 1_555
Cu2 N2 1_555 1_555
N1 C4 1_555 1_555
N2 C10 1_555 1_555
N3 C11 1_555 1_555
C17 C18 1_555 1_555
C18 C19 1_555 1_555
C19 H11 1_555 1_555
C20 C19 1_555 1_555
C21 C20 1_555 1_555
H12 C21 1_555 1_555
C22 C21 1_555 1_555
C23 C18 1_555 1_555
H13 C23 1_555 1_555
C24 C22 1_555 1_555
C25 H14 1_555 1_555
H15 C25 1_555 1_555
H16 C25 1_555 1_555
C26 C25 1_555 1_555
N5 C20 1_555 1_555
O5 C17 1_555 1_555
O6 C17 1_555 1_555
O7 Cu2 1_555 1_555
O8 C24 1_555 1_555
O10 Cu2 1_555 1_555
O11 Cu2 1_555 1_555
N10 Cu2 1_555 1_555
C10 N1 1_555 1_555
C11 N1 1_555 1_555
N2 N3 1_555 1_555
C22 C23 1_555 1_555
C24 O7 1_555 1_555
C26 N5 1_555 1_555
O10 H21 1_555 1_555
O10 H22 1_555 1_555
C12 C13 1_555 1_555
C13 H7 1_555 1_555
C14 C13 1_555 1_555
H8 C14 1_555 1_555
C15 H9 1_555 1_555
C16 C12 1_555 1_555
H10 C16 1_555 1_555
N4 C14 1_555 1_555
C15 C16 1_555 1_555
C15 N4 1_555 1_555
C1 C2 1_555 1_555
C2 C3 1_555 1_555
C3 H1 1_555 1_555
C7 C2 1_555 1_555
Cu1 O1 1_555 1_555
O1 C1 1_555 1_555
O2 C1 1_555 1_555
C27 C28 1_555 1_555
C28 C29 1_555 1_555
C30 C29 1_555 1_555
H18 C30 1_555 1_555
C31 H19 1_555 1_555
C32 C28 1_555 1_555
H20 C32 1_555 1_555
N7 C27 1_555 1_555
N8 Cu1 1_555 1_555
O9 Cu1 1_555 1_555
Cu6 N6 1_555 1_555
C30 N8 1_555 1_555
C31 C32 1_555 1_555
C31 N8 1_555 1_555
N6 N7 1_555 1_555
O9 H23 1_555 1_555
O9 H24 1_555 1_555
C6 C5 1_555 1_555
C8 C6 1_555 1_555
O3 C8 1_555 1_555
O4 C8 1_555 1_555
Cu6 O3 1_555 1_555
H2_2 C5_2 1_555 1_555
C6_2 C5_2 1_555 1_555
C8_2 C6_2 1_555 1_555
C12_2 C13_2 1_555 1_555
C13_2 H7_2 1_555 1_555
C14_2 C13_2 1_555 1_555
H8_2 C14_2 1_555 1_555
C15_2 H9_2 1_555 1_555
C16_2 C12_2 1_555 1_555
H10_2 C16_2 1_555 1_555
N9 C14_2 1_555 1_555
O11 C8_2 1_555 1_555
O4_2 C8_2 1_555 1_555
C15_2 C16_2 1_555 1_555
C15_2 N9 1_555 1_555
C1_2 C2_2 1_555 1_555
C2_2 C3_2 1_555 1_555
C3_2 H1_2 1_555 1_555
C4_2 C3_2 1_555 1_555
C7_2 C2_2 1_555 1_555
C9_2 H4_2 1_555 1_555
H5_2 C9_2 1_555 1_555
H6_2 C9_2 1_555 1_555
C10_2 C9_2 1_555 1_555
Cu4 O1_2 1_555 1_555
Cu6 N2_2 1_555 1_555
N1_2 C4_2 1_555 1_555
N2_2 C10_2 1_555 1_555
N3_2 C11_2 1_555 1_555
O1_2 C1_2 1_555 1_555
O2_2 C1_2 1_555 1_555
C17_2 C18_2 1_555 1_555
C18_2 C19_2 1_555 1_555
C19_2 H11_2 1_555 1_555
C20_2 C19_2 1_555 1_555
C21_2 C20_2 1_555 1_555
H12_2 C21_2 1_555 1_555
C22_2 C21_2 1_555 1_555
C23_2 C18_2 1_555 1_555
H13_2 C23_2 1_555 1_555
C24_2 C22_2 1_555 1_555
C25_2 H14_2 1_555 1_555
H15_2 C25_2 1_555 1_555
H16_2 C25_2 1_555 1_555
C26_2 C25_2 1_555 1_555
C27_2 C28_2 1_555 1_555
C28_2 C29_2 1_555 1_555
C29_2 H17_2 1_555 1_555
C30_2 C29_2 1_555 1_555
H18_2 C30_2 1_555 1_555
C31_2 H19_2 1_555 1_555
C32_2 C28_2 1_555 1_555
H20_2 C32_2 1_555 1_555
N5_2 C20_2 1_555 1_555
N10 C26_2 1_555 1_555
N7_2 C27_2 1_555 1_555
N8_2 Cu4 1_555 1_555
O12 C17_2 1_555 1_555
O13 C17_2 1_555 1_555
O7_2 Cu6 1_555 1_555
O8_2 C24_2 1_555 1_555
O9_2 Cu4 1_555 1_555
C10_2 N1_2 1_555 1_555
C11_2 N1_2 1_555 1_555
N2_2 N3_2 1_555 1_555
C22_2 C23_2 1_555 1_555
C24_2 O7_2 1_555 1_555
C26_2 N5_2 1_555 1_555
C27_2 N5_2 1_555 1_555
C30_2 N8_2 1_555 1_555
C31_2 C32_2 1_555 1_555
C31_2 N8_2 1_555 1_555
N10 N7_2 1_555 1_555
O9_2 H23_2 1_555 1_555
O10_2 H21_2 1_555 1_555
O10_2 H22_2 1_555 1_555

#END
