
###############################################################################
#
# This file contains modified crystal structure data generated from the
# MOF subset of the Cambridge Structural Database (CSD) v543 
# hosted by the Cambridge Crystallographic Data Centre (CCDC).
#
# This work is licensed under the Creative Commons
# Attribution-NonCommercial-ShareAlike 4.0 International License.
# To view a copy of this license, visit
# http://creativecommons.org/licenses/by-nc-sa/4.0/
# or send a letter to
# Creative Commons, PO Box 1866, Mountain View, CA 94042, USA.
#
# CIF created using the CSD Python API on 29 September 2022
# The structure has been converted into the P1 space group
# The structure has a 3D framework
# The original CSD entry XOXTAI is in the monoclinic crystal system
# The framework has been calculated to contain at least 10.0% void space
# The void calculation uses a probe of radius 1.32A, grid spacing 0.4
#
###############################################################################

data_XOXTAI
_chemical_formula_moiety         '(C66 H48 Cu4 N16 O18)n'
_symmetry_cell_setting           triclinic
_symmetry_space_group_name_H-M   'P 1'
_symmetry_Int_Tables_number      1
_space_group_name_Hall           'P 1'
loop_
_symmetry_equiv_pos_site_id
_symmetry_equiv_pos_as_xyz
1 x,y,z
_cell_length_a                   13.7136(4)
_cell_length_b                   13.2270(5)
_cell_length_c                   15.1795(5)
_cell_angle_alpha                90
_cell_angle_beta                 93.415(3)
_cell_angle_gamma                90
_cell_volume                     2748.52
loop_
_atom_site_label
_atom_site_type_symbol
_atom_site_fract_x
_atom_site_fract_y
_atom_site_fract_z
Cu5 Cu -0.00007(12) 0.25328(6) 0.00021(11)
H14 H 0.0356 0.9983 0.9375
Cu7 Cu -0.00007(12) 0.74672(6) 0.50021(11)
H16 H 0.9683 0.0169 0.0185
Cu5_2 Cu 0.99993(12) 0.25328(6) 0.00021(11)
C1 C 0.3742(9) 0.7508(6) 0.1392(9)
C2 C 0.2919(5) 0.6904(5) 0.1863(5)
C3 C 0.2647(5) 0.5970(4) 0.1578(4)
H1 H 0.2984 0.5665 0.1118
C4 C 0.1900(5) 0.5453(4) 0.1933(4)
C5 C 0.1401(5) 0.5911(4) 0.2633(4)
H2 H 0.0875 0.5566 0.2881
C6 C 0.1675(5) 0.6828(4) 0.2941(4)
C7 C 0.2432(6) 0.7341(5) 0.2576(5)
H3 H 0.2628 0.7985 0.2800
C8 C 0.1175(6) 0.7284(6) 0.3668(6)
C9 C 0.0352(6) 0.5054(4) 0.0469(5)
H6 H 0.0249 0.5635 0.0852
C10 C 0.0942(5) 0.4285(4) 0.0963(5)
C11 C 0.1961(5) 0.3551(5) 0.1882(5)
C12 C 0.2688(5) 0.3312(5) 0.2635(5)
C13 C 0.2837(6) 0.3903(5) 0.3370(5)
H7 H 0.2475 0.4509 0.3428
C14 C 0.3519(5) 0.3612(5) 0.4031(5)
H8 H 0.3609 0.4022 0.4543
C15 C 0.3906(5) 0.2219(6) 0.3266(5)
H9 H 0.4295 0.1632 0.3202
C16 C 0.3199(7) 0.2470(5) 0.2620(6)
H10 H 0.3075 0.2016 0.2142
C25 C 0.9682(5) 0.0004(5) 0.9556(5)
C26 C 0.9122(5) 0.0796(4) 0.9032(4)
C27 C 0.8111(5) 0.1489(4) 0.8030(4)
C28 C 0.7368(6) 0.1670(4) 0.7342(5)
C29 C 0.7248(5) 0.1022(5) 0.6603(5)
H17 H 0.7641 0.0434 0.6563
C30 C 0.6570(5) 0.1251(5) 0.5957(5)
H18 H 0.6474 0.0793 0.5478
C31 C 0.6158(7) 0.2774(7) 0.6652(6)
H19 H 0.5826 0.3405 0.6633
C32 C 0.6778(7) 0.2559(6) 0.7391(7)
H20 H 0.6808 0.2981 0.7899
Cu1 Cu 0.49629(11) 0.23286(6) 0.49936(9)
N1 N 0.1621(4) 0.4461(4) 0.1636(4)
N2 N 0.0897(4) 0.3301(4) 0.0825(4)
N3 N 0.1557(4) 0.2845(4) 0.1419(4)
N4 N 0.4043(4) 0.2796(5) 0.3975(4)
N5 N 0.8476(4) 0.0555(3) 0.8340(3)
N6 N 0.9148(4) 0.1758(3) 0.9156(4)
N7 N 0.8527(4) 0.2257(5) 0.8535(4)
N8 N 0.6000(4) 0.2129(5) 0.5955(4)
O1 O 0.4072(3) 0.7071(4) 0.0792(3)
O2 O 0.3958(5) 0.8358(4) 0.1763(4)
O3 O 0.0537(4) 0.6730(3) 0.4031(3)
O4 O 0.1386(4) 0.8175(3) 0.3952(4)
C33 C 0.3460(8) 0.0295(10) 0.4825(7)
H22 H 0.3076 0.0522 0.5312
H23 H 0.3147 0.0526 0.4264
O9 O 0.4361(4) 0.0678(4) 0.4924(4)
H24 H 0.4771 0.0219 0.4850
O10 O 0.4072(3) 0.2929(4) 0.5792(3)
O13 O 0.5882(3) 0.1858(3) 0.4165(3)
H5 H 0.0697 0.5273 0.9955
Cu4 Cu 0.49629(11) 0.76714(6) 0.99936(9)
O11 O 0.0537(4) 0.3270(3) 0.9031(3)
O12 O 0.1386(4) 0.1825(3) 0.8952(4)
C17 C 0.6420(7) 0.7539(4) 0.8665(7)
C18 C 0.7194(5) 0.8086(5) 0.8219(5)
C19 C 0.7440(5) 0.9090(4) 0.8490(5)
H11 H 0.7111 0.9421 0.8941
C20 C 0.8202(5) 0.9574(4) 0.8050(4)
C21 C 0.8676(5) 0.9124(4) 0.7405(5)
H12 H 0.9193 0.9462 0.7138
C22 C 0.8389(5) 0.8134(4) 0.7129(4)
C23 C 0.7664(6) 0.7622(5) 0.7560(5)
H13 H 0.7498 0.6948 0.7395
C24 C 0.8853(7) 0.7647(6) 0.6335(6)
H15 H 0.9374 0.9344 0.9450
O5 O 0.5882(3) 0.8142(3) 0.9165(3)
O6 O 0.6317(4) 0.6626(4) 0.8652(4)
O7 O 0.9476(3) 0.8215(3) 0.5966(3)
O8 O 0.8656(4) 0.6773(4) 0.6132(4)
H21 H 0.3495 0.9555 0.4827
Cu7_2 Cu 0.99993(12) 0.74672(6) 0.50021(11)
H4 H 0.9720 0.4763 0.0271
O14 O 0.9476(3) 0.1785(3) 0.0966(3)
O15 O 0.8656(4) 0.3227(4) 0.1132(4)
H14_2 H 0.0356 0.0017 0.4375
C17_2 C 0.6420(7) 0.2461(4) 0.3665(7)
C18_2 C 0.7194(5) 0.1914(5) 0.3219(5)
C19_2 C 0.7440(5) 0.0910(4) 0.3490(5)
H11_2 H 0.7111 0.0579 0.3941
C20_2 C 0.8202(5) 0.0426(4) 0.3050(4)
C21_2 C 0.8676(5) 0.0876(4) 0.2405(5)
H12_2 H 0.9193 0.0538 0.2138
C22_2 C 0.8389(5) 0.1866(4) 0.2129(4)
C23_2 C 0.7664(6) 0.2378(5) 0.2560(5)
H13_2 H 0.7498 0.3052 0.2395
C24_2 C 0.8853(7) 0.2353(6) 0.1335(6)
H15_2 H 0.9374 0.0656 0.4450
O6_2 O 0.6317(4) 0.3374(4) 0.3652(4)
C25_2 C 0.9682(5) 0.9996(5) 0.4556(5)
H16_2 H 0.9683 0.9831 0.5185
C26_2 C 0.9122(5) 0.9204(4) 0.4032(4)
C27_2 C 0.8111(5) 0.8511(4) 0.3030(4)
C28_2 C 0.7368(6) 0.8330(4) 0.2342(5)
C29_2 C 0.7248(5) 0.8978(5) 0.1603(5)
H17_2 H 0.7641 0.9566 0.1563
C30_2 C 0.6570(5) 0.8749(5) 0.0957(5)
H18_2 H 0.6474 0.9207 0.0478
C31_2 C 0.6158(7) 0.7226(7) 0.1652(6)
H19_2 H 0.5826 0.6595 0.1633
C32_2 C 0.6778(7) 0.7441(6) 0.2391(7)
H20_2 H 0.6808 0.7019 0.2899
N5_2 N 0.8476(4) 0.9445(3) 0.3340(3)
N6_2 N 0.9148(4) 0.8242(3) 0.4156(4)
N7_2 N 0.8527(4) 0.7743(5) 0.3535(4)
N8_2 N 0.6000(4) 0.7871(5) 0.0955(4)
H22_2 H 0.3076 0.9478 0.0312
C1_2 C 0.3742(9) 0.2492(6) 0.6392(9)
C2_2 C 0.2919(5) 0.3096(5) 0.6863(5)
C3_2 C 0.2647(5) 0.4030(4) 0.6578(4)
H1_2 H 0.2984 0.4335 0.6118
C4_2 C 0.1900(5) 0.4547(4) 0.6933(4)
C5_2 C 0.1401(5) 0.4089(4) 0.7633(4)
H2_2 H 0.0875 0.4434 0.7881
C6_2 C 0.1675(5) 0.3172(4) 0.7941(4)
C7_2 C 0.2432(6) 0.2659(5) 0.7576(5)
H3_2 H 0.2628 0.2015 0.7800
C8_2 C 0.1175(6) 0.2716(6) 0.8668(6)
C9_2 C 0.0352(6) 0.4946(4) 0.5469(5)
H5_2 H 0.0697 0.4727 0.4955
H6_2 H 0.0249 0.4365 0.5852
C10_2 C 0.0942(5) 0.5715(4) 0.5963(5)
C11_2 C 0.1961(5) 0.6449(5) 0.6882(5)
C12_2 C 0.2688(5) 0.6688(5) 0.7635(5)
C13_2 C 0.2837(6) 0.6097(5) 0.8370(5)
H7_2 H 0.2475 0.5491 0.8428
C14_2 C 0.3519(5) 0.6388(5) 0.9031(5)
H8_2 H 0.3609 0.5978 0.9543
C15_2 C 0.3906(5) 0.7781(6) 0.8266(5)
H9_2 H 0.4295 0.8368 0.8202
C16_2 C 0.3199(7) 0.7530(5) 0.7620(6)
H10_2 H 0.3075 0.7984 0.7142
N1_2 N 0.1621(4) 0.5539(4) 0.6636(4)
N2_2 N 0.0897(4) 0.6699(4) 0.5825(4)
N3_2 N 0.1557(4) 0.7155(4) 0.6419(4)
N4_2 N 0.4043(4) 0.7204(5) 0.8975(4)
O2_2 O 0.3958(5) 0.1642(4) 0.6763(4)
C33_2 C 0.3460(8) 0.9705(10) 0.9825(7)
H23_2 H 0.3147 0.9474 0.9264
O9_2 O 0.4361(4) 0.9322(4) 0.9924(4)
H24_2 H 0.4771 0.9781 0.9850
H4_2 H 0.9720 0.5237 0.5271
H21_2 H 0.3495 0.0445 0.9827
loop_
_geom_bond_atom_site_label_1
_geom_bond_atom_site_label_2
_geom_bond_site_symmetry_1
_geom_bond_site_symmetry_2
C1 C2 1_555 1_555
C2 C3 1_555 1_555
C3 H1 1_555 1_555
C4 C3 1_555 1_555
C5 C4 1_555 1_555
H2 C5 1_555 1_555
C6 C5 1_555 1_555
C7 C2 1_555 1_555
H3 C7 1_555 1_555
C8 C6 1_555 1_555
H6 C9 1_555 1_555
C10 C9 1_555 1_555
C11 C12 1_555 1_555
C12 C13 1_555 1_555
C13 H7 1_555 1_555
C14 C13 1_555 1_555
H8 C14 1_555 1_555
C15 H9 1_555 1_555
C16 C12 1_555 1_555
H10 C16 1_555 1_555
C26 C25 1_555 1_555
C27 C28 1_555 1_555
C28 C29 1_555 1_555
C29 H17 1_555 1_555
C30 C29 1_555 1_555
H18 C30 1_555 1_555
C31 H19 1_555 1_555
C32 C28 1_555 1_555
H20 C32 1_555 1_555
Cu1 N4 1_555 1_555
Cu5 N2 1_555 1_555
N1 C4 1_555 1_555
N2 C10 1_555 1_555
N3 C11 1_555 1_555
N4 C14 1_555 1_555
N6 C26 1_555 1_555
N7 C27 1_555 1_555
N8 C30 1_555 1_555
O1 C1 1_555 1_555
O2 C1 1_555 1_555
O3 C8 1_555 1_555
O4 C8 1_555 1_555
H22 C33 1_555 1_555
H23 C33 1_555 1_555
O9 Cu1 1_555 1_555
H24 O9 1_555 1_555
Cu7 O3 1_555 1_555
O10 Cu1 1_555 1_555
O13 Cu1 1_555 1_555
C6 C7 1_555 1_555
C10 N1 1_555 1_555
C11 N1 1_555 1_555
C15 C16 1_555 1_555
C15 N4 1_555 1_555
C26 N5 1_555 1_555
C27 N5 1_555 1_555
C31 C32 1_555 1_555
C31 N8 1_555 1_555
Cu1 N8 1_555 1_555
N2 N3 1_555 1_555
N6 N7 1_555 1_555
O4 Cu7 1_555 1_555
C33 O9 1_555 1_555
C17 C18 1_555 1_555
C18 C19 1_555 1_555
C19 H11 1_555 1_555
C20 C19 1_555 1_555
C21 C20 1_555 1_555
H12 C21 1_555 1_555
C22 C21 1_555 1_555
C23 C18 1_555 1_555
H13 C23 1_555 1_555
C24 C22 1_555 1_555
O5 C17 1_555 1_555
O6 C17 1_555 1_555
O7 C24 1_555 1_555
O8 C24 1_555 1_555
Cu4 O5 1_555 1_555
Cu7_2 O7 1_555 1_555
C22 C23 1_555 1_555
O8 Cu7_2 1_555 1_555
O14 Cu5_2 1_555 1_555
O15 Cu5_2 1_555 1_555
C17_2 C18_2 1_555 1_555
C18_2 C19_2 1_555 1_555
C19_2 H11_2 1_555 1_555
C20_2 C19_2 1_555 1_555
C21_2 C20_2 1_555 1_555
H12_2 C21_2 1_555 1_555
C22_2 C21_2 1_555 1_555
C23_2 C18_2 1_555 1_555
H13_2 C23_2 1_555 1_555
C24_2 C22_2 1_555 1_555
O13 C17_2 1_555 1_555
O6_2 C17_2 1_555 1_555
O14 C24_2 1_555 1_555
O15 C24_2 1_555 1_555
C22_2 C23_2 1_555 1_555
H16_2 C25_2 1_555 1_555
C26_2 C25_2 1_555 1_555
C27_2 C28_2 1_555 1_555
C28_2 C29_2 1_555 1_555
C29_2 H17_2 1_555 1_555
C30_2 C29_2 1_555 1_555
H18_2 C30_2 1_555 1_555
C31_2 H19_2 1_555 1_555
C32_2 C28_2 1_555 1_555
H20_2 C32_2 1_555 1_555
N6_2 C26_2 1_555 1_555
N7_2 C27_2 1_555 1_555
N8_2 C30_2 1_555 1_555
Cu7_2 N6_2 1_555 1_555
C26_2 N5_2 1_555 1_555
C27_2 N5_2 1_555 1_555
C31_2 C32_2 1_555 1_555
C31_2 N8_2 1_555 1_555
N6_2 N7_2 1_555 1_555
C1_2 C2_2 1_555 1_555
C2_2 C3_2 1_555 1_555
C3_2 H1_2 1_555 1_555
C4_2 C3_2 1_555 1_555
C5_2 C4_2 1_555 1_555
H2_2 C5_2 1_555 1_555
C6_2 C5_2 1_555 1_555
C7_2 C2_2 1_555 1_555
H3_2 C7_2 1_555 1_555
C8_2 C6_2 1_555 1_555
H5_2 C9_2 1_555 1_555
H6_2 C9_2 1_555 1_555
C10_2 C9_2 1_555 1_555
C11_2 C12_2 1_555 1_555
C12_2 C13_2 1_555 1_555
C13_2 H7_2 1_555 1_555
C14_2 C13_2 1_555 1_555
H8_2 C14_2 1_555 1_555
C15_2 H9_2 1_555 1_555
C16_2 C12_2 1_555 1_555
H10_2 C16_2 1_555 1_555
Cu4 N4_2 1_555 1_555
Cu7 N2_2 1_555 1_555
N1_2 C4_2 1_555 1_555
N2_2 C10_2 1_555 1_555
N3_2 C11_2 1_555 1_555
N4_2 C14_2 1_555 1_555
O10 C1_2 1_555 1_555
O2_2 C1_2 1_555 1_555
O11 C8_2 1_555 1_555
O12 C8_2 1_555 1_555
H23_2 C33_2 1_555 1_555
O9_2 Cu4 1_555 1_555
H24_2 O9_2 1_555 1_555
C6_2 C7_2 1_555 1_555
C10_2 N1_2 1_555 1_555
C11_2 N1_2 1_555 1_555
C15_2 C16_2 1_555 1_555
C15_2 N4_2 1_555 1_555
N2_2 N3_2 1_555 1_555
C33_2 O9_2 1_555 1_555

#END
