
###############################################################################
#
# This file contains modified crystal structure data generated from the
# MOF subset of the Cambridge Structural Database (CSD) v543 
# hosted by the Cambridge Crystallographic Data Centre (CCDC).
#
# This work is licensed under the Creative Commons
# Attribution-NonCommercial-ShareAlike 4.0 International License.
# To view a copy of this license, visit
# http://creativecommons.org/licenses/by-nc-sa/4.0/
# or send a letter to
# Creative Commons, PO Box 1866, Mountain View, CA 94042, USA.
#
# CIF created using the CSD Python API on 29 September 2022
# The structure has been converted into the P1 space group
# The structure has a 3D framework
# The original CSD entry XOYDEX is in the monoclinic crystal system
# The framework has been calculated to contain at least 10.0% void space
# The void calculation uses a probe of radius 1.32A, grid spacing 0.4
#
###############################################################################

data_XOYDEX
_chemical_formula_moiety         '(C56 H32 N22 O28 S8 Zn18)n'
_symmetry_cell_setting           triclinic
_symmetry_space_group_name_H-M   'P 1'
_symmetry_Int_Tables_number      1
_space_group_name_Hall           'P 1'
loop_
_symmetry_equiv_pos_site_id
_symmetry_equiv_pos_as_xyz
1 x,y,z
_cell_length_a                   18.054(4)
_cell_length_b                   20.290(4)
_cell_length_c                   12.812(3)
_cell_angle_alpha                90
_cell_angle_beta                 128.191(5)
_cell_angle_gamma                90
_cell_volume                     3688.67
loop_
_atom_site_label
_atom_site_type_symbol
_atom_site_fract_x
_atom_site_fract_y
_atom_site_fract_z
Zn2 Zn 0.89715(4) 0.0000 0.37916(7)
N1 N 0.7601(3) 0.0000 0.2257(5)
N4 N 0.6130(2) 0.03444(17) 0.0841(4)
N5 N 0.7326(3) 0.1154(2) 0.1965(5)
H5 H 0.6925 0.1471 0.1574
H6 H 0.7918 0.1240 0.2529
C8 C 0.7026(3) 0.0520(2) 0.1693(4)
Zn3 Zn 0.5000 0.09033(3) 0.0000
O9 O 0.9473(2) 0.0715(2) 0.3284(4)
O11 O 0.9030(3) 0.0709(2) 0.4959(4)
Zn3_2 Zn 0.5000 0.09033(3) 1.0000
Zn1 Zn 0.5000 0.90967(3) 0.0000
Zn2_2 Zn 0.89715(4) 1.0000 0.37916(7)
N1_2 N 0.7601(3) 1.0000 0.2257(5)
N2 N 0.6130(2) 0.96556(17) 0.0841(4)
N3 N 0.7326(3) 0.8846(2) 0.1965(5)
H1 H 0.6925 0.8529 0.1574
H2 H 0.7918 0.8760 0.2529
C5 C 0.7026(3) 0.9480(2) 0.1693(4)
S2 S 0.45359(10) 0.68823(9) 0.20125(16)
O5 O 0.4473(2) 0.5715(2) 0.3284(4)
O6 O 0.5314(3) 0.8531(2) 0.1456(4)
O7 O 0.5970(3) 0.5709(2) 0.5041(4)
C9 C 0.5431(3) 0.6551(3) 0.3488(6)
O8 O 0.3998(3) 0.7961(3) 0.0146(5)
C10 C 0.5212(4) 0.7534(3) 0.2232(6)
C11 C 0.5279(4) 0.5933(2) 0.3957(5)
C12 C 0.4803(4) 0.8042(3) 0.1173(7)
C13 C 0.6069(4) 0.7492(4) 0.3374(7)
H7 H 0.6535 0.7806 0.3667
C14 C 0.6203(4) 0.6934(4) 0.4087(7)
H8 H 0.6772 0.6831 0.4905
Zn5 Zn 0.39715(4) 0.5000 0.37916(7)
Zn7 Zn 0.60285(4) 0.5000 0.62084(7)
O10 O 0.9473(2) 0.9285(2) 0.3284(4)
O12 O 0.9030(3) 0.9291(2) 0.4959(4)
Zn1_2 Zn 0.5000 0.90967(3) 1.0000
S1 S 0.54641(10) 0.68823(9) 0.79875(16)
O1 O 0.5527(2) 0.5715(2) 0.6716(4)
O2 O 0.4686(3) 0.8531(2) 0.8544(4)
O3 O 0.4030(3) 0.5709(2) 0.4959(4)
C1 C 0.4569(3) 0.6551(3) 0.6512(6)
O4 O 0.6002(3) 0.7961(3) 0.9854(5)
C2 C 0.4788(4) 0.7534(3) 0.7768(6)
C3 C 0.4721(4) 0.5933(2) 0.6043(5)
C4 C 0.5197(4) 0.8042(3) 0.8827(7)
C6 C 0.3931(4) 0.7492(4) 0.6626(7)
H3 H 0.3465 0.7806 0.6333
C7 C 0.3797(4) 0.6934(4) 0.5913(7)
H4 H 0.3228 0.6831 0.5095
N6 N 0.3870(2) 0.96556(17) 0.9159(4)
Zn2_3 Zn 0.10285(4) 0.0000 0.62084(7)
N1_3 N 0.2399(3) 0.0000 0.7743(5)
N4_2 N 0.3870(2) 0.03444(17) 0.9159(4)
N5_2 N 0.2674(3) 0.1154(2) 0.8035(5)
H5_2 H 0.3075 0.1471 0.8426
H6_2 H 0.2082 0.1240 0.7471
C8_2 C 0.2974(3) 0.0520(2) 0.8307(4)
O9_2 O 0.0527(2) 0.0715(2) 0.6716(4)
O11_2 O 0.0970(3) 0.0709(2) 0.5041(4)
Zn2_4 Zn 0.10285(4) 1.0000 0.62084(7)
N1_4 N 0.2399(3) 1.0000 0.7743(5)
N3_2 N 0.2674(3) 0.8846(2) 0.8035(5)
H1_2 H 0.3075 0.8529 0.8426
H2_2 H 0.2082 0.8760 0.7471
C5_2 C 0.2974(3) 0.9480(2) 0.8307(4)
O10_2 O 0.0527(2) 0.9285(2) 0.6716(4)
O12_2 O 0.0970(3) 0.9291(2) 0.5041(4)
Zn1_3 Zn -0.0000 0.40967(3) 0.0000
N1_5 N 0.2601(3) 0.5000 0.2257(5)
N2_2 N 0.1130(2) 0.46556(17) 0.0841(4)
N3_3 N 0.2326(3) 0.3846(2) 0.1965(5)
H1_3 H 0.1925 0.3529 0.1574
H2_3 H 0.2918 0.3760 0.2529
C5_3 C 0.2026(3) 0.4480(2) 0.1693(4)
N4_3 N 0.1130(2) 0.53444(17) 0.0841(4)
N5_3 N 0.2326(3) 0.6154(2) 0.1965(5)
H5_3 H 0.1925 0.6471 0.1574
H6_3 H 0.2918 0.6240 0.2529
C8_3 C 0.2026(3) 0.5520(2) 0.1693(4)
O6_2 O 0.0314(3) 0.3531(2) 0.1456(4)
C9_2 C 0.0431(3) 0.1551(3) 0.3488(6)
C10_2 C 0.0212(4) 0.2534(3) 0.2232(6)
C11_2 C 0.0279(4) 0.0933(2) 0.3957(5)
C13_2 C 0.1069(4) 0.2492(4) 0.3374(7)
H7_2 H 0.1535 0.2806 0.3667
C14_2 C 0.1203(4) 0.1934(4) 0.4087(7)
H8_2 H 0.1772 0.1831 0.4905
Zn3_3 Zn -0.0000 0.59033(3) 0.0000
O10_3 O 0.4473(2) 0.4285(2) 0.3284(4)
O12_3 O 0.4030(3) 0.4291(2) 0.4959(4)
Zn1_4 Zn 0.0000 0.40967(3) 1.0000
S1_2 S 0.04641(10) 0.18823(9) 0.79875(16)
O4_2 O 0.1002(3) 0.2961(3) 0.9854(5)
C4_2 C 0.0197(4) 0.3042(3) 0.8827(7)
Zn3_4 Zn 0.0000 0.59033(3) 1.0000
Zn1_5 Zn 1.0000 0.40967(3) 0.0000
S2_2 S 0.95359(10) 0.18823(9) 0.20125(16)
O8_2 O 0.8998(3) 0.2961(3) 0.0146(5)
C12_2 C 0.9803(4) 0.3042(3) 0.1173(7)
Zn3_5 Zn 1.0000 0.59033(3) 0.0000
Zn1_6 Zn 1.0000 0.40967(3) 1.0000
O2_2 O 0.9686(3) 0.3531(2) 0.8544(4)
C1_2 C 0.9569(3) 0.1551(3) 0.6512(6)
C2_2 C 0.9788(4) 0.2534(3) 0.7768(6)
C3_2 C 0.9721(4) 0.0933(2) 0.6043(5)
C6_2 C 0.8931(4) 0.2492(4) 0.6626(7)
H3_2 H 0.8465 0.2806 0.6333
C7_2 C 0.8797(4) 0.1934(4) 0.5913(7)
H4_2 H 0.8228 0.1831 0.5095
Zn3_6 Zn 1.0000 0.59033(3) 1.0000
N6_2 N 0.8870(2) 0.46556(17) 0.9159(4)
N1_6 N 0.7399(3) 0.5000 0.7743(5)
N3_4 N 0.7674(3) 0.3846(2) 0.8035(5)
H1_4 H 0.8075 0.3529 0.8426
H2_4 H 0.7082 0.3760 0.7471
C5_4 C 0.7974(3) 0.4480(2) 0.8307(4)
N4_4 N 0.8870(2) 0.53444(17) 0.9159(4)
N5_4 N 0.7674(3) 0.6154(2) 0.8035(5)
H5_4 H 0.8075 0.6471 0.8426
H6_4 H 0.7082 0.6240 0.7471
C8_4 C 0.7974(3) 0.5520(2) 0.8307(4)
O10_4 O 0.5527(2) 0.4285(2) 0.6716(4)
O12_4 O 0.5970(3) 0.4291(2) 0.5041(4)
S1_3 S 0.45359(10) 0.31177(9) 0.20125(16)
O2_3 O 0.5314(3) 0.1469(2) 0.1456(4)
C1_3 C 0.5431(3) 0.3449(3) 0.3488(6)
O4_3 O 0.3998(3) 0.2039(3) 0.0146(5)
C2_3 C 0.5212(4) 0.2466(3) 0.2232(6)
C3_3 C 0.5279(4) 0.4067(2) 0.3957(5)
C4_3 C 0.4803(4) 0.1958(3) 0.1173(7)
C6_3 C 0.6069(4) 0.2508(4) 0.3374(7)
H3_3 H 0.6535 0.2194 0.3667
C7_3 C 0.6203(4) 0.3066(4) 0.4087(7)
H4_3 H 0.6772 0.3169 0.4905
S2_3 S 0.54641(10) 0.31177(9) 0.79875(16)
O6_3 O 0.4686(3) 0.1469(2) 0.8544(4)
C9_3 C 0.4569(3) 0.3449(3) 0.6512(6)
O8_3 O 0.6002(3) 0.2039(3) 0.9854(5)
C10_3 C 0.4788(4) 0.2466(3) 0.7768(6)
C11_3 C 0.4721(4) 0.4067(2) 0.6043(5)
C12_3 C 0.5197(4) 0.1958(3) 0.8827(7)
C13_3 C 0.3931(4) 0.2508(4) 0.6626(7)
H7_3 H 0.3465 0.2194 0.6333
C14_3 C 0.3797(4) 0.3066(4) 0.5913(7)
H8_3 H 0.3228 0.3169 0.5095
O2_4 O 0.0314(3) 0.6469(2) 0.1456(4)
C1_4 C 0.0431(3) 0.8449(3) 0.3488(6)
C2_4 C 0.0212(4) 0.7466(3) 0.2232(6)
C3_4 C 0.0279(4) 0.9067(2) 0.3957(5)
C6_4 C 0.1069(4) 0.7508(4) 0.3374(7)
H3_4 H 0.1535 0.7194 0.3667
C7_4 C 0.1203(4) 0.8066(4) 0.4087(7)
H4_4 H 0.1772 0.8169 0.4905
S2_4 S 0.04641(10) 0.81177(9) 0.79875(16)
O8_4 O 0.1002(3) 0.7039(3) 0.9854(5)
C12_4 C 0.0197(4) 0.6958(3) 0.8827(7)
S1_4 S 0.95359(10) 0.81177(9) 0.20125(16)
O4_4 O 0.8998(3) 0.7039(3) 0.0146(5)
C4_4 C 0.9803(4) 0.6958(3) 0.1173(7)
O6_4 O 0.9686(3) 0.6469(2) 0.8544(4)
C9_4 C 0.9569(3) 0.8449(3) 0.6512(6)
C10_4 C 0.9788(4) 0.7466(3) 0.7768(6)
C11_4 C 0.9721(4) 0.9067(2) 0.6043(5)
C13_4 C 0.8931(4) 0.7508(4) 0.6626(7)
H7_4 H 0.8465 0.7194 0.6333
C14_4 C 0.8797(4) 0.8066(4) 0.5913(7)
H8_4 H 0.8228 0.8169 0.5095
loop_
_geom_bond_atom_site_label_1
_geom_bond_atom_site_label_2
_geom_bond_site_symmetry_1
_geom_bond_site_symmetry_2
Zn2 N1 1_555 1_555
N5 H5 1_555 1_555
H6 N5 1_555 1_555
C8 N1 1_555 1_555
Zn3 N4 1_555 1_555
O9 Zn2 1_555 1_555
O11 Zn2 1_555 1_555
N4 C8 1_555 1_555
N5 C8 1_555 1_555
Zn2_2 N1_2 1_555 1_555
N1_2 C5 1_555 1_555
N2 Zn1 1_555 1_555
N3 H1 1_555 1_555
H2 N3 1_555 1_555
C5 N2 1_555 1_555
S2 C9 1_555 1_555
O5 C11 1_555 1_555
O6 Zn1 1_555 1_555
O7 C11 1_555 1_555
C9 C11 1_555 1_555
O8 C12 1_555 1_555
C10 S2 1_555 1_555
C12 O6 1_555 1_555
C13 C10 1_555 1_555
H7 C13 1_555 1_555
C14 C9 1_555 1_555
H8 C14 1_555 1_555
Zn5 O5 1_555 1_555
Zn7 O7 1_555 1_555
O10 Zn2_2 1_555 1_555
O12 Zn2_2 1_555 1_555
N3 C5 1_555 1_555
C10 C12 1_555 1_555
C13 C14 1_555 1_555
Zn1_2 O2 1_555 1_555
S1 C1 1_555 1_555
O1 C3 1_555 1_555
O2 C4 1_555 1_555
O3 C3 1_555 1_555
C1 C3 1_555 1_555
O4 C4 1_555 1_555
C2 S1 1_555 1_555
C4 C2 1_555 1_555
C6 C2 1_555 1_555
H3 C6 1_555 1_555
C7 C1 1_555 1_555
H4 C7 1_555 1_555
Zn5 O3 1_555 1_555
Zn7 O1 1_555 1_555
N6 Zn1_2 1_555 1_555
C6 C7 1_555 1_555
Zn2_3 N1_3 1_555 1_555
N5_2 H5_2 1_555 1_555
H6_2 N5_2 1_555 1_555
C8_2 N1_3 1_555 1_555
Zn3_2 N4_2 1_555 1_555
O9_2 Zn2_3 1_555 1_555
O11_2 Zn2_3 1_555 1_555
N4_2 C8_2 1_555 1_555
N5_2 C8_2 1_555 1_555
Zn2_4 N1_4 1_555 1_555
N1_4 C5_2 1_555 1_555
N3_2 H1_2 1_555 1_555
H2_2 N3_2 1_555 1_555
C5_2 N6 1_555 1_555
O10_2 Zn2_4 1_555 1_555
O12_2 Zn2_4 1_555 1_555
N3_2 C5_2 1_555 1_555
Zn5 N1_5 1_555 1_555
N1_5 C5_3 1_555 1_555
N2_2 Zn1_3 1_555 1_555
N3_3 H1_3 1_555 1_555
H2_3 N3_3 1_555 1_555
C5_3 N2_2 1_555 1_555
N4_3 N2_2 1_555 1_555
N5_3 H5_3 1_555 1_555
H6_3 N5_3 1_555 1_555
C8_3 N1_5 1_555 1_555
O6_2 Zn1_3 1_555 1_555
O11_2 C11_2 1_555 1_555
C9_2 C11_2 1_555 1_555
C13_2 C10_2 1_555 1_555
H7_2 C13_2 1_555 1_555
C14_2 C9_2 1_555 1_555
H8_2 C14_2 1_555 1_555
Zn3_3 N4_3 1_555 1_555
O10_3 Zn5 1_555 1_555
O12_3 Zn5 1_555 1_555
N3_3 C5_3 1_555 1_555
N4_3 C8_3 1_555 1_555
N5_3 C8_3 1_555 1_555
C13_2 C14_2 1_555 1_555
O4_2 C4_2 1_555 1_555
O8_2 C12_2 1_555 1_555
Zn1_6 O2_2 1_555 1_555
O11 C3_2 1_555 1_555
C1_2 C3_2 1_555 1_555
C6_2 C2_2 1_555 1_555
H3_2 C6_2 1_555 1_555
C7_2 C1_2 1_555 1_555
H4_2 C7_2 1_555 1_555
N6_2 Zn1_6 1_555 1_555
C6_2 C7_2 1_555 1_555
Zn7 N1_6 1_555 1_555
N1_6 C5_4 1_555 1_555
N3_4 H1_4 1_555 1_555
H2_4 N3_4 1_555 1_555
C5_4 N6_2 1_555 1_555
N4_4 N6_2 1_555 1_555
N5_4 H5_4 1_555 1_555
H6_4 N5_4 1_555 1_555
C8_4 N1_6 1_555 1_555
Zn3_6 N4_4 1_555 1_555
O10_4 Zn7 1_555 1_555
O12_4 Zn7 1_555 1_555
N3_4 C5_4 1_555 1_555
N4_4 C8_4 1_555 1_555
N5_4 C8_4 1_555 1_555
Zn3 O2_3 1_555 1_555
S1_3 C1_3 1_555 1_555
O10_3 C3_3 1_555 1_555
O2_3 C4_3 1_555 1_555
O12_4 C3_3 1_555 1_555
C1_3 C3_3 1_555 1_555
O4_3 C4_3 1_555 1_555
C2_3 S1_3 1_555 1_555
C4_3 C2_3 1_555 1_555
C6_3 C2_3 1_555 1_555
H3_3 C6_3 1_555 1_555
C7_3 C1_3 1_555 1_555
H4_3 C7_3 1_555 1_555
C6_3 C7_3 1_555 1_555
S2_3 C9_3 1_555 1_555
O10_4 C11_3 1_555 1_555
O6_3 Zn3_2 1_555 1_555
O12_3 C11_3 1_555 1_555
C9_3 C11_3 1_555 1_555
O8_3 C12_3 1_555 1_555
C10_3 S2_3 1_555 1_555
C12_3 O6_3 1_555 1_555
C13_3 C10_3 1_555 1_555
H7_3 C13_3 1_555 1_555
C14_3 C9_3 1_555 1_555
H8_3 C14_3 1_555 1_555
C10_3 C12_3 1_555 1_555
C13_3 C14_3 1_555 1_555
Zn3_3 O2_4 1_555 1_555
O12_2 C3_4 1_555 1_555
C1_4 C3_4 1_555 1_555
C6_4 C2_4 1_555 1_555
H3_4 C6_4 1_555 1_555
C7_4 C1_4 1_555 1_555
H4_4 C7_4 1_555 1_555
C6_4 C7_4 1_555 1_555
O8_4 C12_4 1_555 1_555
O4_4 C4_4 1_555 1_555
O6_4 Zn3_6 1_555 1_555
O12 C11_4 1_555 1_555
C9_4 C11_4 1_555 1_555
C13_4 C10_4 1_555 1_555
H7_4 C13_4 1_555 1_555
C14_4 C9_4 1_555 1_555
H8_4 C14_4 1_555 1_555
C13_4 C14_4 1_555 1_555

#END
