
###############################################################################
#
# This file contains modified crystal structure data generated from the
# MOF subset of the Cambridge Structural Database (CSD) v543 
# hosted by the Cambridge Crystallographic Data Centre (CCDC).
#
# This work is licensed under the Creative Commons
# Attribution-NonCommercial-ShareAlike 4.0 International License.
# To view a copy of this license, visit
# http://creativecommons.org/licenses/by-nc-sa/4.0/
# or send a letter to
# Creative Commons, PO Box 1866, Mountain View, CA 94042, USA.
#
# CIF created using the CSD Python API on 29 September 2022
# The structure has been converted into the P1 space group
# The structure has a 3D framework
# The original CSD entry XOYSAI is in the tetragonal crystal system
# The original CSD entry XOYSAI is in a Sohncke space group
# The framework has been calculated to contain at least 10.0% void space
# The void calculation uses a probe of radius 1.32A, grid spacing 0.4
#
###############################################################################

data_XOYSAI
_chemical_formula_moiety         '(C84 H34 O38 V6)n'
_symmetry_cell_setting           triclinic
_symmetry_space_group_name_H-M   'P 1'
_symmetry_Int_Tables_number      1
_space_group_name_Hall           'P 1'
loop_
_symmetry_equiv_pos_site_id
_symmetry_equiv_pos_as_xyz
1 x,y,z
_cell_length_a                   15.07259(8)
_cell_length_b                   15.07259(8)
_cell_length_c                   11.95925(9)
_cell_angle_alpha                90
_cell_angle_beta                 90
_cell_angle_gamma                90
_cell_volume                     2716.94
loop_
_atom_site_label
_atom_site_type_symbol
_atom_site_fract_x
_atom_site_fract_y
_atom_site_fract_z
_atom_site_U_iso_or_equiv
_atom_site_thermal_displace_type
O4 O 0.6201(16) 0.3793(15) 0.3861(13) 0.0250 Uiso
O5 O 0.7086(11) 0.3944(16) 0.2541(15) 0.0250 Uiso
C6 C 0.6374(10) 0.4086(11) 0.2954(12) 0.0291 Uiso
C7 C 0.5711(4) 0.4621(4) 0.2345(10) 0.0291 Uiso
C8 C 0.500 0.500 0.2931(12) 0.0291 Uiso
C9 C 0.5711(4) 0.4621(4) 0.1172(7) 0.0291 Uiso
C10 C 0.500 0.500 0.0586(7) 0.0291 Uiso
H3 H 0.500 0.500 0.381(5) 0.0291 Uiso
H4 H 0.624(3) 0.4337(17) 0.073(3) 0.0291 Uiso
O6 O 0.3799(16) 0.6207(15) 0.3861(13) 0.0250 Uiso
O7 O 0.2914(11) 0.6056(16) 0.2541(15) 0.0250 Uiso
C11 C 0.3626(10) 0.5914(11) 0.2954(12) 0.0291 Uiso
C12 C 0.4289(4) 0.5379(4) 0.2345(10) 0.0291 Uiso
C13 C 0.4289(4) 0.5379(4) 0.1172(7) 0.0291 Uiso
H5 H 0.376(3) 0.5663(17) 0.073(3) 0.0291 Uiso
V2 V 0.80570(13) 0.30570(13) 0.250 0.0250 Uiso
O10 O 0.7715(7) 0.250 0.125 0.0250 Uiso
O11 O 0.8793(15) 0.3799(16) 0.1361(13) 0.0250 Uiso
O13 O 0.8799(16) 0.3793(15) 0.3639(13) 0.0250 Uiso
O16 O 0.8944(16) 0.2086(11) 0.2459(15) 0.0250 Uiso
V3 V 0.69430(13) 0.30570(13) 0.500 0.0250 Uiso
V5 V 0.80570(13) 0.19430(13) -0.000 0.0250 Uiso
V7 V 0.19430(13) 0.69430(13) 0.250 0.0250 Uiso
V9 V 0.30570(13) 0.69430(13) 0.500 0.0250 Uiso
O18 O 0.750 0.2715(7) 0.375 0.0250 Uiso
O1 O 0.6207(15) 0.3799(16) 0.6139(13) 0.0250 Uiso
O2 O 0.6056(16) 0.2914(11) 0.7459(15) 0.0250 Uiso
C1 C 0.5914(11) 0.3626(10) 0.7046(12) 0.0291 Uiso
C2 C 0.5379(4) 0.4289(4) 0.7655(10) 0.0291 Uiso
C3 C 0.500 0.500 0.7069(12) 0.0291 Uiso
C4 C 0.5379(4) 0.4289(4) 0.8828(7) 0.0291 Uiso
C5 C 0.500 0.500 0.9414(7) 0.0291 Uiso
H1 H 0.500 0.500 0.619(5) 0.0291 Uiso
H2 H 0.5663(17) 0.376(3) 0.927(3) 0.0291 Uiso
O3 O 0.7285(7) 0.250 0.625 0.0250 Uiso
O8 O 0.3793(15) 0.6201(16) 0.6139(13) 0.0250 Uiso
O9 O 0.3944(16) 0.7086(11) 0.7459(15) 0.0250 Uiso
C14 C 0.4086(11) 0.6374(10) 0.7046(12) 0.0291 Uiso
C15 C 0.4621(4) 0.5711(4) 0.7655(10) 0.0291 Uiso
C16 C 0.4621(4) 0.5711(4) 0.8828(7) 0.0291 Uiso
H6 H 0.4337(17) 0.624(3) 0.927(3) 0.0291 Uiso
O14 O 0.7914(11) 0.3944(16) 0.4959(15) 0.0250 Uiso
O15 O 0.6056(16) 0.2086(11) 0.5041(15) 0.0250 Uiso
V4 V 0.69430(13) 0.19430(13) 0.750 0.0250 Uiso
V5_2 V 0.80570(13) 0.19430(13) 1.000 0.0250 Uiso
V6 V 0.30570(13) 0.80570(13) 0.750 0.0250 Uiso
C3_2 C -0.000 0.500 0.0431(12) 0.0291 Uiso
H1_2 H -0.000 0.500 0.131(5) 0.0291 Uiso
O8_2 O 0.1207(15) 0.6201(16) 0.1361(13) 0.0250 Uiso
O9_2 O 0.1056(16) 0.7086(11) 0.0041(15) 0.0250 Uiso
C14_2 C 0.0914(11) 0.6374(10) 0.0454(12) 0.0291 Uiso
V6_2 V 0.19430(13) 0.80570(13) 0.000 0.0250 Uiso
C5_2 C -0.000 0.500 0.8086(7) 0.0291 Uiso
C8_2 C 0.000 0.500 0.4569(12) 0.0291 Uiso
C10_2 C -0.000 0.500 0.6914(7) 0.0291 Uiso
H3_2 H 0.000 0.500 0.369(5) 0.0291 Uiso
O6_2 O 0.1201(16) 0.6207(15) 0.3639(13) 0.0250 Uiso
O7_2 O 0.2086(11) 0.6056(16) 0.4959(15) 0.0250 Uiso
C11_2 C 0.1374(10) 0.5914(11) 0.4546(12) 0.0291 Uiso
C12_2 C 0.0711(4) 0.5379(4) 0.5155(10) 0.0291 Uiso
C13_2 C 0.0711(4) 0.5379(4) 0.6328(7) 0.0291 Uiso
H5_2 H 0.124(3) 0.5663(17) 0.677(3) 0.0291 Uiso
C15_2 C 0.0379(4) 0.5711(4) 0.9845(10) 0.0291 Uiso
C16_2 C 0.0379(4) 0.5711(4) 0.8672(7) 0.0291 Uiso
H6_2 H 0.0663(17) 0.624(3) 0.823(3) 0.0291 Uiso
V6_3 V 0.19430(13) 0.80570(13) 1.000 0.0250 Uiso
O2_2 O 0.8944(16) 0.2914(11) 0.0041(15) 0.0250 Uiso
C1_2 C 0.9086(11) 0.3626(10) 0.0454(12) 0.0291 Uiso
C3_3 C 1.000 0.500 0.0431(12) 0.0291 Uiso
H1_3 H 1.000 0.500 0.131(5) 0.0291 Uiso
C2_2 C 0.9621(4) 0.4289(4) 0.9845(10) 0.0291 Uiso
C4_2 C 0.9621(4) 0.4289(4) 0.8672(7) 0.0291 Uiso
C5_3 C 1.000 0.500 0.8086(7) 0.0291 Uiso
H2_2 H 0.9337(17) 0.376(3) 0.823(3) 0.0291 Uiso
C6_2 C 0.8626(10) 0.4086(11) 0.4546(12) 0.0291 Uiso
C7_2 C 0.9289(4) 0.4621(4) 0.5155(10) 0.0291 Uiso
C8_3 C 1.000 0.500 0.4569(12) 0.0291 Uiso
C9_2 C 0.9289(4) 0.4621(4) 0.6328(7) 0.0291 Uiso
C10_3 C 1.000 0.500 0.6914(7) 0.0291 Uiso
H3_3 H 1.000 0.500 0.369(5) 0.0291 Uiso
H4_2 H 0.876(3) 0.4337(17) 0.677(3) 0.0291 Uiso
O10_2 O 0.750 0.2285(7) 0.875 0.0250 Uiso
O11_2 O 0.6201(16) 0.1207(15) 0.8639(13) 0.0250 Uiso
O13_2 O 0.6207(15) 0.1201(16) 0.6361(13) 0.0250 Uiso
O16_2 O 0.7914(11) 0.1056(16) 0.7541(15) 0.0250 Uiso
C2_3 C 0.5711(4) 0.0379(4) 0.0155(10) 0.0291 Uiso
C4_3 C 0.5711(4) 0.0379(4) 0.1328(7) 0.0291 Uiso
C5_4 C 0.500 0.000 0.1914(7) 0.0291 Uiso
H2_3 H 0.624(3) 0.0663(17) 0.177(3) 0.0291 Uiso
C6_3 C 0.5914(11) 0.1374(10) 0.5454(12) 0.0291 Uiso
C7_3 C 0.5379(4) 0.0711(4) 0.4845(10) 0.0291 Uiso
C8_4 C 0.500 0.000 0.5431(12) 0.0291 Uiso
C9_3 C 0.5379(4) 0.0711(4) 0.3672(7) 0.0291 Uiso
C10_4 C 0.500 0.000 0.3086(7) 0.0291 Uiso
H3_4 H 0.500 0.000 0.631(5) 0.0291 Uiso
H4_3 H 0.5663(17) 0.124(3) 0.323(3) 0.0291 Uiso
O2_3 O 0.7086(11) 0.1056(16) 0.9959(15) 0.0250 Uiso
C1_3 C 0.6374(10) 0.0914(11) 0.9546(12) 0.0291 Uiso
C3_4 C 0.500 0.000 0.9569(12) 0.0291 Uiso
H1_4 H 0.500 0.000 0.869(5) 0.0291 Uiso
C5_5 C 0.500 1.000 0.1914(7) 0.0291 Uiso
C8_5 C 0.500 1.000 0.5431(12) 0.0291 Uiso
C10_5 C 0.500 1.000 0.3086(7) 0.0291 Uiso
H3_5 H 0.500 1.000 0.631(5) 0.0291 Uiso
O6_3 O 0.3793(15) 0.8799(16) 0.6361(13) 0.0250 Uiso
O7_3 O 0.3944(16) 0.7914(11) 0.5041(15) 0.0250 Uiso
C11_3 C 0.4086(11) 0.8626(10) 0.5454(12) 0.0291 Uiso
C12_3 C 0.4621(4) 0.9289(4) 0.4845(10) 0.0291 Uiso
C13_3 C 0.4621(4) 0.9289(4) 0.3672(7) 0.0291 Uiso
H5_3 H 0.4337(17) 0.876(3) 0.323(3) 0.0291 Uiso
C15_3 C 0.4289(4) 0.9621(4) 0.0155(10) 0.0291 Uiso
C16_3 C 0.4289(4) 0.9621(4) 0.1328(7) 0.0291 Uiso
H6_3 H 0.376(3) 0.9337(17) 0.177(3) 0.0291 Uiso
C3_5 C 0.500 1.000 0.9569(12) 0.0291 Uiso
H1_5 H 0.500 1.000 0.869(5) 0.0291 Uiso
O8_3 O 0.3799(16) 0.8793(15) 0.8639(13) 0.0250 Uiso
O9_3 O 0.2914(11) 0.8944(16) 0.9959(15) 0.0250 Uiso
C14_3 C 0.3626(10) 0.9086(11) 0.9546(12) 0.0291 Uiso
O13_3 O 0.8793(15) 0.1201(16) 0.1139(13) 0.0250 Uiso
O11_3 O 0.8799(16) 0.1207(15) 0.8861(13) 0.0250 Uiso
C3_6 C 0.000 1.000 0.7931(12) 0.0291 Uiso
C5_6 C 0.000 1.000 0.5586(7) 0.0291 Uiso
H1_6 H 0.000 1.000 0.881(5) 0.0291 Uiso
C8_6 C -0.000 1.000 0.2069(12) 0.0291 Uiso
C10_6 C 0.000 1.000 0.4414(7) 0.0291 Uiso
H3_6 H 0.000 1.000 0.119(5) 0.0291 Uiso
O6_4 O 0.1207(15) 0.8799(16) 0.1139(13) 0.0250 Uiso
O7_4 O 0.1056(16) 0.7914(11) 0.2459(15) 0.0250 Uiso
C11_4 C 0.0914(11) 0.8626(10) 0.2046(12) 0.0291 Uiso
C12_4 C 0.0379(4) 0.9289(4) 0.2655(10) 0.0291 Uiso
C13_4 C 0.0379(4) 0.9289(4) 0.3828(7) 0.0291 Uiso
H5_4 H 0.0663(17) 0.876(3) 0.427(3) 0.0291 Uiso
O8_4 O 0.1201(16) 0.8793(15) 0.8861(13) 0.0250 Uiso
O9_4 O 0.2086(11) 0.8944(16) 0.7541(15) 0.0250 Uiso
C14_4 C 0.1374(10) 0.9086(11) 0.7954(12) 0.0291 Uiso
C15_4 C 0.0711(4) 0.9621(4) 0.7345(10) 0.0291 Uiso
C16_4 C 0.0711(4) 0.9621(4) 0.6172(7) 0.0291 Uiso
H6_4 H 0.124(3) 0.9337(17) 0.573(3) 0.0291 Uiso
C1_4 C 0.8626(10) 0.0914(11) 0.7954(12) 0.0291 Uiso
C2_4 C 0.9289(4) 0.0379(4) 0.7345(10) 0.0291 Uiso
C3_7 C 1.000 0.000 0.7931(12) 0.0291 Uiso
C4_4 C 0.9289(4) 0.0379(4) 0.6172(7) 0.0291 Uiso
C5_7 C 1.000 0.000 0.5586(7) 0.0291 Uiso
H1_7 H 1.000 0.000 0.881(5) 0.0291 Uiso
H2_4 H 0.876(3) 0.0663(17) 0.573(3) 0.0291 Uiso
C6_4 C 0.9086(11) 0.1374(10) 0.2046(12) 0.0291 Uiso
C7_4 C 0.9621(4) 0.0711(4) 0.2655(10) 0.0291 Uiso
C8_7 C 1.000 0.000 0.2069(12) 0.0291 Uiso
C9_4 C 0.9621(4) 0.0711(4) 0.3828(7) 0.0291 Uiso
C10_7 C 1.000 0.000 0.4414(7) 0.0291 Uiso
H3_7 H 1.000 0.000 0.119(5) 0.0291 Uiso
H4_4 H 0.9337(17) 0.124(3) 0.427(3) 0.0291 Uiso
O3_2 O 0.2285(7) 0.750 0.125 0.0250 Uiso
O10_3 O 0.2715(7) 0.750 0.625 0.0250 Uiso
O18_2 O 0.250 0.7715(7) 0.875 0.0250 Uiso
O10_4 O 0.250 0.7285(7) 0.375 0.0250 Uiso
C3_8 C 0.000 0.000 0.7931(12) 0.0291 Uiso
C5_8 C 0.000 0.000 0.5586(7) 0.0291 Uiso
H1_8 H 0.000 0.000 0.881(5) 0.0291 Uiso
C8_8 C 0.000 0.000 0.2069(12) 0.0291 Uiso
C10_8 C 0.000 0.000 0.4414(7) 0.0291 Uiso
H3_8 H 0.000 0.000 0.119(5) 0.0291 Uiso
C3_9 C 1.000 1.000 0.7931(12) 0.0291 Uiso
C5_9 C 1.000 1.000 0.5586(7) 0.0291 Uiso
H1_9 H 1.000 1.000 0.881(5) 0.0291 Uiso
C8_9 C 1.000 1.000 0.2069(12) 0.0291 Uiso
C10_9 C 1.000 1.000 0.4414(7) 0.0291 Uiso
H3_9 H 1.000 1.000 0.119(5) 0.0291 Uiso
loop_
_geom_bond_atom_site_label_1
_geom_bond_atom_site_label_2
_geom_bond_site_symmetry_1
_geom_bond_site_symmetry_2
O4 C6 1_555 1_555
O5 C6 1_555 1_555
C6 C7 1_555 1_555
C7 C8 1_555 1_555
C8 H3 1_555 1_555
C9 C7 1_555 1_555
H4 C9 1_555 1_555
O6 C11 1_555 1_555
O7 C11 1_555 1_555
C11 C12 1_555 1_555
C12 C8 1_555 1_555
C13 C10 1_555 1_555
H5 C13 1_555 1_555
V2 O5 1_555 1_555
O10 V2 1_555 1_555
O11 V2 1_555 1_555
O13 V2 1_555 1_555
O16 V2 1_555 1_555
V3 O4 1_555 1_555
V5 O10 1_555 1_555
V7 O7 1_555 1_555
V9 O6 1_555 1_555
O18 V2 1_555 1_555
C9 C10 1_555 1_555
C12 C13 1_555 1_555
V3 O18 1_555 1_555
O1 C1 1_555 1_555
O2 C1 1_555 1_555
C1 C2 1_555 1_555
C2 C3 1_555 1_555
C3 H1 1_555 1_555
C4 C2 1_555 1_555
C5 C4 1_555 1_555
H2 C4 1_555 1_555
V3 O1 1_555 1_555
O3 V3 1_555 1_555
O8 C14 1_555 1_555
O9 C14 1_555 1_555
C14 C15 1_555 1_555
C15 C3 1_555 1_555
C16 C5 1_555 1_555
H6 C16 1_555 1_555
O14 V3 1_555 1_555
O15 V3 1_555 1_555
V4 O2 1_555 1_555
V6 O9 1_555 1_555
V9 O8 1_555 1_555
O3 V4 1_555 1_555
C15 C16 1_555 1_555
C3_2 H1_2 1_555 1_555
O8_2 C14_2 1_555 1_555
O9_2 C14_2 1_555 1_555
V6_2 O9_2 1_555 1_555
V7 O8_2 1_555 1_555
C8_2 H3_2 1_555 1_555
C10_2 C5_2 1_555 1_555
O6_2 C11_2 1_555 1_555
O7_2 C11_2 1_555 1_555
C11_2 C12_2 1_555 1_555
C12_2 C8_2 1_555 1_555
C13_2 C10_2 1_555 1_555
H5_2 C13_2 1_555 1_555
C16_2 C5_2 1_555 1_555
H6_2 C16_2 1_555 1_555
V9 O7_2 1_555 1_555
V7 O6_2 1_555 1_555
C12_2 C13_2 1_555 1_555
C15_2 C16_2 1_555 1_555
O11 C1_2 1_555 1_555
O2_2 C1_2 1_555 1_555
C3_3 H1_3 1_555 1_555
V5 O2_2 1_555 1_555
C4_2 C2_2 1_555 1_555
C5_3 C4_2 1_555 1_555
H2_2 C4_2 1_555 1_555
O13 C6_2 1_555 1_555
O14 C6_2 1_555 1_555
C6_2 C7_2 1_555 1_555
C7_2 C8_3 1_555 1_555
C8_3 H3_3 1_555 1_555
C9_2 C7_2 1_555 1_555
C10_3 C5_3 1_555 1_555
H4_2 C9_2 1_555 1_555
C9_2 C10_3 1_555 1_555
O10_2 V4 1_555 1_555
O11_2 V4 1_555 1_555
O13_2 V4 1_555 1_555
O16_2 V4 1_555 1_555
V5_2 O10_2 1_555 1_555
C4_3 C2_3 1_555 1_555
C5_4 C4_3 1_555 1_555
H2_3 C4_3 1_555 1_555
O13_2 C6_3 1_555 1_555
O15 C6_3 1_555 1_555
C6_3 C7_3 1_555 1_555
C7_3 C8_4 1_555 1_555
C8_4 H3_4 1_555 1_555
C9_3 C7_3 1_555 1_555
C10_4 C5_4 1_555 1_555
H4_3 C9_3 1_555 1_555
C9_3 C10_4 1_555 1_555
O11_2 C1_3 1_555 1_555
O2_3 C1_3 1_555 1_555
C3_4 H1_4 1_555 1_555
V5_2 O2_3 1_555 1_555
C8_5 H3_5 1_555 1_555
C10_5 C5_5 1_555 1_555
O6_3 C11_3 1_555 1_555
O7_3 C11_3 1_555 1_555
C11_3 C12_3 1_555 1_555
C12_3 C8_5 1_555 1_555
C13_3 C10_5 1_555 1_555
H5_3 C13_3 1_555 1_555
C16_3 C5_5 1_555 1_555
H6_3 C16_3 1_555 1_555
V9 O7_3 1_555 1_555
V6 O6_3 1_555 1_555
C12_3 C13_3 1_555 1_555
C15_3 C16_3 1_555 1_555
C3_5 H1_5 1_555 1_555
O8_3 C14_3 1_555 1_555
O9_3 C14_3 1_555 1_555
V6_3 O9_3 1_555 1_555
V6 O8_3 1_555 1_555
O13_3 V5 1_555 1_555
O11_3 V5_2 1_555 1_555
C3_6 H1_6 1_555 1_555
C8_6 H3_6 1_555 1_555
C10_6 C5_6 1_555 1_555
O6_4 C11_4 1_555 1_555
O7_4 C11_4 1_555 1_555
C11_4 C12_4 1_555 1_555
C12_4 C8_6 1_555 1_555
C13_4 C10_6 1_555 1_555
H5_4 C13_4 1_555 1_555
O8_4 C14_4 1_555 1_555
O9_4 C14_4 1_555 1_555
C14_4 C15_4 1_555 1_555
C15_4 C3_6 1_555 1_555
C16_4 C5_6 1_555 1_555
H6_4 C16_4 1_555 1_555
V6 O9_4 1_555 1_555
V7 O7_4 1_555 1_555
V6_3 O8_4 1_555 1_555
V6_2 O6_4 1_555 1_555
C12_4 C13_4 1_555 1_555
C15_4 C16_4 1_555 1_555
O11_3 C1_4 1_555 1_555
O16_2 C1_4 1_555 1_555
C1_4 C2_4 1_555 1_555
C2_4 C3_7 1_555 1_555
C3_7 H1_7 1_555 1_555
C4_4 C2_4 1_555 1_555
C5_7 C4_4 1_555 1_555
H2_4 C4_4 1_555 1_555
O13_3 C6_4 1_555 1_555
O16 C6_4 1_555 1_555
C6_4 C7_4 1_555 1_555
C7_4 C8_7 1_555 1_555
C8_7 H3_7 1_555 1_555
C9_4 C7_4 1_555 1_555
C10_7 C5_7 1_555 1_555
H4_4 C9_4 1_555 1_555
C9_4 C10_7 1_555 1_555
O3_2 V6_2 1_555 1_555
O10_3 V6 1_555 1_555
V9 O10_3 1_555 1_555
O18_2 V6 1_555 1_555
O3_2 V7 1_555 1_555
V6_3 O18_2 1_555 1_555
O10_4 V7 1_555 1_555
V9 O10_4 1_555 1_555
C3_8 H1_8 1_555 1_555
C8_8 H3_8 1_555 1_555
C10_8 C5_8 1_555 1_555
C3_9 H1_9 1_555 1_555
C8_9 H3_9 1_555 1_555
C10_9 C5_9 1_555 1_555

#END
