
###############################################################################
#
# This file contains modified crystal structure data generated from the
# MOF subset of the Cambridge Structural Database (CSD) v543 
# hosted by the Cambridge Crystallographic Data Centre (CCDC).
#
# This work is licensed under the Creative Commons
# Attribution-NonCommercial-ShareAlike 4.0 International License.
# To view a copy of this license, visit
# http://creativecommons.org/licenses/by-nc-sa/4.0/
# or send a letter to
# Creative Commons, PO Box 1866, Mountain View, CA 94042, USA.
#
# CIF created using the CSD Python API on 29 September 2022
# The structure has been converted into the P1 space group
# The structure has a 3D framework
# The original CSD entry XOYVIT is in the tetragonal crystal system
# The original CSD entry XOYVIT is in a Sohncke space group
# The framework has been calculated to contain at least 10.0% void space
# The void calculation uses a probe of radius 1.32A, grid spacing 0.4
#
###############################################################################

data_XOYVIT
_chemical_formula_moiety         '(C84 H34 O32 V6)n'
_symmetry_cell_setting           triclinic
_symmetry_space_group_name_H-M   'P 1'
_symmetry_Int_Tables_number      1
_space_group_name_Hall           'P 1'
loop_
_symmetry_equiv_pos_site_id
_symmetry_equiv_pos_as_xyz
1 x,y,z
_cell_length_a                   14.9882(7)
_cell_length_b                   14.9882(7)
_cell_length_c                   11.9828(9)
_cell_angle_alpha                90
_cell_angle_beta                 90
_cell_angle_gamma                90
_cell_volume                     2691.89
loop_
_atom_site_label
_atom_site_type_symbol
_atom_site_fract_x
_atom_site_fract_y
_atom_site_fract_z
V4 V 0.30344(7) 0.69656(7) -0.000000
V9 V 0.69656(7) 0.30344(7) -0.000000
V1 V 0.19656(7) 0.69656(7) 0.750000
O1 O 0.2872(3) 0.6013(3) 0.7453(5)
O2 O 0.3785(4) 0.6223(4) 0.8918(4)
C1 C 0.4309(5) 0.5394(5) 0.6207(7)
H1 H 0.382448 0.565136 0.580911
C2 C 0.4314(5) 0.5420(5) 0.7377(7)
C3 C 0.500000 0.500000 0.7966(8)
H2 H 0.500000 0.500002 0.875865
C4 C 0.3595(5) 0.5915(5) 0.7965(6)
C5 C 0.500000 0.500000 0.5631(8)
O3 O 0.2473(6) 0.750000 0.625000
O4 O 0.3987(3) 0.7128(3) 0.2547(5)
O5 O 0.3777(4) 0.6215(4) 0.1082(4)
C6 C 0.4606(5) 0.5691(5) 0.3793(7)
H3 H 0.434864 0.617552 0.419089
C7 C 0.4580(5) 0.5686(5) 0.2623(7)
C8 C 0.500000 0.500000 0.2034(8)
H4 H 0.499998 0.500000 0.124135
C9 C 0.4085(5) 0.6405(5) 0.2035(6)
C10 C 0.500000 0.500000 0.4369(8)
O6 O 0.7128(3) 0.3987(3) 0.7453(5)
O7 O 0.6215(4) 0.3777(4) 0.8918(4)
C11 C 0.5691(5) 0.4606(5) 0.6207(7)
H5 H 0.617552 0.434864 0.580911
C12 C 0.5686(5) 0.4580(5) 0.7377(7)
C13 C 0.6405(5) 0.4085(5) 0.7965(6)
O8 O 0.6013(3) 0.2872(3) 0.2547(5)
O9 O 0.6223(4) 0.3785(4) 0.1082(4)
C14 C 0.5394(5) 0.4309(5) 0.3793(7)
H6 H 0.565136 0.382448 0.419089
C15 C 0.5420(5) 0.4314(5) 0.2623(7)
C16 C 0.5915(5) 0.3595(5) 0.2035(6)
O10 O 0.2527(6) 0.750000 0.125000
V3 V 0.30344(7) 0.80344(7) 0.250000
V4_2 V 0.30344(7) 0.69656(7) 1.000000
V5 V 0.19656(7) 0.80344(7) 0.500000
V6 V 0.69656(7) 0.19656(7) 0.250000
V7 V 0.80344(7) 0.30344(7) 0.750000
V9_2 V 0.69656(7) 0.30344(7) 1.000000
O12 O 0.2128(3) 0.6013(3) 0.0047(5)
O13 O 0.1013(3) 0.7872(3) 0.7547(5)
O15 O 0.1223(4) 0.6215(4) 0.6418(4)
O16 O 0.1215(4) 0.6223(4) 0.8582(4)
O18 O 0.250000 0.7473(6) 0.875000
O11 O 0.3987(3) 0.7872(3) 0.9953(5)
O1_2 O 0.2128(3) 0.8987(3) 0.2453(5)
O2_2 O 0.1215(4) 0.8777(4) 0.3918(4)
C1_2 C 0.0691(5) 0.9606(5) 0.1207(7)
H1_2 H 0.117552 0.934864 0.080911
C2_2 C 0.0686(5) 0.9580(5) 0.2377(7)
C3_2 C -0.000000 1.000000 0.2966(8)
H2_2 H -0.000000 0.999998 0.375865
C4_2 C 0.1405(5) 0.9085(5) 0.2965(6)
C5_2 C 0.000000 1.000000 0.0631(8)
O15_2 O 0.3777(4) 0.8785(4) 0.1418(4)
O16_2 O 0.3785(4) 0.8777(4) 0.3582(4)
O18_2 O 0.250000 0.7527(6) 0.375000
O5_2 O 0.1223(4) 0.8785(4) 0.6082(4)
C6_2 C 0.0394(5) 0.9309(5) 0.8793(7)
H3_2 H 0.065136 0.882448 0.919089
C7_2 C 0.0420(5) 0.9314(5) 0.7623(7)
C8_2 C 0.000000 1.000000 0.7034(8)
H4_2 H 0.000002 1.000000 0.624135
C9_2 C 0.0915(5) 0.8595(5) 0.7035(6)
C10_2 C 0.000000 1.000000 0.9369(8)
O11_2 O 0.1013(3) 0.7128(3) 0.4953(5)
O12_2 O 0.2872(3) 0.8987(3) 0.5047(5)
C3_3 C 1.000000 0.000000 0.2966(8)
H2_3 H 1.000000 -0.000002 0.375865
C5_3 C 1.000000 0.000000 0.0631(8)
O6_2 O 0.7872(3) 0.1013(3) 0.2453(5)
O7_2 O 0.8785(4) 0.1223(4) 0.3918(4)
C11_2 C 0.9309(5) 0.0394(5) 0.1207(7)
H5_2 H 0.882448 0.065136 0.080911
C12_2 C 0.9314(5) 0.0420(5) 0.2377(7)
C13_2 C 0.8595(5) 0.0915(5) 0.2965(6)
V9_3 V 0.80344(7) 0.19656(7) 0.500000
C8_3 C 1.000000 0.000000 0.7034(8)
H4_3 H 1.000002 0.000000 0.624135
C10_3 C 1.000000 0.000000 0.9369(8)
O8_2 O 0.8987(3) 0.2128(3) 0.7547(5)
O9_2 O 0.8777(4) 0.1215(4) 0.6082(4)
C14_2 C 0.9606(5) 0.0691(5) 0.8793(7)
H6_2 H 0.934864 0.117552 0.919089
C15_2 C 0.9580(5) 0.0686(5) 0.7623(7)
C16_2 C 0.9085(5) 0.1405(5) 0.7035(6)
C3_4 C 0.500000 0.000000 0.0466(8)
H2_4 H 0.499998 0.000000 0.125865
O7_3 O 0.6223(4) 0.1215(4) 0.1418(4)
C13_3 C 0.5915(5) 0.1405(5) 0.0465(6)
C5_4 C 0.500000 -0.000000 0.8131(8)
C8_4 C 0.500000 -0.000000 0.4534(8)
H4_4 H 0.500000 -0.000002 0.374135
C10_4 C 0.500000 -0.000000 0.6869(8)
O6_3 O 0.6013(3) 0.2128(3) 0.9953(5)
C11_3 C 0.5394(5) 0.0691(5) 0.8707(7)
H5_3 H 0.565136 0.117552 0.830911
C12_3 C 0.5420(5) 0.0686(5) 0.9877(7)
O8_3 O 0.7128(3) 0.1013(3) 0.5047(5)
O9_3 O 0.6215(4) 0.1223(4) 0.3582(4)
C14_3 C 0.5691(5) 0.0394(5) 0.6293(7)
H6_3 H 0.617552 0.065136 0.669089
C15_3 C 0.5686(5) 0.0420(5) 0.5123(7)
C16_3 C 0.6405(5) 0.0915(5) 0.4535(6)
C3_5 C 0.500000 1.000000 0.0466(8)
H2_5 H 0.499998 1.000000 0.125865
C4_3 C 0.4085(5) 0.8595(5) 0.0465(6)
C1_3 C 0.4606(5) 0.9309(5) 0.8707(7)
H1_3 H 0.434864 0.882448 0.830911
C2_3 C 0.4580(5) 0.9314(5) 0.9877(7)
C5_5 C 0.500000 1.000000 0.8131(8)
C6_3 C 0.4309(5) 0.9606(5) 0.6293(7)
H3_3 H 0.382448 0.934864 0.669089
C7_3 C 0.4314(5) 0.9580(5) 0.5123(7)
C8_5 C 0.500000 1.000000 0.4534(8)
H4_5 H 0.500000 0.999998 0.374135
C9_3 C 0.3595(5) 0.9085(5) 0.4535(6)
C10_5 C 0.500000 1.000000 0.6869(8)
C1_4 C 0.0394(5) 0.5691(5) 0.3707(7)
H1_4 H 0.065136 0.617552 0.330911
C2_4 C 0.0420(5) 0.5686(5) 0.4877(7)
C3_6 C -0.000000 0.500000 0.5466(8)
H2_6 H 0.000002 0.500000 0.625865
C4_4 C 0.0915(5) 0.6405(5) 0.5465(6)
C5_6 C 0.000000 0.500000 0.3131(8)
C6_4 C 0.0691(5) 0.5394(5) 0.1293(7)
H3_4 H 0.117552 0.565136 0.169089
C7_4 C 0.0686(5) 0.5420(5) 0.0123(7)
C10_6 C -0.000000 0.500000 0.1869(8)
C8_6 C 0.000000 0.500000 0.9534(8)
H4_6 H -0.000000 0.500002 0.874135
C9_4 C 0.1405(5) 0.5915(5) 0.9535(6)
C3_7 C 1.000000 0.500000 0.5466(8)
H2_7 H 1.000002 0.500000 0.625865
C5_7 C 1.000000 0.500000 0.3131(8)
C10_7 C 1.000000 0.500000 0.1869(8)
O6_4 O 0.8987(3) 0.2872(3) 0.4953(5)
O7_4 O 0.8777(4) 0.3785(4) 0.6418(4)
C11_4 C 0.9606(5) 0.4309(5) 0.3707(7)
H5_4 H 0.934864 0.382448 0.330911
C12_4 C 0.9580(5) 0.4314(5) 0.4877(7)
C13_4 C 0.9085(5) 0.3595(5) 0.5465(6)
O8_4 O 0.7872(3) 0.3987(3) 0.0047(5)
C14_4 C 0.9309(5) 0.4606(5) 0.1293(7)
H6_4 H 0.882448 0.434864 0.169089
C15_4 C 0.9314(5) 0.4580(5) 0.0123(7)
C8_7 C 1.000000 0.500000 0.9534(8)
H4_7 H 1.000000 0.500002 0.874135
O9_4 O 0.8785(4) 0.3777(4) 0.8582(4)
C16_4 C 0.8595(5) 0.4085(5) 0.9535(6)
O3_2 O 0.7473(6) 0.250000 0.125000
O18_3 O 0.750000 0.2473(6) 0.375000
O10_2 O 0.7527(6) 0.250000 0.625000
O18_4 O 0.750000 0.2527(6) 0.875000
C3_8 C -0.000000 0.000000 0.2966(8)
H2_8 H -0.000000 -0.000002 0.375865
C5_8 C 0.000000 0.000000 0.0631(8)
C8_8 C 0.000000 0.000000 0.7034(8)
H4_8 H 0.000002 0.000000 0.624135
C10_8 C 0.000000 0.000000 0.9369(8)
C3_9 C 1.000000 1.000000 0.2966(8)
H2_9 H 1.000000 0.999998 0.375865
C5_9 C 1.000000 1.000000 0.0631(8)
C8_9 C 1.000000 1.000000 0.7034(8)
H4_9 H 1.000002 1.000000 0.624135
C10_9 C 1.000000 1.000000 0.9369(8)
loop_
_geom_bond_atom_site_label_1
_geom_bond_atom_site_label_2
_geom_bond_site_symmetry_1
_geom_bond_site_symmetry_2
V1 O1 1_555 1_555
O1 C4 1_555 1_555
O2 C4 1_555 1_555
C1 H1 1_555 1_555
C2 C1 1_555 1_555
C3 C2 1_555 1_555
H2 C3 1_555 1_555
C4 C2 1_555 1_555
C5 C1 1_555 1_555
O3 V1 1_555 1_555
O4 C9 1_555 1_555
O5 C9 1_555 1_555
C6 H3 1_555 1_555
C7 C6 1_555 1_555
C8 C7 1_555 1_555
H4 C8 1_555 1_555
C9 C7 1_555 1_555
C10 C5 1_555 1_555
O6 C13 1_555 1_555
O7 C13 1_555 1_555
C11 C5 1_555 1_555
H5 C11 1_555 1_555
C12 C3 1_555 1_555
C13 C12 1_555 1_555
O8 C16 1_555 1_555
O9 C16 1_555 1_555
C14 C10 1_555 1_555
H6 C14 1_555 1_555
C15 C8 1_555 1_555
C16 C15 1_555 1_555
V4 O5 1_555 1_555
O10 V4 1_555 1_555
V3 O4 1_555 1_555
V4_2 O2 1_555 1_555
V5 O3 1_555 1_555
V6 O8 1_555 1_555
V7 O6 1_555 1_555
V9 O9 1_555 1_555
V9_2 O7 1_555 1_555
O12 V4 1_555 1_555
O13 V1 1_555 1_555
O15 V1 1_555 1_555
O16 V1 1_555 1_555
O18 V1 1_555 1_555
C6 C10 1_555 1_555
C11 C12 1_555 1_555
C14 C15 1_555 1_555
O10 V3 1_555 1_555
V4_2 O18 1_555 1_555
O11 V4_2 1_555 1_555
V3 O1_2 1_555 1_555
O1_2 C4_2 1_555 1_555
O2_2 C4_2 1_555 1_555
C1_2 H1_2 1_555 1_555
C2_2 C1_2 1_555 1_555
C3_2 C2_2 1_555 1_555
H2_2 C3_2 1_555 1_555
C4_2 C2_2 1_555 1_555
C5_2 C1_2 1_555 1_555
V5 O2_2 1_555 1_555
O15_2 V3 1_555 1_555
O16_2 V3 1_555 1_555
O18_2 V3 1_555 1_555
V5 O18_2 1_555 1_555
O13 C9_2 1_555 1_555
O5_2 C9_2 1_555 1_555
C6_2 H3_2 1_555 1_555
C7_2 C6_2 1_555 1_555
C8_2 C7_2 1_555 1_555
H4_2 C8_2 1_555 1_555
C9_2 C7_2 1_555 1_555
V5 O5_2 1_555 1_555
O11_2 V5 1_555 1_555
O12_2 V5 1_555 1_555
C6_2 C10_2 1_555 1_555
H2_3 C3_3 1_555 1_555
O6_2 C13_2 1_555 1_555
O7_2 C13_2 1_555 1_555
C11_2 C5_3 1_555 1_555
H5_2 C11_2 1_555 1_555
C12_2 C3_3 1_555 1_555
C13_2 C12_2 1_555 1_555
V6 O6_2 1_555 1_555
V9_3 O7_2 1_555 1_555
C11_2 C12_2 1_555 1_555
H4_3 C8_3 1_555 1_555
O8_2 C16_2 1_555 1_555
O9_2 C16_2 1_555 1_555
C14_2 C10_3 1_555 1_555
H6_2 C14_2 1_555 1_555
C15_2 C8_3 1_555 1_555
C16_2 C15_2 1_555 1_555
V7 O8_2 1_555 1_555
V9_3 O9_2 1_555 1_555
C14_2 C15_2 1_555 1_555
H2_4 C3_4 1_555 1_555
O7_3 C13_3 1_555 1_555
V6 O7_3 1_555 1_555
H4_4 C8_4 1_555 1_555
C10_4 C5_4 1_555 1_555
C11_3 C5_4 1_555 1_555
H5_3 C11_3 1_555 1_555
O8_3 C16_3 1_555 1_555
O9_3 C16_3 1_555 1_555
C14_3 C10_4 1_555 1_555
H6_3 C14_3 1_555 1_555
C15_3 C8_4 1_555 1_555
C16_3 C15_3 1_555 1_555
V9_3 O8_3 1_555 1_555
V9_2 O6_3 1_555 1_555
V6 O9_3 1_555 1_555
C11_3 C12_3 1_555 1_555
C14_3 C15_3 1_555 1_555
O15_2 C4_3 1_555 1_555
H2_5 C3_5 1_555 1_555
C1_3 H1_3 1_555 1_555
C2_3 C1_3 1_555 1_555
C5_5 C1_3 1_555 1_555
O12_2 C9_3 1_555 1_555
O16_2 C9_3 1_555 1_555
C6_3 H3_3 1_555 1_555
C7_3 C6_3 1_555 1_555
C8_5 C7_3 1_555 1_555
H4_5 C8_5 1_555 1_555
C9_3 C7_3 1_555 1_555
C10_5 C5_5 1_555 1_555
C6_3 C10_5 1_555 1_555
O11_2 C4_4 1_555 1_555
O15 C4_4 1_555 1_555
C1_4 H1_4 1_555 1_555
C2_4 C1_4 1_555 1_555
C3_6 C2_4 1_555 1_555
H2_6 C3_6 1_555 1_555
C4_4 C2_4 1_555 1_555
C5_6 C1_4 1_555 1_555
C6_4 H3_4 1_555 1_555
C7_4 C6_4 1_555 1_555
C10_6 C5_6 1_555 1_555
C6_4 C10_6 1_555 1_555
O16 C9_4 1_555 1_555
H4_6 C8_6 1_555 1_555
H2_7 C3_7 1_555 1_555
C10_7 C5_7 1_555 1_555
O6_4 C13_4 1_555 1_555
O7_4 C13_4 1_555 1_555
C11_4 C5_7 1_555 1_555
H5_4 C11_4 1_555 1_555
C12_4 C3_7 1_555 1_555
C13_4 C12_4 1_555 1_555
C14_4 C10_7 1_555 1_555
H6_4 C14_4 1_555 1_555
V9 O8_4 1_555 1_555
V9_3 O6_4 1_555 1_555
V7 O7_4 1_555 1_555
C11_4 C12_4 1_555 1_555
C14_4 C15_4 1_555 1_555
H4_7 C8_7 1_555 1_555
O9_4 C16_4 1_555 1_555
V7 O9_4 1_555 1_555
O3_2 V6 1_555 1_555
V9 O3_2 1_555 1_555
O18_3 V6 1_555 1_555
V9_3 O18_3 1_555 1_555
O10_2 V9_3 1_555 1_555
O10_2 V7 1_555 1_555
O18_4 V7 1_555 1_555
V9_2 O18_4 1_555 1_555
H2_8 C3_8 1_555 1_555
H4_8 C8_8 1_555 1_555
H2_9 C3_9 1_555 1_555
H4_9 C8_9 1_555 1_555

#END
