
###############################################################################
#
# This file contains modified crystal structure data generated from the
# MOF subset of the Cambridge Structural Database (CSD) v543 
# hosted by the Cambridge Crystallographic Data Centre (CCDC).
#
# This work is licensed under the Creative Commons
# Attribution-NonCommercial-ShareAlike 4.0 International License.
# To view a copy of this license, visit
# http://creativecommons.org/licenses/by-nc-sa/4.0/
# or send a letter to
# Creative Commons, PO Box 1866, Mountain View, CA 94042, USA.
#
# CIF created using the CSD Python API on 29 September 2022
# The structure has been converted into the P1 space group
# The structure has a 3D framework
# The original CSD entry XUBGUY is in the tetragonal crystal system
# The framework has been calculated to contain at least 10.0% void space
# The void calculation uses a probe of radius 1.32A, grid spacing 0.4
# H atom positions have been added when not included in the experimental data
# Generated hydrogen atom positions removed from atoms on special positions
#
###############################################################################

data_XUBGUY
_chemical_formula_moiety         '(C112 H200 O62 Si8 Zr14)n'
_symmetry_cell_setting           triclinic
_symmetry_space_group_name_H-M   'P 1'
_symmetry_Int_Tables_number      1
_space_group_name_Hall           'P 1'
loop_
_symmetry_equiv_pos_site_id
_symmetry_equiv_pos_as_xyz
1 x,y,z
_cell_length_a                   15.228(3)
_cell_length_b                   15.228(3)
_cell_length_c                   28.791(5)
_cell_angle_alpha                90
_cell_angle_beta                 90
_cell_angle_gamma                90
_cell_volume                     6676.4
loop_
_atom_site_label
_atom_site_type_symbol
_atom_site_fract_x
_atom_site_fract_y
_atom_site_fract_z
Zr2 Zr 0.0000 0.0000 0.414565(13)
Zr8 Zr 0.05007(2) 0.15679(2) 0.5000
Zr13 Zr 0.0000 0.0000 0.585435(13)
O21 O 0.03373(12) 0.11842(12) 0.37516(6)
O23 O 0.10322(19) 0.05376(15) 0.45862(7)
Zr2_2 Zr 0.0000 1.0000 0.414565(13)
Zr4 Zr 0.15679(2) 0.94993(2) 0.5000
Zr13_2 Zr 0.0000 1.0000 0.585435(13)
O19 O 0.11842(12) 0.96627(12) 0.37516(6)
O27 O 0.05376(15) 0.89678(19) 0.45862(7)
Zr1 Zr 0.84321(2) 0.05007(2) 0.5000
Zr2_3 Zr 1.0000 0.0000 0.414565(13)
Si1 Si 0.5000 0.0000 0.2500
O1 O 0.78109(13) 0.06858(17) 0.42933(7)
O2 O 0.88158(12) 0.03373(12) 0.37516(6)
O5 O 0.7817(2) 0.1797(2) 0.5000
C2 C 0.7473(2) 0.0048(3) 0.31068(11)
C3 C 0.73345(18) 0.04776(19) 0.35253(9)
C4 C 0.6515(2) 0.0817(2) 0.36121(11)
H3 H 0.6413 0.1124 0.3886
C5 C 0.5844(2) 0.0708(2) 0.32971(11)
H4 H 0.5298 0.0954 0.3360
C6 C 0.59598(16) 0.02413(18) 0.28885(8)
C7 C 0.80363(18) 0.05131(19) 0.38818(9)
C8 C 0.3215(2) 0.0073(3) 0.28007(10)
H5 H 0.3114 0.0378 0.2526
H6 H 0.1970 0.0159 0.3032
O10 O 0.43142(17) 0.28109(13) 0.07067(7)
O11 O 0.46627(12) 0.38158(12) 0.12484(6)
C22 C 0.5073(3) 0.1785(2) 0.21993(10)
H13 H 0.5378 0.1886 0.2474
C23 C 0.4952(3) 0.2473(2) 0.18932(11)
H14 H 0.5159 0.3030 0.1968
C24 C 0.45224(19) 0.23345(18) 0.14747(9)
C25 C 0.4183(2) 0.1515(2) 0.13879(11)
H15 H 0.3876 0.1413 0.1114
C26 C 0.4292(2) 0.0844(2) 0.17029(11)
H16 H 0.4046 0.0298 0.1640
C27 C 0.47587(18) 0.09598(16) 0.21115(8)
C28 C 0.44869(19) 0.30363(18) 0.11182(9)
O12 O 0.10322(19) 0.05376(15) 0.54138(7)
O13 O 0.2833(2) 0.0214(3) 0.5000
O16 O 0.94624(15) 0.10322(19) 0.54138(7)
Zr9 Zr 0.44993(2) 0.34321(2) 0.0000
Zr13_3 Zr 1.0000 0.0000 0.585435(13)
Zr15 Zr 0.5000 0.5000 0.085435(13)
O18 O 0.78109(13) 0.06858(17) 0.57067(7)
O25 O 0.94624(15) 0.10322(19) 0.45862(7)
H18 H 0.679672 -4.79125e-05 0.526047
Zr9_2 Zr 0.44993(2) 0.34321(2) 1.0000
Zr2_4 Zr 1.0000 1.0000 0.414565(13)
Si1_2 Si 0.5000 1.0000 0.2500
O3 O 0.89678(19) 0.94624(15) 0.54138(7)
O4 O 0.7167(2) 0.9786(3) 0.5000
C1 C 0.6785(2) 0.9927(3) 0.28007(10)
H1 H 0.6886 0.9622 0.2526
H2 H 0.8030 0.9841 0.3032
O6 O 0.21891(13) 0.93142(17) 0.42933(7)
C9 C 0.2527(2) 0.9952(3) 0.31068(11)
C10 C 0.26655(18) 0.95224(19) 0.35253(9)
C11 C 0.3485(2) 0.9183(2) 0.36121(11)
H7 H 0.3587 0.8876 0.3886
C12 C 0.4156(2) 0.9292(2) 0.32971(11)
H8 H 0.4702 0.9046 0.3360
C13 C 0.40402(16) 0.97587(18) 0.28885(8)
C14 C 0.19637(18) 0.94869(19) 0.38818(9)
O8 O 0.56858(17) 0.71891(13) 0.07067(7)
O9 O 0.53373(12) 0.61842(12) 0.12484(6)
C15 C 0.4927(3) 0.8215(2) 0.21993(10)
H9 H 0.4622 0.8114 0.2474
C16 C 0.5048(3) 0.7527(2) 0.18932(11)
H10 H 0.4841 0.6970 0.1968
C17 C 0.54776(19) 0.76655(18) 0.14747(9)
C18 C 0.5817(2) 0.8485(2) 0.13879(11)
H11 H 0.6124 0.8587 0.1114
C19 C 0.5708(2) 0.9156(2) 0.17029(11)
H12 H 0.5954 0.9702 0.1640
C20 C 0.52413(18) 0.90402(16) 0.21115(8)
C21 C 0.55131(19) 0.69637(18) 0.11182(9)
O14 O 0.2183(2) 0.8203(2) 0.5000
O15 O 0.05376(15) 0.89678(19) 0.54138(7)
Zr6 Zr 0.94993(2) 0.84321(2) 0.5000
Zr10 Zr 0.55007(2) 0.65679(2) 0.0000
Zr13_4 Zr 1.0000 1.0000 0.585435(13)
O17 O 0.21891(13) 0.93142(17) 0.57067(7)
O20 O 0.96627(12) 0.88158(12) 0.37516(6)
O24 O 0.89678(19) 0.94624(15) 0.45862(7)
Zr10_2 Zr 0.55007(2) 0.65679(2) 1.0000
H18_2 H 0.320328 1.00005 0.526047
Si1_3 Si 0.0000 0.5000 0.2500
O4_2 O 0.0214(3) 0.7167(2) 0.5000
C1_2 C 0.0073(3) 0.6785(2) 0.28007(10)
H1_2 H 0.0378 0.6886 0.2526
H2_2 H 0.0159 0.8030 0.3032
O6_2 O 0.06858(17) 0.21891(13) 0.42933(7)
C9_2 C 0.0048(3) 0.2527(2) 0.31068(11)
C10_2 C 0.04776(19) 0.26655(18) 0.35253(9)
C11_2 C 0.0817(2) 0.3485(2) 0.36121(11)
H7_2 H 0.1124 0.3587 0.3886
C12_2 C 0.0708(2) 0.4156(2) 0.32971(11)
H8_2 H 0.0954 0.4702 0.3360
C13_2 C 0.02413(18) 0.40402(16) 0.28885(8)
C14_2 C 0.05131(19) 0.19637(18) 0.38818(9)
O8_2 O 0.28109(13) 0.56858(17) 0.07067(7)
O9_2 O 0.38158(12) 0.53373(12) 0.12484(6)
C15_2 C 0.1785(2) 0.4927(3) 0.21993(10)
H9_2 H 0.1886 0.4622 0.2474
C16_2 C 0.2473(2) 0.5048(3) 0.18932(11)
H10_2 H 0.3030 0.4841 0.1968
C17_2 C 0.23345(18) 0.54776(19) 0.14747(9)
C18_2 C 0.1515(2) 0.5817(2) 0.13879(11)
H11_2 H 0.1413 0.6124 0.1114
C19_2 C 0.0844(2) 0.5708(2) 0.17029(11)
H12_2 H 0.0298 0.5954 0.1640
C20_2 C 0.09598(16) 0.52413(18) 0.21115(8)
C21_2 C 0.30363(18) 0.55131(19) 0.11182(9)
O14_2 O 0.1797(2) 0.2183(2) 0.5000
Zr10_3 Zr 0.34321(2) 0.55007(2) 0.0000
O17_2 O 0.06858(17) 0.21891(13) 0.57067(7)
Zr10_4 Zr 0.34321(2) 0.55007(2) 1.0000
Si1_4 Si 1.0000 0.5000 0.2500
O1_2 O 0.93142(17) 0.78109(13) 0.42933(7)
O5_2 O 0.8203(2) 0.7817(2) 0.5000
C2_2 C 0.9952(3) 0.7473(2) 0.31068(11)
C3_2 C 0.95224(19) 0.73345(18) 0.35253(9)
C4_2 C 0.9183(2) 0.6515(2) 0.36121(11)
H3_2 H 0.8876 0.6413 0.3886
C5_2 C 0.9292(2) 0.5844(2) 0.32971(11)
H4_2 H 0.9046 0.5298 0.3360
C6_2 C 0.97587(18) 0.59598(16) 0.28885(8)
C7_2 C 0.94869(19) 0.80363(18) 0.38818(9)
C8_2 C 0.9927(3) 0.3215(2) 0.28007(10)
H5_2 H 0.9622 0.3114 0.2526
H6_2 H 0.9841 0.1970 0.3032
O10_2 O 0.71891(13) 0.43142(17) 0.07067(7)
O11_2 O 0.61842(12) 0.46627(12) 0.12484(6)
C22_2 C 0.8215(2) 0.5073(3) 0.21993(10)
H13_2 H 0.8114 0.5378 0.2474
C23_2 C 0.7527(2) 0.4952(3) 0.18932(11)
H14_2 H 0.6970 0.5159 0.1968
C24_2 C 0.76655(18) 0.45224(19) 0.14747(9)
C25_2 C 0.8485(2) 0.4183(2) 0.13879(11)
H15_2 H 0.8587 0.3876 0.1114
C26_2 C 0.9156(2) 0.4292(2) 0.17029(11)
H16_2 H 0.9702 0.4046 0.1640
C27_2 C 0.90402(16) 0.47587(18) 0.21115(8)
C28_2 C 0.69637(18) 0.44869(19) 0.11182(9)
O13_2 O 0.9786(3) 0.2833(2) 0.5000
Zr9_3 Zr 0.65679(2) 0.44993(2) 0.0000
O18_2 O 0.93142(17) 0.78109(13) 0.57067(7)
H18_3 H 1.00005 0.679672 0.526047
Zr9_4 Zr 0.65679(2) 0.44993(2) 1.0000
H18_4 H -4.79125e-05 0.320328 0.526047
O3_2 O 0.39678(19) 0.44624(15) 0.04138(7)
O4_3 O 0.2167(2) 0.4786(3) -0.0000
O5_3 O 0.2817(2) 0.6797(2) -0.0000
O16_2 O 0.44624(15) 0.60322(19) 0.04138(7)
Zr2_5 Zr 0.5000 0.5000 0.914565(13)
Si1_5 Si -0.0000 0.5000 0.7500
O1_3 O 0.28109(13) 0.56858(17) 0.92933(7)
O2_2 O 0.38158(12) 0.53373(12) 0.87516(6)
O4_4 O 0.2167(2) 0.4786(3) 1.0000
O5_4 O 0.2817(2) 0.6797(2) 1.0000
C1_3 C 0.1785(2) 0.4927(3) 0.78007(10)
H1_3 H 0.1886 0.4622 0.7526
C2_3 C 0.2473(2) 0.5048(3) 0.81068(11)
H2_3 H 0.3030 0.4841 0.8032
C3_3 C 0.23345(18) 0.54776(19) 0.85253(9)
C4_3 C 0.1515(2) 0.5817(2) 0.86121(11)
H3_3 H 0.1413 0.6124 0.8886
C5_3 C 0.0844(2) 0.5708(2) 0.82971(11)
H4_3 H 0.0298 0.5954 0.8360
C6_3 C 0.09598(16) 0.52413(18) 0.78885(8)
C7_3 C 0.30363(18) 0.55131(19) 0.88818(9)
O9_3 O 0.03373(12) 0.11842(12) 0.62484(6)
C16_3 C 0.0048(3) 0.2527(2) 0.68932(11)
C17_3 C 0.04776(19) 0.26655(18) 0.64747(9)
C18_3 C 0.0817(2) 0.3485(2) 0.63879(11)
H11_3 H 0.1124 0.3587 0.6114
C19_3 C 0.0708(2) 0.4156(2) 0.67029(11)
H12_3 H 0.0954 0.4702 0.6640
C20_3 C 0.02413(18) 0.40402(16) 0.71115(8)
C21_3 C 0.05131(19) 0.19637(18) 0.61182(9)
C22_3 C 0.0073(3) 0.6785(2) 0.71993(10)
H13_3 H 0.0378 0.6886 0.7474
H14_3 H 0.0159 0.8030 0.6968
O19_2 O 0.61842(12) 0.46627(12) 0.87516(6)
O20_2 O 0.46627(12) 0.38158(12) 0.87516(6)
O21_2 O 0.53373(12) 0.61842(12) 0.87516(6)
O23_2 O 0.60322(19) 0.55376(15) 0.95862(7)
O24_2 O 0.39678(19) 0.44624(15) 0.95862(7)
O25_2 O 0.44624(15) 0.60322(19) 0.95862(7)
O27_2 O 0.55376(15) 0.39678(19) 0.95862(7)
O12_2 O 0.60322(19) 0.55376(15) 0.04138(7)
O13_3 O 0.7833(2) 0.5214(3) -0.0000
O14_3 O 0.7183(2) 0.3203(2) -0.0000
O15_2 O 0.55376(15) 0.39678(19) 0.04138(7)
Si1_6 Si 1.0000 0.5000 0.7500
O6_3 O 0.71891(13) 0.43142(17) 0.92933(7)
C8_3 C 0.8215(2) 0.5073(3) 0.78007(10)
H5_3 H 0.8114 0.5378 0.7526
C9_3 C 0.7527(2) 0.4952(3) 0.81068(11)
H6_3 H 0.6970 0.5159 0.8032
C10_3 C 0.76655(18) 0.45224(19) 0.85253(9)
C11_3 C 0.8485(2) 0.4183(2) 0.86121(11)
H7_3 H 0.8587 0.3876 0.8886
C12_3 C 0.9156(2) 0.4292(2) 0.82971(11)
H8_3 H 0.9702 0.4046 0.8360
C13_3 C 0.90402(16) 0.47587(18) 0.78885(8)
C14_3 C 0.69637(18) 0.44869(19) 0.88818(9)
C15_3 C 0.9927(3) 0.3215(2) 0.71993(10)
H9_3 H 0.9622 0.3114 0.7474
H10_3 H 0.9841 0.1970 0.6968
O11_3 O 0.96627(12) 0.88158(12) 0.62484(6)
C23_3 C 0.9952(3) 0.7473(2) 0.68932(11)
C24_3 C 0.95224(19) 0.73345(18) 0.64747(9)
C25_3 C 0.9183(2) 0.6515(2) 0.63879(11)
H15_3 H 0.8876 0.6413 0.6114
C26_3 C 0.9292(2) 0.5844(2) 0.67029(11)
H16_3 H 0.9046 0.5298 0.6640
C27_3 C 0.97587(18) 0.59598(16) 0.71115(8)
C28_3 C 0.94869(19) 0.80363(18) 0.61182(9)
O13_4 O 0.7833(2) 0.5214(3) 1.0000
O14_4 O 0.7183(2) 0.3203(2) 1.0000
O4_5 O 0.5214(3) 0.2167(2) -0.0000
O5_5 O 0.3203(2) 0.2817(2) -0.0000
Si1_7 Si 0.5000 -0.0000 0.7500
O1_4 O 0.43142(17) 0.28109(13) 0.92933(7)
O4_6 O 0.5214(3) 0.2167(2) 1.0000
O5_6 O 0.3203(2) 0.2817(2) 1.0000
C1_4 C 0.5073(3) 0.1785(2) 0.78007(10)
H1_4 H 0.5378 0.1886 0.7526
C2_4 C 0.4952(3) 0.2473(2) 0.81068(11)
H2_4 H 0.5159 0.3030 0.8032
C3_4 C 0.45224(19) 0.23345(18) 0.85253(9)
C4_4 C 0.4183(2) 0.1515(2) 0.86121(11)
H3_4 H 0.3876 0.1413 0.8886
C5_4 C 0.4292(2) 0.0844(2) 0.82971(11)
H4_4 H 0.4046 0.0298 0.8360
C6_4 C 0.47587(18) 0.09598(16) 0.78885(8)
C7_4 C 0.44869(19) 0.30363(18) 0.88818(9)
O9_4 O 0.88158(12) 0.03373(12) 0.62484(6)
C16_4 C 0.7473(2) 0.0048(3) 0.68932(11)
C17_4 C 0.73345(18) 0.04776(19) 0.64747(9)
C18_4 C 0.6515(2) 0.0817(2) 0.63879(11)
H11_4 H 0.6413 0.1124 0.6114
C19_4 C 0.5844(2) 0.0708(2) 0.67029(11)
H12_4 H 0.5298 0.0954 0.6640
C20_4 C 0.59598(16) 0.02413(18) 0.71115(8)
C21_4 C 0.80363(18) 0.05131(19) 0.61182(9)
C22_4 C 0.3215(2) 0.0073(3) 0.71993(10)
H13_4 H 0.3114 0.0378 0.7474
H14_4 H 0.1970 0.0159 0.6968
O13_5 O 0.4786(3) 0.7833(2) -0.0000
O14_5 O 0.6797(2) 0.7183(2) -0.0000
Si1_8 Si 0.5000 1.0000 0.7500
O6_4 O 0.56858(17) 0.71891(13) 0.92933(7)
C8_4 C 0.4927(3) 0.8215(2) 0.78007(10)
H5_4 H 0.4622 0.8114 0.7526
C9_4 C 0.5048(3) 0.7527(2) 0.81068(11)
H6_4 H 0.4841 0.6970 0.8032
C10_4 C 0.54776(19) 0.76655(18) 0.85253(9)
C11_4 C 0.5817(2) 0.8485(2) 0.86121(11)
H7_4 H 0.6124 0.8587 0.8886
C12_4 C 0.5708(2) 0.9156(2) 0.82971(11)
H8_4 H 0.5954 0.9702 0.8360
C13_4 C 0.52413(18) 0.90402(16) 0.78885(8)
C14_4 C 0.55131(19) 0.69637(18) 0.88818(9)
C15_4 C 0.6785(2) 0.9927(3) 0.71993(10)
H9_4 H 0.6886 0.9622 0.7474
H10_4 H 0.8030 0.9841 0.6968
O11_4 O 0.11842(12) 0.96627(12) 0.62484(6)
C23_4 C 0.2527(2) 0.9952(3) 0.68932(11)
C24_4 C 0.26655(18) 0.95224(19) 0.64747(9)
C25_4 C 0.3485(2) 0.9183(2) 0.63879(11)
H15_4 H 0.3587 0.8876 0.6114
C26_4 C 0.4156(2) 0.9292(2) 0.67029(11)
H16_4 H 0.4702 0.9046 0.6640
C27_4 C 0.40402(16) 0.97587(18) 0.71115(8)
C28_4 C 0.19637(18) 0.94869(19) 0.61182(9)
O13_6 O 0.4786(3) 0.7833(2) 1.0000
O14_6 O 0.6797(2) 0.7183(2) 1.0000
H18_5 H 0.320328 1.00005 0.473953
H18_6 H 0.679672 -4.79125e-05 0.473953
H18_7 H -4.79125e-05 0.320328 0.473953
H18_8 H 1.00005 0.679672 0.473953
loop_
_geom_bond_atom_site_label_1
_geom_bond_atom_site_label_2
_geom_bond_site_symmetry_1
_geom_bond_site_symmetry_2
O21 Zr2 1_555 1_555
O23 Zr2 1_555 1_555
Zr2 Zr8 1_555 1_555
Zr8 Zr13 1_555 1_555
Zr8 O23 1_555 1_555
Zr4 Zr2_2 1_555 1_555
O19 Zr2_2 1_555 1_555
O27 Zr2_2 1_555 1_555
Zr4 Zr13_2 1_555 1_555
Zr4 O27 1_555 1_555
Zr1 Zr2_3 1_555 1_555
Zr2_3 O2 1_555 1_555
Si1 C6 1_555 1_555
O1 Zr1 1_555 1_555
O2 C7 1_555 1_555
O5 Zr1 1_555 1_555
C3 C2 1_555 1_555
C4 C3 1_555 1_555
H3 C4 1_555 1_555
C5 C4 1_555 1_555
H4 C5 1_555 1_555
C7 O1 1_555 1_555
C8 H5 1_555 1_555
O10 C28 1_555 1_555
O11 C28 1_555 1_555
C22 H13 1_555 1_555
C23 C22 1_555 1_555
H14 C23 1_555 1_555
C24 C23 1_555 1_555
C25 C24 1_555 1_555
H15 C25 1_555 1_555
C26 C25 1_555 1_555
H16 C26 1_555 1_555
C27 Si1 1_555 1_555
C28 C24 1_555 1_555
O16 Zr1 1_555 1_555
Zr9 O10 1_555 1_555
Zr13_3 Zr1 1_555 1_555
Zr15 O11 1_555 1_555
O18 Zr1 1_555 1_555
O25 Zr1 1_555 1_555
Zr2_3 O25 1_555 1_555
C3 C7 1_555 1_555
C5 C6 1_555 1_555
C22 C27 1_555 1_555
C26 C27 1_555 1_555
O12 Zr8 1_555 1_555
O12 Zr13 1_555 1_555
O16 Zr13_3 1_555 1_555
Zr9 Zr15 1_555 1_555
C1 H1 1_555 1_555
O6 C14 1_555 1_555
O19 C14 1_555 1_555
C10 C9 1_555 1_555
C11 C10 1_555 1_555
H7 C11 1_555 1_555
C12 C11 1_555 1_555
H8 C12 1_555 1_555
C13 Si1_2 1_555 1_555
C14 C10 1_555 1_555
O8 C21 1_555 1_555
O9 C21 1_555 1_555
C15 H9 1_555 1_555
C16 C15 1_555 1_555
H10 C16 1_555 1_555
C17 C16 1_555 1_555
C18 C17 1_555 1_555
H11 C18 1_555 1_555
C19 C18 1_555 1_555
H12 C19 1_555 1_555
C20 Si1_2 1_555 1_555
C21 C17 1_555 1_555
Zr4 O6 1_555 1_555
O14 Zr4 1_555 1_555
O15 Zr4 1_555 1_555
Zr10 O8 1_555 1_555
Zr15 O9 1_555 1_555
O17 Zr4 1_555 1_555
O20 Zr2_4 1_555 1_555
Zr2_4 Zr6 1_555 1_555
Zr2_4 O24 1_555 1_555
O3 Zr6 1_555 1_555
O3 Zr13_4 1_555 1_555
C12 C13 1_555 1_555
C15 C20 1_555 1_555
C19 C20 1_555 1_555
O15 Zr13_2 1_555 1_555
Zr6 Zr13_4 1_555 1_555
Zr6 O24 1_555 1_555
Zr10 Zr15 1_555 1_555
C1_2 H1_2 1_555 1_555
O6_2 C14_2 1_555 1_555
O21 C14_2 1_555 1_555
C10_2 C9_2 1_555 1_555
C11_2 C10_2 1_555 1_555
H7_2 C11_2 1_555 1_555
C12_2 C11_2 1_555 1_555
H8_2 C12_2 1_555 1_555
C13_2 Si1_3 1_555 1_555
C14_2 C10_2 1_555 1_555
O8_2 C21_2 1_555 1_555
O9_2 C21_2 1_555 1_555
C15_2 H9_2 1_555 1_555
C16_2 C15_2 1_555 1_555
H10_2 C16_2 1_555 1_555
C17_2 C16_2 1_555 1_555
C18_2 C17_2 1_555 1_555
H11_2 C18_2 1_555 1_555
C19_2 C18_2 1_555 1_555
H12_2 C19_2 1_555 1_555
C20_2 Si1_3 1_555 1_555
C21_2 C17_2 1_555 1_555
Zr8 O6_2 1_555 1_555
O14_2 Zr8 1_555 1_555
Zr10_3 O8_2 1_555 1_555
Zr15 O9_2 1_555 1_555
O17_2 Zr8 1_555 1_555
C12_2 C13_2 1_555 1_555
C15_2 C20_2 1_555 1_555
C19_2 C20_2 1_555 1_555
Zr10_3 Zr15 1_555 1_555
Si1_4 C6_2 1_555 1_555
O1_2 Zr6 1_555 1_555
O20 C7_2 1_555 1_555
O5_2 Zr6 1_555 1_555
C3_2 C2_2 1_555 1_555
C4_2 C3_2 1_555 1_555
H3_2 C4_2 1_555 1_555
C5_2 C4_2 1_555 1_555
H4_2 C5_2 1_555 1_555
C7_2 O1_2 1_555 1_555
C8_2 H5_2 1_555 1_555
O10_2 C28_2 1_555 1_555
O11_2 C28_2 1_555 1_555
C22_2 H13_2 1_555 1_555
C23_2 C22_2 1_555 1_555
H14_2 C23_2 1_555 1_555
C24_2 C23_2 1_555 1_555
C25_2 C24_2 1_555 1_555
H15_2 C25_2 1_555 1_555
C26_2 C25_2 1_555 1_555
H16_2 C26_2 1_555 1_555
C27_2 Si1_4 1_555 1_555
C28_2 C24_2 1_555 1_555
Zr9_3 O10_2 1_555 1_555
Zr15 O11_2 1_555 1_555
O18_2 Zr6 1_555 1_555
C3_2 C7_2 1_555 1_555
C5_2 C6_2 1_555 1_555
C22_2 C27_2 1_555 1_555
C26_2 C27_2 1_555 1_555
Zr9_3 Zr15 1_555 1_555
O3_2 Zr10_3 1_555 1_555
O4_3 Zr10_3 1_555 1_555
O5_3 Zr10_3 1_555 1_555
O16_2 Zr10_3 1_555 1_555
Zr9 Zr10_3 1_555 1_555
Zr10 Zr10_3 1_555 1_555
O3_2 Zr9 1_555 1_555
O3_2 Zr15 1_555 1_555
O16_2 Zr10 1_555 1_555
O16_2 Zr15 1_555 1_555
Zr9_3 Zr9 1_555 1_555
Zr9_3 Zr10 1_555 1_555
Zr10_4 Zr2_5 1_555 1_555
Zr2_5 O2_2 1_555 1_555
Si1_5 C6_3 1_555 1_555
O1_3 Zr10_4 1_555 1_555
O2_2 C7_3 1_555 1_555
O4_4 Zr10_4 1_555 1_555
O5_4 Zr10_4 1_555 1_555
C1_3 H1_3 1_555 1_555
C2_3 C1_3 1_555 1_555
H2_3 C2_3 1_555 1_555
C3_3 C2_3 1_555 1_555
C4_3 C3_3 1_555 1_555
H3_3 C4_3 1_555 1_555
C5_3 C4_3 1_555 1_555
H4_3 C5_3 1_555 1_555
C6_3 C1_3 1_555 1_555
C7_3 O1_3 1_555 1_555
O17_2 C21_3 1_555 1_555
O9_3 C21_3 1_555 1_555
C17_3 C16_3 1_555 1_555
C18_3 C17_3 1_555 1_555
H11_3 C18_3 1_555 1_555
C19_3 C18_3 1_555 1_555
H12_3 C19_3 1_555 1_555
C20_3 Si1_5 1_555 1_555
C21_3 C17_3 1_555 1_555
C22_3 H13_3 1_555 1_555
Zr9_4 Zr2_5 1_555 1_555
Zr9_2 Zr10_4 1_555 1_555
Zr10_2 Zr10_4 1_555 1_555
Zr13 O9_3 1_555 1_555
O19_2 Zr2_5 1_555 1_555
O20_2 Zr2_5 1_555 1_555
O21_2 Zr2_5 1_555 1_555
O23_2 Zr2_5 1_555 1_555
O24_2 Zr10_4 1_555 1_555
O25_2 Zr10_4 1_555 1_555
O27_2 Zr2_5 1_555 1_555
Zr2_5 Zr9_2 1_555 1_555
Zr2_5 Zr10_2 1_555 1_555
Zr2_5 O24_2 1_555 1_555
Zr2_5 O25_2 1_555 1_555
C3_3 C7_3 1_555 1_555
C5_3 C6_3 1_555 1_555
C19_3 C20_3 1_555 1_555
Zr9_4 Zr9_2 1_555 1_555
Zr9_4 Zr10_2 1_555 1_555
Zr9_4 O23_2 1_555 1_555
Zr9_4 O27_2 1_555 1_555
Zr9_2 O24_2 1_555 1_555
Zr9_2 O27_2 1_555 1_555
Zr10_2 O23_2 1_555 1_555
Zr10_2 O25_2 1_555 1_555
O12_2 Zr9_3 1_555 1_555
O13_3 Zr9_3 1_555 1_555
O14_3 Zr9_3 1_555 1_555
O15_2 Zr9_3 1_555 1_555
O12_2 Zr10 1_555 1_555
O12_2 Zr15 1_555 1_555
O15_2 Zr9 1_555 1_555
O15_2 Zr15 1_555 1_555
O6_3 C14_3 1_555 1_555
O19_2 C14_3 1_555 1_555
C8_3 H5_3 1_555 1_555
C9_3 C8_3 1_555 1_555
H6_3 C9_3 1_555 1_555
C10_3 C9_3 1_555 1_555
C11_3 C10_3 1_555 1_555
H7_3 C11_3 1_555 1_555
C12_3 C11_3 1_555 1_555
H8_3 C12_3 1_555 1_555
C13_3 Si1_6 1_555 1_555
C14_3 C10_3 1_555 1_555
C15_3 H9_3 1_555 1_555
O18_2 C28_3 1_555 1_555
O11_3 C28_3 1_555 1_555
C24_3 C23_3 1_555 1_555
C25_3 C24_3 1_555 1_555
H15_3 C25_3 1_555 1_555
C26_3 C25_3 1_555 1_555
H16_3 C26_3 1_555 1_555
C27_3 Si1_6 1_555 1_555
C28_3 C24_3 1_555 1_555
Zr9_4 O6_3 1_555 1_555
O13_4 Zr9_4 1_555 1_555
O14_4 Zr9_4 1_555 1_555
Zr13_4 O11_3 1_555 1_555
C8_3 C13_3 1_555 1_555
C12_3 C13_3 1_555 1_555
C26_3 C27_3 1_555 1_555
O4_5 Zr9 1_555 1_555
O5_5 Zr9 1_555 1_555
Si1_7 C6_4 1_555 1_555
O1_4 Zr9_2 1_555 1_555
O20_2 C7_4 1_555 1_555
O4_6 Zr9_2 1_555 1_555
O5_6 Zr9_2 1_555 1_555
C1_4 H1_4 1_555 1_555
C2_4 C1_4 1_555 1_555
H2_4 C2_4 1_555 1_555
C3_4 C2_4 1_555 1_555
C4_4 C3_4 1_555 1_555
H3_4 C4_4 1_555 1_555
C5_4 C4_4 1_555 1_555
H4_4 C5_4 1_555 1_555
C6_4 C1_4 1_555 1_555
C7_4 O1_4 1_555 1_555
O18 C21_4 1_555 1_555
O9_4 C21_4 1_555 1_555
C17_4 C16_4 1_555 1_555
C18_4 C17_4 1_555 1_555
H11_4 C18_4 1_555 1_555
C19_4 C18_4 1_555 1_555
H12_4 C19_4 1_555 1_555
C20_4 Si1_7 1_555 1_555
C21_4 C17_4 1_555 1_555
C22_4 H13_4 1_555 1_555
Zr13_3 O9_4 1_555 1_555
C3_4 C7_4 1_555 1_555
C5_4 C6_4 1_555 1_555
C19_4 C20_4 1_555 1_555
O13_5 Zr10 1_555 1_555
O14_5 Zr10 1_555 1_555
O6_4 C14_4 1_555 1_555
O21_2 C14_4 1_555 1_555
C8_4 H5_4 1_555 1_555
C9_4 C8_4 1_555 1_555
H6_4 C9_4 1_555 1_555
C10_4 C9_4 1_555 1_555
C11_4 C10_4 1_555 1_555
H7_4 C11_4 1_555 1_555
C12_4 C11_4 1_555 1_555
H8_4 C12_4 1_555 1_555
C13_4 Si1_8 1_555 1_555
C14_4 C10_4 1_555 1_555
C15_4 H9_4 1_555 1_555
O17 C28_4 1_555 1_555
O11_4 C28_4 1_555 1_555
C24_4 C23_4 1_555 1_555
C25_4 C24_4 1_555 1_555
H15_4 C25_4 1_555 1_555
C26_4 C25_4 1_555 1_555
H16_4 C26_4 1_555 1_555
C27_4 Si1_8 1_555 1_555
C28_4 C24_4 1_555 1_555
Zr10_2 O6_4 1_555 1_555
O13_6 Zr10_2 1_555 1_555
O14_6 Zr10_2 1_555 1_555
Zr13_2 O11_4 1_555 1_555
C8_4 C13_4 1_555 1_555
C12_4 C13_4 1_555 1_555
C26_4 C27_4 1_555 1_555

#END
