
###############################################################################
#
# This file contains modified crystal structure data generated from the
# MOF subset of the Cambridge Structural Database (CSD) v543 
# hosted by the Cambridge Crystallographic Data Centre (CCDC).
#
# This work is licensed under the Creative Commons
# Attribution-NonCommercial-ShareAlike 4.0 International License.
# To view a copy of this license, visit
# http://creativecommons.org/licenses/by-nc-sa/4.0/
# or send a letter to
# Creative Commons, PO Box 1866, Mountain View, CA 94042, USA.
#
# CIF created using the CSD Python API on 29 September 2022
# The structure has been converted into the P1 space group
# The structure has a 3D framework
# The original CSD entry XUCDOP is in the monoclinic crystal system
# The framework has been calculated to contain at least 10.0% void space
# The void calculation uses a probe of radius 1.32A, grid spacing 0.4
#
###############################################################################

data_XUCDOP
_chemical_formula_moiety         '(C144 H104 Cd8 N24 O32)n'
_symmetry_cell_setting           triclinic
_symmetry_space_group_name_H-M   'P 1'
_symmetry_Int_Tables_number      1
_space_group_name_Hall           'P 1'
loop_
_symmetry_equiv_pos_site_id
_symmetry_equiv_pos_as_xyz
1 x,y,z
_cell_length_a                   16.1032(17)
_cell_length_b                   12.5475(13)
_cell_length_c                   20.505(2)
_cell_angle_alpha                90
_cell_angle_beta                 100.315(2)
_cell_angle_gamma                90
_cell_volume                     4076.18
loop_
_atom_site_label
_atom_site_type_symbol
_atom_site_fract_x
_atom_site_fract_y
_atom_site_fract_z
N2 N 0.09862(17) 0.4528(2) 0.21332(13)
H1 H 0.099(2) 0.5228(15) 0.2108(18)
N3 N 0.26956(15) 0.3259(2) 0.37251(12)
C2 C 0.01258(19) 0.3001(2) 0.16449(15)
H3 H 0.0329 0.2553 0.1999
C3 C 0.04159(17) 0.4048(2) 0.16325(14)
C4 C 0.00793(18) 0.4675(2) 0.10853(14)
H4 H 0.0249 0.5380 0.1060
C6 C 0.24384(19) 0.4282(2) 0.37045(15)
H6 H 0.2648 0.4721 0.4061
C7 C 0.18840(19) 0.4709(2) 0.31851(15)
H7 H 0.1730 0.5423 0.3192
C8 C 0.15495(18) 0.4061(2) 0.26418(14)
C9 C 0.1835(2) 0.3016(3) 0.26511(15)
H8 H 0.1649 0.2563 0.2296
C10 C 0.2398(2) 0.2661(2) 0.31931(15)
H9 H 0.2584 0.1960 0.3190
Cd4 Cd 0.349610(11) 0.250695(16) 0.462995(9)
Cd3 Cd 0.150390(11) 0.750695(16) 0.037005(9)
O3 O 0.31774(12) 0.92021(16) 0.92413(10)
O4 O 0.21146(13) 0.86841(16) 0.97161(10)
C18 C 0.24973(16) 0.9381(2) 0.94427(13)
Cd2 Cd 0.349610(11) 0.749305(16) 0.962995(9)
N1 N 0.92156(15) 0.3229(2) 0.05896(11)
C1 C 0.95304(19) 0.2646(2) 0.11197(15)
H2 H 0.9335 0.1951 0.1137
C5 C 0.94952(18) 0.4242(2) 0.05847(14)
H5 H 0.9281 0.4670 0.0223
O6 O 0.78854(13) 0.13159(16) 0.02839(10)
Cd1 Cd 0.849610(11) 0.249305(16) 0.962995(9)
O1 O 0.97371(13) 0.27746(16) 0.91442(11)
O2 O 0.97180(13) 0.13148(17) 0.97333(12)
O5 O 0.81774(12) 0.42021(16) 0.92413(10)
N4 N 0.76956(15) 0.1741(2) 0.87251(12)
Cd1_2 Cd 0.150390(11) 0.249305(16) 0.537005(9)
O1_2 O 0.02629(13) 0.27746(16) 0.58558(11)
O2_2 O 0.02820(13) 0.13148(17) 0.52667(12)
N1_2 N 0.07844(15) 0.3229(2) 0.44104(11)
C1_2 C 0.04696(19) 0.2646(2) 0.38803(15)
H2_2 H 0.0665 0.1951 0.3863
C5_2 C 0.05048(18) 0.4242(2) 0.44153(14)
H5_2 H 0.0719 0.4670 0.4777
O5_2 O 0.18226(12) 0.42021(16) 0.57587(10)
O6_2 O 0.21146(13) 0.13159(16) 0.47161(10)
N4_2 N 0.23044(15) 0.1741(2) 0.62749(12)
N2_2 N 0.90138(17) 0.4528(2) 0.28668(13)
H1_2 H 0.901(2) 0.5228(15) 0.2892(18)
N3_2 N 0.73044(15) 0.3259(2) 0.12749(12)
C2_2 C 0.98742(19) 0.3001(2) 0.33551(15)
H3_2 H 0.9671 0.2553 0.3001
C3_2 C 0.95841(17) 0.4048(2) 0.33675(14)
C4_2 C 0.99207(18) 0.4675(2) 0.39147(14)
H4_2 H 0.9751 0.5380 0.3940
C6_2 C 0.75616(19) 0.4282(2) 0.12955(15)
H6_2 H 0.7352 0.4721 0.0939
C7_2 C 0.81160(19) 0.4709(2) 0.18149(15)
H7_2 H 0.8270 0.5423 0.1808
C8_2 C 0.84505(18) 0.4061(2) 0.23582(14)
C9_2 C 0.8165(2) 0.3016(3) 0.23489(15)
H8_2 H 0.8351 0.2563 0.2704
C10_2 C 0.7602(2) 0.2661(2) 0.18069(15)
H9_2 H 0.7416 0.1960 0.1810
C11 C 0.90135(18) 0.1726(2) 0.56655(15)
C12 C 0.86793(17) 0.0701(2) 0.55518(14)
H10 H 0.9003 0.0160 0.5414
C13 C 0.78592(17) 0.0493(2) 0.56458(14)
C14 C 0.7363(2) 0.1315(3) 0.58253(18)
H11 H 0.6813 0.1177 0.5882
C15 C 0.7689(2) 0.2338(3) 0.5919(2)
H12 H 0.7354 0.2889 0.6031
C16 C 0.8517(2) 0.2540(3) 0.5847(2)
H13 H 0.8738 0.3223 0.5920
C17 C 0.99091(17) 0.1946(2) 0.55921(14)
Cd4_2 Cd 0.650390(11) 0.250695(16) 0.037005(9)
O3_2 O 0.68226(12) 0.92021(16) 0.57587(10)
O4_2 O 0.78854(13) 0.86841(16) 0.52839(10)
C18_2 C 0.75027(16) 0.9381(2) 0.55573(13)
Cd2_2 Cd 0.650390(11) 0.749305(16) 0.537005(9)
Cd3_2 Cd 0.849610(11) 0.750695(16) 0.462995(9)
N1_3 N 0.42156(15) 0.8229(2) 0.05896(11)
N2_3 N 0.59862(17) 0.9528(2) 0.21332(13)
N3_3 N 0.76956(15) 0.8259(2) 0.37251(12)
C1_3 C 0.45304(19) 0.7646(2) 0.11197(15)
H2_3 H 0.4335 0.6951 0.1137
C2_3 C 0.51258(19) 0.8001(2) 0.16449(15)
H3_3 H 0.5329 0.7553 0.1999
C3_3 C 0.54159(17) 0.9048(2) 0.16325(14)
C4_3 C 0.50793(18) 0.9675(2) 0.10853(14)
C5_3 C 0.44952(18) 0.9242(2) 0.05847(14)
H5_3 H 0.4281 0.9670 0.0223
C6_3 C 0.74384(19) 0.9282(2) 0.37045(15)
H6_3 H 0.7648 0.9721 0.4061
C7_3 C 0.68840(19) 0.9709(2) 0.31851(15)
C8_3 C 0.65495(18) 0.9061(2) 0.26418(14)
C9_3 C 0.6835(2) 0.8016(3) 0.26511(15)
H8_3 H 0.6649 0.7563 0.2296
C10_3 C 0.7398(2) 0.7661(2) 0.31931(15)
H9_3 H 0.7584 0.6960 0.3190
O6_3 O 0.28854(13) 0.63159(16) 0.02839(10)
O1_3 O 0.47371(13) 0.77746(16) 0.91442(11)
O2_3 O 0.47180(13) 0.63148(17) 0.97333(12)
O4_3 O 0.71146(13) 0.36841(16) 0.97161(10)
C11_2 C 0.59865(18) 0.6726(2) 0.93345(15)
C12_2 C 0.63207(17) 0.5701(2) 0.94482(14)
H10_2 H 0.5997 0.5160 0.9586
C13_2 C 0.71408(17) 0.5493(2) 0.93542(14)
C14_2 C 0.7637(2) 0.6315(3) 0.91747(18)
H11_2 H 0.8187 0.6177 0.9118
C15_2 C 0.7311(2) 0.7338(3) 0.9081(2)
H12_2 H 0.7646 0.7889 0.8969
C16_2 C 0.6483(2) 0.7540(3) 0.9153(2)
H13_2 H 0.6262 0.8223 0.9080
C17_2 C 0.50909(17) 0.6946(2) 0.94079(14)
C18_3 C 0.74973(16) 0.4381(2) 0.94427(13)
N4_3 N 0.26956(15) 0.6741(2) 0.87251(12)
O1_4 O 0.52629(13) 0.77746(16) 0.58558(11)
O2_4 O 0.52820(13) 0.63148(17) 0.52667(12)
O4_4 O 0.28854(13) 0.36841(16) 0.52839(10)
N1_4 N 0.57844(15) 0.8229(2) 0.44104(11)
N2_4 N 0.40138(17) 0.9528(2) 0.28668(13)
N3_4 N 0.23044(15) 0.8259(2) 0.12749(12)
C1_4 C 0.54696(19) 0.7646(2) 0.38803(15)
H2_4 H 0.5665 0.6951 0.3863
C2_4 C 0.48742(19) 0.8001(2) 0.33551(15)
H3_4 H 0.4671 0.7553 0.3001
C3_4 C 0.45841(17) 0.9048(2) 0.33675(14)
C4_4 C 0.49207(18) 0.9675(2) 0.39147(14)
C5_4 C 0.55048(18) 0.9242(2) 0.44153(14)
H5_4 H 0.5719 0.9670 0.4777
C6_4 C 0.25616(19) 0.9282(2) 0.12955(15)
H6_4 H 0.2352 0.9721 0.0939
C7_4 C 0.31160(19) 0.9709(2) 0.18149(15)
C8_4 C 0.34505(18) 0.9061(2) 0.23582(14)
C9_4 C 0.3165(2) 0.8016(3) 0.23489(15)
H8_4 H 0.3351 0.7563 0.2704
C10_4 C 0.2602(2) 0.7661(2) 0.18069(15)
H9_4 H 0.2416 0.6960 0.1810
C11_3 C 0.40135(18) 0.6726(2) 0.56655(15)
C12_3 C 0.36793(17) 0.5701(2) 0.55518(14)
H10_3 H 0.4003 0.5160 0.5414
C13_3 C 0.28592(17) 0.5493(2) 0.56458(14)
C14_3 C 0.2363(2) 0.6315(3) 0.58253(18)
H11_3 H 0.1813 0.6177 0.5882
C15_3 C 0.2689(2) 0.7338(3) 0.5919(2)
H12_3 H 0.2354 0.7889 0.6031
C16_3 C 0.3517(2) 0.7540(3) 0.5847(2)
H13_3 H 0.3738 0.8223 0.5920
C17_3 C 0.49091(17) 0.6946(2) 0.55921(14)
C18_4 C 0.25027(16) 0.4381(2) 0.55573(13)
O6_4 O 0.71146(13) 0.63159(16) 0.47161(10)
N4_4 N 0.73044(15) 0.6741(2) 0.62749(12)
O1_5 O 0.02629(13) 0.72254(16) 0.08558(11)
O2_5 O 0.02820(13) 0.86852(17) 0.02667(12)
O5_3 O 0.18226(12) 0.57979(16) 0.07587(10)
N1_5 N 0.07844(15) 0.6771(2) 0.94104(11)
C1_5 C 0.04696(19) 0.7354(2) 0.88803(15)
H2_5 H 0.0665 0.8049 0.8863
C5_5 C 0.05048(18) 0.5758(2) 0.94153(14)
H5_5 H 0.0719 0.5330 0.9777
O3_3 O 0.68226(12) 0.07979(16) 0.07587(10)
C18_5 C 0.75027(16) 0.0619(2) 0.05573(13)
N2_5 N 0.90138(17) 0.5472(2) 0.78668(13)
H1_3 H 0.901(2) 0.4772(15) 0.7892(18)
C2_5 C 0.98742(19) 0.6999(2) 0.83551(15)
H3_5 H 0.9671 0.7447 0.8001
C3_5 C 0.95841(17) 0.5952(2) 0.83675(14)
C4_5 C 0.99207(18) 0.5325(2) 0.89147(14)
H4_3 H 0.9751 0.4620 0.8940
C6_5 C 0.75616(19) 0.5718(2) 0.62955(15)
H6_5 H 0.7352 0.5279 0.5939
C7_5 C 0.81160(19) 0.5291(2) 0.68149(15)
H7_3 H 0.8270 0.4577 0.6808
C8_5 C 0.84505(18) 0.5939(2) 0.73582(14)
C9_5 C 0.8165(2) 0.6984(3) 0.73489(15)
H8_5 H 0.8351 0.7437 0.7704
C10_5 C 0.7602(2) 0.7339(2) 0.68069(15)
H9_5 H 0.7416 0.8040 0.6810
O3_4 O 0.31774(12) 0.07979(16) 0.42413(10)
C18_6 C 0.24973(16) 0.0619(2) 0.44427(13)
N2_6 N 0.09862(17) 0.5472(2) 0.71332(13)
H1_4 H 0.099(2) 0.4772(15) 0.7108(18)
C2_6 C 0.01258(19) 0.6999(2) 0.66449(15)
H3_6 H 0.0329 0.7447 0.6999
C3_6 C 0.04159(17) 0.5952(2) 0.66325(14)
C4_6 C 0.00793(18) 0.5325(2) 0.60853(14)
H4_4 H 0.0249 0.4620 0.6060
C6_6 C 0.24384(19) 0.5718(2) 0.87045(15)
H6_6 H 0.2648 0.5279 0.9061
C7_6 C 0.18840(19) 0.5291(2) 0.81851(15)
H7_4 H 0.1730 0.4577 0.8192
C8_6 C 0.15495(18) 0.5939(2) 0.76418(14)
C9_6 C 0.1835(2) 0.6984(3) 0.76511(15)
H8_6 H 0.1649 0.7437 0.7296
C10_6 C 0.2398(2) 0.7339(2) 0.81931(15)
H9_6 H 0.2584 0.8040 0.8190
C11_4 C 0.09865(18) 0.8274(2) 0.43345(15)
C12_4 C 0.13207(17) 0.9299(2) 0.44482(14)
H10_4 H 0.0997 0.9840 0.4586
C13_4 C 0.21408(17) 0.9507(2) 0.43542(14)
C14_4 C 0.2637(2) 0.8685(3) 0.41747(18)
H11_4 H 0.3187 0.8823 0.4118
C15_4 C 0.2311(2) 0.7662(3) 0.4081(2)
H12_4 H 0.2646 0.7111 0.3969
C16_4 C 0.1483(2) 0.7460(3) 0.4153(2)
H13_4 H 0.1262 0.6777 0.4080
C17_4 C 0.00909(17) 0.8054(2) 0.44079(14)
O1_6 O 0.97371(13) 0.72254(16) 0.41442(11)
O2_6 O 0.97180(13) 0.86852(17) 0.47333(12)
N1_6 N 0.92156(15) 0.6771(2) 0.55896(11)
C1_6 C 0.95304(19) 0.7354(2) 0.61197(15)
H2_6 H 0.9335 0.8049 0.6137
C5_6 C 0.94952(18) 0.5758(2) 0.55847(14)
H5_6 H 0.9281 0.5330 0.5223
O5_4 O 0.81774(12) 0.57979(16) 0.42413(10)
O1_7 O 0.52629(13) 0.22254(16) 0.08558(11)
O2_7 O 0.52820(13) 0.36852(17) 0.02667(12)
C11_5 C 0.40135(18) 0.3274(2) 0.06655(15)
C12_5 C 0.36793(17) 0.4299(2) 0.05518(14)
H10_5 H 0.4003 0.4840 0.0414
C13_5 C 0.28592(17) 0.4507(2) 0.06458(14)
C14_5 C 0.2363(2) 0.3685(3) 0.08253(18)
H11_5 H 0.1813 0.3823 0.0882
C15_5 C 0.2689(2) 0.2662(3) 0.0919(2)
H12_5 H 0.2354 0.2111 0.1031
C16_5 C 0.3517(2) 0.2460(3) 0.0847(2)
H13_5 H 0.3738 0.1777 0.0920
C17_5 C 0.49091(17) 0.3054(2) 0.05921(14)
C18_7 C 0.25027(16) 0.5619(2) 0.05573(13)
N1_7 N 0.57844(15) 0.1771(2) 0.94104(11)
N2_7 N 0.40138(17) 0.0472(2) 0.78668(13)
C1_7 C 0.54696(19) 0.2354(2) 0.88803(15)
H2_7 H 0.5665 0.3049 0.8863
C2_7 C 0.48742(19) 0.1999(2) 0.83551(15)
H3_7 H 0.4671 0.2447 0.8001
C3_7 C 0.45841(17) 0.0952(2) 0.83675(14)
C4_7 C 0.49207(18) 0.0325(2) 0.89147(14)
C5_7 C 0.55048(18) 0.0758(2) 0.94153(14)
H5_7 H 0.5719 0.0330 0.9777
C6_7 C 0.25616(19) 0.0718(2) 0.62955(15)
H6_7 H 0.2352 0.0279 0.5939
C7_7 C 0.31160(19) 0.0291(2) 0.68149(15)
C8_7 C 0.34505(18) 0.0939(2) 0.73582(14)
C9_7 C 0.3165(2) 0.1984(3) 0.73489(15)
H8_7 H 0.3351 0.2437 0.7704
C10_7 C 0.2602(2) 0.2339(2) 0.68069(15)
H9_7 H 0.2416 0.3040 0.6810
O1_8 O 0.47371(13) 0.22254(16) 0.41442(11)
O2_8 O 0.47180(13) 0.36852(17) 0.47333(12)
N1_8 N 0.42156(15) 0.1771(2) 0.55896(11)
N2_8 N 0.59862(17) 0.0472(2) 0.71332(13)
C1_8 C 0.45304(19) 0.2354(2) 0.61197(15)
H2_8 H 0.4335 0.3049 0.6137
C2_8 C 0.51258(19) 0.1999(2) 0.66449(15)
H3_8 H 0.5329 0.2447 0.6999
C3_8 C 0.54159(17) 0.0952(2) 0.66325(14)
C4_8 C 0.50793(18) 0.0325(2) 0.60853(14)
C5_8 C 0.44952(18) 0.0758(2) 0.55847(14)
H5_8 H 0.4281 0.0330 0.5223
C6_8 C 0.74384(19) 0.0718(2) 0.87045(15)
H6_8 H 0.7648 0.0279 0.9061
C7_8 C 0.68840(19) 0.0291(2) 0.81851(15)
C8_8 C 0.65495(18) 0.0939(2) 0.76418(14)
C9_8 C 0.6835(2) 0.1984(3) 0.76511(15)
H8_8 H 0.6649 0.2437 0.7296
C10_8 C 0.7398(2) 0.2339(2) 0.81931(15)
H9_8 H 0.7584 0.3040 0.8190
C11_6 C 0.59865(18) 0.3274(2) 0.43345(15)
C12_6 C 0.63207(17) 0.4299(2) 0.44482(14)
H10_6 H 0.5997 0.4840 0.4586
C13_6 C 0.71408(17) 0.4507(2) 0.43542(14)
C14_6 C 0.7637(2) 0.3685(3) 0.41747(18)
H11_6 H 0.8187 0.3823 0.4118
C15_6 C 0.7311(2) 0.2662(3) 0.4081(2)
H12_6 H 0.7646 0.2111 0.3969
C16_6 C 0.6483(2) 0.2460(3) 0.4153(2)
H13_6 H 0.6262 0.1777 0.4080
C17_6 C 0.50909(17) 0.3054(2) 0.44079(14)
C18_8 C 0.74973(16) 0.5619(2) 0.44427(13)
C11_7 C 0.09865(18) 0.1726(2) 0.93345(15)
C12_7 C 0.13207(17) 0.0701(2) 0.94482(14)
H10_7 H 0.0997 0.0160 0.9586
C13_7 C 0.21408(17) 0.0493(2) 0.93542(14)
C14_7 C 0.2637(2) 0.1315(3) 0.91747(18)
H11_7 H 0.3187 0.1177 0.9118
C15_7 C 0.2311(2) 0.2338(3) 0.9081(2)
H12_7 H 0.2646 0.2889 0.8969
C16_7 C 0.1483(2) 0.2540(3) 0.9153(2)
H13_7 H 0.1262 0.3223 0.9080
C17_7 C 0.00909(17) 0.1946(2) 0.94079(14)
H1_5 H 0.599(2) 0.0228(15) 0.2108(18)
H4_5 H 0.5249 0.0380 0.1060
H7_5 H 0.6730 0.0423 0.3192
H1_6 H 0.401(2) 0.0228(15) 0.2892(18)
H4_6 H 0.4751 0.0380 0.3940
H7_6 H 0.3270 0.0423 0.1808
C11_8 C 0.90135(18) 0.8274(2) 0.06655(15)
C12_8 C 0.86793(17) 0.9299(2) 0.05518(14)
H10_8 H 0.9003 0.9840 0.0414
C13_8 C 0.78592(17) 0.9507(2) 0.06458(14)
C14_8 C 0.7363(2) 0.8685(3) 0.08253(18)
H11_8 H 0.6813 0.8823 0.0882
C15_8 C 0.7689(2) 0.7662(3) 0.0919(2)
H12_8 H 0.7354 0.7111 0.1031
C16_8 C 0.8517(2) 0.7460(3) 0.0847(2)
H13_8 H 0.8738 0.6777 0.0920
C17_8 C 0.99091(17) 0.8054(2) 0.05921(14)
H1_7 H 0.401(2) 0.9772(15) 0.7892(18)
H4_7 H 0.4751 0.9620 0.8940
H7_7 H 0.3270 0.9577 0.6808
H1_8 H 0.599(2) 0.9772(15) 0.7108(18)
H4_8 H 0.5249 0.9620 0.6060
H7_8 H 0.6730 0.9577 0.8192
loop_
_geom_bond_atom_site_label_1
_geom_bond_atom_site_label_2
_geom_bond_site_symmetry_1
_geom_bond_site_symmetry_2
N2 H1 1_555 1_555
N3 C6 1_555 1_555
H3 C2 1_555 1_555
C3 N2 1_555 1_555
C4 C3 1_555 1_555
H4 C4 1_555 1_555
C6 H6 1_555 1_555
C7 C6 1_555 1_555
H7 C7 1_555 1_555
C8 N2 1_555 1_555
C9 C8 1_555 1_555
H8 C9 1_555 1_555
C10 N3 1_555 1_555
H9 C10 1_555 1_555
Cd4 N3 1_555 1_555
C2 C3 1_555 1_555
C7 C8 1_555 1_555
C9 C10 1_555 1_555
O3 C18 1_555 1_555
O4 C18 1_555 1_555
Cd2 O3 1_555 1_555
C1 N1 1_555 1_555
H2 C1 1_555 1_555
C5 N1 1_555 1_555
H5 C5 1_555 1_555
Cd1 O1 1_555 1_555
O2 Cd1 1_555 1_555
O5 Cd1 1_555 1_555
N4 Cd1 1_555 1_555
Cd1_2 O1_2 1_555 1_555
O2_2 Cd1_2 1_555 1_555
N1_2 Cd1_2 1_555 1_555
C1_2 N1_2 1_555 1_555
H2_2 C1_2 1_555 1_555
C5_2 N1_2 1_555 1_555
H5_2 C5_2 1_555 1_555
O5_2 Cd1_2 1_555 1_555
O6_2 Cd1_2 1_555 1_555
N4_2 Cd1_2 1_555 1_555
N2_2 H1_2 1_555 1_555
N3_2 C6_2 1_555 1_555
H3_2 C2_2 1_555 1_555
C3_2 N2_2 1_555 1_555
C4_2 C3_2 1_555 1_555
H4_2 C4_2 1_555 1_555
C6_2 H6_2 1_555 1_555
C7_2 C6_2 1_555 1_555
H7_2 C7_2 1_555 1_555
C8_2 N2_2 1_555 1_555
C9_2 C8_2 1_555 1_555
H8_2 C9_2 1_555 1_555
C10_2 N3_2 1_555 1_555
H9_2 C10_2 1_555 1_555
C11 C12 1_555 1_555
C12 H10 1_555 1_555
C13 C12 1_555 1_555
C14 C13 1_555 1_555
H11 C14 1_555 1_555
C15 C14 1_555 1_555
H12 C15 1_555 1_555
C16 C11 1_555 1_555
H13 C16 1_555 1_555
Cd4_2 N3_2 1_555 1_555
C2_2 C3_2 1_555 1_555
C7_2 C8_2 1_555 1_555
C9_2 C10_2 1_555 1_555
C11 C17 1_555 1_555
C15 C16 1_555 1_555
O3_2 C18_2 1_555 1_555
O4_2 C18_2 1_555 1_555
Cd2_2 O3_2 1_555 1_555
Cd3_2 O4_2 1_555 1_555
N3_3 C6_3 1_555 1_555
C1_3 N1_3 1_555 1_555
H2_3 C1_3 1_555 1_555
C2_3 C1_3 1_555 1_555
H3_3 C2_3 1_555 1_555
C3_3 N2_3 1_555 1_555
C4_3 C3_3 1_555 1_555
C5_3 N1_3 1_555 1_555
H5_3 C5_3 1_555 1_555
C6_3 H6_3 1_555 1_555
C7_3 C6_3 1_555 1_555
C8_3 N2_3 1_555 1_555
C9_3 C8_3 1_555 1_555
H8_3 C9_3 1_555 1_555
C10_3 N3_3 1_555 1_555
H9_3 C10_3 1_555 1_555
Cd3_2 N3_3 1_555 1_555
C2_3 C3_3 1_555 1_555
C4_3 C5_3 1_555 1_555
C7_3 C8_3 1_555 1_555
C9_3 C10_3 1_555 1_555
Cd2 O1_3 1_555 1_555
O1_3 C17_2 1_555 1_555
O2_3 Cd2 1_555 1_555
O5 C18_3 1_555 1_555
O4_3 C18_3 1_555 1_555
C11_2 C12_2 1_555 1_555
C12_2 H10_2 1_555 1_555
C13_2 C12_2 1_555 1_555
C14_2 C13_2 1_555 1_555
H11_2 C14_2 1_555 1_555
C15_2 C14_2 1_555 1_555
H12_2 C15_2 1_555 1_555
C16_2 C11_2 1_555 1_555
H13_2 C16_2 1_555 1_555
C17_2 O2_3 1_555 1_555
C18_3 C13_2 1_555 1_555
N4_3 Cd2 1_555 1_555
C11_2 C17_2 1_555 1_555
C15_2 C16_2 1_555 1_555
Cd2_2 O1_4 1_555 1_555
O1_4 C17_3 1_555 1_555
O2_4 Cd2_2 1_555 1_555
O5_2 C18_4 1_555 1_555
O4_4 C18_4 1_555 1_555
N1_4 Cd2_2 1_555 1_555
N3_4 C6_4 1_555 1_555
C1_4 N1_4 1_555 1_555
H2_4 C1_4 1_555 1_555
C2_4 C1_4 1_555 1_555
H3_4 C2_4 1_555 1_555
C3_4 N2_4 1_555 1_555
C4_4 C3_4 1_555 1_555
C5_4 N1_4 1_555 1_555
H5_4 C5_4 1_555 1_555
C6_4 H6_4 1_555 1_555
C7_4 C6_4 1_555 1_555
C8_4 N2_4 1_555 1_555
C9_4 C8_4 1_555 1_555
H8_4 C9_4 1_555 1_555
C10_4 N3_4 1_555 1_555
H9_4 C10_4 1_555 1_555
C11_3 C12_3 1_555 1_555
C12_3 H10_3 1_555 1_555
C13_3 C12_3 1_555 1_555
C14_3 C13_3 1_555 1_555
H11_3 C14_3 1_555 1_555
C15_3 C14_3 1_555 1_555
H12_3 C15_3 1_555 1_555
C16_3 C11_3 1_555 1_555
H13_3 C16_3 1_555 1_555
C17_3 O2_4 1_555 1_555
C18_4 C13_3 1_555 1_555
Cd4 O4_4 1_555 1_555
Cd3 N3_4 1_555 1_555
O6_4 Cd2_2 1_555 1_555
N4_4 Cd2_2 1_555 1_555
C2_4 C3_4 1_555 1_555
C4_4 C5_4 1_555 1_555
C7_4 C8_4 1_555 1_555
C9_4 C10_4 1_555 1_555
C11_3 C17_3 1_555 1_555
C15_3 C16_3 1_555 1_555
Cd3 O1_5 1_555 1_555
O2_5 Cd3 1_555 1_555
O5_3 Cd3 1_555 1_555
C1_5 N1_5 1_555 1_555
H2_5 C1_5 1_555 1_555
C5_5 N1_5 1_555 1_555
H5_5 C5_5 1_555 1_555
O3_3 C18_5 1_555 1_555
O6 C18_5 1_555 1_555
Cd4_2 O3_3 1_555 1_555
N2_5 H1_3 1_555 1_555
N4_4 C6_5 1_555 1_555
H3_5 C2_5 1_555 1_555
C3_5 N2_5 1_555 1_555
C4_5 C3_5 1_555 1_555
H4_3 C4_5 1_555 1_555
C6_5 H6_5 1_555 1_555
C7_5 C6_5 1_555 1_555
H7_3 C7_5 1_555 1_555
C8_5 N2_5 1_555 1_555
C9_5 C8_5 1_555 1_555
H8_5 C9_5 1_555 1_555
C10_5 N4_4 1_555 1_555
H9_5 C10_5 1_555 1_555
C2_5 C3_5 1_555 1_555
C7_5 C8_5 1_555 1_555
C9_5 C10_5 1_555 1_555
O3_4 C18_6 1_555 1_555
O6_2 C18_6 1_555 1_555
Cd4 O3_4 1_555 1_555
N2_6 H1_4 1_555 1_555
N4_3 C6_6 1_555 1_555
H3_6 C2_6 1_555 1_555
C3_6 N2_6 1_555 1_555
C4_6 C3_6 1_555 1_555
H4_4 C4_6 1_555 1_555
C6_6 H6_6 1_555 1_555
C7_6 C6_6 1_555 1_555
H7_4 C7_6 1_555 1_555
C8_6 N2_6 1_555 1_555
C9_6 C8_6 1_555 1_555
H8_6 C9_6 1_555 1_555
C10_6 N4_3 1_555 1_555
H9_6 C10_6 1_555 1_555
C11_4 C12_4 1_555 1_555
C12_4 H10_4 1_555 1_555
C13_4 C12_4 1_555 1_555
C14_4 C13_4 1_555 1_555
H11_4 C14_4 1_555 1_555
C15_4 C14_4 1_555 1_555
H12_4 C15_4 1_555 1_555
C16_4 C11_4 1_555 1_555
H13_4 C16_4 1_555 1_555
C2_6 C3_6 1_555 1_555
C7_6 C8_6 1_555 1_555
C9_6 C10_6 1_555 1_555
C11_4 C17_4 1_555 1_555
C15_4 C16_4 1_555 1_555
Cd3_2 O1_6 1_555 1_555
O2_6 Cd3_2 1_555 1_555
N1_6 Cd3_2 1_555 1_555
C1_6 N1_6 1_555 1_555
H2_6 C1_6 1_555 1_555
C5_6 N1_6 1_555 1_555
H5_6 C5_6 1_555 1_555
O5_4 Cd3_2 1_555 1_555
Cd4_2 O1_7 1_555 1_555
O1_7 C17_5 1_555 1_555
O2_7 Cd4_2 1_555 1_555
O5_3 C18_7 1_555 1_555
O6_3 C18_7 1_555 1_555
C11_5 C12_5 1_555 1_555
C12_5 H10_5 1_555 1_555
C13_5 C12_5 1_555 1_555
C14_5 C13_5 1_555 1_555
H11_5 C14_5 1_555 1_555
C15_5 C14_5 1_555 1_555
H12_5 C15_5 1_555 1_555
C16_5 C11_5 1_555 1_555
H13_5 C16_5 1_555 1_555
C17_5 O2_7 1_555 1_555
C18_7 C13_5 1_555 1_555
C11_5 C17_5 1_555 1_555
C15_5 C16_5 1_555 1_555
N4_2 C6_7 1_555 1_555
C1_7 N1_7 1_555 1_555
H2_7 C1_7 1_555 1_555
C2_7 C1_7 1_555 1_555
H3_7 C2_7 1_555 1_555
C3_7 N2_7 1_555 1_555
C4_7 C3_7 1_555 1_555
C5_7 N1_7 1_555 1_555
H5_7 C5_7 1_555 1_555
C6_7 H6_7 1_555 1_555
C7_7 C6_7 1_555 1_555
C8_7 N2_7 1_555 1_555
C9_7 C8_7 1_555 1_555
H8_7 C9_7 1_555 1_555
C10_7 N4_2 1_555 1_555
H9_7 C10_7 1_555 1_555
C2_7 C3_7 1_555 1_555
C4_7 C5_7 1_555 1_555
C7_7 C8_7 1_555 1_555
C9_7 C10_7 1_555 1_555
Cd4 O1_8 1_555 1_555
O1_8 C17_6 1_555 1_555
O2_8 Cd4 1_555 1_555
O5_4 C18_8 1_555 1_555
O6_4 C18_8 1_555 1_555
N1_8 Cd4 1_555 1_555
N4 C6_8 1_555 1_555
C1_8 N1_8 1_555 1_555
H2_8 C1_8 1_555 1_555
C2_8 C1_8 1_555 1_555
H3_8 C2_8 1_555 1_555
C3_8 N2_8 1_555 1_555
C4_8 C3_8 1_555 1_555
C5_8 N1_8 1_555 1_555
H5_8 C5_8 1_555 1_555
C6_8 H6_8 1_555 1_555
C7_8 C6_8 1_555 1_555
C8_8 N2_8 1_555 1_555
C9_8 C8_8 1_555 1_555
H8_8 C9_8 1_555 1_555
C10_8 N4 1_555 1_555
H9_8 C10_8 1_555 1_555
C11_6 C12_6 1_555 1_555
C12_6 H10_6 1_555 1_555
C13_6 C12_6 1_555 1_555
C14_6 C13_6 1_555 1_555
H11_6 C14_6 1_555 1_555
C15_6 C14_6 1_555 1_555
H12_6 C15_6 1_555 1_555
C16_6 C11_6 1_555 1_555
H13_6 C16_6 1_555 1_555
C17_6 O2_8 1_555 1_555
C18_8 C13_6 1_555 1_555
C2_8 C3_8 1_555 1_555
C4_8 C5_8 1_555 1_555
C7_8 C8_8 1_555 1_555
C9_8 C10_8 1_555 1_555
C11_6 C17_6 1_555 1_555
C15_6 C16_6 1_555 1_555
C11_7 C12_7 1_555 1_555
C12_7 H10_7 1_555 1_555
C13_7 C12_7 1_555 1_555
C14_7 C13_7 1_555 1_555
H11_7 C14_7 1_555 1_555
C15_7 C14_7 1_555 1_555
H12_7 C15_7 1_555 1_555
C16_7 C11_7 1_555 1_555
H13_7 C16_7 1_555 1_555
C11_7 C17_7 1_555 1_555
C15_7 C16_7 1_555 1_555
C11_8 C12_8 1_555 1_555
C12_8 H10_8 1_555 1_555
C13_8 C12_8 1_555 1_555
C14_8 C13_8 1_555 1_555
H11_8 C14_8 1_555 1_555
C15_8 C14_8 1_555 1_555
H12_8 C15_8 1_555 1_555
C16_8 C11_8 1_555 1_555
H13_8 C16_8 1_555 1_555
C11_8 C17_8 1_555 1_555
C15_8 C16_8 1_555 1_555

#END
