
###############################################################################
#
# This file contains modified crystal structure data generated from the
# MOF subset of the Cambridge Structural Database (CSD) v543 
# hosted by the Cambridge Crystallographic Data Centre (CCDC).
#
# This work is licensed under the Creative Commons
# Attribution-NonCommercial-ShareAlike 4.0 International License.
# To view a copy of this license, visit
# http://creativecommons.org/licenses/by-nc-sa/4.0/
# or send a letter to
# Creative Commons, PO Box 1866, Mountain View, CA 94042, USA.
#
# CIF created using the CSD Python API on 29 September 2022
# The structure has been converted into the P1 space group
# The structure has a 3D framework
# The original CSD entry XUDKEP is in the monoclinic crystal system
# The framework has been calculated to contain at least 10.0% void space
# The void calculation uses a probe of radius 1.32A, grid spacing 0.4
# The framework is charged, counterions have been retained in the structure
#
###############################################################################

data_XUDKEP
_chemical_formula_moiety         '(C60 H32 N4 O32 Tb4)n'
_symmetry_cell_setting           triclinic
_symmetry_space_group_name_H-M   'P 1'
_symmetry_Int_Tables_number      1
_space_group_name_Hall           'P 1'
loop_
_symmetry_equiv_pos_site_id
_symmetry_equiv_pos_as_xyz
1 x,y,z
_cell_length_a                   11.3968(5)
_cell_length_b                   14.0119(6)
_cell_length_c                   11.3978(5)
_cell_angle_alpha                90
_cell_angle_beta                 95.65
_cell_angle_gamma                90
_cell_volume                     1811.28
loop_
_atom_site_label
_atom_site_type_symbol
_atom_site_fract_x
_atom_site_fract_y
_atom_site_fract_z
Tb4 Tb 0.10455(3) 0.16872(2) 0.03582(3)
Tb1 Tb 0.10455(3) 0.33128(2) 0.53582(3)
O1 O 0.0266(4) 0.1481(3) 0.8339(4)
O2 O 0.1353(4) 0.4929(3) 0.5381(4)
O3 O 0.1044(4) 0.3147(3) 0.9250(4)
O4 O 0.0504(4) 0.2023(3) 0.6543(4)
O5 O 0.7259(4) 0.6523(4) 0.5798(4)
O6 O 0.1171(4) 0.3705(3) 0.7417(4)
O7 O 0.0943(4) 0.6313(3) 0.4495(4)
O8 O 0.6933(4) 0.6960(4) 0.3949(5)
C1 C 0.0966(6) 0.3073(5) 0.8148(6)
C2 C 0.1635(6) 0.5673(5) 0.4896(5)
C3 C 0.3668(6) 0.5856(5) 0.5910(6)
H1 H 0.3374 0.5658 0.6603
C4 C 0.0542(5) 0.2108(5) 0.7631(6)
C5 C 0.2933(6) 0.5886(5) 0.4868(6)
C6 C 0.6560(6) 0.6667(5) 0.4890(6)
C7 C 0.4546(6) 0.6452(5) 0.3849(6)
H2 H 0.4842 0.6659 0.3162
C8 C 0.2676(6) 0.6092(5) 0.2634(6)
C9 C 0.5288(6) 0.6416(5) 0.4899(6)
N1 N 0.1688(5) 0.5855(5) 0.0379(5)
C10 C 0.4838(6) 0.6120(5) 0.5923(6)
H4 H 0.5327 0.6098 0.6626
C11 C 0.3372(6) 0.6181(5) 0.3820(6)
C12 C 0.2146(6) 0.5244(5) 0.2266(6)
H5 H 0.2114 0.4742 0.2795
C13 C 0.2143(8) 0.6699(6) 0.0719(7)
H6 H 0.2118 0.7203 0.0186
C14 C 0.1671(7) 0.5144(6) 0.1135(6)
H7 H 0.1328 0.4567 0.0889
C15 C 0.2642(8) 0.6828(6) 0.1840(7)
H8 H 0.2963 0.7417 0.2069
Tb3 Tb 0.89545(3) 0.66872(2) 0.46418(3)
O9 O 0.0266(4) 0.3519(3) 0.3339(4)
O10 O 0.1044(4) 0.1853(3) 0.4250(4)
O11 O 0.2741(4) 0.3477(4) 0.4202(4)
O13 O 0.3067(4) 0.3040(4) 0.6051(5)
O12 O 0.9057(4) 0.3687(3) 0.5505(4)
O12_2 O 0.0943(4) 0.8687(3) 0.9495(4)
O7_2 O 0.9057(4) 0.1313(3) 0.0505(4)
O8_2 O 0.3067(4) 0.1960(4) 0.1051(5)
C2_2 C 0.8365(6) 0.0673(5) 0.0104(5)
C5_2 C 0.7067(6) 0.0886(5) 0.0132(6)
C6_2 C 0.3440(6) 0.1667(5) 0.0110(6)
C7_2 C 0.5454(6) 0.1452(5) 0.1151(6)
H2_2 H 0.5158 0.1659 0.1838
C8_2 C 0.7324(6) 0.1092(5) 0.2366(6)
C9_2 C 0.4712(6) 0.1416(5) 0.0101(6)
N1_2 N 0.8312(5) 0.0855(5) 0.4621(5)
H3 H 0.8596 0.0773 0.5341
C11_2 C 0.6628(6) 0.1181(5) 0.1180(6)
C12_2 C 0.7854(6) 0.0244(5) 0.2734(6)
C13_2 C 0.7857(8) 0.1699(6) 0.4281(7)
H6_2 H 0.7882 0.2203 0.4814
C14_2 C 0.8329(7) 0.0144(6) 0.3865(6)
C15_2 C 0.7358(8) 0.1828(6) 0.3160(7)
H8_2 H 0.7037 0.2417 0.2931
O5_2 O 0.2741(4) 0.1523(4) 0.9202(4)
C3_2 C 0.6332(6) 0.0856(5) 0.9090(6)
H1_2 H 0.6626 0.0658 0.8397
C10_2 C 0.5162(6) 0.1120(5) 0.9077(6)
H4_2 H 0.4673 0.1098 0.8374
H5_2 H 0.7886 0.9742 0.2205
H7_2 H 0.8672 0.9567 0.4111
O9_2 O 0.9734(4) 0.8519(3) 0.1661(4)
O10_2 O 0.8956(4) 0.6853(3) 0.0750(4)
O11_2 O 0.7259(4) 0.8477(4) 0.0798(4)
Tb1_2 Tb 0.89545(3) 0.83128(2) 0.96418(3)
O1_2 O 0.9734(4) 0.6481(3) 0.6661(4)
O2_2 O 0.8647(4) 0.9929(3) 0.9619(4)
O3_2 O 0.8956(4) 0.8147(3) 0.5750(4)
O4_2 O 0.9496(4) 0.7023(3) 0.8457(4)
O6_2 O 0.8829(4) 0.8705(3) 0.7583(4)
C1_2 C 0.9034(6) 0.8073(5) 0.6852(6)
C4_2 C 0.9458(5) 0.7108(5) 0.7369(6)
O13_2 O 0.6933(4) 0.8040(4) 0.8949(5)
O2_3 O 0.8647(4) 0.5071(3) 0.4619(4)
O4_3 O 0.9496(4) 0.7977(3) 0.3457(4)
O6_3 O 0.8829(4) 0.6295(3) 0.2583(4)
C1_3 C 0.9034(6) 0.6927(5) 0.1852(6)
C2_3 C 0.8365(6) 0.4327(5) 0.5104(5)
C3_3 C 0.6332(6) 0.4144(5) 0.4090(6)
H1_3 H 0.6626 0.4342 0.3397
C4_3 C 0.9458(5) 0.7892(5) 0.2369(6)
C5_3 C 0.7067(6) 0.4114(5) 0.5132(6)
C6_3 C 0.3440(6) 0.3333(5) 0.5110(6)
C7_3 C 0.5454(6) 0.3548(5) 0.6151(6)
H2_3 H 0.5158 0.3341 0.6838
C8_3 C 0.7324(6) 0.3908(5) 0.7366(6)
C9_3 C 0.4712(6) 0.3584(5) 0.5101(6)
N1_3 N 0.8312(5) 0.4145(5) 0.9621(5)
C10_3 C 0.5162(6) 0.3880(5) 0.4077(6)
H4_3 H 0.4673 0.3902 0.3374
C11_3 C 0.6628(6) 0.3819(5) 0.6180(6)
C12_3 C 0.7854(6) 0.4756(5) 0.7734(6)
H5_3 H 0.7886 0.5258 0.7205
C13_3 C 0.7857(8) 0.3301(6) 0.9281(7)
H6_3 H 0.7882 0.2797 0.9814
C14_3 C 0.8329(7) 0.4856(6) 0.8865(6)
H7_3 H 0.8672 0.5433 0.9111
C15_3 C 0.7358(8) 0.3172(6) 0.8160(7)
H8_3 H 0.7037 0.2583 0.7931
O2_4 O 0.1353(4) 0.0071(3) 0.0381(4)
O4_4 O 0.0504(4) 0.2977(3) 0.1543(4)
O6_4 O 0.1171(4) 0.1295(3) 0.2417(4)
C1_4 C 0.0966(6) 0.1927(5) 0.3148(6)
C4_4 C 0.0542(5) 0.2892(5) 0.2631(6)
H5_4 H 0.2114 0.0258 0.7795
H7_4 H 0.1328 0.0433 0.5889
C3_4 C 0.3668(6) 0.9144(5) 0.0910(6)
H1_4 H 0.3374 0.9342 0.1603
C10_4 C 0.4838(6) 0.8880(5) 0.0923(6)
H4_4 H 0.5327 0.8902 0.1626
C2_4 C 0.1635(6) 0.9327(5) 0.9896(5)
C5_4 C 0.2933(6) 0.9114(5) 0.9868(6)
C6_4 C 0.6560(6) 0.8333(5) 0.9890(6)
C7_4 C 0.4546(6) 0.8548(5) 0.8849(6)
H2_4 H 0.4842 0.8341 0.8162
C8_4 C 0.2676(6) 0.8908(5) 0.7634(6)
C9_4 C 0.5288(6) 0.8584(5) 0.9899(6)
N1_4 N 0.1688(5) 0.9145(5) 0.5379(5)
H3_2 H 0.1404 0.9227 0.4659
C11_4 C 0.3372(6) 0.8819(5) 0.8820(6)
C12_4 C 0.2146(6) 0.9756(5) 0.7266(6)
C13_4 C 0.2143(8) 0.8301(6) 0.5719(7)
H6_4 H 0.2118 0.7797 0.5186
C14_4 C 0.1671(7) 0.9856(6) 0.6135(6)
C15_4 C 0.2642(8) 0.8172(6) 0.6840(7)
H8_4 H 0.2963 0.7583 0.7069
H3_3 H 0.1404 0.5773 0.9659
H3_4 H 0.8596 0.4227 0.0341
loop_
_geom_bond_atom_site_label_1
_geom_bond_atom_site_label_2
_geom_bond_site_symmetry_1
_geom_bond_site_symmetry_2
Tb1 O2 1_555 1_555
O1 C4 1_555 1_555
O2 C2 1_555 1_555
O3 C1 1_555 1_555
O4 Tb1 1_555 1_555
O5 C6 1_555 1_555
O6 Tb1 1_555 1_555
O7 C2 1_555 1_555
O8 C6 1_555 1_555
C1 O6 1_555 1_555
C2 C5 1_555 1_555
C3 H1 1_555 1_555
C4 O4 1_555 1_555
C5 C3 1_555 1_555
C6 C9 1_555 1_555
C7 H2 1_555 1_555
C8 C11 1_555 1_555
C9 C7 1_555 1_555
C10 C3 1_555 1_555
H4 C10 1_555 1_555
C11 C5 1_555 1_555
C12 C8 1_555 1_555
H5 C12 1_555 1_555
C13 N1 1_555 1_555
H6 C13 1_555 1_555
C14 N1 1_555 1_555
H7 C14 1_555 1_555
C15 C8 1_555 1_555
H8 C15 1_555 1_555
Tb3 O5 1_555 1_555
O9 Tb1 1_555 1_555
O10 Tb1 1_555 1_555
O11 Tb1 1_555 1_555
O13 Tb1 1_555 1_555
O8 Tb3 1_555 1_555
C1 C4 1_555 1_555
C7 C11 1_555 1_555
C9 C10 1_555 1_555
C12 C14 1_555 1_555
C13 C15 1_555 1_555
O7_2 C2_2 1_555 1_555
O8_2 C6_2 1_555 1_555
C2_2 C5_2 1_555 1_555
C6_2 C9_2 1_555 1_555
C7_2 H2_2 1_555 1_555
C8_2 C11_2 1_555 1_555
C9_2 C7_2 1_555 1_555
N1_2 H3 1_555 1_555
C11_2 C5_2 1_555 1_555
C12_2 C8_2 1_555 1_555
C13_2 N1_2 1_555 1_555
H6_2 C13_2 1_555 1_555
C14_2 N1_2 1_555 1_555
C15_2 C8_2 1_555 1_555
H8_2 C15_2 1_555 1_555
O8_2 Tb4 1_555 1_555
C7_2 C11_2 1_555 1_555
C12_2 C14_2 1_555 1_555
C13_2 C15_2 1_555 1_555
C3_2 H1_2 1_555 1_555
C10_2 C3_2 1_555 1_555
H4_2 C10_2 1_555 1_555
Tb1_2 O2_2 1_555 1_555
O1_2 C4_2 1_555 1_555
O3_2 C1_2 1_555 1_555
O4_2 Tb1_2 1_555 1_555
O6_2 Tb1_2 1_555 1_555
C1_2 O6_2 1_555 1_555
C4_2 O4_2 1_555 1_555
Tb3 O1_2 1_555 1_555
O13_2 Tb1_2 1_555 1_555
O3_2 Tb3 1_555 1_555
C1_2 C4_2 1_555 1_555
Tb3 O2_3 1_555 1_555
O9_2 C4_3 1_555 1_555
O2_3 C2_3 1_555 1_555
O10_2 C1_3 1_555 1_555
O4_3 Tb3 1_555 1_555
O11 C6_3 1_555 1_555
O6_3 Tb3 1_555 1_555
O12 C2_3 1_555 1_555
O13 C6_3 1_555 1_555
C1_3 O6_3 1_555 1_555
C2_3 C5_3 1_555 1_555
C3_3 H1_3 1_555 1_555
C4_3 O4_3 1_555 1_555
C5_3 C3_3 1_555 1_555
C6_3 C9_3 1_555 1_555
C7_3 H2_3 1_555 1_555
C8_3 C11_3 1_555 1_555
C9_3 C7_3 1_555 1_555
C10_3 C3_3 1_555 1_555
H4_3 C10_3 1_555 1_555
C11_3 C5_3 1_555 1_555
C12_3 C8_3 1_555 1_555
H5_3 C12_3 1_555 1_555
C13_3 N1_3 1_555 1_555
H6_3 C13_3 1_555 1_555
C14_3 N1_3 1_555 1_555
H7_3 C14_3 1_555 1_555
C15_3 C8_3 1_555 1_555
H8_3 C15_3 1_555 1_555
C1_3 C4_3 1_555 1_555
C7_3 C11_3 1_555 1_555
C9_3 C10_3 1_555 1_555
C12_3 C14_3 1_555 1_555
C13_3 C15_3 1_555 1_555
Tb4 O2_4 1_555 1_555
O9 C4_4 1_555 1_555
O10 C1_4 1_555 1_555
O4_4 Tb4 1_555 1_555
O6_4 Tb4 1_555 1_555
C1_4 O6_4 1_555 1_555
C4_4 O4_4 1_555 1_555
C1_4 C4_4 1_555 1_555
C3_4 H1_4 1_555 1_555
C10_4 C3_4 1_555 1_555
H4_4 C10_4 1_555 1_555
O12_2 C2_4 1_555 1_555
O13_2 C6_4 1_555 1_555
C2_4 C5_4 1_555 1_555
C6_4 C9_4 1_555 1_555
C7_4 H2_4 1_555 1_555
C8_4 C11_4 1_555 1_555
C9_4 C7_4 1_555 1_555
N1_4 H3_2 1_555 1_555
C11_4 C5_4 1_555 1_555
C12_4 C8_4 1_555 1_555
C13_4 N1_4 1_555 1_555
H6_4 C13_4 1_555 1_555
C14_4 N1_4 1_555 1_555
C15_4 C8_4 1_555 1_555
H8_4 C15_4 1_555 1_555
C7_4 C11_4 1_555 1_555
C12_4 C14_4 1_555 1_555
C13_4 C15_4 1_555 1_555

#END
