
###############################################################################
#
# This file contains modified crystal structure data generated from the
# MOF subset of the Cambridge Structural Database (CSD) v543 
# hosted by the Cambridge Crystallographic Data Centre (CCDC).
#
# This work is licensed under the Creative Commons
# Attribution-NonCommercial-ShareAlike 4.0 International License.
# To view a copy of this license, visit
# http://creativecommons.org/licenses/by-nc-sa/4.0/
# or send a letter to
# Creative Commons, PO Box 1866, Mountain View, CA 94042, USA.
#
# CIF created using the CSD Python API on 29 September 2022
# The structure has been converted into the P1 space group
# The structure has a 3D framework
# The original CSD entry XUDKOZ is in the monoclinic crystal system
# The framework has been calculated to contain at least 10.0% void space
# The void calculation uses a probe of radius 1.32A, grid spacing 0.4
# The framework is charged, counterions have been retained in the structure
#
###############################################################################

data_XUDKOZ
_chemical_formula_moiety         '(C60 H32 Er4 N4 O32)n'
_symmetry_cell_setting           triclinic
_symmetry_space_group_name_H-M   'P 1'
_symmetry_Int_Tables_number      1
_space_group_name_Hall           'P 1'
loop_
_symmetry_equiv_pos_site_id
_symmetry_equiv_pos_as_xyz
1 x,y,z
_cell_length_a                   11.3313(8)
_cell_length_b                   13.9527(9)
_cell_length_c                   11.2894(8)
_cell_angle_alpha                90
_cell_angle_beta                 95.060(2)
_cell_angle_gamma                90
_cell_volume                     1777.92
loop_
_atom_site_label
_atom_site_type_symbol
_atom_site_fract_x
_atom_site_fract_y
_atom_site_fract_z
Er4 Er 0.10387(3) 0.83068(3) 0.03409(3)
Er1 Er 0.10387(3) 0.66932(3) 0.53409(3)
O1 O 0.1051(6) 0.6856(4) 0.9248(5)
O2 O 0.0282(5) 0.8527(4) 0.8339(5)
O3 O 0.7260(5) 0.3474(5) 0.5811(5)
O4 O 0.1343(5) 0.5100(4) 0.5363(5)
O5 O 0.0487(6) 0.7980(4) 0.6511(5)
O6 O 0.1148(6) 0.6295(4) 0.7392(5)
O7 O 0.6972(6) 0.3031(5) 0.3950(6)
O8 O 0.0927(5) 0.3687(4) 0.4522(6)
C1 C 0.0958(8) 0.6927(6) 0.8130(8)
C2 C 0.6578(8) 0.3330(7) 0.4892(8)
C3 C 0.1616(8) 0.4334(7) 0.4915(8)
C4 C 0.0553(7) 0.7900(6) 0.7605(8)
C5 C 0.2936(7) 0.4115(6) 0.4873(8)
N1 N 0.1694(8) 0.4144(6) 0.0355(7)
C6 C 0.4554(8) 0.3525(6) 0.3859(8)
H2 H 0.4851 0.3287 0.3175
C7 C 0.3669(8) 0.4139(7) 0.5920(8)
H3 H 0.3363 0.4324 0.6622
C8 C 0.5285(8) 0.3579(7) 0.4897(9)
C9 C 0.2690(8) 0.3890(7) 0.2627(8)
C10 C 0.4849(9) 0.3890(7) 0.5935(9)
H4 H 0.5345 0.3932 0.6635
C11 C 0.2154(9) 0.4746(7) 0.2261(9)
H5 H 0.2117 0.5245 0.2802
C12 C 0.3395(8) 0.3816(6) 0.3816(8)
C13 C 0.2651(10) 0.3163(8) 0.1823(9)
H6 H 0.2968 0.2569 0.2049
C14 C 0.2157(10) 0.3291(9) 0.0694(9)
H7 H 0.2138 0.2786 0.0155
C15 C 0.1677(9) 0.4867(8) 0.1112(9)
H8 H 0.1343 0.5451 0.0867
Er3 Er 0.89613(3) 0.33068(3) 0.46591(3)
O9 O 0.1051(6) 0.8144(4) 0.4248(5)
O10 O 0.0282(5) 0.6473(4) 0.3339(5)
O11 O 0.2740(5) 0.6526(5) 0.4189(5)
O12 O 0.3028(6) 0.6969(5) 0.6050(6)
O13 O 0.9073(5) 0.6313(4) 0.5478(6)
O13_2 O 0.0927(5) 0.1313(4) 0.9522(6)
H5_2 H 0.7883 0.0245 0.2198
H8_2 H 0.8657 0.0451 0.4133
O9_2 O 0.8949(6) 0.3144(4) 0.0752(5)
O10_2 O 0.9718(5) 0.1473(4) 0.1661(5)
O11_2 O 0.7260(5) 0.1526(5) 0.0811(5)
Er1_2 Er 0.89613(3) 0.16932(3) 0.96591(3)
O1_2 O 0.8949(6) 0.1856(4) 0.5752(5)
O2_2 O 0.9718(5) 0.3527(4) 0.6661(5)
O4_2 O 0.8657(5) 0.0100(4) 0.9637(5)
O5_2 O 0.9513(6) 0.2980(4) 0.8489(5)
O6_2 O 0.8852(6) 0.1295(4) 0.7608(5)
C1_2 C 0.9042(8) 0.1927(6) 0.6870(8)
C4_2 C 0.9447(7) 0.2900(6) 0.7395(8)
O12_2 O 0.6972(6) 0.1969(5) 0.8950(6)
O7_2 O 0.3028(6) 0.8031(5) 0.1050(6)
O8_2 O 0.9073(5) 0.8687(4) 0.0478(6)
C2_2 C 0.3422(8) 0.8330(7) 0.0108(8)
C3_2 C 0.8384(8) 0.9334(7) 0.0085(8)
C5_2 C 0.7064(7) 0.9115(6) 0.0127(8)
N1_2 N 0.8306(8) 0.9144(6) 0.4645(7)
H1 H 0.8596 0.9223 0.5368
C6_2 C 0.5446(8) 0.8525(6) 0.1141(8)
H2_2 H 0.5149 0.8287 0.1825
C8_2 C 0.4715(8) 0.8579(7) 0.0103(9)
C9_2 C 0.7310(8) 0.8890(7) 0.2373(8)
C11_2 C 0.7846(9) 0.9746(7) 0.2739(9)
C12_2 C 0.6605(8) 0.8816(6) 0.1184(8)
C13_2 C 0.7349(10) 0.8163(8) 0.3177(9)
H6_2 H 0.7032 0.7569 0.2951
C14_2 C 0.7843(10) 0.8291(9) 0.4306(9)
H7_2 H 0.7862 0.7786 0.4845
C15_2 C 0.8323(9) 0.9867(8) 0.3888(9)
O3_2 O 0.2740(5) 0.8474(5) 0.9189(5)
C7_2 C 0.6331(8) 0.9139(7) 0.9080(8)
H3_2 H 0.6637 0.9324 0.8378
C10_2 C 0.5151(9) 0.8890(7) 0.9065(9)
H4_2 H 0.4655 0.8932 0.8365
O4_3 O 0.8657(5) 0.4900(4) 0.4637(5)
O5_3 O 0.9513(6) 0.2020(4) 0.3489(5)
O6_3 O 0.8852(6) 0.3705(4) 0.2608(5)
C1_3 C 0.9042(8) 0.3073(6) 0.1870(8)
C2_3 C 0.3422(8) 0.6670(7) 0.5108(8)
C3_3 C 0.8384(8) 0.5666(7) 0.5085(8)
C4_3 C 0.9447(7) 0.2100(6) 0.2395(8)
C5_3 C 0.7064(7) 0.5885(6) 0.5127(8)
N1_3 N 0.8306(8) 0.5856(6) 0.9645(7)
C6_3 C 0.5446(8) 0.6475(6) 0.6141(8)
H2_3 H 0.5149 0.6713 0.6825
C7_3 C 0.6331(8) 0.5861(7) 0.4080(8)
H3_3 H 0.6637 0.5676 0.3378
C8_3 C 0.4715(8) 0.6421(7) 0.5103(9)
C9_3 C 0.7310(8) 0.6110(7) 0.7373(8)
C10_3 C 0.5151(9) 0.6110(7) 0.4065(9)
H4_3 H 0.4655 0.6068 0.3365
C11_3 C 0.7846(9) 0.5254(7) 0.7739(9)
H5_3 H 0.7883 0.4755 0.7198
C12_3 C 0.6605(8) 0.6184(6) 0.6184(8)
C13_3 C 0.7349(10) 0.6837(8) 0.8177(9)
H6_3 H 0.7032 0.7431 0.7951
C14_3 C 0.7843(10) 0.6709(9) 0.9306(9)
H7_3 H 0.7862 0.7214 0.9845
C15_3 C 0.8323(9) 0.5133(8) 0.8888(9)
H8_3 H 0.8657 0.4549 0.9133
C7_4 C 0.3669(8) 0.0861(7) 0.0920(8)
H3_4 H 0.3363 0.0676 0.1622
C10_4 C 0.4849(9) 0.1110(7) 0.0935(9)
H4_4 H 0.5345 0.1068 0.1635
C2_4 C 0.6578(8) 0.1670(7) 0.9892(8)
C3_4 C 0.1616(8) 0.0666(7) 0.9915(8)
C5_4 C 0.2936(7) 0.0885(6) 0.9873(8)
N1_4 N 0.1694(8) 0.0856(6) 0.5355(7)
H1_2 H 0.1404 0.0777 0.4632
C6_4 C 0.4554(8) 0.1475(6) 0.8859(8)
H2_4 H 0.4851 0.1713 0.8175
C8_4 C 0.5285(8) 0.1421(7) 0.9897(9)
C9_4 C 0.2690(8) 0.1110(7) 0.7627(8)
C11_4 C 0.2154(9) 0.0254(7) 0.7261(9)
C12_4 C 0.3395(8) 0.1184(6) 0.8816(8)
C13_4 C 0.2651(10) 0.1837(8) 0.6823(9)
H6_4 H 0.2968 0.2431 0.7049
C14_4 C 0.2157(10) 0.1709(9) 0.5694(9)
H7_4 H 0.2138 0.2214 0.5155
C15_4 C 0.1677(9) 0.0133(8) 0.6112(9)
O4_4 O 0.1343(5) 0.9900(4) 0.0363(5)
O5_4 O 0.0487(6) 0.7020(4) 0.1511(5)
O6_4 O 0.1148(6) 0.8705(4) 0.2392(5)
C1_4 C 0.0958(8) 0.8073(6) 0.3130(8)
C4_4 C 0.0553(7) 0.7100(6) 0.2605(8)
H5_4 H 0.2117 0.9755 0.7802
H8_4 H 0.1343 0.9549 0.5867
H1_3 H 0.1404 0.4223 0.9632
H1_4 H 0.8596 0.5777 0.0368
loop_
_geom_bond_atom_site_label_1
_geom_bond_atom_site_label_2
_geom_bond_site_symmetry_1
_geom_bond_site_symmetry_2
Er1 O4 1_555 1_555
O1 C1 1_555 1_555
O2 C4 1_555 1_555
O3 C2 1_555 1_555
O4 C3 1_555 1_555
O5 Er1 1_555 1_555
O6 Er1 1_555 1_555
O7 C2 1_555 1_555
O8 C3 1_555 1_555
C1 O6 1_555 1_555
C2 C8 1_555 1_555
C3 C5 1_555 1_555
C4 O5 1_555 1_555
C5 C7 1_555 1_555
C6 H2 1_555 1_555
C7 H3 1_555 1_555
C8 C6 1_555 1_555
C9 C11 1_555 1_555
C10 C7 1_555 1_555
H4 C10 1_555 1_555
C11 H5 1_555 1_555
C12 C5 1_555 1_555
C13 C9 1_555 1_555
H6 C13 1_555 1_555
C14 N1 1_555 1_555
H7 C14 1_555 1_555
C15 N1 1_555 1_555
H8 C15 1_555 1_555
Er3 O3 1_555 1_555
O9 Er1 1_555 1_555
O10 Er1 1_555 1_555
O11 Er1 1_555 1_555
O12 Er1 1_555 1_555
O7 Er3 1_555 1_555
C1 C4 1_555 1_555
C6 C12 1_555 1_555
C8 C10 1_555 1_555
C9 C12 1_555 1_555
C11 C15 1_555 1_555
C13 C14 1_555 1_555
Er1_2 O4_2 1_555 1_555
O1_2 C1_2 1_555 1_555
O2_2 C4_2 1_555 1_555
O5_2 Er1_2 1_555 1_555
O6_2 Er1_2 1_555 1_555
C1_2 O6_2 1_555 1_555
C4_2 O5_2 1_555 1_555
Er3 O1_2 1_555 1_555
O12_2 Er1_2 1_555 1_555
O2_2 Er3 1_555 1_555
C1_2 C4_2 1_555 1_555
O7_2 C2_2 1_555 1_555
O8_2 C3_2 1_555 1_555
C2_2 C8_2 1_555 1_555
C3_2 C5_2 1_555 1_555
N1_2 H1 1_555 1_555
C6_2 H2_2 1_555 1_555
C8_2 C6_2 1_555 1_555
C9_2 C11_2 1_555 1_555
C12_2 C5_2 1_555 1_555
C13_2 C9_2 1_555 1_555
H6_2 C13_2 1_555 1_555
C14_2 N1_2 1_555 1_555
H7_2 C14_2 1_555 1_555
C15_2 N1_2 1_555 1_555
O7_2 Er4 1_555 1_555
C6_2 C12_2 1_555 1_555
C9_2 C12_2 1_555 1_555
C11_2 C15_2 1_555 1_555
C13_2 C14_2 1_555 1_555
C7_2 H3_2 1_555 1_555
C10_2 C7_2 1_555 1_555
H4_2 C10_2 1_555 1_555
Er3 O4_3 1_555 1_555
O9_2 C1_3 1_555 1_555
O10_2 C4_3 1_555 1_555
O11 C2_3 1_555 1_555
O4_3 C3_3 1_555 1_555
O5_3 Er3 1_555 1_555
O6_3 Er3 1_555 1_555
O12 C2_3 1_555 1_555
O13 C3_3 1_555 1_555
C1_3 O6_3 1_555 1_555
C2_3 C8_3 1_555 1_555
C3_3 C5_3 1_555 1_555
C4_3 O5_3 1_555 1_555
C5_3 C7_3 1_555 1_555
C6_3 H2_3 1_555 1_555
C7_3 H3_3 1_555 1_555
C8_3 C6_3 1_555 1_555
C9_3 C11_3 1_555 1_555
C10_3 C7_3 1_555 1_555
H4_3 C10_3 1_555 1_555
C11_3 H5_3 1_555 1_555
C12_3 C5_3 1_555 1_555
C13_3 C9_3 1_555 1_555
H6_3 C13_3 1_555 1_555
C14_3 N1_3 1_555 1_555
H7_3 C14_3 1_555 1_555
C15_3 N1_3 1_555 1_555
H8_3 C15_3 1_555 1_555
C1_3 C4_3 1_555 1_555
C6_3 C12_3 1_555 1_555
C8_3 C10_3 1_555 1_555
C9_3 C12_3 1_555 1_555
C11_3 C15_3 1_555 1_555
C13_3 C14_3 1_555 1_555
C7_4 H3_4 1_555 1_555
C10_4 C7_4 1_555 1_555
H4_4 C10_4 1_555 1_555
O12_2 C2_4 1_555 1_555
O13_2 C3_4 1_555 1_555
C2_4 C8_4 1_555 1_555
C3_4 C5_4 1_555 1_555
N1_4 H1_2 1_555 1_555
C6_4 H2_4 1_555 1_555
C8_4 C6_4 1_555 1_555
C9_4 C11_4 1_555 1_555
C12_4 C5_4 1_555 1_555
C13_4 C9_4 1_555 1_555
H6_4 C13_4 1_555 1_555
C14_4 N1_4 1_555 1_555
H7_4 C14_4 1_555 1_555
C15_4 N1_4 1_555 1_555
C6_4 C12_4 1_555 1_555
C9_4 C12_4 1_555 1_555
C11_4 C15_4 1_555 1_555
C13_4 C14_4 1_555 1_555
Er4 O4_4 1_555 1_555
O9 C1_4 1_555 1_555
O10 C4_4 1_555 1_555
O5_4 Er4 1_555 1_555
O6_4 Er4 1_555 1_555
C1_4 O6_4 1_555 1_555
C4_4 O5_4 1_555 1_555
C1_4 C4_4 1_555 1_555

#END
