
###############################################################################
#
# This file contains modified crystal structure data generated from the
# MOF subset of the Cambridge Structural Database (CSD) v543 
# hosted by the Cambridge Crystallographic Data Centre (CCDC).
#
# This work is licensed under the Creative Commons
# Attribution-NonCommercial-ShareAlike 4.0 International License.
# To view a copy of this license, visit
# http://creativecommons.org/licenses/by-nc-sa/4.0/
# or send a letter to
# Creative Commons, PO Box 1866, Mountain View, CA 94042, USA.
#
# CIF created using the CSD Python API on 29 September 2022
# The structure has been converted into the P1 space group
# The structure has a 3D framework
# The original CSD entry XUDKUF is in the monoclinic crystal system
# The framework has been calculated to contain at least 10.0% void space
# The void calculation uses a probe of radius 1.32A, grid spacing 0.4
# The framework is charged, counterions have been retained in the structure
#
###############################################################################

data_XUDKUF
_chemical_formula_moiety         '(C60 H32 Ho4 N4 O32)n'
_symmetry_cell_setting           triclinic
_symmetry_space_group_name_H-M   'P 1'
_symmetry_Int_Tables_number      1
_space_group_name_Hall           'P 1'
loop_
_symmetry_equiv_pos_site_id
_symmetry_equiv_pos_as_xyz
1 x,y,z
_cell_length_a                   11.372(4)
_cell_length_b                   13.957(5)
_cell_length_c                   11.331(4)
_cell_angle_alpha                90
_cell_angle_beta                 95.083(13)
_cell_angle_gamma                90
_cell_volume                     1791.37
loop_
_atom_site_label
_atom_site_type_symbol
_atom_site_fract_x
_atom_site_fract_y
_atom_site_fract_z
Ho3 Ho 0.10412(3) 0.33091(3) 0.53456(3)
O11 O 0.0925(5) 0.6315(4) 0.4512(5)
Ho1 Ho 0.89588(3) 0.66909(3) 0.46544(3)
O1 O 0.8650(5) 0.5083(4) 0.4631(5)
O2 O 0.8847(5) 0.6304(4) 0.2598(5)
O3 O 0.2739(5) 0.3479(5) 0.4190(5)
O4 O 0.8953(6) 0.6856(4) 0.0749(5)
O5 O 0.9504(5) 0.7981(4) 0.3481(5)
O6 O 0.9075(5) 0.3685(4) 0.5488(5)
O7 O 0.9724(5) 0.8525(4) 0.1658(5)
O8 O 0.3043(5) 0.3038(5) 0.6051(6)
C1 C 0.9452(7) 0.7894(6) 0.2388(7)
C2 C 0.3425(8) 0.3334(6) 0.5098(8)
C3 C 0.7071(7) 0.4116(6) 0.5121(7)
C4 C 0.8373(7) 0.4322(6) 0.5100(7)
C5 C 0.9042(7) 0.6929(6) 0.1864(8)
C6 C 0.6616(7) 0.3815(6) 0.6182(7)
N1 N 0.8316(7) 0.4152(6) 0.9631(7)
C7 C 0.6340(7) 0.4146(6) 0.4077(8)
H2 H 0.6638 0.4348 0.3380
C8 C 0.5444(7) 0.3531(6) 0.6149(8)
H3 H 0.5144 0.3304 0.6834
C9 C 0.7314(7) 0.3895(6) 0.7367(8)
C10 C 0.4711(7) 0.3582(6) 0.5094(8)
C11 C 0.5160(8) 0.3876(6) 0.4065(8)
H4 H 0.4675 0.3894 0.3360
C12 C 0.7854(10) 0.3302(8) 0.9299(8)
H5 H 0.7875 0.2800 0.9841
C13 C 0.7350(10) 0.3165(7) 0.8173(9)
H6 H 0.7030 0.2571 0.7953
C14 C 0.7855(8) 0.4743(7) 0.7738(8)
H7 H 0.7882 0.5248 0.7205
C15 C 0.8344(9) 0.4852(8) 0.8859(8)
H8 H 0.8704 0.5429 0.9088
O9 O 0.7261(5) 0.6521(5) 0.5810(5)
O10 O 0.8953(6) 0.8144(4) 0.5749(5)
O12 O 0.9724(5) 0.6475(4) 0.6658(5)
O13 O 0.6957(5) 0.6962(5) 0.3949(6)
Ho4 Ho 0.89588(3) 0.83091(3) 0.96544(3)
Ho1_2 Ho 0.10412(3) 0.16909(3) 0.03456(3)
O1_2 O 0.1350(5) 0.0083(4) 0.0369(5)
O2_2 O 0.1153(5) 0.1304(4) 0.2402(5)
O4_2 O 0.1047(6) 0.1856(4) 0.4251(5)
O5_2 O 0.0496(5) 0.2981(4) 0.1519(5)
O7_2 O 0.0276(5) 0.3525(4) 0.3342(5)
C1_2 C 0.0548(7) 0.2894(6) 0.2612(7)
C5_2 C 0.0958(7) 0.1929(6) 0.3136(8)
O13_2 O 0.3043(5) 0.1962(5) 0.1051(6)
H7_2 H 0.2118 0.0248 0.7795
H8_2 H 0.1296 0.0429 0.5912
O9_2 O 0.2739(5) 0.1521(5) 0.9190(5)
O10_2 O 0.1047(6) 0.3144(4) 0.9251(5)
O12_2 O 0.0276(5) 0.1475(4) 0.8342(5)
O3_2 O 0.7261(5) 0.8479(5) 0.0810(5)
C7_2 C 0.3660(7) 0.9146(6) 0.0923(8)
H2_2 H 0.3362 0.9348 0.1620
C11_2 C 0.4840(8) 0.8876(6) 0.0935(8)
H4_2 H 0.5325 0.8894 0.1640
O6_2 O 0.0925(5) 0.8685(4) 0.9512(5)
O8_2 O 0.6957(5) 0.8038(5) 0.8949(6)
C2_2 C 0.6575(8) 0.8334(6) 0.9902(8)
C3_2 C 0.2929(7) 0.9116(6) 0.9879(7)
C4_2 C 0.1627(7) 0.9322(6) 0.9900(7)
C6_2 C 0.3384(7) 0.8815(6) 0.8818(7)
N1_2 N 0.1684(7) 0.9152(6) 0.5369(7)
H1 H 0.1403 0.9240 0.4647
C8_2 C 0.4556(7) 0.8531(6) 0.8851(8)
H3_2 H 0.4856 0.8304 0.8166
C9_2 C 0.2686(7) 0.8895(6) 0.7633(8)
C10_2 C 0.5289(7) 0.8582(6) 0.9906(8)
C12_2 C 0.2146(10) 0.8302(8) 0.5701(8)
H5_2 H 0.2125 0.7800 0.5159
C13_2 C 0.2650(10) 0.8165(7) 0.6827(9)
H6_2 H 0.2970 0.7571 0.7047
C14_2 C 0.2145(8) 0.9743(7) 0.7262(8)
C15_2 C 0.1656(9) 0.9852(8) 0.6141(8)
O11_2 O 0.9075(5) 0.1315(4) 0.0488(5)
O1_3 O 0.1350(5) 0.4917(4) 0.5369(5)
O2_3 O 0.1153(5) 0.3696(4) 0.7402(5)
O5_3 O 0.0496(5) 0.2019(4) 0.6519(5)
C1_3 C 0.0548(7) 0.2106(6) 0.7612(7)
C2_3 C 0.6575(8) 0.6666(6) 0.4902(8)
C3_3 C 0.2929(7) 0.5884(6) 0.4879(7)
C4_3 C 0.1627(7) 0.5678(6) 0.4900(7)
C5_3 C 0.0958(7) 0.3071(6) 0.8136(8)
C6_3 C 0.3384(7) 0.6185(6) 0.3818(7)
N1_3 N 0.1684(7) 0.5848(6) 0.0369(7)
C7_3 C 0.3660(7) 0.5854(6) 0.5923(8)
H2_3 H 0.3362 0.5652 0.6620
C8_3 C 0.4556(7) 0.6469(6) 0.3851(8)
H3_3 H 0.4856 0.6696 0.3166
C9_3 C 0.2686(7) 0.6105(6) 0.2633(8)
C10_3 C 0.5289(7) 0.6418(6) 0.4906(8)
C11_3 C 0.4840(8) 0.6124(6) 0.5935(8)
H4_3 H 0.5325 0.6106 0.6640
C12_3 C 0.2146(10) 0.6698(8) 0.0701(8)
H5_3 H 0.2125 0.7200 0.0159
C13_3 C 0.2650(10) 0.6835(7) 0.1827(9)
H6_3 H 0.2970 0.7429 0.2047
C14_3 C 0.2145(8) 0.5257(7) 0.2262(8)
H7_3 H 0.2118 0.4752 0.2795
C15_3 C 0.1656(9) 0.5148(8) 0.1141(8)
H8_3 H 0.1296 0.4571 0.0912
C2_4 C 0.3425(8) 0.1666(6) 0.0098(8)
C3_4 C 0.7071(7) 0.0884(6) 0.0121(7)
C4_4 C 0.8373(7) 0.0678(6) 0.0100(7)
C6_4 C 0.6616(7) 0.1185(6) 0.1182(7)
N1_4 N 0.8316(7) 0.0848(6) 0.4631(7)
H1_2 H 0.8597 0.0760 0.5353
C8_4 C 0.5444(7) 0.1469(6) 0.1149(8)
H3_4 H 0.5144 0.1696 0.1834
C9_4 C 0.7314(7) 0.1105(6) 0.2367(8)
C10_4 C 0.4711(7) 0.1418(6) 0.0094(8)
C12_4 C 0.7854(10) 0.1698(8) 0.4299(8)
H5_4 H 0.7875 0.2200 0.4841
C13_4 C 0.7350(10) 0.1835(7) 0.3173(9)
H6_4 H 0.7030 0.2429 0.2953
C14_4 C 0.7855(8) 0.0257(7) 0.2738(8)
C15_4 C 0.8344(9) 0.0148(8) 0.3859(8)
C7_4 C 0.6340(7) 0.0854(6) 0.9077(8)
H2_4 H 0.6638 0.0652 0.8380
C11_4 C 0.5160(8) 0.1124(6) 0.9065(8)
H4_4 H 0.4675 0.1106 0.8360
H7_4 H 0.7882 0.9752 0.2205
H8_4 H 0.8704 0.9571 0.4088
O1_4 O 0.8650(5) 0.9917(4) 0.9631(5)
O2_4 O 0.8847(5) 0.8696(4) 0.7598(5)
O5_4 O 0.9504(5) 0.7019(4) 0.8481(5)
C1_4 C 0.9452(7) 0.7106(6) 0.7388(7)
C5_4 C 0.9042(7) 0.8071(6) 0.6864(8)
H1_3 H 0.8597 0.4240 0.0353
H1_4 H 0.1403 0.5760 0.9647
loop_
_geom_bond_atom_site_label_1
_geom_bond_atom_site_label_2
_geom_bond_site_symmetry_1
_geom_bond_site_symmetry_2
Ho1 O1 1_555 1_555
O1 C4 1_555 1_555
O2 Ho1 1_555 1_555
O3 C2 1_555 1_555
O4 C5 1_555 1_555
O5 Ho1 1_555 1_555
O6 C4 1_555 1_555
O7 C1 1_555 1_555
O8 C2 1_555 1_555
C1 O5 1_555 1_555
C2 C10 1_555 1_555
C3 C4 1_555 1_555
C5 O2 1_555 1_555
C6 C3 1_555 1_555
C7 C3 1_555 1_555
H2 C7 1_555 1_555
C8 C6 1_555 1_555
H3 C8 1_555 1_555
C9 C6 1_555 1_555
C10 C8 1_555 1_555
C11 C7 1_555 1_555
H4 C11 1_555 1_555
C12 N1 1_555 1_555
H5 C12 1_555 1_555
C13 C9 1_555 1_555
H6 C13 1_555 1_555
C14 C9 1_555 1_555
H7 C14 1_555 1_555
C15 N1 1_555 1_555
H8 C15 1_555 1_555
Ho3 O3 1_555 1_555
O9 Ho1 1_555 1_555
O10 Ho1 1_555 1_555
O12 Ho1 1_555 1_555
O13 Ho1 1_555 1_555
O8 Ho3 1_555 1_555
C1 C5 1_555 1_555
C10 C11 1_555 1_555
C12 C13 1_555 1_555
C14 C15 1_555 1_555
Ho1_2 O1_2 1_555 1_555
O2_2 Ho1_2 1_555 1_555
O4_2 C5_2 1_555 1_555
O5_2 Ho1_2 1_555 1_555
O7_2 C1_2 1_555 1_555
C1_2 O5_2 1_555 1_555
C5_2 O2_2 1_555 1_555
Ho3 O4_2 1_555 1_555
O13_2 Ho1_2 1_555 1_555
O7_2 Ho3 1_555 1_555
C1_2 C5_2 1_555 1_555
H2_2 C7_2 1_555 1_555
C11_2 C7_2 1_555 1_555
H4_2 C11_2 1_555 1_555
O6_2 C4_2 1_555 1_555
O8_2 C2_2 1_555 1_555
C2_2 C10_2 1_555 1_555
C3_2 C4_2 1_555 1_555
C6_2 C3_2 1_555 1_555
N1_2 H1 1_555 1_555
C8_2 C6_2 1_555 1_555
H3_2 C8_2 1_555 1_555
C9_2 C6_2 1_555 1_555
C10_2 C8_2 1_555 1_555
C12_2 N1_2 1_555 1_555
H5_2 C12_2 1_555 1_555
C13_2 C9_2 1_555 1_555
H6_2 C13_2 1_555 1_555
C14_2 C9_2 1_555 1_555
C15_2 N1_2 1_555 1_555
O8_2 Ho4 1_555 1_555
C12_2 C13_2 1_555 1_555
C14_2 C15_2 1_555 1_555
Ho3 O1_3 1_555 1_555
O1_3 C4_3 1_555 1_555
O2_3 Ho3 1_555 1_555
O9 C2_3 1_555 1_555
O10_2 C5_3 1_555 1_555
O5_3 Ho3 1_555 1_555
O11 C4_3 1_555 1_555
O12_2 C1_3 1_555 1_555
O13 C2_3 1_555 1_555
C1_3 O5_3 1_555 1_555
C2_3 C10_3 1_555 1_555
C3_3 C4_3 1_555 1_555
C5_3 O2_3 1_555 1_555
C6_3 C3_3 1_555 1_555
C7_3 C3_3 1_555 1_555
H2_3 C7_3 1_555 1_555
C8_3 C6_3 1_555 1_555
H3_3 C8_3 1_555 1_555
C9_3 C6_3 1_555 1_555
C10_3 C8_3 1_555 1_555
C11_3 C7_3 1_555 1_555
H4_3 C11_3 1_555 1_555
C12_3 N1_3 1_555 1_555
H5_3 C12_3 1_555 1_555
C13_3 C9_3 1_555 1_555
H6_3 C13_3 1_555 1_555
C14_3 C9_3 1_555 1_555
H7_3 C14_3 1_555 1_555
C15_3 N1_3 1_555 1_555
H8_3 C15_3 1_555 1_555
C1_3 C5_3 1_555 1_555
C10_3 C11_3 1_555 1_555
C12_3 C13_3 1_555 1_555
C14_3 C15_3 1_555 1_555
O11_2 C4_4 1_555 1_555
O13_2 C2_4 1_555 1_555
C2_4 C10_4 1_555 1_555
C3_4 C4_4 1_555 1_555
C6_4 C3_4 1_555 1_555
N1_4 H1_2 1_555 1_555
C8_4 C6_4 1_555 1_555
H3_4 C8_4 1_555 1_555
C9_4 C6_4 1_555 1_555
C10_4 C8_4 1_555 1_555
C12_4 N1_4 1_555 1_555
H5_4 C12_4 1_555 1_555
C13_4 C9_4 1_555 1_555
H6_4 C13_4 1_555 1_555
C14_4 C9_4 1_555 1_555
C15_4 N1_4 1_555 1_555
C12_4 C13_4 1_555 1_555
C14_4 C15_4 1_555 1_555
H2_4 C7_4 1_555 1_555
C11_4 C7_4 1_555 1_555
H4_4 C11_4 1_555 1_555
Ho4 O1_4 1_555 1_555
O2_4 Ho4 1_555 1_555
O10 C5_4 1_555 1_555
O5_4 Ho4 1_555 1_555
O12 C1_4 1_555 1_555
C1_4 O5_4 1_555 1_555
C5_4 O2_4 1_555 1_555
C1_4 C5_4 1_555 1_555

#END
