
###############################################################################
#
# This file contains modified crystal structure data generated from the
# MOF subset of the Cambridge Structural Database (CSD) v543 
# hosted by the Cambridge Crystallographic Data Centre (CCDC).
#
# This work is licensed under the Creative Commons
# Attribution-NonCommercial-ShareAlike 4.0 International License.
# To view a copy of this license, visit
# http://creativecommons.org/licenses/by-nc-sa/4.0/
# or send a letter to
# Creative Commons, PO Box 1866, Mountain View, CA 94042, USA.
#
# CIF created using the CSD Python API on 29 September 2022
# The structure has been converted into the P1 space group
# The structure has a 3D framework
# The original CSD entry XUDKIT is in the monoclinic crystal system
# The framework has been calculated to contain at least 10.0% void space
# The void calculation uses a probe of radius 1.32A, grid spacing 0.4
# The framework is charged, counterions have been retained in the structure
#
###############################################################################

data_XUDKIT
_chemical_formula_moiety         '(C60 H32 Dy4 N4 O32)n'
_symmetry_cell_setting           triclinic
_symmetry_space_group_name_H-M   'P 1'
_symmetry_Int_Tables_number      1
_space_group_name_Hall           'P 1'
loop_
_symmetry_equiv_pos_site_id
_symmetry_equiv_pos_as_xyz
1 x,y,z
_cell_length_a                   11.3894(11)
_cell_length_b                   13.9859(15)
_cell_length_c                   11.3879(11)
_cell_angle_alpha                90
_cell_angle_beta                 95.636(3)
_cell_angle_gamma                90
_cell_volume                     1805.22
loop_
_atom_site_label
_atom_site_type_symbol
_atom_site_fract_x
_atom_site_fract_y
_atom_site_fract_z
O2 O 0.7256(4) 0.1521(4) 0.0797(4)
C3 C 0.4835(6) 0.1120(5) 0.0917(6)
H1 H 0.5326 0.1088 0.1619
C5 C 0.3665(6) 0.0859(5) 0.0906(6)
H2 H 0.3370 0.0663 0.1600
O3 O 0.6934(4) 0.1965(4) 0.8955(4)
C1 C 0.6561(6) 0.1662(5) 0.9887(6)
O4 O 0.0942(4) 0.1310(3) 0.9489(4)
C2 C 0.1634(6) 0.0674(5) 0.9898(5)
C4 C 0.2928(5) 0.0887(5) 0.9862(6)
C6 C 0.4549(6) 0.1458(5) 0.8852(6)
H3 H 0.4846 0.1665 0.8164
C7 C 0.3376(6) 0.1182(5) 0.8819(6)
N1 N 0.1685(5) 0.0851(5) 0.5381(5)
H4 H 0.1395 0.0772 0.4661
C8 C 0.2144(8) 0.1704(6) 0.5721(7)
H5 H 0.2117 0.2207 0.5185
C9 C 0.5290(6) 0.1430(5) 0.9900(6)
C12 C 0.2682(6) 0.1097(5) 0.7640(6)
C13 C 0.1672(7) 0.0133(6) 0.6131(6)
C14 C 0.2646(7) 0.1838(6) 0.6836(7)
H7 H 0.2967 0.2429 0.7060
C15 C 0.2145(6) 0.0247(5) 0.7269(6)
Dy3 Dy 0.89544(2) 0.16875(2) 0.96409(2)
Dy1 Dy 0.10456(2) 0.83125(2) 0.03591(2)
O5 O 0.1355(4) 0.9925(3) 0.0384(4)
O10 O 0.3066(4) 0.8035(4) 0.1045(4)
O12 O 0.1166(4) 0.8703(3) 0.2421(4)
O13 O 0.0501(4) 0.7018(3) 0.1537(4)
O1 O 0.1042(4) 0.6848(3) 0.9252(4)
O6 O 0.1166(4) 0.6297(3) 0.7421(4)
O7 O 0.0501(4) 0.7982(3) 0.6537(4)
O8 O 0.0264(4) 0.8519(3) 0.8344(4)
C10 C 0.0547(5) 0.7894(5) 0.7625(6)
C11 C 0.0964(6) 0.6932(4) 0.8163(6)
H6 H 0.1342 0.9550 0.5884
H8 H 0.2106 0.9748 0.7802
Dy4 Dy 0.10456(2) 0.66875(2) 0.53591(2)
O9 O 0.2744(4) 0.8479(4) 0.9203(4)
O11 O 0.9058(4) 0.8690(3) 0.0511(4)
O11_2 O 0.0942(4) 0.3690(3) 0.4489(4)
Dy1_2 Dy 0.89544(2) 0.33125(2) 0.46409(2)
O1_2 O 0.8958(4) 0.1848(3) 0.5748(4)
O2_2 O 0.2744(4) 0.6521(4) 0.4203(4)
O3_2 O 0.3066(4) 0.6965(4) 0.6045(4)
C1_2 C 0.3439(6) 0.6662(5) 0.5113(6)
O4_2 O 0.9058(4) 0.6310(3) 0.5511(4)
O5_2 O 0.8645(4) 0.4925(3) 0.4616(4)
C2_2 C 0.8366(6) 0.5674(5) 0.5102(5)
O6_2 O 0.8834(4) 0.1297(3) 0.7579(4)
O7_2 O 0.9499(4) 0.2982(3) 0.8463(4)
O8_2 O 0.9736(4) 0.3519(3) 0.6656(4)
C3_2 C 0.5165(6) 0.6120(5) 0.4083(6)
H1_2 H 0.4674 0.6088 0.3381
C4_2 C 0.7072(5) 0.5887(5) 0.5138(6)
C5_2 C 0.6335(6) 0.5859(5) 0.4094(6)
H2_2 H 0.6630 0.5663 0.3400
C6_2 C 0.5451(6) 0.6458(5) 0.6148(6)
H3_2 H 0.5154 0.6665 0.6836
C7_2 C 0.6624(6) 0.6182(5) 0.6181(6)
N1_2 N 0.8315(5) 0.5851(5) 0.9619(5)
C8_2 C 0.7856(8) 0.6704(6) 0.9279(7)
H5_2 H 0.7883 0.7207 0.9815
C9_2 C 0.4710(6) 0.6430(5) 0.5100(6)
C10_2 C 0.9453(5) 0.2894(5) 0.7375(6)
C11_2 C 0.9036(6) 0.1932(4) 0.6837(6)
C12_2 C 0.7318(6) 0.6097(5) 0.7360(6)
C13_2 C 0.8328(7) 0.5133(6) 0.8869(6)
H6_2 H 0.8658 0.4550 0.9116
C14_2 C 0.7354(7) 0.6838(6) 0.8164(7)
H7_2 H 0.7033 0.7429 0.7940
C15_2 C 0.7855(6) 0.5247(5) 0.7731(6)
H8_2 H 0.7894 0.4748 0.7198
O9_2 O 0.7256(4) 0.3479(4) 0.5797(4)
O10_2 O 0.6934(4) 0.3035(4) 0.3955(4)
O12_2 O 0.8834(4) 0.3703(3) 0.2579(4)
O13_2 O 0.9499(4) 0.2018(3) 0.3463(4)
O1_3 O 0.8958(4) 0.3152(3) 0.0748(4)
O8_3 O 0.9736(4) 0.1481(3) 0.1656(4)
C10_3 C 0.9453(5) 0.2106(5) 0.2375(6)
C11_3 C 0.9036(6) 0.3068(4) 0.1837(6)
H6_3 H 0.8658 0.0450 0.4116
H8_3 H 0.7894 0.0252 0.2198
O5_3 O 0.8645(4) 0.0075(3) 0.9616(4)
C1_3 C 0.3439(6) 0.8338(5) 0.0113(6)
C2_3 C 0.8366(6) 0.9326(5) 0.0102(5)
C4_3 C 0.7072(5) 0.9113(5) 0.0138(6)
C6_3 C 0.5451(6) 0.8542(5) 0.1148(6)
H3_3 H 0.5154 0.8335 0.1836
C7_3 C 0.6624(6) 0.8818(5) 0.1181(6)
N1_3 N 0.8315(5) 0.9149(5) 0.4619(5)
H4_2 H 0.8605 0.9228 0.5339
C8_3 C 0.7856(8) 0.8296(6) 0.4279(7)
H5_3 H 0.7883 0.7793 0.4815
C9_3 C 0.4710(6) 0.8570(5) 0.0100(6)
C12_3 C 0.7318(6) 0.8903(5) 0.2360(6)
C13_3 C 0.8328(7) 0.9867(6) 0.3869(6)
C14_3 C 0.7354(7) 0.8162(6) 0.3164(7)
H7_3 H 0.7033 0.7571 0.2940
C15_3 C 0.7855(6) 0.9753(5) 0.2731(6)
C3_3 C 0.5165(6) 0.8880(5) 0.9083(6)
H1_3 H 0.4674 0.8912 0.8381
C5_3 C 0.6335(6) 0.9141(5) 0.9094(6)
H2_3 H 0.6630 0.9337 0.8400
O1_4 O 0.1042(4) 0.8152(3) 0.4252(4)
C1_4 C 0.6561(6) 0.3338(5) 0.4887(6)
O5_4 O 0.1355(4) 0.5075(3) 0.5384(4)
C2_4 C 0.1634(6) 0.4326(5) 0.4898(5)
O8_4 O 0.0264(4) 0.6481(3) 0.3344(4)
C3_4 C 0.4835(6) 0.3880(5) 0.5917(6)
H1_4 H 0.5326 0.3912 0.6619
C4_4 C 0.2928(5) 0.4113(5) 0.4862(6)
C5_4 C 0.3665(6) 0.4141(5) 0.5906(6)
H2_4 H 0.3370 0.4337 0.6600
C6_4 C 0.4549(6) 0.3542(5) 0.3852(6)
H3_4 H 0.4846 0.3335 0.3164
C7_4 C 0.3376(6) 0.3818(5) 0.3819(6)
N1_4 N 0.1685(5) 0.4149(5) 0.0381(5)
C8_4 C 0.2144(8) 0.3296(6) 0.0721(7)
H5_4 H 0.2117 0.2793 0.0185
C9_4 C 0.5290(6) 0.3570(5) 0.4900(6)
C10_4 C 0.0547(5) 0.7106(5) 0.2625(6)
C11_4 C 0.0964(6) 0.8068(4) 0.3163(6)
C12_4 C 0.2682(6) 0.3903(5) 0.2640(6)
C13_4 C 0.1672(7) 0.4867(6) 0.1131(6)
H6_4 H 0.1342 0.5450 0.0884
C14_4 C 0.2646(7) 0.3162(6) 0.1836(7)
H7_4 H 0.2967 0.2571 0.2060
C15_4 C 0.2145(6) 0.4753(5) 0.2269(6)
H8_4 H 0.2106 0.5252 0.2802
H4_3 H 0.8605 0.5772 0.0339
H4_4 H 0.1395 0.4228 0.9661
loop_
_geom_bond_atom_site_label_1
_geom_bond_atom_site_label_2
_geom_bond_site_symmetry_1
_geom_bond_site_symmetry_2
C3 H1 1_555 1_555
C5 C3 1_555 1_555
H2 C5 1_555 1_555
O3 C1 1_555 1_555
C1 C9 1_555 1_555
O4 C2 1_555 1_555
C4 C2 1_555 1_555
C6 H3 1_555 1_555
C7 C4 1_555 1_555
N1 H4 1_555 1_555
C8 N1 1_555 1_555
H5 C8 1_555 1_555
C12 C7 1_555 1_555
C13 N1 1_555 1_555
C14 C8 1_555 1_555
H7 C14 1_555 1_555
C15 C12 1_555 1_555
O3 Dy3 1_555 1_555
C6 C7 1_555 1_555
C6 C9 1_555 1_555
C12 C14 1_555 1_555
C13 C15 1_555 1_555
O5 Dy1 1_555 1_555
O10 Dy1 1_555 1_555
O12 Dy1 1_555 1_555
O13 Dy1 1_555 1_555
O1 C11 1_555 1_555
O6 C11 1_555 1_555
O7 C10 1_555 1_555
C10 O8 1_555 1_555
C11 C10 1_555 1_555
Dy4 O6 1_555 1_555
O7 Dy4 1_555 1_555
Dy1_2 O1_2 1_555 1_555
O1_2 C11_2 1_555 1_555
O2_2 C1_2 1_555 1_555
O3_2 C1_2 1_555 1_555
C1_2 C9_2 1_555 1_555
O4_2 C2_2 1_555 1_555
O5_2 Dy1_2 1_555 1_555
C2_2 O5_2 1_555 1_555
O6_2 C11_2 1_555 1_555
O7_2 C10_2 1_555 1_555
O8_2 Dy1_2 1_555 1_555
C3_2 H1_2 1_555 1_555
C4_2 C2_2 1_555 1_555
C5_2 C3_2 1_555 1_555
H2_2 C5_2 1_555 1_555
C6_2 H3_2 1_555 1_555
C7_2 C4_2 1_555 1_555
C8_2 N1_2 1_555 1_555
H5_2 C8_2 1_555 1_555
C9_2 C3_2 1_555 1_555
C10_2 O8_2 1_555 1_555
C11_2 C10_2 1_555 1_555
C12_2 C7_2 1_555 1_555
C13_2 N1_2 1_555 1_555
H6_2 C13_2 1_555 1_555
C14_2 C8_2 1_555 1_555
H7_2 C14_2 1_555 1_555
C15_2 C12_2 1_555 1_555
H8_2 C15_2 1_555 1_555
Dy4 O2_2 1_555 1_555
Dy3 O6_2 1_555 1_555
O9_2 Dy1_2 1_555 1_555
O10_2 Dy1_2 1_555 1_555
O12_2 Dy1_2 1_555 1_555
O13_2 Dy1_2 1_555 1_555
O3_2 Dy4 1_555 1_555
O7_2 Dy3 1_555 1_555
C4_2 C5_2 1_555 1_555
C6_2 C7_2 1_555 1_555
C6_2 C9_2 1_555 1_555
C12_2 C14_2 1_555 1_555
C13_2 C15_2 1_555 1_555
O1_3 C11_3 1_555 1_555
O12_2 C11_3 1_555 1_555
O13_2 C10_3 1_555 1_555
C10_3 O8_3 1_555 1_555
C11_3 C10_3 1_555 1_555
O5_3 Dy3 1_555 1_555
O10 C1_3 1_555 1_555
C1_3 C9_3 1_555 1_555
O11 C2_3 1_555 1_555
C4_3 C2_3 1_555 1_555
C6_3 H3_3 1_555 1_555
C7_3 C4_3 1_555 1_555
N1_3 H4_2 1_555 1_555
C8_3 N1_3 1_555 1_555
H5_3 C8_3 1_555 1_555
C12_3 C7_3 1_555 1_555
C13_3 N1_3 1_555 1_555
C14_3 C8_3 1_555 1_555
H7_3 C14_3 1_555 1_555
C15_3 C12_3 1_555 1_555
C6_3 C7_3 1_555 1_555
C6_3 C9_3 1_555 1_555
C12_3 C14_3 1_555 1_555
C13_3 C15_3 1_555 1_555
C3_3 H1_3 1_555 1_555
C5_3 C3_3 1_555 1_555
H2_3 C5_3 1_555 1_555
Dy4 O1_4 1_555 1_555
O1_4 C11_4 1_555 1_555
O9_2 C1_4 1_555 1_555
O10_2 C1_4 1_555 1_555
C1_4 C9_4 1_555 1_555
O11_2 C2_4 1_555 1_555
O5_4 Dy4 1_555 1_555
C2_4 O5_4 1_555 1_555
O12 C11_4 1_555 1_555
O13 C10_4 1_555 1_555
O8_4 Dy4 1_555 1_555
C3_4 H1_4 1_555 1_555
C4_4 C2_4 1_555 1_555
C5_4 C3_4 1_555 1_555
H2_4 C5_4 1_555 1_555
C6_4 H3_4 1_555 1_555
C7_4 C4_4 1_555 1_555
C8_4 N1_4 1_555 1_555
H5_4 C8_4 1_555 1_555
C9_4 C3_4 1_555 1_555
C10_4 O8_4 1_555 1_555
C11_4 C10_4 1_555 1_555
C12_4 C7_4 1_555 1_555
C13_4 N1_4 1_555 1_555
H6_4 C13_4 1_555 1_555
C14_4 C8_4 1_555 1_555
H7_4 C14_4 1_555 1_555
C15_4 C12_4 1_555 1_555
H8_4 C15_4 1_555 1_555
C4_4 C5_4 1_555 1_555
C6_4 C7_4 1_555 1_555
C6_4 C9_4 1_555 1_555
C12_4 C14_4 1_555 1_555
C13_4 C15_4 1_555 1_555

#END
