
###############################################################################
#
# This file contains modified crystal structure data generated from the
# MOF subset of the Cambridge Structural Database (CSD) v543 
# hosted by the Cambridge Crystallographic Data Centre (CCDC).
#
# This work is licensed under the Creative Commons
# Attribution-NonCommercial-ShareAlike 4.0 International License.
# To view a copy of this license, visit
# http://creativecommons.org/licenses/by-nc-sa/4.0/
# or send a letter to
# Creative Commons, PO Box 1866, Mountain View, CA 94042, USA.
#
# CIF created using the CSD Python API on 29 September 2022
# The structure has been converted into the P1 space group
# The structure has a 3D framework
# The original CSD entry XUDNAN is in the triclinic crystal system
# The framework has been calculated to contain at least 10.0% void space
# The void calculation uses a probe of radius 1.32A, grid spacing 0.4
#
###############################################################################

data_XUDNAN
_chemical_formula_moiety         '(C114 H112 N4 O34 Tb4)n'
_symmetry_cell_setting           triclinic
_symmetry_space_group_name_H-M   'P 1'
_symmetry_Int_Tables_number      1
_space_group_name_Hall           'P 1'
loop_
_symmetry_equiv_pos_site_id
_symmetry_equiv_pos_as_xyz
1 x,y,z
_cell_length_a                   13.0022(3)
_cell_length_b                   13.3793(3)
_cell_length_c                   25.8929(4)
_cell_angle_alpha                84.060(2)
_cell_angle_beta                 88.104(2)
_cell_angle_gamma                66.361(2)
_cell_volume                     4104.05
loop_
_atom_site_label
_atom_site_type_symbol
_atom_site_fract_x
_atom_site_fract_y
_atom_site_fract_z
C53 C 0.0164(10) 0.1107(10) 0.5869(4)
H45 H 0.0718 0.1346 0.5979
H46 H 0.0356 0.0357 0.6003
C54 C 0.1061(11) 0.0869(13) 0.5026(6)
H47 H 0.0869 0.1096 0.4666
H48 H 0.1408 0.0084 0.5079
H49 H 0.1575 0.1167 0.5129
N1 N 0.0091(6) 0.1217(7) 0.5318(3)
O20 O 0.0242(4) 0.5712(4) 0.06996(18)
Tb6 Tb 0.15788(2) 0.37445(2) 0.957010(10)
Tb1 Tb 0.62516(2) 0.30672(2) 0.505823(10)
C8 C 0.7807(5) 0.0088(5) 0.2551(2)
C9 C 0.7056(7) 0.1091(5) 0.2197(2)
H4 H 0.7321 0.1019 0.1847
H5 H 0.7079 0.1741 0.2312
H6 H 0.6297 0.1143 0.2210
C10 C 0.9021(6) 0.0005(6) 0.2537(3)
H8 H 0.9043 0.0651 0.2658
C11 C 0.7376(5) 0.0108(5) 0.3107(2)
C15 C 0.7221(5) 0.0885(5) 0.3450(2)
H12 H 0.7385 0.1494 0.3353
C16 C 0.6813(5) 0.0735(5) 0.3946(2)
C17 C 0.6669(5) 0.1543(5) 0.4331(2)
C18 C 0.5761(6) 0.2008(5) 0.6224(2)
C19 C 0.6384(5) 0.1383(5) 0.6715(2)
C20 C 0.5791(5) 0.1304(5) 0.7163(2)
H13 H 0.5011 0.1643 0.7163
C21 C 0.7555(5) 0.0869(5) 0.6715(2)
H14 H 0.7942 0.0919 0.6411
C22 C 0.8150(5) 0.0285(5) 0.7160(2)
C23 C 0.7550(5) 0.0214(5) 0.7611(2)
C24 C 0.6376(5) 0.0712(5) 0.7610(2)
C25 C 0.5898(5) 0.0469(5) 0.8131(2)
H17 H 0.4520 0.0300 0.7849
C27 C 0.5259(6) 0.1514(6) 0.8392(3)
H19 H 0.4987 0.1329 0.8722
H20 H 0.4636 0.1996 0.8176
H21 H 0.5750 0.1873 0.8444
O3 O 0.7179(4) 0.2173(4) 0.42703(17)
O4 O 0.6039(4) 0.1562(4) 0.47214(16)
O5 O 0.6327(4) 0.1927(4) 0.58138(16)
O6 O 0.4718(4) 0.2563(4) 0.62540(16)
O13 O 0.4278(4) 0.3494(3) 0.53101(16)
H37 H 0.4152 0.3408 0.5632
H38 H 0.3755 0.3437 0.5144
O14 O 0.7136(4) 0.4286(4) 0.47265(17)
H39 H 0.6817 0.4950 0.4600
H40 H 0.7840 0.4119 0.4729
C52 C 0.9056(8) 0.1757(8) 0.5099(4)
H43 H 0.9037 0.1835 0.4738
H44 H 0.9441 0.1558 0.5996
O16 O 0.8172(4) 0.2144(4) 0.5302(2)
O21 O 0.5113(4) 0.4165(4) 0.43909(16)
O22 O 0.6117(4) 0.4118(4) 0.57347(17)
Tb2 Tb 0.84212(2) 0.62555(2) 0.042990(10)
O15 O 0.8939(4) 0.4325(4) 0.06478(18)
H41 H 0.9637 0.3926 0.0635
H42 H 0.8726 0.4244 0.0957
C55 C 0.6116(12) 0.5976(11) 0.0853(5)
H50 H 0.6219 0.6111 0.1188
C56 C 0.4600(12) 0.6058(8) 0.0405(4)
H51 H 0.4502 0.6812 0.0354
H52 H 0.3901 0.6018 0.0509
H53 H 0.4843 0.5726 0.0087
C57 C 0.4804(13) 0.5271(13) 0.1211(6)
H54 H 0.5268 0.5003 0.1517
H55 H 0.4549 0.4727 0.1125
H56 H 0.4169 0.5930 0.1273
N2 N 0.5430(11) 0.5491(12) 0.0799(5)
O17 O 0.6623(5) 0.6265(6) 0.0515(2)
O18 O 0.8195(4) 0.7687(4) 0.09730(16)
O19 O 0.8123(4) 0.6170(4) 0.13571(16)
C1 C 0.8094(5) 0.7119(5) 0.1381(2)
C2 C 0.7915(5) 0.7590(5) 0.1892(2)
C3 C 0.8012(5) 0.8584(5) 0.1933(2)
H1 H 0.8234 0.8938 0.1651
C4 C 0.7610(5) 0.7040(5) 0.2320(2)
H2 H 0.7583 0.6364 0.2289
C5 C 0.7348(5) 0.7495(5) 0.2791(2)
H3 H 0.7127 0.7142 0.3073
C6 C 0.7423(5) 0.8490(5) 0.2827(2)
C7 C 0.7772(5) 0.9024(5) 0.2404(2)
H7 H 0.9484 0.9371 0.2757
H9 H 0.9294 0.9940 0.2187
C12 C 0.7158(5) 0.9183(5) 0.3258(2)
C13 C 0.6739(5) 0.9028(5) 0.3751(2)
H10 H 0.6580 0.8416 0.3848
C14 C 0.6565(5) 0.9827(5) 0.4093(2)
H11 H 0.6281 0.9748 0.4422
H15 H 0.8930 0.9949 0.7159
C26 C 0.5155(6) 0.9848(6) 0.8066(3)
H16 H 0.5579 0.9187 0.7908
H18 H 0.4899 0.9666 0.8400
C28 C 0.6967(5) 0.9747(5) 0.8428(2)
C29 C 0.7930(5) 0.9639(5) 0.8133(2)
C30 C 0.9001(5) 0.9021(6) 0.8338(2)
H22 H 0.9636 0.8967 0.8147
C31 C 0.7083(5) 0.9199(5) 0.8920(2)
H23 H 0.6449 0.9266 0.9114
C32 C 0.9100(5) 0.8490(6) 0.8834(2)
H24 H 0.9811 0.8086 0.8978
C33 C 0.8150(5) 0.8547(5) 0.9124(2)
C34 C 0.8254(5) 0.7877(5) 0.9631(2)
C35 C 0.8783(5) 0.5026(5) 0.9287(2)
C36 C 0.8091(5) 0.5194(5) 0.8805(2)
C37 C 0.8421(5) 0.4402(5) 0.8451(2)
H25 H 0.9053 0.3753 0.8516
C38 C 0.7155(6) 0.6154(5) 0.8707(3)
H26 H 0.6934 0.6665 0.8950
C39 C 0.6534(7) 0.6373(6) 0.8252(3)
H27 H 0.5913 0.7031 0.8185
C40 C 0.6858(5) 0.5591(5) 0.7898(2)
C41 C 0.7786(5) 0.4602(5) 0.7997(2)
C42 C 0.7936(6) 0.3864(6) 0.7569(3)
C43 C 0.9090(8) 0.3419(9) 0.7340(4)
H28 H 0.9223 0.4039 0.7185
H29 H 0.9139 0.2941 0.7080
H30 H 0.9642 0.3029 0.7607
C44 C 0.7643(12) 0.2875(7) 0.7781(4)
H31 H 0.8134 0.2467 0.8067
H32 H 0.7738 0.2407 0.7510
H33 H 0.6879 0.3141 0.7895
C45 C 0.7031(5) 0.4622(5) 0.7182(2)
C46 C 0.6399(5) 0.5611(5) 0.7386(2)
C47 C 0.5495(6) 0.6418(5) 0.7104(3)
H34 H 0.5057 0.7069 0.7242
C48 C 0.5268(6) 0.6224(5) 0.6614(2)
H35 H 0.4677 0.6760 0.6420
C49 C 0.6781(6) 0.4439(5) 0.6692(2)
H36 H 0.7201 0.3779 0.6557
C50 C 0.5902(5) 0.5247(5) 0.6406(2)
C51 C 0.5615(5) 0.5050(5) 0.5878(2)
O7 O 0.9227(4) 0.7244(4) 0.98093(16)
O8 O 0.7385(4) 0.7912(4) 0.98691(16)
O9 O 0.8367(5) 0.5631(4) 0.96345(17)
O10 O 0.9758(4) 0.4288(4) 0.93004(18)
O11 O 0.4887(4) 0.5835(4) 0.56091(16)
Tb4 Tb 0.37484(2) 0.69328(2) 0.494177(10)
C1_2 C 0.1906(5) 0.2881(5) 0.8619(2)
C2_2 C 0.2085(5) 0.2410(5) 0.8108(2)
C3_2 C 0.1988(5) 0.1416(5) 0.8067(2)
H1_2 H 0.1766 0.1062 0.8349
C4_2 C 0.2390(5) 0.2960(5) 0.7680(2)
H2_2 H 0.2417 0.3636 0.7711
C5_2 C 0.2652(5) 0.2505(5) 0.7209(2)
H3_2 H 0.2873 0.2858 0.6927
C6_2 C 0.2577(5) 0.1510(5) 0.7173(2)
C7_2 C 0.2228(5) 0.0976(5) 0.7596(2)
H7_2 H 0.0516 0.0629 0.7243
H9_2 H 0.0706 0.0060 0.7813
C12_2 C 0.2842(5) 0.0817(5) 0.6742(2)
C13_2 C 0.3261(5) 0.0972(5) 0.6249(2)
H10_2 H 0.3420 0.1584 0.6152
C14_2 C 0.3435(5) 0.0173(5) 0.5907(2)
H11_2 H 0.3719 0.0252 0.5578
H15_2 H 0.1070 0.0051 0.2841
C26_2 C 0.4845(6) 0.0152(6) 0.1934(3)
H16_2 H 0.4421 0.0813 0.2092
H18_2 H 0.5101 0.0334 0.1600
C28_2 C 0.3033(5) 0.0253(5) 0.1572(2)
C29_2 C 0.2070(5) 0.0361(5) 0.1867(2)
C30_2 C 0.0999(5) 0.0979(6) 0.1662(2)
H22_2 H 0.0364 0.1033 0.1853
C31_2 C 0.2917(5) 0.0801(5) 0.1080(2)
H23_2 H 0.3551 0.0734 0.0886
C32_2 C 0.0900(5) 0.1510(6) 0.1166(2)
H24_2 H 0.0189 0.1914 0.1022
C33_2 C 0.1850(5) 0.1453(5) 0.0876(2)
C34_2 C 0.1746(5) 0.2123(5) 0.0369(2)
C35_2 C 0.1217(5) 0.4974(5) 0.0713(2)
C36_2 C 0.1909(5) 0.4806(5) 0.1195(2)
C37_2 C 0.1579(5) 0.5598(5) 0.1549(2)
H25_2 H 0.0947 0.6247 0.1484
C38_2 C 0.2845(6) 0.3846(5) 0.1293(3)
H26_2 H 0.3066 0.3335 0.1050
C39_2 C 0.3466(7) 0.3627(6) 0.1748(3)
H27_2 H 0.4087 0.2969 0.1815
C40_2 C 0.3142(5) 0.4409(5) 0.2102(2)
C41_2 C 0.2214(5) 0.5398(5) 0.2003(2)
C42_2 C 0.2064(6) 0.6136(6) 0.2431(3)
C43_2 C 0.0910(8) 0.6581(9) 0.2660(4)
H28_2 H 0.0777 0.5961 0.2815
H29_2 H 0.0861 0.7059 0.2920
H30_2 H 0.0358 0.6971 0.2393
C44_2 C 0.2357(12) 0.7125(7) 0.2219(4)
H31_2 H 0.1866 0.7533 0.1933
H32_2 H 0.2262 0.7593 0.2490
H33_2 H 0.3121 0.6859 0.2105
C45_2 C 0.2969(5) 0.5378(5) 0.2818(2)
C46_2 C 0.3601(5) 0.4389(5) 0.2614(2)
C47_2 C 0.4505(6) 0.3582(5) 0.2896(3)
H34_2 H 0.4943 0.2931 0.2758
C48_2 C 0.4732(6) 0.3776(5) 0.3386(2)
H35_2 H 0.5323 0.3240 0.3580
C49_2 C 0.3219(6) 0.5561(5) 0.3308(2)
H36_2 H 0.2799 0.6221 0.3443
C50_2 C 0.4098(5) 0.4753(5) 0.3594(2)
C51_2 C 0.4385(5) 0.4950(5) 0.4122(2)
O1 O 0.1805(4) 0.2313(4) 0.90270(16)
O2 O 0.1877(4) 0.3830(4) 0.86429(16)
O7_2 O 0.0773(4) 0.2756(4) 0.01907(16)
O8_2 O 0.2615(4) 0.2088(4) 0.01309(16)
O9_2 O 0.1633(5) 0.4369(4) 0.03655(17)
O12 O 0.3883(4) 0.5882(4) 0.42653(17)
O15_2 O 0.1061(4) 0.5675(4) 0.93522(18)
H41_2 H 0.0363 0.6074 0.9365
H42_2 H 0.1274 0.5756 0.9043
C55_2 C 0.3884(12) 0.4024(11) 0.9147(5)
H50_2 H 0.3781 0.3889 0.8812
C56_2 C 0.5400(12) 0.3942(8) 0.9595(4)
H51_2 H 0.5498 0.3188 0.9646
H52_2 H 0.6099 0.3982 0.9491
H53_2 H 0.5157 0.4274 0.9913
C57_2 C 0.5196(13) 0.4729(13) 0.8789(6)
H54_2 H 0.4732 0.4997 0.8483
H55_2 H 0.5451 0.5273 0.8875
H56_2 H 0.5831 0.4070 0.8727
N2_2 N 0.4570(11) 0.4509(12) 0.9201(5)
O17_2 O 0.3377(5) 0.3735(6) 0.9485(2)
C8_2 C 0.2193(5) 0.9912(5) 0.7449(2)
C9_2 C 0.2944(7) 0.8909(5) 0.7803(2)
H4_2 H 0.2679 0.8981 0.8153
H5_2 H 0.2921 0.8259 0.7688
H6_2 H 0.3703 0.8857 0.7790
C10_2 C 0.0979(6) 0.9995(6) 0.7463(3)
H8_2 H 0.0957 0.9349 0.7342
C11_2 C 0.2624(5) 0.9892(5) 0.6893(2)
C15_2 C 0.2779(5) 0.9115(5) 0.6550(2)
H12_2 H 0.2615 0.8506 0.6647
C16_2 C 0.3187(5) 0.9265(5) 0.6054(2)
C17_2 C 0.3331(5) 0.8457(5) 0.5669(2)
C18_2 C 0.4239(6) 0.7992(5) 0.3776(2)
C19_2 C 0.3616(5) 0.8617(5) 0.3285(2)
C20_2 C 0.4209(5) 0.8696(5) 0.2837(2)
H13_2 H 0.4989 0.8357 0.2837
C21_2 C 0.2445(5) 0.9131(5) 0.3285(2)
H14_2 H 0.2058 0.9081 0.3589
C22_2 C 0.1850(5) 0.9715(5) 0.2840(2)
C23_2 C 0.2450(5) 0.9786(5) 0.2389(2)
C24_2 C 0.3624(5) 0.9288(5) 0.2390(2)
C25_2 C 0.4102(5) 0.9531(5) 0.1869(2)
H17_2 H 0.5480 0.9700 0.2151
C27_2 C 0.4741(6) 0.8486(6) 0.1608(3)
H19_2 H 0.5013 0.8671 0.1278
H20_2 H 0.5364 0.8004 0.1824
H21_2 H 0.4250 0.8127 0.1556
O3_2 O 0.2821(4) 0.7827(4) 0.57297(17)
O4_2 O 0.3961(4) 0.8438(4) 0.52786(16)
O5_2 O 0.3673(4) 0.8073(4) 0.41862(16)
O6_2 O 0.5282(4) 0.7437(4) 0.37460(16)
O13_2 O 0.5722(4) 0.6506(3) 0.46899(16)
H37_2 H 0.5848 0.6592 0.4368
H38_2 H 0.6245 0.6563 0.4856
O14_2 O 0.2864(4) 0.5714(4) 0.52735(17)
H39_2 H 0.3183 0.5050 0.5400
H40_2 H 0.2160 0.5881 0.5271
C52_2 C 0.0944(8) 0.8243(8) 0.4901(4)
H43_2 H 0.0963 0.8165 0.5262
H44_2 H 0.0559 0.8442 0.4004
O16_2 O 0.1828(4) 0.7856(4) 0.4698(2)
C53_2 C 0.9836(10) 0.8893(10) 0.4131(4)
H45_2 H 0.9282 0.8654 0.4021
H46_2 H 0.9644 0.9643 0.3997
C54_2 C 0.8939(11) 0.9131(13) 0.4974(6)
H47_2 H 0.9131 0.8904 0.5334
H48_2 H 0.8592 0.9916 0.4921
H49_2 H 0.8425 0.8833 0.4871
N1_2 N 0.9909(6) 0.8783(7) 0.4682(3)
loop_
_geom_bond_atom_site_label_1
_geom_bond_atom_site_label_2
_geom_bond_site_symmetry_1
_geom_bond_site_symmetry_2
H45 C53 1_555 1_555
H46 C53 1_555 1_555
C54 H47 1_555 1_555
H48 C54 1_555 1_555
H49 C54 1_555 1_555
C53 N1 1_555 1_555
C54 N1 1_555 1_555
Tb1 O3 1_555 1_555
C9 C8 1_555 1_555
H4 C9 1_555 1_555
H5 C9 1_555 1_555
H6 C9 1_555 1_555
C10 C8 1_555 1_555
H8 C10 1_555 1_555
C11 C8 1_555 1_555
C15 C11 1_555 1_555
H12 C15 1_555 1_555
C17 C16 1_555 1_555
C18 C19 1_555 1_555
C19 C20 1_555 1_555
C20 H13 1_555 1_555
C21 C19 1_555 1_555
H14 C21 1_555 1_555
C22 C21 1_555 1_555
C23 C22 1_555 1_555
C24 C20 1_555 1_555
C25 C24 1_555 1_555
C27 C25 1_555 1_555
H19 C27 1_555 1_555
H20 C27 1_555 1_555
H21 C27 1_555 1_555
O3 C17 1_555 1_555
O4 Tb1 1_555 1_555
O5 Tb1 1_555 1_555
O6 C18 1_555 1_555
O13 Tb1 1_555 1_555
H37 O13 1_555 1_555
H38 O13 1_555 1_555
O14 Tb1 1_555 1_555
H39 O14 1_555 1_555
H40 O14 1_555 1_555
C52 H43 1_555 1_555
O16 Tb1 1_555 1_555
O21 Tb1 1_555 1_555
O22 Tb1 1_555 1_555
C15 C16 1_555 1_555
C17 O4 1_555 1_555
C18 O5 1_555 1_555
C23 C24 1_555 1_555
C52 O16 1_555 1_555
O15 Tb2 1_555 1_555
H41 O15 1_555 1_555
H42 O15 1_555 1_555
C55 H50 1_555 1_555
C56 H51 1_555 1_555
H52 C56 1_555 1_555
H53 C56 1_555 1_555
C57 H54 1_555 1_555
H55 C57 1_555 1_555
H56 C57 1_555 1_555
N2 C55 1_555 1_555
O17 Tb2 1_555 1_555
O18 Tb2 1_555 1_555
O19 Tb2 1_555 1_555
C55 O17 1_555 1_555
C56 N2 1_555 1_555
C57 N2 1_555 1_555
C1 C2 1_555 1_555
C2 C3 1_555 1_555
C3 H1 1_555 1_555
C4 C2 1_555 1_555
H2 C4 1_555 1_555
C5 C4 1_555 1_555
H3 C5 1_555 1_555
C6 C5 1_555 1_555
C7 C3 1_555 1_555
C12 C6 1_555 1_555
C13 C12 1_555 1_555
H10 C13 1_555 1_555
C14 C13 1_555 1_555
H11 C14 1_555 1_555
H16 C26 1_555 1_555
H18 C26 1_555 1_555
C30 C29 1_555 1_555
H22 C30 1_555 1_555
C31 C28 1_555 1_555
H23 C31 1_555 1_555
C32 C30 1_555 1_555
H24 C32 1_555 1_555
C33 C31 1_555 1_555
C34 C33 1_555 1_555
C35 C36 1_555 1_555
C36 C37 1_555 1_555
C37 H25 1_555 1_555
C38 C36 1_555 1_555
H26 C38 1_555 1_555
C39 C38 1_555 1_555
H27 C39 1_555 1_555
C40 C39 1_555 1_555
C41 C37 1_555 1_555
C42 C41 1_555 1_555
C43 C42 1_555 1_555
H28 C43 1_555 1_555
H29 C43 1_555 1_555
H30 C43 1_555 1_555
C44 C42 1_555 1_555
H31 C44 1_555 1_555
H32 C44 1_555 1_555
H33 C44 1_555 1_555
C45 C42 1_555 1_555
C46 C40 1_555 1_555
C47 C46 1_555 1_555
H34 C47 1_555 1_555
C48 C47 1_555 1_555
H35 C48 1_555 1_555
C49 C45 1_555 1_555
H36 C49 1_555 1_555
C50 C48 1_555 1_555
C51 C50 1_555 1_555
O18 C1 1_555 1_555
O19 C1 1_555 1_555
O7 C34 1_555 1_555
O10 C35 1_555 1_555
O11 C51 1_555 1_555
O22 C51 1_555 1_555
Tb4 O11 1_555 1_555
C6 C7 1_555 1_555
C28 C29 1_555 1_555
C32 C33 1_555 1_555
C34 O8 1_555 1_555
C35 O9 1_555 1_555
C40 C41 1_555 1_555
C45 C46 1_555 1_555
C49 C50 1_555 1_555
C1_2 C2_2 1_555 1_555
C2_2 C3_2 1_555 1_555
C3_2 H1_2 1_555 1_555
C4_2 C2_2 1_555 1_555
H2_2 C4_2 1_555 1_555
C5_2 C4_2 1_555 1_555
H3_2 C5_2 1_555 1_555
C6_2 C5_2 1_555 1_555
C7_2 C3_2 1_555 1_555
C12_2 C6_2 1_555 1_555
C13_2 C12_2 1_555 1_555
H10_2 C13_2 1_555 1_555
C14_2 C13_2 1_555 1_555
H11_2 C14_2 1_555 1_555
H16_2 C26_2 1_555 1_555
H18_2 C26_2 1_555 1_555
C30_2 C29_2 1_555 1_555
H22_2 C30_2 1_555 1_555
C31_2 C28_2 1_555 1_555
H23_2 C31_2 1_555 1_555
C32_2 C30_2 1_555 1_555
H24_2 C32_2 1_555 1_555
C33_2 C31_2 1_555 1_555
C34_2 C33_2 1_555 1_555
C35_2 C36_2 1_555 1_555
C36_2 C37_2 1_555 1_555
C37_2 H25_2 1_555 1_555
C38_2 C36_2 1_555 1_555
H26_2 C38_2 1_555 1_555
C39_2 C38_2 1_555 1_555
H27_2 C39_2 1_555 1_555
C40_2 C39_2 1_555 1_555
C41_2 C37_2 1_555 1_555
C42_2 C41_2 1_555 1_555
C43_2 C42_2 1_555 1_555
H28_2 C43_2 1_555 1_555
H29_2 C43_2 1_555 1_555
H30_2 C43_2 1_555 1_555
C44_2 C42_2 1_555 1_555
H31_2 C44_2 1_555 1_555
H32_2 C44_2 1_555 1_555
H33_2 C44_2 1_555 1_555
C45_2 C42_2 1_555 1_555
C46_2 C40_2 1_555 1_555
C47_2 C46_2 1_555 1_555
H34_2 C47_2 1_555 1_555
C48_2 C47_2 1_555 1_555
H35_2 C48_2 1_555 1_555
C49_2 C45_2 1_555 1_555
H36_2 C49_2 1_555 1_555
C50_2 C48_2 1_555 1_555
C51_2 C50_2 1_555 1_555
O1 C1_2 1_555 1_555
O2 C1_2 1_555 1_555
O7_2 C34_2 1_555 1_555
O20 C35_2 1_555 1_555
O21 C51_2 1_555 1_555
O12 C51_2 1_555 1_555
Tb4 O12 1_555 1_555
Tb6 O1 1_555 1_555
C6_2 C7_2 1_555 1_555
C28_2 C29_2 1_555 1_555
C32_2 C33_2 1_555 1_555
C34_2 O8_2 1_555 1_555
C35_2 O9_2 1_555 1_555
C40_2 C41_2 1_555 1_555
C45_2 C46_2 1_555 1_555
C49_2 C50_2 1_555 1_555
O2 Tb6 1_555 1_555
O15_2 Tb6 1_555 1_555
H41_2 O15_2 1_555 1_555
H42_2 O15_2 1_555 1_555
C55_2 H50_2 1_555 1_555
C56_2 H51_2 1_555 1_555
H52_2 C56_2 1_555 1_555
H53_2 C56_2 1_555 1_555
C57_2 H54_2 1_555 1_555
H55_2 C57_2 1_555 1_555
H56_2 C57_2 1_555 1_555
N2_2 C55_2 1_555 1_555
O17_2 Tb6 1_555 1_555
C55_2 O17_2 1_555 1_555
C56_2 N2_2 1_555 1_555
C57_2 N2_2 1_555 1_555
Tb4 O3_2 1_555 1_555
C9_2 C8_2 1_555 1_555
H4_2 C9_2 1_555 1_555
H5_2 C9_2 1_555 1_555
H6_2 C9_2 1_555 1_555
C10_2 C8_2 1_555 1_555
H8_2 C10_2 1_555 1_555
C11_2 C8_2 1_555 1_555
C15_2 C11_2 1_555 1_555
H12_2 C15_2 1_555 1_555
C17_2 C16_2 1_555 1_555
C18_2 C19_2 1_555 1_555
C19_2 C20_2 1_555 1_555
C20_2 H13_2 1_555 1_555
C21_2 C19_2 1_555 1_555
H14_2 C21_2 1_555 1_555
C22_2 C21_2 1_555 1_555
C23_2 C22_2 1_555 1_555
C24_2 C20_2 1_555 1_555
C25_2 C24_2 1_555 1_555
C27_2 C25_2 1_555 1_555
H19_2 C27_2 1_555 1_555
H20_2 C27_2 1_555 1_555
H21_2 C27_2 1_555 1_555
O3_2 C17_2 1_555 1_555
O4_2 Tb4 1_555 1_555
O5_2 Tb4 1_555 1_555
O6_2 C18_2 1_555 1_555
O13_2 Tb4 1_555 1_555
H37_2 O13_2 1_555 1_555
H38_2 O13_2 1_555 1_555
O14_2 Tb4 1_555 1_555
H39_2 O14_2 1_555 1_555
H40_2 O14_2 1_555 1_555
C52_2 H43_2 1_555 1_555
O16_2 Tb4 1_555 1_555
C15_2 C16_2 1_555 1_555
C17_2 O4_2 1_555 1_555
C18_2 O5_2 1_555 1_555
C23_2 C24_2 1_555 1_555
C52_2 O16_2 1_555 1_555
H45_2 C53_2 1_555 1_555
H46_2 C53_2 1_555 1_555
C54_2 H47_2 1_555 1_555
H48_2 C54_2 1_555 1_555
H49_2 C54_2 1_555 1_555
C53_2 N1_2 1_555 1_555
C54_2 N1_2 1_555 1_555

#END
