
###############################################################################
#
# This file contains modified crystal structure data generated from the
# MOF subset of the Cambridge Structural Database (CSD) v543 
# hosted by the Cambridge Crystallographic Data Centre (CCDC).
#
# This work is licensed under the Creative Commons
# Attribution-NonCommercial-ShareAlike 4.0 International License.
# To view a copy of this license, visit
# http://creativecommons.org/licenses/by-nc-sa/4.0/
# or send a letter to
# Creative Commons, PO Box 1866, Mountain View, CA 94042, USA.
#
# CIF created using the CSD Python API on 29 September 2022
# The structure has been converted into the P1 space group
# The structure has a 3D framework
# The original CSD entry XUDWOK is in the triclinic crystal system
# The framework has been calculated to contain at least 10.0% void space
# The void calculation uses a probe of radius 1.32A, grid spacing 0.4
#
###############################################################################

data_XUDWOK
_chemical_formula_moiety         '(C72 H84 Cd4 N12 O18)n'
_symmetry_cell_setting           triclinic
_symmetry_space_group_name_H-M   'P 1'
_symmetry_Int_Tables_number      1
_space_group_name_Hall           'P 1'
loop_
_symmetry_equiv_pos_site_id
_symmetry_equiv_pos_as_xyz
1 x,y,z
_cell_length_a                   10.9333(11)
_cell_length_b                   12.8978(13)
_cell_length_c                   16.1341(16)
_cell_angle_alpha                76.430(3)
_cell_angle_beta                 73.128(3)
_cell_angle_gamma                68.130(2)
_cell_volume                     1999.92
loop_
_atom_site_label
_atom_site_type_symbol
_atom_site_fract_x
_atom_site_fract_y
_atom_site_fract_z
_atom_site_U_iso_or_equiv
_atom_site_thermal_displace_type
C28 C 0.2740(7) 0.4691(5) 0.0134(4) 0.0536 Uani
H33 H 0.3619 0.4270 0.0268 0.0650 Uiso
H34 H 0.2148 0.4241 0.0403 0.0650 Uiso
C31 C 0.2147(9) 0.5826(5) 0.0504(4) 0.0688 Uani
H36 H 0.2066 0.5674 0.1138 0.0830 Uiso
C33 C 0.3087(6) 0.6532(4) 0.0086(3) 0.0419 Uani
H39 H 0.2723 0.7237 0.0325 0.0500 Uiso
H40 H 0.3971 0.6126 0.0216 0.0500 Uiso
C34 C 0.0758(7) 0.6476(6) 0.0315(6) 0.0871 Uani
H41 H 0.0152 0.6041 0.0591 0.1040 Uiso
H42 H 0.0387 0.7184 0.0551 0.1040 Uiso
Cd1 Cd 0.43474(3) 0.11885(2) 0.242355(19) 0.0250 Uani
Cd2 Cd 0.43550(3) 0.20982(3) 0.78168(2) 0.0309 Uani
O1 O 0.3131(4) 0.0195(3) 0.3641(2) 0.0459 Uani
O2 O 0.3825(4) 0.1439(4) 0.3893(2) 0.0490 Uani
O3 O 0.2633(5) 0.2266(3) 0.7235(3) 0.0601 Uani
O4 O 0.3881(3) 0.0532(3) 0.7517(2) 0.0330 Uani
O5 O 0.4113(6) 0.3829(4) 0.7976(3) 0.0787 Uani
O6 O 0.3161(5) 0.2982(3) 0.9149(3) 0.0578 Uani
O7 O 0.4246(4) 0.8158(3) 0.9043(3) 0.0508 Uani
O8 O 0.4659(4) 0.7469(3) 0.7848(2) 0.0450 Uani
O9 O 0.6140(5) 0.1954(4) 0.6650(3) 0.0664 Uani
H1 H 0.555(3) 0.236(5) 0.6318(14) 0.0800 Uiso
H2 H 0.618(5) 0.125(2) 0.667(3) 0.0800 Uiso
N1 N 0.2262(5) 0.2642(4) 0.2356(3) 0.0436 Uani
N2 N 0.1038(6) 0.2486(6) 0.2589(5) 0.0744 Uani
N3 N 0.0749(6) 0.4151(4) 0.2828(3) 0.0563 Uani
N4 N 0.3808(4) 0.0382(3) 0.1476(3) 0.0299 Uani
N6 N 0.3127(3) 0.0250(3) 0.0374(2) 0.0248 Uani
C1 C 0.0056(8) 0.5127(5) 0.4115(4) 0.0615 Uani
C3 C 0.1141(11) 0.4946(11) 0.4410(6) 0.1103 Uani
H4 H 0.1961 0.4897 0.4010 0.1320 Uiso
C4 C 0.0112(10) 0.5257(6) 0.3145(4) 0.0798 Uani
H6 H 0.0627 0.5754 0.2820 0.0960 Uiso
C5 C 0.2039(7) 0.3643(5) 0.2517(4) 0.0506 Uani
H7 H 0.2711 0.3963 0.2425 0.0610 Uiso
C6 C 0.0124(7) 0.3418(7) 0.2889(5) 0.0691 Uani
C11 C 0.3084(5) 0.0945(4) 0.0899(3) 0.0323 Uani
H13 H 0.2607 0.1715 0.0855 0.0390 Uiso
C13 C 0.2410(4) 0.0650(4) 0.5109(3) 0.0257 Uani
C14 C 0.3062(4) 0.0976(4) 0.5688(3) 0.0248 Uani
H15 H 0.3086 0.1738 0.5477 0.0300 Uiso
H16 H 0.3985 0.0471 0.5657 0.0300 Uiso
C15 C 0.0954(5) 0.1470(4) 0.5161(3) 0.0345 Uani
H17 H 0.0968 0.2235 0.4950 0.0420 Uiso
H18 H 0.0529 0.1280 0.4792 0.0420 Uiso
C17 C 0.2244(4) 0.0903(3) 0.6650(3) 0.0239 Uani
C18 C 0.0145(5) 0.1393(5) 0.6104(3) 0.0395 Uani
C20 C 0.0798(5) 0.1726(4) 0.6677(3) 0.0329 Uani
H23 H 0.0269 0.1704 0.7275 0.0390 Uiso
H24 H 0.0820 0.2489 0.6465 0.0390 Uiso
C22 C 0.0119(6) 0.0192(6) 0.6440(4) 0.0518 Uani
C23 C 0.3178(5) 0.0759(4) 0.4162(3) 0.0307 Uani
C24 C 0.2947(4) 0.1257(4) 0.7169(3) 0.0273 Uani
C25 C 0.2878(5) 0.4922(4) 0.9156(3) 0.0347 Uani
C26 C 0.3799(4) 0.5648(3) 0.8723(3) 0.0251 Uani
H29 H 0.3868 0.5800 0.8096 0.0300 Uiso
H30 H 0.4699 0.5242 0.8826 0.0300 Uiso
C27 C 0.1480(6) 0.5593(5) 0.8960(6) 0.0615 Uani
H31 H 0.1559 0.5759 0.8332 0.0740 Uiso
H32 H 0.0882 0.5145 0.9206 0.0740 Uiso
C29 C 0.3218(4) 0.6770(3) 0.9100(3) 0.0246 Uani
C30 C 0.0884(6) 0.6696(5) 0.9354(6) 0.0709 Uani
C32 C 0.1819(5) 0.7409(4) 0.8903(4) 0.0438 Uani
H37 H 0.1890 0.7547 0.8276 0.0530 Uiso
H38 H 0.1446 0.8131 0.9118 0.0530 Uiso
C35 C 0.3418(5) 0.3841(4) 0.8750(4) 0.0375 Uani
C36 C 0.4109(5) 0.7506(4) 0.8647(3) 0.0293 Uani
C38 C 0.1098(11) 0.4827(11) 0.5287(6) 0.1072 Uani
H43 H 0.1880 0.4713 0.5466 0.1280 Uiso
H45 H 0.0797 0.4402 0.6955 0.0960 Uiso
H48 H 0.0796 0.6465 0.6894 0.0830 Uiso
Cd9 Cd 0.56526(3) 0.88115(2) 0.757645(19) 0.0250 Uani
O22 O 0.5754(4) 0.1842(3) 0.0957(3) 0.0508 Uani
O24 O 0.5341(4) 0.2531(3) 0.2152(2) 0.0450 Uani
N15 N 0.5661(4) 0.0726(3) 0.8680(3) 0.0296 Uani
N5 N 0.4339(4) 0.9274(3) 0.1320(3) 0.0296 Uani
C9 C 0.0723(4) 0.9658(4) 0.0646(3) 0.0270 Uani
H10 H 0.1205 0.9423 0.1084 0.0320 Uiso
C12 C 0.3933(4) 0.9226(4) 0.0648(3) 0.0274 Uani
H14 H 0.4168 0.8579 0.0397 0.0330 Uiso
C16 C 0.2349(5) 0.9454(4) 0.5450(3) 0.0340 Uani
H19 H 0.1938 0.9248 0.5083 0.0410 Uiso
H20 H 0.3259 0.8924 0.5425 0.0410 Uiso
C19 C 0.1524(6) 0.9392(5) 0.6393(3) 0.0402 Uani
H22 H 0.1497 0.8622 0.6604 0.0490 Uiso
C21 C 0.2217(5) 0.9699(4) 0.6969(3) 0.0320 Uani
H25 H 0.1725 0.9637 0.7574 0.0380 Uiso
H26 H 0.3133 0.9179 0.6935 0.0380 Uiso
Cd11 Cd 0.56450(3) 0.79018(3) 0.21832(2) 0.0309 Uani
O20 O 0.6119(3) 0.9468(3) 0.2483(2) 0.0330 Uani
H63 H 0.0783 0.8089 0.3869 0.0470 Uiso
H69 H 0.0397 0.9852 0.2960 0.0620 Uiso
H77 H 0.0014 0.2893 0.0769 0.0850 Uiso
C2 C 0.8902(11) 0.5173(11) 0.4713(6) 0.1072 Uani
H3 H 0.8120 0.5287 0.4534 0.1280 Uiso
H5 H 0.9203 0.5598 0.3045 0.0960 Uiso
H8 H 0.9204 0.3535 0.3106 0.0830 Uiso
H21 H 0.9217 0.1911 0.6131 0.0470 Uiso
H27 H 0.9603 0.0148 0.7040 0.0620 Uiso
H35 H 0.9986 0.7107 0.9231 0.0850 Uiso
N7 N 0.7738(5) 0.7358(4) 0.7644(3) 0.0436 Uani
N8 N 0.8962(6) 0.7514(6) 0.7411(5) 0.0744 Uani
N9 N 0.9251(6) 0.5849(4) 0.7172(3) 0.0563 Uani
C37 C 0.9944(8) 0.4873(5) 0.5885(4) 0.0615 Uani
C39 C 0.8859(11) 0.5054(11) 0.5590(6) 0.1103 Uani
H44 H 0.8039 0.5103 0.5990 0.1320 Uiso
C40 C 0.9888(10) 0.4743(6) 0.6855(4) 0.0798 Uani
H46 H 0.9373 0.4246 0.7180 0.0960 Uiso
C41 C 0.7961(7) 0.6357(5) 0.7483(4) 0.0506 Uani
H47 H 0.7289 0.6037 0.7575 0.0610 Uiso
C42 C 0.9876(7) 0.6582(7) 0.7111(5) 0.0691 Uani
C45 C 0.9277(4) 0.0342(4) 0.9354(3) 0.0270 Uani
H50 H 0.8795 0.0577 0.8916 0.0320 Uiso
C48 C 0.6067(4) 0.0774(4) 0.9352(3) 0.0274 Uani
H54 H 0.5832 0.1421 0.9603 0.0330 Uiso
C52 C 0.7651(5) 0.0546(4) 0.4550(3) 0.0340 Uani
H61 H 0.8062 0.0752 0.4917 0.0410 Uiso
H62 H 0.6741 0.1076 0.4575 0.0410 Uiso
C55 C 0.8476(6) 0.0608(5) 0.3607(3) 0.0402 Uani
H64 H 0.8503 0.1378 0.3396 0.0490 Uiso
C57 C 0.7783(5) 0.0301(4) 0.3031(3) 0.0320 Uani
H67 H 0.8275 0.0363 0.2426 0.0380 Uiso
H68 H 0.6867 0.0821 0.3065 0.0380 Uiso
N10 N 0.6192(4) 0.9618(3) 0.8524(3) 0.0299 Uani
N12 N 0.6873(3) 0.9750(3) 0.9626(2) 0.0248 Uani
C47 C 0.6916(5) 0.9055(4) 0.9101(3) 0.0323 Uani
H53 H 0.7393 0.8285 0.9145 0.0390 Uiso
O10 O 0.6869(4) 0.9805(3) 0.6359(2) 0.0459 Uani
O11 O 0.6175(4) 0.8561(4) 0.6107(2) 0.0490 Uani
O12 O 0.7367(5) 0.7734(3) 0.2765(3) 0.0601 Uani
O14 O 0.5887(6) 0.6171(4) 0.2024(3) 0.0787 Uani
O15 O 0.6839(5) 0.7018(3) 0.0851(3) 0.0578 Uani
O18 O 0.3860(5) 0.8046(4) 0.3350(3) 0.0664 Uani
H55 H 0.445(3) 0.764(5) 0.3682(14) 0.0800 Uiso
H56 H 0.382(5) 0.875(2) 0.333(3) 0.0800 Uiso
C49 C 0.7590(4) 0.9350(4) 0.4891(3) 0.0257 Uani
C50 C 0.6938(4) 0.9024(4) 0.4312(3) 0.0248 Uani
H57 H 0.6914 0.8262 0.4523 0.0300 Uiso
H58 H 0.6015 0.9529 0.4343 0.0300 Uiso
C51 C 0.9046(5) 0.8530(4) 0.4839(3) 0.0345 Uani
H59 H 0.9032 0.7765 0.5050 0.0420 Uiso
H60 H 0.9471 0.8720 0.5208 0.0420 Uiso
C53 C 0.7756(4) 0.9097(3) 0.3350(3) 0.0239 Uani
C54 C 0.9855(5) 0.8607(5) 0.3896(3) 0.0395 Uani
C56 C 0.9202(5) 0.8274(4) 0.3323(3) 0.0329 Uani
H65 H 0.9731 0.8296 0.2725 0.0390 Uiso
H66 H 0.9180 0.7511 0.3535 0.0390 Uiso
C58 C 0.9881(6) 0.9808(6) 0.3560(4) 0.0518 Uani
C59 C 0.6822(5) 0.9241(4) 0.5838(3) 0.0307 Uani
C60 C 0.7053(4) 0.8743(4) 0.2831(3) 0.0273 Uani
C61 C 0.7122(5) 0.5078(4) 0.0844(3) 0.0347 Uani
C62 C 0.6201(4) 0.4352(3) 0.1277(3) 0.0251 Uani
H71 H 0.6132 0.4200 0.1904 0.0300 Uiso
H72 H 0.5301 0.4758 0.1174 0.0300 Uiso
C63 C 0.8520(6) 0.4407(5) 0.1040(6) 0.0615 Uani
H73 H 0.8441 0.4241 0.1668 0.0740 Uiso
H74 H 0.9118 0.4855 0.0794 0.0740 Uiso
C65 C 0.6782(4) 0.3230(3) 0.0900(3) 0.0246 Uani
C66 C 0.9116(6) 0.3304(5) 0.0646(6) 0.0709 Uani
C68 C 0.8181(5) 0.2591(4) 0.1097(4) 0.0438 Uani
H79 H 0.8110 0.2453 0.1724 0.0530 Uiso
H80 H 0.8554 0.1869 0.0882 0.0530 Uiso
C71 C 0.6582(5) 0.6159(4) 0.1250(4) 0.0375 Uani
C72 C 0.5891(5) 0.2494(4) 0.1353(3) 0.0293 Uani
C7 C 0.1175(4) 0.0268(4) 0.9862(3) 0.0233 Uani
C8 C 0.0445(4) 0.0600(4) 0.9222(3) 0.0249 Uani
H9 H 0.0744 0.1004 0.8693 0.0300 Uiso
C10 C 0.2455(4) 0.0571(4) 0.9646(3) 0.0264 Uani
H11 H 0.3080 0.0203 0.9155 0.0320 Uiso
H12 H 0.2234 0.1380 0.9465 0.0320 Uiso
H70 H 0.0317 0.0014 0.3911 0.0620 Uiso
H28 H 0.9683 0.9986 0.6089 0.0620 Uiso
C43 C 0.8825(4) 0.9732(4) 0.0138(3) 0.0233 Uani
C44 C 0.9555(4) 0.9400(4) 0.0778(3) 0.0249 Uani
H49 H 0.9256 0.8996 0.1307 0.0300 Uiso
C46 C 0.7545(4) 0.9429(4) 0.0354(3) 0.0264 Uani
H51 H 0.6920 0.9797 0.0845 0.0320 Uiso
H52 H 0.7766 0.8620 0.0535 0.0320 Uiso
C64 C 0.7260(7) 0.5309(5) 0.9866(4) 0.0536 Uani
H75 H 0.6381 0.5730 0.9732 0.0650 Uiso
H76 H 0.7852 0.5759 0.9597 0.0650 Uiso
C67 C 0.7853(9) 0.4174(5) 0.9496(4) 0.0688 Uani
H78 H 0.7934 0.4326 0.8862 0.0830 Uiso
C69 C 0.6913(6) 0.3468(4) 0.9914(3) 0.0419 Uani
H81 H 0.7277 0.2763 0.9675 0.0500 Uiso
H82 H 0.6029 0.3874 0.9784 0.0500 Uiso
C70 C 0.9242(7) 0.3524(6) 0.9685(6) 0.0871 Uani
H83 H 0.9848 0.3959 0.9409 0.1040 Uiso
H84 H 0.9613 0.2816 0.9449 0.1040 Uiso
loop_
_atom_site_aniso_label
_atom_site_aniso_U_11
_atom_site_aniso_U_22
_atom_site_aniso_U_33
_atom_site_aniso_U_23
_atom_site_aniso_U_13
_atom_site_aniso_U_12
C28 0.084 0.03 0.044 -0.01 0.014 -0.034
C31 0.116 0.044 0.042 -0.017 0.029 -0.05
C33 0.068 0.029 0.032 -0.0092 0 -0.025
C34 0.065 0.049 0.129 -0.053 0.063 -0.038
Cd1 0.03244 0.02233 0.02235 -0.00564 -0.00422 -0.01135
Cd2 0.04 0.02319 0.037 -0.00913 -0.014 -0.0117
O1 0.064 0.049 0.0264 -0.0136 -0.002 -0.0215
O2 0.066 0.064 0.026 -0.0025 -0.0006 -0.041
O3 0.075 0.0278 0.097 -0.019 -0.059 -0.0024
O4 0.0361 0.031 0.0371 -0.0061 -0.0188 -0.0079
O5 0.119 0.045 0.071 -0.033 0.032 -0.051
O6 0.082 0.0279 0.064 -0.0148 0.004 -0.029
O7 0.063 0.046 0.059 -0.0243 0.002 -0.037
O8 0.062 0.048 0.032 -0.0034 0.0024 -0.0369
O9 0.082 0.055 0.059 -0.021 0.009 -0.03
N1 0.047 0.033 0.044 -0.0147 -0.009 -0.0008
N2 0.049 0.077 0.098 -0.032 -0.023 -0.005
N3 0.072 0.041 0.035 -0.014 -0.016 0.013
N4 0.0358 0.0267 0.0325 -0.0108 -0.0098 -0.0107
N6 0.0225 0.0312 0.0272 -0.0099 -0.0079 -0.011
C1 0.083 0.036 0.045 -0.019 -0.01 0.008
C3 0.089 0.174 0.051 -0.026 0.009 -0.037
C4 0.118 0.041 0.044 -0.018 -0.02 0.023
C5 0.064 0.033 0.043 -0.01 -0.004 -0.006
C6 0.044 0.074 0.081 -0.029 -0.021 0.006
C11 0.035 0.027 0.039 -0.0123 -0.0134 -0.0064
C13 0.032 0.027 0.0212 -0.0058 -0.0067 -0.0111
C14 0.0259 0.026 0.023 -0.0032 -0.0059 -0.0088
C15 0.032 0.044 0.029 -0.0089 -0.0132 -0.007
C17 0.03 0.0225 0.0231 -0.0038 -0.0096 -0.0098
C18 0.024 0.063 0.033 -0.016 -0.0069 -0.01
C20 0.03 0.042 0.026 -0.0116 -0.0063 -0.0071
C22 0.047 0.093 0.035 -0.013 -0.002 -0.048
C23 0.031 0.036 0.023 -0.0036 -0.0066 -0.0085
C24 0.033 0.029 0.024 -0.0066 -0.0086 -0.0112
C25 0.039 0.021 0.047 -0.0104 0 -0.0171
C26 0.031 0.0176 0.029 -0.0058 -0.0029 -0.0119
C27 0.037 0.038 0.119 -0.026 -0.012 -0.018
C29 0.029 0.0181 0.028 -0.0089 -0.0001 -0.0104
C30 0.026 0.041 0.149 -0.042 0.001 -0.013
C32 0.031 0.022 0.08 -0.013 -0.014 -0.0058
C35 0.04 0.027 0.052 -0.015 -0.006 -0.016
C36 0.032 0.022 0.035 -0.0034 -0.0052 -0.0123
C38 0.087 0.168 0.067 -0.038 -0.019 -0.028
Cd9 0.03244 0.02233 0.02235 -0.00564 -0.00422 -0.01135
O22 0.063 0.046 0.059 -0.0243 0.002 -0.037
O24 0.062 0.048 0.032 -0.0034 0.0024 -0.0369
N15 0.032 0.027 0.036 -0.014 -0.0101 -0.0089
N5 0.032 0.027 0.036 -0.014 -0.0101 -0.0089
C9 0.029 0.036 0.0196 -0.0026 -0.0097 -0.0123
C12 0.028 0.026 0.034 -0.0119 -0.0084 -0.0095
C16 0.048 0.036 0.027 -0.0077 -0.011 -0.02
C19 0.064 0.045 0.029 -0.002 -0.012 -0.038
C21 0.051 0.03 0.022 0.0003 -0.0126 -0.02
Cd11 0.04 0.02319 0.037 -0.00913 -0.014 -0.0117
O20 0.0361 0.031 0.0371 -0.0061 -0.0188 -0.0079
C2 0.087 0.168 0.067 -0.038 -0.019 -0.028
N7 0.047 0.033 0.044 -0.0147 -0.009 -0.0008
N8 0.049 0.077 0.098 -0.032 -0.023 -0.005
N9 0.072 0.041 0.035 -0.014 -0.016 0.013
C37 0.083 0.036 0.045 -0.019 -0.01 0.008
C39 0.089 0.174 0.051 -0.026 0.009 -0.037
C40 0.118 0.041 0.044 -0.018 -0.02 0.023
C41 0.064 0.033 0.043 -0.01 -0.004 -0.006
C42 0.044 0.074 0.081 -0.029 -0.021 0.006
C45 0.029 0.036 0.0196 -0.0026 -0.0097 -0.0123
C48 0.028 0.026 0.034 -0.0119 -0.0084 -0.0095
C52 0.048 0.036 0.027 -0.0077 -0.011 -0.02
C55 0.064 0.045 0.029 -0.002 -0.012 -0.038
C57 0.051 0.03 0.022 0.0003 -0.0126 -0.02
N10 0.0358 0.0267 0.0325 -0.0108 -0.0098 -0.0107
N12 0.0225 0.0312 0.0272 -0.0099 -0.0079 -0.011
C47 0.035 0.027 0.039 -0.0123 -0.0134 -0.0064
O10 0.064 0.049 0.0264 -0.0136 -0.002 -0.0215
O11 0.066 0.064 0.026 -0.0025 -0.0006 -0.041
O12 0.075 0.0278 0.097 -0.019 -0.059 -0.0024
O14 0.119 0.045 0.071 -0.033 0.032 -0.051
O15 0.082 0.0279 0.064 -0.0148 0.004 -0.029
O18 0.082 0.055 0.059 -0.021 0.009 -0.03
C49 0.032 0.027 0.0212 -0.0058 -0.0067 -0.0111
C50 0.0259 0.026 0.023 -0.0032 -0.0059 -0.0088
C51 0.032 0.044 0.029 -0.0089 -0.0132 -0.007
C53 0.03 0.0225 0.0231 -0.0038 -0.0096 -0.0098
C54 0.024 0.063 0.033 -0.016 -0.0069 -0.01
C56 0.03 0.042 0.026 -0.0116 -0.0063 -0.0071
C58 0.047 0.093 0.035 -0.013 -0.002 -0.048
C59 0.031 0.036 0.023 -0.0036 -0.0066 -0.0085
C60 0.033 0.029 0.024 -0.0066 -0.0086 -0.0112
C61 0.039 0.021 0.047 -0.0104 0 -0.0171
C62 0.031 0.0176 0.029 -0.0058 -0.0029 -0.0119
C63 0.037 0.038 0.119 -0.026 -0.012 -0.018
C65 0.029 0.0181 0.028 -0.0089 -0.0001 -0.0104
C66 0.026 0.041 0.149 -0.042 0.001 -0.013
C68 0.031 0.022 0.08 -0.013 -0.014 -0.0058
C71 0.04 0.027 0.052 -0.015 -0.006 -0.016
C72 0.032 0.022 0.035 -0.0034 -0.0052 -0.0123
C7 0.0239 0.027 0.0227 -0.0094 -0.0069 -0.0077
C8 0.0265 0.029 0.0197 -0.0013 -0.0054 -0.0107
C10 0.028 0.037 0.0212 -0.0048 -0.0075 -0.0166
C43 0.0239 0.027 0.0227 -0.0094 -0.0069 -0.0077
C44 0.0265 0.029 0.0197 -0.0013 -0.0054 -0.0107
C46 0.028 0.037 0.0212 -0.0048 -0.0075 -0.0166
C64 0.084 0.03 0.044 -0.01 0.014 -0.034
C67 0.116 0.044 0.042 -0.017 0.029 -0.05
C69 0.068 0.029 0.032 -0.0092 0 -0.025
C70 0.065 0.049 0.129 -0.053 0.063 -0.038
loop_
_geom_bond_atom_site_label_1
_geom_bond_atom_site_label_2
_geom_bond_site_symmetry_1
_geom_bond_site_symmetry_2
H33 C28 1_555 1_555
H34 C28 1_555 1_555
C31 C28 1_555 1_555
H36 C31 1_555 1_555
H39 C33 1_555 1_555
H40 C33 1_555 1_555
H41 C34 1_555 1_555
H42 C34 1_555 1_555
C31 C33 1_555 1_555
C31 C34 1_555 1_555
Cd1 O1 1_555 1_555
Cd2 O3 1_555 1_555
O1 C23 1_555 1_555
O2 Cd1 1_555 1_555
O3 C24 1_555 1_555
O4 Cd2 1_555 1_555
O5 Cd2 1_555 1_555
O6 Cd2 1_555 1_555
O7 C36 1_555 1_555
O8 C36 1_555 1_555
O9 Cd2 1_555 1_555
H1 O9 1_555 1_555
H2 O9 1_555 1_555
N1 Cd1 1_555 1_555
N2 N1 1_555 1_555
N3 C4 1_555 1_555
N4 Cd1 1_555 1_555
C3 C1 1_555 1_555
H4 C3 1_555 1_555
C4 C1 1_555 1_555
H6 C4 1_555 1_555
C5 N1 1_555 1_555
H7 C5 1_555 1_555
C6 N2 1_555 1_555
C11 N4 1_555 1_555
H13 C11 1_555 1_555
C13 C14 1_555 1_555
C14 H15 1_555 1_555
H16 C14 1_555 1_555
C15 C13 1_555 1_555
H17 C15 1_555 1_555
H18 C15 1_555 1_555
C17 C14 1_555 1_555
C18 C15 1_555 1_555
C20 C17 1_555 1_555
H23 C20 1_555 1_555
H24 C20 1_555 1_555
C22 C18 1_555 1_555
C23 O2 1_555 1_555
C24 O4 1_555 1_555
C25 C26 1_555 1_555
C26 H29 1_555 1_555
H30 C26 1_555 1_555
C27 C25 1_555 1_555
H31 C27 1_555 1_555
H32 C27 1_555 1_555
C29 C26 1_555 1_555
C30 C27 1_555 1_555
C32 C29 1_555 1_555
H37 C32 1_555 1_555
H38 C32 1_555 1_555
C35 O5 1_555 1_555
C36 C29 1_555 1_555
C38 C3 1_555 1_555
H43 C38 1_555 1_555
Cd9 O7 1_555 1_555
O22 Cd1 1_555 1_555
O24 Cd1 1_555 1_555
N15 Cd2 1_555 1_555
O6 C35 1_555 1_555
O8 Cd9 1_555 1_555
N3 C5 1_555 1_555
N3 C6 1_555 1_555
N6 C11 1_555 1_555
C13 C23 1_555 1_555
C17 C24 1_555 1_555
C18 C20 1_555 1_555
C25 C35 1_555 1_555
C30 C32 1_555 1_555
H10 C9 1_555 1_555
C12 N5 1_555 1_555
H14 C12 1_555 1_555
H19 C16 1_555 1_555
H20 C16 1_555 1_555
C19 C16 1_555 1_555
H22 C19 1_555 1_555
H25 C21 1_555 1_555
H26 C21 1_555 1_555
Cd11 N5 1_555 1_555
C19 C21 1_555 1_555
Cd11 O20 1_555 1_555
C2 H3 1_555 1_555
N7 N8 1_555 1_555
N8 C42 1_555 1_555
N9 C40 1_555 1_555
C39 C2 1_555 1_555
H44 C39 1_555 1_555
C40 C37 1_555 1_555
H46 C40 1_555 1_555
C41 N7 1_555 1_555
H47 C41 1_555 1_555
C42 N9 1_555 1_555
Cd9 N7 1_555 1_555
N9 C41 1_555 1_555
C37 C39 1_555 1_555
N15 C48 1_555 1_555
H50 C45 1_555 1_555
H54 C48 1_555 1_555
H61 C52 1_555 1_555
H62 C52 1_555 1_555
C55 C52 1_555 1_555
H64 C55 1_555 1_555
H67 C57 1_555 1_555
H68 C57 1_555 1_555
C55 C57 1_555 1_555
C47 N10 1_555 1_555
H53 C47 1_555 1_555
Cd9 N10 1_555 1_555
Cd11 O12 1_555 1_555
O10 Cd9 1_555 1_555
O11 Cd9 1_555 1_555
O12 C60 1_555 1_555
O14 Cd11 1_555 1_555
O15 Cd11 1_555 1_555
O22 C72 1_555 1_555
O24 C72 1_555 1_555
O18 Cd11 1_555 1_555
H55 O18 1_555 1_555
H56 O18 1_555 1_555
C49 C50 1_555 1_555
C50 H57 1_555 1_555
H58 C50 1_555 1_555
C51 C49 1_555 1_555
H59 C51 1_555 1_555
H60 C51 1_555 1_555
C53 C50 1_555 1_555
C54 C51 1_555 1_555
C56 C53 1_555 1_555
H65 C56 1_555 1_555
H66 C56 1_555 1_555
C58 C54 1_555 1_555
C59 O10 1_555 1_555
C60 O20 1_555 1_555
C61 C62 1_555 1_555
C62 H71 1_555 1_555
H72 C62 1_555 1_555
C63 C61 1_555 1_555
H73 C63 1_555 1_555
H74 C63 1_555 1_555
C65 C62 1_555 1_555
C66 C63 1_555 1_555
C68 C65 1_555 1_555
H79 C68 1_555 1_555
H80 C68 1_555 1_555
C71 O14 1_555 1_555
C72 C65 1_555 1_555
N12 C47 1_555 1_555
O11 C59 1_555 1_555
O15 C71 1_555 1_555
C49 C59 1_555 1_555
C53 C60 1_555 1_555
C54 C56 1_555 1_555
C61 C71 1_555 1_555
C66 C68 1_555 1_555
C7 C8 1_555 1_555
C8 H9 1_555 1_555
C10 C7 1_555 1_555
H11 C10 1_555 1_555
H12 C10 1_555 1_555
C43 C44 1_555 1_555
H49 C44 1_555 1_555
C46 C43 1_555 1_555
H51 C46 1_555 1_555
H52 C46 1_555 1_555
H75 C64 1_555 1_555
H76 C64 1_555 1_555
C67 C64 1_555 1_555
H78 C67 1_555 1_555
H81 C69 1_555 1_555
H82 C69 1_555 1_555
H83 C70 1_555 1_555
H84 C70 1_555 1_555
C67 C69 1_555 1_555
C67 C70 1_555 1_555

#END
