
###############################################################################
#
# This file contains modified crystal structure data generated from the
# MOF subset of the Cambridge Structural Database (CSD) v543 
# hosted by the Cambridge Crystallographic Data Centre (CCDC).
#
# This work is licensed under the Creative Commons
# Attribution-NonCommercial-ShareAlike 4.0 International License.
# To view a copy of this license, visit
# http://creativecommons.org/licenses/by-nc-sa/4.0/
# or send a letter to
# Creative Commons, PO Box 1866, Mountain View, CA 94042, USA.
#
# CIF created using the CSD Python API on 29 September 2022
# The structure has been converted into the P1 space group
# The structure has a 3D framework
# The original CSD entry XUFDAG is in the monoclinic crystal system
# The framework has been calculated to contain at least 10.0% void space
# The void calculation uses a probe of radius 1.32A, grid spacing 0.4
#
###############################################################################

data_XUFDAG
_chemical_formula_moiety         '(C64 H40 N16 O16 Zn4)n'
_symmetry_cell_setting           triclinic
_symmetry_space_group_name_H-M   'P 1'
_symmetry_Int_Tables_number      1
_space_group_name_Hall           'P 1'
loop_
_symmetry_equiv_pos_site_id
_symmetry_equiv_pos_as_xyz
1 x,y,z
_cell_length_a                   12.860(2)
_cell_length_b                   8.2551(16)
_cell_length_c                   17.111(3)
_cell_angle_alpha                90
_cell_angle_beta                 105.495(3)
_cell_angle_gamma                90
_cell_volume                     1750.49
loop_
_atom_site_label
_atom_site_type_symbol
_atom_site_fract_x
_atom_site_fract_y
_atom_site_fract_z
H5 H 0.1436 0.0288 0.2905
H6 H 0.0087 0.1492 0.1909
O1 O 0.1093(2) 0.7089(4) 0.43994(18)
C4 C 0.0557(3) 0.8404(5) 0.3129(2)
C9 C 0.0755(3) 0.9817(5) 0.2751(2)
O4 O 0.2367(3) 0.8031(5) 0.3896(2)
C12 C 0.1428(4) 0.7772(5) 0.3853(3)
Zn5 Zn 0.21785(3) 0.66087(5) 0.53755(3)
O2 O 0.8258(2) 0.2023(3) 0.10472(17)
C6 C 0.8022(4) 0.0650(5) 0.1285(2)
C10 C 0.9948(3) 0.0532(5) 0.2147(2)
N5 N 0.3132(3) 0.4735(4) 0.52341(19)
C17 C 0.4797(4) 0.3320(5) 0.5699(3)
H11 H 0.5487 0.3284 0.6052
C18 C 0.4130(3) 0.4597(5) 0.5720(3)
H12 H 0.4386 0.5419 0.6094
C19 C 0.2794(4) 0.3566(6) 0.4690(3)
H13 H 0.2111 0.3649 0.4331
C20 C 0.4446(4) 0.2103(6) 0.5160(3)
C21 C 0.5167(4) 0.0662(5) 0.5170(3)
H14 H 0.5895 0.0755 0.5440
C22 C 0.3423(4) 0.2232(6) 0.4642(3)
H15 H 0.3158 0.1424 0.4262
N6 N 0.0712(3) 0.3811(4) 0.68069(19)
C23 C 0.1247(3) 0.1617(5) 0.7765(2)
H16 H 0.1912 0.2129 0.7949
N7 N 0.1333(3) 0.5575(4) 0.61039(19)
C24 C 0.1192(3) 0.4027(5) 0.6227(2)
H17 H 0.1406 0.3192 0.5940
C26 C 0.0446(3) 0.2312(5) 0.7150(2)
C28 C 0.1061(3) 0.0172(5) 0.8104(2)
O7 O 0.2862(3) 0.0008(4) 0.8931(2)
C32 C 0.0878(6) 0.6275(6) 0.6633(4)
H20 H 0.0841 0.7394 0.6683
N8 N 0.0483(5) 0.5271(5) 0.7082(3)
Zn4 Zn 0.71785(3) 0.33913(5) 0.03755(3)
O12 O 0.3258(2) 0.7977(3) 0.60472(17)
C19_2 C 0.2206(4) 0.3566(6) 0.0310(3)
H13_2 H 0.2889 0.3649 0.0669
C22_2 C 0.1577(4) 0.2232(6) 0.0358(3)
H15_2 H 0.1842 0.1424 0.0738
O9 O 0.3907(2) 0.7089(4) 0.06006(18)
C27 C 0.3022(4) 0.9350(5) 0.6285(2)
H18 H 0.6436 0.9712 0.7905
C30 C 0.4948(3) 0.9468(5) 0.7147(2)
H19 H 0.5087 0.8508 0.6909
N1 N 0.5712(3) 0.6189(4) 0.18069(19)
N2 N 0.8132(3) 0.5265(4) 0.02341(19)
C1 C 0.9797(4) 0.6680(5) 0.0699(3)
C2 C 0.6247(3) 0.8383(5) 0.2765(2)
H2 H 0.6912 0.7871 0.2949
N3 N 0.6333(3) 0.4425(4) 0.11039(19)
C3 C 0.6192(3) 0.5973(5) 0.1227(2)
H3 H 0.6406 0.6808 0.0940
C4_2 C 0.4443(3) 0.8404(5) 0.1871(2)
C5 C 0.5446(3) 0.7688(5) 0.2150(2)
C7 C 0.6061(3) 0.9828(5) 0.3104(2)
C8 C 0.9130(3) 0.5403(5) 0.0720(3)
H4 H 0.9386 0.4581 0.1094
C9_2 C 0.4245(3) 0.9817(5) 0.2249(2)
O3 O 0.7862(3) 0.9992(4) 0.3931(2)
O4_2 O 0.2633(3) 0.8031(5) 0.1104(2)
C12_2 C 0.3572(4) 0.7772(5) 0.1147(3)
C13 C 0.9446(4) 0.7897(6) 0.0160(3)
C16 C 0.5878(6) 0.3725(6) 0.1633(4)
H10 H 0.5841 0.2606 0.1683
N4 N 0.5483(5) 0.4729(5) 0.2082(3)
Zn1 Zn 0.78215(3) 0.33913(5) 0.46245(3)
N1_2 N 0.9288(3) 0.6189(4) 0.31931(19)
N2_2 N 0.6868(3) 0.5265(4) 0.47659(19)
C1_2 C 0.5203(4) 0.6680(5) 0.4301(3)
H1 H 0.4513 0.6716 0.3948
C2_2 C 0.8753(3) 0.8383(5) 0.2235(2)
H2_2 H 0.8088 0.7871 0.2051
N3_2 N 0.8667(3) 0.4425(4) 0.38961(19)
C3_2 C 0.8808(3) 0.5973(5) 0.3773(2)
H3_2 H 0.8594 0.6808 0.4060
C5_2 C 0.9554(3) 0.7688(5) 0.2850(2)
C7_2 C 0.8939(3) 0.9828(5) 0.1896(2)
C8_2 C 0.5870(3) 0.5403(5) 0.4280(3)
H4_2 H 0.5614 0.4581 0.3906
O3_2 O 0.7138(3) 0.9992(4) 0.1069(2)
C11 C 0.7206(4) 0.6434(6) 0.5310(3)
H7 H 0.7889 0.6351 0.5669
C13_2 C 0.5554(4) 0.7897(6) 0.4840(3)
C14 C 0.4833(4) 0.9338(5) 0.4830(3)
H8 H 0.4105 0.9245 0.4560
C15 C 0.6577(4) 0.7768(6) 0.5358(3)
H9 H 0.6842 0.8576 0.5738
C16_2 C 0.9122(6) 0.3725(6) 0.3367(4)
H10_2 H 0.9159 0.2606 0.3317
N4_2 N 0.9517(5) 0.4729(5) 0.2918(3)
O6 O 0.1742(2) 0.7977(3) 0.89528(17)
C27_2 C 0.1978(4) 0.9350(5) 0.8715(2)
C30_2 C 0.0052(3) 0.9468(5) 0.7853(2)
Zn6 Zn 0.28215(3) 0.66087(5) 0.96245(3)
O10 O 0.8907(2) 0.2911(4) 0.56006(18)
O11 O 0.6742(2) 0.2023(3) 0.39528(17)
C25 C 0.9443(3) 0.1596(5) 0.6871(2)
C29 C 0.9245(3) 0.0183(5) 0.7249(2)
O8 O 0.7633(3) 0.1969(5) 0.6104(2)
C31 C 0.8572(4) 0.2228(5) 0.6147(3)
N5_2 N 0.1868(3) 0.4735(4) 0.97659(19)
C17_2 C 0.0203(4) 0.3320(5) 0.9301(3)
C18_2 C 0.0870(3) 0.4597(5) 0.9280(3)
H12_2 H 0.0614 0.5419 0.8906
C20_2 C 0.0554(4) 0.2103(6) 0.9840(3)
O5 O 0.6093(2) 0.2911(4) 0.93994(18)
N6_2 N 0.4288(3) 0.3811(4) 0.81931(19)
C23_2 C 0.3753(3) 0.1617(5) 0.7235(2)
H16_2 H 0.3088 0.2129 0.7051
N7_2 N 0.3667(3) 0.5575(4) 0.88961(19)
C24_2 C 0.3808(3) 0.4027(5) 0.8773(2)
H17_2 H 0.3594 0.3192 0.9060
C25_2 C 0.5557(3) 0.1596(5) 0.8129(2)
C26_2 C 0.4554(3) 0.2312(5) 0.7850(2)
C28_2 C 0.3939(3) 0.0172(5) 0.6896(2)
C29_2 C 0.5755(3) 0.0183(5) 0.7751(2)
O7_2 O 0.2138(3) 0.0008(4) 0.6069(2)
O8_2 O 0.7367(3) 0.1969(5) 0.8896(2)
C31_2 C 0.6428(4) 0.2228(5) 0.8853(3)
C32_2 C 0.4122(6) 0.6275(6) 0.8367(4)
H20_2 H 0.4159 0.7394 0.8317
N8_2 N 0.4517(5) 0.5271(5) 0.7918(3)
C6_2 C 0.6978(4) 0.0650(5) 0.3715(2)
H5_2 H 0.3564 0.0288 0.2095
C10_2 C 0.5052(3) 0.0532(5) 0.2853(2)
H6_2 H 0.4913 0.1492 0.3091
C11_2 C 0.7794(4) 0.6434(6) 0.9690(3)
H7_2 H 0.7111 0.6351 0.9331
C15_2 C 0.8423(4) 0.7768(6) 0.9642(3)
H9_2 H 0.8158 0.8576 0.9262
H18_2 H 0.8564 0.9712 0.7095
H19_2 H 0.9913 0.8508 0.8091
H1_2 H 0.0487 0.6716 0.1052
C14_2 C 0.0167(4) 0.9338(5) 0.0170(3)
H8_2 H 0.0895 0.9245 0.0440
H11_2 H 0.9513 0.3284 0.8948
C21_2 C 0.9833(4) 0.0662(5) 0.9830(3)
H14_2 H 0.9105 0.0755 0.9560
loop_
_geom_bond_atom_site_label_1
_geom_bond_atom_site_label_2
_geom_bond_site_symmetry_1
_geom_bond_site_symmetry_2
O1 C12 1_555 1_555
C9 C4 1_555 1_555
O4 C12 1_555 1_555
C12 C4 1_555 1_555
Zn5 O1 1_555 1_555
O2 C6 1_555 1_555
N5 C18 1_555 1_555
C17 H11 1_555 1_555
C18 C17 1_555 1_555
H12 C18 1_555 1_555
C19 N5 1_555 1_555
H13 C19 1_555 1_555
C20 C17 1_555 1_555
H14 C21 1_555 1_555
C22 C19 1_555 1_555
H15 C22 1_555 1_555
Zn5 N5 1_555 1_555
N6 C24 1_555 1_555
C23 H16 1_555 1_555
N7 Zn5 1_555 1_555
C24 N7 1_555 1_555
H17 C24 1_555 1_555
C26 N6 1_555 1_555
C28 C23 1_555 1_555
C32 N7 1_555 1_555
H20 C32 1_555 1_555
N8 N6 1_555 1_555
Zn4 O2 1_555 1_555
O12 Zn5 1_555 1_555
C20 C21 1_555 1_555
C20 C22 1_555 1_555
C23 C26 1_555 1_555
C32 N8 1_555 1_555
H13_2 C19_2 1_555 1_555
C22_2 C19_2 1_555 1_555
H15_2 C22_2 1_555 1_555
O12 C27 1_555 1_555
H19 C30 1_555 1_555
Zn4 N2 1_555 1_555
O9 C12_2 1_555 1_555
N1 C3 1_555 1_555
N2 C8 1_555 1_555
C2 H2 1_555 1_555
N3 Zn4 1_555 1_555
C3 N3 1_555 1_555
H3 C3 1_555 1_555
C4_2 C5 1_555 1_555
C5 N1 1_555 1_555
C7 C2 1_555 1_555
C8 C1 1_555 1_555
H4 C8 1_555 1_555
C9_2 C4_2 1_555 1_555
O4_2 C12_2 1_555 1_555
C12_2 C4_2 1_555 1_555
C13 C1 1_555 1_555
C16 N3 1_555 1_555
H10 C16 1_555 1_555
N4 N1 1_555 1_555
C2 C5 1_555 1_555
C16 N4 1_555 1_555
Zn1 N2_2 1_555 1_555
N1_2 C3_2 1_555 1_555
N2_2 C8_2 1_555 1_555
C1_2 H1 1_555 1_555
C2_2 H2_2 1_555 1_555
N3_2 Zn1 1_555 1_555
C3_2 N3_2 1_555 1_555
H3_2 C3_2 1_555 1_555
C5_2 N1_2 1_555 1_555
C7_2 C2_2 1_555 1_555
C8_2 C1_2 1_555 1_555
H4_2 C8_2 1_555 1_555
C11 N2_2 1_555 1_555
H7 C11 1_555 1_555
C13_2 C1_2 1_555 1_555
C14 C13_2 1_555 1_555
H8 C14 1_555 1_555
C15 C11 1_555 1_555
H9 C15 1_555 1_555
C16_2 N3_2 1_555 1_555
H10_2 C16_2 1_555 1_555
N4_2 N1_2 1_555 1_555
O6 C27_2 1_555 1_555
Zn6 O6 1_555 1_555
O10 Zn1 1_555 1_555
O11 Zn1 1_555 1_555
C2_2 C5_2 1_555 1_555
C13_2 C15 1_555 1_555
C16_2 N4_2 1_555 1_555
O10 C31 1_555 1_555
C29 C25 1_555 1_555
O8 C31 1_555 1_555
C31 C25 1_555 1_555
N5_2 C18_2 1_555 1_555
C18_2 C17_2 1_555 1_555
H12_2 C18_2 1_555 1_555
C20_2 C17_2 1_555 1_555
Zn6 N5_2 1_555 1_555
O5 C31_2 1_555 1_555
N6_2 C24_2 1_555 1_555
C23_2 H16_2 1_555 1_555
N7_2 Zn6 1_555 1_555
C24_2 N7_2 1_555 1_555
H17_2 C24_2 1_555 1_555
C25_2 C26_2 1_555 1_555
C26_2 N6_2 1_555 1_555
C28_2 C23_2 1_555 1_555
C29_2 C25_2 1_555 1_555
O8_2 C31_2 1_555 1_555
C31_2 C25_2 1_555 1_555
C32_2 N7_2 1_555 1_555
H20_2 C32_2 1_555 1_555
N8_2 N6_2 1_555 1_555
C23_2 C26_2 1_555 1_555
C32_2 N8_2 1_555 1_555
O11 C6_2 1_555 1_555
H6_2 C10_2 1_555 1_555
H7_2 C11_2 1_555 1_555
C15_2 C11_2 1_555 1_555
H9_2 C15_2 1_555 1_555
H8_2 C14_2 1_555 1_555
H14_2 C21_2 1_555 1_555

#END
