
###############################################################################
#
# This file contains modified crystal structure data generated from the
# MOF subset of the Cambridge Structural Database (CSD) v543 
# hosted by the Cambridge Crystallographic Data Centre (CCDC).
#
# This work is licensed under the Creative Commons
# Attribution-NonCommercial-ShareAlike 4.0 International License.
# To view a copy of this license, visit
# http://creativecommons.org/licenses/by-nc-sa/4.0/
# or send a letter to
# Creative Commons, PO Box 1866, Mountain View, CA 94042, USA.
#
# CIF created using the CSD Python API on 29 September 2022
# The structure has been converted into the P1 space group
# The structure has a 3D framework
# The original CSD entry XUGFUD is in the triclinic crystal system
# The framework has been calculated to contain at least 10.0% void space
# The void calculation uses a probe of radius 1.32A, grid spacing 0.4
#
###############################################################################

data_XUGFUD
_chemical_formula_moiety         '(C44 H28 N8 O18 Pb4)n'
_symmetry_cell_setting           triclinic
_symmetry_space_group_name_H-M   'P 1'
_symmetry_Int_Tables_number      1
_space_group_name_Hall           'P 1'
loop_
_symmetry_equiv_pos_site_id
_symmetry_equiv_pos_as_xyz
1 x,y,z
_cell_length_a                   10.489(3)
_cell_length_b                   11.331(3)
_cell_length_c                   11.564(3)
_cell_angle_alpha                90.053(4)
_cell_angle_beta                 107.913(5)
_cell_angle_gamma                103.473(4)
_cell_volume                     1267.86
loop_
_atom_site_label
_atom_site_type_symbol
_atom_site_fract_x
_atom_site_fract_y
_atom_site_fract_z
Pb2 Pb 0.37451(7) 0.18169(6) 0.56026(6)
O3 O 0.4921(14) 0.6536(12) 0.2934(13)
O4 O 0.3938(14) 0.7997(12) 0.1977(12)
O6 O 0.1334(19) 0.1019(18) 0.3307(18)
O9 O 0.2138(19) 0.2513(16) 0.6809(16)
H1 H 0.1571 0.1994 0.7005
H2 H 0.1308 0.2432 0.6468
N1 N 0.3458(16) 0.3538(14) 0.4472(14)
N2 N 0.2797(15) 0.4534(13) 0.2883(13)
C3 C 0.1435(11) 0.3895(8) 0.0805(10)
H3 H 0.1091 0.3148 0.1069
C4 C 0.2408(11) 0.4804(9) 0.1636(7)
C5 C 0.2922(10) 0.5919(8) 0.1241(9)
C6 C 0.2462(12) 0.6126(8) 0.0014(9)
C8 C 0.4052(17) 0.6870(15) 0.2143(15)
C9 C 0.317(2) 0.3497(18) 0.3310(17)
H6 H 0.3200 0.2855 0.2827
C10 C 0.268(2) 0.5187(19) 0.3835(18)
H7 H 0.2335 0.5874 0.3806
C11 C 0.3188(19) 0.4597(17) 0.4819(18)
H8 H 0.3336 0.4867 0.5620
C12 C 0.024(2) 0.0366(19) 0.2988(19)
H9 H 0.0174 0.1688 0.4811
Pb5 Pb 0.21946(6) 0.91437(6) 0.24840(5)
Pb7 Pb 0.62549(7) 0.81831(6) 0.43974(6)
O10 O 0.5079(14) 0.3464(12) 0.7066(13)
O14 O 0.4500(14) 0.1244(13) 0.3524(12)
O16 O 0.6035(16) 0.1945(14) 0.5347(14)
C2 C 0.0975(11) 0.4101(9) 0.9578(9)
H4 H 0.2805 0.6872 0.9750
C7 C 0.1488(12) 0.5217(10) 0.9183(7)
H5 H 0.1181 0.5355 0.8362
O12 O 0.0147(18) 0.0700(15) 0.7479(16)
C13 C 0.8981(9) 0.0810(11) 0.3176(10)
C14 C 0.9270(8) 0.1455(11) 0.4287(9)
C15 C 0.8208(11) 0.1751(10) 0.4616(8)
H10 H 0.8402 0.2183 0.5359
C16 C 0.6858(9) 0.1403(11) 0.3834(10)
C17 C 0.6569(8) 0.0759(10) 0.2722(9)
H11 H 0.5665 0.0526 0.2199
C18 C 0.7630(10) 0.0462(10) 0.2394(8)
C19 C 0.8029(19) 0.0478(17) 0.0435(17)
H12 H 0.8675 0.1226 0.0608
C22 C 0.575(2) 0.1453(19) 0.428(2)
Pb1 Pb 0.78054(6) 0.08563(6) 0.75160(5)
O1 O 0.9360(14) 0.2196(13) 0.9131(13)
O2 O 0.9451(13) 0.3243(12) 0.7565(12)
C1 C 0.981(2) 0.3139(17) 0.8632(17)
O11 O 0.6062(14) 0.2003(12) 0.8023(12)
O5 O 0.9853(18) 0.9300(15) 0.2521(16)
N4 N 0.7455(16) 0.9957(14) 0.1198(14)
C20 C 0.6431(19) 0.8984(17) 0.0565(17)
H13 H 0.5764 0.8496 0.0849
N3 N 0.7590(16) 0.9821(14) 0.9364(14)
C21 C 0.657(2) 0.8864(18) 0.9461(18)
H14 H 0.6053 0.8238 0.8862
O13 O 0.8666(19) 0.8981(18) 0.6693(18)
O15 O 0.5500(14) 0.8756(13) 0.6476(12)
N3_2 N 0.2410(16) 0.0179(14) 0.0636(14)
C21_2 C 0.343(2) 0.1136(18) 0.0539(18)
H14_2 H 0.3947 0.1762 0.1138
N4_2 N 0.2545(16) 0.0043(14) 0.8802(14)
C20_2 C 0.3569(19) 0.1016(17) 0.9435(17)
H13_2 H 0.4236 0.1504 0.9151
O1_2 O 0.0640(14) 0.7804(13) 0.0869(13)
O2_2 O 0.0549(13) 0.6757(12) 0.2435(12)
C1_2 C 0.019(2) 0.6861(17) 0.1368(17)
O8 O 0.3965(16) 0.8055(14) 0.4653(14)
C13_2 C 0.1019(9) 0.9190(11) 0.6824(10)
C14_2 C 0.0730(8) 0.8545(11) 0.5713(9)
C15_2 C 0.1792(11) 0.8249(10) 0.5384(8)
H10_2 H 0.1598 0.7817 0.4641
C16_2 C 0.3142(9) 0.8597(11) 0.6166(10)
C17_2 C 0.3431(8) 0.9241(10) 0.7278(9)
H11_2 H 0.4335 0.9474 0.7801
C18_2 C 0.2370(10) 0.9538(10) 0.7606(8)
C19_2 C 0.1971(19) 0.9522(17) 0.9565(17)
H12_2 H 0.1325 0.8774 0.9392
C22_2 C 0.425(2) 0.8547(19) 0.572(2)
C2_2 C 0.9025(11) 0.5899(9) 0.0422(9)
H4_2 H 0.7195 0.3128 0.0250
C7_2 C 0.8512(12) 0.4783(10) 0.0817(7)
H5_2 H 0.8819 0.4645 0.1638
O9_2 O 0.7862(19) 0.7487(16) 0.3191(16)
H1_2 H 0.8429 0.8006 0.2995
H2_2 H 0.8692 0.7568 0.3532
N1_2 N 0.6542(16) 0.6462(14) 0.5528(14)
N2_2 N 0.7203(15) 0.5466(13) 0.7117(13)
C3_2 C 0.8565(11) 0.6105(8) 0.9195(10)
H3_2 H 0.8909 0.6852 0.8931
C4_2 C 0.7592(11) 0.5196(9) 0.8364(7)
C5_2 C 0.7078(10) 0.4081(8) 0.8759(9)
C6_2 C 0.7538(12) 0.3874(8) 0.9986(9)
C8_2 C 0.5948(17) 0.3130(15) 0.7857(15)
C9_2 C 0.683(2) 0.6503(18) 0.6690(17)
H6_2 H 0.6800 0.7145 0.7173
C10_2 C 0.732(2) 0.4813(19) 0.6165(18)
H7_2 H 0.7665 0.4126 0.6194
C11_2 C 0.6812(19) 0.5403(17) 0.5181(18)
H8_2 H 0.6664 0.5133 0.4380
C12_2 C 0.976(2) 0.9634(19) 0.7012(19)
H9_2 H 0.9826 0.8312 0.5189
loop_
_geom_bond_atom_site_label_1
_geom_bond_atom_site_label_2
_geom_bond_site_symmetry_1
_geom_bond_site_symmetry_2
Pb2 O9 1_555 1_555
O3 C8 1_555 1_555
O4 C8 1_555 1_555
O6 C12 1_555 1_555
O9 H1 1_555 1_555
H2 O9 1_555 1_555
N1 Pb2 1_555 1_555
N2 C4 1_555 1_555
H3 C3 1_555 1_555
C4 C3 1_555 1_555
C5 C4 1_555 1_555
C6 C5 1_555 1_555
C8 C5 1_555 1_555
C9 N1 1_555 1_555
H6 C9 1_555 1_555
C10 N2 1_555 1_555
H7 C10 1_555 1_555
C11 N1 1_555 1_555
H8 C11 1_555 1_555
Pb5 O4 1_555 1_555
Pb7 O3 1_555 1_555
O10 Pb2 1_555 1_555
O14 Pb2 1_555 1_555
O16 Pb2 1_555 1_555
N2 C9 1_555 1_555
C10 C11 1_555 1_555
C7 C2 1_555 1_555
H5 C7 1_555 1_555
O14 C22 1_555 1_555
O16 C22 1_555 1_555
C13 C14 1_555 1_555
C15 C14 1_555 1_555
H10 C15 1_555 1_555
C16 C15 1_555 1_555
C17 C16 1_555 1_555
H11 C17 1_555 1_555
C18 C13 1_555 1_555
H12 C19 1_555 1_555
C22 C16 1_555 1_555
C17 C18 1_555 1_555
Pb1 O1 1_555 1_555
O1 C1 1_555 1_555
O2 Pb1 1_555 1_555
C1 O2 1_555 1_555
O11 Pb1 1_555 1_555
C20 N4 1_555 1_555
H13 C20 1_555 1_555
C21 N3 1_555 1_555
H14 C21 1_555 1_555
C21_2 N3_2 1_555 1_555
H14_2 C21_2 1_555 1_555
C20_2 N4_2 1_555 1_555
H13_2 C20_2 1_555 1_555
Pb5 O1_2 1_555 1_555
O1_2 C1_2 1_555 1_555
O2_2 Pb5 1_555 1_555
C1_2 O2_2 1_555 1_555
O15 C22_2 1_555 1_555
O8 C22_2 1_555 1_555
C13_2 C14_2 1_555 1_555
C15_2 C14_2 1_555 1_555
H10_2 C15_2 1_555 1_555
C16_2 C15_2 1_555 1_555
C17_2 C16_2 1_555 1_555
H11_2 C17_2 1_555 1_555
C18_2 C13_2 1_555 1_555
H12_2 C19_2 1_555 1_555
C22_2 C16_2 1_555 1_555
Pb7 O15 1_555 1_555
O8 Pb7 1_555 1_555
C17_2 C18_2 1_555 1_555
C7_2 C2_2 1_555 1_555
H5_2 C7_2 1_555 1_555
Pb7 O9_2 1_555 1_555
O10 C8_2 1_555 1_555
O11 C8_2 1_555 1_555
O13 C12_2 1_555 1_555
O9_2 H1_2 1_555 1_555
H2_2 O9_2 1_555 1_555
N1_2 Pb7 1_555 1_555
N2_2 C4_2 1_555 1_555
H3_2 C3_2 1_555 1_555
C4_2 C3_2 1_555 1_555
C5_2 C4_2 1_555 1_555
C6_2 C5_2 1_555 1_555
C8_2 C5_2 1_555 1_555
C9_2 N1_2 1_555 1_555
H6_2 C9_2 1_555 1_555
C10_2 N2_2 1_555 1_555
H7_2 C10_2 1_555 1_555
C11_2 N1_2 1_555 1_555
H8_2 C11_2 1_555 1_555
N2_2 C9_2 1_555 1_555
C10_2 C11_2 1_555 1_555

#END
