
###############################################################################
#
# This file contains modified crystal structure data generated from the
# MOF subset of the Cambridge Structural Database (CSD) v543 
# hosted by the Cambridge Crystallographic Data Centre (CCDC).
#
# This work is licensed under the Creative Commons
# Attribution-NonCommercial-ShareAlike 4.0 International License.
# To view a copy of this license, visit
# http://creativecommons.org/licenses/by-nc-sa/4.0/
# or send a letter to
# Creative Commons, PO Box 1866, Mountain View, CA 94042, USA.
#
# CIF created using the CSD Python API on 29 September 2022
# The structure has been converted into the P1 space group
# The structure has a 3D framework
# The original CSD entry XUGGAK is in the triclinic crystal system
# The framework has been calculated to contain at least 10.0% void space
# The void calculation uses a probe of radius 1.32A, grid spacing 0.4
#
###############################################################################

data_XUGGAK
_chemical_formula_moiety         '(C44 H24 N8 O16 Pb2 Zn2)n'
_symmetry_cell_setting           triclinic
_symmetry_space_group_name_H-M   'P 1'
_symmetry_Int_Tables_number      1
_space_group_name_Hall           'P 1'
loop_
_symmetry_equiv_pos_site_id
_symmetry_equiv_pos_as_xyz
1 x,y,z
_cell_length_a                   10.1986(4)
_cell_length_b                   12.0740(5)
_cell_length_c                   13.1106(6)
_cell_angle_alpha                112.5250(10)
_cell_angle_beta                 91.2160(10)
_cell_angle_gamma                95.0110(10)
_cell_volume                     1482.93
loop_
_atom_site_label
_atom_site_type_symbol
_atom_site_fract_x
_atom_site_fract_y
_atom_site_fract_z
Pb2 Pb 0.05396(2) 0.63465(2) 0.16306(2)
Zn3 Zn 0.73361(4) 0.03197(4) 0.60240(3)
N5 N 0.3582(3) 0.1158(3) 0.5203(2)
N6 N 0.1098(3) 0.0293(3) 0.3517(2)
Zn1 Zn 0.26639(4) 0.96803(4) 0.39760(3)
O1 O 0.3954(2) 0.9025(2) 0.2905(2)
O2 O 0.2526(2) 0.8030(2) 0.1454(2)
O3 O 0.8605(3) 0.5131(3) 0.0093(2)
O5 O 0.2167(3) 0.8831(2) 0.4979(2)
O6 O 0.1882(3) 0.7249(3) 0.3424(2)
O7 O 0.1236(3) 0.3650(2) 0.6597(2)
O8 O 0.0275(3) 0.5162(2) 0.7804(2)
N1 N 0.5860(3) 0.7645(3) 0.3079(2)
N2 N 0.6418(3) 0.8842(3) 0.4797(2)
N3 N 0.0313(3) 0.8421(3) 0.6422(2)
C1 C 0.3630(3) 0.8224(3) 0.1933(3)
C2 C 0.4700(3) 0.7474(3) 0.1345(3)
C3 C 0.5740(3) 0.7212(3) 0.1895(3)
C4 C 0.6683(3) 0.6499(3) 0.1321(3)
H1 H 0.7363 0.6327 0.1703
C5 C 0.6615(3) 0.6040(3) 0.0174(3)
C7 C 0.4640(4) 0.6989(4) 0.0199(3)
C9 C 0.6553(4) 0.8660(3) 0.3753(3)
H4 H 0.7069 0.9177 0.3514
C10 C 0.5220(5) 0.7151(4) 0.3738(4)
H5 H 0.4652 0.6444 0.3507
C11 C 0.5580(5) 0.7898(4) 0.4782(3)
H6 H 0.5296 0.7784 0.5407
C12 C 0.1884(3) 0.7729(3) 0.4441(3)
C13 C 0.1606(3) 0.6944(3) 0.5080(3)
C14 C 0.0911(4) 0.7304(3) 0.6039(3)
C15 C 0.0717(4) 0.6593(3) 0.6639(3)
H7 H 0.0256 0.6861 0.7279
C16 C 0.1205(3) 0.5473(3) 0.6295(3)
C17 C 0.1880(4) 0.5094(3) 0.5327(3)
H8 H 0.2215 0.4349 0.5085
C18 C 0.2058(4) 0.5803(3) 0.4729(3)
H9 H 0.2488 0.5519 0.4074
C19 C 0.0906(4) 0.4691(4) 0.6931(3)
C22 C 0.0518(4) 0.9344(4) 0.7442(3)
H12 H 0.1136 0.9409 0.7998
O11 O 0.2507(3) 0.5263(3) 0.1471(2)
O4 O 0.7493(3) 0.4737(3) 0.8529(2)
C6 C 0.5585(4) 0.6283(4) 0.9615(3)
H2 H 0.5527 0.5972 0.8846
H3 H 0.3949 0.7141 0.9814
C8 C 0.7640(3) 0.5259(3) 0.9557(3)
Pb4 Pb 0.94604(2) 0.36535(2) 0.83694(2)
O10 O 0.1395(3) 0.4869(3) 0.9907(2)
C21 C 0.9659(4) 0.0134(4) 0.7486(3)
H11 H 0.9579 0.0850 0.8084
N4 N 0.8902(3) 0.9707(3) 0.6483(2)
C20 C 0.9347(4) 0.8675(3) 0.5871(3)
H10 H 0.9028 0.8192 0.5153
O12 O 0.9725(3) 0.4838(2) 0.2196(2)
C20_2 C 0.0653(4) 0.1325(3) 0.4129(3)
H10_2 H 0.0972 0.1808 0.4847
C21_2 C 0.0341(4) 0.9866(4) 0.2514(3)
H11_2 H 0.0421 0.9150 0.1916
C6_2 C 0.4415(4) 0.3717(4) 0.0385(3)
H2_2 H 0.4473 0.4028 0.1154
H3_2 H 0.6051 0.2859 0.0186
C8_2 C 0.2360(3) 0.4741(3) 0.0443(3)
O1_2 O 0.6046(2) 0.0975(2) 0.7095(2)
O2_2 O 0.7474(2) 0.1970(2) 0.8546(2)
O5_2 O 0.7833(3) 0.1169(2) 0.5021(2)
O6_2 O 0.8118(3) 0.2751(3) 0.6576(2)
O7_2 O 0.8764(3) 0.6350(2) 0.3403(2)
N1_2 N 0.4140(3) 0.2355(3) 0.6921(2)
N3_2 N 0.9687(3) 0.1579(3) 0.3578(2)
C1_2 C 0.6370(3) 0.1776(3) 0.8067(3)
C2_2 C 0.5300(3) 0.2526(3) 0.8655(3)
C3_2 C 0.4260(3) 0.2788(3) 0.8105(3)
C4_2 C 0.3317(3) 0.3501(3) 0.8679(3)
H1_2 H 0.2637 0.3673 0.8297
C5_2 C 0.3385(3) 0.3960(3) 0.9826(3)
C7_2 C 0.5360(4) 0.3011(4) 0.9801(3)
C9_2 C 0.3447(4) 0.1340(3) 0.6247(3)
H4_2 H 0.2931 0.0823 0.6486
C10_2 C 0.4780(5) 0.2849(4) 0.6262(4)
H5_2 H 0.5348 0.3556 0.6493
C11_2 C 0.4420(5) 0.2102(4) 0.5218(3)
H6_2 H 0.4704 0.2216 0.4593
C12_2 C 0.8116(3) 0.2271(3) 0.5559(3)
C13_2 C 0.8394(3) 0.3056(3) 0.4920(3)
C14_2 C 0.9089(4) 0.2696(3) 0.3961(3)
C15_2 C 0.9283(4) 0.3407(3) 0.3361(3)
H7_2 H 0.9744 0.3139 0.2721
C16_2 C 0.8795(3) 0.4527(3) 0.3705(3)
C17_2 C 0.8120(4) 0.4906(3) 0.4673(3)
H8_2 H 0.7785 0.5651 0.4915
C18_2 C 0.7942(4) 0.4197(3) 0.5271(3)
H9_2 H 0.7512 0.4481 0.5926
C19_2 C 0.9094(4) 0.5309(4) 0.3069(3)
C22_2 C 0.9482(4) 0.0656(4) 0.2558(3)
H12_2 H 0.8864 0.0591 0.2002
loop_
_geom_bond_atom_site_label_1
_geom_bond_atom_site_label_2
_geom_bond_site_symmetry_1
_geom_bond_site_symmetry_2
Pb2 O2 1_555 1_555
Zn1 O1 1_555 1_555
O1 C1 1_555 1_555
O2 C1 1_555 1_555
O5 Zn1 1_555 1_555
O6 Pb2 1_555 1_555
O7 C19 1_555 1_555
O8 C19 1_555 1_555
N1 C3 1_555 1_555
N2 C9 1_555 1_555
N3 C14 1_555 1_555
C1 C2 1_555 1_555
C2 C3 1_555 1_555
C3 C4 1_555 1_555
C4 H1 1_555 1_555
C5 C4 1_555 1_555
C7 C2 1_555 1_555
C9 N1 1_555 1_555
H4 C9 1_555 1_555
C10 N1 1_555 1_555
H5 C10 1_555 1_555
C11 N2 1_555 1_555
H6 C11 1_555 1_555
C12 O5 1_555 1_555
C13 C12 1_555 1_555
C14 C13 1_555 1_555
C15 C14 1_555 1_555
H7 C15 1_555 1_555
C16 C15 1_555 1_555
C17 C16 1_555 1_555
H8 C17 1_555 1_555
C18 C13 1_555 1_555
H9 C18 1_555 1_555
C19 C16 1_555 1_555
C22 N3 1_555 1_555
H12 C22 1_555 1_555
O11 Pb2 1_555 1_555
O6 C12 1_555 1_555
C10 C11 1_555 1_555
C17 C18 1_555 1_555
O4 C8 1_555 1_555
H2 C6 1_555 1_555
O4 Pb4 1_555 1_555
H11 C21 1_555 1_555
N4 C20 1_555 1_555
H10 C20 1_555 1_555
N6 C20_2 1_555 1_555
H10_2 C20_2 1_555 1_555
H11_2 C21_2 1_555 1_555
O11 C8_2 1_555 1_555
H2_2 C6_2 1_555 1_555
Pb4 O2_2 1_555 1_555
Zn3 O1_2 1_555 1_555
O1_2 C1_2 1_555 1_555
O2_2 C1_2 1_555 1_555
O5_2 Zn3 1_555 1_555
O6_2 Pb4 1_555 1_555
O7_2 C19_2 1_555 1_555
O12 C19_2 1_555 1_555
N1_2 C3_2 1_555 1_555
N5 C9_2 1_555 1_555
N3_2 C14_2 1_555 1_555
C1_2 C2_2 1_555 1_555
C2_2 C3_2 1_555 1_555
C3_2 C4_2 1_555 1_555
C4_2 H1_2 1_555 1_555
C5_2 C4_2 1_555 1_555
C7_2 C2_2 1_555 1_555
C9_2 N1_2 1_555 1_555
H4_2 C9_2 1_555 1_555
C10_2 N1_2 1_555 1_555
H5_2 C10_2 1_555 1_555
C11_2 N5 1_555 1_555
H6_2 C11_2 1_555 1_555
C12_2 O5_2 1_555 1_555
C13_2 C12_2 1_555 1_555
C14_2 C13_2 1_555 1_555
C15_2 C14_2 1_555 1_555
H7_2 C15_2 1_555 1_555
C16_2 C15_2 1_555 1_555
C17_2 C16_2 1_555 1_555
H8_2 C17_2 1_555 1_555
C18_2 C13_2 1_555 1_555
H9_2 C18_2 1_555 1_555
C19_2 C16_2 1_555 1_555
C22_2 N3_2 1_555 1_555
H12_2 C22_2 1_555 1_555
O6_2 C12_2 1_555 1_555
C10_2 C11_2 1_555 1_555
C17_2 C18_2 1_555 1_555

#END
