
###############################################################################
#
# This file contains modified crystal structure data generated from the
# MOF subset of the Cambridge Structural Database (CSD) v543 
# hosted by the Cambridge Crystallographic Data Centre (CCDC).
#
# This work is licensed under the Creative Commons
# Attribution-NonCommercial-ShareAlike 4.0 International License.
# To view a copy of this license, visit
# http://creativecommons.org/licenses/by-nc-sa/4.0/
# or send a letter to
# Creative Commons, PO Box 1866, Mountain View, CA 94042, USA.
#
# CIF created using the CSD Python API on 29 September 2022
# The structure has been converted into the P1 space group
# The structure has a 3D framework
# The original CSD entry XUGPIB is in the monoclinic crystal system
# The framework has been calculated to contain at least 10.0% void space
# The void calculation uses a probe of radius 1.32A, grid spacing 0.4
#
###############################################################################

data_XUGPIB
_chemical_formula_moiety         '(C56 H24 Fe12 N16 Ni2)n'
_symmetry_cell_setting           triclinic
_symmetry_space_group_name_H-M   'P 1'
_symmetry_Int_Tables_number      1
_space_group_name_Hall           'P 1'
loop_
_symmetry_equiv_pos_site_id
_symmetry_equiv_pos_as_xyz
1 x,y,z
_cell_length_a                   13.6588(13)
_cell_length_b                   7.0790(10)
_cell_length_c                   16.3728(19)
_cell_angle_alpha                90
_cell_angle_beta                 105.751(12)
_cell_angle_gamma                90
_cell_volume                     1523.65
loop_
_atom_site_label
_atom_site_type_symbol
_atom_site_fract_x
_atom_site_fract_y
_atom_site_fract_z
Fe6 Fe 0.0000 -0.0000 0.0000
Fe6_2 Fe -0.0000 -0.0000 1.0000
Fe6_3 Fe 0.0000 1.0000 0.0000
Fe6_4 Fe -0.0000 1.0000 1.0000
Fe6_5 Fe 1.0000 -0.0000 0.0000
Fe1 Fe 0.5000 -0.0000 0.0000
N1 N 0.5894(7) -0.0000 0.1172(7)
N4 N 0.9822(7) -0.0000 0.8743(6)
C1 C 0.6927(8) -0.0000 0.1348(8)
H1 H 0.7220 -0.0000 0.0898
C2 C 0.7561(10) -0.0000 0.2166(8)
H2 H 0.8263 -0.0000 0.2253
C3 C 0.7156(11) -0.0000 0.2851(10)
C4 C 0.6097(9) -0.0000 0.2689(9)
H3 H 0.5787 -0.0000 0.3130
C5 C 0.5531(9) -0.0000 0.1859(8)
H4 H 0.4828 -0.0000 0.1760
C6 C 0.7763(10) -0.0000 0.3714(9)
C7 C 0.8215(12) -0.0000 0.4443(9)
C8 C 0.8706(12) -0.0000 0.5310(10)
C9 C 0.9076(11) -0.0000 0.6088(10)
C10 C 0.9354(9) -0.0000 0.6967(10)
C11 C 0.9477(7) 0.1652(16) 0.7428(6)
H5 H 0.9424 0.2805 0.7147
C12 C 0.9678(6) 0.1619(15) 0.8301(6)
H6 H 0.9715 0.2756 0.8593
N12 N 0.4139(4) 0.1944(10) 0.0262(4)
C36 C 0.3570(5) 0.3119(11) 0.0317(5)
Ni4 Ni 0.26106(9) 0.5000 0.02923(10)
Fe6_6 Fe 1.0000 -0.0000 1.0000
Fe1_2 Fe 0.5000 -0.0000 1.0000
N9 N 0.4106(7) -0.0000 0.8828(7)
N10 N 0.0178(7) -0.0000 0.1257(6)
C21 C 0.3073(8) -0.0000 0.8652(8)
H9 H 0.2780 -0.0000 0.9102
C22 C 0.2439(10) -0.0000 0.7834(8)
H10 H 0.1737 -0.0000 0.7747
C23 C 0.2844(11) -0.0000 0.7149(10)
C24 C 0.3903(9) -0.0000 0.7311(9)
H11 H 0.4213 0.0000 0.6870
C25 C 0.4469(9) -0.0000 0.8141(8)
H12 H 0.5172 -0.0000 0.8240
C26 C 0.2237(10) -0.0000 0.6286(9)
C27 C 0.1785(12) -0.0000 0.5557(9)
C28 C 0.1294(12) -0.0000 0.4690(10)
C29 C 0.0924(11) -0.0000 0.3912(10)
C30 C 0.0646(9) -0.0000 0.3033(10)
C31 C 0.0523(7) 0.1652(16) 0.2572(6)
H13 H 0.0576 0.2805 0.2853
C32 C 0.0322(6) 0.1619(15) 0.1699(6)
H14 H 0.0285 0.2756 0.1407
N14 N 0.5861(4) 0.1944(10) 0.9738(4)
Fe6_7 Fe 1.0000 1.0000 0.0000
Fe1_3 Fe 0.5000 1.0000 0.0000
N1_2 N 0.5894(7) 1.0000 0.1172(7)
N2 N 0.4139(4) 0.8056(10) 0.0262(4)
N3 N 0.1038(4) 0.1953(10) 0.0139(4)
N4_2 N 0.9822(7) 1.0000 0.8743(6)
C1_2 C 0.6927(8) 1.0000 0.1348(8)
H1_2 H 0.7220 1.0000 0.0898
C2_2 C 0.7561(10) 1.0000 0.2166(8)
H2_2 H 0.8263 1.0000 0.2253
C3_2 C 0.7156(11) 1.0000 0.2851(10)
C4_2 C 0.6097(9) 1.0000 0.2689(9)
H3_2 H 0.5787 1.0000 0.3130
C5_2 C 0.5531(9) 1.0000 0.1859(8)
H4_2 H 0.4828 1.0000 0.1760
C6_2 C 0.7763(10) 1.0000 0.3714(9)
C7_2 C 0.8215(12) 1.0000 0.4443(9)
C8_2 C 0.8706(12) 1.0000 0.5310(10)
C9_2 C 0.9076(11) 1.0000 0.6088(10)
C10_2 C 0.9354(9) 1.0000 0.6967(10)
C13 C 0.3570(5) 0.6881(11) 0.0317(5)
C14 C 0.1619(5) 0.3129(11) 0.0199(5)
C15 C 0.9477(7) 0.8348(16) 0.7428(6)
H7 H 0.9424 0.7195 0.7147
C16 C 0.9678(6) 0.8381(15) 0.8301(6)
H8 H 0.9715 0.7244 0.8593
Fe6_8 Fe 1.0000 1.0000 1.0000
C39 C 0.1619(5) 0.6871(11) 0.0199(5)
Fe1_4 Fe 0.5000 1.0000 1.0000
N9_2 N 0.4106(7) 1.0000 0.8828(7)
N10_2 N 0.0178(7) 1.0000 0.1257(6)
C21_2 C 0.3073(8) 1.0000 0.8652(8)
H9_2 H 0.2780 1.0000 0.9102
C22_2 C 0.2439(10) 1.0000 0.7834(8)
H10_2 H 0.1737 1.0000 0.7747
C23_2 C 0.2844(11) 1.0000 0.7149(10)
C24_2 C 0.3903(9) 1.0000 0.7311(9)
H11_2 H 0.4213 1.0000 0.6870
C25_2 C 0.4469(9) 1.0000 0.8141(8)
H12_2 H 0.5172 1.0000 0.8240
C26_2 C 0.2237(10) 1.0000 0.6286(9)
C27_2 C 0.1785(12) 1.0000 0.5557(9)
C28_2 C 0.1294(12) 1.0000 0.4690(10)
C29_2 C 0.0924(11) 1.0000 0.3912(10)
C30_2 C 0.0646(9) 1.0000 0.3033(10)
C33 C 0.0523(7) 0.8348(16) 0.2572(6)
H15 H 0.0576 0.7195 0.2853
C34 C 0.0322(6) 0.8381(15) 0.1699(6)
H16 H 0.0285 0.7244 0.1407
N13 N 0.5861(4) 0.8056(10) 0.9738(4)
N8 N 0.1038(4) 0.8047(10) 0.0139(4)
Ni2 Ni 0.73894(9) 0.5000 0.97077(10)
N6 N 0.8962(4) 0.1953(10) 0.9861(4)
C17 C 0.6430(5) 0.6881(11) 0.9683(5)
C18 C 0.8381(5) 0.3129(11) 0.9801(5)
C37 C 0.6430(5) 0.3119(11) 0.9683(5)
C38 C 0.8381(5) 0.6871(11) 0.9801(5)
N7 N 0.8962(4) 0.8047(10) 0.9861(4)
loop_
_geom_bond_atom_site_label_1
_geom_bond_atom_site_label_2
_geom_bond_site_symmetry_1
_geom_bond_site_symmetry_2
Fe1 N1 1_555 1_555
N1 C1 1_555 1_555
N4 C12 1_555 1_555
C1 H1 1_555 1_555
C2 C1 1_555 1_555
H2 C2 1_555 1_555
C3 C2 1_555 1_555
C4 C3 1_555 1_555
H3 C4 1_555 1_555
C5 N1 1_555 1_555
H4 C5 1_555 1_555
C6 C3 1_555 1_555
C7 C6 1_555 1_555
C8 C7 1_555 1_555
C9 C8 1_555 1_555
C10 C9 1_555 1_555
C11 C10 1_555 1_555
H5 C11 1_555 1_555
C12 C11 1_555 1_555
H6 C12 1_555 1_555
N12 Fe1 1_555 1_555
C36 N12 1_555 1_555
Ni4 C36 1_555 1_555
Fe6_6 N4 1_555 1_555
C4 C5 1_555 1_555
N9 Fe1_2 1_555 1_555
N10 C32 1_555 1_555
C21 N9 1_555 1_555
H9 C21 1_555 1_555
C22 C21 1_555 1_555
H10 C22 1_555 1_555
C23 C22 1_555 1_555
C24 C23 1_555 1_555
H11 C24 1_555 1_555
C25 N9 1_555 1_555
H12 C25 1_555 1_555
C26 C23 1_555 1_555
C27 C26 1_555 1_555
C28 C27 1_555 1_555
C29 C28 1_555 1_555
C30 C29 1_555 1_555
C31 C30 1_555 1_555
H13 C31 1_555 1_555
C32 C31 1_555 1_555
H14 C32 1_555 1_555
Fe6 N10 1_555 1_555
N14 Fe1_2 1_555 1_555
C24 C25 1_555 1_555
Ni4 C13 1_555 1_555
Fe1_3 N1_2 1_555 1_555
Fe6 N3 1_555 1_555
N1_2 C1_2 1_555 1_555
N2 Fe1_3 1_555 1_555
N3 C14 1_555 1_555
C1_2 H1_2 1_555 1_555
C2_2 C1_2 1_555 1_555
H2_2 C2_2 1_555 1_555
C3_2 C2_2 1_555 1_555
C4_2 C3_2 1_555 1_555
H3_2 C4_2 1_555 1_555
C5_2 N1_2 1_555 1_555
H4_2 C5_2 1_555 1_555
C6_2 C3_2 1_555 1_555
C7_2 C6_2 1_555 1_555
C8_2 C7_2 1_555 1_555
C9_2 C8_2 1_555 1_555
C10_2 C9_2 1_555 1_555
C13 N2 1_555 1_555
C14 Ni4 1_555 1_555
C15 C10_2 1_555 1_555
H7 C15 1_555 1_555
C16 N4_2 1_555 1_555
H8 C16 1_555 1_555
Fe6_8 N4_2 1_555 1_555
C39 Ni4 1_555 1_555
C4_2 C5_2 1_555 1_555
C15 C16 1_555 1_555
N9_2 Fe1_4 1_555 1_555
C21_2 N9_2 1_555 1_555
H9_2 C21_2 1_555 1_555
C22_2 C21_2 1_555 1_555
H10_2 C22_2 1_555 1_555
C23_2 C22_2 1_555 1_555
C24_2 C23_2 1_555 1_555
H11_2 C24_2 1_555 1_555
C25_2 N9_2 1_555 1_555
H12_2 C25_2 1_555 1_555
C26_2 C23_2 1_555 1_555
C27_2 C26_2 1_555 1_555
C28_2 C27_2 1_555 1_555
C29_2 C28_2 1_555 1_555
C30_2 C29_2 1_555 1_555
C33 C30_2 1_555 1_555
H15 C33 1_555 1_555
C34 N10_2 1_555 1_555
H16 C34 1_555 1_555
Fe6_3 N10_2 1_555 1_555
N13 Fe1_4 1_555 1_555
C24_2 C25_2 1_555 1_555
C33 C34 1_555 1_555
N8 Fe6_3 1_555 1_555
C39 N8 1_555 1_555
Ni2 C17 1_555 1_555
N13 C17 1_555 1_555
N6 Fe6_6 1_555 1_555
C18 Ni2 1_555 1_555
C37 Ni2 1_555 1_555
C38 Ni2 1_555 1_555
N6 C18 1_555 1_555
N7 Fe6_8 1_555 1_555
C38 N7 1_555 1_555
C37 N14 1_555 1_555

#END
