
###############################################################################
#
# This file contains modified crystal structure data generated from the
# MOF subset of the Cambridge Structural Database (CSD) v543 
# hosted by the Cambridge Crystallographic Data Centre (CCDC).
#
# This work is licensed under the Creative Commons
# Attribution-NonCommercial-ShareAlike 4.0 International License.
# To view a copy of this license, visit
# http://creativecommons.org/licenses/by-nc-sa/4.0/
# or send a letter to
# Creative Commons, PO Box 1866, Mountain View, CA 94042, USA.
#
# CIF created using the CSD Python API on 29 September 2022
# The structure has been converted into the P1 space group
# The structure has a 3D framework
# The original CSD entry XUGPEX is in the monoclinic crystal system
# The framework has been calculated to contain at least 10.0% void space
# The void calculation uses a probe of radius 1.32A, grid spacing 0.4
#
###############################################################################

data_XUGPEX
_chemical_formula_moiety         '(C56 H24 Fe12 N16 Pt2)n'
_symmetry_cell_setting           triclinic
_symmetry_space_group_name_H-M   'P 1'
_symmetry_Int_Tables_number      1
_space_group_name_Hall           'P 1'
loop_
_symmetry_equiv_pos_site_id
_symmetry_equiv_pos_as_xyz
1 x,y,z
_cell_length_a                   14.3098(5)
_cell_length_b                   7.5424(2)
_cell_length_c                   15.8953(8)
_cell_angle_alpha                90
_cell_angle_beta                 99.900(4)
_cell_angle_gamma                90
_cell_volume                     1690.04
loop_
_atom_site_label
_atom_site_type_symbol
_atom_site_fract_x
_atom_site_fract_y
_atom_site_fract_z
Fe5 Fe -0.0000 -0.0000 -0.0000
Fe5_2 Fe 0.0000 0.0000 1.0000
Fe5_3 Fe 0.0000 1.0000 -0.0000
Fe5_4 Fe 0.0000 1.0000 1.0000
Fe5_5 Fe 1.0000 -0.0000 -0.0000
Fe1 Fe 0.5000 0.0000 0.0000
N3 N 0.5968(7) 0.0000 0.1226(6)
C3 C 0.6913(9) 0.0000 0.1289(8)
C4 C 0.5625(12) 0.0000 0.1964(10)
H1 H 0.7165 0.0000 0.0787
C5 C 0.7534(11) 0.0000 0.2055(10)
C6 C 0.6183(13) 0.0000 0.2741(10)
H2 H 0.4971 0.0000 0.1937
H3 H 0.8185 0.0000 0.2060
C7 C 0.7195(11) 0.0000 0.2799(11)
H4 H 0.5914 0.0000 0.3234
C8 C 0.7790(15) 0.0000 0.3624(12)
C9 C 0.8198(15) 0.0000 0.4343(12)
C10 C 0.8685(15) 0.0000 0.5144(12)
C11 C 0.9022(16) 0.0000 0.5924(12)
C12 C 0.9362(13) 0.0000 0.6802(11)
C13 C 0.9520(10) 0.153(2) 0.7267(8)
H5 H 0.9474 0.2619 0.6987
C14 C 0.9743(9) 0.1484(18) 0.8140(7)
H6 H 0.9849 0.2552 0.8434
N7 N 0.4138(5) 0.2025(9) 0.0416(5)
C19 C 0.3590(6) 0.3119(11) 0.0410(6)
Pt2 Pt 0.25980(3) 0.5000 0.02951(3)
N15 N 0.9814(9) 0.0000 0.8583(8)
Fe5_6 Fe 1.0000 0.0000 1.0000
Fe1_2 Fe 0.5000 0.0000 1.0000
N6 N 0.4032(7) 0.0000 0.8774(6)
N9 N 0.5862(5) 0.2025(9) 0.9584(5)
C17 C 0.3087(9) 0.0000 0.8711(8)
C18 C 0.4375(12) 0.0000 0.8036(10)
H7 H 0.2835 0.0000 0.9213
C24 C 0.2466(11) 0.0000 0.7945(10)
C25 C 0.3817(13) 0.0000 0.7259(10)
H8 H 0.5029 0.0000 0.8063
H9 H 0.1815 0.0000 0.7940
C26 C 0.2805(11) 0.0000 0.7201(11)
H10 H 0.4086 0.0000 0.6766
C29 C 0.2210(15) 0.0000 0.6376(12)
C30 C 0.1802(15) 0.0000 0.5657(12)
C31 C 0.1315(15) 0.0000 0.4856(12)
C32 C 0.0978(16) 0.0000 0.4076(12)
C33 C 0.0638(13) 0.0000 0.3198(11)
C35 C 0.0480(10) 0.153(2) 0.2733(8)
H12 H 0.0526 0.2619 0.3013
C38 C 0.0257(9) 0.1484(18) 0.1860(7)
N16 N 0.0186(9) 0.0000 0.1417(8)
H15 H 0.0151 0.2552 0.1566
Fe5_7 Fe 1.0000 1.0000 -0.0000
C1 C 0.3590(6) 0.6881(11) 0.0410(6)
C2 C 0.1615(5) 0.3129(11) 0.0153(6)
N1 N 0.4138(5) 0.7975(9) 0.0416(5)
N2 N 0.1066(5) 0.2023(10) 0.0066(5)
Fe1_3 Fe 0.5000 1.0000 0.0000
N3_2 N 0.5968(7) 1.0000 0.1226(6)
C3_2 C 0.6913(9) 1.0000 0.1289(8)
C4_2 C 0.5625(12) 1.0000 0.1964(10)
H1_2 H 0.7165 1.0000 0.0787
C5_2 C 0.7534(11) 1.0000 0.2055(10)
C6_2 C 0.6183(13) 1.0000 0.2741(10)
H2_2 H 0.4971 1.0000 0.1937
H3_2 H 0.8185 1.0000 0.2060
C7_2 C 0.7195(11) 1.0000 0.2799(11)
H4_2 H 0.5914 1.0000 0.3234
C8_2 C 0.7790(15) 1.0000 0.3624(12)
C9_2 C 0.8198(15) 1.0000 0.4343(12)
C10_2 C 0.8685(15) 1.0000 0.5144(12)
C11_2 C 0.9022(16) 1.0000 0.5924(12)
C12_2 C 0.9362(13) 1.0000 0.6802(11)
C16 C 0.1615(5) 0.6871(11) 0.0153(6)
C34 C 0.9520(10) 0.847(2) 0.7267(8)
H11 H 0.9474 0.7381 0.6987
C37 C 0.9743(9) 0.8516(18) 0.8140(7)
N15_2 N 0.9814(9) 1.0000 0.8583(8)
H14 H 0.9849 0.7448 0.8434
Fe5_8 Fe 1.0000 1.0000 1.0000
Fe1_4 Fe 0.5000 1.0000 1.0000
N6_2 N 0.4032(7) 1.0000 0.8774(6)
N8 N 0.5862(5) 0.7975(9) 0.9584(5)
C17_2 C 0.3087(9) 1.0000 0.8711(8)
C18_2 C 0.4375(12) 1.0000 0.8036(10)
H7_2 H 0.2835 1.0000 0.9213
C24_2 C 0.2466(11) 1.0000 0.7945(10)
C25_2 C 0.3817(13) 1.0000 0.7259(10)
H8_2 H 0.5029 1.0000 0.8063
H9_2 H 0.1815 1.0000 0.7940
C26_2 C 0.2805(11) 1.0000 0.7201(11)
H10_2 H 0.4086 1.0000 0.6766
C29_2 C 0.2210(15) 1.0000 0.6376(12)
C30_2 C 0.1802(15) 1.0000 0.5657(12)
C31_2 C 0.1315(15) 1.0000 0.4856(12)
C32_2 C 0.0978(16) 1.0000 0.4076(12)
C33_2 C 0.0638(13) 1.0000 0.3198(11)
C36 C 0.0480(10) 0.847(2) 0.2733(8)
H13 H 0.0526 0.7381 0.3013
C39 C 0.0257(9) 0.8516(18) 0.1860(7)
N16_2 N 0.0186(9) 1.0000 0.1417(8)
H16 H 0.0151 0.7448 0.1566
N12 N 0.1066(5) 0.7977(10) 0.0066(5)
N10 N 0.8934(5) 0.2023(10) 0.9934(5)
C20 C 0.8385(5) 0.3129(11) 0.9847(6)
C23 C 0.8385(5) 0.6871(11) 0.9847(6)
Pt3 Pt 0.74020(3) 0.5000 0.97049(3)
C27 C 0.6410(6) 0.6881(11) 0.9590(6)
C28 C 0.6410(6) 0.3119(11) 0.9590(6)
N11 N 0.8934(5) 0.7977(10) 0.9934(5)
loop_
_geom_bond_atom_site_label_1
_geom_bond_atom_site_label_2
_geom_bond_site_symmetry_1
_geom_bond_site_symmetry_2
Fe1 N3 1_555 1_555
N3 C3 1_555 1_555
C3 H1 1_555 1_555
C4 N3 1_555 1_555
C5 C3 1_555 1_555
C6 C4 1_555 1_555
H2 C4 1_555 1_555
H3 C5 1_555 1_555
C7 C5 1_555 1_555
H4 C6 1_555 1_555
C8 C7 1_555 1_555
C9 C8 1_555 1_555
C10 C9 1_555 1_555
C11 C10 1_555 1_555
C12 C11 1_555 1_555
C13 C12 1_555 1_555
H5 C13 1_555 1_555
C14 C13 1_555 1_555
H6 C14 1_555 1_555
N7 Fe1 1_555 1_555
C19 N7 1_555 1_555
Pt2 C19 1_555 1_555
N15 C14 1_555 1_555
Fe5_6 N15 1_555 1_555
C6 C7 1_555 1_555
N6 Fe1_2 1_555 1_555
N9 Fe1_2 1_555 1_555
C17 N6 1_555 1_555
C18 N6 1_555 1_555
H7 C17 1_555 1_555
C24 C17 1_555 1_555
C25 C18 1_555 1_555
H8 C18 1_555 1_555
H9 C24 1_555 1_555
C26 C24 1_555 1_555
H10 C25 1_555 1_555
C29 C26 1_555 1_555
C30 C29 1_555 1_555
C31 C30 1_555 1_555
C32 C31 1_555 1_555
C33 C32 1_555 1_555
C35 C33 1_555 1_555
H12 C35 1_555 1_555
C38 C35 1_555 1_555
N16 C38 1_555 1_555
H15 C38 1_555 1_555
Fe5 N16 1_555 1_555
C25 C26 1_555 1_555
Pt2 C1 1_555 1_555
C1 N1 1_555 1_555
C2 Pt2 1_555 1_555
N1 Fe1_3 1_555 1_555
N2 C2 1_555 1_555
Fe1_3 N3_2 1_555 1_555
Fe5 N2 1_555 1_555
N3_2 C3_2 1_555 1_555
C3_2 H1_2 1_555 1_555
C4_2 N3_2 1_555 1_555
C5_2 C3_2 1_555 1_555
C6_2 C4_2 1_555 1_555
H2_2 C4_2 1_555 1_555
H3_2 C5_2 1_555 1_555
C7_2 C5_2 1_555 1_555
H4_2 C6_2 1_555 1_555
C8_2 C7_2 1_555 1_555
C9_2 C8_2 1_555 1_555
C10_2 C9_2 1_555 1_555
C11_2 C10_2 1_555 1_555
C12_2 C11_2 1_555 1_555
C16 Pt2 1_555 1_555
C34 C12_2 1_555 1_555
H11 C34 1_555 1_555
C37 C34 1_555 1_555
H14 C37 1_555 1_555
Fe5_8 N15_2 1_555 1_555
C6_2 C7_2 1_555 1_555
C37 N15_2 1_555 1_555
N6_2 Fe1_4 1_555 1_555
N8 Fe1_4 1_555 1_555
C17_2 N6_2 1_555 1_555
C18_2 N6_2 1_555 1_555
H7_2 C17_2 1_555 1_555
C24_2 C17_2 1_555 1_555
C25_2 C18_2 1_555 1_555
H8_2 C18_2 1_555 1_555
H9_2 C24_2 1_555 1_555
C26_2 C24_2 1_555 1_555
H10_2 C25_2 1_555 1_555
C29_2 C26_2 1_555 1_555
C30_2 C29_2 1_555 1_555
C31_2 C30_2 1_555 1_555
C32_2 C31_2 1_555 1_555
C33_2 C32_2 1_555 1_555
C36 C33_2 1_555 1_555
H13 C36 1_555 1_555
C39 C36 1_555 1_555
H16 C39 1_555 1_555
Fe5_3 N16_2 1_555 1_555
C25_2 C26_2 1_555 1_555
C39 N16_2 1_555 1_555
N12 Fe5_3 1_555 1_555
C16 N12 1_555 1_555
N10 Fe5_6 1_555 1_555
C20 N10 1_555 1_555
C23 Pt3 1_555 1_555
Pt3 C20 1_555 1_555
C27 Pt3 1_555 1_555
C28 Pt3 1_555 1_555
N8 C27 1_555 1_555
N11 Fe5_8 1_555 1_555
C23 N11 1_555 1_555
C28 N9 1_555 1_555

#END
