
###############################################################################
#
# This file contains modified crystal structure data generated from the
# MOF subset of the Cambridge Structural Database (CSD) v543 
# hosted by the Cambridge Crystallographic Data Centre (CCDC).
#
# This work is licensed under the Creative Commons
# Attribution-NonCommercial-ShareAlike 4.0 International License.
# To view a copy of this license, visit
# http://creativecommons.org/licenses/by-nc-sa/4.0/
# or send a letter to
# Creative Commons, PO Box 1866, Mountain View, CA 94042, USA.
#
# CIF created using the CSD Python API on 29 September 2022
# The structure has been converted into the P1 space group
# The structure has a 3D framework
# The original CSD entry XULGUI is in the triclinic crystal system
# The framework has been calculated to contain at least 10.0% void space
# The void calculation uses a probe of radius 1.32A, grid spacing 0.4
#
###############################################################################

data_XULGUI
_chemical_formula_moiety         '(C60 H34 Dy2 N4 O10)n'
_symmetry_cell_setting           triclinic
_symmetry_space_group_name_H-M   'P 1'
_symmetry_Int_Tables_number      1
_space_group_name_Hall           'P 1'
loop_
_symmetry_equiv_pos_site_id
_symmetry_equiv_pos_as_xyz
1 x,y,z
_cell_length_a                   10.8237(11)
_cell_length_b                   12.1862(13)
_cell_length_c                   12.2493(12)
_cell_angle_alpha                94.301(3)
_cell_angle_beta                 106.530(4)
_cell_angle_gamma                101.281(3)
_cell_volume                     1504.24
loop_
_atom_site_label
_atom_site_type_symbol
_atom_site_fract_x
_atom_site_fract_y
_atom_site_fract_z
_atom_site_U_iso_or_equiv
_atom_site_thermal_displace_type
C40 C 0.0062(7) 0.4356(6) 0.1350(5) 0.0367 Uani
H22 H 0.0156 0.3681 0.1635 0.0440 Uiso
C41 C 0.0051(7) 0.4469(5) 0.0184(5) 0.0320 Uani
O10 O 0.0456(5) 0.4339(4) 0.3721(3) 0.0370 Uani
Dy3 Dy 0.08325(3) 0.30978(2) 0.49819(2) 0.0250 Uani
C1 C 0.3515(8) 0.5339(6) 0.5651(6) 0.0426 Uani
H1 H 0.2873 0.5682 0.5230 0.0510 Uiso
C2 C 0.4807(8) 0.5967(6) 0.6082(7) 0.0556 Uani
H2 H 0.5010 0.6713 0.5952 0.0670 Uiso
C3 C 0.5778(8) 0.5499(7) 0.6691(7) 0.0542 Uani
H3 H 0.6649 0.5912 0.6971 0.0650 Uiso
C4 C 0.5436(7) 0.4375(6) 0.6891(6) 0.0447 Uani
C5 C 0.4106(6) 0.3789(5) 0.6437(5) 0.0332 Uani
C6 C 0.3722(7) 0.2638(6) 0.6635(5) 0.0352 Uani
C7 C 0.2086(8) 0.1065(5) 0.6436(6) 0.0381 Uani
H4 H 0.1200 0.0692 0.6151 0.0460 Uiso
C8 C 0.2978(8) 0.0505(7) 0.7064(7) 0.0510 Uani
C9 C 0.4266(8) 0.1017(7) 0.7468(7) 0.0541 Uani
H6 H 0.4874 0.0636 0.7876 0.0650 Uiso
C10 C 0.4698(7) 0.2134(7) 0.7274(6) 0.0488 Uani
C11 C 0.6030(8) 0.2732(9) 0.7679(8) 0.0701 Uani
H7 H 0.6675 0.2375 0.8067 0.0840 Uiso
C12 C 0.6381(8) 0.3810(8) 0.7514(8) 0.0664 Uani
H8 H 0.7263 0.4195 0.7813 0.0800 Uiso
C13 C 0.0877(8) 0.1811(6) 0.3058(6) 0.0436 Uani
C14 C 0.0757(7) 0.1232(5) 0.1910(5) 0.0336 Uani
C15 C 0.1790(7) 0.1453(6) 0.1445(6) 0.0470 Uani
H9 H 0.2563 0.1982 0.1845 0.0560 Uiso
C19 C 0.0097(6) 0.4947(5) 0.6760(5) 0.0294 Uani
C20 C 0.0062(6) 0.4786(5) 0.7977(5) 0.0282 Uani
C21 C 0.0162(7) 0.3741(6) 0.8356(5) 0.0387 Uani
H12 H 0.0236 0.3150 0.7870 0.0470 Uiso
N1 N 0.2436(5) 0.2115(4) 0.6221(4) 0.0304 Uani
N2 N 0.3150(5) 0.4277(4) 0.5809(4) 0.0317 Uani
O1 O 0.0689(5) 0.4347(4) 0.6348(3) 0.0348 Uani
O5 O 0.1921(5) 0.2517(4) 0.3629(4) 0.0372 Uani
C36 C 0.1677(8) 0.0898(7) 0.0402(6) 0.0594 Uani
H20 H 0.2379 0.1048 0.0098 0.0710 Uiso
C42 C 0.0150(8) 0.3601(6) 0.9460(6) 0.0433 Uani
H23 H 0.0209 0.2908 0.9717 0.0520 Uiso
C34 C 0.0364(8) 0.9522(6) 0.8674(6) 0.0495 Uani
H19 H 0.1052 0.9668 0.8354 0.0590 Uiso
O7 O 0.0079(6) 0.8385(5) 0.6536(4) 0.0638 Uani
C17 C 0.9479(7) 0.9892(6) 0.0217(6) 0.0416 Uani
C30 C 0.6319(8) 0.9649(7) 0.6171(8) 0.0663 Uani
H17 H 0.6407 0.9162 0.6723 0.0800 Uiso
C43 C 0.1498(6) 0.8056(5) 0.4703(5) 0.0298 Uani
C44 C 0.2702(6) 0.8826(6) 0.4648(5) 0.0327 Uani
C45 C 0.3915(7) 0.8831(6) 0.5372(6) 0.0377 Uani
H24 H 0.3983 0.8301 0.5882 0.0450 Uiso
C46 C 0.5060(6) 0.9594(5) 0.5384(6) 0.0344 Uani
C47 C 0.2606(7) 0.9602(7) 0.3871(7) 0.0533 Uani
H25 H 0.1782 0.9604 0.3368 0.0640 Uiso
O11 O 0.0388(4) 0.8176(4) 0.4132(4) 0.0352 Uani
O12 O 0.1574(4) 0.7314(4) 0.5386(4) 0.0397 Uani
C35 C 0.0521(7) 0.0108(6) 0.9783(6) 0.0416 Uani
C24 C 0.9850(8) 0.6399(6) 0.0540(6) 0.0433 Uani
H14 H 0.9791 0.7092 0.0283 0.0520 Uiso
C37 C 0.9903(6) 0.5053(5) 0.3240(5) 0.0294 Uani
C38 C 0.9938(6) 0.5214(5) 0.2023(5) 0.0282 Uani
C39 C 0.9838(7) 0.6259(6) 0.1644(5) 0.0387 Uani
H21 H 0.9764 0.6850 0.2130 0.0470 Uiso
O9 O 0.9311(5) 0.5653(4) 0.3652(3) 0.0348 Uani
Dy6 Dy 0.91675(3) 0.69022(2) 0.50181(2) 0.0250 Uani
C16 C 0.9636(8) 0.0478(6) 0.1326(6) 0.0495 Uani
H10 H 0.8948 0.0332 0.1646 0.0590 Uiso
C22 C 0.9938(7) 0.5644(6) 0.8650(5) 0.0367 Uani
H13 H 0.9844 0.6319 0.8365 0.0440 Uiso
C23 C 0.9949(7) 0.5531(5) 0.9816(5) 0.0320 Uani
C25 C 0.8502(6) 0.1944(5) 0.5297(5) 0.0298 Uani
C26 C 0.7298(6) 0.1174(6) 0.5352(5) 0.0327 Uani
C27 C 0.6085(7) 0.1169(6) 0.4628(6) 0.0377 Uani
H15 H 0.6017 0.1699 0.4118 0.0450 Uiso
C28 C 0.4940(6) 0.0406(5) 0.4616(6) 0.0344 Uani
C29 C 0.7394(7) 0.0398(7) 0.6129(7) 0.0533 Uani
H16 H 0.8218 0.0396 0.6632 0.0640 Uiso
O2 O 0.9612(4) 0.1824(4) 0.5868(4) 0.0352 Uani
O3 O 0.8426(4) 0.2686(4) 0.4614(4) 0.0397 Uani
O4 O 0.9921(6) 0.1615(5) 0.3464(4) 0.0638 Uani
O6 O 0.9544(5) 0.5661(4) 0.6279(3) 0.0370 Uani
C48 C 0.3681(8) 0.0351(7) 0.3829(8) 0.0663 Uani
H26 H 0.3593 0.0838 0.3277 0.0800 Uiso
C18 C 0.8323(8) 0.9102(7) 0.9598(6) 0.0594 Uani
H11 H 0.7621 0.8952 0.9902 0.0710 Uiso
C31 C 0.9123(8) 0.8189(6) 0.6942(6) 0.0436 Uani
C32 C 0.9243(7) 0.8768(5) 0.8090(5) 0.0336 Uani
C33 C 0.8210(7) 0.8547(6) 0.8555(6) 0.0470 Uani
H18 H 0.7437 0.8018 0.8155 0.0560 Uiso
O8 O 0.8079(5) 0.7483(4) 0.6371(4) 0.0372 Uani
C49 C 0.6485(8) 0.4661(6) 0.4349(6) 0.0426 Uani
H27 H 0.7127 0.4318 0.4770 0.0510 Uiso
C50 C 0.5193(8) 0.4033(6) 0.3918(7) 0.0556 Uani
H28 H 0.4990 0.3287 0.4048 0.0670 Uiso
C51 C 0.4222(8) 0.4501(7) 0.3309(7) 0.0542 Uani
H29 H 0.3351 0.4088 0.3029 0.0650 Uiso
C52 C 0.4564(7) 0.5625(6) 0.3109(6) 0.0447 Uani
C53 C 0.5894(6) 0.6211(5) 0.3563(5) 0.0332 Uani
C54 C 0.6278(7) 0.7362(6) 0.3365(5) 0.0352 Uani
C55 C 0.7914(8) 0.8935(5) 0.3564(6) 0.0381 Uani
H30 H 0.8800 0.9308 0.3849 0.0460 Uiso
C56 C 0.7022(8) 0.9495(7) 0.2936(7) 0.0510 Uani
C57 C 0.5734(8) 0.8983(7) 0.2532(7) 0.0541 Uani
H32 H 0.5126 0.9364 0.2124 0.0650 Uiso
C58 C 0.5302(7) 0.7866(7) 0.2726(6) 0.0488 Uani
C59 C 0.3970(8) 0.7268(9) 0.2321(8) 0.0701 Uani
H33 H 0.3325 0.7625 0.1933 0.0840 Uiso
C60 C 0.3619(8) 0.6190(8) 0.2486(8) 0.0664 Uani
H34 H 0.2737 0.5805 0.2187 0.0800 Uiso
N3 N 0.7564(5) 0.7885(4) 0.3779(4) 0.0304 Uani
N4 N 0.6850(5) 0.5723(4) 0.4191(4) 0.0317 Uani
H5 H 0.2687 0.9775 0.7206 0.0610 Uiso
H31 H 0.7313 0.0225 0.2794 0.0610 Uiso
loop_
_atom_site_aniso_label
_atom_site_aniso_U_11
_atom_site_aniso_U_22
_atom_site_aniso_U_33
_atom_site_aniso_U_23
_atom_site_aniso_U_13
_atom_site_aniso_U_12
C40 0.045 0.04 0.03 0.013 0.012 0.017
C41 0.046 0.033 0.02 0.006 0.011 0.014
O10 0.053 0.043 0.019 0.012 0.01 0.019
Dy3 0.02455 0.02677 0.01995 0.00073 0.00501 0.00073
C1 0.045 0.032 0.051 0.007 0.017 0.005
C2 0.052 0.031 0.081 -0.007 0.034 -0.012
C3 0.034 0.058 0.061 -0.016 0.02 -0.011
C4 0.032 0.05 0.047 -0.004 0.013 0
C5 0.022 0.037 0.033 -0.007 0.007 -0.004
C6 0.031 0.046 0.03 0.002 0.01 0.012
C7 0.048 0.033 0.035 0.011 0.013 0.01
C8 0.05 0.052 0.058 0.02 0.02 0.018
C9 0.05 0.059 0.055 0.018 0.007 0.026
C10 0.033 0.062 0.05 0.007 0.007 0.016
C11 0.034 0.086 0.083 0.024 0 0.019
C12 0.027 0.087 0.072 0 0.002 0.006
C13 0.056 0.027 0.043 -0.003 0.014 0.003
C14 0.043 0.035 0.021 -0.001 0.011 0.005
C15 0.037 0.041 0.049 -0.016 0.011 -0.012
C19 0.03 0.034 0.019 0.001 0.005 0
C20 0.027 0.04 0.016 0.001 0.006 0.006
C21 0.056 0.038 0.026 0.008 0.015 0.015
N1 0.025 0.032 0.028 0.003 0.003 0
N2 0.029 0.034 0.031 0.001 0.013 0
O1 0.048 0.036 0.021 -0.0013 0.013 0.009
O5 0.033 0.039 0.033 -0.011 0.008 0.002
C36 0.045 0.077 0.042 -0.024 0.025 -0.024
C42 0.065 0.036 0.038 0.012 0.023 0.019
C34 0.053 0.049 0.04 -0.009 0.024 -0.012
O7 0.06 0.072 0.046 -0.028 0.036 -0.032
C17 0.042 0.046 0.028 -0.012 0.012 -0.006
C30 0.034 0.073 0.09 0.056 0.009 0.006
C43 0.031 0.034 0.024 0.004 0.01 0.004
C44 0.027 0.038 0.03 0.012 0.007 0
C45 0.034 0.032 0.05 0.017 0.015 0.007
C46 0.021 0.033 0.047 0.017 0.007 0.002
C47 0.021 0.064 0.068 0.031 0.004 0
O11 0.026 0.046 0.033 0.014 0.008 0.005
O12 0.025 0.039 0.05 0.017 0.007 -0.002
C35 0.042 0.046 0.028 -0.012 0.012 -0.006
C24 0.065 0.036 0.038 0.012 0.023 0.019
C37 0.03 0.034 0.019 0.001 0.005 0
C38 0.027 0.04 0.016 0.001 0.006 0.006
C39 0.056 0.038 0.026 0.008 0.015 0.015
O9 0.048 0.036 0.021 -0.0013 0.013 0.009
Dy6 0.02455 0.02677 0.01995 0.00073 0.00501 0.00073
C16 0.053 0.049 0.04 -0.009 0.024 -0.012
C22 0.045 0.04 0.03 0.013 0.012 0.017
C23 0.046 0.033 0.02 0.006 0.011 0.014
C25 0.031 0.034 0.024 0.004 0.01 0.004
C26 0.027 0.038 0.03 0.012 0.007 0
C27 0.034 0.032 0.05 0.017 0.015 0.007
C28 0.021 0.033 0.047 0.017 0.007 0.002
C29 0.021 0.064 0.068 0.031 0.004 0
O2 0.026 0.046 0.033 0.014 0.008 0.005
O3 0.025 0.039 0.05 0.017 0.007 -0.002
O4 0.06 0.072 0.046 -0.028 0.036 -0.032
O6 0.053 0.043 0.019 0.012 0.01 0.019
C48 0.034 0.073 0.09 0.056 0.009 0.006
C18 0.045 0.077 0.042 -0.024 0.025 -0.024
C31 0.056 0.027 0.043 -0.003 0.014 0.003
C32 0.043 0.035 0.021 -0.001 0.011 0.005
C33 0.037 0.041 0.049 -0.016 0.011 -0.012
O8 0.033 0.039 0.033 -0.011 0.008 0.002
C49 0.045 0.032 0.051 0.007 0.017 0.005
C50 0.052 0.031 0.081 -0.007 0.034 -0.012
C51 0.034 0.058 0.061 -0.016 0.02 -0.011
C52 0.032 0.05 0.047 -0.004 0.013 0
C53 0.022 0.037 0.033 -0.007 0.007 -0.004
C54 0.031 0.046 0.03 0.002 0.01 0.012
C55 0.048 0.033 0.035 0.011 0.013 0.01
C56 0.05 0.052 0.058 0.02 0.02 0.018
C57 0.05 0.059 0.055 0.018 0.007 0.026
C58 0.033 0.062 0.05 0.007 0.007 0.016
C59 0.034 0.086 0.083 0.024 0 0.019
C60 0.027 0.087 0.072 0 0.002 0.006
N3 0.025 0.032 0.028 0.003 0.003 0
N4 0.029 0.034 0.031 0.001 0.013 0
loop_
_geom_bond_atom_site_label_1
_geom_bond_atom_site_label_2
_geom_bond_site_symmetry_1
_geom_bond_site_symmetry_2
H22 C40 1_555 1_555
Dy3 O10 1_555 1_555
C40 C41 1_555 1_555
Dy3 N1 1_555 1_555
C1 H1 1_555 1_555
C2 C1 1_555 1_555
H2 C2 1_555 1_555
C3 C2 1_555 1_555
H3 C3 1_555 1_555
C4 C3 1_555 1_555
C5 C4 1_555 1_555
C6 C5 1_555 1_555
C7 H4 1_555 1_555
C8 C7 1_555 1_555
C9 C8 1_555 1_555
H6 C9 1_555 1_555
C10 C6 1_555 1_555
C11 C10 1_555 1_555
H7 C11 1_555 1_555
C12 C4 1_555 1_555
H8 C12 1_555 1_555
C13 C14 1_555 1_555
C14 C15 1_555 1_555
C15 H9 1_555 1_555
C19 C20 1_555 1_555
C20 C21 1_555 1_555
C21 H12 1_555 1_555
N1 C6 1_555 1_555
N2 Dy3 1_555 1_555
O1 Dy3 1_555 1_555
O5 Dy3 1_555 1_555
C36 C15 1_555 1_555
H20 C36 1_555 1_555
C42 C21 1_555 1_555
H23 C42 1_555 1_555
C1 N2 1_555 1_555
C5 N2 1_555 1_555
C7 N1 1_555 1_555
C9 C10 1_555 1_555
C11 C12 1_555 1_555
C13 O5 1_555 1_555
C19 O1 1_555 1_555
H19 C34 1_555 1_555
H17 C30 1_555 1_555
C43 C44 1_555 1_555
C44 C45 1_555 1_555
C45 H24 1_555 1_555
C47 C44 1_555 1_555
H25 C47 1_555 1_555
O11 C43 1_555 1_555
O12 C43 1_555 1_555
C30 C46 1_555 1_555
C45 C46 1_555 1_555
H14 C24 1_555 1_555
C37 C38 1_555 1_555
C38 C39 1_555 1_555
C39 C24 1_555 1_555
H21 C39 1_555 1_555
O9 C37 1_555 1_555
Dy6 O9 1_555 1_555
H10 C16 1_555 1_555
H13 C22 1_555 1_555
C23 C22 1_555 1_555
C25 C26 1_555 1_555
C26 C27 1_555 1_555
C27 H15 1_555 1_555
C28 C27 1_555 1_555
C29 C26 1_555 1_555
H16 C29 1_555 1_555
C48 C28 1_555 1_555
H26 C48 1_555 1_555
Dy6 O6 1_555 1_555
C25 O2 1_555 1_555
C25 O3 1_555 1_555
H11 C18 1_555 1_555
C31 C32 1_555 1_555
C32 C33 1_555 1_555
C33 C18 1_555 1_555
H18 C33 1_555 1_555
O8 C31 1_555 1_555
O8 Dy6 1_555 1_555
C49 H27 1_555 1_555
C50 C49 1_555 1_555
H28 C50 1_555 1_555
C51 C50 1_555 1_555
H29 C51 1_555 1_555
C52 C51 1_555 1_555
C53 C52 1_555 1_555
C54 C53 1_555 1_555
C55 H30 1_555 1_555
C56 C55 1_555 1_555
C57 C56 1_555 1_555
H32 C57 1_555 1_555
C58 C54 1_555 1_555
C59 C58 1_555 1_555
H33 C59 1_555 1_555
C60 C52 1_555 1_555
H34 C60 1_555 1_555
N3 Dy6 1_555 1_555
N4 Dy6 1_555 1_555
C49 N4 1_555 1_555
C53 N4 1_555 1_555
C54 N3 1_555 1_555
C55 N3 1_555 1_555
C57 C58 1_555 1_555
C59 C60 1_555 1_555

#END
