
###############################################################################
#
# This file contains modified crystal structure data generated from the
# MOF subset of the Cambridge Structural Database (CSD) v543 
# hosted by the Cambridge Crystallographic Data Centre (CCDC).
#
# This work is licensed under the Creative Commons
# Attribution-NonCommercial-ShareAlike 4.0 International License.
# To view a copy of this license, visit
# http://creativecommons.org/licenses/by-nc-sa/4.0/
# or send a letter to
# Creative Commons, PO Box 1866, Mountain View, CA 94042, USA.
#
# CIF created using the CSD Python API on 29 September 2022
# The structure has been converted into the P1 space group
# The structure has a 3D framework
# The original CSD entry XULNOJ is in the triclinic crystal system
# The framework has been calculated to contain at least 10.0% void space
# The void calculation uses a probe of radius 1.32A, grid spacing 0.4
#
###############################################################################

data_XULNOJ
_chemical_formula_moiety         '(C50 H46 Mn3 O24)n'
_symmetry_cell_setting           triclinic
_symmetry_space_group_name_H-M   'P 1'
_symmetry_Int_Tables_number      1
_space_group_name_Hall           'P 1'
loop_
_symmetry_equiv_pos_site_id
_symmetry_equiv_pos_as_xyz
1 x,y,z
_cell_length_a                   9.6148(9)
_cell_length_b                   12.7838(10)
_cell_length_c                   14.0244(8)
_cell_angle_alpha                103.997(6)
_cell_angle_beta                 104.463(7)
_cell_angle_gamma                110.714(8)
_cell_volume                     1453.8
loop_
_atom_site_label
_atom_site_type_symbol
_atom_site_fract_x
_atom_site_fract_y
_atom_site_fract_z
_atom_site_U_iso_or_equiv
_atom_site_thermal_displace_type
O2 O 0.5462(3) 0.3468(2) 0.43369(17) 0.0159 Uani
O6 O 0.5616(3) 0.1793(2) 0.43548(18) 0.0181 Uani
C5 C 0.3238(4) 0.1593(3) 0.3132(2) 0.0158 Uani
C7 C 0.0214(4) 0.0251(3) 0.1530(3) 0.0164 Uani
C15 C 0.2533(4) 0.0342(3) 0.2756(3) 0.0180 Uani
C18 C 0.2404(4) 0.2158(3) 0.2685(3) 0.0165 Uani
H13 H 0.2860 0.2992 0.2925 0.0200 Uiso
C19 C 0.4849(4) 0.2313(3) 0.3986(2) 0.0152 Uani
C22 C 0.0908(4) 0.1497(3) 0.1888(3) 0.0174 Uani
H19 H 0.0368 0.1887 0.1592 0.0210 Uiso
Mn2 Mn 0.5000 0.5000 0.5000 0.0128 Uani
O12 O 0.7279(3) 0.6145(2) 0.49754(19) 0.0231 Uani
H22 H 0.8026 0.6047 0.5358 0.0350 Uiso
H23 H 0.7453 0.6876 0.5215 0.0350 Uiso
O24 O 0.2721(3) 0.3855(2) 0.50246(19) 0.0231 Uani
H45 H 0.1974 0.3953 0.4642 0.0350 Uiso
H46 H 0.2547 0.3124 0.4785 0.0350 Uiso
Mn7 Mn 0.78036(6) 0.35410(4) 0.53844(4) 0.0130 Uani
O27 O 0.4538(3) 0.6532(2) 0.56631(17) 0.0159 Uani
O32 O 0.3766(3) 0.5031(2) 0.35421(16) 0.0144 Uani
O33 O 0.6234(3) 0.4969(2) 0.64579(16) 0.0144 Uani
Mn1 Mn 0.21964(6) 0.64590(4) 0.46156(4) 0.0130 Uani
O1 O 0.1637(3) 0.6756(2) 0.60137(17) 0.0190 Uani
O3 O 0.0306(3) 0.6492(2) 0.99230(17) 0.0171 Uani
O7 O 0.5320(3) 0.8664(2) 0.99217(17) 0.0184 Uani
C3 C 0.0543(4) 0.6297(3) 0.8199(2) 0.0137 Uani
C6 C 0.0814(4) 0.6229(3) 0.6462(2) 0.0135 Uani
C8 C 0.1539(4) 0.6661(3) 0.7660(2) 0.0128 Uani
C9 C 0.1182(4) 0.6752(3) 0.9297(2) 0.0131 Uani
C10 C 0.3770(4) 0.7872(3) 0.9292(2) 0.0138 Uani
C11 C 0.2787(4) 0.7525(3) 0.9845(2) 0.0144 Uani
C14 C 0.3154(4) 0.7449(3) 0.8188(2) 0.0134 Uani
H8 H 0.3807 0.7688 0.7816 0.0160 Uiso
C16 C 0.6372(4) 0.9185(3) 0.9423(3) 0.0168 Uani
H10 H 0.5908 0.9549 0.8985 0.0200 Uiso
H11 H 0.6550 0.8573 0.8979 0.0200 Uiso
O11 O 0.0649(3) 0.7096(3) 0.3813(2) 0.0291 Uani
H17 H 0.1067 0.7450 0.3437 0.0440 Uiso
H18 H 0.0507 0.7595 0.4266 0.0440 Uiso
O17 O 0.0607(3) 0.4595(2) 0.40007(17) 0.0163 Uani
C27 C 0.1371(4) 0.4295(3) 0.0618(3) 0.0178 Uani
H24 H 0.1524 0.5044 0.1108 0.0210 Uiso
H25 H 0.1890 0.3925 0.1017 0.0210 Uiso
H26 H 0.0531 0.4241 0.2168 0.0160 Uiso
H27 H 0.3087 0.5257 0.0145 0.0200 Uiso
O28 O 0.3205(3) 0.6519(2) 0.33469(17) 0.0161 Uani
O31 O 0.4384(3) 0.8207(2) 0.56452(18) 0.0181 Uani
O16 O 0.6795(3) 0.3481(2) 0.66531(17) 0.0161 Uani
C26 C 0.5086(4) 0.3957(3) 0.7470(2) 0.0134 Uani
C29 C 0.2084(4) 0.4532(3) 0.9811(3) 0.0171 Uani
H28 H 0.1361 0.4645 0.9269 0.0200 Uiso
O22 O 0.2353(3) 0.3534(2) 0.93452(18) 0.0178 Uani
C38 C 0.6090(4) 0.4141(3) 0.6813(2) 0.0134 Uani
C42 C 0.4427(4) 0.4746(3) 0.7711(3) 0.0166 Uani
H35 H 0.4608 0.5363 0.7448 0.0200 Uiso
C46 C 0.4783(4) 0.3029(3) 0.7863(2) 0.0160 Uani
H39 H 0.5213 0.2491 0.7709 0.0190 Uiso
C48 C 0.3860(4) 0.2894(3) 0.8477(3) 0.0165 Uani
H43 H 0.3659 0.2266 0.8726 0.0200 Uiso
C49 C 0.3513(4) 0.4640(3) 0.8330(3) 0.0182 Uani
H44 H 0.3088 0.5181 0.8487 0.0220 Uiso
C50 C 0.3233(4) 0.3705(3) 0.8718(2) 0.0153 Uani
C1 C 0.4914(4) 0.6043(3) 0.2530(2) 0.0134 Uani
C4 C 0.7916(4) 0.5468(3) 0.0189(3) 0.0171 Uani
H5 H 0.8639 0.5355 0.0731 0.0200 Uiso
O10 O 0.7647(3) 0.6466(2) 0.06548(18) 0.0178 Uani
C13 C 0.3910(4) 0.5859(3) 0.3187(2) 0.0134 Uani
C17 C 0.5573(4) 0.5254(3) 0.2289(3) 0.0166 Uani
H12 H 0.5392 0.4637 0.2552 0.0200 Uiso
C21 C 0.5217(4) 0.6971(3) 0.2137(2) 0.0160 Uani
H16 H 0.4787 0.7509 0.2291 0.0190 Uiso
C23 C 0.6140(4) 0.7106(3) 0.1523(3) 0.0165 Uani
H20 H 0.6341 0.7734 0.1274 0.0200 Uiso
C24 C 0.6487(4) 0.5360(3) 0.1670(3) 0.0182 Uani
H21 H 0.6912 0.4819 0.1513 0.0220 Uiso
C25 C 0.6767(4) 0.6295(3) 0.1282(2) 0.0153 Uani
O5 O 0.9393(3) 0.5405(2) 0.59993(17) 0.0163 Uani
C2 C 0.8629(4) 0.5705(3) 0.9382(3) 0.0178 Uani
H1 H 0.8476 0.4956 0.8892 0.0210 Uiso
H2 H 0.8110 0.6075 0.8983 0.0210 Uiso
H3 H 0.9469 0.5759 0.7832 0.0160 Uiso
H4 H 0.6913 0.4743 0.9855 0.0200 Uiso
O13 O 0.8363(3) 0.3244(2) 0.39863(17) 0.0190 Uani
O15 O 0.9694(3) 0.3508(2) 0.00770(17) 0.0171 Uani
O19 O 0.4680(3) 0.1336(2) 0.00783(17) 0.0184 Uani
C28 C 0.9457(4) 0.3703(3) 0.1801(2) 0.0137 Uani
C31 C 0.9186(4) 0.3771(3) 0.3538(2) 0.0135 Uani
C33 C 0.8461(4) 0.3339(3) 0.2340(2) 0.0128 Uani
C34 C 0.8818(4) 0.3248(3) 0.0703(2) 0.0131 Uani
C35 C 0.6230(4) 0.2128(3) 0.0708(2) 0.0138 Uani
C36 C 0.7213(4) 0.2475(3) 0.0155(2) 0.0144 Uani
C39 C 0.6846(4) 0.2551(3) 0.1812(2) 0.0134 Uani
H31 H 0.6193 0.2312 0.2184 0.0160 Uiso
C41 C 0.3628(4) 0.0815(3) 0.0577(3) 0.0168 Uani
H33 H 0.4092 0.0451 0.1015 0.0200 Uiso
H34 H 0.3450 0.1427 0.1021 0.0200 Uiso
O23 O 0.9351(3) 0.2904(3) 0.6187(2) 0.0291 Uani
H40 H 0.8933 0.2550 0.6563 0.0440 Uiso
H41 H 0.9493 0.2405 0.5734 0.0440 Uiso
C30 C 0.6762(4) 0.8407(3) 0.6868(2) 0.0158 Uani
C32 C 0.9786(4) 0.9749(3) 0.8470(3) 0.0164 Uani
C40 C 0.7467(4) 0.9658(3) 0.7244(3) 0.0180 Uani
C43 C 0.7596(4) 0.7842(3) 0.7315(3) 0.0165 Uani
H36 H 0.7140 0.7008 0.7075 0.0200 Uiso
C44 C 0.5151(4) 0.7687(3) 0.6014(2) 0.0152 Uani
C47 C 0.9092(4) 0.8503(3) 0.8112(3) 0.0174 Uani
H42 H 0.9632 0.8113 0.8408 0.0210 Uiso
C12 C 0.1038(4) 0.9676(3) 0.1971(3) 0.0192 Uani
H7 H 0.0579 0.8842 0.1734 0.0230 Uiso
H9 H 0.3081 0.9951 0.3041 0.0220 Uiso
C20 C 0.7917(4) 0.0117(3) 0.0282(3) 0.0166 Uani
H15 H 0.7710 0.0616 0.0816 0.0200 Uiso
H14 H 0.8561 0.0628 0.9993 0.0200 Uiso
O9 O 0.8753(3) 0.9527(2) 0.07439(18) 0.0185 Uani
H6 H 0.3206 0.7811 0.0580 0.0170 Uiso
O21 O 0.1247(3) 0.0473(2) 0.92561(18) 0.0185 Uani
H29 H 0.6794 0.2189 0.9420 0.0170 Uiso
H37 H 0.1439 0.9372 0.0007 0.0200 Uiso
C45 C 0.2083(4) 0.9883(3) 0.9718(3) 0.0166 Uani
H38 H 0.2290 0.9384 0.9184 0.0200 Uiso
C37 C 0.8962(4) 0.0324(3) 0.8029(3) 0.0192 Uani
H30 H 0.9421 0.1158 0.8266 0.0230 Uiso
H32 H 0.6919 0.0049 0.6959 0.0220 Uiso
loop_
_atom_site_aniso_label
_atom_site_aniso_U_11
_atom_site_aniso_U_22
_atom_site_aniso_U_33
_atom_site_aniso_U_23
_atom_site_aniso_U_13
_atom_site_aniso_U_12
O2 0.0118 0.0159 0.0144 0.0018 0.0014 0.005
O6 0.0115 0.0182 0.0209 0.008 0.0018 0.005
C5 0.0125 0.0194 0.0134 0.0063 0.0039 0.0051
C7 0.0139 0.0187 0.0149 0.005 0.0049 0.0065
C15 0.0163 0.0194 0.0183 0.0083 0.0028 0.0093
C18 0.015 0.0114 0.0175 0.0015 0.0051 0.0029
C19 0.0122 0.0204 0.0134 0.0067 0.0072 0.0055
C22 0.0141 0.0151 0.021 0.0055 0.0027 0.0076
Mn2 0.0112 0.0143 0.0126 0.0056 0.0041 0.0052
O12 0.0134 0.0242 0.0291 0.0122 0.004 0.0066
O24 0.0134 0.0242 0.0291 0.0122 0.004 0.0066
Mn7 0.0104 0.0164 0.0103 0.004 0.0033 0.0049
O27 0.0118 0.0159 0.0144 0.0018 0.0014 0.005
O32 0.0136 0.0162 0.0133 0.0074 0.0043 0.0055
O33 0.0136 0.0162 0.0133 0.0074 0.0043 0.0055
Mn1 0.0104 0.0164 0.0103 0.004 0.0033 0.0049
O1 0.0173 0.0217 0.0129 0.0043 0.0068 0.0037
O3 0.0109 0.0245 0.0111 0.005 0.0054 0.0027
O7 0.0104 0.0246 0.0128 0.0062 0.0027 0.0012
C3 0.0103 0.0138 0.014 0.005 0.0024 0.0037
C6 0.0112 0.015 0.0153 0.0037 0.0054 0.0076
C8 0.0142 0.013 0.011 0.0036 0.0044 0.0066
C9 0.0136 0.0151 0.0137 0.0067 0.0072 0.0073
C10 0.0104 0.0155 0.0146 0.0053 0.0023 0.0063
C11 0.0146 0.0146 0.0119 0.0036 0.0027 0.0064
C14 0.0118 0.014 0.015 0.0052 0.0067 0.0051
C16 0.0103 0.0202 0.0156 0.0051 0.0034 0.0039
O11 0.0331 0.0487 0.0248 0.0206 0.0168 0.0299
O17 0.0119 0.0175 0.0138 0.0031 0.003 0.0034
C27 0.0132 0.0219 0.0147 0.0042 0.0058 0.0051
O28 0.016 0.023 0.0155 0.0099 0.0083 0.0117
O31 0.0115 0.0182 0.0209 0.008 0.0018 0.005
O16 0.016 0.023 0.0155 0.0099 0.0083 0.0117
C26 0.0107 0.0164 0.0088 0.0034 0.0015 0.0036
C29 0.0165 0.0171 0.0185 0.0066 0.0093 0.0062
O22 0.0223 0.0182 0.0198 0.0091 0.0158 0.0095
C38 0.0078 0.0173 0.007 0.0007 -0.0015 0.0021
C42 0.0163 0.018 0.0173 0.0081 0.0084 0.0068
C46 0.0151 0.0181 0.0153 0.0051 0.0055 0.0087
C48 0.0187 0.0182 0.0138 0.0076 0.0057 0.0083
C49 0.0199 0.0201 0.02 0.0082 0.0112 0.0113
C50 0.0119 0.0201 0.0109 0.0033 0.0053 0.0046
C1 0.0107 0.0164 0.0088 0.0034 0.0015 0.0036
C4 0.0165 0.0171 0.0185 0.0066 0.0093 0.0062
O10 0.0223 0.0182 0.0198 0.0091 0.0158 0.0095
C13 0.0078 0.0173 0.007 0.0007 -0.0015 0.0021
C17 0.0163 0.018 0.0173 0.0081 0.0084 0.0068
C21 0.0151 0.0181 0.0153 0.0051 0.0055 0.0087
C23 0.0187 0.0182 0.0138 0.0076 0.0057 0.0083
C24 0.0199 0.0201 0.02 0.0082 0.0112 0.0113
C25 0.0119 0.0201 0.0109 0.0033 0.0053 0.0046
O5 0.0119 0.0175 0.0138 0.0031 0.003 0.0034
C2 0.0132 0.0219 0.0147 0.0042 0.0058 0.0051
O13 0.0173 0.0217 0.0129 0.0043 0.0068 0.0037
O15 0.0109 0.0245 0.0111 0.005 0.0054 0.0027
O19 0.0104 0.0246 0.0128 0.0062 0.0027 0.0012
C28 0.0103 0.0138 0.014 0.005 0.0024 0.0037
C31 0.0112 0.015 0.0153 0.0037 0.0054 0.0076
C33 0.0142 0.013 0.011 0.0036 0.0044 0.0066
C34 0.0136 0.0151 0.0137 0.0067 0.0072 0.0073
C35 0.0104 0.0155 0.0146 0.0053 0.0023 0.0063
C36 0.0146 0.0146 0.0119 0.0036 0.0027 0.0064
C39 0.0118 0.014 0.015 0.0052 0.0067 0.0051
C41 0.0103 0.0202 0.0156 0.0051 0.0034 0.0039
O23 0.0331 0.0487 0.0248 0.0206 0.0168 0.0299
C30 0.0125 0.0194 0.0134 0.0063 0.0039 0.0051
C32 0.0139 0.0187 0.0149 0.005 0.0049 0.0065
C40 0.0163 0.0194 0.0183 0.0083 0.0028 0.0093
C43 0.015 0.0114 0.0175 0.0015 0.0051 0.0029
C44 0.0122 0.0204 0.0134 0.0067 0.0072 0.0055
C47 0.0141 0.0151 0.021 0.0055 0.0027 0.0076
C12 0.0194 0.0123 0.0187 0.0016 0.0035 0.0045
C20 0.0134 0.0174 0.017 0.0065 0.0028 0.0063
O9 0.0102 0.0127 0.0215 0.0019 -0.0017 0.0012
O21 0.0102 0.0127 0.0215 0.0019 -0.0017 0.0012
C45 0.0134 0.0174 0.017 0.0065 0.0028 0.0063
C37 0.0194 0.0123 0.0187 0.0016 0.0035 0.0045
loop_
_geom_bond_atom_site_label_1
_geom_bond_atom_site_label_2
_geom_bond_site_symmetry_1
_geom_bond_site_symmetry_2
O2 C19 1_555 1_555
O6 C19 1_555 1_555
C5 C15 1_555 1_555
C18 C5 1_555 1_555
H13 C18 1_555 1_555
C19 C5 1_555 1_555
C22 C7 1_555 1_555
H19 C22 1_555 1_555
Mn2 O2 1_555 1_555
O12 Mn2 1_555 1_555
H22 O12 1_555 1_555
H23 O12 1_555 1_555
O24 Mn2 1_555 1_555
H45 O24 1_555 1_555
H46 O24 1_555 1_555
Mn7 O2 1_555 1_555
O27 Mn2 1_555 1_555
O32 Mn2 1_555 1_555
O33 Mn2 1_555 1_555
O6 Mn7 1_555 1_555
C18 C22 1_555 1_555
Mn1 O1 1_555 1_555
O1 C6 1_555 1_555
O7 C10 1_555 1_555
C6 C8 1_555 1_555
C8 C3 1_555 1_555
C9 O3 1_555 1_555
C10 C11 1_555 1_555
C11 C9 1_555 1_555
C14 C8 1_555 1_555
H8 C14 1_555 1_555
C16 O7 1_555 1_555
H10 C16 1_555 1_555
H11 C16 1_555 1_555
O11 Mn1 1_555 1_555
H17 O11 1_555 1_555
H18 O11 1_555 1_555
O17 Mn1 1_555 1_555
C27 H24 1_555 1_555
H25 C27 1_555 1_555
O27 Mn1 1_555 1_555
O28 Mn1 1_555 1_555
O31 Mn1 1_555 1_555
C3 C9 1_555 1_555
C10 C14 1_555 1_555
O16 C38 1_555 1_555
C26 C38 1_555 1_555
O33 C38 1_555 1_555
H28 C29 1_555 1_555
O22 C29 1_555 1_555
C42 C26 1_555 1_555
H35 C42 1_555 1_555
C46 C26 1_555 1_555
H39 C46 1_555 1_555
C48 C46 1_555 1_555
H43 C48 1_555 1_555
C49 C42 1_555 1_555
H44 C49 1_555 1_555
C50 O22 1_555 1_555
Mn7 O16 1_555 1_555
C48 C50 1_555 1_555
C49 C50 1_555 1_555
O28 C13 1_555 1_555
C1 C13 1_555 1_555
O32 C13 1_555 1_555
H5 C4 1_555 1_555
O10 C4 1_555 1_555
C17 C1 1_555 1_555
H12 C17 1_555 1_555
C21 C1 1_555 1_555
H16 C21 1_555 1_555
C23 C21 1_555 1_555
H20 C23 1_555 1_555
C24 C17 1_555 1_555
H21 C24 1_555 1_555
C25 O10 1_555 1_555
C23 C25 1_555 1_555
C24 C25 1_555 1_555
C2 H1 1_555 1_555
H2 C2 1_555 1_555
Mn7 O5 1_555 1_555
O13 Mn7 1_555 1_555
O19 C35 1_555 1_555
C31 O13 1_555 1_555
C33 C28 1_555 1_555
C34 O15 1_555 1_555
C35 C36 1_555 1_555
C36 C34 1_555 1_555
C39 C33 1_555 1_555
H31 C39 1_555 1_555
C41 O19 1_555 1_555
H33 C41 1_555 1_555
H34 C41 1_555 1_555
O23 Mn7 1_555 1_555
H40 O23 1_555 1_555
H41 O23 1_555 1_555
C28 C34 1_555 1_555
C31 C33 1_555 1_555
C35 C39 1_555 1_555
O27 C44 1_555 1_555
O31 C44 1_555 1_555
C30 C40 1_555 1_555
C43 C30 1_555 1_555
H36 C43 1_555 1_555
C44 C30 1_555 1_555
C47 C32 1_555 1_555
H42 C47 1_555 1_555
C43 C47 1_555 1_555
C12 H7 1_555 1_555
H15 C20 1_555 1_555
H38 C45 1_555 1_555
C37 H30 1_555 1_555

#END
