
###############################################################################
#
# This file contains modified crystal structure data generated from the
# MOF subset of the Cambridge Structural Database (CSD) v543 
# hosted by the Cambridge Crystallographic Data Centre (CCDC).
#
# This work is licensed under the Creative Commons
# Attribution-NonCommercial-ShareAlike 4.0 International License.
# To view a copy of this license, visit
# http://creativecommons.org/licenses/by-nc-sa/4.0/
# or send a letter to
# Creative Commons, PO Box 1866, Mountain View, CA 94042, USA.
#
# CIF created using the CSD Python API on 29 September 2022
# The structure has been converted into the P1 space group
# The structure has a 3D framework
# The original CSD entry XUNROP is in the triclinic crystal system
# The framework has been calculated to contain at least 10.0% void space
# The void calculation uses a probe of radius 1.32A, grid spacing 0.4
#
###############################################################################

data_XUNROP
_chemical_formula_moiety         '(C24 H16 Li4 N4 O8)n'
_symmetry_cell_setting           triclinic
_symmetry_space_group_name_H-M   'P 1'
_symmetry_Int_Tables_number      1
_space_group_name_Hall           'P 1'
loop_
_symmetry_equiv_pos_site_id
_symmetry_equiv_pos_as_xyz
1 x,y,z
_cell_length_a                   5.3992(2)
_cell_length_b                   11.1408(6)
_cell_length_c                   13.6811(8)
_cell_angle_alpha                90.885(5)
_cell_angle_beta                 94.250(4)
_cell_angle_gamma                91.825(4)
_cell_volume                     820.127
loop_
_atom_site_label
_atom_site_type_symbol
_atom_site_fract_x
_atom_site_fract_y
_atom_site_fract_z
H5 H 0.0504 0.1571 0.2774
H6 H 0.0943 0.2981 0.1567
Li6 Li 0.1967(8) 0.0162(4) 0.4425(3)
O5 O 0.1476(3) 0.58402(17) 0.05404(13)
O1 O 0.4674(3) 0.12653(16) 0.43144(14)
C7 C 0.6813(5) 0.1313(2) 0.40281(18)
C8 C 0.7301(5) 0.2226(2) 0.32461(19)
C9 C 0.9319(5) 0.2178(3) 0.2676(2)
C10 C 0.9574(5) 0.3033(3) 0.1962(2)
C11 C 0.6101(5) 0.3975(3) 0.2367(2)
H7 H 0.4987 0.4613 0.2275
C12 C 0.5660(5) 0.3149(2) 0.3083(2)
H8 H 0.4256 0.3211 0.3458
Li1 Li 0.8152(8) 0.5133(4) 0.0643(3)
N2 N 0.8007(4) 0.3927(2) 0.17936(17)
O4 O 0.8573(3) 0.06688(17) 0.43295(14)
O7 O 0.5555(3) 0.61740(17) 0.08421(14)
O6 O 0.8524(3) 0.41598(17) 0.94596(13)
C1 C 0.4304(5) 0.8268(3) 0.3304(2)
H1 H 0.5544 0.8395 0.3828
C2 C 0.0512(5) 0.8697(3) 0.2562(2)
C3 C 0.0739(5) 0.7853(3) 0.1819(2)
C4 C 0.4710(5) 0.7427(2) 0.2583(2)
H4 H 0.6205 0.6998 0.2612
C5 C 0.2905(5) 0.7219(2) 0.18169(18)
C6 C 0.3351(5) 0.6330(2) 0.09965(18)
N1 N 0.2242(4) 0.8913(2) 0.32999(17)
Li7 Li 0.8033(8) 0.9838(4) 0.5575(3)
O9 O 0.1427(3) 0.93312(17) 0.56705(14)
Li5 Li 0.1848(8) 0.4867(4) 0.9357(3)
H2 H 0.9044 0.9146 0.2545
H3 H 0.9434 0.7713 0.1321
H2_2 H 0.0956 0.0854 0.7455
H3_2 H 0.0566 0.2287 0.8679
C1_2 C 0.5696(5) 0.1732(3) 0.6696(2)
H1_2 H 0.4456 0.1605 0.6172
C2_2 C 0.9488(5) 0.1303(3) 0.7438(2)
C3_2 C 0.9261(5) 0.2147(3) 0.8181(2)
C4_2 C 0.5290(5) 0.2573(2) 0.7417(2)
H4_2 H 0.3795 0.3002 0.7388
C5_2 C 0.7095(5) 0.2781(2) 0.81831(18)
C6_2 C 0.6649(5) 0.3670(2) 0.90035(18)
N1_2 N 0.7758(4) 0.1087(2) 0.67001(17)
O3 O 0.4445(3) 0.38260(17) 0.91579(14)
O1_2 O 0.5326(3) 0.87347(16) 0.56856(14)
C7_2 C 0.3187(5) 0.8687(2) 0.59719(18)
C8_2 C 0.2699(5) 0.7774(2) 0.67539(19)
C9_2 C 0.0681(5) 0.7822(3) 0.7324(2)
C10_2 C 0.0426(5) 0.6967(3) 0.8038(2)
C11_2 C 0.3899(5) 0.6025(3) 0.7633(2)
H7_2 H 0.5013 0.5387 0.7725
C12_2 C 0.4340(5) 0.6851(2) 0.6917(2)
H8_2 H 0.5744 0.6789 0.6542
N2_2 N 0.1993(4) 0.6073(2) 0.82064(17)
H5_2 H 0.9496 0.8429 0.7226
H6_2 H 0.9057 0.7019 0.8433
loop_
_geom_bond_atom_site_label_1
_geom_bond_atom_site_label_2
_geom_bond_site_symmetry_1
_geom_bond_site_symmetry_2
O1 C7 1_555 1_555
C7 C8 1_555 1_555
C8 C9 1_555 1_555
C10 C9 1_555 1_555
C11 H7 1_555 1_555
C12 C8 1_555 1_555
H8 C12 1_555 1_555
Li1 N2 1_555 1_555
Li6 O1 1_555 1_555
N2 C10 1_555 1_555
O4 C7 1_555 1_555
O7 Li1 1_555 1_555
C11 C12 1_555 1_555
C11 N2 1_555 1_555
C1 H1 1_555 1_555
C3 C2 1_555 1_555
C4 C1 1_555 1_555
H4 C4 1_555 1_555
C5 C3 1_555 1_555
C6 C5 1_555 1_555
N1 C1 1_555 1_555
O5 C6 1_555 1_555
O7 C6 1_555 1_555
C2 N1 1_555 1_555
C4 C5 1_555 1_555
C1_2 H1_2 1_555 1_555
C3_2 C2_2 1_555 1_555
C4_2 C1_2 1_555 1_555
H4_2 C4_2 1_555 1_555
C5_2 C3_2 1_555 1_555
C6_2 C5_2 1_555 1_555
N1_2 C1_2 1_555 1_555
O6 C6_2 1_555 1_555
O3 C6_2 1_555 1_555
Li5 O3 1_555 1_555
C2_2 N1_2 1_555 1_555
C4_2 C5_2 1_555 1_555
O1_2 C7_2 1_555 1_555
C7_2 C8_2 1_555 1_555
C8_2 C9_2 1_555 1_555
C10_2 C9_2 1_555 1_555
C11_2 H7_2 1_555 1_555
C12_2 C8_2 1_555 1_555
H8_2 C12_2 1_555 1_555
Li5 N2_2 1_555 1_555
Li7 O1_2 1_555 1_555
N2_2 C10_2 1_555 1_555
O9 C7_2 1_555 1_555
C11_2 C12_2 1_555 1_555
C11_2 N2_2 1_555 1_555

#END
