
###############################################################################
#
# This file contains modified crystal structure data generated from the
# MOF subset of the Cambridge Structural Database (CSD) v543 
# hosted by the Cambridge Crystallographic Data Centre (CCDC).
#
# This work is licensed under the Creative Commons
# Attribution-NonCommercial-ShareAlike 4.0 International License.
# To view a copy of this license, visit
# http://creativecommons.org/licenses/by-nc-sa/4.0/
# or send a letter to
# Creative Commons, PO Box 1866, Mountain View, CA 94042, USA.
#
# CIF created using the CSD Python API on 29 September 2022
# The structure has been converted into the P1 space group
# The structure has a 3D framework
# The original CSD entry XUNTEH is in the orthorhombic crystal system
# The framework has been calculated to contain at least 10.0% void space
# The void calculation uses a probe of radius 1.32A, grid spacing 0.4
#
###############################################################################

data_XUNTEH
_chemical_formula_moiety         '(C24 H16 Li1 N4 O7)n'
_symmetry_cell_setting           triclinic
_symmetry_space_group_name_H-M   'P 1'
_symmetry_Int_Tables_number      1
_space_group_name_Hall           'P 1'
loop_
_symmetry_equiv_pos_site_id
_symmetry_equiv_pos_as_xyz
1 x,y,z
_cell_length_a                   10.680(2)
_cell_length_b                   13.732(2)
_cell_length_c                   4.9114(10)
_cell_angle_alpha                90
_cell_angle_beta                 90
_cell_angle_gamma                90
_cell_volume                     720.295
loop_
_atom_site_label
_atom_site_type_symbol
_atom_site_fract_x
_atom_site_fract_y
_atom_site_fract_z
O3 O 0.0943(2) 0.45733(16) 0.6981(6)
O4 O 0.0841(3) 0.37134(18) 0.0840(7)
Li3 Li 0.0061(5) 0.5670(4) 0.8603(14)
O1 O 0.9057(2) 0.54267(16) 0.1981(6)
N1 N 0.6281(3) 0.83126(19) 0.0183(8)
O2 O 0.9159(3) 0.62866(18) 0.5840(7)
C1 C 0.8781(3) 0.6147(3) 0.3469(8)
C2 C 0.7097(3) 0.6682(2) 0.0188(10)
C3 C 0.7898(3) 0.6903(2) 0.2283(9)
C4 C 0.7885(4) 0.7844(3) 0.3345(10)
H2 H 0.8427 0.8023 0.4794
C6 C 0.7059(4) 0.8511(2) 0.2230(11)
H4 H 0.7047 0.9150 0.2971
Li1 Li 0.9939(5) 0.4330(4) 0.3603(14)
N2 N 0.8719(3) 0.33126(19) 0.5183(8)
H1 H 0.7092 0.6048 0.9416
C5 C 0.6294(3) 0.7396(2) 0.9210(9)
H3 H 0.5729 0.7231 0.7791
Li4 Li 0.5061(5) 0.9330(4) 0.8603(14)
N2_2 N 0.1281(3) 0.66874(19) 0.0183(8)
N1_2 N 0.3719(3) 0.16874(19) 0.5183(8)
C1_2 C 0.1219(3) 0.3853(3) 0.8469(8)
C2_2 C 0.2903(3) 0.3318(2) 0.5188(10)
H1_2 H 0.2908 0.3952 0.4416
C3_2 C 0.2102(3) 0.3097(2) 0.7283(9)
C4_2 C 0.2115(4) 0.2156(3) 0.8345(10)
H2_2 H 0.1573 0.1977 0.9794
C5_2 C 0.3706(3) 0.2604(2) 0.4210(9)
H3_2 H 0.4271 0.2769 0.2791
C6_2 C 0.2941(4) 0.1489(2) 0.7230(11)
H4_2 H 0.2953 0.0850 0.7971
Li4_2 Li 0.4939(5) 0.0670(4) 0.3603(14)
O3_2 O 0.5943(2) 0.04267(16) 0.6981(6)
O4_2 O 0.5841(3) 0.12866(18) 0.0840(7)
O1_2 O 0.4057(2) 0.95733(16) 0.1981(6)
O2_2 O 0.4159(3) 0.87134(18) 0.5840(7)
C1_3 C 0.3781(3) 0.8853(3) 0.3469(8)
C2_3 C 0.2097(3) 0.8318(2) 0.0188(10)
C3_3 C 0.2898(3) 0.8097(2) 0.2283(9)
C4_3 C 0.2885(4) 0.7156(3) 0.3345(10)
H2_3 H 0.3427 0.6977 0.4794
C6_3 C 0.2059(4) 0.6489(2) 0.2230(11)
H4_3 H 0.2047 0.5850 0.2971
H1_3 H 0.2092 0.8952 0.9416
C5_3 C 0.1294(3) 0.7604(2) 0.9210(9)
H3_3 H 0.0729 0.7769 0.7791
C1_4 C 0.6219(3) 0.1147(3) 0.8469(8)
C2_4 C 0.7903(3) 0.1682(2) 0.5188(10)
H1_4 H 0.7908 0.1048 0.4416
C3_4 C 0.7102(3) 0.1903(2) 0.7283(9)
C4_4 C 0.7115(4) 0.2844(3) 0.8345(10)
H2_4 H 0.6573 0.3023 0.9794
C5_4 C 0.8706(3) 0.2396(2) 0.4210(9)
H3_4 H 0.9271 0.2231 0.2791
C6_4 C 0.7941(4) 0.3511(2) 0.7230(11)
H4_4 H 0.7953 0.4150 0.7971
loop_
_geom_bond_atom_site_label_1
_geom_bond_atom_site_label_2
_geom_bond_site_symmetry_1
_geom_bond_site_symmetry_2
O3 Li3 1_555 1_555
O1 C1 1_555 1_555
O2 C1 1_555 1_555
C1 C3 1_555 1_555
C3 C2 1_555 1_555
C4 C3 1_555 1_555
H2 C4 1_555 1_555
C6 N1 1_555 1_555
H4 C6 1_555 1_555
Li1 O1 1_555 1_555
N2 Li1 1_555 1_555
C4 C6 1_555 1_555
H3 C5 1_555 1_555
O3 C1_2 1_555 1_555
N1_2 C5_2 1_555 1_555
C1_2 C3_2 1_555 1_555
C2_2 H1_2 1_555 1_555
C3_2 C2_2 1_555 1_555
C4_2 C3_2 1_555 1_555
H2_2 C4_2 1_555 1_555
C5_2 C2_2 1_555 1_555
H3_2 C5_2 1_555 1_555
C6_2 N1_2 1_555 1_555
H4_2 C6_2 1_555 1_555
Li4_2 N1_2 1_555 1_555
C4_2 C6_2 1_555 1_555
O3_2 Li4_2 1_555 1_555
O4_2 Li4_2 1_555 1_555
O1_2 C1_3 1_555 1_555
O2_2 C1_3 1_555 1_555
C1_3 C3_3 1_555 1_555
C3_3 C2_3 1_555 1_555
C4_3 C3_3 1_555 1_555
H2_3 C4_3 1_555 1_555
C6_3 N2_2 1_555 1_555
H4_3 C6_3 1_555 1_555
Li4 O2_2 1_555 1_555
C4_3 C6_3 1_555 1_555
H3_3 C5_3 1_555 1_555
O3_2 C1_4 1_555 1_555
N2 C5_4 1_555 1_555
C1_4 C3_4 1_555 1_555
C2_4 H1_4 1_555 1_555
C3_4 C2_4 1_555 1_555
C4_4 C3_4 1_555 1_555
H2_4 C4_4 1_555 1_555
C5_4 C2_4 1_555 1_555
H3_4 C5_4 1_555 1_555
C6_4 N2 1_555 1_555
H4_4 C6_4 1_555 1_555
C4_4 C6_4 1_555 1_555

#END
