
###############################################################################
#
# This file contains modified crystal structure data generated from the
# MOF subset of the Cambridge Structural Database (CSD) v543 
# hosted by the Cambridge Crystallographic Data Centre (CCDC).
#
# This work is licensed under the Creative Commons
# Attribution-NonCommercial-ShareAlike 4.0 International License.
# To view a copy of this license, visit
# http://creativecommons.org/licenses/by-nc-sa/4.0/
# or send a letter to
# Creative Commons, PO Box 1866, Mountain View, CA 94042, USA.
#
# CIF created using the CSD Python API on 29 September 2022
# The structure has been converted into the P1 space group
# The structure has a 3D framework
# The original CSD entry XURNUU is in the monoclinic crystal system
# The original CSD entry XURNUU is in a Sohncke space group
# The framework has been calculated to contain at least 10.0% void space
# The void calculation uses a probe of radius 1.32A, grid spacing 0.4
# H atom positions have been added when not included in the experimental data
#
###############################################################################

data_XURNUU
_chemical_formula_moiety         '(C80 H88 Cd8 N16 O42 S8)n'
_symmetry_cell_setting           triclinic
_symmetry_space_group_name_H-M   'P 1'
_symmetry_Int_Tables_number      1
_space_group_name_Hall           'P 1'
loop_
_symmetry_equiv_pos_site_id
_symmetry_equiv_pos_as_xyz
1 x,y,z
_cell_length_a                   24.5534(6)
_cell_length_b                   9.7877(2)
_cell_length_c                   13.5716(3)
_cell_angle_alpha                90
_cell_angle_beta                 120.579(2)
_cell_angle_gamma                90
_cell_volume                     2807.96
loop_
_atom_site_label
_atom_site_type_symbol
_atom_site_fract_x
_atom_site_fract_y
_atom_site_fract_z
Cd1 Cd 0.246597(16) 0.39001(5) 0.10180(3)
S1 S 0.18480(7) 0.57331(16) 0.22368(14)
S2 S 0.30894(7) 0.05026(17) 0.18811(15)
N1 N 0.1497(2) 0.2900(6) 0.0045(4)
N2 N 0.3431(2) 0.4894(5) 0.2170(5)
N4 N 0.6466(3) 0.7931(7) 0.5300(5)
O1 O 0.2958(2) 0.3112(5) 0.0021(5)
O2 O 0.2013(3) 0.5864(8) 0.1329(6)
O3 O 0.2871(2) 0.1838(5) 0.2122(5)
O4 O 0.2921(2) 0.0454(5) 0.0679(4)
O5 O 0.2127(3) 0.6854(6) 0.3040(7)
O9 O 0.2132(5) 0.4465(7) 0.2769(8)
O10 O 0.1172(3) 0.5746(8) 0.1683(7)
O11 O 0.3766(2) 0.0327(7) 0.2641(6)
C1 C 0.1406(3) 0.1561(7) 0.0031(5)
H1 H 0.1759 0.0996 0.0388
C9 C 0.3509(3) 0.6235(7) 0.2328(5)
H7 H 0.3150 0.6780 0.2045
C10 C 0.4078(3) 0.6850(7) 0.2873(5)
H8 H 0.4100 0.7799 0.2905
C11 C 0.4633(2) 0.6096(6) 0.3387(5)
C12 C 0.4562(3) 0.4662(7) 0.3271(7)
H9 H 0.4916 0.4098 0.3606
C13 C 0.3964(3) 0.4107(9) 0.2657(7)
H10 H 0.3922 0.3163 0.2573
C14 C 0.5284(3) 0.6730(7) 0.4025(5)
C15 C 0.5352(3) 0.8111(7) 0.4206(7)
H11 H 0.4997 0.8669 0.3916
C16 C 0.5815(2) 0.5932(7) 0.4500(5)
H12 H 0.5788 0.4988 0.4408
C19 C 0.6411(3) 0.6597(7) 0.5141(6)
H15 H 0.6777 0.6070 0.5461
C20 C 0.5932(3) 0.8658(7) 0.4800(8)
H16 H 0.5965 0.9604 0.4869
Cd4 Cd 0.743840(16) 0.89774(5) 0.64331(3)
Cd5 Cd 0.256160(16) 0.89774(5) 0.35669(3)
H22 H 0.339261 0.349263 0.0379249
C2 C 0.0806(3) 0.0955(7) 0.9508(5)
H2 H 0.0764 0.0011 0.9517
C3 C 0.0270(2) 0.1794(6) 0.8970(5)
C4 C 0.0368(3) 0.3178(7) 0.8965(6)
H3 H 0.0023 0.3761 0.8590
C5 C 0.0980(3) 0.3720(7) 0.9515(6)
H4 H 0.1034 0.4661 0.9519
O12 O 0.2079(2) 0.5454(5) 0.9321(4)
H21 H 0.27093 0.341247 0.921043
O6 O 0.2734(3) 0.9399(5) 0.2058(5)
Cd3 Cd 0.253403(16) 0.89001(5) 0.89820(3)
O7 O 0.7662(3) 0.8689(7) 0.4952(5)
C17 C 0.8923(3) 0.9247(7) 0.7812(7)
H13 H 0.8873 0.8303 0.7773
C18 C 0.9537(3) 0.9778(7) 0.8331(7)
H14 H 0.9885 0.9197 0.8625
O13 O 0.7873(3) 0.6854(6) 0.6960(7)
O14 O 0.7266(3) 0.9399(5) 0.7942(5)
H19 H 0.805329 0.813762 0.523615
H20 H 0.73036 0.821061 0.429858
O7_2 O 0.2338(3) 0.8689(7) 0.5048(5)
C17_2 C 0.1077(3) 0.9247(7) 0.2188(7)
H13_2 H 0.1127 0.8303 0.2227
C18_2 C 0.0463(3) 0.9778(7) 0.1669(7)
H14_2 H 0.0115 0.9197 0.1375
N5 N 0.3534(3) 0.7931(7) 0.4700(5)
H19_2 H 0.194671 0.813762 0.476385
H20_2 H 0.26964 0.821061 0.570142
C2_2 C 0.9194(3) 0.0955(7) 0.0492(5)
H2_2 H 0.9236 0.0011 0.0483
C3_2 C 0.9730(2) 0.1794(6) 0.1030(5)
C4_2 C 0.9632(3) 0.3178(7) 0.1035(6)
H3_2 H 0.9977 0.3761 0.1410
C5_2 C 0.9020(3) 0.3720(7) 0.0485(6)
H4_2 H 0.8966 0.4661 0.0481
O12_2 O 0.7921(2) 0.5454(5) 0.0679(4)
H21_2 H 0.72907 0.341247 0.0789566
Cd1_2 Cd 0.753403(16) 0.39001(5) 0.89820(3)
S1_2 S 0.81520(7) 0.57331(16) 0.77632(14)
S2_2 S 0.69106(7) 0.05026(17) 0.81189(15)
N1_2 N 0.8503(2) 0.2900(6) 0.9955(4)
N2_2 N 0.6569(2) 0.4894(5) 0.7830(5)
O1_2 O 0.7042(2) 0.3112(5) 0.9979(5)
O2_2 O 0.7987(3) 0.5864(8) 0.8671(6)
O3_2 O 0.7129(2) 0.1838(5) 0.7878(5)
O4_2 O 0.7079(2) 0.0454(5) 0.9321(4)
O9_2 O 0.7868(5) 0.4465(7) 0.7231(8)
O10_2 O 0.8828(3) 0.5746(8) 0.8317(7)
O11_2 O 0.6234(2) 0.0327(7) 0.7359(6)
C1_2 C 0.8594(3) 0.1561(7) 0.9969(5)
H1_2 H 0.8241 0.0996 0.9612
C9_2 C 0.6491(3) 0.6235(7) 0.7672(5)
H7_2 H 0.6850 0.6780 0.7955
C10_2 C 0.5922(3) 0.6850(7) 0.7127(5)
H8_2 H 0.5900 0.7799 0.7095
C11_2 C 0.5367(2) 0.6096(6) 0.6613(5)
C12_2 C 0.5438(3) 0.4662(7) 0.6729(7)
H9_2 H 0.5084 0.4098 0.6394
C13_2 C 0.6036(3) 0.4107(9) 0.7343(7)
H10_2 H 0.6078 0.3163 0.7427
C14_2 C 0.4716(3) 0.6730(7) 0.5975(5)
C15_2 C 0.4648(3) 0.8111(7) 0.5794(7)
H11_2 H 0.5003 0.8669 0.6084
C16_2 C 0.4185(2) 0.5932(7) 0.5500(5)
H12_2 H 0.4212 0.4988 0.5592
C19_2 C 0.3589(3) 0.6597(7) 0.4859(6)
H15_2 H 0.3223 0.6070 0.4539
C20_2 C 0.4068(3) 0.8658(7) 0.5200(8)
H16_2 H 0.4035 0.9604 0.5131
H22_2 H 0.660739 0.349263 0.962075
Cd3_2 Cd 0.746597(16) 0.89001(5) 0.10180(3)
N4_2 N 0.1466(3) 0.2931(7) 0.5300(5)
C14_3 C 0.0284(3) 0.1730(7) 0.4025(5)
C15_3 C 0.0352(3) 0.3111(7) 0.4206(7)
C16_3 C 0.0815(2) 0.0932(7) 0.4500(5)
C19_3 C 0.1411(3) 0.1597(7) 0.5141(6)
H15_3 H 0.1777 0.1070 0.5461
C20_3 C 0.0932(3) 0.3658(7) 0.4800(8)
H16_3 H 0.0965 0.4604 0.4869
Cd4_2 Cd 0.243840(16) 0.39774(5) 0.64331(3)
S1_3 S 0.68480(7) 0.07331(16) 0.22368(14)
O2_3 O 0.7013(3) 0.0864(8) 0.1329(6)
O5_2 O 0.7127(3) 0.1854(6) 0.3040(7)
O10_3 O 0.6172(3) 0.0746(8) 0.1683(7)
C9_3 C 0.8509(3) 0.1235(7) 0.2328(5)
H7_3 H 0.8150 0.1780 0.2045
C10_3 C 0.9078(3) 0.1850(7) 0.2873(5)
H8_3 H 0.9100 0.2799 0.2905
C11_3 C 0.9633(2) 0.1096(6) 0.3387(5)
H11_3 H 0.9997 0.3669 0.3916
Cd5_2 Cd 0.756160(16) 0.39774(5) 0.35669(3)
S2_3 S 0.80894(7) 0.55026(17) 0.18811(15)
N1_3 N 0.6497(2) 0.7900(6) 0.0045(4)
N2_3 N 0.8431(2) 0.9894(5) 0.2170(5)
O1_3 O 0.7958(2) 0.8112(5) 0.0021(5)
O3_3 O 0.7871(2) 0.6838(5) 0.2122(5)
O6_2 O 0.7734(3) 0.4399(5) 0.2058(5)
O9_3 O 0.7132(5) 0.9465(7) 0.2769(8)
O11_3 O 0.8766(2) 0.5327(7) 0.2641(6)
C1_3 C 0.6406(3) 0.6561(7) 0.0031(5)
H1_3 H 0.6759 0.5996 0.0388
C12_3 C 0.9562(3) 0.9662(7) 0.3271(7)
H9_3 H 0.9916 0.9098 0.3606
C13_3 C 0.8964(3) 0.9107(9) 0.2657(7)
H10_3 H 0.8922 0.8163 0.2573
H22_3 H 0.839261 0.849263 0.0379249
N3 N 0.3411(2) 0.5017(6) 0.7374(5)
O7_3 O 0.2662(3) 0.3689(7) 0.4952(5)
O8 O 0.1989(3) 0.6172(8) 0.5721(9)
C2_3 C 0.5806(3) 0.5955(7) 0.9508(5)
H2_3 H 0.5764 0.5011 0.9517
C3_3 C 0.5270(2) 0.6794(6) 0.8970(5)
C4_3 C 0.5368(3) 0.8178(7) 0.8965(6)
H3_3 H 0.5023 0.8761 0.8590
C5_3 C 0.5980(3) 0.8720(7) 0.9515(6)
H4_3 H 0.6034 0.9661 0.9519
C6 C 0.4621(3) 0.6193(6) 0.8401(5)
C7 C 0.4080(3) 0.6986(7) 0.7967(5)
H5 H 0.4119 0.7932 0.8024
C8 C 0.3489(3) 0.6415(7) 0.7457(6)
H6 H 0.3135 0.6979 0.7162
C17_3 C 0.3923(3) 0.4247(7) 0.7812(7)
H13_3 H 0.3873 0.3303 0.7773
C18_3 C 0.4537(3) 0.4778(7) 0.8331(7)
H14_3 H 0.4885 0.4197 0.8625
O13_2 O 0.2873(3) 0.1854(6) 0.6960(7)
O14_2 O 0.2266(3) 0.4399(5) 0.7942(5)
H17 H 0.216676 0.655535 0.526634
H18 H 0.152281 0.608507 0.522736
H19_3 H 0.305329 0.313762 0.523615
H20_3 H 0.23036 0.321061 0.429858
H21_3 H 0.77093 0.841247 0.921043
S1_4 S 0.31520(7) 0.07331(16) 0.77632(14)
O2_4 O 0.2987(3) 0.0864(8) 0.8671(6)
O10_4 O 0.3828(3) 0.0746(8) 0.8317(7)
C9_4 C 0.1491(3) 0.1235(7) 0.7672(5)
H7_4 H 0.1850 0.1780 0.7955
C10_4 C 0.0922(3) 0.1850(7) 0.7127(5)
H8_4 H 0.0900 0.2799 0.7095
C11_4 C 0.0367(2) 0.1096(6) 0.6613(5)
H11_4 H 0.0003 0.3669 0.6084
N3_2 N 0.6589(2) 0.5017(6) 0.2626(5)
O7_4 O 0.7338(3) 0.3689(7) 0.5048(5)
O8_2 O 0.8011(3) 0.6172(8) 0.4279(9)
C2_4 C 0.4194(3) 0.5955(7) 0.0492(5)
H2_4 H 0.4236 0.5011 0.0483
C3_4 C 0.4730(2) 0.6794(6) 0.1030(5)
C4_4 C 0.4632(3) 0.8178(7) 0.1035(6)
H3_4 H 0.4977 0.8761 0.1410
C5_4 C 0.4020(3) 0.8720(7) 0.0485(6)
H4_4 H 0.3966 0.9661 0.0481
C6_2 C 0.5379(3) 0.6193(6) 0.1599(5)
C7_2 C 0.5920(3) 0.6986(7) 0.2033(5)
H5_2 H 0.5881 0.7932 0.1976
C8_2 C 0.6511(3) 0.6415(7) 0.2543(6)
H6_2 H 0.6865 0.6979 0.2838
C17_4 C 0.6077(3) 0.4247(7) 0.2188(7)
H13_4 H 0.6127 0.3303 0.2227
C18_4 C 0.5463(3) 0.4778(7) 0.1669(7)
H14_4 H 0.5115 0.4197 0.1375
N5_2 N 0.8534(3) 0.2931(7) 0.4700(5)
H17_2 H 0.783324 0.655535 0.473366
H18_2 H 0.847719 0.608507 0.477264
H19_4 H 0.694671 0.313762 0.476385
H20_4 H 0.76964 0.321061 0.570142
H21_4 H 0.22907 0.841247 0.0789566
S2_4 S 0.19106(7) 0.55026(17) 0.81189(15)
N1_4 N 0.3503(2) 0.7900(6) 0.9955(4)
N2_4 N 0.1569(2) 0.9894(5) 0.7830(5)
O1_4 O 0.2042(2) 0.8112(5) 0.9979(5)
O3_4 O 0.2129(2) 0.6838(5) 0.7878(5)
O9_4 O 0.2868(5) 0.9465(7) 0.7231(8)
O11_4 O 0.1234(2) 0.5327(7) 0.7359(6)
C1_4 C 0.3594(3) 0.6561(7) 0.9969(5)
H1_4 H 0.3241 0.5996 0.9612
C12_4 C 0.0438(3) 0.9662(7) 0.6729(7)
H9_4 H 0.0084 0.9098 0.6394
C13_4 C 0.1036(3) 0.9107(9) 0.7343(7)
H10_4 H 0.1078 0.8163 0.7427
H22_4 H 0.160739 0.849263 0.962075
C14_4 C 0.9716(3) 0.1730(7) 0.5975(5)
C15_4 C 0.9648(3) 0.3111(7) 0.5794(7)
C16_4 C 0.9185(2) 0.0932(7) 0.5500(5)
C19_4 C 0.8589(3) 0.1597(7) 0.4859(6)
H15_4 H 0.8223 0.1070 0.4539
C20_4 C 0.9068(3) 0.3658(7) 0.5200(8)
H16_4 H 0.9035 0.4604 0.5131
N3_3 N 0.8411(2) 0.0017(6) 0.7374(5)
O8_3 O 0.6989(3) 0.1172(8) 0.5721(9)
C6_3 C 0.9621(3) 0.1193(6) 0.8401(5)
C7_3 C 0.9080(3) 0.1986(7) 0.7967(5)
H5_3 H 0.9119 0.2932 0.8024
C8_3 C 0.8489(3) 0.1415(7) 0.7457(6)
H6_3 H 0.8135 0.1979 0.7162
H17_3 H 0.716676 0.155535 0.526634
H18_3 H 0.652281 0.108507 0.522736
N3_4 N 0.1589(2) 0.0017(6) 0.2626(5)
O8_4 O 0.3011(3) 0.1172(8) 0.4279(9)
C6_4 C 0.0379(3) 0.1193(6) 0.1599(5)
C7_4 C 0.0920(3) 0.1986(7) 0.2033(5)
H5_4 H 0.0881 0.2932 0.1976
C8_4 C 0.1511(3) 0.1415(7) 0.2543(6)
H6_4 H 0.1865 0.1979 0.2838
H17_4 H 0.283324 0.155535 0.473366
H18_4 H 0.347719 0.108507 0.477264
H12_3 H 0.0788 0.9988 0.4408
H12_4 H 0.9212 0.9988 0.5592
loop_
_geom_bond_atom_site_label_1
_geom_bond_atom_site_label_2
_geom_bond_site_symmetry_1
_geom_bond_site_symmetry_2
Cd1 N1 1_555 1_555
S1 O2 1_555 1_555
S2 O3 1_555 1_555
N1 C1 1_555 1_555
N2 Cd1 1_555 1_555
N4 C19 1_555 1_555
O1 Cd1 1_555 1_555
O2 Cd1 1_555 1_555
O3 Cd1 1_555 1_555
O4 S2 1_555 1_555
O5 S1 1_555 1_555
O9 S1 1_555 1_555
O10 S1 1_555 1_555
O11 S2 1_555 1_555
C1 H1 1_555 1_555
C9 N2 1_555 1_555
H7 C9 1_555 1_555
C10 C9 1_555 1_555
H8 C10 1_555 1_555
C11 C10 1_555 1_555
C12 C11 1_555 1_555
H9 C12 1_555 1_555
C13 N2 1_555 1_555
H10 C13 1_555 1_555
C14 C11 1_555 1_555
C15 C14 1_555 1_555
H11 C15 1_555 1_555
C16 C14 1_555 1_555
H12 C16 1_555 1_555
C19 C16 1_555 1_555
H15 C19 1_555 1_555
C20 N4 1_555 1_555
H16 C20 1_555 1_555
Cd4 N4 1_555 1_555
Cd5 O5 1_555 1_555
C12 C13 1_555 1_555
C15 C20 1_555 1_555
O1 H22 1_555 1_555
H2 C2 1_555 1_555
C3 C2 1_555 1_555
C4 C3 1_555 1_555
H3 C4 1_555 1_555
H4 C5 1_555 1_555
C4 C5 1_555 1_555
Cd5 O6 1_555 1_555
O7 Cd4 1_555 1_555
H13 C17 1_555 1_555
H14 C18 1_555 1_555
O13 Cd4 1_555 1_555
O14 Cd4 1_555 1_555
C17 C18 1_555 1_555
O7 H19 1_555 1_555
O7 H20 1_555 1_555
O7_2 Cd5 1_555 1_555
H13_2 C17_2 1_555 1_555
H14_2 C18_2 1_555 1_555
N5 Cd5 1_555 1_555
C17_2 C18_2 1_555 1_555
O7_2 H19_2 1_555 1_555
O7_2 H20_2 1_555 1_555
H2_2 C2_2 1_555 1_555
C3_2 C2_2 1_555 1_555
C4_2 C3_2 1_555 1_555
H3_2 C4_2 1_555 1_555
H4_2 C5_2 1_555 1_555
C4_2 C5_2 1_555 1_555
Cd1_2 N1_2 1_555 1_555
S1_2 O2_2 1_555 1_555
S2_2 O3_2 1_555 1_555
N1_2 C1_2 1_555 1_555
N2_2 Cd1_2 1_555 1_555
N5 C19_2 1_555 1_555
O1_2 Cd1_2 1_555 1_555
O2_2 Cd1_2 1_555 1_555
O3_2 Cd1_2 1_555 1_555
O4_2 S2_2 1_555 1_555
O13 S1_2 1_555 1_555
O9_2 S1_2 1_555 1_555
O10_2 S1_2 1_555 1_555
O11_2 S2_2 1_555 1_555
C1_2 H1_2 1_555 1_555
C9_2 N2_2 1_555 1_555
H7_2 C9_2 1_555 1_555
C10_2 C9_2 1_555 1_555
H8_2 C10_2 1_555 1_555
C11_2 C10_2 1_555 1_555
C12_2 C11_2 1_555 1_555
H9_2 C12_2 1_555 1_555
C13_2 N2_2 1_555 1_555
H10_2 C13_2 1_555 1_555
C14_2 C11_2 1_555 1_555
C15_2 C14_2 1_555 1_555
H11_2 C15_2 1_555 1_555
C16_2 C14_2 1_555 1_555
H12_2 C16_2 1_555 1_555
C19_2 C16_2 1_555 1_555
H15_2 C19_2 1_555 1_555
C20_2 N5 1_555 1_555
H16_2 C20_2 1_555 1_555
C12_2 C13_2 1_555 1_555
C15_2 C20_2 1_555 1_555
O1_2 H22_2 1_555 1_555
N4_2 C19_3 1_555 1_555
C15_3 C14_3 1_555 1_555
C16_3 C14_3 1_555 1_555
C19_3 C16_3 1_555 1_555
H15_3 C19_3 1_555 1_555
C20_3 N4_2 1_555 1_555
H16_3 C20_3 1_555 1_555
Cd4_2 N4_2 1_555 1_555
C15_3 C20_3 1_555 1_555
S1_3 O2_3 1_555 1_555
O5_2 S1_3 1_555 1_555
O10_3 S1_3 1_555 1_555
H7_3 C9_3 1_555 1_555
C10_3 C9_3 1_555 1_555
H8_3 C10_3 1_555 1_555
C11_3 C10_3 1_555 1_555
Cd5_2 O5_2 1_555 1_555
Cd3_2 N1_3 1_555 1_555
S2_3 O3_3 1_555 1_555
N1_3 C1_3 1_555 1_555
N2_3 Cd3_2 1_555 1_555
O1_3 Cd3_2 1_555 1_555
O3_3 Cd3_2 1_555 1_555
O12_2 S2_3 1_555 1_555
O6_2 S2_3 1_555 1_555
O11_3 S2_3 1_555 1_555
C1_3 H1_3 1_555 1_555
H9_3 C12_3 1_555 1_555
C13_3 N2_3 1_555 1_555
H10_3 C13_3 1_555 1_555
Cd5_2 O6_2 1_555 1_555
C12_3 C13_3 1_555 1_555
O1_3 H22_3 1_555 1_555
Cd4_2 N3 1_555 1_555
N3 C8 1_555 1_555
O7_3 Cd4_2 1_555 1_555
O8 Cd4_2 1_555 1_555
H2_3 C2_3 1_555 1_555
C3_3 C2_3 1_555 1_555
C4_3 C3_3 1_555 1_555
H3_3 C4_3 1_555 1_555
H4_3 C5_3 1_555 1_555
C6 C3_3 1_555 1_555
C7 C6 1_555 1_555
H5 C7 1_555 1_555
C8 C7 1_555 1_555
H6 C8 1_555 1_555
C17_3 N3 1_555 1_555
H13_3 C17_3 1_555 1_555
C18_3 C6 1_555 1_555
H14_3 C18_3 1_555 1_555
O13_2 Cd4_2 1_555 1_555
O14_2 Cd4_2 1_555 1_555
C4_3 C5_3 1_555 1_555
C17_3 C18_3 1_555 1_555
O8 H17 1_555 1_555
O8 H18 1_555 1_555
O7_3 H19_3 1_555 1_555
O7_3 H20_3 1_555 1_555
S1_4 O2_4 1_555 1_555
O13_2 S1_4 1_555 1_555
O10_4 S1_4 1_555 1_555
H7_4 C9_4 1_555 1_555
C10_4 C9_4 1_555 1_555
H8_4 C10_4 1_555 1_555
C11_4 C10_4 1_555 1_555
Cd5_2 N3_2 1_555 1_555
N3_2 C8_2 1_555 1_555
O7_4 Cd5_2 1_555 1_555
O8_2 Cd5_2 1_555 1_555
H2_4 C2_4 1_555 1_555
C3_4 C2_4 1_555 1_555
C4_4 C3_4 1_555 1_555
H3_4 C4_4 1_555 1_555
H4_4 C5_4 1_555 1_555
C6_2 C3_4 1_555 1_555
C7_2 C6_2 1_555 1_555
H5_2 C7_2 1_555 1_555
C8_2 C7_2 1_555 1_555
H6_2 C8_2 1_555 1_555
C17_4 N3_2 1_555 1_555
H13_4 C17_4 1_555 1_555
C18_4 C6_2 1_555 1_555
H14_4 C18_4 1_555 1_555
N5_2 Cd5_2 1_555 1_555
C4_4 C5_4 1_555 1_555
C17_4 C18_4 1_555 1_555
O8_2 H17_2 1_555 1_555
O8_2 H18_2 1_555 1_555
O7_4 H19_4 1_555 1_555
O7_4 H20_4 1_555 1_555
Cd3 N1_4 1_555 1_555
S2_4 O3_4 1_555 1_555
N1_4 C1_4 1_555 1_555
N2_4 Cd3 1_555 1_555
O1_4 Cd3 1_555 1_555
O3_4 Cd3 1_555 1_555
O12 S2_4 1_555 1_555
O14_2 S2_4 1_555 1_555
O11_4 S2_4 1_555 1_555
C1_4 H1_4 1_555 1_555
H9_4 C12_4 1_555 1_555
C13_4 N2_4 1_555 1_555
H10_4 C13_4 1_555 1_555
C12_4 C13_4 1_555 1_555
O1_4 H22_4 1_555 1_555
N5_2 C19_4 1_555 1_555
C15_4 C14_4 1_555 1_555
C16_4 C14_4 1_555 1_555
C19_4 C16_4 1_555 1_555
H15_4 C19_4 1_555 1_555
C20_4 N5_2 1_555 1_555
H16_4 C20_4 1_555 1_555
C15_4 C20_4 1_555 1_555
N3_3 C8_3 1_555 1_555
C7_3 C6_3 1_555 1_555
H5_3 C7_3 1_555 1_555
C8_3 C7_3 1_555 1_555
H6_3 C8_3 1_555 1_555
O8_3 H17_3 1_555 1_555
O8_3 H18_3 1_555 1_555
N3_4 C8_4 1_555 1_555
C7_4 C6_4 1_555 1_555
H5_4 C7_4 1_555 1_555
C8_4 C7_4 1_555 1_555
H6_4 C8_4 1_555 1_555
O8_4 H17_4 1_555 1_555
O8_4 H18_4 1_555 1_555

#END
