
###############################################################################
#
# This file contains modified crystal structure data generated from the
# MOF subset of the Cambridge Structural Database (CSD) v543 
# hosted by the Cambridge Crystallographic Data Centre (CCDC).
#
# This work is licensed under the Creative Commons
# Attribution-NonCommercial-ShareAlike 4.0 International License.
# To view a copy of this license, visit
# http://creativecommons.org/licenses/by-nc-sa/4.0/
# or send a letter to
# Creative Commons, PO Box 1866, Mountain View, CA 94042, USA.
#
# CIF created using the CSD Python API on 29 September 2022
# The structure has been converted into the P1 space group
# The structure has a 3D framework
# The original CSD entry XUSZET is in the tetragonal crystal system
# The framework has been calculated to contain at least 10.0% void space
# The void calculation uses a probe of radius 1.32A, grid spacing 0.4
# H atom positions have been added when not included in the experimental data
# Generated hydrogen atom positions removed from atoms on special positions
#
###############################################################################

data_XUSZET
_chemical_formula_moiety         '(C96 H176 Cu12 N16 O51 S12 Zr12)n'
_symmetry_cell_setting           triclinic
_symmetry_space_group_name_H-M   'P 1'
_symmetry_Int_Tables_number      1
_space_group_name_Hall           'P 1'
loop_
_symmetry_equiv_pos_site_id
_symmetry_equiv_pos_as_xyz
1 x,y,z
_cell_length_a                   15.0071(5)
_cell_length_b                   15.0071(5)
_cell_length_c                   30.8086(10)
_cell_angle_alpha                90
_cell_angle_beta                 90
_cell_angle_gamma                90
_cell_volume                     6938.5
loop_
_atom_site_label
_atom_site_type_symbol
_atom_site_fract_x
_atom_site_fract_y
_atom_site_fract_z
Zr1 Zr 0.61651(3) 0.38349(3) 0.5000
Zr2 Zr 0.41711(3) 0.41711(3) 0.442758(12)
Cu1 Cu 0.46685(4) 0.08988(4) 0.275764(17)
O1 O 0.60733(19) 0.2672(2) 0.45629(7)
O2 O 0.4798(2) 0.2904(2) 0.41888(9)
O3 O 0.3144(3) 0.3144(3) 0.44533(16)
O4 O 0.4753(3) 0.3601(4) 0.5000
N1 N 0.5482(2) 0.1073(3) 0.32686(10)
O5 O 0.4271(3) 0.4271(3) 0.37199(12)
O6 O 0.4446(3) 0.5554(3) 0.4439(2)
C1 C 0.5808(3) 0.1829(3) 0.39319(11)
C2 C 0.5253(3) 0.1627(3) 0.35844(11)
H1 H 0.4682 0.1899 0.3573
C3 C 0.5541(3) 0.2521(3) 0.42528(12)
C4 C 0.6272(3) 0.0670(3) 0.32798(11)
C5 C 0.6875(3) 0.0830(4) 0.36214(14)
H2 H 0.7434 0.0534 0.3629
C6 C 0.6645(3) 0.1422(4) 0.39445(13)
H3 H 0.7050 0.1551 0.4173
S2 S 0.34166(7) 0.00758(8) 0.28642(3)
S3 S 0.34166(7) 0.00758(8) 0.71358(3)
Zr3 Zr 0.41711(3) 0.41711(3) 0.557242(12)
Cu4 Cu 0.46685(4) 0.08988(4) 0.724236(17)
O11 O 0.60733(19) 0.2672(2) 0.54371(7)
O12 O 0.4798(2) 0.2904(2) 0.58112(9)
O13 O 0.3144(3) 0.3144(3) 0.55467(16)
N4 N 0.5482(2) 0.1073(3) 0.67314(10)
O14 O 0.4271(3) 0.4271(3) 0.62801(12)
O15 O 0.4446(3) 0.5554(3) 0.5561(2)
C19 C 0.5808(3) 0.1829(3) 0.60681(11)
C20 C 0.5253(3) 0.1627(3) 0.64156(11)
H10 H 0.4682 0.1899 0.6427
C21 C 0.5541(3) 0.2521(3) 0.57472(12)
C22 C 0.6272(3) 0.0670(3) 0.67202(11)
C23 C 0.6875(3) 0.0830(4) 0.63786(14)
H11 H 0.7434 0.0534 0.6371
C24 C 0.6645(3) 0.1422(4) 0.60555(13)
H12 H 0.7050 0.1551 0.5827
O16 O 0.6399(4) 0.5247(3) 0.5000
Zr5 Zr 0.38349(3) 0.61651(3) 0.5000
Zr7 Zr 0.58289(3) 0.58289(3) 0.442758(12)
Zr9 Zr 0.58289(3) 0.58289(3) 0.557242(12)
Cu6 Cu 0.58988(4) 0.03315(4) 0.775764(17)
Cu7 Cu 0.58988(4) 0.03315(4) 0.224236(17)
S5 S 0.50758(8) 0.15834(7) 0.78642(3)
S8 S 0.50758(8) 0.15834(7) 0.21358(3)
O17 O 0.7328(2) 0.39267(19) 0.54371(7)
O18 O 0.7328(2) 0.39267(19) 0.45629(7)
O19 O 0.2904(2) 0.4798(2) 0.58112(9)
O20 O 0.2904(2) 0.4798(2) 0.41888(9)
O21 O 0.3601(4) 0.4753(3) 0.5000
O22 O 0.5554(3) 0.4446(3) 0.4439(2)
O23 O 0.5554(3) 0.4446(3) 0.5561(2)
S1 S 0.65834(7) 0.99242(8) 0.28642(3)
Cu2 Cu 0.53315(4) 0.91012(4) 0.275764(17)
O7 O 0.39267(19) 0.7328(2) 0.45629(7)
O8 O 0.5202(2) 0.7096(2) 0.41888(9)
N2 N 0.4518(2) 0.8927(3) 0.32686(10)
C7 C 0.4192(3) 0.8171(3) 0.39319(11)
C8 C 0.4747(3) 0.8373(3) 0.35844(11)
H4 H 0.5318 0.8101 0.3573
C9 C 0.4459(3) 0.7479(3) 0.42528(12)
C10 C 0.3728(3) 0.9330(3) 0.32798(11)
C11 C 0.3125(3) 0.9170(4) 0.36214(14)
H5 H 0.2566 0.9466 0.3629
C12 C 0.3355(3) 0.8578(4) 0.39445(13)
H6 H 0.2950 0.8449 0.4173
Cu3 Cu 0.53315(4) 0.91012(4) 0.724236(17)
O9 O 0.39267(19) 0.7328(2) 0.54371(7)
O10 O 0.5202(2) 0.7096(2) 0.58112(9)
N3 N 0.4518(2) 0.8927(3) 0.67314(10)
C13 C 0.4192(3) 0.8171(3) 0.60681(11)
C14 C 0.4747(3) 0.8373(3) 0.64156(11)
H7 H 0.5318 0.8101 0.6427
C15 C 0.4459(3) 0.7479(3) 0.57472(12)
C16 C 0.3728(3) 0.9330(3) 0.67202(11)
C17 C 0.3125(3) 0.9170(4) 0.63786(14)
H8 H 0.2566 0.9466 0.6371
C18 C 0.3355(3) 0.8578(4) 0.60555(13)
H9 H 0.2950 0.8449 0.5827
S4 S 0.65834(7) 0.99242(8) 0.71358(3)
Cu5 Cu 0.41012(4) 0.96685(4) 0.775764(17)
Cu8 Cu 0.41012(4) 0.96685(4) 0.224236(17)
S6 S 0.49242(8) 0.84166(7) 0.78642(3)
S7 S 0.49242(8) 0.84166(7) 0.21358(3)
O3_2 O 0.6856(3) 0.6856(3) 0.44533(16)
O4_2 O 0.5247(3) 0.6399(4) 0.5000
O5_2 O 0.5729(3) 0.5729(3) 0.37199(12)
O13_2 O 0.6856(3) 0.6856(3) 0.55467(16)
O14_2 O 0.5729(3) 0.5729(3) 0.62801(12)
O17_2 O 0.2672(2) 0.60733(19) 0.54371(7)
O18_2 O 0.2672(2) 0.60733(19) 0.45629(7)
O19_2 O 0.7096(2) 0.5202(2) 0.58112(9)
O20_2 O 0.7096(2) 0.5202(2) 0.41888(9)
Zr1_2 Zr 0.11651(3) 0.11651(3) -0.0000
O10_2 O 0.7904(2) 0.0202(2) 0.08112(9)
H7_2 H 0.6899 0.0318 0.1427
O11_2 O 0.2328(2) 0.10733(19) 0.04371(7)
N4_2 N 0.3927(3) 0.0482(2) 0.17314(10)
C19_2 C 0.3171(3) 0.0808(3) 0.10681(11)
C20_2 C 0.3373(3) 0.0253(3) 0.14156(11)
C21_2 C 0.2479(3) 0.0541(3) 0.07472(12)
C22_2 C 0.4330(3) 0.1272(3) 0.17202(11)
C23_2 C 0.4170(4) 0.1875(3) 0.13786(14)
H11_2 H 0.4466 0.2434 0.1371
C24_2 C 0.3578(4) 0.1645(3) 0.10555(13)
H12_2 H 0.3449 0.2050 0.0827
Zr8 Zr 0.91711(3) 0.08289(3) 0.057242(12)
O17_3 O 0.10733(19) 0.2328(2) 0.04371(7)
O23_2 O 0.0554(3) 0.0554(3) 0.0561(2)
Zr1_3 Zr 0.11651(3) 0.11651(3) 1.0000
O1_2 O 0.2328(2) 0.10733(19) 0.95629(7)
N1_2 N 0.3927(3) 0.0482(2) 0.82686(10)
C1_2 C 0.3171(3) 0.0808(3) 0.89319(11)
C2_2 C 0.3373(3) 0.0253(3) 0.85844(11)
C3_2 C 0.2479(3) 0.0541(3) 0.92528(12)
C4_2 C 0.4330(3) 0.1272(3) 0.82798(11)
C5_2 C 0.4170(4) 0.1875(3) 0.86214(14)
H2_2 H 0.4466 0.2434 0.8629
C6_2 C 0.3578(4) 0.1645(3) 0.89445(13)
H3_2 H 0.3449 0.2050 0.9173
O8_2 O 0.7904(2) 0.0202(2) 0.91888(9)
H4_2 H 0.6899 0.0318 0.8573
Zr6 Zr 0.91711(3) 0.08289(3) 0.942758(12)
O18_3 O 0.10733(19) 0.2328(2) 0.95629(7)
O22_2 O 0.0554(3) 0.0554(3) 0.9439(2)
O4_3 O 0.1399(4) 0.9753(3) -0.0000
O9_2 O 0.7672(2) 0.89267(19) 0.04371(7)
N3_2 N 0.6073(3) 0.9518(2) 0.17314(10)
C13_2 C 0.6829(3) 0.9192(3) 0.10681(11)
C14_2 C 0.6627(3) 0.9747(3) 0.14156(11)
C15_2 C 0.7521(3) 0.9459(3) 0.07472(12)
C16_2 C 0.5670(3) 0.8728(3) 0.17202(11)
C17_2 C 0.5830(4) 0.8125(3) 0.13786(14)
H8_2 H 0.5534 0.7566 0.1371
C18_2 C 0.6422(4) 0.8355(3) 0.10555(13)
H9_2 H 0.6551 0.7950 0.0827
Zr3_2 Zr 0.08289(3) 0.91711(3) 0.057242(12)
O12_2 O 0.2096(2) 0.9798(2) 0.08112(9)
O13_3 O 0.1856(3) 0.8144(3) 0.05467(16)
O14_3 O 0.0729(3) 0.9271(3) 0.12801(12)
H10_2 H 0.3101 0.9682 0.1427
Zr4 Zr 0.88349(3) 0.88349(3) -0.0000
O19_3 O 0.0202(2) 0.7904(2) 0.08112(9)
O21_2 O 0.0247(3) 0.8601(4) -0.0000
Zr2_2 Zr 0.08289(3) 0.91711(3) 0.942758(12)
O2_2 O 0.2096(2) 0.9798(2) 0.91888(9)
O3_3 O 0.1856(3) 0.8144(3) 0.94533(16)
O4_4 O 0.1399(4) 0.9753(3) 1.0000
O5_3 O 0.0729(3) 0.9271(3) 0.87199(12)
H1_2 H 0.3101 0.9682 0.8573
O7_2 O 0.7672(2) 0.89267(19) 0.95629(7)
N2_2 N 0.6073(3) 0.9518(2) 0.82686(10)
C7_2 C 0.6829(3) 0.9192(3) 0.89319(11)
C8_2 C 0.6627(3) 0.9747(3) 0.85844(11)
C9_2 C 0.7521(3) 0.9459(3) 0.92528(12)
C10_2 C 0.5670(3) 0.8728(3) 0.82798(11)
C11_2 C 0.5830(4) 0.8125(3) 0.86214(14)
H5_2 H 0.5534 0.7566 0.8629
C12_2 C 0.6422(4) 0.8355(3) 0.89445(13)
H6_2 H 0.6551 0.7950 0.9173
Zr4_2 Zr 0.88349(3) 0.88349(3) 1.0000
O20_3 O 0.0202(2) 0.7904(2) 0.91888(9)
O21_3 O 0.0247(3) 0.8601(4) 1.0000
O16_2 O 0.9753(3) 0.1399(4) -0.0000
O16_3 O 0.9753(3) 0.1399(4) 1.0000
O15_2 O 0.9446(3) 0.9446(3) 0.0561(2)
O6_2 O 0.9446(3) 0.9446(3) 0.9439(2)
O4_5 O 0.8601(4) 0.0247(3) -0.0000
O13_4 O 0.8144(3) 0.1856(3) 0.05467(16)
O14_4 O 0.9271(3) 0.0729(3) 0.12801(12)
O19_4 O 0.9798(2) 0.2096(2) 0.08112(9)
O3_4 O 0.8144(3) 0.1856(3) 0.94533(16)
O4_6 O 0.8601(4) 0.0247(3) 1.0000
O5_4 O 0.9271(3) 0.0729(3) 0.87199(12)
O20_4 O 0.9798(2) 0.2096(2) 0.91888(9)
O17_4 O 0.89267(19) 0.7672(2) 0.04371(7)
O18_4 O 0.89267(19) 0.7672(2) 0.95629(7)
Cu1_2 Cu 0.03315(4) 0.58988(4) 0.224236(17)
H1_3 H 0.0318 0.6899 0.1427
S2_2 S 0.15834(7) 0.50758(8) 0.21358(3)
N2_3 N 0.0482(2) 0.3927(3) 0.17314(10)
C7_3 C 0.0808(3) 0.3171(3) 0.10681(11)
C8_3 C 0.0253(3) 0.3373(3) 0.14156(11)
C9_3 C 0.0541(3) 0.2479(3) 0.07472(12)
C10_3 C 0.1272(3) 0.4330(3) 0.17202(11)
C11_3 C 0.1875(3) 0.4170(4) 0.13786(14)
H5_3 H 0.2434 0.4466 0.1371
C12_3 C 0.1645(3) 0.3578(4) 0.10555(13)
H6_3 H 0.2050 0.3449 0.0827
Cu8_2 Cu 0.08988(4) 0.46685(4) 0.275764(17)
S7_2 S 0.00758(8) 0.34166(7) 0.28642(3)
S3_2 S 0.15834(7) 0.50758(8) 0.78642(3)
N3_3 N 0.0482(2) 0.3927(3) 0.82686(10)
C13_3 C 0.0808(3) 0.3171(3) 0.89319(11)
C14_3 C 0.0253(3) 0.3373(3) 0.85844(11)
C15_3 C 0.0541(3) 0.2479(3) 0.92528(12)
C16_3 C 0.1272(3) 0.4330(3) 0.82798(11)
C17_3 C 0.1875(3) 0.4170(4) 0.86214(14)
H8_3 H 0.2434 0.4466 0.8629
C18_3 C 0.1645(3) 0.3578(4) 0.89445(13)
H9_3 H 0.2050 0.3449 0.9173
Cu4_2 Cu 0.03315(4) 0.58988(4) 0.775764(17)
H10_3 H 0.0318 0.6899 0.8573
Cu5_2 Cu 0.08988(4) 0.46685(4) 0.724236(17)
S6_2 S 0.00758(8) 0.34166(7) 0.71358(3)
S1_2 S 0.84166(7) 0.49242(8) 0.21358(3)
N1_3 N 0.9518(2) 0.6073(3) 0.17314(10)
C1_3 C 0.9192(3) 0.6829(3) 0.10681(11)
C2_3 C 0.9747(3) 0.6627(3) 0.14156(11)
C3_3 C 0.9459(3) 0.7521(3) 0.07472(12)
C4_3 C 0.8728(3) 0.5670(3) 0.17202(11)
C5_3 C 0.8125(3) 0.5830(4) 0.13786(14)
H2_3 H 0.7566 0.5534 0.1371
C6_3 C 0.8355(3) 0.6422(4) 0.10555(13)
H3_3 H 0.7950 0.6551 0.0827
Cu2_2 Cu 0.96685(4) 0.41012(4) 0.224236(17)
H4_3 H 0.9682 0.3101 0.1427
Cu7_2 Cu 0.91012(4) 0.53315(4) 0.275764(17)
S8_2 S 0.99242(8) 0.65834(7) 0.28642(3)
Cu3_2 Cu 0.96685(4) 0.41012(4) 0.775764(17)
H7_3 H 0.9682 0.3101 0.8573
S4_2 S 0.84166(7) 0.49242(8) 0.78642(3)
N4_3 N 0.9518(2) 0.6073(3) 0.82686(10)
C19_3 C 0.9192(3) 0.6829(3) 0.89319(11)
C20_3 C 0.9747(3) 0.6627(3) 0.85844(11)
C21_3 C 0.9459(3) 0.7521(3) 0.92528(12)
C22_3 C 0.8728(3) 0.5670(3) 0.82798(11)
C23_3 C 0.8125(3) 0.5830(4) 0.86214(14)
H11_3 H 0.7566 0.5534 0.8629
C24_3 C 0.8355(3) 0.6422(4) 0.89445(13)
H12_3 H 0.7950 0.6551 0.9173
Cu6_2 Cu 0.91012(4) 0.53315(4) 0.724236(17)
S5_2 S 0.99242(8) 0.65834(7) 0.71358(3)
N1_4 N 0.1073(3) 0.5482(2) 0.67314(10)
C1_4 C 0.1829(3) 0.5808(3) 0.60681(11)
C2_4 C 0.1627(3) 0.5253(3) 0.64156(11)
H1_4 H 0.1899 0.4682 0.6427
C3_4 C 0.2521(3) 0.5541(3) 0.57472(12)
C4_4 C 0.0670(3) 0.6272(3) 0.67202(11)
C5_4 C 0.0830(4) 0.6875(3) 0.63786(14)
H2_4 H 0.0534 0.7434 0.6371
C6_4 C 0.1422(4) 0.6645(3) 0.60555(13)
H3_4 H 0.1551 0.7050 0.5827
N4_4 N 0.1073(3) 0.5482(2) 0.32686(10)
C19_4 C 0.1829(3) 0.5808(3) 0.39319(11)
C20_4 C 0.1627(3) 0.5253(3) 0.35844(11)
H10_4 H 0.1899 0.4682 0.3573
C21_4 C 0.2521(3) 0.5541(3) 0.42528(12)
C22_4 C 0.0670(3) 0.6272(3) 0.32798(11)
C23_4 C 0.0830(4) 0.6875(3) 0.36214(14)
H11_4 H 0.0534 0.7434 0.3629
C24_4 C 0.1422(4) 0.6645(3) 0.39445(13)
H12_4 H 0.1551 0.7050 0.4173
N2_4 N 0.8927(3) 0.4518(2) 0.67314(10)
C7_4 C 0.8171(3) 0.4192(3) 0.60681(11)
C8_4 C 0.8373(3) 0.4747(3) 0.64156(11)
H4_4 H 0.8101 0.5318 0.6427
C9_4 C 0.7479(3) 0.4459(3) 0.57472(12)
C10_4 C 0.9330(3) 0.3728(3) 0.67202(11)
C11_4 C 0.9170(4) 0.3125(3) 0.63786(14)
H5_4 H 0.9466 0.2566 0.6371
C12_4 C 0.8578(4) 0.3355(3) 0.60555(13)
H6_4 H 0.8449 0.2950 0.5827
N3_4 N 0.8927(3) 0.4518(2) 0.32686(10)
C13_4 C 0.8171(3) 0.4192(3) 0.39319(11)
C14_4 C 0.8373(3) 0.4747(3) 0.35844(11)
H7_4 H 0.8101 0.5318 0.3573
C15_4 C 0.7479(3) 0.4459(3) 0.42528(12)
C16_4 C 0.9330(3) 0.3728(3) 0.32798(11)
C17_4 C 0.9170(4) 0.3125(3) 0.36214(14)
H8_4 H 0.9466 0.2566 0.3629
C18_4 C 0.8578(4) 0.3355(3) 0.39445(13)
H9_4 H 0.8449 0.2950 0.4173
loop_
_geom_bond_atom_site_label_1
_geom_bond_atom_site_label_2
_geom_bond_site_symmetry_1
_geom_bond_site_symmetry_2
Zr1 O1 1_555 1_555
Zr2 O2 1_555 1_555
Cu1 N1 1_555 1_555
O1 C3 1_555 1_555
O2 C3 1_555 1_555
O3 Zr2 1_555 1_555
O4 Zr1 1_555 1_555
N1 C2 1_555 1_555
O5 Zr2 1_555 1_555
O6 Zr2 1_555 1_555
C1 C2 1_555 1_555
C2 H1 1_555 1_555
C3 C1 1_555 1_555
C4 N1 1_555 1_555
C5 C4 1_555 1_555
H2 C5 1_555 1_555
C6 C1 1_555 1_555
H3 C6 1_555 1_555
S2 Cu1 1_555 1_555
Zr3 O4 1_555 1_555
Cu4 S3 1_555 1_555
O11 Zr1 1_555 1_555
O12 Zr3 1_555 1_555
O13 Zr3 1_555 1_555
N4 Cu4 1_555 1_555
O14 Zr3 1_555 1_555
O15 Zr3 1_555 1_555
C19 C20 1_555 1_555
C20 N4 1_555 1_555
H10 C20 1_555 1_555
C21 O11 1_555 1_555
C23 C22 1_555 1_555
H11 C23 1_555 1_555
C24 C19 1_555 1_555
H12 C24 1_555 1_555
O16 Zr1 1_555 1_555
Zr5 O6 1_555 1_555
Zr7 O6 1_555 1_555
Zr9 O15 1_555 1_555
S5 Cu4 1_555 1_555
S8 Cu1 1_555 1_555
O17 Zr1 1_555 1_555
O18 Zr1 1_555 1_555
O19 Zr3 1_555 1_555
O20 Zr2 1_555 1_555
O21 Zr2 1_555 1_555
O22 Zr1 1_555 1_555
O23 Zr1 1_555 1_555
Zr2 O4 1_555 1_555
Zr2 O22 1_555 1_555
C5 C6 1_555 1_555
Zr3 O21 1_555 1_555
Zr3 O23 1_555 1_555
O12 C21 1_555 1_555
N4 C22 1_555 1_555
O15 Zr5 1_555 1_555
C19 C21 1_555 1_555
C23 C24 1_555 1_555
O16 Zr7 1_555 1_555
O16 Zr9 1_555 1_555
Zr5 O21 1_555 1_555
Zr7 O22 1_555 1_555
Zr9 O23 1_555 1_555
Cu6 S5 1_555 1_555
Cu7 S8 1_555 1_555
Cu2 S1 1_555 1_555
O7 C9 1_555 1_555
O8 C9 1_555 1_555
N2 Cu2 1_555 1_555
C7 C8 1_555 1_555
C8 N2 1_555 1_555
H4 C8 1_555 1_555
C9 C7 1_555 1_555
C11 C10 1_555 1_555
H5 C11 1_555 1_555
C12 C7 1_555 1_555
H6 C12 1_555 1_555
Cu3 N3 1_555 1_555
O9 C15 1_555 1_555
O10 C15 1_555 1_555
N3 C14 1_555 1_555
C13 C14 1_555 1_555
C14 H7 1_555 1_555
C15 C13 1_555 1_555
C16 N3 1_555 1_555
C17 C16 1_555 1_555
H8 C17 1_555 1_555
C18 C13 1_555 1_555
H9 C18 1_555 1_555
S4 Cu3 1_555 1_555
Zr5 O7 1_555 1_555
Zr7 O8 1_555 1_555
Zr9 O10 1_555 1_555
S6 Cu3 1_555 1_555
S7 Cu2 1_555 1_555
N2 C10 1_555 1_555
C11 C12 1_555 1_555
O9 Zr5 1_555 1_555
C17 C18 1_555 1_555
Cu5 S6 1_555 1_555
Cu8 S7 1_555 1_555
O3_2 Zr7 1_555 1_555
O4_2 Zr5 1_555 1_555
O5_2 Zr7 1_555 1_555
Zr9 O4_2 1_555 1_555
O13_2 Zr9 1_555 1_555
O14_2 Zr9 1_555 1_555
O17_2 Zr5 1_555 1_555
O18_2 Zr5 1_555 1_555
O19_2 Zr9 1_555 1_555
O20_2 Zr7 1_555 1_555
Zr7 O4_2 1_555 1_555
O11_2 Zr1_2 1_555 1_555
C19_2 C20_2 1_555 1_555
C20_2 N4_2 1_555 1_555
C21_2 O11_2 1_555 1_555
C22_2 S8 1_555 1_555
C23_2 C22_2 1_555 1_555
H11_2 C23_2 1_555 1_555
C24_2 C19_2 1_555 1_555
H12_2 C24_2 1_555 1_555
Zr8 O10_2 1_555 1_555
O17_3 Zr1_2 1_555 1_555
O23_2 Zr1_2 1_555 1_555
N4_2 C22_2 1_555 1_555
C19_2 C21_2 1_555 1_555
C23_2 C24_2 1_555 1_555
Zr1_3 O1_2 1_555 1_555
S5 C4_2 1_555 1_555
O1_2 C3_2 1_555 1_555
N1_2 C2_2 1_555 1_555
C1_2 C2_2 1_555 1_555
C3_2 C1_2 1_555 1_555
C4_2 N1_2 1_555 1_555
C5_2 C4_2 1_555 1_555
H2_2 C5_2 1_555 1_555
C6_2 C1_2 1_555 1_555
H3_2 C6_2 1_555 1_555
Zr6 O8_2 1_555 1_555
O18_3 Zr1_3 1_555 1_555
O22_2 Zr1_3 1_555 1_555
C5_2 C6_2 1_555 1_555
S7 C16_2 1_555 1_555
O9_2 C15_2 1_555 1_555
N3_2 C14_2 1_555 1_555
C13_2 C14_2 1_555 1_555
C15_2 C13_2 1_555 1_555
C16_2 N3_2 1_555 1_555
C17_2 C16_2 1_555 1_555
H8_2 C17_2 1_555 1_555
C18_2 C13_2 1_555 1_555
H9_2 C18_2 1_555 1_555
Zr3_2 O4_3 1_555 1_555
O12_2 Zr3_2 1_555 1_555
O13_3 Zr3_2 1_555 1_555
O14_3 Zr3_2 1_555 1_555
O19_3 Zr3_2 1_555 1_555
O9_2 Zr4 1_555 1_555
C17_2 C18_2 1_555 1_555
Zr3_2 O21_2 1_555 1_555
Zr2_2 O2_2 1_555 1_555
O3_3 Zr2_2 1_555 1_555
O5_3 Zr2_2 1_555 1_555
O7_2 C9_2 1_555 1_555
C7_2 C8_2 1_555 1_555
C8_2 N2_2 1_555 1_555
C9_2 C7_2 1_555 1_555
C10_2 S6 1_555 1_555
C11_2 C10_2 1_555 1_555
H5_2 C11_2 1_555 1_555
C12_2 C7_2 1_555 1_555
H6_2 C12_2 1_555 1_555
Zr4_2 O7_2 1_555 1_555
O20_3 Zr2_2 1_555 1_555
O21_3 Zr2_2 1_555 1_555
Zr2_2 O4_4 1_555 1_555
N2_2 C10_2 1_555 1_555
C11_2 C12_2 1_555 1_555
O16_2 Zr8 1_555 1_555
O16_3 Zr6 1_555 1_555
O15_2 Zr4 1_555 1_555
Zr4_2 O6_2 1_555 1_555
Zr8 O4_5 1_555 1_555
O13_4 Zr8 1_555 1_555
O14_4 Zr8 1_555 1_555
O19_4 Zr8 1_555 1_555
O3_4 Zr6 1_555 1_555
O5_4 Zr6 1_555 1_555
O20_4 Zr6 1_555 1_555
Zr6 O4_6 1_555 1_555
O17_4 Zr4 1_555 1_555
O18_4 Zr4_2 1_555 1_555
S2_2 Cu1_2 1_555 1_555
O17_3 C9_3 1_555 1_555
C7_3 C8_3 1_555 1_555
C8_3 N2_3 1_555 1_555
C9_3 C7_3 1_555 1_555
C10_3 S2_2 1_555 1_555
C11_3 C10_3 1_555 1_555
H5_3 C11_3 1_555 1_555
C12_3 C7_3 1_555 1_555
H6_3 C12_3 1_555 1_555
Cu8_2 S2_2 1_555 1_555
N2_3 C10_3 1_555 1_555
C11_3 C12_3 1_555 1_555
Cu8_2 S7_2 1_555 1_555
S3_2 C16_3 1_555 1_555
O18_3 C15_3 1_555 1_555
N3_3 C14_3 1_555 1_555
C13_3 C14_3 1_555 1_555
C15_3 C13_3 1_555 1_555
C16_3 N3_3 1_555 1_555
C17_3 C16_3 1_555 1_555
H8_3 C17_3 1_555 1_555
C18_3 C13_3 1_555 1_555
H9_3 C18_3 1_555 1_555
Cu4_2 S3_2 1_555 1_555
Cu5_2 S3_2 1_555 1_555
C17_3 C18_3 1_555 1_555
Cu5_2 S6_2 1_555 1_555
S1_2 C4_3 1_555 1_555
O17_4 C3_3 1_555 1_555
N1_3 C2_3 1_555 1_555
C1_3 C2_3 1_555 1_555
C3_3 C1_3 1_555 1_555
C4_3 N1_3 1_555 1_555
C5_3 C4_3 1_555 1_555
H2_3 C5_3 1_555 1_555
C6_3 C1_3 1_555 1_555
H3_3 C6_3 1_555 1_555
Cu2_2 S1_2 1_555 1_555
Cu7_2 S1_2 1_555 1_555
C5_3 C6_3 1_555 1_555
Cu7_2 S8_2 1_555 1_555
S4_2 Cu3_2 1_555 1_555
C19_3 C20_3 1_555 1_555
C20_3 N4_3 1_555 1_555
C21_3 O18_4 1_555 1_555
C22_3 S4_2 1_555 1_555
C23_3 C22_3 1_555 1_555
H11_3 C23_3 1_555 1_555
C24_3 C19_3 1_555 1_555
H12_3 C24_3 1_555 1_555
Cu6_2 S4_2 1_555 1_555
N4_3 C22_3 1_555 1_555
C19_3 C21_3 1_555 1_555
C23_3 C24_3 1_555 1_555
Cu6_2 S5_2 1_555 1_555
Cu5_2 N1_4 1_555 1_555
O17_2 C3_4 1_555 1_555
O19 C3_4 1_555 1_555
N1_4 C2_4 1_555 1_555
C1_4 C2_4 1_555 1_555
C2_4 H1_4 1_555 1_555
C3_4 C1_4 1_555 1_555
C4_4 N1_4 1_555 1_555
C5_4 C4_4 1_555 1_555
H2_4 C5_4 1_555 1_555
C6_4 C1_4 1_555 1_555
H3_4 C6_4 1_555 1_555
N4_4 Cu8_2 1_555 1_555
C19_4 C20_4 1_555 1_555
C20_4 N4_4 1_555 1_555
H10_4 C20_4 1_555 1_555
C21_4 O18_2 1_555 1_555
C23_4 C22_4 1_555 1_555
H11_4 C23_4 1_555 1_555
C24_4 C19_4 1_555 1_555
H12_4 C24_4 1_555 1_555
C5_4 C6_4 1_555 1_555
O20 C21_4 1_555 1_555
N4_4 C22_4 1_555 1_555
C19_4 C21_4 1_555 1_555
C23_4 C24_4 1_555 1_555
O17 C9_4 1_555 1_555
O19_2 C9_4 1_555 1_555
N2_4 Cu6_2 1_555 1_555
C7_4 C8_4 1_555 1_555
C8_4 N2_4 1_555 1_555
H4_4 C8_4 1_555 1_555
C9_4 C7_4 1_555 1_555
C11_4 C10_4 1_555 1_555
H5_4 C11_4 1_555 1_555
C12_4 C7_4 1_555 1_555
H6_4 C12_4 1_555 1_555
Cu7_2 N3_4 1_555 1_555
O18 C15_4 1_555 1_555
O20_2 C15_4 1_555 1_555
N3_4 C14_4 1_555 1_555
C13_4 C14_4 1_555 1_555
C14_4 H7_4 1_555 1_555
C15_4 C13_4 1_555 1_555
C16_4 N3_4 1_555 1_555
C17_4 C16_4 1_555 1_555
H8_4 C17_4 1_555 1_555
C18_4 C13_4 1_555 1_555
H9_4 C18_4 1_555 1_555
N2_4 C10_4 1_555 1_555
C11_4 C12_4 1_555 1_555
C17_4 C18_4 1_555 1_555

#END
