
###############################################################################
#
# This file contains modified crystal structure data generated from the
# MOF subset of the Cambridge Structural Database (CSD) v543 
# hosted by the Cambridge Crystallographic Data Centre (CCDC).
#
# This work is licensed under the Creative Commons
# Attribution-NonCommercial-ShareAlike 4.0 International License.
# To view a copy of this license, visit
# http://creativecommons.org/licenses/by-nc-sa/4.0/
# or send a letter to
# Creative Commons, PO Box 1866, Mountain View, CA 94042, USA.
#
# CIF created using the CSD Python API on 29 September 2022
# The structure has been converted into the P1 space group
# The structure has a 3D framework
# The original CSD entry XUTQOV01 is in the triclinic crystal system
# The framework has been calculated to contain at least 10.0% void space
# The void calculation uses a probe of radius 1.32A, grid spacing 0.4
# H atom positions have been added when not included in the experimental data
#
###############################################################################

data_XUTQOV01
_chemical_formula_moiety         '(C24 H36 Ca6 O24)n'
_symmetry_cell_setting           triclinic
_symmetry_space_group_name_H-M   'P 1'
_symmetry_Int_Tables_number      1
_space_group_name_Hall           'P 1'
loop_
_symmetry_equiv_pos_site_id
_symmetry_equiv_pos_as_xyz
1 x,y,z
_cell_length_a                   8.7168(3)
_cell_length_b                   12.6408(3)
_cell_length_c                   12.3084(3)
_cell_angle_alpha                117.4363(17)
_cell_angle_beta                 77.827(2)
_cell_angle_gamma                115.053(2)
_cell_volume                     1090.23
loop_
_atom_site_label
_atom_site_type_symbol
_atom_site_fract_x
_atom_site_fract_y
_atom_site_fract_z
_atom_site_U_iso_or_equiv
_atom_site_thermal_displace_type
Ca4 Ca 0.0915(10) 0.2081(8) 0.1566(7) 0.0181 Uiso
O13 O 0.128(4) 0.436(3) 0.198(4) 0.0148 Uiso
Ca8 Ca 0.1066(11) 0.6199(8) 0.9111(7) 0.0181 Uiso
O15 O 0.074(5) 0.410(4) 0.922(3) 0.0148 Uiso
Ca2 Ca 0.8934(11) 0.3801(8) 0.0889(7) 0.0181 Uiso
C1 C 0.252(3) 0.535(2) 0.250(2) 0.0148 Uiso
C2 C 0.268(6) 0.662(3) 0.255(3) 0.0148 Uiso
O1 O 0.360(2) 0.5231(17) 0.2961(16) 0.0148 Uiso
C3 C 0.716(4) 0.256(4) 0.308(3) 0.0148 Uiso
C4 C 0.587(3) 0.215(2) 0.400(2) 0.0148 Uiso
O3 O 0.836(5) 0.213(6) 0.271(4) 0.0148 Uiso
O4 O 0.711(5) 0.328(5) 0.267(5) 0.0148 Uiso
C5 C 0.481(4) 0.217(3) 0.004(2) 0.0148 Uiso
O5 O 0.398(2) 0.2621(15) 0.1025(13) 0.0148 Uiso
Ca3 Ca 0.5120(10) 0.4277(8) 0.3093(7) 0.0181 Uiso
C7 C 0.797(4) 0.595(3) 0.143(2) 0.0148 Uiso
C8 C 0.703(8) 0.669(4) 0.133(4) 0.0148 Uiso
O7 O 0.750(2) 0.5383(18) 0.2152(17) 0.0148 Uiso
O8 O 0.926(5) 0.590(4) 0.078(3) 0.0148 Uiso
C9 C 0.226(3) 0.320(3) 0.4466(15) 0.0148 Uiso
C10 C 0.052(5) 0.276(6) 0.506(4) 0.0148 Uiso
O9 O 0.234(2) 0.2725(17) 0.3287(12) 0.0148 Uiso
O10 O 0.350(5) 0.399(4) 0.514(3) 0.0148 Uiso
O11 O 0.051(6) 0.017(4) 0.116(4) 0.0148 Uiso
Ca9 Ca 0.4880(10) 0.5723(8) 0.6907(7) 0.0181 Uiso
O16 O 0.650(5) 0.601(4) 0.486(3) 0.0148 Uiso
H1 H 0.385181 0.699694 0.208826 . .
H2 H 0.160749 0.646254 0.209612 . .
H3 H 0.2695 0.730785 0.350135 . .
H4 H 0.651462 0.246624 0.482626 . .
H5 H 0.493433 0.258443 0.422914 . .
H6 H 0.523985 0.110654 0.360159 . .
H7 H 0.700881 0.747482 0.221734 . .
H8 H 0.767792 0.707867 0.0658455 . .
H9 H 0.573682 0.604116 0.104331 . .
H10 H 0.00356599 0.172153 0.475559 . .
H11 H 0.0632611 0.323154 0.605194 . .
H12 H 0.965222 0.301348 0.479562 . .
Ca5 Ca 0.9085(10) 0.7919(8) 0.8434(7) 0.0181 Uiso
O14 O 0.164(5) 0.787(6) 0.729(4) 0.0148 Uiso
H12_2 H 0.0347784 0.698652 0.520438 . .
C1_2 C 0.748(3) 0.465(2) 0.750(2) 0.0148 Uiso
C2_2 C 0.732(6) 0.338(3) 0.745(3) 0.0148 Uiso
O1_2 O 0.640(2) 0.4769(17) 0.7039(16) 0.0148 Uiso
O2 O 0.872(4) 0.564(3) 0.802(4) 0.0148 Uiso
C3_2 C 0.284(4) 0.744(4) 0.692(3) 0.0148 Uiso
C4_2 C 0.413(3) 0.785(2) 0.600(2) 0.0148 Uiso
O4_2 O 0.289(5) 0.672(5) 0.733(5) 0.0148 Uiso
C5_2 C 0.519(4) 0.783(3) 0.996(2) 0.0148 Uiso
O5_2 O 0.602(2) 0.7379(15) 0.8975(13) 0.0148 Uiso
C7_2 C 0.203(4) 0.405(3) 0.857(2) 0.0148 Uiso
C8_2 C 0.297(8) 0.331(4) 0.867(4) 0.0148 Uiso
O7_2 O 0.250(2) 0.4617(18) 0.7848(17) 0.0148 Uiso
C9_2 C 0.774(3) 0.680(3) 0.5534(15) 0.0148 Uiso
C10_2 C 0.948(5) 0.724(6) 0.494(4) 0.0148 Uiso
O9_2 O 0.766(2) 0.7275(17) 0.6713(12) 0.0148 Uiso
O11_2 O 0.949(6) 0.983(4) 0.884(4) 0.0148 Uiso
H1_2 H 0.614819 0.300306 0.791174 . .
H2_2 H 0.839251 0.353746 0.790388 . .
H3_2 H 0.7305 0.269215 0.649865 . .
H4_2 H 0.348538 0.753376 0.517374 . .
H5_2 H 0.506567 0.741557 0.577086 . .
H6_2 H 0.476015 0.889346 0.639841 . .
H7_2 H 0.299119 0.252518 0.778266 . .
H8_2 H 0.232208 0.292133 0.934155 . .
H9_2 H 0.426318 0.395884 0.895669 . .
H10_2 H 0.996434 0.827847 0.524441 . .
H11_2 H 0.936739 0.676846 0.394806 . .
C6 C 0.381(8) 0.089(3) 0.903(3) 0.0148 Uiso
O6 O 0.635(5) 0.270(5) 0.987(5) 0.0148 Uiso
O18 O 0.956(7) 0.178(4) 0.988(3) 0.0148 Uiso
H13 H 0.279936 0.0988612 0.873981 . .
H14 H 0.465251 0.0617722 0.825366 . .
H15 H 0.326503 0.0150901 0.93763 . .
C11 C 0.921(5) 0.078(3) 0.892(2) 0.0148 Uiso
C12 C 0.847(3) 0.077(2) 0.789(2) 0.0148 Uiso
H16 H 0.930221 0.0609329 0.708473 . .
H17 H 0.835873 0.169106 0.818948 . .
H18 H 0.7223 0.000250328 0.766357 . .
C11_2 C 0.079(5) 0.922(3) 0.108(2) 0.0148 Uiso
C12_2 C 0.153(3) 0.923(2) 0.211(2) 0.0148 Uiso
O12 O 0.044(7) 0.822(4) 0.012(3) 0.0148 Uiso
H16_2 H 0.0697789 0.939067 0.291527 . .
H17_2 H 0.164127 0.830894 0.181052 . .
H18_2 H 0.2777 0.99975 0.233643 . .
C6_2 C 0.619(8) 0.911(3) 0.097(3) 0.0148 Uiso
O6_2 O 0.365(5) 0.730(5) 0.013(5) 0.0148 Uiso
H13_2 H 0.720064 0.901139 0.126019 . .
H14_2 H 0.534749 0.938228 0.174634 . .
H15_2 H 0.673497 0.98491 0.0623705 . .
loop_
_geom_bond_atom_site_label_1
_geom_bond_atom_site_label_2
_geom_bond_site_symmetry_1
_geom_bond_site_symmetry_2
Ca4 O13 1_555 1_555
Ca8 O15 1_555 1_555
Ca2 O4 1_555 1_555
C1 C2 1_555 1_555
O1 C1 1_555 1_555
O13 C1 1_555 1_555
C3 C4 1_555 1_555
O3 C3 1_555 1_555
O4 C3 1_555 1_555
O5 Ca4 1_555 1_555
Ca3 O1 1_555 1_555
C7 C8 1_555 1_555
O7 Ca2 1_555 1_555
O8 Ca2 1_555 1_555
C9 C10 1_555 1_555
O9 Ca4 1_555 1_555
O10 Ca3 1_555 1_555
O11 Ca4 1_555 1_555
Ca9 O10 1_555 1_555
O16 Ca3 1_555 1_555
O4 Ca3 1_555 1_555
C5 O5 1_555 1_555
O5 Ca3 1_555 1_555
Ca3 O7 1_555 1_555
Ca3 O9 1_555 1_555
C7 O7 1_555 1_555
C7 O8 1_555 1_555
C9 O9 1_555 1_555
C9 O10 1_555 1_555
Ca9 O16 1_555 1_555
C2 H1 1_555 1_555
C2 H2 1_555 1_555
C2 H3 1_555 1_555
C4 H4 1_555 1_555
C4 H5 1_555 1_555
C4 H6 1_555 1_555
C8 H7 1_555 1_555
C8 H8 1_555 1_555
C8 H9 1_555 1_555
C10 H10 1_555 1_555
C10 H11 1_555 1_555
Ca5 O2 1_555 1_555
Ca8 O4_2 1_555 1_555
C1_2 C2_2 1_555 1_555
O1_2 C1_2 1_555 1_555
O2 C1_2 1_555 1_555
C3_2 C4_2 1_555 1_555
O14 C3_2 1_555 1_555
O4_2 C3_2 1_555 1_555
O5_2 Ca5 1_555 1_555
Ca9 O1_2 1_555 1_555
C7_2 C8_2 1_555 1_555
O7_2 Ca8 1_555 1_555
C9_2 C10_2 1_555 1_555
O9_2 Ca5 1_555 1_555
O11_2 Ca5 1_555 1_555
O4_2 Ca9 1_555 1_555
C5_2 O5_2 1_555 1_555
O5_2 Ca9 1_555 1_555
Ca9 O7_2 1_555 1_555
Ca9 O9_2 1_555 1_555
C7_2 O7_2 1_555 1_555
C7_2 O15 1_555 1_555
C9_2 O9_2 1_555 1_555
C9_2 O16 1_555 1_555
C2_2 H1_2 1_555 1_555
C2_2 H2_2 1_555 1_555
C2_2 H3_2 1_555 1_555
C4_2 H4_2 1_555 1_555
C4_2 H5_2 1_555 1_555
C4_2 H6_2 1_555 1_555
C8_2 H7_2 1_555 1_555
C8_2 H8_2 1_555 1_555
C8_2 H9_2 1_555 1_555
C10_2 H10_2 1_555 1_555
C10_2 H11_2 1_555 1_555
C6 H13 1_555 1_555
C6 H14 1_555 1_555
C6 H15 1_555 1_555
C11 C12 1_555 1_555
O18 C11 1_555 1_555
C12 H16 1_555 1_555
C12 H17 1_555 1_555
C12 H18 1_555 1_555
C11_2 C12_2 1_555 1_555
O12 C11_2 1_555 1_555
C12_2 H16_2 1_555 1_555
C12_2 H17_2 1_555 1_555
C12_2 H18_2 1_555 1_555
C6_2 H13_2 1_555 1_555
C6_2 H14_2 1_555 1_555
C6_2 H15_2 1_555 1_555

#END
