
###############################################################################
#
# This file contains modified crystal structure data generated from the
# MOF subset of the Cambridge Structural Database (CSD) v543 
# hosted by the Cambridge Crystallographic Data Centre (CCDC).
#
# This work is licensed under the Creative Commons
# Attribution-NonCommercial-ShareAlike 4.0 International License.
# To view a copy of this license, visit
# http://creativecommons.org/licenses/by-nc-sa/4.0/
# or send a letter to
# Creative Commons, PO Box 1866, Mountain View, CA 94042, USA.
#
# CIF created using the CSD Python API on 29 September 2022
# The structure has been converted into the P1 space group
# The structure has a 3D framework
# The original CSD entry XUTQOV is in the rhombohedral crystal system
# The framework has been calculated to contain at least 10.0% void space
# The void calculation uses a probe of radius 1.32A, grid spacing 0.4
# H atom positions have been added when not included in the experimental data
#
###############################################################################

data_XUTQOV
_chemical_formula_moiety         '(C72 H108 Ca8 O66)n'
_symmetry_cell_setting           triclinic
_symmetry_space_group_name_H-M   'P 1'
_symmetry_Int_Tables_number      1
_space_group_name_Hall           'P 1'
loop_
_symmetry_equiv_pos_site_id
_symmetry_equiv_pos_as_xyz
1 x,y,z
_cell_length_a                   21.1030(5)
_cell_length_b                   21.1030(5)
_cell_length_c                   8.7965(2)
_cell_angle_alpha                90
_cell_angle_beta                 90
_cell_angle_gamma                120
_cell_volume                     3392.57
loop_
_atom_site_label
_atom_site_type_symbol
_atom_site_fract_x
_atom_site_fract_y
_atom_site_fract_z
_atom_site_U_iso_or_equiv
_atom_site_thermal_displace_type
C1 C 0.6473(10) 0.5680(8) 0.326(2) 0.0380 Uiso
C2 C 0.6136(19) 0.4901(10) 0.278(4) 0.0380 Uiso
O1 O 0.6425(4) 0.6154(4) 0.2559(9) 0.0380 Uiso
O2 O 0.6805(14) 0.5775(17) 0.446(3) 0.0380 Uiso
Ca1 Ca 0.6888(3) 0.7407(2) 0.3348(5) 0.0380 Uiso
C3 C 0.846(3) 0.756(4) 0.481(8) 0.0380 Uiso
C4 C 0.899(5) 0.791(9) 0.353(13) 0.0380 Uiso
O3 O 0.7882(3) 0.7553(5) 0.4930(16) 0.0380 Uiso
O4 O 0.870(7) 0.730(8) 0.573(13) 0.0380 Uiso
O5 O 0.6396(6) 0.6908(4) 0.5892(9) 0.0380 Uiso
O6 O 0.7558(17) 0.7697(22) 0.113(3) 0.0380 Uiso
Ca2 Ca 0.9481(4) 0.6888(3) 0.6652(5) 0.0380 Uiso
Ca3 Ca 0.7186(4) 0.6445(3) 0.6681(5) 0.0380 Uiso
Ca4 Ca 0.5926(2) 0.6148(4) 0.0015(5) 0.0380 Uiso
O7 O 0.5780(5) 0.6996(6) 0.1597(16) 0.0380 Uiso
O8 O 0.730(8) 0.860(11) 0.427(13) 0.0380 Uiso
H1 H 0.917174 0.84921 0.349426 . .
H2 H 0.945995 0.783607 0.370357 . .
H3 H 0.872411 0.765661 0.246044 . .
H4 H 0.63519 0.487184 0.1674 . .
H5 H 0.626481 0.459968 0.361139 . .
H6 H 0.554484 0.466178 0.270358 . .
Ca1_2 Ca 0.0519(4) 0.3112(3) 0.3348(5) 0.0380 Uiso
O5_2 O 0.0513(7) 0.3604(6) 0.5892(9) 0.0380 Uiso
O6_2 O 0.0138(28) 0.2442(17) 0.113(3) 0.0380 Uiso
Ca4_2 Ca 0.0221(4) 0.4074(2) 0.0015(5) 0.0380 Uiso
O7_2 O 0.1215(8) 0.4220(5) 0.1597(16) 0.0380 Uiso
O8_2 O 0.130(14) 0.270(8) 0.427(13) 0.0380 Uiso
C1_2 C 0.9207(13) 0.3527(10) 0.326(2) 0.0380 Uiso
C2_2 C 0.8765(21) 0.3864(19) 0.278(4) 0.0380 Uiso
O1_2 O 0.9729(6) 0.3575(4) 0.2559(9) 0.0380 Uiso
O2_2 O 0.8970(22) 0.3195(14) 0.446(3) 0.0380 Uiso
C3_2 C 0.910(5) 0.154(3) 0.481(8) 0.0380 Uiso
C4_2 C 0.892(10) 0.101(5) 0.353(13) 0.0380 Uiso
O3_2 O 0.9671(6) 0.2118(3) 0.4930(16) 0.0380 Uiso
O4_2 O 0.860(11) 0.130(7) 0.573(13) 0.0380 Uiso
Ca2_2 Ca 0.7407(5) 0.0519(4) 0.6652(5) 0.0380 Uiso
Ca3_2 Ca 0.9260(5) 0.2814(4) 0.6681(5) 0.0380 Uiso
H1_2 H 0.932036 0.0828261 0.349426 . .
H2_2 H 0.837612 0.0540051 0.370357 . .
H3_2 H 0.89325 0.127589 0.246044 . .
H4_2 H 0.851994 0.36481 0.1674 . .
H5_2 H 0.833487 0.373519 0.361139 . .
H6_2 H 0.911695 0.445516 0.270358 . .
C1_3 C 0.4320(8) 0.0793(13) 0.326(2) 0.0380 Uiso
C2_3 C 0.5099(10) 0.1235(21) 0.278(4) 0.0380 Uiso
O1_3 O 0.3846(4) 0.0271(6) 0.2559(9) 0.0380 Uiso
O2_3 O 0.4225(17) 0.1030(22) 0.446(3) 0.0380 Uiso
C3_3 C 0.244(4) 0.090(5) 0.481(8) 0.0380 Uiso
C4_3 C 0.209(9) 0.108(10) 0.353(13) 0.0380 Uiso
O3_3 O 0.2447(5) 0.0329(6) 0.4930(16) 0.0380 Uiso
O4_3 O 0.270(8) 0.140(11) 0.573(13) 0.0380 Uiso
Ca2_3 Ca 0.3112(3) 0.2593(5) 0.6652(5) 0.0380 Uiso
Ca3_3 Ca 0.3555(3) 0.0740(5) 0.6681(5) 0.0380 Uiso
H1_3 H 0.15079 0.0679642 0.349426 . .
H2_3 H 0.216393 0.162388 0.370357 . .
H3_3 H 0.234339 0.10675 0.246044 . .
H4_3 H 0.512816 0.148006 0.1674 . .
H5_3 H 0.540032 0.166513 0.361139 . .
H6_3 H 0.533822 0.0883052 0.270358 . .
Ca1_3 Ca 0.2593(2) 0.9481(4) 0.3348(5) 0.0380 Uiso
O5_3 O 0.3092(4) 0.9487(7) 0.5892(9) 0.0380 Uiso
O6_3 O 0.2303(22) 0.9862(28) 0.113(3) 0.0380 Uiso
Ca4_3 Ca 0.3852(4) 0.9779(4) 0.0015(5) 0.0380 Uiso
O7_3 O 0.3004(6) 0.8785(8) 0.1597(16) 0.0380 Uiso
O8_3 O 0.140(11) 0.870(14) 0.427(13) 0.0380 Uiso
C3_4 C 0.513(3) 0.089(4) 0.814(8) 0.0380 Uiso
C4_4 C 0.566(5) 0.124(9) 0.686(13) 0.0380 Uiso
O3_4 O 0.4549(3) 0.0886(5) 0.8263(16) 0.0380 Uiso
O4_4 O 0.537(7) 0.063(8) 0.906(13) 0.0380 Uiso
O5_4 O 0.3062(6) 0.0242(4) 0.9226(9) 0.0380 Uiso
Ca2_4 Ca 0.6148(4) 0.0221(3) 0.9985(5) 0.0380 Uiso
O8_4 O 0.397(8) 0.193(11) 0.760(13) 0.0380 Uiso
H1_4 H 0.583841 0.182543 0.682759 . .
H2_4 H 0.612662 0.11694 0.70369 . .
H3_4 H 0.539078 0.0989942 0.579377 . .
C1_4 C 0.3140(10) 0.9013(8) 0.659(2) 0.0380 Uiso
C2_4 C 0.2803(19) 0.8234(10) 0.611(4) 0.0380 Uiso
O2_4 O 0.3472(14) 0.9108(17) 0.779(3) 0.0380 Uiso
H4_4 H 0.301856 0.820517 0.500733 . .
H5_4 H 0.293148 0.793302 0.694472 . .
H6_4 H 0.22115 0.799512 0.603692 . .
C1_5 C 0.5874(13) 0.6860(10) 0.659(2) 0.0380 Uiso
C2_5 C 0.5432(21) 0.7197(19) 0.611(4) 0.0380 Uiso
O2_5 O 0.5637(22) 0.6528(14) 0.779(3) 0.0380 Uiso
C3_5 C 0.577(5) 0.487(3) 0.814(8) 0.0380 Uiso
C4_5 C 0.559(10) 0.434(5) 0.686(13) 0.0380 Uiso
O3_5 O 0.6338(6) 0.5451(3) 0.8263(16) 0.0380 Uiso
O4_5 O 0.527(11) 0.463(7) 0.906(13) 0.0380 Uiso
O5_5 O 0.7179(7) 0.6938(6) 0.9226(9) 0.0380 Uiso
Ca2_5 Ca 0.4074(5) 0.3852(4) 0.9985(5) 0.0380 Uiso
O8_5 O 0.797(14) 0.603(8) 0.760(13) 0.0380 Uiso
H1_5 H 0.598702 0.416159 0.682759 . .
H2_5 H 0.504278 0.387338 0.70369 . .
H3_5 H 0.559917 0.460922 0.579377 . .
H4_5 H 0.518661 0.698144 0.500733 . .
H5_5 H 0.500153 0.706852 0.694472 . .
H6_5 H 0.578361 0.77885 0.603692 . .
C1_6 C 0.0987(8) 0.4126(13) 0.659(2) 0.0380 Uiso
C2_6 C 0.1766(10) 0.4568(21) 0.611(4) 0.0380 Uiso
O2_6 O 0.0892(17) 0.4363(22) 0.779(3) 0.0380 Uiso
H4_6 H 0.179483 0.481339 0.500733 . .
H5_6 H 0.206698 0.499847 0.694472 . .
H6_6 H 0.200488 0.421639 0.603692 . .
C3_6 C 0.911(4) 0.423(5) 0.814(8) 0.0380 Uiso
C4_6 C 0.876(9) 0.441(10) 0.686(13) 0.0380 Uiso
O3_6 O 0.9114(5) 0.3662(6) 0.8263(16) 0.0380 Uiso
O4_6 O 0.937(8) 0.473(11) 0.906(13) 0.0380 Uiso
O5_6 O 0.9758(4) 0.2821(7) 0.9226(9) 0.0380 Uiso
Ca2_6 Ca 0.9779(3) 0.5926(5) 0.9985(5) 0.0380 Uiso
O8_6 O 0.807(11) 0.203(14) 0.760(13) 0.0380 Uiso
H1_6 H 0.817457 0.401298 0.682759 . .
H2_6 H 0.88306 0.495722 0.70369 . .
H3_6 H 0.901006 0.440083 0.579377 . .
C3_7 C 0.179(3) 0.423(4) 0.148(8) 0.0380 Uiso
C4_7 C 0.232(5) 0.458(9) 0.020(13) 0.0380 Uiso
O4_7 O 0.203(7) 0.397(8) 0.240(13) 0.0380 Uiso
Ca2_7 Ca 0.2814(4) 0.3555(3) 0.3319(5) 0.0380 Uiso
O8_7 O 0.063(8) 0.527(11) 0.094(13) 0.0380 Uiso
H1_7 H 0.250507 0.515876 0.0160923 . .
H2_7 H 0.279328 0.450273 0.0370238 . .
H3_7 H 0.205744 0.432327 0.91271 . .
H5_7 H 0.959815 0.126635 0.0278052 . .
C1_7 C 0.9806(10) 0.2347(8) 0.993(2) 0.0380 Uiso
C2_7 C 0.9469(19) 0.1568(10) 0.945(4) 0.0380 Uiso
H4_7 H 0.968523 0.153851 0.834067 . .
H6_7 H 0.887817 0.132845 0.937025 . .
H5_8 H 0.16682 0.0401852 0.0278052 . .
C1_8 C 0.2540(13) 0.0194(10) 0.993(2) 0.0380 Uiso
C2_8 C 0.2098(21) 0.0531(19) 0.945(4) 0.0380 Uiso
H4_8 H 0.185328 0.031477 0.834067 . .
H6_8 H 0.245028 0.112183 0.937025 . .
C3_8 C 0.243(5) 0.821(3) 0.148(8) 0.0380 Uiso
C4_8 C 0.225(10) 0.768(5) 0.020(13) 0.0380 Uiso
O4_8 O 0.193(11) 0.797(7) 0.240(13) 0.0380 Uiso
Ca2_8 Ca 0.0740(5) 0.7186(4) 0.3319(5) 0.0380 Uiso
O8_8 O 0.463(14) 0.937(8) 0.094(13) 0.0380 Uiso
H1_8 H 0.265369 0.749493 0.0160923 . .
H2_8 H 0.170945 0.720672 0.0370238 . .
H3_8 H 0.226583 0.794256 0.91271 . .
C3_9 C 0.577(4) 0.757(5) 0.148(8) 0.0380 Uiso
C4_9 C 0.542(9) 0.775(10) 0.020(13) 0.0380 Uiso
O4_9 O 0.603(8) 0.807(11) 0.240(13) 0.0380 Uiso
Ca2_9 Ca 0.6445(3) 0.9260(5) 0.3319(5) 0.0380 Uiso
O8_9 O 0.473(11) 0.537(14) 0.094(13) 0.0380 Uiso
H1_9 H 0.484124 0.734631 0.0160923 . .
H2_9 H 0.549727 0.829055 0.0370238 . .
H5_9 H 0.873365 0.83318 0.0278052 . .
C1_9 C 0.7653(8) 0.7460(13) 0.993(2) 0.0380 Uiso
C2_9 C 0.8432(10) 0.7902(21) 0.945(4) 0.0380 Uiso
H3_9 H 0.567673 0.773417 0.91271 . .
H4_9 H 0.846149 0.814672 0.834067 . .
H6_9 H 0.867155 0.754972 0.937025 . .
C1_10 C 0.3527(10) 0.4320(8) 0.674(2) 0.0380 Uiso
C2_10 C 0.3864(19) 0.5099(10) 0.722(4) 0.0380 Uiso
O1_4 O 0.3575(4) 0.3846(4) 0.7441(9) 0.0380 Uiso
O2_7 O 0.3195(14) 0.4225(17) 0.554(3) 0.0380 Uiso
C3_10 C 0.154(3) 0.244(4) 0.519(8) 0.0380 Uiso
C4_10 C 0.101(5) 0.209(9) 0.647(13) 0.0380 Uiso
O3_7 O 0.2118(3) 0.2447(5) 0.5070(16) 0.0380 Uiso
O5_7 O 0.3604(6) 0.3092(4) 0.4108(9) 0.0380 Uiso
O6_4 O 0.2442(17) 0.2303(22) 0.887(3) 0.0380 Uiso
O7_4 O 0.4220(5) 0.3004(6) 0.8403(16) 0.0380 Uiso
H1_10 H 0.0828261 0.15079 0.650574 . .
H2_10 H 0.0540051 0.216393 0.629643 . .
H3_10 H 0.127589 0.234339 0.753956 . .
H4_10 H 0.36481 0.512816 0.8326 . .
H5_10 H 0.373519 0.540032 0.638861 . .
H6_10 H 0.445516 0.533822 0.729642 . .
C1_11 C 0.0793(13) 0.6473(10) 0.674(2) 0.0380 Uiso
C2_11 C 0.1235(21) 0.6136(19) 0.722(4) 0.0380 Uiso
O1_5 O 0.0271(6) 0.6425(4) 0.7441(9) 0.0380 Uiso
O2_8 O 0.1030(22) 0.6805(14) 0.554(3) 0.0380 Uiso
C3_11 C 0.090(5) 0.846(3) 0.519(8) 0.0380 Uiso
C4_11 C 0.108(10) 0.899(5) 0.647(13) 0.0380 Uiso
O3_8 O 0.0329(6) 0.7882(3) 0.5070(16) 0.0380 Uiso
H1_11 H 0.0679642 0.917174 0.650574 . .
H2_11 H 0.162388 0.945995 0.629643 . .
H3_11 H 0.10675 0.872411 0.753956 . .
H4_11 H 0.148006 0.63519 0.8326 . .
H5_11 H 0.166513 0.626481 0.638861 . .
H6_11 H 0.0883052 0.554484 0.729642 . .
O5_8 O 0.9487(7) 0.6396(6) 0.4108(9) 0.0380 Uiso
O6_5 O 0.9862(28) 0.7558(17) 0.887(3) 0.0380 Uiso
O7_5 O 0.8785(8) 0.5780(5) 0.8403(16) 0.0380 Uiso
O5_9 O 0.6908(4) 0.0513(7) 0.4108(9) 0.0380 Uiso
O6_6 O 0.7697(22) 0.0138(28) 0.887(3) 0.0380 Uiso
O7_6 O 0.6996(6) 0.1215(8) 0.8403(16) 0.0380 Uiso
C1_12 C 0.5680(8) 0.9207(13) 0.674(2) 0.0380 Uiso
C2_12 C 0.4901(10) 0.8765(21) 0.722(4) 0.0380 Uiso
O1_6 O 0.6154(4) 0.9729(6) 0.7441(9) 0.0380 Uiso
O2_9 O 0.5775(17) 0.8970(22) 0.554(3) 0.0380 Uiso
C3_12 C 0.756(4) 0.910(5) 0.519(8) 0.0380 Uiso
C4_12 C 0.791(9) 0.892(10) 0.647(13) 0.0380 Uiso
O3_9 O 0.7553(5) 0.9671(6) 0.5070(16) 0.0380 Uiso
H1_12 H 0.84921 0.932036 0.650574 . .
H2_12 H 0.783607 0.837612 0.629643 . .
H3_12 H 0.765661 0.89325 0.753956 . .
H4_12 H 0.487184 0.851994 0.8326 . .
H5_12 H 0.459968 0.833487 0.638861 . .
H6_12 H 0.466178 0.911695 0.729642 . .
C1_13 C 0.6860(10) 0.0987(8) 0.341(2) 0.0380 Uiso
C2_13 C 0.7197(19) 0.1766(10) 0.389(4) 0.0380 Uiso
O2_10 O 0.6528(14) 0.0892(17) 0.221(3) 0.0380 Uiso
H4_13 H 0.698144 0.179483 0.499267 . .
H5_13 H 0.706852 0.206698 0.305528 . .
H6_13 H 0.77885 0.200488 0.396308 . .
C3_13 C 0.487(3) 0.911(4) 0.186(8) 0.0380 Uiso
C4_13 C 0.434(5) 0.876(9) 0.314(13) 0.0380 Uiso
O3_10 O 0.5451(3) 0.9114(5) 0.1737(16) 0.0380 Uiso
O5_10 O 0.6938(6) 0.9758(4) 0.0774(9) 0.0380 Uiso
H1_13 H 0.416159 0.817457 0.317241 . .
H2_13 H 0.387338 0.88306 0.29631 . .
H3_13 H 0.460922 0.901006 0.420623 . .
C1_14 C 0.4126(13) 0.3140(10) 0.341(2) 0.0380 Uiso
C2_14 C 0.4568(21) 0.2803(19) 0.389(4) 0.0380 Uiso
O2_11 O 0.4363(22) 0.3472(14) 0.221(3) 0.0380 Uiso
C3_14 C 0.423(5) 0.513(3) 0.186(8) 0.0380 Uiso
C4_14 C 0.441(10) 0.566(5) 0.314(13) 0.0380 Uiso
O3_11 O 0.3662(6) 0.4549(3) 0.1737(16) 0.0380 Uiso
O5_11 O 0.2821(7) 0.3062(6) 0.0774(9) 0.0380 Uiso
H1_14 H 0.401298 0.583841 0.317241 . .
H2_14 H 0.495722 0.612662 0.29631 . .
H3_14 H 0.440083 0.539078 0.420623 . .
H4_14 H 0.481339 0.301856 0.499267 . .
H5_14 H 0.499847 0.293148 0.305528 . .
H6_14 H 0.421639 0.22115 0.396308 . .
C3_15 C 0.089(4) 0.577(5) 0.186(8) 0.0380 Uiso
C4_15 C 0.124(9) 0.559(10) 0.314(13) 0.0380 Uiso
O3_12 O 0.0886(5) 0.6338(6) 0.1737(16) 0.0380 Uiso
O5_12 O 0.0242(4) 0.7179(7) 0.0774(9) 0.0380 Uiso
H1_15 H 0.182543 0.598702 0.317241 . .
H2_15 H 0.11694 0.504278 0.29631 . .
H3_15 H 0.0989942 0.559917 0.420623 . .
C1_15 C 0.9013(8) 0.5874(13) 0.341(2) 0.0380 Uiso
C2_15 C 0.8234(10) 0.5432(21) 0.389(4) 0.0380 Uiso
O2_12 O 0.9108(17) 0.5637(22) 0.221(3) 0.0380 Uiso
H4_15 H 0.820517 0.518661 0.499267 . .
H5_15 H 0.793302 0.500153 0.305528 . .
H6_15 H 0.799512 0.578361 0.396308 . .
C1_16 C 0.0194(10) 0.7653(8) 0.007(2) 0.0380 Uiso
C2_16 C 0.0531(19) 0.8432(10) 0.055(4) 0.0380 Uiso
H4_16 H 0.031477 0.846149 0.165933 . .
H6_16 H 0.112183 0.867155 0.0629749 . .
H5_16 H 0.0401852 0.873365 0.972195 . .
H3_16 H 0.794256 0.567673 0.0872896 . .
C3_16 C 0.821(3) 0.577(4) 0.852(8) 0.0380 Uiso
C4_16 C 0.768(5) 0.542(9) 0.980(13) 0.0380 Uiso
H1_16 H 0.749493 0.484124 0.983908 . .
H2_16 H 0.720672 0.549727 0.962976 . .
H3_17 H 0.773417 0.205744 0.0872896 . .
C3_17 C 0.757(5) 0.179(3) 0.852(8) 0.0380 Uiso
C4_17 C 0.775(10) 0.232(5) 0.980(13) 0.0380 Uiso
H1_17 H 0.734631 0.250507 0.983908 . .
H2_17 H 0.829055 0.279328 0.962976 . .
C1_17 C 0.7460(13) 0.9806(10) 0.007(2) 0.0380 Uiso
C2_17 C 0.7902(21) 0.9469(19) 0.055(4) 0.0380 Uiso
H4_17 H 0.814672 0.968523 0.165933 . .
H6_17 H 0.754972 0.887817 0.0629749 . .
H5_17 H 0.83318 0.959815 0.972195 . .
C1_18 C 0.2347(8) 0.2540(13) 0.007(2) 0.0380 Uiso
C2_18 C 0.1568(10) 0.2098(21) 0.055(4) 0.0380 Uiso
H3_18 H 0.432327 0.226583 0.0872896 . .
H4_18 H 0.153851 0.185328 0.165933 . .
H6_18 H 0.132845 0.245028 0.0629749 . .
C3_18 C 0.423(4) 0.243(5) 0.852(8) 0.0380 Uiso
C4_18 C 0.458(9) 0.225(10) 0.980(13) 0.0380 Uiso
H1_18 H 0.515876 0.265369 0.983908 . .
H2_18 H 0.450273 0.170945 0.962976 . .
H5_18 H 0.126635 0.16682 0.972195 . .
loop_
_geom_bond_atom_site_label_1
_geom_bond_atom_site_label_2
_geom_bond_site_symmetry_1
_geom_bond_site_symmetry_2
C1 C2 1_555 1_555
O1 C1 1_555 1_555
O2 C1 1_555 1_555
Ca1 O1 1_555 1_555
C3 C4 1_555 1_555
O3 Ca1 1_555 1_555
O4 C3 1_555 1_555
O5 Ca1 1_555 1_555
O6 Ca1 1_555 1_555
Ca2 O4 1_555 1_555
Ca3 O2 1_555 1_555
Ca4 O1 1_555 1_555
O7 Ca1 1_555 1_555
O8 Ca1 1_555 1_555
C3 O3 1_555 1_555
O3 Ca3 1_555 1_555
O5 Ca3 1_555 1_555
Ca4 O7 1_555 1_555
C4 H1 1_555 1_555
C4 H2 1_555 1_555
C4 H3 1_555 1_555
C2 H4 1_555 1_555
C2 H5 1_555 1_555
C2 H6 1_555 1_555
O5_2 Ca1_2 1_555 1_555
O6_2 Ca1_2 1_555 1_555
O7_2 Ca1_2 1_555 1_555
O8_2 Ca1_2 1_555 1_555
Ca4_2 O7_2 1_555 1_555
C1_2 C2_2 1_555 1_555
O1_2 C1_2 1_555 1_555
O2_2 C1_2 1_555 1_555
C3_2 C4_2 1_555 1_555
O4_2 C3_2 1_555 1_555
Ca2_2 O4_2 1_555 1_555
Ca3_2 O2_2 1_555 1_555
C3_2 O3_2 1_555 1_555
O3_2 Ca3_2 1_555 1_555
C4_2 H1_2 1_555 1_555
C4_2 H2_2 1_555 1_555
C4_2 H3_2 1_555 1_555
C2_2 H4_2 1_555 1_555
C2_2 H5_2 1_555 1_555
C2_2 H6_2 1_555 1_555
C1_3 C2_3 1_555 1_555
O1_3 C1_3 1_555 1_555
O2_3 C1_3 1_555 1_555
C3_3 C4_3 1_555 1_555
O4_3 C3_3 1_555 1_555
Ca2_3 O4_3 1_555 1_555
Ca3_3 O2_3 1_555 1_555
C3_3 O3_3 1_555 1_555
O3_3 Ca3_3 1_555 1_555
C4_3 H1_3 1_555 1_555
C4_3 H2_3 1_555 1_555
C4_3 H3_3 1_555 1_555
C2_3 H4_3 1_555 1_555
C2_3 H5_3 1_555 1_555
C2_3 H6_3 1_555 1_555
O5_3 Ca1_3 1_555 1_555
O6_3 Ca1_3 1_555 1_555
O7_3 Ca1_3 1_555 1_555
O8_3 Ca1_3 1_555 1_555
Ca4_3 O7_3 1_555 1_555
C3_4 C4_4 1_555 1_555
O3_4 Ca3_3 1_555 1_555
O4_4 C3_4 1_555 1_555
O5_4 Ca3_3 1_555 1_555
Ca2_4 O4_4 1_555 1_555
O8_4 Ca3_3 1_555 1_555
C3_4 O3_4 1_555 1_555
C4_4 H1_4 1_555 1_555
C4_4 H2_4 1_555 1_555
C4_4 H3_4 1_555 1_555
C1_4 C2_4 1_555 1_555
O5_3 C1_4 1_555 1_555
O2_4 C1_4 1_555 1_555
C2_4 H4_4 1_555 1_555
C2_4 H5_4 1_555 1_555
C2_4 H6_4 1_555 1_555
C1_5 C2_5 1_555 1_555
O5 C1_5 1_555 1_555
O2_5 C1_5 1_555 1_555
C3_5 C4_5 1_555 1_555
O3_5 Ca3 1_555 1_555
O4_5 C3_5 1_555 1_555
O5_5 Ca3 1_555 1_555
Ca2_5 O4_5 1_555 1_555
O8_5 Ca3 1_555 1_555
C3_5 O3_5 1_555 1_555
C4_5 H1_5 1_555 1_555
C4_5 H2_5 1_555 1_555
C4_5 H3_5 1_555 1_555
C2_5 H4_5 1_555 1_555
C2_5 H5_5 1_555 1_555
C2_5 H6_5 1_555 1_555
C1_6 C2_6 1_555 1_555
O5_2 C1_6 1_555 1_555
O2_6 C1_6 1_555 1_555
C2_6 H4_6 1_555 1_555
C2_6 H5_6 1_555 1_555
C2_6 H6_6 1_555 1_555
C3_6 C4_6 1_555 1_555
O3_6 Ca3_2 1_555 1_555
O4_6 C3_6 1_555 1_555
O5_6 Ca3_2 1_555 1_555
Ca2_6 O4_6 1_555 1_555
O8_6 Ca3_2 1_555 1_555
C3_6 O3_6 1_555 1_555
C4_6 H1_6 1_555 1_555
C4_6 H2_6 1_555 1_555
C4_6 H3_6 1_555 1_555
C3_7 C4_7 1_555 1_555
O4_7 C3_7 1_555 1_555
Ca2_7 O4_7 1_555 1_555
O8_7 Ca4_2 1_555 1_555
C3_7 O7_2 1_555 1_555
C4_7 H1_7 1_555 1_555
C4_7 H2_7 1_555 1_555
C1_7 C2_7 1_555 1_555
O5_6 C1_7 1_555 1_555
C2_7 H4_7 1_555 1_555
C2_7 H6_7 1_555 1_555
C1_8 C2_8 1_555 1_555
O5_4 C1_8 1_555 1_555
C2_8 H4_8 1_555 1_555
C2_8 H6_8 1_555 1_555
C3_8 C4_8 1_555 1_555
O4_8 C3_8 1_555 1_555
Ca2_8 O4_8 1_555 1_555
O8_8 Ca4_3 1_555 1_555
C3_8 O7_3 1_555 1_555
C4_8 H1_8 1_555 1_555
C4_8 H2_8 1_555 1_555
C3_9 C4_9 1_555 1_555
O4_9 C3_9 1_555 1_555
Ca2_9 O4_9 1_555 1_555
O8_9 Ca4 1_555 1_555
C3_9 O7 1_555 1_555
C4_9 H1_9 1_555 1_555
C4_9 H2_9 1_555 1_555
C1_9 C2_9 1_555 1_555
O5_5 C1_9 1_555 1_555
C2_9 H4_9 1_555 1_555
C2_9 H6_9 1_555 1_555
C1_10 C2_10 1_555 1_555
O1_4 C1_10 1_555 1_555
O2_7 C1_10 1_555 1_555
Ca2_3 O1_4 1_555 1_555
C3_10 C4_10 1_555 1_555
O3_7 Ca2_3 1_555 1_555
O8_2 C3_10 1_555 1_555
O5_7 Ca2_3 1_555 1_555
O6_4 Ca2_3 1_555 1_555
Ca2_7 O2_7 1_555 1_555
Ca2_5 O1_4 1_555 1_555
O7_4 Ca2_3 1_555 1_555
C3_10 O3_7 1_555 1_555
O3_7 Ca2_7 1_555 1_555
O5_7 Ca2_7 1_555 1_555
Ca2_5 O7_4 1_555 1_555
C4_10 H1_10 1_555 1_555
C4_10 H2_10 1_555 1_555
C4_10 H3_10 1_555 1_555
C2_10 H4_10 1_555 1_555
C2_10 H5_10 1_555 1_555
C2_10 H6_10 1_555 1_555
C1_11 C2_11 1_555 1_555
O1_5 C1_11 1_555 1_555
O2_8 C1_11 1_555 1_555
C3_11 C4_11 1_555 1_555
O8_3 C3_11 1_555 1_555
Ca2_8 O2_8 1_555 1_555
C3_11 O3_8 1_555 1_555
O3_8 Ca2_8 1_555 1_555
C4_11 H1_11 1_555 1_555
C4_11 H2_11 1_555 1_555
C4_11 H3_11 1_555 1_555
C2_11 H4_11 1_555 1_555
C2_11 H5_11 1_555 1_555
C2_11 H6_11 1_555 1_555
O5_8 Ca2 1_555 1_555
O6_5 Ca2 1_555 1_555
O7_5 Ca2 1_555 1_555
Ca2_6 O7_5 1_555 1_555
O5_9 Ca2_2 1_555 1_555
O6_6 Ca2_2 1_555 1_555
O7_6 Ca2_2 1_555 1_555
Ca2_4 O7_6 1_555 1_555
C1_12 C2_12 1_555 1_555
O1_6 C1_12 1_555 1_555
O2_9 C1_12 1_555 1_555
C3_12 C4_12 1_555 1_555
O8 C3_12 1_555 1_555
Ca2_9 O2_9 1_555 1_555
C3_12 O3_9 1_555 1_555
O3_9 Ca2_9 1_555 1_555
C4_12 H1_12 1_555 1_555
C4_12 H2_12 1_555 1_555
C4_12 H3_12 1_555 1_555
C2_12 H4_12 1_555 1_555
C2_12 H5_12 1_555 1_555
C2_12 H6_12 1_555 1_555
C1_13 C2_13 1_555 1_555
O5_9 C1_13 1_555 1_555
O2_10 C1_13 1_555 1_555
C2_13 H4_13 1_555 1_555
C2_13 H5_13 1_555 1_555
C2_13 H6_13 1_555 1_555
C3_13 C4_13 1_555 1_555
O3_10 Ca2_9 1_555 1_555
O8_8 C3_13 1_555 1_555
O5_10 Ca2_9 1_555 1_555
C3_13 O3_10 1_555 1_555
C4_13 H1_13 1_555 1_555
C4_13 H2_13 1_555 1_555
C4_13 H3_13 1_555 1_555
C1_14 C2_14 1_555 1_555
O5_7 C1_14 1_555 1_555
O2_11 C1_14 1_555 1_555
C3_14 C4_14 1_555 1_555
O3_11 Ca2_7 1_555 1_555
O8_9 C3_14 1_555 1_555
O5_11 Ca2_7 1_555 1_555
C3_14 O3_11 1_555 1_555
C4_14 H1_14 1_555 1_555
C4_14 H2_14 1_555 1_555
C4_14 H3_14 1_555 1_555
C2_14 H4_14 1_555 1_555
C2_14 H5_14 1_555 1_555
C2_14 H6_14 1_555 1_555
C3_15 C4_15 1_555 1_555
O3_12 Ca2_8 1_555 1_555
O8_7 C3_15 1_555 1_555
O5_12 Ca2_8 1_555 1_555
C3_15 O3_12 1_555 1_555
C4_15 H1_15 1_555 1_555
C4_15 H2_15 1_555 1_555
C4_15 H3_15 1_555 1_555
C1_15 C2_15 1_555 1_555
O5_8 C1_15 1_555 1_555
O2_12 C1_15 1_555 1_555
C2_15 H4_15 1_555 1_555
C2_15 H5_15 1_555 1_555
C2_15 H6_15 1_555 1_555
C1_16 C2_16 1_555 1_555
O5_12 C1_16 1_555 1_555
C2_16 H4_16 1_555 1_555
C2_16 H6_16 1_555 1_555
C3_16 C4_16 1_555 1_555
O8_5 C3_16 1_555 1_555
C3_16 O7_5 1_555 1_555
C4_16 H1_16 1_555 1_555
C4_16 H2_16 1_555 1_555
C3_17 C4_17 1_555 1_555
O8_6 C3_17 1_555 1_555
C3_17 O7_6 1_555 1_555
C4_17 H1_17 1_555 1_555
C4_17 H2_17 1_555 1_555
C1_17 C2_17 1_555 1_555
O5_10 C1_17 1_555 1_555
C2_17 H4_17 1_555 1_555
C2_17 H6_17 1_555 1_555
C1_18 C2_18 1_555 1_555
O5_11 C1_18 1_555 1_555
C2_18 H4_18 1_555 1_555
C2_18 H6_18 1_555 1_555
C3_18 C4_18 1_555 1_555
O8_4 C3_18 1_555 1_555
C3_18 O7_4 1_555 1_555
C4_18 H1_18 1_555 1_555
C4_18 H2_18 1_555 1_555

#END
