
###############################################################################
#
# This file contains modified crystal structure data generated from the
# MOF subset of the Cambridge Structural Database (CSD) v543 
# hosted by the Cambridge Crystallographic Data Centre (CCDC).
#
# This work is licensed under the Creative Commons
# Attribution-NonCommercial-ShareAlike 4.0 International License.
# To view a copy of this license, visit
# http://creativecommons.org/licenses/by-nc-sa/4.0/
# or send a letter to
# Creative Commons, PO Box 1866, Mountain View, CA 94042, USA.
#
# CIF created using the CSD Python API on 29 September 2022
# The structure has been converted into the P1 space group
# The structure has a 3D framework
# The original CSD entry XUXPEO is in the monoclinic crystal system
# The framework has been calculated to contain at least 10.0% void space
# The void calculation uses a probe of radius 1.32A, grid spacing 0.4
# H atom positions have been added when not included in the experimental data
#
###############################################################################

data_XUXPEO
_chemical_formula_moiety         '(C24 H16 Al11 O16)n'
_symmetry_cell_setting           triclinic
_symmetry_space_group_name_H-M   'P 1'
_symmetry_Int_Tables_number      1
_space_group_name_Hall           'P 1'
loop_
_symmetry_equiv_pos_site_id
_symmetry_equiv_pos_as_xyz
1 x,y,z
_cell_length_a                   14.71(3)
_cell_length_b                   16.513(18)
_cell_length_c                   6.535(18)
_cell_angle_alpha                90
_cell_angle_beta                 68.1(2)
_cell_angle_gamma                90
_cell_volume                     1472.84
loop_
_atom_site_label
_atom_site_type_symbol
_atom_site_fract_x
_atom_site_fract_y
_atom_site_fract_z
_atom_site_U_iso_or_equiv
_atom_site_thermal_displace_type
Al7 Al 0.500 -0.0 0.000 0.0253 Uiso
Al4 Al 0.500 -0.0 0.5 0.0253 Uiso
Al7_2 Al 0.500 0.0 1.000 0.0253 Uiso
Al2 Al 0.000 0.5 0.000 0.0253 Uiso
Al1 Al 0.000 0.5 0.5 0.0253 Uiso
Al2_2 Al 0.000 0.5 1.000 0.0253 Uiso
O1 O 0.062(10) 0.5 0.70(5) 0.0253 Uiso
O8 O 0.09845 0.58157 0.33648 0.0253 Uiso
C7 C 0.13045 0.60065 0.13705 0.0253 Uiso
C8 C 0.2162 0.65121 0.06949 0.0253 Uiso
O9 O 0.40515 0.92342 0.00103 0.0253 Uiso
C12 C 0.28058 0.78117 0.03508 0.0253 Uiso
Al7_3 Al 0.500 1.0 0.000 0.0253 Uiso
O12 O 0.09485 0.57658 0.99897 0.0253 Uiso
O14 O 0.09485 0.42342 0.99897 0.0253 Uiso
O16 O 0.09845 0.41843 0.33648 0.0253 Uiso
H3 H 0.279442 0.632595 0.106454 . .
H6 H 0.315419 0.770246 0.153184 . .
C9 C 0.21942 0.71883 0.96492 0.0253 Uiso
O10 O 0.40155 0.91843 0.66352 0.0253 Uiso
C10 C 0.36955 0.89935 0.86295 0.0253 Uiso
C11 C 0.2838 0.84879 0.93051 0.0253 Uiso
Al4_2 Al 0.500 1.0 0.5 0.0253 Uiso
Al7_4 Al 0.500 1.0 1.000 0.0253 Uiso
H5 H 0.184581 0.729754 0.846816 . .
H7 H 0.220558 0.867405 0.893546 . .
Al2_3 Al 1.000 0.5 0.000 0.0253 Uiso
O2 O 0.90515 0.57658 0.00103 0.0253 Uiso
C3 C 0.78058 0.71883 0.03508 0.0253 Uiso
O5 O 0.59845 0.91843 0.33648 0.0253 Uiso
C4 C 0.63045 0.89935 0.13705 0.0253 Uiso
C5 C 0.7162 0.84879 0.06949 0.0253 Uiso
O11 O 0.938(10) 0.5 0.30(5) 0.0253 Uiso
O13 O 0.90515 0.42342 0.00103 0.0253 Uiso
H1 H 0.779442 0.867405 0.106454 . .
H4 H 0.815419 0.729754 0.153184 . .
Al1_2 Al 1.000 0.5 0.5 0.0253 Uiso
Al2_4 Al 1.000 0.5 1.000 0.0253 Uiso
O3 O 0.90155 0.58157 0.66352 0.0253 Uiso
C1 C 0.86955 0.60065 0.86295 0.0253 Uiso
C2 C 0.7838 0.65121 0.93051 0.0253 Uiso
O4 O 0.59485 0.92342 0.99897 0.0253 Uiso
C6 C 0.71942 0.78117 0.96492 0.0253 Uiso
O15 O 0.90155 0.41843 0.66352 0.0253 Uiso
H2 H 0.684581 0.770246 0.846816 . .
H8 H 0.720558 0.632595 0.893546 . .
O2_2 O 0.40515 0.07658 0.00103 0.0253 Uiso
C3_2 C 0.28058 0.21883 0.03508 0.0253 Uiso
C4_2 C 0.13045 0.39935 0.13705 0.0253 Uiso
C5_2 C 0.2162 0.34879 0.06949 0.0253 Uiso
O11_2 O 0.438(10) 0.0 0.30(5) 0.0253 Uiso
H1_2 H 0.279442 0.367405 0.106454 . .
H4_2 H 0.315419 0.229754 0.153184 . .
O1_2 O 0.562(10) 0.0 0.70(5) 0.0253 Uiso
O3_2 O 0.40155 0.08157 0.66352 0.0253 Uiso
C1_2 C 0.36955 0.10065 0.86295 0.0253 Uiso
C2_2 C 0.2838 0.15121 0.93051 0.0253 Uiso
C6_2 C 0.21942 0.28117 0.96492 0.0253 Uiso
O8_2 O 0.59845 0.08157 0.33648 0.0253 Uiso
C7_2 C 0.63045 0.10065 0.13705 0.0253 Uiso
C8_2 C 0.7162 0.15121 0.06949 0.0253 Uiso
C12_2 C 0.78058 0.28117 0.03508 0.0253 Uiso
O12_2 O 0.59485 0.07658 0.99897 0.0253 Uiso
H2_2 H 0.184581 0.270246 0.846816 . .
H3_2 H 0.779442 0.132595 0.106454 . .
H6_2 H 0.815419 0.270246 0.153184 . .
H8_2 H 0.220558 0.132595 0.893546 . .
C9_2 C 0.71942 0.21883 0.96492 0.0253 Uiso
C10_2 C 0.86955 0.39935 0.86295 0.0253 Uiso
C11_2 C 0.7838 0.34879 0.93051 0.0253 Uiso
H5_2 H 0.684581 0.229754 0.846816 . .
H7_2 H 0.720558 0.367405 0.893546 . .
O11_3 O 0.438(10) 1.0 0.30(5) 0.0253 Uiso
O1_3 O 0.562(10) 1.0 0.70(5) 0.0253 Uiso
loop_
_geom_bond_atom_site_label_1
_geom_bond_atom_site_label_2
_geom_bond_site_symmetry_1
_geom_bond_site_symmetry_2
Al1 O1 1_555 1_555
Al2_2 O1 1_555 1_555
O8 Al1 1_555 1_555
C7 O8 1_555 1_555
C8 C7 1_555 1_555
Al7_3 O9 1_555 1_555
O12 Al2_2 1_555 1_555
O14 Al2_2 1_555 1_555
O16 Al1 1_555 1_555
C8 H3 1_555 1_555
C12 H6 1_555 1_555
O10 C10 1_555 1_555
C10 C11 1_555 1_555
Al4_2 O10 1_555 1_555
C9 H5 1_555 1_555
C11 H7 1_555 1_555
O2 Al2_3 1_555 1_555
O5 C4 1_555 1_555
C4 C5 1_555 1_555
Al4_2 O5 1_555 1_555
O11 Al2_3 1_555 1_555
O13 Al2_3 1_555 1_555
C5 H1 1_555 1_555
C3 H4 1_555 1_555
O3 Al1_2 1_555 1_555
C2 C1 1_555 1_555
O11 Al1_2 1_555 1_555
Al7_4 O4 1_555 1_555
O15 Al1_2 1_555 1_555
O3 C1 1_555 1_555
C6 H2 1_555 1_555
C2 H8 1_555 1_555
O2_2 Al7 1_555 1_555
O16 C4_2 1_555 1_555
C4_2 C5_2 1_555 1_555
O11_2 Al7 1_555 1_555
C5_2 H1_2 1_555 1_555
C3_2 H4_2 1_555 1_555
Al4 O1_2 1_555 1_555
Al7_2 O1_2 1_555 1_555
O3_2 Al4 1_555 1_555
C2_2 C1_2 1_555 1_555
O11_2 Al4 1_555 1_555
O8_2 Al4 1_555 1_555
C7_2 O8_2 1_555 1_555
C8_2 C7_2 1_555 1_555
O12_2 Al7_2 1_555 1_555
O3_2 C1_2 1_555 1_555
C6_2 H2_2 1_555 1_555
C8_2 H3_2 1_555 1_555
C12_2 H6_2 1_555 1_555
C2_2 H8_2 1_555 1_555
O15 C10_2 1_555 1_555
C10_2 C11_2 1_555 1_555
C9_2 H5_2 1_555 1_555
C11_2 H7_2 1_555 1_555
O11_3 Al7_3 1_555 1_555
Al4_2 O1_3 1_555 1_555
Al7_4 O1_3 1_555 1_555
O11_3 Al4_2 1_555 1_555

#END
