
###############################################################################
#
# This file contains modified crystal structure data generated from the
# MOF subset of the Cambridge Structural Database (CSD) v543 
# hosted by the Cambridge Crystallographic Data Centre (CCDC).
#
# This work is licensed under the Creative Commons
# Attribution-NonCommercial-ShareAlike 4.0 International License.
# To view a copy of this license, visit
# http://creativecommons.org/licenses/by-nc-sa/4.0/
# or send a letter to
# Creative Commons, PO Box 1866, Mountain View, CA 94042, USA.
#
# CIF created using the CSD Python API on 29 September 2022
# The structure has been converted into the P1 space group
# The structure has a 3D framework
# The original CSD entry XUYCOM is in the monoclinic crystal system
# The framework has been calculated to contain at least 10.0% void space
# The void calculation uses a probe of radius 1.32A, grid spacing 0.4
#
###############################################################################

data_XUYCOM
_chemical_formula_moiety         '(C72 H40 N32 O36 Pb6 Zn6)n'
_symmetry_cell_setting           triclinic
_symmetry_space_group_name_H-M   'P 1'
_symmetry_Int_Tables_number      1
_space_group_name_Hall           'P 1'
loop_
_symmetry_equiv_pos_site_id
_symmetry_equiv_pos_as_xyz
1 x,y,z
_cell_length_a                   20.796(4)
_cell_length_b                   22.171(4)
_cell_length_c                   6.8392(12)
_cell_angle_alpha                90
_cell_angle_beta                 105.035(5)
_cell_angle_gamma                90
_cell_volume                     3045.39
loop_
_atom_site_label
_atom_site_type_symbol
_atom_site_fract_x
_atom_site_fract_y
_atom_site_fract_z
Pb1 Pb 0.20402(2) 0.79414(2) 0.20756(7)
Zn1 Zn 0.5000 0.61869(9) 0.2500
O2 O 0.2179(5) 0.6854(4) 0.3896(14)
N1 N 0.4312(6) 0.7478(5) 0.5669(17)
O3 O 0.3559(5) 0.3883(4) 0.4241(15)
N2 N 0.3820(6) 0.7077(5) 0.5631(16)
N3 N 0.4744(5) 0.7266(5) 0.4784(15)
O4 O 0.4473(4) 0.4401(4) 0.5689(14)
N4 N 0.4521(5) 0.6700(4) 0.4038(14)
O5 O 0.2646(6) 0.6969(4) 0.1379(15)
C1 C 0.2510(6) 0.5536(6) 0.2915(17)
H3 H 0.2041 0.5554 0.2386
C2 C 0.2884(6) 0.6069(6) 0.3318(17)
C3 C 0.3573(6) 0.6046(6) 0.4165(17)
C4 C 0.3966(6) 0.6601(5) 0.4607(16)
C5 C 0.2548(6) 0.6664(6) 0.2784(17)
C6 C 0.2824(6) 0.4987(6) 0.3288(18)
H4 H 0.2575 0.4625 0.2950
C7 C 0.3513(6) 0.4959(5) 0.4168(17)
C8 C 0.3879(6) 0.5490(6) 0.4619(17)
H5 H 0.4343 0.5470 0.5244
C9 C 0.3866(6) 0.4356(5) 0.4761(18)
Pb2 Pb 0.79598(2) 0.79414(2) 0.29244(7)
O6 O 0.8893(5) 0.7381(5) 0.5039(15)
H6 H 0.8803 0.7258 0.6198
H7 H 0.9250 0.7623 0.5483
O7 O 0.7821(5) 0.6854(4) 0.1104(14)
O8 O 0.6441(5) 0.3883(4) 0.0759(15)
N7 N 0.5256(5) 0.7266(5) 0.0216(15)
N8 N 0.5479(5) 0.6700(4) 0.0962(14)
O10 O 0.7354(6) 0.6969(4) 0.3621(15)
C10 C 0.7490(6) 0.5536(6) 0.2085(17)
H8 H 0.7959 0.5554 0.2614
C11 C 0.7116(6) 0.6069(6) 0.1682(17)
C12 C 0.6427(6) 0.6046(6) 0.0835(17)
C13 C 0.6034(6) 0.6601(5) 0.0393(16)
C14 C 0.7452(6) 0.6664(6) 0.2216(17)
C15 C 0.7176(6) 0.4987(6) 0.1712(18)
H9 H 0.7425 0.4625 0.2050
C16 C 0.6487(6) 0.4959(5) 0.0832(17)
C17 C 0.6121(6) 0.5490(6) 0.0381(17)
C18 C 0.6134(6) 0.4356(5) 0.0239(18)
Pb3 Pb 0.70402(2) 0.29414(2) 0.20756(7)
Pb4 Pb 0.29598(2) 0.29414(2) 0.29244(7)
Pb6 Pb 0.29598(2) 0.70586(2) 0.79244(7)
Pb8 Pb 0.70402(2) 0.70586(2) 0.70756(7)
Zn3 Zn 0.5000 0.38131(9) 0.7500
O11 O 0.2821(5) 0.8146(4) 0.6104(14)
O13 O 0.8559(5) 0.8883(4) 0.4241(15)
O14 O 0.1441(5) 0.8883(4) 0.0759(15)
N9 N 0.1180(6) 0.7923(5) 0.4369(16)
N10 N 0.8820(6) 0.7923(5) 0.0631(16)
O15 O 0.5527(4) 0.5599(4) 0.4311(14)
O16 O 0.4473(4) 0.5599(4) 0.0689(14)
O18 O 0.7646(6) 0.8031(4) 0.6379(15)
O1 O 0.1107(5) 0.7381(5) 0.9961(15)
H1 H 0.1197 0.7258 0.8802
H2 H 0.0750 0.7623 0.9517
N5 N 0.5688(6) 0.7478(5) 0.9331(17)
N6 N 0.6180(6) 0.7077(5) 0.9369(16)
O9 O 0.5527(4) 0.4401(4) 0.9311(14)
H10 H 0.5657 0.5470 0.9756
O12 O 0.7179(5) 0.8146(4) 0.8896(14)
O17 O 0.2354(6) 0.8031(4) 0.8621(15)
Zn1_2 Zn -0.0000 0.11869(9) 0.2500
O6_2 O 0.3893(5) 0.2381(5) 0.5039(15)
H6_2 H 0.3803 0.2258 0.6198
H7_2 H 0.4250 0.2623 0.5483
O7_2 O 0.2821(5) 0.1854(4) 0.1104(14)
N7_2 N 0.0256(5) 0.2266(5) 0.0216(15)
N8_2 N 0.0479(5) 0.1700(4) 0.0962(14)
O10_2 O 0.2354(6) 0.1969(4) 0.3621(15)
C10_2 C 0.2490(6) 0.0536(6) 0.2085(17)
H8_2 H 0.2959 0.0554 0.2614
C11_2 C 0.2116(6) 0.1069(6) 0.1682(17)
C12_2 C 0.1427(6) 0.1046(6) 0.0835(17)
C13_2 C 0.1034(6) 0.1601(5) 0.0393(16)
C14_2 C 0.2452(6) 0.1664(6) 0.2216(17)
C17_2 C 0.1121(6) 0.0490(6) 0.0381(17)
Pb8_2 Pb 0.20402(2) 0.20586(2) 0.70756(7)
N10_2 N 0.3820(6) 0.2923(5) 0.0631(16)
O15_2 O 0.0527(4) 0.0599(4) 0.4311(14)
O18_2 O 0.2646(6) 0.3031(4) 0.6379(15)
N5_2 N 0.0688(6) 0.2478(5) 0.9331(17)
N6_2 N 0.1180(6) 0.2077(5) 0.9369(16)
H10_2 H 0.0657 0.0470 0.9756
O12_2 O 0.2179(5) 0.3146(4) 0.8896(14)
C15_2 C 0.2176(6) 0.9987(6) 0.1712(18)
H9_2 H 0.2425 0.9625 0.2050
C16_2 C 0.1487(6) 0.9959(5) 0.0832(17)
C18_2 C 0.1134(6) 0.9356(5) 0.0239(18)
Zn3_2 Zn 0.0000 0.88131(9) 0.7500
O9_2 O 0.0527(4) 0.9401(4) 0.9311(14)
Zn1_3 Zn 1.0000 0.11869(9) 0.2500
O2_2 O 0.7179(5) 0.1854(4) 0.3896(14)
N1_2 N 0.9312(6) 0.2478(5) 0.5669(17)
N2_2 N 0.8820(6) 0.2077(5) 0.5631(16)
N3_2 N 0.9744(5) 0.2266(5) 0.4784(15)
N4_2 N 0.9521(5) 0.1700(4) 0.4038(14)
O5_2 O 0.7646(6) 0.1969(4) 0.1379(15)
C1_2 C 0.7510(6) 0.0536(6) 0.2915(17)
H3_2 H 0.7041 0.0554 0.2386
C2_2 C 0.7884(6) 0.1069(6) 0.3318(17)
C3_2 C 0.8573(6) 0.1046(6) 0.4165(17)
C4_2 C 0.8966(6) 0.1601(5) 0.4607(16)
C5_2 C 0.7548(6) 0.1664(6) 0.2784(17)
C8_2 C 0.8879(6) 0.0490(6) 0.4619(17)
H5_2 H 0.9343 0.0470 0.5244
Pb6_2 Pb 0.79598(2) 0.20586(2) 0.79244(7)
O11_2 O 0.7821(5) 0.3146(4) 0.6104(14)
N9_2 N 0.6180(6) 0.2923(5) 0.4369(16)
O16_2 O 0.9473(4) 0.0599(4) 0.0689(14)
O1_2 O 0.6107(5) 0.2381(5) 0.9961(15)
H1_2 H 0.6197 0.2258 0.8802
H2_2 H 0.5750 0.2623 0.9517
O17_2 O 0.7354(6) 0.3031(4) 0.8621(15)
O4_2 O 0.9473(4) 0.9401(4) 0.5689(14)
C6_2 C 0.7824(6) 0.9987(6) 0.3288(18)
H4_2 H 0.7575 0.9625 0.2950
C7_2 C 0.8513(6) 0.9959(5) 0.4168(17)
C9_2 C 0.8866(6) 0.9356(5) 0.4761(18)
Zn3_3 Zn 1.0000 0.88131(9) 0.7500
O1_3 O 0.8893(5) 0.2619(5) 0.0039(15)
H1_3 H 0.8803 0.2742 0.1198
H2_3 H 0.9250 0.2377 0.0483
N5_3 N 0.4312(6) 0.2522(5) 0.0669(17)
H10_3 H 0.4343 0.4530 0.0244
N1_3 N 0.5688(6) 0.2522(5) 0.4331(17)
O3_2 O 0.6441(5) 0.6117(4) 0.5759(15)
N3_3 N 0.5256(5) 0.2734(5) 0.5216(15)
N4_3 N 0.5479(5) 0.3300(4) 0.5962(14)
C1_3 C 0.7490(6) 0.4464(6) 0.7085(17)
H3_3 H 0.7959 0.4446 0.7614
C2_3 C 0.7116(6) 0.3931(6) 0.6682(17)
C3_3 C 0.6427(6) 0.3954(6) 0.5835(17)
C4_3 C 0.6034(6) 0.3399(5) 0.5393(16)
C5_3 C 0.7452(6) 0.3336(6) 0.7216(17)
C6_3 C 0.7176(6) 0.5013(6) 0.6712(18)
H4_3 H 0.7425 0.5375 0.7050
C7_3 C 0.6487(6) 0.5041(5) 0.5832(17)
C8_3 C 0.6121(6) 0.4510(6) 0.5381(17)
H5_3 H 0.5657 0.4530 0.4756
C9_3 C 0.6134(6) 0.5644(5) 0.5239(18)
O6_3 O 0.1107(5) 0.2619(5) 0.4961(15)
H6_3 H 0.1197 0.2742 0.3802
H7_3 H 0.0750 0.2377 0.4517
O8_2 O 0.3559(5) 0.6117(4) 0.9241(15)
N7_3 N 0.4744(5) 0.2734(5) 0.9784(15)
N8_3 N 0.4521(5) 0.3300(4) 0.9038(14)
C10_3 C 0.2510(6) 0.4464(6) 0.7915(17)
H8_3 H 0.2041 0.4446 0.7386
C11_3 C 0.2884(6) 0.3931(6) 0.8318(17)
C12_3 C 0.3573(6) 0.3954(6) 0.9165(17)
C13_3 C 0.3966(6) 0.3399(5) 0.9607(16)
C14_3 C 0.2548(6) 0.3336(6) 0.7784(17)
C15_3 C 0.2824(6) 0.5013(6) 0.8288(18)
H9_3 H 0.2575 0.5375 0.7950
C16_3 C 0.3513(6) 0.5041(5) 0.9168(17)
C17_3 C 0.3879(6) 0.4510(6) 0.9619(17)
C18_3 C 0.3866(6) 0.5644(5) 0.9761(18)
O13_2 O 0.1441(5) 0.1117(4) 0.5759(15)
O14_2 O 0.8559(5) 0.1117(4) 0.9241(15)
C6_4 C 0.2176(6) 0.0013(6) 0.6712(18)
H4_4 H 0.2425 0.0375 0.7050
C7_4 C 0.1487(6) 0.0041(5) 0.5832(17)
C9_4 C 0.1134(6) 0.0644(5) 0.5239(18)
O1_4 O 0.3893(5) 0.7619(5) 0.0039(15)
H1_4 H 0.3803 0.7742 0.1198
H2_4 H 0.4250 0.7377 0.0483
N1_4 N 0.0688(6) 0.7522(5) 0.4331(17)
N3_4 N 0.0256(5) 0.7734(5) 0.5216(15)
N4_4 N 0.0479(5) 0.8300(4) 0.5962(14)
C1_4 C 0.2490(6) 0.9464(6) 0.7085(17)
H3_4 H 0.2959 0.9446 0.7614
C2_4 C 0.2116(6) 0.8931(6) 0.6682(17)
C3_4 C 0.1427(6) 0.8954(6) 0.5835(17)
C4_4 C 0.1034(6) 0.8399(5) 0.5393(16)
C5_4 C 0.2452(6) 0.8336(6) 0.7216(17)
C8_4 C 0.1121(6) 0.9510(6) 0.5381(17)
H5_4 H 0.0657 0.9530 0.4756
C15_4 C 0.7824(6) 0.0013(6) 0.8288(18)
H9_4 H 0.7575 0.0375 0.7950
C16_4 C 0.8513(6) 0.0041(5) 0.9168(17)
C18_4 C 0.8866(6) 0.0644(5) 0.9761(18)
N5_4 N 0.9312(6) 0.7522(5) 0.0669(17)
H10_4 H 0.9343 0.9530 0.0244
O6_4 O 0.6107(5) 0.7619(5) 0.4961(15)
H6_4 H 0.6197 0.7742 0.3802
H7_4 H 0.5750 0.7377 0.4517
N7_4 N 0.9744(5) 0.7734(5) 0.9784(15)
N8_4 N 0.9521(5) 0.8300(4) 0.9038(14)
C10_4 C 0.7510(6) 0.9464(6) 0.7915(17)
H8_4 H 0.7041 0.9446 0.7386
C11_4 C 0.7884(6) 0.8931(6) 0.8318(17)
C12_4 C 0.8573(6) 0.8954(6) 0.9165(17)
C13_4 C 0.8966(6) 0.8399(5) 0.9607(16)
C14_4 C 0.7548(6) 0.8336(6) 0.7784(17)
C17_4 C 0.8879(6) 0.9510(6) 0.9619(17)
loop_
_geom_bond_atom_site_label_1
_geom_bond_atom_site_label_2
_geom_bond_site_symmetry_1
_geom_bond_site_symmetry_2
Zn1 N4 1_555 1_555
O2 Pb1 1_555 1_555
N1 N2 1_555 1_555
O3 C9 1_555 1_555
N2 C4 1_555 1_555
N3 N1 1_555 1_555
O4 C9 1_555 1_555
N4 N3 1_555 1_555
O5 Pb1 1_555 1_555
C1 H3 1_555 1_555
C2 C1 1_555 1_555
C3 C2 1_555 1_555
C4 N4 1_555 1_555
C5 O2 1_555 1_555
C6 C1 1_555 1_555
H4 C6 1_555 1_555
C7 C6 1_555 1_555
C8 C3 1_555 1_555
H5 C8 1_555 1_555
C9 C7 1_555 1_555
Pb2 O6 1_555 1_555
O6 H6 1_555 1_555
H7 O6 1_555 1_555
O7 Pb2 1_555 1_555
O8 C18 1_555 1_555
N8 Zn1 1_555 1_555
O10 Pb2 1_555 1_555
C10 H8 1_555 1_555
C11 C10 1_555 1_555
C12 C11 1_555 1_555
C13 N8 1_555 1_555
C14 O7 1_555 1_555
C15 C10 1_555 1_555
H9 C15 1_555 1_555
C16 C15 1_555 1_555
C17 C12 1_555 1_555
C18 C16 1_555 1_555
Pb3 O8 1_555 1_555
Pb4 O3 1_555 1_555
Pb6 O2 1_555 1_555
Pb8 O10 1_555 1_555
Zn3 O4 1_555 1_555
O11 Pb1 1_555 1_555
O13 Pb2 1_555 1_555
O14 Pb1 1_555 1_555
N9 Pb1 1_555 1_555
N10 Pb2 1_555 1_555
O15 Zn1 1_555 1_555
O16 Zn1 1_555 1_555
O18 Pb2 1_555 1_555
N2 Pb6 1_555 1_555
O5 C5 1_555 1_555
C2 C5 1_555 1_555
C3 C4 1_555 1_555
C7 C8 1_555 1_555
N7 N8 1_555 1_555
O10 C14 1_555 1_555
C11 C14 1_555 1_555
C12 C13 1_555 1_555
C16 C17 1_555 1_555
Pb6 O11 1_555 1_555
Pb8 O18 1_555 1_555
O1 H1 1_555 1_555
H2 O1 1_555 1_555
N5 N6 1_555 1_555
Zn3 O9 1_555 1_555
N6 Pb8 1_555 1_555
Pb6 O17 1_555 1_555
Pb8 O12 1_555 1_555
Pb4 O6_2 1_555 1_555
O6_2 H6_2 1_555 1_555
H7_2 O6_2 1_555 1_555
O7_2 Pb4 1_555 1_555
N8_2 Zn1_2 1_555 1_555
O10_2 Pb4 1_555 1_555
C10_2 H8_2 1_555 1_555
C11_2 C10_2 1_555 1_555
C12_2 C11_2 1_555 1_555
C13_2 N8_2 1_555 1_555
C14_2 O7_2 1_555 1_555
C17_2 C12_2 1_555 1_555
Pb8_2 O10_2 1_555 1_555
N10_2 Pb4 1_555 1_555
O15_2 Zn1_2 1_555 1_555
O18_2 Pb4 1_555 1_555
N7_2 N8_2 1_555 1_555
O10_2 C14_2 1_555 1_555
C11_2 C14_2 1_555 1_555
C12_2 C13_2 1_555 1_555
Pb8_2 O18_2 1_555 1_555
N5_2 N6_2 1_555 1_555
N6_2 Pb8_2 1_555 1_555
Pb8_2 O12_2 1_555 1_555
O14 C18_2 1_555 1_555
H9_2 C15_2 1_555 1_555
C16_2 C15_2 1_555 1_555
C18_2 C16_2 1_555 1_555
Zn3_2 O9_2 1_555 1_555
Zn1_3 N4_2 1_555 1_555
O2_2 Pb3 1_555 1_555
N1_2 N2_2 1_555 1_555
N2_2 C4_2 1_555 1_555
N3_2 N1_2 1_555 1_555
N4_2 N3_2 1_555 1_555
O5_2 Pb3 1_555 1_555
C1_2 H3_2 1_555 1_555
C2_2 C1_2 1_555 1_555
C3_2 C2_2 1_555 1_555
C4_2 N4_2 1_555 1_555
C5_2 O2_2 1_555 1_555
C8_2 C3_2 1_555 1_555
H5_2 C8_2 1_555 1_555
Pb6_2 O2_2 1_555 1_555
O11_2 Pb3 1_555 1_555
N9_2 Pb3 1_555 1_555
O16_2 Zn1_3 1_555 1_555
N2_2 Pb6_2 1_555 1_555
O5_2 C5_2 1_555 1_555
C2_2 C5_2 1_555 1_555
C3_2 C4_2 1_555 1_555
Pb6_2 O11_2 1_555 1_555
O1_2 H1_2 1_555 1_555
H2_2 O1_2 1_555 1_555
Pb6_2 O17_2 1_555 1_555
O13 C9_2 1_555 1_555
O4_2 C9_2 1_555 1_555
H4_2 C6_2 1_555 1_555
C7_2 C6_2 1_555 1_555
C9_2 C7_2 1_555 1_555
Zn3_3 O4_2 1_555 1_555
O1_3 H1_3 1_555 1_555
H2_3 O1_3 1_555 1_555
N5_3 N10_2 1_555 1_555
Zn3 N4_3 1_555 1_555
N1_3 N9_2 1_555 1_555
O3_2 C9_3 1_555 1_555
N9_2 C4_3 1_555 1_555
N3_3 N1_3 1_555 1_555
O15 C9_3 1_555 1_555
N4_3 N3_3 1_555 1_555
C1_3 H3_3 1_555 1_555
C2_3 C1_3 1_555 1_555
C3_3 C2_3 1_555 1_555
C4_3 N4_3 1_555 1_555
C5_3 O11_2 1_555 1_555
C6_3 C1_3 1_555 1_555
H4_3 C6_3 1_555 1_555
C7_3 C6_3 1_555 1_555
C8_3 C3_3 1_555 1_555
H5_3 C8_3 1_555 1_555
C9_3 C7_3 1_555 1_555
Pb8_2 O6_3 1_555 1_555
O6_3 H6_3 1_555 1_555
H7_3 O6_3 1_555 1_555
O8_2 C18_3 1_555 1_555
N8_3 Zn3 1_555 1_555
C10_3 H8_3 1_555 1_555
C11_3 C10_3 1_555 1_555
C12_3 C11_3 1_555 1_555
C13_3 N8_3 1_555 1_555
C14_3 O12_2 1_555 1_555
C15_3 C10_3 1_555 1_555
H9_3 C15_3 1_555 1_555
C16_3 C15_3 1_555 1_555
C17_3 C12_3 1_555 1_555
C18_3 C16_3 1_555 1_555
Pb6 O8_2 1_555 1_555
Pb8 O3_2 1_555 1_555
O13_2 Pb8_2 1_555 1_555
O14_2 Pb6_2 1_555 1_555
O17_2 C5_3 1_555 1_555
C2_3 C5_3 1_555 1_555
C3_3 C4_3 1_555 1_555
C7_3 C8_3 1_555 1_555
N7_3 N8_3 1_555 1_555
O18_2 C14_3 1_555 1_555
C11_3 C14_3 1_555 1_555
C12_3 C13_3 1_555 1_555
C16_3 C17_3 1_555 1_555
O13_2 C9_4 1_555 1_555
O15_2 C9_4 1_555 1_555
H4_4 C6_4 1_555 1_555
C7_4 C6_4 1_555 1_555
C9_4 C7_4 1_555 1_555
O1_4 H1_4 1_555 1_555
H2_4 O1_4 1_555 1_555
Zn3_2 N4_4 1_555 1_555
N1_4 N9 1_555 1_555
N9 C4_4 1_555 1_555
N3_4 N1_4 1_555 1_555
N4_4 N3_4 1_555 1_555
C1_4 H3_4 1_555 1_555
C2_4 C1_4 1_555 1_555
C3_4 C2_4 1_555 1_555
C4_4 N4_4 1_555 1_555
C5_4 O11 1_555 1_555
C8_4 C3_4 1_555 1_555
H5_4 C8_4 1_555 1_555
O17 C5_4 1_555 1_555
C2_4 C5_4 1_555 1_555
C3_4 C4_4 1_555 1_555
O14_2 C18_4 1_555 1_555
H9_4 C15_4 1_555 1_555
C16_4 C15_4 1_555 1_555
C18_4 C16_4 1_555 1_555
N5_4 N10 1_555 1_555
Pb8 O6_4 1_555 1_555
O6_4 H6_4 1_555 1_555
H7_4 O6_4 1_555 1_555
N8_4 Zn3_3 1_555 1_555
C10_4 H8_4 1_555 1_555
C11_4 C10_4 1_555 1_555
C12_4 C11_4 1_555 1_555
C13_4 N8_4 1_555 1_555
C14_4 O12 1_555 1_555
C17_4 C12_4 1_555 1_555
N7_4 N8_4 1_555 1_555
O18 C14_4 1_555 1_555
C11_4 C14_4 1_555 1_555
C12_4 C13_4 1_555 1_555

#END
