
###############################################################################
#
# This file contains modified crystal structure data generated from the
# MOF subset of the Cambridge Structural Database (CSD) v543 
# hosted by the Cambridge Crystallographic Data Centre (CCDC).
#
# This work is licensed under the Creative Commons
# Attribution-NonCommercial-ShareAlike 4.0 International License.
# To view a copy of this license, visit
# http://creativecommons.org/licenses/by-nc-sa/4.0/
# or send a letter to
# Creative Commons, PO Box 1866, Mountain View, CA 94042, USA.
#
# CIF created using the CSD Python API on 29 September 2022
# The structure has been converted into the P1 space group
# The structure has a 3D framework
# The original CSD entry XUYTES is in the monoclinic crystal system
# The framework has been calculated to contain at least 10.0% void space
# The void calculation uses a probe of radius 1.32A, grid spacing 0.4
#
###############################################################################

data_XUYTES
_chemical_formula_moiety         '(C12 H36 N4 O12 P4 Zn4)n'
_symmetry_cell_setting           triclinic
_symmetry_space_group_name_H-M   'P 1'
_symmetry_Int_Tables_number      1
_space_group_name_Hall           'P 1'
loop_
_symmetry_equiv_pos_site_id
_symmetry_equiv_pos_as_xyz
1 x,y,z
_cell_length_a                   11.9587(7)
_cell_length_b                   8.2766(5)
_cell_length_c                   7.7756(5)
_cell_angle_alpha                90
_cell_angle_beta                 95.8370(10)
_cell_angle_gamma                90
_cell_volume                     765.618
loop_
_atom_site_label
_atom_site_type_symbol
_atom_site_fract_x
_atom_site_fract_y
_atom_site_fract_z
H14 H 0.1851 0.0669 0.0802
Zn4 Zn 0.422001(14) 0.03384(2) 0.21724(2)
N2 N 0.35554(11) 0.85627(16) 0.06137(17)
C4 C 0.23511(13) 0.8215(2) 0.0753(2)
C5 C 0.16171(15) 0.9631(2) 0.0168(3)
C6 C 0.03805(15) 0.9301(3) 0.0290(3)
H10 H 0.2094 0.7371 0.0044
H11 H 0.2273 0.7990 0.1946
H12 H 0.0282 0.9010 0.1419
H16 H 0.3882 0.7722 0.0859
O3 O 0.58277(9) 0.01687(16) 0.29009(15)
N1 N 0.64446(11) 0.14373(16) 0.93863(17)
C1 C 0.76489(13) 0.1785(2) 0.9247(2)
C2 C 0.83829(15) 0.0369(2) 0.9832(3)
C3 C 0.96195(15) 0.0699(3) 0.9710(3)
H2 H 0.7906 0.2629 0.9956
H3 H 0.7727 0.2010 0.8054
H4 H 0.9718 0.0990 0.8581
H8 H 0.6118 0.2278 0.9141
P2 P 0.35850(3) 0.10825(5) 0.58848(5)
O4 O 0.33017(11) 0.04102(15) 0.40824(15)
O5 O 0.42273(11) 0.26590(14) 0.58863(16)
H18 H 0.2637 0.1373 0.6558
Zn3 Zn 0.422001(14) 0.46616(2) 0.71724(2)
O7 O 0.42273(11) 0.23410(14) 0.08863(16)
Zn1 Zn 0.577999(14) 0.96616(2) 0.78276(2)
P1 P 0.64150(3) 0.89175(5) 0.41152(5)
O1 O 0.66983(11) 0.95898(15) 0.59176(15)
O2 O 0.57727(11) 0.73410(14) 0.41137(16)
H1 H 0.7363 0.8627 0.3442
H6 H 0.8149 0.9331 0.9198
O6 O 0.41723(9) 0.98313(16) 0.70991(15)
Zn5 Zn 0.577999(14) 0.53384(2) 0.28276(2)
O8 O 0.57727(11) 0.76590(14) 0.91137(16)
P1_2 P 0.35850(3) 0.39175(5) 0.08848(5)
O3_2 O 0.41723(9) 0.51687(16) 0.20991(15)
H1_2 H 0.2637 0.3627 0.1558
O4_2 O 0.66983(11) 0.54102(15) 0.09176(15)
N3 N 0.64446(11) 0.35627(16) 0.43863(17)
O1_2 O 0.33017(11) 0.45898(15) 0.90824(15)
N1_2 N 0.35554(11) 0.64373(16) 0.56137(17)
C1_2 C 0.23511(13) 0.6785(2) 0.5753(2)
C2_2 C 0.16171(15) 0.5369(2) 0.5168(3)
C3_2 C 0.03805(15) 0.5699(3) 0.5290(3)
H2_2 H 0.2094 0.7629 0.5044
H3_2 H 0.2273 0.7010 0.6946
H4_2 H 0.0282 0.5990 0.6419
H5 H 0.0153 0.6649 0.4656
H6_2 H 0.1851 0.4331 0.5802
H7 H 0.1672 0.5021 0.3960
H8_2 H 0.3882 0.7278 0.5859
H9 H 0.3663 0.6137 0.4513
P2_2 P 0.64150(3) 0.60825(5) 0.91152(5)
O6_2 O 0.58277(9) 0.48313(16) 0.79009(15)
H18_2 H 0.7363 0.6373 0.8442
C4_2 C 0.76489(13) 0.3215(2) 0.4247(2)
C5_2 C 0.83829(15) 0.4631(2) 0.4832(3)
C6_2 C 0.96195(15) 0.4301(3) 0.4710(3)
H10_2 H 0.7906 0.2371 0.4956
H11_2 H 0.7727 0.2990 0.3054
H12_2 H 0.9718 0.4010 0.3581
H13 H 0.9847 0.3351 0.5344
H14_2 H 0.8149 0.5669 0.4198
H15 H 0.8328 0.4979 0.6040
H16_2 H 0.6118 0.2722 0.4141
H17 H 0.6337 0.3863 0.5487
H13_2 H 0.0153 0.8351 0.9656
H15_2 H 0.1672 0.9979 0.8960
H17_2 H 0.3663 0.8863 0.9513
H5_2 H 0.9847 0.1649 0.0344
H7_2 H 0.8328 0.0021 0.1040
H9_2 H 0.6337 0.1137 0.0487
loop_
_geom_bond_atom_site_label_1
_geom_bond_atom_site_label_2
_geom_bond_site_symmetry_1
_geom_bond_site_symmetry_2
N2 C4 1_555 1_555
C4 C5 1_555 1_555
C5 C6 1_555 1_555
H10 C4 1_555 1_555
H11 C4 1_555 1_555
H12 C6 1_555 1_555
H16 N2 1_555 1_555
C1 N1 1_555 1_555
C2 C1 1_555 1_555
C3 C2 1_555 1_555
H2 C1 1_555 1_555
H3 C1 1_555 1_555
H4 C3 1_555 1_555
H8 N1 1_555 1_555
Zn4 O3 1_555 1_555
P2 O4 1_555 1_555
O4 Zn4 1_555 1_555
O5 P2 1_555 1_555
H18 P2 1_555 1_555
Zn3 O5 1_555 1_555
O7 Zn4 1_555 1_555
Zn1 O1 1_555 1_555
P1 O1 1_555 1_555
O2 P1 1_555 1_555
H1 P1 1_555 1_555
O6 Zn1 1_555 1_555
Zn5 O2 1_555 1_555
O8 Zn1 1_555 1_555
O7 P1_2 1_555 1_555
O3_2 P1_2 1_555 1_555
H1_2 P1_2 1_555 1_555
Zn5 O3_2 1_555 1_555
O4_2 Zn5 1_555 1_555
N3 Zn5 1_555 1_555
Zn3 O1_2 1_555 1_555
N1_2 Zn3 1_555 1_555
C1_2 N1_2 1_555 1_555
C2_2 C1_2 1_555 1_555
C3_2 C2_2 1_555 1_555
H2_2 C1_2 1_555 1_555
H3_2 C1_2 1_555 1_555
H4_2 C3_2 1_555 1_555
H5 C3_2 1_555 1_555
H6_2 C2_2 1_555 1_555
H7 C2_2 1_555 1_555
H8_2 N1_2 1_555 1_555
H9 N1_2 1_555 1_555
O8 P2_2 1_555 1_555
O6_2 Zn3 1_555 1_555
H18_2 P2_2 1_555 1_555
P2_2 O6_2 1_555 1_555
N3 C4_2 1_555 1_555
C4_2 C5_2 1_555 1_555
C5_2 C6_2 1_555 1_555
H10_2 C4_2 1_555 1_555
H11_2 C4_2 1_555 1_555
H12_2 C6_2 1_555 1_555
H13 C6_2 1_555 1_555
H14_2 C5_2 1_555 1_555
H15 C5_2 1_555 1_555
H16_2 N3 1_555 1_555
H17 N3 1_555 1_555

#END
