
###############################################################################
#
# This file contains modified crystal structure data generated from the
# MOF subset of the Cambridge Structural Database (CSD) v543 
# hosted by the Cambridge Crystallographic Data Centre (CCDC).
#
# This work is licensed under the Creative Commons
# Attribution-NonCommercial-ShareAlike 4.0 International License.
# To view a copy of this license, visit
# http://creativecommons.org/licenses/by-nc-sa/4.0/
# or send a letter to
# Creative Commons, PO Box 1866, Mountain View, CA 94042, USA.
#
# CIF created using the CSD Python API on 29 September 2022
# The structure has been converted into the P1 space group
# The structure has a 3D framework
# The original CSD entry XUZWAS is in the hexagonal crystal system
# The original CSD entry XUZWAS is in a Sohncke space group
# The framework has been calculated to contain at least 10.0% void space
# The void calculation uses a probe of radius 1.32A, grid spacing 0.4
#
###############################################################################

data_XUZWAS
_chemical_formula_moiety         '(C116 H96 Ag12 N24 O34)n'
_symmetry_cell_setting           triclinic
_symmetry_space_group_name_H-M   'P 1'
_symmetry_Int_Tables_number      1
_space_group_name_Hall           'P 1'
loop_
_symmetry_equiv_pos_site_id
_symmetry_equiv_pos_as_xyz
1 x,y,z
_cell_length_a                   16.5272(5)
_cell_length_b                   16.5272(5)
_cell_length_c                   12.7024(5)
_cell_angle_alpha                90
_cell_angle_beta                 90
_cell_angle_gamma                120
_cell_volume                     3004.8
loop_
_atom_site_label
_atom_site_type_symbol
_atom_site_fract_x
_atom_site_fract_y
_atom_site_fract_z
N3 N 0.8168(9) -0.0000 0.5000
C1 C 0.5637(7) -0.0000 0.5000
H1 H 0.5074 -0.0000 0.5000
C4 C 0.7268(9) -0.0000 0.5000
O4 O 0.5888(6) 0.1877(4) 0.5291(6)
O5 O 0.7261(6) 0.2414(4) 0.4481(7)
O6 O 0.8865(11) 0.0693(8) 0.4653(15)
C14 C 0.6464(8) 0.0840(6) 0.4927(7)
C15 C 0.7283(10) 0.0838(7) 0.4900(9)
H15 H 0.7846 0.1393 0.4815
C16 C 0.6515(9) 0.1785(6) 0.4893(7)
Ag3 Ag 0.65138(3) 0.34862(3) 0.5833
Ag7 Ag 0.79160(4) 0.39580(3) 0.4166
Ag2 Ag 0.39580(3) 0.60420(3) 0.5833
N1 N 0.5721(3) 0.4279(3) 0.5833
N2 N 0.4768(3) 0.5232(3) 0.5833
N3_2 N 0.8168(9) 1.0000 0.5000
O1 O 0.4011(5) 0.8123(4) 0.4709(6)
O2 O 0.4847(5) 0.7586(4) 0.5519(7)
O3 O 0.8172(8) 0.9307(8) 0.5347(15)
C1_2 C 0.5637(7) 1.0000 0.5000
H1_2 H 0.5074 1.0000 0.5000
C2 C 0.5624(6) 0.9160(6) 0.5073(7)
C3 C 0.6445(7) 0.9162(7) 0.5100(9)
H2 H 0.6453 0.8607 0.5185
C4_2 C 0.7268(9) 1.0000 0.5000
C5 C 0.4730(7) 0.8215(6) 0.5107(7)
C6 C 0.3334(8) 0.3875(8) 0.5256(12)
H3 H 0.3051 0.4201 0.5572
H4 H 0.3013 0.3236 0.5487
H5 H 0.3292 0.3895 0.4504
C7 C 0.4358(9) 0.2838(8) 0.5297(11)
H6 H 0.4823 0.2691 0.5065
H7 H 0.3914 0.2704 0.4742
H8 H 0.4043 0.2468 0.5904
C8 C 0.4814(7) 0.3843(7) 0.5573(7)
C9 C 0.4324(6) 0.4324(6) 0.5572(7)
C10 C 0.6125(8) 0.6666(8) 0.6411(12)
H9 H 0.5799 0.6949 0.6095
H10 H 0.6764 0.6987 0.6180
H11 H 0.6105 0.6708 0.7163
C11 C 0.7162(8) 0.5642(9) 0.6370(11)
H12 H 0.7309 0.5177 0.6602
H13 H 0.7296 0.6086 0.6925
H14 H 0.7532 0.5957 0.5763
C12 C 0.6157(7) 0.5186(7) 0.6094(7)
C13 C 0.5676(6) 0.5676(6) 0.6095(7)
Ag4 Ag 0.30276(4) 0.65138(3) 0.4166
Ag5 Ag 0.34862(3) 0.69724(4) 0.7500
Ag8 Ag 0.60420(3) 0.20840(4) 0.7500
O7 O 0.8123(4) 0.4112(6) 0.6376(6)
O9 O 0.2414(4) 0.5153(5) 0.6148(7)
N1_2 N 0.1442(4) 0.5721(3) 0.4166
C7_2 C 0.1520(12) 0.4358(9) 0.3630(11)
H6_2 H 0.2132 0.4823 0.3398
H7_2 H 0.1210 0.3914 0.3075
H8_2 H 0.1575 0.4043 0.4237
C8_2 C 0.0971(10) 0.4814(7) 0.3906(7)
C9_2 C 0.0000(8) 0.4324(6) 0.3905(7)
C11_2 C 0.1520(12) 0.7162(8) 0.4703(11)
H12_2 H 0.2132 0.7309 0.4935
H13_2 H 0.1210 0.7296 0.5258
H14_2 H 0.1575 0.7532 0.4096
C12_2 C 0.0971(10) 0.6157(7) 0.4427(7)
C13_2 C -0.0000(8) 0.5676(6) 0.4428(7)
Ag6 Ag 0.39580(5) 0.79160(4) 0.2500
O8 O 0.4011(7) 0.5888(6) 0.3624(6)
N2_2 N 0.9536(4) 0.4768(3) 0.4166
N3_3 N 0.8168(9) 0.8168(9) 0.3333
O1_2 O 0.5888(6) 0.4011(5) 0.3042(6)
O2_2 O 0.7261(6) 0.4847(5) 0.3852(7)
O3_2 O 0.8865(11) 0.8172(8) 0.3680(15)
C1_3 C 0.5637(7) 0.5637(7) 0.3333
H1_3 H 0.5074 0.5074 0.3333
C2_2 C 0.6464(8) 0.5624(6) 0.3406(7)
C3_2 C 0.7283(10) 0.6445(7) 0.3433(9)
H2_2 H 0.7846 0.6453 0.3518
C4_3 C 0.7268(9) 0.7268(9) 0.3333
C5_2 C 0.6515(9) 0.4730(7) 0.3440(7)
C6_2 C 0.9459(11) 0.3334(8) 0.3589(12)
H3_2 H 0.8850 0.3051 0.3905
H4_2 H 0.9777 0.3013 0.3820
H5_2 H 0.9397 0.3292 0.2837
C9_3 C 1.0000(8) 0.4324(6) 0.3905(7)
C10_2 C 0.9459(11) 0.6125(8) 0.4744(12)
H9_2 H 0.8850 0.5799 0.4428
H10_2 H 0.9777 0.6764 0.4513
H11_2 H 0.9397 0.6105 0.5496
C13_3 C 1.0000(8) 0.5676(6) 0.4428(7)
O5_2 O 0.4847(7) 0.7261(6) 0.2814(7)
O6_2 O 0.8172(14) 0.8865(11) 0.2986(15)
C14_2 C 0.5624(10) 0.6464(8) 0.3260(7)
C15_2 C 0.6445(12) 0.7283(10) 0.3233(9)
H15_2 H 0.6453 0.7846 0.3148
C16_2 C 0.4730(11) 0.6515(9) 0.3226(7)
Ag4_2 Ag 0.65138(5) 0.30276(4) 0.2500
N1_3 N 0.5721(3) 0.1442(4) 0.2500
C7_3 C 0.7162(8) 0.1520(12) 0.1964(11)
H6_3 H 0.7309 0.2132 0.1732
H7_3 H 0.7296 0.1210 0.1409
H8_3 H 0.7532 0.1575 0.2571
C8_3 C 0.6157(7) 0.0971(10) 0.2240(7)
C9_4 C 0.5676(6) 0.0000(8) 0.2239(7)
C11_3 C 0.4358(9) 0.1520(12) 0.3036(11)
H12_3 H 0.4823 0.2132 0.3268
H13_3 H 0.3914 0.1210 0.3591
H14_3 H 0.4043 0.1575 0.2429
C12_3 C 0.4814(7) 0.0971(10) 0.2760(7)
C13_4 C 0.4324(6) -0.0000(8) 0.2761(7)
Ag6_2 Ag 0.60420(3) 0.39580(5) 0.0833
O8_2 O 0.8123(4) 0.4011(7) 0.1958(6)
N2_3 N 0.4768(3) 0.9536(4) 0.2500
N3_4 N 0.0000 0.8168(9) 0.1667
O1_3 O 0.1877(4) 0.5888(6) 0.1376(6)
O2_3 O 0.2414(4) 0.7261(6) 0.2186(7)
O3_3 O 0.0693(8) 0.8865(11) 0.2014(15)
C1_4 C 0.0000 0.5637(7) 0.1667
H1_4 H 0.0000 0.5074 0.1667
C2_3 C 0.0840(6) 0.6464(8) 0.1740(7)
C3_3 C 0.0838(7) 0.7283(10) 0.1767(9)
H2_3 H 0.1393 0.7846 0.1852
C4_4 C 0.0000 0.7268(9) 0.1667
C5_3 C 0.1785(6) 0.6515(9) 0.1774(7)
C6_3 C 0.6125(8) 0.9459(11) 0.1923(12)
H3_3 H 0.5799 0.8850 0.2239
H4_3 H 0.6764 0.9777 0.2154
H5_3 H 0.6105 0.9397 0.1171
C9_5 C 0.5676(6) 1.0000(8) 0.2239(7)
C10_3 C 0.3334(8) 0.9459(11) 0.3077(12)
H9_3 H 0.3051 0.8850 0.2761
H10_3 H 0.3013 0.9777 0.2846
H11_3 H 0.3292 0.9397 0.3829
C13_5 C 0.4324(6) 1.0000(8) 0.2761(7)
Ag4_3 Ag 0.34862(3) 0.65138(5) 0.0833
N3_5 N 1.0000 0.8168(9) 0.1667
C1_5 C 1.0000 0.5637(7) 0.1667
H1_5 H 1.0000 0.5074 0.1667
C4_5 C 1.0000 0.7268(9) 0.1667
O5_3 O 0.7586(4) 0.4847(7) 0.1148(7)
O6_3 O 0.9307(8) 0.8172(14) 0.1320(15)
C14_3 C 0.9160(6) 0.5624(10) 0.1594(7)
C15_3 C 0.9162(7) 0.6445(12) 0.1567(9)
H15_3 H 0.8607 0.6453 0.1482
C16_3 C 0.8215(6) 0.4730(11) 0.1560(7)
N1_4 N 0.4279(3) 0.5721(3) 0.0833
N2_4 N 0.5232(3) 0.4768(3) 0.0833
N3_6 N 0.1832(9) 0.0000 0.0000
O2_4 O 0.5153(5) 0.2414(4) 0.0519(7)
O3_4 O 0.1828(8) 0.0693(8) 0.0347(15)
C1_6 C 0.4363(7) 0.0000 0.0000
H1_6 H 0.4926 0.0000 0.0000
C2_4 C 0.4376(6) 0.0840(6) 0.0073(7)
C3_4 C 0.3555(7) 0.0838(7) 0.0100(9)
H2_4 H 0.3547 0.1393 0.0185
C4_6 C 0.2732(9) 0.0000 0.0000
C5_4 C 0.5270(7) 0.1785(6) 0.0107(7)
C6_4 C 0.6666(8) 0.6125(8) 0.0256(12)
H3_4 H 0.6949 0.5799 0.0572
H4_4 H 0.6987 0.6764 0.0487
C7_4 C 0.5642(9) 0.7162(8) 0.0297(11)
H6_4 H 0.5177 0.7309 0.0065
H8_4 H 0.5957 0.7532 0.0904
C8_4 C 0.5186(7) 0.6157(7) 0.0573(7)
C9_6 C 0.5676(6) 0.5676(6) 0.0572(7)
C10_4 C 0.3875(8) 0.3334(8) 0.1411(12)
H9_4 H 0.4201 0.3051 0.1095
H10_4 H 0.3236 0.3013 0.1180
H11_4 H 0.3895 0.3292 0.2163
C11_4 C 0.2838(8) 0.4358(9) 0.1370(11)
H12_4 H 0.2691 0.4823 0.1602
H13_4 H 0.2704 0.3914 0.1925
H14_4 H 0.2468 0.4043 0.0763
C12_4 C 0.3843(7) 0.4814(7) 0.1094(7)
C13_6 C 0.4324(6) 0.4324(6) 0.1095(7)
O8_3 O 0.4112(6) 0.8123(4) 0.0291(6)
N3_7 N 0.1832(9) 0.0000 1.0000
O1_4 O 0.5989(5) 0.1877(4) 0.9709(6)
C1_7 C 0.4363(7) 0.0000 1.0000
H1_7 H 0.4926 0.0000 1.0000
C4_7 C 0.2732(9) 0.0000 1.0000
H5_4 H 0.6708 0.6105 0.9504
H7_4 H 0.6086 0.7296 0.9742
Ag4_4 Ag 0.69724(4) 0.34862(3) 0.9166
Ag6_3 Ag 0.20840(4) 0.60420(3) 0.9166
N3_8 N 0.1832(9) 1.0000 0.0000
C1_8 C 0.4363(7) 1.0000 0.0000
H1_8 H 0.4926 1.0000 0.0000
C4_8 C 0.2732(9) 1.0000 0.0000
N3_9 N 0.1832(9) 1.0000 1.0000
C1_9 C 0.4363(7) 1.0000 1.0000
H1_9 H 0.4926 1.0000 1.0000
C4_9 C 0.2732(9) 1.0000 1.0000
O5_4 O 0.2739(6) 0.7586(4) 0.9481(7)
O6_4 O 0.1135(11) 0.9307(8) 0.9653(15)
C14_4 C 0.3536(8) 0.9160(6) 0.9927(7)
C15_4 C 0.2717(10) 0.9162(7) 0.9900(9)
H15_4 H 0.2154 0.8607 0.9815
C16_4 C 0.3485(9) 0.8215(6) 0.9893(7)
H11_5 H 0.0603 0.3895 0.0496
N2_5 N 0.0464(4) 0.5232(3) 0.9166
N3_10 N 0.1832(9) 0.1832(9) 0.8333
O1_5 O 0.4112(6) 0.5989(5) 0.8042(6)
O2_5 O 0.2739(6) 0.5153(5) 0.8852(7)
O3_5 O 0.1135(11) 0.1828(8) 0.8680(15)
C1_10 C 0.4363(7) 0.4363(7) 0.8333
H1_10 H 0.4926 0.4926 0.8333
C2_5 C 0.3536(8) 0.4376(6) 0.8406(7)
C3_5 C 0.2717(10) 0.3555(7) 0.8433(9)
H2_5 H 0.2154 0.3547 0.8518
C4_10 C 0.2732(9) 0.2732(9) 0.8333
C5_5 C 0.3485(9) 0.5270(7) 0.8440(7)
C6_5 C 0.0541(11) 0.6666(8) 0.8589(12)
H3_5 H 0.1150 0.6949 0.8905
H4_5 H 0.0223 0.6987 0.8820
H5_5 H 0.0603 0.6708 0.7837
C9_7 C -0.0000(8) 0.5676(6) 0.8905(7)
C10_5 C 0.0541(11) 0.3875(8) 0.9744(12)
H9_5 H 0.1150 0.4201 0.9428
H10_5 H 0.0223 0.3236 0.9513
C13_7 C 0.0000(8) 0.4324(6) 0.9428(7)
O4_2 O 0.5989(7) 0.4112(6) 0.8624(6)
O5_5 O 0.5153(7) 0.2739(6) 0.7814(7)
O6_5 O 0.1828(14) 0.1135(11) 0.7986(15)
C14_5 C 0.4376(10) 0.3536(8) 0.8260(7)
C15_5 C 0.3555(12) 0.2717(10) 0.8233(9)
H15_5 H 0.3547 0.2154 0.8148
C16_5 C 0.5270(11) 0.3485(9) 0.8226(7)
H13_5 H 0.8790 0.2704 0.0258
N1_5 N 0.8558(4) 0.4279(3) 0.9166
C7_5 C 0.8480(12) 0.5642(9) 0.8630(11)
H6_5 H 0.7868 0.5177 0.8398
H7_5 H 0.8790 0.6086 0.8075
H8_5 H 0.8425 0.5957 0.9237
C8_5 C 0.9029(10) 0.5186(7) 0.8906(7)
C9_8 C 1.0000(8) 0.5676(6) 0.8905(7)
C11_5 C 0.8480(12) 0.2838(8) 0.9703(11)
H12_5 H 0.7868 0.2691 0.9935
H14_5 H 0.8425 0.2468 0.9096
C12_5 C 0.9029(10) 0.3843(7) 0.9427(7)
C13_8 C 1.0000(8) 0.4324(6) 0.9428(7)
N3_11 N -0.0000 0.1832(9) 0.6667
C1_11 C -0.0000 0.4363(7) 0.6667
H1_11 H -0.0000 0.4926 0.6667
C4_11 C -0.0000 0.2732(9) 0.6667
O4_3 O 0.1877(4) 0.5989(7) 0.6958(6)
O6_6 O 0.0693(8) 0.1828(14) 0.6320(15)
C14_6 C 0.0840(6) 0.4376(10) 0.6594(7)
C15_6 C 0.0838(7) 0.3555(12) 0.6567(9)
H15_6 H 0.1393 0.3547 0.6482
C16_6 C 0.1785(6) 0.5270(11) 0.6560(7)
N2_6 N 0.5232(3) 0.0464(4) 0.7500
N3_12 N 1.0000 0.1832(9) 0.6667
O2_6 O 0.7586(4) 0.2739(6) 0.7186(7)
O3_6 O 0.9307(8) 0.1135(11) 0.7014(15)
C1_12 C 1.0000 0.4363(7) 0.6667
H1_12 H 1.0000 0.4926 0.6667
C2_6 C 0.9160(6) 0.3536(8) 0.6740(7)
C3_6 C 0.9162(7) 0.2717(10) 0.6767(9)
H2_6 H 0.8607 0.2154 0.6852
C4_12 C 1.0000 0.2732(9) 0.6667
C5_6 C 0.8215(6) 0.3485(9) 0.6774(7)
C6_6 C 0.3875(8) 0.0541(11) 0.6923(12)
H3_6 H 0.4201 0.1150 0.7239
H4_6 H 0.3236 0.0223 0.7154
H5_6 H 0.3895 0.0603 0.6171
C9_9 C 0.4324(6) -0.0000(8) 0.7239(7)
C10_6 C 0.6666(8) 0.0541(11) 0.8077(12)
H9_6 H 0.6949 0.1150 0.7761
H10_6 H 0.6987 0.0223 0.7846
H11_6 H 0.6708 0.0603 0.8829
C13_9 C 0.5676(6) -0.0000(8) 0.7761(7)
N1_6 N 0.4279(3) 0.8558(4) 0.7500
C7_6 C 0.2838(8) 0.8480(12) 0.6964(11)
H6_6 H 0.2691 0.7868 0.6732
H7_6 H 0.2704 0.8790 0.6409
H8_6 H 0.2468 0.8425 0.7571
C8_6 C 0.3843(7) 0.9029(10) 0.7240(7)
C9_10 C 0.4324(6) 1.0000(8) 0.7239(7)
C11_6 C 0.5642(9) 0.8480(12) 0.8036(11)
H12_6 H 0.5177 0.7868 0.8268
H13_6 H 0.6086 0.8790 0.8591
H14_6 H 0.5957 0.8425 0.7429
C12_6 C 0.5186(7) 0.9029(10) 0.7760(7)
C13_10 C 0.5676(6) 1.0000(8) 0.7761(7)
loop_
_geom_bond_atom_site_label_1
_geom_bond_atom_site_label_2
_geom_bond_site_symmetry_1
_geom_bond_site_symmetry_2
C1 H1 1_555 1_555
C4 N3 1_555 1_555
O4 C16 1_555 1_555
O5 C16 1_555 1_555
O6 N3 1_555 1_555
C14 C1 1_555 1_555
C15 C4 1_555 1_555
H15 C15 1_555 1_555
C16 C14 1_555 1_555
Ag3 O4 1_555 1_555
Ag7 O5 1_555 1_555
C14 C15 1_555 1_555
Ag3 Ag7 1_555 1_555
Ag3 N1 1_555 1_555
Ag2 N2 1_555 1_555
N1 C8 1_555 1_555
N2 C9 1_555 1_555
N3_2 O3 1_555 1_555
O1 C5 1_555 1_555
O2 Ag2 1_555 1_555
C1_2 H1_2 1_555 1_555
C2 C1_2 1_555 1_555
C3 C2 1_555 1_555
H2 C3 1_555 1_555
C4_2 N3_2 1_555 1_555
C5 O2 1_555 1_555
C6 H3 1_555 1_555
H4 C6 1_555 1_555
H5 C6 1_555 1_555
C7 H6 1_555 1_555
H7 C7 1_555 1_555
H8 C7 1_555 1_555
C8 C7 1_555 1_555
C9 C6 1_555 1_555
C10 H9 1_555 1_555
H10 C10 1_555 1_555
H11 C10 1_555 1_555
C11 H12 1_555 1_555
H13 C11 1_555 1_555
H14 C11 1_555 1_555
C12 N1 1_555 1_555
C13 N2 1_555 1_555
Ag4 Ag2 1_555 1_555
Ag5 Ag2 1_555 1_555
Ag8 Ag3 1_555 1_555
O7 Ag3 1_555 1_555
O9 Ag2 1_555 1_555
O1 Ag4 1_555 1_555
C2 C5 1_555 1_555
C3 C4_2 1_555 1_555
C8 C9 1_555 1_555
C10 C13 1_555 1_555
C11 C12 1_555 1_555
C12 C13 1_555 1_555
Ag4 N1_2 1_555 1_555
N1_2 C8_2 1_555 1_555
C7_2 H6_2 1_555 1_555
H7_2 C7_2 1_555 1_555
H8_2 C7_2 1_555 1_555
C8_2 C7_2 1_555 1_555
C11_2 H12_2 1_555 1_555
H13_2 C11_2 1_555 1_555
H14_2 C11_2 1_555 1_555
C12_2 N1_2 1_555 1_555
Ag6 Ag4 1_555 1_555
O8 Ag4 1_555 1_555
C8_2 C9_2 1_555 1_555
C11_2 C12_2 1_555 1_555
C12_2 C13_2 1_555 1_555
Ag7 N2_2 1_555 1_555
N2_2 C9_3 1_555 1_555
N3_3 O3_2 1_555 1_555
O1_2 C5_2 1_555 1_555
O2_2 Ag7 1_555 1_555
C1_3 H1_3 1_555 1_555
C2_2 C1_3 1_555 1_555
C3_2 C2_2 1_555 1_555
H2_2 C3_2 1_555 1_555
C4_3 N3_3 1_555 1_555
C5_2 O2_2 1_555 1_555
C6_2 H3_2 1_555 1_555
H4_2 C6_2 1_555 1_555
H5_2 C6_2 1_555 1_555
C9_3 C6_2 1_555 1_555
C10_2 H9_2 1_555 1_555
H10_2 C10_2 1_555 1_555
H11_2 C10_2 1_555 1_555
C13_3 N2_2 1_555 1_555
O8 C16_2 1_555 1_555
O5_2 C16_2 1_555 1_555
O6_2 N3_3 1_555 1_555
C14_2 C1_3 1_555 1_555
C15_2 C4_3 1_555 1_555
H15_2 C15_2 1_555 1_555
C16_2 C14_2 1_555 1_555
Ag4_2 Ag7 1_555 1_555
Ag6 O5_2 1_555 1_555
O1_2 Ag4_2 1_555 1_555
C2_2 C5_2 1_555 1_555
C3_2 C4_3 1_555 1_555
C10_2 C13_3 1_555 1_555
C14_2 C15_2 1_555 1_555
Ag4_2 N1_3 1_555 1_555
N1_3 C8_3 1_555 1_555
C7_3 H6_3 1_555 1_555
H7_3 C7_3 1_555 1_555
H8_3 C7_3 1_555 1_555
C8_3 C7_3 1_555 1_555
C11_3 H12_3 1_555 1_555
H13_3 C11_3 1_555 1_555
H14_3 C11_3 1_555 1_555
C12_3 N1_3 1_555 1_555
Ag6_2 Ag4_2 1_555 1_555
O8_2 Ag4_2 1_555 1_555
C8_3 C9_4 1_555 1_555
C11_3 C12_3 1_555 1_555
C12_3 C13_4 1_555 1_555
Ag6 N2_3 1_555 1_555
N2_3 C9_5 1_555 1_555
N3_4 O3_3 1_555 1_555
O1_3 C5_3 1_555 1_555
O2_3 Ag6 1_555 1_555
C1_4 H1_4 1_555 1_555
C2_3 C1_4 1_555 1_555
C3_3 C2_3 1_555 1_555
H2_3 C3_3 1_555 1_555
C4_4 N3_4 1_555 1_555
C5_3 O2_3 1_555 1_555
C6_3 H3_3 1_555 1_555
H4_3 C6_3 1_555 1_555
H5_3 C6_3 1_555 1_555
C9_5 C6_3 1_555 1_555
C10_3 H9_3 1_555 1_555
H10_3 C10_3 1_555 1_555
H11_3 C10_3 1_555 1_555
C13_5 N2_3 1_555 1_555
Ag4_3 Ag6 1_555 1_555
O1_3 Ag4_3 1_555 1_555
C2_3 C5_3 1_555 1_555
C3_3 C4_4 1_555 1_555
C10_3 C13_5 1_555 1_555
C1_5 H1_5 1_555 1_555
C4_5 N3_5 1_555 1_555
O8_2 C16_3 1_555 1_555
O5_3 C16_3 1_555 1_555
O6_3 N3_5 1_555 1_555
C14_3 C1_5 1_555 1_555
C15_3 C4_5 1_555 1_555
H15_3 C15_3 1_555 1_555
C16_3 C14_3 1_555 1_555
Ag6_2 O5_3 1_555 1_555
C14_3 C15_3 1_555 1_555
Ag4_3 N1_4 1_555 1_555
Ag6_2 N2_4 1_555 1_555
N1_4 C8_4 1_555 1_555
N2_4 C9_6 1_555 1_555
N3_6 O3_4 1_555 1_555
O2_4 Ag6_2 1_555 1_555
C1_6 H1_6 1_555 1_555
C2_4 C1_6 1_555 1_555
C3_4 C2_4 1_555 1_555
H2_4 C3_4 1_555 1_555
C4_6 N3_6 1_555 1_555
C5_4 O2_4 1_555 1_555
C6_4 H3_4 1_555 1_555
H4_4 C6_4 1_555 1_555
C7_4 H6_4 1_555 1_555
H8_4 C7_4 1_555 1_555
C8_4 C7_4 1_555 1_555
C9_6 C6_4 1_555 1_555
C10_4 H9_4 1_555 1_555
H10_4 C10_4 1_555 1_555
H11_4 C10_4 1_555 1_555
C11_4 H12_4 1_555 1_555
H13_4 C11_4 1_555 1_555
H14_4 C11_4 1_555 1_555
C12_4 N1_4 1_555 1_555
C13_6 N2_4 1_555 1_555
O8_3 Ag4_3 1_555 1_555
C2_4 C5_4 1_555 1_555
C3_4 C4_6 1_555 1_555
C8_4 C9_6 1_555 1_555
C10_4 C13_6 1_555 1_555
C11_4 C12_4 1_555 1_555
C12_4 C13_6 1_555 1_555
C1_7 H1_7 1_555 1_555
C4_7 N3_7 1_555 1_555
O1_4 Ag4_4 1_555 1_555
C1_8 H1_8 1_555 1_555
C4_8 N3_8 1_555 1_555
C1_9 H1_9 1_555 1_555
C4_9 N3_9 1_555 1_555
O5_4 C16_4 1_555 1_555
O6_4 N3_9 1_555 1_555
C14_4 C1_9 1_555 1_555
C15_4 C4_9 1_555 1_555
H15_4 C15_4 1_555 1_555
C16_4 C14_4 1_555 1_555
Ag6_3 O5_4 1_555 1_555
C14_4 C15_4 1_555 1_555
Ag6_3 N2_5 1_555 1_555
N2_5 C9_7 1_555 1_555
N3_10 O3_5 1_555 1_555
O1_5 C5_5 1_555 1_555
O2_5 Ag6_3 1_555 1_555
C1_10 H1_10 1_555 1_555
C2_5 C1_10 1_555 1_555
C3_5 C2_5 1_555 1_555
H2_5 C3_5 1_555 1_555
C4_10 N3_10 1_555 1_555
C5_5 O2_5 1_555 1_555
C6_5 H3_5 1_555 1_555
H4_5 C6_5 1_555 1_555
H5_5 C6_5 1_555 1_555
C9_7 C6_5 1_555 1_555
C10_5 H9_5 1_555 1_555
H10_5 C10_5 1_555 1_555
C13_7 N2_5 1_555 1_555
O4_2 C16_5 1_555 1_555
O5_5 C16_5 1_555 1_555
O6_5 N3_10 1_555 1_555
C14_5 C1_10 1_555 1_555
C15_5 C4_10 1_555 1_555
H15_5 C15_5 1_555 1_555
C16_5 C14_5 1_555 1_555
Ag4_4 O4_2 1_555 1_555
Ag5 Ag6_3 1_555 1_555
Ag8 O5_5 1_555 1_555
O1_5 Ag5 1_555 1_555
C2_5 C5_5 1_555 1_555
C3_5 C4_10 1_555 1_555
C10_5 C13_7 1_555 1_555
C14_5 C15_5 1_555 1_555
Ag4_4 Ag8 1_555 1_555
Ag4_4 N1_5 1_555 1_555
N1_5 C8_5 1_555 1_555
C7_5 H6_5 1_555 1_555
H7_5 C7_5 1_555 1_555
H8_5 C7_5 1_555 1_555
C8_5 C7_5 1_555 1_555
C11_5 H12_5 1_555 1_555
H14_5 C11_5 1_555 1_555
C12_5 N1_5 1_555 1_555
C8_5 C9_8 1_555 1_555
C11_5 C12_5 1_555 1_555
C12_5 C13_8 1_555 1_555
C1_11 H1_11 1_555 1_555
C4_11 N3_11 1_555 1_555
O4_3 C16_6 1_555 1_555
O9 C16_6 1_555 1_555
O6_6 N3_11 1_555 1_555
C14_6 C1_11 1_555 1_555
C15_6 C4_11 1_555 1_555
H15_6 C15_6 1_555 1_555
C16_6 C14_6 1_555 1_555
Ag5 O4_3 1_555 1_555
C14_6 C15_6 1_555 1_555
Ag8 N2_6 1_555 1_555
N2_6 C9_9 1_555 1_555
N3_12 O3_6 1_555 1_555
O7 C5_6 1_555 1_555
O2_6 Ag8 1_555 1_555
C1_12 H1_12 1_555 1_555
C2_6 C1_12 1_555 1_555
C3_6 C2_6 1_555 1_555
H2_6 C3_6 1_555 1_555
C4_12 N3_12 1_555 1_555
C5_6 O2_6 1_555 1_555
C6_6 H3_6 1_555 1_555
H4_6 C6_6 1_555 1_555
H5_6 C6_6 1_555 1_555
C9_9 C6_6 1_555 1_555
C10_6 H9_6 1_555 1_555
H10_6 C10_6 1_555 1_555
H11_6 C10_6 1_555 1_555
C13_9 N2_6 1_555 1_555
C2_6 C5_6 1_555 1_555
C3_6 C4_12 1_555 1_555
C10_6 C13_9 1_555 1_555
Ag5 N1_6 1_555 1_555
N1_6 C8_6 1_555 1_555
C7_6 H6_6 1_555 1_555
H7_6 C7_6 1_555 1_555
H8_6 C7_6 1_555 1_555
C8_6 C7_6 1_555 1_555
C11_6 H12_6 1_555 1_555
H13_6 C11_6 1_555 1_555
H14_6 C11_6 1_555 1_555
C12_6 N1_6 1_555 1_555
C8_6 C9_10 1_555 1_555
C11_6 C12_6 1_555 1_555
C12_6 C13_10 1_555 1_555

#END
