
###############################################################################
#
# This file contains modified crystal structure data generated from the
# MOF subset of the Cambridge Structural Database (CSD) v543 
# hosted by the Cambridge Crystallographic Data Centre (CCDC).
#
# This work is licensed under the Creative Commons
# Attribution-NonCommercial-ShareAlike 4.0 International License.
# To view a copy of this license, visit
# http://creativecommons.org/licenses/by-nc-sa/4.0/
# or send a letter to
# Creative Commons, PO Box 1866, Mountain View, CA 94042, USA.
#
# CIF created using the CSD Python API on 29 September 2022
# The structure has been converted into the P1 space group
# The structure has a 3D framework
# The original CSD entry YADBOY is in the monoclinic crystal system
# The framework has been calculated to contain at least 10.0% void space
# The void calculation uses a probe of radius 1.32A, grid spacing 0.4
#
###############################################################################

data_YADBOY
_chemical_formula_moiety         '(C128 H80 N32 O32 Zn8)n'
_symmetry_cell_setting           triclinic
_symmetry_space_group_name_H-M   'P 1'
_symmetry_Int_Tables_number      1
_space_group_name_Hall           'P 1'
loop_
_symmetry_equiv_pos_site_id
_symmetry_equiv_pos_as_xyz
1 x,y,z
_cell_length_a                   31.543(6)
_cell_length_b                   15.821(3)
_cell_length_c                   10.1582(18)
_cell_angle_alpha                90
_cell_angle_beta                 91.144(4)
_cell_angle_gamma                90
_cell_volume                     5068.36
loop_
_atom_site_label
_atom_site_type_symbol
_atom_site_fract_x
_atom_site_fract_y
_atom_site_fract_z
C1 C 0.22384(10) 0.08942(17) 0.0672(3)
H1 H 0.217934 0.141931 0.103618
C2 C 0.36683(12) 0.0272(2) 0.0529(3)
H2 H 0.344191 0.004114 0.097772
C4 C 0.44015(12) 0.0228(2) 0.0035(4)
N4 N 0.20319(9) 0.02086(14) 0.0982(2)
O7 O 0.81049(8) 0.38335(12) 0.20240(19)
O8 O 0.80632(6) 0.26501(11) 0.31683(16)
C24 C 0.74749(10) 0.00416(16) 0.0489(3)
H17 H 0.730399 0.032812 0.107605
C29 C 0.80544(9) 0.25470(16) 0.0851(2)
C30 C 0.79657(9) 0.16872(15) 0.0881(3)
H20 H 0.794654 0.140656 0.168222
C32 C 0.80797(9) 0.30594(17) 0.2087(3)
Zn6 Zn 0.80411(2) 0.34255(2) 0.46640(3)
O9 O 0.30173(7) 0.24022(11) 0.11295(17)
Zn1 Zn 0.30411(2) 0.15745(2) 0.96640(3)
N1 N 0.36021(8) 0.09566(15) 0.9788(2)
N2 N 0.25459(8) 0.07775(13) 0.9774(2)
C5 C 0.43298(12) 0.0936(3) 0.9248(4)
H4 H 0.455180 0.117710 0.878999
C6 C 0.39360(11) 0.1274(2) 0.9152(4)
H5 H 0.389469 0.174717 0.862189
C18 C 0.59396(13) 0.0103(2) 0.9350(4)
H12 H 0.590742 0.058839 0.884077
C22 C 0.51784(12) 0.0148(3) 0.9792(5)
H15 H 0.516509 0.065643 0.933372
O5 O 0.80173(7) 0.25978(11) 0.61295(17)
O6 O 0.80430(8) 0.37820(13) 0.72931(19)
N7 N 0.77801(8) 0.03905(13) 0.9777(2)
C25 C 0.79066(9) 0.12555(17) 0.9722(2)
C26 C 0.79423(9) 0.16476(15) 0.8510(3)
H18 H 0.790492 0.134250 0.773342
C27 C 0.80348(9) 0.25016(16) 0.8477(3)
C28 C 0.80931(9) 0.29378(17) 0.9655(2)
H19 H 0.816013 0.350992 0.963060
C31 C 0.80352(9) 0.30040(17) 0.7219(3)
O11 O 0.30632(6) 0.23499(11) 0.81683(16)
O1 O 0.19827(7) 0.74022(11) 0.38705(17)
O2 O 0.19570(8) 0.62180(13) 0.27069(19)
N3 N 0.22199(8) 0.96095(13) 0.0223(2)
C3 C 0.40604(13) 0.9897(2) 0.0650(4)
H3 H 0.409258 0.941161 0.115923
C7 C 0.48216(12) 0.9852(3) 0.0208(5)
H6 H 0.483491 0.934357 0.066628
C9 C 0.20934(9) 0.87445(17) 0.0278(2)
C10 C 0.20577(9) 0.83524(15) 0.1490(3)
H8 H 0.209508 0.865750 0.226658
C11 C 0.19652(9) 0.74984(16) 0.1523(3)
C12 C 0.19069(9) 0.70622(17) 0.0345(2)
H9 H 0.183987 0.649008 0.036940
C15 C 0.19648(9) 0.69960(17) 0.2781(3)
N5 N 0.63979(8) 0.90434(15) 0.0212(2)
C20 C 0.56702(12) 0.9064(3) 0.0752(4)
H13 H 0.544820 0.882290 0.121001
C21 C 0.60640(11) 0.8726(2) 0.0848(4)
H14 H 0.610531 0.825283 0.137811
Zn2 Zn 0.69589(2) 0.84255(2) 0.03360(3)
N6 N 0.74541(8) 0.92225(13) 0.0226(2)
Zn4 Zn 0.19589(2) 0.65745(2) 0.53360(3)
O12 O 0.69368(6) 0.76501(11) 0.18317(16)
O3 O 0.18951(8) 0.61665(12) 0.79760(19)
O4 O 0.19368(6) 0.73499(11) 0.68317(16)
C8 C 0.25251(10) 0.99584(16) 0.9511(3)
H7 H 0.269601 0.967188 0.892395
C13 C 0.19456(9) 0.74530(16) 0.9149(2)
C14 C 0.20343(9) 0.83128(15) 0.9119(3)
H10 H 0.205346 0.859344 0.831778
C16 C 0.19203(9) 0.69406(17) 0.7913(3)
C17 C 0.63317(12) 0.9728(2) 0.9471(3)
H11 H 0.655809 0.995886 0.902228
C19 C 0.55985(12) 0.9772(2) 0.9965(4)
C23 C 0.77616(10) 0.91058(17) 0.9328(3)
H16 H 0.782066 0.858069 0.896382
N8 N 0.79681(9) 0.97914(14) 0.9018(2)
O10 O 0.69827(7) 0.75978(11) 0.88705(17)
O2_2 O 0.30430(8) 0.12180(13) 0.22931(19)
O3_2 O 0.31049(8) 0.11665(12) 0.70240(19)
N1_2 N 0.13979(8) 0.59566(15) 0.5212(2)
N2_2 N 0.24541(8) 0.57775(13) 0.5226(2)
C1_2 C 0.27616(10) 0.58942(17) 0.4328(3)
H1_2 H 0.282066 0.641931 0.396382
N3_2 N 0.27801(8) 0.46095(13) 0.4777(2)
C2_2 C 0.13317(12) 0.5272(2) 0.4471(3)
H2_2 H 0.155809 0.504114 0.402228
C3_2 C 0.09396(13) 0.4897(2) 0.4350(4)
H3_2 H 0.090742 0.441161 0.384077
C4_2 C 0.05985(12) 0.5228(2) 0.4965(4)
C5_2 C 0.06702(12) 0.5936(3) 0.5752(4)
H4_2 H 0.044820 0.617710 0.621001
C6_2 C 0.10640(11) 0.6274(2) 0.5848(4)
H5_2 H 0.110531 0.674717 0.637811
C7_2 C 0.01784(12) 0.4852(3) 0.4792(5)
H6_2 H 0.016509 0.434357 0.433372
C8_2 C 0.24749(10) 0.49584(16) 0.5489(3)
H7_2 H 0.230399 0.467188 0.607605
N4_2 N 0.29681(9) 0.52086(14) 0.4018(2)
C9_2 C 0.29066(9) 0.37445(17) 0.4722(2)
C10_2 C 0.29423(9) 0.33524(15) 0.3510(3)
H8_2 H 0.290492 0.365750 0.273342
C11_2 C 0.30348(9) 0.24984(16) 0.3477(3)
C12_2 C 0.30931(9) 0.20622(17) 0.4655(2)
H9_2 H 0.316013 0.149008 0.463060
C13_2 C 0.30544(9) 0.24530(16) 0.5851(2)
C14_2 C 0.29657(9) 0.33128(15) 0.5881(3)
H10_2 H 0.294654 0.359344 0.668222
C15_2 C 0.30352(9) 0.19960(17) 0.2219(3)
C16_2 C 0.30797(9) 0.19406(17) 0.7087(3)
N5_2 N 0.86021(8) 0.40434(15) 0.4788(2)
C17_2 C 0.86683(12) 0.4728(2) 0.5529(3)
H11_2 H 0.844191 0.495886 0.597772
C18_2 C 0.90604(13) 0.5103(2) 0.5650(4)
H12_2 H 0.909258 0.558839 0.615923
C19_2 C 0.94015(12) 0.4772(2) 0.5035(4)
C20_2 C 0.93298(12) 0.4064(3) 0.4248(4)
H13_2 H 0.955180 0.382290 0.378999
C21_2 C 0.89360(11) 0.3726(2) 0.4152(4)
H14_2 H 0.889469 0.325283 0.362189
C22_2 C 0.98216(12) 0.5148(3) 0.5208(5)
H15_2 H 0.983491 0.565643 0.566628
O6_2 O 0.69570(8) 0.87820(13) 0.77069(19)
O7_2 O 0.68951(8) 0.88335(12) 0.29760(19)
N6_2 N 0.75459(8) 0.42225(13) 0.4774(2)
C23_2 C 0.72384(10) 0.41058(17) 0.5672(3)
H16_2 H 0.717934 0.358069 0.603618
N7_2 N 0.72199(8) 0.53905(13) 0.5223(2)
C24_2 C 0.75251(10) 0.50416(16) 0.4511(3)
H17_2 H 0.769601 0.532812 0.392395
N8_2 N 0.70319(9) 0.47914(14) 0.5982(2)
C25_2 C 0.70934(9) 0.62555(17) 0.5278(2)
C26_2 C 0.70577(9) 0.66476(15) 0.6490(3)
H18_2 H 0.709508 0.634250 0.726658
C27_2 C 0.69652(9) 0.75016(16) 0.6523(3)
C28_2 C 0.69069(9) 0.79378(17) 0.5345(2)
H19_2 H 0.683987 0.850992 0.536940
C29_2 C 0.69456(9) 0.75470(16) 0.4149(2)
C30_2 C 0.70343(9) 0.66872(15) 0.4119(3)
H20_2 H 0.705346 0.640656 0.331778
C31_2 C 0.69648(9) 0.80040(17) 0.7781(3)
C32_2 C 0.69203(9) 0.80594(17) 0.2913(3)
Zn5 Zn 0.19589(2) 0.34255(2) 0.03360(3)
Zn1_2 Zn 0.69589(2) 0.15745(2) 0.53360(3)
N1_3 N 0.63979(8) 0.09566(15) 0.5212(2)
N2_3 N 0.74541(8) 0.07775(13) 0.5226(2)
C1_3 C 0.77616(10) 0.08942(17) 0.4328(3)
H1_3 H 0.782066 0.141931 0.396382
C2_3 C 0.63317(12) 0.0272(2) 0.4471(3)
H2_3 H 0.655809 0.004114 0.402228
C4_3 C 0.55985(12) 0.0228(2) 0.4965(4)
C5_3 C 0.56702(12) 0.0936(3) 0.5752(4)
H4_3 H 0.544820 0.117710 0.621001
C6_3 C 0.60640(11) 0.1274(2) 0.5848(4)
H5_3 H 0.610531 0.174717 0.637811
N4_3 N 0.79681(9) 0.02086(14) 0.4018(2)
C18_3 C 0.40604(13) 0.0103(2) 0.5650(4)
H12_3 H 0.409258 0.058839 0.615923
C22_3 C 0.48216(12) 0.0148(3) 0.5208(5)
H15_3 H 0.483491 0.065643 0.566628
O5_2 O 0.19827(7) 0.25978(11) 0.88705(17)
O6_3 O 0.19570(8) 0.37820(13) 0.77069(19)
O7_3 O 0.18951(8) 0.38335(12) 0.29760(19)
O8_2 O 0.19368(6) 0.26501(11) 0.18317(16)
N7_3 N 0.22199(8) 0.03905(13) 0.5223(2)
C24_3 C 0.25251(10) 0.00416(16) 0.4511(3)
H17_3 H 0.269601 0.032812 0.392395
C25_3 C 0.20934(9) 0.12555(17) 0.5278(2)
C26_3 C 0.20577(9) 0.16476(15) 0.6490(3)
H18_3 H 0.209508 0.134250 0.726658
C27_3 C 0.19652(9) 0.25016(16) 0.6523(3)
C28_3 C 0.19069(9) 0.29378(17) 0.5345(2)
H19_3 H 0.183987 0.350992 0.536940
C29_3 C 0.19456(9) 0.25470(16) 0.4149(2)
C30_3 C 0.20343(9) 0.16872(15) 0.4119(3)
H20_3 H 0.205346 0.140656 0.331778
C31_3 C 0.19648(9) 0.30040(17) 0.7781(3)
C32_3 C 0.19203(9) 0.30594(17) 0.2913(3)
O9_2 O 0.69827(7) 0.24022(11) 0.38705(17)
O11_2 O 0.69368(6) 0.23499(11) 0.68317(16)
O1_2 O 0.80173(7) 0.74022(11) 0.11295(17)
O2_3 O 0.80430(8) 0.62180(13) 0.22931(19)
O3_3 O 0.81049(8) 0.61665(12) 0.70240(19)
O4_2 O 0.80632(6) 0.73499(11) 0.81683(16)
N3_3 N 0.77801(8) 0.96095(13) 0.4777(2)
C3_3 C 0.59396(13) 0.9897(2) 0.4350(4)
H3_3 H 0.590742 0.941161 0.384077
C7_3 C 0.51784(12) 0.9852(3) 0.4792(5)
H6_3 H 0.516509 0.934357 0.433372
C8_3 C 0.74749(10) 0.99584(16) 0.5489(3)
H7_3 H 0.730399 0.967188 0.607605
C9_3 C 0.79066(9) 0.87445(17) 0.4722(2)
C10_3 C 0.79423(9) 0.83524(15) 0.3510(3)
H8_3 H 0.790492 0.865750 0.273342
C11_3 C 0.80348(9) 0.74984(16) 0.3477(3)
C12_3 C 0.80931(9) 0.70622(17) 0.4655(2)
H9_3 H 0.816013 0.649008 0.463060
C13_3 C 0.80544(9) 0.74530(16) 0.5851(2)
C14_3 C 0.79657(9) 0.83128(15) 0.5881(3)
H10_3 H 0.794654 0.859344 0.668222
C15_3 C 0.80352(9) 0.69960(17) 0.2219(3)
C16_3 C 0.80797(9) 0.69406(17) 0.7087(3)
N5_3 N 0.36021(8) 0.90434(15) 0.4788(2)
C17_3 C 0.36683(12) 0.9728(2) 0.5529(3)
H11_3 H 0.344191 0.995886 0.597772
C19_3 C 0.44015(12) 0.9772(2) 0.5035(4)
C20_3 C 0.43298(12) 0.9064(3) 0.4248(4)
H13_3 H 0.455180 0.882290 0.378999
C21_3 C 0.39360(11) 0.8726(2) 0.4152(4)
H14_3 H 0.389469 0.825283 0.362189
Zn2_2 Zn 0.30411(2) 0.84255(2) 0.46640(3)
N6_3 N 0.25459(8) 0.92225(13) 0.4774(2)
C23_3 C 0.22384(10) 0.91058(17) 0.5672(3)
H16_3 H 0.217934 0.858069 0.603618
N8_3 N 0.20319(9) 0.97914(14) 0.5982(2)
Zn3 Zn 0.80411(2) 0.65745(2) 0.96640(3)
O10_2 O 0.30173(7) 0.75978(11) 0.61295(17)
O12_2 O 0.30632(6) 0.76501(11) 0.31683(16)
N5_4 N 0.13979(8) 0.40434(15) 0.0212(2)
C20_4 C 0.06702(12) 0.4064(3) 0.0752(4)
H13_4 H 0.044820 0.382290 0.121001
C21_4 C 0.10640(11) 0.3726(2) 0.0848(4)
H14_4 H 0.110531 0.325283 0.137811
O7_4 O 0.31049(8) 0.88335(12) 0.20240(19)
N6_4 N 0.24541(8) 0.42225(13) 0.0226(2)
C24_4 C 0.24749(10) 0.50416(16) 0.0489(3)
H17_4 H 0.230399 0.532812 0.107605
C29_4 C 0.30544(9) 0.75470(16) 0.0851(2)
C30_4 C 0.29657(9) 0.66872(15) 0.0881(3)
H20_4 H 0.294654 0.640656 0.168222
C32_4 C 0.30797(9) 0.80594(17) 0.2087(3)
C17_4 C 0.13317(12) 0.4728(2) 0.9471(3)
H11_4 H 0.155809 0.495886 0.902228
C18_4 C 0.09396(13) 0.5103(2) 0.9350(4)
H12_4 H 0.090742 0.558839 0.884077
C19_4 C 0.05985(12) 0.4772(2) 0.9965(4)
C22_4 C 0.01784(12) 0.5148(3) 0.9792(5)
H15_4 H 0.016509 0.565643 0.933372
O6_4 O 0.30430(8) 0.87820(13) 0.72931(19)
C23_4 C 0.27616(10) 0.41058(17) 0.9328(3)
H16_4 H 0.282066 0.358069 0.896382
N7_4 N 0.27801(8) 0.53905(13) 0.9777(2)
N8_4 N 0.29681(9) 0.47914(14) 0.9018(2)
C25_4 C 0.29066(9) 0.62555(17) 0.9722(2)
C26_4 C 0.29423(9) 0.66476(15) 0.8510(3)
H18_4 H 0.290492 0.634250 0.773342
C27_4 C 0.30348(9) 0.75016(16) 0.8477(3)
C28_4 C 0.30931(9) 0.79378(17) 0.9655(2)
H19_4 H 0.316013 0.850992 0.963060
C31_4 C 0.30352(9) 0.80040(17) 0.7219(3)
O2_4 O 0.69570(8) 0.12180(13) 0.27069(19)
C1_4 C 0.72384(10) 0.58942(17) 0.0672(3)
H1_4 H 0.717934 0.641931 0.103618
N3_4 N 0.72199(8) 0.46095(13) 0.0223(2)
C2_4 C 0.86683(12) 0.5272(2) 0.0529(3)
H2_4 H 0.844191 0.504114 0.097772
C3_4 C 0.90604(13) 0.4897(2) 0.0650(4)
H3_4 H 0.909258 0.441161 0.115923
C4_4 C 0.94015(12) 0.5228(2) 0.0035(4)
C7_4 C 0.98216(12) 0.4852(3) 0.0208(5)
H6_4 H 0.983491 0.434357 0.066628
N4_4 N 0.70319(9) 0.52086(14) 0.0982(2)
C9_4 C 0.70934(9) 0.37445(17) 0.0278(2)
C10_4 C 0.70577(9) 0.33524(15) 0.1490(3)
H8_4 H 0.709508 0.365750 0.226658
C11_4 C 0.69652(9) 0.24984(16) 0.1523(3)
C12_4 C 0.69069(9) 0.20622(17) 0.0345(2)
H9_4 H 0.683987 0.149008 0.036940
C15_4 C 0.69648(9) 0.19960(17) 0.2781(3)
O3_4 O 0.68951(8) 0.11665(12) 0.79760(19)
N1_4 N 0.86021(8) 0.59566(15) 0.9788(2)
N2_4 N 0.75459(8) 0.57775(13) 0.9774(2)
C5_4 C 0.93298(12) 0.5936(3) 0.9248(4)
H4_4 H 0.955180 0.617710 0.878999
C6_4 C 0.89360(11) 0.6274(2) 0.9152(4)
H5_4 H 0.889469 0.674717 0.862189
C8_4 C 0.75251(10) 0.49584(16) 0.9511(3)
H7_4 H 0.769601 0.467188 0.892395
C13_4 C 0.69456(9) 0.24530(16) 0.9149(2)
C14_4 C 0.70343(9) 0.33128(15) 0.9119(3)
H10_4 H 0.705346 0.359344 0.831778
C16_4 C 0.69203(9) 0.19406(17) 0.7913(3)
loop_
_geom_bond_atom_site_label_1
_geom_bond_atom_site_label_2
_geom_bond_site_symmetry_1
_geom_bond_site_symmetry_2
H1 C1 1_555 1_555
C2 H2 1_555 1_555
N4 C1 1_555 1_555
O7 C32 1_555 1_555
O8 C32 1_555 1_555
H17 C24 1_555 1_555
H20 C30 1_555 1_555
C32 C29 1_555 1_555
Zn6 O8 1_555 1_555
C29 C30 1_555 1_555
Zn1 N1 1_555 1_555
N2 Zn1 1_555 1_555
H4 C5 1_555 1_555
C6 N1 1_555 1_555
H5 C6 1_555 1_555
H12 C18 1_555 1_555
H15 C22 1_555 1_555
O5 C31 1_555 1_555
O6 C31 1_555 1_555
C25 N7 1_555 1_555
C26 C25 1_555 1_555
H18 C26 1_555 1_555
C27 C26 1_555 1_555
C28 C27 1_555 1_555
H19 C28 1_555 1_555
C31 C27 1_555 1_555
Zn6 O5 1_555 1_555
O11 Zn1 1_555 1_555
C5 C6 1_555 1_555
O1 C15 1_555 1_555
O2 C15 1_555 1_555
H3 C3 1_555 1_555
H6 C7 1_555 1_555
C9 N3 1_555 1_555
C10 C9 1_555 1_555
H8 C10 1_555 1_555
C11 C10 1_555 1_555
C12 C11 1_555 1_555
H9 C12 1_555 1_555
C15 C11 1_555 1_555
H13 C20 1_555 1_555
C21 N5 1_555 1_555
H14 C21 1_555 1_555
Zn2 N5 1_555 1_555
N6 Zn2 1_555 1_555
Zn4 O1 1_555 1_555
O12 Zn2 1_555 1_555
C20 C21 1_555 1_555
O3 C16 1_555 1_555
O4 C16 1_555 1_555
H7 C8 1_555 1_555
H10 C14 1_555 1_555
C16 C13 1_555 1_555
C17 H11 1_555 1_555
H16 C23 1_555 1_555
N8 C23 1_555 1_555
Zn4 O4 1_555 1_555
C13 C14 1_555 1_555
Zn4 N1_2 1_555 1_555
O9 C15_2 1_555 1_555
O2_2 C15_2 1_555 1_555
O3_2 C16_2 1_555 1_555
O11 C16_2 1_555 1_555
N1_2 C2_2 1_555 1_555
N2_2 Zn4 1_555 1_555
C1_2 N2_2 1_555 1_555
H1_2 C1_2 1_555 1_555
N3_2 C8_2 1_555 1_555
C2_2 H2_2 1_555 1_555
C3_2 C2_2 1_555 1_555
H3_2 C3_2 1_555 1_555
C4_2 C3_2 1_555 1_555
C5_2 C4_2 1_555 1_555
H4_2 C5_2 1_555 1_555
C6_2 N1_2 1_555 1_555
H5_2 C6_2 1_555 1_555
C7_2 C4_2 1_555 1_555
H6_2 C7_2 1_555 1_555
C8_2 N2_2 1_555 1_555
H7_2 C8_2 1_555 1_555
N4_2 C1_2 1_555 1_555
C9_2 N3_2 1_555 1_555
C10_2 C9_2 1_555 1_555
H8_2 C10_2 1_555 1_555
C11_2 C10_2 1_555 1_555
C12_2 C11_2 1_555 1_555
H9_2 C12_2 1_555 1_555
C13_2 C12_2 1_555 1_555
C14_2 C9_2 1_555 1_555
H10_2 C14_2 1_555 1_555
C15_2 C11_2 1_555 1_555
C16_2 C13_2 1_555 1_555
N3_2 N4_2 1_555 1_555
C5_2 C6_2 1_555 1_555
C13_2 C14_2 1_555 1_555
N5_2 C17_2 1_555 1_555
C17_2 H11_2 1_555 1_555
C18_2 C17_2 1_555 1_555
H12_2 C18_2 1_555 1_555
C19_2 C18_2 1_555 1_555
C20_2 C19_2 1_555 1_555
H13_2 C20_2 1_555 1_555
C21_2 N5_2 1_555 1_555
H14_2 C21_2 1_555 1_555
H15_2 C22_2 1_555 1_555
Zn6 N5_2 1_555 1_555
O10 C31_2 1_555 1_555
O6_2 C31_2 1_555 1_555
O7_2 C32_2 1_555 1_555
O12 C32_2 1_555 1_555
N6_2 Zn6 1_555 1_555
C23_2 N6_2 1_555 1_555
H16_2 C23_2 1_555 1_555
N7_2 C24_2 1_555 1_555
C24_2 N6_2 1_555 1_555
H17_2 C24_2 1_555 1_555
N8_2 C23_2 1_555 1_555
C25_2 N7_2 1_555 1_555
C26_2 C25_2 1_555 1_555
H18_2 C26_2 1_555 1_555
C27_2 C26_2 1_555 1_555
C28_2 C27_2 1_555 1_555
H19_2 C28_2 1_555 1_555
C29_2 C28_2 1_555 1_555
C30_2 C25_2 1_555 1_555
H20_2 C30_2 1_555 1_555
C31_2 C27_2 1_555 1_555
C32_2 C29_2 1_555 1_555
C19_2 C22_2 1_555 1_555
C20_2 C21_2 1_555 1_555
N7_2 N8_2 1_555 1_555
C29_2 C30_2 1_555 1_555
Zn1_2 N1_3 1_555 1_555
N1_3 C2_3 1_555 1_555
N2_3 Zn1_2 1_555 1_555
C1_3 N2_3 1_555 1_555
H1_3 C1_3 1_555 1_555
C2_3 H2_3 1_555 1_555
C5_3 C4_3 1_555 1_555
H4_3 C5_3 1_555 1_555
C6_3 N1_3 1_555 1_555
H5_3 C6_3 1_555 1_555
N4_3 C1_3 1_555 1_555
H12_3 C18_3 1_555 1_555
H15_3 C22_3 1_555 1_555
O5_2 C31_3 1_555 1_555
O6_3 C31_3 1_555 1_555
O7_3 C32_3 1_555 1_555
O8_2 C32_3 1_555 1_555
N7_3 C24_3 1_555 1_555
H17_3 C24_3 1_555 1_555
C25_3 N7_3 1_555 1_555
C26_3 C25_3 1_555 1_555
H18_3 C26_3 1_555 1_555
C27_3 C26_3 1_555 1_555
C28_3 C27_3 1_555 1_555
H19_3 C28_3 1_555 1_555
C29_3 C28_3 1_555 1_555
C30_3 C25_3 1_555 1_555
H20_3 C30_3 1_555 1_555
C31_3 C27_3 1_555 1_555
C32_3 C29_3 1_555 1_555
Zn5 O8_2 1_555 1_555
O9_2 Zn1_2 1_555 1_555
O11_2 Zn1_2 1_555 1_555
C5_3 C6_3 1_555 1_555
C29_3 C30_3 1_555 1_555
O1_2 C15_3 1_555 1_555
O2_3 C15_3 1_555 1_555
O3_3 C16_3 1_555 1_555
O4_2 C16_3 1_555 1_555
N3_3 C8_3 1_555 1_555
H3_3 C3_3 1_555 1_555
H6_3 C7_3 1_555 1_555
H7_3 C8_3 1_555 1_555
C9_3 N3_3 1_555 1_555
C10_3 C9_3 1_555 1_555
H8_3 C10_3 1_555 1_555
C11_3 C10_3 1_555 1_555
C12_3 C11_3 1_555 1_555
H9_3 C12_3 1_555 1_555
C13_3 C12_3 1_555 1_555
C14_3 C9_3 1_555 1_555
H10_3 C14_3 1_555 1_555
C15_3 C11_3 1_555 1_555
C16_3 C13_3 1_555 1_555
N5_3 C17_3 1_555 1_555
C17_3 H11_3 1_555 1_555
C20_3 C19_3 1_555 1_555
H13_3 C20_3 1_555 1_555
C21_3 N5_3 1_555 1_555
H14_3 C21_3 1_555 1_555
Zn2_2 N5_3 1_555 1_555
N6_3 Zn2_2 1_555 1_555
C23_3 N6_3 1_555 1_555
H16_3 C23_3 1_555 1_555
N8_3 C23_3 1_555 1_555
Zn3 O4_2 1_555 1_555
O10_2 Zn2_2 1_555 1_555
O12_2 Zn2_2 1_555 1_555
C13_3 C14_3 1_555 1_555
C20_3 C21_3 1_555 1_555
H13_4 C20_4 1_555 1_555
C21_4 N5_4 1_555 1_555
H14_4 C21_4 1_555 1_555
Zn5 N5_4 1_555 1_555
O7_4 C32_4 1_555 1_555
O12_2 C32_4 1_555 1_555
N6_4 Zn5 1_555 1_555
C24_4 N6_4 1_555 1_555
H17_4 C24_4 1_555 1_555
H20_4 C30_4 1_555 1_555
C32_4 C29_4 1_555 1_555
C20_4 C21_4 1_555 1_555
C29_4 C30_4 1_555 1_555
C17_4 H11_4 1_555 1_555
C18_4 C17_4 1_555 1_555
H12_4 C18_4 1_555 1_555
C19_4 C18_4 1_555 1_555
H15_4 C22_4 1_555 1_555
O10_2 C31_4 1_555 1_555
O6_4 C31_4 1_555 1_555
H16_4 C23_4 1_555 1_555
N8_4 C23_4 1_555 1_555
C25_4 N7_4 1_555 1_555
C26_4 C25_4 1_555 1_555
H18_4 C26_4 1_555 1_555
C27_4 C26_4 1_555 1_555
C28_4 C27_4 1_555 1_555
H19_4 C28_4 1_555 1_555
C31_4 C27_4 1_555 1_555
C19_4 C22_4 1_555 1_555
N7_4 N8_4 1_555 1_555
O9_2 C15_4 1_555 1_555
O2_4 C15_4 1_555 1_555
H1_4 C1_4 1_555 1_555
C2_4 H2_4 1_555 1_555
C3_4 C2_4 1_555 1_555
H3_4 C3_4 1_555 1_555
C4_4 C3_4 1_555 1_555
C7_4 C4_4 1_555 1_555
H6_4 C7_4 1_555 1_555
N4_4 C1_4 1_555 1_555
C9_4 N3_4 1_555 1_555
C10_4 C9_4 1_555 1_555
H8_4 C10_4 1_555 1_555
C11_4 C10_4 1_555 1_555
C12_4 C11_4 1_555 1_555
H9_4 C12_4 1_555 1_555
C15_4 C11_4 1_555 1_555
N3_4 N4_4 1_555 1_555
Zn3 N1_4 1_555 1_555
O3_4 C16_4 1_555 1_555
O11_2 C16_4 1_555 1_555
N2_4 Zn3 1_555 1_555
H4_4 C5_4 1_555 1_555
C6_4 N1_4 1_555 1_555
H5_4 C6_4 1_555 1_555
C8_4 N2_4 1_555 1_555
H7_4 C8_4 1_555 1_555
H10_4 C14_4 1_555 1_555
C16_4 C13_4 1_555 1_555
C5_4 C6_4 1_555 1_555
C13_4 C14_4 1_555 1_555

#END
