
###############################################################################
#
# This file contains modified crystal structure data generated from the
# MOF subset of the Cambridge Structural Database (CSD) v543 
# hosted by the Cambridge Crystallographic Data Centre (CCDC).
#
# This work is licensed under the Creative Commons
# Attribution-NonCommercial-ShareAlike 4.0 International License.
# To view a copy of this license, visit
# http://creativecommons.org/licenses/by-nc-sa/4.0/
# or send a letter to
# Creative Commons, PO Box 1866, Mountain View, CA 94042, USA.
#
# CIF created using the CSD Python API on 29 September 2022
# The structure has been converted into the P1 space group
# The structure has a 3D framework
# The original CSD entry YADCOZ is in the monoclinic crystal system
# The original CSD entry YADCOZ is in a Sohncke space group
# The framework has been calculated to contain at least 10.0% void space
# The void calculation uses a probe of radius 1.32A, grid spacing 0.4
#
###############################################################################

data_YADCOZ
_chemical_formula_moiety         '(C112 H72 N8 O15 Zn6)n'
_symmetry_cell_setting           triclinic
_symmetry_space_group_name_H-M   'P 1'
_symmetry_Int_Tables_number      1
_space_group_name_Hall           'P 1'
loop_
_symmetry_equiv_pos_site_id
_symmetry_equiv_pos_as_xyz
1 x,y,z
_cell_length_a                   25.0143(10)
_cell_length_b                   5.9731(2)
_cell_length_c                   19.6658(7)
_cell_angle_alpha                90
_cell_angle_beta                 118.502(2)
_cell_angle_gamma                90
_cell_volume                     2582.2
loop_
_atom_site_label
_atom_site_type_symbol
_atom_site_fract_x
_atom_site_fract_y
_atom_site_fract_z
Zn3 Zn 0.000000 0.85502(8) -0.000000
C1 C 0.1235(2) 0.3032(7) 0.0907(3)
H1 H 0.131069 0.175961 0.069370
C2 C 0.15417(19) 0.3357(7) 0.1707(2)
N2 N 0.06981(16) 0.6482(6) 0.07119(17)
C3 C 0.1429(2) 0.5323(7) 0.1984(2)
H2 H 0.163744 0.563663 0.251066
C4 C 0.10063(19) 0.6833(7) 0.1477(2)
H3 H 0.093347 0.814219 0.167566
C5 C 0.19833(19) 0.1639(8) 0.2219(2)
C6 C 0.2406(2) 0.0829(8) 0.2028(3)
H4 H 0.240499 0.134637 0.158145
C12 C 0.1465(3) 0.0294(13) 0.3679(4)
H8 H 0.114242 0.063563 0.377183
C13 C 0.1499(2) 0.1284(9) 0.3076(3)
H9 H 0.120248 0.231958 0.277369
C14 C 0.1971(2) 0.0792(7) 0.2891(2)
C28 C 0.0819(2) 0.4598(8) 0.0433(3)
Zn3_2 Zn 0.000000 0.85502(8) 1.000000
H18 H 0.061442 0.434646 0.990167
O7 O 0.0639(3) 0.8213(8) 0.9080(3)
H20 H 0.065099 0.925406 0.780828
C36 C 0.0356(2) 0.9937(8) 0.8930(2)
Zn5 Zn -0.000000 0.65982(8) 0.500000
N3 N 0.07304(15) 0.8705(7) 0.55541(18)
C52 C 0.1588(2) 0.9878(8) 0.6724(3)
H32 H 0.185385 0.959709 0.724356
C53 C 0.1129(2) 0.8386(8) 0.6303(2)
H33 H 0.109434 0.710332 0.654680
O1 O 0.0314(3) 0.7180(7) 0.3825(2)
C20 C 0.0076(2) 0.5361(7) 0.3729(2)
H16 H 0.011171 0.399320 0.149382
C26 C 0.0109(2) 0.4753(7) 0.2492(2)
H17 H 0.030140 0.613321 0.256710
O9 O 0.01080(17) 0.4538(5) 0.58196(17)
O8 O 0.00640(16) 0.0584(6) 0.92752(17)
C30 C 0.0067(2) 0.3983(6) 0.6980(2)
C31 C 0.0349(2) 0.1920(8) 0.7097(2)
H19 H 0.046555 0.139374 0.674272
C32 C 0.0458(3) 0.0633(8) 0.7734(3)
C33 C 0.0281(2) 0.1392(7) 0.8266(2)
C34 C 0.00025(19) 0.3460(8) 0.8150(2)
H18_2 H 0.938558 0.434646 0.009833
Zn3_3 Zn 1.000000 0.85502(8) -0.000000
O3 O 0.9361(3) 0.8213(8) 0.0920(3)
H15 H 0.934901 0.925406 0.219172
C27 C 0.9644(2) 0.9937(8) 0.1070(2)
C1_2 C 0.8765(2) 0.3032(7) 0.9093(3)
H1_2 H 0.868931 0.175961 0.930630
C2_2 C 0.84583(19) 0.3357(7) 0.8293(2)
N2_2 N 0.93019(16) 0.6482(6) 0.92881(17)
C3_2 C 0.8571(2) 0.5323(7) 0.8016(2)
H2_2 H 0.836256 0.563663 0.748934
C4_2 C 0.89937(19) 0.6833(7) 0.8523(2)
H3_2 H 0.906653 0.814219 0.832434
C5_2 C 0.80167(19) 0.1639(8) 0.7781(2)
C6_2 C 0.7594(2) 0.0829(8) 0.7972(3)
H4_2 H 0.759501 0.134637 0.841855
C12_2 C 0.8535(3) 0.0294(13) 0.6321(4)
H8_2 H 0.885758 0.063563 0.622817
C13_2 C 0.8501(2) 0.1284(9) 0.6924(3)
H9_2 H 0.879752 0.231958 0.722631
C14_2 C 0.8029(2) 0.0792(7) 0.7109(2)
C28_2 C 0.9181(2) 0.4598(8) 0.9567(3)
Zn3_4 Zn 1.000000 0.85502(8) 1.000000
N1 N 0.57304(15) 0.3705(7) 0.55541(18)
O1_2 O 0.5314(3) 0.2180(7) 0.3825(2)
Zn2 Zn 0.500000 0.15982(8) 0.500000
C7 C 0.7157(2) 0.9229(8) 0.7508(3)
H5 H 0.688166 0.868215 0.765916
C8 C 0.7133(2) 0.8474(8) 0.6838(2)
C9 C 0.7580(2) 0.9179(7) 0.6628(2)
C10 C 0.7628(2) 0.8223(9) 0.5996(3)
H6 H 0.733719 0.719307 0.567892
C11 C 0.8091(3) 0.8776(13) 0.5842(4)
H7 H 0.810951 0.814266 0.542144
C15 C 0.66553(18) 0.6799(7) 0.6377(2)
C16 C 0.6588(2) 0.4878(8) 0.6724(3)
H10 H 0.685385 0.459709 0.724356
C17 C 0.6129(2) 0.3386(8) 0.6303(2)
H11 H 0.609434 0.210332 0.654680
C18 C 0.5798(2) 0.5534(8) 0.5212(2)
H12 H 0.553001 0.575398 0.468922
C19 C 0.6243(2) 0.7109(7) 0.5592(2)
H13 H 0.627086 0.836551 0.533132
C20_2 C 0.5076(2) 0.0361(7) 0.3729(2)
H17_2 H 0.530140 0.113321 0.256710
N5 N 0.42696(15) 0.3705(7) 0.44459(18)
O5 O 0.4686(3) 0.2180(7) 0.6175(2)
C29 C 0.4924(2) 0.0361(7) 0.6271(2)
H22 H 0.469860 0.113321 0.743290
C7_2 C 0.2843(2) 0.9229(8) 0.2492(3)
H5_2 H 0.311834 0.868215 0.234084
C8_2 C 0.2867(2) 0.8474(8) 0.3162(2)
C9_2 C 0.2420(2) 0.9179(7) 0.3372(2)
C10_2 C 0.2372(2) 0.8223(9) 0.4004(3)
H6_2 H 0.266281 0.719307 0.432108
C11_2 C 0.1909(3) 0.8776(13) 0.4158(4)
H7_2 H 0.189049 0.814266 0.457856
C15_2 C 0.33447(18) 0.6799(7) 0.3623(2)
C16_2 C 0.3412(2) 0.4878(8) 0.3276(3)
H10_2 H 0.314615 0.459709 0.275644
C17_2 C 0.3871(2) 0.3386(8) 0.3697(2)
H11_2 H 0.390566 0.210332 0.345320
C18_2 C 0.4202(2) 0.5534(8) 0.4788(2)
H12_2 H 0.446999 0.575398 0.531078
C19_2 C 0.3757(2) 0.7109(7) 0.4408(2)
H13_2 H 0.372914 0.836551 0.466868
Zn1 Zn 0.500000 0.35502(8) 0.000000
O2 O 0.48920(17) 0.9538(5) 0.41804(17)
O3_2 O 0.4361(3) 0.3213(8) 0.0920(3)
O4 O 0.49360(16) 0.5584(6) 0.07248(17)
C21 C 0.4933(2) 0.8983(6) 0.3020(2)
C22 C 0.4651(2) 0.6920(8) 0.2903(2)
H14 H 0.453445 0.639374 0.325728
C23 C 0.4542(3) 0.5633(8) 0.2266(3)
H15_2 H 0.434901 0.425406 0.219172
C24 C 0.4719(2) 0.6392(7) 0.1734(2)
C25 C 0.49975(19) 0.8460(8) 0.1850(2)
H16_2 H 0.511171 0.899320 0.149382
C26_2 C 0.5109(2) 0.9753(7) 0.2492(2)
C27_2 C 0.4644(2) 0.4937(8) 0.1070(2)
N4 N 0.56981(16) 0.1482(6) 0.07119(17)
C39 C 0.6429(2) 0.0323(7) 0.1984(2)
H24 H 0.663744 0.063663 0.251066
C40 C 0.60063(19) 0.1833(7) 0.1477(2)
H25 H 0.593347 0.314219 0.167566
O9_2 O 0.51080(17) 0.9538(5) 0.58196(17)
Zn1_2 Zn 0.500000 0.35502(8) 1.000000
O7_2 O 0.5639(3) 0.3213(8) 0.9080(3)
O8_2 O 0.50640(16) 0.5584(6) 0.92752(17)
C30_2 C 0.5067(2) 0.8983(6) 0.6980(2)
C31_2 C 0.5349(2) 0.6920(8) 0.7097(2)
H19_2 H 0.546555 0.639374 0.674272
C32_2 C 0.5458(3) 0.5633(8) 0.7734(3)
H20_2 H 0.565099 0.425406 0.780828
C33_2 C 0.5281(2) 0.6392(7) 0.8266(2)
C34_2 C 0.50025(19) 0.8460(8) 0.8150(2)
H21 H 0.488829 0.899320 0.850618
C35 C 0.4891(2) 0.9753(7) 0.7508(2)
C36_2 C 0.5356(2) 0.4937(8) 0.8930(2)
N6 N 0.43019(16) 0.1482(6) 0.92881(17)
C39_2 C 0.3571(2) 0.0323(7) 0.8016(2)
H24_2 H 0.336256 0.063663 0.748934
C40_2 C 0.39937(19) 0.1833(7) 0.8523(2)
H25_2 H 0.406653 0.314219 0.832434
C37 C 0.6235(2) 0.8032(7) 0.0907(3)
H23 H 0.631069 0.675961 0.069370
C38 C 0.65417(19) 0.8357(7) 0.1707(2)
C41 C 0.69833(19) 0.6639(8) 0.2219(2)
C42 C 0.7406(2) 0.5829(8) 0.2028(3)
H26 H 0.740499 0.634637 0.158145
C43 C 0.7843(2) 0.4229(8) 0.2492(3)
H27 H 0.811834 0.368215 0.234084
C44 C 0.7867(2) 0.3474(8) 0.3162(2)
C45 C 0.7420(2) 0.4179(7) 0.3372(2)
C46 C 0.7372(2) 0.3223(9) 0.4004(3)
H28 H 0.766281 0.219307 0.432108
C47 C 0.6909(3) 0.3776(13) 0.4158(4)
H29 H 0.689049 0.314266 0.457856
C48 C 0.6465(3) 0.5294(13) 0.3679(4)
H30 H 0.614242 0.563563 0.377183
C49 C 0.6499(2) 0.6284(9) 0.3076(3)
H31 H 0.620248 0.731958 0.277369
C50 C 0.6971(2) 0.5792(7) 0.2891(2)
C51 C 0.83447(18) 0.1799(7) 0.3623(2)
C54 C 0.9202(2) 0.0534(8) 0.4788(2)
H34 H 0.946999 0.075398 0.531078
C55 C 0.8757(2) 0.2109(7) 0.4408(2)
H35 H 0.872914 0.336551 0.466868
C56 C 0.5819(2) 0.9598(8) 0.0433(3)
H36 H 0.561442 0.934646 0.990167
N3_2 N 0.92696(15) 0.8705(7) 0.44459(18)
C52_2 C 0.8412(2) 0.9878(8) 0.3276(3)
H32_2 H 0.814615 0.959709 0.275644
C53_2 C 0.8871(2) 0.8386(8) 0.3697(2)
H33_2 H 0.890566 0.710332 0.345320
Zn5_2 Zn 1.000000 0.65982(8) 0.500000
O2_2 O 0.98920(17) 0.4538(5) 0.41804(17)
O4_2 O 0.99360(16) 0.0584(6) 0.07248(17)
C21_2 C 0.9933(2) 0.3983(6) 0.3020(2)
C22_2 C 0.9651(2) 0.1920(8) 0.2903(2)
H14_2 H 0.953445 0.139374 0.325728
C23_2 C 0.9542(3) 0.0633(8) 0.2266(3)
C24_2 C 0.9719(2) 0.1392(7) 0.1734(2)
C25_2 C 0.99975(19) 0.3460(8) 0.1850(2)
O5_2 O 0.9686(3) 0.7180(7) 0.6175(2)
C29_2 C 0.9924(2) 0.5361(7) 0.6271(2)
H21_2 H 0.988829 0.399320 0.850618
C35_2 C 0.9891(2) 0.4753(7) 0.7508(2)
H22_2 H 0.969860 0.613321 0.743290
H36_2 H 0.438558 0.934646 0.009833
C37_2 C 0.3765(2) 0.8032(7) 0.9093(3)
H23_2 H 0.368931 0.675961 0.930630
C38_2 C 0.34583(19) 0.8357(7) 0.8293(2)
C41_2 C 0.30167(19) 0.6639(8) 0.7781(2)
C42_2 C 0.2594(2) 0.5829(8) 0.7972(3)
H26_2 H 0.259501 0.634637 0.841855
C43_2 C 0.2157(2) 0.4229(8) 0.7508(3)
H27_2 H 0.188166 0.368215 0.765916
C44_2 C 0.2133(2) 0.3474(8) 0.6838(2)
C45_2 C 0.2580(2) 0.4179(7) 0.6628(2)
C46_2 C 0.2628(2) 0.3223(9) 0.5996(3)
H28_2 H 0.233719 0.219307 0.567892
C47_2 C 0.3091(3) 0.3776(13) 0.5842(4)
H29_2 H 0.310951 0.314266 0.542144
C48_2 C 0.3535(3) 0.5294(13) 0.6321(4)
H30_2 H 0.385758 0.563563 0.622817
C49_2 C 0.3501(2) 0.6284(9) 0.6924(3)
H31_2 H 0.379752 0.731958 0.722631
C50_2 C 0.3029(2) 0.5792(7) 0.7109(2)
C51_2 C 0.16553(18) 0.1799(7) 0.6377(2)
C54_2 C 0.0798(2) 0.0534(8) 0.5212(2)
H34_2 H 0.053001 0.075398 0.468922
C55_2 C 0.1243(2) 0.2109(7) 0.5592(2)
H35_2 H 0.127086 0.336551 0.533132
C56_2 C 0.4181(2) 0.9598(8) 0.9567(3)
loop_
_geom_bond_atom_site_label_1
_geom_bond_atom_site_label_2
_geom_bond_site_symmetry_1
_geom_bond_site_symmetry_2
C1 H1 1_555 1_555
C2 C1 1_555 1_555
N2 C4 1_555 1_555
C3 C2 1_555 1_555
H2 C3 1_555 1_555
C4 C3 1_555 1_555
H3 C4 1_555 1_555
C5 C2 1_555 1_555
C6 C5 1_555 1_555
H4 C6 1_555 1_555
H8 C12 1_555 1_555
C13 C12 1_555 1_555
H9 C13 1_555 1_555
C14 C5 1_555 1_555
C28 C1 1_555 1_555
Zn3 N2 1_555 1_555
N2 C28 1_555 1_555
C13 C14 1_555 1_555
O7 C36 1_555 1_555
N3 C53 1_555 1_555
H32 C52 1_555 1_555
C53 C52 1_555 1_555
H33 C53 1_555 1_555
Zn5 N3 1_555 1_555
O1 C20 1_555 1_555
H17 C26 1_555 1_555
O9 Zn5 1_555 1_555
C30 C31 1_555 1_555
C31 H19 1_555 1_555
C32 C31 1_555 1_555
C33 C32 1_555 1_555
C34 C33 1_555 1_555
O3 C27 1_555 1_555
C1_2 H1_2 1_555 1_555
C2_2 C1_2 1_555 1_555
N2_2 C4_2 1_555 1_555
C3_2 C2_2 1_555 1_555
H2_2 C3_2 1_555 1_555
C4_2 C3_2 1_555 1_555
H3_2 C4_2 1_555 1_555
C5_2 C2_2 1_555 1_555
C6_2 C5_2 1_555 1_555
H4_2 C6_2 1_555 1_555
H8_2 C12_2 1_555 1_555
C13_2 C12_2 1_555 1_555
H9_2 C13_2 1_555 1_555
C14_2 C5_2 1_555 1_555
C28_2 C1_2 1_555 1_555
Zn3_4 N2_2 1_555 1_555
N2_2 C28_2 1_555 1_555
C13_2 C14_2 1_555 1_555
N1 Zn2 1_555 1_555
O1_2 C20_2 1_555 1_555
H5 C7 1_555 1_555
C8 C7 1_555 1_555
C9 C8 1_555 1_555
C10 C9 1_555 1_555
H6 C10 1_555 1_555
C11 C10 1_555 1_555
H7 C11 1_555 1_555
C15 C8 1_555 1_555
C16 C15 1_555 1_555
H10 C16 1_555 1_555
C17 N1 1_555 1_555
H11 C17 1_555 1_555
C18 N1 1_555 1_555
H12 C18 1_555 1_555
C19 C15 1_555 1_555
H13 C19 1_555 1_555
N5 Zn2 1_555 1_555
C16 C17 1_555 1_555
C18 C19 1_555 1_555
O5 C29 1_555 1_555
H5_2 C7_2 1_555 1_555
C8_2 C7_2 1_555 1_555
C9_2 C8_2 1_555 1_555
C10_2 C9_2 1_555 1_555
H6_2 C10_2 1_555 1_555
C11_2 C10_2 1_555 1_555
H7_2 C11_2 1_555 1_555
C15_2 C8_2 1_555 1_555
C16_2 C15_2 1_555 1_555
H10_2 C16_2 1_555 1_555
C17_2 N5 1_555 1_555
H11_2 C17_2 1_555 1_555
C18_2 N5 1_555 1_555
H12_2 C18_2 1_555 1_555
C19_2 C15_2 1_555 1_555
H13_2 C19_2 1_555 1_555
C16_2 C17_2 1_555 1_555
C18_2 C19_2 1_555 1_555
Zn1 O4 1_555 1_555
O3_2 C27_2 1_555 1_555
O4 C27_2 1_555 1_555
C21 C22 1_555 1_555
C22 H14 1_555 1_555
C23 C22 1_555 1_555
H15_2 C23 1_555 1_555
C24 C23 1_555 1_555
C25 C24 1_555 1_555
H16_2 C25 1_555 1_555
C26_2 C21 1_555 1_555
C27_2 C24 1_555 1_555
N4 Zn1 1_555 1_555
H24 C39 1_555 1_555
C40 N4 1_555 1_555
H25 C40 1_555 1_555
C25 C26_2 1_555 1_555
C39 C40 1_555 1_555
O7_2 C36_2 1_555 1_555
O8_2 Zn1_2 1_555 1_555
C30_2 C31_2 1_555 1_555
C31_2 H19_2 1_555 1_555
C32_2 C31_2 1_555 1_555
H20_2 C32_2 1_555 1_555
C33_2 C32_2 1_555 1_555
C34_2 C33_2 1_555 1_555
H21 C34_2 1_555 1_555
C35 C30_2 1_555 1_555
C36_2 O8_2 1_555 1_555
N6 Zn1_2 1_555 1_555
C33_2 C36_2 1_555 1_555
C34_2 C35 1_555 1_555
H24_2 C39_2 1_555 1_555
C40_2 N6 1_555 1_555
H25_2 C40_2 1_555 1_555
C39_2 C40_2 1_555 1_555
C37 H23 1_555 1_555
C38 C37 1_555 1_555
C41 C38 1_555 1_555
C42 C41 1_555 1_555
H26 C42 1_555 1_555
C43 C42 1_555 1_555
H27 C43 1_555 1_555
C44 C43 1_555 1_555
C45 C44 1_555 1_555
C46 C45 1_555 1_555
H28 C46 1_555 1_555
C47 C46 1_555 1_555
H29 C47 1_555 1_555
C48 C47 1_555 1_555
H30 C48 1_555 1_555
C49 C48 1_555 1_555
H31 C49 1_555 1_555
C50 C41 1_555 1_555
C51 C44 1_555 1_555
H34 C54 1_555 1_555
C55 C51 1_555 1_555
H35 C55 1_555 1_555
C56 C37 1_555 1_555
C45 C50 1_555 1_555
C49 C50 1_555 1_555
C54 C55 1_555 1_555
N3_2 C53_2 1_555 1_555
H32_2 C52_2 1_555 1_555
C53_2 C52_2 1_555 1_555
H33_2 C53_2 1_555 1_555
Zn5_2 N3_2 1_555 1_555
Zn5_2 O2_2 1_555 1_555
C21_2 C22_2 1_555 1_555
C22_2 H14_2 1_555 1_555
C23_2 C22_2 1_555 1_555
C24_2 C23_2 1_555 1_555
C25_2 C24_2 1_555 1_555
O5_2 C29_2 1_555 1_555
H22_2 C35_2 1_555 1_555
C37_2 H23_2 1_555 1_555
C38_2 C37_2 1_555 1_555
C41_2 C38_2 1_555 1_555
C42_2 C41_2 1_555 1_555
H26_2 C42_2 1_555 1_555
C43_2 C42_2 1_555 1_555
H27_2 C43_2 1_555 1_555
C44_2 C43_2 1_555 1_555
C45_2 C44_2 1_555 1_555
C46_2 C45_2 1_555 1_555
H28_2 C46_2 1_555 1_555
C47_2 C46_2 1_555 1_555
H29_2 C47_2 1_555 1_555
C48_2 C47_2 1_555 1_555
H30_2 C48_2 1_555 1_555
C49_2 C48_2 1_555 1_555
H31_2 C49_2 1_555 1_555
C50_2 C41_2 1_555 1_555
C51_2 C44_2 1_555 1_555
H34_2 C54_2 1_555 1_555
C55_2 C51_2 1_555 1_555
H35_2 C55_2 1_555 1_555
C56_2 C37_2 1_555 1_555
C45_2 C50_2 1_555 1_555
C49_2 C50_2 1_555 1_555
C54_2 C55_2 1_555 1_555

#END
