
###############################################################################
#
# This file contains modified crystal structure data generated from the
# MOF subset of the Cambridge Structural Database (CSD) v543 
# hosted by the Cambridge Crystallographic Data Centre (CCDC).
#
# This work is licensed under the Creative Commons
# Attribution-NonCommercial-ShareAlike 4.0 International License.
# To view a copy of this license, visit
# http://creativecommons.org/licenses/by-nc-sa/4.0/
# or send a letter to
# Creative Commons, PO Box 1866, Mountain View, CA 94042, USA.
#
# CIF created using the CSD Python API on 29 September 2022
# The structure has been converted into the P1 space group
# The structure has a 3D framework
# The original CSD entry YAFWIP is in the hexagonal crystal system
# The framework has been calculated to contain at least 10.0% void space
# The void calculation uses a probe of radius 1.32A, grid spacing 0.4
# The framework is charged, counterions have been retained in the structure
#
###############################################################################

data_YAFWIP
_chemical_formula_moiety         '(C84 H48 Cr6 N12 O26)n'
_symmetry_cell_setting           triclinic
_symmetry_space_group_name_H-M   'P 1'
_symmetry_Int_Tables_number      1
_space_group_name_Hall           'P 1'
loop_
_symmetry_equiv_pos_site_id
_symmetry_equiv_pos_as_xyz
1 x,y,z
_cell_length_a                   16.5742(30)
_cell_length_b                   16.5742
_cell_length_c                   14.8294(20)
_cell_angle_alpha                90
_cell_angle_beta                 90
_cell_angle_gamma                120
_cell_volume                     3527.93
loop_
_atom_site_label
_atom_site_type_symbol
_atom_site_fract_x
_atom_site_fract_y
_atom_site_fract_z
_atom_site_U_iso_or_equiv
_atom_site_thermal_displace_type
N5 N 0.18959 0.3792 0.250 0.0289 Uiso
C17 C 0.2323 0.3313 0.250 0.0465 Uiso
H9 H 0.29551 0.36313 0.250 0.0560 Uiso
N6 N 0.09382 0.04691 0.250 0.0479 Uiso
C18 C 0.09433 0.1887 0.250 0.0408 Uiso
C19 C 0.04445 0.0889 0.250 0.0424 Uiso
C20 C 0.1885 0.2371 0.250 0.0535 Uiso
H10 H 0.22162 0.20699 0.250 0.0640 Uiso
H12 H 0.22162 0.01463 0.250 0.0640 Uiso
C23 C 0.099 0.3313 0.250 0.0465 Uiso
H13 H 0.06762 0.36313 0.250 0.0560 Uiso
C24 C 0.0486 0.2371 0.250 0.0535 Uiso
Cr9 Cr 0.2654(11) 0.5309(10) 0.250 0.0189 Uiso
N3 N 0.18961 0.81041 0.250 0.0289 Uiso
C13 C 0.099 0.7677 0.250 0.0465 Uiso
H7 H 0.06762 0.70449 0.250 0.0560 Uiso
C14 C 0.09437 0.90567 0.250 0.0408 Uiso
C15 C 0.04445 0.95555 0.250 0.0424 Uiso
C16 C 0.0486 0.8115 0.250 0.0535 Uiso
C21 C 0.2323 0.901 0.250 0.0465 Uiso
H11 H 0.29551 0.93238 0.250 0.0560 Uiso
C22 C 0.1885 0.9514 0.250 0.0535 Uiso
Cr6 Cr 0.2655(5) 0.7346(11) 0.250 0.0189 Uiso
N2 N 0.95309 0.04691 0.250 0.0479 Uiso
H3 H 0.79301 0.01463 0.250 0.0640 Uiso
O4 O 0.52391 0.17824 0.65432 0.0379 Uiso
C9 C 0.53585 0.0717 0.5617 0.0343 Uiso
C10 C 0.5872 0.0351 0.5307 0.0646 Uiso
H5 H 0.64648 0.05838 0.55158 0.0780 Uiso
C11 C 0.57449 0.149 0.6292 0.0265 Uiso
O5 O 0.65433 0.17824 0.65432 0.0379 Uiso
C12 C 0.4479 0.0351 0.5307 0.0646 Uiso
H6 H 0.41190 0.05838 0.55158 0.0780 Uiso
H14 H 0.98537 0.20699 0.250 0.0640 Uiso
Cr8 Cr 0.5309(10) 0.2655(5) 0.750 0.0189 Uiso
Cr11 Cr 0.7345(5) 0.2654(11) 0.750 0.0189 Uiso
Cr1 Cr 0.4691(10) 0.7345(5) 0.250 0.0189 Uiso
O1 O 0.33333 0.66667 0.250 0.0281 Uiso
O2 O 0.47609 0.82176 0.34568 0.0379 Uiso
C1 C 0.46415 0.9283 0.4383 0.0343 Uiso
C2 C 0.4128 0.9649 0.4693 0.0646 Uiso
H1 H 0.35352 0.94162 0.44842 0.0780 Uiso
N1 N 0.6208 0.81039 0.250 0.0289 Uiso
C3 C 0.6687 0.901 0.250 0.0465 Uiso
H2 H 0.63687 0.93238 0.250 0.0560 Uiso
C4 C 0.8113 0.90563 0.250 0.0408 Uiso
C5 C 0.9111 0.95555 0.250 0.0424 Uiso
C6 C 0.7629 0.9514 0.250 0.0535 Uiso
C7 C 0.42551 0.851 0.3708 0.0265 Uiso
O3 O 0.34567 0.82176 0.34568 0.0379 Uiso
C8 C 0.5521 0.9649 0.4693 0.0646 Uiso
H4 H 0.58810 0.94162 0.44842 0.0780 Uiso
N4 N 0.95309 0.90618 0.250 0.0479 Uiso
H8 H 0.98537 0.77838 0.250 0.0640 Uiso
C25 C 0.6687 0.7677 0.250 0.0465 Uiso
H15 H 0.63687 0.70449 0.250 0.0560 Uiso
C26 C 0.7629 0.8115 0.250 0.0535 Uiso
H16 H 0.79301 0.77838 0.250 0.0640 Uiso
O6 O 0.17824 0.65433 0.34568 0.0379 Uiso
C27 C 0.0717 0.53585 0.4383 0.0343 Uiso
C28 C 0.0351 0.4479 0.4693 0.0646 Uiso
H17 H 0.05838 0.41190 0.44842 0.0780 Uiso
C29 C 0.149 0.57451 0.3708 0.0265 Uiso
O7 O 0.17824 0.52391 0.34568 0.0379 Uiso
C30 C 0.0351 0.5872 0.4693 0.0646 Uiso
H18 H 0.05838 0.64648 0.44842 0.0780 Uiso
O10 O 0.34567 0.52391 0.34568 0.0379 Uiso
C35 C 0.46415 0.53585 0.4383 0.0343 Uiso
C36 C 0.5521 0.5872 0.4693 0.0646 Uiso
H21 H 0.58810 0.64648 0.44842 0.0780 Uiso
C37 C 0.42549 0.57449 0.3708 0.0265 Uiso
O11 O 0.47609 0.65433 0.34568 0.0379 Uiso
C38 C 0.4128 0.4479 0.4693 0.0646 Uiso
H22 H 0.35352 0.41190 0.44842 0.0780 Uiso
O12 O 0.65433 0.47609 0.65432 0.0379 Uiso
C39 C 0.53585 0.46415 0.5617 0.0343 Uiso
C40 C 0.4479 0.4128 0.5307 0.0646 Uiso
H23 H 0.41190 0.35352 0.55158 0.0780 Uiso
C41 C 0.57451 0.42551 0.6292 0.0265 Uiso
O13 O 0.52391 0.34567 0.65432 0.0379 Uiso
C42 C 0.5872 0.5521 0.5307 0.0646 Uiso
H24 H 0.64648 0.58810 0.55158 0.0780 Uiso
Cr5 Cr 0.7346(11) 0.4691(10) 0.750 0.0189 Uiso
O14 O 0.34567 0.52391 0.15432 0.0379 Uiso
O15 O 0.47609 0.82176 0.15432 0.0379 Uiso
O16 O 0.17824 0.65433 0.15432 0.0379 Uiso
O17 O 0.47609 0.65433 0.15432 0.0379 Uiso
O18 O 0.34567 0.82176 0.15432 0.0379 Uiso
O19 O 0.17824 0.52391 0.15432 0.0379 Uiso
O8 O 0.82176 0.34567 0.65432 0.0379 Uiso
C31 C 0.9283 0.46415 0.5617 0.0343 Uiso
C32 C 0.9649 0.5521 0.5307 0.0646 Uiso
H19 H 0.94162 0.58810 0.55158 0.0780 Uiso
C33 C 0.851 0.42549 0.6292 0.0265 Uiso
O9 O 0.82176 0.47609 0.65432 0.0379 Uiso
C34 C 0.9649 0.4128 0.5307 0.0646 Uiso
H20 H 0.94162 0.35352 0.55158 0.0780 Uiso
N3_2 N 0.37920 0.18961 0.750 0.0289 Uiso
C13_2 C 0.3313 0.099 0.750 0.0465 Uiso
H7_2 H 0.36313 0.06762 0.750 0.0560 Uiso
C14_2 C 0.18870 0.09437 0.750 0.0408 Uiso
C15_2 C 0.08890 0.04445 0.750 0.0424 Uiso
C16_2 C 0.2371 0.0486 0.750 0.0535 Uiso
N6_2 N 0.04691 0.09382 0.750 0.0479 Uiso
H10_2 H 0.01463 0.22162 0.750 0.0640 Uiso
C21_2 C 0.3313 0.2323 0.750 0.0465 Uiso
H11_2 H 0.36313 0.29551 0.750 0.0560 Uiso
C22_2 C 0.2371 0.1885 0.750 0.0535 Uiso
H12_2 H 0.20699 0.22162 0.750 0.0640 Uiso
C39_2 C 0.07170 0.53585 0.0617 0.0343 Uiso
C40_2 C 0.0351 0.4479 0.0307 0.0646 Uiso
H23_2 H 0.05838 0.41190 0.05158 0.0780 Uiso
C41_2 C 0.14900 0.57451 0.1292 0.0265 Uiso
C42_2 C 0.0351 0.5872 0.0307 0.0646 Uiso
H24_2 H 0.05838 0.64648 0.05158 0.0780 Uiso
N4_2 N 0.04691 0.95309 0.750 0.0479 Uiso
H8_2 H 0.20699 0.98537 0.750 0.0640 Uiso
H16_2 H 0.01463 0.79301 0.750 0.0640 Uiso
N5_2 N 0.81039 0.18959 0.750 0.0289 Uiso
C17_2 C 0.9010 0.2323 0.750 0.0465 Uiso
H9_2 H 0.93238 0.29551 0.750 0.0560 Uiso
C18_2 C 0.90563 0.09433 0.750 0.0408 Uiso
C19_2 C 0.95555 0.04445 0.750 0.0424 Uiso
C20_2 C 0.9514 0.1885 0.750 0.0535 Uiso
C23_2 C 0.7677 0.099 0.750 0.0465 Uiso
H13_2 H 0.70449 0.06762 0.750 0.0560 Uiso
C24_2 C 0.8115 0.0486 0.750 0.0535 Uiso
C9_2 C 0.46415 0.53585 0.0617 0.0343 Uiso
C10_2 C 0.5521 0.5872 0.0307 0.0646 Uiso
H5_2 H 0.58810 0.64648 0.05158 0.0780 Uiso
C11_2 C 0.42549 0.57449 0.1292 0.0265 Uiso
C12_2 C 0.4128 0.4479 0.0307 0.0646 Uiso
H6_2 H 0.35352 0.41190 0.05158 0.0780 Uiso
O1_2 O 0.66666 0.33333 0.750 0.0281 Uiso
O2_2 O 0.65433 0.47609 0.84568 0.0379 Uiso
C1_2 C 0.53585 0.46415 0.9383 0.0343 Uiso
C2_2 C 0.4479 0.4128 0.9693 0.0646 Uiso
H1_2 H 0.41190 0.35352 0.94842 0.0780 Uiso
N1_2 N 0.81041 0.6208 0.750 0.0289 Uiso
C3_2 C 0.7677 0.6687 0.750 0.0465 Uiso
H2_2 H 0.70449 0.63687 0.750 0.0560 Uiso
N2_2 N 0.90618 0.95309 0.750 0.0479 Uiso
C4_2 C 0.90567 0.8113 0.750 0.0408 Uiso
C5_2 C 0.95555 0.9111 0.750 0.0424 Uiso
C6_2 C 0.8115 0.7629 0.750 0.0535 Uiso
H3_2 H 0.77838 0.79301 0.750 0.0640 Uiso
C7_2 C 0.57451 0.42551 0.8708 0.0265 Uiso
O3_2 O 0.52391 0.34567 0.84568 0.0379 Uiso
C8_2 C 0.5872 0.5521 0.9693 0.0646 Uiso
H4_2 H 0.64648 0.58810 0.94842 0.0780 Uiso
H14_2 H 0.77838 0.98537 0.750 0.0640 Uiso
C25_2 C 0.9010 0.6687 0.750 0.0465 Uiso
H15_2 H 0.93238 0.63687 0.750 0.0560 Uiso
C26_2 C 0.9514 0.7629 0.750 0.0535 Uiso
O6_2 O 0.52391 0.17824 0.84568 0.0379 Uiso
C27_2 C 0.53585 0.0717 0.9383 0.0343 Uiso
C28_2 C 0.5872 0.0351 0.9693 0.0646 Uiso
H17_2 H 0.64648 0.05838 0.94842 0.0780 Uiso
C29_2 C 0.57449 0.149 0.8708 0.0265 Uiso
O7_2 O 0.65433 0.17824 0.84568 0.0379 Uiso
C30_2 C 0.4479 0.0351 0.9693 0.0646 Uiso
H18_2 H 0.41190 0.05838 0.94842 0.0780 Uiso
O10_2 O 0.82176 0.34567 0.84568 0.0379 Uiso
C35_2 C 0.92830 0.46415 0.9383 0.0343 Uiso
C36_2 C 0.9649 0.5521 0.9693 0.0646 Uiso
H21_2 H 0.94162 0.58810 0.94842 0.0780 Uiso
C37_2 C 0.85100 0.42549 0.8708 0.0265 Uiso
O11_2 O 0.82176 0.47609 0.84568 0.0379 Uiso
C38_2 C 0.9649 0.4128 0.9693 0.0646 Uiso
H22_2 H 0.94162 0.35352 0.94842 0.0780 Uiso
C31_2 C 0.46415 0.9283 0.0617 0.0343 Uiso
C32_2 C 0.4128 0.9649 0.0307 0.0646 Uiso
H19_2 H 0.35352 0.94162 0.05158 0.0780 Uiso
C33_2 C 0.42551 0.851 0.1292 0.0265 Uiso
C34_2 C 0.5521 0.9649 0.0307 0.0646 Uiso
H20_2 H 0.58810 0.94162 0.05158 0.0780 Uiso
loop_
_geom_bond_atom_site_label_1
_geom_bond_atom_site_label_2
_geom_bond_site_symmetry_1
_geom_bond_site_symmetry_2
N5 C17 1_555 1_555
C17 H9 1_555 1_555
N6 C19 1_555 1_555
C18 C19 1_555 1_555
C20 C17 1_555 1_555
H10 C20 1_555 1_555
C23 N5 1_555 1_555
H13 C23 1_555 1_555
C24 C18 1_555 1_555
Cr9 N5 1_555 1_555
C18 C20 1_555 1_555
C23 C24 1_555 1_555
N3 C13 1_555 1_555
C13 H7 1_555 1_555
C14 C15 1_555 1_555
C16 C13 1_555 1_555
C21 N3 1_555 1_555
H11 C21 1_555 1_555
C22 C14 1_555 1_555
Cr6 N3 1_555 1_555
C14 C16 1_555 1_555
C21 C22 1_555 1_555
O4 C11 1_555 1_555
C9 C10 1_555 1_555
H5 C10 1_555 1_555
C11 C9 1_555 1_555
O5 C11 1_555 1_555
H6 C12 1_555 1_555
Cr8 O4 1_555 1_555
Cr11 O5 1_555 1_555
C9 C12 1_555 1_555
Cr1 O1 1_555 1_555
O1 Cr6 1_555 1_555
O2 Cr1 1_555 1_555
C1 C2 1_555 1_555
C2 H1 1_555 1_555
N1 Cr1 1_555 1_555
C3 N1 1_555 1_555
H2 C3 1_555 1_555
C4 C5 1_555 1_555
C5 N4 1_555 1_555
C6 C3 1_555 1_555
C7 O2 1_555 1_555
O3 C7 1_555 1_555
C8 C1 1_555 1_555
H4 C8 1_555 1_555
C25 N1 1_555 1_555
H15 C25 1_555 1_555
C26 C4 1_555 1_555
H16 C26 1_555 1_555
Cr6 O3 1_555 1_555
O6 Cr6 1_555 1_555
C27 C28 1_555 1_555
C28 H17 1_555 1_555
C29 O6 1_555 1_555
O7 C29 1_555 1_555
C30 C27 1_555 1_555
H18 C30 1_555 1_555
Cr9 O1 1_555 1_555
O10 Cr9 1_555 1_555
C35 C36 1_555 1_555
C36 H21 1_555 1_555
C37 O10 1_555 1_555
O11 Cr1 1_555 1_555
C38 C35 1_555 1_555
H22 C38 1_555 1_555
O12 C41 1_555 1_555
C39 C40 1_555 1_555
C40 C38 1_555 1_555
H23 C40 1_555 1_555
C41 C39 1_555 1_555
O13 C41 1_555 1_555
C42 C36 1_555 1_555
H24 C42 1_555 1_555
Cr5 O12 1_555 1_555
Cr8 O13 1_555 1_555
O14 Cr9 1_555 1_555
O15 Cr1 1_555 1_555
O16 Cr6 1_555 1_555
O17 Cr1 1_555 1_555
O18 Cr6 1_555 1_555
O19 Cr9 1_555 1_555
C1 C7 1_555 1_555
C4 C6 1_555 1_555
C25 C26 1_555 1_555
C27 C29 1_555 1_555
O7 Cr9 1_555 1_555
C35 C37 1_555 1_555
C37 O11 1_555 1_555
C39 C42 1_555 1_555
O8 C33 1_555 1_555
C31 C32 1_555 1_555
H19 C32 1_555 1_555
C33 C31 1_555 1_555
O9 C33 1_555 1_555
H20 C34 1_555 1_555
Cr5 O9 1_555 1_555
Cr11 O8 1_555 1_555
C31 C34 1_555 1_555
N3_2 C13_2 1_555 1_555
C13_2 H7_2 1_555 1_555
C14_2 C15_2 1_555 1_555
C15_2 N6_2 1_555 1_555
C16_2 C13_2 1_555 1_555
C21_2 N3_2 1_555 1_555
H11_2 C21_2 1_555 1_555
C22_2 C14_2 1_555 1_555
H12_2 C22_2 1_555 1_555
Cr8 N3_2 1_555 1_555
C14_2 C16_2 1_555 1_555
C21_2 C22_2 1_555 1_555
O16 C41_2 1_555 1_555
C39_2 C40_2 1_555 1_555
H23_2 C40_2 1_555 1_555
C41_2 C39_2 1_555 1_555
O19 C41_2 1_555 1_555
H24_2 C42_2 1_555 1_555
C39_2 C42_2 1_555 1_555
N5_2 C17_2 1_555 1_555
C17_2 H9_2 1_555 1_555
C18_2 C19_2 1_555 1_555
C20_2 C17_2 1_555 1_555
C23_2 N5_2 1_555 1_555
H13_2 C23_2 1_555 1_555
C24_2 C18_2 1_555 1_555
Cr11 N5_2 1_555 1_555
C18_2 C20_2 1_555 1_555
C23_2 C24_2 1_555 1_555
O14 C11_2 1_555 1_555
C9_2 C10_2 1_555 1_555
H5_2 C10_2 1_555 1_555
C11_2 C9_2 1_555 1_555
O17 C11_2 1_555 1_555
H6_2 C12_2 1_555 1_555
C9_2 C12_2 1_555 1_555
Cr5 O1_2 1_555 1_555
O1_2 Cr8 1_555 1_555
O2_2 Cr5 1_555 1_555
C1_2 C2_2 1_555 1_555
C2_2 H1_2 1_555 1_555
N1_2 Cr5 1_555 1_555
C3_2 N1_2 1_555 1_555
H2_2 C3_2 1_555 1_555
N2_2 C5_2 1_555 1_555
C4_2 C5_2 1_555 1_555
C6_2 C3_2 1_555 1_555
H3_2 C6_2 1_555 1_555
C7_2 O2_2 1_555 1_555
O3_2 C7_2 1_555 1_555
C8_2 C1_2 1_555 1_555
H4_2 C8_2 1_555 1_555
C25_2 N1_2 1_555 1_555
H15_2 C25_2 1_555 1_555
C26_2 C4_2 1_555 1_555
Cr8 O3_2 1_555 1_555
O6_2 Cr8 1_555 1_555
C27_2 C28_2 1_555 1_555
C28_2 H17_2 1_555 1_555
C29_2 O6_2 1_555 1_555
O7_2 C29_2 1_555 1_555
C30_2 C27_2 1_555 1_555
H18_2 C30_2 1_555 1_555
Cr11 O1_2 1_555 1_555
O10_2 Cr11 1_555 1_555
C35_2 C36_2 1_555 1_555
C36_2 H21_2 1_555 1_555
C37_2 O10_2 1_555 1_555
O11_2 Cr5 1_555 1_555
C38_2 C35_2 1_555 1_555
H22_2 C38_2 1_555 1_555
C1_2 C7_2 1_555 1_555
C4_2 C6_2 1_555 1_555
C25_2 C26_2 1_555 1_555
C27_2 C29_2 1_555 1_555
O7_2 Cr11 1_555 1_555
C35_2 C37_2 1_555 1_555
C37_2 O11_2 1_555 1_555
O15 C33_2 1_555 1_555
C31_2 C32_2 1_555 1_555
H19_2 C32_2 1_555 1_555
C33_2 C31_2 1_555 1_555
O18 C33_2 1_555 1_555
H20_2 C34_2 1_555 1_555
C31_2 C34_2 1_555 1_555

#END
