
###############################################################################
#
# This file contains modified crystal structure data generated from the
# MOF subset of the Cambridge Structural Database (CSD) v543 
# hosted by the Cambridge Crystallographic Data Centre (CCDC).
#
# This work is licensed under the Creative Commons
# Attribution-NonCommercial-ShareAlike 4.0 International License.
# To view a copy of this license, visit
# http://creativecommons.org/licenses/by-nc-sa/4.0/
# or send a letter to
# Creative Commons, PO Box 1866, Mountain View, CA 94042, USA.
#
# CIF created using the CSD Python API on 29 September 2022
# The structure has been converted into the P1 space group
# The structure has a 3D framework
# The original CSD entry YAJQIN is in the monoclinic crystal system
# The framework has been calculated to contain at least 10.0% void space
# The void calculation uses a probe of radius 1.32A, grid spacing 0.4
# H atom positions have been added when not included in the experimental data
# Generated hydrogen atom positions removed from atoms on special positions
#
###############################################################################

data_YAJQIN
_chemical_formula_moiety         '(C56 H44 Cu13 O26 P4)n'
_symmetry_cell_setting           triclinic
_symmetry_space_group_name_H-M   'P 1'
_symmetry_Int_Tables_number      1
_space_group_name_Hall           'P 1'
loop_
_symmetry_equiv_pos_site_id
_symmetry_equiv_pos_as_xyz
1 x,y,z
_cell_length_a                   10.219(4)
_cell_length_b                   19.074(6)
_cell_length_c                   12.794(4)
_cell_angle_alpha                90
_cell_angle_beta                 102.935(4)
_cell_angle_gamma                90
_cell_volume                     2430.49
loop_
_atom_site_label
_atom_site_type_symbol
_atom_site_fract_x
_atom_site_fract_y
_atom_site_fract_z
Cu6 Cu 0.03815(9) 0.48577(5) 0.90984(7)
O4 O 0.7911(6) 0.4773(3) 0.0098(5)
Cu9 Cu 0.96185(9) 0.51423(5) 0.09016(7)
C1 C 0.0589(8) 0.1217(4) 0.5749(7)
C2 C 0.0939(8) 0.1953(4) 0.6093(7)
C3 C 0.1504(11) 0.2385(5) 0.5462(8)
H1 H 0.1715 0.2209 0.4841
C4 C 0.1763(11) 0.3072(5) 0.5733(8)
H2 H 0.2160 0.3356 0.5299
C5 C 0.1443(8) 0.3353(4) 0.6645(6)
C6 C 0.0885(10) 0.2912(5) 0.7288(7)
H3 H 0.0684 0.3084 0.7914
C7 C 0.0631(11) 0.2229(5) 0.7010(8)
H4 H 0.0243 0.1941 0.7444
C8 C 0.3526(8) 0.4318(4) 0.7588(7)
C9 C 0.3946(9) 0.4256(5) 0.8709(7)
H5 H 0.3324 0.4160 0.9122
C10 C 0.5283(8) 0.4340(5) 0.9192(7)
H6 H 0.5561 0.4309 0.9934
C11 C 0.6220(8) 0.4469(4) 0.8582(7)
C12 C 0.7672(8) 0.4611(4) 0.9128(7)
C13 C 0.5824(10) 0.4473(7) 0.7488(8)
H7 H 0.6459 0.4516 0.7073
C14 C 0.4453(9) 0.4411(7) 0.6992(8)
H8 H 0.4182 0.4434 0.6249
Cu2 Cu 0.0000 0.5000 0.5000
O1 O 0.0156(6) 0.0816(3) 0.6367(5)
O2 O 0.0775(6) 0.1045(3) 0.4838(5)
O3 O 0.8504(6) 0.4570(4) 0.8551(5)
O5 O 0.0924(5) 0.4500(3) 0.7707(4)
O6 O 0.1607(6) 0.4657(3) 0.5915(4)
P1 P 0.1774(2) 0.42647(10) 0.69663(16)
Cu3 Cu 0.03815(9) 0.01423(5) 0.40984(7)
O14 O 0.134(2) 0.5548(11) 0.4083(16)
O20 O 0.0924(5) 0.0500(3) 0.2707(4)
O15 O 0.1496(6) 0.9570(4) 0.6449(5)
O17 O 0.2089(6) 0.9773(3) 0.4902(5)
Cu2_2 Cu 1.0000 0.5000 0.5000
O7 O 0.866(2) 0.4452(11) 0.5917(16)
O16 O 0.8504(6) 0.0430(4) 0.3551(5)
O18 O 0.7911(6) 0.0227(3) 0.5098(5)
O21 O 0.8393(6) 0.5343(3) 0.4085(4)
Cu1 Cu 0.96185(9) 0.98577(5) 0.59016(7)
C15 C 0.9411(8) 0.8783(4) 0.4251(7)
C16 C 0.9061(8) 0.8047(4) 0.3907(7)
C17 C 0.8496(11) 0.7615(5) 0.4538(8)
H10 H 0.8285 0.7791 0.5159
C18 C 0.8237(11) 0.6928(5) 0.4267(8)
H11 H 0.7840 0.6644 0.4701
C19 C 0.8557(8) 0.6647(4) 0.3355(6)
C20 C 0.9115(10) 0.7088(5) 0.2712(7)
H12 H 0.9316 0.6916 0.2086
C21 C 0.9369(11) 0.7771(5) 0.2990(8)
H13 H 0.9757 0.8059 0.2556
C22 C 0.6474(8) 0.5682(4) 0.2412(7)
C23 C 0.6054(9) 0.5744(5) 0.1291(7)
H14 H 0.6676 0.5840 0.0878
C24 C 0.4717(8) 0.5660(5) 0.0808(7)
H15 H 0.4439 0.5691 0.0066
C25 C 0.3780(8) 0.5531(4) 0.1418(7)
C26 C 0.2328(8) 0.5389(4) 0.0872(7)
C27 C 0.4176(10) 0.5527(7) 0.2512(8)
H16 H 0.3541 0.5484 0.2927
C28 C 0.5547(9) 0.5589(7) 0.3008(8)
H17 H 0.5818 0.5566 0.3751
O8 O 0.9844(6) 0.9184(3) 0.3633(5)
O9 O 0.9225(6) 0.8955(3) 0.5162(5)
O10 O 0.1496(6) 0.5430(4) 0.1449(5)
O12 O 0.9076(5) 0.5500(3) 0.2293(4)
P2 P 0.8226(2) 0.57353(10) 0.30337(16)
O19 O 0.9076(5) 0.9500(3) 0.7293(4)
O11 O 0.2089(6) 0.5227(3) 0.9902(5)
Cu2_3 Cu -0.0000 0.0000 0.0000
O21_2 O 0.1607(6) 0.0343(3) 0.0915(4)
Cu2_4 Cu -0.0000 0.0000 1.0000
Cu2_5 Cu 0.0000 1.0000 0.0000
C15_2 C 0.0589(8) 0.3783(4) 0.0749(7)
C16_2 C 0.0939(8) 0.3047(4) 0.1093(7)
C17_2 C 0.1504(11) 0.2615(5) 0.0462(8)
C18_2 C 0.1763(11) 0.1928(5) 0.0733(8)
H11_2 H 0.2160 0.1644 0.0299
C19_2 C 0.1443(8) 0.1647(4) 0.1645(6)
C20_2 C 0.0885(10) 0.2088(5) 0.2288(7)
H12_2 H 0.0684 0.1916 0.2914
C21_2 C 0.0631(11) 0.2771(5) 0.2010(8)
H13_2 H 0.0243 0.3059 0.2444
C22_2 C 0.3526(8) 0.0682(4) 0.2588(7)
C23_2 C 0.3946(9) 0.0744(5) 0.3709(7)
H14_2 H 0.3324 0.0840 0.4122
C24_2 C 0.5283(8) 0.0660(5) 0.4192(7)
H15_2 H 0.5561 0.0691 0.4934
C25_2 C 0.6220(8) 0.0531(4) 0.3582(7)
C26_2 C 0.7672(8) 0.0389(4) 0.4128(7)
C27_2 C 0.5824(10) 0.0527(7) 0.2488(8)
H16_2 H 0.6459 0.0484 0.2073
C28_2 C 0.4453(9) 0.0589(7) 0.1992(8)
H17_2 H 0.4182 0.0566 0.1249
O8_2 O 0.0156(6) 0.4184(3) 0.1367(5)
P2_2 P 0.1774(2) 0.07353(10) 0.19663(16)
Cu2_6 Cu 0.0000 1.0000 1.0000
O7_2 O 0.134(2) 0.9452(11) 0.9083(16)
H10_2 H 0.1715 0.2791 0.9841
O9_2 O 0.0775(6) 0.3955(3) 0.9838(5)
Cu2_7 Cu 1.0000 0.0000 0.0000
O14_2 O 0.866(2) 0.0548(11) 0.0917(16)
Cu2_8 Cu 1.0000 0.0000 1.0000
H1_2 H 0.8285 0.7209 0.0159
Cu2_9 Cu 1.0000 1.0000 0.0000
O2_2 O 0.9225(6) 0.6045(3) 0.0162(5)
C1_2 C 0.9411(8) 0.6217(4) 0.9251(7)
C2_2 C 0.9061(8) 0.6953(4) 0.8907(7)
C3_2 C 0.8496(11) 0.7385(5) 0.9538(8)
C4_2 C 0.8237(11) 0.8072(5) 0.9267(8)
H2_2 H 0.7840 0.8356 0.9701
C5_2 C 0.8557(8) 0.8353(4) 0.8355(6)
C6_2 C 0.9115(10) 0.7912(5) 0.7712(7)
H3_2 H 0.9316 0.8084 0.7086
C7_2 C 0.9369(11) 0.7229(5) 0.7990(8)
H4_2 H 0.9757 0.6941 0.7556
C8_2 C 0.6474(8) 0.9318(4) 0.7412(7)
C9_2 C 0.6054(9) 0.9256(5) 0.6291(7)
H5_2 H 0.6676 0.9160 0.5878
C10_2 C 0.4717(8) 0.9340(5) 0.5808(7)
H6_2 H 0.4439 0.9309 0.5066
C11_2 C 0.3780(8) 0.9469(4) 0.6418(7)
C12_2 C 0.2328(8) 0.9611(4) 0.5872(7)
C13_2 C 0.4176(10) 0.9473(7) 0.7512(8)
H7_2 H 0.3541 0.9516 0.7927
C14_2 C 0.5547(9) 0.9411(7) 0.8008(8)
H8_2 H 0.5818 0.9434 0.8751
Cu2_10 Cu 1.0000 1.0000 1.0000
O1_2 O 0.9844(6) 0.5816(3) 0.8633(5)
O6_2 O 0.8393(6) 0.9657(3) 0.9085(4)
P1_2 P 0.8226(2) 0.92647(10) 0.80337(16)
loop_
_geom_bond_atom_site_label_1
_geom_bond_atom_site_label_2
_geom_bond_site_symmetry_1
_geom_bond_site_symmetry_2
Cu9 O4 1_555 1_555
C1 C2 1_555 1_555
C2 C3 1_555 1_555
C3 H1 1_555 1_555
C4 C3 1_555 1_555
H2 C4 1_555 1_555
C5 C4 1_555 1_555
C6 C5 1_555 1_555
H3 C6 1_555 1_555
C7 C2 1_555 1_555
H4 C7 1_555 1_555
C8 C9 1_555 1_555
C9 H5 1_555 1_555
C10 C9 1_555 1_555
H6 C10 1_555 1_555
C11 C10 1_555 1_555
C12 C11 1_555 1_555
C13 C11 1_555 1_555
H7 C13 1_555 1_555
C14 C8 1_555 1_555
H8 C14 1_555 1_555
Cu2 O6 1_555 1_555
O1 C1 1_555 1_555
O2 C1 1_555 1_555
O3 C12 1_555 1_555
O5 P1 1_555 1_555
O6 P1 1_555 1_555
P1 C5 1_555 1_555
O14 Cu2 1_555 1_555
Cu6 O5 1_555 1_555
O20 Cu3 1_555 1_555
C6 C7 1_555 1_555
C8 P1 1_555 1_555
C13 C14 1_555 1_555
O2 Cu3 1_555 1_555
O7 Cu2_2 1_555 1_555
O21 Cu2_2 1_555 1_555
C15 C16 1_555 1_555
C16 C17 1_555 1_555
C17 H10 1_555 1_555
C18 C17 1_555 1_555
H11 C18 1_555 1_555
C19 C18 1_555 1_555
C20 C19 1_555 1_555
H12 C20 1_555 1_555
C21 C16 1_555 1_555
H13 C21 1_555 1_555
C22 C23 1_555 1_555
C23 H14 1_555 1_555
C24 C23 1_555 1_555
H15 C24 1_555 1_555
C25 C24 1_555 1_555
C26 C25 1_555 1_555
C27 C25 1_555 1_555
H16 C27 1_555 1_555
C28 C22 1_555 1_555
H17 C28 1_555 1_555
O9 Cu1 1_555 1_555
O10 C26 1_555 1_555
O12 P2 1_555 1_555
O21 P2 1_555 1_555
P2 C19 1_555 1_555
Cu9 O12 1_555 1_555
O19 Cu1 1_555 1_555
C15 O8 1_555 1_555
C15 O9 1_555 1_555
C20 C21 1_555 1_555
C22 P2 1_555 1_555
C27 C28 1_555 1_555
Cu6 O11 1_555 1_555
O21_2 Cu2_3 1_555 1_555
C15_2 C16_2 1_555 1_555
C16_2 C17_2 1_555 1_555
C18_2 C17_2 1_555 1_555
H11_2 C18_2 1_555 1_555
C19_2 C18_2 1_555 1_555
C20_2 C19_2 1_555 1_555
H12_2 C20_2 1_555 1_555
C21_2 C16_2 1_555 1_555
H13_2 C21_2 1_555 1_555
C22_2 C23_2 1_555 1_555
C23_2 H14_2 1_555 1_555
C24_2 C23_2 1_555 1_555
H15_2 C24_2 1_555 1_555
C25_2 C24_2 1_555 1_555
C26_2 C25_2 1_555 1_555
C27_2 C25_2 1_555 1_555
H16_2 C27_2 1_555 1_555
C28_2 C22_2 1_555 1_555
H17_2 C28_2 1_555 1_555
O16 C26_2 1_555 1_555
O18 C26_2 1_555 1_555
O20 P2_2 1_555 1_555
O21_2 P2_2 1_555 1_555
P2_2 C19_2 1_555 1_555
C15_2 O8_2 1_555 1_555
C20_2 C21_2 1_555 1_555
C22_2 P2_2 1_555 1_555
C27_2 C28_2 1_555 1_555
O7_2 Cu2_6 1_555 1_555
O9_2 Cu6 1_555 1_555
O14_2 Cu2_7 1_555 1_555
O2_2 Cu9 1_555 1_555
C1_2 C2_2 1_555 1_555
C2_2 C3_2 1_555 1_555
C4_2 C3_2 1_555 1_555
H2_2 C4_2 1_555 1_555
C5_2 C4_2 1_555 1_555
C6_2 C5_2 1_555 1_555
H3_2 C6_2 1_555 1_555
C7_2 C2_2 1_555 1_555
H4_2 C7_2 1_555 1_555
C8_2 C9_2 1_555 1_555
C9_2 H5_2 1_555 1_555
C10_2 C9_2 1_555 1_555
H6_2 C10_2 1_555 1_555
C11_2 C10_2 1_555 1_555
C12_2 C11_2 1_555 1_555
C13_2 C11_2 1_555 1_555
H7_2 C13_2 1_555 1_555
C14_2 C8_2 1_555 1_555
H8_2 C14_2 1_555 1_555
Cu2_10 O6_2 1_555 1_555
O1_2 C1_2 1_555 1_555
O15 C12_2 1_555 1_555
O17 C12_2 1_555 1_555
O19 P1_2 1_555 1_555
O6_2 P1_2 1_555 1_555
P1_2 C5_2 1_555 1_555
C6_2 C7_2 1_555 1_555
C8_2 P1_2 1_555 1_555
C13_2 C14_2 1_555 1_555

#END
