
###############################################################################
#
# This file contains modified crystal structure data generated from the
# MOF subset of the Cambridge Structural Database (CSD) v543 
# hosted by the Cambridge Crystallographic Data Centre (CCDC).
#
# This work is licensed under the Creative Commons
# Attribution-NonCommercial-ShareAlike 4.0 International License.
# To view a copy of this license, visit
# http://creativecommons.org/licenses/by-nc-sa/4.0/
# or send a letter to
# Creative Commons, PO Box 1866, Mountain View, CA 94042, USA.
#
# CIF created using the CSD Python API on 29 September 2022
# The structure has been converted into the P1 space group
# The structure has a 3D framework
# The original CSD entry YAJQEJ is in the monoclinic crystal system
# The framework has been calculated to contain at least 10.0% void space
# The void calculation uses a probe of radius 1.32A, grid spacing 0.4
#
###############################################################################

data_YAJQEJ
_chemical_formula_moiety         '(C56 H44 Mn4 O24 P4)n'
_symmetry_cell_setting           triclinic
_symmetry_space_group_name_H-M   'P 1'
_symmetry_Int_Tables_number      1
_space_group_name_Hall           'P 1'
loop_
_symmetry_equiv_pos_site_id
_symmetry_equiv_pos_as_xyz
1 x,y,z
_cell_length_a                   5.7770(8)
_cell_length_b                   17.044(2)
_cell_length_c                   16.768(2)
_cell_angle_alpha                90
_cell_angle_beta                 96.867(2)
_cell_angle_gamma                90
_cell_volume                     1639.19
loop_
_atom_site_label
_atom_site_type_symbol
_atom_site_fract_x
_atom_site_fract_y
_atom_site_fract_z
O3 O 0.0577(4) 0.33347(15) 0.08644(15)
H8 H 0.0625 0.1467 0.3049
H10 H 0.1004 0.2442 0.2116
Mn3 Mn 0.30896(9) 0.41771(3) 0.10233(3)
P1 P 0.80670(15) 0.30961(5) 0.07791(5)
O4 O 0.6266(4) 0.37321(15) 0.07825(16)
O5 O 0.5018(5) 0.03417(15) 0.34116(16)
O6 O 0.8820(5) 0.02104(17) 0.35806(19)
C8 C 0.7245(7) 0.1219(2) 0.2695(2)
C9 C 0.9355(7) 0.1601(2) 0.2680(2)
C10 C 0.5371(7) 0.1433(2) 0.2150(3)
H9 H 0.3938 0.1188 0.2165
C11 C 0.9586(7) 0.2184(2) 0.2117(2)
C12 C 0.5598(7) 0.2007(2) 0.1580(3)
H11 H 0.4325 0.2140 0.1212
C13 C 0.7717(6) 0.2385(2) 0.1556(2)
C14 C 0.7031(7) 0.0562(2) 0.3274(2)
O1 O 0.4047(5) 0.12028(17) 0.73222(16)
O2 O 0.7454(6) 0.0598(2) 0.7662(2)
H1 H 0.6959 0.0303 0.7295
C1 C 0.5862(7) 0.1126(2) 0.7764(2)
C2 C 0.6473(7) 0.1630(2) 0.8485(2)
C3 C 0.4842(7) 0.2156(3) 0.8704(2)
H4 H 0.3407 0.2203 0.8391
C4 C 0.8624(7) 0.1566(3) 0.8950(3)
H5 H 0.9733 0.1213 0.8808
C5 C 0.5326(7) 0.2614(2) 0.9384(2)
H6 H 0.4215 0.2966 0.9527
C6 C 0.9099(7) 0.2027(3) 0.9623(2)
C7 C 0.7453(7) 0.2551(2) 0.9854(2)
Mn4 Mn 0.30896(9) 0.08229(3) 0.60233(3)
Mn1 Mn 0.69104(9) 0.91771(3) 0.39767(3)
O7 O 0.7547(6) 0.9566(3) 0.52111(19)
H2 H 0.8793 0.9378 0.5459
H3 H 0.6400 0.9483 0.5474
O8 O 0.5953(5) 0.87972(17) 0.26778(16)
O9 O 0.9423(4) 0.83347(15) 0.41356(15)
O10 O 0.3734(4) 0.87321(15) 0.42175(16)
P1_2 P 0.19330(15) 0.80961(5) 0.42209(5)
O1_2 O 0.5953(5) 0.62028(17) 0.76778(16)
O2_2 O 0.2546(6) 0.5598(2) 0.7338(2)
H1_2 H 0.3041 0.5303 0.7705
O5_2 O 0.4982(5) 0.53417(15) 0.15884(16)
O6_2 O 0.1180(5) 0.52104(17) 0.14194(19)
C1_2 C 0.4138(7) 0.6126(2) 0.7236(2)
C2_2 C 0.3527(7) 0.6630(2) 0.6515(2)
C3_2 C 0.5158(7) 0.7156(3) 0.6296(2)
H4_2 H 0.6593 0.7203 0.6609
C4_2 C 0.1376(7) 0.6566(3) 0.6050(3)
H5_2 H 0.0267 0.6213 0.6192
C5_2 C 0.4674(7) 0.7614(2) 0.5616(2)
H6_2 H 0.5785 0.7966 0.5473
C6_2 C 0.0901(7) 0.7027(3) 0.5377(2)
C7_2 C 0.2547(7) 0.7551(2) 0.5146(2)
C8_2 C 0.2755(7) 0.6219(2) 0.2305(2)
C9_2 C 0.0645(7) 0.6601(2) 0.2320(2)
C10_2 C 0.4629(7) 0.6433(2) 0.2850(3)
H9_2 H 0.6062 0.6188 0.2835
C11_2 C 0.0414(7) 0.7184(2) 0.2883(2)
C12_2 C 0.4402(7) 0.7007(2) 0.3420(3)
H11_2 H 0.5675 0.7140 0.3788
C13_2 C 0.2283(6) 0.7385(2) 0.3444(2)
C14_2 C 0.2969(7) 0.5562(2) 0.1726(2)
Mn4_2 Mn 0.69104(9) 0.58229(3) 0.89767(3)
O8_2 O 0.4047(5) 0.37972(17) 0.23222(16)
H7 H 0.9454 0.6988 0.5071
H8_2 H 0.9375 0.6467 0.1951
H10_2 H 0.8996 0.7442 0.2884
O7_2 O 0.2453(6) 0.0434(3) 0.47889(19)
H2_2 H 0.1207 0.0622 0.4541
H3_2 H 0.3600 0.0517 0.4526
O9_2 O 0.0577(4) 0.16653(15) 0.58644(15)
O10_2 O 0.6266(4) 0.12679(15) 0.57825(16)
O2_3 O 0.2546(6) 0.9402(2) 0.2338(2)
H1_3 H 0.3041 0.9697 0.2705
C1_3 C 0.4138(7) 0.8874(2) 0.2236(2)
C2_3 C 0.3527(7) 0.8370(2) 0.1515(2)
C3_3 C 0.5158(7) 0.7844(3) 0.1296(2)
H4_3 H 0.6593 0.7797 0.1609
C4_3 C 0.1376(7) 0.8434(3) 0.1050(3)
H5_3 H 0.0267 0.8787 0.1192
C5_3 C 0.4674(7) 0.7386(2) 0.0616(2)
H6_3 H 0.5785 0.7034 0.0473
C6_3 C 0.0901(7) 0.7973(3) 0.0377(2)
C7_3 C 0.2547(7) 0.7449(2) 0.0146(2)
P1_3 P 0.19330(15) 0.69039(5) 0.92209(5)
O4_2 O 0.3734(4) 0.62679(15) 0.92175(16)
O5_3 O 0.4982(5) 0.96583(15) 0.65884(16)
O6_3 O 0.1180(5) 0.97896(17) 0.64194(19)
C8_3 C 0.2755(7) 0.8781(2) 0.7305(2)
C9_3 C 0.0645(7) 0.8399(2) 0.7320(2)
C10_3 C 0.4629(7) 0.8567(2) 0.7850(3)
H9_3 H 0.6062 0.8812 0.7835
C11_3 C 0.0414(7) 0.7816(2) 0.7883(2)
C12_3 C 0.4402(7) 0.7993(2) 0.8420(3)
H11_3 H 0.5675 0.7860 0.8788
C13_3 C 0.2283(6) 0.7615(2) 0.8444(2)
C14_3 C 0.2969(7) 0.9438(2) 0.6726(2)
O3_2 O 0.9423(4) 0.66653(15) 0.91356(15)
H8_3 H 0.9375 0.8533 0.6951
H10_3 H 0.8996 0.7558 0.7884
H7_2 H 0.0546 0.3012 0.4929
H8_4 H 0.0625 0.3533 0.8049
H10_4 H 0.1004 0.2558 0.7116
P1_4 P 0.80670(15) 0.19039(5) 0.57791(5)
O2_4 O 0.7454(6) 0.4402(2) 0.2662(2)
H1_4 H 0.6959 0.4697 0.2295
O5_4 O 0.5018(5) 0.46583(15) 0.84116(16)
O6_4 O 0.8820(5) 0.47896(17) 0.85806(19)
C1_4 C 0.5862(7) 0.3874(2) 0.2764(2)
C2_4 C 0.6473(7) 0.3370(2) 0.3485(2)
C3_4 C 0.4842(7) 0.2844(3) 0.3704(2)
H4_4 H 0.3407 0.2797 0.3391
C4_4 C 0.8624(7) 0.3434(3) 0.3950(3)
H5_4 H 0.9733 0.3787 0.3808
C5_4 C 0.5326(7) 0.2386(2) 0.4384(2)
H6_4 H 0.4215 0.2034 0.4527
C6_4 C 0.9099(7) 0.2973(3) 0.4623(2)
C7_4 C 0.7453(7) 0.2449(2) 0.4854(2)
C8_4 C 0.7245(7) 0.3781(2) 0.7695(2)
C9_4 C 0.9355(7) 0.3399(2) 0.7680(2)
C10_4 C 0.5371(7) 0.3567(2) 0.7150(3)
H9_4 H 0.3938 0.3812 0.7165
C11_4 C 0.9586(7) 0.2816(2) 0.7117(2)
C12_4 C 0.5598(7) 0.2993(2) 0.6580(3)
H11_4 H 0.4325 0.2860 0.6212
C13_4 C 0.7717(6) 0.2615(2) 0.6556(2)
C14_4 C 0.7031(7) 0.4438(2) 0.8274(2)
H7_3 H 0.0546 0.1988 0.9929
O7_3 O 0.2453(6) 0.4566(3) 0.97889(19)
H2_3 H 0.1207 0.4378 0.9541
H3_3 H 0.3600 0.4483 0.9526
H7_4 H 0.9454 0.8012 0.0071
O7_4 O 0.7547(6) 0.5434(3) 0.02111(19)
H2_4 H 0.8793 0.5622 0.0459
H3_4 H 0.6400 0.5517 0.0474
loop_
_geom_bond_atom_site_label_1
_geom_bond_atom_site_label_2
_geom_bond_site_symmetry_1
_geom_bond_site_symmetry_2
O3 Mn3 1_555 1_555
O4 P1 1_555 1_555
O5 C14 1_555 1_555
C8 C9 1_555 1_555
C10 C8 1_555 1_555
H9 C10 1_555 1_555
C11 C9 1_555 1_555
C12 C10 1_555 1_555
H11 C12 1_555 1_555
C13 P1 1_555 1_555
C14 O6 1_555 1_555
Mn3 O4 1_555 1_555
C8 C14 1_555 1_555
C11 C13 1_555 1_555
C12 C13 1_555 1_555
O1 C1 1_555 1_555
O2 H1 1_555 1_555
C1 O2 1_555 1_555
C2 C1 1_555 1_555
C3 C2 1_555 1_555
H4 C3 1_555 1_555
C4 C2 1_555 1_555
H5 C4 1_555 1_555
C5 C3 1_555 1_555
H6 C5 1_555 1_555
C6 C4 1_555 1_555
Mn4 O1 1_555 1_555
C5 C7 1_555 1_555
C6 C7 1_555 1_555
O7 Mn1 1_555 1_555
H2 O7 1_555 1_555
H3 O7 1_555 1_555
O8 Mn1 1_555 1_555
O9 Mn1 1_555 1_555
O10 Mn1 1_555 1_555
Mn3 O5_2 1_555 1_555
O1_2 C1_2 1_555 1_555
O2_2 H1_2 1_555 1_555
O10 P1_2 1_555 1_555
O5_2 C14_2 1_555 1_555
O6_2 Mn3 1_555 1_555
C1_2 O2_2 1_555 1_555
C2_2 C1_2 1_555 1_555
C3_2 C2_2 1_555 1_555
H4_2 C3_2 1_555 1_555
C4_2 C2_2 1_555 1_555
H5_2 C4_2 1_555 1_555
C5_2 C3_2 1_555 1_555
H6_2 C5_2 1_555 1_555
C6_2 C4_2 1_555 1_555
C7_2 P1_2 1_555 1_555
C8_2 C9_2 1_555 1_555
C10_2 C8_2 1_555 1_555
H9_2 C10_2 1_555 1_555
C11_2 C9_2 1_555 1_555
C12_2 C10_2 1_555 1_555
H11_2 C12_2 1_555 1_555
C13_2 P1_2 1_555 1_555
C14_2 O6_2 1_555 1_555
Mn4_2 O1_2 1_555 1_555
O8_2 Mn3 1_555 1_555
C5_2 C7_2 1_555 1_555
C6_2 C7_2 1_555 1_555
C8_2 C14_2 1_555 1_555
C11_2 C13_2 1_555 1_555
C12_2 C13_2 1_555 1_555
O7_2 Mn4 1_555 1_555
H2_2 O7_2 1_555 1_555
H3_2 O7_2 1_555 1_555
O9_2 Mn4 1_555 1_555
O10_2 Mn4 1_555 1_555
O8 C1_3 1_555 1_555
O2_3 H1_3 1_555 1_555
C1_3 O2_3 1_555 1_555
C2_3 C1_3 1_555 1_555
C3_3 C2_3 1_555 1_555
H4_3 C3_3 1_555 1_555
C4_3 C2_3 1_555 1_555
H5_3 C4_3 1_555 1_555
C5_3 C3_3 1_555 1_555
H6_3 C5_3 1_555 1_555
C6_3 C4_3 1_555 1_555
C5_3 C7_3 1_555 1_555
C6_3 C7_3 1_555 1_555
O4_2 P1_3 1_555 1_555
O5_3 C14_3 1_555 1_555
C8_3 C9_3 1_555 1_555
C10_3 C8_3 1_555 1_555
H9_3 C10_3 1_555 1_555
C11_3 C9_3 1_555 1_555
C12_3 C10_3 1_555 1_555
H11_3 C12_3 1_555 1_555
C13_3 P1_3 1_555 1_555
C14_3 O6_3 1_555 1_555
Mn4_2 O4_2 1_555 1_555
C8_3 C14_3 1_555 1_555
C11_3 C13_3 1_555 1_555
C12_3 C13_3 1_555 1_555
O3_2 Mn4_2 1_555 1_555
Mn4_2 O5_4 1_555 1_555
O8_2 C1_4 1_555 1_555
O2_4 H1_4 1_555 1_555
O10_2 P1_4 1_555 1_555
O5_4 C14_4 1_555 1_555
O6_4 Mn4_2 1_555 1_555
C1_4 O2_4 1_555 1_555
C2_4 C1_4 1_555 1_555
C3_4 C2_4 1_555 1_555
H4_4 C3_4 1_555 1_555
C4_4 C2_4 1_555 1_555
H5_4 C4_4 1_555 1_555
C5_4 C3_4 1_555 1_555
H6_4 C5_4 1_555 1_555
C6_4 C4_4 1_555 1_555
C7_4 P1_4 1_555 1_555
C8_4 C9_4 1_555 1_555
C10_4 C8_4 1_555 1_555
H9_4 C10_4 1_555 1_555
C11_4 C9_4 1_555 1_555
C12_4 C10_4 1_555 1_555
H11_4 C12_4 1_555 1_555
C13_4 P1_4 1_555 1_555
C14_4 O6_4 1_555 1_555
C5_4 C7_4 1_555 1_555
C6_4 C7_4 1_555 1_555
C8_4 C14_4 1_555 1_555
C11_4 C13_4 1_555 1_555
C12_4 C13_4 1_555 1_555
H2_3 O7_3 1_555 1_555
H3_3 O7_3 1_555 1_555
H2_4 O7_4 1_555 1_555
H3_4 O7_4 1_555 1_555

#END
