
###############################################################################
#
# This file contains modified crystal structure data generated from the
# MOF subset of the Cambridge Structural Database (CSD) v543 
# hosted by the Cambridge Crystallographic Data Centre (CCDC).
#
# This work is licensed under the Creative Commons
# Attribution-NonCommercial-ShareAlike 4.0 International License.
# To view a copy of this license, visit
# http://creativecommons.org/licenses/by-nc-sa/4.0/
# or send a letter to
# Creative Commons, PO Box 1866, Mountain View, CA 94042, USA.
#
# CIF created using the CSD Python API on 29 September 2022
# The structure has been converted into the P1 space group
# The structure has a 3D framework
# The original CSD entry YAJZIV is in the monoclinic crystal system
# The framework has been calculated to contain at least 10.0% void space
# The void calculation uses a probe of radius 1.32A, grid spacing 0.4
#
###############################################################################

data_YAJZIV
_chemical_formula_moiety         '(C72 H48 Dy8 K6 O96 S8)n'
_symmetry_cell_setting           triclinic
_symmetry_space_group_name_H-M   'P 1'
_symmetry_Int_Tables_number      1
_space_group_name_Hall           'P 1'
loop_
_symmetry_equiv_pos_site_id
_symmetry_equiv_pos_as_xyz
1 x,y,z
_cell_length_a                   18.2898(12)
_cell_length_b                   9.3102(6)
_cell_length_c                   22.2027(14)
_cell_angle_alpha                90
_cell_angle_beta                 112.5560(10)
_cell_angle_gamma                90
_cell_volume                     3491.51
loop_
_atom_site_label
_atom_site_type_symbol
_atom_site_fract_x
_atom_site_fract_y
_atom_site_fract_z
S1 S 0.19593(11) 0.18617(19) 0.10797(9)
O2 O 0.1865(4) 0.1936(8) 0.0405(3)
C1 C 0.0987(4) 0.1917(8) 0.1082(4)
O3 O 0.1992(3) 0.1485(7) 0.2585(3)
O6 O 0.1515(4) 0.3637(7) 0.2607(3)
O7 O 0.2327(3) 0.0515(6) 0.1383(3)
C4 C 0.0865(5) 0.2260(8) 0.1656(4)
C6 C 0.0346(5) 0.1756(8) 0.0502(4)
H1 H 0.0437 0.1533 0.0114
C8 C 0.0097(5) 0.2424(10) 0.1610(4)
H4 H 0.0007 0.2679 0.1994
C9 C 0.1506(4) 0.2476(9) 0.2317(4)
O10 O 0.2368(4) 0.3081(6) 0.1465(3)
Dy3 Dy 0.264988(19) 0.30190(4) 0.358595(15)
K2 K 0.23154(15) 0.4788(2) 0.01396(11)
K5 K 0.26846(15) 0.0212(2) 0.98604(11)
Dy1 Dy 0.235012(19) 0.80190(4) 0.141405(15)
O9 O 0.1717(4) 0.8660(8) 0.2121(3)
H2 H 0.1904 0.9453 0.2305
H3 H 0.1799 0.8011 0.2409
O11 O 0.1677(4) 0.5799(7) 0.1239(4)
O14 O 0.1793(3) 0.7947(7) 0.0219(3)
O17 O 0.3008(3) 0.6485(7) 0.2415(3)
O18 O 0.3409(4) 0.8739(6) 0.1047(3)
O20 O 0.0975(3) 0.8483(7) 0.0693(3)
O21 O 0.3485(4) 0.8637(7) 0.2393(3)
O22 O 0.3282(3) 0.6436(7) 0.1176(3)
O12 O 0.045(3) 0.408(2) 0.9215(15)
H5 H 0.0429 0.3418 0.8949
H6 H 0.0228 0.4836 0.9005
O13 O 0.3207(3) 0.7053(7) 0.9781(3)
O16 O 0.3135(4) 0.3064(8) 0.9595(3)
O19 O 0.1591(4) 0.6261(6) 0.8953(3)
C3 C 0.9576(5) 0.1899(8) 0.0463(4)
O4 O 0.8409(4) 0.3739(6) 0.1047(3)
O8 O 0.8282(3) 0.1436(7) 0.1176(3)
C5 C 0.9444(5) 0.2236(8) 0.1025(4)
C7 C 0.8653(5) 0.2471(10) 0.1065(4)
Dy2 Dy 0.735012(19) 0.30190(4) 0.141405(15)
O1 O 0.8207(3) 0.2053(7) 0.9781(3)
C2 C 0.8897(5) 0.1812(8) 0.9805(4)
O5 O 0.9025(3) 0.1517(7) 0.9307(3)
Dy4 Dy 0.764988(19) 0.19810(4) 0.858595(15)
K4 K 0.76846(15) 0.5212(2) 0.98604(11)
K3 K 0.73154(15) 0.9788(2) 0.01396(11)
O1_2 O 0.1793(3) 0.2053(7) 0.5219(3)
C2_2 C 0.1103(5) 0.1812(8) 0.5195(4)
C3_2 C 0.0424(5) 0.1899(8) 0.4537(4)
O4_2 O 0.1591(4) 0.3739(6) 0.3953(3)
O5_2 O 0.0975(3) 0.1517(7) 0.5693(3)
O8_2 O 0.1718(3) 0.1436(7) 0.3824(3)
C5_2 C 0.0556(5) 0.2236(8) 0.3975(4)
C7_2 C 0.1347(5) 0.2471(10) 0.3935(4)
Dy4_2 Dy 0.235012(19) 0.19810(4) 0.641405(15)
K4_2 K 0.23154(15) 0.5212(2) 0.51396(11)
K3_2 K 0.26846(15) 0.9788(2) 0.48604(11)
S1_2 S 0.80407(11) 0.18617(19) 0.39203(9)
O2_2 O 0.8135(4) 0.1936(8) 0.4595(3)
C1_2 C 0.9013(4) 0.1917(8) 0.3918(4)
O3_2 O 0.8008(3) 0.1485(7) 0.2415(3)
O6_2 O 0.8485(4) 0.3637(7) 0.2393(3)
O7_2 O 0.7673(3) 0.0515(6) 0.3617(3)
C4_2 C 0.9135(5) 0.2260(8) 0.3344(4)
C6_2 C 0.9654(5) 0.1756(8) 0.4498(4)
H1_2 H 0.9563 0.1533 0.4886
C8_2 C 0.9903(5) 0.2424(10) 0.3390(4)
H4_2 H 0.9993 0.2679 0.3006
C9_2 C 0.8494(4) 0.2476(9) 0.2683(4)
O10_2 O 0.7632(4) 0.3081(6) 0.3535(3)
K2_2 K 0.76846(15) 0.4788(2) 0.48604(11)
K5_2 K 0.73154(15) 0.0212(2) 0.51396(11)
Dy1_2 Dy 0.764988(19) 0.80190(4) 0.358595(15)
O9_2 O 0.8283(4) 0.8660(8) 0.2879(3)
H2_2 H 0.8096 0.9453 0.2695
H3_2 H 0.8201 0.8011 0.2591
O11_2 O 0.8323(4) 0.5799(7) 0.3761(4)
O12_2 O 0.955(3) 0.408(2) 0.5785(15)
H5_2 H 0.9571 0.3418 0.6051
H6_2 H 0.9772 0.4836 0.5995
O13_2 O 0.6793(3) 0.7053(7) 0.5219(3)
O14_2 O 0.8207(3) 0.7947(7) 0.4781(3)
O16_2 O 0.6865(4) 0.3064(8) 0.5405(3)
O17_2 O 0.6992(3) 0.6485(7) 0.2585(3)
O18_2 O 0.6591(4) 0.8739(6) 0.3953(3)
O19_2 O 0.8409(4) 0.6261(6) 0.6047(3)
O20_2 O 0.9025(3) 0.8483(7) 0.4307(3)
O21_2 O 0.6515(4) 0.8637(7) 0.2607(3)
O22_2 O 0.6718(3) 0.6436(7) 0.3824(3)
S1_3 S 0.69593(11) 0.68617(19) 0.10797(9)
O2_3 O 0.6865(4) 0.6936(8) 0.0405(3)
C1_3 C 0.5987(4) 0.6917(8) 0.1082(4)
C3_3 C 0.4576(5) 0.6899(8) 0.0463(4)
O7_3 O 0.7327(3) 0.5515(6) 0.1383(3)
C4_3 C 0.5865(5) 0.7260(8) 0.1656(4)
C5_3 C 0.4444(5) 0.7236(8) 0.1025(4)
C6_3 C 0.5346(5) 0.6756(8) 0.0502(4)
H1_3 H 0.5437 0.6533 0.0114
O9_3 O 0.6717(4) 0.3660(8) 0.2121(3)
H2_3 H 0.6904 0.4453 0.2305
H3_3 H 0.6799 0.3011 0.2409
C7_3 C 0.3653(5) 0.7471(10) 0.1065(4)
C8_3 C 0.5097(5) 0.7424(10) 0.1610(4)
H4_3 H 0.5007 0.7679 0.1994
C9_3 C 0.6506(4) 0.7476(9) 0.2317(4)
O10_3 O 0.7368(4) 0.8081(6) 0.1465(3)
O11_3 O 0.6677(4) 0.0799(7) 0.1239(4)
O14_3 O 0.6793(3) 0.2947(7) 0.0219(3)
O20_3 O 0.5975(3) 0.3483(7) 0.0693(3)
C2_3 C 0.3897(5) 0.6812(8) 0.9805(4)
O5_3 O 0.4025(3) 0.6517(7) 0.9307(3)
Dy4_3 Dy 0.264988(19) 0.69810(4) 0.858595(15)
O19_3 O 0.6591(4) 0.1261(6) 0.8953(3)
O12_3 O 0.545(3) 0.908(2) 0.9215(15)
H5_3 H 0.5429 0.8418 0.8949
H6_3 H 0.5228 0.9836 0.9005
O16_3 O 0.8135(4) 0.8064(8) 0.9595(3)
S1_4 S 0.30407(11) 0.68617(19) 0.39203(9)
O2_4 O 0.3135(4) 0.6936(8) 0.4595(3)
C1_4 C 0.4013(4) 0.6917(8) 0.3918(4)
C2_4 C 0.6103(5) 0.6812(8) 0.5195(4)
C3_4 C 0.5424(5) 0.6899(8) 0.4537(4)
O5_4 O 0.5975(3) 0.6517(7) 0.5693(3)
O7_4 O 0.2673(3) 0.5515(6) 0.3617(3)
C4_4 C 0.4135(5) 0.7260(8) 0.3344(4)
C5_4 C 0.5556(5) 0.7236(8) 0.3975(4)
C6_4 C 0.4654(5) 0.6756(8) 0.4498(4)
H1_4 H 0.4563 0.6533 0.4886
O9_4 O 0.3283(4) 0.3660(8) 0.2879(3)
H2_4 H 0.3096 0.4453 0.2695
H3_4 H 0.3201 0.3011 0.2591
C7_4 C 0.6347(5) 0.7471(10) 0.3935(4)
C8_4 C 0.4903(5) 0.7424(10) 0.3390(4)
H4_4 H 0.4993 0.7679 0.3006
C9_4 C 0.3494(4) 0.7476(9) 0.2683(4)
O10_4 O 0.2632(4) 0.8081(6) 0.3535(3)
O11_4 O 0.3323(4) 0.0799(7) 0.3761(4)
Dy4_4 Dy 0.735012(19) 0.69810(4) 0.641405(15)
O14_4 O 0.3207(3) 0.2947(7) 0.4781(3)
O19_4 O 0.3409(4) 0.1261(6) 0.6047(3)
O20_4 O 0.4025(3) 0.3483(7) 0.4307(3)
O12_4 O 0.455(3) 0.908(2) 0.5785(15)
H5_4 H 0.4571 0.8418 0.6051
H6_4 H 0.4772 0.9836 0.5995
O16_4 O 0.1865(4) 0.8064(8) 0.5405(3)
C2_5 C 0.1103(5) 0.8188(8) 0.0195(4)
C3_5 C 0.0424(5) 0.8101(8) 0.9537(4)
O8_3 O 0.1718(3) 0.8564(7) 0.8824(3)
C5_5 C 0.0556(5) 0.7764(8) 0.8975(4)
C7_5 C 0.1347(5) 0.7529(10) 0.8935(4)
O12_5 O 0.955(3) 0.592(2) 0.0785(15)
H5_5 H 0.9571 0.6582 0.1051
H6_5 H 0.9772 0.5164 0.0995
O9_5 O 0.8283(4) 0.1340(8) 0.7879(3)
H2_5 H 0.8096 0.0547 0.7695
H3_5 H 0.8201 0.1989 0.7591
O11_5 O 0.8323(4) 0.4201(7) 0.8761(4)
O17_3 O 0.6992(3) 0.3515(7) 0.7585(3)
O21_3 O 0.6515(4) 0.1363(7) 0.7607(3)
O22_3 O 0.6718(3) 0.3564(7) 0.8824(3)
O23 O 0.7632(4) 0.6919(6) 0.8535(3)
S1_5 S 0.80407(11) 0.81383(19) 0.89203(9)
C1_5 C 0.9013(4) 0.8083(8) 0.8918(4)
O3_3 O 0.8008(3) 0.8515(7) 0.7415(3)
O6_3 O 0.8485(4) 0.6363(7) 0.7393(3)
O7_5 O 0.7673(3) 0.9485(6) 0.8617(3)
C4_5 C 0.9135(5) 0.7740(8) 0.8344(4)
C6_5 C 0.9654(5) 0.8244(8) 0.9498(4)
H1_5 H 0.9563 0.8467 0.9886
C8_5 C 0.9903(5) 0.7576(10) 0.8390(4)
H4_5 H 0.9993 0.7321 0.8006
C9_5 C 0.8494(4) 0.7524(9) 0.7683(4)
O9_6 O 0.1717(4) 0.1340(8) 0.7121(3)
H2_6 H 0.1904 0.0547 0.7305
H3_6 H 0.1799 0.1989 0.7409
O11_6 O 0.1677(4) 0.4201(7) 0.6239(4)
O12_6 O 0.045(3) 0.592(2) 0.4215(15)
H5_6 H 0.0429 0.6582 0.3949
H6_6 H 0.0228 0.5164 0.4005
O17_4 O 0.3008(3) 0.3515(7) 0.7415(3)
O21_4 O 0.3485(4) 0.1363(7) 0.7393(3)
O22_4 O 0.3282(3) 0.3564(7) 0.6176(3)
O23_2 O 0.2368(4) 0.6919(6) 0.6465(3)
S1_6 S 0.19593(11) 0.81383(19) 0.60797(9)
C1_6 C 0.0987(4) 0.8083(8) 0.6082(4)
O3_4 O 0.1992(3) 0.8515(7) 0.7585(3)
O6_4 O 0.1515(4) 0.6363(7) 0.7607(3)
O7_6 O 0.2327(3) 0.9485(6) 0.6383(3)
C4_6 C 0.0865(5) 0.7740(8) 0.6656(4)
C6_6 C 0.0346(5) 0.8244(8) 0.5502(4)
H1_6 H 0.0437 0.8467 0.5114
C8_6 C 0.0097(5) 0.7576(10) 0.6610(4)
H4_6 H 0.0007 0.7321 0.6994
C9_6 C 0.1506(4) 0.7524(9) 0.7317(4)
C2_6 C 0.8897(5) 0.8188(8) 0.4805(4)
C3_6 C 0.9576(5) 0.8101(8) 0.5463(4)
O8_4 O 0.8282(3) 0.8564(7) 0.6176(3)
C5_6 C 0.9444(5) 0.7764(8) 0.6025(4)
C7_6 C 0.8653(5) 0.7529(10) 0.6065(4)
O12_7 O 0.455(3) 0.092(2) 0.0785(15)
H5_7 H 0.4571 0.1582 0.1051
H6_7 H 0.4772 0.0164 0.0995
O23_3 O 0.2632(4) 0.1919(6) 0.8535(3)
C2_7 C 0.6103(5) 0.3188(8) 0.0195(4)
S1_7 S 0.30407(11) 0.31383(19) 0.89203(9)
C1_7 C 0.4013(4) 0.3083(8) 0.8918(4)
C3_7 C 0.5424(5) 0.3101(8) 0.9537(4)
O7_7 O 0.2673(3) 0.4485(6) 0.8617(3)
C4_7 C 0.4135(5) 0.2740(8) 0.8344(4)
C5_7 C 0.5556(5) 0.2764(8) 0.8975(4)
C6_7 C 0.4654(5) 0.3244(8) 0.9498(4)
H1_7 H 0.4563 0.3467 0.9886
O9_7 O 0.3283(4) 0.6340(8) 0.7879(3)
H2_7 H 0.3096 0.5547 0.7695
H3_7 H 0.3201 0.6989 0.7591
C7_7 C 0.6347(5) 0.2529(10) 0.8935(4)
C8_7 C 0.4903(5) 0.2576(10) 0.8390(4)
H4_7 H 0.4993 0.2321 0.8006
C9_7 C 0.3494(4) 0.2524(9) 0.7683(4)
O11_7 O 0.3323(4) 0.9201(7) 0.8761(4)
O12_8 O 0.545(3) 0.092(2) 0.4215(15)
H5_8 H 0.5429 0.1582 0.3949
H6_8 H 0.5228 0.0164 0.4005
O23_4 O 0.7368(4) 0.1919(6) 0.6465(3)
S1_8 S 0.69593(11) 0.31383(19) 0.60797(9)
C1_8 C 0.5987(4) 0.3083(8) 0.6082(4)
C2_8 C 0.3897(5) 0.3188(8) 0.4805(4)
C3_8 C 0.4576(5) 0.3101(8) 0.5463(4)
O7_8 O 0.7327(3) 0.4485(6) 0.6383(3)
C4_8 C 0.5865(5) 0.2740(8) 0.6656(4)
C5_8 C 0.4444(5) 0.2764(8) 0.6025(4)
C6_8 C 0.5346(5) 0.3244(8) 0.5502(4)
H1_8 H 0.5437 0.3467 0.5114
O9_8 O 0.6717(4) 0.6340(8) 0.7121(3)
H2_8 H 0.6904 0.5547 0.7305
H3_8 H 0.6799 0.6989 0.7409
C7_8 C 0.3653(5) 0.2529(10) 0.6065(4)
C8_8 C 0.5097(5) 0.2576(10) 0.6610(4)
H4_8 H 0.5007 0.2321 0.6994
C9_8 C 0.6506(4) 0.2524(9) 0.7317(4)
O11_8 O 0.6677(4) 0.9201(7) 0.6239(4)
loop_
_geom_bond_atom_site_label_1
_geom_bond_atom_site_label_2
_geom_bond_site_symmetry_1
_geom_bond_site_symmetry_2
S1 O2 1_555 1_555
O2 K2 1_555 1_555
C1 S1 1_555 1_555
O3 C9 1_555 1_555
O6 C9 1_555 1_555
O7 S1 1_555 1_555
C4 C1 1_555 1_555
C6 C1 1_555 1_555
H1 C6 1_555 1_555
C8 C4 1_555 1_555
H4 C8 1_555 1_555
C9 C4 1_555 1_555
O10 S1 1_555 1_555
Dy3 O3 1_555 1_555
K2 O10 1_555 1_555
O6 Dy3 1_555 1_555
O9 Dy1 1_555 1_555
H2 O9 1_555 1_555
H3 O9 1_555 1_555
K2 O11 1_555 1_555
O11 Dy1 1_555 1_555
O14 Dy1 1_555 1_555
O17 Dy1 1_555 1_555
O18 Dy1 1_555 1_555
O20 Dy1 1_555 1_555
O21 Dy1 1_555 1_555
O22 Dy1 1_555 1_555
K2 O14 1_555 1_555
K2 O22 1_555 1_555
H5 O12 1_555 1_555
H6 O12 1_555 1_555
C3 C5 1_555 1_555
O4 C7 1_555 1_555
O8 C7 1_555 1_555
C5 C7 1_555 1_555
Dy2 O4 1_555 1_555
O8 Dy2 1_555 1_555
O1 C2 1_555 1_555
O5 C2 1_555 1_555
Dy4 O1 1_555 1_555
K4 O1 1_555 1_555
O5 Dy4 1_555 1_555
O1_2 C2_2 1_555 1_555
C2_2 C3_2 1_555 1_555
C3_2 C5_2 1_555 1_555
O4_2 C7_2 1_555 1_555
O5_2 C2_2 1_555 1_555
O8_2 C7_2 1_555 1_555
C5_2 C7_2 1_555 1_555
Dy3 O4_2 1_555 1_555
Dy4_2 O1_2 1_555 1_555
K4_2 O1_2 1_555 1_555
O4_2 K4_2 1_555 1_555
O5_2 Dy4_2 1_555 1_555
O8_2 Dy3 1_555 1_555
S1_2 O2_2 1_555 1_555
O2_2 K2_2 1_555 1_555
C1_2 S1_2 1_555 1_555
O3_2 C9_2 1_555 1_555
O6_2 C9_2 1_555 1_555
O7_2 S1_2 1_555 1_555
C4_2 C1_2 1_555 1_555
C6_2 C1_2 1_555 1_555
H1_2 C6_2 1_555 1_555
C8_2 C4_2 1_555 1_555
H4_2 C8_2 1_555 1_555
C9_2 C4_2 1_555 1_555
O10_2 S1_2 1_555 1_555
Dy2 O3_2 1_555 1_555
K2_2 O10_2 1_555 1_555
K5_2 O2_2 1_555 1_555
O6_2 Dy2 1_555 1_555
O9_2 Dy1_2 1_555 1_555
H2_2 O9_2 1_555 1_555
H3_2 O9_2 1_555 1_555
K2_2 O11_2 1_555 1_555
O11_2 Dy1_2 1_555 1_555
O12_2 K2_2 1_555 1_555
H5_2 O12_2 1_555 1_555
H6_2 O12_2 1_555 1_555
O13_2 K2_2 1_555 1_555
O14_2 Dy1_2 1_555 1_555
O16_2 K2_2 1_555 1_555
O17_2 Dy1_2 1_555 1_555
O18_2 Dy1_2 1_555 1_555
O19_2 K2_2 1_555 1_555
O20_2 Dy1_2 1_555 1_555
O21_2 Dy1_2 1_555 1_555
O22_2 Dy1_2 1_555 1_555
K2_2 O14_2 1_555 1_555
K2_2 O22_2 1_555 1_555
Dy2 O7_3 1_555 1_555
S1_3 O2_3 1_555 1_555
O2_3 K3 1_555 1_555
C1_3 S1_3 1_555 1_555
C3_3 C5_3 1_555 1_555
O17_2 C9_3 1_555 1_555
O18 C7_3 1_555 1_555
O21_2 C9_3 1_555 1_555
O7_3 S1_3 1_555 1_555
O22 C7_3 1_555 1_555
C4_3 C1_3 1_555 1_555
C5_3 C7_3 1_555 1_555
C6_3 C1_3 1_555 1_555
H1_3 C6_3 1_555 1_555
O9_3 Dy2 1_555 1_555
H2_3 O9_3 1_555 1_555
H3_3 O9_3 1_555 1_555
C8_3 C4_3 1_555 1_555
H4_3 C8_3 1_555 1_555
C9_3 C4_3 1_555 1_555
O10_3 S1_3 1_555 1_555
O11_3 Dy2 1_555 1_555
O14_3 Dy2 1_555 1_555
O20_3 Dy2 1_555 1_555
K3 O10_3 1_555 1_555
C3_3 C6_3 1_555 1_555
C5_3 C8_3 1_555 1_555
O13 C2_3 1_555 1_555
O5_3 C2_3 1_555 1_555
Dy4_3 O13 1_555 1_555
O5_3 Dy4_3 1_555 1_555
H5_3 O12_3 1_555 1_555
H6_3 O12_3 1_555 1_555
Dy3 O7_4 1_555 1_555
S1_4 O2_4 1_555 1_555
O13_2 C2_4 1_555 1_555
O2_4 K3_2 1_555 1_555
C1_4 S1_4 1_555 1_555
C2_4 C3_4 1_555 1_555
C3_4 C5_4 1_555 1_555
O17 C9_4 1_555 1_555
O18_2 C7_4 1_555 1_555
O5_4 C2_4 1_555 1_555
O21 C9_4 1_555 1_555
O7_4 S1_4 1_555 1_555
O22_2 C7_4 1_555 1_555
C4_4 C1_4 1_555 1_555
C5_4 C7_4 1_555 1_555
C6_4 C1_4 1_555 1_555
H1_4 C6_4 1_555 1_555
O9_4 Dy3 1_555 1_555
H2_4 O9_4 1_555 1_555
H3_4 O9_4 1_555 1_555
C8_4 C4_4 1_555 1_555
H4_4 C8_4 1_555 1_555
C9_4 C4_4 1_555 1_555
O10_4 S1_4 1_555 1_555
O11_4 Dy3 1_555 1_555
Dy4_4 O13_2 1_555 1_555
O14_4 Dy3 1_555 1_555
O20_4 Dy3 1_555 1_555
K3_2 O10_4 1_555 1_555
K4_2 O2_4 1_555 1_555
C3_4 C6_4 1_555 1_555
O5_4 Dy4_4 1_555 1_555
C5_4 C8_4 1_555 1_555
O14_4 K4_2 1_555 1_555
O12_4 K3_2 1_555 1_555
H5_4 O12_4 1_555 1_555
H6_4 O12_4 1_555 1_555
O16_4 K3_2 1_555 1_555
O14 C2_5 1_555 1_555
O20 C2_5 1_555 1_555
C3_5 C5_5 1_555 1_555
O19 C7_5 1_555 1_555
O8_3 C7_5 1_555 1_555
C5_5 C7_5 1_555 1_555
Dy4_3 O19 1_555 1_555
O8_3 Dy4_3 1_555 1_555
H5_5 O12_5 1_555 1_555
H6_5 O12_5 1_555 1_555
O9_5 Dy4 1_555 1_555
H2_5 O9_5 1_555 1_555
H3_5 O9_5 1_555 1_555
K4 O11_5 1_555 1_555
O11_5 Dy4 1_555 1_555
O16_3 K4 1_555 1_555
O17_3 Dy4 1_555 1_555
O19_3 Dy4 1_555 1_555
O21_3 Dy4 1_555 1_555
O22_3 Dy4 1_555 1_555
O23 K4 1_555 1_555
K4 O22_3 1_555 1_555
S1_5 O16_3 1_555 1_555
C1_5 S1_5 1_555 1_555
O3_3 C9_5 1_555 1_555
O6_3 C9_5 1_555 1_555
O7_5 S1_5 1_555 1_555
C4_5 C1_5 1_555 1_555
C6_5 C1_5 1_555 1_555
H1_5 C6_5 1_555 1_555
C8_5 C4_5 1_555 1_555
H4_5 C8_5 1_555 1_555
C9_5 C4_5 1_555 1_555
O23 S1_5 1_555 1_555
Dy4_4 O3_3 1_555 1_555
O6_3 Dy4_4 1_555 1_555
O9_6 Dy4_2 1_555 1_555
H2_6 O9_6 1_555 1_555
H3_6 O9_6 1_555 1_555
K4_2 O11_6 1_555 1_555
O11_6 Dy4_2 1_555 1_555
O12_6 K4_2 1_555 1_555
H5_6 O12_6 1_555 1_555
H6_6 O12_6 1_555 1_555
O16_4 K4_2 1_555 1_555
O17_4 Dy4_2 1_555 1_555
O19_4 Dy4_2 1_555 1_555
O21_4 Dy4_2 1_555 1_555
O22_4 Dy4_2 1_555 1_555
O23_2 K4_2 1_555 1_555
K4_2 O22_4 1_555 1_555
S1_6 O16_4 1_555 1_555
C1_6 S1_6 1_555 1_555
O3_4 C9_6 1_555 1_555
O6_4 C9_6 1_555 1_555
O7_6 S1_6 1_555 1_555
C4_6 C1_6 1_555 1_555
C6_6 C1_6 1_555 1_555
H1_6 C6_6 1_555 1_555
C8_6 C4_6 1_555 1_555
H4_6 C8_6 1_555 1_555
C9_6 C4_6 1_555 1_555
O23_2 S1_6 1_555 1_555
Dy4_3 O3_4 1_555 1_555
O6_4 Dy4_3 1_555 1_555
O14_2 C2_6 1_555 1_555
C2_6 C3_6 1_555 1_555
C3_6 C5_6 1_555 1_555
O19_2 C7_6 1_555 1_555
O20_2 C2_6 1_555 1_555
O8_4 C7_6 1_555 1_555
C5_6 C7_6 1_555 1_555
Dy4_4 O19_2 1_555 1_555
O8_4 Dy4_4 1_555 1_555
H5_7 O12_7 1_555 1_555
H6_7 O12_7 1_555 1_555
O16 K5 1_555 1_555
O23_3 K5 1_555 1_555
O14_3 C2_7 1_555 1_555
O20_3 C2_7 1_555 1_555
Dy4_3 O7_7 1_555 1_555
S1_7 O16 1_555 1_555
C1_7 S1_7 1_555 1_555
C3_7 C5_7 1_555 1_555
O17_4 C9_7 1_555 1_555
O19_3 C7_7 1_555 1_555
O21_4 C9_7 1_555 1_555
O7_7 S1_7 1_555 1_555
O22_3 C7_7 1_555 1_555
C4_7 C1_7 1_555 1_555
C5_7 C7_7 1_555 1_555
C6_7 C1_7 1_555 1_555
H1_7 C6_7 1_555 1_555
O9_7 Dy4_3 1_555 1_555
H2_7 O9_7 1_555 1_555
H3_7 O9_7 1_555 1_555
C8_7 C4_7 1_555 1_555
H4_7 C8_7 1_555 1_555
C9_7 C4_7 1_555 1_555
O23_3 S1_7 1_555 1_555
O11_7 Dy4_3 1_555 1_555
C3_7 C6_7 1_555 1_555
C5_7 C8_7 1_555 1_555
O12_8 K5_2 1_555 1_555
H5_8 O12_8 1_555 1_555
H6_8 O12_8 1_555 1_555
O16_2 K5_2 1_555 1_555
O23_4 K5_2 1_555 1_555
Dy4_4 O7_8 1_555 1_555
S1_8 O16_2 1_555 1_555
O14_4 C2_8 1_555 1_555
C1_8 S1_8 1_555 1_555
C2_8 C3_8 1_555 1_555
C3_8 C5_8 1_555 1_555
O17_3 C9_8 1_555 1_555
O19_4 C7_8 1_555 1_555
O20_4 C2_8 1_555 1_555
O21_3 C9_8 1_555 1_555
O7_8 S1_8 1_555 1_555
O22_4 C7_8 1_555 1_555
C4_8 C1_8 1_555 1_555
C5_8 C7_8 1_555 1_555
C6_8 C1_8 1_555 1_555
H1_8 C6_8 1_555 1_555
O9_8 Dy4_4 1_555 1_555
H2_8 O9_8 1_555 1_555
H3_8 O9_8 1_555 1_555
C8_8 C4_8 1_555 1_555
H4_8 C8_8 1_555 1_555
C9_8 C4_8 1_555 1_555
O23_4 S1_8 1_555 1_555
O11_8 Dy4_4 1_555 1_555
C3_8 C6_8 1_555 1_555
C5_8 C8_8 1_555 1_555

#END
