
###############################################################################
#
# This file contains modified crystal structure data generated from the
# MOF subset of the Cambridge Structural Database (CSD) v543 
# hosted by the Cambridge Crystallographic Data Centre (CCDC).
#
# This work is licensed under the Creative Commons
# Attribution-NonCommercial-ShareAlike 4.0 International License.
# To view a copy of this license, visit
# http://creativecommons.org/licenses/by-nc-sa/4.0/
# or send a letter to
# Creative Commons, PO Box 1866, Mountain View, CA 94042, USA.
#
# CIF created using the CSD Python API on 29 September 2022
# The structure has been converted into the P1 space group
# The structure has a 3D framework
# The original CSD entry YAKBOE is in the orthorhombic crystal system
# The framework has been calculated to contain at least 10.0% void space
# The void calculation uses a probe of radius 1.32A, grid spacing 0.4
#
###############################################################################

data_YAKBOE
_chemical_formula_moiety         '(C128 H66 In2 N20 O18)n'
_symmetry_cell_setting           triclinic
_symmetry_space_group_name_H-M   'P 1'
_symmetry_Int_Tables_number      1
_space_group_name_Hall           'P 1'
loop_
_symmetry_equiv_pos_site_id
_symmetry_equiv_pos_as_xyz
1 x,y,z
_cell_length_a                   7.1665(14)
_cell_length_b                   32.669(7)
_cell_length_c                   17.060(3)
_cell_angle_alpha                90
_cell_angle_beta                 90
_cell_angle_gamma                90
_cell_volume                     3994.13
loop_
_atom_site_label
_atom_site_type_symbol
_atom_site_fract_x
_atom_site_fract_y
_atom_site_fract_z
In1 In 0.2500 0.2500 0.5000
O1 O 0.1531(5) 0.29132(12) 0.4104(2)
O2 O 0.0000 0.21853(16) 0.5000
H1 H 0.0000 0.1901 0.5000
N1 N 0.0000 0.4365(2) 0.0000
N2 N 0.0000 0.5000 0.1196(4)
H2 H -0.0000 0.5000 0.0692
C1 C 0.0000 0.42551(19) 0.1428(4)
C2 C -0.0000 0.41217(18) 0.0654(4)
C3 C 0.0000 0.3707(2) 0.0382(4)
H3 H -0.0000 0.3475 0.0699
C4 C 0.0000 0.46665(19) 0.1675(4)
C5 C 0.0000 0.4793(2) 0.2476(4)
H4 H 0.0000 0.4624 0.2914
C6 C -0.0000 0.3934(2) 0.2053(4)
C7 C 0.1637(13) 0.3791(2) 0.2358(5)
H5 H 0.2766 0.3893 0.2174
C8 C 0.1627(12) 0.3492(2) 0.2944(5)
H6 H 0.2751 0.3393 0.3140
C9 C 0.0000 0.33459(18) 0.3230(4)
C10 C 0.0000 0.30298(17) 0.3865(3)
N3 N 0.0000 0.5635(2) 0.0000
C11 C 0.0000 0.57449(19) 0.1428(4)
C12 C -0.0000 0.58783(18) 0.0654(4)
C13 C 0.0000 0.6293(2) 0.0382(4)
H7 H 0.0000 0.6525 0.0699
C14 C 0.0000 0.53335(19) 0.1675(4)
C15 C 0.0000 0.5207(2) 0.2476(4)
H8 H 0.0000 0.5376 0.2914
C16 C 0.0000 0.6066(2) 0.2053(4)
C19 C 0.0000 0.66541(18) 0.3230(4)
C20 C 0.0000 0.69702(17) 0.3865(3)
O8 O 0.1531(5) 0.70868(12) 0.4104(2)
C45 C 0.1637(13) 0.6209(2) 0.2358(5)
H24 H 0.2766 0.6107 0.2174
C46 C 0.1627(12) 0.6508(2) 0.2944(5)
H25 H 0.2751 0.6607 0.3140
O10 O 0.0000 0.78147(16) 0.5000
H28 H 0.0000 0.8099 0.5000
In8 In 0.2500 0.7500 0.5000
O12 O 0.3469(5) 0.20868(12) 0.4104(2)
O14 O 0.1531(5) 0.29132(12) 0.5896(2)
O15 O 0.3469(5) 0.20868(12) 0.5896(2)
O18 O 0.5000 0.28147(16) 0.5000
N1_2 N 0.0000 0.4365(2) 1.0000
N3_2 N 0.0000 0.5635(2) 1.0000
N4 N 0.0000 0.5000 0.8804(4)
H11 H 0.0000 0.5000 0.9308
C21 C 0.0000 0.42551(19) 0.8572(4)
C22 C 0.0000 0.41217(18) 0.9346(4)
C23 C 0.0000 0.3707(2) 0.9618(4)
H12 H 0.0000 0.3475 0.9301
C24 C 0.0000 0.46665(19) 0.8325(4)
C25 C 0.0000 0.4793(2) 0.7524(4)
H13 H 0.0000 0.4624 0.7086
C26 C 0.0000 0.3934(2) 0.7947(4)
C29 C 0.0000 0.33459(18) 0.6770(4)
C30 C -0.0000 0.30298(17) 0.6135(3)
O5 O 0.1531(5) 0.70868(12) 0.5896(2)
C31 C 0.0000 0.57449(19) 0.8572(4)
C32 C 0.0000 0.58783(18) 0.9346(4)
C33 C 0.0000 0.6293(2) 0.9618(4)
H16 H 0.0000 0.6525 0.9301
C34 C 0.0000 0.53335(19) 0.8325(4)
C35 C 0.0000 0.5207(2) 0.7524(4)
H17 H -0.0000 0.5376 0.7086
C36 C 0.0000 0.6066(2) 0.7947(4)
C37 C 0.1637(13) 0.6209(2) 0.7642(5)
H18 H 0.2766 0.6107 0.7826
C38 C 0.1627(12) 0.6508(2) 0.7056(5)
H19 H 0.2751 0.6607 0.6860
C39 C 0.0000 0.66541(18) 0.6770(4)
C40 C 0.0000 0.69702(17) 0.6135(3)
C43 C 0.1637(13) 0.3791(2) 0.7642(5)
H22 H 0.2766 0.3893 0.7826
C44 C 0.1627(12) 0.3492(2) 0.7056(5)
H23 H 0.2751 0.3393 0.6860
O2_2 O 1.0000 0.21853(16) 0.5000
H1_2 H 1.0000 0.1901 0.5000
N1_3 N 1.0000 0.4365(2) 0.0000
N2_2 N 1.0000 0.5000 0.1196(4)
H2_2 H 1.0000 0.5000 0.0692
C1_2 C 1.0000 0.42551(19) 0.1428(4)
C2_2 C 1.0000 0.41217(18) 0.0654(4)
C3_2 C 1.0000 0.3707(2) 0.0382(4)
H3_2 H 1.0000 0.3475 0.0699
C4_2 C 1.0000 0.46665(19) 0.1675(4)
C5_2 C 1.0000 0.4793(2) 0.2476(4)
H4_2 H 1.0000 0.4624 0.2914
C6_2 C 1.0000 0.3934(2) 0.2053(4)
C9_2 C 1.0000 0.33459(18) 0.3230(4)
C10_2 C 1.0000 0.30298(17) 0.3865(3)
O3 O 0.8469(5) 0.70868(12) 0.4104(2)
N3_3 N 1.0000 0.5635(2) 0.0000
C11_2 C 1.0000 0.57449(19) 0.1428(4)
C12_2 C 1.0000 0.58783(18) 0.0654(4)
C13_2 C 1.0000 0.6293(2) 0.0382(4)
H7_2 H 1.0000 0.6525 0.0699
C14_2 C 1.0000 0.53335(19) 0.1675(4)
C15_2 C 1.0000 0.5207(2) 0.2476(4)
H8_2 H 1.0000 0.5376 0.2914
C16_2 C 1.0000 0.6066(2) 0.2053(4)
C17 C 0.8363(13) 0.6209(2) 0.2358(5)
H9 H 0.7234 0.6107 0.2174
C18 C 0.8373(12) 0.6508(2) 0.2944(5)
H10 H 0.7249 0.6607 0.3140
C19_2 C 1.0000 0.66541(18) 0.3230(4)
C20_2 C 1.0000 0.69702(17) 0.3865(3)
O9 O 0.8469(5) 0.29132(12) 0.4104(2)
C47 C 0.8363(13) 0.3791(2) 0.2358(5)
H26 H 0.7234 0.3893 0.2174
C48 C 0.8373(12) 0.3492(2) 0.2944(5)
H27 H 0.7249 0.3393 0.3140
In2 In 0.7500 0.7500 0.5000
O10_2 O 1.0000 0.78147(16) 0.5000
H28_2 H 1.0000 0.8099 0.5000
In6 In 0.7500 0.2500 0.5000
O11 O 0.6531(5) 0.79132(12) 0.4104(2)
O13 O 0.8469(5) 0.70868(12) 0.5896(2)
O16 O 0.6531(5) 0.79132(12) 0.5896(2)
O17 O 0.5000 0.71853(16) 0.5000
N1_4 N 1.0000 0.4365(2) 1.0000
N3_4 N 1.0000 0.5635(2) 1.0000
O4 O 0.8469(5) 0.29132(12) 0.5896(2)
N4_2 N 1.0000 0.5000 0.8804(4)
H11_2 H 1.0000 0.5000 0.9308
C21_2 C 1.0000 0.42551(19) 0.8572(4)
C22_2 C 1.0000 0.41217(18) 0.9346(4)
C23_2 C 1.0000 0.3707(2) 0.9618(4)
H12_2 H 1.0000 0.3475 0.9301
C24_2 C 1.0000 0.46665(19) 0.8325(4)
C25_2 C 1.0000 0.4793(2) 0.7524(4)
H13_2 H 1.0000 0.4624 0.7086
C26_2 C 1.0000 0.3934(2) 0.7947(4)
C27 C 0.8363(13) 0.3791(2) 0.7642(5)
H14 H 0.7234 0.3893 0.7826
C28 C 0.8373(12) 0.3492(2) 0.7056(5)
H15 H 0.7249 0.3393 0.6860
C29_2 C 1.0000 0.33459(18) 0.6770(4)
C30_2 C 1.0000 0.30298(17) 0.6135(3)
C31_2 C 1.0000 0.57449(19) 0.8572(4)
C32_2 C 1.0000 0.58783(18) 0.9346(4)
C33_2 C 1.0000 0.6293(2) 0.9618(4)
H16_2 H 1.0000 0.6525 0.9301
C34_2 C 1.0000 0.53335(19) 0.8325(4)
C35_2 C 1.0000 0.5207(2) 0.7524(4)
H17_2 H 1.0000 0.5376 0.7086
C36_2 C 1.0000 0.6066(2) 0.7947(4)
C39_2 C 1.0000 0.66541(18) 0.6770(4)
C40_2 C 1.0000 0.69702(17) 0.6135(3)
C41 C 0.8363(13) 0.6209(2) 0.7642(5)
H20 H 0.7234 0.6107 0.7826
C42 C 0.8373(12) 0.6508(2) 0.7056(5)
H21 H 0.7249 0.6607 0.6860
O11_2 O 0.3469(5) 0.79132(12) 0.5896(2)
O16_2 O 0.3469(5) 0.79132(12) 0.4104(2)
O12_2 O 0.6531(5) 0.20868(12) 0.5896(2)
O15_2 O 0.6531(5) 0.20868(12) 0.4104(2)
N2_3 N 0.5000 0.0000 0.1196(4)
H2_3 H 0.5000 0.0000 0.0692
N3_5 N 0.5000 0.0635(2) 0.0000
C11_3 C 0.5000 0.07449(19) 0.1428(4)
C12_3 C 0.5000 0.08783(18) 0.0654(4)
C13_3 C 0.5000 0.1293(2) 0.0382(4)
H7_3 H 0.5000 0.1525 0.0699
C14_3 C 0.5000 0.03335(19) 0.1675(4)
C15_3 C 0.5000 0.0207(2) 0.2476(4)
H8_3 H 0.5000 0.0376 0.2914
C16_3 C 0.5000 0.1066(2) 0.2053(4)
C17_2 C 0.3363(13) 0.1209(2) 0.2358(5)
H9_2 H 0.2234 0.1107 0.2174
C18_2 C 0.3373(12) 0.1508(2) 0.2944(5)
H10_2 H 0.2249 0.1607 0.3140
C19_3 C 0.5000 0.16541(18) 0.3230(4)
C20_3 C 0.5000 0.19702(17) 0.3865(3)
C45_2 C 0.6637(13) 0.1209(2) 0.2358(5)
H24_2 H 0.7766 0.1107 0.2174
C46_2 C 0.6627(12) 0.1508(2) 0.2944(5)
H25_2 H 0.7751 0.1607 0.3140
H28_3 H 0.5000 0.3099 0.5000
N3_6 N 0.5000 0.0635(2) 1.0000
N4_3 N 0.5000 0.0000 0.8804(4)
H11_3 H 0.5000 0.0000 0.9308
C31_3 C 0.5000 0.07449(19) 0.8572(4)
C32_3 C 0.5000 0.08783(18) 0.9346(4)
C33_3 C 0.5000 0.1293(2) 0.9618(4)
H16_3 H 0.5000 0.1525 0.9301
C34_3 C 0.5000 0.03335(19) 0.8325(4)
C35_3 C 0.5000 0.0207(2) 0.7524(4)
H17_3 H 0.5000 0.0376 0.7086
C36_3 C 0.5000 0.1066(2) 0.7947(4)
C37_2 C 0.6637(13) 0.1209(2) 0.7642(5)
H18_2 H 0.7766 0.1107 0.7826
C38_2 C 0.6627(12) 0.1508(2) 0.7056(5)
H19_2 H 0.7751 0.1607 0.6860
C39_3 C 0.5000 0.16541(18) 0.6770(4)
C40_3 C 0.5000 0.19702(17) 0.6135(3)
C41_2 C 0.3363(13) 0.1209(2) 0.7642(5)
H20_2 H 0.2234 0.1107 0.7826
C42_2 C 0.3373(12) 0.1508(2) 0.7056(5)
H21_2 H 0.2249 0.1607 0.6860
H1_3 H 0.5000 0.6901 0.5000
N1_5 N 0.5000 0.9365(2) 0.0000
N2_4 N 0.5000 1.0000 0.1196(4)
H2_4 H 0.5000 1.0000 0.0692
C1_3 C 0.5000 0.92551(19) 0.1428(4)
C2_3 C 0.5000 0.91217(18) 0.0654(4)
C3_3 C 0.5000 0.8707(2) 0.0382(4)
H3_3 H 0.5000 0.8475 0.0699
C4_3 C 0.5000 0.96665(19) 0.1675(4)
C5_3 C 0.5000 0.9793(2) 0.2476(4)
H4_3 H 0.5000 0.9624 0.2914
C6_3 C 0.5000 0.8934(2) 0.2053(4)
C7_2 C 0.6637(13) 0.8791(2) 0.2358(5)
H5_2 H 0.7766 0.8893 0.2174
C8_2 C 0.6627(12) 0.8492(2) 0.2944(5)
H6_2 H 0.7751 0.8393 0.3140
C9_3 C 0.5000 0.83459(18) 0.3230(4)
C10_3 C 0.5000 0.80298(17) 0.3865(3)
C47_2 C 0.3363(13) 0.8791(2) 0.2358(5)
H26_2 H 0.2234 0.8893 0.2174
C48_2 C 0.3373(12) 0.8492(2) 0.2944(5)
H27_2 H 0.2249 0.8393 0.3140
N1_6 N 0.5000 0.9365(2) 1.0000
N4_4 N 0.5000 1.0000 0.8804(4)
H11_4 H 0.5000 1.0000 0.9308
C21_3 C 0.5000 0.92551(19) 0.8572(4)
C22_3 C 0.5000 0.91217(18) 0.9346(4)
C23_3 C 0.5000 0.8707(2) 0.9618(4)
H12_3 H 0.5000 0.8475 0.9301
C24_3 C 0.5000 0.96665(19) 0.8325(4)
C25_3 C 0.5000 0.9793(2) 0.7524(4)
H13_3 H 0.5000 0.9624 0.7086
C26_3 C 0.5000 0.8934(2) 0.7947(4)
C27_2 C 0.3363(13) 0.8791(2) 0.7642(5)
H14_2 H 0.2234 0.8893 0.7826
C28_2 C 0.3373(12) 0.8492(2) 0.7056(5)
H15_2 H 0.2249 0.8393 0.6860
C29_3 C 0.5000 0.83459(18) 0.6770(4)
C30_3 C 0.5000 0.80298(17) 0.6135(3)
C43_2 C 0.6637(13) 0.8791(2) 0.7642(5)
H22_2 H 0.7766 0.8893 0.7826
C44_2 C 0.6627(12) 0.8492(2) 0.7056(5)
H23_2 H 0.7751 0.8393 0.6860
loop_
_geom_bond_atom_site_label_1
_geom_bond_atom_site_label_2
_geom_bond_site_symmetry_1
_geom_bond_site_symmetry_2
In1 O1 1_555 1_555
O1 C10 1_555 1_555
O2 In1 1_555 1_555
H1 O2 1_555 1_555
N1 C2 1_555 1_555
N2 H2 1_555 1_555
C1 C2 1_555 1_555
C2 C3 1_555 1_555
C3 H3 1_555 1_555
C4 N2 1_555 1_555
C5 C4 1_555 1_555
H4 C5 1_555 1_555
C6 C1 1_555 1_555
C7 C6 1_555 1_555
H5 C7 1_555 1_555
C8 C7 1_555 1_555
H6 C8 1_555 1_555
C9 C8 1_555 1_555
C10 C9 1_555 1_555
N3 C12 1_555 1_555
C11 C12 1_555 1_555
C12 C13 1_555 1_555
C13 H7 1_555 1_555
C14 N2 1_555 1_555
C15 C5 1_555 1_555
H8 C15 1_555 1_555
C16 C11 1_555 1_555
C20 C19 1_555 1_555
O8 C20 1_555 1_555
C45 C16 1_555 1_555
H24 C45 1_555 1_555
C46 C19 1_555 1_555
H25 C46 1_555 1_555
H28 O10 1_555 1_555
In8 O8 1_555 1_555
O12 In1 1_555 1_555
O14 In1 1_555 1_555
O15 In1 1_555 1_555
O18 In1 1_555 1_555
C1 C4 1_555 1_555
C11 C14 1_555 1_555
C14 C15 1_555 1_555
C45 C46 1_555 1_555
O10 In8 1_555 1_555
N4 H11 1_555 1_555
C21 C22 1_555 1_555
C22 N1_2 1_555 1_555
H12 C23 1_555 1_555
C24 N4 1_555 1_555
C25 C24 1_555 1_555
H13 C25 1_555 1_555
C26 C21 1_555 1_555
C30 C29 1_555 1_555
O5 C40 1_555 1_555
C31 C32 1_555 1_555
C32 N3_2 1_555 1_555
H16 C33 1_555 1_555
C34 N4 1_555 1_555
C35 C25 1_555 1_555
H17 C35 1_555 1_555
C36 C31 1_555 1_555
C37 C36 1_555 1_555
H18 C37 1_555 1_555
C38 C37 1_555 1_555
H19 C38 1_555 1_555
C39 C38 1_555 1_555
C40 C39 1_555 1_555
O14 C30 1_555 1_555
C43 C26 1_555 1_555
H22 C43 1_555 1_555
C44 C29 1_555 1_555
H23 C44 1_555 1_555
In8 O5 1_555 1_555
C21 C24 1_555 1_555
C22 C23 1_555 1_555
C31 C34 1_555 1_555
C32 C33 1_555 1_555
C34 C35 1_555 1_555
C43 C44 1_555 1_555
H1_2 O2_2 1_555 1_555
N1_3 C2_2 1_555 1_555
N2_2 H2_2 1_555 1_555
C1_2 C2_2 1_555 1_555
C2_2 C3_2 1_555 1_555
C3_2 H3_2 1_555 1_555
C4_2 N2_2 1_555 1_555
C5_2 C4_2 1_555 1_555
H4_2 C5_2 1_555 1_555
C6_2 C1_2 1_555 1_555
C10_2 C9_2 1_555 1_555
O3 C20_2 1_555 1_555
N3_3 C12_2 1_555 1_555
C11_2 C12_2 1_555 1_555
C12_2 C13_2 1_555 1_555
C13_2 H7_2 1_555 1_555
C14_2 N2_2 1_555 1_555
C15_2 C5_2 1_555 1_555
H8_2 C15_2 1_555 1_555
C16_2 C11_2 1_555 1_555
C17 C16_2 1_555 1_555
H9 C17 1_555 1_555
C18 C17 1_555 1_555
H10 C18 1_555 1_555
C19_2 C18 1_555 1_555
C20_2 C19_2 1_555 1_555
O9 C10_2 1_555 1_555
C47 C6_2 1_555 1_555
H26 C47 1_555 1_555
C48 C9_2 1_555 1_555
H27 C48 1_555 1_555
In2 O3 1_555 1_555
O10_2 In2 1_555 1_555
H28_2 O10_2 1_555 1_555
In6 O2_2 1_555 1_555
O11 In2 1_555 1_555
O13 In2 1_555 1_555
O16 In2 1_555 1_555
O17 In2 1_555 1_555
C1_2 C4_2 1_555 1_555
C11_2 C14_2 1_555 1_555
C14_2 C15_2 1_555 1_555
O9 In6 1_555 1_555
C47 C48 1_555 1_555
O4 C30_2 1_555 1_555
N4_2 H11_2 1_555 1_555
C21_2 C22_2 1_555 1_555
C22_2 N1_4 1_555 1_555
H12_2 C23_2 1_555 1_555
C24_2 N4_2 1_555 1_555
C25_2 C24_2 1_555 1_555
H13_2 C25_2 1_555 1_555
C26_2 C21_2 1_555 1_555
C27 C26_2 1_555 1_555
H14 C27 1_555 1_555
C28 C27 1_555 1_555
H15 C28 1_555 1_555
C29_2 C28 1_555 1_555
C30_2 C29_2 1_555 1_555
C31_2 C32_2 1_555 1_555
C32_2 N3_4 1_555 1_555
H16_2 C33_2 1_555 1_555
C34_2 N4_2 1_555 1_555
C35_2 C25_2 1_555 1_555
H17_2 C35_2 1_555 1_555
C36_2 C31_2 1_555 1_555
C40_2 C39_2 1_555 1_555
O13 C40_2 1_555 1_555
C41 C36_2 1_555 1_555
H20 C41 1_555 1_555
C42 C39_2 1_555 1_555
H21 C42 1_555 1_555
In6 O4 1_555 1_555
C21_2 C24_2 1_555 1_555
C22_2 C23_2 1_555 1_555
C31_2 C34_2 1_555 1_555
C32_2 C33_2 1_555 1_555
C34_2 C35_2 1_555 1_555
C41 C42 1_555 1_555
O11_2 In8 1_555 1_555
O16_2 In8 1_555 1_555
O17 In8 1_555 1_555
O12_2 In6 1_555 1_555
O15_2 In6 1_555 1_555
O18 In6 1_555 1_555
N2_3 H2_3 1_555 1_555
O12 C20_3 1_555 1_555
N3_5 C12_3 1_555 1_555
C11_3 C12_3 1_555 1_555
C12_3 C13_3 1_555 1_555
C13_3 H7_3 1_555 1_555
C14_3 N2_3 1_555 1_555
H8_3 C15_3 1_555 1_555
C16_3 C11_3 1_555 1_555
C17_2 C16_3 1_555 1_555
H9_2 C17_2 1_555 1_555
C18_2 C17_2 1_555 1_555
H10_2 C18_2 1_555 1_555
C19_3 C18_2 1_555 1_555
C20_3 C19_3 1_555 1_555
O15_2 C20_3 1_555 1_555
C45_2 C16_3 1_555 1_555
H24_2 C45_2 1_555 1_555
C46_2 C19_3 1_555 1_555
H25_2 C46_2 1_555 1_555
H28_3 O18 1_555 1_555
C11_3 C14_3 1_555 1_555
C14_3 C15_3 1_555 1_555
C45_2 C46_2 1_555 1_555
N4_3 H11_3 1_555 1_555
O12_2 C40_3 1_555 1_555
C31_3 C32_3 1_555 1_555
C32_3 N3_6 1_555 1_555
H16_3 C33_3 1_555 1_555
C34_3 N4_3 1_555 1_555
H17_3 C35_3 1_555 1_555
C36_3 C31_3 1_555 1_555
C37_2 C36_3 1_555 1_555
H18_2 C37_2 1_555 1_555
C38_2 C37_2 1_555 1_555
H19_2 C38_2 1_555 1_555
C39_3 C38_2 1_555 1_555
C40_3 C39_3 1_555 1_555
O15 C40_3 1_555 1_555
C41_2 C36_3 1_555 1_555
H20_2 C41_2 1_555 1_555
C42_2 C39_3 1_555 1_555
H21_2 C42_2 1_555 1_555
C31_3 C34_3 1_555 1_555
C32_3 C33_3 1_555 1_555
C34_3 C35_3 1_555 1_555
C41_2 C42_2 1_555 1_555
O11 C10_3 1_555 1_555
H1_3 O17 1_555 1_555
N1_5 C2_3 1_555 1_555
N2_4 H2_4 1_555 1_555
C1_3 C2_3 1_555 1_555
C2_3 C3_3 1_555 1_555
C3_3 H3_3 1_555 1_555
C4_3 N2_4 1_555 1_555
C5_3 C4_3 1_555 1_555
H4_3 C5_3 1_555 1_555
C6_3 C1_3 1_555 1_555
C7_2 C6_3 1_555 1_555
H5_2 C7_2 1_555 1_555
C8_2 C7_2 1_555 1_555
H6_2 C8_2 1_555 1_555
C9_3 C8_2 1_555 1_555
C10_3 C9_3 1_555 1_555
O16_2 C10_3 1_555 1_555
C47_2 C6_3 1_555 1_555
H26_2 C47_2 1_555 1_555
C48_2 C9_3 1_555 1_555
H27_2 C48_2 1_555 1_555
C1_3 C4_3 1_555 1_555
C47_2 C48_2 1_555 1_555
O11_2 C30_3 1_555 1_555
N4_4 H11_4 1_555 1_555
C21_3 C22_3 1_555 1_555
C22_3 N1_6 1_555 1_555
H12_3 C23_3 1_555 1_555
C24_3 N4_4 1_555 1_555
C25_3 C24_3 1_555 1_555
H13_3 C25_3 1_555 1_555
C26_3 C21_3 1_555 1_555
C27_2 C26_3 1_555 1_555
H14_2 C27_2 1_555 1_555
C28_2 C27_2 1_555 1_555
H15_2 C28_2 1_555 1_555
C29_3 C28_2 1_555 1_555
C30_3 C29_3 1_555 1_555
O16 C30_3 1_555 1_555
C43_2 C26_3 1_555 1_555
H22_2 C43_2 1_555 1_555
C44_2 C29_3 1_555 1_555
H23_2 C44_2 1_555 1_555
C21_3 C24_3 1_555 1_555
C22_3 C23_3 1_555 1_555
C43_2 C44_2 1_555 1_555

#END
