
###############################################################################
#
# This file contains modified crystal structure data generated from the
# MOF subset of the Cambridge Structural Database (CSD) v543 
# hosted by the Cambridge Crystallographic Data Centre (CCDC).
#
# This work is licensed under the Creative Commons
# Attribution-NonCommercial-ShareAlike 4.0 International License.
# To view a copy of this license, visit
# http://creativecommons.org/licenses/by-nc-sa/4.0/
# or send a letter to
# Creative Commons, PO Box 1866, Mountain View, CA 94042, USA.
#
# CIF created using the CSD Python API on 29 September 2022
# The structure has been converted into the P1 space group
# The structure has a 3D framework
# The original CSD entry YALTUE is in the triclinic crystal system
# The framework has been calculated to contain at least 10.0% void space
# The void calculation uses a probe of radius 1.32A, grid spacing 0.4
# H atom positions have been added when not included in the experimental data
#
###############################################################################

data_YALTUE
_chemical_formula_moiety         '(C54 H36 N6 O21 Zn2)n'
_symmetry_cell_setting           triclinic
_symmetry_space_group_name_H-M   'P 1'
_symmetry_Int_Tables_number      1
_space_group_name_Hall           'P 1'
loop_
_symmetry_equiv_pos_site_id
_symmetry_equiv_pos_as_xyz
1 x,y,z
_cell_length_a                   10.8462(13)
_cell_length_b                   10.9618(13)
_cell_length_c                   13.9807(16)
_cell_angle_alpha                90.699(9)
_cell_angle_beta                 93.916(9)
_cell_angle_gamma                98.294(10)
_cell_volume                     1640.58
loop_
_atom_site_label
_atom_site_type_symbol
_atom_site_fract_x
_atom_site_fract_y
_atom_site_fract_z
Zn4 Zn 0.00875(10) 0.50104(9) 0.60379(7)
O6 O 0.0734(9) 0.1228(7) 0.3366(6)
C13 C 0.0346(11) 0.0584(10) 0.4164(8)
C15 C 0.1832(13) 0.1084(12) 0.0948(9)
C16 C 0.1676(13) 0.1444(12) 0.1887(9)
C17 C 0.2046(13) 0.2633(11) 0.2125(9)
H6 H 0.196114 0.290141 0.274712
C18 C 0.1130(14) 0.0505(11) 0.2611(8)
H8 H 0.175749 0.002237 0.285954
C20 C 0.2550(13) 0.3477(13) 0.1477(10)
H9 H 0.279539 0.429502 0.167417
C22 C 0.2297(15) 0.1899(13) 0.0259(10)
C23 C 0.2688(15) 0.3141(15) 0.0584(12)
H13 H 0.304376 0.371948 0.016462
H23 H 0.417418 0.027377 0.927541
H24 H 0.458478 0.036349 0.773642
O16 O 0.0000(8) 0.3168(6) 0.5735(5)
C44 C 0.0017(10) 0.1294(9) 0.4944(7)
H12 H 0.234822 0.164995 0.962632
O14 O 0.3286(11) 0.6198(11) 0.0117(7)
H21 H 0.363321 0.834860 0.001138
C42 C 0.0186(14) 0.6041(11) 0.2044(8)
H27 H 0.038654 0.677456 0.239888
C43 C 0.0258(14) 0.6064(10) 0.1079(8)
H28 H 0.052861 0.680471 0.078883
O1 O 0.1796(7) 0.5168(9) 0.4206(6)
N1 N 0.0162(8) 0.4995(7) 0.7502(6)
O2 O 0.1903(6) 0.5202(8) 0.5764(5)
O3 O -0.0000(8) 0.6832(6) 0.4265(5)
O4 O 0.0088(8) 0.6833(7) 0.5848(5)
O5 O 0.5756(7) 0.3370(7) 0.3730(5)
C2 C 0.2359(9) 0.5187(9) 0.5015(8)
C3 C 0.0066(9) 0.5004(9) 0.9478(6)
C4 C 0.0027(10) 0.7375(10) 0.5050(7)
C5 C 0.3734(10) 0.5123(10) 0.4991(7)
C6 C 0.0341(11) 0.9340(10) 0.4241(8)
C7 C 0.0493(11) 0.6058(10) 0.8975(8)
H1 H 0.074701 0.680110 0.930852
C8 C 0.0540(11) 0.6015(9) 0.8033(7)
H2 H 0.085323 0.673046 0.772692
C9 C 0.5410(10) 0.4237(10) 0.4324(8)
N2 N 0.6289(11) 0.3797(12) 0.0681(8)
C10 C 0.4146(10) 0.4411(11) 0.4298(8)
H3 H 0.358709 0.404123 0.380902
N3 N 0.1481(13) 0.9791(11) 0.0583(9)
O8 O 0.1519(13) 0.9004(10) 0.1207(8)
O10 O 0.6084(13) 0.4727(11) 0.1059(8)
C14 C 0.5852(13) 0.2640(11) 0.2137(9)
H7 H 0.042741 0.995065 0.231245
C19 C 0.6093(14) 0.2613(13) 0.1157(10)
C21 C 0.5853(13) 0.3771(12) 0.2769(10)
H10 H 0.661852 0.433767 0.272009
H11 H 0.515229 0.419078 0.257112
C24 C 0.6148(17) 0.1604(15) 0.0620(11)
C25 C 0.5643(19) 0.1450(15) 0.2539(12)
H15 H 0.552591 0.138105 0.319026
C26 C 0.585(2) 0.0455(16) 0.1077(15)
C27 C 0.561(2) 0.0402(14) 0.1988(14)
O11 O 0.8204(7) 0.4832(9) 0.5794(6)
O12 O 0.8097(6) 0.4798(8) 0.4236(5)
O13 O 0.4244(7) 0.6630(7) 0.6270(5)
C28 C 0.7641(9) 0.4813(9) 0.4985(8)
C29 C 0.6266(10) 0.4877(10) 0.5009(7)
C30 C 0.4590(10) 0.5763(10) 0.5676(8)
N4 N 0.3711(11) 0.6203(12) 0.9319(8)
C31 C 0.5854(10) 0.5589(11) 0.5702(8)
H18 H 0.641291 0.595877 0.619098
O15 O 0.3916(13) 0.5273(11) 0.8941(8)
C32 C 0.4148(13) 0.7360(11) 0.7863(9)
C33 C 0.3907(14) 0.7387(13) 0.8843(10)
C34 C 0.4147(13) 0.6229(12) 0.7231(10)
H19 H 0.338148 0.566233 0.727991
H20 H 0.484771 0.580922 0.742888
C35 C 0.3852(17) 0.8396(15) 0.9380(11)
C36 C 0.4357(19) 0.8550(15) 0.7461(12)
H22 H 0.447409 0.861895 0.680974
C37 C 0.415(2) 0.9545(16) 0.8923(15)
C38 C 0.439(2) 0.9598(14) 0.8012(14)
Zn7 Zn 0.99125(10) 0.49896(9) 0.39621(7)
H35 H 0.0627663 0.882812 0.364256
O7 O 0.6714(11) 0.3802(11) 0.9883(7)
O9 O 0.1219(12) 0.9580(10) 0.9727(8)
H14 H 0.636679 0.165140 0.998862
H16 H 0.582582 0.972623 0.072459
H17 H 0.541522 0.963651 0.226358
O20 O 0.8781(12) 0.0420(10) 0.0273(8)
O16_2 O 1.0000(8) 0.3168(6) 0.5735(5)
O17 O 0.9912(8) 0.3167(7) 0.4152(5)
C45 C 0.9973(10) 0.2625(10) 0.4950(7)
C46 C 0.9659(11) 0.0660(10) 0.5759(8)
N6 N 0.8519(13) 0.0209(11) 0.9417(9)
O19 O 0.8481(13) 0.0996(10) 0.8793(8)
H30 H 0.957259 0.004935 0.768755
H36 H 0.937234 0.117188 0.635744
N5 N 0.9838(8) 0.5005(7) 0.2498(6)
C39 C 0.9934(9) 0.4996(9) 0.0522(6)
C40 C 0.9507(11) 0.3942(10) 0.1025(8)
H25 H 0.925299 0.319890 0.069148
C41 C 0.9460(11) 0.3985(9) 0.1967(7)
H26 H 0.914677 0.326954 0.227308
H33 H 0.765178 0.835005 0.037368
O3_2 O 1.0000(8) 0.6832(6) 0.4265(5)
C1 C 0.9983(10) 0.8706(9) 0.5056(7)
C11 C 0.9814(14) 0.3959(11) 0.7956(8)
H4 H 0.961346 0.322544 0.760112
C12 C 0.9742(14) 0.3936(10) 0.8921(8)
H5 H 0.947139 0.319529 0.921117
O18 O 0.9266(9) 0.8772(7) 0.6634(6)
C47 C 0.9654(11) 0.9416(10) 0.5836(8)
C48 C 0.8168(13) 0.8916(12) 0.9052(9)
C49 C 0.8324(13) 0.8556(12) 0.8113(9)
C50 C 0.7954(13) 0.7367(11) 0.7875(9)
H29 H 0.803886 0.709859 0.725288
C51 C 0.8870(14) 0.9495(11) 0.7389(8)
H31 H 0.824251 0.997763 0.714046
C52 C 0.7450(13) 0.6523(13) 0.8523(10)
H32 H 0.720461 0.570498 0.832583
C53 C 0.7703(15) 0.8101(13) 0.9741(10)
C54 C 0.7312(15) 0.6859(15) 0.9416(12)
H34 H 0.695624 0.628052 0.983538
loop_
_geom_bond_atom_site_label_1
_geom_bond_atom_site_label_2
_geom_bond_site_symmetry_1
_geom_bond_site_symmetry_2
O6 C13 1_555 1_555
C16 C15 1_555 1_555
C17 C16 1_555 1_555
H6 C17 1_555 1_555
C18 O6 1_555 1_555
H8 C18 1_555 1_555
C20 C17 1_555 1_555
H9 C20 1_555 1_555
C22 C15 1_555 1_555
C23 C20 1_555 1_555
H13 C23 1_555 1_555
C44 C13 1_555 1_555
Zn4 O16 1_555 1_555
C16 C18 1_555 1_555
C22 C23 1_555 1_555
H27 C42 1_555 1_555
H28 C43 1_555 1_555
C42 C43 1_555 1_555
Zn4 N1 1_555 1_555
O1 C2 1_555 1_555
N1 C8 1_555 1_555
O2 Zn4 1_555 1_555
O3 C4 1_555 1_555
O4 Zn4 1_555 1_555
O5 C9 1_555 1_555
C2 O2 1_555 1_555
C3 C7 1_555 1_555
C4 O4 1_555 1_555
C5 C2 1_555 1_555
C7 H1 1_555 1_555
C8 C7 1_555 1_555
H2 C8 1_555 1_555
C9 C10 1_555 1_555
N2 O10 1_555 1_555
C10 C5 1_555 1_555
H3 C10 1_555 1_555
N3 O8 1_555 1_555
C14 C19 1_555 1_555
C19 N2 1_555 1_555
C21 O5 1_555 1_555
H10 C21 1_555 1_555
H11 C21 1_555 1_555
C24 C19 1_555 1_555
C25 C14 1_555 1_555
H15 C25 1_555 1_555
C26 C24 1_555 1_555
C27 C25 1_555 1_555
O11 C28 1_555 1_555
O12 C28 1_555 1_555
O13 C30 1_555 1_555
C28 C29 1_555 1_555
C29 C9 1_555 1_555
C30 C5 1_555 1_555
N4 O15 1_555 1_555
C31 C29 1_555 1_555
H18 C31 1_555 1_555
C32 C33 1_555 1_555
C33 N4 1_555 1_555
C34 O13 1_555 1_555
H19 C34 1_555 1_555
H20 C34 1_555 1_555
C35 C33 1_555 1_555
C36 C32 1_555 1_555
H22 C36 1_555 1_555
C37 C35 1_555 1_555
C38 C36 1_555 1_555
Zn7 O12 1_555 1_555
C14 C21 1_555 1_555
C26 C27 1_555 1_555
C30 C31 1_555 1_555
C32 C34 1_555 1_555
C37 C38 1_555 1_555
C6 H35 1_555 1_555
O16_2 C45 1_555 1_555
O17 C45 1_555 1_555
N6 O19 1_555 1_555
Zn7 O17 1_555 1_555
C46 H36 1_555 1_555
N5 C41 1_555 1_555
C40 C39 1_555 1_555
H25 C40 1_555 1_555
C41 C40 1_555 1_555
H26 C41 1_555 1_555
Zn7 N5 1_555 1_555
H4 C11 1_555 1_555
H5 C12 1_555 1_555
O18 C47 1_555 1_555
C47 C1 1_555 1_555
C49 C48 1_555 1_555
C50 C49 1_555 1_555
H29 C50 1_555 1_555
C51 O18 1_555 1_555
H31 C51 1_555 1_555
C52 C50 1_555 1_555
H32 C52 1_555 1_555
C53 C48 1_555 1_555
C54 C52 1_555 1_555
H34 C54 1_555 1_555
O3_2 Zn7 1_555 1_555
C11 C12 1_555 1_555
C49 C51 1_555 1_555
C53 C54 1_555 1_555

#END
