
###############################################################################
#
# This file contains modified crystal structure data generated from the
# MOF subset of the Cambridge Structural Database (CSD) v543 
# hosted by the Cambridge Crystallographic Data Centre (CCDC).
#
# This work is licensed under the Creative Commons
# Attribution-NonCommercial-ShareAlike 4.0 International License.
# To view a copy of this license, visit
# http://creativecommons.org/licenses/by-nc-sa/4.0/
# or send a letter to
# Creative Commons, PO Box 1866, Mountain View, CA 94042, USA.
#
# CIF created using the CSD Python API on 29 September 2022
# The structure has been converted into the P1 space group
# The structure has a 3D framework
# The original CSD entry YAMXOC is in the cubic crystal system
# The framework has been calculated to contain at least 10.0% void space
# The void calculation uses a probe of radius 1.32A, grid spacing 0.4
#
###############################################################################

data_YAMXOC
_chemical_formula_moiety         '(C144 H48 In18 O90)n'
_symmetry_cell_setting           triclinic
_symmetry_space_group_name_H-M   'P 1'
_symmetry_Int_Tables_number      1
_space_group_name_Hall           'P 1'
loop_
_symmetry_equiv_pos_site_id
_symmetry_equiv_pos_as_xyz
1 x,y,z
_cell_length_a                   20.4124(4)
_cell_length_b                   20.4124(4)
_cell_length_c                   20.4124(4)
_cell_angle_alpha                90
_cell_angle_beta                 90
_cell_angle_gamma                90
_cell_volume                     8505.15
loop_
_atom_site_label
_atom_site_type_symbol
_atom_site_fract_x
_atom_site_fract_y
_atom_site_fract_z
In7 In 0.3750 -0.0000 0.2500
In1 In -0.0000 0.7500 0.1250
O1 O 0.0530(2) 0.6678(3) 0.0843(3)
C2 C 0.0126(4) 0.6529(4) 0.0383(4)
O5 O 0.1858(3) 0.4706(3) 0.0373(3)
C7 C 0.0814(4) 0.5575(3) 0.0093(4)
H3 H 0.1087 0.5679 0.0442
In3 In 0.2500 0.3750 0.0000
O13 O 0.0822(3) 0.8030(2) 0.1657(3)
O14 O 0.0642(3) 0.7127(3) 0.2206(3)
C19 C 0.1686(4) 0.7407(4) 0.3075(3)
H7 H 0.1413 0.7058 0.3179
C20 C 0.0971(4) 0.7626(4) 0.2117(4)
C21 C 0.1540(4) 0.7787(3) 0.2530(4)
O15 O 0.2873(3) 0.7206(3) 0.4358(3)
C22 C 0.2593(4) 0.8075(3) 0.3314(4)
H8 H 0.2942 0.8179 0.3587
C23 C 0.2374(4) 0.7117(4) 0.4029(4)
C24 C 0.2213(3) 0.7530(4) 0.3460(4)
O16 O 0.1970(2) 0.6657(3) 0.4178(3)
O17 O 0.2794(3) 0.9358(3) 0.2127(3)
C25 C 0.1925(3) 0.8314(4) 0.2407(4)
H9 H 0.1821 0.8587 0.2058
C26 C 0.2883(4) 0.9029(4) 0.2626(4)
C27 C 0.2470(4) 0.8460(4) 0.2787(3)
O18 O 0.3343(3) 0.9178(3) 0.3030(2)
In7_2 In 0.3750 1.0000 0.2500
In8 In 0.2500 0.6250 0.5000
O27 O 0.3322(3) 0.4157(3) 0.0530(2)
O29 O 0.1970(2) 0.3343(3) 0.0822(3)
O31 O 0.0373(3) 0.8142(3) 0.0294(3)
O35 O 0.2873(3) 0.2794(3) 0.0642(3)
C3 C 0.0287(3) 0.5960(4) 0.9970(4)
C4 C 0.0575(3) 0.4907(4) 0.9186(4)
H2 H 0.0679 0.4558 0.8913
C6 C 0.0030(4) 0.5287(3) 0.9040(4)
C8 C 0.1529(4) 0.4617(4) 0.9874(4)
C9 C 0.0960(4) 0.5030(4) 0.9713(3)
O6 O 0.1678(3) 0.4157(3) 0.9470(2)
In3_2 In 0.2500 0.3750 1.0000
O7 O 0.4178(3) 0.1970(2) 0.6657(3)
O8 O 0.4358(3) 0.2873(3) 0.7206(3)
C10 C 0.3314(4) 0.2593(4) 0.8075(3)
H4 H 0.3587 0.2942 0.8179
C11 C 0.4029(4) 0.2374(4) 0.7117(4)
C12 C 0.3460(4) 0.2213(3) 0.7530(4)
O9 O 0.2127(3) 0.2794(3) 0.9358(3)
C13 C 0.2407(4) 0.1925(3) 0.8314(4)
H5 H 0.2058 0.1821 0.8587
C14 C 0.2626(4) 0.2883(4) 0.9029(4)
C15 C 0.2787(3) 0.2470(4) 0.8460(4)
O10 O 0.3030(2) 0.3343(3) 0.9178(3)
O11 O 0.2206(3) 0.0642(3) 0.7127(3)
C16 C 0.3075(3) 0.1686(4) 0.7407(4)
H6 H 0.3179 0.1413 0.7058
C17 C 0.2117(4) 0.0971(4) 0.7626(4)
C18 C 0.2530(4) 0.1540(4) 0.7787(3)
O12 O 0.1657(3) 0.0822(3) 0.8030(2)
In4 In 0.5000 0.2500 0.6250
In6 In 0.1250 0.0000 0.7500
O33 O 0.3142(3) 0.4706(3) 0.9627(3)
In6_2 In 0.1250 1.0000 0.7500
In1_2 In 1.0000 0.7500 0.1250
O2 O 0.9627(3) 0.6858(3) 0.0294(3)
O25 O 0.9470(2) 0.8322(3) 0.0843(3)
O28 O 0.9178(3) 0.6970(2) 0.1657(3)
O34 O 0.9358(3) 0.7873(3) 0.2206(3)
C1 C 0.9907(4) 0.5814(4) 0.9425(3)
H1 H 0.9558 0.6087 0.9321
O3 O 0.9706(3) 0.4627(3) 0.8142(3)
C5 C 0.9617(4) 0.5126(4) 0.8471(4)
O4 O 0.9157(3) 0.5530(2) 0.8322(3)
In2 In 0.8750 0.5000 0.7500
O19 O 0.6970(2) 0.8343(3) 0.5822(3)
O20 O 0.7873(3) 0.7794(3) 0.5642(3)
C28 C 0.7593(4) 0.6925(3) 0.6686(4)
H10 H 0.7942 0.6821 0.6413
C29 C 0.7374(4) 0.7883(4) 0.5971(4)
C30 C 0.7213(3) 0.7470(4) 0.6540(4)
O21 O 0.7794(3) 0.5642(3) 0.7873(3)
C31 C 0.6925(3) 0.6686(4) 0.7593(4)
H11 H 0.6821 0.6413 0.7942
C32 C 0.7883(4) 0.5971(4) 0.7374(4)
C33 C 0.7470(4) 0.6540(4) 0.7213(3)
O22 O 0.8343(3) 0.5822(3) 0.6970(2)
O23 O 0.5642(3) 0.7873(3) 0.7794(3)
C34 C 0.6686(4) 0.7593(4) 0.6925(3)
H12 H 0.6413 0.7942 0.6821
C35 C 0.5971(4) 0.7374(4) 0.7883(4)
C36 C 0.6540(4) 0.7213(3) 0.7470(4)
O24 O 0.5822(3) 0.6970(2) 0.8343(3)
In5 In 0.5000 0.7500 0.8750
In9 In 0.7500 0.8750 0.5000
O26 O 0.9157(3) 0.4470(2) 0.6678(3)
O30 O 0.8343(3) 0.4178(3) 0.8030(2)
O32 O 0.9706(3) 0.5373(3) 0.6858(3)
O36 O 0.7794(3) 0.4358(3) 0.7127(3)
In5_2 In 0.0000 0.2500 0.3750
O1_2 O 0.4470(2) 0.3322(3) 0.5843(3)
O2_2 O 0.5373(3) 0.3142(3) 0.5294(3)
C1_2 C 0.5093(4) 0.4186(4) 0.4425(3)
H1_2 H 0.5442 0.3913 0.4321
C2_2 C 0.4874(4) 0.3471(4) 0.5383(4)
C3_2 C 0.4713(3) 0.4040(4) 0.4970(4)
O3_2 O 0.5294(3) 0.5373(3) 0.3142(3)
C4_2 C 0.4425(3) 0.5093(4) 0.4186(4)
H2_2 H 0.4321 0.5442 0.3913
C5_2 C 0.5383(4) 0.4874(4) 0.3471(4)
C6_2 C 0.4970(4) 0.4713(3) 0.4040(4)
O4_2 O 0.5843(3) 0.4470(2) 0.3322(3)
O5_2 O 0.3142(3) 0.5294(3) 0.5373(3)
C7_2 C 0.4186(4) 0.4425(3) 0.5093(4)
H3_2 H 0.3913 0.4321 0.5442
C8_2 C 0.3471(4) 0.5383(4) 0.4874(4)
C9_2 C 0.4040(4) 0.4970(4) 0.4713(3)
O6_2 O 0.3322(3) 0.5843(3) 0.4470(2)
In2_2 In 0.6250 0.5000 0.2500
O19_2 O 0.8030(2) 0.1657(3) 0.0822(3)
O20_2 O 0.7127(3) 0.2206(3) 0.0642(3)
C28_2 C 0.7407(4) 0.3075(3) 0.1686(4)
H10_2 H 0.7058 0.3179 0.1413
C29_2 C 0.7626(4) 0.2117(4) 0.0971(4)
C30_2 C 0.7787(3) 0.2530(4) 0.1540(4)
O21_2 O 0.7206(3) 0.4358(3) 0.2873(3)
C31_2 C 0.8075(3) 0.3314(4) 0.2593(4)
H11_2 H 0.8179 0.3587 0.2942
C32_2 C 0.7117(4) 0.4029(4) 0.2374(4)
C33_2 C 0.7530(4) 0.3460(4) 0.2213(3)
O22_2 O 0.6657(3) 0.4178(3) 0.1970(2)
O23_2 O 0.9358(3) 0.2127(3) 0.2794(3)
C34_2 C 0.8314(4) 0.2407(4) 0.1925(3)
H12_2 H 0.8587 0.2058 0.1821
C35_2 C 0.9029(4) 0.2626(4) 0.2883(4)
C36_2 C 0.8460(4) 0.2787(3) 0.2470(4)
O24_2 O 0.9178(3) 0.3030(2) 0.3343(3)
In5_3 In 1.0000 0.2500 0.3750
In9_2 In 0.7500 0.1250 0.0000
O25_2 O 0.5530(2) 0.1678(3) 0.5843(3)
O26_2 O 0.5843(3) 0.5530(2) 0.1678(3)
O27_2 O 0.1678(3) 0.5843(3) 0.5530(2)
O28_2 O 0.5822(3) 0.3030(2) 0.6657(3)
O29_2 O 0.3030(2) 0.6657(3) 0.5822(3)
O30_2 O 0.6657(3) 0.5822(3) 0.3030(2)
O31_2 O 0.4627(3) 0.1858(3) 0.5294(3)
O32_2 O 0.5294(3) 0.4627(3) 0.1858(3)
O33_2 O 0.1858(3) 0.5294(3) 0.4627(3)
O34_2 O 0.5642(3) 0.2127(3) 0.7206(3)
O35_2 O 0.2127(3) 0.7206(3) 0.5642(3)
O36_2 O 0.7206(3) 0.5642(3) 0.2127(3)
In9_3 In 0.7500 0.1250 1.0000
O2_3 O 0.0373(3) 0.1858(3) 0.4706(3)
C1_3 C 0.0093(4) 0.0814(4) 0.5575(3)
H1_3 H 0.0442 0.1087 0.5679
C5_3 C 0.0383(4) 0.0126(4) 0.6529(4)
O4_3 O 0.0843(3) 0.0530(2) 0.6678(3)
O25_3 O 0.0530(2) 0.3322(3) 0.4157(3)
O28_3 O 0.0822(3) 0.1970(2) 0.3343(3)
O32_3 O 0.0294(3) 0.0373(3) 0.8142(3)
O34_3 O 0.0642(3) 0.2873(3) 0.2794(3)
O3_3 O 0.0294(3) 0.9627(3) 0.6858(3)
O26_3 O 0.0843(3) 0.9470(2) 0.8322(3)
O30_3 O 0.1657(3) 0.9178(3) 0.6970(2)
O36_3 O 0.2206(3) 0.9358(3) 0.7873(3)
O1_3 O 0.9470(2) 0.1678(3) 0.4157(3)
C2_3 C 0.9874(4) 0.1529(4) 0.4617(4)
C3_3 C 0.9713(3) 0.0960(4) 0.5030(4)
C6_3 C 0.9970(4) 0.0287(3) 0.5960(4)
C7_3 C 0.9186(4) 0.0575(3) 0.4907(4)
H3_3 H 0.8913 0.0679 0.4558
C9_3 C 0.9040(4) 0.0030(4) 0.5287(3)
O31_3 O 0.9627(3) 0.3142(3) 0.4706(3)
C4_3 C 0.9425(3) 0.9907(4) 0.5814(4)
H2_3 H 0.9321 0.9558 0.6087
O5_3 O 0.8142(3) 0.9706(3) 0.4627(3)
C8_3 C 0.8471(4) 0.9617(4) 0.5126(4)
O6_3 O 0.8322(3) 0.9157(3) 0.5530(2)
O27_3 O 0.6678(3) 0.9157(3) 0.4470(2)
O29_3 O 0.8030(2) 0.8343(3) 0.4178(3)
O33_3 O 0.6858(3) 0.9706(3) 0.5373(3)
O35_3 O 0.7127(3) 0.7794(3) 0.4358(3)
O3_4 O 0.4706(3) 0.0373(3) 0.1858(3)
C4_4 C 0.5575(3) 0.0093(4) 0.0814(4)
H2_4 H 0.5679 0.0442 0.1087
C8_4 C 0.6529(4) 0.0383(4) 0.0126(4)
O6_4 O 0.6678(3) 0.0843(3) 0.0530(2)
O26_4 O 0.4157(3) 0.0530(2) 0.3322(3)
O30_4 O 0.3343(3) 0.0822(3) 0.1970(2)
O33_4 O 0.8142(3) 0.0294(3) 0.0373(3)
O36_4 O 0.2794(3) 0.0642(3) 0.2873(3)
O5_4 O 0.6858(3) 0.0294(3) 0.9627(3)
O27_4 O 0.8322(3) 0.0843(3) 0.9470(2)
O29_4 O 0.6970(2) 0.1657(3) 0.9178(3)
O35_4 O 0.7873(3) 0.2206(3) 0.9358(3)
C1_4 C 0.4907(4) 0.9186(4) 0.0575(3)
H1_4 H 0.4558 0.8913 0.0679
C3_4 C 0.5287(3) 0.9040(4) 0.0030(4)
C5_4 C 0.4617(4) 0.9874(4) 0.1529(4)
C6_4 C 0.5030(4) 0.9713(3) 0.0960(4)
O4_4 O 0.4157(3) 0.9470(2) 0.1678(3)
C9_4 C 0.5960(4) 0.9970(4) 0.0287(3)
O32_4 O 0.4706(3) 0.9627(3) 0.3142(3)
O1_4 O 0.5530(2) 0.8322(3) 0.9157(3)
O2_4 O 0.4627(3) 0.8142(3) 0.9706(3)
C2_4 C 0.5126(4) 0.8471(4) 0.9617(4)
C7_4 C 0.5814(4) 0.9425(3) 0.9907(4)
H3_4 H 0.6087 0.9321 0.9558
O25_4 O 0.4470(2) 0.6678(3) 0.9157(3)
O28_4 O 0.4178(3) 0.8030(2) 0.8343(3)
O31_4 O 0.5373(3) 0.6858(3) 0.9706(3)
O34_4 O 0.4358(3) 0.7127(3) 0.7794(3)
C20_2 C 0.0126(4) 0.3471(4) 0.4617(4)
C21_2 C 0.0287(3) 0.4040(4) 0.5030(4)
C22_2 C 0.0575(3) 0.5093(4) 0.5814(4)
H8_2 H 0.0679 0.5442 0.6087
C24_2 C 0.0030(4) 0.4713(3) 0.5960(4)
C25_2 C 0.0814(4) 0.4425(3) 0.4907(4)
H9_2 H 0.1087 0.4321 0.4558
C26_2 C 0.1529(4) 0.5383(4) 0.5126(4)
C27_2 C 0.0960(4) 0.4970(4) 0.5287(3)
C29_3 C 0.0383(4) 0.9874(4) 0.8471(4)
C34_3 C 0.0093(4) 0.9186(4) 0.9425(3)
H12_3 H 0.0442 0.8913 0.9321
C10_2 C 0.5093(4) 0.5814(4) 0.0575(3)
H4_2 H 0.5442 0.6087 0.0679
C12_2 C 0.4713(3) 0.5960(4) 0.0030(4)
C13_2 C 0.4425(3) 0.4907(4) 0.0814(4)
H5_2 H 0.4321 0.4558 0.1087
C14_2 C 0.5383(4) 0.5126(4) 0.1529(4)
C15_2 C 0.4970(4) 0.5287(3) 0.0960(4)
C17_2 C 0.3471(4) 0.4617(4) 0.0126(4)
C18_2 C 0.4040(4) 0.5030(4) 0.0287(3)
C19_2 C 0.9907(4) 0.4186(4) 0.5575(3)
H7_2 H 0.9558 0.3913 0.5679
C23_2 C 0.9617(4) 0.4874(4) 0.6529(4)
C11_2 C 0.4874(4) 0.6529(4) 0.9617(4)
C16_2 C 0.4186(4) 0.5575(3) 0.9907(4)
H6_2 H 0.3913 0.5679 0.9558
C28_3 C 0.9425(3) 0.0093(4) 0.9186(4)
H10_3 H 0.9321 0.0442 0.8913
C32_3 C 0.8471(4) 0.0383(4) 0.9874(4)
C31_3 C 0.9186(4) 0.9425(3) 0.0093(4)
H11_3 H 0.8913 0.9321 0.0442
C35_3 C 0.9874(4) 0.8471(4) 0.0383(4)
C29_4 C 0.4617(4) 0.0126(4) 0.3471(4)
C30_3 C 0.5030(4) 0.0287(3) 0.4040(4)
C31_4 C 0.5814(4) 0.0575(3) 0.5093(4)
H11_4 H 0.6087 0.0679 0.5442
C33_3 C 0.5960(4) 0.0030(4) 0.4713(3)
C34_4 C 0.4907(4) 0.0814(4) 0.4425(3)
H12_4 H 0.4558 0.1087 0.4321
C35_4 C 0.5126(4) 0.1529(4) 0.5383(4)
C36_3 C 0.5287(3) 0.0960(4) 0.4970(4)
C28_4 C 0.5575(3) 0.9907(4) 0.4186(4)
H10_4 H 0.5679 0.9558 0.3913
C32_4 C 0.6529(4) 0.9617(4) 0.4874(4)
C19_3 C 0.6686(4) 0.2407(4) 0.8075(3)
H7_3 H 0.6413 0.2058 0.8179
C20_3 C 0.5971(4) 0.2626(4) 0.7117(4)
C21_3 C 0.6540(4) 0.2787(3) 0.7530(4)
C22_3 C 0.7593(4) 0.3075(3) 0.8314(4)
H8_3 H 0.7942 0.3179 0.8587
C23_3 C 0.7374(4) 0.2117(4) 0.9029(4)
C24_3 C 0.7213(3) 0.2530(4) 0.8460(4)
C25_3 C 0.6925(3) 0.3314(4) 0.7407(4)
H9_3 H 0.6821 0.3587 0.7058
C26_3 C 0.7883(4) 0.4029(4) 0.7626(4)
C27_3 C 0.7470(4) 0.3460(4) 0.7787(3)
C28_5 C 0.2593(4) 0.1925(3) 0.1686(4)
H10_5 H 0.2942 0.1821 0.1413
C29_5 C 0.2374(4) 0.2883(4) 0.0971(4)
C30_4 C 0.2213(3) 0.2470(4) 0.1540(4)
C31_5 C 0.1925(3) 0.1686(4) 0.2593(4)
H11_5 H 0.1821 0.1413 0.2942
C32_5 C 0.2883(4) 0.0971(4) 0.2374(4)
C33_4 C 0.2470(4) 0.1540(4) 0.2213(3)
C34_5 C 0.1686(4) 0.2593(4) 0.1925(3)
H12_5 H 0.1413 0.2942 0.1821
C35_5 C 0.0971(4) 0.2374(4) 0.2883(4)
C36_4 C 0.1540(4) 0.2213(3) 0.2470(4)
C10_3 C 0.8314(4) 0.7593(4) 0.3075(3)
H4_3 H 0.8587 0.7942 0.3179
C11_3 C 0.9029(4) 0.7374(4) 0.2117(4)
C12_3 C 0.8460(4) 0.7213(3) 0.2530(4)
C13_3 C 0.7407(4) 0.6925(3) 0.3314(4)
H5_3 H 0.7058 0.6821 0.3587
C14_3 C 0.7626(4) 0.7883(4) 0.4029(4)
C15_3 C 0.7787(3) 0.7470(4) 0.3460(4)
C16_3 C 0.8075(3) 0.6686(4) 0.2407(4)
H6_3 H 0.8179 0.6413 0.2058
C17_3 C 0.7117(4) 0.5971(4) 0.2626(4)
C18_3 C 0.7530(4) 0.6540(4) 0.2787(3)
C28_6 C 0.2407(4) 0.8075(3) 0.6686(4)
H10_6 H 0.2058 0.8179 0.6413
C29_6 C 0.2626(4) 0.7117(4) 0.5971(4)
C30_5 C 0.2787(3) 0.7530(4) 0.6540(4)
C31_6 C 0.3075(3) 0.8314(4) 0.7593(4)
H11_6 H 0.3179 0.8587 0.7942
C32_6 C 0.2117(4) 0.9029(4) 0.7374(4)
C33_5 C 0.2530(4) 0.8460(4) 0.7213(3)
C34_6 C 0.3314(4) 0.7407(4) 0.6925(3)
H12_6 H 0.3587 0.7058 0.6821
C35_6 C 0.4029(4) 0.7626(4) 0.7883(4)
C36_5 C 0.3460(4) 0.7787(3) 0.7470(4)
C30_6 C 0.9970(4) 0.9713(3) 0.9040(4)
C33_6 C 0.9040(4) 0.9970(4) 0.9713(3)
C36_6 C 0.9713(3) 0.9040(4) 0.9970(4)
loop_
_geom_bond_atom_site_label_1
_geom_bond_atom_site_label_2
_geom_bond_site_symmetry_1
_geom_bond_site_symmetry_2
In1 O1 1_555 1_555
O1 C2 1_555 1_555
H3 C7 1_555 1_555
In3 O5 1_555 1_555
O13 In1 1_555 1_555
O14 In1 1_555 1_555
C19 H7 1_555 1_555
C20 O13 1_555 1_555
C21 C19 1_555 1_555
O15 C23 1_555 1_555
C22 H8 1_555 1_555
C23 C24 1_555 1_555
C24 C19 1_555 1_555
O16 C23 1_555 1_555
O17 C26 1_555 1_555
C25 C21 1_555 1_555
H9 C25 1_555 1_555
C26 C27 1_555 1_555
C27 C22 1_555 1_555
O18 C26 1_555 1_555
In7_2 O17 1_555 1_555
In8 O15 1_555 1_555
O27 In3 1_555 1_555
O29 In3 1_555 1_555
O31 In1 1_555 1_555
O35 In3 1_555 1_555
O14 C20 1_555 1_555
C20 C21 1_555 1_555
C22 C24 1_555 1_555
O16 In8 1_555 1_555
C25 C27 1_555 1_555
O18 In7_2 1_555 1_555
C4 H2 1_555 1_555
C8 C9 1_555 1_555
C9 C4 1_555 1_555
O6 C8 1_555 1_555
O7 C11 1_555 1_555
O8 C11 1_555 1_555
C10 H4 1_555 1_555
C11 C12 1_555 1_555
C12 C10 1_555 1_555
O9 In3_2 1_555 1_555
C13 H5 1_555 1_555
C14 O9 1_555 1_555
C15 C10 1_555 1_555
O10 In3_2 1_555 1_555
O11 C17 1_555 1_555
C16 C12 1_555 1_555
H6 C16 1_555 1_555
C17 C18 1_555 1_555
C18 C13 1_555 1_555
O12 C17 1_555 1_555
In4 O7 1_555 1_555
In6 O11 1_555 1_555
O33 In3_2 1_555 1_555
C4 C6 1_555 1_555
O6 In3_2 1_555 1_555
O8 In4 1_555 1_555
C13 C15 1_555 1_555
C14 C15 1_555 1_555
C14 O10 1_555 1_555
C16 C18 1_555 1_555
O12 In6 1_555 1_555
O2 In1_2 1_555 1_555
O25 In1_2 1_555 1_555
O28 In1_2 1_555 1_555
O34 In1_2 1_555 1_555
C1 H1 1_555 1_555
O3 C5 1_555 1_555
O4 C5 1_555 1_555
In2 O3 1_555 1_555
O19 C29 1_555 1_555
O20 C29 1_555 1_555
C28 H10 1_555 1_555
C29 C30 1_555 1_555
C30 C28 1_555 1_555
O21 In2 1_555 1_555
C31 H11 1_555 1_555
C32 O21 1_555 1_555
C33 C28 1_555 1_555
O22 In2 1_555 1_555
O23 C35 1_555 1_555
C34 C30 1_555 1_555
H12 C34 1_555 1_555
C35 C36 1_555 1_555
C36 C31 1_555 1_555
O24 C35 1_555 1_555
In5 O23 1_555 1_555
In9 O19 1_555 1_555
O26 In2 1_555 1_555
O30 In2 1_555 1_555
O32 In2 1_555 1_555
O36 In2 1_555 1_555
O4 In2 1_555 1_555
O20 In9 1_555 1_555
C31 C33 1_555 1_555
C32 C33 1_555 1_555
C32 O22 1_555 1_555
C34 C36 1_555 1_555
O24 In5 1_555 1_555
In4 O1_2 1_555 1_555
O1_2 C2_2 1_555 1_555
O2_2 In4 1_555 1_555
C1_2 H1_2 1_555 1_555
C2_2 O2_2 1_555 1_555
C3_2 C1_2 1_555 1_555
O3_2 C5_2 1_555 1_555
C4_2 H2_2 1_555 1_555
C5_2 C6_2 1_555 1_555
C6_2 C1_2 1_555 1_555
O4_2 C5_2 1_555 1_555
O5_2 C8_2 1_555 1_555
C7_2 C3_2 1_555 1_555
H3_2 C7_2 1_555 1_555
C8_2 C9_2 1_555 1_555
C9_2 C4_2 1_555 1_555
O6_2 C8_2 1_555 1_555
In2_2 O3_2 1_555 1_555
In8 O5_2 1_555 1_555
O19_2 C29_2 1_555 1_555
O20_2 C29_2 1_555 1_555
C28_2 H10_2 1_555 1_555
C29_2 C30_2 1_555 1_555
C30_2 C28_2 1_555 1_555
O21_2 In2_2 1_555 1_555
C31_2 H11_2 1_555 1_555
C32_2 O21_2 1_555 1_555
C33_2 C28_2 1_555 1_555
O22_2 In2_2 1_555 1_555
O23_2 C35_2 1_555 1_555
C34_2 C30_2 1_555 1_555
H12_2 C34_2 1_555 1_555
C35_2 C36_2 1_555 1_555
C36_2 C31_2 1_555 1_555
O24_2 C35_2 1_555 1_555
In5_3 O23_2 1_555 1_555
In9_2 O19_2 1_555 1_555
O25_2 In4 1_555 1_555
O26_2 In2_2 1_555 1_555
O27_2 In8 1_555 1_555
O28_2 In4 1_555 1_555
O29_2 In8 1_555 1_555
O30_2 In2_2 1_555 1_555
O31_2 In4 1_555 1_555
O32_2 In2_2 1_555 1_555
O33_2 In8 1_555 1_555
O34_2 In4 1_555 1_555
O35_2 In8 1_555 1_555
O36_2 In2_2 1_555 1_555
C2_2 C3_2 1_555 1_555
C4_2 C6_2 1_555 1_555
O4_2 In2_2 1_555 1_555
C7_2 C9_2 1_555 1_555
O6_2 In8 1_555 1_555
O20_2 In9_2 1_555 1_555
C31_2 C33_2 1_555 1_555
C32_2 C33_2 1_555 1_555
C32_2 O22_2 1_555 1_555
C34_2 C36_2 1_555 1_555
O24_2 In5_3 1_555 1_555
O2_3 In5_2 1_555 1_555
C1_3 H1_3 1_555 1_555
O4_3 C5_3 1_555 1_555
O25_3 In5_2 1_555 1_555
O28_3 In5_2 1_555 1_555
O32_3 In6 1_555 1_555
O34_3 In5_2 1_555 1_555
O4_3 In6 1_555 1_555
In6_2 O3_3 1_555 1_555
O26_3 In6_2 1_555 1_555
O30_3 In6_2 1_555 1_555
O36_3 In6_2 1_555 1_555
In5_3 O1_3 1_555 1_555
O1_3 C2_3 1_555 1_555
C7_3 C3_3 1_555 1_555
H3_3 C7_3 1_555 1_555
O31_3 In5_3 1_555 1_555
C2_3 C3_3 1_555 1_555
C7_3 C9_3 1_555 1_555
C4_3 H2_3 1_555 1_555
O5_3 C8_3 1_555 1_555
O6_3 C8_3 1_555 1_555
In9 O5_3 1_555 1_555
O27_3 In9 1_555 1_555
O29_3 In9 1_555 1_555
O33_3 In9 1_555 1_555
O35_3 In9 1_555 1_555
O6_3 In9 1_555 1_555
C4_4 H2_4 1_555 1_555
O6_4 C8_4 1_555 1_555
In7 O3_4 1_555 1_555
O26_4 In7 1_555 1_555
O30_4 In7 1_555 1_555
O33_4 In9_2 1_555 1_555
O36_4 In7 1_555 1_555
O6_4 In9_2 1_555 1_555
In9_3 O5_4 1_555 1_555
O27_4 In9_3 1_555 1_555
O29_4 In9_3 1_555 1_555
O35_4 In9_3 1_555 1_555
C1_4 H1_4 1_555 1_555
C3_4 C1_4 1_555 1_555
C5_4 C6_4 1_555 1_555
C6_4 C1_4 1_555 1_555
O4_4 C5_4 1_555 1_555
O32_4 In7_2 1_555 1_555
O4_4 In7_2 1_555 1_555
In5 O1_4 1_555 1_555
O1_4 C2_4 1_555 1_555
O2_4 In5 1_555 1_555
C2_4 O2_4 1_555 1_555
H3_4 C7_4 1_555 1_555
O25_4 In5 1_555 1_555
O28_4 In5 1_555 1_555
O31_4 In5 1_555 1_555
O34_4 In5 1_555 1_555
C20_2 O25_3 1_555 1_555
C22_2 H8_2 1_555 1_555
O33_2 C26_2 1_555 1_555
C25_2 C21_2 1_555 1_555
H9_2 C25_2 1_555 1_555
C26_2 C27_2 1_555 1_555
C27_2 C22_2 1_555 1_555
O27_2 C26_2 1_555 1_555
C20_2 C21_2 1_555 1_555
C22_2 C24_2 1_555 1_555
C25_2 C27_2 1_555 1_555
O26_3 C29_3 1_555 1_555
H12_3 C34_3 1_555 1_555
C10_2 H4_2 1_555 1_555
C12_2 C10_2 1_555 1_555
C13_2 H5_2 1_555 1_555
C14_2 O32_2 1_555 1_555
C15_2 C10_2 1_555 1_555
C17_2 C18_2 1_555 1_555
C18_2 C13_2 1_555 1_555
O27 C17_2 1_555 1_555
C19_2 H7_2 1_555 1_555
O32 C23_2 1_555 1_555
O26 C23_2 1_555 1_555
C13_2 C15_2 1_555 1_555
C14_2 C15_2 1_555 1_555
C14_2 O26_2 1_555 1_555
O25_4 C11_2 1_555 1_555
O31_4 C11_2 1_555 1_555
H6_2 C16_2 1_555 1_555
C28_3 H10_3 1_555 1_555
C32_3 O27_4 1_555 1_555
C31_3 H11_3 1_555 1_555
O25 C35_3 1_555 1_555
O26_4 C29_4 1_555 1_555
C29_4 C30_3 1_555 1_555
C31_4 H11_4 1_555 1_555
O31_2 C35_4 1_555 1_555
C34_4 C30_3 1_555 1_555
H12_4 C34_4 1_555 1_555
C35_4 C36_3 1_555 1_555
C36_3 C31_4 1_555 1_555
O25_2 C35_4 1_555 1_555
C31_4 C33_3 1_555 1_555
C34_4 C36_3 1_555 1_555
C28_4 H10_4 1_555 1_555
C32_4 O33_3 1_555 1_555
C32_4 O27_3 1_555 1_555
C19_3 H7_3 1_555 1_555
C20_3 O28_2 1_555 1_555
C21_3 C19_3 1_555 1_555
O35_4 C23_3 1_555 1_555
C22_3 H8_3 1_555 1_555
C23_3 C24_3 1_555 1_555
C24_3 C19_3 1_555 1_555
O29_4 C23_3 1_555 1_555
O36 C26_3 1_555 1_555
C25_3 C21_3 1_555 1_555
H9_3 C25_3 1_555 1_555
C26_3 C27_3 1_555 1_555
C27_3 C22_3 1_555 1_555
O30 C26_3 1_555 1_555
O29 C29_5 1_555 1_555
O35 C29_5 1_555 1_555
C28_5 H10_5 1_555 1_555
C29_5 C30_4 1_555 1_555
C30_4 C28_5 1_555 1_555
C31_5 H11_5 1_555 1_555
C32_5 O36_4 1_555 1_555
C33_4 C28_5 1_555 1_555
O34_3 C35_5 1_555 1_555
C34_5 C30_4 1_555 1_555
H12_5 C34_5 1_555 1_555
C35_5 C36_4 1_555 1_555
C36_4 C31_5 1_555 1_555
O28_3 C35_5 1_555 1_555
O34_2 C20_3 1_555 1_555
C20_3 C21_3 1_555 1_555
C22_3 C24_3 1_555 1_555
C25_3 C27_3 1_555 1_555
C31_5 C33_4 1_555 1_555
C32_5 C33_4 1_555 1_555
C32_5 O30_4 1_555 1_555
C34_5 C36_4 1_555 1_555
O28 C11_3 1_555 1_555
O34 C11_3 1_555 1_555
C10_3 H4_3 1_555 1_555
C11_3 C12_3 1_555 1_555
C12_3 C10_3 1_555 1_555
C13_3 H5_3 1_555 1_555
C14_3 O35_3 1_555 1_555
C15_3 C10_3 1_555 1_555
O36_2 C17_3 1_555 1_555
C16_3 C12_3 1_555 1_555
H6_3 C16_3 1_555 1_555
C17_3 C18_3 1_555 1_555
C18_3 C13_3 1_555 1_555
O30_2 C17_3 1_555 1_555
C13_3 C15_3 1_555 1_555
C14_3 C15_3 1_555 1_555
C14_3 O29_3 1_555 1_555
C16_3 C18_3 1_555 1_555
O29_2 C29_6 1_555 1_555
O35_2 C29_6 1_555 1_555
C28_6 H10_6 1_555 1_555
C29_6 C30_5 1_555 1_555
C30_5 C28_6 1_555 1_555
C31_6 H11_6 1_555 1_555
C32_6 O36_3 1_555 1_555
C33_5 C28_6 1_555 1_555
O34_4 C35_6 1_555 1_555
C34_6 C30_5 1_555 1_555
H12_6 C34_6 1_555 1_555
C35_6 C36_5 1_555 1_555
C36_5 C31_6 1_555 1_555
O28_4 C35_6 1_555 1_555
C31_6 C33_5 1_555 1_555
C32_6 C33_5 1_555 1_555
C32_6 O30_3 1_555 1_555
C34_6 C36_5 1_555 1_555

#END
