
###############################################################################
#
# This file contains modified crystal structure data generated from the
# MOF subset of the Cambridge Structural Database (CSD) v543 
# hosted by the Cambridge Crystallographic Data Centre (CCDC).
#
# This work is licensed under the Creative Commons
# Attribution-NonCommercial-ShareAlike 4.0 International License.
# To view a copy of this license, visit
# http://creativecommons.org/licenses/by-nc-sa/4.0/
# or send a letter to
# Creative Commons, PO Box 1866, Mountain View, CA 94042, USA.
#
# CIF created using the CSD Python API on 29 September 2022
# The structure has been converted into the P1 space group
# The structure has a 3D framework
# The original CSD entry YANBAR01 is in the monoclinic crystal system
# The framework has been calculated to contain at least 10.0% void space
# The void calculation uses a probe of radius 1.32A, grid spacing 0.4
#
###############################################################################

data_YANBAR01
_chemical_formula_moiety         '(C24 H24 Co19 O47)n'
_symmetry_cell_setting           triclinic
_symmetry_space_group_name_H-M   'P 1'
_symmetry_Int_Tables_number      1
_space_group_name_Hall           'P 1'
loop_
_symmetry_equiv_pos_site_id
_symmetry_equiv_pos_as_xyz
1 x,y,z
_cell_length_a                   11.3834(6)
_cell_length_b                   9.9292(6)
_cell_length_c                   14.4324(8)
_cell_angle_alpha                90
_cell_angle_beta                 91.2500(10)
_cell_angle_gamma                90
_cell_volume                     1630.88
loop_
_atom_site_label
_atom_site_type_symbol
_atom_site_fract_x
_atom_site_fract_y
_atom_site_fract_z
Co13 Co -0.0000 -0.0000 0.5000
Co13_2 Co -0.0000 1.0000 0.5000
Co1 Co 0.245229(13) 0.079211(15) 0.366611(10)
Co2 Co 0.239311(13) 0.387644(15) 0.310282(10)
Co3 Co 0.5000 -0.0000 0.5000
O1 O 0.34274(7) 0.25639(8) 0.39255(5)
O2 O 0.47859(7) 0.20639(9) 0.50233(6)
O5 O 0.19707(8) 0.06014(9) 0.12869(6)
O6 O 0.19584(7) 0.19854(8) 0.25192(5)
O7 O 0.62902(7) 0.00637(8) 0.71817(6)
O9 O 0.10494(7) 0.37325(9) 0.40210(6)
O10 O 0.09865(7) 0.15165(8) 0.43430(5)
C1 C 0.42213(10) 0.28685(12) 0.45341(8)
C3 C 0.18269(10) 0.17168(12) 0.16561(8)
C4 C 0.51737(10) 0.01535(12) 0.71118(8)
C5 C 0.06218(10) 0.27300(12) 0.44029(8)
H1 H 0.4386(14) 0.3816(17) 0.4625(11)
H3 H 0.1581(13) 0.2444(15) 0.1255(10)
H4 H 0.4757(14) 0.0390(17) 0.7674(11)
Co6 Co 0.254771(13) 0.579211(15) 0.133389(10)
Co10 Co 0.739311(13) 0.112356(15) 0.810282(10)
Co11 Co 0.260689(13) 0.887644(15) 0.189718(10)
Co13_3 Co 1.0000 -0.0000 0.5000
Co14 Co 0.5000 0.5000 0.0000
O15 O 0.34815(7) 0.41899(8) 0.19652(6)
O16 O 0.84815(7) 0.08101(8) 0.69652(6)
O18 O 0.51103(8) 0.37959(9) 0.11665(6)
O19 O 0.01103(8) 0.12041(9) 0.61665(6)
O20 O 0.30293(8) 0.56014(9) 0.37131(6)
O22 O 0.30416(7) 0.69854(8) 0.24808(5)
O25 O 0.12902(7) 0.49363(8) 0.21817(6)
O27 O 0.54271(7) 0.00174(9) 0.35996(6)
O32 O 0.84909(7) 0.10352(9) 0.45843(6)
O34 O 0.68478(7) 0.02564(9) 0.52269(5)
C8 C 0.44519(10) 0.35873(12) 0.18199(8)
C9 C 0.31731(10) 0.67168(12) 0.33439(8)
C12 C 0.74107(10) 0.10027(12) 0.46598(8)
H8 H 0.4667(14) 0.2879(16) 0.2257(10)
H9 H 0.3419(13) 0.7444(15) 0.3745(10)
H12 H 0.6960(14) 0.1567(16) 0.4267(11)
Co14_2 Co 0.5000 0.5000 1.0000
Co3_2 Co 0.5000 1.0000 0.5000
O3 O 0.15185(7) 0.91899(8) 0.30348(6)
O8 O 0.45729(7) 0.99826(9) 0.64004(6)
O11 O 0.15091(7) 0.89648(9) 0.54157(6)
O12 O 0.31522(7) 0.97436(9) 0.47731(5)
C2 C 0.05481(10) 0.85873(12) 0.31801(8)
C6 C 0.25893(10) 0.89973(12) 0.53402(8)
H2 H 0.0333(14) 0.7879(16) 0.2743(10)
H6 H 0.3040(14) 0.8433(16) 0.5733(11)
Co5 Co 0.754771(13) 0.920789(15) 0.633389(10)
Co8 Co 0.760689(13) 0.612356(15) 0.689718(10)
Co13_4 Co 1.0000 1.0000 0.5000
O13 O 0.65726(7) 0.74361(8) 0.60745(5)
O14 O 0.52141(7) 0.79361(9) 0.49767(6)
O17 O 0.65185(7) 0.58101(8) 0.80348(6)
O21 O 0.69707(8) 0.43986(9) 0.62869(6)
O23 O 0.80416(7) 0.80146(8) 0.74808(5)
O24 O 0.37098(7) 0.99363(8) 0.28183(6)
O26 O 0.87098(7) 0.50637(8) 0.78183(6)
O29 O 0.89506(7) 0.62675(9) 0.59790(6)
O31 O 0.90135(7) 0.84835(8) 0.56570(5)
C7 C 0.57787(10) 0.71315(12) 0.54659(8)
C10 C 0.48263(10) 0.98465(12) 0.28882(8)
H7 H 0.5614(14) 0.6184(17) 0.5375(11)
H10 H 0.5243(14) 0.9610(17) 0.2326(11)
H11 H 0.0050(15) 0.7135(18) 0.5206(11)
H5 H 0.9950(15) 0.2865(18) 0.4794(11)
O4 O 0.98897(8) 0.87959(9) 0.38335(6)
C11 C 0.93782(10) 0.72700(12) 0.55971(8)
Co3_3 Co 0.0000 0.5000 0.0000
O1_2 O 0.15726(7) 0.75639(8) 0.10745(5)
O9_2 O 0.39506(7) 0.87325(9) 0.09790(6)
O10_2 O 0.40135(7) 0.65165(8) 0.06570(5)
O12_2 O 0.18478(7) 0.47436(9) 0.02269(5)
C1_2 C 0.07787(10) 0.78685(12) 0.04659(8)
C5_2 C 0.43782(10) 0.77300(12) 0.05971(8)
H1_2 H 0.0614(14) 0.8816(17) 0.0375(11)
H5_2 H 0.5050(15) 0.7865(18) 0.0206(11)
O33 O 0.65091(7) 0.60352(9) 0.04157(6)
C10_2 C 0.01737(10) 0.48465(12) 0.21118(8)
Co3_4 Co -0.0000 0.5000 1.0000
O2_2 O 0.02141(7) 0.70639(9) 0.99767(6)
O8_2 O 0.04271(7) 0.49826(9) 0.85996(6)
O11_2 O 0.34909(7) 0.39648(9) 0.95843(6)
C6_2 C 0.24107(10) 0.39973(12) 0.96598(8)
H4_2 H 0.0243(14) 0.5390(17) 0.7326(11)
H6_2 H 0.1960(14) 0.3433(16) 0.9267(11)
Co7 Co 0.745229(13) 0.420789(15) 0.866611(10)
O19_2 O 0.48897(8) 0.62041(9) 0.88335(6)
O28 O 0.60494(7) 0.12675(9) 0.90210(6)
O30 O 0.59865(7) 0.34835(8) 0.93430(5)
C11_2 C 0.56218(10) 0.22700(12) 0.94029(8)
H11_2 H 0.4950(15) 0.2135(18) 0.9794(11)
Co3_5 Co 1.0000 0.5000 0.0000
O14_2 O 0.97859(7) 0.29361(9) 0.00233(6)
O27_2 O 0.95729(7) 0.50174(9) 0.14004(6)
C12_2 C 0.75893(10) 0.60027(12) 0.03402(8)
H10_2 H 0.9757(14) 0.4610(17) 0.2674(11)
H12_2 H 0.8040(14) 0.6567(16) 0.0733(11)
Co3_6 Co 1.0000 0.5000 1.0000
C4_2 C 0.98263(10) 0.51535(12) 0.78882(8)
O13_2 O 0.84274(7) 0.24361(8) 0.89255(5)
O23_2 O 0.69584(7) 0.30146(8) 0.75192(5)
O34_2 O 0.81522(7) 0.52564(9) 0.97731(5)
C7_2 C 0.92213(10) 0.21315(12) 0.95341(8)
H7_2 H 0.9386(14) 0.1184(17) 0.9625(11)
O21_2 O 0.80293(8) 0.93986(9) 0.87131(6)
C2_2 C 0.94519(10) 0.14127(12) 0.68199(8)
H2_2 H 0.9667(14) 0.2121(16) 0.7257(10)
C3_2 C 0.81731(10) 0.82832(12) 0.83439(8)
H3_2 H 0.8419(13) 0.7556(15) 0.8745(10)
C8_2 C 0.55481(10) 0.64127(12) 0.81801(8)
C9_2 C 0.68269(10) 0.32832(12) 0.66561(8)
H8_2 H 0.5333(14) 0.7121(16) 0.7743(10)
H9_2 H 0.6581(13) 0.2556(15) 0.6255(10)
loop_
_geom_bond_atom_site_label_1
_geom_bond_atom_site_label_2
_geom_bond_site_symmetry_1
_geom_bond_site_symmetry_2
Co1 O1 1_555 1_555
Co2 O1 1_555 1_555
Co3 O2 1_555 1_555
O1 C1 1_555 1_555
O2 C1 1_555 1_555
O5 C3 1_555 1_555
O6 Co1 1_555 1_555
O7 C4 1_555 1_555
O9 Co2 1_555 1_555
O10 Co1 1_555 1_555
C1 H1 1_555 1_555
C3 O6 1_555 1_555
C5 O9 1_555 1_555
H3 C3 1_555 1_555
H4 C4 1_555 1_555
Co6 O15 1_555 1_555
Co10 O7 1_555 1_555
Co11 O22 1_555 1_555
Co14 O18 1_555 1_555
O15 Co2 1_555 1_555
O18 C8 1_555 1_555
O19 Co13 1_555 1_555
O20 Co2 1_555 1_555
O22 Co6 1_555 1_555
O25 Co2 1_555 1_555
O27 Co3 1_555 1_555
O32 Co13_3 1_555 1_555
O34 Co3 1_555 1_555
C8 O15 1_555 1_555
C9 O20 1_555 1_555
C12 O32 1_555 1_555
H8 C8 1_555 1_555
H9 C9 1_555 1_555
H12 C12 1_555 1_555
Co2 O6 1_555 1_555
Co13 O10 1_555 1_555
O10 C5 1_555 1_555
Co6 O25 1_555 1_555
Co10 O16 1_555 1_555
O22 C9 1_555 1_555
O34 C12 1_555 1_555
O8 Co3_2 1_555 1_555
O11 Co13_2 1_555 1_555
C2 O3 1_555 1_555
C6 O11 1_555 1_555
H2 C2 1_555 1_555
H6 C6 1_555 1_555
Co8 O13 1_555 1_555
Co11 O3 1_555 1_555
Co13_4 O31 1_555 1_555
O13 Co5 1_555 1_555
O14 Co3_2 1_555 1_555
O17 Co8 1_555 1_555
O21 Co8 1_555 1_555
O23 Co5 1_555 1_555
O26 Co8 1_555 1_555
O29 Co8 1_555 1_555
O31 Co5 1_555 1_555
C7 O13 1_555 1_555
C10 O24 1_555 1_555
H7 C7 1_555 1_555
H10 C10 1_555 1_555
Co3_2 O12 1_555 1_555
O12 C6 1_555 1_555
Co8 O23 1_555 1_555
Co11 O24 1_555 1_555
O14 C7 1_555 1_555
Co13_4 O4 1_555 1_555
O29 C11 1_555 1_555
C11 O31 1_555 1_555
Co6 O1_2 1_555 1_555
Co11 O1_2 1_555 1_555
O1_2 C1_2 1_555 1_555
O9_2 Co11 1_555 1_555
O10_2 Co6 1_555 1_555
O12_2 Co6 1_555 1_555
C1_2 H1_2 1_555 1_555
C5_2 O9_2 1_555 1_555
H5_2 C5_2 1_555 1_555
O33 Co14 1_555 1_555
C10_2 O25 1_555 1_555
Co3_3 O12_2 1_555 1_555
Co14 O10_2 1_555 1_555
O10_2 C5_2 1_555 1_555
Co3_4 O2_2 1_555 1_555
O8_2 Co3_4 1_555 1_555
O11_2 Co14_2 1_555 1_555
C6_2 O11_2 1_555 1_555
H6_2 C6_2 1_555 1_555
Co7 O30 1_555 1_555
Co10 O28 1_555 1_555
O19_2 Co14_2 1_555 1_555
O28 C11_2 1_555 1_555
O30 Co14_2 1_555 1_555
C11_2 O30 1_555 1_555
H11_2 C11_2 1_555 1_555
O14_2 Co3_5 1_555 1_555
O27_2 Co3_5 1_555 1_555
C12_2 O33 1_555 1_555
H12_2 C12_2 1_555 1_555
O26 C4_2 1_555 1_555
Co7 O26 1_555 1_555
Co10 O13_2 1_555 1_555
O13_2 Co7 1_555 1_555
O17 Co7 1_555 1_555
O23_2 Co7 1_555 1_555
O34_2 Co3_6 1_555 1_555
C7_2 O13_2 1_555 1_555
H7_2 C7_2 1_555 1_555
Co7 O34_2 1_555 1_555
Co10 O23_2 1_555 1_555
C2_2 O16 1_555 1_555
H2_2 C2_2 1_555 1_555
O21_2 C3_2 1_555 1_555
C3_2 O23 1_555 1_555
H3_2 C3_2 1_555 1_555
O19_2 C8_2 1_555 1_555
C8_2 O17 1_555 1_555
C9_2 O21 1_555 1_555
H8_2 C8_2 1_555 1_555
H9_2 C9_2 1_555 1_555
O23_2 C9_2 1_555 1_555

#END
