
###############################################################################
#
# This file contains modified crystal structure data generated from the
# MOF subset of the Cambridge Structural Database (CSD) v543 
# hosted by the Cambridge Crystallographic Data Centre (CCDC).
#
# This work is licensed under the Creative Commons
# Attribution-NonCommercial-ShareAlike 4.0 International License.
# To view a copy of this license, visit
# http://creativecommons.org/licenses/by-nc-sa/4.0/
# or send a letter to
# Creative Commons, PO Box 1866, Mountain View, CA 94042, USA.
#
# CIF created using the CSD Python API on 29 September 2022
# The structure has been converted into the P1 space group
# The structure has a 3D framework
# The original CSD entry YANBAR02 is in the monoclinic crystal system
# The framework has been calculated to contain at least 10.0% void space
# The void calculation uses a probe of radius 1.32A, grid spacing 0.4
#
###############################################################################

data_YANBAR02
_chemical_formula_moiety         '(C24 H24 Co16 O46)n'
_symmetry_cell_setting           triclinic
_symmetry_space_group_name_H-M   'P 1'
_symmetry_Int_Tables_number      1
_space_group_name_Hall           'P 1'
loop_
_symmetry_equiv_pos_site_id
_symmetry_equiv_pos_as_xyz
1 x,y,z
_cell_length_a                   11.418(3)
_cell_length_b                   10.076(2)
_cell_length_c                   14.908(5)
_cell_angle_alpha                90
_cell_angle_beta                 91.42(2)
_cell_angle_gamma                90
_cell_volume                     1714.61
loop_
_atom_site_label
_atom_site_type_symbol
_atom_site_fract_x
_atom_site_fract_y
_atom_site_fract_z
Co3 Co 0.0000 0.0000 0.0000
Co4 Co 0.5000 0.0000 0.0000
O3 O 0.15155(19) 0.0969(3) 0.04413(17)
C2 C 0.2589(3) 0.0957(3) 0.0351(2)
H2 H 0.3034 0.1494 0.0735
O36 O 0.51912(19) 0.2048(2) 0.00617(15)
Co1 Co 0.26053(3) 0.12246(4) 0.69525(2)
Co3_2 Co 0.0000 0.0000 1.0000
Co4_2 Co 0.5000 0.0000 1.0000
O2 O 0.15251(18) 0.0899(2) 0.80733(14)
O4 O 0.31490(18) 0.0267(2) 0.97701(14)
O5 O 0.5415(2) 0.0101(3) 0.86365(15)
O6 O 0.37131(18) 0.0165(2) 0.78518(14)
O7 O 0.3966(2) 0.1365(2) 0.60704(15)
O8 O 0.40180(17) 0.3528(2) 0.56898(14)
O9 O 0.30498(19) 0.3120(2) 0.74889(13)
O10 O 0.3061(2) 0.4535(2) 0.86546(14)
O11 O 0.15696(18) 0.2508(2) 0.61292(13)
O12 O 0.01912(19) 0.2952(2) 0.50617(15)
C1 C 0.0582(3) 0.1515(3) 0.8259(2)
H1 H 0.0359 0.2209 0.7880
C3 C 0.4824(3) 0.0274(3) 0.7940(2)
H3 H 0.5229 0.0508 0.7430
C4 C 0.4389(3) 0.2336(3) 0.5674(2)
H4 H 0.5043 0.2173 0.5331
C5 C 0.3212(3) 0.3421(3) 0.8316(2)
H5 H 0.3464 0.2746 0.8700
C6 C 0.0766(3) 0.2184(3) 0.5559(2)
H6 H 0.0593 0.1284 0.5509
Co6 Co 0.23947(3) 0.62246(4) 0.80475(2)
Co9 Co 0.25492(3) 0.42746(4) 0.63403(2)
Co12 Co 0.5000 0.5000 0.5000
Co15 Co 0.0000 0.5000 0.5000
Co3_3 Co 0.0000 1.0000 0.0000
Co4_3 Co 0.5000 1.0000 0.0000
O13 O 0.0063(2) 0.8725(2) 0.11059(16)
O17 O 0.68510(18) 0.9733(2) 0.02299(14)
O19 O 0.4585(2) 0.9899(3) 0.13635(15)
Co2 Co 0.24508(3) 0.92746(4) 0.86597(2)
Co3_4 Co 0.0000 1.0000 1.0000
Co4_4 Co 0.5000 1.0000 1.0000
O23 O 0.09820(17) 0.8528(2) 0.93102(14)
O26 O 0.19502(19) 0.8120(2) 0.75111(13)
O29 O 0.1939(2) 0.9535(2) 0.63454(14)
O32 O 0.34304(18) 0.7508(2) 0.88708(13)
O35 O 0.48088(19) 0.7952(2) 0.99383(15)
Co3_5 Co 1.0000 0.0000 0.0000
Co8 Co 0.75492(3) 0.07254(4) 0.13403(2)
O24 O 0.90180(17) 0.1472(2) 0.06898(14)
O27 O 0.80498(19) 0.1880(2) 0.24889(13)
O30 O 0.8061(2) 0.0465(2) 0.36546(14)
O33 O 0.65696(18) 0.2492(2) 0.11292(13)
Co3_6 Co 1.0000 0.0000 1.0000
O1 O 0.9937(2) 0.1275(2) 0.88941(16)
Co15_2 Co 1.0000 0.5000 0.5000
Co3_7 Co 1.0000 1.0000 0.0000
Co5 Co 0.73947(3) 0.87754(4) 0.30475(2)
Co7 Co 0.76053(3) 0.37754(4) 0.19525(2)
Co10 Co 0.74508(3) 0.57254(4) 0.36597(2)
O14 O 0.84749(18) 0.9101(2) 0.19267(14)
O20 O 0.62869(18) 0.9835(2) 0.21482(14)
O21 O 0.6034(2) 0.8635(2) 0.39296(15)
O22 O 0.59820(17) 0.6472(2) 0.43102(14)
O25 O 0.69502(19) 0.6880(2) 0.25111(13)
O28 O 0.6939(2) 0.5465(2) 0.13454(14)
O31 O 0.84304(18) 0.7492(2) 0.38708(13)
O34 O 0.98088(19) 0.7048(2) 0.49383(15)
C7 C 0.9418(3) 0.8485(3) 0.1741(2)
H7 H 0.9641 0.7791 0.2120
C9 C 0.5176(3) 0.9726(3) 0.2060(2)
H9 H 0.4771 0.9492 0.2570
C10 C 0.5611(3) 0.7664(3) 0.4326(2)
H10 H 0.4957 0.7827 0.4669
C11 C 0.6788(3) 0.6579(3) 0.1684(2)
H11 H 0.6536 0.7254 0.1300
C12 C 0.9234(3) 0.7816(3) 0.4441(2)
H12 H 0.9407 0.8716 0.4491
Co3_8 Co 1.0000 1.0000 1.0000
O15 O 0.84845(19) 0.9031(3) 0.95587(17)
C8 C 0.7411(3) 0.9043(3) 0.9649(2)
H8 H 0.6966 0.8506 0.9265
O18 O 0.0415(2) 0.4899(3) 0.36365(15)
H9_2 H 0.0229 0.4492 0.2430
H10_2 H 0.0043 0.2827 0.0331
O1_2 O 0.5063(2) 0.6275(2) 0.61059(16)
O2_2 O 0.34749(18) 0.5899(2) 0.69267(14)
O3_2 O 0.34845(19) 0.5969(3) 0.45587(17)
O4_2 O 0.18510(18) 0.5267(2) 0.52299(14)
O6_2 O 0.12869(18) 0.5165(2) 0.71482(14)
O7_2 O 0.1034(2) 0.6365(2) 0.89296(15)
C1_2 C 0.4418(3) 0.6515(3) 0.6741(2)
H1_2 H 0.4641 0.7209 0.7120
C2_2 C 0.2411(3) 0.5957(3) 0.4649(2)
H2_2 H 0.1966 0.6494 0.4265
C3_2 C 0.0176(3) 0.5274(3) 0.7060(2)
C4_2 C 0.0611(3) 0.7336(3) 0.9326(2)
C5_2 C 0.1788(3) 0.8421(3) 0.6684(2)
H5_2 H 0.1536 0.7746 0.6300
C6_2 C 0.4234(3) 0.7184(3) 0.9441(2)
H6_2 H 0.4407 0.6284 0.9491
O13_2 O 0.4937(2) 0.3725(2) 0.38941(16)
O14_2 O 0.65251(18) 0.4101(2) 0.30733(14)
O15_2 O 0.65155(19) 0.4031(3) 0.54413(17)
O16 O 0.81490(18) 0.4733(2) 0.47701(14)
O20_2 O 0.87131(18) 0.4835(2) 0.28518(14)
O21_2 O 0.8966(2) 0.3635(2) 0.10704(15)
C7_2 C 0.5582(3) 0.3485(3) 0.3259(2)
H7_2 H 0.5359 0.2791 0.2880
C8_2 C 0.7589(3) 0.4043(3) 0.5351(2)
H8_2 H 0.8034 0.3506 0.5735
C9_2 C 0.9824(3) 0.4726(3) 0.2940(2)
C10_2 C 0.9389(3) 0.2664(3) 0.0674(2)
C11_2 C 0.8212(3) 0.1579(3) 0.3316(2)
H11_2 H 0.8464 0.2254 0.3700
C12_2 C 0.5766(3) 0.2816(3) 0.0559(2)
H12_2 H 0.5593 0.3716 0.0509
O5_2 O 0.9585(2) 0.5101(3) 0.63635(15)
H3_2 H 0.9771 0.5508 0.7570
H4_2 H 0.9957 0.7173 0.9669
loop_
_geom_bond_atom_site_label_1
_geom_bond_atom_site_label_2
_geom_bond_site_symmetry_1
_geom_bond_site_symmetry_2
O3 Co3 1_555 1_555
C2 O3 1_555 1_555
H2 C2 1_555 1_555
O36 Co4 1_555 1_555
Co1 O2 1_555 1_555
Co4_2 O4 1_555 1_555
O2 C1 1_555 1_555
O5 Co4_2 1_555 1_555
O6 Co1 1_555 1_555
O7 Co1 1_555 1_555
O8 C4 1_555 1_555
O9 Co1 1_555 1_555
O10 C5 1_555 1_555
O11 Co1 1_555 1_555
O12 C6 1_555 1_555
C1 H1 1_555 1_555
C3 O5 1_555 1_555
H3 C3 1_555 1_555
C4 O7 1_555 1_555
H4 C4 1_555 1_555
C5 O9 1_555 1_555
H5 C5 1_555 1_555
C6 O11 1_555 1_555
H6 C6 1_555 1_555
Co6 O10 1_555 1_555
Co9 O8 1_555 1_555
Co12 O8 1_555 1_555
Co15 O12 1_555 1_555
O6 C3 1_555 1_555
O9 Co9 1_555 1_555
O11 Co9 1_555 1_555
O13 Co3_3 1_555 1_555
O17 Co4_3 1_555 1_555
O19 Co4_3 1_555 1_555
O23 Co2 1_555 1_555
O26 Co2 1_555 1_555
O32 Co2 1_555 1_555
O35 Co4_4 1_555 1_555
Co3_4 O23 1_555 1_555
O24 Co3_5 1_555 1_555
O27 Co8 1_555 1_555
O33 Co8 1_555 1_555
Co8 O24 1_555 1_555
Co3_6 O1 1_555 1_555
Co5 O14 1_555 1_555
Co7 O28 1_555 1_555
Co10 O22 1_555 1_555
Co12 O22 1_555 1_555
Co15_2 O34 1_555 1_555
O14 C7 1_555 1_555
O20 Co5 1_555 1_555
O21 Co5 1_555 1_555
O22 C10 1_555 1_555
O25 Co5 1_555 1_555
O28 C11 1_555 1_555
O31 Co5 1_555 1_555
O34 C12 1_555 1_555
H7 C7 1_555 1_555
C9 O19 1_555 1_555
H9 C9 1_555 1_555
C10 O21 1_555 1_555
H10 C10 1_555 1_555
C11 O25 1_555 1_555
H11 C11 1_555 1_555
C12 O31 1_555 1_555
H12 C12 1_555 1_555
Co10 O25 1_555 1_555
Co10 O31 1_555 1_555
O20 C9 1_555 1_555
O15 Co3_8 1_555 1_555
C8 O15 1_555 1_555
H8 C8 1_555 1_555
O18 Co15 1_555 1_555
Co6 O2_2 1_555 1_555
Co9 O2_2 1_555 1_555
Co12 O1_2 1_555 1_555
Co15 O4_2 1_555 1_555
O1_2 C1_2 1_555 1_555
O2_2 C1_2 1_555 1_555
O3_2 Co12 1_555 1_555
O4_2 Co9 1_555 1_555
O6_2 Co6 1_555 1_555
O7_2 Co6 1_555 1_555
O23 C4_2 1_555 1_555
O26 Co6 1_555 1_555
O29 C5_2 1_555 1_555
O32 Co6 1_555 1_555
O35 C6_2 1_555 1_555
C1_2 H1_2 1_555 1_555
C2_2 O3_2 1_555 1_555
H2_2 C2_2 1_555 1_555
C4_2 O7_2 1_555 1_555
C5_2 O26 1_555 1_555
H5_2 C5_2 1_555 1_555
C6_2 O32 1_555 1_555
H6_2 C6_2 1_555 1_555
Co7 O14_2 1_555 1_555
Co10 O14_2 1_555 1_555
Co15_2 O16 1_555 1_555
O13_2 Co12 1_555 1_555
O14_2 C7_2 1_555 1_555
O15_2 Co12 1_555 1_555
O16 Co10 1_555 1_555
O20_2 Co7 1_555 1_555
O21_2 Co7 1_555 1_555
O24 C10_2 1_555 1_555
O27 Co7 1_555 1_555
O30 C11_2 1_555 1_555
O33 Co7 1_555 1_555
O36 C12_2 1_555 1_555
C7_2 O13_2 1_555 1_555
H7_2 C7_2 1_555 1_555
C8_2 O15_2 1_555 1_555
H8_2 C8_2 1_555 1_555
C10_2 O21_2 1_555 1_555
C11_2 O27 1_555 1_555
H11_2 C11_2 1_555 1_555
C12_2 O33 1_555 1_555
H12_2 C12_2 1_555 1_555
Co9 O6_2 1_555 1_555
O4_2 C2_2 1_555 1_555
O6_2 C3_2 1_555 1_555
Co10 O20_2 1_555 1_555
O16 C8_2 1_555 1_555
O20_2 C9_2 1_555 1_555
O5_2 Co15_2 1_555 1_555

#END
