
###############################################################################
#
# This file contains modified crystal structure data generated from the
# MOF subset of the Cambridge Structural Database (CSD) v543 
# hosted by the Cambridge Crystallographic Data Centre (CCDC).
#
# This work is licensed under the Creative Commons
# Attribution-NonCommercial-ShareAlike 4.0 International License.
# To view a copy of this license, visit
# http://creativecommons.org/licenses/by-nc-sa/4.0/
# or send a letter to
# Creative Commons, PO Box 1866, Mountain View, CA 94042, USA.
#
# CIF created using the CSD Python API on 29 September 2022
# The structure has been converted into the P1 space group
# The structure has a 3D framework
# The original CSD entry YANBAR04 is in the monoclinic crystal system
# The framework has been calculated to contain at least 10.0% void space
# The void calculation uses a probe of radius 1.32A, grid spacing 0.4
#
###############################################################################

data_YANBAR04
_chemical_formula_moiety         '(C24 H24 Co22 O47)n'
_symmetry_cell_setting           triclinic
_symmetry_space_group_name_H-M   'P 1'
_symmetry_Int_Tables_number      1
_space_group_name_Hall           'P 1'
loop_
_symmetry_equiv_pos_site_id
_symmetry_equiv_pos_as_xyz
1 x,y,z
_cell_length_a                   11.2513(17)
_cell_length_b                   9.9075(16)
_cell_length_c                   14.548(2)
_cell_angle_alpha                90
_cell_angle_beta                 91.397(3)
_cell_angle_gamma                90
_cell_volume                     1621.22
loop_
_atom_site_label
_atom_site_type_symbol
_atom_site_fract_x
_atom_site_fract_y
_atom_site_fract_z
Co2 Co 0.0000 0.5000 0.5000
O8 O 0.0186(7) 0.3907(9) 0.6211(6)
O25 O 0.1491(7) 0.6089(9) 0.5364(6)
O31 O 0.1021(6) 0.3473(7) 0.4381(5)
O32 O 0.6865(7) 0.0559(8) 0.6332(5)
Co1 Co 0.5000 0.5000 0.5000
Co2_2 Co 1.0000 0.5000 0.5000
Co3 Co 0.75536(12) 0.57724(14) 0.63357(10)
Co4 Co 0.75939(12) 0.88543(15) 0.69132(10)
O1 O 0.6851(6) 0.4737(8) 0.5225(5)
O2 O 0.8509(7) 0.3911(9) 0.4636(6)
O3 O 0.4588(7) 0.4972(10) 0.6397(6)
O4 O 0.6292(6) 0.4910(7) 0.7180(5)
O5 O 0.5177(7) 0.7083(8) 0.5015(6)
O6 O 0.6528(6) 0.7540(8) 0.6110(5)
O7 O 0.8512(6) 0.4143(7) 0.6946(5)
O9 O 0.8979(6) 0.6527(7) 0.5619(5)
O10 O 0.8864(7) 0.8716(8) 0.5943(5)
O11 O 0.8073(6) 0.6956(7) 0.7474(5)
O12 O 0.8135(7) 0.5559(8) 0.8668(5)
C1 C 0.7430(10) 0.3984(12) 0.4674(8)
H1 H 0.6987 0.3447 0.4269
C2 C 0.5185(9) 0.4820(13) 0.7105(8)
H2 H 0.4776 0.4618 0.7636
C3 C 0.5735(10) 0.7862(12) 0.5510(9)
H3 H 0.5565 0.8776 0.5444
C4 C 0.9529(11) 0.3655(13) 0.6840(9)
H4 H 0.9805 0.3046 0.7282
C5 C 0.9275(10) 0.7749(13) 0.5546(8)
H5 H 0.9880 0.7932 0.5139
C6 C 0.8286(10) 0.6646(11) 0.8309(8)
H6 H 0.8592 0.7328 0.8685
Co5 Co 0.24464(12) 0.42276(14) 0.36643(10)
Co6 Co 0.24061(12) 0.11457(15) 0.30868(10)
O13 O 0.3149(6) 0.5263(8) 0.4775(5)
O15 O 0.5412(7) 0.5028(10) 0.3603(6)
O16 O 0.3708(6) 0.5090(7) 0.2820(5)
O17 O 0.4823(7) 0.2917(8) 0.4985(6)
O18 O 0.3472(6) 0.2460(8) 0.3890(5)
O19 O 0.1488(6) 0.5857(7) 0.3054(5)
O22 O 0.1136(7) 0.1284(8) 0.4057(5)
O23 O 0.1927(6) 0.3044(7) 0.2526(5)
O24 O 0.1865(7) 0.4441(8) 0.1332(5)
C7 C 0.2570(10) 0.6016(12) 0.5326(8)
H7 H 0.3013 0.6553 0.5731
C8 C 0.4815(9) 0.5180(13) 0.2895(8)
H8 H 0.5224 0.5382 0.2364
C9 C 0.4265(10) 0.2138(12) 0.4490(9)
H9 H 0.4435 0.1224 0.4556
C10 C 0.0471(11) 0.6345(13) 0.3160(9)
H10 H 0.0195 0.6954 0.2718
C11 C 0.0725(10) 0.2251(13) 0.4454(8)
H11 H 0.0120 0.2068 0.4861
C12 C 0.1714(10) 0.3354(11) 0.1691(8)
H12 H 0.1408 0.2672 0.1315
Co8 Co 0.74061(12) 0.38543(15) 0.80868(10)
Co9 Co 0.25939(12) 0.61457(15) 0.19132(10)
O26 O 0.8708(6) 0.9910(7) 0.7820(5)
O27 O 0.1292(6) 0.0090(7) 0.2180(5)
O28 O 0.6488(6) 0.9143(7) 0.8054(5)
O29 O 0.3512(6) 0.0857(7) 0.1946(5)
O30 O 0.9814(7) 0.6093(9) 0.3789(6)
O33 O 0.3135(7) 0.9441(8) 0.3668(5)
Co1_2 Co 0.0000 -0.0000 -0.0000
O13_2 O 0.1851(6) 0.0263(8) 0.0225(5)
O20 O 0.5186(7) 0.1093(9) 0.1211(6)
C8_2 C 0.0185(9) 0.0180(13) 0.2105(8)
C10_2 C 0.4529(11) 0.1345(13) 0.1840(9)
H10_2 H 0.4805 0.1954 0.2282
Co7 Co 0.5000 -0.0000 -0.0000
Co1_3 Co 0.0000 -0.0000 1.0000
O14 O 0.3509(7) 0.1089(9) 0.9636(6)
C7_2 C 0.2430(10) 0.1016(12) 0.9674(8)
H7_2 H 0.1987 0.1553 0.9269
Co7_2 Co 0.5000 -0.0000 1.0000
Co1_4 Co 0.0000 1.0000 -0.0000
Co5_2 Co 0.25536(12) 0.92276(14) 0.13357(10)
O17_2 O 0.0177(7) 0.7917(8) 0.0015(6)
O18_2 O 0.1528(6) 0.7460(8) 0.1110(5)
O21 O 0.3979(6) 0.8473(7) 0.0619(5)
O22_2 O 0.3864(7) 0.6284(8) 0.0943(5)
O23_2 O 0.3073(6) 0.8044(7) 0.2474(5)
C9_2 C 0.0735(10) 0.7138(12) 0.0510(9)
H9_2 H 0.0565 0.6224 0.0444
C11_2 C 0.4275(10) 0.7251(13) 0.0546(8)
H11_2 H 0.4880 0.7068 0.0139
C12_2 C 0.3286(10) 0.8354(11) 0.3309(8)
H12_2 H 0.3592 0.7672 0.3685
Co7_3 Co 0.5000 1.0000 -0.0000
Co1_5 Co 0.0000 1.0000 1.0000
O3_2 O 0.0412(7) 0.9972(10) 0.8603(6)
H2_2 H 0.0224 0.9618 0.7364
Co7_4 Co 0.5000 1.0000 1.0000
Co1_6 Co 1.0000 -0.0000 -0.0000
O15_2 O 0.9588(7) 0.0028(10) 0.1397(6)
H8_2 H 0.9776 0.0382 0.2636
Co1_7 Co 1.0000 -0.0000 1.0000
Co3_2 Co 0.74464(12) 0.07724(14) 0.86643(10)
O5_2 O 0.9823(7) 0.2083(8) 0.9985(6)
O6_2 O 0.8472(6) 0.2540(8) 0.8890(5)
O9_2 O 0.6021(6) 0.1527(7) 0.9381(5)
O10_2 O 0.6136(7) 0.3716(8) 0.9057(5)
O11_2 O 0.6927(6) 0.1956(7) 0.7526(5)
C3_2 C 0.9265(10) 0.2862(12) 0.9490(9)
H3_2 H 0.9435 0.3776 0.9556
C5_2 C 0.5725(10) 0.2749(13) 0.9454(8)
H5_2 H 0.5120 0.2932 0.9861
C6_2 C 0.6714(10) 0.1646(11) 0.6691(8)
H6_2 H 0.6408 0.2328 0.6315
Co1_8 Co 1.0000 1.0000 -0.0000
O2_2 O 0.6491(7) 0.8911(9) 0.0364(6)
C1_2 C 0.7570(10) 0.8984(12) 0.0326(8)
H1_2 H 0.8013 0.8447 0.0731
Co1_9 Co 1.0000 1.0000 1.0000
O1_2 O 0.8149(6) 0.9737(8) 0.9775(5)
O8_2 O 0.4814(7) 0.8907(9) 0.8789(6)
C2_2 C 0.9815(9) 0.9820(13) 0.7895(8)
C4_2 C 0.5471(11) 0.8655(13) 0.8160(9)
H4_2 H 0.5195 0.8046 0.7718
loop_
_geom_bond_atom_site_label_1
_geom_bond_atom_site_label_2
_geom_bond_site_symmetry_1
_geom_bond_site_symmetry_2
O8 Co2 1_555 1_555
O25 Co2 1_555 1_555
O31 Co2 1_555 1_555
Co1 O1 1_555 1_555
Co2_2 O2 1_555 1_555
Co3 O1 1_555 1_555
Co4 O6 1_555 1_555
O1 C1 1_555 1_555
O2 C1 1_555 1_555
O3 Co1 1_555 1_555
O4 Co3 1_555 1_555
O5 Co1 1_555 1_555
O6 Co3 1_555 1_555
O7 Co3 1_555 1_555
O9 Co2_2 1_555 1_555
O10 Co4 1_555 1_555
O11 Co3 1_555 1_555
O12 C6 1_555 1_555
C1 H1 1_555 1_555
C2 O3 1_555 1_555
H2 C2 1_555 1_555
C3 O5 1_555 1_555
H3 C3 1_555 1_555
C4 O7 1_555 1_555
H4 C4 1_555 1_555
C5 O9 1_555 1_555
H5 C5 1_555 1_555
C6 O11 1_555 1_555
H6 C6 1_555 1_555
Co5 O13 1_555 1_555
Co6 O18 1_555 1_555
O13 Co1 1_555 1_555
O25 C7 1_555 1_555
O15 Co1 1_555 1_555
O16 Co5 1_555 1_555
O17 Co1 1_555 1_555
O18 Co5 1_555 1_555
O19 Co5 1_555 1_555
O31 Co5 1_555 1_555
O22 Co6 1_555 1_555
O23 Co5 1_555 1_555
O24 C12 1_555 1_555
C7 O13 1_555 1_555
H7 C7 1_555 1_555
C8 O15 1_555 1_555
H8 C8 1_555 1_555
C9 O17 1_555 1_555
H9 C9 1_555 1_555
C10 O19 1_555 1_555
H10 C10 1_555 1_555
C11 O31 1_555 1_555
H11 C11 1_555 1_555
C12 O23 1_555 1_555
H12 C12 1_555 1_555
Co8 O4 1_555 1_555
Co9 O16 1_555 1_555
O26 Co4 1_555 1_555
O27 Co6 1_555 1_555
O28 Co4 1_555 1_555
O29 Co6 1_555 1_555
O30 Co2_2 1_555 1_555
Co3 O9 1_555 1_555
Co4 O11 1_555 1_555
O4 C2 1_555 1_555
O6 C3 1_555 1_555
O7 Co8 1_555 1_555
O10 C5 1_555 1_555
O12 Co8 1_555 1_555
Co6 O23 1_555 1_555
O16 C8 1_555 1_555
O18 C9 1_555 1_555
O19 Co9 1_555 1_555
O22 C11 1_555 1_555
O24 Co9 1_555 1_555
O13_2 Co1_2 1_555 1_555
O20 C10_2 1_555 1_555
C10_2 O29 1_555 1_555
H10_2 C10_2 1_555 1_555
O27 C8_2 1_555 1_555
O20 Co7 1_555 1_555
O14 C7_2 1_555 1_555
H7_2 C7_2 1_555 1_555
Co7_2 O14 1_555 1_555
Co9 O18_2 1_555 1_555
O17_2 Co1_4 1_555 1_555
O18_2 Co5_2 1_555 1_555
O21 Co5_2 1_555 1_555
O22_2 Co9 1_555 1_555
O23_2 Co5_2 1_555 1_555
O33 C12_2 1_555 1_555
C9_2 O17_2 1_555 1_555
H9_2 C9_2 1_555 1_555
C11_2 O21 1_555 1_555
H11_2 C11_2 1_555 1_555
C12_2 O23_2 1_555 1_555
H12_2 C12_2 1_555 1_555
Co9 O23_2 1_555 1_555
O18_2 C9_2 1_555 1_555
O21 Co7_3 1_555 1_555
O22_2 C11_2 1_555 1_555
O3_2 Co1_5 1_555 1_555
O15_2 Co1_6 1_555 1_555
Co8 O6_2 1_555 1_555
O5_2 Co1_7 1_555 1_555
O6_2 Co3_2 1_555 1_555
O9_2 Co7_2 1_555 1_555
O10_2 Co8 1_555 1_555
O11_2 Co3_2 1_555 1_555
O32 C6_2 1_555 1_555
C3_2 O5_2 1_555 1_555
H3_2 C3_2 1_555 1_555
C5_2 O9_2 1_555 1_555
H5_2 C5_2 1_555 1_555
C6_2 O11_2 1_555 1_555
H6_2 C6_2 1_555 1_555
Co3_2 O9_2 1_555 1_555
Co8 O11_2 1_555 1_555
O6_2 C3_2 1_555 1_555
O10_2 C5_2 1_555 1_555
Co7_3 O2_2 1_555 1_555
O2_2 C1_2 1_555 1_555
C1_2 H1_2 1_555 1_555
Co1_9 O1_2 1_555 1_555
O8_2 Co7_4 1_555 1_555
C4_2 O28 1_555 1_555
H4_2 C4_2 1_555 1_555
O26 C2_2 1_555 1_555
O8_2 C4_2 1_555 1_555

#END
