
###############################################################################
#
# This file contains modified crystal structure data generated from the
# MOF subset of the Cambridge Structural Database (CSD) v543 
# hosted by the Cambridge Crystallographic Data Centre (CCDC).
#
# This work is licensed under the Creative Commons
# Attribution-NonCommercial-ShareAlike 4.0 International License.
# To view a copy of this license, visit
# http://creativecommons.org/licenses/by-nc-sa/4.0/
# or send a letter to
# Creative Commons, PO Box 1866, Mountain View, CA 94042, USA.
#
# CIF created using the CSD Python API on 29 September 2022
# The structure has been converted into the P1 space group
# The structure has a 3D framework
# The original CSD entry YAPHOQ is in the rhombohedral crystal system
# The framework has been calculated to contain at least 10.0% void space
# The void calculation uses a probe of radius 1.32A, grid spacing 0.4
#
###############################################################################

data_YAPHOQ
_chemical_formula_moiety         '(C90 H90 Co18 O66)n'
_symmetry_cell_setting           triclinic
_symmetry_space_group_name_H-M   'P 1'
_symmetry_Int_Tables_number      1
_space_group_name_Hall           'P 1'
loop_
_symmetry_equiv_pos_site_id
_symmetry_equiv_pos_as_xyz
1 x,y,z
_cell_length_a                   26.1100(9)
_cell_length_b                   26.1100(9)
_cell_length_c                   6.6596(3)
_cell_angle_alpha                90
_cell_angle_beta                 90
_cell_angle_gamma                120
_cell_volume                     3931.81
loop_
_atom_site_label
_atom_site_type_symbol
_atom_site_fract_x
_atom_site_fract_y
_atom_site_fract_z
O3 O 0.27420(3) 0.35927(3) 0.00517(10)
O5 O 0.03692(3) 0.34004(3) 0.03254(11)
O6 O 0.10649(3) 0.36999(3) 0.26703(11)
C6 C 0.08726(4) 0.35026(4) 0.09353(14)
C9 C 0.18080(4) 0.35200(5) 0.02852(14)
H6 H 0.190232 0.364822 0.163851
Co4 Co 0.28058(2) 0.29733(3) 0.17815(2)
Co7 Co 0.05276(2) 0.36933(3) 0.48851(2)
O12 O 0.40317(4) 0.43983(3) 0.06631(11)
Co1 Co 0.35009(2) 0.38609(2) 0.84482(2)
O1 O 0.29641(3) 0.32663(3) 0.63413(11)
O2 O 0.22684(3) 0.29668(3) 0.39964(11)
O4 O 0.34635(4) 0.45692(4) 0.69902(13)
H1 H 0.3297(11) 0.4530(11) 0.585(3)
C1 C 0.24607(4) 0.31641(4) 0.57314(14)
C2 C 0.20763(4) 0.32688(4) 0.71274(14)
C3 C 0.22267(4) 0.34637(4) 0.91491(14)
C4 C 0.15253(4) 0.31467(5) 0.63815(14)
H2 H 0.143101 0.301845 0.502816
C5 C 0.38917(7) 0.51852(6) 0.7143(2)
H3 H 0.415317 0.530671 0.596993
H4 H 0.412626 0.525548 0.836667
H5 H 0.368892 0.541527 0.719707
O7 O 0.05913(3) 0.30740(3) 0.66150(10)
C7 C 0.12570(4) 0.33979(4) 0.95393(14)
C8 C 0.11066(4) 0.32030(4) 0.75176(14)
Co2 Co 0.36933(3) 0.31658(2) 0.51149(2)
O8 O 0.44390(6) 0.32032(4) 0.36569(13)
H7 H 0.4566(16) 0.3370(11) 0.252(3)
C10 C 0.46268(9) 0.27750(7) 0.3810(2)
H8 H 0.448687 0.251350 0.263660
H9 H 0.446255 0.254041 0.503334
H10 H 0.505968 0.297775 0.386374
O9 O 0.34004(3) 0.30311(4) 0.96746(11)
O10 O 0.36355(4) 0.37026(3) 0.30080(11)
O11 O 0.36999(3) 0.26349(4) 0.73297(11)
O13 O 0.30740(3) 0.24826(4) 0.33850(10)
O14 O 0.41840(4) 0.39247(3) 0.67184(10)
Co5 Co 0.96400(3) 0.35009(2) 0.15518(2)
Co8 Co 0.98324(2) 0.28058(2) 0.82185(2)
Co2_2 Co 0.68342(2) 0.05276(4) 0.51149(2)
O8_2 O 0.67968(4) 0.12359(7) 0.36569(13)
H7_2 H 0.6630(11) 0.1197(19) 0.252(3)
C10_2 C 0.72250(7) 0.18519(11) 0.3810(2)
H8_2 H 0.748650 0.197338 0.263660
H9_2 H 0.745959 0.192215 0.503334
H10_2 H 0.702225 0.208194 0.386374
O9_2 O 0.69689(4) 0.03692(5) 0.96746(11)
O11_2 O 0.73651(4) 0.10649(5) 0.73297(11)
O13_2 O 0.75174(4) 0.05913(5) 0.33850(10)
O14_2 O 0.60753(3) 0.02594(5) 0.67184(10)
O3_2 O 0.64073(3) 0.91493(4) 0.00517(10)
O5_2 O 0.65996(3) 0.69689(4) 0.03254(11)
O6_2 O 0.63001(3) 0.73651(4) 0.26703(11)
C6_2 C 0.64974(4) 0.73701(6) 0.09353(14)
C9_2 C 0.64800(5) 0.82881(6) 0.02852(14)
H6_2 H 0.635178 0.825411 0.163851
Co4_2 Co 0.70267(3) 0.98324(4) 0.17815(2)
Co5_2 Co 0.64991(2) 0.61391(4) 0.15518(2)
Co7_2 Co 0.63067(3) 0.68342(4) 0.48851(2)
O12_2 O 0.56017(3) 0.96335(5) 0.06631(11)
Co1_2 Co 0.61391(2) 0.96400(3) 0.84482(2)
O1_2 O 0.67337(3) 0.96978(4) 0.63413(11)
O2_2 O 0.70332(3) 0.93016(4) 0.39964(11)
O4_2 O 0.54308(4) 0.88943(6) 0.69902(13)
H1_2 H 0.5470(11) 0.8767(16) 0.585(3)
C1_2 C 0.68359(4) 0.92966(6) 0.57314(14)
C2_2 C 0.67312(4) 0.88075(6) 0.71274(14)
C3_2 C 0.65363(4) 0.87630(6) 0.91491(14)
C4_2 C 0.68533(5) 0.83786(6) 0.63815(14)
H2_2 H 0.698155 0.841256 0.502816
C5_2 C 0.48148(6) 0.87065(9) 0.7143(2)
H3_2 H 0.469329 0.884646 0.596993
H4_2 H 0.474452 0.887078 0.836667
H5_2 H 0.458473 0.827365 0.719707
O7_2 O 0.69260(3) 0.75174(4) 0.66150(10)
C7_2 C 0.66021(4) 0.78592(6) 0.95393(14)
C8_2 C 0.67970(4) 0.79037(6) 0.75176(14)
Co8_2 Co 0.71942(2) 0.70267(3) 0.82185(2)
O10_2 O 0.62974(3) 0.99330(5) 0.30080(11)
Co5_3 Co 0.38609(4) 0.03600(3) 0.15518(2)
Co8_3 Co 0.29733(3) 0.01676(2) 0.82185(2)
O3_3 O 0.08507(4) 0.72580(3) 0.00517(10)
O5_3 O 0.30311(4) 0.96308(3) 0.03254(11)
O6_3 O 0.26349(4) 0.89351(3) 0.26703(11)
C6_3 C 0.26299(6) 0.91274(4) 0.09353(14)
C9_3 C 0.17119(6) 0.81920(4) 0.02852(14)
H6_3 H 0.174589 0.809768 0.163851
Co4_3 Co 0.01676(4) 0.71942(2) 0.17815(2)
Co7_3 Co 0.31658(4) 0.94724(2) 0.48851(2)
O12_3 O 0.03665(5) 0.59683(4) 0.06631(11)
Co1_3 Co 0.03600(3) 0.64991(2) 0.84482(2)
O1_3 O 0.03022(4) 0.70359(3) 0.63413(11)
O2_3 O 0.06984(4) 0.77316(3) 0.39964(11)
O4_3 O 0.11057(6) 0.65365(4) 0.69902(13)
H1_3 H 0.1233(16) 0.6703(11) 0.585(3)
C1_3 C 0.07034(6) 0.75393(4) 0.57314(14)
C2_3 C 0.11925(6) 0.79237(4) 0.71274(14)
C3_3 C 0.12370(6) 0.77733(4) 0.91491(14)
C4_3 C 0.16214(6) 0.84747(4) 0.63815(14)
H2_3 H 0.158744 0.856899 0.502816
C5_3 C 0.12935(9) 0.61083(7) 0.7143(2)
H3_3 H 0.115354 0.584683 0.596993
H4_3 H 0.112922 0.587374 0.836667
H5_3 H 0.172635 0.631108 0.719707
O7_3 O 0.24826(4) 0.94087(3) 0.66150(10)
C7_3 C 0.21408(6) 0.87430(4) 0.95393(14)
C8_3 C 0.20963(6) 0.88934(4) 0.75176(14)
O10_3 O 0.00670(5) 0.63645(4) 0.30080(11)
Co2_3 Co 0.94724(4) 0.63067(3) 0.51149(2)
O8_3 O 0.87641(7) 0.55610(6) 0.36569(13)
H7_3 H 0.8803(19) 0.5434(16) 0.252(3)
C10_3 C 0.81481(11) 0.53732(9) 0.3810(2)
H8_3 H 0.802662 0.551313 0.263660
H9_3 H 0.807785 0.553745 0.503334
H10_3 H 0.791806 0.494032 0.386374
O9_3 O 0.96308(5) 0.65996(3) 0.96746(11)
O11_3 O 0.89351(5) 0.63001(3) 0.73297(11)
O13_3 O 0.94087(5) 0.69260(3) 0.33850(10)
O14_3 O 0.97406(5) 0.58160(4) 0.67184(10)
O4_4 O 0.01302(4) 0.79025(4) 0.03235(13)
C5_4 C 0.05584(7) 0.85185(6) 0.0476(2)
H4_4 H 0.079293 0.858881 0.170000
H5_4 H 0.035559 0.874860 0.053040
H3_4 H 0.081984 0.864004 0.930326
C2_4 C 0.87430(4) 0.66021(4) 0.04607(14)
C3_4 C 0.88934(4) 0.67970(4) 0.24824(14)
O5_4 O 0.70359(3) 0.67337(3) 0.36587(11)
O6_4 O 0.77316(3) 0.70332(3) 0.60036(11)
C6_4 C 0.75393(4) 0.68359(4) 0.42686(14)
C7_4 C 0.79237(4) 0.67312(4) 0.28726(14)
C8_4 C 0.77733(4) 0.65363(4) 0.08509(14)
C9_4 C 0.84747(4) 0.68533(5) 0.36185(14)
H6_4 H 0.856899 0.698155 0.497184
H1_4 H 0.9964(11) 0.7863(11) 0.918(3)
C1_4 C 0.91274(4) 0.64974(4) 0.90647(14)
C4_4 C 0.81920(4) 0.64800(5) 0.97148(14)
H2_4 H 0.809768 0.635178 0.836149
O7_4 O 0.72580(3) 0.64073(3) 0.99483(10)
O4_5 O 0.20975(4) 0.22276(6) 0.03235(13)
C2_5 C 0.33979(4) 0.21408(6) 0.04607(14)
C3_5 C 0.32030(4) 0.20963(6) 0.24824(14)
C5_5 C 0.14815(6) 0.20398(9) 0.0476(2)
H4_5 H 0.141119 0.220411 0.170000
H5_5 H 0.125140 0.160698 0.053040
O5_5 O 0.32663(3) 0.03022(4) 0.36587(11)
O6_5 O 0.29668(3) 0.06984(4) 0.60036(11)
C6_5 C 0.31641(4) 0.07034(6) 0.42686(14)
C7_5 C 0.32688(4) 0.11925(6) 0.28726(14)
C8_5 C 0.34637(4) 0.12370(6) 0.08509(14)
C9_5 C 0.31467(5) 0.16214(6) 0.36185(14)
H6_5 H 0.301845 0.158744 0.497184
H1_5 H 0.2137(11) 0.2100(16) 0.918(3)
C1_5 C 0.35026(4) 0.26299(6) 0.90647(14)
C4_5 C 0.35200(5) 0.17119(6) 0.97148(14)
H2_5 H 0.364822 0.174589 0.836149
H3_5 H 0.135996 0.217979 0.930326
O7_5 O 0.35927(3) 0.08507(4) 0.99483(10)
C2_6 C 0.78592(6) 0.12570(4) 0.04607(14)
C3_6 C 0.79037(6) 0.11066(4) 0.24824(14)
O5_6 O 0.96978(4) 0.29641(3) 0.36587(11)
O6_6 O 0.93016(4) 0.22684(3) 0.60036(11)
C6_6 C 0.92966(6) 0.24607(4) 0.42686(14)
C7_6 C 0.88075(6) 0.20763(4) 0.28726(14)
C8_6 C 0.87630(6) 0.22267(4) 0.08509(14)
C9_6 C 0.83786(6) 0.15253(4) 0.36185(14)
H6_6 H 0.841256 0.143101 0.497184
H1_6 H 0.7900(16) 0.0036(11) 0.918(3)
C1_6 C 0.73701(6) 0.08726(4) 0.90647(14)
C4_6 C 0.82881(6) 0.18080(4) 0.97148(14)
H2_6 H 0.825411 0.190232 0.836149
O7_6 O 0.91493(4) 0.27420(3) 0.99483(10)
O4_6 O 0.77724(6) 0.98698(4) 0.03235(13)
C5_6 C 0.79602(9) 0.94416(7) 0.0476(2)
H4_6 H 0.779589 0.920707 0.170000
H5_6 H 0.839302 0.964441 0.053040
H3_6 H 0.782021 0.918016 0.930326
C3_7 C 0.55600(4) 0.01304(4) 0.58158(14)
O5_7 O 0.37026(3) 0.00670(3) 0.69920(11)
O6_7 O 0.43983(3) 0.03665(3) 0.93369(11)
C6_7 C 0.42060(4) 0.01692(4) 0.76019(14)
C7_7 C 0.45904(4) 0.00645(4) 0.62059(14)
C9_7 C 0.51414(4) 0.01866(5) 0.69518(14)
H6_7 H 0.523566 0.031488 0.830517
C1_7 C 0.57940(4) 0.98308(4) 0.23981(14)
C2_7 C 0.54096(4) 0.99355(4) 0.37941(14)
C4_7 C 0.48586(4) 0.98134(5) 0.30482(14)
H2_7 H 0.476434 0.968512 0.169483
O7_7 O 0.39247(3) 0.97406(3) 0.32816(10)
C8_7 C 0.44400(4) 0.98696(4) 0.41842(14)
C1_8 C 0.01692(4) 0.59633(6) 0.23981(14)
C2_8 C 0.00645(4) 0.54742(6) 0.37941(14)
C4_8 C 0.01866(5) 0.50453(6) 0.30482(14)
H2_8 H 0.031488 0.507923 0.169483
O7_8 O 0.02594(3) 0.41840(4) 0.32816(10)
C8_8 C 0.01304(4) 0.45703(6) 0.41842(14)
C3_8 C 0.98696(4) 0.54297(6) 0.58158(14)
O5_8 O 0.99330(3) 0.36355(4) 0.69920(11)
O6_8 O 0.96335(3) 0.40317(4) 0.93369(11)
C6_8 C 0.98308(4) 0.40367(6) 0.76019(14)
C7_8 C 0.99355(4) 0.45258(6) 0.62059(14)
C9_8 C 0.98134(5) 0.49547(6) 0.69518(14)
H6_8 H 0.968512 0.492077 0.830517
C1_9 C 0.40367(6) 0.42060(4) 0.23981(14)
C2_9 C 0.45258(6) 0.45904(4) 0.37941(14)
C3_9 C 0.45703(6) 0.44400(4) 0.58158(14)
C4_9 C 0.49547(6) 0.51414(4) 0.30482(14)
H2_9 H 0.492077 0.523566 0.169483
O5_9 O 0.63645(4) 0.62974(3) 0.69920(11)
O6_9 O 0.59683(4) 0.56017(3) 0.93369(11)
O7_9 O 0.58160(4) 0.60753(3) 0.32816(10)
C6_9 C 0.59633(6) 0.57940(4) 0.76019(14)
C7_9 C 0.54742(6) 0.54096(4) 0.62059(14)
C8_9 C 0.54297(6) 0.55600(4) 0.41842(14)
C9_9 C 0.50453(6) 0.48586(4) 0.69518(14)
H6_9 H 0.507923 0.476434 0.830517
O4_7 O 0.65365(4) 0.54308(4) 0.30098(13)
H1_7 H 0.6703(11) 0.5470(11) 0.415(3)
C5_7 C 0.61083(7) 0.48148(6) 0.2857(2)
H3_7 H 0.584683 0.469329 0.403007
H4_7 H 0.587374 0.474452 0.163333
H5_7 H 0.631108 0.458473 0.280293
O8_4 O 0.55610(6) 0.67968(4) 0.63431(13)
H7_4 H 0.5434(16) 0.6630(11) 0.748(3)
C10_4 C 0.53732(9) 0.72250(7) 0.6190(2)
H8_4 H 0.551313 0.748650 0.736340
H9_4 H 0.553745 0.745959 0.496666
H10_4 H 0.494032 0.702225 0.613626
O4_8 O 0.45692(4) 0.11057(6) 0.30098(13)
H1_8 H 0.4530(11) 0.1233(16) 0.415(3)
C5_8 C 0.51852(6) 0.12935(9) 0.2857(2)
H3_8 H 0.530671 0.115354 0.403007
H4_8 H 0.525548 0.112922 0.163333
H5_8 H 0.541527 0.172635 0.280293
O8_5 O 0.32032(4) 0.87641(7) 0.63431(13)
H7_5 H 0.3370(11) 0.8803(19) 0.748(3)
C10_5 C 0.27750(7) 0.81481(11) 0.6190(2)
H8_5 H 0.251350 0.802662 0.736340
H9_5 H 0.254041 0.807785 0.496666
H10_5 H 0.297775 0.791806 0.613626
O8_6 O 0.12359(7) 0.44390(6) 0.63431(13)
H7_6 H 0.1197(19) 0.4566(16) 0.748(3)
C10_6 C 0.18519(11) 0.46268(9) 0.6190(2)
H8_6 H 0.197338 0.448687 0.736340
H9_6 H 0.192215 0.446255 0.496666
H10_6 H 0.208194 0.505968 0.613626
O4_9 O 0.88943(6) 0.34635(4) 0.30098(13)
H1_9 H 0.8767(16) 0.3297(11) 0.415(3)
C5_9 C 0.87065(9) 0.38917(7) 0.2857(2)
H3_9 H 0.884646 0.415317 0.403007
H4_9 H 0.887078 0.412626 0.163333
H5_9 H 0.827365 0.368892 0.280293
H1_10 H 0.0036(11) 0.2137(11) 0.082(3)
H3_10 H 0.918016 0.135996 0.069674
O4_10 O 0.98698(4) 0.20975(4) 0.96765(13)
C5_10 C 0.94416(7) 0.14815(6) 0.9524(2)
H4_10 H 0.920707 0.141119 0.830000
H5_10 H 0.964441 0.125140 0.946960
H1_11 H 0.7863(11) 0.7900(16) 0.082(3)
H3_11 H 0.864004 0.782021 0.069674
O4_11 O 0.79025(4) 0.77724(6) 0.96765(13)
C5_11 C 0.85185(6) 0.79602(9) 0.9524(2)
H4_11 H 0.858881 0.779589 0.830000
H5_11 H 0.874860 0.839302 0.946960
H3_12 H 0.217979 0.081984 0.069674
O4_12 O 0.22276(6) 0.01302(4) 0.96765(13)
C5_12 C 0.20398(9) 0.05584(7) 0.9524(2)
H4_12 H 0.220411 0.079293 0.830000
H5_12 H 0.160698 0.035559 0.946960
H1_12 H 0.2100(16) 0.9964(11) 0.082(3)
loop_
_geom_bond_atom_site_label_1
_geom_bond_atom_site_label_2
_geom_bond_site_symmetry_1
_geom_bond_site_symmetry_2
O5 C6 1_555 1_555
O6 C6 1_555 1_555
H6 C9 1_555 1_555
Co4 O3 1_555 1_555
Co7 O6 1_555 1_555
Co1 O1 1_555 1_555
O1 C1 1_555 1_555
O2 C1 1_555 1_555
O4 Co1 1_555 1_555
H1 O4 1_555 1_555
C1 C2 1_555 1_555
C2 C3 1_555 1_555
C4 C2 1_555 1_555
H2 C4 1_555 1_555
C5 O4 1_555 1_555
H3 C5 1_555 1_555
H4 C5 1_555 1_555
H5 C5 1_555 1_555
O7 C8 1_555 1_555
C7 C8 1_555 1_555
C8 C4 1_555 1_555
Co2 O1 1_555 1_555
O8 Co2 1_555 1_555
H7 O8 1_555 1_555
C10 O8 1_555 1_555
H8 C10 1_555 1_555
H9 C10 1_555 1_555
H10 C10 1_555 1_555
Co4 O2 1_555 1_555
Co7 O7 1_555 1_555
O9 Co1 1_555 1_555
O10 Co2 1_555 1_555
O11 Co2 1_555 1_555
O13 Co2 1_555 1_555
O14 Co1 1_555 1_555
Co2 O14 1_555 1_555
Co4 O10 1_555 1_555
Co4 O13 1_555 1_555
O8_2 Co2_2 1_555 1_555
H7_2 O8_2 1_555 1_555
C10_2 O8_2 1_555 1_555
H8_2 C10_2 1_555 1_555
H9_2 C10_2 1_555 1_555
H10_2 C10_2 1_555 1_555
O11_2 Co2_2 1_555 1_555
O13_2 Co2_2 1_555 1_555
Co2_2 O14_2 1_555 1_555
O5_2 C6_2 1_555 1_555
O6_2 C6_2 1_555 1_555
H6_2 C9_2 1_555 1_555
Co4_2 O3_2 1_555 1_555
Co5_2 O5_2 1_555 1_555
Co7_2 O6_2 1_555 1_555
Co1_2 O1_2 1_555 1_555
O1_2 C1_2 1_555 1_555
O2_2 C1_2 1_555 1_555
O4_2 Co1_2 1_555 1_555
H1_2 O4_2 1_555 1_555
C1_2 C2_2 1_555 1_555
C2_2 C3_2 1_555 1_555
C4_2 C2_2 1_555 1_555
H2_2 C4_2 1_555 1_555
C5_2 O4_2 1_555 1_555
H3_2 C5_2 1_555 1_555
H4_2 C5_2 1_555 1_555
H5_2 C5_2 1_555 1_555
O7_2 C8_2 1_555 1_555
C7_2 C8_2 1_555 1_555
C8_2 C4_2 1_555 1_555
Co4_2 O2_2 1_555 1_555
Co7_2 O7_2 1_555 1_555
O7_2 Co8_2 1_555 1_555
Co4_2 O10_2 1_555 1_555
O5_3 C6_3 1_555 1_555
O6_3 C6_3 1_555 1_555
H6_3 C9_3 1_555 1_555
Co4_3 O3_3 1_555 1_555
Co7_3 O6_3 1_555 1_555
Co1_3 O1_3 1_555 1_555
O1_3 C1_3 1_555 1_555
O2_3 C1_3 1_555 1_555
O4_3 Co1_3 1_555 1_555
H1_3 O4_3 1_555 1_555
C1_3 C2_3 1_555 1_555
C2_3 C3_3 1_555 1_555
C4_3 C2_3 1_555 1_555
H2_3 C4_3 1_555 1_555
C5_3 O4_3 1_555 1_555
H3_3 C5_3 1_555 1_555
H4_3 C5_3 1_555 1_555
H5_3 C5_3 1_555 1_555
O7_3 C8_3 1_555 1_555
C7_3 C8_3 1_555 1_555
C8_3 C4_3 1_555 1_555
Co4_3 O2_3 1_555 1_555
Co7_3 O7_3 1_555 1_555
Co4_3 O10_3 1_555 1_555
O8_3 Co2_3 1_555 1_555
H7_3 O8_3 1_555 1_555
C10_3 O8_3 1_555 1_555
H8_3 C10_3 1_555 1_555
H9_3 C10_3 1_555 1_555
H10_3 C10_3 1_555 1_555
O11_3 Co2_3 1_555 1_555
O13_3 Co2_3 1_555 1_555
Co2_3 O14_3 1_555 1_555
O4_4 Co4_3 1_555 1_555
C5_4 O4_4 1_555 1_555
H4_4 C5_4 1_555 1_555
H5_4 C5_4 1_555 1_555
C2_4 C3_4 1_555 1_555
C3_4 O13_3 1_555 1_555
O5_4 C6_4 1_555 1_555
O6_4 C6_4 1_555 1_555
C6_4 C7_4 1_555 1_555
C7_4 C8_4 1_555 1_555
C9_4 C3_4 1_555 1_555
H6_4 C9_4 1_555 1_555
Co7_2 O5_4 1_555 1_555
Co8_2 O6_4 1_555 1_555
Co5_2 O5_4 1_555 1_555
C7_4 C9_4 1_555 1_555
O9_3 C1_4 1_555 1_555
O11_3 C1_4 1_555 1_555
H2_4 C4_4 1_555 1_555
Co8_2 O7_4 1_555 1_555
O4_5 Co4 1_555 1_555
C2_5 C3_5 1_555 1_555
C3_5 O13 1_555 1_555
C5_5 O4_5 1_555 1_555
H4_5 C5_5 1_555 1_555
H5_5 C5_5 1_555 1_555
O5_5 C6_5 1_555 1_555
O6_5 C6_5 1_555 1_555
C6_5 C7_5 1_555 1_555
C7_5 C8_5 1_555 1_555
C9_5 C3_5 1_555 1_555
H6_5 C9_5 1_555 1_555
Co8_3 O6_5 1_555 1_555
Co5_3 O5_5 1_555 1_555
C7_5 C9_5 1_555 1_555
O9 C1_5 1_555 1_555
O11 C1_5 1_555 1_555
H2_5 C4_5 1_555 1_555
Co8_3 O7_5 1_555 1_555
C2_6 C3_6 1_555 1_555
C3_6 O13_2 1_555 1_555
O5_6 C6_6 1_555 1_555
O6_6 C6_6 1_555 1_555
C6_6 C7_6 1_555 1_555
C7_6 C8_6 1_555 1_555
C9_6 C3_6 1_555 1_555
H6_6 C9_6 1_555 1_555
Co8 O6_6 1_555 1_555
Co5 O5_6 1_555 1_555
C7_6 C9_6 1_555 1_555
O9_2 C1_6 1_555 1_555
O11_2 C1_6 1_555 1_555
H2_6 C4_6 1_555 1_555
Co8 O7_6 1_555 1_555
O4_6 Co4_2 1_555 1_555
C5_6 O4_6 1_555 1_555
H4_6 C5_6 1_555 1_555
H5_6 C5_6 1_555 1_555
C3_7 O14_2 1_555 1_555
O5_7 C6_7 1_555 1_555
O6_7 C6_7 1_555 1_555
C6_7 C7_7 1_555 1_555
C9_7 C3_7 1_555 1_555
H6_7 C9_7 1_555 1_555
Co8_3 O5_7 1_555 1_555
C7_7 C9_7 1_555 1_555
O10_2 C1_7 1_555 1_555
O12_2 C1_7 1_555 1_555
C1_7 C2_7 1_555 1_555
C4_7 C2_7 1_555 1_555
H2_7 C4_7 1_555 1_555
O7_7 C8_7 1_555 1_555
C8_7 C4_7 1_555 1_555
O7_7 Co7_3 1_555 1_555
O10_3 C1_8 1_555 1_555
O12_3 C1_8 1_555 1_555
C1_8 C2_8 1_555 1_555
C4_8 C2_8 1_555 1_555
H2_8 C4_8 1_555 1_555
O7_8 C8_8 1_555 1_555
C8_8 C4_8 1_555 1_555
O7_8 Co7 1_555 1_555
C3_8 O14_3 1_555 1_555
O5_8 C6_8 1_555 1_555
O6_8 C6_8 1_555 1_555
C6_8 C7_8 1_555 1_555
C9_8 C3_8 1_555 1_555
H6_8 C9_8 1_555 1_555
Co8 O5_8 1_555 1_555
C7_8 C9_8 1_555 1_555
O10 C1_9 1_555 1_555
O12 C1_9 1_555 1_555
C1_9 C2_9 1_555 1_555
C2_9 C3_9 1_555 1_555
C3_9 O14 1_555 1_555
C4_9 C2_9 1_555 1_555
H2_9 C4_9 1_555 1_555
O5_9 C6_9 1_555 1_555
O6_9 C6_9 1_555 1_555
O7_9 C8_9 1_555 1_555
C6_9 C7_9 1_555 1_555
C7_9 C8_9 1_555 1_555
C8_9 C4_9 1_555 1_555
C9_9 C3_9 1_555 1_555
H6_9 C9_9 1_555 1_555
Co8_2 O5_9 1_555 1_555
Co5_2 O7_9 1_555 1_555
Co7_2 O5_9 1_555 1_555
O7_9 Co7_2 1_555 1_555
C7_9 C9_9 1_555 1_555
O4_7 Co5_2 1_555 1_555
H1_7 O4_7 1_555 1_555
C5_7 O4_7 1_555 1_555
H3_7 C5_7 1_555 1_555
H4_7 C5_7 1_555 1_555
H5_7 C5_7 1_555 1_555
O8_4 Co7_2 1_555 1_555
H7_4 O8_4 1_555 1_555
C10_4 O8_4 1_555 1_555
H8_4 C10_4 1_555 1_555
H9_4 C10_4 1_555 1_555
H10_4 C10_4 1_555 1_555
O4_8 Co5_3 1_555 1_555
H1_8 O4_8 1_555 1_555
C5_8 O4_8 1_555 1_555
H3_8 C5_8 1_555 1_555
H4_8 C5_8 1_555 1_555
H5_8 C5_8 1_555 1_555
O8_5 Co7_3 1_555 1_555
H7_5 O8_5 1_555 1_555
C10_5 O8_5 1_555 1_555
H8_5 C10_5 1_555 1_555
H9_5 C10_5 1_555 1_555
H10_5 C10_5 1_555 1_555
O8_6 Co7 1_555 1_555
H7_6 O8_6 1_555 1_555
C10_6 O8_6 1_555 1_555
H8_6 C10_6 1_555 1_555
H9_6 C10_6 1_555 1_555
H10_6 C10_6 1_555 1_555
O4_9 Co5 1_555 1_555
H1_9 O4_9 1_555 1_555
C5_9 O4_9 1_555 1_555
H3_9 C5_9 1_555 1_555
H4_9 C5_9 1_555 1_555
H5_9 C5_9 1_555 1_555
O4_10 Co8 1_555 1_555
C5_10 O4_10 1_555 1_555
H4_10 C5_10 1_555 1_555
H5_10 C5_10 1_555 1_555
O4_11 Co8_2 1_555 1_555
C5_11 O4_11 1_555 1_555
H4_11 C5_11 1_555 1_555
H5_11 C5_11 1_555 1_555
O4_12 Co8_3 1_555 1_555
C5_12 O4_12 1_555 1_555
H4_12 C5_12 1_555 1_555
H5_12 C5_12 1_555 1_555

#END
