
###############################################################################
#
# This file contains modified crystal structure data generated from the
# MOF subset of the Cambridge Structural Database (CSD) v543 
# hosted by the Cambridge Crystallographic Data Centre (CCDC).
#
# This work is licensed under the Creative Commons
# Attribution-NonCommercial-ShareAlike 4.0 International License.
# To view a copy of this license, visit
# http://creativecommons.org/licenses/by-nc-sa/4.0/
# or send a letter to
# Creative Commons, PO Box 1866, Mountain View, CA 94042, USA.
#
# CIF created using the CSD Python API on 29 September 2022
# The structure has been converted into the P1 space group
# The structure has a 3D framework
# The original CSD entry YARDIG is in the monoclinic crystal system
# The framework has been calculated to contain at least 10.0% void space
# The void calculation uses a probe of radius 1.32A, grid spacing 0.4
#
###############################################################################

data_YARDIG
_chemical_formula_moiety         '(C88 H72 Co2 N16 O16)n'
_symmetry_cell_setting           triclinic
_symmetry_space_group_name_H-M   'P 1'
_symmetry_Int_Tables_number      1
_space_group_name_Hall           'P 1'
loop_
_symmetry_equiv_pos_site_id
_symmetry_equiv_pos_as_xyz
1 x,y,z
_cell_length_a                   20.4671(11)
_cell_length_b                   11.4539(6)
_cell_length_c                   14.1389(8)
_cell_angle_alpha                90
_cell_angle_beta                 116.1950(10)
_cell_angle_gamma                90
_cell_volume                     2974.14
loop_
_atom_site_label
_atom_site_type_symbol
_atom_site_fract_x
_atom_site_fract_y
_atom_site_fract_z
C1 C 0.13788(12) 0.0849(2) 0.37609(17)
C2 C 0.19684(11) 0.1700(2) 0.43908(16)
C3 C 0.19013(12) 0.2875(2) 0.41151(17)
H1 H 0.1497 0.3128 0.3518
C4 C 0.24274(12) 0.3672(2) 0.47171(17)
H2 H 0.2377 0.4455 0.4525
O1 O 0.07762(8) 0.13073(15) 0.31310(12)
Co1 Co 0.0000 0.01439(4) 0.2500
C12 C 0.36212(12) 0.4151(2) 0.62391(17)
C13 C 0.30316(11) 0.3300(2) 0.56092(16)
C14 C 0.30987(12) 0.2125(2) 0.58849(17)
H10 H 0.3503 0.1872 0.6482
C15 C 0.25726(12) 0.1328(2) 0.52829(17)
H11 H 0.2623 0.0545 0.5475
O3 O 0.42238(8) 0.36927(15) 0.68690(12)
O5 O 0.35126(10) 0.52117(15) 0.61086(15)
Co3 Co 0.5000 0.48561(4) 0.7500
C12_2 C 0.63788(12) 0.4151(2) 0.87609(17)
C13_2 C 0.69684(11) 0.3300(2) 0.93908(16)
C14_2 C 0.69013(12) 0.2125(2) 0.91151(17)
H10_2 H 0.6497 0.1872 0.8518
C15_2 C 0.74274(12) 0.1328(2) 0.97171(17)
H11_2 H 0.7377 0.0545 0.9525
O3_2 O 0.57762(8) 0.36927(15) 0.81310(12)
O5_2 O 0.64874(10) 0.52117(15) 0.88914(15)
C16 C 0.53048(13) 0.63082(19) 0.94304(17)
H12 H 0.5805 0.6321 0.9645
C17 C 0.41568(13) 0.5965(2) 0.85548(19)
H13 H 0.3715 0.5687 0.8044
C18 C 0.42412(13) 0.6628(2) 0.93897(19)
H14 H 0.3875 0.6892 0.9556
N3 N 0.48267(10) 0.57646(16) 0.85771(15)
N5 N 0.49708(10) 0.68365(17) 0.99424(14)
C11 C 0.43981(14) 0.9409(2) 0.4958(2)
H9 H 0.3993 0.9017 0.4935
C16_2 C 0.46952(13) 0.63082(19) 0.55696(17)
H12_2 H 0.4195 0.6321 0.5355
C17_2 C 0.58432(13) 0.5965(2) 0.64452(19)
H13_2 H 0.6285 0.5687 0.6956
C18_2 C 0.57588(13) 0.6628(2) 0.56103(19)
H14_2 H 0.6125 0.6892 0.5444
C19 C 0.46835(15) 0.7644(2) 0.41611(18)
H15 H 0.4877 0.7512 0.3655
H16 H 0.4162 0.7507 0.3812
C20 C 0.48334(13) 0.8887(2) 0.45576(17)
C21 C 0.54339(15) 0.9484(2) 0.4606(2)
H17 H 0.5730 0.9137 0.4342
N3_2 N 0.51733(10) 0.57646(16) 0.64229(15)
N5_2 N 0.50292(10) 0.68365(17) 0.50576(14)
C6 C 0.08432(13) 0.9035(2) 0.14452(19)
H4 H 0.1285 0.9313 0.1956
C7 C 0.07588(13) 0.8372(2) 0.06103(19)
H5 H 0.1125 0.8108 0.0444
C11_2 C 0.06019(14) 0.4409(2) 0.0042(2)
H9_2 H 0.1007 0.4017 0.0065
N1 N 0.01733(10) 0.92354(16) 0.14229(15)
N2 N 0.00292(10) 0.81635(17) 0.00576(14)
O2 O 0.14874(10) 0.97883(15) 0.38914(15)
C19_2 C 0.03165(15) 0.2644(2) 0.08389(18)
H15_2 H 0.0123 0.2512 0.1345
H16_2 H 0.0838 0.2507 0.1188
C20_2 C 0.01666(13) 0.3887(2) 0.04424(17)
C10 C 0.04339(15) 0.5516(2) 0.9606(2)
H8 H 0.0730 0.5863 0.9342
C16_3 C 0.03048(13) 0.13082(19) 0.94304(17)
H12_3 H 0.0805 0.1321 0.9645
C5 C 0.03048(13) 0.86918(19) 0.44304(17)
H3 H 0.0805 0.8679 0.4645
C8 C 0.03165(15) 0.7356(2) 0.58389(18)
H6 H 0.0123 0.7488 0.6345
H7 H 0.0838 0.7493 0.6188
C9 C 0.01666(13) 0.6113(2) 0.54424(17)
C17_3 C 0.08432(13) 0.0965(2) 0.64452(19)
H13_3 H 0.1285 0.0687 0.6956
C18_3 C 0.07588(13) 0.1628(2) 0.56103(19)
H14_3 H 0.1125 0.1892 0.5444
C21_2 C 0.04339(15) 0.4484(2) 0.4606(2)
H17_2 H 0.0730 0.4137 0.4342
C22 C 0.06019(14) 0.5591(2) 0.5042(2)
H18 H 0.1007 0.5983 0.5065
N3_3 N 0.01733(10) 0.07646(16) 0.64229(15)
N5_3 N 0.00292(10) 0.18365(17) 0.50576(14)
O5_3 O 0.14874(10) 0.02117(15) 0.88914(15)
Co2 Co 0.0000 0.98561(4) 0.7500
C12_3 C 0.13788(12) 0.9151(2) 0.87609(17)
C13_3 C 0.19684(11) 0.8300(2) 0.93908(16)
C14_3 C 0.19013(12) 0.7125(2) 0.91151(17)
H10_3 H 0.1497 0.6872 0.8518
C15_3 C 0.24274(12) 0.6328(2) 0.97171(17)
H11_3 H 0.2377 0.5545 0.9525
O3_3 O 0.07762(8) 0.86927(15) 0.81310(12)
Co1_2 Co 1.0000 0.01439(4) 0.2500
O4 O 0.92238(8) 0.13073(15) 0.18690(12)
C1_2 C 0.86212(12) 0.0849(2) 0.12391(17)
C2_2 C 0.80316(11) 0.1700(2) 0.06092(16)
C3_2 C 0.80987(12) 0.2875(2) 0.08849(17)
H1_2 H 0.8503 0.3128 0.1482
C4_2 C 0.75726(12) 0.3672(2) 0.02829(17)
H2_2 H 0.7623 0.4455 0.0475
C5_2 C 0.96952(13) 0.86918(19) 0.05696(17)
H3_2 H 0.9195 0.8679 0.0355
C21_3 C 0.95661(15) 0.4484(2) 0.0394(2)
H17_3 H 0.9270 0.4137 0.0658
N4 N 0.98267(10) 0.92354(16) 0.35771(15)
C8_2 C 0.96835(15) 0.7356(2) 0.91611(18)
H6_2 H 0.9877 0.7488 0.8655
H7_2 H 0.9162 0.7493 0.8812
C9_2 C 0.98334(13) 0.6113(2) 0.95576(17)
C17_4 C 0.91568(13) 0.0965(2) 0.85548(19)
H13_4 H 0.8715 0.0687 0.8044
C18_4 C 0.92412(13) 0.1628(2) 0.93897(19)
H14_4 H 0.8875 0.1892 0.9556
C22_2 C 0.93981(14) 0.5591(2) 0.9958(2)
H18_2 H 0.8993 0.5983 0.9935
N3_4 N 0.98267(10) 0.07646(16) 0.85771(15)
N5_4 N 0.99708(10) 0.18365(17) 0.99424(14)
C6_2 C 0.91568(13) 0.9035(2) 0.35548(19)
H4_2 H 0.8715 0.9313 0.3044
C7_2 C 0.92412(13) 0.8372(2) 0.43897(19)
H5_2 H 0.8875 0.8108 0.4556
C10_2 C 0.95661(15) 0.5516(2) 0.5394(2)
H8_2 H 0.9270 0.5863 0.5658
C11_3 C 0.93981(14) 0.4409(2) 0.4958(2)
H9_3 H 0.8993 0.4017 0.4935
N2_2 N 0.99708(10) 0.81635(17) 0.49424(14)
O2_2 O 0.85126(10) 0.97883(15) 0.11086(15)
C16_4 C 0.96952(13) 0.13082(19) 0.55696(17)
H12_4 H 0.9195 0.1321 0.5355
C19_3 C 0.96835(15) 0.2644(2) 0.41611(18)
H15_3 H 0.9877 0.2512 0.3655
H16_3 H 0.9162 0.2507 0.3812
C20_3 C 0.98334(13) 0.3887(2) 0.45576(17)
O5_4 O 0.85126(10) 0.02117(15) 0.61086(15)
Co2_2 Co 1.0000 0.98561(4) 0.7500
C1_3 C 0.63788(12) 0.5849(2) 0.37609(17)
C2_3 C 0.69684(11) 0.6700(2) 0.43908(16)
C3_3 C 0.69013(12) 0.7875(2) 0.41151(17)
H1_3 H 0.6497 0.8128 0.3518
C4_3 C 0.74274(12) 0.8672(2) 0.47171(17)
H2_3 H 0.7377 0.9455 0.4525
C5_3 C 0.46952(13) 0.36918(19) 0.05696(17)
H3_3 H 0.4195 0.3679 0.0355
C6_3 C 0.58432(13) 0.4035(2) 0.14452(19)
H4_3 H 0.6285 0.4313 0.1956
C7_3 C 0.57588(13) 0.3372(2) 0.06103(19)
H5_3 H 0.6125 0.3108 0.0444
N1_2 N 0.51733(10) 0.42354(16) 0.14229(15)
N2_3 N 0.50292(10) 0.31635(17) 0.00576(14)
O1_2 O 0.57762(8) 0.63073(15) 0.31310(12)
O2_3 O 0.64874(10) 0.47883(15) 0.38914(15)
Co1_3 Co 0.5000 0.51439(4) 0.2500
C12_4 C 0.86212(12) 0.9151(2) 0.62391(17)
C13_4 C 0.80316(11) 0.8300(2) 0.56092(16)
C14_4 C 0.80987(12) 0.7125(2) 0.58849(17)
H10_4 H 0.8503 0.6872 0.6482
C15_4 C 0.75726(12) 0.6328(2) 0.52829(17)
H11_4 H 0.7623 0.5545 0.5475
N4_2 N 0.48267(10) 0.42354(16) 0.35771(15)
O3_4 O 0.92238(8) 0.86927(15) 0.68690(12)
O4_2 O 0.42238(8) 0.63073(15) 0.18690(12)
C1_4 C 0.36212(12) 0.5849(2) 0.12391(17)
C2_4 C 0.30316(11) 0.6700(2) 0.06092(16)
C3_4 C 0.30987(12) 0.7875(2) 0.08849(17)
H1_4 H 0.3503 0.8128 0.1482
C4_4 C 0.25726(12) 0.8672(2) 0.02829(17)
H2_4 H 0.2623 0.9455 0.0475
C5_4 C 0.53048(13) 0.36918(19) 0.44304(17)
H3_4 H 0.5805 0.3679 0.4645
C6_4 C 0.41568(13) 0.4035(2) 0.35548(19)
H4_4 H 0.3715 0.4313 0.3044
C7_4 C 0.42412(13) 0.3372(2) 0.43897(19)
H5_4 H 0.3875 0.3108 0.4556
C8_3 C 0.53165(15) 0.2356(2) 0.58389(18)
H6_3 H 0.5123 0.2488 0.6345
H7_3 H 0.5838 0.2493 0.6188
C9_3 C 0.51666(13) 0.1113(2) 0.54424(17)
C10_3 C 0.45661(15) 0.0516(2) 0.5394(2)
H8_3 H 0.4270 0.0863 0.5658
N2_4 N 0.49708(10) 0.31635(17) 0.49424(14)
O2_4 O 0.35126(10) 0.47883(15) 0.11086(15)
C22_3 C 0.56019(14) 0.0591(2) 0.5042(2)
H18_3 H 0.6007 0.0983 0.5065
C8_4 C 0.46835(15) 0.2356(2) 0.91611(18)
H6_4 H 0.4877 0.2488 0.8655
H7_4 H 0.4162 0.2493 0.8812
C9_4 C 0.48334(13) 0.1113(2) 0.95576(17)
C10_4 C 0.54339(15) 0.0516(2) 0.9606(2)
H8_4 H 0.5730 0.0863 0.9342
C22_4 C 0.43981(14) 0.0591(2) 0.9958(2)
H18_4 H 0.3993 0.0983 0.9935
C11_4 C 0.56019(14) 0.9409(2) 0.0042(2)
H9_4 H 0.6007 0.9017 0.0065
C19_4 C 0.53165(15) 0.7644(2) 0.08389(18)
H15_4 H 0.5123 0.7512 0.1345
H16_4 H 0.5838 0.7507 0.1188
C20_4 C 0.51666(13) 0.8887(2) 0.04424(17)
C21_4 C 0.45661(15) 0.9484(2) 0.0394(2)
H17_4 H 0.4270 0.9137 0.0658
loop_
_geom_bond_atom_site_label_1
_geom_bond_atom_site_label_2
_geom_bond_site_symmetry_1
_geom_bond_site_symmetry_2
C1 C2 1_555 1_555
C2 C3 1_555 1_555
C3 H1 1_555 1_555
C4 C3 1_555 1_555
H2 C4 1_555 1_555
O1 C1 1_555 1_555
C12 C13 1_555 1_555
C13 C4 1_555 1_555
C14 C13 1_555 1_555
H10 C14 1_555 1_555
C15 C2 1_555 1_555
H11 C15 1_555 1_555
O3 C12 1_555 1_555
O5 C12 1_555 1_555
Co3 O3 1_555 1_555
O1 Co1 1_555 1_555
C14 C15 1_555 1_555
C12_2 C13_2 1_555 1_555
C14_2 C13_2 1_555 1_555
H10_2 C14_2 1_555 1_555
H11_2 C15_2 1_555 1_555
O3_2 C12_2 1_555 1_555
O5_2 C12_2 1_555 1_555
Co3 O3_2 1_555 1_555
C14_2 C15_2 1_555 1_555
C16 H12 1_555 1_555
C17 H13 1_555 1_555
C18 C17 1_555 1_555
H14 C18 1_555 1_555
N3 C16 1_555 1_555
N5 C16 1_555 1_555
Co3 N3 1_555 1_555
C17 N3 1_555 1_555
C18 N5 1_555 1_555
H9 C11 1_555 1_555
C16_2 H12_2 1_555 1_555
C17_2 H13_2 1_555 1_555
C18_2 C17_2 1_555 1_555
H14_2 C18_2 1_555 1_555
C19 H15 1_555 1_555
H16 C19 1_555 1_555
C20 C11 1_555 1_555
C21 C20 1_555 1_555
H17 C21 1_555 1_555
N3_2 C16_2 1_555 1_555
N5_2 C16_2 1_555 1_555
Co3 N3_2 1_555 1_555
C17_2 N3_2 1_555 1_555
C18_2 N5_2 1_555 1_555
C19 C20 1_555 1_555
C19 N5_2 1_555 1_555
C6 H4 1_555 1_555
C7 C6 1_555 1_555
H5 C7 1_555 1_555
H9_2 C11_2 1_555 1_555
C19_2 H15_2 1_555 1_555
H16_2 C19_2 1_555 1_555
C20_2 C11_2 1_555 1_555
C6 N1 1_555 1_555
C7 N2 1_555 1_555
C19_2 C20_2 1_555 1_555
H8 C10 1_555 1_555
C16_3 H12_3 1_555 1_555
C5 H3 1_555 1_555
C8 H6 1_555 1_555
H7 C8 1_555 1_555
C9 C8 1_555 1_555
C17_3 H13_3 1_555 1_555
C18_3 C17_3 1_555 1_555
H14_3 C18_3 1_555 1_555
H17_2 C21_2 1_555 1_555
C22 C9 1_555 1_555
H18 C22 1_555 1_555
C17_3 N3_3 1_555 1_555
C18_3 N5_3 1_555 1_555
C21_2 C22 1_555 1_555
C12_3 C13_3 1_555 1_555
C14_3 C13_3 1_555 1_555
H10_3 C14_3 1_555 1_555
H11_3 C15_3 1_555 1_555
O3_3 C12_3 1_555 1_555
Co2 O3_3 1_555 1_555
C14_3 C15_3 1_555 1_555
O4 Co1_2 1_555 1_555
C1_2 C2_2 1_555 1_555
C2_2 C3_2 1_555 1_555
C3_2 H1_2 1_555 1_555
C4_2 C3_2 1_555 1_555
H2_2 C4_2 1_555 1_555
O4 C1_2 1_555 1_555
C5_2 H3_2 1_555 1_555
H17_3 C21_3 1_555 1_555
C8_2 H6_2 1_555 1_555
H7_2 C8_2 1_555 1_555
C9_2 C8_2 1_555 1_555
C17_4 H13_4 1_555 1_555
C18_4 C17_4 1_555 1_555
H14_4 C18_4 1_555 1_555
C22_2 C9_2 1_555 1_555
H18_2 C22_2 1_555 1_555
C17_4 N3_4 1_555 1_555
C18_4 N5_4 1_555 1_555
C6_2 H4_2 1_555 1_555
C7_2 C6_2 1_555 1_555
H5_2 C7_2 1_555 1_555
H8_2 C10_2 1_555 1_555
C11_3 C10_2 1_555 1_555
H9_3 C11_3 1_555 1_555
C16_4 H12_4 1_555 1_555
C19_3 H15_3 1_555 1_555
H16_3 C19_3 1_555 1_555
C20_3 C11_3 1_555 1_555
C6_2 N4 1_555 1_555
C7_2 N2_2 1_555 1_555
C19_3 C20_3 1_555 1_555
C1_3 C2_3 1_555 1_555
C2_3 C3_3 1_555 1_555
C3_3 H1_3 1_555 1_555
C4_3 C3_3 1_555 1_555
H2_3 C4_3 1_555 1_555
C5_3 H3_3 1_555 1_555
C6_3 H4_3 1_555 1_555
C7_3 C6_3 1_555 1_555
H5_3 C7_3 1_555 1_555
N1_2 C5_3 1_555 1_555
N2_3 C5_3 1_555 1_555
O1_2 C1_3 1_555 1_555
O2_3 C1_3 1_555 1_555
Co1_3 N1_2 1_555 1_555
C12_4 C13_4 1_555 1_555
C13_4 C4_3 1_555 1_555
C14_4 C13_4 1_555 1_555
H10_4 C14_4 1_555 1_555
C15_4 C2_3 1_555 1_555
H11_4 C15_4 1_555 1_555
N4_2 Co1_3 1_555 1_555
O3_4 C12_4 1_555 1_555
O4_2 Co1_3 1_555 1_555
Co2_2 O3_4 1_555 1_555
C6_3 N1_2 1_555 1_555
C7_3 N2_3 1_555 1_555
O1_2 Co1_3 1_555 1_555
C14_4 C15_4 1_555 1_555
C1_4 C2_4 1_555 1_555
C2_4 C3_4 1_555 1_555
C3_4 H1_4 1_555 1_555
C4_4 C3_4 1_555 1_555
H2_4 C4_4 1_555 1_555
C5_4 H3_4 1_555 1_555
C6_4 H4_4 1_555 1_555
C7_4 C6_4 1_555 1_555
H5_4 C7_4 1_555 1_555
C8_3 H6_3 1_555 1_555
H7_3 C8_3 1_555 1_555
C9_3 C8_3 1_555 1_555
C10_3 C9_3 1_555 1_555
H8_3 C10_3 1_555 1_555
N4_2 C5_4 1_555 1_555
N2_4 C5_4 1_555 1_555
O4_2 C1_4 1_555 1_555
O2_4 C1_4 1_555 1_555
C22_3 C9_3 1_555 1_555
H18_3 C22_3 1_555 1_555
C6_4 N4_2 1_555 1_555
C7_4 N2_4 1_555 1_555
C8_3 N2_4 1_555 1_555
C8_4 H6_4 1_555 1_555
H7_4 C8_4 1_555 1_555
C9_4 C8_4 1_555 1_555
C10_4 C9_4 1_555 1_555
H8_4 C10_4 1_555 1_555
C22_4 C9_4 1_555 1_555
H18_4 C22_4 1_555 1_555
H9_4 C11_4 1_555 1_555
C19_4 H15_4 1_555 1_555
H16_4 C19_4 1_555 1_555
C20_4 C11_4 1_555 1_555
C21_4 C20_4 1_555 1_555
H17_4 C21_4 1_555 1_555
C19_4 C20_4 1_555 1_555

#END
