
###############################################################################
#
# This file contains modified crystal structure data generated from the
# MOF subset of the Cambridge Structural Database (CSD) v543 
# hosted by the Cambridge Crystallographic Data Centre (CCDC).
#
# This work is licensed under the Creative Commons
# Attribution-NonCommercial-ShareAlike 4.0 International License.
# To view a copy of this license, visit
# http://creativecommons.org/licenses/by-nc-sa/4.0/
# or send a letter to
# Creative Commons, PO Box 1866, Mountain View, CA 94042, USA.
#
# CIF created using the CSD Python API on 29 September 2022
# The structure has been converted into the P1 space group
# The structure has a 3D framework
# The original CSD entry YARSIV is in the monoclinic crystal system
# The framework has been calculated to contain at least 10.0% void space
# The void calculation uses a probe of radius 1.32A, grid spacing 0.4
#
###############################################################################

data_YARSIV
_chemical_formula_moiety         '(C124 H80 N30 O48 Zn14)n'
_symmetry_cell_setting           triclinic
_symmetry_space_group_name_H-M   'P 1'
_symmetry_Int_Tables_number      1
_space_group_name_Hall           'P 1'
loop_
_symmetry_equiv_pos_site_id
_symmetry_equiv_pos_as_xyz
1 x,y,z
_cell_length_a                   15.109(3)
_cell_length_b                   20.800(4)
_cell_length_c                   12.030(2)
_cell_angle_alpha                90
_cell_angle_beta                 118.22(3)
_cell_angle_gamma                90
_cell_volume                     3331.26
loop_
_atom_site_label
_atom_site_type_symbol
_atom_site_fract_x
_atom_site_fract_y
_atom_site_fract_z
O1 O 0.41684(18) 0.33312(12) 0.0902(2)
O2 O 0.37222(18) 0.28398(12) 0.2643(2)
N1 N 0.0126(2) 0.35804(13) 0.0483(3)
Zn1 Zn 0.12821(3) 0.383018(18) 0.00952(4)
Zn2 Zn 0.5000 0.28027(3) 0.2500
O3 O 0.21523(18) 0.31740(13) 0.1513(3)
O5 O 0.44531(18) 0.05573(11) 0.1475(2)
C4 C 0.3028(3) 0.31129(16) 0.1719(3)
C6 C 0.3286(3) 0.34077(16) 0.0722(3)
C9 C 0.5000 0.1566(2) 0.2500
C12 C 0.5000 0.0823(2) 0.2500
O6 O 0.44608(19) 0.18523(11) 0.1490(2)
H5 H 0.027(3) 0.2667(18) 0.038(3)
O7 O 0.58316(18) 0.33312(12) 0.4098(2)
O8 O 0.62778(18) 0.28398(12) 0.2357(2)
N5 N 0.5126(2) 0.85804(13) 0.0483(3)
N6 N 0.9874(2) 0.35804(13) 0.4517(3)
C17 C 0.4500(3) 0.89108(18) 0.0811(4)
C18 C 0.4941(3) 0.79705(17) 0.0551(4)
Zn3 Zn 0.87179(3) 0.383018(18) 0.49048(4)
Zn6 Zn 0.62821(3) 0.116982(18) 0.50952(4)
Zn7 Zn 0.62821(3) 0.883018(18) 0.00952(4)
O9 O 0.78477(18) 0.31740(13) 0.3487(3)
O10 O 0.73977(19) 0.37015(12) 0.5163(2)
O11 O 0.55469(18) 0.05573(11) 0.3525(2)
O13 O 0.94531(18) 0.44427(11) 0.6475(2)
C19 C 0.2324(3) 0.5461(2) 0.2484(4)
N7 N 0.1932(2) 0.46349(13) 0.1167(3)
N8 N 0.8068(2) 0.46349(13) 0.3833(3)
N9 N 0.2705(2) 0.55685(14) 0.1663(3)
C20 C 0.6972(3) 0.31129(16) 0.3281(3)
N10 N 0.4232(2) 0.78879(13) 0.0903(3)
C21 C 0.3152(3) 0.61505(17) 0.1532(3)
C22 C 0.6714(3) 0.34077(16) 0.4278(3)
C23 C 0.2449(3) 0.50559(17) 0.0903(4)
C24 C 0.3865(3) 0.72911(16) 0.1112(3)
C25 C 0.2938(3) 0.67142(19) 0.1927(4)
C26 C 0.4088(3) 0.67185(18) 0.0708(4)
C27 C 0.3737(3) 0.61451(19) 0.0939(4)
C28 C 0.3302(3) 0.72872(18) 0.1724(4)
C29 C 0.3944(3) 0.84927(18) 0.1061(4)
C30 C 0.1856(3) 0.4894(2) 0.2164(4)
O14 O 0.55392(19) 0.18523(11) 0.3510(2)
O16 O 0.94608(19) 0.31477(11) 0.6490(2)
H11 H 0.241(3) 0.5764(17) 0.316(3)
H12 H 0.318(3) 0.7679(17) 0.199(3)
H13 H 0.259(3) 0.4994(16) 0.025(3)
H14 H 0.451(2) 0.9361(17) 0.081(3)
H15 H 0.527(3) 0.7667(18) 0.038(3)
H16 H 0.254(3) 0.6718(18) 0.230(4)
H17 H 0.150(3) 0.4690(19) 0.251(4)
H18 H 0.351(3) 0.8554(19) 0.132(4)
H19 H 0.388(3) 0.576(2) 0.070(4)
H20 H 0.447(3) 0.673(2) 0.026(4)
O4 O 0.26023(19) 0.37015(12) 0.9837(2)
Zn4 Zn 0.37179(3) 0.116982(18) 0.99048(4)
O12 O 0.05469(18) 0.44427(11) 0.8525(2)
O15 O 0.05392(19) 0.31477(11) 0.8510(2)
N2 N 0.6932(2) 0.96349(13) 0.1167(3)
C16 C 0.6856(3) 0.9894(2) 0.2164(4)
H3 H 0.759(3) 0.9994(16) 0.025(3)
H7 H 0.650(3) 0.9690(19) 0.251(4)
N2_2 N 0.3068(2) 0.96349(13) 0.3833(3)
C16_2 C 0.3144(3) 0.9894(2) 0.2836(4)
H3_2 H 0.241(3) 0.9994(16) 0.475(3)
H7_2 H 0.350(3) 0.9690(19) 0.249(4)
Zn5 Zn 0.37179(3) 0.883018(18) 0.49048(4)
H5_2 H 0.973(3) 0.2667(18) 0.462(3)
N5_2 N 0.4874(2) 0.85804(13) 0.4517(3)
C17_2 C 0.5500(3) 0.89108(18) 0.4189(4)
C18_2 C 0.5059(3) 0.79705(17) 0.4449(4)
C19_2 C 0.7676(3) 0.5461(2) 0.2516(4)
N9_2 N 0.7295(2) 0.55685(14) 0.3337(3)
N10_2 N 0.5768(2) 0.78879(13) 0.4097(3)
C21_2 C 0.6848(3) 0.61505(17) 0.3468(3)
C23_2 C 0.7551(3) 0.50559(17) 0.4097(4)
C24_2 C 0.6135(3) 0.72911(16) 0.3888(3)
C25_2 C 0.7062(3) 0.67142(19) 0.3073(4)
C26_2 C 0.5912(3) 0.67185(18) 0.4292(4)
C27_2 C 0.6263(3) 0.61451(19) 0.4061(4)
C28_2 C 0.6698(3) 0.72872(18) 0.3276(4)
C29_2 C 0.6056(3) 0.84927(18) 0.3939(4)
C30_2 C 0.8144(3) 0.4894(2) 0.2836(4)
H11_2 H 0.759(3) 0.5764(17) 0.184(3)
H12_2 H 0.682(3) 0.7679(17) 0.301(3)
H13_2 H 0.741(3) 0.4994(16) 0.475(3)
H14_2 H 0.549(2) 0.9361(17) 0.419(3)
H15_2 H 0.473(3) 0.7667(18) 0.462(3)
H16_2 H 0.746(3) 0.6718(18) 0.270(4)
H17_2 H 0.850(3) 0.4690(19) 0.249(4)
H18_2 H 0.649(3) 0.8554(19) 0.368(4)
H19_2 H 0.612(3) 0.576(2) 0.430(4)
H20_2 H 0.553(3) 0.673(2) 0.474(4)
Zn2_2 Zn -0.0000 0.78027(3) 0.2500
C9_2 C 0.0000 0.6566(2) 0.2500
C12_2 C -0.0000 0.5823(2) 0.2500
O7_2 O 0.08316(18) 0.83312(12) 0.4098(2)
O8_2 O 0.12778(18) 0.78398(12) 0.2357(2)
Zn6_2 Zn 0.12821(3) 0.616982(18) 0.50952(4)
O9_2 O 0.28477(18) 0.81740(13) 0.3487(3)
O10_2 O 0.23977(19) 0.87015(12) 0.5163(2)
O11_2 O 0.05469(18) 0.55573(11) 0.3525(2)
O13_2 O 0.44531(18) 0.94427(11) 0.6475(2)
C20_2 C 0.1972(3) 0.81129(16) 0.3281(3)
C22_2 C 0.1714(3) 0.84077(16) 0.4278(3)
O14_2 O 0.05392(19) 0.68523(11) 0.3510(2)
O16_2 O 0.44608(19) 0.81477(11) 0.6490(2)
O1_2 O 0.91684(18) 0.83312(12) 0.0902(2)
O2_2 O 0.87222(18) 0.78398(12) 0.2643(2)
Zn2_3 Zn 1.0000 0.78027(3) 0.2500
O3_2 O 0.71523(18) 0.81740(13) 0.1513(3)
O5_2 O 0.94531(18) 0.55573(11) 0.1475(2)
C4_2 C 0.8028(3) 0.81129(16) 0.1719(3)
C6_2 C 0.8286(3) 0.84077(16) 0.0722(3)
C9_3 C 1.0000 0.6566(2) 0.2500
C12_3 C 1.0000 0.5823(2) 0.2500
O6_2 O 0.94608(19) 0.68523(11) 0.1490(2)
O4_2 O 0.76023(19) 0.87015(12) 0.9837(2)
Zn4_2 Zn 0.87179(3) 0.616982(18) 0.99048(4)
O12_2 O 0.55469(18) 0.94427(11) 0.8525(2)
O15_2 O 0.55392(19) 0.81477(11) 0.8510(2)
N2_3 N 0.3068(2) 0.03651(13) 0.8833(3)
C16_3 C 0.3144(3) 0.0106(2) 0.7836(4)
H3_3 H 0.241(3) 0.0006(16) 0.975(3)
H7_3 H 0.350(3) 0.0310(19) 0.749(4)
O4_3 O 0.73977(19) 0.62985(12) 0.0163(2)
O1_3 O 0.58316(18) 0.66688(12) 0.9098(2)
O2_3 O 0.62778(18) 0.71602(12) 0.7357(2)
N1_2 N 0.9874(2) 0.64196(13) 0.9517(3)
Zn2_4 Zn 0.5000 0.71973(3) 0.7500
O3_3 O 0.78477(18) 0.68260(13) 0.8487(3)
C4_3 C 0.6972(3) 0.68871(16) 0.8281(3)
C6_3 C 0.6714(3) 0.65923(16) 0.9278(3)
C9_4 C 0.5000 0.8434(2) 0.7500
C12_4 C 0.5000 0.9177(2) 0.7500
H5_3 H 0.973(3) 0.7333(18) 0.962(3)
O7_3 O 0.41684(18) 0.66688(12) 0.5902(2)
O8_3 O 0.37222(18) 0.71602(12) 0.7643(2)
N5_3 N 0.4874(2) 0.14196(13) 0.9517(3)
N6_2 N 0.0126(2) 0.64196(13) 0.5483(3)
C17_3 C 0.5500(3) 0.10892(18) 0.9189(4)
C18_3 C 0.5059(3) 0.20295(17) 0.9449(4)
O9_3 O 0.21523(18) 0.68260(13) 0.6513(3)
O10_3 O 0.26023(19) 0.62985(12) 0.4837(2)
C19_3 C 0.7676(3) 0.4539(2) 0.7516(4)
N7_2 N 0.8068(2) 0.53651(13) 0.8833(3)
N8_2 N 0.1932(2) 0.53651(13) 0.6167(3)
N9_3 N 0.7295(2) 0.44315(14) 0.8337(3)
C20_3 C 0.3028(3) 0.68871(16) 0.6719(3)
N10_3 N 0.5768(2) 0.21121(13) 0.9097(3)
C21_3 C 0.6848(3) 0.38495(17) 0.8468(3)
C22_3 C 0.3286(3) 0.65923(16) 0.5722(3)
C23_3 C 0.7551(3) 0.49441(17) 0.9097(4)
C24_3 C 0.6135(3) 0.27089(16) 0.8888(3)
C25_3 C 0.7062(3) 0.32858(19) 0.8073(4)
C26_3 C 0.5912(3) 0.32815(18) 0.9292(4)
C27_3 C 0.6263(3) 0.38549(19) 0.9061(4)
C28_3 C 0.6698(3) 0.27128(18) 0.8276(4)
C29_3 C 0.6056(3) 0.15073(18) 0.8939(4)
C30_3 C 0.8144(3) 0.5106(2) 0.7836(4)
H11_3 H 0.759(3) 0.4236(17) 0.684(3)
H12_3 H 0.682(3) 0.2321(17) 0.801(3)
H13_3 H 0.741(3) 0.5006(16) 0.975(3)
H14_3 H 0.549(2) 0.0639(17) 0.919(3)
H15_3 H 0.473(3) 0.2333(18) 0.962(3)
H16_3 H 0.746(3) 0.3282(18) 0.770(4)
H17_3 H 0.850(3) 0.5310(19) 0.749(4)
H18_3 H 0.649(3) 0.1446(19) 0.868(4)
H19_3 H 0.612(3) 0.424(2) 0.930(4)
H20_3 H 0.553(3) 0.327(2) 0.974(4)
H5_4 H 0.027(3) 0.7333(18) 0.538(3)
N5_4 N 0.5126(2) 0.14196(13) 0.5483(3)
C17_4 C 0.4500(3) 0.10892(18) 0.5811(4)
C18_4 C 0.4941(3) 0.20295(17) 0.5551(4)
C19_4 C 0.2324(3) 0.4539(2) 0.7484(4)
N9_4 N 0.2705(2) 0.44315(14) 0.6663(3)
N10_4 N 0.4232(2) 0.21121(13) 0.5903(3)
C21_4 C 0.3152(3) 0.38495(17) 0.6532(3)
C23_4 C 0.2449(3) 0.49441(17) 0.5903(4)
C24_4 C 0.3865(3) 0.27089(16) 0.6112(3)
C25_4 C 0.2938(3) 0.32858(19) 0.6927(4)
C26_4 C 0.4088(3) 0.32815(18) 0.5708(4)
C27_4 C 0.3737(3) 0.38549(19) 0.5939(4)
C28_4 C 0.3302(3) 0.27128(18) 0.6724(4)
C29_4 C 0.3944(3) 0.15073(18) 0.6061(4)
C30_4 C 0.1856(3) 0.5106(2) 0.7164(4)
H11_4 H 0.241(3) 0.4236(17) 0.816(3)
H12_4 H 0.318(3) 0.2321(17) 0.699(3)
H13_4 H 0.259(3) 0.5006(16) 0.525(3)
H14_4 H 0.451(2) 0.0639(17) 0.581(3)
H15_4 H 0.527(3) 0.2333(18) 0.538(3)
H16_4 H 0.254(3) 0.3282(18) 0.730(4)
H17_4 H 0.150(3) 0.5310(19) 0.751(4)
H18_4 H 0.351(3) 0.1446(19) 0.632(4)
H19_4 H 0.388(3) 0.424(2) 0.570(4)
H20_4 H 0.447(3) 0.327(2) 0.526(4)
N2_4 N 0.6932(2) 0.03651(13) 0.6167(3)
C16_4 C 0.6856(3) 0.0106(2) 0.7164(4)
H3_4 H 0.759(3) 0.0006(16) 0.525(3)
H7_4 H 0.650(3) 0.0310(19) 0.751(4)
O4_4 O 0.23977(19) 0.12985(12) 0.0163(2)
O1_4 O 0.08316(18) 0.16688(12) 0.9098(2)
O2_4 O 0.12778(18) 0.21602(12) 0.7357(2)
Zn2_5 Zn -0.0000 0.21973(3) 0.7500
O3_4 O 0.28477(18) 0.18260(13) 0.8487(3)
C4_4 C 0.1972(3) 0.18871(16) 0.8281(3)
C6_4 C 0.1714(3) 0.15923(16) 0.9278(3)
C9_5 C -0.0000 0.3434(2) 0.7500
C12_5 C 0.0000 0.4177(2) 0.7500
Zn2_6 Zn 1.0000 0.21973(3) 0.7500
C9_6 C 1.0000 0.3434(2) 0.7500
C12_6 C 1.0000 0.4177(2) 0.7500
O7_4 O 0.91684(18) 0.16688(12) 0.5902(2)
O8_4 O 0.87222(18) 0.21602(12) 0.7643(2)
O9_4 O 0.71523(18) 0.18260(13) 0.6513(3)
O10_4 O 0.76023(19) 0.12985(12) 0.4837(2)
C20_4 C 0.8028(3) 0.18871(16) 0.6719(3)
C22_4 C 0.8286(3) 0.15923(16) 0.5722(3)
C1 C 0.9500(3) 0.39108(18) 0.0811(4)
C2 C 0.9941(3) 0.29705(17) 0.0551(4)
C3 C 0.7324(3) 0.0461(2) 0.2484(4)
N3 N 0.7705(2) 0.05685(14) 0.1663(3)
N4 N 0.9232(2) 0.28879(13) 0.0903(3)
C5 C 0.8152(3) 0.11505(17) 0.1532(3)
C7 C 0.7449(3) 0.00559(17) 0.0903(4)
C8 C 0.8865(3) 0.22911(16) 0.1112(3)
C10 C 0.7938(3) 0.17142(19) 0.1927(4)
C11 C 0.9088(3) 0.17185(18) 0.0708(4)
C13 C 0.8737(3) 0.11451(19) 0.0939(4)
C14 C 0.8302(3) 0.22872(18) 0.1724(4)
C15 C 0.8944(3) 0.34927(18) 0.1061(4)
H1 H 0.741(3) 0.0764(17) 0.316(3)
H2 H 0.818(3) 0.2679(17) 0.199(3)
H4 H 0.951(2) 0.4361(17) 0.081(3)
H6 H 0.754(3) 0.1718(18) 0.230(4)
H8 H 0.851(3) 0.3554(19) 0.132(4)
H9 H 0.888(3) 0.076(2) 0.070(4)
H10 H 0.947(3) 0.173(2) 0.026(4)
C1_2 C 0.0500(3) 0.39108(18) 0.4189(4)
C2_2 C 0.0059(3) 0.29705(17) 0.4449(4)
C3_2 C 0.2676(3) 0.0461(2) 0.2516(4)
N3_2 N 0.2295(2) 0.05685(14) 0.3337(3)
N4_2 N 0.0768(2) 0.28879(13) 0.4097(3)
C5_2 C 0.1848(3) 0.11505(17) 0.3468(3)
C7_2 C 0.2551(3) 0.00559(17) 0.4097(4)
C8_2 C 0.1135(3) 0.22911(16) 0.3888(3)
C10_2 C 0.2062(3) 0.17142(19) 0.3073(4)
C11_2 C 0.0912(3) 0.17185(18) 0.4292(4)
C13_2 C 0.1263(3) 0.11451(19) 0.4061(4)
C14_2 C 0.1698(3) 0.22872(18) 0.3276(4)
C15_2 C 0.1056(3) 0.34927(18) 0.3939(4)
H1_2 H 0.259(3) 0.0764(17) 0.184(3)
H2_2 H 0.182(3) 0.2679(17) 0.301(3)
H4_2 H 0.049(2) 0.4361(17) 0.419(3)
H6_2 H 0.246(3) 0.1718(18) 0.270(4)
H8_2 H 0.149(3) 0.3554(19) 0.368(4)
H9_2 H 0.112(3) 0.076(2) 0.430(4)
H10_2 H 0.053(3) 0.173(2) 0.474(4)
C1_3 C 0.0500(3) 0.60892(18) 0.9189(4)
C2_3 C 0.0059(3) 0.70295(17) 0.9449(4)
C3_3 C 0.2676(3) 0.9539(2) 0.7516(4)
N3_3 N 0.2295(2) 0.94315(14) 0.8337(3)
N4_3 N 0.0768(2) 0.71121(13) 0.9097(3)
C5_3 C 0.1848(3) 0.88495(17) 0.8468(3)
C7_3 C 0.2551(3) 0.99441(17) 0.9097(4)
C8_3 C 0.1135(3) 0.77089(16) 0.8888(3)
C10_3 C 0.2062(3) 0.82858(19) 0.8073(4)
C11_3 C 0.0912(3) 0.82815(18) 0.9292(4)
C13_3 C 0.1263(3) 0.88549(19) 0.9061(4)
C14_3 C 0.1698(3) 0.77128(18) 0.8276(4)
C15_3 C 0.1056(3) 0.65073(18) 0.8939(4)
H1_3 H 0.259(3) 0.9236(17) 0.684(3)
H2_3 H 0.182(3) 0.7321(17) 0.801(3)
H4_3 H 0.049(2) 0.5639(17) 0.919(3)
H6_3 H 0.246(3) 0.8282(18) 0.770(4)
H8_3 H 0.149(3) 0.6446(19) 0.868(4)
H9_3 H 0.112(3) 0.924(2) 0.930(4)
H10_3 H 0.053(3) 0.827(2) 0.974(4)
C1_4 C 0.9500(3) 0.60892(18) 0.5811(4)
C2_4 C 0.9941(3) 0.70295(17) 0.5551(4)
C3_4 C 0.7324(3) 0.9539(2) 0.7484(4)
N3_4 N 0.7705(2) 0.94315(14) 0.6663(3)
N4_4 N 0.9232(2) 0.71121(13) 0.5903(3)
C5_4 C 0.8152(3) 0.88495(17) 0.6532(3)
C7_4 C 0.7449(3) 0.99441(17) 0.5903(4)
C8_4 C 0.8865(3) 0.77089(16) 0.6112(3)
C10_4 C 0.7938(3) 0.82858(19) 0.6927(4)
C11_4 C 0.9088(3) 0.82815(18) 0.5708(4)
C13_4 C 0.8737(3) 0.88549(19) 0.5939(4)
C14_4 C 0.8302(3) 0.77128(18) 0.6724(4)
C15_4 C 0.8944(3) 0.65073(18) 0.6061(4)
H1_4 H 0.741(3) 0.9236(17) 0.816(3)
H2_4 H 0.818(3) 0.7321(17) 0.699(3)
H4_4 H 0.951(2) 0.5639(17) 0.581(3)
H6_4 H 0.754(3) 0.8282(18) 0.730(4)
H8_4 H 0.851(3) 0.6446(19) 0.632(4)
H9_4 H 0.888(3) 0.924(2) 0.570(4)
H10_4 H 0.947(3) 0.827(2) 0.526(4)
loop_
_geom_bond_atom_site_label_1
_geom_bond_atom_site_label_2
_geom_bond_site_symmetry_1
_geom_bond_site_symmetry_2
O1 Zn2 1_555 1_555
O2 Zn2 1_555 1_555
Zn1 N1 1_555 1_555
Zn2 O6 1_555 1_555
O3 Zn1 1_555 1_555
O5 C12 1_555 1_555
C4 O2 1_555 1_555
C6 O1 1_555 1_555
C9 C12 1_555 1_555
C12 O11 1_555 1_555
O6 C9 1_555 1_555
O7 Zn2 1_555 1_555
O8 Zn2 1_555 1_555
N5 C17 1_555 1_555
N6 Zn3 1_555 1_555
C17 C29 1_555 1_555
C18 N5 1_555 1_555
Zn3 O9 1_555 1_555
Zn6 O11 1_555 1_555
Zn7 N5 1_555 1_555
O9 C20 1_555 1_555
O10 Zn3 1_555 1_555
O13 Zn3 1_555 1_555
C19 N9 1_555 1_555
N7 Zn1 1_555 1_555
N8 Zn3 1_555 1_555
N9 C21 1_555 1_555
C20 O8 1_555 1_555
N10 C18 1_555 1_555
C21 C25 1_555 1_555
C22 O7 1_555 1_555
C23 N7 1_555 1_555
C24 N10 1_555 1_555
C25 C28 1_555 1_555
C26 C24 1_555 1_555
C27 C21 1_555 1_555
C28 C24 1_555 1_555
C29 N10 1_555 1_555
C30 C19 1_555 1_555
O14 Zn2 1_555 1_555
O16 Zn3 1_555 1_555
H11 C19 1_555 1_555
H12 C28 1_555 1_555
H13 C23 1_555 1_555
H14 C17 1_555 1_555
H15 C18 1_555 1_555
H16 C25 1_555 1_555
H17 C30 1_555 1_555
H18 C29 1_555 1_555
H19 C27 1_555 1_555
H20 C26 1_555 1_555
O3 C4 1_555 1_555
C4 C6 1_555 1_555
C9 O14 1_555 1_555
Zn6 O14 1_555 1_555
O10 C22 1_555 1_555
N7 C30 1_555 1_555
N9 C23 1_555 1_555
C20 C22 1_555 1_555
C26 C27 1_555 1_555
H7 C16 1_555 1_555
Zn7 N2 1_555 1_555
N2 C16 1_555 1_555
H7_2 C16_2 1_555 1_555
Zn5 N2_2 1_555 1_555
N2_2 C16_2 1_555 1_555
N5_2 C17_2 1_555 1_555
C17_2 C29_2 1_555 1_555
C18_2 N5_2 1_555 1_555
Zn5 N5_2 1_555 1_555
C19_2 N9_2 1_555 1_555
N9_2 C21_2 1_555 1_555
N10_2 C18_2 1_555 1_555
C21_2 C25_2 1_555 1_555
C23_2 N8 1_555 1_555
C24_2 N10_2 1_555 1_555
C25_2 C28_2 1_555 1_555
C26_2 C24_2 1_555 1_555
C27_2 C21_2 1_555 1_555
C28_2 C24_2 1_555 1_555
C29_2 N10_2 1_555 1_555
C30_2 C19_2 1_555 1_555
H11_2 C19_2 1_555 1_555
H12_2 C28_2 1_555 1_555
H13_2 C23_2 1_555 1_555
H14_2 C17_2 1_555 1_555
H15_2 C18_2 1_555 1_555
H16_2 C25_2 1_555 1_555
H17_2 C30_2 1_555 1_555
H18_2 C29_2 1_555 1_555
H19_2 C27_2 1_555 1_555
H20_2 C26_2 1_555 1_555
N8 C30_2 1_555 1_555
N9_2 C23_2 1_555 1_555
C26_2 C27_2 1_555 1_555
C9_2 C12_2 1_555 1_555
C12_2 O11_2 1_555 1_555
O7_2 Zn2_2 1_555 1_555
O8_2 Zn2_2 1_555 1_555
Zn5 O9_2 1_555 1_555
Zn6_2 O11_2 1_555 1_555
O9_2 C20_2 1_555 1_555
O10_2 Zn5 1_555 1_555
O13_2 Zn5 1_555 1_555
C20_2 O8_2 1_555 1_555
C22_2 O7_2 1_555 1_555
O14_2 Zn2_2 1_555 1_555
O16_2 Zn5 1_555 1_555
C9_2 O14_2 1_555 1_555
Zn6_2 O14_2 1_555 1_555
O10_2 C22_2 1_555 1_555
C20_2 C22_2 1_555 1_555
O1_2 Zn2_3 1_555 1_555
O2_2 Zn2_3 1_555 1_555
Zn2_3 O6_2 1_555 1_555
O3_2 Zn7 1_555 1_555
O5_2 C12_3 1_555 1_555
C4_2 O2_2 1_555 1_555
C6_2 O1_2 1_555 1_555
C9_3 C12_3 1_555 1_555
O6_2 C9_3 1_555 1_555
O3_2 C4_2 1_555 1_555
C4_2 C6_2 1_555 1_555
H7_3 C16_3 1_555 1_555
Zn4 N2_3 1_555 1_555
N2_3 C16_3 1_555 1_555
O1_3 Zn2_4 1_555 1_555
O2_3 Zn2_4 1_555 1_555
Zn4_2 N1_2 1_555 1_555
Zn2_4 O15_2 1_555 1_555
O3_3 Zn4_2 1_555 1_555
O12_2 C12_4 1_555 1_555
C4_3 O2_3 1_555 1_555
C6_3 O1_3 1_555 1_555
C9_4 C12_4 1_555 1_555
C12_4 O13_2 1_555 1_555
O15_2 C9_4 1_555 1_555
O7_3 Zn2_4 1_555 1_555
O8_3 Zn2_4 1_555 1_555
N5_3 C17_3 1_555 1_555
N6_2 Zn6_2 1_555 1_555
C17_3 C29_3 1_555 1_555
C18_3 N5_3 1_555 1_555
Zn6_2 O9_3 1_555 1_555
Zn4 N5_3 1_555 1_555
O9_3 C20_3 1_555 1_555
O10_3 Zn6_2 1_555 1_555
C19_3 N9_3 1_555 1_555
N7_2 Zn4_2 1_555 1_555
N8_2 Zn6_2 1_555 1_555
N9_3 C21_3 1_555 1_555
C20_3 O8_3 1_555 1_555
N10_3 C18_3 1_555 1_555
C21_3 C25_3 1_555 1_555
C22_3 O7_3 1_555 1_555
C23_3 N7_2 1_555 1_555
C24_3 N10_3 1_555 1_555
C25_3 C28_3 1_555 1_555
C26_3 C24_3 1_555 1_555
C27_3 C21_3 1_555 1_555
C28_3 C24_3 1_555 1_555
C29_3 N10_3 1_555 1_555
C30_3 C19_3 1_555 1_555
O16_2 Zn2_4 1_555 1_555
H11_3 C19_3 1_555 1_555
H12_3 C28_3 1_555 1_555
H13_3 C23_3 1_555 1_555
H14_3 C17_3 1_555 1_555
H15_3 C18_3 1_555 1_555
H16_3 C25_3 1_555 1_555
H17_3 C30_3 1_555 1_555
H18_3 C29_3 1_555 1_555
H19_3 C27_3 1_555 1_555
H20_3 C26_3 1_555 1_555
O3_3 C4_3 1_555 1_555
C4_3 C6_3 1_555 1_555
C9_4 O16_2 1_555 1_555
O10_3 C22_3 1_555 1_555
N7_2 C30_3 1_555 1_555
N9_3 C23_3 1_555 1_555
C20_3 C22_3 1_555 1_555
C26_3 C27_3 1_555 1_555
N5_4 C17_4 1_555 1_555
C17_4 C29_4 1_555 1_555
C18_4 N5_4 1_555 1_555
Zn6 N5_4 1_555 1_555
C19_4 N9_4 1_555 1_555
N9_4 C21_4 1_555 1_555
N10_4 C18_4 1_555 1_555
C21_4 C25_4 1_555 1_555
C23_4 N8_2 1_555 1_555
C24_4 N10_4 1_555 1_555
C25_4 C28_4 1_555 1_555
C26_4 C24_4 1_555 1_555
C27_4 C21_4 1_555 1_555
C28_4 C24_4 1_555 1_555
C29_4 N10_4 1_555 1_555
C30_4 C19_4 1_555 1_555
H11_4 C19_4 1_555 1_555
H12_4 C28_4 1_555 1_555
H13_4 C23_4 1_555 1_555
H14_4 C17_4 1_555 1_555
H15_4 C18_4 1_555 1_555
H16_4 C25_4 1_555 1_555
H17_4 C30_4 1_555 1_555
H18_4 C29_4 1_555 1_555
H19_4 C27_4 1_555 1_555
H20_4 C26_4 1_555 1_555
N8_2 C30_4 1_555 1_555
N9_4 C23_4 1_555 1_555
C26_4 C27_4 1_555 1_555
H7_4 C16_4 1_555 1_555
Zn6 N2_4 1_555 1_555
N2_4 C16_4 1_555 1_555
O1_4 Zn2_5 1_555 1_555
O2_4 Zn2_5 1_555 1_555
Zn2_5 O15 1_555 1_555
O3_4 Zn4 1_555 1_555
O12 C12_5 1_555 1_555
C4_4 O2_4 1_555 1_555
C6_4 O1_4 1_555 1_555
C9_5 C12_5 1_555 1_555
O15 C9_5 1_555 1_555
O3_4 C4_4 1_555 1_555
C4_4 C6_4 1_555 1_555
C9_6 C12_6 1_555 1_555
C12_6 O13 1_555 1_555
O7_4 Zn2_6 1_555 1_555
O8_4 Zn2_6 1_555 1_555
Zn6 O9_4 1_555 1_555
O9_4 C20_4 1_555 1_555
O10_4 Zn6 1_555 1_555
C20_4 O8_4 1_555 1_555
C22_4 O7_4 1_555 1_555
O16 Zn2_6 1_555 1_555
C9_6 O16 1_555 1_555
O10_4 C22_4 1_555 1_555
C20_4 C22_4 1_555 1_555
C1 C15 1_555 1_555
C3 N3 1_555 1_555
N3 C5 1_555 1_555
N4 C2 1_555 1_555
C5 C10 1_555 1_555
C7 N3 1_555 1_555
C8 N4 1_555 1_555
C10 C14 1_555 1_555
C11 C8 1_555 1_555
C13 C5 1_555 1_555
C14 C8 1_555 1_555
C15 N4 1_555 1_555
H1 C3 1_555 1_555
H2 C14 1_555 1_555
H4 C1 1_555 1_555
H6 C10 1_555 1_555
H8 C15 1_555 1_555
H9 C13 1_555 1_555
H10 C11 1_555 1_555
C11 C13 1_555 1_555
C1_2 C15_2 1_555 1_555
C3_2 N3_2 1_555 1_555
N3_2 C5_2 1_555 1_555
N4_2 C2_2 1_555 1_555
C5_2 C10_2 1_555 1_555
C7_2 N3_2 1_555 1_555
C8_2 N4_2 1_555 1_555
C10_2 C14_2 1_555 1_555
C11_2 C8_2 1_555 1_555
C13_2 C5_2 1_555 1_555
C14_2 C8_2 1_555 1_555
C15_2 N4_2 1_555 1_555
H1_2 C3_2 1_555 1_555
H2_2 C14_2 1_555 1_555
H4_2 C1_2 1_555 1_555
H6_2 C10_2 1_555 1_555
H8_2 C15_2 1_555 1_555
H9_2 C13_2 1_555 1_555
H10_2 C11_2 1_555 1_555
C11_2 C13_2 1_555 1_555
C1_3 C15_3 1_555 1_555
C3_3 N3_3 1_555 1_555
N3_3 C5_3 1_555 1_555
N4_3 C2_3 1_555 1_555
C5_3 C10_3 1_555 1_555
C7_3 N3_3 1_555 1_555
C8_3 N4_3 1_555 1_555
C10_3 C14_3 1_555 1_555
C11_3 C8_3 1_555 1_555
C13_3 C5_3 1_555 1_555
C14_3 C8_3 1_555 1_555
C15_3 N4_3 1_555 1_555
H1_3 C3_3 1_555 1_555
H2_3 C14_3 1_555 1_555
H4_3 C1_3 1_555 1_555
H6_3 C10_3 1_555 1_555
H8_3 C15_3 1_555 1_555
H9_3 C13_3 1_555 1_555
H10_3 C11_3 1_555 1_555
C11_3 C13_3 1_555 1_555
C1_4 C15_4 1_555 1_555
C3_4 N3_4 1_555 1_555
N3_4 C5_4 1_555 1_555
N4_4 C2_4 1_555 1_555
C5_4 C10_4 1_555 1_555
C7_4 N3_4 1_555 1_555
C8_4 N4_4 1_555 1_555
C10_4 C14_4 1_555 1_555
C11_4 C8_4 1_555 1_555
C13_4 C5_4 1_555 1_555
C14_4 C8_4 1_555 1_555
C15_4 N4_4 1_555 1_555
H1_4 C3_4 1_555 1_555
H2_4 C14_4 1_555 1_555
H4_4 C1_4 1_555 1_555
H6_4 C10_4 1_555 1_555
H8_4 C15_4 1_555 1_555
H9_4 C13_4 1_555 1_555
H10_4 C11_4 1_555 1_555
C11_4 C13_4 1_555 1_555

#END
