
###############################################################################
#
# This file contains modified crystal structure data generated from the
# MOF subset of the Cambridge Structural Database (CSD) v543 
# hosted by the Cambridge Crystallographic Data Centre (CCDC).
#
# This work is licensed under the Creative Commons
# Attribution-NonCommercial-ShareAlike 4.0 International License.
# To view a copy of this license, visit
# http://creativecommons.org/licenses/by-nc-sa/4.0/
# or send a letter to
# Creative Commons, PO Box 1866, Mountain View, CA 94042, USA.
#
# CIF created using the CSD Python API on 29 September 2022
# The structure has been converted into the P1 space group
# The structure has a 3D framework
# The original CSD entry YARSAN is in the orthorhombic crystal system
# The original CSD entry YARSAN is in a Sohncke space group
# The framework has been calculated to contain at least 10.0% void space
# The void calculation uses a probe of radius 1.32A, grid spacing 0.4
#
###############################################################################

data_YARSAN
_chemical_formula_moiety         '(C144 H88 N16 O32 Zn8)n'
_symmetry_cell_setting           triclinic
_symmetry_space_group_name_H-M   'P 1'
_symmetry_Int_Tables_number      1
_space_group_name_Hall           'P 1'
loop_
_symmetry_equiv_pos_site_id
_symmetry_equiv_pos_as_xyz
1 x,y,z
_cell_length_a                   10.302(2)
_cell_length_b                   11.876(2)
_cell_length_c                   32.266(7)
_cell_angle_alpha                90
_cell_angle_beta                 90
_cell_angle_gamma                90
_cell_volume                     3947.63
loop_
_atom_site_label
_atom_site_type_symbol
_atom_site_fract_x
_atom_site_fract_y
_atom_site_fract_z
C4 C 0.0235(3) 0.1291(2) 0.90274(8)
C6 C 0.0316(3) 0.1985(2) 0.82881(9)
H3 H 0.1218 0.1953 0.8291
H4 H 0.0189 0.2556 0.7706
C12 C 0.1672(3) 0.1243(2) 0.90924(8)
O3 O 0.24331(18) 0.14216(15) 0.87895(6)
O4 O 0.20947(18) 0.10500(15) 0.94536(6)
Zn3 Zn 0.38525(3) 0.16757(2) 0.956294(8)
Zn5 Zn 0.37636(3) 0.04493(2) 0.852520(8)
H14 H 0.5415 0.0012 0.1453
C28 C 0.3717(3) 0.0289(2) 0.11679(7)
C29 C 0.2384(3) 0.0216(3) 0.12157(9)
H15 H 0.1838 0.0431 0.1000
H17 H 0.2898 0.0148 0.2720
C34 C 0.3540(3) 0.0939(2) 0.04393(8)
H20 H 0.2648 0.0838 0.0413
C35 C 0.5543(3) 0.1348(2) 0.03073(8)
H21 H 0.6282 0.1588 0.0168
C36 C 0.5507(3) 0.0975(2) 0.07008(8)
H22 H 0.6209 0.0905 0.0880
N3 N 0.4230(2) 0.07170(18) 0.07872(6)
N4 N 0.4301(2) 0.13160(17) 0.01438(6)
O12 O 0.1583(2) 0.09236(16) 0.38306(7)
C1 C 0.7485(3) 0.1317(2) 0.89813(8)
C2 C 0.8126(3) 0.1017(2) 0.93385(8)
H1 H 0.7643 0.0814 0.9570
C3 C 0.9475(3) 0.1008(2) 0.93637(8)
H2 H 0.9872 0.0808 0.9612
C5 C 0.9621(3) 0.1643(2) 0.86458(8)
C7 C 0.9704(3) 0.2361(3) 0.79388(9)
C8 C 0.8357(3) 0.2453(3) 0.79296(9)
H5 H 0.7945 0.2735 0.7695
C9 C 0.7645(3) 0.2128(2) 0.82640(9)
H6 H 0.6747 0.2195 0.8253
C10 C 0.8228(3) 0.1690(2) 0.86291(8)
C11 C 0.6026(3) 0.1188(2) 0.89741(8)
C13 C 0.4030(3) 0.7160(2) 0.88267(8)
C14 C 0.4529(3) 0.7029(2) 0.92171(9)
H7 H 0.4792 0.7660 0.9365
C15 C 0.4651(3) 0.5961(2) 0.93968(9)
H8 H 0.5018 0.5891 0.9659
C16 C 0.4234(3) 0.5012(2) 0.91903(8)
C17 C 0.3689(3) 0.5117(2) 0.87835(8)
C18 C 0.3296(3) 0.4169(2) 0.85421(8)
H9 H 0.3364 0.3448 0.8652
C19 C 0.2822(3) 0.4313(2) 0.81508(9)
H10 H 0.2577 0.3685 0.7997
C20 C 0.2697(3) 0.5386(3) 0.79755(9)
H11 H 0.2367 0.5468 0.7709
C21 C 0.3061(3) 0.6308(2) 0.81976(9)
H12 H 0.2952 0.7020 0.8083
C22 C 0.3598(3) 0.6207(2) 0.85976(8)
C23 C 0.4034(3) 0.8316(2) 0.86354(9)
C24 C 0.4439(3) 0.3897(2) 0.94023(8)
O1 O 0.54600(19) 0.11319(18) 0.86307(6)
O2 O 0.54702(18) 0.10703(16) 0.93188(6)
O5 O 0.3417(2) 0.90764(16) 0.88306(7)
O6 O 0.4657(3) 0.85006(17) 0.83179(7)
O7 O 0.5473(2) 0.37035(17) 0.95782(6)
O8 O 0.34854(17) 0.32034(15) 0.93826(6)
C25 C 0.2682(3) 0.9504(2) 0.19011(8)
C26 C 0.4011(3) 0.9571(3) 0.18567(8)
H13 H 0.4558 0.9355 0.2072
C27 C 0.4520(3) 0.9966(3) 0.14865(9)
C30 C 0.1868(3) 0.9826(3) 0.15818(9)
H16 H 0.0973 0.9780 0.1614
C31 C 0.2296(3) 0.9587(2) 0.26608(8)
C32 C 0.0781(3) 0.8345(2) 0.27205(8)
H18 H 0.0141 0.7891 0.2837
C33 C 0.1131(3) 0.8333(2) 0.23184(8)
H19 H 0.0790 0.7885 0.2109
N1 N 0.2105(2) 0.91289(19) 0.22835(6)
N2 N 0.1503(2) 0.91247(19) 0.29347(6)
Zn2 Zn 0.12364(3) 0.95507(2) 0.352520(8)
O10 O 0.25669(18) 0.85784(15) 0.37895(6)
O9 O 0.95400(19) 0.88681(18) 0.36307(6)
C25_2 C 0.2318(3) 0.0496(2) 0.69011(8)
C26_2 C 0.0989(3) 0.0429(3) 0.68567(8)
H13_2 H 0.0442 0.0645 0.7072
C27_2 C 0.0480(3) 0.0034(3) 0.64865(9)
C30_2 C 0.3132(3) 0.0174(3) 0.65818(9)
H16_2 H 0.4027 0.0220 0.6614
C31_2 C 0.2704(3) 0.0413(2) 0.76608(8)
C32_2 C 0.4219(3) 0.1655(2) 0.77205(8)
H18_2 H 0.4859 0.2109 0.7837
C33_2 C 0.3869(3) 0.1667(2) 0.73184(8)
H19_2 H 0.4210 0.2115 0.7109
N1_2 N 0.2895(2) 0.08711(19) 0.72835(6)
N2_2 N 0.3497(2) 0.08753(19) 0.79347(6)
C13_2 C 0.0970(3) 0.2840(2) 0.38267(8)
C14_2 C 0.0471(3) 0.2971(2) 0.42171(9)
H7_2 H 0.0208 0.2340 0.4365
C15_2 C 0.0349(3) 0.4039(2) 0.43968(9)
C16_2 C 0.0766(3) 0.4988(2) 0.41903(8)
C17_2 C 0.1311(3) 0.4883(2) 0.37835(8)
C18_2 C 0.1704(3) 0.5831(2) 0.35421(8)
H9_2 H 0.1636 0.6552 0.3652
C19_2 C 0.2178(3) 0.5687(2) 0.31508(9)
H10_2 H 0.2423 0.6315 0.2997
C20_2 C 0.2303(3) 0.4614(3) 0.29755(9)
H11_2 H 0.2633 0.4532 0.2709
C21_2 C 0.1939(3) 0.3692(2) 0.31976(9)
H12_2 H 0.2048 0.2980 0.3083
C22_2 C 0.1402(3) 0.3793(2) 0.35976(8)
C23_2 C 0.0966(3) 0.1684(2) 0.36354(9)
C24_2 C 0.0561(3) 0.6103(2) 0.44023(8)
C28_2 C 0.1283(3) 0.9711(2) 0.61679(7)
C29_2 C 0.2616(3) 0.9784(3) 0.62157(9)
H15_2 H 0.3162 0.9569 0.6000
H17_2 H 0.2102 0.9852 0.7720
C34_2 C 0.1460(3) 0.9061(2) 0.54393(8)
H20_2 H 0.2352 0.9162 0.5413
N3_2 N 0.0770(2) 0.92830(18) 0.57872(6)
N4_2 N 0.0699(2) 0.86840(17) 0.51438(6)
O6_2 O 0.0343(3) 0.14994(17) 0.33179(7)
O8_2 O 0.15146(17) 0.67966(15) 0.43826(6)
Zn1 Zn 0.11475(3) 0.83243(2) 0.456294(8)
O11 O 0.29053(18) 0.89500(15) 0.44536(6)
C1_2 C 0.7515(3) 0.8683(2) 0.39813(8)
C2_2 C 0.6874(3) 0.8983(2) 0.43385(8)
H1_2 H 0.7357 0.9186 0.4570
C3_2 C 0.5525(3) 0.8992(2) 0.43637(8)
H2_2 H 0.5128 0.9192 0.4612
C4_2 C 0.4765(3) 0.8709(2) 0.40274(8)
C5_2 C 0.5379(3) 0.8357(2) 0.36458(8)
C6_2 C 0.4684(3) 0.8015(2) 0.32881(9)
H3_2 H 0.3782 0.8047 0.3291
C7_2 C 0.5296(3) 0.7639(3) 0.29388(9)
H4_2 H 0.4811 0.7444 0.2706
C8_2 C 0.6643(3) 0.7547(3) 0.29296(9)
H5_2 H 0.7055 0.7265 0.2695
C9_2 C 0.7355(3) 0.7872(2) 0.32640(9)
H6_2 H 0.8253 0.7805 0.3253
C10_2 C 0.6772(3) 0.8310(2) 0.36291(8)
C11_2 C 0.8974(3) 0.8812(2) 0.39741(8)
C12_2 C 0.3328(3) 0.8757(2) 0.40924(8)
H8_2 H 0.9982 0.4109 0.4659
H14_2 H 0.9585 0.9988 0.6453
C35_2 C 0.9457(3) 0.8652(2) 0.53073(8)
H21_2 H 0.8718 0.8412 0.5168
C36_2 C 0.9493(3) 0.9025(2) 0.57008(8)
H22_2 H 0.8791 0.9095 0.5880
O2_2 O 0.95298(18) 0.89297(16) 0.43188(6)
O7_2 O 0.9527(2) 0.62965(17) 0.45782(6)
O9_2 O 0.04600(19) 0.38681(18) 0.13693(6)
C13_3 C 0.5970(3) 0.2160(2) 0.61733(8)
C14_3 C 0.5471(3) 0.2029(2) 0.57829(9)
H7_3 H 0.5208 0.2660 0.5635
C15_3 C 0.5349(3) 0.0961(2) 0.56032(9)
H8_3 H 0.4982 0.0891 0.5341
C16_3 C 0.5766(3) 0.0012(2) 0.58097(8)
C17_3 C 0.6311(3) 0.0117(2) 0.62165(8)
C20_3 C 0.7303(3) 0.0386(3) 0.70245(9)
H11_3 H 0.7633 0.0468 0.7291
C21_3 C 0.6939(3) 0.1308(2) 0.68024(9)
H12_3 H 0.7048 0.2020 0.6917
C22_3 C 0.6402(3) 0.1207(2) 0.64024(8)
C23_3 C 0.5966(3) 0.3316(2) 0.63646(9)
O5_2 O 0.6583(2) 0.40764(16) 0.61694(7)
O6_3 O 0.5343(3) 0.35006(17) 0.66821(7)
Zn6 Zn 0.62364(3) 0.54493(2) 0.647480(8)
C1_3 C 0.2515(3) 0.6317(2) 0.60187(8)
C2_3 C 0.1874(3) 0.6017(2) 0.56615(8)
H1_3 H 0.2357 0.5814 0.5430
C3_3 C 0.0525(3) 0.6008(2) 0.56363(8)
H2_3 H 0.0128 0.5808 0.5388
C5_3 C 0.0379(3) 0.6643(2) 0.63542(8)
C7_3 C 0.0296(3) 0.7361(3) 0.70612(9)
C8_3 C 0.1643(3) 0.7453(3) 0.70704(9)
H5_3 H 0.2055 0.7735 0.7305
C9_3 C 0.2355(3) 0.7128(2) 0.67360(9)
H6_3 H 0.3253 0.7195 0.6747
C10_3 C 0.1772(3) 0.6690(2) 0.63709(8)
C11_3 C 0.3974(3) 0.6188(2) 0.60259(8)
C18_3 C 0.6704(3) 0.9169(2) 0.64579(8)
H9_3 H 0.6636 0.8448 0.6348
C19_3 C 0.7178(3) 0.9313(2) 0.68492(9)
H10_3 H 0.7423 0.8685 0.7003
C24_3 C 0.5561(3) 0.8897(2) 0.55977(8)
C25_3 C 0.7318(3) 0.4504(2) 0.30989(8)
C26_3 C 0.5989(3) 0.4571(3) 0.31433(8)
H13_3 H 0.5442 0.4355 0.2928
C27_3 C 0.5480(3) 0.4966(3) 0.35135(9)
H14_3 H 0.4585 0.5012 0.3547
C28_3 C 0.6283(3) 0.5289(2) 0.38321(7)
C29_3 C 0.7616(3) 0.5216(3) 0.37843(9)
H15_3 H 0.8162 0.5431 0.4000
C30_3 C 0.8132(3) 0.4826(3) 0.34182(9)
H16_3 H 0.9027 0.4780 0.3386
C31_3 C 0.7704(3) 0.4587(2) 0.23392(8)
H17_3 H 0.7102 0.5148 0.2280
C32_3 C 0.9219(3) 0.3345(2) 0.22795(8)
H18_3 H 0.9859 0.2891 0.2163
C33_3 C 0.8869(3) 0.3333(2) 0.26816(8)
H19_3 H 0.9210 0.2885 0.2891
C34_3 C 0.6460(3) 0.5939(2) 0.45607(8)
H20_3 H 0.7352 0.5838 0.4587
C35_3 C 0.4457(3) 0.6348(2) 0.46927(8)
H21_3 H 0.3718 0.6588 0.4832
C36_3 C 0.4493(3) 0.5975(2) 0.42992(8)
H22_3 H 0.3791 0.5905 0.4120
N1_3 N 0.7895(2) 0.41289(19) 0.27165(6)
N2_3 N 0.8497(2) 0.41247(19) 0.20653(6)
N3_3 N 0.5770(2) 0.57170(18) 0.42128(6)
N4_3 N 0.5699(2) 0.63160(17) 0.48562(6)
O1_2 O 0.45400(19) 0.61319(18) 0.63693(6)
O2_3 O 0.45298(18) 0.60703(16) 0.56812(6)
O7_3 O 0.4527(2) 0.87035(17) 0.54218(6)
O8_3 O 0.65146(17) 0.82034(15) 0.56174(6)
Zn1_2 Zn 0.61475(3) 0.66757(2) 0.543706(8)
Zn2_2 Zn 0.87636(3) 0.45507(2) 0.147480(8)
O10_2 O 0.74331(18) 0.35784(15) 0.12105(6)
O11_2 O 0.79053(18) 0.60500(15) 0.55464(6)
O12_2 O 0.8417(2) 0.59236(16) 0.11694(7)
C4_3 C 0.9765(3) 0.6291(2) 0.59726(8)
C6_3 C 0.9684(3) 0.6985(2) 0.67119(9)
H3_3 H 0.8782 0.6953 0.6709
H4_3 H 0.9811 0.7556 0.7294
C12_3 C 0.8328(3) 0.6243(2) 0.59076(8)
O3_2 O 0.75669(18) 0.64216(15) 0.62105(6)
C1_4 C 0.2485(3) 0.3683(2) 0.10187(8)
C2_4 C 0.3126(3) 0.3983(2) 0.06615(8)
H1_4 H 0.2643 0.4186 0.0430
C3_4 C 0.4475(3) 0.3992(2) 0.06363(8)
H2_4 H 0.4872 0.4192 0.0388
C4_4 C 0.5235(3) 0.3709(2) 0.09726(8)
C5_4 C 0.4621(3) 0.3357(2) 0.13542(8)
C6_4 C 0.5316(3) 0.3015(2) 0.17119(9)
H3_4 H 0.6218 0.3047 0.1709
C7_4 C 0.4704(3) 0.2639(3) 0.20612(9)
H4_4 H 0.5189 0.2444 0.2294
C8_4 C 0.3357(3) 0.2547(3) 0.20704(9)
H5_4 H 0.2945 0.2265 0.2305
C9_4 C 0.2645(3) 0.2872(2) 0.17360(9)
H6_4 H 0.1747 0.2805 0.1747
C10_4 C 0.3228(3) 0.3310(2) 0.13709(8)
C11_4 C 0.1026(3) 0.3812(2) 0.10259(8)
C12_4 C 0.6672(3) 0.3757(2) 0.09076(8)
O2_4 O 0.04702(18) 0.39297(16) 0.06812(6)
O4_2 O 0.70947(18) 0.39500(15) 0.05464(6)
O7_4 O 0.0473(2) 0.12965(17) 0.04218(6)
Zn3_2 Zn 0.88525(3) 0.33243(2) 0.043706(8)
C18_4 C 0.8296(3) 0.0831(2) 0.14579(8)
H9_4 H 0.8364 0.1552 0.1348
C19_4 C 0.7822(3) 0.0687(2) 0.18492(9)
H10_4 H 0.7577 0.1315 0.2003
C24_4 C 0.9439(3) 0.1103(2) 0.05977(8)
O8_4 O 0.84854(17) 0.17966(15) 0.06174(6)
C25_4 C 0.7682(3) 0.5496(2) 0.80989(8)
C26_4 C 0.9011(3) 0.5429(3) 0.81433(8)
H13_4 H 0.9558 0.5645 0.7928
C27_4 C 0.9520(3) 0.5034(3) 0.85135(9)
C28_4 C 0.8717(3) 0.4711(2) 0.88321(7)
C29_4 C 0.7384(3) 0.4784(3) 0.87843(9)
H15_4 H 0.6838 0.4569 0.9000
C30_4 C 0.6868(3) 0.5174(3) 0.84182(9)
H16_4 H 0.5973 0.5220 0.8386
C31_4 C 0.7296(3) 0.5413(2) 0.73392(8)
H17_4 H 0.7898 0.4852 0.7280
C32_4 C 0.5781(3) 0.6655(2) 0.72795(8)
H18_4 H 0.5141 0.7109 0.7163
C33_4 C 0.6131(3) 0.6667(2) 0.76816(8)
H19_4 H 0.5790 0.7115 0.7891
C34_4 C 0.8540(3) 0.4061(2) 0.95607(8)
H20_4 H 0.7648 0.4162 0.9587
N1_4 N 0.7105(2) 0.58711(19) 0.77165(6)
N2_4 N 0.6503(2) 0.58753(19) 0.70653(6)
N3_4 N 0.9230(2) 0.42830(18) 0.92128(6)
N4_4 N 0.9301(2) 0.36840(17) 0.98562(6)
C13_4 C 0.9030(3) 0.7840(2) 0.11733(8)
C14_4 C 0.9529(3) 0.7971(2) 0.07829(9)
H7_4 H 0.9792 0.7340 0.0635
C15_4 C 0.9651(3) 0.9039(2) 0.06032(9)
C16_4 C 0.9234(3) 0.9988(2) 0.08097(8)
C17_4 C 0.8689(3) 0.9883(2) 0.12165(8)
C20_4 C 0.7697(3) 0.9614(3) 0.20245(9)
H11_4 H 0.7367 0.9532 0.2291
C21_4 C 0.8061(3) 0.8692(2) 0.18024(9)
H12_4 H 0.7952 0.7980 0.1917
C22_4 C 0.8598(3) 0.8793(2) 0.14024(8)
C23_4 C 0.9034(3) 0.6684(2) 0.13646(9)
O6_4 O 0.9657(3) 0.64994(17) 0.16821(7)
H14_4 H 0.0415 0.4988 0.8547
C35_4 C 0.0543(3) 0.3652(2) 0.96927(8)
H21_4 H 0.1282 0.3412 0.9832
C36_4 C 0.0507(3) 0.4025(2) 0.92992(8)
H22_4 H 0.1209 0.4095 0.9120
H8_4 H 0.0018 0.9109 0.0341
loop_
_geom_bond_atom_site_label_1
_geom_bond_atom_site_label_2
_geom_bond_site_symmetry_1
_geom_bond_site_symmetry_2
H3 C6 1_555 1_555
C12 C4 1_555 1_555
O3 C12 1_555 1_555
O4 C12 1_555 1_555
Zn3 O4 1_555 1_555
Zn5 O3 1_555 1_555
C29 C28 1_555 1_555
H15 C29 1_555 1_555
C34 H20 1_555 1_555
C35 H21 1_555 1_555
C36 C35 1_555 1_555
H22 C36 1_555 1_555
N3 C28 1_555 1_555
N4 C34 1_555 1_555
C34 N3 1_555 1_555
C35 N4 1_555 1_555
C36 N3 1_555 1_555
C1 C2 1_555 1_555
C2 H1 1_555 1_555
C3 C2 1_555 1_555
H2 C3 1_555 1_555
C8 C7 1_555 1_555
H5 C8 1_555 1_555
C9 C8 1_555 1_555
H6 C9 1_555 1_555
C10 C1 1_555 1_555
C11 C1 1_555 1_555
C13 C14 1_555 1_555
C14 H7 1_555 1_555
C15 C14 1_555 1_555
H8 C15 1_555 1_555
C16 C15 1_555 1_555
C17 C16 1_555 1_555
C18 C17 1_555 1_555
H9 C18 1_555 1_555
C19 C18 1_555 1_555
H10 C19 1_555 1_555
C20 C19 1_555 1_555
H11 C20 1_555 1_555
C21 C20 1_555 1_555
H12 C21 1_555 1_555
C22 C13 1_555 1_555
C23 C13 1_555 1_555
C24 C16 1_555 1_555
O1 C11 1_555 1_555
O2 C11 1_555 1_555
O5 C23 1_555 1_555
O6 C23 1_555 1_555
O7 C24 1_555 1_555
O8 C24 1_555 1_555
Zn5 O1 1_555 1_555
C5 C10 1_555 1_555
C9 C10 1_555 1_555
C17 C22 1_555 1_555
C21 C22 1_555 1_555
O2 Zn3 1_555 1_555
O8 Zn3 1_555 1_555
C25 C26 1_555 1_555
C26 H13 1_555 1_555
C27 C26 1_555 1_555
C30 C25 1_555 1_555
H16 C30 1_555 1_555
C32 H18 1_555 1_555
C33 C32 1_555 1_555
H19 C33 1_555 1_555
N1 C25 1_555 1_555
N2 C31 1_555 1_555
Zn2 N2 1_555 1_555
O10 Zn2 1_555 1_555
C31 N1 1_555 1_555
C32 N2 1_555 1_555
C33 N1 1_555 1_555
C25_2 C26_2 1_555 1_555
C26_2 H13_2 1_555 1_555
C27_2 C26_2 1_555 1_555
C30_2 C25_2 1_555 1_555
H16_2 C30_2 1_555 1_555
C32_2 H18_2 1_555 1_555
C33_2 C32_2 1_555 1_555
H19_2 C33_2 1_555 1_555
N1_2 C25_2 1_555 1_555
N2_2 C31_2 1_555 1_555
Zn5 N2_2 1_555 1_555
C31_2 N1_2 1_555 1_555
C32_2 N2_2 1_555 1_555
C33_2 N1_2 1_555 1_555
C13_2 C14_2 1_555 1_555
C14_2 H7_2 1_555 1_555
C15_2 C14_2 1_555 1_555
C16_2 C15_2 1_555 1_555
C17_2 C16_2 1_555 1_555
C18_2 C17_2 1_555 1_555
H9_2 C18_2 1_555 1_555
C19_2 C18_2 1_555 1_555
H10_2 C19_2 1_555 1_555
C20_2 C19_2 1_555 1_555
H11_2 C20_2 1_555 1_555
C21_2 C20_2 1_555 1_555
H12_2 C21_2 1_555 1_555
C22_2 C13_2 1_555 1_555
C23_2 C13_2 1_555 1_555
C24_2 C16_2 1_555 1_555
C29_2 C28_2 1_555 1_555
H15_2 C29_2 1_555 1_555
C34_2 H20_2 1_555 1_555
N3_2 C28_2 1_555 1_555
N4_2 C34_2 1_555 1_555
O12 C23_2 1_555 1_555
O6_2 C23_2 1_555 1_555
O8_2 C24_2 1_555 1_555
Zn1 N4_2 1_555 1_555
O11 Zn1 1_555 1_555
C17_2 C22_2 1_555 1_555
C21_2 C22_2 1_555 1_555
C34_2 N3_2 1_555 1_555
O8_2 Zn1 1_555 1_555
C1_2 C2_2 1_555 1_555
C2_2 H1_2 1_555 1_555
C3_2 C2_2 1_555 1_555
H2_2 C3_2 1_555 1_555
C4_2 C3_2 1_555 1_555
C5_2 C4_2 1_555 1_555
C6_2 C5_2 1_555 1_555
H3_2 C6_2 1_555 1_555
C7_2 C6_2 1_555 1_555
H4_2 C7_2 1_555 1_555
C8_2 C7_2 1_555 1_555
H5_2 C8_2 1_555 1_555
C9_2 C8_2 1_555 1_555
H6_2 C9_2 1_555 1_555
C10_2 C1_2 1_555 1_555
C11_2 C1_2 1_555 1_555
C12_2 C4_2 1_555 1_555
C35_2 H21_2 1_555 1_555
C36_2 C35_2 1_555 1_555
H22_2 C36_2 1_555 1_555
O9 C11_2 1_555 1_555
O2_2 C11_2 1_555 1_555
O10 C12_2 1_555 1_555
O11 C12_2 1_555 1_555
C5_2 C10_2 1_555 1_555
C9_2 C10_2 1_555 1_555
C13_3 C14_3 1_555 1_555
C14_3 H7_3 1_555 1_555
C15_3 C14_3 1_555 1_555
H8_3 C15_3 1_555 1_555
C16_3 C15_3 1_555 1_555
C17_3 C16_3 1_555 1_555
H11_3 C20_3 1_555 1_555
C21_3 C20_3 1_555 1_555
H12_3 C21_3 1_555 1_555
C22_3 C13_3 1_555 1_555
C23_3 C13_3 1_555 1_555
O5_2 C23_3 1_555 1_555
O6_3 C23_3 1_555 1_555
Zn6 O5_2 1_555 1_555
C17_3 C22_3 1_555 1_555
C21_3 C22_3 1_555 1_555
C1_3 C2_3 1_555 1_555
C2_3 H1_3 1_555 1_555
C3_3 C2_3 1_555 1_555
H2_3 C3_3 1_555 1_555
C8_3 C7_3 1_555 1_555
H5_3 C8_3 1_555 1_555
C9_3 C8_3 1_555 1_555
H6_3 C9_3 1_555 1_555
C10_3 C1_3 1_555 1_555
C11_3 C1_3 1_555 1_555
H9_3 C18_3 1_555 1_555
C19_3 C18_3 1_555 1_555
H10_3 C19_3 1_555 1_555
C25_3 C26_3 1_555 1_555
C26_3 H13_3 1_555 1_555
C27_3 C26_3 1_555 1_555
H14_3 C27_3 1_555 1_555
C28_3 C27_3 1_555 1_555
C29_3 C28_3 1_555 1_555
H15_3 C29_3 1_555 1_555
C30_3 C25_3 1_555 1_555
H16_3 C30_3 1_555 1_555
C31_3 H17_3 1_555 1_555
C32_3 H18_3 1_555 1_555
C33_3 C32_3 1_555 1_555
H19_3 C33_3 1_555 1_555
C34_3 H20_3 1_555 1_555
C35_3 H21_3 1_555 1_555
C36_3 C35_3 1_555 1_555
H22_3 C36_3 1_555 1_555
N1_3 C25_3 1_555 1_555
N2_3 C31_3 1_555 1_555
N3_3 C28_3 1_555 1_555
N4_3 C34_3 1_555 1_555
O1_2 C11_3 1_555 1_555
O2_3 C11_3 1_555 1_555
O7_3 C24_3 1_555 1_555
O8_3 C24_3 1_555 1_555
Zn1_2 N4_3 1_555 1_555
Zn2_2 N2_3 1_555 1_555
O10_2 Zn2_2 1_555 1_555
O11_2 Zn1_2 1_555 1_555
O12_2 Zn2_2 1_555 1_555
Zn6 O1_2 1_555 1_555
C5_3 C10_3 1_555 1_555
C9_3 C10_3 1_555 1_555
C29_3 C30_3 1_555 1_555
C31_3 N1_3 1_555 1_555
C32_3 N2_3 1_555 1_555
C33_3 N1_3 1_555 1_555
C34_3 N3_3 1_555 1_555
C35_3 N4_3 1_555 1_555
C36_3 N3_3 1_555 1_555
O2_3 Zn1_2 1_555 1_555
O8_3 Zn1_2 1_555 1_555
H3_3 C6_3 1_555 1_555
C12_3 C4_3 1_555 1_555
O3_2 C12_3 1_555 1_555
O11_2 C12_3 1_555 1_555
Zn6 O3_2 1_555 1_555
C1_4 C2_4 1_555 1_555
C2_4 H1_4 1_555 1_555
C3_4 C2_4 1_555 1_555
H2_4 C3_4 1_555 1_555
C4_4 C3_4 1_555 1_555
C5_4 C4_4 1_555 1_555
C6_4 C5_4 1_555 1_555
H3_4 C6_4 1_555 1_555
C7_4 C6_4 1_555 1_555
H4_4 C7_4 1_555 1_555
C8_4 C7_4 1_555 1_555
H5_4 C8_4 1_555 1_555
C9_4 C8_4 1_555 1_555
H6_4 C9_4 1_555 1_555
C10_4 C1_4 1_555 1_555
C11_4 C1_4 1_555 1_555
C12_4 C4_4 1_555 1_555
O9_2 C11_4 1_555 1_555
O2_4 C11_4 1_555 1_555
O10_2 C12_4 1_555 1_555
O4_2 C12_4 1_555 1_555
Zn3_2 O4_2 1_555 1_555
C5_4 C10_4 1_555 1_555
C9_4 C10_4 1_555 1_555
H9_4 C18_4 1_555 1_555
C19_4 C18_4 1_555 1_555
H10_4 C19_4 1_555 1_555
O8_4 C24_4 1_555 1_555
O8_4 Zn3_2 1_555 1_555
C25_4 C26_4 1_555 1_555
C26_4 H13_4 1_555 1_555
C27_4 C26_4 1_555 1_555
C28_4 C27_4 1_555 1_555
C29_4 C28_4 1_555 1_555
H15_4 C29_4 1_555 1_555
C30_4 C25_4 1_555 1_555
H16_4 C30_4 1_555 1_555
C31_4 H17_4 1_555 1_555
C32_4 H18_4 1_555 1_555
C33_4 C32_4 1_555 1_555
H19_4 C33_4 1_555 1_555
C34_4 H20_4 1_555 1_555
N1_4 C25_4 1_555 1_555
N2_4 C31_4 1_555 1_555
N3_4 C28_4 1_555 1_555
N4_4 C34_4 1_555 1_555
Zn6 N2_4 1_555 1_555
C29_4 C30_4 1_555 1_555
C31_4 N1_4 1_555 1_555
C32_4 N2_4 1_555 1_555
C33_4 N1_4 1_555 1_555
C34_4 N3_4 1_555 1_555
C13_4 C14_4 1_555 1_555
C14_4 H7_4 1_555 1_555
C15_4 C14_4 1_555 1_555
C16_4 C15_4 1_555 1_555
C17_4 C16_4 1_555 1_555
H11_4 C20_4 1_555 1_555
C21_4 C20_4 1_555 1_555
H12_4 C21_4 1_555 1_555
C22_4 C13_4 1_555 1_555
C23_4 C13_4 1_555 1_555
O12_2 C23_4 1_555 1_555
O6_4 C23_4 1_555 1_555
C17_4 C22_4 1_555 1_555
C21_4 C22_4 1_555 1_555
C35_4 H21_4 1_555 1_555
C36_4 C35_4 1_555 1_555
H22_4 C36_4 1_555 1_555

#END
