
###############################################################################
#
# This file contains modified crystal structure data generated from the
# MOF subset of the Cambridge Structural Database (CSD) v543 
# hosted by the Cambridge Crystallographic Data Centre (CCDC).
#
# This work is licensed under the Creative Commons
# Attribution-NonCommercial-ShareAlike 4.0 International License.
# To view a copy of this license, visit
# http://creativecommons.org/licenses/by-nc-sa/4.0/
# or send a letter to
# Creative Commons, PO Box 1866, Mountain View, CA 94042, USA.
#
# CIF created using the CSD Python API on 29 September 2022
# The structure has been converted into the P1 space group
# The structure has a 3D framework
# The original CSD entry YATLEN is in the hexagonal crystal system
# The framework has been calculated to contain at least 10.0% void space
# The void calculation uses a probe of radius 1.32A, grid spacing 0.4
#
###############################################################################

data_YATLEN
_chemical_formula_moiety         '(C120 H72 Fe12 N12 O48)n'
_symmetry_cell_setting           triclinic
_symmetry_space_group_name_H-M   'P 1'
_symmetry_Int_Tables_number      1
_space_group_name_Hall           'P 1'
loop_
_symmetry_equiv_pos_site_id
_symmetry_equiv_pos_as_xyz
1 x,y,z
_cell_length_a                   24.644(2)
_cell_length_b                   24.644(2)
_cell_length_c                   7.1068(6)
_cell_angle_alpha                90
_cell_angle_beta                 90
_cell_angle_gamma                120
_cell_volume                     3737.9
loop_
_atom_site_label
_atom_site_type_symbol
_atom_site_fract_x
_atom_site_fract_y
_atom_site_fract_z
Fe4 Fe 0.58956(4) 0.06247(4) 0.000000
O5 O 0.40585(18) 0.01899(17) 0.000000
Fe4_2 Fe 0.58956(4) 0.06247(4) 1.000000
O5_2 O 0.40585(18) 0.01899(17) 1.000000
Fe1 Fe 0.41044(4) 0.93753(4) 0.000000
O1 O 0.49048(18) 0.93317(17) 0.000000
O2 O 0.59415(18) 0.98101(17) 0.000000
O3 O 0.47963(17) 0.64447(18) 0.000000
O4 O 0.58281(17) 0.69235(17) 0.000000
C1 C 0.5404(3) 0.9320(3) 0.000000
C2 C 0.5387(3) 0.8704(2) 0.000000
C3 C 0.5931(3) 0.8682(3) 0.000000
H1 H 0.632215 0.906146 0.000000
C4 C 0.5921(3) 0.8113(3) 0.000000
H2 H 0.630108 0.810202 0.000000
C5 C 0.5340(3) 0.7553(3) 0.000000
C6 C 0.4805(3) 0.7591(3) 0.000000
H3 H 0.441392 0.721143 0.000000
C7 C 0.4804(3) 0.8148(3) 0.000000
H4 H 0.442262 0.815684 0.000000
C8 C 0.5332(3) 0.6951(3) 0.000000
Fe3 Fe 0.52709(6) 0.58956(4) 0.000000
O6 O 0.35553(18) 0.83516(25) 0.000000
O7 O 0.30765(17) 0.89046(24) 0.000000
N3 N 0.41172(15) 0.93906(14) 0.3040(4)
Fe1_2 Fe 0.41044(4) 0.93753(4) 1.000000
O1_2 O 0.49048(18) 0.93317(17) 1.000000
O2_2 O 0.59415(18) 0.98101(17) 1.000000
O3_2 O 0.47963(17) 0.64447(18) 1.000000
O4_2 O 0.58281(17) 0.69235(17) 1.000000
N1 N 0.41172(15) 0.93906(14) 0.6960(4)
C1_2 C 0.5404(3) 0.9320(3) 1.000000
C2_2 C 0.5387(3) 0.8704(2) 1.000000
C3_2 C 0.5931(3) 0.8682(3) 1.000000
H1_2 H 0.632215 0.906146 1.000000
C4_2 C 0.5921(3) 0.8113(3) 1.000000
H2_2 H 0.630108 0.810202 1.000000
C5_2 C 0.5340(3) 0.7553(3) 1.000000
C6_2 C 0.4805(3) 0.7591(3) 1.000000
H3_2 H 0.441392 0.721143 1.000000
C7_2 C 0.4804(3) 0.8148(3) 1.000000
H4_2 H 0.442262 0.815684 1.000000
C8_2 C 0.5332(3) 0.6951(3) 1.000000
C9 C 0.4345(2) 0.90887(19) 0.5971(6)
H5 H 0.451141 0.886768 0.662118
C10 C 0.38902(19) 0.9693(2) 0.5965(6)
H6 H 0.372377 0.991410 0.661357
C11 C 0.4345(2) 0.90887(19) 0.4029(6)
H7 H 0.451141 0.886768 0.337882
C12 C 0.38902(19) 0.9693(2) 0.4035(6)
H8 H 0.372377 0.991410 0.338643
Fe3_2 Fe 0.52709(6) 0.58956(4) 1.000000
O6_2 O 0.35553(18) 0.83516(25) 1.000000
O7_2 O 0.30765(17) 0.89046(24) 1.000000
Fe1_3 Fe 0.06247(4) 0.47291(6) 0.000000
O1_3 O 0.06683(17) 0.55731(25) 0.000000
O2_3 O 0.01899(17) 0.61314(25) 0.000000
C1_3 C 0.0680(3) 0.6084(4) 0.000000
C2_3 C 0.1296(2) 0.6683(4) 0.000000
C3_3 C 0.1318(3) 0.7249(4) 0.000000
H1_3 H 0.093854 0.726069 0.000000
C4_3 C 0.1887(3) 0.7808(4) 0.000000
H2_3 H 0.189798 0.819906 0.000000
C5_3 C 0.2447(3) 0.7787(4) 0.000000
C6_3 C 0.2409(3) 0.7214(4) 0.000000
H3_3 H 0.278857 0.720249 0.000000
C7_3 C 0.1852(3) 0.6656(4) 0.000000
H4_3 H 0.184316 0.626578 0.000000
C8_3 C 0.3049(3) 0.8381(4) 0.000000
O6_3 O 0.16484(25) 0.52037(31) 0.000000
O7_3 O 0.10954(24) 0.41719(29) 0.000000
N3_2 N 0.06094(14) 0.47266(21) 0.3040(4)
Fe1_4 Fe 0.06247(4) 0.47291(6) 1.000000
O1_4 O 0.06683(17) 0.55731(25) 1.000000
O2_4 O 0.01899(17) 0.61314(25) 1.000000
N1_2 N 0.06094(14) 0.47266(21) 0.6960(4)
C1_4 C 0.0680(3) 0.6084(4) 1.000000
C2_4 C 0.1296(2) 0.6683(4) 1.000000
C3_4 C 0.1318(3) 0.7249(4) 1.000000
H1_4 H 0.093854 0.726069 1.000000
C4_4 C 0.1887(3) 0.7808(4) 1.000000
H2_4 H 0.189798 0.819906 1.000000
C5_4 C 0.2447(3) 0.7787(4) 1.000000
C6_4 C 0.2409(3) 0.7214(4) 1.000000
H3_4 H 0.278857 0.720249 1.000000
C7_4 C 0.1852(3) 0.6656(4) 1.000000
H4_4 H 0.184316 0.626578 1.000000
C8_4 C 0.3049(3) 0.8381(4) 1.000000
C9_2 C 0.09113(19) 0.52563(28) 0.5971(6)
H5_2 H 0.113232 0.564373 0.662118
C10_2 C 0.0307(2) 0.41972(28) 0.5965(6)
H6_2 H 0.008590 0.380967 0.661357
C11_2 C 0.09113(19) 0.52563(28) 0.4029(6)
H7_2 H 0.113232 0.564373 0.337882
C12_2 C 0.0307(2) 0.41972(28) 0.4035(6)
H8_2 H 0.008590 0.380967 0.338643
O6_4 O 0.16484(25) 0.52037(31) 1.000000
O7_4 O 0.10954(24) 0.41719(29) 1.000000
Fe4_3 Fe 0.93753(4) 0.52709(6) 0.000000
O5_3 O 0.98101(17) 0.38686(25) 0.000000
Fe4_4 Fe 0.93753(4) 0.52709(6) 1.000000
O5_4 O 0.98101(17) 0.38686(25) 1.000000
O1_5 O 0.44269(25) 0.50952(18) 0.000000
O2_5 O 0.38686(25) 0.40585(18) 0.000000
C1_5 C 0.3916(4) 0.4596(3) 0.000000
C2_5 C 0.3317(4) 0.4613(3) 0.000000
C3_5 C 0.2751(4) 0.4069(3) 0.000000
H1_5 H 0.273931 0.367785 0.000000
C4_5 C 0.2192(4) 0.4079(3) 0.000000
H2_5 H 0.180094 0.369892 0.000000
C5_5 C 0.2213(4) 0.4660(3) 0.000000
C6_5 C 0.2786(4) 0.5195(3) 0.000000
H3_5 H 0.279751 0.558608 0.000000
C7_5 C 0.3344(4) 0.5196(3) 0.000000
H4_5 H 0.373422 0.557738 0.000000
C8_5 C 0.1619(4) 0.4668(3) 0.000000
Fe4_5 Fe 0.47291(6) 0.41044(4) 0.000000
O5_5 O 0.61314(25) 0.59415(18) 0.000000
N3_3 N 0.52734(21) 0.58828(15) 0.3040(4)
O1_6 O 0.44269(25) 0.50952(18) 1.000000
O2_6 O 0.38686(25) 0.40585(18) 1.000000
N1_3 N 0.52734(21) 0.58828(15) 0.6960(4)
C1_6 C 0.3916(4) 0.4596(3) 1.000000
C2_6 C 0.3317(4) 0.4613(3) 1.000000
C3_6 C 0.2751(4) 0.4069(3) 1.000000
H1_6 H 0.273931 0.367785 1.000000
C4_6 C 0.2192(4) 0.4079(3) 1.000000
H2_6 H 0.180094 0.369892 1.000000
C5_6 C 0.2213(4) 0.4660(3) 1.000000
C6_6 C 0.2786(4) 0.5195(3) 1.000000
H3_6 H 0.279751 0.558608 1.000000
C7_6 C 0.3344(4) 0.5196(3) 1.000000
H4_6 H 0.373422 0.557738 1.000000
C8_6 C 0.1619(4) 0.4668(3) 1.000000
C9_3 C 0.47437(28) 0.5655(2) 0.5971(6)
H5_3 H 0.435627 0.548859 0.662118
C10_3 C 0.58028(28) 0.61098(19) 0.5965(6)
H6_3 H 0.619033 0.627623 0.661357
C11_3 C 0.47437(28) 0.5655(2) 0.4029(6)
H7_3 H 0.435627 0.548859 0.337882
C12_3 C 0.58028(28) 0.61098(19) 0.4035(6)
H8_3 H 0.619033 0.627623 0.338643
Fe4_6 Fe 0.47291(6) 0.41044(4) 1.000000
O5_6 O 0.61314(25) 0.59415(18) 1.000000
O1_7 O 0.50952(18) 0.06683(17) 0.000000
O3_3 O 0.52037(17) 0.35553(18) 0.000000
O4_3 O 0.41719(17) 0.30765(17) 0.000000
C1_7 C 0.4596(3) 0.0680(3) 0.000000
C2_7 C 0.4613(3) 0.1296(2) 0.000000
C3_7 C 0.4069(3) 0.1318(3) 0.000000
H1_7 H 0.367785 0.093854 0.000000
C4_7 C 0.4079(3) 0.1887(3) 0.000000
H2_7 H 0.369892 0.189798 0.000000
C5_7 C 0.4660(3) 0.2447(3) 0.000000
C6_7 C 0.5195(3) 0.2409(3) 0.000000
H3_7 H 0.558608 0.278857 0.000000
C7_7 C 0.5196(3) 0.1852(3) 0.000000
H4_7 H 0.557738 0.184316 0.000000
C8_7 C 0.4668(3) 0.3049(3) 0.000000
O6_5 O 0.64447(18) 0.16484(25) 0.000000
O7_5 O 0.69235(17) 0.10954(24) 0.000000
N3_4 N 0.58828(15) 0.06094(14) 0.3040(4)
O1_8 O 0.50952(18) 0.06683(17) 1.000000
O3_4 O 0.52037(17) 0.35553(18) 1.000000
O4_4 O 0.41719(17) 0.30765(17) 1.000000
N1_4 N 0.58828(15) 0.06094(14) 0.6960(4)
C1_8 C 0.4596(3) 0.0680(3) 1.000000
C2_8 C 0.4613(3) 0.1296(2) 1.000000
C3_8 C 0.4069(3) 0.1318(3) 1.000000
H1_8 H 0.367785 0.093854 1.000000
C4_8 C 0.4079(3) 0.1887(3) 1.000000
H2_8 H 0.369892 0.189798 1.000000
C5_8 C 0.4660(3) 0.2447(3) 1.000000
C6_8 C 0.5195(3) 0.2409(3) 1.000000
H3_8 H 0.558608 0.278857 1.000000
C7_8 C 0.5196(3) 0.1852(3) 1.000000
H4_8 H 0.557738 0.184316 1.000000
C8_8 C 0.4668(3) 0.3049(3) 1.000000
C9_4 C 0.5655(2) 0.09113(19) 0.5971(6)
H5_4 H 0.548859 0.113232 0.662118
C10_4 C 0.61098(19) 0.0307(2) 0.5965(6)
H6_4 H 0.627623 0.008590 0.661357
C11_4 C 0.5655(2) 0.09113(19) 0.4029(6)
H7_4 H 0.548859 0.113232 0.337882
C12_4 C 0.61098(19) 0.0307(2) 0.4035(6)
H8_4 H 0.627623 0.008590 0.338643
O6_6 O 0.64447(18) 0.16484(25) 1.000000
O7_6 O 0.69235(17) 0.10954(24) 1.000000
O1_9 O 0.93317(17) 0.44269(25) 0.000000
C1_9 C 0.9320(3) 0.3916(4) 0.000000
C2_9 C 0.8704(2) 0.3317(4) 0.000000
C3_9 C 0.8682(3) 0.2751(4) 0.000000
H1_9 H 0.906146 0.273931 0.000000
C4_9 C 0.8113(3) 0.2192(4) 0.000000
H2_9 H 0.810202 0.180094 0.000000
C5_9 C 0.7553(3) 0.2213(4) 0.000000
C6_9 C 0.7591(3) 0.2786(4) 0.000000
H3_9 H 0.721143 0.279751 0.000000
C7_9 C 0.8148(3) 0.3344(4) 0.000000
H4_9 H 0.815684 0.373422 0.000000
C8_9 C 0.6951(3) 0.1619(4) 0.000000
O6_7 O 0.83516(25) 0.47963(31) 0.000000
O7_7 O 0.89046(24) 0.58281(29) 0.000000
N3_5 N 0.93906(14) 0.52734(21) 0.3040(4)
O1_10 O 0.93317(17) 0.44269(25) 1.000000
N1_5 N 0.93906(14) 0.52734(21) 0.6960(4)
C1_10 C 0.9320(3) 0.3916(4) 1.000000
C2_10 C 0.8704(2) 0.3317(4) 1.000000
C3_10 C 0.8682(3) 0.2751(4) 1.000000
H1_10 H 0.906146 0.273931 1.000000
C4_10 C 0.8113(3) 0.2192(4) 1.000000
H2_10 H 0.810202 0.180094 1.000000
C5_10 C 0.7553(3) 0.2213(4) 1.000000
C6_10 C 0.7591(3) 0.2786(4) 1.000000
H3_10 H 0.721143 0.279751 1.000000
C7_10 C 0.8148(3) 0.3344(4) 1.000000
H4_10 H 0.815684 0.373422 1.000000
C8_10 C 0.6951(3) 0.1619(4) 1.000000
C9_5 C 0.90887(19) 0.47437(28) 0.5971(6)
H5_5 H 0.886768 0.435627 0.662118
C10_5 C 0.9693(2) 0.58028(28) 0.5965(6)
H6_5 H 0.991410 0.619033 0.661357
C11_5 C 0.90887(19) 0.47437(28) 0.4029(6)
H7_5 H 0.886768 0.435627 0.337882
C12_5 C 0.9693(2) 0.58028(28) 0.4035(6)
H8_5 H 0.991410 0.619033 0.338643
O6_8 O 0.83516(25) 0.47963(31) 1.000000
O7_8 O 0.89046(24) 0.58281(29) 1.000000
O1_11 O 0.55731(25) 0.49048(18) 0.000000
C1_11 C 0.6084(4) 0.5404(3) 0.000000
C2_11 C 0.6683(4) 0.5387(3) 0.000000
C3_11 C 0.7249(4) 0.5931(3) 0.000000
H1_11 H 0.726069 0.632215 0.000000
C4_11 C 0.7808(4) 0.5921(3) 0.000000
H2_11 H 0.819906 0.630108 0.000000
C5_11 C 0.7787(4) 0.5340(3) 0.000000
C6_11 C 0.7214(4) 0.4805(3) 0.000000
H3_11 H 0.720249 0.441392 0.000000
C7_11 C 0.6656(4) 0.4804(3) 0.000000
H4_11 H 0.626578 0.442262 0.000000
C8_11 C 0.8381(4) 0.5332(3) 0.000000
N3_6 N 0.47266(21) 0.41172(15) 0.3040(4)
O1_12 O 0.55731(25) 0.49048(18) 1.000000
N1_6 N 0.47266(21) 0.41172(15) 0.6960(4)
C1_12 C 0.6084(4) 0.5404(3) 1.000000
C2_12 C 0.6683(4) 0.5387(3) 1.000000
C3_12 C 0.7249(4) 0.5931(3) 1.000000
H1_12 H 0.726069 0.632215 1.000000
C4_12 C 0.7808(4) 0.5921(3) 1.000000
H2_12 H 0.819906 0.630108 1.000000
C5_12 C 0.7787(4) 0.5340(3) 1.000000
C6_12 C 0.7214(4) 0.4805(3) 1.000000
H3_12 H 0.720249 0.441392 1.000000
C7_12 C 0.6656(4) 0.4804(3) 1.000000
H4_12 H 0.626578 0.442262 1.000000
C8_12 C 0.8381(4) 0.5332(3) 1.000000
C9_6 C 0.52563(28) 0.4345(2) 0.5971(6)
H5_6 H 0.564373 0.451141 0.662118
C10_6 C 0.41972(28) 0.38902(19) 0.5965(6)
H6_6 H 0.380967 0.372377 0.661357
C11_6 C 0.52563(28) 0.4345(2) 0.4029(6)
H7_6 H 0.564373 0.451141 0.337882
C12_6 C 0.41972(28) 0.38902(19) 0.4035(6)
H8_6 H 0.380967 0.372377 0.338643
loop_
_geom_bond_atom_site_label_1
_geom_bond_atom_site_label_2
_geom_bond_site_symmetry_1
_geom_bond_site_symmetry_2
Fe1 O1 1_555 1_555
O1 C1 1_555 1_555
O2 C1 1_555 1_555
O3 C8 1_555 1_555
O4 C8 1_555 1_555
C1 C2 1_555 1_555
C2 C3 1_555 1_555
C3 H1 1_555 1_555
C4 C3 1_555 1_555
H2 C4 1_555 1_555
C5 C4 1_555 1_555
C6 C5 1_555 1_555
H3 C6 1_555 1_555
C7 C2 1_555 1_555
H4 C7 1_555 1_555
C8 C5 1_555 1_555
Fe3 O3 1_555 1_555
O6 Fe1 1_555 1_555
O7 Fe1 1_555 1_555
N3 Fe1 1_555 1_555
O4 Fe3 1_555 1_555
C6 C7 1_555 1_555
Fe1_2 O1_2 1_555 1_555
O1_2 C1_2 1_555 1_555
O2_2 C1_2 1_555 1_555
O3_2 C8_2 1_555 1_555
O4_2 C8_2 1_555 1_555
N1 Fe1_2 1_555 1_555
C1_2 C2_2 1_555 1_555
C2_2 C3_2 1_555 1_555
C3_2 H1_2 1_555 1_555
C4_2 C3_2 1_555 1_555
H2_2 C4_2 1_555 1_555
C5_2 C4_2 1_555 1_555
C6_2 C5_2 1_555 1_555
H3_2 C6_2 1_555 1_555
C7_2 C2_2 1_555 1_555
H4_2 C7_2 1_555 1_555
C8_2 C5_2 1_555 1_555
C9 N1 1_555 1_555
H5 C9 1_555 1_555
C10 N1 1_555 1_555
H6 C10 1_555 1_555
N3 C11 1_555 1_555
C11 C9 1_555 1_555
H7 C11 1_555 1_555
C12 C10 1_555 1_555
H8 C12 1_555 1_555
Fe3_2 O3_2 1_555 1_555
O6_2 Fe1_2 1_555 1_555
O7_2 Fe1_2 1_555 1_555
O4_2 Fe3_2 1_555 1_555
C6_2 C7_2 1_555 1_555
N3 C12 1_555 1_555
Fe1_3 O1_3 1_555 1_555
O1_3 C1_3 1_555 1_555
O2_3 C1_3 1_555 1_555
O6 C8_3 1_555 1_555
O7 C8_3 1_555 1_555
C1_3 C2_3 1_555 1_555
C2_3 C3_3 1_555 1_555
C3_3 H1_3 1_555 1_555
C4_3 C3_3 1_555 1_555
H2_3 C4_3 1_555 1_555
C5_3 C4_3 1_555 1_555
C6_3 C5_3 1_555 1_555
H3_3 C6_3 1_555 1_555
C7_3 C2_3 1_555 1_555
H4_3 C7_3 1_555 1_555
C8_3 C5_3 1_555 1_555
O6_3 Fe1_3 1_555 1_555
O7_3 Fe1_3 1_555 1_555
N3_2 Fe1_3 1_555 1_555
C6_3 C7_3 1_555 1_555
Fe1_4 O1_4 1_555 1_555
O1_4 C1_4 1_555 1_555
O2_4 C1_4 1_555 1_555
O6_2 C8_4 1_555 1_555
O7_2 C8_4 1_555 1_555
N1_2 Fe1_4 1_555 1_555
C1_4 C2_4 1_555 1_555
C2_4 C3_4 1_555 1_555
C3_4 H1_4 1_555 1_555
C4_4 C3_4 1_555 1_555
H2_4 C4_4 1_555 1_555
C5_4 C4_4 1_555 1_555
C6_4 C5_4 1_555 1_555
H3_4 C6_4 1_555 1_555
C7_4 C2_4 1_555 1_555
H4_4 C7_4 1_555 1_555
C8_4 C5_4 1_555 1_555
C9_2 N1_2 1_555 1_555
H5_2 C9_2 1_555 1_555
C10_2 N1_2 1_555 1_555
H6_2 C10_2 1_555 1_555
N3_2 C11_2 1_555 1_555
C11_2 C9_2 1_555 1_555
H7_2 C11_2 1_555 1_555
C12_2 C10_2 1_555 1_555
H8_2 C12_2 1_555 1_555
O6_4 Fe1_4 1_555 1_555
O7_4 Fe1_4 1_555 1_555
C6_4 C7_4 1_555 1_555
N3_2 C12_2 1_555 1_555
Fe3 O1_5 1_555 1_555
O1_5 C1_5 1_555 1_555
O2_5 C1_5 1_555 1_555
O6_3 C8_5 1_555 1_555
O7_3 C8_5 1_555 1_555
C1_5 C2_5 1_555 1_555
C2_5 C3_5 1_555 1_555
C3_5 H1_5 1_555 1_555
C4_5 C3_5 1_555 1_555
H2_5 C4_5 1_555 1_555
C5_5 C4_5 1_555 1_555
C6_5 C5_5 1_555 1_555
H3_5 C6_5 1_555 1_555
C7_5 C2_5 1_555 1_555
H4_5 C7_5 1_555 1_555
C8_5 C5_5 1_555 1_555
Fe4_5 O2_5 1_555 1_555
O5_5 Fe3 1_555 1_555
N3_3 Fe3 1_555 1_555
C6_5 C7_5 1_555 1_555
Fe3_2 O1_6 1_555 1_555
O1_6 C1_6 1_555 1_555
O2_6 C1_6 1_555 1_555
O6_4 C8_6 1_555 1_555
O7_4 C8_6 1_555 1_555
N1_3 Fe3_2 1_555 1_555
C1_6 C2_6 1_555 1_555
C2_6 C3_6 1_555 1_555
C3_6 H1_6 1_555 1_555
C4_6 C3_6 1_555 1_555
H2_6 C4_6 1_555 1_555
C5_6 C4_6 1_555 1_555
C6_6 C5_6 1_555 1_555
H3_6 C6_6 1_555 1_555
C7_6 C2_6 1_555 1_555
H4_6 C7_6 1_555 1_555
C8_6 C5_6 1_555 1_555
C9_3 N1_3 1_555 1_555
H5_3 C9_3 1_555 1_555
C10_3 N1_3 1_555 1_555
H6_3 C10_3 1_555 1_555
N3_3 C11_3 1_555 1_555
C11_3 C9_3 1_555 1_555
H7_3 C11_3 1_555 1_555
C12_3 C10_3 1_555 1_555
H8_3 C12_3 1_555 1_555
Fe4_6 O2_6 1_555 1_555
O5_6 Fe3_2 1_555 1_555
C6_6 C7_6 1_555 1_555
N3_3 C12_3 1_555 1_555
Fe4 O1_7 1_555 1_555
O1_7 C1_7 1_555 1_555
O5 C1_7 1_555 1_555
O3_3 C8_7 1_555 1_555
O4_3 C8_7 1_555 1_555
C1_7 C2_7 1_555 1_555
C2_7 C3_7 1_555 1_555
C3_7 H1_7 1_555 1_555
C4_7 C3_7 1_555 1_555
H2_7 C4_7 1_555 1_555
C5_7 C4_7 1_555 1_555
C6_7 C5_7 1_555 1_555
H3_7 C6_7 1_555 1_555
C7_7 C2_7 1_555 1_555
H4_7 C7_7 1_555 1_555
C8_7 C5_7 1_555 1_555
Fe4_5 O3_3 1_555 1_555
O6_5 Fe4 1_555 1_555
O7_5 Fe4 1_555 1_555
N3_4 Fe4 1_555 1_555
O4_3 Fe4_5 1_555 1_555
C6_7 C7_7 1_555 1_555
Fe4_2 O1_8 1_555 1_555
O1_8 C1_8 1_555 1_555
O5_2 C1_8 1_555 1_555
O3_4 C8_8 1_555 1_555
O4_4 C8_8 1_555 1_555
N1_4 Fe4_2 1_555 1_555
C1_8 C2_8 1_555 1_555
C2_8 C3_8 1_555 1_555
C3_8 H1_8 1_555 1_555
C4_8 C3_8 1_555 1_555
H2_8 C4_8 1_555 1_555
C5_8 C4_8 1_555 1_555
C6_8 C5_8 1_555 1_555
H3_8 C6_8 1_555 1_555
C7_8 C2_8 1_555 1_555
H4_8 C7_8 1_555 1_555
C8_8 C5_8 1_555 1_555
C9_4 N1_4 1_555 1_555
H5_4 C9_4 1_555 1_555
C10_4 N1_4 1_555 1_555
H6_4 C10_4 1_555 1_555
N3_4 C11_4 1_555 1_555
C11_4 C9_4 1_555 1_555
H7_4 C11_4 1_555 1_555
C12_4 C10_4 1_555 1_555
H8_4 C12_4 1_555 1_555
Fe4_6 O3_4 1_555 1_555
O6_6 Fe4_2 1_555 1_555
O7_6 Fe4_2 1_555 1_555
O4_4 Fe4_6 1_555 1_555
C6_8 C7_8 1_555 1_555
N3_4 C12_4 1_555 1_555
Fe4_3 O1_9 1_555 1_555
O1_9 C1_9 1_555 1_555
O5_3 C1_9 1_555 1_555
O6_5 C8_9 1_555 1_555
O7_5 C8_9 1_555 1_555
C1_9 C2_9 1_555 1_555
C2_9 C3_9 1_555 1_555
C3_9 H1_9 1_555 1_555
C4_9 C3_9 1_555 1_555
H2_9 C4_9 1_555 1_555
C5_9 C4_9 1_555 1_555
C6_9 C5_9 1_555 1_555
H3_9 C6_9 1_555 1_555
C7_9 C2_9 1_555 1_555
H4_9 C7_9 1_555 1_555
C8_9 C5_9 1_555 1_555
O6_7 Fe4_3 1_555 1_555
O7_7 Fe4_3 1_555 1_555
N3_5 Fe4_3 1_555 1_555
C6_9 C7_9 1_555 1_555
Fe4_4 O1_10 1_555 1_555
O1_10 C1_10 1_555 1_555
O5_4 C1_10 1_555 1_555
O6_6 C8_10 1_555 1_555
O7_6 C8_10 1_555 1_555
N1_5 Fe4_4 1_555 1_555
C1_10 C2_10 1_555 1_555
C2_10 C3_10 1_555 1_555
C3_10 H1_10 1_555 1_555
C4_10 C3_10 1_555 1_555
H2_10 C4_10 1_555 1_555
C5_10 C4_10 1_555 1_555
C6_10 C5_10 1_555 1_555
H3_10 C6_10 1_555 1_555
C7_10 C2_10 1_555 1_555
H4_10 C7_10 1_555 1_555
C8_10 C5_10 1_555 1_555
C9_5 N1_5 1_555 1_555
H5_5 C9_5 1_555 1_555
C10_5 N1_5 1_555 1_555
H6_5 C10_5 1_555 1_555
N3_5 C11_5 1_555 1_555
C11_5 C9_5 1_555 1_555
H7_5 C11_5 1_555 1_555
C12_5 C10_5 1_555 1_555
H8_5 C12_5 1_555 1_555
O6_8 Fe4_4 1_555 1_555
O7_8 Fe4_4 1_555 1_555
C6_10 C7_10 1_555 1_555
N3_5 C12_5 1_555 1_555
Fe4_5 O1_11 1_555 1_555
O1_11 C1_11 1_555 1_555
O5_5 C1_11 1_555 1_555
O6_7 C8_11 1_555 1_555
O7_7 C8_11 1_555 1_555
C1_11 C2_11 1_555 1_555
C2_11 C3_11 1_555 1_555
C3_11 H1_11 1_555 1_555
C4_11 C3_11 1_555 1_555
H2_11 C4_11 1_555 1_555
C5_11 C4_11 1_555 1_555
C6_11 C5_11 1_555 1_555
H3_11 C6_11 1_555 1_555
C7_11 C2_11 1_555 1_555
H4_11 C7_11 1_555 1_555
C8_11 C5_11 1_555 1_555
N3_6 Fe4_5 1_555 1_555
C6_11 C7_11 1_555 1_555
Fe4_6 O1_12 1_555 1_555
O1_12 C1_12 1_555 1_555
O5_6 C1_12 1_555 1_555
O6_8 C8_12 1_555 1_555
O7_8 C8_12 1_555 1_555
N1_6 Fe4_6 1_555 1_555
C1_12 C2_12 1_555 1_555
C2_12 C3_12 1_555 1_555
C3_12 H1_12 1_555 1_555
C4_12 C3_12 1_555 1_555
H2_12 C4_12 1_555 1_555
C5_12 C4_12 1_555 1_555
C6_12 C5_12 1_555 1_555
H3_12 C6_12 1_555 1_555
C7_12 C2_12 1_555 1_555
H4_12 C7_12 1_555 1_555
C8_12 C5_12 1_555 1_555
C9_6 N1_6 1_555 1_555
H5_6 C9_6 1_555 1_555
C10_6 N1_6 1_555 1_555
H6_6 C10_6 1_555 1_555
N3_6 C11_6 1_555 1_555
C11_6 C9_6 1_555 1_555
H7_6 C11_6 1_555 1_555
C12_6 C10_6 1_555 1_555
H8_6 C12_6 1_555 1_555
C6_12 C7_12 1_555 1_555
N3_6 C12_6 1_555 1_555

#END
