
###############################################################################
#
# This file contains modified crystal structure data generated from the
# MOF subset of the Cambridge Structural Database (CSD) v543 
# hosted by the Cambridge Crystallographic Data Centre (CCDC).
#
# This work is licensed under the Creative Commons
# Attribution-NonCommercial-ShareAlike 4.0 International License.
# To view a copy of this license, visit
# http://creativecommons.org/licenses/by-nc-sa/4.0/
# or send a letter to
# Creative Commons, PO Box 1866, Mountain View, CA 94042, USA.
#
# CIF created using the CSD Python API on 29 September 2022
# The structure has been converted into the P1 space group
# The structure has a 3D framework
# The original CSD entry YAVVID is in the monoclinic crystal system
# The framework has been calculated to contain at least 10.0% void space
# The void calculation uses a probe of radius 1.32A, grid spacing 0.4
#
###############################################################################

data_YAVVID
_chemical_formula_moiety         '(C68 H70 Gd4 N12 O32)n'
_symmetry_cell_setting           triclinic
_symmetry_space_group_name_H-M   'P 1'
_symmetry_Int_Tables_number      1
_space_group_name_Hall           'P 1'
loop_
_symmetry_equiv_pos_site_id
_symmetry_equiv_pos_as_xyz
1 x,y,z
_cell_length_a                   8.8181(2)
_cell_length_b                   8.78790(10)
_cell_length_c                   27.5387(4)
_cell_angle_alpha                90
_cell_angle_beta                 102.1830(10)
_cell_angle_gamma                90
_cell_volume                     2085.98
loop_
_atom_site_label
_atom_site_type_symbol
_atom_site_fract_x
_atom_site_fract_y
_atom_site_fract_z
C1 C 0.5599(4) 0.2529(3) 0.66486(10)
C2 C 0.5838(4) 0.2729(3) 0.61349(11)
C3 C 0.5372(4) 0.1595(4) 0.57871(11)
H1 H 0.4881 0.0732 0.5875
C4 C 0.5630(4) 0.1732(4) 0.53088(11)
C5 C 0.6322(5) 0.3043(5) 0.51786(13)
H2 H 0.6473 0.3153 0.4856
C6 C 0.6787(6) 0.4177(5) 0.55177(15)
H3 H 0.7258 0.5047 0.5425
C7 C 0.6558(5) 0.4035(4) 0.59968(13)
C8 C 0.3425(3) 0.6873(3) 0.67507(10)
C9 C 0.2571(4) 0.5649(3) 0.64393(11)
C10 C 0.2364(4) 0.4167(3) 0.66178(11)
C11 C 0.1549(4) 0.3108(4) 0.62769(11)
H4 H 0.1436 0.2119 0.6384
C12 C 0.0919(4) 0.3474(4) 0.57955(12)
H5 H 0.0400 0.2738 0.5580
C13 C 0.1054(4) 0.4961(4) 0.56243(10)
C14 C 0.1891(4) 0.6006(3) 0.59450(11)
H6 H 0.2010 0.6984 0.5830
C15 C 0.3053(4) 0.3474(4) 0.85461(13)
H7 H 0.3953 0.3135 0.8758
C16 C 0.1846(6) 0.3369(6) 0.92549(16)
H8 H 0.2844 0.2985 0.9417
H9 H 0.1065 0.2622 0.9273
H10 H 0.1628 0.4286 0.9417
C17 C 0.0457(8) 0.4271(10) 0.8442(3)
H11 H 0.0679 0.5172 0.8273
H13 H -0.0001 0.3519 0.8203
Gd1 Gd 0.503854(15) 0.438285(14) 0.766810(4)
H14 H 0.670(4) 0.500(5) 0.6579(9)
H15 H 0.753(4) 0.6661(16) 0.7763(14)
H16 H 0.812(4) 0.567(4) 0.7529(14)
N1 N 0.5242(4) 0.0612(3) 0.49315(11)
N2 N 0.0378(3) 0.5491(3) 0.51422(10)
N3 N 0.1850(4) 0.3691(4) 0.87361(11)
O1 O 0.3107(3) 0.3679(3) 0.81080(9)
O2 O 0.4994(3) 0.1324(2) 0.67557(7)
O3 O 0.7435(3) 0.5721(2) 0.77004(9)
O4 O 0.3351(3) 0.8213(2) 0.65927(7)
O5 O 0.6013(3) 0.3620(2) 0.69562(8)
O6 O 0.2837(2) 0.3767(2) 0.70875(7)
O7 O 0.4260(2) 0.6594(2) 0.71798(7)
O8 O 0.7050(4) 0.5170(3) 0.63210(10)
H29 H 0.0251 0.5485 0.1348
H30 H 0.0001 0.6481 0.1797
Gd4 Gd 0.496146(15) 0.938285(14) 0.733190(4)
Gd7 Gd 0.503854(15) 0.061715(14) 0.266810(4)
O17 O 0.5006(3) 0.6324(2) 0.82443(7)
O19 O 0.6649(3) 0.3213(2) 0.84073(7)
O22 O 0.5740(2) 0.1594(2) 0.78202(7)
C18 C 0.4401(4) 0.7471(3) 0.33514(10)
C19 C 0.4162(4) 0.7271(3) 0.38651(11)
C20 C 0.4628(4) 0.8405(4) 0.42129(11)
H17 H 0.5119 0.9268 0.4125
C21 C 0.4370(4) 0.8268(4) 0.46912(11)
C22 C 0.3678(5) 0.6957(5) 0.48214(13)
H18 H 0.3527 0.6847 0.5144
C23 C 0.3213(6) 0.5823(5) 0.44823(15)
H19 H 0.2742 0.4953 0.4575
C24 C 0.3442(5) 0.5965(4) 0.40032(13)
H20 H 0.330(4) 0.500(5) 0.3421(9)
N4 N 0.4758(4) 0.9388(3) 0.50685(11)
O9 O 0.5006(3) 0.8676(2) 0.32443(7)
O10 O 0.3987(3) 0.6380(2) 0.30438(8)
O11 O 0.2950(4) 0.4830(3) 0.36790(10)
Gd5 Gd 0.496146(15) 0.561715(14) 0.233190(4)
H12 H 0.9749 0.4515 0.8652
H13_2 H 0.9999 0.3519 0.8203
C25 C 0.6575(3) 0.3127(3) 0.32493(10)
C26 C 0.7429(4) 0.4351(3) 0.35607(11)
C27 C 0.7636(4) 0.5833(3) 0.33822(11)
C28 C 0.8451(4) 0.6892(4) 0.37231(11)
H21 H 0.8564 0.7881 0.3616
C29 C 0.9081(4) 0.6526(4) 0.42045(12)
H22 H 0.9600 0.7262 0.4420
C30 C 0.8946(4) 0.5039(4) 0.43757(10)
C31 C 0.8109(4) 0.3994(3) 0.40550(11)
H23 H 0.7990 0.3016 0.4170
N5 N 0.9622(3) 0.4509(3) 0.48578(10)
O12 O 0.6649(3) 0.1787(2) 0.34073(7)
O13 O 0.7163(2) 0.6233(2) 0.29125(7)
O14 O 0.5740(2) 0.3406(2) 0.28202(7)
C32 C 0.6947(4) 0.6526(4) 0.14539(13)
H24 H 0.6047 0.6865 0.1242
C33 C 0.8154(6) 0.6631(6) 0.07451(16)
H25 H 0.7156 0.7015 0.0583
H26 H 0.8935 0.7378 0.0727
H27 H 0.8372 0.5714 0.0583
C34 C 0.9543(8) 0.5729(10) 0.1558(3)
H28 H 0.9321 0.4828 0.1727
H30_2 H 1.0001 0.6481 0.1797
H31 H 0.247(4) 0.3339(16) 0.2237(14)
H32 H 0.188(4) 0.433(4) 0.2471(14)
N6 N 0.8150(4) 0.6309(4) 0.12639(11)
O15 O 0.6893(3) 0.6321(3) 0.18920(9)
O16 O 0.2565(3) 0.4279(2) 0.22996(9)
O18 O 0.4994(3) 0.3676(2) 0.17557(7)
O20 O 0.3351(3) 0.6787(2) 0.15927(7)
O23 O 0.4260(2) 0.8406(2) 0.21798(7)
C27_2 C 0.2364(4) 0.0833(3) 0.16178(11)
C28_2 C 0.1549(4) 0.1892(4) 0.12769(11)
H21_2 H 0.1436 0.2881 0.1384
C29_2 C 0.0919(4) 0.1526(4) 0.07955(12)
H22_2 H 0.0400 0.2262 0.0580
C30_2 C 0.1054(4) 0.0039(4) 0.06243(10)
O13_2 O 0.2837(2) 0.1233(2) 0.20875(7)
C32_2 C 0.3053(4) 0.1526(4) 0.35461(13)
H24_2 H 0.3953 0.1865 0.3758
C33_2 C 0.1846(6) 0.1631(6) 0.42549(16)
H25_2 H 0.2844 0.2015 0.4417
H26_2 H 0.1065 0.2378 0.4273
H27_2 H 0.1628 0.0714 0.4417
C34_2 C 0.0457(8) 0.0729(10) 0.3442(3)
H30_3 H -0.0001 0.1481 0.3203
N6_2 N 0.1850(4) 0.1309(4) 0.37361(11)
O15_2 O 0.3107(3) 0.1321(3) 0.31080(9)
O21 O 0.6013(3) 0.1380(2) 0.19562(8)
C25_2 C 0.3425(3) 0.8127(3) 0.17507(10)
C26_2 C 0.2571(4) 0.9351(3) 0.14393(11)
C31_2 C 0.1891(4) 0.8994(3) 0.09450(11)
H23_2 H 0.2010 0.8016 0.0830
N5_2 N 0.0378(3) 0.9509(3) 0.01422(10)
H28_2 H 0.0679 0.9828 0.3273
H31_2 H 0.753(4) 0.8339(16) 0.2763(14)
H32_2 H 0.812(4) 0.933(4) 0.2529(14)
O16_2 O 0.7435(3) 0.9279(2) 0.27004(9)
H3_2 H 0.2742 0.0047 0.9575
C8_2 C 0.6575(3) 0.1873(3) 0.82493(10)
C9_2 C 0.7429(4) 0.0649(3) 0.85607(11)
C14_2 C 0.8109(4) 0.1006(3) 0.90550(11)
H6_2 H 0.7990 0.1984 0.9170
H11_2 H 0.9321 0.0172 0.6727
H14_2 H 0.330(4) 0.000(5) 0.8421(9)
H15_2 H 0.247(4) 0.1661(16) 0.7237(14)
H16_2 H 0.188(4) 0.067(4) 0.7471(14)
N2_2 N 0.9622(3) 0.0491(3) 0.98578(10)
O3_2 O 0.2565(3) 0.0721(2) 0.72996(9)
O8_2 O 0.2950(4) 0.0170(3) 0.86790(10)
H2_2 H 0.3527 0.8153 0.0144
N1_2 N 0.4758(4) 0.5612(3) 0.00685(11)
C18_2 C 0.5599(4) 0.2471(3) 0.16486(10)
C19_2 C 0.5838(4) 0.2271(3) 0.11349(11)
C20_2 C 0.5372(4) 0.3405(4) 0.07871(11)
H17_2 H 0.4881 0.4268 0.0875
C21_2 C 0.5630(4) 0.3268(4) 0.03088(11)
C22_2 C 0.6322(5) 0.1957(5) 0.01786(13)
C23_2 C 0.6787(6) 0.0823(5) 0.05177(15)
C24_2 C 0.6558(5) 0.0965(4) 0.09968(13)
H20_2 H 0.670(4) 0.000(5) 0.1579(9)
C1_2 C 0.4401(4) 0.7529(3) 0.83514(10)
C2_2 C 0.4162(4) 0.7729(3) 0.88651(11)
C3_2 C 0.4628(4) 0.6595(4) 0.92129(11)
H1_2 H 0.5119 0.5732 0.9125
C4_2 C 0.4370(4) 0.6732(4) 0.96912(11)
C5_2 C 0.3678(5) 0.8043(5) 0.98214(13)
C6_2 C 0.3213(6) 0.9177(5) 0.94823(15)
C7_2 C 0.3442(5) 0.9035(4) 0.90032(13)
C10_2 C 0.7636(4) 0.9167(3) 0.83822(11)
C11_2 C 0.8451(4) 0.8108(4) 0.87231(11)
H4_2 H 0.8564 0.7119 0.8616
C12_2 C 0.9081(4) 0.8474(4) 0.92045(12)
H5_2 H 0.9600 0.7738 0.9420
C13_2 C 0.8946(4) 0.9961(4) 0.93757(10)
C15_2 C 0.6947(4) 0.8474(4) 0.64539(13)
H7_2 H 0.6047 0.8135 0.6242
C16_2 C 0.8154(6) 0.8369(6) 0.57451(16)
H8_2 H 0.7156 0.7985 0.5583
H9_2 H 0.8935 0.7622 0.5727
H10_2 H 0.8372 0.9286 0.5583
C17_2 C 0.9543(8) 0.9271(10) 0.6558(3)
H13_3 H 1.0001 0.8519 0.6797
H14_3 H 0.330(4) 1.000(5) 0.8421(9)
N3_2 N 0.8150(4) 0.8691(4) 0.62639(11)
O1_2 O 0.6893(3) 0.8679(3) 0.68920(9)
O5_2 O 0.3987(3) 0.8620(2) 0.80438(8)
O6_2 O 0.7163(2) 0.8767(2) 0.79125(7)
H18_2 H 0.6473 0.1847 0.9856
N4_2 N 0.5242(4) 0.4388(3) 0.99315(11)
H19_2 H 0.7258 0.9953 0.0425
H20_3 H 0.670(4) 1.000(5) 0.1579(9)
O11_2 O 0.7050(4) 0.9830(3) 0.13210(10)
H12_2 H 0.0251 0.9515 0.6348
H13_4 H 0.0001 0.8519 0.6797
H29_2 H 0.9749 0.0485 0.3652
H30_4 H 0.9999 0.1481 0.3203
loop_
_geom_bond_atom_site_label_1
_geom_bond_atom_site_label_2
_geom_bond_site_symmetry_1
_geom_bond_site_symmetry_2
C1 C2 1_555 1_555
C2 C3 1_555 1_555
C3 H1 1_555 1_555
C4 C3 1_555 1_555
C5 C4 1_555 1_555
H2 C5 1_555 1_555
C6 C5 1_555 1_555
H3 C6 1_555 1_555
C7 C2 1_555 1_555
C8 C9 1_555 1_555
C9 C10 1_555 1_555
C10 C11 1_555 1_555
C11 H4 1_555 1_555
C12 C11 1_555 1_555
H5 C12 1_555 1_555
C13 C12 1_555 1_555
C14 C9 1_555 1_555
H6 C14 1_555 1_555
C15 H7 1_555 1_555
C16 H8 1_555 1_555
H9 C16 1_555 1_555
H10 C16 1_555 1_555
C17 H11 1_555 1_555
H13 C17 1_555 1_555
Gd1 O1 1_555 1_555
H14 O8 1_555 1_555
H15 O3 1_555 1_555
H16 O3 1_555 1_555
N1 C4 1_555 1_555
N2 C13 1_555 1_555
N3 C15 1_555 1_555
O1 C15 1_555 1_555
O2 C1 1_555 1_555
O3 Gd1 1_555 1_555
O4 C8 1_555 1_555
O5 C1 1_555 1_555
O6 C10 1_555 1_555
O7 C8 1_555 1_555
O8 C7 1_555 1_555
Gd4 O4 1_555 1_555
O17 Gd1 1_555 1_555
O19 Gd1 1_555 1_555
O22 Gd1 1_555 1_555
C6 C7 1_555 1_555
C13 C14 1_555 1_555
C16 N3 1_555 1_555
C17 N3 1_555 1_555
Gd1 O5 1_555 1_555
Gd1 O6 1_555 1_555
Gd1 O7 1_555 1_555
O7 Gd4 1_555 1_555
C18 C19 1_555 1_555
C19 C20 1_555 1_555
C20 H17 1_555 1_555
C21 C20 1_555 1_555
C22 C21 1_555 1_555
H18 C22 1_555 1_555
C23 C22 1_555 1_555
H19 C23 1_555 1_555
C24 C19 1_555 1_555
H20 O11 1_555 1_555
O9 C18 1_555 1_555
O10 C18 1_555 1_555
O11 C24 1_555 1_555
Gd5 O10 1_555 1_555
C21 N4 1_555 1_555
C23 C24 1_555 1_555
C25 C26 1_555 1_555
C26 C27 1_555 1_555
C27 C28 1_555 1_555
C28 H21 1_555 1_555
C29 C28 1_555 1_555
H22 C29 1_555 1_555
C30 C29 1_555 1_555
C31 C26 1_555 1_555
H23 C31 1_555 1_555
O12 C25 1_555 1_555
O13 C27 1_555 1_555
O14 C25 1_555 1_555
C32 H24 1_555 1_555
C33 H25 1_555 1_555
H26 C33 1_555 1_555
H27 C33 1_555 1_555
C34 H28 1_555 1_555
H30_2 C34 1_555 1_555
Gd5 O13 1_555 1_555
H31 O16 1_555 1_555
H32 O16 1_555 1_555
N6 C32 1_555 1_555
O15 C32 1_555 1_555
O16 Gd5 1_555 1_555
Gd7 O12 1_555 1_555
O18 Gd5 1_555 1_555
O20 Gd5 1_555 1_555
O23 Gd5 1_555 1_555
C30 C31 1_555 1_555
C30 N5 1_555 1_555
O14 Gd5 1_555 1_555
O14 Gd7 1_555 1_555
C33 N6 1_555 1_555
C34 N6 1_555 1_555
Gd5 O15 1_555 1_555
C27_2 C28_2 1_555 1_555
C28_2 H21_2 1_555 1_555
C29_2 C28_2 1_555 1_555
H22_2 C29_2 1_555 1_555
C30_2 C29_2 1_555 1_555
O13_2 C27_2 1_555 1_555
C32_2 H24_2 1_555 1_555
C33_2 H25_2 1_555 1_555
H26_2 C33_2 1_555 1_555
H27_2 C33_2 1_555 1_555
H30_3 C34_2 1_555 1_555
Gd7 O13_2 1_555 1_555
N6_2 C32_2 1_555 1_555
O15_2 C32_2 1_555 1_555
O21 Gd7 1_555 1_555
C33_2 N6_2 1_555 1_555
C34_2 N6_2 1_555 1_555
Gd7 O15_2 1_555 1_555
C25_2 C26_2 1_555 1_555
C31_2 C26_2 1_555 1_555
H23_2 C31_2 1_555 1_555
O20 C25_2 1_555 1_555
O23 C25_2 1_555 1_555
H31_2 O16_2 1_555 1_555
H32_2 O16_2 1_555 1_555
C8_2 C9_2 1_555 1_555
C14_2 C9_2 1_555 1_555
H6_2 C14_2 1_555 1_555
H14_2 O8_2 1_555 1_555
H15_2 O3_2 1_555 1_555
H16_2 O3_2 1_555 1_555
O19 C8_2 1_555 1_555
O22 C8_2 1_555 1_555
C18_2 C19_2 1_555 1_555
C19_2 C20_2 1_555 1_555
C20_2 H17_2 1_555 1_555
C21_2 C20_2 1_555 1_555
C22_2 C21_2 1_555 1_555
C23_2 C22_2 1_555 1_555
C24_2 C19_2 1_555 1_555
O18 C18_2 1_555 1_555
O21 C18_2 1_555 1_555
C23_2 C24_2 1_555 1_555
C1_2 C2_2 1_555 1_555
C2_2 C3_2 1_555 1_555
C3_2 H1_2 1_555 1_555
C4_2 C3_2 1_555 1_555
C5_2 C4_2 1_555 1_555
C6_2 C5_2 1_555 1_555
C7_2 C2_2 1_555 1_555
C10_2 C11_2 1_555 1_555
C11_2 H4_2 1_555 1_555
C12_2 C11_2 1_555 1_555
H5_2 C12_2 1_555 1_555
C13_2 C12_2 1_555 1_555
C15_2 H7_2 1_555 1_555
C16_2 H8_2 1_555 1_555
H9_2 C16_2 1_555 1_555
H10_2 C16_2 1_555 1_555
H13_3 C17_2 1_555 1_555
Gd4 O1_2 1_555 1_555
N3_2 C15_2 1_555 1_555
O1_2 C15_2 1_555 1_555
O17 C1_2 1_555 1_555
O5_2 C1_2 1_555 1_555
O6_2 C10_2 1_555 1_555
C6_2 C7_2 1_555 1_555
C16_2 N3_2 1_555 1_555
C17_2 N3_2 1_555 1_555
Gd4 O5_2 1_555 1_555
Gd4 O6_2 1_555 1_555
H20_3 O11_2 1_555 1_555

#END
