
###############################################################################
#
# This file contains modified crystal structure data generated from the
# MOF subset of the Cambridge Structural Database (CSD) v543 
# hosted by the Cambridge Crystallographic Data Centre (CCDC).
#
# This work is licensed under the Creative Commons
# Attribution-NonCommercial-ShareAlike 4.0 International License.
# To view a copy of this license, visit
# http://creativecommons.org/licenses/by-nc-sa/4.0/
# or send a letter to
# Creative Commons, PO Box 1866, Mountain View, CA 94042, USA.
#
# CIF created using the CSD Python API on 29 September 2022
# The structure has been converted into the P1 space group
# The structure has a 3D framework
# The original CSD entry YAWBAA is in the monoclinic crystal system
# The framework has been calculated to contain at least 10.0% void space
# The void calculation uses a probe of radius 1.32A, grid spacing 0.4
#
###############################################################################

data_YAWBAA
_chemical_formula_moiety         '(C108 H64 N7 O39 Zn8)n'
_symmetry_cell_setting           triclinic
_symmetry_space_group_name_H-M   'P 1'
_symmetry_Int_Tables_number      1
_space_group_name_Hall           'P 1'
loop_
_symmetry_equiv_pos_site_id
_symmetry_equiv_pos_as_xyz
1 x,y,z
_cell_length_a                   11.020(2)
_cell_length_b                   15.073(3)
_cell_length_c                   16.768(3)
_cell_angle_alpha                90
_cell_angle_beta                 95.53(3)
_cell_angle_gamma                90
_cell_volume                     2772.28
loop_
_atom_site_label
_atom_site_type_symbol
_atom_site_fract_x
_atom_site_fract_y
_atom_site_fract_z
H23 H 0.0091 0.3397 0.4580
C46 C 0.0001(3) 0.2367(2) 0.38294(19)
H24 H 0.0803 0.2406 0.3704
C50 C 0.1241(3) 0.03019(19) 0.2302(2)
H27 H 0.2060 0.0274 0.2212
C51 C 0.0873(3) 0.0977(2) 0.2782(2)
H28 H 0.1436 0.1388 0.3005
Zn10 Zn 0.11405(3) 0.86353(2) 0.134990(18)
N4 N 0.0493(2) 0.96918(14) 0.19621(13)
C27 C 0.0678(3) 0.0233(2) 0.79304(19)
H14 H 0.1223 0.0639 0.8182
Zn5 Zn 0.28001(3) 0.115627(18) 0.034067(17)
Zn9 Zn 0.38595(3) 0.36353(2) 0.365010(18)
C36 C 0.4715(2) 0.07278(16) 0.25523(16)
C37 C 0.4763(3) 0.10456(17) 0.33378(17)
C38 C 0.5300(3) 0.05339(18) 0.39617(17)
H20 H 0.5326 0.0744 0.4485
C42 C 0.3993(2) 0.12047(16) 0.18692(16)
C43 C 0.4295(3) 0.1959(2) 0.3536(2)
O15 O 0.0180(2) 0.11628(16) 0.96127(12)
O17 O 0.41414(18) 0.09344(13) 0.11678(11)
O20 O 0.3267(2) 0.17865(14) 0.20225(13)
O21 O 0.4864(2) 0.26063(14) 0.32680(18)
O24 O 0.3441(3) 0.20314(19) 0.39524(17)
Zn1 Zn 0.21999(3) 0.615627(18) 0.465933(17)
C1 C 0.4169(2) 0.31893(15) 0.56728(14)
C2 C 0.3039(2) 0.36167(15) 0.55730(15)
C3 C 0.2102(2) 0.33496(18) 0.60274(17)
H1 H 0.1368 0.3659 0.5985
C4 C 0.2258(3) 0.26268(18) 0.65404(17)
H2 H 0.1632 0.2453 0.6841
C5 C 0.3356(3) 0.21645(16) 0.66025(15)
C6 C 0.4310(2) 0.24566(16) 0.61869(15)
H3 H 0.5054 0.2161 0.6251
C7 C 0.5277(2) 0.35048(16) 0.52876(15)
C8 C 0.2721(2) 0.43939(16) 0.50175(15)
C12 C 0.4202(3) 0.02890(18) 0.61850(16)
H5 H 0.3878 0.0639 0.5760
C13 C 0.4186(3) 0.05876(16) 0.69658(16)
C14 C 0.4739(3) 0.00752(17) 0.75926(16)
H6 H 0.4741 0.0277 0.8117
C17 C 0.3485(3) 0.13921(16) 0.71667(16)
C18 C 0.0435(3) 0.7038(2) 0.56424(19)
C20 C 0.0764(3) 0.82911(16) 0.65147(16)
C21 C 0.1951(3) 0.82926(19) 0.63069(19)
H9 H 0.2502 0.8714 0.6527
C22 C 0.2315(3) 0.76745(19) 0.57775(19)
H10 H 0.3119 0.7689 0.5653
C25 C 0.0337(3) 0.89665(16) 0.70737(16)
C26 C 0.1126(3) 0.9580(2) 0.74631(19)
H13 H 0.1957 0.9550 0.7409
N1 N 0.1578(2) 0.70559(14) 0.54333(13)
O1 O 0.23854(19) 0.50861(12) 0.53440(11)
O2 O 0.2714(2) 0.43046(14) 0.42771(12)
O3 O 0.5180(2) 0.38372(16) 0.46127(12)
O4 O 0.62814(17) 0.33977(14) 0.56993(12)
O9 O 0.2979(2) 0.14005(13) 0.77789(13)
Zn3 Zn 0.78001(3) 0.384373(18) 0.534067(17)
Zn8 Zn 0.61405(3) 0.63647(2) 0.634990(18)
C28 C 0.5831(2) 0.68107(15) 0.43272(14)
C29 C 0.6961(2) 0.63833(15) 0.44270(15)
C30 C 0.7898(2) 0.66504(18) 0.39726(17)
H17 H 0.8632 0.6341 0.4015
C31 C 0.7742(3) 0.73732(18) 0.34596(17)
H18 H 0.8368 0.7547 0.3159
C32 C 0.6644(3) 0.78355(16) 0.33975(15)
C33 C 0.5690(2) 0.75434(16) 0.38131(15)
H19 H 0.4946 0.7839 0.3749
C34 C 0.4723(2) 0.64952(16) 0.47124(15)
C35 C 0.7279(2) 0.56061(16) 0.49825(15)
C39 C 0.5798(3) 0.97110(18) 0.38150(16)
H21 H 0.6122 0.9361 0.4240
C40 C 0.5814(3) 0.94124(16) 0.30342(16)
C41 C 0.5261(3) 0.99248(17) 0.24074(16)
H22 H 0.5259 0.9723 0.1883
C44 C 0.6515(3) 0.86079(16) 0.28333(16)
C45 C 0.9565(3) 0.2962(2) 0.43576(19)
C47 C 0.9236(3) 0.17089(16) 0.34853(16)
C48 C 0.8049(3) 0.17074(19) 0.36931(19)
H25 H 0.7498 0.1286 0.3473
C49 C 0.7685(3) 0.23255(19) 0.42225(19)
H26 H 0.6881 0.2311 0.4347
C52 C 0.9663(3) 0.10335(16) 0.29263(16)
C53 C 0.8874(3) 0.0420(2) 0.25369(19)
H29 H 0.8043 0.0450 0.2591
N3 N 0.8422(2) 0.29441(14) 0.45667(13)
N5 N 0.4507(2) 0.46918(14) 0.30379(13)
O11 O 0.76146(19) 0.49139(12) 0.46560(11)
O12 O 0.7286(2) 0.56954(14) 0.57229(12)
O14 O 0.4820(2) 0.61628(16) 0.53873(12)
O16 O 0.37186(17) 0.66023(14) 0.43007(12)
O18 O 0.08586(18) 0.59344(13) 0.38322(11)
O19 O 0.91414(18) 0.40656(13) 0.61678(11)
O27 O 0.7021(2) 0.85995(13) 0.22211(13)
O28 O 0.2397(2) 0.33133(14) 0.27229(13)
H31 H 0.2535 0.2816 0.2553
H32 H 0.2384 0.3621 0.2315
C9 C 0.5285(2) 0.92722(16) 0.74477(16)
C10 C 0.5237(3) 0.89544(17) 0.66622(17)
C11 C 0.4700(3) 0.94661(18) 0.60383(17)
H4 H 0.4674 0.9256 0.5515
C15 C 0.6007(2) 0.87953(16) 0.81308(16)
C16 C 0.5705(3) 0.8041(2) 0.6464(2)
O5 O 0.58586(18) 0.90656(13) 0.88322(11)
O6 O 0.6733(2) 0.82135(14) 0.79775(13)
O7 O 0.5136(2) 0.73937(14) 0.67320(18)
O8 O 0.6559(3) 0.79686(19) 0.60476(17)
Zn4 Zn 0.71999(3) 0.884373(18) 0.965933(17)
C54 C 0.9322(3) 0.9767(2) 0.20696(19)
H30 H 0.8777 0.9361 0.1818
Zn2 Zn 0.88595(3) 0.13647(2) 0.865010(18)
N2 N 0.9507(2) 0.03082(14) 0.80379(13)
O10 O 0.7397(2) 0.16867(14) 0.77229(13)
H15 H 0.7535 0.2184 0.7553
H16 H 0.7384 0.1379 0.7315
O13 O 0.7714(2) 0.06954(14) 0.92771(12)
O22 O 0.9864(2) 0.23937(14) 0.82680(18)
O25 O 0.8441(3) 0.29686(19) 0.89524(17)
H19_2 H 0.0054 0.2839 0.1251
C34_2 C 0.0277(2) 0.14952(16) 0.02876(15)
C36_2 C 0.0285(2) 0.57278(16) 0.24477(16)
C37_2 C 0.0237(3) 0.60456(17) 0.16622(17)
C42_2 C 0.1007(2) 0.62047(16) 0.31308(16)
C43_2 C 0.0705(3) 0.6959(2) 0.1464(2)
O16_2 O 0.12814(17) 0.16023(14) 0.06993(12)
O20_2 O 0.1733(2) 0.67865(14) 0.29775(13)
O21_2 O 0.0136(2) 0.76063(14) 0.17320(18)
O24_2 O 0.1559(3) 0.70314(19) 0.10476(17)
C18_2 C 0.4565(3) 0.2038(2) 0.93576(19)
H7 H 0.5091 0.1603 0.9580
C19 C 0.5001(3) 0.2633(2) 0.88294(19)
H8 H 0.5803 0.2594 0.8704
C20_2 C 0.4236(3) 0.32911(16) 0.84853(16)
C21_2 C 0.3049(3) 0.32926(19) 0.86931(19)
H9_2 H 0.2498 0.3714 0.8473
C22_2 C 0.2685(3) 0.26745(19) 0.92225(19)
H10_2 H 0.1881 0.2689 0.9347
C23 C 0.6241(3) 0.46981(19) 0.7302(2)
H11 H 0.7060 0.4726 0.7212
C24 C 0.5873(3) 0.4023(2) 0.7782(2)
H12 H 0.6436 0.3612 0.8005
C25_2 C 0.4663(3) 0.39665(16) 0.79263(16)
C26_2 C 0.3874(3) 0.4580(2) 0.75369(19)
H13_2 H 0.3043 0.4550 0.7591
C27_2 C 0.4322(3) 0.5233(2) 0.70696(19)
H14_2 H 0.3777 0.5639 0.6818
N1_2 N 0.3422(2) 0.20559(14) 0.95667(13)
N2_2 N 0.5493(2) 0.53082(14) 0.69621(13)
O1_2 O 0.26146(19) 0.00861(12) 0.96560(11)
O10_2 O 0.7603(2) 0.66867(14) 0.72771(13)
H15_2 H 0.7465 0.7184 0.7447
H16_2 H 0.7616 0.6379 0.7685
O2_2 O 0.2286(2) 0.93046(14) 0.07229(12)
O28_2 O 0.2603(2) 0.83133(14) 0.22771(13)
H31_2 H 0.2465 0.7816 0.2447
H32_2 H 0.2616 0.8621 0.2685
O3_2 O 0.9820(2) 0.88372(16) 0.03873(12)
C45_2 C 0.5435(3) 0.7962(2) 0.06424(19)
H23_2 H 0.4909 0.8397 0.0420
C46_2 C 0.4999(3) 0.7367(2) 0.11706(19)
H24_2 H 0.4197 0.7406 0.1296
C47_2 C 0.5764(3) 0.67089(16) 0.15147(16)
C48_2 C 0.6951(3) 0.67074(19) 0.13069(19)
H25_2 H 0.7502 0.6286 0.1527
C49_2 C 0.7315(3) 0.73255(19) 0.07775(19)
H26_2 H 0.8119 0.7311 0.0653
C50_2 C 0.3759(3) 0.53019(19) 0.2698(2)
H27_2 H 0.2940 0.5274 0.2788
C51_2 C 0.4127(3) 0.5977(2) 0.2218(2)
H28_2 H 0.3564 0.6388 0.1995
C52_2 C 0.5337(3) 0.60335(16) 0.20737(16)
C53_2 C 0.6126(3) 0.5420(2) 0.24631(19)
H29_2 H 0.6957 0.5450 0.2409
C54_2 C 0.5678(3) 0.4767(2) 0.29304(19)
H30_2 H 0.6223 0.4361 0.3182
N3_2 N 0.6578(2) 0.79441(14) 0.04333(13)
O11_2 O 0.73854(19) 0.99139(12) 0.03440(11)
H3_2 H 0.9946 0.7161 0.8749
C7_2 C 0.9723(2) 0.85048(16) 0.97124(15)
C9_2 C 0.9715(2) 0.42722(16) 0.75523(16)
C10_2 C 0.9763(3) 0.39544(17) 0.83378(17)
C15_2 C 0.8993(2) 0.37953(16) 0.68692(16)
C16_2 C 0.9295(3) 0.3041(2) 0.8536(2)
O4_2 O 0.87186(17) 0.83977(14) 0.93007(12)
O6_2 O 0.8267(2) 0.32135(14) 0.70225(13)
H7_2 H 0.9909 0.6603 0.5420
C19_2 C 0.9999(3) 0.7633(2) 0.61706(19)
H8_2 H 0.9197 0.7594 0.6296
C23_2 C 0.8759(3) 0.96981(19) 0.7698(2)
H11_2 H 0.7940 0.9726 0.7788
C24_2 C 0.9127(3) 0.9023(2) 0.7218(2)
H12_2 H 0.8564 0.8612 0.6995
C1_2 C 0.0831(2) 0.81893(15) 0.93272(14)
C2_2 C 0.1961(2) 0.86167(15) 0.94270(15)
C3_2 C 0.2898(2) 0.83496(18) 0.89726(17)
H1_2 H 0.3632 0.8659 0.9015
C4_2 C 0.2742(3) 0.76268(18) 0.84596(17)
H2_2 H 0.3368 0.7453 0.8159
C5_2 C 0.1644(3) 0.71645(16) 0.83975(15)
C6_2 C 0.0690(2) 0.74566(16) 0.88131(15)
C8_2 C 0.2279(2) 0.93939(16) 0.99825(15)
C11_2 C 0.0300(3) 0.44661(18) 0.89617(17)
H4_2 H 0.0326 0.4256 0.9485
C12_2 C 0.0798(3) 0.52890(18) 0.88150(16)
H5_2 H 0.1122 0.5639 0.9240
C13_2 C 0.0814(3) 0.55876(16) 0.80342(16)
C14_2 C 0.0261(3) 0.50752(17) 0.74074(16)
H6_2 H 0.0259 0.5277 0.6883
C17_2 C 0.1515(3) 0.63921(16) 0.78333(16)
O9_2 O 0.2021(2) 0.64005(13) 0.72211(13)
C28_2 C 0.9169(2) 0.18107(15) 0.06728(14)
C29_2 C 0.8039(2) 0.13833(15) 0.05730(15)
C30_2 C 0.7102(2) 0.16504(18) 0.10274(17)
H17_2 H 0.6368 0.1341 0.0985
C31_2 C 0.7258(3) 0.23732(18) 0.15404(17)
H18_2 H 0.6632 0.2547 0.1841
C32_2 C 0.8356(3) 0.28355(16) 0.16025(15)
C33_2 C 0.9310(2) 0.25434(16) 0.11869(15)
C35_2 C 0.7721(2) 0.06061(16) 0.00175(15)
C38_2 C 0.9700(3) 0.55339(18) 0.10383(17)
H20_2 H 0.9674 0.5744 0.0515
C39_2 C 0.9202(3) 0.47110(18) 0.11850(16)
H21_2 H 0.8878 0.4361 0.0760
C40_2 C 0.9186(3) 0.44124(16) 0.19658(16)
C41_2 C 0.9739(3) 0.49248(17) 0.25926(16)
H22_2 H 0.9741 0.4723 0.3117
C44_2 C 0.8485(3) 0.36079(16) 0.21667(16)
O27_2 O 0.7979(2) 0.35995(13) 0.27789(13)
loop_
_geom_bond_atom_site_label_1
_geom_bond_atom_site_label_2
_geom_bond_site_symmetry_1
_geom_bond_site_symmetry_2
H24 C46 1_555 1_555
C50 H27 1_555 1_555
C51 C50 1_555 1_555
H28 C51 1_555 1_555
Zn10 N4 1_555 1_555
H14 C27 1_555 1_555
Zn5 O17 1_555 1_555
Zn9 O21 1_555 1_555
C36 C37 1_555 1_555
C37 C38 1_555 1_555
C38 H20 1_555 1_555
C42 C36 1_555 1_555
C43 C37 1_555 1_555
O17 C42 1_555 1_555
O20 C42 1_555 1_555
O21 C43 1_555 1_555
O24 Zn9 1_555 1_555
C43 O24 1_555 1_555
Zn1 N1 1_555 1_555
C1 C2 1_555 1_555
C2 C3 1_555 1_555
C3 H1 1_555 1_555
C4 C3 1_555 1_555
H2 C4 1_555 1_555
C5 C4 1_555 1_555
C6 C1 1_555 1_555
H3 C6 1_555 1_555
C7 C1 1_555 1_555
C8 C2 1_555 1_555
H5 C12 1_555 1_555
C13 C12 1_555 1_555
H6 C14 1_555 1_555
C17 C5 1_555 1_555
C21 C20 1_555 1_555
H9 C21 1_555 1_555
C22 C21 1_555 1_555
H10 C22 1_555 1_555
C25 C20 1_555 1_555
C26 C25 1_555 1_555
H13 C26 1_555 1_555
N1 C18 1_555 1_555
O1 Zn1 1_555 1_555
O2 C8 1_555 1_555
O3 C7 1_555 1_555
O4 C7 1_555 1_555
O9 C17 1_555 1_555
Zn3 O4 1_555 1_555
Zn9 O2 1_555 1_555
Zn8 O12 1_555 1_555
C28 C29 1_555 1_555
C29 C30 1_555 1_555
C30 H17 1_555 1_555
C31 C30 1_555 1_555
H18 C31 1_555 1_555
C32 C31 1_555 1_555
C33 C28 1_555 1_555
H19 C33 1_555 1_555
C34 C28 1_555 1_555
C35 C29 1_555 1_555
H21 C39 1_555 1_555
C40 C39 1_555 1_555
H22 C41 1_555 1_555
C44 C32 1_555 1_555
C48 C47 1_555 1_555
H25 C48 1_555 1_555
C49 C48 1_555 1_555
H26 C49 1_555 1_555
C52 C47 1_555 1_555
C53 C52 1_555 1_555
H29 C53 1_555 1_555
N3 Zn3 1_555 1_555
N5 Zn9 1_555 1_555
O11 Zn3 1_555 1_555
O12 C35 1_555 1_555
O14 Zn8 1_555 1_555
O16 Zn1 1_555 1_555
O18 Zn1 1_555 1_555
O19 Zn3 1_555 1_555
O27 C44 1_555 1_555
O28 Zn9 1_555 1_555
H31 O28 1_555 1_555
H32 O28 1_555 1_555
C5 C6 1_555 1_555
C8 O1 1_555 1_555
C13 C14 1_555 1_555
C13 C17 1_555 1_555
C22 N1 1_555 1_555
O3 Zn9 1_555 1_555
C32 C33 1_555 1_555
C34 O14 1_555 1_555
C34 O16 1_555 1_555
C35 O11 1_555 1_555
C40 C41 1_555 1_555
C40 C44 1_555 1_555
C45 N3 1_555 1_555
C49 N3 1_555 1_555
C9 C10 1_555 1_555
C10 C11 1_555 1_555
C11 H4 1_555 1_555
C15 C9 1_555 1_555
C16 C10 1_555 1_555
O5 C15 1_555 1_555
O6 C15 1_555 1_555
O7 C16 1_555 1_555
O8 C16 1_555 1_555
Zn4 O5 1_555 1_555
Zn8 O7 1_555 1_555
H30 C54 1_555 1_555
O8 Zn8 1_555 1_555
Zn2 N2 1_555 1_555
O10 Zn2 1_555 1_555
H15 O10 1_555 1_555
H16 O10 1_555 1_555
O13 Zn2 1_555 1_555
O22 Zn2 1_555 1_555
O25 Zn2 1_555 1_555
Zn10 O21_2 1_555 1_555
C36_2 C37_2 1_555 1_555
C42_2 C36_2 1_555 1_555
C43_2 C37_2 1_555 1_555
O16_2 Zn5 1_555 1_555
O18 C42_2 1_555 1_555
O20_2 C42_2 1_555 1_555
O21_2 C43_2 1_555 1_555
O24_2 Zn10 1_555 1_555
C34_2 O16_2 1_555 1_555
C43_2 O24_2 1_555 1_555
Zn8 N2_2 1_555 1_555
C18_2 H7 1_555 1_555
C19 C18_2 1_555 1_555
H8 C19 1_555 1_555
C20_2 C19 1_555 1_555
C21_2 C20_2 1_555 1_555
H9_2 C21_2 1_555 1_555
C22_2 C21_2 1_555 1_555
H10_2 C22_2 1_555 1_555
C23 H11 1_555 1_555
C24 C23 1_555 1_555
H12 C24 1_555 1_555
C25_2 C20_2 1_555 1_555
C26_2 C25_2 1_555 1_555
H13_2 C26_2 1_555 1_555
C27_2 C26_2 1_555 1_555
H14_2 C27_2 1_555 1_555
N1_2 C18_2 1_555 1_555
N2_2 C23 1_555 1_555
O10_2 Zn8 1_555 1_555
H15_2 O10_2 1_555 1_555
H16_2 O10_2 1_555 1_555
C22_2 N1_2 1_555 1_555
C24 C25_2 1_555 1_555
C27_2 N2_2 1_555 1_555
Zn10 O2_2 1_555 1_555
O28_2 Zn10 1_555 1_555
H31_2 O28_2 1_555 1_555
H32_2 O28_2 1_555 1_555
C45_2 H23_2 1_555 1_555
C46_2 C45_2 1_555 1_555
H24_2 C46_2 1_555 1_555
C47_2 C46_2 1_555 1_555
C48_2 C47_2 1_555 1_555
H25_2 C48_2 1_555 1_555
C49_2 C48_2 1_555 1_555
H26_2 C49_2 1_555 1_555
C50_2 H27_2 1_555 1_555
C51_2 C50_2 1_555 1_555
H28_2 C51_2 1_555 1_555
C52_2 C47_2 1_555 1_555
C53_2 C52_2 1_555 1_555
H29_2 C53_2 1_555 1_555
C54_2 C53_2 1_555 1_555
H30_2 C54_2 1_555 1_555
N5 C50_2 1_555 1_555
C45_2 N3_2 1_555 1_555
C49_2 N3_2 1_555 1_555
C51_2 C52_2 1_555 1_555
C54_2 N5 1_555 1_555
C9_2 C10_2 1_555 1_555
C15_2 C9_2 1_555 1_555
C16_2 C10_2 1_555 1_555
O4_2 C7_2 1_555 1_555
O19 C15_2 1_555 1_555
O6_2 C15_2 1_555 1_555
O22 C16_2 1_555 1_555
O25 C16_2 1_555 1_555
Zn4 O4_2 1_555 1_555
H8_2 C19_2 1_555 1_555
C23_2 H11_2 1_555 1_555
C24_2 C23_2 1_555 1_555
H12_2 C24_2 1_555 1_555
C1_2 C2_2 1_555 1_555
C2_2 C3_2 1_555 1_555
C3_2 H1_2 1_555 1_555
C4_2 C3_2 1_555 1_555
H2_2 C4_2 1_555 1_555
C5_2 C4_2 1_555 1_555
C6_2 C1_2 1_555 1_555
C8_2 C2_2 1_555 1_555
C11_2 H4_2 1_555 1_555
C12_2 C11_2 1_555 1_555
H5_2 C12_2 1_555 1_555
C13_2 C12_2 1_555 1_555
H6_2 C14_2 1_555 1_555
C17_2 C5_2 1_555 1_555
O9_2 C17_2 1_555 1_555
C5_2 C6_2 1_555 1_555
C13_2 C14_2 1_555 1_555
C13_2 C17_2 1_555 1_555
C28_2 C29_2 1_555 1_555
C29_2 C30_2 1_555 1_555
C30_2 H17_2 1_555 1_555
C31_2 C30_2 1_555 1_555
H18_2 C31_2 1_555 1_555
C32_2 C31_2 1_555 1_555
C33_2 C28_2 1_555 1_555
C35_2 C29_2 1_555 1_555
C38_2 H20_2 1_555 1_555
C39_2 C38_2 1_555 1_555
H21_2 C39_2 1_555 1_555
C40_2 C39_2 1_555 1_555
H22_2 C41_2 1_555 1_555
C44_2 C32_2 1_555 1_555
O27_2 C44_2 1_555 1_555
C32_2 C33_2 1_555 1_555
C40_2 C41_2 1_555 1_555
C40_2 C44_2 1_555 1_555

#END
