
###############################################################################
#
# This file contains modified crystal structure data generated from the
# MOF subset of the Cambridge Structural Database (CSD) v543 
# hosted by the Cambridge Crystallographic Data Centre (CCDC).
#
# This work is licensed under the Creative Commons
# Attribution-NonCommercial-ShareAlike 4.0 International License.
# To view a copy of this license, visit
# http://creativecommons.org/licenses/by-nc-sa/4.0/
# or send a letter to
# Creative Commons, PO Box 1866, Mountain View, CA 94042, USA.
#
# CIF created using the CSD Python API on 29 September 2022
# The structure has been converted into the P1 space group
# The structure has a 3D framework
# The original CSD entry YAWBAA01 is in the monoclinic crystal system
# The framework has been calculated to contain at least 10.0% void space
# The void calculation uses a probe of radius 1.32A, grid spacing 0.4
#
###############################################################################

data_YAWBAA01
_chemical_formula_moiety         '(C108 H64 N8 O40 Zn8)n'
_symmetry_cell_setting           triclinic
_symmetry_space_group_name_H-M   'P 1'
_symmetry_Int_Tables_number      1
_space_group_name_Hall           'P 1'
loop_
_symmetry_equiv_pos_site_id
_symmetry_equiv_pos_as_xyz
1 x,y,z
_cell_length_a                   11.0632(6)
_cell_length_b                   15.0159(8)
_cell_length_c                   16.7772(9)
_cell_angle_alpha                90
_cell_angle_beta                 95.3940(10)
_cell_angle_gamma                90
_cell_volume                     2774.75
loop_
_atom_site_label
_atom_site_type_symbol
_atom_site_fract_x
_atom_site_fract_y
_atom_site_fract_z
Zn2 Zn 0.61296(3) 0.13881(2) 0.134581(19)
C18 C 0.4328(3) 0.0253(2) 0.20610(19)
H7 H 0.3785 0.0665 0.1818
N1 N 0.5495(2) 0.03141(15) 0.19357(13)
O7 O 0.47999(19) 0.12133(15) 0.04222(12)
O8 O 0.7231(2) 0.06669(14) 0.07249(12)
O10 O 0.75580(19) 0.16798(15) 0.22614(13)
H15 H 0.7454 0.2206 0.2429
H16 H 0.7660 0.1340 0.2668
N3 N 0.1561(2) 0.20677(15) 0.04400(14)
O12 O 0.5073(2) 0.23645(14) 0.18211(15)
O13 O 0.6421(2) 0.28757(17) 0.10549(14)
O14 O 0.23883(19) 0.00877(13) 0.03455(11)
Zn1 Zn 0.21938(3) 0.11652(2) 0.966678(18)
C1 C 0.3995(2) 0.62129(18) 0.68553(17)
C2 C 0.4734(3) 0.57399(18) 0.75377(17)
C3 C 0.5263(3) 0.49268(18) 0.73996(16)
H1 H 0.5254 0.4714 0.6878
C4 C 0.5809(3) 0.44214(18) 0.80318(17)
C5 C 0.5802(3) 0.47280(19) 0.88104(17)
H2 H 0.6119 0.4379 0.9237
C6 C 0.5316(3) 0.55608(19) 0.89486(18)
H3 H 0.5344 0.5778 0.9469
C7 C 0.4792(3) 0.60715(18) 0.83207(17)
C8 C 0.4382(3) 0.7005(2) 0.84930(19)
C9 C 0.6505(3) 0.36081(18) 0.78348(17)
C10 C 0.4716(3) 0.15184(17) 0.97305(16)
C11 C 0.5824(2) 0.18194(17) 0.93448(15)
C12 C 0.5691(3) 0.25527(18) 0.88300(16)
H4 H 0.4953 0.2854 0.8771
C13 C 0.6637(3) 0.28402(17) 0.84061(16)
C14 C 0.7721(3) 0.23661(19) 0.84670(17)
H5 H 0.8344 0.2534 0.8163
C15 C 0.7872(3) 0.16445(19) 0.89802(17)
H6 H 0.8601 0.1332 0.9021
C16 C 0.6947(2) 0.13822(17) 0.94358(16)
C17 C 0.7255(2) 0.05994(18) 0.99871(16)
O1 O 0.41504(18) 0.59468(14) 0.61539(12)
O2 O 0.3250(2) 0.67813(14) 0.70140(13)
O3 O 0.4927(2) 0.76355(14) 0.81789(15)
O4 O 0.3579(2) 0.71243(17) 0.89451(14)
O5 O 0.7006(2) 0.35943(14) 0.72252(13)
O6 O 0.37195(17) 0.16136(14) 0.93166(12)
Zn4 Zn 0.28062(3) 0.61652(2) 0.533322(18)
Zn6 Zn 0.38704(3) 0.86119(2) 0.865419(19)
O11 O 0.08496(18) 0.09468(14) 0.88461(12)
C19 C 0.3896(3) 0.9603(2) 0.2535(2)
H8 H 0.3073 0.9587 0.2609
C20 C 0.6228(3) 0.9684(2) 0.2250(2)
H9 H 0.7035 0.9694 0.2138
C21 C 0.5864(3) 0.9017(2) 0.2734(2)
H10 H 0.6422 0.8597 0.2946
C22 C 0.4669(3) 0.89708(18) 0.29054(17)
C23 C 0.4246(3) 0.82982(18) 0.34688(17)
C24 C 0.5007(3) 0.7644(2) 0.3822(2)
H11 H 0.5808 0.7606 0.3700
C25 C 0.4573(3) 0.7051(2) 0.4353(2)
H12 H 0.5099 0.6616 0.4579
C26 C 0.3066(3) 0.8301(2) 0.3678(2)
H13 H 0.2518 0.8723 0.3457
C27 C 0.2702(3) 0.7685(2) 0.4210(2)
H14 H 0.1899 0.7698 0.4332
N2 N 0.3439(2) 0.70677(15) 0.45600(14)
Zn5 Zn 0.78062(3) 0.88348(2) 0.033322(18)
O9 O 0.76117(19) 0.99123(13) 0.96545(11)
C1_2 C 0.1005(2) 0.12129(18) 0.81447(17)
C2_2 C 0.0266(3) 0.07399(18) 0.74623(17)
C7_2 C 0.0208(3) 0.10715(18) 0.66793(17)
C8_2 C 0.0618(3) 0.2005(2) 0.65070(19)
O2_2 O 0.1750(2) 0.17813(14) 0.79860(13)
O3_2 O 0.0073(2) 0.26355(14) 0.68211(15)
O4_2 O 0.1421(2) 0.21243(17) 0.60549(14)
Zn6_2 Zn 0.11296(3) 0.36119(2) 0.634581(19)
C10_2 C 0.0284(3) 0.65184(17) 0.52695(16)
H4_2 H 0.0047 0.7854 0.6229
C18_2 C 0.0672(3) 0.5253(2) 0.29390(19)
H7_2 H 0.1215 0.5665 0.3182
C19_2 C 0.1104(3) 0.4603(2) 0.2465(2)
H8_2 H 0.1927 0.4587 0.2391
C22_2 C 0.0331(3) 0.39708(18) 0.20946(17)
C23_2 C 0.0754(3) 0.32982(18) 0.15312(17)
C25_2 C 0.0427(3) 0.2051(2) 0.0647(2)
C26_2 C 0.1934(3) 0.3301(2) 0.1322(2)
H13_2 H 0.2482 0.3723 0.1543
C27_2 C 0.2298(3) 0.2685(2) 0.0790(2)
H14_2 H 0.3101 0.2698 0.0668
O6_2 O 0.12805(17) 0.66136(14) 0.56834(12)
O7_2 O 0.02001(19) 0.62133(15) 0.45778(12)
O14_2 O 0.26117(19) 0.50877(13) 0.46545(11)
Zn2_2 Zn 0.88704(3) 0.63881(2) 0.365419(19)
C3_2 C 0.9737(3) 0.99268(18) 0.76004(16)
H1_2 H 0.9746 0.9714 0.8122
C4_2 C 0.9191(3) 0.94214(18) 0.69682(17)
C5_2 C 0.9198(3) 0.97280(19) 0.61896(17)
H2_2 H 0.8881 0.9379 0.5763
C9_2 C 0.8495(3) 0.86081(18) 0.71652(17)
C11_2 C 0.9176(2) 0.68194(17) 0.56552(15)
C12_2 C 0.9309(3) 0.75527(18) 0.61700(16)
C13_2 C 0.8363(3) 0.78402(17) 0.65939(16)
C14_2 C 0.7279(3) 0.73661(19) 0.65330(17)
H5_2 H 0.6656 0.7534 0.6837
C15_2 C 0.7128(3) 0.66445(19) 0.60198(17)
H6_2 H 0.6399 0.6332 0.5979
C16_2 C 0.8053(2) 0.63822(17) 0.55642(16)
C17_2 C 0.7745(2) 0.55994(18) 0.50129(16)
C20_2 C 0.8772(3) 0.4684(2) 0.2750(2)
H9_2 H 0.7965 0.4694 0.2862
C21_2 C 0.9136(3) 0.4017(2) 0.2266(2)
H10_2 H 0.8578 0.3597 0.2054
C24_2 C 0.9993(3) 0.2644(2) 0.1178(2)
H11_2 H 0.9192 0.2606 0.1300
H12_2 H 0.9901 0.1616 0.0421
N1_2 N 0.9505(2) 0.53141(15) 0.30643(13)
O5_2 O 0.7994(2) 0.85943(14) 0.77748(13)
O8_2 O 0.7769(2) 0.56669(14) 0.42751(12)
O9_2 O 0.73883(19) 0.49123(13) 0.53455(11)
O10_2 O 0.74420(19) 0.66798(15) 0.27386(13)
H15_2 H 0.7546 0.7206 0.2571
H16_2 H 0.7340 0.6340 0.2332
Zn5_2 Zn 0.71938(3) 0.38348(2) 0.466678(18)
O12_2 O 0.9927(2) 0.73645(14) 0.31789(15)
O13_2 O 0.8579(2) 0.78757(17) 0.39451(14)
C19_3 C 0.6104(3) 0.0397(2) 0.7465(2)
H8_3 H 0.6927 0.0413 0.7391
C20_3 C 0.3772(3) 0.0316(2) 0.7750(2)
H9_3 H 0.2965 0.0306 0.7862
C21_3 C 0.4136(3) 0.0983(2) 0.7266(2)
H10_3 H 0.3578 0.1403 0.7054
C22_3 C 0.5331(3) 0.10292(18) 0.70946(17)
C23_3 C 0.5754(3) 0.17018(18) 0.65312(17)
C24_3 C 0.4993(3) 0.2356(2) 0.6178(2)
H11_3 H 0.4192 0.2394 0.6300
C25_3 C 0.5427(3) 0.2949(2) 0.5647(2)
H12_3 H 0.4901 0.3384 0.5421
C26_3 C 0.6934(3) 0.1699(2) 0.6322(2)
H13_3 H 0.7482 0.1277 0.6543
C27_3 C 0.7298(3) 0.2315(2) 0.5790(2)
H14_3 H 0.8101 0.2302 0.5668
N2_2 N 0.6561(2) 0.29323(15) 0.54400(14)
C1_3 C 0.6005(2) 0.37871(18) 0.31447(17)
C2_3 C 0.5266(3) 0.42601(18) 0.24623(17)
C3_3 C 0.4737(3) 0.50732(18) 0.26004(16)
H1_3 H 0.4746 0.5286 0.3122
C4_3 C 0.4191(3) 0.55786(18) 0.19682(17)
C5_3 C 0.4198(3) 0.52720(19) 0.11896(17)
H2_3 H 0.3881 0.5621 0.0763
C6_2 C 0.4684(3) 0.44392(19) 0.10514(18)
H3_2 H 0.4656 0.4222 0.0531
C7_3 C 0.5208(3) 0.39285(18) 0.16793(17)
C8_3 C 0.5618(3) 0.2995(2) 0.15070(19)
C9_3 C 0.3495(3) 0.63919(18) 0.21652(17)
C10_3 C 0.5284(3) 0.84816(17) 0.02695(16)
C11_3 C 0.4176(2) 0.81806(17) 0.06552(15)
C12_3 C 0.4309(3) 0.74473(18) 0.11700(16)
H4_3 H 0.5047 0.7146 0.1229
C13_3 C 0.3363(3) 0.71598(17) 0.15939(16)
C14_3 C 0.2279(3) 0.76339(19) 0.15330(17)
H5_3 H 0.1656 0.7466 0.1837
C15_3 C 0.2128(3) 0.83555(19) 0.10198(17)
H6_3 H 0.1399 0.8668 0.0979
C16_3 C 0.3053(2) 0.86178(17) 0.05642(16)
C17_3 C 0.2745(2) 0.94006(18) 0.00129(16)
O1_2 O 0.58496(18) 0.40532(14) 0.38461(12)
O2_3 O 0.6750(2) 0.32187(14) 0.29860(13)
O5_3 O 0.2994(2) 0.64057(14) 0.27748(13)
O6_3 O 0.62805(17) 0.83864(14) 0.06834(12)
O11_2 O 0.91504(18) 0.90532(14) 0.11539(12)
C18_3 C 0.5672(3) 0.9747(2) 0.79390(19)
H7_3 H 0.6215 0.9335 0.8182
N1_3 N 0.4505(2) 0.96859(15) 0.80643(13)
O7_3 O 0.52001(19) 0.87867(15) 0.95778(12)
O8_3 O 0.2769(2) 0.93331(14) 0.92751(12)
O10_3 O 0.24420(19) 0.83202(15) 0.77386(13)
H15_3 H 0.2546 0.7794 0.7571
H16_3 H 0.2340 0.8660 0.7332
N3_2 N 0.8439(2) 0.79323(15) 0.95600(14)
C3_4 C 0.0263(3) 0.00732(18) 0.23996(16)
H1_4 H 0.0254 0.0286 0.1878
C4_4 C 0.0809(3) 0.05786(18) 0.30318(17)
C5_4 C 0.0802(3) 0.02720(19) 0.38104(17)
H2_4 H 0.1119 0.0621 0.4237
C9_4 C 0.1505(3) 0.13919(18) 0.28348(17)
C11_4 C 0.0824(2) 0.31806(17) 0.43448(15)
C12_4 C 0.0691(3) 0.24473(18) 0.38300(16)
C13_4 C 0.1637(3) 0.21598(17) 0.34061(16)
C14_4 C 0.2721(3) 0.26339(19) 0.34670(17)
H5_4 H 0.3344 0.2466 0.3163
C15_4 C 0.2872(3) 0.33555(19) 0.39802(17)
H6_4 H 0.3601 0.3668 0.4021
C16_4 C 0.1947(2) 0.36178(17) 0.44358(16)
C17_4 C 0.2255(2) 0.44006(18) 0.49871(16)
C20_4 C 0.1228(3) 0.5316(2) 0.7250(2)
H9_4 H 0.2035 0.5306 0.7138
C21_4 C 0.0864(3) 0.5983(2) 0.7734(2)
H10_4 H 0.1422 0.6403 0.7946
C24_4 C 0.0007(3) 0.7356(2) 0.8822(2)
H11_4 H 0.0808 0.7394 0.8700
H12_4 H 0.0099 0.8384 0.9579
N1_4 N 0.0495(2) 0.46859(15) 0.69357(13)
O5_4 O 0.2006(2) 0.14057(14) 0.22252(13)
O8_4 O 0.2231(2) 0.43331(14) 0.57249(12)
O10_4 O 0.25580(19) 0.33202(15) 0.72614(13)
H15_4 H 0.2454 0.2794 0.7429
H16_4 H 0.2660 0.3660 0.7668
C10_4 C 0.9716(3) 0.34816(17) 0.47305(16)
H4_4 H 0.9953 0.2146 0.3771
C18_4 C 0.9328(3) 0.4747(2) 0.70610(19)
H7_4 H 0.8785 0.4335 0.6818
C19_4 C 0.8896(3) 0.5397(2) 0.7535(2)
H8_4 H 0.8073 0.5413 0.7609
C22_4 C 0.9669(3) 0.60292(18) 0.79054(17)
C23_4 C 0.9246(3) 0.67018(18) 0.84688(17)
C25_4 C 0.9573(3) 0.7949(2) 0.9353(2)
C26_4 C 0.8066(3) 0.6699(2) 0.8678(2)
H13_4 H 0.7518 0.6277 0.8457
C27_4 C 0.7702(3) 0.7315(2) 0.9210(2)
H14_4 H 0.6899 0.7302 0.9332
O6_4 O 0.87195(17) 0.33864(14) 0.43166(12)
O7_4 O 0.97999(19) 0.37867(15) 0.54222(12)
C1_4 C 0.8995(2) 0.87871(18) 0.18553(17)
C2_4 C 0.9734(3) 0.92601(18) 0.25377(17)
C7_4 C 0.9792(3) 0.89285(18) 0.33207(17)
C8_4 C 0.9382(3) 0.7995(2) 0.34930(19)
O2_4 O 0.8250(2) 0.82187(14) 0.20140(13)
C6_3 C 0.9684(3) 0.05608(19) 0.60514(18)
H3_3 H 0.9656 0.0778 0.5531
C6_4 C 0.0316(3) 0.94392(19) 0.39486(18)
H3_4 H 0.0344 0.9222 0.4469
loop_
_geom_bond_atom_site_label_1
_geom_bond_atom_site_label_2
_geom_bond_site_symmetry_1
_geom_bond_site_symmetry_2
Zn2 N1 1_555 1_555
C18 H7 1_555 1_555
N1 C18 1_555 1_555
O7 Zn2 1_555 1_555
O8 Zn2 1_555 1_555
O10 Zn2 1_555 1_555
H15 O10 1_555 1_555
H16 O10 1_555 1_555
O12 Zn2 1_555 1_555
O13 Zn2 1_555 1_555
Zn1 O6 1_555 1_555
C1 C2 1_555 1_555
C2 C3 1_555 1_555
C3 H1 1_555 1_555
C4 C3 1_555 1_555
C5 C4 1_555 1_555
H2 C5 1_555 1_555
C6 C5 1_555 1_555
H3 C6 1_555 1_555
C7 C2 1_555 1_555
C8 C7 1_555 1_555
C9 C4 1_555 1_555
C10 C11 1_555 1_555
C11 C12 1_555 1_555
C12 H4 1_555 1_555
C13 C9 1_555 1_555
C14 C13 1_555 1_555
H5 C14 1_555 1_555
C15 C14 1_555 1_555
H6 C15 1_555 1_555
C16 C11 1_555 1_555
C17 C16 1_555 1_555
O1 C1 1_555 1_555
O2 C1 1_555 1_555
O3 C8 1_555 1_555
O4 C8 1_555 1_555
O5 C9 1_555 1_555
O6 C10 1_555 1_555
Zn4 O1 1_555 1_555
Zn6 O3 1_555 1_555
O11 Zn1 1_555 1_555
C6 C7 1_555 1_555
C12 C13 1_555 1_555
C15 C16 1_555 1_555
O4 Zn6 1_555 1_555
H8 C19 1_555 1_555
C20 H9 1_555 1_555
C21 C20 1_555 1_555
H10 C21 1_555 1_555
C22 C19 1_555 1_555
C23 C22 1_555 1_555
C24 C23 1_555 1_555
H11 C24 1_555 1_555
C25 C24 1_555 1_555
H12 C25 1_555 1_555
C26 C23 1_555 1_555
H13 C26 1_555 1_555
C27 C26 1_555 1_555
H14 C27 1_555 1_555
N2 C25 1_555 1_555
Zn4 N2 1_555 1_555
C21 C22 1_555 1_555
C27 N2 1_555 1_555
C1_2 C2_2 1_555 1_555
C7_2 C2_2 1_555 1_555
C8_2 C7_2 1_555 1_555
O11 C1_2 1_555 1_555
O2_2 C1_2 1_555 1_555
O3_2 C8_2 1_555 1_555
O4_2 C8_2 1_555 1_555
Zn6_2 O3_2 1_555 1_555
O4_2 Zn6_2 1_555 1_555
Zn4 O6_2 1_555 1_555
C18_2 H7_2 1_555 1_555
C19_2 C18_2 1_555 1_555
H8_2 C19_2 1_555 1_555
C22_2 C19_2 1_555 1_555
C23_2 C22_2 1_555 1_555
C26_2 C23_2 1_555 1_555
H13_2 C26_2 1_555 1_555
C27_2 C26_2 1_555 1_555
H14_2 C27_2 1_555 1_555
N3 C25_2 1_555 1_555
O6_2 C10_2 1_555 1_555
O14_2 Zn4 1_555 1_555
C10_2 O7_2 1_555 1_555
C27_2 N3 1_555 1_555
Zn2_2 N1_2 1_555 1_555
C3_2 H1_2 1_555 1_555
C4_2 C3_2 1_555 1_555
C5_2 C4_2 1_555 1_555
H2_2 C5_2 1_555 1_555
C9_2 C4_2 1_555 1_555
C11_2 C12_2 1_555 1_555
C13_2 C9_2 1_555 1_555
C14_2 C13_2 1_555 1_555
H5_2 C14_2 1_555 1_555
C15_2 C14_2 1_555 1_555
H6_2 C15_2 1_555 1_555
C16_2 C11_2 1_555 1_555
C17_2 C16_2 1_555 1_555
C20_2 H9_2 1_555 1_555
C21_2 C20_2 1_555 1_555
H10_2 C21_2 1_555 1_555
H11_2 C24_2 1_555 1_555
O5_2 C9_2 1_555 1_555
O8_2 Zn2_2 1_555 1_555
O9_2 C17_2 1_555 1_555
O10_2 Zn2_2 1_555 1_555
H15_2 O10_2 1_555 1_555
H16_2 O10_2 1_555 1_555
Zn5_2 O9_2 1_555 1_555
O12_2 Zn2_2 1_555 1_555
O13_2 Zn2_2 1_555 1_555
C12_2 C13_2 1_555 1_555
C15_2 C16_2 1_555 1_555
C17_2 O8_2 1_555 1_555
C20_2 N1_2 1_555 1_555
H8_3 C19_3 1_555 1_555
C20_3 H9_3 1_555 1_555
C21_3 C20_3 1_555 1_555
H10_3 C21_3 1_555 1_555
C22_3 C19_3 1_555 1_555
C23_3 C22_3 1_555 1_555
C24_3 C23_3 1_555 1_555
H11_3 C24_3 1_555 1_555
C25_3 C24_3 1_555 1_555
H12_3 C25_3 1_555 1_555
C26_3 C23_3 1_555 1_555
H13_3 C26_3 1_555 1_555
C27_3 C26_3 1_555 1_555
H14_3 C27_3 1_555 1_555
N2_2 C25_3 1_555 1_555
Zn5_2 N2_2 1_555 1_555
C21_3 C22_3 1_555 1_555
C27_3 N2_2 1_555 1_555
Zn5 O6_3 1_555 1_555
C1_3 C2_3 1_555 1_555
C2_3 C3_3 1_555 1_555
C3_3 H1_3 1_555 1_555
C4_3 C3_3 1_555 1_555
C5_3 C4_3 1_555 1_555
H2_3 C5_3 1_555 1_555
C6_2 C5_3 1_555 1_555
H3_2 C6_2 1_555 1_555
C7_3 C2_3 1_555 1_555
C8_3 C7_3 1_555 1_555
C9_3 C4_3 1_555 1_555
C10_3 C11_3 1_555 1_555
C11_3 C12_3 1_555 1_555
C12_3 H4_3 1_555 1_555
C13_3 C9_3 1_555 1_555
C14_3 C13_3 1_555 1_555
H5_3 C14_3 1_555 1_555
C15_3 C14_3 1_555 1_555
H6_3 C15_3 1_555 1_555
C16_3 C11_3 1_555 1_555
C17_3 C16_3 1_555 1_555
O1_2 C1_3 1_555 1_555
O2_3 C1_3 1_555 1_555
O12 C8_3 1_555 1_555
O13 C8_3 1_555 1_555
O5_3 C9_3 1_555 1_555
O6_3 C10_3 1_555 1_555
Zn5_2 O1_2 1_555 1_555
O11_2 Zn5 1_555 1_555
C6_2 C7_3 1_555 1_555
C12_3 C13_3 1_555 1_555
C15_3 C16_3 1_555 1_555
Zn6 N1_3 1_555 1_555
C18_3 H7_3 1_555 1_555
N1_3 C18_3 1_555 1_555
O7_3 Zn6 1_555 1_555
O8_3 Zn6 1_555 1_555
O10_3 Zn6 1_555 1_555
H15_3 O10_3 1_555 1_555
H16_3 O10_3 1_555 1_555
Zn6_2 N1_4 1_555 1_555
C3_4 H1_4 1_555 1_555
C4_4 C3_4 1_555 1_555
C5_4 C4_4 1_555 1_555
H2_4 C5_4 1_555 1_555
C9_4 C4_4 1_555 1_555
C11_4 C12_4 1_555 1_555
C13_4 C9_4 1_555 1_555
C14_4 C13_4 1_555 1_555
H5_4 C14_4 1_555 1_555
C15_4 C14_4 1_555 1_555
H6_4 C15_4 1_555 1_555
C16_4 C11_4 1_555 1_555
C17_4 C16_4 1_555 1_555
C20_4 H9_4 1_555 1_555
C21_4 C20_4 1_555 1_555
H10_4 C21_4 1_555 1_555
H11_4 C24_4 1_555 1_555
O5_4 C9_4 1_555 1_555
O8_4 Zn6_2 1_555 1_555
O14_2 C17_4 1_555 1_555
O10_4 Zn6_2 1_555 1_555
H15_4 O10_4 1_555 1_555
H16_4 O10_4 1_555 1_555
C12_4 C13_4 1_555 1_555
C15_4 C16_4 1_555 1_555
C17_4 O8_4 1_555 1_555
C20_4 N1_4 1_555 1_555
Zn5_2 O6_4 1_555 1_555
C18_4 H7_4 1_555 1_555
C19_4 C18_4 1_555 1_555
H8_4 C19_4 1_555 1_555
C22_4 C19_4 1_555 1_555
C23_4 C22_4 1_555 1_555
C26_4 C23_4 1_555 1_555
H13_4 C26_4 1_555 1_555
C27_4 C26_4 1_555 1_555
H14_4 C27_4 1_555 1_555
N3_2 C25_4 1_555 1_555
O6_4 C10_4 1_555 1_555
C10_4 O7_4 1_555 1_555
C27_4 N3_2 1_555 1_555
C1_4 C2_4 1_555 1_555
C7_4 C2_4 1_555 1_555
C8_4 C7_4 1_555 1_555
O11_2 C1_4 1_555 1_555
O2_4 C1_4 1_555 1_555
O12_2 C8_4 1_555 1_555
O13_2 C8_4 1_555 1_555
H3_3 C6_3 1_555 1_555
H3_4 C6_4 1_555 1_555

#END
