
###############################################################################
#
# This file contains modified crystal structure data generated from the
# MOF subset of the Cambridge Structural Database (CSD) v543 
# hosted by the Cambridge Crystallographic Data Centre (CCDC).
#
# This work is licensed under the Creative Commons
# Attribution-NonCommercial-ShareAlike 4.0 International License.
# To view a copy of this license, visit
# http://creativecommons.org/licenses/by-nc-sa/4.0/
# or send a letter to
# Creative Commons, PO Box 1866, Mountain View, CA 94042, USA.
#
# CIF created using the CSD Python API on 29 September 2022
# The structure has been converted into the P1 space group
# The structure has a 3D framework
# The original CSD entry YAWKOX is in the orthorhombic crystal system
# The framework has been calculated to contain at least 10.0% void space
# The void calculation uses a probe of radius 1.32A, grid spacing 0.4
# H atom positions have been added when not included in the experimental data
# Generated hydrogen atom positions removed from atoms on special positions
#
###############################################################################

data_YAWKOX
_chemical_formula_moiety         '(C60 H136 O64 Pr8)n'
_symmetry_cell_setting           triclinic
_symmetry_space_group_name_H-M   'P 1'
_symmetry_Int_Tables_number      1
_space_group_name_Hall           'P 1'
loop_
_symmetry_equiv_pos_site_id
_symmetry_equiv_pos_as_xyz
1 x,y,z
_cell_length_a                   8.717(4)
_cell_length_b                   31.05(2)
_cell_length_c                   13.083(9)
_cell_angle_alpha                90
_cell_angle_beta                 90
_cell_angle_gamma                90
_cell_volume                     3541.08
loop_
_atom_site_label
_atom_site_type_symbol
_atom_site_fract_x
_atom_site_fract_y
_atom_site_fract_z
C2 C 0.3419(10) 0.0984(2) 0.1036(5)
H1 H 0.3829 0.1262 0.1239
H2 H 0.2400 0.0956 0.1325
C3 C 0.4459(9) 0.0622(2) 0.1452(5)
H3 H 0.4664 0.0674 0.2170
H4 H 0.5430 0.0627 0.1091
C4 C 0.3720(8) 0.0180(2) 0.1326(5)
H5 H 0.3551 0.0127 0.0604
H6 H 0.2725 0.0183 0.1659
Pr1 Pr 0.33122(4) 0.093304(10) 0.76085(2)
O1 O 0.2125(5) 0.08462(15) 0.9421(4)
O2 O 0.4523(5) 0.10492(15) 0.9352(3)
C1 C 0.3323(8) 0.09612(19) 0.9869(5)
O5 O 0.2681(5) 0.16865(13) 0.8238(4)
O6 O 0.0568(5) 0.13472(14) 0.7838(4)
C6 C 0.1264(7) 0.16907(19) 0.8125(5)
C7 C 0.0359(8) 0.2091(2) 0.8361(6)
H7 H 0.0044 0.2084 0.9072
C8 C 0.1254(11) 0.2500 0.8169(9)
H9 H 0.2155 0.2500 0.8604
H10 H 0.1604 0.2500 0.7465
O7 O 0.2459(6) 0.13140(16) 0.5976(4)
O8 O 0.4327(5) 0.05091(17) 0.6013(4)
Pr5 Pr 0.33122(4) 0.406696(10) 0.76085(2)
Pr7 Pr 0.83122(4) 0.093304(10) 0.73915(2)
C13 C 0.5354(8) 0.0185(2) 0.8243(5)
O11 O 0.3915(5) 0.01751(14) 0.8262(4)
O12 O 0.6056(5) 0.05114(14) 0.7870(3)
O13 O 0.1056(5) 0.05114(14) 0.7130(3)
O15 O 0.2681(5) 0.33135(13) 0.8238(4)
O17 O 0.0568(5) 0.36528(14) 0.7838(4)
O18 O 0.5568(5) 0.13472(14) 0.7162(4)
C14 C 0.1264(7) 0.33093(19) 0.8125(5)
C15 C 0.0359(8) 0.2909(2) 0.8361(6)
H17 H 0.0044 0.2916 0.9072
C5 C 0.4646(8) 0.9815(2) 0.1757(5)
O3 O 0.6085(5) 0.98249(14) 0.1738(4)
O4 O 0.3944(5) 0.94886(14) 0.2130(3)
Pr2 Pr 0.66878(4) 0.906696(10) 0.23915(2)
Pr3 Pr 0.16878(4) 0.906696(10) 0.26085(2)
O9 O 0.7875(5) 0.91538(15) 0.0579(4)
O10 O 0.5477(5) 0.89508(15) 0.0648(3)
C9 C 0.6677(8) 0.90388(19) 0.0131(5)
O14 O 0.8944(5) 0.94886(14) 0.2870(3)
O16 O 0.7319(5) 0.83135(13) 0.1762(4)
O19 O 0.9432(5) 0.86528(14) 0.2162(4)
O20 O 0.4432(5) 0.86528(14) 0.2838(4)
O21 O 0.7541(6) 0.86860(16) 0.4024(4)
O22 O 0.5673(5) 0.94909(17) 0.3987(4)
H8 H 0.9439 0.2094 0.7944
Pr6 Pr 0.83122(4) 0.406696(10) 0.73915(2)
H18 H 0.9439 0.2906 0.7944
C5_2 C 0.0354(8) 0.0185(2) 0.6757(5)
H14 H 0.0430 0.0627 0.3909
H25 H 0.0388086 0.0407387 0.885291
O1_2 O 0.2875(5) 0.91538(15) 0.4421(4)
O2_2 O 0.0477(5) 0.89508(15) 0.4352(3)
C1_2 C 0.1677(8) 0.90388(19) 0.4869(5)
C2_2 C 0.1581(10) 0.9016(2) 0.6036(5)
H1_2 H 0.1171 0.8738 0.6239
H2_2 H 0.2600 0.9044 0.6325
C3_2 C 0.0541(9) 0.9378(2) 0.6452(5)
H3_2 H 0.0336 0.9326 0.7170
C4_2 C 0.1280(8) 0.9820(2) 0.6326(5)
H5_2 H 0.1449 0.9873 0.5604
H6_2 H 0.2275 0.9817 0.6659
O5_2 O 0.2319(5) 0.83135(13) 0.3238(4)
C6_2 C 0.3736(7) 0.83093(19) 0.3125(5)
C7_2 C 0.4641(8) 0.7909(2) 0.3361(6)
H7_2 H 0.4956 0.7916 0.4072
H8_2 H 0.5561 0.7906 0.2944
C8_2 C 0.3746(11) 0.7500 0.3169(9)
H9_2 H 0.2845 0.7500 0.3604
H10_2 H 0.3396 0.7500 0.2465
O7_2 O 0.2541(6) 0.86860(16) 0.0976(4)
O8_2 O 0.0673(5) 0.94909(17) 0.1013(4)
Pr5_2 Pr 0.16878(4) 0.593304(10) 0.26085(2)
Pr6_2 Pr 0.66878(4) 0.593304(10) 0.23915(2)
O11_2 O 0.1085(5) 0.98249(14) 0.3262(4)
O15_2 O 0.2319(5) 0.66865(13) 0.3238(4)
O17_2 O 0.4432(5) 0.63472(14) 0.2838(4)
C14_2 C 0.3736(7) 0.66907(19) 0.3125(5)
C15_2 C 0.4641(8) 0.7091(2) 0.3361(6)
H17_2 H 0.4956 0.7084 0.4072
H18_2 H 0.5561 0.7094 0.2944
O3_2 O 0.8915(5) 0.01751(14) 0.6738(4)
O9_2 O 0.7125(5) 0.08462(15) 0.5579(4)
O10_2 O 0.9523(5) 0.10492(15) 0.5648(3)
C9_2 C 0.8323(8) 0.09612(19) 0.5131(5)
C10 C 0.8419(10) 0.0984(2) 0.3964(5)
H11 H 0.8829 0.1262 0.3761
H12 H 0.7400 0.0956 0.3675
C11 C 0.9459(9) 0.0622(2) 0.3548(5)
H13 H 0.9664 0.0674 0.2830
C12 C 0.8720(8) 0.0180(2) 0.3674(5)
H15 H 0.8551 0.0127 0.4396
H16 H 0.7725 0.0183 0.3341
O16_2 O 0.7681(5) 0.16865(13) 0.6762(4)
O21_2 O 0.7459(6) 0.13140(16) 0.9024(4)
O22_2 O 0.9327(5) 0.05091(17) 0.8987(4)
H4_2 H 0.9570 0.9373 0.6091
C13_2 C 0.9646(8) 0.9815(2) 0.3243(5)
H4_3 H 0.0430 0.4373 0.3909
O3_3 O 0.1085(5) 0.51751(14) 0.3262(4)
O9_3 O 0.2875(5) 0.58462(15) 0.4421(4)
O10_3 O 0.0477(5) 0.60492(15) 0.4352(3)
C9_3 C 0.1677(8) 0.59612(19) 0.4869(5)
C10_2 C 0.1581(10) 0.5984(2) 0.6036(5)
H11_2 H 0.1171 0.6262 0.6239
H12_2 H 0.2600 0.5956 0.6325
C11_2 C 0.0541(9) 0.5622(2) 0.6452(5)
H13_2 H 0.0336 0.5674 0.7170
C12_2 C 0.1280(8) 0.5180(2) 0.6326(5)
H15_2 H 0.1449 0.5127 0.5604
H16_2 H 0.2275 0.5183 0.6659
C13_3 C 0.0354(8) 0.4815(2) 0.6757(5)
O12_2 O 0.1056(5) 0.44886(14) 0.7130(3)
O14_2 O 0.3944(5) 0.55114(14) 0.2130(3)
O21_3 O 0.2541(6) 0.63140(16) 0.0976(4)
O22_3 O 0.0673(5) 0.55091(17) 0.1013(4)
O1_3 O 0.7125(5) 0.41538(15) 0.5579(4)
O2_3 O 0.9523(5) 0.39508(15) 0.5648(3)
C1_3 C 0.8323(8) 0.40388(19) 0.5131(5)
C2_3 C 0.8419(10) 0.4016(2) 0.3964(5)
H1_3 H 0.8829 0.3738 0.3761
H2_3 H 0.7400 0.4044 0.3675
C3_3 C 0.9459(9) 0.4378(2) 0.3548(5)
H3_3 H 0.9664 0.4326 0.2830
C4_3 C 0.8720(8) 0.4820(2) 0.3674(5)
H5_3 H 0.8551 0.4873 0.4396
H6_3 H 0.7725 0.4817 0.3341
C5_3 C 0.9646(8) 0.5185(2) 0.3243(5)
O4_2 O 0.8944(5) 0.55114(14) 0.2870(3)
O5_3 O 0.7681(5) 0.33135(13) 0.6762(4)
O6_2 O 0.5568(5) 0.36528(14) 0.7162(4)
C6_3 C 0.6264(7) 0.33093(19) 0.6875(5)
C7_3 C 0.5359(8) 0.2909(2) 0.6639(6)
H7_3 H 0.5044 0.2916 0.5928
H8_3 H 0.4439 0.2906 0.7056
C8_3 C 0.6254(11) 0.2500 0.6831(9)
H9_3 H 0.7155 0.2500 0.6396
H10_3 H 0.6604 0.2500 0.7535
O7_3 O 0.7459(6) 0.36860(16) 0.9024(4)
O8_3 O 0.9327(5) 0.44909(17) 0.8987(4)
H14_2 H 0.9570 0.5627 0.6091
O11_3 O 0.8915(5) 0.48249(14) 0.6738(4)
O13_2 O 0.6056(5) 0.44886(14) 0.7870(3)
O20_2 O 0.9432(5) 0.63472(14) 0.2162(4)
C14_3 C 0.6264(7) 0.16907(19) 0.6875(5)
C15_3 C 0.5359(8) 0.2091(2) 0.6639(6)
H17_3 H 0.5044 0.2084 0.5928
H18_3 H 0.4439 0.2094 0.7056
H25_2 H 0.961191 0.540739 0.114709
H8_4 H 0.0561 0.7094 0.2056
H18_4 H 0.0561 0.7906 0.2056
O1_4 O 0.7875(5) 0.58462(15) 0.0579(4)
O2_4 O 0.5477(5) 0.60492(15) 0.0648(3)
C1_4 C 0.6677(8) 0.59612(19) 0.0131(5)
O5_4 O 0.7319(5) 0.66865(13) 0.1762(4)
C6_4 C 0.8736(7) 0.66907(19) 0.1875(5)
C7_4 C 0.9641(8) 0.7091(2) 0.1639(6)
H7_4 H 0.9956 0.7084 0.0928
C8_4 C 0.8746(11) 0.7500 0.1831(9)
H9_4 H 0.7845 0.7500 0.1396
H10_4 H 0.8396 0.7500 0.2535
O7_4 O 0.7541(6) 0.63140(16) 0.4024(4)
O8_4 O 0.5673(5) 0.55091(17) 0.3987(4)
C10_3 C 0.3419(10) 0.4016(2) 0.1036(5)
H11_3 H 0.3829 0.3738 0.1239
H12_3 H 0.2400 0.4044 0.1325
C11_3 C 0.4459(9) 0.4378(2) 0.1452(5)
H13_3 H 0.4664 0.4326 0.2170
H14_3 H 0.5430 0.4373 0.1091
C12_3 C 0.3720(8) 0.4820(2) 0.1326(5)
H15_3 H 0.3551 0.4873 0.0604
H16_3 H 0.2725 0.4817 0.1659
C13_4 C 0.4646(8) 0.5185(2) 0.1757(5)
O11_4 O 0.6085(5) 0.51751(14) 0.1738(4)
C14_4 C 0.8736(7) 0.83093(19) 0.1875(5)
C15_4 C 0.9641(8) 0.7909(2) 0.1639(6)
H17_4 H 0.9956 0.7916 0.0928
C2_4 C 0.6581(10) 0.5984(2) 0.8964(5)
H1_4 H 0.6171 0.6262 0.8761
H2_4 H 0.7600 0.5956 0.8675
C3_4 C 0.5541(9) 0.5622(2) 0.8548(5)
H3_4 H 0.5336 0.5674 0.7830
H4_4 H 0.4570 0.5627 0.8909
C4_4 C 0.6280(8) 0.5180(2) 0.8674(5)
H5_4 H 0.6449 0.5127 0.9396
H6_4 H 0.7275 0.5183 0.8341
C5_4 C 0.5354(8) 0.4815(2) 0.8243(5)
O3_4 O 0.3915(5) 0.48249(14) 0.8262(4)
O9_4 O 0.2125(5) 0.41538(15) 0.9421(4)
O10_4 O 0.4523(5) 0.39508(15) 0.9352(3)
C9_4 C 0.3323(8) 0.40388(19) 0.9869(5)
O21_4 O 0.2459(6) 0.36860(16) 0.5976(4)
O22_4 O 0.4327(5) 0.44909(17) 0.6013(4)
H25_3 H 0.961191 0.959261 0.114709
H25_4 H 0.0388086 0.459261 0.885291
C10_4 C 0.6581(10) 0.9016(2) 0.8964(5)
H11_4 H 0.6171 0.8738 0.8761
H12_4 H 0.7600 0.9044 0.8675
C11_4 C 0.5541(9) 0.9378(2) 0.8548(5)
H13_4 H 0.5336 0.9326 0.7830
H14_4 H 0.4570 0.9373 0.8909
C12_4 C 0.6280(8) 0.9820(2) 0.8674(5)
H15_4 H 0.6449 0.9873 0.9396
H16_4 H 0.7275 0.9817 0.8341
loop_
_geom_bond_atom_site_label_1
_geom_bond_atom_site_label_2
_geom_bond_site_symmetry_1
_geom_bond_site_symmetry_2
H1 C2 1_555 1_555
H2 C2 1_555 1_555
C3 C2 1_555 1_555
H3 C3 1_555 1_555
H4 C3 1_555 1_555
C4 C3 1_555 1_555
H5 C4 1_555 1_555
H6 C4 1_555 1_555
Pr1 O1 1_555 1_555
O1 C1 1_555 1_555
O2 Pr1 1_555 1_555
C1 O2 1_555 1_555
O5 Pr1 1_555 1_555
O6 Pr1 1_555 1_555
C6 O5 1_555 1_555
C7 C6 1_555 1_555
H7 C7 1_555 1_555
C8 C7 1_555 1_555
H9 C8 1_555 1_555
H10 C8 1_555 1_555
O7 Pr1 1_555 1_555
O8 Pr1 1_555 1_555
Pr5 O15 1_555 1_555
Pr7 O12 1_555 1_555
O11 Pr1 1_555 1_555
O12 Pr1 1_555 1_555
O13 Pr1 1_555 1_555
O15 C14 1_555 1_555
O17 Pr5 1_555 1_555
O18 Pr1 1_555 1_555
C14 O17 1_555 1_555
C15 C8 1_555 1_555
H17 C15 1_555 1_555
O6 C6 1_555 1_555
Pr7 O18 1_555 1_555
C13 O11 1_555 1_555
C13 O12 1_555 1_555
C14 C15 1_555 1_555
O3 C5 1_555 1_555
O4 C5 1_555 1_555
Pr2 O3 1_555 1_555
Pr3 O4 1_555 1_555
O9 Pr2 1_555 1_555
O10 Pr2 1_555 1_555
C9 O9 1_555 1_555
O14 Pr2 1_555 1_555
O16 Pr2 1_555 1_555
O19 Pr2 1_555 1_555
O20 Pr2 1_555 1_555
O21 Pr2 1_555 1_555
O22 Pr2 1_555 1_555
O4 Pr2 1_555 1_555
Pr3 O20 1_555 1_555
O10 C9 1_555 1_555
O13 C5_2 1_555 1_555
Pr3 O1_2 1_555 1_555
O1_2 C1_2 1_555 1_555
O2_2 Pr3 1_555 1_555
C1_2 O2_2 1_555 1_555
C2_2 C1_2 1_555 1_555
H1_2 C2_2 1_555 1_555
H2_2 C2_2 1_555 1_555
C3_2 C2_2 1_555 1_555
H3_2 C3_2 1_555 1_555
C4_2 C3_2 1_555 1_555
H5_2 C4_2 1_555 1_555
H6_2 C4_2 1_555 1_555
O5_2 Pr3 1_555 1_555
C6_2 O5_2 1_555 1_555
C7_2 C6_2 1_555 1_555
H7_2 C7_2 1_555 1_555
H8_2 C7_2 1_555 1_555
C8_2 C7_2 1_555 1_555
H9_2 C8_2 1_555 1_555
H10_2 C8_2 1_555 1_555
O7_2 Pr3 1_555 1_555
O8_2 Pr3 1_555 1_555
Pr5_2 O15_2 1_555 1_555
Pr6_2 O17_2 1_555 1_555
O11_2 Pr3 1_555 1_555
O15_2 C14_2 1_555 1_555
O17_2 Pr5_2 1_555 1_555
C14_2 O17_2 1_555 1_555
C15_2 C8_2 1_555 1_555
H17_2 C15_2 1_555 1_555
H18_2 C15_2 1_555 1_555
O20 C6_2 1_555 1_555
C14_2 C15_2 1_555 1_555
Pr7 O3_2 1_555 1_555
O9_2 Pr7 1_555 1_555
O10_2 Pr7 1_555 1_555
C9_2 O9_2 1_555 1_555
C10 C9_2 1_555 1_555
H11 C10 1_555 1_555
H12 C10 1_555 1_555
C11 C10 1_555 1_555
H13 C11 1_555 1_555
C12 C11 1_555 1_555
H15 C12 1_555 1_555
H16 C12 1_555 1_555
O16_2 Pr7 1_555 1_555
O21_2 Pr7 1_555 1_555
O22_2 Pr7 1_555 1_555
O10_2 C9_2 1_555 1_555
C13_2 O14 1_555 1_555
Pr5_2 O3_3 1_555 1_555
Pr5 O12_2 1_555 1_555
O9_3 Pr5_2 1_555 1_555
O10_3 Pr5_2 1_555 1_555
C9_3 O9_3 1_555 1_555
C10_2 C9_3 1_555 1_555
H11_2 C10_2 1_555 1_555
H12_2 C10_2 1_555 1_555
C11_2 C10_2 1_555 1_555
H13_2 C11_2 1_555 1_555
C12_2 C11_2 1_555 1_555
H15_2 C12_2 1_555 1_555
H16_2 C12_2 1_555 1_555
C13_3 C12_2 1_555 1_555
O14_2 Pr5_2 1_555 1_555
O21_3 Pr5_2 1_555 1_555
O22_3 Pr5_2 1_555 1_555
O10_3 C9_3 1_555 1_555
C13_3 O12_2 1_555 1_555
Pr6 O1_3 1_555 1_555
O1_3 C1_3 1_555 1_555
O2_3 Pr6 1_555 1_555
C1_3 O2_3 1_555 1_555
C2_3 C1_3 1_555 1_555
H1_3 C2_3 1_555 1_555
H2_3 C2_3 1_555 1_555
C3_3 C2_3 1_555 1_555
H3_3 C3_3 1_555 1_555
C4_3 C3_3 1_555 1_555
H5_3 C4_3 1_555 1_555
H6_3 C4_3 1_555 1_555
C5_3 C4_3 1_555 1_555
O4_2 C5_3 1_555 1_555
O5_3 Pr6 1_555 1_555
O6_2 Pr6 1_555 1_555
C6_3 O5_3 1_555 1_555
C7_3 C6_3 1_555 1_555
H7_3 C7_3 1_555 1_555
H8_3 C7_3 1_555 1_555
C8_3 C7_3 1_555 1_555
H9_3 C8_3 1_555 1_555
H10_3 C8_3 1_555 1_555
O7_3 Pr6 1_555 1_555
O8_3 Pr6 1_555 1_555
Pr6_2 O4_2 1_555 1_555
Pr5 O6_2 1_555 1_555
O11_3 Pr6 1_555 1_555
O13_2 Pr6 1_555 1_555
O16_2 C14_3 1_555 1_555
C14_3 O18 1_555 1_555
C15_3 C8_3 1_555 1_555
H17_3 C15_3 1_555 1_555
H18_3 C15_3 1_555 1_555
O6_2 C6_3 1_555 1_555
Pr6_2 O20_2 1_555 1_555
Pr5 O13_2 1_555 1_555
C14_3 C15_3 1_555 1_555
Pr6_2 O1_4 1_555 1_555
O1_4 C1_4 1_555 1_555
O2_4 Pr6_2 1_555 1_555
C1_4 O2_4 1_555 1_555
O5_4 Pr6_2 1_555 1_555
C6_4 O5_4 1_555 1_555
C7_4 C6_4 1_555 1_555
H7_4 C7_4 1_555 1_555
C8_4 C7_4 1_555 1_555
H9_4 C8_4 1_555 1_555
H10_4 C8_4 1_555 1_555
O7_4 Pr6_2 1_555 1_555
O8_4 Pr6_2 1_555 1_555
H11_3 C10_3 1_555 1_555
H12_3 C10_3 1_555 1_555
C11_3 C10_3 1_555 1_555
H13_3 C11_3 1_555 1_555
H14_3 C11_3 1_555 1_555
C12_3 C11_3 1_555 1_555
H15_3 C12_3 1_555 1_555
H16_3 C12_3 1_555 1_555
C13_4 C12_3 1_555 1_555
O11_4 Pr6_2 1_555 1_555
O14_2 Pr6_2 1_555 1_555
O16 C14_4 1_555 1_555
C14_4 O19 1_555 1_555
C15_4 C8_4 1_555 1_555
H17_4 C15_4 1_555 1_555
O20_2 C6_4 1_555 1_555
C13_4 O11_4 1_555 1_555
C13_4 O14_2 1_555 1_555
C14_4 C15_4 1_555 1_555
H1_4 C2_4 1_555 1_555
H2_4 C2_4 1_555 1_555
C3_4 C2_4 1_555 1_555
H3_4 C3_4 1_555 1_555
H4_4 C3_4 1_555 1_555
C4_4 C3_4 1_555 1_555
H5_4 C4_4 1_555 1_555
H6_4 C4_4 1_555 1_555
C5_4 C4_4 1_555 1_555
O3_4 C5_4 1_555 1_555
O13_2 C5_4 1_555 1_555
Pr5 O3_4 1_555 1_555
O9_4 Pr5 1_555 1_555
O10_4 Pr5 1_555 1_555
C9_4 O9_4 1_555 1_555
O21_4 Pr5 1_555 1_555
O22_4 Pr5 1_555 1_555
O10_4 C9_4 1_555 1_555
H11_4 C10_4 1_555 1_555
H12_4 C10_4 1_555 1_555
C11_4 C10_4 1_555 1_555
H13_4 C11_4 1_555 1_555
H14_4 C11_4 1_555 1_555
C12_4 C11_4 1_555 1_555
H15_4 C12_4 1_555 1_555
H16_4 C12_4 1_555 1_555

#END
