
###############################################################################
#
# This file contains modified crystal structure data generated from the
# MOF subset of the Cambridge Structural Database (CSD) v543 
# hosted by the Cambridge Crystallographic Data Centre (CCDC).
#
# This work is licensed under the Creative Commons
# Attribution-NonCommercial-ShareAlike 4.0 International License.
# To view a copy of this license, visit
# http://creativecommons.org/licenses/by-nc-sa/4.0/
# or send a letter to
# Creative Commons, PO Box 1866, Mountain View, CA 94042, USA.
#
# CIF created using the CSD Python API on 29 September 2022
# The structure has been converted into the P1 space group
# The structure has a 3D framework
# The original CSD entry YAWXED is in the monoclinic crystal system
# The framework has been calculated to contain at least 10.0% void space
# The void calculation uses a probe of radius 1.32A, grid spacing 0.4
# H atom positions have been added when not included in the experimental data
#
###############################################################################

data_YAWXED
_chemical_formula_moiety         '(C128 H80 Cd8 N12 O32)n'
_symmetry_cell_setting           triclinic
_symmetry_space_group_name_H-M   'P 1'
_symmetry_Int_Tables_number      1
_space_group_name_Hall           'P 1'
loop_
_symmetry_equiv_pos_site_id
_symmetry_equiv_pos_as_xyz
1 x,y,z
_cell_length_a                   10.258(16)
_cell_length_b                   11.749(19)
_cell_length_c                   33.27(5)
_cell_angle_alpha                90
_cell_angle_beta                 92.21(2)
_cell_angle_gamma                90
_cell_volume                     4006.76
loop_
_atom_site_label
_atom_site_type_symbol
_atom_site_fract_x
_atom_site_fract_y
_atom_site_fract_z
C4 C 0.178(3) -0.000(3) 0.0257(11)
H1 H 0.2058 0.0638 0.0399
N7 N 0.647(2) 0.1149(9) 0.2154(7)
Cd1 Cd 0.64485(17) 0.91476(15) 0.21145(6)
N2 N 0.647(3) 0.737(3) 0.2157(10)
O4 O 0.114(4) 0.644(3) 0.0637(11)
O8 O 0.3698(19) 0.9189(16) 0.2257(8)
O9 O 0.4791(15) 0.9182(17) 0.1629(6)
C2 C 0.100(3) 0.804(3) 0.0270(11)
C3 C 0.136(2) 0.905(3) 0.0484(9)
C4_2 C 0.178(3) 1.000(3) 0.0257(11)
C8 C 0.044(5) 0.707(4) 0.0485(14)
C9 C 0.133(3) 0.904(3) 0.0920(9)
C10 C 0.012(2) 0.904(2) 0.1131(8)
C11 C 0.013(2) 0.902(2) 0.1542(10)
C12 C 0.130(2) 0.916(2) 0.1783(7)
H5 H 0.1288 0.9294 0.2058
C13 C 0.241(2) 0.909(2) 0.1590(10)
C14 C 0.242(2) 0.912(2) 0.1167(9)
H6 H 0.3223 0.9185 0.1048
C16 C 0.373(2) 0.911(2) 0.1889(15)
C22 C 0.621(3) 0.6578(15) 0.1860(11)
C23 C 0.623(3) 0.555(2) 0.1834(10)
H11 H 0.6119 0.5272 0.1573
C24 C 0.640(2) 0.4658(11) 0.2147(9)
C25 C 0.676(2) 0.5461(14) 0.2512(9)
H12 H 0.7085 0.5136 0.2751
C26 C 0.662(3) 0.6645(18) 0.2494(14)
C27 C 0.651(3) 0.3307(19) 0.2179(11)
C28 C 0.625(4) 0.3072(15) 0.1820(12)
H13 H 0.6058 0.3562 0.1606
C29 C 0.632(4) 0.170(3) 0.1820(11)
H14 H 0.6246 0.1301 0.1578
C30 C 0.679(2) 0.173(2) 0.2471(10)
H15 H 0.7055 0.1322 0.2699
C31 C 0.677(3) 0.300(3) 0.2513(11)
H16 H 0.6915 0.3435 0.2744
Cd10 Cd 0.35515(17) 0.91476(15) 0.28855(6)
O23 O 0.8750(15) 0.9176(18) 0.2112(6)
O25 O 0.7792(17) 0.9052(19) 0.1542(6)
O28 O 0.6302(19) 0.9189(16) 0.2743(8)
H35 H 0.590969 0.697724 0.157589
H38 H 0.6628 0.707261 0.278449
Cd2 Cd 0.0601(4) 0.4949(3) 0.92440(9)
N3 N 0.029(3) 0.496(3) 0.8577(9)
O1 O 0.289(3) 0.461(3) 0.9192(11)
O2 O 0.078(4) 0.601(5) 0.9791(10)
O3 O 0.092(4) 0.696(2) 0.9257(9)
C1 C 0.113(3) 0.805(3) 0.9852(12)
C6 C 0.151(4) 0.906(3) 0.9661(10)
H3 H 0.1570 0.9055 0.9382
C7 C 0.090(5) 0.690(5) 0.9620(9)
C17 C 0.029(3) 0.595(2) 0.8326(12)
H7 H 0.0340 0.6661 0.8449
C18 C 0.021(3) 0.591(3) 0.7917(9)
H8 H 0.0263 0.6570 0.7766
C19 C 0.004(3) 0.487(2) 0.7726(9)
C20 C 0.005(3) 0.398(3) 0.7940(9)
C21 C 0.017(3) 0.402(3) 0.8366(10)
H10 H 0.0167 0.3337 0.8505
H19 H 0.0030 0.3280 0.7186
O14 O 0.071(4) 0.694(2) 0.4520(10)
O15 O 0.1250(15) 0.9176(18) 0.2888(6)
O16 O 0.2208(17) 0.9052(19) 0.3458(6)
H24 H 0.0669 0.9049 0.4015
C51 C 0.124(3) 0.907(2) 0.3261(10)
Cd12 Cd 0.0601(4) 0.5051(3) 0.42440(9)
O20 O 0.114(4) 0.356(3) 0.5637(11)
O21 O 0.071(4) 0.306(2) 0.9520(10)
H33 H 0.328628 0.524379 0.904153
H34 H 0.330831 0.456278 0.946566
C40 C 0.822(3) -0.000(3) 0.4743(11)
H21 H 0.7942 0.0638 0.4601
C41 C 0.820(4) 0.004(3) 0.5146(13)
H22 H 0.7996 0.0701 0.5282
N8 N 0.353(2) 0.1149(9) 0.2846(7)
O5 O 0.929(4) 0.694(2) 0.0480(10)
H4 H 0.9331 0.9049 0.0985
C15 C 0.876(3) 0.907(2) 0.1739(10)
Cd11 Cd 0.9399(4) 0.5051(3) 0.07560(9)
H9 H 0.9970 0.3280 0.7814
N4 N 0.971(3) 0.496(3) 0.6423(9)
C32 C 0.971(3) 0.595(2) 0.6674(12)
H17 H 0.9660 0.6661 0.6551
C33 C 0.979(3) 0.591(3) 0.7083(9)
H18 H 0.9737 0.6570 0.7234
C34 C 0.996(3) 0.487(2) 0.7274(9)
C35 C 0.995(3) 0.398(3) 0.7060(9)
C36 C 0.983(3) 0.402(3) 0.6634(10)
H20 H 0.9833 0.3337 0.6495
Cd4 Cd 0.9399(4) 0.4949(3) 0.57560(9)
N6 N 0.353(3) 0.737(3) 0.2843(10)
O10 O 0.711(3) 0.461(3) 0.5808(11)
O11 O 0.922(4) 0.601(5) 0.5209(10)
O12 O 0.908(4) 0.696(2) 0.5743(9)
O13 O 0.886(4) 0.644(3) 0.4363(11)
O18 O 0.5209(15) 0.9182(17) 0.3371(6)
C37 C 0.887(3) 0.805(3) 0.5148(12)
C38 C 0.900(3) 0.804(3) 0.4730(11)
C39 C 0.864(2) 0.905(3) 0.4516(9)
C40_2 C 0.822(3) 1.000(3) 0.4743(11)
C42 C 0.849(4) 0.906(3) 0.5339(10)
H23 H 0.8430 0.9055 0.5618
C43 C 0.910(5) 0.690(5) 0.5380(9)
C44 C 0.956(5) 0.707(4) 0.4515(14)
C45 C 0.867(3) 0.904(3) 0.4080(9)
C46 C 0.988(2) 0.904(2) 0.3869(8)
C47 C 0.987(2) 0.902(2) 0.3458(10)
C48 C 0.870(2) 0.916(2) 0.3217(7)
H25 H 0.8712 0.9294 0.2942
C49 C 0.759(2) 0.909(2) 0.3410(10)
C50 C 0.758(2) 0.912(2) 0.3833(9)
H26 H 0.6777 0.9185 0.3952
C52 C 0.627(2) 0.911(2) 0.3111(15)
C53 C 0.379(3) 0.6578(15) 0.3140(11)
C54 C 0.377(3) 0.555(2) 0.3166(10)
H27 H 0.3881 0.5272 0.3427
C55 C 0.360(2) 0.4658(11) 0.2853(9)
C56 C 0.324(2) 0.5461(14) 0.2488(9)
H28 H 0.2915 0.5136 0.2249
C57 C 0.338(3) 0.6645(18) 0.2506(14)
C58 C 0.349(3) 0.3307(19) 0.2821(11)
C59 C 0.375(4) 0.3072(15) 0.3180(12)
H29 H 0.3942 0.3562 0.3394
C60 C 0.368(4) 0.170(3) 0.3180(11)
H30 H 0.3754 0.1301 0.3422
C61 C 0.321(2) 0.173(2) 0.2529(10)
H31 H 0.2945 0.1322 0.2301
C62 C 0.323(3) 0.300(3) 0.2487(11)
H32 H 0.3085 0.3435 0.2256
O19 O 0.886(4) 0.356(3) 0.9363(11)
O22 O 0.929(4) 0.306(2) 0.5480(10)
H36 H 0.671372 0.524379 0.595847
H37 H 0.669169 0.456278 0.553434
H39 H 0.409031 0.697724 0.342411
H40 H 0.3372 0.707261 0.221551
Cd8 Cd 0.64485(17) 0.08524(15) 0.71145(6)
H9_2 H 0.0030 0.6720 0.2186
N4_2 N 0.029(3) 0.504(3) 0.3577(9)
C32_2 C 0.029(3) 0.405(2) 0.3326(12)
H17_2 H 0.0340 0.3339 0.3449
C33_2 C 0.021(3) 0.409(3) 0.2917(9)
H18_2 H 0.0263 0.3430 0.2766
C34_2 C 0.004(3) 0.513(2) 0.2726(9)
C35_2 C 0.005(3) 0.602(3) 0.2940(9)
C36_2 C 0.017(3) 0.598(3) 0.3366(10)
H20_2 H 0.0167 0.6663 0.3505
N5 N 0.647(2) 0.8851(9) 0.7154(7)
N6_2 N 0.647(3) 0.263(3) 0.7157(10)
O10_2 O 0.289(3) 0.539(3) 0.4192(11)
O11_2 O 0.078(4) 0.399(5) 0.4791(10)
O12_2 O 0.092(4) 0.304(2) 0.4257(9)
O17 O 0.3698(19) 0.0811(16) 0.7257(8)
O18_2 O 0.4791(15) 0.0818(17) 0.6629(6)
C37_2 C 0.113(3) 0.195(3) 0.4852(12)
C38_2 C 0.100(3) 0.196(3) 0.5270(11)
C39_2 C 0.136(2) 0.095(3) 0.5484(9)
C40_3 C 0.178(3) 0.000(3) 0.5257(11)
C42_2 C 0.151(4) 0.094(3) 0.4661(10)
H23_2 H 0.1570 0.0945 0.4382
C43_2 C 0.090(5) 0.310(5) 0.4620(9)
C44_2 C 0.044(5) 0.293(4) 0.5485(14)
C45_2 C 0.133(3) 0.096(3) 0.5920(9)
C46_2 C 0.012(2) 0.096(2) 0.6131(8)
C47_2 C 0.013(2) 0.098(2) 0.6542(10)
C48_2 C 0.130(2) 0.084(2) 0.6783(7)
H25_2 H 0.1288 0.0706 0.7058
C49_2 C 0.241(2) 0.091(2) 0.6590(10)
C50_2 C 0.242(2) 0.088(2) 0.6167(9)
H26_2 H 0.3223 0.0815 0.6048
C52_2 C 0.373(2) 0.089(2) 0.6889(15)
C53_2 C 0.621(3) 0.3422(15) 0.6860(11)
C54_2 C 0.623(3) 0.445(2) 0.6834(10)
H27_2 H 0.6119 0.4728 0.6573
C55_2 C 0.640(2) 0.5342(11) 0.7147(9)
C56_2 C 0.676(2) 0.4539(14) 0.7512(9)
H28_2 H 0.7085 0.4864 0.7751
C57_2 C 0.662(3) 0.3355(18) 0.7494(14)
C58_2 C 0.651(3) 0.6693(19) 0.7179(11)
C59_2 C 0.625(4) 0.6928(15) 0.6820(12)
H29_2 H 0.6058 0.6438 0.6606
C60_2 C 0.632(4) 0.830(3) 0.6820(11)
H30_2 H 0.6246 0.8699 0.6578
C61_2 C 0.679(2) 0.827(2) 0.7471(10)
H31_2 H 0.7055 0.8678 0.7699
C62_2 C 0.677(3) 0.700(3) 0.7513(11)
H32_2 H 0.6915 0.6565 0.7744
Cd5 Cd 0.35515(17) 0.08524(15) 0.78855(6)
O24 O 0.8750(15) 0.0824(18) 0.7112(6)
O26 O 0.7792(17) 0.0948(19) 0.6542(6)
O27 O 0.6302(19) 0.0811(16) 0.7743(8)
H36_2 H 0.328628 0.475621 0.404153
H37_2 H 0.330831 0.543722 0.446566
H39_2 H 0.590969 0.302276 0.657589
H40_2 H 0.6628 0.292739 0.778449
O6 O 0.1250(15) 0.0824(18) 0.7888(6)
O7 O 0.2208(17) 0.0948(19) 0.8458(6)
H4_2 H 0.0669 0.0951 0.9015
C15_2 C 0.124(3) 0.093(2) 0.8261(10)
C40_4 C 0.178(3) 1.000(3) 0.5257(11)
H21_2 H 0.2058 0.9362 0.5399
C41_2 C 0.180(4) 0.996(3) 0.4854(13)
H22_2 H 0.2004 0.9299 0.4718
N3_2 N 0.971(3) 0.504(3) 0.1423(9)
O1_2 O 0.711(3) 0.539(3) 0.0808(11)
O2_2 O 0.922(4) 0.399(5) 0.0209(10)
O3_2 O 0.908(4) 0.304(2) 0.0743(9)
C1_2 C 0.887(3) 0.195(3) 0.0148(12)
C6_2 C 0.849(4) 0.094(3) 0.0339(10)
H3_2 H 0.8430 0.0945 0.0618
C7_2 C 0.910(5) 0.310(5) 0.0380(9)
C17_2 C 0.971(3) 0.405(2) 0.1674(12)
H7_2 H 0.9660 0.3339 0.1551
C18_2 C 0.979(3) 0.409(3) 0.2083(9)
H8_2 H 0.9737 0.3430 0.2234
C19_2 C 0.996(3) 0.513(2) 0.2274(9)
C20_2 C 0.995(3) 0.602(3) 0.2060(9)
C21_2 C 0.983(3) 0.598(3) 0.1634(10)
H10_2 H 0.9833 0.6663 0.1495
H19_2 H 0.9970 0.6720 0.2814
H24_2 H 0.9331 0.0951 0.5985
C51_2 C 0.876(3) 0.093(2) 0.6739(10)
H33_2 H 0.671372 0.475621 0.0958473
H34_2 H 0.669169 0.543722 0.0534336
N1 N 0.353(2) 0.8851(9) 0.7846(7)
N2_2 N 0.353(3) 0.263(3) 0.7843(10)
O9_2 O 0.5209(15) 0.0818(17) 0.8371(6)
C2_2 C 0.900(3) 0.196(3) 0.9730(11)
C3_2 C 0.864(2) 0.095(3) 0.9516(9)
C4_3 C 0.822(3) 0.000(3) 0.9743(11)
C8_2 C 0.956(5) 0.293(4) 0.9515(14)
C9_2 C 0.867(3) 0.096(3) 0.9080(9)
C10_2 C 0.988(2) 0.096(2) 0.8869(8)
C11_2 C 0.987(2) 0.098(2) 0.8458(10)
C12_2 C 0.870(2) 0.084(2) 0.8217(7)
H5_2 H 0.8712 0.0706 0.7942
C13_2 C 0.759(2) 0.091(2) 0.8410(10)
C14_2 C 0.758(2) 0.088(2) 0.8833(9)
H6_2 H 0.6777 0.0815 0.8952
C16_2 C 0.627(2) 0.089(2) 0.8111(15)
C22_2 C 0.379(3) 0.3422(15) 0.8140(11)
C23_2 C 0.377(3) 0.445(2) 0.8166(10)
H11_2 H 0.3881 0.4728 0.8427
C24_2 C 0.360(2) 0.5342(11) 0.7853(9)
C25_2 C 0.324(2) 0.4539(14) 0.7488(9)
H12_2 H 0.2915 0.4864 0.7249
C26_2 C 0.338(3) 0.3355(18) 0.7506(14)
C27_2 C 0.349(3) 0.6693(19) 0.7821(11)
C28_2 C 0.375(4) 0.6928(15) 0.8180(12)
H13_2 H 0.3942 0.6438 0.8394
C29_2 C 0.368(4) 0.830(3) 0.8180(11)
H14_2 H 0.3754 0.8699 0.8422
C30_2 C 0.321(2) 0.827(2) 0.7529(10)
H15_2 H 0.2945 0.8678 0.7301
C31_2 C 0.323(3) 0.700(3) 0.7487(11)
H16_2 H 0.3085 0.6565 0.7256
H35_2 H 0.409031 0.302276 0.842411
H38_2 H 0.3372 0.292739 0.721551
C4_4 C 0.822(3) 1.000(3) 0.9743(11)
H1_2 H 0.7942 0.9362 0.9601
C5 C 0.180(4) 0.004(3) 0.9854(13)
H2 H 0.2004 0.0701 0.9718
C5_2 C 0.820(4) 0.996(3) 0.0146(13)
H2_2 H 0.7996 0.9299 0.0282
loop_
_geom_bond_atom_site_label_1
_geom_bond_atom_site_label_2
_geom_bond_site_symmetry_1
_geom_bond_site_symmetry_2
C4 H1 1_555 1_555
Cd1 N2 1_555 1_555
N7 C29 1_555 1_555
N2 C22 1_555 1_555
O4 C8 1_555 1_555
O8 C16 1_555 1_555
O9 Cd1 1_555 1_555
C2 C3 1_555 1_555
C3 C4_2 1_555 1_555
C8 C2 1_555 1_555
C9 C3 1_555 1_555
C10 C9 1_555 1_555
C11 C10 1_555 1_555
C12 C11 1_555 1_555
H5 C12 1_555 1_555
C13 C12 1_555 1_555
C14 C9 1_555 1_555
H6 C14 1_555 1_555
C16 O9 1_555 1_555
C22 C23 1_555 1_555
C23 H11 1_555 1_555
C24 C23 1_555 1_555
C25 C24 1_555 1_555
H12 C25 1_555 1_555
C26 N2 1_555 1_555
C27 C24 1_555 1_555
C28 C27 1_555 1_555
H13 C28 1_555 1_555
C29 C28 1_555 1_555
H14 C29 1_555 1_555
C30 N7 1_555 1_555
H15 C30 1_555 1_555
C31 C27 1_555 1_555
H16 C31 1_555 1_555
Cd10 O8 1_555 1_555
O23 Cd1 1_555 1_555
O25 Cd1 1_555 1_555
O28 Cd1 1_555 1_555
C13 C14 1_555 1_555
C13 C16 1_555 1_555
C25 C26 1_555 1_555
C30 C31 1_555 1_555
C22 H35 1_555 1_555
C26 H38 1_555 1_555
Cd2 N3 1_555 1_555
N3 C17 1_555 1_555
O1 Cd2 1_555 1_555
O2 Cd2 1_555 1_555
O3 Cd2 1_555 1_555
C6 C1 1_555 1_555
H3 C6 1_555 1_555
C7 O2 1_555 1_555
C17 H7 1_555 1_555
C18 C17 1_555 1_555
H8 C18 1_555 1_555
C19 C18 1_555 1_555
C20 C19 1_555 1_555
C21 N3 1_555 1_555
H10 C21 1_555 1_555
O15 C51 1_555 1_555
O16 C51 1_555 1_555
Cd10 O15 1_555 1_555
O21 Cd2 1_555 1_555
O3 C7 1_555 1_555
C1 C7 1_555 1_555
C20 C21 1_555 1_555
O14 Cd12 1_555 1_555
O16 Cd10 1_555 1_555
O1 H33 1_555 1_555
O1 H34 1_555 1_555
C40 H21 1_555 1_555
C41 C40 1_555 1_555
H22 C41 1_555 1_555
O23 C15 1_555 1_555
O25 C15 1_555 1_555
O5 Cd11 1_555 1_555
N4 C32 1_555 1_555
C32 H17 1_555 1_555
C33 C32 1_555 1_555
H18 C33 1_555 1_555
C35 C34 1_555 1_555
C36 N4 1_555 1_555
H20 C36 1_555 1_555
Cd10 N6 1_555 1_555
Cd4 N4 1_555 1_555
N8 C60 1_555 1_555
N6 C53 1_555 1_555
O10 Cd4 1_555 1_555
O11 Cd4 1_555 1_555
O12 Cd4 1_555 1_555
O13 C44 1_555 1_555
O28 C52 1_555 1_555
O18 Cd10 1_555 1_555
C37 C38 1_555 1_555
C38 C39 1_555 1_555
C39 C40_2 1_555 1_555
C42 C37 1_555 1_555
H23 C42 1_555 1_555
C43 O11 1_555 1_555
C44 C38 1_555 1_555
C45 C39 1_555 1_555
C46 C45 1_555 1_555
C47 C46 1_555 1_555
C48 C47 1_555 1_555
H25 C48 1_555 1_555
C49 C48 1_555 1_555
C50 C45 1_555 1_555
H26 C50 1_555 1_555
C52 O18 1_555 1_555
C53 C54 1_555 1_555
C54 H27 1_555 1_555
C55 C54 1_555 1_555
C56 C55 1_555 1_555
H28 C56 1_555 1_555
C57 N6 1_555 1_555
C58 C55 1_555 1_555
C59 C58 1_555 1_555
H29 C59 1_555 1_555
C60 C59 1_555 1_555
H30 C60 1_555 1_555
C61 N8 1_555 1_555
H31 C61 1_555 1_555
C62 C58 1_555 1_555
H32 C62 1_555 1_555
O22 Cd4 1_555 1_555
C33 C34 1_555 1_555
C35 C36 1_555 1_555
O12 C43 1_555 1_555
C37 C43 1_555 1_555
C49 C50 1_555 1_555
C49 C52 1_555 1_555
C56 C57 1_555 1_555
C61 C62 1_555 1_555
O10 H36 1_555 1_555
O10 H37 1_555 1_555
C53 H39 1_555 1_555
C57 H40 1_555 1_555
N4_2 C32_2 1_555 1_555
C32_2 H17_2 1_555 1_555
C33_2 C32_2 1_555 1_555
H18_2 C33_2 1_555 1_555
C35_2 C34_2 1_555 1_555
C36_2 N4_2 1_555 1_555
H20_2 C36_2 1_555 1_555
Cd8 N6_2 1_555 1_555
Cd12 N4_2 1_555 1_555
N5 C60_2 1_555 1_555
N6_2 C53_2 1_555 1_555
O10_2 Cd12 1_555 1_555
O11_2 Cd12 1_555 1_555
O12_2 Cd12 1_555 1_555
O20 C44_2 1_555 1_555
O17 C52_2 1_555 1_555
O18_2 Cd8 1_555 1_555
C37_2 C38_2 1_555 1_555
C38_2 C39_2 1_555 1_555
C39_2 C40_3 1_555 1_555
C42_2 C37_2 1_555 1_555
H23_2 C42_2 1_555 1_555
C43_2 O11_2 1_555 1_555
C44_2 C38_2 1_555 1_555
C45_2 C39_2 1_555 1_555
C46_2 C45_2 1_555 1_555
C47_2 C46_2 1_555 1_555
C48_2 C47_2 1_555 1_555
H25_2 C48_2 1_555 1_555
C49_2 C48_2 1_555 1_555
C50_2 C45_2 1_555 1_555
H26_2 C50_2 1_555 1_555
C52_2 O18_2 1_555 1_555
C53_2 C54_2 1_555 1_555
C54_2 H27_2 1_555 1_555
C55_2 C54_2 1_555 1_555
C56_2 C55_2 1_555 1_555
H28_2 C56_2 1_555 1_555
C57_2 N6_2 1_555 1_555
C58_2 C55_2 1_555 1_555
C59_2 C58_2 1_555 1_555
H29_2 C59_2 1_555 1_555
C60_2 C59_2 1_555 1_555
H30_2 C60_2 1_555 1_555
C61_2 N5 1_555 1_555
H31_2 C61_2 1_555 1_555
C62_2 C58_2 1_555 1_555
H32_2 C62_2 1_555 1_555
Cd5 O17 1_555 1_555
O24 Cd8 1_555 1_555
O26 Cd8 1_555 1_555
O27 Cd8 1_555 1_555
C33_2 C34_2 1_555 1_555
C35_2 C36_2 1_555 1_555
O12_2 C43_2 1_555 1_555
C37_2 C43_2 1_555 1_555
C49_2 C50_2 1_555 1_555
C49_2 C52_2 1_555 1_555
C56_2 C57_2 1_555 1_555
C61_2 C62_2 1_555 1_555
O10_2 H36_2 1_555 1_555
O10_2 H37_2 1_555 1_555
C53_2 H39_2 1_555 1_555
C57_2 H40_2 1_555 1_555
O6 C15_2 1_555 1_555
O7 C15_2 1_555 1_555
Cd5 O6 1_555 1_555
O7 Cd5 1_555 1_555
C40_4 H21_2 1_555 1_555
C41_2 C40_4 1_555 1_555
H22_2 C41_2 1_555 1_555
Cd11 N3_2 1_555 1_555
N3_2 C17_2 1_555 1_555
O1_2 Cd11 1_555 1_555
O2_2 Cd11 1_555 1_555
O3_2 Cd11 1_555 1_555
C6_2 C1_2 1_555 1_555
H3_2 C6_2 1_555 1_555
C7_2 O2_2 1_555 1_555
C17_2 H7_2 1_555 1_555
C18_2 C17_2 1_555 1_555
H8_2 C18_2 1_555 1_555
C19_2 C18_2 1_555 1_555
C20_2 C19_2 1_555 1_555
C21_2 N3_2 1_555 1_555
H10_2 C21_2 1_555 1_555
O24 C51_2 1_555 1_555
O26 C51_2 1_555 1_555
O3_2 C7_2 1_555 1_555
C1_2 C7_2 1_555 1_555
C20_2 C21_2 1_555 1_555
O1_2 H33_2 1_555 1_555
O1_2 H34_2 1_555 1_555
Cd5 N2_2 1_555 1_555
N1 C29_2 1_555 1_555
N2_2 C22_2 1_555 1_555
O19 C8_2 1_555 1_555
O27 C16_2 1_555 1_555
O9_2 Cd5 1_555 1_555
C2_2 C3_2 1_555 1_555
C3_2 C4_3 1_555 1_555
C8_2 C2_2 1_555 1_555
C9_2 C3_2 1_555 1_555
C10_2 C9_2 1_555 1_555
C11_2 C10_2 1_555 1_555
C12_2 C11_2 1_555 1_555
H5_2 C12_2 1_555 1_555
C13_2 C12_2 1_555 1_555
C14_2 C9_2 1_555 1_555
H6_2 C14_2 1_555 1_555
C16_2 O9_2 1_555 1_555
C22_2 C23_2 1_555 1_555
C23_2 H11_2 1_555 1_555
C24_2 C23_2 1_555 1_555
C25_2 C24_2 1_555 1_555
H12_2 C25_2 1_555 1_555
C26_2 N2_2 1_555 1_555
C27_2 C24_2 1_555 1_555
C28_2 C27_2 1_555 1_555
H13_2 C28_2 1_555 1_555
C29_2 C28_2 1_555 1_555
H14_2 C29_2 1_555 1_555
C30_2 N1 1_555 1_555
H15_2 C30_2 1_555 1_555
C31_2 C27_2 1_555 1_555
H16_2 C31_2 1_555 1_555
C13_2 C14_2 1_555 1_555
C13_2 C16_2 1_555 1_555
C25_2 C26_2 1_555 1_555
C30_2 C31_2 1_555 1_555
C22_2 H35_2 1_555 1_555
C26_2 H38_2 1_555 1_555
C4_4 H1_2 1_555 1_555
H2 C5 1_555 1_555
H2_2 C5_2 1_555 1_555

#END
