
###############################################################################
#
# This file contains modified crystal structure data generated from the
# MOF subset of the Cambridge Structural Database (CSD) v543 
# hosted by the Cambridge Crystallographic Data Centre (CCDC).
#
# This work is licensed under the Creative Commons
# Attribution-NonCommercial-ShareAlike 4.0 International License.
# To view a copy of this license, visit
# http://creativecommons.org/licenses/by-nc-sa/4.0/
# or send a letter to
# Creative Commons, PO Box 1866, Mountain View, CA 94042, USA.
#
# CIF created using the CSD Python API on 29 September 2022
# The structure has been converted into the P1 space group
# The structure has a 3D framework
# The original CSD entry YAXBEI is in the monoclinic crystal system
# The framework has been calculated to contain at least 10.0% void space
# The void calculation uses a probe of radius 1.32A, grid spacing 0.4
#
###############################################################################

data_YAXBEI
_chemical_formula_moiety         '(C56 H36 Cu2 N4 O20)n'
_symmetry_cell_setting           triclinic
_symmetry_space_group_name_H-M   'P 1'
_symmetry_Int_Tables_number      1
_space_group_name_Hall           'P 1'
loop_
_symmetry_equiv_pos_site_id
_symmetry_equiv_pos_as_xyz
1 x,y,z
_cell_length_a                   10.6950(2)
_cell_length_b                   11.7640(3)
_cell_length_c                   14.5702(3)
_cell_angle_alpha                90
_cell_angle_beta                 107.409(2)
_cell_angle_gamma                90
_cell_volume                     1749.19
loop_
_atom_site_label
_atom_site_type_symbol
_atom_site_fract_x
_atom_site_fract_y
_atom_site_fract_z
H5 H 0.3984 0.6748 0.0102
O5 O 0.2932(6) 0.4840(3) 0.9764(6)
N1 N 0.2616(3) 0.7879(2) 0.9589(2)
C9 C 0.0456(3) 0.7071(3) 0.8993(2)
C10 C 0.1312(3) 0.7994(3) 0.9216(2)
H4 H 0.0964 0.8723 0.9101
C11 C 0.3093(4) 0.6832(3) 0.9792(4)
C12 C 0.2330(5) 0.5863(4) 0.9566(6)
C13 C 0.0969(4) 0.5999(4) 0.9167(4)
H6 H 0.0422 0.5367 0.9023
C14 C 0.2389(11) 0.3870(8) 0.9298(9)
H7 H 0.2954 0.3237 0.9550
H8 H 0.2281 0.3948 0.8623
H9 H 0.1550 0.3744 0.9395
Cu3 Cu 0.40292(4) 0.92427(3) 0.98011(3)
Cu5 Cu 0.59708(4) 0.07573(3) 0.01989(3)
Cu1 Cu 0.59708(4) 0.42427(3) 0.51989(3)
O1 O 0.6793(2) 0.9749(2) 0.94711(19)
O2 O 0.5133(2) 0.8502(2) 0.90864(18)
O3 O 0.5172(2) 0.6416(2) 0.60176(17)
O4 O 0.6811(2) 0.5148(2) 0.63471(17)
C1 C 0.6240(3) 0.8858(3) 0.9086(2)
C2 C 0.6980(3) 0.8116(3) 0.8587(2)
C3 C 0.8346(3) 0.8026(3) 0.8959(2)
H1 H 0.8803 0.8499 0.9459
C4 C 0.9015(3) 0.7234(3) 0.8581(2)
C5 C 0.8330(3) 0.6563(3) 0.7802(2)
H2 H 0.8773 0.6015 0.7560
C6 C 0.6988(3) 0.6710(3) 0.7386(2)
C7 C 0.6307(3) 0.7471(3) 0.7794(2)
H3 H 0.5404 0.7546 0.7536
C8 C 0.6271(3) 0.6035(3) 0.6520(2)
Cu4 Cu 0.40292(4) 0.57573(3) 0.48011(3)
O6 O 0.6793(2) 0.5251(2) 0.44711(19)
O7 O 0.4867(2) 0.3502(2) 0.59136(18)
O8 O 0.4828(2) 0.3584(2) 0.39824(17)
N2 N 0.7384(3) 0.2879(2) 0.5411(2)
O6_2 O 0.3207(2) 0.0251(2) 0.05289(19)
O1_2 O 0.3207(2) 0.4749(2) 0.55289(19)
O3_2 O 0.4828(2) 0.1416(2) 0.89824(17)
O4_2 O 0.3189(2) 0.0148(2) 0.86529(17)
C1_2 C 0.3760(3) 0.3858(3) 0.5914(2)
C2_2 C 0.3020(3) 0.3116(3) 0.6413(2)
C3_2 C 0.1654(3) 0.3026(3) 0.6041(2)
H1_2 H 0.1197 0.3499 0.5541
C4_2 C 0.0985(3) 0.2234(3) 0.6419(2)
C5_2 C 0.1670(3) 0.1563(3) 0.7198(2)
H2_2 H 0.1227 0.1015 0.7440
C6_2 C 0.3012(3) 0.1710(3) 0.7614(2)
C7_2 C 0.3693(3) 0.2471(3) 0.7206(2)
H3_2 H 0.4596 0.2546 0.7464
C8_2 C 0.3729(3) 0.1035(3) 0.8480(2)
O8_2 O 0.5172(2) 0.8584(2) 0.10176(17)
C9_2 C 0.9544(3) 0.2071(3) 0.6007(2)
C10_2 C 0.8688(3) 0.2994(3) 0.5784(2)
H4_2 H 0.9036 0.3723 0.5899
C11_2 C 0.6907(4) 0.1832(3) 0.5208(4)
H5_2 H 0.6016 0.1748 0.4898
C12_2 C 0.7670(5) 0.0863(4) 0.5434(6)
C13_2 C 0.9031(4) 0.0999(4) 0.5833(4)
H6_2 H 0.9578 0.0367 0.5977
O2_2 O 0.4867(2) 0.1498(2) 0.09136(18)
O4_3 O 0.3189(2) 0.4852(2) 0.36529(17)
C1_3 C 0.3760(3) 0.1142(3) 0.0914(2)
C2_3 C 0.3020(3) 0.1884(3) 0.1413(2)
C3_3 C 0.1654(3) 0.1974(3) 0.1041(2)
H1_3 H 0.1197 0.1501 0.0541
C4_3 C 0.0985(3) 0.2766(3) 0.1419(2)
C5_3 C 0.1670(3) 0.3437(3) 0.2198(2)
H2_3 H 0.1227 0.3985 0.2440
C6_3 C 0.3012(3) 0.3290(3) 0.2614(2)
C7_3 C 0.3693(3) 0.2529(3) 0.2206(2)
H3_3 H 0.4596 0.2454 0.2464
C8_3 C 0.3729(3) 0.3965(3) 0.3480(2)
O7_2 O 0.5133(2) 0.6498(2) 0.40864(18)
N2_2 N 0.2616(3) 0.7121(2) 0.4589(2)
O5_2 O 0.7068(6) 0.5160(3) 0.0236(6)
N1_2 N 0.7384(3) 0.2121(2) 0.0411(2)
C9_3 C 0.9544(3) 0.2929(3) 0.1007(2)
C10_3 C 0.8688(3) 0.2006(3) 0.0784(2)
H4_3 H 0.9036 0.1277 0.0899
C11_3 C 0.6907(4) 0.3168(3) 0.0208(4)
C12_3 C 0.7670(5) 0.4137(4) 0.0434(6)
C13_3 C 0.9031(4) 0.4001(4) 0.0833(4)
H6_3 H 0.9578 0.4633 0.0977
C14_2 C 0.7611(11) 0.6130(8) 0.0702(9)
H7_2 H 0.7046 0.6763 0.0450
H8_2 H 0.7719 0.6052 0.1377
H9_2 H 0.8450 0.6256 0.0605
C9_4 C 0.0456(3) 0.7929(3) 0.3993(2)
C10_4 C 0.1312(3) 0.7006(3) 0.4216(2)
H4_4 H 0.0964 0.6277 0.4101
C11_4 C 0.3093(4) 0.8168(3) 0.4792(4)
H5_3 H 0.3984 0.8252 0.5102
C12_4 C 0.2330(5) 0.9137(4) 0.4566(6)
C13_4 C 0.0969(4) 0.9001(4) 0.4167(4)
H6_4 H 0.0422 0.9633 0.4023
O4_4 O 0.6811(2) 0.9852(2) 0.13471(17)
C1_4 C 0.6240(3) 0.6142(3) 0.4086(2)
C2_4 C 0.6980(3) 0.6884(3) 0.3587(2)
C3_4 C 0.8346(3) 0.6974(3) 0.3959(2)
H1_4 H 0.8803 0.6501 0.4459
C4_4 C 0.9015(3) 0.7766(3) 0.3581(2)
C5_4 C 0.8330(3) 0.8437(3) 0.2802(2)
H2_4 H 0.8773 0.8985 0.2560
C6_4 C 0.6988(3) 0.8290(3) 0.2386(2)
C7_4 C 0.6307(3) 0.7529(3) 0.2794(2)
H3_4 H 0.5404 0.7454 0.2536
C8_4 C 0.6271(3) 0.8965(3) 0.1520(2)
O5_3 O 0.7068(6) 0.9840(3) 0.5236(6)
C14_3 C 0.7611(11) 0.8870(8) 0.5702(9)
H7_3 H 0.7046 0.8237 0.5450
H8_3 H 0.7719 0.8948 0.6377
H9_3 H 0.8450 0.8744 0.5605
H5_4 H 0.6016 0.3252 0.9898
O5_4 O 0.2932(6) 0.0160(3) 0.4764(6)
C14_4 C 0.2389(11) 0.1130(8) 0.4298(9)
H7_4 H 0.2954 0.1763 0.4550
H8_4 H 0.2281 0.1052 0.3623
H9_4 H 0.1550 0.1256 0.4395
loop_
_geom_bond_atom_site_label_1
_geom_bond_atom_site_label_2
_geom_bond_site_symmetry_1
_geom_bond_site_symmetry_2
O5 C12 1_555 1_555
N1 C10 1_555 1_555
C10 C9 1_555 1_555
H4 C10 1_555 1_555
C11 N1 1_555 1_555
C12 C11 1_555 1_555
C13 C9 1_555 1_555
H6 C13 1_555 1_555
C14 O5 1_555 1_555
H7 C14 1_555 1_555
H8 C14 1_555 1_555
H9 C14 1_555 1_555
Cu3 N1 1_555 1_555
C12 C13 1_555 1_555
Cu1 O4 1_555 1_555
O1 C1 1_555 1_555
O2 C1 1_555 1_555
O3 C8 1_555 1_555
O4 C8 1_555 1_555
C1 C2 1_555 1_555
C2 C3 1_555 1_555
C3 H1 1_555 1_555
C4 C3 1_555 1_555
C5 C4 1_555 1_555
H2 C5 1_555 1_555
C6 C5 1_555 1_555
C7 C2 1_555 1_555
H3 C7 1_555 1_555
C8 C6 1_555 1_555
Cu3 O2 1_555 1_555
Cu4 O3 1_555 1_555
O6 Cu1 1_555 1_555
O7 Cu1 1_555 1_555
O8 Cu1 1_555 1_555
N2 Cu1 1_555 1_555
C6 C7 1_555 1_555
O1_2 C1_2 1_555 1_555
O7 C1_2 1_555 1_555
O3_2 C8_2 1_555 1_555
O4_2 C8_2 1_555 1_555
C1_2 C2_2 1_555 1_555
C2_2 C3_2 1_555 1_555
C3_2 H1_2 1_555 1_555
C4_2 C3_2 1_555 1_555
C5_2 C4_2 1_555 1_555
H2_2 C5_2 1_555 1_555
C6_2 C5_2 1_555 1_555
C7_2 C2_2 1_555 1_555
H3_2 C7_2 1_555 1_555
C8_2 C6_2 1_555 1_555
Cu4 O1_2 1_555 1_555
C6_2 C7_2 1_555 1_555
N2 C10_2 1_555 1_555
C10_2 C9_2 1_555 1_555
H4_2 C10_2 1_555 1_555
C11_2 N2 1_555 1_555
H5_2 C11_2 1_555 1_555
C12_2 C11_2 1_555 1_555
C13_2 C9_2 1_555 1_555
H6_2 C13_2 1_555 1_555
C12_2 C13_2 1_555 1_555
Cu4 O4_3 1_555 1_555
O6_2 C1_3 1_555 1_555
O2_2 C1_3 1_555 1_555
O8 C8_3 1_555 1_555
O4_3 C8_3 1_555 1_555
C1_3 C2_3 1_555 1_555
C2_3 C3_3 1_555 1_555
C3_3 H1_3 1_555 1_555
C4_3 C3_3 1_555 1_555
C5_3 C4_3 1_555 1_555
H2_3 C5_3 1_555 1_555
C6_3 C5_3 1_555 1_555
C7_3 C2_3 1_555 1_555
H3_3 C7_3 1_555 1_555
C8_3 C6_3 1_555 1_555
Cu5 O2_2 1_555 1_555
O7_2 Cu4 1_555 1_555
N2_2 Cu4 1_555 1_555
C6_3 C7_3 1_555 1_555
O5_2 C12_3 1_555 1_555
N1_2 C10_3 1_555 1_555
C10_3 C9_3 1_555 1_555
H4_3 C10_3 1_555 1_555
C11_3 N1_2 1_555 1_555
C12_3 C11_3 1_555 1_555
C13_3 C9_3 1_555 1_555
H6_3 C13_3 1_555 1_555
C14_2 O5_2 1_555 1_555
H7_2 C14_2 1_555 1_555
H8_2 C14_2 1_555 1_555
H9_2 C14_2 1_555 1_555
Cu5 N1_2 1_555 1_555
C12_3 C13_3 1_555 1_555
N2_2 C10_4 1_555 1_555
C10_4 C9_4 1_555 1_555
H4_4 C10_4 1_555 1_555
C11_4 N2_2 1_555 1_555
H5_3 C11_4 1_555 1_555
C12_4 C11_4 1_555 1_555
C13_4 C9_4 1_555 1_555
H6_4 C13_4 1_555 1_555
C12_4 C13_4 1_555 1_555
O6 C1_4 1_555 1_555
O7_2 C1_4 1_555 1_555
O8_2 C8_4 1_555 1_555
O4_4 C8_4 1_555 1_555
C1_4 C2_4 1_555 1_555
C2_4 C3_4 1_555 1_555
C3_4 H1_4 1_555 1_555
C4_4 C3_4 1_555 1_555
C5_4 C4_4 1_555 1_555
H2_4 C5_4 1_555 1_555
C6_4 C5_4 1_555 1_555
C7_4 C2_4 1_555 1_555
H3_4 C7_4 1_555 1_555
C8_4 C6_4 1_555 1_555
C6_4 C7_4 1_555 1_555
C14_3 O5_3 1_555 1_555
H7_3 C14_3 1_555 1_555
H8_3 C14_3 1_555 1_555
H9_3 C14_3 1_555 1_555
C14_4 O5_4 1_555 1_555
H7_4 C14_4 1_555 1_555
H8_4 C14_4 1_555 1_555
H9_4 C14_4 1_555 1_555

#END
