
###############################################################################
#
# This file contains modified crystal structure data generated from the
# MOF subset of the Cambridge Structural Database (CSD) v543 
# hosted by the Cambridge Crystallographic Data Centre (CCDC).
#
# This work is licensed under the Creative Commons
# Attribution-NonCommercial-ShareAlike 4.0 International License.
# To view a copy of this license, visit
# http://creativecommons.org/licenses/by-nc-sa/4.0/
# or send a letter to
# Creative Commons, PO Box 1866, Mountain View, CA 94042, USA.
#
# CIF created using the CSD Python API on 29 September 2022
# The structure has been converted into the P1 space group
# The structure has a 3D framework
# The original CSD entry YAXBIM is in the monoclinic crystal system
# The framework has been calculated to contain at least 10.0% void space
# The void calculation uses a probe of radius 1.32A, grid spacing 0.4
#
###############################################################################

data_YAXBIM
_chemical_formula_moiety         '(C52 H24 Cl4 Cu4 N4 O16)n'
_symmetry_cell_setting           triclinic
_symmetry_space_group_name_H-M   'P 1'
_symmetry_Int_Tables_number      1
_space_group_name_Hall           'P 1'
loop_
_symmetry_equiv_pos_site_id
_symmetry_equiv_pos_as_xyz
1 x,y,z
_cell_length_a                   10.5155(4)
_cell_length_b                   11.6260(4)
_cell_length_c                   14.4345(5)
_cell_angle_alpha                90
_cell_angle_beta                 107.227(3)
_cell_angle_gamma                90
_cell_volume                     1685.5
loop_
_atom_site_label
_atom_site_type_symbol
_atom_site_fract_x
_atom_site_fract_y
_atom_site_fract_z
O6 O 0.0188(2) 0.1545(2) 0.41724(19)
O7 O 0.0190(2) 0.1306(2) 0.61113(19)
Cu1 Cu 0.90353(4) 0.07723(4) 0.48388(3)
Cl1 Cl 0.82618(11) 0.55962(9) 0.50353(11)
O1 O 0.1885(2) 0.0288(2) 0.45117(19)
O3 O 0.0190(2) 0.3694(2) 0.11113(19)
O4 O 0.1858(2) 0.4969(2) 0.13701(19)
N1 N 0.7725(3) 0.2238(3) 0.4706(2)
C1 C 0.1311(3) 0.1208(3) 0.4146(2)
C2 C 0.2055(3) 0.2002(3) 0.3671(3)
C3 C 0.3433(3) 0.2125(3) 0.4057(2)
H1 H 0.3905 0.1643 0.4555
C4 C 0.4099(3) 0.2966(3) 0.3697(3)
C5 C 0.3382(3) 0.3656(3) 0.2921(3)
H2 H 0.3810 0.4245 0.2695
C6 C 0.2027(3) 0.3460(3) 0.2489(3)
C7 C 0.1361(3) 0.2651(3) 0.2879(2)
H3 H 0.0449 0.2545 0.2609
C8 C 0.1306(3) 0.4096(3) 0.1592(2)
C9 C 0.5561(3) 0.3115(3) 0.4122(3)
C10 C 0.6403(3) 0.2161(3) 0.4318(3)
H4 H 0.6028 0.1434 0.4170
C11 C 0.8272(4) 0.3281(3) 0.4933(3)
H5 H 0.9185 0.3346 0.5224
C12 C 0.7487(4) 0.4266(3) 0.4737(3)
C13 C 0.6134(4) 0.4198(3) 0.4329(3)
H6 H 0.5614 0.4859 0.4195
Cu3 Cu 0.09647(4) 0.57723(4) 0.01612(3)
Cu4 Cu 0.09647(4) 0.92277(4) 0.51612(3)
O5 O 0.8115(2) 0.9712(2) 0.54883(19)
O8 O 0.8142(2) 0.9969(2) 0.36299(19)
Cu5 Cu 0.90353(4) 0.42277(4) 0.98388(3)
O1_2 O 0.8115(2) 0.5288(2) 0.04883(19)
O2 O 0.9812(2) 0.6545(2) 0.08276(19)
O3_2 O 0.9810(2) 0.8694(2) 0.38887(19)
N1_2 N 0.2275(3) 0.7238(3) 0.0294(2)
C1_2 C 0.8689(3) 0.6208(3) 0.0854(2)
C2_2 C 0.7945(3) 0.7002(3) 0.1329(3)
C3_2 C 0.6567(3) 0.7125(3) 0.0943(2)
H1_2 H 0.6095 0.6643 0.0445
C4_2 C 0.5901(3) 0.7966(3) 0.1303(3)
C5_2 C 0.6618(3) 0.8656(3) 0.2079(3)
H2_2 H 0.6190 0.9245 0.2305
C6_2 C 0.7973(3) 0.8460(3) 0.2511(3)
C7_2 C 0.8639(3) 0.7651(3) 0.2121(2)
H3_2 H 0.9551 0.7545 0.2391
C8_2 C 0.8694(3) 0.9096(3) 0.3408(2)
C9_2 C 0.4439(3) 0.8115(3) 0.0878(3)
C10_2 C 0.3597(3) 0.7161(3) 0.0682(3)
H4_2 H 0.3972 0.6434 0.0830
C11_2 C 0.1728(4) 0.8281(3) 0.0067(3)
C12_2 C 0.2513(4) 0.9266(3) 0.0263(3)
C13_2 C 0.3866(4) 0.9198(3) 0.0671(3)
H6_2 H 0.4386 0.9859 0.0805
H5_2 H 0.0815 0.8346 0.9776
O5_2 O 0.1885(2) 0.4712(2) 0.95117(19)
O7_2 O 0.9810(2) 0.6306(2) 0.88887(19)
O8_2 O 0.1858(2) 0.0031(2) 0.63701(19)
Cl1_2 Cl 0.17382(11) 0.44038(9) 0.49647(11)
O2_2 O 0.9812(2) 0.8455(2) 0.58276(19)
O4_2 O 0.8142(2) 0.5031(2) 0.86299(19)
N1_3 N 0.2275(3) 0.7762(3) 0.5294(2)
C1_3 C 0.8689(3) 0.8792(3) 0.5854(2)
C2_3 C 0.7945(3) 0.7998(3) 0.6329(3)
C3_3 C 0.6567(3) 0.7875(3) 0.5943(2)
H1_3 H 0.6095 0.8357 0.5445
C4_3 C 0.5901(3) 0.7034(3) 0.6303(3)
C5_3 C 0.6618(3) 0.6344(3) 0.7079(3)
H2_3 H 0.6190 0.5755 0.7305
C6_3 C 0.7973(3) 0.6540(3) 0.7511(3)
C7_3 C 0.8639(3) 0.7349(3) 0.7121(2)
H3_3 H 0.9551 0.7455 0.7391
C8_3 C 0.8694(3) 0.5904(3) 0.8408(2)
C9_3 C 0.4439(3) 0.6885(3) 0.5878(3)
C10_3 C 0.3597(3) 0.7839(3) 0.5682(3)
H4_3 H 0.3972 0.8566 0.5830
C11_3 C 0.1728(4) 0.6719(3) 0.5067(3)
H5_3 H 0.0815 0.6654 0.4776
C12_3 C 0.2513(4) 0.5734(3) 0.5263(3)
C13_3 C 0.3866(4) 0.5802(3) 0.5671(3)
H6_3 H 0.4386 0.5141 0.5805
O6_2 O 0.0188(2) 0.3455(2) 0.91724(19)
H5_4 H 0.9185 0.1654 0.0224
N1_4 N 0.7725(3) 0.2762(3) 0.9706(2)
C1_4 C 0.1311(3) 0.3792(3) 0.9146(2)
C2_4 C 0.2055(3) 0.2998(3) 0.8671(3)
C3_4 C 0.3433(3) 0.2875(3) 0.9057(2)
H1_4 H 0.3905 0.3357 0.9555
C4_4 C 0.4099(3) 0.2034(3) 0.8697(3)
C5_4 C 0.3382(3) 0.1344(3) 0.7921(3)
H2_4 H 0.3810 0.0755 0.7695
C6_4 C 0.2027(3) 0.1540(3) 0.7489(3)
C7_4 C 0.1361(3) 0.2349(3) 0.7879(2)
H3_4 H 0.0449 0.2455 0.7609
C8_4 C 0.1306(3) 0.0904(3) 0.6592(2)
C9_4 C 0.5561(3) 0.1885(3) 0.9122(3)
C10_4 C 0.6403(3) 0.2839(3) 0.9318(3)
H4_4 H 0.6028 0.3566 0.9170
C11_4 C 0.8272(4) 0.1719(3) 0.9933(3)
C12_4 C 0.7487(4) 0.0734(3) 0.9737(3)
C13_4 C 0.6134(4) 0.0802(3) 0.9329(3)
H6_4 H 0.5614 0.0141 0.9195
Cl1_3 Cl 0.17382(11) 0.05962(9) 0.99647(11)
Cl1_4 Cl 0.82618(11) 0.94038(9) 0.00353(11)
loop_
_geom_bond_atom_site_label_1
_geom_bond_atom_site_label_2
_geom_bond_site_symmetry_1
_geom_bond_site_symmetry_2
Cu1 N1 1_555 1_555
Cl1 C12 1_555 1_555
O1 C1 1_555 1_555
O6 C1 1_555 1_555
O3 C8 1_555 1_555
O4 C8 1_555 1_555
N1 C10 1_555 1_555
C1 C2 1_555 1_555
C2 C3 1_555 1_555
C3 H1 1_555 1_555
C4 C3 1_555 1_555
C5 C4 1_555 1_555
H2 C5 1_555 1_555
C6 C5 1_555 1_555
C7 C2 1_555 1_555
H3 C7 1_555 1_555
C8 C6 1_555 1_555
C9 C4 1_555 1_555
C10 C9 1_555 1_555
H4 C10 1_555 1_555
C11 N1 1_555 1_555
H5 C11 1_555 1_555
C12 C11 1_555 1_555
C13 C9 1_555 1_555
H6 C13 1_555 1_555
Cu3 O4 1_555 1_555
C6 C7 1_555 1_555
C12 C13 1_555 1_555
Cu3 N1_2 1_555 1_555
O1_2 C1_2 1_555 1_555
O2 C1_2 1_555 1_555
O3_2 C8_2 1_555 1_555
O8 C8_2 1_555 1_555
N1_2 C10_2 1_555 1_555
C1_2 C2_2 1_555 1_555
C2_2 C3_2 1_555 1_555
C3_2 H1_2 1_555 1_555
C4_2 C3_2 1_555 1_555
C5_2 C4_2 1_555 1_555
H2_2 C5_2 1_555 1_555
C6_2 C5_2 1_555 1_555
C7_2 C2_2 1_555 1_555
H3_2 C7_2 1_555 1_555
C8_2 C6_2 1_555 1_555
C9_2 C4_2 1_555 1_555
C10_2 C9_2 1_555 1_555
H4_2 C10_2 1_555 1_555
C11_2 N1_2 1_555 1_555
C12_2 C11_2 1_555 1_555
C13_2 C9_2 1_555 1_555
H6_2 C13_2 1_555 1_555
C6_2 C7_2 1_555 1_555
C12_2 C13_2 1_555 1_555
Cu4 N1_3 1_555 1_555
Cl1_2 C12_3 1_555 1_555
O5 C1_3 1_555 1_555
O2_2 C1_3 1_555 1_555
O7_2 C8_3 1_555 1_555
O4_2 C8_3 1_555 1_555
N1_3 C10_3 1_555 1_555
C1_3 C2_3 1_555 1_555
C2_3 C3_3 1_555 1_555
C3_3 H1_3 1_555 1_555
C4_3 C3_3 1_555 1_555
C5_3 C4_3 1_555 1_555
H2_3 C5_3 1_555 1_555
C6_3 C5_3 1_555 1_555
C7_3 C2_3 1_555 1_555
H3_3 C7_3 1_555 1_555
C8_3 C6_3 1_555 1_555
C9_3 C4_3 1_555 1_555
C10_3 C9_3 1_555 1_555
H4_3 C10_3 1_555 1_555
C11_3 N1_3 1_555 1_555
H5_3 C11_3 1_555 1_555
C12_3 C11_3 1_555 1_555
C13_3 C9_3 1_555 1_555
H6_3 C13_3 1_555 1_555
Cu5 O4_2 1_555 1_555
C6_3 C7_3 1_555 1_555
C12_3 C13_3 1_555 1_555
Cu5 N1_4 1_555 1_555
O5_2 C1_4 1_555 1_555
O6_2 C1_4 1_555 1_555
O7 C8_4 1_555 1_555
O8_2 C8_4 1_555 1_555
N1_4 C10_4 1_555 1_555
C1_4 C2_4 1_555 1_555
C2_4 C3_4 1_555 1_555
C3_4 H1_4 1_555 1_555
C4_4 C3_4 1_555 1_555
C5_4 C4_4 1_555 1_555
H2_4 C5_4 1_555 1_555
C6_4 C5_4 1_555 1_555
C7_4 C2_4 1_555 1_555
H3_4 C7_4 1_555 1_555
C8_4 C6_4 1_555 1_555
C9_4 C4_4 1_555 1_555
C10_4 C9_4 1_555 1_555
H4_4 C10_4 1_555 1_555
C11_4 N1_4 1_555 1_555
C12_4 C11_4 1_555 1_555
C13_4 C9_4 1_555 1_555
H6_4 C13_4 1_555 1_555
C6_4 C7_4 1_555 1_555
C12_4 C13_4 1_555 1_555

#END
