
###############################################################################
#
# This file contains modified crystal structure data generated from the
# MOF subset of the Cambridge Structural Database (CSD) v543 
# hosted by the Cambridge Crystallographic Data Centre (CCDC).
#
# This work is licensed under the Creative Commons
# Attribution-NonCommercial-ShareAlike 4.0 International License.
# To view a copy of this license, visit
# http://creativecommons.org/licenses/by-nc-sa/4.0/
# or send a letter to
# Creative Commons, PO Box 1866, Mountain View, CA 94042, USA.
#
# CIF created using the CSD Python API on 29 September 2022
# The structure has been converted into the P1 space group
# The structure has a 3D framework
# The original CSD entry YAXFAI is in the monoclinic crystal system
# The framework has been calculated to contain at least 10.0% void space
# The void calculation uses a probe of radius 1.32A, grid spacing 0.4
#
###############################################################################

data_YAXFAI
_chemical_formula_moiety         '(C128 H88 Cd13 N24 O59)n'
_symmetry_cell_setting           triclinic
_symmetry_space_group_name_H-M   'P 1'
_symmetry_Int_Tables_number      1
_space_group_name_Hall           'P 1'
loop_
_symmetry_equiv_pos_site_id
_symmetry_equiv_pos_as_xyz
1 x,y,z
_cell_length_a                   34.418(4)
_cell_length_b                   10.1790(11)
_cell_length_c                   18.202(2)
_cell_angle_alpha                90
_cell_angle_beta                 103.084(3)
_cell_angle_gamma                90
_cell_volume                     6211.35
loop_
_atom_site_label
_atom_site_type_symbol
_atom_site_fract_x
_atom_site_fract_y
_atom_site_fract_z
O7 O 0.60733 0.05783 0.02628
H17 H 0.46652 0.03191 0.15035
Cd7 Cd 0.750 0.250 -0.000
O17 O 0.70804 0.07535 0.01259
O21 O 0.33092 0.02159 0.08678
O24 O 0.65504 0.32007 0.04783
Cd1 Cd 0.750 0.750 0.500
Cd2 Cd 0.64633 0.17705 0.95447
O1 O 0.79196 0.57535 0.48741
O2 O 0.83092 0.47841 0.58678
O3 O 0.64151 0.30577 0.85748
O4 O 0.71933 0.62874 0.56681
O5 O 0.65504 0.67993 0.54783
O6 O 0.70619 0.28637 0.8883
O8 O 0.57789 0.14947 0.91966
C1 C 0.68675 0.62641 0.5835
C2 C 0.68349 0.55272 0.65305
C3 C 0.67937 0.41123 0.7797
C4 C 0.77368 0.3613 0.51878
C5 C 0.80093 0.47621 0.53378
C6 C 0.67481 0.32893 0.84838
C7 C 0.7437 0.35731 0.45311
H1 H 0.73933 0.43186 0.42088
C8 C 0.64948 0.54861 0.67892
C9 C 0.64697 0.48104 0.74049
H2 H 0.62279 0.48108 0.75733
C10 C 0.71489 0.41279 0.75445
H3 H 0.73752 0.36455 0.78019
C11 C 0.57659 0.08895 0.97916
C12 C 0.53652 0.04057 0.98568
C13 C 0.71622 0.48488 0.69227
H4 H 0.74039 0.48853 0.67544
C14 C 0.50284 0.06977 0.93876
C16 C 0.72046 0.24841 0.43407
N1 N 0.61811 0.59383 0.63914
H6 H 0.60277 0.53676 0.60978
H7 H 0.60533 0.62599 0.67187
N2 N 0.69517 0.2485 0.3594
H8 H 0.6909 0.16576 0.34596
H9 H 0.67218 0.28839 0.35642
N3 N 0.5079 0.06132 0.856
H10 H 0.47332 0.07328 0.81553
O10 O 0.66908 0.02159 0.41322
C17 C 0.72632 0.1387 0.48122
C18 C 0.69907 0.02379 0.46622
C19 C 0.7563 0.14269 0.54689
H12 H 0.76067 0.06814 0.57912
C20 C 0.77954 0.25159 0.56593
N4 N 0.80483 0.2515 0.6406
H13 H 0.8091 0.33424 0.65404
H14 H 0.82782 0.21161 0.64358
C24 C 0.46498 0.03657 0.95809
H15 H 0.44091 0.07229 0.92882
Cd7_2 Cd 0.750 0.250 1.000
Cd9 Cd 0.85367 0.67705 0.54553
Cd11 Cd 0.64633 0.82295 0.45447
O18 O 0.70804 0.92465 0.51259
O22 O 0.78067 0.87126 0.43319
O25 O 0.79381 0.78637 0.6117
O26 O 0.70619 0.71363 0.3883
C15 C 0.53502 0.96343 0.04191
H5 H 0.55909 0.92771 0.07118
O12 O 0.42211 0.85053 0.08034
C21 C 0.42341 0.91105 0.02084
C22 C 0.46348 0.95943 0.01432
C23 C 0.49716 0.93023 0.06124
N5 N 0.4921 0.93868 0.144
H16 H 0.52668 0.92672 0.18447
Cd3 Cd 0.35367 0.82295 0.04553
O13 O 0.35849 0.69423 0.14252
O14 O 0.28067 0.37126 0.43319
O15 O 0.34496 0.32007 0.45217
O16 O 0.29381 0.71363 0.1117
C25 C 0.31325 0.37359 0.4165
C26 C 0.31651 0.44728 0.34695
C27 C 0.32063 0.58877 0.2203
C28 C 0.32519 0.67107 0.15162
C29 C 0.35052 0.45139 0.32108
C30 C 0.35303 0.51896 0.25951
H18 H 0.37721 0.51892 0.24267
C31 C 0.28511 0.58721 0.24555
H19 H 0.26248 0.63545 0.21981
C32 C 0.28378 0.51512 0.30773
H20 H 0.25961 0.51147 0.32456
N6 N 0.38189 0.40617 0.36086
H21 H 0.39723 0.46324 0.39022
H22 H 0.39467 0.37401 0.32813
Cd5 Cd 0.250 0.750 -0.000
Cd6 Cd 0.250 0.250 0.500
Cd8 Cd 0.35367 0.17705 0.54553
H11 H 0.53348 0.96809 0.84965
O11 O 0.39267 0.94217 0.97372
Cd5_2 Cd 0.250 0.750 1.000
O19 O 0.29196 0.92465 0.98741
O20 O 0.66908 0.97841 0.91322
O23 O 0.34496 0.67993 0.95217
O1_2 O 0.20804 0.57535 0.01259
C7_2 C 0.2563 0.35731 0.04689
H1_2 H 0.26067 0.43186 0.07912
C16_2 C 0.27954 0.24841 0.06593
N2_2 N 0.30483 0.2485 0.1406
H8_2 H 0.3091 0.16576 0.15404
H9_2 H 0.32782 0.28839 0.14358
C17_2 C 0.27368 0.1387 0.01878
C18_2 C 0.30093 0.02379 0.03378
O22_2 O 0.21933 0.87126 0.06681
O2_2 O 0.16908 0.47841 0.91322
O3_2 O 0.35849 0.30577 0.64252
O4_2 O 0.28067 0.62874 0.93319
O6_2 O 0.29381 0.28637 0.6117
O7_2 O 0.39267 0.05783 0.47372
O8_2 O 0.42211 0.14947 0.58034
C1_2 C 0.31325 0.62641 0.9165
C2_2 C 0.31651 0.55272 0.84695
C3_2 C 0.32063 0.41123 0.7203
C4_2 C 0.22632 0.3613 0.98122
C5_2 C 0.19907 0.47621 0.96622
C6_2 C 0.32519 0.32893 0.65162
C8_2 C 0.35052 0.54861 0.82108
C9_2 C 0.35303 0.48104 0.75951
H2_2 H 0.37721 0.48108 0.74267
C10_2 C 0.28511 0.41279 0.74555
H3_2 H 0.26248 0.36455 0.71981
C11_2 C 0.42341 0.08895 0.52084
C12_2 C 0.46348 0.04057 0.51432
C13_2 C 0.28378 0.48488 0.80773
H4_2 H 0.25961 0.48853 0.82456
C14_2 C 0.49716 0.06977 0.56124
N1_2 N 0.38189 0.59383 0.86086
H6_2 H 0.39723 0.53676 0.89022
H7_2 H 0.39467 0.62599 0.82813
N3_2 N 0.4921 0.06132 0.644
H10_2 H 0.52668 0.07328 0.68447
C19_2 C 0.2437 0.14269 0.95311
H12_2 H 0.23933 0.06814 0.92088
C20_2 C 0.22046 0.25159 0.93407
N4_2 N 0.19517 0.2515 0.8594
H13_2 H 0.1909 0.33424 0.84596
H14_2 H 0.17218 0.21161 0.85642
C24_2 C 0.53502 0.03657 0.54191
H15_2 H 0.55909 0.07229 0.57118
H17_2 H 0.53348 0.03191 0.34965
Cd9_2 Cd 0.14633 0.67705 0.95447
O17_2 O 0.29196 0.07535 0.48741
O25_2 O 0.20619 0.78637 0.8883
C15_2 C 0.46498 0.96343 0.45809
H5_2 H 0.44091 0.92771 0.42882
H11_2 H 0.46652 0.96809 0.65035
O11_2 O 0.60733 0.94217 0.52628
O12_2 O 0.57789 0.85053 0.41966
C21_2 C 0.57659 0.91105 0.47916
C22_2 C 0.53652 0.95943 0.48568
C23_2 C 0.50284 0.93023 0.43876
N5_2 N 0.5079 0.93868 0.356
H16_2 H 0.47332 0.92672 0.31553
O13_2 O 0.64151 0.69423 0.35748
O14_2 O 0.71933 0.37126 0.06681
C25_2 C 0.68675 0.37359 0.0835
C26_2 C 0.68349 0.44728 0.15305
C27_2 C 0.67937 0.58877 0.2797
C28_2 C 0.67481 0.67107 0.34838
C29_2 C 0.64948 0.45139 0.17892
C30_2 C 0.64697 0.51896 0.24049
H18_2 H 0.62279 0.51892 0.25733
C31_2 C 0.71489 0.58721 0.25445
H19_2 H 0.73752 0.63545 0.28019
C32_2 C 0.71622 0.51512 0.19227
H20_2 H 0.74039 0.51147 0.17544
N6_2 N 0.61811 0.40617 0.13914
H21_2 H 0.60277 0.46324 0.10978
H22_2 H 0.60533 0.37401 0.17187
O20_2 O 0.33092 0.97841 0.58678
O4_3 O 0.21933 0.12874 0.56681
O5_2 O 0.15504 0.17993 0.54783
C1_3 C 0.18675 0.12641 0.5835
C2_3 C 0.18349 0.05272 0.65305
C8_3 C 0.14948 0.04861 0.67892
N1_3 N 0.11811 0.09383 0.63914
H6_3 H 0.10277 0.03676 0.60978
H7_3 H 0.10533 0.12599 0.67187
Cd11_2 Cd 0.14633 0.32295 0.45447
O18_2 O 0.20804 0.42465 0.51259
O26_2 O 0.20619 0.21363 0.3883
O7_3 O 0.10733 0.55783 0.02628
C15_3 C 0.03502 0.46343 0.04191
H5_3 H 0.05909 0.42771 0.07118
H16_3 H 0.02668 0.42672 0.18447
O24_2 O 0.15504 0.82007 0.04783
O3_3 O 0.14151 0.80577 0.85748
O8_3 O 0.07789 0.64947 0.91966
C3_3 C 0.17937 0.91123 0.7797
C4_3 C 0.27368 0.8613 0.51878
C5_3 C 0.30093 0.97621 0.53378
C6_3 C 0.17481 0.82893 0.84838
C7_3 C 0.2437 0.85731 0.45311
H1_3 H 0.23933 0.93186 0.42088
C9_3 C 0.14697 0.98104 0.74049
H2_3 H 0.12279 0.98108 0.75733
C10_3 C 0.21489 0.91279 0.75445
H3_3 H 0.23752 0.86455 0.78019
C11_3 C 0.07659 0.58895 0.97916
C12_3 C 0.03652 0.54057 0.98568
C13_3 C 0.21622 0.98488 0.69227
H4_3 H 0.24039 0.98853 0.67544
C14_3 C 0.00284 0.56977 0.93876
C16_3 C 0.22046 0.74841 0.43407
N2_3 N 0.19517 0.7485 0.3594
H8_3 H 0.1909 0.66576 0.34596
H9_3 H 0.17218 0.78839 0.35642
N3_3 N 0.0079 0.56132 0.856
H11_3 H 0.03348 0.46809 0.84965
O10_2 O 0.16908 0.52159 0.41322
C17_3 C 0.22632 0.6387 0.48122
C18_3 C 0.19907 0.52379 0.46622
C19_3 C 0.2563 0.64269 0.54689
H12_3 H 0.26067 0.56814 0.57912
C20_3 C 0.27954 0.75159 0.56593
N4_3 N 0.30483 0.7515 0.6406
H13_3 H 0.3091 0.83424 0.65404
H14_3 H 0.32782 0.71161 0.64358
O12_3 O 0.92211 0.35053 0.08034
C21_3 C 0.92341 0.41105 0.02084
C22_3 C 0.96348 0.45943 0.01432
C23_3 C 0.99716 0.43023 0.06124
N5_3 N 0.9921 0.43868 0.144
H17_3 H 0.96652 0.53191 0.15035
Cd3_2 Cd 0.85367 0.32295 0.04553
O13_3 O 0.85849 0.19423 0.14252
O16_2 O 0.79381 0.21363 0.1117
C27_3 C 0.82063 0.08877 0.2203
C28_3 C 0.82519 0.17107 0.15162
C30_3 C 0.85303 0.01896 0.25951
H18_3 H 0.87721 0.01892 0.24267
C31_3 C 0.78511 0.08721 0.24555
H19_3 H 0.76248 0.13545 0.21981
C32_3 C 0.78378 0.01512 0.30773
H20_3 H 0.75961 0.01147 0.32456
O21_2 O 0.83092 0.52159 0.08678
H10_3 H 0.97332 0.57328 0.81553
O11_3 O 0.89267 0.44217 0.97372
C24_3 C 0.96498 0.53657 0.95809
H15_3 H 0.94091 0.57229 0.92882
O19_2 O 0.79196 0.42465 0.98741
O23_2 O 0.84496 0.17993 0.95217
O15_2 O 0.84496 0.82007 0.45217
C25_3 C 0.81325 0.87359 0.4165
C26_3 C 0.81651 0.94728 0.34695
C29_3 C 0.85052 0.95139 0.32108
N6_3 N 0.88189 0.90617 0.36086
H21_3 H 0.89723 0.96324 0.39022
H22_3 H 0.89467 0.87401 0.32813
H10_4 H 0.02668 0.57328 0.68447
O11_4 O 0.10733 0.44217 0.52628
O12_4 O 0.07789 0.35053 0.41966
C21_4 C 0.07659 0.41105 0.47916
C22_4 C 0.03652 0.45943 0.48568
C23_4 C 0.00284 0.43023 0.43876
C24_4 C 0.03502 0.53657 0.54191
H15_4 H 0.05909 0.57229 0.57118
N5_4 N 0.0079 0.43868 0.356
H17_4 H 0.03348 0.53191 0.34965
O13_4 O 0.14151 0.19423 0.35748
C27_4 C 0.17937 0.08877 0.2797
C28_4 C 0.17481 0.17107 0.34838
C30_4 C 0.14697 0.01896 0.24049
H18_4 H 0.12279 0.01892 0.25733
C31_4 C 0.21489 0.08721 0.25445
H19_4 H 0.23752 0.13545 0.28019
C32_4 C 0.21622 0.01512 0.19227
H20_4 H 0.24039 0.01147 0.17544
C25_4 C 0.18675 0.87359 0.0835
C26_4 C 0.18349 0.94728 0.15305
C29_4 C 0.14948 0.95139 0.17892
N6_4 N 0.11811 0.90617 0.13914
H21_4 H 0.10277 0.96324 0.10978
H22_4 H 0.10533 0.87401 0.17187
O4_4 O 0.78067 0.12874 0.93319
C1_4 C 0.81325 0.12641 0.9165
C2_4 C 0.81651 0.05272 0.84695
C8_4 C 0.85052 0.04861 0.82108
N1_4 N 0.88189 0.09383 0.86086
H6_4 H 0.89723 0.03676 0.89022
H7_4 H 0.89467 0.12599 0.82813
C7_4 C 0.7563 0.85731 0.04689
H1_4 H 0.76067 0.93186 0.07912
C16_4 C 0.77954 0.74841 0.06593
N2_4 N 0.80483 0.7485 0.1406
H8_4 H 0.8091 0.66576 0.15404
H9_4 H 0.82782 0.78839 0.14358
C17_4 C 0.77368 0.6387 0.01878
C18_4 C 0.80093 0.52379 0.03378
O3_4 O 0.85849 0.80577 0.64252
O7_4 O 0.89267 0.55783 0.47372
O8_4 O 0.92211 0.64947 0.58034
C3_4 C 0.82063 0.91123 0.7203
C4_4 C 0.72632 0.8613 0.98122
C5_4 C 0.69907 0.97621 0.96622
C6_4 C 0.82519 0.82893 0.65162
C9_4 C 0.85303 0.98104 0.75951
H2_4 H 0.87721 0.98108 0.74267
C10_4 C 0.78511 0.91279 0.74555
H3_4 H 0.76248 0.86455 0.71981
C11_4 C 0.92341 0.58895 0.52084
C12_4 C 0.96348 0.54057 0.51432
C13_4 C 0.78378 0.98488 0.80773
H4_4 H 0.75961 0.98853 0.82456
C14_4 C 0.99716 0.56977 0.56124
C15_4 C 0.96498 0.46343 0.45809
H5_4 H 0.94091 0.42771 0.42882
N3_4 N 0.9921 0.56132 0.644
H11_4 H 0.96652 0.46809 0.65035
C19_4 C 0.7437 0.64269 0.95311
H12_4 H 0.73933 0.56814 0.92088
C20_4 C 0.72046 0.75159 0.93407
N4_4 N 0.69517 0.7515 0.8594
H13_4 H 0.6909 0.83424 0.84596
H14_4 H 0.67218 0.71161 0.85642
H16_4 H 0.97332 0.42672 0.31553
loop_
_geom_bond_atom_site_label_1
_geom_bond_atom_site_label_2
_geom_bond_site_symmetry_1
_geom_bond_site_symmetry_2
Cd7 O17 1_555 1_555
Cd1 O1 1_555 1_555
Cd2 O3 1_555 1_555
O1 C5 1_555 1_555
O2 C5 1_555 1_555
O3 C6 1_555 1_555
O4 Cd1 1_555 1_555
O5 C1 1_555 1_555
O6 C6 1_555 1_555
O8 Cd2 1_555 1_555
C1 O4 1_555 1_555
C2 C1 1_555 1_555
C3 C6 1_555 1_555
C4 C5 1_555 1_555
C7 C4 1_555 1_555
H1 C7 1_555 1_555
C8 C2 1_555 1_555
C9 C3 1_555 1_555
H2 C9 1_555 1_555
C10 C3 1_555 1_555
H3 C10 1_555 1_555
C12 C11 1_555 1_555
C13 C2 1_555 1_555
H4 C13 1_555 1_555
C14 C12 1_555 1_555
C16 C7 1_555 1_555
N1 C8 1_555 1_555
H6 N1 1_555 1_555
H7 N1 1_555 1_555
N2 C16 1_555 1_555
H8 N2 1_555 1_555
H9 N2 1_555 1_555
N3 C14 1_555 1_555
H10 N3 1_555 1_555
O10 C18 1_555 1_555
C17 C16 1_555 1_555
C18 C17 1_555 1_555
C19 C17 1_555 1_555
H12 C19 1_555 1_555
C20 C4 1_555 1_555
N4 C20 1_555 1_555
H13 N4 1_555 1_555
H14 N4 1_555 1_555
C24 C14 1_555 1_555
H15 C24 1_555 1_555
Cd7_2 O6 1_555 1_555
Cd9 O1 1_555 1_555
Cd11 O5 1_555 1_555
O18 Cd1 1_555 1_555
O22 Cd1 1_555 1_555
O25 Cd1 1_555 1_555
O26 Cd1 1_555 1_555
O2 Cd9 1_555 1_555
O8 C11 1_555 1_555
C8 C9 1_555 1_555
C10 C13 1_555 1_555
C19 C20 1_555 1_555
Cd11 O18 1_555 1_555
H5 C15 1_555 1_555
O12 C21 1_555 1_555
C21 C22 1_555 1_555
C22 C23 1_555 1_555
C23 C15 1_555 1_555
N5 C23 1_555 1_555
H16 N5 1_555 1_555
O13 Cd3 1_555 1_555
O14 C25 1_555 1_555
O15 C25 1_555 1_555
O16 C28 1_555 1_555
C25 C26 1_555 1_555
C26 C29 1_555 1_555
C27 C28 1_555 1_555
C28 O13 1_555 1_555
C29 C30 1_555 1_555
C30 C27 1_555 1_555
H18 C30 1_555 1_555
C31 C27 1_555 1_555
H19 C31 1_555 1_555
C32 C26 1_555 1_555
H20 C32 1_555 1_555
N6 C29 1_555 1_555
H21 N6 1_555 1_555
H22 N6 1_555 1_555
Cd5 O16 1_555 1_555
Cd6 O14 1_555 1_555
Cd8 O15 1_555 1_555
O12 Cd3 1_555 1_555
C31 C32 1_555 1_555
Cd5_2 O19 1_555 1_555
Cd5 O1_2 1_555 1_555
H1_2 C7_2 1_555 1_555
C16_2 C7_2 1_555 1_555
N2_2 C16_2 1_555 1_555
H8_2 N2_2 1_555 1_555
H9_2 N2_2 1_555 1_555
O21 C18_2 1_555 1_555
C17_2 C16_2 1_555 1_555
C18_2 C17_2 1_555 1_555
O22_2 Cd5 1_555 1_555
Cd8 O3_2 1_555 1_555
O2_2 C5_2 1_555 1_555
O3_2 C6_2 1_555 1_555
O4_2 Cd5_2 1_555 1_555
O23 C1_2 1_555 1_555
O6_2 C6_2 1_555 1_555
O7_2 Cd8 1_555 1_555
O8_2 Cd8 1_555 1_555
C1_2 O4_2 1_555 1_555
C2_2 C1_2 1_555 1_555
C3_2 C6_2 1_555 1_555
C4_2 C5_2 1_555 1_555
C8_2 C2_2 1_555 1_555
C9_2 C3_2 1_555 1_555
H2_2 C9_2 1_555 1_555
C10_2 C3_2 1_555 1_555
H3_2 C10_2 1_555 1_555
C11_2 O7_2 1_555 1_555
C12_2 C11_2 1_555 1_555
C13_2 C2_2 1_555 1_555
H4_2 C13_2 1_555 1_555
C14_2 C12_2 1_555 1_555
N1_2 C8_2 1_555 1_555
H6_2 N1_2 1_555 1_555
H7_2 N1_2 1_555 1_555
N3_2 C14_2 1_555 1_555
H10_2 N3_2 1_555 1_555
H12_2 C19_2 1_555 1_555
C20_2 C4_2 1_555 1_555
N4_2 C20_2 1_555 1_555
H13_2 N4_2 1_555 1_555
H14_2 N4_2 1_555 1_555
C24_2 C14_2 1_555 1_555
H15_2 C24_2 1_555 1_555
Cd6 O6_2 1_555 1_555
O17_2 Cd8 1_555 1_555
O25_2 Cd5_2 1_555 1_555
O2_2 Cd9_2 1_555 1_555
O8_2 C11_2 1_555 1_555
C8_2 C9_2 1_555 1_555
C10_2 C13_2 1_555 1_555
C19_2 C20_2 1_555 1_555
Cd6 O17_2 1_555 1_555
H5_2 C15_2 1_555 1_555
O11_2 C21_2 1_555 1_555
O12_2 C21_2 1_555 1_555
C21_2 C22_2 1_555 1_555
C22_2 C23_2 1_555 1_555
C23_2 C15_2 1_555 1_555
N5_2 C23_2 1_555 1_555
H16_2 N5_2 1_555 1_555
Cd11 O11_2 1_555 1_555
O13_2 Cd11 1_555 1_555
O14_2 C25_2 1_555 1_555
O24 C25_2 1_555 1_555
O26 C28_2 1_555 1_555
C25_2 C26_2 1_555 1_555
C26_2 C29_2 1_555 1_555
C27_2 C28_2 1_555 1_555
C28_2 O13_2 1_555 1_555
C29_2 C30_2 1_555 1_555
C30_2 C27_2 1_555 1_555
H18_2 C30_2 1_555 1_555
C31_2 C27_2 1_555 1_555
H19_2 C31_2 1_555 1_555
C32_2 C26_2 1_555 1_555
H20_2 C32_2 1_555 1_555
N6_2 C29_2 1_555 1_555
H21_2 N6_2 1_555 1_555
H22_2 N6_2 1_555 1_555
Cd7 O14_2 1_555 1_555
O12_2 Cd11 1_555 1_555
C31_2 C32_2 1_555 1_555
O4_3 Cd6 1_555 1_555
O5_2 C1_3 1_555 1_555
C1_3 O4_3 1_555 1_555
C2_3 C1_3 1_555 1_555
C8_3 C2_3 1_555 1_555
N1_3 C8_3 1_555 1_555
H6_3 N1_3 1_555 1_555
H7_3 N1_3 1_555 1_555
Cd11_2 O5_2 1_555 1_555
O18_2 Cd6 1_555 1_555
O26_2 Cd6 1_555 1_555
Cd11_2 O18_2 1_555 1_555
H5_3 C15_3 1_555 1_555
Cd9_2 O3_3 1_555 1_555
O20_2 C5_3 1_555 1_555
O3_3 C6_3 1_555 1_555
O25_2 C6_3 1_555 1_555
O8_3 Cd9_2 1_555 1_555
C3_3 C6_3 1_555 1_555
C4_3 C5_3 1_555 1_555
C7_3 C4_3 1_555 1_555
H1_3 C7_3 1_555 1_555
C9_3 C3_3 1_555 1_555
H2_3 C9_3 1_555 1_555
C10_3 C3_3 1_555 1_555
H3_3 C10_3 1_555 1_555
C12_3 C11_3 1_555 1_555
H4_3 C13_3 1_555 1_555
C14_3 C12_3 1_555 1_555
C16_3 C7_3 1_555 1_555
N2_3 C16_3 1_555 1_555
H8_3 N2_3 1_555 1_555
H9_3 N2_3 1_555 1_555
N3_3 C14_3 1_555 1_555
H11_3 N3_3 1_555 1_555
O18_2 C18_3 1_555 1_555
O10_2 C18_3 1_555 1_555
C17_3 C16_3 1_555 1_555
C18_3 C17_3 1_555 1_555
C19_3 C17_3 1_555 1_555
H12_3 C19_3 1_555 1_555
C20_3 C4_3 1_555 1_555
N4_3 C20_3 1_555 1_555
H13_3 N4_3 1_555 1_555
H14_3 N4_3 1_555 1_555
O8_3 C11_3 1_555 1_555
C10_3 C13_3 1_555 1_555
O10_2 Cd11_2 1_555 1_555
C19_3 C20_3 1_555 1_555
O12_3 C21_3 1_555 1_555
C21_3 C22_3 1_555 1_555
C22_3 C23_3 1_555 1_555
N5_3 C23_3 1_555 1_555
H17_3 N5_3 1_555 1_555
O13_3 Cd3_2 1_555 1_555
O16_2 C28_3 1_555 1_555
C27_3 C28_3 1_555 1_555
C28_3 O13_3 1_555 1_555
C30_3 C27_3 1_555 1_555
H18_3 C30_3 1_555 1_555
C31_3 C27_3 1_555 1_555
H19_3 C31_3 1_555 1_555
H20_3 C32_3 1_555 1_555
Cd7 O16_2 1_555 1_555
O21_2 Cd3_2 1_555 1_555
O12_3 Cd3_2 1_555 1_555
C31_3 C32_3 1_555 1_555
H15_3 C24_3 1_555 1_555
Cd7_2 O19_2 1_555 1_555
O22 C25_3 1_555 1_555
O15_2 C25_3 1_555 1_555
C25_3 C26_3 1_555 1_555
C26_3 C29_3 1_555 1_555
N6_3 C29_3 1_555 1_555
H21_3 N6_3 1_555 1_555
H22_3 N6_3 1_555 1_555
Cd9 O15_2 1_555 1_555
O11_4 C21_4 1_555 1_555
O12_4 C21_4 1_555 1_555
C21_4 C22_4 1_555 1_555
C22_4 C23_4 1_555 1_555
H15_4 C24_4 1_555 1_555
N5_4 C23_4 1_555 1_555
H17_4 N5_4 1_555 1_555
Cd11_2 O11_4 1_555 1_555
O13_4 Cd11_2 1_555 1_555
O26_2 C28_4 1_555 1_555
C27_4 C28_4 1_555 1_555
C28_4 O13_4 1_555 1_555
C30_4 C27_4 1_555 1_555
H18_4 C30_4 1_555 1_555
C31_4 C27_4 1_555 1_555
H19_4 C31_4 1_555 1_555
H20_4 C32_4 1_555 1_555
O12_4 Cd11_2 1_555 1_555
C22_4 C24_4 1_555 1_555
C31_4 C32_4 1_555 1_555
O22_2 C25_4 1_555 1_555
O24_2 C25_4 1_555 1_555
C25_4 C26_4 1_555 1_555
C26_4 C29_4 1_555 1_555
N6_4 C29_4 1_555 1_555
H21_4 N6_4 1_555 1_555
H22_4 N6_4 1_555 1_555
O4_4 Cd7_2 1_555 1_555
O23_2 C1_4 1_555 1_555
C1_4 O4_4 1_555 1_555
C2_4 C1_4 1_555 1_555
C8_4 C2_4 1_555 1_555
N1_4 C8_4 1_555 1_555
H6_4 N1_4 1_555 1_555
H7_4 N1_4 1_555 1_555
H1_4 C7_4 1_555 1_555
C16_4 C7_4 1_555 1_555
N2_4 C16_4 1_555 1_555
H8_4 N2_4 1_555 1_555
H9_4 N2_4 1_555 1_555
O21_2 C18_4 1_555 1_555
C17_4 C16_4 1_555 1_555
C18_4 C17_4 1_555 1_555
Cd9 O3_4 1_555 1_555
O20 C5_4 1_555 1_555
O3_4 C6_4 1_555 1_555
O25 C6_4 1_555 1_555
O7_4 Cd9 1_555 1_555
O8_4 Cd9 1_555 1_555
C3_4 C6_4 1_555 1_555
C4_4 C5_4 1_555 1_555
C9_4 C3_4 1_555 1_555
H2_4 C9_4 1_555 1_555
C10_4 C3_4 1_555 1_555
H3_4 C10_4 1_555 1_555
C11_4 O7_4 1_555 1_555
C12_4 C11_4 1_555 1_555
H4_4 C13_4 1_555 1_555
C14_4 C12_4 1_555 1_555
C15_4 C12_4 1_555 1_555
H5_4 C15_4 1_555 1_555
N3_4 C14_4 1_555 1_555
H11_4 N3_4 1_555 1_555
H12_4 C19_4 1_555 1_555
C20_4 C4_4 1_555 1_555
N4_4 C20_4 1_555 1_555
H13_4 N4_4 1_555 1_555
H14_4 N4_4 1_555 1_555
O8_4 C11_4 1_555 1_555
C10_4 C13_4 1_555 1_555
C19_4 C20_4 1_555 1_555

#END
