
###############################################################################
#
# This file contains modified crystal structure data generated from the
# MOF subset of the Cambridge Structural Database (CSD) v543 
# hosted by the Cambridge Crystallographic Data Centre (CCDC).
#
# This work is licensed under the Creative Commons
# Attribution-NonCommercial-ShareAlike 4.0 International License.
# To view a copy of this license, visit
# http://creativecommons.org/licenses/by-nc-sa/4.0/
# or send a letter to
# Creative Commons, PO Box 1866, Mountain View, CA 94042, USA.
#
# CIF created using the CSD Python API on 29 September 2022
# The structure has been converted into the P1 space group
# The structure has a 3D framework
# The original CSD entry YAYCUA is in the monoclinic crystal system
# The framework has been calculated to contain at least 10.0% void space
# The void calculation uses a probe of radius 1.32A, grid spacing 0.4
#
###############################################################################

data_YAYCUA
_chemical_formula_moiety         '(C76 H60 Cu2 Eu4 N4 O36)n'
_symmetry_cell_setting           triclinic
_symmetry_space_group_name_H-M   'P 1'
_symmetry_Int_Tables_number      1
_space_group_name_Hall           'P 1'
loop_
_symmetry_equiv_pos_site_id
_symmetry_equiv_pos_as_xyz
1 x,y,z
_cell_length_a                   11.806(3)
_cell_length_b                   17.516(5)
_cell_length_c                   12.802(3)
_cell_angle_alpha                90
_cell_angle_beta                 115.578(7)
_cell_angle_gamma                90
_cell_volume                     2387.93
loop_
_atom_site_label
_atom_site_type_symbol
_atom_site_fract_x
_atom_site_fract_y
_atom_site_fract_z
Cu1 Cu 0.000000 0.000000 0.500000
Eu8 Eu 0.12702(2) 0.49403(2) 0.92659(2)
O25 O 0.0638(4) 0.0694(2) 0.6336(4)
O28 O 0.2197(3) 0.0751(2) 0.5826(3)
Cu1_2 Cu 0.000000 1.000000 0.500000
O23 O 0.0656(4) 0.9113(2) 0.6007(4)
Eu5 Eu 0.87298(2) 0.50597(2) 0.07341(2)
Eu1 Eu 0.62702(2) 0.00597(2) 0.42659(2)
Cu1_3 Cu 1.000000 0.000000 0.500000
O1 O 0.6318(3) 0.06522(19) 0.5905(3)
O2 O 0.5302(3) 0.07768(19) 0.7002(3)
C1 C 0.6120(5) 0.0991(3) 0.6678(4)
C2 C 0.6876(4) 0.1689(3) 0.7235(4)
C3 C 0.7778(5) 0.1966(3) 0.6899(4)
H1 H 0.794273 0.170100 0.633193
C4 C 0.8434(5) 0.2630(3) 0.7396(4)
H2 H 0.904707 0.281946 0.716768
C5 C 0.8193(4) 0.3019(2) 0.8233(4)
C6 C 0.7288(5) 0.2740(3) 0.8559(4)
H3 H 0.711566 0.300644 0.912053
C7 C 0.6642(5) 0.2081(3) 0.8070(4)
H4 H 0.603309 0.189112 0.830394
C8 C 0.8893(5) 0.3736(3) 0.8774(4)
O3 O 0.9709(3) 0.39827(18) 0.8473(3)
O4 O 0.8613(3) 0.40455(19) 0.9525(3)
O5 O 0.7847(4) 0.0958(2) 0.4598(3)
O6 O 0.9344(4) 0.0887(2) 0.3993(4)
C9 C 0.8408(5) 0.1216(3) 0.4034(5)
C10 C 0.7958(5) 0.1940(3) 0.3364(5)
C11 C 0.8521(5) 0.2214(3) 0.2678(5)
H5 H 0.920046 0.194150 0.264549
C12 C 0.8100(5) 0.2880(3) 0.2044(5)
H6 H 0.848885 0.306077 0.157807
C13 C 0.7102(5) 0.3288(3) 0.2090(5)
C14 C 0.6549(5) 0.3019(3) 0.2786(5)
H7 H 0.588316 0.329974 0.283199
C15 C 0.6959(5) 0.2347(3) 0.3412(5)
H8 H 0.656412 0.216362 0.387095
C16 C 0.6635(5) 0.3994(3) 0.1390(5)
O7 O 0.5638(4) 0.4306(2) 0.1336(4)
O8 O 0.7197(3) 0.4249(2) 0.0826(3)
O9 O 0.6199(3) 0.0305(2) 0.2405(3)
C17 C 0.5412(5) 0.0644(3) 0.1556(4)
H9 H 0.461363 0.074891 0.153685
N1 N 0.5630(5) 0.0868(3) 0.0669(4)
C18 C 0.6818(6) 0.0733(4) 0.0634(6)
H10 H 0.716899 0.121891 0.053257
H12 H 0.740032 0.049395 0.136065
Cu4 Cu 0.500000 0.500000 0.000000
O20 O 0.4709(3) 0.10173(18) 0.3473(3)
O22 O 0.3613(3) 0.09545(19) 0.4525(3)
H11 H 0.669268 0.039286 0.998486
C19 C 0.4697(7) 0.1293(5) 0.9721(6)
H13 H 0.389655 0.127899 0.977907
H14 H 0.458927 0.106483 0.898499
H15 H 0.497307 0.182407 0.975549
Cu4_2 Cu 0.500000 0.500000 1.000000
H26 H 0.330732 0.960714 0.001514
C38 C 0.5303(7) 0.8707(5) 0.0279(6)
H28 H 0.610345 0.872101 0.022093
H29 H 0.541073 0.893517 0.101501
H30 H 0.502693 0.817593 0.024451
Cu1_4 Cu 1.000000 1.000000 0.500000
Eu2 Eu 0.37298(2) 0.99403(2) 0.57341(2)
O10 O 0.3682(3) 0.93478(19) 0.4095(3)
O11 O 0.4698(3) 0.92232(19) 0.2998(3)
C20 C 0.3880(5) 0.9009(3) 0.3322(4)
C21 C 0.3124(4) 0.8311(3) 0.2765(4)
C22 C 0.2222(5) 0.8034(3) 0.3101(4)
H16 H 0.205727 0.829900 0.366807
C23 C 0.1566(5) 0.7370(3) 0.2604(4)
H17 H 0.095293 0.718054 0.283232
C24 C 0.1807(4) 0.6981(2) 0.1767(4)
C25 C 0.2712(5) 0.7260(3) 0.1441(4)
H18 H 0.288434 0.699356 0.087947
C26 C 0.3358(5) 0.7919(3) 0.1930(4)
H19 H 0.396691 0.810888 0.169606
C27 C 0.1107(5) 0.6264(3) 0.1226(4)
O12 O 0.0291(3) 0.60173(18) 0.1527(3)
O13 O 0.1387(3) 0.59545(19) 0.0475(3)
O14 O 0.2153(4) 0.9042(2) 0.5402(3)
C28 C 0.1592(5) 0.8784(3) 0.5966(5)
C29 C 0.2042(5) 0.8060(3) 0.6636(5)
C30 C 0.1479(5) 0.7786(3) 0.7322(5)
H20 H 0.079954 0.805850 0.735451
C31 C 0.1900(5) 0.7120(3) 0.7956(5)
H21 H 0.151115 0.693923 0.842193
C32 C 0.2898(5) 0.6712(3) 0.7910(5)
C33 C 0.3451(5) 0.6981(3) 0.7214(5)
H22 H 0.411684 0.670026 0.716801
C34 C 0.3041(5) 0.7653(3) 0.6588(5)
H23 H 0.343588 0.783638 0.612905
C35 C 0.3365(5) 0.6006(3) 0.8610(5)
O16 O 0.4362(4) 0.5694(2) 0.8664(4)
O17 O 0.2803(3) 0.5751(2) 0.9174(3)
O18 O 0.3801(3) 0.9695(2) 0.7595(3)
C36 C 0.4588(5) 0.9356(3) 0.8444(4)
H24 H 0.538637 0.925109 0.846315
N2 N 0.4370(5) 0.9132(3) 0.9331(4)
C37 C 0.3182(6) 0.9267(4) 0.9366(6)
H25 H 0.283101 0.878109 0.946743
H27 H 0.259968 0.950605 0.863935
O19 O 0.5291(3) 0.89827(18) 0.6527(3)
O21 O 0.6387(3) 0.90455(19) 0.5475(3)
O24 O 0.9362(4) 0.9306(2) 0.3664(4)
O26 O 0.7803(3) 0.9249(2) 0.4174(3)
H9_2 H 0.038637 0.574891 0.346315
C19_2 C 0.0303(7) 0.6293(5) 0.5279(6)
H13_2 H 0.110345 0.627899 0.522093
H14_2 H 0.041073 0.606483 0.601501
H15_2 H 0.002693 0.682407 0.524451
O10_2 O 0.1318(3) 0.43478(19) 0.0905(3)
O11_2 O 0.0302(3) 0.42232(19) 0.2002(3)
C20_2 C 0.1120(5) 0.4009(3) 0.1678(4)
C21_2 C 0.1876(4) 0.3311(3) 0.2235(4)
C22_2 C 0.2778(5) 0.3034(3) 0.1899(4)
H16_2 H 0.294273 0.329900 0.133193
C23_2 C 0.3434(5) 0.2370(3) 0.2396(4)
H17_2 H 0.404707 0.218054 0.216768
C24_2 C 0.3193(4) 0.1981(2) 0.3233(4)
C25_2 C 0.2288(5) 0.2260(3) 0.3559(4)
H18_2 H 0.211566 0.199356 0.412053
C26_2 C 0.1642(5) 0.2919(3) 0.3070(4)
H19_2 H 0.103309 0.310888 0.330394
C27_2 C 0.3893(5) 0.1264(3) 0.3774(4)
O14_2 O 0.2847(4) 0.4042(2) 0.9598(3)
O15 O 0.4344(4) 0.4113(2) 0.8993(4)
C28_2 C 0.3408(5) 0.3784(3) 0.9034(5)
C29_2 C 0.2958(5) 0.3060(3) 0.8364(5)
C30_2 C 0.3521(5) 0.2786(3) 0.7678(5)
H20_2 H 0.420046 0.305850 0.764549
C31_2 C 0.3100(5) 0.2120(3) 0.7044(5)
H21_2 H 0.348885 0.193923 0.657807
C32_2 C 0.2102(5) 0.1712(3) 0.7090(5)
C33_2 C 0.1549(5) 0.1981(3) 0.7786(5)
H22_2 H 0.088316 0.170026 0.783199
C34_2 C 0.1959(5) 0.2653(3) 0.8412(5)
H23_2 H 0.156412 0.283638 0.887095
C35_2 C 0.1635(5) 0.1006(3) 0.6390(5)
O18_2 O 0.1199(3) 0.4695(2) 0.7405(3)
C36_2 C 0.0412(5) 0.4356(3) 0.6556(4)
N2_2 N 0.0630(5) 0.4132(3) 0.5669(4)
C37_2 C 0.1818(6) 0.4267(4) 0.5634(6)
H25_2 H 0.216899 0.378109 0.553257
H26_2 H 0.169268 0.460714 0.498486
H27_2 H 0.240032 0.450605 0.636065
O5_2 O 0.7153(4) 0.5958(2) 0.0402(3)
O6_2 O 0.5656(4) 0.5887(2) 0.1007(4)
C9_2 C 0.6592(5) 0.6216(3) 0.0966(5)
C10_2 C 0.7042(5) 0.6940(3) 0.1636(5)
C11_2 C 0.6479(5) 0.7214(3) 0.2322(5)
H5_2 H 0.579954 0.694150 0.235451
C12_2 C 0.6900(5) 0.7880(3) 0.2956(5)
H6_2 H 0.651115 0.806077 0.342193
C13_2 C 0.7898(5) 0.8288(3) 0.2910(5)
C14_2 C 0.8451(5) 0.8019(3) 0.2214(5)
H7_2 H 0.911684 0.829974 0.216801
C15_2 C 0.8041(5) 0.7347(3) 0.1588(5)
H8_2 H 0.843588 0.716362 0.112905
C16_2 C 0.8365(5) 0.8994(3) 0.3610(5)
O9_2 O 0.8801(3) 0.5305(2) 0.2595(3)
C17_2 C 0.9588(5) 0.5644(3) 0.3444(4)
N1_2 N 0.9370(5) 0.5868(3) 0.4331(4)
C18_2 C 0.8182(6) 0.5733(4) 0.4366(6)
H10_2 H 0.783101 0.621891 0.446743
H11_2 H 0.830732 0.539286 0.501514
H12_2 H 0.759968 0.549395 0.363935
O1_2 O 0.8682(3) 0.56522(19) 0.9095(3)
O2_2 O 0.9698(3) 0.57768(19) 0.7998(3)
C1_2 C 0.8880(5) 0.5991(3) 0.8322(4)
C2_2 C 0.8124(4) 0.6689(3) 0.7765(4)
C3_2 C 0.7222(5) 0.6966(3) 0.8101(4)
H1_2 H 0.705727 0.670100 0.866807
C4_2 C 0.6566(5) 0.7630(3) 0.7604(4)
H2_2 H 0.595293 0.781946 0.783232
C5_2 C 0.6807(4) 0.8019(2) 0.6767(4)
C6_2 C 0.7712(5) 0.7740(3) 0.6441(4)
H3_2 H 0.788434 0.800644 0.587947
C7_2 C 0.8358(5) 0.7081(3) 0.6930(4)
H4_2 H 0.896691 0.689112 0.669606
C8_2 C 0.6107(5) 0.8736(3) 0.6226(4)
H24_2 H 0.961363 0.425109 0.653685
C38_2 C 0.9697(7) 0.3707(5) 0.4721(6)
H28_2 H 0.889655 0.372101 0.477907
H29_2 H 0.958927 0.393517 0.398499
H30_2 H 0.997307 0.317593 0.475549
loop_
_geom_bond_atom_site_label_1
_geom_bond_atom_site_label_2
_geom_bond_site_symmetry_1
_geom_bond_site_symmetry_2
O25 Cu1 1_555 1_555
O28 Cu1 1_555 1_555
O23 Cu1_2 1_555 1_555
Eu1 O1 1_555 1_555
Cu1_3 O6 1_555 1_555
O1 C1 1_555 1_555
O2 C1 1_555 1_555
C1 C2 1_555 1_555
C2 C3 1_555 1_555
C3 H1 1_555 1_555
C4 C3 1_555 1_555
H2 C4 1_555 1_555
C5 C4 1_555 1_555
C6 C5 1_555 1_555
H3 C6 1_555 1_555
C7 C2 1_555 1_555
H4 C7 1_555 1_555
C8 C5 1_555 1_555
O3 C8 1_555 1_555
O4 C8 1_555 1_555
O5 Eu1 1_555 1_555
O6 C9 1_555 1_555
C9 O5 1_555 1_555
C10 C9 1_555 1_555
C11 C10 1_555 1_555
H5 C11 1_555 1_555
C12 C11 1_555 1_555
H6 C12 1_555 1_555
C13 C12 1_555 1_555
C14 C13 1_555 1_555
H7 C14 1_555 1_555
C15 C10 1_555 1_555
H8 C15 1_555 1_555
C16 C13 1_555 1_555
O7 C16 1_555 1_555
O8 C16 1_555 1_555
O9 Eu1 1_555 1_555
C17 O9 1_555 1_555
H9 C17 1_555 1_555
N1 C17 1_555 1_555
C18 N1 1_555 1_555
H10 C18 1_555 1_555
H12 C18 1_555 1_555
Eu5 O8 1_555 1_555
Cu4 O7 1_555 1_555
O20 Eu1 1_555 1_555
C6 C7 1_555 1_555
C14 C15 1_555 1_555
O8 Cu4 1_555 1_555
H13 C19 1_555 1_555
H14 C19 1_555 1_555
H15 C19 1_555 1_555
H28 C38 1_555 1_555
H29 C38 1_555 1_555
H30 C38 1_555 1_555
O10 Eu2 1_555 1_555
C20 O10 1_555 1_555
C21 C20 1_555 1_555
C22 C21 1_555 1_555
H16 C22 1_555 1_555
C23 C22 1_555 1_555
H17 C23 1_555 1_555
C24 C23 1_555 1_555
C25 C24 1_555 1_555
H18 C25 1_555 1_555
C26 C21 1_555 1_555
H19 C26 1_555 1_555
C27 C24 1_555 1_555
O12 C27 1_555 1_555
O13 C27 1_555 1_555
O14 Eu2 1_555 1_555
O23 C28 1_555 1_555
C28 O14 1_555 1_555
C29 C28 1_555 1_555
C30 C29 1_555 1_555
H20 C30 1_555 1_555
C31 C30 1_555 1_555
H21 C31 1_555 1_555
C32 C31 1_555 1_555
C33 C32 1_555 1_555
H22 C33 1_555 1_555
C34 C29 1_555 1_555
H23 C34 1_555 1_555
C35 C32 1_555 1_555
O16 C35 1_555 1_555
O17 C35 1_555 1_555
O18 Eu2 1_555 1_555
C36 O18 1_555 1_555
H24 C36 1_555 1_555
N2 C36 1_555 1_555
C37 N2 1_555 1_555
H25 C37 1_555 1_555
H27 C37 1_555 1_555
Eu8 O17 1_555 1_555
Cu4_2 O16 1_555 1_555
O19 Eu2 1_555 1_555
O24 Cu1_4 1_555 1_555
Cu1_4 O26 1_555 1_555
O11 C20 1_555 1_555
C25 C26 1_555 1_555
C33 C34 1_555 1_555
O17 Cu4_2 1_555 1_555
H13_2 C19_2 1_555 1_555
H14_2 C19_2 1_555 1_555
H15_2 C19_2 1_555 1_555
C20_2 O10_2 1_555 1_555
C21_2 C20_2 1_555 1_555
C22_2 C21_2 1_555 1_555
H16_2 C22_2 1_555 1_555
C23_2 C22_2 1_555 1_555
H17_2 C23_2 1_555 1_555
C24_2 C23_2 1_555 1_555
C25_2 C24_2 1_555 1_555
H18_2 C25_2 1_555 1_555
C26_2 C21_2 1_555 1_555
H19_2 C26_2 1_555 1_555
C27_2 C24_2 1_555 1_555
O20 C27_2 1_555 1_555
O22 C27_2 1_555 1_555
O11_2 C20_2 1_555 1_555
C25_2 C26_2 1_555 1_555
O14_2 Eu8 1_555 1_555
O15 C28_2 1_555 1_555
C28_2 O14_2 1_555 1_555
C29_2 C28_2 1_555 1_555
C30_2 C29_2 1_555 1_555
H20_2 C30_2 1_555 1_555
C31_2 C30_2 1_555 1_555
H21_2 C31_2 1_555 1_555
C32_2 C31_2 1_555 1_555
C33_2 C32_2 1_555 1_555
H22_2 C33_2 1_555 1_555
C34_2 C29_2 1_555 1_555
H23_2 C34_2 1_555 1_555
C35_2 C32_2 1_555 1_555
O25 C35_2 1_555 1_555
O28 C35_2 1_555 1_555
O18_2 Eu8 1_555 1_555
C36_2 O18_2 1_555 1_555
N2_2 C36_2 1_555 1_555
C37_2 N2_2 1_555 1_555
H25_2 C37_2 1_555 1_555
H26_2 C37_2 1_555 1_555
H27_2 C37_2 1_555 1_555
Cu4_2 O15 1_555 1_555
C33_2 C34_2 1_555 1_555
Cu4 O6_2 1_555 1_555
O5_2 Eu5 1_555 1_555
O6_2 C9_2 1_555 1_555
C9_2 O5_2 1_555 1_555
C10_2 C9_2 1_555 1_555
C11_2 C10_2 1_555 1_555
H5_2 C11_2 1_555 1_555
C12_2 C11_2 1_555 1_555
H6_2 C12_2 1_555 1_555
C13_2 C12_2 1_555 1_555
C14_2 C13_2 1_555 1_555
H7_2 C14_2 1_555 1_555
C15_2 C10_2 1_555 1_555
H8_2 C15_2 1_555 1_555
C16_2 C13_2 1_555 1_555
O24 C16_2 1_555 1_555
O26 C16_2 1_555 1_555
O9_2 Eu5 1_555 1_555
C17_2 O9_2 1_555 1_555
N1_2 C17_2 1_555 1_555
C18_2 N1_2 1_555 1_555
H10_2 C18_2 1_555 1_555
H11_2 C18_2 1_555 1_555
H12_2 C18_2 1_555 1_555
C14_2 C15_2 1_555 1_555
O1_2 C1_2 1_555 1_555
O2_2 C1_2 1_555 1_555
C1_2 C2_2 1_555 1_555
C2_2 C3_2 1_555 1_555
C3_2 H1_2 1_555 1_555
C4_2 C3_2 1_555 1_555
H2_2 C4_2 1_555 1_555
C5_2 C4_2 1_555 1_555
C6_2 C5_2 1_555 1_555
H3_2 C6_2 1_555 1_555
C7_2 C2_2 1_555 1_555
H4_2 C7_2 1_555 1_555
C8_2 C5_2 1_555 1_555
O19 C8_2 1_555 1_555
O21 C8_2 1_555 1_555
H28_2 C38_2 1_555 1_555
H29_2 C38_2 1_555 1_555
H30_2 C38_2 1_555 1_555
C6_2 C7_2 1_555 1_555

#END
