
###############################################################################
#
# This file contains modified crystal structure data generated from the
# MOF subset of the Cambridge Structural Database (CSD) v543 
# hosted by the Cambridge Crystallographic Data Centre (CCDC).
#
# This work is licensed under the Creative Commons
# Attribution-NonCommercial-ShareAlike 4.0 International License.
# To view a copy of this license, visit
# http://creativecommons.org/licenses/by-nc-sa/4.0/
# or send a letter to
# Creative Commons, PO Box 1866, Mountain View, CA 94042, USA.
#
# CIF created using the CSD Python API on 29 September 2022
# The structure has been converted into the P1 space group
# The structure has a 3D framework
# The original CSD entry YAYDAH is in the monoclinic crystal system
# The framework has been calculated to contain at least 10.0% void space
# The void calculation uses a probe of radius 1.32A, grid spacing 0.4
#
###############################################################################

data_YAYDAH
_chemical_formula_moiety         '(C76 H60 Cu2 Dy4 N4 O36)n'
_symmetry_cell_setting           triclinic
_symmetry_space_group_name_H-M   'P 1'
_symmetry_Int_Tables_number      1
_space_group_name_Hall           'P 1'
loop_
_symmetry_equiv_pos_site_id
_symmetry_equiv_pos_as_xyz
1 x,y,z
_cell_length_a                   11.757(4)
_cell_length_b                   17.289(4)
_cell_length_c                   12.783(5)
_cell_angle_alpha                90
_cell_angle_beta                 114.95(2)
_cell_angle_gamma                90
_cell_volume                     2355.87
loop_
_atom_site_label
_atom_site_type_symbol
_atom_site_fract_x
_atom_site_fract_y
_atom_site_fract_z
Cu1 Cu 0.000000 0.000000 0.500000
Dy8 Dy 0.12739(2) 0.49383(2) 0.92645(2)
O25 O 0.0639(3) 0.06887(18) 0.6341(3)
O28 O 0.2206(3) 0.07471(18) 0.5813(3)
Cu1_2 Cu 0.000000 1.000000 0.500000
O23 O 0.0637(3) 0.90960(18) 0.5976(3)
Dy5 Dy 0.87261(2) 0.50617(2) 0.07355(2)
Dy1 Dy 0.62739(2) 0.00617(2) 0.42645(2)
Cu1_3 Cu 1.000000 0.000000 0.500000
O1 O 0.6359(3) 0.06387(18) 0.5894(3)
O2 O 0.5296(3) 0.07560(18) 0.6967(3)
C1 C 0.6127(5) 0.0972(2) 0.6658(4)
C2 C 0.6887(5) 0.1676(3) 0.7234(4)
C3 C 0.7811(5) 0.1960(3) 0.6921(4)
H1 H 0.799083 0.169425 0.635794
C4 C 0.8467(5) 0.2624(3) 0.7423(5)
H2 H 0.909285 0.281412 0.720353
C5 C 0.8211(5) 0.3016(2) 0.8252(4)
C6 C 0.7282(5) 0.2737(3) 0.8568(5)
H3 H 0.710165 0.300407 0.912930
C7 C 0.6623(5) 0.2067(3) 0.8059(4)
H4 H 0.599413 0.187668 0.827390
C8 C 0.8911(5) 0.3742(2) 0.8809(4)
O3 O 0.9731(3) 0.39939(17) 0.8519(3)
O4 O 0.8610(3) 0.40434(17) 0.9555(3)
O5 O 0.7832(3) 0.09587(17) 0.4616(3)
O6 O 0.9363(3) 0.09040(18) 0.4024(3)
C9 C 0.8416(5) 0.1221(3) 0.4056(4)
C10 C 0.7952(5) 0.1953(3) 0.3380(4)
C11 C 0.8519(5) 0.2214(3) 0.2681(5)
H5 H 0.919124 0.193015 0.264161
C12 C 0.8101(5) 0.2889(3) 0.2042(5)
H6 H 0.848271 0.306792 0.156463
C13 C 0.7112(5) 0.3300(3) 0.2111(5)
C14 C 0.6559(5) 0.3046(3) 0.2814(5)
H7 H 0.589569 0.333398 0.286455
C15 C 0.6974(5) 0.2372(3) 0.3442(5)
H8 H 0.658908 0.219423 0.391823
C16 C 0.6640(5) 0.4012(3) 0.1396(4)
O7 O 0.5639(3) 0.43113(18) 0.1341(3)
O8 O 0.7206(3) 0.42529(18) 0.0813(3)
O9 O 0.6233(3) 0.03149(18) 0.2442(3)
C17 C 0.5434(5) 0.0658(3) 0.1585(4)
H9 H 0.463691 0.076841 0.157388
N1 N 0.5651(4) 0.0871(2) 0.0705(4)
C18 C 0.6851(5) 0.0729(4) 0.0651(5)
H10 H 0.721537 0.122181 0.056711
H12 H 0.742498 0.047184 0.136108
Cu4 Cu 0.500000 0.500000 0.000000
O20 O 0.4731(3) 0.10061(17) 0.3519(3)
O22 O 0.3610(3) 0.09566(17) 0.4555(3)
H11 H 0.671676 0.039685 0.998703
C19 C 0.4704(6) 0.1285(4) 0.9734(5)
H13 H 0.389945 0.126573 0.979290
H14 H 0.461270 0.104286 0.901004
H15 H 0.496181 0.182544 0.974738
Cu4_2 Cu 0.500000 0.500000 1.000000
H26 H 0.328324 0.960315 0.001297
C38 C 0.5296(6) 0.8715(4) 0.0266(5)
H28 H 0.610055 0.873427 0.020710
H29 H 0.538730 0.895714 0.098996
H30 H 0.503819 0.817456 0.025262
Cu1_4 Cu 1.000000 1.000000 0.500000
Dy2 Dy 0.37261(2) 0.99383(2) 0.57355(2)
O10 O 0.3641(3) 0.93613(18) 0.4106(3)
O11 O 0.4704(3) 0.92440(18) 0.3033(3)
C20 C 0.3873(5) 0.9028(2) 0.3342(4)
C21 C 0.3113(5) 0.8324(3) 0.2766(4)
C22 C 0.2189(5) 0.8040(3) 0.3079(4)
H16 H 0.200917 0.830575 0.364206
C23 C 0.1533(5) 0.7376(3) 0.2577(5)
H17 H 0.090715 0.718588 0.279647
C24 C 0.1789(5) 0.6984(2) 0.1748(4)
C25 C 0.2718(5) 0.7263(3) 0.1432(5)
H18 H 0.289835 0.699593 0.087070
C26 C 0.3377(5) 0.7933(3) 0.1941(4)
H19 H 0.400587 0.812332 0.172610
C27 C 0.1089(5) 0.6258(2) 0.1191(4)
O12 O 0.0269(3) 0.60061(17) 0.1481(3)
O13 O 0.1390(3) 0.59566(17) 0.0445(3)
O14 O 0.2168(3) 0.90413(17) 0.5384(3)
C28 C 0.1584(5) 0.8779(3) 0.5944(4)
C29 C 0.2048(5) 0.8047(3) 0.6620(4)
C30 C 0.1481(5) 0.7786(3) 0.7319(5)
H20 H 0.080876 0.806985 0.735839
C31 C 0.1899(5) 0.7111(3) 0.7958(5)
H21 H 0.151729 0.693208 0.843537
C32 C 0.2888(5) 0.6700(3) 0.7889(5)
C33 C 0.3441(5) 0.6954(3) 0.7186(5)
H22 H 0.410431 0.666602 0.713545
C34 C 0.3026(5) 0.7628(3) 0.6558(5)
H23 H 0.341092 0.780577 0.608177
C35 C 0.3360(5) 0.5988(3) 0.8604(4)
O16 O 0.4361(3) 0.56887(18) 0.8659(3)
O17 O 0.2794(3) 0.57471(18) 0.9187(3)
O18 O 0.3767(3) 0.96851(18) 0.7558(3)
C36 C 0.4566(5) 0.9342(3) 0.8415(4)
H24 H 0.536309 0.923159 0.842612
N2 N 0.4349(4) 0.9129(2) 0.9295(4)
C37 C 0.3149(5) 0.9271(4) 0.9349(5)
H25 H 0.278463 0.877819 0.943289
H27 H 0.257502 0.952816 0.863892
O19 O 0.5269(3) 0.89939(17) 0.6481(3)
O21 O 0.6390(3) 0.90434(17) 0.5445(3)
O24 O 0.9361(3) 0.93113(18) 0.3659(3)
O26 O 0.7794(3) 0.92529(18) 0.4187(3)
H9_2 H 0.036309 0.576841 0.342612
C19_2 C 0.0296(6) 0.6285(4) 0.5266(5)
H13_2 H 0.110055 0.626573 0.520710
H14_2 H 0.038730 0.604286 0.598996
H15_2 H 0.003819 0.682544 0.525262
O10_2 O 0.1359(3) 0.43613(18) 0.0894(3)
O11_2 O 0.0296(3) 0.42440(18) 0.1967(3)
C20_2 C 0.1127(5) 0.4028(2) 0.1658(4)
C21_2 C 0.1887(5) 0.3324(3) 0.2234(4)
C22_2 C 0.2811(5) 0.3040(3) 0.1921(4)
H16_2 H 0.299083 0.330575 0.135794
C23_2 C 0.3467(5) 0.2376(3) 0.2423(5)
H17_2 H 0.409285 0.218588 0.220353
C24_2 C 0.3211(5) 0.1984(2) 0.3252(4)
C25_2 C 0.2282(5) 0.2263(3) 0.3568(5)
H18_2 H 0.210165 0.199593 0.412930
C26_2 C 0.1623(5) 0.2933(3) 0.3059(4)
H19_2 H 0.099413 0.312332 0.327390
C27_2 C 0.3911(5) 0.1258(2) 0.3809(4)
O14_2 O 0.2832(3) 0.40413(17) 0.9616(3)
O15 O 0.4363(3) 0.40960(18) 0.9024(3)
C28_2 C 0.3416(5) 0.3779(3) 0.9056(4)
C29_2 C 0.2952(5) 0.3047(3) 0.8380(4)
C30_2 C 0.3519(5) 0.2786(3) 0.7681(5)
H20_2 H 0.419124 0.306985 0.764161
C31_2 C 0.3101(5) 0.2111(3) 0.7042(5)
H21_2 H 0.348271 0.193208 0.656463
C32_2 C 0.2112(5) 0.1700(3) 0.7111(5)
C33_2 C 0.1559(5) 0.1954(3) 0.7814(5)
H22_2 H 0.089569 0.166602 0.786455
C34_2 C 0.1974(5) 0.2628(3) 0.8442(5)
H23_2 H 0.158908 0.280577 0.891823
C35_2 C 0.1640(5) 0.0988(3) 0.6396(4)
O18_2 O 0.1233(3) 0.46851(18) 0.7442(3)
C36_2 C 0.0434(5) 0.4342(3) 0.6585(4)
N2_2 N 0.0651(4) 0.4129(2) 0.5705(4)
C37_2 C 0.1851(5) 0.4271(4) 0.5651(5)
H25_2 H 0.221537 0.377819 0.556711
H26_2 H 0.171676 0.460315 0.498703
H27_2 H 0.242498 0.452816 0.636108
O5_2 O 0.7168(3) 0.59587(17) 0.0384(3)
O6_2 O 0.5637(3) 0.59040(18) 0.0976(3)
C9_2 C 0.6584(5) 0.6221(3) 0.0944(4)
C10_2 C 0.7048(5) 0.6953(3) 0.1620(4)
C11_2 C 0.6481(5) 0.7214(3) 0.2319(5)
H5_2 H 0.580876 0.693015 0.235839
C12_2 C 0.6899(5) 0.7889(3) 0.2958(5)
H6_2 H 0.651729 0.806792 0.343537
C13_2 C 0.7888(5) 0.8300(3) 0.2889(5)
C14_2 C 0.8441(5) 0.8046(3) 0.2186(5)
H7_2 H 0.910431 0.833398 0.213545
C15_2 C 0.8026(5) 0.7372(3) 0.1558(5)
H8_2 H 0.841092 0.719423 0.108177
C16_2 C 0.8360(5) 0.9012(3) 0.3604(4)
O9_2 O 0.8767(3) 0.53149(18) 0.2558(3)
C17_2 C 0.9566(5) 0.5658(3) 0.3415(4)
N1_2 N 0.9349(4) 0.5871(2) 0.4295(4)
C18_2 C 0.8149(5) 0.5729(4) 0.4349(5)
H10_2 H 0.778463 0.622181 0.443289
H11_2 H 0.828324 0.539685 0.501297
H12_2 H 0.757502 0.547184 0.363892
O1_2 O 0.8641(3) 0.56387(18) 0.9106(3)
O2_2 O 0.9704(3) 0.57560(18) 0.8033(3)
C1_2 C 0.8873(5) 0.5972(2) 0.8342(4)
C2_2 C 0.8113(5) 0.6676(3) 0.7766(4)
C3_2 C 0.7189(5) 0.6960(3) 0.8079(4)
H1_2 H 0.700917 0.669425 0.864206
C4_2 C 0.6533(5) 0.7624(3) 0.7577(5)
H2_2 H 0.590715 0.781412 0.779647
C5_2 C 0.6789(5) 0.8016(2) 0.6748(4)
C6_2 C 0.7718(5) 0.7737(3) 0.6432(5)
H3_2 H 0.789835 0.800407 0.587070
C7_2 C 0.8377(5) 0.7067(3) 0.6941(4)
H4_2 H 0.900587 0.687668 0.672610
C8_2 C 0.6089(5) 0.8742(2) 0.6191(4)
H24_2 H 0.963691 0.423159 0.657388
C38_2 C 0.9704(6) 0.3715(4) 0.4734(5)
H28_2 H 0.889945 0.373427 0.479290
H29_2 H 0.961270 0.395714 0.401004
H30_2 H 0.996181 0.317456 0.474738
loop_
_geom_bond_atom_site_label_1
_geom_bond_atom_site_label_2
_geom_bond_site_symmetry_1
_geom_bond_site_symmetry_2
O25 Cu1 1_555 1_555
O28 Cu1 1_555 1_555
O23 Cu1_2 1_555 1_555
Dy1 O1 1_555 1_555
Cu1_3 O6 1_555 1_555
O1 C1 1_555 1_555
O2 C1 1_555 1_555
C1 C2 1_555 1_555
C2 C3 1_555 1_555
C3 H1 1_555 1_555
C4 C3 1_555 1_555
H2 C4 1_555 1_555
C5 C4 1_555 1_555
C6 C5 1_555 1_555
H3 C6 1_555 1_555
C7 C2 1_555 1_555
H4 C7 1_555 1_555
C8 C5 1_555 1_555
O3 C8 1_555 1_555
O4 C8 1_555 1_555
O5 Dy1 1_555 1_555
O6 C9 1_555 1_555
C9 O5 1_555 1_555
C10 C9 1_555 1_555
C11 C10 1_555 1_555
H5 C11 1_555 1_555
C12 C11 1_555 1_555
H6 C12 1_555 1_555
C13 C12 1_555 1_555
C14 C13 1_555 1_555
H7 C14 1_555 1_555
C15 C10 1_555 1_555
H8 C15 1_555 1_555
C16 C13 1_555 1_555
O7 C16 1_555 1_555
O8 C16 1_555 1_555
O9 Dy1 1_555 1_555
C17 O9 1_555 1_555
H9 C17 1_555 1_555
N1 C17 1_555 1_555
C18 N1 1_555 1_555
H10 C18 1_555 1_555
H12 C18 1_555 1_555
Dy5 O8 1_555 1_555
Cu4 O7 1_555 1_555
O20 Dy1 1_555 1_555
C6 C7 1_555 1_555
C14 C15 1_555 1_555
O8 Cu4 1_555 1_555
H13 C19 1_555 1_555
H14 C19 1_555 1_555
H15 C19 1_555 1_555
H28 C38 1_555 1_555
H29 C38 1_555 1_555
H30 C38 1_555 1_555
O10 Dy2 1_555 1_555
C20 O10 1_555 1_555
C21 C20 1_555 1_555
C22 C21 1_555 1_555
H16 C22 1_555 1_555
C23 C22 1_555 1_555
H17 C23 1_555 1_555
C24 C23 1_555 1_555
C25 C24 1_555 1_555
H18 C25 1_555 1_555
C26 C21 1_555 1_555
H19 C26 1_555 1_555
C27 C24 1_555 1_555
O12 C27 1_555 1_555
O13 C27 1_555 1_555
O14 Dy2 1_555 1_555
O23 C28 1_555 1_555
C28 O14 1_555 1_555
C29 C28 1_555 1_555
C30 C29 1_555 1_555
H20 C30 1_555 1_555
C31 C30 1_555 1_555
H21 C31 1_555 1_555
C32 C31 1_555 1_555
C33 C32 1_555 1_555
H22 C33 1_555 1_555
C34 C29 1_555 1_555
H23 C34 1_555 1_555
C35 C32 1_555 1_555
O16 C35 1_555 1_555
O17 C35 1_555 1_555
O18 Dy2 1_555 1_555
C36 O18 1_555 1_555
H24 C36 1_555 1_555
N2 C36 1_555 1_555
C37 N2 1_555 1_555
H25 C37 1_555 1_555
H27 C37 1_555 1_555
Dy8 O17 1_555 1_555
Cu4_2 O16 1_555 1_555
O19 Dy2 1_555 1_555
O24 Cu1_4 1_555 1_555
Cu1_4 O26 1_555 1_555
O11 C20 1_555 1_555
C25 C26 1_555 1_555
C33 C34 1_555 1_555
O17 Cu4_2 1_555 1_555
H13_2 C19_2 1_555 1_555
H14_2 C19_2 1_555 1_555
H15_2 C19_2 1_555 1_555
C20_2 O10_2 1_555 1_555
C21_2 C20_2 1_555 1_555
C22_2 C21_2 1_555 1_555
H16_2 C22_2 1_555 1_555
C23_2 C22_2 1_555 1_555
H17_2 C23_2 1_555 1_555
C24_2 C23_2 1_555 1_555
C25_2 C24_2 1_555 1_555
H18_2 C25_2 1_555 1_555
C26_2 C21_2 1_555 1_555
H19_2 C26_2 1_555 1_555
C27_2 C24_2 1_555 1_555
O20 C27_2 1_555 1_555
O22 C27_2 1_555 1_555
O11_2 C20_2 1_555 1_555
C25_2 C26_2 1_555 1_555
O14_2 Dy8 1_555 1_555
O15 C28_2 1_555 1_555
C28_2 O14_2 1_555 1_555
C29_2 C28_2 1_555 1_555
C30_2 C29_2 1_555 1_555
H20_2 C30_2 1_555 1_555
C31_2 C30_2 1_555 1_555
H21_2 C31_2 1_555 1_555
C32_2 C31_2 1_555 1_555
C33_2 C32_2 1_555 1_555
H22_2 C33_2 1_555 1_555
C34_2 C29_2 1_555 1_555
H23_2 C34_2 1_555 1_555
C35_2 C32_2 1_555 1_555
O25 C35_2 1_555 1_555
O28 C35_2 1_555 1_555
O18_2 Dy8 1_555 1_555
C36_2 O18_2 1_555 1_555
N2_2 C36_2 1_555 1_555
C37_2 N2_2 1_555 1_555
H25_2 C37_2 1_555 1_555
H26_2 C37_2 1_555 1_555
H27_2 C37_2 1_555 1_555
Cu4_2 O15 1_555 1_555
C33_2 C34_2 1_555 1_555
Cu4 O6_2 1_555 1_555
O5_2 Dy5 1_555 1_555
O6_2 C9_2 1_555 1_555
C9_2 O5_2 1_555 1_555
C10_2 C9_2 1_555 1_555
C11_2 C10_2 1_555 1_555
H5_2 C11_2 1_555 1_555
C12_2 C11_2 1_555 1_555
H6_2 C12_2 1_555 1_555
C13_2 C12_2 1_555 1_555
C14_2 C13_2 1_555 1_555
H7_2 C14_2 1_555 1_555
C15_2 C10_2 1_555 1_555
H8_2 C15_2 1_555 1_555
C16_2 C13_2 1_555 1_555
O24 C16_2 1_555 1_555
O26 C16_2 1_555 1_555
O9_2 Dy5 1_555 1_555
C17_2 O9_2 1_555 1_555
N1_2 C17_2 1_555 1_555
C18_2 N1_2 1_555 1_555
H10_2 C18_2 1_555 1_555
H11_2 C18_2 1_555 1_555
H12_2 C18_2 1_555 1_555
C14_2 C15_2 1_555 1_555
O1_2 C1_2 1_555 1_555
O2_2 C1_2 1_555 1_555
C1_2 C2_2 1_555 1_555
C2_2 C3_2 1_555 1_555
C3_2 H1_2 1_555 1_555
C4_2 C3_2 1_555 1_555
H2_2 C4_2 1_555 1_555
C5_2 C4_2 1_555 1_555
C6_2 C5_2 1_555 1_555
H3_2 C6_2 1_555 1_555
C7_2 C2_2 1_555 1_555
H4_2 C7_2 1_555 1_555
C8_2 C5_2 1_555 1_555
O19 C8_2 1_555 1_555
O21 C8_2 1_555 1_555
H28_2 C38_2 1_555 1_555
H29_2 C38_2 1_555 1_555
H30_2 C38_2 1_555 1_555
C6_2 C7_2 1_555 1_555

#END
