
###############################################################################
#
# This file contains modified crystal structure data generated from the
# MOF subset of the Cambridge Structural Database (CSD) v543 
# hosted by the Cambridge Crystallographic Data Centre (CCDC).
#
# This work is licensed under the Creative Commons
# Attribution-NonCommercial-ShareAlike 4.0 International License.
# To view a copy of this license, visit
# http://creativecommons.org/licenses/by-nc-sa/4.0/
# or send a letter to
# Creative Commons, PO Box 1866, Mountain View, CA 94042, USA.
#
# CIF created using the CSD Python API on 29 September 2022
# The structure has been converted into the P1 space group
# The structure has a 3D framework
# The original CSD entry YAZZEG is in the triclinic crystal system
# The framework has been calculated to contain at least 10.0% void space
# The void calculation uses a probe of radius 1.32A, grid spacing 0.4
#
###############################################################################

data_YAZZEG
_chemical_formula_moiety         '(C40 H30 Dy4 O36)n'
_symmetry_cell_setting           triclinic
_symmetry_space_group_name_H-M   'P 1'
_symmetry_Int_Tables_number      1
_space_group_name_Hall           'P 1'
loop_
_symmetry_equiv_pos_site_id
_symmetry_equiv_pos_as_xyz
1 x,y,z
_cell_length_a                   7.3494(4)
_cell_length_b                   11.4750(6)
_cell_length_c                   16.1852(8)
_cell_angle_alpha                78.7990(10)
_cell_angle_beta                 82.4830(10)
_cell_angle_gamma                79.9550(10)
_cell_volume                     1311.79
loop_
_atom_site_label
_atom_site_type_symbol
_atom_site_fract_x
_atom_site_fract_y
_atom_site_fract_z
_atom_site_U_iso_or_equiv
_atom_site_thermal_displace_type
Dy7 Dy 0.05846(2) 0.934025(16) 0.226370(11) 0.0132 Uani
O47 O 0.1159(5) 0.1382(3) 0.1732(2) 0.0316 Uani
H22 H 0.2090 0.1685 0.1731 0.0480 Uiso
H23 H 0.0700 0.1902 0.1361 0.0480 Uiso
O8 O 0.1911(5) 0.3175(3) 0.6874(2) 0.0329 Uani
O13 O 0.2712(4) 0.1065(3) 0.80107(17) 0.0180 Uani
O15 O 0.6335(4) 0.0939(3) 0.83485(16) 0.0152 Uani
C10 C 0.0329(6) 0.4062(4) 0.5690(3) 0.0187 Uani
C11 C 0.1306(6) 0.5030(4) 0.5536(3) 0.0209 Uani
H13 H 0.2187 0.5054 0.5893 0.0250 Uiso
C12 C 0.0715(6) 0.3084(4) 0.6430(3) 0.0188 Uani
C18 C 0.5671(5) 0.0472(3) 0.9146(2) 0.0141 Uani
C19 C 0.3868(5) 0.0171(4) 0.9353(2) 0.0139 Uani
C20 C 0.2521(5) 0.0349(4) 0.8715(2) 0.0153 Uani
Dy4 Dy 0.94154(2) 0.065975(16) 0.773630(11) 0.0132 Uani
Dy10 Dy 0.44429(2) 0.264555(16) 0.763971(11) 0.0151 Uani
O20 O 0.0742(4) 0.7803(3) 0.1455(2) 0.0239 Uani
O26 O 0.0213(4) 0.7787(3) 0.34341(19) 0.0222 Uani
O30 O 0.2023(5) 0.6868(3) 0.4731(2) 0.0292 Uani
H18 H 0.1537 0.7444 0.4406 0.0440 Uiso
O34 O 0.1971(4) 0.9958(3) 0.3360(2) 0.0269 Uani
O44 O 0.3665(4) 0.9061(3) 0.16515(16) 0.0152 Uani
C29 C 0.0987(6) 0.5959(4) 0.4858(3) 0.0201 Uani
C37 C 0.6769(5) 0.0279(4) 0.9816(2) 0.0165 Uani
H30 H 0.7973 0.0459 0.9703 0.0200 Uiso
C17 C 0.3231(5) 0.9721(4) 0.0184(2) 0.0165 Uani
H15 H 0.2027 0.9541 0.0297 0.0200 Uiso
Dy13 Dy 0.55571(2) 0.735445(16) 0.236029(11) 0.0151 Uani
O36 O 0.7288(4) 0.8935(3) 0.19893(17) 0.0180 Uani
C38 C 0.4329(5) 0.9528(3) 0.0854(2) 0.0141 Uani
C39 C 0.6132(5) 0.9829(4) 0.0647(2) 0.0139 Uani
C40 C 0.7479(5) 0.9651(4) 0.1285(2) 0.0153 Uani
O3 O 0.7329(5) 0.5575(3) 0.1825(2) 0.0338 Uani
O4 O 0.6277(5) 0.7144(3) 0.0914(2) 0.0298 Uani
O5 O 0.9819(6) 0.2418(3) 0.0076(2) 0.0427 Uani
C3 C 0.8347(6) 0.4174(4) 0.0537(3) 0.0269 Uani
H11 H 0.8746 0.3853 0.1068 0.0320 Uiso
C4 C 0.7396(6) 0.5338(4) 0.0383(3) 0.0215 Uani
C8 C 0.7014(6) 0.6048(4) 0.1079(3) 0.0222 Uani
O21 O 0.3021(4) 0.6563(3) 0.20938(19) 0.0233 Uani
H16 H 0.0053 0.7929 0.0330 0.0640 Uiso
O25 O 0.4188(6) 0.3038(3) 0.0608(2) 0.0490 Uani
H17 H 0.4290 0.2694 0.0201 0.0740 Uiso
O29 O 0.8089(5) 0.6825(3) 0.3126(2) 0.0329 Uani
O32 O 0.4110(5) 0.8336(3) 0.34210(19) 0.0251 Uani
O48 O 0.4786(5) 0.5778(3) 0.3533(2) 0.0309 Uani
H24 H 0.4488 0.5163 0.3440 0.0460 Uiso
H25 H 0.4221 0.6052 0.3942 0.0460 Uiso
C21 C 0.2060(6) 0.6074(4) 0.0873(3) 0.0180 Uani
C22 C 0.1297(6) 0.6511(4) 0.0100(3) 0.0246 Uani
C25 C 0.3231(6) 0.4185(4) 0.0405(3) 0.0237 Uani
C26 C 0.3011(6) 0.4894(4) 0.1019(3) 0.0223 Uani
H27 H 0.3498 0.4588 0.1533 0.0270 Uiso
C27 C 0.1921(6) 0.6858(4) 0.1520(3) 0.0188 Uani
O1 O 0.9258(4) 0.2197(3) 0.8545(2) 0.0239 Uani
O2 O 0.6979(4) 0.3437(3) 0.79062(19) 0.0233 Uani
H1 H 0.9947 0.2071 0.9670 0.0640 Uiso
O6 O 0.5812(6) 0.6962(3) 0.9392(2) 0.0490 Uani
H2 H 0.5710 0.7306 0.9799 0.0740 Uiso
O7 O 0.9787(4) 0.2213(3) 0.65659(19) 0.0222 Uani
O9 O 0.7977(5) 0.3132(3) 0.5269(2) 0.0292 Uani
H3 H 0.8463 0.2556 0.5594 0.0440 Uiso
O10 O 0.5890(5) 0.1664(3) 0.65790(19) 0.0251 Uani
O11 O 0.8029(4) 0.0042(3) 0.6640(2) 0.0269 Uani
O18 O 0.5214(5) 0.4222(3) 0.6467(2) 0.0309 Uani
H9 H 0.5512 0.4837 0.6560 0.0460 Uiso
H10 H 0.5779 0.3948 0.6058 0.0460 Uiso
C1 C 0.7940(6) 0.3926(4) 0.9127(3) 0.0180 Uani
C2 C 0.8703(6) 0.3489(4) 0.9900(3) 0.0246 Uani
C5 C 0.6769(6) 0.5815(4) 0.9595(3) 0.0237 Uani
C6 C 0.6989(6) 0.5106(4) 0.8981(3) 0.0223 Uani
H12 H 0.6502 0.5412 0.8467 0.0270 Uiso
C7 C 0.8079(6) 0.3142(4) 0.8480(3) 0.0188 Uani
C9 C 0.9013(6) 0.4041(4) 0.5142(3) 0.0201 Uani
C14 C 0.4315(6) 0.1073(4) 0.5280(3) 0.0241 Uani
H14 H 0.3851 0.1793 0.5470 0.0290 Uiso
C15 C 0.5821(6) 0.0319(4) 0.5639(3) 0.0187 Uani
C16 C 0.6626(6) 0.0694(4) 0.6337(3) 0.0196 Uani
O22 O 0.2671(5) 0.4425(3) 0.8175(2) 0.0338 Uani
O23 O 0.3723(5) 0.2856(3) 0.9086(2) 0.0298 Uani
O24 O 0.0181(6) 0.7582(3) 0.9924(2) 0.0427 Uani
O35 O 0.2031(5) 0.1553(3) 0.4327(2) 0.0411 Uani
H19 H 0.1512 0.1234 0.4032 0.0610 Uiso
C23 C 0.1653(6) 0.5826(4) 0.9463(3) 0.0269 Uani
H26 H 0.1254 0.6147 0.8932 0.0320 Uiso
C24 C 0.2604(6) 0.4662(4) 0.9617(3) 0.0215 Uani
C28 C 0.2986(6) 0.3952(4) 0.8921(3) 0.0222 Uani
C30 C 0.9671(6) 0.5938(4) 0.4310(3) 0.0187 Uani
C31 C 0.8694(6) 0.4970(4) 0.4464(3) 0.0209 Uani
H28 H 0.7813 0.4946 0.4107 0.0250 Uiso
C32 C 0.9285(6) 0.6916(4) 0.3570(3) 0.0188 Uani
C33 C 0.3502(6) 0.0759(4) 0.4640(3) 0.0223 Uani
O12 O 0.7969(5) 0.8447(3) 0.5673(2) 0.0411 Uani
H4 H 0.8488 0.8766 0.5968 0.0610 Uiso
O17 O 0.8841(5) 0.8618(3) 0.8268(2) 0.0316 Uani
H7 H 0.7910 0.8315 0.8269 0.0480 Uiso
H8 H 0.9300 0.8098 0.8639 0.0480 Uiso
C13 C 0.6498(6) 0.9241(4) 0.5360(3) 0.0223 Uani
C34 C 0.5685(6) 0.8927(4) 0.4720(3) 0.0241 Uani
H29 H 0.6149 0.8207 0.4530 0.0290 Uiso
C35 C 0.4179(6) 0.9681(4) 0.4361(3) 0.0187 Uani
C36 C 0.3374(6) 0.9306(4) 0.3663(3) 0.0196 Uani
O40 O 0.8868(4) 0.0188(3) 0.11176(19) 0.0243 Uani
O46 O 0.8127(4) 0.0446(3) 0.3005(2) 0.0344 Uani
H20 H 0.7141 0.0682 0.2796 0.0520 Uiso
H21 H 0.8019 0.1004 0.3266 0.0520 Uiso
O14 O 0.1132(4) 0.9812(3) 0.88824(19) 0.0243 Uani
O16 O 0.1873(4) 0.9554(3) 0.6995(2) 0.0344 Uani
H5 H 0.2859 0.9318 0.7204 0.0520 Uiso
H6 H 0.1981 0.8996 0.6734 0.0520 Uiso
loop_
_atom_site_aniso_label
_atom_site_aniso_U_11
_atom_site_aniso_U_22
_atom_site_aniso_U_33
_atom_site_aniso_U_23
_atom_site_aniso_U_13
_atom_site_aniso_U_12
Dy7 0.01395 0.01479 0.01152 -0.00075 -0.00461 -0.00305
O47 0.0343 0.0255 0.037 -0.0006 -0.0082 -0.0117
O8 0.0343 0.0321 0.0336 0.0141 -0.0221 -0.0167
O13 0.0193 0.0206 0.014 0.0025 -0.0075 -0.005
O15 0.0152 0.0215 0.0075 -0.0001 -0.0007 -0.0022
C10 0.021 0.021 0.0138 0.0021 -0.0053 -0.0057
C11 0.023 0.022 0.019 0.0023 -0.0105 -0.0076
C12 0.0174 0.02 0.017 0.0028 -0.004 -0.0026
C18 0.0146 0.0147 0.0123 -0.0002 -0.003 -0.0015
C19 0.0121 0.02 0.0098 -0.0005 -0.0041 -0.0033
C20 0.0151 0.0158 0.016 -0.0027 -0.0057 -0.002
Dy4 0.01395 0.01479 0.01152 -0.00075 -0.00461 -0.00305
Dy10 0.01636 0.01647 0.01304 -0.00108 -0.00508 -0.00283
O20 0.0226 0.0234 0.0279 -0.0116 -0.0046 -0.0003
O26 0.0262 0.0203 0.02 0.004 -0.0073 -0.0081
O30 0.037 0.0276 0.0254 0.0087 -0.015 -0.0177
O34 0.0304 0.0312 0.0235 -0.0062 -0.0116 -0.0088
O44 0.0152 0.0215 0.0075 -0.0001 -0.0007 -0.0022
C29 0.021 0.02 0.02 0.0022 -0.0064 -0.0079
C37 0.015 0.021 0.0132 0.003 -0.0046 -0.0062
C17 0.015 0.021 0.0132 0.003 -0.0046 -0.0062
Dy13 0.01636 0.01647 0.01304 -0.00108 -0.00508 -0.00283
O36 0.0193 0.0206 0.014 0.0025 -0.0075 -0.005
C38 0.0146 0.0147 0.0123 -0.0002 -0.003 -0.0015
C39 0.0121 0.02 0.0098 -0.0005 -0.0041 -0.0033
C40 0.0151 0.0158 0.016 -0.0027 -0.0057 -0.002
O3 0.039 0.038 0.0238 -0.0123 -0.0117 0.0101
O4 0.045 0.0201 0.0235 -0.0077 0.0004 -0.0017
O5 0.057 0.033 0.037 -0.0099 -0.0134 0.0065
C3 0.027 0.031 0.022 -0.0074 -0.0079 0.0044
C4 0.022 0.023 0.021 -0.0081 -0.0006 -0.0038
C8 0.018 0.026 0.025 -0.0114 0.0002 -0.0037
O21 0.0255 0.0243 0.0236 -0.006 -0.0068 -0.0085
O25 0.074 0.034 0.036 -0.0102 -0.013 0.01
O29 0.0343 0.0321 0.0336 0.0141 -0.0221 -0.0167
O32 0.0371 0.0252 0.0163 -0.0076 -0.0023 -0.0096
O48 0.0319 0.0301 0.0288 0.0032 -0.0034 -0.0087
C21 0.019 0.019 0.017 -0.0032 -0.001 -0.0064
C22 0.024 0.022 0.026 -0.0059 -0.0038 0.0043
C25 0.025 0.017 0.028 -0.0023 -0.0031 -0.0021
C26 0.023 0.023 0.022 -0.0039 -0.0068 -0.0036
C27 0.0179 0.02 0.021 -0.0054 0.0005 -0.0096
O1 0.0226 0.0234 0.0279 -0.0116 -0.0046 -0.0003
O2 0.0255 0.0243 0.0236 -0.006 -0.0068 -0.0085
O6 0.074 0.034 0.036 -0.0102 -0.013 0.01
O7 0.0262 0.0203 0.02 0.004 -0.0073 -0.0081
O9 0.037 0.0276 0.0254 0.0087 -0.015 -0.0177
O10 0.0371 0.0252 0.0163 -0.0076 -0.0023 -0.0096
O11 0.0304 0.0312 0.0235 -0.0062 -0.0116 -0.0088
O18 0.0319 0.0301 0.0288 0.0032 -0.0034 -0.0087
C1 0.019 0.019 0.017 -0.0032 -0.001 -0.0064
C2 0.024 0.022 0.026 -0.0059 -0.0038 0.0043
C5 0.025 0.017 0.028 -0.0023 -0.0031 -0.0021
C6 0.023 0.023 0.022 -0.0039 -0.0068 -0.0036
C7 0.0179 0.02 0.021 -0.0054 0.0005 -0.0096
C9 0.021 0.02 0.02 0.0022 -0.0064 -0.0079
C14 0.027 0.021 0.028 -0.0118 -0.0109 0.0011
C15 0.02 0.023 0.0155 -0.0036 -0.0041 -0.008
C16 0.022 0.028 0.0116 -0.0024 -0.0027 -0.0121
O22 0.039 0.038 0.0238 -0.0123 -0.0117 0.0101
O23 0.045 0.0201 0.0235 -0.0077 0.0004 -0.0017
O24 0.057 0.033 0.037 -0.0099 -0.0134 0.0065
O35 0.046 0.036 0.046 -0.0165 -0.0304 0.0102
C23 0.027 0.031 0.022 -0.0074 -0.0079 0.0044
C24 0.022 0.023 0.021 -0.0081 -0.0006 -0.0038
C28 0.018 0.026 0.025 -0.0114 0.0002 -0.0037
C30 0.021 0.021 0.0138 0.0021 -0.0053 -0.0057
C31 0.023 0.022 0.019 0.0023 -0.0105 -0.0076
C32 0.0174 0.02 0.017 0.0028 -0.004 -0.0026
C33 0.023 0.022 0.023 -0.0074 -0.0076 0.0014
O12 0.046 0.036 0.046 -0.0165 -0.0304 0.0102
O17 0.0343 0.0255 0.037 -0.0006 -0.0082 -0.0117
C13 0.023 0.022 0.023 -0.0074 -0.0076 0.0014
C34 0.027 0.021 0.028 -0.0118 -0.0109 0.0011
C35 0.02 0.023 0.0155 -0.0036 -0.0041 -0.008
C36 0.022 0.028 0.0116 -0.0024 -0.0027 -0.0121
O40 0.0194 0.0308 0.0233 0.0069 -0.012 -0.0114
O46 0.0247 0.042 0.041 -0.0227 -0.0058 0.0017
O14 0.0194 0.0308 0.0233 0.0069 -0.012 -0.0114
O16 0.0247 0.042 0.041 -0.0227 -0.0058 0.0017
loop_
_geom_bond_atom_site_label_1
_geom_bond_atom_site_label_2
_geom_bond_site_symmetry_1
_geom_bond_site_symmetry_2
H22 O47 1_555 1_555
H23 O47 1_555 1_555
O8 C12 1_555 1_555
O15 C18 1_555 1_555
C11 C10 1_555 1_555
H13 C11 1_555 1_555
C18 C19 1_555 1_555
C20 O13 1_555 1_555
Dy7 O20 1_555 1_555
Dy4 O15 1_555 1_555
Dy10 O8 1_555 1_555
O26 Dy7 1_555 1_555
O30 H18 1_555 1_555
O34 Dy7 1_555 1_555
O44 Dy7 1_555 1_555
C29 C11 1_555 1_555
C37 C18 1_555 1_555
H30 C37 1_555 1_555
O13 Dy10 1_555 1_555
O15 Dy10 1_555 1_555
C10 C12 1_555 1_555
C19 C20 1_555 1_555
O30 C29 1_555 1_555
C17 H15 1_555 1_555
Dy13 O36 1_555 1_555
O36 C40 1_555 1_555
O44 Dy13 1_555 1_555
C38 C17 1_555 1_555
O44 C38 1_555 1_555
C38 C39 1_555 1_555
C39 C40 1_555 1_555
O3 C8 1_555 1_555
O4 C8 1_555 1_555
H11 C3 1_555 1_555
C4 C3 1_555 1_555
C8 C4 1_555 1_555
Dy13 O3 1_555 1_555
O20 C27 1_555 1_555
O21 Dy13 1_555 1_555
O25 H17 1_555 1_555
O29 Dy13 1_555 1_555
O32 Dy13 1_555 1_555
O48 Dy13 1_555 1_555
H24 O48 1_555 1_555
H25 O48 1_555 1_555
C21 C22 1_555 1_555
C25 O25 1_555 1_555
C26 C21 1_555 1_555
H27 C26 1_555 1_555
C27 O21 1_555 1_555
O4 Dy13 1_555 1_555
C21 C27 1_555 1_555
C25 C26 1_555 1_555
Dy4 O1 1_555 1_555
Dy10 O2 1_555 1_555
O1 C7 1_555 1_555
O2 C7 1_555 1_555
O6 H2 1_555 1_555
O7 Dy4 1_555 1_555
O9 H3 1_555 1_555
O10 Dy10 1_555 1_555
O11 Dy4 1_555 1_555
O18 Dy10 1_555 1_555
H9 O18 1_555 1_555
H10 O18 1_555 1_555
C1 C2 1_555 1_555
C5 O6 1_555 1_555
C6 C1 1_555 1_555
H12 C6 1_555 1_555
C7 C1 1_555 1_555
C9 O9 1_555 1_555
C14 H14 1_555 1_555
C16 O10 1_555 1_555
O22 Dy10 1_555 1_555
O23 Dy10 1_555 1_555
O29 C32 1_555 1_555
O35 H19 1_555 1_555
H26 C23 1_555 1_555
C24 C23 1_555 1_555
C28 O22 1_555 1_555
C31 C9 1_555 1_555
H28 C31 1_555 1_555
C33 C14 1_555 1_555
O11 C16 1_555 1_555
C5 C6 1_555 1_555
C14 C15 1_555 1_555
C15 C16 1_555 1_555
O23 C28 1_555 1_555
O35 C33 1_555 1_555
C24 C28 1_555 1_555
C30 C31 1_555 1_555
C30 C32 1_555 1_555
O12 H4 1_555 1_555
H7 O17 1_555 1_555
H8 O17 1_555 1_555
C13 O12 1_555 1_555
O32 C36 1_555 1_555
O34 C36 1_555 1_555
C34 C13 1_555 1_555
H29 C34 1_555 1_555
C36 C35 1_555 1_555
C34 C35 1_555 1_555
H20 O46 1_555 1_555
H21 O46 1_555 1_555
H5 O16 1_555 1_555
H6 O16 1_555 1_555

#END
