
###############################################################################
#
# This file contains modified crystal structure data generated from the
# MOF subset of the Cambridge Structural Database (CSD) v543 
# hosted by the Cambridge Crystallographic Data Centre (CCDC).
#
# This work is licensed under the Creative Commons
# Attribution-NonCommercial-ShareAlike 4.0 International License.
# To view a copy of this license, visit
# http://creativecommons.org/licenses/by-nc-sa/4.0/
# or send a letter to
# Creative Commons, PO Box 1866, Mountain View, CA 94042, USA.
#
# CIF created using the CSD Python API on 29 September 2022
# The structure has been converted into the P1 space group
# The structure has a 3D framework
# The original CSD entry YEBLAT is in the triclinic crystal system
# The framework has been calculated to contain at least 10.0% void space
# The void calculation uses a probe of radius 1.32A, grid spacing 0.4
# The framework is charged, counterions have been retained in the structure
# H atom positions have been added when not included in the experimental data
#
###############################################################################

data_YEBLAT
_chemical_formula_moiety         '(C32 H48 La4 N8 O39 1+)n'
_symmetry_cell_setting           triclinic
_symmetry_space_group_name_H-M   'P 1'
_symmetry_Int_Tables_number      1
_space_group_name_Hall           'P 1'
loop_
_symmetry_equiv_pos_site_id
_symmetry_equiv_pos_as_xyz
1 x,y,z
_cell_length_a                   11.6650(9)
_cell_length_b                   11.9240(6)
_cell_length_c                   13.2230(7)
_cell_angle_alpha                104.585(4)
_cell_angle_beta                 108.268(5)
_cell_angle_gamma                111.132(5)
_cell_volume                     1484.48
loop_
_atom_site_label
_atom_site_type_symbol
_atom_site_fract_x
_atom_site_fract_y
_atom_site_fract_z
N1 N 0.4106(9) 0.3418(8) 0.1509(7)
C1 C 0.432(2) 0.3882(17) 0.0580(15)
C3 C 0.249(2) 0.4608(17) 0.0222(15)
H1 H 0.47119 0.333598 0.012415
H2 H 0.504587 0.493231 0.0981978
H7 H 0.342391 0.244009 0.112579
H8 H 0.501606 0.357626 0.209597
H9 H 0.373519 0.392794 0.192532
H17 H 0.320625 0.559811 0.0385155
H18 H 0.246585 0.459123 0.103487
C2 C 0.2865(13) 0.3610(11) 0.9689(10)
N2 N 0.1097(17) 0.4158(14) 0.9308(13)
H12 H 0.208716 0.262575 0.947654
H13 H 0.291179 0.367439 0.889457
H14 H 0.0456971 0.322779 0.916267
H15 H 0.0734269 0.47722 0.957912
H16 H 0.114706 0.416625 0.855711
C2_2 C 0.7135(13) 0.6390(11) 0.0311(10)
N2_2 N 0.8903(17) 0.5842(14) 0.0692(13)
H12_2 H 0.791284 0.737425 0.0523457
H13_2 H 0.708821 0.632561 0.110543
H14_2 H 0.954303 0.677221 0.0837328
H15_2 H 0.926573 0.52278 0.0420881
H16_2 H 0.885294 0.583375 0.144289
N1_2 N 0.5894(9) 0.6582(8) 0.8491(7)
C1_2 C 0.568(2) 0.6118(17) 0.9420(15)
C3_2 C 0.751(2) 0.5392(17) 0.9778(15)
H1_2 H 0.52881 0.666402 0.987585
H2_2 H 0.495413 0.506769 0.901802
H7_2 H 0.657609 0.755991 0.887421
H8_2 H 0.498394 0.642374 0.790403
H9_2 H 0.626481 0.607206 0.807468
H17_2 H 0.679375 0.440189 0.961485
H18_2 H 0.753415 0.540877 0.896513
C6 C 0.0343(17) 0.0341(14) 0.3205(13)
N4 N 0.1826(12) 0.1760(10) 0.3871(9)
H4 H 0.0299325 0.0551983 0.472246
H22 H 0.241482 0.183914 0.466312
H23 H 0.23353 0.176853 0.337333
H24 H 0.162503 0.253076 0.397945
H11 H 0.0574177 0.952378 0.308781
N3 N 0.7713(13) 0.0513(11) 0.2733(10)
C4 C 0.961(3) 0.026(2) 0.3817(19)
C5 C 0.8992(17) 0.1033(15) 0.3799(13)
H5 H 0.875253 0.116911 0.4539
H6 H 0.971933 0.198398 0.389692
H10 H 0.972681 0.0265815 0.235429
H20 H 0.733511 0.115863 0.280593
H21 H 0.791203 0.0390853 0.20302
H3 H 0.881561 0.923847 0.345496
H19 H 0.701093 0.963136 0.262865
H3_2 H 0.118439 0.0761529 0.654504
H19_2 H 0.298907 0.0368637 0.737135
N3_2 N 0.2287(13) 0.9487(11) 0.7267(10)
C4_2 C 0.039(3) 0.974(2) 0.6183(19)
C5_2 C 0.1008(17) 0.8967(15) 0.6201(13)
H5_2 H 0.124747 0.883089 0.5461
H6_2 H 0.0280673 0.801602 0.610308
H10_2 H 0.0273185 0.973418 0.764571
H20_2 H 0.266489 0.884137 0.719407
H21_2 H 0.208797 0.960915 0.79698
H11_2 H 0.942582 0.0476223 0.691219
C6_2 C 0.9657(17) 0.9659(14) 0.6795(13)
N4_2 N 0.8174(12) 0.8240(10) 0.6129(9)
H4_2 H 0.970067 0.944802 0.527754
H22_2 H 0.758518 0.816086 0.533688
H23_2 H 0.76647 0.823147 0.662667
H24_2 H 0.837497 0.746924 0.602055
La2 La 0.25888(4) 0.59055(4) 0.42086(3)
O1 O 0.0943(6) 0.5019(5) 0.2004(5)
O3 O 0.0900(6) 0.3368(5) 0.3065(4)
O14 O 0.1714(6) 0.0852(5) 0.0332(5)
O17 O 0.3970(6) 0.4785(6) 0.3605(5)
O18 O 0.5993(7) 0.4803(7) 0.4297(5)
O19 O 0.0187(6) 0.5594(6) 0.3960(5)
C7 C 0.0011(8) 0.3845(8) 0.1428(7)
C13 C 0.0509(8) 0.0637(8) 0.0012(6)
C15 C 0.4991(8) 0.4884(8) 0.4398(7)
O25 O 0.6030(6) 0.5215(6) 0.6395(5)
O26 O 0.4007(7) 0.5197(7) 0.5703(5)
C19 C 0.5009(8) 0.5116(8) 0.5602(7)
O28 O 0.1532(6) 0.4934(6) 0.5532(5)
C20 C 0.0380(8) 0.4801(8) 0.5440(7)
La10 La 0.74112(4) 0.40945(4) 0.57914(3)
O42 O 0.3777(6) 0.6932(6) 0.3038(5)
O44 O 0.2187(7) 0.7750(6) 0.3705(5)
O45 O 0.3223(6) 0.7749(5) 0.6092(5)
O47 O 0.5188(6) 0.7602(6) 0.5499(5)
O13 O 0.0038(6) 0.1369(6) 0.9722(5)
La5 La 0.25002(4) 0.91254(4) 0.07496(3)
O2 O 0.9133(6) 0.3369(5) 0.0397(5)
O4 O 0.8976(6) 0.1746(5) 0.1495(4)
O15 O 0.6113(6) 0.1580(5) 0.0199(5)
O16 O 0.4017(6) 0.0797(6) 0.0137(5)
O20 O 0.8468(6) 0.5066(6) 0.4468(5)
C8 C 0.9950(8) 0.2907(8) 0.2043(7)
C14 C 0.5027(8) 0.0684(8) 0.0093(6)
C16 C 0.9620(8) 0.5199(8) 0.4560(7)
O27 O 0.9813(6) 0.4406(6) 0.6040(5)
O37 O 0.5132(6) 0.0537(6) 0.2236(5)
O38 O 0.6777(6) 0.2251(5) 0.3908(5)
O39 O 0.4812(6) 0.2398(6) 0.4501(5)
O40 O 0.3254(6) 0.1116(6) 0.2638(5)
C25 C 0.5545(8) 0.1463(8) 0.3187(7)
C26 C 0.4438(9) 0.1674(8) 0.3463(7)
La1 La 0.74998(4) 0.08746(4) 0.92504(3)
O5 O 0.6223(6) 0.3068(6) 0.6962(5)
O6 O 0.6470(6) 0.2205(6) 0.8294(5)
O7 O 0.8254(7) 0.1607(6) 0.7746(5)
O8 O 0.7813(7) 0.2250(6) 0.6295(5)
C9 C 0.6706(8) 0.2491(7) 0.7506(7)
C10 C 0.7671(9) 0.2080(8) 0.7148(7)
O21 O 0.9962(6) 0.8631(6) 0.0278(5)
O34 O 0.3530(6) 0.7795(6) 0.1706(5)
O35 O 0.1746(7) 0.8393(6) 0.2254(5)
C23 C 0.3294(8) 0.7509(7) 0.2494(7)
C24 C 0.2329(9) 0.7920(8) 0.2852(7)
O9 O 0.4868(6) 0.9463(6) 0.7764(5)
O12 O 0.6746(6) 0.8884(6) 0.7362(5)
C11 C 0.4455(8) 0.8537(8) 0.6813(7)
C12 C 0.5562(9) 0.8326(8) 0.6537(7)
O22 O 0.8286(6) 0.9148(5) 0.9668(5)
C17 C 0.9491(8) 0.9363(8) 0.9988(6)
O23 O 0.3887(6) 0.8420(5) 0.9801(5)
O24 O 0.5983(6) 0.9203(6) 0.9863(5)
C18 C 0.4973(8) 0.9316(8) 0.9907(6)
O30 O 0.0867(6) 0.6631(5) 0.9603(5)
O32 O 0.1024(6) 0.8254(5) 0.8505(4)
C22 C 0.0050(8) 0.7093(8) 0.7957(7)
O29 O 0.9057(6) 0.4981(5) 0.7996(5)
O31 O 0.9100(6) 0.6632(5) 0.6935(4)
C21 C 0.9989(8) 0.6155(8) 0.8572(7)
loop_
_geom_bond_atom_site_label_1
_geom_bond_atom_site_label_2
_geom_bond_site_symmetry_1
_geom_bond_site_symmetry_2
N1 C1 1_555 1_555
C1 H1 1_555 1_555
C1 H2 1_555 1_555
N1 H7 1_555 1_555
N1 H8 1_555 1_555
N1 H9 1_555 1_555
C3 H17 1_555 1_555
C3 H18 1_555 1_555
C2 H12 1_555 1_555
C2 H13 1_555 1_555
N2 H14 1_555 1_555
N2 H15 1_555 1_555
N2 H16 1_555 1_555
C2_2 H12_2 1_555 1_555
C2_2 H13_2 1_555 1_555
N2_2 H14_2 1_555 1_555
N2_2 H15_2 1_555 1_555
N2_2 H16_2 1_555 1_555
N1_2 C1_2 1_555 1_555
C1_2 H1_2 1_555 1_555
C1_2 H2_2 1_555 1_555
N1_2 H7_2 1_555 1_555
N1_2 H8_2 1_555 1_555
N1_2 H9_2 1_555 1_555
C3_2 H17_2 1_555 1_555
C3_2 H18_2 1_555 1_555
N4 C6 1_555 1_555
N4 H22 1_555 1_555
N4 H23 1_555 1_555
N4 H24 1_555 1_555
N3 C5 1_555 1_555
C4 C5 1_555 1_555
C5 H5 1_555 1_555
C5 H6 1_555 1_555
N3 H20 1_555 1_555
N3 H21 1_555 1_555
N3_2 C5_2 1_555 1_555
C4_2 C5_2 1_555 1_555
C5_2 H5_2 1_555 1_555
C5_2 H6_2 1_555 1_555
N3_2 H20_2 1_555 1_555
N3_2 H21_2 1_555 1_555
N4_2 C6_2 1_555 1_555
N4_2 H22_2 1_555 1_555
N4_2 H23_2 1_555 1_555
N4_2 H24_2 1_555 1_555
La2 O1 1_555 1_555
O1 C7 1_555 1_555
O3 La2 1_555 1_555
O14 C13 1_555 1_555
O17 La2 1_555 1_555
O18 C15 1_555 1_555
O19 La2 1_555 1_555
C15 O17 1_555 1_555
O25 C19 1_555 1_555
O26 La2 1_555 1_555
C19 C15 1_555 1_555
O28 La2 1_555 1_555
La10 O18 1_555 1_555
O42 La2 1_555 1_555
O44 La2 1_555 1_555
O45 La2 1_555 1_555
O47 La2 1_555 1_555
O25 La10 1_555 1_555
O26 C19 1_555 1_555
O28 C20 1_555 1_555
O16 C14 1_555 1_555
O20 C16 1_555 1_555
C14 O15 1_555 1_555
O38 C25 1_555 1_555
O39 C26 1_555 1_555
C25 O37 1_555 1_555
C26 O40 1_555 1_555
La10 O20 1_555 1_555
O4 C8 1_555 1_555
O27 La10 1_555 1_555
O38 La10 1_555 1_555
O39 La10 1_555 1_555
C25 C26 1_555 1_555
O5 C9 1_555 1_555
O6 La1 1_555 1_555
O7 La1 1_555 1_555
O8 C10 1_555 1_555
C9 O6 1_555 1_555
C10 O7 1_555 1_555
La10 O5 1_555 1_555
O8 La10 1_555 1_555
C9 C10 1_555 1_555
O42 C23 1_555 1_555
O34 La5 1_555 1_555
O35 La5 1_555 1_555
O44 C24 1_555 1_555
C23 O34 1_555 1_555
C24 O35 1_555 1_555
C23 C24 1_555 1_555
O45 C11 1_555 1_555
O47 C12 1_555 1_555
C11 O9 1_555 1_555
C12 O12 1_555 1_555
O23 C18 1_555 1_555
C11 C12 1_555 1_555
O22 C17 1_555 1_555
O24 C18 1_555 1_555
O32 C22 1_555 1_555
La10 O29 1_555 1_555
O29 C21 1_555 1_555
O31 La10 1_555 1_555

#END
