
###############################################################################
#
# This file contains modified crystal structure data generated from the
# MOF subset of the Cambridge Structural Database (CSD) v543 
# hosted by the Cambridge Crystallographic Data Centre (CCDC).
#
# This work is licensed under the Creative Commons
# Attribution-NonCommercial-ShareAlike 4.0 International License.
# To view a copy of this license, visit
# http://creativecommons.org/licenses/by-nc-sa/4.0/
# or send a letter to
# Creative Commons, PO Box 1866, Mountain View, CA 94042, USA.
#
# CIF created using the CSD Python API on 29 September 2022
# The structure has been converted into the P1 space group
# The structure has a 3D framework
# The original CSD entry YEBREF is in the monoclinic crystal system
# The framework has been calculated to contain at least 10.0% void space
# The void calculation uses a probe of radius 1.32A, grid spacing 0.4
#
###############################################################################

data_YEBREF
_chemical_formula_moiety         '(C88 H60 N8 O18 Zn4)n'
_symmetry_cell_setting           triclinic
_symmetry_space_group_name_H-M   'P 1'
_symmetry_Int_Tables_number      1
_space_group_name_Hall           'P 1'
loop_
_symmetry_equiv_pos_site_id
_symmetry_equiv_pos_as_xyz
1 x,y,z
_cell_length_a                   7.935(3)
_cell_length_b                   15.109(5)
_cell_length_c                   17.021(6)
_cell_angle_alpha                90
_cell_angle_beta                 99.477(7)
_cell_angle_gamma                90
_cell_volume                     2012.8
loop_
_atom_site_label
_atom_site_type_symbol
_atom_site_fract_x
_atom_site_fract_y
_atom_site_fract_z
N2 N 0.0055(6) 0.2157(3) 0.2114(3)
C18 C 0.0439(8) 0.2715(5) 0.2720(4)
H12 H 0.1560 0.2727 0.2987
Zn4 Zn 0.19804(8) 0.14010(5) 0.17618(5)
O6 O 0.7871(6) 0.2886(4) 0.5983(3)
O7 O 0.5449(7) 0.3282(3) 0.5266(3)
O8 O 0.3648(5) 0.1554(3) 0.2720(3)
O9 O 0.5385(6) 0.0558(4) 0.2370(3)
C23 C 0.5043(8) 0.1141(4) 0.2813(4)
C24 C 0.6777(9) 0.2857(5) 0.5354(4)
C25 C 0.7195(7) 0.2259(4) 0.4710(3)
C26 C 0.5971(7) 0.2033(4) 0.4064(3)
H16 H 0.4901 0.2301 0.3993
C27 C 0.6350(7) 0.1406(4) 0.3524(3)
C28 C 0.7962(7) 0.1022(4) 0.3631(4)
H17 H 0.8217 0.0596 0.3274
C29 C 0.9191(7) 0.1273(4) 0.4267(4)
C30 C 0.8808(8) 0.1884(4) 0.4800(4)
H18 H 0.9636 0.2051 0.5227
Zn2 Zn 0.69804(8) 0.35990(5) 0.67618(5)
N3 N 0.5895(6) 0.4807(3) 0.6778(3)
C35 C 0.4485(8) 0.5031(5) 0.6279(4)
H23 H 0.4249 0.4736 0.5794
C36 C 0.3358(8) 0.5672(4) 0.6437(4)
H24 H 0.2388 0.5801 0.6068
C37 C 0.3691(7) 0.6126(4) 0.7159(4)
C38 C 0.5220(8) 0.5937(5) 0.7645(4)
H25 H 0.5556 0.6264 0.8107
C39 C 0.6240(9) 0.5271(5) 0.7447(5)
H26 H 0.7229 0.5136 0.7801
C41 C 0.0732(8) 0.6723(5) 0.7025(5)
H28 H 0.0390 0.6335 0.6605
C42 C 0.2399(8) 0.6739(4) 0.7395(4)
C43 C 0.2831(8) 0.7331(4) 0.8026(4)
H29 H 0.3949 0.7370 0.8294
C44 C 0.1569(8) 0.7854(4) 0.8244(4)
H30 H 0.1869 0.8241 0.8669
O11 O 0.8648(5) 0.3446(3) 0.7720(3)
N6 N 0.5055(6) 0.2843(3) 0.7114(3)
C35_2 C 0.0515(8) 0.0031(5) 0.8721(4)
C36_2 C 0.1642(8) 0.0672(4) 0.8563(4)
H24_2 H 0.2612 0.0801 0.8932
C37_2 C 0.1309(7) 0.1126(4) 0.7841(4)
C40 C 0.5439(8) 0.2285(5) 0.7720(4)
H27 H 0.6560 0.2273 0.7987
C41_2 C 0.4268(8) 0.1723(5) 0.7975(5)
H28_2 H 0.4610 0.1335 0.8395
C42_2 C 0.2601(8) 0.1739(4) 0.7605(4)
C43_2 C 0.2169(8) 0.2331(4) 0.6974(4)
H29_2 H 0.1051 0.2370 0.6706
C44_2 C 0.3431(8) 0.2854(4) 0.6756(4)
H30_2 H 0.3131 0.3241 0.6331
O1 O 0.2871(6) 0.2114(4) 0.0983(3)
O2 O 0.0449(7) 0.1718(3) 0.0266(3)
N1 N 0.0895(6) 0.0193(3) 0.1778(3)
C2 C 0.1777(9) 0.2143(5) 0.0354(4)
H3 H 0.4636 0.2949 0.0227
C9 C 0.6924(8) 0.3959(5) 0.0008(4)
H4 H 0.7218 0.3336 0.0019
H5 H 0.6437 0.4094 0.0481
C12 C 0.9969(8) 0.4313(5) 0.0518(4)
H7 H 0.9957 0.3847 0.0873
H1 H 0.9901 0.2699 0.8993
Zn1 Zn 0.30196(8) 0.64010(5) 0.32382(5)
O1_2 O 0.2129(6) 0.7114(4) 0.4017(3)
O2_2 O 0.4551(7) 0.6718(3) 0.4734(3)
O3 O 0.6352(5) 0.8446(3) 0.7280(3)
O4 O 0.4615(6) 0.9442(4) 0.7630(3)
N1_2 N 0.4105(6) 0.5193(3) 0.3222(3)
C1 C 0.4957(8) 0.8859(4) 0.7187(4)
C2_2 C 0.3223(9) 0.7143(5) 0.4646(4)
C3 C 0.2805(7) 0.7741(4) 0.5290(3)
C4 C 0.4029(7) 0.7967(4) 0.5936(3)
H1_2 H 0.5099 0.7699 0.6007
C5 C 0.3650(7) 0.8594(4) 0.6476(3)
C6 C 0.2038(7) 0.8978(4) 0.6369(4)
H2 H 0.1783 0.9404 0.6726
C7 C 0.0809(7) 0.8727(4) 0.5733(4)
C8 C 0.1192(8) 0.8116(4) 0.5200(4)
H3_2 H 0.0364 0.7949 0.4773
C13 C 0.5515(8) 0.4969(5) 0.3721(4)
H8 H 0.5751 0.5264 0.4206
C14 C 0.6642(8) 0.4328(4) 0.3563(4)
H9 H 0.7612 0.4199 0.3932
C15 C 0.6309(7) 0.3874(4) 0.2841(4)
C16 C 0.4780(8) 0.4063(5) 0.2355(4)
H10 H 0.4444 0.3736 0.1893
C17 C 0.3760(9) 0.4729(5) 0.2553(5)
H11 H 0.2771 0.4864 0.2199
C19 C 0.9268(8) 0.3277(5) 0.2975(5)
H13 H 0.9610 0.3665 0.3395
C20 C 0.7601(8) 0.3261(4) 0.2605(4)
C21 C 0.7169(8) 0.2669(4) 0.1974(4)
H14 H 0.6051 0.2630 0.1706
C22 C 0.8431(8) 0.2146(4) 0.1756(4)
H15 H 0.8131 0.1759 0.1331
Zn6 Zn 0.80196(8) 0.85990(5) 0.82382(5)
O12 O 0.1352(5) 0.6554(3) 0.2280(3)
N5 N 0.4945(6) 0.7157(3) 0.2886(3)
N4 N 0.9945(6) 0.7843(3) 0.7886(3)
C40_2 C 0.9561(8) 0.7285(5) 0.7280(4)
H27_2 H 0.8440 0.7273 0.7013
H16_2 H 0.0099 0.7301 0.1007
O6_2 O 0.7129(6) 0.7886(4) 0.9017(3)
O7_2 O 0.9551(7) 0.8282(3) 0.9734(3)
C24_2 C 0.8223(9) 0.7857(5) 0.9646(4)
H18_2 H 0.5364 0.7051 0.9773
C31 C 0.3076(8) 0.6041(5) 0.9992(4)
H19 H 0.2782 0.6664 0.9981
H20 H 0.3563 0.5906 0.9519
C34 C 0.0031(8) 0.5687(5) 0.9482(4)
H22 H 0.0043 0.6153 0.9127
N3_2 N 0.9105(6) 0.9807(3) 0.8222(3)
C13_2 C 0.9485(8) 0.9969(5) 0.1279(4)
C14_2 C 0.8358(8) 0.9328(4) 0.1437(4)
H9_2 H 0.7388 0.9199 0.1068
C15_2 C 0.8691(7) 0.8874(4) 0.2159(4)
C18_2 C 0.4561(8) 0.7715(5) 0.2280(4)
H12_2 H 0.3440 0.7727 0.2013
C19_2 C 0.5732(8) 0.8277(5) 0.2025(5)
H13_2 H 0.5390 0.8665 0.1605
C20_2 C 0.7399(8) 0.8261(4) 0.2395(4)
C21_2 C 0.7831(8) 0.7669(4) 0.3026(4)
H14_2 H 0.8949 0.7630 0.3294
C22_2 C 0.6569(8) 0.7146(4) 0.3244(4)
H15_2 H 0.6869 0.6759 0.3669
C11 C 0.6461(8) 0.0205(5) 0.5525(4)
H6 H 0.7439 0.0351 0.5882
O10 O 0.0731(5) 0.0848(3) 0.4319(3)
C31_2 C 0.1924(8) 0.1041(5) 0.5008(4)
H19_2 H 0.2218 0.1664 0.5019
H20_2 H 0.1437 0.0906 0.5481
C32 C 0.3506(7) 0.0483(4) 0.4992(4)
C34_2 C 0.4969(8) 0.0687(5) 0.5518(4)
H22_2 H 0.4957 0.1153 0.5873
O5 O 0.9269(5) 0.9152(3) 0.5681(3)
C9_2 C 0.8076(8) 0.8959(5) 0.4992(4)
H4_2 H 0.7782 0.8336 0.4981
H5_2 H 0.8563 0.9094 0.4519
C10 C 0.6494(7) 0.9517(4) 0.5008(4)
C12_2 C 0.5031(8) 0.9313(5) 0.4482(4)
H7_2 H 0.5043 0.8847 0.4127
C33 C 0.3539(8) 0.9795(5) 0.4475(4)
H21 H 0.2561 0.9649 0.4118
H23_2 H 0.0751 0.9736 0.9206
C38_2 C 0.9780(8) 0.0937(5) 0.7355(4)
H25_2 H 0.9444 0.1264 0.6893
C39_2 C 0.8760(9) 0.0271(5) 0.7553(5)
H26_2 H 0.7771 0.0136 0.7199
O9_2 O 0.9615(6) 0.5558(4) 0.2630(3)
O10_2 O 0.4269(5) 0.5848(3) 0.0681(3)
C23_2 C 0.9957(8) 0.6141(4) 0.2187(4)
C25_2 C 0.7805(7) 0.7259(4) 0.0290(3)
C26_2 C 0.9029(7) 0.7033(4) 0.0936(3)
C27_2 C 0.8650(7) 0.6406(4) 0.1476(3)
C28_2 C 0.7038(7) 0.6022(4) 0.1369(4)
H17_2 H 0.6783 0.5596 0.1726
C29_2 C 0.5809(7) 0.6273(4) 0.0733(4)
C30_2 C 0.6192(8) 0.6884(4) 0.0200(4)
C32_2 C 0.1494(7) 0.5483(4) 0.0008(4)
C33_2 C 0.1461(8) 0.4795(5) 0.0525(4)
H21_2 H 0.2439 0.4649 0.0882
O4_2 O 0.0385(6) 0.4442(4) 0.7370(3)
O5_2 O 0.5731(5) 0.4152(3) 0.9319(3)
C1_2 C 0.0043(8) 0.3859(4) 0.7813(4)
C3_2 C 0.2195(7) 0.2741(4) 0.9710(3)
C4_2 C 0.0971(7) 0.2967(4) 0.9064(3)
C5_2 C 0.1350(7) 0.3594(4) 0.8524(3)
C6_2 C 0.2962(7) 0.3978(4) 0.8631(4)
H2_2 H 0.3217 0.4404 0.8274
C7_2 C 0.4191(7) 0.3727(4) 0.9267(4)
C8_2 C 0.3808(8) 0.3116(4) 0.9800(4)
C10_2 C 0.8506(7) 0.4517(4) 0.9992(4)
C11_2 C 0.8539(8) 0.5205(5) 0.9475(4)
H6_2 H 0.7561 0.5351 0.9118
C16_2 C 0.0220(8) 0.9063(5) 0.2645(4)
H10_2 H 0.0556 0.8736 0.3107
C17_2 C 0.1240(9) 0.9729(5) 0.2447(5)
H11_2 H 0.2229 0.9864 0.2801
H8_2 H 0.9249 0.0264 0.0794
loop_
_geom_bond_atom_site_label_1
_geom_bond_atom_site_label_2
_geom_bond_site_symmetry_1
_geom_bond_site_symmetry_2
N2 C18 1_555 1_555
C18 H12 1_555 1_555
Zn4 N2 1_555 1_555
O6 C24 1_555 1_555
O7 C24 1_555 1_555
O8 C23 1_555 1_555
O9 C23 1_555 1_555
C23 C27 1_555 1_555
C24 C25 1_555 1_555
C25 C26 1_555 1_555
C26 H16 1_555 1_555
C27 C26 1_555 1_555
C28 C27 1_555 1_555
H17 C28 1_555 1_555
C29 C28 1_555 1_555
C30 C25 1_555 1_555
H18 C30 1_555 1_555
Zn2 O6 1_555 1_555
N3 Zn2 1_555 1_555
C35 N3 1_555 1_555
H23 C35 1_555 1_555
C36 C35 1_555 1_555
H24 C36 1_555 1_555
C37 C36 1_555 1_555
C38 C37 1_555 1_555
H25 C38 1_555 1_555
C39 N3 1_555 1_555
H26 C39 1_555 1_555
H28 C41 1_555 1_555
C42 C37 1_555 1_555
C43 C42 1_555 1_555
H29 C43 1_555 1_555
H30 C44 1_555 1_555
Zn4 O8 1_555 1_555
O11 Zn2 1_555 1_555
N6 Zn2 1_555 1_555
C29 C30 1_555 1_555
C38 C39 1_555 1_555
C41 C42 1_555 1_555
C43 C44 1_555 1_555
N6 C40 1_555 1_555
C36_2 C35_2 1_555 1_555
H24_2 C36_2 1_555 1_555
C37_2 C36_2 1_555 1_555
C40 H27 1_555 1_555
C41_2 C40 1_555 1_555
H28_2 C41_2 1_555 1_555
C42_2 C37_2 1_555 1_555
C43_2 C42_2 1_555 1_555
H29_2 C43_2 1_555 1_555
C44_2 N6 1_555 1_555
H30_2 C44_2 1_555 1_555
C41_2 C42_2 1_555 1_555
C43_2 C44_2 1_555 1_555
Zn4 O1 1_555 1_555
O1 C2 1_555 1_555
O2 C2 1_555 1_555
N1 Zn4 1_555 1_555
H4 C9 1_555 1_555
H5 C9 1_555 1_555
H7 C12 1_555 1_555
Zn1 O1_2 1_555 1_555
O1_2 C2_2 1_555 1_555
O2_2 C2_2 1_555 1_555
O3 C1 1_555 1_555
O4 C1 1_555 1_555
N1_2 Zn1 1_555 1_555
C1 C5 1_555 1_555
C2_2 C3 1_555 1_555
C3 C4 1_555 1_555
C4 H1_2 1_555 1_555
C5 C4 1_555 1_555
C6 C5 1_555 1_555
H2 C6 1_555 1_555
C7 C6 1_555 1_555
C8 C3 1_555 1_555
H3_2 C8 1_555 1_555
C13 N1_2 1_555 1_555
H8 C13 1_555 1_555
C14 C13 1_555 1_555
H9 C14 1_555 1_555
C15 C14 1_555 1_555
C16 C15 1_555 1_555
H10 C16 1_555 1_555
C17 N1_2 1_555 1_555
H11 C17 1_555 1_555
H13 C19 1_555 1_555
C20 C15 1_555 1_555
C21 C20 1_555 1_555
H14 C21 1_555 1_555
H15 C22 1_555 1_555
Zn6 O3 1_555 1_555
O12 Zn1 1_555 1_555
N5 Zn1 1_555 1_555
C7 C8 1_555 1_555
C16 C17 1_555 1_555
C19 C20 1_555 1_555
C21 C22 1_555 1_555
N4 C40_2 1_555 1_555
C40_2 H27_2 1_555 1_555
Zn6 N4 1_555 1_555
O6_2 C24_2 1_555 1_555
O7_2 C24_2 1_555 1_555
H19 C31 1_555 1_555
H20 C31 1_555 1_555
H22 C34 1_555 1_555
Zn6 O6_2 1_555 1_555
N3_2 Zn6 1_555 1_555
N5 C18_2 1_555 1_555
C14_2 C13_2 1_555 1_555
H9_2 C14_2 1_555 1_555
C15_2 C14_2 1_555 1_555
C18_2 H12_2 1_555 1_555
C19_2 C18_2 1_555 1_555
H13_2 C19_2 1_555 1_555
C20_2 C15_2 1_555 1_555
C21_2 C20_2 1_555 1_555
H14_2 C21_2 1_555 1_555
C22_2 N5 1_555 1_555
H15_2 C22_2 1_555 1_555
C19_2 C20_2 1_555 1_555
C21_2 C22_2 1_555 1_555
H6 C11 1_555 1_555
C31_2 O10 1_555 1_555
H19_2 C31_2 1_555 1_555
H20_2 C31_2 1_555 1_555
C32 C31_2 1_555 1_555
C34_2 C11 1_555 1_555
H22_2 C34_2 1_555 1_555
C32 C34_2 1_555 1_555
C9_2 O5 1_555 1_555
H4_2 C9_2 1_555 1_555
H5_2 C9_2 1_555 1_555
C10 C9_2 1_555 1_555
C12_2 C10 1_555 1_555
H7_2 C12_2 1_555 1_555
C33 C12_2 1_555 1_555
H21 C33 1_555 1_555
H25_2 C38_2 1_555 1_555
H26_2 C39_2 1_555 1_555
C38_2 C39_2 1_555 1_555
O9_2 C23_2 1_555 1_555
O10_2 C29_2 1_555 1_555
C23_2 C27_2 1_555 1_555
C25_2 C26_2 1_555 1_555
C27_2 C26_2 1_555 1_555
C28_2 C27_2 1_555 1_555
H17_2 C28_2 1_555 1_555
C29_2 C28_2 1_555 1_555
C30_2 C25_2 1_555 1_555
H21_2 C33_2 1_555 1_555
C29_2 C30_2 1_555 1_555
C32_2 C33_2 1_555 1_555
O4_2 C1_2 1_555 1_555
O5_2 C7_2 1_555 1_555
C1_2 C5_2 1_555 1_555
C3_2 C4_2 1_555 1_555
C5_2 C4_2 1_555 1_555
C6_2 C5_2 1_555 1_555
H2_2 C6_2 1_555 1_555
C7_2 C6_2 1_555 1_555
C8_2 C3_2 1_555 1_555
C11_2 C10_2 1_555 1_555
H6_2 C11_2 1_555 1_555
C7_2 C8_2 1_555 1_555
H10_2 C16_2 1_555 1_555
H11_2 C17_2 1_555 1_555
C16_2 C17_2 1_555 1_555

#END
