
###############################################################################
#
# This file contains modified crystal structure data generated from the
# MOF subset of the Cambridge Structural Database (CSD) v543 
# hosted by the Cambridge Crystallographic Data Centre (CCDC).
#
# This work is licensed under the Creative Commons
# Attribution-NonCommercial-ShareAlike 4.0 International License.
# To view a copy of this license, visit
# http://creativecommons.org/licenses/by-nc-sa/4.0/
# or send a letter to
# Creative Commons, PO Box 1866, Mountain View, CA 94042, USA.
#
# CIF created using the CSD Python API on 29 September 2022
# The structure has been converted into the P1 space group
# The structure has a 3D framework
# The original CSD entry YEDKUO is in the hexagonal crystal system
# The framework has been calculated to contain at least 10.0% void space
# The void calculation uses a probe of radius 1.32A, grid spacing 0.4
# H atom positions have been added when not included in the experimental data
# Generated hydrogen atom positions removed from atoms on special positions
#
###############################################################################

data_YEDKUO
_chemical_formula_moiety         '(C84 H66 Cr6 O32)n'
_symmetry_cell_setting           triclinic
_symmetry_space_group_name_H-M   'P 1'
_symmetry_Int_Tables_number      1
_space_group_name_Hall           'P 1'
loop_
_symmetry_equiv_pos_site_id
_symmetry_equiv_pos_as_xyz
1 x,y,z
_cell_length_a                   12.1647(10)
_cell_length_b                   12.1647(10)
_cell_length_c                   27.1971(10)
_cell_angle_alpha                90
_cell_angle_beta                 90
_cell_angle_gamma                120
_cell_volume                     3485.43
loop_
_atom_site_label
_atom_site_type_symbol
_atom_site_fract_x
_atom_site_fract_y
_atom_site_fract_z
_atom_site_U_iso_or_equiv
_atom_site_thermal_displace_type
C6 C 0.0498 0.6716 0.0588 0.0000 Uiso
Cr6 Cr 0.1869 0.4873 0.7500 0.0000 Uiso
Cr7 Cr 0.3004 0.8131 0.7500 0.0000 Uiso
O7 O 0.1182 0.5505 0.6982 0.0000 Uiso
O15 O 0.1529 0.7406 0.6989 0.0000 Uiso
C10 C 0.1254 0.6417 0.6788 0.0000 Uiso
C15 C 0.0906 0.6285 0.6265 0.0000 Uiso
C20 C 0.1765 0.6299 0.5882 0.0000 Uiso
C25 C 0.1456 0.6402 0.5374 0.0000 Uiso
C30 C 0.0202 0.6042 0.5259 0.0000 Uiso
C34 C 0.0498 0.6716 0.4412 0.0000 Uiso
C40 C 0.0019 0.6629 0.6073 0.0000 Uiso
H2 H 0.0195684 0.354083 0.279811 . .
H5 H 0.14378 0.749416 0.0494219 . .
H8 H 0.026036 0.745743 0.129302 . .
H18 H 0.260163 0.623463 0.597525 . .
H20 H 0.218483 0.67514 0.509013 . .
H21 H 0.14378 0.749416 0.450578 . .
H25 H 0.026036 0.745743 0.370698 . .
O5 O 0.1182 0.5505 0.8018 0.0000 Uiso
O13 O 0.1529 0.7406 0.8011 0.0000 Uiso
C8 C 0.1254 0.6417 0.8212 0.0000 Uiso
C13 C 0.0906 0.6285 0.8735 0.0000 Uiso
C18 C 0.1765 0.6299 0.9118 0.0000 Uiso
C23 C 0.1456 0.6402 0.9626 0.0000 Uiso
C28 C 0.0202 0.6042 0.9741 0.0000 Uiso
C38 C 0.0019 0.6629 0.8927 0.0000 Uiso
H14 H 0.260163 0.623463 0.902475 . .
H24 H 0.218483 0.67514 0.990987 . .
Cr1 Cr 0.8131 0.3004 0.2500 0.0000 Uiso
O1 O 0.6667 0.3333 0.2500 0.0000 Uiso
O2 O 0.8818 0.4323 0.1982 0.0000 Uiso
O3 O 0.8471 0.5877 0.1989 0.0000 Uiso
O4 O 0.9712 0.3083 0.2500 0.0000 Uiso
C1 C 0.8746 0.5163 0.1788 0.0000 Uiso
C2 C 0.9094 0.5379 0.1265 0.0000 Uiso
C3 C 0.8235 0.4534 0.0882 0.0000 Uiso
C4 C 0.8544 0.4946 0.0374 0.0000 Uiso
C5 C 0.9798 0.5840 0.0259 0.0000 Uiso
C7 C 0.9981 0.6610 0.1073 0.0000 Uiso
Cr2 Cr 0.6996 0.5127 0.2500 0.0000 Uiso
Cr3 Cr 0.4873 0.1869 0.2500 0.0000 Uiso
O6 O 0.8818 0.4323 0.3018 0.0000 Uiso
O8 O 0.5505 0.1182 0.1982 0.0000 Uiso
O10 O 0.5677 0.4495 0.1982 0.0000 Uiso
O11 O 0.5677 0.4495 0.3018 0.0000 Uiso
O12 O 0.5505 0.1182 0.3018 0.0000 Uiso
O14 O 0.8471 0.5877 0.3011 0.0000 Uiso
O16 O 0.7406 0.1529 0.1989 0.0000 Uiso
O18 O 0.7406 0.1529 0.3011 0.0000 Uiso
O19 O 0.4123 0.2594 0.1989 0.0000 Uiso
O20 O 0.4123 0.2594 0.3011 0.0000 Uiso
O21 O 0.6917 0.6629 0.2500 0.0000 Uiso
O22 O 0.3371 0.0288 0.2500 0.0000 Uiso
C9 C 0.8746 0.5163 0.3212 0.0000 Uiso
C11 C 0.6417 0.1254 0.1788 0.0000 Uiso
C14 C 0.9094 0.5379 0.3735 0.0000 Uiso
C16 C 0.6285 0.0906 0.1265 0.0000 Uiso
C19 C 0.8235 0.4534 0.4118 0.0000 Uiso
C21 C 0.6299 0.1765 0.0882 0.0000 Uiso
C24 C 0.8544 0.4946 0.4626 0.0000 Uiso
C26 C 0.6402 0.1456 0.0374 0.0000 Uiso
C29 C 0.9798 0.5840 0.4741 0.0000 Uiso
C31 C 0.6042 0.0202 0.0259 0.0000 Uiso
C35 C 0.9502 0.6218 0.5588 0.0000 Uiso
C39 C 0.9981 0.6610 0.3927 0.0000 Uiso
C41 C 0.6629 0.0019 0.1073 0.0000 Uiso
H1 H 0.781517 0.456657 0.00901313 . .
H3 H 0.958102 0.220913 0.25 . .
H4 H 0.739837 0.3633 0.0975248 . .
H7 H 0.262811 0.0418978 0.25 . .
H11 H 0.67514 0.218483 0.00901313 . .
H13 H 0.781517 0.456657 0.490987 . .
H15 H 0.623463 0.260163 0.0975248 . .
H19 H 0.739837 0.3633 0.402475 . .
H22 H 0.85622 0.605636 0.549422 . .
H28 H 0.973964 0.719707 0.629302 . .
C33 C 0.9502 0.6218 0.9412 0.0000 Uiso
C37 C 0.6716 0.0498 0.9412 0.0000 Uiso
H16 H 0.85622 0.605636 0.950578 . .
H26 H 0.745743 0.026036 0.870698 . .
H27 H 0.749416 0.14378 0.950578 . .
H30 H 0.973964 0.719707 0.870698 . .
C36 C 0.6218 0.9502 0.0588 0.0000 Uiso
H6 H 0.334515 0.980432 0.279811 . .
H23 H 0.605636 0.85622 0.0494219 . .
H29 H 0.719707 0.973964 0.129302 . .
Cr9 Cr 0.5127 0.6996 0.7500 0.0000 Uiso
O9 O 0.4323 0.8818 0.8018 0.0000 Uiso
O17 O 0.5877 0.8471 0.8011 0.0000 Uiso
C12 C 0.5163 0.8746 0.8212 0.0000 Uiso
C17 C 0.5379 0.9094 0.8735 0.0000 Uiso
C22 C 0.4534 0.8235 0.9118 0.0000 Uiso
C27 C 0.4946 0.8544 0.9626 0.0000 Uiso
C32 C 0.5840 0.9798 0.9741 0.0000 Uiso
C42 C 0.6610 0.9981 0.8927 0.0000 Uiso
H12 H 0.456657 0.781517 0.990987 . .
H17 H 0.3633 0.739837 0.902475 . .
H9 H 0.0195684 0.354083 0.220189 . .
C1_2 C 0.6417 0.1254 0.3212 0.0000 Uiso
C2_2 C 0.6285 0.0906 0.3735 0.0000 Uiso
C3_2 C 0.6299 0.1765 0.4118 0.0000 Uiso
C4_2 C 0.6402 0.1456 0.4626 0.0000 Uiso
C5_2 C 0.6042 0.0202 0.4741 0.0000 Uiso
C7_2 C 0.6629 0.0019 0.3927 0.0000 Uiso
O9_2 O 0.4495 0.5677 0.6982 0.0000 Uiso
O17_2 O 0.2594 0.4123 0.6989 0.0000 Uiso
C11_2 C 0.4837 0.3583 0.3212 0.0000 Uiso
C12_2 C 0.3583 0.4837 0.6788 0.0000 Uiso
C16_2 C 0.4621 0.3715 0.3735 0.0000 Uiso
C17_2 C 0.3715 0.4621 0.6265 0.0000 Uiso
C21_2 C 0.5466 0.3701 0.4118 0.0000 Uiso
C22_2 C 0.3701 0.5466 0.5882 0.0000 Uiso
C26_2 C 0.5054 0.3598 0.4626 0.0000 Uiso
C27_2 C 0.3598 0.5054 0.5374 0.0000 Uiso
C31_2 C 0.4160 0.3958 0.4741 0.0000 Uiso
C32_2 C 0.3958 0.4160 0.5259 0.0000 Uiso
C33_2 C 0.6716 0.0498 0.5588 0.0000 Uiso
C36_2 C 0.3284 0.3782 0.4412 0.0000 Uiso
C37_2 C 0.3782 0.3284 0.5588 0.0000 Uiso
C41_2 C 0.3390 0.3371 0.3927 0.0000 Uiso
C42_2 C 0.3371 0.3390 0.6073 0.0000 Uiso
H1_2 H 0.67514 0.218483 0.490987 . .
H4_2 H 0.623463 0.260163 0.402475 . .
H11_2 H 0.543343 0.32486 0.490987 . .
H12_2 H 0.32486 0.543343 0.509013 . .
H15_2 H 0.6367 0.376537 0.402475 . .
H16_2 H 0.749416 0.14378 0.549422 . .
H17_2 H 0.376537 0.6367 0.597525 . .
H23_2 H 0.250584 0.394364 0.450578 . .
H26_2 H 0.280293 0.254257 0.629302 . .
H27_2 H 0.394364 0.250584 0.549422 . .
H29_2 H 0.254257 0.280293 0.370698 . .
H30_2 H 0.745743 0.026036 0.629302 . .
C6_2 C 0.6218 0.9502 0.4412 0.0000 Uiso
O5_2 O 0.4323 0.8818 0.6982 0.0000 Uiso
O13_2 O 0.5877 0.8471 0.6989 0.0000 Uiso
C8_2 C 0.5163 0.8746 0.6788 0.0000 Uiso
C13_2 C 0.5379 0.9094 0.6265 0.0000 Uiso
C18_2 C 0.4534 0.8235 0.5882 0.0000 Uiso
C23_2 C 0.4946 0.8544 0.5374 0.0000 Uiso
C28_2 C 0.5840 0.9798 0.5259 0.0000 Uiso
C38_2 C 0.6610 0.9981 0.6073 0.0000 Uiso
H2_2 H 0.334515 0.980432 0.220189 . .
H5_2 H 0.605636 0.85622 0.450578 . .
H8_2 H 0.719707 0.973964 0.370698 . .
H14_2 H 0.3633 0.739837 0.597525 . .
H24_2 H 0.456657 0.781517 0.509013 . .
H2_3 H 0.354083 0.0195684 0.779811 . .
O1_2 O 0.3333 0.6667 0.7500 0.0000 Uiso
O4_2 O 0.3083 0.9712 0.7500 0.0000 Uiso
O11_2 O 0.4495 0.5677 0.8018 0.0000 Uiso
O20_2 O 0.2594 0.4123 0.8011 0.0000 Uiso
O21_2 O 0.6629 0.6917 0.7500 0.0000 Uiso
O22_2 O 0.0288 0.3371 0.7500 0.0000 Uiso
H3_2 H 0.220913 0.958102 0.75 . .
H7_2 H 0.0418978 0.262811 0.75 . .
H6_2 H 0.980432 0.334515 0.779811 . .
C1_3 C 0.4837 0.3583 0.1788 0.0000 Uiso
C2_3 C 0.4621 0.3715 0.1265 0.0000 Uiso
C3_3 C 0.5466 0.3701 0.0882 0.0000 Uiso
C4_3 C 0.5054 0.3598 0.0374 0.0000 Uiso
C5_3 C 0.4160 0.3958 0.0259 0.0000 Uiso
C6_3 C 0.3284 0.3782 0.0588 0.0000 Uiso
C7_3 C 0.3390 0.3371 0.1073 0.0000 Uiso
H1_3 H 0.543343 0.32486 0.00901313 . .
H4_3 H 0.6367 0.376537 0.0975248 . .
H5_3 H 0.250584 0.394364 0.0494219 . .
H8_3 H 0.254257 0.280293 0.129302 . .
C8_3 C 0.3583 0.4837 0.8212 0.0000 Uiso
C13_3 C 0.3715 0.4621 0.8735 0.0000 Uiso
C18_3 C 0.3701 0.5466 0.9118 0.0000 Uiso
C23_3 C 0.3598 0.5054 0.9626 0.0000 Uiso
C28_3 C 0.3958 0.4160 0.9741 0.0000 Uiso
C33_3 C 0.3782 0.3284 0.9412 0.0000 Uiso
C38_3 C 0.3371 0.3390 0.8927 0.0000 Uiso
H14_3 H 0.376537 0.6367 0.902475 . .
H16_3 H 0.394364 0.250584 0.950578 . .
H24_3 H 0.32486 0.543343 0.990987 . .
H30_3 H 0.280293 0.254257 0.870698 . .
H6_3 H 0.354083 0.0195684 0.720189 . .
H9_2 H 0.980432 0.334515 0.720189 . .
loop_
_geom_bond_atom_site_label_1
_geom_bond_atom_site_label_2
_geom_bond_site_symmetry_1
_geom_bond_site_symmetry_2
Cr6 O7 1_555 1_555
Cr7 O15 1_555 1_555
O7 C10 1_555 1_555
O15 C10 1_555 1_555
C10 C15 1_555 1_555
C15 C20 1_555 1_555
C20 C25 1_555 1_555
C25 C30 1_555 1_555
C40 C15 1_555 1_555
C6 H5 1_555 1_555
C20 H18 1_555 1_555
C25 H20 1_555 1_555
C34 H21 1_555 1_555
Cr6 O5 1_555 1_555
Cr7 O13 1_555 1_555
O5 C8 1_555 1_555
O13 C8 1_555 1_555
C8 C13 1_555 1_555
C13 C18 1_555 1_555
C18 C23 1_555 1_555
C23 C28 1_555 1_555
C38 C13 1_555 1_555
C18 H14 1_555 1_555
C23 H24 1_555 1_555
Cr1 O1 1_555 1_555
O1 Cr2 1_555 1_555
O2 Cr1 1_555 1_555
O3 C1 1_555 1_555
O4 Cr1 1_555 1_555
C1 O2 1_555 1_555
C2 C1 1_555 1_555
C3 C2 1_555 1_555
C4 C3 1_555 1_555
C5 C4 1_555 1_555
C7 C2 1_555 1_555
Cr2 O3 1_555 1_555
Cr3 O1 1_555 1_555
O6 Cr1 1_555 1_555
O8 Cr3 1_555 1_555
O10 Cr2 1_555 1_555
O11 Cr2 1_555 1_555
O12 Cr3 1_555 1_555
O14 Cr2 1_555 1_555
O16 Cr1 1_555 1_555
O18 Cr1 1_555 1_555
O19 Cr3 1_555 1_555
O20 Cr3 1_555 1_555
O21 Cr2 1_555 1_555
O22 Cr3 1_555 1_555
C9 O6 1_555 1_555
C11 O8 1_555 1_555
C14 C9 1_555 1_555
C16 C11 1_555 1_555
C19 C14 1_555 1_555
C21 C16 1_555 1_555
C24 C19 1_555 1_555
C26 C21 1_555 1_555
C29 C24 1_555 1_555
C31 C26 1_555 1_555
C39 C14 1_555 1_555
C41 C16 1_555 1_555
O14 C9 1_555 1_555
O16 C11 1_555 1_555
C4 H1 1_555 1_555
O4 H3 1_555 1_555
C3 H4 1_555 1_555
O22 H7 1_555 1_555
C26 H11 1_555 1_555
C24 H13 1_555 1_555
C21 H15 1_555 1_555
C19 H19 1_555 1_555
C35 H22 1_555 1_555
C33 H16 1_555 1_555
C37 H27 1_555 1_555
C36 H23 1_555 1_555
Cr7 O9 1_555 1_555
Cr9 O17 1_555 1_555
O9 C12 1_555 1_555
O17 C12 1_555 1_555
C12 C17 1_555 1_555
C17 C22 1_555 1_555
C22 C27 1_555 1_555
C27 C32 1_555 1_555
C42 C17 1_555 1_555
C27 H12 1_555 1_555
C22 H17 1_555 1_555
O18 C1_2 1_555 1_555
C1_2 O12 1_555 1_555
C2_2 C1_2 1_555 1_555
C3_2 C2_2 1_555 1_555
C4_2 C3_2 1_555 1_555
C5_2 C4_2 1_555 1_555
C7_2 C2_2 1_555 1_555
Cr9 O9_2 1_555 1_555
Cr6 O17_2 1_555 1_555
O9_2 C12_2 1_555 1_555
O17_2 C12_2 1_555 1_555
C11_2 O11 1_555 1_555
C12_2 C17_2 1_555 1_555
C16_2 C11_2 1_555 1_555
C17_2 C22_2 1_555 1_555
C21_2 C16_2 1_555 1_555
C22_2 C27_2 1_555 1_555
C26_2 C21_2 1_555 1_555
C27_2 C32_2 1_555 1_555
C31_2 C26_2 1_555 1_555
C32_2 C31_2 1_555 1_555
C36_2 C31_2 1_555 1_555
C37_2 C32_2 1_555 1_555
C41_2 C16_2 1_555 1_555
C42_2 C17_2 1_555 1_555
O20 C11_2 1_555 1_555
C36_2 C41_2 1_555 1_555
C37_2 C42_2 1_555 1_555
C4_2 H1_2 1_555 1_555
C3_2 H4_2 1_555 1_555
C26_2 H11_2 1_555 1_555
C27_2 H12_2 1_555 1_555
C21_2 H15_2 1_555 1_555
C33_2 H16_2 1_555 1_555
C22_2 H17_2 1_555 1_555
C36_2 H23_2 1_555 1_555
C42_2 H26_2 1_555 1_555
C37_2 H27_2 1_555 1_555
C41_2 H29_2 1_555 1_555
Cr7 O5_2 1_555 1_555
Cr9 O13_2 1_555 1_555
O5_2 C8_2 1_555 1_555
O13_2 C8_2 1_555 1_555
C8_2 C13_2 1_555 1_555
C13_2 C18_2 1_555 1_555
C18_2 C23_2 1_555 1_555
C23_2 C28_2 1_555 1_555
C38_2 C13_2 1_555 1_555
C6_2 H5_2 1_555 1_555
C18_2 H14_2 1_555 1_555
C23_2 H24_2 1_555 1_555
Cr7 O1_2 1_555 1_555
O1_2 Cr9 1_555 1_555
O4_2 Cr7 1_555 1_555
Cr6 O1_2 1_555 1_555
O11_2 Cr9 1_555 1_555
O20_2 Cr6 1_555 1_555
O21_2 Cr9 1_555 1_555
O22_2 Cr6 1_555 1_555
O4_2 H3_2 1_555 1_555
O22_2 H7_2 1_555 1_555
O19 C1_3 1_555 1_555
C1_3 O10 1_555 1_555
C2_3 C1_3 1_555 1_555
C3_3 C2_3 1_555 1_555
C4_3 C3_3 1_555 1_555
C5_3 C4_3 1_555 1_555
C6_3 C5_3 1_555 1_555
C7_3 C2_3 1_555 1_555
C6_3 C7_3 1_555 1_555
C4_3 H1_3 1_555 1_555
C3_3 H4_3 1_555 1_555
C6_3 H5_3 1_555 1_555
C7_3 H8_3 1_555 1_555
O11_2 C8_3 1_555 1_555
O20_2 C8_3 1_555 1_555
C8_3 C13_3 1_555 1_555
C13_3 C18_3 1_555 1_555
C18_3 C23_3 1_555 1_555
C23_3 C28_3 1_555 1_555
C33_3 C28_3 1_555 1_555
C38_3 C13_3 1_555 1_555
C33_3 C38_3 1_555 1_555
C18_3 H14_3 1_555 1_555
C33_3 H16_3 1_555 1_555
C23_3 H24_3 1_555 1_555
C38_3 H30_3 1_555 1_555

#END
