
###############################################################################
#
# This file contains modified crystal structure data generated from the
# MOF subset of the Cambridge Structural Database (CSD) v543 
# hosted by the Cambridge Crystallographic Data Centre (CCDC).
#
# This work is licensed under the Creative Commons
# Attribution-NonCommercial-ShareAlike 4.0 International License.
# To view a copy of this license, visit
# http://creativecommons.org/licenses/by-nc-sa/4.0/
# or send a letter to
# Creative Commons, PO Box 1866, Mountain View, CA 94042, USA.
#
# CIF created using the CSD Python API on 29 September 2022
# The structure has been converted into the P1 space group
# The structure has a 3D framework
# The original CSD entry YEDVIQ is in the tetragonal crystal system
# The framework has been calculated to contain at least 10.0% void space
# The void calculation uses a probe of radius 1.32A, grid spacing 0.4
#
###############################################################################

data_YEDVIQ
_chemical_formula_moiety         '(C96 H48 Ga12 O28)n'
_symmetry_cell_setting           triclinic
_symmetry_space_group_name_H-M   'P 1'
_symmetry_Int_Tables_number      1
_space_group_name_Hall           'P 1'
loop_
_symmetry_equiv_pos_site_id
_symmetry_equiv_pos_as_xyz
1 x,y,z
_cell_length_a                   21.570(3)
_cell_length_b                   21.570(3)
_cell_length_c                   6.7000(13)
_cell_angle_alpha                90
_cell_angle_beta                 90
_cell_angle_gamma                90
_cell_volume                     3117.27
loop_
_atom_site_label
_atom_site_type_symbol
_atom_site_fract_x
_atom_site_fract_y
_atom_site_fract_z
Ga2 Ga 0.5000 -0.0000 0.5000
Ga3 Ga 0.5000 -0.0000 0.0000
Ga3_2 Ga 0.5000 -0.0000 1.0000
Ga1 Ga 0.5000 0.5000 0.0000
O1 O 0.5301(2) 0.4699(2) 0.2500
O2 O 0.5145(3) 0.5886(2) 0.0759(7)
C1 C 0.5099(3) 0.6143(3) 0.2435(6)
O3 O 0.4966(3) 0.5886(3) 0.4042(7)
C2 C 0.5163(4) 0.6839(3) 0.2472(7)
C3 C 0.5824(4) 0.6859(4) 0.5547(12)
H1 H 0.5815 0.6428 0.5589
C4 C 0.4935(5) 0.7173(4) 0.0902(11)
C5 C 0.6165(8) 0.7171(5) 0.6936(18)
H3 H 0.6397 0.6954 0.7876
C6 C 0.5482(4) 0.7168(3) 0.4047(8)
O4 O 0.5145(3) 0.9114(2) 0.0759(7)
C7 C 0.5099(3) 0.8857(3) 0.2435(6)
O5 O 0.4966(3) 0.9114(3) 0.4042(7)
C8 C 0.5163(4) 0.8161(3) 0.2472(7)
C9 C 0.5824(4) 0.8141(4) 0.5547(12)
H4 H 0.5815 0.8572 0.5589
C10 C 0.4935(5) 0.7827(4) 0.0902(11)
C11 C 0.6165(8) 0.7829(5) 0.6936(18)
H6 H 0.6397 0.8046 0.7876
C12 C 0.5482(4) 0.7832(3) 0.4047(8)
Ga2_2 Ga 0.5000 1.0000 0.5000
Ga3_3 Ga 0.5000 1.0000 0.0000
Ga4 Ga 0.5000 0.5000 0.5000
O8 O 0.4114(3) 0.5034(3) 0.0958(7)
Ga1_2 Ga 0.5000 0.5000 1.0000
H2 H 0.4774 0.6964 0.9804
H5 H 0.4774 0.8036 0.9804
Ga3_4 Ga 0.5000 1.0000 1.0000
O6 O 0.4699(2) 0.5301(2) 0.7500
O7 O 0.4855(3) 0.4114(2) 0.9241(7)
O9 O 0.5886(3) 0.4966(3) 0.9042(7)
Ga1_3 Ga 0.0000 0.0000 0.0000
Ga4_2 Ga 0.0000 0.0000 0.5000
Ga1_4 Ga 0.0000 0.0000 1.0000
O7_2 O 0.0145(3) 0.0886(2) 0.9241(7)
Ga1_5 Ga 0.0000 1.0000 0.0000
O3_2 O 0.0034(3) 0.9114(3) 0.4042(7)
C4_2 C 0.0065(5) 0.7827(4) 0.0902(11)
O5_2 O 0.0034(3) 0.5886(3) 0.4042(7)
C10_2 C 0.0065(5) 0.7173(4) 0.0902(11)
Ga2_3 Ga 0.0000 0.5000 0.5000
Ga3_5 Ga 0.0000 0.5000 0.0000
Ga4_3 Ga 0.0000 1.0000 0.5000
O8_2 O 0.0886(3) 0.9966(3) 0.0958(7)
Ga1_6 Ga 0.0000 1.0000 1.0000
H2_2 H 0.0226 0.8036 0.9804
H5_2 H 0.0226 0.6964 0.9804
Ga3_6 Ga 0.0000 0.5000 1.0000
O6_2 O 0.0301(2) 0.9699(2) 0.7500
Ga1_7 Ga 1.0000 0.0000 0.0000
O1_2 O 0.9699(2) 0.0301(2) 0.2500
Ga4_4 Ga 1.0000 0.0000 0.5000
Ga1_8 Ga 1.0000 0.0000 1.0000
O9_2 O 0.9114(3) 0.0034(3) 0.9042(7)
Ga1_9 Ga 1.0000 1.0000 0.0000
O2_2 O 0.9855(3) 0.9114(2) 0.0759(7)
C1_2 C 0.9901(3) 0.8857(3) 0.2435(6)
C2_2 C 0.9837(4) 0.8161(3) 0.2472(7)
C3_2 C 0.9176(4) 0.8141(4) 0.5547(12)
H1_2 H 0.9185 0.8572 0.5589
C5_2 C 0.8835(8) 0.7829(5) 0.6936(18)
H3_2 H 0.8603 0.8046 0.7876
C6_2 C 0.9518(4) 0.7832(3) 0.4047(8)
O4_2 O 0.9855(3) 0.5886(2) 0.0759(7)
C7_2 C 0.9901(3) 0.6143(3) 0.2435(6)
C8_2 C 0.9837(4) 0.6839(3) 0.2472(7)
C9_2 C 0.9176(4) 0.6859(4) 0.5547(12)
H4_2 H 0.9185 0.6428 0.5589
C11_2 C 0.8835(8) 0.7171(5) 0.6936(18)
H6_2 H 0.8603 0.6954 0.7876
C12_2 C 0.9518(4) 0.7168(3) 0.4047(8)
Ga2_4 Ga 1.0000 0.5000 0.5000
Ga3_7 Ga 1.0000 0.5000 0.0000
Ga4_5 Ga 1.0000 1.0000 0.5000
Ga1_10 Ga 1.0000 1.0000 1.0000
Ga3_8 Ga 1.0000 0.5000 1.0000
O1_3 O 0.0301(2) 0.5301(2) 0.7500
O7_3 O 0.0886(2) 0.4855(3) 0.4241(7)
C3_3 C 0.8141(4) 0.5824(4) 0.0547(12)
H1_3 H 0.8572 0.5815 0.0589
C5_3 C 0.7829(5) 0.6165(8) 0.1936(18)
H3_3 H 0.8046 0.6397 0.2876
C9_3 C 0.6859(4) 0.5824(4) 0.0547(12)
H4_3 H 0.6428 0.5815 0.0589
C11_3 C 0.7171(5) 0.6165(8) 0.1936(18)
H6_3 H 0.6954 0.6397 0.2876
O2_3 O 0.9114(2) 0.5145(3) 0.5759(7)
C1_3 C 0.8857(3) 0.5099(3) 0.7435(6)
O3_3 O 0.9114(3) 0.4966(3) 0.9042(7)
C2_3 C 0.8161(3) 0.5163(4) 0.7472(7)
C4_3 C 0.7827(4) 0.4935(5) 0.5902(11)
H2_3 H 0.8036 0.4774 0.4804
C6_3 C 0.7832(3) 0.5482(4) 0.9047(8)
O4_3 O 0.5886(2) 0.5145(3) 0.5759(7)
C7_3 C 0.6143(3) 0.5099(3) 0.7435(6)
C8_3 C 0.6839(3) 0.5163(4) 0.7472(7)
C10_3 C 0.7173(4) 0.4935(5) 0.5902(11)
H5_3 H 0.6964 0.4774 0.4804
C12_3 C 0.7168(3) 0.5482(4) 0.9047(8)
O6_3 O 0.9699(2) 0.4699(2) 0.2500
O8_3 O 0.9966(3) 0.4114(3) 0.5958(7)
O3_4 O 0.5886(3) 0.0034(3) 0.9042(7)
C4_4 C 0.7173(4) 0.0065(5) 0.5902(11)
H2_4 H 0.6964 0.0226 0.4804
C10_4 C 0.7827(4) 0.0065(5) 0.5902(11)
H5_4 H 0.8036 0.0226 0.4804
O6_4 O 0.5301(2) 0.0301(2) 0.2500
O7_4 O 0.4114(2) 0.0145(3) 0.4241(7)
O8_4 O 0.5034(3) 0.0886(3) 0.5958(7)
C3_4 C 0.6859(4) 0.9176(4) 0.0547(12)
H1_4 H 0.6428 0.9185 0.0589
C5_4 C 0.7171(5) 0.8835(8) 0.1936(18)
H3_4 H 0.6954 0.8603 0.2876
C9_4 C 0.8141(4) 0.9176(4) 0.0547(12)
H4_4 H 0.8572 0.9185 0.0589
C11_4 C 0.7829(5) 0.8835(8) 0.1936(18)
H6_4 H 0.8046 0.8603 0.2876
O1_4 O 0.4699(2) 0.9699(2) 0.7500
O2_4 O 0.5886(2) 0.9855(3) 0.5759(7)
C1_4 C 0.6143(3) 0.9901(3) 0.7435(6)
C2_4 C 0.6839(3) 0.9837(4) 0.7472(7)
C6_4 C 0.7168(3) 0.9518(4) 0.9047(8)
O4_4 O 0.9114(2) 0.9855(3) 0.5759(7)
C7_4 C 0.8857(3) 0.9901(3) 0.7435(6)
C8_4 C 0.8161(3) 0.9837(4) 0.7472(7)
C12_4 C 0.7832(3) 0.9518(4) 0.9047(8)
H2_5 H 0.5226 0.1964 0.0196
H5_5 H 0.5226 0.3036 0.0196
O2_5 O 0.4855(3) 0.0886(2) 0.9241(7)
C1_5 C 0.4901(3) 0.1143(3) 0.7565(6)
C2_5 C 0.4837(4) 0.1839(3) 0.7528(7)
C3_5 C 0.4176(4) 0.1859(4) 0.4453(12)
H1_5 H 0.4185 0.1428 0.4411
C4_5 C 0.5065(5) 0.2173(4) 0.9098(11)
C5_5 C 0.3835(8) 0.2171(5) 0.3064(18)
H3_5 H 0.3603 0.1954 0.2124
C6_5 C 0.4518(4) 0.2168(3) 0.5953(8)
C7_5 C 0.4901(3) 0.3857(3) 0.7565(6)
O5_3 O 0.5034(3) 0.4114(3) 0.5958(7)
C8_5 C 0.4837(4) 0.3161(3) 0.7528(7)
C9_5 C 0.4176(4) 0.3141(4) 0.4453(12)
H4_5 H 0.4185 0.3572 0.4411
C10_5 C 0.5065(5) 0.2827(4) 0.9098(11)
C11_5 C 0.3835(8) 0.2829(5) 0.3064(18)
H6_5 H 0.3603 0.3046 0.2124
C12_5 C 0.4518(4) 0.2832(3) 0.5953(8)
O9_3 O 0.4114(3) 0.9966(3) 0.0958(7)
O9_4 O 0.0886(3) 0.5034(3) 0.0958(7)
O2_6 O 0.0145(3) 0.4114(2) 0.9241(7)
C1_6 C 0.0099(3) 0.3857(3) 0.7565(6)
C2_6 C 0.0163(4) 0.3161(3) 0.7528(7)
C3_6 C 0.0824(4) 0.3141(4) 0.4453(12)
H1_6 H 0.0815 0.3572 0.4411
C5_6 C 0.1165(8) 0.2829(5) 0.3064(18)
H3_6 H 0.1397 0.3046 0.2124
C6_6 C 0.0482(4) 0.2832(3) 0.5953(8)
C7_6 C 0.0099(3) 0.1143(3) 0.7565(6)
C8_6 C 0.0163(4) 0.1839(3) 0.7528(7)
C9_6 C 0.0824(4) 0.1859(4) 0.4453(12)
H4_6 H 0.0815 0.1428 0.4411
C11_6 C 0.1165(8) 0.2171(5) 0.3064(18)
H6_6 H 0.1397 0.1954 0.2124
C12_6 C 0.0482(4) 0.2168(3) 0.5953(8)
H2_6 H 0.9774 0.3036 0.0196
H5_6 H 0.9774 0.1964 0.0196
C4_6 C 0.9935(5) 0.2827(4) 0.9098(11)
O5_4 O 0.9966(3) 0.0886(3) 0.5958(7)
C10_6 C 0.9935(5) 0.2173(4) 0.9098(11)
O2_7 O 0.0886(2) 0.0145(3) 0.4241(7)
C1_7 C 0.1143(3) 0.0099(3) 0.2565(6)
C2_7 C 0.1839(3) 0.0163(4) 0.2528(7)
C6_7 C 0.2168(3) 0.0482(4) 0.0953(8)
C7_7 C 0.3857(3) 0.0099(3) 0.2565(6)
C8_7 C 0.3161(3) 0.0163(4) 0.2528(7)
C12_7 C 0.2832(3) 0.0482(4) 0.0953(8)
C3_7 C 0.1859(4) 0.0824(4) 0.9453(12)
H1_7 H 0.1428 0.0815 0.9411
C5_7 C 0.2171(5) 0.1165(8) 0.8064(18)
H3_7 H 0.1954 0.1397 0.7124
C9_7 C 0.3141(4) 0.0824(4) 0.9453(12)
H4_7 H 0.3572 0.0815 0.9411
C11_7 C 0.2829(5) 0.1165(8) 0.8064(18)
H6_7 H 0.3046 0.1397 0.7124
C4_7 C 0.2173(4) 0.9935(5) 0.4098(11)
H2_7 H 0.1964 0.9774 0.5196
C10_7 C 0.2827(4) 0.9935(5) 0.4098(11)
H5_7 H 0.3036 0.9774 0.5196
O2_8 O 0.4114(2) 0.4855(3) 0.4241(7)
C1_8 C 0.3857(3) 0.4901(3) 0.2565(6)
C2_8 C 0.3161(3) 0.4837(4) 0.2528(7)
C4_8 C 0.2827(4) 0.5065(5) 0.4098(11)
H2_8 H 0.3036 0.5226 0.5196
C6_8 C 0.2832(3) 0.4518(4) 0.0953(8)
C7_8 C 0.1143(3) 0.4901(3) 0.2565(6)
C8_8 C 0.1839(3) 0.4837(4) 0.2528(7)
C10_8 C 0.2173(4) 0.5065(5) 0.4098(11)
H5_8 H 0.1964 0.5226 0.5196
C12_8 C 0.2168(3) 0.4518(4) 0.0953(8)
C3_8 C 0.3141(4) 0.4176(4) 0.9453(12)
H1_8 H 0.3572 0.4185 0.9411
C5_8 C 0.2829(5) 0.3835(8) 0.8064(18)
H3_8 H 0.3046 0.3603 0.7124
C9_8 C 0.1859(4) 0.4176(4) 0.9453(12)
H4_8 H 0.1428 0.4185 0.9411
C11_8 C 0.2171(5) 0.3835(8) 0.8064(18)
H6_8 H 0.1954 0.3603 0.7124
loop_
_geom_bond_atom_site_label_1
_geom_bond_atom_site_label_2
_geom_bond_site_symmetry_1
_geom_bond_site_symmetry_2
Ga1 O1 1_555 1_555
O1 Ga4 1_555 1_555
O2 Ga1 1_555 1_555
C1 O2 1_555 1_555
O3 C1 1_555 1_555
C2 C1 1_555 1_555
C3 H1 1_555 1_555
C4 C2 1_555 1_555
C5 C3 1_555 1_555
H3 C5 1_555 1_555
C6 C2 1_555 1_555
O4 C7 1_555 1_555
C7 O5 1_555 1_555
O5 Ga2_2 1_555 1_555
C8 C7 1_555 1_555
C9 H4 1_555 1_555
C10 C4 1_555 1_555
C11 C5 1_555 1_555
H6 C11 1_555 1_555
C12 C6 1_555 1_555
Ga3_3 O4 1_555 1_555
Ga4 O3 1_555 1_555
O8 Ga1 1_555 1_555
C3 C6 1_555 1_555
C8 C10 1_555 1_555
C8 C12 1_555 1_555
C9 C11 1_555 1_555
C9 C12 1_555 1_555
O6 Ga1_2 1_555 1_555
O7 Ga1_2 1_555 1_555
O9 Ga1_2 1_555 1_555
O7_2 Ga1_4 1_555 1_555
O5_2 Ga2_3 1_555 1_555
C10_2 C4_2 1_555 1_555
Ga4_3 O3_2 1_555 1_555
O8_2 Ga1_5 1_555 1_555
O6_2 Ga1_6 1_555 1_555
Ga1_7 O1_2 1_555 1_555
O1_2 Ga4_4 1_555 1_555
O9_2 Ga1_8 1_555 1_555
O2_2 Ga1_9 1_555 1_555
C1_2 O2_2 1_555 1_555
C2_2 C1_2 1_555 1_555
C3_2 H1_2 1_555 1_555
C5_2 C3_2 1_555 1_555
H3_2 C5_2 1_555 1_555
C6_2 C2_2 1_555 1_555
O4_2 C7_2 1_555 1_555
C8_2 C7_2 1_555 1_555
C9_2 H4_2 1_555 1_555
C11_2 C5_2 1_555 1_555
H6_2 C11_2 1_555 1_555
C12_2 C6_2 1_555 1_555
Ga3_7 O4_2 1_555 1_555
C3_2 C6_2 1_555 1_555
C8_2 C12_2 1_555 1_555
C9_2 C11_2 1_555 1_555
C9_2 C12_2 1_555 1_555
Ga2_3 O1_3 1_555 1_555
O1_3 Ga3_6 1_555 1_555
O7_3 Ga2_3 1_555 1_555
C3_3 H1_3 1_555 1_555
C5_3 C3_3 1_555 1_555
H3_3 C5_3 1_555 1_555
C9_3 H4_3 1_555 1_555
C11_3 C5_3 1_555 1_555
H6_3 C11_3 1_555 1_555
C9_3 C11_3 1_555 1_555
O2_3 Ga2_4 1_555 1_555
C1_3 O2_3 1_555 1_555
O3_3 C1_3 1_555 1_555
C2_3 C1_3 1_555 1_555
C4_3 C2_3 1_555 1_555
H2_3 C4_3 1_555 1_555
C6_3 C2_3 1_555 1_555
O4_3 C7_3 1_555 1_555
C7_3 O9 1_555 1_555
C8_3 C7_3 1_555 1_555
C10_3 C4_3 1_555 1_555
H5_3 C10_3 1_555 1_555
C12_3 C6_3 1_555 1_555
Ga4 O4_3 1_555 1_555
Ga3_8 O3_3 1_555 1_555
O6_3 Ga2_4 1_555 1_555
O8_3 Ga2_4 1_555 1_555
C8_3 C10_3 1_555 1_555
C8_3 C12_3 1_555 1_555
H2_4 C4_4 1_555 1_555
C10_4 C4_4 1_555 1_555
H5_4 C10_4 1_555 1_555
Ga3_2 O3_4 1_555 1_555
O6_4 Ga2 1_555 1_555
O7_4 Ga2 1_555 1_555
O8_4 Ga2 1_555 1_555
C3_4 H1_4 1_555 1_555
C5_4 C3_4 1_555 1_555
H3_4 C5_4 1_555 1_555
C9_4 H4_4 1_555 1_555
C11_4 C5_4 1_555 1_555
H6_4 C11_4 1_555 1_555
C9_4 C11_4 1_555 1_555
Ga2_2 O1_4 1_555 1_555
O1_4 Ga3_4 1_555 1_555
O2_4 Ga2_2 1_555 1_555
C1_4 O2_4 1_555 1_555
C2_4 C1_4 1_555 1_555
C6_4 C2_4 1_555 1_555
O4_4 C7_4 1_555 1_555
C8_4 C7_4 1_555 1_555
C12_4 C6_4 1_555 1_555
Ga4_5 O4_4 1_555 1_555
C8_4 C12_4 1_555 1_555
O6_4 Ga3 1_555 1_555
O2_5 Ga3_2 1_555 1_555
C1_5 O2_5 1_555 1_555
O8_4 C1_5 1_555 1_555
C2_5 C1_5 1_555 1_555
C3_5 H1_5 1_555 1_555
C4_5 C2_5 1_555 1_555
C5_5 C3_5 1_555 1_555
H3_5 C5_5 1_555 1_555
C6_5 C2_5 1_555 1_555
O7 C7_5 1_555 1_555
C7_5 O5_3 1_555 1_555
O5_3 Ga4 1_555 1_555
C8_5 C7_5 1_555 1_555
C9_5 H4_5 1_555 1_555
C10_5 C4_5 1_555 1_555
C11_5 C5_5 1_555 1_555
H6_5 C11_5 1_555 1_555
C12_5 C6_5 1_555 1_555
C3_5 C6_5 1_555 1_555
C8_5 C10_5 1_555 1_555
C8_5 C12_5 1_555 1_555
C9_5 C11_5 1_555 1_555
C9_5 C12_5 1_555 1_555
O9_3 Ga3_3 1_555 1_555
O9_4 Ga3_5 1_555 1_555
O2_6 Ga3_6 1_555 1_555
C1_6 O2_6 1_555 1_555
C2_6 C1_6 1_555 1_555
C3_6 H1_6 1_555 1_555
C5_6 C3_6 1_555 1_555
H3_6 C5_6 1_555 1_555
C6_6 C2_6 1_555 1_555
O7_2 C7_6 1_555 1_555
C8_6 C7_6 1_555 1_555
C9_6 H4_6 1_555 1_555
C11_6 C5_6 1_555 1_555
H6_6 C11_6 1_555 1_555
C12_6 C6_6 1_555 1_555
C3_6 C6_6 1_555 1_555
C8_6 C12_6 1_555 1_555
C9_6 C11_6 1_555 1_555
C9_6 C12_6 1_555 1_555
O6_3 Ga3_7 1_555 1_555
O5_4 Ga4_4 1_555 1_555
C10_6 C4_6 1_555 1_555
O2_7 Ga4_2 1_555 1_555
C1_7 O2_7 1_555 1_555
C2_7 C1_7 1_555 1_555
C6_7 C2_7 1_555 1_555
O7_4 C7_7 1_555 1_555
C8_7 C7_7 1_555 1_555
C12_7 C6_7 1_555 1_555
C8_7 C12_7 1_555 1_555
C3_7 H1_7 1_555 1_555
C5_7 C3_7 1_555 1_555
H3_7 C5_7 1_555 1_555
C9_7 H4_7 1_555 1_555
C11_7 C5_7 1_555 1_555
H6_7 C11_7 1_555 1_555
C9_7 C11_7 1_555 1_555
H2_7 C4_7 1_555 1_555
C10_7 C4_7 1_555 1_555
H5_7 C10_7 1_555 1_555
O6_2 Ga4_3 1_555 1_555
O2_8 Ga4 1_555 1_555
C1_8 O2_8 1_555 1_555
O8 C1_8 1_555 1_555
C2_8 C1_8 1_555 1_555
C4_8 C2_8 1_555 1_555
H2_8 C4_8 1_555 1_555
C6_8 C2_8 1_555 1_555
O7_3 C7_8 1_555 1_555
C7_8 O9_4 1_555 1_555
C8_8 C7_8 1_555 1_555
C10_8 C4_8 1_555 1_555
H5_8 C10_8 1_555 1_555
C12_8 C6_8 1_555 1_555
O6 Ga4 1_555 1_555
C8_8 C10_8 1_555 1_555
C8_8 C12_8 1_555 1_555
C3_8 H1_8 1_555 1_555
C5_8 C3_8 1_555 1_555
H3_8 C5_8 1_555 1_555
C9_8 H4_8 1_555 1_555
C11_8 C5_8 1_555 1_555
H6_8 C11_8 1_555 1_555
C9_8 C11_8 1_555 1_555

#END
