
###############################################################################
#
# This file contains modified crystal structure data generated from the
# MOF subset of the Cambridge Structural Database (CSD) v543 
# hosted by the Cambridge Crystallographic Data Centre (CCDC).
#
# This work is licensed under the Creative Commons
# Attribution-NonCommercial-ShareAlike 4.0 International License.
# To view a copy of this license, visit
# http://creativecommons.org/licenses/by-nc-sa/4.0/
# or send a letter to
# Creative Commons, PO Box 1866, Mountain View, CA 94042, USA.
#
# CIF created using the CSD Python API on 29 September 2022
# The structure has been converted into the P1 space group
# The structure has a 3D framework
# The original CSD entry YEDXIS is in the orthorhombic crystal system
# The framework has been calculated to contain at least 10.0% void space
# The void calculation uses a probe of radius 1.32A, grid spacing 0.4
#
###############################################################################

data_YEDXIS
_chemical_formula_moiety         '(C24 H16 N4 Ni4 O6)n'
_symmetry_cell_setting           triclinic
_symmetry_space_group_name_H-M   'P 1'
_symmetry_Int_Tables_number      1
_space_group_name_Hall           'P 1'
loop_
_symmetry_equiv_pos_site_id
_symmetry_equiv_pos_as_xyz
1 x,y,z
_cell_length_a                   12.5164(15)
_cell_length_b                   6.3101(10)
_cell_length_c                   10.2727(13)
_cell_angle_alpha                90
_cell_angle_beta                 90
_cell_angle_gamma                90
_cell_volume                     811.335
loop_
_atom_site_label
_atom_site_type_symbol
_atom_site_fract_x
_atom_site_fract_y
_atom_site_fract_z
Ni3 Ni 0.000000 0.500000 0.77132(10)
Ni1 Ni 0.500000 1.000000 0.27132(10)
H2 H 0.762(4) 0.998(5) 0.644(6)
H3 H 0.613(3) 0.875(7) 0.505(4)
O3 O 0.10609(15) 0.7453(3) 0.72968(19)
O4 O 0.11628(17) 0.4399(4) 0.62592(19)
N2 N 0.40014(16) 0.8696(4) 0.4061(2)
C7 C 0.3570(3) 0.9898(4) 0.4996(3)
C8 C 0.2752(2) 0.9177(5) 0.5797(3)
C9 C 0.3640(2) 0.6722(5) 0.3891(3)
C10 C 0.2829(2) 0.5872(5) 0.4653(3)
C11 C 0.2371(2) 0.7129(5) 0.5614(3)
C12 C 0.1477(2) 0.6271(4) 0.6438(3)
H5 H 0.259(4) 0.473(6) 0.448(5)
H8 H 0.394(3) 0.602(6) 0.321(4)
O6 O 0.60609(15) 0.7547(3) 0.22968(19)
O7 O 0.38372(17) 0.9399(4) 0.12592(19)
N1 N 0.09986(16) 0.3696(4) 0.9061(2)
C1 C 0.1430(3) 0.4898(4) 0.9996(3)
C3 C 0.1360(2) 0.1722(5) 0.8891(3)
C4 C 0.2171(2) 0.0872(5) 0.9653(3)
H4 H 0.106(3) 0.102(6) 0.821(4)
C8_2 C 0.7752(2) 0.5823(5) 0.0797(3)
C11_2 C 0.7371(2) 0.7871(5) 0.0614(3)
C12_2 C 0.6477(2) 0.8729(4) 0.1438(3)
H6 H 0.738(4) 0.498(5) 0.144(6)
H7 H 0.887(3) 0.375(7) 0.005(4)
Ni1_2 Ni 0.500000 -0.000000 0.27132(10)
O1 O 0.89391(15) 0.2547(3) 0.72968(19)
O2 O 0.88372(17) 0.5601(4) 0.62592(19)
N1_2 N 0.59986(16) 0.1304(4) 0.4061(2)
C1_2 C 0.6430(3) 0.0102(4) 0.4996(3)
C2 C 0.7248(2) 0.0823(5) 0.5797(3)
C3_2 C 0.6360(2) 0.3278(5) 0.3891(3)
C4_2 C 0.7171(2) 0.4128(5) 0.4653(3)
C5 C 0.7629(2) 0.2871(5) 0.5614(3)
C6 C 0.8523(2) 0.3729(4) 0.6438(3)
H1 H 0.741(4) 0.527(6) 0.448(5)
H4_2 H 0.606(3) 0.398(6) 0.321(4)
H6_2 H 0.238(4) 0.002(5) 0.644(6)
H7_2 H 0.387(3) 0.125(7) 0.505(4)
Ni3_2 Ni 1.000000 0.500000 0.77132(10)
O5 O 0.39391(15) 0.2453(3) 0.22968(19)
O8 O 0.61628(17) 0.0601(4) 0.12592(19)
C2_2 C 0.2248(2) 0.4177(5) 0.0797(3)
C5_2 C 0.2629(2) 0.2129(5) 0.0614(3)
C6_2 C 0.3523(2) 0.1271(4) 0.1438(3)
H2_2 H 0.262(4) 0.502(5) 0.144(6)
H3_2 H 0.113(3) 0.625(7) 0.005(4)
N2_2 N 0.90014(16) 0.6304(4) 0.9061(2)
C7_2 C 0.8570(3) 0.5102(4) 0.9996(3)
C9_2 C 0.8640(2) 0.8278(5) 0.8891(3)
C10_2 C 0.7829(2) 0.9128(5) 0.9653(3)
H8_2 H 0.894(3) 0.898(6) 0.821(4)
H1_2 H 0.241(4) 0.973(6) 0.948(5)
H5_2 H 0.759(4) 0.027(6) 0.948(5)
loop_
_geom_bond_atom_site_label_1
_geom_bond_atom_site_label_2
_geom_bond_site_symmetry_1
_geom_bond_site_symmetry_2
O3 C12 1_555 1_555
O4 C12 1_555 1_555
N2 Ni1 1_555 1_555
C7 N2 1_555 1_555
C8 C7 1_555 1_555
C9 N2 1_555 1_555
C10 C9 1_555 1_555
C11 C8 1_555 1_555
C12 C11 1_555 1_555
H5 C10 1_555 1_555
H8 C9 1_555 1_555
Ni3 O3 1_555 1_555
O6 Ni1 1_555 1_555
O7 Ni1 1_555 1_555
O4 Ni3 1_555 1_555
C10 C11 1_555 1_555
Ni3 N1 1_555 1_555
N1 C1 1_555 1_555
C3 N1 1_555 1_555
C4 C3 1_555 1_555
H4 C3 1_555 1_555
O6 C12_2 1_555 1_555
C11_2 C8_2 1_555 1_555
C12_2 C11_2 1_555 1_555
H6 C8_2 1_555 1_555
Ni1_2 N1_2 1_555 1_555
O1 C6 1_555 1_555
O2 C6 1_555 1_555
N1_2 C1_2 1_555 1_555
C1_2 C2 1_555 1_555
C2 C5 1_555 1_555
C3_2 N1_2 1_555 1_555
C4_2 C3_2 1_555 1_555
C5 C4_2 1_555 1_555
C6 C5 1_555 1_555
H1 C4_2 1_555 1_555
H4_2 C3_2 1_555 1_555
Ni3_2 O1 1_555 1_555
O5 Ni1_2 1_555 1_555
O8 Ni1_2 1_555 1_555
O2 Ni3_2 1_555 1_555
O5 C6_2 1_555 1_555
C2_2 C5_2 1_555 1_555
C6_2 C5_2 1_555 1_555
H2_2 C2_2 1_555 1_555
N2_2 Ni3_2 1_555 1_555
C7_2 N2_2 1_555 1_555
C9_2 N2_2 1_555 1_555
C10_2 C9_2 1_555 1_555
H8_2 C9_2 1_555 1_555

#END
