
###############################################################################
#
# This file contains modified crystal structure data generated from the
# MOF subset of the Cambridge Structural Database (CSD) v543 
# hosted by the Cambridge Crystallographic Data Centre (CCDC).
#
# This work is licensed under the Creative Commons
# Attribution-NonCommercial-ShareAlike 4.0 International License.
# To view a copy of this license, visit
# http://creativecommons.org/licenses/by-nc-sa/4.0/
# or send a letter to
# Creative Commons, PO Box 1866, Mountain View, CA 94042, USA.
#
# CIF created using the CSD Python API on 29 September 2022
# The structure has been converted into the P1 space group
# The structure has a 3D framework
# The original CSD entry YEGWEP is in the monoclinic crystal system
# The framework has been calculated to contain at least 10.0% void space
# The void calculation uses a probe of radius 1.32A, grid spacing 0.4
#
###############################################################################

data_YEGWEP
_chemical_formula_moiety         '(C64 H32 Li2 O26 Tb4)n'
_symmetry_cell_setting           triclinic
_symmetry_space_group_name_H-M   'P 1'
_symmetry_Int_Tables_number      1
_space_group_name_Hall           'P 1'
loop_
_symmetry_equiv_pos_site_id
_symmetry_equiv_pos_as_xyz
1 x,y,z
_cell_length_a                   13.6106(10)
_cell_length_b                   26.1672(5)
_cell_length_c                   6.7381(5)
_cell_angle_alpha                90
_cell_angle_beta                 136.141(13)
_cell_angle_gamma                90
_cell_volume                     1662.78
loop_
_atom_site_label
_atom_site_type_symbol
_atom_site_fract_x
_atom_site_fract_y
_atom_site_fract_z
Tb2 Tb 0 0.082113(8) 0.250
Li3 Li 0 0.0907(3) 0.750
Tb4 Tb 0 0.917887(8) 0.750
C8 C 0.1987(7) 0.20955(18) 0.0343(11)
H4 H 0.1644 0.1823 0.059
O5 O 0.8723(2) 0.06027(9) 0.3592(5)
C10 C 0.7983(4) 0.02026(13) 0.2785(7)
C12 C 0.6437(4) 0.02125(12) 0.0025(7)
O7 O 0.4072(3) 0.37543(9) 0.3252(5)
O8 O 0.3372(4) 0.34569(11) 0.5096(7)
C13 C 0.2946(5) 0.29406(15) 0.1594(9)
C14 C 0.3465(4) 0.34081(14) 0.3379(8)
C15 C 0.2431(6) 0.25367(18) 0.1916(11)
H7 H 0.2381 0.2561 0.3217
Tb2_2 Tb 1 0.082113(8) 0.250
Tb5 Tb 0.5 0.417887(8) 0.750
O9 O 0.1277(2) 0.06027(9) 0.1408(5)
Li3_2 Li 1 0.0907(3) 0.750
Li4 Li 0.5 0.4093(3) 0.250
O3 O 0.0928(3) 0.12457(9) 0.6748(5)
O4 O 0.1628(4) 0.15431(11) 0.4904(7)
C1 C 0.4273(4) 0.06719(13) 0.6247(7)
H1 H 0.3783 0.0979 0.5435
C2 C 0.2017(4) 0.02026(13) 0.2215(7)
C4 C 0.3563(4) 0.02125(12) 0.4975(7)
C5 C 0.2054(5) 0.20594(15) 0.8406(9)
C6 C 0.1535(4) 0.15919(14) 0.6621(8)
C7 C 0.2569(6) 0.24633(18) 0.8084(11)
H3 H 0.2619 0.2439 0.6783
C9 C 0.5727(4) 0.06719(13) 0.8753(7)
H5 H 0.6217 0.0979 0.9565
C16 C 0.3013(7) 0.29045(18) 0.9657(11)
H8 H 0.3356 0.3177 0.941
O12 O 0.1518(3) 0.02028(9) 0.5789(5)
O6 O 0.8482(3) 0.97972(9) 0.4211(5)
Tb4_2 Tb 1 0.917887(8) 0.750
O2 O 0.1518(3) 0.97972(9) 0.0789(5)
C3 C 0.4291(4) 0.97567(13) 0.6229(7)
H2 H 0.382 0.9449 0.5348
C11 C 0.5709(4) 0.97567(13) 0.8771(7)
H6 H 0.618 0.9449 0.9652
O14 O 0.9072(3) 0.12457(9) 0.8252(5)
O15 O 0.8372(4) 0.15431(11) 0.0096(7)
O11 O 0.8482(3) 0.02028(9) 0.9211(5)
C5_2 C 0.7946(5) 0.20594(15) 0.6594(9)
C6_2 C 0.8465(4) 0.15919(14) 0.8379(8)
C7_2 C 0.7431(6) 0.24633(18) 0.6916(11)
H3_2 H 0.7381 0.2439 0.8217
C8_2 C 0.8013(7) 0.20955(18) 0.4657(11)
H4_2 H 0.8356 0.1823 0.441
O7_2 O 0.5928(3) 0.37543(9) 0.1748(5)
C13_2 C 0.7054(5) 0.29406(15) 0.3406(9)
C14_2 C 0.6535(4) 0.34081(14) 0.1621(8)
C15_2 C 0.7569(6) 0.25367(18) 0.3084(11)
H7_2 H 0.7619 0.2561 0.1783
C16_2 C 0.6987(7) 0.29045(18) 0.5343(11)
H8_2 H 0.6644 0.3177 0.559
O8_2 O 0.6628(4) 0.34569(11) 0.9904(7)
O5_2 O 0.3723(2) 0.56027(9) 0.3592(5)
C10_2 C 0.2983(4) 0.52026(13) 0.2785(7)
C12_2 C 0.1437(4) 0.52125(12) 0.0025(7)
O6_2 O 0.3482(3) 0.47972(9) 0.4211(5)
Tb2_3 Tb 0.5 0.582113(8) 0.250
Li3_3 Li 0.5 0.5907(3) 0.750
Li4_2 Li 0.0 0.9093(3) 0.250
C9_2 C 0.0727(4) 0.56719(13) 0.8753(7)
H5_2 H 0.1217 0.5979 0.9565
C11_2 C 0.0709(4) 0.47567(13) 0.8771(7)
H6_2 H 0.118 0.4449 0.9652
C8_3 C 0.6987(7) 0.70955(18) 0.0343(11)
H4_3 H 0.6644 0.6823 0.059
O7_3 O 0.9072(3) 0.87543(9) 0.3252(5)
O8_3 O 0.8372(4) 0.84569(11) 0.5096(7)
C13_3 C 0.7946(5) 0.79406(15) 0.1594(9)
C14_3 C 0.8465(4) 0.84081(14) 0.3379(8)
C15_3 C 0.7431(6) 0.75367(18) 0.1916(11)
H7_3 H 0.7381 0.7561 0.3217
O9_2 O 0.6277(2) 0.56027(9) 0.1408(5)
Li4_3 Li 1.0 0.9093(3) 0.250
O2_2 O 0.6518(3) 0.47972(9) 0.0789(5)
O3_2 O 0.5928(3) 0.62457(9) 0.6748(5)
O4_2 O 0.6628(4) 0.65431(11) 0.4904(7)
C1_2 C 0.9273(4) 0.56719(13) 0.6247(7)
H1_2 H 0.8783 0.5979 0.5435
C2_2 C 0.7017(4) 0.52026(13) 0.2215(7)
C3_2 C 0.9291(4) 0.47567(13) 0.6229(7)
H2_2 H 0.882 0.4449 0.5348
C4_2 C 0.8563(4) 0.52125(12) 0.4975(7)
C5_3 C 0.7054(5) 0.70594(15) 0.8406(9)
C6_3 C 0.6535(4) 0.65919(14) 0.6621(8)
C7_3 C 0.7569(6) 0.74633(18) 0.8084(11)
H3_3 H 0.7619 0.7439 0.6783
C16_3 C 0.8013(7) 0.79045(18) 0.9657(11)
H8_3 H 0.8356 0.8177 0.941
O12_2 O 0.6518(3) 0.52028(9) 0.5789(5)
O14_2 O 0.4072(3) 0.62457(9) 0.8252(5)
O15_2 O 0.3372(4) 0.65431(11) 0.0096(7)
O11_2 O 0.3482(3) 0.52028(9) 0.9211(5)
C5_4 C 0.2946(5) 0.70594(15) 0.6594(9)
C6_4 C 0.3465(4) 0.65919(14) 0.8379(8)
C7_4 C 0.2431(6) 0.74633(18) 0.6916(11)
H3_4 H 0.2381 0.7439 0.8217
C8_4 C 0.3013(7) 0.70955(18) 0.4657(11)
H4_4 H 0.3356 0.6823 0.441
O7_4 O 0.0928(3) 0.87543(9) 0.1748(5)
C13_4 C 0.2054(5) 0.79406(15) 0.3406(9)
C14_4 C 0.1535(4) 0.84081(14) 0.1621(8)
C15_4 C 0.2569(6) 0.75367(18) 0.3084(11)
H7_4 H 0.2619 0.7561 0.1783
C16_4 C 0.1987(7) 0.79045(18) 0.5343(11)
H8_4 H 0.1644 0.8177 0.559
O8_4 O 0.1628(4) 0.84569(11) 0.9904(7)
O10 O 0.1277(2) 0.93973(9) 0.6408(5)
C3_3 C 0.5709(4) 0.02433(13) 0.3771(7)
H2_3 H 0.618 0.0551 0.4652
C11_3 C 0.4291(4) 0.02433(13) 0.1229(7)
H6_3 H 0.382 0.0551 0.0348
O1 O 0.8723(2) 0.93973(9) 0.8592(5)
C1_3 C 0.5727(4) 0.93281(13) 0.3753(7)
H1_3 H 0.6217 0.9021 0.4565
C2_3 C 0.7983(4) 0.97974(13) 0.7785(7)
C4_3 C 0.6437(4) 0.97875(12) 0.5025(7)
C9_3 C 0.4273(4) 0.93281(13) 0.1247(7)
H5_3 H 0.3783 0.9021 0.0435
C10_3 C 0.2017(4) 0.97974(13) 0.7215(7)
C12_3 C 0.3563(4) 0.97875(12) 0.9975(7)
O1_2 O 0.3723(2) 0.43973(9) 0.8592(5)
C1_4 C 0.0727(4) 0.43281(13) 0.3753(7)
H1_4 H 0.1217 0.4021 0.4565
C2_4 C 0.2983(4) 0.47974(13) 0.7785(7)
C3_4 C 0.0709(4) 0.52433(13) 0.3771(7)
H2_4 H 0.118 0.5551 0.4652
C4_4 C 0.1437(4) 0.47875(12) 0.5025(7)
O10_2 O 0.6277(2) 0.43973(9) 0.6408(5)
C9_4 C 0.9273(4) 0.43281(13) 0.1247(7)
H5_4 H 0.8783 0.4021 0.0435
C11_4 C 0.9291(4) 0.52433(13) 0.1229(7)
H6_4 H 0.882 0.5551 0.0348
C10_4 C 0.7017(4) 0.47974(13) 0.7215(7)
C12_4 C 0.8563(4) 0.47875(12) 0.9975(7)
loop_
_geom_bond_atom_site_label_1
_geom_bond_atom_site_label_2
_geom_bond_site_symmetry_1
_geom_bond_site_symmetry_2
H4 C8 1_555 1_555
O5 C10 1_555 1_555
C10 C12 1_555 1_555
O7 C14 1_555 1_555
O8 C14 1_555 1_555
C13 C14 1_555 1_555
C15 C8 1_555 1_555
H7 C15 1_555 1_555
Tb2_2 O5 1_555 1_555
Tb5 O7 1_555 1_555
Li3_2 O5 1_555 1_555
Li4 O7 1_555 1_555
O8 Tb5 1_555 1_555
C13 C15 1_555 1_555
Tb2 O9 1_555 1_555
O9 C2 1_555 1_555
O3 Tb2 1_555 1_555
O4 Tb2 1_555 1_555
C1 H1 1_555 1_555
C2 C4 1_555 1_555
C4 C1 1_555 1_555
C5 C6 1_555 1_555
C6 O3 1_555 1_555
C7 C5 1_555 1_555
H3 C7 1_555 1_555
Li3 O3 1_555 1_555
C9 C1 1_555 1_555
H5 C9 1_555 1_555
C16 C7 1_555 1_555
H8 C16 1_555 1_555
O12 Tb2 1_555 1_555
O4 C6 1_555 1_555
Tb4_2 O6 1_555 1_555
C3 H2 1_555 1_555
C11 C3 1_555 1_555
H6 C11 1_555 1_555
O14 Li3_2 1_555 1_555
O15 Tb2_2 1_555 1_555
C5_2 C6_2 1_555 1_555
C6_2 O14 1_555 1_555
C7_2 C5_2 1_555 1_555
H3_2 C7_2 1_555 1_555
C8_2 C5_2 1_555 1_555
H4_2 C8_2 1_555 1_555
O7_2 C14_2 1_555 1_555
C13_2 C14_2 1_555 1_555
C15_2 C8_2 1_555 1_555
H7_2 C15_2 1_555 1_555
C16_2 C7_2 1_555 1_555
H8_2 C16_2 1_555 1_555
Li4 O7_2 1_555 1_555
C13_2 C15_2 1_555 1_555
C13_2 C16_2 1_555 1_555
O8_2 Tb5 1_555 1_555
O5_2 C10_2 1_555 1_555
C10_2 C12_2 1_555 1_555
O6_2 C10_2 1_555 1_555
Tb2_3 O5_2 1_555 1_555
Tb5 O6_2 1_555 1_555
Li3_3 O5_2 1_555 1_555
H5_2 C9_2 1_555 1_555
H6_2 C11_2 1_555 1_555
H4_3 C8_3 1_555 1_555
O7_3 C14_3 1_555 1_555
O8_3 C14_3 1_555 1_555
C13_3 C14_3 1_555 1_555
C15_3 C8_3 1_555 1_555
H7_3 C15_3 1_555 1_555
Tb4_2 O7_3 1_555 1_555
Li4_3 O7_3 1_555 1_555
O8_3 Tb4_2 1_555 1_555
C13_3 C15_3 1_555 1_555
Tb2_3 O9_2 1_555 1_555
O9_2 C2_2 1_555 1_555
O2_2 C2_2 1_555 1_555
O3_2 Tb2_3 1_555 1_555
O4_2 Tb2_3 1_555 1_555
C1_2 H1_2 1_555 1_555
C2_2 C4_2 1_555 1_555
C3_2 H2_2 1_555 1_555
C4_2 C1_2 1_555 1_555
C5_3 C6_3 1_555 1_555
C6_3 O3_2 1_555 1_555
C7_3 C5_3 1_555 1_555
H3_3 C7_3 1_555 1_555
Li3_3 O3_2 1_555 1_555
C16_3 C7_3 1_555 1_555
H8_3 C16_3 1_555 1_555
O12_2 Tb2_3 1_555 1_555
O14_2 Li3_3 1_555 1_555
O15_2 Tb2_3 1_555 1_555
O4_2 C6_3 1_555 1_555
C3_2 C4_2 1_555 1_555
C5_4 C6_4 1_555 1_555
C6_4 O14_2 1_555 1_555
C7_4 C5_4 1_555 1_555
H3_4 C7_4 1_555 1_555
C8_4 C5_4 1_555 1_555
H4_4 C8_4 1_555 1_555
O7_4 C14_4 1_555 1_555
C13_4 C14_4 1_555 1_555
C15_4 C8_4 1_555 1_555
H7_4 C15_4 1_555 1_555
C16_4 C7_4 1_555 1_555
H8_4 C16_4 1_555 1_555
Li4_2 O7_4 1_555 1_555
C13_4 C15_4 1_555 1_555
C13_4 C16_4 1_555 1_555
O8_4 Tb4 1_555 1_555
O10 Tb4 1_555 1_555
Li4_2 O10 1_555 1_555
C3_3 H2_3 1_555 1_555
C11_3 C3_3 1_555 1_555
H6_3 C11_3 1_555 1_555
Tb4_2 O1 1_555 1_555
O1 C2_3 1_555 1_555
C1_3 H1_3 1_555 1_555
C2_3 C4_3 1_555 1_555
C4_3 C1_3 1_555 1_555
C9_3 C1_3 1_555 1_555
H5_3 C9_3 1_555 1_555
O10 C10_3 1_555 1_555
C10_3 C12_3 1_555 1_555
Tb5 O1_2 1_555 1_555
O1_2 C2_4 1_555 1_555
O11_2 C2_4 1_555 1_555
C1_4 H1_4 1_555 1_555
C2_4 C4_4 1_555 1_555
C3_4 H2_4 1_555 1_555
C4_4 C1_4 1_555 1_555
O10_2 Tb5 1_555 1_555
C3_4 C4_4 1_555 1_555
Li4 O10_2 1_555 1_555
H5_4 C9_4 1_555 1_555
H6_4 C11_4 1_555 1_555
O10_2 C10_4 1_555 1_555
C10_4 C12_4 1_555 1_555
O12_2 C10_4 1_555 1_555

#END
