
###############################################################################
#
# This file contains modified crystal structure data generated from the
# MOF subset of the Cambridge Structural Database (CSD) v543 
# hosted by the Cambridge Crystallographic Data Centre (CCDC).
#
# This work is licensed under the Creative Commons
# Attribution-NonCommercial-ShareAlike 4.0 International License.
# To view a copy of this license, visit
# http://creativecommons.org/licenses/by-nc-sa/4.0/
# or send a letter to
# Creative Commons, PO Box 1866, Mountain View, CA 94042, USA.
#
# CIF created using the CSD Python API on 29 September 2022
# The structure has been converted into the P1 space group
# The structure has a 3D framework
# The original CSD entry YEGYIU is in the triclinic crystal system
# The framework has been calculated to contain at least 10.0% void space
# The void calculation uses a probe of radius 1.32A, grid spacing 0.4
# The framework is charged, counterions have been retained in the structure
#
###############################################################################

data_YEGYIU
_chemical_formula_moiety         '(C38 H24 Ag4 N8 O8)n'
_symmetry_cell_setting           triclinic
_symmetry_space_group_name_H-M   'P 1'
_symmetry_Int_Tables_number      1
_space_group_name_Hall           'P 1'
loop_
_symmetry_equiv_pos_site_id
_symmetry_equiv_pos_as_xyz
1 x,y,z
_cell_length_a                   7.0100(14)
_cell_length_b                   9.1462(18)
_cell_length_c                   15.496(3)
_cell_angle_alpha                97.96(3)
_cell_angle_beta                 98.39(3)
_cell_angle_gamma                92.01(3)
_cell_volume                     971.87
loop_
_atom_site_label
_atom_site_type_symbol
_atom_site_fract_x
_atom_site_fract_y
_atom_site_fract_z
_atom_site_U_iso_or_equiv
_atom_site_thermal_displace_type
H10 H 0.0550 0.0570 0.6493 0.0270 Uiso
Ag11 Ag 0.16896(4) 0.44751(3) 0.291138(16) 0.0175 Uani
N10 N 0.0865(4) 0.2878(3) 0.3749(2) 0.0190 Uani
C34 C 0.0250(5) 0.1506(4) 0.3366(2) 0.0225 Uani
H21 H 0.0049 0.1307 0.2741 0.0270 Uiso
C36 C 0.0178(5) 0.0601(4) 0.4740(2) 0.0173 Uani
C37 C 0.0813(5) 0.2038(4) 0.5148(2) 0.0204 Uani
H23 H 0.1015 0.2263 0.5773 0.0250 Uiso
C38 C 0.1146(5) 0.3128(4) 0.4643(2) 0.0216 Uani
H24 H 0.1588 0.4089 0.4934 0.0260 Uiso
N3 N 0.6369(4) 0.3985(3) 0.27376(18) 0.0165 Uani
C7 C 0.7460(5) 0.4741(4) 0.0166(2) 0.0134 Uani
H3 H 0.7741 0.6984 0.0382 0.0280 Uiso
C10 C 0.7179(5) 0.4489(4) 0.1068(2) 0.0144 Uani
C11 C 0.6908(6) 0.3084(4) 0.1268(2) 0.0288 Uani
H5 H 0.7002 0.2255 0.0836 0.0350 Uiso
C12 C 0.6496(6) 0.2859(4) 0.2095(2) 0.0290 Uani
H6 H 0.6299 0.1875 0.2208 0.0350 Uiso
C13 C 0.6702(6) 0.5340(4) 0.2550(2) 0.0246 Uani
H7 H 0.6672 0.6152 0.3001 0.0290 Uiso
C14 C 0.7086(6) 0.5637(4) 0.1747(2) 0.0266 Uani
H8 H 0.7290 0.6632 0.1654 0.0320 Uiso
Ag5 Ag 0.54800(4) 0.33931(3) 0.395704(16) 0.0200 Uani
Ag2 Ag 0.83104(4) 0.55249(3) 0.708862(16) 0.0175 Uani
O1 O 0.7585(4) 0.2877(3) 0.66065(15) 0.0221 Uani
O2 O 0.5988(4) 0.3956(3) 0.55311(16) 0.0221 Uani
O3 O 0.3785(4) 0.0557(3) 0.27228(17) 0.0323 Uani
N1 N 0.5387(4) 0.1157(3) 0.45557(18) 0.0130 Uani
N2 N 0.7957(4) 0.5193(3) 0.84492(18) 0.0152 Uani
N4 N 0.9135(4) 0.7122(3) 0.6251(2) 0.0190 Uani
C1 C 0.6468(5) 0.2849(4) 0.5906(2) 0.0154 Uani
C2 C 0.5631(5) 0.1346(4) 0.5444(2) 0.0133 Uani
C5 C 0.7693(6) 0.3836(5) 0.8652(3) 0.0308 Uani
H1 H 0.7669 0.3015 0.8202 0.0370 Uiso
C6 C 0.7454(7) 0.3568(4) 0.9490(2) 0.0324 Uani
H2 H 0.7285 0.2581 0.9603 0.0390 Uiso
C8 C 0.7724(6) 0.6142(4) 0.9946(2) 0.0233 Uani
C9 C 0.7959(6) 0.6326(4) 0.9106(2) 0.0229 Uani
H4 H 0.8134 0.7305 0.8979 0.0280 Uiso
C15 C 0.9750(5) 0.8494(4) 0.6634(2) 0.0225 Uani
H9 H 0.9951 0.8693 0.7259 0.0270 Uiso
C17 C 0.9822(5) 0.9399(4) 0.5260(2) 0.0173 Uani
C18 C 0.9187(5) 0.7962(4) 0.4852(2) 0.0204 Uani
H11 H 0.8985 0.7737 0.4227 0.0250 Uiso
C19 C 0.8854(5) 0.6872(4) 0.5357(2) 0.0216 Uani
H12 H 0.8412 0.5911 0.5066 0.0260 Uiso
Ag7 Ag 0.45200(4) 0.66069(3) 0.604296(16) 0.0200 Uani
O8 O 0.4193(4) 0.1296(3) 0.71812(16) 0.0285 Uani
C22 C 0.5219(5) 0.0170(4) 0.5887(2) 0.0128 Uani
C23 C 0.5255(5) 0.0335(4) 0.6880(2) 0.0182 Uani
H22 H 0.9450 0.9430 0.3507 0.0270 Uiso
O4 O 0.5807(4) 0.8704(3) 0.28188(16) 0.0285 Uani
C3 C 0.4781(5) 0.9830(4) 0.4113(2) 0.0128 Uani
C4 C 0.4745(5) 0.9665(4) 0.3120(2) 0.0182 Uani
O5 O 0.2415(4) 0.7123(3) 0.33935(15) 0.0221 Uani
O6 O 0.4012(4) 0.6044(3) 0.44689(16) 0.0221 Uani
O7 O 0.6215(4) 0.9443(3) 0.72772(17) 0.0323 Uani
N5 N 0.4613(4) 0.8843(3) 0.54443(18) 0.0130 Uani
N6 N 0.2043(4) 0.4807(3) 0.15508(18) 0.0152 Uani
N9 N 0.3631(4) 0.6015(3) 0.72624(18) 0.0165 Uani
C20 C 0.3532(5) 0.7151(4) 0.4094(2) 0.0154 Uani
C21 C 0.4369(5) 0.8654(4) 0.4556(2) 0.0133 Uani
C24 C 0.2307(6) 0.6164(5) 0.1348(3) 0.0308 Uani
H13 H 0.2331 0.6985 0.1798 0.0370 Uiso
C25 C 0.2546(7) 0.6432(4) 0.0510(2) 0.0324 Uani
H14 H 0.2715 0.7419 0.0397 0.0390 Uiso
C27 C 0.2276(6) 0.3858(4) 0.0054(2) 0.0233 Uani
C28 C 0.2041(6) 0.3674(4) 0.0894(2) 0.0229 Uani
H16 H 0.1866 0.2695 0.1021 0.0280 Uiso
C26 C 0.2540(5) 0.5259(4) 0.9834(2) 0.0134 Uani
H15 H 0.2259 0.3016 0.9618 0.0280 Uiso
C29 C 0.2821(5) 0.5511(4) 0.8932(2) 0.0144 Uani
C30 C 0.3092(6) 0.6916(4) 0.8732(2) 0.0288 Uani
H17 H 0.2998 0.7745 0.9164 0.0350 Uiso
C31 C 0.3504(6) 0.7141(4) 0.7905(2) 0.0290 Uani
H18 H 0.3701 0.8125 0.7792 0.0350 Uiso
C32 C 0.3298(6) 0.4660(4) 0.7450(2) 0.0246 Uani
H19 H 0.3328 0.3848 0.6999 0.0290 Uiso
C33 C 0.2914(6) 0.4363(4) 0.8253(2) 0.0266 Uani
H20 H 0.2710 0.3368 0.8346 0.0320 Uiso
C16 C 0.0105(5) 0.9623(4) 0.6180(2) 0.0223 Uani
C35 C 0.9895(5) 0.0377(4) 0.3820(2) 0.0223 Uani
loop_
_atom_site_aniso_label
_atom_site_aniso_U_11
_atom_site_aniso_U_22
_atom_site_aniso_U_33
_atom_site_aniso_U_23
_atom_site_aniso_U_13
_atom_site_aniso_U_12
Ag11 0.02308 0.01578 0.01407 0.00443 0.00369 -0.00387
N10 0.0188 0.0156 0.0236 0.0059 0.0039 0.0001
C34 0.025 0.02 0.0209 0.0057 -0.0026 -0.0042
C36 0.0116 0.0149 0.027 0.0061 0.0051 0.0004
C37 0.027 0.0133 0.023 0.0023 0.0109 0
C38 0.027 0.0134 0.026 0.0024 0.011 -0.0028
N3 0.019 0.018 0.0128 0.0022 0.0028 0.0048
C7 0.0112 0.0156 0.0123 0.0002 -0.0005 0.001
C10 0.0117 0.0191 0.0127 0.0017 0.0036 0.0017
C11 0.059 0.015 0.0146 0.0021 0.0114 0.0094
C12 0.056 0.015 0.018 0.0047 0.0082 0.0086
C13 0.037 0.017 0.0186 -0.0072 0.0115 -0.0058
C14 0.043 0.015 0.021 -0.0039 0.0108 -0.0071
Ag5 0.0277 0.01911 0.01533 0.00657 0.00695 0.00133
Ag2 0.02308 0.01578 0.01407 0.00443 0.00369 -0.00387
O1 0.0299 0.0181 0.016 -0.0013 0.0008 -0.0063
O2 0.036 0.0115 0.0192 0 0.0077 0.0001
O3 0.0432 0.0323 0.0219 0.0097 0.0009 0.0011
N1 0.0145 0.011 0.0144 0.0016 0.005 0.0031
N2 0.0166 0.0163 0.0119 0.0019 0.0012 -0.0038
N4 0.0188 0.0156 0.0236 0.0059 0.0039 0.0001
C1 0.0204 0.0158 0.011 -0.0012 0.0095 -0.0017
C2 0.0144 0.0114 0.015 0.0007 0.0058 0.0023
C5 0.055 0.019 0.018 -0.0024 0.0119 -0.0113
C6 0.066 0.014 0.019 -0.0013 0.019 -0.011
C8 0.04 0.018 0.0115 -0.0009 0.0048 0.0064
C9 0.034 0.017 0.02 0.0068 0.0077 0.0031
C15 0.025 0.02 0.0209 0.0057 -0.0026 -0.0042
C17 0.0116 0.0149 0.027 0.0061 0.0051 0.0004
C18 0.027 0.0133 0.023 0.0023 0.0109 0
C19 0.027 0.0134 0.026 0.0024 0.011 -0.0028
Ag7 0.0277 0.01911 0.01533 0.00657 0.00695 0.00133
O8 0.0403 0.0266 0.0182 -0.0052 0.012 -0.0034
C22 0.013 0.0125 0.0131 -0.0001 0.0041 0.0012
C23 0.0233 0.0165 0.0139 -0.001 0.0046 -0.0067
O4 0.0403 0.0266 0.0182 -0.0052 0.012 -0.0034
C3 0.013 0.0125 0.0131 -0.0001 0.0041 0.0012
C4 0.0233 0.0165 0.0139 -0.001 0.0046 -0.0067
O5 0.0299 0.0181 0.016 -0.0013 0.0008 -0.0063
O6 0.036 0.0115 0.0192 0 0.0077 0.0001
O7 0.0432 0.0323 0.0219 0.0097 0.0009 0.0011
N5 0.0145 0.011 0.0144 0.0016 0.005 0.0031
N6 0.0166 0.0163 0.0119 0.0019 0.0012 -0.0038
N9 0.019 0.018 0.0128 0.0022 0.0028 0.0048
C20 0.0204 0.0158 0.011 -0.0012 0.0095 -0.0017
C21 0.0144 0.0114 0.015 0.0007 0.0058 0.0023
C24 0.055 0.019 0.018 -0.0024 0.0119 -0.0113
C25 0.066 0.014 0.019 -0.0013 0.019 -0.011
C27 0.04 0.018 0.0115 -0.0009 0.0048 0.0064
C28 0.034 0.017 0.02 0.0068 0.0077 0.0031
C26 0.0112 0.0156 0.0123 0.0002 -0.0005 0.001
C29 0.0117 0.0191 0.0127 0.0017 0.0036 0.0017
C30 0.059 0.015 0.0146 0.0021 0.0114 0.0094
C31 0.056 0.015 0.018 0.0047 0.0082 0.0086
C32 0.037 0.017 0.0186 -0.0072 0.0115 -0.0058
C33 0.043 0.015 0.021 -0.0039 0.0108 -0.0071
C16 0.023 0.0149 0.027 0.0029 -0.0016 -0.0027
C35 0.023 0.0149 0.027 0.0029 -0.0016 -0.0027
loop_
_geom_bond_atom_site_label_1
_geom_bond_atom_site_label_2
_geom_bond_site_symmetry_1
_geom_bond_site_symmetry_2
Ag11 N10 1_555 1_555
N10 C34 1_555 1_555
C34 H21 1_555 1_555
C37 C36 1_555 1_555
H23 C37 1_555 1_555
C38 N10 1_555 1_555
H24 C38 1_555 1_555
C37 C38 1_555 1_555
N3 C12 1_555 1_555
C10 C7 1_555 1_555
C11 C10 1_555 1_555
H5 C11 1_555 1_555
C12 C11 1_555 1_555
H6 C12 1_555 1_555
C13 N3 1_555 1_555
H7 C13 1_555 1_555
C14 C10 1_555 1_555
H8 C14 1_555 1_555
Ag5 N3 1_555 1_555
C13 C14 1_555 1_555
Ag5 O2 1_555 1_555
Ag2 O1 1_555 1_555
O1 C1 1_555 1_555
O2 C1 1_555 1_555
N1 Ag5 1_555 1_555
N2 Ag2 1_555 1_555
N4 Ag2 1_555 1_555
C1 C2 1_555 1_555
C2 N1 1_555 1_555
C5 N2 1_555 1_555
H1 C5 1_555 1_555
C6 C5 1_555 1_555
H2 C6 1_555 1_555
C9 N2 1_555 1_555
H4 C9 1_555 1_555
C15 N4 1_555 1_555
H9 C15 1_555 1_555
C18 C17 1_555 1_555
H11 C18 1_555 1_555
C19 N4 1_555 1_555
H12 C19 1_555 1_555
Ag7 Ag2 1_555 1_555
Ag11 Ag5 1_555 1_555
O8 C23 1_555 1_555
C22 C2 1_555 1_555
C23 C22 1_555 1_555
C8 C9 1_555 1_555
C18 C19 1_555 1_555
O4 C4 1_555 1_555
C4 C3 1_555 1_555
Ag11 O5 1_555 1_555
O5 C20 1_555 1_555
O6 Ag7 1_555 1_555
N5 Ag7 1_555 1_555
N6 Ag11 1_555 1_555
N9 Ag7 1_555 1_555
C20 O6 1_555 1_555
C21 C3 1_555 1_555
C24 N6 1_555 1_555
H13 C24 1_555 1_555
C25 C24 1_555 1_555
H14 C25 1_555 1_555
C28 N6 1_555 1_555
H16 C28 1_555 1_555
N5 C21 1_555 1_555
C20 C21 1_555 1_555
C27 C28 1_555 1_555
N9 C31 1_555 1_555
C29 C26 1_555 1_555
C30 C29 1_555 1_555
H17 C30 1_555 1_555
C31 C30 1_555 1_555
H18 C31 1_555 1_555
C32 N9 1_555 1_555
H19 C32 1_555 1_555
C33 C29 1_555 1_555
H20 C33 1_555 1_555
C32 C33 1_555 1_555

#END
