
###############################################################################
#
# This file contains modified crystal structure data generated from the
# MOF subset of the Cambridge Structural Database (CSD) v543 
# hosted by the Cambridge Crystallographic Data Centre (CCDC).
#
# This work is licensed under the Creative Commons
# Attribution-NonCommercial-ShareAlike 4.0 International License.
# To view a copy of this license, visit
# http://creativecommons.org/licenses/by-nc-sa/4.0/
# or send a letter to
# Creative Commons, PO Box 1866, Mountain View, CA 94042, USA.
#
# CIF created using the CSD Python API on 29 September 2022
# The structure has been converted into the P1 space group
# The structure has a 3D framework
# The original CSD entry YEKBOJ is in the triclinic crystal system
# The framework has been calculated to contain at least 10.0% void space
# The void calculation uses a probe of radius 1.32A, grid spacing 0.4
# The framework is charged, counterions have been retained in the structure
# H atom positions have been added when not included in the experimental data
#
###############################################################################

data_YEKBOJ
_chemical_formula_moiety         '(C56 H50 N16 O14 P2 S2 Zn4)n'
_symmetry_cell_setting           triclinic
_symmetry_space_group_name_H-M   'P 1'
_symmetry_Int_Tables_number      1
_space_group_name_Hall           'P 1'
loop_
_symmetry_equiv_pos_site_id
_symmetry_equiv_pos_as_xyz
1 x,y,z
_cell_length_a                   11.8850(5)
_cell_length_b                   12.8660(7)
_cell_length_c                   14.0428(7)
_cell_angle_alpha                92.907(2)
_cell_angle_beta                 108.132(2)
_cell_angle_gamma                109.373(2)
_cell_volume                     1896.55
loop_
_atom_site_label
_atom_site_type_symbol
_atom_site_fract_x
_atom_site_fract_y
_atom_site_fract_z
_atom_site_U_iso_or_equiv
_atom_site_thermal_displace_type
H12 H 0.0069 0.2638 0.7536 0.0640 Uiso
H18 H 0.6381 0.0079 0.3245 0.0410 Uiso
H19 H 0.5263 0.0492 0.2760 0.0410 Uiso
C31 C 0.4781(2) 0.00841(16) 0.59157(15) 0.0300 Uani
C32 C 0.4551(2) 0.05613(17) 0.42556(16) 0.0336 Uani
C35 C 0.4522(2) 0.00936(17) 0.69067(16) 0.0340 Uani
C36 C 0.4325(2) 0.06617(17) 0.51670(16) 0.0322 Uani
N10 N 0.52289(17) 0.11563(15) 0.76098(13) 0.0321 Uani
C40 C 0.3625(3) 0.1395(2) 0.53611(19) 0.0464 Uani
C42 C 0.6505(3) 0.1734(3) 0.7921(2) 0.0619 Uani
C43 C 0.4770(2) 0.1677(2) 0.81501(16) 0.0376 Uani
N13 N 0.3125(2) 0.18585(16) 0.44676(15) 0.0379 Uani
H31 H 0.4200 0.2003 0.5918 0.0560 Uiso
H32 H 0.2927 0.0958 0.5565 0.0560 Uiso
H34 H 0.7085 0.1571 0.7682 0.0740 Uiso
C46 C 0.6758(3) 0.2587(3) 0.8644(2) 0.0628 Uani
N15 N 0.56736(19) 0.25521(16) 0.87929(14) 0.0370 Uani
H35 H 0.3916 0.1449 0.8082 0.0450 Uiso
C47 C 0.1993(3) 0.1366(2) 0.3689(2) 0.0511 Uani
C48 C 0.3795(2) 0.27885(19) 0.42038(17) 0.0360 Uani
H38 H 0.7561 0.3124 0.8992 0.0750 Uiso
Zn6 Zn 0.56073(3) 0.35855(2) 0.987213(18) 0.0361 Uani
C50 C 0.1995(3) 0.2027(2) 0.2967(2) 0.0482 Uani
H39 H 0.1343 0.0703 0.3659 0.0610 Uiso
N18 N 0.31420(19) 0.29177(16) 0.32994(14) 0.0368 Uani
H40 H 0.4607 0.3275 0.4604 0.0430 Uiso
Zn8 Zn 0.36245(2) 0.41338(2) 0.248914(18) 0.0323 Uani
H49 H 0.419168 0.10031 0.366295 . .
H50 H 0.12232 0.187984 0.224786 . .
H1 H 0.7972 0.6759 0.0500 0.0360 Uiso
O3 O 0.61519(18) 0.67199(17) 0.03430(13) 0.0516 Uani
Zn2 Zn 0.43927(3) 0.64145(2) 0.012787(18) 0.0361 Uani
N6 N 0.43264(19) 0.74479(16) 0.12071(14) 0.0370 Uani
O8 O 0.3493(2) 0.49583(16) 0.03322(16) 0.0639 Uani
Zn1 Zn 0.63755(2) 0.58662(2) 0.751086(18) 0.0323 Uani
O1 O 0.68662(18) 0.67272(14) 0.88486(12) 0.0468 Uani
O2 O 0.75679(16) 0.50679(15) 0.76383(12) 0.0418 Uani
N1 N 0.45264(17) 0.48984(17) 0.69844(14) 0.0369 Uani
N2 N 0.68580(19) 0.70823(16) 0.67006(14) 0.0368 Uani
P1 P 0.68831(5) 0.62863(5) 0.98275(4) 0.0346 Uani
C1 C 0.7249(2) 0.44388(19) 0.67848(17) 0.0357 Uani
C2 C 0.3862(2) 0.4171(2) 0.74695(19) 0.0489 Uani
C3 C 0.3739(2) 0.4724(2) 0.60495(16) 0.0365 Uani
C4 C 0.8005(3) 0.7973(2) 0.7033(2) 0.0482 Uani
C5 C 0.6205(2) 0.72115(19) 0.57962(17) 0.0360 Uani
O4 O 0.6507(2) 0.50417(16) 0.96678(16) 0.0639 Uani
O5 O 0.63631(17) 0.44008(16) 0.60213(13) 0.0482 Uani
C6 C 0.8006(2) 0.3748(2) 0.67405(17) 0.0368 Uani
H2 H 0.4172 0.4115 0.8152 0.0590 Uiso
C7 C 0.2694(2) 0.3550(2) 0.6811(2) 0.0470 Uani
N3 N 0.26254(17) 0.39133(16) 0.59101(14) 0.0338 Uani
H3 H 0.3931 0.5116 0.5547 0.0440 Uiso
C8 C 0.8007(3) 0.8634(2) 0.6311(2) 0.0511 Uani
N4 N 0.6875(2) 0.81415(16) 0.55324(15) 0.0379 Uani
H4 H 0.5393 0.6725 0.5396 0.0430 Uiso
S1 S 0.76283(6) 0.29138(5) 0.56100(5) 0.0424 Uani
C9 C 0.8994(2) 0.3617(2) 0.7483(2) 0.0464 Uani
H5 H 0.2063 0.2987 0.6945 0.0560 Uiso
C10 C 0.1499(2) 0.3607(2) 0.49915(17) 0.0383 Uani
H6 H 0.8657 0.9297 0.6341 0.0610 Uiso
C11 C 0.6375(3) 0.8605(2) 0.46389(19) 0.0464 Uani
N5 N 0.34340(19) 0.66858(17) 0.87876(14) 0.0406 Uani
C12 C 0.8780(2) 0.2389(2) 0.6129(2) 0.0464 Uani
H7 H 0.9344 0.4005 0.8147 0.0560 Uiso
C13 C 0.9415(3) 0.2834(3) 0.7127(2) 0.0535 Uani
H8 H 0.0972 0.2830 0.4928 0.0460 Uiso
H9 H 0.1762 0.3682 0.4402 0.0460 Uiso
C14 C 0.07154(19) 0.43319(18) 0.50027(16) 0.0312 Uani
H10 H 0.5800 0.7997 0.4082 0.0560 Uiso
H11 H 0.7073 0.9042 0.4435 0.0560 Uiso
C15 C 0.5675(2) 0.93383(17) 0.48330(16) 0.0322 Uani
C16 C 0.3912(3) 0.7298(2) 0.81383(19) 0.0506 Uani
C17 C 0.2195(2) 0.6378(2) 0.83908(16) 0.0405 Uani
C18 C 0.9000(3) 0.1582(2) 0.5450(3) 0.0581 Uani
C19 C 0.0973(2) 0.50647(18) 0.58691(16) 0.0329 Uani
C21 C 0.5449(2) 0.94387(17) 0.57444(16) 0.0336 Uani
C22 C 0.5219(2) 0.99159(16) 0.40843(15) 0.0300 Uani
C23 C 0.2947(2) 0.7358(2) 0.73619(19) 0.0498 Uani
H13 H 0.4770 0.7621 0.8222 0.0610 Uiso
N7 N 0.18606(18) 0.67792(16) 0.75338(14) 0.0375 Uani
H14 H 0.1625 0.5940 0.8670 0.0490 Uiso
O6 O 0.9813(3) 0.1197(2) 0.5907(3) 0.1017 Uani
O7 O 0.8393(2) 0.14156(19) 0.4514(2) 0.0727 Uani
C25 C 0.5478(2) 0.99064(17) 0.30933(16) 0.0340 Uani
H15 H 0.3008 0.7722 0.6814 0.0600 Uiso
H17 H 0.0029 0.3777 0.2842 0.0520 Uiso
N8 N 0.47711(17) 0.88437(15) 0.23902(13) 0.0321 Uani
C26 C 0.3495(3) 0.8266(3) 0.2079(2) 0.0619 Uani
C27 C 0.5230(2) 0.8323(2) 0.18499(16) 0.0376 Uani
H20 H 0.2915 0.8429 0.2318 0.0740 Uiso
C28 C 0.3242(3) 0.7413(3) 0.1356(2) 0.0628 Uani
H21 H 0.6084 0.8551 0.1918 0.0450 Uiso
H22 H 0.2439 0.6876 0.1008 0.0750 Uiso
C29 C 0.0277(2) 0.57385(18) 0.58754(16) 0.0320 Uani
C33 C 0.0579(2) 0.6543(2) 0.68264(18) 0.0430 Uani
H23 H 0.0496 0.7236 0.6638 0.0520 Uiso
H25 H 0.3619 0.9921 0.6755 0.0410 Uiso
H26 H 0.4737 0.9508 0.7240 0.0410 Uiso
H45 H 0.87768 0.812016 0.775214 . .
H46 H 0.580832 0.89969 0.633705 . .
H47 H 0.174088 0.511103 0.656064 . .
C20 C 0.9723(2) 0.42615(18) 0.41246(16) 0.0320 Uani
C24 C 0.9421(2) 0.3457(2) 0.31736(18) 0.0430 Uani
H16 H 0.9504 0.2764 0.3362 0.0520 Uiso
C30 C 0.9027(2) 0.49353(18) 0.41309(16) 0.0329 Uani
C34 C 0.92846(19) 0.56681(18) 0.49973(16) 0.0312 Uani
N9 N 0.81394(18) 0.32208(16) 0.24662(14) 0.0375 Uani
H24 H 0.9971 0.6223 0.7158 0.0520 Uiso
C37 C 0.8501(2) 0.6393(2) 0.50085(17) 0.0383 Uani
C38 C 0.7053(2) 0.2642(2) 0.26381(19) 0.0498 Uani
C39 C 0.7805(2) 0.3622(2) 0.16092(16) 0.0405 Uani
N11 N 0.73746(17) 0.60867(16) 0.40899(14) 0.0338 Uani
H27 H 0.9028 0.7170 0.5072 0.0460 Uiso
H28 H 0.8238 0.6318 0.5598 0.0460 Uiso
H29 H 0.6992 0.2278 0.3186 0.0600 Uiso
C41 C 0.6088(3) 0.2702(2) 0.18617(19) 0.0506 Uani
N12 N 0.65660(19) 0.33142(17) 0.12124(14) 0.0406 Uani
H30 H 0.8375 0.4060 0.1330 0.0490 Uiso
C44 C 0.7306(2) 0.6450(2) 0.3189(2) 0.0470 Uani
C45 C 0.6261(2) 0.5276(2) 0.39505(16) 0.0365 Uani
H33 H 0.5230 0.2379 0.1778 0.0610 Uiso
C49 C 0.6138(2) 0.5829(2) 0.25305(19) 0.0489 Uani
H36 H 0.7937 0.7013 0.3055 0.0560 Uiso
N16 N 0.54736(17) 0.51016(17) 0.30156(14) 0.0369 Uani
H37 H 0.6069 0.4884 0.4453 0.0440 Uiso
H41 H 0.5828 0.5885 0.1848 0.0590 Uiso
P2 P 0.31169(5) 0.37137(5) 0.01725(4) 0.0346 Uani
O11 O 0.31338(18) 0.32728(14) 0.11514(12) 0.0468 Uani
O12 O 0.24321(16) 0.49321(15) 0.23617(12) 0.0418 Uani
C51 C 0.2751(2) 0.55612(19) 0.32152(17) 0.0357 Uani
O14 O 0.36369(17) 0.55992(16) 0.39787(13) 0.0482 Uani
C52 C 0.1994(2) 0.6252(2) 0.32595(17) 0.0368 Uani
S2 S 0.23717(6) 0.70862(5) 0.43900(5) 0.0424 Uani
C53 C 0.1006(2) 0.6383(2) 0.2517(2) 0.0464 Uani
C54 C 0.1220(2) 0.7611(2) 0.3871(2) 0.0464 Uani
H43 H 0.0656 0.5995 0.1853 0.0560 Uiso
C55 C 0.0585(3) 0.7166(3) 0.2873(2) 0.0535 Uani
C56 C 0.1000(3) 0.8418(2) 0.4550(3) 0.0581 Uani
O15 O 0.0187(3) 0.8803(2) 0.4093(3) 0.1017 Uani
O16 O 0.1607(2) 0.85844(19) 0.5486(2) 0.0727 Uani
H48 H 0.825912 0.488897 0.343936 . .
O9 O 0.38481(18) 0.32801(17) 0.96570(13) 0.0516 Uani
H42 H 0.2028 0.3241 0.9500 0.0360 Uiso
H44 H 0.9931 0.7362 0.2464 0.0640 Uiso
loop_
_atom_site_aniso_label
_atom_site_aniso_U_11
_atom_site_aniso_U_22
_atom_site_aniso_U_33
_atom_site_aniso_U_23
_atom_site_aniso_U_13
_atom_site_aniso_U_12
C31 0.0408 0.0247 0.0229 0.0026 0.0121 0.0091
C32 0.0467 0.0286 0.0255 0.006 0.0122 0.0141
C35 0.0485 0.0278 0.0254 0.0046 0.0153 0.0112
C36 0.044 0.0269 0.028 0.0051 0.0146 0.0139
N10 0.0397 0.033 0.0252 0.0027 0.0143 0.0127
C40 0.0762 0.0496 0.0384 0.0226 0.0328 0.0398
C42 0.0441 0.0635 0.071 -0.0219 0.0329 0.0036
C43 0.0393 0.0472 0.0283 0 0.0108 0.0201
N13 0.0507 0.0361 0.0372 0.0123 0.0202 0.0232
C46 0.0437 0.063 0.0654 -0.0236 0.0262 -0.0025
N15 0.0437 0.0398 0.0279 0.0003 0.0119 0.0171
C47 0.0477 0.0439 0.0624 0.0146 0.0225 0.0137
C48 0.0437 0.0369 0.0314 0.0083 0.0129 0.0195
Zn6 0.04871 0.04164 0.02046 0.00266 0.00795 0.02373
C50 0.0443 0.0479 0.0473 0.0088 0.013 0.0132
N18 0.0431 0.0398 0.0307 0.0096 0.0128 0.0188
Zn8 0.03278 0.03971 0.0249 0.00695 0.0073 0.01611
O3 0.0546 0.0697 0.0345 0.0001 0.0182 0.0263
Zn2 0.04871 0.04164 0.02046 0.00266 0.00795 0.02373
N6 0.0437 0.0398 0.0279 0.0003 0.0119 0.0171
O8 0.0886 0.0459 0.0617 0.0145 0.0356 0.0208
Zn1 0.03278 0.03971 0.0249 0.00695 0.0073 0.01611
O1 0.0644 0.0455 0.0303 0.0033 0.0212 0.0159
O2 0.0447 0.0545 0.0306 0.0037 0.0078 0.0289
N1 0.0316 0.0499 0.0284 0.0092 0.007 0.0168
N2 0.0431 0.0398 0.0307 0.0096 0.0128 0.0188
P1 0.033 0.0416 0.0238 0.0006 0.0072 0.0102
C1 0.0378 0.0412 0.0308 0.0103 0.0128 0.0165
C2 0.0432 0.0676 0.035 0.0249 0.0094 0.0208
C3 0.0323 0.0498 0.0254 0.0077 0.0081 0.0143
C4 0.0443 0.0479 0.0473 0.0088 0.013 0.0132
C5 0.0437 0.0369 0.0314 0.0083 0.0129 0.0195
O4 0.0886 0.0459 0.0617 0.0145 0.0356 0.0208
O5 0.0527 0.0671 0.0307 0.0077 0.0069 0.0363
C6 0.0389 0.044 0.0338 0.0116 0.0158 0.0192
C7 0.0389 0.0561 0.0457 0.0249 0.0137 0.0157
N3 0.0279 0.0417 0.0313 0.0062 0.0059 0.0161
C8 0.0477 0.0439 0.0624 0.0146 0.0225 0.0137
N4 0.0507 0.0361 0.0372 0.0123 0.0202 0.0232
S1 0.0437 0.0429 0.0435 0.0037 0.015 0.02
C9 0.0441 0.0661 0.036 0.0147 0.0138 0.028
C10 0.0321 0.0448 0.0318 -0.0019 0.0016 0.0164
C11 0.0762 0.0496 0.0384 0.0226 0.0328 0.0398
N5 0.0444 0.0466 0.0239 0.0048 0.0037 0.016
C12 0.0421 0.04 0.0648 0.0161 0.0246 0.0179
C13 0.0456 0.0683 0.0627 0.028 0.0236 0.034
C14 0.0253 0.0338 0.0301 0.0048 0.0049 0.0097
C15 0.044 0.0269 0.028 0.0051 0.0146 0.0139
C16 0.0407 0.0553 0.0373 0.0107 0.0036 0.0034
C17 0.045 0.0483 0.0235 0.0032 0.0084 0.0149
C18 0.0517 0.0413 0.096 0.0158 0.0366 0.0244
C19 0.0296 0.0375 0.0262 0.0044 0.0033 0.0117
C21 0.0467 0.0286 0.0255 0.006 0.0122 0.0141
C22 0.0408 0.0247 0.0229 0.0026 0.0121 0.0091
C23 0.0483 0.0443 0.0339 0.0121 0 0.0013
N7 0.0388 0.0383 0.0254 0.0002 0.0013 0.0118
O6 0.098 0.0836 0.138 0.0029 0.0273 0.0663
O7 0.0751 0.0654 0.0791 -0.0088 0.0261 0.0315
C25 0.0485 0.0278 0.0254 0.0046 0.0153 0.0112
N8 0.0397 0.033 0.0252 0.0027 0.0143 0.0127
C26 0.0441 0.0635 0.071 -0.0219 0.0329 0.0036
C27 0.0393 0.0472 0.0283 0 0.0108 0.0201
C28 0.0437 0.063 0.0654 -0.0236 0.0262 -0.0025
C29 0.0286 0.0347 0.0262 0.0013 0.0043 0.0088
C33 0.0375 0.0514 0.0308 -0.005 -0.0023 0.0198
C20 0.0286 0.0347 0.0262 0.0013 0.0043 0.0088
C24 0.0375 0.0514 0.0308 -0.005 -0.0023 0.0198
C30 0.0296 0.0375 0.0262 0.0044 0.0033 0.0117
C34 0.0253 0.0338 0.0301 0.0048 0.0049 0.0097
N9 0.0388 0.0383 0.0254 0.0002 0.0013 0.0118
C37 0.0321 0.0448 0.0318 -0.0019 0.0016 0.0164
C38 0.0483 0.0443 0.0339 0.0121 0 0.0013
C39 0.045 0.0483 0.0235 0.0032 0.0084 0.0149
N11 0.0279 0.0417 0.0313 0.0062 0.0059 0.0161
C41 0.0407 0.0553 0.0373 0.0107 0.0036 0.0034
N12 0.0444 0.0466 0.0239 0.0048 0.0037 0.016
C44 0.0389 0.0561 0.0457 0.0249 0.0137 0.0157
C45 0.0323 0.0498 0.0254 0.0077 0.0081 0.0143
C49 0.0432 0.0676 0.035 0.0249 0.0094 0.0208
N16 0.0316 0.0499 0.0284 0.0092 0.007 0.0168
P2 0.033 0.0416 0.0238 0.0006 0.0072 0.0102
O11 0.0644 0.0455 0.0303 0.0033 0.0212 0.0159
O12 0.0447 0.0545 0.0306 0.0037 0.0078 0.0289
C51 0.0378 0.0412 0.0308 0.0103 0.0128 0.0165
O14 0.0527 0.0671 0.0307 0.0077 0.0069 0.0363
C52 0.0389 0.044 0.0338 0.0116 0.0158 0.0192
S2 0.0437 0.0429 0.0435 0.0037 0.015 0.02
C53 0.0441 0.0661 0.036 0.0147 0.0138 0.028
C54 0.0421 0.04 0.0648 0.0161 0.0246 0.0179
C55 0.0456 0.0683 0.0627 0.028 0.0236 0.034
C56 0.0517 0.0413 0.096 0.0158 0.0366 0.0244
O15 0.098 0.0836 0.138 0.0029 0.0273 0.0663
O16 0.0751 0.0654 0.0791 -0.0088 0.0261 0.0315
O9 0.0546 0.0697 0.0345 0.0001 0.0182 0.0263
loop_
_geom_bond_atom_site_label_1
_geom_bond_atom_site_label_2
_geom_bond_site_symmetry_1
_geom_bond_site_symmetry_2
C35 C31 1_555 1_555
C36 C31 1_555 1_555
N10 C35 1_555 1_555
C40 C36 1_555 1_555
C42 N10 1_555 1_555
C43 N10 1_555 1_555
N13 C40 1_555 1_555
H31 C40 1_555 1_555
H32 C40 1_555 1_555
H34 C42 1_555 1_555
C46 C42 1_555 1_555
N15 C43 1_555 1_555
H35 C43 1_555 1_555
C47 N13 1_555 1_555
C48 N13 1_555 1_555
H38 C46 1_555 1_555
Zn6 N15 1_555 1_555
C50 C47 1_555 1_555
H39 C47 1_555 1_555
N18 C48 1_555 1_555
H40 C48 1_555 1_555
Zn8 N18 1_555 1_555
C32 C36 1_555 1_555
C46 N15 1_555 1_555
C50 N18 1_555 1_555
C32 H49 1_555 1_555
C50 H50 1_555 1_555
Zn2 O3 1_555 1_555
N6 Zn2 1_555 1_555
O8 Zn2 1_555 1_555
Zn1 O1 1_555 1_555
O1 P1 1_555 1_555
O2 Zn1 1_555 1_555
N1 Zn1 1_555 1_555
N2 Zn1 1_555 1_555
C1 O2 1_555 1_555
C2 N1 1_555 1_555
C3 N1 1_555 1_555
C4 N2 1_555 1_555
C5 N2 1_555 1_555
O4 P1 1_555 1_555
O5 C1 1_555 1_555
C6 C1 1_555 1_555
H2 C2 1_555 1_555
C7 C2 1_555 1_555
N3 C3 1_555 1_555
H3 C3 1_555 1_555
C8 C4 1_555 1_555
N4 C5 1_555 1_555
H4 C5 1_555 1_555
S1 C6 1_555 1_555
C9 C6 1_555 1_555
H5 C7 1_555 1_555
C10 N3 1_555 1_555
H6 C8 1_555 1_555
C11 N4 1_555 1_555
C12 S1 1_555 1_555
H7 C9 1_555 1_555
C13 C9 1_555 1_555
H8 C10 1_555 1_555
H9 C10 1_555 1_555
C14 C10 1_555 1_555
H10 C11 1_555 1_555
H11 C11 1_555 1_555
C15 C11 1_555 1_555
C16 N5 1_555 1_555
C17 N5 1_555 1_555
C18 C12 1_555 1_555
C19 C14 1_555 1_555
C21 C15 1_555 1_555
C22 C15 1_555 1_555
C23 C16 1_555 1_555
H13 C16 1_555 1_555
N7 C17 1_555 1_555
H14 C17 1_555 1_555
O6 C18 1_555 1_555
O7 C18 1_555 1_555
C25 C22 1_555 1_555
H15 C23 1_555 1_555
N8 C25 1_555 1_555
C26 N8 1_555 1_555
C27 N8 1_555 1_555
H20 C26 1_555 1_555
C28 C26 1_555 1_555
H21 C27 1_555 1_555
H22 C28 1_555 1_555
Zn6 O4 1_555 1_555
C29 C19 1_555 1_555
C33 N7 1_555 1_555
H23 C33 1_555 1_555
N6 C27 1_555 1_555
C7 N3 1_555 1_555
C8 N4 1_555 1_555
C12 C13 1_555 1_555
C23 N7 1_555 1_555
C28 N6 1_555 1_555
C29 C33 1_555 1_555
C4 H45 1_555 1_555
C21 H46 1_555 1_555
C19 H47 1_555 1_555
C24 C20 1_555 1_555
H16 C24 1_555 1_555
C30 C20 1_555 1_555
N9 C24 1_555 1_555
C37 C34 1_555 1_555
C38 N9 1_555 1_555
C39 N9 1_555 1_555
N11 C37 1_555 1_555
H27 C37 1_555 1_555
H28 C37 1_555 1_555
H29 C38 1_555 1_555
C41 C38 1_555 1_555
N12 C39 1_555 1_555
H30 C39 1_555 1_555
C44 N11 1_555 1_555
C45 N11 1_555 1_555
H33 C41 1_555 1_555
C49 C44 1_555 1_555
H36 C44 1_555 1_555
N16 C45 1_555 1_555
H37 C45 1_555 1_555
H41 C49 1_555 1_555
Zn8 N16 1_555 1_555
O11 Zn8 1_555 1_555
O12 Zn8 1_555 1_555
O8 P2 1_555 1_555
C51 O12 1_555 1_555
O14 C51 1_555 1_555
C52 C51 1_555 1_555
S2 C52 1_555 1_555
C53 C52 1_555 1_555
C54 S2 1_555 1_555
H43 C53 1_555 1_555
C55 C53 1_555 1_555
C56 C54 1_555 1_555
O15 C56 1_555 1_555
O16 C56 1_555 1_555
C30 C34 1_555 1_555
C41 N12 1_555 1_555
C49 N16 1_555 1_555
P2 O11 1_555 1_555
C54 C55 1_555 1_555
C30 H48 1_555 1_555
O9 Zn6 1_555 1_555

#END
