
###############################################################################
#
# This file contains modified crystal structure data generated from the
# MOF subset of the Cambridge Structural Database (CSD) v543 
# hosted by the Cambridge Crystallographic Data Centre (CCDC).
#
# This work is licensed under the Creative Commons
# Attribution-NonCommercial-ShareAlike 4.0 International License.
# To view a copy of this license, visit
# http://creativecommons.org/licenses/by-nc-sa/4.0/
# or send a letter to
# Creative Commons, PO Box 1866, Mountain View, CA 94042, USA.
#
# CIF created using the CSD Python API on 29 September 2022
# The structure has been converted into the P1 space group
# The structure has a 3D framework
# The original CSD entry YEKFEC is in the monoclinic crystal system
# The framework has been calculated to contain at least 10.0% void space
# The void calculation uses a probe of radius 1.32A, grid spacing 0.4
#
###############################################################################

data_YEKFEC
_chemical_formula_moiety         '(C104 H84 Co4 N16 O20)n'
_symmetry_cell_setting           triclinic
_symmetry_space_group_name_H-M   'P 1'
_symmetry_Int_Tables_number      1
_space_group_name_Hall           'P 1'
loop_
_symmetry_equiv_pos_site_id
_symmetry_equiv_pos_as_xyz
1 x,y,z
_cell_length_a                   8.9800(8)
_cell_length_b                   16.8759(15)
_cell_length_c                   18.3961(16)
_cell_angle_alpha                90
_cell_angle_beta                 105.742(2)
_cell_angle_gamma                90
_cell_volume                     2683.28
loop_
_atom_site_label
_atom_site_type_symbol
_atom_site_fract_x
_atom_site_fract_y
_atom_site_fract_z
O6 O 0.3691(11) 0.7166(6) 0.3944(5)
O7 O 0.1635(11) 0.6470(6) 0.3329(6)
O8 O 0.4741(11) 0.7464(5) 0.6700(4)
O9 O 0.2884(10) 0.7207(5) 0.7248(5)
C41 C 0.2536(19) 0.6783(9) 0.3886(8)
C42 C 0.3446(19) 0.7178(8) 0.6649(9)
C43 C 0.1998(18) 0.6694(8) 0.4607(8)
C44 C 0.2927(15) 0.6987(7) 0.5283(8)
H36 H 0.3851 0.7243 0.5297
C45 C 0.2466(17) 0.6894(9) 0.5935(9)
C46 C 0.1079(18) 0.6533(8) 0.5930(8)
H37 H 0.0789 0.6473 0.6376
C47 C 0.014(2) 0.6264(9) 0.5255(10)
C48 C 0.063(2) 0.6305(9) 0.4609(9)
H38 H 0.0039 0.6070 0.4168
Co3 Co 0.42976(18) 0.78777(11) 0.80171(10)
Co5 Co 0.42976(18) 0.71223(11) 0.30171(10)
C26 C 0.5547(18) 0.4241(9) 0.0291(12)
H21 H 0.5911 0.3742 0.0469
N7 N 0.561(2) 0.5097(10) 0.2110(8)
N8 N 0.4651(17) 0.6050(8) 0.2646(7)
C34 C 0.5801(18) 0.5854(11) 0.2373(8)
H29 H 0.6626 0.6182 0.2361
C35 C 0.370(2) 0.5415(14) 0.2488(9)
H30 H 0.2734 0.5399 0.2585
C36 C 0.429(3) 0.4798(11) 0.2171(10)
H31 H 0.3874 0.4299 0.2033
C37 C 0.6434(17) 0.4751(9) 0.1588(10)
H32 H 0.7467 0.4975 0.1709
H33 H 0.6542 0.4186 0.1683
C38 C 0.5683(17) 0.4876(12) 0.0756(10)
C39 C 0.5166(19) 0.5619(11) 0.0464(11)
H34 H 0.5309 0.6045 0.0796
C19 C 0.870(3) 0.9723(19) 0.4761(12)
H14 H 0.7680 0.9546 0.4611
N5 N 0.8433(16) 0.7991(8) 0.4319(8)
N6 N 0.6412(15) 0.7615(7) 0.3456(7)
C27 C 0.7066(19) 0.7788(8) 0.4172(9)
H22 H 0.6531 0.7759 0.4539
C28 C 0.756(2) 0.7788(9) 0.3137(9)
H23 H 0.7484 0.7730 0.2625
C29 C 0.8819(19) 0.8051(10) 0.3648(11)
H24 H 0.9740 0.8232 0.3568
C30 C 0.9420(18) 0.8306(12) 0.5096(9)
H26 H 0.8871 0.8224 0.5477
C31 C 0.972(2) 0.9166(15) 0.5024(10)
O12 O 0.2884(10) 0.7793(5) 0.2248(5)
O3 O 0.4741(11) 0.7536(5) 0.1700(4)
C2 C 0.3446(19) 0.7822(8) 0.1649(9)
C4 C 0.2927(15) 0.8013(7) 0.0283(8)
H1 H 0.3851 0.7757 0.0297
C5 C 0.2466(17) 0.8106(9) 0.0935(9)
C6 C 0.1079(18) 0.8467(8) 0.0930(8)
H2 H 0.0789 0.8527 0.1376
C7 C 0.014(2) 0.8736(9) 0.0255(10)
C16 C 0.9420(18) 0.6694(12) 0.0096(9)
H12 H 0.8871 0.6776 0.0477
C17 C 0.972(2) 0.5834(15) 0.0024(10)
N1 N 0.8433(16) 0.7009(8) 0.9319(8)
N2 N 0.6412(15) 0.7385(7) 0.8456(7)
N3 N 0.561(2) 0.9903(10) 0.7110(8)
N4 N 0.4651(17) 0.8950(8) 0.7646(7)
O1 O 0.3691(11) 0.7834(6) 0.8944(5)
O2 O 0.1635(11) 0.8530(6) 0.8329(6)
C1 C 0.2536(19) 0.8217(9) 0.8886(8)
C3 C 0.1998(18) 0.8306(8) 0.9607(8)
C8 C 0.063(2) 0.8695(9) 0.9609(9)
H3 H 0.0039 0.8930 0.9168
C13 C 0.7066(19) 0.7212(8) 0.9172(9)
H8 H 0.6531 0.7241 0.9539
C14 C 0.756(2) 0.7212(9) 0.8137(9)
H9 H 0.7484 0.7270 0.7625
C15 C 0.8819(19) 0.6949(10) 0.8648(11)
H10 H 0.9740 0.6768 0.8568
C20 C 0.5801(18) 0.9146(11) 0.7373(8)
H15 H 0.6626 0.8818 0.7361
C21 C 0.370(2) 0.9585(14) 0.7488(9)
H16 H 0.2734 0.9601 0.7585
C25 C 0.5166(19) 0.9381(11) 0.5464(11)
H20 H 0.5309 0.8955 0.5796
C26_2 C 0.4453(18) 0.9241(9) 0.4709(12)
H21_2 H 0.4089 0.8742 0.4531
H25 H 0.9607 0.3021 0.9751
C32 C 0.886(3) 0.4474(18) 0.9664(12)
H27 H 0.8040 0.4161 0.9400
C33 C 0.870(3) 0.5277(19) 0.9761(12)
H28 H 0.7680 0.5454 0.9611
C36_2 C 0.571(3) 0.9798(11) 0.2829(10)
H31_2 H 0.6126 0.9299 0.2967
C37_2 C 0.3566(17) 0.9751(9) 0.3412(10)
H32_2 H 0.2533 0.9975 0.3291
H33_2 H 0.3458 0.9186 0.3317
C38_2 C 0.4317(17) 0.9876(12) 0.4244(10)
O5 O 0.1233(14) 0.4053(6) 0.4668(5)
C9 C 0.2297(17) 0.4381(9) 0.5372(8)
H4 H 0.2598 0.3973 0.5755
H5 H 0.1804 0.4810 0.5570
C10 C 0.367(2) 0.4677(10) 0.5142(12)
C11 C 0.472(2) 0.5128(10) 0.5685(10)
H6 H 0.4569 0.5224 0.6158
C12 C 0.598(2) 0.5425(10) 0.5486(13)
H7 H 0.6665 0.5734 0.5846
O10 O 0.8767(14) 0.5947(6) 0.5332(5)
C49 C 0.7703(17) 0.5619(9) 0.4628(8)
H39 H 0.7402 0.6027 0.4245
H40 H 0.8196 0.5190 0.4430
C50 C 0.633(2) 0.5323(10) 0.4858(12)
C51 C 0.528(2) 0.4872(10) 0.4315(10)
H41 H 0.5431 0.4776 0.3842
C52 C 0.402(2) 0.4575(10) 0.4514(13)
H42 H 0.3335 0.4266 0.4154
Co1 Co 0.57024(18) 0.28777(11) 0.69829(10)
N1_2 N 0.1567(16) 0.2009(8) 0.5681(8)
N2_2 N 0.3588(15) 0.2385(7) 0.6544(7)
N3_2 N 0.439(2) 0.4903(10) 0.7890(8)
N4_2 N 0.5349(17) 0.3950(8) 0.7354(7)
O1_2 O 0.6309(11) 0.2834(6) 0.6056(5)
O2_2 O 0.8365(11) 0.3530(6) 0.6671(6)
O3_2 O 0.5259(11) 0.2536(5) 0.3300(4)
O4 O 0.7116(10) 0.2793(5) 0.2752(5)
C1_2 C 0.7464(19) 0.3217(9) 0.6114(8)
C2_2 C 0.6554(19) 0.2822(8) 0.3351(9)
C3_2 C 0.8002(18) 0.3306(8) 0.5393(8)
C4_2 C 0.7073(15) 0.3013(7) 0.4717(8)
H1_2 H 0.6149 0.2757 0.4703
C5_2 C 0.7534(17) 0.3106(9) 0.4065(9)
C6_2 C 0.8921(18) 0.3467(8) 0.4070(8)
H2_2 H 0.9211 0.3527 0.3624
C7_2 C 0.986(2) 0.3736(9) 0.4745(10)
C8_2 C 0.937(2) 0.3695(9) 0.5391(9)
H3_2 H 0.9961 0.3930 0.5832
C13_2 C 0.2934(19) 0.2212(8) 0.5828(9)
H8_2 H 0.3469 0.2241 0.5461
C14_2 C 0.244(2) 0.2212(9) 0.6863(9)
H9_2 H 0.2516 0.2270 0.7375
C15_2 C 0.1181(19) 0.1949(10) 0.6352(11)
H10_2 H 0.0260 0.1768 0.6432
C16_2 C 0.0580(18) 0.1694(12) 0.4904(9)
H12_2 H 0.1129 0.1776 0.4523
C17_2 C 0.028(2) 0.0834(15) 0.4976(10)
C20_2 C 0.4199(18) 0.4146(11) 0.7627(8)
H15_2 H 0.3374 0.3818 0.7639
C21_2 C 0.630(2) 0.4585(14) 0.7512(9)
H16_2 H 0.7266 0.4601 0.7415
C22 C 0.571(3) 0.5202(11) 0.7829(10)
H17 H 0.6126 0.5701 0.7967
C23 C 0.3566(17) 0.5249(9) 0.8412(10)
H18 H 0.2533 0.5025 0.8291
H19 H 0.3458 0.5814 0.8317
C24 C 0.4317(17) 0.5124(12) 0.9244(10)
C25_2 C 0.4834(19) 0.4381(11) 0.9536(11)
H20_2 H 0.4691 0.3955 0.9204
C33_2 C 0.130(3) 0.0277(19) 0.5239(12)
H28_2 H 0.2320 0.0454 0.5389
C40 C 0.4453(18) 0.5759(9) 0.9709(12)
H35 H 0.4089 0.6258 0.9531
Co6 Co 0.57024(18) 0.21223(11) 0.19829(10)
O13 O 0.7116(10) 0.2207(5) 0.7752(5)
H11 H 0.0393 0.6979 0.0249
C18 C 0.114(3) 0.5526(18) 0.0336(12)
H13 H 0.1960 0.5839 0.0600
C19_2 C 0.130(3) 0.4723(19) 0.0239(12)
H14_2 H 0.2320 0.4546 0.0389
N5_2 N 0.1567(16) 0.2991(8) 0.0681(8)
N6_2 N 0.3588(15) 0.2615(7) 0.1544(7)
C27_2 C 0.2934(19) 0.2788(8) 0.0828(9)
H22_2 H 0.3469 0.2759 0.0461
C28_2 C 0.244(2) 0.2788(9) 0.1863(9)
H23_2 H 0.2516 0.2730 0.2375
C29_2 C 0.1181(19) 0.3051(10) 0.1352(11)
H24_2 H 0.0260 0.3232 0.1432
N9 N 0.5349(17) 0.1050(8) 0.2354(7)
O11 O 0.6309(11) 0.2166(6) 0.1056(5)
C30_2 C 0.0580(18) 0.3306(12) 0.9904(9)
H26_2 H 0.1129 0.3224 0.9523
C31_2 C 0.028(2) 0.4166(15) 0.9976(10)
C22_2 C 0.429(3) 0.0202(11) 0.7171(10)
H17_2 H 0.3874 0.0701 0.7033
C23_2 C 0.6434(17) 0.0249(9) 0.6588(10)
H18_2 H 0.7467 0.0025 0.6709
H19_2 H 0.6542 0.0814 0.6683
C24_2 C 0.5683(17) 0.0124(12) 0.5756(10)
N7_2 N 0.439(2) 0.0097(10) 0.2890(8)
C34_2 C 0.4199(18) 0.0854(11) 0.2627(8)
H29_2 H 0.3374 0.1182 0.2639
C35_2 C 0.630(2) 0.0415(14) 0.2512(9)
H30_2 H 0.7266 0.0399 0.2415
C39_2 C 0.4834(19) 0.0619(11) 0.4536(11)
H34_2 H 0.4691 0.1045 0.4204
C40_2 C 0.5547(18) 0.0759(9) 0.5291(12)
H35_2 H 0.5911 0.1258 0.5469
O7_2 O 0.8365(11) 0.1470(6) 0.1671(6)
C41_2 C 0.7464(19) 0.1783(9) 0.1114(8)
C43_2 C 0.8002(18) 0.1694(8) 0.0393(8)
C48_2 C 0.937(2) 0.1305(9) 0.0391(9)
H38_2 H 0.9961 0.1070 0.0832
O8_2 O 0.5259(11) 0.2464(5) 0.8300(4)
C42_2 C 0.6554(19) 0.2178(8) 0.8351(9)
C44_2 C 0.7073(15) 0.1987(7) 0.9717(8)
H36_2 H 0.6149 0.2243 0.9703
C45_2 C 0.7534(17) 0.1894(9) 0.9065(9)
C46_2 C 0.8921(18) 0.1533(8) 0.9070(8)
H37_2 H 0.9211 0.1473 0.8624
C47_2 C 0.986(2) 0.1264(9) 0.9745(10)
H25_2 H 0.0393 0.8021 0.5249
C32_2 C 0.114(3) 0.9474(18) 0.5336(12)
H27_2 H 0.1960 0.9161 0.5600
H11_2 H 0.9607 0.1979 0.4751
C18_2 C 0.886(3) 0.0526(18) 0.4664(12)
H13_2 H 0.8040 0.0839 0.4400
C49_2 C 0.2297(17) 0.0619(9) 0.0372(8)
H39_2 H 0.2598 0.1027 0.0755
H40_2 H 0.1804 0.0190 0.0570
C50_2 C 0.367(2) 0.0323(10) 0.0142(12)
C11_2 C 0.528(2) 0.0128(10) 0.9315(10)
H6_2 H 0.5431 0.0224 0.8842
C12_2 C 0.402(2) 0.0425(10) 0.9514(13)
H7_2 H 0.3335 0.0734 0.9154
O10_2 O 0.1233(14) 0.0947(6) 0.9668(5)
O5_2 O 0.8767(14) 0.9053(6) 0.0332(5)
C51_2 C 0.472(2) 0.9872(10) 0.0685(10)
H41_2 H 0.4569 0.9776 0.1158
C52_2 C 0.598(2) 0.9575(10) 0.0486(13)
H42_2 H 0.6665 0.9266 0.0846
C9_2 C 0.7703(17) 0.9381(9) 0.9628(8)
H4_2 H 0.7402 0.8973 0.9245
H5_2 H 0.8196 0.9810 0.9430
C10_2 C 0.633(2) 0.9677(10) 0.9858(12)
loop_
_geom_bond_atom_site_label_1
_geom_bond_atom_site_label_2
_geom_bond_site_symmetry_1
_geom_bond_site_symmetry_2
O6 C41 1_555 1_555
O7 C41 1_555 1_555
O8 C42 1_555 1_555
O9 C42 1_555 1_555
C41 C43 1_555 1_555
C42 C45 1_555 1_555
C43 C44 1_555 1_555
C44 H36 1_555 1_555
C45 C44 1_555 1_555
C46 C45 1_555 1_555
H37 C46 1_555 1_555
C47 C46 1_555 1_555
C48 C43 1_555 1_555
H38 C48 1_555 1_555
Co3 O9 1_555 1_555
Co5 O6 1_555 1_555
C47 C48 1_555 1_555
H21 C26 1_555 1_555
N7 C34 1_555 1_555
N8 C34 1_555 1_555
C34 H29 1_555 1_555
C35 N8 1_555 1_555
H30 C35 1_555 1_555
C36 N7 1_555 1_555
H31 C36 1_555 1_555
C37 N7 1_555 1_555
H32 C37 1_555 1_555
H33 C37 1_555 1_555
C38 C26 1_555 1_555
C39 C38 1_555 1_555
H34 C39 1_555 1_555
Co5 N8 1_555 1_555
C35 C36 1_555 1_555
C37 C38 1_555 1_555
H14 C19 1_555 1_555
N5 C27 1_555 1_555
N6 C27 1_555 1_555
C27 H22 1_555 1_555
C28 N6 1_555 1_555
H23 C28 1_555 1_555
C29 N5 1_555 1_555
H24 C29 1_555 1_555
C30 N5 1_555 1_555
H26 C30 1_555 1_555
C31 C19 1_555 1_555
Co5 N6 1_555 1_555
O12 Co5 1_555 1_555
C28 C29 1_555 1_555
C30 C31 1_555 1_555
O3 C2 1_555 1_555
O12 C2 1_555 1_555
C2 C5 1_555 1_555
H1 C4 1_555 1_555
C5 C4 1_555 1_555
C6 C5 1_555 1_555
H2 C6 1_555 1_555
C7 C6 1_555 1_555
H12 C16 1_555 1_555
C17 C16 1_555 1_555
Co3 N2 1_555 1_555
N1 C13 1_555 1_555
N2 C13 1_555 1_555
N3 C20 1_555 1_555
N4 Co3 1_555 1_555
O1 Co3 1_555 1_555
O2 C1 1_555 1_555
C1 O1 1_555 1_555
C3 C1 1_555 1_555
C8 C3 1_555 1_555
H3 C8 1_555 1_555
C13 H8 1_555 1_555
C14 N2 1_555 1_555
H9 C14 1_555 1_555
C15 N1 1_555 1_555
H10 C15 1_555 1_555
C20 N4 1_555 1_555
H15 C20 1_555 1_555
C21 N4 1_555 1_555
H16 C21 1_555 1_555
H20 C25 1_555 1_555
C26_2 C25 1_555 1_555
H21_2 C26_2 1_555 1_555
H27 C32 1_555 1_555
H28 C33 1_555 1_555
H31_2 C36_2 1_555 1_555
H32_2 C37_2 1_555 1_555
H33_2 C37_2 1_555 1_555
C38_2 C26_2 1_555 1_555
C14 C15 1_555 1_555
C32 C33 1_555 1_555
C37_2 C38_2 1_555 1_555
C9 O5 1_555 1_555
H4 C9 1_555 1_555
H5 C9 1_555 1_555
C10 C9 1_555 1_555
C11 C10 1_555 1_555
H6 C11 1_555 1_555
C12 C11 1_555 1_555
H7 C12 1_555 1_555
C49 O10 1_555 1_555
H39 C49 1_555 1_555
H40 C49 1_555 1_555
C50 C12 1_555 1_555
C51 C50 1_555 1_555
H41 C51 1_555 1_555
C52 C10 1_555 1_555
H42 C52 1_555 1_555
C49 C50 1_555 1_555
C51 C52 1_555 1_555
Co1 N2_2 1_555 1_555
N1_2 C13_2 1_555 1_555
N2_2 C13_2 1_555 1_555
N3_2 C20_2 1_555 1_555
N4_2 Co1 1_555 1_555
O1_2 Co1 1_555 1_555
O2_2 C1_2 1_555 1_555
O3_2 C2_2 1_555 1_555
O4 C2_2 1_555 1_555
C1_2 O1_2 1_555 1_555
C2_2 C5_2 1_555 1_555
C3_2 C1_2 1_555 1_555
C4_2 C3_2 1_555 1_555
H1_2 C4_2 1_555 1_555
C5_2 C4_2 1_555 1_555
C6_2 C5_2 1_555 1_555
H2_2 C6_2 1_555 1_555
C7_2 C6_2 1_555 1_555
C8_2 C3_2 1_555 1_555
H3_2 C8_2 1_555 1_555
C13_2 H8_2 1_555 1_555
C14_2 N2_2 1_555 1_555
H9_2 C14_2 1_555 1_555
C15_2 N1_2 1_555 1_555
H10_2 C15_2 1_555 1_555
C16_2 N1_2 1_555 1_555
H12_2 C16_2 1_555 1_555
C17_2 C16_2 1_555 1_555
C20_2 N4_2 1_555 1_555
H15_2 C20_2 1_555 1_555
C21_2 N4_2 1_555 1_555
H16_2 C21_2 1_555 1_555
C22 N3_2 1_555 1_555
H17 C22 1_555 1_555
C23 N3_2 1_555 1_555
H18 C23 1_555 1_555
H19 C23 1_555 1_555
C24 C23 1_555 1_555
C25_2 C24 1_555 1_555
H20_2 C25_2 1_555 1_555
C33_2 C17_2 1_555 1_555
H28_2 C33_2 1_555 1_555
C40 C24 1_555 1_555
H35 C40 1_555 1_555
Co6 O4 1_555 1_555
O13 Co1 1_555 1_555
C7_2 C8_2 1_555 1_555
C14_2 C15_2 1_555 1_555
C21_2 C22 1_555 1_555
H13 C18 1_555 1_555
C19_2 C18 1_555 1_555
H14_2 C19_2 1_555 1_555
N5_2 C27_2 1_555 1_555
N6_2 C27_2 1_555 1_555
C27_2 H22_2 1_555 1_555
C28_2 N6_2 1_555 1_555
H23_2 C28_2 1_555 1_555
C29_2 N5_2 1_555 1_555
H24_2 C29_2 1_555 1_555
Co6 N6_2 1_555 1_555
N9 Co6 1_555 1_555
O11 Co6 1_555 1_555
C28_2 C29_2 1_555 1_555
H26_2 C30_2 1_555 1_555
C30_2 C31_2 1_555 1_555
H17_2 C22_2 1_555 1_555
H18_2 C23_2 1_555 1_555
H19_2 C23_2 1_555 1_555
C24_2 C23_2 1_555 1_555
N7_2 C34_2 1_555 1_555
N9 C34_2 1_555 1_555
C34_2 H29_2 1_555 1_555
C35_2 N9 1_555 1_555
H30_2 C35_2 1_555 1_555
H34_2 C39_2 1_555 1_555
C40_2 C24_2 1_555 1_555
H35_2 C40_2 1_555 1_555
C39_2 C40_2 1_555 1_555
O11 C41_2 1_555 1_555
O7_2 C41_2 1_555 1_555
C41_2 C43_2 1_555 1_555
C48_2 C43_2 1_555 1_555
H38_2 C48_2 1_555 1_555
O8_2 C42_2 1_555 1_555
O13 C42_2 1_555 1_555
C42_2 C45_2 1_555 1_555
C44_2 H36_2 1_555 1_555
C45_2 C44_2 1_555 1_555
C46_2 C45_2 1_555 1_555
H37_2 C46_2 1_555 1_555
C47_2 C46_2 1_555 1_555
H27_2 C32_2 1_555 1_555
H13_2 C18_2 1_555 1_555
H39_2 C49_2 1_555 1_555
H40_2 C49_2 1_555 1_555
C49_2 C50_2 1_555 1_555
H6_2 C11_2 1_555 1_555
C12_2 C11_2 1_555 1_555
H7_2 C12_2 1_555 1_555
H41_2 C51_2 1_555 1_555
H42_2 C52_2 1_555 1_555
C51_2 C52_2 1_555 1_555
H4_2 C9_2 1_555 1_555
H5_2 C9_2 1_555 1_555
C10_2 C9_2 1_555 1_555

#END
