
###############################################################################
#
# This file contains modified crystal structure data generated from the
# MOF subset of the Cambridge Structural Database (CSD) v543 
# hosted by the Cambridge Crystallographic Data Centre (CCDC).
#
# This work is licensed under the Creative Commons
# Attribution-NonCommercial-ShareAlike 4.0 International License.
# To view a copy of this license, visit
# http://creativecommons.org/licenses/by-nc-sa/4.0/
# or send a letter to
# Creative Commons, PO Box 1866, Mountain View, CA 94042, USA.
#
# CIF created using the CSD Python API on 29 September 2022
# The structure has been converted into the P1 space group
# The structure has a 3D framework
# The original CSD entry YEKWEU is in the orthorhombic crystal system
# The framework has been calculated to contain at least 10.0% void space
# The void calculation uses a probe of radius 1.32A, grid spacing 0.4
# The framework is charged, counterions have been retained in the structure
#
###############################################################################

data_YEKWEU
_chemical_formula_moiety         '(C104 H28 F32 N20 O40 Zn16 2-)n'
_symmetry_cell_setting           triclinic
_symmetry_space_group_name_H-M   'P 1'
_symmetry_Int_Tables_number      1
_space_group_name_Hall           'P 1'
loop_
_symmetry_equiv_pos_site_id
_symmetry_equiv_pos_as_xyz
1 x,y,z
_cell_length_a                   14.5092(6)
_cell_length_b                   16.9949(7)
_cell_length_c                   17.3457(7)
_cell_angle_alpha                90
_cell_angle_beta                 90
_cell_angle_gamma                90
_cell_volume                     4277.14
loop_
_atom_site_label
_atom_site_type_symbol
_atom_site_fract_x
_atom_site_fract_y
_atom_site_fract_z
Zn1 Zn 0.500000 0.000000 0.39572(10)
Zn2 Zn 0.89445(10) 0.000000 0.500000
C2 C 0.6993(7) 0.000000 0.4378(5)
C3 C 0.7295(8) 0.000000 0.3540(6)
H1 H 0.797004 -0.000000 0.351394
N1 N 0.6120(5) 0.000000 0.4613(4)
N2 N 0.7564(6) 0.000000 0.500000
C11 C 0.6993(7) -0.000000 0.5622(5)
C12 C 0.7295(8) 0.000000 0.6460(6)
H3 H 0.797004 0.000000 0.648606
H4 H 0.705554 0.047083 0.671682
N3 N 0.6120(5) 0.000000 0.5387(4)
H6 H 0.705554 0.047083 0.328318
C13 C 0.500000 0.1537(10) 0.3442(9)
O5 O 0.500000 0.1746(7) 0.4126(7)
O6 O 0.500000 0.0848(6) 0.3215(5)
C14 C 0.500000 0.3942(5) 0.1027(5)
O7 O 0.5748(4) 0.4192(5) 0.0830(4)
F5 F 0.6511(12) 0.1855(13) 0.2461(13)
F6 F 0.6512(10) 0.2954(11) 0.1380(12)
C15 C 0.5754(7) 0.3050(10) 0.1969(10)
C16 C 0.5745(9) 0.2494(9) 0.2535(10)
C17 C 0.500000 0.2179(8) 0.2821(8)
C18 C 0.500000 0.3329(7) 0.1653(7)
F7 F 0.3489(12) 0.1855(13) 0.2461(13)
F8 F 0.3488(10) 0.2954(11) 0.1380(12)
C19 C 0.4246(7) 0.3050(10) 0.1969(10)
C20 C 0.4255(9) 0.2494(9) 0.2535(10)
O8 O 0.4252(4) 0.4192(5) 0.0830(4)
Zn3 Zn 0.500000 -0.000000 0.60428(10)
Zn5 Zn 0.39445(10) 0.500000 0.000000
Zn7 Zn 0.60555(10) 0.500000 0.000000
N4 N 0.3880(5) 0.000000 0.4613(4)
O9 O 0.9252(4) 0.0808(5) 0.5830(4)
O11 O 0.9252(4) 0.0808(5) 0.4170(4)
Zn5_2 Zn 0.39445(10) 0.500000 1.000000
Zn7_2 Zn 0.60555(10) 0.500000 1.000000
Zn1_2 Zn 0.500000 1.000000 0.39572(10)
Zn2_2 Zn 0.89445(10) 1.000000 0.500000
C1 C 0.500000 0.8463(10) 0.3442(9)
C2_2 C 0.6993(7) 1.000000 0.4378(5)
C3_2 C 0.7295(8) 1.000000 0.3540(6)
H1_2 H 0.797004 1.000000 0.351394
H2 H 0.705554 0.952917 0.328318
N1_2 N 0.6120(5) 1.000000 0.4613(4)
N2_2 N 0.7564(6) 1.000000 0.500000
O1 O 0.500000 0.8254(7) 0.4126(7)
O2 O 0.500000 0.9152(6) 0.3215(5)
C4 C 0.500000 0.6058(5) 0.1027(5)
O3 O 0.4252(4) 0.5808(5) 0.0830(4)
F1 F 0.3489(12) 0.8145(13) 0.2461(13)
F2 F 0.3488(10) 0.7046(11) 0.1380(12)
C5 C 0.4246(7) 0.6950(10) 0.1969(10)
C6 C 0.4255(9) 0.7506(9) 0.2535(10)
C7 C 0.500000 0.7821(8) 0.2821(8)
C8 C 0.500000 0.6671(7) 0.1653(7)
F3 F 0.6511(12) 0.8145(13) 0.2461(13)
F4 F 0.6512(10) 0.7046(11) 0.1380(12)
C9 C 0.5754(7) 0.6950(10) 0.1969(10)
C10 C 0.5745(9) 0.7506(9) 0.2535(10)
O4 O 0.5748(4) 0.5808(5) 0.0830(4)
C11_2 C 0.6993(7) 1.000000 0.5622(5)
C12_2 C 0.7295(8) 1.000000 0.6460(6)
H3_2 H 0.797004 1.000000 0.648606
N3_2 N 0.6120(5) 1.000000 0.5387(4)
H5 H 0.705554 0.952917 0.671682
Zn3_2 Zn 0.500000 1.000000 0.60428(10)
N4_2 N 0.3880(5) 1.000000 0.4613(4)
O10 O 0.9252(4) 0.9192(5) 0.4170(4)
O12 O 0.9252(4) 0.9192(5) 0.5830(4)
Zn2_3 Zn 0.10555(10) 0.000000 0.500000
C2_3 C 0.3007(7) 0.000000 0.4378(5)
C3_3 C 0.2705(8) 0.000000 0.3540(6)
H1_3 H 0.202996 -0.000000 0.351394
H2_2 H 0.294446 0.047083 0.328318
N2_3 N 0.2436(6) 0.000000 0.500000
C11_3 C 0.3007(7) -0.000000 0.5622(5)
C12_3 C 0.2705(8) 0.000000 0.6460(6)
H3_3 H 0.202996 0.000000 0.648606
N3_3 N 0.3880(5) 0.000000 0.5387(4)
H5_2 H 0.294446 0.047083 0.671682
O10_2 O 0.0748(4) 0.0808(5) 0.4170(4)
O12_2 O 0.0748(4) 0.0808(5) 0.5830(4)
Zn2_4 Zn 0.10555(10) 1.000000 0.500000
C2_4 C 0.3007(7) 1.000000 0.4378(5)
C3_4 C 0.2705(8) 1.000000 0.3540(6)
H1_4 H 0.202996 1.000000 0.351394
N2_4 N 0.2436(6) 1.000000 0.500000
C11_4 C 0.3007(7) 1.000000 0.5622(5)
C12_4 C 0.2705(8) 1.000000 0.6460(6)
H3_4 H 0.202996 1.000000 0.648606
H4_2 H 0.294446 0.952917 0.671682
N3_4 N 0.3880(5) 1.000000 0.5387(4)
H6_2 H 0.294446 0.952917 0.328318
O9_2 O 0.0748(4) 0.9192(5) 0.5830(4)
O11_2 O 0.0748(4) 0.9192(5) 0.4170(4)
C13_2 C 0.500000 0.1537(10) 0.6558(9)
O5_2 O 0.500000 0.1746(7) 0.5874(7)
O6_2 O 0.500000 0.0848(6) 0.6785(5)
C14_2 C 0.500000 0.3942(5) 0.8973(5)
O7_2 O 0.4252(4) 0.4192(5) 0.9170(4)
F5_2 F 0.3489(12) 0.1855(13) 0.7539(13)
F6_2 F 0.3488(10) 0.2954(11) 0.8620(12)
C15_2 C 0.4246(7) 0.3050(10) 0.8031(10)
C16_2 C 0.4255(9) 0.2494(9) 0.7465(10)
C17_2 C 0.500000 0.2179(8) 0.7179(8)
C18_2 C 0.500000 0.3329(7) 0.8347(7)
F7_2 F 0.6511(12) 0.1855(13) 0.7539(13)
F8_2 F 0.6512(10) 0.2954(11) 0.8620(12)
C19_2 C 0.5754(7) 0.3050(10) 0.8031(10)
C20_2 C 0.5745(9) 0.2494(9) 0.7465(10)
O8_2 O 0.5748(4) 0.4192(5) 0.9170(4)
C1_2 C 0.500000 0.8463(10) 0.6558(9)
O1_2 O 0.500000 0.8254(7) 0.5874(7)
O2_2 O 0.500000 0.9152(6) 0.6785(5)
C4_2 C 0.500000 0.6058(5) 0.8973(5)
O3_2 O 0.5748(4) 0.5808(5) 0.9170(4)
F1_2 F 0.6511(12) 0.8145(13) 0.7539(13)
F2_2 F 0.6512(10) 0.7046(11) 0.8620(12)
C5_2 C 0.5754(7) 0.6950(10) 0.8031(10)
C6_2 C 0.5745(9) 0.7506(9) 0.7465(10)
C7_2 C 0.500000 0.7821(8) 0.7179(8)
C8_2 C 0.500000 0.6671(7) 0.8347(7)
F3_2 F 0.3489(12) 0.8145(13) 0.7539(13)
F4_2 F 0.3488(10) 0.7046(11) 0.8620(12)
C9_2 C 0.4246(7) 0.6950(10) 0.8031(10)
C10_2 C 0.4255(9) 0.7506(9) 0.7465(10)
O4_2 O 0.4252(4) 0.5808(5) 0.9170(4)
N2_5 N 0.2564(6) 0.500000 0.000000
C11_5 C 0.1993(7) 0.500000 0.0622(5)
C12_5 C 0.2295(8) 0.500000 0.1460(6)
H3_5 H 0.297004 0.500000 0.148606
H4_3 H 0.205554 0.547083 0.171682
N3_5 N 0.1120(5) 0.500000 0.0387(4)
H5_3 H 0.205554 0.452917 0.171682
Zn3_3 Zn 0.000000 0.500000 0.10428(10)
Zn1_3 Zn -0.000000 0.500000 0.89572(10)
C1_3 C 0.000000 0.3463(10) 0.8442(9)
C2_5 C 0.1993(7) 0.500000 0.9378(5)
C3_5 C 0.2295(8) 0.500000 0.8540(6)
H1_5 H 0.297004 0.500000 0.851394
H2_3 H 0.205554 0.452917 0.828318
N1_3 N 0.1120(5) 0.500000 0.9613(4)
N2_6 N 0.2564(6) 0.500000 1.000000
O1_3 O -0.000000 0.3254(7) 0.9126(7)
O2_3 O 0.000000 0.4152(6) 0.8215(5)
C4_3 C 0.000000 0.1058(5) 0.6027(5)
C7_3 C 0.000000 0.2821(8) 0.7821(8)
C8_3 C 0.000000 0.1671(7) 0.6653(7)
F3_3 F 0.1511(12) 0.3145(13) 0.7461(13)
F4_3 F 0.1512(10) 0.2046(11) 0.6380(12)
C9_3 C 0.0754(7) 0.1950(10) 0.6969(10)
C10_3 C 0.0745(9) 0.2506(9) 0.7535(10)
H6_3 H 0.205554 0.547083 0.828318
C13_3 C 0.000000 0.6537(10) 0.8442(9)
O5_3 O -0.000000 0.6746(7) 0.9126(7)
O6_3 O 0.000000 0.5848(6) 0.8215(5)
C14_3 C 0.000000 0.8942(5) 0.6027(5)
F5_3 F 0.1511(12) 0.6855(13) 0.7461(13)
F6_3 F 0.1512(10) 0.7954(11) 0.6380(12)
C15_3 C 0.0754(7) 0.8050(10) 0.6969(10)
C16_3 C 0.0745(9) 0.7494(9) 0.7535(10)
C17_3 C 0.000000 0.7179(8) 0.7821(8)
C18_3 C 0.000000 0.8329(7) 0.6653(7)
Zn3_4 Zn 1.000000 0.500000 0.10428(10)
Zn1_4 Zn 1.000000 0.500000 0.89572(10)
C1_4 C 1.000000 0.3463(10) 0.8442(9)
O1_4 O 1.000000 0.3254(7) 0.9126(7)
O2_4 O 1.000000 0.4152(6) 0.8215(5)
C4_4 C 1.000000 0.1058(5) 0.6027(5)
F1_3 F 0.8489(12) 0.3145(13) 0.7461(13)
F2_3 F 0.8488(10) 0.2046(11) 0.6380(12)
C5_3 C 0.9246(7) 0.1950(10) 0.6969(10)
C6_3 C 0.9255(9) 0.2506(9) 0.7535(10)
C7_4 C 1.000000 0.2821(8) 0.7821(8)
C8_4 C 1.000000 0.1671(7) 0.6653(7)
C13_4 C 1.000000 0.6537(10) 0.8442(9)
O5_4 O 1.000000 0.6746(7) 0.9126(7)
O6_4 O 1.000000 0.5848(6) 0.8215(5)
C14_4 C 1.000000 0.8942(5) 0.6027(5)
C17_4 C 1.000000 0.7179(8) 0.7821(8)
C18_4 C 1.000000 0.8329(7) 0.6653(7)
F7_3 F 0.8489(12) 0.6855(13) 0.7461(13)
F8_3 F 0.8488(10) 0.7954(11) 0.6380(12)
C19_3 C 0.9246(7) 0.8050(10) 0.6969(10)
C20_3 C 0.9255(9) 0.7494(9) 0.7535(10)
N4_3 N 0.8880(5) 0.500000 0.9613(4)
N2_7 N 0.7436(6) 0.500000 0.000000
C11_6 C 0.8007(7) 0.500000 0.0622(5)
C12_6 C 0.7705(8) 0.500000 0.1460(6)
H3_6 H 0.702996 0.500000 0.148606
H4_4 H 0.794446 0.452917 0.171682
N3_6 N 0.8880(5) 0.500000 0.0387(4)
H5_4 H 0.794446 0.547083 0.171682
C2_6 C 0.8007(7) 0.500000 0.9378(5)
C3_6 C 0.7705(8) 0.500000 0.8540(6)
H1_6 H 0.702996 0.500000 0.851394
H2_4 H 0.794446 0.547083 0.828318
N2_8 N 0.7436(6) 0.500000 1.000000
H6_4 H 0.794446 0.452917 0.828318
C1_5 C 0.000000 0.3463(10) 0.1558(9)
O1_5 O 0.000000 0.3254(7) 0.0874(7)
O2_5 O 0.000000 0.4152(6) 0.1785(5)
C4_5 C -0.000000 0.1058(5) 0.3973(5)
F1_4 F 0.1511(12) 0.3145(13) 0.2539(13)
F2_4 F 0.1512(10) 0.2046(11) 0.3620(12)
C5_4 C 0.0754(7) 0.1950(10) 0.3031(10)
C6_4 C 0.0745(9) 0.2506(9) 0.2465(10)
C7_5 C 0.000000 0.2821(8) 0.2179(8)
C8_5 C -0.000000 0.1671(7) 0.3347(7)
C13_5 C 0.000000 0.6537(10) 0.1558(9)
O5_5 O 0.000000 0.6746(7) 0.0874(7)
O6_5 O 0.000000 0.5848(6) 0.1785(5)
C14_5 C -0.000000 0.8942(5) 0.3973(5)
C17_5 C 0.000000 0.7179(8) 0.2179(8)
C18_5 C -0.000000 0.8329(7) 0.3347(7)
F7_4 F 0.1511(12) 0.6855(13) 0.2539(13)
F8_4 F 0.1512(10) 0.7954(11) 0.3620(12)
C19_4 C 0.0754(7) 0.8050(10) 0.3031(10)
C20_4 C 0.0745(9) 0.7494(9) 0.2465(10)
C1_6 C 1.000000 0.3463(10) 0.1558(9)
O1_6 O 1.000000 0.3254(7) 0.0874(7)
O2_6 O 1.000000 0.4152(6) 0.1785(5)
C4_6 C 1.000000 0.1058(5) 0.3973(5)
C7_6 C 1.000000 0.2821(8) 0.2179(8)
C8_6 C 1.000000 0.1671(7) 0.3347(7)
F3_4 F 0.8489(12) 0.3145(13) 0.2539(13)
F4_4 F 0.8488(10) 0.2046(11) 0.3620(12)
C9_4 C 0.9246(7) 0.1950(10) 0.3031(10)
C10_4 C 0.9255(9) 0.2506(9) 0.2465(10)
C13_6 C 1.000000 0.6537(10) 0.1558(9)
O5_6 O 1.000000 0.6746(7) 0.0874(7)
O6_6 O 1.000000 0.5848(6) 0.1785(5)
C14_6 C 1.000000 0.8942(5) 0.3973(5)
F5_4 F 0.8489(12) 0.6855(13) 0.2539(13)
F6_4 F 0.8488(10) 0.7954(11) 0.3620(12)
C15_4 C 0.9246(7) 0.8050(10) 0.3031(10)
C16_4 C 0.9255(9) 0.7494(9) 0.2465(10)
C17_6 C 1.000000 0.7179(8) 0.2179(8)
C18_6 C 1.000000 0.8329(7) 0.3347(7)
loop_
_geom_bond_atom_site_label_1
_geom_bond_atom_site_label_2
_geom_bond_site_symmetry_1
_geom_bond_site_symmetry_2
Zn1 N1 1_555 1_555
Zn2 N2 1_555 1_555
C2 C3 1_555 1_555
C3 H1 1_555 1_555
N1 C2 1_555 1_555
N2 C2 1_555 1_555
C11 N2 1_555 1_555
C12 C11 1_555 1_555
H3 C12 1_555 1_555
H4 C12 1_555 1_555
N3 N1 1_555 1_555
H6 C3 1_555 1_555
C13 O5 1_555 1_555
O6 Zn1 1_555 1_555
C14 O7 1_555 1_555
O7 Zn7 1_555 1_555
F5 C16 1_555 1_555
F6 C15 1_555 1_555
C15 C16 1_555 1_555
C16 C17 1_555 1_555
C17 C13 1_555 1_555
C18 C14 1_555 1_555
F7 C20 1_555 1_555
F8 C19 1_555 1_555
C19 C18 1_555 1_555
C20 C17 1_555 1_555
O8 C14 1_555 1_555
Zn3 N3 1_555 1_555
Zn5 O8 1_555 1_555
N4 Zn1 1_555 1_555
O9 Zn2 1_555 1_555
O11 Zn2 1_555 1_555
C11 N3 1_555 1_555
C13 O6 1_555 1_555
C15 C18 1_555 1_555
C19 C20 1_555 1_555
Zn1_2 N1_2 1_555 1_555
Zn2_2 N2_2 1_555 1_555
C1 O1 1_555 1_555
C2_2 C3_2 1_555 1_555
C3_2 H1_2 1_555 1_555
H2 C3_2 1_555 1_555
N1_2 C2_2 1_555 1_555
N2_2 C2_2 1_555 1_555
O2 Zn1_2 1_555 1_555
C4 O3 1_555 1_555
O3 Zn5 1_555 1_555
F1 C6 1_555 1_555
F2 C5 1_555 1_555
C5 C6 1_555 1_555
C6 C7 1_555 1_555
C7 C1 1_555 1_555
C8 C4 1_555 1_555
F3 C10 1_555 1_555
F4 C9 1_555 1_555
C9 C8 1_555 1_555
C10 C7 1_555 1_555
O4 C4 1_555 1_555
C11_2 N2_2 1_555 1_555
C12_2 C11_2 1_555 1_555
H3_2 C12_2 1_555 1_555
N3_2 N1_2 1_555 1_555
H5 C12_2 1_555 1_555
Zn3_2 N3_2 1_555 1_555
Zn7 O4 1_555 1_555
N4_2 Zn1_2 1_555 1_555
O10 Zn2_2 1_555 1_555
O12 Zn2_2 1_555 1_555
C1 O2 1_555 1_555
C5 C8 1_555 1_555
C9 C10 1_555 1_555
C11_2 N3_2 1_555 1_555
Zn2_3 N2_3 1_555 1_555
C2_3 C3_3 1_555 1_555
C3_3 H1_3 1_555 1_555
H2_2 C3_3 1_555 1_555
N4 C2_3 1_555 1_555
N2_3 C2_3 1_555 1_555
C11_3 N2_3 1_555 1_555
C12_3 C11_3 1_555 1_555
H3_3 C12_3 1_555 1_555
N3_3 N4 1_555 1_555
H5_2 C12_3 1_555 1_555
Zn3 N3_3 1_555 1_555
O10_2 Zn2_3 1_555 1_555
O12_2 Zn2_3 1_555 1_555
C11_3 N3_3 1_555 1_555
Zn2_4 N2_4 1_555 1_555
C2_4 C3_4 1_555 1_555
C3_4 H1_4 1_555 1_555
N4_2 C2_4 1_555 1_555
N2_4 C2_4 1_555 1_555
C11_4 N2_4 1_555 1_555
C12_4 C11_4 1_555 1_555
H3_4 C12_4 1_555 1_555
H4_2 C12_4 1_555 1_555
N3_4 N4_2 1_555 1_555
H6_2 C3_4 1_555 1_555
Zn3_2 N3_4 1_555 1_555
O9_2 Zn2_4 1_555 1_555
O11_2 Zn2_4 1_555 1_555
C11_4 N3_4 1_555 1_555
C13_2 O5_2 1_555 1_555
O6_2 Zn3 1_555 1_555
C14_2 O7_2 1_555 1_555
O7_2 Zn5_2 1_555 1_555
F5_2 C16_2 1_555 1_555
F6_2 C15_2 1_555 1_555
C15_2 C16_2 1_555 1_555
C16_2 C17_2 1_555 1_555
C17_2 C13_2 1_555 1_555
C18_2 C14_2 1_555 1_555
F7_2 C20_2 1_555 1_555
F8_2 C19_2 1_555 1_555
C19_2 C18_2 1_555 1_555
C20_2 C17_2 1_555 1_555
O8_2 C14_2 1_555 1_555
Zn7_2 O8_2 1_555 1_555
C13_2 O6_2 1_555 1_555
C15_2 C18_2 1_555 1_555
C19_2 C20_2 1_555 1_555
C1_2 O1_2 1_555 1_555
O2_2 Zn3_2 1_555 1_555
C4_2 O3_2 1_555 1_555
O3_2 Zn7_2 1_555 1_555
F1_2 C6_2 1_555 1_555
F2_2 C5_2 1_555 1_555
C5_2 C6_2 1_555 1_555
C6_2 C7_2 1_555 1_555
C7_2 C1_2 1_555 1_555
C8_2 C4_2 1_555 1_555
F3_2 C10_2 1_555 1_555
F4_2 C9_2 1_555 1_555
C9_2 C8_2 1_555 1_555
C10_2 C7_2 1_555 1_555
O4_2 C4_2 1_555 1_555
Zn5_2 O4_2 1_555 1_555
C1_2 O2_2 1_555 1_555
C5_2 C8_2 1_555 1_555
C9_2 C10_2 1_555 1_555
Zn5 N2_5 1_555 1_555
C11_5 N2_5 1_555 1_555
C12_5 C11_5 1_555 1_555
H3_5 C12_5 1_555 1_555
H4_3 C12_5 1_555 1_555
H5_3 C12_5 1_555 1_555
Zn3_3 N3_5 1_555 1_555
C11_5 N3_5 1_555 1_555
Zn1_3 N1_3 1_555 1_555
Zn5_2 N2_6 1_555 1_555
C1_3 O1_3 1_555 1_555
C2_5 C3_5 1_555 1_555
C3_5 H1_5 1_555 1_555
H2_3 C3_5 1_555 1_555
N1_3 C2_5 1_555 1_555
N2_6 C2_5 1_555 1_555
O2_3 Zn1_3 1_555 1_555
C7_3 C1_3 1_555 1_555
C8_3 C4_3 1_555 1_555
F3_3 C10_3 1_555 1_555
F4_3 C9_3 1_555 1_555
C9_3 C8_3 1_555 1_555
C10_3 C7_3 1_555 1_555
O12_2 C4_3 1_555 1_555
H6_3 C3_5 1_555 1_555
C13_3 O5_3 1_555 1_555
O6_3 Zn1_3 1_555 1_555
C14_3 O9_2 1_555 1_555
F5_3 C16_3 1_555 1_555
F6_3 C15_3 1_555 1_555
C15_3 C16_3 1_555 1_555
C16_3 C17_3 1_555 1_555
C17_3 C13_3 1_555 1_555
C18_3 C14_3 1_555 1_555
C1_3 O2_3 1_555 1_555
C9_3 C10_3 1_555 1_555
C13_3 O6_3 1_555 1_555
C15_3 C18_3 1_555 1_555
C1_4 O1_4 1_555 1_555
O2_4 Zn1_4 1_555 1_555
C4_4 O9 1_555 1_555
F1_3 C6_3 1_555 1_555
F2_3 C5_3 1_555 1_555
C5_3 C6_3 1_555 1_555
C6_3 C7_4 1_555 1_555
C7_4 C1_4 1_555 1_555
C8_4 C4_4 1_555 1_555
C13_4 O5_4 1_555 1_555
O6_4 Zn1_4 1_555 1_555
C17_4 C13_4 1_555 1_555
C18_4 C14_4 1_555 1_555
F7_3 C20_3 1_555 1_555
F8_3 C19_3 1_555 1_555
C19_3 C18_4 1_555 1_555
C20_3 C17_4 1_555 1_555
O12 C14_4 1_555 1_555
N4_3 Zn1_4 1_555 1_555
C1_4 O2_4 1_555 1_555
C5_3 C8_4 1_555 1_555
C13_4 O6_4 1_555 1_555
C19_3 C20_3 1_555 1_555
Zn7 N2_7 1_555 1_555
C11_6 N2_7 1_555 1_555
C12_6 C11_6 1_555 1_555
H3_6 C12_6 1_555 1_555
H4_4 C12_6 1_555 1_555
H5_4 C12_6 1_555 1_555
Zn3_4 N3_6 1_555 1_555
C11_6 N3_6 1_555 1_555
Zn7_2 N2_8 1_555 1_555
C2_6 C3_6 1_555 1_555
C3_6 H1_6 1_555 1_555
H2_4 C3_6 1_555 1_555
N4_3 C2_6 1_555 1_555
N2_8 C2_6 1_555 1_555
H6_4 C3_6 1_555 1_555
C1_5 O1_5 1_555 1_555
O2_5 Zn3_3 1_555 1_555
C4_5 O10_2 1_555 1_555
F1_4 C6_4 1_555 1_555
F2_4 C5_4 1_555 1_555
C5_4 C6_4 1_555 1_555
C6_4 C7_5 1_555 1_555
C7_5 C1_5 1_555 1_555
C8_5 C4_5 1_555 1_555
C13_5 O5_5 1_555 1_555
O6_5 Zn3_3 1_555 1_555
C17_5 C13_5 1_555 1_555
C18_5 C14_5 1_555 1_555
F7_4 C20_4 1_555 1_555
F8_4 C19_4 1_555 1_555
C19_4 C18_5 1_555 1_555
C20_4 C17_5 1_555 1_555
O11_2 C14_5 1_555 1_555
C1_5 O2_5 1_555 1_555
C5_4 C8_5 1_555 1_555
C13_5 O6_5 1_555 1_555
C19_4 C20_4 1_555 1_555
C1_6 O1_6 1_555 1_555
O2_6 Zn3_4 1_555 1_555
C7_6 C1_6 1_555 1_555
C8_6 C4_6 1_555 1_555
F3_4 C10_4 1_555 1_555
F4_4 C9_4 1_555 1_555
C9_4 C8_6 1_555 1_555
C10_4 C7_6 1_555 1_555
O11 C4_6 1_555 1_555
C13_6 O5_6 1_555 1_555
O6_6 Zn3_4 1_555 1_555
C14_6 O10 1_555 1_555
F5_4 C16_4 1_555 1_555
F6_4 C15_4 1_555 1_555
C15_4 C16_4 1_555 1_555
C16_4 C17_6 1_555 1_555
C17_6 C13_6 1_555 1_555
C18_6 C14_6 1_555 1_555
C1_6 O2_6 1_555 1_555
C9_4 C10_4 1_555 1_555
C13_6 O6_6 1_555 1_555
C15_4 C18_6 1_555 1_555

#END
