
###############################################################################
#
# This file contains modified crystal structure data generated from the
# MOF subset of the Cambridge Structural Database (CSD) v543 
# hosted by the Cambridge Crystallographic Data Centre (CCDC).
#
# This work is licensed under the Creative Commons
# Attribution-NonCommercial-ShareAlike 4.0 International License.
# To view a copy of this license, visit
# http://creativecommons.org/licenses/by-nc-sa/4.0/
# or send a letter to
# Creative Commons, PO Box 1866, Mountain View, CA 94042, USA.
#
# CIF created using the CSD Python API on 29 September 2022
# The structure has been converted into the P1 space group
# The structure has a 3D framework
# The original CSD entry YEKYIA is in the hexagonal crystal system
# The original CSD entry YEKYIA is in a Sohncke space group
# The framework has been calculated to contain at least 10.0% void space
# The void calculation uses a probe of radius 1.32A, grid spacing 0.4
#
###############################################################################

data_YEKYIA
_chemical_formula_moiety         '(C60 H72 Ca2 Cu12 N12 O38 S12)n'
_symmetry_cell_setting           triclinic
_symmetry_space_group_name_H-M   'P 1'
_symmetry_Int_Tables_number      1
_space_group_name_Hall           'P 1'
loop_
_symmetry_equiv_pos_site_id
_symmetry_equiv_pos_as_xyz
1 x,y,z
_cell_length_a                   17.80745(5)
_cell_length_b                   17.80745(5)
_cell_length_c                   12.54520(10)
_cell_angle_alpha                90
_cell_angle_beta                 90
_cell_angle_gamma                120
_cell_volume                     3445.18
loop_
_atom_site_label
_atom_site_type_symbol
_atom_site_fract_x
_atom_site_fract_y
_atom_site_fract_z
O3 O 0.23814(17) 0.56317(19) 0.7701(3)
O5 O 0.02155(19) 0.5755(2) 0.7681(3)
O7 O 0.2907(3) 0.4930(3) 0.6780(4)
N2 N 0.0993(2) 0.5056(3) 0.6614(3)
C3 C 0.2334(3) 0.5134(4) 0.6957(4)
C4 C 0.1566(4) 0.4766(5) 0.6216(5)
H2 H 0.125750 0.412094 0.629869
C6 C 0.0225(3) 0.4802(3) 0.6300(4)
C8 C 0.0403(16) 0.730(3) 0.520(3)
H5 H 0.053333 0.740049 0.443438
H6 H 0.058945 0.785640 0.555407
H7 H 0.071281 0.702645 0.550453
C9 C 0.1801(5) 0.4962(7) 0.5047(6)
H8 H 0.127233 0.467823 0.460000
H9 H 0.219390 0.474761 0.482614
C10 C 0.147(2) 0.628(2) 0.544(6)
H10 H 0.168939 0.690403 0.540229
H11 H 0.093938 0.597210 0.501201
H12 H 0.133982 0.608588 0.618245
S2 S 0.2293(7) 0.6040(6) 0.4917(10)
Cu8 Cu 0.13871(3) 0.58449(3) 0.77889(3)
Cu10 Cu 0.41551(3) 0.55422(4) 0.77889(3)
Ca4 Ca 0.333333 0.666667 0.91037(14)
Cu1 Cu 0.86200(3) 0.41947(3) 0.54106(3)
Cu2 Cu 0.86129(3) 0.41551(3) 0.27889(3)
Ca1 Ca 0.666667 0.333333 0.41037(14)
O1 O 0.82014(12) 0.35658(12) 0.4108(3)
O2 O 0.76012(19) 0.43826(19) 0.5482(3)
O4 O 0.97903(18) 0.4275(2) 0.5561(3)
O6 O 0.7052(3) 0.5046(3) 0.6448(4)
N1 N 0.9030(3) 0.5020(3) 0.6554(4)
C1 C 0.7627(3) 0.4878(3) 0.6237(4)
C2 C 0.8473(4) 0.5328(4) 0.6931(6)
H1 H 0.832973 0.517599 0.769954
C5 C 0.9811(3) 0.5247(3) 0.6925(4)
C7 C 0.8894(5) 0.6347(5) 0.6764(10)
H3 H 0.940425 0.666293 0.723530
H4 H 0.846772 0.653024 0.693862
S1 S 0.9217(11) 0.6580(10) 0.5386(11)
Cu3 Cu 0.58053(3) 0.44253(4) 0.54106(3)
Cu4 Cu 0.58449(3) 0.44578(4) 0.27889(3)
O8 O 0.64342(12) 0.46356(17) 0.4108(3)
O9 O 0.56174(19) 0.32186(27) 0.5482(3)
O10 O 0.43683(19) 0.67497(25) 0.7701(3)
O11 O 0.5725(2) 0.55153(27) 0.5561(3)
O12 O 0.4245(2) 0.44605(28) 0.7681(3)
O13 O 0.4954(3) 0.2006(4) 0.6448(4)
O14 O 0.5070(3) 0.7977(4) 0.6780(4)
N3 N 0.4980(3) 0.4010(4) 0.6554(4)
N4 N 0.4944(3) 0.5937(4) 0.6614(3)
C11 C 0.5122(3) 0.2749(4) 0.6237(4)
C12 C 0.4672(4) 0.3145(6) 0.6931(6)
H13 H 0.482401 0.315374 0.769954
C13 C 0.4866(4) 0.7200(5) 0.6957(4)
C14 C 0.5234(5) 0.6800(6) 0.6216(5)
H14 H 0.587906 0.713656 0.629869
C15 C 0.4753(3) 0.4564(4) 0.6925(4)
C16 C 0.5198(3) 0.5423(4) 0.6300(4)
C17 C 0.3653(5) 0.2547(7) 0.6764(10)
H15 H 0.333707 0.274132 0.723530
H16 H 0.346976 0.193748 0.693862
C18 C 0.270(3) 0.3103(34) 0.520(3)
H17 H 0.259951 0.313284 0.443438
H18 H 0.214360 0.273305 0.555407
H19 H 0.297355 0.368636 0.550453
C19 C 0.5038(7) 0.6839(9) 0.5047(6)
H20 H 0.532177 0.659410 0.460000
H21 H 0.525239 0.744629 0.482614
C20 C 0.372(2) 0.519(3) 0.544(6)
H22 H 0.309597 0.478536 0.540229
H23 H 0.402790 0.496728 0.501201
H24 H 0.391412 0.525394 0.618245
S3 S 0.3420(10) 0.2637(15) 0.5386(11)
S4 S 0.3960(6) 0.6253(9) 0.4917(10)
Cu5 Cu 0.55747(4) 0.13800(3) 0.54106(3)
Cu6 Cu 0.55422(4) 0.13871(3) 0.27889(3)
O15 O 0.53644(17) 0.17986(12) 0.4108(3)
O16 O 0.67814(27) 0.23988(19) 0.5482(3)
O18 O 0.44847(27) 0.02097(18) 0.5561(3)
O20 O 0.7994(4) 0.2948(3) 0.6448(4)
N5 N 0.5990(4) 0.0970(3) 0.6554(4)
C21 C 0.7251(4) 0.2373(3) 0.6237(4)
C22 C 0.6855(6) 0.1527(4) 0.6931(6)
H25 H 0.684626 0.167027 0.769954
C25 C 0.5436(4) 0.0189(3) 0.6925(4)
C27 C 0.7453(7) 0.1106(5) 0.6764(10)
H27 H 0.725868 0.059575 0.723530
H28 H 0.806252 0.153228 0.693862
S5 S 0.7363(15) 0.0783(11) 0.5386(11)
Cu12 Cu 0.44578(4) 0.86129(3) 0.77889(3)
O22 O 0.76186(17) 0.43683(19) 0.2701(3)
O23 O 0.56317(19) 0.32503(25) 0.2701(3)
O24 O 0.67497(25) 0.23814(17) 0.2701(3)
O25 O 0.97845(19) 0.4245(2) 0.2681(3)
O26 O 0.5755(2) 0.55395(28) 0.2681(3)
O27 O 0.44605(28) 0.02155(19) 0.2681(3)
O28 O 0.7093(3) 0.5070(3) 0.1780(4)
O29 O 0.4930(3) 0.2023(4) 0.1780(4)
O30 O 0.7977(4) 0.2907(3) 0.1780(4)
N7 N 0.9007(2) 0.4944(3) 0.1614(3)
N8 N 0.5056(3) 0.4063(4) 0.1614(3)
N9 N 0.5937(4) 0.0993(2) 0.1614(3)
O17 O 0.32503(25) 0.76186(17) 0.7701(3)
O19 O 0.55395(28) 0.97845(19) 0.7681(3)
O21 O 0.2023(4) 0.7093(3) 0.6780(4)
N6 N 0.4063(4) 0.9007(2) 0.6614(3)
C23 C 0.2800(5) 0.7666(3) 0.6957(4)
C24 C 0.3200(6) 0.8434(4) 0.6216(5)
H26 H 0.286344 0.874250 0.629869
C26 C 0.4577(4) 0.9775(3) 0.6300(4)
C28 C 0.6897(34) 0.9597(16) 0.520(3)
H29 H 0.686716 0.946667 0.443438
H30 H 0.726695 0.941055 0.555407
H31 H 0.631364 0.928719 0.550453
C29 C 0.3161(9) 0.8199(5) 0.5047(6)
H32 H 0.340590 0.872767 0.460000
H33 H 0.255371 0.780610 0.482614
C30 C 0.481(3) 0.853(2) 0.544(6)
H34 H 0.521464 0.831061 0.540229
H35 H 0.503272 0.906062 0.501201
H36 H 0.474606 0.866018 0.618245
S6 S 0.3747(9) 0.7707(7) 0.4917(10)
C23_2 C 0.7200(5) 0.2334(3) 0.1957(4)
C24_2 C 0.6800(6) 0.1566(4) 0.1216(5)
H26_2 H 0.713656 0.125750 0.129869
C26_2 C 0.5423(4) 0.0225(3) 0.1300(4)
C28_2 C 0.3103(34) 0.0403(16) 0.020(3)
H30_2 H 0.273305 0.058945 0.055407
H31_2 H 0.368636 0.071281 0.050453
C29_2 C 0.6839(9) 0.1801(5) 0.0047(6)
C30_2 C 0.519(3) 0.147(2) 0.044(6)
H34_2 H 0.478536 0.168939 0.040229
H35_2 H 0.496728 0.093938 0.001201
H36_2 H 0.525394 0.133982 0.118245
Cu1_2 Cu 0.13800(3) 0.58053(3) 0.04106(3)
O2_2 O 0.23988(19) 0.56174(19) 0.0482(3)
O4_2 O 0.02097(18) 0.5725(2) 0.0561(3)
O6_2 O 0.2948(3) 0.4954(3) 0.1448(4)
N1_2 N 0.0970(3) 0.4980(3) 0.1554(4)
C1_2 C 0.2373(3) 0.5122(3) 0.1237(4)
C2_2 C 0.1527(4) 0.4672(4) 0.1931(6)
H1_2 H 0.167027 0.482401 0.269954
C5_2 C 0.0189(3) 0.4753(3) 0.1925(4)
C7_2 C 0.1106(5) 0.3653(5) 0.1764(10)
H3_2 H 0.059575 0.333707 0.223530
H4_2 H 0.153228 0.346976 0.193862
S1_2 S 0.0783(11) 0.3420(10) 0.0386(11)
Cu3_2 Cu 0.41947(3) 0.55747(4) 0.04106(3)
O9_2 O 0.43826(19) 0.67814(27) 0.0482(3)
O11_2 O 0.4275(2) 0.44847(27) 0.0561(3)
O13_2 O 0.5046(3) 0.7994(4) 0.1448(4)
N3_2 N 0.5020(3) 0.5990(4) 0.1554(4)
C11_2 C 0.4878(3) 0.7251(4) 0.1237(4)
C12_2 C 0.5328(4) 0.6855(6) 0.1931(6)
H13_2 H 0.517599 0.684626 0.269954
C13_2 C 0.5134(4) 0.2800(5) 0.1957(4)
C14_2 C 0.4766(5) 0.3200(6) 0.1216(5)
H14_2 H 0.412094 0.286344 0.129869
C15_2 C 0.5247(3) 0.5436(4) 0.1925(4)
C16_2 C 0.4802(3) 0.4577(4) 0.1300(4)
C17_2 C 0.6347(5) 0.7453(7) 0.1764(10)
H15_2 H 0.666293 0.725868 0.223530
H16_2 H 0.653024 0.806252 0.193862
C18_2 C 0.730(3) 0.6897(34) 0.020(3)
H18_2 H 0.785640 0.726695 0.055407
H19_2 H 0.702645 0.631364 0.050453
C19_2 C 0.4962(7) 0.3161(9) 0.0047(6)
C20_2 C 0.628(2) 0.481(3) 0.044(6)
H22_2 H 0.690403 0.521464 0.040229
H23_2 H 0.597210 0.503272 0.001201
H24_2 H 0.608588 0.474606 0.118245
S3_2 S 0.6580(10) 0.7363(15) 0.0386(11)
Cu5_2 Cu 0.44253(4) 0.86200(3) 0.04106(3)
O16_2 O 0.32186(27) 0.76012(19) 0.0482(3)
O18_2 O 0.55153(27) 0.97903(18) 0.0561(3)
O20_2 O 0.2006(4) 0.7052(3) 0.1448(4)
N5_2 N 0.4010(4) 0.9030(3) 0.1554(4)
C21_2 C 0.2749(4) 0.7627(3) 0.1237(4)
C22_2 C 0.3145(6) 0.8473(4) 0.1931(6)
H25_2 H 0.315374 0.832973 0.269954
C25_2 C 0.4564(4) 0.9811(3) 0.1925(4)
C27_2 C 0.2547(7) 0.8894(5) 0.1764(10)
H27_2 H 0.274132 0.940425 0.223530
H28_2 H 0.193748 0.846772 0.193862
S5_2 S 0.2637(15) 0.9217(11) 0.0386(11)
O1_2 O 0.17986(12) 0.64342(12) 0.9108(3)
O8_2 O 0.35658(12) 0.53644(17) 0.9108(3)
H17_2 H 0.740049 0.686716 0.943438
H20_2 H 0.467823 0.340590 0.960000
H21_2 H 0.474761 0.255371 0.982614
S4_2 S 0.6040(6) 0.3747(9) 0.9917(10)
O15_2 O 0.46356(17) 0.82014(12) 0.9108(3)
C3_2 C 0.7666(3) 0.4866(4) 0.1957(4)
C4_2 C 0.8434(4) 0.5234(5) 0.1216(5)
H2_2 H 0.874250 0.587906 0.129869
C6_2 C 0.9775(3) 0.5198(3) 0.1300(4)
C8_2 C 0.9597(16) 0.270(3) 0.020(3)
H6_2 H 0.941055 0.214360 0.055407
H7_2 H 0.928719 0.297355 0.050453
C9_2 C 0.8199(5) 0.5038(7) 0.0047(6)
C10_2 C 0.853(2) 0.372(2) 0.044(6)
H10_2 H 0.831061 0.309597 0.040229
H11_2 H 0.906062 0.402790 0.001201
H12_2 H 0.866018 0.391412 0.118245
H29_2 H 0.313284 0.053333 0.943438
H32_2 H 0.659410 0.127233 0.960000
H33_2 H 0.744629 0.219390 0.982614
S6_2 S 0.6253(9) 0.2293(7) 0.9917(10)
H5_2 H 0.946667 0.259951 0.943438
H8_2 H 0.872767 0.532177 0.960000
H9_2 H 0.780610 0.525239 0.982614
S2_2 S 0.7707(7) 0.3960(6) 0.9917(10)
loop_
_geom_bond_atom_site_label_1
_geom_bond_atom_site_label_2
_geom_bond_site_symmetry_1
_geom_bond_site_symmetry_2
O3 C3 1_555 1_555
O7 C3 1_555 1_555
N2 C4 1_555 1_555
C3 C4 1_555 1_555
C4 H2 1_555 1_555
C8 H5 1_555 1_555
H6 C8 1_555 1_555
H7 C8 1_555 1_555
C9 C4 1_555 1_555
H8 C9 1_555 1_555
H9 C9 1_555 1_555
C10 H10 1_555 1_555
H11 C10 1_555 1_555
H12 C10 1_555 1_555
S2 C9 1_555 1_555
Cu8 O3 1_555 1_555
Cu10 O7 1_555 1_555
Ca4 O3 1_555 1_555
O5 Cu8 1_555 1_555
N2 C6 1_555 1_555
N2 Cu8 1_555 1_555
C10 S2 1_555 1_555
Cu1 O1 1_555 1_555
Cu2 O1 1_555 1_555
Ca1 O1 1_555 1_555
O2 Cu1 1_555 1_555
O4 Cu1 1_555 1_555
O6 C1 1_555 1_555
N1 Cu1 1_555 1_555
C1 O2 1_555 1_555
C2 N1 1_555 1_555
H1 C2 1_555 1_555
C5 N1 1_555 1_555
C7 C2 1_555 1_555
H3 C7 1_555 1_555
H4 C7 1_555 1_555
S1 C7 1_555 1_555
Cu3 O6 1_555 1_555
Cu4 O8 1_555 1_555
O8 Ca1 1_555 1_555
O9 Ca1 1_555 1_555
O10 C13 1_555 1_555
O11 Cu3 1_555 1_555
O12 C15 1_555 1_555
O13 C11 1_555 1_555
O14 C13 1_555 1_555
N3 Cu3 1_555 1_555
N4 C14 1_555 1_555
C11 O9 1_555 1_555
C12 N3 1_555 1_555
H13 C12 1_555 1_555
C13 C14 1_555 1_555
C14 H14 1_555 1_555
C15 N3 1_555 1_555
C16 O11 1_555 1_555
C17 C12 1_555 1_555
H15 C17 1_555 1_555
H16 C17 1_555 1_555
C18 H17 1_555 1_555
H18 C18 1_555 1_555
H19 C18 1_555 1_555
C19 C14 1_555 1_555
H20 C19 1_555 1_555
H21 C19 1_555 1_555
C20 H22 1_555 1_555
H23 C20 1_555 1_555
H24 C20 1_555 1_555
S3 C17 1_555 1_555
S4 C19 1_555 1_555
Cu5 O13 1_555 1_555
Cu6 O15 1_555 1_555
O15 Ca1 1_555 1_555
O16 Ca1 1_555 1_555
O18 Cu5 1_555 1_555
O20 Cu1 1_555 1_555
N5 Cu5 1_555 1_555
C21 O16 1_555 1_555
C22 N5 1_555 1_555
H25 C22 1_555 1_555
C25 N5 1_555 1_555
C27 C22 1_555 1_555
H27 C27 1_555 1_555
H28 C27 1_555 1_555
S5 C27 1_555 1_555
Cu10 O10 1_555 1_555
Cu12 O14 1_555 1_555
Ca4 O10 1_555 1_555
O22 Cu2 1_555 1_555
O23 Ca1 1_555 1_555
O24 Ca1 1_555 1_555
O25 Cu2 1_555 1_555
O26 Cu4 1_555 1_555
O27 Cu6 1_555 1_555
O28 Cu4 1_555 1_555
O29 Cu6 1_555 1_555
O30 Cu2 1_555 1_555
N7 Cu2 1_555 1_555
N8 Cu4 1_555 1_555
N9 Cu6 1_555 1_555
Ca1 O2 1_555 1_555
Ca1 O22 1_555 1_555
C1 C2 1_555 1_555
Cu3 O8 1_555 1_555
Cu3 O9 1_555 1_555
Cu4 O23 1_555 1_555
O12 Cu10 1_555 1_555
N4 C16 1_555 1_555
N4 Cu10 1_555 1_555
C11 C12 1_555 1_555
C15 C16 1_555 1_555
C18 S3 1_555 1_555
C20 S4 1_555 1_555
Cu5 O15 1_555 1_555
Cu5 O16 1_555 1_555
Cu6 O24 1_555 1_555
O20 C21 1_555 1_555
C21 C22 1_555 1_555
O17 C23 1_555 1_555
O21 C23 1_555 1_555
N6 C24 1_555 1_555
C23 C24 1_555 1_555
C24 H26 1_555 1_555
C28 H29 1_555 1_555
H30 C28 1_555 1_555
H31 C28 1_555 1_555
C29 C24 1_555 1_555
H32 C29 1_555 1_555
H33 C29 1_555 1_555
C30 H34 1_555 1_555
H35 C30 1_555 1_555
H36 C30 1_555 1_555
S6 C29 1_555 1_555
Cu8 O21 1_555 1_555
Cu12 O17 1_555 1_555
Ca4 O17 1_555 1_555
O19 Cu12 1_555 1_555
N6 C26 1_555 1_555
N6 Cu12 1_555 1_555
C30 S6 1_555 1_555
O24 C23_2 1_555 1_555
O30 C23_2 1_555 1_555
N9 C24_2 1_555 1_555
C23_2 C24_2 1_555 1_555
C24_2 H26_2 1_555 1_555
H30_2 C28_2 1_555 1_555
H31_2 C28_2 1_555 1_555
C29_2 C24_2 1_555 1_555
C30_2 H34_2 1_555 1_555
H35_2 C30_2 1_555 1_555
H36_2 C30_2 1_555 1_555
N9 C26_2 1_555 1_555
O2_2 Cu1_2 1_555 1_555
O4_2 Cu1_2 1_555 1_555
O6_2 C1_2 1_555 1_555
N1_2 Cu1_2 1_555 1_555
C1_2 O2_2 1_555 1_555
C2_2 N1_2 1_555 1_555
H1_2 C2_2 1_555 1_555
C5_2 N1_2 1_555 1_555
C7_2 C2_2 1_555 1_555
H3_2 C7_2 1_555 1_555
H4_2 C7_2 1_555 1_555
S1_2 C7_2 1_555 1_555
Cu3_2 O6_2 1_555 1_555
O23 C13_2 1_555 1_555
O11_2 Cu3_2 1_555 1_555
O26 C15_2 1_555 1_555
O13_2 C11_2 1_555 1_555
O29 C13_2 1_555 1_555
N3_2 Cu3_2 1_555 1_555
N8 C14_2 1_555 1_555
C11_2 O9_2 1_555 1_555
C12_2 N3_2 1_555 1_555
H13_2 C12_2 1_555 1_555
C13_2 C14_2 1_555 1_555
C14_2 H14_2 1_555 1_555
C15_2 N3_2 1_555 1_555
C16_2 O11_2 1_555 1_555
C17_2 C12_2 1_555 1_555
H15_2 C17_2 1_555 1_555
H16_2 C17_2 1_555 1_555
H18_2 C18_2 1_555 1_555
H19_2 C18_2 1_555 1_555
C19_2 C14_2 1_555 1_555
C20_2 H22_2 1_555 1_555
H23_2 C20_2 1_555 1_555
H24_2 C20_2 1_555 1_555
S3_2 C17_2 1_555 1_555
Cu5_2 O13_2 1_555 1_555
O18_2 Cu5_2 1_555 1_555
O20_2 Cu1_2 1_555 1_555
N5_2 Cu5_2 1_555 1_555
C21_2 O16_2 1_555 1_555
C22_2 N5_2 1_555 1_555
H25_2 C22_2 1_555 1_555
C25_2 N5_2 1_555 1_555
C27_2 C22_2 1_555 1_555
H27_2 C27_2 1_555 1_555
H28_2 C27_2 1_555 1_555
S5_2 C27_2 1_555 1_555
C1_2 C2_2 1_555 1_555
Cu3_2 O9_2 1_555 1_555
N8 C16_2 1_555 1_555
C11_2 C12_2 1_555 1_555
C15_2 C16_2 1_555 1_555
C18_2 S3_2 1_555 1_555
Cu5_2 O16_2 1_555 1_555
O20_2 C21_2 1_555 1_555
C21_2 C22_2 1_555 1_555
Cu8 O1_2 1_555 1_555
Ca4 O1_2 1_555 1_555
Cu10 O8_2 1_555 1_555
O8_2 Ca4 1_555 1_555
Cu12 O15_2 1_555 1_555
O15_2 Ca4 1_555 1_555
O22 C3_2 1_555 1_555
O28 C3_2 1_555 1_555
N7 C4_2 1_555 1_555
C3_2 C4_2 1_555 1_555
C4_2 H2_2 1_555 1_555
H6_2 C8_2 1_555 1_555
H7_2 C8_2 1_555 1_555
C9_2 C4_2 1_555 1_555
C10_2 H10_2 1_555 1_555
H11_2 C10_2 1_555 1_555
H12_2 C10_2 1_555 1_555
N7 C6_2 1_555 1_555

#END
