
###############################################################################
#
# This file contains modified crystal structure data generated from the
# MOF subset of the Cambridge Structural Database (CSD) v543 
# hosted by the Cambridge Crystallographic Data Centre (CCDC).
#
# This work is licensed under the Creative Commons
# Attribution-NonCommercial-ShareAlike 4.0 International License.
# To view a copy of this license, visit
# http://creativecommons.org/licenses/by-nc-sa/4.0/
# or send a letter to
# Creative Commons, PO Box 1866, Mountain View, CA 94042, USA.
#
# CIF created using the CSD Python API on 29 September 2022
# The structure has been converted into the P1 space group
# The structure has a 3D framework
# The original CSD entry YEKYOG is in the hexagonal crystal system
# The original CSD entry YEKYOG is in a Sohncke space group
# The framework has been calculated to contain at least 10.0% void space
# The void calculation uses a probe of radius 1.32A, grid spacing 0.4
#
###############################################################################

data_YEKYOG
_chemical_formula_moiety         '(C60 H72 Ca2 Cu9 N12 O38 S12)n'
_symmetry_cell_setting           triclinic
_symmetry_space_group_name_H-M   'P 1'
_symmetry_Int_Tables_number      1
_space_group_name_Hall           'P 1'
loop_
_symmetry_equiv_pos_site_id
_symmetry_equiv_pos_as_xyz
1 x,y,z
_cell_length_a                   18.3828(13)
_cell_length_b                   18.3828(13)
_cell_length_c                   11.8283(10)
_cell_angle_alpha                90
_cell_angle_beta                 90
_cell_angle_gamma                120
_cell_volume                     3461.6
loop_
_atom_site_label
_atom_site_type_symbol
_atom_site_fract_x
_atom_site_fract_y
_atom_site_fract_z
O5 O 0.5699(4) 0.2377(4) 0.1380(8)
O6 O 0.5936(5) 0.0302(4) 0.1451(7)
O7 O 0.4920(6) 0.2820(4) 0.2313(7)
N2 N 0.5058(5) 0.0941(5) 0.2403(8)
C4 C 0.5146(6) 0.2286(6) 0.2136(10)
C5 C 0.4696(6) 0.1451(6) 0.2768(9)
H2 H 0.409906 0.115647 0.250487
C6 C 0.4793(6) 0.0165(6) 0.2678(9)
H6 H 0.686051 0.019583 0.446229
C9 C 0.4676(6) 0.1557(7) 0.4080(11)
H8 H 0.431122 0.099583 0.441473
H9 H 0.440972 0.190077 0.423419
C10 C 0.6040(13) 0.1246(14) 0.480(2)
H10 H 0.658397 0.147893 0.518322
H11 H 0.562504 0.073840 0.519519
H12 H 0.609601 0.110559 0.401755
S1 S 0.56884(19) 0.20397(18) 0.4807(4)
Cu8 Cu 0.59612(7) 0.14286(6) 0.12945(9)
Cu12 Cu 0.54674(9) 0.40388(7) 0.12945(9)
Ca4 Ca 0.666667 0.333333 0.9880(3)
Cu1 Cu 0.41244(7) 0.85632(6) 0.34707(10)
Cu2 Cu 0.40388(7) 0.85714(6) 0.62945(9)
Ca1 Ca 0.333333 0.666667 0.4880(3)
O1 O 0.3468(3) 0.8137(3) 0.4874(7)
O2 O 0.4313(4) 0.7580(4) 0.3390(7)
O3 O 0.4190(4) 0.9688(4) 0.3355(8)
O4 O 0.5052(7) 0.7098(5) 0.2446(7)
N1 N 0.5108(5) 0.9069(5) 0.2526(8)
C1 C 0.4919(6) 0.7673(6) 0.2731(8)
C2 C 0.5527(6) 0.8583(6) 0.2298(9)
H1 H 0.563350 0.857821 0.146939
C3 C 0.5326(6) 0.9819(6) 0.2157(9)
C7 C 0.6365(8) 0.8943(9) 0.2974(14)
H3 H 0.671245 0.955208 0.281835
H4 H 0.668029 0.866914 0.270766
C8 C 0.6303(13) 0.9758(13) 0.4712(18)
H5 H 0.623585 0.983073 0.551916
H7 H 0.587103 0.980089 0.428093
S2 S 0.6201(5) 0.8786(4) 0.4492(6)
Cu3 Cu 0.14368(6) 0.55612(9) 0.34707(10)
Cu4 Cu 0.14286(6) 0.54674(9) 0.62945(9)
O8 O 0.1863(3) 0.5331(4) 0.4874(7)
O9 O 0.2420(4) 0.6733(6) 0.3390(7)
O10 O 0.0312(4) 0.4502(6) 0.3355(8)
O11 O 0.2902(5) 0.7954(9) 0.2446(7)
N3 N 0.0931(5) 0.6039(7) 0.2526(8)
C11 C 0.2327(6) 0.7246(8) 0.2731(8)
C12 C 0.1417(6) 0.6944(8) 0.2298(9)
H13 H 0.142179 0.705529 0.146939
C13 C 0.0181(6) 0.5507(8) 0.2157(9)
C17 C 0.1057(9) 0.7422(12) 0.2974(14)
H15 H 0.044792 0.716037 0.281835
H16 H 0.133086 0.801115 0.270766
C18 C 0.0242(13) 0.6545(18) 0.4712(18)
H17 H 0.016927 0.640512 0.551916
H19 H 0.019911 0.607014 0.428093
S4 S 0.1214(4) 0.7415(6) 0.4492(6)
Cu5 Cu 0.44388(9) 0.58756(7) 0.34707(10)
Cu6 Cu 0.45326(9) 0.59612(7) 0.62945(9)
O15 O 0.4669(4) 0.6532(3) 0.4874(7)
O16 O 0.3267(6) 0.5687(4) 0.3390(7)
O17 O 0.5498(6) 0.5810(4) 0.3355(8)
O18 O 0.2046(9) 0.4948(7) 0.2446(7)
O19 O 0.6678(6) 0.4301(4) 0.1380(8)
O20 O 0.4366(6) 0.4064(5) 0.1451(7)
O21 O 0.7900(7) 0.5080(6) 0.2313(7)
N5 N 0.3961(7) 0.4892(5) 0.2526(8)
N6 N 0.5883(7) 0.4942(5) 0.2403(8)
C21 C 0.2754(8) 0.5081(6) 0.2731(8)
C22 C 0.3056(8) 0.4473(6) 0.2298(9)
H25 H 0.294471 0.436650 0.146939
C23 C 0.4493(8) 0.4674(6) 0.2157(9)
C24 C 0.7140(8) 0.4854(6) 0.2136(10)
C25 C 0.6755(8) 0.5304(6) 0.2768(9)
H26 H 0.705741 0.590094 0.250487
C26 C 0.5372(8) 0.5207(6) 0.2678(9)
C27 C 0.2578(12) 0.3635(8) 0.2974(14)
H27 H 0.283963 0.328755 0.281835
H28 H 0.198885 0.331971 0.270766
C28 C 0.3455(18) 0.3697(13) 0.4712(18)
H29 H 0.359488 0.376415 0.551916
H30 H 0.333532 0.313949 0.446229
H31 H 0.392986 0.412897 0.428093
C29 C 0.6881(9) 0.5324(6) 0.4080(11)
H32 H 0.668461 0.568878 0.441473
H33 H 0.749105 0.559028 0.423419
C30 C 0.5206(19) 0.3960(13) 0.480(2)
H34 H 0.489496 0.341603 0.518322
H35 H 0.511336 0.437496 0.519519
H36 H 0.500958 0.390399 0.401755
S5 S 0.63513(26) 0.43116(19) 0.4807(4)
S6 S 0.2585(6) 0.3799(5) 0.4492(6)
Cu10 Cu 0.85714(6) 0.45326(9) 0.12945(9)
O22 O 0.4301(4) 0.7623(4) 0.6380(8)
O23 O 0.2377(4) 0.6678(6) 0.6380(8)
O24 O 0.3322(6) 0.5699(4) 0.6380(8)
O25 O 0.4064(5) 0.9698(4) 0.6451(7)
O26 O 0.0302(4) 0.4366(6) 0.6451(7)
O27 O 0.5634(6) 0.5936(5) 0.6451(7)
O28 O 0.5080(6) 0.7180(4) 0.7313(7)
O29 O 0.2820(4) 0.7900(7) 0.7313(7)
O30 O 0.2100(7) 0.4920(6) 0.7313(7)
N7 N 0.4942(5) 0.9059(5) 0.7403(8)
N8 N 0.0941(5) 0.5883(7) 0.7403(8)
N9 N 0.4117(7) 0.5058(5) 0.7403(8)
O12 O 0.7623(4) 0.3322(6) 0.1380(8)
O13 O 0.9698(4) 0.5634(6) 0.1451(7)
O14 O 0.7180(4) 0.2100(7) 0.2313(7)
N4 N 0.9059(5) 0.4117(7) 0.2403(8)
C14 C 0.7714(6) 0.2860(8) 0.2136(10)
C15 C 0.8549(6) 0.3245(8) 0.2768(9)
H14 H 0.884353 0.294259 0.250487
C16 C 0.9835(6) 0.4628(8) 0.2678(9)
H18 H 0.980417 0.666468 0.446229
C19 C 0.8443(7) 0.3119(9) 0.4080(11)
H20 H 0.900417 0.331539 0.441473
H21 H 0.809923 0.250895 0.423419
C20 C 0.8754(14) 0.4794(19) 0.480(2)
H22 H 0.852107 0.510504 0.518322
H23 H 0.926160 0.488664 0.519519
H24 H 0.889441 0.499042 0.401755
S3 S 0.79603(18) 0.36487(26) 0.4807(4)
C14_2 C 0.2286(6) 0.7140(8) 0.7136(10)
C15_2 C 0.1451(6) 0.6755(8) 0.7768(9)
H14_2 H 0.115647 0.705741 0.750487
C16_2 C 0.0165(6) 0.5372(8) 0.7678(9)
H18_2 H 0.019583 0.333532 0.946229
C19_2 C 0.1557(7) 0.6881(9) 0.9080(11)
H20_2 H 0.099583 0.668461 0.941473
H21_2 H 0.190077 0.749105 0.923419
C20_2 C 0.1246(14) 0.5206(19) 0.980(2)
H24_2 H 0.110559 0.500958 0.901755
S3_2 S 0.20397(18) 0.63513(26) 0.9807(4)
H5_2 H 0.376415 0.016927 0.051916
H17_2 H 0.983073 0.359488 0.051916
H29_2 H 0.640512 0.623585 0.051916
H34_2 H 0.510504 0.658397 0.018322
H35_2 H 0.488664 0.562504 0.019519
Cu1_2 Cu 0.58756(7) 0.14368(6) 0.84707(10)
O1_2 O 0.6532(3) 0.1863(3) 0.9874(7)
O2_2 O 0.5687(4) 0.2420(4) 0.8390(7)
O3_2 O 0.5810(4) 0.0312(4) 0.8355(8)
O4_2 O 0.4948(7) 0.2902(5) 0.7446(7)
N1_2 N 0.4892(5) 0.0931(5) 0.7526(8)
C1_2 C 0.5081(6) 0.2327(6) 0.7731(8)
C2_2 C 0.4473(6) 0.1417(6) 0.7298(9)
H1_2 H 0.436650 0.142179 0.646939
C3_2 C 0.4674(6) 0.0181(6) 0.7157(9)
C7_2 C 0.3635(8) 0.1057(9) 0.7974(14)
H3_2 H 0.328755 0.044792 0.781835
H4_2 H 0.331971 0.133086 0.770766
C8_2 C 0.3697(13) 0.0242(13) 0.9712(18)
H7_2 H 0.412897 0.019911 0.928093
S2_2 S 0.3799(5) 0.1214(4) 0.9492(6)
Cu3_2 Cu 0.85632(6) 0.44388(9) 0.84707(10)
O8_2 O 0.8137(3) 0.4669(4) 0.9874(7)
O9_2 O 0.7580(4) 0.3267(6) 0.8390(7)
O10_2 O 0.9688(4) 0.5498(6) 0.8355(8)
O11_2 O 0.7098(5) 0.2046(9) 0.7446(7)
N3_2 N 0.9069(5) 0.3961(7) 0.7526(8)
C11_2 C 0.7673(6) 0.2754(8) 0.7731(8)
C12_2 C 0.8583(6) 0.3056(8) 0.7298(9)
H13_2 H 0.857821 0.294471 0.646939
C13_2 C 0.9819(6) 0.4493(8) 0.7157(9)
C17_2 C 0.8943(9) 0.2578(12) 0.7974(14)
H15_2 H 0.955208 0.283963 0.781835
H16_2 H 0.866914 0.198885 0.770766
C18_2 C 0.9758(13) 0.3455(18) 0.9712(18)
H19_2 H 0.980089 0.392986 0.928093
S4_2 S 0.8786(4) 0.2585(6) 0.9492(6)
Cu5_2 Cu 0.55612(9) 0.41244(7) 0.84707(10)
O15_2 O 0.5331(4) 0.3468(3) 0.9874(7)
O16_2 O 0.6733(6) 0.4313(4) 0.8390(7)
O17_2 O 0.4502(6) 0.4190(4) 0.8355(8)
O18_2 O 0.7954(9) 0.5052(7) 0.7446(7)
N5_2 N 0.6039(7) 0.5108(5) 0.7526(8)
C21_2 C 0.7246(8) 0.4919(6) 0.7731(8)
C22_2 C 0.6944(8) 0.5527(6) 0.7298(9)
H25_2 H 0.705529 0.563350 0.646939
C23_2 C 0.5507(8) 0.5326(6) 0.7157(9)
C24_2 C 0.2860(8) 0.5146(6) 0.7136(10)
C25_2 C 0.3245(8) 0.4696(6) 0.7768(9)
H26_2 H 0.294259 0.409906 0.750487
C26_2 C 0.4628(8) 0.4793(6) 0.7678(9)
C27_2 C 0.7422(12) 0.6365(8) 0.7974(14)
H27_2 H 0.716037 0.671245 0.781835
H28_2 H 0.801115 0.668029 0.770766
C28_2 C 0.6545(18) 0.6303(13) 0.9712(18)
H30_2 H 0.666468 0.686051 0.946229
H31_2 H 0.607014 0.587103 0.928093
C29_2 C 0.3119(9) 0.4676(6) 0.9080(11)
H32_2 H 0.331539 0.431122 0.941473
H33_2 H 0.250895 0.440972 0.923419
C30_2 C 0.4794(19) 0.6040(13) 0.980(2)
H36_2 H 0.499042 0.609601 0.901755
S5_2 S 0.36487(26) 0.56884(19) 0.9807(4)
S6_2 S 0.7415(6) 0.6201(5) 0.9492(6)
C4_2 C 0.4854(6) 0.7714(6) 0.7136(10)
C5_2 C 0.5304(6) 0.8549(6) 0.7768(9)
H2_2 H 0.590094 0.884353 0.750487
C6_2 C 0.5207(6) 0.9835(6) 0.7678(9)
H6_2 H 0.313949 0.980417 0.946229
C9_2 C 0.5324(6) 0.8443(7) 0.9080(11)
H8_2 H 0.568878 0.900417 0.941473
H9_2 H 0.559028 0.809923 0.923419
C10_2 C 0.3960(13) 0.8754(14) 0.980(2)
H12_2 H 0.390399 0.889441 0.901755
S1_2 S 0.43116(19) 0.79603(18) 0.9807(4)
H22_2 H 0.147893 0.489496 0.018322
H23_2 H 0.073840 0.511336 0.019519
H10_2 H 0.341603 0.852107 0.018322
H11_2 H 0.437496 0.926160 0.019519
loop_
_geom_bond_atom_site_label_1
_geom_bond_atom_site_label_2
_geom_bond_site_symmetry_1
_geom_bond_site_symmetry_2
O5 C4 1_555 1_555
O7 C4 1_555 1_555
N2 C5 1_555 1_555
C4 C5 1_555 1_555
C5 H2 1_555 1_555
C9 C5 1_555 1_555
H8 C9 1_555 1_555
H9 C9 1_555 1_555
C10 H10 1_555 1_555
H11 C10 1_555 1_555
H12 C10 1_555 1_555
S1 C9 1_555 1_555
Cu8 O5 1_555 1_555
Cu12 O7 1_555 1_555
O6 Cu8 1_555 1_555
N2 C6 1_555 1_555
N2 Cu8 1_555 1_555
C10 S1 1_555 1_555
Cu1 O1 1_555 1_555
Cu2 O1 1_555 1_555
Ca1 O1 1_555 1_555
O2 Cu1 1_555 1_555
O3 Cu1 1_555 1_555
O4 C1 1_555 1_555
N1 Cu1 1_555 1_555
C1 O2 1_555 1_555
C2 N1 1_555 1_555
H1 C2 1_555 1_555
C3 N1 1_555 1_555
C7 C2 1_555 1_555
H3 C7 1_555 1_555
H4 C7 1_555 1_555
C8 H5 1_555 1_555
H7 C8 1_555 1_555
S2 C7 1_555 1_555
Cu3 O8 1_555 1_555
Cu4 O8 1_555 1_555
O8 Ca1 1_555 1_555
O9 Ca1 1_555 1_555
O10 Cu3 1_555 1_555
O11 Cu1 1_555 1_555
N3 Cu3 1_555 1_555
C11 O9 1_555 1_555
C12 N3 1_555 1_555
H13 C12 1_555 1_555
C13 N3 1_555 1_555
C17 C12 1_555 1_555
H15 C17 1_555 1_555
H16 C17 1_555 1_555
C18 H17 1_555 1_555
H19 C18 1_555 1_555
S4 C17 1_555 1_555
Cu5 O4 1_555 1_555
Cu6 O15 1_555 1_555
O15 Ca1 1_555 1_555
O16 Ca1 1_555 1_555
O17 Cu5 1_555 1_555
O18 Cu3 1_555 1_555
O19 C24 1_555 1_555
O20 C23 1_555 1_555
O21 C24 1_555 1_555
N5 Cu5 1_555 1_555
N6 C25 1_555 1_555
C21 O16 1_555 1_555
C22 N5 1_555 1_555
H25 C22 1_555 1_555
C23 N5 1_555 1_555
C24 C25 1_555 1_555
C25 H26 1_555 1_555
C26 O17 1_555 1_555
C27 C22 1_555 1_555
H27 C27 1_555 1_555
H28 C27 1_555 1_555
C28 H29 1_555 1_555
H30 C28 1_555 1_555
H31 C28 1_555 1_555
C29 C25 1_555 1_555
H32 C29 1_555 1_555
H33 C29 1_555 1_555
C30 H34 1_555 1_555
H35 C30 1_555 1_555
H36 C30 1_555 1_555
S5 C29 1_555 1_555
S6 C27 1_555 1_555
Cu10 O21 1_555 1_555
Cu12 O19 1_555 1_555
O22 Cu2 1_555 1_555
O23 Ca1 1_555 1_555
O24 Ca1 1_555 1_555
O25 Cu2 1_555 1_555
O26 Cu4 1_555 1_555
O27 Cu6 1_555 1_555
O28 Cu6 1_555 1_555
O29 Cu2 1_555 1_555
O30 Cu4 1_555 1_555
N7 Cu2 1_555 1_555
N8 Cu4 1_555 1_555
N9 Cu6 1_555 1_555
Ca1 O2 1_555 1_555
Ca1 O22 1_555 1_555
C1 C2 1_555 1_555
C8 S2 1_555 1_555
Cu3 O9 1_555 1_555
Cu4 O23 1_555 1_555
O11 C11 1_555 1_555
C11 C12 1_555 1_555
C18 S4 1_555 1_555
Cu5 O15 1_555 1_555
Cu5 O16 1_555 1_555
Cu6 O24 1_555 1_555
O18 C21 1_555 1_555
O20 Cu12 1_555 1_555
N6 C26 1_555 1_555
N6 Cu12 1_555 1_555
C21 C22 1_555 1_555
C23 C26 1_555 1_555
C28 S6 1_555 1_555
C30 S5 1_555 1_555
O12 C14 1_555 1_555
O14 C14 1_555 1_555
N4 C15 1_555 1_555
C14 C15 1_555 1_555
C15 H14 1_555 1_555
C19 C15 1_555 1_555
H20 C19 1_555 1_555
H21 C19 1_555 1_555
C20 H22 1_555 1_555
H23 C20 1_555 1_555
H24 C20 1_555 1_555
S3 C19 1_555 1_555
Cu8 O14 1_555 1_555
Cu10 O12 1_555 1_555
O13 Cu10 1_555 1_555
N4 C16 1_555 1_555
N4 Cu10 1_555 1_555
C20 S3 1_555 1_555
O23 C14_2 1_555 1_555
O29 C14_2 1_555 1_555
N8 C15_2 1_555 1_555
C14_2 C15_2 1_555 1_555
C15_2 H14_2 1_555 1_555
C19_2 C15_2 1_555 1_555
H20_2 C19_2 1_555 1_555
H21_2 C19_2 1_555 1_555
H24_2 C20_2 1_555 1_555
S3_2 C19_2 1_555 1_555
N8 C16_2 1_555 1_555
C20_2 S3_2 1_555 1_555
Cu1_2 O1_2 1_555 1_555
Ca4 O1_2 1_555 1_555
O2_2 Cu1_2 1_555 1_555
O3_2 Cu1_2 1_555 1_555
O4_2 C1_2 1_555 1_555
N1_2 Cu1_2 1_555 1_555
C1_2 O2_2 1_555 1_555
C2_2 N1_2 1_555 1_555
H1_2 C2_2 1_555 1_555
C3_2 N1_2 1_555 1_555
C7_2 C2_2 1_555 1_555
H3_2 C7_2 1_555 1_555
H4_2 C7_2 1_555 1_555
H7_2 C8_2 1_555 1_555
S2_2 C7_2 1_555 1_555
Cu3_2 O8_2 1_555 1_555
O8_2 Ca4 1_555 1_555
O9_2 Ca4 1_555 1_555
O10_2 Cu3_2 1_555 1_555
O11_2 Cu1_2 1_555 1_555
N3_2 Cu3_2 1_555 1_555
C11_2 O9_2 1_555 1_555
C12_2 N3_2 1_555 1_555
H13_2 C12_2 1_555 1_555
C13_2 N3_2 1_555 1_555
C17_2 C12_2 1_555 1_555
H15_2 C17_2 1_555 1_555
H16_2 C17_2 1_555 1_555
H19_2 C18_2 1_555 1_555
S4_2 C17_2 1_555 1_555
Cu5_2 O4_2 1_555 1_555
O15_2 Ca4 1_555 1_555
O16_2 Ca4 1_555 1_555
O17_2 Cu5_2 1_555 1_555
O18_2 Cu3_2 1_555 1_555
O24 C24_2 1_555 1_555
O27 C23_2 1_555 1_555
O30 C24_2 1_555 1_555
N5_2 Cu5_2 1_555 1_555
N9 C25_2 1_555 1_555
C21_2 O16_2 1_555 1_555
C22_2 N5_2 1_555 1_555
H25_2 C22_2 1_555 1_555
C23_2 N5_2 1_555 1_555
C24_2 C25_2 1_555 1_555
C25_2 H26_2 1_555 1_555
C26_2 O17_2 1_555 1_555
C27_2 C22_2 1_555 1_555
H27_2 C27_2 1_555 1_555
H28_2 C27_2 1_555 1_555
H30_2 C28_2 1_555 1_555
H31_2 C28_2 1_555 1_555
C29_2 C25_2 1_555 1_555
H32_2 C29_2 1_555 1_555
H33_2 C29_2 1_555 1_555
H36_2 C30_2 1_555 1_555
S5_2 C29_2 1_555 1_555
S6_2 C27_2 1_555 1_555
Ca4 O2_2 1_555 1_555
C1_2 C2_2 1_555 1_555
C8_2 S2_2 1_555 1_555
Cu3_2 O9_2 1_555 1_555
O11_2 C11_2 1_555 1_555
C11_2 C12_2 1_555 1_555
C18_2 S4_2 1_555 1_555
Cu5_2 O15_2 1_555 1_555
Cu5_2 O16_2 1_555 1_555
O18_2 C21_2 1_555 1_555
N9 C26_2 1_555 1_555
C21_2 C22_2 1_555 1_555
C23_2 C26_2 1_555 1_555
C28_2 S6_2 1_555 1_555
C30_2 S5_2 1_555 1_555
O22 C4_2 1_555 1_555
O28 C4_2 1_555 1_555
N7 C5_2 1_555 1_555
C4_2 C5_2 1_555 1_555
C5_2 H2_2 1_555 1_555
C9_2 C5_2 1_555 1_555
H8_2 C9_2 1_555 1_555
H9_2 C9_2 1_555 1_555
H12_2 C10_2 1_555 1_555
S1_2 C9_2 1_555 1_555
N7 C6_2 1_555 1_555
C10_2 S1_2 1_555 1_555

#END
