
###############################################################################
#
# This file contains modified crystal structure data generated from the
# MOF subset of the Cambridge Structural Database (CSD) v543 
# hosted by the Cambridge Crystallographic Data Centre (CCDC).
#
# This work is licensed under the Creative Commons
# Attribution-NonCommercial-ShareAlike 4.0 International License.
# To view a copy of this license, visit
# http://creativecommons.org/licenses/by-nc-sa/4.0/
# or send a letter to
# Creative Commons, PO Box 1866, Mountain View, CA 94042, USA.
#
# CIF created using the CSD Python API on 29 September 2022
# The structure has been converted into the P1 space group
# The structure has a 3D framework
# The original CSD entry YELREP is in the monoclinic crystal system
# The framework has been calculated to contain at least 10.0% void space
# The void calculation uses a probe of radius 1.32A, grid spacing 0.4
#
###############################################################################

data_YELREP
_chemical_formula_moiety         '(C48 H24 N24 O16 Zn2)n'
_symmetry_cell_setting           triclinic
_symmetry_space_group_name_H-M   'P 1'
_symmetry_Int_Tables_number      1
_space_group_name_Hall           'P 1'
loop_
_symmetry_equiv_pos_site_id
_symmetry_equiv_pos_as_xyz
1 x,y,z
_cell_length_a                   11.4591(5)
_cell_length_b                   16.6924(5)
_cell_length_c                   13.1556(5)
_cell_angle_alpha                90
_cell_angle_beta                 101.234(4)
_cell_angle_gamma                90
_cell_volume                     2468.19
loop_
_atom_site_label
_atom_site_type_symbol
_atom_site_fract_x
_atom_site_fract_y
_atom_site_fract_z
N2 N 0.1230(2) 0.00570(15) 0.32554(19)
C6 C 0.2423(4) 0.0054(3) 0.3311(4)
H3 H 0.282251 0.046921 0.305374
Zn2 Zn 0.000000 0.08207(3) 0.250000
Zn1 Zn 0.500000 0.58207(3) 0.250000
O1 O 0.4258(2) 0.65990(13) 0.32821(17)
N1 N 0.2056(2) 0.89956(15) 0.40194(19)
O2 O 0.3668(3) 0.55876(15) 0.4133(2)
C1 C 0.3748(3) 0.63049(18) 0.3964(2)
C2 C 0.1044(3) 0.93762(18) 0.3710(2)
H1 H 0.030382 0.919228 0.379810
C3 C 0.2273(3) 0.82422(18) 0.4547(2)
C4 C 0.2901(3) 0.76750(18) 0.4105(2)
H2 H 0.316650 0.780212 0.350036
N3 N 0.2967(3) 0.9419(2) 0.3758(3)
C5 C 0.3146(3) 0.69187(18) 0.4542(2)
O3 O 0.0742(2) 0.84010(13) 0.67179(17)
N4 N 0.2944(2) 0.60044(15) 0.59806(19)
N5 N 0.3770(2) 0.49430(15) 0.67446(19)
O4 O 0.1332(3) 0.94124(15) 0.5867(2)
C7 C 0.1252(3) 0.86951(18) 0.6036(2)
C8 C 0.3956(3) 0.56238(18) 0.6290(2)
H4 H 0.469618 0.580772 0.620190
C9 C 0.2727(3) 0.67578(18) 0.5453(2)
C10 C 0.2099(3) 0.73250(18) 0.5895(2)
H5 H 0.183350 0.719788 0.649964
N6 N 0.2033(3) 0.5581(2) 0.6242(3)
C11 C 0.1854(3) 0.80813(18) 0.5458(2)
C12 C 0.2577(4) 0.4946(3) 0.6689(4)
H6 H 0.217749 0.453079 0.694626
Zn3 Zn 0.500000 0.41793(3) 0.750000
Zn4 Zn 0.000000 0.91793(3) 0.750000
O5 O 0.5742(2) 0.65990(13) 0.17179(17)
N7 N 0.6230(2) 0.50570(15) 0.32554(19)
N8 N 0.3770(2) 0.50570(15) 0.17446(19)
Zn2_2 Zn 1.000000 0.08207(3) 0.250000
Zn4_2 Zn 1.000000 0.91793(3) 0.750000
N2_2 N 0.8770(2) 0.00570(15) 0.17446(19)
C6_2 C 0.7577(4) 0.0054(3) 0.1689(4)
H3_2 H 0.717749 0.046921 0.194626
N1_2 N 0.7944(2) 0.89956(15) 0.09806(19)
O2_2 O 0.6332(3) 0.55876(15) 0.0867(2)
C1_2 C 0.6252(3) 0.63049(18) 0.1036(2)
C2_2 C 0.8956(3) 0.93762(18) 0.1290(2)
H1_2 H 0.969618 0.919228 0.120190
C3_2 C 0.7727(3) 0.82422(18) 0.0453(2)
C4_2 C 0.7099(3) 0.76750(18) 0.0895(2)
H2_2 H 0.683350 0.780212 0.149964
N3_2 N 0.7033(3) 0.9419(2) 0.1242(3)
C5_2 C 0.6854(3) 0.69187(18) 0.0458(2)
O3_2 O 0.9258(2) 0.84010(13) 0.82821(17)
N4_2 N 0.7056(2) 0.60044(15) 0.90194(19)
N5_2 N 0.6230(2) 0.49430(15) 0.82554(19)
O4_2 O 0.8668(3) 0.94124(15) 0.9133(2)
C7_2 C 0.8748(3) 0.86951(18) 0.8964(2)
C8_2 C 0.6044(3) 0.56238(18) 0.8710(2)
H4_2 H 0.530382 0.580772 0.879810
C9_2 C 0.7273(3) 0.67578(18) 0.9547(2)
C10_2 C 0.7901(3) 0.73250(18) 0.9105(2)
H5_2 H 0.816650 0.719788 0.850036
N6_2 N 0.7967(3) 0.5581(2) 0.8758(3)
C11_2 C 0.8146(3) 0.80813(18) 0.9542(2)
C12_2 C 0.7423(4) 0.4946(3) 0.8311(4)
H6_2 H 0.782251 0.453079 0.805374
O5_2 O 0.0742(2) 0.15990(13) 0.17179(17)
O1_2 O 0.9258(2) 0.15990(13) 0.32821(17)
N1_3 N 0.7056(2) 0.39956(15) 0.40194(19)
O2_3 O 0.8668(3) 0.05876(15) 0.4133(2)
C1_3 C 0.8748(3) 0.13049(18) 0.3964(2)
C2_3 C 0.6044(3) 0.43762(18) 0.3710(2)
H1_3 H 0.530382 0.419228 0.379810
C3_3 C 0.7273(3) 0.32422(18) 0.4547(2)
C4_3 C 0.7901(3) 0.26750(18) 0.4105(2)
H2_3 H 0.816650 0.280212 0.350036
N3_3 N 0.7967(3) 0.4419(2) 0.3758(3)
C5_3 C 0.8146(3) 0.19187(18) 0.4542(2)
C6_3 C 0.7423(4) 0.5054(3) 0.3311(4)
H3_3 H 0.782251 0.546921 0.305374
O3_3 O 0.5742(2) 0.34010(13) 0.67179(17)
N4_3 N 0.7944(2) 0.10044(15) 0.59806(19)
O4_3 O 0.6332(3) 0.44124(15) 0.5867(2)
C7_3 C 0.6252(3) 0.36951(18) 0.6036(2)
C8_3 C 0.8956(3) 0.06238(18) 0.6290(2)
H4_3 H 0.969618 0.080772 0.620190
C9_3 C 0.7727(3) 0.17578(18) 0.5453(2)
C10_3 C 0.7099(3) 0.23250(18) 0.5895(2)
H5_3 H 0.683350 0.219788 0.649964
N6_3 N 0.7033(3) 0.0581(2) 0.6242(3)
C11_3 C 0.6854(3) 0.30813(18) 0.5458(2)
N5_3 N 0.8770(2) 0.99430(15) 0.67446(19)
C12_3 C 0.7577(4) 0.9946(3) 0.6689(4)
H6_3 H 0.717749 0.953079 0.694626
N1_4 N 0.2944(2) 0.39956(15) 0.09806(19)
O2_4 O 0.1332(3) 0.05876(15) 0.0867(2)
C1_4 C 0.1252(3) 0.13049(18) 0.1036(2)
C2_4 C 0.3956(3) 0.43762(18) 0.1290(2)
H1_4 H 0.469618 0.419228 0.120190
C3_4 C 0.2727(3) 0.32422(18) 0.0453(2)
C4_4 C 0.2099(3) 0.26750(18) 0.0895(2)
H2_4 H 0.183350 0.280212 0.149964
N3_4 N 0.2033(3) 0.4419(2) 0.1242(3)
C5_4 C 0.1854(3) 0.19187(18) 0.0458(2)
C6_4 C 0.2577(4) 0.5054(3) 0.1689(4)
H3_4 H 0.217749 0.546921 0.194626
O3_4 O 0.4258(2) 0.34010(13) 0.82821(17)
N4_4 N 0.2056(2) 0.10044(15) 0.90194(19)
O4_4 O 0.3668(3) 0.44124(15) 0.9133(2)
C7_4 C 0.3748(3) 0.36951(18) 0.8964(2)
C8_4 C 0.1044(3) 0.06238(18) 0.8710(2)
H4_4 H 0.030382 0.080772 0.879810
C9_4 C 0.2273(3) 0.17578(18) 0.9547(2)
C10_4 C 0.2901(3) 0.23250(18) 0.9105(2)
H5_4 H 0.316650 0.219788 0.850036
N6_4 N 0.2967(3) 0.0581(2) 0.8758(3)
C11_4 C 0.3146(3) 0.30813(18) 0.9542(2)
N5_4 N 0.1230(2) 0.99430(15) 0.82554(19)
C12_4 C 0.2423(4) 0.9946(3) 0.8311(4)
H6_4 H 0.282251 0.953079 0.805374
loop_
_geom_bond_atom_site_label_1
_geom_bond_atom_site_label_2
_geom_bond_site_symmetry_1
_geom_bond_site_symmetry_2
C6 N2 1_555 1_555
H3 C6 1_555 1_555
Zn2 N2 1_555 1_555
Zn1 O1 1_555 1_555
O1 C1 1_555 1_555
N1 C2 1_555 1_555
O2 C1 1_555 1_555
C1 C5 1_555 1_555
C2 H1 1_555 1_555
C3 N1 1_555 1_555
C4 C3 1_555 1_555
H2 C4 1_555 1_555
N3 N1 1_555 1_555
C5 C4 1_555 1_555
O3 C7 1_555 1_555
N4 C8 1_555 1_555
N5 C8 1_555 1_555
O4 C7 1_555 1_555
C7 C11 1_555 1_555
C8 H4 1_555 1_555
C9 C5 1_555 1_555
C10 C9 1_555 1_555
H5 C10 1_555 1_555
N6 N4 1_555 1_555
C11 C3 1_555 1_555
C12 N5 1_555 1_555
H6 C12 1_555 1_555
Zn3 N5 1_555 1_555
Zn4 O3 1_555 1_555
O5 Zn1 1_555 1_555
N7 Zn1 1_555 1_555
N8 Zn1 1_555 1_555
N4 C9 1_555 1_555
C10 C11 1_555 1_555
N6 C12 1_555 1_555
C6_2 N2_2 1_555 1_555
H3_2 C6_2 1_555 1_555
Zn2_2 N2_2 1_555 1_555
O5 C1_2 1_555 1_555
N1_2 C2_2 1_555 1_555
O2_2 C1_2 1_555 1_555
C1_2 C5_2 1_555 1_555
C2_2 H1_2 1_555 1_555
C3_2 N1_2 1_555 1_555
C4_2 C3_2 1_555 1_555
H2_2 C4_2 1_555 1_555
N3_2 N1_2 1_555 1_555
C5_2 C4_2 1_555 1_555
O3_2 C7_2 1_555 1_555
N4_2 C8_2 1_555 1_555
N5_2 C8_2 1_555 1_555
O4_2 C7_2 1_555 1_555
C7_2 C11_2 1_555 1_555
C8_2 H4_2 1_555 1_555
C10_2 C9_2 1_555 1_555
H5_2 C10_2 1_555 1_555
N6_2 N4_2 1_555 1_555
C12_2 N5_2 1_555 1_555
H6_2 C12_2 1_555 1_555
Zn3 N5_2 1_555 1_555
Zn4_2 O3_2 1_555 1_555
N4_2 C9_2 1_555 1_555
C10_2 C11_2 1_555 1_555
N6_2 C12_2 1_555 1_555
O5_2 Zn2 1_555 1_555
Zn2_2 O1_2 1_555 1_555
O1_2 C1_3 1_555 1_555
N1_3 C2_3 1_555 1_555
N7 C2_3 1_555 1_555
O2_3 C1_3 1_555 1_555
C1_3 C5_3 1_555 1_555
C2_3 H1_3 1_555 1_555
C3_3 N1_3 1_555 1_555
C4_3 C3_3 1_555 1_555
H2_3 C4_3 1_555 1_555
N3_3 N1_3 1_555 1_555
C5_3 C4_3 1_555 1_555
C6_3 N7 1_555 1_555
H3_3 C6_3 1_555 1_555
O3_3 C7_3 1_555 1_555
N4_3 C8_3 1_555 1_555
O4_3 C7_3 1_555 1_555
C7_3 C11_3 1_555 1_555
C8_3 H4_3 1_555 1_555
C9_3 C5_3 1_555 1_555
C10_3 C9_3 1_555 1_555
H5_3 C10_3 1_555 1_555
N6_3 N4_3 1_555 1_555
C11_3 C3_3 1_555 1_555
Zn3 O3_3 1_555 1_555
N3_3 C6_3 1_555 1_555
N4_3 C9_3 1_555 1_555
C10_3 C11_3 1_555 1_555
C12_3 N5_3 1_555 1_555
H6_3 C12_3 1_555 1_555
Zn4_2 N5_3 1_555 1_555
O5_2 C1_4 1_555 1_555
N1_4 C2_4 1_555 1_555
N8 C2_4 1_555 1_555
O2_4 C1_4 1_555 1_555
C1_4 C5_4 1_555 1_555
C2_4 H1_4 1_555 1_555
C3_4 N1_4 1_555 1_555
C4_4 C3_4 1_555 1_555
H2_4 C4_4 1_555 1_555
N3_4 N1_4 1_555 1_555
C5_4 C4_4 1_555 1_555
C6_4 N8 1_555 1_555
H3_4 C6_4 1_555 1_555
N3_4 C6_4 1_555 1_555
O3_4 C7_4 1_555 1_555
N4_4 C8_4 1_555 1_555
O4_4 C7_4 1_555 1_555
C7_4 C11_4 1_555 1_555
C8_4 H4_4 1_555 1_555
C10_4 C9_4 1_555 1_555
H5_4 C10_4 1_555 1_555
N6_4 N4_4 1_555 1_555
Zn3 O3_4 1_555 1_555
N4_4 C9_4 1_555 1_555
C10_4 C11_4 1_555 1_555
C12_4 N5_4 1_555 1_555
H6_4 C12_4 1_555 1_555
Zn4 N5_4 1_555 1_555

#END
