
###############################################################################
#
# This file contains modified crystal structure data generated from the
# MOF subset of the Cambridge Structural Database (CSD) v543 
# hosted by the Cambridge Crystallographic Data Centre (CCDC).
#
# This work is licensed under the Creative Commons
# Attribution-NonCommercial-ShareAlike 4.0 International License.
# To view a copy of this license, visit
# http://creativecommons.org/licenses/by-nc-sa/4.0/
# or send a letter to
# Creative Commons, PO Box 1866, Mountain View, CA 94042, USA.
#
# CIF created using the CSD Python API on 29 September 2022
# The structure has been converted into the P1 space group
# The structure has a 3D framework
# The original CSD entry YELYOE is in the orthorhombic crystal system
# The framework has been calculated to contain at least 10.0% void space
# The void calculation uses a probe of radius 1.32A, grid spacing 0.4
# H atom positions have been added when not included in the experimental data
# Generated hydrogen atom positions removed from atoms on special positions
#
###############################################################################

data_YELYOE
_chemical_formula_moiety         '(C80 H48 Cd20 N32 O65)n'
_symmetry_cell_setting           triclinic
_symmetry_space_group_name_H-M   'P 1'
_symmetry_Int_Tables_number      1
_space_group_name_Hall           'P 1'
loop_
_symmetry_equiv_pos_site_id
_symmetry_equiv_pos_as_xyz
1 x,y,z
_cell_length_a                   14.268(3)
_cell_length_b                   16.017(4)
_cell_length_c                   15.721(3)
_cell_angle_alpha                90
_cell_angle_beta                 90
_cell_angle_gamma                90
_cell_volume                     3592.73
loop_
_atom_site_label
_atom_site_type_symbol
_atom_site_fract_x
_atom_site_fract_y
_atom_site_fract_z
C6 C 0.6231(10) 0.2500 0.0794(9)
H2 H 0.6756 0.2500 0.1145
C7 C 0.5083(7) 0.2935(6) 0.0038(6)
Cd2 Cd 0.60584(5) 0.45913(4) 0.06515(4)
N4 N 0.5824(6) 0.3202(5) 0.0522(5)
O9 O 0.3138(16) 0.2500 0.1037(16)
C17 C 0.5083(7) 0.2065(6) 0.0038(6)
Cd6 Cd 0.12518(5) 0.54364(4) 0.01931(4)
Cd9 Cd 0.60584(5) 0.04087(4) 0.06515(4)
N6 N 0.6361(5) 0.4793(5) 0.2051(5)
N7 N 0.6361(5) 0.0207(5) 0.2051(5)
N11 N 0.5824(6) 0.1798(5) 0.0522(5)
O11 O 0.7745(5) 0.4368(4) 0.0929(4)
O13 O 0.7745(5) 0.0632(4) 0.0929(4)
O25 O 0.5156(5) 0.5709(4) 0.0400(4)
C8 C 0.4486(7) 0.3575(6) 0.9610(6)
C9 C 0.0006(6) 0.2937(6) 0.9783(6)
C11 C 0.0747(7) 0.3593(6) 0.9792(8)
Cd3 Cd 0.26358(9) 0.2500 0.96315(14)
O5 O 0.1580(6) 0.3444(5) 0.9914(9)
O6 O 0.0447(5) 0.4329(4) 0.9708(5)
O7 O 0.4844(5) 0.4291(4) 0.9600(4)
O8 O 0.3713(6) 0.3427(5) 0.9300(6)
C18 C 0.4486(7) 0.1425(6) 0.9610(6)
C19 C 0.0006(6) 0.2063(6) 0.9783(6)
C20 C 0.0747(7) 0.1407(6) 0.9792(8)
Cd12 Cd 0.39416(5) 0.54087(4) 0.93485(4)
O17 O 0.7013(5) 0.4887(5) 0.9481(4)
O19 O 0.7013(5) 0.0113(5) 0.9481(4)
O20 O 0.1580(6) 0.1556(5) 0.9914(9)
O21 O 0.0447(5) 0.0671(4) 0.9708(5)
O24 O 0.4844(5) 0.0709(4) 0.9600(4)
O27 O 0.3713(6) 0.1573(5) 0.9300(6)
Cd7 Cd 0.12518(5) 0.95636(4) 0.01931(4)
O26 O 0.5156(5) 0.9291(4) 0.0400(4)
Cd13 Cd 0.39416(5) 0.95913(4) 0.93485(4)
C12 C 0.5905(7) 0.5039(7) 0.2758(6)
H4 H 0.5269 0.5163 0.2770
C13 C 0.7325(6) 0.4852(6) 0.3164(5)
C14 C 0.7264(6) 0.4662(6) 0.2305(5)
C15 C 0.8122(7) 0.4845(7) 0.3756(6)
C16 C 0.7987(7) 0.4425(6) 0.1680(6)
Cd8 Cd 0.62518(5) 0.54364(4) 0.48069(4)
Cd14 Cd 0.89416(5) 0.54087(4) 0.56515(4)
N8 N 0.6457(5) 0.5085(5) 0.3442(5)
O14 O 0.8816(4) 0.4309(6) 0.1943(5)
O15 O 0.8921(5) 0.4564(6) 0.3493(5)
O16 O 0.7987(5) 0.5113(5) 0.4481(4)
O22 O 0.9553(5) 0.5671(4) 0.0292(5)
H8 H 0.913935 0.490412 0.300349
C1 C 0.9095(7) 0.4961(7) 0.7758(6)
H1 H 0.9731 0.4837 0.7770
C2 C 0.7675(6) 0.5148(6) 0.8164(5)
C3 C 0.7736(6) 0.5338(6) 0.7305(5)
C4 C 0.6878(7) 0.5155(7) 0.8756(6)
C5 C 0.7013(7) 0.5575(6) 0.6680(6)
C10 C 0.8600(10) 0.2500 0.9795(10)
H3 H 0.7948 0.2500 0.9812
Cd1 Cd 0.87482(5) 0.45636(4) 0.98069(4)
N1 N 0.8639(5) 0.5207(5) 0.7051(5)
N2 N 0.8543(5) 0.4915(5) 0.8442(5)
N3 N 0.9096(6) 0.3196(5) 0.9782(5)
O1 O 0.7255(5) 0.5632(4) 0.5929(4)
O2 O 0.6184(4) 0.5691(6) 0.6943(5)
O3 O 0.6079(5) 0.5436(6) 0.8493(5)
Cd4 Cd 0.87482(5) 0.04364(4) 0.98069(4)
N9 N 0.8543(5) 0.0085(5) 0.8442(5)
N10 N 0.9096(6) 0.1804(5) 0.9782(5)
H5 H 0.618057 0.614785 0.736998
O23 O 0.9553(5) 0.9329(4) 0.0292(5)
Cd7_2 Cd 0.37482(5) 0.04364(4) 0.51931(4)
Cd13_2 Cd 0.10584(5) 0.04087(4) 0.43485(4)
O23_2 O 0.5447(5) 0.0671(4) 0.5292(5)
C8_2 C 0.0514(7) 0.6425(6) 0.4610(6)
C9_2 C 0.4994(6) 0.7063(6) 0.4783(6)
C10_2 C 0.6400(10) 0.7500 0.4795(10)
H3_2 H 0.7052 0.7500 0.4812
C11_2 C 0.4253(7) 0.6407(6) 0.4792(8)
Cd3_2 Cd 0.23642(9) 0.7500 0.46315(14)
N3_2 N 0.5904(6) 0.6804(5) 0.4782(5)
O5_2 O 0.3420(6) 0.6556(5) 0.4914(9)
O6_2 O 0.4553(5) 0.5671(4) 0.4708(5)
O7_2 O 0.0156(5) 0.5709(4) 0.4600(4)
O8_2 O 0.1287(6) 0.6573(5) 0.4300(6)
O9_2 O 0.1862(16) 0.7500 0.6037(16)
C18_2 C 0.0514(7) 0.8575(6) 0.4610(6)
C19_2 C 0.4994(6) 0.7937(6) 0.4783(6)
C20_2 C 0.4253(7) 0.8593(6) 0.4792(8)
Cd4_2 Cd 0.62518(5) 0.95636(4) 0.48069(4)
Cd6_2 Cd 0.37482(5) 0.45636(4) 0.51931(4)
Cd12_2 Cd 0.10584(5) 0.45913(4) 0.43485(4)
N9_2 N 0.6457(5) 0.9915(5) 0.3442(5)
N10_2 N 0.5904(6) 0.8196(5) 0.4782(5)
O12 O 0.7255(5) 0.9368(4) 0.5929(4)
O18 O 0.7987(5) 0.9887(5) 0.4481(4)
O20_2 O 0.3420(6) 0.8444(5) 0.4914(9)
O21_2 O 0.4553(5) 0.9329(4) 0.4708(5)
O22_2 O 0.5447(5) 0.4329(4) 0.5292(5)
O24_2 O 0.0156(5) 0.9291(4) 0.4600(4)
O27_2 O 0.1287(6) 0.8427(5) 0.4300(6)
H5_2 H 0.881943 0.385215 0.236998
H8_2 H 0.586065 0.509588 0.800349
O26_2 O 0.9844(5) 0.0709(4) 0.5400(4)
C6_2 C 0.8769(10) 0.7500 0.5794(9)
H2_2 H 0.8244 0.7500 0.6145
C7_2 C 0.9917(7) 0.7065(6) 0.5038(6)
N4_2 N 0.9176(6) 0.6798(5) 0.5522(5)
C17_2 C 0.9917(7) 0.7935(6) 0.5038(6)
Cd9_2 Cd 0.89416(5) 0.95913(4) 0.56515(4)
N7_2 N 0.8639(5) 0.9793(5) 0.7051(5)
N11_2 N 0.9176(6) 0.8202(5) 0.5522(5)
O25_2 O 0.9844(5) 0.4291(4) 0.5400(4)
C2_2 C 0.2325(6) 0.0148(6) 0.1836(5)
C3_2 C 0.2264(6) 0.0338(6) 0.2695(5)
C4_2 C 0.3122(7) 0.0155(7) 0.1244(6)
C5_2 C 0.2987(7) 0.0575(6) 0.3320(6)
N1_2 N 0.1361(5) 0.0207(5) 0.2949(5)
O1_2 O 0.2745(5) 0.0632(4) 0.4071(4)
O2_2 O 0.3816(4) 0.0691(6) 0.3057(5)
O3_2 O 0.3921(5) 0.0436(6) 0.1507(5)
H5_3 H 0.381943 0.114785 0.263002
C12_2 C 0.4095(7) 0.0039(7) 0.7242(6)
H4_2 H 0.4731 0.0163 0.7230
N8_2 N 0.3543(5) 0.0085(5) 0.6558(5)
O16_2 O 0.2013(5) 0.0113(5) 0.5519(4)
C1_2 C 0.0905(7) 0.9961(7) 0.2242(6)
H1_2 H 0.0269 0.9837 0.2230
C10_3 C 0.1400(10) 0.7500 0.0205(10)
H3_3 H 0.2052 0.7500 0.0188
N2_2 N 0.1457(5) 0.9915(5) 0.1558(5)
N3_3 N 0.0904(6) 0.8196(5) 0.0218(5)
O4 O 0.2987(5) 0.9887(5) 0.0519(4)
N9_3 N 0.1457(5) 0.5085(5) 0.1558(5)
N10_3 N 0.0904(6) 0.6804(5) 0.0218(5)
O18_2 O 0.2987(5) 0.5113(5) 0.0519(4)
C13_2 C 0.2675(6) 0.9852(6) 0.6836(5)
C14_2 C 0.2736(6) 0.9662(6) 0.7695(5)
C15_2 C 0.1878(7) 0.9845(7) 0.6244(6)
C16_2 C 0.2013(7) 0.9425(6) 0.8320(6)
N5 N 0.3639(5) 0.9793(5) 0.7949(5)
O10 O 0.2255(5) 0.9368(4) 0.9071(4)
O12_2 O 0.2255(5) 0.5632(4) 0.9071(4)
O14_2 O 0.1184(4) 0.9309(6) 0.8057(5)
O15_2 O 0.1079(5) 0.9564(6) 0.6507(5)
H8_3 H 0.0860654 0.990412 0.699651
C8_3 C 0.5514(7) 0.8575(6) 0.0390(6)
C9_3 C 0.9994(6) 0.7937(6) 0.0217(6)
C11_3 C 0.9253(7) 0.8593(6) 0.0208(8)
Cd3_3 Cd 0.73642(9) 0.7500 0.03685(14)
O5_3 O 0.8420(6) 0.8444(5) 0.0086(9)
O8_3 O 0.6287(6) 0.8427(5) 0.0700(6)
C18_3 C 0.5514(7) 0.6425(6) 0.0390(6)
C19_3 C 0.9994(6) 0.7063(6) 0.0217(6)
C20_3 C 0.9253(7) 0.6407(6) 0.0208(8)
O20_3 O 0.8420(6) 0.6556(5) 0.0086(9)
O27_3 O 0.6287(6) 0.6573(5) 0.0700(6)
C6_3 C 0.3769(10) 0.7500 0.9206(9)
H2_3 H 0.3244 0.7500 0.8855
C7_3 C 0.4917(7) 0.7935(6) 0.9962(6)
N4_3 N 0.4176(6) 0.8202(5) 0.9478(5)
O9_3 O 0.6862(16) 0.7500 0.8963(16)
C17_3 C 0.4917(7) 0.7065(6) 0.9962(6)
N7_3 N 0.3639(5) 0.5207(5) 0.7949(5)
N11_3 N 0.4176(6) 0.6798(5) 0.9478(5)
C6_4 C 0.1231(10) 0.2500 0.4206(9)
H2_4 H 0.1756 0.2500 0.3855
C7_4 C 0.0083(7) 0.2065(6) 0.4962(6)
N4_4 N 0.0824(6) 0.1798(5) 0.4478(5)
C17_4 C 0.0083(7) 0.2935(6) 0.4962(6)
N7_4 N 0.1361(5) 0.4793(5) 0.2949(5)
N11_4 N 0.0824(6) 0.3202(5) 0.4478(5)
O13_2 O 0.2745(5) 0.4368(4) 0.4071(4)
O19_2 O 0.2013(5) 0.4887(5) 0.5519(4)
C8_4 C 0.9486(7) 0.1425(6) 0.5390(6)
C9_4 C 0.5006(6) 0.2063(6) 0.5217(6)
C10_4 C 0.3600(10) 0.2500 0.5205(10)
H3_4 H 0.2948 0.2500 0.5188
C11_4 C 0.5747(7) 0.1407(6) 0.5208(8)
Cd3_4 Cd 0.76358(9) 0.2500 0.53685(14)
N3_4 N 0.4096(6) 0.1804(5) 0.5218(5)
O5_4 O 0.6580(6) 0.1556(5) 0.5086(9)
O8_4 O 0.8713(6) 0.1573(5) 0.5700(6)
O9_4 O 0.8138(16) 0.2500 0.3963(16)
C18_4 C 0.9486(7) 0.3575(6) 0.5390(6)
C19_4 C 0.5006(6) 0.2937(6) 0.5217(6)
C20_4 C 0.5747(7) 0.3593(6) 0.5208(8)
N9_4 N 0.3543(5) 0.4915(5) 0.6558(5)
N10_4 N 0.4096(6) 0.3196(5) 0.5218(5)
O20_4 O 0.6580(6) 0.3444(5) 0.5086(9)
O27_4 O 0.8713(6) 0.3427(5) 0.5700(6)
H8_4 H 0.413935 0.00958799 0.199651
H5_4 H 0.118057 0.885215 0.763002
C1_3 C 0.0905(7) 0.5039(7) 0.2242(6)
H1_3 H 0.0269 0.5163 0.2230
C2_3 C 0.2325(6) 0.4852(6) 0.1836(5)
C3_3 C 0.2264(6) 0.4662(6) 0.2695(5)
C4_3 C 0.3122(7) 0.4845(7) 0.1244(6)
C5_3 C 0.2987(7) 0.4425(6) 0.3320(6)
O2_3 O 0.3816(4) 0.4309(6) 0.3057(5)
O3_3 O 0.3921(5) 0.4564(6) 0.1507(5)
H5_5 H 0.381943 0.385215 0.263002
C12_3 C 0.4095(7) 0.4961(7) 0.7242(6)
H4_3 H 0.4731 0.4837 0.7230
C13_3 C 0.2675(6) 0.5148(6) 0.6836(5)
C14_3 C 0.2736(6) 0.5338(6) 0.7695(5)
C15_3 C 0.1878(7) 0.5155(7) 0.6244(6)
C16_3 C 0.2013(7) 0.5575(6) 0.8320(6)
O14_3 O 0.1184(4) 0.5691(6) 0.8057(5)
O15_3 O 0.1079(5) 0.5436(6) 0.6507(5)
H8_5 H 0.0860654 0.509588 0.699651
H5_6 H 0.118057 0.614785 0.763002
H8_6 H 0.413935 0.490412 0.199651
C13_4 C 0.7325(6) 0.0148(6) 0.3164(5)
C14_4 C 0.7264(6) 0.0338(6) 0.2305(5)
C15_4 C 0.8122(7) 0.0155(7) 0.3756(6)
C16_4 C 0.7987(7) 0.0575(6) 0.1680(6)
O14_4 O 0.8816(4) 0.0691(6) 0.1943(5)
O15_4 O 0.8921(5) 0.0436(6) 0.3493(5)
H8_7 H 0.913935 0.00958799 0.300349
C1_4 C 0.9095(7) 0.0039(7) 0.7758(6)
H1_4 H 0.9731 0.0163 0.7770
C12_4 C 0.5905(7) 0.9961(7) 0.2758(6)
H4_4 H 0.5269 0.9837 0.2770
C2_4 C 0.7675(6) 0.9852(6) 0.8164(5)
C3_4 C 0.7736(6) 0.9662(6) 0.7305(5)
C4_4 C 0.6878(7) 0.9845(7) 0.8756(6)
C5_4 C 0.7013(7) 0.9425(6) 0.6680(6)
O2_4 O 0.6184(4) 0.9309(6) 0.6943(5)
O3_4 O 0.6079(5) 0.9564(6) 0.8493(5)
H5_7 H 0.618057 0.885215 0.736998
H5_8 H 0.881943 0.114785 0.236998
H8_8 H 0.586065 0.990412 0.800349
loop_
_geom_bond_atom_site_label_1
_geom_bond_atom_site_label_2
_geom_bond_site_symmetry_1
_geom_bond_site_symmetry_2
C6 H2 1_555 1_555
Cd2 N4 1_555 1_555
N4 C6 1_555 1_555
C17 C7 1_555 1_555
Cd9 N7 1_555 1_555
N6 Cd2 1_555 1_555
N11 C6 1_555 1_555
O11 Cd2 1_555 1_555
O13 Cd9 1_555 1_555
O25 Cd2 1_555 1_555
C7 N4 1_555 1_555
C17 N11 1_555 1_555
Cd9 N11 1_555 1_555
C8 O7 1_555 1_555
C9 C11 1_555 1_555
C11 O5 1_555 1_555
Cd3 O5 1_555 1_555
O6 C11 1_555 1_555
O8 C8 1_555 1_555
C19 C9 1_555 1_555
C20 C19 1_555 1_555
Cd12 O7 1_555 1_555
O20 Cd3 1_555 1_555
O21 C20 1_555 1_555
O24 C18 1_555 1_555
O27 Cd3 1_555 1_555
Cd3 O8 1_555 1_555
C18 O27 1_555 1_555
C20 O20 1_555 1_555
C12 H4 1_555 1_555
C13 C14 1_555 1_555
C14 C16 1_555 1_555
C15 C13 1_555 1_555
C16 O11 1_555 1_555
Cd8 N8 1_555 1_555
Cd14 O16 1_555 1_555
N6 C12 1_555 1_555
N8 C12 1_555 1_555
O14 C16 1_555 1_555
O15 C15 1_555 1_555
O16 C15 1_555 1_555
C13 N8 1_555 1_555
C14 N6 1_555 1_555
Cd8 O16 1_555 1_555
O15 H8 1_555 1_555
C1 H1 1_555 1_555
C2 C3 1_555 1_555
C3 C5 1_555 1_555
C4 C2 1_555 1_555
C5 O1 1_555 1_555
C10 H3 1_555 1_555
Cd1 N2 1_555 1_555
N1 C1 1_555 1_555
N2 C1 1_555 1_555
O1 Cd8 1_555 1_555
O2 C5 1_555 1_555
O3 C4 1_555 1_555
O17 C4 1_555 1_555
Cd4 N9 1_555 1_555
Cd14 N1 1_555 1_555
N10 C10 1_555 1_555
O19 Cd4 1_555 1_555
C2 N2 1_555 1_555
C3 N1 1_555 1_555
C10 N3 1_555 1_555
Cd1 N3 1_555 1_555
Cd1 O17 1_555 1_555
O1 Cd14 1_555 1_555
Cd4 N10 1_555 1_555
O2 H5 1_555 1_555
Cd7_2 O23_2 1_555 1_555
C8_2 O7_2 1_555 1_555
C9_2 C11_2 1_555 1_555
C10_2 H3_2 1_555 1_555
C11_2 O5_2 1_555 1_555
Cd3_2 O5_2 1_555 1_555
N3_2 C9_2 1_555 1_555
O6_2 C11_2 1_555 1_555
O8_2 C8_2 1_555 1_555
O9_2 Cd3_2 1_555 1_555
C19_2 C9_2 1_555 1_555
C20_2 C19_2 1_555 1_555
Cd4_2 N9_2 1_555 1_555
Cd6_2 O6_2 1_555 1_555
Cd12_2 O7_2 1_555 1_555
N10_2 C10_2 1_555 1_555
O12 Cd4_2 1_555 1_555
O18 Cd4_2 1_555 1_555
O20_2 Cd3_2 1_555 1_555
O21_2 C20_2 1_555 1_555
O22_2 Cd8 1_555 1_555
O24_2 C18_2 1_555 1_555
O27_2 Cd3_2 1_555 1_555
C10_2 N3_2 1_555 1_555
Cd8 N3_2 1_555 1_555
Cd8 O6_2 1_555 1_555
Cd3_2 O8_2 1_555 1_555
C18_2 O27_2 1_555 1_555
C19_2 N10_2 1_555 1_555
C20_2 O20_2 1_555 1_555
Cd4_2 N10_2 1_555 1_555
Cd4_2 O21_2 1_555 1_555
Cd6_2 O22_2 1_555 1_555
O14 H5_2 1_555 1_555
O3 H8_2 1_555 1_555
C6_2 H2_2 1_555 1_555
Cd14 N4_2 1_555 1_555
N4_2 C6_2 1_555 1_555
C17_2 C7_2 1_555 1_555
Cd9_2 N7_2 1_555 1_555
N11_2 C6_2 1_555 1_555
O12 Cd9_2 1_555 1_555
O18 Cd9_2 1_555 1_555
O25_2 Cd14 1_555 1_555
C7_2 N4_2 1_555 1_555
C17_2 N11_2 1_555 1_555
Cd9_2 N11_2 1_555 1_555
C2_2 C3_2 1_555 1_555
C3_2 C5_2 1_555 1_555
C4_2 C2_2 1_555 1_555
C5_2 O1_2 1_555 1_555
O1_2 Cd7_2 1_555 1_555
O2_2 C5_2 1_555 1_555
O3_2 C4_2 1_555 1_555
Cd13_2 N1_2 1_555 1_555
C3_2 N1_2 1_555 1_555
O1_2 Cd13_2 1_555 1_555
O2_2 H5_3 1_555 1_555
C12_2 H4_2 1_555 1_555
Cd7_2 N8_2 1_555 1_555
Cd13_2 O16_2 1_555 1_555
N8_2 C12_2 1_555 1_555
Cd7_2 O16_2 1_555 1_555
C1_2 H1_2 1_555 1_555
C10_3 H3_3 1_555 1_555
Cd7 N2_2 1_555 1_555
N2_2 C1_2 1_555 1_555
Cd6 N9_3 1_555 1_555
N10_3 C10_3 1_555 1_555
O18_2 Cd6 1_555 1_555
C10_3 N3_3 1_555 1_555
Cd7 N3_3 1_555 1_555
Cd7 O4 1_555 1_555
Cd6 N10_3 1_555 1_555
C13_2 C14_2 1_555 1_555
C14_2 C16_2 1_555 1_555
C15_2 C13_2 1_555 1_555
C16_2 O10 1_555 1_555
O14_2 C16_2 1_555 1_555
O15_2 C15_2 1_555 1_555
C14_2 N5 1_555 1_555
Cd13 N5 1_555 1_555
Cd13 O10 1_555 1_555
O15_2 H8_3 1_555 1_555
C8_3 O26 1_555 1_555
C9_3 C11_3 1_555 1_555
C11_3 O5_3 1_555 1_555
Cd3_3 O5_3 1_555 1_555
O23 C11_3 1_555 1_555
O8_3 C8_3 1_555 1_555
C19_3 C9_3 1_555 1_555
C20_3 C19_3 1_555 1_555
O20_3 Cd3_3 1_555 1_555
O22 C20_3 1_555 1_555
O25 C18_3 1_555 1_555
O27_3 Cd3_3 1_555 1_555
Cd3_3 O8_3 1_555 1_555
C18_3 O27_3 1_555 1_555
C20_3 O20_3 1_555 1_555
C6_3 H2_3 1_555 1_555
Cd13 N4_3 1_555 1_555
N4_3 C6_3 1_555 1_555
C17_3 C7_3 1_555 1_555
Cd12 N7_3 1_555 1_555
N11_3 C6_3 1_555 1_555
O12_2 Cd12 1_555 1_555
C7_3 N4_3 1_555 1_555
C17_3 N11_3 1_555 1_555
Cd12 N11_3 1_555 1_555
C6_4 H2_4 1_555 1_555
Cd13_2 N4_4 1_555 1_555
N4_4 C6_4 1_555 1_555
C17_4 C7_4 1_555 1_555
Cd12_2 N7_4 1_555 1_555
N11_4 C6_4 1_555 1_555
O13_2 Cd12_2 1_555 1_555
O19_2 Cd12_2 1_555 1_555
C7_4 N4_4 1_555 1_555
C17_4 N11_4 1_555 1_555
Cd12_2 N11_4 1_555 1_555
C8_4 O26_2 1_555 1_555
C9_4 C11_4 1_555 1_555
C10_4 H3_4 1_555 1_555
C11_4 O5_4 1_555 1_555
Cd3_4 O5_4 1_555 1_555
N3_4 C9_4 1_555 1_555
O23_2 C11_4 1_555 1_555
O8_4 C8_4 1_555 1_555
O9_4 Cd3_4 1_555 1_555
C19_4 C9_4 1_555 1_555
C20_4 C19_4 1_555 1_555
Cd6_2 N9_4 1_555 1_555
N10_4 C10_4 1_555 1_555
O13_2 Cd6_2 1_555 1_555
O19_2 Cd6_2 1_555 1_555
O20_4 Cd3_4 1_555 1_555
O22_2 C20_4 1_555 1_555
O25_2 C18_4 1_555 1_555
O27_4 Cd3_4 1_555 1_555
C10_4 N3_4 1_555 1_555
Cd7_2 N3_4 1_555 1_555
Cd3_4 O8_4 1_555 1_555
C18_4 O27_4 1_555 1_555
C19_4 N10_4 1_555 1_555
C20_4 O20_4 1_555 1_555
Cd6_2 N10_4 1_555 1_555
O3_2 H8_4 1_555 1_555
O14_2 H5_4 1_555 1_555
C1_3 H1_3 1_555 1_555
C2_3 C3_3 1_555 1_555
C3_3 C5_3 1_555 1_555
C4_3 C2_3 1_555 1_555
C5_3 O13_2 1_555 1_555
N7_4 C1_3 1_555 1_555
N9_3 C1_3 1_555 1_555
O2_3 C5_3 1_555 1_555
O3_3 C4_3 1_555 1_555
O18_2 C4_3 1_555 1_555
C2_3 N9_3 1_555 1_555
C3_3 N7_4 1_555 1_555
O2_3 H5_5 1_555 1_555
C12_3 H4_3 1_555 1_555
C13_3 C14_3 1_555 1_555
C14_3 C16_3 1_555 1_555
C15_3 C13_3 1_555 1_555
C16_3 O12_2 1_555 1_555
N7_3 C12_3 1_555 1_555
N9_4 C12_3 1_555 1_555
O14_3 C16_3 1_555 1_555
O15_3 C15_3 1_555 1_555
O19_2 C15_3 1_555 1_555
C13_3 N9_4 1_555 1_555
C14_3 N7_3 1_555 1_555
O15_3 H8_5 1_555 1_555
O14_3 H5_6 1_555 1_555
O3_3 H8_6 1_555 1_555
C13_4 C14_4 1_555 1_555
C14_4 C16_4 1_555 1_555
C15_4 C13_4 1_555 1_555
C16_4 O13 1_555 1_555
O14_4 C16_4 1_555 1_555
O15_4 C15_4 1_555 1_555
C14_4 N7 1_555 1_555
O15_4 H8_7 1_555 1_555
C1_4 H1_4 1_555 1_555
N9 C1_4 1_555 1_555
C12_4 H4_4 1_555 1_555
N9_2 C12_4 1_555 1_555
C2_4 C3_4 1_555 1_555
C3_4 C5_4 1_555 1_555
C4_4 C2_4 1_555 1_555
C5_4 O12 1_555 1_555
O2_4 C5_4 1_555 1_555
O3_4 C4_4 1_555 1_555
C3_4 N7_2 1_555 1_555
O2_4 H5_7 1_555 1_555
O14_4 H5_8 1_555 1_555
O3_4 H8_8 1_555 1_555

#END
