
###############################################################################
#
# This file contains modified crystal structure data generated from the
# MOF subset of the Cambridge Structural Database (CSD) v543 
# hosted by the Cambridge Crystallographic Data Centre (CCDC).
#
# This work is licensed under the Creative Commons
# Attribution-NonCommercial-ShareAlike 4.0 International License.
# To view a copy of this license, visit
# http://creativecommons.org/licenses/by-nc-sa/4.0/
# or send a letter to
# Creative Commons, PO Box 1866, Mountain View, CA 94042, USA.
#
# CIF created using the CSD Python API on 29 September 2022
# The structure has been converted into the P1 space group
# The structure has a 3D framework
# The original CSD entry YEMJAC is in the tetragonal crystal system
# The original CSD entry YEMJAC is in a Sohncke space group
# The framework has been calculated to contain at least 10.0% void space
# The void calculation uses a probe of radius 1.32A, grid spacing 0.4
# H atom positions have been added when not included in the experimental data
# Generated hydrogen atom positions removed from atoms on special positions
#
###############################################################################

data_YEMJAC
_chemical_formula_moiety         '(C39 H29 Dy4 O28)n'
_symmetry_cell_setting           triclinic
_symmetry_space_group_name_H-M   'P 1'
_symmetry_Int_Tables_number      1
_space_group_name_Hall           'P 1'
loop_
_symmetry_equiv_pos_site_id
_symmetry_equiv_pos_as_xyz
1 x,y,z
_cell_length_a                   10.3131(4)
_cell_length_b                   10.3131(4)
_cell_length_c                   14.4950(13)
_cell_angle_alpha                90
_cell_angle_beta                 90
_cell_angle_gamma                90
_cell_volume                     1541.69
loop_
_atom_site_label
_atom_site_type_symbol
_atom_site_fract_x
_atom_site_fract_y
_atom_site_fract_z
Dy1 Dy 0.35089(4) 0.35089(4) 0.1250
O1 O 0.4287(7) 0.1647(7) 0.0589(4)
O3 O 0.1863(6) 0.1863(6) 0.1250
C1 C 0.5000 0.1075(12) 0.0000
O6 O 0.1647(7) 0.4287(7) 0.1911(4)
O9 O 0.4028(7) 0.2572(7) 0.2652(4)
O11 O 0.3876(7) 0.5690(6) 0.1497(5)
O12 O 0.5690(6) 0.3876(7) 0.1003(5)
C1_2 C 0.5000 0.1075(12) 1.0000
Dy4 Dy 0.64911(4) 0.35089(4) 0.8750
O5 O 0.5713(7) 0.1647(7) 0.9411(4)
O8 O 0.2572(7) 0.4028(7) 0.9848(4)
O2 O 0.4028(7) 0.7428(7) 0.2348(4)
C2 C 0.5000 0.9623(13) 0.0000
C3 C 0.4520(9) 0.8944(8) 0.0756(6)
H1 H 0.4173 0.9395 0.1253
C4 C 0.4555(9) 0.7610(8) 0.0773(6)
C5 C 0.5000 0.6921(13) 0.0000
H2 H 0.5000 0.6019 0.0000
C6 C 0.4103(9) 0.6838(9) 0.1600(6)
Dy2 Dy 0.35089(4) 0.64911(4) 0.3750
C2_2 C 0.5000 0.9623(13) 1.0000
C5_2 C 0.5000 0.6921(13) 1.0000
H2_2 H 0.5000 0.6019 1.0000
Dy5 Dy 0.64911(4) 0.64911(4) 0.6250
O7 O 0.5972(7) 0.7428(7) 0.7652(4)
C7 C 0.5480(9) 0.8944(8) 0.9244(6)
H3 H 0.5827 0.9395 0.8747
C8 C 0.5445(9) 0.7610(8) 0.9227(6)
C9 C 0.5897(9) 0.6838(9) 0.8400(6)
O10 O 0.6124(7) 0.5690(6) 0.8503(5)
O2_2 O 0.5972(7) 0.2572(7) 0.7348(4)
C2_3 C 0.5000 0.0377(13) 0.5000
C3_2 C 0.5480(9) 0.1056(8) 0.5756(6)
H1_2 H 0.5827 0.0605 0.6253
C4_2 C 0.5445(9) 0.2390(8) 0.5773(6)
C5_3 C 0.5000 0.3079(13) 0.5000
H2_3 H 0.5000 0.3981 0.5000
C6_2 C 0.5897(9) 0.3162(9) 0.6600(6)
O4 O 0.6124(7) 0.4310(6) 0.6497(5)
C7_2 C 0.4520(9) 0.1056(8) 0.4244(6)
H3_2 H 0.4173 0.0605 0.3747
C8_2 C 0.4555(9) 0.2390(8) 0.4227(6)
C9_2 C 0.4103(9) 0.3162(9) 0.3400(6)
O10_2 O 0.3876(7) 0.4310(6) 0.3503(5)
O1_2 O 0.5713(7) 0.8353(7) 0.5589(4)
O3_2 O 0.8137(6) 0.8137(6) 0.6250
C1_3 C 0.5000 0.8925(12) 0.5000
O5_2 O 0.4287(7) 0.8353(7) 0.4411(4)
O6_2 O 0.8353(7) 0.5713(7) 0.6911(4)
O8_2 O 0.7428(7) 0.5972(7) 0.4848(4)
O12_2 O 0.4310(6) 0.6124(7) 0.6003(5)
C2_4 C 0.0377(13) 0.5000 0.7500
C3_3 C 0.1056(8) 0.4520(9) 0.8256(6)
H1_3 H 0.0605 0.4173 0.8753
C4_3 C 0.2390(8) 0.4555(9) 0.8273(6)
C5_4 C 0.3079(13) 0.5000 0.7500
H2_4 H 0.3981 0.5000 0.7500
C6_3 C 0.3162(9) 0.4103(9) 0.9100(6)
O4_2 O 0.4310(6) 0.3876(7) 0.8997(5)
O7_2 O 0.2572(7) 0.5972(7) 0.5152(4)
C7_3 C 0.1056(8) 0.5480(9) 0.6744(6)
H3_3 H 0.0605 0.5827 0.6247
C8_3 C 0.2390(8) 0.5445(9) 0.6727(6)
C9_3 C 0.3162(9) 0.5897(9) 0.5900(6)
O9_2 O 0.7428(7) 0.4028(7) 0.0152(4)
O1_3 O 0.8353(7) 0.4287(7) 0.8089(4)
O3_3 O 0.8137(6) 0.1863(6) 0.8750
C1_4 C 0.8925(12) 0.5000 0.7500
O1_4 O 0.1647(7) 0.5713(7) 0.3089(4)
O3_4 O 0.1863(6) 0.8137(6) 0.3750
C1_5 C 0.1075(12) 0.5000 0.2500
O11_2 O 0.5690(6) 0.6124(7) 0.3997(5)
C2_5 C 0.9623(13) 0.5000 0.2500
C3_4 C 0.8944(8) 0.5480(9) 0.3256(6)
H1_4 H 0.9395 0.5827 0.3753
C4_4 C 0.7610(8) 0.5445(9) 0.3273(6)
C5_5 C 0.6921(13) 0.5000 0.2500
H2_5 H 0.6019 0.5000 0.2500
C6_4 C 0.6838(9) 0.5897(9) 0.4100(6)
C7_4 C 0.8944(8) 0.4520(9) 0.1744(6)
H3_4 H 0.9395 0.4173 0.1247
C8_4 C 0.7610(8) 0.4555(9) 0.1727(6)
C9_4 C 0.6838(9) 0.4103(9) 0.0900(6)
loop_
_geom_bond_atom_site_label_1
_geom_bond_atom_site_label_2
_geom_bond_site_symmetry_1
_geom_bond_site_symmetry_2
Dy1 O1 1_555 1_555
O1 C1 1_555 1_555
O3 Dy1 1_555 1_555
O6 Dy1 1_555 1_555
O9 Dy1 1_555 1_555
O11 Dy1 1_555 1_555
O12 Dy1 1_555 1_555
Dy4 O5 1_555 1_555
O5 C1_2 1_555 1_555
O2 C6 1_555 1_555
C2 C3 1_555 1_555
C3 H1 1_555 1_555
C4 C3 1_555 1_555
C5 C4 1_555 1_555
H2 C5 1_555 1_555
C6 C4 1_555 1_555
O11 C6 1_555 1_555
Dy2 O2 1_555 1_555
H2_2 C5_2 1_555 1_555
Dy5 O7 1_555 1_555
Dy4 O10 1_555 1_555
O7 C9 1_555 1_555
C7 C2_2 1_555 1_555
H3 C7 1_555 1_555
C8 C5_2 1_555 1_555
C9 C8 1_555 1_555
O10 C9 1_555 1_555
C7 C8 1_555 1_555
O2_2 C6_2 1_555 1_555
C2_3 C3_2 1_555 1_555
C3_2 H1_2 1_555 1_555
C4_2 C3_2 1_555 1_555
C5_3 C4_2 1_555 1_555
H2_3 C5_3 1_555 1_555
C6_2 C4_2 1_555 1_555
O4 C6_2 1_555 1_555
Dy4 O2_2 1_555 1_555
Dy5 O4 1_555 1_555
Dy2 O10_2 1_555 1_555
O9 C9_2 1_555 1_555
C7_2 C2_3 1_555 1_555
H3_2 C7_2 1_555 1_555
C8_2 C5_3 1_555 1_555
C9_2 C8_2 1_555 1_555
O10_2 C9_2 1_555 1_555
C7_2 C8_2 1_555 1_555
Dy5 O1_2 1_555 1_555
O1_2 C1_3 1_555 1_555
O3_2 Dy5 1_555 1_555
Dy2 O5_2 1_555 1_555
O5_2 C1_3 1_555 1_555
O6_2 Dy5 1_555 1_555
O8_2 Dy5 1_555 1_555
O12_2 Dy5 1_555 1_555
O8 C6_3 1_555 1_555
C2_4 C3_3 1_555 1_555
C3_3 H1_3 1_555 1_555
C4_3 C3_3 1_555 1_555
C5_4 C4_3 1_555 1_555
H2_4 C5_4 1_555 1_555
C6_3 C4_3 1_555 1_555
O4_2 C6_3 1_555 1_555
Dy4 O4_2 1_555 1_555
Dy2 O7_2 1_555 1_555
O7_2 C9_3 1_555 1_555
C7_3 C2_4 1_555 1_555
H3_3 C7_3 1_555 1_555
C8_3 C5_4 1_555 1_555
C9_3 C8_3 1_555 1_555
O12_2 C9_3 1_555 1_555
C7_3 C8_3 1_555 1_555
Dy4 O1_3 1_555 1_555
O1_3 C1_4 1_555 1_555
O3_3 Dy4 1_555 1_555
O6_2 C1_4 1_555 1_555
Dy2 O1_4 1_555 1_555
O1_4 C1_5 1_555 1_555
O3_4 Dy2 1_555 1_555
O6 C1_5 1_555 1_555
O11_2 Dy2 1_555 1_555
O8_2 C6_4 1_555 1_555
C2_5 C3_4 1_555 1_555
C3_4 H1_4 1_555 1_555
C4_4 C3_4 1_555 1_555
C5_5 C4_4 1_555 1_555
H2_5 C5_5 1_555 1_555
C6_4 C4_4 1_555 1_555
O11_2 C6_4 1_555 1_555
O9_2 C9_4 1_555 1_555
C7_4 C2_5 1_555 1_555
H3_4 C7_4 1_555 1_555
C8_4 C5_5 1_555 1_555
C9_4 C8_4 1_555 1_555
O12 C9_4 1_555 1_555
C7_4 C8_4 1_555 1_555

#END
