
###############################################################################
#
# This file contains modified crystal structure data generated from the
# MOF subset of the Cambridge Structural Database (CSD) v543 
# hosted by the Cambridge Crystallographic Data Centre (CCDC).
#
# This work is licensed under the Creative Commons
# Attribution-NonCommercial-ShareAlike 4.0 International License.
# To view a copy of this license, visit
# http://creativecommons.org/licenses/by-nc-sa/4.0/
# or send a letter to
# Creative Commons, PO Box 1866, Mountain View, CA 94042, USA.
#
# CIF created using the CSD Python API on 29 September 2022
# The structure has been converted into the P1 space group
# The structure has a 3D framework
# The original CSD entry YENWAS is in the triclinic crystal system
# The framework has been calculated to contain at least 10.0% void space
# The void calculation uses a probe of radius 1.32A, grid spacing 0.4
#
###############################################################################

data_YENWAS
_chemical_formula_moiety         '(C50 H36 Cu4 N6 O11)n'
_symmetry_cell_setting           triclinic
_symmetry_space_group_name_H-M   'P 1'
_symmetry_Int_Tables_number      1
_space_group_name_Hall           'P 1'
loop_
_symmetry_equiv_pos_site_id
_symmetry_equiv_pos_as_xyz
1 x,y,z
_cell_length_a                   10.478(2)
_cell_length_b                   10.930(2)
_cell_length_c                   12.312(3)
_cell_angle_alpha                106.87(3)
_cell_angle_beta                 108.55(3)
_cell_angle_gamma                104.63(3)
_cell_volume                     1183.2
loop_
_atom_site_label
_atom_site_type_symbol
_atom_site_fract_x
_atom_site_fract_y
_atom_site_fract_z
H7 H 0.0248 0.0119 0.7987
Cu7 Cu 0.37713(4) 0.45746(4) 0.00943(3)
Cu2 Cu 0.0000 0.5000 0.0000
O8 O 0.1760(2) 0.3832(2) 0.0267(2)
N4 N 0.1154(3) 0.6338(3) 0.1786(3)
C27 C 0.0695(4) 0.4879(4) 0.5127(3)
C29 C 0.1495(4) 0.4883(3) 0.6277(3)
C30 C 0.1237(4) 0.4622(4) 0.4227(4)
C34 C 0.2791(4) 0.4687(3) 0.6528(3)
H19 H 0.1145 0.5022 0.6890
C35 C 0.2539(4) 0.4433(5) 0.4478(4)
H20 H 0.0713 0.4576 0.3439
C39 C 0.3324(4) 0.4481(4) 0.5631(3)
C40 C 0.3608(4) 0.4722(3) 0.7787(3)
H25 H 0.2886 0.4272 0.3863
H29 H 0.4211 0.4374 0.5805
O17 O 0.2879(2) 0.4432(3) 0.8380(2)
O18 O 0.4965(2) 0.5065(3) 0.8173(2)
Cu8 Cu 0.62287(4) 0.54254(4) 0.99057(3)
Cu2_2 Cu 0.0000 0.5000 1.0000
O6 O 0.0214(2) 0.6534(2) 0.9412(2)
H1 H 0.0253 0.2981 0.7687
H4 H 0.0652 0.8416 0.8640
C20 C 0.6088(3) 0.0825(3) 0.8760(3)
H11 H 0.8188 0.0571 0.7834
C22 C 0.4872(4) 0.1113(3) 0.8777(3)
H15 H 0.6957 0.1546 0.9007
C24 C 0.4964(4) 0.2572(3) 0.9220(3)
C25 C 0.3583(4) 0.0045(4) 0.8423(4)
H18 H 0.2777 0.0234 0.8459
O15 O 0.3932(3) 0.2783(2) 0.9462(2)
O16 O 0.6058(3) 0.3500(2) 0.9335(2)
O2 O 0.7121(2) 0.5568(3) 0.1620(2)
O3 O 0.6068(3) 0.7217(2) 0.0538(2)
Cu2_3 Cu 1.0000 0.5000 0.0000
C2 C 0.6392(4) 0.5278(3) 0.2213(3)
C4 C 0.7209(4) 0.5313(3) 0.3472(3)
C9 C 0.6676(4) 0.5519(4) 0.4369(3)
C10 C 0.8505(4) 0.5117(3) 0.3723(3)
H5 H 0.5789 0.5626 0.4195
C13 C 0.7461(4) 0.5567(5) 0.5522(4)
H6 H 0.8855 0.4978 0.3110
C14 C 0.9305(4) 0.5121(4) 0.4873(3)
H8 H 0.7114 0.5728 0.6137
C18 C 0.8763(4) 0.5378(4) 0.5773(4)
H12 H 0.9287 0.5424 0.6561
O7 O 0.9786(2) 0.3466(2) 0.0588(2)
O9 O 0.5035(2) 0.4935(3) 0.1827(2)
O10 O 0.3942(3) 0.6500(2) 0.0665(2)
C26 C 0.0908(3) 0.3208(3) 0.0625(3)
C28 C 0.1184(3) 0.2150(3) 0.1110(3)
C32 C 0.2425(4) 0.1874(3) 0.1203(3)
C33 C 0.0182(4) 0.1403(4) 0.1417(4)
C37 C 0.2680(3) 0.0847(3) 0.1591(3)
H23 H 0.3100 0.2384 0.1003
C38 C 0.0426(4) 0.0386(4) 0.1808(4)
C41 C 0.3982(4) 0.0525(3) 0.1621(3)
C42 C 0.1660(4) 0.0114(4) 0.1897(4)
C44 C 0.5302(4) 0.1578(4) 0.2002(3)
C47 C 0.6504(4) 0.1306(4) 0.1984(4)
H32 H 0.5372 0.2490 0.2275
H35 H 0.7378 0.2028 0.2247
O1 O 0.8240(2) 0.6168(2) 0.9733(2)
Cu2_4 Cu 1.0000 0.5000 1.0000
C1 C 0.9092(3) 0.6792(3) 0.9375(3)
N1 N 0.8846(3) 0.3662(3) 0.8214(3)
C3 C 0.8816(3) 0.7850(3) 0.8890(3)
C5 C 0.9307(4) 0.2955(4) 0.7432(4)
C6 C 0.7468(4) 0.3341(4) 0.7491(3)
C7 C 0.7575(4) 0.8126(3) 0.8797(3)
C8 C 0.9818(4) 0.8597(4) 0.8583(4)
N2 N 0.8309(4) 0.2225(4) 0.6280(3)
N3 N 0.7131(3) 0.2502(3) 0.6345(3)
H2 H 0.6830 0.3662 0.7755
H3 H 0.6900 0.7616 0.8997
C11 C 0.7320(3) 0.9153(3) 0.8409(3)
C12 C 0.9574(4) 0.9614(4) 0.8192(4)
C15 C 0.5741(5) 0.1918(4) 0.5231(4)
C16 C 0.6018(4) 0.9475(3) 0.8379(3)
C17 C 0.8340(4) 0.9886(4) 0.8103(4)
H9 H 0.5889 0.2256 0.4617
H10 H 0.5048 0.2244 0.5465
C19 C 0.5117(6) 0.0395(6) 0.4652(6)
C21 C 0.4698(4) 0.8422(4) 0.7998(3)
H13 H 0.4185 0.0119 0.3962
H14 H 0.5741 0.0105 0.4286
H16 H 0.4628 0.7510 0.7725
C23 C 0.3496(4) 0.8694(4) 0.8016(4)
H17 H 0.2622 0.7972 0.7753
C45 C 0.3912(3) 0.9175(3) 0.1240(3)
H30 H 0.1812 0.9429 0.2166
C48 C 0.5128(4) 0.8887(3) 0.1223(3)
H33 H 0.3043 0.8454 0.0993
C49 C 0.6417(4) 0.9955(4) 0.1577(4)
C50 C 0.5036(4) 0.7428(3) 0.0780(3)
H36 H 0.7223 0.9766 0.1541
C31 C 0.4883(6) 0.9605(6) 0.5348(6)
C36 C 0.4259(5) 0.8082(4) 0.4769(4)
H21 H 0.5815 0.9881 0.6038
H22 H 0.4259 0.9895 0.5714
N5 N 0.2869(3) 0.7498(3) 0.3655(3)
H26 H 0.4111 0.7744 0.5383
H27 H 0.4952 0.7756 0.4535
N6 N 0.1691(4) 0.7775(4) 0.3720(3)
C43 C 0.2532(4) 0.6659(4) 0.2509(3)
C46 C 0.0693(4) 0.7045(4) 0.2568(4)
H31 H 0.3170 0.6338 0.2245
H24 H 0.9348 0.1584 0.1360
H34 H 0.9747 0.7019 0.2313
H28 H 0.9752 0.9881 0.2013
loop_
_geom_bond_atom_site_label_1
_geom_bond_atom_site_label_2
_geom_bond_site_symmetry_1
_geom_bond_site_symmetry_2
O8 Cu2 1_555 1_555
N4 Cu2 1_555 1_555
C29 C27 1_555 1_555
C30 C27 1_555 1_555
C34 C29 1_555 1_555
H19 C29 1_555 1_555
C35 C30 1_555 1_555
H20 C30 1_555 1_555
C39 C34 1_555 1_555
C40 C34 1_555 1_555
H25 C35 1_555 1_555
H29 C39 1_555 1_555
O17 C40 1_555 1_555
O18 C40 1_555 1_555
Cu8 O18 1_555 1_555
C35 C39 1_555 1_555
Cu2_2 O6 1_555 1_555
C22 C20 1_555 1_555
H15 C20 1_555 1_555
C24 C22 1_555 1_555
C25 C22 1_555 1_555
H18 C25 1_555 1_555
O15 C24 1_555 1_555
O16 C24 1_555 1_555
Cu8 O16 1_555 1_555
C2 O2 1_555 1_555
C4 C2 1_555 1_555
C9 C4 1_555 1_555
C10 C4 1_555 1_555
H5 C9 1_555 1_555
C13 C9 1_555 1_555
H6 C10 1_555 1_555
C14 C10 1_555 1_555
H8 C13 1_555 1_555
C18 C13 1_555 1_555
H12 C18 1_555 1_555
O7 Cu2_3 1_555 1_555
O9 C2 1_555 1_555
O10 Cu7 1_555 1_555
Cu7 O9 1_555 1_555
O8 Cu7 1_555 1_555
C26 O8 1_555 1_555
C28 C26 1_555 1_555
C32 C28 1_555 1_555
C33 C28 1_555 1_555
C37 C32 1_555 1_555
H23 C32 1_555 1_555
C38 C33 1_555 1_555
C41 C37 1_555 1_555
C42 C37 1_555 1_555
C44 C41 1_555 1_555
C47 C44 1_555 1_555
H32 C44 1_555 1_555
H35 C47 1_555 1_555
C14 C18 1_555 1_555
C38 C42 1_555 1_555
Cu8 O1 1_555 1_555
O1 Cu2_4 1_555 1_555
C1 O1 1_555 1_555
N1 Cu2_4 1_555 1_555
C3 C1 1_555 1_555
C5 N1 1_555 1_555
C6 N1 1_555 1_555
C7 C3 1_555 1_555
C8 C3 1_555 1_555
N2 C5 1_555 1_555
N3 C6 1_555 1_555
H2 C6 1_555 1_555
H3 C7 1_555 1_555
C11 C7 1_555 1_555
C12 C8 1_555 1_555
C15 N3 1_555 1_555
C16 C11 1_555 1_555
C17 C11 1_555 1_555
H9 C15 1_555 1_555
H10 C15 1_555 1_555
C19 C15 1_555 1_555
C21 C16 1_555 1_555
H13 C19 1_555 1_555
H14 C19 1_555 1_555
H16 C21 1_555 1_555
C23 C21 1_555 1_555
H17 C23 1_555 1_555
N2 N3 1_555 1_555
C12 C17 1_555 1_555
C48 C45 1_555 1_555
H33 C45 1_555 1_555
O3 C50 1_555 1_555
C50 C48 1_555 1_555
H36 C49 1_555 1_555
O10 C50 1_555 1_555
C48 C49 1_555 1_555
C36 C31 1_555 1_555
H21 C31 1_555 1_555
H22 C31 1_555 1_555
N5 C36 1_555 1_555
H26 C36 1_555 1_555
H27 C36 1_555 1_555
N6 N5 1_555 1_555
C43 N5 1_555 1_555
C46 N6 1_555 1_555
N4 C43 1_555 1_555
H31 C43 1_555 1_555
C46 N4 1_555 1_555

#END
