
###############################################################################
#
# This file contains modified crystal structure data generated from the
# MOF subset of the Cambridge Structural Database (CSD) v543 
# hosted by the Cambridge Crystallographic Data Centre (CCDC).
#
# This work is licensed under the Creative Commons
# Attribution-NonCommercial-ShareAlike 4.0 International License.
# To view a copy of this license, visit
# http://creativecommons.org/licenses/by-nc-sa/4.0/
# or send a letter to
# Creative Commons, PO Box 1866, Mountain View, CA 94042, USA.
#
# CIF created using the CSD Python API on 29 September 2022
# The structure has been converted into the P1 space group
# The structure has a 3D framework
# The original CSD entry YEQDAC is in the monoclinic crystal system
# The original CSD entry YEQDAC is in a Sohncke space group
# The framework has been calculated to contain at least 10.0% void space
# The void calculation uses a probe of radius 1.32A, grid spacing 0.4
#
###############################################################################

data_YEQDAC
_chemical_formula_moiety         '(C60 H124 Co4 Cu10 N12 Na6 O30 S12)n'
_symmetry_cell_setting           triclinic
_symmetry_space_group_name_H-M   'P 1'
_symmetry_Int_Tables_number      1
_space_group_name_Hall           'P 1'
loop_
_symmetry_equiv_pos_site_id
_symmetry_equiv_pos_as_xyz
1 x,y,z
_cell_length_a                   11.7354(7)
_cell_length_b                   20.308(3)
_cell_length_c                   13.771(3)
_cell_angle_alpha                90
_cell_angle_beta                 107.289(11)
_cell_angle_gamma                90
_cell_volume                     3133.65
loop_
_atom_site_label
_atom_site_type_symbol
_atom_site_fract_x
_atom_site_fract_y
_atom_site_fract_z
H16 H 0.0020 0.2240 0.2012
O3 O 0.0432(4) 0.2138(2) 0.3912(3)
Na6 Na 0.0000 0.05261(17) 0.5000
Na8 Na 0.20796(19) 0.15189(11) 0.48415(18)
Cu2 Cu 0.5000 0.39557(5) 0.0000
Co1 Co 0.61349(7) 0.32039(4) 0.24522(6)
S1 S 0.48077(13) 0.24314(8) 0.16287(11)
C1 C 0.3684(5) 0.2453(3) 0.2363(4)
C2 C 0.4435(5) 0.2639(3) 0.3452(4)
H1 H 0.4979 0.2263 0.3739
C3 C 0.3657(5) 0.2766(4) 0.4155(4)
C4 C 0.2688(5) 0.2947(3) 0.1916(5)
H2 H 0.3027 0.3391 0.1952
H3 H 0.2285 0.2834 0.1205
H4 H 0.2111 0.2934 0.2305
C5 C 0.3170(6) 0.1759(3) 0.2313(5)
H5 H 0.3817 0.1445 0.2602
H6 H 0.2594 0.1743 0.2703
H7 H 0.2769 0.1643 0.1603
N1 N 0.5182(4) 0.3223(3) 0.3420(3)
H8 H 0.5692 0.3285 0.4055
H9 H 0.4695 0.3581 0.3272
O1 O 0.3522(4) 0.3359(2) 0.4374(3)
O2 O 0.3249(4) 0.2281(2) 0.4484(3)
S2 S 0.72222(12) 0.31296(8) 0.13585(11)
C6 C 0.8266(5) 0.2448(3) 0.1928(5)
C7 C 0.8468(5) 0.2520(3) 0.3075(4)
H10 H 0.8858 0.2957 0.3279
C8 C 0.9338(6) 0.1987(3) 0.3693(5)
C9 C 0.7729(6) 0.1776(3) 0.1529(5)
H11 H 0.6990 0.1709 0.1709
H12 H 0.7555 0.1764 0.0788
H13 H 0.8300 0.1428 0.1835
C10 C 0.9420(5) 0.2563(4) 0.1656(5)
H14 H 0.9265 0.2514 0.0921
H15 H 0.9715 0.3008 0.1862
N2 N 0.7290(4) 0.2541(2) 0.3284(4)
H17 H 0.7417 0.2634 0.3955
H18 H 0.6951 0.2135 0.3165
O4 O 0.8906(3) 0.1472(2) 0.3912(3)
S3 S 0.49950(13) 0.40266(8) 0.15545(11)
C11 C 0.5904(5) 0.4759(3) 0.2119(5)
C12 C 0.6486(5) 0.4544(3) 0.3231(5)
H19 H 0.5835 0.4444 0.3541
C13 C 0.7280(6) 0.5100(3) 0.3868(5)
C14 C 0.5024(6) 0.5331(3) 0.2040(6)
H20 H 0.4438 0.5211 0.2389
H21 H 0.5461 0.5724 0.2358
H22 H 0.4612 0.5421 0.1322
C15 C 0.6820(6) 0.4933(3) 0.1583(5)
H23 H 0.7374 0.4563 0.1640
H24 H 0.6415 0.5022 0.0864
H25 H 0.7264 0.5325 0.1899
N3 N 0.7168(4) 0.3928(2) 0.3224(4)
H26 H 0.7514 0.3794 0.3876
H27 H 0.7761 0.4011 0.2940
O5 O 0.8365(4) 0.5074(2) 0.3987(4)
O6 O 0.6714(4) 0.5518(2) 0.4195(3)
Na1 Na 0.5000 0.55261(17) 0.5000
O7 O 0.3839(4) 0.4678(2) 0.3922(4)
H28 H 0.3115 0.4831 0.3569
H29 H 0.3666 0.4351 0.4297
O8 O 0.3771(4) 0.1256(2) 0.6295(3)
H30 H 0.3559 0.0959 0.6675
H31 H 0.3962 0.1603 0.6694
Cu3 Cu 0.38932(6) 0.28044(4) 0.01197(5)
O16 O 0.6161(4) 0.4678(2) 0.6078(4)
H61 H 0.6885 0.4831 0.6431
H62 H 0.6334 0.4351 0.5703
O20 O 0.1094(3) 0.1472(2) 0.6088(3)
O21 O 0.3906(3) 0.6472(2) 0.3912(3)
O22 O 0.6094(3) 0.6472(2) 0.6088(3)
O23 O 0.3286(4) 0.5518(2) 0.5805(3)
O24 O 0.1714(4) 0.0518(2) 0.4195(3)
Na6_2 Na 1.0000 0.05261(17) 0.5000
Na10 Na 0.79204(19) 0.15189(11) 0.51585(18)
Na11 Na 0.70796(19) 0.65189(11) 0.48415(18)
Cu1 Cu 0.61068(6) 0.28044(4) 0.98803(5)
Cu2_2 Cu 0.5000 0.39557(5) 1.0000
Co2 Co 0.38651(7) 0.32039(4) 0.75478(6)
S4 S 0.51923(13) 0.24314(8) 0.83713(11)
C16 C 0.6316(5) 0.2453(3) 0.7637(4)
C17 C 0.5565(5) 0.2639(3) 0.6548(4)
H32 H 0.5021 0.2263 0.6261
C18 C 0.6343(5) 0.2766(4) 0.5845(4)
C19 C 0.7312(5) 0.2947(3) 0.8084(5)
H33 H 0.6973 0.3391 0.8048
H34 H 0.7715 0.2834 0.8795
H35 H 0.7889 0.2934 0.7695
C20 C 0.6830(6) 0.1759(3) 0.7687(5)
H36 H 0.6183 0.1445 0.7398
H37 H 0.7406 0.1743 0.7297
H38 H 0.7231 0.1643 0.8397
N4 N 0.4818(4) 0.3223(3) 0.6580(3)
H39 H 0.4308 0.3285 0.5945
H40 H 0.5305 0.3581 0.6728
O9 O 0.6478(4) 0.3359(2) 0.5626(3)
O10 O 0.6751(4) 0.2281(2) 0.5516(3)
S5 S 0.27778(12) 0.31296(8) 0.86415(11)
C21 C 0.1734(5) 0.2448(3) 0.8072(5)
C22 C 0.1532(5) 0.2520(3) 0.6925(4)
H41 H 0.1142 0.2957 0.6721
C23 C 0.0662(6) 0.1987(3) 0.6307(5)
C24 C 0.2271(6) 0.1776(3) 0.8471(5)
H42 H 0.3010 0.1709 0.8291
H43 H 0.2445 0.1764 0.9212
H44 H 0.1700 0.1428 0.8165
C25 C 0.0580(5) 0.2563(4) 0.8344(5)
H45 H 0.0735 0.2514 0.9079
H46 H 0.0285 0.3008 0.8138
N5 N 0.2710(4) 0.2541(2) 0.6716(4)
H48 H 0.2583 0.2634 0.6045
H49 H 0.3049 0.2135 0.6835
S6 S 0.50050(13) 0.40266(8) 0.84455(11)
C26 C 0.4096(5) 0.4759(3) 0.7881(5)
C27 C 0.3514(5) 0.4544(3) 0.6769(5)
H50 H 0.4165 0.4444 0.6459
C28 C 0.2720(6) 0.5100(3) 0.6132(5)
C29 C 0.4976(6) 0.5331(3) 0.7960(6)
H51 H 0.5562 0.5211 0.7611
H52 H 0.4539 0.5724 0.7642
H53 H 0.5388 0.5421 0.8678
C30 C 0.3180(6) 0.4933(3) 0.8417(5)
H54 H 0.2626 0.4563 0.8360
H55 H 0.3585 0.5022 0.9136
H56 H 0.2736 0.5325 0.8101
N6 N 0.2832(4) 0.3928(2) 0.6776(4)
H57 H 0.2486 0.3794 0.6124
H58 H 0.2239 0.4011 0.7060
O13 O 0.1635(4) 0.5074(2) 0.6013(4)
O15 O 0.6229(4) 0.1256(2) 0.3705(3)
H59 H 0.6441 0.0959 0.3325
H60 H 0.6038 0.1603 0.3306
O18 O 0.9568(4) 0.2138(2) 0.6088(3)
O25 O 0.8286(4) 0.0518(2) 0.5805(3)
Na12 Na 0.29204(19) 0.65189(11) 0.51585(18)
H47 H 0.9980 0.2240 0.7988
C13_2 C 0.2280(6) 0.0100(3) 0.3868(5)
C14_2 C 0.0024(6) 0.0331(3) 0.2040(6)
H21_2 H 0.0461 0.0724 0.2358
H24_2 H 0.1415 0.0022 0.0864
H25_2 H 0.2264 0.0325 0.1899
O5_2 O 0.3365(4) 0.0074(2) 0.3987(4)
H51_2 H 0.0562 0.0211 0.7611
H53_2 H 0.0388 0.0421 0.8678
Cu2_3 Cu 0.0000 0.89557(5) 0.0000
Co1_2 Co 0.11349(7) 0.82039(4) 0.24522(6)
N1_2 N 0.0182(4) 0.8223(3) 0.3420(3)
H8_2 H 0.0692 0.8285 0.4055
S2_2 S 0.22222(12) 0.81296(8) 0.13585(11)
C6_2 C 0.3266(5) 0.7448(3) 0.1928(5)
C7_2 C 0.3468(5) 0.7520(3) 0.3075(4)
H10_2 H 0.3858 0.7957 0.3279
C8_2 C 0.4338(6) 0.6987(3) 0.3693(5)
C9_2 C 0.2729(6) 0.6776(3) 0.1529(5)
H11_2 H 0.1990 0.6709 0.1709
H12_2 H 0.2555 0.6764 0.0788
H13_2 H 0.3300 0.6428 0.1835
C10_2 C 0.4420(5) 0.7563(4) 0.1656(5)
H14_2 H 0.4265 0.7514 0.0921
H15_2 H 0.4715 0.8008 0.1862
H16_2 H 0.5020 0.7240 0.2012
N2_2 N 0.2290(4) 0.7541(2) 0.3284(4)
H17_2 H 0.2417 0.7634 0.3955
H18_2 H 0.1951 0.7135 0.3165
O3_2 O 0.5432(4) 0.7138(2) 0.3912(3)
C11_2 C 0.0904(5) 0.9759(3) 0.2119(5)
C12_2 C 0.1486(5) 0.9544(3) 0.3231(5)
H19_2 H 0.0835 0.9444 0.3541
C15_2 C 0.1820(6) 0.9933(3) 0.1583(5)
H23_2 H 0.2374 0.9563 0.1640
N3_2 N 0.2168(4) 0.8928(2) 0.3224(4)
H26_2 H 0.2514 0.8794 0.3876
H27_2 H 0.2761 0.9011 0.2940
O16_2 O 0.1161(4) 0.9678(2) 0.6078(4)
H61_2 H 0.1885 0.9831 0.6431
H62_2 H 0.1334 0.9351 0.5703
Cu1_2 Cu 0.11068(6) 0.78044(4) 0.98803(5)
Cu2_4 Cu 0.0000 0.89557(5) 1.0000
S4_2 S 0.01923(13) 0.74314(8) 0.83713(11)
C16_2 C 0.1316(5) 0.7453(3) 0.7637(4)
C17_2 C 0.0565(5) 0.7639(3) 0.6548(4)
H32_2 H 0.0021 0.7263 0.6261
C18_2 C 0.1343(5) 0.7766(4) 0.5845(4)
C19_2 C 0.2312(5) 0.7947(3) 0.8084(5)
H33_2 H 0.1973 0.8391 0.8048
H34_2 H 0.2715 0.7834 0.8795
H35_2 H 0.2889 0.7934 0.7695
C20_2 C 0.1830(6) 0.6759(3) 0.7687(5)
H36_2 H 0.1183 0.6445 0.7398
H37_2 H 0.2406 0.6743 0.7297
H38_2 H 0.2231 0.6643 0.8397
H40_2 H 0.0305 0.8581 0.6728
O9_2 O 0.1478(4) 0.8359(2) 0.5626(3)
O10_2 O 0.1751(4) 0.7281(2) 0.5516(3)
S6_2 S 0.00050(13) 0.90266(8) 0.84455(11)
O15_2 O 0.1229(4) 0.6256(2) 0.3705(3)
H59_2 H 0.1441 0.5959 0.3325
H60_2 H 0.1038 0.6603 0.3306
O18_2 O 0.4568(4) 0.7138(2) 0.6088(3)
H20_2 H 0.9438 0.0211 0.2389
H22_2 H 0.9612 0.0421 0.1322
C28_2 C 0.7720(6) 0.0100(3) 0.6132(5)
C29_2 C 0.9976(6) 0.0331(3) 0.7960(6)
H52_2 H 0.9539 0.0724 0.7642
H55_2 H 0.8585 0.0022 0.9136
H56_2 H 0.7736 0.0325 0.8101
O13_2 O 0.6635(4) 0.0074(2) 0.6013(4)
Cu2_5 Cu 1.0000 0.89557(5) 0.0000
S1_2 S 0.98077(13) 0.74314(8) 0.16287(11)
C1_2 C 0.8684(5) 0.7453(3) 0.2363(4)
C2_2 C 0.9435(5) 0.7639(3) 0.3452(4)
H1_2 H 0.9979 0.7263 0.3739
C3_2 C 0.8657(5) 0.7766(4) 0.4155(4)
C4_2 C 0.7688(5) 0.7947(3) 0.1916(5)
H2_2 H 0.8027 0.8391 0.1952
H3_2 H 0.7285 0.7834 0.1205
H4_2 H 0.7111 0.7934 0.2305
C5_2 C 0.8170(6) 0.6759(3) 0.2313(5)
H5_2 H 0.8817 0.6445 0.2602
H6_2 H 0.7594 0.6743 0.2703
H7_2 H 0.7769 0.6643 0.1603
H9_2 H 0.9695 0.8581 0.3272
O1_2 O 0.8522(4) 0.8359(2) 0.4374(3)
O2_2 O 0.8249(4) 0.7281(2) 0.4484(3)
S3_2 S 0.99950(13) 0.90266(8) 0.15545(11)
O7_2 O 0.8839(4) 0.9678(2) 0.3922(4)
H28_2 H 0.8115 0.9831 0.3569
H29_2 H 0.8666 0.9351 0.4297
O8_2 O 0.8771(4) 0.6256(2) 0.6295(3)
H30_2 H 0.8559 0.5959 0.6675
H31_2 H 0.8962 0.6603 0.6694
Cu3_2 Cu 0.88932(6) 0.78044(4) 0.01197(5)
Cu2_6 Cu 1.0000 0.89557(5) 1.0000
Co2_2 Co 0.88651(7) 0.82039(4) 0.75478(6)
N4_2 N 0.9818(4) 0.8223(3) 0.6580(3)
H39_2 H 0.9308 0.8285 0.5945
S5_2 S 0.77778(12) 0.81296(8) 0.86415(11)
C21_2 C 0.6734(5) 0.7448(3) 0.8072(5)
C22_2 C 0.6532(5) 0.7520(3) 0.6925(4)
H41_2 H 0.6142 0.7957 0.6721
C23_2 C 0.5662(6) 0.6987(3) 0.6307(5)
C24_2 C 0.7271(6) 0.6776(3) 0.8471(5)
H42_2 H 0.8010 0.6709 0.8291
H43_2 H 0.7445 0.6764 0.9212
H44_2 H 0.6700 0.6428 0.8165
C25_2 C 0.5580(5) 0.7563(4) 0.8344(5)
H45_2 H 0.5735 0.7514 0.9079
H46_2 H 0.5285 0.8008 0.8138
H47_2 H 0.4980 0.7240 0.7988
N5_2 N 0.7710(4) 0.7541(2) 0.6716(4)
H48_2 H 0.7583 0.7634 0.6045
H49_2 H 0.8049 0.7135 0.6835
C26_2 C 0.9096(5) 0.9759(3) 0.7881(5)
C27_2 C 0.8514(5) 0.9544(3) 0.6769(5)
H50_2 H 0.9165 0.9444 0.6459
C30_2 C 0.8180(6) 0.9933(3) 0.8417(5)
H54_2 H 0.7626 0.9563 0.8360
N6_2 N 0.7832(4) 0.8928(2) 0.6776(4)
H57_2 H 0.7486 0.8794 0.6124
H58_2 H 0.7239 0.9011 0.7060
loop_
_geom_bond_atom_site_label_1
_geom_bond_atom_site_label_2
_geom_bond_site_symmetry_1
_geom_bond_site_symmetry_2
Na8 O3 1_555 1_555
Cu2 S3 1_555 1_555
Co1 S1 1_555 1_555
S1 C1 1_555 1_555
C1 C2 1_555 1_555
C2 H1 1_555 1_555
C3 C2 1_555 1_555
C4 C1 1_555 1_555
H2 C4 1_555 1_555
H3 C4 1_555 1_555
H4 C4 1_555 1_555
C5 C1 1_555 1_555
H5 C5 1_555 1_555
H6 C5 1_555 1_555
H7 C5 1_555 1_555
N1 Co1 1_555 1_555
H8 N1 1_555 1_555
H9 N1 1_555 1_555
O1 C3 1_555 1_555
O2 C3 1_555 1_555
S2 Co1 1_555 1_555
C6 S2 1_555 1_555
C7 C6 1_555 1_555
H10 C7 1_555 1_555
C8 C7 1_555 1_555
C9 C6 1_555 1_555
H11 C9 1_555 1_555
H12 C9 1_555 1_555
H13 C9 1_555 1_555
C10 C6 1_555 1_555
H14 C10 1_555 1_555
H15 C10 1_555 1_555
N2 Co1 1_555 1_555
H17 N2 1_555 1_555
H18 N2 1_555 1_555
O4 C8 1_555 1_555
S3 Co1 1_555 1_555
C11 S3 1_555 1_555
C12 C11 1_555 1_555
H19 C12 1_555 1_555
C13 C12 1_555 1_555
C14 C11 1_555 1_555
H20 C14 1_555 1_555
H21 C14 1_555 1_555
H22 C14 1_555 1_555
C15 C11 1_555 1_555
H23 C15 1_555 1_555
H24 C15 1_555 1_555
H25 C15 1_555 1_555
N3 Co1 1_555 1_555
H26 N3 1_555 1_555
H27 N3 1_555 1_555
O5 C13 1_555 1_555
O6 C13 1_555 1_555
Na1 O6 1_555 1_555
Na8 O2 1_555 1_555
O7 Na1 1_555 1_555
H28 O7 1_555 1_555
H29 O7 1_555 1_555
O8 Na8 1_555 1_555
H30 O8 1_555 1_555
H31 O8 1_555 1_555
Cu3 S1 1_555 1_555
O16 Na1 1_555 1_555
H61 O16 1_555 1_555
H62 O16 1_555 1_555
O20 Na8 1_555 1_555
O21 Na1 1_555 1_555
O22 Na1 1_555 1_555
O23 Na1 1_555 1_555
O24 Na8 1_555 1_555
Na6_2 O4 1_555 1_555
Na10 O4 1_555 1_555
Na11 O6 1_555 1_555
C2 N1 1_555 1_555
C7 N2 1_555 1_555
C12 N3 1_555 1_555
O22 Na11 1_555 1_555
Co2 S4 1_555 1_555
S4 Cu1 1_555 1_555
C16 S4 1_555 1_555
C17 C16 1_555 1_555
H32 C17 1_555 1_555
C18 C17 1_555 1_555
C19 C16 1_555 1_555
H33 C19 1_555 1_555
H34 C19 1_555 1_555
H35 C19 1_555 1_555
C20 C16 1_555 1_555
H36 C20 1_555 1_555
H37 C20 1_555 1_555
H38 C20 1_555 1_555
N4 Co2 1_555 1_555
H39 N4 1_555 1_555
H40 N4 1_555 1_555
O9 C18 1_555 1_555
O10 C18 1_555 1_555
C21 S5 1_555 1_555
C22 C21 1_555 1_555
H41 C22 1_555 1_555
C23 C22 1_555 1_555
C24 C21 1_555 1_555
H42 C24 1_555 1_555
H43 C24 1_555 1_555
H44 C24 1_555 1_555
C25 C21 1_555 1_555
H45 C25 1_555 1_555
H46 C25 1_555 1_555
N5 Co2 1_555 1_555
H48 N5 1_555 1_555
H49 N5 1_555 1_555
O20 C23 1_555 1_555
S6 Cu2_2 1_555 1_555
C26 S6 1_555 1_555
C27 C26 1_555 1_555
H50 C27 1_555 1_555
C28 C27 1_555 1_555
C29 C26 1_555 1_555
H51 C29 1_555 1_555
H52 C29 1_555 1_555
H53 C29 1_555 1_555
C30 C26 1_555 1_555
H54 C30 1_555 1_555
H55 C30 1_555 1_555
H56 C30 1_555 1_555
N6 Co2 1_555 1_555
H57 N6 1_555 1_555
H58 N6 1_555 1_555
O13 C28 1_555 1_555
O23 C28 1_555 1_555
Na10 O10 1_555 1_555
O15 Na10 1_555 1_555
H59 O15 1_555 1_555
H60 O15 1_555 1_555
O18 Na10 1_555 1_555
O25 Na10 1_555 1_555
Na6 O20 1_555 1_555
Na12 O23 1_555 1_555
Co2 S5 1_555 1_555
Co2 S6 1_555 1_555
C17 N4 1_555 1_555
C22 N5 1_555 1_555
C27 N6 1_555 1_555
O21 Na12 1_555 1_555
H21_2 C14_2 1_555 1_555
O5_2 C13_2 1_555 1_555
O24 C13_2 1_555 1_555
Na6 O24 1_555 1_555
N1_2 Co1_2 1_555 1_555
H8_2 N1_2 1_555 1_555
S2_2 Co1_2 1_555 1_555
C6_2 S2_2 1_555 1_555
C7_2 C6_2 1_555 1_555
H10_2 C7_2 1_555 1_555
C8_2 C7_2 1_555 1_555
C9_2 C6_2 1_555 1_555
H11_2 C9_2 1_555 1_555
H12_2 C9_2 1_555 1_555
H13_2 C9_2 1_555 1_555
C10_2 C6_2 1_555 1_555
H14_2 C10_2 1_555 1_555
H15_2 C10_2 1_555 1_555
H16_2 C10_2 1_555 1_555
N2_2 Co1_2 1_555 1_555
H17_2 N2_2 1_555 1_555
H18_2 N2_2 1_555 1_555
O3_2 C8_2 1_555 1_555
O21 C8_2 1_555 1_555
C12_2 C11_2 1_555 1_555
H19_2 C12_2 1_555 1_555
C15_2 C11_2 1_555 1_555
H23_2 C15_2 1_555 1_555
N3_2 Co1_2 1_555 1_555
H26_2 N3_2 1_555 1_555
H27_2 N3_2 1_555 1_555
H61_2 O16_2 1_555 1_555
H62_2 O16_2 1_555 1_555
Na11 O3_2 1_555 1_555
C7_2 N2_2 1_555 1_555
C12_2 N3_2 1_555 1_555
S4_2 Cu1_2 1_555 1_555
C16_2 S4_2 1_555 1_555
C17_2 C16_2 1_555 1_555
H32_2 C17_2 1_555 1_555
C18_2 C17_2 1_555 1_555
C19_2 C16_2 1_555 1_555
H33_2 C19_2 1_555 1_555
H34_2 C19_2 1_555 1_555
H35_2 C19_2 1_555 1_555
C20_2 C16_2 1_555 1_555
H36_2 C20_2 1_555 1_555
H37_2 C20_2 1_555 1_555
H38_2 C20_2 1_555 1_555
O9_2 C18_2 1_555 1_555
O10_2 C18_2 1_555 1_555
S6_2 Cu2_4 1_555 1_555
Na12 O10_2 1_555 1_555
O15_2 Na12 1_555 1_555
H59_2 O15_2 1_555 1_555
H60_2 O15_2 1_555 1_555
O18_2 Na12 1_555 1_555
O25 Na6_2 1_555 1_555
H52_2 C29_2 1_555 1_555
O13_2 C28_2 1_555 1_555
O25 C28_2 1_555 1_555
Cu2_5 S3_2 1_555 1_555
S1_2 C1_2 1_555 1_555
C1_2 C2_2 1_555 1_555
C2_2 H1_2 1_555 1_555
C3_2 C2_2 1_555 1_555
C4_2 C1_2 1_555 1_555
H2_2 C4_2 1_555 1_555
H3_2 C4_2 1_555 1_555
H4_2 C4_2 1_555 1_555
C5_2 C1_2 1_555 1_555
H5_2 C5_2 1_555 1_555
H6_2 C5_2 1_555 1_555
H7_2 C5_2 1_555 1_555
O1_2 C3_2 1_555 1_555
O2_2 C3_2 1_555 1_555
Na11 O2_2 1_555 1_555
H28_2 O7_2 1_555 1_555
H29_2 O7_2 1_555 1_555
O8_2 Na11 1_555 1_555
H30_2 O8_2 1_555 1_555
H31_2 O8_2 1_555 1_555
Cu3_2 S1_2 1_555 1_555
N4_2 Co2_2 1_555 1_555
H39_2 N4_2 1_555 1_555
C21_2 S5_2 1_555 1_555
C22_2 C21_2 1_555 1_555
H41_2 C22_2 1_555 1_555
C23_2 C22_2 1_555 1_555
C24_2 C21_2 1_555 1_555
H42_2 C24_2 1_555 1_555
H43_2 C24_2 1_555 1_555
H44_2 C24_2 1_555 1_555
C25_2 C21_2 1_555 1_555
H45_2 C25_2 1_555 1_555
H46_2 C25_2 1_555 1_555
H47_2 C25_2 1_555 1_555
N5_2 Co2_2 1_555 1_555
H48_2 N5_2 1_555 1_555
H49_2 N5_2 1_555 1_555
O18_2 C23_2 1_555 1_555
O22 C23_2 1_555 1_555
C27_2 C26_2 1_555 1_555
H50_2 C27_2 1_555 1_555
C30_2 C26_2 1_555 1_555
H54_2 C30_2 1_555 1_555
N6_2 Co2_2 1_555 1_555
H57_2 N6_2 1_555 1_555
H58_2 N6_2 1_555 1_555
Co2_2 S5_2 1_555 1_555
C22_2 N5_2 1_555 1_555
C27_2 N6_2 1_555 1_555

#END
