
###############################################################################
#
# This file contains modified crystal structure data generated from the
# MOF subset of the Cambridge Structural Database (CSD) v543 
# hosted by the Cambridge Crystallographic Data Centre (CCDC).
#
# This work is licensed under the Creative Commons
# Attribution-NonCommercial-ShareAlike 4.0 International License.
# To view a copy of this license, visit
# http://creativecommons.org/licenses/by-nc-sa/4.0/
# or send a letter to
# Creative Commons, PO Box 1866, Mountain View, CA 94042, USA.
#
# CIF created using the CSD Python API on 29 September 2022
# The structure has been converted into the P1 space group
# The structure has a 3D framework
# The original CSD entry YESFIO is in the monoclinic crystal system
# The framework has been calculated to contain at least 10.0% void space
# The void calculation uses a probe of radius 1.32A, grid spacing 0.4
#
###############################################################################

data_YESFIO
_chemical_formula_moiety         '(C84 H60 N8 O18 Zn4)n'
_symmetry_cell_setting           triclinic
_symmetry_space_group_name_H-M   'P 1'
_symmetry_Int_Tables_number      1
_space_group_name_Hall           'P 1'
loop_
_symmetry_equiv_pos_site_id
_symmetry_equiv_pos_as_xyz
1 x,y,z
_cell_length_a                   10.486(5)
_cell_length_b                   10.512(5)
_cell_length_c                   22.304(5)
_cell_angle_alpha                90
_cell_angle_beta                 91.829(5)
_cell_angle_gamma                90
_cell_volume                     2457.29
loop_
_atom_site_label
_atom_site_type_symbol
_atom_site_fract_x
_atom_site_fract_y
_atom_site_fract_z
H21 H 0.0618 0.6724 0.4232
H22 H 0.0326 0.4642 0.3958
Zn1 Zn 0.065078(19) 0.120753(19) 0.514495(9)
O5 O 0.22854(13) 0.05862(15) 0.47728(7)
N1 N 0.10399(15) 0.30165(15) 0.54096(8)
C3 C 0.21407(18) 0.35884(18) 0.53044(9)
H1 H 0.2770 0.3126 0.5117
N2 N 0.44080(18) 0.47172(19) 0.50519(11)
C7 C 0.2395(2) 0.48409(19) 0.54615(10)
H5 H 0.4568 0.0388 0.4465
C17 C 0.3644(2) 0.5419(2) 0.53352(11)
C18 C 0.1449(3) 0.5507(3) 0.57409(17)
H10 H 0.1579 0.6351 0.5852
C19 C 0.3888(3) 0.6755(3) 0.55415(19)
H11 H 0.4728 0.7010 0.5432
H12 H 0.3823 0.6798 0.5969
H13 H 0.3268 0.7313 0.5355
C20 C 0.0148(3) 0.3675(3) 0.56858(18)
C21 C 0.0319(3) 0.4919(3) 0.5854(2)
N3 N 0.89601(15) 0.69835(15) 0.45904(8)
C22 C 0.78593(18) 0.64116(18) 0.46956(9)
H16 H 0.7230 0.6874 0.4883
N4 N 0.55920(18) 0.52828(19) 0.49481(11)
C23 C 0.7605(2) 0.51591(19) 0.45385(10)
C24 C 0.6356(2) 0.4581(2) 0.46648(11)
C25 C 0.8551(3) 0.4493(3) 0.42591(17)
H17 H 0.8421 0.3649 0.4148
C26 C 0.6112(3) 0.3245(3) 0.44585(19)
H18 H 0.5272 0.2990 0.4568
H19 H 0.6177 0.3202 0.4031
H20 H 0.6732 0.2687 0.4645
C27 C 0.9852(3) 0.6325(3) 0.43142(18)
C28 C 0.9681(3) 0.5081(3) 0.4146(2)
Zn5 Zn 0.934922(19) 0.879247(19) 0.485505(9)
O14 O 0.11339(15) 0.02555(15) 0.59106(7)
O1 O 0.65440(14) 0.7465(2) 0.34419(7)
O2 O 0.50827(15) 0.65436(15) 0.07010(7)
O3 O 0.61339(15) 0.47445(15) 0.09106(7)
C1 C 0.60161(19) 0.62974(19) 0.16680(9)
O4 O 0.12386(14) 0.87998(15) 0.45632(8)
C2 C 0.33727(18) 0.8940(2) 0.42723(9)
C4 C 0.5582(2) 0.7787(2) 0.24571(10)
H2 H 0.5171 0.8516 0.2587
C5 C 0.22139(18) 0.9488(2) 0.45588(9)
C6 C 0.5417(2) 0.7383(2) 0.18729(9)
H3 H 0.4893 0.7848 0.1610
C8 C 0.6817(2) 0.5637(2) 0.20645(10)
H4 H 0.7240 0.4916 0.1934
C9 C 0.45117(18) 0.9599(2) 0.42769(9)
C10 C 0.55750(19) 0.9100(3) 0.40045(10)
H6 H 0.6344 0.9542 0.4015
C11 C 0.4360(2) 0.7259(3) 0.37190(12)
H7 H 0.4311 0.6467 0.3533
C12 C 0.54742(19) 0.7950(3) 0.37204(9)
C13 C 0.3317(2) 0.7758(2) 0.39975(12)
H8 H 0.2563 0.7293 0.4001
C14 C 0.63550(19) 0.7106(2) 0.28469(9)
C15 C 0.6996(2) 0.6035(3) 0.26514(11)
H9 H 0.7541 0.5590 0.2913
C16 C 0.57270(18) 0.5827(2) 0.10443(9)
Zn7 Zn 0.565078(19) 0.379247(19) 0.014495(9)
O12 O 0.00827(15) 0.84564(15) 0.57010(7)
Zn4 Zn 0.434922(19) 0.620753(19) 0.985505(9)
H14 H 0.9382 0.3276 0.5768
H15 H 0.9674 0.5358 0.6042
O6 O 0.34560(14) 0.2535(2) 0.65581(7)
O7 O 0.49173(15) 0.34564(15) 0.92990(7)
O8 O 0.38661(15) 0.52555(15) 0.90894(7)
C29 C 0.39839(19) 0.37026(19) 0.83320(9)
O9 O 0.87614(14) 0.12002(15) 0.54368(8)
C30 C 0.66273(18) 0.1060(2) 0.57277(9)
C31 C 0.4418(2) 0.2213(2) 0.75429(10)
H23 H 0.4829 0.1484 0.7413
C32 C 0.77861(18) 0.0512(2) 0.54412(9)
C33 C 0.4583(2) 0.2617(2) 0.81271(9)
H24 H 0.5107 0.2152 0.8390
C34 C 0.3183(2) 0.4363(2) 0.79355(10)
H25 H 0.2760 0.5084 0.8066
C35 C 0.54883(18) 0.0401(2) 0.57231(9)
C36 C 0.44250(19) 0.0900(3) 0.59955(10)
H27 H 0.3656 0.0458 0.5985
C37 C 0.5640(2) 0.2741(3) 0.62810(12)
H28 H 0.5689 0.3533 0.6467
C38 C 0.45258(19) 0.2050(3) 0.62796(9)
C39 C 0.6683(2) 0.2242(2) 0.60025(12)
H29 H 0.7437 0.2707 0.5999
C40 C 0.36450(19) 0.2894(2) 0.71531(9)
C41 C 0.3004(2) 0.3965(3) 0.73486(11)
H30 H 0.2459 0.4410 0.7087
C42 C 0.42730(18) 0.4173(2) 0.89557(9)
O11 O 0.99173(15) 0.15436(15) 0.42990(7)
O10 O 0.77146(13) 0.94138(15) 0.52272(7)
H26 H 0.5432 0.9612 0.5535
O13 O 0.88661(15) 0.97445(15) 0.40894(7)
H25_2 H 0.2240 0.0084 0.6934
O6_2 O 0.15440(14) 0.7535(2) 0.84419(7)
C29_2 C 0.10161(19) 0.87026(19) 0.66680(9)
C31_2 C 0.0582(2) 0.7213(2) 0.74571(10)
H23_2 H 0.0171 0.6484 0.7587
C33_2 C 0.0417(2) 0.7617(2) 0.68729(9)
C34_2 C 0.1817(2) 0.9363(2) 0.70645(10)
C36_2 C 0.05750(19) 0.5900(3) 0.90045(10)
H27_2 H 0.1344 0.5458 0.9015
C38_2 C 0.04742(19) 0.7050(3) 0.87204(9)
C40_2 C 0.13550(19) 0.7894(2) 0.78469(9)
C41_2 C 0.1996(2) 0.8965(3) 0.76514(11)
H30_2 H 0.2541 0.9410 0.7913
C42_2 C 0.07270(18) 0.9173(2) 0.60443(9)
C17_2 C 0.1356(2) 0.0419(2) 0.96648(11)
C18_2 C 0.3551(3) 0.0507(3) 0.92591(17)
H10_2 H 0.3421 0.1351 0.9148
C19_2 C 0.1112(3) 0.1755(3) 0.94585(19)
H11_2 H 0.0272 0.2010 0.9568
H12_2 H 0.1177 0.1798 0.9031
H13_2 H 0.1732 0.2313 0.9645
H15_2 H 0.5326 0.0358 0.8958
O4_2 O 0.37614(14) 0.37998(15) 0.04368(8)
O5_2 O 0.27146(13) 0.55862(15) 0.02272(7)
C2_2 C 0.16273(18) 0.3940(2) 0.07277(9)
C5_2 C 0.27861(18) 0.4488(2) 0.04412(9)
H3_2 H 0.0107 0.2848 0.3390
C9_2 C 0.04883(18) 0.4599(2) 0.07231(9)
H5_2 H 0.0432 0.5388 0.0535
C11_2 C 0.0640(2) 0.2259(3) 0.12810(12)
H7_2 H 0.0689 0.1467 0.1467
C13_2 C 0.1683(2) 0.2758(2) 0.10025(12)
H8_2 H 0.2437 0.2293 0.0999
N5 N 0.60399(15) 0.19835(15) 0.04096(8)
N1_2 N 0.39601(15) 0.80165(15) 0.95904(8)
C3_2 C 0.28593(18) 0.85884(18) 0.96956(9)
H1_2 H 0.2230 0.8126 0.9883
N2_2 N 0.05920(18) 0.97172(19) 0.99481(11)
C7_2 C 0.2605(2) 0.98409(19) 0.95385(10)
C20_2 C 0.4852(3) 0.8675(3) 0.93142(18)
H14_2 H 0.5618 0.8276 0.9232
C21_2 C 0.4681(3) 0.9919(3) 0.9146(2)
O9_2 O 0.62386(14) 0.62002(15) 0.95632(8)
O10_2 O 0.72854(13) 0.44138(15) 0.97728(7)
C30_2 C 0.83727(18) 0.6060(2) 0.92723(9)
C32_2 C 0.72139(18) 0.5512(2) 0.95588(9)
H24_2 H 0.9893 0.7152 0.6610
C35_2 C 0.95117(18) 0.5401(2) 0.92769(9)
H26_2 H 0.9568 0.4612 0.9465
C37_2 C 0.9360(2) 0.7741(3) 0.87190(12)
H28_2 H 0.9311 0.8533 0.8533
C39_2 C 0.8317(2) 0.7242(2) 0.89975(12)
H29_2 H 0.7563 0.7707 0.9001
C22_2 C 0.71407(18) 0.14116(18) 0.03044(9)
H16_2 H 0.7770 0.1874 0.0117
N4_2 N 0.94080(18) 0.02828(19) 0.00519(11)
C23_2 C 0.7395(2) 0.01591(19) 0.04615(10)
C27_2 C 0.5148(3) 0.1325(3) 0.06858(18)
H21_2 H 0.4382 0.1724 0.0768
C28_2 C 0.5319(3) 0.0081(3) 0.0854(2)
O1_2 O 0.84560(14) 0.2465(2) 0.15581(7)
C1_2 C 0.89839(19) 0.12974(19) 0.33320(9)
C4_2 C 0.9418(2) 0.2787(2) 0.25429(10)
H2_2 H 0.9829 0.3516 0.2413
C6_2 C 0.9583(2) 0.2383(2) 0.31271(9)
C8_2 C 0.8183(2) 0.0637(2) 0.29355(10)
C10_2 C 0.94250(19) 0.4100(3) 0.09955(10)
H6_2 H 0.8656 0.4542 0.0985
C12_2 C 0.95258(19) 0.2950(3) 0.12796(9)
C14_2 C 0.86450(19) 0.2106(2) 0.21531(9)
C15_2 C 0.8004(2) 0.1035(3) 0.23486(11)
H9_2 H 0.7459 0.0590 0.2087
C16_2 C 0.92730(18) 0.0827(2) 0.39557(9)
C24_2 C 0.8644(2) 0.9581(2) 0.03352(11)
C25_2 C 0.6449(3) 0.9493(3) 0.07409(17)
H17_2 H 0.6579 0.8649 0.0852
C26_2 C 0.8888(3) 0.8245(3) 0.05415(19)
H18_2 H 0.9728 0.7990 0.0432
H19_2 H 0.8823 0.8202 0.0969
H20_2 H 0.8268 0.7687 0.0355
H22_2 H 0.4674 0.9642 0.1042
H4_2 H 0.7760 0.9916 0.3066
loop_
_geom_bond_atom_site_label_1
_geom_bond_atom_site_label_2
_geom_bond_site_symmetry_1
_geom_bond_site_symmetry_2
Zn1 O5 1_555 1_555
N1 Zn1 1_555 1_555
C3 N1 1_555 1_555
H1 C3 1_555 1_555
N2 C17 1_555 1_555
C7 C3 1_555 1_555
C17 C7 1_555 1_555
C18 C7 1_555 1_555
H10 C18 1_555 1_555
C19 C17 1_555 1_555
H11 C19 1_555 1_555
H12 C19 1_555 1_555
H13 C19 1_555 1_555
C20 N1 1_555 1_555
C21 C18 1_555 1_555
N3 C22 1_555 1_555
C22 H16 1_555 1_555
N4 N2 1_555 1_555
C23 C22 1_555 1_555
C24 N4 1_555 1_555
C25 C23 1_555 1_555
H17 C25 1_555 1_555
C26 C24 1_555 1_555
H18 C26 1_555 1_555
H19 C26 1_555 1_555
H20 C26 1_555 1_555
C27 N3 1_555 1_555
C28 C25 1_555 1_555
Zn5 N3 1_555 1_555
O14 Zn1 1_555 1_555
C20 C21 1_555 1_555
C23 C24 1_555 1_555
C27 C28 1_555 1_555
O1 C12 1_555 1_555
O2 C16 1_555 1_555
O3 C16 1_555 1_555
C1 C6 1_555 1_555
O4 C5 1_555 1_555
C2 C5 1_555 1_555
C4 H2 1_555 1_555
C6 C4 1_555 1_555
H3 C6 1_555 1_555
C8 C1 1_555 1_555
H4 C8 1_555 1_555
C9 C2 1_555 1_555
C10 C9 1_555 1_555
H6 C10 1_555 1_555
C11 H7 1_555 1_555
C12 C10 1_555 1_555
C13 C2 1_555 1_555
H8 C13 1_555 1_555
C14 O1 1_555 1_555
C15 C8 1_555 1_555
H9 C15 1_555 1_555
C16 C1 1_555 1_555
Zn7 O3 1_555 1_555
C4 C14 1_555 1_555
C11 C12 1_555 1_555
C11 C13 1_555 1_555
C14 C15 1_555 1_555
O6 C38 1_555 1_555
O7 C42 1_555 1_555
O8 C42 1_555 1_555
C29 C33 1_555 1_555
C30 C32 1_555 1_555
C31 H23 1_555 1_555
C32 O9 1_555 1_555
C33 C31 1_555 1_555
H24 C33 1_555 1_555
C34 C29 1_555 1_555
H25 C34 1_555 1_555
C35 C30 1_555 1_555
C36 C35 1_555 1_555
H27 C36 1_555 1_555
C37 H28 1_555 1_555
C38 C36 1_555 1_555
C39 C30 1_555 1_555
H29 C39 1_555 1_555
C40 O6 1_555 1_555
C41 C34 1_555 1_555
H30 C41 1_555 1_555
C42 C29 1_555 1_555
Zn4 O8 1_555 1_555
C31 C40 1_555 1_555
C37 C38 1_555 1_555
C37 C39 1_555 1_555
C40 C41 1_555 1_555
O10 Zn5 1_555 1_555
O13 Zn5 1_555 1_555
O6_2 C38_2 1_555 1_555
O12 C42_2 1_555 1_555
C29_2 C33_2 1_555 1_555
C31_2 H23_2 1_555 1_555
C33_2 C31_2 1_555 1_555
C34_2 C29_2 1_555 1_555
H27_2 C36_2 1_555 1_555
C38_2 C36_2 1_555 1_555
C40_2 O6_2 1_555 1_555
C41_2 C34_2 1_555 1_555
H30_2 C41_2 1_555 1_555
C42_2 C29_2 1_555 1_555
C31_2 C40_2 1_555 1_555
C40_2 C41_2 1_555 1_555
H10_2 C18_2 1_555 1_555
C19_2 C17_2 1_555 1_555
H11_2 C19_2 1_555 1_555
H12_2 C19_2 1_555 1_555
H13_2 C19_2 1_555 1_555
O4_2 C5_2 1_555 1_555
O5_2 C5_2 1_555 1_555
C2_2 C5_2 1_555 1_555
C9_2 C2_2 1_555 1_555
H5_2 C9_2 1_555 1_555
C11_2 H7_2 1_555 1_555
C13_2 C2_2 1_555 1_555
H8_2 C13_2 1_555 1_555
Zn7 O4_2 1_555 1_555
N5 Zn7 1_555 1_555
C11_2 C13_2 1_555 1_555
N1_2 Zn4 1_555 1_555
C3_2 N1_2 1_555 1_555
H1_2 C3_2 1_555 1_555
C7_2 C3_2 1_555 1_555
C20_2 N1_2 1_555 1_555
H14_2 C20_2 1_555 1_555
O9_2 Zn4 1_555 1_555
C30_2 C32_2 1_555 1_555
C32_2 O9_2 1_555 1_555
C35_2 C30_2 1_555 1_555
H26_2 C35_2 1_555 1_555
C37_2 H28_2 1_555 1_555
C39_2 C30_2 1_555 1_555
H29_2 C39_2 1_555 1_555
C20_2 C21_2 1_555 1_555
O10_2 C32_2 1_555 1_555
C37_2 C39_2 1_555 1_555
N5 C22_2 1_555 1_555
C22_2 H16_2 1_555 1_555
C23_2 C22_2 1_555 1_555
C27_2 N5 1_555 1_555
H21_2 C27_2 1_555 1_555
C27_2 C28_2 1_555 1_555
O1_2 C12_2 1_555 1_555
O11 C16_2 1_555 1_555
C1_2 C6_2 1_555 1_555
C4_2 H2_2 1_555 1_555
C6_2 C4_2 1_555 1_555
C8_2 C1_2 1_555 1_555
H6_2 C10_2 1_555 1_555
C12_2 C10_2 1_555 1_555
C14_2 O1_2 1_555 1_555
C15_2 C8_2 1_555 1_555
H9_2 C15_2 1_555 1_555
C16_2 C1_2 1_555 1_555
H17_2 C25_2 1_555 1_555
C26_2 C24_2 1_555 1_555
H18_2 C26_2 1_555 1_555
H19_2 C26_2 1_555 1_555
H20_2 C26_2 1_555 1_555
C4_2 C14_2 1_555 1_555
C14_2 C15_2 1_555 1_555

#END
