
###############################################################################
#
# This file contains modified crystal structure data generated from the
# MOF subset of the Cambridge Structural Database (CSD) v543 
# hosted by the Cambridge Crystallographic Data Centre (CCDC).
#
# This work is licensed under the Creative Commons
# Attribution-NonCommercial-ShareAlike 4.0 International License.
# To view a copy of this license, visit
# http://creativecommons.org/licenses/by-nc-sa/4.0/
# or send a letter to
# Creative Commons, PO Box 1866, Mountain View, CA 94042, USA.
#
# CIF created using the CSD Python API on 29 September 2022
# The structure has been converted into the P1 space group
# The structure has a 3D framework
# The original CSD entry YESXAY is in the cubic crystal system
# The framework has been calculated to contain at least 10.0% void space
# The void calculation uses a probe of radius 1.32A, grid spacing 0.4
#
###############################################################################

data_YESXAY
_chemical_formula_moiety         '(C72 H48 N72 O48 Zn14)n'
_symmetry_cell_setting           triclinic
_symmetry_space_group_name_H-M   'P 1'
_symmetry_Int_Tables_number      1
_space_group_name_Hall           'P 1'
loop_
_symmetry_equiv_pos_site_id
_symmetry_equiv_pos_as_xyz
1 x,y,z
_cell_length_a                   17.359(3)
_cell_length_b                   17.359(3)
_cell_length_c                   17.359(3)
_cell_angle_alpha                90
_cell_angle_beta                 90
_cell_angle_gamma                90
_cell_volume                     5230.87
loop_
_atom_site_label
_atom_site_type_symbol
_atom_site_fract_x
_atom_site_fract_y
_atom_site_fract_z
O1 O 0.3847(2) 0.4724(2) 0.0991(2)
N1 N 0.4124(2) 0.4124(2) 0.0749(3)
C1 C 0.37359(19) 0.37359(19) 0.0138(3)
Zn1 Zn 0.5000 0.2500 0.0000
O2 O 0.4724(2) 0.3847(2) 0.0991(2)
O3 O 0.5991(2) 0.0276(2) 0.1153(2)
N4 N 0.5749(3) 0.0876(2) 0.0876(2)
C4 C 0.5138(3) 0.12641(19) 0.12641(19)
N5 N 0.4848(2) 0.19193(18) 0.09955(18)
C5 C 0.4281(3) 0.2084(3) 0.1515(3)
H3 H 0.3934 0.2515 0.1506
O4 O 0.5991(2) 0.1153(2) 0.0276(2)
N6 N 0.4848(2) 0.09955(18) 0.19193(18)
C6 C 0.4281(3) 0.1515(3) 0.2084(3)
H4 H 0.3934 0.1506 0.2515
N7 N 0.59955(18) 0.30807(18) 0.0152(2)
Zn2 Zn 0.2500 0.5000 0.0000
Zn3 Zn 0.5000 0.0000 0.2500
N2 N 0.40045(18) 0.30807(18) 0.9848(2)
C2 C 0.3485(3) 0.2916(3) 0.9281(3)
H1 H 0.3494 0.2485 0.8934
Zn1_2 Zn 0.5000 0.2500 1.0000
N3 N 0.30807(18) 0.40045(18) 0.9848(2)
C3 C 0.2916(3) 0.3485(3) 0.9281(3)
H2 H 0.2485 0.3494 0.8934
N8 N 0.5152(2) 0.19193(18) 0.90045(18)
Zn2_2 Zn 0.2500 0.5000 1.0000
Zn3_2 Zn 0.5000 1.0000 0.2500
Zn1_3 Zn 0.0000 0.7500 0.5000
O3_2 O 0.0991(2) 0.5276(2) 0.6153(2)
N4_2 N 0.0749(3) 0.5876(2) 0.5876(2)
C4_2 C 0.0138(3) 0.62641(19) 0.62641(19)
O4_2 O 0.0991(2) 0.6153(2) 0.5276(2)
N7_2 N 0.09955(18) 0.80807(18) 0.5152(2)
N8_2 N 0.0152(2) 0.69193(18) 0.40045(18)
Zn3_3 Zn 0.0000 0.5000 0.7500
Zn2_3 Zn 0.7500 0.0000 0.5000
O1_2 O 0.8847(2) 0.9724(2) 0.5991(2)
N1_2 N 0.9124(2) 0.9124(2) 0.5749(3)
C1_2 C 0.87359(19) 0.87359(19) 0.5138(3)
N2_2 N 0.90045(18) 0.80807(18) 0.4848(2)
C2_2 C 0.8485(3) 0.7916(3) 0.4281(3)
H1_2 H 0.8494 0.7485 0.3934
Zn1_4 Zn 1.0000 0.7500 0.5000
O2_2 O 0.9724(2) 0.8847(2) 0.5991(2)
N3_2 N 0.80807(18) 0.90045(18) 0.4848(2)
C3_2 C 0.7916(3) 0.8485(3) 0.4281(3)
H2_2 H 0.7485 0.8494 0.3934
N5_2 N 0.9848(2) 0.69193(18) 0.59955(18)
C5_2 C 0.9281(3) 0.7084(3) 0.6515(3)
H3_2 H 0.8934 0.7515 0.6506
N6_2 N 0.9848(2) 0.59955(18) 0.69193(18)
C6_2 C 0.9281(3) 0.6515(3) 0.7084(3)
H4_2 H 0.8934 0.6506 0.7515
Zn2_4 Zn 0.7500 1.0000 0.5000
Zn3_4 Zn 1.0000 0.5000 0.7500
O1_3 O 0.4724(2) 0.0991(2) 0.3847(2)
N1_3 N 0.4124(2) 0.0749(3) 0.4124(2)
C1_3 C 0.37359(19) 0.0138(3) 0.37359(19)
Zn1_5 Zn 0.2500 0.0000 0.5000
O2_3 O 0.3847(2) 0.0991(2) 0.4724(2)
O3_3 O 0.0276(2) 0.1153(2) 0.5991(2)
N4_3 N 0.0876(2) 0.0876(2) 0.5749(3)
C4_3 C 0.12641(19) 0.12641(19) 0.5138(3)
N5_3 N 0.19193(18) 0.09955(18) 0.4848(2)
C5_3 C 0.2084(3) 0.1515(3) 0.4281(3)
H3_3 H 0.2515 0.1506 0.3934
O4_3 O 0.1153(2) 0.0276(2) 0.5991(2)
N6_3 N 0.09955(18) 0.19193(18) 0.4848(2)
C6_3 C 0.1515(3) 0.2084(3) 0.4281(3)
H4_3 H 0.1506 0.2515 0.3934
N7_3 N 0.30807(18) 0.0152(2) 0.59955(18)
Zn3_5 Zn 0.0000 0.2500 0.5000
N2_3 N 0.30807(18) 0.9848(2) 0.40045(18)
C2_3 C 0.2916(3) 0.9281(3) 0.3485(3)
H1_3 H 0.2485 0.8934 0.3494
Zn1_6 Zn 0.2500 1.0000 0.5000
N3_3 N 0.40045(18) 0.9848(2) 0.30807(18)
C3_3 C 0.3485(3) 0.9281(3) 0.2916(3)
H2_3 H 0.3494 0.8934 0.2485
N8_3 N 0.19193(18) 0.90045(18) 0.5152(2)
Zn3_6 Zn 1.0000 0.2500 0.5000
Zn1_7 Zn 0.7500 0.5000 0.0000
O3_4 O 0.5276(2) 0.6153(2) 0.0991(2)
N4_4 N 0.5876(2) 0.5876(2) 0.0749(3)
C4_4 C 0.62641(19) 0.62641(19) 0.0138(3)
O4_4 O 0.6153(2) 0.5276(2) 0.0991(2)
N7_4 N 0.80807(18) 0.5152(2) 0.09955(18)
N8_4 N 0.69193(18) 0.40045(18) 0.0152(2)
Zn3_7 Zn 0.5000 0.7500 0.0000
O1_4 O 0.9724(2) 0.5991(2) 0.8847(2)
N1_4 N 0.9124(2) 0.5749(3) 0.9124(2)
C1_4 C 0.87359(19) 0.5138(3) 0.87359(19)
N2_4 N 0.80807(18) 0.4848(2) 0.90045(18)
C2_4 C 0.7916(3) 0.4281(3) 0.8485(3)
H1_4 H 0.7485 0.3934 0.8494
Zn1_8 Zn 0.7500 0.5000 1.0000
O2_4 O 0.8847(2) 0.5991(2) 0.9724(2)
N3_4 N 0.90045(18) 0.4848(2) 0.80807(18)
C3_4 C 0.8485(3) 0.4281(3) 0.7916(3)
H2_4 H 0.8494 0.3934 0.7485
N5_4 N 0.69193(18) 0.59955(18) 0.9848(2)
C5_4 C 0.7084(3) 0.6515(3) 0.9281(3)
H3_4 H 0.7515 0.6506 0.8934
N6_4 N 0.59955(18) 0.69193(18) 0.9848(2)
C6_4 C 0.6515(3) 0.7084(3) 0.9281(3)
H4_4 H 0.6506 0.7515 0.8934
Zn3_8 Zn 0.5000 0.7500 1.0000
O1_5 O 0.0991(2) 0.3847(2) 0.4724(2)
N1_5 N 0.0749(3) 0.4124(2) 0.4124(2)
C1_5 C 0.0138(3) 0.37359(19) 0.37359(19)
Zn1_9 Zn 0.0000 0.5000 0.2500
O2_5 O 0.0991(2) 0.4724(2) 0.3847(2)
O3_5 O 0.1153(2) 0.5991(2) 0.0276(2)
N4_5 N 0.0876(2) 0.5749(3) 0.0876(2)
C4_5 C 0.12641(19) 0.5138(3) 0.12641(19)
N5_5 N 0.09955(18) 0.4848(2) 0.19193(18)
C5_5 C 0.1515(3) 0.4281(3) 0.2084(3)
H3_5 H 0.1506 0.3934 0.2515
O4_5 O 0.0276(2) 0.5991(2) 0.1153(2)
N6_5 N 0.19193(18) 0.4848(2) 0.09955(18)
C6_5 C 0.2084(3) 0.4281(3) 0.1515(3)
H4_5 H 0.2515 0.3934 0.1506
N7_5 N 0.0152(2) 0.59955(18) 0.30807(18)
N2_5 N 0.9848(2) 0.40045(18) 0.30807(18)
C2_5 C 0.9281(3) 0.3485(3) 0.2916(3)
H1_5 H 0.8934 0.3494 0.2485
Zn1_10 Zn 1.0000 0.5000 0.2500
N3_5 N 0.9848(2) 0.30807(18) 0.40045(18)
C3_5 C 0.9281(3) 0.2916(3) 0.3485(3)
H2_5 H 0.8934 0.2485 0.3494
N8_5 N 0.90045(18) 0.5152(2) 0.19193(18)
Zn1_11 Zn 0.5000 0.0000 0.7500
O3_6 O 0.6153(2) 0.0991(2) 0.5276(2)
N4_6 N 0.5876(2) 0.0749(3) 0.5876(2)
C4_6 C 0.62641(19) 0.0138(3) 0.62641(19)
O4_6 O 0.5276(2) 0.0991(2) 0.6153(2)
N7_6 N 0.5152(2) 0.09955(18) 0.80807(18)
N8_6 N 0.40045(18) 0.0152(2) 0.69193(18)
O1_6 O 0.5991(2) 0.8847(2) 0.9724(2)
N1_6 N 0.5749(3) 0.9124(2) 0.9124(2)
C1_6 C 0.5138(3) 0.87359(19) 0.87359(19)
N2_6 N 0.4848(2) 0.90045(18) 0.80807(18)
C2_6 C 0.4281(3) 0.8485(3) 0.7916(3)
H1_6 H 0.3934 0.8494 0.7485
Zn1_12 Zn 0.5000 1.0000 0.7500
O2_6 O 0.5991(2) 0.9724(2) 0.8847(2)
N3_6 N 0.4848(2) 0.80807(18) 0.90045(18)
C3_6 C 0.4281(3) 0.7916(3) 0.8485(3)
H2_6 H 0.3934 0.7485 0.8494
N5_6 N 0.59955(18) 0.9848(2) 0.69193(18)
C5_6 C 0.6515(3) 0.9281(3) 0.7084(3)
H3_6 H 0.6506 0.8934 0.7515
N6_6 N 0.69193(18) 0.9848(2) 0.59955(18)
C6_6 C 0.7084(3) 0.9281(3) 0.6515(3)
H4_6 H 0.7515 0.8934 0.6506
N2_7 N 0.30807(18) 0.59955(18) 0.0152(2)
C2_7 C 0.2916(3) 0.6515(3) 0.0719(3)
H1_7 H 0.2485 0.6506 0.1066
N3_7 N 0.40045(18) 0.69193(18) 0.0152(2)
C3_7 C 0.3485(3) 0.7084(3) 0.0719(3)
H2_7 H 0.3494 0.7515 0.1066
O1_7 O 0.4724(2) 0.6153(2) 0.9009(2)
N1_7 N 0.4124(2) 0.5876(2) 0.9251(3)
C1_7 C 0.37359(19) 0.62641(19) 0.9862(3)
O2_7 O 0.3847(2) 0.5276(2) 0.9009(2)
O3_7 O 0.0276(2) 0.4009(2) 0.8847(2)
N4_7 N 0.0876(2) 0.4251(3) 0.9124(2)
C4_7 C 0.12641(19) 0.4862(3) 0.87359(19)
N5_7 N 0.19193(18) 0.5152(2) 0.90045(18)
C5_7 C 0.2084(3) 0.5719(3) 0.8485(3)
H3_7 H 0.2515 0.6066 0.8494
O4_7 O 0.1153(2) 0.4009(2) 0.9724(2)
N6_7 N 0.09955(18) 0.5152(2) 0.80807(18)
C6_7 C 0.1515(3) 0.5719(3) 0.7916(3)
H4_7 H 0.1506 0.6066 0.7485
O1_8 O 0.9724(2) 0.1153(2) 0.4009(2)
N1_8 N 0.9124(2) 0.0876(2) 0.4251(3)
C1_8 C 0.87359(19) 0.12641(19) 0.4862(3)
N2_8 N 0.80807(18) 0.09955(18) 0.5152(2)
C2_8 C 0.7916(3) 0.1515(3) 0.5719(3)
H1_8 H 0.7485 0.1506 0.6066
O2_8 O 0.8847(2) 0.0276(2) 0.4009(2)
N3_8 N 0.90045(18) 0.19193(18) 0.5152(2)
C3_8 C 0.8485(3) 0.2084(3) 0.5719(3)
H2_8 H 0.8494 0.2515 0.6066
N5_8 N 0.69193(18) 0.0152(2) 0.40045(18)
C5_8 C 0.7084(3) 0.0719(3) 0.3485(3)
H3_8 H 0.7515 0.1066 0.3494
N6_8 N 0.59955(18) 0.0152(2) 0.30807(18)
C6_8 C 0.6515(3) 0.0719(3) 0.2916(3)
H4_8 H 0.6506 0.1066 0.2485
O3_8 O 0.5276(2) 0.9009(2) 0.3847(2)
N4_8 N 0.5876(2) 0.9251(3) 0.4124(2)
C4_8 C 0.62641(19) 0.9862(3) 0.37359(19)
O4_8 O 0.6153(2) 0.9009(2) 0.4724(2)
O3_9 O 0.1153(2) 0.9724(2) 0.4009(2)
N4_9 N 0.0876(2) 0.9124(2) 0.4251(3)
C4_9 C 0.12641(19) 0.87359(19) 0.4862(3)
C5_9 C 0.1515(3) 0.7916(3) 0.5719(3)
H3_9 H 0.1506 0.7485 0.6066
O4_9 O 0.0276(2) 0.8847(2) 0.4009(2)
C6_9 C 0.2084(3) 0.8485(3) 0.5719(3)
H4_9 H 0.2515 0.8494 0.6066
C5_10 C 0.6515(3) 0.2916(3) 0.0719(3)
H3_10 H 0.6506 0.2485 0.1066
C6_10 C 0.7084(3) 0.3485(3) 0.0719(3)
H4_10 H 0.7515 0.3494 0.1066
O3_10 O 0.6153(2) 0.4724(2) 0.9009(2)
N4_10 N 0.5876(2) 0.4124(2) 0.9251(3)
C4_10 C 0.62641(19) 0.37359(19) 0.9862(3)
O4_10 O 0.5276(2) 0.3847(2) 0.9009(2)
C2_9 C 0.3485(3) 0.0719(3) 0.7084(3)
H1_9 H 0.3494 0.1066 0.7515
C3_9 C 0.2916(3) 0.0719(3) 0.6515(3)
H2_9 H 0.2485 0.1066 0.6506
O1_9 O 0.3847(2) 0.9009(2) 0.5276(2)
N1_9 N 0.4124(2) 0.9251(3) 0.5876(2)
C1_9 C 0.37359(19) 0.9862(3) 0.62641(19)
O2_9 O 0.4724(2) 0.9009(2) 0.6153(2)
O1_10 O 0.8847(2) 0.4009(2) 0.0276(2)
N1_10 N 0.9124(2) 0.4251(3) 0.0876(2)
C1_10 C 0.87359(19) 0.4862(3) 0.12641(19)
C2_10 C 0.8485(3) 0.5719(3) 0.2084(3)
H1_10 H 0.8494 0.6066 0.2515
O2_10 O 0.9724(2) 0.4009(2) 0.1153(2)
C3_10 C 0.7916(3) 0.5719(3) 0.1515(3)
H2_10 H 0.7485 0.6066 0.1506
O3_11 O 0.4009(2) 0.9724(2) 0.1153(2)
N4_11 N 0.4251(3) 0.9124(2) 0.0876(2)
C4_11 C 0.4862(3) 0.87359(19) 0.12641(19)
N5_9 N 0.5152(2) 0.80807(18) 0.09955(18)
C5_11 C 0.5719(3) 0.7916(3) 0.1515(3)
H3_11 H 0.6066 0.7485 0.1506
O4_11 O 0.4009(2) 0.8847(2) 0.0276(2)
N6_9 N 0.5152(2) 0.90045(18) 0.19193(18)
C6_11 C 0.5719(3) 0.8485(3) 0.2084(3)
H4_11 H 0.6066 0.8494 0.2515
N5_10 N 0.0152(2) 0.30807(18) 0.59955(18)
C5_12 C 0.0719(3) 0.2916(3) 0.6515(3)
H3_12 H 0.1066 0.2485 0.6506
N6_10 N 0.0152(2) 0.40045(18) 0.69193(18)
C6_12 C 0.0719(3) 0.3485(3) 0.7084(3)
H4_12 H 0.1066 0.3494 0.7515
O3_12 O 0.9009(2) 0.4724(2) 0.6153(2)
N4_12 N 0.9251(3) 0.4124(2) 0.5876(2)
C4_12 C 0.9862(3) 0.37359(19) 0.62641(19)
O4_12 O 0.9009(2) 0.3847(2) 0.5276(2)
O3_13 O 0.4009(2) 0.0276(2) 0.8847(2)
N4_13 N 0.4251(3) 0.0876(2) 0.9124(2)
C4_13 C 0.4862(3) 0.12641(19) 0.87359(19)
C5_13 C 0.5719(3) 0.2084(3) 0.8485(3)
H3_13 H 0.6066 0.2515 0.8494
O4_13 O 0.4009(2) 0.1153(2) 0.9724(2)
C6_13 C 0.5719(3) 0.1515(3) 0.7916(3)
H4_13 H 0.6066 0.1506 0.7485
C5_14 C 0.0719(3) 0.7084(3) 0.3485(3)
H3_14 H 0.1066 0.7515 0.3494
C6_14 C 0.0719(3) 0.6515(3) 0.2916(3)
H4_14 H 0.1066 0.6506 0.2485
O3_14 O 0.9009(2) 0.5276(2) 0.3847(2)
N4_14 N 0.9251(3) 0.5876(2) 0.4124(2)
C4_14 C 0.9862(3) 0.62641(19) 0.37359(19)
O4_14 O 0.9009(2) 0.6153(2) 0.4724(2)
loop_
_geom_bond_atom_site_label_1
_geom_bond_atom_site_label_2
_geom_bond_site_symmetry_1
_geom_bond_site_symmetry_2
O1 N1 1_555 1_555
N1 C1 1_555 1_555
O2 N1 1_555 1_555
O3 N4 1_555 1_555
N4 C4 1_555 1_555
C4 N5 1_555 1_555
N5 Zn1 1_555 1_555
C5 N5 1_555 1_555
H3 C5 1_555 1_555
O4 N4 1_555 1_555
N6 C4 1_555 1_555
C6 C5 1_555 1_555
H4 C6 1_555 1_555
N7 Zn1 1_555 1_555
Zn3 N6 1_555 1_555
N6 C6 1_555 1_555
N2 C2 1_555 1_555
C2 H1 1_555 1_555
Zn1_2 N2 1_555 1_555
C3 C2 1_555 1_555
H2 C3 1_555 1_555
N8 Zn1_2 1_555 1_555
Zn2_2 N3 1_555 1_555
N3 C3 1_555 1_555
O3_2 N4_2 1_555 1_555
N4_2 C4_2 1_555 1_555
O4_2 N4_2 1_555 1_555
N7_2 Zn1_3 1_555 1_555
N8_2 Zn1_3 1_555 1_555
O1_2 N1_2 1_555 1_555
N1_2 C1_2 1_555 1_555
C1_2 N2_2 1_555 1_555
N2_2 C2_2 1_555 1_555
C2_2 H1_2 1_555 1_555
Zn1_4 N2_2 1_555 1_555
O2_2 N1_2 1_555 1_555
N3_2 C1_2 1_555 1_555
C3_2 C2_2 1_555 1_555
H2_2 C3_2 1_555 1_555
N5_2 Zn1_4 1_555 1_555
C5_2 N5_2 1_555 1_555
H3_2 C5_2 1_555 1_555
C6_2 C5_2 1_555 1_555
H4_2 C6_2 1_555 1_555
Zn2_4 N3_2 1_555 1_555
Zn3_4 N6_2 1_555 1_555
N3_2 C3_2 1_555 1_555
N6_2 C6_2 1_555 1_555
O1_3 N1_3 1_555 1_555
N1_3 C1_3 1_555 1_555
O2_3 N1_3 1_555 1_555
O3_3 N4_3 1_555 1_555
N4_3 C4_3 1_555 1_555
C4_3 N5_3 1_555 1_555
N5_3 Zn1_5 1_555 1_555
C5_3 N5_3 1_555 1_555
H3_3 C5_3 1_555 1_555
O4_3 N4_3 1_555 1_555
N6_3 C4_3 1_555 1_555
C6_3 C5_3 1_555 1_555
H4_3 C6_3 1_555 1_555
N7_3 Zn1_5 1_555 1_555
Zn3_5 N6_3 1_555 1_555
N6_3 C6_3 1_555 1_555
N2_3 C2_3 1_555 1_555
C2_3 H1_3 1_555 1_555
Zn1_6 N2_3 1_555 1_555
C3_3 C2_3 1_555 1_555
H2_3 C3_3 1_555 1_555
N8_3 Zn1_6 1_555 1_555
Zn3_2 N3_3 1_555 1_555
N3_3 C3_3 1_555 1_555
O3_4 N4_4 1_555 1_555
N4_4 C4_4 1_555 1_555
O4_4 N4_4 1_555 1_555
N7_4 Zn1_7 1_555 1_555
N8_4 Zn1_7 1_555 1_555
O1_4 N1_4 1_555 1_555
N1_4 C1_4 1_555 1_555
C1_4 N2_4 1_555 1_555
N2_4 C2_4 1_555 1_555
C2_4 H1_4 1_555 1_555
Zn1_8 N2_4 1_555 1_555
O2_4 N1_4 1_555 1_555
N3_4 C1_4 1_555 1_555
C3_4 C2_4 1_555 1_555
H2_4 C3_4 1_555 1_555
N5_4 Zn1_8 1_555 1_555
C5_4 N5_4 1_555 1_555
H3_4 C5_4 1_555 1_555
C6_4 C5_4 1_555 1_555
H4_4 C6_4 1_555 1_555
Zn3_4 N3_4 1_555 1_555
Zn3_8 N6_4 1_555 1_555
N3_4 C3_4 1_555 1_555
N6_4 C6_4 1_555 1_555
O1_5 N1_5 1_555 1_555
N1_5 C1_5 1_555 1_555
O2_5 N1_5 1_555 1_555
O3_5 N4_5 1_555 1_555
N4_5 C4_5 1_555 1_555
C4_5 N5_5 1_555 1_555
N5_5 Zn1_9 1_555 1_555
C5_5 N5_5 1_555 1_555
H3_5 C5_5 1_555 1_555
O4_5 N4_5 1_555 1_555
N6_5 C4_5 1_555 1_555
C6_5 C5_5 1_555 1_555
H4_5 C6_5 1_555 1_555
N7_5 Zn1_9 1_555 1_555
Zn2 N6_5 1_555 1_555
N6_5 C6_5 1_555 1_555
N2_5 C2_5 1_555 1_555
C2_5 H1_5 1_555 1_555
Zn1_10 N2_5 1_555 1_555
C3_5 C2_5 1_555 1_555
H2_5 C3_5 1_555 1_555
N8_5 Zn1_10 1_555 1_555
Zn3_6 N3_5 1_555 1_555
N3_5 C3_5 1_555 1_555
O3_6 N4_6 1_555 1_555
N4_6 C4_6 1_555 1_555
O4_6 N4_6 1_555 1_555
N7_6 Zn1_11 1_555 1_555
N8_6 Zn1_11 1_555 1_555
O1_6 N1_6 1_555 1_555
N1_6 C1_6 1_555 1_555
C1_6 N2_6 1_555 1_555
N2_6 C2_6 1_555 1_555
C2_6 H1_6 1_555 1_555
Zn1_12 N2_6 1_555 1_555
O2_6 N1_6 1_555 1_555
N3_6 C1_6 1_555 1_555
C3_6 C2_6 1_555 1_555
H2_6 C3_6 1_555 1_555
N5_6 Zn1_12 1_555 1_555
C5_6 N5_6 1_555 1_555
H3_6 C5_6 1_555 1_555
C6_6 C5_6 1_555 1_555
H4_6 C6_6 1_555 1_555
Zn3_8 N3_6 1_555 1_555
Zn2_4 N6_6 1_555 1_555
N3_6 C3_6 1_555 1_555
N6_6 C6_6 1_555 1_555
N2_7 C2_7 1_555 1_555
C2_7 H1_7 1_555 1_555
Zn2 N2_7 1_555 1_555
C3_7 C2_7 1_555 1_555
H2_7 C3_7 1_555 1_555
Zn3_7 N3_7 1_555 1_555
N3_7 C3_7 1_555 1_555
O1_7 N1_7 1_555 1_555
N1_7 C1_7 1_555 1_555
O2_7 N1_7 1_555 1_555
O3_7 N4_7 1_555 1_555
N4_7 C4_7 1_555 1_555
C4_7 N5_7 1_555 1_555
N5_7 Zn2_2 1_555 1_555
C5_7 N5_7 1_555 1_555
H3_7 C5_7 1_555 1_555
O4_7 N4_7 1_555 1_555
N6_7 C4_7 1_555 1_555
C6_7 C5_7 1_555 1_555
H4_7 C6_7 1_555 1_555
Zn3_3 N6_7 1_555 1_555
N6_7 C6_7 1_555 1_555
O1_8 N1_8 1_555 1_555
N1_8 C1_8 1_555 1_555
C1_8 N2_8 1_555 1_555
N2_8 C2_8 1_555 1_555
C2_8 H1_8 1_555 1_555
Zn2_3 N2_8 1_555 1_555
O2_8 N1_8 1_555 1_555
N3_8 C1_8 1_555 1_555
C3_8 C2_8 1_555 1_555
H2_8 C3_8 1_555 1_555
N5_8 Zn2_3 1_555 1_555
C5_8 N5_8 1_555 1_555
H3_8 C5_8 1_555 1_555
C6_8 C5_8 1_555 1_555
H4_8 C6_8 1_555 1_555
Zn3_6 N3_8 1_555 1_555
Zn3 N6_8 1_555 1_555
N3_8 C3_8 1_555 1_555
N6_8 C6_8 1_555 1_555
O3_8 N4_8 1_555 1_555
N4_8 C4_8 1_555 1_555
O4_8 N4_8 1_555 1_555
O3_9 N4_9 1_555 1_555
N4_9 C4_9 1_555 1_555
C4_9 N7_2 1_555 1_555
C5_9 N7_2 1_555 1_555
H3_9 C5_9 1_555 1_555
O4_9 N4_9 1_555 1_555
N8_3 C4_9 1_555 1_555
C6_9 C5_9 1_555 1_555
H4_9 C6_9 1_555 1_555
N8_3 C6_9 1_555 1_555
C5_10 N7 1_555 1_555
H3_10 C5_10 1_555 1_555
C6_10 C5_10 1_555 1_555
H4_10 C6_10 1_555 1_555
N8_4 C6_10 1_555 1_555
O3_10 N4_10 1_555 1_555
N4_10 C4_10 1_555 1_555
O4_10 N4_10 1_555 1_555
N8_6 C2_9 1_555 1_555
C2_9 H1_9 1_555 1_555
C3_9 C2_9 1_555 1_555
H2_9 C3_9 1_555 1_555
N7_3 C3_9 1_555 1_555
O1_9 N1_9 1_555 1_555
N1_9 C1_9 1_555 1_555
O2_9 N1_9 1_555 1_555
O1_10 N1_10 1_555 1_555
N1_10 C1_10 1_555 1_555
C1_10 N8_5 1_555 1_555
N8_5 C2_10 1_555 1_555
C2_10 H1_10 1_555 1_555
O2_10 N1_10 1_555 1_555
N7_4 C1_10 1_555 1_555
C3_10 C2_10 1_555 1_555
H2_10 C3_10 1_555 1_555
N7_4 C3_10 1_555 1_555
O3_11 N4_11 1_555 1_555
N4_11 C4_11 1_555 1_555
C4_11 N5_9 1_555 1_555
N5_9 Zn3_7 1_555 1_555
C5_11 N5_9 1_555 1_555
H3_11 C5_11 1_555 1_555
O4_11 N4_11 1_555 1_555
N6_9 C4_11 1_555 1_555
C6_11 C5_11 1_555 1_555
H4_11 C6_11 1_555 1_555
Zn3_2 N6_9 1_555 1_555
N6_9 C6_11 1_555 1_555
N5_10 Zn3_5 1_555 1_555
C5_12 N5_10 1_555 1_555
H3_12 C5_12 1_555 1_555
C6_12 C5_12 1_555 1_555
H4_12 C6_12 1_555 1_555
Zn3_3 N6_10 1_555 1_555
N6_10 C6_12 1_555 1_555
O3_12 N4_12 1_555 1_555
N4_12 C4_12 1_555 1_555
O4_12 N4_12 1_555 1_555
O3_13 N4_13 1_555 1_555
N4_13 C4_13 1_555 1_555
C4_13 N8 1_555 1_555
C5_13 N8 1_555 1_555
H3_13 C5_13 1_555 1_555
O4_13 N4_13 1_555 1_555
N7_6 C4_13 1_555 1_555
C6_13 C5_13 1_555 1_555
H4_13 C6_13 1_555 1_555
N7_6 C6_13 1_555 1_555
C5_14 N8_2 1_555 1_555
H3_14 C5_14 1_555 1_555
C6_14 C5_14 1_555 1_555
H4_14 C6_14 1_555 1_555
N7_5 C6_14 1_555 1_555
O3_14 N4_14 1_555 1_555
N4_14 C4_14 1_555 1_555
O4_14 N4_14 1_555 1_555

#END
