
###############################################################################
#
# This file contains modified crystal structure data generated from the
# MOF subset of the Cambridge Structural Database (CSD) v543 
# hosted by the Cambridge Crystallographic Data Centre (CCDC).
#
# This work is licensed under the Creative Commons
# Attribution-NonCommercial-ShareAlike 4.0 International License.
# To view a copy of this license, visit
# http://creativecommons.org/licenses/by-nc-sa/4.0/
# or send a letter to
# Creative Commons, PO Box 1866, Mountain View, CA 94042, USA.
#
# CIF created using the CSD Python API on 29 September 2022
# The structure has been converted into the P1 space group
# The structure has a 3D framework
# The original CSD entry YESYIH is in the cubic crystal system
# The framework has been calculated to contain at least 10.0% void space
# The void calculation uses a probe of radius 1.32A, grid spacing 0.4
#
###############################################################################

data_YESYIH
_chemical_formula_moiety         '(C72 H48 N72 O48 Zn18)n'
_symmetry_cell_setting           triclinic
_symmetry_space_group_name_H-M   'P 1'
_symmetry_Int_Tables_number      1
_space_group_name_Hall           'P 1'
loop_
_symmetry_equiv_pos_site_id
_symmetry_equiv_pos_as_xyz
1 x,y,z
_cell_length_a                   17.3408(19)
_cell_length_b                   17.3408(19)
_cell_length_c                   17.3408(19)
_cell_angle_alpha                90
_cell_angle_beta                 90
_cell_angle_gamma                90
_cell_volume                     5214.44
loop_
_atom_site_label
_atom_site_type_symbol
_atom_site_fract_x
_atom_site_fract_y
_atom_site_fract_z
O1 O 0.4031(2) 0.02598(18) 0.1142(2)
N1 N 0.4266(3) 0.08684(19) 0.08684(19)
C1 C 0.4867(3) 0.12698(17) 0.12698(17)
N2 N 0.5143(2) 0.19305(16) 0.10068(16)
C2 C 0.5704(3) 0.2108(3) 0.1528(3)
Zn1 Zn 0.5000 0.2500 0.0000
H1 H 0.6086 0.2533 0.1449
O2 O 0.4031(2) 0.1142(2) 0.02598(18)
N3 N 0.5143(2) 0.10068(16) 0.19305(16)
C3 C 0.5704(3) 0.1528(3) 0.2108(3)
H2 H 0.6086 0.1449 0.2533
N8 N 0.39932(16) 0.30695(16) 0.0143(2)
Zn3 Zn 0.5000 0.0000 0.2500
Zn1_2 Zn 0.5000 0.2500 1.0000
O3 O 0.5969(2) 0.02598(18) 0.8858(2)
N4 N 0.5734(3) 0.08684(19) 0.91316(19)
C4 C 0.5133(3) 0.12698(17) 0.87302(17)
N5 N 0.4857(2) 0.19305(16) 0.89932(16)
C5 C 0.4296(3) 0.2108(3) 0.8472(3)
H3 H 0.3914 0.2533 0.8551
O4 O 0.5969(2) 0.1142(2) 0.97402(18)
N6 N 0.4857(2) 0.10068(16) 0.80695(16)
C6 C 0.4296(3) 0.1528(3) 0.7892(3)
H4 H 0.3914 0.1449 0.7467
N7 N 0.60068(16) 0.30695(16) 0.9857(2)
Zn2 Zn 0.5000 0.0000 0.7500
Zn3_2 Zn 0.5000 1.0000 0.2500
Zn2_2 Zn 0.5000 1.0000 0.7500
N2_2 N 0.0143(2) 0.69305(16) 0.60068(16)
C2_2 C 0.0704(3) 0.7108(3) 0.6528(3)
Zn1_3 Zn -0.0000 0.7500 0.5000
H1_2 H 0.1086 0.7533 0.6449
N3_2 N 0.0143(2) 0.60068(16) 0.69305(16)
C3_2 C 0.0704(3) 0.6528(3) 0.7108(3)
H2_2 H 0.1086 0.6449 0.7533
O3_2 O 0.0969(2) 0.52598(18) 0.3858(2)
N4_2 N 0.0734(3) 0.58684(19) 0.41316(19)
C4_2 C 0.0133(3) 0.62698(17) 0.37302(17)
O4_2 O 0.0969(2) 0.6142(2) 0.47402(18)
N7_2 N 0.10068(16) 0.80695(16) 0.4857(2)
Zn2_3 Zn -0.0000 0.5000 0.2500
Zn3_3 Zn -0.0000 0.5000 0.7500
O1_2 O 0.9031(2) 0.52598(18) 0.6142(2)
N1_2 N 0.9266(3) 0.58684(19) 0.58684(19)
C1_2 C 0.9867(3) 0.62698(17) 0.62698(17)
Zn1_4 Zn 1.0000 0.7500 0.5000
O2_2 O 0.9031(2) 0.6142(2) 0.52598(18)
N5_2 N 0.9857(2) 0.69305(16) 0.39932(16)
C5_2 C 0.9296(3) 0.7108(3) 0.3472(3)
H3_2 H 0.8914 0.7533 0.3551
N6_2 N 0.9857(2) 0.60068(16) 0.30695(16)
C6_2 C 0.9296(3) 0.6528(3) 0.2892(3)
H4_2 H 0.8914 0.6449 0.2467
N8_2 N 0.89932(16) 0.80695(16) 0.5143(2)
Zn2_4 Zn 1.0000 0.5000 0.2500
Zn3_4 Zn 1.0000 0.5000 0.7500
O1_3 O 0.02598(18) 0.1142(2) 0.4031(2)
N1_3 N 0.08684(19) 0.08684(19) 0.4266(3)
C1_3 C 0.12698(17) 0.12698(17) 0.4867(3)
N2_3 N 0.19305(16) 0.10068(16) 0.5143(2)
C2_3 C 0.2108(3) 0.1528(3) 0.5704(3)
Zn1_5 Zn 0.2500 0.0000 0.5000
H1_3 H 0.2533 0.1449 0.6086
O2_3 O 0.1142(2) 0.02598(18) 0.4031(2)
N3_3 N 0.10068(16) 0.19305(16) 0.5143(2)
C3_3 C 0.1528(3) 0.2108(3) 0.5704(3)
H2_3 H 0.1449 0.2533 0.6086
N8_3 N 0.30695(16) 0.0143(2) 0.39932(16)
Zn3_5 Zn 0.0000 0.2500 0.5000
Zn1_6 Zn 0.2500 1.0000 0.5000
O3_3 O 0.02598(18) 0.8858(2) 0.5969(2)
N4_3 N 0.08684(19) 0.91316(19) 0.5734(3)
C4_3 C 0.12698(17) 0.87302(17) 0.5133(3)
N5_3 N 0.19305(16) 0.89932(16) 0.4857(2)
C5_3 C 0.2108(3) 0.8472(3) 0.4296(3)
H3_3 H 0.2533 0.8551 0.3914
O4_3 O 0.1142(2) 0.97402(18) 0.5969(2)
C6_3 C 0.1528(3) 0.7892(3) 0.4296(3)
H4_3 H 0.1449 0.7467 0.3914
N7_3 N 0.30695(16) 0.9857(2) 0.60068(16)
Zn3_6 Zn 1.0000 0.2500 0.5000
N2_4 N 0.69305(16) 0.60068(16) 0.0143(2)
C2_4 C 0.7108(3) 0.6528(3) 0.0704(3)
Zn1_7 Zn 0.7500 0.5000 -0.0000
H1_4 H 0.7533 0.6449 0.1086
N3_4 N 0.60068(16) 0.69305(16) 0.0143(2)
C3_4 C 0.6528(3) 0.7108(3) 0.0704(3)
H2_4 H 0.6449 0.7533 0.1086
O3_4 O 0.52598(18) 0.3858(2) 0.0969(2)
N4_4 N 0.58684(19) 0.41316(19) 0.0734(3)
C4_4 C 0.62698(17) 0.37302(17) 0.0133(3)
O4_4 O 0.6142(2) 0.47402(18) 0.0969(2)
N7_4 N 0.80695(16) 0.4857(2) 0.10068(16)
Zn3_7 Zn 0.5000 0.7500 -0.0000
O1_4 O 0.52598(18) 0.6142(2) 0.9031(2)
N1_4 N 0.58684(19) 0.58684(19) 0.9266(3)
C1_4 C 0.62698(17) 0.62698(17) 0.9867(3)
Zn1_8 Zn 0.7500 0.5000 1.0000
O2_4 O 0.6142(2) 0.52598(18) 0.9031(2)
N5_4 N 0.69305(16) 0.39932(16) 0.9857(2)
C5_4 C 0.7108(3) 0.3472(3) 0.9296(3)
H3_4 H 0.7533 0.3551 0.8914
C6_4 C 0.6528(3) 0.2892(3) 0.9296(3)
H4_4 H 0.6449 0.2467 0.8914
N8_4 N 0.80695(16) 0.5143(2) 0.89932(16)
Zn3_8 Zn 0.5000 0.7500 1.0000
O1_5 O 0.1142(2) 0.4031(2) 0.02598(18)
N1_5 N 0.08684(19) 0.4266(3) 0.08684(19)
C1_5 C 0.12698(17) 0.4867(3) 0.12698(17)
N2_5 N 0.10068(16) 0.5143(2) 0.19305(16)
C2_5 C 0.1528(3) 0.5704(3) 0.2108(3)
H1_5 H 0.1449 0.6086 0.2533
O2_5 O 0.02598(18) 0.4031(2) 0.1142(2)
N3_5 N 0.19305(16) 0.5143(2) 0.10068(16)
C3_5 C 0.2108(3) 0.5704(3) 0.1528(3)
H2_5 H 0.2533 0.6086 0.1449
N8_5 N 0.0143(2) 0.39932(16) 0.30695(16)
Zn3_9 Zn 0.2500 0.5000 0.0000
Zn3_10 Zn 0.2500 0.5000 1.0000
O3_5 O 0.8858(2) 0.5969(2) 0.02598(18)
N4_5 N 0.91316(19) 0.5734(3) 0.08684(19)
C4_5 C 0.87302(17) 0.5133(3) 0.12698(17)
N5_5 N 0.89932(16) 0.4857(2) 0.19305(16)
C5_5 C 0.8472(3) 0.4296(3) 0.2108(3)
H3_5 H 0.8551 0.3914 0.2533
O4_5 O 0.97402(18) 0.5969(2) 0.1142(2)
C6_5 C 0.7892(3) 0.4296(3) 0.1528(3)
H4_5 H 0.7467 0.3914 0.1449
N2_6 N 0.60068(16) 0.0143(2) 0.69305(16)
C2_6 C 0.6528(3) 0.0704(3) 0.7108(3)
H1_6 H 0.6449 0.1086 0.7533
N3_6 N 0.69305(16) 0.0143(2) 0.60068(16)
C3_6 C 0.7108(3) 0.0704(3) 0.6528(3)
H2_6 H 0.7533 0.1086 0.6449
O3_6 O 0.3858(2) 0.0969(2) 0.52598(18)
N4_6 N 0.41316(19) 0.0734(3) 0.58684(19)
C4_6 C 0.37302(17) 0.0133(3) 0.62698(17)
O4_6 O 0.47402(18) 0.0969(2) 0.6142(2)
Zn3_11 Zn 0.7500 -0.0000 0.5000
O1_6 O 0.6142(2) 0.9031(2) 0.52598(18)
N1_6 N 0.58684(19) 0.9266(3) 0.58684(19)
C1_6 C 0.62698(17) 0.9867(3) 0.62698(17)
O2_6 O 0.52598(18) 0.9031(2) 0.6142(2)
N5_6 N 0.39932(16) 0.9857(2) 0.69305(16)
C5_6 C 0.3472(3) 0.9296(3) 0.7108(3)
H3_6 H 0.3551 0.8914 0.7533
C6_6 C 0.2892(3) 0.9296(3) 0.6528(3)
H4_6 H 0.2467 0.8914 0.6449
N8_6 N 0.5143(2) 0.89932(16) 0.80695(16)
Zn3_12 Zn 0.7500 1.0000 0.5000
N7_5 N 0.30695(16) 0.39932(16) 0.0143(2)
O1_7 O 0.02598(18) 0.5969(2) 0.8858(2)
N1_7 N 0.08684(19) 0.5734(3) 0.91316(19)
C1_7 C 0.12698(17) 0.5133(3) 0.87302(17)
N2_7 N 0.19305(16) 0.4857(2) 0.89932(16)
C2_7 C 0.2108(3) 0.4296(3) 0.8472(3)
H1_7 H 0.2533 0.3914 0.8551
O2_7 O 0.1142(2) 0.5969(2) 0.97402(18)
N3_7 N 0.10068(16) 0.4857(2) 0.80695(16)
C3_7 C 0.1528(3) 0.4296(3) 0.7892(3)
H2_7 H 0.1449 0.3914 0.7467
N8_7 N 0.30695(16) 0.60068(16) 0.9857(2)
O1_8 O 0.52598(18) 0.0969(2) 0.3858(2)
N1_8 N 0.58684(19) 0.0734(3) 0.41316(19)
C1_8 C 0.62698(17) 0.0133(3) 0.37302(17)
O2_8 O 0.6142(2) 0.0969(2) 0.47402(18)
N8_8 N 0.80695(16) 0.10068(16) 0.4857(2)
N2_8 N 0.69305(16) 0.9857(2) 0.39932(16)
C2_8 C 0.7108(3) 0.9296(3) 0.3472(3)
H1_8 H 0.7533 0.8914 0.3551
N3_8 N 0.60068(16) 0.9857(2) 0.30695(16)
C3_8 C 0.6528(3) 0.9296(3) 0.2892(3)
H2_8 H 0.6449 0.8914 0.2467
N7_6 N 0.80695(16) 0.89932(16) 0.5143(2)
O3_7 O 0.8858(2) 0.97402(18) 0.4031(2)
N4_7 N 0.91316(19) 0.91316(19) 0.4266(3)
C4_7 C 0.87302(17) 0.87302(17) 0.4867(3)
C5_7 C 0.8472(3) 0.7892(3) 0.5704(3)
H3_7 H 0.8551 0.7467 0.6086
O4_7 O 0.97402(18) 0.8858(2) 0.4031(2)
C6_7 C 0.7892(3) 0.8472(3) 0.5704(3)
H4_7 H 0.7467 0.8551 0.6086
C5_8 C 0.3472(3) 0.2892(3) 0.0704(3)
H3_8 H 0.3551 0.2467 0.1086
C6_8 C 0.2892(3) 0.3472(3) 0.0704(3)
H4_8 H 0.2467 0.3551 0.1086
O3_8 O 0.3858(2) 0.47402(18) 0.9031(2)
N4_8 N 0.41316(19) 0.41316(19) 0.9266(3)
C4_8 C 0.37302(17) 0.37302(17) 0.9867(3)
O4_8 O 0.47402(18) 0.3858(2) 0.9031(2)
O1_9 O 0.4031(2) 0.8858(2) 0.97402(18)
N1_9 N 0.4266(3) 0.91316(19) 0.91316(19)
C1_9 C 0.4867(3) 0.87302(17) 0.87302(17)
C2_9 C 0.5704(3) 0.8472(3) 0.7892(3)
H1_9 H 0.6086 0.8551 0.7467
O2_9 O 0.4031(2) 0.97402(18) 0.8858(2)
N3_9 N 0.5143(2) 0.80695(16) 0.89932(16)
C3_9 C 0.5704(3) 0.7892(3) 0.8472(3)
H2_9 H 0.6086 0.7467 0.8551
C2_10 C 0.0704(3) 0.3472(3) 0.2892(3)
H1_10 H 0.1086 0.3551 0.2467
N3_10 N 0.0143(2) 0.30695(16) 0.39932(16)
C3_10 C 0.0704(3) 0.2892(3) 0.3472(3)
H2_10 H 0.1086 0.2467 0.3551
O1_10 O 0.9031(2) 0.3858(2) 0.47402(18)
N1_10 N 0.9266(3) 0.41316(19) 0.41316(19)
C1_10 C 0.9867(3) 0.37302(17) 0.37302(17)
O2_10 O 0.9031(2) 0.47402(18) 0.3858(2)
O1_11 O 0.5969(2) 0.97402(18) 0.1142(2)
N1_11 N 0.5734(3) 0.91316(19) 0.08684(19)
C1_11 C 0.5133(3) 0.87302(17) 0.12698(17)
N2_9 N 0.4857(2) 0.80695(16) 0.10068(16)
C2_11 C 0.4296(3) 0.7892(3) 0.1528(3)
H1_11 H 0.3914 0.7467 0.1449
O2_11 O 0.5969(2) 0.8858(2) 0.02598(18)
N3_11 N 0.4857(2) 0.89932(16) 0.19305(16)
C3_11 C 0.4296(3) 0.8472(3) 0.2108(3)
H2_11 H 0.3914 0.8551 0.2533
N7_7 N 0.39932(16) 0.69305(16) 0.9857(2)
O1_12 O 0.0969(2) 0.47402(18) 0.6142(2)
N1_12 N 0.0734(3) 0.41316(19) 0.58684(19)
C1_12 C 0.0133(3) 0.37302(17) 0.62698(17)
O2_12 O 0.0969(2) 0.3858(2) 0.52598(18)
N2_10 N 0.9857(2) 0.30695(16) 0.60068(16)
C2_12 C 0.9296(3) 0.2892(3) 0.6528(3)
H1_12 H 0.8914 0.2467 0.6449
N3_12 N 0.9857(2) 0.39932(16) 0.69305(16)
C3_12 C 0.9296(3) 0.3472(3) 0.7108(3)
H2_12 H 0.8914 0.3551 0.7533
N7_8 N 0.89932(16) 0.19305(16) 0.4857(2)
O1_13 O 0.8858(2) 0.4031(2) 0.97402(18)
N1_13 N 0.91316(19) 0.4266(3) 0.91316(19)
C1_13 C 0.87302(17) 0.4867(3) 0.87302(17)
N2_11 N 0.89932(16) 0.5143(2) 0.80695(16)
C2_13 C 0.8472(3) 0.5704(3) 0.7892(3)
H1_13 H 0.8551 0.6086 0.7467
O2_13 O 0.97402(18) 0.4031(2) 0.8858(2)
C3_13 C 0.7892(3) 0.5704(3) 0.8472(3)
H2_13 H 0.7467 0.6086 0.8551
N2_12 N 0.39932(16) 0.0143(2) 0.30695(16)
C2_14 C 0.3472(3) 0.0704(3) 0.2892(3)
H1_14 H 0.3551 0.1086 0.2467
C3_14 C 0.2892(3) 0.0704(3) 0.3472(3)
H2_14 H 0.2467 0.1086 0.3551
O1_14 O 0.3858(2) 0.9031(2) 0.47402(18)
N1_14 N 0.41316(19) 0.9266(3) 0.41316(19)
C1_14 C 0.37302(17) 0.9867(3) 0.37302(17)
O2_14 O 0.47402(18) 0.9031(2) 0.3858(2)
O3_9 O 0.97402(18) 0.1142(2) 0.5969(2)
N4_9 N 0.91316(19) 0.08684(19) 0.5734(3)
C4_9 C 0.87302(17) 0.12698(17) 0.5133(3)
C5_9 C 0.7892(3) 0.1528(3) 0.4296(3)
H3_9 H 0.7467 0.1449 0.3914
O4_9 O 0.8858(2) 0.02598(18) 0.5969(2)
C6_9 C 0.8472(3) 0.2108(3) 0.4296(3)
H4_9 H 0.8551 0.2533 0.3914
O3_10 O 0.47402(18) 0.6142(2) 0.0969(2)
N4_10 N 0.41316(19) 0.58684(19) 0.0734(3)
C4_10 C 0.37302(17) 0.62698(17) 0.0133(3)
O4_10 O 0.3858(2) 0.52598(18) 0.0969(2)
C5_10 C 0.2892(3) 0.6528(3) 0.9296(3)
H3_10 H 0.2467 0.6449 0.8914
C6_10 C 0.3472(3) 0.7108(3) 0.9296(3)
H4_10 H 0.3551 0.7533 0.8914
loop_
_geom_bond_atom_site_label_1
_geom_bond_atom_site_label_2
_geom_bond_site_symmetry_1
_geom_bond_site_symmetry_2
O1 N1 1_555 1_555
N1 C1 1_555 1_555
C1 N2 1_555 1_555
N2 C2 1_555 1_555
C2 H1 1_555 1_555
Zn1 N2 1_555 1_555
O2 N1 1_555 1_555
N3 C1 1_555 1_555
C3 C2 1_555 1_555
H2 C3 1_555 1_555
N8 Zn1 1_555 1_555
Zn3 N3 1_555 1_555
N3 C3 1_555 1_555
O3 N4 1_555 1_555
N4 C4 1_555 1_555
C4 N5 1_555 1_555
N5 Zn1_2 1_555 1_555
C5 N5 1_555 1_555
H3 C5 1_555 1_555
O4 N4 1_555 1_555
N6 C4 1_555 1_555
C6 C5 1_555 1_555
H4 C6 1_555 1_555
N7 Zn1_2 1_555 1_555
Zn2 N6 1_555 1_555
N6 C6 1_555 1_555
N2_2 C2_2 1_555 1_555
C2_2 H1_2 1_555 1_555
Zn1_3 N2_2 1_555 1_555
C3_2 C2_2 1_555 1_555
H2_2 C3_2 1_555 1_555
O3_2 N4_2 1_555 1_555
N4_2 C4_2 1_555 1_555
O4_2 N4_2 1_555 1_555
N7_2 Zn1_3 1_555 1_555
Zn3_3 N3_2 1_555 1_555
N3_2 C3_2 1_555 1_555
O1_2 N1_2 1_555 1_555
N1_2 C1_2 1_555 1_555
O2_2 N1_2 1_555 1_555
N5_2 Zn1_4 1_555 1_555
C5_2 N5_2 1_555 1_555
H3_2 C5_2 1_555 1_555
C6_2 C5_2 1_555 1_555
H4_2 C6_2 1_555 1_555
N8_2 Zn1_4 1_555 1_555
Zn2_4 N6_2 1_555 1_555
N6_2 C6_2 1_555 1_555
O1_3 N1_3 1_555 1_555
N1_3 C1_3 1_555 1_555
C1_3 N2_3 1_555 1_555
N2_3 C2_3 1_555 1_555
C2_3 H1_3 1_555 1_555
Zn1_5 N2_3 1_555 1_555
O2_3 N1_3 1_555 1_555
N3_3 C1_3 1_555 1_555
C3_3 C2_3 1_555 1_555
H2_3 C3_3 1_555 1_555
N8_3 Zn1_5 1_555 1_555
Zn3_5 N3_3 1_555 1_555
N3_3 C3_3 1_555 1_555
O3_3 N4_3 1_555 1_555
N4_3 C4_3 1_555 1_555
C4_3 N5_3 1_555 1_555
N5_3 Zn1_6 1_555 1_555
C5_3 N5_3 1_555 1_555
H3_3 C5_3 1_555 1_555
O4_3 N4_3 1_555 1_555
N7_2 C4_3 1_555 1_555
C6_3 C5_3 1_555 1_555
H4_3 C6_3 1_555 1_555
N7_3 Zn1_6 1_555 1_555
N7_2 C6_3 1_555 1_555
N2_4 C2_4 1_555 1_555
C2_4 H1_4 1_555 1_555
Zn1_7 N2_4 1_555 1_555
C3_4 C2_4 1_555 1_555
H2_4 C3_4 1_555 1_555
O3_4 N4_4 1_555 1_555
N4_4 C4_4 1_555 1_555
O4_4 N4_4 1_555 1_555
N7_4 Zn1_7 1_555 1_555
Zn3_7 N3_4 1_555 1_555
N3_4 C3_4 1_555 1_555
O1_4 N1_4 1_555 1_555
N1_4 C1_4 1_555 1_555
O2_4 N1_4 1_555 1_555
N5_4 Zn1_8 1_555 1_555
C5_4 N5_4 1_555 1_555
H3_4 C5_4 1_555 1_555
C6_4 C5_4 1_555 1_555
H4_4 C6_4 1_555 1_555
N8_4 Zn1_8 1_555 1_555
N7 C6_4 1_555 1_555
O1_5 N1_5 1_555 1_555
N1_5 C1_5 1_555 1_555
C1_5 N2_5 1_555 1_555
N2_5 C2_5 1_555 1_555
C2_5 H1_5 1_555 1_555
Zn2_3 N2_5 1_555 1_555
O2_5 N1_5 1_555 1_555
N3_5 C1_5 1_555 1_555
C3_5 C2_5 1_555 1_555
H2_5 C3_5 1_555 1_555
N8_5 Zn2_3 1_555 1_555
Zn3_9 N3_5 1_555 1_555
N3_5 C3_5 1_555 1_555
O3_5 N4_5 1_555 1_555
N4_5 C4_5 1_555 1_555
C4_5 N5_5 1_555 1_555
N5_5 Zn2_4 1_555 1_555
C5_5 N5_5 1_555 1_555
H3_5 C5_5 1_555 1_555
O4_5 N4_5 1_555 1_555
N7_4 C4_5 1_555 1_555
C6_5 C5_5 1_555 1_555
H4_5 C6_5 1_555 1_555
N7_4 C6_5 1_555 1_555
N2_6 C2_6 1_555 1_555
C2_6 H1_6 1_555 1_555
Zn2 N2_6 1_555 1_555
C3_6 C2_6 1_555 1_555
H2_6 C3_6 1_555 1_555
O3_6 N4_6 1_555 1_555
N4_6 C4_6 1_555 1_555
O4_6 N4_6 1_555 1_555
Zn3_11 N3_6 1_555 1_555
N3_6 C3_6 1_555 1_555
O1_6 N1_6 1_555 1_555
N1_6 C1_6 1_555 1_555
O2_6 N1_6 1_555 1_555
N5_6 Zn2_2 1_555 1_555
C5_6 N5_6 1_555 1_555
H3_6 C5_6 1_555 1_555
C6_6 C5_6 1_555 1_555
H4_6 C6_6 1_555 1_555
N8_6 Zn2_2 1_555 1_555
N7_3 C6_6 1_555 1_555
N7_5 Zn3_9 1_555 1_555
O1_7 N1_7 1_555 1_555
N1_7 C1_7 1_555 1_555
C1_7 N2_7 1_555 1_555
N2_7 C2_7 1_555 1_555
C2_7 H1_7 1_555 1_555
Zn3_10 N2_7 1_555 1_555
O2_7 N1_7 1_555 1_555
N3_7 C1_7 1_555 1_555
C3_7 C2_7 1_555 1_555
H2_7 C3_7 1_555 1_555
N8_7 Zn3_10 1_555 1_555
Zn3_3 N3_7 1_555 1_555
N3_7 C3_7 1_555 1_555
O1_8 N1_8 1_555 1_555
N1_8 C1_8 1_555 1_555
O2_8 N1_8 1_555 1_555
N8_8 Zn3_11 1_555 1_555
N2_8 C2_8 1_555 1_555
C2_8 H1_8 1_555 1_555
Zn3_12 N2_8 1_555 1_555
C3_8 C2_8 1_555 1_555
H2_8 C3_8 1_555 1_555
N7_6 Zn3_12 1_555 1_555
Zn3_2 N3_8 1_555 1_555
N3_8 C3_8 1_555 1_555
O3_7 N4_7 1_555 1_555
N4_7 C4_7 1_555 1_555
C4_7 N8_2 1_555 1_555
C5_7 N8_2 1_555 1_555
H3_7 C5_7 1_555 1_555
O4_7 N4_7 1_555 1_555
N7_6 C4_7 1_555 1_555
C6_7 C5_7 1_555 1_555
H4_7 C6_7 1_555 1_555
N7_6 C6_7 1_555 1_555
C5_8 N8 1_555 1_555
H3_8 C5_8 1_555 1_555
C6_8 C5_8 1_555 1_555
H4_8 C6_8 1_555 1_555
N7_5 C6_8 1_555 1_555
O3_8 N4_8 1_555 1_555
N4_8 C4_8 1_555 1_555
O4_8 N4_8 1_555 1_555
O1_9 N1_9 1_555 1_555
N1_9 C1_9 1_555 1_555
C1_9 N8_6 1_555 1_555
N8_6 C2_9 1_555 1_555
C2_9 H1_9 1_555 1_555
O2_9 N1_9 1_555 1_555
N3_9 C1_9 1_555 1_555
C3_9 C2_9 1_555 1_555
H2_9 C3_9 1_555 1_555
Zn3_8 N3_9 1_555 1_555
N3_9 C3_9 1_555 1_555
N8_5 C2_10 1_555 1_555
C2_10 H1_10 1_555 1_555
C3_10 C2_10 1_555 1_555
H2_10 C3_10 1_555 1_555
Zn3_5 N3_10 1_555 1_555
N3_10 C3_10 1_555 1_555
O1_10 N1_10 1_555 1_555
N1_10 C1_10 1_555 1_555
O2_10 N1_10 1_555 1_555
O1_11 N1_11 1_555 1_555
N1_11 C1_11 1_555 1_555
C1_11 N2_9 1_555 1_555
N2_9 C2_11 1_555 1_555
C2_11 H1_11 1_555 1_555
Zn3_7 N2_9 1_555 1_555
O2_11 N1_11 1_555 1_555
N3_11 C1_11 1_555 1_555
C3_11 C2_11 1_555 1_555
H2_11 C3_11 1_555 1_555
Zn3_2 N3_11 1_555 1_555
N3_11 C3_11 1_555 1_555
N7_7 Zn3_8 1_555 1_555
O1_12 N1_12 1_555 1_555
N1_12 C1_12 1_555 1_555
O2_12 N1_12 1_555 1_555
N2_10 C2_12 1_555 1_555
C2_12 H1_12 1_555 1_555
Zn3_6 N2_10 1_555 1_555
C3_12 C2_12 1_555 1_555
H2_12 C3_12 1_555 1_555
N7_8 Zn3_6 1_555 1_555
Zn3_4 N3_12 1_555 1_555
N3_12 C3_12 1_555 1_555
O1_13 N1_13 1_555 1_555
N1_13 C1_13 1_555 1_555
C1_13 N2_11 1_555 1_555
N2_11 C2_13 1_555 1_555
C2_13 H1_13 1_555 1_555
Zn3_4 N2_11 1_555 1_555
O2_13 N1_13 1_555 1_555
N8_4 C1_13 1_555 1_555
C3_13 C2_13 1_555 1_555
H2_13 C3_13 1_555 1_555
N8_4 C3_13 1_555 1_555
N2_12 C2_14 1_555 1_555
C2_14 H1_14 1_555 1_555
Zn3 N2_12 1_555 1_555
C3_14 C2_14 1_555 1_555
H2_14 C3_14 1_555 1_555
N8_3 C3_14 1_555 1_555
O1_14 N1_14 1_555 1_555
N1_14 C1_14 1_555 1_555
O2_14 N1_14 1_555 1_555
O3_9 N4_9 1_555 1_555
N4_9 C4_9 1_555 1_555
C4_9 N8_8 1_555 1_555
C5_9 N8_8 1_555 1_555
H3_9 C5_9 1_555 1_555
O4_9 N4_9 1_555 1_555
N7_8 C4_9 1_555 1_555
C6_9 C5_9 1_555 1_555
H4_9 C6_9 1_555 1_555
N7_8 C6_9 1_555 1_555
O3_10 N4_10 1_555 1_555
N4_10 C4_10 1_555 1_555
O4_10 N4_10 1_555 1_555
C5_10 N8_7 1_555 1_555
H3_10 C5_10 1_555 1_555
C6_10 C5_10 1_555 1_555
H4_10 C6_10 1_555 1_555
N7_7 C6_10 1_555 1_555

#END
