
###############################################################################
#
# This file contains modified crystal structure data generated from the
# MOF subset of the Cambridge Structural Database (CSD) v543 
# hosted by the Cambridge Crystallographic Data Centre (CCDC).
#
# This work is licensed under the Creative Commons
# Attribution-NonCommercial-ShareAlike 4.0 International License.
# To view a copy of this license, visit
# http://creativecommons.org/licenses/by-nc-sa/4.0/
# or send a letter to
# Creative Commons, PO Box 1866, Mountain View, CA 94042, USA.
#
# CIF created using the CSD Python API on 29 September 2022
# The structure has been converted into the P1 space group
# The structure has a 3D framework
# The original CSD entry YESZII is in the cubic crystal system
# The framework has been calculated to contain at least 10.0% void space
# The void calculation uses a probe of radius 1.32A, grid spacing 0.4
#
###############################################################################

data_YESZII
_chemical_formula_moiety         '(C72 H48 N72 O48 Zn16)n'
_symmetry_cell_setting           triclinic
_symmetry_space_group_name_H-M   'P 1'
_symmetry_Int_Tables_number      1
_space_group_name_Hall           'P 1'
loop_
_symmetry_equiv_pos_site_id
_symmetry_equiv_pos_as_xyz
1 x,y,z
_cell_length_a                   17.1533(9)
_cell_length_b                   17.1533(9)
_cell_length_c                   17.1533(9)
_cell_angle_alpha                90
_cell_angle_beta                 90
_cell_angle_gamma                90
_cell_volume                     5047.11
loop_
_atom_site_label
_atom_site_type_symbol
_atom_site_fract_x
_atom_site_fract_y
_atom_site_fract_z
O1 O 0.1078(4) 0.4150(4) 0.0157(4)
N1 N 0.0802(3) 0.4351(5) 0.0802(3)
C1 C 0.1289(3) 0.4827(5) 0.1289(3)
N2 N 0.1996(3) 0.5017(5) 0.1058(3)
C2 C 0.2277(6) 0.5440(5) 0.1673(5)
Zn1 Zn 0.2500 0.5000 0.0000
H1 H 0.2783 0.5694 0.1696
O2 O 0.0157(4) 0.4150(4) 0.1078(4)
N3 N 0.1058(3) 0.5017(5) 0.1996(3)
C3 C 0.1673(5) 0.5440(5) 0.2277(6)
H2 H 0.1696 0.5694 0.2783
N8 N 0.3004(3) 0.3942(3) 0.0017(5)
Zn3 Zn -0.0000 0.5000 0.2500
Zn1_2 Zn 0.2500 0.5000 1.0000
O3 O 0.0157(4) 0.5850(4) 0.8922(4)
N4 N 0.0802(3) 0.5649(5) 0.9198(3)
C4 C 0.1289(3) 0.5173(5) 0.8711(3)
N5 N 0.1058(3) 0.4983(5) 0.8004(3)
C5 C 0.1673(5) 0.4560(5) 0.7723(6)
H3 H 0.1696 0.4306 0.7217
O4 O 0.1078(4) 0.5850(4) 0.9843(4)
N6 N 0.1996(3) 0.4983(5) 0.8942(3)
C6 C 0.2277(6) 0.4560(5) 0.8327(5)
H4 H 0.2783 0.4306 0.8304
N7 N 0.3004(3) 0.6058(3) 0.9983(5)
Zn2 Zn 0.0000 0.5000 0.7500
Zn3_2 Zn 1.0000 0.5000 0.2500
Zn2_2 Zn 1.0000 0.5000 0.7500
N2_2 N 0.6996(3) 0.0017(5) 0.6058(3)
C2_2 C 0.7277(6) 0.0440(5) 0.6673(5)
Zn1_3 Zn 0.7500 0.0000 0.5000
H1_2 H 0.7783 0.0694 0.6696
N3_2 N 0.6058(3) 0.0017(5) 0.6996(3)
C3_2 C 0.6673(5) 0.0440(5) 0.7277(6)
H2_2 H 0.6696 0.0694 0.7783
O3_2 O 0.5157(4) 0.0850(4) 0.3922(4)
N4_2 N 0.5802(3) 0.0649(5) 0.4198(3)
C4_2 C 0.6289(3) 0.0173(5) 0.3711(3)
O4_2 O 0.6078(4) 0.0850(4) 0.4843(4)
N7_2 N 0.8004(3) 0.1058(3) 0.4983(5)
Zn2_3 Zn 0.5000 0.0000 0.2500
Zn3_3 Zn 0.5000 0.0000 0.7500
O1_2 O 0.6078(4) 0.9150(4) 0.5157(4)
N1_2 N 0.5802(3) 0.9351(5) 0.5802(3)
C1_2 C 0.6289(3) 0.9827(5) 0.6289(3)
Zn1_4 Zn 0.7500 1.0000 0.5000
O2_2 O 0.5157(4) 0.9150(4) 0.6078(4)
N5_2 N 0.6058(3) 0.9983(5) 0.3004(3)
C5_2 C 0.6673(5) 0.9560(5) 0.2723(6)
H3_2 H 0.6696 0.9306 0.2217
N6_2 N 0.6996(3) 0.9983(5) 0.3942(3)
C6_2 C 0.7277(6) 0.9560(5) 0.3327(5)
H4_2 H 0.7783 0.9306 0.3304
N8_2 N 0.8004(3) 0.8942(3) 0.5017(5)
Zn2_4 Zn 0.5000 1.0000 0.2500
Zn3_4 Zn 0.5000 1.0000 0.7500
O1_3 O 0.4150(4) 0.0157(4) 0.1078(4)
N1_3 N 0.4351(5) 0.0802(3) 0.0802(3)
C1_3 C 0.4827(5) 0.1289(3) 0.1289(3)
N2_3 N 0.5017(5) 0.1058(3) 0.1996(3)
C2_3 C 0.5440(5) 0.1673(5) 0.2277(6)
H1_3 H 0.5694 0.1696 0.2783
O2_3 O 0.4150(4) 0.1078(4) 0.0157(4)
N3_3 N 0.5017(5) 0.1996(3) 0.1058(3)
C3_3 C 0.5440(5) 0.2277(6) 0.1673(5)
H2_3 H 0.5694 0.2783 0.1696
N8_3 N 0.3942(3) 0.0017(5) 0.3004(3)
Zn3_5 Zn 0.5000 0.2500 -0.0000
Zn3_6 Zn 0.5000 0.2500 1.0000
O3_3 O 0.5850(4) 0.8922(4) 0.0157(4)
N4_3 N 0.5649(5) 0.9198(3) 0.0802(3)
C4_3 C 0.5173(5) 0.8711(3) 0.1289(3)
N5_3 N 0.4983(5) 0.8004(3) 0.1058(3)
C5_3 C 0.4560(5) 0.7723(6) 0.1673(5)
H3_3 H 0.4306 0.7217 0.1696
O4_3 O 0.5850(4) 0.9843(4) 0.1078(4)
N6_3 N 0.4983(5) 0.8942(3) 0.1996(3)
C6_3 C 0.4560(5) 0.8327(5) 0.2277(6)
H4_3 H 0.4306 0.8304 0.2783
Zn2_5 Zn 0.5000 0.7500 0.0000
Zn2_6 Zn 0.5000 0.7500 1.0000
N2_4 N 0.0017(5) 0.6058(3) 0.6996(3)
C2_4 C 0.0440(5) 0.6673(5) 0.7277(6)
H1_4 H 0.0694 0.6696 0.7783
N3_4 N 0.0017(5) 0.6996(3) 0.6058(3)
C3_4 C 0.0440(5) 0.7277(6) 0.6673(5)
H2_4 H 0.0694 0.7783 0.6696
O3_4 O 0.0850(4) 0.3922(4) 0.5157(4)
N4_4 N 0.0649(5) 0.4198(3) 0.5802(3)
C4_4 C 0.0173(5) 0.3711(3) 0.6289(3)
O4_4 O 0.0850(4) 0.4843(4) 0.6078(4)
Zn2_7 Zn -0.0000 0.2500 0.5000
Zn3_7 Zn 0.0000 0.7500 0.5000
O1_4 O 0.9150(4) 0.5157(4) 0.6078(4)
N1_4 N 0.9351(5) 0.5802(3) 0.5802(3)
C1_4 C 0.9827(5) 0.6289(3) 0.6289(3)
O2_4 O 0.9150(4) 0.6078(4) 0.5157(4)
N5_4 N 0.9983(5) 0.3004(3) 0.6058(3)
C5_4 C 0.9560(5) 0.2723(6) 0.6673(5)
H3_4 H 0.9306 0.2217 0.6696
N6_4 N 0.9983(5) 0.3942(3) 0.6996(3)
C6_4 C 0.9560(5) 0.3327(5) 0.7277(6)
H4_4 H 0.9306 0.3304 0.7783
N8_4 N 0.8942(3) 0.5017(5) 0.8004(3)
Zn2_8 Zn 1.0000 0.2500 0.5000
Zn3_8 Zn 1.0000 0.7500 0.5000
O1_5 O 0.0157(4) 0.1078(4) 0.4150(4)
N1_5 N 0.0802(3) 0.0802(3) 0.4351(5)
C1_5 C 0.1289(3) 0.1289(3) 0.4827(5)
N2_5 N 0.1058(3) 0.1996(3) 0.5017(5)
C2_5 C 0.1673(5) 0.2277(6) 0.5440(5)
H1_5 H 0.1696 0.2783 0.5694
O2_5 O 0.1078(4) 0.0157(4) 0.4150(4)
N3_5 N 0.1996(3) 0.1058(3) 0.5017(5)
C3_5 C 0.2277(6) 0.1673(5) 0.5440(5)
H2_5 H 0.2783 0.1696 0.5694
N8_5 N 0.0017(5) 0.3004(3) 0.3942(3)
Zn3_9 Zn 0.2500 -0.0000 0.5000
Zn3_10 Zn 0.2500 1.0000 0.5000
O3_5 O 0.8922(4) 0.0157(4) 0.5850(4)
N4_5 N 0.9198(3) 0.0802(3) 0.5649(5)
C4_5 C 0.8711(3) 0.1289(3) 0.5173(5)
C5_5 C 0.7723(6) 0.1673(5) 0.4560(5)
H3_5 H 0.7217 0.1696 0.4306
O4_5 O 0.9843(4) 0.1078(4) 0.5850(4)
N6_5 N 0.8942(3) 0.1996(3) 0.4983(5)
C6_5 C 0.8327(5) 0.2277(6) 0.4560(5)
H4_5 H 0.8304 0.2783 0.4306
N2_6 N 0.6058(3) 0.6996(3) 0.0017(5)
C2_6 C 0.6673(5) 0.7277(6) 0.0440(5)
H1_6 H 0.6696 0.7783 0.0694
N3_6 N 0.6996(3) 0.6058(3) 0.0017(5)
C3_6 C 0.7277(6) 0.6673(5) 0.0440(5)
H2_6 H 0.7783 0.6696 0.0694
O3_6 O 0.3922(4) 0.5157(4) 0.0850(4)
N4_6 N 0.4198(3) 0.5802(3) 0.0649(5)
C4_6 C 0.3711(3) 0.6289(3) 0.0173(5)
O4_6 O 0.4843(4) 0.6078(4) 0.0850(4)
Zn3_11 Zn 0.7500 0.5000 0.0000
O1_6 O 0.5157(4) 0.6078(4) 0.9150(4)
N1_6 N 0.5802(3) 0.5802(3) 0.9351(5)
C1_6 C 0.6289(3) 0.6289(3) 0.9827(5)
O2_6 O 0.6078(4) 0.5157(4) 0.9150(4)
C5_6 C 0.2723(6) 0.6673(5) 0.9560(5)
H3_6 H 0.2217 0.6696 0.9306
N6_6 N 0.3942(3) 0.6996(3) 0.9983(5)
C6_6 C 0.3327(5) 0.7277(6) 0.9560(5)
H4_6 H 0.3304 0.7783 0.9306
N8_6 N 0.5017(5) 0.8004(3) 0.8942(3)
Zn3_12 Zn 0.7500 0.5000 1.0000
O1_7 O 0.4150(4) 0.8922(4) 0.9843(4)
N1_7 N 0.4351(5) 0.9198(3) 0.9198(3)
C1_7 C 0.4827(5) 0.8711(3) 0.8711(3)
C2_7 C 0.5440(5) 0.7723(6) 0.8327(5)
H1_7 H 0.5694 0.7217 0.8304
O2_7 O 0.4150(4) 0.9843(4) 0.8922(4)
N3_7 N 0.5017(5) 0.8942(3) 0.8004(3)
C3_7 C 0.5440(5) 0.8327(5) 0.7723(6)
H2_7 H 0.5694 0.8304 0.7217
C2_8 C 0.0440(5) 0.2723(6) 0.3327(5)
H1_8 H 0.0694 0.2217 0.3304
N3_8 N 0.0017(5) 0.3942(3) 0.3004(3)
C3_8 C 0.0440(5) 0.3327(5) 0.2723(6)
H2_8 H 0.0694 0.3304 0.2217
O1_8 O 0.9150(4) 0.3922(4) 0.4843(4)
N1_8 N 0.9351(5) 0.4198(3) 0.4198(3)
C1_8 C 0.9827(5) 0.3711(3) 0.3711(3)
O2_8 O 0.9150(4) 0.4843(4) 0.3922(4)
O3_7 O 0.8922(4) 0.4150(4) 0.9843(4)
N4_7 N 0.9198(3) 0.4351(5) 0.9198(3)
C4_7 C 0.8711(3) 0.4827(5) 0.8711(3)
N5_5 N 0.8004(3) 0.5017(5) 0.8942(3)
C5_7 C 0.7723(6) 0.5440(5) 0.8327(5)
H3_7 H 0.7217 0.5694 0.8304
O4_7 O 0.9843(4) 0.4150(4) 0.8922(4)
C6_7 C 0.8327(5) 0.5440(5) 0.7723(6)
H4_7 H 0.8304 0.5694 0.7217
N5_6 N 0.3004(3) 0.0017(5) 0.3942(3)
C5_8 C 0.2723(6) 0.0440(5) 0.3327(5)
H3_8 H 0.2217 0.0694 0.3304
C6_8 C 0.3327(5) 0.0440(5) 0.2723(6)
H4_8 H 0.3304 0.0694 0.2217
O3_8 O 0.3922(4) 0.9150(4) 0.4843(4)
N4_8 N 0.4198(3) 0.9351(5) 0.4198(3)
C4_8 C 0.3711(3) 0.9827(5) 0.3711(3)
O4_8 O 0.4843(4) 0.9150(4) 0.3922(4)
O1_9 O 0.1078(4) 0.9843(4) 0.5850(4)
N1_9 N 0.0802(3) 0.9198(3) 0.5649(5)
C1_9 C 0.1289(3) 0.8711(3) 0.5173(5)
N2_7 N 0.1996(3) 0.8942(3) 0.4983(5)
C2_9 C 0.2277(6) 0.8327(5) 0.4560(5)
H1_9 H 0.2783 0.8304 0.4306
O2_9 O 0.0157(4) 0.8922(4) 0.5850(4)
N3_9 N 0.1058(3) 0.8004(3) 0.4983(5)
C3_9 C 0.1673(5) 0.7723(6) 0.4560(5)
H2_9 H 0.1696 0.7217 0.4306
N8_7 N 0.3004(3) 0.9983(5) 0.6058(3)
O1_10 O 0.6078(4) 0.4843(4) 0.0850(4)
N1_10 N 0.5802(3) 0.4198(3) 0.0649(5)
C1_10 C 0.6289(3) 0.3711(3) 0.0173(5)
O2_10 O 0.5157(4) 0.3922(4) 0.0850(4)
N8_8 N 0.8004(3) 0.4983(5) 0.1058(3)
N2_8 N 0.6996(3) 0.3942(3) 0.9983(5)
C2_10 C 0.7277(6) 0.3327(5) 0.9560(5)
H1_10 H 0.7783 0.3304 0.9306
N3_10 N 0.6058(3) 0.3004(3) 0.9983(5)
C3_10 C 0.6673(5) 0.2723(6) 0.9560(5)
H2_10 H 0.6696 0.2217 0.9306
O1_11 O 0.8922(4) 0.5850(4) 0.0157(4)
N1_11 N 0.9198(3) 0.5649(5) 0.0802(3)
C1_11 C 0.8711(3) 0.5173(5) 0.1289(3)
C2_11 C 0.7723(6) 0.4560(5) 0.1673(5)
H1_11 H 0.7217 0.4306 0.1696
O2_11 O 0.9843(4) 0.5850(4) 0.1078(4)
N3_11 N 0.8942(3) 0.4983(5) 0.1996(3)
C3_11 C 0.8327(5) 0.4560(5) 0.2277(6)
H2_11 H 0.8304 0.4306 0.2783
O1_12 O 0.3922(4) 0.0850(4) 0.5157(4)
N1_12 N 0.4198(3) 0.0649(5) 0.5802(3)
C1_12 C 0.3711(3) 0.0173(5) 0.6289(3)
O2_12 O 0.4843(4) 0.0850(4) 0.6078(4)
C2_12 C 0.2723(6) 0.9560(5) 0.6673(5)
H1_12 H 0.2217 0.9306 0.6696
N3_12 N 0.3942(3) 0.9983(5) 0.6996(3)
C3_12 C 0.3327(5) 0.9560(5) 0.7277(6)
H2_12 H 0.3304 0.9306 0.7783
O1_13 O 0.9843(4) 0.8922(4) 0.4150(4)
N1_13 N 0.9198(3) 0.9198(3) 0.4351(5)
C1_13 C 0.8711(3) 0.8711(3) 0.4827(5)
N2_9 N 0.8942(3) 0.8004(3) 0.5017(5)
C2_13 C 0.8327(5) 0.7723(6) 0.5440(5)
H1_13 H 0.8304 0.7217 0.5694
O2_13 O 0.8922(4) 0.9843(4) 0.4150(4)
C3_13 C 0.7723(6) 0.8327(5) 0.5440(5)
H2_13 H 0.7217 0.8304 0.5694
N8_9 N 0.9983(5) 0.6996(3) 0.3942(3)
N2_10 N 0.3942(3) 0.3004(3) 0.0017(5)
C2_14 C 0.3327(5) 0.2723(6) 0.0440(5)
H1_14 H 0.3304 0.2217 0.0694
C3_14 C 0.2723(6) 0.3327(5) 0.0440(5)
H2_14 H 0.2217 0.3304 0.0694
O1_14 O 0.4843(4) 0.3922(4) 0.9150(4)
N1_14 N 0.4198(3) 0.4198(3) 0.9351(5)
C1_14 C 0.3711(3) 0.3711(3) 0.9827(5)
O2_14 O 0.3922(4) 0.4843(4) 0.9150(4)
N8_10 N 0.4983(5) 0.1996(3) 0.8942(3)
O1_15 O 0.5850(4) 0.1078(4) 0.9843(4)
N1_15 N 0.5649(5) 0.0802(3) 0.9198(3)
C1_15 C 0.5173(5) 0.1289(3) 0.8711(3)
C2_15 C 0.4560(5) 0.2277(6) 0.8327(5)
H1_15 H 0.4306 0.2783 0.8304
O2_15 O 0.5850(4) 0.0157(4) 0.8922(4)
N3_13 N 0.4983(5) 0.1058(3) 0.8004(3)
C3_15 C 0.4560(5) 0.1673(5) 0.7723(6)
H2_15 H 0.4306 0.1696 0.7217
O1_16 O 0.0850(4) 0.6078(4) 0.4843(4)
N1_16 N 0.0649(5) 0.5802(3) 0.4198(3)
C1_16 C 0.0173(5) 0.6289(3) 0.3711(3)
O2_16 O 0.0850(4) 0.5157(4) 0.3922(4)
C2_16 C 0.9560(5) 0.7277(6) 0.3327(5)
H1_16 H 0.9306 0.7783 0.3304
N3_14 N 0.9983(5) 0.6058(3) 0.3004(3)
C3_16 C 0.9560(5) 0.6673(5) 0.2723(6)
H2_16 H 0.9306 0.6696 0.2217
loop_
_geom_bond_atom_site_label_1
_geom_bond_atom_site_label_2
_geom_bond_site_symmetry_1
_geom_bond_site_symmetry_2
O1 N1 1_555 1_555
N1 C1 1_555 1_555
C1 N2 1_555 1_555
N2 C2 1_555 1_555
C2 H1 1_555 1_555
Zn1 N2 1_555 1_555
O2 N1 1_555 1_555
N3 C1 1_555 1_555
C3 C2 1_555 1_555
H2 C3 1_555 1_555
N8 Zn1 1_555 1_555
Zn3 N3 1_555 1_555
N3 C3 1_555 1_555
O3 N4 1_555 1_555
N4 C4 1_555 1_555
C4 N5 1_555 1_555
N5 C5 1_555 1_555
C5 H3 1_555 1_555
O4 N4 1_555 1_555
N6 Zn1_2 1_555 1_555
C6 C5 1_555 1_555
H4 C6 1_555 1_555
N7 Zn1_2 1_555 1_555
Zn2 N5 1_555 1_555
C4 N6 1_555 1_555
N6 C6 1_555 1_555
N2_2 C2_2 1_555 1_555
C2_2 H1_2 1_555 1_555
Zn1_3 N2_2 1_555 1_555
C3_2 C2_2 1_555 1_555
H2_2 C3_2 1_555 1_555
O3_2 N4_2 1_555 1_555
N4_2 C4_2 1_555 1_555
O4_2 N4_2 1_555 1_555
N7_2 Zn1_3 1_555 1_555
Zn3_3 N3_2 1_555 1_555
N3_2 C3_2 1_555 1_555
O1_2 N1_2 1_555 1_555
N1_2 C1_2 1_555 1_555
O2_2 N1_2 1_555 1_555
N5_2 C5_2 1_555 1_555
C5_2 H3_2 1_555 1_555
N6_2 Zn1_4 1_555 1_555
C6_2 C5_2 1_555 1_555
H4_2 C6_2 1_555 1_555
N8_2 Zn1_4 1_555 1_555
Zn2_4 N5_2 1_555 1_555
N6_2 C6_2 1_555 1_555
O1_3 N1_3 1_555 1_555
N1_3 C1_3 1_555 1_555
C1_3 N2_3 1_555 1_555
N2_3 C2_3 1_555 1_555
C2_3 H1_3 1_555 1_555
Zn2_3 N2_3 1_555 1_555
O2_3 N1_3 1_555 1_555
N3_3 C1_3 1_555 1_555
C3_3 C2_3 1_555 1_555
H2_3 C3_3 1_555 1_555
N8_3 Zn2_3 1_555 1_555
Zn3_5 N3_3 1_555 1_555
N3_3 C3_3 1_555 1_555
O3_3 N4_3 1_555 1_555
N4_3 C4_3 1_555 1_555
C4_3 N5_3 1_555 1_555
N5_3 C5_3 1_555 1_555
C5_3 H3_3 1_555 1_555
O4_3 N4_3 1_555 1_555
N6_3 Zn2_4 1_555 1_555
C6_3 C5_3 1_555 1_555
H4_3 C6_3 1_555 1_555
Zn2_5 N5_3 1_555 1_555
C4_3 N6_3 1_555 1_555
N6_3 C6_3 1_555 1_555
N2_4 C2_4 1_555 1_555
C2_4 H1_4 1_555 1_555
Zn2 N2_4 1_555 1_555
C3_4 C2_4 1_555 1_555
H2_4 C3_4 1_555 1_555
O3_4 N4_4 1_555 1_555
N4_4 C4_4 1_555 1_555
O4_4 N4_4 1_555 1_555
Zn3_7 N3_4 1_555 1_555
N3_4 C3_4 1_555 1_555
O1_4 N1_4 1_555 1_555
N1_4 C1_4 1_555 1_555
O2_4 N1_4 1_555 1_555
N5_4 C5_4 1_555 1_555
C5_4 H3_4 1_555 1_555
N6_4 Zn2_2 1_555 1_555
C6_4 C5_4 1_555 1_555
H4_4 C6_4 1_555 1_555
N8_4 Zn2_2 1_555 1_555
Zn2_8 N5_4 1_555 1_555
N6_4 C6_4 1_555 1_555
O1_5 N1_5 1_555 1_555
N1_5 C1_5 1_555 1_555
C1_5 N2_5 1_555 1_555
N2_5 C2_5 1_555 1_555
C2_5 H1_5 1_555 1_555
Zn2_7 N2_5 1_555 1_555
O2_5 N1_5 1_555 1_555
N3_5 C1_5 1_555 1_555
C3_5 C2_5 1_555 1_555
H2_5 C3_5 1_555 1_555
N8_5 Zn2_7 1_555 1_555
Zn3_9 N3_5 1_555 1_555
N3_5 C3_5 1_555 1_555
O3_5 N4_5 1_555 1_555
N4_5 C4_5 1_555 1_555
C4_5 N7_2 1_555 1_555
N7_2 C5_5 1_555 1_555
C5_5 H3_5 1_555 1_555
O4_5 N4_5 1_555 1_555
N6_5 Zn2_8 1_555 1_555
C6_5 C5_5 1_555 1_555
H4_5 C6_5 1_555 1_555
C4_5 N6_5 1_555 1_555
N6_5 C6_5 1_555 1_555
N2_6 C2_6 1_555 1_555
C2_6 H1_6 1_555 1_555
Zn2_5 N2_6 1_555 1_555
C3_6 C2_6 1_555 1_555
H2_6 C3_6 1_555 1_555
O3_6 N4_6 1_555 1_555
N4_6 C4_6 1_555 1_555
O4_6 N4_6 1_555 1_555
Zn3_11 N3_6 1_555 1_555
N3_6 C3_6 1_555 1_555
O1_6 N1_6 1_555 1_555
N1_6 C1_6 1_555 1_555
O2_6 N1_6 1_555 1_555
N7 C5_6 1_555 1_555
C5_6 H3_6 1_555 1_555
N6_6 Zn2_6 1_555 1_555
C6_6 C5_6 1_555 1_555
H4_6 C6_6 1_555 1_555
N8_6 Zn2_6 1_555 1_555
N6_6 C6_6 1_555 1_555
O1_7 N1_7 1_555 1_555
N1_7 C1_7 1_555 1_555
C1_7 N8_6 1_555 1_555
N8_6 C2_7 1_555 1_555
C2_7 H1_7 1_555 1_555
O2_7 N1_7 1_555 1_555
N3_7 C1_7 1_555 1_555
C3_7 C2_7 1_555 1_555
H2_7 C3_7 1_555 1_555
Zn3_4 N3_7 1_555 1_555
N3_7 C3_7 1_555 1_555
N8_5 C2_8 1_555 1_555
C2_8 H1_8 1_555 1_555
C3_8 C2_8 1_555 1_555
H2_8 C3_8 1_555 1_555
Zn3 N3_8 1_555 1_555
N3_8 C3_8 1_555 1_555
O1_8 N1_8 1_555 1_555
N1_8 C1_8 1_555 1_555
O2_8 N1_8 1_555 1_555
O3_7 N4_7 1_555 1_555
N4_7 C4_7 1_555 1_555
C4_7 N5_5 1_555 1_555
N5_5 C5_7 1_555 1_555
C5_7 H3_7 1_555 1_555
O4_7 N4_7 1_555 1_555
C6_7 C5_7 1_555 1_555
H4_7 C6_7 1_555 1_555
Zn3_12 N5_5 1_555 1_555
C4_7 N8_4 1_555 1_555
N8_4 C6_7 1_555 1_555
N5_6 C5_8 1_555 1_555
C5_8 H3_8 1_555 1_555
C6_8 C5_8 1_555 1_555
H4_8 C6_8 1_555 1_555
Zn3_9 N5_6 1_555 1_555
N8_3 C6_8 1_555 1_555
O3_8 N4_8 1_555 1_555
N4_8 C4_8 1_555 1_555
O4_8 N4_8 1_555 1_555
O1_9 N1_9 1_555 1_555
N1_9 C1_9 1_555 1_555
C1_9 N2_7 1_555 1_555
N2_7 C2_9 1_555 1_555
C2_9 H1_9 1_555 1_555
Zn3_10 N2_7 1_555 1_555
O2_9 N1_9 1_555 1_555
N3_9 C1_9 1_555 1_555
C3_9 C2_9 1_555 1_555
H2_9 C3_9 1_555 1_555
N8_7 Zn3_10 1_555 1_555
Zn3_7 N3_9 1_555 1_555
N3_9 C3_9 1_555 1_555
O1_10 N1_10 1_555 1_555
N1_10 C1_10 1_555 1_555
O2_10 N1_10 1_555 1_555
N8_8 Zn3_11 1_555 1_555
N2_8 C2_10 1_555 1_555
C2_10 H1_10 1_555 1_555
Zn3_12 N2_8 1_555 1_555
C3_10 C2_10 1_555 1_555
H2_10 C3_10 1_555 1_555
Zn3_6 N3_10 1_555 1_555
N3_10 C3_10 1_555 1_555
O1_11 N1_11 1_555 1_555
N1_11 C1_11 1_555 1_555
C1_11 N8_8 1_555 1_555
N8_8 C2_11 1_555 1_555
C2_11 H1_11 1_555 1_555
O2_11 N1_11 1_555 1_555
N3_11 C1_11 1_555 1_555
C3_11 C2_11 1_555 1_555
H2_11 C3_11 1_555 1_555
Zn3_2 N3_11 1_555 1_555
N3_11 C3_11 1_555 1_555
O1_12 N1_12 1_555 1_555
N1_12 C1_12 1_555 1_555
O2_12 N1_12 1_555 1_555
N8_7 C2_12 1_555 1_555
C2_12 H1_12 1_555 1_555
C3_12 C2_12 1_555 1_555
H2_12 C3_12 1_555 1_555
Zn3_4 N3_12 1_555 1_555
N3_12 C3_12 1_555 1_555
O1_13 N1_13 1_555 1_555
N1_13 C1_13 1_555 1_555
C1_13 N2_9 1_555 1_555
N2_9 C2_13 1_555 1_555
C2_13 H1_13 1_555 1_555
Zn3_8 N2_9 1_555 1_555
O2_13 N1_13 1_555 1_555
N8_2 C1_13 1_555 1_555
C3_13 C2_13 1_555 1_555
H2_13 C3_13 1_555 1_555
N8_9 Zn3_8 1_555 1_555
N8_2 C3_13 1_555 1_555
N2_10 C2_14 1_555 1_555
C2_14 H1_14 1_555 1_555
Zn3_5 N2_10 1_555 1_555
C3_14 C2_14 1_555 1_555
H2_14 C3_14 1_555 1_555
N8 C3_14 1_555 1_555
O1_14 N1_14 1_555 1_555
N1_14 C1_14 1_555 1_555
O2_14 N1_14 1_555 1_555
N8_10 Zn3_6 1_555 1_555
O1_15 N1_15 1_555 1_555
N1_15 C1_15 1_555 1_555
C1_15 N8_10 1_555 1_555
N8_10 C2_15 1_555 1_555
C2_15 H1_15 1_555 1_555
O2_15 N1_15 1_555 1_555
N3_13 C1_15 1_555 1_555
C3_15 C2_15 1_555 1_555
H2_15 C3_15 1_555 1_555
Zn3_3 N3_13 1_555 1_555
N3_13 C3_15 1_555 1_555
O1_16 N1_16 1_555 1_555
N1_16 C1_16 1_555 1_555
O2_16 N1_16 1_555 1_555
N8_9 C2_16 1_555 1_555
C2_16 H1_16 1_555 1_555
C3_16 C2_16 1_555 1_555
H2_16 C3_16 1_555 1_555
Zn3_2 N3_14 1_555 1_555
N3_14 C3_16 1_555 1_555

#END
