
###############################################################################
#
# This file contains modified crystal structure data generated from the
# MOF subset of the Cambridge Structural Database (CSD) v543 
# hosted by the Cambridge Crystallographic Data Centre (CCDC).
#
# This work is licensed under the Creative Commons
# Attribution-NonCommercial-ShareAlike 4.0 International License.
# To view a copy of this license, visit
# http://creativecommons.org/licenses/by-nc-sa/4.0/
# or send a letter to
# Creative Commons, PO Box 1866, Mountain View, CA 94042, USA.
#
# CIF created using the CSD Python API on 29 September 2022
# The structure has been converted into the P1 space group
# The structure has a 3D framework
# The original CSD entry YEVFUD01 is in the hexagonal crystal system
# The framework has been calculated to contain at least 10.0% void space
# The void calculation uses a probe of radius 1.32A, grid spacing 0.4
#
###############################################################################

data_YEVFUD01
_chemical_formula_moiety         '(C84 H48 Co6 N12 O26)n'
_symmetry_cell_setting           triclinic
_symmetry_space_group_name_H-M   'P 1'
_symmetry_Int_Tables_number      1
_space_group_name_Hall           'P 1'
loop_
_symmetry_equiv_pos_site_id
_symmetry_equiv_pos_as_xyz
1 x,y,z
_cell_length_a                   16.929(4)
_cell_length_b                   16.929(4)
_cell_length_c                   15.306(4)
_cell_angle_alpha                90
_cell_angle_beta                 90
_cell_angle_gamma                120
_cell_volume                     3798.87
loop_
_atom_site_label
_atom_site_type_symbol
_atom_site_fract_x
_atom_site_fract_y
_atom_site_fract_z
N4 N 0.0933(2) 0.04667(23) 0.7500
N5 N 0.19013(22) 0.3803(2) 0.7500
C17 C 0.18909(27) 0.23866(19) 0.7500
H9 H 0.2223 0.2085 0.7500
C18 C 0.09493(33) 0.1899(3) 0.7500
C19 C 0.04440(33) 0.0888(3) 0.7500
C20 C 0.23316(27) 0.33240(19) 0.7500
H10 H 0.2966 0.3642 0.7500
C21 C 0.04957(19) 0.23866(19) 0.7500
C22 C 0.09924(19) 0.33240(19) 0.7500
H12 H 0.0676 0.3642 0.7500
H13 H 0.2223 0.0138 0.7500
Co9 Co 0.26426(4) 0.52852(3) 0.7500
N3 N 0.19017(10) 0.80987(22) 0.7500
C13 C 0.04957(19) 0.81091(27) 0.7500
C14 C 0.09497(13) 0.90507(33) 0.7500
C15 C 0.04440(13) 0.95560(33) 0.7500
C16 C 0.09924(19) 0.76684(27) 0.7500
H8 H 0.0676 0.7034 0.7500
C23 C 0.18909(27) 0.95043(19) 0.7500
C24 C 0.23316(27) 0.90076(19) 0.7500
H14 H 0.2966 0.9324 0.7500
Co6 Co 0.26426(2) 0.73574(4) 0.7500
O3 O 0.65196(13) 0.17255(10) 0.15398(10)
C8 C 0.57216(19) 0.14432(17) 0.12965(17)
C9 C 0.53451(21) 0.06903(19) 0.06262(18)
C10 C 0.58694(23) 0.03429(17) 0.03100(17)
H4 H 0.6462 0.0572 0.0516
O4 O 0.52059(9) 0.17255(10) 0.15398(10)
C11 C 0.44735(15) 0.03429(17) 0.03100(17)
H5 H 0.4110 0.0572 0.0516
Co8 Co 0.52852(3) 0.26426(2) 0.2500
Co11 Co 0.73574(2) 0.26426(4) 0.2500
H1 H 0.7915 0.0138 0.7500
N6 N 0.95333(23) 0.04663(11) 0.7500
H11 H 0.9862 0.2085 0.7500
O11 O 0.52059(9) 0.34804(13) 0.15398(10)
C38 C 0.57216(9) 0.42784(19) 0.12965(17)
C39 C 0.53452(10) 0.46549(21) 0.06262(18)
C40 C 0.44735(15) 0.41306(23) 0.03100(17)
H22 H 0.4110 0.3538 0.0516
O12 O 0.65196(13) 0.47941(9) 0.15398(10)
C41 C 0.58694(23) 0.55265(15) 0.03100(17)
H23 H 0.6462 0.5890 0.0516
Co5 Co 0.73574(4) 0.47148(3) 0.2500
Co1 Co 0.47148(3) 0.73574(2) 0.7500
O1 O 0.3333 0.6667 0.7500
O2 O 0.47941(9) 0.82745(10) 0.84602(10)
N1 N 0.6197(2) 0.80983(10) 0.7500
C1 C 0.42784(9) 0.85568(17) 0.87035(17)
C2 C 0.46548(10) 0.93097(19) 0.93738(18)
C3 C 0.76134(19) 0.95043(19) 0.7500
C4 C 0.8101(3) 0.90503(13) 0.7500
N2 N 0.95337(11) 0.9067(2) 0.7500
C5 C 0.9112(3) 0.95560(13) 0.7500
C6 C 0.55265(15) 0.96571(17) 0.96900(17)
H2 H 0.5890 0.9428 0.9484
C7 C 0.66760(19) 0.90076(19) 0.7500
H3 H 0.6358 0.9324 0.7500
O5 O 0.34804(13) 0.82745(10) 0.84602(10)
C12 C 0.41306(23) 0.96571(17) 0.96900(17)
H6 H 0.3538 0.9428 0.9484
H7 H 0.9862 0.7777 0.7500
C25 C 0.76134(19) 0.81091(27) 0.7500
H15 H 0.7915 0.7777 0.7500
C26 C 0.66760(19) 0.76684(27) 0.7500
H16 H 0.6358 0.7034 0.7500
O6 O 0.17255(10) 0.65196(13) 0.84602(10)
C27 C 0.14432(17) 0.57216(19) 0.87035(17)
C28 C 0.06903(19) 0.53451(21) 0.93738(18)
C29 C 0.03429(17) 0.58694(23) 0.96900(17)
H17 H 0.0572 0.6462 0.9484
O9 O 0.17255(10) 0.52059(9) 0.84602(10)
C34 C 0.03429(17) 0.44735(15) 0.96900(17)
H20 H 0.0572 0.4110 0.9484
O10 O 0.34804(13) 0.52059(9) 0.84602(10)
C35 C 0.42784(19) 0.57216(9) 0.87035(17)
C36 C 0.46549(21) 0.53452(10) 0.93738(18)
C37 C 0.41306(23) 0.44735(15) 0.96900(17)
H21 H 0.3538 0.4110 0.9484
O13 O 0.47941(9) 0.65196(13) 0.84602(10)
C42 C 0.55265(15) 0.58694(23) 0.96900(17)
H24 H 0.5890 0.6462 0.9484
O14 O 0.17255(10) 0.52059(9) 0.65398(10)
O15 O 0.34804(13) 0.82745(10) 0.65398(10)
O16 O 0.47941(9) 0.65196(13) 0.65398(10)
O17 O 0.34804(13) 0.52059(9) 0.65398(10)
O18 O 0.47941(9) 0.82745(10) 0.65398(10)
O19 O 0.17255(10) 0.65196(13) 0.65398(10)
O7 O 0.82745(10) 0.47941(9) 0.15398(10)
C30 C 0.85568(17) 0.42784(9) 0.12965(17)
C31 C 0.93097(19) 0.46548(10) 0.06262(18)
C32 C 0.96571(17) 0.55265(15) 0.03100(17)
H18 H 0.9428 0.5890 0.0516
O8 O 0.82745(10) 0.34804(13) 0.15398(10)
C33 C 0.96571(17) 0.41306(23) 0.03100(17)
H19 H 0.9428 0.3538 0.0516
N3_2 N 0.38030(24) 0.19017(10) 0.2500
C13_2 C 0.23866(33) 0.04957(19) 0.2500
C14_2 C 0.18990(35) 0.09497(13) 0.2500
N4_2 N 0.04663(30) 0.0933(2) 0.2500
C15_2 C 0.08880(35) 0.04440(13) 0.2500
C16_2 C 0.33240(33) 0.09924(19) 0.2500
H8_2 H 0.3642 0.0676 0.2500
H9_2 H 0.0138 0.2223 0.2500
C23_2 C 0.23866(33) 0.18909(27) 0.2500
H13_2 H 0.2085 0.2223 0.2500
C24_2 C 0.33240(33) 0.23316(27) 0.2500
H14_2 H 0.3642 0.2966 0.2500
N2_2 N 0.04667(23) 0.95337(11) 0.2500
H7_2 H 0.2085 0.9862 0.2500
H15_2 H 0.0138 0.7915 0.2500
C38_2 C 0.14432(21) 0.57216(9) 0.62965(17)
C39_2 C 0.06903(23) 0.53452(10) 0.56262(18)
C40_2 C 0.03429(27) 0.44735(15) 0.53100(17)
H22_2 H 0.0572 0.4110 0.5516
C41_2 C 0.03429(27) 0.58694(23) 0.53100(17)
H23_2 H 0.0572 0.6462 0.5516
N5_2 N 0.80983(30) 0.19013(22) 0.2500
C17_2 C 0.95043(33) 0.18909(27) 0.2500
C18_2 C 0.90503(45) 0.09493(33) 0.2500
C19_2 C 0.95560(45) 0.04440(33) 0.2500
C20_2 C 0.90076(33) 0.23316(27) 0.2500
H10_2 H 0.9324 0.2966 0.2500
C21_2 C 0.81091(27) 0.04957(19) 0.2500
C22_2 C 0.76684(27) 0.09924(19) 0.2500
H12_2 H 0.7034 0.0676 0.2500
O1_2 O 0.6666 0.3333 0.2500
O2_2 O 0.65196(13) 0.47941(9) 0.34602(10)
N1_2 N 0.80987(22) 0.6197(2) 0.2500
C1_2 C 0.57216(19) 0.42784(9) 0.37035(17)
C2_2 C 0.53451(21) 0.46548(10) 0.43738(18)
C3_2 C 0.81091(27) 0.76134(19) 0.2500
H1_2 H 0.7777 0.7915 0.2500
C4_2 C 0.90507(33) 0.8101(3) 0.2500
C5_2 C 0.95560(33) 0.9112(3) 0.2500
C6_2 C 0.58694(23) 0.55265(15) 0.46900(17)
H2_2 H 0.6462 0.5890 0.4484
C7_2 C 0.76684(27) 0.66760(19) 0.2500
H3_2 H 0.7034 0.6358 0.2500
C8_2 C 0.42784(25) 0.57216(19) 0.62965(17)
C9_2 C 0.46548(28) 0.53451(21) 0.56262(18)
C10_2 C 0.55265(29) 0.58694(23) 0.53100(17)
H4_2 H 0.5890 0.6462 0.5516
C11_2 C 0.41306(23) 0.44735(15) 0.53100(17)
H5_2 H 0.3538 0.4110 0.5516
O5_2 O 0.52059(16) 0.34804(13) 0.34602(10)
C12_2 C 0.44735(29) 0.41306(23) 0.46900(17)
H6_2 H 0.4110 0.3538 0.4484
N6_2 N 0.90670(25) 0.95333(23) 0.2500
H11_2 H 0.7777 0.9862 0.2500
C25_2 C 0.95043(33) 0.76134(19) 0.2500
C26_2 C 0.90076(33) 0.66760(19) 0.2500
H16_2 H 0.9324 0.6358 0.2500
O6_2 O 0.52059(16) 0.17255(10) 0.34602(10)
C27_2 C 0.57216(25) 0.14432(17) 0.37035(17)
C28_2 C 0.53452(28) 0.06903(19) 0.43738(18)
C29_2 C 0.44735(29) 0.03429(17) 0.46900(17)
H17_2 H 0.4110 0.0572 0.4484
O9_2 O 0.65196(13) 0.17255(10) 0.34602(10)
C34_2 C 0.58694(23) 0.03429(17) 0.46900(17)
H20_2 H 0.6462 0.0572 0.4484
O10_2 O 0.82745(16) 0.34804(13) 0.34602(10)
C35_2 C 0.85568(21) 0.42784(19) 0.37035(17)
C36_2 C 0.93097(23) 0.46549(21) 0.43738(18)
C37_2 C 0.96571(27) 0.41306(23) 0.46900(17)
H21_2 H 0.9428 0.3538 0.4484
O13_2 O 0.82745(16) 0.47941(9) 0.34602(10)
C42_2 C 0.96571(27) 0.55265(15) 0.46900(17)
H24_2 H 0.9428 0.5890 0.4484
C30_2 C 0.42784(19) 0.85568(17) 0.62965(17)
C31_2 C 0.46549(21) 0.93097(19) 0.56262(18)
C32_2 C 0.41306(23) 0.96571(17) 0.53100(17)
H18_2 H 0.3538 0.9428 0.5516
C33_2 C 0.55265(29) 0.96571(17) 0.53100(17)
H19_2 H 0.5890 0.9428 0.5516
loop_
_geom_bond_atom_site_label_1
_geom_bond_atom_site_label_2
_geom_bond_site_symmetry_1
_geom_bond_site_symmetry_2
N5 C20 1_555 1_555
C17 H9 1_555 1_555
C18 C17 1_555 1_555
C19 N4 1_555 1_555
C20 C17 1_555 1_555
H10 C20 1_555 1_555
C21 C18 1_555 1_555
C22 N5 1_555 1_555
H12 C22 1_555 1_555
Co9 N5 1_555 1_555
C18 C19 1_555 1_555
C21 C22 1_555 1_555
N3 C16 1_555 1_555
C14 C13 1_555 1_555
C16 C13 1_555 1_555
H8 C16 1_555 1_555
C23 C14 1_555 1_555
C24 N3 1_555 1_555
H14 C24 1_555 1_555
Co6 N3 1_555 1_555
C14 C15 1_555 1_555
C23 C24 1_555 1_555
O3 C8 1_555 1_555
C8 C9 1_555 1_555
C9 C10 1_555 1_555
H4 C10 1_555 1_555
O4 C8 1_555 1_555
C11 C9 1_555 1_555
H5 C11 1_555 1_555
Co8 O4 1_555 1_555
Co11 O3 1_555 1_555
O11 C38 1_555 1_555
C38 C39 1_555 1_555
C39 C40 1_555 1_555
H22 C40 1_555 1_555
O12 C38 1_555 1_555
C41 C39 1_555 1_555
H23 C41 1_555 1_555
Co5 O12 1_555 1_555
Co8 O11 1_555 1_555
Co1 O1 1_555 1_555
O1 Co6 1_555 1_555
O2 Co1 1_555 1_555
N1 Co1 1_555 1_555
C1 O2 1_555 1_555
C2 C1 1_555 1_555
C4 C3 1_555 1_555
N2 C5 1_555 1_555
C5 C4 1_555 1_555
C6 C2 1_555 1_555
H2 C6 1_555 1_555
C7 N1 1_555 1_555
H3 C7 1_555 1_555
O5 C1 1_555 1_555
C12 C2 1_555 1_555
H6 C12 1_555 1_555
C25 C4 1_555 1_555
H15 C25 1_555 1_555
C26 N1 1_555 1_555
H16 C26 1_555 1_555
Co6 O5 1_555 1_555
O6 Co6 1_555 1_555
C27 O6 1_555 1_555
C28 C27 1_555 1_555
C29 C28 1_555 1_555
H17 C29 1_555 1_555
O9 C27 1_555 1_555
C34 C28 1_555 1_555
H20 C34 1_555 1_555
Co9 O1 1_555 1_555
O10 Co9 1_555 1_555
C35 O10 1_555 1_555
C36 C35 1_555 1_555
C37 C36 1_555 1_555
H21 C37 1_555 1_555
O13 Co1 1_555 1_555
C42 C36 1_555 1_555
H24 C42 1_555 1_555
O14 Co9 1_555 1_555
O15 Co6 1_555 1_555
O16 Co1 1_555 1_555
O17 Co9 1_555 1_555
O18 Co1 1_555 1_555
O19 Co6 1_555 1_555
C3 C7 1_555 1_555
C25 C26 1_555 1_555
O9 Co9 1_555 1_555
C35 O13 1_555 1_555
O7 C30 1_555 1_555
C30 C31 1_555 1_555
C31 C32 1_555 1_555
H18 C32 1_555 1_555
O8 C30 1_555 1_555
C33 C31 1_555 1_555
H19 C33 1_555 1_555
Co5 O7 1_555 1_555
Co11 O8 1_555 1_555
N3_2 C16_2 1_555 1_555
C14_2 C13_2 1_555 1_555
N4_2 C15_2 1_555 1_555
C16_2 C13_2 1_555 1_555
H8_2 C16_2 1_555 1_555
C23_2 C14_2 1_555 1_555
H13_2 C23_2 1_555 1_555
C24_2 N3_2 1_555 1_555
H14_2 C24_2 1_555 1_555
Co8 N3_2 1_555 1_555
C14_2 C15_2 1_555 1_555
C23_2 C24_2 1_555 1_555
O14 C38_2 1_555 1_555
C38_2 C39_2 1_555 1_555
C39_2 C40_2 1_555 1_555
H22_2 C40_2 1_555 1_555
O19 C38_2 1_555 1_555
C41_2 C39_2 1_555 1_555
H23_2 C41_2 1_555 1_555
N5_2 C20_2 1_555 1_555
C18_2 C17_2 1_555 1_555
C20_2 C17_2 1_555 1_555
H10_2 C20_2 1_555 1_555
C21_2 C18_2 1_555 1_555
C22_2 N5_2 1_555 1_555
H12_2 C22_2 1_555 1_555
Co11 N5_2 1_555 1_555
C18_2 C19_2 1_555 1_555
C21_2 C22_2 1_555 1_555
Co5 O1_2 1_555 1_555
O1_2 Co8 1_555 1_555
O2_2 Co5 1_555 1_555
N1_2 Co5 1_555 1_555
C1_2 O2_2 1_555 1_555
C2_2 C1_2 1_555 1_555
C3_2 H1_2 1_555 1_555
C4_2 C3_2 1_555 1_555
C5_2 C4_2 1_555 1_555
C6_2 C2_2 1_555 1_555
H2_2 C6_2 1_555 1_555
C7_2 N1_2 1_555 1_555
H3_2 C7_2 1_555 1_555
O16 C8_2 1_555 1_555
C8_2 C9_2 1_555 1_555
C9_2 C10_2 1_555 1_555
C10_2 C6_2 1_555 1_555
H4_2 C10_2 1_555 1_555
O17 C8_2 1_555 1_555
C11_2 C9_2 1_555 1_555
H5_2 C11_2 1_555 1_555
O5_2 C1_2 1_555 1_555
C12_2 C2_2 1_555 1_555
H6_2 C12_2 1_555 1_555
N6_2 C5_2 1_555 1_555
C25_2 C4_2 1_555 1_555
C26_2 N1_2 1_555 1_555
H16_2 C26_2 1_555 1_555
Co8 O5_2 1_555 1_555
O6_2 Co8 1_555 1_555
C27_2 O6_2 1_555 1_555
C28_2 C27_2 1_555 1_555
C29_2 C28_2 1_555 1_555
H17_2 C29_2 1_555 1_555
O9_2 C27_2 1_555 1_555
C34_2 C28_2 1_555 1_555
H20_2 C34_2 1_555 1_555
Co11 O1_2 1_555 1_555
O10_2 Co11 1_555 1_555
C35_2 O10_2 1_555 1_555
C36_2 C35_2 1_555 1_555
C37_2 C36_2 1_555 1_555
H21_2 C37_2 1_555 1_555
O13_2 Co5 1_555 1_555
C42_2 C36_2 1_555 1_555
H24_2 C42_2 1_555 1_555
C3_2 C7_2 1_555 1_555
C11_2 C12_2 1_555 1_555
C25_2 C26_2 1_555 1_555
O9_2 Co11 1_555 1_555
C35_2 O13_2 1_555 1_555
O15 C30_2 1_555 1_555
C30_2 C31_2 1_555 1_555
C31_2 C32_2 1_555 1_555
H18_2 C32_2 1_555 1_555
O18 C30_2 1_555 1_555
C33_2 C31_2 1_555 1_555
H19_2 C33_2 1_555 1_555

#END
