
###############################################################################
#
# This file contains modified crystal structure data generated from the
# MOF subset of the Cambridge Structural Database (CSD) v543 
# hosted by the Cambridge Crystallographic Data Centre (CCDC).
#
# This work is licensed under the Creative Commons
# Attribution-NonCommercial-ShareAlike 4.0 International License.
# To view a copy of this license, visit
# http://creativecommons.org/licenses/by-nc-sa/4.0/
# or send a letter to
# Creative Commons, PO Box 1866, Mountain View, CA 94042, USA.
#
# CIF created using the CSD Python API on 29 September 2022
# The structure has been converted into the P1 space group
# The structure has a 3D framework
# The original CSD entry YEYDUE is in the tetragonal crystal system
# The original CSD entry YEYDUE is in a Sohncke space group
# The framework has been calculated to contain at least 10.0% void space
# The void calculation uses a probe of radius 1.32A, grid spacing 0.4
#
###############################################################################

data_YEYDUE
_chemical_formula_moiety         '(C84 H38 Al9 O32)n'
_symmetry_cell_setting           triclinic
_symmetry_space_group_name_H-M   'P 1'
_symmetry_Int_Tables_number      1
_space_group_name_Hall           'P 1'
loop_
_symmetry_equiv_pos_site_id
_symmetry_equiv_pos_as_xyz
1 x,y,z
_cell_length_a                   14.841577(53)
_cell_length_b                   14.841577(53)
_cell_length_c                   11.811807(54)
_cell_angle_alpha                90
_cell_angle_beta                 90
_cell_angle_gamma                90
_cell_volume                     2601.82
loop_
_atom_site_label
_atom_site_type_symbol
_atom_site_fract_x
_atom_site_fract_y
_atom_site_fract_z
_atom_site_U_iso_or_equiv
_atom_site_thermal_displace_type
O4 O 0.62440(20) 0.37600(18) 0.39584(21) 0.0476 Uiso
O5 O 0.71604(17) 0.39443(17) 0.24641(28) 0.0476 Uiso
C6 C 0.63801(29) 0.40859(30) 0.29768(38) 0.0519 Uiso
C7 C 0.56824(12) 0.45565(20) 0.23791(19) 0.0519 Uiso
C8 C 0.500 0.500 0.29913(26) 0.0519 Uiso
C9 C 0.57185(11) 0.46135(21) 0.12017(14) 0.0519 Uiso
C10 C 0.500 0.500 0.06174(21) 0.0519 Uiso
H4 H 0.500 0.500 0.38763 0.0622 Uiso
H5 H 0.62138 0.43282 0.09265 0.0622 Uiso
O8 O 0.37560(20) 0.62400(18) 0.39584(21) 0.0476 Uiso
O9 O 0.28396(17) 0.60557(17) 0.24641(28) 0.0476 Uiso
C14 C 0.36199(29) 0.59141(30) 0.29768(38) 0.0519 Uiso
C15 C 0.43176(12) 0.54435(20) 0.23791(19) 0.0519 Uiso
C16 C 0.42815(11) 0.53865(21) 0.12017(14) 0.0519 Uiso
H7 H 0.37862 0.56718 0.09265 0.0622 Uiso
Al4 Al 0.80586(10) 0.30586(10) 0.250 0.0493 Uiso
Al5 Al 0.69414(10) 0.30586(10) 0.500 0.0493 Uiso
Al7 Al 0.30586(10) 0.69414(10) 0.500 0.0493 Uiso
Al9 Al 0.19414(10) 0.69414(10) 0.250 0.0493 Uiso
O1 O 0.62400(18) 0.37560(20) 0.60416(21) 0.0476 Uiso
O2 O 0.60557(17) 0.28396(17) 0.75359(28) 0.0476 Uiso
C1 C 0.59141(30) 0.36199(29) 0.70232(38) 0.0519 Uiso
C2 C 0.54435(20) 0.43176(12) 0.76209(19) 0.0519 Uiso
C3 C 0.500 0.500 0.70087(26) 0.0519 Uiso
C4 C 0.53865(21) 0.42815(11) 0.87983(14) 0.0519 Uiso
C5 C 0.500 0.500 0.93826(21) 0.0519 Uiso
H1 H 0.500 0.500 0.61237 0.0622 Uiso
H2 H 0.56718 0.37862 0.90735 0.0622 Uiso
O3 O 0.750 0.24830(26) 0.375 0.0476 Uiso
H3 H 0.750 0.19136 0.375 0.0715 Uiso
O6 O 0.37600(18) 0.62440(20) 0.60416(21) 0.0476 Uiso
O7 O 0.39443(17) 0.71604(17) 0.75359(28) 0.0476 Uiso
C11 C 0.40859(30) 0.63801(29) 0.70232(38) 0.0519 Uiso
C12 C 0.45565(20) 0.56824(12) 0.76209(19) 0.0519 Uiso
C13 C 0.46135(21) 0.57185(11) 0.87983(14) 0.0519 Uiso
H6 H 0.43282 0.62138 0.90735 0.0622 Uiso
O10 O 0.75170(26) 0.250 0.625 0.0476 Uiso
H8 H 0.80864 0.250 0.625 0.0715 Uiso
O13 O 0.78396(17) 0.39443(17) 0.50359(28) 0.0476 Uiso
O14 O 0.60557(17) 0.21604(17) 0.49641(28) 0.0476 Uiso
O15 O 0.39443(17) 0.78396(17) 0.49641(28) 0.0476 Uiso
O16 O 0.21604(17) 0.60557(17) 0.50359(28) 0.0476 Uiso
Al6 Al 0.69414(10) 0.19414(10) 0.750 0.0493 Uiso
Al8 Al 0.30586(10) 0.80586(10) 0.750 0.0493 Uiso
O17 O 0.250 0.75170(26) 0.375 0.0476 Uiso
O18 O 0.24830(26) 0.750 0.625 0.0476 Uiso
Al7_2 Al 0.19414(10) 0.80586(10) 0.000 0.0493 Uiso
C3_2 C -0.000 1.000 0.20087(26) 0.0519 Uiso
C5_2 C -0.000 1.000 0.43826(21) 0.0519 Uiso
H1_2 H -0.000 1.000 0.11237 0.0622 Uiso
C8_2 C 0.000 1.000 0.79913(26) 0.0519 Uiso
C10_2 C -0.000 1.000 0.56174(21) 0.0519 Uiso
H4_2 H -0.000 1.000 0.88763 0.0622 Uiso
O6_2 O 0.12400(18) 0.87560(20) 0.10416(21) 0.0476 Uiso
O7_2 O 0.10557(17) 0.78396(17) 0.25359(28) 0.0476 Uiso
C11_2 C 0.09141(30) 0.86199(29) 0.20232(38) 0.0519 Uiso
C12_2 C 0.04435(20) 0.93176(12) 0.26209(19) 0.0519 Uiso
C13_2 C 0.03865(21) 0.92815(11) 0.37983(14) 0.0519 Uiso
H6_2 H 0.06718 0.87862 0.40735 0.0622 Uiso
O8_2 O 0.12440(20) 0.87600(18) 0.89584(21) 0.0476 Uiso
O9_2 O 0.21604(17) 0.89443(17) 0.74641(28) 0.0476 Uiso
C14_2 C 0.13801(29) 0.90859(30) 0.79768(38) 0.0519 Uiso
C15_2 C 0.06824(12) 0.95565(20) 0.73791(19) 0.0519 Uiso
C16_2 C 0.07185(11) 0.96135(21) 0.62017(14) 0.0519 Uiso
H7_2 H 0.12138 0.93282 0.59265 0.0622 Uiso
O16_2 O 0.28396(17) 0.89443(17) 0.00359(28) 0.0476 Uiso
Al7_3 Al 0.19414(10) 0.80586(10) 1.000 0.0493 Uiso
O18_2 O 0.25170(26) 0.750 0.125 0.0476 Uiso
O15_2 O 0.10557(17) 0.71604(17) 0.99641(28) 0.0476 Uiso
O17_2 O 0.250 0.74830(26) 0.875 0.0476 Uiso
Al5_2 Al 0.80586(10) 0.19414(10) 0.000 0.0493 Uiso
O1_2 O 0.87600(18) 0.12440(20) 0.10416(21) 0.0476 Uiso
O2_2 O 0.89443(17) 0.21604(17) 0.25359(28) 0.0476 Uiso
C1_2 C 0.90859(30) 0.13801(29) 0.20232(38) 0.0519 Uiso
C2_2 C 0.95565(20) 0.06824(12) 0.26209(19) 0.0519 Uiso
C3_3 C 1.000 -0.000 0.20087(26) 0.0519 Uiso
C4_2 C 0.96135(21) 0.07185(11) 0.37983(14) 0.0519 Uiso
C5_3 C 1.000 -0.000 0.43826(21) 0.0519 Uiso
H1_3 H 1.000 0.000 0.11237 0.0622 Uiso
H2_2 H 0.93282 0.12138 0.40735 0.0622 Uiso
O4_2 O 0.87560(20) 0.12400(18) 0.89584(21) 0.0476 Uiso
O5_2 O 0.78396(17) 0.10557(17) 0.74641(28) 0.0476 Uiso
C6_2 C 0.86199(29) 0.09141(30) 0.79768(38) 0.0519 Uiso
C7_2 C 0.93176(12) 0.04435(20) 0.73791(19) 0.0519 Uiso
C8_3 C 1.000 0.000 0.79913(26) 0.0519 Uiso
C9_2 C 0.92815(11) 0.03865(21) 0.62017(14) 0.0519 Uiso
C10_3 C 1.000 -0.000 0.56174(21) 0.0519 Uiso
H4_3 H 1.000 -0.000 0.88763 0.0622 Uiso
H5_2 H 0.87862 0.06718 0.59265 0.0622 Uiso
O10_2 O 0.74830(26) 0.250 0.125 0.0476 Uiso
H8_2 H 0.69136 0.250 0.125 0.0715 Uiso
O13_2 O 0.71604(17) 0.10557(17) 0.00359(28) 0.0476 Uiso
Al5_3 Al 0.80586(10) 0.19414(10) 1.000 0.0493 Uiso
O3_2 O 0.750 0.25170(26) 0.875 0.0476 Uiso
H3_2 H 0.750 0.30864 0.875 0.0715 Uiso
O14_2 O 0.89443(17) 0.28396(17) 0.99641(28) 0.0476 Uiso
C3_4 C -0.000 0.500 0.04913(26) 0.0519 Uiso
H1_4 H -0.000 0.500 0.13763 0.0622 Uiso
O6_3 O 0.12400(18) 0.62440(20) 0.14584(21) 0.0476 Uiso
C11_3 C 0.09141(30) 0.63801(29) 0.04768(38) 0.0519 Uiso
O12 O 0.12440(20) 0.62400(18) 0.35416(21) 0.0476 Uiso
C5_4 C -0.000 0.500 0.81174(21) 0.0519 Uiso
C8_4 C -0.000 0.500 0.45087(26) 0.0519 Uiso
C10_4 C -0.000 0.500 0.68826(21) 0.0519 Uiso
H4_4 H -0.000 0.500 0.36237 0.0622 Uiso
C12_3 C 0.04435(20) 0.56824(12) 0.98791(19) 0.0519 Uiso
C13_3 C 0.03865(21) 0.57185(11) 0.87017(14) 0.0519 Uiso
H6_3 H 0.06718 0.62138 0.84265 0.0622 Uiso
C14_3 C 0.13801(29) 0.59141(30) 0.45232(38) 0.0519 Uiso
C15_3 C 0.06824(12) 0.54435(20) 0.51209(19) 0.0519 Uiso
C16_3 C 0.07185(11) 0.53865(21) 0.62983(14) 0.0519 Uiso
H7_3 H 0.12138 0.56718 0.65735 0.0622 Uiso
O1_3 O 0.87600(18) 0.37560(20) 0.14584(21) 0.0476 Uiso
C1_3 C 0.90859(30) 0.36199(29) 0.04768(38) 0.0519 Uiso
C3_5 C 1.000 0.500 0.04913(26) 0.0519 Uiso
H1_5 H 1.000 0.500 0.13763 0.0622 Uiso
O11 O 0.87560(20) 0.37600(18) 0.35416(21) 0.0476 Uiso
C2_3 C 0.95565(20) 0.43176(12) 0.98791(19) 0.0519 Uiso
C4_3 C 0.96135(21) 0.42815(11) 0.87017(14) 0.0519 Uiso
C5_5 C 1.000 0.500 0.81174(21) 0.0519 Uiso
H2_3 H 0.93282 0.37862 0.84265 0.0622 Uiso
C6_3 C 0.86199(29) 0.40859(30) 0.45232(38) 0.0519 Uiso
C7_3 C 0.93176(12) 0.45565(20) 0.51209(19) 0.0519 Uiso
C8_5 C 1.000 0.500 0.45087(26) 0.0519 Uiso
C9_3 C 0.92815(11) 0.46135(21) 0.62983(14) 0.0519 Uiso
C10_5 C 1.000 0.500 0.68826(21) 0.0519 Uiso
H4_5 H 1.000 0.500 0.36237 0.0622 Uiso
H5_3 H 0.87862 0.43282 0.65735 0.0622 Uiso
C2_4 C 0.56824(12) 0.04435(20) 0.01209(19) 0.0519 Uiso
C4_4 C 0.57185(11) 0.03865(21) 0.12983(14) 0.0519 Uiso
C5_6 C 0.500 0.000 0.18826(21) 0.0519 Uiso
H2_4 H 0.62138 0.06718 0.15735 0.0622 Uiso
O4_3 O 0.62400(18) 0.12440(20) 0.64584(21) 0.0476 Uiso
C6_4 C 0.59141(30) 0.13801(29) 0.54768(38) 0.0519 Uiso
C7_4 C 0.54435(20) 0.06824(12) 0.48791(19) 0.0519 Uiso
C8_6 C 0.500 0.000 0.54913(26) 0.0519 Uiso
C9_4 C 0.53865(21) 0.07185(11) 0.37017(14) 0.0519 Uiso
C10_6 C 0.500 0.000 0.31174(21) 0.0519 Uiso
H4_6 H 0.500 0.000 0.63763 0.0622 Uiso
H5_4 H 0.56718 0.12138 0.34265 0.0622 Uiso
O1_4 O 0.62440(20) 0.12400(18) 0.85416(21) 0.0476 Uiso
C1_4 C 0.63801(29) 0.09141(30) 0.95232(38) 0.0519 Uiso
C3_6 C 0.500 0.000 0.95087(26) 0.0519 Uiso
H1_6 H 0.500 0.000 0.86237 0.0622 Uiso
C5_7 C 0.500 1.000 0.18826(21) 0.0519 Uiso
C8_7 C 0.500 1.000 0.54913(26) 0.0519 Uiso
C10_7 C 0.500 1.000 0.31174(21) 0.0519 Uiso
H4_7 H 0.500 1.000 0.63763 0.0622 Uiso
C12_4 C 0.43176(12) 0.95565(20) 0.01209(19) 0.0519 Uiso
C13_4 C 0.42815(11) 0.96135(21) 0.12983(14) 0.0519 Uiso
H6_4 H 0.37862 0.93282 0.15735 0.0622 Uiso
O8_3 O 0.37600(18) 0.87560(20) 0.64584(21) 0.0476 Uiso
C14_4 C 0.40859(30) 0.86199(29) 0.54768(38) 0.0519 Uiso
C15_4 C 0.45565(20) 0.93176(12) 0.48791(19) 0.0519 Uiso
C16_4 C 0.46135(21) 0.92815(11) 0.37017(14) 0.0519 Uiso
H7_4 H 0.43282 0.87862 0.34265 0.0622 Uiso
C3_7 C 0.500 1.000 0.95087(26) 0.0519 Uiso
H1_7 H 0.500 1.000 0.86237 0.0622 Uiso
O6_4 O 0.37560(20) 0.87600(18) 0.85416(21) 0.0476 Uiso
C11_4 C 0.36199(29) 0.90859(30) 0.95232(38) 0.0519 Uiso
H3_3 H 0.250 0.80864 0.375 0.0715 Uiso
H8_3 H 0.19136 0.750 0.625 0.0715 Uiso
H3_4 H 0.250 0.69136 0.875 0.0715 Uiso
H3_5 H 0.30864 0.750 0.125 0.0715 Uiso
C3_8 C -0.000 -0.000 0.20087(26) 0.0519 Uiso
C5_8 C -0.000 -0.000 0.43826(21) 0.0519 Uiso
H1_8 H -0.000 0.000 0.11237 0.0622 Uiso
C8_8 C 0.000 0.000 0.79913(26) 0.0519 Uiso
C10_8 C -0.000 -0.000 0.56174(21) 0.0519 Uiso
H4_8 H -0.000 -0.000 0.88763 0.0622 Uiso
C3_9 C 1.000 1.000 0.20087(26) 0.0519 Uiso
C5_9 C 1.000 1.000 0.43826(21) 0.0519 Uiso
H1_9 H 1.000 1.000 0.11237 0.0622 Uiso
C8_9 C 1.000 1.000 0.79913(26) 0.0519 Uiso
C10_9 C 1.000 1.000 0.56174(21) 0.0519 Uiso
H4_9 H 1.000 1.000 0.88763 0.0622 Uiso
loop_
_geom_bond_atom_site_label_1
_geom_bond_atom_site_label_2
_geom_bond_site_symmetry_1
_geom_bond_site_symmetry_2
O4 C6 1_555 1_555
O5 C6 1_555 1_555
C6 C7 1_555 1_555
C7 C8 1_555 1_555
C8 H4 1_555 1_555
C9 C7 1_555 1_555
H5 C9 1_555 1_555
O8 C14 1_555 1_555
O9 C14 1_555 1_555
C14 C15 1_555 1_555
C15 C8 1_555 1_555
C16 C10 1_555 1_555
H7 C16 1_555 1_555
Al4 O5 1_555 1_555
Al5 O4 1_555 1_555
Al7 O8 1_555 1_555
Al9 O9 1_555 1_555
C9 C10 1_555 1_555
C15 C16 1_555 1_555
O1 C1 1_555 1_555
O2 C1 1_555 1_555
C1 C2 1_555 1_555
C2 C3 1_555 1_555
C3 H1 1_555 1_555
C4 C2 1_555 1_555
C5 C4 1_555 1_555
H2 C4 1_555 1_555
Al5 O1 1_555 1_555
O3 Al5 1_555 1_555
H3 O3 1_555 1_555
O6 C11 1_555 1_555
O7 C11 1_555 1_555
C11 C12 1_555 1_555
C12 C3 1_555 1_555
C13 C5 1_555 1_555
H6 C13 1_555 1_555
Al7 O6 1_555 1_555
O10 Al5 1_555 1_555
H8 O10 1_555 1_555
O13 Al5 1_555 1_555
O14 Al5 1_555 1_555
O15 Al7 1_555 1_555
O16 Al7 1_555 1_555
Al4 O3 1_555 1_555
Al6 O2 1_555 1_555
Al8 O7 1_555 1_555
O17 Al7 1_555 1_555
O18 Al7 1_555 1_555
C12 C13 1_555 1_555
O10 Al6 1_555 1_555
Al8 O18 1_555 1_555
C3_2 H1_2 1_555 1_555
C8_2 H4_2 1_555 1_555
C10_2 C5_2 1_555 1_555
O6_2 C11_2 1_555 1_555
O7_2 C11_2 1_555 1_555
C11_2 C12_2 1_555 1_555
C12_2 C3_2 1_555 1_555
C13_2 C5_2 1_555 1_555
H6_2 C13_2 1_555 1_555
O8_2 C14_2 1_555 1_555
O9_2 C14_2 1_555 1_555
C14_2 C15_2 1_555 1_555
C15_2 C8_2 1_555 1_555
C16_2 C10_2 1_555 1_555
H7_2 C16_2 1_555 1_555
Al7_2 O6_2 1_555 1_555
O16_2 Al7_2 1_555 1_555
Al7_3 O8_2 1_555 1_555
Al9 O7_2 1_555 1_555
Al8 O9_2 1_555 1_555
O18_2 Al7_2 1_555 1_555
C12_2 C13_2 1_555 1_555
C15_2 C16_2 1_555 1_555
Al9 O18_2 1_555 1_555
O15_2 Al7_3 1_555 1_555
O17_2 Al7_3 1_555 1_555
O1_2 C1_2 1_555 1_555
O2_2 C1_2 1_555 1_555
C1_2 C2_2 1_555 1_555
C2_2 C3_3 1_555 1_555
C3_3 H1_3 1_555 1_555
C4_2 C2_2 1_555 1_555
C5_3 C4_2 1_555 1_555
H2_2 C4_2 1_555 1_555
Al5_2 O1_2 1_555 1_555
O4_2 C6_2 1_555 1_555
O5_2 C6_2 1_555 1_555
C6_2 C7_2 1_555 1_555
C7_2 C8_3 1_555 1_555
C8_3 H4_3 1_555 1_555
C9_2 C7_2 1_555 1_555
C10_3 C5_3 1_555 1_555
H5_2 C9_2 1_555 1_555
O10_2 Al5_2 1_555 1_555
H8_2 O10_2 1_555 1_555
O13_2 Al5_2 1_555 1_555
Al6 O5_2 1_555 1_555
Al5_3 O4_2 1_555 1_555
Al4 O2_2 1_555 1_555
C9_2 C10_3 1_555 1_555
O10_2 Al4 1_555 1_555
O3_2 Al5_3 1_555 1_555
H3_2 O3_2 1_555 1_555
O14_2 Al5_3 1_555 1_555
Al6 O3_2 1_555 1_555
C3_4 H1_4 1_555 1_555
O6_3 C11_3 1_555 1_555
Al9 O6_3 1_555 1_555
O12 Al9 1_555 1_555
O17 Al9 1_555 1_555
C8_4 H4_4 1_555 1_555
C10_4 C5_4 1_555 1_555
C13_3 C5_4 1_555 1_555
H6_3 C13_3 1_555 1_555
O12 C14_3 1_555 1_555
O16 C14_3 1_555 1_555
C14_3 C15_3 1_555 1_555
C15_3 C8_4 1_555 1_555
C16_3 C10_4 1_555 1_555
H7_3 C16_3 1_555 1_555
C12_3 C13_3 1_555 1_555
C15_3 C16_3 1_555 1_555
O1_3 C1_3 1_555 1_555
C3_5 H1_5 1_555 1_555
Al4 O1_3 1_555 1_555
O11 Al4 1_555 1_555
C4_3 C2_3 1_555 1_555
C5_5 C4_3 1_555 1_555
H2_3 C4_3 1_555 1_555
O11 C6_3 1_555 1_555
O13 C6_3 1_555 1_555
C6_3 C7_3 1_555 1_555
C7_3 C8_5 1_555 1_555
C8_5 H4_5 1_555 1_555
C9_3 C7_3 1_555 1_555
C10_5 C5_5 1_555 1_555
H5_3 C9_3 1_555 1_555
C9_3 C10_5 1_555 1_555
C4_4 C2_4 1_555 1_555
C5_6 C4_4 1_555 1_555
H2_4 C4_4 1_555 1_555
O4_3 C6_4 1_555 1_555
O14 C6_4 1_555 1_555
C6_4 C7_4 1_555 1_555
C7_4 C8_6 1_555 1_555
C8_6 H4_6 1_555 1_555
C9_4 C7_4 1_555 1_555
C10_6 C5_6 1_555 1_555
H5_4 C9_4 1_555 1_555
Al6 O4_3 1_555 1_555
C9_4 C10_6 1_555 1_555
O1_4 C1_4 1_555 1_555
C3_6 H1_6 1_555 1_555
Al6 O1_4 1_555 1_555
C8_7 H4_7 1_555 1_555
C10_7 C5_7 1_555 1_555
C13_4 C5_7 1_555 1_555
H6_4 C13_4 1_555 1_555
O8_3 C14_4 1_555 1_555
O15 C14_4 1_555 1_555
C14_4 C15_4 1_555 1_555
C15_4 C8_7 1_555 1_555
C16_4 C10_7 1_555 1_555
H7_4 C16_4 1_555 1_555
Al8 O8_3 1_555 1_555
C12_4 C13_4 1_555 1_555
C15_4 C16_4 1_555 1_555
C3_7 H1_7 1_555 1_555
O6_4 C11_4 1_555 1_555
Al8 O6_4 1_555 1_555
O17_2 Al8 1_555 1_555
H3_3 O17 1_555 1_555
H8_3 O18 1_555 1_555
H3_4 O17_2 1_555 1_555
H3_5 O18_2 1_555 1_555
C3_8 H1_8 1_555 1_555
C8_8 H4_8 1_555 1_555
C10_8 C5_8 1_555 1_555
C3_9 H1_9 1_555 1_555
C8_9 H4_9 1_555 1_555
C10_9 C5_9 1_555 1_555

#END
