
###############################################################################
#
# This file contains modified crystal structure data generated from the
# MOF subset of the Cambridge Structural Database (CSD) v543 
# hosted by the Cambridge Crystallographic Data Centre (CCDC).
#
# This work is licensed under the Creative Commons
# Attribution-NonCommercial-ShareAlike 4.0 International License.
# To view a copy of this license, visit
# http://creativecommons.org/licenses/by-nc-sa/4.0/
# or send a letter to
# Creative Commons, PO Box 1866, Mountain View, CA 94042, USA.
#
# CIF created using the CSD Python API on 29 September 2022
# The structure has been converted into the P1 space group
# The structure has a 3D framework
# The original CSD entry YEZWOS is in the triclinic crystal system
# The framework has been calculated to contain at least 10.0% void space
# The void calculation uses a probe of radius 1.32A, grid spacing 0.4
#
###############################################################################

data_YEZWOS
_chemical_formula_moiety         '(C88 H64 Cd3 I4 N8 O16)n'
_symmetry_cell_setting           triclinic
_symmetry_space_group_name_H-M   'P 1'
_symmetry_Int_Tables_number      1
_space_group_name_Hall           'P 1'
loop_
_symmetry_equiv_pos_site_id
_symmetry_equiv_pos_as_xyz
1 x,y,z
_cell_length_a                   9.1985(5)
_cell_length_b                   18.3882(8)
_cell_length_c                   18.6209(8)
_cell_angle_alpha                73.643(4)
_cell_angle_beta                 75.844(4)
_cell_angle_gamma                79.276(4)
_cell_volume                     2907.02
loop_
_atom_site_label
_atom_site_type_symbol
_atom_site_fract_x
_atom_site_fract_y
_atom_site_fract_z
_atom_site_U_iso_or_equiv
_atom_site_thermal_displace_type
O9 O 0.1829(6) 0.1349(3) 0.0498(3) 0.0889 Uani
C47 C 0.0380(7) 0.0670(3) 0.0070(4) 0.0696 Uani
C48 C 0.0806(7) 0.1407(3) 0.0132(4) 0.0704 Uani
Cd6 Cd 0.16670(4) 0.26533(2) 0.03342(2) 0.0506 Uani
C1 C 0.9599(9) 0.0236(4) 0.5664(4) 0.0820 Uani
H1 H 0.931487 0.040389 0.612282 0.0990 Uiso
N5 N 0.9331(6) 0.1269(3) 0.3137(3) 0.0664 Uani
N6 N 0.3590(5) 0.2377(3) 0.1028(3) 0.0583 Uani
C54 C 0.9888(9) 0.0762(4) 0.4969(4) 0.0853 Uani
H38 H 0.981370 0.128817 0.495451 0.1020 Uiso
C57 C 0.9465(8) 0.1014(4) 0.2522(4) 0.0744 Uani
C58 C 0.8064(7) 0.1705(4) 0.3389(3) 0.0680 Uani
H42 H 0.797838 0.187303 0.383723 0.0810 Uiso
C59 C 0.8336(8) 0.1185(4) 0.2116(4) 0.0747 Uani
H43 H 0.844775 0.099278 0.167991 0.0900 Uiso
C60 C 0.6891(7) 0.1911(4) 0.3001(3) 0.0639 Uani
H44 H 0.600834 0.222761 0.317214 0.0760 Uiso
C61 C 0.7020(7) 0.1645(3) 0.2353(3) 0.0607 Uani
C62 C 0.5828(6) 0.1899(3) 0.1887(3) 0.0602 Uani
C63 C 0.6169(7) 0.1991(4) 0.1109(4) 0.0712 Uani
H45 H 0.718439 0.188704 0.085339 0.0860 Uiso
C64 C 0.4334(7) 0.2078(4) 0.2235(3) 0.0680 Uani
H46 H 0.405879 0.204520 0.276862 0.0810 Uiso
C65 C 0.5035(7) 0.2234(4) 0.0702(4) 0.0708 Uani
H47 H 0.529384 0.230233 0.016319 0.0850 Uiso
C66 C 0.3246(7) 0.2308(4) 0.1779(3) 0.0680 Uani
H48 H 0.221898 0.241972 0.201453 0.0820 Uiso
O10 O 0.0158(6) 0.2021(2) 0.9848(3) 0.0844 Uani
O11 O 0.6997(6) 0.8200(2) 0.5924(3) 0.0779 Uani
O12 O 0.6323(8) 0.8009(3) 0.4970(3) 0.1116 Uani
C49 C 0.6387(7) 0.8435(3) 0.5375(4) 0.0642 Uani
C50 C 0.5649(7) 0.9249(3) 0.5175(3) 0.0623 Uani
C51 C 0.5647(10) 0.9716(4) 0.5631(5) 0.0921 Uani
H35 H 0.608047 0.952372 0.607237 0.1110 Uiso
C52 C 0.4990(11) 0.9527(4) 0.4553(5) 0.0986 Uani
H36 H 0.496805 0.919858 0.424375 0.1180 Uiso
Cd7 Cd 0.77630(5) 0.69754(2) 0.56790(2) 0.0607 Uani
N7 N 0.8502(7) 0.6641(3) 0.4516(3) 0.0753 Uani
C67 C 0.8019(12) 0.7044(5) 0.3888(4) 0.1144 Uani
H49 H 0.732798 0.749473 0.390893 0.1370 Uiso
C68 C 0.9410(11) 0.6028(4) 0.4476(4) 0.1048 Uani
H50 H 0.973673 0.572835 0.492747 0.1250 Uiso
C69 C 0.8495(13) 0.6828(5) 0.3188(5) 0.1221 Uani
H51 H 0.812810 0.712697 0.274731 0.1460 Uiso
C70 C 0.9944(10) 0.5777(4) 0.3813(4) 0.0965 Uani
C71 C 0.9503(8) 0.6176(3) 0.3158(4) 0.0709 Uani
O13 O 0.3576(5) 0.2926(2) 0.9186(3) 0.0759 Uani
O14 O 0.1856(5) 0.3843(2) 0.9481(2) 0.0661 Uani
O15 O 0.7315(6) 0.5660(2) 0.6205(3) 0.0912 Uani
O16 O 0.5732(6) 0.6562(2) 0.6613(3) 0.0961 Uani
C81 C 0.3030(6) 0.3611(3) 0.9059(3) 0.0553 Uani
C82 C 0.3797(6) 0.4191(3) 0.8406(3) 0.0531 Uani
C83 C 0.5125(9) 0.3978(3) 0.7933(5) 0.0963 Uani
H61 H 0.553665 0.345527 0.800886 0.1150 Uiso
C84 C 0.3234(7) 0.4949(3) 0.8281(4) 0.0689 Uani
H62 H 0.231535 0.510471 0.859566 0.0830 Uiso
C85 C 0.5853(9) 0.4520(4) 0.7353(5) 0.0984 Uani
H63 H 0.674459 0.436412 0.702042 0.1180 Uiso
C86 C 0.3981(7) 0.5493(3) 0.7703(4) 0.0697 Uani
H64 H 0.356901 0.601661 0.762141 0.0830 Uiso
C87 C 0.5310(6) 0.5278(3) 0.7250(3) 0.0581 Uani
C88 C 0.6168(7) 0.5872(3) 0.6651(3) 0.0660 Uani
C16 C 0.0767(9) 0.9306(4) 0.0289(6) 0.0953 Uani
H14 H 0.131273 0.882844 0.048686 0.1140 Uiso
C45 C 0.1137(9) 0.9971(4) 0.0367(5) 0.0942 Uani
H33 H 0.192077 0.994556 0.062778 0.1130 Uiso
C3 C 0.9721(7) 0.9463(4) 0.5697(4) 0.0685 Uani
C4 C 0.9372(8) 0.8889(4) 0.6458(4) 0.0807 Uani
H3 H 0.844428 0.909043 0.677907 0.0970 Uiso
H4 H 0.918845 0.840778 0.637515 0.0970 Uiso
H5 H 0.963268 0.929486 0.764084 0.0890 Uiso
I1 I 0.06128(4) 0.67976(2) 0.86058(2) 0.0661 Uani
C15 C 0.8863(9) 0.0029(4) 0.9633(5) 0.0942 Uani
H13 H 0.807923 0.005444 0.937222 0.1130 Uiso
C46 C 0.9233(9) 0.0694(4) 0.9711(6) 0.0953 Uani
H34 H 0.868727 0.117156 0.951314 0.1140 Uiso
C55 C 0.0279(7) 0.0537(4) 0.4303(4) 0.0685 Uani
C56 C 0.0628(8) 0.1111(4) 0.3542(4) 0.0807 Uani
H39 H 0.155572 0.090957 0.322093 0.0970 Uiso
H40 H 0.081155 0.159222 0.362485 0.0970 Uiso
H41 H 0.036732 0.070514 0.235916 0.0890 Uiso
Cd2 Cd 0.22370(5) 0.30246(2) 0.43210(2) 0.0607 Uani
O2 O 0.9842(6) 0.7979(2) 0.0152(3) 0.0844 Uani
O3 O 0.6424(5) 0.7074(2) 0.0814(3) 0.0759 Uani
O4 O 0.8144(5) 0.6157(2) 0.0519(2) 0.0661 Uani
O5 O 0.2685(6) 0.4340(2) 0.3795(3) 0.0912 Uani
O6 O 0.4268(6) 0.3438(2) 0.3387(3) 0.0961 Uani
O7 O 0.3003(6) 0.1800(2) 0.4076(3) 0.0779 Uani
O8 O 0.3677(8) 0.1991(3) 0.5030(3) 0.1116 Uani
N3 N 0.1498(7) 0.3359(3) 0.5484(3) 0.0753 Uani
C19 C 0.6970(6) 0.6389(3) 0.0941(3) 0.0553 Uani
C20 C 0.6203(6) 0.5809(3) 0.1594(3) 0.0531 Uani
C21 C 0.4875(9) 0.6022(3) 0.2067(5) 0.0963 Uani
H15 H 0.446335 0.654473 0.199114 0.1150 Uiso
C22 C 0.6766(7) 0.5051(3) 0.1719(4) 0.0689 Uani
H16 H 0.768465 0.489529 0.140434 0.0830 Uiso
C23 C 0.4147(9) 0.5480(4) 0.2647(5) 0.0984 Uani
H17 H 0.325541 0.563588 0.297958 0.1180 Uiso
C24 C 0.6019(7) 0.4507(3) 0.2297(4) 0.0697 Uani
H18 H 0.643099 0.398339 0.237859 0.0830 Uiso
C25 C 0.4690(6) 0.4722(3) 0.2750(3) 0.0581 Uani
C26 C 0.3832(7) 0.4128(3) 0.3349(3) 0.0660 Uani
C27 C 0.3613(7) 0.1565(3) 0.4625(4) 0.0642 Uani
C28 C 0.4351(7) 0.0751(3) 0.4825(3) 0.0623 Uani
C29 C 0.4353(10) 0.0284(4) 0.4369(5) 0.0921 Uani
H19 H 0.391953 0.047628 0.392763 0.1110 Uiso
C30 C 0.5010(11) 0.0473(4) 0.5447(5) 0.0986 Uani
H20 H 0.503195 0.080142 0.575625 0.1180 Uiso
C31 C 0.1981(12) 0.2956(5) 0.6112(4) 0.1144 Uani
H21 H 0.267202 0.250527 0.609107 0.1370 Uiso
C32 C 0.0590(11) 0.3972(4) 0.5524(4) 0.1048 Uani
H22 H 0.026327 0.427165 0.507253 0.1250 Uiso
C33 C 0.1505(13) 0.3172(5) 0.6812(5) 0.1221 Uani
H23 H 0.187190 0.287303 0.725269 0.1460 Uiso
C34 C 0.0056(10) 0.4223(4) 0.6187(4) 0.0965 Uani
C35 C 0.0497(8) 0.3824(3) 0.6842(4) 0.0709 Uani
Cd1 Cd 0.83330(4) 0.73467(2) 0.96658(2) 0.0506 Uani
O1 O 0.8171(6) 0.8651(3) 0.9502(3) 0.0889 Uani
N1 N 0.0669(6) 0.8731(3) 0.6863(3) 0.0664 Uani
N2 N 0.6410(5) 0.7623(3) 0.8972(3) 0.0583 Uani
C2 C 0.0112(9) 0.9238(4) 0.5031(4) 0.0853 Uani
H2 H 0.018630 0.871183 0.504549 0.1020 Uiso
C5 C 0.0535(8) 0.8986(4) 0.7478(4) 0.0744 Uani
C6 C 0.1936(7) 0.8295(4) 0.6611(3) 0.0680 Uani
H6 H 0.202162 0.812697 0.616277 0.0810 Uiso
C7 C 0.1664(8) 0.8815(4) 0.7884(4) 0.0747 Uani
H7 H 0.155225 0.900722 0.832009 0.0900 Uiso
C8 C 0.3109(7) 0.8089(4) 0.6999(3) 0.0639 Uani
H8 H 0.399166 0.777239 0.682786 0.0760 Uiso
C9 C 0.2980(7) 0.8355(3) 0.7647(3) 0.0607 Uani
C10 C 0.4172(6) 0.8101(3) 0.8113(3) 0.0602 Uani
C11 C 0.3831(7) 0.8009(4) 0.8891(4) 0.0712 Uani
H9 H 0.281561 0.811296 0.914661 0.0860 Uiso
C12 C 0.5666(7) 0.7922(4) 0.7765(3) 0.0680 Uani
H10 H 0.594121 0.795480 0.723138 0.0810 Uiso
C13 C 0.4965(7) 0.7766(4) 0.9298(4) 0.0708 Uani
H11 H 0.470616 0.769767 0.983681 0.0850 Uiso
C14 C 0.6754(7) 0.7692(4) 0.8221(3) 0.0680 Uani
H12 H 0.778102 0.758028 0.798547 0.0820 Uiso
C17 C 0.9620(7) 0.9330(3) 0.9930(4) 0.0696 Uani
C18 C 0.9194(7) 0.8593(3) 0.9868(4) 0.0704 Uani
C53 C 0.0401(9) 0.9764(4) 0.4336(4) 0.0820 Uani
H37 H 0.068513 0.959611 0.387718 0.0990 Uiso
H30 H 0.867950 0.445366 0.002216 0.0740 Uiso
C44 C 0.5834(7) 0.4338(4) 0.0308(4) 0.0754 Uani
H32 H 0.639699 0.387876 0.053359 0.0900 Uiso
N8 N 0.1140(5) 0.5436(3) 0.1116(3) 0.0567 Uani
H52 H 0.062726 0.532029 0.382019 0.1160 Uiso
C72 C 0.0065(8) 0.5933(3) 0.2431(3) 0.0678 Uani
C73 C 0.0386(8) 0.6442(3) 0.1727(4) 0.0694 Uani
H53 H 0.023706 0.697506 0.169041 0.0830 Uiso
C74 C 0.0329(9) 0.5166(4) 0.2452(4) 0.0797 Uani
H54 H 0.015280 0.479853 0.292892 0.0960 Uiso
C75 C 0.0912(7) 0.6182(3) 0.1088(3) 0.0648 Uani
H55 H 0.112529 0.653946 0.060706 0.0780 Uiso
C76 C 0.0846(8) 0.4931(3) 0.1790(4) 0.0726 Uani
H56 H 0.099749 0.440067 0.180954 0.0870 Uiso
C77 C 0.1726(6) 0.5172(3) 0.0402(3) 0.0620 Uani
H57 H 0.136855 0.467710 0.046907 0.0740 Uiso
C78 C 0.3420(6) 0.5080(3) 0.0198(3) 0.0537 Uani
C79 C 0.4264(7) 0.4417(3) 0.0491(4) 0.0726 Uani
H59 H 0.376807 0.400133 0.082665 0.0870 Uiso
I4 I 0.05466(8) 0.67613(3) 0.60925(5) 0.1145 Uani
I2 I 0.94534(8) 0.32387(3) 0.39075(5) 0.1145 Uani
N4 N 0.8860(5) 0.4564(3) 0.8884(3) 0.0567 Uani
H24 H 0.937274 0.467971 0.617981 0.1160 Uiso
C36 C 0.9935(8) 0.4067(3) 0.7569(3) 0.0678 Uani
C37 C 0.9614(8) 0.3558(3) 0.8273(4) 0.0694 Uani
H25 H 0.976294 0.302494 0.830959 0.0830 Uiso
C38 C 0.9671(9) 0.4834(4) 0.7548(4) 0.0797 Uani
H26 H 0.984720 0.520147 0.707108 0.0960 Uiso
C39 C 0.9088(7) 0.3818(3) 0.8912(3) 0.0648 Uani
H27 H 0.887471 0.346054 0.939294 0.0780 Uiso
C40 C 0.9154(8) 0.5069(3) 0.8210(4) 0.0726 Uani
H28 H 0.900251 0.559933 0.819046 0.0870 Uiso
C41 C 0.8274(6) 0.4828(3) 0.9598(3) 0.0620 Uani
H29 H 0.863145 0.532290 0.953093 0.0740 Uiso
C42 C 0.6580(6) 0.4920(3) 0.9802(3) 0.0537 Uani
C43 C 0.5736(7) 0.5583(3) 0.9509(4) 0.0726 Uani
H31 H 0.623193 0.599867 0.917335 0.0870 Uiso
H58 H 0.132050 0.554634 0.997784 0.0740 Uiso
C80 C 0.4166(7) 0.5662(4) 0.9692(4) 0.0754 Uani
H60 H 0.360301 0.612124 0.946641 0.0900 Uiso
I3 I 0.93872(4) 0.32024(2) 0.13942(2) 0.0661 Uani
loop_
_atom_site_aniso_label
_atom_site_aniso_U_11
_atom_site_aniso_U_22
_atom_site_aniso_U_33
_atom_site_aniso_U_23
_atom_site_aniso_U_13
_atom_site_aniso_U_12
O9 0.092 0.058 0.137 -0.036 -0.045 -0.012
C47 0.069 0.05 0.1 -0.029 -0.019 -0.014
C48 0.069 0.059 0.093 -0.037 -0.007 -0.017
Cd6 0.05761 0.03904 0.0572 -0.0118 -0.01422 -0.00785
C1 0.111 0.074 0.064 -0.017 -0.026 -0.008
N5 0.075 0.059 0.06 0.008 -0.025 -0.016
N6 0.058 0.059 0.06 -0.016 -0.015 -0.0067
C54 0.118 0.054 0.084 -0.003 -0.037 -0.011
C57 0.076 0.069 0.076 -0.015 -0.03 0.011
C58 0.072 0.076 0.055 -0.005 -0.02 -0.015
C59 0.08 0.075 0.074 -0.022 -0.031 0.004
C60 0.065 0.071 0.053 -0.009 -0.014 -0.009
C61 0.066 0.053 0.061 -0.004 -0.019 -0.01
C62 0.061 0.056 0.063 -0.01 -0.018 -0.006
C63 0.06 0.093 0.06 -0.024 -0.013 0.001
C64 0.068 0.081 0.051 -0.01 -0.016 -0.004
C65 0.072 0.085 0.059 -0.02 -0.019 -0.008
C66 0.06 0.086 0.053 -0.009 -0.011 -0.01
O10 0.105 0.048 0.114 -0.024 -0.039 -0.015
O11 0.091 0.048 0.091 -0.009 -0.033 0.007
O12 0.176 0.062 0.097 -0.029 -0.054 0.034
C49 0.078 0.043 0.064 -0.011 -0.009 0
C50 0.076 0.041 0.064 -0.011 -0.014 0.004
C51 0.138 0.053 0.097 -0.025 -0.063 0.021
C52 0.152 0.056 0.105 -0.037 -0.067 0.025
Cd7 0.0772 0.03862 0.0554 -0.00899 -0.0013 -0.00125
N7 0.102 0.06 0.052 -0.018 -0.005 0.011
C67 0.17 0.078 0.07 -0.023 -0.018 0.045
C68 0.143 0.076 0.062 -0.009 -0.009 0.04
C69 0.197 0.08 0.075 -0.026 -0.044 0.05
C70 0.133 0.071 0.063 -0.021 -0.011 0.037
C71 0.089 0.055 0.056 -0.011 -0.008 0.009
O13 0.084 0.052 0.074 -0.0011 -0.001 -0.0079
O14 0.069 0.057 0.061 -0.0067 0.0015 -0.0124
O15 0.092 0.056 0.091 -0.007 0.03 -0.006
O16 0.088 0.046 0.119 -0.012 0.033 -0.007
C81 0.062 0.052 0.054 -0.012 -0.012 -0.014
C82 0.055 0.049 0.053 -0.012 -0.007 -0.007
C83 0.092 0.043 0.112 -0.003 0.03 0.002
C84 0.067 0.055 0.07 -0.016 0.009 -0.001
C85 0.091 0.056 0.104 -0.007 0.036 0.005
C86 0.069 0.046 0.075 -0.011 0.009 0.002
C87 0.062 0.047 0.056 -0.009 0 -0.006
C88 0.066 0.058 0.061 -0.009 0.001 -0.003
C16 0.094 0.05 0.159 -0.034 -0.057 0.003
C45 0.102 0.058 0.149 -0.036 -0.063 -0.009
C3 0.071 0.068 0.065 0.001 -0.03 -0.011
C4 0.075 0.083 0.081 0.01 -0.035 -0.024
I1 0.0648 0.05539 0.0673 -0.01184 -0.00138 -0.00218
C15 0.102 0.058 0.149 -0.036 -0.063 -0.009
C46 0.094 0.05 0.159 -0.034 -0.057 0.003
C55 0.071 0.068 0.065 0.001 -0.03 -0.011
C56 0.075 0.083 0.081 0.01 -0.035 -0.024
Cd2 0.0772 0.03862 0.0554 -0.00899 -0.0013 -0.00125
O2 0.105 0.048 0.114 -0.024 -0.039 -0.015
O3 0.084 0.052 0.074 -0.0011 -0.001 -0.0079
O4 0.069 0.057 0.061 -0.0067 0.0015 -0.0124
O5 0.092 0.056 0.091 -0.007 0.03 -0.006
O6 0.088 0.046 0.119 -0.012 0.033 -0.007
O7 0.091 0.048 0.091 -0.009 -0.033 0.007
O8 0.176 0.062 0.097 -0.029 -0.054 0.034
N3 0.102 0.06 0.052 -0.018 -0.005 0.011
C19 0.062 0.052 0.054 -0.012 -0.012 -0.014
C20 0.055 0.049 0.053 -0.012 -0.007 -0.007
C21 0.092 0.043 0.112 -0.003 0.03 0.002
C22 0.067 0.055 0.07 -0.016 0.009 -0.001
C23 0.091 0.056 0.104 -0.007 0.036 0.005
C24 0.069 0.046 0.075 -0.011 0.009 0.002
C25 0.062 0.047 0.056 -0.009 0 -0.006
C26 0.066 0.058 0.061 -0.009 0.001 -0.003
C27 0.078 0.043 0.064 -0.011 -0.009 0
C28 0.076 0.041 0.064 -0.011 -0.014 0.004
C29 0.138 0.053 0.097 -0.025 -0.063 0.021
C30 0.152 0.056 0.105 -0.037 -0.067 0.025
C31 0.17 0.078 0.07 -0.023 -0.018 0.045
C32 0.143 0.076 0.062 -0.009 -0.009 0.04
C33 0.197 0.08 0.075 -0.026 -0.044 0.05
C34 0.133 0.071 0.063 -0.021 -0.011 0.037
C35 0.089 0.055 0.056 -0.011 -0.008 0.009
Cd1 0.05761 0.03904 0.0572 -0.0118 -0.01422 -0.00785
O1 0.092 0.058 0.137 -0.036 -0.045 -0.012
N1 0.075 0.059 0.06 0.008 -0.025 -0.016
N2 0.058 0.059 0.06 -0.016 -0.015 -0.0067
C2 0.118 0.054 0.084 -0.003 -0.037 -0.011
C5 0.076 0.069 0.076 -0.015 -0.03 0.011
C6 0.072 0.076 0.055 -0.005 -0.02 -0.015
C7 0.08 0.075 0.074 -0.022 -0.031 0.004
C8 0.065 0.071 0.053 -0.009 -0.014 -0.009
C9 0.066 0.053 0.061 -0.004 -0.019 -0.01
C10 0.061 0.056 0.063 -0.01 -0.018 -0.006
C11 0.06 0.093 0.06 -0.024 -0.013 0.001
C12 0.068 0.081 0.051 -0.01 -0.016 -0.004
C13 0.072 0.085 0.059 -0.02 -0.019 -0.008
C14 0.06 0.086 0.053 -0.009 -0.011 -0.01
C17 0.069 0.05 0.1 -0.029 -0.019 -0.014
C18 0.069 0.059 0.093 -0.037 -0.007 -0.017
C53 0.111 0.074 0.064 -0.017 -0.026 -0.008
C44 0.064 0.059 0.088 0.002 -0.018 0.002
N8 0.06 0.056 0.054 -0.013 -0.0158 -0.0022
C72 0.081 0.06 0.057 -0.017 -0.011 0.004
C73 0.093 0.046 0.065 -0.011 -0.019 0.001
C74 0.119 0.054 0.055 -0.008 -0.008 -0.005
C75 0.082 0.055 0.052 -0.009 -0.016 0.001
C76 0.094 0.053 0.066 -0.014 -0.012 -0.004
C77 0.065 0.069 0.06 -0.023 -0.021 -0.006
C78 0.061 0.055 0.049 -0.015 -0.017 -0.006
C79 0.072 0.052 0.081 0.004 -0.014 -0.01
I4 0.1177 0.0649 0.1684 -0.0093 -0.0698 -0.0059
I2 0.1177 0.0649 0.1684 -0.0093 -0.0698 -0.0059
N4 0.06 0.056 0.054 -0.013 -0.0158 -0.0022
C36 0.081 0.06 0.057 -0.017 -0.011 0.004
C37 0.093 0.046 0.065 -0.011 -0.019 0.001
C38 0.119 0.054 0.055 -0.008 -0.008 -0.005
C39 0.082 0.055 0.052 -0.009 -0.016 0.001
C40 0.094 0.053 0.066 -0.014 -0.012 -0.004
C41 0.065 0.069 0.06 -0.023 -0.021 -0.006
C42 0.061 0.055 0.049 -0.015 -0.017 -0.006
C43 0.072 0.052 0.081 0.004 -0.014 -0.01
C80 0.064 0.059 0.088 0.002 -0.018 0.002
I3 0.0648 0.05539 0.0673 -0.01184 -0.00138 -0.00218
loop_
_geom_bond_atom_site_label_1
_geom_bond_atom_site_label_2
_geom_bond_site_symmetry_1
_geom_bond_site_symmetry_2
O9 C48 1_555 1_555
C48 C47 1_555 1_555
Cd6 O9 1_555 1_555
C1 H1 1_555 1_555
N6 C65 1_555 1_555
C54 C1 1_555 1_555
H38 C54 1_555 1_555
C57 N5 1_555 1_555
C58 N5 1_555 1_555
H42 C58 1_555 1_555
C59 C57 1_555 1_555
H43 C59 1_555 1_555
C60 C58 1_555 1_555
H44 C60 1_555 1_555
C61 C59 1_555 1_555
C62 C61 1_555 1_555
C63 C62 1_555 1_555
H45 C63 1_555 1_555
C64 C62 1_555 1_555
H46 C64 1_555 1_555
C65 C63 1_555 1_555
H47 C65 1_555 1_555
C66 N6 1_555 1_555
H48 C66 1_555 1_555
Cd6 N6 1_555 1_555
C60 C61 1_555 1_555
C64 C66 1_555 1_555
O11 C49 1_555 1_555
O12 C49 1_555 1_555
C49 C50 1_555 1_555
C50 C51 1_555 1_555
H35 C51 1_555 1_555
H36 C52 1_555 1_555
Cd7 O11 1_555 1_555
O12 Cd7 1_555 1_555
C50 C52 1_555 1_555
N7 C67 1_555 1_555
C67 H49 1_555 1_555
C68 N7 1_555 1_555
H50 C68 1_555 1_555
C69 C67 1_555 1_555
H51 C69 1_555 1_555
C70 C68 1_555 1_555
C71 C69 1_555 1_555
Cd7 N7 1_555 1_555
O15 Cd7 1_555 1_555
O16 Cd7 1_555 1_555
C81 O13 1_555 1_555
C82 C81 1_555 1_555
C83 C82 1_555 1_555
H61 C83 1_555 1_555
C84 C82 1_555 1_555
H62 C84 1_555 1_555
C85 C83 1_555 1_555
H63 C85 1_555 1_555
C86 C84 1_555 1_555
H64 C86 1_555 1_555
C87 C85 1_555 1_555
C88 O15 1_555 1_555
C70 C71 1_555 1_555
O14 C81 1_555 1_555
O16 C88 1_555 1_555
C86 C87 1_555 1_555
C87 C88 1_555 1_555
C16 H14 1_555 1_555
C45 C16 1_555 1_555
H33 C45 1_555 1_555
C4 C3 1_555 1_555
H3 C4 1_555 1_555
H4 C4 1_555 1_555
C15 H13 1_555 1_555
C46 C15 1_555 1_555
H34 C46 1_555 1_555
C56 C55 1_555 1_555
H39 C56 1_555 1_555
H40 C56 1_555 1_555
O5 Cd2 1_555 1_555
O6 Cd2 1_555 1_555
O7 Cd2 1_555 1_555
O8 Cd2 1_555 1_555
N3 Cd2 1_555 1_555
C19 O3 1_555 1_555
C20 C19 1_555 1_555
C21 C20 1_555 1_555
H15 C21 1_555 1_555
C22 C20 1_555 1_555
H16 C22 1_555 1_555
C23 C21 1_555 1_555
H17 C23 1_555 1_555
C24 C22 1_555 1_555
H18 C24 1_555 1_555
C25 C23 1_555 1_555
C26 O5 1_555 1_555
C27 O7 1_555 1_555
C28 C27 1_555 1_555
C29 C28 1_555 1_555
H19 C29 1_555 1_555
C30 C28 1_555 1_555
H20 C30 1_555 1_555
C31 N3 1_555 1_555
H21 C31 1_555 1_555
C32 N3 1_555 1_555
H22 C32 1_555 1_555
C33 C31 1_555 1_555
H23 C33 1_555 1_555
C34 C32 1_555 1_555
C35 C33 1_555 1_555
O4 C19 1_555 1_555
O6 C26 1_555 1_555
O8 C27 1_555 1_555
C24 C25 1_555 1_555
C25 C26 1_555 1_555
C34 C35 1_555 1_555
O1 Cd1 1_555 1_555
N2 Cd1 1_555 1_555
C2 H2 1_555 1_555
C5 N1 1_555 1_555
C6 N1 1_555 1_555
H6 C6 1_555 1_555
C7 C5 1_555 1_555
H7 C7 1_555 1_555
C8 C6 1_555 1_555
H8 C8 1_555 1_555
C9 C7 1_555 1_555
C10 C9 1_555 1_555
C11 C10 1_555 1_555
H9 C11 1_555 1_555
C12 C10 1_555 1_555
H10 C12 1_555 1_555
C13 N2 1_555 1_555
H11 C13 1_555 1_555
C14 N2 1_555 1_555
H12 C14 1_555 1_555
C18 O1 1_555 1_555
C53 C2 1_555 1_555
H37 C53 1_555 1_555
C8 C9 1_555 1_555
C11 C13 1_555 1_555
C12 C14 1_555 1_555
C17 C18 1_555 1_555
H32 C44 1_555 1_555
N8 C75 1_555 1_555
C73 C72 1_555 1_555
H53 C73 1_555 1_555
C74 C72 1_555 1_555
H54 C74 1_555 1_555
C75 C73 1_555 1_555
H55 C75 1_555 1_555
C76 N8 1_555 1_555
H56 C76 1_555 1_555
C77 N8 1_555 1_555
H57 C77 1_555 1_555
C78 C77 1_555 1_555
C79 C44 1_555 1_555
H59 C79 1_555 1_555
C74 C76 1_555 1_555
C78 C79 1_555 1_555
N4 C39 1_555 1_555
C37 C36 1_555 1_555
H25 C37 1_555 1_555
C38 C36 1_555 1_555
H26 C38 1_555 1_555
C39 C37 1_555 1_555
H27 C39 1_555 1_555
C40 N4 1_555 1_555
H28 C40 1_555 1_555
C41 N4 1_555 1_555
H29 C41 1_555 1_555
C42 C41 1_555 1_555
C43 C42 1_555 1_555
H31 C43 1_555 1_555
C80 C43 1_555 1_555
H60 C80 1_555 1_555
C38 C40 1_555 1_555

#END
