
###############################################################################
#
# This file contains modified crystal structure data generated from the
# MOF subset of the Cambridge Structural Database (CSD) v543 
# hosted by the Cambridge Crystallographic Data Centre (CCDC).
#
# This work is licensed under the Creative Commons
# Attribution-NonCommercial-ShareAlike 4.0 International License.
# To view a copy of this license, visit
# http://creativecommons.org/licenses/by-nc-sa/4.0/
# or send a letter to
# Creative Commons, PO Box 1866, Mountain View, CA 94042, USA.
#
# CIF created using the CSD Python API on 29 September 2022
# The structure has been converted into the P1 space group
# The structure has a 3D framework
# The original CSD entry YICGOI is in the monoclinic crystal system
# The framework has been calculated to contain at least 10.0% void space
# The void calculation uses a probe of radius 1.32A, grid spacing 0.4
#
###############################################################################

data_YICGOI
_chemical_formula_moiety         '(C166 H120 Co4 N16 O20)n'
_symmetry_cell_setting           triclinic
_symmetry_space_group_name_H-M   'P 1'
_symmetry_Int_Tables_number      1
_space_group_name_Hall           'P 1'
loop_
_symmetry_equiv_pos_site_id
_symmetry_equiv_pos_as_xyz
1 x,y,z
_cell_length_a                   17.5542(10)
_cell_length_b                   9.9228(6)
_cell_length_c                   23.9223(14)
_cell_angle_alpha                90
_cell_angle_beta                 91.9200(10)
_cell_angle_gamma                90
_cell_volume                     4164.61
loop_
_atom_site_label
_atom_site_type_symbol
_atom_site_fract_x
_atom_site_fract_y
_atom_site_fract_z
C20 C 0.0837(2) 0.3288(3) 0.30826(16)
H13 H 0.0844 0.4074 0.3295
C21 C 0.01801(19) 0.2977(3) 0.27835(16)
C22 C 0.01401(15) 0.1835(3) 0.24487(11)
C23 C 0.08050(16) 0.1076(3) 0.24377(12)
H15 H 0.0821 0.0305 0.2218
C24 C 0.14438(16) 0.1466(3) 0.27544(12)
H16 H 0.1882 0.0945 0.2730
N2 N 0.14715(13) 0.2526(2) 0.30876(9)
Co3 Co 0.240509(18) 0.31217(3) 0.367682(13)
C1 C 0.37590(15) 0.4720(3) 0.41736(11)
C2 C 0.43999(15) 0.4849(3) 0.46044(11)
C3 C 0.44169(17) 0.4116(3) 0.50901(12)
H1 H 0.4026 0.3508 0.5154
C4 C 0.50000(17) 0.4260(3) 0.54878(13)
H2 H 0.4994 0.3763 0.5817
C5 C 0.12762(14) 0.4946(3) 0.42596(10)
C6 C 0.02941(16) 0.3793(3) 0.48253(11)
H3 H 0.0489 0.2973 0.4707
C7 C 0.06237(15) 0.4982(3) 0.46531(10)
C8 C 0.03251(16) 0.6191(3) 0.48277(12)
H4 H 0.0539 0.6998 0.4713
C9 C 0.33296(15) 0.2630(3) 0.26098(11)
H5 H 0.2912 0.3031 0.2427
C10 C 0.39591(16) 0.2343(3) 0.23001(12)
H6 H 0.3952 0.2534 0.1919
C11 C 0.46033(16) 0.1772(3) 0.25556(12)
C12 C 0.45456(18) 0.1480(4) 0.31120(14)
H7 H 0.4954 0.1073 0.3303
C13 C 0.38924(19) 0.1780(3) 0.33957(14)
H8 H 0.3877 0.1562 0.3773
C14 C 0.53053(15) 0.1461(3) 0.22513(12)
C15 C 0.52926(16) 0.1258(3) 0.16759(12)
H9 H 0.4838 0.1372 0.1471
C16 C 0.59396(16) 0.0891(3) 0.14042(12)
H10 H 0.5914 0.0737 0.1021
C17 C 0.66298(15) 0.0749(3) 0.16981(12)
C18 C 0.66561(16) 0.0964(3) 0.22712(13)
H11 H 0.7113 0.0864 0.2475
C19 C 0.60040(16) 0.1326(3) 0.25394(12)
H12 H 0.6031 0.1485 0.2923
H14 H 0.9757 0.3536 0.2805
C25 C 0.94306(15) 0.1461(3) 0.21404(11)
C26 C 0.88621(18) 0.2405(3) 0.20254(15)
H17 H 0.8947 0.3302 0.2121
C27 C 0.81788(18) 0.2046(3) 0.17740(16)
H18 H 0.7814 0.2705 0.1697
C28 C 0.80236(15) 0.0727(3) 0.16332(11)
C30 C 0.92859(18) 0.0154(3) 0.19698(15)
H26 H 0.7792 0.0221 0.0402
N1 N 0.32831(12) 0.2368(2) 0.31516(9)
N4 N 0.72936(13) 0.0366(3) 0.14108(11)
O1 O 0.37254(13) 0.5557(3) 0.37906(9)
O2 O 0.32932(11) 0.3767(2) 0.42377(8)
O3 O 0.16073(11) 0.38329(19) 0.42158(7)
O4 O 0.14232(11) 0.59893(18) 0.39891(8)
O5 O 0.24313(10) 0.50194(18) 0.32511(7)
H29 H 0.2108 0.5549 0.3391
H30 H 0.2875 0.5359 0.3290
C42 C 0.62410(15) 0.5280(3) 0.58264(11)
C43 C 0.56001(15) 0.5151(3) 0.53956(11)
C44 C 0.55831(17) 0.5884(3) 0.49099(12)
H31 H 0.5974 0.6492 0.4846
C45 C 0.50000(17) 0.5740(3) 0.45122(13)
H32 H 0.5006 0.6237 0.4183
O6 O 0.62746(13) 0.4443(3) 0.62094(9)
O7 O 0.67068(11) 0.6233(2) 0.57623(8)
Co6 Co 0.759491(18) 0.68783(3) 0.632318(13)
N12 N 0.23583(13) 0.1289(2) 0.41684(9)
C46 C 0.87238(14) 0.5054(3) 0.57404(10)
C47 C 0.97059(16) 0.6207(3) 0.51747(11)
H33 H 0.9511 0.7027 0.5293
C48 C 0.93763(15) 0.5018(3) 0.53469(10)
C49 C 0.96749(16) 0.3809(3) 0.51723(12)
H34 H 0.9461 0.3002 0.5287
O8 O 0.83927(11) 0.61671(19) 0.57842(7)
O9 O 0.85768(11) 0.40107(18) 0.60109(8)
C50 C 0.66704(15) 0.7370(3) 0.73902(11)
H35 H 0.7088 0.6969 0.7573
C51 C 0.60409(16) 0.7657(3) 0.76999(12)
H36 H 0.6048 0.7466 0.8081
C52 C 0.53967(16) 0.8228(3) 0.74444(12)
C53 C 0.54544(18) 0.8520(4) 0.68880(14)
H37 H 0.5046 0.8927 0.6697
C54 C 0.61076(19) 0.8220(3) 0.66043(14)
H38 H 0.6123 0.8438 0.6227
C55 C 0.46947(15) 0.8539(3) 0.77487(12)
C56 C 0.47074(16) 0.8742(3) 0.83241(12)
H39 H 0.5162 0.8628 0.8529
C57 C 0.40604(16) 0.9109(3) 0.85958(12)
H40 H 0.4086 0.9263 0.8979
C58 C 0.33702(15) 0.9251(3) 0.83019(12)
C59 C 0.33439(16) 0.9036(3) 0.77288(13)
H41 H 0.2887 0.9136 0.7525
C60 C 0.39960(16) 0.8674(3) 0.74606(12)
H42 H 0.3969 0.8515 0.7077
H44 H 0.0243 0.6464 0.7195
C66 C 0.05694(15) 0.8539(3) 0.78596(11)
C67 C 0.11379(18) 0.7595(3) 0.79746(15)
H47 H 0.1053 0.6698 0.7879
C68 C 0.18212(18) 0.7954(3) 0.82260(16)
H48 H 0.2186 0.7295 0.8303
C69 C 0.19764(15) 0.9273(3) 0.83668(11)
C71 C 0.07141(18) 0.9846(3) 0.80302(15)
H56 H 0.2208 0.9779 0.9598
N5 N 0.67169(12) 0.7632(2) 0.68484(9)
N8 N 0.27064(13) 0.9634(3) 0.85892(11)
O10 O 0.75687(10) 0.49806(18) 0.67489(7)
H59 H 0.7892 0.4451 0.6609
H60 H 0.7125 0.4641 0.6710
N10 N 0.85285(13) 0.7474(2) 0.69124(9)
N11 N 0.76417(13) 0.8711(2) 0.58316(9)
C61 C 0.9163(2) 0.6712(3) 0.69174(16)
H43 H 0.9156 0.5926 0.6705
C62 C 0.98199(19) 0.7023(3) 0.72165(16)
C63 C 0.98599(15) 0.8165(3) 0.75513(11)
C64 C 0.91950(16) 0.8924(3) 0.75623(12)
H45 H 0.9179 0.9695 0.7782
C65 C 0.85562(16) 0.8534(3) 0.72456(12)
H46 H 0.8118 0.9055 0.7270
C72 C 0.2312(2) 0.1422(3) 0.47196(13)
H51 H 0.2314 0.2288 0.4869
C73 C 0.2262(2) 0.0356(3) 0.50798(13)
H52 H 0.2243 0.0513 0.5462
C76 C 0.2344(2) 0.0025(3) 0.39768(13)
C31 C 0.7688(2) 0.8578(3) 0.52804(13)
H21 H 0.7686 0.7712 0.5131
C32 C 0.7738(2) 0.9644(3) 0.49202(13)
H22 H 0.7757 0.9487 0.4538
C35 C 0.7656(2) 0.9975(3) 0.60232(13)
C29 C 0.85905(18) 0.9788(3) 0.17191(15)
H19 H 0.8508 0.8900 0.1609
H20 H 0.9663 0.9504 0.2024
C32_2 C 0.7262(2) 0.4644(3) 0.00798(13)
H22_2 H 0.7243 0.4487 0.0462
C36 C 0.72112(17) 0.7136(3) 0.02597(12)
C37 C 0.7545(2) 0.8342(3) 0.01309(13)
C38 C 0.75620(18) 0.9414(3) 0.05006(13)
C39 C 0.72376(15) 0.9283(3) 0.10157(12)
C40 C 0.6873(2) 0.8104(3) 0.11427(16)
H27 H 0.6632 0.8019 0.1481
C41 C 0.6862(2) 0.7045(4) 0.07697(16)
H28 H 0.6614 0.6251 0.0862
C31_2 C 0.7312(2) 0.3578(3) 0.97196(13)
H21_2 H 0.7314 0.2712 0.9869
C33 C 0.72394(17) 0.5953(3) 0.98805(12)
C34 C 0.7278(2) 0.6090(3) 0.93069(13)
H23 H 0.7260 0.6943 0.9146
C35_2 C 0.7344(2) 0.4975(3) 0.89768(13)
H24 H 0.7382 0.5106 0.8594
H25 H 0.7766 0.8441 0.9785
N3 N 0.73583(13) 0.3711(2) 0.91684(9)
Co7 Co 0.740509(18) 0.18783(3) 0.867682(13)
C55_2 C 0.03053(15) 0.3539(3) 0.72513(12)
C56_2 C 0.02926(16) 0.3742(3) 0.66759(12)
C57_2 C 0.09396(16) 0.4109(3) 0.64042(12)
H40_2 H 0.0914 0.4263 0.6021
C58_2 C 0.16298(15) 0.4251(3) 0.66981(12)
C59_2 C 0.16561(16) 0.4036(3) 0.72712(13)
H41_2 H 0.2113 0.4136 0.7475
C60_2 C 0.10040(16) 0.3674(3) 0.75394(12)
H42_2 H 0.1031 0.3515 0.7923
C61_2 C 0.5837(2) 0.1712(3) 0.80826(16)
H43_2 H 0.5844 0.0926 0.8295
C62_2 C 0.51801(19) 0.2023(3) 0.77835(16)
H44_2 H 0.4757 0.1464 0.7805
C63_2 C 0.51401(15) 0.3165(3) 0.74487(11)
C64_2 C 0.58050(16) 0.3924(3) 0.74377(12)
H45_2 H 0.5821 0.4695 0.7218
C65_2 C 0.64438(16) 0.3534(3) 0.77544(12)
H46_2 H 0.6882 0.4055 0.7730
C66_2 C 0.44306(15) 0.3539(3) 0.71404(11)
C67_2 C 0.38621(18) 0.2595(3) 0.70254(15)
H47_2 H 0.3947 0.1698 0.7121
C68_2 C 0.31788(18) 0.2954(3) 0.67740(16)
H48_2 H 0.2814 0.2295 0.6697
C69_2 C 0.30236(15) 0.4273(3) 0.66332(11)
C70 C 0.35905(18) 0.5212(3) 0.67191(15)
H49 H 0.3508 0.6100 0.6609
C71_2 C 0.42859(18) 0.4846(3) 0.69698(15)
H50 H 0.4663 0.5496 0.7024
C74 C 0.22394(17) 0.9047(3) 0.48805(12)
C75 C 0.2278(2) 0.8910(3) 0.43069(13)
H53 H 0.2260 0.8057 0.4146
H54 H 0.2382 0.9894 0.3594
C77 C 0.22112(17) 0.7864(3) 0.52597(12)
C78 C 0.2545(2) 0.6658(3) 0.51309(13)
H55 H 0.2766 0.6559 0.4785
C79 C 0.25620(18) 0.5586(3) 0.55006(13)
H56_2 H 0.2792 0.4779 0.5402
C80 C 0.22376(15) 0.5717(3) 0.60157(12)
C81 C 0.1873(2) 0.6896(3) 0.61427(16)
H57 H 0.1632 0.6981 0.6481
C82 C 0.1862(2) 0.7955(4) 0.57697(16)
H58 H 0.1614 0.8749 0.5862
N6 N 0.64715(13) 0.2474(2) 0.80876(9)
N8_2 N 0.22936(13) 0.4634(3) 0.64108(11)
C46_2 C 0.62762(14) 0.0054(3) 0.92596(10)
C47_2 C 0.52941(16) 0.1207(3) 0.98253(11)
H33_2 H 0.5489 0.2027 0.9707
C48_2 C 0.56237(15) 0.0018(3) 0.96531(10)
O8_2 O 0.66073(11) 0.11671(19) 0.92158(7)
C50_2 C 0.83296(15) 0.2370(3) 0.76098(11)
H35_2 H 0.7912 0.1969 0.7427
C51_2 C 0.89591(16) 0.2657(3) 0.73001(12)
H36_2 H 0.8952 0.2466 0.6919
C52_2 C 0.96033(16) 0.3228(3) 0.75556(12)
C53_2 C 0.95456(18) 0.3520(4) 0.81120(14)
H37_2 H 0.9954 0.3927 0.8303
C54_2 C 0.88924(19) 0.3220(3) 0.83957(14)
H38_2 H 0.8877 0.3438 0.8773
H39_2 H 0.9838 0.3628 0.6471
N5_2 N 0.82831(12) 0.2632(2) 0.81516(9)
O11 O 0.82932(11) 0.1233(2) 0.92377(8)
C42_2 C 0.87590(15) 0.0280(3) 0.91736(11)
C43_2 C 0.93999(15) 0.0151(3) 0.96044(11)
C72_2 C 0.2688(2) 0.6422(3) 0.02804(13)
H51_2 H 0.2686 0.7288 0.0131
C74_2 C 0.27606(17) 0.4047(3) 0.01195(12)
C75_2 C 0.2722(2) 0.3910(3) 0.06931(13)
H53_2 H 0.2740 0.3057 0.0854
C76_2 C 0.2656(2) 0.5025(3) 0.10232(13)
H54_2 H 0.2618 0.4894 0.1406
H55_2 H 0.2234 0.1559 0.0215
N7 N 0.26417(13) 0.6289(2) 0.08316(9)
Co4 Co 0.259491(18) 0.81217(3) 0.132318(13)
C1_2 C 0.12410(15) 0.9720(3) 0.08264(11)
C2_2 C 0.06001(15) 0.9849(3) 0.03956(11)
C5_2 C 0.37238(14) 0.9946(3) 0.07404(10)
C6_2 C 0.47059(16) 0.8793(3) 0.01747(11)
H3_2 H 0.4511 0.7973 0.0293
C7_2 C 0.43763(15) 0.9982(3) 0.03469(10)
C9_2 C 0.16704(15) 0.7630(3) 0.23902(11)
H5_2 H 0.2088 0.8031 0.2573
C10_2 C 0.10409(16) 0.7343(3) 0.26999(12)
H6_2 H 0.1048 0.7534 0.3081
C11_2 C 0.03967(16) 0.6772(3) 0.24444(12)
C12_2 C 0.04544(18) 0.6480(4) 0.18880(14)
H7_2 H 0.0046 0.6073 0.1697
C13_2 C 0.11076(19) 0.6780(3) 0.16043(14)
H8_2 H 0.1123 0.6562 0.1227
H9_2 H 0.0162 0.6372 0.3529
N1_2 N 0.17169(12) 0.7368(2) 0.18484(9)
O2_2 O 0.17068(11) 0.8767(2) 0.07623(8)
O3_2 O 0.33927(11) 0.88329(19) 0.07842(7)
N9 N 0.35285(13) 0.7526(2) 0.19124(9)
C14_2 C 0.96947(15) 0.6461(3) 0.27487(12)
C15_2 C 0.97074(16) 0.6258(3) 0.33241(12)
C16_2 C 0.90604(16) 0.5891(3) 0.35958(12)
H10_2 H 0.9086 0.5737 0.3979
C17_2 C 0.83702(15) 0.5749(3) 0.33019(12)
C18_2 C 0.83439(16) 0.5964(3) 0.27288(13)
H11_2 H 0.7887 0.5864 0.2525
C19_2 C 0.89960(16) 0.6326(3) 0.24606(12)
H12_2 H 0.8969 0.6485 0.2077
C20_2 C 0.4163(2) 0.8288(3) 0.19174(16)
H13_2 H 0.4156 0.9074 0.1705
C21_2 C 0.48199(19) 0.7977(3) 0.22165(16)
H14_2 H 0.5243 0.8536 0.2195
C22_2 C 0.48599(15) 0.6835(3) 0.25513(11)
C23_2 C 0.41950(16) 0.6076(3) 0.25623(12)
H15_2 H 0.4179 0.5305 0.2782
C24_2 C 0.35562(16) 0.6466(3) 0.22456(12)
H16_2 H 0.3118 0.5945 0.2270
C25_2 C 0.55694(15) 0.6461(3) 0.28596(11)
C26_2 C 0.61379(18) 0.7405(3) 0.29746(15)
H17_2 H 0.6053 0.8302 0.2879
C27_2 C 0.68212(18) 0.7046(3) 0.32260(16)
H18_2 H 0.7186 0.7705 0.3303
C28_2 C 0.69764(15) 0.5727(3) 0.33668(11)
C29_2 C 0.64095(18) 0.4788(3) 0.32809(15)
H19_2 H 0.6492 0.3900 0.3391
C30_2 C 0.57141(18) 0.5154(3) 0.30302(15)
H20_2 H 0.5337 0.4504 0.2976
C33_2 C 0.77606(17) 0.0953(3) 0.51195(12)
C34_2 C 0.7722(2) 0.1090(3) 0.56931(13)
H23_2 H 0.7740 0.1943 0.5854
H24_2 H 0.7618 0.0106 0.6406
C36_2 C 0.77888(17) 0.2136(3) 0.47403(12)
C37_2 C 0.7455(2) 0.3342(3) 0.48691(13)
H25_2 H 0.7234 0.3441 0.5215
C38_2 C 0.74380(18) 0.4414(3) 0.44994(13)
H26_2 H 0.7208 0.5221 0.4598
C39_2 C 0.77624(15) 0.4283(3) 0.39843(12)
C40_2 C 0.8127(2) 0.3104(3) 0.38573(16)
H27_2 H 0.8368 0.3019 0.3519
C41_2 C 0.8138(2) 0.2045(4) 0.42303(16)
H28_2 H 0.8386 0.1251 0.4138
N4_2 N 0.77064(13) 0.5366(3) 0.35892(11)
C70_2 C 0.14095(18) 0.0212(3) 0.82809(15)
H49_2 H 0.1492 0.1100 0.8391
H50_2 H 0.0337 0.0496 0.7976
C73_2 C 0.2738(2) 0.5356(3) 0.99202(13)
H52_2 H 0.2757 0.5513 0.9538
C77_2 C 0.27888(17) 0.2864(3) 0.97403(12)
C78_2 C 0.2455(2) 0.1658(3) 0.98691(13)
C79_2 C 0.24380(18) 0.0586(3) 0.94994(13)
C80_2 C 0.27624(15) 0.0717(3) 0.89843(12)
C81_2 C 0.3127(2) 0.1896(3) 0.88573(16)
H57_2 H 0.3368 0.1981 0.8519
C82_2 C 0.3138(2) 0.2955(4) 0.92303(16)
H58_2 H 0.3386 0.3749 0.9138
C8_2 C 0.46749(16) 0.1191(3) 0.01723(12)
H4_2 H 0.4461 0.1998 0.0287
O1_2 O 0.12746(13) 0.0557(3) 0.12094(9)
O4_2 O 0.35768(11) 0.09893(18) 0.10109(8)
O5_2 O 0.25687(10) 0.00194(18) 0.17489(7)
H29_2 H 0.2892 0.0549 0.1609
H30_2 H 0.2125 0.0359 0.1710
C45_2 C -0.00000(17) 0.0740(3) 0.04878(13)
C44_2 C 0.94169(17) 0.0884(3) 0.00901(12)
H31_2 H 0.9026 0.1492 0.0154
C45_3 C 1.00000(17) 0.0740(3) 0.04878(13)
H32_2 H 0.9994 0.1237 0.0817
C3_2 C 0.05831(17) 0.9116(3) 0.99099(12)
H1_2 H 0.0974 0.8508 0.9846
C4_2 C -0.00000(17) 0.9260(3) 0.95122(13)
H2_2 H 0.0006 0.8763 0.9183
C49_2 C 0.53251(16) 0.8809(3) 0.98277(12)
H34_2 H 0.5539 0.8002 0.9713
O9_2 O 0.64232(11) 0.90107(18) 0.89891(8)
O10_2 O 0.74313(10) 0.99806(18) 0.82511(7)
H59_2 H 0.7108 0.9451 0.8391
H60_2 H 0.7875 0.9641 0.8290
C4_3 C 1.00000(17) 0.9260(3) 0.95122(13)
O6_2 O 0.87254(13) 0.9443(3) 0.87906(9)
loop_
_geom_bond_atom_site_label_1
_geom_bond_atom_site_label_2
_geom_bond_site_symmetry_1
_geom_bond_site_symmetry_2
C20 H13 1_555 1_555
C21 C20 1_555 1_555
C22 C21 1_555 1_555
C23 C22 1_555 1_555
H15 C23 1_555 1_555
C24 C23 1_555 1_555
H16 C24 1_555 1_555
N2 C20 1_555 1_555
Co3 N2 1_555 1_555
C24 N2 1_555 1_555
C1 C2 1_555 1_555
C2 C3 1_555 1_555
C3 H1 1_555 1_555
C4 C3 1_555 1_555
H2 C4 1_555 1_555
C5 C7 1_555 1_555
C6 H3 1_555 1_555
C7 C6 1_555 1_555
C8 C7 1_555 1_555
H4 C8 1_555 1_555
C9 H5 1_555 1_555
C10 C9 1_555 1_555
H6 C10 1_555 1_555
C11 C10 1_555 1_555
C12 C11 1_555 1_555
H7 C12 1_555 1_555
C13 C12 1_555 1_555
H8 C13 1_555 1_555
C14 C11 1_555 1_555
C15 C14 1_555 1_555
H9 C15 1_555 1_555
C16 C15 1_555 1_555
H10 C16 1_555 1_555
C17 C16 1_555 1_555
C18 C17 1_555 1_555
H11 C18 1_555 1_555
C19 C14 1_555 1_555
H12 C19 1_555 1_555
C26 C25 1_555 1_555
H17 C26 1_555 1_555
C27 C26 1_555 1_555
H18 C27 1_555 1_555
C28 C27 1_555 1_555
C30 C25 1_555 1_555
Co3 N1 1_555 1_555
N1 C9 1_555 1_555
N4 C17 1_555 1_555
O1 C1 1_555 1_555
O2 C1 1_555 1_555
O3 C5 1_555 1_555
O4 C5 1_555 1_555
O5 Co3 1_555 1_555
H29 O5 1_555 1_555
H30 O5 1_555 1_555
C42 C43 1_555 1_555
C43 C4 1_555 1_555
C44 C43 1_555 1_555
H31 C44 1_555 1_555
C45 C2 1_555 1_555
H32 C45 1_555 1_555
O6 C42 1_555 1_555
O7 C42 1_555 1_555
Co6 O7 1_555 1_555
N12 Co3 1_555 1_555
C13 N1 1_555 1_555
C18 C19 1_555 1_555
C28 N4 1_555 1_555
Co3 O2 1_555 1_555
Co3 O3 1_555 1_555
C44 C45 1_555 1_555
C46 C48 1_555 1_555
H33 C47 1_555 1_555
C48 C47 1_555 1_555
H34 C49 1_555 1_555
O8 C46 1_555 1_555
O9 C46 1_555 1_555
C50 H35 1_555 1_555
C51 C50 1_555 1_555
H36 C51 1_555 1_555
C52 C51 1_555 1_555
C53 C52 1_555 1_555
H37 C53 1_555 1_555
C54 C53 1_555 1_555
H38 C54 1_555 1_555
C55 C52 1_555 1_555
C56 C55 1_555 1_555
H39 C56 1_555 1_555
C57 C56 1_555 1_555
H40 C57 1_555 1_555
C58 C57 1_555 1_555
C59 C58 1_555 1_555
H41 C59 1_555 1_555
C60 C55 1_555 1_555
H42 C60 1_555 1_555
C67 C66 1_555 1_555
H47 C67 1_555 1_555
C68 C67 1_555 1_555
H48 C68 1_555 1_555
C69 C68 1_555 1_555
C71 C66 1_555 1_555
Co6 O8 1_555 1_555
N5 C50 1_555 1_555
N8 C58 1_555 1_555
O10 Co6 1_555 1_555
H59 O10 1_555 1_555
H60 O10 1_555 1_555
N10 Co6 1_555 1_555
N11 Co6 1_555 1_555
C48 C49 1_555 1_555
C54 N5 1_555 1_555
C59 C60 1_555 1_555
C69 N8 1_555 1_555
Co6 N5 1_555 1_555
C61 H43 1_555 1_555
C62 C61 1_555 1_555
C63 C62 1_555 1_555
C64 C63 1_555 1_555
H45 C64 1_555 1_555
C65 C64 1_555 1_555
H46 C65 1_555 1_555
N10 C61 1_555 1_555
C65 N10 1_555 1_555
C72 H51 1_555 1_555
C73 C72 1_555 1_555
H52 C73 1_555 1_555
N12 C72 1_555 1_555
C76 N12 1_555 1_555
C31 H21 1_555 1_555
C32 C31 1_555 1_555
H22 C32 1_555 1_555
N11 C31 1_555 1_555
C35 N11 1_555 1_555
H19 C29 1_555 1_555
H22_2 C32_2 1_555 1_555
C37 C36 1_555 1_555
C38 C37 1_555 1_555
C39 C38 1_555 1_555
C40 C39 1_555 1_555
H27 C40 1_555 1_555
C41 C36 1_555 1_555
H28 C41 1_555 1_555
C40 C41 1_555 1_555
C31_2 H21_2 1_555 1_555
C34 C33 1_555 1_555
H23 C34 1_555 1_555
C35_2 C34 1_555 1_555
H24 C35_2 1_555 1_555
N3 C31_2 1_555 1_555
Co7 N3 1_555 1_555
C35_2 N3 1_555 1_555
C56_2 C55_2 1_555 1_555
C57_2 C56_2 1_555 1_555
H40_2 C57_2 1_555 1_555
C58_2 C57_2 1_555 1_555
C59_2 C58_2 1_555 1_555
H41_2 C59_2 1_555 1_555
C60_2 C55_2 1_555 1_555
H42_2 C60_2 1_555 1_555
C61_2 H43_2 1_555 1_555
C62_2 C61_2 1_555 1_555
H44_2 C62_2 1_555 1_555
C63_2 C62_2 1_555 1_555
C64_2 C63_2 1_555 1_555
H45_2 C64_2 1_555 1_555
C65_2 C64_2 1_555 1_555
H46_2 C65_2 1_555 1_555
C66_2 C63_2 1_555 1_555
C67_2 C66_2 1_555 1_555
H47_2 C67_2 1_555 1_555
C68_2 C67_2 1_555 1_555
H48_2 C68_2 1_555 1_555
C69_2 C68_2 1_555 1_555
C70 C69_2 1_555 1_555
H49 C70 1_555 1_555
C71_2 C66_2 1_555 1_555
H50 C71_2 1_555 1_555
C75 C74 1_555 1_555
H53 C75 1_555 1_555
C77 C74 1_555 1_555
C78 C77 1_555 1_555
H55 C78 1_555 1_555
C79 C78 1_555 1_555
H56_2 C79 1_555 1_555
C80 C79 1_555 1_555
C81 C80 1_555 1_555
H57 C81 1_555 1_555
C82 C77 1_555 1_555
H58 C82 1_555 1_555
N6 C61_2 1_555 1_555
N8_2 C58_2 1_555 1_555
Co7 N6 1_555 1_555
C59_2 C60_2 1_555 1_555
C65_2 N6 1_555 1_555
C69_2 N8_2 1_555 1_555
C70 C71_2 1_555 1_555
C80 N8_2 1_555 1_555
C81 C82 1_555 1_555
C46_2 C48_2 1_555 1_555
H33_2 C47_2 1_555 1_555
C48_2 C47_2 1_555 1_555
O8_2 C46_2 1_555 1_555
C50_2 H35_2 1_555 1_555
C51_2 C50_2 1_555 1_555
H36_2 C51_2 1_555 1_555
C52_2 C51_2 1_555 1_555
C53_2 C52_2 1_555 1_555
H37_2 C53_2 1_555 1_555
C54_2 C53_2 1_555 1_555
H38_2 C54_2 1_555 1_555
Co7 O8_2 1_555 1_555
N5_2 C50_2 1_555 1_555
O11 Co7 1_555 1_555
C54_2 N5_2 1_555 1_555
Co7 N5_2 1_555 1_555
C42_2 C43_2 1_555 1_555
O11 C42_2 1_555 1_555
C72_2 H51_2 1_555 1_555
C75_2 C74_2 1_555 1_555
H53_2 C75_2 1_555 1_555
C76_2 C75_2 1_555 1_555
H54_2 C76_2 1_555 1_555
N7 C72_2 1_555 1_555
Co4 N7 1_555 1_555
C76_2 N7 1_555 1_555
C1_2 C2_2 1_555 1_555
C5_2 C7_2 1_555 1_555
C6_2 H3_2 1_555 1_555
C7_2 C6_2 1_555 1_555
C9_2 H5_2 1_555 1_555
C10_2 C9_2 1_555 1_555
H6_2 C10_2 1_555 1_555
C11_2 C10_2 1_555 1_555
C12_2 C11_2 1_555 1_555
H7_2 C12_2 1_555 1_555
C13_2 C12_2 1_555 1_555
H8_2 C13_2 1_555 1_555
Co4 N1_2 1_555 1_555
N1_2 C9_2 1_555 1_555
O2_2 C1_2 1_555 1_555
O3_2 C5_2 1_555 1_555
N9 Co4 1_555 1_555
C13_2 N1_2 1_555 1_555
Co4 O2_2 1_555 1_555
Co4 O3_2 1_555 1_555
C15_2 C14_2 1_555 1_555
C16_2 C15_2 1_555 1_555
H10_2 C16_2 1_555 1_555
C17_2 C16_2 1_555 1_555
C18_2 C17_2 1_555 1_555
H11_2 C18_2 1_555 1_555
C19_2 C14_2 1_555 1_555
H12_2 C19_2 1_555 1_555
C20_2 H13_2 1_555 1_555
C21_2 C20_2 1_555 1_555
H14_2 C21_2 1_555 1_555
C22_2 C21_2 1_555 1_555
C23_2 C22_2 1_555 1_555
H15_2 C23_2 1_555 1_555
C24_2 C23_2 1_555 1_555
H16_2 C24_2 1_555 1_555
C25_2 C22_2 1_555 1_555
C26_2 C25_2 1_555 1_555
H17_2 C26_2 1_555 1_555
C27_2 C26_2 1_555 1_555
H18_2 C27_2 1_555 1_555
C28_2 C27_2 1_555 1_555
C29_2 C28_2 1_555 1_555
H19_2 C29_2 1_555 1_555
C30_2 C25_2 1_555 1_555
H20_2 C30_2 1_555 1_555
C34_2 C33_2 1_555 1_555
H23_2 C34_2 1_555 1_555
C36_2 C33_2 1_555 1_555
C37_2 C36_2 1_555 1_555
H25_2 C37_2 1_555 1_555
C38_2 C37_2 1_555 1_555
H26_2 C38_2 1_555 1_555
C39_2 C38_2 1_555 1_555
C40_2 C39_2 1_555 1_555
H27_2 C40_2 1_555 1_555
C41_2 C36_2 1_555 1_555
H28_2 C41_2 1_555 1_555
N9 C20_2 1_555 1_555
N4_2 C17_2 1_555 1_555
C18_2 C19_2 1_555 1_555
C24_2 N9 1_555 1_555
C28_2 N4_2 1_555 1_555
C29_2 C30_2 1_555 1_555
C39_2 N4_2 1_555 1_555
C40_2 C41_2 1_555 1_555
H49_2 C70_2 1_555 1_555
H52_2 C73_2 1_555 1_555
C78_2 C77_2 1_555 1_555
C79_2 C78_2 1_555 1_555
C80_2 C79_2 1_555 1_555
C81_2 C80_2 1_555 1_555
H57_2 C81_2 1_555 1_555
C82_2 C77_2 1_555 1_555
H58_2 C82_2 1_555 1_555
C81_2 C82_2 1_555 1_555
H4_2 C8_2 1_555 1_555
H29_2 O5_2 1_555 1_555
H30_2 O5_2 1_555 1_555
H31_2 C44_2 1_555 1_555
H32_2 C45_3 1_555 1_555
C44_2 C45_3 1_555 1_555
C3_2 H1_2 1_555 1_555
C4_2 C3_2 1_555 1_555
H2_2 C4_2 1_555 1_555
H34_2 C49_2 1_555 1_555
H59_2 O10_2 1_555 1_555
H60_2 O10_2 1_555 1_555

#END
