
###############################################################################
#
# This file contains modified crystal structure data generated from the
# MOF subset of the Cambridge Structural Database (CSD) v543 
# hosted by the Cambridge Crystallographic Data Centre (CCDC).
#
# This work is licensed under the Creative Commons
# Attribution-NonCommercial-ShareAlike 4.0 International License.
# To view a copy of this license, visit
# http://creativecommons.org/licenses/by-nc-sa/4.0/
# or send a letter to
# Creative Commons, PO Box 1866, Mountain View, CA 94042, USA.
#
# CIF created using the CSD Python API on 29 September 2022
# The structure has been converted into the P1 space group
# The structure has a 3D framework
# The original CSD entry YIFLUX is in the orthorhombic crystal system
# The original CSD entry YIFLUX is in a Sohncke space group
# The framework has been calculated to contain at least 10.0% void space
# The void calculation uses a probe of radius 1.32A, grid spacing 0.4
#
###############################################################################

data_YIFLUX
_chemical_formula_moiety         '(C80 Ag4 N40)n'
_symmetry_cell_setting           triclinic
_symmetry_space_group_name_H-M   'P 1'
_symmetry_Int_Tables_number      1
_space_group_name_Hall           'P 1'
loop_
_symmetry_equiv_pos_site_id
_symmetry_equiv_pos_as_xyz
1 x,y,z
_cell_length_a                   13.726(13)
_cell_length_b                   18.821(10)
_cell_length_c                   11.243(9)
_cell_angle_alpha                90
_cell_angle_beta                 90
_cell_angle_gamma                90
_cell_volume                     2904.48
loop_
_atom_site_label
_atom_site_type_symbol
_atom_site_fract_x
_atom_site_fract_y
_atom_site_fract_z
C3 C 0.5855(4) 0.7420(3) 0.0036(5)
C8 C 0.5651(4) 0.7237(3) 0.1255(4)
C9 C 0.6824(5) 0.8564(3) 0.0345(6)
N3 N 0.5458(4) 0.7095(3) 0.2198(4)
N4 N 0.7192(5) 0.9013(3) 0.0856(6)
Ag3 Ag 0.48037(3) 0.68703(2) 0.39956(4)
Ag6 Ag 0.83408(3) 0.99522(2) 0.10356(4)
C1 C 0.5842(4) 0.7436(3) 0.8001(5)
C2 C 0.5537(3) 0.7054(2) 0.9025(5)
C4 C 0.6372(4) 0.8036(3) 0.9649(5)
C5 C 0.6369(4) 0.8029(3) 0.8381(5)
C6 C 0.5642(4) 0.7260(3) 0.6801(5)
C7 C 0.4992(4) 0.6414(3) 0.9020(5)
C10 C 0.6810(5) 0.8563(4) 0.7685(6)
C11 C 0.3279(3) 0.4582(2) 0.4015(5)
C12 C 0.2967(4) 0.4222(3) 0.2991(5)
C13 C 0.2443(4) 0.3620(3) 0.3328(4)
C14 C 0.2428(4) 0.3596(3) 0.4593(5)
C15 C 0.2954(4) 0.4188(3) 0.5021(5)
C16 C 0.3824(4) 0.5217(3) 0.4073(5)
C17 C 0.3150(5) 0.4422(3) 0.1786(5)
C18 C 0.2002(5) 0.3106(4) 0.2574(5)
C19 C 0.1949(4) 0.3078(3) 0.5265(5)
C20 C 0.3136(4) 0.4361(3) 0.6222(5)
N1 N 0.5473(4) 0.7118(3) 0.5828(4)
N2 N 0.4565(4) 0.5899(3) 0.9003(6)
N5 N 0.7146(6) 0.8998(4) 0.7116(6)
N6 N 0.4253(3) 0.5730(2) 0.4124(6)
N7 N 0.3289(5) 0.4580(3) 0.0813(5)
N8 N 0.1667(6) 0.2695(4) 0.1977(7)
N9 N 0.1547(5) 0.2621(3) 0.5784(5)
N10 N 0.3286(4) 0.4505(3) 0.7197(5)
N14 N 0.3453(5) 0.7621(3) 0.4216(5)
Ag4 Ag 0.01963(3) 0.18703(2) 0.60044(4)
Ag5 Ag 0.33408(3) 0.50478(2) 0.89644(4)
N13 N 0.2192(5) 0.5987(3) 0.9144(6)
C3_2 C 0.4145(4) 0.2580(3) 0.0036(5)
C8_2 C 0.4349(4) 0.2763(3) 0.1255(4)
C9_2 C 0.3176(5) 0.1436(3) 0.0345(6)
N3_2 N 0.4542(4) 0.2905(3) 0.2198(4)
N4_2 N 0.2808(5) 0.0987(3) 0.0856(6)
Ag3_2 Ag 0.51963(3) 0.31297(2) 0.39956(4)
Ag6_2 Ag 0.16592(3) 0.00478(2) 0.10356(4)
C1_2 C 0.4158(4) 0.2564(3) 0.8001(5)
C2_2 C 0.4463(3) 0.2946(2) 0.9025(5)
C4_2 C 0.3628(4) 0.1964(3) 0.9649(5)
C5_2 C 0.3631(4) 0.1971(3) 0.8381(5)
C6_2 C 0.4358(4) 0.2740(3) 0.6801(5)
C7_2 C 0.5008(4) 0.3586(3) 0.9020(5)
C10_2 C 0.3190(5) 0.1437(4) 0.7685(6)
C11_2 C 0.6721(3) 0.5418(2) 0.4015(5)
C12_2 C 0.7033(4) 0.5778(3) 0.2991(5)
C13_2 C 0.7557(4) 0.6380(3) 0.3328(4)
C14_2 C 0.7572(4) 0.6404(3) 0.4593(5)
C15_2 C 0.7046(4) 0.5812(3) 0.5021(5)
C16_2 C 0.6176(4) 0.4783(3) 0.4073(5)
C17_2 C 0.6850(5) 0.5578(3) 0.1786(5)
C18_2 C 0.7998(5) 0.6894(4) 0.2574(5)
C19_2 C 0.8051(4) 0.6922(3) 0.5265(5)
C20_2 C 0.6864(4) 0.5639(3) 0.6222(5)
N1_2 N 0.4527(4) 0.2882(3) 0.5828(4)
N2_2 N 0.5435(4) 0.4101(3) 0.9003(6)
N5_2 N 0.2854(6) 0.1002(4) 0.7116(6)
N6_2 N 0.5747(3) 0.4270(2) 0.4124(6)
N7_2 N 0.6711(5) 0.5420(3) 0.0813(5)
N8_2 N 0.8333(6) 0.7305(4) 0.1977(7)
N9_2 N 0.8453(5) 0.7379(3) 0.5784(5)
N10_2 N 0.6714(4) 0.5495(3) 0.7197(5)
N14_2 N 0.6547(5) 0.2379(3) 0.4216(5)
Ag4_2 Ag 0.98037(3) 0.81297(2) 0.60044(4)
Ag5_2 Ag 0.66592(3) 0.49522(2) 0.89644(4)
N13_2 N 0.7808(5) 0.4013(3) 0.9144(6)
N11 N 0.0435(4) 0.0899(3) 0.0997(6)
C7_3 C 0.0008(4) 0.1414(3) 0.0980(5)
C16_3 C 0.1176(4) 0.0217(3) 0.5927(5)
N6_3 N 0.0747(3) 0.0730(2) 0.5876(6)
N15 N 0.1714(4) 0.9505(3) 0.2803(5)
C11_3 C 0.1721(3) 0.9582(2) 0.5985(5)
C12_3 C 0.2033(4) 0.9222(3) 0.7009(5)
C13_3 C 0.2557(4) 0.8620(3) 0.6672(4)
C14_3 C 0.2572(4) 0.8596(3) 0.5407(5)
C15_3 C 0.2046(4) 0.9188(3) 0.4979(5)
C17_3 C 0.1850(5) 0.9422(3) 0.8214(5)
C18_3 C 0.2998(5) 0.8106(4) 0.7426(5)
C19_3 C 0.3051(4) 0.8078(3) 0.4735(5)
C20_3 C 0.1864(4) 0.9361(3) 0.3778(5)
N7_3 N 0.1711(5) 0.9580(3) 0.9187(5)
N8_3 N 0.3333(6) 0.7695(4) 0.8023(7)
C1_3 C 0.9158(4) 0.2436(3) 0.1999(5)
C2_3 C 0.9463(3) 0.2054(2) 0.0975(5)
C4_3 C 0.8628(4) 0.3036(3) 0.0351(5)
C5_3 C 0.8631(4) 0.3029(3) 0.1619(5)
C6_3 C 0.9358(4) 0.2260(3) 0.3199(5)
C10_3 C 0.8190(5) 0.3563(4) 0.2315(6)
N1_3 N 0.9527(4) 0.2118(3) 0.4172(4)
N5_3 N 0.7854(6) 0.3998(4) 0.2884(6)
N12 N 0.9542(4) 0.2095(3) 0.7802(4)
C3_3 C 0.9145(4) 0.2420(3) 0.9964(5)
C8_3 C 0.9349(4) 0.2237(3) 0.8745(4)
C9_3 C 0.8176(5) 0.3564(3) 0.9655(6)
C1_4 C 0.0842(4) 0.7564(3) 0.1999(5)
C2_4 C 0.0537(3) 0.7946(2) 0.0975(5)
C4_4 C 0.1372(4) 0.6964(3) 0.0351(5)
C5_4 C 0.1369(4) 0.6971(3) 0.1619(5)
C6_4 C 0.0642(4) 0.7740(3) 0.3199(5)
C10_4 C 0.1810(5) 0.6437(4) 0.2315(6)
N1_4 N 0.0473(4) 0.7882(3) 0.4172(4)
N5_4 N 0.2146(6) 0.6002(4) 0.2884(6)
N12_2 N 0.0458(4) 0.7905(3) 0.7802(4)
C3_4 C 0.0855(4) 0.7580(3) 0.9964(5)
C8_4 C 0.0651(4) 0.7763(3) 0.8745(4)
C9_4 C 0.1824(5) 0.6436(3) 0.9655(6)
N15_2 N 0.8286(4) 0.0495(3) 0.2803(5)
C11_4 C 0.8279(3) 0.0418(2) 0.5985(5)
C12_4 C 0.7967(4) 0.0778(3) 0.7009(5)
C13_4 C 0.7443(4) 0.1380(3) 0.6672(4)
C14_4 C 0.7428(4) 0.1404(3) 0.5407(5)
C15_4 C 0.7954(4) 0.0812(3) 0.4979(5)
C17_4 C 0.8150(5) 0.0578(3) 0.8214(5)
C18_4 C 0.7002(5) 0.1894(4) 0.7426(5)
C19_4 C 0.6949(4) 0.1922(3) 0.4735(5)
C20_4 C 0.8136(4) 0.0639(3) 0.3778(5)
N7_4 N 0.8289(5) 0.0420(3) 0.9187(5)
N8_4 N 0.6667(6) 0.2305(4) 0.8023(7)
N11_2 N 0.9565(4) 0.9101(3) 0.0997(6)
C7_4 C 0.9992(4) 0.8586(3) 0.0980(5)
C16_4 C 0.8824(4) 0.9783(3) 0.5927(5)
N6_4 N 0.9253(3) 0.9270(2) 0.5876(6)
loop_
_geom_bond_atom_site_label_1
_geom_bond_atom_site_label_2
_geom_bond_site_symmetry_1
_geom_bond_site_symmetry_2
C8 C3 1_555 1_555
N3 C8 1_555 1_555
N4 C9 1_555 1_555
Ag3 N3 1_555 1_555
Ag6 N4 1_555 1_555
C1 C2 1_555 1_555
C4 C5 1_555 1_555
C5 C1 1_555 1_555
C6 C1 1_555 1_555
C7 C2 1_555 1_555
C10 C5 1_555 1_555
C11 C12 1_555 1_555
C12 C13 1_555 1_555
C13 C14 1_555 1_555
C14 C15 1_555 1_555
C15 C11 1_555 1_555
C16 C11 1_555 1_555
C17 C12 1_555 1_555
C18 C13 1_555 1_555
C19 C14 1_555 1_555
C20 C15 1_555 1_555
N1 C6 1_555 1_555
N2 C7 1_555 1_555
N5 C10 1_555 1_555
N6 C16 1_555 1_555
N7 C17 1_555 1_555
N8 C18 1_555 1_555
N9 C19 1_555 1_555
N10 C20 1_555 1_555
Ag3 N1 1_555 1_555
N14 Ag3 1_555 1_555
Ag4 N9 1_555 1_555
Ag5 N2 1_555 1_555
N6 Ag3 1_555 1_555
N10 Ag5 1_555 1_555
N13 Ag5 1_555 1_555
C8_2 C3_2 1_555 1_555
N3_2 C8_2 1_555 1_555
N4_2 C9_2 1_555 1_555
Ag3_2 N3_2 1_555 1_555
Ag6_2 N4_2 1_555 1_555
C1_2 C2_2 1_555 1_555
C4_2 C5_2 1_555 1_555
C5_2 C1_2 1_555 1_555
C6_2 C1_2 1_555 1_555
C7_2 C2_2 1_555 1_555
C10_2 C5_2 1_555 1_555
C11_2 C12_2 1_555 1_555
C12_2 C13_2 1_555 1_555
C13_2 C14_2 1_555 1_555
C14_2 C15_2 1_555 1_555
C15_2 C11_2 1_555 1_555
C16_2 C11_2 1_555 1_555
C17_2 C12_2 1_555 1_555
C18_2 C13_2 1_555 1_555
C19_2 C14_2 1_555 1_555
C20_2 C15_2 1_555 1_555
N1_2 C6_2 1_555 1_555
N2_2 C7_2 1_555 1_555
N5_2 C10_2 1_555 1_555
N6_2 C16_2 1_555 1_555
N7_2 C17_2 1_555 1_555
N8_2 C18_2 1_555 1_555
N9_2 C19_2 1_555 1_555
N10_2 C20_2 1_555 1_555
Ag3_2 N1_2 1_555 1_555
N14_2 Ag3_2 1_555 1_555
Ag4_2 N9_2 1_555 1_555
Ag5_2 N2_2 1_555 1_555
N6_2 Ag3_2 1_555 1_555
N10_2 Ag5_2 1_555 1_555
N13_2 Ag5_2 1_555 1_555
N11 Ag6_2 1_555 1_555
N11 C7_3 1_555 1_555
N6_3 C16_3 1_555 1_555
N6_3 Ag4 1_555 1_555
C11_3 C12_3 1_555 1_555
C12_3 C13_3 1_555 1_555
C13_3 C14_3 1_555 1_555
C14_3 C15_3 1_555 1_555
C15_3 C11_3 1_555 1_555
C17_3 C12_3 1_555 1_555
C18_3 C13_3 1_555 1_555
C19_3 C14_3 1_555 1_555
C20_3 C15_3 1_555 1_555
N7_3 C17_3 1_555 1_555
N8_3 C18_3 1_555 1_555
N14 C19_3 1_555 1_555
N15 C20_3 1_555 1_555
C1_3 C2_3 1_555 1_555
C4_3 C5_3 1_555 1_555
C5_3 C1_3 1_555 1_555
C6_3 C1_3 1_555 1_555
C10_3 C5_3 1_555 1_555
N1_3 C6_3 1_555 1_555
N5_3 C10_3 1_555 1_555
C8_3 C3_3 1_555 1_555
N12 C8_3 1_555 1_555
N13_2 C9_3 1_555 1_555
C1_4 C2_4 1_555 1_555
C4_4 C5_4 1_555 1_555
C5_4 C1_4 1_555 1_555
C6_4 C1_4 1_555 1_555
C10_4 C5_4 1_555 1_555
N1_4 C6_4 1_555 1_555
N5_4 C10_4 1_555 1_555
C8_4 C3_4 1_555 1_555
N12_2 C8_4 1_555 1_555
N13 C9_4 1_555 1_555
C11_4 C12_4 1_555 1_555
C12_4 C13_4 1_555 1_555
C13_4 C14_4 1_555 1_555
C14_4 C15_4 1_555 1_555
C15_4 C11_4 1_555 1_555
C17_4 C12_4 1_555 1_555
C18_4 C13_4 1_555 1_555
C19_4 C14_4 1_555 1_555
C20_4 C15_4 1_555 1_555
N7_4 C17_4 1_555 1_555
N8_4 C18_4 1_555 1_555
N14_2 C19_4 1_555 1_555
N15_2 C20_4 1_555 1_555
N11_2 Ag6 1_555 1_555
N11_2 C7_4 1_555 1_555
N6_4 C16_4 1_555 1_555
N6_4 Ag4_2 1_555 1_555

#END
