
###############################################################################
#
# This file contains modified crystal structure data generated from the
# MOF subset of the Cambridge Structural Database (CSD) v543 
# hosted by the Cambridge Crystallographic Data Centre (CCDC).
#
# This work is licensed under the Creative Commons
# Attribution-NonCommercial-ShareAlike 4.0 International License.
# To view a copy of this license, visit
# http://creativecommons.org/licenses/by-nc-sa/4.0/
# or send a letter to
# Creative Commons, PO Box 1866, Mountain View, CA 94042, USA.
#
# CIF created using the CSD Python API on 29 September 2022
# The structure has been converted into the P1 space group
# The structure has a 3D framework
# The original CSD entry YIJGEG is in the monoclinic crystal system
# The framework has been calculated to contain at least 10.0% void space
# The void calculation uses a probe of radius 1.32A, grid spacing 0.4
#
###############################################################################

data_YIJGEG
_chemical_formula_moiety         '(C76 H48 Co4 N8 O20)n'
_symmetry_cell_setting           triclinic
_symmetry_space_group_name_H-M   'P 1'
_symmetry_Int_Tables_number      1
_space_group_name_Hall           'P 1'
loop_
_symmetry_equiv_pos_site_id
_symmetry_equiv_pos_as_xyz
1 x,y,z
_cell_length_a                   10.186(2)
_cell_length_b                   9.786(2)
_cell_length_c                   22.878(5)
_cell_angle_alpha                90
_cell_angle_beta                 94.27(3)
_cell_angle_gamma                90
_cell_volume                     2274.15
loop_
_atom_site_label
_atom_site_type_symbol
_atom_site_fract_x
_atom_site_fract_y
_atom_site_fract_z
Co5 Co 0.06220(4) 0.87956(4) 0.01146(2)
O1 O 0.78026(19) 0.0248(2) 0.02112(9)
H2 H 0.5489 0.0104 0.0510
O2 O 0.1130(2) 0.9609(2) 0.09041(8)
N1 N 0.1518(2) 0.6920(2) 0.02485(10)
C5 C 0.2695(3) 0.6710(3) 0.00512(13)
C7 C 0.3386(3) 0.5507(3) 0.01407(14)
C8 C 0.0973(3) 0.5910(3) 0.05350(14)
H3 H 0.0158 0.6054 0.0683
C14 C 0.1578(3) 0.4651(3) 0.06210(16)
H8 H 0.1156 0.3953 0.0809
C16 C 0.2805(3) 0.4441(4) 0.04263(16)
H10 H 0.3234 0.3608 0.0484
H12 H 0.2199 0.9621 0.1927
N4 N 0.5343(3) 0.4508(3) 0.00871(12)
H13 H 0.6930 0.2594 0.0157
Co8 Co 0.93780(4) 0.12044(4) 0.98854(2)
O6 O 0.21974(19) 0.9752(2) 0.97888(9)
H17 H 0.4511 0.9896 0.9490
N2 N 0.4657(3) 0.5492(3) 0.99129(12)
H1 H 0.3070 0.7406 0.9843
N3 N 0.8482(2) 0.3080(2) 0.97515(10)
C20 C 0.7305(3) 0.3290(3) 0.99488(13)
C21 C 0.6614(3) 0.4493(3) 0.98593(14)
C22 C 0.9027(3) 0.4090(3) 0.94650(14)
H14 H 0.9842 0.3946 0.9317
C23 C 0.8422(3) 0.5349(3) 0.93790(16)
H15 H 0.8844 0.6047 0.9191
C24 C 0.7195(3) 0.5559(4) 0.95737(16)
H16 H 0.6766 0.6392 0.9516
O7 O 0.8870(2) 0.0391(2) 0.90959(8)
H24 H 0.7801 0.0379 0.8073
Co1 Co 0.43780(4) 0.37956(4) 0.48854(2)
O2_2 O 0.3870(2) 0.4609(2) 0.40959(8)
O3 O 0.88518(19) 0.8277(2) 0.04051(9)
O4 O 0.4946(2) 0.6569(2) 0.42746(8)
N1_2 N 0.3482(2) 0.1920(2) 0.47515(10)
O5 O 0.3494(2) 0.7135(3) 0.15588(9)
C1 C 0.7876(3) 0.9057(3) 0.04206(12)
C2 C 0.6712(3) 0.8538(3) 0.07167(12)
N2_2 N 0.0343(3) 0.0492(3) 0.50871(12)
C3 C 0.4292(3) 0.5753(3) 0.39426(12)
C4 C 0.4031(3) 0.6155(3) 0.33180(12)
C5_2 C 0.2305(3) 0.1710(3) 0.49488(13)
H1_2 H 0.1930 0.2406 0.5157
C6 C 0.5548(3) 0.9275(3) 0.07087(13)
C7_2 C 0.1614(3) 0.0507(3) 0.48593(14)
C8_2 C 0.4027(3) 0.0910(3) 0.44650(14)
H3_2 H 0.4842 0.1054 0.4317
C9 C 0.4471(3) 0.8815(3) 0.09880(12)
H4 H 0.3691 0.9310 0.0970
C10 C 0.6784(3) 0.7309(3) 0.10184(14)
H5 H 0.7549 0.6788 0.1023
C11 C 0.3703(3) 0.6832(3) 0.21517(13)
C12 C 0.5737(3) 0.6851(4) 0.13111(14)
H6 H 0.5800 0.6037 0.1521
C13 C 0.4473(3) 0.7634(3) 0.25242(13)
H7 H 0.4886 0.8401 0.2384
C15 C 0.4633(3) 0.7306(3) 0.31018(13)
H9 H 0.5151 0.7859 0.3356
C17 C 0.3058(3) 0.5717(4) 0.23548(13)
H11 H 0.2510 0.5195 0.2100
C18 C 0.4589(3) 0.7612(3) 0.12908(13)
C19 C 0.3230(3) 0.5381(4) 0.29346(13)
H12_2 H 0.2801 0.4621 0.3073
Co6 Co 0.56220(4) 0.62044(4) 0.51146(2)
O12 O 0.28026(19) 0.4752(2) 0.52112(9)
O13 O 0.61482(19) 0.3277(2) 0.45949(9)
O16 O 0.5054(2) 0.3431(2) 0.57254(8)
N3_2 N 0.6518(2) 0.8080(2) 0.52485(10)
N4_2 N 0.9657(3) 0.9508(3) 0.49129(12)
C20_2 C 0.7695(3) 0.8290(3) 0.50512(13)
H13_2 H 0.8070 0.7594 0.4843
C21_2 C 0.8386(3) 0.9493(3) 0.51407(14)
C22_2 C 0.5973(3) 0.9090(3) 0.55350(14)
H14_2 H 0.5158 0.8946 0.5683
O7_2 O 0.6130(2) 0.5391(2) 0.59041(8)
O8 O 0.11482(19) 0.1723(2) 0.95949(9)
O10 O 0.6506(2) 0.2865(3) 0.84412(9)
C25 C 0.2124(3) 0.0943(3) 0.95794(12)
C26 C 0.3288(3) 0.1462(3) 0.92833(12)
C27 C 0.5708(3) 0.4247(3) 0.60574(12)
C28 C 0.5969(3) 0.3845(3) 0.66820(12)
C29 C 0.4452(3) 0.0725(3) 0.92913(13)
C30 C 0.5529(3) 0.1185(3) 0.90120(12)
H18 H 0.6309 0.0690 0.9030
C31 C 0.3216(3) 0.2691(3) 0.89816(14)
H19 H 0.2451 0.3212 0.8977
C32 C 0.6297(3) 0.3168(3) 0.78483(13)
C33 C 0.4263(3) 0.3149(4) 0.86889(14)
H20 H 0.4200 0.3963 0.8479
C34 C 0.5527(3) 0.2366(3) 0.74758(13)
H21 H 0.5114 0.1599 0.7616
C35 C 0.5367(3) 0.2694(3) 0.68982(13)
H22 H 0.4849 0.2141 0.6644
C36 C 0.6942(3) 0.4283(4) 0.76452(13)
H23 H 0.7490 0.4805 0.7900
C37 C 0.5411(3) 0.2388(3) 0.87092(13)
C38 C 0.6770(3) 0.4619(4) 0.70654(13)
H24_2 H 0.7199 0.5379 0.6927
O11 O 0.71974(19) 0.5248(2) 0.47888(9)
O14 O 0.38518(19) 0.6723(2) 0.54051(9)
C25_2 C 0.2876(3) 0.5943(3) 0.54206(12)
C26_2 C 0.1712(3) 0.6462(3) 0.57167(12)
C29_2 C 0.0548(3) 0.5725(3) 0.57087(13)
H17_2 H 0.0489 0.4896 0.5510
C31_2 C 0.1784(3) 0.7691(3) 0.60184(14)
H19_2 H 0.2549 0.8212 0.6023
C33_2 C 0.0737(3) 0.8149(4) 0.63111(14)
H20_2 H 0.0800 0.8963 0.6521
H22_2 H 0.0151 0.7141 0.8356
C1_2 C 0.7124(3) 0.4057(3) 0.45794(12)
C2_2 C 0.8288(3) 0.3538(3) 0.42833(12)
C6_2 C 0.9452(3) 0.4275(3) 0.42913(13)
H2_2 H 0.9511 0.5104 0.4490
C10_2 C 0.8216(3) 0.2309(3) 0.39816(14)
H5_2 H 0.7451 0.1788 0.3977
C12_2 C 0.9263(3) 0.1851(4) 0.36889(14)
H6_2 H 0.9200 0.1037 0.3479
H9_2 H 0.9849 0.2859 0.1644
C14_2 C 0.3422(3) 0.9651(3) 0.43790(16)
H8_2 H 0.3844 0.8953 0.4191
C16_2 C 0.2195(3) 0.9441(4) 0.45737(16)
H10_2 H 0.1766 0.8608 0.4516
C23_2 C 0.6578(3) 0.0349(3) 0.56210(16)
H15_2 H 0.6156 0.1047 0.5809
C24_2 C 0.7805(3) 0.0559(4) 0.54263(16)
H16_2 H 0.8234 0.1392 0.5484
O15 O 0.0054(2) 0.1569(2) 0.07254(8)
O5_2 O 0.1506(2) 0.2135(3) 0.34412(9)
C3_2 C 0.0708(3) 0.0753(3) 0.10574(12)
C4_2 C 0.0969(3) 0.1155(3) 0.16820(12)
C9_2 C 0.0529(3) 0.3815(3) 0.40120(12)
H4_2 H 0.1309 0.4310 0.4030
C11_2 C 0.1297(3) 0.1832(3) 0.28483(13)
C13_2 C 0.0527(3) 0.2634(3) 0.24758(13)
H7_2 H 0.0114 0.3401 0.2616
C15_2 C 0.0367(3) 0.2306(3) 0.18982(13)
C17_2 C 0.1942(3) 0.0717(4) 0.26452(13)
H11_2 H 0.2490 0.0195 0.2900
C18_2 C 0.0411(3) 0.2612(3) 0.37092(13)
C19_2 C 0.1770(3) 0.0381(4) 0.20654(13)
O9 O 0.9946(2) 0.8431(2) 0.92746(8)
O10_2 O 0.8494(2) 0.7865(3) 0.65588(9)
C27_2 C 0.9292(3) 0.9247(3) 0.89426(12)
C28_2 C 0.9031(3) 0.8845(3) 0.83180(12)
C30_2 C 0.9471(3) 0.6185(3) 0.59880(12)
H18_2 H 0.8691 0.5690 0.5970
C32_2 C 0.8703(3) 0.8168(3) 0.71517(13)
C34_2 C 0.9473(3) 0.7366(3) 0.75242(13)
H21_2 H 0.9886 0.6599 0.7384
C35_2 C 0.9633(3) 0.7694(3) 0.81018(13)
C36_2 C 0.8058(3) 0.9283(4) 0.73548(13)
H23_2 H 0.7510 0.9805 0.7100
C37_2 C 0.9589(3) 0.7388(3) 0.62908(13)
C38_2 C 0.8230(3) 0.9619(4) 0.79346(13)
loop_
_geom_bond_atom_site_label_1
_geom_bond_atom_site_label_2
_geom_bond_site_symmetry_1
_geom_bond_site_symmetry_2
Co5 O2 1_555 1_555
N1 Co5 1_555 1_555
C5 N1 1_555 1_555
C7 C5 1_555 1_555
C8 N1 1_555 1_555
H3 C8 1_555 1_555
C14 C8 1_555 1_555
H8 C14 1_555 1_555
C16 C7 1_555 1_555
H10 C16 1_555 1_555
C14 C16 1_555 1_555
N3 C20 1_555 1_555
C22 N3 1_555 1_555
H14 C22 1_555 1_555
C23 C22 1_555 1_555
H15 C23 1_555 1_555
C24 C21 1_555 1_555
H16 C24 1_555 1_555
Co8 N3 1_555 1_555
O7 Co8 1_555 1_555
C20 C21 1_555 1_555
C23 C24 1_555 1_555
Co1 O2_2 1_555 1_555
O2_2 C3 1_555 1_555
O3 C1 1_555 1_555
O4 C3 1_555 1_555
N1_2 Co1 1_555 1_555
O5 C11 1_555 1_555
C1 C2 1_555 1_555
C2 C6 1_555 1_555
N2_2 C7_2 1_555 1_555
C3 C4 1_555 1_555
C4 C15 1_555 1_555
C5_2 N1_2 1_555 1_555
H1_2 C5_2 1_555 1_555
C7_2 C5_2 1_555 1_555
C8_2 N1_2 1_555 1_555
H3_2 C8_2 1_555 1_555
C9 C6 1_555 1_555
H4 C9 1_555 1_555
C10 C2 1_555 1_555
H5 C10 1_555 1_555
C11 C13 1_555 1_555
C12 C10 1_555 1_555
H6 C12 1_555 1_555
C13 H7 1_555 1_555
C15 C13 1_555 1_555
H9 C15 1_555 1_555
C17 C11 1_555 1_555
H11 C17 1_555 1_555
C18 O5 1_555 1_555
C19 C4 1_555 1_555
H12_2 C19 1_555 1_555
Co6 Co1 1_555 1_555
O12 Co1 1_555 1_555
O13 Co1 1_555 1_555
O16 Co1 1_555 1_555
O4 Co6 1_555 1_555
C9 C18 1_555 1_555
C12 C18 1_555 1_555
C17 C19 1_555 1_555
N3_2 C20_2 1_555 1_555
C20_2 H13_2 1_555 1_555
C21_2 N4_2 1_555 1_555
C22_2 N3_2 1_555 1_555
H14_2 C22_2 1_555 1_555
Co6 N3_2 1_555 1_555
O7_2 Co6 1_555 1_555
O8 C25 1_555 1_555
O16 C27 1_555 1_555
O10 C32 1_555 1_555
C25 C26 1_555 1_555
C26 C29 1_555 1_555
C27 O7_2 1_555 1_555
C28 C27 1_555 1_555
C30 C29 1_555 1_555
H18 C30 1_555 1_555
C31 C26 1_555 1_555
H19 C31 1_555 1_555
C32 C34 1_555 1_555
C33 C31 1_555 1_555
H20 C33 1_555 1_555
C34 H21 1_555 1_555
C35 C28 1_555 1_555
H22 C35 1_555 1_555
C36 C32 1_555 1_555
H23 C36 1_555 1_555
C37 O10 1_555 1_555
C38 C28 1_555 1_555
H24_2 C38 1_555 1_555
O11 Co6 1_555 1_555
O14 Co6 1_555 1_555
C20_2 C21_2 1_555 1_555
C30 C37 1_555 1_555
C33 C37 1_555 1_555
C34 C35 1_555 1_555
C36 C38 1_555 1_555
O12 C25_2 1_555 1_555
O14 C25_2 1_555 1_555
C25_2 C26_2 1_555 1_555
C26_2 C29_2 1_555 1_555
C29_2 H17_2 1_555 1_555
C31_2 C26_2 1_555 1_555
H19_2 C31_2 1_555 1_555
C33_2 C31_2 1_555 1_555
H20_2 C33_2 1_555 1_555
O11 C1_2 1_555 1_555
O13 C1_2 1_555 1_555
C1_2 C2_2 1_555 1_555
C2_2 C6_2 1_555 1_555
C6_2 H2_2 1_555 1_555
C10_2 C2_2 1_555 1_555
H5_2 C10_2 1_555 1_555
C12_2 C10_2 1_555 1_555
H6_2 C12_2 1_555 1_555
H8_2 C14_2 1_555 1_555
H10_2 C16_2 1_555 1_555
C14_2 C16_2 1_555 1_555
H15_2 C23_2 1_555 1_555
H16_2 C24_2 1_555 1_555
C23_2 C24_2 1_555 1_555
O15 C3_2 1_555 1_555
O5_2 C11_2 1_555 1_555
C3_2 C4_2 1_555 1_555
C4_2 C15_2 1_555 1_555
H4_2 C9_2 1_555 1_555
C11_2 C13_2 1_555 1_555
C13_2 H7_2 1_555 1_555
C15_2 C13_2 1_555 1_555
C17_2 C11_2 1_555 1_555
H11_2 C17_2 1_555 1_555
C18_2 O5_2 1_555 1_555
C19_2 C4_2 1_555 1_555
C9_2 C18_2 1_555 1_555
C17_2 C19_2 1_555 1_555
O9 C27_2 1_555 1_555
O10_2 C32_2 1_555 1_555
C28_2 C27_2 1_555 1_555
H18_2 C30_2 1_555 1_555
C32_2 C34_2 1_555 1_555
C34_2 H21_2 1_555 1_555
C35_2 C28_2 1_555 1_555
C36_2 C32_2 1_555 1_555
H23_2 C36_2 1_555 1_555
C37_2 O10_2 1_555 1_555
C38_2 C28_2 1_555 1_555
C30_2 C37_2 1_555 1_555
C34_2 C35_2 1_555 1_555
C36_2 C38_2 1_555 1_555

#END
