
###############################################################################
#
# This file contains modified crystal structure data generated from the
# MOF subset of the Cambridge Structural Database (CSD) v543 
# hosted by the Cambridge Crystallographic Data Centre (CCDC).
#
# This work is licensed under the Creative Commons
# Attribution-NonCommercial-ShareAlike 4.0 International License.
# To view a copy of this license, visit
# http://creativecommons.org/licenses/by-nc-sa/4.0/
# or send a letter to
# Creative Commons, PO Box 1866, Mountain View, CA 94042, USA.
#
# CIF created using the CSD Python API on 29 September 2022
# The structure has been converted into the P1 space group
# The structure has a 3D framework
# The original CSD entry YIJNUD is in the monoclinic crystal system
# The framework has been calculated to contain at least 10.0% void space
# The void calculation uses a probe of radius 1.32A, grid spacing 0.4
#
###############################################################################

data_YIJNUD
_chemical_formula_moiety         '(C40 H40 N72 O8 Zn9)n'
_symmetry_cell_setting           triclinic
_symmetry_space_group_name_H-M   'P 1'
_symmetry_Int_Tables_number      1
_space_group_name_Hall           'P 1'
loop_
_symmetry_equiv_pos_site_id
_symmetry_equiv_pos_as_xyz
1 x,y,z
_cell_length_a                   18.285(14)
_cell_length_b                   10.202(8)
_cell_length_c                   13.482(11)
_cell_angle_alpha                90
_cell_angle_beta                 116.73(3)
_cell_angle_gamma                90
_cell_volume                     2246.22
loop_
_atom_site_label
_atom_site_type_symbol
_atom_site_fract_x
_atom_site_fract_y
_atom_site_fract_z
Zn2 Zn 0.0000 0.5000 0.0000
Zn4 Zn 0.5000 0.0000 0.0000
N19 N 0.1171(5) 0.6058(8) 0.1346(6)
N21 N 0.0542(5) 0.2938(7) 0.0839(7)
Zn1 Zn 0.0000 0.30069(9) 0.7500
Zn2_2 Zn 0.0000 0.5000 1.0000
N10 N 0.1894(5) 0.2793(9) 0.7816(7)
N11 N 0.1136(5) 0.3156(8) 0.7095(7)
N12 N 0.1171(5) 0.3942(8) 0.6346(6)
N13 N 0.1960(4) 0.4124(8) 0.6568(6)
N14 N 0.4458(5) 0.2062(7) 0.9161(7)
N15 N 0.4595(5) 0.4200(9) 0.8560(10)
N16 N 0.0596(5) 0.4613(9) 0.8851(7)
N17 N 0.1004(7) 0.5430(11) 0.8684(8)
N18 N 0.1362(11) 0.6243(16) 0.8537(13)
O2 O 0.0606(5) 0.1341(8) 0.8718(8)
H6 H 0.0298 0.0625 0.8486
H7 H 0.0635 0.1578 0.9377
C6 C 0.2383(5) 0.3418(9) 0.7480(8)
C7 C 0.4910(6) 0.3088(10) 0.9105(10)
H8 H 0.5478 0.3011 0.9471
C8 C 0.3782(6) 0.4311(11) 0.8047(10)
H9 H 0.3552 0.5086 0.7672
C9 C 0.3269(6) 0.3328(9) 0.8048(8)
C10 C 0.3656(5) 0.2204(9) 0.8668(8)
H10 H 0.3333 0.1536 0.8731
Zn3 Zn 0.0000 0.5000 0.5000
Zn4_2 Zn 0.5000 0.0000 1.0000
Zn4_3 Zn 0.5000 1.0000 0.0000
Zn4_4 Zn 0.5000 1.0000 1.0000
Zn2_3 Zn 1.0000 0.5000 0.0000
N22 N 0.9404(5) 0.5387(9) 0.1149(7)
Zn1_2 Zn 1.0000 0.30069(9) 0.7500
Zn2_4 Zn 1.0000 0.5000 1.0000
N1 N 0.8106(5) 0.2793(9) 0.7184(7)
N2 N 0.8864(5) 0.3156(8) 0.7905(7)
N3 N 0.8829(5) 0.3942(8) 0.8654(6)
N4 N 0.8040(4) 0.4124(8) 0.8432(6)
N5 N 0.5542(5) 0.2062(7) 0.5839(7)
N6 N 0.5405(5) 0.4200(9) 0.6440(10)
N7 N 0.9404(5) 0.4613(9) 0.6149(7)
N8 N 0.8996(7) 0.5430(11) 0.6316(8)
N9 N 0.8638(11) 0.6243(16) 0.6463(13)
O1 O 0.9394(5) 0.1341(8) 0.6282(8)
H1 H 0.9702 0.0625 0.6514
H2 H 0.9365 0.1578 0.5623
C1 C 0.7617(5) 0.3418(9) 0.7520(8)
C2 C 0.5090(6) 0.3088(10) 0.5895(10)
H3 H 0.4522 0.3011 0.5529
C3 C 0.6218(6) 0.4311(11) 0.6953(10)
H4 H 0.6448 0.5086 0.7328
C4 C 0.6731(6) 0.3328(9) 0.6952(8)
C5 C 0.6344(5) 0.2204(9) 0.6332(8)
H5 H 0.6667 0.1536 0.6269
Zn3_2 Zn 1.0000 0.5000 0.5000
Zn5 Zn 0.5000 0.0000 0.5000
N20 N 0.9458(5) 0.7062(7) 0.9161(7)
Zn5_2 Zn 0.5000 1.0000 0.5000
N20_2 N 0.0542(5) 0.7062(7) 0.5839(7)
N22_2 N 0.0596(5) 0.5387(9) 0.3851(7)
N19_2 N 0.8829(5) 0.6058(8) 0.3654(6)
N21_2 N 0.9458(5) 0.2938(7) 0.4161(7)
H8_2 H 0.0478 0.8011 0.9471
N19_3 N 0.6171(5) 0.1058(8) 0.1346(6)
N22_3 N 0.4404(5) 0.0387(9) 0.1149(7)
N8_2 N 0.3996(7) 0.0430(11) 0.6316(8)
N9_2 N 0.3638(11) 0.1243(16) 0.6463(13)
H4_2 H 0.1448 0.0086 0.7328
N17_2 N 0.6004(7) 0.0430(11) 0.8684(8)
N18_2 N 0.6362(11) 0.1243(16) 0.8537(13)
H9_2 H 0.8552 0.0086 0.7672
N21_3 N 0.5542(5) 0.7938(7) 0.0839(7)
Zn1_3 Zn 0.5000 0.80069(9) 0.7500
N1_2 N 0.3106(5) 0.7793(9) 0.7184(7)
N2_2 N 0.3864(5) 0.8156(8) 0.7905(7)
N3_2 N 0.3829(5) 0.8942(8) 0.8654(6)
N4_2 N 0.3040(4) 0.9124(8) 0.8432(6)
N6_2 N 0.0405(5) 0.9200(9) 0.6440(10)
N7_2 N 0.4404(5) 0.9613(9) 0.6149(7)
O1_2 O 0.4394(5) 0.6341(8) 0.6282(8)
H1_2 H 0.4702 0.5625 0.6514
H2_2 H 0.4365 0.6578 0.5623
C1_2 C 0.2617(5) 0.8418(9) 0.7520(8)
C2_2 C 0.0090(6) 0.8088(10) 0.5895(10)
C3_2 C 0.1218(6) 0.9311(11) 0.6953(10)
C4_2 C 0.1731(6) 0.8328(9) 0.6952(8)
C5_2 C 0.1344(5) 0.7204(9) 0.6332(8)
H5_2 H 0.1667 0.6536 0.6269
N10_2 N 0.6894(5) 0.7793(9) 0.7816(7)
N11_2 N 0.6136(5) 0.8156(8) 0.7095(7)
N12_2 N 0.6171(5) 0.8942(8) 0.6346(6)
N13_2 N 0.6960(4) 0.9124(8) 0.6568(6)
N15_2 N 0.9595(5) 0.9200(9) 0.8560(10)
N16_2 N 0.5596(5) 0.9613(9) 0.8851(7)
O2_2 O 0.5606(5) 0.6341(8) 0.8718(8)
H6_2 H 0.5298 0.5625 0.8486
H7_2 H 0.5635 0.6578 0.9377
C6_2 C 0.7383(5) 0.8418(9) 0.7480(8)
C7_2 C 0.9910(6) 0.8088(10) 0.9105(10)
C8_2 C 0.8782(6) 0.9311(11) 0.8047(10)
C9_2 C 0.8269(6) 0.8328(9) 0.8048(8)
C10_2 C 0.8656(5) 0.7204(9) 0.8668(8)
H10_2 H 0.8333 0.6536 0.8731
H3_2 H 0.9522 0.8011 0.5529
N19_4 N 0.3829(5) 0.1058(8) 0.3654(6)
N22_4 N 0.5596(5) 0.0387(9) 0.3851(7)
N21_4 N 0.4458(5) 0.7938(7) 0.4161(7)
Zn1_4 Zn 0.0000 0.69931(9) 0.2500
N1_3 N 0.1894(5) 0.7207(9) 0.2816(7)
N2_3 N 0.1136(5) 0.6844(8) 0.2095(7)
N4_3 N 0.1960(4) 0.5876(8) 0.1568(6)
N6_3 N 0.4595(5) 0.5800(9) 0.3560(10)
N8_3 N 0.1004(7) 0.4570(11) 0.3684(8)
N9_3 N 0.1362(11) 0.3757(16) 0.3537(13)
O1_3 O 0.0606(5) 0.8659(8) 0.3718(8)
H1_3 H 0.0298 0.9375 0.3486
H2_3 H 0.0635 0.8422 0.4377
C1_3 C 0.2383(5) 0.6582(9) 0.2480(8)
C2_3 C 0.4910(6) 0.6912(10) 0.4105(10)
H3_3 H 0.5478 0.6989 0.4471
C3_3 C 0.3782(6) 0.5689(11) 0.3047(10)
H4_3 H 0.3552 0.4914 0.2672
C4_3 C 0.3269(6) 0.6672(9) 0.3048(8)
C5_3 C 0.3656(5) 0.7796(9) 0.3668(8)
H5_3 H 0.3333 0.8464 0.3731
Zn1_5 Zn 1.0000 0.69931(9) 0.2500
N10_3 N 0.8106(5) 0.7207(9) 0.2184(7)
N11_3 N 0.8864(5) 0.6844(8) 0.2905(7)
N13_3 N 0.8040(4) 0.5876(8) 0.3432(6)
N15_3 N 0.5405(5) 0.5800(9) 0.1440(10)
N17_3 N 0.8996(7) 0.4570(11) 0.1316(8)
N18_3 N 0.8638(11) 0.3757(16) 0.1463(13)
O2_3 O 0.9394(5) 0.8659(8) 0.1282(8)
H6_3 H 0.9702 0.9375 0.1514
H7_3 H 0.9365 0.8422 0.0623
C6_3 C 0.7617(5) 0.6582(9) 0.2520(8)
C7_3 C 0.5090(6) 0.6912(10) 0.0895(10)
H8_3 H 0.4522 0.6989 0.0529
C8_3 C 0.6218(6) 0.5689(11) 0.1953(10)
H9_3 H 0.6448 0.4914 0.2328
C9_3 C 0.6731(6) 0.6672(9) 0.1952(8)
C10_3 C 0.6344(5) 0.7796(9) 0.1332(8)
H10_3 H 0.6667 0.8464 0.1269
H3_4 H 0.0478 0.1989 0.4471
Zn1_6 Zn 0.5000 0.19931(9) 0.2500
N1_4 N 0.6894(5) 0.2207(9) 0.2816(7)
N2_4 N 0.6136(5) 0.1844(8) 0.2095(7)
N4_4 N 0.6960(4) 0.0876(8) 0.1568(6)
N6_4 N 0.9595(5) 0.0800(9) 0.3560(10)
O1_4 O 0.5606(5) 0.3659(8) 0.3718(8)
H1_4 H 0.5298 0.4375 0.3486
H2_4 H 0.5635 0.3422 0.4377
C1_4 C 0.7383(5) 0.1582(9) 0.2480(8)
C2_4 C 0.9910(6) 0.1912(10) 0.4105(10)
C3_4 C 0.8782(6) 0.0689(11) 0.3047(10)
C4_4 C 0.8269(6) 0.1672(9) 0.3048(8)
C5_4 C 0.8656(5) 0.2796(9) 0.3668(8)
H5_4 H 0.8333 0.3464 0.3731
N10_4 N 0.3106(5) 0.2207(9) 0.2184(7)
N11_4 N 0.3864(5) 0.1844(8) 0.2905(7)
N13_4 N 0.3040(4) 0.0876(8) 0.3432(6)
N15_4 N 0.0405(5) 0.0800(9) 0.1440(10)
O2_4 O 0.4394(5) 0.3659(8) 0.1282(8)
H6_4 H 0.4702 0.4375 0.1514
H7_4 H 0.4365 0.3422 0.0623
C6_4 C 0.2617(5) 0.1582(9) 0.2520(8)
C7_4 C 0.0090(6) 0.1912(10) 0.0895(10)
C8_4 C 0.1218(6) 0.0689(11) 0.1953(10)
C9_4 C 0.1731(6) 0.1672(9) 0.1952(8)
C10_4 C 0.1344(5) 0.2796(9) 0.1332(8)
H10_4 H 0.1667 0.3464 0.1269
N8_4 N 0.6004(7) 0.9570(11) 0.3684(8)
N9_4 N 0.6362(11) 0.8757(16) 0.3537(13)
H4_4 H 0.8552 0.9914 0.2672
N17_4 N 0.3996(7) 0.9570(11) 0.1316(8)
N18_4 N 0.3638(11) 0.8757(16) 0.1463(13)
H9_4 H 0.1448 0.9914 0.2328
H8_4 H 0.9522 0.1989 0.0529
loop_
_geom_bond_atom_site_label_1
_geom_bond_atom_site_label_2
_geom_bond_site_symmetry_1
_geom_bond_site_symmetry_2
N19 Zn2 1_555 1_555
N21 Zn2 1_555 1_555
N10 N11 1_555 1_555
N11 Zn1 1_555 1_555
N12 N11 1_555 1_555
N13 N12 1_555 1_555
N14 C7 1_555 1_555
N15 C7 1_555 1_555
N16 Zn1 1_555 1_555
N17 N16 1_555 1_555
N18 N17 1_555 1_555
O2 Zn1 1_555 1_555
H6 O2 1_555 1_555
H7 O2 1_555 1_555
C6 N10 1_555 1_555
C7 H8 1_555 1_555
C8 N15 1_555 1_555
H9 C8 1_555 1_555
C9 C6 1_555 1_555
C10 N14 1_555 1_555
H10 C10 1_555 1_555
Zn4_2 N14 1_555 1_555
Zn2_2 N16 1_555 1_555
N12 Zn3 1_555 1_555
N13 C6 1_555 1_555
C8 C9 1_555 1_555
C9 C10 1_555 1_555
N22 Zn2_3 1_555 1_555
Zn1_2 N2 1_555 1_555
Zn2_4 N3 1_555 1_555
N1 N2 1_555 1_555
N2 N3 1_555 1_555
N3 N4 1_555 1_555
N4 C1 1_555 1_555
N5 C2 1_555 1_555
N6 C2 1_555 1_555
N7 Zn1_2 1_555 1_555
N8 N7 1_555 1_555
N9 N8 1_555 1_555
O1 Zn1_2 1_555 1_555
H1 O1 1_555 1_555
H2 O1 1_555 1_555
C1 N1 1_555 1_555
C2 H3 1_555 1_555
C3 N6 1_555 1_555
H4 C3 1_555 1_555
C4 C1 1_555 1_555
C5 N5 1_555 1_555
H5 C5 1_555 1_555
Zn3_2 N7 1_555 1_555
Zn5 N5 1_555 1_555
N20 Zn2_4 1_555 1_555
C3 C4 1_555 1_555
C4 C5 1_555 1_555
N20_2 Zn3 1_555 1_555
N22_2 Zn3 1_555 1_555
N19_2 Zn3_2 1_555 1_555
N21_2 Zn3_2 1_555 1_555
N19_3 Zn4 1_555 1_555
N22_3 Zn4 1_555 1_555
N9_2 N8_2 1_555 1_555
N18_2 N17_2 1_555 1_555
N21_3 Zn4_3 1_555 1_555
Zn1_3 N2_2 1_555 1_555
Zn4_4 N3_2 1_555 1_555
N1_2 N2_2 1_555 1_555
N2_2 N3_2 1_555 1_555
N3_2 N4_2 1_555 1_555
N4_2 C1_2 1_555 1_555
N20_2 C2_2 1_555 1_555
N6_2 C2_2 1_555 1_555
N7_2 Zn1_3 1_555 1_555
O1_2 Zn1_3 1_555 1_555
H1_2 O1_2 1_555 1_555
H2_2 O1_2 1_555 1_555
C1_2 N1_2 1_555 1_555
C3_2 N6_2 1_555 1_555
C4_2 C1_2 1_555 1_555
C5_2 N20_2 1_555 1_555
H5_2 C5_2 1_555 1_555
N10_2 N11_2 1_555 1_555
N11_2 Zn1_3 1_555 1_555
N12_2 N11_2 1_555 1_555
N13_2 N12_2 1_555 1_555
N20 C7_2 1_555 1_555
N15_2 C7_2 1_555 1_555
N16_2 Zn1_3 1_555 1_555
O2_2 Zn1_3 1_555 1_555
H6_2 O2_2 1_555 1_555
H7_2 O2_2 1_555 1_555
C6_2 N10_2 1_555 1_555
C8_2 N15_2 1_555 1_555
C9_2 C6_2 1_555 1_555
C10_2 N20 1_555 1_555
H10_2 C10_2 1_555 1_555
Zn5_2 N7_2 1_555 1_555
Zn4_4 N16_2 1_555 1_555
C3_2 C4_2 1_555 1_555
C4_2 C5_2 1_555 1_555
N12_2 Zn5_2 1_555 1_555
N13_2 C6_2 1_555 1_555
C8_2 C9_2 1_555 1_555
C9_2 C10_2 1_555 1_555
N19_4 Zn5 1_555 1_555
N22_4 Zn5 1_555 1_555
N21_4 Zn5_2 1_555 1_555
Zn1_4 N2_3 1_555 1_555
N1_3 N2_3 1_555 1_555
N2_3 N19 1_555 1_555
N19 N4_3 1_555 1_555
N4_3 C1_3 1_555 1_555
N21_4 C2_3 1_555 1_555
N6_3 C2_3 1_555 1_555
N22_2 Zn1_4 1_555 1_555
N8_3 N22_2 1_555 1_555
N9_3 N8_3 1_555 1_555
O1_3 Zn1_4 1_555 1_555
H1_3 O1_3 1_555 1_555
H2_3 O1_3 1_555 1_555
C1_3 N1_3 1_555 1_555
C2_3 H3_3 1_555 1_555
C3_3 N6_3 1_555 1_555
H4_3 C3_3 1_555 1_555
C4_3 C1_3 1_555 1_555
C5_3 N21_4 1_555 1_555
H5_3 C5_3 1_555 1_555
C3_3 C4_3 1_555 1_555
C4_3 C5_3 1_555 1_555
N10_3 N11_3 1_555 1_555
N11_3 Zn1_5 1_555 1_555
N19_2 N11_3 1_555 1_555
N13_3 N19_2 1_555 1_555
N21_3 C7_3 1_555 1_555
N15_3 C7_3 1_555 1_555
N22 Zn1_5 1_555 1_555
N17_3 N22 1_555 1_555
N18_3 N17_3 1_555 1_555
O2_3 Zn1_5 1_555 1_555
H6_3 O2_3 1_555 1_555
H7_3 O2_3 1_555 1_555
C6_3 N10_3 1_555 1_555
C7_3 H8_3 1_555 1_555
C8_3 N15_3 1_555 1_555
H9_3 C8_3 1_555 1_555
C9_3 C6_3 1_555 1_555
C10_3 N21_3 1_555 1_555
H10_3 C10_3 1_555 1_555
N13_3 C6_3 1_555 1_555
C8_3 C9_3 1_555 1_555
C9_3 C10_3 1_555 1_555
Zn1_6 N2_4 1_555 1_555
N1_4 N2_4 1_555 1_555
N2_4 N19_3 1_555 1_555
N19_3 N4_4 1_555 1_555
N4_4 C1_4 1_555 1_555
N21_2 C2_4 1_555 1_555
N6_4 C2_4 1_555 1_555
N22_4 Zn1_6 1_555 1_555
O1_4 Zn1_6 1_555 1_555
H1_4 O1_4 1_555 1_555
H2_4 O1_4 1_555 1_555
C1_4 N1_4 1_555 1_555
C3_4 N6_4 1_555 1_555
C4_4 C1_4 1_555 1_555
C5_4 N21_2 1_555 1_555
H5_4 C5_4 1_555 1_555
N10_4 N11_4 1_555 1_555
N11_4 Zn1_6 1_555 1_555
N19_4 N11_4 1_555 1_555
N13_4 N19_4 1_555 1_555
N21 C7_4 1_555 1_555
N15_4 C7_4 1_555 1_555
N22_3 Zn1_6 1_555 1_555
O2_4 Zn1_6 1_555 1_555
H6_4 O2_4 1_555 1_555
H7_4 O2_4 1_555 1_555
C6_4 N10_4 1_555 1_555
C8_4 N15_4 1_555 1_555
C9_4 C6_4 1_555 1_555
C10_4 N21 1_555 1_555
H10_4 C10_4 1_555 1_555
C3_4 C4_4 1_555 1_555
C4_4 C5_4 1_555 1_555
N13_4 C6_4 1_555 1_555
C8_4 C9_4 1_555 1_555
C9_4 C10_4 1_555 1_555
N9_4 N8_4 1_555 1_555
N18_4 N17_4 1_555 1_555

#END
