
###############################################################################
#
# This file contains modified crystal structure data generated from the
# MOF subset of the Cambridge Structural Database (CSD) v543 
# hosted by the Cambridge Crystallographic Data Centre (CCDC).
#
# This work is licensed under the Creative Commons
# Attribution-NonCommercial-ShareAlike 4.0 International License.
# To view a copy of this license, visit
# http://creativecommons.org/licenses/by-nc-sa/4.0/
# or send a letter to
# Creative Commons, PO Box 1866, Mountain View, CA 94042, USA.
#
# CIF created using the CSD Python API on 29 September 2022
# The structure has been converted into the P1 space group
# The structure has a 3D framework
# The original CSD entry YIJZIC06 is in the cubic crystal system
# The original CSD entry YIJZIC06 is in a Sohncke space group
# The framework has been calculated to contain at least 10.0% void space
# The void calculation uses a probe of radius 1.32A, grid spacing 0.4
#
###############################################################################

data_YIJZIC06
_chemical_formula_moiety         '(C24 O44 Zn8)n'
_symmetry_cell_setting           triclinic
_symmetry_space_group_name_H-M   'P 1'
_symmetry_Int_Tables_number      1
_space_group_name_Hall           'P 1'
loop_
_symmetry_equiv_pos_site_id
_symmetry_equiv_pos_as_xyz
1 x,y,z
_cell_length_a                   15.3704(6)
_cell_length_b                   15.3704(6)
_cell_length_c                   15.3704(6)
_cell_angle_alpha                90
_cell_angle_beta                 90
_cell_angle_gamma                90
_cell_volume                     3631.24
loop_
_atom_site_label
_atom_site_type_symbol
_atom_site_fract_x
_atom_site_fract_y
_atom_site_fract_z
O9 O 0.7221(4) 0.3620(4) 0.1302(4)
C5 C 0.6972(5) 0.3750 0.0528(5)
O11 O 0.6198(4) 0.3880(4) 0.0279(4)
O12 O 0.8450(4) 0.3693(4) 0.0058(3)
Zn4 Zn 0.85784(6) 0.35784(6) 0.14216(6)
Zn1 Zn 0.60784(6) 0.39216(6) 0.89216(6)
O1 O 0.3698(4) 0.2779(4) 0.8620(4)
O2 O 0.5950(4) 0.2558(3) 0.8807(4)
C1 C 0.4472(5) 0.3028(5) 0.8750
C2 C 0.5184(4) 0.2316(4) 0.8750
O3 O 0.4721(4) 0.3802(4) 0.8880(4)
O4 O 0.4942(3) 0.1550(4) 0.8693(4)
O5 O 0.6380(4) 0.6302(4) 0.7779(4)
O6 O 0.6193(4) 0.4050(4) 0.7558(3)
C3 C 0.6250 0.5528(5) 0.8028(5)
C4 C 0.6250 0.4816(4) 0.7316(4)
O7 O 0.6120(4) 0.5279(4) 0.8802(4)
O8 O 0.6307(4) 0.5058(3) 0.6550(4)
O10 O 0.7442(3) 0.3807(4) 0.9050(4)
C6 C 0.7684(4) 0.3750 0.9816(4)
Zn2 Zn 0.35784(6) 0.14216(6) 0.85784(6)
Zn3 Zn 0.64216(6) 0.64216(6) 0.64216(6)
O13 O 0.3620(4) 0.1302(4) 0.7221(4)
O14 O 0.2221(4) 0.1380(4) 0.8698(4)
O15 O 0.3450(4) 0.1307(4) 0.9942(3)
O16 O 0.3693(4) 0.0058(3) 0.8450(4)
O1_2 O 0.1302(4) 0.7221(4) 0.3620(4)
C1_2 C 0.0528(5) 0.6972(5) 0.3750
O3_2 O 0.0279(4) 0.6198(4) 0.3880(4)
O4_2 O 0.0058(3) 0.8450(4) 0.3693(4)
Zn2_2 Zn 0.14216(6) 0.85784(6) 0.35784(6)
O13_2 O 0.1380(4) 0.8698(4) 0.2221(4)
O14_2 O 0.2779(4) 0.8620(4) 0.3698(4)
O15_2 O 0.1550(4) 0.8693(4) 0.4942(3)
O16_2 O 0.1307(4) 0.9942(3) 0.3450(4)
Zn1_2 Zn 0.89216(6) 0.60784(6) 0.39216(6)
O2_2 O 0.9050(4) 0.7442(3) 0.3807(4)
C2_2 C 0.9816(4) 0.7684(4) 0.3750
O5_2 O 0.8620(4) 0.3698(4) 0.2779(4)
O6_2 O 0.8807(4) 0.5950(4) 0.2558(3)
C3_2 C 0.8750 0.4472(5) 0.3028(5)
C4_2 C 0.8750 0.5184(4) 0.2316(4)
O7_2 O 0.8880(4) 0.4721(4) 0.3802(4)
O8_2 O 0.8693(4) 0.4942(3) 0.1550(4)
O9_2 O 0.7779(4) 0.6380(4) 0.6302(4)
O10_2 O 0.7558(3) 0.6193(4) 0.4050(4)
C5_2 C 0.8028(5) 0.6250 0.5528(5)
C6_2 C 0.7316(4) 0.6250 0.4816(4)
O11_2 O 0.8802(4) 0.6120(4) 0.5279(4)
O12_2 O 0.6550(4) 0.6307(4) 0.5058(3)
C3_3 C 0.3750 0.0528(5) 0.6972(5)
O7_3 O 0.3880(4) 0.0279(4) 0.6198(4)
Zn1_3 Zn 0.39216(6) 0.89216(6) 0.60784(6)
O1_3 O 0.6302(4) 0.7779(4) 0.6380(4)
O2_3 O 0.4050(4) 0.7558(3) 0.6193(4)
C1_3 C 0.5528(5) 0.8028(5) 0.6250
C2_3 C 0.4816(4) 0.7316(4) 0.6250
O3_3 O 0.5279(4) 0.8802(4) 0.6120(4)
O4_3 O 0.5058(3) 0.6550(4) 0.6307(4)
O6_3 O 0.3807(4) 0.9050(4) 0.7442(3)
C4_3 C 0.3750 0.9816(4) 0.7684(4)
O10_3 O 0.2558(3) 0.8807(4) 0.5950(4)
C5_3 C 0.3028(5) 0.8750 0.4472(5)
C6_3 C 0.2316(4) 0.8750 0.5184(4)
O11_3 O 0.3802(4) 0.8880(4) 0.4721(4)
Zn1_4 Zn 0.10784(6) 0.10784(6) 0.10784(6)
O2_4 O 0.0950(4) 0.2442(3) 0.1193(4)
C2_4 C 0.0184(4) 0.2684(4) 0.1250
O6_4 O 0.1193(4) 0.0950(4) 0.2442(3)
C4_4 C 0.1250 0.0184(4) 0.2684(4)
O10_4 O 0.2442(3) 0.1193(4) 0.0950(4)
C6_4 C 0.2684(4) 0.1250 0.0184(4)
C5_4 C 0.1972(5) 0.1250 0.9472(5)
O11_4 O 0.1198(4) 0.1120(4) 0.9721(4)
C3_4 C 0.1250 0.9472(5) 0.1972(5)
O7_4 O 0.1120(4) 0.9721(4) 0.1198(4)
O1_4 O 0.8698(4) 0.2221(4) 0.1380(4)
C1_4 C 0.9472(5) 0.1972(5) 0.1250
O3_4 O 0.9721(4) 0.1198(4) 0.1120(4)
O4_4 O 0.9942(3) 0.3450(4) 0.1307(4)
loop_
_geom_bond_atom_site_label_1
_geom_bond_atom_site_label_2
_geom_bond_site_symmetry_1
_geom_bond_site_symmetry_2
O9 C5 1_555 1_555
Zn4 O9 1_555 1_555
C5 O11 1_555 1_555
O12 Zn4 1_555 1_555
Zn1 O2 1_555 1_555
O1 C1 1_555 1_555
O2 C2 1_555 1_555
C1 C2 1_555 1_555
C2 O4 1_555 1_555
O3 Zn1 1_555 1_555
O4 Zn2 1_555 1_555
O5 C3 1_555 1_555
O6 Zn1 1_555 1_555
C3 C4 1_555 1_555
C4 O6 1_555 1_555
O7 Zn1 1_555 1_555
O8 C4 1_555 1_555
O10 Zn1 1_555 1_555
C6 O10 1_555 1_555
Zn2 O1 1_555 1_555
Zn3 O5 1_555 1_555
O13 Zn2 1_555 1_555
O14 Zn2 1_555 1_555
O15 Zn2 1_555 1_555
O16 Zn2 1_555 1_555
C1 O3 1_555 1_555
C3 O7 1_555 1_555
O8 Zn3 1_555 1_555
O1_2 C1_2 1_555 1_555
O4_2 Zn2_2 1_555 1_555
Zn2_2 O1_2 1_555 1_555
O13_2 Zn2_2 1_555 1_555
O14_2 Zn2_2 1_555 1_555
O15_2 Zn2_2 1_555 1_555
O16_2 Zn2_2 1_555 1_555
C1_2 O3_2 1_555 1_555
Zn1_2 O2_2 1_555 1_555
O2_2 C2_2 1_555 1_555
O5_2 C3_2 1_555 1_555
O6_2 Zn1_2 1_555 1_555
C3_2 C4_2 1_555 1_555
C4_2 O6_2 1_555 1_555
O7_2 Zn1_2 1_555 1_555
O8_2 C4_2 1_555 1_555
O9_2 C5_2 1_555 1_555
O10_2 Zn1_2 1_555 1_555
C5_2 C6_2 1_555 1_555
C6_2 O10_2 1_555 1_555
O11_2 Zn1_2 1_555 1_555
O12_2 C6_2 1_555 1_555
Zn4 O5_2 1_555 1_555
Zn3 O9_2 1_555 1_555
C3_2 O7_2 1_555 1_555
O8_2 Zn4 1_555 1_555
C5_2 O11_2 1_555 1_555
O12_2 Zn3 1_555 1_555
O13 C3_3 1_555 1_555
C3_3 O7_3 1_555 1_555
Zn1_3 O2_3 1_555 1_555
O1_3 C1_3 1_555 1_555
O2_3 C2_3 1_555 1_555
C1_3 C2_3 1_555 1_555
C2_3 O4_3 1_555 1_555
O3_3 Zn1_3 1_555 1_555
O4_3 Zn3 1_555 1_555
O6_3 Zn1_3 1_555 1_555
C4_3 O6_3 1_555 1_555
O14_2 C5_3 1_555 1_555
O10_3 Zn1_3 1_555 1_555
C5_3 C6_3 1_555 1_555
C6_3 O10_3 1_555 1_555
O11_3 Zn1_3 1_555 1_555
O15_2 C6_3 1_555 1_555
Zn3 O1_3 1_555 1_555
C1_3 O3_3 1_555 1_555
C5_3 O11_3 1_555 1_555
Zn1_4 O2_4 1_555 1_555
O2_4 C2_4 1_555 1_555
O6_4 Zn1_4 1_555 1_555
C4_4 O6_4 1_555 1_555
O10_4 Zn1_4 1_555 1_555
C6_4 O10_4 1_555 1_555
O14 C5_4 1_555 1_555
C5_4 O11_4 1_555 1_555
O13_2 C3_4 1_555 1_555
C3_4 O7_4 1_555 1_555
O1_4 C1_4 1_555 1_555
O4_4 Zn4 1_555 1_555
Zn4 O1_4 1_555 1_555
C1_4 O3_4 1_555 1_555

#END
