
###############################################################################
#
# This file contains modified crystal structure data generated from the
# MOF subset of the Cambridge Structural Database (CSD) v543 
# hosted by the Cambridge Crystallographic Data Centre (CCDC).
#
# This work is licensed under the Creative Commons
# Attribution-NonCommercial-ShareAlike 4.0 International License.
# To view a copy of this license, visit
# http://creativecommons.org/licenses/by-nc-sa/4.0/
# or send a letter to
# Creative Commons, PO Box 1866, Mountain View, CA 94042, USA.
#
# CIF created using the CSD Python API on 29 September 2022
# The structure has been converted into the P1 space group
# The structure has a 3D framework
# The original CSD entry YIJZIC04 is in the cubic crystal system
# The original CSD entry YIJZIC04 is in a Sohncke space group
# The framework has been calculated to contain at least 10.0% void space
# The void calculation uses a probe of radius 1.32A, grid spacing 0.4
#
###############################################################################

data_YIJZIC04
_chemical_formula_moiety         '(C24 O44 Zn8)n'
_symmetry_cell_setting           triclinic
_symmetry_space_group_name_H-M   'P 1'
_symmetry_Int_Tables_number      1
_space_group_name_Hall           'P 1'
loop_
_symmetry_equiv_pos_site_id
_symmetry_equiv_pos_as_xyz
1 x,y,z
_cell_length_a                   15.3428(4)
_cell_length_b                   15.3428(4)
_cell_length_c                   15.3428(4)
_cell_angle_alpha                90
_cell_angle_beta                 90
_cell_angle_gamma                90
_cell_volume                     3611.72
loop_
_atom_site_label
_atom_site_type_symbol
_atom_site_fract_x
_atom_site_fract_y
_atom_site_fract_z
O1 O 0.0284(3) 0.3804(4) 0.1115(4)
C2 C 0.0532(4) 0.3032(4) 0.1250
O3 O 0.1304(4) 0.2784(3) 0.1385(4)
O4 O 0.0066(3) 0.1545(3) 0.1309(4)
Zn2 Zn 0.14254(5) 0.14254(5) 0.14254(5)
O13 O 0.2784(3) 0.1385(4) 0.1304(4)
O14 O 0.1385(4) 0.1304(4) 0.2784(3)
O15 O 0.1545(3) 0.1309(4) 0.0066(3)
O16 O 0.1309(4) 0.0066(3) 0.1545(3)
Zn1 Zn 0.89254(5) 0.39254(5) 0.10746(5)
O2 O 0.9045(3) 0.2566(3) 0.1191(4)
C1 C 0.9819(4) 0.2319(4) 0.1250
O5 O 0.8885(4) 0.5284(3) 0.1196(4)
O6 O 0.8809(4) 0.4045(3) 0.2434(3)
C3 C 0.8750 0.4819(4) 0.2681(4)
C4 C 0.8750 0.5532(4) 0.1968(4)
O7 O 0.8615(4) 0.6304(4) 0.2216(3)
O8 O 0.8691(4) 0.5066(3) 0.3455(3)
O10 O 0.7566(3) 0.3809(4) 0.0955(3)
C5 C 0.7319(4) 0.3750 0.0181(4)
Zn3 Zn 0.85746(5) 0.64254(5) 0.35746(5)
O9 O 0.8804(4) 0.3885(4) 0.9716(3)
C6 C 0.8032(4) 0.3750 0.9468(4)
O11 O 0.7784(3) 0.3615(4) 0.8696(4)
O12 O 0.6545(3) 0.3691(4) 0.9934(3)
Zn4 Zn 0.64254(5) 0.35746(5) 0.85746(5)
O13_2 O 0.1115(4) 0.0284(3) 0.3804(4)
C1_2 C 0.0181(4) 0.7319(4) 0.3750
O4_2 O 0.0955(3) 0.7566(3) 0.3809(4)
Zn2_2 Zn 0.10746(5) 0.89254(5) 0.39254(5)
O14_2 O 0.1196(4) 0.8885(4) 0.5284(3)
O15_2 O 0.1191(4) 0.9045(3) 0.2566(3)
O16_2 O 0.2434(3) 0.8809(4) 0.4045(3)
O1_2 O 0.8696(4) 0.7784(3) 0.3615(4)
O2_2 O 0.9934(3) 0.6545(3) 0.3691(4)
C2_2 C 0.9468(4) 0.8032(4) 0.3750
O3_2 O 0.9716(3) 0.8804(4) 0.3885(4)
O5_2 O 0.7216(3) 0.6385(4) 0.3696(4)
O6_2 O 0.8455(3) 0.6309(4) 0.4934(3)
C3_2 C 0.7681(4) 0.6250 0.5181(4)
C4_2 C 0.6968(4) 0.6250 0.4468(4)
O7_2 O 0.6196(4) 0.6115(4) 0.4716(3)
O8_2 O 0.7434(3) 0.6191(4) 0.5955(3)
Zn3_2 Zn 0.60746(5) 0.60746(5) 0.60746(5)
O1_3 O 0.4716(3) 0.6196(4) 0.6115(4)
O2_3 O 0.5955(3) 0.7434(3) 0.6191(4)
C1_3 C 0.5181(4) 0.7681(4) 0.6250
C2_3 C 0.4468(4) 0.6968(4) 0.6250
O3_3 O 0.3696(4) 0.7216(3) 0.6385(4)
O4_3 O 0.4934(3) 0.8455(3) 0.6309(4)
O5_3 O 0.6115(4) 0.4716(3) 0.6196(4)
O6_3 O 0.6191(4) 0.5955(3) 0.7434(3)
C3_3 C 0.6250 0.5181(4) 0.7681(4)
C4_3 C 0.6250 0.4468(4) 0.6968(4)
O7_3 O 0.6385(4) 0.3696(4) 0.7216(3)
O8_3 O 0.6309(4) 0.4934(3) 0.8455(3)
Zn2_3 Zn 0.35746(5) 0.85746(5) 0.64254(5)
O13_3 O 0.2216(3) 0.8615(4) 0.6304(4)
O14_3 O 0.3615(4) 0.8696(4) 0.7784(3)
O15_3 O 0.3455(3) 0.8691(4) 0.5066(3)
O16_3 O 0.3691(4) 0.9934(3) 0.6545(3)
O14_4 O 0.3804(4) 0.1115(4) 0.0284(3)
O1_4 O 0.6304(4) 0.2216(3) 0.8615(4)
O2_4 O 0.5066(3) 0.3455(3) 0.8691(4)
C1_4 C 0.4819(4) 0.2681(4) 0.8750
C2_4 C 0.5532(4) 0.1968(4) 0.8750
O3_4 O 0.5284(3) 0.1196(4) 0.8885(4)
O4_4 O 0.4045(3) 0.2434(3) 0.8809(4)
Zn2_4 Zn 0.39254(5) 0.10746(5) 0.89254(5)
O15_4 O 0.3809(4) 0.0955(3) 0.7566(3)
O16_4 O 0.2566(3) 0.1191(4) 0.9045(3)
O13_4 O 0.3885(4) 0.9716(3) 0.8804(4)
C2_5 C 0.3032(4) 0.1250 0.0532(4)
C4_4 C 0.1250 0.0532(4) 0.3032(4)
C1_5 C 0.2319(4) 0.1250 0.9819(4)
C3_4 C 0.1250 0.9819(4) 0.2319(4)
C3_5 C 0.3750 0.0181(4) 0.7319(4)
C4_5 C 0.3750 0.9468(4) 0.8032(4)
C5_2 C 0.2681(4) 0.8750 0.4819(4)
C6_2 C 0.1968(4) 0.8750 0.5532(4)
loop_
_geom_bond_atom_site_label_1
_geom_bond_atom_site_label_2
_geom_bond_site_symmetry_1
_geom_bond_site_symmetry_2
O1 C2 1_555 1_555
O3 C2 1_555 1_555
Zn2 O3 1_555 1_555
O13 Zn2 1_555 1_555
O14 Zn2 1_555 1_555
O15 Zn2 1_555 1_555
O16 Zn2 1_555 1_555
O4 Zn2 1_555 1_555
O2 Zn1 1_555 1_555
C1 O2 1_555 1_555
O5 Zn1 1_555 1_555
O6 Zn1 1_555 1_555
C3 O6 1_555 1_555
C4 O5 1_555 1_555
O7 C4 1_555 1_555
O8 C3 1_555 1_555
O10 Zn1 1_555 1_555
C5 O10 1_555 1_555
Zn3 O7 1_555 1_555
C3 C4 1_555 1_555
O8 Zn3 1_555 1_555
C6 O9 1_555 1_555
O11 C6 1_555 1_555
Zn4 O11 1_555 1_555
O12 Zn4 1_555 1_555
O4_2 C1_2 1_555 1_555
O14_2 Zn2_2 1_555 1_555
O15_2 Zn2_2 1_555 1_555
O16_2 Zn2_2 1_555 1_555
O4_2 Zn2_2 1_555 1_555
Zn3 O1_2 1_555 1_555
O1_2 C2_2 1_555 1_555
O2_2 Zn3 1_555 1_555
O3_2 C2_2 1_555 1_555
O5_2 Zn3 1_555 1_555
O6_2 Zn3 1_555 1_555
C3_2 O6_2 1_555 1_555
C4_2 O5_2 1_555 1_555
O7_2 C4_2 1_555 1_555
O8_2 C3_2 1_555 1_555
Zn3_2 O7_2 1_555 1_555
C3_2 C4_2 1_555 1_555
O8_2 Zn3_2 1_555 1_555
Zn3_2 O1_3 1_555 1_555
O1_3 C2_3 1_555 1_555
O2_3 Zn3_2 1_555 1_555
C1_3 O2_3 1_555 1_555
C2_3 C1_3 1_555 1_555
O3_3 C2_3 1_555 1_555
O4_3 C1_3 1_555 1_555
O5_3 Zn3_2 1_555 1_555
O6_3 Zn3_2 1_555 1_555
C3_3 O6_3 1_555 1_555
C4_3 O5_3 1_555 1_555
O7_3 C4_3 1_555 1_555
O8_3 C3_3 1_555 1_555
Zn2_3 O3_3 1_555 1_555
Zn4 O7_3 1_555 1_555
O13_3 Zn2_3 1_555 1_555
O14_3 Zn2_3 1_555 1_555
O15_3 Zn2_3 1_555 1_555
O16_3 Zn2_3 1_555 1_555
O4_3 Zn2_3 1_555 1_555
C3_3 C4_3 1_555 1_555
O8_3 Zn4 1_555 1_555
Zn4 O1_4 1_555 1_555
O1_4 C2_4 1_555 1_555
O2_4 Zn4 1_555 1_555
C1_4 O2_4 1_555 1_555
C2_4 C1_4 1_555 1_555
O3_4 C2_4 1_555 1_555
O4_4 C1_4 1_555 1_555
Zn2_4 O3_4 1_555 1_555
O15_4 Zn2_4 1_555 1_555
O16_4 Zn2_4 1_555 1_555
O4_4 Zn2_4 1_555 1_555
O13 C2_5 1_555 1_555
O14_4 C2_5 1_555 1_555
C4_4 O14 1_555 1_555
O13_2 C4_4 1_555 1_555
O16_4 C1_5 1_555 1_555
O15_2 C3_4 1_555 1_555
C3_5 O15_4 1_555 1_555
C4_5 O13_4 1_555 1_555
O14_3 C4_5 1_555 1_555
C5_2 O16_2 1_555 1_555
C6_2 O14_2 1_555 1_555
O13_3 C6_2 1_555 1_555
O15_3 C5_2 1_555 1_555
C5_2 C6_2 1_555 1_555

#END
