
###############################################################################
#
# This file contains modified crystal structure data generated from the
# MOF subset of the Cambridge Structural Database (CSD) v543 
# hosted by the Cambridge Crystallographic Data Centre (CCDC).
#
# This work is licensed under the Creative Commons
# Attribution-NonCommercial-ShareAlike 4.0 International License.
# To view a copy of this license, visit
# http://creativecommons.org/licenses/by-nc-sa/4.0/
# or send a letter to
# Creative Commons, PO Box 1866, Mountain View, CA 94042, USA.
#
# CIF created using the CSD Python API on 29 September 2022
# The structure has been converted into the P1 space group
# The structure has a 3D framework
# The original CSD entry YIKLUZ is in the orthorhombic crystal system
# The framework has been calculated to contain at least 10.0% void space
# The void calculation uses a probe of radius 1.32A, grid spacing 0.4
# H atom positions have been added when not included in the experimental data
#
###############################################################################

data_YIKLUZ
_chemical_formula_moiety         '(C24 H40 O38 P8 Zn8)n'
_symmetry_cell_setting           triclinic
_symmetry_space_group_name_H-M   'P 1'
_symmetry_Int_Tables_number      1
_space_group_name_Hall           'P 1'
loop_
_symmetry_equiv_pos_site_id
_symmetry_equiv_pos_as_xyz
1 x,y,z
_cell_length_a                   9.885(1)
_cell_length_b                   10.020(1)
_cell_length_c                   16.438(3)
_cell_angle_alpha                90
_cell_angle_beta                 90
_cell_angle_gamma                90
_cell_volume                     1628.15
loop_
_atom_site_label
_atom_site_type_symbol
_atom_site_fract_x
_atom_site_fract_y
_atom_site_fract_z
Zn1 Zn 0.3562(1) 0.4034(1) 0.20335(8)
O1 O 0.1620(8) 0.4186(9) 0.2202(5)
O3 O 0.0664(9) 0.2107(8) 0.2876(6)
O4 O 0.084(1) 0.334(1) 0.5987(5)
P1 P 0.0729(3) 0.3627(3) 0.2872(2)
C1 C 0.141(1) 0.412(1) 0.3822(7)
C2 C 0.084(1) 0.341(2) 0.4548(8)
C3 C 0.139(1) 0.389(1) 0.5384(7)
O5 O 0.227(1) 0.474(1) 0.5414(6)
Zn2 Zn 0.1438(1) 0.4034(1) 0.70335(8)
Zn3 Zn 0.1438(1) 0.0966(1) 0.20335(8)
O6 O 0.4289(8) 0.5826(8) 0.2191(5)
O7 O 0.4336(9) 0.2893(8) 0.2876(6)
O8 O 0.416(1) 0.334(1) 0.0987(5)
H1 H 0.107132 0.235215 0.448681
H3 H 0.307381 0.437548 0.570019
H4 H 0.1222 0.518363 0.389786
H5 H 0.249609 0.393944 0.380749
O2 O 0.9289(8) 0.4174(8) 0.2809(5)
Zn4 Zn 0.8562(1) 0.5966(1) 0.29665(8)
H2 H 0.974751 0.354997 0.454622
O1_2 O 0.3380(8) 0.0814(9) 0.2202(5)
O2_2 O 0.5711(8) 0.0826(8) 0.2809(5)
O4_2 O 0.416(1) 0.166(1) 0.5987(5)
P1_2 P 0.4271(3) 0.1373(3) 0.2872(2)
C1_2 C 0.359(1) 0.088(1) 0.3822(7)
C2_2 C 0.416(1) 0.159(2) 0.4548(8)
C3_2 C 0.361(1) 0.111(1) 0.5384(7)
O5_2 O 0.273(1) 0.026(1) 0.5414(6)
Zn2_2 Zn 0.3562(1) 0.0966(1) 0.70335(8)
O8_2 O 0.084(1) 0.166(1) 0.0987(5)
H1_2 H 0.392868 0.264785 0.448681
H2_2 H 0.525249 0.145003 0.454622
H3_2 H 0.192619 0.062452 0.570019
H5_2 H 0.250391 0.106056 0.380749
Zn4_2 Zn 0.6438(1) 0.9034(1) 0.29665(8)
O6_2 O 0.0711(8) 0.9174(8) 0.2191(5)
H4_2 H 0.3778 0.981637 0.389786
O1_3 O 0.6620(8) 0.5814(9) 0.2798(5)
O3_2 O 0.5664(9) 0.7893(8) 0.2124(6)
P1_3 P 0.5729(3) 0.6373(3) 0.2128(2)
C1_3 C 0.641(1) 0.588(1) 0.1178(7)
C2_3 C 0.584(1) 0.659(2) 0.0452(8)
O7_2 O 0.9336(9) 0.7107(8) 0.2124(6)
O8_3 O 0.916(1) 0.666(1) 0.4013(5)
H1_3 H 0.607132 0.764785 0.0513188
H2_3 H 0.474751 0.645003 0.0453782
H4_3 H 0.6222 0.481637 0.110214
H5_3 H 0.749609 0.606056 0.119251
O4_3 O 0.584(1) 0.666(1) 0.9013(5)
C3_3 C 0.639(1) 0.611(1) 0.9616(7)
O5_3 O 0.727(1) 0.526(1) 0.9586(6)
Zn2_3 Zn 0.6438(1) 0.5966(1) 0.79665(8)
H3_3 H 0.807381 0.562452 0.929981
H2_4 H 0.025249 0.854997 0.0453782
H4_4 H 0.8778 0.0183629 0.110214
O1_4 O 0.8380(8) 0.9186(9) 0.2798(5)
P1_4 P 0.9271(3) 0.8627(3) 0.2128(2)
C1_4 C 0.859(1) 0.912(1) 0.1178(7)
C2_4 C 0.916(1) 0.841(2) 0.0452(8)
O8_4 O 0.584(1) 0.834(1) 0.4013(5)
H1_4 H 0.892868 0.735215 0.0513188
H5_4 H 0.750391 0.893944 0.119251
O4_4 O 0.916(1) 0.834(1) 0.9013(5)
C3_4 C 0.861(1) 0.889(1) 0.9616(7)
O5_4 O 0.773(1) 0.974(1) 0.9586(6)
Zn2_4 Zn 0.8562(1) 0.9034(1) 0.79665(8)
H3_4 H 0.692619 0.937548 0.929981
O2_3 O 0.0711(8) 0.5826(8) 0.7191(5)
H2_5 H 0.025249 0.645003 0.545378
O1_5 O 0.8380(8) 0.5814(9) 0.7798(5)
O3_3 O 0.9336(9) 0.7893(8) 0.7124(6)
P1_5 P 0.9271(3) 0.6373(3) 0.7128(2)
C1_5 C 0.859(1) 0.588(1) 0.6178(7)
C2_5 C 0.916(1) 0.659(2) 0.5452(8)
C3_5 C 0.861(1) 0.611(1) 0.4616(7)
O5_5 O 0.773(1) 0.526(1) 0.4586(6)
O6_3 O 0.5711(8) 0.4174(8) 0.7809(5)
O7_3 O 0.5664(9) 0.7107(8) 0.7124(6)
H1_5 H 0.892868 0.764785 0.551319
H3_5 H 0.692619 0.562452 0.429981
H4_5 H 0.8778 0.481637 0.610214
H5_5 H 0.750391 0.606056 0.619251
O6_4 O 0.9289(8) 0.0826(8) 0.7809(5)
H4_6 H 0.6222 0.0183629 0.610214
O1_6 O 0.6620(8) 0.9186(9) 0.7798(5)
O2_4 O 0.4289(8) 0.9174(8) 0.7191(5)
P1_6 P 0.5729(3) 0.8627(3) 0.7128(2)
C1_6 C 0.641(1) 0.912(1) 0.6178(7)
C2_6 C 0.584(1) 0.841(2) 0.5452(8)
C3_6 C 0.639(1) 0.889(1) 0.4616(7)
O5_6 O 0.727(1) 0.974(1) 0.4586(6)
H1_6 H 0.607132 0.735215 0.551319
H2_6 H 0.474751 0.854997 0.545378
H3_6 H 0.807381 0.937548 0.429981
H5_6 H 0.749609 0.893944 0.619251
C3_7 C 0.361(1) 0.389(1) 0.0384(7)
O5_7 O 0.273(1) 0.474(1) 0.0414(6)
H3_7 H 0.192619 0.437548 0.0700187
O1_7 O 0.3380(8) 0.4186(9) 0.7202(5)
O3_4 O 0.4336(9) 0.2107(8) 0.7876(6)
P1_7 P 0.4271(3) 0.3627(3) 0.7872(2)
C1_7 C 0.359(1) 0.412(1) 0.8822(7)
C2_7 C 0.416(1) 0.341(2) 0.9548(8)
O7_4 O 0.0664(9) 0.2893(8) 0.7876(6)
H1_7 H 0.392868 0.235215 0.948681
H2_7 H 0.525249 0.354997 0.954622
H4_7 H 0.3778 0.518363 0.889786
H5_7 H 0.250391 0.393944 0.880749
C3_8 C 0.139(1) 0.111(1) 0.0384(7)
O5_8 O 0.227(1) 0.026(1) 0.0414(6)
H3_8 H 0.307381 0.062452 0.0700187
O1_8 O 0.1620(8) 0.0814(9) 0.7202(5)
P1_8 P 0.0729(3) 0.1373(3) 0.7872(2)
C1_8 C 0.141(1) 0.088(1) 0.8822(7)
C2_8 C 0.084(1) 0.159(2) 0.9548(8)
H1_8 H 0.107132 0.264785 0.948681
H5_8 H 0.249609 0.106056 0.880749
H4_8 H 0.1222 0.981637 0.889786
H2_8 H 0.974751 0.145003 0.954622
loop_
_geom_bond_atom_site_label_1
_geom_bond_atom_site_label_2
_geom_bond_site_symmetry_1
_geom_bond_site_symmetry_2
Zn1 O1 1_555 1_555
O1 P1 1_555 1_555
O3 P1 1_555 1_555
O4 C3 1_555 1_555
P1 C1 1_555 1_555
C1 C2 1_555 1_555
C2 C3 1_555 1_555
C3 O5 1_555 1_555
Zn2 O4 1_555 1_555
Zn3 O3 1_555 1_555
O6 Zn1 1_555 1_555
O7 Zn1 1_555 1_555
O8 Zn1 1_555 1_555
C2 H1 1_555 1_555
O5 H3 1_555 1_555
C1 H4 1_555 1_555
C1 H5 1_555 1_555
Zn4 O2 1_555 1_555
Zn3 O1_2 1_555 1_555
O1_2 P1_2 1_555 1_555
O2_2 P1_2 1_555 1_555
O7 P1_2 1_555 1_555
O4_2 C3_2 1_555 1_555
P1_2 C1_2 1_555 1_555
C1_2 C2_2 1_555 1_555
C2_2 C3_2 1_555 1_555
C3_2 O5_2 1_555 1_555
Zn2_2 O4_2 1_555 1_555
O8_2 Zn3 1_555 1_555
C2_2 H1_2 1_555 1_555
C2_2 H2_2 1_555 1_555
O5_2 H3_2 1_555 1_555
C1_2 H5_2 1_555 1_555
Zn4 O1_3 1_555 1_555
O1_3 P1_3 1_555 1_555
O6 P1_3 1_555 1_555
O3_2 P1_3 1_555 1_555
P1_3 C1_3 1_555 1_555
C1_3 C2_3 1_555 1_555
Zn4_2 O3_2 1_555 1_555
O7_2 Zn4 1_555 1_555
O8_3 Zn4 1_555 1_555
C2_3 H1_3 1_555 1_555
C2_3 H2_3 1_555 1_555
C1_3 H4_3 1_555 1_555
C1_3 H5_3 1_555 1_555
O4_3 C3_3 1_555 1_555
C3_3 O5_3 1_555 1_555
Zn2_3 O4_3 1_555 1_555
O5_3 H3_3 1_555 1_555
Zn4_2 O1_4 1_555 1_555
O1_4 P1_4 1_555 1_555
O7_2 P1_4 1_555 1_555
P1_4 C1_4 1_555 1_555
C1_4 C2_4 1_555 1_555
O8_4 Zn4_2 1_555 1_555
C2_4 H1_4 1_555 1_555
C1_4 H5_4 1_555 1_555
O4_4 C3_4 1_555 1_555
C3_4 O5_4 1_555 1_555
Zn2_4 O4_4 1_555 1_555
O5_4 H3_4 1_555 1_555
Zn2 O2_3 1_555 1_555
Zn2_3 O1_5 1_555 1_555
O1_5 P1_5 1_555 1_555
O3_3 P1_5 1_555 1_555
O8_3 C3_5 1_555 1_555
P1_5 C1_5 1_555 1_555
C1_5 C2_5 1_555 1_555
C2_5 C3_5 1_555 1_555
C3_5 O5_5 1_555 1_555
Zn2_4 O3_3 1_555 1_555
O6_3 Zn2_3 1_555 1_555
O7_3 Zn2_3 1_555 1_555
C2_5 H1_5 1_555 1_555
O5_5 H3_5 1_555 1_555
C1_5 H4_5 1_555 1_555
C1_5 H5_5 1_555 1_555
Zn2_4 O1_6 1_555 1_555
O1_6 P1_6 1_555 1_555
O2_4 P1_6 1_555 1_555
O7_3 P1_6 1_555 1_555
O8_4 C3_6 1_555 1_555
P1_6 C1_6 1_555 1_555
C1_6 C2_6 1_555 1_555
C2_6 C3_6 1_555 1_555
C3_6 O5_6 1_555 1_555
C2_6 H1_6 1_555 1_555
C2_6 H2_6 1_555 1_555
O5_6 H3_6 1_555 1_555
C1_6 H5_6 1_555 1_555
O8 C3_7 1_555 1_555
C3_7 O5_7 1_555 1_555
O5_7 H3_7 1_555 1_555
Zn2 O1_7 1_555 1_555
O1_7 P1_7 1_555 1_555
O6_3 P1_7 1_555 1_555
O3_4 P1_7 1_555 1_555
P1_7 C1_7 1_555 1_555
C1_7 C2_7 1_555 1_555
Zn2_2 O3_4 1_555 1_555
O7_4 Zn2 1_555 1_555
C2_7 H1_7 1_555 1_555
C2_7 H2_7 1_555 1_555
C1_7 H4_7 1_555 1_555
C1_7 H5_7 1_555 1_555
O8_2 C3_8 1_555 1_555
C3_8 O5_8 1_555 1_555
O5_8 H3_8 1_555 1_555
Zn2_2 O1_8 1_555 1_555
O1_8 P1_8 1_555 1_555
O7_4 P1_8 1_555 1_555
P1_8 C1_8 1_555 1_555
C1_8 C2_8 1_555 1_555
C2_8 H1_8 1_555 1_555
C1_8 H5_8 1_555 1_555

#END
