
###############################################################################
#
# This file contains modified crystal structure data generated from the
# MOF subset of the Cambridge Structural Database (CSD) v543 
# hosted by the Cambridge Crystallographic Data Centre (CCDC).
#
# This work is licensed under the Creative Commons
# Attribution-NonCommercial-ShareAlike 4.0 International License.
# To view a copy of this license, visit
# http://creativecommons.org/licenses/by-nc-sa/4.0/
# or send a letter to
# Creative Commons, PO Box 1866, Mountain View, CA 94042, USA.
#
# CIF created using the CSD Python API on 29 September 2022
# The structure has been converted into the P1 space group
# The structure has a 3D framework
# The original CSD entry YINXIE is in the triclinic crystal system
# The framework has been calculated to contain at least 10.0% void space
# The void calculation uses a probe of radius 1.32A, grid spacing 0.4
# The framework is charged, counterions have been retained in the structure
# H atom positions have been added when not included in the experimental data
# Generated hydrogen atom positions removed from atoms on special positions
#
###############################################################################

data_YINXIE
_chemical_formula_moiety         '(C42 H38 Cu4 N18 O14)n'
_symmetry_cell_setting           triclinic
_symmetry_space_group_name_H-M   'P 1'
_symmetry_Int_Tables_number      1
_space_group_name_Hall           'P 1'
loop_
_symmetry_equiv_pos_site_id
_symmetry_equiv_pos_as_xyz
1 x,y,z
_cell_length_a                   11.1920(6)
_cell_length_b                   12.4010(8)
_cell_length_c                   12.5660(7)
_cell_angle_alpha                64.424(6)
_cell_angle_beta                 75.586(5)
_cell_angle_gamma                80.446(5)
_cell_volume                     1520.22
loop_
_atom_site_label
_atom_site_type_symbol
_atom_site_fract_x
_atom_site_fract_y
_atom_site_fract_z
Cu2 Cu -0.0000 0.5000 0.5000
O7 O 0.1011(4) 0.5273(5) 0.3424(4)
O17 O 0.1218(3) 0.5730(3) 0.5307(4)
O18 O 0.1905(4) 0.3831(3) 0.5937(4)
C23 C 0.1050(4) 0.9701(4) 0.0501(4)
H16 H 0.0696 0.8138 0.2708
C28 C 0.2213(4) 0.9353(4) 0.1021(4)
H20 H 0.2933 0.9511 0.0371
H21 H 0.2247 0.8502 0.1530
C29 C 0.2730(4) 0.9651(4) 0.2701(4)
H22 H 0.3039 0.8873 0.3111
C6 C 0.1385(4) 0.9850(5) 0.5880(4)
H4 H 0.1396 0.9196 0.5697
C33 C 0.3805(4) 0.8727(5) 0.7695(4)
H27 H 0.3867 0.7970 0.7696
N16 N 0.4674(3) 0.9528(4) 0.7049(3)
N18 N 0.2860(4) 0.9126(4) 0.8324(4)
Cu8 Cu 0.62266(5) 0.93996(5) 0.58818(4)
O16 O 0.3885(3) 0.8704(3) 0.5049(3)
C3 C 0.8882(4) 0.9509(4) 0.0705(4)
C10 C 0.7679(4) 0.8948(4) 0.1446(4)
H9 H 0.7271 0.8772 0.0947
H10 H 0.7851 0.8199 0.2104
C11 C 0.5762(4) 0.9527(4) 0.2694(4)
H11 H 0.5371 0.8818 0.2996
N8 N 0.6850(3) 0.9759(3) 0.1935(3)
C22 C 0.9934(4) 0.9213(4) 0.1220(4)
C25 C 0.9866(4) 0.8360(4) 0.2545(4)
H17 H 0.9500 0.7635 0.2707
C26 C 0.8110(4) 0.8561(4) 0.4166(4)
H18 H 0.7714 0.7880 0.4359
N10 N 0.7737(3) 0.9335(4) 0.4672(3)
N11 N 0.9132(3) 0.8910(3) 0.3347(3)
N12 N 0.9472(4) 0.9927(4) 0.3312(4)
C9 C 0.7836(4) 0.8511(5) 0.7834(4)
H8 H 0.7992 0.7749 0.7838
N4 N 0.7290(3) 0.9438(4) 0.7006(3)
N5 N 0.7762(3) 0.9974(3) 0.8274(3)
N6 N 0.8130(4) 0.8791(4) 0.8642(4)
C34 C 0.4418(4) 0.6624(4) 0.5885(4)
C35 C 0.3354(4) 0.6374(4) 0.5669(4)
H28 H 0.2797 0.6996 0.5314
C36 C 0.3126(4) 0.5201(4) 0.5981(4)
C37 C 0.3978(4) 0.4278(4) 0.6500(4)
H29 H 0.3831 0.3490 0.6703
C38 C 0.5037(4) 0.4517(4) 0.6717(4)
C39 C 0.5250(4) 0.5692(4) 0.6403(4)
H30 H 0.5962 0.5861 0.6541
C40 C 0.4651(4) 0.7907(4) 0.5527(4)
C41 C 0.2021(5) 0.4879(5) 0.5737(5)
C42 C 0.5940(5) 0.3484(5) 0.7271(5)
O8 O 0.5632(3) 0.8070(3) 0.5761(3)
O12 O 0.5656(4) 0.2455(3) 0.7520(4)
O13 O 0.6883(4) 0.3707(4) 0.7478(4)
C30 C 0.2164(4) 0.1489(5) 0.2166(4)
H23 H 0.2008 0.2251 0.2162
N13 N 0.2710(3) 0.0562(4) 0.2994(3)
N14 N 0.2238(3) 0.0026(3) 0.1726(3)
N15 N 0.1870(4) 0.1209(4) 0.1358(4)
Cu6 Cu 0.37734(5) 0.06004(5) 0.41182(4)
Cu2_2 Cu 1.0000 0.5000 0.5000
C1 C 0.0066(4) 0.0787(4) 0.8780(4)
C4 C 0.0134(4) 0.1640(4) 0.7455(4)
H2 H 0.0500 0.2365 0.7293
C5 C 0.1890(4) 0.1439(4) 0.5834(4)
H3 H 0.2286 0.2120 0.5641
C13 C 0.5582(4) 0.3376(4) 0.4115(4)
C14 C 0.6646(4) 0.3626(4) 0.4331(4)
H13 H 0.7203 0.3004 0.4686
C15 C 0.6874(4) 0.4799(4) 0.4019(4)
C16 C 0.6022(4) 0.5722(4) 0.3500(4)
H14 H 0.6169 0.6510 0.3297
C17 C 0.4963(4) 0.5483(4) 0.3283(4)
C18 C 0.4750(4) 0.4308(4) 0.3597(4)
H15 H 0.4038 0.4139 0.3459
C19 C 0.5349(4) 0.2093(4) 0.4473(4)
C20 C 0.7979(5) 0.5121(5) 0.4263(5)
C21 C 0.4060(5) 0.6516(5) 0.2729(5)
N1 N 0.2263(3) 0.0665(4) 0.5328(3)
N2 N 0.0868(3) 0.1090(3) 0.6653(3)
N3 N 0.0528(4) 0.0073(4) 0.6688(4)
O1 O 0.4368(3) 0.1930(3) 0.4239(3)
O2 O 0.6115(3) 0.1296(3) 0.4951(3)
O3 O 0.8782(3) 0.4270(3) 0.4693(4)
O4 O 0.8095(4) 0.6169(3) 0.4063(4)
O5 O 0.4344(4) 0.7545(3) 0.2480(4)
O6 O 0.3117(4) 0.6293(4) 0.2522(4)
C24 C 0.1118(4) 0.0491(4) 0.9295(4)
C31 C 0.2321(4) 0.1052(4) 0.8554(4)
H24 H 0.2729 0.1228 0.9053
H25 H 0.2149 0.1801 0.7896
C32 C 0.4238(4) 0.0473(4) 0.7306(4)
H26 H 0.4629 0.1182 0.7004
N17 N 0.3150(3) 0.0241(3) 0.8065(3)
O14 O 0.8989(4) 0.4727(5) 0.6576(4)
N21 N 0.5326(3) 0.0472(4) 0.2951(3)
C12 C 0.6195(4) 0.1273(5) 0.2305(4)
H12 H 0.6133 0.2030 0.2304
N9 N 0.7140(4) 0.0874(4) 0.1676(4)
C27 C 0.8615(4) 0.0150(5) 0.4120(4)
H19 H 0.8604 0.0804 0.4303
C2 C 0.8950(4) 0.0299(4) 0.9499(4)
H1 H 0.9304 0.1862 0.7292
C7 C 0.7787(4) 0.0647(4) 0.8979(4)
H5 H 0.7067 0.0489 0.9629
H6 H 0.7753 0.1498 0.8470
C8 C 0.7270(4) 0.0349(4) 0.7299(4)
H7 H 0.6961 0.1127 0.6889
loop_
_geom_bond_atom_site_label_1
_geom_bond_atom_site_label_2
_geom_bond_site_symmetry_1
_geom_bond_site_symmetry_2
O7 Cu2 1_555 1_555
O17 Cu2 1_555 1_555
O18 Cu2 1_555 1_555
C28 C23 1_555 1_555
H20 C28 1_555 1_555
H21 C28 1_555 1_555
C29 H22 1_555 1_555
C6 H4 1_555 1_555
C33 H27 1_555 1_555
N18 C33 1_555 1_555
C33 N16 1_555 1_555
N16 Cu8 1_555 1_555
C3 C10 1_555 1_555
C10 H9 1_555 1_555
H10 C10 1_555 1_555
C11 H11 1_555 1_555
N8 C10 1_555 1_555
C22 C3 1_555 1_555
C25 C22 1_555 1_555
H17 C25 1_555 1_555
C26 H18 1_555 1_555
N10 C26 1_555 1_555
N11 C25 1_555 1_555
Cu8 N10 1_555 1_555
C11 N8 1_555 1_555
C26 N11 1_555 1_555
N11 N12 1_555 1_555
C9 H8 1_555 1_555
N6 C9 1_555 1_555
Cu8 N4 1_555 1_555
C34 C35 1_555 1_555
C35 H28 1_555 1_555
C36 C35 1_555 1_555
C37 C36 1_555 1_555
H29 C37 1_555 1_555
C38 C37 1_555 1_555
C39 C34 1_555 1_555
H30 C39 1_555 1_555
C40 C34 1_555 1_555
C41 C36 1_555 1_555
C42 C38 1_555 1_555
O8 Cu8 1_555 1_555
O16 C40 1_555 1_555
O17 C41 1_555 1_555
O18 C41 1_555 1_555
O12 C42 1_555 1_555
O13 C42 1_555 1_555
C9 N4 1_555 1_555
N5 N6 1_555 1_555
C38 C39 1_555 1_555
C40 O8 1_555 1_555
C30 H23 1_555 1_555
N15 C30 1_555 1_555
Cu6 N13 1_555 1_555
C30 N13 1_555 1_555
N14 N15 1_555 1_555
Cu6 N1 1_555 1_555
Cu2_2 O3 1_555 1_555
C4 C1 1_555 1_555
H2 C4 1_555 1_555
C5 H3 1_555 1_555
C13 C14 1_555 1_555
C14 H13 1_555 1_555
C15 C14 1_555 1_555
C16 C15 1_555 1_555
H14 C16 1_555 1_555
C17 C16 1_555 1_555
C18 C13 1_555 1_555
H15 C18 1_555 1_555
C19 C13 1_555 1_555
C20 C15 1_555 1_555
C21 C17 1_555 1_555
N1 C5 1_555 1_555
N2 C4 1_555 1_555
O1 Cu6 1_555 1_555
O2 C19 1_555 1_555
O3 C20 1_555 1_555
O4 Cu2_2 1_555 1_555
O5 C21 1_555 1_555
O6 C21 1_555 1_555
C24 C1 1_555 1_555
C31 C24 1_555 1_555
H24 C31 1_555 1_555
H25 C31 1_555 1_555
C32 H26 1_555 1_555
N17 C31 1_555 1_555
O14 Cu2_2 1_555 1_555
N21 Cu6 1_555 1_555
C5 N2 1_555 1_555
C17 C18 1_555 1_555
C19 O1 1_555 1_555
C20 O4 1_555 1_555
N2 N3 1_555 1_555
C32 N17 1_555 1_555
C12 H12 1_555 1_555
N9 C12 1_555 1_555
C27 H19 1_555 1_555
C12 N21 1_555 1_555
C7 C2 1_555 1_555
H5 C7 1_555 1_555
H6 C7 1_555 1_555
C8 H7 1_555 1_555

#END
