
###############################################################################
#
# This file contains modified crystal structure data generated from the
# MOF subset of the Cambridge Structural Database (CSD) v543 
# hosted by the Cambridge Crystallographic Data Centre (CCDC).
#
# This work is licensed under the Creative Commons
# Attribution-NonCommercial-ShareAlike 4.0 International License.
# To view a copy of this license, visit
# http://creativecommons.org/licenses/by-nc-sa/4.0/
# or send a letter to
# Creative Commons, PO Box 1866, Mountain View, CA 94042, USA.
#
# CIF created using the CSD Python API on 29 September 2022
# The structure has been converted into the P1 space group
# The structure has a 3D framework
# The original CSD entry YIRXOP is in the triclinic crystal system
# The framework has been calculated to contain at least 10.0% void space
# The void calculation uses a probe of radius 1.32A, grid spacing 0.4
#
###############################################################################

data_YIRXOP
_chemical_formula_moiety         'C22 H16 Co2 N4 O10'
_symmetry_cell_setting           triclinic
_symmetry_space_group_name_H-M   'P 1'
_symmetry_Int_Tables_number      1
_space_group_name_Hall           'P 1'
loop_
_symmetry_equiv_pos_site_id
_symmetry_equiv_pos_as_xyz
1 x,y,z
_cell_length_a                   6.217(3)
_cell_length_b                   8.493(4)
_cell_length_c                   11.993(6)
_cell_angle_alpha                85.803(6)
_cell_angle_beta                 83.741(6)
_cell_angle_gamma                85.058(6)
_cell_volume                     625.825
loop_
_atom_site_label
_atom_site_type_symbol
_atom_site_fract_x
_atom_site_fract_y
_atom_site_fract_z
_atom_site_U_iso_or_equiv
_atom_site_thermal_displace_type
O17 O 0.1044(5) 0.2120(4) 0.0761(3) 0.0216 Uani
O14 O 0.1850(5) 0.8795(4) 0.0588(2) 0.0201 Uani
H15 H 0.0719 0.9171 0.2622 0.0390 Uiso
Co10 Co 0.11079(9) 0.95603(6) 0.88774(5) 0.0173 Uani
N3 N 0.0510(8) 0.4420(5) 0.4642(4) 0.0367 Uani
C17 C 0.2371(8) 0.4794(6) 0.4212(4) 0.0308 Uani
H10 H 0.2865 0.5737 0.4391 0.0370 Uiso
C18 C 0.3766(8) 0.3785(6) 0.3442(4) 0.0262 Uani
C19 C 0.5782(8) 0.4264(6) 0.3022(4) 0.0301 Uani
C20 C 0.3164(8) 0.2385(6) 0.3095(4) 0.0302 Uani
C21 C 0.7098(8) 0.3346(6) 0.2297(4) 0.0258 Uani
H11 H 0.6239 0.5204 0.3231 0.0360 Uiso
C22 C 0.4566(8) 0.1528(6) 0.2366(4) 0.0256 Uani
H12 H 0.1815 0.2028 0.3355 0.0360 Uiso
N4 N 0.6521(6) 0.1980(5) 0.1964(3) 0.0212 Uani
H13 H 0.8452 0.3681 0.2022 0.0310 Uiso
H14 H 0.4138 0.0589 0.2140 0.0310 Uiso
Co9 Co 0.88921(9) 0.04397(6) 0.11226(5) 0.0173 Uani
O13 O 0.8150(5) 0.1205(4) 0.9412(2) 0.0201 Uani
O15 O 0.9430(6) 0.9585(4) 0.2753(3) 0.0322 Uani
O16 O 0.7087(5) 0.8610(4) 0.0860(3) 0.0223 Uani
H16 H 0.8654 0.8800 0.2814 0.0390 Uiso
O4 O 0.2913(5) 0.1390(4) 0.9140(3) 0.0223 Uani
O5 O 0.0570(6) 0.0415(4) 0.7247(3) 0.0322 Uani
H2 H 0.1346 0.1200 0.7186 0.0390 Uiso
C1 C 0.2799(7) 0.7682(5) 0.1155(4) 0.0163 Uani
O2 O 0.2712(6) 0.7575(4) 0.2199(3) 0.0291 Uani
C2 C 0.4024(7) 0.6335(5) 0.0544(4) 0.0166 Uani
C3 C 0.2916(7) 0.4990(5) 0.0502(4) 0.0176 Uani
C4 C 0.6154(7) 0.6345(5) 0.0036(4) 0.0166 Uani
H3 H 0.1501 0.4979 0.0846 0.0210 Uiso
C7 C 0.7493(7) 0.7725(5) 0.0048(4) 0.0182 Uani
N1 N 0.3479(6) 0.8020(5) 0.8036(3) 0.0212 Uani
C5 C 0.2902(8) 0.6654(6) 0.7703(4) 0.0258 Uani
C6 C 0.5434(8) 0.8472(6) 0.7634(4) 0.0256 Uani
C8 C 0.4218(8) 0.5736(6) 0.6978(4) 0.0301 Uani
H4 H 0.1548 0.6319 0.7978 0.0310 Uiso
C9 C 0.6836(8) 0.7615(6) 0.6905(4) 0.0302 Uani
H5 H 0.5862 0.9411 0.7860 0.0310 Uiso
H6 H 0.3761 0.4796 0.6769 0.0360 Uiso
C10 C 0.6234(8) 0.6215(6) 0.6558(4) 0.0262 Uani
H7 H 0.8185 0.7972 0.6645 0.0360 Uiso
C11 C 0.7629(8) 0.5206(6) 0.5788(4) 0.0308 Uani
N2 N 0.9490(8) 0.5580(5) 0.5358(4) 0.0367 Uani
H8 H 0.7135 0.4263 0.5609 0.0370 Uiso
C12 C 0.3846(7) 0.3655(5) 0.9964(4) 0.0166 Uani
C13 C 0.7084(7) 0.5010(5) 0.9498(4) 0.0176 Uani
C14 C 0.2507(7) 0.2275(5) 0.9952(4) 0.0182 Uani
C15 C 0.5976(7) 0.3665(5) 0.9456(4) 0.0166 Uani
H9 H 0.8499 0.5021 0.9154 0.0210 Uiso
O8 O 0.8956(5) 0.7880(4) 0.9239(3) 0.0216 Uani
C16 C 0.7201(7) 0.2318(5) 0.8845(4) 0.0163 Uani
O12 O 0.7288(6) 0.2425(4) 0.7801(3) 0.0291 Uani
H1 H 0.9281 0.0829 0.7378 0.0390 Uiso
loop_
_atom_site_aniso_label
_atom_site_aniso_U_11
_atom_site_aniso_U_22
_atom_site_aniso_U_33
_atom_site_aniso_U_23
_atom_site_aniso_U_13
_atom_site_aniso_U_12
O17 0.0174 0.0168 0.0312 -0.0091 0.0064 -0.0104
O14 0.0208 0.0136 0.0256 -0.0057 0.001 0.0005
Co10 0.0145 0.0112 0.0262 -0.0071 0.0055 -0.0055
N3 0.036 0.03 0.042 -0.02 0.013 0.002
C17 0.028 0.026 0.037 -0.01 0.007 0
C18 0.025 0.023 0.028 -0.005 0.006 0.005
C19 0.035 0.02 0.035 -0.013 0.005 -0.001
C20 0.022 0.034 0.033 -0.008 0.01 -0.005
C21 0.019 0.024 0.034 -0.008 0.0062 -0.0058
C22 0.023 0.021 0.033 -0.007 0.001 -0.003
N4 0.0184 0.018 0.026 -0.0022 0.0025 0.0002
Co9 0.0145 0.0112 0.0262 -0.0071 0.0055 -0.0055
O13 0.0208 0.0136 0.0256 -0.0057 0.001 0.0005
O15 0.031 0.029 0.036 -0.0086 -0.0012 0.0037
O16 0.0204 0.0137 0.0335 -0.0103 0.0054 -0.0087
O4 0.0204 0.0137 0.0335 -0.0103 0.0054 -0.0087
O5 0.031 0.029 0.036 -0.0086 -0.0012 0.0037
C1 0.011 0.011 0.027 -0.0064 0.0045 -0.0046
O2 0.034 0.0222 0.0284 -0.0046 0.0029 0.0077
C2 0.014 0.014 0.022 -0.0033 0 -0.0026
C3 0.012 0.014 0.027 -0.004 0.0007 -0.0029
C4 0.012 0.013 0.025 -0.0034 0.0009 -0.0047
C7 0.013 0.013 0.029 -0.0053 -0.0019 -0.0007
N1 0.0184 0.018 0.026 -0.0022 0.0025 0.0002
C5 0.019 0.024 0.034 -0.008 0.0062 -0.0058
C6 0.023 0.021 0.033 -0.007 0.001 -0.003
C8 0.035 0.02 0.035 -0.013 0.005 -0.001
C9 0.022 0.034 0.033 -0.008 0.01 -0.005
C10 0.025 0.023 0.028 -0.005 0.006 0.005
C11 0.028 0.026 0.037 -0.01 0.007 0
N2 0.036 0.03 0.042 -0.02 0.013 0.002
C12 0.012 0.013 0.025 -0.0034 0.0009 -0.0047
C13 0.012 0.014 0.027 -0.004 0.0007 -0.0029
C14 0.013 0.013 0.029 -0.0053 -0.0019 -0.0007
C15 0.014 0.014 0.022 -0.0033 0 -0.0026
O8 0.0174 0.0168 0.0312 -0.0091 0.0064 -0.0104
C16 0.011 0.011 0.027 -0.0064 0.0045 -0.0046
O12 0.034 0.0222 0.0284 -0.0046 0.0029 0.0077
loop_
_geom_bond_atom_site_label_1
_geom_bond_atom_site_label_2
_geom_bond_site_symmetry_1
_geom_bond_site_symmetry_2
C17 N3 1_555 1_555
H10 C17 1_555 1_555
C18 C17 1_555 1_555
C19 C18 1_555 1_555
C20 C18 1_555 1_555
C21 C19 1_555 1_555
H11 C19 1_555 1_555
C22 C20 1_555 1_555
H12 C20 1_555 1_555
N4 C21 1_555 1_555
H13 C21 1_555 1_555
H14 C22 1_555 1_555
Co9 N4 1_555 1_555
C22 N4 1_555 1_555
H16 O15 1_555 1_555
H2 O5 1_555 1_555
O14 C1 1_555 1_555
C1 O2 1_555 1_555
C2 C1 1_555 1_555
C3 C2 1_555 1_555
C4 C2 1_555 1_555
H3 C3 1_555 1_555
C7 C4 1_555 1_555
O16 C7 1_555 1_555
N1 C5 1_555 1_555
C5 C8 1_555 1_555
C6 N1 1_555 1_555
C8 H6 1_555 1_555
H4 C5 1_555 1_555
C9 C6 1_555 1_555
H5 C6 1_555 1_555
C10 C8 1_555 1_555
H7 C9 1_555 1_555
C11 C10 1_555 1_555
N2 C11 1_555 1_555
H8 C11 1_555 1_555
C14 C12 1_555 1_555
C15 C12 1_555 1_555
H9 C13 1_555 1_555
O4 C14 1_555 1_555
C16 C15 1_555 1_555
O13 C16 1_555 1_555
O12 C16 1_555 1_555
N1 Co10 1_555 1_555
C9 C10 1_555 1_555
C13 C15 1_555 1_555

#END
