
###############################################################################
#
# This file contains modified crystal structure data generated from the
# MOF subset of the Cambridge Structural Database (CSD) v543 
# hosted by the Cambridge Crystallographic Data Centre (CCDC).
#
# This work is licensed under the Creative Commons
# Attribution-NonCommercial-ShareAlike 4.0 International License.
# To view a copy of this license, visit
# http://creativecommons.org/licenses/by-nc-sa/4.0/
# or send a letter to
# Creative Commons, PO Box 1866, Mountain View, CA 94042, USA.
#
# CIF created using the CSD Python API on 29 September 2022
# The structure has been converted into the P1 space group
# The structure has a 3D framework
# The original CSD entry YIRZAC is in the triclinic crystal system
# The framework has been calculated to contain at least 10.0% void space
# The void calculation uses a probe of radius 1.32A, grid spacing 0.4
# H atom positions have been added when not included in the experimental data
#
###############################################################################

data_YIRZAC
_chemical_formula_moiety         '(C84 H48 Cd10 N48 O24)n'
_symmetry_cell_setting           triclinic
_symmetry_space_group_name_H-M   'P 1'
_symmetry_Int_Tables_number      1
_space_group_name_Hall           'P 1'
loop_
_symmetry_equiv_pos_site_id
_symmetry_equiv_pos_as_xyz
1 x,y,z
_cell_length_a                   12.0876(5)
_cell_length_b                   13.9694(5)
_cell_length_c                   17.0235(6)
_cell_angle_alpha                91.703(3)
_cell_angle_beta                 110.084(3)
_cell_angle_gamma                100.902(3)
_cell_volume                     2637
loop_
_atom_site_label
_atom_site_type_symbol
_atom_site_fract_x
_atom_site_fract_y
_atom_site_fract_z
Cd3 Cd 0.40801(3) 0.14892(2) 0.63400(2)
C4 C 0.0165(4) 0.0291(3) 0.4047(3)
H1 H 0.0232 0.0878 0.4349
C12 C 0.2321(4) 0.0335(4) 0.4896(3)
C30 C 0.6652(4) 0.0056(4) 0.1089(3)
H14 H 0.4700 0.0377 0.1264
N13 N 0.6927(4) 0.0991(3) 0.1411(3)
N20 N 0.8051(4) 0.1352(3) 0.1420(3)
N22 N 0.8467(4) 0.0678(3) 0.1134(3)
O10 O 0.2435(3) 0.1211(2) 0.5188(2)
Cd13 Cd 0.87024(3) 0.31269(2) 0.15817(2)
N26 N 0.5352(3) 0.2160(3) 0.5617(2)
N27 N 0.5620(3) 0.0653(3) 0.6908(2)
O15 O 0.3060(3) 0.0256(2) 0.69391(19)
O16 O 0.5504(3) 0.2735(2) 0.7487(2)
O21 O 0.3584(3) 0.2733(3) 0.6927(2)
Cd1 Cd 0.25939(3) 0.72026(2) 0.253600(19)
C1 C 0.1701(4) 0.4029(3) 0.2315(3)
C7 C 0.1173(4) 0.9882(3) 0.4200(3)
C9 C 0.2084(4) 0.7487(3) 0.0477(3)
C10 C 0.1012(5) 0.7108(4) 0.4755(3)
H3 H 0.1244 0.7736 0.5033
C17 C 0.2883(4) 0.1341(4) 0.2660(3)
C18 C 0.1074(4) 0.9026(3) 0.3719(3)
H5 H 0.1746 0.8752 0.3813
C23 C 0.5308(5) 0.8404(4) 0.0630(3)
H8 H 0.5927 0.8163 0.0542
C24 C 0.3032(4) 0.7270(3) 0.4619(3)
C26 C 0.1832(4) 0.6716(3) 0.4511(3)
C27 C 0.3293(4) 0.0405(3) 0.2765(3)
C28 C 0.2083(4) 0.3086(4) 0.2434(3)
C29 C 0.0310(4) 0.5242(4) 0.3929(3)
H9 H 0.0078 0.4611 0.3655
C31 C 0.3275(4) 0.8127(4) 0.0612(3)
C32 C 0.5506(4) 0.9386(4) 0.0933(3)
C33 C 0.4185(5) 0.7785(4) 0.0460(3)
H10 H 0.4051 0.7137 0.0242
C34 C 0.3468(5) 0.9105(4) 0.0912(3)
H11 H 0.2853 0.9344 0.1009
C35 C 0.1346(6) 0.2228(5) 0.2475(6)
H12 H 0.0558 0.2229 0.2433
C37 C 0.1460(5) 0.5770(4) 0.4102(3)
H13 H 0.2002 0.5491 0.3944
C38 C 0.4579(5) 0.9724(4) 0.1067(3)
C40 C 0.3624(5) 0.2188(4) 0.2660(3)
H16 H 0.4428 0.2194 0.2746
C41 C 0.3219(5) 0.3057(4) 0.2534(3)
H17 H 0.3748 0.3628 0.2520
C42 C 0.1747(6) 0.1369(4) 0.2577(5)
H18 H 0.1221 0.0795 0.2589
N2 N 0.0659(3) 0.5120(3) 0.1980(2)
N3 N 0.4437(3) 0.0310(3) 0.3108(2)
N4 N 0.2486(4) 0.4881(3) 0.2502(3)
N5 N 0.1803(3) 0.5544(3) 0.2273(2)
N6 N 0.4648(3) 0.7840(3) 0.4383(2)
N7 N 0.3530(3) 0.7259(3) 0.4029(2)
N8 N 0.0560(3) 0.4157(3) 0.2003(2)
N10 N 0.0540(3) 0.6711(3) 0.0701(2)
N12 N 0.1671(3) 0.7261(3) 0.1091(2)
N14 N 0.4812(4) 0.8191(3) 0.5141(2)
N18 N 0.7604(4) 0.9854(3) 0.0929(3)
N19 N 0.3803(4) 0.7846(3) 0.5303(2)
O5 O 0.0815(3) 0.7325(2) 0.2670(2)
O7 O 0.3110(3) 0.9839(3) 0.5205(2)
Cd12 Cd 0.59199(3) 0.85108(2) 0.36600(2)
Cd16 Cd 0.63400(3) 0.12195(3) 0.36626(2)
Cd17 Cd 0.36600(3) 0.87805(3) 0.63374(2)
N28 N 0.3256(3) 0.8891(3) 0.2757(2)
O17 O 0.4496(3) 0.7265(2) 0.2513(2)
H24 H 0.766034 0.919553 0.0694822
N9 N 0.0301(3) 0.6601(3) 0.9897(2)
N17 N 0.1262(3) 0.7079(3) 0.9734(2)
Cd15 Cd 0.12976(3) 0.68731(2) 0.84183(2)
N15 N 0.4380(3) 0.9347(3) 0.3092(2)
N24 N 0.2541(3) 0.9538(3) 0.2539(2)
C2 C 0.7989(4) 0.0264(3) 0.3368(3)
O2 O 0.8185(3) 0.1159(2) 0.3654(2)
O14 O 0.6085(4) 0.1978(3) 0.2461(2)
H21 H 0.6155 0.2590 0.2576
H22 H 0.5385 0.1742 0.2101
N30 N 0.6197(4) 0.2154(3) 0.4697(2)
O20 O 0.6890(3) 0.0161(3) 0.4795(2)
Cd2 Cd 0.91584(3) 0.60155(2) 0.13325(2)
C6 C 0.8975(4) 0.8970(3) 0.2991(3)
H2 H 0.8232 0.8650 0.2605
C13 C 0.9900(5) 0.7664(3) 0.2567(3)
C14 C 0.9991(4) 0.8575(3) 0.3104(3)
C22 C 0.9071(4) 0.9842(3) 0.3455(3)
C25 C 0.8263(5) 0.5083(4) 0.3969(3)
C36 C 0.9490(4) 0.5651(4) 0.4164(3)
C39 C 0.9861(5) 0.6579(4) 0.4591(3)
H15 H 0.9328 0.6848 0.4768
N1 N 0.6680(4) 0.3938(3) 0.3517(3)
N11 N 0.7833(4) 0.4187(3) 0.3564(3)
N21 N 0.7379(4) 0.5367(3) 0.4159(3)
N23 N 0.6391(4) 0.4633(4) 0.3870(3)
O1 O 0.6940(3) 0.9744(2) 0.30609(19)
O8 O 0.8892(3) 0.7277(3) 0.2032(2)
O11 O 0.7934(3) 0.4989(3) 0.0104(2)
O12 O 0.7430(3) 0.6390(3) 0.0268(2)
O13 O 0.8992(3) 0.2887(3) 0.2977(2)
H19 H 0.8798 0.2267 0.3032
H20 H 0.8546 0.3194 0.3155
N29 N 0.8738(3) 0.2921(3) 0.0266(2)
O18 O 0.8152(3) 0.4759(2) 0.1881(2)
O19 O 0.6840(3) 0.3361(2) 0.1385(2)
H23 H 0.744099 0.601987 0.446648
C3 C 0.2912(4) 0.5721(3) 0.8405(3)
C5 C 0.4608(4) 0.3099(3) 0.7448(3)
C8 C 0.6040(4) 0.5199(3) 0.9176(3)
C11 C 0.3782(4) 0.4380(3) 0.7990(3)
H4 H 0.3016 0.4084 0.7620
C15 C 0.4766(4) 0.3973(3) 0.8043(3)
C16 C 0.7225(5) 0.5555(4) 0.9885(3)
C19 C 0.5076(4) 0.5647(3) 0.9075(3)
H6 H 0.5188 0.6228 0.9401
C20 C 0.5879(4) 0.4372(3) 0.8638(3)
H7 H 0.6531 0.4088 0.8681
C21 C 0.3955(4) 0.5237(3) 0.8496(3)
O4 O 0.1848(3) 0.5241(2) 0.8119(2)
O6 O 0.3160(3) 0.6639(2) 0.8615(2)
Cd7 Cd 0.74061(3) 0.27974(2) 0.746400(19)
Cd8 Cd 0.08416(3) 0.39845(2) 0.86675(2)
C3_2 C 0.7088(4) 0.4279(3) 0.1595(3)
C5_2 C 0.5392(4) 0.6901(3) 0.2552(3)
C8_2 C 0.3960(4) 0.4801(3) 0.0824(3)
C11_2 C 0.6218(4) 0.5620(3) 0.2010(3)
H4_2 H 0.6984 0.5916 0.2380
C15_2 C 0.5234(4) 0.6027(3) 0.1957(3)
C16_2 C 0.2775(5) 0.4445(4) 0.0115(3)
C19_2 C 0.4924(4) 0.4353(3) 0.0925(3)
H6_2 H 0.4812 0.3772 0.0599
C20_2 C 0.4121(4) 0.5628(3) 0.1362(3)
H7_2 H 0.3469 0.5912 0.1319
C21_2 C 0.6045(4) 0.4763(3) 0.1504(3)
O9 O 0.6416(3) 0.7267(3) 0.3073(2)
C6_2 C 0.1025(4) 0.1030(3) 0.7009(3)
H2_2 H 0.1768 0.1350 0.7395
C13_2 C 0.0100(5) 0.2336(3) 0.7433(3)
C14_2 C 0.0009(4) 0.1425(3) 0.6896(3)
C22_2 C 0.0929(4) 0.0158(3) 0.6545(3)
C25_2 C 0.1737(5) 0.4917(4) 0.6031(3)
C36_2 C 0.0510(4) 0.4349(4) 0.5836(3)
C39_2 C 0.0139(5) 0.3421(4) 0.5409(3)
H15_2 H 0.0672 0.3152 0.5232
N1_2 N 0.3320(4) 0.6062(3) 0.6483(3)
N11_2 N 0.2167(4) 0.5813(3) 0.6436(3)
N21_2 N 0.2621(4) 0.4633(3) 0.5841(3)
N23_2 N 0.3609(4) 0.5367(4) 0.6130(3)
O8_2 O 0.1108(3) 0.2723(3) 0.7968(2)
O11_2 O 0.2066(3) 0.5011(3) 0.9896(2)
O12_2 O 0.2570(3) 0.3610(3) 0.9732(2)
O13_2 O 0.1008(3) 0.7113(3) 0.7023(2)
H19_2 H 0.1202 0.7733 0.6968
H20_2 H 0.1454 0.6806 0.6845
N31 N 0.1949(4) 0.8648(3) 0.8580(3)
H23_2 H 0.255901 0.398013 0.553352
C2_2 C 0.2011(4) 0.9736(3) 0.6632(3)
O2_2 O 0.1815(3) 0.8841(2) 0.6346(2)
O14_2 O 0.3915(4) 0.8022(3) 0.7539(2)
H21_2 H 0.3845 0.7410 0.7424
H22_2 H 0.4615 0.8258 0.7899
N25 N 0.5563(3) 0.9690(3) 0.6892(2)
N16 N 0.6744(3) 0.1109(3) 0.7243(2)
N24_2 N 0.7459(3) 0.0462(3) 0.7461(2)
N9_2 N 0.9699(3) 0.3399(3) 0.0103(2)
C1_2 C 0.8299(4) 0.5971(3) 0.7685(3)
C7_2 C 0.8827(4) 0.0118(3) 0.5800(3)
C9_2 C 0.7916(4) 0.2513(3) 0.9523(3)
C10_2 C 0.8988(5) 0.2892(4) 0.5245(3)
H3_2 H 0.8756 0.2264 0.4967
C17_2 C 0.7117(4) 0.8659(4) 0.7340(3)
C18_2 C 0.8926(4) 0.0974(3) 0.6281(3)
H5_2 H 0.8254 0.1248 0.6187
C23_2 C 0.4692(5) 0.1596(4) 0.9370(3)
H8_2 H 0.4073 0.1837 0.9458
C24_2 C 0.6968(4) 0.2730(3) 0.5381(3)
C26_2 C 0.8168(4) 0.3284(3) 0.5489(3)
C27_2 C 0.6707(4) 0.9595(3) 0.7235(3)
C28_2 C 0.7917(4) 0.6914(4) 0.7566(3)
C29_2 C 0.9690(4) 0.4758(4) 0.6071(3)
H9_2 H 0.9922 0.5389 0.6345
C31_2 C 0.6725(4) 0.1873(4) 0.9388(3)
C32_2 C 0.4494(4) 0.0614(4) 0.9067(3)
C33_2 C 0.5815(5) 0.2215(4) 0.9540(3)
H10_2 H 0.5949 0.2863 0.9758
C34_2 C 0.6532(5) 0.0895(4) 0.9088(3)
H11_2 H 0.7147 0.0656 0.8991
C35_2 C 0.8654(6) 0.7772(5) 0.7525(6)
H12_2 H 0.9442 0.7771 0.7567
C37_2 C 0.8540(5) 0.4230(4) 0.5898(3)
H13_2 H 0.7998 0.4509 0.6056
C38_2 C 0.5421(5) 0.0276(4) 0.8933(3)
C40_2 C 0.6376(5) 0.7812(4) 0.7340(3)
H16_2 H 0.5572 0.7806 0.7254
C41_2 C 0.6781(5) 0.6943(4) 0.7466(3)
H17_2 H 0.6252 0.6372 0.7480
C42_2 C 0.8253(6) 0.8631(4) 0.7423(5)
H18_2 H 0.8779 0.9205 0.7411
N2_2 N 0.9341(3) 0.4880(3) 0.8020(2)
N4_2 N 0.7514(4) 0.5119(3) 0.7498(3)
N5_2 N 0.8197(3) 0.4456(3) 0.7727(2)
N7_2 N 0.6470(3) 0.2741(3) 0.5971(2)
N8_2 N 0.9440(3) 0.5843(3) 0.7997(2)
N10_2 N 0.9460(3) 0.3289(3) 0.9299(2)
N12_2 N 0.8329(3) 0.2739(3) 0.8909(2)
N14_2 N 0.5188(4) 0.1809(3) 0.4859(2)
N18_2 N 0.2396(4) 0.0146(3) 0.9071(3)
O5_2 O 0.9185(3) 0.2675(2) 0.7330(2)
H24_2 H 0.233966 0.0804471 0.930518
C4_2 C 0.9835(4) 0.9709(3) 0.5953(3)
H1_2 H 0.9768 0.9122 0.5651
C12_2 C 0.7679(4) 0.9665(4) 0.5104(3)
C30_2 C 0.3348(4) 0.9944(4) 0.8911(3)
H14_2 H 0.5300 0.9623 0.8736
N13_2 N 0.3073(4) 0.9009(3) 0.8589(3)
N22_2 N 0.1533(4) 0.9322(3) 0.8866(3)
O10_2 O 0.7565(3) 0.8789(2) 0.4812(2)
loop_
_geom_bond_atom_site_label_1
_geom_bond_atom_site_label_2
_geom_bond_site_symmetry_1
_geom_bond_site_symmetry_2
C4 H1 1_555 1_555
N13 C30 1_555 1_555
N20 N13 1_555 1_555
O10 Cd3 1_555 1_555
Cd13 N20 1_555 1_555
N26 Cd3 1_555 1_555
N27 Cd3 1_555 1_555
O15 Cd3 1_555 1_555
O16 Cd3 1_555 1_555
O21 Cd3 1_555 1_555
C12 O10 1_555 1_555
N20 N22 1_555 1_555
Cd1 N5 1_555 1_555
C1 C28 1_555 1_555
C9 C31 1_555 1_555
C10 H3 1_555 1_555
C17 C27 1_555 1_555
C18 C7 1_555 1_555
H5 C18 1_555 1_555
C23 H8 1_555 1_555
C24 C26 1_555 1_555
C26 C10 1_555 1_555
C27 N3 1_555 1_555
C28 C35 1_555 1_555
C29 H9 1_555 1_555
C31 C33 1_555 1_555
C32 C23 1_555 1_555
C33 C23 1_555 1_555
H10 C33 1_555 1_555
C34 C31 1_555 1_555
H11 C34 1_555 1_555
C35 H12 1_555 1_555
C37 C26 1_555 1_555
H13 C37 1_555 1_555
C38 C32 1_555 1_555
C40 C17 1_555 1_555
H16 C40 1_555 1_555
C41 C28 1_555 1_555
H17 C41 1_555 1_555
C42 C17 1_555 1_555
H18 C42 1_555 1_555
N2 N5 1_555 1_555
N4 C1 1_555 1_555
N5 N4 1_555 1_555
N6 N7 1_555 1_555
N7 Cd1 1_555 1_555
N8 C1 1_555 1_555
N12 Cd1 1_555 1_555
N14 N6 1_555 1_555
N19 C24 1_555 1_555
O5 Cd1 1_555 1_555
Cd12 N6 1_555 1_555
Cd16 N3 1_555 1_555
Cd17 N19 1_555 1_555
N28 Cd1 1_555 1_555
O17 Cd1 1_555 1_555
C9 N12 1_555 1_555
C24 N7 1_555 1_555
C29 C37 1_555 1_555
C34 C38 1_555 1_555
C35 C42 1_555 1_555
C40 C41 1_555 1_555
N2 N8 1_555 1_555
N10 N12 1_555 1_555
N14 N19 1_555 1_555
O7 Cd17 1_555 1_555
Cd12 O17 1_555 1_555
N18 H24 1_555 1_555
Cd15 N17 1_555 1_555
N9 N17 1_555 1_555
N15 N28 1_555 1_555
N28 N24 1_555 1_555
Cd12 N15 1_555 1_555
O2 Cd16 1_555 1_555
O14 Cd16 1_555 1_555
H21 O14 1_555 1_555
H22 O14 1_555 1_555
N30 Cd16 1_555 1_555
O20 Cd16 1_555 1_555
C2 O2 1_555 1_555
C6 H2 1_555 1_555
C13 C14 1_555 1_555
C14 C6 1_555 1_555
C25 C36 1_555 1_555
H15 C39 1_555 1_555
N1 N11 1_555 1_555
N11 C25 1_555 1_555
N21 C25 1_555 1_555
N23 N1 1_555 1_555
O8 Cd2 1_555 1_555
O11 Cd2 1_555 1_555
O12 Cd2 1_555 1_555
O13 Cd13 1_555 1_555
H19 O13 1_555 1_555
H20 O13 1_555 1_555
Cd12 O1 1_555 1_555
N29 Cd13 1_555 1_555
O18 Cd2 1_555 1_555
O19 Cd13 1_555 1_555
Cd13 O18 1_555 1_555
C6 C22 1_555 1_555
C13 O8 1_555 1_555
C36 C39 1_555 1_555
N21 N23 1_555 1_555
N21 H23 1_555 1_555
C3 C21 1_555 1_555
C5 C15 1_555 1_555
C8 C16 1_555 1_555
C11 H4 1_555 1_555
C15 C11 1_555 1_555
C19 C8 1_555 1_555
H6 C19 1_555 1_555
C20 C8 1_555 1_555
H7 C20 1_555 1_555
C21 C11 1_555 1_555
O16 C5 1_555 1_555
O4 C3 1_555 1_555
O6 C3 1_555 1_555
O21 C5 1_555 1_555
Cd7 O16 1_555 1_555
Cd8 O4 1_555 1_555
Cd15 O4 1_555 1_555
C15 C20 1_555 1_555
C19 C21 1_555 1_555
O6 Cd15 1_555 1_555
C3_2 C21_2 1_555 1_555
C5_2 C15_2 1_555 1_555
C8_2 C16_2 1_555 1_555
C11_2 H4_2 1_555 1_555
C15_2 C11_2 1_555 1_555
C19_2 C8_2 1_555 1_555
H6_2 C19_2 1_555 1_555
C20_2 C8_2 1_555 1_555
H7_2 C20_2 1_555 1_555
C21_2 C11_2 1_555 1_555
O17 C5_2 1_555 1_555
O18 C3_2 1_555 1_555
O19 C3_2 1_555 1_555
O9 C5_2 1_555 1_555
C15_2 C20_2 1_555 1_555
C19_2 C21_2 1_555 1_555
O9 Cd12 1_555 1_555
C6_2 H2_2 1_555 1_555
C13_2 C14_2 1_555 1_555
C14_2 C6_2 1_555 1_555
C25_2 C36_2 1_555 1_555
H15_2 C39_2 1_555 1_555
N1_2 N11_2 1_555 1_555
N11_2 C25_2 1_555 1_555
N21_2 C25_2 1_555 1_555
N23_2 N1_2 1_555 1_555
O8_2 Cd8 1_555 1_555
O11_2 Cd8 1_555 1_555
O12_2 Cd8 1_555 1_555
O13_2 Cd15 1_555 1_555
H19_2 O13_2 1_555 1_555
H20_2 O13_2 1_555 1_555
N31 Cd15 1_555 1_555
C6_2 C22_2 1_555 1_555
C13_2 O8_2 1_555 1_555
C36_2 C39_2 1_555 1_555
N21_2 N23_2 1_555 1_555
N21_2 H23_2 1_555 1_555
O2_2 Cd17 1_555 1_555
O14_2 Cd17 1_555 1_555
H21_2 O14_2 1_555 1_555
H22_2 O14_2 1_555 1_555
N25 Cd17 1_555 1_555
C2_2 O2_2 1_555 1_555
N27 N16 1_555 1_555
N16 N24_2 1_555 1_555
Cd7 N16 1_555 1_555
N9_2 N29 1_555 1_555
Cd7 N5_2 1_555 1_555
C1_2 C28_2 1_555 1_555
C9_2 C31_2 1_555 1_555
C10_2 H3_2 1_555 1_555
C17_2 C27_2 1_555 1_555
C18_2 C7_2 1_555 1_555
H5_2 C18_2 1_555 1_555
C23_2 H8_2 1_555 1_555
C24_2 C26_2 1_555 1_555
C26_2 C10_2 1_555 1_555
C27_2 N25 1_555 1_555
C28_2 C35_2 1_555 1_555
C29_2 H9_2 1_555 1_555
C31_2 C33_2 1_555 1_555
C32_2 C23_2 1_555 1_555
C33_2 C23_2 1_555 1_555
H10_2 C33_2 1_555 1_555
C34_2 C31_2 1_555 1_555
H11_2 C34_2 1_555 1_555
C35_2 H12_2 1_555 1_555
C37_2 C26_2 1_555 1_555
H13_2 C37_2 1_555 1_555
C38_2 C32_2 1_555 1_555
C40_2 C17_2 1_555 1_555
H16_2 C40_2 1_555 1_555
C41_2 C28_2 1_555 1_555
H17_2 C41_2 1_555 1_555
C42_2 C17_2 1_555 1_555
H18_2 C42_2 1_555 1_555
N2_2 N5_2 1_555 1_555
N4_2 C1_2 1_555 1_555
N5_2 N4_2 1_555 1_555
N26 N7_2 1_555 1_555
N7_2 Cd7 1_555 1_555
N8_2 C1_2 1_555 1_555
N12_2 Cd7 1_555 1_555
N14_2 N26 1_555 1_555
N30 C24_2 1_555 1_555
O5_2 Cd7 1_555 1_555
C9_2 N12_2 1_555 1_555
C24_2 N7_2 1_555 1_555
C29_2 C37_2 1_555 1_555
C34_2 C38_2 1_555 1_555
C35_2 C42_2 1_555 1_555
C40_2 C41_2 1_555 1_555
N2_2 N8_2 1_555 1_555
N10_2 N12_2 1_555 1_555
N14_2 N30 1_555 1_555
N18_2 H24_2 1_555 1_555
C4_2 H1_2 1_555 1_555
N13_2 C30_2 1_555 1_555
N31 N13_2 1_555 1_555
O10_2 Cd12 1_555 1_555
C12_2 O10_2 1_555 1_555
N31 N22_2 1_555 1_555

#END
