
###############################################################################
#
# This file contains modified crystal structure data generated from the
# MOF subset of the Cambridge Structural Database (CSD) v543 
# hosted by the Cambridge Crystallographic Data Centre (CCDC).
#
# This work is licensed under the Creative Commons
# Attribution-NonCommercial-ShareAlike 4.0 International License.
# To view a copy of this license, visit
# http://creativecommons.org/licenses/by-nc-sa/4.0/
# or send a letter to
# Creative Commons, PO Box 1866, Mountain View, CA 94042, USA.
#
# CIF created using the CSD Python API on 29 September 2022
# The structure has been converted into the P1 space group
# The structure has a 3D framework
# The original CSD entry YITHIU01 is in the monoclinic crystal system
# The original CSD entry YITHIU01 is in a Sohncke space group
# The framework has been calculated to contain at least 10.0% void space
# The void calculation uses a probe of radius 1.32A, grid spacing 0.4
#
###############################################################################

data_YITHIU01
_chemical_formula_moiety         '(C16 H24 Ce4 O36 S6)n'
_symmetry_cell_setting           triclinic
_symmetry_space_group_name_H-M   'P 1'
_symmetry_Int_Tables_number      1
_space_group_name_Hall           'P 1'
loop_
_symmetry_equiv_pos_site_id
_symmetry_equiv_pos_as_xyz
1 x,y,z
_cell_length_a                   21.963(4)
_cell_length_b                   7.6577(15)
_cell_length_c                   6.1689(12)
_cell_angle_alpha                90
_cell_angle_beta                 91.48(3)
_cell_angle_gamma                90
_cell_volume                     1037.18
loop_
_atom_site_label
_atom_site_type_symbol
_atom_site_fract_x
_atom_site_fract_y
_atom_site_fract_z
O5 O 0.3623(2) 0.0559(6) 0.0972(7)
H1 H 0.3938 0.1129 0.0613
O6 O 0.23679(18) 0.1092(5) 0.2825(6)
H2 H 0.2451 0.0242 0.1986
O7 O 0.3353(2) 0.4618(6) 0.1392(8)
C2 C 0.3496(3) 0.1074(7) 0.3093(8)
H3 H 0.3832 0.1789 0.3675
C3 C 0.2903(2) 0.2123(6) 0.3138(8)
H4 H 0.2882 0.2702 0.4551
C4 C 0.2929(3) 0.3543(6) 0.1372(8)
O17 O 0.7501(2) 0.3545(6) 0.0044(7)
Ce6 Ce 0.645320(10) 0.74659(7) 0.05006(3)
Ce8 Ce 0.145320(10) 0.24659(7) 0.05006(3)
O8 O 0.2499(2) 0.3545(6) 0.9956(7)
O14 O 0.6377(2) 0.0559(6) 0.9028(7)
H7 H 0.6062 0.1129 0.9387
O15 O 0.76321(18) 0.1092(5) 0.7175(6)
H8 H 0.7549 0.0242 0.8014
O16 O 0.6647(2) 0.4618(6) 0.8608(8)
C6 C 0.6504(3) 0.1074(7) 0.6907(8)
H9 H 0.6168 0.1789 0.6325
C7 C 0.7097(2) 0.2123(6) 0.6862(8)
H10 H 0.7118 0.2702 0.5449
C8 C 0.7071(3) 0.3543(6) 0.8628(8)
Ce4 Ce 0.354680(10) 0.74659(7) 0.94994(3)
Ce7 Ce 0.854680(10) 0.24659(7) 0.94994(3)
S1 S 0.5000 0.7451(6) -0.0000
O1 O 0.4561(2) 0.6383(7) 0.1142(8)
O3 O 0.3440(2) 0.7989(5) 0.3445(6)
O4 O 0.3409(2) 0.9555(6) 0.6466(6)
C1 C 0.3444(3) 0.9392(8) 0.4453(8)
O11 O 0.5373(2) 0.8558(7) 0.1486(8)
O18 O 0.6115(3) 0.5478(6) 0.3569(7)
H11 H 0.5838 0.4915 0.4242
H12 H 0.6333 0.6130 0.4420
O20 O 0.6591(2) 0.9555(6) 0.3534(6)
O21 O 0.73679(18) 0.6092(5) 0.2825(6)
O26 O 0.2501(2) 0.8545(6) 0.0044(7)
S1_2 S 0.5000 0.7451(6) 1.0000
O2 O 0.4627(2) 0.8558(7) 0.8514(8)
O9 O 0.3885(3) 0.5478(6) 0.6431(7)
H5 H 0.4162 0.4915 0.5758
H6 H 0.3667 0.6130 0.5580
O10 O 0.5439(2) 0.6383(7) 0.8858(8)
O12 O 0.6560(2) 0.7989(5) 0.6555(6)
C5 C 0.6556(3) 0.9392(8) 0.5547(8)
O22 O 0.26321(18) 0.6092(5) 0.7175(6)
O25 O 0.7499(2) 0.8545(6) 0.9956(7)
S1_3 S -0.0000 0.2451(6) -0.0000
O11_2 O 0.0373(2) 0.3558(7) 0.1486(8)
O18_2 O 0.1115(3) 0.0478(6) 0.3569(7)
H12_2 H 0.1333 0.1130 0.4420
O20_2 O 0.1591(2) 0.4555(6) 0.3534(6)
S1_4 S -0.0000 0.2451(6) 1.0000
O10_2 O 0.0439(2) 0.1383(7) 0.8858(8)
O12_2 O 0.1560(2) 0.2989(5) 0.6555(6)
O14_2 O 0.1377(2) 0.5559(6) 0.9028(7)
H7_2 H 0.1062 0.6129 0.9387
H8_2 H 0.2549 0.5242 0.8014
O16_2 O 0.1647(2) 0.9618(6) 0.8608(8)
C5_2 C 0.1556(3) 0.4392(8) 0.5547(8)
C6_2 C 0.1504(3) 0.6074(7) 0.6907(8)
H9_2 H 0.1168 0.6789 0.6325
C7_2 C 0.2097(2) 0.7123(6) 0.6862(8)
H10_2 H 0.2118 0.7702 0.5449
C8_2 C 0.2071(3) 0.8543(6) 0.8628(8)
S1_5 S 1.0000 0.2451(6) -0.0000
O1_2 O 0.9561(2) 0.1383(7) 0.1142(8)
O3_2 O 0.8440(2) 0.2989(5) 0.3445(6)
O4_2 O 0.8409(2) 0.4555(6) 0.6466(6)
O5_2 O 0.8623(2) 0.5559(6) 0.0972(7)
H1_2 H 0.8938 0.6129 0.0613
H2_2 H 0.7451 0.5242 0.1986
O7_2 O 0.8353(2) 0.9618(6) 0.1392(8)
C1_2 C 0.8444(3) 0.4392(8) 0.4453(8)
C2_2 C 0.8496(3) 0.6074(7) 0.3093(8)
H3_2 H 0.8832 0.6789 0.3675
C3_2 C 0.7903(2) 0.7123(6) 0.3138(8)
H4_2 H 0.7882 0.7702 0.4551
C4_2 C 0.7929(3) 0.8543(6) 0.1372(8)
S1_6 S 1.0000 0.2451(6) 1.0000
O2_2 O 0.9627(2) 0.3558(7) 0.8514(8)
O9_2 O 0.8885(3) 0.0478(6) 0.6431(7)
H6_2 H 0.8667 0.1130 0.5580
H11_2 H 0.0838 0.9915 0.4242
H5_2 H 0.9162 0.9915 0.5758
loop_
_geom_bond_atom_site_label_1
_geom_bond_atom_site_label_2
_geom_bond_site_symmetry_1
_geom_bond_site_symmetry_2
H1 O5 1_555 1_555
O6 H2 1_555 1_555
O7 C4 1_555 1_555
C2 O5 1_555 1_555
H3 C2 1_555 1_555
C3 O6 1_555 1_555
H4 C3 1_555 1_555
C4 C3 1_555 1_555
Ce8 O6 1_555 1_555
C2 C3 1_555 1_555
H7 O14 1_555 1_555
O15 H8 1_555 1_555
O16 C8 1_555 1_555
C6 O14 1_555 1_555
H9 C6 1_555 1_555
C7 O15 1_555 1_555
H10 C7 1_555 1_555
C8 C7 1_555 1_555
Ce7 O15 1_555 1_555
C6 C7 1_555 1_555
S1 O1 1_555 1_555
O4 C1 1_555 1_555
C1 O3 1_555 1_555
O11 S1 1_555 1_555
O18 Ce6 1_555 1_555
H11 O18 1_555 1_555
H12 O18 1_555 1_555
Ce4 O4 1_555 1_555
O20 Ce6 1_555 1_555
O21 Ce6 1_555 1_555
O11 Ce6 1_555 1_555
O2 Ce4 1_555 1_555
O9 Ce4 1_555 1_555
H5 O9 1_555 1_555
H6 O9 1_555 1_555
O10 S1_2 1_555 1_555
O20 C5 1_555 1_555
C5 O12 1_555 1_555
O22 Ce4 1_555 1_555
S1_2 O2 1_555 1_555
O11_2 S1_3 1_555 1_555
O18_2 Ce8 1_555 1_555
H12_2 O18_2 1_555 1_555
O20_2 Ce8 1_555 1_555
O11_2 Ce8 1_555 1_555
O10_2 S1_4 1_555 1_555
O20_2 C5_2 1_555 1_555
H7_2 O14_2 1_555 1_555
O22 H8_2 1_555 1_555
O16_2 C8_2 1_555 1_555
C5_2 O12_2 1_555 1_555
C6_2 O14_2 1_555 1_555
H9_2 C6_2 1_555 1_555
C7_2 O22 1_555 1_555
H10_2 C7_2 1_555 1_555
C8_2 C7_2 1_555 1_555
C5_2 C6_2 1_555 1_555
C6_2 C7_2 1_555 1_555
S1_5 O1_2 1_555 1_555
O4_2 C1_2 1_555 1_555
H1_2 O5_2 1_555 1_555
O21 H2_2 1_555 1_555
O7_2 C4_2 1_555 1_555
C1_2 O3_2 1_555 1_555
C2_2 O5_2 1_555 1_555
H3_2 C2_2 1_555 1_555
C3_2 O21 1_555 1_555
H4_2 C3_2 1_555 1_555
C4_2 C3_2 1_555 1_555
Ce7 O4_2 1_555 1_555
C1_2 C2_2 1_555 1_555
C2_2 C3_2 1_555 1_555
O2_2 Ce7 1_555 1_555
O9_2 Ce7 1_555 1_555
H6_2 O9_2 1_555 1_555
S1_6 O2_2 1_555 1_555

#END
