
###############################################################################
#
# This file contains modified crystal structure data generated from the
# MOF subset of the Cambridge Structural Database (CSD) v543 
# hosted by the Cambridge Crystallographic Data Centre (CCDC).
#
# This work is licensed under the Creative Commons
# Attribution-NonCommercial-ShareAlike 4.0 International License.
# To view a copy of this license, visit
# http://creativecommons.org/licenses/by-nc-sa/4.0/
# or send a letter to
# Creative Commons, PO Box 1866, Mountain View, CA 94042, USA.
#
# CIF created using the CSD Python API on 29 September 2022
# The structure has been converted into the P1 space group
# The structure has a 3D framework
# The original CSD entry YITHIU is in the orthorhombic crystal system
# The original CSD entry YITHIU is in a Sohncke space group
# The framework has been calculated to contain at least 10.0% void space
# The void calculation uses a probe of radius 1.32A, grid spacing 0.4
#
###############################################################################

data_YITHIU
_chemical_formula_moiety         '(C16 H24 Ce4 O34 S4)n'
_symmetry_cell_setting           triclinic
_symmetry_space_group_name_H-M   'P 1'
_symmetry_Int_Tables_number      1
_space_group_name_Hall           'P 1'
loop_
_symmetry_equiv_pos_site_id
_symmetry_equiv_pos_as_xyz
1 x,y,z
_cell_length_a                   7.6486(15)
_cell_length_b                   22.019(4)
_cell_length_c                   6.1550(12)
_cell_angle_alpha                90
_cell_angle_beta                 90
_cell_angle_gamma                90
_cell_volume                     1036.59
loop_
_atom_site_label
_atom_site_type_symbol
_atom_site_fract_x
_atom_site_fract_y
_atom_site_fract_z
O7 O 0.1927(4) 0.83551(14) 0.3678(5)
O8 O 0.0860(4) 0.75043(13) 0.5063(5)
H4 H 0.0035 0.7881 0.0481
C4 C 0.0867(5) 0.79219(17) 0.3678(6)
Ce4 Ce 0.47938(2) 0.854215(8) 0.56072(3)
S1 S 0.5000 0.0000 0.5532(2)
O10 O 0.6153(5) 0.03821(14) 0.4185(6)
O11 O 0.3987(4) 0.04281(13) 0.6870(6)
Ce2 Ce 0.52062(2) 0.145785(8) 0.56072(3)
O12 O 0.4726(3) 0.15420(14) 0.1649(4)
O14 O 0.2122(3) 0.13791(12) 0.4166(4)
H7 H 0.1408 0.1147 0.4712
O15 O 0.1584(3) 0.26318(12) 0.2173(4)
H8 H 0.2365 0.2564 0.3054
C5 C 0.3299(5) 0.15665(16) 0.0653(7)
C6 C 0.1621(4) 0.15106(17) 0.1991(6)
H9 H 0.0918 0.1174 0.1424
C7 C 0.0546(5) 0.20977(16) 0.1898(7)
O18 O 0.7285(4) 0.11370(14) 0.8668(5)
H11 H 0.7309 0.0770 0.8985
H12 H 0.6631 0.1313 0.9538
Ce7 Ce 0.02062(2) 0.354215(8) 0.43928(3)
O20 O 0.3139(4) 0.16324(14) 0.8632(4)
O21 O 0.6584(3) 0.23682(12) 0.7827(4)
O24 O 0.8073(4) 0.16449(14) 0.3678(5)
O25 O 0.4140(4) 0.25043(13) 0.4937(5)
S1_2 S 0.5000 1.0000 0.5532(2)
O1 O 0.3847(5) 0.96179(14) 0.4185(6)
O2 O 0.6013(4) 0.95719(13) 0.6870(6)
O3 O 0.5274(3) 0.84580(14) 0.1649(4)
O5 O 0.7878(3) 0.86209(12) 0.4166(4)
H1 H 0.8592 0.8853 0.4712
O6 O 0.8416(3) 0.73682(12) 0.2173(4)
H2 H 0.7635 0.7436 0.3054
C1 C 0.6701(5) 0.84335(16) 0.0653(7)
C2 C 0.8379(4) 0.84894(17) 0.1991(6)
H3 H 0.9082 0.8826 0.1424
C3 C 0.9454(5) 0.79023(16) 0.1898(7)
O9 O 0.2715(4) 0.88630(14) 0.8668(5)
H5 H 0.2691 0.9230 0.8985
H6 H 0.3369 0.8687 0.9538
Ce8 Ce 0.97938(2) 0.645785(8) 0.43928(3)
O19 O 0.6861(4) 0.83676(14) 0.8632(4)
O22 O 0.3416(3) 0.76318(12) 0.7827(4)
O26 O 0.5860(4) 0.74957(13) 0.4937(5)
O17 O 0.9140(4) 0.24957(13) 0.5063(5)
H10 H 0.9965 0.2119 0.0481
C8 C 0.9133(5) 0.20781(17) 0.3678(6)
O13 O 0.1861(4) 0.66324(14) 0.1368(4)
S1_3 S -0.0000 0.5000 0.4468(2)
O1_2 O 0.1153(5) 0.46179(14) 0.5815(6)
O9_2 O 0.2285(4) 0.38630(14) 0.1332(5)
H5_2 H 0.2309 0.4230 0.1015
H6_2 H 0.1631 0.3687 0.0462
O11_2 O 0.1013(4) 0.54281(13) 0.3130(6)
O12_2 O 0.0274(3) 0.65420(14) 0.8351(4)
O14_2 O 0.2878(3) 0.63791(12) 0.5834(4)
H7_2 H 0.3592 0.6147 0.5288
H8_2 H 0.2635 0.7564 0.6946
O16 O 0.6927(4) 0.66449(14) 0.6322(5)
C5_2 C 0.1701(5) 0.65665(16) 0.9347(7)
C6_2 C 0.3379(4) 0.65106(17) 0.8009(6)
H9_2 H 0.4082 0.6174 0.8576
C7_2 C 0.4454(5) 0.70977(16) 0.8102(7)
H10_2 H 0.5035 0.7119 0.9519
C8_2 C 0.5867(5) 0.70781(17) 0.6322(6)
O23 O 0.3073(4) 0.33551(14) 0.6322(5)
O4 O 0.8139(4) 0.33676(14) 0.1368(4)
S1_4 S 1.0000 0.5000 0.4468(2)
O2_2 O 0.8987(4) 0.45719(13) 0.3130(6)
O3_2 O 0.9726(3) 0.34580(14) 0.8351(4)
O5_2 O 0.7122(3) 0.36209(12) 0.5834(4)
H1_2 H 0.6408 0.3853 0.5288
H2_2 H 0.7365 0.2436 0.6946
C1_2 C 0.8299(5) 0.34335(16) 0.9347(7)
C2_2 C 0.6621(4) 0.34894(17) 0.8009(6)
H3_2 H 0.5918 0.3826 0.8576
C3_2 C 0.5546(5) 0.29023(16) 0.8102(7)
H4_2 H 0.4965 0.2881 0.9519
C4_2 C 0.4133(5) 0.29219(17) 0.6322(6)
O10_2 O 0.8847(5) 0.53821(14) 0.5815(6)
O18_2 O 0.7715(4) 0.61370(14) 0.1332(5)
H11_2 H 0.7691 0.5770 0.1015
H12_2 H 0.8369 0.6313 0.0462
loop_
_geom_bond_atom_site_label_1
_geom_bond_atom_site_label_2
_geom_bond_site_symmetry_1
_geom_bond_site_symmetry_2
O7 C4 1_555 1_555
O8 C4 1_555 1_555
Ce4 O7 1_555 1_555
O10 S1 1_555 1_555
O11 S1 1_555 1_555
Ce2 O10 1_555 1_555
O12 Ce2 1_555 1_555
O14 Ce2 1_555 1_555
H7 O14 1_555 1_555
O15 H8 1_555 1_555
C5 O12 1_555 1_555
C6 O14 1_555 1_555
H9 C6 1_555 1_555
C7 O15 1_555 1_555
O18 Ce2 1_555 1_555
H11 O18 1_555 1_555
H12 O18 1_555 1_555
Ce7 O15 1_555 1_555
O20 Ce2 1_555 1_555
O21 Ce2 1_555 1_555
O24 Ce2 1_555 1_555
O25 Ce2 1_555 1_555
O11 Ce2 1_555 1_555
C5 C6 1_555 1_555
C6 C7 1_555 1_555
Ce4 O1 1_555 1_555
S1_2 O1 1_555 1_555
O2 Ce4 1_555 1_555
O3 Ce4 1_555 1_555
O5 Ce4 1_555 1_555
H1 O5 1_555 1_555
O6 H2 1_555 1_555
C1 O3 1_555 1_555
C2 O5 1_555 1_555
H3 C2 1_555 1_555
C3 O6 1_555 1_555
O9 Ce4 1_555 1_555
H5 O9 1_555 1_555
H6 O9 1_555 1_555
Ce8 O6 1_555 1_555
O19 Ce4 1_555 1_555
O22 Ce4 1_555 1_555
O26 Ce4 1_555 1_555
S1_2 O2 1_555 1_555
C1 C2 1_555 1_555
C2 C3 1_555 1_555
O24 C8 1_555 1_555
O17 C8 1_555 1_555
Ce7 O1_2 1_555 1_555
S1_3 O1_2 1_555 1_555
O9_2 Ce7 1_555 1_555
H5_2 O9_2 1_555 1_555
H6_2 O9_2 1_555 1_555
O11_2 S1_3 1_555 1_555
H7_2 O14_2 1_555 1_555
O22 H8_2 1_555 1_555
O16 C8_2 1_555 1_555
O26 C8_2 1_555 1_555
C5_2 O12_2 1_555 1_555
C6_2 O14_2 1_555 1_555
H9_2 C6_2 1_555 1_555
C7_2 O22 1_555 1_555
H10_2 C7_2 1_555 1_555
C8_2 C7_2 1_555 1_555
Ce8 O16 1_555 1_555
O23 Ce7 1_555 1_555
C5_2 C6_2 1_555 1_555
C6_2 C7_2 1_555 1_555
H1_2 O5_2 1_555 1_555
O21 H2_2 1_555 1_555
O23 C4_2 1_555 1_555
O25 C4_2 1_555 1_555
C1_2 O3_2 1_555 1_555
C2_2 O5_2 1_555 1_555
H3_2 C2_2 1_555 1_555
C3_2 O21 1_555 1_555
H4_2 C3_2 1_555 1_555
C4_2 C3_2 1_555 1_555
O10_2 S1_4 1_555 1_555
Ce8 O10_2 1_555 1_555
O18_2 Ce8 1_555 1_555
H11_2 O18_2 1_555 1_555
H12_2 O18_2 1_555 1_555
S1_4 O2_2 1_555 1_555
C1_2 C2_2 1_555 1_555
C2_2 C3_2 1_555 1_555

#END
