
###############################################################################
#
# This file contains modified crystal structure data generated from the
# MOF subset of the Cambridge Structural Database (CSD) v543 
# hosted by the Cambridge Crystallographic Data Centre (CCDC).
#
# This work is licensed under the Creative Commons
# Attribution-NonCommercial-ShareAlike 4.0 International License.
# To view a copy of this license, visit
# http://creativecommons.org/licenses/by-nc-sa/4.0/
# or send a letter to
# Creative Commons, PO Box 1866, Mountain View, CA 94042, USA.
#
# CIF created using the CSD Python API on 29 September 2022
# The structure has been converted into the P1 space group
# The structure has a 3D framework
# The original CSD entry YIVHET is in the monoclinic crystal system
# The framework has been calculated to contain at least 10.0% void space
# The void calculation uses a probe of radius 1.32A, grid spacing 0.4
#
###############################################################################

data_YIVHET
_chemical_formula_moiety         '(C120 H88 Eu4 N4 O20)n'
_symmetry_cell_setting           triclinic
_symmetry_space_group_name_H-M   'P 1'
_symmetry_Int_Tables_number      1
_space_group_name_Hall           'P 1'
loop_
_symmetry_equiv_pos_site_id
_symmetry_equiv_pos_as_xyz
1 x,y,z
_cell_length_a                   8.0364(3)
_cell_length_b                   16.6086(7)
_cell_length_c                   27.1347(11)
_cell_angle_alpha                90
_cell_angle_beta                 96.8380(10)
_cell_angle_gamma                90
_cell_volume                     3596
loop_
_atom_site_label
_atom_site_type_symbol
_atom_site_fract_x
_atom_site_fract_y
_atom_site_fract_z
Eu6 Eu 0.26131(4) 0.01275(2) 0.51823(2)
Eu1 Eu 0.26131(4) 0.48725(2) 0.01823(2)
O1 O 0.4902(6) 0.0831(3) 0.48640(19)
O2 O 0.0339(7) 0.4955(3) 0.0627(2)
O5 O 0.6041(6) 0.0753(3) 0.41616(19)
O6 O 0.3886(7) 0.4010(3) 0.0849(2)
O7 O 0.1605(6) 0.8771(3) 0.5016(2)
C1 C 0.5139(9) 0.1120(5) 0.4437(3)
C3 C 0.4376(9) 0.1899(4) 0.4264(3)
C4 C 0.0380(9) 0.7591(5) 0.4684(3)
N1 N 0.5837(10) 0.3340(5) 0.1374(3)
C6 C 0.5267(11) 0.3683(5) 0.0947(3)
H1 H 0.598487 0.367806 0.069295
C7 C 0.3630(9) 0.2403(5) 0.4583(3)
H2 H 0.361934 0.225169 0.492033
C8 C 0.0261(9) 0.8406(5) 0.4918(3)
C11 C 0.0952(10) 0.5441(5) 0.3834(3)
C12 C 0.1769(10) 0.4764(5) 0.4030(3)
H5 H 0.213412 0.473907 0.437555
C13 C 0.1819(11) 0.7134(5) 0.4771(3)
H6 H 0.269894 0.730542 0.501315
C15 C 0.2904(10) 0.3123(5) 0.4415(3)
H8 H 0.237453 0.345348 0.463554
C16 C 0.1997(11) 0.6422(5) 0.4508(3)
H9 H 0.299326 0.611226 0.457258
C17 C 0.0714(10) 0.6165(5) 0.4149(3)
C19 C 0.4422(11) 0.2143(5) 0.3772(3)
H11 H 0.493377 0.181000 0.354798
C20 C 0.2069(11) 0.4112(5) 0.3726(3)
C21 C 0.0699(11) 0.4857(5) 0.3013(3)
C22 C 0.2943(10) 0.3370(5) 0.3919(3)
C23 C 0.0421(10) 0.5482(5) 0.3329(3)
C24 C 0.3727(12) 0.2861(6) 0.3616(3)
H13 H 0.378379 0.301949 0.328173
C25 C 0.0266(11) 0.4905(5) 0.2470(3)
C26 C 0.1130(12) 0.4790(7) 0.1651(3)
H14 H 0.198925 0.469486 0.144649
C27 C 0.7451(13) 0.2989(6) 0.1474(4)
H15 H 0.734766 0.244401 0.160509
H16 H 0.814194 0.331740 0.171970
H17 H 0.797922 0.296474 0.116720
C28 C 0.1513(12) 0.4170(5) 0.3216(3)
H18 H 0.169475 0.373094 0.300452
C29 C 0.1495(13) 0.4744(7) 0.2162(4)
H19 H 0.259350 0.460067 0.230349
C30 C 0.4877(18) 0.3380(11) 0.1792(5)
H20 H 0.531661 0.381266 0.201589
H21 H 0.496558 0.286552 0.197037
H22 H 0.369927 0.348763 0.167239
O8 O 0.5098(6) 0.5831(3) 0.01360(19)
O10 O 0.1170(6) 0.3667(3) 0.0028(2)
O12 O 0.3959(6) 0.5753(3) 0.08384(19)
O13 O 0.1605(6) 0.6229(3) 0.0016(2)
O9 O 0.4902(6) 0.4169(3) 0.98640(19)
O11 O 0.2355(7) 0.4942(3) 0.9306(2)
Eu3 Eu 0.73869(4) 0.98725(2) 0.48177(2)
O3 O 0.8830(6) 0.8667(3) 0.4972(2)
O4 O 0.7645(7) 0.5058(3) 0.0694(2)
C2 C 0.9135(10) 0.4999(4) 0.0887(3)
C5 C 0.9536(10) 0.4972(4) 0.1437(3)
C9 C 0.9056(10) 0.7318(5) 0.4340(3)
H3 H 0.803805 0.761364 0.428829
C10 C 0.8288(11) 0.5134(5) 0.1741(3)
H4 H 0.718468 0.526461 0.159728
C14 C 0.9241(10) 0.6618(5) 0.4078(3)
H7 H 0.834378 0.644019 0.384390
C18 C 0.8666(11) 0.5104(5) 0.2251(3)
H10 H 0.781661 0.522108 0.245562
H12 H 0.985321 0.595110 0.319750
Eu4 Eu 0.73869(4) 0.51275(2) 0.98177(2)
O4_2 O 0.2355(7) 0.0058(3) 0.4306(2)
C9_2 C 0.0944(10) 0.2318(5) 0.0660(3)
H3_2 H 0.196195 0.261364 0.071171
C10_2 C 0.1712(11) 0.0134(5) 0.3259(3)
H4_2 H 0.281532 0.026461 0.340272
C14_2 C 0.0759(10) 0.1618(5) 0.0922(3)
H7_2 H 0.165622 0.144019 0.115610
C18_2 C 0.1334(11) 0.0104(5) 0.2749(3)
H10_2 H 0.218339 0.022108 0.254438
H12_2 H 0.014679 0.095110 0.180250
C4_2 C 0.9620(9) 0.2591(5) 0.0316(3)
C8_2 C 0.9739(9) 0.3406(5) 0.0082(3)
C11_2 C 0.9048(10) 0.0441(5) 0.1166(3)
C13_2 C 0.8181(11) 0.2134(5) 0.0229(3)
C16_2 C 0.8003(11) 0.1422(5) 0.0492(3)
H9_2 H 0.700674 0.111226 0.042742
C17_2 C 0.9286(10) 0.1165(5) 0.0851(3)
C23_2 C 0.9579(10) 0.0482(5) 0.1671(3)
O13_2 O 0.8395(6) 0.1229(3) 0.4984(2)
O7_2 O 0.8395(6) 0.3771(3) 0.9984(2)
H6_2 H 0.730106 0.230542 0.998685
O2_2 O 0.9661(7) 0.9955(3) 0.4373(2)
O6_2 O 0.6114(7) 0.9010(3) 0.4151(2)
C1_2 C 0.4861(9) 0.6120(5) 0.0563(3)
C3_2 C 0.5624(9) 0.6899(4) 0.0736(3)
N1_2 N 0.4163(10) 0.8340(5) 0.3626(3)
C6_2 C 0.4733(11) 0.8683(5) 0.4053(3)
H1_2 H 0.401513 0.867806 0.430705
C7_2 C 0.6370(9) 0.7403(5) 0.0417(3)
H2_2 H 0.638066 0.725169 0.007967
C12_2 C 0.8231(10) 0.9764(5) 0.0970(3)
H5_2 H 0.786588 0.973907 0.062445
C15_2 C 0.7096(10) 0.8123(5) 0.0585(3)
H8_2 H 0.762547 0.845348 0.036446
C19_2 C 0.5578(11) 0.7143(5) 0.1228(3)
H11_2 H 0.506623 0.681000 0.145202
C20_2 C 0.7931(11) 0.9112(5) 0.1274(3)
C21_2 C 0.9301(11) 0.9857(5) 0.1987(3)
C22_2 C 0.7057(10) 0.8370(5) 0.1081(3)
C24_2 C 0.6273(12) 0.7861(6) 0.1384(3)
H13_2 H 0.621621 0.801949 0.171827
C25_2 C 0.9734(11) 0.9905(5) 0.2530(3)
C26_2 C 0.8870(12) 0.9790(7) 0.3349(3)
H14_2 H 0.801075 0.969486 0.355351
C27_2 C 0.2549(13) 0.7989(6) 0.3526(4)
H15_2 H 0.265234 0.744401 0.339491
H16_2 H 0.185806 0.831740 0.328030
H17_2 H 0.202078 0.796474 0.383280
C28_2 C 0.8487(12) 0.9170(5) 0.1784(3)
H18_2 H 0.830525 0.873094 0.199548
C29_2 C 0.8505(13) 0.9744(7) 0.2838(4)
H19_2 H 0.740650 0.960067 0.269651
C30_2 C 0.5123(18) 0.8380(11) 0.3208(5)
H20_2 H 0.468339 0.881266 0.298411
H21_2 H 0.503442 0.786552 0.302963
H22_2 H 0.630073 0.848763 0.332761
O9_2 O 0.5098(6) 0.9169(3) 0.51360(19)
O11_2 O 0.7645(7) 0.9942(3) 0.5694(2)
O3_2 O 0.1170(6) 0.1333(3) 0.5028(2)
C2_2 C 0.0865(10) 0.5001(4) 0.9113(3)
C5_2 C 0.0464(10) 0.5028(4) 0.8563(3)
C9_3 C 0.0944(10) 0.2682(5) 0.5660(3)
H3_3 H 0.196195 0.238636 0.571171
C10_3 C 0.1712(11) 0.4866(5) 0.8259(3)
H4_3 H 0.281532 0.473539 0.840272
C14_3 C 0.0759(10) 0.3382(5) 0.5922(3)
H7_3 H 0.165622 0.355981 0.615610
C18_3 C 0.1334(11) 0.4896(5) 0.7749(3)
H10_3 H 0.218339 0.477892 0.754438
H12_3 H 0.014679 0.404890 0.680250
O2_3 O 0.9661(7) 0.5045(3) 0.9373(2)
O5_2 O 0.3959(6) 0.9247(3) 0.58384(19)
O6_3 O 0.6114(7) 0.5990(3) 0.9151(2)
C1_3 C 0.4861(9) 0.8880(5) 0.5563(3)
C3_3 C 0.5624(9) 0.8101(4) 0.5736(3)
C4_3 C 0.9620(9) 0.2409(5) 0.5316(3)
N1_3 N 0.4163(10) 0.6660(5) 0.8626(3)
C6_3 C 0.4733(11) 0.6317(5) 0.9053(3)
H1_3 H 0.401513 0.632194 0.930705
C7_3 C 0.6370(9) 0.7597(5) 0.5417(3)
H2_3 H 0.638066 0.774831 0.507967
C8_3 C 0.9739(9) 0.1594(5) 0.5082(3)
C11_3 C 0.9048(10) 0.4559(5) 0.6166(3)
C12_3 C 0.8231(10) 0.5236(5) 0.5970(3)
H5_3 H 0.786588 0.526093 0.562445
C13_3 C 0.8181(11) 0.2866(5) 0.5229(3)
H6_3 H 0.730106 0.269458 0.498685
C15_3 C 0.7096(10) 0.6877(5) 0.5585(3)
H8_3 H 0.762547 0.654652 0.536446
C16_3 C 0.8003(11) 0.3578(5) 0.5492(3)
H9_3 H 0.700674 0.388774 0.542742
C17_3 C 0.9286(10) 0.3835(5) 0.5851(3)
C19_3 C 0.5578(11) 0.7857(5) 0.6228(3)
H11_3 H 0.506623 0.819000 0.645202
C20_3 C 0.7931(11) 0.5888(5) 0.6274(3)
C21_3 C 0.9301(11) 0.5143(5) 0.6987(3)
C22_3 C 0.7057(10) 0.6630(5) 0.6081(3)
C23_3 C 0.9579(10) 0.4518(5) 0.6671(3)
C24_3 C 0.6273(12) 0.7139(6) 0.6384(3)
H13_3 H 0.621621 0.698051 0.671827
C25_3 C 0.9734(11) 0.5095(5) 0.7530(3)
C26_3 C 0.8870(12) 0.5210(7) 0.8349(3)
H14_3 H 0.801075 0.530514 0.855351
C27_3 C 0.2549(13) 0.7011(6) 0.8526(4)
H15_3 H 0.265234 0.755599 0.839491
H16_3 H 0.185806 0.668260 0.828030
H17_3 H 0.202078 0.703526 0.883280
C28_3 C 0.8487(12) 0.5830(5) 0.6784(3)
H18_3 H 0.830525 0.626906 0.699548
C29_3 C 0.8505(13) 0.5256(7) 0.7838(4)
H19_3 H 0.740650 0.539933 0.769651
C30_3 C 0.5123(18) 0.6620(11) 0.8208(5)
H20_3 H 0.468339 0.618734 0.798411
H21_3 H 0.503442 0.713448 0.802963
H22_3 H 0.630073 0.651237 0.832761
O10_2 O 0.8830(6) 0.6333(3) 0.9972(2)
O12_2 O 0.6041(6) 0.4247(3) 0.91616(19)
O2_4 O 0.0339(7) 0.0045(3) 0.5627(2)
O6_4 O 0.3886(7) 0.0990(3) 0.5849(2)
C1_4 C 0.5139(9) 0.3880(5) 0.9437(3)
C3_4 C 0.4376(9) 0.3101(4) 0.9264(3)
N1_4 N 0.5837(10) 0.1660(5) 0.6374(3)
C6_4 C 0.5267(11) 0.1317(5) 0.5947(3)
H1_4 H 0.598487 0.132194 0.569295
C7_4 C 0.3630(9) 0.2597(5) 0.9583(3)
H2_4 H 0.361934 0.274831 0.992033
C12_4 C 0.1769(10) 0.0236(5) 0.9030(3)
H5_4 H 0.213412 0.026093 0.937555
C15_4 C 0.2904(10) 0.1877(5) 0.9415(3)
H8_4 H 0.237453 0.154652 0.963554
C19_4 C 0.4422(11) 0.2857(5) 0.8772(3)
H11_4 H 0.493377 0.319000 0.854798
C20_4 C 0.2069(11) 0.0888(5) 0.8726(3)
C21_4 C 0.0699(11) 0.0143(5) 0.8013(3)
C22_4 C 0.2943(10) 0.1630(5) 0.8919(3)
C24_4 C 0.3727(12) 0.2139(6) 0.8616(3)
H13_4 H 0.378379 0.198051 0.828173
C25_4 C 0.0266(11) 0.0095(5) 0.7470(3)
C26_4 C 0.1130(12) 0.0210(7) 0.6651(3)
H14_4 H 0.198925 0.030514 0.644649
C27_4 C 0.7451(13) 0.2011(6) 0.6474(4)
H15_4 H 0.734766 0.255599 0.660509
H16_4 H 0.814194 0.168260 0.671970
H17_4 H 0.797922 0.203526 0.616720
C28_4 C 0.1513(12) 0.0830(5) 0.8216(3)
H18_4 H 0.169475 0.126906 0.800452
C29_4 C 0.1495(13) 0.0256(7) 0.7162(4)
H19_4 H 0.259350 0.039933 0.730349
C30_4 C 0.4877(18) 0.1620(11) 0.6792(5)
H20_4 H 0.531661 0.118734 0.701589
H21_4 H 0.496558 0.213448 0.697037
H22_4 H 0.369927 0.151237 0.667239
H6_4 H 0.269894 0.769458 0.001315
C4_4 C 0.0380(9) 0.7409(5) 0.9684(3)
C8_4 C 0.0261(9) 0.6594(5) 0.9918(3)
C11_4 C 0.0952(10) 0.9559(5) 0.8834(3)
C13_4 C 0.1819(11) 0.7866(5) 0.9771(3)
C16_4 C 0.1997(11) 0.8578(5) 0.9508(3)
H9_4 H 0.299326 0.888774 0.957258
C17_4 C 0.0714(10) 0.8835(5) 0.9149(3)
C23_4 C 0.0421(10) 0.9518(5) 0.8329(3)
C9_4 C 0.9056(10) 0.7682(5) 0.9340(3)
H3_4 H 0.803805 0.738636 0.928829
C10_4 C 0.8288(11) 0.9866(5) 0.6741(3)
H4_4 H 0.718468 0.973539 0.659728
C14_4 C 0.9241(10) 0.8382(5) 0.9078(3)
H7_4 H 0.834378 0.855981 0.884390
C18_4 C 0.8666(11) 0.9896(5) 0.7251(3)
H10_4 H 0.781661 0.977892 0.745562
H12_4 H 0.985321 0.904890 0.819750
C2_3 C 0.0865(10) 0.9999(4) 0.4113(3)
C5_3 C 0.0464(10) 0.9972(4) 0.3563(3)
C2_4 C 0.9135(10) 0.0001(4) 0.5887(3)
C5_4 C 0.9536(10) 0.0028(4) 0.6437(3)
loop_
_geom_bond_atom_site_label_1
_geom_bond_atom_site_label_2
_geom_bond_site_symmetry_1
_geom_bond_site_symmetry_2
Eu1 O2 1_555 1_555
O1 C1 1_555 1_555
O5 C1 1_555 1_555
O6 Eu1 1_555 1_555
O7 C8 1_555 1_555
C1 C3 1_555 1_555
C3 C7 1_555 1_555
C4 C8 1_555 1_555
N1 C6 1_555 1_555
C6 O6 1_555 1_555
H1 C6 1_555 1_555
C7 H2 1_555 1_555
C11 C12 1_555 1_555
C12 H5 1_555 1_555
C13 C4 1_555 1_555
H6 C13 1_555 1_555
C15 C7 1_555 1_555
H8 C15 1_555 1_555
C16 C13 1_555 1_555
H9 C16 1_555 1_555
C17 C11 1_555 1_555
C19 C3 1_555 1_555
H11 C19 1_555 1_555
C20 C12 1_555 1_555
C21 C23 1_555 1_555
C22 C15 1_555 1_555
C23 C11 1_555 1_555
C24 C19 1_555 1_555
H13 C24 1_555 1_555
H14 C26 1_555 1_555
C27 N1 1_555 1_555
H15 C27 1_555 1_555
H16 C27 1_555 1_555
H17 C27 1_555 1_555
C28 C20 1_555 1_555
H18 C28 1_555 1_555
C29 C25 1_555 1_555
H19 C29 1_555 1_555
C30 N1 1_555 1_555
H20 C30 1_555 1_555
H21 C30 1_555 1_555
H22 C30 1_555 1_555
Eu6 O1 1_555 1_555
O8 Eu1 1_555 1_555
O10 Eu1 1_555 1_555
O12 Eu1 1_555 1_555
O13 Eu1 1_555 1_555
C16 C17 1_555 1_555
C20 C22 1_555 1_555
C21 C25 1_555 1_555
C21 C28 1_555 1_555
C22 C24 1_555 1_555
C26 C29 1_555 1_555
O4 C2 1_555 1_555
C2 C5 1_555 1_555
C5 C10 1_555 1_555
H3 C9 1_555 1_555
C10 H4 1_555 1_555
C14 C9 1_555 1_555
H7 C14 1_555 1_555
C18 C10 1_555 1_555
H10 C18 1_555 1_555
Eu3 O3 1_555 1_555
H3_2 C9_2 1_555 1_555
C10_2 H4_2 1_555 1_555
C14_2 C9_2 1_555 1_555
H7_2 C14_2 1_555 1_555
C18_2 C10_2 1_555 1_555
H10_2 C18_2 1_555 1_555
Eu6 O4_2 1_555 1_555
C4_2 C8_2 1_555 1_555
C13_2 C4_2 1_555 1_555
C16_2 C13_2 1_555 1_555
H9_2 C16_2 1_555 1_555
C17_2 C11_2 1_555 1_555
C23_2 C11_2 1_555 1_555
C16_2 C17_2 1_555 1_555
Eu4 O7_2 1_555 1_555
Eu3 O2_2 1_555 1_555
O8 C1_2 1_555 1_555
O12 C1_2 1_555 1_555
O6_2 Eu3 1_555 1_555
C1_2 C3_2 1_555 1_555
C3_2 C7_2 1_555 1_555
N1_2 C6_2 1_555 1_555
C6_2 O6_2 1_555 1_555
H1_2 C6_2 1_555 1_555
C7_2 H2_2 1_555 1_555
C12_2 H5_2 1_555 1_555
C15_2 C7_2 1_555 1_555
H8_2 C15_2 1_555 1_555
C19_2 C3_2 1_555 1_555
H11_2 C19_2 1_555 1_555
C20_2 C12_2 1_555 1_555
C22_2 C15_2 1_555 1_555
C24_2 C19_2 1_555 1_555
H13_2 C24_2 1_555 1_555
H14_2 C26_2 1_555 1_555
C27_2 N1_2 1_555 1_555
H15_2 C27_2 1_555 1_555
H16_2 C27_2 1_555 1_555
H17_2 C27_2 1_555 1_555
C28_2 C20_2 1_555 1_555
H18_2 C28_2 1_555 1_555
C29_2 C25_2 1_555 1_555
H19_2 C29_2 1_555 1_555
C30_2 N1_2 1_555 1_555
H20_2 C30_2 1_555 1_555
H21_2 C30_2 1_555 1_555
H22_2 C30_2 1_555 1_555
O9_2 Eu3 1_555 1_555
O11_2 Eu3 1_555 1_555
C20_2 C22_2 1_555 1_555
C21_2 C25_2 1_555 1_555
C21_2 C28_2 1_555 1_555
C22_2 C24_2 1_555 1_555
C26_2 C29_2 1_555 1_555
O11 C2_2 1_555 1_555
C2_2 C5_2 1_555 1_555
C5_2 C10_3 1_555 1_555
H3_3 C9_3 1_555 1_555
C10_3 H4_3 1_555 1_555
C14_3 C9_3 1_555 1_555
H7_3 C14_3 1_555 1_555
C18_3 C10_3 1_555 1_555
H10_3 C18_3 1_555 1_555
Eu6 O3_2 1_555 1_555
Eu4 O2_3 1_555 1_555
O9_2 C1_3 1_555 1_555
O5_2 C1_3 1_555 1_555
O6_3 Eu4 1_555 1_555
O13_2 C8_3 1_555 1_555
C1_3 C3_3 1_555 1_555
C3_3 C7_3 1_555 1_555
C4_3 C8_3 1_555 1_555
N1_3 C6_3 1_555 1_555
C6_3 O6_3 1_555 1_555
H1_3 C6_3 1_555 1_555
C7_3 H2_3 1_555 1_555
C11_3 C12_3 1_555 1_555
C12_3 H5_3 1_555 1_555
C13_3 C4_3 1_555 1_555
H6_3 C13_3 1_555 1_555
C15_3 C7_3 1_555 1_555
H8_3 C15_3 1_555 1_555
C16_3 C13_3 1_555 1_555
H9_3 C16_3 1_555 1_555
C17_3 C11_3 1_555 1_555
C19_3 C3_3 1_555 1_555
H11_3 C19_3 1_555 1_555
C20_3 C12_3 1_555 1_555
C21_3 C23_3 1_555 1_555
C22_3 C15_3 1_555 1_555
C23_3 C11_3 1_555 1_555
C24_3 C19_3 1_555 1_555
H13_3 C24_3 1_555 1_555
H14_3 C26_3 1_555 1_555
C27_3 N1_3 1_555 1_555
H15_3 C27_3 1_555 1_555
H16_3 C27_3 1_555 1_555
H17_3 C27_3 1_555 1_555
C28_3 C20_3 1_555 1_555
H18_3 C28_3 1_555 1_555
C29_3 C25_3 1_555 1_555
H19_3 C29_3 1_555 1_555
C30_3 N1_3 1_555 1_555
H20_3 C30_3 1_555 1_555
H21_3 C30_3 1_555 1_555
H22_3 C30_3 1_555 1_555
O9 Eu4 1_555 1_555
O10_2 Eu4 1_555 1_555
O12_2 Eu4 1_555 1_555
C16_3 C17_3 1_555 1_555
C20_3 C22_3 1_555 1_555
C21_3 C25_3 1_555 1_555
C21_3 C28_3 1_555 1_555
C22_3 C24_3 1_555 1_555
C26_3 C29_3 1_555 1_555
Eu6 O2_4 1_555 1_555
O9 C1_4 1_555 1_555
O12_2 C1_4 1_555 1_555
O6_4 Eu6 1_555 1_555
C1_4 C3_4 1_555 1_555
C3_4 C7_4 1_555 1_555
N1_4 C6_4 1_555 1_555
C6_4 O6_4 1_555 1_555
H1_4 C6_4 1_555 1_555
C7_4 H2_4 1_555 1_555
C12_4 H5_4 1_555 1_555
C15_4 C7_4 1_555 1_555
H8_4 C15_4 1_555 1_555
C19_4 C3_4 1_555 1_555
H11_4 C19_4 1_555 1_555
C20_4 C12_4 1_555 1_555
C22_4 C15_4 1_555 1_555
C24_4 C19_4 1_555 1_555
H13_4 C24_4 1_555 1_555
H14_4 C26_4 1_555 1_555
C27_4 N1_4 1_555 1_555
H15_4 C27_4 1_555 1_555
H16_4 C27_4 1_555 1_555
H17_4 C27_4 1_555 1_555
C28_4 C20_4 1_555 1_555
H18_4 C28_4 1_555 1_555
C29_4 C25_4 1_555 1_555
H19_4 C29_4 1_555 1_555
C30_4 N1_4 1_555 1_555
H20_4 C30_4 1_555 1_555
H21_4 C30_4 1_555 1_555
H22_4 C30_4 1_555 1_555
C20_4 C22_4 1_555 1_555
C21_4 C25_4 1_555 1_555
C21_4 C28_4 1_555 1_555
C22_4 C24_4 1_555 1_555
C26_4 C29_4 1_555 1_555
C4_4 C8_4 1_555 1_555
C13_4 C4_4 1_555 1_555
C16_4 C13_4 1_555 1_555
H9_4 C16_4 1_555 1_555
C17_4 C11_4 1_555 1_555
C23_4 C11_4 1_555 1_555
C16_4 C17_4 1_555 1_555
H3_4 C9_4 1_555 1_555
C10_4 H4_4 1_555 1_555
C14_4 C9_4 1_555 1_555
H7_4 C14_4 1_555 1_555
C18_4 C10_4 1_555 1_555
H10_4 C18_4 1_555 1_555
C2_3 C5_3 1_555 1_555
C2_4 C5_4 1_555 1_555

#END
