
###############################################################################
#
# This file contains modified crystal structure data generated from the
# MOF subset of the Cambridge Structural Database (CSD) v543 
# hosted by the Cambridge Crystallographic Data Centre (CCDC).
#
# This work is licensed under the Creative Commons
# Attribution-NonCommercial-ShareAlike 4.0 International License.
# To view a copy of this license, visit
# http://creativecommons.org/licenses/by-nc-sa/4.0/
# or send a letter to
# Creative Commons, PO Box 1866, Mountain View, CA 94042, USA.
#
# CIF created using the CSD Python API on 29 September 2022
# The structure has been converted into the P1 space group
# The structure has a 3D framework
# The original CSD entry YIVZIO is in the triclinic crystal system
# The framework has been calculated to contain at least 10.0% void space
# The void calculation uses a probe of radius 1.32A, grid spacing 0.4
# H atom positions have been added when not included in the experimental data
#
###############################################################################

data_YIVZIO
_chemical_formula_moiety         '(C128 H116 N6 O46 Pr6 Si4)n'
_symmetry_cell_setting           triclinic
_symmetry_space_group_name_H-M   'P 1'
_symmetry_Int_Tables_number      1
_space_group_name_Hall           'P 1'
loop_
_symmetry_equiv_pos_site_id
_symmetry_equiv_pos_as_xyz
1 x,y,z
_cell_length_a                   14.168(3)
_cell_length_b                   15.091(3)
_cell_length_c                   22.752(4)
_cell_angle_alpha                85.333(4)
_cell_angle_beta                 75.130(4)
_cell_angle_gamma                69.426(4)
_cell_volume                     4401.59
loop_
_atom_site_label
_atom_site_type_symbol
_atom_site_fract_x
_atom_site_fract_y
_atom_site_fract_z
O8 O 0.3427(3) 0.6870(3) 0.31238(15)
O9 O 0.0447(7) 0.0028(6) 0.4134(3)
C4 C 0.3019(3) 0.0231(4) 0.3081(2)
O18 O 0.1278(2) 0.2375(3) 0.69516(14)
O23 O 0.4850(3) 0.5729(3) 0.31684(18)
C7 C 0.2168(4) 0.0848(3) 0.2904(2)
C8 C 0.3416(4) 0.0519(4) 0.3476(2)
C13 C 0.1742(3) 0.1761(4) 0.3110(2)
H3 H 0.1880 0.0641 0.2642
C14 C 0.2957(4) 0.1461(4) 0.3698(2)
H4 H 0.3987 0.0102 0.3602
C18 C 0.2087(3) 0.2093(3) 0.35297(19)
H7 H 0.1197 0.2176 0.2960
H8 H 0.3245 0.1662 0.3963
Si2 Si 0.14189(9) 0.32741(10) 0.39237(6)
C26 C 0.1164(3) 0.3030(4) 0.4756(2)
C27 C 0.2242(3) 0.4048(4) 0.3723(2)
C28 C 0.0148(3) 0.3939(4) 0.3697(2)
C35 C 0.1544(4) 0.3379(4) 0.5149(2)
C36 C 0.0577(4) 0.2491(4) 0.5003(2)
C37 C 0.3267(4) 0.3795(4) 0.3493(2)
C38 C 0.1701(4) 0.5055(4) 0.3818(2)
C40 C 0.0170(3) 0.4290(4) 0.3104(2)
H15 H 0.1919 0.3781 0.5003
C47 C 0.1379(4) 0.3141(4) 0.5762(2)
H16 H 0.0302 0.2250 0.4749
C48 C 0.0362(4) 0.2277(4) 0.5628(2)
H17 H 0.3633 0.3151 0.3428
C49 C 0.3827(4) 0.4377(4) 0.3344(2)
H18 H 0.0986 0.5274 0.3982
C50 C 0.2219(4) 0.5709(4) 0.3671(2)
H20 H 0.0802 0.4147 0.2816
H27 H 0.1675 0.3364 0.6012
C56 C 0.0811(3) 0.2607(4) 0.5997(2)
H29 H 0.4544 0.4131 0.3191
C57 C 0.3311(4) 0.5363(4) 0.3423(2)
H30 H 0.1858 0.6354 0.3734
C62 C 0.0655(4) 0.2345(4) 0.6654(2)
C63 C 0.3877(4) 0.6022(4) 0.3228(2)
Pr5 Pr 0.19445(2) 0.79564(2) 0.270201(14)
Pr9 Pr 0.068710(19) 0.16761(2) 0.797860(12)
Pr11 Pr 0.541996(19) 0.71129(2) 0.304086(12)
O1 O 0.1944(2) 0.6486(2) 0.23134(16)
O2 O 0.3000(3) 0.8899(2) 0.25894(15)
O3 O 0.1536(3) 0.8622(3) 0.37488(17)
O4 O 0.0658(3) 0.9566(3) 0.31265(19)
O5 O 0.3383(3) 0.7339(3) 0.17587(17)
N1 N 0.0847(5) 0.9412(5) 0.3613(3)
C1 C 0.1419(4) 0.6224(4) 0.2074(2)
C2 C 0.3468(3) 0.9208(4) 0.2871(2)
O10 O 0.0531(3) 0.6714(3) 0.19911(15)
C3 C 0.1820(4) 0.5201(4) 0.1864(2)
O11 O 0.4309(3) 0.8724(2) 0.30183(17)
O14 O 0.0254(3) 0.7945(3) 0.09437(10)
O19 O 0.6505(2) 0.8054(3) 0.32367(16)
O20 O 0.4484(3) 0.7407(3) 0.41055(18)
C5 C 0.2695(4) 0.4549(4) 0.2026(2)
C6 C 0.1370(4) 0.4891(4) 0.1479(2)
C9 C 0.02555(17) 0.8179(3) 0.04113(10)
C10 C 0.4660(5) 0.7123(5) 0.4611(3)
C11 C 0.3097(4) 0.3643(4) 0.1830(2)
H1 H 0.3010 0.4749 0.2275
C12 C 0.1808(4) 0.3955(4) 0.1269(2)
H2 H 0.0786 0.5304 0.1365
N2 N 0.10342(18) 0.8424(3) 0.00579(11)
C16 C 0.5428(5) 0.7332(8) 0.4892(4)
N3 N 0.4192(5) 0.6551(6) 0.4928(3)
C17 C 0.2675(3) 0.3317(3) 0.14279(19)
H5 H 0.3660 0.3224 0.1963
H6 H 0.1504 0.3755 0.1012
C20 C 0.1869(2) 0.8309(6) 0.03513(19)
C21 C 0.3143(5) 0.6738(11) 0.4816(5)
C22 C 0.4443(9) 0.6260(11) 0.5521(3)
Si1 Si 0.33131(10) 0.21017(10) 0.10694(6)
C23 C 0.4560(3) 0.1455(3) 0.1303(2)
C24 C 0.2485(4) 0.1359(4) 0.1293(2)
C25 C 0.3589(4) 0.2260(4) 0.0210(2)
C29 C 0.5507(4) 0.1095(4) 0.0877(2)
C30 C 0.4532(4) 0.1167(4) 0.1909(2)
C31 C 0.2967(4) 0.0331(3) 0.1249(2)
C32 C 0.1402(4) 0.1713(4) 0.1461(2)
H9 H 0.5553 0.1254 0.0470
C41 C 0.6386(4) 0.0499(4) 0.1057(2)
H10 H 0.3907 0.1386 0.2202
C42 C 0.5390(3) 0.0580(4) 0.2079(2)
H11 H 0.3688 0.0069 0.1130
H12 H 0.1061 0.2364 0.1499
C44 C 0.0809(4) 0.1104(4) 0.1577(2)
H13 H 0.4193 0.3266 0.0176
H14 H 0.2993 0.1326 0.0033
H21 H 0.7016 0.0269 0.0769
C53 C 0.6328(4) 0.0251(4) 0.1654(2)
H22 H 0.5346 0.0399 0.2483
C54 C 0.1324(4) 0.0147(4) 0.1532(2)
H24 H 0.0087 0.1349 0.1680
O26 O 0.1054(2) 0.8678(3) 0.19178(14)
O27 O 0.0151(3) 0.7868(3) 0.30981(15)
O33 O 0.5282(2) 0.6919(3) 0.19748(14)
O34 O 0.6255(2) 0.7732(2) 0.20214(14)
O36 O 0.6552(2) 0.6005(3) 0.36509(15)
O37 O 0.7327(2) 0.5998(3) 0.26959(15)
H35 H 0.307731 0.730745 0.141738
H36 H 0.379225 0.77702 0.165082
H39 H 0.613005 0.844409 0.361171
H40 H 0.718647 0.760929 0.328811
H41 H 0.219182 0.757045 0.0473965
H42 H 0.247583 0.852016 0.00398764
H43 H 0.15642 0.875031 0.075967
H44 H 0.520644 0.809386 0.494744
H45 H 0.542008 0.699496 0.533418
H46 H 0.620618 0.705651 0.459515
H53 H 0.322525 0.66316 0.433522
H54 H 0.278938 0.625381 0.508463
H55 H 0.265133 0.746461 0.494668
H56 H 0.421424 0.688442 0.580448
H57 H 0.402404 0.579442 0.574544
H58 H 0.527586 0.588652 0.545049
O21 O 0.4718(2) 0.3081(3) 0.80252(14)
O22 O 0.3745(2) 0.2268(2) 0.79786(14)
C19 C 0.1066(6) 0.8683(5) 0.94241(12)
C33 C 0.4025(5) 0.2896(4) 0.9939(2)
C34 C 0.3313(4) 0.1756(4) 0.9852(2)
C45 C 0.4229(4) 0.3011(5) 0.9315(2)
C46 C 0.3494(5) 0.1867(4) 0.9233(2)
H25 H 0.4539 0.3449 0.9136
C55 C 0.3974(4) 0.2477(4) 0.8960(2)
H26 H 0.3287 0.1522 0.9001
C61 C 0.4144(3) 0.2615(4) 0.8287(2)
Pr12 Pr 0.458004(19) 0.28871(2) 0.695914(12)
H50 H 0.038228 0.929522 0.939908
H51 H 0.176434 0.885601 0.922335
H52 H 0.107516 0.809141 0.917601
O15 O 0.7303(3) 0.9299(3) 0.23488(15)
O16 O 0.8102(2) 0.9216(3) 0.13926(15)
C43 C 0.2409(4) 0.9746(4) 0.1376(2)
H23 H 0.2737 0.9093 0.1359
C59 C 0.7313(4) 0.9516(4) 0.1814(2)
C60 C 0.0720(4) 0.9498(4) 0.1679(3)
Pr8 Pr 0.931290(19) 0.83239(2) 0.202140(12)
O7 O 0.9849(3) 0.2132(3) 0.69019(15)
C39 C 0.9214(4) 0.4162(4) 0.4115(2)
H19 H 0.9187 0.3957 0.4513
C51 C 0.8297(4) 0.4697(4) 0.3946(2)
C52 C 0.9280(4) 0.4834(4) 0.2944(2)
H28 H 0.9933 0.1925 0.5788
H31 H 0.7659 0.4805 0.4225
C58 C 0.8329(4) 0.5062(4) 0.3373(2)
H32 H 0.9308 0.5054 0.2548
C64 C 0.7328(4) 0.5707(4) 0.3216(2)
Pr6 Pr 0.80555(2) 0.20436(2) 0.729799(14)
H38 H 0.83167 0.0208503 0.26974
O12 O 0.8839(3) 0.9626(4) 0.2808(2)
O13 O 0.8370(2) 0.7231(3) 0.18576(15)
C15 C 0.93646(19) 0.8302(6) 0.01302(19)
O31 O 0.9826(3) 0.9762(3) 0.1548(2)
O32 O 0.8722(2) 0.7625(3) 0.30484(14)
H33 H 0.834028 0.678921 0.220444
H34 H 0.765262 0.761633 0.183039
H37 H 0.94723 0.976201 0.281608
H47 H 0.867093 0.884829 0.0378419
H49 H 0.921867 0.76367 0.0151559
O17 O 0.0174(3) 0.0238(3) 0.8452(2)
O12_2 O 0.1161(3) 0.0374(4) 0.7192(2)
O13_2 O 0.1630(2) 0.2769(3) 0.81424(15)
C15_2 C 0.06354(19) 0.1698(6) 0.98698(19)
O29 O 0.2697(3) 0.0701(3) 0.76512(15)
O30 O 0.1898(2) 0.0784(3) 0.86074(15)
H33_2 H 0.165972 0.321079 0.779556
H34_2 H 0.234738 0.238367 0.816961
H37_2 H 0.0527704 0.0237987 0.718392
H47_2 H 0.132907 0.115171 0.962158
H49_2 H 0.0781333 0.23633 0.984844
O24 O 0.3448(2) 0.3995(3) 0.63491(15)
O25 O 0.2673(2) 0.4002(3) 0.73041(15)
C39_2 C 0.0786(4) 0.5838(4) 0.5885(2)
H19_2 H 0.0813 0.6043 0.5487
C51_2 C 0.1703(4) 0.5303(4) 0.6054(2)
C52_2 C 0.0720(4) 0.5166(4) 0.7056(2)
H28_2 H 0.0067 0.8075 0.4212
H31_2 H 0.2341 0.5195 0.5775
C58_2 C 0.1671(4) 0.4938(4) 0.6627(2)
H32_2 H 0.0692 0.4946 0.7452
C64_2 C 0.2672(4) 0.4293(4) 0.6784(2)
H38_2 H 0.16833 0.97915 0.73026
O6 O 0.8946(2) 0.1322(3) 0.80822(14)
C43_2 C 0.7591(4) 0.0254(4) 0.8624(2)
H23_2 H 0.7263 0.0907 0.8641
C59_2 C 0.2687(4) 0.0484(4) 0.8186(2)
C60_2 C 0.9280(4) 0.0502(4) 0.8321(3)
C19_2 C 0.8934(6) 0.1317(5) 0.05759(12)
C33_2 C 0.5975(5) 0.7104(4) 0.0061(2)
C34_2 C 0.6687(4) 0.8244(4) 0.0148(2)
C45_2 C 0.5771(4) 0.6989(5) 0.0685(2)
C46_2 C 0.6506(5) 0.8133(4) 0.0767(2)
H25_2 H 0.5461 0.6551 0.0864
C55_2 C 0.6026(4) 0.7523(4) 0.1040(2)
H26_2 H 0.6713 0.8478 0.0999
C61_2 C 0.5856(3) 0.7385(4) 0.1713(2)
H50_2 H 0.961772 0.0704781 0.0600917
H51_2 H 0.823566 0.114399 0.0776654
H52_2 H 0.892484 0.190859 0.0823995
O1_2 O 0.8056(2) 0.3514(2) 0.76866(16)
O2_2 O 0.7000(3) 0.1101(2) 0.74106(15)
O3_2 O 0.8464(3) 0.1378(3) 0.62512(17)
O4_2 O 0.9342(3) 0.0434(3) 0.68735(19)
O5_2 O 0.6617(3) 0.2661(3) 0.82413(17)
N1_2 N 0.9153(5) 0.0588(5) 0.6387(3)
C1_2 C 0.8581(4) 0.3776(4) 0.7926(2)
C2_2 C 0.6532(3) 0.0792(4) 0.7129(2)
O10_2 O 0.9469(3) 0.3286(3) 0.80089(15)
C3_2 C 0.8180(4) 0.4799(4) 0.8136(2)
O11_2 O 0.5691(3) 0.1276(2) 0.69817(17)
O14_2 O 0.9746(3) 0.2055(3) 0.90563(10)
O19_2 O 0.3495(2) 0.1946(3) 0.67633(16)
O20_2 O 0.5516(3) 0.2593(3) 0.58945(18)
C5_2 C 0.7305(4) 0.5451(4) 0.7974(2)
C6_2 C 0.8630(4) 0.5109(4) 0.8521(2)
C9_2 C 0.97445(17) 0.1821(3) 0.95887(10)
C10_2 C 0.5340(5) 0.2877(5) 0.5389(3)
C11_2 C 0.6903(4) 0.6357(4) 0.8170(2)
H1_2 H 0.6990 0.5251 0.7725
C12_2 C 0.8192(4) 0.6045(4) 0.8731(2)
H2_2 H 0.9214 0.4696 0.8635
N2_2 N 0.89658(18) 0.1576(3) 0.99421(11)
C16_2 C 0.4572(5) 0.2668(8) 0.5108(4)
N3_2 N 0.5808(5) 0.3449(6) 0.5072(3)
C17_2 C 0.7325(3) 0.6683(3) 0.85721(19)
H5_2 H 0.6340 0.6776 0.8037
H6_2 H 0.8496 0.6245 0.8988
C20_2 C 0.8131(2) 0.1691(6) 0.96487(19)
C21_2 C 0.6857(5) 0.3262(11) 0.5184(5)
C22_2 C 0.5557(9) 0.3740(11) 0.4479(3)
Si1_2 Si 0.66869(10) 0.78983(10) 0.89306(6)
C23_2 C 0.5440(3) 0.8545(3) 0.8697(2)
C24_2 C 0.7515(4) 0.8641(4) 0.8707(2)
C25_2 C 0.6411(4) 0.7740(4) 0.9790(2)
C29_2 C 0.4493(4) 0.8905(4) 0.9123(2)
C30_2 C 0.5468(4) 0.8833(4) 0.8091(2)
C31_2 C 0.7033(4) 0.9669(3) 0.8751(2)
C32_2 C 0.8598(4) 0.8287(4) 0.8539(2)
H9_2 H 0.4447 0.8746 0.9530
C41_2 C 0.3614(4) 0.9501(4) 0.8943(2)
H10_2 H 0.6093 0.8614 0.7798
C42_2 C 0.4610(3) 0.9420(4) 0.7921(2)
H11_2 H 0.6312 0.9931 0.8870
H12_2 H 0.8939 0.7636 0.8501
C44_2 C 0.9191(4) 0.8896(4) 0.8423(2)
H13_2 H 0.5807 0.6734 0.9824
H14_2 H 0.7007 0.8674 0.9967
H21_2 H 0.2984 0.9731 0.9231
C53_2 C 0.3672(4) 0.9749(4) 0.8346(2)
H22_2 H 0.4654 0.9601 0.7517
C54_2 C 0.8676(4) 0.9853(4) 0.8468(2)
H24_2 H 0.9913 0.8651 0.8320
O28 O 0.6573(3) 0.3130(3) 0.68762(15)
O35 O 0.5150(3) 0.4271(3) 0.68316(18)
H35_2 H 0.692269 0.269255 0.858262
H36_2 H 0.620775 0.22298 0.834918
H39_2 H 0.386995 0.155591 0.638829
H40_2 H 0.281353 0.239071 0.671189
H41_2 H 0.780818 0.242955 0.952604
H42_2 H 0.752417 0.147984 0.996012
H43_2 H 0.84358 0.124969 0.924033
H44_2 H 0.479356 0.190614 0.505256
H45_2 H 0.457992 0.300504 0.466582
H46_2 H 0.379382 0.294349 0.540485
H53_2 H 0.677475 0.33684 0.566478
H54_2 H 0.721062 0.374619 0.491537
H55_2 H 0.734867 0.253539 0.505332
H56_2 H 0.578576 0.311558 0.419552
H57_2 H 0.597596 0.420558 0.425456
H58_2 H 0.472414 0.411348 0.454951
O9_2 O 0.9553(7) 0.9972(6) 0.5866(3)
C4_2 C 0.6981(3) 0.9769(4) 0.6919(2)
C7_2 C 0.7832(4) 0.9152(3) 0.7096(2)
C8_2 C 0.6584(4) 0.9481(4) 0.6524(2)
C13_2 C 0.8258(3) 0.8239(4) 0.6890(2)
H3_2 H 0.8120 0.9359 0.7358
C14_2 C 0.7043(4) 0.8539(4) 0.6302(2)
H4_2 H 0.6013 0.9898 0.6398
C18_2 C 0.7913(3) 0.7907(3) 0.64703(19)
H7_2 H 0.8803 0.7824 0.7040
H8_2 H 0.6755 0.8338 0.6037
Si2_2 Si 0.85811(9) 0.67259(10) 0.60763(6)
C26_2 C 0.8836(3) 0.6970(4) 0.5244(2)
C27_2 C 0.7758(3) 0.5952(4) 0.6277(2)
C28_2 C 0.9852(3) 0.6061(4) 0.6303(2)
C35_2 C 0.8456(4) 0.6621(4) 0.4851(2)
C36_2 C 0.9423(4) 0.7509(4) 0.4997(2)
C37_2 C 0.6733(4) 0.6205(4) 0.6507(2)
C38_2 C 0.8299(4) 0.4945(4) 0.6182(2)
C40_2 C 0.9830(3) 0.5710(4) 0.6896(2)
H15_2 H 0.8081 0.6219 0.4997
C47_2 C 0.8621(4) 0.6859(4) 0.4238(2)
H16_2 H 0.9698 0.7750 0.5251
C48_2 C 0.9638(4) 0.7723(4) 0.4372(2)
H17_2 H 0.6367 0.6849 0.6572
C49_2 C 0.6173(4) 0.5623(4) 0.6656(2)
H18_2 H 0.9014 0.4726 0.6018
C50_2 C 0.7781(4) 0.4291(4) 0.6329(2)
H20_2 H 0.9198 0.5853 0.7184
H27_2 H 0.8325 0.6636 0.3988
C56_2 C 0.9189(3) 0.7393(4) 0.4003(2)
H29_2 H 0.5456 0.5869 0.6809
C57_2 C 0.6689(4) 0.4637(4) 0.6577(2)
H30_2 H 0.8142 0.3646 0.6266
C62_2 C 0.9345(4) 0.7655(4) 0.3346(2)
C63_2 C 0.6123(4) 0.3978(4) 0.6772(2)
H48 H 0.955985 0.850996 0.965731
H48_2 H 0.044015 0.149004 0.0342688
loop_
_geom_bond_atom_site_label_1
_geom_bond_atom_site_label_2
_geom_bond_site_symmetry_1
_geom_bond_site_symmetry_2
O8 C63 1_555 1_555
O18 C62 1_555 1_555
O23 C63 1_555 1_555
C7 C4 1_555 1_555
C8 C4 1_555 1_555
C13 C7 1_555 1_555
H3 C7 1_555 1_555
C14 C8 1_555 1_555
H4 C8 1_555 1_555
C18 C13 1_555 1_555
H7 C13 1_555 1_555
H8 C14 1_555 1_555
Si2 C18 1_555 1_555
C26 Si2 1_555 1_555
C27 Si2 1_555 1_555
C28 Si2 1_555 1_555
C35 C26 1_555 1_555
C36 C26 1_555 1_555
C37 C27 1_555 1_555
C38 C27 1_555 1_555
C40 C28 1_555 1_555
H15 C35 1_555 1_555
C47 C35 1_555 1_555
H16 C36 1_555 1_555
C48 C36 1_555 1_555
H17 C37 1_555 1_555
C49 C37 1_555 1_555
H18 C38 1_555 1_555
C50 C38 1_555 1_555
H20 C40 1_555 1_555
H27 C47 1_555 1_555
C56 C47 1_555 1_555
H29 C49 1_555 1_555
C57 C49 1_555 1_555
H30 C50 1_555 1_555
C62 C56 1_555 1_555
C63 C57 1_555 1_555
Pr5 O8 1_555 1_555
Pr11 O8 1_555 1_555
O18 Pr9 1_555 1_555
O23 Pr11 1_555 1_555
C14 C18 1_555 1_555
C48 C56 1_555 1_555
C50 C57 1_555 1_555
Pr5 O1 1_555 1_555
O1 C1 1_555 1_555
O2 Pr5 1_555 1_555
O3 Pr5 1_555 1_555
O4 Pr5 1_555 1_555
O5 Pr5 1_555 1_555
N1 O3 1_555 1_555
C1 O10 1_555 1_555
C2 O2 1_555 1_555
Pr11 O11 1_555 1_555
C3 C1 1_555 1_555
O11 C2 1_555 1_555
O19 Pr11 1_555 1_555
O20 Pr11 1_555 1_555
C5 C3 1_555 1_555
C6 C3 1_555 1_555
C9 O14 1_555 1_555
C10 O20 1_555 1_555
C11 C5 1_555 1_555
H1 C5 1_555 1_555
C12 C6 1_555 1_555
H2 C6 1_555 1_555
N2 C9 1_555 1_555
C16 C10 1_555 1_555
N3 C10 1_555 1_555
C17 C11 1_555 1_555
H5 C11 1_555 1_555
H6 C12 1_555 1_555
C20 N2 1_555 1_555
C21 N3 1_555 1_555
C22 N3 1_555 1_555
Si1 C17 1_555 1_555
C23 Si1 1_555 1_555
C24 Si1 1_555 1_555
C25 Si1 1_555 1_555
C29 C23 1_555 1_555
C30 C23 1_555 1_555
C31 C24 1_555 1_555
C32 C24 1_555 1_555
H9 C29 1_555 1_555
C41 C29 1_555 1_555
H10 C30 1_555 1_555
C42 C30 1_555 1_555
H11 C31 1_555 1_555
H12 C32 1_555 1_555
C44 C32 1_555 1_555
H21 C41 1_555 1_555
C53 C41 1_555 1_555
H22 C42 1_555 1_555
H24 C44 1_555 1_555
O26 Pr5 1_555 1_555
O27 Pr5 1_555 1_555
O33 Pr11 1_555 1_555
O34 Pr11 1_555 1_555
O36 Pr11 1_555 1_555
O37 Pr11 1_555 1_555
O4 N1 1_555 1_555
C12 C17 1_555 1_555
C42 C53 1_555 1_555
C44 C54 1_555 1_555
O5 H35 1_555 1_555
O5 H36 1_555 1_555
O19 H39 1_555 1_555
O19 H40 1_555 1_555
C20 H41 1_555 1_555
C20 H42 1_555 1_555
C20 H43 1_555 1_555
C16 H44 1_555 1_555
C16 H45 1_555 1_555
C16 H46 1_555 1_555
C21 H53 1_555 1_555
C21 H54 1_555 1_555
C21 H55 1_555 1_555
C22 H56 1_555 1_555
C22 H57 1_555 1_555
C22 H58 1_555 1_555
O21 C61 1_555 1_555
O22 C61 1_555 1_555
C45 C33 1_555 1_555
C46 C34 1_555 1_555
H25 C45 1_555 1_555
C55 C45 1_555 1_555
H26 C46 1_555 1_555
C61 C55 1_555 1_555
Pr12 O21 1_555 1_555
O22 Pr12 1_555 1_555
C46 C55 1_555 1_555
C19 H50 1_555 1_555
C19 H51 1_555 1_555
C19 H52 1_555 1_555
O26 C60 1_555 1_555
O15 C59 1_555 1_555
O16 C59 1_555 1_555
H23 C43 1_555 1_555
Pr8 O15 1_555 1_555
O16 Pr8 1_555 1_555
O36 C64 1_555 1_555
O37 C64 1_555 1_555
H19 C39 1_555 1_555
C51 C39 1_555 1_555
H31 C51 1_555 1_555
C58 C51 1_555 1_555
H32 C52 1_555 1_555
C64 C58 1_555 1_555
Pr6 O7 1_555 1_555
C52 C58 1_555 1_555
O12 Pr8 1_555 1_555
O13 Pr8 1_555 1_555
O31 Pr8 1_555 1_555
O32 Pr8 1_555 1_555
O13 H33 1_555 1_555
O13 H34 1_555 1_555
O12 H37 1_555 1_555
C15 H47 1_555 1_555
C15 H49 1_555 1_555
O17 Pr9 1_555 1_555
O12_2 Pr9 1_555 1_555
O13_2 Pr9 1_555 1_555
O29 Pr9 1_555 1_555
O30 Pr9 1_555 1_555
O13_2 H33_2 1_555 1_555
O13_2 H34_2 1_555 1_555
O12_2 H37_2 1_555 1_555
C15_2 H47_2 1_555 1_555
C15_2 H49_2 1_555 1_555
O24 C64_2 1_555 1_555
O25 C64_2 1_555 1_555
H19_2 C39_2 1_555 1_555
C51_2 C39_2 1_555 1_555
H31_2 C51_2 1_555 1_555
C58_2 C51_2 1_555 1_555
H32_2 C52_2 1_555 1_555
C64_2 C58_2 1_555 1_555
Pr12 O24 1_555 1_555
O25 Pr12 1_555 1_555
C52_2 C58_2 1_555 1_555
O6 C60_2 1_555 1_555
O29 C59_2 1_555 1_555
O30 C59_2 1_555 1_555
H23_2 C43_2 1_555 1_555
Pr6 O6 1_555 1_555
O33 C61_2 1_555 1_555
O34 C61_2 1_555 1_555
C45_2 C33_2 1_555 1_555
C46_2 C34_2 1_555 1_555
H25_2 C45_2 1_555 1_555
C55_2 C45_2 1_555 1_555
H26_2 C46_2 1_555 1_555
C61_2 C55_2 1_555 1_555
C46_2 C55_2 1_555 1_555
C19_2 H50_2 1_555 1_555
C19_2 H51_2 1_555 1_555
C19_2 H52_2 1_555 1_555
Pr6 O1_2 1_555 1_555
O1_2 C1_2 1_555 1_555
O2_2 Pr6 1_555 1_555
O3_2 Pr6 1_555 1_555
O4_2 Pr6 1_555 1_555
O5_2 Pr6 1_555 1_555
N1_2 O3_2 1_555 1_555
C1_2 O10_2 1_555 1_555
C2_2 O2_2 1_555 1_555
Pr12 O11_2 1_555 1_555
C3_2 C1_2 1_555 1_555
O11_2 C2_2 1_555 1_555
O19_2 Pr12 1_555 1_555
O20_2 Pr12 1_555 1_555
C5_2 C3_2 1_555 1_555
C6_2 C3_2 1_555 1_555
C9_2 O14_2 1_555 1_555
C10_2 O20_2 1_555 1_555
C11_2 C5_2 1_555 1_555
H1_2 C5_2 1_555 1_555
C12_2 C6_2 1_555 1_555
H2_2 C6_2 1_555 1_555
N2_2 C9_2 1_555 1_555
C16_2 C10_2 1_555 1_555
N3_2 C10_2 1_555 1_555
C17_2 C11_2 1_555 1_555
H5_2 C11_2 1_555 1_555
H6_2 C12_2 1_555 1_555
C20_2 N2_2 1_555 1_555
C21_2 N3_2 1_555 1_555
C22_2 N3_2 1_555 1_555
Si1_2 C17_2 1_555 1_555
C23_2 Si1_2 1_555 1_555
C24_2 Si1_2 1_555 1_555
C25_2 Si1_2 1_555 1_555
C29_2 C23_2 1_555 1_555
C30_2 C23_2 1_555 1_555
C31_2 C24_2 1_555 1_555
C32_2 C24_2 1_555 1_555
H9_2 C29_2 1_555 1_555
C41_2 C29_2 1_555 1_555
H10_2 C30_2 1_555 1_555
C42_2 C30_2 1_555 1_555
H11_2 C31_2 1_555 1_555
H12_2 C32_2 1_555 1_555
C44_2 C32_2 1_555 1_555
H21_2 C41_2 1_555 1_555
C53_2 C41_2 1_555 1_555
H22_2 C42_2 1_555 1_555
H24_2 C44_2 1_555 1_555
O28 Pr6 1_555 1_555
O35 Pr12 1_555 1_555
O4_2 N1_2 1_555 1_555
Pr12 O28 1_555 1_555
C12_2 C17_2 1_555 1_555
C42_2 C53_2 1_555 1_555
C44_2 C54_2 1_555 1_555
O5_2 H35_2 1_555 1_555
O5_2 H36_2 1_555 1_555
O19_2 H39_2 1_555 1_555
O19_2 H40_2 1_555 1_555
C20_2 H41_2 1_555 1_555
C20_2 H42_2 1_555 1_555
C20_2 H43_2 1_555 1_555
C16_2 H44_2 1_555 1_555
C16_2 H45_2 1_555 1_555
C16_2 H46_2 1_555 1_555
C21_2 H53_2 1_555 1_555
C21_2 H54_2 1_555 1_555
C21_2 H55_2 1_555 1_555
C22_2 H56_2 1_555 1_555
C22_2 H57_2 1_555 1_555
C22_2 H58_2 1_555 1_555
O28 C63_2 1_555 1_555
O32 C62_2 1_555 1_555
O35 C63_2 1_555 1_555
C7_2 C4_2 1_555 1_555
C8_2 C4_2 1_555 1_555
C13_2 C7_2 1_555 1_555
H3_2 C7_2 1_555 1_555
C14_2 C8_2 1_555 1_555
H4_2 C8_2 1_555 1_555
C18_2 C13_2 1_555 1_555
H7_2 C13_2 1_555 1_555
H8_2 C14_2 1_555 1_555
Si2_2 C18_2 1_555 1_555
C26_2 Si2_2 1_555 1_555
C27_2 Si2_2 1_555 1_555
C28_2 Si2_2 1_555 1_555
C35_2 C26_2 1_555 1_555
C36_2 C26_2 1_555 1_555
C37_2 C27_2 1_555 1_555
C38_2 C27_2 1_555 1_555
C40_2 C28_2 1_555 1_555
H15_2 C35_2 1_555 1_555
C47_2 C35_2 1_555 1_555
H16_2 C36_2 1_555 1_555
C48_2 C36_2 1_555 1_555
H17_2 C37_2 1_555 1_555
C49_2 C37_2 1_555 1_555
H18_2 C38_2 1_555 1_555
C50_2 C38_2 1_555 1_555
H20_2 C40_2 1_555 1_555
H27_2 C47_2 1_555 1_555
C56_2 C47_2 1_555 1_555
H29_2 C49_2 1_555 1_555
C57_2 C49_2 1_555 1_555
H30_2 C50_2 1_555 1_555
C62_2 C56_2 1_555 1_555
C63_2 C57_2 1_555 1_555
C14_2 C18_2 1_555 1_555
C48_2 C56_2 1_555 1_555
C50_2 C57_2 1_555 1_555

#END
