
###############################################################################
#
# This file contains modified crystal structure data generated from the
# MOF subset of the Cambridge Structural Database (CSD) v543 
# hosted by the Cambridge Crystallographic Data Centre (CCDC).
#
# This work is licensed under the Creative Commons
# Attribution-NonCommercial-ShareAlike 4.0 International License.
# To view a copy of this license, visit
# http://creativecommons.org/licenses/by-nc-sa/4.0/
# or send a letter to
# Creative Commons, PO Box 1866, Mountain View, CA 94042, USA.
#
# CIF created using the CSD Python API on 29 September 2022
# The structure has been converted into the P1 space group
# The structure has a 3D framework
# The original CSD entry YIWFAO is in the monoclinic crystal system
# The framework has been calculated to contain at least 10.0% void space
# The void calculation uses a probe of radius 1.32A, grid spacing 0.4
# H atom positions have been added when not included in the experimental data
# Generated hydrogen atom positions removed from atoms on special positions
#
###############################################################################

data_YIWFAO
_chemical_formula_moiety         '(C84 H60 N8 O28 Zn3)n'
_symmetry_cell_setting           triclinic
_symmetry_space_group_name_H-M   'P 1'
_symmetry_Int_Tables_number      1
_space_group_name_Hall           'P 1'
loop_
_symmetry_equiv_pos_site_id
_symmetry_equiv_pos_as_xyz
1 x,y,z
_cell_length_a                   4.821(5)
_cell_length_b                   17.325(5)
_cell_length_c                   27.459(5)
_cell_angle_alpha                90
_cell_angle_beta                 91.618(5)
_cell_angle_gamma                90
_cell_volume                     2292.57
loop_
_atom_site_label
_atom_site_type_symbol
_atom_site_fract_x
_atom_site_fract_y
_atom_site_fract_z
Zn4 Zn 0.29864(6) 0.05654(2) 0.70024(2)
O1 O 0.6395(4) 0.00036(12) 0.15098(6)
O2 O 0.0325(5) 0.16338(14) 0.07526(7)
O3 O 0.6494(4) 0.34240(10) 0.18508(7)
N1 N 0.3589(4) 0.08721(12) 0.11206(6)
C3 C 0.4684(5) 0.01704(13) 0.02263(7)
C4 C 0.5441(5) 0.30912(14) 0.22132(9)
C5 C 0.2723(5) 0.07722(14) 0.02395(8)
O7 O 0.5491(5) 0.33663(12) 0.26271(8)
C7 C 0.3168(5) 0.12641(13) 0.15821(8)
C8 C 0.1604(5) 0.09087(14) 0.19278(8)
H3 H 0.0785 0.0432 0.1864
C9 C 0.1258(5) 0.12704(13) 0.23756(8)
C10 C 0.2073(6) 0.11340(15) 0.07118(8)
C11 C 0.4420(5) 0.19667(14) 0.16672(8)
C15 C 0.5399(5) 0.02435(14) 0.11278(8)
C17 C 0.4083(5) 0.23293(13) 0.21130(8)
C18 C 0.2475(5) 0.19835(13) 0.24645(8)
H6 H 0.221(5) 0.2232(15) 0.2748(10)
H7 H 0.547(5) 0.2211(16) 0.1420(10)
Zn3 Zn 0.79864(6) 0.44346(2) 0.20024(2)
H11 H 0.817(9) 0.038(3) 0.4702(17)
C22 C 0.8909(5) 0.01695(17) 0.56555(8)
N3 N 0.5262(4) 0.03607(12) 0.64149(7)
C26 C 0.8043(6) 0.08912(18) 0.57951(10)
H14 H 0.8680 0.1327 0.5635
C27 C 0.6234(6) 0.09693(16) 0.61714(10)
H15 H 0.5668 0.1462 0.6260
O14 O 0.5655(4) 0.05964(14) 0.75645(8)
O16 O 0.1494(4) 0.15760(10) 0.68508(7)
O2_2 O 0.4675(5) 0.66338(14) 0.42474(7)
N1_2 N 0.1411(4) 0.58721(12) 0.38794(6)
O4 O 0.6552(5) 0.62265(12) 0.19261(7)
C3_2 C 0.0316(5) 0.51704(13) 0.47737(7)
O5 O 0.5367(4) 0.51270(10) 0.22797(7)
C5_2 C 0.2277(5) 0.57722(14) 0.47605(8)
C7_2 C 0.1832(5) 0.62641(13) 0.34179(8)
C8_2 C 0.3396(5) 0.59087(14) 0.30722(8)
H3_2 H 0.4215 0.5432 0.3136
C9_2 C 0.3742(5) 0.62704(13) 0.26244(8)
C10_2 C 0.2927(6) 0.61340(15) 0.42882(8)
C11_2 C 0.0580(5) 0.69667(14) 0.33328(8)
C12 C 0.3598(6) 0.60204(16) 0.51828(9)
C14 C 0.5385(5) 0.58689(14) 0.22421(8)
C17_2 C 0.0917(5) 0.73293(13) 0.28870(8)
C18_2 C 0.2525(5) 0.69835(13) 0.25355(8)
H6_2 H 0.279(5) 0.7232(15) 0.2252(10)
H9 H 0.492(7) 0.6387(19) 0.5171(11)
O8 O 0.1395(4) 0.49964(12) 0.65098(6)
C35 C 0.1039(5) 0.51056(13) 0.56536(8)
C37 C 0.0399(5) 0.47565(14) 0.61278(8)
C38 C 0.2955(6) 0.56905(15) 0.56339(9)
H19 H 0.387(6) 0.5804(17) 0.5916(11)
C39 C 0.0441(5) 0.19088(14) 0.72132(9)
O13 O 0.0491(5) 0.16337(12) 0.76271(8)
H22 H 0.047(5) 0.2789(16) 0.6420(10)
H25 H 0.97094 0.420418 0.285545
H24 H 0.963988 0.430337 0.286775
O10 O 0.1552(5) 0.87735(12) 0.69261(7)
O11 O 0.0367(4) 0.98730(10) 0.72797(7)
C36 C 0.0385(5) 0.91311(14) 0.72421(8)
C16 C 0.9176(6) 0.9938(2) 0.47622(10)
H10 H 0.806(9) 0.947(2) 0.4797(15)
C23 C 0.6074(6) 0.96611(16) 0.62788(10)
H12 H 0.5391 0.9234 0.6442
C24 C 0.7888(6) 0.95435(17) 0.59056(10)
H13 H 0.8420 0.9046 0.5823
C12_2 C 0.1402(6) 0.10204(16) 0.98172(9)
H9_2 H 0.008(7) 0.1387(19) 0.9829(11)
C35_2 C 0.3961(5) 0.01056(13) 0.93464(8)
C38_2 C 0.2045(6) 0.06905(15) 0.93661(9)
H19_2 H 0.113(6) 0.0804(17) 0.9084(11)
C13 C 0.6039(5) 0.98944(13) 0.06536(8)
C21 C 0.7955(6) 0.93095(15) 0.06339(9)
H8 H 0.887(6) 0.9196(17) 0.0916(11)
C34 C 0.8598(6) 0.89796(16) 0.01828(9)
H20 H 0.992(7) 0.8613(19) 0.0171(11)
O8_2 O 0.3605(4) 0.99964(12) 0.84902(6)
O9 O 0.9675(5) 0.83662(14) 0.92474(7)
N4 N 0.6411(4) 0.91279(12) 0.88794(6)
C28 C 0.5316(5) 0.98296(13) 0.97737(7)
C29 C 0.7277(5) 0.92278(14) 0.97605(8)
C30 C 0.6832(5) 0.87359(13) 0.84179(8)
C31 C 0.8396(5) 0.90913(14) 0.80722(8)
H18 H 0.9215 0.9568 0.8136
C32 C 0.8742(5) 0.87296(13) 0.76244(8)
C33 C 0.7927(6) 0.88660(15) 0.92882(8)
C37_2 C 0.4601(5) 0.97565(14) 0.88722(8)
O12 O 0.3506(4) 0.65760(10) 0.81492(7)
C39_2 C 0.4559(5) 0.69088(14) 0.77868(9)
O13_2 O 0.4509(5) 0.66337(12) 0.73729(8)
C40 C 0.5580(5) 0.80333(14) 0.83328(8)
C41 C 0.5917(5) 0.76707(13) 0.78870(8)
C42 C 0.7525(5) 0.80165(13) 0.75355(8)
H21 H 0.779(5) 0.7768(15) 0.7252(10)
H22_2 H 0.453(5) 0.7789(16) 0.8580(10)
Zn5 Zn 0.20136(6) 0.55654(2) 0.79976(2)
Zn1 Zn 0.70136(6) 0.94346(2) 0.29976(2)
C1 C 0.1091(5) 0.98305(17) 0.43445(8)
O6 O 0.4345(4) 0.94036(14) 0.24355(8)
N2 N 0.4738(4) 0.96393(12) 0.35851(7)
C19 C 0.1957(6) 0.91088(18) 0.42049(10)
H4 H 0.1320 0.8673 0.4365
C20 C 0.3766(6) 0.90307(16) 0.38286(10)
H5 H 0.4332 0.8538 0.3740
H17 H 0.183(9) 0.962(3) 0.5298(17)
O15 O 0.8506(4) 0.84240(10) 0.31492(7)
O17 O 0.4633(4) 0.48730(10) 0.77203(7)
H24_2 H 0.0360116 0.569663 0.713225
O1_2 O 0.8605(4) 0.50036(12) 0.34902(6)
C4_2 C 0.9559(5) 0.80912(14) 0.27868(9)
O7_2 O 0.9509(5) 0.83663(12) 0.23729(8)
C13_2 C 0.8961(5) 0.48944(13) 0.43464(8)
C15_2 C 0.9601(5) 0.52435(14) 0.38722(8)
C21_2 C 0.7045(6) 0.43095(15) 0.43661(9)
H7_2 H 0.953(5) 0.7211(16) 0.3580(10)
H8_2 H 0.613(6) 0.4196(17) 0.4084(11)
O9_2 O 0.5325(5) 0.33662(14) 0.57526(7)
N4_2 N 0.8589(4) 0.41279(12) 0.61206(6)
O10_2 O 0.3448(5) 0.37735(12) 0.80739(7)
C28_2 C 0.9684(5) 0.48296(13) 0.52263(7)
C29_2 C 0.7723(5) 0.42278(14) 0.52395(8)
C30_2 C 0.8168(5) 0.37359(13) 0.65821(8)
C31_2 C 0.6604(5) 0.40913(14) 0.69278(8)
H18_2 H 0.5785 0.4568 0.6864
C32_2 C 0.6258(5) 0.37296(13) 0.73756(8)
C33_2 C 0.7073(6) 0.38660(15) 0.57118(8)
C34_2 C 0.6402(6) 0.39796(16) 0.48172(9)
C36_2 C 0.4615(5) 0.41311(14) 0.77579(8)
H20_2 H 0.508(7) 0.3613(19) 0.4829(11)
C40_2 C 0.9420(5) 0.30333(14) 0.66672(8)
C41_2 C 0.9083(5) 0.26707(13) 0.71130(8)
C42_2 C 0.7475(5) 0.30165(13) 0.74645(8)
H21_2 H 0.721(5) 0.2768(15) 0.7748(10)
H25_2 H 0.02906 0.579582 0.714455
C2 C 0.3926(6) 0.03389(16) 0.37212(10)
H1 H 0.4609 0.0766 0.3558
O4_2 O 0.8448(5) 0.12265(12) 0.30739(7)
O5_2 O 0.9633(4) 0.01270(10) 0.27203(7)
C6 C 0.2112(6) 0.04565(17) 0.40944(10)
H2 H 0.1580 0.0954 0.4177
C14_2 C 0.9615(5) 0.08689(14) 0.27579(8)
C25 C 0.0824(6) 0.0062(2) 0.52378(10)
H16 H 0.194(9) 0.053(2) 0.5203(15)
C1_2 C 0.3909(5) 0.48305(17) 0.06555(8)
C2_2 C 0.1074(6) 0.53389(16) 0.12788(10)
H1_2 H 0.0391 0.5766 0.1442
O6_2 O 0.0655(4) 0.44036(14) 0.25645(8)
C6_2 C 0.2888(6) 0.54565(17) 0.09056(10)
H2_2 H 0.3420 0.5954 0.0823
N2_2 N 0.0262(4) 0.46393(12) 0.14149(7)
C16_2 C 0.5824(6) 0.4938(2) 0.02378(10)
C19_2 C 0.3043(6) 0.41088(18) 0.07951(10)
H4_2 H 0.3680 0.3673 0.0635
C20_2 C 0.1234(6) 0.40307(16) 0.11714(10)
H5_2 H 0.0668 0.3538 0.1260
H10_2 H 0.694(9) 0.447(2) 0.0203(15)
H11_2 H 0.683(9) 0.538(3) 0.0298(17)
H26 H 0.222891 0.405902 0.248738
H23 H 0.202715 0.398544 0.251494
C22_2 C 0.6091(5) 0.51695(17) 0.93445(8)
C23_2 C 0.8926(6) 0.46611(16) 0.87212(10)
H12_2 H 0.9609 0.4234 0.8558
C24_2 C 0.7112(6) 0.45435(17) 0.90944(10)
H13_2 H 0.6580 0.4046 0.9177
N3_2 N 0.9738(4) 0.53607(12) 0.85851(7)
C25_2 C 0.4176(6) 0.5062(2) 0.97622(10)
C26_2 C 0.6957(6) 0.58912(18) 0.92049(10)
H14_2 H 0.6320 0.6327 0.9365
C27_2 C 0.8766(6) 0.59693(16) 0.88286(10)
H15_2 H 0.9332 0.6462 0.8740
H16_2 H 0.306(9) 0.553(2) 0.9797(15)
H17_2 H 0.317(9) 0.462(3) 0.9702(17)
O14_2 O 0.9345(4) 0.55964(14) 0.74355(8)
H23_2 H 0.797285 0.601456 0.748506
H26_2 H 0.777109 0.594098 0.751262
loop_
_geom_bond_atom_site_label_1
_geom_bond_atom_site_label_2
_geom_bond_site_symmetry_1
_geom_bond_site_symmetry_2
O1 C15 1_555 1_555
O2 C10 1_555 1_555
O3 C4 1_555 1_555
N1 C7 1_555 1_555
C3 C5 1_555 1_555
C4 O7 1_555 1_555
C5 C10 1_555 1_555
C7 C8 1_555 1_555
C8 H3 1_555 1_555
C9 C8 1_555 1_555
C10 N1 1_555 1_555
C11 C7 1_555 1_555
C15 N1 1_555 1_555
C17 C4 1_555 1_555
C18 C9 1_555 1_555
H6 C18 1_555 1_555
H7 C11 1_555 1_555
Zn3 O3 1_555 1_555
C11 C17 1_555 1_555
C17 C18 1_555 1_555
C26 C22 1_555 1_555
H14 C26 1_555 1_555
C27 N3 1_555 1_555
H15 C27 1_555 1_555
Zn4 N3 1_555 1_555
O14 Zn4 1_555 1_555
O16 Zn4 1_555 1_555
C26 C27 1_555 1_555
Zn3 O5 1_555 1_555
O2_2 C10_2 1_555 1_555
N1_2 C7_2 1_555 1_555
O4 C14 1_555 1_555
C3_2 C5_2 1_555 1_555
O5 C14 1_555 1_555
C5_2 C10_2 1_555 1_555
C7_2 C8_2 1_555 1_555
C8_2 H3_2 1_555 1_555
C9_2 C8_2 1_555 1_555
C10_2 N1_2 1_555 1_555
C11_2 C7_2 1_555 1_555
C12 C5_2 1_555 1_555
C14 C9_2 1_555 1_555
C18_2 C9_2 1_555 1_555
H6_2 C18_2 1_555 1_555
H9 C12 1_555 1_555
O8 C37 1_555 1_555
C38 C12 1_555 1_555
H19 C38 1_555 1_555
O16 C39 1_555 1_555
C39 O13 1_555 1_555
C11_2 C17_2 1_555 1_555
C17_2 C18_2 1_555 1_555
C35 C37 1_555 1_555
C35 C38 1_555 1_555
O10 C36 1_555 1_555
O11 C36 1_555 1_555
H10 C16 1_555 1_555
C23 H12 1_555 1_555
C24 C23 1_555 1_555
H13 C24 1_555 1_555
H9_2 C12_2 1_555 1_555
C38_2 C12_2 1_555 1_555
H19_2 C38_2 1_555 1_555
C35_2 C38_2 1_555 1_555
C21 C13 1_555 1_555
H8 C21 1_555 1_555
C34 C21 1_555 1_555
H20 C34 1_555 1_555
O8_2 C37_2 1_555 1_555
O9 C33 1_555 1_555
N4 C30 1_555 1_555
C29 C28 1_555 1_555
C30 C31 1_555 1_555
C31 H18 1_555 1_555
C32 C31 1_555 1_555
C33 N4 1_555 1_555
C37_2 N4 1_555 1_555
O12 C39_2 1_555 1_555
C39_2 O13_2 1_555 1_555
C40 C30 1_555 1_555
C41 C39_2 1_555 1_555
C42 C32 1_555 1_555
H21 C42 1_555 1_555
H22_2 C40 1_555 1_555
Zn5 O12 1_555 1_555
C29 C33 1_555 1_555
C40 C41 1_555 1_555
C41 C42 1_555 1_555
O6 Zn1 1_555 1_555
N2 Zn1 1_555 1_555
C19 C1 1_555 1_555
H4 C19 1_555 1_555
C20 N2 1_555 1_555
H5 C20 1_555 1_555
O15 Zn1 1_555 1_555
C19 C20 1_555 1_555
O17 Zn5 1_555 1_555
O1_2 C15_2 1_555 1_555
O15 C4_2 1_555 1_555
C4_2 O7_2 1_555 1_555
C21_2 C13_2 1_555 1_555
H8_2 C21_2 1_555 1_555
O9_2 C33_2 1_555 1_555
N4_2 C30_2 1_555 1_555
O10_2 C36_2 1_555 1_555
O17 C36_2 1_555 1_555
C29_2 C28_2 1_555 1_555
C30_2 C31_2 1_555 1_555
C31_2 H18_2 1_555 1_555
C32_2 C31_2 1_555 1_555
C33_2 N4_2 1_555 1_555
C34_2 C21_2 1_555 1_555
C36_2 C32_2 1_555 1_555
H20_2 C34_2 1_555 1_555
C40_2 C30_2 1_555 1_555
C42_2 C32_2 1_555 1_555
H21_2 C42_2 1_555 1_555
C13_2 C15_2 1_555 1_555
C29_2 C33_2 1_555 1_555
C29_2 C34_2 1_555 1_555
C40_2 C41_2 1_555 1_555
C41_2 C42_2 1_555 1_555
C2 H1 1_555 1_555
O4_2 C14_2 1_555 1_555
O5_2 C14_2 1_555 1_555
C6 C2 1_555 1_555
H2 C6 1_555 1_555
H16 C25 1_555 1_555
C1_2 C6_2 1_555 1_555
C2_2 H1_2 1_555 1_555
C6_2 C2_2 1_555 1_555
H2_2 C6_2 1_555 1_555
C16_2 C1_2 1_555 1_555
C19_2 C1_2 1_555 1_555
H4_2 C19_2 1_555 1_555
C20_2 N2_2 1_555 1_555
H5_2 C20_2 1_555 1_555
H10_2 C16_2 1_555 1_555
H11_2 C16_2 1_555 1_555
C2_2 N2_2 1_555 1_555
C19_2 C20_2 1_555 1_555
O6_2 H26 1_555 1_555
O6_2 H23 1_555 1_555
C22_2 C24_2 1_555 1_555
C23_2 H12_2 1_555 1_555
C24_2 C23_2 1_555 1_555
H13_2 C24_2 1_555 1_555
N3_2 C23_2 1_555 1_555
C26_2 C22_2 1_555 1_555
H14_2 C26_2 1_555 1_555
C27_2 N3_2 1_555 1_555
H15_2 C27_2 1_555 1_555
H16_2 C25_2 1_555 1_555
H17_2 C25_2 1_555 1_555
C22_2 C25_2 1_555 1_555
C26_2 C27_2 1_555 1_555
O14_2 H23_2 1_555 1_555
O14_2 H26_2 1_555 1_555

#END
