
###############################################################################
#
# This file contains modified crystal structure data generated from the
# MOF subset of the Cambridge Structural Database (CSD) v543 
# hosted by the Cambridge Crystallographic Data Centre (CCDC).
#
# This work is licensed under the Creative Commons
# Attribution-NonCommercial-ShareAlike 4.0 International License.
# To view a copy of this license, visit
# http://creativecommons.org/licenses/by-nc-sa/4.0/
# or send a letter to
# Creative Commons, PO Box 1866, Mountain View, CA 94042, USA.
#
# CIF created using the CSD Python API on 29 September 2022
# The structure has been converted into the P1 space group
# The structure has a 3D framework
# The original CSD entry YIWFES is in the monoclinic crystal system
# The framework has been calculated to contain at least 10.0% void space
# The void calculation uses a probe of radius 1.32A, grid spacing 0.4
#
###############################################################################

data_YIWFES
_chemical_formula_moiety         '(C112 H60 N12 O24 Zn4)n'
_symmetry_cell_setting           triclinic
_symmetry_space_group_name_H-M   'P 1'
_symmetry_Int_Tables_number      1
_space_group_name_Hall           'P 1'
loop_
_symmetry_equiv_pos_site_id
_symmetry_equiv_pos_as_xyz
1 x,y,z
_cell_length_a                   10.082(5)
_cell_length_b                   13.637(5)
_cell_length_c                   20.120(5)
_cell_angle_alpha                90
_cell_angle_beta                 97.575(5)
_cell_angle_gamma                90
_cell_volume                     2742.12
loop_
_atom_site_label
_atom_site_type_symbol
_atom_site_fract_x
_atom_site_fract_y
_atom_site_fract_z
H15 H 0.017(5) 0.030(4) 0.314(3)
O3 O 0.4549(3) 0.7829(2) 0.62251(16)
O4 O 0.0765(5) 0.9588(3) 0.42659(17)
N2 N 0.0800(4) 0.7925(3) 0.42542(18)
C2 C 0.0998(4) 0.7889(3) 0.63587(19)
H1 H 0.1032 0.7892 0.6823
O5 O 0.3524(3) 0.7949(2) 0.71266(15)
O6 O 0.0790(6) 0.6271(3) 0.42519(19)
C5 C 0.0912(5) 0.7910(3) 0.4980(2)
C7 C 0.2132(4) 0.7901(3) 0.5371(2)
H3 H 0.2917 0.7900 0.5175
C8 C 0.0154(4) 0.7934(3) 0.2857(2)
C9 C 0.2181(4) 0.7893(3) 0.60702(19)
C10 C 0.0315(5) 0.7029(3) 0.3195(2)
C11 C 0.3513(4) 0.7888(3) 0.65131(19)
C12 C 0.0301(4) 0.8831(3) 0.3199(2)
C16 C 0.0153(5) 0.6161(4) 0.2849(2)
C19 C 0.0148(5) 0.9701(3) 0.2853(2)
C23 C 0.0649(5) 0.7022(4) 0.3936(2)
C25 C 0.0629(5) 0.8837(4) 0.3937(2)
H14 H 0.007(6) 0.560(5) 0.309(3)
H17 H 0.1081 0.7886 0.0015
Zn5 Zn 0.63453(4) 0.78731(3) 0.68435(2)
Zn8 Zn 0.36547(4) 0.78731(3) 0.81565(2)
O7 O 0.1489(3) 0.7891(2) 0.81263(17)
O8 O 0.2607(3) 0.7834(3) 0.91292(19)
C29 C 0.0229(4) 0.7880(3) 0.9044(2)
C31 C 0.0263(4) 0.7891(3) 0.9740(2)
C35 C 0.1519(4) 0.7863(3) 0.8752(2)
C1 C 0.6130(5) 0.1461(4) 0.6681(3)
N1 N 0.6345(4) 0.6301(3) 0.6907(2)
C3 C 0.6378(5) 0.4260(4) 0.6968(3)
C14 C 0.6642(5) 0.0000(4) 0.7325(3)
C15 C 0.6586(6) 0.1019(4) 0.7283(4)
H5 H 0.6855 0.1400 0.7660
C17 C 0.6034(7) 0.2539(5) 0.6585(4)
H6 H 0.5676 0.2773 0.6165
C18 C 0.5741(7) 0.0876(4) 0.6141(3)
H7 H 0.5444 0.1150 0.5725
C21 C 0.5842(7) 0.4760(4) 0.6383(4)
H9 H 0.5488 0.4412 0.6003
C22 C 0.6835(6) 0.5822(4) 0.7464(3)
H10 H 0.7175 0.6185 0.7840
C24 C 0.6859(7) 0.4815(4) 0.7507(4)
H11 H 0.7206 0.4514 0.7907
C26 C 0.5846(6) 0.5773(4) 0.6378(3)
H12 H 0.5486 0.6098 0.5989
C27 C 0.6417(7) 0.3170(5) 0.7049(4)
H13 H 0.6746 0.2926 0.7470
H19 H 0.983(5) 0.030(4) 0.186(3)
C43 C 0.3870(5) 0.1461(4) 0.8319(3)
N5 N 0.3655(4) 0.6301(3) 0.8093(2)
C44 C 0.3622(5) 0.4260(4) 0.8032(3)
C45 C 0.3358(5) 0.0000(4) 0.7675(3)
C46 C 0.3414(6) 0.1019(4) 0.7717(4)
H22 H 0.3145 0.1400 0.7340
C47 C 0.3966(7) 0.2539(5) 0.8415(4)
H23 H 0.4324 0.2773 0.8835
C48 C 0.4259(7) 0.0876(4) 0.8859(3)
H24 H 0.4556 0.1150 0.9275
C50 C 0.4158(7) 0.4760(4) 0.8617(4)
H26 H 0.4512 0.4412 0.8997
C51 C 0.3165(6) 0.5822(4) 0.7536(3)
H27 H 0.2825 0.6185 0.7160
C52 C 0.3141(7) 0.4815(4) 0.7493(4)
H28 H 0.2794 0.4514 0.7093
C53 C 0.4154(6) 0.5773(4) 0.8622(3)
H29 H 0.4514 0.6098 0.9011
C54 C 0.3583(7) 0.3170(5) 0.7951(4)
H30 H 0.3254 0.2926 0.7530
O1 O 0.8511(3) 0.7891(2) 0.68737(17)
O2 O 0.7393(3) 0.7834(3) 0.58708(19)
N3 N 0.6258(4) 0.9429(3) 0.68046(19)
C4 C 0.9771(4) 0.7880(3) 0.5956(2)
C6 C 0.9737(4) 0.7891(3) 0.5260(2)
H2 H 0.8919 0.7886 0.4985
C13 C 0.8481(4) 0.7863(3) 0.6248(2)
C14_2 C 0.6642(5) 1.0000(4) 0.7325(3)
H4 H 0.6960 0.9711 0.7734
C20 C 0.5794(7) 0.9869(4) 0.6221(3)
H8 H 0.5495 0.9477 0.5853
O9 O 0.9235(5) 0.9588(3) 0.07341(17)
N4 N 0.9200(4) 0.7925(3) 0.07458(18)
O10 O 0.9210(6) 0.6271(3) 0.07481(19)
C30 C 0.9088(5) 0.7910(3) 0.0020(2)
C32 C 0.9846(4) 0.7934(3) 0.2143(2)
C33 C 0.9685(5) 0.7029(3) 0.1805(2)
C34 C 0.9699(4) 0.8831(3) 0.1801(2)
C36 C 0.9847(5) 0.6161(4) 0.2151(2)
C37 C 0.9852(5) 0.9701(3) 0.2147(2)
C38 C 0.9351(5) 0.7022(4) 0.1064(2)
C39 C 0.9371(5) 0.8837(4) 0.1063(2)
H18 H 0.993(6) 0.560(5) 0.191(3)
O17 O 0.6476(3) 0.7949(2) 0.78734(15)
C28 C 0.9002(4) 0.7889(3) 0.86413(19)
H16 H 0.8968 0.7892 0.8177
O11 O 0.5451(3) 0.7829(2) 0.87749(16)
C40 C 0.7868(4) 0.7901(3) 0.9629(2)
H20 H 0.7083 0.7900 0.9825
C41 C 0.7819(4) 0.7893(3) 0.89298(19)
C42 C 0.6487(4) 0.7888(3) 0.84869(19)
N6 N 0.3742(4) 0.9429(3) 0.81954(19)
C45_2 C 0.3358(5) 1.0000(4) 0.7675(3)
H21 H 0.3040 0.9711 0.7266
C49 C 0.4206(7) 0.9869(4) 0.8779(3)
H25 H 0.4505 0.9477 0.9147
C28_2 C 0.0998(4) 0.2111(3) 0.13587(19)
H16_2 H 0.1032 0.2108 0.1823
O11_2 O 0.4549(3) 0.2171(2) 0.12251(16)
C40_2 C 0.2132(4) 0.2099(3) 0.0371(2)
H20_2 H 0.2917 0.2100 0.0175
C41_2 C 0.2181(4) 0.2107(3) 0.10702(19)
C42_2 C 0.3513(4) 0.2112(3) 0.15131(19)
O12 O 0.3524(3) 0.2051(2) 0.21266(15)
Zn2 Zn 0.63453(4) 0.21269(3) 0.18435(2)
N6_2 N 0.6258(4) 0.0571(3) 0.18046(19)
C45_3 C 0.6642(5) 0.0000(4) 0.2325(3)
H21_2 H 0.6960 0.0289 0.2734
C49_2 C 0.5794(7) 0.0131(4) 0.1221(3)
H25_2 H 0.5495 0.0523 0.0853
Zn3 Zn 0.36547(4) 0.21269(3) 0.31565(2)
O13 O 0.8511(3) 0.2109(2) 0.18737(17)
O14 O 0.7393(3) 0.2166(3) 0.08708(19)
N8 N 0.6345(4) 0.3699(3) 0.1907(2)
O16 O 0.6476(3) 0.2051(2) 0.28734(15)
O1_2 O 0.1489(3) 0.2109(2) 0.31263(17)
O2_2 O 0.2607(3) 0.2166(3) 0.41292(19)
N3_2 N 0.3742(4) 0.0571(3) 0.31954(19)
C4_2 C 0.0229(4) 0.2120(3) 0.4044(2)
C6_2 C 0.0263(4) 0.2109(3) 0.4740(2)
H2_2 H 0.1081 0.2114 0.5015
C13_2 C 0.1519(4) 0.2137(3) 0.3752(2)
C14_3 C 0.3358(5) -0.0000(4) 0.2675(3)
H4_2 H 0.3040 0.0289 0.2266
C20_2 C 0.4206(7) 0.0131(4) 0.3779(3)
H8_2 H 0.4505 0.0523 0.4147
O9_2 O 0.0765(5) 0.0412(3) 0.92659(17)
N4_2 N 0.0800(4) 0.2075(3) 0.92542(18)
O10_2 O 0.0790(6) 0.3729(3) 0.92519(19)
C30_2 C 0.0912(5) 0.2090(3) 0.9980(2)
C32_2 C 0.0154(4) 0.2066(3) 0.7857(2)
C33_2 C 0.0315(5) 0.2971(3) 0.8195(2)
C34_2 C 0.0301(4) 0.1169(3) 0.8199(2)
C36_2 C 0.0153(5) 0.3839(4) 0.7849(2)
C37_2 C 0.0148(5) 0.0299(3) 0.7853(2)
C38_2 C 0.0649(5) 0.2978(4) 0.8936(2)
C39_2 C 0.0629(5) 0.1163(4) 0.8937(2)
H18_2 H 0.007(6) 0.440(5) 0.809(3)
N7 N 0.3655(4) 0.3699(3) 0.3093(2)
O15 O 0.5451(3) 0.2171(2) 0.37749(16)
C43_2 C 0.6130(5) 0.8539(4) 0.1681(3)
C44_2 C 0.6378(5) 0.5740(4) 0.1968(3)
C45_4 C 0.6642(5) 1.0000(4) 0.2325(3)
C46_2 C 0.6586(6) 0.8981(4) 0.2283(4)
H22_2 H 0.6855 0.8600 0.2660
C47_2 C 0.6034(7) 0.7461(5) 0.1585(4)
H23_2 H 0.5676 0.7227 0.1165
C48_2 C 0.5741(7) 0.9124(4) 0.1141(3)
H24_2 H 0.5444 0.8850 0.0725
C50_2 C 0.5842(7) 0.5240(4) 0.1383(4)
H26_2 H 0.5488 0.5588 0.1003
C51_2 C 0.6835(6) 0.4178(4) 0.2464(3)
H27_2 H 0.7175 0.3815 0.2840
C52_2 C 0.6859(7) 0.5185(4) 0.2507(4)
H28_2 H 0.7206 0.5486 0.2907
C53_2 C 0.5846(6) 0.4227(4) 0.1378(3)
H29_2 H 0.5486 0.3902 0.0989
C54_2 C 0.6417(7) 0.6830(5) 0.2049(4)
H30_2 H 0.6746 0.7074 0.2470
C1_2 C 0.3870(5) 0.8539(4) 0.3319(3)
C3_2 C 0.3622(5) 0.5740(4) 0.3032(3)
C14_4 C 0.3358(5) 1.0000(4) 0.2675(3)
C15_2 C 0.3414(6) 0.8981(4) 0.2717(4)
H5_2 H 0.3145 0.8600 0.2340
C17_2 C 0.3966(7) 0.7461(5) 0.3415(4)
H6_2 H 0.4324 0.7227 0.3835
C18_2 C 0.4259(7) 0.9124(4) 0.3859(3)
H7_2 H 0.4556 0.8850 0.4275
C21_2 C 0.4158(7) 0.5240(4) 0.3617(4)
H9_2 H 0.4512 0.5588 0.3997
C22_2 C 0.3165(6) 0.4178(4) 0.2536(3)
H10_2 H 0.2825 0.3815 0.2160
C24_2 C 0.3141(7) 0.5185(4) 0.2493(4)
H11_2 H 0.2794 0.5486 0.2093
C26_2 C 0.4154(6) 0.4227(4) 0.3622(3)
H12_2 H 0.4514 0.3902 0.4011
C27_2 C 0.3583(7) 0.6830(5) 0.2951(4)
H13_2 H 0.3254 0.7074 0.2530
H19_2 H 0.017(5) 0.970(4) 0.814(3)
C29_2 C 0.9771(4) 0.2120(3) 0.0956(2)
C31_2 C 0.9737(4) 0.2109(3) 0.0260(2)
C35_2 C 0.8481(4) 0.2137(3) 0.1248(2)
O4_2 O 0.9235(5) 0.0412(3) 0.57341(17)
N2_2 N 0.9200(4) 0.2075(3) 0.57458(18)
C2_2 C 0.9002(4) 0.2111(3) 0.36413(19)
H1_2 H 0.8968 0.2108 0.3177
O6_2 O 0.9210(6) 0.3729(3) 0.57481(19)
C5_2 C 0.9088(5) 0.2090(3) 0.5020(2)
C7_2 C 0.7868(4) 0.2099(3) 0.4629(2)
H3_2 H 0.7083 0.2100 0.4825
C8_2 C 0.9846(4) 0.2066(3) 0.7143(2)
C9_2 C 0.7819(4) 0.2107(3) 0.39298(19)
C10_2 C 0.9685(5) 0.2971(3) 0.6805(2)
C11_2 C 0.6487(4) 0.2112(3) 0.34869(19)
C12_2 C 0.9699(4) 0.1169(3) 0.6801(2)
C16_2 C 0.9847(5) 0.3839(4) 0.7151(2)
C19_2 C 0.9852(5) 0.0299(3) 0.7147(2)
C23_2 C 0.9351(5) 0.2978(4) 0.6064(2)
C25_2 C 0.9371(5) 0.1163(4) 0.6063(2)
H14_2 H 0.993(6) 0.440(5) 0.691(3)
H17_2 H 0.8919 0.2114 0.9985
H15_2 H 0.983(5) 0.970(4) 0.686(3)
loop_
_geom_bond_atom_site_label_1
_geom_bond_atom_site_label_2
_geom_bond_site_symmetry_1
_geom_bond_site_symmetry_2
O3 C11 1_555 1_555
O4 C25 1_555 1_555
N2 C5 1_555 1_555
C2 H1 1_555 1_555
O5 C11 1_555 1_555
O6 C23 1_555 1_555
C7 C5 1_555 1_555
H3 C7 1_555 1_555
C8 C10 1_555 1_555
C9 C2 1_555 1_555
C10 C16 1_555 1_555
C11 C9 1_555 1_555
C12 C8 1_555 1_555
C16 H14 1_555 1_555
C19 C12 1_555 1_555
C23 N2 1_555 1_555
C25 N2 1_555 1_555
Zn5 O3 1_555 1_555
Zn8 O5 1_555 1_555
C7 C9 1_555 1_555
C10 C23 1_555 1_555
C12 C25 1_555 1_555
O7 C35 1_555 1_555
O8 C35 1_555 1_555
C31 C29 1_555 1_555
C35 C29 1_555 1_555
Zn8 O7 1_555 1_555
O8 Zn8 1_555 1_555
C1 C15 1_555 1_555
N1 C22 1_555 1_555
C3 C21 1_555 1_555
C15 C14 1_555 1_555
H5 C15 1_555 1_555
C17 C1 1_555 1_555
H6 C17 1_555 1_555
C18 C1 1_555 1_555
H7 C18 1_555 1_555
C21 H9 1_555 1_555
C22 H10 1_555 1_555
C24 C3 1_555 1_555
H11 C24 1_555 1_555
C26 N1 1_555 1_555
H12 C26 1_555 1_555
C27 C3 1_555 1_555
H13 C27 1_555 1_555
Zn5 N1 1_555 1_555
C17 C27 1_555 1_555
C21 C26 1_555 1_555
C22 C24 1_555 1_555
C43 C46 1_555 1_555
N5 C51 1_555 1_555
C44 C50 1_555 1_555
C46 C45 1_555 1_555
H22 C46 1_555 1_555
C47 C43 1_555 1_555
H23 C47 1_555 1_555
C48 C43 1_555 1_555
H24 C48 1_555 1_555
C50 H26 1_555 1_555
C51 H27 1_555 1_555
C52 C44 1_555 1_555
H28 C52 1_555 1_555
C53 N5 1_555 1_555
H29 C53 1_555 1_555
C54 C44 1_555 1_555
H30 C54 1_555 1_555
Zn8 N5 1_555 1_555
C47 C54 1_555 1_555
C50 C53 1_555 1_555
C51 C52 1_555 1_555
Zn5 O1 1_555 1_555
O1 C13 1_555 1_555
O2 Zn5 1_555 1_555
N3 Zn5 1_555 1_555
C6 C4 1_555 1_555
H2 C6 1_555 1_555
C13 O2 1_555 1_555
C14_2 N3 1_555 1_555
H4 C14_2 1_555 1_555
C20 N3 1_555 1_555
H8 C20 1_555 1_555
O9 C39 1_555 1_555
N4 C30 1_555 1_555
O10 C38 1_555 1_555
C33 C32 1_555 1_555
C34 C32 1_555 1_555
C38 N4 1_555 1_555
C39 N4 1_555 1_555
H18 C36 1_555 1_555
O17 Zn5 1_555 1_555
C4 C13 1_555 1_555
C33 C36 1_555 1_555
C33 C38 1_555 1_555
C34 C37 1_555 1_555
C34 C39 1_555 1_555
C28 H16 1_555 1_555
O11 C42 1_555 1_555
H20 C40 1_555 1_555
C41 C28 1_555 1_555
C42 C41 1_555 1_555
O17 C42 1_555 1_555
Zn8 O11 1_555 1_555
N6 Zn8 1_555 1_555
C45_2 N6 1_555 1_555
H21 C45_2 1_555 1_555
C49 N6 1_555 1_555
H25 C49 1_555 1_555
C40 C41 1_555 1_555
C28_2 H16_2 1_555 1_555
O11_2 C42_2 1_555 1_555
H20_2 C40_2 1_555 1_555
C41_2 C28_2 1_555 1_555
C42_2 C41_2 1_555 1_555
O12 C42_2 1_555 1_555
Zn2 O11_2 1_555 1_555
N6_2 Zn2 1_555 1_555
C45_3 N6_2 1_555 1_555
H21_2 C45_3 1_555 1_555
C49_2 N6_2 1_555 1_555
H25_2 C49_2 1_555 1_555
Zn3 O12 1_555 1_555
O13 Zn2 1_555 1_555
O14 Zn2 1_555 1_555
N8 Zn2 1_555 1_555
O16 Zn2 1_555 1_555
C40_2 C41_2 1_555 1_555
Zn3 O1_2 1_555 1_555
O1_2 C13_2 1_555 1_555
O2_2 Zn3 1_555 1_555
N3_2 Zn3 1_555 1_555
C6_2 C4_2 1_555 1_555
H2_2 C6_2 1_555 1_555
C13_2 O2_2 1_555 1_555
C14_3 N3_2 1_555 1_555
H4_2 C14_3 1_555 1_555
C20_2 N3_2 1_555 1_555
H8_2 C20_2 1_555 1_555
O9_2 C39_2 1_555 1_555
N4_2 C30_2 1_555 1_555
O10_2 C38_2 1_555 1_555
C33_2 C32_2 1_555 1_555
C34_2 C32_2 1_555 1_555
C38_2 N4_2 1_555 1_555
C39_2 N4_2 1_555 1_555
H18_2 C36_2 1_555 1_555
N7 Zn3 1_555 1_555
O15 Zn3 1_555 1_555
C4_2 C13_2 1_555 1_555
C33_2 C36_2 1_555 1_555
C33_2 C38_2 1_555 1_555
C34_2 C37_2 1_555 1_555
C34_2 C39_2 1_555 1_555
C43_2 C46_2 1_555 1_555
N8 C51_2 1_555 1_555
C44_2 C50_2 1_555 1_555
C46_2 C45_4 1_555 1_555
H22_2 C46_2 1_555 1_555
C47_2 C43_2 1_555 1_555
H23_2 C47_2 1_555 1_555
C48_2 C43_2 1_555 1_555
H24_2 C48_2 1_555 1_555
C50_2 H26_2 1_555 1_555
C51_2 H27_2 1_555 1_555
C52_2 C44_2 1_555 1_555
H28_2 C52_2 1_555 1_555
C53_2 N8 1_555 1_555
H29_2 C53_2 1_555 1_555
C54_2 C44_2 1_555 1_555
H30_2 C54_2 1_555 1_555
C47_2 C54_2 1_555 1_555
C50_2 C53_2 1_555 1_555
C51_2 C52_2 1_555 1_555
C1_2 C15_2 1_555 1_555
N7 C22_2 1_555 1_555
C3_2 C21_2 1_555 1_555
C15_2 C14_4 1_555 1_555
H5_2 C15_2 1_555 1_555
C17_2 C1_2 1_555 1_555
H6_2 C17_2 1_555 1_555
C18_2 C1_2 1_555 1_555
H7_2 C18_2 1_555 1_555
C21_2 H9_2 1_555 1_555
C22_2 H10_2 1_555 1_555
C24_2 C3_2 1_555 1_555
H11_2 C24_2 1_555 1_555
C26_2 N7 1_555 1_555
H12_2 C26_2 1_555 1_555
C27_2 C3_2 1_555 1_555
H13_2 C27_2 1_555 1_555
C17_2 C27_2 1_555 1_555
C21_2 C26_2 1_555 1_555
C22_2 C24_2 1_555 1_555
O13 C35_2 1_555 1_555
O14 C35_2 1_555 1_555
C31_2 C29_2 1_555 1_555
C35_2 C29_2 1_555 1_555
O15 C11_2 1_555 1_555
O4_2 C25_2 1_555 1_555
N2_2 C5_2 1_555 1_555
C2_2 H1_2 1_555 1_555
O16 C11_2 1_555 1_555
O6_2 C23_2 1_555 1_555
C7_2 C5_2 1_555 1_555
H3_2 C7_2 1_555 1_555
C8_2 C10_2 1_555 1_555
C9_2 C2_2 1_555 1_555
C10_2 C16_2 1_555 1_555
C11_2 C9_2 1_555 1_555
C12_2 C8_2 1_555 1_555
C16_2 H14_2 1_555 1_555
C19_2 C12_2 1_555 1_555
C23_2 N2_2 1_555 1_555
C25_2 N2_2 1_555 1_555
C7_2 C9_2 1_555 1_555
C10_2 C23_2 1_555 1_555
C12_2 C25_2 1_555 1_555

#END
