
###############################################################################
#
# This file contains modified crystal structure data generated from the
# MOF subset of the Cambridge Structural Database (CSD) v543 
# hosted by the Cambridge Crystallographic Data Centre (CCDC).
#
# This work is licensed under the Creative Commons
# Attribution-NonCommercial-ShareAlike 4.0 International License.
# To view a copy of this license, visit
# http://creativecommons.org/licenses/by-nc-sa/4.0/
# or send a letter to
# Creative Commons, PO Box 1866, Mountain View, CA 94042, USA.
#
# CIF created using the CSD Python API on 29 September 2022
# The structure has been converted into the P1 space group
# The structure has a 3D framework
# The original CSD entry YIXGIY is in the monoclinic crystal system
# The framework has been calculated to contain at least 10.0% void space
# The void calculation uses a probe of radius 1.32A, grid spacing 0.4
# The framework is charged, counterions have been retained in the structure
#
###############################################################################

data_YIXGIY
_chemical_formula_moiety         '(C68 H48 Ag2 B4 F16 N24 2-)n'
_symmetry_cell_setting           triclinic
_symmetry_space_group_name_H-M   'P 1'
_symmetry_Int_Tables_number      1
_space_group_name_Hall           'P 1'
loop_
_symmetry_equiv_pos_site_id
_symmetry_equiv_pos_as_xyz
1 x,y,z
_cell_length_a                   9.196(3)
_cell_length_b                   24.960(9)
_cell_length_c                   14.382(4)
_cell_angle_alpha                90
_cell_angle_beta                 122.483(15)
_cell_angle_gamma                90
_cell_volume                     2784.67
loop_
_atom_site_label
_atom_site_type_symbol
_atom_site_fract_x
_atom_site_fract_y
_atom_site_fract_z
N5 N 0.2014(6) 0.6892(2) 0.4737(4)
N6 N 0.2961(6) 0.8901(2) 0.2139(4)
C8 C 0.0013(7) 0.7748(2) 0.3439(4)
C9 C 0.1693(7) 0.7822(2) 0.4307(5)
H5 H 0.2175 0.8163 0.4478
C10 C 0.2645(8) 0.7387(3) 0.4914(5)
H6 H 0.3788 0.7441 0.5477
C11 C 0.0374(8) 0.6820(3) 0.3915(5)
C13 C 0.0979(6) 0.8837(2) 0.2699(4)
C14 C 0.1509(6) 0.8707(2) 0.1998(4)
H9 H 0.0834 0.8478 0.1409
C15 C 0.3915(8) 0.9220(3) 0.2996(5)
H10 H 0.4927 0.9361 0.3099
C16 C 0.3462(9) 0.9350(3) 0.3740(6)
H11 H 0.4178 0.9568 0.4341
C17 C 0.1983(8) 0.9161(3) 0.3597(5)
H12 H 0.1652 0.9246 0.4087
Ag2 Ag 0.36861(5) 0.61865(2) 0.58152(4)
Ag4 Ag 0.36861(5) 0.88135(2) 0.08152(4)
N1 N 0.7153(6) 0.04128(18) 0.0220(4)
C3 C 0.6901(7) 0.0363(2) 0.1043(5)
H3 H 0.6552 0.0664 0.1257
N8 N 0.7986(6) 0.1892(2) 0.0263(4)
Ag1 Ag 0.63139(5) 0.11865(2) 0.91848(4)
H2 H 0.7840 0.0010 0.9360
N7 N 0.3476(6) 0.1359(2) 0.8268(4)
N9 N 0.7039(6) 0.1099(2) 0.7861(4)
N2 N 0.6524(6) 0.8641(2) 0.1732(4)
N3 N 0.7194(6) 0.8171(2) 0.2321(4)
N4 N 0.9320(5) 0.86446(17) 0.2454(3)
C1 C 0.7890(7) 0.9482(3) 0.0419(5)
H1 H 0.8215 0.9188 0.0176
C4 C 0.7133(7) 0.9886(2) 0.1598(5)
H4 H 0.6952 0.9868 0.2174
C5 C 0.7636(6) 0.9437(2) 0.1280(4)
C6 C 0.7808(7) 0.8919(2) 0.1805(5)
C7 C 0.8853(7) 0.8182(2) 0.2748(5)
H7 H 0.9907 0.6478 0.3788
C12 C 0.9346(8) 0.7234(2) 0.3248(5)
H8 H 0.8216 0.7168 0.2676
N1_2 N 0.2847(6) 0.54128(18) 0.4780(4)
N2_2 N 0.3476(6) 0.3641(2) 0.3268(4)
N3_2 N 0.2806(6) 0.3171(2) 0.2679(4)
N4_2 N 0.0680(5) 0.36446(17) 0.2546(3)
C1_2 C 0.2110(7) 0.4482(3) 0.4581(5)
H1_2 H 0.1785 0.4188 0.4824
C2 C 0.2354(8) 0.4978(2) 0.5071(5)
H2_2 H 0.2160 0.5010 0.5640
C3_2 C 0.3099(7) 0.5363(2) 0.3957(5)
H3_2 H 0.3448 0.5664 0.3743
C4_2 C 0.2867(7) 0.4886(2) 0.3402(5)
H4_2 H 0.3048 0.4868 0.2826
C5_2 C 0.2364(6) 0.4437(2) 0.3720(4)
C6_2 C 0.2192(7) 0.3919(2) 0.3195(5)
C7_2 C 0.1147(7) 0.3182(2) 0.2252(5)
H7_2 H 0.0093 0.1478 0.1212
C12_2 C 0.0654(8) 0.2234(2) 0.1752(5)
H8_2 H 0.1784 0.2168 0.2324
Ag3 Ag 0.63139(5) 0.38135(2) 0.41848(4)
N7_2 N 0.6524(6) 0.6359(2) 0.6732(4)
N9_2 N 0.2961(6) 0.6099(2) 0.7139(4)
N6_2 N 0.7039(6) 0.3901(2) 0.2861(4)
C8_2 C 0.9987(7) 0.2748(2) 0.1561(4)
C9_2 C 0.8307(7) 0.2822(2) 0.0693(5)
H5_2 H 0.7825 0.3163 0.0522
C10_2 C 0.7355(8) 0.2387(3) 0.0086(5)
C11_2 C 0.9626(8) 0.1820(3) 0.1085(5)
C13_2 C 0.9021(6) 0.3837(2) 0.2301(4)
C14_2 C 0.8491(6) 0.3707(2) 0.3002(4)
H9_2 H 0.9166 0.3478 0.3591
C15_2 C 0.6085(8) 0.4220(3) 0.2004(5)
H10_2 H 0.5073 0.4361 0.1901
C16_2 C 0.6538(9) 0.4350(3) 0.1260(6)
H11_2 H 0.5822 0.4568 0.0659
C17_2 C 0.8017(8) 0.4161(3) 0.1403(5)
H12_2 H 0.8348 0.4246 0.0913
H6_2 H 0.6212 0.2441 0.9523
N3_3 N 0.2806(6) 0.1829(2) 0.7679(4)
N4_3 N 0.0680(5) 0.13554(17) 0.7546(3)
C1_3 C 0.2110(7) 0.0518(3) 0.9581(5)
H1_3 H 0.1785 0.0812 0.9824
C4_3 C 0.2867(7) 0.0114(2) 0.8402(5)
H4_3 H 0.3048 0.0132 0.7826
C5_3 C 0.2364(6) 0.0563(2) 0.8720(4)
C6_3 C 0.2192(7) 0.1081(2) 0.8195(5)
C7_3 C 0.1147(7) 0.1818(2) 0.7252(5)
H7_3 H 0.0093 0.3522 0.6212
C12_3 C 0.0654(8) 0.2766(2) 0.6752(5)
H8_3 H 0.1784 0.2832 0.7324
H2_3 H 0.2160 0.9990 0.0640
N1_3 N 0.2847(6) 0.95872(18) 0.9780(4)
C3_3 C 0.3099(7) 0.9637(2) 0.8957(5)
H3_3 H 0.3448 0.9336 0.8743
N8_2 N 0.2014(6) 0.8108(2) 0.9737(4)
N5_2 N 0.7986(6) 0.3108(2) 0.5263(4)
C8_3 C 0.9987(7) 0.2252(2) 0.6561(4)
C9_3 C 0.8307(7) 0.2178(2) 0.5693(5)
H5_3 H 0.7825 0.1837 0.5522
C10_3 C 0.7355(8) 0.2613(3) 0.5086(5)
H6_3 H 0.6212 0.2559 0.4523
C11_3 C 0.9626(8) 0.3180(3) 0.6085(5)
C13_3 C 0.9021(6) 0.1163(2) 0.7301(4)
C14_3 C 0.8491(6) 0.1293(2) 0.8002(4)
H9_3 H 0.9166 0.1522 0.8591
C15_3 C 0.6085(8) 0.0780(3) 0.7004(5)
H10_3 H 0.5073 0.0639 0.6901
C16_3 C 0.6538(9) 0.0650(3) 0.6260(6)
H11_3 H 0.5822 0.0432 0.5659
C17_3 C 0.8017(8) 0.0839(3) 0.6403(5)
H12_3 H 0.8348 0.0754 0.5913
H6_4 H 0.3788 0.7559 0.0477
C8_4 C 0.0013(7) 0.7252(2) 0.8439(4)
C9_4 C 0.1693(7) 0.7178(2) 0.9307(5)
H5_4 H 0.2175 0.6837 0.9478
C10_4 C 0.2645(8) 0.7613(3) 0.9914(5)
C11_4 C 0.0374(8) 0.8180(3) 0.8915(5)
C13_4 C 0.0979(6) 0.6163(2) 0.7699(4)
C14_4 C 0.1509(6) 0.6293(2) 0.6998(4)
H9_4 H 0.0834 0.6522 0.6409
C15_4 C 0.3915(8) 0.5780(3) 0.7996(5)
H10_4 H 0.4927 0.5639 0.8099
C16_4 C 0.3462(9) 0.5650(3) 0.8740(6)
H11_4 H 0.4178 0.5432 0.9341
C17_4 C 0.1983(8) 0.5839(3) 0.8597(5)
H12_4 H 0.1652 0.5754 0.9087
N1_4 N 0.7153(6) 0.45872(18) 0.5220(4)
N3_4 N 0.7194(6) 0.6829(2) 0.7321(4)
N4_4 N 0.9320(5) 0.63554(17) 0.7454(3)
C1_4 C 0.7890(7) 0.5518(3) 0.5419(5)
H1_4 H 0.8215 0.5812 0.5176
C2_2 C 0.7646(8) 0.5022(2) 0.4929(5)
H2_4 H 0.7840 0.4990 0.4360
C3_4 C 0.6901(7) 0.4637(2) 0.6043(5)
H3_4 H 0.6552 0.4336 0.6257
C4_4 C 0.7133(7) 0.5114(2) 0.6598(5)
H4_4 H 0.6952 0.5132 0.7174
C5_4 C 0.7636(6) 0.5563(2) 0.6280(4)
C6_4 C 0.7808(7) 0.6081(2) 0.6805(5)
C7_4 C 0.8853(7) 0.6818(2) 0.7748(5)
H7_4 H 0.9907 0.8522 0.8788
C12_4 C 0.9346(8) 0.7766(2) 0.8248(5)
H8_4 H 0.8216 0.7832 0.7676
C2_3 C 0.7646(8) 0.9978(2) 0.9929(5)
C2_4 C 0.2354(8) 0.0022(2) 0.0071(5)
F1 F 0.7025(10) 0.9133(4) 0.7806(6)
F2 F 0.4575(10) 0.9077(3) 0.7617(6)
F3 F 0.5024(12) 0.8658(3) 0.6457(7)
F4 F 0.4754(10) 0.9511(3) 0.6363(6)
B1 B 0.5275(17) 0.9097(5) 0.7027(10)
F1_2 F 0.2975(10) 0.4133(4) 0.7194(6)
F2_2 F 0.5425(10) 0.4077(3) 0.7383(6)
F3_2 F 0.4976(12) 0.3658(3) 0.8543(7)
F4_2 F 0.5246(10) 0.4511(3) 0.8637(6)
B1_2 B 0.4725(17) 0.4097(5) 0.7973(10)
F1_3 F 0.2975(10) 0.0867(4) 0.2194(6)
F2_3 F 0.5425(10) 0.0923(3) 0.2383(6)
F3_3 F 0.4976(12) 0.1342(3) 0.3543(7)
F4_3 F 0.5246(10) 0.0489(3) 0.3637(6)
B1_3 B 0.4725(17) 0.0903(5) 0.2973(10)
F1_4 F 0.7025(10) 0.5867(4) 0.2806(6)
F2_4 F 0.4575(10) 0.5923(3) 0.2617(6)
F3_4 F 0.5024(12) 0.6342(3) 0.1457(7)
F4_4 F 0.4754(10) 0.5489(3) 0.1363(6)
B1_4 B 0.5275(17) 0.5903(5) 0.2027(10)
loop_
_geom_bond_atom_site_label_1
_geom_bond_atom_site_label_2
_geom_bond_site_symmetry_1
_geom_bond_site_symmetry_2
N5 C10 1_555 1_555
N6 C14 1_555 1_555
C9 C8 1_555 1_555
H5 C9 1_555 1_555
C10 C9 1_555 1_555
H6 C10 1_555 1_555
C11 N5 1_555 1_555
C14 C13 1_555 1_555
H9 C14 1_555 1_555
C15 N6 1_555 1_555
H10 C15 1_555 1_555
C16 C15 1_555 1_555
H11 C16 1_555 1_555
C17 C13 1_555 1_555
H12 C17 1_555 1_555
Ag2 N5 1_555 1_555
Ag4 N6 1_555 1_555
C16 C17 1_555 1_555
C3 N1 1_555 1_555
H3 C3 1_555 1_555
N7 Ag1 1_555 1_555
N9 Ag1 1_555 1_555
N2 N3 1_555 1_555
N3 C7 1_555 1_555
N4 C6 1_555 1_555
C1 H1 1_555 1_555
H4 C4 1_555 1_555
C5 C1 1_555 1_555
C6 N2 1_555 1_555
C7 N4 1_555 1_555
H8 C12 1_555 1_555
Ag4 N2 1_555 1_555
C4 C5 1_555 1_555
C5 C6 1_555 1_555
Ag2 N1_2 1_555 1_555
N1_2 C2 1_555 1_555
N2_2 N3_2 1_555 1_555
N3_2 C7_2 1_555 1_555
N4_2 C6_2 1_555 1_555
C1_2 H1_2 1_555 1_555
C2 C1_2 1_555 1_555
H2_2 C2 1_555 1_555
C3_2 N1_2 1_555 1_555
H3_2 C3_2 1_555 1_555
C4_2 C3_2 1_555 1_555
H4_2 C4_2 1_555 1_555
C5_2 C1_2 1_555 1_555
C6_2 N2_2 1_555 1_555
C7_2 N4_2 1_555 1_555
H8_2 C12_2 1_555 1_555
Ag3 N2_2 1_555 1_555
N7_2 Ag2 1_555 1_555
N9_2 Ag2 1_555 1_555
C4_2 C5_2 1_555 1_555
C5_2 C6_2 1_555 1_555
N8 C10_2 1_555 1_555
N6_2 C14_2 1_555 1_555
C9_2 C8_2 1_555 1_555
H5_2 C9_2 1_555 1_555
C10_2 C9_2 1_555 1_555
C11_2 N8 1_555 1_555
C14_2 C13_2 1_555 1_555
H9_2 C14_2 1_555 1_555
C15_2 N6_2 1_555 1_555
H10_2 C15_2 1_555 1_555
C16_2 C15_2 1_555 1_555
H11_2 C16_2 1_555 1_555
C17_2 C13_2 1_555 1_555
H12_2 C17_2 1_555 1_555
Ag3 N6_2 1_555 1_555
C16_2 C17_2 1_555 1_555
N7 N3_3 1_555 1_555
N3_3 C7_3 1_555 1_555
N4_3 C6_3 1_555 1_555
C1_3 H1_3 1_555 1_555
H4_3 C4_3 1_555 1_555
C5_3 C1_3 1_555 1_555
C6_3 N7 1_555 1_555
C7_3 N4_3 1_555 1_555
H8_3 C12_3 1_555 1_555
C4_3 C5_3 1_555 1_555
C5_3 C6_3 1_555 1_555
C3_3 N1_3 1_555 1_555
H3_3 C3_3 1_555 1_555
N5_2 C10_3 1_555 1_555
N9 C14_3 1_555 1_555
C9_3 C8_3 1_555 1_555
H5_3 C9_3 1_555 1_555
C10_3 C9_3 1_555 1_555
H6_3 C10_3 1_555 1_555
C11_3 N5_2 1_555 1_555
C14_3 C13_3 1_555 1_555
H9_3 C14_3 1_555 1_555
C15_3 N9 1_555 1_555
H10_3 C15_3 1_555 1_555
C16_3 C15_3 1_555 1_555
H11_3 C16_3 1_555 1_555
C17_3 C13_3 1_555 1_555
H12_3 C17_3 1_555 1_555
Ag3 N5_2 1_555 1_555
C16_3 C17_3 1_555 1_555
N8_2 C10_4 1_555 1_555
N9_2 C14_4 1_555 1_555
C9_4 C8_4 1_555 1_555
H5_4 C9_4 1_555 1_555
C10_4 C9_4 1_555 1_555
C11_4 N8_2 1_555 1_555
C14_4 C13_4 1_555 1_555
H9_4 C14_4 1_555 1_555
C15_4 N9_2 1_555 1_555
H10_4 C15_4 1_555 1_555
C16_4 C15_4 1_555 1_555
H11_4 C16_4 1_555 1_555
C17_4 C13_4 1_555 1_555
H12_4 C17_4 1_555 1_555
C16_4 C17_4 1_555 1_555
Ag3 N1_4 1_555 1_555
N1_4 C2_2 1_555 1_555
N7_2 N3_4 1_555 1_555
N3_4 C7_4 1_555 1_555
N4_4 C6_4 1_555 1_555
C1_4 H1_4 1_555 1_555
C2_2 C1_4 1_555 1_555
H2_4 C2_2 1_555 1_555
C3_4 N1_4 1_555 1_555
H3_4 C3_4 1_555 1_555
C4_4 C3_4 1_555 1_555
H4_4 C4_4 1_555 1_555
C5_4 C1_4 1_555 1_555
C6_4 N7_2 1_555 1_555
C7_4 N4_4 1_555 1_555
H8_4 C12_4 1_555 1_555
C4_4 C5_4 1_555 1_555
C5_4 C6_4 1_555 1_555
F1 B1 1_555 1_555
F2 B1 1_555 1_555
F3 B1 1_555 1_555
F4 B1 1_555 1_555
F1_2 B1_2 1_555 1_555
F2_2 B1_2 1_555 1_555
F3_2 B1_2 1_555 1_555
F4_2 B1_2 1_555 1_555
F1_3 B1_3 1_555 1_555
F2_3 B1_3 1_555 1_555
F3_3 B1_3 1_555 1_555
F4_3 B1_3 1_555 1_555
F1_4 B1_4 1_555 1_555
F2_4 B1_4 1_555 1_555
F3_4 B1_4 1_555 1_555
F4_4 B1_4 1_555 1_555

#END
