
###############################################################################
#
# This file contains modified crystal structure data generated from the
# MOF subset of the Cambridge Structural Database (CSD) v543 
# hosted by the Cambridge Crystallographic Data Centre (CCDC).
#
# This work is licensed under the Creative Commons
# Attribution-NonCommercial-ShareAlike 4.0 International License.
# To view a copy of this license, visit
# http://creativecommons.org/licenses/by-nc-sa/4.0/
# or send a letter to
# Creative Commons, PO Box 1866, Mountain View, CA 94042, USA.
#
# CIF created using the CSD Python API on 29 September 2022
# The structure has been converted into the P1 space group
# The structure has a 3D framework
# The original CSD entry YIXGUK is in the orthorhombic crystal system
# The framework has been calculated to contain at least 10.0% void space
# The void calculation uses a probe of radius 1.32A, grid spacing 0.4
# The framework is charged, counterions have been retained in the structure
#
###############################################################################

data_YIXGUK
_chemical_formula_moiety         '(C68 H48 Ag4 B4 F16 N24)n'
_symmetry_cell_setting           triclinic
_symmetry_space_group_name_H-M   'P 1'
_symmetry_Int_Tables_number      1
_space_group_name_Hall           'P 1'
loop_
_symmetry_equiv_pos_site_id
_symmetry_equiv_pos_as_xyz
1 x,y,z
_cell_length_a                   26.090(7)
_cell_length_b                   10.782(3)
_cell_length_c                   9.101(3)
_cell_angle_alpha                90
_cell_angle_beta                 90
_cell_angle_gamma                90
_cell_volume                     2560.13
loop_
_atom_site_label
_atom_site_type_symbol
_atom_site_fract_x
_atom_site_fract_y
_atom_site_fract_z
Ag3 Ag 0.39251(2) 0.08842(3) 0.0404(6)
H1 H 0.5758 0.0213 0.8328
C3 C 0.5032(2) 0.0385(5) 0.9113(9)
H2 H 0.4999 0.1235 0.8857
N7 N 0.53654(18) 0.0188(5) 0.4776(8)
N8 N 0.68829(18) 0.0003(5) 0.4981(8)
N6 N 0.61042(19) 0.7460(5) 0.3636(9)
C4 C 0.4691(2) 0.8617(5) 0.0121(9)
H3 H 0.4413 0.8210 0.0591
H4 H 0.5149 0.7079 0.0097
C11 C 0.7946(3) 0.5984(7) 0.0748(9)
H7 H 0.8149 0.6286 0.1537
C12 C 0.7485(2) 0.6579(6) 0.0437(12)
H8 H 0.7377 0.7270 0.1005
C13 C 0.6229(2) 0.6808(6) 0.1148(9)
C14 C 0.6169(2) 0.7726(7) 0.2202(10)
H9 H 0.6175 0.8570 0.1903
C15 C 0.6103(2) 0.6269(6) 0.4036(9)
H10 H 0.6064 0.6073 0.5048
C16 C 0.6157(3) 0.5312(7) 0.3048(10)
H11 H 0.6158 0.4476 0.3379
C17 C 0.6211(2) 0.5577(6) 0.1571(9)
H12 H 0.6235 0.4931 0.0864
Ag2 Ag 0.60749(2) 0.91158(3) 0.5404(6)
Ag4 Ag 0.89251(2) 0.41158(3) 0.0404(6)
N1 N 0.46346(18) 0.9812(5) 0.9776(8)
N2 N 0.62366(19) 0.7987(5) 0.7465(9)
N3 N 0.66842(19) 0.7300(5) 0.7475(8)
N4 N 0.63141(19) 0.7156(5) 0.9640(9)
N5 N 0.81171(18) 0.5003(5) 0.9981(8)
C1 C 0.5540(2) 0.8536(5) 0.9157(8)
C2 C 0.5486(2) 0.9781(5) 0.8793(9)
C5 C 0.5129(2) 0.7931(6) 0.9838(9)
C6 C 0.6017(2) 0.7907(7) 0.8757(10)
C7 C 0.6728(2) 0.6830(6) 0.8792(9)
C8 C 0.7185(2) 0.6146(6) 0.9281(9)
C9 C 0.7358(2) 0.5127(6) 0.8492(9)
H5 H 0.7162 0.4796 0.7704
C10 C 0.7824(2) 0.4603(6) 0.8882(10)
H6 H 0.7942 0.3914 0.8327
H10_2 H 0.3936 0.3927 0.0048
N2_2 N 0.37634(19) 0.2013(5) 0.2465(9)
N3_2 N 0.33158(19) 0.2700(5) 0.2475(8)
N4_2 N 0.36859(19) 0.2844(5) 0.4640(9)
N5_2 N 0.18829(18) 0.4997(5) 0.4981(8)
N6_2 N 0.38958(19) 0.2540(5) 0.8636(9)
C1_2 C 0.4460(2) 0.1464(5) 0.4157(8)
C2_2 C 0.4514(2) 0.0219(5) 0.3793(9)
C4_2 C 0.5309(2) 0.1383(5) 0.5121(9)
H3_2 H 0.5587 0.1790 0.5591
C5_2 C 0.4871(2) 0.2069(6) 0.4838(9)
H4_2 H 0.4851 0.2921 0.5097
C6_2 C 0.3983(2) 0.2093(7) 0.3757(10)
C7_2 C 0.3272(2) 0.3170(6) 0.3792(9)
C8_2 C 0.2815(2) 0.3854(6) 0.4281(9)
C9_2 C 0.2642(2) 0.4873(6) 0.3492(9)
H5_2 H 0.2838 0.5204 0.2704
C10_2 C 0.2176(2) 0.5397(6) 0.3882(10)
H6_2 H 0.2058 0.6086 0.3327
C11_2 C 0.2054(3) 0.4016(7) 0.5748(9)
H7_2 H 0.1851 0.3714 0.6537
C12_2 C 0.2515(2) 0.3421(6) 0.5437(12)
H8_2 H 0.2623 0.2730 0.6005
C13_2 C 0.3771(2) 0.3192(6) 0.6148(9)
C14_2 C 0.3831(2) 0.2274(7) 0.7202(10)
H9_2 H 0.3825 0.1430 0.6903
C15_2 C 0.3897(2) 0.3731(6) 0.9036(9)
C16_2 C 0.3843(3) 0.4688(7) 0.8048(10)
H11_2 H 0.3842 0.5524 0.8379
C17_2 C 0.3789(2) 0.4423(6) 0.6571(9)
H12_2 H 0.3765 0.5069 0.5864
Ag4_2 Ag 0.10749(2) 0.58842(3) 0.5404(6)
H1_2 H 0.4242 0.9787 0.3328
C3_2 C 0.4968(2) 0.9615(5) 0.4113(9)
H2_2 H 0.5001 0.8765 0.3857
N8_2 N 0.31171(18) 0.9997(5) 0.9981(8)
H11_3 H 0.1158 0.0524 0.3379
H12_3 H 0.1235 0.0069 0.0864
N6_3 N 0.11042(19) 0.7540(5) 0.3636(9)
H4_3 H 0.0149 0.7921 0.0097
C11_3 C 0.2946(3) 0.9016(7) 0.0748(9)
H7_3 H 0.3149 0.8714 0.1537
C12_3 C 0.2485(2) 0.8421(6) 0.0437(12)
H8_3 H 0.2377 0.7730 0.1005
C13_3 C 0.1229(2) 0.8192(6) 0.1148(9)
C14_3 C 0.1169(2) 0.7274(7) 0.2202(10)
H9_3 H 0.1175 0.6430 0.1903
C15_3 C 0.1103(2) 0.8731(6) 0.4036(9)
H10_3 H 0.1064 0.8927 0.5048
C16_3 C 0.1157(3) 0.9688(7) 0.3048(10)
C17_3 C 0.1211(2) 0.9423(6) 0.1571(9)
N2_3 N 0.12366(19) 0.7013(5) 0.7465(9)
N3_3 N 0.16842(19) 0.7700(5) 0.7475(8)
N4_3 N 0.13141(19) 0.7844(5) 0.9640(9)
C1_3 C 0.0540(2) 0.6464(5) 0.9157(8)
C2_3 C 0.0486(2) 0.5219(5) 0.8793(9)
H1_3 H 0.0758 0.4787 0.8328
C3_3 C 0.0032(2) 0.4615(5) 0.9113(9)
C5_3 C 0.0129(2) 0.7069(6) 0.9838(9)
C6_3 C 0.1017(2) 0.7093(7) 0.8757(10)
C7_3 C 0.1728(2) 0.8170(6) 0.8792(9)
C8_3 C 0.2185(2) 0.8854(6) 0.9281(9)
C9_3 C 0.2358(2) 0.9873(6) 0.8492(9)
N7_2 N 0.03654(18) 0.4812(5) 0.4776(8)
C4_3 C 0.9691(2) 0.6383(5) 0.0121(9)
H3_3 H 0.9413 0.6790 0.0591
N1_2 N 0.96346(18) 0.5188(5) 0.9776(8)
H2_3 H 0.9999 0.3765 0.8857
H2_4 H 0.0001 0.6235 0.3857
C4_4 C 0.0309(2) 0.3617(5) 0.5121(9)
H3_4 H 0.0587 0.3210 0.5591
H10_4 H 0.8936 0.1073 0.0048
N2_4 N 0.87634(19) 0.2987(5) 0.2465(9)
N3_4 N 0.83158(19) 0.2300(5) 0.2475(8)
N4_4 N 0.86859(19) 0.2156(5) 0.4640(9)
N6_4 N 0.88958(19) 0.2460(5) 0.8636(9)
C1_4 C 0.9460(2) 0.3536(5) 0.4157(8)
C2_4 C 0.9514(2) 0.4781(5) 0.3793(9)
H1_4 H 0.9242 0.5213 0.3328
C3_4 C 0.9968(2) 0.5385(5) 0.4113(9)
C5_4 C 0.9871(2) 0.2931(6) 0.4838(9)
H4_4 H 0.9851 0.2079 0.5097
C6_4 C 0.8983(2) 0.2907(7) 0.3757(10)
C7_4 C 0.8272(2) 0.1830(6) 0.3792(9)
C8_4 C 0.7815(2) 0.1146(6) 0.4281(9)
C9_4 C 0.7642(2) 0.0127(6) 0.3492(9)
C11_4 C 0.7054(3) 0.0984(7) 0.5748(9)
H7_4 H 0.6851 0.1286 0.6537
C12_4 C 0.7515(2) 0.1579(6) 0.5437(12)
H8_4 H 0.7623 0.2270 0.6005
C13_4 C 0.8771(2) 0.1808(6) 0.6148(9)
C14_4 C 0.8831(2) 0.2726(7) 0.7202(10)
H9_4 H 0.8825 0.3570 0.6903
C15_4 C 0.8897(2) 0.1269(6) 0.9036(9)
C16_4 C 0.8843(3) 0.0312(7) 0.8048(10)
C17_4 C 0.8789(2) 0.0577(6) 0.6571(9)
H5_3 H 0.7838 0.9796 0.2704
C10_3 C 0.7176(2) 0.9603(6) 0.3882(10)
H6_3 H 0.7058 0.8914 0.3327
H11_4 H 0.8842 0.9476 0.8379
H12_4 H 0.8765 0.9931 0.5864
H5_4 H 0.2162 0.0204 0.7704
C10_4 C 0.2824(2) 0.0397(6) 0.8882(10)
H6_4 H 0.2942 0.1086 0.8327
B1 B 0.6065(3) 0.3426(8) 0.7638(11)
F1 F 0.6156(2) 0.3540(5) 0.6162(7)
F2 F 0.6149(3) 0.4545(7) 0.8290(10)
F3 F 0.6375(3) 0.2561(7) 0.8213(10)
F4 F 0.5564(2) 0.3099(6) 0.7837(8)
B1_2 B 0.3935(3) 0.6574(8) 0.2638(11)
F1_2 F 0.3844(2) 0.6460(5) 0.1162(7)
F2_2 F 0.3851(3) 0.5455(7) 0.3290(10)
F3_2 F 0.3625(3) 0.7439(7) 0.3213(10)
F4_2 F 0.4436(2) 0.6901(6) 0.2837(8)
B1_3 B 0.1065(3) 0.1574(8) 0.7638(11)
F1_3 F 0.1156(2) 0.1460(5) 0.6162(7)
F2_3 F 0.1149(3) 0.0455(7) 0.8290(10)
F3_3 F 0.1375(3) 0.2439(7) 0.8213(10)
F4_3 F 0.0564(2) 0.1901(6) 0.7837(8)
B1_4 B 0.8935(3) 0.8426(8) 0.2638(11)
F1_4 F 0.8844(2) 0.8540(5) 0.1162(7)
F2_4 F 0.8851(3) 0.9545(7) 0.3290(10)
F3_4 F 0.8625(3) 0.7561(7) 0.3213(10)
F4_4 F 0.9436(2) 0.8099(6) 0.2837(8)
loop_
_geom_bond_atom_site_label_1
_geom_bond_atom_site_label_2
_geom_bond_site_symmetry_1
_geom_bond_site_symmetry_2
H2 C3 1_555 1_555
N6 C14 1_555 1_555
H3 C4 1_555 1_555
H7 C11 1_555 1_555
H8 C12 1_555 1_555
C14 C13 1_555 1_555
H9 C14 1_555 1_555
C15 N6 1_555 1_555
H10 C15 1_555 1_555
C16 C15 1_555 1_555
H11 C16 1_555 1_555
C17 C13 1_555 1_555
H12 C17 1_555 1_555
Ag2 N6 1_555 1_555
C11 C12 1_555 1_555
C16 C17 1_555 1_555
Ag2 N2 1_555 1_555
N2 N3 1_555 1_555
N3 C7 1_555 1_555
N4 C6 1_555 1_555
N5 C10 1_555 1_555
C1 C2 1_555 1_555
C5 C1 1_555 1_555
C6 N2 1_555 1_555
C7 N4 1_555 1_555
C8 C7 1_555 1_555
C9 C8 1_555 1_555
H5 C9 1_555 1_555
C10 C9 1_555 1_555
H6 C10 1_555 1_555
C1 C6 1_555 1_555
Ag3 N2_2 1_555 1_555
N2_2 N3_2 1_555 1_555
N3_2 C7_2 1_555 1_555
N4_2 C6_2 1_555 1_555
N5_2 C10_2 1_555 1_555
N6_2 C14_2 1_555 1_555
C1_2 C2_2 1_555 1_555
C4_2 N7 1_555 1_555
H3_2 C4_2 1_555 1_555
C5_2 C1_2 1_555 1_555
H4_2 C5_2 1_555 1_555
C6_2 N2_2 1_555 1_555
C7_2 N4_2 1_555 1_555
C8_2 C7_2 1_555 1_555
C9_2 C8_2 1_555 1_555
H5_2 C9_2 1_555 1_555
C10_2 C9_2 1_555 1_555
H6_2 C10_2 1_555 1_555
C11_2 N5_2 1_555 1_555
H7_2 C11_2 1_555 1_555
C12_2 C8_2 1_555 1_555
H8_2 C12_2 1_555 1_555
C13_2 N4_2 1_555 1_555
C14_2 C13_2 1_555 1_555
H9_2 C14_2 1_555 1_555
C15_2 N6_2 1_555 1_555
C16_2 C15_2 1_555 1_555
H11_2 C16_2 1_555 1_555
C17_2 C13_2 1_555 1_555
H12_2 C17_2 1_555 1_555
Ag4_2 N5_2 1_555 1_555
C1_2 C6_2 1_555 1_555
C4_2 C5_2 1_555 1_555
C11_2 C12_2 1_555 1_555
C16_2 C17_2 1_555 1_555
H2_2 C3_2 1_555 1_555
N6_3 C14_3 1_555 1_555
H7_3 C11_3 1_555 1_555
H8_3 C12_3 1_555 1_555
C14_3 C13_3 1_555 1_555
H9_3 C14_3 1_555 1_555
C15_3 N6_3 1_555 1_555
H10_3 C15_3 1_555 1_555
C16_3 C15_3 1_555 1_555
C17_3 C13_3 1_555 1_555
Ag4_2 N6_3 1_555 1_555
C11_3 C12_3 1_555 1_555
C16_3 C17_3 1_555 1_555
Ag4_2 N2_3 1_555 1_555
N2_3 N3_3 1_555 1_555
N3_3 C7_3 1_555 1_555
N4_3 C6_3 1_555 1_555
C1_3 C2_3 1_555 1_555
C2_3 H1_3 1_555 1_555
C3_3 C2_3 1_555 1_555
C5_3 C1_3 1_555 1_555
C6_3 N2_3 1_555 1_555
C7_3 N4_3 1_555 1_555
C8_3 C7_3 1_555 1_555
C9_3 C8_3 1_555 1_555
N7_2 Ag4_2 1_555 1_555
C1_3 C6_3 1_555 1_555
H3_3 C4_3 1_555 1_555
C4_4 N7_2 1_555 1_555
H3_4 C4_4 1_555 1_555
Ag4 N2_4 1_555 1_555
N2_4 N3_4 1_555 1_555
N3_4 C7_4 1_555 1_555
N4_4 C6_4 1_555 1_555
N6_4 C14_4 1_555 1_555
C1_4 C2_4 1_555 1_555
C2_4 H1_4 1_555 1_555
C3_4 C2_4 1_555 1_555
C5_4 C1_4 1_555 1_555
H4_4 C5_4 1_555 1_555
C6_4 N2_4 1_555 1_555
C7_4 N4_4 1_555 1_555
C8_4 C7_4 1_555 1_555
C9_4 C8_4 1_555 1_555
C11_4 N8 1_555 1_555
H7_4 C11_4 1_555 1_555
C12_4 C8_4 1_555 1_555
H8_4 C12_4 1_555 1_555
C13_4 N4_4 1_555 1_555
C14_4 C13_4 1_555 1_555
H9_4 C14_4 1_555 1_555
C15_4 N6_4 1_555 1_555
C16_4 C15_4 1_555 1_555
C17_4 C13_4 1_555 1_555
C1_4 C6_4 1_555 1_555
C11_4 C12_4 1_555 1_555
C16_4 C17_4 1_555 1_555
H6_3 C10_3 1_555 1_555
H6_4 C10_4 1_555 1_555
B1 F1 1_555 1_555
F2 B1 1_555 1_555
F3 B1 1_555 1_555
F4 B1 1_555 1_555
B1_2 F1_2 1_555 1_555
F2_2 B1_2 1_555 1_555
F3_2 B1_2 1_555 1_555
F4_2 B1_2 1_555 1_555
B1_3 F1_3 1_555 1_555
F2_3 B1_3 1_555 1_555
F3_3 B1_3 1_555 1_555
F4_3 B1_3 1_555 1_555
B1_4 F1_4 1_555 1_555
F2_4 B1_4 1_555 1_555
F3_4 B1_4 1_555 1_555
F4_4 B1_4 1_555 1_555

#END
