
###############################################################################
#
# This file contains modified crystal structure data generated from the
# MOF subset of the Cambridge Structural Database (CSD) v543 
# hosted by the Cambridge Crystallographic Data Centre (CCDC).
#
# This work is licensed under the Creative Commons
# Attribution-NonCommercial-ShareAlike 4.0 International License.
# To view a copy of this license, visit
# http://creativecommons.org/licenses/by-nc-sa/4.0/
# or send a letter to
# Creative Commons, PO Box 1866, Mountain View, CA 94042, USA.
#
# CIF created using the CSD Python API on 29 September 2022
# The structure has been converted into the P1 space group
# The structure has a 3D framework
# The original CSD entry YIXGOE is in the monoclinic crystal system
# The framework has been calculated to contain at least 10.0% void space
# The void calculation uses a probe of radius 1.32A, grid spacing 0.4
# The framework is charged, counterions have been retained in the structure
#
###############################################################################

data_YIXGOE
_chemical_formula_moiety         '(C68 H48 Ag4 B4 F16 N24)n'
_symmetry_cell_setting           triclinic
_symmetry_space_group_name_H-M   'P 1'
_symmetry_Int_Tables_number      1
_space_group_name_Hall           'P 1'
loop_
_symmetry_equiv_pos_site_id
_symmetry_equiv_pos_as_xyz
1 x,y,z
_cell_length_a                   9.3666(5)
_cell_length_b                   23.7024(13)
_cell_length_c                   12.6894(5)
_cell_angle_alpha                90
_cell_angle_beta                 119.236(3)
_cell_angle_gamma                90
_cell_volume                     2458.32
loop_
_atom_site_label
_atom_site_type_symbol
_atom_site_fract_x
_atom_site_fract_y
_atom_site_fract_z
N6 N 0.3073(3) 0.04903(9) 0.4913(2)
C15 C 0.2437(3) 0.00321(12) 0.5143(2)
H10 H 0.2225 0.0044 0.5802
C16 C 0.3348(3) 0.04688(11) 0.3969(2)
H11 H 0.3795 0.0792 0.3794
Ag3 Ag 0.41433(2) 0.12199(2) 0.63333(2)
Ag1 Ag 0.41433(2) 0.37801(2) 0.13333(2)
N1 N 0.3163(3) 0.40114(10) 0.2663(2)
N5 N 0.2457(3) 0.19715(9) 0.5385(2)
C1 C 0.1787(3) 0.37770(11) 0.2540(2)
H1 H 0.1373 0.3446 0.2065
C2 C 0.0960(3) 0.40054(10) 0.3088(2)
C3 C 0.1529(3) 0.44892(11) 0.3782(2)
H2 H 0.0971 0.4648 0.4167
C4 C 0.2941(3) 0.47325(12) 0.3896(3)
H3 H 0.3369 0.5068 0.4355
C5 C 0.3717(3) 0.44800(12) 0.3331(2)
H4 H 0.4692 0.4647 0.3421
C8 C 0.0919(3) 0.18610(11) 0.4522(2)
H5 H 0.0566 0.1479 0.4382
C10 C 0.0341(3) 0.28346(11) 0.4033(2)
C11 C 0.1925(3) 0.29558(11) 0.4933(2)
H7 H 0.2306 0.3334 0.5096
C12 C 0.2935(3) 0.25129(11) 0.5588(2)
H8 H 0.4013 0.2596 0.6209
N7 N 0.6817(3) 0.36783(9) 0.2217(2)
N8 N 0.2457(3) 0.30285(9) 0.0385(2)
N2 N 0.9442(3) 0.37592(8) 0.28804(19)
N3 N 0.7571(3) 0.32088(9) 0.2915(2)
N6_2 N 0.6927(3) 0.54903(9) 0.0087(2)
C6 C 0.9140(3) 0.32640(11) 0.3299(2)
C7 C 0.7943(3) 0.39998(11) 0.2205(2)
C9 C 0.9829(3) 0.22741(11) 0.3828(2)
H6 H 0.8751 0.2179 0.3223
C13 C 0.7636(3) 0.45248(11) 0.1501(2)
C14 C 0.7929(3) 0.45418(11) 0.0529(2)
H9 H 0.8369 0.4224 0.0330
C16_2 C 0.6652(3) 0.54688(11) 0.1031(2)
H11_2 H 0.6205 0.5792 0.1206
C17 C 0.6988(3) 0.49978(11) 0.1761(2)
H12 H 0.6780 0.4998 0.2422
H7_2 H 0.2306 0.1666 0.0096
C12_2 C 0.2935(3) 0.24871(11) 0.0588(2)
H8_2 H 0.4013 0.2404 0.1209
N1_2 N 0.3163(3) 0.09886(10) 0.7663(2)
C1_2 C 0.1787(3) 0.12230(11) 0.7540(2)
H1_2 H 0.1373 0.1554 0.7065
C2_2 C 0.0960(3) 0.09946(10) 0.8088(2)
C3_2 C 0.1529(3) 0.05108(11) 0.8782(2)
H2_2 H 0.0971 0.0352 0.9167
C4_2 C 0.2941(3) 0.02675(12) 0.8896(3)
C5_2 C 0.3717(3) 0.05200(12) 0.8331(2)
H4_2 H 0.4692 0.0353 0.8421
C8_2 C 0.0919(3) 0.31390(11) 0.9522(2)
H5_2 H 0.0566 0.3521 0.9382
C10_2 C 0.0341(3) 0.21654(11) 0.9033(2)
C11_2 C 0.1925(3) 0.20442(11) 0.9933(2)
N7_2 N 0.6817(3) 0.13217(9) 0.7217(2)
N2_2 N 0.9442(3) 0.12408(8) 0.78804(19)
N3_2 N 0.7571(3) 0.17912(9) 0.7915(2)
C6_2 C 0.9140(3) 0.17360(11) 0.8299(2)
C7_2 C 0.7943(3) 0.10002(11) 0.7205(2)
C9_2 C 0.9829(3) 0.27259(11) 0.8828(2)
H6_2 H 0.8751 0.2821 0.8223
C13_2 C 0.7636(3) 0.04752(11) 0.6501(2)
C14_2 C 0.7929(3) 0.04582(11) 0.5529(2)
H9_2 H 0.8369 0.0776 0.5330
C17_2 C 0.6988(3) 0.00022(11) 0.6761(2)
H12_2 H 0.6780 0.0002 0.7422
C15_2 C 0.2437(3) 0.49679(12) 0.0143(2)
H10_2 H 0.2225 0.4956 0.0802
N2_3 N 0.0558(3) 0.87592(8) 0.21196(19)
N3_3 N 0.2429(3) 0.82088(9) 0.2085(2)
N4 N 0.3183(3) 0.86783(9) 0.2783(2)
C6_3 C 0.0860(3) 0.82640(11) 0.1701(2)
C7_3 C 0.2057(3) 0.89998(11) 0.2795(2)
C9_3 C 0.0171(3) 0.72741(11) 0.1172(2)
H6_3 H 0.1249 0.7179 0.1777
C13_3 C 0.2364(3) 0.95248(11) 0.3499(2)
C14_3 C 0.2071(3) 0.95418(11) 0.4471(2)
H9_3 H 0.1631 0.9224 0.4670
C17_3 C 0.3012(3) 0.99978(11) 0.3239(2)
H12_3 H 0.3220 0.9998 0.2578
Ag2 Ag 0.58567(2) 0.87801(2) 0.36667(2)
N1_3 N 0.6837(3) 0.90114(10) 0.2337(2)
C1_3 C 0.8213(3) 0.87770(11) 0.2460(2)
H1_3 H 0.8627 0.8446 0.2935
C2_3 C 0.9040(3) 0.90054(10) 0.1912(2)
C3_3 C 0.8471(3) 0.94892(11) 0.1218(2)
H2_3 H 0.9029 0.9648 0.0833
C4_3 C 0.7059(3) 0.97325(12) 0.1104(3)
C5_3 C 0.6283(3) 0.94800(12) 0.1669(2)
H4_3 H 0.5308 0.9647 0.1579
C8_3 C 0.9081(3) 0.68610(11) 0.0478(2)
H5_3 H 0.9434 0.6479 0.0618
C10_3 C 0.9659(3) 0.78346(11) 0.0967(2)
C11_3 C 0.8075(3) 0.79558(11) 0.0067(2)
N8_2 N 0.7543(3) 0.80285(9) 0.4615(2)
N9 N 0.6927(3) 0.95097(9) 0.5087(2)
N5_2 N 0.7543(3) 0.69715(9) 0.9615(2)
H7_3 H 0.7694 0.8334 0.9904
C12_3 C 0.7065(3) 0.75129(11) 0.9412(2)
H8_3 H 0.5987 0.7596 0.8791
Ag4 Ag 0.58567(2) 0.62199(2) 0.86667(2)
N9_2 N 0.3073(3) 0.45097(9) 0.9913(2)
C15_3 C 0.7563(3) 0.50321(12) 0.9857(2)
H10_3 H 0.7775 0.5044 0.9198
C15_4 C 0.7563(3) 0.99679(12) 0.4857(2)
H10_4 H 0.7775 0.9956 0.4198
C16_3 C 0.6652(3) 0.95312(11) 0.6031(2)
H11_3 H 0.6205 0.9208 0.6206
N2_4 N 0.0558(3) 0.62408(8) 0.71196(19)
N3_4 N 0.2429(3) 0.67912(9) 0.7085(2)
N4_2 N 0.3183(3) 0.63217(9) 0.7783(2)
C6_4 C 0.0860(3) 0.67360(11) 0.6701(2)
C7_4 C 0.2057(3) 0.60002(11) 0.7795(2)
C9_4 C 0.0171(3) 0.77259(11) 0.6172(2)
H6_4 H 0.1249 0.7821 0.6777
C13_4 C 0.2364(3) 0.54752(11) 0.8499(2)
C14_4 C 0.2071(3) 0.54582(11) 0.9471(2)
H9_4 H 0.1631 0.5776 0.9670
C16_4 C 0.3348(3) 0.45312(11) 0.8969(2)
H11_4 H 0.3795 0.4208 0.8794
C17_4 C 0.3012(3) 0.50022(11) 0.8239(2)
H12_4 H 0.3220 0.5002 0.7578
N1_4 N 0.6837(3) 0.59886(10) 0.7337(2)
C1_4 C 0.8213(3) 0.62230(11) 0.7460(2)
H1_4 H 0.8627 0.6554 0.7935
C2_4 C 0.9040(3) 0.59946(10) 0.6912(2)
C3_4 C 0.8471(3) 0.55108(11) 0.6218(2)
H2_4 H 0.9029 0.5352 0.5833
C4_4 C 0.7059(3) 0.52675(12) 0.6104(3)
H3_2 H 0.6631 0.4932 0.5645
C5_4 C 0.6283(3) 0.55200(12) 0.6669(2)
H4_4 H 0.5308 0.5353 0.6579
C8_4 C 0.9081(3) 0.81390(11) 0.5478(2)
H5_4 H 0.9434 0.8521 0.5618
C10_4 C 0.9659(3) 0.71654(11) 0.5967(2)
C11_4 C 0.8075(3) 0.70442(11) 0.5067(2)
H7_4 H 0.7694 0.6666 0.4904
C12_4 C 0.7065(3) 0.74871(11) 0.4412(2)
H8_4 H 0.5987 0.7404 0.3791
H3_3 H 0.6631 0.0068 0.0645
H3_4 H 0.3369 0.9932 0.9355
B1 B 0.4174(3) 0.88538(8) 0.77026(18)
F1 F 0.5073(4) 0.93393(10) 0.8111(3)
F2 F 0.4725(4) 0.85463(12) 0.7060(3)
F3 F 0.2560(3) 0.89885(14) 0.6974(2)
F4 F 0.4337(4) 0.85435(14) 0.8665(3)
B1_2 B 0.5826(3) 0.38538(8) 0.72974(18)
F1_2 F 0.4927(4) 0.43393(10) 0.6889(3)
F2_2 F 0.5275(4) 0.35463(12) 0.7940(3)
F3_2 F 0.7440(3) 0.39885(14) 0.8026(2)
F4_2 F 0.5663(4) 0.35435(14) 0.6335(3)
B1_3 B 0.5826(3) 0.11462(8) 0.22974(18)
F1_3 F 0.4927(4) 0.06607(10) 0.1889(3)
F2_3 F 0.5275(4) 0.14537(12) 0.2940(3)
F3_3 F 0.7440(3) 0.10115(14) 0.3026(2)
F4_3 F 0.5663(4) 0.14565(14) 0.1335(3)
B1_4 B 0.4174(3) 0.61462(8) 0.27026(18)
F1_4 F 0.5073(4) 0.56607(10) 0.3111(3)
F2_4 F 0.4725(4) 0.64537(12) 0.2060(3)
F3_4 F 0.2560(3) 0.60115(14) 0.1974(2)
F4_4 F 0.4337(4) 0.64565(14) 0.3665(3)
loop_
_geom_bond_atom_site_label_1
_geom_bond_atom_site_label_2
_geom_bond_site_symmetry_1
_geom_bond_site_symmetry_2
N6 C15 1_555 1_555
H10 C15 1_555 1_555
C16 N6 1_555 1_555
H11 C16 1_555 1_555
Ag3 N6 1_555 1_555
Ag1 N1 1_555 1_555
N1 C1 1_555 1_555
N5 C8 1_555 1_555
C1 H1 1_555 1_555
C2 C1 1_555 1_555
C3 C2 1_555 1_555
H2 C3 1_555 1_555
C4 C3 1_555 1_555
H3 C4 1_555 1_555
C5 N1 1_555 1_555
H4 C5 1_555 1_555
C8 H5 1_555 1_555
C11 C10 1_555 1_555
H7 C11 1_555 1_555
C12 N5 1_555 1_555
H8 C12 1_555 1_555
Ag3 N5 1_555 1_555
N7 Ag1 1_555 1_555
N8 Ag1 1_555 1_555
C4 C5 1_555 1_555
C11 C12 1_555 1_555
N3 N7 1_555 1_555
N7 C7 1_555 1_555
C6 N2 1_555 1_555
C7 N2 1_555 1_555
H6 C9 1_555 1_555
C13 C7 1_555 1_555
C14 C13 1_555 1_555
H9 C14 1_555 1_555
C16_2 N6_2 1_555 1_555
H11_2 C16_2 1_555 1_555
C17 C13 1_555 1_555
H12 C17 1_555 1_555
N3 C6 1_555 1_555
C16_2 C17 1_555 1_555
C12_2 N8 1_555 1_555
H8_2 C12_2 1_555 1_555
Ag3 N1_2 1_555 1_555
N1_2 C1_2 1_555 1_555
C1_2 H1_2 1_555 1_555
C2_2 C1_2 1_555 1_555
C3_2 C2_2 1_555 1_555
H2_2 C3_2 1_555 1_555
C4_2 C3_2 1_555 1_555
C5_2 N1_2 1_555 1_555
H4_2 C5_2 1_555 1_555
C8_2 H5_2 1_555 1_555
C11_2 C10_2 1_555 1_555
N7_2 Ag3 1_555 1_555
C4_2 C5_2 1_555 1_555
N3_2 N7_2 1_555 1_555
N7_2 C7_2 1_555 1_555
C6_2 N2_2 1_555 1_555
C7_2 N2_2 1_555 1_555
H6_2 C9_2 1_555 1_555
C13_2 C7_2 1_555 1_555
C14_2 C13_2 1_555 1_555
H9_2 C14_2 1_555 1_555
C17_2 C13_2 1_555 1_555
H12_2 C17_2 1_555 1_555
N3_2 C6_2 1_555 1_555
H10_2 C15_2 1_555 1_555
N3_3 N4 1_555 1_555
N4 C7_3 1_555 1_555
C6_3 N2_3 1_555 1_555
C7_3 N2_3 1_555 1_555
H6_3 C9_3 1_555 1_555
C13_3 C7_3 1_555 1_555
C14_3 C13_3 1_555 1_555
H9_3 C14_3 1_555 1_555
C17_3 C13_3 1_555 1_555
H12_3 C17_3 1_555 1_555
Ag2 N4 1_555 1_555
N3_3 C6_3 1_555 1_555
Ag2 N1_3 1_555 1_555
N1_3 C1_3 1_555 1_555
C1_3 H1_3 1_555 1_555
C2_3 C1_3 1_555 1_555
C3_3 C2_3 1_555 1_555
H2_3 C3_3 1_555 1_555
C4_3 C3_3 1_555 1_555
C5_3 N1_3 1_555 1_555
H4_3 C5_3 1_555 1_555
C8_3 H5_3 1_555 1_555
C11_3 C10_3 1_555 1_555
N8_2 Ag2 1_555 1_555
N9 Ag2 1_555 1_555
C4_3 C5_3 1_555 1_555
C12_3 N5_2 1_555 1_555
H8_3 C12_3 1_555 1_555
Ag4 N5_2 1_555 1_555
H10_3 C15_3 1_555 1_555
N9 C15_4 1_555 1_555
H10_4 C15_4 1_555 1_555
C16_3 N9 1_555 1_555
H11_3 C16_3 1_555 1_555
N3_4 N4_2 1_555 1_555
N4_2 C7_4 1_555 1_555
C6_4 N2_4 1_555 1_555
C7_4 N2_4 1_555 1_555
H6_4 C9_4 1_555 1_555
C13_4 C7_4 1_555 1_555
C14_4 C13_4 1_555 1_555
H9_4 C14_4 1_555 1_555
C16_4 N9_2 1_555 1_555
H11_4 C16_4 1_555 1_555
C17_4 C13_4 1_555 1_555
H12_4 C17_4 1_555 1_555
Ag4 N4_2 1_555 1_555
N3_4 C6_4 1_555 1_555
C16_4 C17_4 1_555 1_555
Ag4 N1_4 1_555 1_555
N1_4 C1_4 1_555 1_555
N8_2 C8_4 1_555 1_555
C1_4 H1_4 1_555 1_555
C2_4 C1_4 1_555 1_555
C3_4 C2_4 1_555 1_555
H2_4 C3_4 1_555 1_555
C4_4 C3_4 1_555 1_555
H3_2 C4_4 1_555 1_555
C5_4 N1_4 1_555 1_555
H4_4 C5_4 1_555 1_555
C8_4 H5_4 1_555 1_555
C11_4 C10_4 1_555 1_555
H7_4 C11_4 1_555 1_555
C12_4 N8_2 1_555 1_555
H8_4 C12_4 1_555 1_555
C4_4 C5_4 1_555 1_555
C11_4 C12_4 1_555 1_555
B1 F1 1_555 1_555
F2 B1 1_555 1_555
F3 B1 1_555 1_555
F4 B1 1_555 1_555
B1_2 F1_2 1_555 1_555
F2_2 B1_2 1_555 1_555
F3_2 B1_2 1_555 1_555
F4_2 B1_2 1_555 1_555
B1_3 F1_3 1_555 1_555
F2_3 B1_3 1_555 1_555
F3_3 B1_3 1_555 1_555
F4_3 B1_3 1_555 1_555
B1_4 F1_4 1_555 1_555
F2_4 B1_4 1_555 1_555
F3_4 B1_4 1_555 1_555
F4_4 B1_4 1_555 1_555

#END
