
###############################################################################
#
# This file contains modified crystal structure data generated from the
# MOF subset of the Cambridge Structural Database (CSD) v543 
# hosted by the Cambridge Crystallographic Data Centre (CCDC).
#
# This work is licensed under the Creative Commons
# Attribution-NonCommercial-ShareAlike 4.0 International License.
# To view a copy of this license, visit
# http://creativecommons.org/licenses/by-nc-sa/4.0/
# or send a letter to
# Creative Commons, PO Box 1866, Mountain View, CA 94042, USA.
#
# CIF created using the CSD Python API on 29 September 2022
# The structure has been converted into the P1 space group
# The structure has a 3D framework
# The original CSD entry YIXHEV is in the monoclinic crystal system
# The framework has been calculated to contain at least 10.0% void space
# The void calculation uses a probe of radius 1.32A, grid spacing 0.4
# The framework is charged, counterions have been retained in the structure
#
###############################################################################

data_YIXHEV
_chemical_formula_moiety         '(C68 H48 Ag4 Cl4 N24 O16)n'
_symmetry_cell_setting           triclinic
_symmetry_space_group_name_H-M   'P 1'
_symmetry_Int_Tables_number      1
_space_group_name_Hall           'P 1'
loop_
_symmetry_equiv_pos_site_id
_symmetry_equiv_pos_as_xyz
1 x,y,z
_cell_length_a                   9.0456(6)
_cell_length_b                   24.9317(17)
_cell_length_c                   12.1258(9)
_cell_angle_alpha                90
_cell_angle_beta                 96.2640(10)
_cell_angle_gamma                90
_cell_volume                     2718.31
loop_
_atom_site_label
_atom_site_type_symbol
_atom_site_fract_x
_atom_site_fract_y
_atom_site_fract_z
Ag1 Ag 0.72125(2) 0.11420(2) 0.08455(2)
N1 N 0.5309(3) 0.13481(11) 0.1821(2)
N2 N 0.5270(3) 0.18185(11) 0.2419(2)
N3 N 0.3212(3) 0.13567(10) 0.25686(19)
N4 N 0.2797(3) 0.31392(10) 0.4789(2)
C1 C 0.4006(3) 0.18175(12) 0.2860(2)
C2 C 0.4081(3) 0.10806(12) 0.1909(3)
C3 C 0.3647(4) 0.31976(13) 0.3955(3)
H1 H 0.4000 0.3546 0.3803
C4 C 0.4030(3) 0.27743(12) 0.3310(3)
H2 H 0.4617 0.2833 0.2718
C5 C 0.3546(3) 0.22632(12) 0.3538(2)
C6 C 0.2693(3) 0.21965(12) 0.4417(3)
H3 H 0.2361 0.1851 0.4607
C7 C 0.2341(4) 0.26439(12) 0.5005(2)
H4 H 0.1742 0.2597 0.5595
C8 C 0.3682(3) 0.05680(12) 0.1349(2)
C9 C 0.4486(3) 0.01055(12) 0.1646(2)
H5 H 0.5262 0.0108 0.2240
C12 C 0.2549(3) 0.05445(12) 0.0479(2)
H8 H 0.1982 0.0855 0.0259
C13 C 0.0545(3) 0.12894(11) 0.2094(2)
H9 H 0.0653 0.1510 0.1470
C14 C 0.1779(3) 0.11785(11) 0.2829(2)
C15 C 0.1651(3) 0.08659(12) 0.3762(3)
H10 H 0.2493 0.0785 0.4273
C16 C 0.0260(4) 0.06784(13) 0.3916(3)
H11 H 0.0117 0.0472 0.4554
Ag4 Ag 0.22125(2) 0.38580(2) 0.58455(2)
N9 N 0.9199(3) 0.10947(10) 0.2235(2)
C11 C 0.2261(3) 0.00603(12) 0.9940(2)
H7 H 0.1481 0.0045 0.9349
N7 N 0.7797(3) 0.18608(10) 0.9789(2)
N8 N 0.6970(3) 0.03882(10) 0.97879(19)
N5 N 0.3030(3) 0.96118(10) 0.02121(19)
C10 C 0.4128(3) 0.96403(12) 0.1052(2)
H6 H 0.4687 0.9325 0.1248
Ag3 Ag 0.27875(2) 0.88580(2) 0.91545(2)
C17 C 0.9076(3) 0.07919(12) 0.3139(3)
H12 H 0.8127 0.0650 0.3247
N3_2 N 0.1788(3) 0.63567(10) 0.24314(19)
N4_2 N 0.2203(3) 0.81392(10) 0.0211(2)
N5_2 N 0.1970(3) 0.46118(10) 0.47879(19)
N6 N 0.5801(3) 0.60947(10) 0.2765(2)
C1_2 C 0.0994(3) 0.68175(12) 0.2140(2)
C2_2 C 0.0919(3) 0.60806(12) 0.3091(3)
C3_2 C 0.1353(4) 0.81976(13) 0.1045(3)
H1_2 H 0.1000 0.8546 0.1197
C4_2 C 0.0970(3) 0.77743(12) 0.1690(3)
H2_2 H 0.0383 0.7833 0.2282
C5_2 C 0.1454(3) 0.72632(12) 0.1462(2)
C6_2 C 0.2307(3) 0.71965(12) 0.0583(3)
H3_2 H 0.2639 0.6851 0.0393
C8_2 C 0.1318(3) 0.55680(12) 0.3651(2)
C9_2 C 0.0514(3) 0.51055(12) 0.3354(2)
C10_2 C 0.0872(3) 0.46403(12) 0.3948(2)
H6_2 H 0.0313 0.4325 0.3752
C11_2 C 0.2739(3) 0.50603(12) 0.5060(2)
H7_2 H 0.3519 0.5045 0.5651
C12_2 C 0.2451(3) 0.55445(12) 0.4521(2)
H8_2 H 0.3018 0.5855 0.4741
C13_2 C 0.4455(3) 0.62894(11) 0.2906(2)
H9_2 H 0.4347 0.6510 0.3530
C14_2 C 0.3221(3) 0.61785(11) 0.2171(2)
C15_2 C 0.3349(3) 0.58659(12) 0.1238(3)
H10_2 H 0.2507 0.5785 0.0727
C16_2 C 0.4740(4) 0.56784(13) 0.1084(3)
H11_2 H 0.4883 0.5472 0.0446
C17_2 C 0.5924(3) 0.57919(12) 0.1861(3)
H12_2 H 0.6873 0.5650 0.1753
Ag2 Ag 0.77875(2) 0.61420(2) 0.41545(2)
C7_2 C 0.2659(4) 0.76439(12) 0.9995(2)
H4_2 H 0.3258 0.7597 0.9405
N1_2 N 0.9691(3) 0.63481(11) 0.3179(2)
N2_2 N 0.9730(3) 0.68185(11) 0.2581(2)
H5_2 H 0.9738 0.5108 0.2760
N7_2 N 0.7203(3) 0.68608(10) 0.5211(2)
N8_2 N 0.8030(3) 0.53882(10) 0.52121(19)
N6_2 N 0.0801(3) 0.89053(10) 0.7765(2)
C17_3 C 0.0924(3) 0.92081(12) 0.6861(3)
H12_3 H 0.1873 0.9350 0.6753
C10_3 C 0.5872(3) 0.03597(12) 0.8948(2)
H6_3 H 0.5313 0.0675 0.8752
C11_3 C 0.7739(3) 0.99397(12) 0.0060(2)
H7_3 H 0.8519 0.9955 0.0651
N1_3 N 0.4691(3) 0.86519(11) 0.8179(2)
N2_3 N 0.4730(3) 0.81815(11) 0.7581(2)
N3_3 N 0.6788(3) 0.86433(10) 0.74314(19)
C1_3 C 0.5994(3) 0.81825(12) 0.7140(2)
C2_3 C 0.5919(3) 0.89194(12) 0.8091(3)
C3_3 C 0.6353(4) 0.68024(13) 0.6045(3)
H1_3 H 0.6000 0.6454 0.6197
C4_3 C 0.5970(3) 0.72257(12) 0.6690(3)
H2_3 H 0.5383 0.7167 0.7282
C5_3 C 0.6454(3) 0.77368(12) 0.6462(2)
C6_3 C 0.7307(3) 0.78035(12) 0.5583(3)
H3_3 H 0.7639 0.8149 0.5393
C7_3 C 0.7659(4) 0.73561(12) 0.4995(2)
H4_3 H 0.8258 0.7403 0.4405
C8_3 C 0.6318(3) 0.94320(12) 0.8651(2)
C9_3 C 0.5514(3) 0.98945(12) 0.8354(2)
H5_3 H 0.4738 0.9892 0.7760
C12_3 C 0.7451(3) 0.94555(12) 0.9521(2)
H8_3 H 0.8018 0.9145 0.9741
C13_3 C 0.9455(3) 0.87106(11) 0.7906(2)
H9_3 H 0.9347 0.8490 0.8530
C14_3 C 0.8221(3) 0.88215(11) 0.7171(2)
C15_3 C 0.8349(3) 0.91341(12) 0.6238(3)
H10_3 H 0.7507 0.9215 0.5727
C16_3 C 0.9740(4) 0.93216(13) 0.6084(3)
H11_3 H 0.9883 0.9528 0.5446
N1_4 N 0.0309(3) 0.36519(11) 0.6821(2)
N2_4 N 0.0270(3) 0.31815(11) 0.7419(2)
H5_4 H 0.0262 0.4892 0.7240
N9_2 N 0.4199(3) 0.39053(10) 0.7235(2)
C7_4 C 0.7341(4) 0.23561(12) 0.0005(2)
H4_4 H 0.6742 0.2403 0.0595
N3_4 N 0.8212(3) 0.36433(10) 0.75686(19)
C1_4 C 0.9006(3) 0.31825(12) 0.7860(2)
C2_4 C 0.9081(3) 0.39194(12) 0.6909(3)
C3_4 C 0.8647(4) 0.18024(13) 0.8955(3)
H1_4 H 0.9000 0.1454 0.8803
C4_4 C 0.9030(3) 0.22257(12) 0.8310(3)
H2_4 H 0.9617 0.2167 0.7718
C5_4 C 0.8546(3) 0.27368(12) 0.8538(2)
C6_4 C 0.7693(3) 0.28035(12) 0.9417(3)
H3_4 H 0.7361 0.3149 0.9607
C8_4 C 0.8682(3) 0.44320(12) 0.6349(2)
C9_4 C 0.9486(3) 0.48945(12) 0.6646(2)
C10_4 C 0.9128(3) 0.53597(12) 0.6052(2)
H6_4 H 0.9687 0.5675 0.6248
C11_4 C 0.7261(3) 0.49397(12) 0.4940(2)
H7_4 H 0.6481 0.4955 0.4349
C12_4 C 0.7549(3) 0.44555(12) 0.5479(2)
H8_4 H 0.6982 0.4145 0.5259
C13_4 C 0.5545(3) 0.37106(11) 0.7094(2)
H9_4 H 0.5653 0.3490 0.6470
C14_4 C 0.6779(3) 0.38215(11) 0.7829(2)
C15_4 C 0.6651(3) 0.41341(12) 0.8762(3)
H10_4 H 0.7493 0.4215 0.9273
C16_4 C 0.5260(4) 0.43216(13) 0.8916(3)
H11_4 H 0.5117 0.4528 0.9554
C17_4 C 0.4076(3) 0.42081(12) 0.8139(3)
H12_4 H 0.3127 0.4350 0.8247
Cl1 Cl 0.18049(13) 0.09163(4) 0.70691(8)
O1 O 0.3256(6) 0.10043(17) 0.7613(5)
O2 O 0.0849(6) 0.08526(19) 0.7897(3)
O3 O 0.1363(3) 0.13718(11) 0.6387(2)
O4 O 0.1852(4) 0.04515(10) 0.6407(2)
Cl1_2 Cl 0.31951(13) 0.59163(4) 0.79309(8)
O1_2 O 0.1744(6) 0.60043(17) 0.7387(5)
O2_2 O 0.4151(6) 0.58526(19) 0.7103(3)
O3_2 O 0.3637(3) 0.63718(11) 0.8613(2)
O4_2 O 0.3148(4) 0.54515(10) 0.8593(2)
Cl1_3 Cl 0.81951(13) 0.90837(4) 0.29309(8)
O1_3 O 0.6744(6) 0.89957(17) 0.2387(5)
O2_3 O 0.9151(6) 0.91474(19) 0.2103(3)
O3_3 O 0.8637(3) 0.86282(11) 0.3613(2)
O4_3 O 0.8148(4) 0.95485(10) 0.3593(2)
Cl1_4 Cl 0.68049(13) 0.40837(4) 0.20691(8)
O1_4 O 0.8256(6) 0.39957(17) 0.2613(5)
O2_4 O 0.5849(6) 0.41474(19) 0.2897(3)
O3_4 O 0.6363(3) 0.36282(11) 0.1387(2)
O4_4 O 0.6852(4) 0.45485(10) 0.1407(2)
loop_
_geom_bond_atom_site_label_1
_geom_bond_atom_site_label_2
_geom_bond_site_symmetry_1
_geom_bond_site_symmetry_2
Ag1 N1 1_555 1_555
N1 N2 1_555 1_555
N2 C1 1_555 1_555
N3 C1 1_555 1_555
N4 C3 1_555 1_555
C1 C5 1_555 1_555
C2 N1 1_555 1_555
C3 H1 1_555 1_555
C4 C3 1_555 1_555
H2 C4 1_555 1_555
C5 C4 1_555 1_555
C6 C5 1_555 1_555
H3 C6 1_555 1_555
C7 N4 1_555 1_555
H4 C7 1_555 1_555
C8 C2 1_555 1_555
C9 C8 1_555 1_555
H5 C9 1_555 1_555
C12 C8 1_555 1_555
H8 C12 1_555 1_555
C13 H9 1_555 1_555
C14 N3 1_555 1_555
C15 C14 1_555 1_555
H10 C15 1_555 1_555
C16 C15 1_555 1_555
H11 C16 1_555 1_555
Ag4 N4 1_555 1_555
N9 Ag1 1_555 1_555
N3 C2 1_555 1_555
C6 C7 1_555 1_555
C13 C14 1_555 1_555
H7 C11 1_555 1_555
N5 C10 1_555 1_555
H6 C10 1_555 1_555
C17 N9 1_555 1_555
H12 C17 1_555 1_555
N3_2 C1_2 1_555 1_555
N4_2 C3_2 1_555 1_555
N5_2 C10_2 1_555 1_555
N6 C13_2 1_555 1_555
C1_2 C5_2 1_555 1_555
C3_2 H1_2 1_555 1_555
C4_2 C3_2 1_555 1_555
H2_2 C4_2 1_555 1_555
C5_2 C4_2 1_555 1_555
C6_2 C5_2 1_555 1_555
H3_2 C6_2 1_555 1_555
C8_2 C2_2 1_555 1_555
C9_2 C8_2 1_555 1_555
C10_2 C9_2 1_555 1_555
H6_2 C10_2 1_555 1_555
C11_2 N5_2 1_555 1_555
H7_2 C11_2 1_555 1_555
C12_2 C8_2 1_555 1_555
H8_2 C12_2 1_555 1_555
C13_2 H9_2 1_555 1_555
C14_2 N3_2 1_555 1_555
C15_2 C14_2 1_555 1_555
H10_2 C15_2 1_555 1_555
C16_2 C15_2 1_555 1_555
H11_2 C16_2 1_555 1_555
C17_2 N6 1_555 1_555
H12_2 C17_2 1_555 1_555
Ag2 N6 1_555 1_555
Ag4 N5_2 1_555 1_555
N3_2 C2_2 1_555 1_555
C11_2 C12_2 1_555 1_555
C13_2 C14_2 1_555 1_555
C16_2 C17_2 1_555 1_555
H4_2 C7_2 1_555 1_555
Ag2 N1_2 1_555 1_555
N1_2 N2_2 1_555 1_555
N7_2 Ag2 1_555 1_555
N8_2 Ag2 1_555 1_555
C17_3 N6_2 1_555 1_555
H12_3 C17_3 1_555 1_555
Ag3 N6_2 1_555 1_555
N8 C10_3 1_555 1_555
H6_3 C10_3 1_555 1_555
H7_3 C11_3 1_555 1_555
Ag3 N1_3 1_555 1_555
N1_3 N2_3 1_555 1_555
N2_3 C1_3 1_555 1_555
N3_3 C1_3 1_555 1_555
N7_2 C3_3 1_555 1_555
C1_3 C5_3 1_555 1_555
C2_3 N1_3 1_555 1_555
C3_3 H1_3 1_555 1_555
C4_3 C3_3 1_555 1_555
H2_3 C4_3 1_555 1_555
C5_3 C4_3 1_555 1_555
C6_3 C5_3 1_555 1_555
H3_3 C6_3 1_555 1_555
C7_3 N7_2 1_555 1_555
H4_3 C7_3 1_555 1_555
C8_3 C2_3 1_555 1_555
C9_3 C8_3 1_555 1_555
H5_3 C9_3 1_555 1_555
C12_3 C8_3 1_555 1_555
H8_3 C12_3 1_555 1_555
C13_3 H9_3 1_555 1_555
C14_3 N3_3 1_555 1_555
C15_3 C14_3 1_555 1_555
H10_3 C15_3 1_555 1_555
C16_3 C15_3 1_555 1_555
H11_3 C16_3 1_555 1_555
N3_3 C2_3 1_555 1_555
C6_3 C7_3 1_555 1_555
C13_3 C14_3 1_555 1_555
Ag4 N1_4 1_555 1_555
N1_4 N2_4 1_555 1_555
N9_2 Ag4 1_555 1_555
H4_4 C7_4 1_555 1_555
N3_4 C1_4 1_555 1_555
N7 C3_4 1_555 1_555
N8_2 C10_4 1_555 1_555
N9_2 C13_4 1_555 1_555
C1_4 C5_4 1_555 1_555
C3_4 H1_4 1_555 1_555
C4_4 C3_4 1_555 1_555
H2_4 C4_4 1_555 1_555
C5_4 C4_4 1_555 1_555
C6_4 C5_4 1_555 1_555
H3_4 C6_4 1_555 1_555
C8_4 C2_4 1_555 1_555
C9_4 C8_4 1_555 1_555
C10_4 C9_4 1_555 1_555
H6_4 C10_4 1_555 1_555
C11_4 N8_2 1_555 1_555
H7_4 C11_4 1_555 1_555
C12_4 C8_4 1_555 1_555
H8_4 C12_4 1_555 1_555
C13_4 H9_4 1_555 1_555
C14_4 N3_4 1_555 1_555
C15_4 C14_4 1_555 1_555
H10_4 C15_4 1_555 1_555
C16_4 C15_4 1_555 1_555
H11_4 C16_4 1_555 1_555
C17_4 N9_2 1_555 1_555
H12_4 C17_4 1_555 1_555
N3_4 C2_4 1_555 1_555
C11_4 C12_4 1_555 1_555
C13_4 C14_4 1_555 1_555
C16_4 C17_4 1_555 1_555
Cl1 O1 1_555 1_555
O2 Cl1 1_555 1_555
O3 Cl1 1_555 1_555
O4 Cl1 1_555 1_555
Cl1_2 O1_2 1_555 1_555
O2_2 Cl1_2 1_555 1_555
O3_2 Cl1_2 1_555 1_555
O4_2 Cl1_2 1_555 1_555
Cl1_3 O1_3 1_555 1_555
O2_3 Cl1_3 1_555 1_555
O3_3 Cl1_3 1_555 1_555
O4_3 Cl1_3 1_555 1_555
Cl1_4 O1_4 1_555 1_555
O2_4 Cl1_4 1_555 1_555
O3_4 Cl1_4 1_555 1_555
O4_4 Cl1_4 1_555 1_555

#END
