
###############################################################################
#
# This file contains modified crystal structure data generated from the
# MOF subset of the Cambridge Structural Database (CSD) v543 
# hosted by the Cambridge Crystallographic Data Centre (CCDC).
#
# This work is licensed under the Creative Commons
# Attribution-NonCommercial-ShareAlike 4.0 International License.
# To view a copy of this license, visit
# http://creativecommons.org/licenses/by-nc-sa/4.0/
# or send a letter to
# Creative Commons, PO Box 1866, Mountain View, CA 94042, USA.
#
# CIF created using the CSD Python API on 29 September 2022
# The structure has been converted into the P1 space group
# The structure has a 3D framework
# The original CSD entry YIXHUL is in the monoclinic crystal system
# The framework has been calculated to contain at least 10.0% void space
# The void calculation uses a probe of radius 1.32A, grid spacing 0.4
# The framework is charged, counterions have been retained in the structure
#
###############################################################################

data_YIXHUL
_chemical_formula_moiety         '(C68 H48 Ag4 F24 N24 P4)n'
_symmetry_cell_setting           triclinic
_symmetry_space_group_name_H-M   'P 1'
_symmetry_Int_Tables_number      1
_space_group_name_Hall           'P 1'
loop_
_symmetry_equiv_pos_site_id
_symmetry_equiv_pos_as_xyz
1 x,y,z
_cell_length_a                   9.3214(15)
_cell_length_b                   23.912(4)
_cell_length_c                   12.064(2)
_cell_angle_alpha                90
_cell_angle_beta                 105.218(3)
_cell_angle_gamma                90
_cell_volume                     2594.69
loop_
_atom_site_label
_atom_site_type_symbol
_atom_site_fract_x
_atom_site_fract_y
_atom_site_fract_z
N6 N 0.0597(3) 0.10758(13) 0.7521(3)
C15 C 0.0492(4) 0.06479(16) 0.6803(3)
H10 H 0.1362 0.0507 0.6670
Ag2 Ag 0.28789(3) 0.12627(2) 0.88945(2)
N1 N 0.7168(3) 0.30356(11) 0.4941(2)
N2 N 0.4774(3) 0.18304(11) 0.7399(3)
N3 N 0.4719(3) 0.13581(11) 0.8050(3)
N4 N 0.6661(3) 0.12870(10) 0.7379(2)
C1 C 0.7003(4) 0.20710(14) 0.5391(3)
H1 H 0.7164 0.1700 0.5223
C2 C 0.7359(4) 0.24981(14) 0.4747(3)
H2 H 0.7756 0.2405 0.4140
C3 C 0.6574(4) 0.31556(14) 0.5810(3)
H3 H 0.6420 0.3530 0.5956
C4 C 0.6181(4) 0.27583(14) 0.6497(3)
H4 H 0.5771 0.2862 0.7091
C5 C 0.6404(3) 0.22013(13) 0.6288(3)
C6 C 0.5941(3) 0.17798(13) 0.7006(3)
C7 C 0.5849(3) 0.10390(13) 0.8026(3)
C8 C 0.6238(3) 0.05041(13) 0.8640(3)
C9 C 0.5297(4) 0.00554(14) 0.8377(3)
H5 H 0.4423 0.0077 0.7789
C12 C 0.7523(4) 0.04518(14) 0.9509(3)
H8 H 0.8185 0.0749 0.9704
C13 C 0.7982(3) 0.10590(13) 0.7147(3)
C14 C 0.9336(3) 0.12794(14) 0.7689(3)
H9 H 0.9382 0.1579 0.8189
C16 C 0.9176(4) 0.04039(17) 0.6249(3)
H11 H 0.9157 0.0102 0.5760
C17 C 0.7880(4) 0.06107(15) 0.6425(3)
H12 H 0.6965 0.0452 0.6067
Ag4 Ag 0.78789(3) 0.37373(2) 0.38945(2)
N7 N 0.2168(3) 0.19644(11) 0.9941(2)
C11 C 0.7809(4) 0.99513(15) 0.0084(3)
H7 H 0.8678 0.9919 0.0673
Ag3 Ag 0.71211(3) 0.87373(2) 0.11055(2)
Ag1 Ag 0.21211(3) 0.62627(2) 0.61055(2)
N2_2 N 0.0226(3) 0.68304(11) 0.7601(3)
N3_2 N 0.0281(3) 0.63581(11) 0.6950(3)
H5_2 H 0.0577 0.5077 0.7211
N7_2 N 0.2832(3) 0.69644(11) 0.5059(2)
N8 N 0.1908(3) 0.54893(11) 0.4842(2)
N9 N 0.4403(3) 0.60758(13) 0.7479(3)
N1_2 N 0.7832(3) 0.80356(11) 0.0059(2)
C2_2 C 0.7641(4) 0.74981(14) 0.0253(3)
H2_2 H 0.7244 0.7405 0.0860
N4_2 N 0.8339(3) 0.62870(10) 0.7621(2)
N5 N 0.8092(3) 0.45107(11) 0.5158(2)
C1_2 C 0.7997(4) 0.70710(14) 0.9609(3)
H1_2 H 0.7836 0.6700 0.9777
C3_2 C 0.8426(4) 0.81556(14) 0.9190(3)
H3_2 H 0.8580 0.8530 0.9044
C4_2 C 0.8819(4) 0.77583(14) 0.8503(3)
H4_2 H 0.9229 0.7862 0.7909
C5_2 C 0.8596(3) 0.72013(13) 0.8712(3)
C6_2 C 0.9059(3) 0.67798(13) 0.7994(3)
C7_2 C 0.9151(3) 0.60390(13) 0.6974(3)
C8_2 C 0.8762(3) 0.55041(13) 0.6360(3)
C9_2 C 0.9703(4) 0.50554(14) 0.6623(3)
C10 C 0.9325(4) 0.45711(14) 0.5998(3)
H6 H 0.9971 0.4269 0.6176
C11_2 C 0.7191(4) 0.49513(15) 0.4916(3)
H7_2 H 0.6322 0.4919 0.4327
C12_2 C 0.7477(4) 0.54518(14) 0.5491(3)
H8_2 H 0.6815 0.5749 0.5296
C13_2 C 0.7018(3) 0.60590(13) 0.7853(3)
C14_2 C 0.5664(3) 0.62794(14) 0.7311(3)
H9_2 H 0.5618 0.6579 0.6811
C15_2 C 0.4508(4) 0.56479(16) 0.8197(3)
H10_2 H 0.3638 0.5507 0.8330
C16_2 C 0.5824(4) 0.54039(17) 0.8751(3)
H11_2 H 0.5843 0.5102 0.9240
C17_2 C 0.7120(4) 0.56107(15) 0.8575(3)
H12_2 H 0.8035 0.5452 0.8933
C11_3 C 0.2191(4) 0.00487(15) 0.9916(3)
H7_3 H 0.1322 0.0081 0.9327
N2_3 N 0.5226(3) 0.81696(11) 0.2601(3)
N3_3 N 0.5281(3) 0.86419(11) 0.1950(3)
N4_3 N 0.3339(3) 0.87130(10) 0.2621(2)
C1_3 C 0.2997(4) 0.79290(14) 0.4609(3)
H1_3 H 0.2836 0.8300 0.4777
C2_3 C 0.2641(4) 0.75019(14) 0.5253(3)
H2_3 H 0.2244 0.7595 0.5860
C3_3 C 0.3426(4) 0.68444(14) 0.4190(3)
H3_3 H 0.3580 0.6470 0.4044
C4_3 C 0.3819(4) 0.72417(14) 0.3503(3)
H4_3 H 0.4229 0.7138 0.2909
C5_3 C 0.3596(3) 0.77987(13) 0.3712(3)
C6_3 C 0.4059(3) 0.82202(13) 0.2994(3)
C7_3 C 0.4151(3) 0.89610(13) 0.1974(3)
C8_3 C 0.3762(3) 0.94959(13) 0.1360(3)
C9_3 C 0.4703(4) 0.99446(14) 0.1623(3)
H5_3 H 0.5577 0.9923 0.2211
C12_3 C 0.2477(4) 0.95482(14) 0.0491(3)
H8_3 H 0.1815 0.9251 0.0296
C13_3 C 0.2018(3) 0.89410(13) 0.2853(3)
C14_3 C 0.0664(3) 0.87206(14) 0.2311(3)
H9_3 H 0.0618 0.8421 0.1811
C16_3 C 0.0824(4) 0.95961(17) 0.3751(3)
H11_3 H 0.0843 0.9898 0.4240
C17_3 C 0.2120(4) 0.93893(15) 0.3575(3)
H12_3 H 0.3035 0.9548 0.3933
N9_2 N 0.9403(3) 0.89242(13) 0.2479(3)
C15_3 C 0.9508(4) 0.93521(16) 0.3197(3)
H10_3 H 0.8638 0.9493 0.3330
N4_4 N 0.1661(3) 0.37130(10) 0.2379(2)
N6_2 N 0.5597(3) 0.39242(13) 0.2521(3)
C1_4 C 0.2003(4) 0.29290(14) 0.0391(3)
H1_4 H 0.2164 0.3300 0.0223
C3_4 C 0.1574(4) 0.18444(14) 0.0810(3)
H3_4 H 0.1420 0.1470 0.0956
C4_4 C 0.1181(4) 0.22417(14) 0.1497(3)
H4_4 H 0.0771 0.2138 0.2091
C5_4 C 0.1404(3) 0.27987(13) 0.1288(3)
C6_4 C 0.0941(3) 0.32202(13) 0.2006(3)
C7_4 C 0.0849(3) 0.39610(13) 0.3026(3)
C8_4 C 0.1238(3) 0.44959(13) 0.3640(3)
C9_4 C 0.0297(4) 0.49446(14) 0.3377(3)
C10_2 C 0.0675(4) 0.54289(14) 0.4002(3)
H6_2 H 0.0029 0.5731 0.3824
C11_4 C 0.2809(4) 0.50487(15) 0.5084(3)
H7_4 H 0.3678 0.5081 0.5673
C12_4 C 0.2523(4) 0.45482(14) 0.4509(3)
H8_4 H 0.3185 0.4251 0.4704
C13_4 C 0.2982(3) 0.39410(13) 0.2147(3)
C14_4 C 0.4336(3) 0.37206(14) 0.2689(3)
H9_4 H 0.4382 0.3421 0.3189
C15_4 C 0.5492(4) 0.43521(16) 0.1803(3)
H10_4 H 0.6362 0.4493 0.1670
C16_4 C 0.4176(4) 0.45961(17) 0.1249(3)
H11_4 H 0.4157 0.4898 0.0760
C17_4 C 0.2880(4) 0.43893(15) 0.1425(3)
H12_4 H 0.1965 0.4548 0.1067
C2_4 C 0.2359(4) 0.25019(14) 0.9747(3)
H2_4 H 0.2756 0.2595 0.9140
N2_4 N 0.9774(3) 0.31696(11) 0.2399(3)
N3_4 N 0.9719(3) 0.36419(11) 0.3050(3)
H5_4 H 0.9423 0.4923 0.2789
N8_2 N 0.3092(3) 0.04893(11) 0.0158(2)
C10_3 C 0.4325(4) 0.04289(14) 0.0998(3)
H6_3 H 0.4971 0.0731 0.1176
N5_2 N 0.6908(3) 0.95107(11) 0.9842(2)
C10_4 C 0.5675(4) 0.95711(14) 0.9002(3)
H6_4 H 0.5029 0.9269 0.8824
P1 P 0.84933(14) 0.11242(5) 0.28471(10)
F1 F 0.9712(5) 0.10293(18) 0.2200(4)
F2 F 0.7409(6) 0.12911(18) 0.1687(5)
F3 F 0.7236(6) 0.12268(19) 0.3416(6)
F4 F 0.9580(6) 0.0930(3) 0.3943(4)
F5 F 0.9017(5) 0.17448(13) 0.3083(4)
F6 F 0.7940(4) 0.05113(12) 0.2550(4)
P1_2 P 0.65067(14) 0.61242(5) 0.21529(10)
F1_2 F 0.5288(5) 0.60293(18) 0.2800(4)
F2_2 F 0.7591(6) 0.62911(18) 0.3313(5)
F3_2 F 0.7764(6) 0.62268(19) 0.1584(6)
F4_2 F 0.5420(6) 0.5930(3) 0.1057(4)
F5_2 F 0.5983(5) 0.67448(13) 0.1917(4)
F6_2 F 0.7060(4) 0.55113(12) 0.2450(4)
P1_3 P 0.15067(14) 0.88758(5) 0.71529(10)
F1_3 F 0.0288(5) 0.89707(18) 0.7800(4)
F2_3 F 0.2591(6) 0.87089(18) 0.8313(5)
F3_3 F 0.2764(6) 0.87732(19) 0.6584(6)
F4_3 F 0.0420(6) 0.9070(3) 0.6057(4)
F5_3 F 0.0983(5) 0.82552(13) 0.6917(4)
F6_3 F 0.2060(4) 0.94887(12) 0.7450(4)
P1_4 P 0.34933(14) 0.38758(5) 0.78471(10)
F1_4 F 0.4712(5) 0.39707(18) 0.7200(4)
F2_4 F 0.2409(6) 0.37089(18) 0.6687(5)
F3_4 F 0.2236(6) 0.37732(19) 0.8416(6)
F4_4 F 0.4580(6) 0.4070(3) 0.8943(4)
F5_4 F 0.4017(5) 0.32552(13) 0.8083(4)
F6_4 F 0.2940(4) 0.44887(12) 0.7550(4)
loop_
_geom_bond_atom_site_label_1
_geom_bond_atom_site_label_2
_geom_bond_site_symmetry_1
_geom_bond_site_symmetry_2
C15 N6 1_555 1_555
H10 C15 1_555 1_555
Ag2 N6 1_555 1_555
Ag2 N3 1_555 1_555
N1 C2 1_555 1_555
N2 N3 1_555 1_555
N3 C7 1_555 1_555
N4 C6 1_555 1_555
C1 H1 1_555 1_555
C2 C1 1_555 1_555
H2 C2 1_555 1_555
C3 N1 1_555 1_555
H3 C3 1_555 1_555
C4 C3 1_555 1_555
H4 C4 1_555 1_555
C5 C1 1_555 1_555
C6 N2 1_555 1_555
C7 N4 1_555 1_555
C8 C7 1_555 1_555
C9 C8 1_555 1_555
H5 C9 1_555 1_555
C12 C8 1_555 1_555
H8 C12 1_555 1_555
C13 N4 1_555 1_555
C14 C13 1_555 1_555
H9 C14 1_555 1_555
H11 C16 1_555 1_555
C17 C13 1_555 1_555
H12 C17 1_555 1_555
Ag4 N1 1_555 1_555
N7 Ag2 1_555 1_555
C4 C5 1_555 1_555
C5 C6 1_555 1_555
C16 C17 1_555 1_555
H7 C11 1_555 1_555
Ag1 N3_2 1_555 1_555
N2_2 N3_2 1_555 1_555
N7_2 Ag1 1_555 1_555
N8 Ag1 1_555 1_555
N9 Ag1 1_555 1_555
N1_2 C2_2 1_555 1_555
H2_2 C2_2 1_555 1_555
Ag3 N1_2 1_555 1_555
N4_2 C6_2 1_555 1_555
N5 C10 1_555 1_555
N9 C14_2 1_555 1_555
C1_2 H1_2 1_555 1_555
H3_2 C3_2 1_555 1_555
C4_2 C3_2 1_555 1_555
H4_2 C4_2 1_555 1_555
C5_2 C1_2 1_555 1_555
C7_2 N4_2 1_555 1_555
C8_2 C7_2 1_555 1_555
C9_2 C8_2 1_555 1_555
C10 C9_2 1_555 1_555
H6 C10 1_555 1_555
C11_2 N5 1_555 1_555
H7_2 C11_2 1_555 1_555
C12_2 C8_2 1_555 1_555
H8_2 C12_2 1_555 1_555
C13_2 N4_2 1_555 1_555
C14_2 C13_2 1_555 1_555
H9_2 C14_2 1_555 1_555
C15_2 N9 1_555 1_555
H10_2 C15_2 1_555 1_555
C16_2 C15_2 1_555 1_555
H11_2 C16_2 1_555 1_555
C17_2 C13_2 1_555 1_555
H12_2 C17_2 1_555 1_555
Ag4 N5 1_555 1_555
C4_2 C5_2 1_555 1_555
C5_2 C6_2 1_555 1_555
C11_2 C12_2 1_555 1_555
C16_2 C17_2 1_555 1_555
H7_3 C11_3 1_555 1_555
Ag3 N3_3 1_555 1_555
N7_2 C2_3 1_555 1_555
N2_3 N3_3 1_555 1_555
N3_3 C7_3 1_555 1_555
N4_3 C6_3 1_555 1_555
C1_3 H1_3 1_555 1_555
C2_3 C1_3 1_555 1_555
H2_3 C2_3 1_555 1_555
C3_3 N7_2 1_555 1_555
H3_3 C3_3 1_555 1_555
C4_3 C3_3 1_555 1_555
H4_3 C4_3 1_555 1_555
C5_3 C1_3 1_555 1_555
C6_3 N2_3 1_555 1_555
C7_3 N4_3 1_555 1_555
C8_3 C7_3 1_555 1_555
C9_3 C8_3 1_555 1_555
H5_3 C9_3 1_555 1_555
C12_3 C8_3 1_555 1_555
H8_3 C12_3 1_555 1_555
C13_3 N4_3 1_555 1_555
C14_3 C13_3 1_555 1_555
H9_3 C14_3 1_555 1_555
H11_3 C16_3 1_555 1_555
C17_3 C13_3 1_555 1_555
H12_3 C17_3 1_555 1_555
N9_2 Ag3 1_555 1_555
C4_3 C5_3 1_555 1_555
C5_3 C6_3 1_555 1_555
C16_3 C17_3 1_555 1_555
C15_3 N9_2 1_555 1_555
H10_3 C15_3 1_555 1_555
N4_4 C6_4 1_555 1_555
N8 C10_2 1_555 1_555
N6_2 C14_4 1_555 1_555
C1_4 H1_4 1_555 1_555
H3_4 C3_4 1_555 1_555
C4_4 C3_4 1_555 1_555
H4_4 C4_4 1_555 1_555
C5_4 C1_4 1_555 1_555
C7_4 N4_4 1_555 1_555
C8_4 C7_4 1_555 1_555
C9_4 C8_4 1_555 1_555
C10_2 C9_4 1_555 1_555
H6_2 C10_2 1_555 1_555
C11_4 N8 1_555 1_555
H7_4 C11_4 1_555 1_555
C12_4 C8_4 1_555 1_555
H8_4 C12_4 1_555 1_555
C13_4 N4_4 1_555 1_555
C14_4 C13_4 1_555 1_555
H9_4 C14_4 1_555 1_555
C15_4 N6_2 1_555 1_555
H10_4 C15_4 1_555 1_555
C16_4 C15_4 1_555 1_555
H11_4 C16_4 1_555 1_555
C17_4 C13_4 1_555 1_555
H12_4 C17_4 1_555 1_555
Ag4 N6_2 1_555 1_555
C4_4 C5_4 1_555 1_555
C5_4 C6_4 1_555 1_555
C11_4 C12_4 1_555 1_555
C16_4 C17_4 1_555 1_555
N7 C2_4 1_555 1_555
H2_4 C2_4 1_555 1_555
Ag4 N3_4 1_555 1_555
N2_4 N3_4 1_555 1_555
N8_2 C10_3 1_555 1_555
H6_3 C10_3 1_555 1_555
N5_2 C10_4 1_555 1_555
H6_4 C10_4 1_555 1_555
P1 F1 1_555 1_555
F2 P1 1_555 1_555
F3 P1 1_555 1_555
F4 P1 1_555 1_555
F5 P1 1_555 1_555
F6 P1 1_555 1_555
P1_2 F1_2 1_555 1_555
F2_2 P1_2 1_555 1_555
F3_2 P1_2 1_555 1_555
F4_2 P1_2 1_555 1_555
F5_2 P1_2 1_555 1_555
F6_2 P1_2 1_555 1_555
P1_3 F1_3 1_555 1_555
F2_3 P1_3 1_555 1_555
F3_3 P1_3 1_555 1_555
F4_3 P1_3 1_555 1_555
F5_3 P1_3 1_555 1_555
F6_3 P1_3 1_555 1_555
P1_4 F1_4 1_555 1_555
F2_4 P1_4 1_555 1_555
F3_4 P1_4 1_555 1_555
F4_4 P1_4 1_555 1_555
F5_4 P1_4 1_555 1_555
F6_4 P1_4 1_555 1_555

#END
