
###############################################################################
#
# This file contains modified crystal structure data generated from the
# MOF subset of the Cambridge Structural Database (CSD) v543 
# hosted by the Cambridge Crystallographic Data Centre (CCDC).
#
# This work is licensed under the Creative Commons
# Attribution-NonCommercial-ShareAlike 4.0 International License.
# To view a copy of this license, visit
# http://creativecommons.org/licenses/by-nc-sa/4.0/
# or send a letter to
# Creative Commons, PO Box 1866, Mountain View, CA 94042, USA.
#
# CIF created using the CSD Python API on 29 September 2022
# The structure has been converted into the P1 space group
# The structure has a 3D framework
# The original CSD entry YIXHOF is in the monoclinic crystal system
# The framework has been calculated to contain at least 10.0% void space
# The void calculation uses a probe of radius 1.32A, grid spacing 0.4
# The framework is charged, counterions have been retained in the structure
#
###############################################################################

data_YIXHOF
_chemical_formula_moiety         '(C68 H48 Ag4 Cl4 N24 O16)n'
_symmetry_cell_setting           triclinic
_symmetry_space_group_name_H-M   'P 1'
_symmetry_Int_Tables_number      1
_space_group_name_Hall           'P 1'
loop_
_symmetry_equiv_pos_site_id
_symmetry_equiv_pos_as_xyz
1 x,y,z
_cell_length_a                   9.3495(12)
_cell_length_b                   23.867(3)
_cell_length_c                   11.4708(15)
_cell_angle_alpha                90
_cell_angle_beta                 105.793(2)
_cell_angle_gamma                90
_cell_volume                     2463.02
loop_
_atom_site_label
_atom_site_type_symbol
_atom_site_fract_x
_atom_site_fract_y
_atom_site_fract_z
N9 N 0.8153(2) 0.04909(9) 0.01060(19)
C11 C 0.9384(3) 0.04590(11) 0.1033(2)
H11 H 0.5966 0.0046 0.4361
Ag1 Ag 0.78161(2) 0.12188(2) 0.86917(2)
N1 N 0.2098(2) 0.30340(9) 0.46543(19)
N4 N 0.1583(2) 0.12488(8) 0.71448(18)
N6 N 0.5518(2) 0.10001(10) 0.73394(19)
C1 C 0.1335(3) 0.21709(11) 0.6004(2)
C2 C 0.2020(3) 0.20541(11) 0.5098(2)
H1 H 0.2240 0.1679 0.4928
C3 C 0.2374(3) 0.24976(11) 0.4451(2)
H2 H 0.2838 0.2417 0.3828
C4 C 0.1424(3) 0.31390(11) 0.5526(2)
H3 H 0.1210 0.3517 0.5674
C5 C 0.1027(3) 0.27262(11) 0.6216(2)
H4 H 0.0553 0.2819 0.6826
C6 C 0.0867(3) 0.17398(10) 0.6733(2)
C7 C 0.0759(3) 0.10051(11) 0.7822(2)
C8 C 0.1150(3) 0.04788(10) 0.8508(2)
C9 C 0.2431(3) 0.04520(11) 0.9462(2)
H5 H 0.3086 0.0763 0.9655
C12 C 0.0221(3) 0.00131(11) 0.8251(2)
C13 C 0.2890(3) 0.10041(10) 0.6925(2)
C14 C 0.4264(3) 0.12315(11) 0.7471(2)
H9 H 0.4324 0.1559 0.7951
C15 C 0.5397(3) 0.05358(12) 0.6666(2)
H10 H 0.6282 0.0370 0.6571
C16 C 0.4064(3) 0.02853(12) 0.6104(2)
C17 C 0.2768(3) 0.05243(11) 0.6227(2)
H12 H 0.1825 0.0365 0.5847
Ag4 Ag 0.28161(2) 0.37812(2) 0.36917(2)
N7 N 0.7098(2) 0.19660(9) 0.96543(19)
N8 N 0.9622(2) 0.13248(9) 0.78150(19)
C10 C 0.2732(3) 0.99619(11) 0.0127(2)
H6 H 0.3608 0.9945 0.0782
Ag3 Ag 0.21839(2) 0.87812(2) 0.13083(2)
N2 N 0.9677(2) 0.17955(9) 0.71252(19)
H8 H 0.9339 0.0019 0.7601
N1_2 N 0.2902(2) 0.80340(9) 0.03457(19)
H1_2 H 0.2760 0.6679 0.0072
C3_2 C 0.2626(3) 0.74976(11) 0.0549(2)
H2_2 H 0.2162 0.7417 0.1172
N2_2 N 0.5323(2) 0.67955(9) 0.78748(19)
N3 N 0.5378(2) 0.63248(9) 0.71850(19)
N4_2 N 0.3417(2) 0.62488(8) 0.78552(18)
N5 N 0.3153(2) 0.45091(9) 0.51060(19)
C1_2 C 0.3665(3) 0.71709(11) 0.8996(2)
C2_2 C 0.2980(3) 0.70541(11) 0.9902(2)
C4_2 C 0.3576(3) 0.81390(11) 0.9474(2)
H3_2 H 0.3790 0.8517 0.9326
C5_2 C 0.3973(3) 0.77262(11) 0.8784(2)
H4_2 H 0.4447 0.7819 0.8174
C6_2 C 0.4133(3) 0.67398(10) 0.8267(2)
C7_2 C 0.4241(3) 0.60051(11) 0.7178(2)
C8_2 C 0.3850(3) 0.54788(10) 0.6492(2)
C9_2 C 0.2569(3) 0.54520(11) 0.5538(2)
H5_2 H 0.1914 0.5763 0.5345
C10_2 C 0.2268(3) 0.49619(11) 0.4873(2)
H6_2 H 0.1392 0.4945 0.4218
C11_2 C 0.4384(3) 0.45410(11) 0.6033(2)
H7 H 0.5019 0.4223 0.6207
C12_2 C 0.4779(3) 0.50131(11) 0.6749(2)
H8_2 H 0.5661 0.5019 0.7399
C13_2 C 0.2110(3) 0.60041(10) 0.8075(2)
C14_2 C 0.0736(3) 0.62315(11) 0.7529(2)
H9_2 H 0.0676 0.6559 0.7049
C16_2 C 0.0936(3) 0.52853(12) 0.8896(2)
H11_2 H 0.0966 0.4954 0.9361
C17_2 C 0.2232(3) 0.55243(11) 0.8773(2)
H12_2 H 0.3175 0.5365 0.9153
Ag2 Ag 0.71839(2) 0.62188(2) 0.63083(2)
N6_2 N 0.9482(2) 0.60001(10) 0.76606(19)
C15_2 C 0.9603(3) 0.55358(12) 0.8334(2)
H10_2 H 0.8718 0.5370 0.8429
N7_2 N 0.7902(2) 0.69660(9) 0.53457(19)
N9_2 N 0.6847(2) 0.54909(9) 0.48940(19)
N2_3 N 0.0323(2) 0.82045(9) 0.28748(19)
N3_2 N 0.0378(2) 0.86752(9) 0.21850(19)
H8_3 H 0.0661 0.9981 0.2399
C10_3 C 0.7268(3) 0.00381(11) 0.9873(2)
H6_3 H 0.6392 0.0055 0.9218
N4_3 N 0.8417(2) 0.87512(8) 0.28552(18)
N6_3 N 0.4482(2) 0.89999(10) 0.26606(19)
C1_3 C 0.8665(3) 0.78291(11) 0.3996(2)
C2_3 C 0.7980(3) 0.79459(11) 0.4902(2)
H1_3 H 0.7760 0.8321 0.5072
C3_3 C 0.7626(3) 0.75024(11) 0.5549(2)
H2_3 H 0.7162 0.7583 0.6172
C4_3 C 0.8576(3) 0.68610(11) 0.4474(2)
H3_3 H 0.8790 0.6483 0.4326
C5_3 C 0.8973(3) 0.72738(11) 0.3784(2)
H4_3 H 0.9447 0.7181 0.3174
C6_3 C 0.9133(3) 0.82602(10) 0.3267(2)
C7_3 C 0.9241(3) 0.89949(11) 0.2178(2)
C8_3 C 0.8850(3) 0.95212(10) 0.1492(2)
C9_3 C 0.7569(3) 0.95480(11) 0.0538(2)
H5_3 H 0.6914 0.9237 0.0345
C12_3 C 0.9779(3) 0.99869(11) 0.1749(2)
C13_3 C 0.7110(3) 0.89959(10) 0.3075(2)
C14_3 C 0.5736(3) 0.87685(11) 0.2529(2)
H9_3 H 0.5676 0.8441 0.2049
C15_3 C 0.4603(3) 0.94642(12) 0.3334(2)
H10_3 H 0.3718 0.9630 0.3429
C16_3 C 0.5936(3) 0.97147(12) 0.3896(2)
C17_3 C 0.7232(3) 0.94757(11) 0.3773(2)
H12_3 H 0.8175 0.9635 0.4153
N6_4 N 0.0518(2) 0.39999(10) 0.23394(19)
C15_4 C 0.0397(3) 0.44642(12) 0.1666(2)
H10_4 H 0.1282 0.4630 0.1571
N8_2 N 0.4622(2) 0.36752(9) 0.28150(19)
N2_4 N 0.4677(2) 0.32045(9) 0.21252(19)
N4_4 N 0.6583(2) 0.37512(8) 0.21448(18)
C1_4 C 0.6335(3) 0.28291(11) 0.1004(2)
C2_4 C 0.7020(3) 0.29459(11) 0.0098(2)
C4_4 C 0.6424(3) 0.18610(11) 0.0526(2)
H3_4 H 0.6210 0.1483 0.0674
C5_4 C 0.6027(3) 0.22738(11) 0.1216(2)
H4_4 H 0.5553 0.2181 0.1826
C6_4 C 0.5867(3) 0.32602(10) 0.1733(2)
C7_4 C 0.5759(3) 0.39949(11) 0.2822(2)
C8_4 C 0.6150(3) 0.45212(10) 0.3508(2)
C9_4 C 0.7431(3) 0.45480(11) 0.4462(2)
H5_4 H 0.8086 0.4237 0.4655
C10_4 C 0.7732(3) 0.50381(11) 0.5127(2)
H6_4 H 0.8608 0.5055 0.5782
C11_3 C 0.5616(3) 0.54590(11) 0.3967(2)
H7_2 H 0.4981 0.5777 0.3793
C12_4 C 0.5221(3) 0.49869(11) 0.3251(2)
H8_4 H 0.4339 0.4981 0.2601
C13_4 C 0.7890(3) 0.39959(10) 0.1925(2)
C14_4 C 0.9264(3) 0.37685(11) 0.2471(2)
H9_4 H 0.9324 0.3441 0.2951
C16_4 C 0.9064(3) 0.47147(12) 0.1104(2)
H11_3 H 0.9034 0.5046 0.0639
C17_4 C 0.7768(3) 0.44757(11) 0.1227(2)
H12_4 H 0.6825 0.4635 0.0847
H1_4 H 0.7240 0.3321 0.9928
C3_4 C 0.7374(3) 0.25024(11) 0.9451(2)
H2_4 H 0.7838 0.2583 0.8828
N5_2 N 0.1847(2) 0.95091(9) 0.98940(19)
C11_4 C 0.0616(3) 0.95410(11) 0.8967(2)
H11_4 H 0.4034 0.9954 0.5639
H7_3 H 0.9981 0.9223 0.8793
H7_4 H 0.0019 0.0777 0.1207
Cl1 Cl 0.3567(3) 0.11373(13) 0.2719(3)
O1 O 0.4417(4) 0.1451(2) 0.3742(4)
O2 O 0.2974(5) 0.06535(16) 0.3151(4)
O3 O 0.4557(5) 0.0957(2) 0.2029(4)
O4 O 0.2431(5) 0.14682(18) 0.2005(4)
Cl1_2 Cl 0.1433(3) 0.61373(13) 0.2281(3)
O1_2 O 0.0583(4) 0.6451(2) 0.1258(4)
O2_2 O 0.2026(5) 0.56535(16) 0.1849(4)
O3_2 O 0.0443(5) 0.5957(2) 0.2971(4)
O4_2 O 0.2569(5) 0.64682(18) 0.2995(4)
Cl1_3 Cl 0.6433(3) 0.88627(13) 0.7281(3)
O1_3 O 0.5583(4) 0.8549(2) 0.6258(4)
O2_3 O 0.7026(5) 0.93465(16) 0.6849(4)
O3_3 O 0.5443(5) 0.9043(2) 0.7971(4)
O4_3 O 0.7569(5) 0.85318(18) 0.7995(4)
Cl1_4 Cl 0.8567(3) 0.38627(13) 0.7719(3)
O1_4 O 0.9417(4) 0.3549(2) 0.8742(4)
O2_4 O 0.7974(5) 0.43465(16) 0.8151(4)
O3_4 O 0.9557(5) 0.4043(2) 0.7029(4)
O4_4 O 0.7431(5) 0.35318(18) 0.7005(4)
loop_
_geom_bond_atom_site_label_1
_geom_bond_atom_site_label_2
_geom_bond_site_symmetry_1
_geom_bond_site_symmetry_2
C11 N9 1_555 1_555
Ag1 N6 1_555 1_555
N1 C3 1_555 1_555
N4 C6 1_555 1_555
N6 C14 1_555 1_555
C1 C2 1_555 1_555
C2 H1 1_555 1_555
C3 C2 1_555 1_555
H2 C3 1_555 1_555
C4 N1 1_555 1_555
H3 C4 1_555 1_555
C5 C1 1_555 1_555
H4 C5 1_555 1_555
C7 N4 1_555 1_555
C8 C7 1_555 1_555
C9 C8 1_555 1_555
H5 C9 1_555 1_555
C12 C8 1_555 1_555
C13 N4 1_555 1_555
C14 C13 1_555 1_555
H9 C14 1_555 1_555
C15 N6 1_555 1_555
H10 C15 1_555 1_555
C16 C15 1_555 1_555
C17 C13 1_555 1_555
H12 C17 1_555 1_555
Ag4 N1 1_555 1_555
N7 Ag1 1_555 1_555
N8 Ag1 1_555 1_555
C1 C6 1_555 1_555
C4 C5 1_555 1_555
C16 C17 1_555 1_555
H6 C10 1_555 1_555
N2 N8 1_555 1_555
N1_2 C3_2 1_555 1_555
H2_2 C3_2 1_555 1_555
Ag3 N1_2 1_555 1_555
N2_2 N3 1_555 1_555
N3 C7_2 1_555 1_555
N4_2 C6_2 1_555 1_555
N5 C10_2 1_555 1_555
C1_2 C2_2 1_555 1_555
H3_2 C4_2 1_555 1_555
C5_2 C1_2 1_555 1_555
H4_2 C5_2 1_555 1_555
C6_2 N2_2 1_555 1_555
C7_2 N4_2 1_555 1_555
C8_2 C7_2 1_555 1_555
C9_2 C8_2 1_555 1_555
H5_2 C9_2 1_555 1_555
C10_2 C9_2 1_555 1_555
H6_2 C10_2 1_555 1_555
C11_2 N5 1_555 1_555
H7 C11_2 1_555 1_555
C12_2 C8_2 1_555 1_555
H8_2 C12_2 1_555 1_555
C13_2 N4_2 1_555 1_555
C14_2 C13_2 1_555 1_555
H9_2 C14_2 1_555 1_555
H11_2 C16_2 1_555 1_555
C17_2 C13_2 1_555 1_555
H12_2 C17_2 1_555 1_555
Ag2 N3 1_555 1_555
Ag4 N5 1_555 1_555
C1_2 C6_2 1_555 1_555
C4_2 C5_2 1_555 1_555
C11_2 C12_2 1_555 1_555
C16_2 C17_2 1_555 1_555
Ag2 N6_2 1_555 1_555
C15_2 N6_2 1_555 1_555
H10_2 C15_2 1_555 1_555
N7_2 Ag2 1_555 1_555
N9_2 Ag2 1_555 1_555
N2_3 N3_2 1_555 1_555
Ag3 N3_2 1_555 1_555
H6_3 C10_3 1_555 1_555
Ag3 N6_3 1_555 1_555
N7_2 C3_3 1_555 1_555
N4_3 C6_3 1_555 1_555
N6_3 C14_3 1_555 1_555
C1_3 C2_3 1_555 1_555
C2_3 H1_3 1_555 1_555
C3_3 C2_3 1_555 1_555
H2_3 C3_3 1_555 1_555
C4_3 N7_2 1_555 1_555
H3_3 C4_3 1_555 1_555
C5_3 C1_3 1_555 1_555
H4_3 C5_3 1_555 1_555
C7_3 N4_3 1_555 1_555
C8_3 C7_3 1_555 1_555
C9_3 C8_3 1_555 1_555
H5_3 C9_3 1_555 1_555
C12_3 C8_3 1_555 1_555
C13_3 N4_3 1_555 1_555
C14_3 C13_3 1_555 1_555
H9_3 C14_3 1_555 1_555
C15_3 N6_3 1_555 1_555
H10_3 C15_3 1_555 1_555
C16_3 C15_3 1_555 1_555
C17_3 C13_3 1_555 1_555
H12_3 C17_3 1_555 1_555
C1_3 C6_3 1_555 1_555
C4_3 C5_3 1_555 1_555
C16_3 C17_3 1_555 1_555
Ag4 N6_4 1_555 1_555
C15_4 N6_4 1_555 1_555
H10_4 C15_4 1_555 1_555
N8_2 Ag4 1_555 1_555
N2_4 N8_2 1_555 1_555
N8_2 C7_4 1_555 1_555
N4_4 C6_4 1_555 1_555
N9_2 C10_4 1_555 1_555
C1_4 C2_4 1_555 1_555
H3_4 C4_4 1_555 1_555
C5_4 C1_4 1_555 1_555
H4_4 C5_4 1_555 1_555
C6_4 N2_4 1_555 1_555
C7_4 N4_4 1_555 1_555
C8_4 C7_4 1_555 1_555
C9_4 C8_4 1_555 1_555
H5_4 C9_4 1_555 1_555
C10_4 C9_4 1_555 1_555
H6_4 C10_4 1_555 1_555
C11_3 N9_2 1_555 1_555
H7_2 C11_3 1_555 1_555
C12_4 C8_4 1_555 1_555
H8_4 C12_4 1_555 1_555
C13_4 N4_4 1_555 1_555
C14_4 C13_4 1_555 1_555
H9_4 C14_4 1_555 1_555
H11_3 C16_4 1_555 1_555
C17_4 C13_4 1_555 1_555
H12_4 C17_4 1_555 1_555
C1_4 C6_4 1_555 1_555
C4_4 C5_4 1_555 1_555
C11_3 C12_4 1_555 1_555
C16_4 C17_4 1_555 1_555
N7 C3_4 1_555 1_555
H2_4 C3_4 1_555 1_555
C11_4 N5_2 1_555 1_555
Cl1 O1 1_555 1_555
O2 Cl1 1_555 1_555
O3 Cl1 1_555 1_555
O4 Cl1 1_555 1_555
Cl1_2 O1_2 1_555 1_555
O2_2 Cl1_2 1_555 1_555
O3_2 Cl1_2 1_555 1_555
O4_2 Cl1_2 1_555 1_555
Cl1_3 O1_3 1_555 1_555
O2_3 Cl1_3 1_555 1_555
O3_3 Cl1_3 1_555 1_555
O4_3 Cl1_3 1_555 1_555
Cl1_4 O1_4 1_555 1_555
O2_4 Cl1_4 1_555 1_555
O3_4 Cl1_4 1_555 1_555
O4_4 Cl1_4 1_555 1_555

#END
