
###############################################################################
#
# This file contains modified crystal structure data generated from the
# MOF subset of the Cambridge Structural Database (CSD) v543 
# hosted by the Cambridge Crystallographic Data Centre (CCDC).
#
# This work is licensed under the Creative Commons
# Attribution-NonCommercial-ShareAlike 4.0 International License.
# To view a copy of this license, visit
# http://creativecommons.org/licenses/by-nc-sa/4.0/
# or send a letter to
# Creative Commons, PO Box 1866, Mountain View, CA 94042, USA.
#
# CIF created using the CSD Python API on 29 September 2022
# The structure has been converted into the P1 space group
# The structure has a 3D framework
# The original CSD entry YIXJEX is in the orthorhombic crystal system
# The framework has been calculated to contain at least 10.0% void space
# The void calculation uses a probe of radius 1.32A, grid spacing 0.4
# The framework is charged, counterions have been retained in the structure
#
###############################################################################

data_YIXJEX
_chemical_formula_moiety         '(C72 H48 Ag4 F12 N24 O12 S4)n'
_symmetry_cell_setting           triclinic
_symmetry_space_group_name_H-M   'P 1'
_symmetry_Int_Tables_number      1
_space_group_name_Hall           'P 1'
loop_
_symmetry_equiv_pos_site_id
_symmetry_equiv_pos_as_xyz
1 x,y,z
_cell_length_a                   26.4040(13)
_cell_length_b                   11.1833(5)
_cell_length_c                   9.0790(4)
_cell_angle_alpha                90
_cell_angle_beta                 90
_cell_angle_gamma                90
_cell_volume                     2680.88
loop_
_atom_site_label
_atom_site_type_symbol
_atom_site_fract_x
_atom_site_fract_y
_atom_site_fract_z
Ag1 Ag 0.60991(2) 0.44020(4) 0.22870(8)
N2 N 0.6303(2) 0.3367(6) 0.0239(6)
N3 N 0.67542(19) 0.2760(5) 0.0191(6)
N7 N 0.5356(2) 0.5251(5) 0.2925(6)
N8 N 0.6850(2) 0.5450(5) 0.2722(6)
N9 N 0.6141(2) 0.2798(6) 0.4091(7)
N1 N 0.4644(2) 0.4749(5) 0.7925(6)
N4 N 0.63759(19) 0.2533(5) 0.8060(6)
N5 N 0.8150(2) 0.0450(5) 0.7722(6)
C1 C 0.5488(2) 0.4934(6) 0.8859(8)
H1 H 0.5737 0.5413 0.9281
C2 C 0.5018(3) 0.5396(6) 0.8522(9)
H2 H 0.4958 0.6200 0.8718
C3 C 0.4742(3) 0.3603(6) 0.7655(8)
H3 H 0.4488 0.3141 0.7231
C4 C 0.5195(2) 0.3065(6) 0.7968(8)
H4 H 0.5241 0.2254 0.7784
C5 C 0.5582(2) 0.3739(5) 0.8558(6)
C6 C 0.6077(2) 0.3230(7) 0.8940(8)
C7 C 0.6796(2) 0.2287(6) 0.8904(7)
C8 C 0.7248(2) 0.1626(6) 0.8413(7)
C9 C 0.7558(3) 0.2036(7) 0.7330(13)
H5 H 0.7473 0.2723 0.6809
C10 C 0.8001(3) 0.1425(8) 0.7004(10)
H6 H 0.8205 0.1712 0.6246
C11 C 0.7842(3) 0.0064(7) 0.8765(10)
C12 C 0.7390(3) 0.0600(6) 0.9142(10)
H8 H 0.7186 0.0276 0.9873
C13 C 0.6281(3) 0.2180(6) 0.6559(8)
C14 C 0.6262(3) 0.0994(6) 0.6185(8)
H9 H 0.6301 0.0398 0.6891
C15 C 0.6183(3) 0.0706(7) 0.4674(9)
C16 C 0.6130(3) 0.1642(7) 0.3713(8)
H11 H 0.6084 0.1461 0.2723
C17 C 0.6211(3) 0.3041(7) 0.5509(9)
H12 H 0.6212 0.3838 0.5803
Ag3 Ag 0.39009(2) 0.55980(4) 0.72870(8)
H7 H 0.7937 0.9382 0.9282
H10 H 0.6167 0.9917 0.4354
Ag4 Ag 0.89009(2) 0.94020(4) 0.72870(8)
H7_2 H 0.2063 0.0618 0.4282
Ag4_2 Ag 0.10991(2) 0.05980(4) 0.22870(8)
N2_2 N 0.3697(2) 0.6633(6) 0.5239(6)
N3_2 N 0.32458(19) 0.7240(5) 0.5191(6)
N4_2 N 0.36241(19) 0.7467(5) 0.3060(6)
N5_2 N 0.1850(2) 0.9550(5) 0.2722(6)
C1_2 C 0.4512(2) 0.5066(6) 0.3859(8)
H1_2 H 0.4263 0.4587 0.4281
C2_2 C 0.4982(3) 0.4604(6) 0.3522(9)
H2_2 H 0.5042 0.3800 0.3718
C3_2 C 0.5258(3) 0.6397(6) 0.2655(8)
H3_2 H 0.5512 0.6859 0.2231
C4_2 C 0.4805(2) 0.6935(6) 0.2968(8)
H4_2 H 0.4759 0.7746 0.2784
C5_2 C 0.4418(2) 0.6261(5) 0.3558(6)
C6_2 C 0.3923(2) 0.6770(7) 0.3940(8)
C7_2 C 0.3204(2) 0.7713(6) 0.3904(7)
C8_2 C 0.2752(2) 0.8374(6) 0.3413(7)
C9_2 C 0.2442(3) 0.7964(7) 0.2330(13)
H5_2 H 0.2527 0.7277 0.1809
C10_2 C 0.1999(3) 0.8575(8) 0.2004(10)
H6_2 H 0.1795 0.8288 0.1246
C11_2 C 0.2158(3) 0.9936(7) 0.3765(10)
C12_2 C 0.2610(3) 0.9400(6) 0.4142(10)
H8_2 H 0.2814 0.9724 0.4873
C13_2 C 0.3719(3) 0.7820(6) 0.1559(8)
C14_2 C 0.3738(3) 0.9006(6) 0.1185(8)
H9_2 H 0.3699 0.9602 0.1891
C17_2 C 0.3789(3) 0.6959(7) 0.0509(9)
H12_2 H 0.3788 0.6162 0.0803
N8_2 N 0.3150(2) 0.4550(5) 0.7722(6)
N9_2 N 0.3859(2) 0.7202(6) 0.9091(7)
C15_2 C 0.3817(3) 0.9294(7) 0.9674(9)
C16_2 C 0.3870(3) 0.8358(7) 0.8713(8)
H11_2 H 0.3916 0.8539 0.7723
H2_3 H 0.0042 0.1200 0.3718
N1_2 N 0.0356(2) 0.9749(5) 0.2925(6)
C3_3 C 0.0258(3) 0.8603(6) 0.2655(8)
H3_3 H 0.0512 0.8141 0.2231
H1_3 H 0.9263 0.0413 0.4281
C2_3 C 0.9982(3) 0.0396(6) 0.3522(9)
N7_2 N 0.9644(2) 0.0251(5) 0.7925(6)
N2_3 N 0.8697(2) 0.8367(6) 0.5239(6)
N3_3 N 0.82458(19) 0.7760(5) 0.5191(6)
N4_3 N 0.86241(19) 0.7533(5) 0.3060(6)
C1_3 C 0.9512(2) 0.9934(6) 0.3859(8)
C4_3 C 0.9805(2) 0.8065(6) 0.2968(8)
H4_3 H 0.9759 0.7254 0.2784
C5_3 C 0.9418(2) 0.8739(5) 0.3558(6)
C6_3 C 0.8923(2) 0.8230(7) 0.3940(8)
C7_3 C 0.8204(2) 0.7287(6) 0.3904(7)
C8_3 C 0.7752(2) 0.6626(6) 0.3413(7)
C9_3 C 0.7442(3) 0.7036(7) 0.2330(13)
H5_3 H 0.7527 0.7723 0.1809
C10_3 C 0.6999(3) 0.6425(8) 0.2004(10)
H6_3 H 0.6795 0.6712 0.1246
C11_3 C 0.7158(3) 0.5064(7) 0.3765(10)
H7_3 H 0.7063 0.4382 0.4282
C12_3 C 0.7610(3) 0.5600(6) 0.4142(10)
H8_3 H 0.7814 0.5276 0.4873
C13_3 C 0.8719(3) 0.7180(6) 0.1559(8)
C14_3 C 0.8738(3) 0.5994(6) 0.1185(8)
H9_3 H 0.8699 0.5398 0.1891
C17_3 C 0.8789(3) 0.8041(7) 0.0509(9)
H12_3 H 0.8788 0.8838 0.0803
N9_3 N 0.8859(2) 0.7798(6) 0.9091(7)
C15_3 C 0.8817(3) 0.5706(7) 0.9674(9)
H10_2 H 0.8833 0.4917 0.9354
C16_3 C 0.8870(3) 0.6642(7) 0.8713(8)
H11_3 H 0.8916 0.6461 0.7723
N2_4 N 0.1303(2) 0.1633(6) 0.0239(6)
N3_4 N 0.17542(19) 0.2240(5) 0.0191(6)
N9_4 N 0.1141(2) 0.2202(6) 0.4091(7)
N4_4 N 0.13759(19) 0.2467(5) 0.8060(6)
C1_4 C 0.0488(2) 0.0066(6) 0.8859(8)
C4_4 C 0.0195(2) 0.1935(6) 0.7968(8)
H4_4 H 0.0241 0.2746 0.7784
C5_4 C 0.0582(2) 0.1261(5) 0.8558(6)
C6_4 C 0.1077(2) 0.1770(7) 0.8940(8)
C7_4 C 0.1796(2) 0.2713(6) 0.8904(7)
C8_4 C 0.2248(2) 0.3374(6) 0.8413(7)
C9_4 C 0.2558(3) 0.2964(7) 0.7330(13)
H5_4 H 0.2473 0.2277 0.6809
C10_4 C 0.3001(3) 0.3575(8) 0.7004(10)
H6_4 H 0.3205 0.3288 0.6246
C11_4 C 0.2842(3) 0.4936(7) 0.8765(10)
H7_4 H 0.2937 0.5618 0.9282
C12_4 C 0.2390(3) 0.4400(6) 0.9142(10)
H8_4 H 0.2186 0.4724 0.9873
C13_4 C 0.1281(3) 0.2820(6) 0.6559(8)
C14_4 C 0.1262(3) 0.4006(6) 0.6185(8)
H9_4 H 0.1301 0.4602 0.6891
C15_4 C 0.1183(3) 0.4294(7) 0.4674(9)
H10_3 H 0.1167 0.5083 0.4354
C16_4 C 0.1130(3) 0.3358(7) 0.3713(8)
H11_4 H 0.1084 0.3539 0.2723
C17_4 C 0.1211(3) 0.1959(7) 0.5509(9)
H12_4 H 0.1212 0.1162 0.5803
C3_4 C 0.9742(3) 0.1397(6) 0.7655(8)
H3_4 H 0.9488 0.1859 0.7231
H2_4 H 0.9958 0.8800 0.8718
H10_4 H 0.3833 0.0083 0.9354
H1_4 H 0.0737 0.9587 0.9281
C2_4 C 0.0018(3) 0.9604(6) 0.8522(9)
S1 S 0.89880(10) 0.3889(3) 0.5293(3)
F1 F 0.9638(5) 0.4437(15) 0.3356(16)
F2 F 0.9947(3) 0.3745(14) 0.5224(18)
F3 F 0.9653(6) 0.5465(13) 0.514(2)
O1 O 0.9020(5) 0.3960(9) 0.6846(9)
O2 O 0.8682(4) 0.4600(13) 0.4529(19)
O3 O 0.8998(4) 0.2653(8) 0.4922(11)
C18 C 0.9613(6) 0.4317(15) 0.470(2)
S1_2 S 0.10120(10) 0.6111(3) 0.0293(3)
F2_2 F 0.0053(3) 0.6255(14) 0.0224(18)
F3_2 F 0.0347(6) 0.4535(13) 0.014(2)
O1_2 O 0.0980(5) 0.6040(9) 0.1846(9)
F1_2 F 0.0362(5) 0.5563(15) 0.8356(16)
O2_2 O 0.1318(4) 0.5400(13) 0.9529(19)
O3_2 O 0.1002(4) 0.7347(8) 0.9922(11)
C18_2 C 0.0387(6) 0.5683(15) 0.970(2)
F3_3 F 0.5347(6) 0.0465(13) 0.014(2)
S1_3 S 0.60120(10) 0.8889(3) 0.0293(3)
F2_3 F 0.5053(3) 0.8745(14) 0.0224(18)
O1_3 O 0.5980(5) 0.8960(9) 0.1846(9)
F1_3 F 0.5362(5) 0.9437(15) 0.8356(16)
O2_3 O 0.6318(4) 0.9600(13) 0.9529(19)
O3_3 O 0.6002(4) 0.7653(8) 0.9922(11)
C18_3 C 0.5387(6) 0.9317(15) 0.970(2)
S1_4 S 0.39880(10) 0.1111(3) 0.5293(3)
F1_4 F 0.4638(5) 0.0563(15) 0.3356(16)
F2_4 F 0.4947(3) 0.1255(14) 0.5224(18)
O1_4 O 0.4020(5) 0.1040(9) 0.6846(9)
O2_4 O 0.3682(4) 0.0400(13) 0.4529(19)
O3_4 O 0.3998(4) 0.2347(8) 0.4922(11)
C18_4 C 0.4613(6) 0.0683(15) 0.470(2)
F3_4 F 0.4653(6) 0.9535(13) 0.514(2)
loop_
_geom_bond_atom_site_label_1
_geom_bond_atom_site_label_2
_geom_bond_site_symmetry_1
_geom_bond_site_symmetry_2
Ag1 N2 1_555 1_555
N2 N3 1_555 1_555
N7 Ag1 1_555 1_555
N8 Ag1 1_555 1_555
N9 Ag1 1_555 1_555
N1 C2 1_555 1_555
N4 C6 1_555 1_555
N5 C10 1_555 1_555
N9 C16 1_555 1_555
C1 H1 1_555 1_555
C2 C1 1_555 1_555
H2 C2 1_555 1_555
C3 N1 1_555 1_555
H3 C3 1_555 1_555
C4 C3 1_555 1_555
H4 C4 1_555 1_555
C5 C1 1_555 1_555
C7 N4 1_555 1_555
C8 C7 1_555 1_555
C9 C8 1_555 1_555
H5 C9 1_555 1_555
C10 C9 1_555 1_555
H6 C10 1_555 1_555
C11 N5 1_555 1_555
C12 C8 1_555 1_555
H8 C12 1_555 1_555
C13 N4 1_555 1_555
C14 C13 1_555 1_555
H9 C14 1_555 1_555
C15 C14 1_555 1_555
C16 C15 1_555 1_555
H11 C16 1_555 1_555
C17 N9 1_555 1_555
H12 C17 1_555 1_555
Ag3 N1 1_555 1_555
C4 C5 1_555 1_555
C5 C6 1_555 1_555
C11 C12 1_555 1_555
C13 C17 1_555 1_555
Ag3 N2_2 1_555 1_555
N7 C2_2 1_555 1_555
N2_2 N3_2 1_555 1_555
N3_2 C7_2 1_555 1_555
N4_2 C6_2 1_555 1_555
N5_2 C10_2 1_555 1_555
C1_2 H1_2 1_555 1_555
C2_2 C1_2 1_555 1_555
H2_2 C2_2 1_555 1_555
C3_2 N7 1_555 1_555
H3_2 C3_2 1_555 1_555
C4_2 C3_2 1_555 1_555
H4_2 C4_2 1_555 1_555
C5_2 C1_2 1_555 1_555
C6_2 N2_2 1_555 1_555
C7_2 N4_2 1_555 1_555
C8_2 C7_2 1_555 1_555
C9_2 C8_2 1_555 1_555
H5_2 C9_2 1_555 1_555
C10_2 C9_2 1_555 1_555
H6_2 C10_2 1_555 1_555
C11_2 N5_2 1_555 1_555
C12_2 C8_2 1_555 1_555
H8_2 C12_2 1_555 1_555
C13_2 N4_2 1_555 1_555
C14_2 C13_2 1_555 1_555
H9_2 C14_2 1_555 1_555
H12_2 C17_2 1_555 1_555
N8_2 Ag3 1_555 1_555
N9_2 Ag3 1_555 1_555
C4_2 C5_2 1_555 1_555
C5_2 C6_2 1_555 1_555
C11_2 C12_2 1_555 1_555
C13_2 C17_2 1_555 1_555
N9_2 C16_2 1_555 1_555
C16_2 C15_2 1_555 1_555
H11_2 C16_2 1_555 1_555
C3_3 N1_2 1_555 1_555
H3_3 C3_3 1_555 1_555
Ag4 N2_3 1_555 1_555
N2_3 N3_3 1_555 1_555
N3_3 C7_3 1_555 1_555
N4_3 C6_3 1_555 1_555
N8 C10_3 1_555 1_555
H4_3 C4_3 1_555 1_555
C5_3 C1_3 1_555 1_555
C6_3 N2_3 1_555 1_555
C7_3 N4_3 1_555 1_555
C8_3 C7_3 1_555 1_555
C9_3 C8_3 1_555 1_555
H5_3 C9_3 1_555 1_555
C10_3 C9_3 1_555 1_555
H6_3 C10_3 1_555 1_555
C11_3 N8 1_555 1_555
H7_3 C11_3 1_555 1_555
C12_3 C8_3 1_555 1_555
H8_3 C12_3 1_555 1_555
C13_3 N4_3 1_555 1_555
C14_3 C13_3 1_555 1_555
H9_3 C14_3 1_555 1_555
H12_3 C17_3 1_555 1_555
N9_3 Ag4 1_555 1_555
C4_3 C5_3 1_555 1_555
C5_3 C6_3 1_555 1_555
C11_3 C12_3 1_555 1_555
C13_3 C17_3 1_555 1_555
N9_3 C16_3 1_555 1_555
H10_2 C15_3 1_555 1_555
C16_3 C15_3 1_555 1_555
H11_3 C16_3 1_555 1_555
Ag4_2 N2_4 1_555 1_555
N2_4 N3_4 1_555 1_555
N9_4 Ag4_2 1_555 1_555
N4_4 C6_4 1_555 1_555
N8_2 C10_4 1_555 1_555
N9_4 C16_4 1_555 1_555
H4_4 C4_4 1_555 1_555
C5_4 C1_4 1_555 1_555
C7_4 N4_4 1_555 1_555
C8_4 C7_4 1_555 1_555
C9_4 C8_4 1_555 1_555
H5_4 C9_4 1_555 1_555
C10_4 C9_4 1_555 1_555
H6_4 C10_4 1_555 1_555
C11_4 N8_2 1_555 1_555
H7_4 C11_4 1_555 1_555
C12_4 C8_4 1_555 1_555
H8_4 C12_4 1_555 1_555
C13_4 N4_4 1_555 1_555
C14_4 C13_4 1_555 1_555
H9_4 C14_4 1_555 1_555
C15_4 C14_4 1_555 1_555
H10_3 C15_4 1_555 1_555
C16_4 C15_4 1_555 1_555
H11_4 C16_4 1_555 1_555
C17_4 N9_4 1_555 1_555
H12_4 C17_4 1_555 1_555
C4_4 C5_4 1_555 1_555
C5_4 C6_4 1_555 1_555
C11_4 C12_4 1_555 1_555
C13_4 C17_4 1_555 1_555
C3_4 N7_2 1_555 1_555
H3_4 C3_4 1_555 1_555
S1 O1 1_555 1_555
F1 C18 1_555 1_555
F2 C18 1_555 1_555
F3 C18 1_555 1_555
O2 S1 1_555 1_555
O3 S1 1_555 1_555
C18 S1 1_555 1_555
S1_2 O1_2 1_555 1_555
F1_2 C18_2 1_555 1_555
S1_3 O1_3 1_555 1_555
F1_3 C18_3 1_555 1_555
S1_4 O1_4 1_555 1_555
F1_4 C18_4 1_555 1_555
F2_4 C18_4 1_555 1_555
O2_4 S1_4 1_555 1_555
O3_4 S1_4 1_555 1_555
C18_4 S1_4 1_555 1_555

#END
