
###############################################################################
#
# This file contains modified crystal structure data generated from the
# MOF subset of the Cambridge Structural Database (CSD) v543 
# hosted by the Cambridge Crystallographic Data Centre (CCDC).
#
# This work is licensed under the Creative Commons
# Attribution-NonCommercial-ShareAlike 4.0 International License.
# To view a copy of this license, visit
# http://creativecommons.org/licenses/by-nc-sa/4.0/
# or send a letter to
# Creative Commons, PO Box 1866, Mountain View, CA 94042, USA.
#
# CIF created using the CSD Python API on 29 September 2022
# The structure has been converted into the P1 space group
# The structure has a 3D framework
# The original CSD entry YIXJAT is in the orthorhombic crystal system
# The framework has been calculated to contain at least 10.0% void space
# The void calculation uses a probe of radius 1.32A, grid spacing 0.4
# The framework is charged, counterions have been retained in the structure
#
###############################################################################

data_YIXJAT
_chemical_formula_moiety         '(C72 H60 Ag2 N24 O12 S4 2-)n'
_symmetry_cell_setting           triclinic
_symmetry_space_group_name_H-M   'P 1'
_symmetry_Int_Tables_number      1
_space_group_name_Hall           'P 1'
loop_
_symmetry_equiv_pos_site_id
_symmetry_equiv_pos_as_xyz
1 x,y,z
_cell_length_a                   25.897(4)
_cell_length_b                   11.0500(18)
_cell_length_c                   8.8999(14)
_cell_angle_alpha                90
_cell_angle_beta                 90
_cell_angle_gamma                90
_cell_volume                     2546.81
loop_
_atom_site_label
_atom_site_type_symbol
_atom_site_fract_x
_atom_site_fract_y
_atom_site_fract_z
H1 H 0.5799 0.0267 0.2202
C3 C 0.5068(4) 0.0377(9) 0.2982(11)
H2 H 0.5038 0.1217 0.2774
Ag3 Ag 0.39443(2) 0.07973(5) 0.42004(10)
N7 N 0.5333(3) 0.0178(7) 0.8583(9)
N8 N 0.6822(3) 0.0253(8) 0.8757(9)
N1 N 0.4667(3) 0.9822(7) 0.3583(9)
N2 N 0.6285(3) 0.8134(7) 0.1247(10)
N3 N 0.6748(3) 0.7503(7) 0.1248(9)
N4 N 0.6359(3) 0.7279(7) 0.3424(9)
N5 N 0.8178(3) 0.5253(8) 0.3757(9)
N6 N 0.6110(3) 0.7541(8) 0.7468(9)
C1 C 0.5580(4) 0.8597(8) 0.2947(10)
C2 C 0.5524(4) 0.9822(9) 0.2642(10)
C4 C 0.4719(4) 0.8639(10) 0.3907(14)
H3 H 0.4439 0.8229 0.4376
C5 C 0.5162(3) 0.7998(9) 0.3585(11)
H4 H 0.5182 0.7157 0.3798
C6 C 0.6061(4) 0.8013(11) 0.2530(13)
C7 C 0.6782(4) 0.7005(8) 0.2554(10)
C8 C 0.7252(4) 0.6344(9) 0.3074(11)
C9 C 0.7390(4) 0.5296(10) 0.2346(12)
H5 H 0.7178 0.4950 0.1588
C10 C 0.7852(4) 0.4769(10) 0.2768(13)
H6 H 0.7942 0.4016 0.2326
C11 C 0.8045(4) 0.6299(11) 0.4438(14)
H7 H 0.8268 0.6652 0.5164
C12 C 0.7581(4) 0.6855(10) 0.4072(17)
H8 H 0.7493 0.7604 0.4529
C13 C 0.6259(4) 0.6920(9) 0.4946(11)
C14 C 0.6193(4) 0.7805(9) 0.6014(12)
H9 H 0.6206 0.8629 0.5715
C15 C 0.6097(4) 0.6372(9) 0.7846(11)
H10 H 0.6044 0.6171 0.8872
C16 C 0.6155(4) 0.5443(9) 0.6833(11)
H11 H 0.6137 0.4623 0.7151
C17 C 0.6240(4) 0.5730(10) 0.5340(13)
H12 H 0.6284 0.5113 0.4609
Ag2 Ag 0.60557(2) 0.92027(5) 0.92004(10)
Ag4 Ag 0.89443(2) 0.42027(5) 0.42004(10)
N6_2 N 0.3890(3) 0.2459(8) 0.2468(9)
H7_2 H 0.1732 0.3348 0.0164
C14_2 C 0.3807(4) 0.2195(9) 0.1014(12)
H9_2 H 0.3794 0.1371 0.0715
C15_2 C 0.3903(4) 0.3628(9) 0.2846(11)
H10_2 H 0.3956 0.3829 0.3872
C16_2 C 0.3845(4) 0.4557(9) 0.1833(11)
H11_2 H 0.3863 0.5377 0.2151
C17_2 C 0.3760(4) 0.4270(10) 0.0340(13)
N2_2 N 0.3715(3) 0.1866(7) 0.6247(10)
N3_2 N 0.3252(3) 0.2497(7) 0.6248(9)
N4_2 N 0.3641(3) 0.2721(7) 0.8424(9)
N5_2 N 0.1822(3) 0.4747(8) 0.8757(9)
C1_2 C 0.4420(4) 0.1403(8) 0.7947(10)
C2_2 C 0.4476(4) 0.0178(9) 0.7642(10)
C4_2 C 0.5281(4) 0.1361(10) 0.8907(14)
H3_2 H 0.5561 0.1771 0.9376
C5_2 C 0.4838(3) 0.2002(9) 0.8585(11)
H4_2 H 0.4818 0.2843 0.8798
C6_2 C 0.3939(4) 0.1987(11) 0.7530(13)
C7_2 C 0.3218(4) 0.2995(8) 0.7554(10)
C8_2 C 0.2748(4) 0.3656(9) 0.8074(11)
C9_2 C 0.2610(4) 0.4704(10) 0.7346(12)
H5_2 H 0.2822 0.5050 0.6588
C10_2 C 0.2148(4) 0.5231(10) 0.7768(13)
H6_2 H 0.2058 0.5984 0.7326
C11_2 C 0.1955(4) 0.3701(11) 0.9438(14)
C12_2 C 0.2419(4) 0.3145(10) 0.9072(17)
H8_2 H 0.2507 0.2396 0.9529
C13_2 C 0.3741(4) 0.3080(9) 0.9946(11)
H12_2 H 0.3716 0.4887 0.9609
Ag4_2 Ag 0.10557(2) 0.57973(5) 0.92004(10)
H1_2 H 0.4201 0.9733 0.7202
C3_2 C 0.4932(4) 0.9623(9) 0.7982(11)
H2_2 H 0.4962 0.8783 0.7774
N8_2 N 0.3178(3) 0.9747(8) 0.3757(9)
H5_3 H 0.2178 0.0050 0.1588
C10_3 C 0.2852(4) 0.0231(10) 0.2768(13)
H6_3 H 0.2942 0.0984 0.2326
H11_3 H 0.1137 0.0377 0.7151
N2_3 N 0.1285(3) 0.6866(7) 0.1247(10)
N3_3 N 0.1748(3) 0.7497(7) 0.1248(9)
N4_3 N 0.1359(3) 0.7721(7) 0.3424(9)
N6_3 N 0.1110(3) 0.7459(8) 0.7468(9)
C1_3 C 0.0580(4) 0.6403(8) 0.2947(10)
C2_3 C 0.0524(4) 0.5178(9) 0.2642(10)
H1_3 H 0.0799 0.4733 0.2202
C3_3 C 0.0068(4) 0.4623(9) 0.2982(11)
H2_3 H 0.0038 0.3783 0.2774
C5_3 C 0.0162(3) 0.7002(9) 0.3585(11)
H4_3 H 0.0182 0.7843 0.3798
C6_3 C 0.1061(4) 0.6987(11) 0.2530(13)
C7_3 C 0.1782(4) 0.7995(8) 0.2554(10)
C8_3 C 0.2252(4) 0.8656(9) 0.3074(11)
C9_3 C 0.2390(4) 0.9704(10) 0.2346(12)
C11_3 C 0.3045(4) 0.8701(11) 0.4438(14)
H7_3 H 0.3268 0.8348 0.5164
C12_3 C 0.2581(4) 0.8145(10) 0.4072(17)
H8_3 H 0.2493 0.7396 0.4529
C13_3 C 0.1259(4) 0.8080(9) 0.4946(11)
C14_3 C 0.1193(4) 0.7195(9) 0.6014(12)
H9_3 H 0.1206 0.6371 0.5715
C15_3 C 0.1097(4) 0.8628(9) 0.7846(11)
H10_3 H 0.1044 0.8829 0.8872
C16_3 C 0.1155(4) 0.9557(9) 0.6833(11)
C17_3 C 0.1240(4) 0.9270(10) 0.5340(13)
H12_3 H 0.1284 0.9887 0.4609
N7_2 N 0.0333(3) 0.4822(7) 0.8583(9)
N1_2 N 0.9667(3) 0.5178(7) 0.3583(9)
C4_3 C 0.9719(4) 0.6361(10) 0.3907(14)
H3_3 H 0.9439 0.6771 0.4376
C4_4 C 0.0281(4) 0.3639(10) 0.8907(14)
H3_4 H 0.0561 0.3229 0.9376
N6_4 N 0.8890(3) 0.2541(8) 0.2468(9)
H7_4 H 0.6732 0.1652 0.0164
C14_4 C 0.8807(4) 0.2805(9) 0.1014(12)
H9_4 H 0.8794 0.3629 0.0715
C15_4 C 0.8903(4) 0.1372(9) 0.2846(11)
H10_4 H 0.8956 0.1171 0.3872
C16_4 C 0.8845(4) 0.0443(9) 0.1833(11)
C17_4 C 0.8760(4) 0.0730(10) 0.0340(13)
N2_4 N 0.8715(3) 0.3134(7) 0.6247(10)
N3_4 N 0.8252(3) 0.2503(7) 0.6248(9)
N4_4 N 0.8641(3) 0.2279(7) 0.8424(9)
C1_4 C 0.9420(4) 0.3597(8) 0.7947(10)
C2_4 C 0.9476(4) 0.4822(9) 0.7642(10)
H1_4 H 0.9201 0.5267 0.7202
C3_4 C 0.9932(4) 0.5377(9) 0.7982(11)
H2_4 H 0.9962 0.6217 0.7774
C5_4 C 0.9838(3) 0.2998(9) 0.8585(11)
H4_4 H 0.9818 0.2157 0.8798
C6_4 C 0.8939(4) 0.3013(11) 0.7530(13)
C7_4 C 0.8218(4) 0.2005(8) 0.7554(10)
C8_4 C 0.7748(4) 0.1344(9) 0.8074(11)
C9_4 C 0.7610(4) 0.0296(10) 0.7346(12)
C11_4 C 0.6955(4) 0.1299(11) 0.9438(14)
C12_4 C 0.7419(4) 0.1855(10) 0.9072(17)
H8_4 H 0.7507 0.2604 0.9529
C13_4 C 0.8741(4) 0.1920(9) 0.9946(11)
H12_4 H 0.8716 0.0113 0.9609
H5_4 H 0.7822 0.9950 0.6588
C10_4 C 0.7148(4) 0.9769(10) 0.7768(13)
H6_4 H 0.7058 0.9016 0.7326
H11_4 H 0.8863 0.9623 0.2151
S1 S 0.58635(12) 0.3818(3) 0.1314(3)
O1 O 0.6214(4) 0.4649(8) 0.1938(11)
O2 O 0.5970(4) 0.2564(9) 0.1708(11)
C18 C 0.5271(8) 0.4139(17) 0.215(3)
H13 H 0.5307 0.4103 0.3249
H14 H 0.5014 0.3543 0.1827
H15 H 0.5158 0.4951 0.1858
O3 O 0.5794(4) 0.3922(9) 0.9704(11)
S1_2 S 0.41365(12) 0.6182(3) 0.6314(3)
O1_2 O 0.3786(4) 0.5351(8) 0.6938(11)
O2_2 O 0.4030(4) 0.7436(9) 0.6708(11)
O3_2 O 0.4206(4) 0.6078(9) 0.4704(11)
C18_2 C 0.4729(8) 0.5861(17) 0.715(3)
H13_2 H 0.4693 0.5897 0.8249
H14_2 H 0.4986 0.6457 0.6827
H15_2 H 0.4842 0.5049 0.6858
S1_3 S 0.08635(12) 0.1182(3) 0.1314(3)
O1_3 O 0.1214(4) 0.0351(8) 0.1938(11)
O2_3 O 0.0970(4) 0.2436(9) 0.1708(11)
C18_3 C 0.0271(8) 0.0861(17) 0.215(3)
H13_3 H 0.0307 0.0897 0.3249
H14_3 H 0.0014 0.1457 0.1827
H15_3 H 0.0158 0.0049 0.1858
O3_3 O 0.0794(4) 0.1078(9) 0.9704(11)
S1_4 S 0.91365(12) 0.8818(3) 0.6314(3)
O1_4 O 0.8786(4) 0.9649(8) 0.6938(11)
O2_4 O 0.9030(4) 0.7564(9) 0.6708(11)
O3_4 O 0.9206(4) 0.8922(9) 0.4704(11)
C18_4 C 0.9729(8) 0.9139(17) 0.715(3)
H13_4 H 0.9693 0.9103 0.8249
H14_4 H 0.9986 0.8543 0.6827
H15_4 H 0.9842 0.9951 0.6858
loop_
_geom_bond_atom_site_label_1
_geom_bond_atom_site_label_2
_geom_bond_site_symmetry_1
_geom_bond_site_symmetry_2
H2 C3 1_555 1_555
N2 N3 1_555 1_555
N3 C7 1_555 1_555
N4 C6 1_555 1_555
N5 C10 1_555 1_555
N6 C14 1_555 1_555
C1 C2 1_555 1_555
C4 N1 1_555 1_555
H3 C4 1_555 1_555
C5 C1 1_555 1_555
H4 C5 1_555 1_555
C6 N2 1_555 1_555
C7 N4 1_555 1_555
C8 C7 1_555 1_555
C9 C8 1_555 1_555
H5 C9 1_555 1_555
C10 C9 1_555 1_555
H6 C10 1_555 1_555
C11 N5 1_555 1_555
H7 C11 1_555 1_555
C12 C8 1_555 1_555
H8 C12 1_555 1_555
C13 N4 1_555 1_555
C14 C13 1_555 1_555
H9 C14 1_555 1_555
C15 N6 1_555 1_555
H10 C15 1_555 1_555
C16 C15 1_555 1_555
H11 C16 1_555 1_555
C17 C13 1_555 1_555
H12 C17 1_555 1_555
Ag2 N6 1_555 1_555
Ag4 N5 1_555 1_555
C1 C6 1_555 1_555
C4 C5 1_555 1_555
C11 C12 1_555 1_555
C16 C17 1_555 1_555
N6_2 C14_2 1_555 1_555
H9_2 C14_2 1_555 1_555
C15_2 N6_2 1_555 1_555
H10_2 C15_2 1_555 1_555
C16_2 C15_2 1_555 1_555
H11_2 C16_2 1_555 1_555
Ag3 N6_2 1_555 1_555
C16_2 C17_2 1_555 1_555
Ag3 N2_2 1_555 1_555
N2_2 N3_2 1_555 1_555
N3_2 C7_2 1_555 1_555
N4_2 C6_2 1_555 1_555
N5_2 C10_2 1_555 1_555
C1_2 C2_2 1_555 1_555
C4_2 N7 1_555 1_555
H3_2 C4_2 1_555 1_555
C5_2 C1_2 1_555 1_555
H4_2 C5_2 1_555 1_555
C6_2 N2_2 1_555 1_555
C7_2 N4_2 1_555 1_555
C8_2 C7_2 1_555 1_555
C9_2 C8_2 1_555 1_555
H5_2 C9_2 1_555 1_555
C10_2 C9_2 1_555 1_555
H6_2 C10_2 1_555 1_555
C11_2 N5_2 1_555 1_555
C12_2 C8_2 1_555 1_555
H8_2 C12_2 1_555 1_555
C13_2 N4_2 1_555 1_555
Ag4_2 N5_2 1_555 1_555
C1_2 C6_2 1_555 1_555
C4_2 C5_2 1_555 1_555
C11_2 C12_2 1_555 1_555
H2_2 C3_2 1_555 1_555
H6_3 C10_3 1_555 1_555
N2_3 N3_3 1_555 1_555
N3_3 C7_3 1_555 1_555
N4_3 C6_3 1_555 1_555
N6_3 C14_3 1_555 1_555
C1_3 C2_3 1_555 1_555
C2_3 H1_3 1_555 1_555
C3_3 C2_3 1_555 1_555
H2_3 C3_3 1_555 1_555
C5_3 C1_3 1_555 1_555
H4_3 C5_3 1_555 1_555
C6_3 N2_3 1_555 1_555
C7_3 N4_3 1_555 1_555
C8_3 C7_3 1_555 1_555
C9_3 C8_3 1_555 1_555
C11_3 N8_2 1_555 1_555
H7_3 C11_3 1_555 1_555
C12_3 C8_3 1_555 1_555
H8_3 C12_3 1_555 1_555
C13_3 N4_3 1_555 1_555
C14_3 C13_3 1_555 1_555
H9_3 C14_3 1_555 1_555
C15_3 N6_3 1_555 1_555
H10_3 C15_3 1_555 1_555
C16_3 C15_3 1_555 1_555
C17_3 C13_3 1_555 1_555
H12_3 C17_3 1_555 1_555
Ag4_2 N6_3 1_555 1_555
C1_3 C6_3 1_555 1_555
C11_3 C12_3 1_555 1_555
C16_3 C17_3 1_555 1_555
N7_2 Ag4_2 1_555 1_555
C4_3 N1_2 1_555 1_555
H3_3 C4_3 1_555 1_555
Ag4 N1_2 1_555 1_555
C4_4 N7_2 1_555 1_555
H3_4 C4_4 1_555 1_555
N6_4 C14_4 1_555 1_555
H9_4 C14_4 1_555 1_555
C15_4 N6_4 1_555 1_555
H10_4 C15_4 1_555 1_555
C16_4 C15_4 1_555 1_555
Ag4 N6_4 1_555 1_555
C16_4 C17_4 1_555 1_555
Ag4 N2_4 1_555 1_555
N2_4 N3_4 1_555 1_555
N3_4 C7_4 1_555 1_555
N4_4 C6_4 1_555 1_555
C1_4 C2_4 1_555 1_555
C2_4 H1_4 1_555 1_555
C3_4 C2_4 1_555 1_555
H2_4 C3_4 1_555 1_555
C5_4 C1_4 1_555 1_555
H4_4 C5_4 1_555 1_555
C6_4 N2_4 1_555 1_555
C7_4 N4_4 1_555 1_555
C8_4 C7_4 1_555 1_555
C9_4 C8_4 1_555 1_555
C11_4 N8 1_555 1_555
C12_4 C8_4 1_555 1_555
H8_4 C12_4 1_555 1_555
C13_4 N4_4 1_555 1_555
C1_4 C6_4 1_555 1_555
C11_4 C12_4 1_555 1_555
H6_4 C10_4 1_555 1_555
S1 O1 1_555 1_555
O2 S1 1_555 1_555
C18 S1 1_555 1_555
H13 C18 1_555 1_555
H14 C18 1_555 1_555
H15 C18 1_555 1_555
S1_2 O1_2 1_555 1_555
O2_2 S1_2 1_555 1_555
O3_2 S1_2 1_555 1_555
C18_2 S1_2 1_555 1_555
H13_2 C18_2 1_555 1_555
H14_2 C18_2 1_555 1_555
H15_2 C18_2 1_555 1_555
S1_3 O1_3 1_555 1_555
O2_3 S1_3 1_555 1_555
C18_3 S1_3 1_555 1_555
H13_3 C18_3 1_555 1_555
H14_3 C18_3 1_555 1_555
H15_3 C18_3 1_555 1_555
S1_4 O1_4 1_555 1_555
O2_4 S1_4 1_555 1_555
O3_4 S1_4 1_555 1_555
C18_4 S1_4 1_555 1_555
H13_4 C18_4 1_555 1_555
H14_4 C18_4 1_555 1_555
H15_4 C18_4 1_555 1_555

#END
