
###############################################################################
#
# This file contains modified crystal structure data generated from the
# MOF subset of the Cambridge Structural Database (CSD) v543 
# hosted by the Cambridge Crystallographic Data Centre (CCDC).
#
# This work is licensed under the Creative Commons
# Attribution-NonCommercial-ShareAlike 4.0 International License.
# To view a copy of this license, visit
# http://creativecommons.org/licenses/by-nc-sa/4.0/
# or send a letter to
# Creative Commons, PO Box 1866, Mountain View, CA 94042, USA.
#
# CIF created using the CSD Python API on 29 September 2022
# The structure has been converted into the P1 space group
# The structure has a 3D framework
# The original CSD entry YIXZAI is in the tetragonal crystal system
# The framework has been calculated to contain at least 10.0% void space
# The void calculation uses a probe of radius 1.32A, grid spacing 0.4
#
###############################################################################

data_YIXZAI
_chemical_formula_moiety         '(C72 H52 Cd6 N24 O20)n'
_symmetry_cell_setting           triclinic
_symmetry_space_group_name_H-M   'P 1'
_symmetry_Int_Tables_number      1
_space_group_name_Hall           'P 1'
loop_
_symmetry_equiv_pos_site_id
_symmetry_equiv_pos_as_xyz
1 x,y,z
_cell_length_a                   20.8164(13)
_cell_length_b                   20.8164(13)
_cell_length_c                   5.8701(4)
_cell_angle_alpha                90
_cell_angle_beta                 90
_cell_angle_gamma                90
_cell_volume                     2543.65
loop_
_atom_site_label
_atom_site_type_symbol
_atom_site_fract_x
_atom_site_fract_y
_atom_site_fract_z
Cd1 Cd 0.268443(14) 0.670339(14) 0.03871(6)
O3 O 0.18788(13) 0.73321(13) 0.1640(5)
H1 H 0.158(2) 0.717(2) 0.088(10)
C4 C 0.0090(2) 0.4255(2) 0.3568(5)
C5 C 0.0603(2) 0.4637(2) 0.2881(5)
H4 H 0.0789 0.4924 0.3899
C6 C 0.08385(16) 0.45885(17) 0.0671(6)
C9 C 0.1574(2) 0.5528(2) 0.0935(9)
H7 H 0.1450 0.5678 0.2360
Cd2 Cd 0.231557(14) 0.829661(14) 0.03871(6)
Cd3 Cd 0.170339(14) 0.731557(14) 0.53871(6)
O4 O 0.29904(15) 0.59574(14) 0.3429(5)
O5 O 0.35617(17) 0.59994(17) 0.0278(6)
O6 O 0.31212(13) 0.76679(13) 0.1640(5)
N1 N 0.13348(19) 0.50081(18) 0.9931(7)
N2 N 0.1611(2) 0.4934(2) 0.7828(8)
N3 N 0.20113(18) 0.58004(18) 0.9633(7)
C2 C 0.0048(2) 0.3778(2) 0.9836(5)
C7 C 0.0561(2) 0.4159(2) 0.9149(5)
H5 H 0.0718 0.4127 0.7671
C8 C 0.2016(2) 0.5423(2) 0.7746(10)
H6 H 0.2281 0.5502 0.6502
O7 O 0.26679(13) 0.68788(13) 0.6640(5)
O1 O 0.90426(14) 0.29904(15) 0.1571(5)
O2 O 0.90006(17) 0.35617(17) 0.4722(6)
C1 C 0.9248(2) 0.3433(2) 0.2816(9)
C3 C 0.98130(15) 0.38258(16) 0.2045(5)
H3 H 0.9933 0.4288 0.5046
Cd4 Cd 0.829661(14) 0.268443(14) 0.46129(6)
O1_2 O 0.59574(14) 0.20096(15) 0.1571(5)
O2_2 O 0.59994(17) 0.14383(17) 0.4722(6)
C1_2 C 0.5752(2) 0.1567(2) 0.2816(9)
C3_2 C 0.51870(15) 0.11742(16) 0.2045(5)
C4_2 C 0.4910(2) 0.0745(2) 0.3568(5)
H3_2 H 0.5067 0.0712 0.5046
C5_2 C 0.4397(2) 0.0363(2) 0.2881(5)
H4_2 H 0.4211 0.0076 0.3899
C6_2 C 0.41615(16) 0.04115(17) 0.0671(6)
Cd4_2 Cd 0.670339(14) 0.231557(14) 0.46129(6)
H1_2 H 0.342(2) 0.783(2) 0.088(10)
C9_2 C 0.3426(2) 0.9472(2) 0.0935(9)
H7_2 H 0.3550 0.9322 0.2360
Cd3_2 Cd 0.329661(14) 0.768443(14) 0.53871(6)
O4_2 O 0.20096(15) 0.90426(14) 0.3429(5)
O5_2 O 0.14383(17) 0.90006(17) 0.0278(6)
N1_2 N 0.36652(19) 0.99919(18) 0.9931(7)
N3_2 N 0.29887(18) 0.91996(18) 0.9633(7)
C8_2 C 0.2984(2) 0.9577(2) 0.7746(10)
H6_2 H 0.2719 0.9498 0.6502
O7_2 O 0.23321(13) 0.81212(13) 0.6640(5)
H3_3 H 0.5712 0.4933 0.0046
O1_3 O 0.70096(15) 0.40426(14) 0.6571(5)
O2_3 O 0.64383(17) 0.40006(17) 0.9722(6)
H1_3 H 0.283(2) 0.658(2) 0.588(10)
N1_3 N 0.49919(18) 0.63348(19) 0.4931(7)
N2_2 N 0.5066(2) 0.6611(2) 0.2828(8)
N3_3 N 0.41996(18) 0.70113(18) 0.4633(7)
C1_3 C 0.6567(2) 0.4248(2) 0.7816(9)
C2_2 C 0.6222(2) 0.5048(2) 0.4836(5)
H2 H 0.6510 0.4863 0.3817
C3_3 C 0.61742(16) 0.48130(15) 0.7045(5)
C4_3 C 0.5745(2) 0.5090(2) 0.8568(5)
C5_3 C 0.5363(2) 0.5603(2) 0.7881(5)
H4_3 H 0.5076 0.5789 0.8899
C6_3 C 0.54115(17) 0.58385(16) 0.5671(6)
C7_2 C 0.5841(2) 0.5561(2) 0.4149(5)
H5_2 H 0.5873 0.5718 0.2671
C8_3 C 0.4577(2) 0.7016(2) 0.2746(10)
H6_3 H 0.4498 0.7281 0.1502
C9_3 C 0.4472(2) 0.6574(2) 0.5935(9)
H7_3 H 0.4322 0.6450 0.7360
Cd4_3 Cd 0.731557(14) 0.329661(14) 0.96129(6)
O4_3 O 0.40426(14) 0.79904(15) 0.8429(5)
O5_3 O 0.40006(17) 0.85617(17) 0.5278(6)
H1_4 H 0.217(2) 0.842(2) 0.588(10)
N1_4 N 0.00081(18) 0.86652(19) 0.4931(7)
N3_4 N 0.08004(18) 0.79887(18) 0.4633(7)
C8_4 C 0.0423(2) 0.7984(2) 0.2746(10)
H6_4 H 0.0502 0.7719 0.1502
C9_4 C 0.0528(2) 0.8426(2) 0.5935(9)
H7_4 H 0.0678 0.8550 0.7360
O4_4 O 0.09574(14) 0.70096(15) 0.8429(5)
O5_4 O 0.09994(17) 0.64383(17) 0.5278(6)
O1_4 O 0.79904(15) 0.09574(14) 0.6571(5)
O2_4 O 0.85617(17) 0.09994(17) 0.9722(6)
C1_4 C 0.8433(2) 0.0752(2) 0.7816(9)
H2_2 H 0.8490 0.0137 0.3817
C3_4 C 0.88258(16) 0.01870(15) 0.7045(5)
Cd4_4 Cd 0.768443(14) 0.170339(14) 0.96129(6)
C1_5 C 0.0752(2) 0.6567(2) 0.7184(9)
C3_5 C 0.01870(15) 0.61742(16) 0.7955(5)
H3_4 H 0.0067 0.5712 0.4954
N1_5 N 0.86652(19) 0.49919(18) 0.0069(7)
N2_3 N 0.8389(2) 0.5066(2) 0.2172(8)
N3_5 N 0.79887(18) 0.41996(18) 0.0367(7)
C2_3 C 0.9952(2) 0.6222(2) 0.0164(5)
C7_3 C 0.9439(2) 0.5841(2) 0.0851(5)
H5_3 H 0.9282 0.5873 0.2329
C8_5 C 0.7984(2) 0.4577(2) 0.2254(10)
H6_5 H 0.7719 0.4498 0.3498
O7_3 O 0.73321(13) 0.31212(13) 0.3360(5)
O3_2 O 0.81212(13) 0.26679(13) 0.8360(5)
H1_5 H 0.842(2) 0.283(2) 0.912(10)
C4_4 C 0.9910(2) 0.5745(2) 0.6432(5)
C5_4 C 0.9397(2) 0.5363(2) 0.7119(5)
H4_4 H 0.9211 0.5076 0.6101
C6_4 C 0.91615(16) 0.54115(17) 0.9329(6)
C9_5 C 0.8426(2) 0.4472(2) 0.9065(9)
H7_5 H 0.8550 0.4322 0.7640
O6_2 O 0.68788(13) 0.23321(13) 0.8360(5)
N1_6 N 0.63348(19) 0.00081(18) 0.0069(7)
N3_6 N 0.70113(18) 0.08004(18) 0.0367(7)
C8_6 C 0.7016(2) 0.0423(2) 0.2254(10)
H6_6 H 0.7281 0.0502 0.3498
O7_4 O 0.76679(13) 0.18788(13) 0.3360(5)
H1_6 H 0.658(2) 0.217(2) 0.912(10)
C9_6 C 0.6574(2) 0.0528(2) 0.9065(9)
H7_6 H 0.6450 0.0678 0.7640
C1_6 C 0.4248(2) 0.8433(2) 0.7184(9)
C3_6 C 0.48130(15) 0.88258(16) 0.7955(5)
C4_5 C 0.5090(2) 0.9255(2) 0.6432(5)
H3_5 H 0.4933 0.9288 0.4954
C5_5 C 0.5603(2) 0.9637(2) 0.7119(5)
H4_5 H 0.5789 0.9924 0.6101
C6_5 C 0.58385(16) 0.95885(17) 0.9329(6)
H1_7 H 0.717(2) 0.342(2) 0.412(10)
N1_7 N 0.50081(18) 0.36652(19) 0.5069(7)
N2_4 N 0.4934(2) 0.3389(2) 0.7172(8)
N3_7 N 0.58004(18) 0.29887(18) 0.5367(7)
C1_7 C 0.3433(2) 0.5752(2) 0.2184(9)
C2_4 C 0.3778(2) 0.4952(2) 0.5164(5)
H2_3 H 0.3490 0.5137 0.6183
C3_7 C 0.38258(16) 0.51870(15) 0.2955(5)
C4_6 C 0.4255(2) 0.4910(2) 0.1432(5)
C5_6 C 0.4637(2) 0.4397(2) 0.2119(5)
H4_6 H 0.4924 0.4211 0.1101
C6_6 C 0.45885(17) 0.41615(16) 0.4329(6)
C7_4 C 0.4159(2) 0.4439(2) 0.5851(5)
H5_4 H 0.4127 0.4282 0.7329
C8_7 C 0.5423(2) 0.2984(2) 0.7254(10)
H6_7 H 0.5502 0.2719 0.8498
C9_7 C 0.5528(2) 0.3426(2) 0.4065(9)
H7_7 H 0.5678 0.3550 0.2640
H3_6 H 0.4288 0.5067 0.9954
C1_8 C 0.1567(2) 0.9248(2) 0.2184(9)
H2_4 H 0.1510 0.9863 0.6183
C3_8 C 0.11742(16) 0.98130(15) 0.2955(5)
H1_8 H 0.783(2) 0.158(2) 0.412(10)
N1_8 N 0.99919(18) 0.13348(19) 0.5069(7)
N3_8 N 0.91996(18) 0.20113(18) 0.5367(7)
C8_8 C 0.9577(2) 0.2016(2) 0.7254(10)
H6_8 H 0.9498 0.2281 0.8498
C9_8 C 0.9472(2) 0.1574(2) 0.4065(9)
H7_8 H 0.9322 0.1450 0.2640
H2_5 H 0.9863 0.3490 0.8817
N2_5 N 0.3389(2) 0.0066(2) 0.7828(8)
C2_5 C 0.4952(2) 0.1222(2) 0.9836(5)
H2_6 H 0.5137 0.1510 0.8817
C7_5 C 0.4439(2) 0.0841(2) 0.9149(5)
H5_5 H 0.4282 0.0873 0.7671
H3_7 H 0.9288 0.0067 0.0046
N2_6 N 0.9934(2) 0.8389(2) 0.2828(8)
C2_6 C 0.8778(2) 0.9952(2) 0.4836(5)
C4_7 C 0.9255(2) 0.9910(2) 0.8568(5)
C5_7 C 0.9637(2) 0.9397(2) 0.7881(5)
H4_7 H 0.9924 0.9211 0.8899
C6_7 C 0.95885(17) 0.91615(16) 0.5671(6)
C7_6 C 0.9159(2) 0.9439(2) 0.4149(5)
H5_6 H 0.9127 0.9282 0.2671
H2_7 H 0.0137 0.6510 0.1183
N2_7 N 0.6611(2) 0.9934(2) 0.2172(8)
C2_7 C 0.5048(2) 0.8778(2) 0.0164(5)
H2_8 H 0.4863 0.8490 0.1183
C7_7 C 0.5561(2) 0.9159(2) 0.0851(5)
H5_7 H 0.5718 0.9127 0.2329
N2_8 N 0.0066(2) 0.1611(2) 0.7172(8)
C2_8 C 0.1222(2) 0.0048(2) 0.5164(5)
C4_8 C 0.0745(2) 0.0090(2) 0.1432(5)
C5_8 C 0.0363(2) 0.0603(2) 0.2119(5)
H4_8 H 0.0076 0.0789 0.1101
C6_8 C 0.04115(17) 0.08385(16) 0.4329(6)
C7_8 C 0.0841(2) 0.0561(2) 0.5851(5)
H5_8 H 0.0873 0.0718 0.7329
H3_8 H 0.0712 0.9933 0.9954
loop_
_geom_bond_atom_site_label_1
_geom_bond_atom_site_label_2
_geom_bond_site_symmetry_1
_geom_bond_site_symmetry_2
Cd1 O3 1_555 1_555
O3 H1 1_555 1_555
C5 C4 1_555 1_555
H4 C5 1_555 1_555
H7 C9 1_555 1_555
Cd2 O3 1_555 1_555
Cd3 O3 1_555 1_555
O4 Cd1 1_555 1_555
O5 Cd1 1_555 1_555
O6 Cd1 1_555 1_555
C5 C6 1_555 1_555
Cd2 O6 1_555 1_555
N1 N2 1_555 1_555
N2 C8 1_555 1_555
C7 C2 1_555 1_555
H5 C7 1_555 1_555
C8 N3 1_555 1_555
H6 C8 1_555 1_555
O1 C1 1_555 1_555
O2 C1 1_555 1_555
C1 C3 1_555 1_555
Cd4 O1 1_555 1_555
O2 Cd4 1_555 1_555
O1_2 C1_2 1_555 1_555
O2_2 C1_2 1_555 1_555
C1_2 C3_2 1_555 1_555
C4_2 C3_2 1_555 1_555
H3_2 C4_2 1_555 1_555
C5_2 C4_2 1_555 1_555
H4_2 C5_2 1_555 1_555
Cd4_2 O1_2 1_555 1_555
O2_2 Cd4_2 1_555 1_555
C5_2 C6_2 1_555 1_555
O6 H1_2 1_555 1_555
H7_2 C9_2 1_555 1_555
Cd3_2 O6 1_555 1_555
O4_2 Cd2 1_555 1_555
O5_2 Cd2 1_555 1_555
C8_2 N3_2 1_555 1_555
H6_2 C8_2 1_555 1_555
Cd3_2 O7 1_555 1_555
O1_3 C1_3 1_555 1_555
O2_3 C1_3 1_555 1_555
O7 H1_3 1_555 1_555
N1_3 N2_2 1_555 1_555
N2_2 C8_3 1_555 1_555
N3_3 Cd3_2 1_555 1_555
C1_3 C3_3 1_555 1_555
C2_2 H2 1_555 1_555
C3_3 C2_2 1_555 1_555
C4_3 C3_3 1_555 1_555
C5_3 C4_3 1_555 1_555
H4_3 C5_3 1_555 1_555
C6_3 N1_3 1_555 1_555
C7_2 C2_2 1_555 1_555
H5_2 C7_2 1_555 1_555
C8_3 N3_3 1_555 1_555
H6_3 C8_3 1_555 1_555
C9_3 N1_3 1_555 1_555
H7_3 C9_3 1_555 1_555
Cd3 O7 1_555 1_555
Cd4_3 O1_3 1_555 1_555
O4_3 Cd3_2 1_555 1_555
O5_3 Cd3_2 1_555 1_555
O7_2 Cd3_2 1_555 1_555
O2_3 Cd4_3 1_555 1_555
N3_3 C9_3 1_555 1_555
C5_3 C6_3 1_555 1_555
C6_3 C7_2 1_555 1_555
Cd3 O7_2 1_555 1_555
O7_2 H1_4 1_555 1_555
N3_4 Cd3 1_555 1_555
C8_4 N3_4 1_555 1_555
H6_4 C8_4 1_555 1_555
C9_4 N1_4 1_555 1_555
H7_4 C9_4 1_555 1_555
O4_4 Cd3 1_555 1_555
O5_4 Cd3 1_555 1_555
N3_4 C9_4 1_555 1_555
O1_4 C1_4 1_555 1_555
O2_4 C1_4 1_555 1_555
C1_4 C3_4 1_555 1_555
Cd4_4 O1_4 1_555 1_555
O2_4 Cd4_4 1_555 1_555
O4_4 C1_5 1_555 1_555
O5_4 C1_5 1_555 1_555
C1_5 C3_5 1_555 1_555
N1_5 N2_3 1_555 1_555
N2_3 C8_5 1_555 1_555
C7_3 C2_3 1_555 1_555
H5_3 C7_3 1_555 1_555
C8_5 N3_5 1_555 1_555
H6_5 C8_5 1_555 1_555
Cd4_3 O3_2 1_555 1_555
O3_2 H1_5 1_555 1_555
C5_4 C4_4 1_555 1_555
H4_4 C5_4 1_555 1_555
H7_5 C9_5 1_555 1_555
Cd4_4 O3_2 1_555 1_555
Cd4 O3_2 1_555 1_555
O6_2 Cd4_3 1_555 1_555
C5_4 C6_4 1_555 1_555
Cd4_4 O6_2 1_555 1_555
C8_6 N3_6 1_555 1_555
H6_6 C8_6 1_555 1_555
O6_2 H1_6 1_555 1_555
H7_6 C9_6 1_555 1_555
Cd4_2 O6_2 1_555 1_555
O4_3 C1_6 1_555 1_555
O5_3 C1_6 1_555 1_555
C1_6 C3_6 1_555 1_555
C4_5 C3_6 1_555 1_555
H3_5 C4_5 1_555 1_555
C5_5 C4_5 1_555 1_555
H4_5 C5_5 1_555 1_555
C5_5 C6_5 1_555 1_555
Cd4_2 O7_3 1_555 1_555
O4 C1_7 1_555 1_555
O5 C1_7 1_555 1_555
O7_3 H1_7 1_555 1_555
N1_7 N2_4 1_555 1_555
N2_4 C8_7 1_555 1_555
N3_7 Cd4_2 1_555 1_555
C1_7 C3_7 1_555 1_555
C2_4 H2_3 1_555 1_555
C3_7 C2_4 1_555 1_555
C4_6 C3_7 1_555 1_555
C5_6 C4_6 1_555 1_555
H4_6 C5_6 1_555 1_555
C6_6 N1_7 1_555 1_555
C7_4 C2_4 1_555 1_555
H5_4 C7_4 1_555 1_555
C8_7 N3_7 1_555 1_555
H6_7 C8_7 1_555 1_555
C9_7 N1_7 1_555 1_555
H7_7 C9_7 1_555 1_555
Cd4 O7_3 1_555 1_555
O7_4 Cd4_2 1_555 1_555
N3_7 C9_7 1_555 1_555
C5_6 C6_6 1_555 1_555
C6_6 C7_4 1_555 1_555
Cd4 O7_4 1_555 1_555
O4_2 C1_8 1_555 1_555
O5_2 C1_8 1_555 1_555
C1_8 C3_8 1_555 1_555
O7_4 H1_8 1_555 1_555
N3_8 Cd4 1_555 1_555
C8_8 N3_8 1_555 1_555
H6_8 C8_8 1_555 1_555
C9_8 N1_8 1_555 1_555
H7_8 C9_8 1_555 1_555
N3_8 C9_8 1_555 1_555
C2_5 H2_6 1_555 1_555
C7_5 C2_5 1_555 1_555
H5_5 C7_5 1_555 1_555
C5_7 C4_7 1_555 1_555
H4_7 C5_7 1_555 1_555
C7_6 C2_6 1_555 1_555
H5_6 C7_6 1_555 1_555
C5_7 C6_7 1_555 1_555
C6_7 C7_6 1_555 1_555
C2_7 H2_8 1_555 1_555
C7_7 C2_7 1_555 1_555
H5_7 C7_7 1_555 1_555
C5_8 C4_8 1_555 1_555
H4_8 C5_8 1_555 1_555
C7_8 C2_8 1_555 1_555
H5_8 C7_8 1_555 1_555
C5_8 C6_8 1_555 1_555
C6_8 C7_8 1_555 1_555

#END
