
###############################################################################
#
# This file contains modified crystal structure data generated from the
# MOF subset of the Cambridge Structural Database (CSD) v543 
# hosted by the Cambridge Crystallographic Data Centre (CCDC).
#
# This work is licensed under the Creative Commons
# Attribution-NonCommercial-ShareAlike 4.0 International License.
# To view a copy of this license, visit
# http://creativecommons.org/licenses/by-nc-sa/4.0/
# or send a letter to
# Creative Commons, PO Box 1866, Mountain View, CA 94042, USA.
#
# CIF created using the CSD Python API on 29 September 2022
# The structure has been converted into the P1 space group
# The structure has a 3D framework
# The original CSD entry YIZCER is in the monoclinic crystal system
# The framework has been calculated to contain at least 10.0% void space
# The void calculation uses a probe of radius 1.32A, grid spacing 0.4
#
###############################################################################

data_YIZCER
_chemical_formula_moiety         '(C72 H44 Co4 N8 O16)n'
_symmetry_cell_setting           triclinic
_symmetry_space_group_name_H-M   'P 1'
_symmetry_Int_Tables_number      1
_space_group_name_Hall           'P 1'
loop_
_symmetry_equiv_pos_site_id
_symmetry_equiv_pos_as_xyz
1 x,y,z
_cell_length_a                   11.3988(2)
_cell_length_b                   17.3695(2)
_cell_length_c                   13.24337(19)
_cell_angle_alpha                90
_cell_angle_beta                 92.4376(15)
_cell_angle_gamma                90
_cell_volume                     2619.7
loop_
_atom_site_label
_atom_site_type_symbol
_atom_site_fract_x
_atom_site_fract_y
_atom_site_fract_z
N2 N 0.3414(3) 0.6109(2) 0.4612(3)
C12 C 0.0947(5) 0.6090(4) 0.4608(4)
C13 C 0.1637(5) 0.6237(4) 0.5473(4)
H6 H 0.1284 0.6323 0.6084
C14 C 0.2838(5) 0.6259(4) 0.5436(4)
H7 H 0.3272 0.6385 0.6024
C15 C 0.2753(5) 0.5961(4) 0.3780(4)
H8 H 0.3129 0.5867 0.3183
C16 C 0.1537(5) 0.5940(4) 0.3754(4)
H9 H 0.1122 0.5823 0.3153
Co4 Co 0.52981(5) 0.61206(3) 0.46144(4)
O1 O 0.4590(3) 0.42334(17) 0.3945(2)
O2 O 0.5266(3) 0.53733(16) 0.3452(2)
O4 O 0.4723(3) 0.20646(16) 0.1465(2)
N1 N 0.7180(3) 0.60959(19) 0.4629(3)
C1 C 0.4920(4) 0.4697(2) 0.3288(3)
C2 C 0.4885(4) 0.4427(2) 0.2214(3)
C3 C 0.4772(4) 0.3645(2) 0.2004(3)
H1 H 0.4689 0.3292 0.2523
C4 C 0.4785(4) 0.3401(2) 0.1006(3)
C5 C 0.4739(4) 0.2554(2) 0.0765(3)
C6 C 0.4867(4) 0.3928(2) 0.0233(3)
C7 C 0.4957(4) 0.4719(2) 0.0418(3)
C8 C 0.4978(4) 0.4957(2) 0.1434(3)
H3 H 0.5055 0.5477 0.1587
C9 C 0.7845(5) 0.6249(5) 0.5417(5)
H4 H 0.7476 0.6361 0.6012
C10 C 0.9052(5) 0.6261(5) 0.5449(5)
H5 H 0.9461 0.6392 0.6047
C11 C 0.9650(5) 0.6083(4) 0.4621(4)
C17 C 0.8954(5) 0.5929(5) 0.3808(5)
H10 H 0.9298 0.5832 0.3196
C18 C 0.7759(5) 0.5908(5) 0.3840(5)
H11 H 0.7333 0.5750 0.3262
O7 O 0.5276(3) 0.76694(17) 0.0142(2)
H13 H 0.5138 0.6248 0.0431
Co5 Co 0.47019(5) 0.11206(3) 0.03856(4)
Co7 Co 0.47019(5) 0.38794(3) 0.53856(4)
O10 O 0.5410(3) 0.57666(17) 0.6055(2)
O11 O 0.5276(3) 0.73306(17) 0.5142(2)
O13 O 0.5277(3) 0.70646(16) 0.3535(2)
O3 O 0.4724(3) 0.23306(17) 0.9858(2)
H2 H 0.4862 0.3752 0.9569
O6 O 0.4734(3) 0.46267(16) 0.6548(2)
O8 O 0.5277(3) 0.79354(16) 0.8535(2)
C19 C 0.5080(4) 0.5303(2) 0.6712(3)
C20 C 0.5115(4) 0.5573(2) 0.7786(3)
C21 C 0.5228(4) 0.6355(2) 0.7996(3)
H12 H 0.5311 0.6708 0.7477
C22 C 0.5215(4) 0.6599(2) 0.8994(3)
C23 C 0.5261(4) 0.7446(2) 0.9235(3)
C24 C 0.5133(4) 0.6072(2) 0.9767(3)
C25 C 0.5043(4) 0.5281(2) 0.9582(3)
C26 C 0.5022(4) 0.5043(2) 0.8566(3)
H14 H 0.4945 0.4523 0.8413
N3 N 0.2820(3) 0.39041(19) 0.5371(3)
C27 C 0.2155(5) 0.3751(5) 0.4583(5)
H15 H 0.2524 0.3639 0.3988
C28 C 0.0948(5) 0.3739(5) 0.4551(5)
H16 H 0.0539 0.3608 0.3953
C29 C 0.0350(5) 0.3917(4) 0.5379(4)
C35 C 0.1046(5) 0.4071(5) 0.6192(5)
H21 H 0.0702 0.4168 0.6804
C36 C 0.2241(5) 0.4092(5) 0.6160(5)
H22 H 0.2667 0.4250 0.6738
Co8 Co 0.52981(5) 0.88794(3) 0.96144(4)
O12 O 0.4724(3) 0.26694(17) 0.4858(2)
O14 O 0.4723(3) 0.29354(16) 0.6465(2)
N6 N 0.6586(3) 0.3891(2) 0.5388(3)
C30 C 0.9053(5) 0.3910(4) 0.5392(4)
C31 C 0.8363(5) 0.3763(4) 0.4527(4)
H17 H 0.8716 0.3677 0.3916
C32 C 0.7162(5) 0.3741(4) 0.4564(4)
H18 H 0.6728 0.3615 0.3976
C33 C 0.7247(5) 0.4039(4) 0.6220(4)
H19 H 0.6871 0.4133 0.6817
C34 C 0.8463(5) 0.4060(4) 0.6246(4)
H20 H 0.8878 0.4177 0.6847
N4 N 0.3414(3) 0.8891(2) 0.9612(3)
C30_2 C 0.0947(5) 0.8910(4) 0.9608(4)
C33_2 C 0.2753(5) 0.9039(4) 0.8780(4)
H19_2 H 0.3129 0.9133 0.8183
C34_2 C 0.1537(5) 0.9060(4) 0.8754(4)
H20_2 H 0.1122 0.9177 0.8153
O2_2 O 0.4734(3) 0.03733(16) 0.1548(2)
N1_2 N 0.2820(3) 0.10959(19) 0.0371(3)
H3_2 H 0.4945 0.0477 0.3413
C11_2 C 0.0350(5) 0.1083(4) 0.0379(4)
C17_2 C 0.1046(5) 0.0929(5) 0.1192(5)
H10_2 H 0.0702 0.0832 0.1804
C18_2 C 0.2241(5) 0.0908(5) 0.1160(5)
H11_2 H 0.2667 0.0750 0.1738
O5 O 0.4590(3) 0.07666(17) 0.8945(2)
C19_2 C 0.4920(4) 0.0303(2) 0.8288(3)
C20_2 C 0.4885(4) 0.0573(2) 0.7214(3)
C21_2 C 0.4772(4) 0.1355(2) 0.7004(3)
H12_2 H 0.4689 0.1708 0.7523
C22_2 C 0.4785(4) 0.1599(2) 0.6006(3)
C23_2 C 0.4739(4) 0.2446(2) 0.5765(3)
C24_2 C 0.4867(4) 0.1072(2) 0.5233(3)
H13_2 H 0.4862 0.1248 0.4569
C25_2 C 0.4957(4) 0.0281(2) 0.5418(3)
C26_2 C 0.4978(4) 0.0043(2) 0.6434(3)
N5 N 0.6586(3) 0.1109(2) 0.0388(3)
C9_2 C 0.2155(5) 0.1249(5) 0.9583(5)
H4_2 H 0.2524 0.1361 0.8988
C10_2 C 0.0948(5) 0.1261(5) 0.9551(5)
H5_2 H 0.0539 0.1392 0.8953
C27_2 C 0.7845(5) 0.8751(5) 0.0417(5)
H15_2 H 0.7476 0.8639 0.1012
C28_2 C 0.9052(5) 0.8739(5) 0.0449(5)
H16_2 H 0.9461 0.8608 0.1047
O9 O 0.5410(3) 0.92334(17) 0.1055(2)
C1_2 C 0.5080(4) 0.9697(2) 0.1712(3)
C2_2 C 0.5115(4) 0.9427(2) 0.2786(3)
C3_2 C 0.5228(4) 0.8645(2) 0.2996(3)
H1_2 H 0.5311 0.8292 0.2477
C4_2 C 0.5215(4) 0.8401(2) 0.3994(3)
C5_2 C 0.5261(4) 0.7554(2) 0.4235(3)
C6_2 C 0.5133(4) 0.8928(2) 0.4767(3)
H2_2 H 0.5138 0.8752 0.5431
C7_2 C 0.5043(4) 0.9719(2) 0.4582(3)
C8_2 C 0.5022(4) 0.9957(2) 0.3566(3)
O6_2 O 0.5266(3) 0.96267(16) 0.8452(2)
H14_2 H 0.5055 0.9523 0.6587
N3_2 N 0.7180(3) 0.89041(19) 0.9629(3)
C29_2 C 0.9650(5) 0.8917(4) 0.9621(4)
C35_2 C 0.8954(5) 0.9071(5) 0.8808(5)
H21_2 H 0.9298 0.9168 0.8196
C36_2 C 0.7759(5) 0.9092(5) 0.8840(5)
H22_2 H 0.7333 0.9250 0.8262
C12_2 C 0.9053(5) 0.1090(4) 0.0392(4)
C15_2 C 0.7247(5) 0.0961(4) 0.1220(4)
H8_2 H 0.6871 0.0867 0.1817
C16_2 C 0.8463(5) 0.0940(4) 0.1246(4)
H9_2 H 0.8878 0.0823 0.1847
C31_2 C 0.1637(5) 0.8763(4) 0.0473(4)
H17_2 H 0.1284 0.8677 0.1084
C32_2 C 0.2838(5) 0.8741(4) 0.0436(4)
H18_2 H 0.3272 0.8615 0.1024
C13_2 C 0.8363(5) 0.1237(4) 0.9527(4)
H6_2 H 0.8716 0.1323 0.8916
C14_2 C 0.7162(5) 0.1259(4) 0.9564(4)
H7_2 H 0.6728 0.1385 0.8976
loop_
_geom_bond_atom_site_label_1
_geom_bond_atom_site_label_2
_geom_bond_site_symmetry_1
_geom_bond_site_symmetry_2
N2 C14 1_555 1_555
C13 C12 1_555 1_555
H6 C13 1_555 1_555
C14 C13 1_555 1_555
H7 C14 1_555 1_555
C15 N2 1_555 1_555
H8 C15 1_555 1_555
C16 C12 1_555 1_555
H9 C16 1_555 1_555
Co4 N2 1_555 1_555
C15 C16 1_555 1_555
Co4 O2 1_555 1_555
O1 C1 1_555 1_555
O2 C1 1_555 1_555
O4 C5 1_555 1_555
N1 Co4 1_555 1_555
C1 C2 1_555 1_555
C2 C3 1_555 1_555
C3 H1 1_555 1_555
C4 C3 1_555 1_555
C5 C4 1_555 1_555
C6 C4 1_555 1_555
C7 C6 1_555 1_555
C8 C2 1_555 1_555
H3 C8 1_555 1_555
C9 N1 1_555 1_555
H4 C9 1_555 1_555
C10 C9 1_555 1_555
H5 C10 1_555 1_555
C11 C10 1_555 1_555
C17 C11 1_555 1_555
H10 C17 1_555 1_555
C18 N1 1_555 1_555
H11 C18 1_555 1_555
Co7 O1 1_555 1_555
O10 Co4 1_555 1_555
O11 Co4 1_555 1_555
O13 Co4 1_555 1_555
O4 Co5 1_555 1_555
C7 C8 1_555 1_555
C17 C18 1_555 1_555
O10 C19 1_555 1_555
O6 C19 1_555 1_555
O8 C23 1_555 1_555
C19 C20 1_555 1_555
C20 C21 1_555 1_555
C21 H12 1_555 1_555
C22 C21 1_555 1_555
C23 C22 1_555 1_555
C24 C22 1_555 1_555
C26 C20 1_555 1_555
H14 C26 1_555 1_555
Co7 O6 1_555 1_555
N3 Co7 1_555 1_555
C27 N3 1_555 1_555
H15 C27 1_555 1_555
C28 C27 1_555 1_555
H16 C28 1_555 1_555
C29 C28 1_555 1_555
C35 C29 1_555 1_555
H21 C35 1_555 1_555
C36 N3 1_555 1_555
H22 C36 1_555 1_555
O12 Co7 1_555 1_555
O14 Co7 1_555 1_555
N6 Co7 1_555 1_555
O8 Co8 1_555 1_555
C24 C25 1_555 1_555
C25 C26 1_555 1_555
C35 C36 1_555 1_555
N6 C32 1_555 1_555
C31 C30 1_555 1_555
H17 C31 1_555 1_555
C32 C31 1_555 1_555
H18 C32 1_555 1_555
C33 N6 1_555 1_555
H19 C33 1_555 1_555
C34 C30 1_555 1_555
H20 C34 1_555 1_555
C33 C34 1_555 1_555
C33_2 N4 1_555 1_555
H19_2 C33_2 1_555 1_555
C34_2 C30_2 1_555 1_555
H20_2 C34_2 1_555 1_555
Co8 N4 1_555 1_555
C33_2 C34_2 1_555 1_555
Co5 O2_2 1_555 1_555
N1_2 Co5 1_555 1_555
C17_2 C11_2 1_555 1_555
H10_2 C17_2 1_555 1_555
C18_2 N1_2 1_555 1_555
H11_2 C18_2 1_555 1_555
O5 C19_2 1_555 1_555
O12 C23_2 1_555 1_555
O14 C23_2 1_555 1_555
C19_2 C20_2 1_555 1_555
C20_2 C21_2 1_555 1_555
C21_2 H12_2 1_555 1_555
C22_2 C21_2 1_555 1_555
C23_2 C22_2 1_555 1_555
C24_2 C22_2 1_555 1_555
H13_2 C24_2 1_555 1_555
C26_2 C20_2 1_555 1_555
N5 Co5 1_555 1_555
C17_2 C18_2 1_555 1_555
C24_2 C25_2 1_555 1_555
C25_2 C26_2 1_555 1_555
H4_2 C9_2 1_555 1_555
C10_2 C9_2 1_555 1_555
H5_2 C10_2 1_555 1_555
H15_2 C27_2 1_555 1_555
C28_2 C27_2 1_555 1_555
H16_2 C28_2 1_555 1_555
O9 C1_2 1_555 1_555
O11 C5_2 1_555 1_555
O13 C5_2 1_555 1_555
C1_2 C2_2 1_555 1_555
C2_2 C3_2 1_555 1_555
C3_2 H1_2 1_555 1_555
C4_2 C3_2 1_555 1_555
C5_2 C4_2 1_555 1_555
C6_2 C4_2 1_555 1_555
H2_2 C6_2 1_555 1_555
C7_2 C6_2 1_555 1_555
C8_2 C2_2 1_555 1_555
Co8 O6_2 1_555 1_555
N3_2 Co8 1_555 1_555
C35_2 C29_2 1_555 1_555
H21_2 C35_2 1_555 1_555
C36_2 N3_2 1_555 1_555
H22_2 C36_2 1_555 1_555
C7_2 C8_2 1_555 1_555
C35_2 C36_2 1_555 1_555
C15_2 N5 1_555 1_555
H8_2 C15_2 1_555 1_555
C16_2 C12_2 1_555 1_555
H9_2 C16_2 1_555 1_555
C15_2 C16_2 1_555 1_555
H17_2 C31_2 1_555 1_555
C32_2 C31_2 1_555 1_555
H18_2 C32_2 1_555 1_555
H6_2 C13_2 1_555 1_555
C14_2 C13_2 1_555 1_555
H7_2 C14_2 1_555 1_555

#END
