
###############################################################################
#
# This file contains modified crystal structure data generated from the
# MOF subset of the Cambridge Structural Database (CSD) v543 
# hosted by the Cambridge Crystallographic Data Centre (CCDC).
#
# This work is licensed under the Creative Commons
# Attribution-NonCommercial-ShareAlike 4.0 International License.
# To view a copy of this license, visit
# http://creativecommons.org/licenses/by-nc-sa/4.0/
# or send a letter to
# Creative Commons, PO Box 1866, Mountain View, CA 94042, USA.
#
# CIF created using the CSD Python API on 29 September 2022
# The structure has been converted into the P1 space group
# The structure has a 3D framework
# The original CSD entry YIZNUR is in the monoclinic crystal system
# The framework has been calculated to contain at least 10.0% void space
# The void calculation uses a probe of radius 1.32A, grid spacing 0.4
#
###############################################################################

data_YIZNUR
_chemical_formula_moiety         '(C160 H108 Cu6 N8 O38)n'
_symmetry_cell_setting           triclinic
_symmetry_space_group_name_H-M   'P 1'
_symmetry_Int_Tables_number      1
_space_group_name_Hall           'P 1'
loop_
_symmetry_equiv_pos_site_id
_symmetry_equiv_pos_as_xyz
1 x,y,z
_cell_length_a                   21.965(2)
_cell_length_b                   8.0160(10)
_cell_length_c                   23.359(3)
_cell_angle_alpha                90
_cell_angle_beta                 90.970(10)
_cell_angle_gamma                90
_cell_volume                     4112.26
loop_
_atom_site_label
_atom_site_type_symbol
_atom_site_fract_x
_atom_site_fract_y
_atom_site_fract_z
O2 O 0.07668(17) 0.5006(4) 0.43778(14)
O4 O 0.00310(18) 0.3097(5) 0.42788(15)
C4 C 0.0654(3) 0.1597(7) 0.3381(2)
H2 H 0.0323 0.103 0.3531
C5 C 0.0517(3) 0.3770(7) 0.4130(2)
C6 C 0.0832(3) 0.3113(7) 0.3620(2)
H5 H 0.0442 0.00000 0.091
C10 C 0.1325(3) 0.3898(8) 0.3385(3)
H6 H 0.1458 0.49 0.3544
C13 C 0.1029(3) 0.0636(8) 0.1542(3)
H8 H 0.0905 0.174 0.1578
C15 C 0.0962(3) 0.0921(8) 0.2923(3)
C16 C 0.1490(3) 0.0004(10) 0.1881(3)
O5 O 0.1795(2) 0.1064(6) 0.2274(2)
C18 C 0.1626(3) 0.3268(9) 0.2927(3)
H12 H 0.1944 0.3854 0.2762
C19 C 0.1445(3) 0.1721(9) 0.2714(3)
Cu4 Cu 0.04324(3) 0.61498(7) 0.50543(3)
O1 O 0.01238(17) 0.7388(4) 0.04525(14)
O3 O 0.08516(17) 0.5442(5) 0.05612(15)
C1 C 0.0935(3) 0.7939(7) 0.1093(2)
C3 C 0.0616(3) 0.6852(7) 0.0665(2)
C9 C 0.0753(3) 0.9592(7) 0.1145(2)
H5_2 H 0.0442 1.00000 0.091
H10 H 0.0834 0.9916 0.2763
C17 C 0.1410(3) 0.7347(8) 0.1427(3)
H11 H 0.1547 0.6258 0.138
C20 C 0.1685(3) 0.8377(10) 0.1832(3)
H13 H 0.1996 0.7974 0.2068
Cu3 Cu 0.04324(3) 0.38502(7) 0.00543(3)
N3 N 0.1155(2) 0.2035(5) 0.00595(18)
C14 C 0.8467(3) 0.0600(7) 0.0251(3)
H9 H 0.8528 0.1544 0.0476
Cu5 Cu 0.95676(3) 0.38502(7) 0.49457(3)
Cu6 Cu 0.54324(3) 0.88502(7) 0.00543(3)
N2 N 0.6155(2) 0.7035(5) 0.00595(18)
C27 C 0.7115(3) 0.6002(6) 0.0392(2)
H16 H 0.746 0.6184 0.0619
C28 C 0.6659(3) 0.7176(7) 0.0366(2)
H17 H 0.6711 0.8142 0.0582
C31 C 0.7057(2) 0.4554(7) 0.0077(2)
C32 C 0.7522(3) 0.3267(6) 0.0102(2)
H20 H 0.789 0.3552 0.0279
C11 C 0.7943(2) 0.0446(7) 0.9923(2)
C12 C 0.7478(3) 0.1733(6) 0.9898(2)
H7 H 0.711 0.1448 0.9721
C22 C 0.6098(3) 0.5645(8) 0.9754(3)
H14 H 0.5747 0.5502 0.9531
C34 C 0.6533(3) 0.4400(7) 0.9749(3)
H22 H 0.6472 0.3456 0.9524
Cu1 Cu 0.95676(3) 0.61498(7) 0.99457(3)
N1 N 0.8845(2) 0.7965(5) 0.99405(18)
C7 C 0.7885(3) 0.8998(6) 0.9608(2)
H3 H 0.754 0.8816 0.9381
C8 C 0.8341(3) 0.7824(7) 0.9634(2)
H4 H 0.8289 0.6858 0.9418
O7 O 0.98762(17) 0.2612(4) 0.95475(14)
O11 O 0.91484(17) 0.4558(5) 0.94388(15)
O6 O 0.98762(17) 0.7388(4) 0.45475(14)
O10 O 0.91484(17) 0.5442(5) 0.44388(15)
C21 C 0.9065(3) 0.7939(7) 0.3907(2)
C23 C 0.9384(3) 0.6852(7) 0.4335(2)
C29 C 0.9247(3) 0.9592(7) 0.3855(2)
H18 H 0.9558 1.00000 0.409
H23 H 0.9166 0.9916 0.2237
C37 C 0.8590(3) 0.7347(8) 0.3573(3)
H24 H 0.8453 0.6258 0.362
C40 C 0.8315(3) 0.8377(10) 0.3168(3)
H26 H 0.8004 0.7974 0.2932
O2_2 O 0.57668(17) 0.0006(4) 0.43778(14)
Cu4_2 Cu 0.54324(3) 0.11498(7) 0.50543(3)
C27_2 C 0.2115(3) 0.1002(6) 0.0392(2)
H16_2 H 0.246 0.1184 0.0619
C28_2 C 0.1659(3) 0.2176(7) 0.0366(2)
H17_2 H 0.1711 0.3142 0.0582
O1_2 O 0.51238(17) 0.2388(4) 0.04525(14)
O3_2 O 0.58516(17) 0.0442(5) 0.05612(15)
O4_2 O 0.50310(18) 0.8097(5) 0.42788(15)
C1_2 C 0.5935(3) 0.2939(7) 0.1093(2)
C2 C 0.3902(3) 0.4355(8) 0.0246(3)
H1 H 0.4253 0.4498 0.0469
C3_2 C 0.5616(3) 0.1852(7) 0.0665(2)
C4_2 C 0.5654(3) 0.6597(7) 0.3381(2)
H2_2 H 0.5323 0.603 0.3531
C5_2 C 0.5517(3) 0.8770(7) 0.4130(2)
C6_2 C 0.5832(3) 0.8113(7) 0.3620(2)
C9_2 C 0.5753(3) 0.4592(7) 0.1145(2)
H5_3 H 0.5442 0.50000 0.091
C10_2 C 0.6325(3) 0.8898(8) 0.3385(3)
H6_2 H 0.6458 0.99 0.3544
C13_2 C 0.6029(3) 0.5636(8) 0.1542(3)
H8_2 H 0.5905 0.674 0.1578
C14_2 C 0.3467(3) 0.5600(7) 0.0251(3)
H9_2 H 0.3528 0.6544 0.0476
C15_2 C 0.5962(3) 0.5921(8) 0.2923(3)
H10_2 H 0.5834 0.4916 0.2763
C16_2 C 0.6490(3) 0.5004(10) 0.1881(3)
O5_2 O 0.6795(2) 0.6064(6) 0.2274(2)
C17_2 C 0.6410(3) 0.2347(8) 0.1427(3)
H11_2 H 0.6547 0.1258 0.138
C18_2 C 0.6626(3) 0.8268(9) 0.2927(3)
H12_2 H 0.6944 0.8854 0.2762
C19_2 C 0.6445(3) 0.6721(9) 0.2714(3)
C20_2 C 0.6685(3) 0.3377(10) 0.1832(3)
H13_2 H 0.6996 0.2974 0.2068
Cu5_2 Cu 0.45676(3) 0.88502(7) 0.49457(3)
O8 O 0.42332(17) 0.0006(4) 0.06222(14)
C31_2 C 0.2057(2) 0.9554(7) 0.0077(2)
C32_2 C 0.2522(3) 0.8267(6) 0.0102(2)
H20_2 H 0.289 0.8552 0.0279
Cu1_2 Cu 0.45676(3) 0.11498(7) 0.99457(3)
N1_2 N 0.3845(2) 0.2965(5) 0.99405(18)
C7_2 C 0.2885(3) 0.3998(6) 0.9608(2)
H3_2 H 0.254 0.3816 0.9381
C8_2 C 0.3341(3) 0.2824(7) 0.9634(2)
H4_2 H 0.3289 0.1858 0.9418
C11_2 C 0.2943(2) 0.5446(7) 0.9923(2)
C12_2 C 0.2478(3) 0.6733(6) 0.9898(2)
H7_2 H 0.211 0.6448 0.9721
O13 O 0.50310(18) 0.1903(5) 0.92788(15)
C34_2 C 0.1533(3) 0.9400(7) 0.9749(3)
H22_2 H 0.1472 0.8456 0.9524
O6_2 O 0.48762(17) 0.2388(4) 0.45475(14)
O10_2 O 0.41484(17) 0.0442(5) 0.44388(15)
O12 O 0.49690(18) 0.8097(5) 0.07212(15)
C21_2 C 0.4065(3) 0.2939(7) 0.3907(2)
C23_2 C 0.4384(3) 0.1852(7) 0.4335(2)
C24 C 0.4346(3) 0.6597(7) 0.1619(2)
H15 H 0.4677 0.603 0.1469
C25 C 0.4483(3) 0.8770(7) 0.0870(2)
C26 C 0.4168(3) 0.8113(7) 0.1380(2)
C29_2 C 0.4247(3) 0.4592(7) 0.3855(2)
H18_2 H 0.4558 0.50000 0.409
C30 C 0.3675(3) 0.8898(8) 0.1615(3)
H19 H 0.3542 0.99 0.1456
C33 C 0.3971(3) 0.5636(8) 0.3458(3)
H21 H 0.4095 0.674 0.3422
C35 C 0.4038(3) 0.5921(8) 0.2077(3)
H23_2 H 0.4166 0.4916 0.2237
C36 C 0.3510(3) 0.5004(10) 0.3119(3)
O14 O 0.3205(2) 0.6064(6) 0.2726(2)
C37_2 C 0.3590(3) 0.2347(8) 0.3573(3)
H24_2 H 0.3453 0.1258 0.362
C38 C 0.3374(3) 0.8268(9) 0.2073(3)
H25 H 0.3056 0.8854 0.2238
C39 C 0.3555(3) 0.6721(9) 0.2286(3)
C40_2 C 0.3315(3) 0.3377(10) 0.3168(3)
H26_2 H 0.3004 0.2974 0.2932
O7_2 O 0.48762(17) 0.7612(4) 0.95475(14)
O9 O 0.57668(17) 0.9994(4) 0.93778(14)
O11_2 O 0.41484(17) 0.9558(5) 0.94388(15)
C11_3 C 0.2057(2) 0.0446(7) 0.5077(2)
C12_3 C 0.2522(3) 0.1733(6) 0.5102(2)
H7_3 H 0.289 0.1448 0.5279
C14_3 C 0.1533(3) 0.0600(7) 0.4749(3)
H9_3 H 0.1472 0.1544 0.4524
N2_2 N 0.3845(2) 0.7035(5) 0.49405(18)
C22_2 C 0.3902(3) 0.5645(8) 0.5246(3)
H14_2 H 0.4253 0.5502 0.5469
C27_3 C 0.2885(3) 0.6002(6) 0.4608(2)
H16_3 H 0.254 0.6184 0.4381
C28_3 C 0.3341(3) 0.7176(7) 0.4634(2)
H17_3 H 0.3289 0.8142 0.4418
C31_3 C 0.2943(2) 0.4554(7) 0.4923(2)
C32_3 C 0.2478(3) 0.3267(6) 0.4898(2)
H20_3 H 0.211 0.3552 0.4721
C34_3 C 0.3467(3) 0.4400(7) 0.5251(3)
H22_3 H 0.3528 0.3456 0.5476
N1_3 N 0.1155(2) 0.7965(5) 0.50595(18)
C2_2 C 0.1098(3) 0.9355(8) 0.4754(3)
H1_2 H 0.0747 0.9498 0.4531
C7_3 C 0.2115(3) 0.8998(6) 0.5392(2)
H3_3 H 0.246 0.8816 0.5619
C8_3 C 0.1659(3) 0.7824(7) 0.5366(2)
H4_3 H 0.1711 0.6858 0.5582
O7_3 O 0.01238(17) 0.2612(4) 0.54525(14)
O11_3 O 0.08516(17) 0.4558(5) 0.55612(15)
O9_2 O 0.92332(17) 0.4994(4) 0.56222(14)
N3_2 N 0.8845(2) 0.2035(5) 0.49405(18)
O13_2 O 0.99690(18) 0.6903(5) 0.57212(15)
C22_3 C 0.8902(3) 0.0645(8) 0.5246(3)
H14_3 H 0.9253 0.0502 0.5469
C27_4 C 0.7885(3) 0.1002(6) 0.4608(2)
H16_4 H 0.754 0.1184 0.4381
C28_4 C 0.8341(3) 0.2176(7) 0.4634(2)
H17_4 H 0.8289 0.3142 0.4418
N1_4 N 0.6155(2) 0.2965(5) 0.50595(18)
C2_3 C 0.6098(3) 0.4355(8) 0.4754(3)
H1_3 H 0.5747 0.4498 0.4531
C7_4 C 0.7115(3) 0.3998(6) 0.5392(2)
H3_4 H 0.746 0.3816 0.5619
C8_4 C 0.6659(3) 0.2824(7) 0.5366(2)
H4_4 H 0.6711 0.1858 0.5582
C11_4 C 0.7057(2) 0.5446(7) 0.5077(2)
C12_4 C 0.7522(3) 0.6733(6) 0.5102(2)
H7_4 H 0.789 0.6448 0.5279
C14_4 C 0.6533(3) 0.5600(7) 0.4749(3)
H9_4 H 0.6472 0.6544 0.4524
O13_3 O 0.49690(18) 0.1903(5) 0.57212(15)
C31_4 C 0.7943(2) 0.9554(7) 0.4923(2)
C32_4 C 0.7478(3) 0.8267(6) 0.4898(2)
H20_4 H 0.711 0.8552 0.4721
C34_4 C 0.8467(3) 0.9400(7) 0.5251(3)
H22_4 H 0.8528 0.8456 0.5476
O7_4 O 0.51238(17) 0.7612(4) 0.54525(14)
O9_3 O 0.42332(17) 0.9994(4) 0.56222(14)
O11_4 O 0.58516(17) 0.9558(5) 0.55612(15)
C21_3 C 0.0935(3) 0.2061(7) 0.6093(2)
C23_3 C 0.0616(3) 0.3148(7) 0.5665(2)
C29_3 C 0.0753(3) 0.0408(7) 0.6145(2)
H18_3 H 0.0442 0.00000 0.591
H23_3 H 0.0834 0.0084 0.7763
C37_3 C 0.1410(3) 0.2653(8) 0.6427(3)
H24_3 H 0.1547 0.3742 0.638
C40_3 C 0.1685(3) 0.1623(10) 0.6832(3)
H26_3 H 0.1996 0.2026 0.7068
C1_3 C 0.9065(3) 0.2061(7) 0.8907(2)
C3_3 C 0.9384(3) 0.3148(7) 0.9335(2)
C9_3 C 0.9247(3) 0.0408(7) 0.8855(2)
H5_4 H 0.9558 0.00000 0.909
H10_3 H 0.9166 0.0084 0.7237
C17_3 C 0.8590(3) 0.2653(8) 0.8573(3)
H11_3 H 0.8453 0.3742 0.862
C20_3 C 0.8315(3) 0.1623(10) 0.8168(3)
H13_3 H 0.8004 0.2026 0.7932
C4_3 C 0.9346(3) 0.8403(7) 0.6619(2)
H2_3 H 0.9677 0.897 0.6469
C5_3 C 0.9483(3) 0.6230(7) 0.5870(2)
C6_3 C 0.9168(3) 0.6887(7) 0.6380(2)
H5_5 H 0.9558 1.00000 0.909
C10_3 C 0.8675(3) 0.6102(8) 0.6615(3)
H6_3 H 0.8542 0.51 0.6456
C13_3 C 0.8971(3) 0.9364(8) 0.8458(3)
H8_3 H 0.9095 0.826 0.8422
C15_3 C 0.9038(3) 0.9079(8) 0.7077(3)
C16_3 C 0.8510(3) 0.9996(10) 0.8119(3)
O5_3 O 0.8205(2) 0.8936(6) 0.7726(2)
C18_3 C 0.8374(3) 0.6732(9) 0.7073(3)
H12_3 H 0.8056 0.6146 0.7238
C19_3 C 0.8555(3) 0.8279(9) 0.7286(3)
C21_4 C 0.5935(3) 0.7061(7) 0.6093(2)
C23_4 C 0.5616(3) 0.8148(7) 0.5665(2)
C24_2 C 0.5654(3) 0.3403(7) 0.8381(2)
H15_2 H 0.5323 0.397 0.8531
C25_2 C 0.5517(3) 0.1230(7) 0.9130(2)
C26_2 C 0.5832(3) 0.1887(7) 0.8620(2)
C29_4 C 0.5753(3) 0.5408(7) 0.6145(2)
H18_4 H 0.5442 0.50000 0.591
C30_2 C 0.6325(3) 0.1102(8) 0.8385(3)
H19_2 H 0.6458 0.01 0.8544
C33_2 C 0.6029(3) 0.4364(8) 0.6542(3)
H21_2 H 0.5905 0.326 0.6578
C35_2 C 0.5962(3) 0.4079(8) 0.7923(3)
H23_4 H 0.5834 0.5084 0.7763
C36_2 C 0.6490(3) 0.4996(10) 0.6881(3)
O14_2 O 0.6795(2) 0.3936(6) 0.7274(2)
C37_4 C 0.6410(3) 0.7653(8) 0.6427(3)
H24_4 H 0.6547 0.8742 0.638
C38_2 C 0.6626(3) 0.1732(9) 0.7927(3)
H25_2 H 0.6944 0.1146 0.7762
C39_2 C 0.6445(3) 0.3279(9) 0.7714(3)
C40_4 C 0.6685(3) 0.6623(10) 0.6832(3)
H26_4 H 0.6996 0.7026 0.7068
C1_4 C 0.4065(3) 0.7061(7) 0.8907(2)
C3_4 C 0.4384(3) 0.8148(7) 0.9335(2)
C4_4 C 0.4346(3) 0.3403(7) 0.6619(2)
H2_4 H 0.4677 0.397 0.6469
C5_4 C 0.4483(3) 0.1230(7) 0.5870(2)
C6_4 C 0.4168(3) 0.1887(7) 0.6380(2)
C9_4 C 0.4247(3) 0.5408(7) 0.8855(2)
H5_6 H 0.4558 0.50000 0.909
C10_4 C 0.3675(3) 0.1102(8) 0.6615(3)
H6_4 H 0.3542 0.01 0.6456
C13_4 C 0.3971(3) 0.4364(8) 0.8458(3)
H8_4 H 0.4095 0.326 0.8422
C15_4 C 0.4038(3) 0.4079(8) 0.7077(3)
H10_4 H 0.4166 0.5084 0.7237
C16_4 C 0.3510(3) 0.4996(10) 0.8119(3)
O5_4 O 0.3205(2) 0.3936(6) 0.7726(2)
C17_4 C 0.3590(3) 0.7653(8) 0.8573(3)
H11_4 H 0.3453 0.8742 0.862
C18_4 C 0.3374(3) 0.1732(9) 0.7073(3)
H12_4 H 0.3056 0.1146 0.7238
C19_4 C 0.3555(3) 0.3279(9) 0.7286(3)
C20_4 C 0.3315(3) 0.6623(10) 0.8168(3)
H13_4 H 0.3004 0.7026 0.7932
O9_4 O 0.07668(17) 0.4994(4) 0.93778(14)
O13_4 O 0.00310(18) 0.6903(5) 0.92788(15)
C22_4 C 0.1098(3) 0.0645(8) 0.9754(3)
H14_4 H 0.0747 0.0502 0.9531
C24_3 C 0.0654(3) 0.8403(7) 0.8381(2)
H15_3 H 0.0323 0.897 0.8531
C25_3 C 0.0517(3) 0.6230(7) 0.9130(2)
C26_3 C 0.0832(3) 0.6887(7) 0.8620(2)
H18_5 H 0.0442 1.00000 0.591
C30_3 C 0.1325(3) 0.6102(8) 0.8385(3)
H19_3 H 0.1458 0.51 0.8544
C33_3 C 0.1029(3) 0.9364(8) 0.6542(3)
H21_3 H 0.0905 0.826 0.6578
C35_3 C 0.0962(3) 0.9079(8) 0.7923(3)
C36_3 C 0.1490(3) 0.9996(10) 0.6881(3)
O14_3 O 0.1795(2) 0.8936(6) 0.7274(2)
C38_3 C 0.1626(3) 0.6732(9) 0.7927(3)
H25_3 H 0.1944 0.6146 0.7762
C39_3 C 0.1445(3) 0.8279(9) 0.7714(3)
C2_4 C 0.8902(3) 0.9355(8) 0.0246(3)
H1_4 H 0.9253 0.9498 0.0469
O8_2 O 0.92332(17) 0.5006(4) 0.06222(14)
O12_2 O 0.99690(18) 0.3097(5) 0.07212(15)
C24_4 C 0.9346(3) 0.1597(7) 0.1619(2)
H15_4 H 0.9677 0.103 0.1469
C25_4 C 0.9483(3) 0.3770(7) 0.0870(2)
C26_4 C 0.9168(3) 0.3113(7) 0.1380(2)
H18_6 H 0.9558 0.00000 0.409
C30_4 C 0.8675(3) 0.3898(8) 0.1615(3)
H19_4 H 0.8542 0.49 0.1456
C33_4 C 0.8971(3) 0.0636(8) 0.3458(3)
H21_4 H 0.9095 0.174 0.3422
C35_4 C 0.9038(3) 0.0921(8) 0.2077(3)
C36_4 C 0.8510(3) 0.0004(10) 0.3119(3)
O14_4 O 0.8205(2) 0.1064(6) 0.2726(2)
C38_4 C 0.8374(3) 0.3268(9) 0.2073(3)
H25_4 H 0.8056 0.3854 0.2238
C39_4 C 0.8555(3) 0.1721(9) 0.2286(3)
loop_
_geom_bond_atom_site_label_1
_geom_bond_atom_site_label_2
_geom_bond_site_symmetry_1
_geom_bond_site_symmetry_2
O2 C5 1_555 1_555
O4 C5 1_555 1_555
C4 H2 1_555 1_555
C5 C6 1_555 1_555
C6 C4 1_555 1_555
C10 C6 1_555 1_555
H6 C10 1_555 1_555
H8 C13 1_555 1_555
C15 C4 1_555 1_555
C16 C13 1_555 1_555
O5 C16 1_555 1_555
C18 C10 1_555 1_555
H12 C18 1_555 1_555
C19 C15 1_555 1_555
Cu4 O2 1_555 1_555
O5 C19 1_555 1_555
C18 C19 1_555 1_555
O1 C3 1_555 1_555
O3 C3 1_555 1_555
C1 C3 1_555 1_555
C9 C1 1_555 1_555
H5_2 C9 1_555 1_555
C17 C1 1_555 1_555
H11 C17 1_555 1_555
H13 C20 1_555 1_555
N3 Cu3 1_555 1_555
O3 Cu3 1_555 1_555
C17 C20 1_555 1_555
H9 C14 1_555 1_555
Cu6 N2 1_555 1_555
C27 H16 1_555 1_555
C28 N2 1_555 1_555
H17 C28 1_555 1_555
C31 C27 1_555 1_555
H20 C32 1_555 1_555
C27 C28 1_555 1_555
C31 C32 1_555 1_555
C12 C11 1_555 1_555
H7 C12 1_555 1_555
C22 H14 1_555 1_555
C34 C22 1_555 1_555
H22 C34 1_555 1_555
N1 Cu1 1_555 1_555
C7 H3 1_555 1_555
C8 N1 1_555 1_555
H4 C8 1_555 1_555
O11 Cu1 1_555 1_555
C7 C8 1_555 1_555
Cu5 O10 1_555 1_555
O10 C23 1_555 1_555
C21 C23 1_555 1_555
C23 O6 1_555 1_555
C29 C21 1_555 1_555
H18 C29 1_555 1_555
C37 C21 1_555 1_555
H24 C37 1_555 1_555
H26 C40 1_555 1_555
C37 C40 1_555 1_555
Cu4_2 O2_2 1_555 1_555
C27_2 H16_2 1_555 1_555
C28_2 N3 1_555 1_555
H17_2 C28_2 1_555 1_555
C27_2 C28_2 1_555 1_555
O1_2 C3_2 1_555 1_555
O3_2 C3_2 1_555 1_555
O4_2 C5_2 1_555 1_555
C1_2 C3_2 1_555 1_555
H1 C2 1_555 1_555
C4_2 H2_2 1_555 1_555
C5_2 C6_2 1_555 1_555
C6_2 C4_2 1_555 1_555
C9_2 C1_2 1_555 1_555
H5_3 C9_2 1_555 1_555
C10_2 C6_2 1_555 1_555
H6_2 C10_2 1_555 1_555
C13_2 C9_2 1_555 1_555
H8_2 C13_2 1_555 1_555
C14_2 C2 1_555 1_555
H9_2 C14_2 1_555 1_555
C15_2 C4_2 1_555 1_555
H10_2 C15_2 1_555 1_555
C16_2 C13_2 1_555 1_555
O5_2 C16_2 1_555 1_555
C17_2 C1_2 1_555 1_555
H11_2 C17_2 1_555 1_555
C18_2 C10_2 1_555 1_555
H12_2 C18_2 1_555 1_555
C19_2 C15_2 1_555 1_555
C20_2 C16_2 1_555 1_555
H13_2 C20_2 1_555 1_555
Cu5_2 O4_2 1_555 1_555
H20_2 C32_2 1_555 1_555
O5_2 C19_2 1_555 1_555
C17_2 C20_2 1_555 1_555
C18_2 C19_2 1_555 1_555
C31_2 C32_2 1_555 1_555
N1_2 Cu1_2 1_555 1_555
C7_2 H3_2 1_555 1_555
C8_2 N1_2 1_555 1_555
H4_2 C8_2 1_555 1_555
C11_2 C7_2 1_555 1_555
C12_2 C11_2 1_555 1_555
H7_2 C12_2 1_555 1_555
O13 Cu1_2 1_555 1_555
H22_2 C34_2 1_555 1_555
C7_2 C8_2 1_555 1_555
O6_2 Cu4_2 1_555 1_555
O10_2 C23_2 1_555 1_555
O12 Cu6 1_555 1_555
C21_2 C23_2 1_555 1_555
C23_2 O6_2 1_555 1_555
C24 H15 1_555 1_555
C26 C24 1_555 1_555
C29_2 C21_2 1_555 1_555
H18_2 C29_2 1_555 1_555
C30 C26 1_555 1_555
H19 C30 1_555 1_555
C33 C29_2 1_555 1_555
H21 C33 1_555 1_555
C35 C24 1_555 1_555
H23_2 C35 1_555 1_555
C36 C33 1_555 1_555
O14 C36 1_555 1_555
C37_2 C21_2 1_555 1_555
H24_2 C37_2 1_555 1_555
C38 C30 1_555 1_555
H25 C38 1_555 1_555
C39 C35 1_555 1_555
C40_2 C36 1_555 1_555
H26_2 C40_2 1_555 1_555
O12 C25 1_555 1_555
C25 C26 1_555 1_555
O14 C39 1_555 1_555
C37_2 C40_2 1_555 1_555
C38 C39 1_555 1_555
C12_3 C11_3 1_555 1_555
H7_3 C12_3 1_555 1_555
H9_3 C14_3 1_555 1_555
Cu5_2 N2_2 1_555 1_555
N2_2 C22_2 1_555 1_555
C22_2 H14_2 1_555 1_555
C27_3 H16_3 1_555 1_555
C28_3 N2_2 1_555 1_555
H17_3 C28_3 1_555 1_555
C31_3 C27_3 1_555 1_555
C32_3 C12_3 1_555 1_555
H20_3 C32_3 1_555 1_555
C34_3 C22_2 1_555 1_555
H22_3 C34_3 1_555 1_555
C11_3 C14_3 1_555 1_555
C27_3 C28_3 1_555 1_555
C31_3 C32_3 1_555 1_555
C31_3 C34_3 1_555 1_555
N1_3 Cu4 1_555 1_555
C2_2 N1_3 1_555 1_555
H1_2 C2_2 1_555 1_555
C7_3 H3_3 1_555 1_555
C8_3 N1_3 1_555 1_555
H4_3 C8_3 1_555 1_555
O11_3 Cu4 1_555 1_555
C7_3 C8_3 1_555 1_555
O9_2 Cu5 1_555 1_555
N3_2 Cu5 1_555 1_555
N3_2 C22_3 1_555 1_555
C22_3 H14_3 1_555 1_555
C27_4 H16_4 1_555 1_555
C28_4 N3_2 1_555 1_555
H17_4 C28_4 1_555 1_555
C27_4 C28_4 1_555 1_555
N1_4 Cu4_2 1_555 1_555
C2_3 N1_4 1_555 1_555
H1_3 C2_3 1_555 1_555
C7_4 H3_4 1_555 1_555
C8_4 N1_4 1_555 1_555
H4_4 C8_4 1_555 1_555
C11_4 C7_4 1_555 1_555
C12_4 C11_4 1_555 1_555
H7_4 C12_4 1_555 1_555
C14_4 C2_3 1_555 1_555
H9_4 C14_4 1_555 1_555
O13_3 Cu4_2 1_555 1_555
C32_4 C12_4 1_555 1_555
H20_4 C32_4 1_555 1_555
H22_4 C34_4 1_555 1_555
C7_4 C8_4 1_555 1_555
C11_4 C14_4 1_555 1_555
C31_4 C32_4 1_555 1_555
C31_4 C34_4 1_555 1_555
O7_4 Cu5_2 1_555 1_555
O9_3 Cu5_2 1_555 1_555
O11_3 C23_3 1_555 1_555
C21_3 C23_3 1_555 1_555
C23_3 O7_3 1_555 1_555
C29_3 C21_3 1_555 1_555
H18_3 C29_3 1_555 1_555
C37_3 C21_3 1_555 1_555
H24_3 C37_3 1_555 1_555
H26_3 C40_3 1_555 1_555
C37_3 C40_3 1_555 1_555
O7 C3_3 1_555 1_555
O11 C3_3 1_555 1_555
C1_3 C3_3 1_555 1_555
C9_3 C1_3 1_555 1_555
H5_4 C9_3 1_555 1_555
C17_3 C1_3 1_555 1_555
H11_3 C17_3 1_555 1_555
H13_3 C20_3 1_555 1_555
C17_3 C20_3 1_555 1_555
O9_2 C5_3 1_555 1_555
O13_2 C5_3 1_555 1_555
C4_3 H2_3 1_555 1_555
C5_3 C6_3 1_555 1_555
C6_3 C4_3 1_555 1_555
C10_3 C6_3 1_555 1_555
H6_3 C10_3 1_555 1_555
H8_3 C13_3 1_555 1_555
C15_3 C4_3 1_555 1_555
C16_3 C13_3 1_555 1_555
O5_3 C16_3 1_555 1_555
C18_3 C10_3 1_555 1_555
H12_3 C18_3 1_555 1_555
C19_3 C15_3 1_555 1_555
O5_3 C19_3 1_555 1_555
C18_3 C19_3 1_555 1_555
O11_4 C23_4 1_555 1_555
C21_4 C23_4 1_555 1_555
C23_4 O7_4 1_555 1_555
C24_2 H15_2 1_555 1_555
C26_2 C24_2 1_555 1_555
C29_4 C21_4 1_555 1_555
H18_4 C29_4 1_555 1_555
C30_2 C26_2 1_555 1_555
H19_2 C30_2 1_555 1_555
C33_2 C29_4 1_555 1_555
H21_2 C33_2 1_555 1_555
C35_2 C24_2 1_555 1_555
H23_4 C35_2 1_555 1_555
C36_2 C33_2 1_555 1_555
O14_2 C36_2 1_555 1_555
C37_4 C21_4 1_555 1_555
H24_4 C37_4 1_555 1_555
C38_2 C30_2 1_555 1_555
H25_2 C38_2 1_555 1_555
C39_2 C35_2 1_555 1_555
C40_4 C36_2 1_555 1_555
H26_4 C40_4 1_555 1_555
O13 C25_2 1_555 1_555
C25_2 C26_2 1_555 1_555
O14_2 C39_2 1_555 1_555
C37_4 C40_4 1_555 1_555
C38_2 C39_2 1_555 1_555
O7_2 C3_4 1_555 1_555
O11_2 C3_4 1_555 1_555
O13_3 C5_4 1_555 1_555
C1_4 C3_4 1_555 1_555
C4_4 H2_4 1_555 1_555
C5_4 C6_4 1_555 1_555
C6_4 C4_4 1_555 1_555
C9_4 C1_4 1_555 1_555
H5_6 C9_4 1_555 1_555
C10_4 C6_4 1_555 1_555
H6_4 C10_4 1_555 1_555
C13_4 C9_4 1_555 1_555
H8_4 C13_4 1_555 1_555
C15_4 C4_4 1_555 1_555
H10_4 C15_4 1_555 1_555
C16_4 C13_4 1_555 1_555
O5_4 C16_4 1_555 1_555
C17_4 C1_4 1_555 1_555
H11_4 C17_4 1_555 1_555
C18_4 C10_4 1_555 1_555
H12_4 C18_4 1_555 1_555
C19_4 C15_4 1_555 1_555
C20_4 C16_4 1_555 1_555
H13_4 C20_4 1_555 1_555
O5_4 C19_4 1_555 1_555
C17_4 C20_4 1_555 1_555
C18_4 C19_4 1_555 1_555
C22_4 H14_4 1_555 1_555
C24_3 H15_3 1_555 1_555
C25_3 O9_4 1_555 1_555
C26_3 C24_3 1_555 1_555
C30_3 C26_3 1_555 1_555
H19_3 C30_3 1_555 1_555
H21_3 C33_3 1_555 1_555
C35_3 C24_3 1_555 1_555
C36_3 C33_3 1_555 1_555
O14_3 C36_3 1_555 1_555
C38_3 C30_3 1_555 1_555
H25_3 C38_3 1_555 1_555
C39_3 C35_3 1_555 1_555
O13_4 C25_3 1_555 1_555
C25_3 C26_3 1_555 1_555
O14_3 C39_3 1_555 1_555
C38_3 C39_3 1_555 1_555
H1_4 C2_4 1_555 1_555
C24_4 H15_4 1_555 1_555
C25_4 O8_2 1_555 1_555
C26_4 C24_4 1_555 1_555
C30_4 C26_4 1_555 1_555
H19_4 C30_4 1_555 1_555
H21_4 C33_4 1_555 1_555
C35_4 C24_4 1_555 1_555
C36_4 C33_4 1_555 1_555
O14_4 C36_4 1_555 1_555
C38_4 C30_4 1_555 1_555
H25_4 C38_4 1_555 1_555
C39_4 C35_4 1_555 1_555
O12_2 C25_4 1_555 1_555
C25_4 C26_4 1_555 1_555
O14_4 C39_4 1_555 1_555
C38_4 C39_4 1_555 1_555

#END
