
###############################################################################
#
# This file contains modified crystal structure data generated from the
# MOF subset of the Cambridge Structural Database (CSD) v543 
# hosted by the Cambridge Crystallographic Data Centre (CCDC).
#
# This work is licensed under the Creative Commons
# Attribution-NonCommercial-ShareAlike 4.0 International License.
# To view a copy of this license, visit
# http://creativecommons.org/licenses/by-nc-sa/4.0/
# or send a letter to
# Creative Commons, PO Box 1866, Mountain View, CA 94042, USA.
#
# CIF created using the CSD Python API on 29 September 2022
# The structure has been converted into the P1 space group
# The structure has a 3D framework
# The original CSD entry YOCJAE is in the monoclinic crystal system
# The framework has been calculated to contain at least 10.0% void space
# The void calculation uses a probe of radius 1.32A, grid spacing 0.4
#
###############################################################################

data_YOCJAE
_chemical_formula_moiety         '(C100 H76 N12 O12 Zn3)n'
_symmetry_cell_setting           triclinic
_symmetry_space_group_name_H-M   'P 1'
_symmetry_Int_Tables_number      1
_space_group_name_Hall           'P 1'
loop_
_symmetry_equiv_pos_site_id
_symmetry_equiv_pos_as_xyz
1 x,y,z
_cell_length_a                   12.1475(19)
_cell_length_b                   15.602(2)
_cell_length_c                   14.578(2)
_cell_angle_alpha                90
_cell_angle_beta                 99.566(8)
_cell_angle_gamma                90
_cell_volume                     2724.48
loop_
_atom_site_label
_atom_site_type_symbol
_atom_site_fract_x
_atom_site_fract_y
_atom_site_fract_z
Zn7 Zn 0.123971(13) 0.009750(10) 0.020529(11)
C10 C 0.6764(2) 0.29164(16) 0.0259(2)
H10 H 0.6821(2) 0.24755(16) 0.0694(2)
C11 C 0.60837(18) 0.36134(16) 0.03348(17)
H11 H 0.56883(18) 0.36452(16) 0.08280(17)
N4 N 0.70930(11) 0.52615(8) 0.44007(10)
N5 N 0.35090(15) 0.51067(12) 0.17045(12)
H20 H 0.38706(15) 0.46567(12) 0.15878(12)
C26 C 0.64882(16) 0.46784(12) 0.38734(15)
H21 H 0.68295(16) 0.41689(12) 0.37444(15)
C27 C 0.53713(17) 0.47989(14) 0.35087(17)
H22 H 0.49786(17) 0.43720(14) 0.31475(17)
C28 C 0.48391(14) 0.55487(12) 0.36788(12)
C29 C 0.36281(15) 0.57368(15) 0.32953(14)
H23 H 0.35834(15) 0.63088(15) 0.30313(14)
H24 H 0.32149(15) 0.57415(15) 0.38103(14)
C30 C 0.30476(15) 0.51199(14) 0.25579(14)
H25 H 0.30892(15) 0.45461(14) 0.28174(14)
H26 H 0.22648(15) 0.52751(14) 0.24111(14)
C31 C 0.34102(14) 0.57595(12) 0.10714(13)
C32 C 0.27150(16) 0.64766(14) 0.11225(15)
H27 H 0.23029(16) 0.65145(14) 0.16046(15)
C33 C 0.26377(18) 0.71187(15) 0.04723(18)
H28 H 0.21761(18) 0.75859(15) 0.05227(18)
C36 C 0.40143(15) 0.57307(13) 0.03229(13)
N6 N 0.47126(14) 0.50046(10) 0.03195(12)
C37 C 0.54705(16) 0.61451(14) 0.42353(16)
H31 H 0.51469(16) 0.66581(14) 0.43772(16)
C38 C 0.65763(16) 0.59856(13) 0.45817(15)
H32 H 0.69813(16) 0.63975(13) 0.49568(15)
Zn5 Zn 0.876029(13) 0.509750(10) 0.479471(11)
Zn1 Zn 0.123971(13) 0.490250(10) 0.520529(11)
O1 O 0.11184(12) 0.94584(11) 0.89856(10)
O2 O 0.10025(12) 0.60578(8) 0.57985(11)
N1 N 0.29070(11) 0.47385(8) 0.55993(10)
N2 N 0.64910(15) 0.48933(12) 0.82955(12)
H1 H 0.61294(15) 0.53433(12) 0.84122(12)
C1 C 0.03013(12) 0.85489(10) 0.77707(10)
C2 C 0.35118(16) 0.53216(12) 0.61266(15)
H2 H 0.31705(16) 0.58311(12) 0.62556(15)
C3 C 0.46287(17) 0.52011(14) 0.64913(17)
H3 H 0.50214(17) 0.56280(14) 0.68525(17)
C4 C 0.51609(14) 0.44513(12) 0.63212(12)
C5 C 0.63719(15) 0.42632(15) 0.67047(14)
H4 H 0.64166(15) 0.36912(15) 0.69687(14)
H5 H 0.67851(15) 0.42585(15) 0.61897(14)
C6 C 0.69524(15) 0.48801(14) 0.74421(14)
H6 H 0.69108(15) 0.54539(14) 0.71826(14)
H7 H 0.77352(15) 0.47249(14) 0.75889(14)
C7 C 0.65898(14) 0.42405(12) 0.89286(13)
C8 C 0.72850(16) 0.35234(14) 0.88775(15)
H8 H 0.76971(16) 0.34855(14) 0.83954(15)
C9 C 0.73623(18) 0.28813(15) 0.95277(18)
H9 H 0.78239(18) 0.24141(15) 0.94773(18)
C12 C 0.59857(15) 0.42693(13) 0.96771(13)
N3 N 0.52874(14) 0.49954(10) 0.96805(12)
C13 C 0.45295(16) 0.38549(14) 0.57647(16)
H12 H 0.48531(16) 0.33419(14) 0.56228(16)
C14 C 0.34237(16) 0.40144(13) 0.54183(15)
H13 H 0.30187(16) 0.36025(13) 0.50432(15)
C15 C 0.02320(14) 0.91883(10) 0.85296(10)
C16 C 0.01213(15) 0.64357(9) 0.58643(11)
C17 C 0.02160(13) 0.72132(9) 0.64804(11)
C20 C 0.08053(15) 0.77830(11) 0.80202(12)
H14 H 0.11749(15) 0.77033(11) 0.86259(12)
C21 C 0.07718(15) 0.71125(11) 0.73712(12)
H15 H 0.11297(15) 0.65971(11) 0.75482(12)
C34 C 0.3236(2) 0.70836(16) 0.9741(2)
H29 H 0.3179(2) 0.75245(16) 0.9306(2)
C35 C 0.39163(18) 0.63866(16) 0.96652(17)
H30 H 0.43117(18) 0.63548(16) 0.91720(17)
O7 O 0.08342(12) 0.37824(9) 0.45214(12)
O8 O 0.07205(12) 0.06309(11) 0.13328(10)
C43 C 0.02697(13) 0.19815(9) 0.38212(10)
C44 C 0.02170(13) 0.12993(9) 0.31646(10)
C47 C 0.06644(17) 0.04868(11) 0.34703(13)
H35 H 0.06356(17) 0.00389(11) 0.30462(13)
C48 C 0.1134(2) 0.03537(13) 0.43721(16)
C49 C 0.1183(2) 0.10264(15) 0.50190(15)
H37 H 0.1503(2) 0.09311(15) 0.56355(15)
C50 C 0.07691(18) 0.18170(12) 0.47545(12)
H38 H 0.08147(18) 0.22545(12) 0.51924(12)
O10 O 0.11184(12) 0.55416(11) 0.39856(10)
O11 O 0.07205(12) 0.43691(11) 0.63328(10)
O3 O 0.91658(12) 0.62176(9) 0.54786(12)
O4 O 0.92795(12) 0.93691(11) 0.86672(10)
C18 C 0.97303(13) 0.80185(9) 0.61788(10)
C19 C 0.97830(13) 0.87007(9) 0.68354(10)
C22 C 0.93356(17) 0.95132(11) 0.65297(13)
H16 H 0.93644(17) 0.99611(11) 0.69538(13)
C23 C 0.8866(2) 0.96463(13) 0.56279(16)
C24 C 0.8817(2) 0.89736(15) 0.49810(15)
H18 H 0.8497(2) 0.90689(15) 0.43645(15)
C25 C 0.92309(18) 0.81830(12) 0.52455(12)
H19 H 0.91853(18) 0.77455(12) 0.48076(12)
O5 O 0.88816(12) 0.05416(11) 0.10144(10)
O6 O 0.89975(12) 0.39422(8) 0.42015(11)
C39 C 0.96987(12) 0.14511(10) 0.22293(10)
C40 C 0.97680(14) 0.08117(10) 0.14704(10)
C41 C 0.98787(15) 0.35643(9) 0.41357(11)
C42 C 0.97840(13) 0.27868(9) 0.35196(11)
C45 C 0.91947(15) 0.22170(11) 0.19798(12)
H33 H 0.88251(15) 0.22967(11) 0.13741(12)
C46 C 0.92282(15) 0.28875(11) 0.26288(12)
H34 H 0.88703(15) 0.34029(11) 0.24518(12)
Zn4 Zn 0.876029(13) 0.990250(10) 0.979471(11)
O9 O 0.88816(12) 0.44584(11) 0.60144(10)
O12 O 0.92795(12) 0.56309(11) 0.36672(10)
C24_2 C 0.1183(2) 0.39736(15) 0.00190(15)
H18_2 H 0.1503(2) 0.40689(15) 0.06355(15)
H19_2 H 0.08147(18) 0.27455(12) 0.01924(12)
N7 N 0.29070(11) 0.02615(8) 0.05993(10)
O3_2 O 0.08342(12) 0.12176(9) 0.95214(12)
C18_2 C 0.02697(13) 0.30185(9) 0.88212(10)
C19_2 C 0.02170(13) 0.37007(9) 0.81646(10)
C22_2 C 0.06644(17) 0.45132(11) 0.84703(13)
H16_2 H 0.06356(17) 0.49611(11) 0.80462(13)
C23_2 C 0.1134(2) 0.46463(13) 0.93721(16)
H17 H 0.1421(2) 0.51821(13) 0.95610(16)
C25_2 C 0.07691(18) 0.31830(12) 0.97545(12)
O6_2 O 0.10025(12) 0.89422(8) 0.07985(11)
C39_2 C 0.03013(12) 0.64511(10) 0.27707(10)
C40_2 C 0.02320(14) 0.58117(10) 0.35296(10)
C41_2 C 0.01213(15) 0.85643(9) 0.08643(11)
C42_2 C 0.02160(13) 0.77868(9) 0.14804(11)
C45_2 C 0.08053(15) 0.72170(11) 0.30202(12)
H33_2 H 0.11749(15) 0.72967(11) 0.36259(12)
C46_2 C 0.07718(15) 0.78875(11) 0.23712(12)
H34_2 H 0.11297(15) 0.84029(11) 0.25482(12)
O2_2 O 0.89975(12) 0.10578(8) 0.92015(11)
H1_2 H 0.38706(15) 0.03433(12) 0.65878(12)
C1_2 C 0.96987(12) 0.35489(10) 0.72293(10)
C2_2 C 0.64882(16) 0.03216(12) 0.88734(15)
H2_2 H 0.68295(16) 0.08311(12) 0.87444(15)
C3_2 C 0.53713(17) 0.02011(14) 0.85087(17)
H3_2 H 0.49786(17) 0.06280(14) 0.81475(17)
H6_2 H 0.30892(15) 0.04539(14) 0.78174(14)
C15_2 C 0.97680(14) 0.41883(10) 0.64704(10)
C16_2 C 0.98787(15) 0.14357(9) 0.91357(11)
C17_2 C 0.97840(13) 0.22132(9) 0.85196(11)
C20_2 C 0.91947(15) 0.27830(11) 0.69798(12)
H14_2 H 0.88251(15) 0.27033(11) 0.63741(12)
C21_2 C 0.92282(15) 0.21125(11) 0.76288(12)
H15_2 H 0.88703(15) 0.15971(11) 0.74518(12)
N5_2 N 0.64910(15) 0.01067(12) 0.32955(12)
C28_2 C 0.51609(14) 0.05487(12) 0.13212(12)
C29_2 C 0.63719(15) 0.07368(15) 0.17047(14)
H23_2 H 0.64166(15) 0.13088(15) 0.19687(14)
H24_2 H 0.67851(15) 0.07415(15) 0.11897(14)
C30_2 C 0.69524(15) 0.01199(14) 0.24421(14)
H26_2 H 0.77352(15) 0.02751(14) 0.25889(14)
C31_2 C 0.65898(14) 0.07595(12) 0.39286(13)
C32_2 C 0.72850(16) 0.14766(14) 0.38775(15)
H27_2 H 0.76971(16) 0.15145(14) 0.33954(15)
C33_2 C 0.73623(18) 0.21187(15) 0.45277(18)
H28_2 H 0.78239(18) 0.25859(15) 0.44773(18)
C34_2 C 0.6764(2) 0.20836(16) 0.5259(2)
H29_2 H 0.6821(2) 0.25245(16) 0.5694(2)
C35_2 C 0.60837(18) 0.13866(16) 0.53348(17)
H30_2 H 0.56883(18) 0.13548(16) 0.58280(17)
C36_2 C 0.59857(15) 0.07307(13) 0.46771(13)
N6_2 N 0.52874(14) 0.00046(10) 0.46805(12)
C37_2 C 0.45295(16) 0.11451(14) 0.07647(16)
H31_2 H 0.48531(16) 0.16581(14) 0.06228(16)
C38_2 C 0.34237(16) 0.09856(13) 0.04183(15)
H32_2 H 0.30187(16) 0.13975(13) 0.00432(15)
O7_2 O 0.91658(12) 0.87824(9) 0.04786(12)
C43_2 C 0.97303(13) 0.69815(9) 0.11788(10)
C44_2 C 0.97830(13) 0.62993(9) 0.18354(10)
C47_2 C 0.93356(17) 0.54868(11) 0.15297(13)
H35_2 H 0.93644(17) 0.50389(11) 0.19538(13)
C48_2 C 0.8866(2) 0.53537(13) 0.06279(16)
H36 H 0.8579(2) 0.48179(13) 0.04390(16)
C50_2 C 0.92309(18) 0.68170(12) 0.02455(12)
N1_2 N 0.70930(11) 0.97385(8) 0.94007(10)
N2_2 N 0.35090(15) 0.98933(12) 0.67045(12)
C4_2 C 0.48391(14) 0.94513(12) 0.86788(12)
C5_2 C 0.36281(15) 0.92632(15) 0.82953(14)
H4_2 H 0.35834(15) 0.86912(15) 0.80313(14)
H5_2 H 0.32149(15) 0.92585(15) 0.88103(14)
C6_2 C 0.30476(15) 0.98801(14) 0.75579(14)
H7_2 H 0.22648(15) 0.97249(14) 0.74111(14)
C7_2 C 0.34102(14) 0.92405(12) 0.60714(13)
C8_2 C 0.27150(16) 0.85234(14) 0.61225(15)
H8_2 H 0.23029(16) 0.84855(14) 0.66046(15)
C9_2 C 0.26377(18) 0.78813(15) 0.54723(18)
H9_2 H 0.21761(18) 0.74141(15) 0.55227(18)
C10_2 C 0.3236(2) 0.79164(16) 0.4741(2)
H10_2 H 0.3179(2) 0.74755(16) 0.4306(2)
C11_2 C 0.39163(18) 0.86134(16) 0.46652(17)
H11_2 H 0.43117(18) 0.86452(16) 0.41720(17)
C12_2 C 0.40143(15) 0.92693(13) 0.53229(13)
N3_2 N 0.47126(14) 0.99954(10) 0.53195(12)
C13_2 C 0.54705(16) 0.88549(14) 0.92353(16)
H12_2 H 0.51469(16) 0.83419(14) 0.93772(16)
C14_2 C 0.65763(16) 0.90144(13) 0.95817(15)
H13_2 H 0.69813(16) 0.86025(13) 0.99568(15)
H20_2 H 0.61294(15) 0.96567(12) 0.34122(12)
C26_2 C 0.35118(16) 0.96784(12) 0.11266(15)
H21_2 H 0.31705(16) 0.91689(12) 0.12556(15)
C27_2 C 0.46287(17) 0.97989(14) 0.14913(17)
H22_2 H 0.50214(17) 0.93720(14) 0.18525(17)
H25_2 H 0.69108(15) 0.95461(14) 0.21826(14)
C49_2 C 0.8817(2) 0.60264(15) 0.99810(15)
H37_2 H 0.8497(2) 0.59311(15) 0.93645(15)
H38_2 H 0.91853(18) 0.72545(12) 0.98076(12)
H36_2 H 0.1421(2) 0.98179(13) 0.45610(16)
H17_2 H 0.8579(2) 0.01821(13) 0.54390(16)
loop_
_geom_bond_atom_site_label_1
_geom_bond_atom_site_label_2
_geom_bond_site_symmetry_1
_geom_bond_site_symmetry_2
H10 C10 1_555 1_555
C11 C10 1_555 1_555
H11 C11 1_555 1_555
N4 C26 1_555 1_555
N5 H20 1_555 1_555
C26 H21 1_555 1_555
C27 C26 1_555 1_555
H22 C27 1_555 1_555
C28 C27 1_555 1_555
C29 C28 1_555 1_555
H23 C29 1_555 1_555
H24 C29 1_555 1_555
C30 N5 1_555 1_555
H25 C30 1_555 1_555
H26 C30 1_555 1_555
C31 N5 1_555 1_555
C32 C31 1_555 1_555
H27 C32 1_555 1_555
C33 C32 1_555 1_555
H28 C33 1_555 1_555
C36 C31 1_555 1_555
C37 C28 1_555 1_555
H31 C37 1_555 1_555
C38 N4 1_555 1_555
H32 C38 1_555 1_555
Zn5 N4 1_555 1_555
C29 C30 1_555 1_555
C36 N6 1_555 1_555
C37 C38 1_555 1_555
Zn1 O2 1_555 1_555
O1 C15 1_555 1_555
O2 C16 1_555 1_555
N1 Zn1 1_555 1_555
N2 H1 1_555 1_555
C1 C15 1_555 1_555
C2 N1 1_555 1_555
H2 C2 1_555 1_555
C3 C2 1_555 1_555
H3 C3 1_555 1_555
C4 C3 1_555 1_555
C5 C4 1_555 1_555
H4 C5 1_555 1_555
H5 C5 1_555 1_555
C6 N2 1_555 1_555
H6 C6 1_555 1_555
H7 C6 1_555 1_555
C7 N2 1_555 1_555
C8 C7 1_555 1_555
H8 C8 1_555 1_555
C9 C8 1_555 1_555
H9 C9 1_555 1_555
C12 C7 1_555 1_555
N3 C12 1_555 1_555
C13 C4 1_555 1_555
H12 C13 1_555 1_555
C14 N1 1_555 1_555
H13 C14 1_555 1_555
C16 C17 1_555 1_555
C20 C1 1_555 1_555
H14 C20 1_555 1_555
C21 C17 1_555 1_555
H15 C21 1_555 1_555
H29 C34 1_555 1_555
C35 C34 1_555 1_555
H30 C35 1_555 1_555
O7 Zn1 1_555 1_555
C47 C44 1_555 1_555
H35 C47 1_555 1_555
C48 C47 1_555 1_555
C49 C48 1_555 1_555
H37 C49 1_555 1_555
C50 C43 1_555 1_555
H38 C50 1_555 1_555
Zn7 O8 1_555 1_555
O10 Zn1 1_555 1_555
O11 Zn1 1_555 1_555
C5 C6 1_555 1_555
C13 C14 1_555 1_555
C20 C21 1_555 1_555
C43 C44 1_555 1_555
C49 C50 1_555 1_555
C18 C19 1_555 1_555
C22 C19 1_555 1_555
H16 C22 1_555 1_555
C23 C22 1_555 1_555
C24 C23 1_555 1_555
H18 C24 1_555 1_555
C25 C18 1_555 1_555
H19 C25 1_555 1_555
Zn5 O3 1_555 1_555
O5 C40 1_555 1_555
O6 Zn5 1_555 1_555
C39 C40 1_555 1_555
C41 O6 1_555 1_555
C42 C41 1_555 1_555
C45 C39 1_555 1_555
H33 C45 1_555 1_555
C46 C42 1_555 1_555
H34 C46 1_555 1_555
Zn4 O4 1_555 1_555
O9 Zn5 1_555 1_555
O12 Zn5 1_555 1_555
C24 C25 1_555 1_555
C45 C46 1_555 1_555
H18_2 C24_2 1_555 1_555
N7 Zn7 1_555 1_555
C18_2 C19_2 1_555 1_555
C22_2 C19_2 1_555 1_555
H16_2 C22_2 1_555 1_555
C23_2 C22_2 1_555 1_555
H17 C23_2 1_555 1_555
C25_2 C18_2 1_555 1_555
O10 C40_2 1_555 1_555
C39_2 C40_2 1_555 1_555
C41_2 O6_2 1_555 1_555
C42_2 C41_2 1_555 1_555
C45_2 C39_2 1_555 1_555
H33_2 C45_2 1_555 1_555
C46_2 C42_2 1_555 1_555
H34_2 C46_2 1_555 1_555
C45_2 C46_2 1_555 1_555
O9 C15_2 1_555 1_555
O2_2 C16_2 1_555 1_555
C1_2 C15_2 1_555 1_555
H2_2 C2_2 1_555 1_555
C3_2 C2_2 1_555 1_555
H3_2 C3_2 1_555 1_555
C16_2 C17_2 1_555 1_555
C20_2 C1_2 1_555 1_555
H14_2 C20_2 1_555 1_555
C21_2 C17_2 1_555 1_555
H15_2 C21_2 1_555 1_555
C29_2 C28_2 1_555 1_555
H23_2 C29_2 1_555 1_555
H24_2 C29_2 1_555 1_555
C30_2 N5_2 1_555 1_555
H26_2 C30_2 1_555 1_555
C31_2 N5_2 1_555 1_555
C32_2 C31_2 1_555 1_555
H27_2 C32_2 1_555 1_555
C33_2 C32_2 1_555 1_555
H28_2 C33_2 1_555 1_555
C34_2 C33_2 1_555 1_555
H29_2 C34_2 1_555 1_555
C35_2 C34_2 1_555 1_555
H30_2 C35_2 1_555 1_555
C36_2 C31_2 1_555 1_555
C37_2 C28_2 1_555 1_555
H31_2 C37_2 1_555 1_555
C38_2 N7 1_555 1_555
H32_2 C38_2 1_555 1_555
C20_2 C21_2 1_555 1_555
C29_2 C30_2 1_555 1_555
C35_2 C36_2 1_555 1_555
C36_2 N6_2 1_555 1_555
C37_2 C38_2 1_555 1_555
C47_2 C44_2 1_555 1_555
H35_2 C47_2 1_555 1_555
C48_2 C47_2 1_555 1_555
H36 C48_2 1_555 1_555
C50_2 C43_2 1_555 1_555
C43_2 C44_2 1_555 1_555
N1_2 Zn4 1_555 1_555
C5_2 C4_2 1_555 1_555
H4_2 C5_2 1_555 1_555
H5_2 C5_2 1_555 1_555
C6_2 N2_2 1_555 1_555
H7_2 C6_2 1_555 1_555
C7_2 N2_2 1_555 1_555
C8_2 C7_2 1_555 1_555
H8_2 C8_2 1_555 1_555
C9_2 C8_2 1_555 1_555
H9_2 C9_2 1_555 1_555
C10_2 C9_2 1_555 1_555
H10_2 C10_2 1_555 1_555
C11_2 C10_2 1_555 1_555
H11_2 C11_2 1_555 1_555
C12_2 C7_2 1_555 1_555
N3_2 C12_2 1_555 1_555
C13_2 C4_2 1_555 1_555
H12_2 C13_2 1_555 1_555
C14_2 N1_2 1_555 1_555
H13_2 C14_2 1_555 1_555
C26_2 H21_2 1_555 1_555
C27_2 C26_2 1_555 1_555
H22_2 C27_2 1_555 1_555
H37_2 C49_2 1_555 1_555
C5_2 C6_2 1_555 1_555
C11_2 C12_2 1_555 1_555
C13_2 C14_2 1_555 1_555

#END
