
###############################################################################
#
# This file contains modified crystal structure data generated from the
# MOF subset of the Cambridge Structural Database (CSD) v543 
# hosted by the Cambridge Crystallographic Data Centre (CCDC).
#
# This work is licensed under the Creative Commons
# Attribution-NonCommercial-ShareAlike 4.0 International License.
# To view a copy of this license, visit
# http://creativecommons.org/licenses/by-nc-sa/4.0/
# or send a letter to
# Creative Commons, PO Box 1866, Mountain View, CA 94042, USA.
#
# CIF created using the CSD Python API on 29 September 2022
# The structure has been converted into the P1 space group
# The structure has a 3D framework
# The original CSD entry YOCPEO is in the triclinic crystal system
# The framework has been calculated to contain at least 10.0% void space
# The void calculation uses a probe of radius 1.32A, grid spacing 0.4
#
###############################################################################

data_YOCPEO
_chemical_formula_moiety         '(C24 H32 Ce4 O26)n'
_symmetry_cell_setting           triclinic
_symmetry_space_group_name_H-M   'P 1'
_symmetry_Int_Tables_number      1
_space_group_name_Hall           'P 1'
loop_
_symmetry_equiv_pos_site_id
_symmetry_equiv_pos_as_xyz
1 x,y,z
_cell_length_a                   7.8865(6)
_cell_length_b                   12.0260(8)
_cell_length_c                   12.2598(9)
_cell_angle_alpha                112.456(2)
_cell_angle_beta                 90.046(2)
_cell_angle_gamma                100.423(2)
_cell_volume                     1053.73
loop_
_atom_site_label
_atom_site_type_symbol
_atom_site_fract_x
_atom_site_fract_y
_atom_site_fract_z
O5 O 0.2329(4) 0.0148(3) 0.2904(4)
O13 O 0.1800(4) 0.1825(3) 0.5354(3)
H13 H 0.280(3) 0.172(5) 0.527(5)
H14 H 0.140(6) 0.144(4) 0.575(4)
Ce5 Ce 0.01028(3) 0.85771(3) 0.64644(2)
Ce6 Ce 0.49031(3) 0.14146(2) 0.25087(2)
O16 O 0.2714(4) 0.2762(3) 0.3573(3)
O21 O 0.0171(4) 0.1525(3) 0.1523(3)
C5 C 0.1418(7) 0.9194(4) 0.3000(4)
C6 C 0.2154(6) 0.8065(4) 0.2754(4)
H5 H 0.2340 0.7707 0.1901
H6 H 0.1295 0.7455 0.2926
C7 C 0.3838(6) 0.8282(4) 0.3461(4)
H7 H 0.4664 0.8953 0.3358
H8 H 0.4336 0.7531 0.3145
C8 C 0.3631(6) 0.8612(4) 0.4766(4)
O7 O 0.2299(4) 0.8977(3) 0.5183(3)
O8 O 0.4851(5) 0.8509(4) 0.5386(3)
Ce9 Ce 0.50969(3) 0.85854(2) 0.74913(2)
C1 C 0.8208(6) 0.3564(4) 0.4559(4)
C2 C 0.7146(6) 0.4531(4) 0.5118(4)
H1 H 0.7262 0.5082 0.4684
H2 H 0.5915 0.4123 0.5021
C3 C 0.7626(6) 0.5297(4) 0.6411(4)
H3 H 0.7274 0.4795 0.6882
H4 H 0.8894 0.5590 0.6547
C4 C 0.6736(6) 0.6373(4) 0.6795(4)
Ce1 Ce 0.98972(3) 0.14229(3) 0.35356(2)
O1 O 0.7694(4) 0.2754(3) 0.3516(3)
O2 O 0.9544(4) 0.3533(3) 0.5086(3)
O3 O 0.7286(4) 0.7238(3) 0.6427(3)
O4 O 0.5480(5) 0.6443(3) 0.7411(4)
O9 O 0.7336(4) 0.0135(3) 0.2189(4)
O14 O 0.6796(4) 0.1807(3) 0.1011(3)
H15 H 0.781(3) 0.170(5) 0.096(4)
H16 H 0.642(6) 0.156(5) 0.031(2)
O17 O 0.4520(5) 0.3557(3) 0.2589(4)
O19 O 0.7701(4) 0.1023(3) 0.4817(3)
O20 O 0.5149(5) 0.1491(4) 0.4614(3)
O22 O 0.2715(4) 0.1045(3) 0.0950(3)
H12 H 0.9366 0.7528 0.9995
C12 C 0.8617(6) 0.8581(4) 0.9176(4)
O11 O 0.9829(4) 0.8475(3) 0.8477(3)
O12 O 0.7285(4) 0.8955(3) 0.9050(3)
H12_2 H 0.0634 0.2472 0.0005
C12_2 C 0.1383(6) 0.1419(4) 0.0824(4)
C1_2 C 0.1792(6) 0.6436(4) 0.5441(4)
C2_2 C 0.2854(6) 0.5469(4) 0.4882(4)
H1_2 H 0.2738 0.4918 0.5316
H2_2 H 0.4085 0.5877 0.4979
C3_2 C 0.2374(6) 0.4703(4) 0.3589(4)
H3_2 H 0.2726 0.5205 0.3118
H4_2 H 0.1106 0.4410 0.3453
C4_2 C 0.3264(6) 0.3627(4) 0.3205(4)
O1_2 O 0.2306(4) 0.7246(3) 0.6484(3)
O2_2 O 0.0456(4) 0.6467(3) 0.4914(3)
O9_2 O 0.2664(4) 0.9865(3) 0.7811(4)
O14_2 O 0.3204(4) 0.8193(3) 0.8989(3)
H15_2 H 0.219(3) 0.830(5) 0.904(4)
H16_2 H 0.358(6) 0.844(5) 0.969(2)
O18 O 0.7671(4) 0.9852(3) 0.7096(4)
C5_2 C 0.8582(7) 0.0806(4) 0.7000(4)
C6_2 C 0.7846(6) 0.1935(4) 0.7246(4)
H5_2 H 0.7660 0.2293 0.8099
H6_2 H 0.8705 0.2545 0.7074
C7_2 C 0.6162(6) 0.1718(4) 0.6539(4)
H7_2 H 0.5336 0.1047 0.6642
H8_2 H 0.5664 0.2469 0.6855
C8_2 C 0.6369(6) 0.1388(4) 0.5234(4)
O13_2 O 0.8200(4) 0.8175(3) 0.4646(3)
H13_2 H 0.720(3) 0.828(5) 0.473(5)
H14_2 H 0.860(6) 0.856(4) 0.425(4)
C9 C 0.6412(6) 0.9189(4) 0.1404(4)
C10 C 0.7162(6) 0.8058(4) 0.0826(4)
H9 H 0.6295 0.7426 0.0217
H10 H 0.7388 0.7732 0.1430
C11 C 0.8861(7) 0.8275(5) 0.0238(4)
H11 H 0.9696 0.8955 0.0830
O6 O 0.9878(4) 0.9224(3) 0.3263(3)
O10 O 0.4863(4) 0.9197(3) 0.1163(3)
C9_2 C 0.3588(6) 0.0811(4) 0.8596(4)
C10_2 C 0.2838(6) 0.1942(4) 0.9174(4)
H9_2 H 0.3705 0.2574 0.9783
H10_2 H 0.2612 0.2268 0.8570
C11_2 C 0.1139(7) 0.1725(5) 0.9762(4)
H11_2 H 0.0304 0.1045 0.9170
O6_2 O 0.0122(4) 0.0776(3) 0.6737(3)
O10_2 O 0.5137(4) 0.0803(3) 0.8837(3)
loop_
_geom_bond_atom_site_label_1
_geom_bond_atom_site_label_2
_geom_bond_site_symmetry_1
_geom_bond_site_symmetry_2
H13 O13 1_555 1_555
H14 O13 1_555 1_555
Ce6 O5 1_555 1_555
Ce6 O16 1_555 1_555
C5 C6 1_555 1_555
C6 H5 1_555 1_555
H6 C6 1_555 1_555
C7 C6 1_555 1_555
H7 C7 1_555 1_555
H8 C7 1_555 1_555
C8 C7 1_555 1_555
O7 C8 1_555 1_555
O8 C8 1_555 1_555
Ce5 O7 1_555 1_555
Ce9 O8 1_555 1_555
C1 C2 1_555 1_555
C2 H1 1_555 1_555
H2 C2 1_555 1_555
C3 C2 1_555 1_555
H3 C3 1_555 1_555
H4 C3 1_555 1_555
C4 C3 1_555 1_555
Ce1 O1 1_555 1_555
Ce6 O1 1_555 1_555
O1 C1 1_555 1_555
O2 C1 1_555 1_555
O3 C4 1_555 1_555
O4 C4 1_555 1_555
O14 Ce6 1_555 1_555
H15 O14 1_555 1_555
H16 O14 1_555 1_555
Ce9 O3 1_555 1_555
O17 Ce6 1_555 1_555
O19 Ce1 1_555 1_555
O20 Ce6 1_555 1_555
O22 Ce6 1_555 1_555
Ce1 O2 1_555 1_555
Ce1 O9 1_555 1_555
Ce6 O9 1_555 1_555
O4 Ce9 1_555 1_555
O11 C12 1_555 1_555
O12 C12 1_555 1_555
Ce9 O12 1_555 1_555
O21 C12_2 1_555 1_555
O22 C12_2 1_555 1_555
C1_2 C2_2 1_555 1_555
C2_2 H1_2 1_555 1_555
H2_2 C2_2 1_555 1_555
C3_2 C2_2 1_555 1_555
H3_2 C3_2 1_555 1_555
H4_2 C3_2 1_555 1_555
C4_2 C3_2 1_555 1_555
Ce5 O1_2 1_555 1_555
Ce9 O1_2 1_555 1_555
O1_2 C1_2 1_555 1_555
O2_2 C1_2 1_555 1_555
O16 C4_2 1_555 1_555
O17 C4_2 1_555 1_555
O14_2 Ce9 1_555 1_555
H15_2 O14_2 1_555 1_555
H16_2 O14_2 1_555 1_555
O18 Ce9 1_555 1_555
Ce5 O2_2 1_555 1_555
Ce5 O9_2 1_555 1_555
Ce9 O9_2 1_555 1_555
C5_2 C6_2 1_555 1_555
C6_2 H5_2 1_555 1_555
H6_2 C6_2 1_555 1_555
C7_2 C6_2 1_555 1_555
H7_2 C7_2 1_555 1_555
H8_2 C7_2 1_555 1_555
C8_2 C7_2 1_555 1_555
O19 C8_2 1_555 1_555
O20 C8_2 1_555 1_555
H13_2 O13_2 1_555 1_555
H14_2 O13_2 1_555 1_555
C9 C10 1_555 1_555
C10 H9 1_555 1_555
H10 C10 1_555 1_555
C11 C10 1_555 1_555
H11 C11 1_555 1_555
O10 C9 1_555 1_555
C9_2 C10_2 1_555 1_555
C10_2 H9_2 1_555 1_555
H10_2 C10_2 1_555 1_555
C11_2 C10_2 1_555 1_555
H11_2 C11_2 1_555 1_555
O10_2 C9_2 1_555 1_555

#END
