
###############################################################################
#
# This file contains modified crystal structure data generated from the
# MOF subset of the Cambridge Structural Database (CSD) v543 
# hosted by the Cambridge Crystallographic Data Centre (CCDC).
#
# This work is licensed under the Creative Commons
# Attribution-NonCommercial-ShareAlike 4.0 International License.
# To view a copy of this license, visit
# http://creativecommons.org/licenses/by-nc-sa/4.0/
# or send a letter to
# Creative Commons, PO Box 1866, Mountain View, CA 94042, USA.
#
# CIF created using the CSD Python API on 29 September 2022
# The structure has been converted into the P1 space group
# The structure has a 3D framework
# The original CSD entry YOLKOB10 is in the orthorhombic crystal system
# The original CSD entry YOLKOB10 is in a Sohncke space group
# The framework has been calculated to contain at least 10.0% void space
# The void calculation uses a probe of radius 1.32A, grid spacing 0.4
#
###############################################################################

data_YOLKOB10
_chemical_formula_moiety         '(C156 H96 F24 N8 O16 S8 Zn4)n'
_symmetry_cell_setting           triclinic
_symmetry_space_group_name_H-M   'P 1'
_symmetry_Int_Tables_number      1
_space_group_name_Hall           'P 1'
loop_
_symmetry_equiv_pos_site_id
_symmetry_equiv_pos_as_xyz
1 x,y,z
_cell_length_a                   7.11393(12)
_cell_length_b                   24.9253(4)
_cell_length_c                   29.0241(8)
_cell_angle_alpha                90
_cell_angle_beta                 90
_cell_angle_gamma                90
_cell_volume                     5146.46
loop_
_atom_site_label
_atom_site_type_symbol
_atom_site_fract_x
_atom_site_fract_y
_atom_site_fract_z
C21 C 0.057(2) 0.6290(6) 0.3204(6)
H16 H 0.163098 0.632398 0.338904
C22 C 0.0090(17) 0.6704(4) 0.2900(5)
C25 C 0.1311(17) 0.7200(4) 0.2869(5)
C26 C 0.327(2) 0.7163(5) 0.2934(8)
H19 H 0.381633 0.683508 0.300801
C27 C 0.4380(19) 0.7610(5) 0.2888(7)
H20 H 0.566045 0.758277 0.294849
C28 C 0.3668(18) 0.8089(4) 0.2758(6)
C29 C 0.179(2) 0.8129(5) 0.2669(7)
H21 H 0.130049 0.845630 0.257422
C30 C 0.062(2) 0.7699(5) 0.2716(6)
C31 C 0.4990(19) 0.8569(4) 0.2686(5)
O3 O 0.4099(14) 0.9018(3) 0.2595(4)
O4 O 0.6655(17) 0.8527(4) 0.2714(6)
Zn3 Zn 0.57722(19) 0.95655(5) 0.23869(6)
C16 C 0.933(2) 0.9507(4) 0.2943(5)
H13 H 0.917884 0.913865 0.290899
N2 N 0.7981(13) 0.9839(3) 0.2782(3)
C1 C 0.5990(16) 0.9014(5) 0.1490(5)
H1 H 0.472687 0.894714 0.154862
C2 C 0.6735(16) 0.8830(6) 0.1088(5)
H2 H 0.597985 0.863373 0.088838
C3 C 0.8564(14) 0.8926(4) 0.0971(4)
C4 C 0.9637(16) 0.9197(6) 0.1310(5)
C5 C 0.8830(19) 0.9362(6) 0.1705(5)
H4 H 0.957544 0.953593 0.192156
N1 N 0.6973(12) 0.9285(4) 0.1804(4)
O2 O 0.2774(14) 0.9920(4) 0.1777(5)
C34 C 0.8722(6) 0.8552(4) 0.0212(3)
H23 H 0.745656 0.846032 0.022803
C35 C 0.9801(6) 0.8789(3) 0.0569(2)
C1_2 C 0.4010(16) 0.4014(5) 0.3510(5)
H1_2 H 0.527313 0.394714 0.345138
C2_2 C 0.3265(16) 0.3830(6) 0.3912(5)
H2_2 H 0.402015 0.363373 0.411162
C3_2 C 0.1436(14) 0.3926(4) 0.4029(4)
C4_2 C 0.0363(16) 0.4197(6) 0.3690(5)
C5_2 C 0.1170(19) 0.4362(6) 0.3295(5)
H4_2 H 0.042456 0.453593 0.307844
C7 C 0.1698(17) 0.2653(5) 0.5671(4)
C8 C 0.233(2) 0.2584(5) 0.6183(5)
C9 C 0.128(2) 0.3023(5) 0.6436(4)
C10 C 0.0615(15) 0.3459(3) 0.6088(4)
C11 C 0.0813(14) 0.3228(4) 0.5628(3)
C12 C 0.237(2) 0.4520(7) 0.5778(7)
H8 H 0.220235 0.428226 0.552082
H9 H 0.336636 0.438900 0.597019
H10 H 0.268056 0.487192 0.566771
C18 C 0.6784(16) 0.5284(5) 0.2967(5)
C19 C 0.7878(15) 0.5793(4) 0.2969(5)
C20 C 0.953(2) 0.5850(6) 0.3232(6)
H15 H 0.989119 0.557430 0.342916
C23 C 0.8427(18) 0.6673(4) 0.2647(5)
H17 H 0.805660 0.695162 0.245469
C24 C 0.7370(16) 0.6225(4) 0.2690(5)
H18 H 0.625039 0.620426 0.252513
H22 H 0.934678 0.773520 0.264704
F1 F 0.3197(12) 0.2584(3) 0.5405(3)
F2 F 0.0449(13) 0.2279(3) 0.5554(3)
F3 F 0.4164(16) 0.2697(6) 0.6226(4)
F4 F 0.211(2) 0.2106(4) 0.6345(4)
F5 F 0.224(2) 0.3244(4) 0.6780(4)
N1_2 N 0.3027(12) 0.4285(4) 0.3196(4)
O1 O 0.5440(12) 0.5264(3) 0.2672(3)
O2_2 O 0.7226(14) 0.4920(4) 0.3223(5)
C33 C 0.0084(10) 0.3477(3) 0.5175(2)
C34_2 C 0.1278(6) 0.3552(4) 0.4788(3)
H23_2 H 0.254344 0.346032 0.477197
C35_2 C 0.0199(6) 0.3789(3) 0.4431(2)
C39 C 0.0534(9) 0.4546(2) 0.6059(3)
Zn1 Zn 0.42278(19) 0.45655(5) 0.26131(6)
N3 N 0.2019(13) 0.4839(3) 0.2218(3)
O5 O 0.5901(14) 0.4018(3) 0.2405(4)
C14 C 0.0291(17) 0.5580(4) 0.1927(5)
H11 H 0.022062 0.594943 0.188597
C15 C 0.1825(14) 0.5357(4) 0.2143(4)
H12 H 0.277802 0.558441 0.224278
C16_2 C 0.067(2) 0.4507(4) 0.2057(5)
H13_2 H 0.082116 0.413865 0.209101
C21_2 C 0.943(2) 0.1290(6) 0.1796(6)
H16_2 H 0.836902 0.132398 0.161096
C22_2 C 0.9910(17) 0.1704(4) 0.2100(5)
C25_2 C 0.8689(17) 0.2200(4) 0.2131(5)
C26_2 C 0.673(2) 0.2163(5) 0.2066(8)
H19_2 H 0.618367 0.183508 0.199199
C27_2 C 0.5620(19) 0.2610(5) 0.2112(7)
H20_2 H 0.433955 0.258277 0.205151
C28_2 C 0.6332(18) 0.3089(4) 0.2242(6)
C29_2 C 0.821(2) 0.3129(5) 0.2331(7)
H21_2 H 0.869951 0.345630 0.242578
C30_2 C 0.938(2) 0.2699(5) 0.2284(6)
C31_2 C 0.5010(19) 0.3569(4) 0.2314(5)
O4_2 O 0.3345(17) 0.3527(4) 0.2286(6)
H3 H 0.909247 0.426161 0.374035
C6 C 0.6810(18) 0.3573(8) 0.5430(6)
H5 H 0.692757 0.384334 0.566405
H6 H 0.700822 0.322549 0.556495
H7 H 0.557468 0.358839 0.529820
C13 C 0.6135(15) 0.4744(4) 0.6771(4)
C14_2 C 0.4709(17) 0.4420(4) 0.6927(5)
H11_2 H 0.477938 0.405057 0.688597
C15_2 C 0.3175(14) 0.4643(4) 0.7143(4)
H12_2 H 0.222198 0.441559 0.724278
C16_3 C 0.433(2) 0.5493(4) 0.7057(5)
H13_3 H 0.417884 0.586135 0.709101
C17 C 0.5894(19) 0.5305(4) 0.6848(5)
H14 H 0.682284 0.554342 0.675403
F6 F 0.9730(16) 0.2816(4) 0.6660(4)
N2_2 N 0.2981(13) 0.5161(3) 0.7218(3)
S1 S 0.8339(4) 0.38623(15) 0.45969(11)
C32 C 0.8268(8) 0.3669(3) 0.50570(14)
S2 S 0.9343(5) 0.49371(11) 0.62622(12)
C36 C 0.7943(9) 0.4664(2) 0.6520(3)
C37 C 0.8270(13) 0.41042(19) 0.6477(3)
H24 H 0.755947 0.383297 0.661106
C38 C 0.9871(12) 0.40315(13) 0.6191(3)
Zn2 Zn 0.07722(19) 0.54345(5) 0.76131(6)
C1_3 C 0.0990(16) 0.5986(5) 0.8510(5)
C2_3 C 0.1735(16) 0.6170(6) 0.8912(5)
H2_3 H 0.097985 0.636627 0.911162
C3_3 C 0.3564(14) 0.6074(4) 0.9029(4)
C4_3 C 0.4637(16) 0.5803(6) 0.8690(5)
H3_2 H 0.590753 0.573839 0.874035
C5_3 C 0.3830(19) 0.5638(6) 0.8295(5)
H4_3 H 0.457544 0.546407 0.807844
N1_3 N 0.1973(12) 0.5715(4) 0.8196(4)
S1_2 S 0.6661(4) 0.61377(15) 0.95969(11)
C34_3 C 0.3722(6) 0.6448(4) 0.9788(3)
H23_3 H 0.245656 0.653968 0.977197
C35_3 C 0.4801(6) 0.6211(3) 0.9431(2)
H20_3 H 0.066045 0.741723 0.705151
O4_3 O 0.1655(17) 0.6473(4) 0.7286(6)
C6_2 C 0.8190(18) 0.6427(8) 0.0430(6)
H5_2 H 0.807243 0.615666 0.066405
H6_2 H 0.799178 0.677451 0.056495
H7_2 H 0.942532 0.641161 0.029820
C7_2 C 0.3302(17) 0.7347(5) 0.0671(4)
C8_2 C 0.267(2) 0.7416(5) 0.1183(5)
C9_2 C 0.372(2) 0.6977(5) 0.1436(4)
C10_2 C 0.4385(15) 0.6541(3) 0.1088(4)
C11_2 C 0.4187(14) 0.6772(4) 0.0628(3)
C12_2 C 0.263(2) 0.5480(7) 0.0778(7)
H8_2 H 0.279765 0.571774 0.052082
H9_2 H 0.163364 0.561100 0.097019
H10_2 H 0.231944 0.512808 0.066771
C13_2 C 0.8865(15) 0.5256(4) 0.1771(4)
C17_2 C 0.9106(19) 0.4695(4) 0.1848(5)
H14_2 H 0.817716 0.445658 0.175403
F1_2 F 0.1803(12) 0.7416(3) 0.0405(3)
F2_2 F 0.4551(13) 0.7721(3) 0.0554(3)
F3_2 F 0.0836(16) 0.7303(6) 0.1226(4)
F4_2 F 0.289(2) 0.7894(4) 0.1345(4)
F5_2 F 0.276(2) 0.6756(4) 0.1780(4)
F6_2 F 0.5270(16) 0.7184(4) 0.1660(4)
C32_2 C 0.6732(8) 0.6331(3) 0.00570(14)
C33_2 C 0.4916(10) 0.6523(3) 0.0175(2)
S2_2 S 0.5657(5) 0.50629(11) 0.12622(12)
C36_2 C 0.7057(9) 0.5336(2) 0.1520(3)
C37_2 C 0.6730(13) 0.58958(19) 0.1477(3)
H24_2 H 0.744053 0.616703 0.161106
C38_2 C 0.5129(12) 0.59685(13) 0.1191(3)
C39_2 C 0.4466(9) 0.5454(2) 0.1059(3)
H1_3 H 0.972687 0.605286 0.845138
C18_2 C 0.8216(16) 0.4716(5) 0.7967(5)
C19_2 C 0.7122(15) 0.4207(4) 0.7969(5)
C20_2 C 0.547(2) 0.4150(6) 0.8232(6)
H15_2 H 0.510881 0.442570 0.842916
C21_3 C 0.443(2) 0.3710(6) 0.8204(6)
H16_3 H 0.336902 0.367602 0.838904
C22_3 C 0.4910(17) 0.3296(4) 0.7900(5)
C23_2 C 0.6573(18) 0.3327(4) 0.7647(5)
H17_2 H 0.694340 0.304838 0.745469
C24_2 C 0.7630(16) 0.3775(4) 0.7690(5)
H18_2 H 0.874961 0.379574 0.752513
C25_3 C 0.3689(17) 0.2800(4) 0.7869(5)
C26_3 C 0.173(2) 0.2837(5) 0.7934(8)
H19_3 H 0.118367 0.316492 0.800801
C27_3 C 0.0620(19) 0.2390(5) 0.7888(7)
C28_3 C 0.1332(18) 0.1911(4) 0.7758(6)
C29_3 C 0.321(2) 0.1871(5) 0.7669(7)
H21_3 H 0.369951 0.154370 0.757422
C30_3 C 0.438(2) 0.2301(5) 0.7716(6)
H22_2 H 0.565322 0.226480 0.764704
C31_3 C 0.0010(19) 0.1431(4) 0.7686(5)
O1_2 O 0.9560(12) 0.4736(3) 0.7672(3)
O2_3 O 0.7774(14) 0.5080(4) 0.8223(5)
O3_2 O 0.0901(14) 0.0982(3) 0.7595(4)
O5_2 O 0.9099(14) 0.5982(3) 0.7405(4)
H1_4 H 0.027313 0.105286 0.654862
O2_4 O 0.2226(14) 0.0080(4) 0.6777(5)
C18_3 C 0.1784(16) 0.9716(5) 0.7033(5)
C19_3 C 0.2878(15) 0.9207(4) 0.7031(5)
C20_3 C 0.453(2) 0.9150(6) 0.6768(6)
H15_3 H 0.489119 0.942570 0.657084
C21_4 C 0.557(2) 0.8710(6) 0.6796(6)
H16_4 H 0.663098 0.867602 0.661096
C22_4 C 0.5090(17) 0.8296(4) 0.7100(5)
C23_3 C 0.3427(18) 0.8327(4) 0.7353(5)
H17_3 H 0.305660 0.804838 0.754531
C24_3 C 0.2370(16) 0.8775(4) 0.7310(5)
H18_3 H 0.125039 0.879574 0.747487
C25_4 C 0.6311(17) 0.7800(4) 0.7131(5)
C26_4 C 0.827(2) 0.7837(5) 0.7066(8)
H19_4 H 0.881633 0.816492 0.699199
C27_4 C 0.9380(19) 0.7390(5) 0.7112(7)
C28_4 C 0.8668(18) 0.6911(4) 0.7242(6)
C29_4 C 0.679(2) 0.6871(5) 0.7331(7)
H21_4 H 0.630049 0.654370 0.742578
C30_4 C 0.562(2) 0.7301(5) 0.7284(6)
H22_3 H 0.434678 0.726480 0.735296
C31_4 C 0.9990(19) 0.6431(4) 0.7314(5)
O1_3 O 0.0440(12) 0.9736(3) 0.7328(3)
H20_4 H 0.933955 0.241723 0.794849
O4_4 O 0.8345(17) 0.1473(4) 0.7714(6)
Zn3_2 Zn 0.92278(19) 0.04345(5) 0.73869(6)
C1_4 C 0.9010(16) 0.0986(5) 0.6490(5)
C2_4 C 0.8265(16) 0.1170(6) 0.6088(5)
H2_4 H 0.902015 0.136627 0.588838
C3_4 C 0.6436(14) 0.1074(4) 0.5971(4)
C4_4 C 0.5363(16) 0.0803(6) 0.6310(5)
H3_3 H 0.409247 0.073839 0.625965
C5_4 C 0.6170(19) 0.0638(6) 0.6705(5)
H4_4 H 0.542456 0.046407 0.692156
C6_3 C 0.1810(18) 0.1427(8) 0.4570(6)
H5_3 H 0.192757 0.115666 0.433595
H6_3 H 0.200822 0.177451 0.443505
H7_3 H 0.057468 0.141161 0.470180
C7_3 C 0.6698(17) 0.2347(5) 0.4329(4)
C8_3 C 0.733(2) 0.2416(5) 0.3817(5)
C9_3 C 0.628(2) 0.1977(5) 0.3564(4)
C10_3 C 0.5615(15) 0.1541(3) 0.3912(4)
C11_3 C 0.5813(14) 0.1772(4) 0.4372(3)
C12_3 C 0.737(2) 0.0480(7) 0.4222(7)
H8_3 H 0.720235 0.071774 0.447918
H9_3 H 0.836636 0.061100 0.402981
H10_3 H 0.768056 0.012808 0.433229
C13_3 C 0.1135(15) 0.0256(4) 0.3229(4)
F1_3 F 0.8197(12) 0.2416(3) 0.4595(3)
F2_3 F 0.5449(13) 0.2721(3) 0.4446(3)
F3_3 F 0.9164(16) 0.2303(6) 0.3774(4)
F4_3 F 0.711(2) 0.2894(4) 0.3655(4)
F5_3 F 0.724(2) 0.1756(4) 0.3220(4)
F6_3 F 0.4730(16) 0.2184(4) 0.3340(4)
N1_4 N 0.8027(12) 0.0715(4) 0.6804(4)
S1_3 S 0.3339(4) 0.11377(15) 0.54031(11)
C32_3 C 0.3268(8) 0.1331(3) 0.49430(14)
C33_3 C 0.5084(10) 0.1523(3) 0.4825(2)
C34_4 C 0.6278(6) 0.1448(4) 0.5212(3)
H23_4 H 0.754344 0.153968 0.522803
C35_4 C 0.5199(6) 0.1211(3) 0.5569(2)
S2_3 S 0.4343(5) 0.00629(11) 0.37378(12)
C36_3 C 0.2943(9) 0.0336(2) 0.3480(3)
C37_3 C 0.3270(13) 0.08958(19) 0.3523(3)
H24_3 H 0.255947 0.116703 0.338894
C38_3 C 0.4871(12) 0.09685(13) 0.3809(3)
C39_3 C 0.5534(9) 0.0454(2) 0.3941(3)
N3_2 N 0.7019(13) 0.0161(3) 0.7782(3)
C16_4 C 0.567(2) 0.0493(4) 0.7943(5)
H13_4 H 0.582116 0.086135 0.790899
C17_3 C 0.4106(19) 0.0305(4) 0.8152(5)
H14_3 H 0.317716 0.054342 0.824597
C17_4 C 0.0894(19) 0.9695(4) 0.3152(5)
H14_4 H 0.182284 0.945658 0.324597
C14_3 C 0.9709(17) 0.0580(4) 0.3073(5)
H11_3 H 0.977938 0.094943 0.311403
C15_3 C 0.8175(14) 0.0357(4) 0.2857(4)
H12_3 H 0.722198 0.058441 0.275722
H3_4 H 0.090753 0.926161 0.125965
S1_4 S 0.1661(4) 0.88623(15) 0.04031(11)
C6_4 C 0.3190(18) 0.8573(8) 0.9570(6)
H5_4 H 0.307243 0.884334 0.933595
H6_4 H 0.299178 0.822549 0.943505
H7_4 H 0.442532 0.858839 0.970180
C13_4 C 0.3865(15) 0.9744(4) 0.8229(4)
C14_4 C 0.5291(17) 0.9420(4) 0.8073(5)
H11_4 H 0.522062 0.905057 0.811403
C15_4 C 0.6825(14) 0.9643(4) 0.7857(4)
H12_4 H 0.777802 0.941559 0.775722
F6_4 F 0.0270(16) 0.7816(4) 0.8340(4)
C32_4 C 0.1732(8) 0.8669(3) 0.99430(14)
S2_4 S 0.0657(5) 0.99371(11) 0.87378(12)
C36_4 C 0.2057(9) 0.9664(2) 0.8480(3)
C37_4 C 0.1730(13) 0.91042(19) 0.8523(3)
H24_4 H 0.244053 0.883297 0.838894
C38_4 C 0.0129(12) 0.90315(13) 0.8809(3)
C18_4 C 0.3216(16) 0.0284(5) 0.2033(5)
C19_4 C 0.2122(15) 0.0793(4) 0.2031(5)
C20_4 C 0.047(2) 0.0850(6) 0.1768(6)
H15_4 H 0.010881 0.057430 0.157084
C23_4 C 0.1573(18) 0.1673(4) 0.2353(5)
H17_4 H 0.194340 0.195162 0.254531
C24_4 C 0.2630(16) 0.1225(4) 0.2310(5)
H18_4 H 0.374961 0.120426 0.247487
H22_4 H 0.065322 0.273520 0.235296
O1_4 O 0.4560(12) 0.0264(3) 0.2328(3)
C7_4 C 0.8302(17) 0.7653(5) 0.9329(4)
C8_4 C 0.767(2) 0.7584(5) 0.8817(5)
C9_4 C 0.872(2) 0.8023(5) 0.8564(4)
C10_4 C 0.9385(15) 0.8459(3) 0.8912(4)
C11_4 C 0.9187(14) 0.8228(4) 0.9372(3)
C12_4 C 0.763(2) 0.9520(7) 0.9222(7)
H8_4 H 0.779765 0.928226 0.947918
H9_4 H 0.663364 0.938900 0.902981
H10_4 H 0.731944 0.987192 0.933229
F1_4 F 0.6803(12) 0.7584(3) 0.9595(3)
F2_4 F 0.9551(13) 0.7279(3) 0.9446(3)
F3_4 F 0.5836(16) 0.7697(6) 0.8774(4)
F4_4 F 0.789(2) 0.7106(4) 0.8655(4)
F5_4 F 0.776(2) 0.8244(4) 0.8220(4)
C33_4 C 0.9916(10) 0.8477(3) 0.9825(2)
C39_4 C 0.9466(9) 0.9546(2) 0.8941(3)
loop_
_geom_bond_atom_site_label_1
_geom_bond_atom_site_label_2
_geom_bond_site_symmetry_1
_geom_bond_site_symmetry_2
H16 C21 1_555 1_555
C22 C21 1_555 1_555
C25 C22 1_555 1_555
C26 C25 1_555 1_555
H19 C26 1_555 1_555
C27 C26 1_555 1_555
H20 C27 1_555 1_555
C28 C27 1_555 1_555
C29 C28 1_555 1_555
H21 C29 1_555 1_555
C30 C25 1_555 1_555
C31 C28 1_555 1_555
O3 C31 1_555 1_555
O4 C31 1_555 1_555
Zn3 O3 1_555 1_555
C29 C30 1_555 1_555
C16 H13 1_555 1_555
Zn3 N2 1_555 1_555
C16 N2 1_555 1_555
C1 H1 1_555 1_555
C2 C1 1_555 1_555
H2 C2 1_555 1_555
C3 C2 1_555 1_555
C4 C3 1_555 1_555
C5 C4 1_555 1_555
H4 C5 1_555 1_555
N1 C1 1_555 1_555
H23 C34 1_555 1_555
C35 C3 1_555 1_555
Zn3 N1 1_555 1_555
C5 N1 1_555 1_555
C34 C35 1_555 1_555
C1_2 H1_2 1_555 1_555
C2_2 C1_2 1_555 1_555
H2_2 C2_2 1_555 1_555
C3_2 C2_2 1_555 1_555
C4_2 C3_2 1_555 1_555
C5_2 C4_2 1_555 1_555
H4_2 C5_2 1_555 1_555
C7 C8 1_555 1_555
C8 C9 1_555 1_555
C9 C10 1_555 1_555
C10 C11 1_555 1_555
C11 C7 1_555 1_555
C12 H8 1_555 1_555
H9 C12 1_555 1_555
H10 C12 1_555 1_555
C18 C19 1_555 1_555
C19 C20 1_555 1_555
C20 H15 1_555 1_555
H17 C23 1_555 1_555
C24 C19 1_555 1_555
H18 C24 1_555 1_555
F1 C7 1_555 1_555
F2 C7 1_555 1_555
F3 C8 1_555 1_555
F4 C8 1_555 1_555
F5 C9 1_555 1_555
N1_2 C1_2 1_555 1_555
O1 C18 1_555 1_555
O2_2 C18 1_555 1_555
C33 C11 1_555 1_555
C34_2 C33 1_555 1_555
H23_2 C34_2 1_555 1_555
C35_2 C3_2 1_555 1_555
C39 C12 1_555 1_555
Zn1 N1_2 1_555 1_555
N3 Zn1 1_555 1_555
O5 Zn1 1_555 1_555
C5_2 N1_2 1_555 1_555
C23 C24 1_555 1_555
O1 Zn1 1_555 1_555
C34_2 C35_2 1_555 1_555
C14 H11 1_555 1_555
C15 C14 1_555 1_555
H12 C15 1_555 1_555
C16_2 H13_2 1_555 1_555
N3 C15 1_555 1_555
C16_2 N3 1_555 1_555
H16_2 C21_2 1_555 1_555
C22_2 C21_2 1_555 1_555
C25_2 C22_2 1_555 1_555
C26_2 C25_2 1_555 1_555
H19_2 C26_2 1_555 1_555
C27_2 C26_2 1_555 1_555
H20_2 C27_2 1_555 1_555
C28_2 C27_2 1_555 1_555
C29_2 C28_2 1_555 1_555
H21_2 C29_2 1_555 1_555
C30_2 C25_2 1_555 1_555
C31_2 C28_2 1_555 1_555
O5 C31_2 1_555 1_555
O4_2 C31_2 1_555 1_555
C29_2 C30_2 1_555 1_555
C6 H5 1_555 1_555
H6 C6 1_555 1_555
H7 C6 1_555 1_555
C13 C14_2 1_555 1_555
C14_2 H11_2 1_555 1_555
C15_2 C14_2 1_555 1_555
H12_2 C15_2 1_555 1_555
C16_3 H13_3 1_555 1_555
C17 C13 1_555 1_555
H14 C17 1_555 1_555
N2_2 C15_2 1_555 1_555
S1 C32 1_555 1_555
C32 C6 1_555 1_555
S2 C36 1_555 1_555
C36 C13 1_555 1_555
C37 C36 1_555 1_555
H24 C37 1_555 1_555
Zn2 N2_2 1_555 1_555
C16_3 C17 1_555 1_555
C16_3 N2_2 1_555 1_555
C37 C38 1_555 1_555
C2_3 C1_3 1_555 1_555
H2_3 C2_3 1_555 1_555
C3_3 C2_3 1_555 1_555
C4_3 C3_3 1_555 1_555
H3_2 C4_3 1_555 1_555
C5_3 C4_3 1_555 1_555
H4_3 C5_3 1_555 1_555
N1_3 C1_3 1_555 1_555
H23_3 C34_3 1_555 1_555
C35_3 C3_3 1_555 1_555
Zn2 N1_3 1_555 1_555
C5_3 N1_3 1_555 1_555
S1_2 C35_3 1_555 1_555
C34_3 C35_3 1_555 1_555
C6_2 H5_2 1_555 1_555
H6_2 C6_2 1_555 1_555
H7_2 C6_2 1_555 1_555
C7_2 C8_2 1_555 1_555
C8_2 C9_2 1_555 1_555
C9_2 C10_2 1_555 1_555
C10_2 C11_2 1_555 1_555
C11_2 C7_2 1_555 1_555
C12_2 H8_2 1_555 1_555
H9_2 C12_2 1_555 1_555
H10_2 C12_2 1_555 1_555
C17_2 C13_2 1_555 1_555
H14_2 C17_2 1_555 1_555
F1_2 C7_2 1_555 1_555
F2_2 C7_2 1_555 1_555
F3_2 C8_2 1_555 1_555
F4_2 C8_2 1_555 1_555
F5_2 C9_2 1_555 1_555
F6_2 C9_2 1_555 1_555
C32_2 C6_2 1_555 1_555
C33_2 C11_2 1_555 1_555
S2_2 C36_2 1_555 1_555
C36_2 C13_2 1_555 1_555
C37_2 C36_2 1_555 1_555
H24_2 C37_2 1_555 1_555
C38_2 C10_2 1_555 1_555
C39_2 C12_2 1_555 1_555
C32_2 C33_2 1_555 1_555
S2_2 C39_2 1_555 1_555
C37_2 C38_2 1_555 1_555
C38_2 C39_2 1_555 1_555
C18_2 C19_2 1_555 1_555
C19_2 C20_2 1_555 1_555
C20_2 H15_2 1_555 1_555
C21_3 C20_2 1_555 1_555
H16_3 C21_3 1_555 1_555
C22_3 C21_3 1_555 1_555
C23_2 C22_3 1_555 1_555
H17_2 C23_2 1_555 1_555
C24_2 C19_2 1_555 1_555
H18_2 C24_2 1_555 1_555
C25_3 C22_3 1_555 1_555
C26_3 C25_3 1_555 1_555
H19_3 C26_3 1_555 1_555
C27_3 C26_3 1_555 1_555
C28_3 C27_3 1_555 1_555
C29_3 C28_3 1_555 1_555
H21_3 C29_3 1_555 1_555
C30_3 C25_3 1_555 1_555
H22_2 C30_3 1_555 1_555
C31_3 C28_3 1_555 1_555
O1_2 C18_2 1_555 1_555
O2_3 C18_2 1_555 1_555
O3_2 C31_3 1_555 1_555
C23_2 C24_2 1_555 1_555
C29_3 C30_3 1_555 1_555
C18_3 C19_3 1_555 1_555
C19_3 C20_3 1_555 1_555
C20_3 H15_3 1_555 1_555
C21_4 C20_3 1_555 1_555
H16_4 C21_4 1_555 1_555
C22_4 C21_4 1_555 1_555
C23_3 C22_4 1_555 1_555
H17_3 C23_3 1_555 1_555
C24_3 C19_3 1_555 1_555
H18_3 C24_3 1_555 1_555
C25_4 C22_4 1_555 1_555
C26_4 C25_4 1_555 1_555
H19_4 C26_4 1_555 1_555
C27_4 C26_4 1_555 1_555
C28_4 C27_4 1_555 1_555
C29_4 C28_4 1_555 1_555
H21_4 C29_4 1_555 1_555
C30_4 C25_4 1_555 1_555
H22_3 C30_4 1_555 1_555
C31_4 C28_4 1_555 1_555
O1_3 C18_3 1_555 1_555
O5_2 C31_4 1_555 1_555
C23_3 C24_3 1_555 1_555
C29_4 C30_4 1_555 1_555
C2_4 C1_4 1_555 1_555
H2_4 C2_4 1_555 1_555
C3_4 C2_4 1_555 1_555
C4_4 C3_4 1_555 1_555
H3_3 C4_4 1_555 1_555
C5_4 C4_4 1_555 1_555
H4_4 C5_4 1_555 1_555
C6_3 H5_3 1_555 1_555
H6_3 C6_3 1_555 1_555
H7_3 C6_3 1_555 1_555
C7_3 C8_3 1_555 1_555
C8_3 C9_3 1_555 1_555
C9_3 C10_3 1_555 1_555
C10_3 C11_3 1_555 1_555
C11_3 C7_3 1_555 1_555
C12_3 H8_3 1_555 1_555
H9_3 C12_3 1_555 1_555
H10_3 C12_3 1_555 1_555
F1_3 C7_3 1_555 1_555
F2_3 C7_3 1_555 1_555
F3_3 C8_3 1_555 1_555
F4_3 C8_3 1_555 1_555
F5_3 C9_3 1_555 1_555
F6_3 C9_3 1_555 1_555
N1_4 C1_4 1_555 1_555
S1_3 C32_3 1_555 1_555
C32_3 C6_3 1_555 1_555
C33_3 C11_3 1_555 1_555
C34_4 C33_3 1_555 1_555
H23_4 C34_4 1_555 1_555
C35_4 C3_4 1_555 1_555
S2_3 C36_3 1_555 1_555
C36_3 C13_3 1_555 1_555
C37_3 C36_3 1_555 1_555
H24_3 C37_3 1_555 1_555
C38_3 C10_3 1_555 1_555
C39_3 C12_3 1_555 1_555
Zn3_2 N1_4 1_555 1_555
N3_2 Zn3_2 1_555 1_555
C5_4 N1_4 1_555 1_555
S1_3 C35_4 1_555 1_555
C32_3 C33_3 1_555 1_555
C34_4 C35_4 1_555 1_555
S2_3 C39_3 1_555 1_555
C37_3 C38_3 1_555 1_555
C38_3 C39_3 1_555 1_555
C16_4 H13_4 1_555 1_555
H14_3 C17_3 1_555 1_555
C16_4 C17_3 1_555 1_555
C16_4 N3_2 1_555 1_555
H14_4 C17_4 1_555 1_555
C14_3 H11_3 1_555 1_555
C15_3 C14_3 1_555 1_555
H12_3 C15_3 1_555 1_555
C6_4 H5_4 1_555 1_555
H6_4 C6_4 1_555 1_555
H7_4 C6_4 1_555 1_555
C13_4 C14_4 1_555 1_555
C14_4 H11_4 1_555 1_555
C15_4 C14_4 1_555 1_555
H12_4 C15_4 1_555 1_555
C32_4 C6_4 1_555 1_555
S2_4 C36_4 1_555 1_555
C36_4 C13_4 1_555 1_555
C37_4 C36_4 1_555 1_555
H24_4 C37_4 1_555 1_555
C37_4 C38_4 1_555 1_555
C18_4 C19_4 1_555 1_555
C19_4 C20_4 1_555 1_555
C20_4 H15_4 1_555 1_555
H17_4 C23_4 1_555 1_555
C24_4 C19_4 1_555 1_555
H18_4 C24_4 1_555 1_555
O1_4 C18_4 1_555 1_555
C23_4 C24_4 1_555 1_555
C7_4 C8_4 1_555 1_555
C8_4 C9_4 1_555 1_555
C9_4 C10_4 1_555 1_555
C10_4 C11_4 1_555 1_555
C11_4 C7_4 1_555 1_555
C12_4 H8_4 1_555 1_555
H9_4 C12_4 1_555 1_555
H10_4 C12_4 1_555 1_555
F1_4 C7_4 1_555 1_555
F2_4 C7_4 1_555 1_555
F3_4 C8_4 1_555 1_555
F4_4 C8_4 1_555 1_555
F5_4 C9_4 1_555 1_555
C33_4 C11_4 1_555 1_555
C39_4 C12_4 1_555 1_555

#END
