
###############################################################################
#
# This file contains modified crystal structure data generated from the
# MOF subset of the Cambridge Structural Database (CSD) v543 
# hosted by the Cambridge Crystallographic Data Centre (CCDC).
#
# This work is licensed under the Creative Commons
# Attribution-NonCommercial-ShareAlike 4.0 International License.
# To view a copy of this license, visit
# http://creativecommons.org/licenses/by-nc-sa/4.0/
# or send a letter to
# Creative Commons, PO Box 1866, Mountain View, CA 94042, USA.
#
# CIF created using the CSD Python API on 29 September 2022
# The structure has been converted into the P1 space group
# The structure has a 3D framework
# The original CSD entry YOLKUH01 is in the orthorhombic crystal system
# The original CSD entry YOLKUH01 is in a Sohncke space group
# The framework has been calculated to contain at least 10.0% void space
# The void calculation uses a probe of radius 1.32A, grid spacing 0.4
#
###############################################################################

data_YOLKUH01
_chemical_formula_moiety         '(C156 H96 F24 N8 O16 S8 Zn4)n'
_symmetry_cell_setting           triclinic
_symmetry_space_group_name_H-M   'P 1'
_symmetry_Int_Tables_number      1
_space_group_name_Hall           'P 1'
loop_
_symmetry_equiv_pos_site_id
_symmetry_equiv_pos_as_xyz
1 x,y,z
_cell_length_a                   7.106(2)
_cell_length_b                   24.681(7)
_cell_length_c                   29.181(9)
_cell_angle_alpha                90
_cell_angle_beta                 90
_cell_angle_gamma                90
_cell_volume                     5117.86
loop_
_atom_site_label
_atom_site_type_symbol
_atom_site_fract_x
_atom_site_fract_y
_atom_site_fract_z
O2 O 0.4209(5) 0.59455(12) 0.74507(12)
C3 C 0.5020(8) 0.6394(2) 0.7371(2)
O4 O 0.6708(5) 0.64500(15) 0.73646(18)
C8 C 0.3271(7) 0.7799(2) 0.7070(2)
H2 H 0.37753 0.812095 0.695979
C12 C 0.3738(6) 0.68704(18) 0.72895(19)
C20 C 0.1856(7) 0.6829(2) 0.7385(2)
H7 H 0.136956 0.650748 0.750167
C21 C 0.0135(6) 0.82338(18) 0.71044(18)
C24 C 0.1336(6) 0.77597(18) 0.71603(17)
C26 C 0.0694(7) 0.72619(18) 0.7308(2)
C34 C 0.0539(8) 0.8651(2) 0.68011(18)
H16 H 0.16090 0.862162 0.661921
C35 C 0.4422(7) 0.73587(19) 0.7146(2)
H17 H 0.57091 0.739543 0.709726
Zn3 Zn 0.58523(7) 0.53884(2) 0.76628(2)
C2 C 0.9441(6) 0.62055(17) 0.94946(15)
N2 N 0.7084(5) 0.56499(14) 0.82473(13)
C13 C 0.8607(6) 0.64606(16) 0.98524(14)
H3 H 0.735492 0.656995 0.984681
C16 C 0.8893(7) 0.5589(2) 0.83389(18)
H4 H 0.965455 0.542027 0.812229
C25 C 0.8650(5) 0.60332(18) 0.90629(15)
C30 C 0.9694(6) 0.5763(2) 0.87404(17)
C33 C 0.6051(7) 0.5917(2) 0.85609(17)
H15 H 0.478234 0.597853 0.850281
C37 C 0.6796(6) 0.6096(2) 0.89541(17)
H21 H 0.601454 0.627161 0.916229
O1 O 0.4640(4) 0.46941(11) 0.77182(11)
O3 O 0.2890(5) 0.50364(14) 0.82566(13)
N1 N 0.8029(5) 0.51321(13) 0.72644(12)
C1 C 0.2179(6) 0.41555(18) 0.79850(15)
C4 C 0.8242(6) 0.45908(18) 0.71870(15)
H1 H 0.733511 0.435186 0.729631
C15 C 0.3304(6) 0.46726(18) 0.79942(15)
C17 C 0.2639(6) 0.37346(16) 0.76876(17)
H5 H 0.372290 0.375735 0.751004
C22 C 0.1507(6) 0.32876(17) 0.76546(18)
H8 H 0.186897 0.300821 0.745980
H9 H 0.059005 0.221833 0.764311
C27 C 0.0576(7) 0.4108(2) 0.82437(18)
H10 H 0.023997 0.438074 0.844770
C28 C 0.9732(6) 0.43937(17) 0.69563(15)
H11 H 0.981417 0.402439 0.689633
C29 C 0.9346(7) 0.54600(19) 0.71106(18)
H12 H 0.919749 0.583059 0.715571
Zn1 Zn 0.41477(7) 0.03884(2) 0.73372(2)
O3_2 O 0.7110(5) 0.00364(14) 0.67434(13)
N1_2 N 0.1971(5) 0.01321(13) 0.77356(12)
C29_2 C 0.0654(7) 0.04600(19) 0.78894(18)
H12_2 H 0.080251 0.083059 0.784429
O5 O 0.5791(5) 0.09455(12) 0.75493(12)
N3 N 0.2916(5) 0.06499(14) 0.67527(13)
C2_2 C 0.0559(6) 0.12055(17) 0.55054(15)
F1 F 0.0375(5) 0.27362(11) 0.44646(12)
C5 C 0.0792(6) 0.18007(16) 0.43425(13)
F2 F 0.3108(4) 0.24143(11) 0.46050(10)
C7 C 0.0601(6) 0.15987(16) 0.39168(14)
C10 C 0.0619(6) 0.05815(18) 0.39113(15)
C11 C 0.1640(7) 0.23589(18) 0.43299(14)
C13_2 C 0.1393(6) 0.14606(16) 0.51476(14)
H3_2 H 0.264508 0.156995 0.515319
C14 C 0.0212(6) 0.15472(16) 0.47662(15)
C16_2 C 0.1107(7) 0.0589(2) 0.66611(18)
H4_2 H 0.034545 0.042027 0.687771
C25_2 C 0.1350(5) 0.10332(18) 0.59371(15)
C30_2 C 0.0306(6) 0.0763(2) 0.62596(17)
C32 C 0.1231(8) 0.2010(2) 0.35654(17)
C33_2 C 0.3949(7) 0.0917(2) 0.64391(17)
H15_2 H 0.521766 0.097853 0.649719
F4 F 0.2275(7) 0.17985(16) 0.32446(13)
F5 F 0.2026(9) 0.29363(14) 0.36934(11)
C36 C 0.2328(8) 0.0478(2) 0.4200(2)
H18 H 0.323639 0.075914 0.414795
H19 H 0.286351 0.013408 0.411833
H20 H 0.197674 0.047424 0.451734
C37_2 C 0.3204(6) 0.1096(2) 0.60459(17)
H21_2 H 0.398546 0.127161 0.583771
C38 C 0.2185(8) 0.2453(2) 0.38335(19)
F6 F 0.4067(6) 0.2355(2) 0.38015(14)
C3_2 C 0.4980(8) 0.1394(2) 0.7629(2)
O4_2 O 0.3292(5) 0.14500(15) 0.76354(18)
C8_2 C 0.6729(7) 0.2799(2) 0.7930(2)
H2_2 H 0.62247 0.312095 0.804021
C12_2 C 0.6262(6) 0.18704(18) 0.77105(19)
C20_2 C 0.8144(7) 0.1829(2) 0.7615(2)
H7_2 H 0.863044 0.150748 0.749833
C21_2 C 0.9865(6) 0.32338(18) 0.78956(18)
C24_2 C 0.8664(6) 0.27597(18) 0.78397(17)
C26_2 C 0.9306(7) 0.22619(18) 0.7692(2)
C34_2 C 0.9461(8) 0.3651(2) 0.81989(18)
H16_2 H 0.83910 0.362162 0.838079
C35_2 C 0.5578(7) 0.23587(19) 0.7854(2)
H17_2 H 0.42909 0.239543 0.790274
O1_2 O 0.5360(4) 0.96941(11) 0.72818(11)
C1_2 C 0.7821(6) 0.91555(18) 0.70150(15)
C4_2 C 0.1758(6) 0.95908(18) 0.78130(15)
H1_2 H 0.266489 0.935186 0.770369
C15_2 C 0.6696(6) 0.96726(18) 0.70058(15)
C17_2 C 0.7361(6) 0.87346(16) 0.73124(17)
H5_2 H 0.627710 0.875735 0.748996
C22_2 C 0.8493(6) 0.82876(17) 0.73454(18)
H8_2 H 0.813103 0.800821 0.754020
H9_2 H 0.940995 0.721833 0.735689
C27_2 C 0.9424(7) 0.9108(2) 0.67563(18)
H10_2 H 0.976003 0.938074 0.655230
C28_2 C 0.0268(6) 0.93937(17) 0.80437(15)
H11_2 H 0.018583 0.902439 0.810367
C19 C 0.9082(7) 0.02827(19) 0.81115(17)
H6 H 0.817336 0.052893 0.820731
S1 S 0.67424(15) 0.89187(6) 0.03765(4)
C2_3 C 0.4441(6) 0.87945(17) 0.05054(15)
N2_2 N 0.2084(5) 0.93501(14) 0.17527(13)
C13_3 C 0.3607(6) 0.85394(16) 0.01476(14)
H3_3 H 0.235492 0.843005 0.015319
C16_3 C 0.3893(7) 0.9411(2) 0.16611(18)
H4_3 H 0.465455 0.957973 0.187771
C25_3 C 0.3650(5) 0.89668(18) 0.09371(15)
C30_3 C 0.4694(6) 0.9237(2) 0.12596(17)
H13 H 0.596369 0.930220 0.120543
C33_3 C 0.1051(7) 0.9083(2) 0.14391(17)
C37_3 C 0.1796(6) 0.8904(2) 0.10459(17)
H21_3 H 0.101454 0.872839 0.083771
Zn2 Zn 0.08523(7) 0.96116(2) 0.23372(2)
N1_3 N 0.3029(5) 0.98679(13) 0.27356(12)
C19_2 C 0.5918(7) 0.97173(19) 0.31115(17)
H6_2 H 0.682664 0.947107 0.320731
C29_3 C 0.4346(7) 0.95400(19) 0.28894(18)
H12_3 H 0.419749 0.916941 0.284429
C3_3 C 0.0020(8) 0.8606(2) 0.2629(2)
O4_3 O 0.1708(5) 0.85500(15) 0.26354(18)
H17_3 H 0.07091 0.760457 0.290274
S2 S 0.56408(19) 0.99470(5) 0.86997(5)
F1_2 F 0.4625(5) 0.72638(11) 0.94646(12)
C5_2 C 0.4208(6) 0.81993(16) 0.93425(13)
F2_2 F 0.1892(4) 0.75857(11) 0.96050(10)
C6 C 0.5103(6) 0.89349(18) 0.87762(14)
C7_2 C 0.4399(6) 0.84013(16) 0.89168(14)
C9 C 0.7201(6) 0.95212(18) 0.84355(14)
C10_2 C 0.4381(6) 0.94185(18) 0.89113(15)
C11_2 C 0.3360(7) 0.76411(18) 0.93299(14)
C14_2 C 0.4788(6) 0.84528(16) 0.97662(15)
C18 C 0.8848(6) 0.97403(17) 0.81931(14)
C23 C 0.6552(6) 0.8643(2) 0.98458(15)
F3 F 0.5234(6) 0.77826(17) 0.83422(14)
C31 C 0.6710(6) 0.89966(18) 0.85002(14)
H14 H 0.736909 0.870673 0.837486
C32_2 C 0.3769(8) 0.7990(2) 0.85654(17)
F4_2 F 0.2725(7) 0.82015(16) 0.82446(13)
F5_2 F 0.2974(9) 0.70637(14) 0.86934(11)
C36_2 C 0.2672(8) 0.9522(2) 0.9200(2)
H18_2 H 0.176361 0.924086 0.914795
H19_2 H 0.213649 0.986592 0.911833
H20_2 H 0.302326 0.952576 0.951734
C38_2 C 0.2815(8) 0.7547(2) 0.88335(19)
F6_2 F 0.0933(6) 0.7645(2) 0.88015(14)
C39 C 0.8251(7) 0.8579(3) 0.95494(18)
H22 H 0.810763 0.826378 0.935979
H23 H 0.934653 0.853855 0.973871
H24 H 0.839010 0.889374 0.935908
H15_3 H 0.978234 0.902147 0.149719
S1_2 S 0.82576(15) 0.10813(6) 0.53765(4)
S2_2 S 0.93592(19) 0.00530(5) 0.36997(5)
C4_3 C 0.3242(6) 0.04092(18) 0.28130(15)
H1_3 H 0.233511 0.064814 0.270369
C6_2 C 0.9897(6) 0.10651(18) 0.37762(14)
C9_2 C 0.7799(6) 0.04788(18) 0.34355(14)
C18_2 C 0.6152(6) 0.02597(17) 0.31931(14)
C23_2 C 0.8448(6) 0.1357(2) 0.48458(15)
C28_3 C 0.4732(6) 0.06063(17) 0.30437(15)
H11_3 H 0.481417 0.097561 0.310367
F3_2 F 0.9766(6) 0.22174(17) 0.33422(14)
H13_2 H 0.903631 0.069780 0.620543
C31_2 C 0.8290(6) 0.10034(18) 0.35002(14)
H14_2 H 0.763091 0.129327 0.337486
C39_2 C 0.6749(7) 0.1421(3) 0.45494(18)
H22_2 H 0.689237 0.173622 0.435979
H23_2 H 0.565347 0.146145 0.473871
H24_2 H 0.660990 0.110626 0.435908
O1_3 O 0.9640(4) 0.03059(11) 0.22818(11)
O2_2 O 0.0791(5) 0.40545(12) 0.24507(12)
C1_3 C 0.7179(6) 0.08445(18) 0.20150(15)
C8_3 C 0.1729(7) 0.2201(2) 0.2070(2)
H2_3 H 0.12247 0.187905 0.195979
C12_3 C 0.1262(6) 0.31296(18) 0.22895(19)
C15_3 C 0.8304(6) 0.03274(18) 0.20058(15)
C17_3 C 0.7639(6) 0.12654(16) 0.23124(17)
H5_3 H 0.872290 0.124265 0.248996
C20_3 C 0.3144(7) 0.3171(2) 0.2385(2)
H7_3 H 0.363044 0.349252 0.250167
C21_3 C 0.4865(6) 0.17662(18) 0.21044(18)
C22_3 C 0.6507(6) 0.17124(17) 0.23454(18)
H8_3 H 0.686897 0.199179 0.254020
C24_3 C 0.3664(6) 0.22403(18) 0.21603(17)
C26_3 C 0.4306(7) 0.27381(18) 0.2308(2)
H9_3 H 0.559005 0.278167 0.235689
C27_3 C 0.5576(7) 0.0892(2) 0.17563(18)
H10_3 H 0.523997 0.061926 0.155230
C34_3 C 0.4461(8) 0.1349(2) 0.18011(18)
H16_3 H 0.33910 0.137838 0.161921
C35_3 C 0.0578(7) 0.26413(19) 0.2146(2)
O3_3 O 0.7890(5) 0.99636(14) 0.17434(13)
O5_2 O 0.9209(5) 0.90545(12) 0.25493(12)
O1_4 O 0.0360(4) 0.53059(11) 0.27182(11)
O3_4 O 0.2110(5) 0.49636(14) 0.32566(13)
C1_4 C 0.2821(6) 0.58445(18) 0.29850(15)
C8_4 C 0.8271(7) 0.7201(2) 0.2930(2)
H2_4 H 0.87753 0.687905 0.304021
C12_4 C 0.8738(6) 0.81296(18) 0.27105(19)
C15_4 C 0.1696(6) 0.53274(18) 0.29942(15)
C17_4 C 0.2361(6) 0.62654(16) 0.26876(17)
H5_4 H 0.127710 0.624265 0.251004
C20_4 C 0.6856(7) 0.8171(2) 0.2615(2)
H7_4 H 0.636956 0.849252 0.249833
C21_4 C 0.5135(6) 0.67662(18) 0.28956(18)
C22_4 C 0.3493(6) 0.67124(17) 0.26546(18)
H8_4 H 0.313103 0.699179 0.245980
C24_4 C 0.6336(6) 0.72403(18) 0.28397(17)
C26_4 C 0.5694(7) 0.77381(18) 0.2692(2)
H9_4 H 0.440995 0.778167 0.264311
C27_4 C 0.4424(7) 0.5892(2) 0.32437(18)
H10_4 H 0.476003 0.561926 0.344770
C34_4 C 0.5539(8) 0.6349(2) 0.31989(18)
H16_4 H 0.66090 0.637838 0.338079
C35_4 C 0.9422(7) 0.76413(19) 0.2854(2)
C3_4 C 0.9980(8) 0.3606(2) 0.2371(2)
O4_4 O 0.8292(5) 0.35500(15) 0.23646(18)
H17_4 H 0.92909 0.260457 0.209726
Zn3_2 Zn 0.91477(7) 0.46116(2) 0.26628(2)
S2_3 S 0.06408(19) 0.50530(5) 0.13003(5)
N1_4 N 0.6971(5) 0.48679(13) 0.22644(12)
C4_4 C 0.6758(6) 0.54092(18) 0.21870(15)
H1_4 H 0.766489 0.564814 0.229631
C6_3 C 0.0103(6) 0.60651(18) 0.12238(14)
C9_3 C 0.2201(6) 0.54788(18) 0.15645(14)
C18_3 C 0.3848(6) 0.52597(17) 0.18069(14)
C19_3 C 0.4082(7) 0.47173(19) 0.18885(17)
H6_3 H 0.317336 0.447107 0.179269
C23_3 C 0.1552(6) 0.6357(2) 0.01542(15)
C28_4 C 0.5268(6) 0.56063(17) 0.19563(15)
H11_4 H 0.518583 0.597561 0.189633
F3_3 F 0.0234(6) 0.72174(17) 0.16578(14)
C29_4 C 0.5654(7) 0.45400(19) 0.21106(18)
H12_4 H 0.580251 0.416941 0.215571
C31_3 C 0.1710(6) 0.60034(18) 0.14998(14)
H14_3 H 0.236909 0.629327 0.162514
C39_3 C 0.3251(7) 0.6421(3) 0.04506(18)
H22_3 H 0.310763 0.673622 0.064021
H23_3 H 0.434653 0.646145 0.026129
H24_3 H 0.339010 0.610626 0.064092
N3_2 N 0.7916(5) 0.43501(14) 0.32473(13)
S1_3 S 0.32576(15) 0.39187(6) 0.46235(4)
S2_4 S 0.43592(19) 0.49470(5) 0.63003(5)
C2_4 C 0.5559(6) 0.37945(17) 0.44946(15)
F1_3 F 0.5375(5) 0.22638(11) 0.55354(12)
C5_3 C 0.5792(6) 0.31993(16) 0.56575(13)
F2_3 F 0.8108(4) 0.25857(11) 0.53950(10)
C6_4 C 0.4897(6) 0.39349(18) 0.62238(14)
C7_3 C 0.5601(6) 0.34013(16) 0.60832(14)
C9_4 C 0.2799(6) 0.45212(18) 0.65645(14)
C10_3 C 0.5619(6) 0.44185(18) 0.60887(15)
C11_3 C 0.6640(7) 0.26411(18) 0.56701(14)
C13_4 C 0.6393(6) 0.35394(16) 0.48524(14)
H3_4 H 0.764508 0.343005 0.484681
C14_3 C 0.5212(6) 0.34528(16) 0.52338(15)
C16_4 C 0.6107(7) 0.4411(2) 0.33389(18)
H4_4 H 0.534545 0.457973 0.312229
C18_4 C 0.1152(6) 0.47403(17) 0.68069(14)
C19_4 C 0.0918(7) 0.52827(19) 0.68885(17)
H6_4 H 0.182664 0.552893 0.679269
C23_4 C 0.3448(6) 0.3643(2) 0.51542(15)
C25_4 C 0.6350(5) 0.39668(18) 0.40629(15)
F3_4 F 0.4766(6) 0.27826(17) 0.66578(14)
C30_4 C 0.5306(6) 0.4237(2) 0.37404(17)
H13_3 H 0.403631 0.430220 0.379457
C31_4 C 0.3290(6) 0.39966(18) 0.64998(14)
H14_4 H 0.263091 0.370673 0.662514
C32_3 C 0.6231(8) 0.2990(2) 0.64346(17)
C33_4 C 0.8949(7) 0.4083(2) 0.35609(17)
F4_3 F 0.7275(7) 0.32015(16) 0.67554(13)
F5_3 F 0.7026(9) 0.20637(14) 0.63066(11)
C36_3 C 0.7328(8) 0.4522(2) 0.5800(2)
H18_3 H 0.823639 0.424086 0.585205
H19_3 H 0.786351 0.486592 0.588167
H20_3 H 0.697674 0.452576 0.548266
C37_4 C 0.8204(6) 0.3904(2) 0.39541(17)
H21_4 H 0.898546 0.372839 0.416229
C38_3 C 0.7185(8) 0.2547(2) 0.61665(19)
F6_3 F 0.9067(6) 0.2645(2) 0.61985(14)
C39_4 C 0.1749(7) 0.3579(3) 0.54506(18)
H22_4 H 0.189237 0.326378 0.564021
H23_4 H 0.065347 0.353855 0.526129
H24_4 H 0.160990 0.389374 0.564092
S1_4 S 0.17424(15) 0.60813(6) 0.96235(4)
H13_4 H 0.096369 0.569780 0.879457
F1_4 F 0.9625(5) 0.77362(11) 0.05354(12)
C5_4 C 0.9208(6) 0.68007(16) 0.06575(13)
F2_4 F 0.6892(4) 0.74143(11) 0.03950(10)
C7_4 C 0.9399(6) 0.65987(16) 0.10832(14)
C10_4 C 0.9381(6) 0.55815(18) 0.10887(15)
C11_4 C 0.8360(7) 0.73589(18) 0.06701(14)
C14_4 C 0.9788(6) 0.65472(16) 0.02338(15)
C32_4 C 0.8769(8) 0.7010(2) 0.14346(17)
F4_4 F 0.7725(7) 0.67985(16) 0.17554(13)
F5_4 F 0.7974(9) 0.79363(14) 0.13066(11)
C36_4 C 0.7672(8) 0.5478(2) 0.0800(2)
H18_4 H 0.676361 0.575914 0.085205
H19_4 H 0.713649 0.513408 0.088167
H20_4 H 0.802326 0.547424 0.048266
C38_4 C 0.7815(8) 0.7453(2) 0.11665(19)
F6_4 F 0.5933(6) 0.7355(2) 0.11985(14)
H15_4 H 0.021766 0.402147 0.350281
loop_
_geom_bond_atom_site_label_1
_geom_bond_atom_site_label_2
_geom_bond_site_symmetry_1
_geom_bond_site_symmetry_2
O2 C3 1_555 1_555
C3 O4 1_555 1_555
C8 H2 1_555 1_555
C12 C3 1_555 1_555
C20 C12 1_555 1_555
H7 C20 1_555 1_555
C24 C8 1_555 1_555
C26 C20 1_555 1_555
C34 C21 1_555 1_555
H16 C34 1_555 1_555
C35 C8 1_555 1_555
H17 C35 1_555 1_555
Zn3 O2 1_555 1_555
C12 C35 1_555 1_555
C21 C24 1_555 1_555
C24 C26 1_555 1_555
C2 C13 1_555 1_555
N2 C16 1_555 1_555
C13 H3 1_555 1_555
C16 H4 1_555 1_555
C25 C2 1_555 1_555
C30 C16 1_555 1_555
C33 N2 1_555 1_555
H15 C33 1_555 1_555
C37 C25 1_555 1_555
H21 C37 1_555 1_555
Zn3 N2 1_555 1_555
C25 C30 1_555 1_555
C33 C37 1_555 1_555
Zn3 O1 1_555 1_555
O1 C15 1_555 1_555
O3 C15 1_555 1_555
N1 Zn3 1_555 1_555
C1 C15 1_555 1_555
C4 N1 1_555 1_555
H1 C4 1_555 1_555
C17 C1 1_555 1_555
H5 C17 1_555 1_555
C22 C17 1_555 1_555
H8 C22 1_555 1_555
C27 C1 1_555 1_555
H10 C27 1_555 1_555
C28 C4 1_555 1_555
H11 C28 1_555 1_555
C29 N1 1_555 1_555
H12 C29 1_555 1_555
N1_2 Zn1 1_555 1_555
C29_2 N1_2 1_555 1_555
H12_2 C29_2 1_555 1_555
O5 Zn1 1_555 1_555
N3 Zn1 1_555 1_555
C2_2 C13_2 1_555 1_555
F1 C11 1_555 1_555
C5 C7 1_555 1_555
F2 C11 1_555 1_555
N3 C16_2 1_555 1_555
C7 C32 1_555 1_555
C11 C5 1_555 1_555
C13_2 H3_2 1_555 1_555
C14 C5 1_555 1_555
C16_2 H4_2 1_555 1_555
C25_2 C2_2 1_555 1_555
C30_2 C16_2 1_555 1_555
C32 F4 1_555 1_555
C33_2 N3 1_555 1_555
H15_2 C33_2 1_555 1_555
F5 C38 1_555 1_555
C36 C10 1_555 1_555
H18 C36 1_555 1_555
H19 C36 1_555 1_555
H20 C36 1_555 1_555
C37_2 C25_2 1_555 1_555
H21_2 C37_2 1_555 1_555
C38 C11 1_555 1_555
F6 C38 1_555 1_555
C13_2 C14 1_555 1_555
C25_2 C30_2 1_555 1_555
C32 C38 1_555 1_555
C33_2 C37_2 1_555 1_555
O5 C3_2 1_555 1_555
C3_2 O4_2 1_555 1_555
C8_2 H2_2 1_555 1_555
C12_2 C3_2 1_555 1_555
C20_2 C12_2 1_555 1_555
H7_2 C20_2 1_555 1_555
C24_2 C8_2 1_555 1_555
C26_2 C20_2 1_555 1_555
C34_2 C21_2 1_555 1_555
H16_2 C34_2 1_555 1_555
C35_2 C8_2 1_555 1_555
H17_2 C35_2 1_555 1_555
C12_2 C35_2 1_555 1_555
C21_2 C24_2 1_555 1_555
C24_2 C26_2 1_555 1_555
O1_2 C15_2 1_555 1_555
C1_2 C15_2 1_555 1_555
H1_2 C4_2 1_555 1_555
C17_2 C1_2 1_555 1_555
H5_2 C17_2 1_555 1_555
C22_2 C17_2 1_555 1_555
H8_2 C22_2 1_555 1_555
C27_2 C1_2 1_555 1_555
H10_2 C27_2 1_555 1_555
C28_2 C4_2 1_555 1_555
H11_2 C28_2 1_555 1_555
C19 H6 1_555 1_555
S1 C2_3 1_555 1_555
C2_3 C13_3 1_555 1_555
N2_2 C16_3 1_555 1_555
C13_3 H3_3 1_555 1_555
C16_3 H4_3 1_555 1_555
C25_3 C2_3 1_555 1_555
C30_3 C16_3 1_555 1_555
H13 C30_3 1_555 1_555
C33_3 N2_2 1_555 1_555
C37_3 C25_3 1_555 1_555
H21_3 C37_3 1_555 1_555
Zn2 N2_2 1_555 1_555
C25_3 C30_3 1_555 1_555
C33_3 C37_3 1_555 1_555
N1_3 Zn2 1_555 1_555
C19_2 H6_2 1_555 1_555
C29_3 N1_3 1_555 1_555
H12_3 C29_3 1_555 1_555
C19_2 C29_3 1_555 1_555
C3_3 O4_3 1_555 1_555
S2 C9 1_555 1_555
F1_2 C11_2 1_555 1_555
C5_2 C7_2 1_555 1_555
F2_2 C11_2 1_555 1_555
C6 C7_2 1_555 1_555
C7_2 C32_2 1_555 1_555
C9 C18 1_555 1_555
C10_2 S2 1_555 1_555
C11_2 C5_2 1_555 1_555
C14_2 C5_2 1_555 1_555
F3 C32_2 1_555 1_555
C31 C6 1_555 1_555
H14 C31 1_555 1_555
C32_2 F4_2 1_555 1_555
F5_2 C38_2 1_555 1_555
C36_2 C10_2 1_555 1_555
H18_2 C36_2 1_555 1_555
H19_2 C36_2 1_555 1_555
H20_2 C36_2 1_555 1_555
C38_2 C11_2 1_555 1_555
F6_2 C38_2 1_555 1_555
C39 C23 1_555 1_555
H22 C39 1_555 1_555
H23 C39 1_555 1_555
H24 C39 1_555 1_555
C6 C10_2 1_555 1_555
C9 C31 1_555 1_555
C14_2 C23 1_555 1_555
C32_2 C38_2 1_555 1_555
S2_2 C9_2 1_555 1_555
H1_3 C4_3 1_555 1_555
C9_2 C18_2 1_555 1_555
C23_2 S1_2 1_555 1_555
C28_3 C4_3 1_555 1_555
H11_3 C28_3 1_555 1_555
C31_2 C6_2 1_555 1_555
H14_2 C31_2 1_555 1_555
C39_2 C23_2 1_555 1_555
H22_2 C39_2 1_555 1_555
H23_2 C39_2 1_555 1_555
H24_2 C39_2 1_555 1_555
C9_2 C31_2 1_555 1_555
C18_2 C28_3 1_555 1_555
O1_3 C15_3 1_555 1_555
C1_3 C15_3 1_555 1_555
C8_3 H2_3 1_555 1_555
C17_3 C1_3 1_555 1_555
H5_3 C17_3 1_555 1_555
C20_3 C12_3 1_555 1_555
H7_3 C20_3 1_555 1_555
C21_3 C22_3 1_555 1_555
C22_3 C17_3 1_555 1_555
H8_3 C22_3 1_555 1_555
C24_3 C8_3 1_555 1_555
C26_3 C20_3 1_555 1_555
H9_3 C26_3 1_555 1_555
C27_3 C1_3 1_555 1_555
H10_3 C27_3 1_555 1_555
C34_3 C21_3 1_555 1_555
H16_3 C34_3 1_555 1_555
C35_3 C8_3 1_555 1_555
C12_3 C35_3 1_555 1_555
C21_3 C24_3 1_555 1_555
C24_3 C26_3 1_555 1_555
C27_3 C34_3 1_555 1_555
O1_4 C15_4 1_555 1_555
O3_4 C15_4 1_555 1_555
C1_4 C15_4 1_555 1_555
C8_4 H2_4 1_555 1_555
C17_4 C1_4 1_555 1_555
H5_4 C17_4 1_555 1_555
C20_4 C12_4 1_555 1_555
H7_4 C20_4 1_555 1_555
C21_4 C22_4 1_555 1_555
C22_4 C17_4 1_555 1_555
H8_4 C22_4 1_555 1_555
C24_4 C8_4 1_555 1_555
C26_4 C20_4 1_555 1_555
H9_4 C26_4 1_555 1_555
C27_4 C1_4 1_555 1_555
H10_4 C27_4 1_555 1_555
C34_4 C21_4 1_555 1_555
H16_4 C34_4 1_555 1_555
C35_4 C8_4 1_555 1_555
C12_4 C35_4 1_555 1_555
C21_4 C24_4 1_555 1_555
C24_4 C26_4 1_555 1_555
C27_4 C34_4 1_555 1_555
C3_4 O4_4 1_555 1_555
S2_3 C9_3 1_555 1_555
N1_4 Zn3_2 1_555 1_555
C4_4 N1_4 1_555 1_555
H1_4 C4_4 1_555 1_555
C9_3 C18_3 1_555 1_555
C18_3 C19_3 1_555 1_555
C19_3 H6_3 1_555 1_555
C28_4 C4_4 1_555 1_555
H11_4 C28_4 1_555 1_555
C29_4 N1_4 1_555 1_555
H12_4 C29_4 1_555 1_555
C31_3 C6_3 1_555 1_555
H14_3 C31_3 1_555 1_555
C39_3 C23_3 1_555 1_555
H22_3 C39_3 1_555 1_555
H23_3 C39_3 1_555 1_555
H24_3 C39_3 1_555 1_555
N3_2 Zn3_2 1_555 1_555
C9_3 C31_3 1_555 1_555
C18_3 C28_4 1_555 1_555
C19_3 C29_4 1_555 1_555
S1_3 C2_4 1_555 1_555
S2_4 C9_4 1_555 1_555
C2_4 C13_4 1_555 1_555
F1_3 C11_3 1_555 1_555
C5_3 C7_3 1_555 1_555
F2_3 C11_3 1_555 1_555
N3_2 C16_4 1_555 1_555
C6_4 C7_3 1_555 1_555
C7_3 C32_3 1_555 1_555
C9_4 C18_4 1_555 1_555
C10_3 S2_4 1_555 1_555
C11_3 C5_3 1_555 1_555
C13_4 H3_4 1_555 1_555
C14_3 C5_3 1_555 1_555
C16_4 H4_4 1_555 1_555
C18_4 C19_4 1_555 1_555
C19_4 H6_4 1_555 1_555
C23_4 S1_3 1_555 1_555
C25_4 C2_4 1_555 1_555
F3_4 C32_3 1_555 1_555
C30_4 C16_4 1_555 1_555
H13_3 C30_4 1_555 1_555
C31_4 C6_4 1_555 1_555
H14_4 C31_4 1_555 1_555
C32_3 F4_3 1_555 1_555
C33_4 N3_2 1_555 1_555
F5_3 C38_3 1_555 1_555
C36_3 C10_3 1_555 1_555
H18_3 C36_3 1_555 1_555
H19_3 C36_3 1_555 1_555
H20_3 C36_3 1_555 1_555
C37_4 C25_4 1_555 1_555
H21_4 C37_4 1_555 1_555
C38_3 C11_3 1_555 1_555
F6_3 C38_3 1_555 1_555
C39_4 C23_4 1_555 1_555
H22_4 C39_4 1_555 1_555
H23_4 C39_4 1_555 1_555
H24_4 C39_4 1_555 1_555
C6_4 C10_3 1_555 1_555
C9_4 C31_4 1_555 1_555
C13_4 C14_3 1_555 1_555
C14_3 C23_4 1_555 1_555
C25_4 C30_4 1_555 1_555
C32_3 C38_3 1_555 1_555
C33_4 C37_4 1_555 1_555
F1_4 C11_4 1_555 1_555
C5_4 C7_4 1_555 1_555
F2_4 C11_4 1_555 1_555
C7_4 C32_4 1_555 1_555
C11_4 C5_4 1_555 1_555
C14_4 C5_4 1_555 1_555
C32_4 F4_4 1_555 1_555
F5_4 C38_4 1_555 1_555
C36_4 C10_4 1_555 1_555
H18_4 C36_4 1_555 1_555
H19_4 C36_4 1_555 1_555
H20_4 C36_4 1_555 1_555
C38_4 C11_4 1_555 1_555
F6_4 C38_4 1_555 1_555
C32_4 C38_4 1_555 1_555

#END
