
###############################################################################
#
# This file contains modified crystal structure data generated from the
# MOF subset of the Cambridge Structural Database (CSD) v543 
# hosted by the Cambridge Crystallographic Data Centre (CCDC).
#
# This work is licensed under the Creative Commons
# Attribution-NonCommercial-ShareAlike 4.0 International License.
# To view a copy of this license, visit
# http://creativecommons.org/licenses/by-nc-sa/4.0/
# or send a letter to
# Creative Commons, PO Box 1866, Mountain View, CA 94042, USA.
#
# CIF created using the CSD Python API on 29 September 2022
# The structure has been converted into the P1 space group
# The structure has a 3D framework
# The original CSD entry YOLKOB05 is in the orthorhombic crystal system
# The original CSD entry YOLKOB05 is in a Sohncke space group
# The framework has been calculated to contain at least 10.0% void space
# The void calculation uses a probe of radius 1.32A, grid spacing 0.4
#
###############################################################################

data_YOLKOB05
_chemical_formula_moiety         '(C156 H96 F24 N8 O16 S8 Zn4)n'
_symmetry_cell_setting           triclinic
_symmetry_space_group_name_H-M   'P 1'
_symmetry_Int_Tables_number      1
_space_group_name_Hall           'P 1'
loop_
_symmetry_equiv_pos_site_id
_symmetry_equiv_pos_as_xyz
1 x,y,z
_cell_length_a                   7.033(3)
_cell_length_b                   25.167(15)
_cell_length_c                   29.00(4)
_cell_angle_alpha                90
_cell_angle_beta                 90
_cell_angle_gamma                90
_cell_volume                     5132.99
loop_
_atom_site_label
_atom_site_type_symbol
_atom_site_fract_x
_atom_site_fract_y
_atom_site_fract_z
H7 H 0.0216 0.5615 0.3379
C16 C 0.074(5) 0.6361(19) 0.3155(18)
H8 H 0.1870 0.6409 0.3316
C17 C 0.004(5) 0.6767(15) 0.2877(19)
C26 C 0.321(7) 0.7194(18) 0.288(3)
H15 H 0.3653 0.6898 0.3042
C27 C 0.443(6) 0.7616(19) 0.279(3)
H16 H 0.5685 0.7602 0.2889
C28 C 0.376(6) 0.8058(18) 0.255(3)
C29 C 0.188(7) 0.8078(19) 0.241(3)
H17 H 0.1441 0.8374 0.2248
C30 C 0.067(6) 0.766(2) 0.250(3)
C31 C 0.133(7) 0.721(2) 0.274(3)
C39 C 0.485(7) 0.857(2) 0.261(2)
O3 O 0.392(7) 0.898(2) 0.252(3)
O4 O 0.654(8) 0.8572(18) 0.273(2)
Zn3 Zn 0.5828(14) 0.9573(4) 0.2373(6)
N1 N 0.801(5) 0.990(2) 0.281(2)
C13 C 0.933(7) 0.9529(17) 0.296(2)
H6 H 0.9136 0.9171 0.2896
C7 C 0.880(4) 0.8532(19) 0.0100(17)
H2 H 0.7509 0.8458 0.0077
C8 C 0.970(4) 0.8806(18) 0.0468(14)
C21 C 0.582(5) 0.893(2) 0.134(2)
H11 H 0.4548 0.8826 0.1370
N2 N 0.664(9) 0.9241(19) 0.1682(16)
C22 C 0.854(9) 0.9391(16) 0.1643(18)
H12 H 0.9095 0.9601 0.1870
C23 C 0.961(5) 0.9226(19) 0.127(2)
C24 C 0.878(7) 0.891(2) 0.0928(16)
C25 C 0.688(7) 0.8761(18) 0.0966(17)
H14 H 0.6327 0.8550 0.0740
O2 O 0.290(6) 0.994(2) 0.176(3)
Zn1 Zn 0.4172(14) 0.4573(4) 0.2627(6)
C3 C 0.003(7) 0.4009(9) 0.615(2)
C4 C 0.085(5) 0.4518(11) 0.607(2)
C7_2 C 0.120(4) 0.3532(19) 0.4900(17)
H2_2 H 0.2491 0.3458 0.4923
C8_2 C 0.030(4) 0.3806(18) 0.4532(14)
O1 O 0.542(6) 0.5254(19) 0.279(3)
C14 C 0.692(9) 0.531(2) 0.302(4)
C15 C 0.975(6) 0.5886(18) 0.319(2)
C18 C 0.835(6) 0.6696(18) 0.264(2)
H9 H 0.7885 0.6967 0.2450
C19 C 0.736(5) 0.6220(19) 0.267(2)
H10 H 0.6231 0.6173 0.2512
C20 C 0.806(6) 0.5815(15) 0.295(2)
C21_2 C 0.418(5) 0.393(2) 0.366(2)
H11_2 H 0.5452 0.3826 0.3630
N2_2 N 0.336(9) 0.4241(19) 0.3318(16)
C22_2 C 0.146(9) 0.4391(16) 0.3357(18)
H12_2 H 0.0905 0.4601 0.3130
C23_2 C 0.039(5) 0.4226(19) 0.373(2)
C24_2 C 0.122(7) 0.391(2) 0.4072(16)
C25_2 C 0.312(7) 0.3761(18) 0.4034(17)
H14_2 H 0.3673 0.3550 0.4260
H18 H 0.9408 0.7670 0.2400
O2_2 O 0.710(6) 0.494(2) 0.324(3)
F1 F 0.041(8) 0.2309(18) 0.550(2)
F2 F 0.332(7) 0.2617(17) 0.542(2)
C32 C 0.070(8) 0.3451(14) 0.608(4)
C33 C 0.128(11) 0.306(4) 0.6408(17)
C34 C 0.198(9) 0.2615(19) 0.616(3)
C35 C 0.184(11) 0.273(3) 0.568(3)
C36 C 0.105(10) 0.325(4) 0.563(2)
C37 C 0.258(7) 0.461(2) 0.578(2)
H19 H 0.2325 0.4490 0.5466
H20 H 0.3629 0.4408 0.5899
H21 H 0.2894 0.4978 0.5773
F4 F 0.234(7) 0.3194(17) 0.690(2)
F5 F 0.177(6) 0.2098(14) 0.6357(19)
F6 F 0.463(6) 0.2690(17) 0.625(2)
N3 N 0.199(5) 0.490(2) 0.219(2)
O5 O 0.608(7) 0.398(2) 0.248(3)
C9 C 0.170(6) 0.544(2) 0.209(2)
H3 H 0.2584 0.5691 0.2187
C10 C 0.010(7) 0.5598(17) 0.184(2)
C13_2 C 0.067(7) 0.4529(17) 0.204(2)
H6_2 H 0.0864 0.4171 0.2104
H7_2 H 0.9784 0.0615 0.1621
C16_2 C 0.926(5) 0.1361(19) 0.1845(18)
H8_2 H 0.8130 0.1409 0.1684
C17_2 C 0.996(5) 0.1767(15) 0.2123(19)
C26_2 C 0.679(7) 0.2194(18) 0.212(3)
H15_2 H 0.6347 0.1898 0.1958
C27_2 C 0.557(6) 0.2616(19) 0.221(3)
H16_2 H 0.4315 0.2602 0.2111
C28_2 C 0.624(6) 0.3058(18) 0.245(3)
C29_2 C 0.812(7) 0.3078(19) 0.259(3)
H17_2 H 0.8559 0.3374 0.2752
C30_2 C 0.933(6) 0.266(2) 0.250(3)
C31_2 C 0.867(7) 0.221(2) 0.226(3)
C39_2 C 0.515(7) 0.357(2) 0.239(2)
O4_2 O 0.346(8) 0.3572(18) 0.227(2)
S1 S 0.954(3) 0.4906(8) 0.6230(11)
C1 C 0.792(5) 0.4637(13) 0.641(2)
C2 C 0.822(7) 0.4083(12) 0.635(2)
H1 H 0.7385 0.3815 0.6440
S2 S 0.832(3) 0.3833(10) 0.4631(11)
C5 C 0.800(5) 0.3576(18) 0.5060(13)
C6 C 0.978(7) 0.339(2) 0.5226(14)
N1_2 N 0.301(5) 0.510(2) 0.719(2)
C9_2 C 0.330(6) 0.456(2) 0.709(2)
H3_2 H 0.2416 0.4309 0.7187
C10_2 C 0.490(7) 0.4402(17) 0.684(2)
H4 H 0.5086 0.4044 0.6778
C11 C 0.621(5) 0.478(2) 0.6696(17)
C12 C 0.593(6) 0.531(2) 0.6794(19)
H5 H 0.6807 0.5563 0.6695
C13_3 C 0.433(7) 0.5471(17) 0.704(2)
H6_3 H 0.4136 0.5829 0.7104
H13 H 0.9125 0.4326 0.3760
F3 F 0.972(7) 0.2765(19) 0.674(2)
C38 C 0.619(9) 0.358(4) 0.533(3)
H22 H 0.5660 0.3229 0.5343
H23 H 0.5292 0.3818 0.5192
H24 H 0.6446 0.3699 0.5642
Zn2 Zn 0.0828(14) 0.5427(4) 0.7627(6)
S2_2 S 0.668(3) 0.6167(10) 0.9631(11)
C7_3 C 0.380(4) 0.6468(19) 0.9900(17)
H2_3 H 0.2509 0.6542 0.9923
C8_3 C 0.470(4) 0.6194(18) 0.9532(14)
C21_3 C 0.082(5) 0.607(2) 0.866(2)
N2_3 N 0.164(9) 0.5759(19) 0.8318(16)
C22_3 C 0.354(9) 0.5609(16) 0.8357(18)
H12_3 H 0.4095 0.5399 0.8130
C23_3 C 0.461(5) 0.5774(19) 0.873(2)
H13_2 H 0.5875 0.5674 0.8760
C24_3 C 0.378(7) 0.609(2) 0.9072(16)
C25_3 C 0.188(7) 0.6239(18) 0.9034(17)
H14_3 H 0.1327 0.6450 0.9260
H16_3 H 0.0685 0.7398 0.7111
O4_3 O 0.154(8) 0.6428(18) 0.727(2)
S1_2 S 0.546(3) 0.5094(8) 0.1230(11)
C1_2 C 0.708(5) 0.5363(13) 0.141(2)
C2_2 C 0.678(7) 0.5917(12) 0.135(2)
H1_2 H 0.7615 0.6185 0.1440
C3_2 C 0.497(7) 0.5991(9) 0.115(2)
C4_2 C 0.415(5) 0.5482(11) 0.107(2)
C5_2 C 0.700(5) 0.6424(18) 0.0060(13)
C6_2 C 0.522(7) 0.661(2) 0.0226(14)
H4_2 H 0.9914 0.5956 0.1778
C11_2 C 0.879(5) 0.522(2) 0.1696(17)
C12_2 C 0.907(6) 0.469(2) 0.1794(19)
H5_2 H 0.8193 0.4437 0.1695
F1_2 F 0.459(8) 0.7691(18) 0.050(2)
F2_2 F 0.168(7) 0.7383(17) 0.042(2)
C32_2 C 0.430(8) 0.6549(14) 0.108(4)
C33_2 C 0.372(11) 0.694(4) 0.1408(17)
C34_2 C 0.302(9) 0.7385(19) 0.116(3)
C35_2 C 0.316(11) 0.727(3) 0.068(3)
C36_2 C 0.395(10) 0.675(4) 0.063(2)
F3_2 F 0.528(7) 0.7235(19) 0.174(2)
C37_2 C 0.242(7) 0.539(2) 0.078(2)
H19_2 H 0.2675 0.5510 0.0466
H20_2 H 0.1371 0.5592 0.0899
H21_2 H 0.2106 0.5022 0.0773
C38_2 C 0.881(9) 0.642(4) 0.033(3)
H22_2 H 0.9340 0.6771 0.0343
H23_2 H 0.9708 0.6182 0.0192
H24_2 H 0.8554 0.6301 0.0642
F4_2 F 0.266(7) 0.6806(17) 0.190(2)
F5_2 F 0.323(6) 0.7902(14) 0.1357(19)
F6_2 F 0.037(6) 0.7310(17) 0.125(2)
O1_2 O 0.958(6) 0.4746(19) 0.779(3)
C14_2 C 0.808(9) 0.469(2) 0.802(4)
C15_2 C 0.525(6) 0.4114(18) 0.819(2)
H7_3 H 0.4784 0.4385 0.8379
C16_3 C 0.426(5) 0.3639(19) 0.8155(18)
H8_3 H 0.3130 0.3591 0.8316
C17_3 C 0.496(5) 0.3233(15) 0.7877(19)
C18_2 C 0.665(6) 0.3304(18) 0.764(2)
H9_2 H 0.7115 0.3033 0.7450
C19_2 C 0.764(5) 0.3780(19) 0.767(2)
H10_2 H 0.8769 0.3827 0.7512
C20_2 C 0.694(6) 0.4185(15) 0.795(2)
H11_3 H 0.9548 0.6174 0.8630
C26_3 C 0.179(7) 0.2806(18) 0.788(3)
H15_3 H 0.1347 0.3102 0.8042
C27_3 C 0.057(6) 0.2384(19) 0.779(3)
C28_3 C 0.124(6) 0.1942(18) 0.755(3)
C29_3 C 0.312(7) 0.1922(19) 0.741(3)
H17_3 H 0.3559 0.1626 0.7248
C30_3 C 0.433(6) 0.234(2) 0.750(3)
H18_2 H 0.5592 0.2330 0.7400
C31_3 C 0.367(7) 0.279(2) 0.774(3)
O2_3 O 0.790(6) 0.506(2) 0.824(3)
C39_3 C 0.015(7) 0.143(2) 0.761(2)
O3_2 O 0.108(7) 0.102(2) 0.752(3)
O5_2 O 0.892(7) 0.602(2) 0.748(3)
H11_4 H 0.0452 0.1174 0.6370
O2_4 O 0.210(6) 0.006(2) 0.676(3)
O1_3 O 0.042(6) 0.9746(19) 0.721(3)
C14_3 C 0.192(9) 0.969(2) 0.698(4)
C15_3 C 0.475(6) 0.9114(18) 0.681(2)
H7_4 H 0.5216 0.9385 0.6621
C16_4 C 0.574(5) 0.8639(19) 0.6845(18)
H8_4 H 0.6870 0.8591 0.6684
C17_4 C 0.504(5) 0.8233(15) 0.7123(19)
C18_3 C 0.335(6) 0.8304(18) 0.736(2)
H9_3 H 0.2885 0.8033 0.7550
C19_3 C 0.236(5) 0.8780(19) 0.733(2)
H10_3 H 0.1231 0.8827 0.7488
C20_3 C 0.306(6) 0.9185(15) 0.705(2)
C26_4 C 0.821(7) 0.7806(18) 0.712(3)
H15_4 H 0.8653 0.8102 0.6958
C27_4 C 0.943(6) 0.7384(19) 0.721(3)
C28_4 C 0.876(6) 0.6942(18) 0.745(3)
C29_4 C 0.688(7) 0.6922(19) 0.759(3)
H17_4 H 0.6441 0.6626 0.7752
C30_4 C 0.567(6) 0.734(2) 0.750(3)
H18_3 H 0.4408 0.7330 0.7600
C31_4 C 0.633(7) 0.779(2) 0.726(3)
C39_4 C 0.985(7) 0.643(2) 0.739(2)
H16_4 H 0.9315 0.2398 0.7889
O4_4 O 0.846(8) 0.1428(18) 0.773(2)
Zn3_2 Zn 0.9172(14) 0.0427(4) 0.7373(6)
S1_3 S 0.454(3) 0.0094(8) 0.3770(11)
C1_3 C 0.292(5) 0.0363(13) 0.359(2)
C2_3 C 0.322(7) 0.0917(12) 0.365(2)
H1_3 H 0.2385 0.1185 0.3560
C3_3 C 0.503(7) 0.0991(9) 0.385(2)
C4_3 C 0.585(5) 0.0482(11) 0.393(2)
S2_3 S 0.332(3) 0.1167(10) 0.5369(11)
C5_3 C 0.300(5) 0.1424(18) 0.4940(13)
C6_3 C 0.478(7) 0.161(2) 0.4774(14)
C7_4 C 0.620(4) 0.1468(19) 0.5100(17)
H2_4 H 0.7491 0.1542 0.5077
C8_4 C 0.530(4) 0.1194(18) 0.5468(14)
H4_3 H 0.0086 0.0956 0.3222
C11_3 C 0.121(5) 0.022(2) 0.3304(17)
C21_4 C 0.918(5) 0.107(2) 0.634(2)
N2_4 N 0.836(9) 0.0759(19) 0.6682(16)
C22_4 C 0.646(9) 0.0609(16) 0.6643(18)
H12_4 H 0.5905 0.0399 0.6870
C23_4 C 0.539(5) 0.0774(19) 0.627(2)
H13_3 H 0.4125 0.0674 0.6240
C24_4 C 0.622(7) 0.109(2) 0.5928(16)
C25_4 C 0.812(7) 0.1239(18) 0.5966(17)
H14_4 H 0.8673 0.1450 0.5740
F1_3 F 0.541(8) 0.2691(18) 0.450(2)
F2_3 F 0.832(7) 0.2383(17) 0.458(2)
C32_3 C 0.570(8) 0.1549(14) 0.392(4)
C33_3 C 0.628(11) 0.194(4) 0.3592(17)
C34_3 C 0.698(9) 0.2385(19) 0.384(3)
C35_3 C 0.684(11) 0.227(3) 0.432(3)
C36_3 C 0.605(10) 0.175(4) 0.437(2)
F3_3 F 0.472(7) 0.2235(19) 0.326(2)
C37_3 C 0.758(7) 0.039(2) 0.422(2)
H19_3 H 0.7325 0.0510 0.4534
H20_3 H 0.8629 0.0592 0.4101
H21_3 H 0.7894 0.0022 0.4227
C38_3 C 0.119(9) 0.142(4) 0.467(3)
H22_3 H 0.0660 0.1771 0.4657
H23_3 H 0.0292 0.1182 0.4808
H24_3 H 0.1446 0.1301 0.4358
F4_3 F 0.734(7) 0.1806(17) 0.310(2)
F5_3 F 0.677(6) 0.2902(14) 0.3643(19)
F6_3 F 0.963(6) 0.2310(17) 0.375(2)
N3_2 N 0.699(5) 0.010(2) 0.781(2)
C12_3 C 0.407(6) 0.031(2) 0.8206(19)
H5_3 H 0.3193 0.0563 0.8305
C13_4 C 0.567(7) 0.0471(17) 0.796(2)
H6_4 H 0.5864 0.0829 0.7896
C12_4 C 0.093(6) 0.969(2) 0.3206(19)
H5_4 H 0.1807 0.9437 0.3305
C9_3 C 0.830(6) 0.044(2) 0.291(2)
H3_3 H 0.7416 0.0691 0.2813
C10_3 C 0.990(7) 0.0598(17) 0.316(2)
S2_4 S 0.168(3) 0.8833(10) 0.0369(11)
H13_4 H 0.0875 0.9326 0.1240
S1_4 S 0.046(3) 0.9906(8) 0.8770(11)
C1_4 C 0.208(5) 0.9637(13) 0.859(2)
C2_4 C 0.178(7) 0.9083(12) 0.865(2)
H1_4 H 0.2615 0.8815 0.8560
C5_4 C 0.200(5) 0.8576(18) 0.9940(13)
C6_4 C 0.022(7) 0.839(2) 0.9774(14)
C9_4 C 0.670(6) 0.956(2) 0.791(2)
H3_4 H 0.7584 0.9309 0.7813
C10_4 C 0.510(7) 0.9402(17) 0.816(2)
H4_4 H 0.4914 0.9044 0.8222
C11_4 C 0.379(5) 0.978(2) 0.8304(17)
F3_4 F 0.028(7) 0.7765(19) 0.826(2)
C38_4 C 0.381(9) 0.858(4) 0.967(3)
H22_4 H 0.4340 0.8229 0.9657
H23_4 H 0.4708 0.8818 0.9808
H24_4 H 0.3554 0.8699 0.9358
O1_4 O 0.458(6) 0.0254(19) 0.221(3)
C14_4 C 0.308(9) 0.031(2) 0.198(4)
C15_4 C 0.025(6) 0.0886(18) 0.181(2)
C18_4 C 0.165(6) 0.1696(18) 0.236(2)
H9_4 H 0.2115 0.1967 0.2550
C19_4 C 0.264(5) 0.1220(19) 0.233(2)
H10_4 H 0.3769 0.1173 0.2488
C20_4 C 0.194(6) 0.0815(15) 0.205(2)
H18_4 H 0.0592 0.2670 0.2600
C3_4 C 0.997(7) 0.9009(9) 0.885(2)
C4_4 C 0.915(5) 0.9518(11) 0.893(2)
F1_4 F 0.959(8) 0.7309(18) 0.950(2)
F2_4 F 0.668(7) 0.7617(17) 0.958(2)
C32_4 C 0.930(8) 0.8451(14) 0.892(4)
C33_4 C 0.872(11) 0.806(4) 0.8592(17)
C34_4 C 0.802(9) 0.7615(19) 0.884(3)
C35_4 C 0.816(11) 0.773(3) 0.932(3)
C36_4 C 0.895(10) 0.825(4) 0.937(2)
C37_4 C 0.742(7) 0.961(2) 0.922(2)
H19_4 H 0.7675 0.9490 0.9534
H20_4 H 0.6371 0.9408 0.9101
H21_4 H 0.7106 0.9978 0.9227
F4_4 F 0.766(7) 0.8194(17) 0.810(2)
F5_4 F 0.823(6) 0.7098(14) 0.8643(19)
F6_4 F 0.537(6) 0.7690(17) 0.875(2)
loop_
_geom_bond_atom_site_label_1
_geom_bond_atom_site_label_2
_geom_bond_site_symmetry_1
_geom_bond_site_symmetry_2
H8 C16 1_555 1_555
C17 C16 1_555 1_555
C26 H15 1_555 1_555
C27 C26 1_555 1_555
H16 C27 1_555 1_555
C28 C27 1_555 1_555
C29 C28 1_555 1_555
H17 C29 1_555 1_555
C30 C29 1_555 1_555
C31 C17 1_555 1_555
C39 C28 1_555 1_555
O3 C39 1_555 1_555
O4 C39 1_555 1_555
Zn3 O3 1_555 1_555
C26 C31 1_555 1_555
C30 C31 1_555 1_555
C13 N1 1_555 1_555
H6 C13 1_555 1_555
Zn3 N1 1_555 1_555
C7 H2 1_555 1_555
C21 H11 1_555 1_555
N2 Zn3 1_555 1_555
C22 N2 1_555 1_555
H12 C22 1_555 1_555
C23 C22 1_555 1_555
C24 C8 1_555 1_555
C25 C21 1_555 1_555
H14 C25 1_555 1_555
C7 C8 1_555 1_555
C21 N2 1_555 1_555
C23 C24 1_555 1_555
C24 C25 1_555 1_555
Zn1 O1 1_555 1_555
C7_2 H2_2 1_555 1_555
O1 C14 1_555 1_555
C14 C20 1_555 1_555
H9 C18 1_555 1_555
C19 C18 1_555 1_555
H10 C19 1_555 1_555
C20 C15 1_555 1_555
C21_2 H11_2 1_555 1_555
N2_2 Zn1 1_555 1_555
C22_2 N2_2 1_555 1_555
H12_2 C22_2 1_555 1_555
C23_2 C22_2 1_555 1_555
C24_2 C8_2 1_555 1_555
C25_2 C21_2 1_555 1_555
H14_2 C25_2 1_555 1_555
O2_2 C14 1_555 1_555
F1 C35 1_555 1_555
F2 C35 1_555 1_555
C32 C3 1_555 1_555
C33 C32 1_555 1_555
C34 C33 1_555 1_555
C35 C34 1_555 1_555
C37 C4 1_555 1_555
H19 C37 1_555 1_555
H20 C37 1_555 1_555
H21 C37 1_555 1_555
F4 C33 1_555 1_555
F5 C34 1_555 1_555
F6 C34 1_555 1_555
N3 Zn1 1_555 1_555
O5 Zn1 1_555 1_555
C3 C4 1_555 1_555
C7_2 C8_2 1_555 1_555
C19 C20 1_555 1_555
C21_2 N2_2 1_555 1_555
C23_2 C24_2 1_555 1_555
C24_2 C25_2 1_555 1_555
C32 C36 1_555 1_555
C35 C36 1_555 1_555
N3 C9 1_555 1_555
C9 H3 1_555 1_555
C10 C9 1_555 1_555
C13_2 N3 1_555 1_555
H6_2 C13_2 1_555 1_555
H8_2 C16_2 1_555 1_555
C17_2 C16_2 1_555 1_555
C26_2 H15_2 1_555 1_555
C27_2 C26_2 1_555 1_555
H16_2 C27_2 1_555 1_555
C28_2 C27_2 1_555 1_555
C29_2 C28_2 1_555 1_555
H17_2 C29_2 1_555 1_555
C30_2 C29_2 1_555 1_555
C31_2 C17_2 1_555 1_555
C39_2 C28_2 1_555 1_555
O5 C39_2 1_555 1_555
O4_2 C39_2 1_555 1_555
C26_2 C31_2 1_555 1_555
C30_2 C31_2 1_555 1_555
S1 C1 1_555 1_555
C1 C2 1_555 1_555
C2 H1 1_555 1_555
S2 C5 1_555 1_555
C5 C6 1_555 1_555
N1_2 C9_2 1_555 1_555
C9_2 H3_2 1_555 1_555
C10_2 C9_2 1_555 1_555
H4 C10_2 1_555 1_555
C11 C1 1_555 1_555
C12 C11 1_555 1_555
H5 C12 1_555 1_555
C13_3 N1_2 1_555 1_555
H6_3 C13_3 1_555 1_555
C38 C5 1_555 1_555
H22 C38 1_555 1_555
H23 C38 1_555 1_555
H24 C38 1_555 1_555
Zn2 N1_2 1_555 1_555
C10_2 C11 1_555 1_555
C12 C13_3 1_555 1_555
C7_3 H2_3 1_555 1_555
C8_3 S2_2 1_555 1_555
N2_3 Zn2 1_555 1_555
C22_3 N2_3 1_555 1_555
H12_3 C22_3 1_555 1_555
C23_3 C22_3 1_555 1_555
H13_2 C23_3 1_555 1_555
C24_3 C8_3 1_555 1_555
C25_3 C21_3 1_555 1_555
H14_3 C25_3 1_555 1_555
C7_3 C8_3 1_555 1_555
C21_3 N2_3 1_555 1_555
C23_3 C24_3 1_555 1_555
C24_3 C25_3 1_555 1_555
S1_2 C1_2 1_555 1_555
C1_2 C2_2 1_555 1_555
C2_2 H1_2 1_555 1_555
C3_2 C2_2 1_555 1_555
C4_2 S1_2 1_555 1_555
C5_2 C6_2 1_555 1_555
C11_2 C1_2 1_555 1_555
C12_2 C11_2 1_555 1_555
H5_2 C12_2 1_555 1_555
F1_2 C35_2 1_555 1_555
F2_2 C35_2 1_555 1_555
C32_2 C3_2 1_555 1_555
C33_2 C32_2 1_555 1_555
C34_2 C33_2 1_555 1_555
C35_2 C34_2 1_555 1_555
C36_2 C6_2 1_555 1_555
F3_2 C33_2 1_555 1_555
C37_2 C4_2 1_555 1_555
H19_2 C37_2 1_555 1_555
H20_2 C37_2 1_555 1_555
H21_2 C37_2 1_555 1_555
C38_2 C5_2 1_555 1_555
H22_2 C38_2 1_555 1_555
H23_2 C38_2 1_555 1_555
H24_2 C38_2 1_555 1_555
F4_2 C33_2 1_555 1_555
F5_2 C34_2 1_555 1_555
F6_2 C34_2 1_555 1_555
C3_2 C4_2 1_555 1_555
C32_2 C36_2 1_555 1_555
C35_2 C36_2 1_555 1_555
O1_2 C14_2 1_555 1_555
C14_2 C20_2 1_555 1_555
C15_2 H7_3 1_555 1_555
C16_3 C15_2 1_555 1_555
H8_3 C16_3 1_555 1_555
C17_3 C16_3 1_555 1_555
C18_2 C17_3 1_555 1_555
H9_2 C18_2 1_555 1_555
C19_2 C18_2 1_555 1_555
H10_2 C19_2 1_555 1_555
C20_2 C15_2 1_555 1_555
C26_3 H15_3 1_555 1_555
C27_3 C26_3 1_555 1_555
C28_3 C27_3 1_555 1_555
C29_3 C28_3 1_555 1_555
H17_3 C29_3 1_555 1_555
C30_3 C29_3 1_555 1_555
H18_2 C30_3 1_555 1_555
C31_3 C17_3 1_555 1_555
O2_3 C14_2 1_555 1_555
C39_3 C28_3 1_555 1_555
O3_2 C39_3 1_555 1_555
C19_2 C20_2 1_555 1_555
C26_3 C31_3 1_555 1_555
C30_3 C31_3 1_555 1_555
O1_3 C14_3 1_555 1_555
C14_3 C20_3 1_555 1_555
C15_3 H7_4 1_555 1_555
C16_4 C15_3 1_555 1_555
H8_4 C16_4 1_555 1_555
C17_4 C16_4 1_555 1_555
C18_3 C17_4 1_555 1_555
H9_3 C18_3 1_555 1_555
C19_3 C18_3 1_555 1_555
H10_3 C19_3 1_555 1_555
C20_3 C15_3 1_555 1_555
C26_4 H15_4 1_555 1_555
C27_4 C26_4 1_555 1_555
C28_4 C27_4 1_555 1_555
C29_4 C28_4 1_555 1_555
H17_4 C29_4 1_555 1_555
C30_4 C29_4 1_555 1_555
H18_3 C30_4 1_555 1_555
C31_4 C17_4 1_555 1_555
C39_4 C28_4 1_555 1_555
O5_2 C39_4 1_555 1_555
C19_3 C20_3 1_555 1_555
C26_4 C31_4 1_555 1_555
C30_4 C31_4 1_555 1_555
S1_3 C1_3 1_555 1_555
C1_3 C2_3 1_555 1_555
C2_3 H1_3 1_555 1_555
C3_3 C2_3 1_555 1_555
C4_3 S1_3 1_555 1_555
S2_3 C5_3 1_555 1_555
C5_3 C6_3 1_555 1_555
C6_3 C7_4 1_555 1_555
C7_4 H2_4 1_555 1_555
C8_4 S2_3 1_555 1_555
C11_3 C1_3 1_555 1_555
N2_4 Zn3_2 1_555 1_555
C22_4 N2_4 1_555 1_555
H12_4 C22_4 1_555 1_555
C23_4 C22_4 1_555 1_555
H13_3 C23_4 1_555 1_555
C24_4 C8_4 1_555 1_555
C25_4 C21_4 1_555 1_555
H14_4 C25_4 1_555 1_555
F1_3 C35_3 1_555 1_555
F2_3 C35_3 1_555 1_555
C32_3 C3_3 1_555 1_555
C33_3 C32_3 1_555 1_555
C34_3 C33_3 1_555 1_555
C35_3 C34_3 1_555 1_555
C36_3 C6_3 1_555 1_555
F3_3 C33_3 1_555 1_555
C37_3 C4_3 1_555 1_555
H19_3 C37_3 1_555 1_555
H20_3 C37_3 1_555 1_555
H21_3 C37_3 1_555 1_555
C38_3 C5_3 1_555 1_555
H22_3 C38_3 1_555 1_555
H23_3 C38_3 1_555 1_555
H24_3 C38_3 1_555 1_555
F4_3 C33_3 1_555 1_555
F5_3 C34_3 1_555 1_555
F6_3 C34_3 1_555 1_555
N3_2 Zn3_2 1_555 1_555
C3_3 C4_3 1_555 1_555
C7_4 C8_4 1_555 1_555
C21_4 N2_4 1_555 1_555
C23_4 C24_4 1_555 1_555
C24_4 C25_4 1_555 1_555
C32_3 C36_3 1_555 1_555
C35_3 C36_3 1_555 1_555
H5_3 C12_3 1_555 1_555
C13_4 N3_2 1_555 1_555
H6_4 C13_4 1_555 1_555
C12_3 C13_4 1_555 1_555
H5_4 C12_4 1_555 1_555
C9_3 H3_3 1_555 1_555
C10_3 C9_3 1_555 1_555
S1_4 C1_4 1_555 1_555
C1_4 C2_4 1_555 1_555
C2_4 H1_4 1_555 1_555
C5_4 C6_4 1_555 1_555
C9_4 H3_4 1_555 1_555
C10_4 C9_4 1_555 1_555
H4_4 C10_4 1_555 1_555
C11_4 C1_4 1_555 1_555
C38_4 C5_4 1_555 1_555
H22_4 C38_4 1_555 1_555
H23_4 C38_4 1_555 1_555
H24_4 C38_4 1_555 1_555
C10_4 C11_4 1_555 1_555
O1_4 C14_4 1_555 1_555
C14_4 C20_4 1_555 1_555
H9_4 C18_4 1_555 1_555
C19_4 C18_4 1_555 1_555
H10_4 C19_4 1_555 1_555
C20_4 C15_4 1_555 1_555
C19_4 C20_4 1_555 1_555
F1_4 C35_4 1_555 1_555
F2_4 C35_4 1_555 1_555
C32_4 C3_4 1_555 1_555
C33_4 C32_4 1_555 1_555
C34_4 C33_4 1_555 1_555
C35_4 C34_4 1_555 1_555
C37_4 C4_4 1_555 1_555
H19_4 C37_4 1_555 1_555
H20_4 C37_4 1_555 1_555
H21_4 C37_4 1_555 1_555
F4_4 C33_4 1_555 1_555
F5_4 C34_4 1_555 1_555
F6_4 C34_4 1_555 1_555
C3_4 C4_4 1_555 1_555
C32_4 C36_4 1_555 1_555
C35_4 C36_4 1_555 1_555

#END
