
###############################################################################
#
# This file contains modified crystal structure data generated from the
# MOF subset of the Cambridge Structural Database (CSD) v543 
# hosted by the Cambridge Crystallographic Data Centre (CCDC).
#
# This work is licensed under the Creative Commons
# Attribution-NonCommercial-ShareAlike 4.0 International License.
# To view a copy of this license, visit
# http://creativecommons.org/licenses/by-nc-sa/4.0/
# or send a letter to
# Creative Commons, PO Box 1866, Mountain View, CA 94042, USA.
#
# CIF created using the CSD Python API on 29 September 2022
# The structure has been converted into the P1 space group
# The structure has a 3D framework
# The original CSD entry YOLKOB03 is in the orthorhombic crystal system
# The original CSD entry YOLKOB03 is in a Sohncke space group
# The framework has been calculated to contain at least 10.0% void space
# The void calculation uses a probe of radius 1.32A, grid spacing 0.4
#
###############################################################################

data_YOLKOB03
_chemical_formula_moiety         '(C156 H96 F26 N8 O16 S8 Zn4)n'
_symmetry_cell_setting           triclinic
_symmetry_space_group_name_H-M   'P 1'
_symmetry_Int_Tables_number      1
_space_group_name_Hall           'P 1'
loop_
_symmetry_equiv_pos_site_id
_symmetry_equiv_pos_as_xyz
1 x,y,z
_cell_length_a                   6.9346(16)
_cell_length_b                   25.153(13)
_cell_length_c                   28.98(2)
_cell_angle_alpha                90
_cell_angle_beta                 90
_cell_angle_gamma                90
_cell_volume                     5054.87
loop_
_atom_site_label
_atom_site_type_symbol
_atom_site_fract_x
_atom_site_fract_y
_atom_site_fract_z
O2 O 0.414(11) 0.906(4) 0.247(4)
O4 O 0.680(10) 0.851(3) 0.268(2)
H3 H 0.021747 0.561989 0.340005
C17 C 0.082(7) 0.635(3) 0.315(2)
H4 H 0.197913 0.639610 0.330357
C18 C 0.014(10) 0.675(2) 0.286(3)
C21 C 0.472(19) 0.873(6) 0.268(5)
C33 C 0.365(11) 0.814(3) 0.272(3)
C34 C 0.167(12) 0.820(3) 0.266(3)
H18 H 0.116723 0.852618 0.258236
C35 C 0.046(7) 0.776(4) 0.271(3)
C36 C 0.121(12) 0.727(3) 0.282(3)
C37 C 0.319(13) 0.721(3) 0.289(3)
H20 H 0.369275 0.687601 0.296575
C38 C 0.440(7) 0.764(4) 0.284(3)
H21 H 0.572485 0.760256 0.288346
Zn3 Zn 0.5844(17) 0.9546(6) 0.2393(5)
C31 C 0.944(9) 0.9506(19) 0.291(2)
H16 H 0.924089 0.914420 0.286206
N2 N 0.810(6) 0.987(3) 0.2746(18)
O3 O 0.278(8) 0.994(3) 0.173(2)
C13 C 0.863(5) 0.855(3) 0.016(3)
H2 H 0.730801 0.848369 0.015262
C14 C 0.967(4) 0.879(2) 0.0524(17)
C22 C 0.849(12) 0.890(3) 0.0950(19)
C23 C 0.656(11) 0.880(3) 0.105(2)
H7 H 0.577930 0.864007 0.082932
C24 C 0.580(7) 0.896(3) 0.147(3)
H8 H 0.450343 0.889392 0.153580
N1 N 0.696(11) 0.920(2) 0.180(2)
C25 C 0.890(10) 0.930(2) 0.170(2)
H9 H 0.967861 0.946282 0.191697
C26 C 0.966(7) 0.915(3) 0.128(3)
Zn1 Zn 0.4156(17) 0.4546(6) 0.2607(5)
C3 C 0.022(11) 0.4017(14) 0.616(3)
C4 C 0.084(7) 0.454(2) 0.605(2)
F1 F 0.064(7) 0.230(2) 0.558(2)
F2 F 0.334(6) 0.261(2) 0.541(2)
F3 F 0.229(9) 0.205(3) 0.628(2)
F4 F 0.413(10) 0.268(3) 0.623(2)
F5 F 0.000(7) 0.279(2) 0.670(2)
F6 F 0.235(9) 0.315(3) 0.686(2)
C5 C 0.068(9) 0.3461(14) 0.611(3)
C6 C 0.144(11) 0.305(4) 0.6397(15)
C7 C 0.195(11) 0.262(2) 0.611(5)
C8 C 0.151(14) 0.276(4) 0.565(3)
C9 C 0.073(10) 0.328(5) 0.565(2)
O1 O 0.558(8) 0.525(2) 0.265(2)
O3_2 O 0.722(8) 0.494(3) 0.327(2)
C10 C 0.678(11) 0.536(3) 0.302(4)
C12 C 0.005(10) 0.343(3) 0.5201(17)
C13_2 C 0.137(5) 0.355(3) 0.484(3)
H2_2 H 0.269199 0.348369 0.484738
C14_2 C 0.033(4) 0.379(2) 0.4476(17)
C15 C 0.803(10) 0.582(2) 0.297(2)
C16 C 0.976(10) 0.589(3) 0.321(2)
C19 C 0.840(11) 0.668(2) 0.262(2)
H5 H 0.794649 0.694773 0.243051
C20 C 0.735(8) 0.622(3) 0.268(2)
H6 H 0.618479 0.617152 0.252698
C22_2 C 0.151(12) 0.390(3) 0.4050(19)
C23_2 C 0.344(11) 0.380(3) 0.395(2)
H7_2 H 0.422070 0.364007 0.417068
C24_2 C 0.420(7) 0.396(3) 0.353(3)
H8_2 H 0.549657 0.389392 0.346420
N1_2 N 0.304(11) 0.420(2) 0.320(2)
C25_2 C 0.110(10) 0.430(2) 0.330(2)
H9_2 H 0.032139 0.446282 0.308303
C26_2 C 0.034(7) 0.415(3) 0.372(3)
C27 C 0.243(11) 0.446(4) 0.580(4)
H11 H 0.213143 0.448712 0.547893
H12 H 0.292641 0.410857 0.586427
H13 H 0.338674 0.471844 0.588152
H19 H 0.913517 0.779962 0.266465
O5 O 0.586(11) 0.406(4) 0.253(4)
N3 N 0.190(6) 0.487(3) 0.2254(18)
C31_2 C 0.056(9) 0.4506(19) 0.209(2)
H16_2 H 0.075911 0.414420 0.213794
C32 C 0.161(7) 0.541(2) 0.218(2)
H17 H 0.250110 0.565750 0.229203
O4_2 O 0.320(10) 0.351(3) 0.232(2)
H3_2 H 0.978253 0.061989 0.159995
C17_2 C 0.918(7) 0.135(3) 0.185(2)
H4_2 H 0.802087 0.139610 0.169643
C18_2 C 0.986(10) 0.175(2) 0.214(3)
C21_2 C 0.528(19) 0.373(6) 0.232(5)
C33_2 C 0.635(11) 0.314(3) 0.228(3)
C34_2 C 0.833(12) 0.320(3) 0.234(3)
H18_2 H 0.883277 0.352618 0.241764
C35_2 C 0.954(7) 0.276(4) 0.229(3)
C36_2 C 0.879(12) 0.227(3) 0.218(3)
C37_2 C 0.681(13) 0.221(3) 0.211(3)
H20_2 H 0.630725 0.187601 0.203425
C38_2 C 0.560(7) 0.264(4) 0.216(3)
H21_2 H 0.427515 0.260256 0.211654
S1 S 0.953(4) 0.4903(11) 0.6257(11)
C1 C 0.810(7) 0.460(2) 0.649(2)
C2 C 0.853(11) 0.4057(17) 0.643(3)
H1 H 0.782211 0.377383 0.655364
F5_2 F 1.000(7) 0.279(2) 0.670(2)
C11 C 0.819(7) 0.360(2) 0.5055(12)
S2 S 0.836(3) 0.3820(11) 0.4607(11)
H10 H 0.904548 0.420898 0.378951
C28 C 0.502(10) 0.441(2) 0.695(3)
H14 H 0.521788 0.405159 0.689980
C29 C 0.636(7) 0.478(3) 0.678(2)
C30 C 0.607(7) 0.532(3) 0.686(2)
H15 H 0.695982 0.556489 0.674572
C31_3 C 0.444(9) 0.5494(19) 0.709(2)
H16_3 H 0.424089 0.585580 0.713794
N2_2 N 0.310(6) 0.513(3) 0.7254(18)
C32_2 C 0.339(7) 0.459(2) 0.718(2)
H17_2 H 0.249890 0.434250 0.729203
C39 C 0.709(10) 0.353(3) 0.547(3)
H22 H 0.770808 0.327205 0.566248
H23 H 0.581606 0.341346 0.539306
H24 H 0.702348 0.386479 0.562906
Zn2 Zn 0.0844(17) 0.5454(6) 0.7607(5)
C13_3 C 0.363(5) 0.645(3) 0.984(3)
H2_3 H 0.230801 0.651631 0.984738
C14_3 C 0.467(4) 0.621(2) 0.9476(17)
S2_2 S 0.664(3) 0.6180(11) 0.9607(11)
C22_3 C 0.349(12) 0.610(3) 0.9050(19)
C23_3 C 0.156(11) 0.620(3) 0.895(2)
H7_3 H 0.077930 0.635993 0.917068
C24_3 C 0.080(7) 0.604(3) 0.853(3)
N1_3 N 0.196(11) 0.580(2) 0.820(2)
C25_3 C 0.390(10) 0.570(2) 0.830(2)
H9_3 H 0.467861 0.553718 0.808303
C26_3 C 0.466(7) 0.585(3) 0.872(3)
H10_2 H 0.595452 0.579102 0.878951
O4_3 O 0.180(10) 0.649(3) 0.732(2)
H21_3 H 0.072485 0.739744 0.711654
S1_2 S 0.547(4) 0.5097(11) 0.1257(11)
C1_2 C 0.690(7) 0.540(2) 0.149(2)
C2_2 C 0.647(11) 0.5943(17) 0.143(3)
H1_2 H 0.717789 0.622617 0.155364
C3_2 C 0.478(11) 0.5983(14) 0.116(3)
C4_2 C 0.416(7) 0.546(2) 0.105(2)
F1_2 F 0.436(7) 0.770(2) 0.058(2)
F2_2 F 0.166(6) 0.739(2) 0.041(2)
F3_2 F 0.271(9) 0.795(3) 0.128(2)
F4_2 F 0.087(10) 0.732(3) 0.123(2)
F5_3 F 0.500(7) 0.721(2) 0.170(2)
F6_2 F 0.265(9) 0.685(3) 0.186(2)
C5_2 C 0.432(9) 0.6539(14) 0.111(3)
C6_2 C 0.356(11) 0.695(4) 0.1397(15)
C7_2 C 0.305(11) 0.738(2) 0.111(5)
C8_2 C 0.349(14) 0.724(4) 0.065(3)
C9_2 C 0.427(10) 0.672(5) 0.065(2)
C11_2 C 0.681(7) 0.640(2) 0.0055(12)
C12_2 C 0.495(10) 0.657(3) 0.0201(17)
C27_2 C 0.257(11) 0.554(4) 0.080(4)
H11_2 H 0.286857 0.551288 0.047893
H12_2 H 0.207359 0.589143 0.086427
H13_2 H 0.161326 0.528156 0.088152
C28_2 C 0.998(10) 0.559(2) 0.195(3)
H14_2 H 0.978212 0.594841 0.189980
C29_2 C 0.864(7) 0.522(3) 0.178(2)
C30_2 C 0.893(7) 0.468(3) 0.186(2)
H15_2 H 0.804018 0.443511 0.174572
C39_2 C 0.791(10) 0.647(3) 0.047(3)
H22_2 H 0.729192 0.672795 0.066248
H23_2 H 0.918394 0.658654 0.039306
H24_2 H 0.797652 0.613521 0.062906
O1_2 O 0.942(8) 0.475(2) 0.765(2)
O2_2 O 0.086(11) 0.094(4) 0.747(4)
O3_3 O 0.778(8) 0.506(3) 0.827(2)
C10_2 C 0.822(11) 0.464(3) 0.802(4)
C15_2 C 0.697(10) 0.418(2) 0.797(2)
C16_2 C 0.524(10) 0.411(3) 0.821(2)
H3_3 H 0.478253 0.438011 0.840005
C17_3 C 0.418(7) 0.365(3) 0.815(2)
H4_3 H 0.302087 0.360390 0.830357
C18_3 C 0.486(10) 0.325(2) 0.786(3)
C19_2 C 0.660(11) 0.332(2) 0.762(2)
H5_2 H 0.705351 0.305227 0.743051
C20_2 C 0.765(8) 0.378(3) 0.768(2)
H6_2 H 0.881521 0.382848 0.752698
C21_3 C 0.028(19) 0.127(6) 0.768(5)
H8_3 H 0.950343 0.610608 0.846420
C33_3 C 0.135(11) 0.186(3) 0.772(3)
C34_3 C 0.333(12) 0.180(3) 0.766(3)
H18_3 H 0.383277 0.147382 0.758236
C35_3 C 0.454(7) 0.224(4) 0.771(3)
H19_2 H 0.586483 0.220038 0.766465
C36_3 C 0.379(12) 0.273(3) 0.782(3)
C37_3 C 0.181(13) 0.279(3) 0.789(3)
H20_3 H 0.130725 0.312399 0.796575
C38_3 C 0.060(7) 0.236(4) 0.784(3)
O5_2 O 0.914(11) 0.594(4) 0.753(4)
O3_4 O 0.222(8) 0.006(3) 0.673(2)
H8_4 H 0.049657 0.110608 0.653580
O1_3 O 0.058(8) 0.975(2) 0.735(2)
C10_3 C 0.178(11) 0.964(3) 0.698(4)
C15_3 C 0.303(10) 0.918(2) 0.703(2)
C16_3 C 0.476(10) 0.911(3) 0.679(2)
H3_4 H 0.521747 0.938011 0.659995
C17_4 C 0.582(7) 0.865(3) 0.685(2)
H4_4 H 0.697913 0.860390 0.669643
C18_4 C 0.514(10) 0.825(2) 0.714(3)
C19_3 C 0.340(11) 0.832(2) 0.738(2)
H5_3 H 0.294649 0.805227 0.756949
C20_3 C 0.235(8) 0.878(3) 0.732(2)
H6_3 H 0.118479 0.882848 0.747302
C21_4 C 0.972(19) 0.627(6) 0.732(5)
C33_4 C 0.865(11) 0.686(3) 0.728(3)
C34_4 C 0.667(12) 0.680(3) 0.734(3)
H18_4 H 0.616723 0.647382 0.741764
C35_4 C 0.546(7) 0.724(4) 0.729(3)
H19_3 H 0.413517 0.720038 0.733535
C36_4 C 0.621(12) 0.773(3) 0.718(3)
C37_4 C 0.819(13) 0.779(3) 0.711(3)
H20_4 H 0.869275 0.812399 0.703425
C38_4 C 0.940(7) 0.736(4) 0.716(3)
O4_4 O 0.820(10) 0.149(3) 0.768(2)
H21_4 H 0.927515 0.239744 0.788346
Zn3_2 Zn 0.9156(17) 0.0454(6) 0.7393(5)
S1_3 S 0.453(4) 0.0097(11) 0.3743(11)
C1_3 C 0.310(7) 0.040(2) 0.351(2)
C2_3 C 0.353(11) 0.0943(17) 0.357(3)
H1_3 H 0.282211 0.122617 0.344636
C3_3 C 0.522(11) 0.0983(14) 0.384(3)
C4_3 C 0.584(7) 0.046(2) 0.395(2)
F1_3 F 0.564(7) 0.270(2) 0.442(2)
F2_3 F 0.834(6) 0.239(2) 0.459(2)
F3_3 F 0.729(9) 0.295(3) 0.372(2)
F4_3 F 0.913(10) 0.232(3) 0.377(2)
F5_4 F 0.500(7) 0.221(2) 0.330(2)
F6_3 F 0.735(9) 0.185(3) 0.314(2)
C5_3 C 0.568(9) 0.1539(14) 0.389(3)
C6_3 C 0.644(11) 0.195(4) 0.3603(15)
C7_3 C 0.695(11) 0.238(2) 0.389(5)
C8_3 C 0.651(14) 0.224(4) 0.435(3)
C9_3 C 0.573(10) 0.172(5) 0.435(2)
C11_3 C 0.319(7) 0.140(2) 0.4945(12)
C12_3 C 0.505(10) 0.157(3) 0.4799(17)
C13_4 C 0.637(5) 0.145(3) 0.516(3)
H2_4 H 0.769199 0.151631 0.515262
C14_4 C 0.533(4) 0.121(2) 0.5524(17)
S2_3 S 0.336(3) 0.1180(11) 0.5393(11)
C22_4 C 0.651(12) 0.110(3) 0.5950(19)
C23_4 C 0.844(11) 0.120(3) 0.605(2)
H7_4 H 0.922070 0.135993 0.582932
C24_4 C 0.920(7) 0.104(3) 0.647(3)
N1_4 N 0.804(11) 0.080(2) 0.680(2)
C25_4 C 0.610(10) 0.070(2) 0.670(2)
H9_4 H 0.532139 0.053718 0.691697
C26_4 C 0.534(7) 0.085(3) 0.628(3)
H10_3 H 0.404548 0.079102 0.621049
C27_3 C 0.743(11) 0.054(4) 0.420(4)
H11_3 H 0.713143 0.051288 0.452107
H12_3 H 0.792641 0.089143 0.413573
H13_3 H 0.838674 0.028156 0.411848
C28_3 C 0.002(10) 0.059(2) 0.305(3)
H14_3 H 0.021788 0.094841 0.310020
C29_3 C 0.136(7) 0.022(3) 0.322(2)
C39_3 C 0.209(10) 0.147(3) 0.453(3)
H22_3 H 0.270808 0.172795 0.433752
H23_3 H 0.081606 0.158654 0.460694
H24_3 H 0.202348 0.113521 0.437094
N3_2 N 0.690(6) 0.013(3) 0.7746(18)
C30_3 C 0.393(7) 0.032(3) 0.814(2)
H15_3 H 0.304018 0.056489 0.825428
C31_4 C 0.556(9) 0.0494(19) 0.791(2)
H16_4 H 0.575911 0.085580 0.786206
C30_4 C 0.107(7) 0.968(3) 0.314(2)
H15_4 H 0.195982 0.943511 0.325428
C32_3 C 0.839(7) 0.041(2) 0.282(2)
H17_3 H 0.749890 0.065750 0.270797
S2_4 S 0.164(3) 0.8820(11) 0.0393(11)
H10_4 H 0.095452 0.920898 0.121049
S1_4 S 0.047(4) 0.9903(11) 0.8743(11)
C1_4 C 0.190(7) 0.960(2) 0.851(2)
C2_4 C 0.147(11) 0.9057(17) 0.857(3)
H1_4 H 0.217789 0.877383 0.844636
F5_5 F 0.000(7) 0.779(2) 0.830(2)
C11_4 C 0.181(7) 0.860(2) 0.9945(12)
C28_4 C 0.498(10) 0.941(2) 0.805(3)
H14_4 H 0.478212 0.905159 0.810020
C29_4 C 0.364(7) 0.978(3) 0.822(2)
C32_4 C 0.661(7) 0.959(2) 0.782(2)
H17_4 H 0.750110 0.934250 0.770797
C39_4 C 0.291(10) 0.853(3) 0.953(3)
H22_4 H 0.229192 0.827205 0.933752
H23_4 H 0.418394 0.841346 0.960694
H24_4 H 0.297652 0.886479 0.937094
O1_4 O 0.442(8) 0.025(2) 0.235(2)
C10_4 C 0.322(11) 0.036(3) 0.198(4)
C15_4 C 0.197(10) 0.082(2) 0.203(2)
C16_4 C 0.024(10) 0.089(3) 0.179(2)
C19_4 C 0.160(11) 0.168(2) 0.238(2)
H5_4 H 0.205351 0.194773 0.256949
C20_4 C 0.265(8) 0.122(3) 0.232(2)
H6_4 H 0.381521 0.117152 0.247302
H19_4 H 0.086483 0.279962 0.233535
C3_4 C 0.978(11) 0.9017(14) 0.884(3)
C4_4 C 0.916(7) 0.954(2) 0.895(2)
F1_4 F 0.936(7) 0.730(2) 0.942(2)
F2_4 F 0.666(6) 0.761(2) 0.959(2)
F3_4 F 0.771(9) 0.705(3) 0.872(2)
F4_4 F 0.587(10) 0.768(3) 0.877(2)
F5_6 F 1.000(7) 0.779(2) 0.830(2)
F6_4 F 0.765(9) 0.815(3) 0.814(2)
C5_4 C 0.932(9) 0.8461(14) 0.889(3)
C6_4 C 0.856(11) 0.805(4) 0.8603(15)
C7_4 C 0.805(11) 0.762(2) 0.889(5)
C8_4 C 0.849(14) 0.776(4) 0.935(3)
C9_4 C 0.927(10) 0.828(5) 0.935(2)
C12_4 C 0.995(10) 0.843(3) 0.9799(17)
C27_4 C 0.757(11) 0.946(4) 0.920(4)
H11_4 H 0.786857 0.948712 0.952107
H12_4 H 0.707359 0.910857 0.913573
H13_4 H 0.661326 0.971844 0.911848
loop_
_geom_bond_atom_site_label_1
_geom_bond_atom_site_label_2
_geom_bond_site_symmetry_1
_geom_bond_site_symmetry_2
O2 C21 1_555 1_555
O4 C21 1_555 1_555
H4 C17 1_555 1_555
C18 C17 1_555 1_555
C21 C33 1_555 1_555
C33 C34 1_555 1_555
C34 H18 1_555 1_555
C35 C34 1_555 1_555
C36 C18 1_555 1_555
C37 C36 1_555 1_555
H20 C37 1_555 1_555
C38 C33 1_555 1_555
H21 C38 1_555 1_555
Zn3 O2 1_555 1_555
C35 C36 1_555 1_555
C37 C38 1_555 1_555
H16 C31 1_555 1_555
N2 C31 1_555 1_555
Zn3 N2 1_555 1_555
H2 C13 1_555 1_555
C14 C13 1_555 1_555
C22 C14 1_555 1_555
C23 C22 1_555 1_555
H7 C23 1_555 1_555
C24 C23 1_555 1_555
H8 C24 1_555 1_555
N1 Zn3 1_555 1_555
C25 N1 1_555 1_555
H9 C25 1_555 1_555
C26 C22 1_555 1_555
C24 N1 1_555 1_555
C25 C26 1_555 1_555
Zn1 O1 1_555 1_555
F1 C8 1_555 1_555
F2 C8 1_555 1_555
F3 C7 1_555 1_555
F4 C7 1_555 1_555
F5 C6 1_555 1_555
F6 C6 1_555 1_555
C5 C3 1_555 1_555
C6 C5 1_555 1_555
C7 C6 1_555 1_555
C8 C7 1_555 1_555
C9 C5 1_555 1_555
O1 C10 1_555 1_555
O3_2 C10 1_555 1_555
C10 C15 1_555 1_555
C12 C9 1_555 1_555
C13_2 C12 1_555 1_555
H2_2 C13_2 1_555 1_555
C14_2 C13_2 1_555 1_555
C15 C16 1_555 1_555
H5 C19 1_555 1_555
C20 C15 1_555 1_555
H6 C20 1_555 1_555
C22_2 C14_2 1_555 1_555
C23_2 C22_2 1_555 1_555
H7_2 C23_2 1_555 1_555
C24_2 C23_2 1_555 1_555
H8_2 C24_2 1_555 1_555
N1_2 Zn1 1_555 1_555
C25_2 N1_2 1_555 1_555
H9_2 C25_2 1_555 1_555
C26_2 C22_2 1_555 1_555
C27 C4 1_555 1_555
H11 C27 1_555 1_555
H12 C27 1_555 1_555
H13 C27 1_555 1_555
O5 Zn1 1_555 1_555
N3 Zn1 1_555 1_555
C3 C4 1_555 1_555
C8 C9 1_555 1_555
C19 C20 1_555 1_555
C24_2 N1_2 1_555 1_555
C25_2 C26_2 1_555 1_555
H16_2 C31_2 1_555 1_555
N3 C31_2 1_555 1_555
H17 C32 1_555 1_555
N3 C32 1_555 1_555
O5 C21_2 1_555 1_555
O4_2 C21_2 1_555 1_555
H4_2 C17_2 1_555 1_555
C18_2 C17_2 1_555 1_555
C21_2 C33_2 1_555 1_555
C33_2 C34_2 1_555 1_555
C34_2 H18_2 1_555 1_555
C35_2 C34_2 1_555 1_555
C36_2 C18_2 1_555 1_555
C37_2 C36_2 1_555 1_555
H20_2 C37_2 1_555 1_555
C38_2 C33_2 1_555 1_555
H21_2 C38_2 1_555 1_555
C35_2 C36_2 1_555 1_555
C37_2 C38_2 1_555 1_555
S1 C1 1_555 1_555
C1 C2 1_555 1_555
C2 H1 1_555 1_555
S2 C11 1_555 1_555
C28 H14 1_555 1_555
C29 C1 1_555 1_555
C30 C29 1_555 1_555
H15 C30 1_555 1_555
C31_3 C30 1_555 1_555
H16_3 C31_3 1_555 1_555
N2_2 C31_3 1_555 1_555
C32_2 C28 1_555 1_555
H17_2 C32_2 1_555 1_555
C39 C11 1_555 1_555
H22 C39 1_555 1_555
H23 C39 1_555 1_555
H24 C39 1_555 1_555
Zn2 N2_2 1_555 1_555
C28 C29 1_555 1_555
N2_2 C32_2 1_555 1_555
H2_3 C13_3 1_555 1_555
C14_3 C13_3 1_555 1_555
C22_3 C14_3 1_555 1_555
C23_3 C22_3 1_555 1_555
H7_3 C23_3 1_555 1_555
C24_3 C23_3 1_555 1_555
N1_3 Zn2 1_555 1_555
C25_3 N1_3 1_555 1_555
H9_3 C25_3 1_555 1_555
C26_3 C22_3 1_555 1_555
H10_2 C26_3 1_555 1_555
C14_3 S2_2 1_555 1_555
C24_3 N1_3 1_555 1_555
C25_3 C26_3 1_555 1_555
S1_2 C1_2 1_555 1_555
C1_2 C2_2 1_555 1_555
C2_2 H1_2 1_555 1_555
C3_2 C2_2 1_555 1_555
C4_2 S1_2 1_555 1_555
F1_2 C8_2 1_555 1_555
F2_2 C8_2 1_555 1_555
F3_2 C7_2 1_555 1_555
F4_2 C7_2 1_555 1_555
F5_3 C6_2 1_555 1_555
F6_2 C6_2 1_555 1_555
C5_2 C3_2 1_555 1_555
C6_2 C5_2 1_555 1_555
C7_2 C6_2 1_555 1_555
C8_2 C7_2 1_555 1_555
C9_2 C5_2 1_555 1_555
C11_2 C12_2 1_555 1_555
C12_2 C9_2 1_555 1_555
C27_2 C4_2 1_555 1_555
H11_2 C27_2 1_555 1_555
H12_2 C27_2 1_555 1_555
H13_2 C27_2 1_555 1_555
C28_2 H14_2 1_555 1_555
C29_2 C1_2 1_555 1_555
C30_2 C29_2 1_555 1_555
H15_2 C30_2 1_555 1_555
C39_2 C11_2 1_555 1_555
H22_2 C39_2 1_555 1_555
H23_2 C39_2 1_555 1_555
H24_2 C39_2 1_555 1_555
C3_2 C4_2 1_555 1_555
C8_2 C9_2 1_555 1_555
C28_2 C29_2 1_555 1_555
O1_2 C10_2 1_555 1_555
O2_2 C21_3 1_555 1_555
O3_3 C10_2 1_555 1_555
C10_2 C15_2 1_555 1_555
C15_2 C16_2 1_555 1_555
C16_2 H3_3 1_555 1_555
C17_3 C16_2 1_555 1_555
H4_3 C17_3 1_555 1_555
C18_3 C17_3 1_555 1_555
C19_2 C18_3 1_555 1_555
H5_2 C19_2 1_555 1_555
C20_2 C15_2 1_555 1_555
H6_2 C20_2 1_555 1_555
C21_3 C33_3 1_555 1_555
C33_3 C34_3 1_555 1_555
C34_3 H18_3 1_555 1_555
C35_3 C34_3 1_555 1_555
H19_2 C35_3 1_555 1_555
C36_3 C18_3 1_555 1_555
C37_3 C36_3 1_555 1_555
H20_3 C37_3 1_555 1_555
C38_3 C33_3 1_555 1_555
C19_2 C20_2 1_555 1_555
C35_3 C36_3 1_555 1_555
C37_3 C38_3 1_555 1_555
O1_3 C10_3 1_555 1_555
O5_2 C21_4 1_555 1_555
C10_3 C15_3 1_555 1_555
C15_3 C16_3 1_555 1_555
C16_3 H3_4 1_555 1_555
C17_4 C16_3 1_555 1_555
H4_4 C17_4 1_555 1_555
C18_4 C17_4 1_555 1_555
C19_3 C18_4 1_555 1_555
H5_3 C19_3 1_555 1_555
C20_3 C15_3 1_555 1_555
H6_3 C20_3 1_555 1_555
C21_4 C33_4 1_555 1_555
C33_4 C34_4 1_555 1_555
C34_4 H18_4 1_555 1_555
C35_4 C34_4 1_555 1_555
H19_3 C35_4 1_555 1_555
C36_4 C18_4 1_555 1_555
C37_4 C36_4 1_555 1_555
H20_4 C37_4 1_555 1_555
C38_4 C33_4 1_555 1_555
C19_3 C20_3 1_555 1_555
C35_4 C36_4 1_555 1_555
C37_4 C38_4 1_555 1_555
S1_3 C1_3 1_555 1_555
C1_3 C2_3 1_555 1_555
C2_3 H1_3 1_555 1_555
C3_3 C2_3 1_555 1_555
C4_3 S1_3 1_555 1_555
F1_3 C8_3 1_555 1_555
F2_3 C8_3 1_555 1_555
F3_3 C7_3 1_555 1_555
F4_3 C7_3 1_555 1_555
F5_4 C6_3 1_555 1_555
F6_3 C6_3 1_555 1_555
C5_3 C3_3 1_555 1_555
C6_3 C5_3 1_555 1_555
C7_3 C6_3 1_555 1_555
C8_3 C7_3 1_555 1_555
C9_3 C5_3 1_555 1_555
C11_3 C12_3 1_555 1_555
C12_3 C9_3 1_555 1_555
C13_4 C12_3 1_555 1_555
H2_4 C13_4 1_555 1_555
C14_4 C13_4 1_555 1_555
S2_3 C11_3 1_555 1_555
C22_4 C14_4 1_555 1_555
C23_4 C22_4 1_555 1_555
H7_4 C23_4 1_555 1_555
C24_4 C23_4 1_555 1_555
N1_4 Zn3_2 1_555 1_555
C25_4 N1_4 1_555 1_555
H9_4 C25_4 1_555 1_555
C26_4 C22_4 1_555 1_555
H10_3 C26_4 1_555 1_555
C27_3 C4_3 1_555 1_555
H11_3 C27_3 1_555 1_555
H12_3 C27_3 1_555 1_555
H13_3 C27_3 1_555 1_555
C28_3 H14_3 1_555 1_555
C29_3 C1_3 1_555 1_555
C39_3 C11_3 1_555 1_555
H22_3 C39_3 1_555 1_555
H23_3 C39_3 1_555 1_555
H24_3 C39_3 1_555 1_555
N3_2 Zn3_2 1_555 1_555
C3_3 C4_3 1_555 1_555
C8_3 C9_3 1_555 1_555
C14_4 S2_3 1_555 1_555
C24_4 N1_4 1_555 1_555
C25_4 C26_4 1_555 1_555
C28_3 C29_3 1_555 1_555
H15_3 C30_3 1_555 1_555
C31_4 C30_3 1_555 1_555
H16_4 C31_4 1_555 1_555
N3_2 C31_4 1_555 1_555
H15_4 C30_4 1_555 1_555
H17_3 C32_3 1_555 1_555
S1_4 C1_4 1_555 1_555
C1_4 C2_4 1_555 1_555
C2_4 H1_4 1_555 1_555
C28_4 H14_4 1_555 1_555
C29_4 C1_4 1_555 1_555
C32_4 C28_4 1_555 1_555
H17_4 C32_4 1_555 1_555
C39_4 C11_4 1_555 1_555
H22_4 C39_4 1_555 1_555
H23_4 C39_4 1_555 1_555
H24_4 C39_4 1_555 1_555
C28_4 C29_4 1_555 1_555
O1_4 C10_4 1_555 1_555
C10_4 C15_4 1_555 1_555
C15_4 C16_4 1_555 1_555
H5_4 C19_4 1_555 1_555
C20_4 C15_4 1_555 1_555
H6_4 C20_4 1_555 1_555
C19_4 C20_4 1_555 1_555
F1_4 C8_4 1_555 1_555
F2_4 C8_4 1_555 1_555
F3_4 C7_4 1_555 1_555
F4_4 C7_4 1_555 1_555
F5_6 C6_4 1_555 1_555
F6_4 C6_4 1_555 1_555
C5_4 C3_4 1_555 1_555
C6_4 C5_4 1_555 1_555
C7_4 C6_4 1_555 1_555
C8_4 C7_4 1_555 1_555
C9_4 C5_4 1_555 1_555
C12_4 C9_4 1_555 1_555
C27_4 C4_4 1_555 1_555
H11_4 C27_4 1_555 1_555
H12_4 C27_4 1_555 1_555
H13_4 C27_4 1_555 1_555
C3_4 C4_4 1_555 1_555
C8_4 C9_4 1_555 1_555

#END
