
###############################################################################
#
# This file contains modified crystal structure data generated from the
# MOF subset of the Cambridge Structural Database (CSD) v543 
# hosted by the Cambridge Crystallographic Data Centre (CCDC).
#
# This work is licensed under the Creative Commons
# Attribution-NonCommercial-ShareAlike 4.0 International License.
# To view a copy of this license, visit
# http://creativecommons.org/licenses/by-nc-sa/4.0/
# or send a letter to
# Creative Commons, PO Box 1866, Mountain View, CA 94042, USA.
#
# CIF created using the CSD Python API on 29 September 2022
# The structure has been converted into the P1 space group
# The structure has a 3D framework
# The original CSD entry YOLKUH02 is in the orthorhombic crystal system
# The original CSD entry YOLKUH02 is in a Sohncke space group
# The framework has been calculated to contain at least 10.0% void space
# The void calculation uses a probe of radius 1.32A, grid spacing 0.4
#
###############################################################################

data_YOLKUH02
_chemical_formula_moiety         '(C156 H96 F24 N8 O16 S8 Zn4)n'
_symmetry_cell_setting           triclinic
_symmetry_space_group_name_H-M   'P 1'
_symmetry_Int_Tables_number      1
_space_group_name_Hall           'P 1'
loop_
_symmetry_equiv_pos_site_id
_symmetry_equiv_pos_as_xyz
1 x,y,z
_cell_length_a                   7.166(9)
_cell_length_b                   24.54(3)
_cell_length_c                   29.48(3)
_cell_angle_alpha                90
_cell_angle_beta                 90
_cell_angle_gamma                90
_cell_volume                     5184.17
loop_
_atom_site_label
_atom_site_type_symbol
_atom_site_fract_x
_atom_site_fract_y
_atom_site_fract_z
O4 O 0.1729(7) 0.35658(19) 0.2614(2)
C5 C 0.0036(12) 0.3617(3) 0.2625(3)
H18 H 0.072846 0.262038 0.290270
Zn3 Zn 0.08477(10) 0.46234(3) 0.23256(2)
S1 S 0.9345(3) 0.50602(7) 0.36943(6)
S2 S 0.8260(2) 0.60745(8) 0.53700(6)
N1 N 0.3015(6) 0.48756(18) 0.27187(16)
C7 C 0.3225(9) 0.5412(2) 0.2806(2)
H2 H 0.231123 0.565383 0.270748
C11 C 0.7779(9) 0.5488(2) 0.34332(19)
C12 C 0.5940(10) 0.4725(2) 0.3103(2)
H4 H 0.686795 0.448030 0.318741
C17 C 0.8448(9) 0.6352(3) 0.48429(19)
C19 C 0.6126(8) 0.5270(2) 0.31909(18)
C21 C 0.9857(8) 0.6074(3) 0.37778(19)
F3 F 0.9748(8) 0.7237(2) 0.33541(17)
H10 H 0.904599 0.568503 0.620443
C30 C 0.8258(9) 0.6012(2) 0.34997(18)
H12 H 0.760639 0.630417 0.337574
C31 C 0.4735(9) 0.5613(2) 0.3036(2)
H13 H 0.482708 0.598592 0.308850
C37 C 0.4333(10) 0.4545(3) 0.2885(2)
H20 H 0.416357 0.417102 0.285271
C39 C 0.6742(9) 0.6409(3) 0.4550(2)
H22 H 0.695109 0.668572 0.432589
H23 H 0.569378 0.650836 0.473530
H24 H 0.649010 0.606801 0.440216
S2_2 S 0.6740(2) 0.39255(8) 0.03700(6)
C2 C 0.4408(9) 0.3808(2) 0.0491(2)
C6 C 0.3585(8) 0.3542(2) 0.01433(19)
H1 H 0.235109 0.342487 0.015300
C10 C 0.3637(8) 0.3985(2) 0.0925(2)
C14 C 0.3879(10) 0.4426(3) 0.1649(2)
H5 H 0.462747 0.459903 0.186268
N2 N 0.2087(7) 0.43609(19) 0.17430(16)
C22 C 0.1057(10) 0.4095(3) 0.1438(2)
C27 C 0.4690(9) 0.4253(3) 0.1254(2)
H10_2 H 0.595401 0.431497 0.120443
C36 C 0.1767(9) 0.3921(3) 0.1034(2)
H19 H 0.097461 0.375591 0.082553
O1 O 0.0350(5) 0.03175(15) 0.27236(15)
O2 O 0.9193(6) 0.40696(16) 0.25342(14)
C3 C 0.2829(8) 0.0860(2) 0.2986(2)
C4 C 0.8755(9) 0.3155(2) 0.2702(2)
C9 C 0.2370(8) 0.1275(2) 0.2696(2)
H3 H 0.128441 0.125304 0.252383
C15 C 0.5114(9) 0.1779(2) 0.2893(2)
C16 C 0.4437(11) 0.0914(3) 0.3248(2)
H6 H 0.475332 0.064081 0.345241
C23 C 0.6874(9) 0.3184(3) 0.2617(3)
H8 H 0.637627 0.350779 0.250643
C25 C 0.6359(9) 0.2252(3) 0.2838(2)
C26 C 0.8293(10) 0.2217(3) 0.2932(2)
H9 H 0.878726 0.189534 0.304797
C29 C 0.3518(8) 0.1725(2) 0.2657(2)
H11 H 0.317117 0.200351 0.246045
C32 C 0.1719(9) 0.0348(3) 0.3001(2)
C33 C 0.5577(10) 0.1371(3) 0.3209(2)
H14 H 0.663389 0.140639 0.338996
C35 C 0.9453(10) 0.2657(3) 0.2853(2)
C38 C 0.5705(10) 0.2750(2) 0.2690(3)
H21 H 0.443344 0.279279 0.263789
O3 O 0.2150(6) 0.99774(19) 0.32658(16)
H7 H 0.018973 0.902478 0.349640
O5 O 0.0807(6) 0.90696(16) 0.24658(14)
O1_2 O 0.9650(5) 0.53175(15) 0.22764(15)
O3_2 O 0.7850(6) 0.49774(19) 0.17342(16)
C3_2 C 0.7171(8) 0.5860(2) 0.2014(2)
C4_2 C 0.1245(9) 0.8155(2) 0.2298(2)
C9_2 C 0.7630(8) 0.6275(2) 0.2304(2)
H3_2 H 0.871559 0.625304 0.247617
C15_2 C 0.4886(9) 0.6779(2) 0.2107(2)
C16_2 C 0.5563(11) 0.5914(3) 0.1752(2)
H6_2 H 0.524668 0.564081 0.154759
H7_2 H 0.981027 0.402478 0.150360
C23_2 C 0.3126(9) 0.8184(3) 0.2383(3)
H8_2 H 0.362373 0.850779 0.249357
C25_2 C 0.3641(9) 0.7252(3) 0.2162(2)
C26_2 C 0.1707(10) 0.7217(3) 0.2068(2)
H9_2 H 0.121274 0.689534 0.195203
C29_2 C 0.6482(8) 0.6725(2) 0.2343(2)
H11_2 H 0.682883 0.700351 0.253955
C32_2 C 0.8281(9) 0.5348(3) 0.1999(2)
C33_2 C 0.4423(10) 0.6371(3) 0.1791(2)
H14_2 H 0.336611 0.640639 0.161004
C35_2 C 0.0547(10) 0.7657(3) 0.2147(2)
C38_2 C 0.4295(10) 0.7750(2) 0.2310(3)
H21_2 H 0.556656 0.779279 0.236211
C12_2 C 0.0940(10) 0.0275(2) 0.6897(2)
H4_2 H 0.186795 0.051970 0.681259
Zn1 Zn 0.91523(10) 0.96234(3) 0.26744(2)
S1_2 S 0.4345(3) 0.99398(7) 0.63057(6)
S2_3 S 0.3260(2) 0.89255(8) 0.46300(6)
C1 C 0.5784(9) 0.8190(2) 0.56569(19)
F1 F 0.5410(7) 0.72627(15) 0.55298(14)
C2_2 C 0.5592(9) 0.8808(2) 0.4509(2)
F2 F 0.8129(6) 0.75875(15) 0.53962(14)
C6_2 C 0.6415(8) 0.8542(2) 0.48567(19)
H1_2 H 0.764891 0.842487 0.484700
C8 C 0.5586(9) 0.8395(2) 0.60853(19)
C10_2 C 0.6363(8) 0.8985(2) 0.4075(2)
C11_2 C 0.2779(9) 0.9512(2) 0.65668(19)
C13 C 0.5236(9) 0.8455(2) 0.5240(2)
C14_2 C 0.6121(10) 0.9426(3) 0.3351(2)
H5_2 H 0.537253 0.959903 0.313732
C17_2 C 0.3448(9) 0.8648(3) 0.51571(19)
C18 C 0.6211(11) 0.7980(3) 0.6431(2)
C19_2 C 0.1126(8) 0.9730(2) 0.68091(18)
N2_2 N 0.7913(7) 0.93609(19) 0.32570(16)
C20 C 0.6649(10) 0.7635(3) 0.5665(2)
C21_2 C 0.4857(8) 0.8926(3) 0.62222(19)
C22_2 C 0.8943(10) 0.9095(3) 0.3562(2)
F3_2 F 0.4748(8) 0.7763(2) 0.66459(17)
C24 C 0.7166(14) 0.7532(3) 0.6169(3)
C27_2 C 0.5310(9) 0.9253(3) 0.3746(2)
H10_3 H 0.404599 0.931497 0.379557
C28 C 0.5583(9) 0.9414(2) 0.6083(2)
F4 F 0.6979(10) 0.70610(17) 0.63033(14)
C30_2 C 0.3258(9) 0.8988(2) 0.65003(18)
H12_2 H 0.260639 0.869583 0.662426
F5 F 0.7229(10) 0.8184(2) 0.67550(17)
C34 C 0.7276(10) 0.9522(3) 0.5797(2)
H15 H 0.827680 0.928893 0.589345
H16 H 0.764433 0.989576 0.583044
H17 H 0.698965 0.944955 0.548473
C36_2 C 0.8233(9) 0.8921(3) 0.3966(2)
H19_2 H 0.902539 0.875591 0.417447
F6 F 0.9051(9) 0.7646(3) 0.62000(18)
C39_2 C 0.1742(9) 0.8591(3) 0.5450(2)
H22_2 H 0.195109 0.831428 0.567411
H23_2 H 0.069378 0.849164 0.526470
H24_2 H 0.149010 0.893199 0.559784
N3 N 0.6985(6) 0.98756(18) 0.22813(16)
C12_3 C 0.4060(10) 0.9725(2) 0.1897(2)
H4_3 H 0.313205 0.948030 0.181259
C37_2 C 0.5667(10) 0.9545(3) 0.2115(2)
H20_2 H 0.583643 0.917102 0.214729
O4_2 O 0.8271(7) 0.85658(19) 0.2386(2)
C5_2 C 0.9964(12) 0.8617(3) 0.2375(3)
H18_2 H 0.927154 0.762038 0.209730
N1_2 N 0.8015(6) 0.01244(18) 0.72813(16)
C37_3 C 0.9333(10) 0.0455(3) 0.7115(2)
H20_3 H 0.916357 0.082898 0.714729
Zn2 Zn 0.58477(10) 0.03766(3) 0.76744(2)
O3_3 O 0.2850(6) 0.00226(19) 0.82658(16)
C2_3 C 0.9408(9) 0.1192(2) 0.9509(2)
C6_3 C 0.8585(8) 0.1458(2) 0.98567(19)
H1_3 H 0.735109 0.157513 0.984700
C10_3 C 0.8637(8) 0.1015(2) 0.9075(2)
C14_3 C 0.8879(10) 0.0574(3) 0.8351(2)
H5_3 H 0.962747 0.040097 0.813732
N2_3 N 0.7087(7) 0.06391(19) 0.82570(16)
C22_3 C 0.6057(10) 0.0905(3) 0.8562(2)
H7_3 H 0.481027 0.097522 0.849640
C27_3 C 0.9690(9) 0.0747(3) 0.8746(2)
C36_3 C 0.6767(9) 0.1079(3) 0.8966(2)
H19_3 H 0.597461 0.124409 0.917447
O5_2 O 0.4193(6) 0.09304(16) 0.74658(14)
O4_3 O 0.6729(7) 0.14342(19) 0.7386(2)
C4_3 C 0.3755(9) 0.1845(2) 0.7298(2)
C5_3 C 0.5036(12) 0.1383(3) 0.7375(3)
C15_3 C 0.0114(9) 0.3221(2) 0.7107(2)
C23_3 C 0.1874(9) 0.1816(3) 0.7383(3)
H8_3 H 0.137627 0.149221 0.749357
C25_3 C 0.1359(9) 0.2748(3) 0.7162(2)
C26_3 C 0.3293(10) 0.2783(3) 0.7068(2)
H9_3 H 0.378726 0.310466 0.695203
C33_3 C 0.0577(10) 0.3629(3) 0.6791(2)
H14_3 H 0.163389 0.359361 0.661004
C35_3 C 0.4453(10) 0.2343(3) 0.7147(2)
H18_3 H 0.572846 0.237962 0.709730
C38_3 C 0.0705(10) 0.2250(2) 0.7310(3)
C7_2 C 0.8225(9) 0.9588(2) 0.7194(2)
H2_2 H 0.731123 0.934617 0.729252
C31_2 C 0.9735(9) 0.9387(2) 0.6964(2)
H13_2 H 0.982708 0.901408 0.691150
S1_3 S 0.0655(3) 0.00602(7) 0.13057(6)
C7_3 C 0.6775(9) 0.0412(2) 0.2194(2)
H2_3 H 0.768877 0.065383 0.229252
C11_3 C 0.2221(9) 0.0488(2) 0.15668(19)
C17_3 C 0.1552(9) 0.1352(3) 0.01571(19)
C19_3 C 0.3874(8) 0.0270(2) 0.18091(18)
C21_3 C 0.0143(8) 0.1074(3) 0.12222(19)
F3_3 F 0.0252(8) 0.2237(2) 0.16459(17)
C30_3 C 0.1742(9) 0.1012(2) 0.15003(18)
H12_3 H 0.239361 0.130417 0.162426
C31_3 C 0.5265(9) 0.0613(2) 0.1964(2)
H13_3 H 0.517292 0.098592 0.191150
C39_3 C 0.3258(9) 0.1409(3) 0.0450(2)
H22_3 H 0.304891 0.168572 0.067411
H23_3 H 0.430622 0.150836 0.026470
H24_3 H 0.350990 0.106801 0.059784
S2_4 S 0.1740(2) 0.10745(8) 0.96300(6)
H10_4 H 0.095401 0.068503 0.879557
C1_2 C 0.9216(9) 0.1810(2) 0.06569(19)
F1_2 F 0.9590(7) 0.27373(15) 0.05298(14)
F2_2 F 0.6871(6) 0.24125(15) 0.03962(14)
C8_2 C 0.9414(9) 0.1605(2) 0.10853(19)
C13_2 C 0.9764(9) 0.1545(2) 0.0240(2)
C18_2 C 0.8789(11) 0.2020(3) 0.1431(2)
C20_2 C 0.8351(10) 0.2365(3) 0.0665(2)
C24_2 C 0.7834(14) 0.2468(3) 0.1169(3)
C28_2 C 0.9417(9) 0.0586(2) 0.1083(2)
F4_2 F 0.8021(10) 0.29390(17) 0.13033(14)
F5_2 F 0.7771(10) 0.1816(2) 0.17550(17)
C34_2 C 0.7724(10) 0.0478(3) 0.0797(2)
H15_2 H 0.672320 0.071107 0.089345
H16_2 H 0.735567 0.010424 0.083044
H17_2 H 0.801035 0.055045 0.048473
F6_2 F 0.5949(9) 0.2354(3) 0.12000(18)
O1_3 O 0.4650(5) 0.96825(15) 0.77236(15)
C3_3 C 0.2171(8) 0.9140(2) 0.7986(2)
C9_3 C 0.2630(8) 0.8725(2) 0.7696(2)
H3_3 H 0.371559 0.874696 0.752383
C16_3 C 0.0563(11) 0.9086(3) 0.8248(2)
H6_3 H 0.024668 0.935919 0.845241
C29_3 C 0.1482(8) 0.8275(2) 0.7657(2)
H11_3 H 0.182883 0.799649 0.746045
C32_3 C 0.3281(9) 0.9652(3) 0.8001(2)
H21_3 H 0.056656 0.720721 0.763789
O2_2 O 0.5807(6) 0.59304(16) 0.75342(14)
O4_4 O 0.3271(7) 0.64342(19) 0.7614(2)
C4_4 C 0.6245(9) 0.6845(2) 0.7702(2)
C5_4 C 0.4964(12) 0.6383(3) 0.7625(3)
C15_4 C 0.9886(9) 0.8221(2) 0.7893(2)
C23_4 C 0.8126(9) 0.6816(3) 0.7617(3)
H8_4 H 0.862373 0.649221 0.750643
C25_4 C 0.8641(9) 0.7748(3) 0.7838(2)
C26_4 C 0.6707(10) 0.7783(3) 0.7932(2)
H9_4 H 0.621274 0.810466 0.804797
C33_4 C 0.9423(10) 0.8629(3) 0.8209(2)
H14_4 H 0.836611 0.859361 0.838996
C35_4 C 0.5547(10) 0.7343(3) 0.7853(2)
H18_4 H 0.427154 0.737962 0.790270
C38_4 C 0.9295(10) 0.7250(2) 0.7690(3)
Zn3_2 Zn 0.41523(10) 0.53766(3) 0.73256(2)
O1_4 O 0.5350(5) 0.46825(15) 0.72764(15)
O3_4 O 0.7150(6) 0.50226(19) 0.67342(16)
C1_3 C 0.0784(9) 0.6810(2) 0.43431(19)
F1_3 F 0.0410(7) 0.77373(15) 0.44702(14)
C2_4 C 0.0592(9) 0.6192(2) 0.5491(2)
C3_4 C 0.7829(8) 0.4140(2) 0.7014(2)
F2_3 F 0.3129(6) 0.74125(15) 0.46038(14)
C6_4 C 0.1415(8) 0.6458(2) 0.51433(19)
H1_4 H 0.264891 0.657513 0.515300
C8_3 C 0.0586(9) 0.6605(2) 0.39147(19)
C9_4 C 0.7370(8) 0.3725(2) 0.7304(2)
H3_4 H 0.628441 0.374696 0.747617
C10_4 C 0.1363(8) 0.6015(2) 0.5925(2)
C13_3 C 0.0236(9) 0.6545(2) 0.4760(2)
C14_4 C 0.1121(10) 0.5574(3) 0.6649(2)
H5_4 H 0.037253 0.540097 0.686268
C16_4 C 0.9437(11) 0.4086(3) 0.6752(2)
H6_4 H 0.975332 0.435919 0.654759
C18_3 C 0.1211(11) 0.7020(3) 0.3569(2)
N2_4 N 0.2913(7) 0.56391(19) 0.67430(16)
C20_3 C 0.1649(10) 0.7365(3) 0.4335(2)
C22_4 C 0.3943(10) 0.5905(3) 0.6438(2)
H7_4 H 0.518973 0.597522 0.650360
C24_3 C 0.2166(14) 0.7468(3) 0.3831(3)
C27_4 C 0.0310(9) 0.5747(3) 0.6254(2)
C28_3 C 0.0583(9) 0.5586(2) 0.3917(2)
C29_4 C 0.8518(8) 0.3275(2) 0.7343(2)
H11_4 H 0.817117 0.299649 0.753955
F4_3 F 0.1979(10) 0.79390(17) 0.36967(14)
C32_4 C 0.6719(9) 0.4652(3) 0.6999(2)
F5_3 F 0.2229(10) 0.6816(2) 0.32450(17)
C34_3 C 0.2276(10) 0.5478(3) 0.4203(2)
H15_3 H 0.327680 0.571107 0.410655
H16_3 H 0.264433 0.510424 0.416956
H17_3 H 0.198965 0.555045 0.451527
C36_4 C 0.3233(9) 0.6079(3) 0.6034(2)
H19_4 H 0.402539 0.624409 0.582553
H21_4 H 0.943344 0.220721 0.736211
F6_3 F 0.4051(9) 0.7354(3) 0.38000(18)
N3_2 N 0.1985(6) 0.51244(18) 0.77187(16)
C7_4 C 0.1775(9) 0.4588(2) 0.7806(2)
H2_4 H 0.268877 0.434617 0.770748
C31_4 C 0.0265(9) 0.4387(2) 0.8036(2)
H13_4 H 0.017292 0.401408 0.808850
C37_4 C 0.0667(10) 0.5455(3) 0.7885(2)
H20_4 H 0.083643 0.582898 0.785271
S1_4 S 0.5655(3) 0.49398(7) 0.86943(6)
C1_4 C 0.4216(9) 0.3190(2) 0.93431(19)
F1_4 F 0.4590(7) 0.22627(15) 0.94702(14)
F2_4 F 0.1871(6) 0.25875(15) 0.96038(14)
C8_4 C 0.4414(9) 0.3395(2) 0.89147(19)
C11_4 C 0.7221(9) 0.4512(2) 0.84332(19)
C12_4 C 0.9060(10) 0.5275(2) 0.8103(2)
H4_4 H 0.813205 0.551970 0.818741
C13_4 C 0.4764(9) 0.3455(2) 0.9760(2)
C17_4 C 0.6552(9) 0.3648(3) 0.98429(19)
C18_4 C 0.3789(11) 0.2980(3) 0.8569(2)
C19_4 C 0.8874(8) 0.4730(2) 0.81909(18)
C20_4 C 0.3351(10) 0.2635(3) 0.9335(2)
C21_4 C 0.5143(8) 0.3926(3) 0.87778(19)
F3_4 F 0.5252(8) 0.2763(2) 0.83541(17)
C24_4 C 0.2834(14) 0.2532(3) 0.8831(3)
C28_4 C 0.4417(9) 0.4414(2) 0.8917(2)
F4_4 F 0.3021(10) 0.20610(17) 0.86967(14)
C30_4 C 0.6742(9) 0.3988(2) 0.84997(18)
H12_4 H 0.739361 0.369583 0.837574
F5_4 F 0.2771(10) 0.3184(2) 0.82450(17)
C34_4 C 0.2724(10) 0.4522(3) 0.9203(2)
H15_4 H 0.172320 0.428893 0.910655
H16_4 H 0.235567 0.489576 0.916956
H17_4 H 0.301035 0.444955 0.951527
F6_4 F 0.0949(9) 0.2646(3) 0.88000(18)
C39_4 C 0.8258(9) 0.3591(3) 0.9550(2)
H22_4 H 0.804891 0.331428 0.932589
H23_4 H 0.930622 0.349164 0.973530
H24_4 H 0.850990 0.393199 0.940216
loop_
_geom_bond_atom_site_label_1
_geom_bond_atom_site_label_2
_geom_bond_site_symmetry_1
_geom_bond_site_symmetry_2
O4 C5 1_555 1_555
S1 C11 1_555 1_555
N1 C7 1_555 1_555
C7 H2 1_555 1_555
C11 C19 1_555 1_555
C12 H4 1_555 1_555
C17 S2 1_555 1_555
C19 C12 1_555 1_555
C30 C11 1_555 1_555
H12 C30 1_555 1_555
C31 C7 1_555 1_555
H13 C31 1_555 1_555
C37 N1 1_555 1_555
H20 C37 1_555 1_555
C39 C17 1_555 1_555
H22 C39 1_555 1_555
H23 C39 1_555 1_555
H24 C39 1_555 1_555
Zn3 N1 1_555 1_555
C12 C37 1_555 1_555
C19 C31 1_555 1_555
C21 C30 1_555 1_555
S2_2 C2 1_555 1_555
C2 C6 1_555 1_555
C6 H1 1_555 1_555
C10 C2 1_555 1_555
C14 H5 1_555 1_555
N2 Zn3 1_555 1_555
C22 N2 1_555 1_555
C27 C10 1_555 1_555
H10_2 C27 1_555 1_555
C36 C10 1_555 1_555
H19 C36 1_555 1_555
C14 N2 1_555 1_555
C14 C27 1_555 1_555
C22 C36 1_555 1_555
O1 C32 1_555 1_555
C3 C9 1_555 1_555
C9 H3 1_555 1_555
C15 C25 1_555 1_555
C16 C3 1_555 1_555
H6 C16 1_555 1_555
C23 C4 1_555 1_555
H8 C23 1_555 1_555
C25 C26 1_555 1_555
C26 H9 1_555 1_555
C29 C9 1_555 1_555
H11 C29 1_555 1_555
C32 C3 1_555 1_555
C33 C15 1_555 1_555
H14 C33 1_555 1_555
C35 C4 1_555 1_555
C38 C23 1_555 1_555
H21 C38 1_555 1_555
C15 C29 1_555 1_555
C16 C33 1_555 1_555
C25 C38 1_555 1_555
C26 C35 1_555 1_555
O1_2 C32_2 1_555 1_555
O3_2 C32_2 1_555 1_555
C3_2 C9_2 1_555 1_555
C9_2 H3_2 1_555 1_555
C15_2 C25_2 1_555 1_555
C16_2 C3_2 1_555 1_555
H6_2 C16_2 1_555 1_555
C23_2 C4_2 1_555 1_555
H8_2 C23_2 1_555 1_555
C25_2 C26_2 1_555 1_555
C26_2 H9_2 1_555 1_555
C29_2 C9_2 1_555 1_555
H11_2 C29_2 1_555 1_555
C32_2 C3_2 1_555 1_555
C33_2 C15_2 1_555 1_555
H14_2 C33_2 1_555 1_555
C35_2 C4_2 1_555 1_555
C38_2 C23_2 1_555 1_555
H21_2 C38_2 1_555 1_555
C15_2 C29_2 1_555 1_555
C16_2 C33_2 1_555 1_555
C25_2 C38_2 1_555 1_555
C26_2 C35_2 1_555 1_555
C12_2 H4_2 1_555 1_555
S1_2 C11_2 1_555 1_555
S2_3 C2_2 1_555 1_555
C1 C8 1_555 1_555
F1 C20 1_555 1_555
C2_2 C6_2 1_555 1_555
F2 C20 1_555 1_555
C6_2 H1_2 1_555 1_555
C8 C18 1_555 1_555
C10_2 C2_2 1_555 1_555
C11_2 C19_2 1_555 1_555
C13 C1 1_555 1_555
C14_2 H5_2 1_555 1_555
C17_2 S2_3 1_555 1_555
C18 F3_2 1_555 1_555
N2_2 Zn1 1_555 1_555
C20 C1 1_555 1_555
C21_2 C8 1_555 1_555
C22_2 N2_2 1_555 1_555
C24 C18 1_555 1_555
C27_2 C10_2 1_555 1_555
H10_3 C27_2 1_555 1_555
C28 S1_2 1_555 1_555
F4 C24 1_555 1_555
C30_2 C11_2 1_555 1_555
H12_2 C30_2 1_555 1_555
F5 C18 1_555 1_555
C34 C28 1_555 1_555
H15 C34 1_555 1_555
H16 C34 1_555 1_555
H17 C34 1_555 1_555
C36_2 C10_2 1_555 1_555
H19_2 C36_2 1_555 1_555
F6 C24 1_555 1_555
C39_2 C17_2 1_555 1_555
H22_2 C39_2 1_555 1_555
H23_2 C39_2 1_555 1_555
H24_2 C39_2 1_555 1_555
N3 Zn1 1_555 1_555
C6_2 C13 1_555 1_555
C13 C17_2 1_555 1_555
C14_2 N2_2 1_555 1_555
C14_2 C27_2 1_555 1_555
C20 C24 1_555 1_555
C21_2 C28 1_555 1_555
C21_2 C30_2 1_555 1_555
C22_2 C36_2 1_555 1_555
C12_3 H4_3 1_555 1_555
C37_2 N3 1_555 1_555
H20_2 C37_2 1_555 1_555
C12_3 C37_2 1_555 1_555
O4_2 C5_2 1_555 1_555
C37_3 N1_2 1_555 1_555
H20_3 C37_3 1_555 1_555
Zn2 N1_2 1_555 1_555
C2_3 C6_3 1_555 1_555
C6_3 H1_3 1_555 1_555
C10_3 C2_3 1_555 1_555
C14_3 H5_3 1_555 1_555
N2_3 Zn2 1_555 1_555
C22_3 N2_3 1_555 1_555
H7_3 C22_3 1_555 1_555
C27_3 C10_3 1_555 1_555
C36_3 C10_3 1_555 1_555
H19_3 C36_3 1_555 1_555
O5_2 Zn2 1_555 1_555
C14_3 N2_3 1_555 1_555
C14_3 C27_3 1_555 1_555
C22_3 C36_3 1_555 1_555
O5_2 C5_3 1_555 1_555
O4_3 C5_3 1_555 1_555
C4_3 C5_3 1_555 1_555
C15_3 C25_3 1_555 1_555
C23_3 C4_3 1_555 1_555
H8_3 C23_3 1_555 1_555
C25_3 C26_3 1_555 1_555
C26_3 H9_3 1_555 1_555
C33_3 C15_3 1_555 1_555
H14_3 C33_3 1_555 1_555
C35_3 C4_3 1_555 1_555
H18_3 C35_3 1_555 1_555
C38_3 C23_3 1_555 1_555
C25_3 C38_3 1_555 1_555
C26_3 C35_3 1_555 1_555
C7_2 H2_2 1_555 1_555
C31_2 C7_2 1_555 1_555
H13_2 C31_2 1_555 1_555
S1_3 C11_3 1_555 1_555
C7_3 H2_3 1_555 1_555
C11_3 C19_3 1_555 1_555
C30_3 C11_3 1_555 1_555
H12_3 C30_3 1_555 1_555
C31_3 C7_3 1_555 1_555
H13_3 C31_3 1_555 1_555
C39_3 C17_3 1_555 1_555
H22_3 C39_3 1_555 1_555
H23_3 C39_3 1_555 1_555
H24_3 C39_3 1_555 1_555
C19_3 C31_3 1_555 1_555
C21_3 C30_3 1_555 1_555
C1_2 C8_2 1_555 1_555
F1_2 C20_2 1_555 1_555
F2_2 C20_2 1_555 1_555
C8_2 C18_2 1_555 1_555
C13_2 C1_2 1_555 1_555
C20_2 C1_2 1_555 1_555
C24_2 C18_2 1_555 1_555
F4_2 C24_2 1_555 1_555
F5_2 C18_2 1_555 1_555
C34_2 C28_2 1_555 1_555
H15_2 C34_2 1_555 1_555
H16_2 C34_2 1_555 1_555
H17_2 C34_2 1_555 1_555
F6_2 C24_2 1_555 1_555
C20_2 C24_2 1_555 1_555
O1_3 C32_3 1_555 1_555
C3_3 C9_3 1_555 1_555
C9_3 H3_3 1_555 1_555
C16_3 C3_3 1_555 1_555
H6_3 C16_3 1_555 1_555
C29_3 C9_3 1_555 1_555
H11_3 C29_3 1_555 1_555
C32_3 C3_3 1_555 1_555
O2_2 C5_4 1_555 1_555
O4_4 C5_4 1_555 1_555
C4_4 C5_4 1_555 1_555
C15_4 C25_4 1_555 1_555
C23_4 C4_4 1_555 1_555
H8_4 C23_4 1_555 1_555
C25_4 C26_4 1_555 1_555
C26_4 H9_4 1_555 1_555
C33_4 C15_4 1_555 1_555
H14_4 C33_4 1_555 1_555
C35_4 C4_4 1_555 1_555
H18_4 C35_4 1_555 1_555
C38_4 C23_4 1_555 1_555
Zn3_2 O2_2 1_555 1_555
C25_4 C38_4 1_555 1_555
C26_4 C35_4 1_555 1_555
Zn3_2 O1_4 1_555 1_555
O1_4 C32_4 1_555 1_555
O3_4 C32_4 1_555 1_555
C1_3 C8_3 1_555 1_555
F1_3 C20_3 1_555 1_555
C2_4 C6_4 1_555 1_555
C3_4 C9_4 1_555 1_555
F2_3 C20_3 1_555 1_555
C6_4 H1_4 1_555 1_555
C8_3 C18_3 1_555 1_555
C9_4 H3_4 1_555 1_555
C10_4 C2_4 1_555 1_555
C13_3 C1_3 1_555 1_555
C14_4 H5_4 1_555 1_555
C16_4 C3_4 1_555 1_555
H6_4 C16_4 1_555 1_555
N2_4 Zn3_2 1_555 1_555
C20_3 C1_3 1_555 1_555
C22_4 N2_4 1_555 1_555
H7_4 C22_4 1_555 1_555
C24_3 C18_3 1_555 1_555
C27_4 C10_4 1_555 1_555
C29_4 C9_4 1_555 1_555
H11_4 C29_4 1_555 1_555
F4_3 C24_3 1_555 1_555
C32_4 C3_4 1_555 1_555
F5_3 C18_3 1_555 1_555
C34_3 C28_3 1_555 1_555
H15_3 C34_3 1_555 1_555
H16_3 C34_3 1_555 1_555
H17_3 C34_3 1_555 1_555
C36_4 C10_4 1_555 1_555
H19_4 C36_4 1_555 1_555
F6_3 C24_3 1_555 1_555
N3_2 Zn3_2 1_555 1_555
C6_4 C13_3 1_555 1_555
C14_4 N2_4 1_555 1_555
C14_4 C27_4 1_555 1_555
C20_3 C24_3 1_555 1_555
C22_4 C36_4 1_555 1_555
N3_2 C7_4 1_555 1_555
C7_4 H2_4 1_555 1_555
C31_4 C7_4 1_555 1_555
H13_4 C31_4 1_555 1_555
C37_4 N3_2 1_555 1_555
H20_4 C37_4 1_555 1_555
S1_4 C11_4 1_555 1_555
C1_4 C8_4 1_555 1_555
F1_4 C20_4 1_555 1_555
F2_4 C20_4 1_555 1_555
C8_4 C18_4 1_555 1_555
C11_4 C19_4 1_555 1_555
C12_4 H4_4 1_555 1_555
C13_4 C1_4 1_555 1_555
C18_4 F3_4 1_555 1_555
C19_4 C12_4 1_555 1_555
C20_4 C1_4 1_555 1_555
C21_4 C8_4 1_555 1_555
C24_4 C18_4 1_555 1_555
C28_4 S1_4 1_555 1_555
F4_4 C24_4 1_555 1_555
C30_4 C11_4 1_555 1_555
H12_4 C30_4 1_555 1_555
F5_4 C18_4 1_555 1_555
C34_4 C28_4 1_555 1_555
H15_4 C34_4 1_555 1_555
H16_4 C34_4 1_555 1_555
H17_4 C34_4 1_555 1_555
F6_4 C24_4 1_555 1_555
C39_4 C17_4 1_555 1_555
H22_4 C39_4 1_555 1_555
H23_4 C39_4 1_555 1_555
H24_4 C39_4 1_555 1_555
C13_4 C17_4 1_555 1_555
C20_4 C24_4 1_555 1_555
C21_4 C28_4 1_555 1_555
C21_4 C30_4 1_555 1_555

#END
