
###############################################################################
#
# This file contains modified crystal structure data generated from the
# MOF subset of the Cambridge Structural Database (CSD) v543 
# hosted by the Cambridge Crystallographic Data Centre (CCDC).
#
# This work is licensed under the Creative Commons
# Attribution-NonCommercial-ShareAlike 4.0 International License.
# To view a copy of this license, visit
# http://creativecommons.org/licenses/by-nc-sa/4.0/
# or send a letter to
# Creative Commons, PO Box 1866, Mountain View, CA 94042, USA.
#
# CIF created using the CSD Python API on 29 September 2022
# The structure has been converted into the P1 space group
# The structure has a 3D framework
# The original CSD entry YOLKUH is in the orthorhombic crystal system
# The original CSD entry YOLKUH is in a Sohncke space group
# The framework has been calculated to contain at least 10.0% void space
# The void calculation uses a probe of radius 1.32A, grid spacing 0.4
#
###############################################################################

data_YOLKUH
_chemical_formula_moiety         '(C156 H96 F24 N8 O16 S8 Zn4)n'
_symmetry_cell_setting           triclinic
_symmetry_space_group_name_H-M   'P 1'
_symmetry_Int_Tables_number      1
_space_group_name_Hall           'P 1'
loop_
_symmetry_equiv_pos_site_id
_symmetry_equiv_pos_as_xyz
1 x,y,z
_cell_length_a                   7.1441(13)
_cell_length_b                   24.854(4)
_cell_length_c                   28.859(5)
_cell_angle_alpha                90
_cell_angle_beta                 90
_cell_angle_gamma                90
_cell_volume                     5124.19
loop_
_atom_site_label
_atom_site_type_symbol
_atom_site_fract_x
_atom_site_fract_y
_atom_site_fract_z
H22 H 0.0272 0.3980 0.3464
C16 C 0.0874(10) 0.5296(2) 0.6842(2)
H10 H 0.1765 0.5539 0.6736
C17 C 0.1128(8) 0.4741(2) 0.6785(2)
C20 C 0.2817(9) 0.4535(2) 0.6544(2)
C21 C 0.3344(9) 0.4004(2) 0.6495(2)
H13 H 0.2697 0.3720 0.6630
C22 C 0.4979(8) 0.3932(2) 0.6216(2)
C23 C 0.5678(10) 0.4417(2) 0.6069(2)
C24 C 0.7382(10) 0.4509(3) 0.5786(3)
H14 H 0.8413 0.4594 0.5987
H15 H 0.7169 0.4802 0.5576
H16 H 0.7668 0.4189 0.5613
C25 C 0.5696(9) 0.3419(2) 0.6089(2)
C26 C 0.6309(12) 0.3011(3) 0.6455(3)
C27 C 0.7304(12) 0.2551(3) 0.6190(3)
C28 C 0.6765(9) 0.2644(2) 0.5688(2)
C29 C 0.5908(8) 0.3206(2) 0.5661(2)
C30 C 0.5326(8) 0.3431(2) 0.5225(2)
C31 C 0.6497(9) 0.3523(2) 0.4836(2)
H17 H 0.7749 0.3421 0.4830
C32 C 0.5671(9) 0.3766(2) 0.4479(2)
C33 C 0.3512(8) 0.3620(3) 0.5144(2)
C34 C 0.1806(9) 0.3561(4) 0.5447(2)
H18 H 0.0734 0.3484 0.5257
H19 H 0.1600 0.3889 0.5615
H20 H 0.1997 0.3271 0.5662
C35 C 0.6431(7) 0.3922(2) 0.4039(2)
C36 C 0.8284(9) 0.3843(3) 0.3915(3)
H21 H 0.9058 0.3651 0.4115
C37 C 0.9003(9) 0.4033(3) 0.3519(3)
C38 C 0.6196(9) 0.4380(3) 0.3302(2)
H23 H 0.5458 0.4570 0.3093
C39 C 0.5381(9) 0.4199(3) 0.3702(3)
H24 H 0.4113 0.4260 0.3752
F1 F 0.7327(9) 0.3225(2) 0.67838(19)
F2 F 0.4797(8) 0.2805(2) 0.66794(19)
F3 F 0.9230(8) 0.2667(3) 0.62280(19)
F4 F 0.7138(10) 0.20902(18) 0.63540(16)
F5 F 0.8239(6) 0.25885(15) 0.54089(14)
F6 F 0.5505(7) 0.22688(15) 0.55492(16)
N2 N 0.7991(7) 0.42976(19) 0.3194(2)
S1 S 0.4370(3) 0.49403(6) 0.62621(6)
S2 S 0.3325(2) 0.38825(8) 0.46009(6)
Zn2 Zn 0.92336(10) 0.45809(3) 0.26148(3)
C15 C 0.5762(10) 0.4525(3) 0.2065(2)
H9 H 0.5936 0.4156 0.2099
C16_2 C 0.4126(10) 0.4704(2) 0.1842(2)
H10_2 H 0.3235 0.4461 0.1736
C17_2 C 0.3872(8) 0.5259(2) 0.1785(2)
C18 C 0.5272(9) 0.5597(2) 0.1958(2)
H11 H 0.5154 0.5967 0.1924
C19 C 0.6805(10) 0.5392(3) 0.2176(2)
H12 H 0.7704 0.5625 0.2293
C20_2 C 0.2183(9) 0.5465(2) 0.1544(2)
C21_2 C 0.1656(9) 0.5996(2) 0.1495(2)
H13_2 H 0.2303 0.6280 0.1630
C22_2 C 0.0021(8) 0.6068(2) 0.1216(2)
C33_2 C 0.1488(8) 0.6380(3) 0.0144(2)
C34_2 C 0.3194(9) 0.6439(4) 0.0447(2)
H18_2 H 0.4266 0.6516 0.0257
H19_2 H 0.3400 0.6111 0.0615
H20_2 H 0.3003 0.6729 0.0662
F2_2 F 0.0203(8) 0.7195(2) 0.16794(19)
N1 N 0.7050(7) 0.48463(18) 0.22243(17)
S1_2 S 0.0630(3) 0.50597(6) 0.12621(6)
H6 H 0.9376 0.2600 0.2020
O4 O 0.8361(9) 0.3542(2) 0.2273(3)
C1 C 0.3288(10) 0.4708(2) 0.7976(3)
C2 C 0.2162(9) 0.4181(3) 0.7986(2)
C3 C 0.0536(10) 0.4132(3) 0.8248(3)
H1 H 0.0186 0.4410 0.8446
C6 C 0.1599(10) 0.3301(2) 0.7688(2)
H3 H 0.1990 0.3017 0.7501
C7 C 0.2693(9) 0.3757(2) 0.7713(2)
H4 H 0.3798 0.3776 0.7544
H8 H 0.0693 0.2247 0.7687
C15_2 C 0.9238(10) 0.5475(3) 0.7065(2)
H9_2 H 0.9064 0.5844 0.7099
C18_2 C 0.9728(9) 0.4403(2) 0.6958(2)
H11_2 H 0.9846 0.4033 0.6924
C19_2 C 0.8195(10) 0.4608(3) 0.7176(2)
H12_2 H 0.7296 0.4375 0.7293
N1_2 N 0.7950(7) 0.51537(18) 0.72243(17)
O1 O 0.4582(6) 0.47221(15) 0.76839(16)
O2 O 0.2835(7) 0.5058(2) 0.8247(2)
Zn1 Zn 0.57664(10) 0.54191(3) 0.76148(3)
N3 N 0.7009(7) 0.57024(19) 0.8194(2)
O5 O 0.4093(7) 0.59659(18) 0.74113(19)
C31_2 C 0.8503(9) 0.6477(2) 0.9836(2)
H17_2 H 0.7251 0.6579 0.9830
C32_2 C 0.9329(9) 0.6234(2) 0.9479(2)
C35_2 C 0.8569(7) 0.6078(2) 0.9039(2)
C36_2 C 0.6716(9) 0.6157(3) 0.8915(3)
H21_2 H 0.5942 0.6349 0.9115
C37_2 C 0.5997(9) 0.5967(3) 0.8519(3)
H22_2 H 0.4728 0.6020 0.8464
C38_2 C 0.8804(9) 0.5620(3) 0.8302(2)
H23_2 H 0.9542 0.5430 0.8093
C39_2 C 0.9619(9) 0.5801(3) 0.8702(3)
C4 C 0.0575(11) 0.8673(3) 0.6781(3)
H2 H 0.1668 0.8649 0.6607
C5 C 0.0054(9) 0.8251(3) 0.7070(3)
C8 C 0.1256(10) 0.7771(3) 0.7122(3)
C9 C 0.3209(11) 0.7806(3) 0.7029(3)
H5 H 0.3714 0.8130 0.6928
C10 C 0.4354(11) 0.7369(3) 0.7086(3)
H6_2 H 0.5624 0.7400 0.7020
C11 C 0.3632(9) 0.6866(3) 0.7246(3)
C12 C 0.1765(11) 0.6848(3) 0.7334(3)
H7 H 0.1253 0.6530 0.7448
C13 C 0.0585(11) 0.7287(3) 0.7263(3)
C14 C 0.4888(12) 0.6411(3) 0.7300(3)
O4_2 O 0.6639(9) 0.6458(2) 0.7273(3)
C4_2 C 0.9425(11) 0.3673(3) 0.8219(3)
H2_2 H 0.8332 0.3649 0.8393
C5_2 C 0.9946(9) 0.3251(3) 0.7930(3)
C8_2 C 0.8744(10) 0.2771(3) 0.7878(3)
C9_2 C 0.6791(11) 0.2806(3) 0.7971(3)
H5_2 H 0.6286 0.3130 0.8072
C10_2 C 0.5646(11) 0.2369(3) 0.7914(3)
H6_3 H 0.4376 0.2400 0.7980
C11_2 C 0.6368(9) 0.1866(3) 0.7754(3)
C12_2 C 0.8235(11) 0.1848(3) 0.7666(3)
H7_2 H 0.8747 0.1530 0.7552
C13_2 C 0.9415(11) 0.2287(3) 0.7737(3)
C14_2 C 0.5112(12) 0.1411(3) 0.7700(3)
O3 O 0.5907(7) 0.09659(18) 0.75887(19)
O4_3 O 0.3361(9) 0.1458(2) 0.7727(3)
Zn3 Zn 0.42336(10) 0.04191(3) 0.73852(3)
C15_3 C 0.0762(10) 0.0475(3) 0.7935(2)
H9_3 H 0.0936 0.0844 0.7901
N1_3 N 0.2050(7) 0.01537(18) 0.77757(17)
O2_2 O 0.7165(7) 0.0058(2) 0.6753(2)
N3_2 N 0.2991(7) 0.07024(19) 0.6806(2)
C23_2 C 0.0678(10) 0.0583(2) 0.3931(2)
C24_2 C 0.2382(10) 0.0491(3) 0.4214(3)
H14_2 H 0.3413 0.0406 0.4013
H15_2 H 0.2169 0.0198 0.4424
H16_2 H 0.2668 0.0811 0.4387
C25_2 C 0.0696(9) 0.1581(2) 0.3911(2)
C26_2 C 0.1309(12) 0.1989(3) 0.3545(3)
C27_2 C 0.2304(12) 0.2449(3) 0.3810(3)
C28_2 C 0.1765(9) 0.2356(2) 0.4312(2)
C29_2 C 0.0908(8) 0.1794(2) 0.4339(2)
C30_2 C 0.0326(8) 0.1569(2) 0.4775(2)
C31_3 C 0.1497(9) 0.1477(2) 0.5164(2)
H17_3 H 0.2749 0.1579 0.5170
C32_3 C 0.0671(9) 0.1234(2) 0.5521(2)
C35_3 C 0.1431(7) 0.1078(2) 0.5961(2)
C36_3 C 0.3284(9) 0.1157(3) 0.6085(3)
H21_3 H 0.4058 0.1349 0.5885
C37_3 C 0.4003(9) 0.0967(3) 0.6481(3)
H22_3 H 0.5272 0.1020 0.6536
C38_3 C 0.1196(9) 0.0620(3) 0.6698(2)
H23_3 H 0.0458 0.0430 0.6907
C39_3 C 0.0381(9) 0.0801(3) 0.6298(3)
F1_2 F 0.2327(9) 0.1775(2) 0.32162(19)
F3_2 F 0.4230(8) 0.2333(3) 0.37720(19)
F4_2 F 0.2138(10) 0.29098(18) 0.36460(16)
F5_2 F 0.3239(6) 0.24115(15) 0.45911(14)
F6_2 F 0.0505(7) 0.27312(15) 0.44508(16)
H6_4 H 0.0624 0.7600 0.2980
O4_4 O 0.1639(9) 0.8542(2) 0.2727(3)
Zn3_2 Zn 0.07664(10) 0.95809(3) 0.23852(3)
C31_4 C 0.3503(9) 0.8523(2) 0.0164(2)
H17_4 H 0.2251 0.8421 0.0170
C32_4 C 0.4329(9) 0.8766(2) 0.0521(2)
C35_4 C 0.3569(7) 0.8922(2) 0.0961(2)
C36_4 C 0.1716(9) 0.8843(3) 0.1085(3)
H21_4 H 0.0942 0.8651 0.0885
C37_4 C 0.0997(9) 0.9033(3) 0.1481(3)
C38_4 C 0.3804(9) 0.9380(3) 0.1698(2)
H23_4 H 0.4542 0.9570 0.1907
C39_4 C 0.4619(9) 0.9199(3) 0.1298(3)
H24_2 H 0.5887 0.9260 0.1248
N2_2 N 0.2009(7) 0.92976(19) 0.1806(2)
S2_2 S 0.6675(2) 0.88825(8) 0.03991(6)
C15_4 C 0.4238(10) 0.9525(3) 0.2935(2)
H9_4 H 0.4064 0.9156 0.2901
C16_3 C 0.5874(10) 0.9704(2) 0.3158(2)
H10_3 H 0.6765 0.9461 0.3264
N1_4 N 0.2950(7) 0.98463(18) 0.27757(17)
C1_2 C 0.1712(10) 0.5292(2) 0.2976(3)
C2_2 C 0.2838(9) 0.5819(3) 0.2986(2)
C3_2 C 0.4464(10) 0.5868(3) 0.3248(3)
H1_2 H 0.4814 0.5590 0.3446
C4_3 C 0.5575(11) 0.6327(3) 0.3219(3)
H2_3 H 0.6668 0.6351 0.3393
C5_3 C 0.5054(9) 0.6749(3) 0.2930(3)
C6_2 C 0.3401(10) 0.6699(2) 0.2688(2)
H3_2 H 0.3010 0.6983 0.2501
C7_2 C 0.2307(9) 0.6243(2) 0.2713(2)
H4_2 H 0.1202 0.6224 0.2544
C8_3 C 0.6256(10) 0.7229(3) 0.2878(3)
C9_3 C 0.8209(11) 0.7194(3) 0.2971(3)
H5_3 H 0.8714 0.6870 0.3072
C10_3 C 0.9354(11) 0.7631(3) 0.2914(3)
C11_3 C 0.8632(9) 0.8134(3) 0.2754(3)
C12_3 C 0.6765(11) 0.8152(3) 0.2666(3)
H7_3 H 0.6253 0.8470 0.2552
C13_3 C 0.5585(11) 0.7713(3) 0.2737(3)
H8_2 H 0.4307 0.7753 0.2687
C14_3 C 0.9888(12) 0.8589(3) 0.2700(3)
O1_2 O 0.0418(6) 0.52779(15) 0.26839(16)
O2_3 O 0.2165(7) 0.4942(2) 0.3247(2)
O3_2 O 0.9093(7) 0.90341(18) 0.25887(19)
O5_2 O 0.0907(7) 0.40341(18) 0.24113(19)
C1_3 C 0.8288(10) 0.0292(2) 0.2024(3)
C2_3 C 0.7162(9) 0.0819(3) 0.2014(2)
C3_3 C 0.5536(10) 0.0868(3) 0.1752(3)
H1_3 H 0.5186 0.0590 0.1554
C4_4 C 0.4425(11) 0.1327(3) 0.1781(3)
H2_4 H 0.3332 0.1351 0.1607
C5_4 C 0.4946(9) 0.1749(3) 0.2070(3)
C6_3 C 0.6599(10) 0.1699(2) 0.2312(2)
H3_3 H 0.6990 0.1983 0.2499
C7_3 C 0.7693(9) 0.1243(2) 0.2287(2)
H4_3 H 0.8798 0.1224 0.2456
C8_4 C 0.3744(10) 0.2229(3) 0.2122(3)
C9_4 C 0.1791(11) 0.2194(3) 0.2029(3)
H5_4 H 0.1286 0.1870 0.1928
C10_4 C 0.0646(11) 0.2631(3) 0.2086(3)
C11_4 C 0.1368(9) 0.3134(3) 0.2246(3)
C12_4 C 0.3235(11) 0.3152(3) 0.2334(3)
H7_4 H 0.3747 0.3470 0.2448
C13_4 C 0.4415(11) 0.2713(3) 0.2263(3)
H8_3 H 0.5693 0.2753 0.2313
C14_4 C 0.0112(12) 0.3589(3) 0.2300(3)
O1_3 O 0.9582(6) 0.02779(15) 0.23161(16)
O2_4 O 0.7835(7) 0.9942(2) 0.1753(2)
H24_3 H 0.0887 0.5740 0.8752
S2_3 S 0.1675(2) 0.61175(8) 0.96009(6)
C23_3 C 0.9322(10) 0.5583(2) 0.1069(2)
C24_3 C 0.7618(10) 0.5491(3) 0.0786(3)
H14_3 H 0.6587 0.5406 0.0987
H15_3 H 0.7831 0.5198 0.0576
H16_3 H 0.7332 0.5811 0.0613
C25_3 C 0.9304(9) 0.6581(2) 0.1089(2)
C26_3 C 0.8691(12) 0.6989(3) 0.1455(3)
C27_3 C 0.7696(12) 0.7449(3) 0.1190(3)
C28_3 C 0.8235(9) 0.7356(2) 0.0688(2)
C29_3 C 0.9092(8) 0.6794(2) 0.0661(2)
C30_3 C 0.9674(8) 0.6569(2) 0.0225(2)
F1_3 F 0.7673(9) 0.6775(2) 0.17838(19)
F3_3 F 0.5770(8) 0.7333(3) 0.12280(19)
F4_3 F 0.7862(10) 0.79098(18) 0.13540(16)
F5_3 F 0.6761(6) 0.74115(15) 0.04089(14)
F6_3 F 0.9495(7) 0.77312(15) 0.05492(16)
C1_4 C 0.6712(10) 0.9708(2) 0.7024(3)
C2_4 C 0.7838(9) 0.9181(3) 0.7014(2)
C3_4 C 0.9464(10) 0.9132(3) 0.6752(3)
H1_4 H 0.9814 0.9410 0.6554
C6_4 C 0.8401(10) 0.8301(2) 0.7312(2)
H3_4 H 0.8010 0.8017 0.7499
C7_4 C 0.7307(9) 0.8757(2) 0.7287(2)
H4_4 H 0.6202 0.8776 0.7456
H8_4 H 0.9307 0.7247 0.7313
C18_3 C 0.0272(9) 0.9403(2) 0.8042(2)
H11_3 H 0.0154 0.9033 0.8076
C19_3 C 0.1805(10) 0.9608(3) 0.7824(2)
H12_3 H 0.2704 0.9375 0.7707
O1_4 O 0.5418(6) 0.97221(15) 0.73161(16)
C16_4 C 0.9126(10) 0.0296(2) 0.8158(2)
H10_4 H 0.8235 0.0539 0.8264
C17_3 C 0.8872(8) 0.9741(2) 0.8215(2)
C20_3 C 0.7183(9) 0.9535(2) 0.8456(2)
C21_3 C 0.6656(9) 0.9004(2) 0.8505(2)
H13_3 H 0.7303 0.8720 0.8370
C22_3 C 0.5021(8) 0.8932(2) 0.8784(2)
C23_4 C 0.4322(10) 0.9417(2) 0.8931(2)
C24_4 C 0.2618(10) 0.9509(3) 0.9214(3)
H14_4 H 0.1587 0.9594 0.9013
H15_4 H 0.2831 0.9802 0.9424
H16_4 H 0.2332 0.9189 0.9387
C25_4 C 0.4304(9) 0.8419(2) 0.8911(2)
C26_4 C 0.3691(12) 0.8011(3) 0.8545(3)
C27_4 C 0.2696(12) 0.7551(3) 0.8810(3)
C28_4 C 0.3235(9) 0.7644(2) 0.9312(2)
C29_4 C 0.4092(8) 0.8206(2) 0.9339(2)
C30_4 C 0.4674(8) 0.8431(2) 0.9775(2)
C33_3 C 0.6488(8) 0.8620(3) 0.9856(2)
C34_3 C 0.8194(9) 0.8561(4) 0.9553(2)
H18_3 H 0.9266 0.8484 0.9743
H19_3 H 0.8400 0.8889 0.9385
H20_3 H 0.8003 0.8271 0.9338
F1_4 F 0.2673(9) 0.8225(2) 0.82162(19)
F2_3 F 0.5203(8) 0.7805(2) 0.83206(19)
F3_4 F 0.0770(8) 0.7667(3) 0.87720(19)
F4_4 F 0.2862(10) 0.70902(18) 0.86460(16)
F5_4 F 0.1761(6) 0.75885(15) 0.95911(14)
F6_4 F 0.4495(7) 0.72688(15) 0.94508(16)
S1_3 S 0.5630(3) 0.99403(6) 0.87379(6)
H22_4 H 0.9728 0.8980 0.1536
C17_4 C 0.6128(8) 0.0259(2) 0.3215(2)
C18_4 C 0.4728(9) 0.0597(2) 0.3042(2)
H11_4 H 0.4846 0.0967 0.3076
C19_4 C 0.3195(10) 0.0392(3) 0.2824(2)
H12_4 H 0.2296 0.0625 0.2707
C20_4 C 0.7817(9) 0.0465(2) 0.3456(2)
C21_4 C 0.8344(9) 0.0996(2) 0.3505(2)
H13_4 H 0.7697 0.1280 0.3370
C22_4 C 0.9979(8) 0.1068(2) 0.3784(2)
C33_4 C 0.8512(8) 0.1380(3) 0.4856(2)
C34_4 C 0.6806(9) 0.1439(4) 0.4553(2)
H18_4 H 0.5734 0.1516 0.4743
H19_4 H 0.6600 0.1111 0.4385
H20_4 H 0.6997 0.1729 0.4338
H24_4 H 0.9113 0.0740 0.6248
F2_4 F 0.9797(8) 0.2195(2) 0.33206(19)
S1_4 S 0.9370(3) 0.00597(6) 0.37379(6)
S2_4 S 0.8325(2) 0.11175(8) 0.53991(6)
loop_
_geom_bond_atom_site_label_1
_geom_bond_atom_site_label_2
_geom_bond_site_symmetry_1
_geom_bond_site_symmetry_2
H10 C16 1_555 1_555
C17 C16 1_555 1_555
C20 C17 1_555 1_555
C21 C20 1_555 1_555
H13 C21 1_555 1_555
C22 C21 1_555 1_555
C23 C22 1_555 1_555
C24 C23 1_555 1_555
H14 C24 1_555 1_555
H15 C24 1_555 1_555
H16 C24 1_555 1_555
C25 C22 1_555 1_555
C26 C25 1_555 1_555
C27 C26 1_555 1_555
C28 C27 1_555 1_555
C29 C25 1_555 1_555
C30 C29 1_555 1_555
C31 C30 1_555 1_555
H17 C31 1_555 1_555
C32 C31 1_555 1_555
C33 C30 1_555 1_555
C34 C33 1_555 1_555
H18 C34 1_555 1_555
H19 C34 1_555 1_555
H20 C34 1_555 1_555
C35 C32 1_555 1_555
C36 C35 1_555 1_555
H21 C36 1_555 1_555
C37 C36 1_555 1_555
C38 H23 1_555 1_555
C39 C35 1_555 1_555
H24 C39 1_555 1_555
F1 C26 1_555 1_555
F2 C26 1_555 1_555
F3 C27 1_555 1_555
F4 C27 1_555 1_555
F5 C28 1_555 1_555
F6 C28 1_555 1_555
N2 C37 1_555 1_555
S1 C20 1_555 1_555
S2 C32 1_555 1_555
Zn2 N2 1_555 1_555
C23 S1 1_555 1_555
C28 C29 1_555 1_555
C33 S2 1_555 1_555
C38 C39 1_555 1_555
C38 N2 1_555 1_555
C15 H9 1_555 1_555
C16_2 C15 1_555 1_555
H10_2 C16_2 1_555 1_555
C17_2 C16_2 1_555 1_555
C18 C17_2 1_555 1_555
H11 C18 1_555 1_555
C19 C18 1_555 1_555
H12 C19 1_555 1_555
C20_2 C17_2 1_555 1_555
C21_2 C20_2 1_555 1_555
H13_2 C21_2 1_555 1_555
C22_2 C21_2 1_555 1_555
C34_2 C33_2 1_555 1_555
H18_2 C34_2 1_555 1_555
H19_2 C34_2 1_555 1_555
H20_2 C34_2 1_555 1_555
N1 C15 1_555 1_555
S1_2 C20_2 1_555 1_555
Zn2 N1 1_555 1_555
C19 N1 1_555 1_555
C1 C2 1_555 1_555
C2 C3 1_555 1_555
C3 H1 1_555 1_555
H3 C6 1_555 1_555
C7 C2 1_555 1_555
H4 C7 1_555 1_555
C15_2 H9_2 1_555 1_555
H11_2 C18_2 1_555 1_555
C19_2 C18_2 1_555 1_555
H12_2 C19_2 1_555 1_555
N1_2 C15_2 1_555 1_555
O1 C1 1_555 1_555
O2 C1 1_555 1_555
Zn1 N1_2 1_555 1_555
N3 Zn1 1_555 1_555
O5 Zn1 1_555 1_555
C6 C7 1_555 1_555
C19_2 N1_2 1_555 1_555
O1 Zn1 1_555 1_555
H17_2 C31_2 1_555 1_555
C32_2 C31_2 1_555 1_555
C35_2 C32_2 1_555 1_555
C36_2 C35_2 1_555 1_555
H21_2 C36_2 1_555 1_555
C37_2 C36_2 1_555 1_555
H22_2 C37_2 1_555 1_555
C38_2 H23_2 1_555 1_555
C39_2 C35_2 1_555 1_555
N3 C37_2 1_555 1_555
C38_2 C39_2 1_555 1_555
C38_2 N3 1_555 1_555
H2 C4 1_555 1_555
C5 C4 1_555 1_555
C8 C5 1_555 1_555
C9 C8 1_555 1_555
H5 C9 1_555 1_555
C10 C9 1_555 1_555
H6_2 C10 1_555 1_555
C11 C10 1_555 1_555
C12 C11 1_555 1_555
H7 C12 1_555 1_555
C13 C8 1_555 1_555
C14 C11 1_555 1_555
O5 C14 1_555 1_555
O4_2 C14 1_555 1_555
C12 C13 1_555 1_555
H2_2 C4_2 1_555 1_555
C5_2 C4_2 1_555 1_555
C8_2 C5_2 1_555 1_555
C9_2 C8_2 1_555 1_555
H5_2 C9_2 1_555 1_555
C10_2 C9_2 1_555 1_555
H6_3 C10_2 1_555 1_555
C11_2 C10_2 1_555 1_555
C12_2 C11_2 1_555 1_555
H7_2 C12_2 1_555 1_555
C13_2 C8_2 1_555 1_555
C14_2 C11_2 1_555 1_555
O3 C14_2 1_555 1_555
O4_3 C14_2 1_555 1_555
Zn3 O3 1_555 1_555
C12_2 C13_2 1_555 1_555
C15_3 H9_3 1_555 1_555
N1_3 C15_3 1_555 1_555
Zn3 N1_3 1_555 1_555
N3_2 Zn3 1_555 1_555
C24_2 C23_2 1_555 1_555
H14_2 C24_2 1_555 1_555
H15_2 C24_2 1_555 1_555
H16_2 C24_2 1_555 1_555
C26_2 C25_2 1_555 1_555
C27_2 C26_2 1_555 1_555
C28_2 C27_2 1_555 1_555
C29_2 C25_2 1_555 1_555
C30_2 C29_2 1_555 1_555
C31_3 C30_2 1_555 1_555
H17_3 C31_3 1_555 1_555
C32_3 C31_3 1_555 1_555
C35_3 C32_3 1_555 1_555
C36_3 C35_3 1_555 1_555
H21_3 C36_3 1_555 1_555
C37_3 C36_3 1_555 1_555
H22_3 C37_3 1_555 1_555
C38_3 H23_3 1_555 1_555
C39_3 C35_3 1_555 1_555
F1_2 C26_2 1_555 1_555
F3_2 C27_2 1_555 1_555
F4_2 C27_2 1_555 1_555
F5_2 C28_2 1_555 1_555
F6_2 C28_2 1_555 1_555
N3_2 C37_3 1_555 1_555
C28_2 C29_2 1_555 1_555
C38_3 C39_3 1_555 1_555
C38_3 N3_2 1_555 1_555
H17_4 C31_4 1_555 1_555
C32_4 C31_4 1_555 1_555
C35_4 C32_4 1_555 1_555
C36_4 C35_4 1_555 1_555
H21_4 C36_4 1_555 1_555
C37_4 C36_4 1_555 1_555
C38_4 H23_4 1_555 1_555
C39_4 C35_4 1_555 1_555
H24_2 C39_4 1_555 1_555
N2_2 C37_4 1_555 1_555
S2_2 C32_4 1_555 1_555
Zn3_2 N2_2 1_555 1_555
C38_4 C39_4 1_555 1_555
C38_4 N2_2 1_555 1_555
C15_4 H9_4 1_555 1_555
C16_3 C15_4 1_555 1_555
H10_3 C16_3 1_555 1_555
N1_4 C15_4 1_555 1_555
Zn3_2 N1_4 1_555 1_555
C1_2 C2_2 1_555 1_555
C2_2 C3_2 1_555 1_555
C3_2 H1_2 1_555 1_555
C4_3 C3_2 1_555 1_555
H2_3 C4_3 1_555 1_555
C5_3 C4_3 1_555 1_555
C6_2 C5_3 1_555 1_555
H3_2 C6_2 1_555 1_555
C7_2 C2_2 1_555 1_555
H4_2 C7_2 1_555 1_555
C8_3 C5_3 1_555 1_555
C9_3 C8_3 1_555 1_555
H5_3 C9_3 1_555 1_555
C10_3 C9_3 1_555 1_555
C11_3 C10_3 1_555 1_555
C12_3 C11_3 1_555 1_555
H7_3 C12_3 1_555 1_555
C13_3 C8_3 1_555 1_555
H8_2 C13_3 1_555 1_555
C14_3 C11_3 1_555 1_555
O1_2 C1_2 1_555 1_555
O2_3 C1_2 1_555 1_555
O3_2 C14_3 1_555 1_555
C6_2 C7_2 1_555 1_555
C12_3 C13_3 1_555 1_555
C1_3 C2_3 1_555 1_555
C2_3 C3_3 1_555 1_555
C3_3 H1_3 1_555 1_555
C4_4 C3_3 1_555 1_555
H2_4 C4_4 1_555 1_555
C5_4 C4_4 1_555 1_555
C6_3 C5_4 1_555 1_555
H3_3 C6_3 1_555 1_555
C7_3 C2_3 1_555 1_555
H4_3 C7_3 1_555 1_555
C8_4 C5_4 1_555 1_555
C9_4 C8_4 1_555 1_555
H5_4 C9_4 1_555 1_555
C10_4 C9_4 1_555 1_555
C11_4 C10_4 1_555 1_555
C12_4 C11_4 1_555 1_555
H7_4 C12_4 1_555 1_555
C13_4 C8_4 1_555 1_555
H8_3 C13_4 1_555 1_555
C14_4 C11_4 1_555 1_555
O1_3 C1_3 1_555 1_555
O5_2 C14_4 1_555 1_555
C6_3 C7_3 1_555 1_555
C12_4 C13_4 1_555 1_555
C24_3 C23_3 1_555 1_555
H14_3 C24_3 1_555 1_555
H15_3 C24_3 1_555 1_555
H16_3 C24_3 1_555 1_555
C26_3 C25_3 1_555 1_555
C27_3 C26_3 1_555 1_555
C28_3 C27_3 1_555 1_555
C29_3 C25_3 1_555 1_555
C30_3 C29_3 1_555 1_555
F1_3 C26_3 1_555 1_555
F3_3 C27_3 1_555 1_555
F4_3 C27_3 1_555 1_555
F5_3 C28_3 1_555 1_555
F6_3 C28_3 1_555 1_555
C28_3 C29_3 1_555 1_555
C1_4 C2_4 1_555 1_555
C2_4 C3_4 1_555 1_555
C3_4 H1_4 1_555 1_555
H3_4 C6_4 1_555 1_555
C7_4 C2_4 1_555 1_555
H4_4 C7_4 1_555 1_555
H11_3 C18_3 1_555 1_555
C19_3 C18_3 1_555 1_555
H12_3 C19_3 1_555 1_555
O1_4 C1_4 1_555 1_555
C6_4 C7_4 1_555 1_555
H10_4 C16_4 1_555 1_555
C20_3 C17_3 1_555 1_555
C21_3 C20_3 1_555 1_555
H13_3 C21_3 1_555 1_555
C22_3 C21_3 1_555 1_555
C23_4 C22_3 1_555 1_555
C24_4 C23_4 1_555 1_555
H14_4 C24_4 1_555 1_555
H15_4 C24_4 1_555 1_555
H16_4 C24_4 1_555 1_555
C25_4 C22_3 1_555 1_555
C26_4 C25_4 1_555 1_555
C27_4 C26_4 1_555 1_555
C28_4 C27_4 1_555 1_555
C29_4 C25_4 1_555 1_555
C30_4 C29_4 1_555 1_555
C33_3 C30_4 1_555 1_555
C34_3 C33_3 1_555 1_555
H18_3 C34_3 1_555 1_555
H19_3 C34_3 1_555 1_555
H20_3 C34_3 1_555 1_555
F1_4 C26_4 1_555 1_555
F2_3 C26_4 1_555 1_555
F3_4 C27_4 1_555 1_555
F4_4 C27_4 1_555 1_555
F5_4 C28_4 1_555 1_555
F6_4 C28_4 1_555 1_555
S1_3 C20_3 1_555 1_555
C23_4 S1_3 1_555 1_555
C28_4 C29_4 1_555 1_555
C18_4 C17_4 1_555 1_555
H11_4 C18_4 1_555 1_555
C19_4 C18_4 1_555 1_555
H12_4 C19_4 1_555 1_555
C20_4 C17_4 1_555 1_555
C21_4 C20_4 1_555 1_555
H13_4 C21_4 1_555 1_555
C22_4 C21_4 1_555 1_555
C34_4 C33_4 1_555 1_555
H18_4 C34_4 1_555 1_555
H19_4 C34_4 1_555 1_555
H20_4 C34_4 1_555 1_555
S1_4 C20_4 1_555 1_555
C33_4 S2_4 1_555 1_555

#END
