
###############################################################################
#
# This file contains modified crystal structure data generated from the
# MOF subset of the Cambridge Structural Database (CSD) v543 
# hosted by the Cambridge Crystallographic Data Centre (CCDC).
#
# This work is licensed under the Creative Commons
# Attribution-NonCommercial-ShareAlike 4.0 International License.
# To view a copy of this license, visit
# http://creativecommons.org/licenses/by-nc-sa/4.0/
# or send a letter to
# Creative Commons, PO Box 1866, Mountain View, CA 94042, USA.
#
# CIF created using the CSD Python API on 29 September 2022
# The structure has been converted into the P1 space group
# The structure has a 3D framework
# The original CSD entry YOLKEQ is in the orthorhombic crystal system
# The framework has been calculated to contain at least 10.0% void space
# The void calculation uses a probe of radius 1.32A, grid spacing 0.4
#
###############################################################################

data_YOLKEQ
_chemical_formula_moiety         '(C64 H73 Co8 N17 O40)n'
_symmetry_cell_setting           triclinic
_symmetry_space_group_name_H-M   'P 1'
_symmetry_Int_Tables_number      1
_space_group_name_Hall           'P 1'
loop_
_symmetry_equiv_pos_site_id
_symmetry_equiv_pos_as_xyz
1 x,y,z
_cell_length_a                   20.115(3)
_cell_length_b                   10.1473(12)
_cell_length_c                   10.4271(13)
_cell_angle_alpha                90
_cell_angle_beta                 90
_cell_angle_gamma                90
_cell_volume                     2128.31
loop_
_atom_site_label
_atom_site_type_symbol
_atom_site_fract_x
_atom_site_fract_y
_atom_site_fract_z
H2 H 0.2179(10) 0.0765(17) 0.523(2)
O8 O 0.33940(6) 0.07146(11) 0.39667(12)
Co1 Co 0.289050(9) 0.895000(18) 0.44274(3)
O1 O 0.23571(6) 0.71905(10) 0.46123(11)
O2 O 0.24170(6) 0.91673(11) 0.26622(11)
O3 O 0.16060(6) 0.57146(11) 0.39667(12)
O4 O 0.16567(6) 0.86384(12) 0.11976(11)
O5 O 0.20847(6) 0.99520(13) 0.53745(12)
H1 H 0.2182(10) 0.983(2) 0.6143(16)
N1 N 0.13221(7) 0.27732(13) 0.36192(13)
N2 N 0.0000 -0.0000 0.20505(19)
H3 H 0.0000 -0.0000 0.1219(18)
C1 C 0.13604(9) 0.23430(18) 0.24026(17)
H4 H 0.1707 0.2679 0.1877
C2 C 0.09269(10) 0.14435(19) 0.18710(18)
H5 H 0.0972 0.1194 0.0997
C3 C 0.04210(8) 0.09006(15) 0.26219(17)
C4 C 0.03700(8) 0.13591(18) 0.38812(18)
H6 H 0.0027 0.1046 0.4429
C5 C 0.08248(7) 0.22734(16) 0.43189(18)
H7 H 0.0781 0.2569 0.5179
C6 C 0.18719(8) 0.86397(15) 0.23220(15)
C7 C 0.14467(8) 0.79588(16) 0.33351(16)
H8 H 0.1295 0.8617 0.3972
H9 H 0.1048 0.7574 0.2922
C8 C 0.18327(8) 0.68778(14) 0.40152(14)
Co2 Co 0.210950(9) 0.395000(18) 0.44274(3)
O6 O 0.26429(6) 0.21905(10) 0.46123(11)
O7 O 0.25830(6) 0.41673(11) 0.26622(11)
O10 O 0.16567(6) 0.36384(12) 0.61976(11)
O11 O 0.33433(6) 0.86384(12) 0.61976(11)
O12 O 0.33433(6) 0.36384(12) 0.11976(11)
O13 O 0.29153(6) 0.49520(13) 0.53745(12)
H10 H 0.2818(10) 0.483(2) 0.6143(16)
H11 H 0.2821(10) 0.5765(17) 0.523(2)
N3 N 0.36779(7) 0.77732(13) 0.36192(13)
C14 C 0.31281(8) 0.36397(15) 0.23220(15)
C15 C 0.35533(8) 0.29588(16) 0.33351(16)
H16 H 0.3705 0.3617 0.3972
H17 H 0.3952 0.2574 0.2922
C16 C 0.31673(8) 0.18778(14) 0.40152(14)
Co4 Co 0.210950(9) 0.895000(18) 0.94274(3)
Co5 Co 0.289050(9) 0.395000(18) 0.94274(3)
N2_2 N -0.0000 1.0000 0.20505(19)
H3_2 H -0.0000 1.0000 0.1219(18)
N2_3 N 1.0000 -0.0000 0.20505(19)
H3_3 H 1.0000 -0.0000 0.1219(18)
N2_4 N 1.0000 1.0000 0.20505(19)
H3_4 H 1.0000 1.0000 0.1219(18)
Co6 Co 0.789050(9) 0.605000(18) 0.44274(3)
N4 N 0.86779(7) 0.72268(13) 0.36192(13)
C9 C 0.86396(9) 0.76570(18) 0.24026(17)
H12 H 0.8293 0.7321 0.1877
C10 C 0.90731(10) 0.85565(19) 0.18710(18)
H13 H 0.9028 0.8806 0.0997
C11 C 0.95790(8) 0.90994(15) 0.26219(17)
C12 C 0.96300(8) 0.86409(18) 0.38812(18)
H14 H 0.9973 0.8954 0.4429
C13 C 0.91752(7) 0.77266(16) 0.43189(18)
H15 H 0.9219 0.7431 0.5179
Co3 Co 0.710950(9) 0.105000(18) 0.44274(3)
O1_2 O 0.76429(6) 0.28095(10) 0.46123(11)
O2_2 O 0.75830(6) 0.08327(11) 0.26622(11)
O3_2 O 0.83940(6) 0.42854(11) 0.39667(12)
O4_2 O 0.83433(6) 0.13616(12) 0.11976(11)
O5_2 O 0.79153(6) 0.00480(13) 0.53745(12)
H1_2 H 0.7818(10) 0.017(2) 0.6143(16)
C6_2 C 0.81281(8) 0.13603(15) 0.23220(15)
C7_2 C 0.85533(8) 0.20412(16) 0.33351(16)
H8_2 H 0.8705 0.1383 0.3972
H9_2 H 0.8952 0.2426 0.2922
C8_2 C 0.81673(8) 0.31222(14) 0.40152(14)
O6_2 O 0.73571(6) 0.78095(10) 0.46123(11)
O7_2 O 0.74170(6) 0.58327(11) 0.26622(11)
O9 O 0.66060(6) 0.92854(11) 0.39667(12)
O10_2 O 0.83433(6) 0.63616(12) 0.61976(11)
O11_2 O 0.66567(6) 0.13616(12) 0.61976(11)
O12_2 O 0.66567(6) 0.63616(12) 0.11976(11)
O13_2 O 0.70847(6) 0.50480(13) 0.53745(12)
H10_2 H 0.7182(10) 0.517(2) 0.6143(16)
H11_2 H 0.7179(10) 0.4235(17) 0.523(2)
N3_2 N 0.63221(7) 0.22268(13) 0.36192(13)
C14_2 C 0.68719(8) 0.63603(15) 0.23220(15)
C15_2 C 0.64467(8) 0.70412(16) 0.33351(16)
H16_2 H 0.6295 0.6383 0.3972
H17_2 H 0.6048 0.7426 0.2922
C16_2 C 0.68327(8) 0.81222(14) 0.40152(14)
Co4_2 Co 0.789050(9) 0.105000(18) 0.94274(3)
Co5_2 Co 0.710950(9) 0.605000(18) 0.94274(3)
H2_2 H 0.7821(10) 0.9235(17) 0.523(2)
N2_5 N 0.5000 0.5000 0.20505(19)
H3_5 H 0.5000 0.5000 0.1219(18)
C1_2 C 0.63604(9) 0.26570(18) 0.24026(17)
H4_2 H 0.6707 0.2321 0.1877
C2_2 C 0.59269(10) 0.35565(19) 0.18710(18)
H5_2 H 0.5972 0.3806 0.0997
C3_2 C 0.54210(8) 0.40994(15) 0.26219(17)
C4_2 C 0.53700(8) 0.36409(18) 0.38812(18)
H6_2 H 0.5027 0.3954 0.4429
C5_2 C 0.58248(7) 0.27266(16) 0.43189(18)
H7_2 H 0.5781 0.2431 0.5179
C9_2 C 0.36396(9) 0.73430(18) 0.24026(17)
H12_2 H 0.3293 0.7679 0.1877
C10_2 C 0.40731(10) 0.64435(19) 0.18710(18)
H13_2 H 0.4028 0.6194 0.0997
C11_2 C 0.45790(8) 0.59006(15) 0.26219(17)
C12_2 C 0.46300(8) 0.63591(18) 0.38812(18)
H14_2 H 0.4973 0.6046 0.4429
C13_2 C 0.41752(7) 0.72734(16) 0.43189(18)
H15_2 H 0.4219 0.7569 0.5179
O5_3 O 0.20847(6) 0.49520(13) 0.03745(12)
H1_3 H 0.2182(10) 0.483(2) 0.1143(16)
H2_3 H 0.2179(10) 0.5765(17) 0.023(2)
H11_3 H 0.2821(10) 0.0765(17) 0.023(2)
O1_3 O 0.23571(6) 0.21905(10) 0.96123(11)
O2_3 O 0.24170(6) 0.41673(11) 0.76622(11)
O3_3 O 0.16060(6) 0.07146(11) 0.89667(12)
C6_3 C 0.18719(8) 0.36397(15) 0.73220(15)
C7_3 C 0.14467(8) 0.29588(16) 0.83351(16)
H8_3 H 0.1295 0.3617 0.8972
H9_3 H 0.1048 0.2574 0.7922
C8_3 C 0.18327(8) 0.18778(14) 0.90152(14)
O8_2 O 0.33940(6) 0.57146(11) 0.89667(12)
N3_3 N 0.36779(7) 0.27732(13) 0.86192(13)
H7_3 H 0.0781 0.7569 0.0179
O13_3 O 0.29153(6) 0.99520(13) 0.03745(12)
H10_3 H 0.2818(10) 0.983(2) 0.1143(16)
N1_2 N 0.13221(7) 0.77732(13) 0.86192(13)
N2_6 N -0.0000 0.5000 0.70505(19)
H3_6 H 0.0000 0.5000 0.6219(18)
C1_3 C 0.13604(9) 0.73430(18) 0.74026(17)
H4_3 H 0.1707 0.7679 0.6877
C2_3 C 0.09269(10) 0.64435(19) 0.68710(18)
H5_3 H 0.0972 0.6194 0.5997
C3_3 C 0.04210(8) 0.59006(15) 0.76219(17)
C4_3 C 0.03700(8) 0.63591(18) 0.88812(18)
H6_3 H 0.0027 0.6046 0.9429
C5_3 C 0.08248(7) 0.72734(16) 0.93189(18)
O6_3 O 0.26429(6) 0.71905(10) 0.96123(11)
O7_3 O 0.25830(6) 0.91673(11) 0.76622(11)
C14_3 C 0.31281(8) 0.86397(15) 0.73220(15)
C15_3 C 0.35533(8) 0.79588(16) 0.83351(16)
H16_3 H 0.3705 0.8617 0.8972
H17_3 H 0.3952 0.7574 0.7922
C16_3 C 0.31673(8) 0.68778(14) 0.90152(14)
H15_3 H 0.9219 0.2431 0.0179
N2_7 N 1.0000 0.5000 0.70505(19)
H3_7 H 1.0000 0.5000 0.6219(18)
N4_2 N 0.86779(7) 0.22268(13) 0.86192(13)
C9_3 C 0.86396(9) 0.26570(18) 0.74026(17)
H12_3 H 0.8293 0.2321 0.6877
C10_3 C 0.90731(10) 0.35565(19) 0.68710(18)
H13_3 H 0.9028 0.3806 0.5997
C11_3 C 0.95790(8) 0.40994(15) 0.76219(17)
C12_3 C 0.96300(8) 0.36409(18) 0.88812(18)
H14_3 H 0.9973 0.3954 0.9429
C13_3 C 0.91752(7) 0.27266(16) 0.93189(18)
O13_4 O 0.70847(6) 0.00480(13) 0.03745(12)
H10_4 H 0.7182(10) 0.017(2) 0.1143(16)
O6_4 O 0.73571(6) 0.28095(10) 0.96123(11)
O7_4 O 0.74170(6) 0.08327(11) 0.76622(11)
O9_2 O 0.66060(6) 0.42854(11) 0.89667(12)
C14_4 C 0.68719(8) 0.13603(15) 0.73220(15)
C15_4 C 0.64467(8) 0.20412(16) 0.83351(16)
H16_4 H 0.6295 0.1383 0.8972
H17_4 H 0.6048 0.2426 0.7922
C16_4 C 0.68327(8) 0.31222(14) 0.90152(14)
O5_4 O 0.79153(6) 0.50480(13) 0.03745(12)
H1_4 H 0.7818(10) 0.517(2) 0.1143(16)
H2_4 H 0.7821(10) 0.4235(17) 0.023(2)
H11_4 H 0.7179(10) 0.9235(17) 0.023(2)
O1_4 O 0.76429(6) 0.78095(10) 0.96123(11)
O2_4 O 0.75830(6) 0.58327(11) 0.76622(11)
O3_4 O 0.83940(6) 0.92854(11) 0.89667(12)
C6_4 C 0.81281(8) 0.63603(15) 0.73220(15)
C7_4 C 0.85533(8) 0.70412(16) 0.83351(16)
H8_4 H 0.8705 0.6383 0.8972
H9_4 H 0.8952 0.7426 0.7922
C8_4 C 0.81673(8) 0.81222(14) 0.90152(14)
N3_4 N 0.63221(7) 0.72268(13) 0.86192(13)
H15_4 H 0.4219 0.2569 0.0179
N2_8 N 0.5000 0.0000 0.70505(19)
H3_8 H 0.5000 0.0000 0.6219(18)
C9_4 C 0.36396(9) 0.23430(18) 0.74026(17)
H12_4 H 0.3293 0.2679 0.6877
C10_4 C 0.40731(10) 0.14435(19) 0.68710(18)
H13_4 H 0.4028 0.1194 0.5997
C11_4 C 0.45790(8) 0.09006(15) 0.76219(17)
C12_4 C 0.46300(8) 0.13591(18) 0.88812(18)
H14_4 H 0.4973 0.1046 0.9429
C13_4 C 0.41752(7) 0.22734(16) 0.93189(18)
H7_4 H 0.5781 0.7431 0.0179
N2_9 N 0.5000 1.0000 0.70505(19)
H3_9 H 0.5000 1.0000 0.6219(18)
C1_4 C 0.63604(9) 0.76570(18) 0.74026(17)
H4_4 H 0.6707 0.7321 0.6877
C2_4 C 0.59269(10) 0.85565(19) 0.68710(18)
H5_4 H 0.5972 0.8806 0.5997
C3_4 C 0.54210(8) 0.90994(15) 0.76219(17)
C4_4 C 0.53700(8) 0.86409(18) 0.88812(18)
H6_4 H 0.5027 0.8954 0.9429
C5_4 C 0.58248(7) 0.77266(16) 0.93189(18)
loop_
_geom_bond_atom_site_label_1
_geom_bond_atom_site_label_2
_geom_bond_site_symmetry_1
_geom_bond_site_symmetry_2
Co1 O1 1_555 1_555
O1 C8 1_555 1_555
O2 Co1 1_555 1_555
O3 C8 1_555 1_555
O4 C6 1_555 1_555
O5 Co1 1_555 1_555
H1 O5 1_555 1_555
N1 C1 1_555 1_555
N2 H3 1_555 1_555
C1 H4 1_555 1_555
C2 C1 1_555 1_555
H5 C2 1_555 1_555
C3 N2 1_555 1_555
C4 C3 1_555 1_555
H6 C4 1_555 1_555
C5 N1 1_555 1_555
H7 C5 1_555 1_555
C6 O2 1_555 1_555
C7 C6 1_555 1_555
H8 C7 1_555 1_555
H9 C7 1_555 1_555
C8 C7 1_555 1_555
Co2 O3 1_555 1_555
O6 Co2 1_555 1_555
O7 Co2 1_555 1_555
O8 C16 1_555 1_555
O10 Co2 1_555 1_555
O11 Co1 1_555 1_555
O12 C14 1_555 1_555
O13 Co2 1_555 1_555
H10 O13 1_555 1_555
H11 O13 1_555 1_555
N3 Co1 1_555 1_555
C14 O7 1_555 1_555
C15 C14 1_555 1_555
H16 C15 1_555 1_555
H17 C15 1_555 1_555
C16 O6 1_555 1_555
N1 Co2 1_555 1_555
C2 C3 1_555 1_555
C4 C5 1_555 1_555
C15 C16 1_555 1_555
N2_2 H3_2 1_555 1_555
N2_3 H3_3 1_555 1_555
N2_4 H3_4 1_555 1_555
Co6 N4 1_555 1_555
N4 C9 1_555 1_555
C9 H12 1_555 1_555
C10 C9 1_555 1_555
H13 C10 1_555 1_555
C11 N2_4 1_555 1_555
C12 C11 1_555 1_555
H14 C12 1_555 1_555
C13 N4 1_555 1_555
H15 C13 1_555 1_555
C10 C11 1_555 1_555
C12 C13 1_555 1_555
Co3 O1_2 1_555 1_555
O1_2 C8_2 1_555 1_555
O2_2 Co3 1_555 1_555
O3_2 C8_2 1_555 1_555
O4_2 C6_2 1_555 1_555
O5_2 Co3 1_555 1_555
H1_2 O5_2 1_555 1_555
C6_2 O2_2 1_555 1_555
C7_2 C6_2 1_555 1_555
H8_2 C7_2 1_555 1_555
H9_2 C7_2 1_555 1_555
C8_2 C7_2 1_555 1_555
Co6 O3_2 1_555 1_555
O6_2 Co6 1_555 1_555
O7_2 Co6 1_555 1_555
O9 C16_2 1_555 1_555
O10_2 Co6 1_555 1_555
O11_2 Co3 1_555 1_555
O12_2 C14_2 1_555 1_555
O13_2 Co6 1_555 1_555
H10_2 O13_2 1_555 1_555
H11_2 O13_2 1_555 1_555
N3_2 Co3 1_555 1_555
C14_2 O7_2 1_555 1_555
C15_2 C14_2 1_555 1_555
H16_2 C15_2 1_555 1_555
H17_2 C15_2 1_555 1_555
C16_2 O6_2 1_555 1_555
C15_2 C16_2 1_555 1_555
N3_2 C1_2 1_555 1_555
N2_5 H3_5 1_555 1_555
C1_2 H4_2 1_555 1_555
C2_2 C1_2 1_555 1_555
H5_2 C2_2 1_555 1_555
C3_2 N2_5 1_555 1_555
C4_2 C3_2 1_555 1_555
H6_2 C4_2 1_555 1_555
C5_2 N3_2 1_555 1_555
H7_2 C5_2 1_555 1_555
N3 C9_2 1_555 1_555
C9_2 H12_2 1_555 1_555
C10_2 C9_2 1_555 1_555
H13_2 C10_2 1_555 1_555
C11_2 N2_5 1_555 1_555
C12_2 C11_2 1_555 1_555
H14_2 C12_2 1_555 1_555
C13_2 N3 1_555 1_555
H15_2 C13_2 1_555 1_555
C2_2 C3_2 1_555 1_555
C4_2 C5_2 1_555 1_555
C10_2 C11_2 1_555 1_555
C12_2 C13_2 1_555 1_555
H1_3 O5_3 1_555 1_555
H2_3 O5_3 1_555 1_555
Co5 O1_3 1_555 1_555
O1_3 C8_3 1_555 1_555
O2_3 Co5 1_555 1_555
O3_3 C8_3 1_555 1_555
O10 C6_3 1_555 1_555
C6_3 O2_3 1_555 1_555
C7_3 C6_3 1_555 1_555
H8_3 C7_3 1_555 1_555
H9_3 C7_3 1_555 1_555
C8_3 C7_3 1_555 1_555
O8_2 Co5 1_555 1_555
N3_3 Co5 1_555 1_555
H10_3 O13_3 1_555 1_555
N1_2 C1_3 1_555 1_555
N2_6 H3_6 1_555 1_555
C1_3 H4_3 1_555 1_555
C2_3 C1_3 1_555 1_555
H5_3 C2_3 1_555 1_555
C3_3 N2_6 1_555 1_555
C4_3 C3_3 1_555 1_555
H6_3 C4_3 1_555 1_555
C5_3 N1_2 1_555 1_555
O6_3 Co4 1_555 1_555
O7_3 Co4 1_555 1_555
O8_2 C16_3 1_555 1_555
O11 C14_3 1_555 1_555
C14_3 O7_3 1_555 1_555
C15_3 C14_3 1_555 1_555
H16_3 C15_3 1_555 1_555
H17_3 C15_3 1_555 1_555
C16_3 O6_3 1_555 1_555
N1_2 Co4 1_555 1_555
C2_3 C3_3 1_555 1_555
C4_3 C5_3 1_555 1_555
C15_3 C16_3 1_555 1_555
N2_7 H3_7 1_555 1_555
Co4_2 N4_2 1_555 1_555
N4_2 C9_3 1_555 1_555
C9_3 H12_3 1_555 1_555
C10_3 C9_3 1_555 1_555
H13_3 C10_3 1_555 1_555
C11_3 N2_7 1_555 1_555
C12_3 C11_3 1_555 1_555
H14_3 C12_3 1_555 1_555
C13_3 N4_2 1_555 1_555
C10_3 C11_3 1_555 1_555
C12_3 C13_3 1_555 1_555
H10_4 O13_4 1_555 1_555
Co5_2 O9_2 1_555 1_555
O6_4 Co4_2 1_555 1_555
O7_4 Co4_2 1_555 1_555
O9_2 C16_4 1_555 1_555
O11_2 C14_4 1_555 1_555
C14_4 O7_4 1_555 1_555
C15_4 C14_4 1_555 1_555
H16_4 C15_4 1_555 1_555
H17_4 C15_4 1_555 1_555
C16_4 O6_4 1_555 1_555
C15_4 C16_4 1_555 1_555
H1_4 O5_4 1_555 1_555
H2_4 O5_4 1_555 1_555
Co5_2 O1_4 1_555 1_555
O1_4 C8_4 1_555 1_555
O2_4 Co5_2 1_555 1_555
O3_4 C8_4 1_555 1_555
O10_2 C6_4 1_555 1_555
C6_4 O2_4 1_555 1_555
C7_4 C6_4 1_555 1_555
H8_4 C7_4 1_555 1_555
H9_4 C7_4 1_555 1_555
C8_4 C7_4 1_555 1_555
N3_4 Co5_2 1_555 1_555
N2_8 H3_8 1_555 1_555
N3_3 C9_4 1_555 1_555
C9_4 H12_4 1_555 1_555
C10_4 C9_4 1_555 1_555
H13_4 C10_4 1_555 1_555
C11_4 N2_8 1_555 1_555
C12_4 C11_4 1_555 1_555
H14_4 C12_4 1_555 1_555
C13_4 N3_3 1_555 1_555
C10_4 C11_4 1_555 1_555
C12_4 C13_4 1_555 1_555
N3_4 C1_4 1_555 1_555
N2_9 H3_9 1_555 1_555
C1_4 H4_4 1_555 1_555
C2_4 C1_4 1_555 1_555
H5_4 C2_4 1_555 1_555
C3_4 N2_9 1_555 1_555
C4_4 C3_4 1_555 1_555
H6_4 C4_4 1_555 1_555
C5_4 N3_4 1_555 1_555
C2_4 C3_4 1_555 1_555
C4_4 C5_4 1_555 1_555

#END
