
###############################################################################
#
# This file contains modified crystal structure data generated from the
# MOF subset of the Cambridge Structural Database (CSD) v543 
# hosted by the Cambridge Crystallographic Data Centre (CCDC).
#
# This work is licensed under the Creative Commons
# Attribution-NonCommercial-ShareAlike 4.0 International License.
# To view a copy of this license, visit
# http://creativecommons.org/licenses/by-nc-sa/4.0/
# or send a letter to
# Creative Commons, PO Box 1866, Mountain View, CA 94042, USA.
#
# CIF created using the CSD Python API on 29 September 2022
# The structure has been converted into the P1 space group
# The structure has a 3D framework
# The original CSD entry YOLKOB11 is in the orthorhombic crystal system
# The original CSD entry YOLKOB11 is in a Sohncke space group
# The framework has been calculated to contain at least 10.0% void space
# The void calculation uses a probe of radius 1.32A, grid spacing 0.4
#
###############################################################################

data_YOLKOB11
_chemical_formula_moiety         '(C156 H96 F24 N8 O16 S8 Zn4)n'
_symmetry_cell_setting           triclinic
_symmetry_space_group_name_H-M   'P 1'
_symmetry_Int_Tables_number      1
_space_group_name_Hall           'P 1'
loop_
_symmetry_equiv_pos_site_id
_symmetry_equiv_pos_as_xyz
1 x,y,z
_cell_length_a                   6.513(9)
_cell_length_b                   25.67(3)
_cell_length_c                   27.96(7)
_cell_angle_alpha                90
_cell_angle_beta                 90
_cell_angle_gamma                90
_cell_volume                     4674.6
loop_
_atom_site_label
_atom_site_type_symbol
_atom_site_fract_x
_atom_site_fract_y
_atom_site_fract_z
H17 H 0.0591 0.5450 0.3348
C28 C 0.087(12) 0.621(3) 0.316(5)
H18 H 0.2196 0.6253 0.3272
C33 C 0.315(12) 0.706(2) 0.286(6)
H21 H 0.3807 0.6738 0.2898
C34 C 0.428(11) 0.752(3) 0.286(5)
H22 H 0.5696 0.7505 0.2898
C35 C 0.330(12) 0.799(2) 0.279(4)
C36 C 0.118(12) 0.801(2) 0.273(5)
H23 H 0.0521 0.8326 0.2688
C37 C 0.005(12) 0.755(3) 0.273(6)
C38 C 0.103(12) 0.707(2) 0.279(6)
C39 C 0.451(13) 0.847(3) 0.277(5)
O3 O 0.36(2) 0.898(4) 0.277(6)
O4 O 0.67(2) 0.847(3) 0.286(5)
Zn3 Zn 0.564(6) 0.9431(14) 0.2493(18)
N1 N 0.816(15) 0.965(4) 0.284(4)
C13 C 0.971(16) 0.935(3) 0.304(4)
H6 H 0.9626 0.8989 0.3026
C7 C 0.824(10) 0.845(4) 0.013(2)
H2 H 0.6838 0.8386 0.0156
C8 C 0.947(10) 0.873(4) 0.046(3)
C14 C 0.589(16) 0.885(4) 0.148(3)
H7 H 0.4611 0.8729 0.1570
N2 N 0.714(19) 0.910(4) 0.181(3)
C15 C 0.906(18) 0.929(3) 0.167(3)
H8 H 0.9895 0.9456 0.1894
C16 C 0.973(15) 0.922(3) 0.120(3)
C17 C 0.848(13) 0.897(3) 0.087(3)
C18 C 0.657(12) 0.879(3) 0.101(3)
H10 H 0.5731 0.8617 0.0789
O1 O 0.493(11) 0.994(3) 0.208(3)
O2 O 0.241(14) 0.966(3) 0.176(4)
Zn1 Zn 0.436(6) 0.4431(14) 0.2507(18)
S1 S 0.002(11) 0.4826(19) 0.624(3)
C3 C 0.004(11) 0.3936(19) 0.616(4)
C4 C 0.111(12) 0.440(2) 0.604(3)
C6 C 0.049(10) 0.330(5) 0.526(3)
C7_2 C 0.176(10) 0.345(4) 0.487(2)
H2_2 H 0.3162 0.3386 0.4844
C8_2 C 0.053(10) 0.373(4) 0.454(3)
C14_2 C 0.411(16) 0.385(4) 0.352(3)
H7_2 H 0.5389 0.3729 0.3430
N2_2 N 0.286(19) 0.410(4) 0.319(3)
C15_2 C 0.094(18) 0.429(3) 0.333(3)
H8_2 H 0.0105 0.4456 0.3106
C16_2 C 0.027(15) 0.422(3) 0.380(3)
C17_2 C 0.152(13) 0.397(3) 0.413(3)
C18_2 C 0.343(12) 0.379(3) 0.399(3)
H10_2 H 0.4269 0.3617 0.4211
F1 F 0.091(18) 0.234(4) 0.562(4)
F2 F 0.398(16) 0.254(4) 0.544(3)
C19 C 0.104(11) 0.342(2) 0.619(3)
C20 C 0.213(12) 0.313(3) 0.654(2)
C21 C 0.301(11) 0.269(3) 0.630(2)
C22 C 0.247(11) 0.272(3) 0.581(2)
C23 C 0.125(11) 0.317(3) 0.574(2)
F3 F 0.554(14) 0.271(4) 0.636(4)
C24 C 0.30(2) 0.443(3) 0.575(6)
H11 H 0.2901 0.4740 0.5550
H12 H 0.3052 0.4131 0.5545
H13 H 0.4150 0.4450 0.5949
F4 F 0.220(19) 0.214(3) 0.654(4)
O1_2 O 0.507(11) 0.494(3) 0.292(3)
C26 C 0.697(12) 0.514(3) 0.306(2)
C27 C 0.990(12) 0.573(3) 0.320(4)
C29 C 0.984(12) 0.662(3) 0.294(5)
C30 C 0.785(12) 0.655(3) 0.277(5)
H19 H 0.7164 0.6829 0.2631
C31 C 0.689(11) 0.607(3) 0.282(4)
H20 H 0.5559 0.6026 0.2706
C32 C 0.792(12) 0.566(3) 0.303(4)
H24 H 0.8632 0.7560 0.2689
O2_2 O 0.759(14) 0.466(3) 0.324(4)
F5 F 0.270(18) 0.292(6) 0.718(3)
N3 N 0.184(15) 0.465(4) 0.216(4)
O5 O 0.64(2) 0.398(4) 0.223(6)
C9 C 0.171(13) 0.519(4) 0.214(4)
H3 H 0.2746 0.5398 0.2270
C10 C 0.005(11) 0.543(3) 0.191(4)
C13_2 C 0.029(16) 0.435(3) 0.196(4)
H6_2 H 0.0374 0.3989 0.1974
H17_2 H 0.9409 0.0450 0.1652
C28_2 C 0.913(12) 0.121(3) 0.184(5)
H18_2 H 0.7804 0.1253 0.1728
C33_2 C 0.685(12) 0.206(2) 0.214(6)
H21_2 H 0.6193 0.1738 0.2102
C34_2 C 0.572(11) 0.252(3) 0.214(5)
H22_2 H 0.4304 0.2505 0.2102
C35_2 C 0.670(12) 0.299(2) 0.221(4)
C36_2 C 0.882(12) 0.301(2) 0.227(5)
H23_2 H 0.9479 0.3326 0.2312
C37_2 C 0.995(12) 0.255(3) 0.227(6)
C38_2 C 0.897(12) 0.207(2) 0.221(6)
C39_2 C 0.549(13) 0.347(3) 0.223(5)
O4_2 O 0.33(2) 0.347(3) 0.214(5)
C1 C 0.829(12) 0.462(2) 0.649(4)
C2 C 0.830(10) 0.407(2) 0.644(4)
H1 H 0.7336 0.3845 0.6564
S2 S 0.849(9) 0.3741(19) 0.472(2)
C5 C 0.846(9) 0.348(5) 0.516(3)
N1_2 N 0.316(15) 0.535(4) 0.716(4)
C9_2 C 0.329(13) 0.481(4) 0.714(4)
H3_2 H 0.2254 0.4602 0.7270
C10_2 C 0.495(11) 0.457(3) 0.691(4)
H4 H 0.5033 0.4208 0.6898
C11 C 0.649(11) 0.487(3) 0.671(3)
C12 C 0.637(15) 0.541(3) 0.674(3)
H5 H 0.7404 0.5617 0.6601
C13_3 C 0.471(16) 0.565(3) 0.696(4)
H6_3 H 0.4626 0.6011 0.6974
H9 H 0.8985 0.4345 0.3887
C25 C 0.70(2) 0.358(5) 0.554(3)
H14 H 0.5612 0.3481 0.5425
H15 H 0.6958 0.3944 0.5612
H16 H 0.7291 0.3382 0.5817
F6 F 0.943(12) 0.285(4) 0.662(4)
Zn2 Zn 0.064(6) 0.5569(14) 0.7507(18)
S2_2 S 0.651(9) 0.6259(19) 0.972(2)
C7_3 C 0.324(10) 0.655(4) 0.987(2)
H2_3 H 0.1838 0.6614 0.9844
C8_3 C 0.447(10) 0.627(4) 0.954(3)
C14_3 C 0.089(16) 0.615(4) 0.852(3)
N2_3 N 0.214(19) 0.590(4) 0.819(3)
C15_3 C 0.406(18) 0.571(3) 0.833(3)
H8_3 H 0.4895 0.5544 0.8106
C16_3 C 0.473(15) 0.578(3) 0.880(3)
H9_2 H 0.6015 0.5655 0.8887
C17_3 C 0.348(13) 0.603(3) 0.913(3)
C18_3 C 0.157(12) 0.621(3) 0.899(3)
H10_3 H 0.0731 0.6383 0.9211
H22_3 H 0.0696 0.7495 0.7102
O4_3 O 0.17(2) 0.653(3) 0.714(5)
S1_2 S 0.498(11) 0.5174(19) 0.124(3)
C1_2 C 0.671(12) 0.538(2) 0.149(4)
C2_2 C 0.670(10) 0.593(2) 0.144(4)
H1_2 H 0.7664 0.6155 0.1564
C3_2 C 0.496(11) 0.6064(19) 0.116(4)
C4_2 C 0.389(12) 0.560(2) 0.104(3)
C5_2 C 0.654(9) 0.652(5) 0.016(3)
C6_2 C 0.451(10) 0.670(5) 0.026(3)
H4_2 H 0.9967 0.5792 0.1898
C11_2 C 0.851(11) 0.513(3) 0.171(3)
C12_2 C 0.863(15) 0.459(3) 0.174(3)
H5_2 H 0.7596 0.4383 0.1601
F1_2 F 0.409(18) 0.766(4) 0.062(4)
F2_2 F 0.102(16) 0.746(4) 0.044(3)
C19_2 C 0.396(11) 0.658(2) 0.119(3)
C20_2 C 0.287(12) 0.687(3) 0.154(2)
C21_2 C 0.199(11) 0.731(3) 0.130(2)
C22_2 C 0.253(11) 0.728(3) 0.081(2)
C23_2 C 0.375(11) 0.683(3) 0.074(2)
C24_2 C 0.20(2) 0.557(3) 0.075(6)
H11_2 H 0.2099 0.5260 0.0550
H12_2 H 0.1948 0.5869 0.0545
H13_2 H 0.0850 0.5550 0.0949
C25_2 C 0.80(2) 0.642(5) 0.054(3)
H14_2 H 0.9388 0.6519 0.0425
H15_2 H 0.8042 0.6056 0.0612
H16_2 H 0.7709 0.6618 0.0817
F4_2 F 0.280(19) 0.786(3) 0.154(4)
F5_2 F 0.230(18) 0.708(6) 0.218(3)
F6_2 F 0.557(12) 0.715(4) 0.162(4)
F3_2 F 0.946(14) 0.729(4) 0.136(4)
H7_3 H 0.9611 0.6271 0.8430
O1_3 O 0.993(11) 0.506(3) 0.792(3)
C26_2 C 0.803(12) 0.486(3) 0.806(2)
C27_2 C 0.510(12) 0.427(3) 0.820(4)
H17_3 H 0.4409 0.4550 0.8348
C28_3 C 0.413(12) 0.379(3) 0.816(5)
H18_3 H 0.2804 0.3747 0.8272
C29_2 C 0.516(12) 0.338(3) 0.794(5)
C30_2 C 0.715(12) 0.345(3) 0.777(5)
H19_2 H 0.7836 0.3171 0.7631
C31_2 C 0.811(11) 0.393(3) 0.782(4)
H20_2 H 0.9441 0.3974 0.7706
C32_2 C 0.708(12) 0.434(3) 0.803(4)
C33_3 C 0.185(12) 0.294(2) 0.786(6)
H21_3 H 0.1193 0.3262 0.7898
C34_3 C 0.072(11) 0.248(3) 0.786(5)
C35_3 C 0.170(12) 0.201(2) 0.779(4)
C36_3 C 0.382(12) 0.199(2) 0.773(5)
H23_3 H 0.4479 0.1674 0.7688
C37_3 C 0.495(12) 0.245(3) 0.773(6)
H24_2 H 0.6368 0.2440 0.7689
C38_3 C 0.397(12) 0.293(2) 0.779(6)
O2_3 O 0.741(14) 0.534(3) 0.824(4)
C39_3 C 0.049(13) 0.153(3) 0.777(5)
O3_2 O 0.14(2) 0.102(4) 0.777(6)
O5_2 O 0.86(2) 0.602(4) 0.723(6)
H7_4 H 0.0389 0.1271 0.6570
F3_3 F 0.054(14) 0.229(4) 0.364(4)
O1_4 O 0.007(11) 0.006(3) 0.708(3)
O2_4 O 0.259(14) 0.034(3) 0.676(4)
C26_3 C 0.197(12) 0.986(3) 0.694(2)
C27_3 C 0.490(12) 0.927(3) 0.680(4)
H17_4 H 0.5591 0.9550 0.6652
C28_4 C 0.587(12) 0.879(3) 0.684(5)
H18_4 H 0.7196 0.8747 0.6728
C29_3 C 0.484(12) 0.838(3) 0.706(5)
C30_3 C 0.285(12) 0.845(3) 0.723(5)
H19_3 H 0.2164 0.8171 0.7369
C31_3 C 0.189(11) 0.893(3) 0.718(4)
H20_3 H 0.0559 0.8974 0.7294
C32_3 C 0.292(12) 0.934(3) 0.697(4)
C33_4 C 0.815(12) 0.794(2) 0.714(6)
H21_4 H 0.8807 0.8262 0.7102
C34_4 C 0.928(11) 0.748(3) 0.714(5)
C35_4 C 0.830(12) 0.701(2) 0.721(4)
C36_4 C 0.618(12) 0.699(2) 0.727(5)
H23_4 H 0.5521 0.6674 0.7312
C37_4 C 0.505(12) 0.745(3) 0.727(6)
H24_3 H 0.3632 0.7440 0.7311
C38_4 C 0.603(12) 0.793(2) 0.721(6)
C39_4 C 0.951(13) 0.653(3) 0.723(5)
H22_4 H 0.9304 0.2495 0.7898
O4_4 O 0.83(2) 0.153(3) 0.786(5)
Zn3_2 Zn 0.936(6) 0.0569(14) 0.7493(18)
S1_3 S 0.502(11) 0.0174(19) 0.376(3)
C1_3 C 0.329(12) 0.038(2) 0.351(4)
C2_3 C 0.330(10) 0.093(2) 0.356(4)
H1_3 H 0.2336 0.1155 0.3436
C3_3 C 0.504(11) 0.1064(19) 0.384(4)
C4_3 C 0.611(12) 0.060(2) 0.396(3)
S2_3 S 0.349(9) 0.1259(19) 0.528(2)
C5_3 C 0.346(9) 0.152(5) 0.484(3)
C6_3 C 0.549(10) 0.170(5) 0.474(3)
C7_4 C 0.676(10) 0.155(4) 0.513(2)
H2_4 H 0.8162 0.1614 0.5156
C8_4 C 0.553(10) 0.127(4) 0.546(3)
H4_3 H 0.0033 0.0792 0.3102
C11_3 C 0.149(11) 0.013(3) 0.329(3)
C14_4 C 0.911(16) 0.115(4) 0.648(3)
N2_4 N 0.786(19) 0.090(4) 0.681(3)
C15_4 C 0.594(18) 0.071(3) 0.667(3)
H8_4 H 0.5105 0.0544 0.6894
C16_4 C 0.527(15) 0.078(3) 0.620(3)
H9_3 H 0.3985 0.0655 0.6113
C17_4 C 0.652(13) 0.103(3) 0.587(3)
C18_4 C 0.843(12) 0.121(3) 0.601(3)
H10_4 H 0.9269 0.1383 0.5789
F1_3 F 0.591(18) 0.266(4) 0.438(4)
F2_3 F 0.898(16) 0.246(4) 0.456(3)
C19_3 C 0.604(11) 0.158(2) 0.381(3)
C20_3 C 0.713(12) 0.187(3) 0.346(2)
C21_3 C 0.801(11) 0.231(3) 0.370(2)
C22_3 C 0.747(11) 0.228(3) 0.419(2)
C23_3 C 0.625(11) 0.183(3) 0.426(2)
C24_3 C 0.80(2) 0.057(3) 0.425(6)
H11_3 H 0.7901 0.0260 0.4450
H12_3 H 0.8052 0.0869 0.4455
H13_3 H 0.9150 0.0550 0.4051
C25_3 C 0.20(2) 0.142(5) 0.446(3)
H14_3 H 0.0612 0.1519 0.4575
H15_3 H 0.1958 0.1056 0.4388
H16_3 H 0.2291 0.1618 0.4183
F4_3 F 0.720(19) 0.286(3) 0.346(4)
F5_3 F 0.770(18) 0.208(6) 0.282(3)
F6_3 F 0.443(12) 0.215(4) 0.338(4)
N3_2 N 0.684(15) 0.035(4) 0.784(4)
C12_3 C 0.363(15) 0.041(3) 0.826(3)
H5_3 H 0.2596 0.0617 0.8399
C13_4 C 0.529(16) 0.065(3) 0.804(4)
H6_4 H 0.5374 0.1011 0.8026
C12_4 C 0.137(15) 0.959(3) 0.326(3)
H5_4 H 0.2404 0.9383 0.3399
C9_3 C 0.829(13) 0.019(4) 0.286(4)
H3_3 H 0.7254 0.0398 0.2730
C10_3 C 0.995(11) 0.043(3) 0.309(4)
S2_4 S 0.151(9) 0.8741(19) 0.028(2)
H9_4 H 0.1015 0.9345 0.1113
C1_4 C 0.171(12) 0.962(2) 0.851(4)
C2_4 C 0.170(10) 0.907(2) 0.856(4)
H1_4 H 0.2664 0.8845 0.8436
C5_4 C 0.154(9) 0.848(5) 0.984(3)
C9_4 C 0.671(13) 0.981(4) 0.786(4)
H3_4 H 0.7746 0.9602 0.7730
C10_4 C 0.505(11) 0.957(3) 0.809(4)
H4_4 H 0.4967 0.9208 0.8102
C11_4 C 0.351(11) 0.987(3) 0.829(3)
C25_4 C 0.30(2) 0.858(5) 0.946(3)
H14_4 H 0.4388 0.8481 0.9575
H15_4 H 0.3042 0.8944 0.9388
H16_4 H 0.2709 0.8382 0.9183
F6_4 F 0.057(12) 0.785(4) 0.838(4)
C26_4 C 0.303(12) 0.014(3) 0.194(2)
C27_4 C 0.010(12) 0.073(3) 0.180(4)
C29_4 C 0.016(12) 0.162(3) 0.206(5)
C30_4 C 0.215(12) 0.155(3) 0.223(5)
H19_4 H 0.2836 0.1829 0.2369
C31_4 C 0.311(11) 0.107(3) 0.218(4)
H20_4 H 0.4441 0.1026 0.2294
C32_4 C 0.208(12) 0.066(3) 0.197(4)
H24_4 H 0.1368 0.2560 0.2311
S1_4 S 0.998(11) 0.9826(19) 0.876(3)
C3_4 C 0.996(11) 0.8936(19) 0.884(4)
C4_4 C 0.889(12) 0.940(2) 0.896(3)
C6_4 C 0.951(10) 0.830(5) 0.974(3)
F1_4 F 0.909(18) 0.734(4) 0.938(4)
F2_4 F 0.602(16) 0.754(4) 0.956(3)
C19_4 C 0.896(11) 0.842(2) 0.881(3)
C20_4 C 0.787(12) 0.813(3) 0.846(2)
C21_4 C 0.699(11) 0.769(3) 0.870(2)
C22_4 C 0.753(11) 0.772(3) 0.919(2)
C23_4 C 0.875(11) 0.817(3) 0.926(2)
F3_4 F 0.446(14) 0.771(4) 0.864(4)
C24_4 C 0.70(2) 0.943(3) 0.925(6)
H11_4 H 0.7099 0.9740 0.9450
H12_4 H 0.6948 0.9131 0.9455
H13_4 H 0.5850 0.9450 0.9051
F4_4 F 0.780(19) 0.714(3) 0.846(4)
F5_4 F 0.730(18) 0.792(6) 0.782(3)
loop_
_geom_bond_atom_site_label_1
_geom_bond_atom_site_label_2
_geom_bond_site_symmetry_1
_geom_bond_site_symmetry_2
H18 C28 1_555 1_555
C33 H21 1_555 1_555
C34 C33 1_555 1_555
H22 C34 1_555 1_555
C35 C34 1_555 1_555
C36 C35 1_555 1_555
H23 C36 1_555 1_555
C37 C36 1_555 1_555
C39 C35 1_555 1_555
O3 C39 1_555 1_555
O4 C39 1_555 1_555
Zn3 O3 1_555 1_555
C33 C38 1_555 1_555
C37 C38 1_555 1_555
C13 N1 1_555 1_555
H6 C13 1_555 1_555
Zn3 N1 1_555 1_555
Zn3 N2 1_555 1_555
C7 H2 1_555 1_555
C14 H7 1_555 1_555
N2 C14 1_555 1_555
C15 N2 1_555 1_555
H8 C15 1_555 1_555
C16 C15 1_555 1_555
C17 C8 1_555 1_555
C18 C14 1_555 1_555
H10 C18 1_555 1_555
O1 Zn3 1_555 1_555
C7 C8 1_555 1_555
C16 C17 1_555 1_555
C17 C18 1_555 1_555
Zn1 N2_2 1_555 1_555
C4 S1 1_555 1_555
C6 C7_2 1_555 1_555
C7_2 H2_2 1_555 1_555
C14_2 H7_2 1_555 1_555
N2_2 C14_2 1_555 1_555
C15_2 N2_2 1_555 1_555
H8_2 C15_2 1_555 1_555
C16_2 C15_2 1_555 1_555
C17_2 C8_2 1_555 1_555
C18_2 C14_2 1_555 1_555
H10_2 C18_2 1_555 1_555
F1 C22 1_555 1_555
F2 C22 1_555 1_555
C19 C3 1_555 1_555
C20 C19 1_555 1_555
C21 C20 1_555 1_555
C22 C21 1_555 1_555
C23 C6 1_555 1_555
F3 C21 1_555 1_555
C24 C4 1_555 1_555
H11 C24 1_555 1_555
H12 C24 1_555 1_555
H13 C24 1_555 1_555
F4 C21 1_555 1_555
O1_2 Zn1 1_555 1_555
C26 O1_2 1_555 1_555
C30 C29 1_555 1_555
H19 C30 1_555 1_555
C31 C30 1_555 1_555
H20 C31 1_555 1_555
C32 C26 1_555 1_555
O2_2 C26 1_555 1_555
F5 C20 1_555 1_555
N3 Zn1 1_555 1_555
O5 Zn1 1_555 1_555
C3 C4 1_555 1_555
C7_2 C8_2 1_555 1_555
C16_2 C17_2 1_555 1_555
C17_2 C18_2 1_555 1_555
C19 C23 1_555 1_555
C22 C23 1_555 1_555
C27 C32 1_555 1_555
C31 C32 1_555 1_555
N3 C9 1_555 1_555
C9 H3 1_555 1_555
C10 C9 1_555 1_555
C13_2 N3 1_555 1_555
H6_2 C13_2 1_555 1_555
H18_2 C28_2 1_555 1_555
C33_2 H21_2 1_555 1_555
C34_2 C33_2 1_555 1_555
H22_2 C34_2 1_555 1_555
C35_2 C34_2 1_555 1_555
C36_2 C35_2 1_555 1_555
H23_2 C36_2 1_555 1_555
C37_2 C36_2 1_555 1_555
C39_2 C35_2 1_555 1_555
O5 C39_2 1_555 1_555
O4_2 C39_2 1_555 1_555
C33_2 C38_2 1_555 1_555
C37_2 C38_2 1_555 1_555
C1 C2 1_555 1_555
C2 H1 1_555 1_555
S2 C5 1_555 1_555
N1_2 C9_2 1_555 1_555
C9_2 H3_2 1_555 1_555
C10_2 C9_2 1_555 1_555
H4 C10_2 1_555 1_555
C11 C1 1_555 1_555
C12 C11 1_555 1_555
H5 C12 1_555 1_555
C13_3 N1_2 1_555 1_555
H6_3 C13_3 1_555 1_555
C25 C5 1_555 1_555
H14 C25 1_555 1_555
H15 C25 1_555 1_555
H16 C25 1_555 1_555
Zn2 N1_2 1_555 1_555
C10_2 C11 1_555 1_555
C12 C13_3 1_555 1_555
Zn2 N2_3 1_555 1_555
C7_3 H2_3 1_555 1_555
C8_3 S2_2 1_555 1_555
N2_3 C14_3 1_555 1_555
C15_3 N2_3 1_555 1_555
H8_3 C15_3 1_555 1_555
C16_3 C15_3 1_555 1_555
H9_2 C16_3 1_555 1_555
C17_3 C8_3 1_555 1_555
C18_3 C14_3 1_555 1_555
H10_3 C18_3 1_555 1_555
C7_3 C8_3 1_555 1_555
C16_3 C17_3 1_555 1_555
C17_3 C18_3 1_555 1_555
S1_2 C1_2 1_555 1_555
C1_2 C2_2 1_555 1_555
C2_2 H1_2 1_555 1_555
C3_2 C2_2 1_555 1_555
C4_2 S1_2 1_555 1_555
C5_2 C6_2 1_555 1_555
C11_2 C1_2 1_555 1_555
C12_2 C11_2 1_555 1_555
H5_2 C12_2 1_555 1_555
F1_2 C22_2 1_555 1_555
F2_2 C22_2 1_555 1_555
C19_2 C3_2 1_555 1_555
C20_2 C19_2 1_555 1_555
C21_2 C20_2 1_555 1_555
C22_2 C21_2 1_555 1_555
C23_2 C6_2 1_555 1_555
C24_2 C4_2 1_555 1_555
H11_2 C24_2 1_555 1_555
H12_2 C24_2 1_555 1_555
H13_2 C24_2 1_555 1_555
C25_2 C5_2 1_555 1_555
H14_2 C25_2 1_555 1_555
H15_2 C25_2 1_555 1_555
H16_2 C25_2 1_555 1_555
F4_2 C21_2 1_555 1_555
F5_2 C20_2 1_555 1_555
F6_2 C20_2 1_555 1_555
C3_2 C4_2 1_555 1_555
C19_2 C23_2 1_555 1_555
C22_2 C23_2 1_555 1_555
C26_2 O1_3 1_555 1_555
C27_2 H17_3 1_555 1_555
C28_3 C27_2 1_555 1_555
H18_3 C28_3 1_555 1_555
C29_2 C28_3 1_555 1_555
C30_2 C29_2 1_555 1_555
H19_2 C30_2 1_555 1_555
C31_2 C30_2 1_555 1_555
H20_2 C31_2 1_555 1_555
C32_2 C26_2 1_555 1_555
C33_3 H21_3 1_555 1_555
C34_3 C33_3 1_555 1_555
C35_3 C34_3 1_555 1_555
C36_3 C35_3 1_555 1_555
H23_3 C36_3 1_555 1_555
C37_3 C36_3 1_555 1_555
H24_2 C37_3 1_555 1_555
C38_3 C29_2 1_555 1_555
O2_3 C26_2 1_555 1_555
C39_3 C35_3 1_555 1_555
O3_2 C39_3 1_555 1_555
C27_2 C32_2 1_555 1_555
C31_2 C32_2 1_555 1_555
C33_3 C38_3 1_555 1_555
C37_3 C38_3 1_555 1_555
C27_3 H17_4 1_555 1_555
C28_4 C27_3 1_555 1_555
H18_4 C28_4 1_555 1_555
C29_3 C28_4 1_555 1_555
C30_3 C29_3 1_555 1_555
H19_3 C30_3 1_555 1_555
C31_3 C30_3 1_555 1_555
H20_3 C31_3 1_555 1_555
C32_3 C26_3 1_555 1_555
C33_4 H21_4 1_555 1_555
C34_4 C33_4 1_555 1_555
C35_4 C34_4 1_555 1_555
C36_4 C35_4 1_555 1_555
H23_4 C36_4 1_555 1_555
C37_4 C36_4 1_555 1_555
H24_3 C37_4 1_555 1_555
C38_4 C29_3 1_555 1_555
C39_4 C35_4 1_555 1_555
O5_2 C39_4 1_555 1_555
C27_3 C32_3 1_555 1_555
C31_3 C32_3 1_555 1_555
C33_4 C38_4 1_555 1_555
C37_4 C38_4 1_555 1_555
Zn3_2 N2_4 1_555 1_555
S1_3 C1_3 1_555 1_555
C1_3 C2_3 1_555 1_555
C2_3 H1_3 1_555 1_555
C3_3 C2_3 1_555 1_555
C4_3 S1_3 1_555 1_555
S2_3 C5_3 1_555 1_555
C5_3 C6_3 1_555 1_555
C6_3 C7_4 1_555 1_555
C7_4 H2_4 1_555 1_555
C8_4 S2_3 1_555 1_555
C11_3 C1_3 1_555 1_555
N2_4 C14_4 1_555 1_555
C15_4 N2_4 1_555 1_555
H8_4 C15_4 1_555 1_555
C16_4 C15_4 1_555 1_555
H9_3 C16_4 1_555 1_555
C17_4 C8_4 1_555 1_555
C18_4 C14_4 1_555 1_555
H10_4 C18_4 1_555 1_555
F1_3 C22_3 1_555 1_555
F2_3 C22_3 1_555 1_555
C19_3 C3_3 1_555 1_555
C20_3 C19_3 1_555 1_555
C21_3 C20_3 1_555 1_555
C22_3 C21_3 1_555 1_555
C23_3 C6_3 1_555 1_555
C24_3 C4_3 1_555 1_555
H11_3 C24_3 1_555 1_555
H12_3 C24_3 1_555 1_555
H13_3 C24_3 1_555 1_555
C25_3 C5_3 1_555 1_555
H14_3 C25_3 1_555 1_555
H15_3 C25_3 1_555 1_555
H16_3 C25_3 1_555 1_555
F4_3 C21_3 1_555 1_555
F5_3 C20_3 1_555 1_555
F6_3 C20_3 1_555 1_555
N3_2 Zn3_2 1_555 1_555
C3_3 C4_3 1_555 1_555
C7_4 C8_4 1_555 1_555
C16_4 C17_4 1_555 1_555
C17_4 C18_4 1_555 1_555
C19_3 C23_3 1_555 1_555
C22_3 C23_3 1_555 1_555
H5_3 C12_3 1_555 1_555
C13_4 N3_2 1_555 1_555
H6_4 C13_4 1_555 1_555
C12_3 C13_4 1_555 1_555
H5_4 C12_4 1_555 1_555
C9_3 H3_3 1_555 1_555
C10_3 C9_3 1_555 1_555
C1_4 C2_4 1_555 1_555
C2_4 H1_4 1_555 1_555
C9_4 H3_4 1_555 1_555
C10_4 C9_4 1_555 1_555
H4_4 C10_4 1_555 1_555
C11_4 C1_4 1_555 1_555
C25_4 C5_4 1_555 1_555
H14_4 C25_4 1_555 1_555
H15_4 C25_4 1_555 1_555
H16_4 C25_4 1_555 1_555
C10_4 C11_4 1_555 1_555
C30_4 C29_4 1_555 1_555
H19_4 C30_4 1_555 1_555
C31_4 C30_4 1_555 1_555
H20_4 C31_4 1_555 1_555
C32_4 C26_4 1_555 1_555
C27_4 C32_4 1_555 1_555
C31_4 C32_4 1_555 1_555
C4_4 S1_4 1_555 1_555
F1_4 C22_4 1_555 1_555
F2_4 C22_4 1_555 1_555
C19_4 C3_4 1_555 1_555
C20_4 C19_4 1_555 1_555
C21_4 C20_4 1_555 1_555
C22_4 C21_4 1_555 1_555
C23_4 C6_4 1_555 1_555
F3_4 C21_4 1_555 1_555
C24_4 C4_4 1_555 1_555
H11_4 C24_4 1_555 1_555
H12_4 C24_4 1_555 1_555
H13_4 C24_4 1_555 1_555
F4_4 C21_4 1_555 1_555
F5_4 C20_4 1_555 1_555
C3_4 C4_4 1_555 1_555
C19_4 C23_4 1_555 1_555
C22_4 C23_4 1_555 1_555

#END
