
###############################################################################
#
# This file contains modified crystal structure data generated from the
# MOF subset of the Cambridge Structural Database (CSD) v543 
# hosted by the Cambridge Crystallographic Data Centre (CCDC).
#
# This work is licensed under the Creative Commons
# Attribution-NonCommercial-ShareAlike 4.0 International License.
# To view a copy of this license, visit
# http://creativecommons.org/licenses/by-nc-sa/4.0/
# or send a letter to
# Creative Commons, PO Box 1866, Mountain View, CA 94042, USA.
#
# CIF created using the CSD Python API on 29 September 2022
# The structure has been converted into the P1 space group
# The structure has a 3D framework
# The original CSD entry YOLKOB16 is in the orthorhombic crystal system
# The original CSD entry YOLKOB16 is in a Sohncke space group
# The framework has been calculated to contain at least 10.0% void space
# The void calculation uses a probe of radius 1.32A, grid spacing 0.4
#
###############################################################################

data_YOLKOB16
_chemical_formula_moiety         '(C156 H96 F24 N8 O16 S8 Zn4)n'
_symmetry_cell_setting           triclinic
_symmetry_space_group_name_H-M   'P 1'
_symmetry_Int_Tables_number      1
_space_group_name_Hall           'P 1'
loop_
_symmetry_equiv_pos_site_id
_symmetry_equiv_pos_as_xyz
1 x,y,z
_cell_length_a                   7.1015(18)
_cell_length_b                   24.22(3)
_cell_length_c                   30.248(17)
_cell_angle_alpha                90
_cell_angle_beta                 90
_cell_angle_gamma                90
_cell_volume                     5202.61
loop_
_atom_site_label
_atom_site_type_symbol
_atom_site_fract_x
_atom_site_fract_y
_atom_site_fract_z
C12 C 0.078(3) 0.6425(13) 0.3123(8)
H7 H 0.1933 0.6453 0.3265
C13 C 0.027(3) 0.6812(11) 0.2805(8)
C22 C 0.336(3) 0.7289(11) 0.2836(8)
H14 H 0.3855 0.6993 0.2993
C23 C 0.450(3) 0.7734(12) 0.2726(8)
H15 H 0.5762 0.7736 0.2808
C24 C 0.376(4) 0.8178(12) 0.2491(10)
C25 C 0.187(4) 0.8176(12) 0.2368(10)
H16 H 0.1376 0.8473 0.2211
C26 C 0.073(3) 0.7731(12) 0.2479(9)
C27 C 0.147(3) 0.7288(11) 0.2713(9)
C39 C 0.484(5) 0.8696(17) 0.2470(18)
O3 O 0.417(6) 0.915(2) 0.2332(13)
O4 O 0.662(5) 0.8761(10) 0.2544(8)
Zn3 Zn 0.6162(8) 0.9716(5) 0.2168(2)
C9 C 0.963(4) 0.9763(13) 0.2642(8)
H5 H 0.9534 0.9422 0.2503
C17 C 0.632(3) 0.9381(17) 0.1190(10)
H10 H 0.5032 0.9456 0.1184
N2 N 0.739(4) 0.9539(16) 0.1552(9)
C18 C 0.931(4) 0.9427(16) 0.1561(8)
C20 C 0.908(3) 0.8998(17) 0.0845(8)
C21 C 0.716(3) 0.9111(17) 0.0836(8)
H13 H 0.6440 0.9005 0.0594
C30 C 0.884(3) 0.856(2) 0.0113(12)
H18 H 0.7575 0.8477 0.0147
Zn1 Zn 0.3838(8) 0.4716(5) 0.2832(2)
C4 C 0.063(3) 0.4442(11) 0.6194(9)
O1 O 0.520(5) 0.541(3) 0.2883(13)
C10 C 0.664(6) 0.547(2) 0.310(2)
C11 C 0.955(4) 0.5997(12) 0.3228(9)
H6 H 0.9892 0.5738 0.3441
C14 C 0.854(3) 0.6770(12) 0.2592(8)
H8 H 0.8201 0.7029 0.2380
C15 C 0.732(3) 0.6342(12) 0.2698(8)
H9 H 0.6159 0.6314 0.2556
C16 C 0.782(3) 0.5955(12) 0.3016(8)
C17_2 C 0.368(3) 0.4381(17) 0.3810(10)
H10_2 H 0.4968 0.4456 0.3816
N2_2 N 0.261(4) 0.4539(16) 0.3448(9)
C18_2 C 0.069(4) 0.4427(16) 0.3439(8)
C20_2 C 0.092(3) 0.3998(17) 0.4155(8)
C21_2 C 0.284(3) 0.4111(17) 0.4164(8)
H13_2 H 0.3560 0.4005 0.4406
H17 H 0.9468 0.7730 0.2396
O2 O 0.689(4) 0.504(2) 0.3293(13)
C29 C 0.006(4) 0.348(2) 0.5274(9)
C30_2 C 0.116(3) 0.356(2) 0.4887(12)
H18_2 H 0.2425 0.3477 0.4853
C32 C 0.052(6) 0.312(2) 0.5674(15)
C33 C 0.045(6) 0.3315(12) 0.612(2)
C34 C 0.128(7) 0.291(2) 0.6391(9)
C35 C 0.186(5) 0.2462(14) 0.612(2)
C36 C 0.139(7) 0.260(2) 0.5674(15)
F2 F 0.298(5) 0.253(2) 0.5401(9)
F3 F 0.007(5) 0.2682(19) 0.6699(10)
C37 C 0.253(4) 0.442(3) 0.5996(10)
H19 H 0.3131 0.4769 0.6021
H20 H 0.2428 0.4317 0.5689
H21 H 0.3268 0.4143 0.6148
F4 F 0.248(6) 0.3263(19) 0.6620(14)
F5 F 0.435(4) 0.2275(17) 0.6236(10)
F6 F 0.096(6) 0.1744(19) 0.6150(14)
N3 N 0.183(3) 0.5142(15) 0.2387(7)
O5 O 0.583(6) 0.415(2) 0.2668(13)
C5 C 0.169(3) 0.5651(14) 0.2178(9)
H2 H 0.2667 0.5904 0.2197
C6 C 0.007(3) 0.5783(11) 0.1941(10)
C9_2 C 0.037(4) 0.4763(13) 0.2358(8)
H5_2 H 0.0466 0.4422 0.2497
C12_2 C 0.922(3) 0.1425(13) 0.1877(8)
H7_2 H 0.8067 0.1453 0.1735
C13_2 C 0.973(3) 0.1812(11) 0.2195(8)
C22_2 C 0.664(3) 0.2289(11) 0.2164(8)
H14_2 H 0.6145 0.1993 0.2007
C23_2 C 0.550(3) 0.2734(12) 0.2274(8)
H15_2 H 0.4238 0.2736 0.2192
C24_2 C 0.624(4) 0.3178(12) 0.2509(10)
C25_2 C 0.813(4) 0.3176(12) 0.2632(10)
H16_2 H 0.8624 0.3473 0.2789
C26_2 C 0.927(3) 0.2731(12) 0.2521(9)
C27_2 C 0.853(3) 0.2288(11) 0.2287(9)
C39_2 C 0.516(5) 0.3696(17) 0.2530(18)
O4_2 O 0.338(5) 0.3761(10) 0.2456(8)
S1 S 0.952(2) 0.4792(9) 0.6468(5)
C1 C 0.808(3) 0.4466(10) 0.6662(9)
C2 C 0.829(3) 0.3916(8) 0.6509(11)
H1 H 0.7534 0.3617 0.6585
C3 C 0.987(4) 0.3901(10) 0.6220(12)
N1 N 0.317(3) 0.4858(15) 0.7387(7)
C5_2 C 0.331(3) 0.4349(14) 0.7178(9)
H2_2 H 0.2333 0.4096 0.7197
C6_2 C 0.493(3) 0.4217(11) 0.6941(10)
H3 H 0.5031 0.3876 0.6802
C7 C 0.640(3) 0.4595(11) 0.6913(8)
C8 C 0.625(3) 0.5105(11) 0.7121(7)
H4 H 0.7231 0.5358 0.7102
C9_3 C 0.463(4) 0.5237(13) 0.7358(8)
H5_3 H 0.4534 0.5578 0.7497
H11 H 0.9969 0.4533 0.3197
C19 C 0.985(3) 0.4156(17) 0.3793(8)
H12 H 0.8561 0.4081 0.3787
C28 C 0.821(4) 0.3669(18) 0.5187(7)
C31 C 0.998(3) 0.3808(17) 0.4561(7)
S2 S 0.8157(18) 0.3873(10) 0.4747(5)
F1 F 0.994(5) 0.222(2) 0.5439(12)
C38 C 0.643(5) 0.376(2) 0.5431(12)
H22 H 0.5920 0.3407 0.5518
H23 H 0.5550 0.3947 0.5245
H24 H 0.6679 0.3976 0.5690
Zn2 Zn 0.1162(8) 0.5284(5) 0.7832(2)
C17_3 C 0.132(3) 0.5619(17) 0.8810(10)
H10_3 H 0.0032 0.5544 0.8816
N2_3 N 0.239(4) 0.5461(16) 0.8448(9)
C18_3 C 0.431(4) 0.5573(16) 0.8439(8)
H11_2 H 0.5031 0.5467 0.8197
C19_2 C 0.515(3) 0.5844(17) 0.8793(8)
H12_2 H 0.6439 0.5919 0.8787
C20_3 C 0.408(3) 0.6002(17) 0.9155(8)
C21_3 C 0.216(3) 0.5889(17) 0.9164(8)
H13_3 H 0.1440 0.5995 0.9406
C30_3 C 0.384(3) 0.644(2) 0.9887(12)
H18_3 H 0.2575 0.6523 0.9853
C31_2 C 0.502(3) 0.6192(17) 0.9561(7)
S2_2 S 0.6843(18) 0.6127(10) 0.9747(5)
H15_3 H 0.0762 0.7264 0.7192
O4_3 O 0.162(5) 0.6239(10) 0.7456(8)
S1_2 S 0.548(2) 0.5208(9) 0.1468(5)
C1_2 C 0.692(3) 0.5534(10) 0.1662(9)
C2_2 C 0.671(3) 0.6084(8) 0.1509(11)
H1_2 H 0.7466 0.6383 0.1585
C3_2 C 0.513(4) 0.6099(10) 0.1220(12)
C4_2 C 0.437(3) 0.5558(11) 0.1194(9)
H3_2 H 0.9969 0.6124 0.1802
C7_2 C 0.860(3) 0.5405(11) 0.1913(8)
C8_2 C 0.875(3) 0.4895(11) 0.2121(7)
H4_2 H 0.7769 0.4642 0.2102
C28_2 C 0.679(4) 0.6331(18) 0.0187(7)
C29_2 C 0.494(4) 0.652(2) 0.0274(9)
C32_2 C 0.448(6) 0.688(2) 0.0674(15)
C33_2 C 0.455(6) 0.6685(12) 0.112(2)
C34_2 C 0.372(7) 0.709(2) 0.1391(9)
C35_2 C 0.314(5) 0.7538(14) 0.112(2)
C36_2 C 0.361(7) 0.740(2) 0.0674(15)
F1_2 F 0.506(5) 0.778(2) 0.0439(12)
F2_2 F 0.202(5) 0.747(2) 0.0401(9)
F3_2 F 0.493(5) 0.7318(19) 0.1699(10)
C37_2 C 0.247(4) 0.558(3) 0.0996(10)
H19_2 H 0.1869 0.5231 0.1021
H20_2 H 0.2572 0.5683 0.0689
H21_2 H 0.1732 0.5857 0.1148
C38_2 C 0.857(5) 0.624(2) 0.0431(12)
H22_2 H 0.9080 0.6593 0.0518
H23_2 H 0.9450 0.6053 0.0245
H24_2 H 0.8321 0.6024 0.0690
F4_2 F 0.252(6) 0.6737(19) 0.1620(14)
F5_2 F 0.065(4) 0.7725(17) 0.1236(10)
F6_2 F 0.404(6) 0.8256(19) 0.1150(14)
O1_2 O 0.980(5) 0.459(3) 0.7883(13)
C10_2 C 0.836(6) 0.453(2) 0.810(2)
C11_2 C 0.545(4) 0.4003(12) 0.8228(9)
H6_2 H 0.5108 0.4262 0.8441
C12_3 C 0.422(3) 0.3575(13) 0.8123(8)
H7_3 H 0.3067 0.3547 0.8265
C13_3 C 0.473(3) 0.3188(11) 0.7805(8)
C14_2 C 0.646(3) 0.3230(12) 0.7592(8)
H8_2 H 0.6799 0.2971 0.7380
C15_2 C 0.768(3) 0.3658(12) 0.7698(8)
H9_2 H 0.8841 0.3686 0.7556
C16_2 C 0.718(3) 0.4045(12) 0.8016(8)
C22_3 C 0.164(3) 0.2711(11) 0.7836(8)
H14_3 H 0.1145 0.3007 0.7993
C23_3 C 0.050(3) 0.2266(12) 0.7726(8)
C24_3 C 0.124(4) 0.1822(12) 0.7491(10)
C25_3 C 0.313(4) 0.1824(12) 0.7368(10)
H16_3 H 0.3624 0.1527 0.7211
C26_3 C 0.427(3) 0.2269(12) 0.7479(9)
H17_2 H 0.5532 0.2270 0.7396
C27_3 C 0.353(3) 0.2712(11) 0.7713(9)
O2_2 O 0.811(4) 0.496(2) 0.8293(13)
C39_3 C 0.016(5) 0.1304(17) 0.7470(18)
O3_2 O 0.083(6) 0.085(2) 0.7332(13)
O5_2 O 0.917(6) 0.585(2) 0.7668(13)
O1_3 O 0.020(5) 0.959(3) 0.7117(13)
C10_3 C 0.164(6) 0.953(2) 0.690(2)
C11_3 C 0.455(4) 0.9003(12) 0.6772(9)
H6_3 H 0.4892 0.9262 0.6559
C12_4 C 0.578(3) 0.8575(13) 0.6877(8)
H7_4 H 0.6933 0.8547 0.6735
C13_4 C 0.527(3) 0.8188(11) 0.7195(8)
C14_3 C 0.354(3) 0.8230(12) 0.7408(8)
H8_3 H 0.3201 0.7971 0.7620
C15_3 C 0.232(3) 0.8658(12) 0.7302(8)
H9_3 H 0.1159 0.8686 0.7444
C16_3 C 0.282(3) 0.9045(12) 0.6984(8)
C22_4 C 0.836(3) 0.7711(11) 0.7164(8)
H14_4 H 0.8855 0.8007 0.7007
C23_4 C 0.950(3) 0.7266(12) 0.7274(8)
C24_4 C 0.876(4) 0.6822(12) 0.7509(10)
C25_4 C 0.687(4) 0.6824(12) 0.7632(10)
H16_4 H 0.6376 0.6527 0.7789
C26_4 C 0.573(3) 0.7269(12) 0.7521(9)
H17_3 H 0.4468 0.7270 0.7604
C27_4 C 0.647(3) 0.7712(11) 0.7287(9)
O2_3 O 0.189(4) 0.996(2) 0.6707(13)
C39_4 C 0.984(5) 0.6304(17) 0.7530(18)
H15_4 H 0.9238 0.2264 0.7808
O4_4 O 0.838(5) 0.1239(10) 0.7544(8)
Zn3_2 Zn 0.8838(8) 0.0284(5) 0.7168(2)
S1_3 S 0.452(2) 0.0208(9) 0.3532(5)
C1_3 C 0.308(3) 0.0534(10) 0.3338(9)
C2_3 C 0.329(3) 0.1084(8) 0.3491(11)
H1_3 H 0.2534 0.1383 0.3415
C3_3 C 0.487(4) 0.1099(10) 0.3780(12)
C4_3 C 0.563(3) 0.0558(11) 0.3806(9)
H3_3 H 0.0031 0.1124 0.3198
C7_3 C 0.140(3) 0.0405(11) 0.3087(8)
C17_4 C 0.868(3) 0.0619(17) 0.6190(10)
H10_4 H 0.9968 0.0544 0.6184
N2_4 N 0.761(4) 0.0461(16) 0.6552(9)
C18_4 C 0.569(4) 0.0573(16) 0.6561(8)
H11_3 H 0.4969 0.0467 0.6803
C19_3 C 0.485(3) 0.0844(17) 0.6207(8)
H12_3 H 0.3561 0.0919 0.6213
C20_4 C 0.592(3) 0.1002(17) 0.5845(8)
C21_4 C 0.784(3) 0.0889(17) 0.5836(8)
H13_4 H 0.8560 0.0995 0.5594
C28_3 C 0.321(4) 0.1331(18) 0.4813(7)
C29_3 C 0.506(4) 0.152(2) 0.4726(9)
C30_4 C 0.616(3) 0.144(2) 0.5113(12)
H18_4 H 0.7425 0.1523 0.5147
C31_3 C 0.498(3) 0.1192(17) 0.5439(7)
S2_3 S 0.3157(18) 0.1127(10) 0.5253(5)
C32_3 C 0.552(6) 0.188(2) 0.4326(15)
C33_3 C 0.545(6) 0.1685(12) 0.388(2)
C34_3 C 0.628(7) 0.209(2) 0.3609(9)
C35_3 C 0.686(5) 0.2538(14) 0.388(2)
C36_3 C 0.639(7) 0.240(2) 0.4326(15)
F1_3 F 0.494(5) 0.278(2) 0.4561(12)
F2_3 F 0.798(5) 0.247(2) 0.4599(9)
F3_3 F 0.507(5) 0.2318(19) 0.3301(10)
C37_3 C 0.753(4) 0.058(3) 0.4004(10)
H19_3 H 0.8131 0.0231 0.3979
H20_3 H 0.7428 0.0683 0.4311
H21_3 H 0.8268 0.0857 0.3852
C38_3 C 0.143(5) 0.124(2) 0.4569(12)
H22_3 H 0.0920 0.1593 0.4482
H23_3 H 0.0550 0.1053 0.4755
H24_3 H 0.1679 0.1024 0.4310
F4_3 F 0.748(6) 0.1737(19) 0.3380(14)
F5_3 F 0.935(4) 0.2725(17) 0.3764(10)
F6_3 F 0.596(6) 0.3256(19) 0.3850(14)
C8_3 C 0.375(3) 0.0105(11) 0.7879(7)
H4_3 H 0.2769 0.0358 0.7898
C9_4 C 0.537(4) 0.0237(13) 0.7642(8)
H5_4 H 0.5466 0.0578 0.7503
C8_4 C 0.125(3) 0.9895(11) 0.2879(7)
H4_4 H 0.2231 0.9642 0.2898
N3_2 N 0.683(3) 0.9858(15) 0.7613(7)
S1_4 S 0.048(2) 0.9792(9) 0.8532(5)
C1_4 C 0.192(3) 0.9466(10) 0.8338(9)
C2_4 C 0.171(3) 0.8916(8) 0.8491(11)
H1_4 H 0.2466 0.8617 0.8415
C3_4 C 0.013(4) 0.8901(10) 0.8780(12)
C5_3 C 0.669(3) 0.9349(14) 0.7822(9)
H2_3 H 0.7667 0.9096 0.7803
C6_3 C 0.507(3) 0.9217(11) 0.8059(10)
H3_4 H 0.4969 0.8876 0.8198
C7_4 C 0.360(3) 0.9595(11) 0.8087(8)
C28_4 C 0.179(4) 0.8669(18) 0.9813(7)
F1_4 F 0.006(5) 0.722(2) 0.9561(12)
C38_4 C 0.357(5) 0.876(2) 0.9569(12)
H22_4 H 0.4080 0.8407 0.9482
H23_4 H 0.4450 0.8947 0.9755
H24_4 H 0.3321 0.8976 0.9310
N1_2 N 0.817(3) 0.0142(15) 0.2613(7)
C5_4 C 0.831(3) 0.0651(14) 0.2822(9)
H2_4 H 0.7333 0.0904 0.2803
C6_4 C 0.993(3) 0.0783(11) 0.3059(10)
O1_4 O 0.480(5) 0.041(3) 0.2117(13)
C10_4 C 0.336(6) 0.047(2) 0.190(2)
C11_4 C 0.045(4) 0.0997(12) 0.1772(9)
H6_4 H 0.0108 0.0738 0.1559
C14_4 C 0.146(3) 0.1770(12) 0.2408(8)
H8_4 H 0.1799 0.2029 0.2620
C15_4 C 0.268(3) 0.1342(12) 0.2302(8)
H9_4 H 0.3841 0.1314 0.2444
C16_4 C 0.218(3) 0.0955(12) 0.1984(8)
H17_4 H 0.0532 0.2730 0.2604
O2_4 O 0.311(4) 0.004(2) 0.1707(13)
H11_4 H 0.0031 0.9533 0.1803
C19_4 C 0.015(3) 0.9156(17) 0.1207(8)
H12_4 H 0.1439 0.9081 0.1213
C31_4 C 0.002(3) 0.8808(17) 0.0439(7)
S2_4 S 0.1843(18) 0.8873(10) 0.0253(5)
C4_4 C 0.937(3) 0.9442(11) 0.8806(9)
C29_4 C 0.994(4) 0.848(2) 0.9726(9)
C32_4 C 0.948(6) 0.812(2) 0.9326(15)
C33_4 C 0.955(6) 0.8315(12) 0.888(2)
C34_4 C 0.872(7) 0.791(2) 0.8609(9)
C35_4 C 0.814(5) 0.7462(14) 0.888(2)
C36_4 C 0.861(7) 0.760(2) 0.9326(15)
F2_4 F 0.702(5) 0.753(2) 0.9599(9)
F3_4 F 0.993(5) 0.7682(19) 0.8301(10)
C37_4 C 0.747(4) 0.942(3) 0.9004(10)
H19_4 H 0.6869 0.9769 0.8979
H20_4 H 0.7572 0.9317 0.9311
H21_4 H 0.6732 0.9143 0.8852
F4_4 F 0.752(6) 0.8263(19) 0.8380(14)
F5_4 F 0.565(4) 0.7275(17) 0.8764(10)
F6_4 F 0.904(6) 0.6744(19) 0.8850(14)
loop_
_geom_bond_atom_site_label_1
_geom_bond_atom_site_label_2
_geom_bond_site_symmetry_1
_geom_bond_site_symmetry_2
H7 C12 1_555 1_555
C13 C12 1_555 1_555
C22 H14 1_555 1_555
C23 C22 1_555 1_555
H15 C23 1_555 1_555
C24 C23 1_555 1_555
C25 C24 1_555 1_555
H16 C25 1_555 1_555
C26 C25 1_555 1_555
C27 C13 1_555 1_555
C39 C24 1_555 1_555
O3 C39 1_555 1_555
O4 C39 1_555 1_555
Zn3 O3 1_555 1_555
C22 C27 1_555 1_555
C26 C27 1_555 1_555
H5 C9 1_555 1_555
C17 H10 1_555 1_555
N2 Zn3 1_555 1_555
C18 N2 1_555 1_555
C21 C17 1_555 1_555
H13 C21 1_555 1_555
C30 H18 1_555 1_555
C17 N2 1_555 1_555
C20 C21 1_555 1_555
Zn1 O1 1_555 1_555
O1 C10 1_555 1_555
C10 C16 1_555 1_555
C11 H6 1_555 1_555
H8 C14 1_555 1_555
C15 C14 1_555 1_555
H9 C15 1_555 1_555
C16 C11 1_555 1_555
C17_2 H10_2 1_555 1_555
N2_2 Zn1 1_555 1_555
C18_2 N2_2 1_555 1_555
C21_2 C17_2 1_555 1_555
H13_2 C21_2 1_555 1_555
O2 C10 1_555 1_555
C29 C30_2 1_555 1_555
C30_2 H18_2 1_555 1_555
C32 C29 1_555 1_555
C34 C33 1_555 1_555
C35 C34 1_555 1_555
C36 C32 1_555 1_555
F2 C36 1_555 1_555
F3 C34 1_555 1_555
C37 C4 1_555 1_555
H19 C37 1_555 1_555
H20 C37 1_555 1_555
H21 C37 1_555 1_555
F4 C34 1_555 1_555
F5 C35 1_555 1_555
F6 C35 1_555 1_555
N3 Zn1 1_555 1_555
O5 Zn1 1_555 1_555
C15 C16 1_555 1_555
C17_2 N2_2 1_555 1_555
C20_2 C21_2 1_555 1_555
C32 C33 1_555 1_555
C35 C36 1_555 1_555
N3 C5 1_555 1_555
C5 H2 1_555 1_555
C6 C5 1_555 1_555
C9_2 N3 1_555 1_555
H5_2 C9_2 1_555 1_555
H7_2 C12_2 1_555 1_555
C13_2 C12_2 1_555 1_555
C22_2 H14_2 1_555 1_555
C23_2 C22_2 1_555 1_555
H15_2 C23_2 1_555 1_555
C24_2 C23_2 1_555 1_555
C25_2 C24_2 1_555 1_555
H16_2 C25_2 1_555 1_555
C26_2 C25_2 1_555 1_555
C27_2 C13_2 1_555 1_555
C39_2 C24_2 1_555 1_555
O5 C39_2 1_555 1_555
O4_2 C39_2 1_555 1_555
C22_2 C27_2 1_555 1_555
C26_2 C27_2 1_555 1_555
S1 C1 1_555 1_555
C1 C2 1_555 1_555
C2 H1 1_555 1_555
C3 C2 1_555 1_555
N1 C5_2 1_555 1_555
C5_2 H2_2 1_555 1_555
C6_2 C5_2 1_555 1_555
H3 C6_2 1_555 1_555
C7 C1 1_555 1_555
C8 C7 1_555 1_555
H4 C8 1_555 1_555
C9_3 N1 1_555 1_555
H5_3 C9_3 1_555 1_555
H12 C19 1_555 1_555
S2 C28 1_555 1_555
C38 C28 1_555 1_555
H22 C38 1_555 1_555
H23 C38 1_555 1_555
H24 C38 1_555 1_555
Zn2 N1 1_555 1_555
C6_2 C7 1_555 1_555
C8 C9_3 1_555 1_555
C31 S2 1_555 1_555
C17_3 H10_3 1_555 1_555
N2_3 Zn2 1_555 1_555
C18_3 N2_3 1_555 1_555
H11_2 C18_3 1_555 1_555
C19_2 C18_3 1_555 1_555
H12_2 C19_2 1_555 1_555
C20_3 C19_2 1_555 1_555
C21_3 C17_3 1_555 1_555
H13_3 C21_3 1_555 1_555
C30_3 H18_3 1_555 1_555
C31_2 C20_3 1_555 1_555
C17_3 N2_3 1_555 1_555
C20_3 C21_3 1_555 1_555
C30_3 C31_2 1_555 1_555
C31_2 S2_2 1_555 1_555
S1_2 C1_2 1_555 1_555
C1_2 C2_2 1_555 1_555
C2_2 H1_2 1_555 1_555
C3_2 C2_2 1_555 1_555
C4_2 S1_2 1_555 1_555
C7_2 C1_2 1_555 1_555
C8_2 C7_2 1_555 1_555
H4_2 C8_2 1_555 1_555
C28_2 C29_2 1_555 1_555
C32_2 C29_2 1_555 1_555
C33_2 C3_2 1_555 1_555
C34_2 C33_2 1_555 1_555
C35_2 C34_2 1_555 1_555
C36_2 C32_2 1_555 1_555
F1_2 C36_2 1_555 1_555
F2_2 C36_2 1_555 1_555
F3_2 C34_2 1_555 1_555
C37_2 C4_2 1_555 1_555
H19_2 C37_2 1_555 1_555
H20_2 C37_2 1_555 1_555
H21_2 C37_2 1_555 1_555
C38_2 C28_2 1_555 1_555
H22_2 C38_2 1_555 1_555
H23_2 C38_2 1_555 1_555
H24_2 C38_2 1_555 1_555
F4_2 C34_2 1_555 1_555
F5_2 C35_2 1_555 1_555
F6_2 C35_2 1_555 1_555
C3_2 C4_2 1_555 1_555
C32_2 C33_2 1_555 1_555
C35_2 C36_2 1_555 1_555
O1_2 C10_2 1_555 1_555
C10_2 C16_2 1_555 1_555
C11_2 H6_2 1_555 1_555
C12_3 C11_2 1_555 1_555
H7_3 C12_3 1_555 1_555
C13_3 C12_3 1_555 1_555
C14_2 C13_3 1_555 1_555
H8_2 C14_2 1_555 1_555
C15_2 C14_2 1_555 1_555
H9_2 C15_2 1_555 1_555
C16_2 C11_2 1_555 1_555
C22_3 H14_3 1_555 1_555
C23_3 C22_3 1_555 1_555
C24_3 C23_3 1_555 1_555
C25_3 C24_3 1_555 1_555
H16_3 C25_3 1_555 1_555
C26_3 C25_3 1_555 1_555
H17_2 C26_3 1_555 1_555
C27_3 C13_3 1_555 1_555
O2_2 C10_2 1_555 1_555
C39_3 C24_3 1_555 1_555
O3_2 C39_3 1_555 1_555
C15_2 C16_2 1_555 1_555
C22_3 C27_3 1_555 1_555
C26_3 C27_3 1_555 1_555
O1_3 C10_3 1_555 1_555
C10_3 C16_3 1_555 1_555
C11_3 H6_3 1_555 1_555
C12_4 C11_3 1_555 1_555
H7_4 C12_4 1_555 1_555
C13_4 C12_4 1_555 1_555
C14_3 C13_4 1_555 1_555
H8_3 C14_3 1_555 1_555
C15_3 C14_3 1_555 1_555
H9_3 C15_3 1_555 1_555
C16_3 C11_3 1_555 1_555
C22_4 H14_4 1_555 1_555
C23_4 C22_4 1_555 1_555
C24_4 C23_4 1_555 1_555
C25_4 C24_4 1_555 1_555
H16_4 C25_4 1_555 1_555
C26_4 C25_4 1_555 1_555
H17_3 C26_4 1_555 1_555
C27_4 C13_4 1_555 1_555
O2_3 C10_3 1_555 1_555
C39_4 C24_4 1_555 1_555
O5_2 C39_4 1_555 1_555
C15_3 C16_3 1_555 1_555
C22_4 C27_4 1_555 1_555
C26_4 C27_4 1_555 1_555
S1_3 C1_3 1_555 1_555
C1_3 C2_3 1_555 1_555
C2_3 H1_3 1_555 1_555
C3_3 C2_3 1_555 1_555
C4_3 S1_3 1_555 1_555
C7_3 C1_3 1_555 1_555
C17_4 H10_4 1_555 1_555
N2_4 Zn3_2 1_555 1_555
C18_4 N2_4 1_555 1_555
H11_3 C18_4 1_555 1_555
C19_3 C18_4 1_555 1_555
H12_3 C19_3 1_555 1_555
C20_4 C19_3 1_555 1_555
C21_4 C17_4 1_555 1_555
H13_4 C21_4 1_555 1_555
C28_3 C29_3 1_555 1_555
C29_3 C30_4 1_555 1_555
C30_4 H18_4 1_555 1_555
C31_3 C20_4 1_555 1_555
S2_3 C28_3 1_555 1_555
C32_3 C29_3 1_555 1_555
C33_3 C3_3 1_555 1_555
C34_3 C33_3 1_555 1_555
C35_3 C34_3 1_555 1_555
C36_3 C32_3 1_555 1_555
F1_3 C36_3 1_555 1_555
F2_3 C36_3 1_555 1_555
F3_3 C34_3 1_555 1_555
C37_3 C4_3 1_555 1_555
H19_3 C37_3 1_555 1_555
H20_3 C37_3 1_555 1_555
H21_3 C37_3 1_555 1_555
C38_3 C28_3 1_555 1_555
H22_3 C38_3 1_555 1_555
H23_3 C38_3 1_555 1_555
H24_3 C38_3 1_555 1_555
F4_3 C34_3 1_555 1_555
F5_3 C35_3 1_555 1_555
F6_3 C35_3 1_555 1_555
C3_3 C4_3 1_555 1_555
C17_4 N2_4 1_555 1_555
C20_4 C21_4 1_555 1_555
C30_4 C31_3 1_555 1_555
C31_3 S2_3 1_555 1_555
C32_3 C33_3 1_555 1_555
C35_3 C36_3 1_555 1_555
H4_3 C8_3 1_555 1_555
H5_4 C9_4 1_555 1_555
C8_3 C9_4 1_555 1_555
H4_4 C8_4 1_555 1_555
S1_4 C1_4 1_555 1_555
C1_4 C2_4 1_555 1_555
C2_4 H1_4 1_555 1_555
C3_4 C2_4 1_555 1_555
N3_2 C5_3 1_555 1_555
C5_3 H2_3 1_555 1_555
C6_3 C5_3 1_555 1_555
H3_4 C6_3 1_555 1_555
C7_4 C1_4 1_555 1_555
C38_4 C28_4 1_555 1_555
H22_4 C38_4 1_555 1_555
H23_4 C38_4 1_555 1_555
H24_4 C38_4 1_555 1_555
C6_3 C7_4 1_555 1_555
N1_2 C5_4 1_555 1_555
C5_4 H2_4 1_555 1_555
C6_4 C5_4 1_555 1_555
O1_4 C10_4 1_555 1_555
C10_4 C16_4 1_555 1_555
C11_4 H6_4 1_555 1_555
H8_4 C14_4 1_555 1_555
C15_4 C14_4 1_555 1_555
H9_4 C15_4 1_555 1_555
C16_4 C11_4 1_555 1_555
O2_4 C10_4 1_555 1_555
C15_4 C16_4 1_555 1_555
H12_4 C19_4 1_555 1_555
C31_4 S2_4 1_555 1_555
C32_4 C29_4 1_555 1_555
C34_4 C33_4 1_555 1_555
C35_4 C34_4 1_555 1_555
C36_4 C32_4 1_555 1_555
F2_4 C36_4 1_555 1_555
F3_4 C34_4 1_555 1_555
C37_4 C4_4 1_555 1_555
H19_4 C37_4 1_555 1_555
H20_4 C37_4 1_555 1_555
H21_4 C37_4 1_555 1_555
F4_4 C34_4 1_555 1_555
F5_4 C35_4 1_555 1_555
F6_4 C35_4 1_555 1_555
C32_4 C33_4 1_555 1_555
C35_4 C36_4 1_555 1_555

#END
