
###############################################################################
#
# This file contains modified crystal structure data generated from the
# MOF subset of the Cambridge Structural Database (CSD) v543 
# hosted by the Cambridge Crystallographic Data Centre (CCDC).
#
# This work is licensed under the Creative Commons
# Attribution-NonCommercial-ShareAlike 4.0 International License.
# To view a copy of this license, visit
# http://creativecommons.org/licenses/by-nc-sa/4.0/
# or send a letter to
# Creative Commons, PO Box 1866, Mountain View, CA 94042, USA.
#
# CIF created using the CSD Python API on 29 September 2022
# The structure has been converted into the P1 space group
# The structure has a 3D framework
# The original CSD entry YOLKOB14 is in the orthorhombic crystal system
# The original CSD entry YOLKOB14 is in a Sohncke space group
# The framework has been calculated to contain at least 10.0% void space
# The void calculation uses a probe of radius 1.32A, grid spacing 0.4
#
###############################################################################

data_YOLKOB14
_chemical_formula_moiety         '(C156 H96 F24 N8 O16 S8 Zn4)n'
_symmetry_cell_setting           triclinic
_symmetry_space_group_name_H-M   'P 1'
_symmetry_Int_Tables_number      1
_space_group_name_Hall           'P 1'
loop_
_symmetry_equiv_pos_site_id
_symmetry_equiv_pos_as_xyz
1 x,y,z
_cell_length_a                   6.730(2)
_cell_length_b                   25.256(15)
_cell_length_c                   28.79(4)
_cell_angle_alpha                90
_cell_angle_beta                 90
_cell_angle_gamma                90
_cell_volume                     4893.52
loop_
_atom_site_label
_atom_site_type_symbol
_atom_site_fract_x
_atom_site_fract_y
_atom_site_fract_z
C10 C 0.072(5) 0.624(2) 0.3098(19)
H7 H 0.1927 0.6254 0.3255
C13 C 0.009(7) 0.6667(14) 0.283(2)
C15 C 0.128(6) 0.7169(15) 0.280(2)
C18 C 0.325(7) 0.7136(14) 0.294(2)
C19 C 0.053(5) 0.765(2) 0.263(2)
H10 H 0.3749 0.6818 0.3054
C22 C 0.447(4) 0.758(2) 0.292(2)
C23 C 0.175(7) 0.8089(14) 0.261(2)
H15 H 0.5783 0.7558 0.3018
C26 C 0.372(6) 0.8056(15) 0.275(2)
H16 H 0.1253 0.8408 0.2498
C30 C 0.488(7) 0.8565(18) 0.268(4)
O4 O 0.678(7) 0.8529(18) 0.279(2)
O5 O 0.379(6) 0.8987(17) 0.262(2)
Zn2 Zn 0.5863(12) 0.9515(3) 0.2428(5)
C39 C 0.976(7) 0.9470(12) 0.292(2)
H24 H 0.9717 0.9108 0.2863
N3 N 0.822(6) 0.9793(19) 0.2762(19)
N1 N 0.704(7) 0.9185(15) 0.1826(13)
C2 C 0.577(4) 0.8924(14) 0.1522(16)
C3 C 0.902(6) 0.9266(14) 0.1705(18)
O3 O 0.265(6) 0.9879(19) 0.174(2)
H1 H 0.4448 0.8870 0.1604
C5 C 0.647(6) 0.8745(14) 0.1097(14)
H2 H 0.9868 0.9441 0.1908
C6 C 0.972(4) 0.9086(15) 0.128(2)
C9 C 0.845(7) 0.8826(16) 0.0975(13)
H3 H 0.5623 0.8570 0.0893
C12 C 0.974(4) 0.8755(14) 0.0562(13)
C14 C 0.846(3) 0.8513(14) 0.0233(18)
H9 H 0.7114 0.8442 0.0275
Zn1 Zn 0.4137(12) 0.4515(3) 0.2572(5)
O1 O 0.554(6) 0.5207(16) 0.263(3)
N1_2 N 0.296(7) 0.4185(15) 0.3174(13)
N2 N 0.178(6) 0.4793(19) 0.2238(19)
O2 O 0.621(6) 0.3987(17) 0.238(2)
C1 C 0.669(10) 0.526(2) 0.302(4)
C2_2 C 0.423(4) 0.3924(14) 0.3478(16)
C3_2 C 0.098(6) 0.4266(14) 0.3295(18)
C4 C 0.775(6) 0.5762(14) 0.289(2)
O3_2 O 0.735(6) 0.4879(19) 0.326(2)
H1_2 H 0.5552 0.3870 0.3396
C5_2 C 0.353(6) 0.3745(14) 0.3903(14)
H2_2 H 0.0132 0.4441 0.3092
C6_2 C 0.028(4) 0.4086(15) 0.372(2)
C7 C 0.955(7) 0.5785(16) 0.313(2)
C8 C 0.711(5) 0.6191(19) 0.263(2)
C9_2 C 0.155(7) 0.3826(16) 0.4025(13)
H3_2 H 0.4377 0.3570 0.4107
H5 H 0.9977 0.5498 0.3303
C11 C 0.828(7) 0.6644(15) 0.260(2)
H6 H 0.5908 0.6175 0.2472
C12_2 C 0.026(4) 0.3755(14) 0.4438(13)
H8 H 0.7858 0.6931 0.2424
C14_2 C 0.154(3) 0.3513(14) 0.4767(18)
C17 C 0.042(5) 0.3401(14) 0.5173(13)
H9_2 H 0.2886 0.3442 0.4725
C21 C 0.125(7) 0.3193(13) 0.5633(11)
H11 H 0.9219 0.7668 0.2534
C24 C 0.100(7) 0.3451(12) 0.6067(12)
C25 C 0.216(8) 0.2694(14) 0.5717(14)
C27 C 0.029(8) 0.4008(9) 0.615(3)
C28 C 0.174(10) 0.3112(19) 0.6420(11)
C29 C 0.246(8) 0.2644(16) 0.6203(15)
F1 F 0.081(5) 0.2262(13) 0.5599(18)
F2 F 0.355(5) 0.2551(12) 0.5398(17)
C32 C 0.111(5) 0.4519(14) 0.607(2)
F3 F 0.039(7) 0.2811(15) 0.680(2)
F4 F 0.287(6) 0.3170(17) 0.687(2)
F5 F 0.465(6) 0.2605(16) 0.623(2)
F6 F 0.230(5) 0.2093(14) 0.6371(19)
C34 C 0.286(7) 0.443(2) 0.575(2)
H18 H 0.3585 0.4126 0.5852
H19 H 0.3715 0.4738 0.5765
H20 H 0.2399 0.4383 0.5441
C36 C 0.013(7) 0.5555(12) 0.192(2)
C38 C 0.172(5) 0.5335(18) 0.216(2)
H21 H 0.0087 0.5917 0.1862
C39_2 C 0.024(7) 0.4470(12) 0.208(2)
H23 H 0.2747 0.5550 0.2260
H24_2 H 0.0283 0.4108 0.2137
C10_2 C 0.928(5) 0.124(2) 0.1902(19)
H7_2 H 0.8073 0.1254 0.1745
C13_2 C 0.991(7) 0.1667(14) 0.217(2)
C15_2 C 0.872(6) 0.2169(15) 0.220(2)
C18_2 C 0.675(7) 0.2136(14) 0.206(2)
C19_2 C 0.947(5) 0.265(2) 0.237(2)
H10_2 H 0.6251 0.1818 0.1946
C22_2 C 0.553(4) 0.258(2) 0.208(2)
C23_2 C 0.825(7) 0.3089(14) 0.239(2)
H15_2 H 0.4217 0.2558 0.1982
C26_2 C 0.628(6) 0.3056(15) 0.225(2)
H16_2 H 0.8747 0.3408 0.2502
C30_2 C 0.512(7) 0.3565(18) 0.232(4)
O4_2 O 0.322(7) 0.3529(18) 0.221(2)
H4 H 0.8957 0.4140 0.3802
S1 S 0.834(3) 0.3791(7) 0.4640(9)
C16 C 0.844(4) 0.3572(13) 0.5094(9)
C20 C 0.677(7) 0.351(3) 0.5431(19)
H12 H 0.7293 0.3440 0.5735
H13 H 0.5938 0.3220 0.5337
H14 H 0.5993 0.3829 0.5439
C31 C 0.843(8) 0.4074(12) 0.637(3)
C33 C 0.810(5) 0.4625(14) 0.643(2)
H17 H 0.7581 0.3803 0.6465
S2 S 0.976(3) 0.4900(7) 0.6247(11)
C35 C 0.641(5) 0.4768(19) 0.6760(19)
C36_2 C 0.487(7) 0.4445(12) 0.692(2)
C37 C 0.635(6) 0.5310(17) 0.684(2)
C38_2 C 0.328(5) 0.4665(18) 0.716(2)
H21_2 H 0.4913 0.4083 0.6862
H22 H 0.7377 0.5525 0.6738
C39_3 C 0.476(7) 0.5530(12) 0.708(2)
H23_2 H 0.2253 0.4450 0.7260
H24_3 H 0.4717 0.5892 0.7137
N3_2 N 0.322(6) 0.5207(19) 0.7238(19)
Zn3 Zn 0.0863(12) 0.5485(3) 0.7572(5)
N1_3 N 0.204(7) 0.5815(15) 0.8174(13)
C2_3 C 0.077(4) 0.6076(14) 0.8478(16)
C3_3 C 0.402(6) 0.5734(14) 0.8295(18)
C5_3 C 0.147(6) 0.6255(14) 0.8903(14)
H2_3 H 0.4868 0.5559 0.8092
C6_3 C 0.472(4) 0.5914(15) 0.872(2)
C9_3 C 0.345(7) 0.6174(16) 0.9025(13)
H3_3 H 0.0623 0.6430 0.9107
H4_2 H 0.6043 0.5860 0.8802
C12_3 C 0.474(4) 0.6245(14) 0.9438(13)
S1_2 S 0.666(3) 0.6209(7) 0.9640(9)
C14_3 C 0.346(3) 0.6487(14) 0.9767(18)
H9_3 H 0.2114 0.6558 0.9725
H15_3 H 0.0783 0.7442 0.6982
O4_3 O 0.178(7) 0.6471(18) 0.721(2)
C16_2 C 0.656(4) 0.6428(13) 0.0094(9)
C17_2 C 0.458(5) 0.6599(14) 0.0173(13)
C20_2 C 0.823(7) 0.649(3) 0.0431(19)
C21_2 C 0.375(7) 0.6807(13) 0.0633(11)
H12_2 H 0.7707 0.6560 0.0735
H13_2 H 0.9062 0.6780 0.0337
H14_2 H 0.9007 0.6171 0.0439
C24_2 C 0.400(7) 0.6549(12) 0.1067(12)
C25_2 C 0.284(8) 0.7306(14) 0.0717(14)
C27_2 C 0.471(8) 0.5992(9) 0.115(3)
C28_2 C 0.326(10) 0.6888(19) 0.1420(11)
C29_2 C 0.254(8) 0.7356(16) 0.1203(15)
F1_2 F 0.419(5) 0.7738(13) 0.0599(18)
F2_2 F 0.145(5) 0.7449(12) 0.0398(17)
C31_2 C 0.657(8) 0.5926(12) 0.137(3)
C32_2 C 0.389(5) 0.5481(14) 0.107(2)
F3_2 F 0.461(7) 0.7189(15) 0.180(2)
F4_2 F 0.213(6) 0.6830(17) 0.187(2)
F5_2 F 0.035(6) 0.7395(16) 0.123(2)
F6_2 F 0.270(5) 0.7907(14) 0.1371(19)
C33_2 C 0.690(5) 0.5375(14) 0.143(2)
H17_2 H 0.7419 0.6197 0.1465
S2_2 S 0.524(3) 0.5100(7) 0.1247(11)
C34_2 C 0.214(7) 0.557(2) 0.075(2)
C35_2 C 0.859(5) 0.5232(19) 0.1760(19)
H18_2 H 0.1415 0.5874 0.0852
H19_2 H 0.1285 0.5262 0.0765
H20_2 H 0.2601 0.5617 0.0441
C37_2 C 0.865(6) 0.4690(17) 0.184(2)
H22_2 H 0.7623 0.4475 0.1738
O1_2 O 0.946(6) 0.4793(16) 0.763(3)
O2_2 O 0.879(6) 0.6013(17) 0.738(2)
C1_2 C 0.831(10) 0.474(2) 0.802(4)
C4_2 C 0.725(6) 0.4238(14) 0.789(2)
O3_3 O 0.765(6) 0.5121(19) 0.826(2)
H1_3 H 0.9448 0.6130 0.8396
C7_2 C 0.545(7) 0.4215(16) 0.813(2)
C8_2 C 0.789(5) 0.3809(19) 0.763(2)
H5_2 H 0.5023 0.4502 0.8303
C10_3 C 0.428(5) 0.376(2) 0.8098(19)
C11_2 C 0.672(7) 0.3356(15) 0.760(2)
H6_2 H 0.9092 0.3825 0.7472
H7_3 H 0.3073 0.3746 0.8255
C13_3 C 0.491(7) 0.3333(14) 0.783(2)
H8_2 H 0.7142 0.3069 0.7424
C15_3 C 0.372(6) 0.2831(15) 0.780(2)
C18_3 C 0.175(7) 0.2864(14) 0.794(2)
C19_3 C 0.447(5) 0.235(2) 0.763(2)
H10_3 H 0.1251 0.3182 0.8054
C22_3 C 0.053(4) 0.242(2) 0.792(2)
C23_3 C 0.325(7) 0.1911(14) 0.761(2)
H11_2 H 0.5781 0.2332 0.7534
C26_3 C 0.128(6) 0.1944(15) 0.775(2)
H16_3 H 0.3747 0.1592 0.7498
C30_3 C 0.012(7) 0.1435(18) 0.768(4)
O5_2 O 0.121(6) 0.1013(17) 0.762(2)
O3_4 O 0.235(6) 0.0121(19) 0.674(2)
H1_4 H 0.0552 0.1130 0.6604
O1_3 O 0.054(6) 0.9793(16) 0.737(3)
C1_3 C 0.169(10) 0.974(2) 0.698(4)
C4_3 C 0.275(6) 0.9238(14) 0.711(2)
C7_3 C 0.455(7) 0.9215(16) 0.687(2)
C8_3 C 0.211(5) 0.8809(19) 0.737(2)
H5_3 H 0.4977 0.9502 0.6697
C10_4 C 0.572(5) 0.876(2) 0.6902(19)
C11_3 C 0.328(7) 0.8356(15) 0.740(2)
H6_3 H 0.0908 0.8825 0.7528
H7_4 H 0.6927 0.8746 0.6745
C13_4 C 0.509(7) 0.8333(14) 0.717(2)
H8_3 H 0.2858 0.8069 0.7576
C15_4 C 0.628(6) 0.7831(15) 0.720(2)
C18_4 C 0.825(7) 0.7864(14) 0.706(2)
C19_4 C 0.553(5) 0.735(2) 0.737(2)
H10_4 H 0.8749 0.8182 0.6946
C22_4 C 0.947(4) 0.742(2) 0.708(2)
C23_4 C 0.675(7) 0.6911(14) 0.739(2)
H11_3 H 0.4219 0.7332 0.7466
C26_4 C 0.872(6) 0.6944(15) 0.725(2)
H16_4 H 0.6253 0.6592 0.7502
C30_4 C 0.988(7) 0.6435(18) 0.732(4)
H15_4 H 0.9217 0.2442 0.8018
O4_4 O 0.822(7) 0.1471(18) 0.779(2)
Zn2_2 Zn 0.9137(12) 0.0485(3) 0.7428(5)
N1_4 N 0.796(7) 0.0815(15) 0.6826(13)
N2_2 N 0.678(6) 0.0207(19) 0.7762(19)
C2_4 C 0.923(4) 0.1076(14) 0.6522(16)
C3_4 C 0.598(6) 0.0734(14) 0.6705(18)
C5_4 C 0.853(6) 0.1255(14) 0.6097(14)
H2_4 H 0.5132 0.0559 0.6908
C6_4 C 0.528(4) 0.0914(15) 0.628(2)
C9_4 C 0.655(7) 0.1174(16) 0.5975(13)
H3_4 H 0.9377 0.1430 0.5893
H4_3 H 0.3957 0.0860 0.6198
C12_4 C 0.526(4) 0.1245(14) 0.5562(13)
S1_3 S 0.334(3) 0.1209(7) 0.5360(9)
C14_4 C 0.654(3) 0.1487(14) 0.5233(18)
C16_3 C 0.344(4) 0.1428(13) 0.4906(9)
C17_3 C 0.542(5) 0.1599(14) 0.4827(13)
H9_4 H 0.7886 0.1558 0.5275
C20_3 C 0.177(7) 0.149(3) 0.4569(19)
C21_3 C 0.625(7) 0.1807(13) 0.4367(11)
H12_3 H 0.2293 0.1560 0.4265
H13_3 H 0.0938 0.1780 0.4663
H14_3 H 0.0993 0.1171 0.4561
C24_3 C 0.600(7) 0.1549(12) 0.3933(12)
C25_3 C 0.716(8) 0.2306(14) 0.4283(14)
C27_3 C 0.529(8) 0.0992(9) 0.385(3)
C28_3 C 0.674(10) 0.1888(19) 0.3580(11)
C29_3 C 0.746(8) 0.2356(16) 0.3797(15)
F1_3 F 0.581(5) 0.2738(13) 0.4401(18)
F2_3 F 0.855(5) 0.2449(12) 0.4602(17)
C31_3 C 0.343(8) 0.0926(12) 0.363(3)
C32_3 C 0.611(5) 0.0481(14) 0.393(2)
F3_3 F 0.539(7) 0.2189(15) 0.320(2)
F4_3 F 0.787(6) 0.1830(17) 0.313(2)
F5_3 F 0.965(6) 0.2395(16) 0.377(2)
F6_3 F 0.730(5) 0.2907(14) 0.3629(19)
C33_3 C 0.310(5) 0.0375(14) 0.357(2)
H17_3 H 0.2581 0.1197 0.3535
S2_3 S 0.476(3) 0.0100(7) 0.3753(11)
C34_3 C 0.786(7) 0.057(2) 0.425(2)
C35_3 C 0.141(5) 0.0232(19) 0.3240(19)
H18_3 H 0.8585 0.0874 0.4148
H19_3 H 0.8715 0.0262 0.4235
H20_3 H 0.7399 0.0617 0.4559
C37_3 C 0.365(6) 0.0310(17) 0.816(2)
H22_3 H 0.2623 0.0525 0.8262
C39_4 C 0.524(7) 0.0530(12) 0.792(2)
H24_4 H 0.5283 0.0892 0.7863
C37_4 C 0.135(6) 0.9690(17) 0.316(2)
H22_4 H 0.2377 0.9475 0.3262
C36_3 C 0.987(7) 0.0555(12) 0.308(2)
C38_3 C 0.828(5) 0.0335(18) 0.284(2)
H21_3 H 0.9913 0.0917 0.3138
H23_3 H 0.7253 0.0550 0.2740
H4_4 H 0.1043 0.9140 0.1198
S1_4 S 0.166(3) 0.8791(7) 0.0360(9)
C16_4 C 0.156(4) 0.8572(13) 0.9906(9)
C20_4 C 0.323(7) 0.851(3) 0.9569(19)
H12_4 H 0.2707 0.8440 0.9265
H13_4 H 0.4062 0.8220 0.9663
H14_4 H 0.4007 0.8829 0.9561
C31_4 C 0.157(8) 0.9074(12) 0.863(3)
C33_4 C 0.190(5) 0.9625(14) 0.857(2)
H17_4 H 0.2419 0.8803 0.8535
S2_4 S 0.024(3) 0.9900(7) 0.8753(11)
C35_4 C 0.359(5) 0.9768(19) 0.8240(19)
C36_4 C 0.513(7) 0.9445(12) 0.808(2)
C38_4 C 0.672(5) 0.9665(18) 0.784(2)
H21_4 H 0.5087 0.9083 0.8138
H23_4 H 0.7747 0.9450 0.7740
O1_4 O 0.446(6) 0.0207(16) 0.237(3)
C1_4 C 0.331(10) 0.026(2) 0.198(4)
C4_4 C 0.225(6) 0.0762(14) 0.211(2)
C7_4 C 0.045(7) 0.0785(16) 0.187(2)
C8_4 C 0.289(5) 0.1191(19) 0.237(2)
H5_4 H 0.0023 0.0498 0.1697
C11_4 C 0.172(7) 0.1644(15) 0.240(2)
H6_4 H 0.4092 0.1175 0.2528
H8_4 H 0.2142 0.1931 0.2576
H11_4 H 0.0781 0.2668 0.2466
C17_4 C 0.958(5) 0.8401(14) 0.9827(13)
C21_4 C 0.875(7) 0.8193(13) 0.9367(11)
C24_4 C 0.900(7) 0.8451(12) 0.8933(12)
C25_4 C 0.784(8) 0.7694(14) 0.9283(14)
C27_4 C 0.971(8) 0.9008(9) 0.885(3)
C28_4 C 0.826(10) 0.8112(19) 0.8580(11)
C29_4 C 0.754(8) 0.7644(16) 0.8797(15)
F1_4 F 0.919(5) 0.7262(13) 0.9401(18)
F2_4 F 0.645(5) 0.7551(12) 0.9602(17)
C32_4 C 0.889(5) 0.9519(14) 0.893(2)
F3_4 F 0.961(7) 0.7811(15) 0.820(2)
F4_4 F 0.713(6) 0.8170(17) 0.813(2)
F5_4 F 0.535(6) 0.7605(16) 0.877(2)
F6_4 F 0.770(5) 0.7093(14) 0.8629(19)
C34_4 C 0.714(7) 0.943(2) 0.925(2)
H18_4 H 0.6415 0.9126 0.9148
H19_4 H 0.6285 0.9738 0.9235
H20_4 H 0.7601 0.9383 0.9559
loop_
_geom_bond_atom_site_label_1
_geom_bond_atom_site_label_2
_geom_bond_site_symmetry_1
_geom_bond_site_symmetry_2
H7 C10 1_555 1_555
C13 C10 1_555 1_555
C15 C13 1_555 1_555
C18 C15 1_555 1_555
C19 C15 1_555 1_555
H10 C18 1_555 1_555
C22 C18 1_555 1_555
C23 C19 1_555 1_555
H15 C22 1_555 1_555
C26 C22 1_555 1_555
H16 C23 1_555 1_555
C30 C26 1_555 1_555
O4 C30 1_555 1_555
O5 C30 1_555 1_555
Zn2 O5 1_555 1_555
C23 C26 1_555 1_555
H24 C39 1_555 1_555
Zn2 N3 1_555 1_555
C39 N3 1_555 1_555
N1 Zn2 1_555 1_555
C2 N1 1_555 1_555
C3 N1 1_555 1_555
H1 C2 1_555 1_555
C5 C2 1_555 1_555
H2 C3 1_555 1_555
C6 C3 1_555 1_555
C9 C5 1_555 1_555
H3 C5 1_555 1_555
C12 C9 1_555 1_555
C14 C12 1_555 1_555
H9 C14 1_555 1_555
C6 C9 1_555 1_555
Zn1 O1 1_555 1_555
O1 C1 1_555 1_555
N1_2 Zn1 1_555 1_555
N2 Zn1 1_555 1_555
O2 Zn1 1_555 1_555
C1 C4 1_555 1_555
C2_2 N1_2 1_555 1_555
C3_2 N1_2 1_555 1_555
C4 C7 1_555 1_555
O3_2 C1 1_555 1_555
H1_2 C2_2 1_555 1_555
C5_2 C2_2 1_555 1_555
H2_2 C3_2 1_555 1_555
C6_2 C3_2 1_555 1_555
C7 H5 1_555 1_555
C8 C4 1_555 1_555
C9_2 C5_2 1_555 1_555
H3_2 C5_2 1_555 1_555
C11 C8 1_555 1_555
H6 C8 1_555 1_555
C12_2 C9_2 1_555 1_555
H8 C11 1_555 1_555
C14_2 C12_2 1_555 1_555
C17 C14_2 1_555 1_555
H9_2 C14_2 1_555 1_555
C21 C17 1_555 1_555
C24 C21 1_555 1_555
C25 C21 1_555 1_555
C27 C24 1_555 1_555
C28 C24 1_555 1_555
C29 C25 1_555 1_555
F1 C25 1_555 1_555
F2 C25 1_555 1_555
C32 C27 1_555 1_555
F3 C28 1_555 1_555
F4 C28 1_555 1_555
F5 C29 1_555 1_555
F6 C29 1_555 1_555
C34 C32 1_555 1_555
H18 C34 1_555 1_555
H19 C34 1_555 1_555
H20 C34 1_555 1_555
C6_2 C9_2 1_555 1_555
C28 C29 1_555 1_555
C38 C36 1_555 1_555
H21 C36 1_555 1_555
H23 C38 1_555 1_555
H24_2 C39_2 1_555 1_555
N2 C38 1_555 1_555
C39_2 N2 1_555 1_555
H7_2 C10_2 1_555 1_555
C13_2 C10_2 1_555 1_555
C15_2 C13_2 1_555 1_555
C18_2 C15_2 1_555 1_555
C19_2 C15_2 1_555 1_555
H10_2 C18_2 1_555 1_555
C22_2 C18_2 1_555 1_555
C23_2 C19_2 1_555 1_555
H15_2 C22_2 1_555 1_555
C26_2 C22_2 1_555 1_555
H16_2 C23_2 1_555 1_555
C30_2 C26_2 1_555 1_555
O4_2 C30_2 1_555 1_555
O2 C30_2 1_555 1_555
C23_2 C26_2 1_555 1_555
C16 S1 1_555 1_555
C20 C16 1_555 1_555
H12 C20 1_555 1_555
H13 C20 1_555 1_555
H14 C20 1_555 1_555
C33 C31 1_555 1_555
H17 C31 1_555 1_555
C35 C33 1_555 1_555
C36_2 C35 1_555 1_555
C37 C35 1_555 1_555
C38_2 C36_2 1_555 1_555
H21_2 C36_2 1_555 1_555
H22 C37 1_555 1_555
C39_3 C37 1_555 1_555
H23_2 C38_2 1_555 1_555
H24_3 C39_3 1_555 1_555
N3_2 C38_2 1_555 1_555
Zn3 N3_2 1_555 1_555
C33 S2 1_555 1_555
C39_3 N3_2 1_555 1_555
N1_3 Zn3 1_555 1_555
C2_3 N1_3 1_555 1_555
C3_3 N1_3 1_555 1_555
C5_3 C2_3 1_555 1_555
H2_3 C3_3 1_555 1_555
C6_3 C3_3 1_555 1_555
C9_3 C5_3 1_555 1_555
H3_3 C5_3 1_555 1_555
H4_2 C6_3 1_555 1_555
C12_3 C9_3 1_555 1_555
S1_2 C12_3 1_555 1_555
C14_3 C12_3 1_555 1_555
H9_3 C14_3 1_555 1_555
C6_3 C9_3 1_555 1_555
C20_2 C16_2 1_555 1_555
C21_2 C17_2 1_555 1_555
H12_2 C20_2 1_555 1_555
H13_2 C20_2 1_555 1_555
H14_2 C20_2 1_555 1_555
C24_2 C21_2 1_555 1_555
C25_2 C21_2 1_555 1_555
C27_2 C24_2 1_555 1_555
C28_2 C24_2 1_555 1_555
C29_2 C25_2 1_555 1_555
F1_2 C25_2 1_555 1_555
F2_2 C25_2 1_555 1_555
C31_2 C27_2 1_555 1_555
C32_2 C27_2 1_555 1_555
F3_2 C28_2 1_555 1_555
F4_2 C28_2 1_555 1_555
F5_2 C29_2 1_555 1_555
F6_2 C29_2 1_555 1_555
C33_2 C31_2 1_555 1_555
H17_2 C31_2 1_555 1_555
S2_2 C32_2 1_555 1_555
C34_2 C32_2 1_555 1_555
C35_2 C33_2 1_555 1_555
H18_2 C34_2 1_555 1_555
H19_2 C34_2 1_555 1_555
H20_2 C34_2 1_555 1_555
C37_2 C35_2 1_555 1_555
H22_2 C37_2 1_555 1_555
C16_2 C17_2 1_555 1_555
C28_2 C29_2 1_555 1_555
C33_2 S2_2 1_555 1_555
O1_2 C1_2 1_555 1_555
C1_2 C4_2 1_555 1_555
C4_2 C7_2 1_555 1_555
O3_3 C1_2 1_555 1_555
C7_2 H5_2 1_555 1_555
C8_2 C4_2 1_555 1_555
C10_3 C7_2 1_555 1_555
C11_2 C8_2 1_555 1_555
H6_2 C8_2 1_555 1_555
H7_3 C10_3 1_555 1_555
C13_3 C10_3 1_555 1_555
H8_2 C11_2 1_555 1_555
C15_3 C13_3 1_555 1_555
C18_3 C15_3 1_555 1_555
C19_3 C15_3 1_555 1_555
H10_3 C18_3 1_555 1_555
C22_3 C18_3 1_555 1_555
C23_3 C19_3 1_555 1_555
H11_2 C19_3 1_555 1_555
C26_3 C22_3 1_555 1_555
H16_3 C23_3 1_555 1_555
C30_3 C26_3 1_555 1_555
O5_2 C30_3 1_555 1_555
C11_2 C13_3 1_555 1_555
C23_3 C26_3 1_555 1_555
O1_3 C1_3 1_555 1_555
C1_3 C4_3 1_555 1_555
C4_3 C7_3 1_555 1_555
C7_3 H5_3 1_555 1_555
C8_3 C4_3 1_555 1_555
C10_4 C7_3 1_555 1_555
C11_3 C8_3 1_555 1_555
H6_3 C8_3 1_555 1_555
H7_4 C10_4 1_555 1_555
C13_4 C10_4 1_555 1_555
H8_3 C11_3 1_555 1_555
C15_4 C13_4 1_555 1_555
C18_4 C15_4 1_555 1_555
C19_4 C15_4 1_555 1_555
H10_4 C18_4 1_555 1_555
C22_4 C18_4 1_555 1_555
C23_4 C19_4 1_555 1_555
H11_3 C19_4 1_555 1_555
C26_4 C22_4 1_555 1_555
H16_4 C23_4 1_555 1_555
C30_4 C26_4 1_555 1_555
O2_2 C30_4 1_555 1_555
C11_3 C13_4 1_555 1_555
C23_4 C26_4 1_555 1_555
N1_4 Zn2_2 1_555 1_555
N2_2 Zn2_2 1_555 1_555
C2_4 N1_4 1_555 1_555
C3_4 N1_4 1_555 1_555
C5_4 C2_4 1_555 1_555
H2_4 C3_4 1_555 1_555
C6_4 C3_4 1_555 1_555
C9_4 C5_4 1_555 1_555
H3_4 C5_4 1_555 1_555
H4_3 C6_4 1_555 1_555
C12_4 C9_4 1_555 1_555
S1_3 C12_4 1_555 1_555
C14_4 C12_4 1_555 1_555
C16_3 S1_3 1_555 1_555
C17_3 C14_4 1_555 1_555
H9_4 C14_4 1_555 1_555
C20_3 C16_3 1_555 1_555
C21_3 C17_3 1_555 1_555
H12_3 C20_3 1_555 1_555
H13_3 C20_3 1_555 1_555
H14_3 C20_3 1_555 1_555
C24_3 C21_3 1_555 1_555
C25_3 C21_3 1_555 1_555
C27_3 C24_3 1_555 1_555
C28_3 C24_3 1_555 1_555
C29_3 C25_3 1_555 1_555
F1_3 C25_3 1_555 1_555
F2_3 C25_3 1_555 1_555
C31_3 C27_3 1_555 1_555
C32_3 C27_3 1_555 1_555
F3_3 C28_3 1_555 1_555
F4_3 C28_3 1_555 1_555
F5_3 C29_3 1_555 1_555
F6_3 C29_3 1_555 1_555
C33_3 C31_3 1_555 1_555
H17_3 C31_3 1_555 1_555
S2_3 C32_3 1_555 1_555
C34_3 C32_3 1_555 1_555
C35_3 C33_3 1_555 1_555
H18_3 C34_3 1_555 1_555
H19_3 C34_3 1_555 1_555
H20_3 C34_3 1_555 1_555
C6_4 C9_4 1_555 1_555
C16_3 C17_3 1_555 1_555
C28_3 C29_3 1_555 1_555
C33_3 S2_3 1_555 1_555
H22_3 C37_3 1_555 1_555
C39_4 C37_3 1_555 1_555
H24_4 C39_4 1_555 1_555
C39_4 N2_2 1_555 1_555
H22_4 C37_4 1_555 1_555
C38_3 C36_3 1_555 1_555
H21_3 C36_3 1_555 1_555
H23_3 C38_3 1_555 1_555
C20_4 C16_4 1_555 1_555
H12_4 C20_4 1_555 1_555
H13_4 C20_4 1_555 1_555
H14_4 C20_4 1_555 1_555
C33_4 C31_4 1_555 1_555
H17_4 C31_4 1_555 1_555
C35_4 C33_4 1_555 1_555
C36_4 C35_4 1_555 1_555
C38_4 C36_4 1_555 1_555
H21_4 C36_4 1_555 1_555
H23_4 C38_4 1_555 1_555
C33_4 S2_4 1_555 1_555
O1_4 C1_4 1_555 1_555
C1_4 C4_4 1_555 1_555
C4_4 C7_4 1_555 1_555
C7_4 H5_4 1_555 1_555
C8_4 C4_4 1_555 1_555
C11_4 C8_4 1_555 1_555
H6_4 C8_4 1_555 1_555
H8_4 C11_4 1_555 1_555
C21_4 C17_4 1_555 1_555
C24_4 C21_4 1_555 1_555
C25_4 C21_4 1_555 1_555
C27_4 C24_4 1_555 1_555
C28_4 C24_4 1_555 1_555
C29_4 C25_4 1_555 1_555
F1_4 C25_4 1_555 1_555
F2_4 C25_4 1_555 1_555
C32_4 C27_4 1_555 1_555
F3_4 C28_4 1_555 1_555
F4_4 C28_4 1_555 1_555
F5_4 C29_4 1_555 1_555
F6_4 C29_4 1_555 1_555
C34_4 C32_4 1_555 1_555
H18_4 C34_4 1_555 1_555
H19_4 C34_4 1_555 1_555
H20_4 C34_4 1_555 1_555
C28_4 C29_4 1_555 1_555

#END
