
###############################################################################
#
# This file contains modified crystal structure data generated from the
# MOF subset of the Cambridge Structural Database (CSD) v543 
# hosted by the Cambridge Crystallographic Data Centre (CCDC).
#
# This work is licensed under the Creative Commons
# Attribution-NonCommercial-ShareAlike 4.0 International License.
# To view a copy of this license, visit
# http://creativecommons.org/licenses/by-nc-sa/4.0/
# or send a letter to
# Creative Commons, PO Box 1866, Mountain View, CA 94042, USA.
#
# CIF created using the CSD Python API on 29 September 2022
# The structure has been converted into the P1 space group
# The structure has a 3D framework
# The original CSD entry YOLKOB06 is in the orthorhombic crystal system
# The original CSD entry YOLKOB06 is in a Sohncke space group
# The framework has been calculated to contain at least 10.0% void space
# The void calculation uses a probe of radius 1.32A, grid spacing 0.4
#
###############################################################################

data_YOLKOB06
_chemical_formula_moiety         '(C156 H96 F24 N8 O16 S8 Zn4)n'
_symmetry_cell_setting           triclinic
_symmetry_space_group_name_H-M   'P 1'
_symmetry_Int_Tables_number      1
_space_group_name_Hall           'P 1'
loop_
_symmetry_equiv_pos_site_id
_symmetry_equiv_pos_as_xyz
1 x,y,z
_cell_length_a                   6.890(3)
_cell_length_b                   25.19(2)
_cell_length_c                   28.95(3)
_cell_angle_alpha                90
_cell_angle_beta                 90
_cell_angle_gamma                90
_cell_volume                     5024.54
loop_
_atom_site_label
_atom_site_type_symbol
_atom_site_fract_x
_atom_site_fract_y
_atom_site_fract_z
C16 C 0.062(4) 0.6301(15) 0.3154(11)
H8 H 0.1748 0.6338 0.3329
C17 C 0.008(5) 0.6699(12) 0.2848(13)
C26 C 0.313(6) 0.7145(14) 0.2923(14)
H15 H 0.3598 0.6814 0.3014
C27 C 0.441(4) 0.757(2) 0.2873(13)
H16 H 0.5723 0.7522 0.2931
C28 C 0.371(6) 0.8063(15) 0.2738(11)
C29 C 0.174(7) 0.8133(14) 0.2652(14)
H17 H 0.1278 0.8463 0.2561
C30 C 0.047(4) 0.7708(19) 0.2701(15)
C31 C 0.116(5) 0.7215(15) 0.2837(14)
C39 C 0.475(12) 0.858(2) 0.267(2)
O3 O 0.392(5) 0.905(2) 0.2574(18)
O4 O 0.675(5) 0.8566(11) 0.2718(13)
Zn3 Zn 0.5822(11) 0.9527(4) 0.2410(4)
N1 N 0.807(3) 0.9856(17) 0.2765(11)
C13 C 0.942(4) 0.9485(13) 0.2915(10)
H6 H 0.9209 0.9125 0.2863
C7 C 0.858(3) 0.8514(15) 0.0197(15)
H2 H 0.7272 0.8428 0.0213
C8 C 0.971(3) 0.8742(14) 0.0558(9)
C21 C 0.583(3) 0.8970(15) 0.1449(14)
H11 H 0.4526 0.8893 0.1495
N2 N 0.689(5) 0.9221(14) 0.1795(9)
C22 C 0.884(5) 0.9336(13) 0.1727(11)
H12 H 0.9549 0.9504 0.1958
C23 C 0.974(3) 0.9200(14) 0.1313(14)
C24 C 0.868(5) 0.8949(15) 0.0967(9)
C25 C 0.673(5) 0.8834(14) 0.1035(11)
H14 H 0.6019 0.8666 0.0804
O2 O 0.280(4) 0.9903(19) 0.1726(14)
Zn1 Zn 0.4178(11) 0.4527(4) 0.2590(4)
C3 C 0.018(5) 0.4023(8) 0.6186(13)
C4 C 0.092(3) 0.4535(10) 0.6081(11)
C6 C 0.019(5) 0.3440(17) 0.5191(10)
C7_2 C 0.142(3) 0.3514(15) 0.4803(15)
H2_2 H 0.2728 0.3428 0.4787
C8_2 C 0.029(3) 0.3742(14) 0.4442(9)
O1 O 0.532(5) 0.526(2) 0.2630(18)
C14 C 0.678(8) 0.5267(19) 0.294(2)
C15 C 0.949(5) 0.5848(16) 0.3199(14)
H7 H 0.9854 0.5581 0.3404
C18 C 0.840(5) 0.6644(13) 0.2587(15)
H9 H 0.8032 0.6910 0.2382
C19 C 0.726(4) 0.6190(13) 0.2632(12)
H10 H 0.6138 0.6154 0.2457
C20 C 0.781(4) 0.5792(13) 0.2938(13)
C21_2 C 0.417(3) 0.3970(15) 0.3551(14)
H11_2 H 0.5474 0.3893 0.3505
N2_2 N 0.311(5) 0.4221(14) 0.3205(9)
C22_2 C 0.116(5) 0.4336(13) 0.3273(11)
H12_2 H 0.0451 0.4504 0.3042
C23_2 C 0.026(3) 0.4200(14) 0.3687(14)
C24_2 C 0.132(5) 0.3949(15) 0.4033(9)
C25_2 C 0.327(5) 0.3834(14) 0.3965(11)
H14_2 H 0.3981 0.3666 0.4196
H18 H 0.9153 0.7755 0.2644
O2_2 O 0.720(4) 0.4903(19) 0.3274(14)
F1 F 0.055(4) 0.2335(15) 0.5538(12)
F2 F 0.348(4) 0.2603(13) 0.5358(11)
F3 F 0.428(5) 0.2671(16) 0.6271(12)
C32 C 0.218(7) 0.2630(16) 0.615(3)
C33 C 0.183(8) 0.275(3) 0.568(2)
C34 C 0.087(7) 0.325(3) 0.5659(14)
C35 C 0.061(5) 0.3435(12) 0.612(2)
C36 C 0.142(8) 0.305(3) 0.6422(10)
F4 F 0.010(5) 0.2797(16) 0.6652(14)
C37 C 0.272(5) 0.450(2) 0.5801(15)
H19 H 0.3778 0.4652 0.5974
H20 H 0.2547 0.4700 0.5520
H21 H 0.2993 0.4140 0.5730
F5 F 0.243(5) 0.3084(16) 0.6821(14)
F6 F 0.217(4) 0.2140(15) 0.6330(12)
N3 N 0.193(3) 0.4856(17) 0.2235(11)
O5 O 0.608(5) 0.405(2) 0.2426(18)
C9 C 0.162(3) 0.5394(16) 0.2157(12)
H3 H 0.2525 0.5642 0.2258
C13_2 C 0.058(4) 0.4485(13) 0.2085(10)
H6_2 H 0.0791 0.4125 0.2137
C16_2 C 0.938(4) 0.1301(15) 0.1846(11)
H8_2 H 0.8252 0.1338 0.1671
C17_2 C 0.992(5) 0.1699(12) 0.2152(13)
C26_2 C 0.687(6) 0.2145(14) 0.2077(14)
H15_2 H 0.6402 0.1814 0.1986
C27_2 C 0.559(4) 0.257(2) 0.2127(13)
H16_2 H 0.4277 0.2522 0.2069
C28_2 C 0.629(6) 0.3063(15) 0.2262(11)
C29_2 C 0.826(7) 0.3133(14) 0.2348(14)
H17_2 H 0.8722 0.3463 0.2439
C30_2 C 0.953(4) 0.2708(19) 0.2299(15)
C31_2 C 0.884(5) 0.2215(15) 0.2163(14)
C39_2 C 0.525(12) 0.358(2) 0.233(2)
O4_2 O 0.325(5) 0.3566(11) 0.2282(13)
S1 S 0.955(2) 0.4916(7) 0.6240(5)
C1 C 0.798(3) 0.4640(10) 0.6444(11)
C2 C 0.836(5) 0.4087(9) 0.6410(14)
H1 H 0.7566 0.3816 0.6517
S2 S 0.8369(18) 0.3808(7) 0.4608(6)
C5 C 0.830(4) 0.3622(15) 0.5070(7)
N1_2 N 0.307(3) 0.5144(17) 0.7235(11)
C9_2 C 0.338(3) 0.4606(16) 0.7157(12)
H3_2 H 0.2475 0.4358 0.7258
C10 C 0.505(4) 0.4440(11) 0.6928(12)
H4 H 0.5256 0.4080 0.6876
C11 C 0.640(4) 0.4811(11) 0.6778(12)
C12 C 0.608(4) 0.5349(11) 0.6856(11)
H5 H 0.6990 0.5597 0.6755
C13_3 C 0.442(4) 0.5515(13) 0.7085(10)
H6_3 H 0.4209 0.5875 0.7137
H13 H 0.8958 0.4277 0.3733
C38 C 0.681(6) 0.362(2) 0.5448(15)
H22 H 0.6792 0.3961 0.5596
H23 H 0.7128 0.3351 0.5670
H24 H 0.5555 0.3548 0.5318
Zn2 Zn 0.0822(11) 0.5473(4) 0.7590(4)
S2_2 S 0.6631(18) 0.6192(7) 0.9608(6)
C7_3 C 0.358(3) 0.6486(15) 0.9803(15)
H2_3 H 0.2272 0.6572 0.9787
C8_3 C 0.471(3) 0.6258(14) 0.9442(9)
C21_3 C 0.083(3) 0.6030(15) 0.8551(14)
N2_3 N 0.189(5) 0.5779(14) 0.8205(9)
C22_3 C 0.384(5) 0.5664(13) 0.8273(11)
H12_3 H 0.4549 0.5496 0.8042
C23_3 C 0.474(3) 0.5800(14) 0.8687(14)
H13_2 H 0.6042 0.5723 0.8733
C24_3 C 0.368(5) 0.6051(15) 0.9033(9)
C25_3 C 0.173(5) 0.6166(14) 0.8965(11)
H14_3 H 0.1019 0.6334 0.9196
H16_3 H 0.0723 0.7478 0.7069
O4_3 O 0.175(5) 0.6434(11) 0.7282(13)
S1_2 S 0.545(2) 0.5084(7) 0.1240(5)
C1_2 C 0.702(3) 0.5360(10) 0.1444(11)
C2_2 C 0.664(5) 0.5913(9) 0.1410(14)
H1_2 H 0.7434 0.6184 0.1517
C3_2 C 0.482(5) 0.5977(8) 0.1186(13)
C4_2 C 0.408(3) 0.5465(10) 0.1081(11)
C5_2 C 0.670(4) 0.6378(15) 0.0070(7)
C6_2 C 0.481(5) 0.6560(17) 0.0191(10)
C10_2 C 0.995(4) 0.5560(11) 0.1928(12)
H4_2 H 0.9744 0.5920 0.1876
C11_2 C 0.860(4) 0.5189(11) 0.1778(12)
C12_2 C 0.892(4) 0.4651(11) 0.1856(11)
H5_2 H 0.8010 0.4403 0.1755
F1_2 F 0.445(4) 0.7665(15) 0.0538(12)
F2_2 F 0.152(4) 0.7397(13) 0.0358(11)
F3_2 F 0.072(5) 0.7329(16) 0.1271(12)
C32_2 C 0.282(7) 0.7370(16) 0.115(3)
C33_2 C 0.317(8) 0.725(3) 0.068(2)
C34_2 C 0.413(7) 0.675(3) 0.0659(14)
C35_2 C 0.439(5) 0.6565(12) 0.112(2)
C36_2 C 0.358(8) 0.695(3) 0.1422(10)
F4_2 F 0.490(5) 0.7203(16) 0.1652(14)
C37_2 C 0.228(5) 0.550(2) 0.0801(15)
H19_2 H 0.1222 0.5348 0.0974
H20_2 H 0.2453 0.5300 0.0520
H21_2 H 0.2007 0.5860 0.0730
C38_2 C 0.819(6) 0.638(2) 0.0448(15)
H22_2 H 0.8208 0.6039 0.0596
H23_2 H 0.7872 0.6649 0.0670
H24_2 H 0.9445 0.6452 0.0318
F5_2 F 0.257(5) 0.6916(16) 0.1821(14)
F6_2 F 0.283(4) 0.7860(15) 0.1330(12)
O1_2 O 0.968(5) 0.474(2) 0.7630(18)
C14_2 C 0.822(8) 0.4733(19) 0.794(2)
C15_2 C 0.551(5) 0.4152(16) 0.8199(14)
H7_2 H 0.5146 0.4419 0.8404
C16_3 C 0.438(4) 0.3699(15) 0.8154(11)
H8_3 H 0.3252 0.3662 0.8329
C17_3 C 0.492(5) 0.3301(12) 0.7848(13)
C18_2 C 0.660(5) 0.3356(13) 0.7587(15)
H9_2 H 0.6968 0.3090 0.7382
C19_2 C 0.774(4) 0.3810(13) 0.7632(12)
H10_2 H 0.8862 0.3846 0.7457
C20_2 C 0.719(4) 0.4208(13) 0.7938(13)
H11_3 H 0.9526 0.6107 0.8505
C26_3 C 0.187(6) 0.2855(14) 0.7923(14)
H15_3 H 0.1402 0.3186 0.8014
C27_3 C 0.059(4) 0.243(2) 0.7873(13)
C28_3 C 0.129(6) 0.1937(15) 0.7738(11)
C29_3 C 0.326(7) 0.1867(14) 0.7652(14)
H17_3 H 0.3722 0.1537 0.7561
C30_3 C 0.453(4) 0.2292(19) 0.7701(15)
H18_2 H 0.5847 0.2245 0.7644
C31_3 C 0.384(5) 0.2785(15) 0.7837(14)
O2_3 O 0.780(4) 0.5097(19) 0.8274(14)
C39_3 C 0.025(12) 0.142(2) 0.767(2)
O3_2 O 0.108(5) 0.095(2) 0.7574(18)
O5_2 O 0.892(5) 0.595(2) 0.7426(18)
H11_4 H 0.0474 0.1107 0.6495
O2_4 O 0.220(4) 0.0097(19) 0.6726(14)
O1_3 O 0.032(5) 0.974(2) 0.7370(18)
C14_3 C 0.178(8) 0.9733(19) 0.706(2)
C15_3 C 0.449(5) 0.9152(16) 0.6801(14)
H7_3 H 0.4854 0.9419 0.6596
C16_4 C 0.562(4) 0.8699(15) 0.6846(11)
H8_4 H 0.6748 0.8662 0.6671
C17_4 C 0.508(5) 0.8301(12) 0.7152(13)
C18_3 C 0.340(5) 0.8356(13) 0.7413(15)
H9_3 H 0.3032 0.8090 0.7618
C19_3 C 0.226(4) 0.8810(13) 0.7368(12)
H10_3 H 0.1138 0.8846 0.7543
C20_3 C 0.281(4) 0.9208(13) 0.7062(13)
C26_4 C 0.813(6) 0.7855(14) 0.7077(14)
H15_4 H 0.8598 0.8186 0.6986
C27_4 C 0.941(4) 0.743(2) 0.7127(13)
C28_4 C 0.871(6) 0.6937(15) 0.7262(11)
C29_4 C 0.674(7) 0.6867(14) 0.7348(14)
H17_4 H 0.6278 0.6537 0.7439
C30_4 C 0.547(4) 0.7292(19) 0.7299(15)
H18_3 H 0.4153 0.7245 0.7356
C31_4 C 0.616(5) 0.7785(15) 0.7163(14)
C39_4 C 0.975(12) 0.642(2) 0.733(2)
H16_4 H 0.9277 0.2478 0.7931
O4_4 O 0.825(5) 0.1434(11) 0.7718(13)
Zn3_2 Zn 0.9178(11) 0.0473(4) 0.7410(4)
S1_3 S 0.455(2) 0.0084(7) 0.3760(5)
C1_3 C 0.298(3) 0.0360(10) 0.3556(11)
C2_3 C 0.336(5) 0.0913(9) 0.3590(14)
H1_3 H 0.2566 0.1184 0.3483
C3_3 C 0.518(5) 0.0977(8) 0.3814(13)
C4_3 C 0.592(3) 0.0465(10) 0.3919(11)
S2_3 S 0.3369(18) 0.1192(7) 0.5392(6)
C5_3 C 0.330(4) 0.1378(15) 0.4930(7)
C6_3 C 0.519(5) 0.1560(17) 0.4809(10)
C7_4 C 0.642(3) 0.1486(15) 0.5197(15)
H2_4 H 0.7728 0.1572 0.5213
C8_4 C 0.529(3) 0.1258(14) 0.5558(9)
C10_3 C 0.005(4) 0.0560(11) 0.3072(12)
H4_3 H 0.0256 0.0920 0.3124
C11_3 C 0.140(4) 0.0189(11) 0.3222(12)
C21_4 C 0.917(3) 0.1030(15) 0.6449(14)
N2_4 N 0.811(5) 0.0779(14) 0.6795(9)
C22_4 C 0.616(5) 0.0664(13) 0.6727(11)
H12_4 H 0.5451 0.0496 0.6958
C23_4 C 0.526(3) 0.0800(14) 0.6313(14)
H13_3 H 0.3958 0.0723 0.6267
C24_4 C 0.632(5) 0.1051(15) 0.5967(9)
C25_4 C 0.827(5) 0.1166(14) 0.6035(11)
H14_4 H 0.8981 0.1334 0.5804
F1_3 F 0.555(4) 0.2665(15) 0.4462(12)
F2_3 F 0.848(4) 0.2397(13) 0.4642(11)
F3_3 F 0.928(5) 0.2329(16) 0.3729(12)
C32_3 C 0.718(7) 0.2370(16) 0.385(3)
C33_3 C 0.683(8) 0.225(3) 0.432(2)
C34_3 C 0.587(7) 0.175(3) 0.4341(14)
C35_3 C 0.561(5) 0.1565(12) 0.388(2)
C36_3 C 0.642(8) 0.195(3) 0.3578(10)
F4_3 F 0.510(5) 0.2203(16) 0.3348(14)
C37_3 C 0.772(5) 0.050(2) 0.4199(15)
H19_3 H 0.8778 0.0348 0.4026
H20_3 H 0.7547 0.0300 0.4480
H21_3 H 0.7993 0.0860 0.4270
C38_3 C 0.181(6) 0.138(2) 0.4552(15)
H22_3 H 0.1792 0.1039 0.4404
H23_3 H 0.2128 0.1649 0.4330
H24_3 H 0.0555 0.1452 0.4682
F5_3 F 0.743(5) 0.1916(16) 0.3179(14)
F6_3 F 0.717(4) 0.2860(15) 0.3670(12)
N3_2 N 0.693(3) 0.0144(17) 0.7765(11)
C12_3 C 0.392(4) 0.0349(11) 0.8144(11)
H5_3 H 0.3010 0.0597 0.8245
C13_4 C 0.558(4) 0.0515(13) 0.7915(10)
H6_4 H 0.5791 0.0875 0.7863
C12_4 C 0.108(4) 0.9651(11) 0.3144(11)
H5_4 H 0.1990 0.9403 0.3245
C9_3 C 0.838(3) 0.0394(16) 0.2843(12)
H3_3 H 0.7475 0.0642 0.2742
S2_4 S 0.1631(18) 0.8808(7) 0.0392(6)
H13_4 H 0.1042 0.9277 0.1267
S1_4 S 0.045(2) 0.9916(7) 0.8760(5)
C1_4 C 0.202(3) 0.9640(10) 0.8556(11)
C2_4 C 0.164(5) 0.9087(9) 0.8590(14)
H1_4 H 0.2434 0.8816 0.8483
C5_4 C 0.170(4) 0.8622(15) 0.9930(7)
C9_4 C 0.662(3) 0.9606(16) 0.7843(12)
H3_4 H 0.7525 0.9358 0.7742
C10_4 C 0.495(4) 0.9440(11) 0.8072(12)
H4_4 H 0.4744 0.9080 0.8124
C11_4 C 0.360(4) 0.9811(11) 0.8222(12)
C38_4 C 0.319(6) 0.862(2) 0.9552(15)
H22_4 H 0.3208 0.8961 0.9404
H23_4 H 0.2872 0.8351 0.9330
H24_4 H 0.4445 0.8548 0.9682
O1_4 O 0.468(5) 0.026(2) 0.2370(18)
C14_4 C 0.322(8) 0.0267(19) 0.206(2)
C15_4 C 0.051(5) 0.0848(16) 0.1801(14)
H7_4 H 0.0146 0.0581 0.1596
C18_4 C 0.160(5) 0.1644(13) 0.2413(15)
H9_4 H 0.1968 0.1910 0.2618
C19_4 C 0.274(4) 0.1190(13) 0.2368(12)
H10_4 H 0.3862 0.1154 0.2543
C20_4 C 0.219(4) 0.0792(13) 0.2062(13)
H18_4 H 0.0847 0.2755 0.2356
C3_4 C 0.982(5) 0.9023(8) 0.8814(13)
C4_4 C 0.908(3) 0.9535(10) 0.8919(11)
C6_4 C 0.981(5) 0.8440(17) 0.9809(10)
F1_4 F 0.945(4) 0.7335(15) 0.9462(12)
F2_4 F 0.652(4) 0.7603(13) 0.9642(11)
F3_4 F 0.572(5) 0.7671(16) 0.8729(12)
C32_4 C 0.782(7) 0.7630(16) 0.885(3)
C33_4 C 0.817(8) 0.775(3) 0.932(2)
C34_4 C 0.913(7) 0.825(3) 0.9341(14)
C35_4 C 0.939(5) 0.8435(12) 0.888(2)
C36_4 C 0.858(8) 0.805(3) 0.8578(10)
F4_4 F 0.990(5) 0.7797(16) 0.8348(14)
C37_4 C 0.728(5) 0.950(2) 0.9199(15)
H19_4 H 0.6222 0.9652 0.9026
H20_4 H 0.7453 0.9700 0.9480
H21_4 H 0.7007 0.9140 0.9270
F5_4 F 0.757(5) 0.8084(16) 0.8179(14)
F6_4 F 0.783(4) 0.7140(15) 0.8670(12)
loop_
_geom_bond_atom_site_label_1
_geom_bond_atom_site_label_2
_geom_bond_site_symmetry_1
_geom_bond_site_symmetry_2
H8 C16 1_555 1_555
C17 C16 1_555 1_555
C26 H15 1_555 1_555
C27 C26 1_555 1_555
H16 C27 1_555 1_555
C28 C27 1_555 1_555
C29 C28 1_555 1_555
H17 C29 1_555 1_555
C30 C29 1_555 1_555
C31 C17 1_555 1_555
C39 C28 1_555 1_555
O3 C39 1_555 1_555
O4 C39 1_555 1_555
Zn3 O3 1_555 1_555
C26 C31 1_555 1_555
C30 C31 1_555 1_555
C13 N1 1_555 1_555
H6 C13 1_555 1_555
Zn3 N1 1_555 1_555
C7 H2 1_555 1_555
C21 H11 1_555 1_555
N2 Zn3 1_555 1_555
C22 N2 1_555 1_555
H12 C22 1_555 1_555
C23 C22 1_555 1_555
C24 C8 1_555 1_555
C25 C21 1_555 1_555
H14 C25 1_555 1_555
C7 C8 1_555 1_555
C21 N2 1_555 1_555
C23 C24 1_555 1_555
C24 C25 1_555 1_555
Zn1 O1 1_555 1_555
C6 C7_2 1_555 1_555
C7_2 H2_2 1_555 1_555
O1 C14 1_555 1_555
C14 C20 1_555 1_555
C15 H7 1_555 1_555
H9 C18 1_555 1_555
C19 C18 1_555 1_555
H10 C19 1_555 1_555
C20 C15 1_555 1_555
C21_2 H11_2 1_555 1_555
N2_2 Zn1 1_555 1_555
C22_2 N2_2 1_555 1_555
H12_2 C22_2 1_555 1_555
C23_2 C22_2 1_555 1_555
C24_2 C8_2 1_555 1_555
C25_2 C21_2 1_555 1_555
H14_2 C25_2 1_555 1_555
O2_2 C14 1_555 1_555
F1 C33 1_555 1_555
F2 C33 1_555 1_555
F3 C32 1_555 1_555
C32 C33 1_555 1_555
C33 C34 1_555 1_555
C34 C6 1_555 1_555
C35 C3 1_555 1_555
C36 C32 1_555 1_555
F4 C36 1_555 1_555
C37 C4 1_555 1_555
H19 C37 1_555 1_555
H20 C37 1_555 1_555
H21 C37 1_555 1_555
F5 C36 1_555 1_555
F6 C32 1_555 1_555
N3 Zn1 1_555 1_555
O5 Zn1 1_555 1_555
C3 C4 1_555 1_555
C7_2 C8_2 1_555 1_555
C19 C20 1_555 1_555
C21_2 N2_2 1_555 1_555
C23_2 C24_2 1_555 1_555
C24_2 C25_2 1_555 1_555
C34 C35 1_555 1_555
C35 C36 1_555 1_555
N3 C9 1_555 1_555
C9 H3 1_555 1_555
C13_2 N3 1_555 1_555
H6_2 C13_2 1_555 1_555
H8_2 C16_2 1_555 1_555
C17_2 C16_2 1_555 1_555
C26_2 H15_2 1_555 1_555
C27_2 C26_2 1_555 1_555
H16_2 C27_2 1_555 1_555
C28_2 C27_2 1_555 1_555
C29_2 C28_2 1_555 1_555
H17_2 C29_2 1_555 1_555
C30_2 C29_2 1_555 1_555
C31_2 C17_2 1_555 1_555
C39_2 C28_2 1_555 1_555
O5 C39_2 1_555 1_555
O4_2 C39_2 1_555 1_555
C26_2 C31_2 1_555 1_555
C30_2 C31_2 1_555 1_555
S1 C1 1_555 1_555
C1 C2 1_555 1_555
C2 H1 1_555 1_555
S2 C5 1_555 1_555
N1_2 C9_2 1_555 1_555
C9_2 H3_2 1_555 1_555
C10 C9_2 1_555 1_555
H4 C10 1_555 1_555
C11 C1 1_555 1_555
C12 C11 1_555 1_555
H5 C12 1_555 1_555
C13_3 N1_2 1_555 1_555
H6_3 C13_3 1_555 1_555
C38 C5 1_555 1_555
H22 C38 1_555 1_555
H23 C38 1_555 1_555
H24 C38 1_555 1_555
Zn2 N1_2 1_555 1_555
C10 C11 1_555 1_555
C12 C13_3 1_555 1_555
C7_3 H2_3 1_555 1_555
C8_3 S2_2 1_555 1_555
N2_3 Zn2 1_555 1_555
C22_3 N2_3 1_555 1_555
H12_3 C22_3 1_555 1_555
C23_3 C22_3 1_555 1_555
H13_2 C23_3 1_555 1_555
C24_3 C8_3 1_555 1_555
C25_3 C21_3 1_555 1_555
H14_3 C25_3 1_555 1_555
C7_3 C8_3 1_555 1_555
C21_3 N2_3 1_555 1_555
C23_3 C24_3 1_555 1_555
C24_3 C25_3 1_555 1_555
S1_2 C1_2 1_555 1_555
C1_2 C2_2 1_555 1_555
C2_2 H1_2 1_555 1_555
C3_2 C2_2 1_555 1_555
C4_2 S1_2 1_555 1_555
C5_2 C6_2 1_555 1_555
H4_2 C10_2 1_555 1_555
C11_2 C1_2 1_555 1_555
C12_2 C11_2 1_555 1_555
H5_2 C12_2 1_555 1_555
F1_2 C33_2 1_555 1_555
F2_2 C33_2 1_555 1_555
F3_2 C32_2 1_555 1_555
C32_2 C33_2 1_555 1_555
C33_2 C34_2 1_555 1_555
C34_2 C6_2 1_555 1_555
C35_2 C3_2 1_555 1_555
C36_2 C32_2 1_555 1_555
F4_2 C36_2 1_555 1_555
C37_2 C4_2 1_555 1_555
H19_2 C37_2 1_555 1_555
H20_2 C37_2 1_555 1_555
H21_2 C37_2 1_555 1_555
C38_2 C5_2 1_555 1_555
H22_2 C38_2 1_555 1_555
H23_2 C38_2 1_555 1_555
H24_2 C38_2 1_555 1_555
F5_2 C36_2 1_555 1_555
F6_2 C32_2 1_555 1_555
C3_2 C4_2 1_555 1_555
C10_2 C11_2 1_555 1_555
C34_2 C35_2 1_555 1_555
C35_2 C36_2 1_555 1_555
O1_2 C14_2 1_555 1_555
C14_2 C20_2 1_555 1_555
C15_2 H7_2 1_555 1_555
C16_3 C15_2 1_555 1_555
H8_3 C16_3 1_555 1_555
C17_3 C16_3 1_555 1_555
C18_2 C17_3 1_555 1_555
H9_2 C18_2 1_555 1_555
C19_2 C18_2 1_555 1_555
H10_2 C19_2 1_555 1_555
C20_2 C15_2 1_555 1_555
C26_3 H15_3 1_555 1_555
C27_3 C26_3 1_555 1_555
C28_3 C27_3 1_555 1_555
C29_3 C28_3 1_555 1_555
H17_3 C29_3 1_555 1_555
C30_3 C29_3 1_555 1_555
H18_2 C30_3 1_555 1_555
C31_3 C17_3 1_555 1_555
O2_3 C14_2 1_555 1_555
C39_3 C28_3 1_555 1_555
O3_2 C39_3 1_555 1_555
C19_2 C20_2 1_555 1_555
C26_3 C31_3 1_555 1_555
C30_3 C31_3 1_555 1_555
O1_3 C14_3 1_555 1_555
C14_3 C20_3 1_555 1_555
C15_3 H7_3 1_555 1_555
C16_4 C15_3 1_555 1_555
H8_4 C16_4 1_555 1_555
C17_4 C16_4 1_555 1_555
C18_3 C17_4 1_555 1_555
H9_3 C18_3 1_555 1_555
C19_3 C18_3 1_555 1_555
H10_3 C19_3 1_555 1_555
C20_3 C15_3 1_555 1_555
C26_4 H15_4 1_555 1_555
C27_4 C26_4 1_555 1_555
C28_4 C27_4 1_555 1_555
C29_4 C28_4 1_555 1_555
H17_4 C29_4 1_555 1_555
C30_4 C29_4 1_555 1_555
H18_3 C30_4 1_555 1_555
C31_4 C17_4 1_555 1_555
C39_4 C28_4 1_555 1_555
O5_2 C39_4 1_555 1_555
C19_3 C20_3 1_555 1_555
C26_4 C31_4 1_555 1_555
C30_4 C31_4 1_555 1_555
S1_3 C1_3 1_555 1_555
C1_3 C2_3 1_555 1_555
C2_3 H1_3 1_555 1_555
C3_3 C2_3 1_555 1_555
C4_3 S1_3 1_555 1_555
S2_3 C5_3 1_555 1_555
C5_3 C6_3 1_555 1_555
C6_3 C7_4 1_555 1_555
C7_4 H2_4 1_555 1_555
C8_4 S2_3 1_555 1_555
H4_3 C10_3 1_555 1_555
C11_3 C1_3 1_555 1_555
N2_4 Zn3_2 1_555 1_555
C22_4 N2_4 1_555 1_555
H12_4 C22_4 1_555 1_555
C23_4 C22_4 1_555 1_555
H13_3 C23_4 1_555 1_555
C24_4 C8_4 1_555 1_555
C25_4 C21_4 1_555 1_555
H14_4 C25_4 1_555 1_555
F1_3 C33_3 1_555 1_555
F2_3 C33_3 1_555 1_555
F3_3 C32_3 1_555 1_555
C32_3 C33_3 1_555 1_555
C33_3 C34_3 1_555 1_555
C34_3 C6_3 1_555 1_555
C35_3 C3_3 1_555 1_555
C36_3 C32_3 1_555 1_555
F4_3 C36_3 1_555 1_555
C37_3 C4_3 1_555 1_555
H19_3 C37_3 1_555 1_555
H20_3 C37_3 1_555 1_555
H21_3 C37_3 1_555 1_555
C38_3 C5_3 1_555 1_555
H22_3 C38_3 1_555 1_555
H23_3 C38_3 1_555 1_555
H24_3 C38_3 1_555 1_555
F5_3 C36_3 1_555 1_555
F6_3 C32_3 1_555 1_555
N3_2 Zn3_2 1_555 1_555
C3_3 C4_3 1_555 1_555
C7_4 C8_4 1_555 1_555
C10_3 C11_3 1_555 1_555
C21_4 N2_4 1_555 1_555
C23_4 C24_4 1_555 1_555
C24_4 C25_4 1_555 1_555
C34_3 C35_3 1_555 1_555
C35_3 C36_3 1_555 1_555
H5_3 C12_3 1_555 1_555
C13_4 N3_2 1_555 1_555
H6_4 C13_4 1_555 1_555
C12_3 C13_4 1_555 1_555
H5_4 C12_4 1_555 1_555
C9_3 H3_3 1_555 1_555
S1_4 C1_4 1_555 1_555
C1_4 C2_4 1_555 1_555
C2_4 H1_4 1_555 1_555
C9_4 H3_4 1_555 1_555
C10_4 C9_4 1_555 1_555
H4_4 C10_4 1_555 1_555
C11_4 C1_4 1_555 1_555
C38_4 C5_4 1_555 1_555
H22_4 C38_4 1_555 1_555
H23_4 C38_4 1_555 1_555
H24_4 C38_4 1_555 1_555
C10_4 C11_4 1_555 1_555
O1_4 C14_4 1_555 1_555
C14_4 C20_4 1_555 1_555
C15_4 H7_4 1_555 1_555
H9_4 C18_4 1_555 1_555
C19_4 C18_4 1_555 1_555
H10_4 C19_4 1_555 1_555
C20_4 C15_4 1_555 1_555
C19_4 C20_4 1_555 1_555
F1_4 C33_4 1_555 1_555
F2_4 C33_4 1_555 1_555
F3_4 C32_4 1_555 1_555
C32_4 C33_4 1_555 1_555
C33_4 C34_4 1_555 1_555
C34_4 C6_4 1_555 1_555
C35_4 C3_4 1_555 1_555
C36_4 C32_4 1_555 1_555
F4_4 C36_4 1_555 1_555
C37_4 C4_4 1_555 1_555
H19_4 C37_4 1_555 1_555
H20_4 C37_4 1_555 1_555
H21_4 C37_4 1_555 1_555
F5_4 C36_4 1_555 1_555
F6_4 C32_4 1_555 1_555
C3_4 C4_4 1_555 1_555
C34_4 C35_4 1_555 1_555
C35_4 C36_4 1_555 1_555

#END
