
###############################################################################
#
# This file contains modified crystal structure data generated from the
# MOF subset of the Cambridge Structural Database (CSD) v543 
# hosted by the Cambridge Crystallographic Data Centre (CCDC).
#
# This work is licensed under the Creative Commons
# Attribution-NonCommercial-ShareAlike 4.0 International License.
# To view a copy of this license, visit
# http://creativecommons.org/licenses/by-nc-sa/4.0/
# or send a letter to
# Creative Commons, PO Box 1866, Mountain View, CA 94042, USA.
#
# CIF created using the CSD Python API on 29 September 2022
# The structure has been converted into the P1 space group
# The structure has a 3D framework
# The original CSD entry YOLKOB04 is in the orthorhombic crystal system
# The original CSD entry YOLKOB04 is in a Sohncke space group
# The framework has been calculated to contain at least 10.0% void space
# The void calculation uses a probe of radius 1.32A, grid spacing 0.4
#
###############################################################################

data_YOLKOB04
_chemical_formula_moiety         '(C156 H96 F24 N8 O16 S8 Zn4)n'
_symmetry_cell_setting           triclinic
_symmetry_space_group_name_H-M   'P 1'
_symmetry_Int_Tables_number      1
_space_group_name_Hall           'P 1'
loop_
_symmetry_equiv_pos_site_id
_symmetry_equiv_pos_as_xyz
1 x,y,z
_cell_length_a                   6.8072(17)
_cell_length_b                   25.266(16)
_cell_length_c                   28.63(3)
_cell_angle_alpha                90
_cell_angle_beta                 90
_cell_angle_gamma                90
_cell_volume                     4924.09
loop_
_atom_site_label
_atom_site_type_symbol
_atom_site_fract_x
_atom_site_fract_y
_atom_site_fract_z
H7 H 0.0106 0.5622 0.3506
C16 C 0.080(6) 0.630(3) 0.316(2)
H8 H 0.1987 0.6357 0.3315
C17 C 0.015(9) 0.665(2) 0.282(3)
C26 C 0.325(9) 0.714(2) 0.294(3)
H15 H 0.3834 0.6829 0.3039
C27 C 0.435(5) 0.761(3) 0.293(3)
H16 H 0.5660 0.7604 0.3016
C28 C 0.348(9) 0.808(2) 0.278(3)
C29 C 0.151(9) 0.808(2) 0.265(3)
H17 H 0.0930 0.8395 0.2550
C30 C 0.042(5) 0.762(3) 0.266(3)
C31 C 0.129(9) 0.715(2) 0.281(3)
C39 C 0.482(18) 0.853(4) 0.265(6)
O3 O 0.376(8) 0.888(4) 0.245(4)
O4 O 0.678(8) 0.851(3) 0.275(3)
Zn3 Zn 0.5824(16) 0.9517(5) 0.2413(5)
N1 N 0.800(6) 0.986(3) 0.284(2)
C13 C 0.940(10) 0.952(2) 0.303(2)
H6 H 0.9190 0.9151 0.3022
C7 C 0.846(4) 0.852(2) 0.0160(17)
H2 H 0.7131 0.8440 0.0161
C8 C 0.952(3) 0.877(2) 0.0527(13)
C21 C 0.587(6) 0.890(2) 0.151(2)
H11 H 0.4585 0.8801 0.1574
N2 N 0.698(10) 0.916(2) 0.1843(16)
C22 C 0.890(9) 0.931(2) 0.175(2)
H12 H 0.9647 0.9486 0.1969
C23 C 0.972(5) 0.919(2) 0.131(2)
C24 C 0.861(7) 0.893(2) 0.0977(16)
C25 C 0.669(7) 0.878(2) 0.108(2)
H14 H 0.5945 0.8606 0.0852
O2 O 0.267(8) 0.992(3) 0.169(3)
Zn1 Zn 0.4176(16) 0.4517(5) 0.2587(5)
C3 C 0.003(9) 0.3974(10) 0.618(3)
C4 C 0.088(7) 0.4456(13) 0.603(2)
C6 C 0.020(6) 0.342(2) 0.5210(14)
C7_2 C 0.154(4) 0.352(2) 0.4840(17)
H2_2 H 0.2869 0.3440 0.4839
C8_2 C 0.048(3) 0.377(2) 0.4473(13)
O1 O 0.554(7) 0.529(2) 0.266(3)
C14 C 0.674(11) 0.527(3) 0.301(3)
C15 C 0.967(10) 0.586(3) 0.328(2)
C18 C 0.837(10) 0.656(3) 0.260(2)
H9 H 0.7939 0.6794 0.2369
C19 C 0.725(6) 0.612(3) 0.271(2)
H10 H 0.6058 0.6059 0.2560
C20 C 0.790(9) 0.577(2) 0.305(3)
C21_2 C 0.413(6) 0.390(2) 0.349(2)
H11_2 H 0.5415 0.3801 0.3426
N2_2 N 0.302(10) 0.416(2) 0.3157(16)
C22_2 C 0.110(9) 0.431(2) 0.325(2)
H12_2 H 0.0353 0.4486 0.3031
C23_2 C 0.028(5) 0.419(2) 0.369(2)
C24_2 C 0.139(7) 0.393(2) 0.4023(16)
C25_2 C 0.331(7) 0.378(2) 0.392(2)
H14_2 H 0.4055 0.3606 0.4148
H18 H 0.9103 0.7621 0.2573
O2_2 O 0.733(8) 0.492(3) 0.331(3)
F1 F 0.057(7) 0.233(2) 0.5551(19)
F2 F 0.355(6) 0.254(2) 0.5427(19)
C32 C 0.084(8) 0.3420(19) 0.612(4)
C33 C 0.158(12) 0.303(4) 0.6431(14)
C34 C 0.229(11) 0.260(2) 0.616(4)
C35 C 0.199(12) 0.272(4) 0.568(3)
C36 C 0.110(10) 0.323(4) 0.566(2)
F3 F 0.446(9) 0.259(2) 0.630(2)
F4 F 0.012(7) 0.281(2) 0.674(2)
C37 C 0.277(8) 0.448(3) 0.576(3)
H19 H 0.2489 0.4476 0.5427
H20 H 0.3578 0.4186 0.5837
H21 H 0.3442 0.4806 0.5832
F5 F 0.254(7) 0.323(2) 0.682(2)
F6 F 0.207(8) 0.211(2) 0.635(2)
N3 N 0.200(6) 0.486(3) 0.216(2)
O5 O 0.624(8) 0.388(4) 0.255(4)
C9 C 0.169(7) 0.540(3) 0.215(2)
H3 H 0.2619 0.5627 0.2277
C13_2 C 0.060(10) 0.452(2) 0.197(2)
H6_2 H 0.0810 0.4151 0.1978
H7_2 H 0.9894 0.0622 0.1494
C16_2 C 0.920(6) 0.130(3) 0.184(2)
H8_2 H 0.8013 0.1357 0.1685
C17_2 C 0.985(9) 0.165(2) 0.218(3)
C26_2 C 0.675(9) 0.214(2) 0.206(3)
H15_2 H 0.6166 0.1829 0.1961
C27_2 C 0.565(5) 0.261(3) 0.207(3)
H16_2 H 0.4340 0.2604 0.1984
C28_2 C 0.652(9) 0.308(2) 0.222(3)
C29_2 C 0.849(9) 0.308(2) 0.235(3)
H17_2 H 0.9070 0.3395 0.2450
C30_2 C 0.958(5) 0.262(3) 0.234(3)
C31_2 C 0.871(9) 0.215(2) 0.219(3)
C39_2 C 0.518(18) 0.353(4) 0.235(6)
O4_2 O 0.322(8) 0.351(3) 0.225(3)
S1 S 0.983(4) 0.4880(10) 0.6233(12)
C1 C 0.833(7) 0.4661(19) 0.652(2)
C2 C 0.845(9) 0.4101(18) 0.649(3)
H1 H 0.7644 0.3860 0.6640
S2 S 0.849(3) 0.3815(10) 0.4615(9)
C5 C 0.832(5) 0.360(2) 0.5071(11)
N1_2 N 0.300(6) 0.514(3) 0.716(2)
C9_2 C 0.331(7) 0.460(3) 0.715(2)
H3_2 H 0.2381 0.4373 0.7277
C10 C 0.501(9) 0.440(2) 0.695(2)
H4 H 0.5221 0.4034 0.6944
C11 C 0.641(7) 0.474(3) 0.676(2)
C12 C 0.610(9) 0.528(3) 0.677(2)
H5 H 0.7031 0.5509 0.6645
C13_3 C 0.440(10) 0.548(2) 0.697(2)
H6_3 H 0.4190 0.5849 0.6978
H13 H 0.8993 0.4291 0.3754
C38 C 0.651(8) 0.352(4) 0.535(2)
H22 H 0.6854 0.3379 0.5655
H23 H 0.5662 0.3268 0.5197
H24 H 0.5830 0.3847 0.5391
Zn2 Zn 0.0824(16) 0.5483(5) 0.7587(5)
S2_2 S 0.651(3) 0.6185(10) 0.9615(9)
C7_3 C 0.346(4) 0.648(2) 0.9840(17)
H2_3 H 0.2131 0.6560 0.9839
C8_3 C 0.452(3) 0.623(2) 0.9473(13)
C21_3 C 0.087(6) 0.610(2) 0.849(2)
N2_3 N 0.198(10) 0.584(2) 0.8157(16)
C22_3 C 0.390(9) 0.569(2) 0.825(2)
H12_3 H 0.4647 0.5514 0.8031
C23_3 C 0.472(5) 0.581(2) 0.869(2)
H13_2 H 0.6007 0.5709 0.8754
C24_3 C 0.361(7) 0.607(2) 0.9023(16)
C25_3 C 0.169(7) 0.622(2) 0.892(2)
H14_3 H 0.0945 0.6394 0.9148
H16_3 H 0.0660 0.7396 0.6984
O4_3 O 0.178(8) 0.649(3) 0.725(3)
S1_2 S 0.517(4) 0.5120(10) 0.1233(12)
C1_2 C 0.667(7) 0.5339(19) 0.152(2)
C2_2 C 0.655(9) 0.5899(18) 0.149(3)
H1_2 H 0.7356 0.6140 0.1640
C3_2 C 0.497(9) 0.6026(10) 0.118(3)
C4_2 C 0.412(7) 0.5544(13) 0.103(2)
C5_2 C 0.668(5) 0.640(2) 0.0071(11)
C6_2 C 0.480(6) 0.658(2) 0.0210(14)
C10_2 C 0.999(9) 0.560(2) 0.195(2)
H4_2 H 0.9779 0.5966 0.1944
C11_2 C 0.859(7) 0.526(3) 0.176(2)
C12_2 C 0.890(9) 0.472(3) 0.177(2)
H5_2 H 0.7969 0.4491 0.1645
F1_2 F 0.443(7) 0.767(2) 0.0551(19)
F2_2 F 0.145(6) 0.746(2) 0.0427(19)
C32_2 C 0.416(8) 0.6580(19) 0.112(4)
C33_2 C 0.342(12) 0.697(4) 0.1431(14)
C34_2 C 0.271(11) 0.740(2) 0.116(4)
C35_2 C 0.301(12) 0.728(4) 0.068(3)
C36_2 C 0.390(10) 0.677(4) 0.066(2)
F3_2 F 0.054(9) 0.741(2) 0.130(2)
F4_2 F 0.488(7) 0.719(2) 0.174(2)
C37_2 C 0.223(8) 0.552(3) 0.076(3)
H19_2 H 0.2511 0.5524 0.0427
H20_2 H 0.1422 0.5814 0.0837
H21_2 H 0.1558 0.5194 0.0832
C38_2 C 0.849(8) 0.648(4) 0.035(2)
H22_2 H 0.8146 0.6621 0.0655
H23_2 H 0.9338 0.6732 0.0197
H24_2 H 0.9170 0.6153 0.0391
F5_2 F 0.246(7) 0.677(2) 0.182(2)
F6_2 F 0.293(8) 0.789(2) 0.135(2)
O1_2 O 0.946(7) 0.471(2) 0.766(3)
C14_2 C 0.826(11) 0.473(3) 0.801(3)
C15_2 C 0.533(10) 0.414(3) 0.828(2)
H7_3 H 0.4894 0.4378 0.8506
C16_3 C 0.420(6) 0.370(3) 0.816(2)
H8_3 H 0.3013 0.3643 0.8315
C17_3 C 0.485(9) 0.335(2) 0.782(3)
C18_2 C 0.663(10) 0.344(3) 0.760(2)
H9_2 H 0.7061 0.3206 0.7369
C19_2 C 0.775(6) 0.388(3) 0.771(2)
H10_2 H 0.8942 0.3941 0.7560
C20_2 C 0.710(9) 0.423(2) 0.805(3)
H11_3 H 0.9585 0.6199 0.8426
C26_3 C 0.175(9) 0.286(2) 0.794(3)
H15_3 H 0.1166 0.3171 0.8039
C27_3 C 0.065(5) 0.239(3) 0.793(3)
C28_3 C 0.152(9) 0.192(2) 0.778(3)
C29_3 C 0.349(9) 0.192(2) 0.765(3)
H17_3 H 0.4070 0.1605 0.7550
C30_3 C 0.458(5) 0.238(3) 0.766(3)
H18_2 H 0.5897 0.2379 0.7573
C31_3 C 0.371(9) 0.285(2) 0.781(3)
O2_3 O 0.767(8) 0.508(3) 0.831(3)
C39_3 C 0.018(18) 0.147(4) 0.765(6)
O3_2 O 0.124(8) 0.112(4) 0.745(4)
O5_2 O 0.876(8) 0.612(4) 0.755(4)
H11_4 H 0.0415 0.1199 0.6574
O2_4 O 0.233(8) 0.008(3) 0.669(3)
O1_3 O 0.054(7) 0.971(2) 0.734(3)
C14_3 C 0.174(11) 0.973(3) 0.699(3)
C15_3 C 0.467(10) 0.914(3) 0.672(2)
H7_4 H 0.5106 0.9378 0.6494
C16_4 C 0.580(6) 0.870(3) 0.684(2)
H8_4 H 0.6987 0.8643 0.6685
C17_4 C 0.515(9) 0.835(2) 0.718(3)
C18_3 C 0.337(10) 0.844(3) 0.740(2)
H9_3 H 0.2939 0.8206 0.7631
C19_3 C 0.225(6) 0.888(3) 0.729(2)
H10_3 H 0.1058 0.8941 0.7440
C20_3 C 0.290(9) 0.923(2) 0.695(3)
C26_4 C 0.825(9) 0.786(2) 0.706(3)
H15_4 H 0.8834 0.8171 0.6961
C27_4 C 0.935(5) 0.739(3) 0.707(3)
C28_4 C 0.848(9) 0.692(2) 0.722(3)
C29_4 C 0.651(9) 0.692(2) 0.735(3)
H17_4 H 0.5930 0.6605 0.7450
C30_4 C 0.542(5) 0.738(3) 0.734(3)
H18_3 H 0.4103 0.7379 0.7427
C31_4 C 0.629(9) 0.785(2) 0.719(3)
C39_4 C 0.982(18) 0.647(4) 0.735(6)
H16_4 H 0.9340 0.2396 0.8016
O4_4 O 0.822(8) 0.149(3) 0.775(3)
Zn3_2 Zn 0.9176(16) 0.0483(5) 0.7413(5)
S1_3 S 0.483(4) 0.0120(10) 0.3767(12)
C1_3 C 0.333(7) 0.0339(19) 0.348(2)
C2_3 C 0.345(9) 0.0899(18) 0.351(3)
H1_3 H 0.2644 0.1140 0.3360
C3_3 C 0.503(9) 0.1026(10) 0.382(3)
C4_3 C 0.588(7) 0.0544(13) 0.397(2)
S2_3 S 0.349(3) 0.1185(10) 0.5385(9)
C5_3 C 0.332(5) 0.140(2) 0.4929(11)
C6_3 C 0.520(6) 0.158(2) 0.4790(14)
C7_4 C 0.654(4) 0.148(2) 0.5160(17)
H2_4 H 0.7869 0.1560 0.5161
C8_4 C 0.548(3) 0.123(2) 0.5527(13)
C10_3 C 0.001(9) 0.060(2) 0.305(2)
H4_3 H 0.0221 0.0966 0.3056
C11_3 C 0.141(7) 0.026(3) 0.324(2)
C21_4 C 0.913(6) 0.110(2) 0.651(2)
N2_4 N 0.802(10) 0.084(2) 0.6843(16)
C22_4 C 0.610(9) 0.069(2) 0.675(2)
H12_4 H 0.5353 0.0514 0.6969
C23_4 C 0.528(5) 0.081(2) 0.631(2)
H13_3 H 0.3993 0.0709 0.6246
C24_4 C 0.639(7) 0.107(2) 0.5977(16)
C25_4 C 0.831(7) 0.122(2) 0.608(2)
H14_4 H 0.9055 0.1394 0.5852
F1_3 F 0.557(7) 0.267(2) 0.4449(19)
F2_3 F 0.855(6) 0.246(2) 0.4573(19)
C32_3 C 0.584(8) 0.1580(19) 0.388(4)
C33_3 C 0.658(12) 0.197(4) 0.3569(14)
C34_3 C 0.729(11) 0.240(2) 0.384(4)
C35_3 C 0.699(12) 0.228(4) 0.432(3)
C36_3 C 0.610(10) 0.177(4) 0.434(2)
F3_3 F 0.946(9) 0.241(2) 0.370(2)
F4_3 F 0.512(7) 0.219(2) 0.326(2)
C37_3 C 0.777(8) 0.052(3) 0.424(3)
H19_3 H 0.7489 0.0524 0.4573
H20_3 H 0.8578 0.0814 0.4163
H21_3 H 0.8442 0.0194 0.4168
C38_3 C 0.151(8) 0.148(4) 0.465(2)
H22_3 H 0.1854 0.1621 0.4345
H23_3 H 0.0662 0.1732 0.4803
H24_3 H 0.0830 0.1153 0.4609
F5_3 F 0.754(7) 0.177(2) 0.318(2)
F6_3 F 0.707(8) 0.289(2) 0.365(2)
N3_2 N 0.700(6) 0.014(3) 0.784(2)
C12_3 C 0.390(9) 0.028(3) 0.823(2)
H5_3 H 0.2969 0.0509 0.8355
C13_4 C 0.560(10) 0.048(2) 0.803(2)
H6_4 H 0.5810 0.0849 0.8022
C12_4 C 0.110(9) 0.972(3) 0.323(2)
H5_4 H 0.2031 0.9491 0.3355
C9_3 C 0.831(7) 0.040(3) 0.285(2)
H3_3 H 0.7381 0.0627 0.2723
S2_4 S 0.151(3) 0.8815(10) 0.0385(9)
H13_4 H 0.1007 0.9291 0.1246
S1_4 S 0.017(4) 0.9880(10) 0.8767(12)
C1_4 C 0.167(7) 0.9661(19) 0.848(2)
C2_4 C 0.155(9) 0.9101(18) 0.851(3)
H1_4 H 0.2356 0.8860 0.8360
C5_4 C 0.168(5) 0.860(2) 0.9929(11)
C9_4 C 0.669(7) 0.960(3) 0.785(2)
H3_4 H 0.7619 0.9373 0.7723
C10_4 C 0.499(9) 0.940(2) 0.805(2)
H4_4 H 0.4779 0.9034 0.8056
C11_4 C 0.359(7) 0.974(3) 0.824(2)
C38_4 C 0.349(8) 0.852(4) 0.965(2)
H22_4 H 0.3146 0.8379 0.9345
H23_4 H 0.4338 0.8268 0.9803
H24_4 H 0.4170 0.8847 0.9609
O1_4 O 0.446(7) 0.029(2) 0.234(3)
C14_4 C 0.326(11) 0.027(3) 0.199(3)
C15_4 C 0.033(10) 0.086(3) 0.172(2)
C18_4 C 0.163(10) 0.156(3) 0.240(2)
H9_4 H 0.2061 0.1794 0.2631
C19_4 C 0.275(6) 0.112(3) 0.229(2)
H10_4 H 0.3942 0.1059 0.2440
C20_4 C 0.210(9) 0.077(2) 0.195(3)
H18_4 H 0.0897 0.2621 0.2427
C3_4 C 0.997(9) 0.8974(10) 0.882(3)
C4_4 C 0.912(7) 0.9456(13) 0.897(2)
C6_4 C 0.980(6) 0.842(2) 0.9790(14)
F1_4 F 0.943(7) 0.733(2) 0.9449(19)
F2_4 F 0.645(6) 0.754(2) 0.9573(19)
C32_4 C 0.916(8) 0.8420(19) 0.888(4)
C33_4 C 0.842(12) 0.803(4) 0.8569(14)
C34_4 C 0.771(11) 0.760(2) 0.884(4)
C35_4 C 0.801(12) 0.772(4) 0.932(3)
C36_4 C 0.890(10) 0.823(4) 0.934(2)
F3_4 F 0.554(9) 0.759(2) 0.870(2)
F4_4 F 0.988(7) 0.781(2) 0.826(2)
C37_4 C 0.723(8) 0.948(3) 0.924(3)
H19_4 H 0.7511 0.9476 0.9573
H20_4 H 0.6422 0.9186 0.9163
H21_4 H 0.6558 0.9806 0.9168
F5_4 F 0.746(7) 0.823(2) 0.818(2)
F6_4 F 0.793(8) 0.711(2) 0.865(2)
loop_
_geom_bond_atom_site_label_1
_geom_bond_atom_site_label_2
_geom_bond_site_symmetry_1
_geom_bond_site_symmetry_2
H8 C16 1_555 1_555
C17 C16 1_555 1_555
C26 H15 1_555 1_555
C27 C26 1_555 1_555
H16 C27 1_555 1_555
C28 C27 1_555 1_555
C29 C28 1_555 1_555
H17 C29 1_555 1_555
C30 C29 1_555 1_555
C31 C17 1_555 1_555
C39 C28 1_555 1_555
O3 C39 1_555 1_555
O4 C39 1_555 1_555
Zn3 O3 1_555 1_555
C26 C31 1_555 1_555
C30 C31 1_555 1_555
C13 N1 1_555 1_555
H6 C13 1_555 1_555
Zn3 N1 1_555 1_555
C7 H2 1_555 1_555
C21 H11 1_555 1_555
N2 Zn3 1_555 1_555
C22 N2 1_555 1_555
H12 C22 1_555 1_555
C23 C22 1_555 1_555
C24 C8 1_555 1_555
C25 C21 1_555 1_555
H14 C25 1_555 1_555
C7 C8 1_555 1_555
C21 N2 1_555 1_555
C23 C24 1_555 1_555
C24 C25 1_555 1_555
Zn1 O1 1_555 1_555
C6 C7_2 1_555 1_555
C7_2 H2_2 1_555 1_555
O1 C14 1_555 1_555
C14 C20 1_555 1_555
H9 C18 1_555 1_555
C19 C18 1_555 1_555
H10 C19 1_555 1_555
C20 C15 1_555 1_555
C21_2 H11_2 1_555 1_555
N2_2 Zn1 1_555 1_555
C22_2 N2_2 1_555 1_555
H12_2 C22_2 1_555 1_555
C23_2 C22_2 1_555 1_555
C24_2 C8_2 1_555 1_555
C25_2 C21_2 1_555 1_555
H14_2 C25_2 1_555 1_555
O2_2 C14 1_555 1_555
F1 C35 1_555 1_555
F2 C35 1_555 1_555
C32 C3 1_555 1_555
C33 C32 1_555 1_555
C34 C33 1_555 1_555
C35 C34 1_555 1_555
C36 C6 1_555 1_555
F3 C34 1_555 1_555
F4 C33 1_555 1_555
C37 C4 1_555 1_555
H19 C37 1_555 1_555
H20 C37 1_555 1_555
H21 C37 1_555 1_555
F5 C33 1_555 1_555
F6 C34 1_555 1_555
N3 Zn1 1_555 1_555
O5 Zn1 1_555 1_555
C3 C4 1_555 1_555
C7_2 C8_2 1_555 1_555
C19 C20 1_555 1_555
C21_2 N2_2 1_555 1_555
C23_2 C24_2 1_555 1_555
C24_2 C25_2 1_555 1_555
C32 C36 1_555 1_555
C35 C36 1_555 1_555
N3 C9 1_555 1_555
C9 H3 1_555 1_555
C13_2 N3 1_555 1_555
H6_2 C13_2 1_555 1_555
H8_2 C16_2 1_555 1_555
C17_2 C16_2 1_555 1_555
C26_2 H15_2 1_555 1_555
C27_2 C26_2 1_555 1_555
H16_2 C27_2 1_555 1_555
C28_2 C27_2 1_555 1_555
C29_2 C28_2 1_555 1_555
H17_2 C29_2 1_555 1_555
C30_2 C29_2 1_555 1_555
C31_2 C17_2 1_555 1_555
C39_2 C28_2 1_555 1_555
O5 C39_2 1_555 1_555
O4_2 C39_2 1_555 1_555
C26_2 C31_2 1_555 1_555
C30_2 C31_2 1_555 1_555
S1 C1 1_555 1_555
C1 C2 1_555 1_555
C2 H1 1_555 1_555
S2 C5 1_555 1_555
N1_2 C9_2 1_555 1_555
C9_2 H3_2 1_555 1_555
C10 C9_2 1_555 1_555
H4 C10 1_555 1_555
C11 C1 1_555 1_555
C12 C11 1_555 1_555
H5 C12 1_555 1_555
C13_3 N1_2 1_555 1_555
H6_3 C13_3 1_555 1_555
C38 C5 1_555 1_555
H22 C38 1_555 1_555
H23 C38 1_555 1_555
H24 C38 1_555 1_555
Zn2 N1_2 1_555 1_555
C10 C11 1_555 1_555
C12 C13_3 1_555 1_555
C7_3 H2_3 1_555 1_555
C8_3 S2_2 1_555 1_555
N2_3 Zn2 1_555 1_555
C22_3 N2_3 1_555 1_555
H12_3 C22_3 1_555 1_555
C23_3 C22_3 1_555 1_555
H13_2 C23_3 1_555 1_555
C24_3 C8_3 1_555 1_555
C25_3 C21_3 1_555 1_555
H14_3 C25_3 1_555 1_555
C7_3 C8_3 1_555 1_555
C21_3 N2_3 1_555 1_555
C23_3 C24_3 1_555 1_555
C24_3 C25_3 1_555 1_555
S1_2 C1_2 1_555 1_555
C1_2 C2_2 1_555 1_555
C2_2 H1_2 1_555 1_555
C3_2 C2_2 1_555 1_555
C4_2 S1_2 1_555 1_555
C5_2 C6_2 1_555 1_555
H4_2 C10_2 1_555 1_555
C11_2 C1_2 1_555 1_555
C12_2 C11_2 1_555 1_555
H5_2 C12_2 1_555 1_555
F1_2 C35_2 1_555 1_555
F2_2 C35_2 1_555 1_555
C32_2 C3_2 1_555 1_555
C33_2 C32_2 1_555 1_555
C34_2 C33_2 1_555 1_555
C35_2 C34_2 1_555 1_555
C36_2 C6_2 1_555 1_555
F3_2 C34_2 1_555 1_555
F4_2 C33_2 1_555 1_555
C37_2 C4_2 1_555 1_555
H19_2 C37_2 1_555 1_555
H20_2 C37_2 1_555 1_555
H21_2 C37_2 1_555 1_555
C38_2 C5_2 1_555 1_555
H22_2 C38_2 1_555 1_555
H23_2 C38_2 1_555 1_555
H24_2 C38_2 1_555 1_555
F5_2 C33_2 1_555 1_555
F6_2 C34_2 1_555 1_555
C3_2 C4_2 1_555 1_555
C10_2 C11_2 1_555 1_555
C32_2 C36_2 1_555 1_555
C35_2 C36_2 1_555 1_555
O1_2 C14_2 1_555 1_555
C14_2 C20_2 1_555 1_555
C15_2 H7_3 1_555 1_555
C16_3 C15_2 1_555 1_555
H8_3 C16_3 1_555 1_555
C17_3 C16_3 1_555 1_555
C18_2 C17_3 1_555 1_555
H9_2 C18_2 1_555 1_555
C19_2 C18_2 1_555 1_555
H10_2 C19_2 1_555 1_555
C20_2 C15_2 1_555 1_555
C26_3 H15_3 1_555 1_555
C27_3 C26_3 1_555 1_555
C28_3 C27_3 1_555 1_555
C29_3 C28_3 1_555 1_555
H17_3 C29_3 1_555 1_555
C30_3 C29_3 1_555 1_555
H18_2 C30_3 1_555 1_555
C31_3 C17_3 1_555 1_555
O2_3 C14_2 1_555 1_555
C39_3 C28_3 1_555 1_555
O3_2 C39_3 1_555 1_555
C19_2 C20_2 1_555 1_555
C26_3 C31_3 1_555 1_555
C30_3 C31_3 1_555 1_555
O1_3 C14_3 1_555 1_555
C14_3 C20_3 1_555 1_555
C15_3 H7_4 1_555 1_555
C16_4 C15_3 1_555 1_555
H8_4 C16_4 1_555 1_555
C17_4 C16_4 1_555 1_555
C18_3 C17_4 1_555 1_555
H9_3 C18_3 1_555 1_555
C19_3 C18_3 1_555 1_555
H10_3 C19_3 1_555 1_555
C20_3 C15_3 1_555 1_555
C26_4 H15_4 1_555 1_555
C27_4 C26_4 1_555 1_555
C28_4 C27_4 1_555 1_555
C29_4 C28_4 1_555 1_555
H17_4 C29_4 1_555 1_555
C30_4 C29_4 1_555 1_555
H18_3 C30_4 1_555 1_555
C31_4 C17_4 1_555 1_555
C39_4 C28_4 1_555 1_555
O5_2 C39_4 1_555 1_555
C19_3 C20_3 1_555 1_555
C26_4 C31_4 1_555 1_555
C30_4 C31_4 1_555 1_555
S1_3 C1_3 1_555 1_555
C1_3 C2_3 1_555 1_555
C2_3 H1_3 1_555 1_555
C3_3 C2_3 1_555 1_555
C4_3 S1_3 1_555 1_555
S2_3 C5_3 1_555 1_555
C5_3 C6_3 1_555 1_555
C6_3 C7_4 1_555 1_555
C7_4 H2_4 1_555 1_555
C8_4 S2_3 1_555 1_555
H4_3 C10_3 1_555 1_555
C11_3 C1_3 1_555 1_555
N2_4 Zn3_2 1_555 1_555
C22_4 N2_4 1_555 1_555
H12_4 C22_4 1_555 1_555
C23_4 C22_4 1_555 1_555
H13_3 C23_4 1_555 1_555
C24_4 C8_4 1_555 1_555
C25_4 C21_4 1_555 1_555
H14_4 C25_4 1_555 1_555
F1_3 C35_3 1_555 1_555
F2_3 C35_3 1_555 1_555
C32_3 C3_3 1_555 1_555
C33_3 C32_3 1_555 1_555
C34_3 C33_3 1_555 1_555
C35_3 C34_3 1_555 1_555
C36_3 C6_3 1_555 1_555
F3_3 C34_3 1_555 1_555
F4_3 C33_3 1_555 1_555
C37_3 C4_3 1_555 1_555
H19_3 C37_3 1_555 1_555
H20_3 C37_3 1_555 1_555
H21_3 C37_3 1_555 1_555
C38_3 C5_3 1_555 1_555
H22_3 C38_3 1_555 1_555
H23_3 C38_3 1_555 1_555
H24_3 C38_3 1_555 1_555
F5_3 C33_3 1_555 1_555
F6_3 C34_3 1_555 1_555
N3_2 Zn3_2 1_555 1_555
C3_3 C4_3 1_555 1_555
C7_4 C8_4 1_555 1_555
C10_3 C11_3 1_555 1_555
C21_4 N2_4 1_555 1_555
C23_4 C24_4 1_555 1_555
C24_4 C25_4 1_555 1_555
C32_3 C36_3 1_555 1_555
C35_3 C36_3 1_555 1_555
H5_3 C12_3 1_555 1_555
C13_4 N3_2 1_555 1_555
H6_4 C13_4 1_555 1_555
C12_3 C13_4 1_555 1_555
H5_4 C12_4 1_555 1_555
C9_3 H3_3 1_555 1_555
S1_4 C1_4 1_555 1_555
C1_4 C2_4 1_555 1_555
C2_4 H1_4 1_555 1_555
C9_4 H3_4 1_555 1_555
C10_4 C9_4 1_555 1_555
H4_4 C10_4 1_555 1_555
C11_4 C1_4 1_555 1_555
C38_4 C5_4 1_555 1_555
H22_4 C38_4 1_555 1_555
H23_4 C38_4 1_555 1_555
H24_4 C38_4 1_555 1_555
C10_4 C11_4 1_555 1_555
O1_4 C14_4 1_555 1_555
C14_4 C20_4 1_555 1_555
H9_4 C18_4 1_555 1_555
C19_4 C18_4 1_555 1_555
H10_4 C19_4 1_555 1_555
C20_4 C15_4 1_555 1_555
C19_4 C20_4 1_555 1_555
F1_4 C35_4 1_555 1_555
F2_4 C35_4 1_555 1_555
C32_4 C3_4 1_555 1_555
C33_4 C32_4 1_555 1_555
C34_4 C33_4 1_555 1_555
C35_4 C34_4 1_555 1_555
C36_4 C6_4 1_555 1_555
F3_4 C34_4 1_555 1_555
F4_4 C33_4 1_555 1_555
C37_4 C4_4 1_555 1_555
H19_4 C37_4 1_555 1_555
H20_4 C37_4 1_555 1_555
H21_4 C37_4 1_555 1_555
F5_4 C33_4 1_555 1_555
F6_4 C34_4 1_555 1_555
C3_4 C4_4 1_555 1_555
C32_4 C36_4 1_555 1_555
C35_4 C36_4 1_555 1_555

#END
