
###############################################################################
#
# This file contains modified crystal structure data generated from the
# MOF subset of the Cambridge Structural Database (CSD) v543 
# hosted by the Cambridge Crystallographic Data Centre (CCDC).
#
# This work is licensed under the Creative Commons
# Attribution-NonCommercial-ShareAlike 4.0 International License.
# To view a copy of this license, visit
# http://creativecommons.org/licenses/by-nc-sa/4.0/
# or send a letter to
# Creative Commons, PO Box 1866, Mountain View, CA 94042, USA.
#
# CIF created using the CSD Python API on 29 September 2022
# The structure has been converted into the P1 space group
# The structure has a 3D framework
# The original CSD entry YOLKUH03 is in the orthorhombic crystal system
# The original CSD entry YOLKUH03 is in a Sohncke space group
# The framework has been calculated to contain at least 10.0% void space
# The void calculation uses a probe of radius 1.32A, grid spacing 0.4
#
###############################################################################

data_YOLKUH03
_chemical_formula_moiety         '(C156 H96 F24 N8 O20 S8 Zn4)n'
_symmetry_cell_setting           triclinic
_symmetry_space_group_name_H-M   'P 1'
_symmetry_Int_Tables_number      1
_space_group_name_Hall           'P 1'
loop_
_symmetry_equiv_pos_site_id
_symmetry_equiv_pos_as_xyz
1 x,y,z
_cell_length_a                   7.1001(8)
_cell_length_b                   24.68(2)
_cell_length_c                   29.899(7)
_cell_angle_alpha                90
_cell_angle_beta                 90
_cell_angle_gamma                90
_cell_volume                     5239.22
loop_
_atom_site_label
_atom_site_type_symbol
_atom_site_fract_x
_atom_site_fract_y
_atom_site_fract_z
C12 C 0.065(3) 0.6383(18) 0.3087(9)
H7 H 0.1732 0.6403 0.3261
C13 C 0.025(4) 0.6789(14) 0.2779(12)
C22 C 0.322(7) 0.7192(15) 0.2795(9)
H14 H 0.3600 0.6859 0.2907
C23 C 0.454(4) 0.759(2) 0.2700(11)
H15 H 0.5816 0.7522 0.2749
C24 C 0.397(6) 0.8089(18) 0.2533(10)
C25 C 0.207(7) 0.8190(14) 0.2461(9)
H16 H 0.1685 0.8523 0.2348
C26 C 0.074(4) 0.779(2) 0.2555(11)
C27 C 0.131(5) 0.7294(17) 0.2723(11)
C39 C 0.505(6) 0.8595(19) 0.2581(17)
O3 O 0.430(4) 0.893(3) 0.2416(11)
O4 O 0.664(5) 0.8650(12) 0.2583(7)
Zn3 Zn 0.6096(10) 0.9610(6) 0.2263(2)
N1 N 0.813(3) 0.9959(16) 0.2675(7)
C9 C 0.954(3) 0.9571(14) 0.2711(9)
H5 H 0.9413 0.9240 0.2566
O1 O 0.507(6) 1.000(3) 0.2253(14)
C17 C 0.612(3) 0.9251(17) 0.1327(9)
H10 H 0.4825 0.9268 0.1370
N2 N 0.733(4) 0.9449(14) 0.1653(7)
C18 C 0.927(4) 0.9423(19) 0.1589(9)
C19 C 0.999(3) 0.920(2) 0.1199(11)
C20 C 0.878(4) 0.8999(18) 0.0873(8)
C21 C 0.684(4) 0.9026(16) 0.0938(8)
H13 H 0.6032 0.8893 0.0719
O2 O 0.302(3) 1.000(2) 0.1714(8)
C30 C 0.884(2) 0.865(2) 0.0133(12)
H18 H 0.7550 0.8589 0.0147
C31 C 0.997(2) 0.8865(18) 0.0483(8)
Zn1 Zn 0.3904(10) 0.4610(6) 0.2737(2)
C4 C 0.056(3) 0.4552(13) 0.6131(9)
O1_2 O 0.493(6) 0.500(3) 0.2747(14)
C10 C 0.672(8) 0.541(2) 0.2942(17)
C11 C 0.943(5) 0.5946(15) 0.3135(10)
H6 H 0.9695 0.5675 0.3341
C14 C 0.862(5) 0.6759(16) 0.2520(9)
H8 H 0.8356 0.7031 0.2314
C15 C 0.740(3) 0.6323(18) 0.2568(8)
H9 H 0.6319 0.6302 0.2395
C16 C 0.781(4) 0.5916(15) 0.2876(12)
C17_2 C 0.388(3) 0.4251(17) 0.3673(9)
H10_2 H 0.5175 0.4268 0.3630
N2_2 N 0.267(4) 0.4449(14) 0.3347(7)
C18_2 C 0.073(4) 0.4423(19) 0.3411(9)
C19_2 C 0.001(3) 0.420(2) 0.3801(11)
C20_2 C 0.122(4) 0.3999(18) 0.4127(8)
C21_2 C 0.316(4) 0.4026(16) 0.4062(8)
H13_2 H 0.3968 0.3893 0.4281
H17 H 0.9469 0.7860 0.2507
O2_2 O 0.698(3) 0.500(2) 0.3286(8)
C30_2 C 0.116(2) 0.365(2) 0.4867(12)
H18_2 H 0.2450 0.3589 0.4853
C31_2 C 0.003(2) 0.3865(18) 0.4517(8)
C32 C 0.056(5) 0.3245(19) 0.5670(9)
C33 C 0.029(5) 0.3435(13) 0.6113(12)
C34 C 0.096(6) 0.3031(16) 0.6412(8)
C35 C 0.164(6) 0.2590(15) 0.6153(14)
C36 C 0.140(6) 0.272(2) 0.5694(11)
F1 F 0.010(4) 0.223(2) 0.5504(10)
F2 F 0.318(4) 0.263(2) 0.5439(9)
F3 F 0.390(4) 0.267(2) 0.6227(9)
C37 C 0.246(4) 0.458(4) 0.5919(11)
H19 H 0.2560 0.4903 0.5746
H20 H 0.2629 0.4269 0.5728
H21 H 0.3406 0.4577 0.6148
F5 F 0.235(5) 0.325(3) 0.6747(11)
F6 F 0.188(5) 0.202(2) 0.6290(10)
N3 N 0.187(3) 0.4959(16) 0.2325(7)
O5 O 0.570(4) 0.393(3) 0.2584(11)
C5 C 0.168(3) 0.5454(14) 0.2108(10)
H2 H 0.2618 0.5714 0.2132
C6 C 0.007(3) 0.5561(13) 0.1856(10)
C9_2 C 0.046(3) 0.4571(14) 0.2289(9)
H5_2 H 0.0587 0.4240 0.2434
C12_2 C 0.935(3) 0.1383(18) 0.1913(9)
H7_2 H 0.8268 0.1403 0.1739
C13_2 C 0.975(4) 0.1789(14) 0.2221(12)
C22_2 C 0.678(7) 0.2192(15) 0.2205(9)
H14_2 H 0.6400 0.1859 0.2093
C23_2 C 0.546(4) 0.259(2) 0.2300(11)
H15_2 H 0.4184 0.2522 0.2251
C24_2 C 0.603(6) 0.3089(18) 0.2467(10)
C25_2 C 0.793(7) 0.3190(14) 0.2539(9)
H16_2 H 0.8315 0.3523 0.2652
C26_2 C 0.926(4) 0.279(2) 0.2445(11)
C27_2 C 0.869(5) 0.2294(17) 0.2277(11)
C39_2 C 0.495(6) 0.3595(19) 0.2419(17)
O4_2 O 0.336(5) 0.3650(12) 0.2417(7)
S1 S 0.940(2) 0.4916(11) 0.6376(5)
C1 C 0.797(3) 0.4609(10) 0.6591(9)
C2 C 0.824(3) 0.4055(10) 0.6479(11)
H1 H 0.7507 0.3766 0.6576
C3 C 0.984(4) 0.4020(12) 0.6195(11)
N1_2 N 0.313(3) 0.5041(16) 0.7325(7)
C5_2 C 0.332(3) 0.4546(14) 0.7108(10)
H2_2 H 0.2382 0.4286 0.7132
C6_2 C 0.493(3) 0.4439(13) 0.6856(10)
H3 H 0.5055 0.4108 0.6711
C7 C 0.634(2) 0.4827(14) 0.6820(8)
C8 C 0.614(3) 0.5323(13) 0.7037(9)
H4 H 0.7087 0.5582 0.7013
C9_3 C 0.454(3) 0.5429(14) 0.7289(9)
H5_3 H 0.4413 0.5760 0.7434
H11 H 0.9917 0.4556 0.3193
H12 H 0.8710 0.4180 0.3844
C28 C 0.811(3) 0.3704(19) 0.5122(7)
C29 C 0.998(4) 0.355(2) 0.5241(10)
S2 S 0.8144(16) 0.3897(9) 0.4675(4)
F4 F 0.979(4) 0.267(2) 0.6692(8)
C38 C 0.646(6) 0.391(3) 0.5381(14)
H22 H 0.6860 0.4202 0.5573
H23 H 0.5943 0.3625 0.5559
H24 H 0.5519 0.4043 0.5178
Zn2 Zn 0.1096(10) 0.5390(6) 0.7737(2)
O1_3 O 0.007(6) 0.500(3) 0.7747(14)
C17_3 C 0.112(3) 0.5749(17) 0.8673(9)
N2_3 N 0.233(4) 0.5551(14) 0.8347(7)
C18_3 C 0.427(4) 0.5577(19) 0.8411(9)
H11_2 H 0.5083 0.5444 0.8193
C19_3 C 0.499(3) 0.580(2) 0.8801(11)
H12_2 H 0.6290 0.5820 0.8844
C20_3 C 0.378(4) 0.6001(18) 0.9127(8)
C21_3 C 0.184(4) 0.5974(16) 0.9062(8)
H13_3 H 0.1032 0.6107 0.9281
C30_3 C 0.384(2) 0.635(2) 0.9867(12)
H18_3 H 0.2550 0.6411 0.9853
C31_3 C 0.497(2) 0.6135(18) 0.9517(8)
S2_2 S 0.6856(16) 0.6103(9) 0.9675(4)
H15_3 H 0.0816 0.7478 0.7251
C39_3 C 0.005(6) 0.6405(19) 0.7419(17)
O4_3 O 0.164(5) 0.6350(12) 0.7417(7)
S1_2 S 0.560(2) 0.5084(11) 0.1376(5)
C1_2 C 0.703(3) 0.5391(10) 0.1591(9)
C2_2 C 0.676(3) 0.5945(10) 0.1479(11)
H1_2 H 0.7493 0.6234 0.1576
C3_2 C 0.516(4) 0.5980(12) 0.1195(11)
C4_2 C 0.444(3) 0.5448(13) 0.1131(9)
H3_2 H 0.9945 0.5892 0.1711
C7_2 C 0.866(2) 0.5173(14) 0.1820(8)
C8_2 C 0.886(3) 0.4677(13) 0.2037(9)
H4_2 H 0.7913 0.4418 0.2013
C28_2 C 0.689(3) 0.6296(19) 0.0122(7)
C29_2 C 0.502(4) 0.645(2) 0.0241(10)
C32_2 C 0.444(5) 0.6755(19) 0.0670(9)
C33_2 C 0.471(5) 0.6565(13) 0.1113(12)
C34_2 C 0.404(6) 0.6969(16) 0.1412(8)
C35_2 C 0.336(6) 0.7410(15) 0.1153(14)
C36_2 C 0.360(6) 0.728(2) 0.0694(11)
F1_2 F 0.490(4) 0.777(2) 0.0504(10)
F2_2 F 0.182(4) 0.737(2) 0.0439(9)
F3_2 F 0.110(4) 0.733(2) 0.1227(9)
F4_2 F 0.521(4) 0.733(2) 0.1692(8)
C37_2 C 0.254(4) 0.542(4) 0.0919(11)
H19_2 H 0.2440 0.5097 0.0746
H20_2 H 0.2371 0.5731 0.0728
H21_2 H 0.1594 0.5423 0.1148
C38_2 C 0.854(6) 0.609(3) 0.0381(14)
H22_2 H 0.8140 0.5798 0.0573
H23_2 H 0.9057 0.6375 0.0559
H24_2 H 0.9481 0.5957 0.0178
F5_2 F 0.265(5) 0.675(3) 0.1747(11)
F6_2 F 0.312(5) 0.798(2) 0.1290(10)
C10_2 C 0.828(8) 0.459(2) 0.7942(17)
C11_2 C 0.557(5) 0.4054(15) 0.8135(10)
H6_2 H 0.5305 0.4325 0.8341
C12_3 C 0.435(3) 0.3617(18) 0.8087(9)
H7_3 H 0.3268 0.3597 0.8261
C13_3 C 0.475(4) 0.3211(14) 0.7779(12)
C14_2 C 0.638(5) 0.3241(16) 0.7520(9)
H8_2 H 0.6644 0.2969 0.7314
C15_2 C 0.760(3) 0.3677(18) 0.7568(8)
H9_2 H 0.8681 0.3698 0.7395
C16_2 C 0.719(4) 0.4084(15) 0.7876(12)
H10_3 H 0.9825 0.5732 0.8630
C22_3 C 0.178(7) 0.2808(15) 0.7795(9)
H14_3 H 0.1400 0.3141 0.7907
C23_3 C 0.046(4) 0.241(2) 0.7700(11)
C24_3 C 0.103(6) 0.1911(18) 0.7533(10)
C25_3 C 0.293(7) 0.1810(14) 0.7461(9)
H16_3 H 0.3315 0.1477 0.7348
C26_3 C 0.426(4) 0.221(2) 0.7555(11)
H17_2 H 0.5531 0.2140 0.7507
C27_3 C 0.369(5) 0.2706(17) 0.7723(11)
O2_3 O 0.802(3) 0.500(2) 0.8286(8)
O3_2 O 0.070(4) 0.107(3) 0.7416(11)
O5_2 O 0.930(4) 0.607(3) 0.7584(11)
H10_4 H 0.0175 0.0732 0.6370
O2_4 O 0.198(3) 0.000(2) 0.6714(8)
C10_3 C 0.172(8) 0.959(2) 0.7058(17)
C11_3 C 0.443(5) 0.9054(15) 0.6865(10)
H6_3 H 0.4695 0.9325 0.6659
C12_4 C 0.565(3) 0.8617(18) 0.6913(9)
H7_4 H 0.6732 0.8597 0.6739
C13_4 C 0.525(4) 0.8211(14) 0.7221(12)
C14_3 C 0.362(5) 0.8241(16) 0.7480(9)
H8_3 H 0.3356 0.7969 0.7686
C15_3 C 0.240(3) 0.8677(18) 0.7432(8)
H9_3 H 0.1319 0.8698 0.7605
C16_3 C 0.281(4) 0.9084(15) 0.7124(12)
C22_4 C 0.822(7) 0.7808(15) 0.7205(9)
H14_4 H 0.8600 0.8141 0.7093
C23_4 C 0.954(4) 0.741(2) 0.7300(11)
C24_4 C 0.897(6) 0.6911(18) 0.7467(10)
C25_4 C 0.707(7) 0.6810(14) 0.7539(9)
H16_4 H 0.6685 0.6477 0.7652
C26_4 C 0.574(4) 0.721(2) 0.7445(11)
H17_3 H 0.4469 0.7140 0.7493
C27_4 C 0.631(5) 0.7706(17) 0.7277(11)
O2_5 O 0.198(3) 1.000(2) 0.6714(8)
H15_4 H 0.9184 0.2478 0.7749
C39_4 C 0.995(6) 0.1405(19) 0.7581(17)
O4_4 O 0.836(5) 0.1350(12) 0.7583(7)
Zn3_2 Zn 0.8904(10) 0.0390(6) 0.7263(2)
S1_3 S 0.440(2) 0.0084(11) 0.3624(5)
C1_3 C 0.297(3) 0.0391(10) 0.3409(9)
C2_3 C 0.324(3) 0.0945(10) 0.3521(11)
H1_3 H 0.2507 0.1234 0.3424
C3_3 C 0.484(4) 0.0980(12) 0.3805(11)
C4_3 C 0.556(3) 0.0448(13) 0.3869(9)
O1_4 O 0.993(6) 0.000(3) 0.7253(14)
H3_3 H 0.0055 0.0892 0.3289
C7_3 C 0.134(2) 0.0173(14) 0.3180(8)
C17_4 C 0.888(3) 0.0749(17) 0.6327(9)
N2_4 N 0.767(4) 0.0551(14) 0.6653(7)
C18_4 C 0.573(4) 0.0577(19) 0.6589(9)
H11_3 H 0.4917 0.0444 0.6807
C19_4 C 0.501(3) 0.080(2) 0.6199(11)
H12_3 H 0.3710 0.0820 0.6156
C20_4 C 0.622(4) 0.1001(18) 0.5873(8)
C21_4 C 0.816(4) 0.0974(16) 0.5938(8)
H13_4 H 0.8968 0.1107 0.5719
C28_3 C 0.311(3) 0.1296(19) 0.4878(7)
C29_3 C 0.498(4) 0.145(2) 0.4759(10)
C30_4 C 0.616(2) 0.135(2) 0.5133(12)
H18_4 H 0.7450 0.1411 0.5147
C31_4 C 0.503(2) 0.1135(18) 0.5483(8)
S2_3 S 0.3144(16) 0.1103(9) 0.5325(4)
C32_3 C 0.556(5) 0.1755(19) 0.4330(9)
C33_3 C 0.529(5) 0.1565(13) 0.3887(12)
C34_3 C 0.596(6) 0.1969(16) 0.3588(8)
C35_3 C 0.664(6) 0.2410(15) 0.3847(14)
C36_3 C 0.640(6) 0.228(2) 0.4306(11)
F1_3 F 0.510(4) 0.277(2) 0.4496(10)
F2_3 F 0.818(4) 0.237(2) 0.4561(9)
F3_3 F 0.890(4) 0.233(2) 0.3773(9)
F4_3 F 0.479(4) 0.233(2) 0.3308(8)
C37_3 C 0.746(4) 0.042(4) 0.4081(11)
H19_3 H 0.7560 0.0097 0.4254
H20_3 H 0.7629 0.0731 0.4272
H21_3 H 0.8406 0.0423 0.3852
C38_3 C 0.146(6) 0.109(3) 0.4619(14)
H22_3 H 0.1860 0.0798 0.4427
H23_3 H 0.0943 0.1375 0.4441
H24_3 H 0.0519 0.0957 0.4822
F5_3 F 0.735(5) 0.175(3) 0.3253(11)
F6_3 F 0.688(5) 0.298(2) 0.3710(10)
N3_2 N 0.687(3) 0.0041(16) 0.7675(7)
C8_3 C 0.386(3) 0.0323(13) 0.7963(9)
H4_3 H 0.2913 0.0582 0.7987
C9_4 C 0.546(3) 0.0429(14) 0.7711(9)
H5_4 H 0.5587 0.0760 0.7566
O1_5 O 0.993(6) 1.000(3) 0.7253(14)
C8_4 C 0.114(3) 0.9677(13) 0.2963(9)
H4_4 H 0.2087 0.9418 0.2987
C5_3 C 0.832(3) 0.0454(14) 0.2892(10)
H2_3 H 0.7382 0.0714 0.2868
C6_3 C 0.993(3) 0.0561(13) 0.3144(10)
H11_4 H 0.0083 0.9556 0.1807
H12_4 H 0.1290 0.9180 0.1156
S2_4 S 0.1856(16) 0.8897(9) 0.0325(4)
S1_4 S 0.060(2) 0.9916(11) 0.8624(5)
C1_4 C 0.203(3) 0.9609(10) 0.8409(9)
C2_4 C 0.176(3) 0.9055(10) 0.8521(11)
H1_4 H 0.2493 0.8766 0.8424
C3_4 C 0.016(4) 0.9020(12) 0.8805(11)
C5_4 C 0.668(3) 0.9546(14) 0.7892(10)
H2_4 H 0.7618 0.9286 0.7868
C6_4 C 0.507(3) 0.9439(13) 0.8144(10)
H3_4 H 0.4945 0.9108 0.8289
C7_4 C 0.366(2) 0.9827(14) 0.8180(8)
C28_4 C 0.189(3) 0.8704(19) 0.9878(7)
C29_4 C 0.002(4) 0.855(2) 0.9759(10)
F4_4 F 0.021(4) 0.767(2) 0.8308(8)
C38_4 C 0.354(6) 0.891(3) 0.9619(14)
H22_4 H 0.3140 0.9202 0.9427
H23_4 H 0.4057 0.8625 0.9441
H24_4 H 0.4481 0.9043 0.9822
O1_6 O 0.507(6) 0.000(3) 0.2253(14)
C10_4 C 0.328(8) 0.041(2) 0.2058(17)
C11_4 C 0.057(5) 0.0946(15) 0.1865(10)
H6_4 H 0.0305 0.0675 0.1659
C14_4 C 0.138(5) 0.1759(16) 0.2480(9)
H8_4 H 0.1644 0.2031 0.2686
C15_4 C 0.260(3) 0.1323(18) 0.2432(8)
H9_4 H 0.3681 0.1302 0.2605
C16_4 C 0.219(4) 0.0916(15) 0.2124(12)
H17_4 H 0.0531 0.2860 0.2493
O2_6 O 0.302(3) 0.000(2) 0.1714(8)
C4_4 C 0.944(3) 0.9552(13) 0.8869(9)
C32_4 C 0.944(5) 0.8245(19) 0.9330(9)
C33_4 C 0.971(5) 0.8435(13) 0.8887(12)
C34_4 C 0.904(6) 0.8031(16) 0.8588(8)
C35_4 C 0.836(6) 0.7590(15) 0.8847(14)
C36_4 C 0.860(6) 0.772(2) 0.9306(11)
F1_4 F 0.990(4) 0.723(2) 0.9496(10)
F2_4 F 0.682(4) 0.763(2) 0.9561(9)
F3_4 F 0.610(4) 0.767(2) 0.8773(9)
C37_4 C 0.754(4) 0.958(4) 0.9081(11)
H19_4 H 0.7440 0.9903 0.9254
H20_4 H 0.7371 0.9269 0.9272
H21_4 H 0.6594 0.9577 0.8852
F5_4 F 0.765(5) 0.825(3) 0.8253(11)
F6_4 F 0.812(5) 0.702(2) 0.8710(10)
loop_
_geom_bond_atom_site_label_1
_geom_bond_atom_site_label_2
_geom_bond_site_symmetry_1
_geom_bond_site_symmetry_2
H7 C12 1_555 1_555
C13 C12 1_555 1_555
C22 H14 1_555 1_555
C23 C22 1_555 1_555
H15 C23 1_555 1_555
C24 C23 1_555 1_555
C25 C24 1_555 1_555
H16 C25 1_555 1_555
C26 C25 1_555 1_555
C27 C13 1_555 1_555
C39 C24 1_555 1_555
O3 C39 1_555 1_555
O4 C39 1_555 1_555
Zn3 O3 1_555 1_555
C22 C27 1_555 1_555
C26 C27 1_555 1_555
C9 N1 1_555 1_555
H5 C9 1_555 1_555
Zn3 N1 1_555 1_555
Zn3 O1 1_555 1_555
C17 H10 1_555 1_555
N2 Zn3 1_555 1_555
C18 N2 1_555 1_555
C19 C18 1_555 1_555
C20 C19 1_555 1_555
C21 C17 1_555 1_555
H13 C21 1_555 1_555
C30 H18 1_555 1_555
C31 C20 1_555 1_555
C17 N2 1_555 1_555
C20 C21 1_555 1_555
C30 C31 1_555 1_555
Zn1 O1_2 1_555 1_555
O1_2 C10 1_555 1_555
C10 C16 1_555 1_555
C11 H6 1_555 1_555
H8 C14 1_555 1_555
C15 C14 1_555 1_555
H9 C15 1_555 1_555
C16 C11 1_555 1_555
C17_2 H10_2 1_555 1_555
N2_2 Zn1 1_555 1_555
C18_2 N2_2 1_555 1_555
C19_2 C18_2 1_555 1_555
C20_2 C19_2 1_555 1_555
C21_2 C17_2 1_555 1_555
H13_2 C21_2 1_555 1_555
O2_2 C10 1_555 1_555
C30_2 H18_2 1_555 1_555
C31_2 C20_2 1_555 1_555
C34 C33 1_555 1_555
C35 C34 1_555 1_555
C36 C32 1_555 1_555
F1 C36 1_555 1_555
F2 C36 1_555 1_555
F3 C35 1_555 1_555
C37 C4 1_555 1_555
H19 C37 1_555 1_555
H20 C37 1_555 1_555
H21 C37 1_555 1_555
F5 C34 1_555 1_555
F6 C35 1_555 1_555
N3 Zn1 1_555 1_555
O5 Zn1 1_555 1_555
C15 C16 1_555 1_555
C17_2 N2_2 1_555 1_555
C20_2 C21_2 1_555 1_555
C30_2 C31_2 1_555 1_555
C32 C33 1_555 1_555
C35 C36 1_555 1_555
N3 C5 1_555 1_555
C5 H2 1_555 1_555
C6 C5 1_555 1_555
C9_2 N3 1_555 1_555
H5_2 C9_2 1_555 1_555
H7_2 C12_2 1_555 1_555
C13_2 C12_2 1_555 1_555
C22_2 H14_2 1_555 1_555
C23_2 C22_2 1_555 1_555
H15_2 C23_2 1_555 1_555
C24_2 C23_2 1_555 1_555
C25_2 C24_2 1_555 1_555
H16_2 C25_2 1_555 1_555
C26_2 C25_2 1_555 1_555
C27_2 C13_2 1_555 1_555
C39_2 C24_2 1_555 1_555
O5 C39_2 1_555 1_555
O4_2 C39_2 1_555 1_555
C22_2 C27_2 1_555 1_555
C26_2 C27_2 1_555 1_555
S1 C1 1_555 1_555
C1 C2 1_555 1_555
C2 H1 1_555 1_555
C3 C2 1_555 1_555
N1_2 C5_2 1_555 1_555
C5_2 H2_2 1_555 1_555
C6_2 C5_2 1_555 1_555
H3 C6_2 1_555 1_555
C7 C1 1_555 1_555
C8 C7 1_555 1_555
H4 C8 1_555 1_555
C9_3 N1_2 1_555 1_555
H5_3 C9_3 1_555 1_555
C28 C29 1_555 1_555
S2 C28 1_555 1_555
C38 C28 1_555 1_555
H22 C38 1_555 1_555
H23 C38 1_555 1_555
H24 C38 1_555 1_555
Zn2 N1_2 1_555 1_555
C6_2 C7 1_555 1_555
C8 C9_3 1_555 1_555
Zn2 O1_3 1_555 1_555
N2_3 Zn2 1_555 1_555
C18_3 N2_3 1_555 1_555
H11_2 C18_3 1_555 1_555
C19_3 C18_3 1_555 1_555
H12_2 C19_3 1_555 1_555
C20_3 C19_3 1_555 1_555
C21_3 C17_3 1_555 1_555
H13_3 C21_3 1_555 1_555
C30_3 H18_3 1_555 1_555
C31_3 C20_3 1_555 1_555
C17_3 N2_3 1_555 1_555
C20_3 C21_3 1_555 1_555
C30_3 C31_3 1_555 1_555
C31_3 S2_2 1_555 1_555
O4_3 C39_3 1_555 1_555
S1_2 C1_2 1_555 1_555
C1_2 C2_2 1_555 1_555
C2_2 H1_2 1_555 1_555
C3_2 C2_2 1_555 1_555
C4_2 S1_2 1_555 1_555
C7_2 C1_2 1_555 1_555
C8_2 C7_2 1_555 1_555
H4_2 C8_2 1_555 1_555
C28_2 C29_2 1_555 1_555
C32_2 C29_2 1_555 1_555
C33_2 C3_2 1_555 1_555
C34_2 C33_2 1_555 1_555
C35_2 C34_2 1_555 1_555
C36_2 C32_2 1_555 1_555
F1_2 C36_2 1_555 1_555
F2_2 C36_2 1_555 1_555
F3_2 C35_2 1_555 1_555
F4_2 C34_2 1_555 1_555
C37_2 C4_2 1_555 1_555
H19_2 C37_2 1_555 1_555
H20_2 C37_2 1_555 1_555
H21_2 C37_2 1_555 1_555
C38_2 C28_2 1_555 1_555
H22_2 C38_2 1_555 1_555
H23_2 C38_2 1_555 1_555
H24_2 C38_2 1_555 1_555
F5_2 C34_2 1_555 1_555
F6_2 C35_2 1_555 1_555
C3_2 C4_2 1_555 1_555
C32_2 C33_2 1_555 1_555
C35_2 C36_2 1_555 1_555
C10_2 C16_2 1_555 1_555
C11_2 H6_2 1_555 1_555
C12_3 C11_2 1_555 1_555
H7_3 C12_3 1_555 1_555
C13_3 C12_3 1_555 1_555
C14_2 C13_3 1_555 1_555
H8_2 C14_2 1_555 1_555
C15_2 C14_2 1_555 1_555
H9_2 C15_2 1_555 1_555
C16_2 C11_2 1_555 1_555
C22_3 H14_3 1_555 1_555
C23_3 C22_3 1_555 1_555
C24_3 C23_3 1_555 1_555
C25_3 C24_3 1_555 1_555
H16_3 C25_3 1_555 1_555
C26_3 C25_3 1_555 1_555
H17_2 C26_3 1_555 1_555
C27_3 C13_3 1_555 1_555
O2_3 C10_2 1_555 1_555
C15_2 C16_2 1_555 1_555
C22_3 C27_3 1_555 1_555
C26_3 C27_3 1_555 1_555
C10_3 C16_3 1_555 1_555
C11_3 H6_3 1_555 1_555
C12_4 C11_3 1_555 1_555
H7_4 C12_4 1_555 1_555
C13_4 C12_4 1_555 1_555
C14_3 C13_4 1_555 1_555
H8_3 C14_3 1_555 1_555
C15_3 C14_3 1_555 1_555
H9_3 C15_3 1_555 1_555
C16_3 C11_3 1_555 1_555
C22_4 H14_4 1_555 1_555
C23_4 C22_4 1_555 1_555
C24_4 C23_4 1_555 1_555
C25_4 C24_4 1_555 1_555
H16_4 C25_4 1_555 1_555
C26_4 C25_4 1_555 1_555
H17_3 C26_4 1_555 1_555
C27_4 C13_4 1_555 1_555
O2_5 C10_3 1_555 1_555
C15_3 C16_3 1_555 1_555
C22_4 C27_4 1_555 1_555
C26_4 C27_4 1_555 1_555
O4_4 C39_4 1_555 1_555
Zn3_2 O1_4 1_555 1_555
S1_3 C1_3 1_555 1_555
C1_3 C2_3 1_555 1_555
C2_3 H1_3 1_555 1_555
C3_3 C2_3 1_555 1_555
C4_3 S1_3 1_555 1_555
C7_3 C1_3 1_555 1_555
N2_4 Zn3_2 1_555 1_555
C18_4 N2_4 1_555 1_555
H11_3 C18_4 1_555 1_555
C19_4 C18_4 1_555 1_555
H12_3 C19_4 1_555 1_555
C20_4 C19_4 1_555 1_555
C21_4 C17_4 1_555 1_555
H13_4 C21_4 1_555 1_555
C28_3 C29_3 1_555 1_555
C29_3 C30_4 1_555 1_555
C30_4 H18_4 1_555 1_555
C31_4 C20_4 1_555 1_555
S2_3 C28_3 1_555 1_555
C32_3 C29_3 1_555 1_555
C33_3 C3_3 1_555 1_555
C34_3 C33_3 1_555 1_555
C35_3 C34_3 1_555 1_555
C36_3 C32_3 1_555 1_555
F1_3 C36_3 1_555 1_555
F2_3 C36_3 1_555 1_555
F3_3 C35_3 1_555 1_555
F4_3 C34_3 1_555 1_555
C37_3 C4_3 1_555 1_555
H19_3 C37_3 1_555 1_555
H20_3 C37_3 1_555 1_555
H21_3 C37_3 1_555 1_555
C38_3 C28_3 1_555 1_555
H22_3 C38_3 1_555 1_555
H23_3 C38_3 1_555 1_555
H24_3 C38_3 1_555 1_555
F5_3 C34_3 1_555 1_555
F6_3 C35_3 1_555 1_555
N3_2 Zn3_2 1_555 1_555
C3_3 C4_3 1_555 1_555
C17_4 N2_4 1_555 1_555
C20_4 C21_4 1_555 1_555
C30_4 C31_4 1_555 1_555
C31_4 S2_3 1_555 1_555
C32_3 C33_3 1_555 1_555
C35_3 C36_3 1_555 1_555
H4_3 C8_3 1_555 1_555
C9_4 N3_2 1_555 1_555
H5_4 C9_4 1_555 1_555
C8_3 C9_4 1_555 1_555
H4_4 C8_4 1_555 1_555
C5_3 H2_3 1_555 1_555
C6_3 C5_3 1_555 1_555
S1_4 C1_4 1_555 1_555
C1_4 C2_4 1_555 1_555
C2_4 H1_4 1_555 1_555
C3_4 C2_4 1_555 1_555
C5_4 H2_4 1_555 1_555
C6_4 C5_4 1_555 1_555
H3_4 C6_4 1_555 1_555
C7_4 C1_4 1_555 1_555
C28_4 C29_4 1_555 1_555
C38_4 C28_4 1_555 1_555
H22_4 C38_4 1_555 1_555
H23_4 C38_4 1_555 1_555
H24_4 C38_4 1_555 1_555
C6_4 C7_4 1_555 1_555
O1_6 C10_4 1_555 1_555
C10_4 C16_4 1_555 1_555
C11_4 H6_4 1_555 1_555
H8_4 C14_4 1_555 1_555
C15_4 C14_4 1_555 1_555
H9_4 C15_4 1_555 1_555
C16_4 C11_4 1_555 1_555
O2_6 C10_4 1_555 1_555
C15_4 C16_4 1_555 1_555
C34_4 C33_4 1_555 1_555
C35_4 C34_4 1_555 1_555
C36_4 C32_4 1_555 1_555
F1_4 C36_4 1_555 1_555
F2_4 C36_4 1_555 1_555
F3_4 C35_4 1_555 1_555
C37_4 C4_4 1_555 1_555
H19_4 C37_4 1_555 1_555
H20_4 C37_4 1_555 1_555
H21_4 C37_4 1_555 1_555
F5_4 C34_4 1_555 1_555
F6_4 C35_4 1_555 1_555
C32_4 C33_4 1_555 1_555
C35_4 C36_4 1_555 1_555

#END
