
###############################################################################
#
# This file contains modified crystal structure data generated from the
# MOF subset of the Cambridge Structural Database (CSD) v543 
# hosted by the Cambridge Crystallographic Data Centre (CCDC).
#
# This work is licensed under the Creative Commons
# Attribution-NonCommercial-ShareAlike 4.0 International License.
# To view a copy of this license, visit
# http://creativecommons.org/licenses/by-nc-sa/4.0/
# or send a letter to
# Creative Commons, PO Box 1866, Mountain View, CA 94042, USA.
#
# CIF created using the CSD Python API on 29 September 2022
# The structure has been converted into the P1 space group
# The structure has a 3D framework
# The original CSD entry YOPLOG is in the hexagonal crystal system
# The framework has been calculated to contain at least 10.0% void space
# The void calculation uses a probe of radius 1.32A, grid spacing 0.4
# The framework is charged, counterions have been retained in the structure
#
###############################################################################

data_YOPLOG
_chemical_formula_moiety         '(C46 H24 Cu5 N10 O6 3+)n'
_symmetry_cell_setting           triclinic
_symmetry_space_group_name_H-M   'P 1'
_symmetry_Int_Tables_number      1
_space_group_name_Hall           'P 1'
loop_
_symmetry_equiv_pos_site_id
_symmetry_equiv_pos_as_xyz
1 x,y,z
_cell_length_a                   9.2577(3)
_cell_length_b                   9.2577(3)
_cell_length_c                   13.5853(5)
_cell_angle_alpha                90
_cell_angle_beta                 90
_cell_angle_gamma                120
_cell_volume                     1008.34
loop_
_atom_site_label
_atom_site_type_symbol
_atom_site_fract_x
_atom_site_fract_y
_atom_site_fract_z
Cu2 Cu -0.0000 0.5000 0.5000
N3 N -0.0000 0.5000 0.3525(3)
C16 C -0.0000 0.5000 0.1495(4)
C17 C -0.0000 0.5000 0.0434(5)
C18 C 0.0521(4) 0.6417(6) 0.3026(2)
H11 H 0.0889 0.7405 0.3374
C19 C 0.0532(4) 0.6467(6) 0.2013(2)
H12 H 0.0891 0.7469 0.1683
O8 O 0.2187(3) 0.7047(4) 0.5000
O10 O 0.2953(4) 0.5140(3) 0.5000
N8 N -0.0000 0.5000 0.6475(3)
C20 C 0.0521(4) 0.6417(6) 0.6974(2)
H13 H 0.0889 0.7405 0.6626
C21 C 0.0532(4) 0.6467(6) 0.7987(2)
H14 H 0.0891 0.7469 0.8317
C22 C -0.0000 0.5000 0.8505(4)
C23 C 0.0000 0.5000 0.9566(5)
Cu1 Cu 0.5000 -0.0000 0.5000
O1 O 0.5140(3) 0.2187(3) 0.5000
N1 N 0.5000 0.0000 0.3525(3)
C1 C 0.6667 0.3333 0.5000
C2 C 0.4104(4) 0.0521(4) 0.3026(2)
H1 H 0.3484 0.0889 0.3374
C3 C 0.4065(5) 0.0532(4) 0.2013(2)
H2 H 0.3422 0.0891 0.1683
C4 C 0.5000 0.0000 0.1495(4)
C5 C 0.5000 0.0000 0.0434(5)
O2 O 0.7813(3) 0.2953(4) 0.5000
O3 O 0.7047(4) 0.4860(3) 0.5000
Cu2_2 Cu 1.0000 0.5000 0.5000
N3_2 N 1.0000 0.5000 0.3525(3)
C14 C 0.9479(4) 0.3583(6) 0.3026(2)
H9 H 0.9111 0.2595 0.3374
C15 C 0.9468(4) 0.3533(6) 0.2013(2)
H10 H 0.9109 0.2531 0.1683
C16_2 C 1.0000 0.5000 0.1495(4)
C17_2 C 1.0000 0.5000 0.0434(5)
Cu3 Cu 0.5000 0.5000 0.5000
N5 N 0.5000 0.5000 0.3525(3)
C26 C 0.6417(6) 0.5896(4) 0.3026(2)
H17 H 0.7405 0.6516 0.3374
C27 C 0.6467(6) 0.5935(5) 0.2013(2)
H18 H 0.7469 0.6578 0.1683
C28 C 0.5000 0.5000 0.1495(4)
C29 C 0.5000 0.5000 0.0434(5)
C30 C 0.3583(6) 0.4104(4) 0.3026(2)
H19 H 0.2595 0.3484 0.3374
C31 C 0.3533(6) 0.4065(5) 0.2013(2)
H20 H 0.2531 0.3422 0.1683
O7 O 0.4860(3) 0.7813(3) 0.5000
N7 N 0.5000 -0.0000 0.6475(3)
N8_2 N 1.0000 0.5000 0.6475(3)
N9 N 0.5000 0.5000 0.6475(3)
C10 C 0.5000 -0.0000 0.8505(4)
C11 C 0.5000 -0.0000 0.9566(5)
C12 C 0.4104(4) 0.0521(4) 0.6974(2)
H7 H 0.3484 0.0889 0.6626
C13 C 0.4065(5) 0.0532(4) 0.7987(2)
H8 H 0.3422 0.0891 0.8317
C22_2 C 1.0000 0.5000 0.8505(4)
C23_2 C 1.0000 0.5000 0.9566(5)
C24 C 0.9479(4) 0.3583(6) 0.6974(2)
H15 H 0.9111 0.2595 0.6626
C25 C 0.9468(4) 0.3533(6) 0.7987(2)
H16 H 0.9109 0.2531 0.8317
C32 C 0.3583(6) 0.4104(4) 0.6974(2)
H21 H 0.2595 0.3484 0.6626
C33 C 0.3533(6) 0.4065(5) 0.7987(2)
H22 H 0.2531 0.3422 0.8317
C34 C 0.5000 0.5000 0.8505(4)
C35 C 0.5000 0.5000 0.9566(5)
C36 C 0.6417(6) 0.5896(4) 0.6974(2)
H23 H 0.7405 0.6516 0.6626
C37 C 0.6467(6) 0.5935(5) 0.7987(2)
H24 H 0.7469 0.6578 0.8317
Cu1_2 Cu 0.5000 1.0000 0.5000
N1_2 N 0.5000 1.0000 0.3525(3)
C4_2 C 0.5000 1.0000 0.1495(4)
C5_2 C 0.5000 1.0000 0.0434(5)
C6 C 0.5896(4) 0.9479(4) 0.3026(2)
H3 H 0.6516 0.9111 0.3374
C7 C 0.5935(5) 0.9468(4) 0.2013(2)
H4 H 0.6578 0.9109 0.1683
C38 C 0.3333 0.6667 0.5000
N7_2 N 0.5000 1.0000 0.6475(3)
C8 C 0.5896(4) 0.9479(4) 0.6974(2)
H5 H 0.6516 0.9111 0.6626
C9 C 0.5935(5) 0.9468(4) 0.7987(2)
H6 H 0.6578 0.9109 0.8317
C10_2 C 0.5000 1.0000 0.8505(4)
C11_2 C 0.5000 1.0000 0.9566(5)
loop_
_geom_bond_atom_site_label_1
_geom_bond_atom_site_label_2
_geom_bond_site_symmetry_1
_geom_bond_site_symmetry_2
N3 Cu2 1_555 1_555
C17 C16 1_555 1_555
C18 N3 1_555 1_555
H11 C18 1_555 1_555
C19 C16 1_555 1_555
H12 C19 1_555 1_555
O8 Cu2 1_555 1_555
O10 Cu2 1_555 1_555
N8 Cu2 1_555 1_555
C18 C19 1_555 1_555
N8 C20 1_555 1_555
C20 H13 1_555 1_555
C21 C20 1_555 1_555
H14 C21 1_555 1_555
C22 C21 1_555 1_555
C22 C23 1_555 1_555
Cu1 O1 1_555 1_555
O1 C1 1_555 1_555
N1 Cu1 1_555 1_555
C1 O2 1_555 1_555
C2 N1 1_555 1_555
H1 C2 1_555 1_555
C3 C2 1_555 1_555
H2 C3 1_555 1_555
C4 C3 1_555 1_555
C5 C4 1_555 1_555
O2 Cu1 1_555 1_555
O3 C1 1_555 1_555
Cu2_2 O2 1_555 1_555
N3_2 Cu2_2 1_555 1_555
C14 N3_2 1_555 1_555
H9 C14 1_555 1_555
C15 C14 1_555 1_555
H10 C15 1_555 1_555
C16_2 C15 1_555 1_555
C17_2 C16_2 1_555 1_555
Cu3 O1 1_555 1_555
N5 Cu3 1_555 1_555
C26 N5 1_555 1_555
H17 C26 1_555 1_555
C27 C26 1_555 1_555
H18 C27 1_555 1_555
C28 C27 1_555 1_555
C29 C28 1_555 1_555
C30 N5 1_555 1_555
H19 C30 1_555 1_555
C31 C28 1_555 1_555
H20 C31 1_555 1_555
O7 Cu3 1_555 1_555
O10 Cu3 1_555 1_555
N7 Cu1 1_555 1_555
N8_2 Cu2_2 1_555 1_555
N9 Cu3 1_555 1_555
O3 Cu2_2 1_555 1_555
O3 Cu3 1_555 1_555
C30 C31 1_555 1_555
C12 N7 1_555 1_555
H7 C12 1_555 1_555
C13 C10 1_555 1_555
H8 C13 1_555 1_555
C24 N8_2 1_555 1_555
H15 C24 1_555 1_555
C25 C22_2 1_555 1_555
H16 C25 1_555 1_555
N9 C32 1_555 1_555
C32 H21 1_555 1_555
C33 C32 1_555 1_555
H22 C33 1_555 1_555
C34 C33 1_555 1_555
C36 N9 1_555 1_555
H23 C36 1_555 1_555
C37 C34 1_555 1_555
H24 C37 1_555 1_555
C10 C11 1_555 1_555
C12 C13 1_555 1_555
C22_2 C23_2 1_555 1_555
C24 C25 1_555 1_555
C34 C35 1_555 1_555
C36 C37 1_555 1_555
N1_2 Cu1_2 1_555 1_555
C5_2 C4_2 1_555 1_555
C6 N1_2 1_555 1_555
H3 C6 1_555 1_555
C7 C4_2 1_555 1_555
H4 C7 1_555 1_555
O7 Cu1_2 1_555 1_555
C38 O7 1_555 1_555
O8 Cu1_2 1_555 1_555
O10 C38 1_555 1_555
N7_2 Cu1_2 1_555 1_555
C6 C7 1_555 1_555
C38 O8 1_555 1_555
N7_2 C8 1_555 1_555
C8 H5 1_555 1_555
C9 C8 1_555 1_555
H6 C9 1_555 1_555
C10_2 C9 1_555 1_555
C10_2 C11_2 1_555 1_555

#END
