
###############################################################################
#
# This file contains modified crystal structure data generated from the
# MOF subset of the Cambridge Structural Database (CSD) v543 
# hosted by the Cambridge Crystallographic Data Centre (CCDC).
#
# This work is licensed under the Creative Commons
# Attribution-NonCommercial-ShareAlike 4.0 International License.
# To view a copy of this license, visit
# http://creativecommons.org/licenses/by-nc-sa/4.0/
# or send a letter to
# Creative Commons, PO Box 1866, Mountain View, CA 94042, USA.
#
# CIF created using the CSD Python API on 29 September 2022
# The structure has been converted into the P1 space group
# The structure has a 3D framework
# The original CSD entry YOQKEX07 is in the triclinic crystal system
# The framework has been calculated to contain at least 10.0% void space
# The void calculation uses a probe of radius 1.32A, grid spacing 0.4
#
###############################################################################

data_YOQKEX07
_chemical_formula_moiety         '(C64 H40 Au8 Fe2 N40)n'
_symmetry_cell_setting           triclinic
_symmetry_space_group_name_H-M   'P 1'
_symmetry_Int_Tables_number      1
_space_group_name_Hall           'P 1'
loop_
_symmetry_equiv_pos_site_id
_symmetry_equiv_pos_as_xyz
1 x,y,z
_cell_length_a                   16.0665(15)
_cell_length_b                   12.8303(13)
_cell_length_c                   17.0485(17)
_cell_angle_alpha                111.797(3)
_cell_angle_beta                 68.931(3)
_cell_angle_gamma                89.988(3)
_cell_volume                     3008.47
loop_
_atom_site_label
_atom_site_type_symbol
_atom_site_fract_x
_atom_site_fract_y
_atom_site_fract_z
N2 N 0.266(2) 0.352(2) 0.0614(17)
N3 N 0.2178(17) 0.399(2) 0.1550(17)
N4 N 0.2203(14) 0.5328(17) 0.1044(15)
N5 N 0.2041(18) 0.6404(19) 0.1045(18)
H1 H 0.2543 0.6622 0.0747
H2 H 0.1683 0.6338 0.0742
N6 N 0.0370(16) 0.7103(18) 0.4633(16)
C6 C 0.2649(17) 0.433(2) 0.0324(17)
C7 C 0.191(2) 0.507(2) 0.1802(19)
C8 C 0.1390(19) 0.581(2) 0.2743(19)
C9 C 0.087(2) 0.532(2) 0.3331(18)
H9 H 0.0883 0.4521 0.3098
C10 C 0.0351(19) 0.597(2) 0.4241(19)
C11 C 0.090(2) 0.758(2) 0.408(2)
H11 H 0.0905 0.8375 0.4337
C12 C 0.143(2) 0.698(2) 0.315(2)
H12 H 0.1804 0.7351 0.2799
Au1 Au 0.21671(7) 0.54669(8) 0.60909(7)
Au2 Au 0.70710(7) 0.55893(8) 0.61096(7)
Au3 Au 0.23793(6) 0.03344(8) 0.60007(7)
Au4 Au 0.72967(7) 0.07047(8) 0.60203(7)
Fe1 Fe 0.4682(2) 0.3034(3) 0.6078(2)
N1 N 0.4029(13) 0.3536(17) 0.7461(16)
N7 N 0.5343(14) 0.2544(15) 0.4707(14)
N8 N 0.7132(19) 0.258(2) 0.1597(17)
N9 N 0.7592(18) 0.210(2) 0.0650(17)
N10 N 0.7153(18) 0.0754(19) 0.1140(16)
N13 N 0.3735(15) 0.4013(17) 0.6068(13)
N14 N 0.3949(15) 0.1792(18) 0.5904(15)
N15 N 0.5641(14) 0.2090(16) 0.6092(15)
N16 N 0.5450(15) 0.425(2) 0.6237(14)
N17 N 0.8675(13) 0.6981(17) 0.6072(14)
N20 N 0.0493(15) 0.6893(17) 0.6247(15)
C1 C 0.3928(19) 0.276(2) 0.784(2)
H5 H 0.4158 0.1985 0.7437
C2 C 0.351(2) 0.302(2) 0.8751(18)
H6 H 0.3498 0.2447 0.8980
C3 C 0.3116(19) 0.413(2) 0.935(2)
C4 C 0.3204(17) 0.493(2) 0.8958(18)
H7 H 0.2944 0.5698 0.9336
C5 C 0.3664(17) 0.461(2) 0.8025(18)
H8 H 0.3720 0.5168 0.7780
C13 C 0.5390(19) 0.327(2) 0.428(2)
H13 H 0.5054 0.4011 0.4649
C14 C 0.5872(19) 0.303(2) 0.3384(19)
H14 H 0.5883 0.3599 0.3148
C15 C 0.6350(19) 0.194(2) 0.2811(19)
C16 C 0.6313(19) 0.118(2) 0.323(2)
H15 H 0.6633 0.0434 0.2869
C17 C 0.5841(19) 0.149(2) 0.411(2)
H16 H 0.5845 0.0941 0.4357
C18 C 0.686(2) 0.175(2) 0.187(2)
C19 C 0.7627(17) 0.100(2) 0.0387(17)
C25 C 0.3166(17) 0.454(2) 0.6076(16)
C26 C 0.3379(17) 0.123(2) 0.5934(17)
C27 C 0.6229(18) 0.1612(19) 0.6121(17)
C28 C 0.6022(18) 0.474(2) 0.6191(19)
C29 C 0.8110(15) 0.646(2) 0.6083(17)
C32 C 0.1088(16) 0.6361(19) 0.6185(17)
Fe7 Fe 0.9687(2) 0.8039(3) 0.6079(2)
N11 N 0.6985(19) 0.9666(18) 0.1126(16)
H3 H 0.7489 0.9165 0.0856
H4 H 0.6642 0.9414 0.0808
N18 N 0.8902(16) 0.9187(17) 0.5882(14)
N19 N 0.0703(13) 0.9061(18) 0.6097(15)
C30 C 0.8330(19) 0.977(2) 0.5924(17)
C31 C 0.1327(16) 0.953(2) 0.6086(18)
N12 N 0.8988(14) 0.8949(16) 0.7528(15)
C23 C 0.858(2) 0.846(2) 0.811(2)
H19 H 0.8606 0.7658 0.7871
C24 C 0.813(2) 0.907(2) 0.906(2)
H20 H 0.7862 0.8693 0.9455
H10 H 0.9969 0.5610 0.4603
C20 C 0.8068(18) 0.024(2) 0.9411(18)
C21 C 0.849(2) 0.074(2) 0.8800(18)
H17 H 0.8463 0.1540 0.9022
C22 C 0.8943(18) 0.009(2) 0.789(2)
H18 H 0.9235 0.0459 0.7491
Fe2 Fe 0.0313(2) 0.1961(3) 0.3921(2)
N22 N 0.1012(14) 0.1051(16) 0.2472(15)
N23 N 0.1325(13) 0.3019(17) 0.3928(14)
N24 N 0.1098(16) 0.0813(17) 0.4118(14)
H10_2 H 0.0031 0.4390 0.5397
C23_2 C 0.142(2) 0.154(2) 0.189(2)
H19_2 H 0.1394 0.2342 0.2129
C24_2 C 0.187(2) 0.093(2) 0.094(2)
H20_2 H 0.2138 0.1307 0.0545
N11_2 N 0.3015(19) 0.0334(18) 0.8874(16)
H3_2 H 0.2511 0.0835 0.9144
H4_2 H 0.3358 0.0586 0.9192
N19_2 N 0.9297(13) 0.0939(18) 0.3903(15)
C30_2 C 0.1670(19) 0.023(2) 0.4076(17)
C31_2 C 0.8673(16) 0.047(2) 0.3914(18)
N21 N 0.9630(16) 0.2897(18) 0.5367(16)
N25 N 0.9507(15) 0.3107(17) 0.3753(15)
Au1_2 Au 0.78329(7) 0.45331(8) 0.39091(7)
Au2_2 Au 0.29290(7) 0.44107(8) 0.38904(7)
Au3_2 Au 0.76207(6) 0.96656(8) 0.39993(7)
Au4_2 Au 0.27033(7) 0.92953(8) 0.39797(7)
Fe1_2 Fe 0.5318(2) 0.6966(3) 0.3922(2)
N1_2 N 0.5971(13) 0.6464(17) 0.2539(16)
N7_2 N 0.4657(14) 0.7456(15) 0.5293(14)
N8_2 N 0.2868(19) 0.742(2) 0.8403(17)
N9_2 N 0.2408(18) 0.790(2) 0.9350(17)
N10_2 N 0.2847(18) 0.9246(19) 0.8860(16)
N13_2 N 0.6265(15) 0.5987(17) 0.3932(13)
N14_2 N 0.6051(15) 0.8208(18) 0.4096(15)
N15_2 N 0.4359(14) 0.7910(16) 0.3908(15)
N16_2 N 0.4550(15) 0.575(2) 0.3763(14)
C1_2 C 0.6072(19) 0.724(2) 0.216(2)
H5_2 H 0.5842 0.8015 0.2563
C2_2 C 0.649(2) 0.698(2) 0.1249(18)
H6_2 H 0.6502 0.7553 0.1020
C3_2 C 0.6884(19) 0.587(2) 0.065(2)
C4_2 C 0.6796(17) 0.507(2) 0.1042(18)
H7_2 H 0.7056 0.4302 0.0664
C5_2 C 0.6336(17) 0.539(2) 0.1975(18)
H8_2 H 0.6280 0.4832 0.2220
C13_2 C 0.4610(19) 0.673(2) 0.572(2)
H13_2 H 0.4946 0.5989 0.5351
C14_2 C 0.4128(19) 0.697(2) 0.6616(19)
H14_2 H 0.4117 0.6401 0.6852
C15_2 C 0.3650(19) 0.806(2) 0.7189(19)
C16_2 C 0.3687(19) 0.882(2) 0.677(2)
H15_2 H 0.3367 0.9566 0.7131
C17_2 C 0.4159(19) 0.851(2) 0.589(2)
H16_2 H 0.4155 0.9059 0.5643
C18_2 C 0.314(2) 0.825(2) 0.813(2)
C19_2 C 0.2373(17) 0.900(2) 0.9613(17)
C25_2 C 0.6834(17) 0.546(2) 0.3924(16)
C26_2 C 0.6621(17) 0.877(2) 0.4066(17)
C27_2 C 0.3771(18) 0.8388(19) 0.3879(17)
C28_2 C 0.3978(18) 0.526(2) 0.3809(19)
C29_2 C 0.1890(15) 0.354(2) 0.3917(17)
C32_2 C 0.8912(16) 0.3639(19) 0.3815(17)
N2_2 N 0.734(2) 0.648(2) 0.9386(17)
N3_2 N 0.7822(17) 0.601(2) 0.8450(17)
N4_2 N 0.7797(14) 0.4672(17) 0.8956(15)
N5_2 N 0.7959(18) 0.3596(19) 0.8955(18)
H1_2 H 0.7457 0.3378 0.9253
H2_2 H 0.8317 0.3662 0.9258
C6_2 C 0.7351(17) 0.567(2) 0.9676(17)
C7_2 C 0.809(2) 0.493(2) 0.8198(19)
C8_2 C 0.8610(19) 0.419(2) 0.7257(19)
C9_2 C 0.913(2) 0.468(2) 0.6669(18)
H9_2 H 0.9117 0.5479 0.6902
C10_2 C 0.9649(19) 0.403(2) 0.5759(19)
C11_2 C 0.910(2) 0.242(2) 0.592(2)
H11_2 H 0.9095 0.1625 0.5663
C12_2 C 0.857(2) 0.302(2) 0.685(2)
H12_2 H 0.8196 0.2649 0.7201
C20_2 C 0.1932(18) 0.976(2) 0.0589(18)
C21_2 C 0.151(2) 0.926(2) 0.1200(18)
H17_2 H 0.1537 0.8460 0.0978
C22_2 C 0.1057(18) 0.991(2) 0.211(2)
H18_2 H 0.0765 0.9541 0.2509
loop_
_geom_bond_atom_site_label_1
_geom_bond_atom_site_label_2
_geom_bond_site_symmetry_1
_geom_bond_site_symmetry_2
N2 N3 1_555 1_555
N3 C7 1_555 1_555
N4 N5 1_555 1_555
N5 H1 1_555 1_555
H2 N5 1_555 1_555
N6 C10 1_555 1_555
C6 N2 1_555 1_555
C7 N4 1_555 1_555
C8 C7 1_555 1_555
C9 C8 1_555 1_555
H9 C9 1_555 1_555
C10 C9 1_555 1_555
C11 N6 1_555 1_555
H11 C11 1_555 1_555
C12 C8 1_555 1_555
H12 C12 1_555 1_555
N4 C6 1_555 1_555
C11 C12 1_555 1_555
Au1 C25 1_555 1_555
Au2 C28 1_555 1_555
Au3 C26 1_555 1_555
Au4 C27 1_555 1_555
Fe1 N1 1_555 1_555
N1 C1 1_555 1_555
N7 Fe1 1_555 1_555
N8 N9 1_555 1_555
N9 C19 1_555 1_555
N13 Fe1 1_555 1_555
N14 Fe1 1_555 1_555
N15 Fe1 1_555 1_555
N16 Fe1 1_555 1_555
N17 C29 1_555 1_555
N20 C32 1_555 1_555
C1 H5 1_555 1_555
C2 C1 1_555 1_555
H6 C2 1_555 1_555
C3 C2 1_555 1_555
C4 C3 1_555 1_555
H7 C4 1_555 1_555
C5 N1 1_555 1_555
H8 C5 1_555 1_555
C13 N7 1_555 1_555
H13 C13 1_555 1_555
C14 C13 1_555 1_555
H14 C14 1_555 1_555
C15 C14 1_555 1_555
C16 C15 1_555 1_555
H15 C16 1_555 1_555
C17 N7 1_555 1_555
H16 C17 1_555 1_555
C18 N8 1_555 1_555
C19 N10 1_555 1_555
C25 N13 1_555 1_555
C26 N14 1_555 1_555
C27 N15 1_555 1_555
C28 N16 1_555 1_555
C29 Au2 1_555 1_555
C32 Au1 1_555 1_555
Fe7 N17 1_555 1_555
N10 C18 1_555 1_555
C4 C5 1_555 1_555
C15 C18 1_555 1_555
C16 C17 1_555 1_555
N11 H3 1_555 1_555
H4 N11 1_555 1_555
N18 C30 1_555 1_555
N19 C31 1_555 1_555
Fe7 N18 1_555 1_555
C23 N12 1_555 1_555
H19 C23 1_555 1_555
H20 C24 1_555 1_555
Fe7 N12 1_555 1_555
C23 C24 1_555 1_555
C21 C20 1_555 1_555
H17 C21 1_555 1_555
C22 C21 1_555 1_555
H18 C22 1_555 1_555
N22 Fe2 1_555 1_555
N23 Fe2 1_555 1_555
N24 Fe2 1_555 1_555
C23_2 N22 1_555 1_555
H19_2 C23_2 1_555 1_555
H20_2 C24_2 1_555 1_555
C23_2 C24_2 1_555 1_555
N11_2 H3_2 1_555 1_555
H4_2 N11_2 1_555 1_555
N24 C30_2 1_555 1_555
N19_2 C31_2 1_555 1_555
Au1_2 C25_2 1_555 1_555
Au2_2 C28_2 1_555 1_555
Au3_2 C26_2 1_555 1_555
Au4_2 C27_2 1_555 1_555
Fe1_2 N1_2 1_555 1_555
N1_2 C1_2 1_555 1_555
N7_2 Fe1_2 1_555 1_555
N8_2 N9_2 1_555 1_555
N9_2 C19_2 1_555 1_555
N13_2 Fe1_2 1_555 1_555
N14_2 Fe1_2 1_555 1_555
N15_2 Fe1_2 1_555 1_555
N16_2 Fe1_2 1_555 1_555
N23 C29_2 1_555 1_555
N25 C32_2 1_555 1_555
C1_2 H5_2 1_555 1_555
C2_2 C1_2 1_555 1_555
H6_2 C2_2 1_555 1_555
C3_2 C2_2 1_555 1_555
C4_2 C3_2 1_555 1_555
H7_2 C4_2 1_555 1_555
C5_2 N1_2 1_555 1_555
H8_2 C5_2 1_555 1_555
C13_2 N7_2 1_555 1_555
H13_2 C13_2 1_555 1_555
C14_2 C13_2 1_555 1_555
H14_2 C14_2 1_555 1_555
C15_2 C14_2 1_555 1_555
C16_2 C15_2 1_555 1_555
H15_2 C16_2 1_555 1_555
C17_2 N7_2 1_555 1_555
H16_2 C17_2 1_555 1_555
C18_2 N8_2 1_555 1_555
C19_2 N10_2 1_555 1_555
C25_2 N13_2 1_555 1_555
C26_2 N14_2 1_555 1_555
C27_2 N15_2 1_555 1_555
C28_2 N16_2 1_555 1_555
C29_2 Au2_2 1_555 1_555
C32_2 Au1_2 1_555 1_555
N10_2 C18_2 1_555 1_555
C4_2 C5_2 1_555 1_555
C15_2 C18_2 1_555 1_555
C16_2 C17_2 1_555 1_555
N2_2 N3_2 1_555 1_555
N3_2 C7_2 1_555 1_555
N4_2 N5_2 1_555 1_555
N5_2 H1_2 1_555 1_555
H2_2 N5_2 1_555 1_555
N21 C10_2 1_555 1_555
C6_2 N2_2 1_555 1_555
C7_2 N4_2 1_555 1_555
C8_2 C7_2 1_555 1_555
C9_2 C8_2 1_555 1_555
H9_2 C9_2 1_555 1_555
C10_2 C9_2 1_555 1_555
C11_2 N21 1_555 1_555
H11_2 C11_2 1_555 1_555
C12_2 C8_2 1_555 1_555
H12_2 C12_2 1_555 1_555
N4_2 C6_2 1_555 1_555
C11_2 C12_2 1_555 1_555
C21_2 C20_2 1_555 1_555
H17_2 C21_2 1_555 1_555
C22_2 C21_2 1_555 1_555
H18_2 C22_2 1_555 1_555

#END
