
###############################################################################
#
# This file contains modified crystal structure data generated from the
# MOF subset of the Cambridge Structural Database (CSD) v543 
# hosted by the Cambridge Crystallographic Data Centre (CCDC).
#
# This work is licensed under the Creative Commons
# Attribution-NonCommercial-ShareAlike 4.0 International License.
# To view a copy of this license, visit
# http://creativecommons.org/licenses/by-nc-sa/4.0/
# or send a letter to
# Creative Commons, PO Box 1866, Mountain View, CA 94042, USA.
#
# CIF created using the CSD Python API on 29 September 2022
# The structure has been converted into the P1 space group
# The structure has a 3D framework
# The original CSD entry YOQKEX11 is in the triclinic crystal system
# The framework has been calculated to contain at least 10.0% void space
# The void calculation uses a probe of radius 1.32A, grid spacing 0.4
#
###############################################################################

data_YOQKEX11
_chemical_formula_moiety         '(C126 H80 Au16 Fe8 N80)n'
_symmetry_cell_setting           triclinic
_symmetry_space_group_name_H-M   'P 1'
_symmetry_Int_Tables_number      1
_space_group_name_Hall           'P 1'
loop_
_symmetry_equiv_pos_site_id
_symmetry_equiv_pos_as_xyz
1 x,y,z
_cell_length_a                   30.948(2)
_cell_length_b                   12.8483(10)
_cell_length_c                   17.1223(13)
_cell_angle_alpha                67.991(2)
_cell_angle_beta                 91.517(2)
_cell_angle_gamma                78.046(2)
_cell_volume                     6134.48
loop_
_atom_site_label
_atom_site_type_symbol
_atom_site_fract_x
_atom_site_fract_y
_atom_site_fract_z
Au3 Au 0.36944(2) 0.06432(6) 0.46839(4)
Au5 Au 0.11891(2) 0.34836(5) 0.21865(4)
N11 N 0.1983(4) 0.1303(13) 0.2846(9)
N12 N 0.2862(4) 0.0124(11) 0.3949(9)
N14 N 0.1307(5) 0.0198(13) 0.6928(11)
C13 C 0.2960(7) 0.0525(16) 0.2035(12)
H13 H 0.297070 0.103786 0.231170
C14 C 0.3207(6) 0.0618(17) 0.1358(14)
H14 H 0.337245 0.119473 0.116447
C17 C 0.1696(4) 0.2129(11) 0.2609(9)
C18 C 0.3167(6) 0.0289(14) 0.4259(11)
C19 C 0.1977(5) 0.0242(13) 0.4855(12)
H15 H 0.212005 0.085645 0.460906
C20 C 0.1760(5) 0.0232(14) 0.5518(12)
H16 H 0.174449 0.083515 0.571718
H19 H 0.040543 0.008841 0.848738
C65 C 0.4200(5) 0.1083(12) 0.5115(10)
C69 C 0.0659(4) 0.4769(12) 0.1768(10)
N3 N 0.4508(4) 0.1537(11) 0.6976(9)
N6 N 0.3611(4) 0.0651(11) 0.9668(9)
N7 N 0.3512(5) 0.1833(11) 0.9588(10)
H1 H 0.334175 0.228186 0.909308
H2 H 0.377155 0.204036 0.960168
C3 C 0.4470(5) 0.0443(14) 0.7318(12)
C5 C 0.4052(5) 0.0697(15) 0.8430(11)
C6 C 0.4079(6) 0.1867(14) 0.8071(12)
H9 H 0.394050 0.239349 0.830900
C7 C 0.4309(5) 0.2241(13) 0.7370(10)
H10 H 0.432968 0.302418 0.714967
C8 C 0.3825(5) 0.0194(14) 0.9146(11)
Fe5 Fe 0.48438(7) 0.21162(18) 0.59198(15)
Au4 Au 0.10874(2) 0.84247(6) 0.21695(5)
N10 N 0.1877(4) 0.9069(11) 0.2916(9)
N19 N 0.0248(4) 0.7878(13) 0.1498(9)
C16 C 0.1596(5) 0.8837(15) 0.2646(11)
C31 C 0.0556(5) 0.8083(14) 0.1756(11)
N30 N 0.0351(4) 0.5550(11) 0.1462(9)
Fe6 Fe 0.23704(6) 0.95912(16) 0.34258(13)
C68 C 0.9175(5) 0.6031(14) 0.0107(11)
Au1 Au 0.60330(2) 0.34374(6) 0.71570(5)
Au2 Au 0.35925(2) 0.57991(6) 0.46716(5)
N1 N 0.5217(4) 0.2822(10) 0.6469(9)
N2 N 0.4368(5) 0.3586(12) 0.5439(9)
N5 N 0.3586(6) 0.8831(13) 0.0130(11)
N8 N 0.2710(5) 0.9768(12) 0.2324(9)
N9 N 0.2764(5) 0.7884(14) 0.4000(10)
N13 N 0.2011(4) 0.9445(10) 0.4501(9)
N15 N 0.1074(5) 0.9992(14) 0.7618(11)
N16 N 0.1096(4) 0.8614(12) 0.7156(9)
N17 N 0.1006(5) 0.7618(12) 0.7082(10)
H3 H 0.083327 0.785251 0.658630
H4 H 0.125607 0.713041 0.706130
N18 N 0.0197(4) 0.7722(10) 0.9819(8)
N21 N 0.6289(6) 0.5176(14) 0.1961(12)
N22 N 0.6057(6) 0.4941(14) 0.2655(11)
N23 N 0.6077(5) 0.3554(11) 0.2198(9)
N24 N 0.6000(5) 0.2556(13) 0.2103(11)
H5 H 0.583283 0.281196 0.159996
H6 H 0.625113 0.206836 0.208636
N25 N 0.5177(4) 0.2677(12) 0.4857(10)
C1 C 0.5515(6) 0.3030(15) 0.6725(11)
C2 C 0.4107(6) 0.4383(15) 0.5157(12)
C9 C 0.3464(6) 0.9787(15) 0.0264(11)
C10 C 0.3206(5) 0.9832(14) 0.0967(11)
C11 C 0.2940(6) 0.9052(15) 0.1269(11)
H11 H 0.292128 0.852739 0.100599
C12 C 0.2704(6) 0.9023(13) 0.1940(11)
H12 H 0.253239 0.846314 0.214187
C15 C 0.3069(7) 0.711(2) 0.4254(13)
C21 C 0.1553(5) 0.9318(14) 0.5924(11)
C22 C 0.1586(5) 0.8486(14) 0.5582(11)
H17 H 0.145213 0.785263 0.582643
C23 C 0.1810(5) 0.8576(12) 0.4896(11)
H18 H 0.182668 0.799036 0.467913
C24 C 0.1320(5) 0.9366(15) 0.6650(12)
C25 C 0.0946(5) 0.9007(14) 0.7776(11)
C26 C 0.0692(5) 0.8533(14) 0.8449(11)
C27 C 0.0422(5) 0.9283(15) 0.8744(12)
C28 C 0.0176(6) 0.8865(13) 0.9405(13)
C29 C 0.0457(6) 0.7005(16) 0.9512(12)
H21 H 0.047614 0.620036 0.978308
C30 C 0.0695(7) 0.7373(18) 0.8835(13)
H22 H 0.086066 0.683473 0.863265
C33 C 0.6740(5) 0.5224(14) 0.0557(12)
H24 H 0.673734 0.580227 0.077757
C34 C 0.6525(5) 0.4324(14) 0.0954(11)
C35 C 0.6553(6) 0.3480(15) 0.0610(12)
H25 H 0.641587 0.285179 0.085141
C37 C 0.6303(6) 0.4330(14) 0.1682(11)
C38 C 0.5937(6) 0.3985(16) 0.2779(13)
C39 C 0.5673(6) 0.3478(15) 0.3486(12)
C40 C 0.5416(6) 0.4218(15) 0.3797(12)
H27 H 0.539775 0.502418 0.353859
C41 C 0.5187(6) 0.3795(16) 0.4474(11)
H28 H 0.502450 0.432489 0.468736
C42 C 0.5414(6) 0.1950(14) 0.4557(11)
H29 H 0.540831 0.115653 0.480559
C43 C 0.5674(6) 0.2314(13) 0.3881(13)
H30 H 0.584728 0.176594 0.369702
N26 N 0.4475(4) 0.1390(12) 0.5370(9)
N27 N 0.5312(5) 0.0667(12) 0.6419(9)
Au6 Au 0.61413(2) 0.85393(5) 0.71698(4)
Au7 Au 0.85397(2) 0.08706(5) 0.96597(4)
Au8 Au 0.86496(2) 0.56440(5) 0.96781(4)
Fe4 Fe 0.73176(6) 0.46466(17) 0.84208(13)
N31 N 0.9483(4) 0.6550(11) 0.2035(8)
N32 N 0.8787(5) 0.4055(13) 0.4453(11)
N33 N 0.8559(5) 0.3819(13) 0.5151(10)
N34 N 0.8571(4) 0.5657(13) 0.4685(10)
N35 N 0.8498(6) 0.6796(14) 0.4587(11)
H31 H 0.833117 0.723404 0.408672
H32 H 0.874827 0.705124 0.458022
N36 N 0.7671(4) 0.4782(10) 0.7343(9)
N37 N 0.7714(4) 0.2954(11) 0.8986(8)
N38 N 0.6933(5) 0.6354(12) 0.7845(9)
N39 N 0.7812(4) 0.5123(12) 0.8939(9)
C49 C 0.9458(5) 0.5419(13) 0.2371(11)
H33 H 0.960033 0.491695 0.211758
C50 C 0.9240(5) 0.4985(14) 0.3048(12)
H34 H 0.922815 0.419497 0.325602
C51 C 0.9030(5) 0.5697(15) 0.3443(11)
C52 C 0.9071(6) 0.6833(15) 0.3115(12)
H35 H 0.894552 0.734894 0.337107
C53 C 0.9294(5) 0.7203(16) 0.2416(12)
H36 H 0.931107 0.798905 0.219458
C54 C 0.8801(5) 0.5158(16) 0.4188(12)
C55 C 0.8428(5) 0.4777(16) 0.5287(13)
C56 C 0.8174(5) 0.4847(15) 0.5974(11)
C57 C 0.7896(5) 0.4065(13) 0.6256(12)
H37 H 0.786943 0.355335 0.598540
C58 C 0.7664(5) 0.4061(14) 0.6933(12)
H38 H 0.748574 0.351496 0.712700
C59 C 0.7915(5) 0.5587(16) 0.7017(13)
H39 H 0.790481 0.616086 0.724448
C60 C 0.8178(6) 0.5604(17) 0.6363(12)
H40 H 0.836029 0.614271 0.618684
C61 C 0.8027(4) 0.2166(12) 0.9235(10)
C62 C 0.6662(7) 0.7220(19) 0.7594(12)
C63 C 0.8117(5) 0.5284(14) 0.9235(11)
N40 N 0.6822(5) 0.4091(12) 0.7899(9)
C64 C 0.6539(6) 0.3801(15) 0.7635(11)
Fe7 Fe 0.98443(6) 0.71089(19) 0.09263(14)
N43 N 0.6983(4) 0.4449(11) 0.9527(9)
C66 C 0.5599(6) 0.9917(16) 0.6710(12)
N4 N 0.3819(5) 0.9089(13) 0.9433(10)
H7 H 0.460018 0.993574 0.705800
C4 C 0.4255(5) 0.9999(15) 0.8018(11)
H8 H 0.424499 0.920840 0.822477
C32 C 0.6956(5) 0.5268(14) 0.9842(12)
H23 H 0.708794 0.589855 0.957131
C36 C 0.6788(6) 0.3581(16) 0.9896(12)
H26 H 0.680778 0.300377 0.966912
C67 C 0.9050(4) 0.9515(12) 0.0129(10)
N28 N 0.9336(4) 0.8723(12) 0.0384(9)
N29 N 0.9448(4) 0.6342(11) 0.0335(9)
H20 H 0.998568 0.939969 0.957891
H20_2 H 0.001432 0.060031 0.042109
Au13 Au 0.13504(2) 0.43560(5) 0.03219(4)
Fe3 Fe 0.01557(6) 0.28911(19) 0.90737(14)
N28_2 N 0.0664(4) 0.1277(12) 0.9616(9)
C46 C 0.0950(4) 0.0485(12) 0.9871(10)
N29_2 N 0.0552(4) 0.3658(11) 0.9665(9)
C47 C 0.0825(5) 0.3969(14) 0.9893(11)
N44 N 0.0517(4) 0.3450(11) 0.7965(8)
Au12 Au 0.14603(2) 0.91294(5) 0.03403(4)
C45 C 0.4401(6) 0.0083(16) 0.3290(12)
Au11 Au 0.38587(2) 0.14607(5) 0.28302(4)
N4_2 N 0.6181(5) 0.0911(13) 0.0567(10)
N20 N 0.3017(4) 0.5551(11) 0.0473(9)
H7_2 H 0.539982 0.006426 0.294200
C4_2 C 0.5745(5) 0.0001(15) 0.1982(11)
H8_2 H 0.575501 0.079160 0.177523
C32_2 C 0.3044(5) 0.4732(14) 0.0158(12)
H23_2 H 0.291206 0.410145 0.042869
C36_2 C 0.3212(6) 0.6419(16) 0.0104(12)
H26_2 H 0.319222 0.699623 0.033088
Fe8 Fe 0.26824(6) 0.53534(17) 0.15792(13)
Au1_2 Au 0.39670(2) 0.65626(6) 0.28430(5)
Au2_2 Au 0.64075(2) 0.42009(6) 0.53284(5)
Fe1 Fe 0.51562(7) 0.78838(18) 0.40802(15)
Fe2 Fe 0.76296(6) 0.04088(16) 0.65742(13)
N1_2 N 0.4783(4) 0.7178(10) 0.3531(9)
N2_2 N 0.5632(5) 0.6414(12) 0.4561(9)
N5_2 N 0.6414(6) 0.1169(13) 0.9870(11)
N8_2 N 0.7290(5) 0.0232(12) 0.7676(9)
N9_2 N 0.7236(5) 0.2116(14) 0.6000(10)
N13_2 N 0.7989(4) 0.0555(10) 0.5499(9)
N15_2 N 0.8926(5) 0.0008(14) 0.2382(11)
N16_2 N 0.8904(4) 0.1386(12) 0.2844(9)
N17_2 N 0.8994(5) 0.2382(12) 0.2918(10)
H3_2 H 0.916673 0.214749 0.341370
H4_2 H 0.874393 0.286959 0.293870
N18_2 N 0.9803(4) 0.2278(10) 0.0181(8)
N21_2 N 0.3711(6) 0.4824(14) 0.8039(12)
N22_2 N 0.3943(6) 0.5059(14) 0.7345(11)
N23_2 N 0.3923(5) 0.6446(11) 0.7802(9)
N24_2 N 0.4000(5) 0.7444(13) 0.7897(11)
H5_2 H 0.416717 0.718804 0.840004
H6_2 H 0.374887 0.793164 0.791364
N25_2 N 0.4823(4) 0.7323(12) 0.5143(10)
C1_2 C 0.4485(6) 0.6970(15) 0.3275(11)
C2_2 C 0.5893(6) 0.5617(15) 0.4843(12)
C9_2 C 0.6536(6) 0.0213(15) 0.9736(11)
C10_2 C 0.6794(5) 0.0168(14) 0.9033(11)
C11_2 C 0.7060(6) 0.0948(15) 0.8731(11)
H11_2 H 0.707872 0.147261 0.899401
C12_2 C 0.7296(6) 0.0977(13) 0.8060(11)
H12_2 H 0.746761 0.153686 0.785813
C15_2 C 0.6931(7) 0.289(2) 0.5746(13)
C21_2 C 0.8447(5) 0.0682(14) 0.4076(11)
C22_2 C 0.8414(5) 0.1514(14) 0.4418(11)
H17_2 H 0.854787 0.214737 0.417357
C23_2 C 0.8190(5) 0.1424(12) 0.5104(11)
H18_2 H 0.817332 0.200964 0.532087
C24_2 C 0.8680(5) 0.0634(15) 0.3350(12)
C25_2 C 0.9054(5) 0.0993(14) 0.2224(11)
C26_2 C 0.9308(5) 0.1467(14) 0.1551(11)
C27_2 C 0.9578(5) 0.0717(15) 0.1256(12)
C28_2 C 0.9824(6) 0.1135(13) 0.0595(13)
C29_2 C 0.9543(6) 0.2995(16) 0.0488(12)
H21_2 H 0.952386 0.379964 0.021692
C30_2 C 0.9305(7) 0.2627(18) 0.1165(13)
H22_2 H 0.913934 0.316527 0.136735
C33_2 C 0.3260(5) 0.4776(14) 0.9443(12)
H24_2 H 0.326266 0.419773 0.922243
C34_2 C 0.3475(5) 0.5676(14) 0.9046(11)
C35_2 C 0.3447(6) 0.6520(15) 0.9390(12)
H25_2 H 0.358413 0.714821 0.914859
C37_2 C 0.3697(6) 0.5670(14) 0.8318(11)
C38_2 C 0.4063(6) 0.6015(16) 0.7221(13)
C39_2 C 0.4327(6) 0.6522(15) 0.6514(12)
C40_2 C 0.4584(6) 0.5782(15) 0.6203(12)
H27_2 H 0.460225 0.497582 0.646141
C41_2 C 0.4813(6) 0.6205(16) 0.5526(11)
H28_2 H 0.497550 0.567511 0.531264
C42_2 C 0.4586(6) 0.8050(14) 0.5443(11)
H29_2 H 0.459169 0.884347 0.519441
C43_2 C 0.4326(6) 0.7686(13) 0.6119(13)
H30_2 H 0.415272 0.823406 0.630298
N26_2 N 0.5525(4) 0.8610(12) 0.4630(9)
C44 C 0.5800(5) 0.8917(12) 0.4885(10)
N27_2 N 0.4688(5) 0.9333(12) 0.3581(9)
N32_2 N 0.1213(5) 0.5945(13) 0.5547(11)
N33_2 N 0.1441(5) 0.6181(13) 0.4849(10)
N34_2 N 0.1429(4) 0.4343(13) 0.5315(10)
N35_2 N 0.1502(6) 0.3204(14) 0.5413(11)
H31_2 H 0.166883 0.276596 0.591328
H32_2 H 0.125173 0.294876 0.541978
N36_2 N 0.2329(4) 0.5218(10) 0.2657(9)
N37_2 N 0.2286(4) 0.7046(11) 0.1014(8)
N38_2 N 0.3067(5) 0.3646(12) 0.2155(9)
N39_2 N 0.2188(4) 0.4877(12) 0.1061(9)
C49_2 C 0.0542(5) 0.4581(13) 0.7629(11)
H33_2 H 0.039967 0.508305 0.788242
C50_2 C 0.0760(5) 0.5015(14) 0.6952(12)
H34_2 H 0.077185 0.580503 0.674398
C51_2 C 0.0970(5) 0.4303(15) 0.6557(11)
C52_2 C 0.0929(6) 0.3167(15) 0.6885(12)
H35_2 H 0.105448 0.265106 0.662893
C53_2 C 0.0706(5) 0.2797(16) 0.7584(12)
H36_2 H 0.068893 0.201095 0.780542
C54_2 C 0.1199(5) 0.4842(16) 0.5812(12)
C55_2 C 0.1572(5) 0.5223(16) 0.4713(13)
C56_2 C 0.1826(5) 0.5153(15) 0.4026(11)
C57_2 C 0.2104(5) 0.5935(13) 0.3744(12)
H37_2 H 0.213057 0.644665 0.401460
C58_2 C 0.2336(5) 0.5939(14) 0.3067(12)
H38_2 H 0.251426 0.648504 0.287300
C59_2 C 0.2085(5) 0.4413(16) 0.2983(13)
H39_2 H 0.209519 0.383914 0.275552
C60_2 C 0.1822(6) 0.4396(17) 0.3637(12)
H40_2 H 0.163971 0.385729 0.381316
C61_2 C 0.1973(4) 0.7834(12) 0.0765(10)
C62_2 C 0.3338(7) 0.2780(19) 0.2406(12)
C63_2 C 0.1883(5) 0.4716(14) 0.0765(11)
N40_2 N 0.3178(5) 0.5909(12) 0.2101(9)
C64_2 C 0.3461(6) 0.6199(15) 0.2365(11)
Au9 Au 0.63056(2) 0.93568(6) 0.53161(4)
N41 N 0.5492(4) 0.8463(11) 0.3024(9)
N42 N 0.8123(4) 0.0931(11) 0.7084(9)
Au4_2 Au 0.89126(2) 0.15753(6) 0.78305(5)
N19_2 N 0.9752(4) 0.2122(13) 0.8502(9)
C16_2 C 0.8404(5) 0.1163(15) 0.7354(11)
C31_2 C 0.9444(5) 0.1917(14) 0.8244(11)
N30_2 N 0.9649(4) 0.4450(11) 0.8538(9)
C48 C 0.9341(4) 0.5231(12) 0.8232(10)
Au10 Au 0.88109(2) 0.65164(5) 0.78135(4)
N6_2 N 0.6389(4) 0.9349(11) 0.0332(9)
N7_2 N 0.6488(5) 0.8167(11) 0.0412(10)
H1_2 H 0.665825 0.771814 0.090692
H2_2 H 0.622845 0.795964 0.039832
C3_2 C 0.5530(5) 0.9557(14) 0.2682(12)
C5_2 C 0.5948(5) 0.9303(15) 0.1570(11)
C6_2 C 0.5921(6) 0.8133(14) 0.1929(12)
H9_2 H 0.605950 0.760651 0.169100
C7_2 C 0.5691(5) 0.7759(13) 0.2630(10)
H10_2 H 0.567032 0.697582 0.285033
C8_2 C 0.6175(5) 0.9806(14) 0.0854(11)
N11_2 N 0.8017(4) 0.8697(13) 0.7154(9)
N12_2 N 0.7138(4) 0.9876(11) 0.6051(9)
N14_2 N 0.8693(5) 0.9802(13) 0.3072(11)
C13_2 C 0.7040(7) 0.9475(16) 0.7965(12)
H13_2 H 0.702930 0.896214 0.768830
C14_2 C 0.6793(6) 0.9382(17) 0.8642(14)
H14_2 H 0.662755 0.880527 0.883553
C17_2 C 0.8304(4) 0.7871(11) 0.7391(9)
C18_2 C 0.6833(6) 0.9711(14) 0.5741(11)
C19_2 C 0.8023(5) 0.9758(13) 0.5145(12)
H15_2 H 0.787995 0.914355 0.539094
C20_2 C 0.8240(5) 0.9768(14) 0.4482(12)
H16_2 H 0.825551 0.916485 0.428282
H19_2 H 0.959457 0.991159 0.151262
loop_
_geom_bond_atom_site_label_1
_geom_bond_atom_site_label_2
_geom_bond_site_symmetry_1
_geom_bond_site_symmetry_2
Au3 C18 1_555 1_555
Au5 C17 1_555 1_555
H13 C13 1_555 1_555
H14 C14 1_555 1_555
C17 N11 1_555 1_555
C18 N12 1_555 1_555
H15 C19 1_555 1_555
C20 C19 1_555 1_555
H16 C20 1_555 1_555
C65 Au3 1_555 1_555
C69 Au5 1_555 1_555
C13 C14 1_555 1_555
N3 C3 1_555 1_555
N6 N7 1_555 1_555
N7 H1 1_555 1_555
H2 N7 1_555 1_555
C6 C5 1_555 1_555
H9 C6 1_555 1_555
C7 N3 1_555 1_555
H10 C7 1_555 1_555
Fe5 N3 1_555 1_555
N6 C8 1_555 1_555
C5 C8 1_555 1_555
C6 C7 1_555 1_555
Au4 C16 1_555 1_555
N10 C16 1_555 1_555
C31 Au4 1_555 1_555
C69 N30 1_555 1_555
Fe6 N10 1_555 1_555
N19 C31 1_555 1_555
Au1 C1 1_555 1_555
Au2 C2 1_555 1_555
Fe5 N1 1_555 1_555
Fe6 N8 1_555 1_555
N1 C1 1_555 1_555
N2 Fe5 1_555 1_555
N5 C9 1_555 1_555
N8 C12 1_555 1_555
N9 Fe6 1_555 1_555
N13 Fe6 1_555 1_555
N15 C25 1_555 1_555
N16 N17 1_555 1_555
N17 H3 1_555 1_555
H4 N17 1_555 1_555
N18 C28 1_555 1_555
N21 N22 1_555 1_555
N22 C38 1_555 1_555
N23 N24 1_555 1_555
N24 H5 1_555 1_555
H6 N24 1_555 1_555
N25 Fe5 1_555 1_555
C2 N2 1_555 1_555
C10 C9 1_555 1_555
C11 C10 1_555 1_555
H11 C11 1_555 1_555
C12 C11 1_555 1_555
H12 C12 1_555 1_555
C15 Au2 1_555 1_555
C22 C21 1_555 1_555
H17 C22 1_555 1_555
C23 N13 1_555 1_555
H18 C23 1_555 1_555
C25 N16 1_555 1_555
C26 C25 1_555 1_555
C27 C26 1_555 1_555
C28 C27 1_555 1_555
C29 N18 1_555 1_555
H21 C29 1_555 1_555
C30 C26 1_555 1_555
H22 C30 1_555 1_555
H24 C33 1_555 1_555
C34 C33 1_555 1_555
C35 C34 1_555 1_555
H25 C35 1_555 1_555
C37 N21 1_555 1_555
C38 N23 1_555 1_555
C39 C38 1_555 1_555
C40 C39 1_555 1_555
H27 C40 1_555 1_555
C41 N25 1_555 1_555
H28 C41 1_555 1_555
C42 N25 1_555 1_555
H29 C42 1_555 1_555
C43 C39 1_555 1_555
H30 C43 1_555 1_555
N26 Fe5 1_555 1_555
C65 N26 1_555 1_555
N27 Fe5 1_555 1_555
Au6 C62 1_555 1_555
Au7 C61 1_555 1_555
Au8 C63 1_555 1_555
Fe4 N36 1_555 1_555
N31 C49 1_555 1_555
N32 N33 1_555 1_555
N33 C55 1_555 1_555
N34 N35 1_555 1_555
N35 H31 1_555 1_555
H32 N35 1_555 1_555
N36 C58 1_555 1_555
N37 Fe4 1_555 1_555
N38 Fe4 1_555 1_555
N39 Fe4 1_555 1_555
C49 H33 1_555 1_555
C50 C49 1_555 1_555
H34 C50 1_555 1_555
C51 C50 1_555 1_555
C52 C51 1_555 1_555
H35 C52 1_555 1_555
C53 N31 1_555 1_555
H36 C53 1_555 1_555
C54 N32 1_555 1_555
C55 N34 1_555 1_555
C56 C55 1_555 1_555
C57 C56 1_555 1_555
H37 C57 1_555 1_555
C58 C57 1_555 1_555
H38 C58 1_555 1_555
C59 N36 1_555 1_555
H39 C59 1_555 1_555
C60 C56 1_555 1_555
H40 C60 1_555 1_555
C61 N37 1_555 1_555
C62 N38 1_555 1_555
C63 N39 1_555 1_555
N40 Fe4 1_555 1_555
C64 Au1 1_555 1_555
Fe7 N31 1_555 1_555
N43 Fe4 1_555 1_555
C66 Au6 1_555 1_555
N9 C15 1_555 1_555
N16 C24 1_555 1_555
N23 C37 1_555 1_555
C21 C24 1_555 1_555
C22 C23 1_555 1_555
C29 C30 1_555 1_555
C34 C37 1_555 1_555
C40 C41 1_555 1_555
C42 C43 1_555 1_555
N34 C54 1_555 1_555
C51 C54 1_555 1_555
C52 C53 1_555 1_555
C59 C60 1_555 1_555
N40 C64 1_555 1_555
N43 C32 1_555 1_555
H8 C4 1_555 1_555
C32 H23 1_555 1_555
C36 N43 1_555 1_555
H26 C36 1_555 1_555
N28 Fe7 1_555 1_555
C67 N28 1_555 1_555
N29 Fe7 1_555 1_555
C68 N29 1_555 1_555
N28_2 Fe3 1_555 1_555
C46 N28_2 1_555 1_555
N29_2 Fe3 1_555 1_555
C47 N29_2 1_555 1_555
N44 Fe3 1_555 1_555
Au11 C45 1_555 1_555
N20 C32_2 1_555 1_555
H8_2 C4_2 1_555 1_555
C32_2 H23_2 1_555 1_555
C36_2 N20 1_555 1_555
H26_2 C36_2 1_555 1_555
Fe8 N20 1_555 1_555
Au1_2 C1_2 1_555 1_555
Au2_2 C2_2 1_555 1_555
Fe1 N1_2 1_555 1_555
Fe2 N8_2 1_555 1_555
N1_2 C1_2 1_555 1_555
N2_2 Fe1 1_555 1_555
N5_2 C9_2 1_555 1_555
N8_2 C12_2 1_555 1_555
N9_2 Fe2 1_555 1_555
N13_2 Fe2 1_555 1_555
N15_2 C25_2 1_555 1_555
N16_2 N17_2 1_555 1_555
N17_2 H3_2 1_555 1_555
H4_2 N17_2 1_555 1_555
N18_2 C28_2 1_555 1_555
N21_2 N22_2 1_555 1_555
N22_2 C38_2 1_555 1_555
N23_2 N24_2 1_555 1_555
N24_2 H5_2 1_555 1_555
H6_2 N24_2 1_555 1_555
N25_2 Fe1 1_555 1_555
C2_2 N2_2 1_555 1_555
C10_2 C9_2 1_555 1_555
C11_2 C10_2 1_555 1_555
H11_2 C11_2 1_555 1_555
C12_2 C11_2 1_555 1_555
H12_2 C12_2 1_555 1_555
C15_2 Au2_2 1_555 1_555
C22_2 C21_2 1_555 1_555
H17_2 C22_2 1_555 1_555
C23_2 N13_2 1_555 1_555
H18_2 C23_2 1_555 1_555
C25_2 N16_2 1_555 1_555
C26_2 C25_2 1_555 1_555
C27_2 C26_2 1_555 1_555
C28_2 C27_2 1_555 1_555
C29_2 N18_2 1_555 1_555
H21_2 C29_2 1_555 1_555
C30_2 C26_2 1_555 1_555
H22_2 C30_2 1_555 1_555
H24_2 C33_2 1_555 1_555
C34_2 C33_2 1_555 1_555
C35_2 C34_2 1_555 1_555
H25_2 C35_2 1_555 1_555
C37_2 N21_2 1_555 1_555
C38_2 N23_2 1_555 1_555
C39_2 C38_2 1_555 1_555
C40_2 C39_2 1_555 1_555
H27_2 C40_2 1_555 1_555
C41_2 N25_2 1_555 1_555
H28_2 C41_2 1_555 1_555
C42_2 N25_2 1_555 1_555
H29_2 C42_2 1_555 1_555
C43_2 C39_2 1_555 1_555
H30_2 C43_2 1_555 1_555
N26_2 Fe1 1_555 1_555
C44 N26_2 1_555 1_555
N27_2 Fe1 1_555 1_555
Au11 C62_2 1_555 1_555
Au12 C61_2 1_555 1_555
Au13 C63_2 1_555 1_555
Fe8 N36_2 1_555 1_555
N44 C49_2 1_555 1_555
N32_2 N33_2 1_555 1_555
N33_2 C55_2 1_555 1_555
N34_2 N35_2 1_555 1_555
N35_2 H31_2 1_555 1_555
H32_2 N35_2 1_555 1_555
N36_2 C58_2 1_555 1_555
N37_2 Fe8 1_555 1_555
N38_2 Fe8 1_555 1_555
N39_2 Fe8 1_555 1_555
C49_2 H33_2 1_555 1_555
C50_2 C49_2 1_555 1_555
H34_2 C50_2 1_555 1_555
C51_2 C50_2 1_555 1_555
C52_2 C51_2 1_555 1_555
H35_2 C52_2 1_555 1_555
C53_2 N44 1_555 1_555
H36_2 C53_2 1_555 1_555
C54_2 N32_2 1_555 1_555
C55_2 N34_2 1_555 1_555
C56_2 C55_2 1_555 1_555
C57_2 C56_2 1_555 1_555
H37_2 C57_2 1_555 1_555
C58_2 C57_2 1_555 1_555
H38_2 C58_2 1_555 1_555
C59_2 N36_2 1_555 1_555
H39_2 C59_2 1_555 1_555
C60_2 C56_2 1_555 1_555
H40_2 C60_2 1_555 1_555
C61_2 N37_2 1_555 1_555
C62_2 N38_2 1_555 1_555
C63_2 N39_2 1_555 1_555
N40_2 Fe8 1_555 1_555
C64_2 Au1_2 1_555 1_555
Au9 C44 1_555 1_555
N41 Fe1 1_555 1_555
N42 Fe2 1_555 1_555
N9_2 C15_2 1_555 1_555
N16_2 C24_2 1_555 1_555
N23_2 C37_2 1_555 1_555
C21_2 C24_2 1_555 1_555
C22_2 C23_2 1_555 1_555
C29_2 C30_2 1_555 1_555
C34_2 C37_2 1_555 1_555
C40_2 C41_2 1_555 1_555
C42_2 C43_2 1_555 1_555
N34_2 C54_2 1_555 1_555
C51_2 C54_2 1_555 1_555
C52_2 C53_2 1_555 1_555
C59_2 C60_2 1_555 1_555
N40_2 C64_2 1_555 1_555
Au4_2 C16_2 1_555 1_555
N42 C16_2 1_555 1_555
C31_2 Au4_2 1_555 1_555
C48 N30_2 1_555 1_555
Au10 C48 1_555 1_555
N19_2 C31_2 1_555 1_555
N41 C3_2 1_555 1_555
N6_2 N7_2 1_555 1_555
N7_2 H1_2 1_555 1_555
H2_2 N7_2 1_555 1_555
C6_2 C5_2 1_555 1_555
H9_2 C6_2 1_555 1_555
C7_2 N41 1_555 1_555
H10_2 C7_2 1_555 1_555
N6_2 C8_2 1_555 1_555
C5_2 C8_2 1_555 1_555
C6_2 C7_2 1_555 1_555
Au9 C18_2 1_555 1_555
Au10 C17_2 1_555 1_555
H13_2 C13_2 1_555 1_555
H14_2 C14_2 1_555 1_555
C17_2 N11_2 1_555 1_555
C18_2 N12_2 1_555 1_555
H15_2 C19_2 1_555 1_555
C20_2 C19_2 1_555 1_555
H16_2 C20_2 1_555 1_555
C13_2 C14_2 1_555 1_555

#END
