
###############################################################################
#
# This file contains modified crystal structure data generated from the
# MOF subset of the Cambridge Structural Database (CSD) v543 
# hosted by the Cambridge Crystallographic Data Centre (CCDC).
#
# This work is licensed under the Creative Commons
# Attribution-NonCommercial-ShareAlike 4.0 International License.
# To view a copy of this license, visit
# http://creativecommons.org/licenses/by-nc-sa/4.0/
# or send a letter to
# Creative Commons, PO Box 1866, Mountain View, CA 94042, USA.
#
# CIF created using the CSD Python API on 29 September 2022
# The structure has been converted into the P1 space group
# The structure has a 3D framework
# The original CSD entry YOQKEX06 is in the triclinic crystal system
# The framework has been calculated to contain at least 10.0% void space
# The void calculation uses a probe of radius 1.32A, grid spacing 0.4
#
###############################################################################

data_YOQKEX06
_chemical_formula_moiety         '(C128 H80 Au16 Fe8 N80)n'
_symmetry_cell_setting           triclinic
_symmetry_space_group_name_H-M   'P 1'
_symmetry_Int_Tables_number      1
_space_group_name_Hall           'P 1'
loop_
_symmetry_equiv_pos_site_id
_symmetry_equiv_pos_as_xyz
1 x,y,z
_cell_length_a                   30.1367(18)
_cell_length_b                   12.8338(8)
_cell_length_c                   17.0959(10)
_cell_angle_alpha                67.9813(19)
_cell_angle_beta                 79.4822(19)
_cell_angle_gamma                77.8143(19)
_cell_volume                     5952.62
loop_
_atom_site_label
_atom_site_type_symbol
_atom_site_fract_x
_atom_site_fract_y
_atom_site_fract_z
Fe10 Fe 0.01541(9) 0.6959(2) 0.59263(19)
Au4 Au 0.13631(2) 0.42909(6) 0.46670(5)
N33 N 0.0554(6) 0.5820(14) 0.5339(11)
C51 C 0.0835(7) 0.5200(17) 0.5115(14)
N44 N 0.0668(5) 0.8012(14) 0.5424(11)
N46 N 0.0517(5) 0.6060(11) 0.7007(11)
C65 C 0.1912(6) 0.3368(16) 0.4204(13)
Au3 Au 0.38511(2) 0.46730(6) 0.21711(5)
Fe1 Fe 0.26841(7) 0.19430(18) 0.34184(15)
N1 N 0.2303(5) 0.0747(12) 0.3954(10)
N2 N 0.3170(4) 0.0955(11) 0.2930(9)
N3 N 0.3054(4) 0.3208(12) 0.2881(10)
N4 N 0.2206(5) 0.2890(14) 0.3901(11)
N5 N 0.3016(4) 0.1430(11) 0.4483(10)
N6 N 0.3699(6) 0.1424(13) 0.6951(12)
N7 N 0.3925(6) 0.0955(14) 0.7667(11)
N37 N 0.1445(6) 0.2417(15) 0.0159(11)
N40 N 0.2354(5) 0.2449(11) 0.2369(10)
C1 C 0.2003(6) 0.0239(14) 0.4201(12)
C2 C 0.3442(5) 0.0401(14) 0.2655(11)
C3 C 0.3331(5) 0.3770(15) 0.2611(12)
C5 C 0.3044(6) 0.2211(15) 0.4825(13)
H9 H 0.2906 0.2977 0.4565
C6 C 0.3258(6) 0.1944(15) 0.5519(14)
H10 H 0.3270 0.2523 0.5732
C7 C 0.3464(5) 0.0827(12) 0.5931(11)
C9 C 0.3214(6) 0.0365(15) 0.4873(12)
C10 C 0.3685(6) 0.0594(15) 0.6697(13)
H13 H 0.4582 0.0403 0.8590
C59 C 0.1568(7) 0.3237(18) 0.0301(15)
C60 C 0.1842(6) 0.3061(16) 0.0978(14)
C61 C 0.2084(6) 0.1952(15) 0.1335(13)
H37 H 0.2070 0.1368 0.1129
C62 C 0.2341(6) 0.1733(15) 0.1989(15)
H38 H 0.2523 0.1005 0.2181
C63 C 0.2114(7) 0.3490(14) 0.2069(12)
H39 H 0.2120 0.4030 0.2322
C64 C 0.1850(7) 0.3814(17) 0.1381(14)
H40 H 0.1677 0.4556 0.1195
C66 C 0.4390(5) 0.5519(16) 0.1699(11)
N36 N 0.1213(7) 0.2887(15) 0.9450(13)
N38 N 0.1431(6) 0.4277(15) 0.9685(12)
N39 N 0.1515(6) 0.5359(13) 0.9591(12)
H7 H 0.1259 0.5864 0.9561
H8 H 0.1689 0.5602 0.9101
C53 C 0.0541(7) 0.4907(16) 0.7320(14)
H33 H 0.0405 0.4541 0.7055
C54 C 0.0764(7) 0.4277(17) 0.8025(14)
H34 H 0.0776 0.3475 0.8238
C55 C 0.0977(6) 0.4762(16) 0.8448(14)
C56 C 0.0941(7) 0.5953(18) 0.8103(14)
H35 H 0.1081 0.6344 0.8342
C57 C 0.0695(7) 0.6564(16) 0.7400(13)
H36 H 0.0654 0.7372 0.7198
C58 C 0.1206(7) 0.4012(17) 0.9186(15)
C67 C 0.6945(5) 0.0217(16) 0.9230(12)
Fe5 Fe 0.51551(7) 0.6963(2) 0.09184(17)
Au1 Au 0.14714(3) 0.94012(6) 0.46555(6)
Au2 Au 0.39695(2) 0.94914(6) 0.21545(5)
N8 N 0.3906(5) 0.9576(12) 0.7208(10)
N9 N 0.3983(6) 0.8510(13) 0.7118(12)
H1 H 0.3727 0.8295 0.7084
H2 H 0.4159 0.8572 0.6631
N10 N 0.4832(4) 0.7816(11) 0.9893(9)
N11 N 0.4778(4) 0.8024(11) 0.1444(9)
N12 N 0.5631(5) 0.7932(11) 0.0434(10)
N13 N 0.5516(5) 0.5901(12) 0.0399(10)
N14 N 0.4694(4) 0.6008(11) 0.1389(10)
N15 N 0.5481(4) 0.6099(12) 0.1958(10)
N16 N 0.6172(5) 0.2961(13) 0.4443(11)
N17 N 0.6408(6) 0.2471(13) 0.5138(12)
N18 N 0.6393(5) 0.4313(13) 0.4678(11)
N19 N 0.6483(6) 0.5399(14) 0.4593(11)
H3 H 0.6227 0.5905 0.4564
H4 H 0.6659 0.5652 0.4107
N20 N 0.7293(5) 0.2497(13) 0.7371(11)
N26 N 0.8665(6) 0.1466(16) 0.1929(13)
N27 N 0.8904(7) 0.1025(15) 0.2618(14)
C8 C 0.3430(5) 0.9992(14) 0.5598(11)
H11 H 0.3551 0.9213 0.5861
H12 H 0.3205 0.9816 0.4630
C11 C 0.4061(6) 0.9850(14) 0.7788(13)
C12 C 0.4314(6) 0.9129(16) 0.8499(13)
C13 C 0.4569(6) 0.9610(15) 0.8833(14)
C14 C 0.4803(6) 0.8947(14) 0.9511(11)
H14 H 0.4960 0.9324 0.9733
C15 C 0.4601(6) 0.7315(17) 0.9553(13)
H15 H 0.4615 0.6512 0.9788
C16 C 0.4341(5) 0.7933(15) 0.8871(14)
H16 H 0.4183 0.7545 0.8659
C17 C 0.4483(5) 0.8561(14) 0.1722(12)
C18 C 0.5894(6) 0.8500(14) 0.0158(11)
C19 C 0.5801(6) 0.5293(14) 0.0107(11)
C21 C 0.5525(5) 0.4959(14) 0.2306(13)
H17 H 0.5390 0.4579 0.2051
C22 C 0.5748(5) 0.4309(15) 0.2994(13)
H18 H 0.5768 0.3504 0.3195
C23 C 0.5946(6) 0.4816(15) 0.3405(13)
C24 C 0.5908(5) 0.5987(16) 0.3068(14)
H19 H 0.6035 0.6383 0.3323
C25 C 0.5684(6) 0.6578(16) 0.2352(14)
H20 H 0.5672 0.7381 0.2121
C26 C 0.6164(6) 0.4089(16) 0.4148(14)
C27 C 0.6544(6) 0.3310(15) 0.5271(12)
C28 C 0.6795(6) 0.3087(15) 0.6003(13)
C29 C 0.7046(6) 0.1998(16) 0.6306(14)
H21 H 0.7059 0.1462 0.6038
C30 C 0.7274(6) 0.1721(15) 0.7001(12)
H22 H 0.7425 0.0962 0.7237
C31 C 0.7064(6) 0.3547(17) 0.7010(16)
H23 H 0.7074 0.4104 0.7246
C32 C 0.6824(6) 0.3879(17) 0.6351(15)
H24 H 0.6676 0.4643 0.6126
C38 C 0.8241(6) 0.1964(14) 0.0497(14)
H26 H 0.8274 0.2544 0.0691
C39 C 0.8430(6) 0.083(2) 0.0913(17)
C40 C 0.8402(6) 0.0085(15) 0.0529(14)
C42 C 0.8669(7) 0.0634(17) 0.1619(15)
H29 H 0.9579 0.0450 0.3511
C50 C 0.0965(6) 0.8542(18) 0.5119(13)
Fe6 Fe 0.76260(7) 0.19835(17) 0.84267(15)
Au5 Au 0.64205(2) 0.93845(6) 0.96610(5)
Au6 Au 0.63103(2) 0.43424(6) 0.96795(5)
Au8 Au 0.87988(2) 0.46671(6) 0.71879(5)
N21 N 0.7241(4) 0.0743(13) 0.8966(10)
N22 N 0.8088(5) 0.1007(13) 0.7960(11)
N23 N 0.8005(5) 0.3218(13) 0.7884(10)
N24 N 0.7144(4) 0.2953(11) 0.8933(9)
N25 N 0.7963(5) 0.1473(12) 0.9466(10)
N34 N 0.9643(6) 0.5943(14) 0.6448(11)
C34 C 0.8380(7) 0.0506(18) 0.7661(16)
C35 C 0.8277(6) 0.3774(15) 0.7647(13)
C36 C 0.6838(5) 0.3445(13) 0.9243(10)
C37 C 0.8007(5) 0.2237(15) 0.9812(12)
H25 H 0.7869 0.3005 0.9564
C41 C 0.8167(6) 0.0379(15) 0.9861(12)
C52 C 0.9331(6) 0.5466(14) 0.6761(14)
N28 N 0.8900(5) 0.9678(14) 0.2142(11)
N29 N 0.8996(7) 0.8578(14) 0.2058(14)
H5 H 0.8741 0.8364 0.2014
H6 H 0.9177 0.8638 0.1576
N30 N 0.9803(5) 0.7877(13) 0.4829(12)
H27 H 0.8556 0.9325 0.0745
C43 C 0.9032(7) 0.9923(17) 0.2759(13)
C44 C 0.9297(6) 0.9162(15) 0.3466(12)
C45 C 0.9567(7) 0.9658(17) 0.3773(15)
C46 C 0.9810(7) 0.9034(18) 0.4434(18)
H30 H 0.9988 0.9395 0.4631
C47 C 0.9566(7) 0.7391(15) 0.4521(14)
H31 H 0.9577 0.6589 0.4765
C48 C 0.9302(7) 0.7991(17) 0.3863(16)
H32 H 0.9126 0.7609 0.3681
Au7 Au 0.88999(3) 0.95401(6) 0.71713(5)
N31 N 0.9753(6) 0.8087(14) 0.6485(11)
H28 H 0.8140 0.9805 0.9654
C49 C 0.9436(7) 0.8634(19) 0.6749(13)
Au7_2 Au 0.11001(3) 0.04599(6) 0.28287(5)
N31_2 N 0.0247(6) 0.1913(14) 0.3515(11)
H28_2 H 0.1860 0.0195 0.0346
C49_2 C 0.0564(7) 0.1366(19) 0.3251(13)
Au11 Au 0.35795(2) 0.06155(6) 0.03390(5)
N43 N 0.0197(5) 0.2123(13) 0.5171(12)
N45 N 0.0357(6) 0.4057(14) 0.3552(11)
N28_2 N 0.1100(5) 0.0322(14) 0.7858(11)
N29_2 N 0.1004(7) 0.1422(14) 0.7942(14)
H5_2 H 0.1259 0.1636 0.7986
H6_2 H 0.0823 0.1362 0.8424
H27_2 H 0.1444 0.0675 0.9255
C43_2 C 0.0968(7) 0.0077(17) 0.7241(13)
C44_2 C 0.0703(6) 0.0838(15) 0.6534(12)
C45_2 C 0.0433(7) 0.0342(17) 0.6227(15)
C46_2 C 0.0190(7) 0.0966(18) 0.5566(18)
H30_2 H 0.0012 0.0605 0.5369
C47_2 C 0.0434(7) 0.2609(15) 0.5479(14)
H31_2 H 0.0423 0.3411 0.5235
C48_2 C 0.0698(7) 0.2009(17) 0.6137(16)
H32_2 H 0.0874 0.2391 0.6319
Au6_2 Au 0.36897(2) 0.56576(6) 0.03205(5)
Au8_2 Au 0.12012(2) 0.53329(6) 0.28121(5)
Fe3 Fe 0.23740(7) 0.80165(17) 0.15733(15)
N21_2 N 0.2759(4) 0.9257(13) 0.1034(10)
N22_2 N 0.1912(5) 0.8993(13) 0.2040(11)
N23_2 N 0.1995(5) 0.6782(13) 0.2116(10)
N24_2 N 0.2856(4) 0.7047(11) 0.1067(9)
N25_2 N 0.2037(5) 0.8527(12) 0.0534(10)
C33 C 0.3055(5) 0.9783(16) 0.0770(12)
C34_2 C 0.1620(7) 0.9494(18) 0.2339(16)
C35_2 C 0.1723(6) 0.6226(15) 0.2353(13)
C36_2 C 0.3162(5) 0.6555(13) 0.0757(10)
C37_2 C 0.1993(5) 0.7763(15) 0.0188(12)
H25_2 H 0.2131 0.6995 0.0436
C41_2 C 0.1833(6) 0.9621(15) 0.0139(12)
C52_2 C 0.0669(6) 0.4534(14) 0.3239(14)
N41 N 0.5168(4) 0.2184(11) 0.0107(9)
N42 N 0.2707(5) 0.7503(13) 0.2629(11)
Au1_2 Au 0.85286(3) 0.05988(6) 0.53445(6)
Au2_2 Au 0.60305(2) 0.05086(6) 0.78455(5)
Fe2 Fe 0.48449(7) 0.3037(2) 0.90816(17)
N8_2 N 0.6094(5) 0.0424(12) 0.2792(10)
N9_2 N 0.6017(6) 0.1490(13) 0.2882(12)
H1_2 H 0.6273 0.1705 0.2916
H2_2 H 0.5841 0.1428 0.3369
N11_2 N 0.5222(4) 0.1976(11) 0.8556(9)
N12_2 N 0.4369(5) 0.2068(11) 0.9566(10)
N13_2 N 0.4484(5) 0.4099(12) 0.9601(10)
N14_2 N 0.5306(4) 0.3992(11) 0.8611(10)
N15_2 N 0.4519(4) 0.3901(12) 0.8042(10)
N16_2 N 0.3828(5) 0.7039(13) 0.5557(11)
N17_2 N 0.3592(6) 0.7529(13) 0.4862(12)
N18_2 N 0.3607(5) 0.5687(13) 0.5322(11)
N19_2 N 0.3517(6) 0.4601(14) 0.5407(11)
H3_2 H 0.3773 0.4095 0.5436
H4_2 H 0.3341 0.4348 0.5893
N26_2 N 0.1335(6) 0.8534(16) 0.8071(13)
N27_2 N 0.1096(7) 0.8975(15) 0.7382(14)
N32 N 0.9332(5) 0.1988(14) 0.4576(11)
C8_2 C 0.6570(5) 0.0008(14) 0.4402(11)
H11_2 H 0.6449 0.0787 0.4139
H12_2 H 0.6795 0.0184 0.5370
C11_2 C 0.5939(6) 0.0150(14) 0.2212(13)
C12_2 C 0.5686(6) 0.0871(16) 0.1501(13)
C13_2 C 0.5431(6) 0.0390(15) 0.1167(14)
C14_2 C 0.5197(6) 0.1053(14) 0.0489(11)
H14_2 H 0.5040 0.0676 0.0267
C15_2 C 0.5399(6) 0.2685(17) 0.0447(13)
H15_2 H 0.5385 0.3488 0.0212
C16_2 C 0.5659(5) 0.2067(15) 0.1129(14)
H16_2 H 0.5817 0.2455 0.1341
C17_2 C 0.5517(5) 0.1439(14) 0.8278(12)
C18_2 C 0.4106(6) 0.1500(14) 0.9842(11)
C19_2 C 0.4199(6) 0.4707(14) 0.9893(11)
C20 C 0.5610(5) 0.4481(16) 0.8301(11)
C21_2 C 0.4475(5) 0.5041(14) 0.7694(13)
H17_2 H 0.4610 0.5421 0.7949
C22_2 C 0.4252(5) 0.5691(15) 0.7006(13)
H18_2 H 0.4232 0.6496 0.6805
C23_2 C 0.4054(6) 0.5184(15) 0.6595(13)
C24_2 C 0.4092(5) 0.4013(16) 0.6932(14)
H19_2 H 0.3965 0.3617 0.6677
C25_2 C 0.4316(6) 0.3422(16) 0.7648(14)
H20_2 H 0.4328 0.2619 0.7879
C26_2 C 0.3836(6) 0.5911(16) 0.5852(14)
C27_2 C 0.3456(6) 0.6690(15) 0.4729(12)
C28_2 C 0.3205(6) 0.6913(15) 0.3997(13)
C29_2 C 0.2954(6) 0.8002(16) 0.3694(14)
H21_2 H 0.2941 0.8538 0.3962
C30_2 C 0.2726(6) 0.8279(15) 0.2999(12)
H22_2 H 0.2575 0.9038 0.2763
C31_2 C 0.2936(6) 0.6453(17) 0.2990(16)
H23_2 H 0.2926 0.5896 0.2754
C32_2 C 0.3176(6) 0.6121(17) 0.3649(15)
H24_2 H 0.3324 0.5357 0.3874
C38_2 C 0.1759(6) 0.8036(14) 0.9503(14)
H26_2 H 0.1726 0.7456 0.9309
C39_2 C 0.1570(6) 0.917(2) 0.9087(17)
C40_2 C 0.1598(6) 0.9915(15) 0.9471(14)
C42_2 C 0.1331(7) 0.9366(17) 0.8381(15)
H29_2 H 0.0421 0.9550 0.6489
C50_2 C 0.9035(6) 0.1458(18) 0.4881(13)
Au9 Au 0.61489(2) 0.53270(6) 0.78289(5)
Fe7 Fe 0.98459(9) 0.3041(2) 0.40737(19)
N35 N 0.9483(5) 0.3940(11) 0.2993(11)
N36_2 N 0.8787(7) 0.7113(15) 0.0550(13)
N38_2 N 0.8569(6) 0.5723(15) 0.0315(12)
N39_2 N 0.8485(6) 0.4641(13) 0.0409(12)
H7_2 H 0.8741 0.4136 0.0439
H8_2 H 0.8311 0.4398 0.0899
C53_2 C 0.9459(7) 0.5093(16) 0.2680(14)
H33_2 H 0.9595 0.5459 0.2945
C54_2 C 0.9236(7) 0.5723(17) 0.1975(14)
H34_2 H 0.9224 0.6525 0.1762
C55_2 C 0.9023(6) 0.5238(16) 0.1552(14)
C56_2 C 0.9059(7) 0.4047(18) 0.1897(14)
H35_2 H 0.8919 0.3656 0.1658
C57_2 C 0.9305(7) 0.3436(16) 0.2600(13)
H36_2 H 0.9346 0.2628 0.2802
C58_2 C 0.8794(7) 0.5988(17) 0.0814(15)
Fe1_2 Fe 0.73159(7) 0.80570(18) 0.65816(15)
N1_2 N 0.7697(5) 0.9253(12) 0.6046(10)
N2_2 N 0.6830(4) 0.9045(11) 0.7070(9)
N3_2 N 0.6946(4) 0.6792(12) 0.7119(10)
N4_2 N 0.7794(5) 0.7110(14) 0.6099(11)
N5_2 N 0.6984(4) 0.8570(11) 0.5517(10)
N6_2 N 0.6301(6) 0.8576(13) 0.3049(12)
N7_2 N 0.6075(6) 0.9045(14) 0.2333(11)
N37_2 N 0.8555(6) 0.7583(15) 0.9841(11)
N40_2 N 0.7646(5) 0.7551(11) 0.7631(10)
C1_2 C 0.7997(6) 0.9761(14) 0.5799(12)
C2_2 C 0.6558(5) 0.9599(14) 0.7345(11)
C3_2 C 0.6669(5) 0.6230(15) 0.7389(12)
C4 C 0.8088(6) 0.6632(16) 0.5796(13)
C5_2 C 0.6956(6) 0.7789(15) 0.5175(13)
H9_2 H 0.7094 0.7023 0.5435
C6_2 C 0.6742(6) 0.8056(15) 0.4481(14)
H10_2 H 0.6730 0.7477 0.4268
C7_2 C 0.6536(5) 0.9173(12) 0.4069(11)
C9_2 C 0.6786(6) 0.9635(15) 0.5127(12)
C10_2 C 0.6315(6) 0.9406(15) 0.3303(13)
H13_2 H 0.5418 0.9597 0.1410
C59_2 C 0.8432(7) 0.6763(18) 0.9699(15)
C60_2 C 0.8158(6) 0.6939(16) 0.9022(14)
C61_2 C 0.7916(6) 0.8048(15) 0.8665(13)
H37_2 H 0.7930 0.8632 0.8871
C62_2 C 0.7659(6) 0.8267(15) 0.8011(15)
H38_2 H 0.7477 0.8995 0.7819
C63_2 C 0.7886(7) 0.6510(14) 0.7931(12)
H39_2 H 0.7880 0.5970 0.7678
C64_2 C 0.8150(7) 0.6186(17) 0.8619(14)
H40_2 H 0.8323 0.5444 0.8805
Au10 Au 0.86369(2) 0.57091(6) 0.53330(5)
N33_2 N 0.9446(6) 0.4180(14) 0.4661(11)
C51_2 C 0.9165(7) 0.4800(17) 0.4885(14)
loop_
_geom_bond_atom_site_label_1
_geom_bond_atom_site_label_2
_geom_bond_site_symmetry_1
_geom_bond_site_symmetry_2
Au4 C51 1_555 1_555
N33 Fe10 1_555 1_555
C51 N33 1_555 1_555
N44 Fe10 1_555 1_555
N46 Fe10 1_555 1_555
C65 Au4 1_555 1_555
Au3 C3 1_555 1_555
Fe1 N1 1_555 1_555
N1 C1 1_555 1_555
N2 Fe1 1_555 1_555
N3 Fe1 1_555 1_555
N4 Fe1 1_555 1_555
N5 Fe1 1_555 1_555
N6 N7 1_555 1_555
N37 C59 1_555 1_555
N40 Fe1 1_555 1_555
C2 N2 1_555 1_555
C3 N3 1_555 1_555
C65 N4 1_555 1_555
C5 N5 1_555 1_555
H9 C5 1_555 1_555
C6 C5 1_555 1_555
H10 C6 1_555 1_555
C7 C6 1_555 1_555
C9 N5 1_555 1_555
C10 N6 1_555 1_555
C60 C59 1_555 1_555
C61 C60 1_555 1_555
H37 C61 1_555 1_555
C62 N40 1_555 1_555
H38 C62 1_555 1_555
C63 N40 1_555 1_555
H39 C63 1_555 1_555
C64 C60 1_555 1_555
H40 C64 1_555 1_555
C66 Au3 1_555 1_555
C7 C10 1_555 1_555
C61 C62 1_555 1_555
C63 C64 1_555 1_555
N46 C53 1_555 1_555
N38 N39 1_555 1_555
N39 H7 1_555 1_555
H8 N39 1_555 1_555
C53 H33 1_555 1_555
C54 C53 1_555 1_555
H34 C54 1_555 1_555
C55 C54 1_555 1_555
C56 C55 1_555 1_555
H35 C56 1_555 1_555
C57 N46 1_555 1_555
H36 C57 1_555 1_555
C58 N36 1_555 1_555
N38 C58 1_555 1_555
C55 C58 1_555 1_555
C56 C57 1_555 1_555
Fe5 N11 1_555 1_555
N8 N9 1_555 1_555
N9 H1 1_555 1_555
H2 N9 1_555 1_555
N10 C14 1_555 1_555
N11 C17 1_555 1_555
N12 Fe5 1_555 1_555
N13 Fe5 1_555 1_555
N14 Fe5 1_555 1_555
N15 Fe5 1_555 1_555
N16 N17 1_555 1_555
N17 C27 1_555 1_555
N18 N19 1_555 1_555
N19 H3 1_555 1_555
H4 N19 1_555 1_555
N20 C30 1_555 1_555
N26 N27 1_555 1_555
N44 C50 1_555 1_555
H11 C8 1_555 1_555
C11 N8 1_555 1_555
C12 C11 1_555 1_555
C13 C12 1_555 1_555
C14 C13 1_555 1_555
H14 C14 1_555 1_555
C15 N10 1_555 1_555
H15 C15 1_555 1_555
C16 C12 1_555 1_555
H16 C16 1_555 1_555
C17 Au2 1_555 1_555
C18 N12 1_555 1_555
C19 N13 1_555 1_555
C66 N14 1_555 1_555
C21 N15 1_555 1_555
H17 C21 1_555 1_555
C22 C21 1_555 1_555
H18 C22 1_555 1_555
C23 C22 1_555 1_555
C24 C23 1_555 1_555
H19 C24 1_555 1_555
C25 N15 1_555 1_555
H20 C25 1_555 1_555
C26 N16 1_555 1_555
C27 N18 1_555 1_555
C28 C27 1_555 1_555
C29 C28 1_555 1_555
H21 C29 1_555 1_555
C30 C29 1_555 1_555
H22 C30 1_555 1_555
C31 N20 1_555 1_555
H23 C31 1_555 1_555
C32 C28 1_555 1_555
H24 C32 1_555 1_555
H26 C38 1_555 1_555
C39 C38 1_555 1_555
C40 C39 1_555 1_555
C42 N26 1_555 1_555
C50 Au1 1_555 1_555
Fe6 N20 1_555 1_555
N18 C26 1_555 1_555
C15 C16 1_555 1_555
C23 C26 1_555 1_555
C24 C25 1_555 1_555
C31 C32 1_555 1_555
C39 C42 1_555 1_555
Au8 C35 1_555 1_555
Fe6 N21 1_555 1_555
N21 C67 1_555 1_555
N22 Fe6 1_555 1_555
N23 Fe6 1_555 1_555
N24 Fe6 1_555 1_555
N25 Fe6 1_555 1_555
N34 C52 1_555 1_555
C34 N22 1_555 1_555
C35 N23 1_555 1_555
C36 Au6 1_555 1_555
C37 N25 1_555 1_555
H25 C37 1_555 1_555
C41 N25 1_555 1_555
C52 Au8 1_555 1_555
N24 C36 1_555 1_555
N28 N29 1_555 1_555
N29 H5 1_555 1_555
H6 N29 1_555 1_555
N30 C46 1_555 1_555
C43 N28 1_555 1_555
C44 C43 1_555 1_555
C45 C44 1_555 1_555
C46 C45 1_555 1_555
H30 C46 1_555 1_555
C47 N30 1_555 1_555
H31 C47 1_555 1_555
C48 C44 1_555 1_555
H32 C48 1_555 1_555
C47 C48 1_555 1_555
N31 C49 1_555 1_555
C49 Au7 1_555 1_555
N31_2 C49_2 1_555 1_555
C49_2 Au7_2 1_555 1_555
N28_2 N29_2 1_555 1_555
N29_2 H5_2 1_555 1_555
H6_2 N29_2 1_555 1_555
N43 C46_2 1_555 1_555
C43_2 N28_2 1_555 1_555
C44_2 C43_2 1_555 1_555
C45_2 C44_2 1_555 1_555
C46_2 C45_2 1_555 1_555
H30_2 C46_2 1_555 1_555
C47_2 N43 1_555 1_555
H31_2 C47_2 1_555 1_555
C48_2 C44_2 1_555 1_555
H32_2 C48_2 1_555 1_555
C47_2 C48_2 1_555 1_555
Au8_2 C35_2 1_555 1_555
Fe3 N21_2 1_555 1_555
N21_2 C33 1_555 1_555
N22_2 Fe3 1_555 1_555
N23_2 Fe3 1_555 1_555
N24_2 Fe3 1_555 1_555
N25_2 Fe3 1_555 1_555
N45 C52_2 1_555 1_555
C34_2 N22_2 1_555 1_555
C35_2 N23_2 1_555 1_555
C36_2 Au6_2 1_555 1_555
C37_2 N25_2 1_555 1_555
H25_2 C37_2 1_555 1_555
C41_2 N25_2 1_555 1_555
C52_2 Au8_2 1_555 1_555
N42 Fe3 1_555 1_555
N24_2 C36_2 1_555 1_555
Fe2 N11_2 1_555 1_555
N8_2 N9_2 1_555 1_555
N9_2 H1_2 1_555 1_555
H2_2 N9_2 1_555 1_555
N41 C14_2 1_555 1_555
N11_2 C17_2 1_555 1_555
N12_2 Fe2 1_555 1_555
N13_2 Fe2 1_555 1_555
N14_2 Fe2 1_555 1_555
N15_2 Fe2 1_555 1_555
N16_2 N17_2 1_555 1_555
N17_2 C27_2 1_555 1_555
N18_2 N19_2 1_555 1_555
N19_2 H3_2 1_555 1_555
H4_2 N19_2 1_555 1_555
N42 C30_2 1_555 1_555
N26_2 N27_2 1_555 1_555
N32 C50_2 1_555 1_555
H11_2 C8_2 1_555 1_555
C11_2 N8_2 1_555 1_555
C12_2 C11_2 1_555 1_555
C13_2 C12_2 1_555 1_555
C14_2 C13_2 1_555 1_555
H14_2 C14_2 1_555 1_555
C15_2 N41 1_555 1_555
H15_2 C15_2 1_555 1_555
C16_2 C12_2 1_555 1_555
H16_2 C16_2 1_555 1_555
C17_2 Au2_2 1_555 1_555
C18_2 N12_2 1_555 1_555
C19_2 N13_2 1_555 1_555
C20 N14_2 1_555 1_555
C21_2 N15_2 1_555 1_555
H17_2 C21_2 1_555 1_555
C22_2 C21_2 1_555 1_555
H18_2 C22_2 1_555 1_555
C23_2 C22_2 1_555 1_555
C24_2 C23_2 1_555 1_555
H19_2 C24_2 1_555 1_555
C25_2 N15_2 1_555 1_555
H20_2 C25_2 1_555 1_555
C26_2 N16_2 1_555 1_555
C27_2 N18_2 1_555 1_555
C28_2 C27_2 1_555 1_555
C29_2 C28_2 1_555 1_555
H21_2 C29_2 1_555 1_555
C30_2 C29_2 1_555 1_555
H22_2 C30_2 1_555 1_555
C31_2 N42 1_555 1_555
H23_2 C31_2 1_555 1_555
C32_2 C28_2 1_555 1_555
H24_2 C32_2 1_555 1_555
H26_2 C38_2 1_555 1_555
C39_2 C38_2 1_555 1_555
C40_2 C39_2 1_555 1_555
C42_2 N26_2 1_555 1_555
C50_2 Au1_2 1_555 1_555
Au9 C20 1_555 1_555
Fe7 N32 1_555 1_555
N18_2 C26_2 1_555 1_555
C15_2 C16_2 1_555 1_555
C23_2 C26_2 1_555 1_555
C24_2 C25_2 1_555 1_555
C31_2 C32_2 1_555 1_555
C39_2 C42_2 1_555 1_555
N35 C53_2 1_555 1_555
N38_2 N39_2 1_555 1_555
N39_2 H7_2 1_555 1_555
H8_2 N39_2 1_555 1_555
C53_2 H33_2 1_555 1_555
C54_2 C53_2 1_555 1_555
H34_2 C54_2 1_555 1_555
C55_2 C54_2 1_555 1_555
C56_2 C55_2 1_555 1_555
H35_2 C56_2 1_555 1_555
C57_2 N35 1_555 1_555
H36_2 C57_2 1_555 1_555
C58_2 N36_2 1_555 1_555
Fe7 N35 1_555 1_555
N38_2 C58_2 1_555 1_555
C55_2 C58_2 1_555 1_555
C56_2 C57_2 1_555 1_555
Au9 C3_2 1_555 1_555
Fe1_2 N1_2 1_555 1_555
N1_2 C1_2 1_555 1_555
N2_2 Fe1_2 1_555 1_555
N3_2 Fe1_2 1_555 1_555
N4_2 Fe1_2 1_555 1_555
N5_2 Fe1_2 1_555 1_555
N6_2 N7_2 1_555 1_555
N37_2 C59_2 1_555 1_555
N40_2 Fe1_2 1_555 1_555
C2_2 N2_2 1_555 1_555
C3_2 N3_2 1_555 1_555
C4 N4_2 1_555 1_555
C5_2 N5_2 1_555 1_555
H9_2 C5_2 1_555 1_555
C6_2 C5_2 1_555 1_555
H10_2 C6_2 1_555 1_555
C7_2 C6_2 1_555 1_555
C9_2 N5_2 1_555 1_555
C10_2 N6_2 1_555 1_555
C60_2 C59_2 1_555 1_555
C61_2 C60_2 1_555 1_555
H37_2 C61_2 1_555 1_555
C62_2 N40_2 1_555 1_555
H38_2 C62_2 1_555 1_555
C63_2 N40_2 1_555 1_555
H39_2 C63_2 1_555 1_555
C64_2 C60_2 1_555 1_555
H40_2 C64_2 1_555 1_555
Au10 C4 1_555 1_555
C7_2 C10_2 1_555 1_555
C61_2 C62_2 1_555 1_555
C63_2 C64_2 1_555 1_555
Au10 C51_2 1_555 1_555
N33_2 Fe7 1_555 1_555
C51_2 N33_2 1_555 1_555

#END
