
###############################################################################
#
# This file contains modified crystal structure data generated from the
# MOF subset of the Cambridge Structural Database (CSD) v543 
# hosted by the Cambridge Crystallographic Data Centre (CCDC).
#
# This work is licensed under the Creative Commons
# Attribution-NonCommercial-ShareAlike 4.0 International License.
# To view a copy of this license, visit
# http://creativecommons.org/licenses/by-nc-sa/4.0/
# or send a letter to
# Creative Commons, PO Box 1866, Mountain View, CA 94042, USA.
#
# CIF created using the CSD Python API on 29 September 2022
# The structure has been converted into the P1 space group
# The structure has a 3D framework
# The original CSD entry YOQKEX04 is in the triclinic crystal system
# The framework has been calculated to contain at least 10.0% void space
# The void calculation uses a probe of radius 1.32A, grid spacing 0.4
#
###############################################################################

data_YOQKEX04
_chemical_formula_moiety         '(C64 H40 Au8 Fe2 N40)n'
_symmetry_cell_setting           triclinic
_symmetry_space_group_name_H-M   'P 1'
_symmetry_Int_Tables_number      1
_space_group_name_Hall           'P 1'
loop_
_symmetry_equiv_pos_site_id
_symmetry_equiv_pos_as_xyz
1 x,y,z
_cell_length_a                   15.8341(16)
_cell_length_b                   12.8227(13)
_cell_length_c                   17.0691(18)
_cell_angle_alpha                111.993(3)
_cell_angle_beta                 68.555(3)
_cell_angle_gamma                89.991(3)
_cell_volume                     2953.01
loop_
_atom_site_label
_atom_site_type_symbol
_atom_site_fract_x
_atom_site_fract_y
_atom_site_fract_z
N2 N 0.2654(12) 0.3567(12) 0.0623(11)
N3 N 0.2168(12) 0.4036(13) 0.1568(11)
N4 N 0.2184(10) 0.5379(11) 0.1077(10)
N5 N 0.2007(13) 0.6466(12) 0.1084(11)
H1 H 0.250917 0.668502 0.078565
H2 H 0.164907 0.640072 0.078065
N6 N 0.0340(10) 0.7155(11) 0.4681(10)
C6 C 0.2646(13) 0.4389(14) 0.0336(13)
C7 C 0.1895(14) 0.5122(15) 0.1835(13)
C8 C 0.1384(12) 0.5872(14) 0.2794(12)
C9 C 0.0871(12) 0.5377(15) 0.3389(13)
H9 H 0.085779 0.458148 0.315316
C10 C 0.0391(13) 0.6029(13) 0.4304(12)
H10 H 0.007811 0.565819 0.469072
C11 C 0.0841(13) 0.7651(15) 0.4122(13)
H11 H 0.084452 0.844722 0.438250
C12 C 0.1352(14) 0.7043(14) 0.3179(13)
H12 H 0.167223 0.742752 0.280744
Au1 Au 0.21257(5) 0.54801(5) 0.60981(5)
Au2 Au 0.71126(5) 0.56130(5) 0.61011(4)
Au3 Au 0.23452(4) 0.03297(5) 0.60064(4)
Au4 Au 0.73322(4) 0.06817(5) 0.60102(4)
Fe1 Fe 0.46885(15) 0.30371(16) 0.60763(15)
N1 N 0.4017(9) 0.3557(10) 0.7462(10)
N7 N 0.5347(10) 0.2527(10) 0.4696(9)
N8 N 0.7153(12) 0.2546(13) 0.1574(11)
N9 N 0.7628(11) 0.2068(12) 0.0635(11)
N10 N 0.7181(11) 0.0704(11) 0.1094(10)
N13 N 0.3735(10) 0.4018(11) 0.6072(9)
N14 N 0.3931(10) 0.1799(11) 0.5924(9)
N15 N 0.5667(9) 0.2077(10) 0.6080(9)
N16 N 0.5465(10) 0.4256(12) 0.6220(9)
N17 N 0.8726(10) 0.7041(11) 0.6068(9)
N20 N 0.0475(10) 0.6954(11) 0.6220(9)
C1 C 0.3953(11) 0.2767(13) 0.7824(11)
H5 H 0.422909 0.200016 0.742593
C2 C 0.3493(12) 0.3051(14) 0.8764(12)
H6 H 0.344258 0.247743 0.899776
C3 C 0.3108(12) 0.4177(14) 0.9357(13)
C4 C 0.3181(12) 0.4973(13) 0.8976(12)
H7 H 0.290720 0.574577 0.935282
C5 C 0.3661(11) 0.4619(12) 0.8030(11)
H8 H 0.373575 0.518047 0.778156
C13 C 0.5403(13) 0.3292(14) 0.4315(12)
H13 H 0.510728 0.405579 0.469993
C14 C 0.5868(13) 0.3006(14) 0.3400(12)
H14 H 0.584904 0.355933 0.315818
C15 C 0.6375(13) 0.1922(14) 0.2804(12)
C16 C 0.6318(12) 0.1138(14) 0.3199(13)
H15 H 0.662118 0.037415 0.283081
C17 C 0.5809(12) 0.1484(13) 0.4143(11)
H16 H 0.579272 0.094279 0.440286
C18 C 0.6905(11) 0.1708(14) 0.1833(12)
C19 C 0.7640(12) 0.0940(14) 0.0341(13)
C25 C 0.3143(12) 0.4571(14) 0.6090(10)
C26 C 0.3366(11) 0.1221(12) 0.5931(12)
C27 C 0.6257(11) 0.1609(12) 0.6120(11)
C28 C 0.6053(13) 0.4766(14) 0.6181(13)
C29 C 0.8134(12) 0.6502(13) 0.6083(11)
C32 C 0.1065(11) 0.6425(13) 0.6185(11)
Fe7 Fe 0.96905(14) 0.80383(16) 0.60765(15)
N11 N 0.7002(13) 0.9619(12) 0.1094(11)
H3 H 0.750501 0.911841 0.082446
H4 H 0.665881 0.936711 0.077626
N18 N 0.8924(9) 0.9124(10) 0.5930(9)
N19 N 0.0679(10) 0.9011(11) 0.6084(9)
C30 C 0.8366(10) 0.9720(12) 0.5932(10)
C31 C 0.1279(12) 0.9502(13) 0.6091(11)
N12 N 0.9010(9) 0.8903(10) 0.7458(9)
C23 C 0.8624(12) 0.8418(14) 0.8055(12)
H19 H 0.867322 0.761155 0.781183
C24 C 0.8160(11) 0.9011(14) 0.8999(12)
H20 H 0.789386 0.862246 0.938434
C20 C 0.8097(12) 0.0187(13) 0.9362(11)
C21 C 0.8503(12) 0.0704(13) 0.8756(11)
H17 H 0.848116 0.150675 0.898556
C22 C 0.8929(12) 0.0060(13) 0.7838(12)
H18 H 0.918351 0.043734 0.744044
Fe2 Fe 0.03095(14) 0.19617(16) 0.39235(15)
N22 N 0.0990(9) 0.1097(10) 0.2542(9)
N23 N 0.1274(10) 0.2959(11) 0.3932(9)
N24 N 0.1076(9) 0.0876(10) 0.4070(9)
C23_2 C 0.1376(12) 0.1582(14) 0.1945(12)
H19_2 H 0.132678 0.238845 0.218817
C24_2 C 0.1840(11) 0.0989(14) 0.1001(12)
H20_2 H 0.210614 0.137754 0.061566
N11_2 N 0.2998(13) 0.0381(12) 0.8906(11)
H3_2 H 0.249499 0.088159 0.917554
H4_2 H 0.334119 0.063289 0.922374
N19_2 N 0.9321(10) 0.0989(11) 0.3916(9)
C30_2 C 0.1634(10) 0.0280(12) 0.4068(10)
C31_2 C 0.8721(12) 0.0498(13) 0.3909(11)
N21 N 0.9660(10) 0.2845(11) 0.5319(10)
N25 N 0.9525(10) 0.3046(11) 0.3780(9)
Au1_2 Au 0.78743(5) 0.45199(5) 0.39019(5)
Au2_2 Au 0.28874(5) 0.43870(5) 0.38989(4)
Au3_2 Au 0.76548(4) 0.96703(5) 0.39936(4)
Au4_2 Au 0.26678(4) 0.93183(5) 0.39898(4)
Fe1_2 Fe 0.53115(15) 0.69629(16) 0.39237(15)
N1_2 N 0.5983(9) 0.6443(10) 0.2538(10)
N7_2 N 0.4653(10) 0.7473(10) 0.5304(9)
N8_2 N 0.2847(12) 0.7454(13) 0.8426(11)
N9_2 N 0.2372(11) 0.7932(12) 0.9365(11)
N10_2 N 0.2819(11) 0.9296(11) 0.8906(10)
N13_2 N 0.6265(10) 0.5982(11) 0.3928(9)
N14_2 N 0.6069(10) 0.8201(11) 0.4076(9)
N15_2 N 0.4333(9) 0.7923(10) 0.3920(9)
N16_2 N 0.4535(10) 0.5744(12) 0.3780(9)
C1_2 C 0.6047(11) 0.7233(13) 0.2176(11)
H5_2 H 0.577091 0.799984 0.257407
C2_2 C 0.6507(12) 0.6949(14) 0.1236(12)
H6_2 H 0.655742 0.752257 0.100224
C3_2 C 0.6892(12) 0.5823(14) 0.0643(13)
C4_2 C 0.6819(12) 0.5027(13) 0.1024(12)
H7_2 H 0.709280 0.425423 0.064718
C5_2 C 0.6339(11) 0.5381(12) 0.1970(11)
H8_2 H 0.626425 0.481953 0.221844
C13_2 C 0.4597(13) 0.6708(14) 0.5685(12)
H13_2 H 0.489272 0.594421 0.530007
C14_2 C 0.4132(13) 0.6994(14) 0.6600(12)
H14_2 H 0.415096 0.644067 0.684182
C15_2 C 0.3625(13) 0.8078(14) 0.7196(12)
C16_2 C 0.3682(12) 0.8862(14) 0.6801(13)
H15_2 H 0.337882 0.962585 0.716919
C17_2 C 0.4191(12) 0.8516(13) 0.5857(11)
H16_2 H 0.420728 0.905721 0.559714
C18_2 C 0.3095(11) 0.8292(14) 0.8167(12)
C19_2 C 0.2360(12) 0.9060(14) 0.9659(13)
C25_2 C 0.6857(12) 0.5429(14) 0.3910(10)
C26_2 C 0.6634(11) 0.8779(12) 0.4069(12)
C27_2 C 0.3743(11) 0.8391(12) 0.3880(11)
C28_2 C 0.3947(13) 0.5234(14) 0.3819(13)
C29_2 C 0.1866(12) 0.3498(13) 0.3917(11)
C32_2 C 0.8935(11) 0.3575(13) 0.3815(11)
N2_2 N 0.7346(12) 0.6433(12) 0.9377(11)
N3_2 N 0.7832(12) 0.5964(13) 0.8432(11)
N4_2 N 0.7816(10) 0.4621(11) 0.8923(10)
N5_2 N 0.7993(13) 0.3534(12) 0.8916(11)
H1_2 H 0.749083 0.331498 0.921435
H2_2 H 0.835093 0.359928 0.921935
C6_2 C 0.7354(13) 0.5611(14) 0.9664(13)
C7_2 C 0.8105(14) 0.4878(15) 0.8165(13)
C8_2 C 0.8616(12) 0.4128(14) 0.7206(12)
C9_2 C 0.9129(12) 0.4623(15) 0.6611(13)
H9_2 H 0.914221 0.541852 0.684684
C10_2 C 0.9609(13) 0.3971(13) 0.5696(12)
H10_2 H 0.992189 0.434181 0.530928
C11_2 C 0.9159(13) 0.2349(15) 0.5878(13)
H11_2 H 0.915548 0.155278 0.561750
C12_2 C 0.8648(14) 0.2957(14) 0.6821(13)
H12_2 H 0.832777 0.257248 0.719256
C20_2 C 0.1903(12) 0.9813(13) 0.0638(11)
C21_2 C 0.1497(12) 0.9296(13) 0.1244(11)
H17_2 H 0.151884 0.849325 0.101444
C22_2 C 0.1071(12) 0.9940(13) 0.2162(12)
H18_2 H 0.081649 0.956266 0.255956
loop_
_geom_bond_atom_site_label_1
_geom_bond_atom_site_label_2
_geom_bond_site_symmetry_1
_geom_bond_site_symmetry_2
N2 N3 1_555 1_555
N3 C7 1_555 1_555
N4 N5 1_555 1_555
N5 H1 1_555 1_555
H2 N5 1_555 1_555
N6 C10 1_555 1_555
C6 N2 1_555 1_555
C7 N4 1_555 1_555
C8 C7 1_555 1_555
C9 C8 1_555 1_555
H9 C9 1_555 1_555
C10 C9 1_555 1_555
H10 C10 1_555 1_555
C11 N6 1_555 1_555
H11 C11 1_555 1_555
C12 C8 1_555 1_555
H12 C12 1_555 1_555
N4 C6 1_555 1_555
C11 C12 1_555 1_555
Au1 C25 1_555 1_555
Au2 C28 1_555 1_555
Au3 C26 1_555 1_555
Au4 C27 1_555 1_555
Fe1 N1 1_555 1_555
N1 C1 1_555 1_555
N7 Fe1 1_555 1_555
N8 N9 1_555 1_555
N9 C19 1_555 1_555
N13 Fe1 1_555 1_555
N14 Fe1 1_555 1_555
N15 Fe1 1_555 1_555
N16 Fe1 1_555 1_555
N17 C29 1_555 1_555
N20 C32 1_555 1_555
C1 H5 1_555 1_555
C2 C1 1_555 1_555
H6 C2 1_555 1_555
C3 C2 1_555 1_555
C4 C3 1_555 1_555
H7 C4 1_555 1_555
C5 N1 1_555 1_555
H8 C5 1_555 1_555
C13 N7 1_555 1_555
H13 C13 1_555 1_555
C14 C13 1_555 1_555
H14 C14 1_555 1_555
C15 C14 1_555 1_555
C16 C15 1_555 1_555
H15 C16 1_555 1_555
C17 N7 1_555 1_555
H16 C17 1_555 1_555
C18 N8 1_555 1_555
C19 N10 1_555 1_555
C25 N13 1_555 1_555
C26 N14 1_555 1_555
C27 N15 1_555 1_555
C28 N16 1_555 1_555
C29 Au2 1_555 1_555
C32 Au1 1_555 1_555
Fe7 N17 1_555 1_555
N10 C18 1_555 1_555
C4 C5 1_555 1_555
C15 C18 1_555 1_555
C16 C17 1_555 1_555
N11 H3 1_555 1_555
H4 N11 1_555 1_555
N18 C30 1_555 1_555
N19 C31 1_555 1_555
Fe7 N18 1_555 1_555
C23 N12 1_555 1_555
H19 C23 1_555 1_555
H20 C24 1_555 1_555
Fe7 N12 1_555 1_555
C23 C24 1_555 1_555
C21 C20 1_555 1_555
H17 C21 1_555 1_555
C22 C21 1_555 1_555
H18 C22 1_555 1_555
N22 Fe2 1_555 1_555
N23 Fe2 1_555 1_555
N24 Fe2 1_555 1_555
C23_2 N22 1_555 1_555
H19_2 C23_2 1_555 1_555
H20_2 C24_2 1_555 1_555
C23_2 C24_2 1_555 1_555
N11_2 H3_2 1_555 1_555
H4_2 N11_2 1_555 1_555
N24 C30_2 1_555 1_555
N19_2 C31_2 1_555 1_555
Au1_2 C25_2 1_555 1_555
Au2_2 C28_2 1_555 1_555
Au3_2 C26_2 1_555 1_555
Au4_2 C27_2 1_555 1_555
Fe1_2 N1_2 1_555 1_555
N1_2 C1_2 1_555 1_555
N7_2 Fe1_2 1_555 1_555
N8_2 N9_2 1_555 1_555
N9_2 C19_2 1_555 1_555
N13_2 Fe1_2 1_555 1_555
N14_2 Fe1_2 1_555 1_555
N15_2 Fe1_2 1_555 1_555
N16_2 Fe1_2 1_555 1_555
N23 C29_2 1_555 1_555
N25 C32_2 1_555 1_555
C1_2 H5_2 1_555 1_555
C2_2 C1_2 1_555 1_555
H6_2 C2_2 1_555 1_555
C3_2 C2_2 1_555 1_555
C4_2 C3_2 1_555 1_555
H7_2 C4_2 1_555 1_555
C5_2 N1_2 1_555 1_555
H8_2 C5_2 1_555 1_555
C13_2 N7_2 1_555 1_555
H13_2 C13_2 1_555 1_555
C14_2 C13_2 1_555 1_555
H14_2 C14_2 1_555 1_555
C15_2 C14_2 1_555 1_555
C16_2 C15_2 1_555 1_555
H15_2 C16_2 1_555 1_555
C17_2 N7_2 1_555 1_555
H16_2 C17_2 1_555 1_555
C18_2 N8_2 1_555 1_555
C19_2 N10_2 1_555 1_555
C25_2 N13_2 1_555 1_555
C26_2 N14_2 1_555 1_555
C27_2 N15_2 1_555 1_555
C28_2 N16_2 1_555 1_555
C29_2 Au2_2 1_555 1_555
C32_2 Au1_2 1_555 1_555
N10_2 C18_2 1_555 1_555
C4_2 C5_2 1_555 1_555
C15_2 C18_2 1_555 1_555
C16_2 C17_2 1_555 1_555
N2_2 N3_2 1_555 1_555
N3_2 C7_2 1_555 1_555
N4_2 N5_2 1_555 1_555
N5_2 H1_2 1_555 1_555
H2_2 N5_2 1_555 1_555
N21 C10_2 1_555 1_555
C6_2 N2_2 1_555 1_555
C7_2 N4_2 1_555 1_555
C8_2 C7_2 1_555 1_555
C9_2 C8_2 1_555 1_555
H9_2 C9_2 1_555 1_555
C10_2 C9_2 1_555 1_555
H10_2 C10_2 1_555 1_555
C11_2 N21 1_555 1_555
H11_2 C11_2 1_555 1_555
C12_2 C8_2 1_555 1_555
H12_2 C12_2 1_555 1_555
N4_2 C6_2 1_555 1_555
C11_2 C12_2 1_555 1_555
C21_2 C20_2 1_555 1_555
H17_2 C21_2 1_555 1_555
C22_2 C21_2 1_555 1_555
H18_2 C22_2 1_555 1_555

#END
