
###############################################################################
#
# This file contains modified crystal structure data generated from the
# MOF subset of the Cambridge Structural Database (CSD) v543 
# hosted by the Cambridge Crystallographic Data Centre (CCDC).
#
# This work is licensed under the Creative Commons
# Attribution-NonCommercial-ShareAlike 4.0 International License.
# To view a copy of this license, visit
# http://creativecommons.org/licenses/by-nc-sa/4.0/
# or send a letter to
# Creative Commons, PO Box 1866, Mountain View, CA 94042, USA.
#
# CIF created using the CSD Python API on 29 September 2022
# The structure has been converted into the P1 space group
# The structure has a 3D framework
# The original CSD entry YOQKEX05 is in the triclinic crystal system
# The framework has been calculated to contain at least 10.0% void space
# The void calculation uses a probe of radius 1.32A, grid spacing 0.4
#
###############################################################################

data_YOQKEX05
_chemical_formula_moiety         '(C128 H80 Au16 Fe8 N80)n'
_symmetry_cell_setting           triclinic
_symmetry_space_group_name_H-M   'P 1'
_symmetry_Int_Tables_number      1
_space_group_name_Hall           'P 1'
loop_
_symmetry_equiv_pos_site_id
_symmetry_equiv_pos_as_xyz
1 x,y,z
_cell_length_a                   30.0968(12)
_cell_length_b                   12.8222(5)
_cell_length_c                   17.0738(7)
_cell_angle_alpha                68.1250(10)
_cell_angle_beta                 79.568(2)
_cell_angle_gamma                77.8270(10)
_cell_volume                     5938.73
loop_
_atom_site_label
_atom_site_type_symbol
_atom_site_fract_x
_atom_site_fract_y
_atom_site_fract_z
Fe10 Fe 0.01536(7) 0.69598(17) 0.59249(15)
Au4 Au 0.13722(2) 0.42846(5) 0.46676(4)
N33 N 0.0553(5) 0.5813(11) 0.5347(10)
C51 C 0.0839(5) 0.5202(16) 0.5112(11)
N44 N 0.0667(4) 0.8017(11) 0.5414(9)
N46 N 0.0508(4) 0.6039(11) 0.7021(9)
C65 C 0.1914(5) 0.3335(13) 0.4215(11)
Au3 Au 0.38520(2) 0.46682(5) 0.21742(4)
Fe1 Fe 0.26896(6) 0.19378(15) 0.34201(13)
N1 N 0.2309(4) 0.0743(11) 0.3945(9)
N2 N 0.3172(4) 0.0966(10) 0.2930(8)
N3 N 0.3064(4) 0.3177(11) 0.2894(9)
N4 N 0.2206(4) 0.2885(11) 0.3904(9)
N5 N 0.3017(4) 0.1427(9) 0.4476(8)
N6 N 0.3691(5) 0.1412(12) 0.6970(10)
N7 N 0.3925(5) 0.0948(11) 0.7676(9)
N37 N 0.1443(6) 0.2411(13) 0.0167(10)
N40 N 0.2352(4) 0.2442(10) 0.2382(9)
C1 C 0.2017(5) 0.0236(12) 0.4213(11)
C2 C 0.3454(5) 0.0417(11) 0.2638(10)
C3 C 0.3338(4) 0.3775(13) 0.2615(10)
C5 C 0.3049(5) 0.2201(12) 0.4822(11)
H9 H 0.2913 0.2968 0.4560
C6 C 0.3265(5) 0.1944(12) 0.5527(11)
H10 H 0.3280 0.2518 0.5743
C7 C 0.3463(5) 0.0817(13) 0.5920(11)
C8 C 0.3421(5) 0.0014(12) 0.5574(10)
C9 C 0.3199(5) 0.0346(12) 0.4873(10)
C10 C 0.3689(5) 0.0592(12) 0.6681(10)
H13 H 0.4556 0.0419 0.8595
C59 C 0.1571(5) 0.3239(13) 0.0309(12)
C60 C 0.1842(5) 0.3039(15) 0.1010(12)
C61 C 0.2094(5) 0.1953(13) 0.1342(11)
H37 H 0.2099 0.1395 0.1098
C62 C 0.2334(5) 0.1694(12) 0.2013(10)
H38 H 0.2496 0.0945 0.2232
C63 C 0.2124(6) 0.3481(14) 0.2065(11)
H39 H 0.2137 0.4025 0.2312
C64 C 0.1868(6) 0.3814(14) 0.1392(11)
H40 H 0.1709 0.4570 0.1189
C66 C 0.4386(5) 0.5510(14) 0.1719(11)
N36 N 0.1211(6) 0.2889(12) 0.9476(11)
N38 N 0.1434(5) 0.4250(12) 0.9718(10)
N39 N 0.1513(6) 0.5346(12) 0.9623(11)
H7 H 0.1257 0.5851 0.9593
H8 H 0.1688 0.5590 0.9133
C53 C 0.0544(5) 0.4896(14) 0.7356(11)
H33 H 0.0413 0.4522 0.7088
C54 C 0.0759(5) 0.4248(14) 0.8060(12)
H34 H 0.0765 0.3447 0.8282
C55 C 0.0972(5) 0.4762(13) 0.8457(11)
C56 C 0.0953(6) 0.5942(15) 0.8110(12)
H35 H 0.1098 0.6328 0.8346
C57 C 0.0712(6) 0.6542(14) 0.7397(11)
H36 H 0.0692 0.7346 0.7168
C58 C 0.1199(6) 0.4001(13) 0.9200(11)
C67 C 0.6947(5) 0.0233(13) 0.9224(10)
Fe5 Fe 0.51544(6) 0.69648(17) 0.09201(14)
Au1 Au 0.14801(2) 0.94052(5) 0.46514(4)
Au2 Au 0.39683(2) 0.94955(5) 0.21598(4)
N8 N 0.3908(4) 0.9582(10) 0.7200(9)
N9 N 0.3986(6) 0.8519(12) 0.7104(10)
H1 H 0.3729 0.8304 0.7070
H2 H 0.4162 0.8581 0.6617
N10 N 0.4825(4) 0.7816(10) 0.9892(8)
N11 N 0.4776(4) 0.8012(10) 0.1456(8)
N12 N 0.5627(4) 0.7932(10) 0.0435(9)
N13 N 0.5523(4) 0.5902(9) 0.0386(8)
N14 N 0.4682(4) 0.6002(9) 0.1409(8)
N15 N 0.5478(3) 0.6113(9) 0.1959(8)
N16 N 0.6165(5) 0.2964(11) 0.4442(10)
N17 N 0.6402(5) 0.2484(12) 0.5147(10)
N18 N 0.6389(4) 0.4331(10) 0.4671(9)
N19 N 0.6483(5) 0.5407(11) 0.4587(10)
H3 H 0.6227 0.5913 0.4559
H4 H 0.6659 0.5660 0.4102
N20 N 0.7289(4) 0.2492(10) 0.7383(8)
N26 N 0.8658(5) 0.1479(12) 0.1923(11)
N27 N 0.8898(6) 0.1024(12) 0.2619(11)
H11 H 0.3548 0.9238 0.5829
H12 H 0.3172 0.9784 0.4655
C11 C 0.4058(5) 0.9844(13) 0.7808(11)
C12 C 0.4323(5) 0.9105(12) 0.8498(11)
C13 C 0.4558(5) 0.9620(12) 0.8832(11)
C14 C 0.4799(5) 0.8960(11) 0.9519(10)
H14 H 0.4956 0.9336 0.9743
C15 C 0.4598(5) 0.7305(13) 0.9560(10)
H15 H 0.4619 0.6500 0.9791
C16 C 0.4335(5) 0.7915(13) 0.8886(11)
H16 H 0.4165 0.7531 0.8692
C17 C 0.4479(5) 0.8566(12) 0.1729(10)
C18 C 0.5908(5) 0.8486(13) 0.0145(11)
C19 C 0.5802(4) 0.5300(11) 0.0106(9)
C21 C 0.5523(4) 0.4974(12) 0.2289(10)
H17 H 0.5394 0.4602 0.2016
C22 C 0.5741(5) 0.4307(12) 0.2993(10)
H18 H 0.5756 0.3504 0.3196
C23 C 0.5940(5) 0.4825(13) 0.3409(11)
C24 C 0.5906(4) 0.6014(12) 0.3060(11)
H19 H 0.6039 0.6404 0.3313
C25 C 0.5677(5) 0.6625(13) 0.2346(10)
H20 H 0.5660 0.7429 0.2120
C26 C 0.6162(5) 0.4086(13) 0.4155(11)
C27 C 0.6527(5) 0.3318(13) 0.5298(11)
C28 C 0.6790(5) 0.3093(12) 0.5991(10)
C29 C 0.7035(6) 0.2008(13) 0.6323(12)
H21 H 0.7043 0.1453 0.6073
C30 C 0.7261(5) 0.1749(13) 0.6993(12)
H22 H 0.7413 0.0990 0.7218
C31 C 0.7062(5) 0.3560(12) 0.7020(12)
H23 H 0.7078 0.4117 0.7254
C32 C 0.6815(5) 0.3897(13) 0.6353(11)
H24 H 0.6664 0.4658 0.6135
C38 C 0.8235(5) 0.1974(14) 0.0490(11)
H26 H 0.8261 0.2553 0.0692
C39 C 0.8429(5) 0.0860(14) 0.0893(12)
C40 C 0.8399(5) 0.0071(13) 0.0534(12)
C42 C 0.8660(5) 0.0654(13) 0.1636(12)
H29 H 0.9590 0.0450 0.3513
C50 C 0.0964(5) 0.8550(14) 0.5129(12)
Fe6 Fe 0.76215(6) 0.19883(15) 0.84228(12)
Au5 Au 0.64190(2) 0.93887(5) 0.96571(4)
Au6 Au 0.63089(2) 0.43439(5) 0.96756(4)
Au8 Au 0.87904(2) 0.46630(5) 0.71878(4)
N21 N 0.7237(4) 0.0768(11) 0.8959(9)
N22 N 0.8090(5) 0.1011(12) 0.7951(9)
N23 N 0.7997(4) 0.3220(11) 0.7888(9)
N24 N 0.7147(4) 0.2933(10) 0.8930(8)
N25 N 0.7960(4) 0.1486(10) 0.9454(8)
N34 N 0.9641(5) 0.5941(12) 0.6446(10)
C34 C 0.8376(6) 0.0491(16) 0.7663(12)
C35 C 0.8274(5) 0.3780(12) 0.7622(10)
C36 C 0.6844(5) 0.3442(12) 0.9237(10)
C37 C 0.8004(5) 0.2241(12) 0.9794(11)
H25 H 0.7867 0.3009 0.9541
C41 C 0.8154(6) 0.0394(13) 0.9851(11)
C52 C 0.9328(5) 0.5453(12) 0.6769(11)
N28 N 0.8891(4) 0.9672(11) 0.2134(9)
N29 N 0.8988(5) 0.8570(11) 0.2054(11)
H5 H 0.8732 0.8356 0.2010
H6 H 0.9169 0.8631 0.1573
N30 N 0.9801(4) 0.7889(11) 0.4823(10)
H27 H 0.8547 0.9308 0.0761
C43 C 0.9029(6) 0.9930(14) 0.2762(11)
C44 C 0.9298(5) 0.9182(13) 0.3444(11)
C45 C 0.9571(6) 0.9662(14) 0.3770(12)
C46 C 0.9807(6) 0.9018(14) 0.4442(12)
H30 H 0.9983 0.9374 0.4650
C47 C 0.9553(7) 0.7422(14) 0.4516(13)
H31 H 0.9559 0.6623 0.4768
C48 C 0.9283(6) 0.8012(15) 0.3850(12)
H32 H 0.9097 0.7638 0.3680
Au7 Au 0.88925(2) 0.95512(5) 0.71709(4)
N31 N 0.9748(5) 0.8107(12) 0.6480(10)
H28 H 0.8119 0.9825 0.9647
C49 C 0.9433(6) 0.8657(15) 0.6741(12)
Au7_2 Au 0.11075(2) 0.04488(5) 0.28291(4)
N31_2 N 0.0252(5) 0.1893(12) 0.3520(10)
H28_2 H 0.1881 0.0175 0.0353
C49_2 C 0.0567(6) 0.1343(15) 0.3259(12)
Au11 Au 0.35810(2) 0.06113(5) 0.03429(4)
N43 N 0.0199(4) 0.2111(11) 0.5177(10)
N45 N 0.0359(5) 0.4059(12) 0.3554(10)
N28_2 N 0.1109(4) 0.0328(11) 0.7866(9)
N29_2 N 0.1012(5) 0.1430(11) 0.7946(11)
H5_2 H 0.1268 0.1644 0.7990
H6_2 H 0.0831 0.1369 0.8427
H27_2 H 0.1453 0.0692 0.9239
C43_2 C 0.0971(6) 0.0070(14) 0.7238(11)
C44_2 C 0.0702(5) 0.0818(13) 0.6556(11)
C45_2 C 0.0429(6) 0.0338(14) 0.6230(12)
C46_2 C 0.0193(6) 0.0982(14) 0.5558(12)
H30_2 H 0.0017 0.0626 0.5350
C47_2 C 0.0447(7) 0.2578(14) 0.5484(13)
H31_2 H 0.0441 0.3377 0.5232
C48_2 C 0.0717(6) 0.1988(15) 0.6150(12)
H32_2 H 0.0903 0.2362 0.6320
Au6_2 Au 0.36911(2) 0.56561(5) 0.03244(4)
Au8_2 Au 0.12096(2) 0.53370(5) 0.28122(4)
Fe3 Fe 0.23785(6) 0.80117(15) 0.15772(12)
N21_2 N 0.2763(4) 0.9232(11) 0.1041(9)
N22_2 N 0.1910(5) 0.8989(12) 0.2049(9)
N23_2 N 0.2003(4) 0.6780(11) 0.2112(9)
N24_2 N 0.2853(4) 0.7067(10) 0.1070(8)
N25_2 N 0.2040(4) 0.8514(10) 0.0546(8)
C33 C 0.3053(5) 0.9767(13) 0.0776(10)
C34_2 C 0.1624(6) 0.9509(16) 0.2337(12)
C35_2 C 0.1726(5) 0.6220(12) 0.2378(10)
C36_2 C 0.3156(5) 0.6558(12) 0.0763(10)
C37_2 C 0.1996(5) 0.7759(12) 0.0206(11)
H25_2 H 0.2133 0.6991 0.0459
C41_2 C 0.1846(6) 0.9606(13) 0.0149(11)
C52_2 C 0.0672(5) 0.4547(12) 0.3231(11)
N41 N 0.5175(4) 0.2184(10) 0.0108(8)
N42 N 0.2711(4) 0.7508(10) 0.2617(8)
Au1_2 Au 0.85199(2) 0.05948(5) 0.53486(4)
Au2_2 Au 0.60317(2) 0.05045(5) 0.78402(4)
Fe2 Fe 0.48456(6) 0.30352(17) 0.90799(14)
N8_2 N 0.6092(4) 0.0418(10) 0.2800(9)
N9_2 N 0.6014(6) 0.1481(12) 0.2896(10)
H1_2 H 0.6271 0.1696 0.2930
H2_2 H 0.5838 0.1419 0.3383
N11_2 N 0.5224(4) 0.1988(10) 0.8544(8)
N12_2 N 0.4373(4) 0.2068(10) 0.9565(9)
N13_2 N 0.4477(4) 0.4098(9) 0.9614(8)
N14_2 N 0.5318(4) 0.3998(9) 0.8591(8)
N15_2 N 0.4522(3) 0.3887(9) 0.8041(8)
N16_2 N 0.3835(5) 0.7036(11) 0.5558(10)
N17_2 N 0.3598(5) 0.7516(12) 0.4853(10)
N18_2 N 0.3611(4) 0.5669(10) 0.5329(9)
N19_2 N 0.3517(5) 0.4593(11) 0.5413(10)
H3_2 H 0.3773 0.4087 0.5441
H4_2 H 0.3341 0.4340 0.5898
N26_2 N 0.1342(5) 0.8521(12) 0.8077(11)
N27_2 N 0.1102(6) 0.8976(12) 0.7381(11)
N32 N 0.9333(4) 0.1983(11) 0.4586(9)
H11_2 H 0.6452 0.0762 0.4171
H12_2 H 0.6828 0.0216 0.5345
C11_2 C 0.5942(5) 0.0156(13) 0.2192(11)
C12_2 C 0.5677(5) 0.0895(12) 0.1502(11)
C13_2 C 0.5442(5) 0.0380(12) 0.1168(11)
C14_2 C 0.5201(5) 0.1040(11) 0.0481(10)
H14_2 H 0.5044 0.0664 0.0257
C15_2 C 0.5402(5) 0.2695(13) 0.0440(10)
H15_2 H 0.5381 0.3500 0.0209
C16_2 C 0.5665(5) 0.2085(13) 0.1114(11)
H16_2 H 0.5835 0.2469 0.1308
C17_2 C 0.5521(5) 0.1434(12) 0.8271(10)
C18_2 C 0.4092(5) 0.1514(13) 0.9855(11)
C19_2 C 0.4198(4) 0.4700(11) 0.9894(9)
C20 C 0.5614(5) 0.4490(14) 0.8281(11)
C21_2 C 0.4477(4) 0.5026(12) 0.7711(10)
H17_2 H 0.4606 0.5398 0.7984
C22_2 C 0.4259(5) 0.5693(12) 0.7007(10)
H18_2 H 0.4244 0.6496 0.6804
C23_2 C 0.4060(5) 0.5175(13) 0.6591(11)
C24_2 C 0.4094(4) 0.3986(12) 0.6940(11)
H19_2 H 0.3961 0.3596 0.6687
C25_2 C 0.4323(5) 0.3375(13) 0.7654(10)
H20_2 H 0.4340 0.2571 0.7880
C26_2 C 0.3838(5) 0.5914(13) 0.5845(11)
C27_2 C 0.3473(5) 0.6682(13) 0.4702(11)
C28_2 C 0.3210(5) 0.6907(12) 0.4009(10)
C29_2 C 0.2965(6) 0.7992(13) 0.3677(12)
H21_2 H 0.2957 0.8547 0.3927
C30_2 C 0.2739(5) 0.8251(13) 0.3007(12)
H22_2 H 0.2587 0.9010 0.2782
C31_2 C 0.2938(5) 0.6440(12) 0.2980(12)
H23_2 H 0.2922 0.5883 0.2746
C32_2 C 0.3185(5) 0.6103(13) 0.3647(11)
H24_2 H 0.3336 0.5342 0.3865
C38_2 C 0.1765(5) 0.8026(14) 0.9510(11)
H26_2 H 0.1739 0.7447 0.9308
C39_2 C 0.1571(5) 0.9140(14) 0.9107(12)
C40_2 C 0.1601(5) 0.9929(13) 0.9466(12)
C42_2 C 0.1340(5) 0.9346(13) 0.8364(12)
H29_2 H 0.0410 0.9550 0.6487
C50_2 C 0.9036(5) 0.1450(14) 0.4871(12)
Au9 Au 0.61480(2) 0.53318(5) 0.78258(4)
Fe7 Fe 0.98464(7) 0.30402(17) 0.40751(15)
N35 N 0.9492(4) 0.3961(11) 0.2979(9)
N36_2 N 0.8789(6) 0.7111(12) 0.0524(11)
N38_2 N 0.8566(5) 0.5750(12) 0.0282(10)
N39_2 N 0.8487(6) 0.4654(12) 0.0377(11)
H7_2 H 0.8743 0.4149 0.0407
H8_2 H 0.8312 0.4410 0.0867
C53_2 C 0.9456(5) 0.5104(14) 0.2644(11)
H33_2 H 0.9587 0.5478 0.2912
C54_2 C 0.9241(5) 0.5752(14) 0.1940(12)
H34_2 H 0.9235 0.6553 0.1718
C55_2 C 0.9028(5) 0.5238(13) 0.1543(11)
C56_2 C 0.9047(6) 0.4058(15) 0.1890(12)
H35_2 H 0.8902 0.3672 0.1654
C57_2 C 0.9288(6) 0.3458(14) 0.2603(11)
H36_2 H 0.9308 0.2654 0.2832
C58_2 C 0.8801(6) 0.5999(13) 0.0800(11)
Fe1_2 Fe 0.73104(6) 0.80622(15) 0.65799(13)
N1_2 N 0.7691(4) 0.9257(11) 0.6055(9)
N2_2 N 0.6828(4) 0.9034(10) 0.7070(8)
N3_2 N 0.6936(4) 0.6823(11) 0.7106(9)
N4_2 N 0.7794(4) 0.7115(11) 0.6096(9)
N5_2 N 0.6983(4) 0.8573(9) 0.5524(8)
N6_2 N 0.6309(5) 0.8588(12) 0.3030(10)
N7_2 N 0.6075(5) 0.9052(11) 0.2324(9)
N37_2 N 0.8557(6) 0.7589(13) 0.9833(10)
N40_2 N 0.7648(4) 0.7558(10) 0.7618(9)
C1_2 C 0.7983(5) 0.9764(12) 0.5787(11)
C2_2 C 0.6546(5) 0.9583(11) 0.7362(10)
C3_2 C 0.6662(4) 0.6225(13) 0.7385(10)
C4 C 0.8086(5) 0.6665(13) 0.5785(11)
C5_2 C 0.6951(5) 0.7799(12) 0.5178(11)
H9_2 H 0.7087 0.7032 0.5440
C6_2 C 0.6735(5) 0.8056(12) 0.4473(11)
H10_2 H 0.6720 0.7482 0.4257
C7_2 C 0.6537(5) 0.9183(13) 0.4080(11)
C8_2 C 0.6579(5) 0.9986(12) 0.4426(10)
C9_2 C 0.6801(5) 0.9654(12) 0.5127(10)
C10_2 C 0.6311(5) 0.9408(12) 0.3319(10)
H13_2 H 0.5444 0.9581 0.1405
C59_2 C 0.8429(5) 0.6761(13) 0.9691(12)
C60_2 C 0.8158(5) 0.6961(15) 0.8990(12)
C61_2 C 0.7906(5) 0.8047(13) 0.8658(11)
H37_2 H 0.7901 0.8605 0.8902
C62_2 C 0.7666(5) 0.8306(12) 0.7987(10)
H38_2 H 0.7504 0.9055 0.7768
C63_2 C 0.7876(6) 0.6519(14) 0.7935(11)
H39_2 H 0.7863 0.5975 0.7688
C64_2 C 0.8132(6) 0.6186(14) 0.8608(11)
H40_2 H 0.8291 0.5430 0.8811
Au10 Au 0.86278(2) 0.57154(5) 0.53324(4)
N33_2 N 0.9447(5) 0.4187(11) 0.4653(10)
C51_2 C 0.9161(5) 0.4798(16) 0.4888(11)
loop_
_geom_bond_atom_site_label_1
_geom_bond_atom_site_label_2
_geom_bond_site_symmetry_1
_geom_bond_site_symmetry_2
Au4 C51 1_555 1_555
N33 Fe10 1_555 1_555
C51 N33 1_555 1_555
N44 Fe10 1_555 1_555
N46 Fe10 1_555 1_555
C65 Au4 1_555 1_555
Au3 C3 1_555 1_555
Fe1 N1 1_555 1_555
N1 C1 1_555 1_555
N2 Fe1 1_555 1_555
N3 Fe1 1_555 1_555
N4 Fe1 1_555 1_555
N5 Fe1 1_555 1_555
N6 N7 1_555 1_555
N37 C59 1_555 1_555
N40 Fe1 1_555 1_555
C2 N2 1_555 1_555
C3 N3 1_555 1_555
C65 N4 1_555 1_555
C5 N5 1_555 1_555
H9 C5 1_555 1_555
C6 C5 1_555 1_555
H10 C6 1_555 1_555
C7 C6 1_555 1_555
C8 C7 1_555 1_555
C9 N5 1_555 1_555
C10 N6 1_555 1_555
C60 C59 1_555 1_555
C61 C60 1_555 1_555
H37 C61 1_555 1_555
C62 N40 1_555 1_555
H38 C62 1_555 1_555
C63 N40 1_555 1_555
H39 C63 1_555 1_555
C64 C60 1_555 1_555
H40 C64 1_555 1_555
C66 Au3 1_555 1_555
C7 C10 1_555 1_555
C8 C9 1_555 1_555
C61 C62 1_555 1_555
C63 C64 1_555 1_555
N46 C53 1_555 1_555
N38 N39 1_555 1_555
N39 H7 1_555 1_555
H8 N39 1_555 1_555
C53 H33 1_555 1_555
C54 C53 1_555 1_555
H34 C54 1_555 1_555
C55 C54 1_555 1_555
C56 C55 1_555 1_555
H35 C56 1_555 1_555
C57 N46 1_555 1_555
H36 C57 1_555 1_555
C58 N36 1_555 1_555
N38 C58 1_555 1_555
C55 C58 1_555 1_555
C56 C57 1_555 1_555
Fe5 N11 1_555 1_555
N8 N9 1_555 1_555
N9 H1 1_555 1_555
H2 N9 1_555 1_555
N10 C14 1_555 1_555
N11 C17 1_555 1_555
N12 Fe5 1_555 1_555
N13 Fe5 1_555 1_555
N14 Fe5 1_555 1_555
N15 Fe5 1_555 1_555
N16 N17 1_555 1_555
N17 C27 1_555 1_555
N18 N19 1_555 1_555
N19 H3 1_555 1_555
H4 N19 1_555 1_555
N20 C30 1_555 1_555
N26 N27 1_555 1_555
N44 C50 1_555 1_555
C11 N8 1_555 1_555
C12 C11 1_555 1_555
C13 C12 1_555 1_555
C14 C13 1_555 1_555
H14 C14 1_555 1_555
C15 N10 1_555 1_555
H15 C15 1_555 1_555
C16 C12 1_555 1_555
H16 C16 1_555 1_555
C17 Au2 1_555 1_555
C18 N12 1_555 1_555
C19 N13 1_555 1_555
C66 N14 1_555 1_555
C21 N15 1_555 1_555
H17 C21 1_555 1_555
C22 C21 1_555 1_555
H18 C22 1_555 1_555
C23 C22 1_555 1_555
C24 C23 1_555 1_555
H19 C24 1_555 1_555
C25 N15 1_555 1_555
H20 C25 1_555 1_555
C26 N16 1_555 1_555
C27 N18 1_555 1_555
C28 C27 1_555 1_555
C29 C28 1_555 1_555
H21 C29 1_555 1_555
C30 C29 1_555 1_555
H22 C30 1_555 1_555
C31 N20 1_555 1_555
H23 C31 1_555 1_555
C32 C28 1_555 1_555
H24 C32 1_555 1_555
H26 C38 1_555 1_555
C39 C38 1_555 1_555
C40 C39 1_555 1_555
C42 N26 1_555 1_555
C50 Au1 1_555 1_555
Fe6 N20 1_555 1_555
N18 C26 1_555 1_555
C15 C16 1_555 1_555
C23 C26 1_555 1_555
C24 C25 1_555 1_555
C31 C32 1_555 1_555
C39 C42 1_555 1_555
Au8 C35 1_555 1_555
Fe6 N21 1_555 1_555
N21 C67 1_555 1_555
N22 Fe6 1_555 1_555
N23 Fe6 1_555 1_555
N24 Fe6 1_555 1_555
N25 Fe6 1_555 1_555
N34 C52 1_555 1_555
C34 N22 1_555 1_555
C35 N23 1_555 1_555
C36 Au6 1_555 1_555
C37 N25 1_555 1_555
H25 C37 1_555 1_555
C41 N25 1_555 1_555
C52 Au8 1_555 1_555
N24 C36 1_555 1_555
N28 N29 1_555 1_555
N29 H5 1_555 1_555
H6 N29 1_555 1_555
N30 C46 1_555 1_555
C43 N28 1_555 1_555
C44 C43 1_555 1_555
C45 C44 1_555 1_555
C46 C45 1_555 1_555
H30 C46 1_555 1_555
C47 N30 1_555 1_555
H31 C47 1_555 1_555
C48 C44 1_555 1_555
H32 C48 1_555 1_555
C47 C48 1_555 1_555
N31 C49 1_555 1_555
C49 Au7 1_555 1_555
N31_2 C49_2 1_555 1_555
C49_2 Au7_2 1_555 1_555
N28_2 N29_2 1_555 1_555
N29_2 H5_2 1_555 1_555
H6_2 N29_2 1_555 1_555
N43 C46_2 1_555 1_555
C43_2 N28_2 1_555 1_555
C44_2 C43_2 1_555 1_555
C45_2 C44_2 1_555 1_555
C46_2 C45_2 1_555 1_555
H30_2 C46_2 1_555 1_555
C47_2 N43 1_555 1_555
H31_2 C47_2 1_555 1_555
C48_2 C44_2 1_555 1_555
H32_2 C48_2 1_555 1_555
C47_2 C48_2 1_555 1_555
Au8_2 C35_2 1_555 1_555
Fe3 N21_2 1_555 1_555
N21_2 C33 1_555 1_555
N22_2 Fe3 1_555 1_555
N23_2 Fe3 1_555 1_555
N24_2 Fe3 1_555 1_555
N25_2 Fe3 1_555 1_555
N45 C52_2 1_555 1_555
C34_2 N22_2 1_555 1_555
C35_2 N23_2 1_555 1_555
C36_2 Au6_2 1_555 1_555
C37_2 N25_2 1_555 1_555
H25_2 C37_2 1_555 1_555
C41_2 N25_2 1_555 1_555
C52_2 Au8_2 1_555 1_555
N42 Fe3 1_555 1_555
N24_2 C36_2 1_555 1_555
Fe2 N11_2 1_555 1_555
N8_2 N9_2 1_555 1_555
N9_2 H1_2 1_555 1_555
H2_2 N9_2 1_555 1_555
N41 C14_2 1_555 1_555
N11_2 C17_2 1_555 1_555
N12_2 Fe2 1_555 1_555
N13_2 Fe2 1_555 1_555
N14_2 Fe2 1_555 1_555
N15_2 Fe2 1_555 1_555
N16_2 N17_2 1_555 1_555
N17_2 C27_2 1_555 1_555
N18_2 N19_2 1_555 1_555
N19_2 H3_2 1_555 1_555
H4_2 N19_2 1_555 1_555
N42 C30_2 1_555 1_555
N26_2 N27_2 1_555 1_555
N32 C50_2 1_555 1_555
C11_2 N8_2 1_555 1_555
C12_2 C11_2 1_555 1_555
C13_2 C12_2 1_555 1_555
C14_2 C13_2 1_555 1_555
H14_2 C14_2 1_555 1_555
C15_2 N41 1_555 1_555
H15_2 C15_2 1_555 1_555
C16_2 C12_2 1_555 1_555
H16_2 C16_2 1_555 1_555
C17_2 Au2_2 1_555 1_555
C18_2 N12_2 1_555 1_555
C19_2 N13_2 1_555 1_555
C20 N14_2 1_555 1_555
C21_2 N15_2 1_555 1_555
H17_2 C21_2 1_555 1_555
C22_2 C21_2 1_555 1_555
H18_2 C22_2 1_555 1_555
C23_2 C22_2 1_555 1_555
C24_2 C23_2 1_555 1_555
H19_2 C24_2 1_555 1_555
C25_2 N15_2 1_555 1_555
H20_2 C25_2 1_555 1_555
C26_2 N16_2 1_555 1_555
C27_2 N18_2 1_555 1_555
C28_2 C27_2 1_555 1_555
C29_2 C28_2 1_555 1_555
H21_2 C29_2 1_555 1_555
C30_2 C29_2 1_555 1_555
H22_2 C30_2 1_555 1_555
C31_2 N42 1_555 1_555
H23_2 C31_2 1_555 1_555
C32_2 C28_2 1_555 1_555
H24_2 C32_2 1_555 1_555
H26_2 C38_2 1_555 1_555
C39_2 C38_2 1_555 1_555
C40_2 C39_2 1_555 1_555
C42_2 N26_2 1_555 1_555
C50_2 Au1_2 1_555 1_555
Au9 C20 1_555 1_555
Fe7 N32 1_555 1_555
N18_2 C26_2 1_555 1_555
C15_2 C16_2 1_555 1_555
C23_2 C26_2 1_555 1_555
C24_2 C25_2 1_555 1_555
C31_2 C32_2 1_555 1_555
C39_2 C42_2 1_555 1_555
N35 C53_2 1_555 1_555
N38_2 N39_2 1_555 1_555
N39_2 H7_2 1_555 1_555
H8_2 N39_2 1_555 1_555
C53_2 H33_2 1_555 1_555
C54_2 C53_2 1_555 1_555
H34_2 C54_2 1_555 1_555
C55_2 C54_2 1_555 1_555
C56_2 C55_2 1_555 1_555
H35_2 C56_2 1_555 1_555
C57_2 N35 1_555 1_555
H36_2 C57_2 1_555 1_555
C58_2 N36_2 1_555 1_555
Fe7 N35 1_555 1_555
N38_2 C58_2 1_555 1_555
C55_2 C58_2 1_555 1_555
C56_2 C57_2 1_555 1_555
Au9 C3_2 1_555 1_555
Fe1_2 N1_2 1_555 1_555
N1_2 C1_2 1_555 1_555
N2_2 Fe1_2 1_555 1_555
N3_2 Fe1_2 1_555 1_555
N4_2 Fe1_2 1_555 1_555
N5_2 Fe1_2 1_555 1_555
N6_2 N7_2 1_555 1_555
N37_2 C59_2 1_555 1_555
N40_2 Fe1_2 1_555 1_555
C2_2 N2_2 1_555 1_555
C3_2 N3_2 1_555 1_555
C4 N4_2 1_555 1_555
C5_2 N5_2 1_555 1_555
H9_2 C5_2 1_555 1_555
C6_2 C5_2 1_555 1_555
H10_2 C6_2 1_555 1_555
C7_2 C6_2 1_555 1_555
C8_2 C7_2 1_555 1_555
C9_2 N5_2 1_555 1_555
C10_2 N6_2 1_555 1_555
C60_2 C59_2 1_555 1_555
C61_2 C60_2 1_555 1_555
H37_2 C61_2 1_555 1_555
C62_2 N40_2 1_555 1_555
H38_2 C62_2 1_555 1_555
C63_2 N40_2 1_555 1_555
H39_2 C63_2 1_555 1_555
C64_2 C60_2 1_555 1_555
H40_2 C64_2 1_555 1_555
Au10 C4 1_555 1_555
C7_2 C10_2 1_555 1_555
C8_2 C9_2 1_555 1_555
C61_2 C62_2 1_555 1_555
C63_2 C64_2 1_555 1_555
Au10 C51_2 1_555 1_555
N33_2 Fe7 1_555 1_555
C51_2 N33_2 1_555 1_555

#END
