
###############################################################################
#
# This file contains modified crystal structure data generated from the
# MOF subset of the Cambridge Structural Database (CSD) v543 
# hosted by the Cambridge Crystallographic Data Centre (CCDC).
#
# This work is licensed under the Creative Commons
# Attribution-NonCommercial-ShareAlike 4.0 International License.
# To view a copy of this license, visit
# http://creativecommons.org/licenses/by-nc-sa/4.0/
# or send a letter to
# Creative Commons, PO Box 1866, Mountain View, CA 94042, USA.
#
# CIF created using the CSD Python API on 29 September 2022
# The structure has been converted into the P1 space group
# The structure has a 3D framework
# The original CSD entry YOQKEX12 is in the triclinic crystal system
# The framework has been calculated to contain at least 10.0% void space
# The void calculation uses a probe of radius 1.32A, grid spacing 0.4
#
###############################################################################

data_YOQKEX12
_chemical_formula_moiety         '(C128 H80 Au16 Fe8 N80)n'
_symmetry_cell_setting           triclinic
_symmetry_space_group_name_H-M   'P 1'
_symmetry_Int_Tables_number      1
_space_group_name_Hall           'P 1'
loop_
_symmetry_equiv_pos_site_id
_symmetry_equiv_pos_as_xyz
1 x,y,z
_cell_length_a                   31.028(2)
_cell_length_b                   12.8539(9)
_cell_length_c                   17.1305(12)
_cell_angle_alpha                67.964(2)
_cell_angle_beta                 79.519(2)
_cell_angle_gamma                78.084(2)
_cell_volume                     6155.38
loop_
_atom_site_label
_atom_site_type_symbol
_atom_site_fract_x
_atom_site_fract_y
_atom_site_fract_z
Fe10 Fe 0.01554(6) 0.6952(2) 0.59288(15)
H30 H 0.001124 0.937954 0.459604
Au4 Au 0.13517(2) 0.42906(5) 0.46769(4)
N33 N 0.0550(5) 0.5788(12) 0.5338(10)
C51 C 0.0820(6) 0.5189(15) 0.5095(12)
N44 N 0.0663(4) 0.8064(12) 0.5399(9)
N46 N 0.0513(4) 0.6014(11) 0.7049(9)
C65 C 0.1885(5) 0.3403(14) 0.4239(11)
Au3 Au 0.38590(3) 0.46768(6) 0.21715(5)
Fe1 Fe 0.26857(6) 0.19660(18) 0.34198(14)
N1 N 0.2281(4) 0.0655(13) 0.3996(9)
N2 N 0.3177(5) 0.0898(13) 0.2900(10)
N3 N 0.3065(5) 0.3290(12) 0.2849(11)
N4 N 0.2185(4) 0.2938(12) 0.3939(10)
N5 N 0.3020(4) 0.1436(12) 0.4518(9)
N6 N 0.3712(6) 0.1465(14) 0.6956(12)
N7 N 0.3944(6) 0.1014(14) 0.7648(12)
N37 N 0.1446(5) 0.2365(14) 0.0145(12)
N40 N 0.2331(4) 0.2445(10) 0.2320(10)
C1 C 0.1969(4) 0.0190(14) 0.4251(10)
C2 C 0.3458(6) 0.0353(15) 0.2629(12)
C3 C 0.3336(7) 0.3873(17) 0.2602(13)
C5 C 0.3048(6) 0.2221(14) 0.4858(11)
H9 H 0.291284 0.298208 0.459904
C6 C 0.3257(6) 0.1968(16) 0.5542(14)
H10 H 0.325722 0.254413 0.576231
C7 C 0.3477(6) 0.0857(15) 0.5940(14)
C8 C 0.3443(7) 0.0043(15) 0.5602(13)
C9 C 0.3206(6) 0.0397(15) 0.4882(12)
C10 C 0.3687(6) 0.0643(16) 0.6681(12)
H13 H 0.461119 0.043726 0.851797
C59 C 0.1569(6) 0.3207(17) 0.0283(14)
C60 C 0.1833(6) 0.2995(16) 0.0977(13)
C61 C 0.2101(6) 0.1953(15) 0.1255(13)
H37 H 0.212295 0.140623 0.099444
C62 C 0.2338(6) 0.1735(14) 0.1931(13)
H38 H 0.251959 0.101633 0.212492
C63 C 0.2079(6) 0.3514(16) 0.2013(15)
H39 H 0.208373 0.407281 0.224876
C64 C 0.1823(7) 0.3764(16) 0.1371(13)
H40 H 0.163666 0.447682 0.119479
C66 C 0.4397(7) 0.5503(15) 0.1725(13)
N36 N 0.1213(5) 0.2839(13) 0.9455(11)
N38 N 0.1427(5) 0.4195(13) 0.9699(10)
N39 N 0.1497(6) 0.5280(14) 0.9609(11)
H7 H 0.124104 0.578405 0.957979
H8 H 0.167194 0.552265 0.911989
C53 C 0.0539(5) 0.4879(14) 0.7365(12)
H33 H 0.040171 0.452150 0.710017
C54 C 0.0760(6) 0.4207(15) 0.8069(13)
H34 H 0.076322 0.340871 0.828811
C55 C 0.0974(5) 0.4701(15) 0.8449(12)
C56 C 0.0936(6) 0.5880(17) 0.8103(13)
H35 H 0.106989 0.626604 0.834982
C57 C 0.0711(5) 0.6498(16) 0.7413(12)
H36 H 0.069625 0.730056 0.719059
C58 C 0.1200(6) 0.3951(15) 0.9178(12)
C67 C 0.6931(9) 0.0191(16) 0.9240(14)
Fe5 Fe 0.51571(9) 0.69629(19) 0.09181(17)
Au1 Au 0.14637(2) 0.94108(6) 0.46595(5)
Au2 Au 0.39642(3) 0.94679(7) 0.21577(5)
N8 N 0.3922(5) 0.9632(12) 0.7199(10)
N9 N 0.3995(6) 0.8578(13) 0.7097(11)
H1 H 0.373809 0.836323 0.706286
H2 H 0.417069 0.863993 0.660976
N10 N 0.4818(5) 0.7884(13) 0.9840(10)
N11 N 0.4779(5) 0.8053(13) 0.1465(10)
N12 N 0.5638(6) 0.7965(12) 0.0419(10)
N13 N 0.5523(5) 0.5846(14) 0.0356(10)
N14 N 0.4691(6) 0.5974(13) 0.1422(10)
N15 N 0.5495(5) 0.6052(13) 0.1988(10)
N16 N 0.6194(6) 0.2894(15) 0.4421(13)
N17 N 0.6416(6) 0.2418(14) 0.5124(12)
N18 N 0.6396(4) 0.4275(12) 0.4656(10)
N19 N 0.6497(6) 0.5336(12) 0.4582(11)
H3 H 0.624167 0.584191 0.455358
H4 H 0.667397 0.558901 0.409628
N20 N 0.7290(5) 0.2484(12) 0.7338(9)
N26 N 0.8690(6) 0.1520(13) 0.1924(12)
N27 N 0.8923(6) 0.1065(14) 0.2630(12)
H11 H 0.357376 0.927410 0.584621
H12 H 0.318397 0.984203 0.465466
C11 C 0.4054(7) 0.9940(17) 0.7782(14)
C12 C 0.4324(7) 0.9186(15) 0.8478(13)
C13 C 0.4587(6) 0.9653(16) 0.8782(13)
C14 C 0.4814(7) 0.9003(16) 0.9459(13)
H14 H 0.497802 0.936625 0.967063
C15 C 0.4577(7) 0.7394(15) 0.9543(12)
H15 H 0.457635 0.659752 0.979629
C16 C 0.4321(7) 0.8027(17) 0.8862(14)
H16 H 0.414879 0.765951 0.867015
C17 C 0.4489(6) 0.8560(17) 0.1713(12)
C18 C 0.5900(7) 0.8508(14) 0.0153(12)
C19 C 0.5798(5) 0.5276(14) 0.0131(11)
C21 C 0.5532(6) 0.4903(15) 0.2340(13)
H17 H 0.539535 0.452923 0.208735
C22 C 0.5747(6) 0.4250(15) 0.3018(13)
H18 H 0.576226 0.344857 0.321761
C23 C 0.5947(6) 0.4749(16) 0.3429(12)
C24 C 0.5916(6) 0.5940(14) 0.3092(12)
H19 H 0.604264 0.632853 0.334665
C25 C 0.5698(6) 0.6528(15) 0.2386(12)
H20 H 0.568831 0.732862 0.215781
C26 C 0.6177(6) 0.3990(16) 0.4164(13)
C27 C 0.6548(6) 0.3239(16) 0.5268(12)
C28 C 0.6800(6) 0.3047(15) 0.5958(12)
C29 C 0.7062(6) 0.1990(15) 0.6264(12)
H21 H 0.707774 0.144862 0.600124
C30 C 0.7298(6) 0.1714(14) 0.6938(12)
H22 H 0.746943 0.098304 0.713547
C31 C 0.7046(8) 0.3470(16) 0.7041(13)
H23 H 0.703561 0.399449 0.731628
C32 C 0.6796(7) 0.3832(18) 0.6351(15)
H24 H 0.663262 0.457467 0.616040
C38 C 0.8246(6) 0.1986(15) 0.0528(12)
H26 H 0.826399 0.257390 0.072469
C39 C 0.8448(5) 0.0884(14) 0.0939(11)
C40 C 0.8417(5) 0.0086(15) 0.0585(12)
C42 C 0.8683(6) 0.0695(14) 0.1649(13)
H29 H 0.959992 0.049138 0.348580
C50 C 0.0944(5) 0.8577(15) 0.5128(11)
Fe6 Fe 0.76270(6) 0.19626(17) 0.84263(14)
Au5 Au 0.64047(3) 0.93999(6) 0.96703(5)
Au6 Au 0.63080(2) 0.43381(6) 0.96832(5)
Au8 Au 0.88082(2) 0.46715(5) 0.71885(4)
N21 N 0.7234(6) 0.0663(13) 0.8996(11)
N22 N 0.8124(4) 0.0955(11) 0.7926(10)
N23 N 0.8018(4) 0.3290(13) 0.7847(9)
N24 N 0.7147(5) 0.2983(13) 0.8945(10)
N25 N 0.7988(4) 0.1456(11) 0.9501(9)
N34 N 0.9644(4) 0.5887(12) 0.6472(9)
C34 C 0.8398(6) 0.0423(16) 0.7653(12)
C35 C 0.8309(5) 0.3825(14) 0.7603(10)
C36 C 0.6840(7) 0.3461(17) 0.9248(12)
C37 C 0.8023(5) 0.2237(14) 0.9843(13)
H25 H 0.788431 0.299651 0.959213
C41 C 0.8192(5) 0.0372(14) 0.9910(13)
C52 C 0.9337(5) 0.5435(14) 0.6760(10)
N28 N 0.8901(4) 0.9729(12) 0.2153(10)
N29 N 0.9001(5) 0.8627(13) 0.2072(11)
H5 H 0.874546 0.841259 0.202789
H6 H 0.918206 0.868719 0.159039
N30 N 0.9802(5) 0.7907(11) 0.4816(9)
H27 H 0.855736 0.932533 0.082532
C43 C 0.9056(6) 0.9956(15) 0.2763(12)
C44 C 0.9304(5) 0.9208(15) 0.3457(12)
C45 C 0.9581(6) 0.9704(15) 0.3748(12)
C46 C 0.9824(6) 0.9039(13) 0.4413(13)
C47 C 0.9542(6) 0.7472(17) 0.4505(14)
H31 H 0.953239 0.668055 0.476545
C48 C 0.9293(7) 0.8053(18) 0.3859(16)
H32 H 0.911530 0.767778 0.368435
Au7 Au 0.89104(2) 0.95138(6) 0.71731(5)
N31 N 0.9754(4) 0.8123(12) 0.6513(10)
H28 H 0.817439 0.979136 0.970602
C49 C 0.9446(5) 0.8625(14) 0.6761(12)
Au7_2 Au 0.10896(2) 0.04862(6) 0.28269(5)
N31_2 N 0.0246(4) 0.1877(12) 0.3487(10)
H28_2 H 0.182561 0.020864 0.029398
C49_2 C 0.0554(5) 0.1375(14) 0.3239(12)
Au11 Au 0.35953(3) 0.06001(6) 0.03297(5)
N43 N 0.0198(5) 0.2093(11) 0.5184(9)
N45 N 0.0356(4) 0.4113(12) 0.3528(9)
N28_2 N 0.1099(4) 0.0271(12) 0.7847(10)
N29_2 N 0.0999(5) 0.1373(13) 0.7928(11)
H5_2 H 0.125454 0.158741 0.797211
H6_2 H 0.081794 0.131281 0.840961
H27_2 H 0.144264 0.067467 0.917468
C43_2 C 0.0944(6) 0.0044(15) 0.7237(12)
C44_2 C 0.0696(5) 0.0792(15) 0.6543(12)
C45_2 C 0.0419(6) 0.0296(15) 0.6252(12)
C46_2 C 0.0176(6) 0.0961(13) 0.5587(13)
C47_2 C 0.0458(6) 0.2528(17) 0.5495(14)
H31_2 H 0.046761 0.331945 0.523455
C48_2 C 0.0707(7) 0.1947(18) 0.6141(16)
H32_2 H 0.088470 0.232222 0.631565
Au6_2 Au 0.36920(2) 0.56619(6) 0.03168(5)
Au8_2 Au 0.11918(2) 0.53285(5) 0.28115(4)
Fe3 Fe 0.23730(6) 0.80374(17) 0.15737(14)
N21_2 N 0.2766(6) 0.9337(13) 0.1004(11)
N22_2 N 0.1876(4) 0.9045(11) 0.2074(10)
N23_2 N 0.1982(4) 0.6710(13) 0.2153(9)
N24_2 N 0.2853(5) 0.7017(13) 0.1055(10)
N25_2 N 0.2012(4) 0.8544(11) 0.0499(9)
C33 C 0.3069(9) 0.9809(16) 0.0760(14)
C34_2 C 0.1602(6) 0.9577(16) 0.2347(12)
C35_2 C 0.1691(5) 0.6175(14) 0.2397(10)
C36_2 C 0.3160(7) 0.6539(17) 0.0752(12)
C37_2 C 0.1977(5) 0.7763(14) 0.0157(13)
H25_2 H 0.211569 0.700349 0.040787
C41_2 C 0.1808(5) 0.9628(14) 0.0090(13)
C52_2 C 0.0663(5) 0.4565(14) 0.3240(10)
N41 N 0.5182(5) 0.2116(13) 0.0160(10)
N42 N 0.2710(5) 0.7516(12) 0.2662(9)
Au1_2 Au 0.85363(2) 0.05892(6) 0.53405(5)
Au2_2 Au 0.60358(3) 0.05321(7) 0.78423(5)
Fe2 Fe 0.48429(9) 0.30371(19) 0.90819(17)
N8_2 N 0.6078(5) 0.0368(12) 0.2801(10)
N9_2 N 0.6005(6) 0.1422(13) 0.2903(11)
H1_2 H 0.626191 0.163677 0.293714
H2_2 H 0.582931 0.136007 0.339024
N11_2 N 0.5221(5) 0.1947(13) 0.8535(10)
N12_2 N 0.4362(6) 0.2035(12) 0.9581(10)
N13_2 N 0.4477(5) 0.4154(14) 0.9644(10)
N14_2 N 0.5309(6) 0.4026(13) 0.8578(10)
N15_2 N 0.4505(5) 0.3948(13) 0.8012(10)
N16_2 N 0.3806(6) 0.7106(15) 0.5579(13)
N17_2 N 0.3584(6) 0.7582(14) 0.4876(12)
N18_2 N 0.3604(4) 0.5725(12) 0.5344(10)
N19_2 N 0.3503(6) 0.4664(12) 0.5418(11)
H3_2 H 0.375833 0.415809 0.544642
H4_2 H 0.332603 0.441099 0.590372
N26_2 N 0.1310(6) 0.8480(13) 0.8076(12)
N27_2 N 0.1077(6) 0.8935(14) 0.7370(12)
N32 N 0.9337(4) 0.1936(12) 0.4601(9)
H11_2 H 0.642624 0.072590 0.415379
H12_2 H 0.681603 0.015797 0.534534
C11_2 C 0.5946(7) 0.0060(17) 0.2218(14)
C12_2 C 0.5676(7) 0.0814(15) 0.1522(13)
C13_2 C 0.5413(6) 0.0347(16) 0.1218(13)
C14_2 C 0.5186(7) 0.0997(16) 0.0541(13)
H14_2 H 0.502198 0.063375 0.032937
C15_2 C 0.5423(7) 0.2606(15) 0.0457(12)
H15_2 H 0.542365 0.340248 0.020371
C16_2 C 0.5679(7) 0.1973(17) 0.1138(14)
H16_2 H 0.585121 0.234049 0.132985
C17_2 C 0.5511(6) 0.1440(17) 0.8287(12)
C18_2 C 0.4100(7) 0.1492(14) 0.9847(12)
C19_2 C 0.4202(5) 0.4724(14) 0.9869(11)
C20 C 0.5603(7) 0.4497(15) 0.8275(13)
C21_2 C 0.4468(6) 0.5097(15) 0.7660(13)
H17_2 H 0.460465 0.547077 0.791265
C22_2 C 0.4253(6) 0.5750(15) 0.6982(13)
H18_2 H 0.423774 0.655143 0.678239
C23_2 C 0.4053(6) 0.5251(16) 0.6571(12)
C24_2 C 0.4084(6) 0.4060(14) 0.6908(12)
H19_2 H 0.395736 0.367147 0.665335
C25_2 C 0.4302(6) 0.3472(15) 0.7614(12)
H20_2 H 0.431169 0.267138 0.784219
C26_2 C 0.3823(6) 0.6010(16) 0.5836(13)
C27_2 C 0.3452(6) 0.6761(16) 0.4732(12)
C28_2 C 0.3200(6) 0.6953(15) 0.4042(12)
C29_2 C 0.2938(6) 0.8010(15) 0.3736(12)
H21_2 H 0.292226 0.855138 0.399876
C30_2 C 0.2702(6) 0.8286(14) 0.3062(12)
H22_2 H 0.253057 0.901696 0.286453
C31_2 C 0.2954(8) 0.6530(16) 0.2959(13)
H23_2 H 0.296439 0.600551 0.268372
C32_2 C 0.3204(7) 0.6168(18) 0.3649(15)
H24_2 H 0.336738 0.542533 0.383960
C38_2 C 0.1754(6) 0.8014(15) 0.9472(12)
H26_2 H 0.173601 0.742610 0.927531
C39_2 C 0.1552(5) 0.9116(14) 0.9061(11)
C40_2 C 0.1583(5) 0.9914(15) 0.9415(12)
C42_2 C 0.1317(6) 0.9305(14) 0.8351(13)
H29_2 H 0.040008 0.950862 0.651420
C50_2 C 0.9056(5) 0.1423(15) 0.4872(11)
Au9 Au 0.61410(3) 0.53232(6) 0.78285(5)
Fe7 Fe 0.98446(6) 0.3048(2) 0.40712(15)
N35 N 0.9487(4) 0.3986(11) 0.2951(9)
N36_2 N 0.8787(5) 0.7161(13) 0.0545(11)
N38_2 N 0.8573(5) 0.5805(13) 0.0301(10)
N39_2 N 0.8503(6) 0.4720(14) 0.0391(11)
H7_2 H 0.875896 0.421595 0.042021
H8_2 H 0.832806 0.447735 0.088011
C53_2 C 0.9461(5) 0.5121(14) 0.2635(12)
H33_2 H 0.959829 0.547850 0.289983
C54_2 C 0.9240(6) 0.5793(15) 0.1931(13)
H34_2 H 0.923678 0.659129 0.171189
C55_2 C 0.9026(5) 0.5299(15) 0.1551(12)
C56_2 C 0.9064(6) 0.4120(17) 0.1897(13)
H35_2 H 0.893011 0.373396 0.165018
C57_2 C 0.9289(5) 0.3502(16) 0.2587(12)
H36_2 H 0.930375 0.269944 0.280941
C58_2 C 0.8800(6) 0.6049(15) 0.0822(12)
Fe1_2 Fe 0.73143(6) 0.80340(18) 0.65802(14)
N1_2 N 0.7719(4) 0.9345(13) 0.6004(9)
N2_2 N 0.6823(5) 0.9102(13) 0.7100(10)
N3_2 N 0.6935(5) 0.6710(12) 0.7151(11)
N4_2 N 0.7815(4) 0.7062(12) 0.6061(10)
N5_2 N 0.6980(4) 0.8564(12) 0.5482(9)
N6_2 N 0.6288(6) 0.8535(14) 0.3044(12)
N7_2 N 0.6056(6) 0.8986(14) 0.2352(12)
N37_2 N 0.8554(5) 0.7635(14) 0.9855(12)
N40_2 N 0.7669(4) 0.7555(10) 0.7680(10)
C1_2 C 0.8031(4) 0.9810(14) 0.5749(10)
C2_2 C 0.6542(6) 0.9647(15) 0.7371(12)
C3_2 C 0.6664(7) 0.6127(17) 0.7398(13)
C4 C 0.8115(5) 0.6597(14) 0.5761(11)
C5_2 C 0.6952(6) 0.7779(14) 0.5142(11)
H9_2 H 0.708716 0.701792 0.540096
C6_2 C 0.6743(6) 0.8032(16) 0.4458(14)
H10_2 H 0.674278 0.745587 0.423769
C7_2 C 0.6523(6) 0.9143(15) 0.4060(14)
C8_2 C 0.6557(7) 0.9957(15) 0.4398(13)
C9_2 C 0.6794(6) 0.9603(15) 0.5118(12)
C10_2 C 0.6313(6) 0.9357(16) 0.3319(12)
H13_2 H 0.538881 0.956274 0.148203
C59_2 C 0.8431(6) 0.6793(17) 0.9717(14)
C60_2 C 0.8167(6) 0.7005(16) 0.9023(13)
C61_2 C 0.7899(6) 0.8047(15) 0.8745(13)
H37_2 H 0.787705 0.859377 0.900556
C62_2 C 0.7662(6) 0.8265(14) 0.8069(13)
H38_2 H 0.748041 0.898367 0.787508
C63_2 C 0.7921(6) 0.6486(16) 0.7987(15)
H39_2 H 0.791627 0.592719 0.775124
C64_2 C 0.8177(7) 0.6236(16) 0.8629(13)
H40_2 H 0.836334 0.552318 0.880521
Au10 Au 0.86483(2) 0.57094(5) 0.53231(4)
N33_2 N 0.9450(5) 0.4212(12) 0.4662(10)
C51_2 C 0.9180(6) 0.4811(15) 0.4905(12)
H30_2 H 0.998876 0.062046 0.540396
loop_
_geom_bond_atom_site_label_1
_geom_bond_atom_site_label_2
_geom_bond_site_symmetry_1
_geom_bond_site_symmetry_2
Au4 C51 1_555 1_555
N33 Fe10 1_555 1_555
C51 N33 1_555 1_555
N44 Fe10 1_555 1_555
N46 Fe10 1_555 1_555
C65 Au4 1_555 1_555
Au3 C3 1_555 1_555
Fe1 N1 1_555 1_555
N1 C1 1_555 1_555
N2 Fe1 1_555 1_555
N3 Fe1 1_555 1_555
N4 Fe1 1_555 1_555
N5 Fe1 1_555 1_555
N6 N7 1_555 1_555
N37 C59 1_555 1_555
N40 Fe1 1_555 1_555
C2 N2 1_555 1_555
C3 N3 1_555 1_555
C65 N4 1_555 1_555
C5 N5 1_555 1_555
H9 C5 1_555 1_555
C6 C5 1_555 1_555
H10 C6 1_555 1_555
C7 C6 1_555 1_555
C8 C7 1_555 1_555
C9 N5 1_555 1_555
C10 N6 1_555 1_555
C60 C59 1_555 1_555
C61 C60 1_555 1_555
H37 C61 1_555 1_555
C62 N40 1_555 1_555
H38 C62 1_555 1_555
C63 N40 1_555 1_555
H39 C63 1_555 1_555
C64 C60 1_555 1_555
H40 C64 1_555 1_555
C66 Au3 1_555 1_555
C7 C10 1_555 1_555
C8 C9 1_555 1_555
C61 C62 1_555 1_555
C63 C64 1_555 1_555
N46 C53 1_555 1_555
N38 N39 1_555 1_555
N39 H7 1_555 1_555
H8 N39 1_555 1_555
C53 H33 1_555 1_555
C54 C53 1_555 1_555
H34 C54 1_555 1_555
C55 C54 1_555 1_555
C56 C55 1_555 1_555
H35 C56 1_555 1_555
C57 N46 1_555 1_555
H36 C57 1_555 1_555
C58 N36 1_555 1_555
N38 C58 1_555 1_555
C55 C58 1_555 1_555
C56 C57 1_555 1_555
Fe5 N11 1_555 1_555
N8 N9 1_555 1_555
N9 H1 1_555 1_555
H2 N9 1_555 1_555
N10 C14 1_555 1_555
N11 C17 1_555 1_555
N12 Fe5 1_555 1_555
N13 Fe5 1_555 1_555
N14 Fe5 1_555 1_555
N15 Fe5 1_555 1_555
N16 N17 1_555 1_555
N17 C27 1_555 1_555
N18 N19 1_555 1_555
N19 H3 1_555 1_555
H4 N19 1_555 1_555
N20 C30 1_555 1_555
N26 N27 1_555 1_555
N44 C50 1_555 1_555
C11 N8 1_555 1_555
C12 C11 1_555 1_555
C13 C12 1_555 1_555
C14 C13 1_555 1_555
H14 C14 1_555 1_555
C15 N10 1_555 1_555
H15 C15 1_555 1_555
C16 C12 1_555 1_555
H16 C16 1_555 1_555
C17 Au2 1_555 1_555
C18 N12 1_555 1_555
C19 N13 1_555 1_555
C66 N14 1_555 1_555
C21 N15 1_555 1_555
H17 C21 1_555 1_555
C22 C21 1_555 1_555
H18 C22 1_555 1_555
C23 C22 1_555 1_555
C24 C23 1_555 1_555
H19 C24 1_555 1_555
C25 N15 1_555 1_555
H20 C25 1_555 1_555
C26 N16 1_555 1_555
C27 N18 1_555 1_555
C28 C27 1_555 1_555
C29 C28 1_555 1_555
H21 C29 1_555 1_555
C30 C29 1_555 1_555
H22 C30 1_555 1_555
C31 N20 1_555 1_555
H23 C31 1_555 1_555
C32 C28 1_555 1_555
H24 C32 1_555 1_555
H26 C38 1_555 1_555
C39 C38 1_555 1_555
C40 C39 1_555 1_555
C42 N26 1_555 1_555
C50 Au1 1_555 1_555
Fe6 N20 1_555 1_555
N18 C26 1_555 1_555
C15 C16 1_555 1_555
C23 C26 1_555 1_555
C24 C25 1_555 1_555
C31 C32 1_555 1_555
C39 C42 1_555 1_555
Au8 C35 1_555 1_555
Fe6 N21 1_555 1_555
N21 C67 1_555 1_555
N22 Fe6 1_555 1_555
N23 Fe6 1_555 1_555
N24 Fe6 1_555 1_555
N25 Fe6 1_555 1_555
N34 C52 1_555 1_555
C34 N22 1_555 1_555
C35 N23 1_555 1_555
C36 Au6 1_555 1_555
C37 N25 1_555 1_555
H25 C37 1_555 1_555
C41 N25 1_555 1_555
C52 Au8 1_555 1_555
N24 C36 1_555 1_555
N28 N29 1_555 1_555
N29 H5 1_555 1_555
H6 N29 1_555 1_555
N30 C46 1_555 1_555
C43 N28 1_555 1_555
C44 C43 1_555 1_555
C45 C44 1_555 1_555
C46 C45 1_555 1_555
C47 N30 1_555 1_555
H31 C47 1_555 1_555
C48 C44 1_555 1_555
H32 C48 1_555 1_555
C47 C48 1_555 1_555
N31 C49 1_555 1_555
C49 Au7 1_555 1_555
N31_2 C49_2 1_555 1_555
C49_2 Au7_2 1_555 1_555
N28_2 N29_2 1_555 1_555
N29_2 H5_2 1_555 1_555
H6_2 N29_2 1_555 1_555
N43 C46_2 1_555 1_555
C43_2 N28_2 1_555 1_555
C44_2 C43_2 1_555 1_555
C45_2 C44_2 1_555 1_555
C46_2 C45_2 1_555 1_555
C47_2 N43 1_555 1_555
H31_2 C47_2 1_555 1_555
C48_2 C44_2 1_555 1_555
H32_2 C48_2 1_555 1_555
C47_2 C48_2 1_555 1_555
Au8_2 C35_2 1_555 1_555
Fe3 N21_2 1_555 1_555
N21_2 C33 1_555 1_555
N22_2 Fe3 1_555 1_555
N23_2 Fe3 1_555 1_555
N24_2 Fe3 1_555 1_555
N25_2 Fe3 1_555 1_555
N45 C52_2 1_555 1_555
C34_2 N22_2 1_555 1_555
C35_2 N23_2 1_555 1_555
C36_2 Au6_2 1_555 1_555
C37_2 N25_2 1_555 1_555
H25_2 C37_2 1_555 1_555
C41_2 N25_2 1_555 1_555
C52_2 Au8_2 1_555 1_555
N42 Fe3 1_555 1_555
N24_2 C36_2 1_555 1_555
Fe2 N11_2 1_555 1_555
N8_2 N9_2 1_555 1_555
N9_2 H1_2 1_555 1_555
H2_2 N9_2 1_555 1_555
N41 C14_2 1_555 1_555
N11_2 C17_2 1_555 1_555
N12_2 Fe2 1_555 1_555
N13_2 Fe2 1_555 1_555
N14_2 Fe2 1_555 1_555
N15_2 Fe2 1_555 1_555
N16_2 N17_2 1_555 1_555
N17_2 C27_2 1_555 1_555
N18_2 N19_2 1_555 1_555
N19_2 H3_2 1_555 1_555
H4_2 N19_2 1_555 1_555
N42 C30_2 1_555 1_555
N26_2 N27_2 1_555 1_555
N32 C50_2 1_555 1_555
C11_2 N8_2 1_555 1_555
C12_2 C11_2 1_555 1_555
C13_2 C12_2 1_555 1_555
C14_2 C13_2 1_555 1_555
H14_2 C14_2 1_555 1_555
C15_2 N41 1_555 1_555
H15_2 C15_2 1_555 1_555
C16_2 C12_2 1_555 1_555
H16_2 C16_2 1_555 1_555
C17_2 Au2_2 1_555 1_555
C18_2 N12_2 1_555 1_555
C19_2 N13_2 1_555 1_555
C20 N14_2 1_555 1_555
C21_2 N15_2 1_555 1_555
H17_2 C21_2 1_555 1_555
C22_2 C21_2 1_555 1_555
H18_2 C22_2 1_555 1_555
C23_2 C22_2 1_555 1_555
C24_2 C23_2 1_555 1_555
H19_2 C24_2 1_555 1_555
C25_2 N15_2 1_555 1_555
H20_2 C25_2 1_555 1_555
C26_2 N16_2 1_555 1_555
C27_2 N18_2 1_555 1_555
C28_2 C27_2 1_555 1_555
C29_2 C28_2 1_555 1_555
H21_2 C29_2 1_555 1_555
C30_2 C29_2 1_555 1_555
H22_2 C30_2 1_555 1_555
C31_2 N42 1_555 1_555
H23_2 C31_2 1_555 1_555
C32_2 C28_2 1_555 1_555
H24_2 C32_2 1_555 1_555
H26_2 C38_2 1_555 1_555
C39_2 C38_2 1_555 1_555
C40_2 C39_2 1_555 1_555
C42_2 N26_2 1_555 1_555
C50_2 Au1_2 1_555 1_555
Au9 C20 1_555 1_555
Fe7 N32 1_555 1_555
N18_2 C26_2 1_555 1_555
C15_2 C16_2 1_555 1_555
C23_2 C26_2 1_555 1_555
C24_2 C25_2 1_555 1_555
C31_2 C32_2 1_555 1_555
C39_2 C42_2 1_555 1_555
N35 C53_2 1_555 1_555
N38_2 N39_2 1_555 1_555
N39_2 H7_2 1_555 1_555
H8_2 N39_2 1_555 1_555
C53_2 H33_2 1_555 1_555
C54_2 C53_2 1_555 1_555
H34_2 C54_2 1_555 1_555
C55_2 C54_2 1_555 1_555
C56_2 C55_2 1_555 1_555
H35_2 C56_2 1_555 1_555
C57_2 N35 1_555 1_555
H36_2 C57_2 1_555 1_555
C58_2 N36_2 1_555 1_555
Fe7 N35 1_555 1_555
N38_2 C58_2 1_555 1_555
C55_2 C58_2 1_555 1_555
C56_2 C57_2 1_555 1_555
Au9 C3_2 1_555 1_555
Fe1_2 N1_2 1_555 1_555
N1_2 C1_2 1_555 1_555
N2_2 Fe1_2 1_555 1_555
N3_2 Fe1_2 1_555 1_555
N4_2 Fe1_2 1_555 1_555
N5_2 Fe1_2 1_555 1_555
N6_2 N7_2 1_555 1_555
N37_2 C59_2 1_555 1_555
N40_2 Fe1_2 1_555 1_555
C2_2 N2_2 1_555 1_555
C3_2 N3_2 1_555 1_555
C4 N4_2 1_555 1_555
C5_2 N5_2 1_555 1_555
H9_2 C5_2 1_555 1_555
C6_2 C5_2 1_555 1_555
H10_2 C6_2 1_555 1_555
C7_2 C6_2 1_555 1_555
C8_2 C7_2 1_555 1_555
C9_2 N5_2 1_555 1_555
C10_2 N6_2 1_555 1_555
C60_2 C59_2 1_555 1_555
C61_2 C60_2 1_555 1_555
H37_2 C61_2 1_555 1_555
C62_2 N40_2 1_555 1_555
H38_2 C62_2 1_555 1_555
C63_2 N40_2 1_555 1_555
H39_2 C63_2 1_555 1_555
C64_2 C60_2 1_555 1_555
H40_2 C64_2 1_555 1_555
Au10 C4 1_555 1_555
C7_2 C10_2 1_555 1_555
C8_2 C9_2 1_555 1_555
C61_2 C62_2 1_555 1_555
C63_2 C64_2 1_555 1_555
Au10 C51_2 1_555 1_555
N33_2 Fe7 1_555 1_555
C51_2 N33_2 1_555 1_555

#END
