
###############################################################################
#
# This file contains modified crystal structure data generated from the
# MOF subset of the Cambridge Structural Database (CSD) v543 
# hosted by the Cambridge Crystallographic Data Centre (CCDC).
#
# This work is licensed under the Creative Commons
# Attribution-NonCommercial-ShareAlike 4.0 International License.
# To view a copy of this license, visit
# http://creativecommons.org/licenses/by-nc-sa/4.0/
# or send a letter to
# Creative Commons, PO Box 1866, Mountain View, CA 94042, USA.
#
# CIF created using the CSD Python API on 29 September 2022
# The structure has been converted into the P1 space group
# The structure has a 3D framework
# The original CSD entry YOQKEX09 is in the triclinic crystal system
# The framework has been calculated to contain at least 10.0% void space
# The void calculation uses a probe of radius 1.32A, grid spacing 0.4
#
###############################################################################

data_YOQKEX09
_chemical_formula_moiety         '(C64 H40 Au8 Fe2 N40)n'
_symmetry_cell_setting           triclinic
_symmetry_space_group_name_H-M   'P 1'
_symmetry_Int_Tables_number      1
_space_group_name_Hall           'P 1'
loop_
_symmetry_equiv_pos_site_id
_symmetry_equiv_pos_as_xyz
1 x,y,z
_cell_length_a                   16.1959(3)
_cell_length_b                   12.8342(3)
_cell_length_c                   17.0951(4)
_cell_angle_alpha                111.9735(17)
_cell_angle_beta                 69.1649(17)
_cell_angle_gamma                89.9956(17)
_cell_volume                     3043.23
loop_
_atom_site_label
_atom_site_type_symbol
_atom_site_fract_x
_atom_site_fract_y
_atom_site_fract_z
Fe2 Fe 0.03110(8) 0.19592(10) 0.39226(9)
N23 N 0.1300(6) 0.3002(7) 0.3936(6)
N24 N 0.1082(6) 0.0830(7) 0.4109(6)
N25 N 0.0999(5) 0.1042(7) 0.2488(6)
C24 C 0.1869(7) 0.0923(9) 0.0977(8)
H15 H 0.215036 0.130671 0.059627
C25 C 0.1409(7) 0.1531(9) 0.1900(7)
H16 H 0.137656 0.233417 0.213806
N12 N 0.9317(6) 0.0938(7) 0.3897(6)
N19 N 0.3003(7) 0.0323(6) 0.8901(6)
H3 H 0.249990 0.082379 0.917102
H4 H 0.334621 0.057519 0.921962
C18 C 0.8715(7) 0.0478(9) 0.3900(7)
C20 C 0.1640(7) 0.0241(9) 0.4069(7)
N21 N 0.9629(6) 0.2892(7) 0.5363(6)
N22 N 0.9518(6) 0.3080(7) 0.3745(6)
Au1 Au 0.28835(3) 0.43991(3) 0.38968(3)
Au2 Au 0.78685(3) 0.45068(4) 0.38992(3)
Au3 Au 0.76561(3) 0.96750(3) 0.39905(3)
Au4 Au 0.26702(3) 0.93089(3) 0.39881(3)
Fe1 Fe 0.53114(8) 0.69649(10) 0.39219(9)
N1 N 0.4531(6) 0.5686(7) 0.3755(6)
N2 N 0.6281(6) 0.5954(7) 0.3937(6)
N3 N 0.6071(6) 0.8269(7) 0.4100(6)
N4 N 0.4337(6) 0.7953(7) 0.3903(6)
N5 N 0.6005(5) 0.6449(6) 0.2496(6)
N16 N 0.2397(8) 0.7874(8) 0.9357(7)
N17 N 0.2868(7) 0.7395(8) 0.8420(7)
N18 N 0.2832(6) 0.9233(6) 0.8904(6)
N20 N 0.4628(5) 0.7472(6) 0.5353(6)
C1 C 0.3929(7) 0.5217(9) 0.3795(7)
C2 C 0.6849(7) 0.5403(9) 0.3919(7)
C3 C 0.6624(7) 0.8819(8) 0.4070(7)
C4 C 0.3735(7) 0.8421(9) 0.3903(7)
C5 C 0.6062(7) 0.7221(8) 0.2134(7)
H5 H 0.578094 0.797963 0.253249
C6 C 0.6506(7) 0.6981(9) 0.1215(7)
H6 H 0.653139 0.756184 0.099251
C7 C 0.6916(7) 0.5865(8) 0.0620(7)
C8 C 0.6852(7) 0.5066(9) 0.0997(7)
H7 H 0.712691 0.430028 0.061851
C9 C 0.6392(7) 0.5384(8) 0.1919(7)
H8 H 0.634562 0.481737 0.215796
C17 C 0.8918(8) 0.3597(9) 0.3797(7)
C19 C 0.1851(7) 0.3542(9) 0.3935(7)
C26 C 0.2370(7) 0.8984(9) 0.9644(7)
C27 C 0.3115(8) 0.8235(9) 0.8171(7)
C28 C 0.3629(7) 0.8034(9) 0.7216(7)
C29 C 0.4151(7) 0.6977(9) 0.6637(8)
H17 H 0.418106 0.642196 0.687422
C30 C 0.4625(7) 0.6726(9) 0.5728(8)
H18 H 0.496410 0.599006 0.534942
C31 C 0.4148(8) 0.8495(9) 0.5899(7)
H19 H 0.414737 0.904056 0.564631
C32 C 0.3651(9) 0.8799(10) 0.6813(9)
H20 H 0.331918 0.954152 0.717326
N6 N 0.7388(7) 0.6494(8) 0.9370(7)
N7 N 0.7858(7) 0.6029(8) 0.8432(7)
N8 N 0.7813(5) 0.4681(6) 0.8926(6)
N9 N 0.7985(7) 0.3587(6) 0.8924(6)
H1 H 0.748400 0.336847 0.922174
H2 H 0.834390 0.365268 0.922684
C10 C 0.7376(7) 0.5662(8) 0.9650(7)
C11 C 0.8114(8) 0.4938(9) 0.8173(7)
C12 C 0.8622(7) 0.4186(9) 0.7228(7)
C13 C 0.9156(8) 0.4672(9) 0.6655(8)
H9 H 0.919335 0.546042 0.689755
C14 C 0.9627(7) 0.4019(8) 0.5742(7)
H10 H 0.996536 0.437857 0.536349
C15 C 0.9123(9) 0.2417(10) 0.5905(8)
H11 H 0.910481 0.162527 0.564488
C16 C 0.8621(9) 0.3023(10) 0.6831(8)
H12 H 0.827935 0.264397 0.719001
C21 C 0.1065(7) 0.9909(8) 0.2126(7)
H13 H 0.078994 0.954450 0.252337
C22 C 0.1504(7) 0.9246(9) 0.1220(7)
H14 H 0.152697 0.844419 0.100549
C23 C 0.1922(7) 0.9742(9) 0.0602(7)
N6_2 N 0.2612(7) 0.3506(8) 0.0630(7)
N7_2 N 0.2142(7) 0.3971(8) 0.1568(7)
N8_2 N 0.2187(5) 0.5319(6) 0.1074(6)
N9_2 N 0.2015(7) 0.6413(6) 0.1076(6)
H1_2 H 0.251600 0.663153 0.077826
H2_2 H 0.165610 0.634732 0.077316
N10 N 0.0371(6) 0.7108(7) 0.4637(6)
C10_2 C 0.2624(7) 0.4338(8) 0.0350(7)
C11_2 C 0.1886(8) 0.5062(9) 0.1827(7)
C12_2 C 0.1378(7) 0.5814(9) 0.2772(7)
C13_2 C 0.0844(8) 0.5328(9) 0.3345(8)
H9_2 H 0.080665 0.453958 0.310245
C14_2 C 0.0373(7) 0.5981(8) 0.4258(7)
H10_2 H 0.003464 0.562143 0.463651
C15_2 C 0.0877(9) 0.7583(10) 0.4095(8)
H11_2 H 0.089519 0.837473 0.435512
C16_2 C 0.1379(9) 0.6977(10) 0.3169(8)
H12_2 H 0.172065 0.735603 0.280999
Au1_2 Au 0.71165(3) 0.56009(3) 0.61032(3)
Au2_2 Au 0.21315(3) 0.54932(4) 0.61008(3)
Au3_2 Au 0.23439(3) 0.03250(3) 0.60095(3)
Au4_2 Au 0.73298(3) 0.06911(3) 0.60119(3)
Fe1_2 Fe 0.46886(8) 0.30351(10) 0.60781(9)
N1_2 N 0.5469(6) 0.4314(7) 0.6245(6)
N2_2 N 0.3719(6) 0.4046(7) 0.6063(6)
N3_2 N 0.3929(6) 0.1731(7) 0.5900(6)
N4_2 N 0.5663(6) 0.2047(7) 0.6097(6)
N5_2 N 0.3995(5) 0.3551(6) 0.7504(6)
N11 N 0.0482(6) 0.6920(7) 0.6255(6)
N13 N 0.8700(6) 0.6998(7) 0.6064(6)
N16_2 N 0.7603(8) 0.2126(8) 0.0643(7)
N17_2 N 0.7132(7) 0.2605(8) 0.1580(7)
N18_2 N 0.7168(6) 0.0767(6) 0.1096(6)
N20_2 N 0.5372(5) 0.2528(6) 0.4647(6)
C1_2 C 0.6071(7) 0.4783(9) 0.6205(7)
C2_2 C 0.3151(7) 0.4597(9) 0.6081(7)
C3_2 C 0.3376(7) 0.1181(8) 0.5930(7)
C4_2 C 0.6265(7) 0.1579(9) 0.6097(7)
C5_2 C 0.3938(7) 0.2779(8) 0.7866(7)
H5_2 H 0.421906 0.202037 0.746751
C6_2 C 0.3494(7) 0.3019(9) 0.8785(7)
H6_2 H 0.346861 0.243816 0.900749
C7_2 C 0.3084(7) 0.4135(8) 0.9380(7)
C8_2 C 0.3148(7) 0.4934(9) 0.9003(7)
H7_2 H 0.287309 0.569972 0.938149
C9_2 C 0.3608(7) 0.4616(8) 0.8081(7)
H8_2 H 0.365438 0.518263 0.784204
C17_2 C 0.1082(8) 0.6403(9) 0.6203(7)
C19_2 C 0.8149(7) 0.6458(9) 0.6065(7)
C26_2 C 0.7630(7) 0.1016(9) 0.0356(7)
C27_2 C 0.6885(8) 0.1765(9) 0.1829(7)
C28_2 C 0.6371(7) 0.1966(9) 0.2784(7)
C29_2 C 0.5849(7) 0.3023(9) 0.3363(8)
H17_2 H 0.581894 0.357804 0.312578
C30_2 C 0.5375(7) 0.3274(9) 0.4272(8)
H18_2 H 0.503590 0.400994 0.465058
C31_2 C 0.5852(8) 0.1505(9) 0.4101(7)
H19_2 H 0.585263 0.095944 0.435369
C32_2 C 0.6349(9) 0.1201(10) 0.3187(9)
H20_2 H 0.668082 0.045848 0.282674
Fe3 Fe 0.96890(8) 0.80408(10) 0.60774(9)
N12_2 N 0.0683(6) 0.9062(7) 0.6103(6)
N14 N 0.8918(6) 0.9170(7) 0.5891(6)
N19_2 N 0.6997(7) 0.9677(6) 0.1099(6)
H3_2 H 0.750010 0.917621 0.082898
H4_2 H 0.665379 0.942481 0.078038
C18_2 C 0.1285(7) 0.9522(9) 0.6100(7)
C20_2 C 0.8360(7) 0.9759(9) 0.5931(7)
N15 N 0.9001(5) 0.8958(7) 0.7512(6)
C24_2 C 0.8131(7) 0.9077(9) 0.9023(8)
H15_2 H 0.784964 0.869329 0.940373
C25_2 C 0.8591(7) 0.8469(9) 0.8100(7)
H16_2 H 0.862344 0.766583 0.786194
C21_2 C 0.8935(7) 0.0091(8) 0.7874(7)
H13_2 H 0.921006 0.045550 0.747663
C22_2 C 0.8496(7) 0.0754(9) 0.8780(7)
H14_2 H 0.847303 0.155581 0.899451
C23_2 C 0.8078(7) 0.0258(9) 0.9398(7)
loop_
_geom_bond_atom_site_label_1
_geom_bond_atom_site_label_2
_geom_bond_site_symmetry_1
_geom_bond_site_symmetry_2
N23 Fe2 1_555 1_555
N24 Fe2 1_555 1_555
N25 Fe2 1_555 1_555
H15 C24 1_555 1_555
C25 N25 1_555 1_555
H16 C25 1_555 1_555
C24 C25 1_555 1_555
N12 C18 1_555 1_555
N24 C20 1_555 1_555
N19 H3 1_555 1_555
H4 N19 1_555 1_555
Au1 C1 1_555 1_555
Au2 C2 1_555 1_555
Au3 C3 1_555 1_555
Au4 C4 1_555 1_555
Fe1 N1 1_555 1_555
N1 C1 1_555 1_555
N2 Fe1 1_555 1_555
N3 Fe1 1_555 1_555
N4 Fe1 1_555 1_555
N5 Fe1 1_555 1_555
N22 C17 1_555 1_555
N23 C19 1_555 1_555
N16 N17 1_555 1_555
N17 C27 1_555 1_555
N20 Fe1 1_555 1_555
C2 N2 1_555 1_555
C3 N3 1_555 1_555
C4 N4 1_555 1_555
C5 N5 1_555 1_555
H5 C5 1_555 1_555
C6 C5 1_555 1_555
H6 C6 1_555 1_555
C7 C6 1_555 1_555
C8 C7 1_555 1_555
H7 C8 1_555 1_555
C9 N5 1_555 1_555
H8 C9 1_555 1_555
C17 Au2 1_555 1_555
C19 Au1 1_555 1_555
C26 N16 1_555 1_555
C27 N18 1_555 1_555
C28 C27 1_555 1_555
C29 C28 1_555 1_555
H17 C29 1_555 1_555
C30 N20 1_555 1_555
H18 C30 1_555 1_555
C31 N20 1_555 1_555
H19 C31 1_555 1_555
C32 C28 1_555 1_555
H20 C32 1_555 1_555
N18 C26 1_555 1_555
C8 C9 1_555 1_555
C29 C30 1_555 1_555
C31 C32 1_555 1_555
N6 N7 1_555 1_555
N7 C11 1_555 1_555
N8 N9 1_555 1_555
N9 H1 1_555 1_555
H2 N9 1_555 1_555
N21 C14 1_555 1_555
C10 N6 1_555 1_555
C11 N8 1_555 1_555
C12 C11 1_555 1_555
C13 C12 1_555 1_555
H9 C13 1_555 1_555
C14 C13 1_555 1_555
H10 C14 1_555 1_555
C15 N21 1_555 1_555
H11 C15 1_555 1_555
C16 C12 1_555 1_555
H12 C16 1_555 1_555
N8 C10 1_555 1_555
C15 C16 1_555 1_555
C21 H13 1_555 1_555
C22 C21 1_555 1_555
H14 C22 1_555 1_555
C23 C22 1_555 1_555
N6_2 N7_2 1_555 1_555
N7_2 C11_2 1_555 1_555
N8_2 N9_2 1_555 1_555
N9_2 H1_2 1_555 1_555
H2_2 N9_2 1_555 1_555
N10 C14_2 1_555 1_555
C10_2 N6_2 1_555 1_555
C11_2 N8_2 1_555 1_555
C12_2 C11_2 1_555 1_555
C13_2 C12_2 1_555 1_555
H9_2 C13_2 1_555 1_555
C14_2 C13_2 1_555 1_555
H10_2 C14_2 1_555 1_555
C15_2 N10 1_555 1_555
H11_2 C15_2 1_555 1_555
C16_2 C12_2 1_555 1_555
H12_2 C16_2 1_555 1_555
N8_2 C10_2 1_555 1_555
C15_2 C16_2 1_555 1_555
Au1_2 C1_2 1_555 1_555
Au2_2 C2_2 1_555 1_555
Au3_2 C3_2 1_555 1_555
Au4_2 C4_2 1_555 1_555
Fe1_2 N1_2 1_555 1_555
N1_2 C1_2 1_555 1_555
N2_2 Fe1_2 1_555 1_555
N3_2 Fe1_2 1_555 1_555
N4_2 Fe1_2 1_555 1_555
N5_2 Fe1_2 1_555 1_555
N11 C17_2 1_555 1_555
N13 C19_2 1_555 1_555
N16_2 N17_2 1_555 1_555
N17_2 C27_2 1_555 1_555
N20_2 Fe1_2 1_555 1_555
C2_2 N2_2 1_555 1_555
C3_2 N3_2 1_555 1_555
C4_2 N4_2 1_555 1_555
C5_2 N5_2 1_555 1_555
H5_2 C5_2 1_555 1_555
C6_2 C5_2 1_555 1_555
H6_2 C6_2 1_555 1_555
C7_2 C6_2 1_555 1_555
C8_2 C7_2 1_555 1_555
H7_2 C8_2 1_555 1_555
C9_2 N5_2 1_555 1_555
H8_2 C9_2 1_555 1_555
C17_2 Au2_2 1_555 1_555
C19_2 Au1_2 1_555 1_555
C26_2 N16_2 1_555 1_555
C27_2 N18_2 1_555 1_555
C28_2 C27_2 1_555 1_555
C29_2 C28_2 1_555 1_555
H17_2 C29_2 1_555 1_555
C30_2 N20_2 1_555 1_555
H18_2 C30_2 1_555 1_555
C31_2 N20_2 1_555 1_555
H19_2 C31_2 1_555 1_555
C32_2 C28_2 1_555 1_555
H20_2 C32_2 1_555 1_555
Fe3 N13 1_555 1_555
N18_2 C26_2 1_555 1_555
C8_2 C9_2 1_555 1_555
C29_2 C30_2 1_555 1_555
C31_2 C32_2 1_555 1_555
N12_2 C18_2 1_555 1_555
N14 C20_2 1_555 1_555
N19_2 H3_2 1_555 1_555
H4_2 N19_2 1_555 1_555
Fe3 N14 1_555 1_555
H15_2 C24_2 1_555 1_555
C25_2 N15 1_555 1_555
H16_2 C25_2 1_555 1_555
Fe3 N15 1_555 1_555
C24_2 C25_2 1_555 1_555
C21_2 H13_2 1_555 1_555
C22_2 C21_2 1_555 1_555
H14_2 C22_2 1_555 1_555
C23_2 C22_2 1_555 1_555

#END
