
###############################################################################
#
# This file contains modified crystal structure data generated from the
# MOF subset of the Cambridge Structural Database (CSD) v543 
# hosted by the Cambridge Crystallographic Data Centre (CCDC).
#
# This work is licensed under the Creative Commons
# Attribution-NonCommercial-ShareAlike 4.0 International License.
# To view a copy of this license, visit
# http://creativecommons.org/licenses/by-nc-sa/4.0/
# or send a letter to
# Creative Commons, PO Box 1866, Mountain View, CA 94042, USA.
#
# CIF created using the CSD Python API on 29 September 2022
# The structure has been converted into the P1 space group
# The structure has a 3D framework
# The original CSD entry YOQKEX10 is in the triclinic crystal system
# The framework has been calculated to contain at least 10.0% void space
# The void calculation uses a probe of radius 1.32A, grid spacing 0.4
#
###############################################################################

data_YOQKEX10
_chemical_formula_moiety         '(C128 H80 Au16 Fe8 N80)n'
_symmetry_cell_setting           triclinic
_symmetry_space_group_name_H-M   'P 1'
_symmetry_Int_Tables_number      1
_space_group_name_Hall           'P 1'
loop_
_symmetry_equiv_pos_site_id
_symmetry_equiv_pos_as_xyz
1 x,y,z
_cell_length_a                   31.0145(8)
_cell_length_b                   12.8404(3)
_cell_length_c                   17.0864(4)
_cell_angle_alpha                68.053(2)
_cell_angle_beta                 79.568(2)
_cell_angle_gamma                78.083(3)
_cell_volume                     6134.72
loop_
_atom_site_label
_atom_site_type_symbol
_atom_site_fract_x
_atom_site_fract_y
_atom_site_fract_z
Fe10 Fe 0.01532(8) 0.6956(2) 0.59275(17)
Au4 Au 0.13455(2) 0.42925(5) 0.46749(5)
N33 N 0.0551(4) 0.5785(12) 0.5337(10)
C51 C 0.0816(5) 0.5199(14) 0.5103(11)
N44 N 0.0668(4) 0.8048(13) 0.5396(10)
N46 N 0.0510(4) 0.6026(12) 0.7029(10)
C65 C 0.1889(5) 0.3409(16) 0.4227(13)
Au3 Au 0.38567(3) 0.46758(7) 0.21730(5)
Fe1 Fe 0.26769(7) 0.19605(18) 0.34210(14)
N1 N 0.2275(4) 0.0662(14) 0.3994(9)
N2 N 0.3160(6) 0.0932(15) 0.2899(11)
N3 N 0.3057(5) 0.3292(13) 0.2856(11)
N4 N 0.2188(4) 0.2939(13) 0.3926(10)
N5 N 0.3017(5) 0.1436(14) 0.4518(10)
N6 N 0.3703(8) 0.1502(16) 0.6944(14)
N7 N 0.3941(8) 0.1037(16) 0.7625(15)
N37 N 0.1448(6) 0.2368(16) 0.0147(13)
N40 N 0.2323(5) 0.2456(12) 0.2318(10)
C1 C 0.1983(5) 0.0213(17) 0.4253(11)
C2 C 0.3448(7) 0.034(2) 0.2643(12)
C3 C 0.3332(7) 0.3844(17) 0.2597(13)
C5 C 0.3033(7) 0.2239(18) 0.4840(16)
H9 H 0.288936 0.299247 0.458039
C6 C 0.3253(7) 0.1987(16) 0.5542(14)
H10 H 0.326031 0.256507 0.575791
C7 C 0.3469(6) 0.0862(16) 0.5937(14)
C8 C 0.3441(8) 0.0062(16) 0.5594(13)
C9 C 0.3207(8) 0.0398(16) 0.4892(14)
C10 C 0.3693(7) 0.0671(16) 0.6658(15)
H13 H 0.458970 0.046972 0.849622
C59 C 0.1561(6) 0.3209(19) 0.0281(15)
C60 C 0.1830(6) 0.3033(17) 0.0956(14)
C61 C 0.2091(6) 0.1966(17) 0.1264(14)
H37 H 0.210305 0.141142 0.101394
C62 C 0.2337(6) 0.1723(14) 0.1946(12)
H38 H 0.251765 0.100407 0.214148
C63 C 0.2076(6) 0.3473(17) 0.2034(14)
H39 H 0.207484 0.401317 0.229133
C64 C 0.1820(6) 0.3769(17) 0.1371(14)
H40 H 0.163606 0.448805 0.120448
C66 C 0.4383(7) 0.5487(17) 0.1740(14)
N36 N 0.1208(6) 0.2854(16) 0.9439(12)
N38 N 0.1419(5) 0.4209(14) 0.9680(12)
N39 N 0.1498(6) 0.5293(14) 0.9595(11)
H7 H 0.124217 0.579693 0.956557
H8 H 0.167247 0.553533 0.910587
C53 C 0.0543(6) 0.4872(15) 0.7371(14)
H33 H 0.040538 0.450483 0.711305
C54 C 0.0761(6) 0.4207(17) 0.8062(14)
H34 H 0.076689 0.340756 0.827951
C55 C 0.0971(6) 0.4710(16) 0.8436(12)
C56 C 0.0949(6) 0.5858(17) 0.8111(13)
H35 H 0.109281 0.622716 0.835592
C57 C 0.0709(6) 0.6507(16) 0.7400(11)
H36 H 0.069169 0.731009 0.718535
C58 C 0.1191(6) 0.3972(17) 0.9182(13)
C67 C 0.6946(9) 0.0214(16) 0.9224(15)
Fe5 Fe 0.51592(8) 0.6959(2) 0.09178(17)
Au1 Au 0.14598(2) 0.94127(6) 0.46601(5)
Au2 Au 0.39501(3) 0.94789(7) 0.21593(5)
N8 N 0.3921(6) 0.9642(13) 0.7190(10)
N9 N 0.3979(7) 0.8611(15) 0.7081(12)
H1 H 0.372243 0.839641 0.704694
H2 H 0.415493 0.867301 0.659394
N10 N 0.4821(6) 0.7882(13) 0.9838(11)
N11 N 0.4773(6) 0.8055(15) 0.1490(11)
N12 N 0.5628(6) 0.8002(13) 0.0415(10)
N13 N 0.5524(7) 0.5855(16) 0.0349(12)
N14 N 0.4669(7) 0.5962(14) 0.1426(13)
N15 N 0.5505(6) 0.6028(14) 0.2016(10)
N16 N 0.6203(8) 0.2859(16) 0.4451(15)
N17 N 0.6425(7) 0.2405(14) 0.5122(14)
N18 N 0.6412(6) 0.4248(13) 0.4675(11)
N19 N 0.6498(7) 0.5322(13) 0.4602(13)
H3 H 0.624262 0.582832 0.457334
H4 H 0.667493 0.557552 0.411594
N20 N 0.7303(5) 0.2475(13) 0.7337(10)
N26 N 0.8691(6) 0.1506(15) 0.1929(12)
N27 N 0.8921(6) 0.1055(14) 0.2647(11)
H11 H 0.357864 0.929692 0.583177
H12 H 0.318341 0.983491 0.467208
C11 C 0.4063(9) 0.9967(18) 0.7773(15)
C12 C 0.4324(8) 0.9188(17) 0.8469(14)
C13 C 0.4578(8) 0.9678(17) 0.8752(15)
C14 C 0.4830(9) 0.8991(19) 0.9442(14)
H14 H 0.501273 0.934283 0.962734
C15 C 0.4575(8) 0.7394(19) 0.9541(15)
H15 H 0.457512 0.659801 0.979742
C16 C 0.4311(9) 0.8021(18) 0.885(2)
H16 H 0.413455 0.765623 0.866757
C17 C 0.4481(6) 0.8575(19) 0.1709(15)
C18 C 0.5907(8) 0.8520(16) 0.0154(12)
C19 C 0.5805(8) 0.5272(19) 0.0137(14)
C21 C 0.5531(8) 0.4907(17) 0.2332(13)
H17 H 0.539290 0.454992 0.206801
C22 C 0.5747(6) 0.4244(16) 0.3022(14)
H18 H 0.575295 0.344459 0.323126
C23 C 0.5962(7) 0.4739(17) 0.3428(14)
C24 C 0.5915(7) 0.5956(18) 0.3097(14)
H19 H 0.602898 0.635500 0.336380
C25 C 0.5706(7) 0.6516(17) 0.2400(14)
H20 H 0.569871 0.731615 0.215876
C26 C 0.6190(8) 0.3960(18) 0.4158(15)
C27 C 0.6559(7) 0.3226(15) 0.5278(13)
C28 C 0.6803(7) 0.3023(15) 0.5979(13)
C29 C 0.7072(7) 0.1968(17) 0.6276(14)
H21 H 0.709038 0.142042 0.601554
C30 C 0.7302(7) 0.1734(17) 0.6925(15)
H22 H 0.747732 0.100607 0.711773
C31 C 0.7057(8) 0.3503(19) 0.7016(16)
H23 H 0.705491 0.405070 0.726760
C32 C 0.6807(9) 0.382(2) 0.6350(18)
H24 H 0.664233 0.455676 0.615006
C38 C 0.8254(7) 0.1974(17) 0.0530(14)
H26 H 0.826690 0.254948 0.074446
C39 C 0.8452(6) 0.0878(16) 0.0911(13)
C40 C 0.8422(5) 0.0086(17) 0.0578(14)
C42 C 0.8680(6) 0.0674(15) 0.1666(13)
H29 H 0.961562 0.046855 0.348883
C50 C 0.0942(5) 0.8592(16) 0.5130(12)
Fe6 Fe 0.76353(7) 0.19686(18) 0.84246(15)
Au5 Au 0.64080(3) 0.94077(7) 0.96679(6)
Au6 Au 0.63219(3) 0.43285(7) 0.96815(5)
Au8 Au 0.88097(2) 0.46642(5) 0.71904(4)
N21 N 0.7250(7) 0.0679(13) 0.8987(12)
N22 N 0.8120(5) 0.0949(12) 0.7929(10)
N23 N 0.8024(5) 0.3275(14) 0.7856(10)
N24 N 0.7146(6) 0.2987(14) 0.8951(11)
N25 N 0.7988(4) 0.1448(12) 0.9496(10)
N34 N 0.9645(4) 0.5888(12) 0.6463(9)
C34 C 0.8405(6) 0.0417(15) 0.7654(12)
C35 C 0.8299(5) 0.3808(15) 0.7621(12)
C36 C 0.6839(8) 0.3470(17) 0.9236(13)
C37 C 0.8035(6) 0.2228(14) 0.9824(13)
H25 H 0.790944 0.299589 0.955479
C41 C 0.8191(5) 0.0391(14) 0.9895(12)
C52 C 0.9339(5) 0.5435(14) 0.6769(11)
N28 N 0.8897(5) 0.9731(13) 0.2146(11)
N29 N 0.8999(5) 0.8615(13) 0.2071(11)
H5 H 0.874409 0.840027 0.202697
H6 H 0.918050 0.867487 0.158947
N30 N 0.9799(4) 0.7919(12) 0.4796(10)
H27 H 0.856063 0.932343 0.081958
C43 C 0.9055(6) 0.9947(15) 0.2765(12)
C44 C 0.9303(5) 0.9211(16) 0.3435(13)
C45 C 0.9588(6) 0.9687(17) 0.3756(13)
C46 C 0.9811(7) 0.9056(15) 0.4415(13)
H30 H 0.998246 0.940591 0.462501
C47 C 0.9534(7) 0.7481(17) 0.4508(14)
H31 H 0.951517 0.669476 0.477949
C48 C 0.9292(8) 0.8075(18) 0.3859(14)
H32 H 0.910978 0.770020 0.369282
Au7 Au 0.89176(2) 0.95131(6) 0.71770(5)
N31 N 0.9749(5) 0.8124(13) 0.6506(11)
H28 H 0.817302 0.981385 0.968651
C49 C 0.9442(5) 0.8617(14) 0.6769(11)
Au7_2 Au 0.10824(2) 0.04869(6) 0.28230(5)
N31_2 N 0.0251(5) 0.1876(13) 0.3494(11)
H28_2 H 0.182698 0.018615 0.031349
C49_2 C 0.0558(5) 0.1383(14) 0.3231(11)
Au11 Au 0.35920(3) 0.05923(7) 0.03321(6)
N43 N 0.0201(4) 0.2081(12) 0.5204(10)
N45 N 0.0355(4) 0.4112(12) 0.3537(9)
N28_2 N 0.1103(5) 0.0269(13) 0.7854(11)
N29_2 N 0.1001(5) 0.1385(13) 0.7929(11)
H5_2 H 0.125591 0.159973 0.797303
H6_2 H 0.081950 0.132513 0.841053
H27_2 H 0.143937 0.067657 0.918042
C43_2 C 0.0945(6) 0.0053(15) 0.7235(12)
C44_2 C 0.0697(5) 0.0789(16) 0.6565(13)
C45_2 C 0.0412(6) 0.0313(17) 0.6244(13)
C46_2 C 0.0189(7) 0.0944(15) 0.5585(13)
H30_2 H 0.001754 0.059409 0.537499
C47_2 C 0.0466(7) 0.2519(17) 0.5492(14)
H31_2 H 0.048483 0.330524 0.522051
C48_2 C 0.0708(8) 0.1925(18) 0.6141(14)
H32_2 H 0.089022 0.229980 0.630718
Au6_2 Au 0.36781(3) 0.56715(7) 0.03185(5)
Au8_2 Au 0.11903(2) 0.53358(5) 0.28096(4)
Fe3 Fe 0.23647(7) 0.80314(18) 0.15754(15)
N21_2 N 0.2750(7) 0.9321(13) 0.1013(12)
N22_2 N 0.1880(5) 0.9051(12) 0.2071(10)
N23_2 N 0.1976(5) 0.6725(14) 0.2144(10)
N24_2 N 0.2854(6) 0.7013(14) 0.1049(11)
N25_2 N 0.2012(4) 0.8552(12) 0.0504(10)
C33 C 0.3054(9) 0.9786(16) 0.0776(15)
C34_2 C 0.1595(6) 0.9583(15) 0.2346(12)
C35_2 C 0.1701(5) 0.6192(15) 0.2379(12)
C36_2 C 0.3161(8) 0.6530(17) 0.0764(13)
C37_2 C 0.1965(6) 0.7772(14) 0.0176(13)
H25_2 H 0.209056 0.700411 0.044521
C41_2 C 0.1809(5) 0.9609(14) 0.0105(12)
C52_2 C 0.0661(5) 0.4565(14) 0.3231(11)
N41 N 0.5179(6) 0.2118(13) 0.0162(11)
N42 N 0.2697(5) 0.7525(13) 0.2663(10)
Au1_2 Au 0.85402(2) 0.05873(6) 0.53399(5)
Au2_2 Au 0.60499(3) 0.05211(7) 0.78407(5)
Fe2 Fe 0.48408(8) 0.3041(2) 0.90822(17)
N8_2 N 0.6079(6) 0.0358(13) 0.2810(10)
N9_2 N 0.6021(7) 0.1389(15) 0.2919(12)
H1_2 H 0.627757 0.160359 0.295306
H2_2 H 0.584507 0.132699 0.340606
N11_2 N 0.5227(6) 0.1945(15) 0.8510(11)
N12_2 N 0.4372(6) 0.1998(13) 0.9585(10)
N13_2 N 0.4476(7) 0.4145(16) 0.9651(12)
N14_2 N 0.5331(7) 0.4038(14) 0.8574(13)
N15_2 N 0.4495(6) 0.3972(14) 0.7984(10)
N16_2 N 0.3797(8) 0.7141(16) 0.5549(15)
N17_2 N 0.3575(7) 0.7595(14) 0.4878(14)
N18_2 N 0.3588(6) 0.5752(13) 0.5325(11)
N19_2 N 0.3502(7) 0.4678(13) 0.5398(13)
H3_2 H 0.375738 0.417168 0.542666
H4_2 H 0.332507 0.442448 0.588406
N26_2 N 0.1309(6) 0.8494(15) 0.8071(12)
N27_2 N 0.1079(6) 0.8945(14) 0.7353(11)
N32 N 0.9332(4) 0.1952(13) 0.4604(10)
H11_2 H 0.642136 0.070308 0.416823
H12_2 H 0.681659 0.016509 0.532792
C11_2 C 0.5937(9) 0.0033(18) 0.2227(15)
C12_2 C 0.5676(8) 0.0812(17) 0.1531(14)
C13_2 C 0.5422(8) 0.0322(17) 0.1248(15)
C14_2 C 0.5170(9) 0.1009(19) 0.0558(14)
H14_2 H 0.498727 0.065717 0.037266
C15_2 C 0.5425(8) 0.2606(19) 0.0459(15)
H15_2 H 0.542488 0.340199 0.020258
C16_2 C 0.5689(9) 0.1979(18) 0.115(2)
H16_2 H 0.586545 0.234377 0.133243
C17_2 C 0.5519(6) 0.1425(19) 0.8291(15)
C18_2 C 0.4093(8) 0.1480(16) 0.9846(12)
C19_2 C 0.4195(8) 0.4728(19) 0.9863(14)
C20 C 0.5617(7) 0.4513(17) 0.8260(14)
C21_2 C 0.4469(8) 0.5093(17) 0.7668(13)
H17_2 H 0.460710 0.545008 0.793199
C22_2 C 0.4253(6) 0.5756(16) 0.6978(14)
H18_2 H 0.424705 0.655541 0.676874
C23_2 C 0.4038(7) 0.5261(17) 0.6572(14)
C24_2 C 0.4085(7) 0.4044(18) 0.6903(14)
H19_2 H 0.397102 0.364500 0.663620
C25_2 C 0.4294(7) 0.3484(17) 0.7600(14)
H20_2 H 0.430129 0.268385 0.784124
C26_2 C 0.3810(8) 0.6040(18) 0.5842(15)
C27_2 C 0.3441(7) 0.6774(15) 0.4722(13)
C28_2 C 0.3197(7) 0.6977(15) 0.4021(13)
C29_2 C 0.2928(7) 0.8032(17) 0.3724(14)
H21_2 H 0.290962 0.857958 0.398446
C30_2 C 0.2698(7) 0.8266(17) 0.3075(15)
H22_2 H 0.252268 0.899393 0.288227
C31_2 C 0.2943(8) 0.6497(19) 0.2984(16)
H23_2 H 0.294509 0.594930 0.273240
C32_2 C 0.3193(9) 0.618(2) 0.3650(18)
H24_2 H 0.335767 0.544324 0.384994
C38_2 C 0.1746(7) 0.8026(17) 0.9470(14)
H26_2 H 0.173310 0.745052 0.925554
C39_2 C 0.1548(6) 0.9122(16) 0.9089(13)
C40_2 C 0.1578(5) 0.9914(17) 0.9422(14)
C42_2 C 0.1320(6) 0.9326(15) 0.8334(13)
H29_2 H 0.038438 0.953145 0.651117
C50_2 C 0.9058(5) 0.1408(16) 0.4870(12)
Au9 Au 0.61433(3) 0.53242(7) 0.78270(5)
Fe7 Fe 0.98468(8) 0.3044(2) 0.40725(17)
N35 N 0.9490(4) 0.3974(12) 0.2971(10)
N36_2 N 0.8792(6) 0.7146(16) 0.0561(12)
N38_2 N 0.8581(5) 0.5791(14) 0.0320(12)
N39_2 N 0.8502(6) 0.4707(14) 0.0405(11)
H7_2 H 0.875783 0.420307 0.043443
H8_2 H 0.832753 0.446467 0.089413
C53_2 C 0.9457(6) 0.5128(15) 0.2629(14)
H33_2 H 0.959462 0.549517 0.288695
C54_2 C 0.9239(6) 0.5793(17) 0.1938(14)
H34_2 H 0.923311 0.659244 0.172049
C55_2 C 0.9029(6) 0.5290(16) 0.1564(12)
C56_2 C 0.9051(6) 0.4142(17) 0.1889(13)
H35_2 H 0.890719 0.377284 0.164408
C57_2 C 0.9291(6) 0.3493(16) 0.2600(11)
H36_2 H 0.930831 0.268991 0.281465
C58_2 C 0.8809(6) 0.6028(17) 0.0818(13)
Fe1_2 Fe 0.73231(7) 0.80395(18) 0.65790(14)
N1_2 N 0.7725(4) 0.9338(14) 0.6006(9)
N2_2 N 0.6840(6) 0.9068(15) 0.7101(11)
N3_2 N 0.6943(5) 0.6708(13) 0.7144(11)
N4_2 N 0.7812(4) 0.7061(13) 0.6074(10)
N5_2 N 0.6983(5) 0.8564(14) 0.5482(10)
N6_2 N 0.6297(8) 0.8498(16) 0.3056(14)
N7_2 N 0.6059(8) 0.8963(16) 0.2375(15)
N37_2 N 0.8552(6) 0.7632(16) 0.9853(13)
N40_2 N 0.7677(5) 0.7544(12) 0.7682(10)
C1_2 C 0.8017(5) 0.9787(17) 0.5747(11)
C2_2 C 0.6552(7) 0.966(2) 0.7357(12)
C3_2 C 0.6668(7) 0.6156(17) 0.7403(13)
C4 C 0.8111(5) 0.6591(16) 0.5773(13)
C5_2 C 0.6967(7) 0.7761(18) 0.5160(16)
H9_2 H 0.711064 0.700753 0.541961
C6_2 C 0.6747(7) 0.8013(16) 0.4458(14)
H10_2 H 0.673969 0.743493 0.424209
C7_2 C 0.6531(6) 0.9138(16) 0.4063(14)
C8_2 C 0.6559(8) 0.9938(16) 0.4406(13)
C9_2 C 0.6793(8) 0.9602(16) 0.5108(14)
C10_2 C 0.6307(7) 0.9329(16) 0.3342(15)
H13_2 H 0.541030 0.953028 0.150378
C59_2 C 0.8439(6) 0.6791(19) 0.9719(15)
C60_2 C 0.8170(6) 0.6967(17) 0.9044(14)
C61_2 C 0.7909(6) 0.8034(17) 0.8736(14)
H37_2 H 0.789695 0.858858 0.898606
C62_2 C 0.7663(6) 0.8277(14) 0.8054(12)
H38_2 H 0.748235 0.899593 0.785852
C63_2 C 0.7924(6) 0.6527(17) 0.7966(14)
H39_2 H 0.792516 0.598683 0.770867
C64_2 C 0.8180(6) 0.6231(17) 0.8629(14)
H40_2 H 0.836394 0.551195 0.879552
Au10 Au 0.86545(2) 0.57075(5) 0.53251(5)
N33_2 N 0.9449(4) 0.4215(12) 0.4663(10)
C51_2 C 0.9184(5) 0.4801(14) 0.4897(11)
loop_
_geom_bond_atom_site_label_1
_geom_bond_atom_site_label_2
_geom_bond_site_symmetry_1
_geom_bond_site_symmetry_2
Au4 C51 1_555 1_555
N33 Fe10 1_555 1_555
C51 N33 1_555 1_555
N44 Fe10 1_555 1_555
N46 Fe10 1_555 1_555
C65 Au4 1_555 1_555
Au3 C3 1_555 1_555
Fe1 N1 1_555 1_555
N1 C1 1_555 1_555
N2 Fe1 1_555 1_555
N3 Fe1 1_555 1_555
N4 Fe1 1_555 1_555
N5 Fe1 1_555 1_555
N6 N7 1_555 1_555
N37 C59 1_555 1_555
N40 Fe1 1_555 1_555
C2 N2 1_555 1_555
C3 N3 1_555 1_555
C65 N4 1_555 1_555
C5 N5 1_555 1_555
H9 C5 1_555 1_555
C6 C5 1_555 1_555
H10 C6 1_555 1_555
C7 C6 1_555 1_555
C8 C7 1_555 1_555
C9 N5 1_555 1_555
C10 N6 1_555 1_555
C60 C59 1_555 1_555
C61 C60 1_555 1_555
H37 C61 1_555 1_555
C62 N40 1_555 1_555
H38 C62 1_555 1_555
C63 N40 1_555 1_555
H39 C63 1_555 1_555
C64 C60 1_555 1_555
H40 C64 1_555 1_555
C66 Au3 1_555 1_555
C7 C10 1_555 1_555
C8 C9 1_555 1_555
C61 C62 1_555 1_555
C63 C64 1_555 1_555
N46 C53 1_555 1_555
N38 N39 1_555 1_555
N39 H7 1_555 1_555
H8 N39 1_555 1_555
C53 H33 1_555 1_555
C54 C53 1_555 1_555
H34 C54 1_555 1_555
C55 C54 1_555 1_555
C56 C55 1_555 1_555
H35 C56 1_555 1_555
C57 N46 1_555 1_555
H36 C57 1_555 1_555
C58 N36 1_555 1_555
N38 C58 1_555 1_555
C55 C58 1_555 1_555
C56 C57 1_555 1_555
Fe5 N11 1_555 1_555
N8 N9 1_555 1_555
N9 H1 1_555 1_555
H2 N9 1_555 1_555
N10 C14 1_555 1_555
N11 C17 1_555 1_555
N12 Fe5 1_555 1_555
N13 Fe5 1_555 1_555
N14 Fe5 1_555 1_555
N15 Fe5 1_555 1_555
N16 N17 1_555 1_555
N17 C27 1_555 1_555
N18 N19 1_555 1_555
N19 H3 1_555 1_555
H4 N19 1_555 1_555
N20 C30 1_555 1_555
N26 N27 1_555 1_555
N44 C50 1_555 1_555
C11 N8 1_555 1_555
C12 C11 1_555 1_555
C13 C12 1_555 1_555
C14 C13 1_555 1_555
H14 C14 1_555 1_555
C15 N10 1_555 1_555
H15 C15 1_555 1_555
C16 C12 1_555 1_555
H16 C16 1_555 1_555
C17 Au2 1_555 1_555
C18 N12 1_555 1_555
C19 N13 1_555 1_555
C66 N14 1_555 1_555
C21 N15 1_555 1_555
H17 C21 1_555 1_555
C22 C21 1_555 1_555
H18 C22 1_555 1_555
C23 C22 1_555 1_555
C24 C23 1_555 1_555
H19 C24 1_555 1_555
C25 N15 1_555 1_555
H20 C25 1_555 1_555
C26 N16 1_555 1_555
C27 N18 1_555 1_555
C28 C27 1_555 1_555
C29 C28 1_555 1_555
H21 C29 1_555 1_555
C30 C29 1_555 1_555
H22 C30 1_555 1_555
C31 N20 1_555 1_555
H23 C31 1_555 1_555
C32 C28 1_555 1_555
H24 C32 1_555 1_555
H26 C38 1_555 1_555
C39 C38 1_555 1_555
C40 C39 1_555 1_555
C42 N26 1_555 1_555
C50 Au1 1_555 1_555
Fe6 N20 1_555 1_555
N18 C26 1_555 1_555
C15 C16 1_555 1_555
C23 C26 1_555 1_555
C24 C25 1_555 1_555
C31 C32 1_555 1_555
C39 C42 1_555 1_555
Au8 C35 1_555 1_555
Fe6 N21 1_555 1_555
N21 C67 1_555 1_555
N22 Fe6 1_555 1_555
N23 Fe6 1_555 1_555
N24 Fe6 1_555 1_555
N25 Fe6 1_555 1_555
N34 C52 1_555 1_555
C34 N22 1_555 1_555
C35 N23 1_555 1_555
C36 Au6 1_555 1_555
C37 N25 1_555 1_555
H25 C37 1_555 1_555
C41 N25 1_555 1_555
C52 Au8 1_555 1_555
N24 C36 1_555 1_555
N28 N29 1_555 1_555
N29 H5 1_555 1_555
H6 N29 1_555 1_555
N30 C46 1_555 1_555
C43 N28 1_555 1_555
C44 C43 1_555 1_555
C45 C44 1_555 1_555
C46 C45 1_555 1_555
H30 C46 1_555 1_555
C47 N30 1_555 1_555
H31 C47 1_555 1_555
C48 C44 1_555 1_555
H32 C48 1_555 1_555
C47 C48 1_555 1_555
N31 C49 1_555 1_555
C49 Au7 1_555 1_555
N31_2 C49_2 1_555 1_555
C49_2 Au7_2 1_555 1_555
N28_2 N29_2 1_555 1_555
N29_2 H5_2 1_555 1_555
H6_2 N29_2 1_555 1_555
N43 C46_2 1_555 1_555
C43_2 N28_2 1_555 1_555
C44_2 C43_2 1_555 1_555
C45_2 C44_2 1_555 1_555
C46_2 C45_2 1_555 1_555
H30_2 C46_2 1_555 1_555
C47_2 N43 1_555 1_555
H31_2 C47_2 1_555 1_555
C48_2 C44_2 1_555 1_555
H32_2 C48_2 1_555 1_555
C47_2 C48_2 1_555 1_555
Au8_2 C35_2 1_555 1_555
Fe3 N21_2 1_555 1_555
N21_2 C33 1_555 1_555
N22_2 Fe3 1_555 1_555
N23_2 Fe3 1_555 1_555
N24_2 Fe3 1_555 1_555
N25_2 Fe3 1_555 1_555
N45 C52_2 1_555 1_555
C34_2 N22_2 1_555 1_555
C35_2 N23_2 1_555 1_555
C36_2 Au6_2 1_555 1_555
C37_2 N25_2 1_555 1_555
H25_2 C37_2 1_555 1_555
C41_2 N25_2 1_555 1_555
C52_2 Au8_2 1_555 1_555
N42 Fe3 1_555 1_555
N24_2 C36_2 1_555 1_555
Fe2 N11_2 1_555 1_555
N8_2 N9_2 1_555 1_555
N9_2 H1_2 1_555 1_555
H2_2 N9_2 1_555 1_555
N41 C14_2 1_555 1_555
N11_2 C17_2 1_555 1_555
N12_2 Fe2 1_555 1_555
N13_2 Fe2 1_555 1_555
N14_2 Fe2 1_555 1_555
N15_2 Fe2 1_555 1_555
N16_2 N17_2 1_555 1_555
N17_2 C27_2 1_555 1_555
N18_2 N19_2 1_555 1_555
N19_2 H3_2 1_555 1_555
H4_2 N19_2 1_555 1_555
N42 C30_2 1_555 1_555
N26_2 N27_2 1_555 1_555
N32 C50_2 1_555 1_555
C11_2 N8_2 1_555 1_555
C12_2 C11_2 1_555 1_555
C13_2 C12_2 1_555 1_555
C14_2 C13_2 1_555 1_555
H14_2 C14_2 1_555 1_555
C15_2 N41 1_555 1_555
H15_2 C15_2 1_555 1_555
C16_2 C12_2 1_555 1_555
H16_2 C16_2 1_555 1_555
C17_2 Au2_2 1_555 1_555
C18_2 N12_2 1_555 1_555
C19_2 N13_2 1_555 1_555
C20 N14_2 1_555 1_555
C21_2 N15_2 1_555 1_555
H17_2 C21_2 1_555 1_555
C22_2 C21_2 1_555 1_555
H18_2 C22_2 1_555 1_555
C23_2 C22_2 1_555 1_555
C24_2 C23_2 1_555 1_555
H19_2 C24_2 1_555 1_555
C25_2 N15_2 1_555 1_555
H20_2 C25_2 1_555 1_555
C26_2 N16_2 1_555 1_555
C27_2 N18_2 1_555 1_555
C28_2 C27_2 1_555 1_555
C29_2 C28_2 1_555 1_555
H21_2 C29_2 1_555 1_555
C30_2 C29_2 1_555 1_555
H22_2 C30_2 1_555 1_555
C31_2 N42 1_555 1_555
H23_2 C31_2 1_555 1_555
C32_2 C28_2 1_555 1_555
H24_2 C32_2 1_555 1_555
H26_2 C38_2 1_555 1_555
C39_2 C38_2 1_555 1_555
C40_2 C39_2 1_555 1_555
C42_2 N26_2 1_555 1_555
C50_2 Au1_2 1_555 1_555
Au9 C20 1_555 1_555
Fe7 N32 1_555 1_555
N18_2 C26_2 1_555 1_555
C15_2 C16_2 1_555 1_555
C23_2 C26_2 1_555 1_555
C24_2 C25_2 1_555 1_555
C31_2 C32_2 1_555 1_555
C39_2 C42_2 1_555 1_555
N35 C53_2 1_555 1_555
N38_2 N39_2 1_555 1_555
N39_2 H7_2 1_555 1_555
H8_2 N39_2 1_555 1_555
C53_2 H33_2 1_555 1_555
C54_2 C53_2 1_555 1_555
H34_2 C54_2 1_555 1_555
C55_2 C54_2 1_555 1_555
C56_2 C55_2 1_555 1_555
H35_2 C56_2 1_555 1_555
C57_2 N35 1_555 1_555
H36_2 C57_2 1_555 1_555
C58_2 N36_2 1_555 1_555
Fe7 N35 1_555 1_555
N38_2 C58_2 1_555 1_555
C55_2 C58_2 1_555 1_555
C56_2 C57_2 1_555 1_555
Au9 C3_2 1_555 1_555
Fe1_2 N1_2 1_555 1_555
N1_2 C1_2 1_555 1_555
N2_2 Fe1_2 1_555 1_555
N3_2 Fe1_2 1_555 1_555
N4_2 Fe1_2 1_555 1_555
N5_2 Fe1_2 1_555 1_555
N6_2 N7_2 1_555 1_555
N37_2 C59_2 1_555 1_555
N40_2 Fe1_2 1_555 1_555
C2_2 N2_2 1_555 1_555
C3_2 N3_2 1_555 1_555
C4 N4_2 1_555 1_555
C5_2 N5_2 1_555 1_555
H9_2 C5_2 1_555 1_555
C6_2 C5_2 1_555 1_555
H10_2 C6_2 1_555 1_555
C7_2 C6_2 1_555 1_555
C8_2 C7_2 1_555 1_555
C9_2 N5_2 1_555 1_555
C10_2 N6_2 1_555 1_555
C60_2 C59_2 1_555 1_555
C61_2 C60_2 1_555 1_555
H37_2 C61_2 1_555 1_555
C62_2 N40_2 1_555 1_555
H38_2 C62_2 1_555 1_555
C63_2 N40_2 1_555 1_555
H39_2 C63_2 1_555 1_555
C64_2 C60_2 1_555 1_555
H40_2 C64_2 1_555 1_555
Au10 C4 1_555 1_555
C7_2 C10_2 1_555 1_555
C8_2 C9_2 1_555 1_555
C61_2 C62_2 1_555 1_555
C63_2 C64_2 1_555 1_555
Au10 C51_2 1_555 1_555
N33_2 Fe7 1_555 1_555
C51_2 N33_2 1_555 1_555

#END
