
###############################################################################
#
# This file contains modified crystal structure data generated from the
# MOF subset of the Cambridge Structural Database (CSD) v543 
# hosted by the Cambridge Crystallographic Data Centre (CCDC).
#
# This work is licensed under the Creative Commons
# Attribution-NonCommercial-ShareAlike 4.0 International License.
# To view a copy of this license, visit
# http://creativecommons.org/licenses/by-nc-sa/4.0/
# or send a letter to
# Creative Commons, PO Box 1866, Mountain View, CA 94042, USA.
#
# CIF created using the CSD Python API on 29 September 2022
# The structure has been converted into the P1 space group
# The structure has a 3D framework
# The original CSD entry YOQKEX08 is in the triclinic crystal system
# The framework has been calculated to contain at least 10.0% void space
# The void calculation uses a probe of radius 1.32A, grid spacing 0.4
#
###############################################################################

data_YOQKEX08
_chemical_formula_moiety         '(C64 H40 Au8 Fe2 N40)n'
_symmetry_cell_setting           triclinic
_symmetry_space_group_name_H-M   'P 1'
_symmetry_Int_Tables_number      1
_space_group_name_Hall           'P 1'
loop_
_symmetry_equiv_pos_site_id
_symmetry_equiv_pos_as_xyz
1 x,y,z
_cell_length_a                   16.0777(9)
_cell_length_b                   12.8480(8)
_cell_length_c                   17.0631(10)
_cell_angle_alpha                111.6978(18)
_cell_angle_beta                 68.8685(17)
_cell_angle_gamma                90.0458(19)
_cell_volume                     3018.8
loop_
_atom_site_label
_atom_site_type_symbol
_atom_site_fract_x
_atom_site_fract_y
_atom_site_fract_z
N2 N 0.2657(13) 0.3518(14) 0.0603(11)
N3 N 0.2174(13) 0.3959(14) 0.1544(11)
N4 N 0.2206(9) 0.5319(11) 0.1034(10)
N5 N 0.2027(12) 0.6388(13) 0.1036(12)
H1 H 0.252871 0.660650 0.073755
H2 H 0.166851 0.632230 0.073275
N6 N 0.0394(9) 0.7085(11) 0.4610(10)
C6 C 0.2659(13) 0.4328(15) 0.0315(13)
C7 C 0.1923(11) 0.5059(14) 0.1785(12)
C8 C 0.1396(11) 0.5793(14) 0.2738(12)
C9 C 0.0860(13) 0.5316(14) 0.3332(12)
H9 H 0.083694 0.452515 0.310343
C10 C 0.0365(12) 0.5981(15) 0.4245(13)
C11 C 0.0927(13) 0.7559(16) 0.4056(13)
H11 H 0.096004 0.834386 0.431350
C12 C 0.1421(15) 0.6955(15) 0.3140(14)
H12 H 0.178038 0.732636 0.277845
Au1 Au 0.21754(5) 0.54618(6) 0.60898(5)
Au2 Au 0.70655(4) 0.55815(6) 0.61128(5)
Au3 Au 0.23917(4) 0.03380(5) 0.59975(5)
Au4 Au 0.72884(4) 0.07081(5) 0.60212(5)
Fe1 Fe 0.46853(14) 0.30327(17) 0.60771(16)
N1 N 0.4026(9) 0.3524(10) 0.7451(10)
N7 N 0.5357(9) 0.2538(11) 0.4696(10)
N8 N 0.7091(12) 0.2587(14) 0.1600(12)
N9 N 0.7562(13) 0.2110(14) 0.0660(11)
N10 N 0.7141(10) 0.0771(11) 0.1156(10)
N13 N 0.3757(9) 0.3999(11) 0.6063(9)
N14 N 0.3958(9) 0.1789(12) 0.5901(10)
N15 N 0.5635(9) 0.2093(12) 0.6101(9)
N16 N 0.5437(10) 0.4250(12) 0.6240(10)
N17 N 0.8680(9) 0.6980(12) 0.6077(10)
N20 N 0.0493(10) 0.6881(12) 0.6251(10)
C1 C 0.3925(12) 0.2751(14) 0.7829(12)
H5 H 0.415673 0.197939 0.743361
C2 C 0.3515(13) 0.3011(14) 0.8738(12)
H6 H 0.349719 0.243393 0.896385
C3 C 0.3116(11) 0.4131(13) 0.9352(13)
C4 C 0.3204(11) 0.4944(13) 0.8953(13)
H7 H 0.295980 0.571884 0.932537
C5 C 0.3644(11) 0.4595(13) 0.8029(13)
H8 H 0.368352 0.514834 0.777679
C13 C 0.5385(13) 0.3281(15) 0.4297(14)
H13 H 0.504764 0.401832 0.467123
C14 C 0.5868(13) 0.3040(14) 0.3390(13)
H14 H 0.587370 0.359802 0.314778
C15 C 0.6348(12) 0.1962(14) 0.2834(12)
C16 C 0.6309(12) 0.1180(14) 0.3230(13)
H15 H 0.662763 0.043158 0.286816
C17 C 0.5822(11) 0.1489(14) 0.4119(14)
H16 H 0.579798 0.093268 0.436707
C18 C 0.6865(13) 0.1741(14) 0.1855(14)
C19 C 0.7615(12) 0.0996(14) 0.0392(12)
C25 C 0.3170(13) 0.4523(15) 0.6056(12)
C26 C 0.3410(11) 0.1228(12) 0.5919(11)
C27 C 0.6233(12) 0.1619(15) 0.6114(12)
C28 C 0.6024(11) 0.4746(14) 0.6202(11)
C29 C 0.8102(12) 0.6441(14) 0.6085(13)
C32 C 0.1099(12) 0.6346(14) 0.6186(12)
Fe7 Fe 0.96890(14) 0.80361(18) 0.60786(16)
N11 N 0.6982(12) 0.9672(12) 0.1138(11)
H3 H 0.748536 0.917106 0.086829
H4 H 0.663906 0.941976 0.081999
N18 N 0.8902(11) 0.9198(12) 0.5890(11)
N19 N 0.0705(10) 0.9075(12) 0.6100(11)
C30 C 0.8347(11) 0.9793(14) 0.5925(12)
C31 C 0.1336(12) 0.9537(14) 0.6087(13)
N12 N 0.8981(10) 0.8951(11) 0.7541(11)
C23 C 0.8572(12) 0.8478(15) 0.8138(14)
H19 H 0.859469 0.767820 0.790815
C24 C 0.8121(14) 0.9093(16) 0.9065(14)
H20 H 0.785333 0.871319 0.945601
H10 H 0.999207 0.563873 0.462407
C20 C 0.8057(12) 0.0241(14) 0.9421(12)
C21 C 0.8488(13) 0.0752(14) 0.8800(13)
H17 H 0.847185 0.155018 0.902245
C22 C 0.8926(13) 0.0106(15) 0.7887(13)
H18 H 0.919925 0.046675 0.748222
Fe2 Fe 0.03110(14) 0.19639(18) 0.39214(16)
N22 N 0.1019(10) 0.1049(11) 0.2459(11)
N23 N 0.1320(9) 0.3020(12) 0.3923(10)
N24 N 0.1098(11) 0.0802(12) 0.4110(11)
H10_2 H 0.000793 0.436127 0.537593
C23_2 C 0.1428(12) 0.1522(15) 0.1862(14)
H19_2 H 0.140531 0.232180 0.209185
C24_2 C 0.1879(14) 0.0907(16) 0.0935(14)
H20_2 H 0.214667 0.128681 0.054399
N11_2 N 0.3018(12) 0.0328(12) 0.8862(11)
H3_2 H 0.251464 0.082894 0.913171
H4_2 H 0.336094 0.058024 0.918001
N19_2 N 0.9295(10) 0.0925(12) 0.3900(11)
C30_2 C 0.1653(11) 0.0207(14) 0.4075(12)
C31_2 C 0.8664(12) 0.0463(14) 0.3913(13)
N21 N 0.9606(9) 0.2915(11) 0.5390(10)
N25 N 0.9507(10) 0.3119(12) 0.3749(10)
Au1_2 Au 0.78246(5) 0.45382(6) 0.39102(5)
Au2_2 Au 0.29345(4) 0.44185(6) 0.38872(5)
Au3_2 Au 0.76083(4) 0.96620(5) 0.40025(5)
Au4_2 Au 0.27116(4) 0.92919(5) 0.39788(5)
Fe1_2 Fe 0.53147(14) 0.69673(17) 0.39229(16)
N1_2 N 0.5974(9) 0.6476(10) 0.2549(10)
N7_2 N 0.4643(9) 0.7462(11) 0.5304(10)
N8_2 N 0.2909(12) 0.7413(14) 0.8400(12)
N9_2 N 0.2438(13) 0.7890(14) 0.9340(11)
N10_2 N 0.2859(10) 0.9229(11) 0.8844(10)
N13_2 N 0.6243(9) 0.6001(11) 0.3937(9)
N14_2 N 0.6042(9) 0.8211(12) 0.4099(10)
N15_2 N 0.4365(9) 0.7907(12) 0.3899(9)
N16_2 N 0.4563(10) 0.5750(12) 0.3760(10)
C1_2 C 0.6075(12) 0.7249(14) 0.2171(12)
H5_2 H 0.584327 0.802061 0.256639
C2_2 C 0.6485(13) 0.6989(14) 0.1262(12)
H6_2 H 0.650281 0.756607 0.103615
C3_2 C 0.6884(11) 0.5869(13) 0.0648(13)
C4_2 C 0.6796(11) 0.5056(13) 0.1047(13)
H7_2 H 0.704020 0.428116 0.067463
C5_2 C 0.6356(11) 0.5405(13) 0.1971(13)
H8_2 H 0.631648 0.485166 0.222321
C13_2 C 0.4615(13) 0.6719(15) 0.5703(14)
H13_2 H 0.495236 0.598168 0.532877
C14_2 C 0.4132(13) 0.6960(14) 0.6610(13)
H14_2 H 0.412630 0.640198 0.685222
C15_2 C 0.3652(12) 0.8038(14) 0.7166(12)
C16_2 C 0.3691(12) 0.8820(14) 0.6770(13)
H15_2 H 0.337237 0.956842 0.713184
C17_2 C 0.4178(11) 0.8511(14) 0.5881(14)
H16_2 H 0.420202 0.906732 0.563293
C18_2 C 0.3135(13) 0.8259(14) 0.8145(14)
C19_2 C 0.2385(12) 0.9004(14) 0.9608(12)
C25_2 C 0.6830(13) 0.5477(15) 0.3944(12)
C26_2 C 0.6590(11) 0.8772(12) 0.4081(11)
C27_2 C 0.3767(12) 0.8381(15) 0.3886(12)
C28_2 C 0.3976(11) 0.5254(14) 0.3798(11)
C29_2 C 0.1898(12) 0.3559(14) 0.3915(13)
C32_2 C 0.8901(12) 0.3654(14) 0.3814(12)
N2_2 N 0.7343(13) 0.6482(14) 0.9397(11)
N3_2 N 0.7826(13) 0.6041(14) 0.8456(11)
N4_2 N 0.7794(9) 0.4681(11) 0.8966(10)
N5_2 N 0.7973(12) 0.3612(13) 0.8964(12)
H1_2 H 0.747129 0.339350 0.926245
H2_2 H 0.833149 0.367770 0.926725
C6_2 C 0.7341(13) 0.5672(15) 0.9685(13)
C7_2 C 0.8077(11) 0.4941(14) 0.8215(12)
C8_2 C 0.8604(11) 0.4207(14) 0.7262(12)
C9_2 C 0.9140(13) 0.4684(14) 0.6668(12)
H9_2 H 0.916306 0.547485 0.689657
C10_2 C 0.9635(12) 0.4019(15) 0.5755(13)
C11_2 C 0.9073(13) 0.2441(16) 0.5944(13)
H11_2 H 0.903996 0.165614 0.568650
C12_2 C 0.8579(15) 0.3045(15) 0.6860(14)
H12_2 H 0.821962 0.267364 0.722155
C20_2 C 0.1943(12) 0.9759(14) 0.0579(12)
C21_2 C 0.1512(13) 0.9248(14) 0.1200(13)
H17_2 H 0.152815 0.844982 0.097755
C22_2 C 0.1074(13) 0.9894(15) 0.2113(13)
H18_2 H 0.080075 0.953325 0.251778
loop_
_geom_bond_atom_site_label_1
_geom_bond_atom_site_label_2
_geom_bond_site_symmetry_1
_geom_bond_site_symmetry_2
N2 N3 1_555 1_555
N3 C7 1_555 1_555
N4 N5 1_555 1_555
N5 H1 1_555 1_555
H2 N5 1_555 1_555
N6 C10 1_555 1_555
C6 N2 1_555 1_555
C7 N4 1_555 1_555
C8 C7 1_555 1_555
C9 C8 1_555 1_555
H9 C9 1_555 1_555
C10 C9 1_555 1_555
C11 N6 1_555 1_555
H11 C11 1_555 1_555
C12 C8 1_555 1_555
H12 C12 1_555 1_555
N4 C6 1_555 1_555
C11 C12 1_555 1_555
Au1 C25 1_555 1_555
Au2 C28 1_555 1_555
Au3 C26 1_555 1_555
Au4 C27 1_555 1_555
Fe1 N1 1_555 1_555
N1 C1 1_555 1_555
N7 Fe1 1_555 1_555
N8 N9 1_555 1_555
N9 C19 1_555 1_555
N13 Fe1 1_555 1_555
N14 Fe1 1_555 1_555
N15 Fe1 1_555 1_555
N16 Fe1 1_555 1_555
N17 C29 1_555 1_555
N20 C32 1_555 1_555
C1 H5 1_555 1_555
C2 C1 1_555 1_555
H6 C2 1_555 1_555
C3 C2 1_555 1_555
C4 C3 1_555 1_555
H7 C4 1_555 1_555
C5 N1 1_555 1_555
H8 C5 1_555 1_555
C13 N7 1_555 1_555
H13 C13 1_555 1_555
C14 C13 1_555 1_555
H14 C14 1_555 1_555
C15 C14 1_555 1_555
C16 C15 1_555 1_555
H15 C16 1_555 1_555
C17 N7 1_555 1_555
H16 C17 1_555 1_555
C18 N8 1_555 1_555
C19 N10 1_555 1_555
C25 N13 1_555 1_555
C26 N14 1_555 1_555
C27 N15 1_555 1_555
C28 N16 1_555 1_555
C29 Au2 1_555 1_555
C32 Au1 1_555 1_555
Fe7 N17 1_555 1_555
N10 C18 1_555 1_555
C4 C5 1_555 1_555
C15 C18 1_555 1_555
C16 C17 1_555 1_555
N11 H3 1_555 1_555
H4 N11 1_555 1_555
N18 C30 1_555 1_555
N19 C31 1_555 1_555
Fe7 N18 1_555 1_555
C23 N12 1_555 1_555
H19 C23 1_555 1_555
H20 C24 1_555 1_555
Fe7 N12 1_555 1_555
C23 C24 1_555 1_555
C21 C20 1_555 1_555
H17 C21 1_555 1_555
C22 C21 1_555 1_555
H18 C22 1_555 1_555
N22 Fe2 1_555 1_555
N23 Fe2 1_555 1_555
N24 Fe2 1_555 1_555
C23_2 N22 1_555 1_555
H19_2 C23_2 1_555 1_555
H20_2 C24_2 1_555 1_555
C23_2 C24_2 1_555 1_555
N11_2 H3_2 1_555 1_555
H4_2 N11_2 1_555 1_555
N24 C30_2 1_555 1_555
N19_2 C31_2 1_555 1_555
Au1_2 C25_2 1_555 1_555
Au2_2 C28_2 1_555 1_555
Au3_2 C26_2 1_555 1_555
Au4_2 C27_2 1_555 1_555
Fe1_2 N1_2 1_555 1_555
N1_2 C1_2 1_555 1_555
N7_2 Fe1_2 1_555 1_555
N8_2 N9_2 1_555 1_555
N9_2 C19_2 1_555 1_555
N13_2 Fe1_2 1_555 1_555
N14_2 Fe1_2 1_555 1_555
N15_2 Fe1_2 1_555 1_555
N16_2 Fe1_2 1_555 1_555
N23 C29_2 1_555 1_555
N25 C32_2 1_555 1_555
C1_2 H5_2 1_555 1_555
C2_2 C1_2 1_555 1_555
H6_2 C2_2 1_555 1_555
C3_2 C2_2 1_555 1_555
C4_2 C3_2 1_555 1_555
H7_2 C4_2 1_555 1_555
C5_2 N1_2 1_555 1_555
H8_2 C5_2 1_555 1_555
C13_2 N7_2 1_555 1_555
H13_2 C13_2 1_555 1_555
C14_2 C13_2 1_555 1_555
H14_2 C14_2 1_555 1_555
C15_2 C14_2 1_555 1_555
C16_2 C15_2 1_555 1_555
H15_2 C16_2 1_555 1_555
C17_2 N7_2 1_555 1_555
H16_2 C17_2 1_555 1_555
C18_2 N8_2 1_555 1_555
C19_2 N10_2 1_555 1_555
C25_2 N13_2 1_555 1_555
C26_2 N14_2 1_555 1_555
C27_2 N15_2 1_555 1_555
C28_2 N16_2 1_555 1_555
C29_2 Au2_2 1_555 1_555
C32_2 Au1_2 1_555 1_555
N10_2 C18_2 1_555 1_555
C4_2 C5_2 1_555 1_555
C15_2 C18_2 1_555 1_555
C16_2 C17_2 1_555 1_555
N2_2 N3_2 1_555 1_555
N3_2 C7_2 1_555 1_555
N4_2 N5_2 1_555 1_555
N5_2 H1_2 1_555 1_555
H2_2 N5_2 1_555 1_555
N21 C10_2 1_555 1_555
C6_2 N2_2 1_555 1_555
C7_2 N4_2 1_555 1_555
C8_2 C7_2 1_555 1_555
C9_2 C8_2 1_555 1_555
H9_2 C9_2 1_555 1_555
C10_2 C9_2 1_555 1_555
C11_2 N21 1_555 1_555
H11_2 C11_2 1_555 1_555
C12_2 C8_2 1_555 1_555
H12_2 C12_2 1_555 1_555
N4_2 C6_2 1_555 1_555
C11_2 C12_2 1_555 1_555
C21_2 C20_2 1_555 1_555
H17_2 C21_2 1_555 1_555
C22_2 C21_2 1_555 1_555
H18_2 C22_2 1_555 1_555

#END
