
###############################################################################
#
# This file contains modified crystal structure data generated from the
# MOF subset of the Cambridge Structural Database (CSD) v543 
# hosted by the Cambridge Crystallographic Data Centre (CCDC).
#
# This work is licensed under the Creative Commons
# Attribution-NonCommercial-ShareAlike 4.0 International License.
# To view a copy of this license, visit
# http://creativecommons.org/licenses/by-nc-sa/4.0/
# or send a letter to
# Creative Commons, PO Box 1866, Mountain View, CA 94042, USA.
#
# CIF created using the CSD Python API on 29 September 2022
# The structure has been converted into the P1 space group
# The structure has a 3D framework
# The original CSD entry YOQKEX03 is in the triclinic crystal system
# The framework has been calculated to contain at least 10.0% void space
# The void calculation uses a probe of radius 1.32A, grid spacing 0.4
#
###############################################################################

data_YOQKEX03
_chemical_formula_moiety         '(C64 H40 Au8 Fe2 N40)n'
_symmetry_cell_setting           triclinic
_symmetry_space_group_name_H-M   'P 1'
_symmetry_Int_Tables_number      1
_space_group_name_Hall           'P 1'
loop_
_symmetry_equiv_pos_site_id
_symmetry_equiv_pos_as_xyz
1 x,y,z
_cell_length_a                   15.8694(3)
_cell_length_b                   12.7869(3)
_cell_length_c                   17.0710(4)
_cell_angle_alpha                111.9669(19)
_cell_angle_beta                 68.5105(13)
_cell_angle_gamma                90.0188(12)
_cell_volume                     2951.49
loop_
_atom_site_label
_atom_site_type_symbol
_atom_site_fract_x
_atom_site_fract_y
_atom_site_fract_z
N2 N 0.2627(8) 0.3564(8) 0.0635(6)
N3 N 0.2164(7) 0.4031(8) 0.1579(7)
N4 N 0.2186(7) 0.5381(7) 0.1072(6)
N5 N 0.2017(7) 0.6475(7) 0.1078(6)
H1 H 0.251871 0.669363 0.078013
H2 H 0.165841 0.640924 0.077533
N6 N 0.0371(6) 0.7159(7) 0.4689(6)
C6 C 0.2651(8) 0.4396(9) 0.0337(8)
C7 C 0.1899(8) 0.5129(8) 0.1827(8)
C8 C 0.1380(7) 0.5883(8) 0.2800(7)
C9 C 0.0885(8) 0.5369(9) 0.3380(8)
H9 H 0.089147 0.456666 0.313787
C10 C 0.0388(8) 0.6012(9) 0.4300(8)
H10 H 0.004452 0.564358 0.467644
C11 C 0.0834(8) 0.7663(9) 0.4137(8)
H11 H 0.081945 0.846588 0.439805
C12 C 0.1338(8) 0.7064(10) 0.3192(8)
H12 H 0.164732 0.745633 0.282156
Au1 Au 0.21240(3) 0.54809(4) 0.60984(3)
Au2 Au 0.71180(3) 0.56143(3) 0.60988(3)
Au3 Au 0.23404(3) 0.03325(3) 0.60063(3)
Au4 Au 0.73340(3) 0.06770(3) 0.60076(3)
Fe1 Fe 0.46915(9) 0.30376(11) 0.60749(9)
N1 N 0.4009(5) 0.3553(7) 0.7465(6)
N7 N 0.5363(6) 0.2524(7) 0.4688(6)
N8 N 0.7143(7) 0.2547(8) 0.1590(6)
N9 N 0.7627(7) 0.2058(8) 0.0639(6)
N10 N 0.7179(7) 0.0696(7) 0.1088(6)
N13 N 0.3734(6) 0.4013(7) 0.6069(6)
N14 N 0.3930(6) 0.1791(7) 0.5919(6)
N15 N 0.5649(6) 0.2076(7) 0.6073(6)
N16 N 0.5464(6) 0.4246(7) 0.6209(6)
N17 N 0.8718(6) 0.7043(7) 0.6067(5)
N20 N 0.0481(6) 0.6967(7) 0.6222(6)
C1 C 0.3933(7) 0.2789(8) 0.7833(7)
H5 H 0.419766 0.201711 0.743263
C2 C 0.3495(7) 0.3047(8) 0.8756(7)
H6 H 0.345757 0.246251 0.897900
C3 C 0.3103(7) 0.4176(9) 0.9367(7)
C4 C 0.3184(7) 0.4980(9) 0.8958(8)
H7 H 0.292050 0.575842 0.933188
C5 C 0.3642(7) 0.4633(8) 0.8029(7)
H8 H 0.369915 0.518832 0.777411
C13 C 0.5400(8) 0.3276(9) 0.4302(7)
H13 H 0.507231 0.402769 0.468297
C14 C 0.5884(8) 0.3012(8) 0.3395(7)
H14 H 0.588626 0.358570 0.316693
C15 C 0.6383(8) 0.1921(9) 0.2782(8)
C16 C 0.6334(8) 0.1138(9) 0.3214(8)
H15 H 0.665593 0.038017 0.285638
C17 C 0.5826(8) 0.1473(9) 0.4139(8)
H16 H 0.580493 0.093047 0.439996
C18 C 0.6915(8) 0.1695(8) 0.1824(7)
C19 C 0.7655(8) 0.0941(9) 0.0339(8)
C25 C 0.3154(8) 0.4573(9) 0.6078(7)
C26 C 0.3385(8) 0.1200(8) 0.5944(7)
C27 C 0.6252(7) 0.1607(8) 0.6085(7)
C28 C 0.6050(7) 0.4758(9) 0.6171(7)
C29 C 0.8167(7) 0.6494(9) 0.6070(6)
C32 C 0.1059(8) 0.6421(9) 0.6178(8)
Fe7 Fe 0.96904(9) 0.80378(11) 0.60758(9)
N11 N 0.7010(7) 0.9622(7) 0.1097(6)
H3 H 0.751363 0.912083 0.082797
H4 H 0.666732 0.936943 0.077967
N18 N 0.8922(6) 0.9126(7) 0.5917(6)
N19 N 0.0672(6) 0.9009(7) 0.6077(6)
C30 C 0.8371(7) 0.9751(9) 0.5941(7)
C31 C 0.1257(8) 0.9513(9) 0.6094(7)
N12 N 0.9021(6) 0.8917(7) 0.7470(6)
C23 C 0.8631(7) 0.8396(8) 0.8049(7)
H19 H 0.868579 0.758656 0.779928
C24 C 0.8153(8) 0.9001(9) 0.8996(8)
H20 H 0.787428 0.861436 0.938100
C20 C 0.8095(7) 0.0191(9) 0.9362(8)
C21 C 0.8510(7) 0.0687(8) 0.8748(7)
H17 H 0.848884 0.149139 0.897477
C22 C 0.8957(7) 0.0035(8) 0.7810(7)
H18 H 0.922119 0.040480 0.740801
Fe2 Fe 0.03096(9) 0.19622(11) 0.39242(9)
N22 N 0.0979(6) 0.1083(7) 0.2530(6)
N23 N 0.1282(6) 0.2957(7) 0.3933(5)
N24 N 0.1078(6) 0.0874(7) 0.4083(6)
C23_2 C 0.1369(7) 0.1604(8) 0.1951(7)
H19_2 H 0.131421 0.241344 0.220072
C24_2 C 0.1847(8) 0.0999(9) 0.1004(8)
H20_2 H 0.212572 0.138564 0.061900
N11_2 N 0.2990(7) 0.0378(7) 0.8903(6)
H3_2 H 0.248637 0.087917 0.917203
H4_2 H 0.333268 0.063057 0.922033
N19_2 N 0.9328(6) 0.0991(7) 0.3923(6)
C30_2 C 0.1629(7) 0.0249(9) 0.4059(7)
C31_2 C 0.8743(8) 0.0487(9) 0.3906(7)
N21 N 0.9629(6) 0.2841(7) 0.5311(6)
N25 N 0.9519(6) 0.3033(7) 0.3778(6)
Au1_2 Au 0.78760(3) 0.45191(4) 0.39016(3)
Au2_2 Au 0.28820(3) 0.43857(3) 0.39012(3)
Au3_2 Au 0.76596(3) 0.96675(3) 0.39937(3)
Au4_2 Au 0.26660(3) 0.93230(3) 0.39924(3)
Fe1_2 Fe 0.53085(9) 0.69624(11) 0.39251(9)
N1_2 N 0.5991(5) 0.6447(7) 0.2535(6)
N7_2 N 0.4637(6) 0.7476(7) 0.5312(6)
N8_2 N 0.2857(7) 0.7453(8) 0.8410(6)
N9_2 N 0.2373(7) 0.7942(8) 0.9361(6)
N10_2 N 0.2821(7) 0.9304(7) 0.8912(6)
N13_2 N 0.6266(6) 0.5987(7) 0.3931(6)
N14_2 N 0.6070(6) 0.8209(7) 0.4081(6)
N15_2 N 0.4351(6) 0.7924(7) 0.3927(6)
N16_2 N 0.4536(6) 0.5754(7) 0.3791(6)
C1_2 C 0.6067(7) 0.7211(8) 0.2167(7)
H5_2 H 0.580234 0.798289 0.256737
C2_2 C 0.6505(7) 0.6953(8) 0.1244(7)
H6_2 H 0.654243 0.753749 0.102100
C3_2 C 0.6897(7) 0.5824(9) 0.0633(7)
C4_2 C 0.6816(7) 0.5020(9) 0.1042(8)
H7_2 H 0.707950 0.424158 0.066812
C5_2 C 0.6358(7) 0.5367(8) 0.1971(7)
H8_2 H 0.630085 0.481168 0.222589
C13_2 C 0.4600(8) 0.6724(9) 0.5698(7)
H13_2 H 0.492769 0.597231 0.531703
C14_2 C 0.4116(8) 0.6988(8) 0.6605(7)
H14_2 H 0.411374 0.641430 0.683307
C15_2 C 0.3617(8) 0.8079(9) 0.7218(8)
C16_2 C 0.3666(8) 0.8862(9) 0.6786(8)
H15_2 H 0.334407 0.961983 0.714362
C17_2 C 0.4174(8) 0.8527(9) 0.5861(8)
H16_2 H 0.419507 0.906953 0.560004
C18_2 C 0.3085(8) 0.8305(8) 0.8176(7)
C19_2 C 0.2345(8) 0.9059(9) 0.9661(8)
C25_2 C 0.6846(8) 0.5427(9) 0.3922(7)
C26_2 C 0.6615(8) 0.8800(8) 0.4056(7)
C27_2 C 0.3748(7) 0.8393(8) 0.3915(7)
C28_2 C 0.3950(7) 0.5242(9) 0.3829(7)
C29_2 C 0.1833(7) 0.3506(9) 0.3930(6)
C32_2 C 0.8941(8) 0.3579(9) 0.3822(8)
N2_2 N 0.7373(8) 0.6436(8) 0.9365(6)
N3_2 N 0.7836(7) 0.5969(8) 0.8421(7)
N4_2 N 0.7814(7) 0.4619(7) 0.8928(6)
N5_2 N 0.7983(7) 0.3525(7) 0.8922(6)
H1_2 H 0.748129 0.330637 0.921987
H2_2 H 0.834159 0.359076 0.922467
C6_2 C 0.7349(8) 0.5604(9) 0.9663(8)
C7_2 C 0.8101(8) 0.4871(8) 0.8173(8)
C8_2 C 0.8620(7) 0.4117(8) 0.7200(7)
C9_2 C 0.9115(8) 0.4631(9) 0.6620(8)
H9_2 H 0.910853 0.543334 0.686213
C10_2 C 0.9612(8) 0.3988(9) 0.5700(8)
H10_2 H 0.995548 0.435642 0.532356
C11_2 C 0.9166(8) 0.2337(9) 0.5863(8)
H11_2 H 0.918055 0.153412 0.560195
C12_2 C 0.8662(8) 0.2936(10) 0.6808(8)
H12_2 H 0.835268 0.254367 0.717844
C20_2 C 0.1905(7) 0.9809(9) 0.0638(8)
C21_2 C 0.1490(7) 0.9313(8) 0.1252(7)
H17_2 H 0.151116 0.850861 0.102523
C22_2 C 0.1043(7) 0.9965(8) 0.2190(7)
H18_2 H 0.077881 0.959520 0.259199
loop_
_geom_bond_atom_site_label_1
_geom_bond_atom_site_label_2
_geom_bond_site_symmetry_1
_geom_bond_site_symmetry_2
N2 N3 1_555 1_555
N3 C7 1_555 1_555
N4 N5 1_555 1_555
N5 H1 1_555 1_555
H2 N5 1_555 1_555
N6 C10 1_555 1_555
C6 N2 1_555 1_555
C7 N4 1_555 1_555
C8 C7 1_555 1_555
C9 C8 1_555 1_555
H9 C9 1_555 1_555
C10 C9 1_555 1_555
H10 C10 1_555 1_555
C11 N6 1_555 1_555
H11 C11 1_555 1_555
C12 C8 1_555 1_555
H12 C12 1_555 1_555
N4 C6 1_555 1_555
C11 C12 1_555 1_555
Au1 C25 1_555 1_555
Au2 C28 1_555 1_555
Au3 C26 1_555 1_555
Au4 C27 1_555 1_555
Fe1 N1 1_555 1_555
N1 C1 1_555 1_555
N7 Fe1 1_555 1_555
N8 N9 1_555 1_555
N9 C19 1_555 1_555
N13 Fe1 1_555 1_555
N14 Fe1 1_555 1_555
N15 Fe1 1_555 1_555
N16 Fe1 1_555 1_555
N17 C29 1_555 1_555
N20 C32 1_555 1_555
C1 H5 1_555 1_555
C2 C1 1_555 1_555
H6 C2 1_555 1_555
C3 C2 1_555 1_555
C4 C3 1_555 1_555
H7 C4 1_555 1_555
C5 N1 1_555 1_555
H8 C5 1_555 1_555
C13 N7 1_555 1_555
H13 C13 1_555 1_555
C14 C13 1_555 1_555
H14 C14 1_555 1_555
C15 C14 1_555 1_555
C16 C15 1_555 1_555
H15 C16 1_555 1_555
C17 N7 1_555 1_555
H16 C17 1_555 1_555
C18 N8 1_555 1_555
C19 N10 1_555 1_555
C25 N13 1_555 1_555
C26 N14 1_555 1_555
C27 N15 1_555 1_555
C28 N16 1_555 1_555
C29 Au2 1_555 1_555
C32 Au1 1_555 1_555
Fe7 N17 1_555 1_555
N10 C18 1_555 1_555
C4 C5 1_555 1_555
C15 C18 1_555 1_555
C16 C17 1_555 1_555
N11 H3 1_555 1_555
H4 N11 1_555 1_555
N18 C30 1_555 1_555
N19 C31 1_555 1_555
Fe7 N18 1_555 1_555
C23 N12 1_555 1_555
H19 C23 1_555 1_555
H20 C24 1_555 1_555
Fe7 N12 1_555 1_555
C23 C24 1_555 1_555
C21 C20 1_555 1_555
H17 C21 1_555 1_555
C22 C21 1_555 1_555
H18 C22 1_555 1_555
N22 Fe2 1_555 1_555
N23 Fe2 1_555 1_555
N24 Fe2 1_555 1_555
C23_2 N22 1_555 1_555
H19_2 C23_2 1_555 1_555
H20_2 C24_2 1_555 1_555
C23_2 C24_2 1_555 1_555
N11_2 H3_2 1_555 1_555
H4_2 N11_2 1_555 1_555
N24 C30_2 1_555 1_555
N19_2 C31_2 1_555 1_555
Au1_2 C25_2 1_555 1_555
Au2_2 C28_2 1_555 1_555
Au3_2 C26_2 1_555 1_555
Au4_2 C27_2 1_555 1_555
Fe1_2 N1_2 1_555 1_555
N1_2 C1_2 1_555 1_555
N7_2 Fe1_2 1_555 1_555
N8_2 N9_2 1_555 1_555
N9_2 C19_2 1_555 1_555
N13_2 Fe1_2 1_555 1_555
N14_2 Fe1_2 1_555 1_555
N15_2 Fe1_2 1_555 1_555
N16_2 Fe1_2 1_555 1_555
N23 C29_2 1_555 1_555
N25 C32_2 1_555 1_555
C1_2 H5_2 1_555 1_555
C2_2 C1_2 1_555 1_555
H6_2 C2_2 1_555 1_555
C3_2 C2_2 1_555 1_555
C4_2 C3_2 1_555 1_555
H7_2 C4_2 1_555 1_555
C5_2 N1_2 1_555 1_555
H8_2 C5_2 1_555 1_555
C13_2 N7_2 1_555 1_555
H13_2 C13_2 1_555 1_555
C14_2 C13_2 1_555 1_555
H14_2 C14_2 1_555 1_555
C15_2 C14_2 1_555 1_555
C16_2 C15_2 1_555 1_555
H15_2 C16_2 1_555 1_555
C17_2 N7_2 1_555 1_555
H16_2 C17_2 1_555 1_555
C18_2 N8_2 1_555 1_555
C19_2 N10_2 1_555 1_555
C25_2 N13_2 1_555 1_555
C26_2 N14_2 1_555 1_555
C27_2 N15_2 1_555 1_555
C28_2 N16_2 1_555 1_555
C29_2 Au2_2 1_555 1_555
C32_2 Au1_2 1_555 1_555
N10_2 C18_2 1_555 1_555
C4_2 C5_2 1_555 1_555
C15_2 C18_2 1_555 1_555
C16_2 C17_2 1_555 1_555
N2_2 N3_2 1_555 1_555
N3_2 C7_2 1_555 1_555
N4_2 N5_2 1_555 1_555
N5_2 H1_2 1_555 1_555
H2_2 N5_2 1_555 1_555
N21 C10_2 1_555 1_555
C6_2 N2_2 1_555 1_555
C7_2 N4_2 1_555 1_555
C8_2 C7_2 1_555 1_555
C9_2 C8_2 1_555 1_555
H9_2 C9_2 1_555 1_555
C10_2 C9_2 1_555 1_555
H10_2 C10_2 1_555 1_555
C11_2 N21 1_555 1_555
H11_2 C11_2 1_555 1_555
C12_2 C8_2 1_555 1_555
H12_2 C12_2 1_555 1_555
N4_2 C6_2 1_555 1_555
C11_2 C12_2 1_555 1_555
C21_2 C20_2 1_555 1_555
H17_2 C21_2 1_555 1_555
C22_2 C21_2 1_555 1_555
H18_2 C22_2 1_555 1_555

#END
