
###############################################################################
#
# This file contains modified crystal structure data generated from the
# MOF subset of the Cambridge Structural Database (CSD) v543 
# hosted by the Cambridge Crystallographic Data Centre (CCDC).
#
# This work is licensed under the Creative Commons
# Attribution-NonCommercial-ShareAlike 4.0 International License.
# To view a copy of this license, visit
# http://creativecommons.org/licenses/by-nc-sa/4.0/
# or send a letter to
# Creative Commons, PO Box 1866, Mountain View, CA 94042, USA.
#
# CIF created using the CSD Python API on 29 September 2022
# The structure has been converted into the P1 space group
# The structure has a 3D framework
# The original CSD entry YOQKEX14 is in the triclinic crystal system
# The framework has been calculated to contain at least 10.0% void space
# The void calculation uses a probe of radius 1.32A, grid spacing 0.4
#
###############################################################################

data_YOQKEX14
_chemical_formula_moiety         '(C64 H40 Au8 Fe2 N40)n'
_symmetry_cell_setting           triclinic
_symmetry_space_group_name_H-M   'P 1'
_symmetry_Int_Tables_number      1
_space_group_name_Hall           'P 1'
loop_
_symmetry_equiv_pos_site_id
_symmetry_equiv_pos_as_xyz
1 x,y,z
_cell_length_a                   16.4434(10)
_cell_length_b                   12.8355(8)
_cell_length_c                   17.1073(11)
_cell_angle_alpha                112.050(2)
_cell_angle_beta                 69.750(2)
_cell_angle_gamma                89.9829(19)
_cell_volume                     3104.3
loop_
_atom_site_label
_atom_site_type_symbol
_atom_site_fract_x
_atom_site_fract_y
_atom_site_fract_z
N2 N 0.2588(11) 0.3470(11) 0.0643(10)
N3 N 0.2126(12) 0.3936(11) 0.1566(10)
N4 N 0.2173(9) 0.5294(10) 0.1090(9)
N5 N 0.2003(11) 0.6383(10) 0.1086(9)
H1 H 0.250504 0.660190 0.078829
H2 H 0.164494 0.631770 0.078349
N6 N 0.0382(9) 0.7072(10) 0.4618(9)
C6 C 0.2617(11) 0.4304(13) 0.0360(11)
C7 C 0.1887(12) 0.5027(13) 0.1822(11)
C8 C 0.1375(11) 0.5760(13) 0.2763(11)
C9 C 0.0826(12) 0.5304(13) 0.3338(11)
H9 H 0.078335 0.451617 0.310280
C10 C 0.0348(12) 0.5963(13) 0.4230(11)
C11 C 0.0898(12) 0.7537(15) 0.4072(11)
H11 H 0.092514 0.832740 0.432821
C12 C 0.1388(13) 0.6932(14) 0.3164(13)
H12 H 0.173465 0.730568 0.280985
Au1 Au 0.21315(4) 0.55141(5) 0.61018(4)
Au2 Au 0.71315(4) 0.55871(5) 0.61020(4)
Au3 Au 0.23367(4) 0.03230(5) 0.60159(4)
Au4 Au 0.73371(4) 0.06936(5) 0.60160(4)
Fe1 Fe 0.46850(12) 0.30361(15) 0.60821(13)
N1 N 0.3981(8) 0.3562(10) 0.7543(9)
N7 N 0.5374(9) 0.2543(10) 0.4623(9)
N8 N 0.7129(11) 0.2634(12) 0.1575(10)
N9 N 0.7587(11) 0.2181(11) 0.0647(10)
N10 N 0.7174(9) 0.0789(11) 0.1091(9)
N13 N 0.3696(9) 0.4101(10) 0.6063(9)
N14 N 0.3930(9) 0.1671(11) 0.5879(10)
N15 N 0.5690(9) 0.2016(11) 0.6119(9)
N16 N 0.5474(9) 0.4385(12) 0.6275(10)
N17 N 0.8691(8) 0.6971(10) 0.6058(9)
N20 N 0.0478(9) 0.6900(11) 0.6282(10)
C1 C 0.3936(11) 0.2770(13) 0.7917(11)
H5 H 0.423082 0.201857 0.752899
C2 C 0.3499(11) 0.3007(13) 0.8796(11)
H6 H 0.347756 0.242081 0.901169
C3 C 0.3067(10) 0.4119(12) 0.9412(10)
C4 C 0.3117(11) 0.4931(13) 0.9042(11)
H7 H 0.283521 0.569127 0.941693
C5 C 0.3582(12) 0.4611(12) 0.8120(11)
H8 H 0.361957 0.517931 0.788426
C13 C 0.5347(12) 0.3263(13) 0.4227(11)
H13 H 0.497045 0.397100 0.458612
C14 C 0.5829(13) 0.3033(13) 0.3341(12)
H14 H 0.579118 0.358487 0.310414
C15 C 0.6376(11) 0.2004(14) 0.2776(11)
C16 C 0.6397(13) 0.1236(15) 0.3167(12)
H15 H 0.674102 0.050518 0.281175
C17 C 0.5908(12) 0.1552(15) 0.4085(12)
H16 H 0.595413 0.103352 0.434874
C18 C 0.6889(11) 0.1813(13) 0.1835(11)
C19 C 0.7610(11) 0.1047(13) 0.0365(11)
C25 C 0.3150(9) 0.4629(12) 0.6076(11)
C26 C 0.3360(12) 0.1147(12) 0.5917(10)
C27 C 0.6272(11) 0.1572(13) 0.6115(11)
C28 C 0.6067(10) 0.4796(13) 0.6205(11)
C29 C 0.8145(11) 0.6441(13) 0.6068(11)
C32 C 0.1060(10) 0.6400(12) 0.6223(10)
Fe7 Fe 0.96850(12) 0.80446(15) 0.60819(13)
N11 N 0.7004(11) 0.9703(11) 0.1085(9)
H3 H 0.750757 0.920277 0.081572
H4 H 0.666137 0.945127 0.076742
N18 N 0.8925(9) 0.9203(11) 0.5876(9)
N19 N 0.0686(9) 0.9093(11) 0.6113(9)
C30 C 0.8370(11) 0.9785(13) 0.5918(10)
C31 C 0.1270(11) 0.9557(13) 0.6128(11)
N12 N 0.8977(8) 0.8992(10) 0.7539(8)
C23 C 0.8583(12) 0.8512(14) 0.8122(12)
H19 H 0.862545 0.770682 0.788608
C24 C 0.8119(12) 0.9114(13) 0.9042(11)
H20 H 0.783279 0.873281 0.941816
H10 H 0.997407 0.561675 0.459258
C20 C 0.8079(11) 0.0287(13) 0.9406(11)
C21 C 0.8498(12) 0.0797(13) 0.8816(11)
H17 H 0.847734 0.159899 0.904151
C22 C 0.8949(10) 0.0132(12) 0.7897(11)
H18 H 0.924664 0.049202 0.750798
Fe2 Fe 0.03150(12) 0.19554(15) 0.39181(13)
N22 N 0.1023(8) 0.1008(10) 0.2461(8)
N23 N 0.1309(8) 0.3029(10) 0.3942(9)
N24 N 0.1075(9) 0.0797(11) 0.4124(9)
H10_2 H 0.002593 0.438325 0.540742
C23_2 C 0.1417(12) 0.1488(14) 0.1878(12)
H19_2 H 0.137455 0.229318 0.211392
C24_2 C 0.1881(12) 0.0886(13) 0.0958(11)
H20_2 H 0.216721 0.126719 0.058184
N11_2 N 0.2996(11) 0.0297(11) 0.8915(9)
H3_2 H 0.249243 0.079723 0.918428
H4_2 H 0.333863 0.054873 0.923258
N19_2 N 0.9314(9) 0.0907(11) 0.3887(9)
C30_2 C 0.1630(11) 0.0215(13) 0.4082(10)
C31_2 C 0.8730(11) 0.0443(13) 0.3872(11)
N21 N 0.9618(9) 0.2928(10) 0.5382(9)
N25 N 0.9522(9) 0.3100(11) 0.3718(10)
Au1_2 Au 0.78685(4) 0.44859(5) 0.38982(4)
Au2_2 Au 0.28685(4) 0.44129(5) 0.38980(4)
Au3_2 Au 0.76633(4) 0.96770(5) 0.39841(4)
Au4_2 Au 0.26629(4) 0.93064(5) 0.39840(4)
Fe1_2 Fe 0.53150(12) 0.69639(15) 0.39179(13)
N1_2 N 0.6019(8) 0.6438(10) 0.2457(9)
N7_2 N 0.4626(9) 0.7457(10) 0.5377(9)
N8_2 N 0.2871(11) 0.7366(12) 0.8425(10)
N9_2 N 0.2413(11) 0.7819(11) 0.9353(10)
N10_2 N 0.2826(9) 0.9211(11) 0.8909(9)
N13_2 N 0.6304(9) 0.5899(10) 0.3937(9)
N14_2 N 0.6070(9) 0.8329(11) 0.4121(10)
N15_2 N 0.4310(9) 0.7984(11) 0.3881(9)
N16_2 N 0.4526(9) 0.5615(12) 0.3725(10)
C1_2 C 0.6064(11) 0.7230(13) 0.2083(11)
H5_2 H 0.576918 0.798143 0.247101
C2_2 C 0.6501(11) 0.6993(13) 0.1204(11)
H6_2 H 0.652244 0.757919 0.098831
C3_2 C 0.6933(10) 0.5881(12) 0.0588(10)
C4_2 C 0.6883(11) 0.5069(13) 0.0958(11)
H7_2 H 0.716479 0.430873 0.058307
C5_2 C 0.6418(12) 0.5389(12) 0.1880(11)
H8_2 H 0.638043 0.482069 0.211574
C13_2 C 0.4653(12) 0.6737(13) 0.5773(11)
H13_2 H 0.502955 0.602900 0.541388
C14_2 C 0.4171(13) 0.6967(13) 0.6659(12)
H14_2 H 0.420882 0.641513 0.689586
C15_2 C 0.3624(11) 0.7996(14) 0.7224(11)
C16_2 C 0.3603(13) 0.8764(15) 0.6833(12)
H15_2 H 0.325898 0.949482 0.718825
C17_2 C 0.4092(12) 0.8448(15) 0.5915(12)
H16_2 H 0.404587 0.896648 0.565126
C18_2 C 0.3111(11) 0.8187(13) 0.8165(11)
C19_2 C 0.2390(11) 0.8953(13) 0.9635(11)
C25_2 C 0.6850(9) 0.5371(12) 0.3924(11)
C26_2 C 0.6640(12) 0.8853(12) 0.4083(10)
C27_2 C 0.3728(11) 0.8428(13) 0.3885(11)
C28_2 C 0.3933(10) 0.5204(13) 0.3795(11)
C29_2 C 0.1855(11) 0.3559(13) 0.3932(11)
C32_2 C 0.8940(10) 0.3600(12) 0.3777(10)
N2_2 N 0.7412(11) 0.6530(11) 0.9357(10)
N3_2 N 0.7874(12) 0.6064(11) 0.8434(10)
N4_2 N 0.7827(9) 0.4706(10) 0.8910(9)
N5_2 N 0.7997(11) 0.3617(10) 0.8914(9)
H1_2 H 0.749496 0.339810 0.921171
H2_2 H 0.835506 0.368230 0.921651
C6_2 C 0.7383(11) 0.5696(13) 0.9640(11)
C7_2 C 0.8113(12) 0.4973(13) 0.8178(11)
C8_2 C 0.8625(11) 0.4240(13) 0.7237(11)
C9_2 C 0.9174(12) 0.4696(13) 0.6662(11)
H9_2 H 0.921665 0.548383 0.689720
C10_2 C 0.9652(12) 0.4037(13) 0.5770(11)
C11_2 C 0.9102(12) 0.2463(15) 0.5928(11)
H11_2 H 0.907486 0.167260 0.567179
C12_2 C 0.8612(13) 0.3068(14) 0.6836(13)
H12_2 H 0.826535 0.269432 0.719015
C20_2 C 0.1921(11) 0.9713(13) 0.0594(11)
C21_2 C 0.1502(12) 0.9203(13) 0.1184(11)
H17_2 H 0.152266 0.840101 0.095849
C22_2 C 0.1051(10) 0.9868(12) 0.2103(11)
H18_2 H 0.075336 0.950798 0.249202
loop_
_geom_bond_atom_site_label_1
_geom_bond_atom_site_label_2
_geom_bond_site_symmetry_1
_geom_bond_site_symmetry_2
N2 N3 1_555 1_555
N3 C7 1_555 1_555
N4 N5 1_555 1_555
N5 H1 1_555 1_555
H2 N5 1_555 1_555
N6 C10 1_555 1_555
C6 N2 1_555 1_555
C7 N4 1_555 1_555
C8 C7 1_555 1_555
C9 C8 1_555 1_555
H9 C9 1_555 1_555
C10 C9 1_555 1_555
C11 N6 1_555 1_555
H11 C11 1_555 1_555
C12 C8 1_555 1_555
H12 C12 1_555 1_555
N4 C6 1_555 1_555
C11 C12 1_555 1_555
Au1 C25 1_555 1_555
Au2 C28 1_555 1_555
Au3 C26 1_555 1_555
Au4 C27 1_555 1_555
Fe1 N1 1_555 1_555
N1 C1 1_555 1_555
N7 Fe1 1_555 1_555
N8 N9 1_555 1_555
N9 C19 1_555 1_555
N13 Fe1 1_555 1_555
N14 Fe1 1_555 1_555
N15 Fe1 1_555 1_555
N16 Fe1 1_555 1_555
N17 C29 1_555 1_555
N20 C32 1_555 1_555
C1 H5 1_555 1_555
C2 C1 1_555 1_555
H6 C2 1_555 1_555
C3 C2 1_555 1_555
C4 C3 1_555 1_555
H7 C4 1_555 1_555
C5 N1 1_555 1_555
H8 C5 1_555 1_555
C13 N7 1_555 1_555
H13 C13 1_555 1_555
C14 C13 1_555 1_555
H14 C14 1_555 1_555
C15 C14 1_555 1_555
C16 C15 1_555 1_555
H15 C16 1_555 1_555
C17 N7 1_555 1_555
H16 C17 1_555 1_555
C18 N8 1_555 1_555
C19 N10 1_555 1_555
C25 N13 1_555 1_555
C26 N14 1_555 1_555
C27 N15 1_555 1_555
C28 N16 1_555 1_555
C29 Au2 1_555 1_555
C32 Au1 1_555 1_555
Fe7 N17 1_555 1_555
N10 C18 1_555 1_555
C4 C5 1_555 1_555
C15 C18 1_555 1_555
C16 C17 1_555 1_555
N11 H3 1_555 1_555
H4 N11 1_555 1_555
N18 C30 1_555 1_555
N19 C31 1_555 1_555
Fe7 N18 1_555 1_555
C23 N12 1_555 1_555
H19 C23 1_555 1_555
H20 C24 1_555 1_555
Fe7 N12 1_555 1_555
C23 C24 1_555 1_555
C21 C20 1_555 1_555
H17 C21 1_555 1_555
C22 C21 1_555 1_555
H18 C22 1_555 1_555
N22 Fe2 1_555 1_555
N23 Fe2 1_555 1_555
N24 Fe2 1_555 1_555
C23_2 N22 1_555 1_555
H19_2 C23_2 1_555 1_555
H20_2 C24_2 1_555 1_555
C23_2 C24_2 1_555 1_555
N11_2 H3_2 1_555 1_555
H4_2 N11_2 1_555 1_555
N24 C30_2 1_555 1_555
N19_2 C31_2 1_555 1_555
Au1_2 C25_2 1_555 1_555
Au2_2 C28_2 1_555 1_555
Au3_2 C26_2 1_555 1_555
Au4_2 C27_2 1_555 1_555
Fe1_2 N1_2 1_555 1_555
N1_2 C1_2 1_555 1_555
N7_2 Fe1_2 1_555 1_555
N8_2 N9_2 1_555 1_555
N9_2 C19_2 1_555 1_555
N13_2 Fe1_2 1_555 1_555
N14_2 Fe1_2 1_555 1_555
N15_2 Fe1_2 1_555 1_555
N16_2 Fe1_2 1_555 1_555
N23 C29_2 1_555 1_555
N25 C32_2 1_555 1_555
C1_2 H5_2 1_555 1_555
C2_2 C1_2 1_555 1_555
H6_2 C2_2 1_555 1_555
C3_2 C2_2 1_555 1_555
C4_2 C3_2 1_555 1_555
H7_2 C4_2 1_555 1_555
C5_2 N1_2 1_555 1_555
H8_2 C5_2 1_555 1_555
C13_2 N7_2 1_555 1_555
H13_2 C13_2 1_555 1_555
C14_2 C13_2 1_555 1_555
H14_2 C14_2 1_555 1_555
C15_2 C14_2 1_555 1_555
C16_2 C15_2 1_555 1_555
H15_2 C16_2 1_555 1_555
C17_2 N7_2 1_555 1_555
H16_2 C17_2 1_555 1_555
C18_2 N8_2 1_555 1_555
C19_2 N10_2 1_555 1_555
C25_2 N13_2 1_555 1_555
C26_2 N14_2 1_555 1_555
C27_2 N15_2 1_555 1_555
C28_2 N16_2 1_555 1_555
C29_2 Au2_2 1_555 1_555
C32_2 Au1_2 1_555 1_555
N10_2 C18_2 1_555 1_555
C4_2 C5_2 1_555 1_555
C15_2 C18_2 1_555 1_555
C16_2 C17_2 1_555 1_555
N2_2 N3_2 1_555 1_555
N3_2 C7_2 1_555 1_555
N4_2 N5_2 1_555 1_555
N5_2 H1_2 1_555 1_555
H2_2 N5_2 1_555 1_555
N21 C10_2 1_555 1_555
C6_2 N2_2 1_555 1_555
C7_2 N4_2 1_555 1_555
C8_2 C7_2 1_555 1_555
C9_2 C8_2 1_555 1_555
H9_2 C9_2 1_555 1_555
C10_2 C9_2 1_555 1_555
C11_2 N21 1_555 1_555
H11_2 C11_2 1_555 1_555
C12_2 C8_2 1_555 1_555
H12_2 C12_2 1_555 1_555
N4_2 C6_2 1_555 1_555
C11_2 C12_2 1_555 1_555
C21_2 C20_2 1_555 1_555
H17_2 C21_2 1_555 1_555
C22_2 C21_2 1_555 1_555
H18_2 C22_2 1_555 1_555

#END
