
###############################################################################
#
# This file contains modified crystal structure data generated from the
# MOF subset of the Cambridge Structural Database (CSD) v543 
# hosted by the Cambridge Crystallographic Data Centre (CCDC).
#
# This work is licensed under the Creative Commons
# Attribution-NonCommercial-ShareAlike 4.0 International License.
# To view a copy of this license, visit
# http://creativecommons.org/licenses/by-nc-sa/4.0/
# or send a letter to
# Creative Commons, PO Box 1866, Mountain View, CA 94042, USA.
#
# CIF created using the CSD Python API on 29 September 2022
# The structure has been converted into the P1 space group
# The structure has a 3D framework
# The original CSD entry YOQLAT is in the monoclinic crystal system
# The framework has been calculated to contain at least 10.0% void space
# The void calculation uses a probe of radius 1.32A, grid spacing 0.4
# H atom positions have been added when not included in the experimental data
#
###############################################################################

data_YOQLAT
_chemical_formula_moiety         '(C48 H40 Ba12 Fe8 O122)n'
_symmetry_cell_setting           triclinic
_symmetry_space_group_name_H-M   'P 1'
_symmetry_Int_Tables_number      1
_space_group_name_Hall           'P 1'
loop_
_symmetry_equiv_pos_site_id
_symmetry_equiv_pos_as_xyz
1 x,y,z
_cell_length_a                   10.84160(10)
_cell_length_b                   17.6498(3)
_cell_length_c                   18.5049(3)
_cell_angle_alpha                90
_cell_angle_beta                 92.7070(10)
_cell_angle_gamma                90
_cell_volume                     3537
loop_
_atom_site_label
_atom_site_type_symbol
_atom_site_fract_x
_atom_site_fract_y
_atom_site_fract_z
Ba1 Ba 0.19912(2) 0.818746(15) 0.246906(13)
O11 O 0.0892(3) 0.95734(19) 0.30327(16)
O24 O 0.0317(3) 0.71208(19) 0.18876(19)
O28 O 0.2196(3) 0.79881(17) 0.09336(15)
O29 O 0.2146(3) 0.80315(19) 0.41484(18)
O37 O 0.3690(3) 0.94254(17) 0.31190(15)
O38 O 0.2746(3) 0.94450(16) 0.17111(15)
O40 O 0.3998(3) 0.76163(18) 0.32496(15)
O41 O 0.4405(3) 0.80656(17) 0.18558(15)
Ba6 Ba 0.44355(2) 0.878646(15) 0.445603(13)
Ba11 Ba 0.41943(3) 0.895100(15) 0.061379(13)
Fe1 Fe 0.75151(6) 0.04535(4) 0.25202(3)
O2 O 0.7073(3) 0.13736(16) 0.31177(14)
O3 O 0.5791(3) 0.01531(17) 0.43654(14)
O4 O 0.6444(3) 0.16576(17) 0.42191(16)
O5 O 0.7868(3) 0.11603(18) 0.17178(15)
O6 O 0.5951(3) 0.02781(17) 0.18747(14)
O7 O 0.7161(3) 0.14981(18) 0.06117(15)
O8 O 0.5290(3) 0.04349(17) 0.07397(15)
O9 O 0.9224(3) 0.03479(18) 0.29843(16)
C1 C 0.6325(4) 0.0363(2) 0.3831(2)
C2 C 0.6628(4) 0.1208(2) 0.3729(2)
C3 C 0.7100(4) 0.1128(2) 0.1178(2)
C4 C 0.5995(4) 0.0570(2) 0.1265(2)
Ba8 Ba 0.55645(2) 0.121354(15) 0.554397(13)
O45 O 0.4651(3) 0.22240(18) 0.02589(16)
H5 H 0.213635 0.00517677 0.399321
Ba3 Ba 0.58057(3) 0.104900(15) 0.938621(13)
O32 O 0.3246(3) 0.1168(2) 0.9125(2)
O39 O 0.7254(3) 0.05550(16) 0.82889(15)
O42 O 0.5595(3) 0.19344(17) 0.81442(15)
O43 O 0.7804(3) 0.20119(17) 0.90664(15)
H1 H 0.299769 0.170879 0.914627
H2 H 0.30157 0.0960556 0.863837
Fe2 Fe 0.69683(5) 0.65608(3) 0.25204(3)
O1 O 0.6685(3) 0.99322(16) 0.33260(14)
O10 O 0.8118(3) 0.9518(2) 0.20107(16)
O12 O 0.9836(4) 0.8860(2) 0.1813(2)
O13 O 0.6243(3) 0.56916(17) 0.19302(14)
O14 O 0.7435(3) 0.56980(16) 0.31860(15)
O15 O 0.6310(3) 0.44254(17) 0.18810(15)
O16 O 0.7254(3) 0.44450(16) 0.32889(15)
O17 O 0.5582(3) 0.68239(15) 0.31742(15)
O18 O 0.6048(3) 0.73088(17) 0.18853(14)
O21 O 0.8020(3) 0.72780(17) 0.31284(15)
O22 O 0.8438(3) 0.65999(18) 0.19220(17)
O23 O 0.9852(3) 0.7831(2) 0.31726(19)
C5 C 0.9873(4) 0.9782(3) 0.2785(2)
C6 C 0.9228(5) 0.9338(3) 0.2144(2)
C7 C 0.6503(4) 0.5031(2) 0.2186(2)
C8 C 0.7105(4) 0.5044(2) 0.2946(2)
C9 C 0.4858(4) 0.7328(2) 0.2920(2)
C10 C 0.5091(4) 0.7604(2) 0.2153(2)
C11 C 0.9084(4) 0.7412(3) 0.2881(2)
C12 C 0.9327(4) 0.7016(3) 0.2173(2)
O25 O 0.6533(4) 0.8811(2) 0.54441(19)
O26 O 0.2197(4) 0.9751(2) 0.44470(19)
O30 O 0.6512(4) 0.8439(2) 0.3690(2)
O31 O 0.5349(3) 0.72240(18) 0.47411(16)
Ba5 Ba 0.80088(2) 0.318746(15) 0.253094(13)
O33 O 0.4209(3) 0.98469(17) 0.56346(14)
O34 O 0.3556(3) 0.83424(17) 0.57809(16)
Ba7 Ba 0.55645(2) 0.378646(15) 0.054397(13)
Ba9 Ba 0.41943(3) 0.604900(15) 0.561379(13)
Ba12 Ba 0.58057(3) 0.395100(15) 0.438621(13)
H3 H 0.64625 0.924387 0.578244
H4 H 0.657237 0.832998 0.572256
H6 H 0.145403 0.942537 0.447582
H7 H 0.737536 0.968559 0.0293647
H9 H 0.726861 0.854624 0.39963
H10 H 0.649375 0.78942 0.355597
O27 O 0.7539(4) 0.9866(2) 0.9799(2)
O35 O 0.4710(3) 0.95651(17) 0.92603(15)
H8 H 0.744425 0.943786 0.945269
Fe1_2 Fe 0.24849(6) 0.54535(4) 0.24798(3)
Fe2_2 Fe 0.30317(5) 0.15608(3) 0.24796(3)
O1_2 O 0.3315(3) 0.49322(16) 0.16740(14)
O2_2 O 0.2927(3) 0.63736(16) 0.18823(14)
O3_2 O 0.4209(3) 0.51531(17) 0.06346(14)
O4_2 O 0.3556(3) 0.66576(17) 0.07809(16)
O5_2 O 0.2132(3) 0.61603(18) 0.32822(15)
O6_2 O 0.4049(3) 0.52781(17) 0.31253(14)
O7_2 O 0.2839(3) 0.64981(18) 0.43883(15)
O8_2 O 0.4710(3) 0.54349(17) 0.42603(15)
O9_2 O 0.0776(3) 0.53479(18) 0.20157(16)
O10_2 O 0.1882(3) 0.4518(2) 0.29893(16)
O12_2 O 0.0164(4) 0.3860(2) 0.3187(2)
O13_2 O 0.3757(3) 0.06916(17) 0.30698(14)
O14_2 O 0.2565(3) 0.06980(16) 0.18140(15)
O17_2 O 0.4418(3) 0.18239(15) 0.18258(15)
O18_2 O 0.3952(3) 0.23088(17) 0.31147(14)
O19 O 0.6002(3) 0.26163(18) 0.17504(15)
O20 O 0.5595(3) 0.30656(17) 0.31442(15)
O21_2 O 0.1980(3) 0.22780(17) 0.18716(15)
O22_2 O 0.1562(3) 0.15999(18) 0.30780(17)
O23_2 O 0.0148(3) 0.2831(2) 0.18274(19)
C1_2 C 0.3675(4) 0.5363(2) 0.1169(2)
C2_2 C 0.3372(4) 0.6208(2) 0.1271(2)
C3_2 C 0.2900(4) 0.6128(2) 0.3822(2)
C4_2 C 0.4005(4) 0.5570(2) 0.3735(2)
C5_2 C 0.0127(4) 0.4782(3) 0.2215(2)
C6_2 C 0.0772(5) 0.4338(3) 0.2856(2)
C7_2 C 0.3497(4) 0.0031(2) 0.2814(2)
C8_2 C 0.2895(4) 0.0044(2) 0.2054(2)
C9_2 C 0.5142(4) 0.2328(2) 0.2080(2)
C10_2 C 0.4909(4) 0.2604(2) 0.2847(2)
C11_2 C 0.0916(4) 0.2412(3) 0.2119(2)
C12_2 C 0.0673(4) 0.2016(3) 0.2827(2)
O26_2 O 0.7803(4) 0.4751(2) 0.05530(19)
O27_2 O 0.2461(4) 0.4866(2) 0.5201(2)
O30_2 O 0.3488(4) 0.3439(2) 0.1310(2)
O32_2 O 0.6754(3) 0.6168(2) 0.5875(2)
O35_2 O 0.5290(3) 0.45651(17) 0.57397(15)
O39_2 O 0.2746(3) 0.55550(16) 0.67111(15)
O42_2 O 0.4405(3) 0.69344(17) 0.68558(15)
O43_2 O 0.2196(3) 0.70119(17) 0.59336(15)
O44 O 0.7854(3) 0.30315(19) 0.08516(18)
H1_2 H 0.700231 0.670879 0.585373
H2_2 H 0.69843 0.596056 0.636163
H5_2 H 0.786365 0.505177 0.100679
H6_2 H 0.854597 0.442537 0.0524185
H7_2 H 0.262464 0.468559 0.470635
H8_2 H 0.255575 0.443786 0.554731
H9_2 H 0.273139 0.354624 0.10037
H10_2 H 0.350625 0.28942 0.144403
O25_2 O 0.3467(4) 0.3811(2) 0.95559(19)
O33_2 O 0.5791(3) 0.48469(17) 0.93654(14)
O34_2 O 0.6444(3) 0.33424(17) 0.92191(16)
Ba8_2 Ba 0.44355(2) 0.621354(15) 0.945603(13)
H3_2 H 0.35375 0.424387 0.921756
H4_2 H 0.342763 0.332998 0.927744
O11_2 O 0.9108(3) 0.45734(19) 0.19673(16)
O24_2 O 0.9683(3) 0.21208(19) 0.31124(19)
O28_2 O 0.7804(3) 0.29881(17) 0.40664(15)
O27_3 O 0.2461(4) 0.0134(2) 0.0201(2)
H8_3 H 0.255575 0.0562142 0.0547314
Fe2_3 Fe 0.30317(5) 0.34392(3) 0.74796(3)
O1_3 O 0.3315(3) 0.00678(16) 0.66740(14)
O10_3 O 0.1882(3) 0.0482(2) 0.79893(16)
O12_3 O 0.0164(4) 0.1140(2) 0.8187(2)
O13_3 O 0.3757(3) 0.43084(17) 0.80698(14)
O14_3 O 0.2565(3) 0.43020(16) 0.68140(15)
O15_2 O 0.3690(3) 0.55746(17) 0.81190(15)
O17_3 O 0.4418(3) 0.31761(15) 0.68258(15)
O18_3 O 0.3952(3) 0.26912(17) 0.81147(14)
O19_2 O 0.6002(3) 0.23837(18) 0.67504(15)
O21_3 O 0.1980(3) 0.27220(17) 0.68716(15)
O22_3 O 0.1562(3) 0.34001(18) 0.80780(17)
O23_3 O 0.0148(3) 0.2169(2) 0.68274(19)
C5_3 C 0.0127(4) 0.0218(3) 0.7215(2)
C6_3 C 0.0772(5) 0.0662(3) 0.7856(2)
C7_3 C 0.3497(4) 0.4969(2) 0.7814(2)
C8_3 C 0.2895(4) 0.4956(2) 0.7054(2)
C9_3 C 0.5142(4) 0.2672(2) 0.7080(2)
C10_3 C 0.4909(4) 0.2396(2) 0.7847(2)
C11_3 C 0.0916(4) 0.2588(3) 0.7119(2)
C12_3 C 0.0673(4) 0.2984(3) 0.7827(2)
O25_3 O 0.3467(4) 0.1189(2) 0.45559(19)
O26_3 O 0.7803(4) 0.0249(2) 0.55530(19)
O30_3 O 0.3488(4) 0.1561(2) 0.6310(2)
O31_2 O 0.4651(3) 0.27760(18) 0.52589(16)
Ba4 Ba 0.80088(2) 0.181254(15) 0.753094(13)
Ba5_2 Ba 0.19912(2) 0.681254(15) 0.746906(13)
O36 O 0.6310(3) 0.05746(17) 0.68810(15)
O44_2 O 0.7854(3) 0.19685(19) 0.58516(18)
H3_3 H 0.35375 0.0756135 0.421756
H4_3 H 0.342763 0.167002 0.427744
H6_3 H 0.854597 0.057463 0.552418
H7_3 H 0.262464 0.031441 0.970635
H9_3 H 0.273139 0.145376 0.60037
H10_3 H 0.350625 0.21058 0.644403
O32_3 O 0.6754(3) 0.8832(2) 0.0875(2)
H1_3 H 0.700231 0.829121 0.0853729
H2_3 H 0.69843 0.903944 0.136163
Fe1_3 Fe 0.24849(6) 0.95465(4) 0.74798(3)
O2_3 O 0.2927(3) 0.86264(16) 0.68823(14)
O5_3 O 0.2132(3) 0.88397(18) 0.82822(15)
O6_3 O 0.4049(3) 0.97219(17) 0.81253(14)
O7_3 O 0.2839(3) 0.85019(18) 0.93883(15)
O9_3 O 0.0776(3) 0.96521(18) 0.70157(16)
C1_3 C 0.3675(4) 0.9637(2) 0.6169(2)
C2_3 C 0.3372(4) 0.8792(2) 0.6271(2)
C3_3 C 0.2900(4) 0.8872(2) 0.8822(2)
C4_3 C 0.4005(4) 0.9430(2) 0.8735(2)
O45_2 O 0.5349(3) 0.77760(18) 0.97411(16)
H5_3 H 0.786365 0.994823 0.600679
O11_3 O 0.9108(3) 0.04266(19) 0.69673(16)
O24_3 O 0.9683(3) 0.28792(19) 0.81124(19)
O11_4 O 0.0892(3) 0.54266(19) 0.80327(16)
O24_4 O 0.0317(3) 0.78792(19) 0.68876(19)
O29_2 O 0.2146(3) 0.69685(19) 0.91484(18)
O40_2 O 0.3998(3) 0.73837(18) 0.82496(15)
O25_4 O 0.6533(4) 0.6189(2) 0.04441(19)
H3_4 H 0.64625 0.575613 0.0782439
H4_4 H 0.657237 0.667002 0.0722555
Fe1_4 Fe 0.75151(6) 0.45465(4) 0.75202(3)
Fe2_4 Fe 0.69683(5) 0.84392(3) 0.75204(3)
O1_4 O 0.6685(3) 0.50678(16) 0.83260(14)
O2_4 O 0.7073(3) 0.36264(16) 0.81177(14)
O5_4 O 0.7868(3) 0.38397(18) 0.67178(15)
O6_4 O 0.5951(3) 0.47219(17) 0.68747(14)
O7_4 O 0.7161(3) 0.35019(18) 0.56117(15)
O9_4 O 0.9224(3) 0.46521(18) 0.79843(16)
O10_4 O 0.8118(3) 0.5482(2) 0.70107(16)
O12_4 O 0.9836(4) 0.6140(2) 0.6813(2)
O13_4 O 0.6243(3) 0.93084(17) 0.69302(14)
O14_4 O 0.7435(3) 0.93020(16) 0.81860(15)
O17_4 O 0.5582(3) 0.81761(15) 0.81742(15)
O18_4 O 0.6048(3) 0.76912(17) 0.68853(14)
O21_4 O 0.8020(3) 0.77220(17) 0.81284(15)
O22_4 O 0.8438(3) 0.84001(18) 0.69220(17)
O23_4 O 0.9852(3) 0.7169(2) 0.81726(19)
C1_4 C 0.6325(4) 0.4637(2) 0.8831(2)
C2_4 C 0.6628(4) 0.3792(2) 0.8729(2)
C3_4 C 0.7100(4) 0.3872(2) 0.6178(2)
C4_4 C 0.5995(4) 0.4430(2) 0.6265(2)
C5_4 C 0.9873(4) 0.5218(3) 0.7785(2)
C6_4 C 0.9228(5) 0.5662(3) 0.7144(2)
C7_4 C 0.6503(4) 0.9969(2) 0.7186(2)
C8_4 C 0.7105(4) 0.9956(2) 0.7946(2)
C9_4 C 0.4858(4) 0.7672(2) 0.7920(2)
C10_4 C 0.5091(4) 0.7396(2) 0.7153(2)
C11_4 C 0.9084(4) 0.7588(3) 0.7881(2)
C12_4 C 0.9327(4) 0.7984(3) 0.7173(2)
O26_4 O 0.2197(4) 0.5249(2) 0.94470(19)
O27_4 O 0.7539(4) 0.5134(2) 0.4799(2)
O30_4 O 0.6512(4) 0.6561(2) 0.8690(2)
O32_4 O 0.3246(3) 0.3832(2) 0.4125(2)
H1_4 H 0.299769 0.329121 0.414627
H2_4 H 0.30157 0.403944 0.363837
H5_4 H 0.213635 0.494823 0.899321
H6_4 H 0.145403 0.557463 0.947582
H7_4 H 0.737536 0.531441 0.529365
H8_4 H 0.744425 0.556214 0.445269
H9_4 H 0.726861 0.645376 0.89963
H10_4 H 0.649375 0.71058 0.855597
loop_
_geom_bond_atom_site_label_1
_geom_bond_atom_site_label_2
_geom_bond_site_symmetry_1
_geom_bond_site_symmetry_2
Ba1 O11 1_555 1_555
O24 Ba1 1_555 1_555
O28 Ba1 1_555 1_555
O29 Ba1 1_555 1_555
O37 Ba1 1_555 1_555
O38 Ba1 1_555 1_555
O40 Ba1 1_555 1_555
O41 Ba1 1_555 1_555
Ba6 O29 1_555 1_555
Ba11 O28 1_555 1_555
O37 Ba6 1_555 1_555
O38 Ba11 1_555 1_555
O40 Ba6 1_555 1_555
O41 Ba11 1_555 1_555
O2 Fe1 1_555 1_555
O3 C1 1_555 1_555
O4 C2 1_555 1_555
O5 Fe1 1_555 1_555
O6 Fe1 1_555 1_555
O7 C3 1_555 1_555
O8 C4 1_555 1_555
O9 Fe1 1_555 1_555
C1 C2 1_555 1_555
C2 O2 1_555 1_555
C3 O5 1_555 1_555
C4 O6 1_555 1_555
Ba8 O3 1_555 1_555
O4 Ba8 1_555 1_555
C3 C4 1_555 1_555
O32 Ba3 1_555 1_555
O39 Ba3 1_555 1_555
O42 Ba3 1_555 1_555
O43 Ba3 1_555 1_555
O32 H1 1_555 1_555
O32 H2 1_555 1_555
Fe2 O13 1_555 1_555
O13 C7 1_555 1_555
O14 Fe2 1_555 1_555
O15 C7 1_555 1_555
O16 C8 1_555 1_555
O17 Fe2 1_555 1_555
O18 Fe2 1_555 1_555
O40 C9 1_555 1_555
O41 C10 1_555 1_555
O21 Fe2 1_555 1_555
O22 Fe2 1_555 1_555
C6 O10 1_555 1_555
C7 C8 1_555 1_555
C8 O14 1_555 1_555
C9 O17 1_555 1_555
C10 O18 1_555 1_555
C11 O21 1_555 1_555
C12 O22 1_555 1_555
O25 Ba6 1_555 1_555
O26 Ba6 1_555 1_555
O30 Ba6 1_555 1_555
O31 Ba6 1_555 1_555
Ba5 O15 1_555 1_555
O33 Ba6 1_555 1_555
O34 Ba6 1_555 1_555
Ba7 O15 1_555 1_555
Ba9 O31 1_555 1_555
Ba12 O16 1_555 1_555
O12 C6 1_555 1_555
O16 Ba5 1_555 1_555
O23 C11 1_555 1_555
C5 C6 1_555 1_555
C9 C10 1_555 1_555
C11 C12 1_555 1_555
O25 H3 1_555 1_555
O25 H4 1_555 1_555
O26 H6 1_555 1_555
O30 H9 1_555 1_555
O30 H10 1_555 1_555
O27 H8 1_555 1_555
Fe1_2 O1_2 1_555 1_555
Fe2_2 O13_2 1_555 1_555
O1_2 C1_2 1_555 1_555
O2_2 Fe1_2 1_555 1_555
O3_2 C1_2 1_555 1_555
O4_2 C2_2 1_555 1_555
O5_2 Fe1_2 1_555 1_555
O6_2 Fe1_2 1_555 1_555
O7_2 C3_2 1_555 1_555
O8_2 C4_2 1_555 1_555
O9_2 Fe1_2 1_555 1_555
O10_2 Fe1_2 1_555 1_555
O13_2 C7_2 1_555 1_555
O14_2 Fe2_2 1_555 1_555
O17_2 Fe2_2 1_555 1_555
O18_2 Fe2_2 1_555 1_555
O19 C9_2 1_555 1_555
O20 C10_2 1_555 1_555
O21_2 Fe2_2 1_555 1_555
O22_2 Fe2_2 1_555 1_555
C1_2 C2_2 1_555 1_555
C2_2 O2_2 1_555 1_555
C3_2 O5_2 1_555 1_555
C4_2 O6_2 1_555 1_555
C5_2 O9_2 1_555 1_555
C6_2 O10_2 1_555 1_555
C7_2 C8_2 1_555 1_555
C8_2 O14_2 1_555 1_555
C9_2 O17_2 1_555 1_555
C10_2 O18_2 1_555 1_555
C11_2 O21_2 1_555 1_555
C12_2 O22_2 1_555 1_555
Ba7 O3_2 1_555 1_555
O26_2 Ba7 1_555 1_555
Ba9 O7_2 1_555 1_555
O27_2 Ba9 1_555 1_555
O30_2 Ba7 1_555 1_555
O45 Ba7 1_555 1_555
O32_2 Ba9 1_555 1_555
Ba5 O19 1_555 1_555
O35_2 Ba9 1_555 1_555
O39_2 Ba9 1_555 1_555
O42_2 Ba9 1_555 1_555
Ba12 O8_2 1_555 1_555
O43_2 Ba9 1_555 1_555
O44 Ba7 1_555 1_555
O8_2 Ba9 1_555 1_555
O12_2 C6_2 1_555 1_555
O19 Ba7 1_555 1_555
O20 Ba5 1_555 1_555
O20 Ba12 1_555 1_555
O23_2 C11_2 1_555 1_555
C3_2 C4_2 1_555 1_555
C5_2 C6_2 1_555 1_555
C9_2 C10_2 1_555 1_555
C11_2 C12_2 1_555 1_555
Ba5 O44 1_555 1_555
O35_2 Ba12 1_555 1_555
O32_2 H1_2 1_555 1_555
O32_2 H2_2 1_555 1_555
O26_2 H5_2 1_555 1_555
O26_2 H6_2 1_555 1_555
O27_2 H7_2 1_555 1_555
O27_2 H8_2 1_555 1_555
O30_2 H9_2 1_555 1_555
O30_2 H10_2 1_555 1_555
O33_2 Ba8_2 1_555 1_555
O25_2 H3_2 1_555 1_555
O25_2 H4_2 1_555 1_555
Ba5 O11_2 1_555 1_555
O24_2 Ba5 1_555 1_555
O28_2 Ba5 1_555 1_555
Ba12 O28_2 1_555 1_555
O27_3 H8_3 1_555 1_555
Fe2_3 O13_3 1_555 1_555
O13_3 C7_3 1_555 1_555
O14_3 Fe2_3 1_555 1_555
O15_2 C7_3 1_555 1_555
O39_2 C8_3 1_555 1_555
O17_3 Fe2_3 1_555 1_555
O18_3 Fe2_3 1_555 1_555
O19_2 C9_3 1_555 1_555
O42 C10_3 1_555 1_555
O21_3 Fe2_3 1_555 1_555
O22_3 Fe2_3 1_555 1_555
C6_3 O10_3 1_555 1_555
C7_3 C8_3 1_555 1_555
C8_3 O14_3 1_555 1_555
C9_3 O17_3 1_555 1_555
C10_3 O18_3 1_555 1_555
C11_3 O21_3 1_555 1_555
C12_3 O22_3 1_555 1_555
O25_3 Ba8 1_555 1_555
O26_3 Ba8 1_555 1_555
O30_3 Ba8 1_555 1_555
O31_2 Ba8 1_555 1_555
Ba4 O19_2 1_555 1_555
Ba5_2 O15_2 1_555 1_555
O36 Ba8 1_555 1_555
Ba8_2 O15_2 1_555 1_555
Ba12 O31_2 1_555 1_555
O44_2 Ba8 1_555 1_555
O12_3 C6_3 1_555 1_555
O39_2 Ba5_2 1_555 1_555
O19_2 Ba8 1_555 1_555
O42 Ba4 1_555 1_555
O23_3 C11_3 1_555 1_555
C5_3 C6_3 1_555 1_555
C9_3 C10_3 1_555 1_555
C11_3 C12_3 1_555 1_555
Ba4 O36 1_555 1_555
Ba4 O44_2 1_555 1_555
O25_3 H3_3 1_555 1_555
O25_3 H4_3 1_555 1_555
O26_3 H6_3 1_555 1_555
O30_3 H9_3 1_555 1_555
O30_3 H10_3 1_555 1_555
O32_3 Ba11 1_555 1_555
O32_3 H1_3 1_555 1_555
O32_3 H2_3 1_555 1_555
O2_3 Fe1_3 1_555 1_555
O33 C1_3 1_555 1_555
O34 C2_3 1_555 1_555
O5_3 Fe1_3 1_555 1_555
O6_3 Fe1_3 1_555 1_555
O7_3 C3_3 1_555 1_555
O35 C4_3 1_555 1_555
O9_3 Fe1_3 1_555 1_555
C1_3 C2_3 1_555 1_555
C2_3 O2_3 1_555 1_555
C3_3 O5_3 1_555 1_555
C4_3 O6_3 1_555 1_555
C3_3 C4_3 1_555 1_555
Ba4 O11_3 1_555 1_555
O24_3 Ba4 1_555 1_555
O43 Ba4 1_555 1_555
O39 Ba4 1_555 1_555
Ba5_2 O11_4 1_555 1_555
O24_4 Ba5_2 1_555 1_555
O43_2 Ba5_2 1_555 1_555
O29_2 Ba5_2 1_555 1_555
O40_2 Ba5_2 1_555 1_555
O42_2 Ba5_2 1_555 1_555
Ba8_2 O29_2 1_555 1_555
O40_2 Ba8_2 1_555 1_555
O25_4 H3_4 1_555 1_555
O25_4 H4_4 1_555 1_555
Fe1_4 O1_4 1_555 1_555
Fe2_4 O13_4 1_555 1_555
O1_4 C1_4 1_555 1_555
O2_4 Fe1_4 1_555 1_555
O33_2 C1_4 1_555 1_555
O34_2 C2_4 1_555 1_555
O5_4 Fe1_4 1_555 1_555
O6_4 Fe1_4 1_555 1_555
O7_4 C3_4 1_555 1_555
O35_2 C4_4 1_555 1_555
O9_4 Fe1_4 1_555 1_555
O10_4 Fe1_4 1_555 1_555
O13_4 C7_4 1_555 1_555
O14_4 Fe2_4 1_555 1_555
O17_4 Fe2_4 1_555 1_555
O18_4 Fe2_4 1_555 1_555
O40_2 C9_4 1_555 1_555
O42_2 C10_4 1_555 1_555
O21_4 Fe2_4 1_555 1_555
O22_4 Fe2_4 1_555 1_555
C1_4 C2_4 1_555 1_555
C2_4 O2_4 1_555 1_555
C3_4 O5_4 1_555 1_555
C4_4 O6_4 1_555 1_555
C5_4 O9_4 1_555 1_555
C6_4 O10_4 1_555 1_555
C7_4 C8_4 1_555 1_555
C8_4 O14_4 1_555 1_555
C9_4 O17_4 1_555 1_555
C10_4 O18_4 1_555 1_555
C11_4 O21_4 1_555 1_555
C12_4 O22_4 1_555 1_555
O26_4 Ba8_2 1_555 1_555
Ba12 O7_4 1_555 1_555
O27_4 Ba12 1_555 1_555
O30_4 Ba8_2 1_555 1_555
O45_2 Ba8_2 1_555 1_555
O32_4 Ba12 1_555 1_555
O12_4 C6_4 1_555 1_555
O23_4 C11_4 1_555 1_555
C3_4 C4_4 1_555 1_555
C5_4 C6_4 1_555 1_555
C9_4 C10_4 1_555 1_555
C11_4 C12_4 1_555 1_555
O32_4 H1_4 1_555 1_555
O32_4 H2_4 1_555 1_555
O26_4 H5_4 1_555 1_555
O26_4 H6_4 1_555 1_555
O27_4 H7_4 1_555 1_555
O27_4 H8_4 1_555 1_555
O30_4 H9_4 1_555 1_555
O30_4 H10_4 1_555 1_555

#END
