
###############################################################################
#
# This file contains modified crystal structure data generated from the
# MOF subset of the Cambridge Structural Database (CSD) v543 
# hosted by the Cambridge Crystallographic Data Centre (CCDC).
#
# This work is licensed under the Creative Commons
# Attribution-NonCommercial-ShareAlike 4.0 International License.
# To view a copy of this license, visit
# http://creativecommons.org/licenses/by-nc-sa/4.0/
# or send a letter to
# Creative Commons, PO Box 1866, Mountain View, CA 94042, USA.
#
# CIF created using the CSD Python API on 29 September 2022
# The structure has been converted into the P1 space group
# The structure has a 3D framework
# The original CSD entry YORQEE is in the monoclinic crystal system
# The framework has been calculated to contain at least 10.0% void space
# The void calculation uses a probe of radius 1.32A, grid spacing 0.4
#
###############################################################################

data_YORQEE
_chemical_formula_moiety         '(C128 H80 Cd2 N32 O30)n'
_symmetry_cell_setting           triclinic
_symmetry_space_group_name_H-M   'P 1'
_symmetry_Int_Tables_number      1
_space_group_name_Hall           'P 1'
loop_
_symmetry_equiv_pos_site_id
_symmetry_equiv_pos_as_xyz
1 x,y,z
_cell_length_a                   28.992(5)
_cell_length_b                   7.9683(12)
_cell_length_c                   19.304(3)
_cell_angle_alpha                90
_cell_angle_beta                 121.127(2)
_cell_angle_gamma                90
_cell_volume                     3817.48
loop_
_atom_site_label
_atom_site_type_symbol
_atom_site_fract_x
_atom_site_fract_y
_atom_site_fract_z
N2 N 0.55140(15) 0.0087(5) 0.6095(2)
C16 C 0.58988(19) 0.0056(6) 0.6852(3)
H10 H 0.602146 0.099659 0.720580
Cd3 Cd 0.52295(2) 0.26792(4) 0.53709(2)
Cd2 Cd 0.52295(2) 0.73208(4) 0.03709(2)
Cd1 Cd 0.47705(2) 0.73208(4) 0.46291(2)
O1 O 0.89969(13) 0.7137(5) 0.9650(2)
O2 O 0.88960(13) 0.8681(4) 0.8638(2)
O3 O 0.53320(16) 0.2756(4) 0.9042(2)
O4 O 0.51171(13) 0.5107(4) 0.9382(2)
N1 N 0.54591(15) 0.8450(5) 0.5805(2)
N3 N 0.60966(15) 0.8485(5) 0.7058(2)
N4 N 0.64585(16) 0.7919(7) 0.7832(3)
C1 C 0.53521(18) 0.4328(6) 0.9085(3)
C2 C 0.56507(19) 0.5284(6) 0.8771(3)
C3 C 0.5556(2) 0.6958(6) 0.8597(3)
H1 H 0.530374 0.752982 0.868664
C4 C 0.5827(2) 0.7827(7) 0.8288(3)
H2 H 0.575382 0.898055 0.815036
C5 C 0.62060(18) 0.6984(7) 0.8184(3)
C6 C 0.6309(2) 0.5318(7) 0.8370(4)
H3 H 0.657007 0.475645 0.829821
C7 C 0.6033(2) 0.4455(7) 0.8662(4)
H4 H 0.610267 0.329605 0.878880
C8 C 0.87004(18) 0.7966(6) 0.9001(3)
C9 C 0.81093(18) 0.8004(6) 0.8687(3)
C10 C 0.77464(19) 0.8457(7) 0.7898(3)
H5 H 0.787430 0.880447 0.755571
C11 C 0.71923(19) 0.8408(7) 0.7595(3)
H6 H 0.694392 0.871478 0.705016
C12 C 0.70095(18) 0.7912(7) 0.8096(3)
C13 C 0.73723(19) 0.7490(7) 0.8898(3)
H7 H 0.724546 0.718405 0.924657
C14 C 0.79176(19) 0.7519(7) 0.9184(3)
H8 H 0.816544 0.720401 0.972841
C15 C 0.58110(18) 0.7558(6) 0.6392(3)
H9 H 0.586247 0.639026 0.635931
Cd4 Cd 0.47705(2) 0.26792(4) 0.96291(2)
Cd5 Cd 0.97705(2) 0.76792(4) 0.96291(2)
O5 O 0.39969(13) 0.7863(5) 0.4650(2)
O6 O 0.38960(13) 0.6319(4) 0.3638(2)
O7 O 0.53320(16) 0.7244(4) 0.4042(2)
O8 O 0.48829(13) 0.5107(4) 0.5618(2)
O9 O 0.51171(13) 0.4893(4) 0.4382(2)
N5 N 0.44860(15) 0.9913(5) 0.3905(2)
N2_2 N 0.44860(15) 0.0087(5) 0.8905(2)
C16_2 C 0.41012(19) 0.0056(6) 0.8148(3)
H10_2 H 0.397854 0.099659 0.779420
O5_2 O 0.60031(13) 0.7863(5) 0.0350(2)
O6_2 O 0.61040(13) 0.6319(4) 0.1362(2)
O7_2 O 0.46680(16) 0.7244(4) 0.0958(2)
O9_2 O 0.48829(13) 0.4893(4) 0.0618(2)
N5_2 N 0.55140(15) 0.9913(5) 0.1095(2)
O1_2 O 0.10031(13) 0.7137(5) 0.5350(2)
O2_2 O 0.11040(13) 0.8681(4) 0.6362(2)
O3_2 O 0.46680(16) 0.2756(4) 0.5958(2)
N1_2 N 0.45409(15) 0.8450(5) 0.9195(2)
N3_2 N 0.39034(15) 0.8485(5) 0.7942(2)
N4_2 N 0.35415(16) 0.7919(7) 0.7168(3)
C1_2 C 0.46479(18) 0.4328(6) 0.5915(3)
C2_2 C 0.43493(19) 0.5284(6) 0.6229(3)
C3_2 C 0.4444(2) 0.6958(6) 0.6403(3)
H1_2 H 0.469626 0.752982 0.631336
C4_2 C 0.4173(2) 0.7827(7) 0.6712(3)
H2_2 H 0.424618 0.898055 0.684964
C5_2 C 0.37940(18) 0.6984(7) 0.6816(3)
C6_2 C 0.3691(2) 0.5318(7) 0.6630(4)
H3_2 H 0.342993 0.475645 0.670179
C7_2 C 0.3967(2) 0.4455(7) 0.6338(4)
H4_2 H 0.389733 0.329605 0.621120
C8_2 C 0.12996(18) 0.7966(6) 0.5999(3)
C9_2 C 0.18907(18) 0.8004(6) 0.6313(3)
C10_2 C 0.22536(19) 0.8457(7) 0.7102(3)
H5_2 H 0.212570 0.880447 0.744429
C11_2 C 0.28077(19) 0.8408(7) 0.7405(3)
H6_2 H 0.305608 0.871478 0.794984
C12_2 C 0.29905(18) 0.7912(7) 0.6904(3)
C13_2 C 0.26277(19) 0.7490(7) 0.6102(3)
H7_2 H 0.275454 0.718405 0.575343
C14_2 C 0.20824(19) 0.7519(7) 0.5816(3)
H8_2 H 0.183456 0.720401 0.527159
C15_2 C 0.41890(18) 0.7558(6) 0.8608(3)
H9_2 H 0.413753 0.639026 0.864069
Cd5_2 Cd 0.02295(2) 0.76792(4) 0.53709(2)
Cd2_2 Cd 0.02295(2) 0.23208(4) 0.03709(2)
O1_3 O 0.39969(13) 0.2137(5) 0.9650(2)
O2_3 O 0.38960(13) 0.3681(4) 0.8638(2)
O4_2 O 0.01171(13) 0.0107(4) 0.9382(2)
N1_3 N 0.04591(15) 0.3450(5) 0.5805(2)
N2_3 N 0.05140(15) 0.5087(5) 0.6095(2)
N3_3 N 0.10966(15) 0.3485(5) 0.7058(2)
N4_3 N 0.14585(16) 0.2919(7) 0.7832(3)
C2_3 C 0.06507(19) 0.0284(6) 0.8771(3)
C3_3 C 0.0556(2) 0.1958(6) 0.8597(3)
H1_3 H 0.030374 0.252982 0.868664
C4_3 C 0.0827(2) 0.2827(7) 0.8288(3)
H2_3 H 0.075382 0.398055 0.815036
C5_3 C 0.12060(18) 0.1984(7) 0.8184(3)
C6_3 C 0.1309(2) 0.0318(7) 0.8370(4)
C8_3 C 0.37004(18) 0.2966(6) 0.9001(3)
C9_3 C 0.31093(18) 0.3004(6) 0.8687(3)
C10_3 C 0.27464(19) 0.3457(7) 0.7898(3)
H5_3 H 0.287430 0.380447 0.755571
C11_3 C 0.21923(19) 0.3408(7) 0.7595(3)
H6_3 H 0.194392 0.371478 0.705016
C12_3 C 0.20095(18) 0.2912(7) 0.8096(3)
C13_3 C 0.23723(19) 0.2490(7) 0.8898(3)
H7_3 H 0.224546 0.218405 0.924657
C14_3 C 0.29176(19) 0.2519(7) 0.9184(3)
H8_3 H 0.316544 0.220401 0.972841
C15_3 C 0.08110(18) 0.2558(6) 0.6392(3)
H9_3 H 0.086247 0.139026 0.635931
C16_3 C 0.08988(19) 0.5056(6) 0.6852(3)
H10_3 H 0.102146 0.599659 0.720580
O7_3 O 0.03320(16) 0.2244(4) 0.4042(2)
O3_3 O 0.03320(16) 0.7756(4) 0.9042(2)
C1_3 C 0.03521(18) 0.9328(6) 0.9085(3)
H3_3 H 0.157007 0.975645 0.829821
C7_3 C 0.1033(2) 0.9455(7) 0.8662(4)
H4_3 H 0.110267 0.829605 0.878880
O9_3 O 0.01171(13) 0.9893(4) 0.4382(2)
Cd1_2 Cd 0.97705(2) 0.23208(4) 0.46291(2)
O5_3 O 0.89969(13) 0.2863(5) 0.4650(2)
O6_3 O 0.88960(13) 0.1319(4) 0.3638(2)
O8_2 O 0.98829(13) 0.0107(4) 0.5618(2)
N5_3 N 0.94860(15) 0.4913(5) 0.3905(2)
O5_4 O 0.10031(13) 0.2863(5) 0.0350(2)
O6_4 O 0.11040(13) 0.1319(4) 0.1362(2)
N5_4 N 0.05140(15) 0.4913(5) 0.1095(2)
O7_4 O 0.96680(16) 0.2244(4) 0.0958(2)
O1_4 O 0.60031(13) 0.2137(5) 0.5350(2)
O2_4 O 0.61040(13) 0.3681(4) 0.6362(2)
N1_4 N 0.95409(15) 0.3450(5) 0.9195(2)
N2_4 N 0.94860(15) 0.5087(5) 0.8905(2)
N3_4 N 0.89034(15) 0.3485(5) 0.7942(2)
N4_4 N 0.85415(16) 0.2919(7) 0.7168(3)
C2_4 C 0.93493(19) 0.0284(6) 0.6229(3)
C3_4 C 0.9444(2) 0.1958(6) 0.6403(3)
H1_4 H 0.969626 0.252982 0.631336
C4_4 C 0.9173(2) 0.2827(7) 0.6712(3)
H2_4 H 0.924618 0.398055 0.684964
C5_4 C 0.87940(18) 0.1984(7) 0.6816(3)
C6_4 C 0.8691(2) 0.0318(7) 0.6630(4)
C8_4 C 0.62996(18) 0.2966(6) 0.5999(3)
C9_4 C 0.68907(18) 0.3004(6) 0.6313(3)
C10_4 C 0.72536(19) 0.3457(7) 0.7102(3)
H5_4 H 0.712570 0.380447 0.744429
C11_4 C 0.78077(19) 0.3408(7) 0.7405(3)
H6_4 H 0.805608 0.371478 0.794984
C12_4 C 0.79905(18) 0.2912(7) 0.6904(3)
C13_4 C 0.76277(19) 0.2490(7) 0.6102(3)
H7_4 H 0.775454 0.218405 0.575343
C14_4 C 0.70824(19) 0.2519(7) 0.5816(3)
H8_4 H 0.683456 0.220401 0.527159
C15_4 C 0.91890(18) 0.2558(6) 0.8608(3)
H9_4 H 0.913753 0.139026 0.864069
C16_4 C 0.91012(19) 0.5056(6) 0.8148(3)
H10_4 H 0.897854 0.599659 0.779420
O9_4 O 0.98829(13) 0.9893(4) 0.0618(2)
O3_4 O 0.96680(16) 0.7756(4) 0.5958(2)
C1_4 C 0.96479(18) 0.9328(6) 0.5915(3)
H3_4 H 0.842993 0.975645 0.670179
C7_4 C 0.8967(2) 0.9455(7) 0.6338(4)
H4_4 H 0.889733 0.829605 0.621120
N1_5 N 0.45409(15) 0.1550(5) 0.4195(2)
N3_5 N 0.39034(15) 0.1515(5) 0.2942(2)
N4_5 N 0.35415(16) 0.2081(7) 0.2168(3)
C1_5 C 0.46479(18) 0.5672(6) 0.0915(3)
C2_5 C 0.43493(19) 0.4716(6) 0.1229(3)
C3_5 C 0.4444(2) 0.3042(6) 0.1403(3)
H1_5 H 0.469626 0.247018 0.131336
C4_5 C 0.4173(2) 0.2173(7) 0.1712(3)
H2_5 H 0.424618 0.101945 0.184964
C5_5 C 0.37940(18) 0.3016(7) 0.1816(3)
C6_5 C 0.3691(2) 0.4682(7) 0.1630(4)
H3_5 H 0.342993 0.524355 0.170179
C7_5 C 0.3967(2) 0.5545(7) 0.1338(4)
H4_5 H 0.389733 0.670395 0.121120
C8_5 C 0.12996(18) 0.2034(6) 0.0999(3)
C9_5 C 0.18907(18) 0.1996(6) 0.1313(3)
C10_5 C 0.22536(19) 0.1543(7) 0.2102(3)
H5_5 H 0.212570 0.119553 0.244429
C11_5 C 0.28077(19) 0.1592(7) 0.2405(3)
H6_5 H 0.305608 0.128522 0.294984
C12_5 C 0.29905(18) 0.2088(7) 0.1904(3)
C13_5 C 0.26277(19) 0.2510(7) 0.1102(3)
H7_5 H 0.275454 0.281595 0.075343
C14_5 C 0.20824(19) 0.2481(7) 0.0816(3)
H8_5 H 0.183456 0.279599 0.027159
C15_5 C 0.41890(18) 0.2442(6) 0.3608(3)
H9_5 H 0.413753 0.360974 0.364069
C16_5 C 0.41012(19) 0.9944(6) 0.3148(3)
H10_5 H 0.397854 0.900341 0.279420
N1_6 N 0.54591(15) 0.1550(5) 0.0805(2)
N3_6 N 0.60966(15) 0.1515(5) 0.2058(2)
N4_6 N 0.64585(16) 0.2081(7) 0.2832(3)
C1_6 C 0.53521(18) 0.5672(6) 0.4085(3)
C2_6 C 0.56507(19) 0.4716(6) 0.3771(3)
C3_6 C 0.5556(2) 0.3042(6) 0.3597(3)
H1_6 H 0.530374 0.247018 0.368664
C4_6 C 0.5827(2) 0.2173(7) 0.3288(3)
H2_6 H 0.575382 0.101945 0.315036
C5_6 C 0.62060(18) 0.3016(7) 0.3184(3)
C6_6 C 0.6309(2) 0.4682(7) 0.3370(4)
H3_6 H 0.657007 0.524355 0.329821
C7_6 C 0.6033(2) 0.5545(7) 0.3662(4)
H4_6 H 0.610267 0.670395 0.378880
C8_6 C 0.87004(18) 0.2034(6) 0.4001(3)
C9_6 C 0.81093(18) 0.1996(6) 0.3687(3)
C10_6 C 0.77464(19) 0.1543(7) 0.2898(3)
H5_6 H 0.787430 0.119553 0.255571
C11_6 C 0.71923(19) 0.1592(7) 0.2595(3)
H6_6 H 0.694392 0.128522 0.205016
C12_6 C 0.70095(18) 0.2088(7) 0.3096(3)
C13_6 C 0.73723(19) 0.2510(7) 0.3898(3)
H7_6 H 0.724546 0.281595 0.424657
C14_6 C 0.79176(19) 0.2481(7) 0.4184(3)
H8_6 H 0.816544 0.279599 0.472841
C15_6 C 0.58110(18) 0.2442(6) 0.1392(3)
H9_6 H 0.586247 0.360974 0.135931
C16_6 C 0.58988(19) 0.9944(6) 0.1852(3)
H10_6 H 0.602146 0.900341 0.220580
C1_7 C 0.96479(18) 0.0672(6) 0.0915(3)
H3_7 H 0.842993 0.024355 0.170179
C7_7 C 0.8967(2) 0.0545(7) 0.1338(4)
H4_7 H 0.889733 0.170395 0.121120
N1_7 N 0.95409(15) 0.6550(5) 0.4195(2)
N3_7 N 0.89034(15) 0.6515(5) 0.2942(2)
N4_7 N 0.85415(16) 0.7081(7) 0.2168(3)
C2_7 C 0.93493(19) 0.9716(6) 0.1229(3)
C3_7 C 0.9444(2) 0.8042(6) 0.1403(3)
H1_7 H 0.969626 0.747018 0.131336
C4_7 C 0.9173(2) 0.7173(7) 0.1712(3)
H2_7 H 0.924618 0.601945 0.184964
C5_7 C 0.87940(18) 0.8016(7) 0.1816(3)
C6_7 C 0.8691(2) 0.9682(7) 0.1630(4)
C8_7 C 0.62996(18) 0.7034(6) 0.0999(3)
C9_7 C 0.68907(18) 0.6996(6) 0.1313(3)
C10_7 C 0.72536(19) 0.6543(7) 0.2102(3)
H5_7 H 0.712570 0.619553 0.244429
C11_7 C 0.78077(19) 0.6592(7) 0.2405(3)
H6_7 H 0.805608 0.628522 0.294984
C12_7 C 0.79905(18) 0.7088(7) 0.1904(3)
C13_7 C 0.76277(19) 0.7510(7) 0.1102(3)
H7_7 H 0.775454 0.781595 0.075343
C14_7 C 0.70824(19) 0.7481(7) 0.0816(3)
H8_7 H 0.683456 0.779599 0.027159
C15_7 C 0.91890(18) 0.7442(6) 0.3608(3)
H9_7 H 0.913753 0.860974 0.364069
C16_7 C 0.91012(19) 0.4944(6) 0.3148(3)
H10_7 H 0.897854 0.400341 0.279420
C1_8 C 0.03521(18) 0.0672(6) 0.4085(3)
H3_8 H 0.157007 0.024355 0.329821
C7_8 C 0.1033(2) 0.0545(7) 0.3662(4)
H4_8 H 0.110267 0.170395 0.378880
N1_8 N 0.04591(15) 0.6550(5) 0.0805(2)
N3_8 N 0.10966(15) 0.6515(5) 0.2058(2)
N4_8 N 0.14585(16) 0.7081(7) 0.2832(3)
C2_8 C 0.06507(19) 0.9716(6) 0.3771(3)
C3_8 C 0.0556(2) 0.8042(6) 0.3597(3)
H1_8 H 0.030374 0.747018 0.368664
C4_8 C 0.0827(2) 0.7173(7) 0.3288(3)
H2_8 H 0.075382 0.601945 0.315036
C5_8 C 0.12060(18) 0.8016(7) 0.3184(3)
C6_8 C 0.1309(2) 0.9682(7) 0.3370(4)
C8_8 C 0.37004(18) 0.7034(6) 0.4001(3)
C9_8 C 0.31093(18) 0.6996(6) 0.3687(3)
C10_8 C 0.27464(19) 0.6543(7) 0.2898(3)
H5_8 H 0.287430 0.619553 0.255571
C11_8 C 0.21923(19) 0.6592(7) 0.2595(3)
H6_8 H 0.194392 0.628522 0.205016
C12_8 C 0.20095(18) 0.7088(7) 0.3096(3)
C13_8 C 0.23723(19) 0.7510(7) 0.3898(3)
H7_8 H 0.224546 0.781595 0.424657
C14_8 C 0.29176(19) 0.7481(7) 0.4184(3)
H8_8 H 0.316544 0.779599 0.472841
C15_8 C 0.08110(18) 0.7442(6) 0.1392(3)
H9_8 H 0.086247 0.860974 0.135931
C16_8 C 0.08988(19) 0.4944(6) 0.1852(3)
H10_8 H 0.102146 0.400341 0.220580
loop_
_geom_bond_atom_site_label_1
_geom_bond_atom_site_label_2
_geom_bond_site_symmetry_1
_geom_bond_site_symmetry_2
N2 C16 1_555 1_555
H10 C16 1_555 1_555
Cd3 N2 1_555 1_555
Cd1 N1 1_555 1_555
O1 C8 1_555 1_555
O2 C8 1_555 1_555
O3 C1 1_555 1_555
O4 C1 1_555 1_555
N3 N4 1_555 1_555
N4 C5 1_555 1_555
C1 C2 1_555 1_555
C2 C3 1_555 1_555
C3 H1 1_555 1_555
C4 C3 1_555 1_555
H2 C4 1_555 1_555
C5 C4 1_555 1_555
C6 C5 1_555 1_555
H3 C6 1_555 1_555
C7 C2 1_555 1_555
H4 C7 1_555 1_555
C8 C9 1_555 1_555
C9 C10 1_555 1_555
C10 H5 1_555 1_555
C11 C10 1_555 1_555
H6 C11 1_555 1_555
C12 N4 1_555 1_555
C13 C12 1_555 1_555
H7 C13 1_555 1_555
C14 C9 1_555 1_555
H8 C14 1_555 1_555
C15 N1 1_555 1_555
H9 C15 1_555 1_555
Cd4 O3 1_555 1_555
Cd5 O1 1_555 1_555
O5 Cd1 1_555 1_555
O6 Cd1 1_555 1_555
O7 Cd1 1_555 1_555
O8 Cd1 1_555 1_555
O9 Cd1 1_555 1_555
N5 Cd1 1_555 1_555
O2 Cd5 1_555 1_555
O4 Cd4 1_555 1_555
N3 C15 1_555 1_555
C6 C7 1_555 1_555
C11 C12 1_555 1_555
C13 C14 1_555 1_555
N2_2 C16_2 1_555 1_555
H10_2 C16_2 1_555 1_555
Cd4 N2_2 1_555 1_555
O5_2 Cd2 1_555 1_555
O6_2 Cd2 1_555 1_555
O7_2 Cd2 1_555 1_555
O9_2 Cd2 1_555 1_555
N5_2 Cd2 1_555 1_555
O1_2 C8_2 1_555 1_555
O2_2 C8_2 1_555 1_555
O3_2 C1_2 1_555 1_555
O8 C1_2 1_555 1_555
N3_2 N4_2 1_555 1_555
N4_2 C5_2 1_555 1_555
C1_2 C2_2 1_555 1_555
C2_2 C3_2 1_555 1_555
C3_2 H1_2 1_555 1_555
C4_2 C3_2 1_555 1_555
H2_2 C4_2 1_555 1_555
C5_2 C4_2 1_555 1_555
C6_2 C5_2 1_555 1_555
H3_2 C6_2 1_555 1_555
C7_2 C2_2 1_555 1_555
H4_2 C7_2 1_555 1_555
C8_2 C9_2 1_555 1_555
C9_2 C10_2 1_555 1_555
C10_2 H5_2 1_555 1_555
C11_2 C10_2 1_555 1_555
H6_2 C11_2 1_555 1_555
C12_2 N4_2 1_555 1_555
C13_2 C12_2 1_555 1_555
H7_2 C13_2 1_555 1_555
C14_2 C9_2 1_555 1_555
H8_2 C14_2 1_555 1_555
C15_2 N1_2 1_555 1_555
H9_2 C15_2 1_555 1_555
Cd3 O3_2 1_555 1_555
Cd5_2 O1_2 1_555 1_555
O2_2 Cd5_2 1_555 1_555
O8 Cd3 1_555 1_555
N3_2 C15_2 1_555 1_555
C6_2 C7_2 1_555 1_555
C11_2 C12_2 1_555 1_555
C13_2 C14_2 1_555 1_555
O1_3 C8_3 1_555 1_555
O2_3 C8_3 1_555 1_555
N1_3 N2_3 1_555 1_555
N2_3 C16_3 1_555 1_555
N3_3 N4_3 1_555 1_555
N4_3 C5_3 1_555 1_555
C2_3 C3_3 1_555 1_555
C3_3 H1_3 1_555 1_555
C4_3 C3_3 1_555 1_555
H2_3 C4_3 1_555 1_555
C5_3 C4_3 1_555 1_555
C6_3 C5_3 1_555 1_555
C8_3 C9_3 1_555 1_555
C9_3 C10_3 1_555 1_555
C10_3 H5_3 1_555 1_555
C11_3 C10_3 1_555 1_555
H6_3 C11_3 1_555 1_555
C12_3 N4_3 1_555 1_555
C13_3 C12_3 1_555 1_555
H7_3 C13_3 1_555 1_555
C14_3 C9_3 1_555 1_555
H8_3 C14_3 1_555 1_555
C15_3 N1_3 1_555 1_555
H9_3 C15_3 1_555 1_555
C16_3 N3_3 1_555 1_555
H10_3 C16_3 1_555 1_555
Cd5_2 N2_3 1_555 1_555
Cd4 O1_3 1_555 1_555
O2_3 Cd4 1_555 1_555
N3_3 C15_3 1_555 1_555
C11_3 C12_3 1_555 1_555
C13_3 C14_3 1_555 1_555
O3_3 C1_3 1_555 1_555
H4_3 C7_3 1_555 1_555
O5_3 Cd1_2 1_555 1_555
O6_3 Cd1_2 1_555 1_555
O8_2 Cd1_2 1_555 1_555
N5_3 Cd1_2 1_555 1_555
O5_4 Cd2_2 1_555 1_555
O6_4 Cd2_2 1_555 1_555
N5_4 Cd2_2 1_555 1_555
O1_4 C8_4 1_555 1_555
O2_4 C8_4 1_555 1_555
N1_4 N2_4 1_555 1_555
N2_4 C16_4 1_555 1_555
N3_4 N4_4 1_555 1_555
N4_4 C5_4 1_555 1_555
C2_4 C3_4 1_555 1_555
C3_4 H1_4 1_555 1_555
C4_4 C3_4 1_555 1_555
H2_4 C4_4 1_555 1_555
C5_4 C4_4 1_555 1_555
C6_4 C5_4 1_555 1_555
C8_4 C9_4 1_555 1_555
C9_4 C10_4 1_555 1_555
C10_4 H5_4 1_555 1_555
C11_4 C10_4 1_555 1_555
H6_4 C11_4 1_555 1_555
C12_4 N4_4 1_555 1_555
C13_4 C12_4 1_555 1_555
H7_4 C13_4 1_555 1_555
C14_4 C9_4 1_555 1_555
H8_4 C14_4 1_555 1_555
C15_4 N1_4 1_555 1_555
H9_4 C15_4 1_555 1_555
C16_4 N3_4 1_555 1_555
H10_4 C16_4 1_555 1_555
Cd5 N2_4 1_555 1_555
Cd3 O1_4 1_555 1_555
O2_4 Cd3 1_555 1_555
N3_4 C15_4 1_555 1_555
C11_4 C12_4 1_555 1_555
C13_4 C14_4 1_555 1_555
O3_4 C1_4 1_555 1_555
H4_4 C7_4 1_555 1_555
Cd3 N1_5 1_555 1_555
O5_4 C8_5 1_555 1_555
O6_4 C8_5 1_555 1_555
O7_2 C1_5 1_555 1_555
O9_2 C1_5 1_555 1_555
N3_5 N4_5 1_555 1_555
N4_5 C5_5 1_555 1_555
C1_5 C2_5 1_555 1_555
C2_5 C3_5 1_555 1_555
C3_5 H1_5 1_555 1_555
C4_5 C3_5 1_555 1_555
H2_5 C4_5 1_555 1_555
C5_5 C4_5 1_555 1_555
C6_5 C5_5 1_555 1_555
H3_5 C6_5 1_555 1_555
C7_5 C2_5 1_555 1_555
H4_5 C7_5 1_555 1_555
C8_5 C9_5 1_555 1_555
C9_5 C10_5 1_555 1_555
C10_5 H5_5 1_555 1_555
C11_5 C10_5 1_555 1_555
H6_5 C11_5 1_555 1_555
C12_5 N4_5 1_555 1_555
C13_5 C12_5 1_555 1_555
H7_5 C13_5 1_555 1_555
C14_5 C9_5 1_555 1_555
H8_5 C14_5 1_555 1_555
C15_5 N1_5 1_555 1_555
H9_5 C15_5 1_555 1_555
O9 Cd3 1_555 1_555
N3_5 C15_5 1_555 1_555
C6_5 C7_5 1_555 1_555
C11_5 C12_5 1_555 1_555
C13_5 C14_5 1_555 1_555
N5 C16_5 1_555 1_555
H10_5 C16_5 1_555 1_555
O5_3 C8_6 1_555 1_555
O6_3 C8_6 1_555 1_555
O7 C1_6 1_555 1_555
O9 C1_6 1_555 1_555
N3_6 N4_6 1_555 1_555
N4_6 C5_6 1_555 1_555
C1_6 C2_6 1_555 1_555
C2_6 C3_6 1_555 1_555
C3_6 H1_6 1_555 1_555
C4_6 C3_6 1_555 1_555
H2_6 C4_6 1_555 1_555
C5_6 C4_6 1_555 1_555
C6_6 C5_6 1_555 1_555
H3_6 C6_6 1_555 1_555
C7_6 C2_6 1_555 1_555
H4_6 C7_6 1_555 1_555
C8_6 C9_6 1_555 1_555
C9_6 C10_6 1_555 1_555
C10_6 H5_6 1_555 1_555
C11_6 C10_6 1_555 1_555
H6_6 C11_6 1_555 1_555
C12_6 N4_6 1_555 1_555
C13_6 C12_6 1_555 1_555
H7_6 C13_6 1_555 1_555
C14_6 C9_6 1_555 1_555
H8_6 C14_6 1_555 1_555
C15_6 N1_6 1_555 1_555
H9_6 C15_6 1_555 1_555
N3_6 C15_6 1_555 1_555
C6_6 C7_6 1_555 1_555
C11_6 C12_6 1_555 1_555
C13_6 C14_6 1_555 1_555
N5_2 C16_6 1_555 1_555
H10_6 C16_6 1_555 1_555
O9_3 Cd5_2 1_555 1_555
O7_4 C1_7 1_555 1_555
H4_7 C7_7 1_555 1_555
O5_2 C8_7 1_555 1_555
O6_2 C8_7 1_555 1_555
N1_7 N5_3 1_555 1_555
N5_3 C16_7 1_555 1_555
N3_7 N4_7 1_555 1_555
N4_7 C5_7 1_555 1_555
C2_7 C3_7 1_555 1_555
C3_7 H1_7 1_555 1_555
C4_7 C3_7 1_555 1_555
H2_7 C4_7 1_555 1_555
C5_7 C4_7 1_555 1_555
C6_7 C5_7 1_555 1_555
C8_7 C9_7 1_555 1_555
C9_7 C10_7 1_555 1_555
C10_7 H5_7 1_555 1_555
C11_7 C10_7 1_555 1_555
H6_7 C11_7 1_555 1_555
C12_7 N4_7 1_555 1_555
C13_7 C12_7 1_555 1_555
H7_7 C13_7 1_555 1_555
C14_7 C9_7 1_555 1_555
H8_7 C14_7 1_555 1_555
C15_7 N1_7 1_555 1_555
H9_7 C15_7 1_555 1_555
C16_7 N3_7 1_555 1_555
H10_7 C16_7 1_555 1_555
N3_7 C15_7 1_555 1_555
C11_7 C12_7 1_555 1_555
C13_7 C14_7 1_555 1_555
O7_3 C1_8 1_555 1_555
H4_8 C7_8 1_555 1_555
O5 C8_8 1_555 1_555
O6 C8_8 1_555 1_555
N1_8 N5_4 1_555 1_555
N5_4 C16_8 1_555 1_555
N3_8 N4_8 1_555 1_555
N4_8 C5_8 1_555 1_555
C2_8 C3_8 1_555 1_555
C3_8 H1_8 1_555 1_555
C4_8 C3_8 1_555 1_555
H2_8 C4_8 1_555 1_555
C5_8 C4_8 1_555 1_555
C6_8 C5_8 1_555 1_555
C8_8 C9_8 1_555 1_555
C9_8 C10_8 1_555 1_555
C10_8 H5_8 1_555 1_555
C11_8 C10_8 1_555 1_555
H6_8 C11_8 1_555 1_555
C12_8 N4_8 1_555 1_555
C13_8 C12_8 1_555 1_555
H7_8 C13_8 1_555 1_555
C14_8 C9_8 1_555 1_555
H8_8 C14_8 1_555 1_555
C15_8 N1_8 1_555 1_555
H9_8 C15_8 1_555 1_555
C16_8 N3_8 1_555 1_555
H10_8 C16_8 1_555 1_555
N3_8 C15_8 1_555 1_555
C11_8 C12_8 1_555 1_555
C13_8 C14_8 1_555 1_555

#END
