
###############################################################################
#
# This file contains modified crystal structure data generated from the
# MOF subset of the Cambridge Structural Database (CSD) v543 
# hosted by the Cambridge Crystallographic Data Centre (CCDC).
#
# This work is licensed under the Creative Commons
# Attribution-NonCommercial-ShareAlike 4.0 International License.
# To view a copy of this license, visit
# http://creativecommons.org/licenses/by-nc-sa/4.0/
# or send a letter to
# Creative Commons, PO Box 1866, Mountain View, CA 94042, USA.
#
# CIF created using the CSD Python API on 29 September 2022
# The structure has been converted into the P1 space group
# The structure has a 3D framework
# The original CSD entry YOSDUG is in the monoclinic crystal system
# The framework has been calculated to contain at least 10.0% void space
# The void calculation uses a probe of radius 1.32A, grid spacing 0.4
# H atom positions have been added when not included in the experimental data
#
###############################################################################

data_YOSDUG
_chemical_formula_moiety         '(C120 H138 Cl4 N16 O25 Zn12)n'
_symmetry_cell_setting           triclinic
_symmetry_space_group_name_H-M   'P 1'
_symmetry_Int_Tables_number      1
_space_group_name_Hall           'P 1'
loop_
_symmetry_equiv_pos_site_id
_symmetry_equiv_pos_as_xyz
1 x,y,z
_cell_length_a                   11.2589(16)
_cell_length_b                   12.957(2)
_cell_length_c                   24.206(4)
_cell_angle_alpha                90
_cell_angle_beta                 102.403(3)
_cell_angle_gamma                90
_cell_volume                     3448.79
loop_
_atom_site_label
_atom_site_type_symbol
_atom_site_fract_x
_atom_site_fract_y
_atom_site_fract_z
O3 O 0.1048(2) 0.3723(2) 0.04394(11)
H34 H 0.0593 0.3260 0.0533
O4 O 0.0491(2) 0.47724(18) 0.14275(10)
Zn3 Zn 0.0000 0.5000 0.0000
O24 O 0.1485(2) 0.5890(2) 0.04562(11)
Zn8 Zn 0.21097(3) 0.46578(3) 0.123355(16)
Zn3_2 Zn -0.0000 0.5000 1.0000
O18 O 0.0882(2) 0.48322(19) 0.93625(10)
C31 C 0.2523(3) 0.6174(3) 0.22489(14)
C32 C 0.1503(3) 0.6934(3) 0.21500(14)
C33 C 0.1085(3) 0.7322(3) 0.26120(14)
H35 H 0.1448 0.7104 0.2975
C34 C 0.0133(3) 0.8029(3) 0.25375(15)
C36 C 0.0015(3) 0.7994(3) 0.15423(16)
C37 C 0.0968(3) 0.7272(3) 0.16161(15)
H38 H 0.1237 0.7022 0.1304
Cl2 Cl 0.29659(8) 0.32242(6) 0.17234(4)
O8 O 0.2967(2) 0.59591(17) 0.27463(9)
O11 O 0.2848(2) 0.57724(19) 0.18374(10)
O21 O 0.3274(3) 0.51547(19) 0.07514(10)
Zn6 Zn 0.39787(4) 0.47954(3) 0.313160(17)
H71 H 0.0537118 0.421011 0.0172862
Zn9 Zn 0.21097(3) 0.03422(3) 0.623355(16)
Zn11 Zn 0.0000 0.0000 0.5000
H2 H 0.0140 0.3277 0.2151
C5 C 0.0397(3) 0.3356(3) 0.29929(18)
H3 H 0.0340 0.3229 0.3818
C8 C 0.1418(3) 0.4133(3) 0.30760(15)
H5 H 0.1236 0.4642 0.2776
H6 H 0.1454 0.4490 0.3431
C9 C 0.3029(3) 0.2925(3) 0.35334(15)
H7 H 0.2552 0.2298 0.3450
H8 H 0.2896 0.3200 0.3888
C10 C 0.4381(3) 0.2669(3) 0.35945(16)
H9 H 0.4655 0.2237 0.3924
H10 H 0.4498 0.2292 0.3264
C11 C 0.6191(3) 0.3527(3) 0.34176(15)
H11 H 0.6564 0.2862 0.3525
H12 H 0.6772 0.4058 0.3576
C12 C 0.5905(3) 0.3614(3) 0.27968(16)
H13 H 0.5447 0.3012 0.2635
H14 H 0.6655 0.3632 0.2661
C13 C 0.5887(3) 0.5521(3) 0.25720(17)
H15 H 0.6322 0.5712 0.2949
H16 H 0.5330 0.6077 0.2427
C14 C 0.6804(3) 0.5390(3) 0.21872(15)
C15 C 0.6455(3) 0.5149(3) 0.16145(15)
H17 H 0.5634 0.5059 0.1454
C16 C 0.7282(3) 0.5041(3) 0.12836(14)
H18 H 0.7022 0.4879 0.0903
C17 C 0.9442(3) 0.5022(3) 0.11644(15)
C18 C 0.8498(3) 0.5172(2) 0.15097(15)
C19 C 0.8859(3) 0.5441(3) 0.20719(15)
H19 H 0.9681 0.5546 0.2225
C20 C 0.8043(3) 0.5557(3) 0.24094(15)
H20 H 0.8308 0.5748 0.2786
C21 C 0.5335(3) 0.4007(3) 0.42324(14)
H21 H 0.6077 0.3697 0.4446
H22 H 0.4672 0.3804 0.4408
C22 C 0.5462(4) 0.5201(3) 0.42504(16)
H23 H 0.5531 0.5445 0.4635
H24 H 0.6191 0.5403 0.4125
C23 C 0.4538(3) 0.6790(3) 0.38364(15)
H25 H 0.4100 0.7006 0.3464
H26 H 0.5391 0.6951 0.3865
C24 C 0.4079(3) 0.7401(3) 0.42753(14)
C25 C 0.2877(3) 0.7291(3) 0.43153(17)
H27 H 0.2376 0.6827 0.4081
C26 C 0.2423(3) 0.7861(3) 0.46979(16)
H28 H 0.1617 0.7772 0.4723
C27 C 0.3128(3) 0.8556(3) 0.50437(15)
C28 C 0.2581(3) 0.9210(3) 0.54372(14)
C29 C 0.4341(3) 0.8668(3) 0.50130(15)
H29 H 0.4840 0.9130 0.5250
C30 C 0.4804(3) 0.8084(2) 0.46242(15)
H30 H 0.5614 0.8159 0.4602
N1 N 0.5100(2) 0.3635(2) 0.36540(12)
N2 N 0.2619(2) 0.3682(2) 0.30801(12)
H31 H 0.3045 0.3847 0.2838
N3 N 0.5183(3) 0.4563(2) 0.26065(13)
H32 H 0.4401 0.4557 0.2521
N4 N 0.4407(3) 0.5654(2) 0.38860(12)
H33 H 0.3780 0.5309 0.3718
O5 O 0.9118(2) 0.51678(19) 0.06375(10)
O6 O 0.3274(3) 0.98453(19) 0.57514(10)
O7 O 0.1485(2) 0.9110(2) 0.54562(11)
Zn3_3 Zn 1.0000 0.5000 0.0000
C43 C 0.4113(3) 0.0521(3) 0.24280(17)
H49 H 0.3678 0.0712 0.2051
H50 H 0.4670 0.1077 0.2573
C44 C 0.3196(3) 0.0390(3) 0.28128(15)
C45 C 0.3545(3) 0.0149(3) 0.33855(15)
H51 H 0.4366 0.0059 0.3546
C46 C 0.2718(3) 0.0041(3) 0.37164(14)
C47 C 0.0558(3) 0.0022(3) 0.38356(15)
C48 C 0.1502(3) 0.0172(2) 0.34903(15)
C49 C 0.1141(3) 0.0441(3) 0.29281(15)
H53 H 0.0319 0.0546 0.2775
C50 C 0.1957(3) 0.0557(3) 0.25906(15)
H54 H 0.1692 0.0748 0.2214
C52 C 0.4538(4) 0.0201(3) 0.07496(16)
H57 H 0.4469 0.0445 0.0365
H58 H 0.3809 0.0403 0.0875
C53 C 0.5462(3) 0.1790(3) 0.11636(15)
H59 H 0.5900 0.2006 0.1536
H60 H 0.4609 0.1951 0.1135
C54 C 0.5921(3) 0.2401(3) 0.07247(14)
C55 C 0.7123(3) 0.2291(3) 0.06847(17)
H61 H 0.7624 0.1827 0.0919
C56 C 0.7577(3) 0.2861(3) 0.03021(16)
H62 H 0.8383 0.2772 0.0277
C60 C 0.5196(3) 0.3084(2) 0.03758(15)
H64 H 0.4386 0.3159 0.0398
N8 N 0.5593(3) 0.0654(2) 0.11140(12)
H67 H 0.6220 0.0309 0.1282
O10 O 0.7033(2) 0.09591(17) 0.22537(9)
O17 O 0.0882(2) 0.01678(19) 0.43625(10)
Zn11_2 Zn 0.0000 1.0000 0.5000
Zn3_4 Zn 1.0000 0.5000 1.0000
C57 C 0.6872(3) 0.3556(3) 0.99563(15)
C58 C 0.7419(3) 0.4210(3) 0.95628(14)
C59 C 0.5659(3) 0.3668(3) 0.99870(15)
H63 H 0.5160 0.4130 0.9750
O12 O 0.8952(2) 0.6277(2) 0.95606(11)
H68 H 0.9407 0.6740 0.9467
O19 O 0.6726(3) 0.48453(19) 0.92486(10)
O22 O 0.8515(2) 0.4110(2) 0.95438(11)
Zn10 Zn 0.78903(3) 0.53422(3) 0.876645(16)
H36 H 0.9860 0.8277 0.2849
C35 C 0.9603(3) 0.8356(3) 0.20071(18)
H37 H 0.9660 0.8229 0.1182
C38 C 0.8582(3) 0.9133(3) 0.19240(15)
H39 H 0.8764 0.9642 0.2224
H40 H 0.8546 0.9490 0.1569
C39 C 0.6971(3) 0.7925(3) 0.14666(15)
H41 H 0.7448 0.7298 0.1550
H42 H 0.7104 0.8200 0.1112
C40 C 0.5619(3) 0.7669(3) 0.14055(16)
H43 H 0.5345 0.7237 0.1076
H44 H 0.5502 0.7292 0.1736
C41 C 0.3809(3) 0.8527(3) 0.15824(15)
H45 H 0.3436 0.7862 0.1475
H46 H 0.3228 0.9058 0.1424
C42 C 0.4095(3) 0.8614(3) 0.22032(16)
H47 H 0.4553 0.8012 0.2365
H48 H 0.3345 0.8632 0.2339
H52 H 0.2978 0.9879 0.4097
C51 C 0.4665(3) 0.9007(3) 0.07676(14)
H55 H 0.3923 0.8697 0.0554
H56 H 0.5328 0.8804 0.0592
N5 N 0.4900(2) 0.8635(2) 0.13460(12)
N6 N 0.7381(2) 0.8682(2) 0.19199(12)
H65 H 0.6955 0.8847 0.2162
N7 N 0.4817(3) 0.9563(2) 0.23935(13)
H66 H 0.5599 0.9557 0.2479
Zn4 Zn 0.60213(4) 0.97954(3) 0.186840(17)
Zn11_3 Zn 1.0000 0.0000 0.5000
C1 C 0.7477(3) 0.1174(3) 0.27511(14)
C2 C 0.8497(3) 0.1934(3) 0.28500(14)
C3 C 0.8915(3) 0.2322(3) 0.23880(14)
H1 H 0.8552 0.2104 0.2025
C4 C 0.9867(3) 0.3029(3) 0.24625(15)
C6 C 0.9985(3) 0.2994(3) 0.34577(16)
C7 C 0.9032(3) 0.2272(3) 0.33839(15)
H4 H 0.8763 0.2022 0.3696
O2 O 0.7152(2) 0.07724(19) 0.31626(10)
O20 O 0.6726(3) 0.01547(19) 0.42486(10)
O23 O 0.8515(2) 0.0890(2) 0.45438(11)
Zn11_4 Zn 1.0000 1.0000 0.5000
Cl1 Cl 0.70341(8) 0.82242(6) 0.32766(4)
Zn2 Zn 0.78903(3) 0.96578(3) 0.376645(16)
O13 O 0.8952(2) 0.8723(2) 0.45606(11)
H69 H 0.9407 0.8260 0.4467
O15 O 0.9509(2) 0.97724(18) 0.35725(10)
O12_2 O 0.1048(2) 0.1277(2) 0.54394(11)
H68_2 H 0.0593 0.1740 0.5533
O18_2 O 0.9118(2) 0.98322(19) 0.56375(10)
H71_2 H 0.946288 0.921011 0.482714
Cl1_2 Cl 0.29659(8) 0.17758(6) 0.67234(4)
O15_2 O 0.0491(2) 0.02276(18) 0.64275(10)
Zn5 Zn 0.39787(4) 0.02046(3) 0.813160(17)
C1_2 C 0.2523(3) 0.8826(3) 0.72489(14)
C2_2 C 0.1503(3) 0.8066(3) 0.71500(14)
C3_2 C 0.1085(3) 0.7678(3) 0.76120(14)
H1_2 H 0.1448 0.7896 0.7975
C4_2 C 0.0133(3) 0.6971(3) 0.75375(15)
C6_2 C 0.0015(3) 0.7006(3) 0.65423(16)
C7_2 C 0.0968(3) 0.7728(3) 0.66161(15)
H4_2 H 0.1237 0.7978 0.6304
O1 O 0.2967(2) 0.90409(17) 0.77463(9)
O2_2 O 0.2848(2) 0.92276(19) 0.68374(10)
H36_2 H 0.0140 0.1723 0.7151
C35_2 C 0.0397(3) 0.1644(3) 0.79929(18)
H37_2 H 0.0340 0.1771 0.8818
C38_2 C 0.1418(3) 0.0867(3) 0.80760(15)
H39_2 H 0.1236 0.0358 0.7776
H40_2 H 0.1454 0.0510 0.8431
C39_2 C 0.3029(3) 0.2075(3) 0.85334(15)
H41_2 H 0.2552 0.2702 0.8450
H42_2 H 0.2896 0.1800 0.8888
C40_2 C 0.4381(3) 0.2331(3) 0.85945(16)
H43_2 H 0.4655 0.2763 0.8924
H44_2 H 0.4498 0.2708 0.8264
C41_2 C 0.6191(3) 0.1473(3) 0.84176(15)
H45_2 H 0.6564 0.2138 0.8525
H46_2 H 0.6772 0.0942 0.8576
C42_2 C 0.5905(3) 0.1386(3) 0.77968(16)
H47_2 H 0.5447 0.1988 0.7635
H48_2 H 0.6655 0.1368 0.7661
H52_2 H 0.7022 0.0121 0.5903
C51_2 C 0.5335(3) 0.0993(3) 0.92324(14)
H55_2 H 0.6077 0.1303 0.9446
H56_2 H 0.4672 0.1196 0.9408
N5_2 N 0.5100(2) 0.1365(2) 0.86540(12)
N6_2 N 0.2619(2) 0.1318(2) 0.80801(12)
H65_2 H 0.3045 0.1153 0.7838
N7_2 N 0.5183(3) 0.0437(2) 0.76065(13)
H66_2 H 0.4401 0.0443 0.7521
C57_2 C 0.3128(3) 0.6444(3) 0.00437(15)
C58_2 C 0.2581(3) 0.5790(3) 0.04372(14)
C59_2 C 0.4341(3) 0.6332(3) 0.00130(15)
H63_2 H 0.4840 0.5870 0.0250
H2_2 H 0.9860 0.6723 0.7849
C5_2 C 0.9603(3) 0.6644(3) 0.70071(18)
H3_2 H 0.9660 0.6771 0.6182
C8_2 C 0.8582(3) 0.5867(3) 0.69240(15)
H5_2 H 0.8764 0.5358 0.7224
H6_2 H 0.8546 0.5510 0.6569
C9_2 C 0.6971(3) 0.7075(3) 0.64666(15)
H7_2 H 0.7448 0.7702 0.6550
H8_2 H 0.7104 0.6800 0.6112
C10_2 C 0.5619(3) 0.7331(3) 0.64055(16)
H9_2 H 0.5345 0.7763 0.6076
H10_2 H 0.5502 0.7708 0.6736
C11_2 C 0.3809(3) 0.6473(3) 0.65824(15)
H11_2 H 0.3436 0.7138 0.6475
H12_2 H 0.3228 0.5942 0.6424
C12_2 C 0.4095(3) 0.6386(3) 0.72032(16)
H13_2 H 0.4553 0.6988 0.7365
H14_2 H 0.3345 0.6368 0.7339
C13_2 C 0.4113(3) 0.4479(3) 0.74280(17)
H15_2 H 0.3678 0.4288 0.7051
H16_2 H 0.4670 0.3923 0.7573
C14_2 C 0.3196(3) 0.4610(3) 0.78128(15)
C15_2 C 0.3545(3) 0.4851(3) 0.83855(15)
H17_2 H 0.4366 0.4941 0.8546
C16_2 C 0.2718(3) 0.4959(3) 0.87164(14)
H18_2 H 0.2978 0.5121 0.9097
C17_2 C 0.0558(3) 0.4978(3) 0.88356(15)
C18_2 C 0.1502(3) 0.4828(2) 0.84903(15)
C19_2 C 0.1141(3) 0.4559(3) 0.79281(15)
H19_2 H 0.0319 0.4454 0.7775
C20_2 C 0.1957(3) 0.4443(3) 0.75906(15)
H20_2 H 0.1692 0.4252 0.7214
C21_2 C 0.4665(3) 0.5993(3) 0.57676(14)
H21_2 H 0.3923 0.6303 0.5554
H22_2 H 0.5328 0.6196 0.5592
C22_2 C 0.4538(4) 0.4799(3) 0.57496(16)
H23_2 H 0.4469 0.4555 0.5365
H24_2 H 0.3809 0.4597 0.5875
C23_2 C 0.5462(3) 0.3210(3) 0.61636(15)
H25_2 H 0.5900 0.2994 0.6536
H26_2 H 0.4609 0.3049 0.6135
C24_2 C 0.5921(3) 0.2599(3) 0.57247(14)
C25_2 C 0.7123(3) 0.2709(3) 0.56847(17)
H27_2 H 0.7624 0.3173 0.5919
C26_2 C 0.7577(3) 0.2139(3) 0.53021(16)
H28_2 H 0.8383 0.2228 0.5277
C27_2 C 0.6872(3) 0.1444(3) 0.49563(15)
C28_2 C 0.7419(3) 0.0790(3) 0.45628(14)
C29_2 C 0.5659(3) 0.1332(3) 0.49870(15)
H29_2 H 0.5160 0.0870 0.4750
C30_2 C 0.5196(3) 0.1916(2) 0.53758(15)
H30_2 H 0.4386 0.1841 0.5398
N1_2 N 0.4900(2) 0.6365(2) 0.63460(12)
N2_2 N 0.7381(2) 0.6318(2) 0.69199(12)
H31_2 H 0.6955 0.6153 0.7162
N3_2 N 0.4817(3) 0.5437(2) 0.73935(13)
H32_2 H 0.5599 0.5443 0.7479
N4_2 N 0.5593(3) 0.4346(2) 0.61140(12)
H33_2 H 0.6220 0.4691 0.6282
Zn1 Zn 0.60213(4) 0.52046(3) 0.686840(17)
C43_2 C 0.5887(3) 0.9479(3) 0.75720(17)
H49_2 H 0.6322 0.9288 0.7949
H50_2 H 0.5330 0.8923 0.7427
C44_2 C 0.6804(3) 0.9610(3) 0.71872(15)
C45_2 C 0.6455(3) 0.9851(3) 0.66145(15)
H51_2 H 0.5634 0.9941 0.6454
C46_2 C 0.7282(3) 0.9959(3) 0.62836(14)
C47_2 C 0.9442(3) 0.9978(3) 0.61644(15)
C48_2 C 0.8498(3) 0.9828(2) 0.65097(15)
C49_2 C 0.8859(3) 0.9559(3) 0.70719(15)
H53_2 H 0.9681 0.9454 0.7225
C50_2 C 0.8043(3) 0.9443(3) 0.74094(15)
H54_2 H 0.8308 0.9252 0.7786
C52_2 C 0.5462(4) 0.9799(3) 0.92504(16)
H57_2 H 0.5531 0.9555 0.9635
H58_2 H 0.6191 0.9597 0.9125
C53_2 C 0.4538(3) 0.8210(3) 0.88364(15)
H59_2 H 0.4100 0.7994 0.8464
H60_2 H 0.5391 0.8049 0.8865
C54_2 C 0.4079(3) 0.7599(3) 0.92753(14)
C55_2 C 0.2877(3) 0.7709(3) 0.93153(17)
H61_2 H 0.2376 0.8173 0.9081
C56_2 C 0.2423(3) 0.7139(3) 0.96979(16)
H62_2 H 0.1617 0.7228 0.9723
C60_2 C 0.4804(3) 0.6916(2) 0.96242(15)
H64_2 H 0.5614 0.6841 0.9602
N8_2 N 0.4407(3) 0.9346(2) 0.88860(12)
H67_2 H 0.3780 0.9691 0.8718
O9 O 0.7033(2) 0.40409(17) 0.72537(9)
C31_2 C 0.7477(3) 0.3826(3) 0.77511(14)
C32_2 C 0.8497(3) 0.3066(3) 0.78500(14)
C33_2 C 0.8915(3) 0.2678(3) 0.73880(14)
H35_2 H 0.8552 0.2896 0.7025
C34_2 C 0.9867(3) 0.1971(3) 0.74625(15)
C36_2 C 0.9985(3) 0.2006(3) 0.84577(16)
C37_2 C 0.9032(3) 0.2728(3) 0.83839(15)
H38_2 H 0.8763 0.2978 0.8696
Cl2_2 Cl 0.70341(8) 0.67758(6) 0.82766(4)
O11_2 O 0.7152(2) 0.42276(19) 0.81626(10)
O16 O 0.9509(2) 0.52276(18) 0.85725(10)
H71_3 H 0.946288 0.578989 0.982714
H71_4 H 0.0537118 0.0789886 0.517286
loop_
_geom_bond_atom_site_label_1
_geom_bond_atom_site_label_2
_geom_bond_site_symmetry_1
_geom_bond_site_symmetry_2
O3 H34 1_555 1_555
Zn3 O3 1_555 1_555
O24 Zn3 1_555 1_555
Zn8 O3 1_555 1_555
O4 Zn8 1_555 1_555
O24 Zn8 1_555 1_555
O18 Zn3_2 1_555 1_555
C31 C32 1_555 1_555
C32 C33 1_555 1_555
C33 H35 1_555 1_555
C34 C33 1_555 1_555
C37 C32 1_555 1_555
H38 C37 1_555 1_555
Cl2 Zn8 1_555 1_555
O8 C31 1_555 1_555
O11 C31 1_555 1_555
O21 Zn8 1_555 1_555
Zn6 O8 1_555 1_555
Zn8 O11 1_555 1_555
C36 C37 1_555 1_555
O3 H71 1_555 1_555
C8 C5 1_555 1_555
H5 C8 1_555 1_555
H6 C8 1_555 1_555
C9 H7 1_555 1_555
H8 C9 1_555 1_555
C10 C9 1_555 1_555
H9 C10 1_555 1_555
H10 C10 1_555 1_555
C11 H11 1_555 1_555
H12 C11 1_555 1_555
C12 C11 1_555 1_555
H13 C12 1_555 1_555
H14 C12 1_555 1_555
C13 H15 1_555 1_555
H16 C13 1_555 1_555
C14 C13 1_555 1_555
C15 C14 1_555 1_555
H17 C15 1_555 1_555
C16 C15 1_555 1_555
H18 C16 1_555 1_555
C17 C18 1_555 1_555
C18 C16 1_555 1_555
C19 C18 1_555 1_555
H19 C19 1_555 1_555
C20 C14 1_555 1_555
H20 C20 1_555 1_555
C21 H21 1_555 1_555
H22 C21 1_555 1_555
C22 C21 1_555 1_555
H23 C22 1_555 1_555
H24 C22 1_555 1_555
C23 H25 1_555 1_555
H26 C23 1_555 1_555
C24 C23 1_555 1_555
C25 C24 1_555 1_555
H27 C25 1_555 1_555
C26 C25 1_555 1_555
H28 C26 1_555 1_555
C27 C26 1_555 1_555
C28 C27 1_555 1_555
C29 C27 1_555 1_555
H29 C29 1_555 1_555
C30 C24 1_555 1_555
H30 C30 1_555 1_555
N1 C10 1_555 1_555
N2 C8 1_555 1_555
H31 N2 1_555 1_555
N3 C12 1_555 1_555
H32 N3 1_555 1_555
N4 C22 1_555 1_555
H33 N4 1_555 1_555
O5 C17 1_555 1_555
O6 C28 1_555 1_555
O7 C28 1_555 1_555
Zn6 N1 1_555 1_555
C43 H49 1_555 1_555
H50 C43 1_555 1_555
C44 C43 1_555 1_555
C45 C44 1_555 1_555
H51 C45 1_555 1_555
C46 C45 1_555 1_555
C47 C48 1_555 1_555
C48 C46 1_555 1_555
C49 C48 1_555 1_555
H53 C49 1_555 1_555
C50 C44 1_555 1_555
H54 C50 1_555 1_555
H57 C52 1_555 1_555
H58 C52 1_555 1_555
C53 H59 1_555 1_555
H60 C53 1_555 1_555
C54 C53 1_555 1_555
C55 C54 1_555 1_555
H61 C55 1_555 1_555
C56 C55 1_555 1_555
H62 C56 1_555 1_555
C60 C54 1_555 1_555
H64 C60 1_555 1_555
N8 C52 1_555 1_555
H67 N8 1_555 1_555
O17 C47 1_555 1_555
Zn11_2 O7 1_555 1_555
C9 N2 1_555 1_555
C11 N1 1_555 1_555
C13 N3 1_555 1_555
C19 C20 1_555 1_555
C21 N1 1_555 1_555
C23 N4 1_555 1_555
C29 C30 1_555 1_555
N2 Zn6 1_555 1_555
N3 Zn6 1_555 1_555
N4 Zn6 1_555 1_555
O5 Zn3_3 1_555 1_555
C49 C50 1_555 1_555
C53 N8 1_555 1_555
O17 Zn11 1_555 1_555
C58 C57 1_555 1_555
C59 C57 1_555 1_555
H63 C59 1_555 1_555
O12 Zn3_4 1_555 1_555
H68 O12 1_555 1_555
O19 C58 1_555 1_555
O22 Zn3_4 1_555 1_555
Zn10 O12 1_555 1_555
C58 O22 1_555 1_555
O19 Zn10 1_555 1_555
O22 Zn10 1_555 1_555
C38 C35 1_555 1_555
H39 C38 1_555 1_555
H40 C38 1_555 1_555
C39 H41 1_555 1_555
H42 C39 1_555 1_555
C40 C39 1_555 1_555
H43 C40 1_555 1_555
H44 C40 1_555 1_555
C41 H45 1_555 1_555
H46 C41 1_555 1_555
C42 C41 1_555 1_555
H47 C42 1_555 1_555
H48 C42 1_555 1_555
C51 H55 1_555 1_555
H56 C51 1_555 1_555
N5 C40 1_555 1_555
N6 C38 1_555 1_555
H65 N6 1_555 1_555
N7 C42 1_555 1_555
H66 N7 1_555 1_555
Zn4 N5 1_555 1_555
C39 N6 1_555 1_555
C41 N5 1_555 1_555
C51 N5 1_555 1_555
N6 Zn4 1_555 1_555
N7 Zn4 1_555 1_555
C1 C2 1_555 1_555
C2 C3 1_555 1_555
C3 H1 1_555 1_555
C4 C3 1_555 1_555
C7 C2 1_555 1_555
H4 C7 1_555 1_555
O10 C1 1_555 1_555
O2 C1 1_555 1_555
C6 C7 1_555 1_555
O23 Zn11_3 1_555 1_555
Cl1 Zn2 1_555 1_555
O13 Zn2 1_555 1_555
H69 O13 1_555 1_555
O15 Zn2 1_555 1_555
Zn11_4 O13 1_555 1_555
O12_2 Zn11 1_555 1_555
H68_2 O12_2 1_555 1_555
Zn9 O12_2 1_555 1_555
O18_2 Zn11_4 1_555 1_555
O13 H71_2 1_555 1_555
Cl1_2 Zn9 1_555 1_555
O15_2 Zn9 1_555 1_555
C1_2 C2_2 1_555 1_555
C2_2 C3_2 1_555 1_555
C3_2 H1_2 1_555 1_555
C4_2 C3_2 1_555 1_555
C7_2 C2_2 1_555 1_555
H4_2 C7_2 1_555 1_555
O1 C1_2 1_555 1_555
O2_2 C1_2 1_555 1_555
C6_2 C7_2 1_555 1_555
C38_2 C35_2 1_555 1_555
H39_2 C38_2 1_555 1_555
H40_2 C38_2 1_555 1_555
C39_2 H41_2 1_555 1_555
H42_2 C39_2 1_555 1_555
C40_2 C39_2 1_555 1_555
H43_2 C40_2 1_555 1_555
H44_2 C40_2 1_555 1_555
C41_2 H45_2 1_555 1_555
H46_2 C41_2 1_555 1_555
C42_2 C41_2 1_555 1_555
H47_2 C42_2 1_555 1_555
H48_2 C42_2 1_555 1_555
C51_2 H55_2 1_555 1_555
H56_2 C51_2 1_555 1_555
N5_2 C40_2 1_555 1_555
N6_2 C38_2 1_555 1_555
H65_2 N6_2 1_555 1_555
N7_2 C42_2 1_555 1_555
H66_2 N7_2 1_555 1_555
Zn5 N5_2 1_555 1_555
C39_2 N6_2 1_555 1_555
C41_2 N5_2 1_555 1_555
C51_2 N5_2 1_555 1_555
N6_2 Zn5 1_555 1_555
N7_2 Zn5 1_555 1_555
C58_2 C57_2 1_555 1_555
C59_2 C57_2 1_555 1_555
H63_2 C59_2 1_555 1_555
O21 C58_2 1_555 1_555
C58_2 O24 1_555 1_555
C8_2 C5_2 1_555 1_555
H5_2 C8_2 1_555 1_555
H6_2 C8_2 1_555 1_555
C9_2 H7_2 1_555 1_555
H8_2 C9_2 1_555 1_555
C10_2 C9_2 1_555 1_555
H9_2 C10_2 1_555 1_555
H10_2 C10_2 1_555 1_555
C11_2 H11_2 1_555 1_555
H12_2 C11_2 1_555 1_555
C12_2 C11_2 1_555 1_555
H13_2 C12_2 1_555 1_555
H14_2 C12_2 1_555 1_555
C13_2 H15_2 1_555 1_555
H16_2 C13_2 1_555 1_555
C14_2 C13_2 1_555 1_555
C15_2 C14_2 1_555 1_555
H17_2 C15_2 1_555 1_555
C16_2 C15_2 1_555 1_555
H18_2 C16_2 1_555 1_555
C17_2 C18_2 1_555 1_555
C18_2 C16_2 1_555 1_555
C19_2 C18_2 1_555 1_555
H19_2 C19_2 1_555 1_555
C20_2 C14_2 1_555 1_555
H20_2 C20_2 1_555 1_555
C21_2 H21_2 1_555 1_555
H22_2 C21_2 1_555 1_555
C22_2 C21_2 1_555 1_555
H23_2 C22_2 1_555 1_555
H24_2 C22_2 1_555 1_555
C23_2 H25_2 1_555 1_555
H26_2 C23_2 1_555 1_555
C24_2 C23_2 1_555 1_555
C25_2 C24_2 1_555 1_555
H27_2 C25_2 1_555 1_555
C26_2 C25_2 1_555 1_555
H28_2 C26_2 1_555 1_555
C27_2 C26_2 1_555 1_555
C28_2 C27_2 1_555 1_555
C29_2 C27_2 1_555 1_555
H29_2 C29_2 1_555 1_555
C30_2 C24_2 1_555 1_555
H30_2 C30_2 1_555 1_555
N1_2 C10_2 1_555 1_555
N2_2 C8_2 1_555 1_555
H31_2 N2_2 1_555 1_555
N3_2 C12_2 1_555 1_555
H32_2 N3_2 1_555 1_555
N4_2 C22_2 1_555 1_555
H33_2 N4_2 1_555 1_555
O18 C17_2 1_555 1_555
O20 C28_2 1_555 1_555
O23 C28_2 1_555 1_555
Zn1 N1_2 1_555 1_555
C43_2 H49_2 1_555 1_555
H50_2 C43_2 1_555 1_555
C44_2 C43_2 1_555 1_555
C45_2 C44_2 1_555 1_555
H51_2 C45_2 1_555 1_555
C46_2 C45_2 1_555 1_555
C47_2 C48_2 1_555 1_555
C48_2 C46_2 1_555 1_555
C49_2 C48_2 1_555 1_555
H53_2 C49_2 1_555 1_555
C50_2 C44_2 1_555 1_555
H54_2 C50_2 1_555 1_555
H57_2 C52_2 1_555 1_555
H58_2 C52_2 1_555 1_555
C53_2 H59_2 1_555 1_555
H60_2 C53_2 1_555 1_555
C54_2 C53_2 1_555 1_555
C55_2 C54_2 1_555 1_555
H61_2 C55_2 1_555 1_555
C56_2 C55_2 1_555 1_555
H62_2 C56_2 1_555 1_555
C60_2 C54_2 1_555 1_555
H64_2 C60_2 1_555 1_555
N8_2 C52_2 1_555 1_555
H67_2 N8_2 1_555 1_555
O9 Zn1 1_555 1_555
O18_2 C47_2 1_555 1_555
C9_2 N2_2 1_555 1_555
C11_2 N1_2 1_555 1_555
C13_2 N3_2 1_555 1_555
C19_2 C20_2 1_555 1_555
C21_2 N1_2 1_555 1_555
C23_2 N4_2 1_555 1_555
C29_2 C30_2 1_555 1_555
N2_2 Zn1 1_555 1_555
N3_2 Zn1 1_555 1_555
N4_2 Zn1 1_555 1_555
C49_2 C50_2 1_555 1_555
C53_2 N8_2 1_555 1_555
C31_2 C32_2 1_555 1_555
C32_2 C33_2 1_555 1_555
C33_2 H35_2 1_555 1_555
C34_2 C33_2 1_555 1_555
C37_2 C32_2 1_555 1_555
H38_2 C37_2 1_555 1_555
Cl2_2 Zn10 1_555 1_555
O9 C31_2 1_555 1_555
O11_2 C31_2 1_555 1_555
O16 Zn10 1_555 1_555
Zn10 O11_2 1_555 1_555
C36_2 C37_2 1_555 1_555
O12 H71_3 1_555 1_555
O12_2 H71_4 1_555 1_555

#END
