
###############################################################################
#
# This file contains modified crystal structure data generated from the
# MOF subset of the Cambridge Structural Database (CSD) v543 
# hosted by the Cambridge Crystallographic Data Centre (CCDC).
#
# This work is licensed under the Creative Commons
# Attribution-NonCommercial-ShareAlike 4.0 International License.
# To view a copy of this license, visit
# http://creativecommons.org/licenses/by-nc-sa/4.0/
# or send a letter to
# Creative Commons, PO Box 1866, Mountain View, CA 94042, USA.
#
# CIF created using the CSD Python API on 29 September 2022
# The structure has been converted into the P1 space group
# The structure has a 3D framework
# The original CSD entry YOVNOO is in the monoclinic crystal system
# The framework has been calculated to contain at least 10.0% void space
# The void calculation uses a probe of radius 1.32A, grid spacing 0.4
#
###############################################################################

data_YOVNOO
_chemical_formula_moiety         '(C164 H112 N24 Ni4 O14)n'
_symmetry_cell_setting           triclinic
_symmetry_space_group_name_H-M   'P 1'
_symmetry_Int_Tables_number      1
_space_group_name_Hall           'P 1'
loop_
_symmetry_equiv_pos_site_id
_symmetry_equiv_pos_as_xyz
1 x,y,z
_cell_length_a                   8.8570(15)
_cell_length_b                   31.574(5)
_cell_length_c                   16.097(3)
_cell_angle_alpha                90
_cell_angle_beta                 92.152(5)
_cell_angle_gamma                90
_cell_volume                     4498.37
loop_
_atom_site_label
_atom_site_type_symbol
_atom_site_fract_x
_atom_site_fract_y
_atom_site_fract_z
Ni3 Ni 0.32423(3) 0.333934(7) 0.017466(14)
Ni1 Ni 0.17577(3) 0.833934(7) 0.482534(14)
H1 H 0.0884 0.8959 0.3393
C3 C 0.3123(2) 0.84008(6) 0.30302(12)
C7 C 0.4128(2) 0.81889(6) 0.16380(11)
H5 H 0.4036 0.8476 0.1466
C8 C 0.3950(3) 0.76545(7) 0.26971(13)
H6 H 0.3705 0.7575 0.3245
C9 C 0.4502(3) 0.73506(7) 0.21559(13)
H7 H 0.4664 0.7068 0.2341
C10 C 0.5374(2) 0.71375(6) 0.07438(11)
C13 C 0.3756(2) 0.80742(6) 0.24380(12)
C15 C 0.4815(2) 0.74643(6) 0.13390(11)
H16 H 0.0092 0.9635 0.2828
C31 C 0.4638(2) 0.78842(6) 0.10852(11)
H20 H 0.4865 0.7963 0.0534
O1 O 0.25121(16) 0.82429(4) 0.36594(8)
O2 O 0.32532(16) 0.87851(4) 0.28575(8)
O3 O 0.57894(15) 0.67763(4) 0.10070(8)
N7 N 0.36306(18) 0.79610(5) 0.51855(10)
N8 N 0.29094(17) 0.88816(5) 0.51638(9)
O5 O 0.07894(15) 0.82237(4) 0.60070(8)
O6 O 0.04491(14) 0.77651(4) 0.49821(8)
C2 C 0.4644(3) 0.93916(7) 0.51933(12)
H2 H 0.5374 0.9591 0.5024
C4 C 0.3168(2) 0.90045(6) 0.59448(11)
H3 H 0.2680 0.8889 0.6409
C23 C 0.3817(2) 0.91256(6) 0.46915(12)
H15 H 0.3864 0.9112 0.4103
C25 C 0.4807(2) 0.95200(6) 0.67364(12)
C29 C 0.4430(2) 0.93743(7) 0.75077(12)
H18 H 0.3726 0.9149 0.7553
C34 C 0.6099(2) 0.98886(6) 0.81805(11)
C35 C 0.5081(2) 0.95568(6) 0.82204(12)
H22 H 0.4821 0.9451 0.8749
C36 C 0.6989(2) 0.98305(6) 0.96817(11)
H23 H 0.6687 0.9542 0.9670
C39 C 0.5767(3) 0.98613(8) 0.66867(13)
H26 H 0.6001 0.9972 0.6158
N6 N 0.42212(17) 0.93165(5) 0.59932(9)
C23_2 C 0.1183(2) 0.41256(6) 0.03085(12)
H15_2 H 0.1136 0.4112 0.0897
C1 C 0.5032(2) 0.38804(6) 0.13595(11)
H1_2 H 0.4116 0.3959 0.1607
H2_2 H 0.9626 0.4591 0.9976
C3_2 C 0.1877(2) 0.34008(6) 0.19698(12)
C5 C 0.8158(2) 0.44111(6) 0.36315(12)
H4 H 0.9000 0.4356 0.3999
C6 C 0.7158(2) 0.47365(6) 0.38225(11)
C7_2 C 0.0872(2) 0.31889(6) 0.33620(11)
H5_2 H 0.0964 0.3476 0.3534
C8_2 C 0.1050(3) 0.26545(7) 0.23029(13)
H6_2 H 0.1295 0.2575 0.1755
C9_2 C 0.0498(3) 0.23506(7) 0.28441(13)
H7_2 H 0.0336 0.2068 0.2659
C11 C 0.6714(2) 0.42479(6) 0.23806(11)
C12 C 0.7952(2) 0.41663(6) 0.29179(12)
H8 H 0.8645 0.3947 0.2798
C13_2 C 0.1244(2) 0.30742(6) 0.25620(12)
C14 C 0.7386(2) 0.50018(6) 0.45786(11)
C15_2 C 0.0185(2) 0.24643(6) 0.36610(11)
C16 C 0.3682(2) 0.75446(6) 0.51651(12)
H9 H 0.2816 0.7368 0.5108
C17 C 0.6696(2) 0.68342(7) 0.47079(13)
H10 H 0.7119 0.7031 0.4336
C18 C 0.7094(2) 0.56750(6) 0.52872(11)
C19 C 0.7180(2) 0.64166(6) 0.47194(13)
H11 H 0.7928 0.6327 0.4350
C20 C 0.6952(2) 0.54278(6) 0.45737(12)
H12 H 0.6553 0.5551 0.4073
C21 C 0.7711(2) 0.54975(6) 0.60241(12)
H13 H 0.7796 0.5665 0.6514
C22 C 0.4958(3) 0.66786(6) 0.57722(15)
H14 H 0.4182 0.6767 0.6125
C24 C 0.5595(2) 0.69632(6) 0.52386(13)
C26 C 0.8201(2) 0.50768(6) 0.60447(11)
C27 C 0.5730(2) 0.45749(6) 0.25494(12)
H16_2 H 0.4908 0.4635 0.2172
C28 C 0.5940(2) 0.48150(6) 0.32673(12)
H17 H 0.5247 0.5035 0.3382
C30 C 0.6630(2) 0.36074(7) 0.05333(13)
H19 H 0.7037 0.3457 0.0081
C31_2 C 0.0362(2) 0.28842(6) 0.39148(11)
H20_2 H 0.0135 0.2963 0.4466
C32 C 0.5461(2) 0.62609(6) 0.57894(13)
H21 H 0.5033 0.6066 0.6163
C33 C 0.6574(2) 0.61256(6) 0.52722(11)
C34_2 C 0.8901(2) 0.48886(6) 0.68195(11)
C35_2 C 0.9919(2) 0.45568(6) 0.67796(12)
C36_2 C 0.8011(2) 0.48305(6) 0.53183(11)
H23_2 H 0.8313 0.4542 0.5330
C37 C 0.7453(2) 0.38154(7) 0.11337(14)
H24 H 0.8523 0.3835 0.1184
C38 C 0.8603(3) 0.50446(8) 0.75966(13)
H25 H 0.7954 0.5282 0.7643
C39_2 C 0.9233(3) 0.48613(8) 0.83133(13)
H26_2 H 0.8999 0.4972 0.8842
C40 C 0.5109(3) 0.80905(7) 0.5248(2)
H27 H 0.5435 0.8377 0.5266
C41 C 0.6034(3) 0.77484(8) 0.5278(2)
H28 H 0.7107 0.7750 0.5320
N1 N 0.51091(17) 0.36471(5) 0.06806(9)
N2 N 0.64286(17) 0.39936(5) 0.16577(9)
N4 N 0.51143(19) 0.73982(5) 0.52358(11)
O1_2 O 0.24879(16) 0.32429(4) 0.13406(8)
O2_2 O 0.17468(16) 0.37851(4) 0.21425(8)
O6_2 O 0.45509(14) 0.27651(4) 0.00179(8)
C16_2 C 0.8682(2) 0.74554(6) 0.01651(12)
H9_2 H 0.7816 0.7632 0.0108
C22_2 C 0.9958(3) 0.83214(6) 0.07722(15)
H14_2 H 0.9182 0.8233 0.1125
N3 N 0.86306(18) 0.70390(5) 0.01855(10)
C10_2 C 0.0374(2) 0.78625(6) 0.57438(11)
N8_2 N 0.79094(17) 0.61184(5) 0.01638(9)
C2_2 C 0.9644(3) 0.56084(7) 0.01933(12)
C4_2 C 0.8168(2) 0.59955(6) 0.09448(11)
H3_2 H 0.7680 0.6111 0.1409
C25_2 C 0.9807(2) 0.54800(6) 0.17364(12)
C29_2 C 0.9430(2) 0.56257(7) 0.25077(12)
H18_2 H 0.8726 0.5851 0.2553
H22_2 H 0.9821 0.5549 0.3749
N6_2 N 0.92212(17) 0.56835(5) 0.09932(9)
C16_3 C 0.1318(2) 0.25446(6) 0.98349(12)
H9_3 H 0.2184 0.2368 0.9892
C22_3 C 0.0042(3) 0.16786(6) 0.92278(15)
H14_3 H 0.0818 0.1767 0.8875
N3_2 N 0.13694(18) 0.29610(5) 0.98145(10)
O4 O 0.54491(14) 0.72349(4) 0.99821(8)
Ni4 Ni 0.67577(3) 0.666066(7) 0.982534(14)
C2_3 C 0.0356(3) 0.43916(7) 0.98067(12)
C4_3 C 0.1832(2) 0.40045(6) 0.90552(11)
H3_3 H 0.2320 0.3889 0.8591
C25_3 C 0.0193(2) 0.45200(6) 0.82636(12)
C29_3 C 0.0570(2) 0.43743(7) 0.74923(12)
H18_3 H 0.1274 0.4149 0.7447
H22_3 H 0.0179 0.4451 0.6251
N5 N 0.20906(17) 0.38816(5) 0.98362(9)
N6_3 N 0.07788(17) 0.43165(5) 0.90068(9)
O5_2 O 0.42106(15) 0.32237(4) 0.89930(8)
C10_3 C 0.9626(2) 0.21375(6) 0.42562(11)
O3_2 O 0.92106(15) 0.17763(4) 0.39930(8)
O4_2 O 0.95509(14) 0.22349(4) 0.50179(8)
Ni4_2 Ni 0.82423(3) 0.166066(7) 0.517466(14)
C2_4 C 0.5356(3) 0.06084(7) 0.48067(12)
H2_3 H 0.4626 0.0409 0.4976
C4_4 C 0.6832(2) 0.09955(6) 0.40552(11)
H3_4 H 0.7320 0.1111 0.3591
C23_3 C 0.6183(2) 0.08744(6) 0.53085(12)
H15_3 H 0.6136 0.0888 0.5897
C25_4 C 0.5193(2) 0.04800(6) 0.32636(12)
C29_4 C 0.5570(2) 0.06257(7) 0.24923(12)
H18_4 H 0.6274 0.0851 0.2447
C34_3 C 0.3901(2) 0.01114(6) 0.18195(11)
C35_3 C 0.4919(2) 0.04432(6) 0.17796(12)
H22_4 H 0.5179 0.0549 0.1251
C36_3 C 0.3011(2) 0.01695(6) 0.03183(11)
H23_3 H 0.3313 0.0458 0.0330
C39_3 C 0.4233(3) 0.01387(8) 0.33133(13)
H26_3 H 0.3999 0.0028 0.3842
N5_2 N 0.70906(17) 0.11184(5) 0.48362(9)
N6_4 N 0.57788(17) 0.06835(5) 0.40068(9)
H1_3 H 0.9116 0.1041 0.6607
C3_3 C 0.6877(2) 0.15992(6) 0.69698(12)
C7_3 C 0.5872(2) 0.18111(6) 0.83620(11)
H5_3 H 0.5964 0.1524 0.8534
C8_3 C 0.6050(3) 0.23455(7) 0.73029(13)
H6_3 H 0.6295 0.2425 0.6755
C9_3 C 0.5498(3) 0.26494(7) 0.78441(13)
H7_3 H 0.5336 0.2932 0.7659
C10_4 C 0.4626(2) 0.28625(6) 0.92562(11)
C13_3 C 0.6244(2) 0.19258(6) 0.75620(12)
C15_3 C 0.5185(2) 0.25357(6) 0.86610(11)
H16_3 H 0.9908 0.0365 0.7172
C31_3 C 0.5362(2) 0.21158(6) 0.89148(11)
H20_3 H 0.5135 0.2037 0.9466
O1_3 O 0.74879(16) 0.17571(4) 0.63406(8)
O2_3 O 0.67468(16) 0.12149(4) 0.71425(8)
N7_2 N 0.63694(18) 0.20390(5) 0.48145(10)
C1_2 C 0.4968(2) 0.61196(6) 0.86405(11)
H1_4 H 0.5884 0.6041 0.8393
H2_4 H 0.0374 0.5409 0.0024
C3_4 C 0.8123(2) 0.65992(6) 0.80302(12)
C5_2 C 0.1842(2) 0.55889(6) 0.63685(12)
H4_2 H 0.1000 0.5644 0.6001
C6_2 C 0.2842(2) 0.52635(6) 0.61775(11)
C7_4 C 0.9128(2) 0.68111(6) 0.66380(11)
H5_4 H 0.9036 0.6524 0.6466
C8_4 C 0.8950(3) 0.73455(7) 0.76971(13)
H6_4 H 0.8705 0.7425 0.8245
C9_4 C 0.9502(3) 0.76494(7) 0.71559(13)
H7_4 H 0.9664 0.7932 0.7341
C11_2 C 0.3286(2) 0.57521(6) 0.76194(11)
C12_2 C 0.2048(2) 0.58337(6) 0.70821(12)
H8_2 H 0.1355 0.6053 0.7202
C13_4 C 0.8756(2) 0.69258(6) 0.74380(12)
C14_2 C 0.2614(2) 0.49982(6) 0.54214(11)
C15_4 C 0.9815(2) 0.75357(6) 0.63390(11)
C16_4 C 0.6318(2) 0.24554(6) 0.48349(12)
H9_4 H 0.7184 0.2632 0.4892
C17_2 C 0.3304(2) 0.31658(7) 0.52921(13)
H10_2 H 0.2881 0.2969 0.5664
C18_2 C 0.2906(2) 0.43250(6) 0.47128(11)
C19_2 C 0.2820(2) 0.35834(6) 0.52806(13)
H11_2 H 0.2072 0.3673 0.5650
C20_2 C 0.3048(2) 0.45722(6) 0.54263(12)
H12_2 H 0.3447 0.4449 0.5927
C21_2 C 0.2289(2) 0.45025(6) 0.39759(12)
H13_2 H 0.2204 0.4335 0.3486
C22_4 C 0.5042(3) 0.33214(6) 0.42278(15)
H14_4 H 0.5818 0.3233 0.3875
C24_2 C 0.4405(2) 0.30368(6) 0.47614(13)
C26_2 C 0.1799(2) 0.49232(6) 0.39553(11)
C27_2 C 0.4270(2) 0.54251(6) 0.74506(12)
H16_4 H 0.5092 0.5365 0.7828
C28_2 C 0.4060(2) 0.51850(6) 0.67327(12)
H17_2 H 0.4753 0.4965 0.6618
C30_2 C 0.3370(2) 0.63926(7) 0.94667(13)
H19_2 H 0.2963 0.6543 0.9919
C31_4 C 0.9638(2) 0.71158(6) 0.60852(11)
H20_4 H 0.9865 0.7037 0.5534
C32_2 C 0.4539(2) 0.37391(6) 0.42106(13)
H21_2 H 0.4967 0.3934 0.3837
C33_2 C 0.3426(2) 0.38744(6) 0.47278(11)
C34_4 C 0.1099(2) 0.51114(6) 0.31805(11)
C35_4 C 0.0081(2) 0.54432(6) 0.32204(12)
C36_4 C 0.1989(2) 0.51695(6) 0.46817(11)
H23_4 H 0.1687 0.5458 0.4670
C37_2 C 0.2547(2) 0.61846(7) 0.88663(14)
H24_2 H 0.1477 0.6165 0.8816
C38_2 C 0.1397(3) 0.49554(8) 0.24034(13)
H25_2 H 0.2046 0.4718 0.2357
C39_4 C 0.0767(3) 0.51387(8) 0.16867(13)
H26_4 H 0.1001 0.5028 0.1158
C40_2 C 0.4891(3) 0.19095(7) 0.4752(2)
H27_2 H 0.4565 0.1623 0.4734
C41_2 C 0.3966(3) 0.22516(8) 0.4722(2)
H28_2 H 0.2893 0.2250 0.4680
N1_2 N 0.48909(17) 0.63529(5) 0.93194(9)
N2_2 N 0.35714(17) 0.60064(5) 0.83423(9)
N4_2 N 0.48857(19) 0.26018(5) 0.47642(11)
O1_4 O 0.75121(16) 0.67571(4) 0.86594(8)
O2_4 O 0.82532(16) 0.62149(4) 0.78575(8)
C23_4 C 0.8817(2) 0.58744(6) 0.96915(12)
H15_4 H 0.8864 0.5888 0.9103
C14_3 C 0.7614(2) 0.00018(6) 0.04214(11)
C17_3 C 0.8304(2) 0.18342(7) 0.02921(13)
H10_3 H 0.7881 0.2031 0.0664
C19_3 C 0.7820(2) 0.14166(6) 0.02806(13)
H11_3 H 0.7072 0.1327 0.0650
C20_3 C 0.8048(2) 0.04278(6) 0.04263(12)
H12_3 H 0.8447 0.0551 0.0927
H17_3 H 0.9753 0.0035 0.1618
C18_3 C 0.7906(2) 0.06750(6) 0.97128(11)
C21_3 C 0.7289(2) 0.04975(6) 0.89759(12)
H13_3 H 0.7204 0.0665 0.8486
C24_3 C 0.9405(2) 0.19632(6) 0.97614(13)
C26_3 C 0.6799(2) 0.00768(6) 0.89553(11)
C32_3 C 0.9539(2) 0.12609(6) 0.92106(13)
H21_3 H 0.9967 0.1066 0.8837
C33_3 C 0.8426(2) 0.11256(6) 0.97278(11)
C38_3 C 0.6397(3) 0.00446(8) 0.74034(13)
H25_3 H 0.7046 0.0282 0.7357
C40_3 C 0.9891(3) 0.30905(7) 0.9752(2)
H27_3 H 0.9565 0.3377 0.9734
C41_3 C 0.8966(3) 0.27484(8) 0.9722(2)
H28_3 H 0.7893 0.2750 0.9680
N4_3 N 0.98857(19) 0.23982(5) 0.97642(11)
C1_3 C 0.9968(2) 0.88804(6) 0.36405(11)
C5_3 C 0.6842(2) 0.94111(6) 0.13685(12)
H4_3 H 0.6000 0.9356 0.1001
C6_3 C 0.7842(2) 0.97365(6) 0.11775(11)
C11_3 C 0.8286(2) 0.92479(6) 0.26194(11)
C12_3 C 0.7048(2) 0.91663(6) 0.20821(12)
H8_3 H 0.6355 0.8947 0.2202
C27_3 C 0.9270(2) 0.95749(6) 0.24506(12)
C28_3 C 0.9060(2) 0.98150(6) 0.17327(12)
C30_3 C 0.8370(2) 0.86074(7) 0.44667(13)
H19_3 H 0.7963 0.8457 0.4919
C37_3 C 0.7547(2) 0.88154(7) 0.38663(14)
H24_3 H 0.6477 0.8835 0.3816
N1_3 N 0.98909(17) 0.86471(5) 0.43194(9)
N2_3 N 0.85714(17) 0.89936(5) 0.33423(9)
C1_4 C 0.0032(2) 0.11196(6) 0.63595(11)
C5_4 C 0.3158(2) 0.05889(6) 0.86315(12)
H4_4 H 0.4000 0.0644 0.8999
C6_4 C 0.2158(2) 0.02635(6) 0.88225(11)
C11_4 C 0.1714(2) 0.07521(6) 0.73806(11)
C12_4 C 0.2952(2) 0.08337(6) 0.79179(12)
H8_4 H 0.3645 0.1053 0.7798
C27_4 C 0.0730(2) 0.04251(6) 0.75494(12)
C28_4 C 0.0940(2) 0.01850(6) 0.82673(12)
C30_4 C 0.1630(2) 0.13926(7) 0.55333(13)
H19_4 H 0.2037 0.1543 0.5081
C37_4 C 0.2453(2) 0.11846(7) 0.61337(14)
H24_4 H 0.3523 0.1165 0.6184
N1_4 N 0.01091(17) 0.13529(5) 0.56806(9)
N2_4 N 0.14286(17) 0.10064(5) 0.66577(9)
C18_4 C 0.2094(2) 0.93250(6) 0.02872(11)
C21_4 C 0.2711(2) 0.95025(6) 0.10241(12)
H13_4 H 0.2796 0.9335 0.1514
C24_4 C 0.0595(2) 0.80368(6) 0.02386(13)
C26_4 C 0.3201(2) 0.99232(6) 0.10447(11)
C32_4 C 0.0461(2) 0.87391(6) 0.07894(13)
H21_4 H 0.0033 0.8934 0.1163
C33_4 C 0.1574(2) 0.88744(6) 0.02722(11)
C38_4 C 0.3603(3) 0.99554(8) 0.25966(13)
H25_4 H 0.2954 0.9718 0.2643
C40_4 C 0.0109(3) 0.69095(7) 0.0248(2)
H27_4 H 0.0435 0.6623 0.0266
C41_4 C 0.1034(3) 0.72516(8) 0.0278(2)
H28_4 H 0.2107 0.7250 0.0320
N4_4 N 0.01143(19) 0.76018(5) 0.02358(11)
C14_4 C 0.2386(2) 0.99982(6) 0.95786(11)
C17_4 C 0.1696(2) 0.81658(7) 0.97079(13)
H10_4 H 0.2119 0.7969 0.9336
C19_4 C 0.2180(2) 0.85834(6) 0.97194(13)
H11_4 H 0.2928 0.8673 0.9350
C20_4 C 0.1952(2) 0.95722(6) 0.95737(12)
H12_4 H 0.1553 0.9449 0.9073
H17_4 H 0.0247 0.9965 0.8382
loop_
_geom_bond_atom_site_label_1
_geom_bond_atom_site_label_2
_geom_bond_site_symmetry_1
_geom_bond_site_symmetry_2
C3 C13 1_555 1_555
C7 H5 1_555 1_555
C8 H6 1_555 1_555
C9 C8 1_555 1_555
H7 C9 1_555 1_555
C10 C15 1_555 1_555
C13 C7 1_555 1_555
C15 C9 1_555 1_555
C31 C7 1_555 1_555
H20 C31 1_555 1_555
O1 Ni1 1_555 1_555
O2 C3 1_555 1_555
O3 C10 1_555 1_555
N7 Ni1 1_555 1_555
N8 Ni1 1_555 1_555
O5 Ni1 1_555 1_555
O6 Ni1 1_555 1_555
C3 O1 1_555 1_555
C8 C13 1_555 1_555
C15 C31 1_555 1_555
C2 H2 1_555 1_555
C4 H3 1_555 1_555
C23 C2 1_555 1_555
H15 C23 1_555 1_555
C25 C29 1_555 1_555
C29 H18 1_555 1_555
C35 C29 1_555 1_555
H22 C35 1_555 1_555
H23 C36 1_555 1_555
C39 C25 1_555 1_555
H26 C39 1_555 1_555
N8 C4 1_555 1_555
N6 C2 1_555 1_555
C4 N6 1_555 1_555
C23 N8 1_555 1_555
C25 N6 1_555 1_555
C34 C35 1_555 1_555
H15_2 C23_2 1_555 1_555
Ni3 N1 1_555 1_555
C1 H1_2 1_555 1_555
C3_2 C13_2 1_555 1_555
C5 H4 1_555 1_555
C6 C5 1_555 1_555
C7_2 H5_2 1_555 1_555
C8_2 H6_2 1_555 1_555
C9_2 C8_2 1_555 1_555
H7_2 C9_2 1_555 1_555
C11 C12 1_555 1_555
C12 C5 1_555 1_555
H8 C12 1_555 1_555
C13_2 C7_2 1_555 1_555
C14 C6 1_555 1_555
C15_2 C9_2 1_555 1_555
C16 H9 1_555 1_555
C17 H10 1_555 1_555
C18 C20 1_555 1_555
C19 C17 1_555 1_555
H11 C19 1_555 1_555
C20 C14 1_555 1_555
H12 C20 1_555 1_555
C21 C18 1_555 1_555
H13 C21 1_555 1_555
C22 H14 1_555 1_555
C24 C17 1_555 1_555
C26 C21 1_555 1_555
C27 C11 1_555 1_555
H16_2 C27 1_555 1_555
C28 C6 1_555 1_555
H17 C28 1_555 1_555
C30 H19 1_555 1_555
C31_2 C7_2 1_555 1_555
H20_2 C31_2 1_555 1_555
C32 C22 1_555 1_555
H21 C32 1_555 1_555
C33 C18 1_555 1_555
C34_2 C26 1_555 1_555
C36_2 C14 1_555 1_555
H23_2 C36_2 1_555 1_555
C37 C30 1_555 1_555
H24 C37 1_555 1_555
C38 C34_2 1_555 1_555
H25 C38 1_555 1_555
H26_2 C39_2 1_555 1_555
C40 H27 1_555 1_555
C41 C40 1_555 1_555
H28 C41 1_555 1_555
N1 C1 1_555 1_555
N2 C1 1_555 1_555
N7 C16 1_555 1_555
N4 C16 1_555 1_555
O1_2 Ni3 1_555 1_555
O2_2 C3_2 1_555 1_555
O6_2 Ni3 1_555 1_555
C3_2 O1_2 1_555 1_555
C8_2 C13_2 1_555 1_555
C11 N2 1_555 1_555
C15_2 C31_2 1_555 1_555
C19 C33 1_555 1_555
C22 C24 1_555 1_555
C24 N4 1_555 1_555
C26 C36_2 1_555 1_555
C27 C28 1_555 1_555
C30 N1 1_555 1_555
C32 C33 1_555 1_555
C34_2 C35_2 1_555 1_555
C37 N2 1_555 1_555
C38 C39_2 1_555 1_555
C40 N7 1_555 1_555
C41 N4 1_555 1_555
C16_2 H9_2 1_555 1_555
C22_2 H14_2 1_555 1_555
N3 C16_2 1_555 1_555
O5 C10_2 1_555 1_555
O6 C10_2 1_555 1_555
C4_2 H3_2 1_555 1_555
C25_2 C29_2 1_555 1_555
C29_2 H18_2 1_555 1_555
N8_2 C4_2 1_555 1_555
N6_2 C2_2 1_555 1_555
C4_2 N6_2 1_555 1_555
C25_2 N6_2 1_555 1_555
C16_3 H9_3 1_555 1_555
C22_3 H14_3 1_555 1_555
N3_2 C16_3 1_555 1_555
O4 Ni4 1_555 1_555
C4_3 H3_3 1_555 1_555
C25_3 C29_3 1_555 1_555
C29_3 H18_3 1_555 1_555
N5 C4_3 1_555 1_555
N6_3 C2_3 1_555 1_555
C4_3 N6_3 1_555 1_555
C25_3 N6_3 1_555 1_555
O3_2 C10_3 1_555 1_555
O4_2 C10_3 1_555 1_555
Ni4_2 O3_2 1_555 1_555
O4_2 Ni4_2 1_555 1_555
C2_4 H2_3 1_555 1_555
C4_4 H3_4 1_555 1_555
C23_3 C2_4 1_555 1_555
H15_3 C23_3 1_555 1_555
C25_4 C29_4 1_555 1_555
C29_4 H18_4 1_555 1_555
C35_3 C29_4 1_555 1_555
H22_4 C35_3 1_555 1_555
H23_3 C36_3 1_555 1_555
C39_3 C25_4 1_555 1_555
H26_3 C39_3 1_555 1_555
N5_2 C4_4 1_555 1_555
N6_4 C2_4 1_555 1_555
Ni4_2 N5_2 1_555 1_555
C4_4 N6_4 1_555 1_555
C23_3 N5_2 1_555 1_555
C25_4 N6_4 1_555 1_555
C34_3 C35_3 1_555 1_555
C3_3 C13_3 1_555 1_555
C7_3 H5_3 1_555 1_555
C8_3 H6_3 1_555 1_555
C9_3 C8_3 1_555 1_555
H7_3 C9_3 1_555 1_555
C10_4 C15_3 1_555 1_555
C13_3 C7_3 1_555 1_555
C15_3 C9_3 1_555 1_555
C31_3 C7_3 1_555 1_555
H20_3 C31_3 1_555 1_555
O1_3 Ni4_2 1_555 1_555
O2_3 C3_3 1_555 1_555
O5_2 C10_4 1_555 1_555
N7_2 Ni4_2 1_555 1_555
C3_3 O1_3 1_555 1_555
C8_3 C13_3 1_555 1_555
C15_3 C31_3 1_555 1_555
Ni4 N1_2 1_555 1_555
C1_2 H1_4 1_555 1_555
C3_4 C13_4 1_555 1_555
C5_2 H4_2 1_555 1_555
C6_2 C5_2 1_555 1_555
C7_4 H5_4 1_555 1_555
C8_4 H6_4 1_555 1_555
C9_4 C8_4 1_555 1_555
H7_4 C9_4 1_555 1_555
C11_2 C12_2 1_555 1_555
C12_2 C5_2 1_555 1_555
H8_2 C12_2 1_555 1_555
C13_4 C7_4 1_555 1_555
C14_2 C6_2 1_555 1_555
C15_4 C9_4 1_555 1_555
C16_4 H9_4 1_555 1_555
C17_2 H10_2 1_555 1_555
C18_2 C20_2 1_555 1_555
C19_2 C17_2 1_555 1_555
H11_2 C19_2 1_555 1_555
C20_2 C14_2 1_555 1_555
H12_2 C20_2 1_555 1_555
C21_2 C18_2 1_555 1_555
H13_2 C21_2 1_555 1_555
C22_4 H14_4 1_555 1_555
C24_2 C17_2 1_555 1_555
C26_2 C21_2 1_555 1_555
C27_2 C11_2 1_555 1_555
H16_4 C27_2 1_555 1_555
C28_2 C6_2 1_555 1_555
H17_2 C28_2 1_555 1_555
C30_2 H19_2 1_555 1_555
C31_4 C7_4 1_555 1_555
H20_4 C31_4 1_555 1_555
C32_2 C22_4 1_555 1_555
H21_2 C32_2 1_555 1_555
C33_2 C18_2 1_555 1_555
C34_4 C26_2 1_555 1_555
C36_4 C14_2 1_555 1_555
H23_4 C36_4 1_555 1_555
C37_2 C30_2 1_555 1_555
H24_2 C37_2 1_555 1_555
C38_2 C34_4 1_555 1_555
H25_2 C38_2 1_555 1_555
H26_4 C39_4 1_555 1_555
C40_2 H27_2 1_555 1_555
C41_2 C40_2 1_555 1_555
H28_2 C41_2 1_555 1_555
N1_2 C1_2 1_555 1_555
N2_2 C1_2 1_555 1_555
N7_2 C16_4 1_555 1_555
N4_2 C16_4 1_555 1_555
O1_4 Ni4 1_555 1_555
O2_4 C3_4 1_555 1_555
C3_4 O1_4 1_555 1_555
C8_4 C13_4 1_555 1_555
C11_2 N2_2 1_555 1_555
C15_4 C31_4 1_555 1_555
C19_2 C33_2 1_555 1_555
C22_4 C24_2 1_555 1_555
C24_2 N4_2 1_555 1_555
C26_2 C36_4 1_555 1_555
C27_2 C28_2 1_555 1_555
C30_2 N1_2 1_555 1_555
C32_2 C33_2 1_555 1_555
C34_4 C35_4 1_555 1_555
C37_2 N2_2 1_555 1_555
C38_2 C39_4 1_555 1_555
C40_2 N7_2 1_555 1_555
C41_2 N4_2 1_555 1_555
H15_4 C23_4 1_555 1_555
C17_3 H10_3 1_555 1_555
C19_3 C17_3 1_555 1_555
H11_3 C19_3 1_555 1_555
C20_3 C14_3 1_555 1_555
H12_3 C20_3 1_555 1_555
C21_3 C18_3 1_555 1_555
H13_3 C21_3 1_555 1_555
C26_3 C21_3 1_555 1_555
H21_3 C32_3 1_555 1_555
C33_3 C18_3 1_555 1_555
H25_3 C38_3 1_555 1_555
C40_3 H27_3 1_555 1_555
C41_3 C40_3 1_555 1_555
H28_3 C41_3 1_555 1_555
C24_3 N4_3 1_555 1_555
C32_3 C33_3 1_555 1_555
C41_3 N4_3 1_555 1_555
C5_3 H4_3 1_555 1_555
C6_3 C5_3 1_555 1_555
C11_3 C12_3 1_555 1_555
C12_3 C5_3 1_555 1_555
H8_3 C12_3 1_555 1_555
C27_3 C11_3 1_555 1_555
C28_3 C6_3 1_555 1_555
C30_3 H19_3 1_555 1_555
C37_3 C30_3 1_555 1_555
H24_3 C37_3 1_555 1_555
N1_3 C1_3 1_555 1_555
N2_3 C1_3 1_555 1_555
C11_3 N2_3 1_555 1_555
C27_3 C28_3 1_555 1_555
C30_3 N1_3 1_555 1_555
C37_3 N2_3 1_555 1_555
C5_4 H4_4 1_555 1_555
C6_4 C5_4 1_555 1_555
C11_4 C12_4 1_555 1_555
C12_4 C5_4 1_555 1_555
H8_4 C12_4 1_555 1_555
C27_4 C11_4 1_555 1_555
C28_4 C6_4 1_555 1_555
C30_4 H19_4 1_555 1_555
C37_4 C30_4 1_555 1_555
H24_4 C37_4 1_555 1_555
N1_4 C1_4 1_555 1_555
N2_4 C1_4 1_555 1_555
C11_4 N2_4 1_555 1_555
C27_4 C28_4 1_555 1_555
C30_4 N1_4 1_555 1_555
C37_4 N2_4 1_555 1_555
C21_4 C18_4 1_555 1_555
H13_4 C21_4 1_555 1_555
C26_4 C21_4 1_555 1_555
H21_4 C32_4 1_555 1_555
C33_4 C18_4 1_555 1_555
H25_4 C38_4 1_555 1_555
C40_4 H27_4 1_555 1_555
C41_4 C40_4 1_555 1_555
H28_4 C41_4 1_555 1_555
C24_4 N4_4 1_555 1_555
C32_4 C33_4 1_555 1_555
C41_4 N4_4 1_555 1_555
C17_4 H10_4 1_555 1_555
C19_4 C17_4 1_555 1_555
H11_4 C19_4 1_555 1_555
C20_4 C14_4 1_555 1_555
H12_4 C20_4 1_555 1_555

#END
