
###############################################################################
#
# This file contains modified crystal structure data generated from the
# MOF subset of the Cambridge Structural Database (CSD) v543 
# hosted by the Cambridge Crystallographic Data Centre (CCDC).
#
# This work is licensed under the Creative Commons
# Attribution-NonCommercial-ShareAlike 4.0 International License.
# To view a copy of this license, visit
# http://creativecommons.org/licenses/by-nc-sa/4.0/
# or send a letter to
# Creative Commons, PO Box 1866, Mountain View, CA 94042, USA.
#
# CIF created using the CSD Python API on 29 September 2022
# The structure has been converted into the P1 space group
# The structure has a 3D framework
# The original CSD entry YOWMIJ is in the triclinic crystal system
# The framework has been calculated to contain at least 10.0% void space
# The void calculation uses a probe of radius 1.32A, grid spacing 0.4
#
###############################################################################

data_YOWMIJ
_chemical_formula_moiety         '(C42 H26 N10 O8)n'
_symmetry_cell_setting           triclinic
_symmetry_space_group_name_H-M   'P 1'
_symmetry_Int_Tables_number      1
_space_group_name_Hall           'P 1'
loop_
_symmetry_equiv_pos_site_id
_symmetry_equiv_pos_as_xyz
1 x,y,z
_cell_length_a                   10.1417(10)
_cell_length_b                   10.5719(11)
_cell_length_c                   12.4204(12)
_cell_angle_alpha                71.973(2)
_cell_angle_beta                 74.303(2)
_cell_angle_gamma                79.666(2)
_cell_volume                     1212.41
loop_
_atom_site_label
_atom_site_type_symbol
_atom_site_fract_x
_atom_site_fract_y
_atom_site_fract_z
H12 H 0.0492 0.5505 0.6056
H13 H 0.0081 0.4423 0.8004
C1 C 0.2013(3) 0.7195(3) 0.3958(2)
C2 C 0.3490(2) 0.6604(3) 0.3712(2)
C3 C 0.4457(2) 0.7049(3) 0.4061(2)
H1 H 0.4189 0.7715 0.4444
C4 C 0.5821(2) 0.6521(2) 0.3849(2)
C5 C 0.6857(2) 0.7022(3) 0.4236(2)
C6 C 0.6209(2) 0.5525(2) 0.3273(2)
H2 H 0.7125 0.5170 0.3120
C7 C 0.5245(3) 0.5056(3) 0.2923(2)
C8 C 0.3887(2) 0.5599(3) 0.3154(2)
H3 H 0.3230 0.5285 0.2932
C9 C 0.5641(3) 0.3960(3) 0.2326(3)
H4 H 0.5758 0.3111 0.2901
H5 H 0.4895 0.3924 0.1988
C10 C 0.8595(4) 0.0462(3) 0.3820(3)
H6 H 0.8517 0.0328 0.4610
C11 C 0.8271(4) 0.1742(3) 0.3158(3)
H7 H 0.7979 0.2439 0.3505
C12 C 0.8379(3) 0.1977(3) 0.2003(2)
C13 C 0.8794(6) 0.0898(4) 0.1562(3)
H8 H 0.8869 0.1006 0.0776
C15 C 0.8051(3) 0.3285(3) 0.1206(2)
N2 N 0.6917(2) 0.4135(2) 0.14043(18)
N3 N 0.6909(2) 0.5190(2) 0.04383(19)
N4 N 0.8815(2) 0.3754(2) 0.01530(18)
O1 O 0.11252(17) 0.6655(2) 0.37602(17)
O2 O 0.1709(2) 0.8167(3) 0.4351(2)
O3 O 0.6480(2) 0.7821(2) 0.48308(19)
O4 O 0.81156(17) 0.66123(19) 0.38986(16)
Zn4 Zn 0.93068(3) 0.75383(3) 0.43655(2)
C16 C 0.8072(3) 0.4908(3) 0.9719(2)
C17 C 0.8462(3) 0.5699(3) 0.8504(2)
C18 C 0.7720(3) 0.6890(3) 0.8056(2)
H10 H 0.7027 0.7288 0.8547
C19 C 0.8022(3) 0.7480(3) 0.6868(2)
H11 H 0.7506 0.8274 0.6580
C20 C 0.9770(3) 0.5853(3) 0.6562(2)
C21 C 0.9529(3) 0.5198(3) 0.7733(2)
N5 N 0.9001(2) 0.6980(2) 0.61210(17)
C14 C 0.9101(6) 0.9649(4) 0.2277(3)
H9 H 0.9388 0.8929 0.1958
N1 N 0.8998(2) 0.9444(2) 0.34065(18)
Zn1 Zn 0.06932(3) 0.24617(3) 0.56345(2)
N6 N 0.1002(2) 0.0556(2) 0.65935(18)
N7 N 0.0999(2) 0.3020(2) 0.38790(17)
O5 O 0.18844(17) 0.33877(19) 0.61014(16)
C14_2 C 0.0899(6) 0.0351(4) 0.7723(3)
H9_2 H 0.0612 0.1071 0.8042
C16_2 C 0.1928(3) 0.5092(3) 0.0281(2)
C17_2 C 0.1538(3) 0.4301(3) 0.1496(2)
C18_2 C 0.2280(3) 0.3110(3) 0.1944(2)
H10_2 H 0.2973 0.2712 0.1453
C19_2 C 0.1978(3) 0.2520(3) 0.3132(2)
H11_2 H 0.2494 0.1726 0.3420
C20_2 C 0.0230(3) 0.4147(3) 0.3438(2)
C21_2 C 0.0471(3) 0.4802(3) 0.2267(2)
C1_2 C 0.7987(3) 0.2805(3) 0.6042(2)
C2_2 C 0.6510(2) 0.3396(3) 0.6288(2)
C3_2 C 0.5543(2) 0.2951(3) 0.5939(2)
H1_2 H 0.5811 0.2285 0.5556
C4_2 C 0.4179(2) 0.3479(2) 0.6151(2)
C5_2 C 0.3143(2) 0.2978(3) 0.5764(2)
C6_2 C 0.3791(2) 0.4475(2) 0.6727(2)
H2_2 H 0.2875 0.4830 0.6880
C7_2 C 0.4755(3) 0.4944(3) 0.7077(2)
C8_2 C 0.6113(2) 0.4401(3) 0.6846(2)
H3_2 H 0.6770 0.4715 0.7068
C9_2 C 0.4359(3) 0.6040(3) 0.7674(3)
H4_2 H 0.4242 0.6889 0.7099
H5_2 H 0.5105 0.6076 0.8012
C10_2 C 0.1405(4) 0.9538(3) 0.6180(3)
H6_2 H 0.1483 0.9672 0.5390
C11_2 C 0.1729(4) 0.8258(3) 0.6842(3)
H7_2 H 0.2021 0.7561 0.6495
C12_2 C 0.1621(3) 0.8023(3) 0.7997(2)
C13_2 C 0.1206(6) 0.9102(4) 0.8438(3)
H8_2 H 0.1131 0.8994 0.9224
C15_2 C 0.1949(3) 0.6715(3) 0.8794(2)
N2_2 N 0.3083(2) 0.5865(2) 0.85957(18)
N3_2 N 0.3091(2) 0.4810(2) 0.95617(19)
N4_2 N 0.1185(2) 0.6246(2) 0.98470(18)
O1_2 O 0.88748(17) 0.3345(2) 0.62398(17)
O2_2 O 0.8291(2) 0.1833(3) 0.5649(2)
O3_2 O 0.3520(2) 0.2179(2) 0.51692(19)
H12_2 H 0.9508 0.4495 0.3944
H13_2 H 0.9919 0.5577 0.1996
loop_
_geom_bond_atom_site_label_1
_geom_bond_atom_site_label_2
_geom_bond_site_symmetry_1
_geom_bond_site_symmetry_2
C1 C2 1_555 1_555
C2 C3 1_555 1_555
C3 H1 1_555 1_555
C4 C3 1_555 1_555
C5 C4 1_555 1_555
C6 C4 1_555 1_555
H2 C6 1_555 1_555
C7 C6 1_555 1_555
C8 C2 1_555 1_555
H3 C8 1_555 1_555
C9 C7 1_555 1_555
H4 C9 1_555 1_555
H5 C9 1_555 1_555
C10 H6 1_555 1_555
C11 C10 1_555 1_555
H7 C11 1_555 1_555
C12 C11 1_555 1_555
C13 C12 1_555 1_555
H8 C13 1_555 1_555
C15 C12 1_555 1_555
N2 C9 1_555 1_555
N4 C15 1_555 1_555
O1 C1 1_555 1_555
O2 C1 1_555 1_555
O3 C5 1_555 1_555
O4 C5 1_555 1_555
Zn4 O4 1_555 1_555
C7 C8 1_555 1_555
C15 N2 1_555 1_555
N2 N3 1_555 1_555
C16 C17 1_555 1_555
C17 C18 1_555 1_555
C18 H10 1_555 1_555
C19 C18 1_555 1_555
H11 C19 1_555 1_555
C21 C17 1_555 1_555
N5 C19 1_555 1_555
Zn4 N5 1_555 1_555
C20 C21 1_555 1_555
C20 N5 1_555 1_555
H9 C14 1_555 1_555
Zn4 N1 1_555 1_555
C14 N1 1_555 1_555
N6 Zn1 1_555 1_555
N7 Zn1 1_555 1_555
O5 Zn1 1_555 1_555
H9_2 C14_2 1_555 1_555
C14_2 N6 1_555 1_555
C16_2 C17_2 1_555 1_555
C17_2 C18_2 1_555 1_555
C18_2 H10_2 1_555 1_555
C19_2 C18_2 1_555 1_555
H11_2 C19_2 1_555 1_555
C21_2 C17_2 1_555 1_555
N7 C19_2 1_555 1_555
C20_2 C21_2 1_555 1_555
C20_2 N7 1_555 1_555
C1_2 C2_2 1_555 1_555
C2_2 C3_2 1_555 1_555
C3_2 H1_2 1_555 1_555
C4_2 C3_2 1_555 1_555
C5_2 C4_2 1_555 1_555
C6_2 C4_2 1_555 1_555
H2_2 C6_2 1_555 1_555
C7_2 C6_2 1_555 1_555
C8_2 C2_2 1_555 1_555
H3_2 C8_2 1_555 1_555
C9_2 C7_2 1_555 1_555
H4_2 C9_2 1_555 1_555
H5_2 C9_2 1_555 1_555
C10_2 H6_2 1_555 1_555
C11_2 C10_2 1_555 1_555
H7_2 C11_2 1_555 1_555
C12_2 C11_2 1_555 1_555
C13_2 C12_2 1_555 1_555
H8_2 C13_2 1_555 1_555
C15_2 C12_2 1_555 1_555
N2_2 C9_2 1_555 1_555
N4_2 C15_2 1_555 1_555
O1_2 C1_2 1_555 1_555
O2_2 C1_2 1_555 1_555
O3_2 C5_2 1_555 1_555
O5 C5_2 1_555 1_555
C7_2 C8_2 1_555 1_555
C15_2 N2_2 1_555 1_555
N2_2 N3_2 1_555 1_555

#END
