
###############################################################################
#
# This file contains modified crystal structure data generated from the
# MOF subset of the Cambridge Structural Database (CSD) v543 
# hosted by the Cambridge Crystallographic Data Centre (CCDC).
#
# This work is licensed under the Creative Commons
# Attribution-NonCommercial-ShareAlike 4.0 International License.
# To view a copy of this license, visit
# http://creativecommons.org/licenses/by-nc-sa/4.0/
# or send a letter to
# Creative Commons, PO Box 1866, Mountain View, CA 94042, USA.
#
# CIF created using the CSD Python API on 29 September 2022
# The structure has been converted into the P1 space group
# The structure has a 3D framework
# The original CSD entry YOYNOR is in the trigonal crystal system
# The framework has been calculated to contain at least 10.0% void space
# The void calculation uses a probe of radius 1.32A, grid spacing 0.4
# The framework is charged, counterions have been retained in the structure
#
###############################################################################

data_YOYNOR
_chemical_formula_moiety         '(C126 H78 B6 F24 N24 Ni4 O12 4-)n'
_symmetry_cell_setting           triclinic
_symmetry_space_group_name_H-M   'P 1'
_symmetry_Int_Tables_number      1
_space_group_name_Hall           'P 1'
loop_
_symmetry_equiv_pos_site_id
_symmetry_equiv_pos_as_xyz
1 x,y,z
_cell_length_a                   16.774(5)
_cell_length_b                   16.774(5)
_cell_length_c                   13.913(5)
_cell_angle_alpha                90
_cell_angle_beta                 90
_cell_angle_gamma                120
_cell_volume                     3390.2
loop_
_atom_site_label
_atom_site_type_symbol
_atom_site_fract_x
_atom_site_fract_y
_atom_site_fract_z
F1 F 0.176(2) 0.840(2) 0.2654(19)
F2 F 0.2485(8) 0.7737(8) 0.3046(9)
B1 B 0.2069(7) 0.7931(7) 0.2500
F3 F 0.160(2) 0.824(2) 0.2346(19)
F4 F 0.2263(8) 0.7515(8) 0.1954(9)
F1_2 F 0.160(2) 0.336(3) 0.2654(19)
F2_2 F 0.2263(8) 0.4748(11) 0.3046(9)
B1_2 B 0.2069(7) 0.4138(10) 0.2500
F3_2 F 0.176(2) 0.336(3) 0.2346(19)
F4_2 F 0.2485(8) 0.4748(11) 0.1954(9)
F1_3 F 0.664(3) 0.824(2) 0.2654(19)
F2_3 F 0.5252(11) 0.7515(8) 0.3046(9)
B1_3 B 0.5862(10) 0.7931(7) 0.2500
F3_3 F 0.664(3) 0.840(2) 0.2346(19)
F4_3 F 0.5252(11) 0.7737(8) 0.1954(9)
F1_4 F 0.824(2) 0.160(2) 0.7346(19)
F2_4 F 0.7515(8) 0.2263(8) 0.6954(9)
B1_4 B 0.7931(7) 0.2069(7) 0.7500
F3_4 F 0.840(2) 0.176(2) 0.7654(19)
F4_4 F 0.7737(8) 0.2485(8) 0.8046(9)
F1_5 F 0.840(2) 0.664(3) 0.7346(19)
F2_5 F 0.7737(8) 0.5252(11) 0.6954(9)
B1_5 B 0.7931(7) 0.5862(10) 0.7500
F3_5 F 0.824(2) 0.664(3) 0.7654(19)
F4_5 F 0.7515(8) 0.5252(11) 0.8046(9)
F1_6 F 0.336(3) 0.176(2) 0.7346(19)
F2_6 F 0.4748(11) 0.2485(8) 0.6954(9)
B1_6 B 0.4138(10) 0.2069(7) 0.7500
F3_6 F 0.336(3) 0.160(2) 0.7654(19)
F4_6 F 0.4748(11) 0.2263(8) 0.8046(9)
N1 N 0.1142(3) 0.6102(3) 0.4121(3)
N2 N 0.2294(3) 0.6684(3) 0.5187(3)
C4 C 0.0627(3) 0.5583(4) 0.3289(3)
C5 C 0.1116(5) 0.5558(2) 0.2500
H2 H 0.1756 0.5878 0.2500
C6 C 0.1906(3) 0.6110(4) 0.4465(4)
H3 H 0.2131 0.5747 0.4215
C7 C 0.1748(3) 0.7092(4) 0.5321(4)
C8 C 0.1834(4) 0.7765(4) 0.5974(4)
H4 H 0.2290 0.7991 0.6444
C9 C 0.1215(5) 0.8080(5) 0.5896(5)
H5 H 0.1264 0.8536 0.6313
C10 C 0.0518(5) 0.7729(5) 0.5203(5)
H6 H 0.0119 0.7963 0.5170
C11 C 0.0400(5) 0.7044(5) 0.4562(5)
C12 C 0.1024(4) 0.6736(4) 0.4642(4)
N3 N 0.1142(3) 0.5040(4) 0.0879(3)
C14 C 0.0627(3) 0.5044(5) 0.1711(3)
C15 C 0.1906(3) 0.5796(5) 0.0535(4)
H9 H 0.2131 0.6384 0.0785
C20 C 0.0400(5) 0.3356(7) 0.0438(5)
C21 C 0.1024(4) 0.4288(6) 0.0358(4)
Ni8 Ni 0.3333 0.6667 0.60433(7)
N4 N 0.2294(3) 0.5610(4) 0.9813(3)
C16 C 0.1748(3) 0.4656(5) 0.9679(4)
C17 C 0.1834(4) 0.4069(6) 0.9026(4)
H10 H 0.2290 0.4299 0.8556
C18 C 0.1215(5) 0.3135(7) 0.9104(5)
H11 H 0.1264 0.2728 0.8687
C19 C 0.0518(5) 0.2789(7) 0.9797(5)
H12 H 0.0119 0.2156 0.9830
Ni5 Ni 0.3333 0.6667 0.89567(7)
Ni1 Ni 0.6667 0.3333 0.10433(7)
O1 O 0.7787(2) 0.3533(2) 0.1815(3)
C1 C 0.8160(5) 0.4080(2) 0.2500
C2 C 0.9209(5) 0.4605(2) 0.2500
C3 C 0.9679(3) 0.5108(3) 0.3306(4)
H1 H 0.9361 0.5124 0.3846
H7 H 0.9930 0.6806 0.4108
O2 O 0.7787(2) 0.4254(3) 0.3185(3)
C13 C 0.9679(3) 0.4571(4) 0.1694(4)
H8 H 0.9361 0.4237 0.1154
H13 H 0.9930 0.3124 0.0892
O3 O 0.6467(2) 0.4254(3) 0.1815(3)
N5 N 0.3898(3) 0.5040(4) 0.4121(3)
N6 N 0.3316(3) 0.5610(4) 0.5187(3)
C22 C 0.5920(2) 0.4080(5) 0.2500
C23 C 0.5395(2) 0.4604(5) 0.2500
C24 C 0.4892(3) 0.4571(4) 0.3306(4)
H14 H 0.4876 0.4237 0.3846
C25 C 0.4417(4) 0.5044(5) 0.3289(3)
C26 C 0.4442(2) 0.5558(5) 0.2500
H15 H 0.4122 0.5878 0.2500
C27 C 0.3890(4) 0.5796(5) 0.4465(4)
H16 H 0.4253 0.6384 0.4215
C28 C 0.2908(4) 0.4656(5) 0.5321(4)
C29 C 0.2235(4) 0.4069(6) 0.5974(4)
H17 H 0.2009 0.4299 0.6444
C30 C 0.1920(5) 0.3135(7) 0.5896(5)
H18 H 0.1464 0.2728 0.6313
C31 C 0.2271(5) 0.2789(7) 0.5203(5)
H19 H 0.2037 0.2156 0.5170
C32 C 0.2956(5) 0.3356(7) 0.4562(5)
H20 H 0.3194 0.3124 0.4108
C33 C 0.3264(4) 0.4288(6) 0.4642(4)
O4 O 0.5746(3) 0.3533(2) 0.3185(3)
N7 N 0.4960(4) 0.6102(3) 0.0879(3)
C34 C 0.5429(4) 0.5108(3) 0.1694(4)
H21 H 0.5763 0.5124 0.1154
C35 C 0.4956(5) 0.5583(4) 0.1711(3)
C36 C 0.4204(5) 0.6110(4) 0.0535(4)
H22 H 0.3616 0.5747 0.0785
C41 C 0.6644(7) 0.7044(5) 0.0438(5)
H26 H 0.6876 0.6806 0.0892
C42 C 0.5712(6) 0.6736(4) 0.0358(4)
O5 O 0.5746(3) 0.2213(2) 0.1815(3)
C43 C 0.5920(5) 0.1840(5) 0.2500
C44 C 0.5396(5) 0.0791(5) 0.2500
C45 C 0.5429(4) 0.0321(3) 0.3306(4)
H27 H 0.5763 0.0639 0.3846
H33 H 0.6876 0.0070 0.4108
O6 O 0.6467(2) 0.2213(2) 0.3185(3)
C55 C 0.4892(3) 0.0321(3) 0.1694(4)
H34 H 0.4876 0.0639 0.1154
H39 H 0.3194 0.0070 0.0892
Ni2 Ni 0.6667 0.3333 0.39567(7)
N13 N 0.7706(3) 0.3316(3) 0.4813(3)
N14 N 0.6684(3) 0.4390(4) 0.4813(3)
N15 N 0.5610(4) 0.2294(3) 0.4813(3)
N16 N 0.6684(3) 0.2294(3) 0.0187(3)
N17 N 0.7706(3) 0.4390(4) 0.0187(3)
N18 N 0.5610(4) 0.3316(3) 0.0187(3)
N8 N 0.4390(4) 0.6684(3) 0.9813(3)
C37 C 0.5344(5) 0.7092(4) 0.9679(4)
C38 C 0.5931(6) 0.7765(4) 0.9026(4)
H23 H 0.5701 0.7991 0.8556
C39 C 0.6865(7) 0.8080(5) 0.9104(5)
H24 H 0.7272 0.8536 0.8687
C40 C 0.7211(7) 0.7729(5) 0.9797(5)
H25 H 0.7844 0.7963 0.9830
N9 N 0.4960(4) 0.8858(3) 0.4121(3)
N10 N 0.4390(4) 0.7706(3) 0.5187(3)
C46 C 0.4956(5) 0.9373(3) 0.3289(3)
C47 C 0.4442(5) 0.8884(5) 0.2500
H28 H 0.4122 0.8244 0.2500
C48 C 0.4204(5) 0.8094(3) 0.4465(4)
H29 H 0.3616 0.7869 0.4215
C49 C 0.5344(5) 0.8252(3) 0.5321(4)
C50 C 0.5931(6) 0.8166(4) 0.5974(4)
H30 H 0.5701 0.7710 0.6444
C51 C 0.6865(7) 0.8785(5) 0.5896(5)
H31 H 0.7272 0.8736 0.6313
C52 C 0.7211(7) 0.9482(5) 0.5203(5)
H32 H 0.7844 0.9881 0.5170
C53 C 0.6644(7) 0.9600(5) 0.4562(5)
C54 C 0.5712(6) 0.8976(4) 0.4642(4)
N11 N 0.3898(3) 0.8858(3) 0.0879(3)
C56 C 0.4417(4) 0.9373(3) 0.1711(3)
C57 C 0.3890(4) 0.8094(3) 0.0535(4)
H35 H 0.4253 0.7869 0.0785
C62 C 0.2956(5) 0.9600(5) 0.0438(5)
C63 C 0.3264(4) 0.8976(4) 0.0358(4)
N12 N 0.3316(3) 0.7706(3) 0.9813(3)
C58 C 0.2908(4) 0.8252(3) 0.9679(4)
C59 C 0.2235(4) 0.8166(4) 0.9026(4)
H36 H 0.2009 0.7710 0.8556
C60 C 0.1920(5) 0.8785(5) 0.9104(5)
H37 H 0.1464 0.8736 0.8687
C61 C 0.2271(5) 0.9482(5) 0.9797(5)
H38 H 0.2037 0.9881 0.9830
C58_2 C 0.7092(4) 0.1748(3) 0.0321(4)
C59_2 C 0.7765(4) 0.1834(4) 0.0974(4)
H36_2 H 0.7991 0.2290 0.1444
C60_2 C 0.8080(5) 0.1215(5) 0.0896(5)
H37_2 H 0.8536 0.1264 0.1313
C61_2 C 0.7729(5) 0.0518(5) 0.0203(5)
H38_2 H 0.7963 0.0119 0.0170
N9_2 N 0.5040(4) 0.1142(3) 0.5879(3)
C46_2 C 0.5044(5) 0.0627(3) 0.6711(3)
C47_2 C 0.5558(5) 0.1116(5) 0.7500
H28_2 H 0.5878 0.1756 0.7500
C48_2 C 0.5796(5) 0.1906(3) 0.5535(4)
H29_2 H 0.6384 0.2131 0.5785
C49_2 C 0.4656(5) 0.1748(3) 0.4679(4)
C50_2 C 0.4069(6) 0.1834(4) 0.4026(4)
H30_2 H 0.4299 0.2290 0.3556
C51_2 C 0.3135(7) 0.1215(5) 0.4104(5)
H31_2 H 0.2728 0.1264 0.3687
C52_2 C 0.2789(7) 0.0518(5) 0.4797(5)
H32_2 H 0.2156 0.0119 0.4830
C53_2 C 0.3356(7) 0.0400(5) 0.5438(5)
C54_2 C 0.4288(6) 0.1024(4) 0.5358(4)
N11_2 N 0.6102(3) 0.1142(3) 0.9121(3)
C56_2 C 0.5583(4) 0.0627(3) 0.8289(3)
C57_2 C 0.6110(4) 0.1906(3) 0.9465(4)
H35_2 H 0.5747 0.2131 0.9215
C62_2 C 0.7044(5) 0.0400(5) 0.9562(5)
C63_2 C 0.6736(4) 0.1024(4) 0.9642(4)
C37_2 C 0.4656(5) 0.2908(4) 0.0321(4)
C38_2 C 0.4069(6) 0.2235(4) 0.0974(4)
H23_2 H 0.4299 0.2009 0.1444
C39_2 C 0.3135(7) 0.1920(5) 0.0896(5)
H24_2 H 0.2728 0.1464 0.1313
C40_2 C 0.2789(7) 0.2271(5) 0.0203(5)
H25_2 H 0.2156 0.2037 0.0170
O1_2 O 0.2213(2) 0.6467(2) 0.8185(3)
C1_2 C 0.1840(5) 0.5920(2) 0.7500
C2_2 C 0.0791(5) 0.5395(2) 0.7500
C3_2 C 0.0321(3) 0.4892(3) 0.6694(4)
H1_2 H 0.0639 0.4876 0.6154
H7_2 H 0.0070 0.3194 0.5892
O2_2 O 0.2213(2) 0.5746(3) 0.6815(3)
C13_2 C 0.0321(3) 0.5429(4) 0.8306(4)
H8_2 H 0.0639 0.5763 0.8846
H13_2 H 0.0070 0.6876 0.9108
O3_2 O 0.3533(2) 0.5746(3) 0.8185(3)
N5_2 N 0.6102(3) 0.4960(4) 0.5879(3)
C22_2 C 0.4080(2) 0.5920(5) 0.7500
C23_2 C 0.4605(2) 0.5396(5) 0.7500
C24_2 C 0.5108(3) 0.5429(4) 0.6694(4)
H14_2 H 0.5124 0.5763 0.6154
C25_2 C 0.5583(4) 0.4956(5) 0.6711(3)
C26_2 C 0.5558(2) 0.4442(5) 0.7500
H15_2 H 0.5878 0.4122 0.7500
C27_2 C 0.6110(4) 0.4204(5) 0.5535(4)
H16_2 H 0.5747 0.3616 0.5785
C28_2 C 0.7092(4) 0.5344(5) 0.4679(4)
C29_2 C 0.7765(4) 0.5931(6) 0.4026(4)
H17_2 H 0.7991 0.5701 0.3556
C30_2 C 0.8080(5) 0.6865(7) 0.4104(5)
H18_2 H 0.8536 0.7272 0.3687
C31_2 C 0.7729(5) 0.7211(7) 0.4797(5)
H19_2 H 0.7963 0.7844 0.4830
C32_2 C 0.7044(5) 0.6644(7) 0.5438(5)
H20_2 H 0.6806 0.6876 0.5892
C33_2 C 0.6736(4) 0.5712(6) 0.5358(4)
O4_2 O 0.4254(3) 0.6467(2) 0.6815(3)
N7_2 N 0.5040(4) 0.3898(3) 0.9121(3)
C34_2 C 0.4571(4) 0.4892(3) 0.8306(4)
H21_2 H 0.4237 0.4876 0.8846
C35_2 C 0.5044(5) 0.4417(4) 0.8289(3)
C36_2 C 0.5796(5) 0.3890(4) 0.9465(4)
H22_2 H 0.6384 0.4253 0.9215
C41_2 C 0.3356(7) 0.2956(5) 0.9562(5)
H26_2 H 0.3124 0.3194 0.9108
C42_2 C 0.4288(6) 0.3264(4) 0.9642(4)
O5_2 O 0.4254(3) 0.7787(2) 0.8185(3)
C43_2 C 0.4080(5) 0.8160(5) 0.7500
C44_2 C 0.4604(5) 0.9209(5) 0.7500
C45_2 C 0.4571(4) 0.9679(3) 0.6694(4)
H27_2 H 0.4237 0.9361 0.6154
H33_2 H 0.3124 0.9930 0.5892
O6_2 O 0.3533(2) 0.7787(2) 0.6815(3)
C55_2 C 0.5108(3) 0.9679(3) 0.8306(4)
H34_2 H 0.5124 0.9361 0.8846
H39_2 H 0.6806 0.9930 0.9108
C16_2 C 0.8252(3) 0.5344(5) 0.0321(4)
C17_2 C 0.8166(4) 0.5931(6) 0.0974(4)
H10_2 H 0.7710 0.5701 0.1444
C18_2 C 0.8785(5) 0.6865(7) 0.0896(5)
H11_2 H 0.8736 0.7272 0.1313
C19_2 C 0.9482(5) 0.7211(7) 0.0203(5)
H12_2 H 0.9881 0.7844 0.0170
N1_2 N 0.8858(3) 0.3898(3) 0.5879(3)
C4_2 C 0.9373(3) 0.4417(4) 0.6711(3)
C5_2 C 0.8884(5) 0.4442(2) 0.7500
H2_2 H 0.8244 0.4122 0.7500
C6_2 C 0.8094(3) 0.3890(4) 0.5535(4)
H3_2 H 0.7869 0.4253 0.5785
C7_2 C 0.8252(3) 0.2908(4) 0.4679(4)
C8_2 C 0.8166(4) 0.2235(4) 0.4026(4)
H4_2 H 0.7710 0.2009 0.3556
C9_2 C 0.8785(5) 0.1920(5) 0.4104(5)
H5_2 H 0.8736 0.1464 0.3687
C10_2 C 0.9482(5) 0.2271(5) 0.4797(5)
H6_2 H 0.9881 0.2037 0.4830
C11_2 C 0.9600(5) 0.2956(5) 0.5438(5)
C12_2 C 0.8976(4) 0.3264(4) 0.5358(4)
N3_2 N 0.8858(3) 0.4960(4) 0.9121(3)
C14_2 C 0.9373(3) 0.4956(5) 0.8289(3)
C15_2 C 0.8094(3) 0.4204(5) 0.9465(4)
H9_2 H 0.7869 0.3616 0.9215
C20_2 C 0.9600(5) 0.6644(7) 0.9562(5)
C21_2 C 0.8976(4) 0.5712(6) 0.9642(4)
loop_
_geom_bond_atom_site_label_1
_geom_bond_atom_site_label_2
_geom_bond_site_symmetry_1
_geom_bond_site_symmetry_2
F1 B1 1_555 1_555
F2 B1 1_555 1_555
B1 F3 1_555 1_555
F4 B1 1_555 1_555
F1_2 B1_2 1_555 1_555
F2_2 B1_2 1_555 1_555
B1_2 F3_2 1_555 1_555
F4_2 B1_2 1_555 1_555
F1_3 B1_3 1_555 1_555
F2_3 B1_3 1_555 1_555
B1_3 F3_3 1_555 1_555
F4_3 B1_3 1_555 1_555
F1_4 B1_4 1_555 1_555
F2_4 B1_4 1_555 1_555
B1_4 F3_4 1_555 1_555
F4_4 B1_4 1_555 1_555
F1_5 B1_5 1_555 1_555
F2_5 B1_5 1_555 1_555
B1_5 F3_5 1_555 1_555
F4_5 B1_5 1_555 1_555
F1_6 B1_6 1_555 1_555
F2_6 B1_6 1_555 1_555
B1_6 F3_6 1_555 1_555
F4_6 B1_6 1_555 1_555
N1 C4 1_555 1_555
N2 C6 1_555 1_555
C5 C4 1_555 1_555
H2 C5 1_555 1_555
C6 N1 1_555 1_555
H3 C6 1_555 1_555
C7 N2 1_555 1_555
C8 C7 1_555 1_555
H4 C8 1_555 1_555
C9 C8 1_555 1_555
H5 C9 1_555 1_555
C10 C9 1_555 1_555
H6 C10 1_555 1_555
C11 C10 1_555 1_555
C12 N1 1_555 1_555
N3 C14 1_555 1_555
C14 C5 1_555 1_555
C15 N3 1_555 1_555
H9 C15 1_555 1_555
C21 N3 1_555 1_555
Ni8 N2 1_555 1_555
C7 C12 1_555 1_555
C11 C12 1_555 1_555
C20 C21 1_555 1_555
C16 N4 1_555 1_555
C17 C16 1_555 1_555
H10 C17 1_555 1_555
C18 C17 1_555 1_555
H11 C18 1_555 1_555
C19 C18 1_555 1_555
H12 C19 1_555 1_555
Ni5 N4 1_555 1_555
Ni1 O1 1_555 1_555
O1 C1 1_555 1_555
C1 C2 1_555 1_555
C2 C3 1_555 1_555
C3 H1 1_555 1_555
O2 C1 1_555 1_555
C13 C2 1_555 1_555
H8 C13 1_555 1_555
O3 Ni1 1_555 1_555
N5 C25 1_555 1_555
N6 C27 1_555 1_555
C22 O3 1_555 1_555
C23 C22 1_555 1_555
C24 C23 1_555 1_555
H14 C24 1_555 1_555
C25 C24 1_555 1_555
C26 C25 1_555 1_555
H15 C26 1_555 1_555
C27 N5 1_555 1_555
H16 C27 1_555 1_555
C28 N6 1_555 1_555
C29 C28 1_555 1_555
H17 C29 1_555 1_555
C30 C29 1_555 1_555
H18 C30 1_555 1_555
C31 C30 1_555 1_555
H19 C31 1_555 1_555
C32 C31 1_555 1_555
H20 C32 1_555 1_555
C33 N5 1_555 1_555
O4 C22 1_555 1_555
N7 C35 1_555 1_555
C34 C23 1_555 1_555
H21 C34 1_555 1_555
C35 C26 1_555 1_555
C36 N7 1_555 1_555
H22 C36 1_555 1_555
H26 C41 1_555 1_555
C42 N7 1_555 1_555
O5 Ni1 1_555 1_555
C43 O5 1_555 1_555
C44 C43 1_555 1_555
C45 C44 1_555 1_555
H27 C45 1_555 1_555
O6 C43 1_555 1_555
C55 C44 1_555 1_555
H34 C55 1_555 1_555
Ni2 O2 1_555 1_555
Ni8 N6 1_555 1_555
N13 Ni2 1_555 1_555
N14 Ni2 1_555 1_555
N15 Ni2 1_555 1_555
N16 Ni1 1_555 1_555
N17 Ni1 1_555 1_555
N18 Ni1 1_555 1_555
C28 C33 1_555 1_555
C32 C33 1_555 1_555
O4 Ni2 1_555 1_555
C34 C35 1_555 1_555
C41 C42 1_555 1_555
O6 Ni2 1_555 1_555
C37 N8 1_555 1_555
C38 C37 1_555 1_555
H23 C38 1_555 1_555
C39 C38 1_555 1_555
H24 C39 1_555 1_555
C40 C39 1_555 1_555
H25 C40 1_555 1_555
Ni5 N8 1_555 1_555
N9 C46 1_555 1_555
N10 C48 1_555 1_555
C47 C46 1_555 1_555
H28 C47 1_555 1_555
C48 N9 1_555 1_555
H29 C48 1_555 1_555
C49 N10 1_555 1_555
C50 C49 1_555 1_555
H30 C50 1_555 1_555
C51 C50 1_555 1_555
H31 C51 1_555 1_555
C52 C51 1_555 1_555
H32 C52 1_555 1_555
C53 C52 1_555 1_555
C54 N9 1_555 1_555
N11 C56 1_555 1_555
C56 C47 1_555 1_555
C57 N11 1_555 1_555
H35 C57 1_555 1_555
C63 N11 1_555 1_555
Ni8 N10 1_555 1_555
C49 C54 1_555 1_555
C53 C54 1_555 1_555
C62 C63 1_555 1_555
C58 N12 1_555 1_555
C59 C58 1_555 1_555
H36 C59 1_555 1_555
C60 C59 1_555 1_555
H37 C60 1_555 1_555
C61 C60 1_555 1_555
H38 C61 1_555 1_555
Ni5 N12 1_555 1_555
C58_2 N16 1_555 1_555
C59_2 C58_2 1_555 1_555
H36_2 C59_2 1_555 1_555
C60_2 C59_2 1_555 1_555
H37_2 C60_2 1_555 1_555
C61_2 C60_2 1_555 1_555
H38_2 C61_2 1_555 1_555
N9_2 C46_2 1_555 1_555
N15 C48_2 1_555 1_555
C47_2 C46_2 1_555 1_555
H28_2 C47_2 1_555 1_555
C48_2 N9_2 1_555 1_555
H29_2 C48_2 1_555 1_555
C49_2 N15 1_555 1_555
C50_2 C49_2 1_555 1_555
H30_2 C50_2 1_555 1_555
C51_2 C50_2 1_555 1_555
H31_2 C51_2 1_555 1_555
C52_2 C51_2 1_555 1_555
H32_2 C52_2 1_555 1_555
C53_2 C52_2 1_555 1_555
C54_2 N9_2 1_555 1_555
N11_2 C56_2 1_555 1_555
C56_2 C47_2 1_555 1_555
C57_2 N11_2 1_555 1_555
H35_2 C57_2 1_555 1_555
C63_2 N11_2 1_555 1_555
C49_2 C54_2 1_555 1_555
C53_2 C54_2 1_555 1_555
C62_2 C63_2 1_555 1_555
C37_2 N18 1_555 1_555
C38_2 C37_2 1_555 1_555
H23_2 C38_2 1_555 1_555
C39_2 C38_2 1_555 1_555
H24_2 C39_2 1_555 1_555
C40_2 C39_2 1_555 1_555
H25_2 C40_2 1_555 1_555
Ni5 O1_2 1_555 1_555
O1_2 C1_2 1_555 1_555
C1_2 C2_2 1_555 1_555
C2_2 C3_2 1_555 1_555
C3_2 H1_2 1_555 1_555
O2_2 C1_2 1_555 1_555
C13_2 C2_2 1_555 1_555
H8_2 C13_2 1_555 1_555
O3_2 Ni5 1_555 1_555
N5_2 C25_2 1_555 1_555
N14 C27_2 1_555 1_555
C22_2 O3_2 1_555 1_555
C23_2 C22_2 1_555 1_555
C24_2 C23_2 1_555 1_555
H14_2 C24_2 1_555 1_555
C25_2 C24_2 1_555 1_555
C26_2 C25_2 1_555 1_555
H15_2 C26_2 1_555 1_555
C27_2 N5_2 1_555 1_555
H16_2 C27_2 1_555 1_555
C28_2 N14 1_555 1_555
C29_2 C28_2 1_555 1_555
H17_2 C29_2 1_555 1_555
C30_2 C29_2 1_555 1_555
H18_2 C30_2 1_555 1_555
C31_2 C30_2 1_555 1_555
H19_2 C31_2 1_555 1_555
C32_2 C31_2 1_555 1_555
H20_2 C32_2 1_555 1_555
C33_2 N5_2 1_555 1_555
O4_2 C22_2 1_555 1_555
N7_2 C35_2 1_555 1_555
C34_2 C23_2 1_555 1_555
H21_2 C34_2 1_555 1_555
C35_2 C26_2 1_555 1_555
C36_2 N7_2 1_555 1_555
H22_2 C36_2 1_555 1_555
H26_2 C41_2 1_555 1_555
C42_2 N7_2 1_555 1_555
O5_2 Ni5 1_555 1_555
C43_2 O5_2 1_555 1_555
C44_2 C43_2 1_555 1_555
C45_2 C44_2 1_555 1_555
H27_2 C45_2 1_555 1_555
O6_2 C43_2 1_555 1_555
C55_2 C44_2 1_555 1_555
H34_2 C55_2 1_555 1_555
Ni8 O2_2 1_555 1_555
C28_2 C33_2 1_555 1_555
C32_2 C33_2 1_555 1_555
O4_2 Ni8 1_555 1_555
C34_2 C35_2 1_555 1_555
C41_2 C42_2 1_555 1_555
O6_2 Ni8 1_555 1_555
C16_2 N17 1_555 1_555
C17_2 C16_2 1_555 1_555
H10_2 C17_2 1_555 1_555
C18_2 C17_2 1_555 1_555
H11_2 C18_2 1_555 1_555
C19_2 C18_2 1_555 1_555
H12_2 C19_2 1_555 1_555
N1_2 C4_2 1_555 1_555
N13 C6_2 1_555 1_555
C5_2 C4_2 1_555 1_555
H2_2 C5_2 1_555 1_555
C6_2 N1_2 1_555 1_555
H3_2 C6_2 1_555 1_555
C7_2 N13 1_555 1_555
C8_2 C7_2 1_555 1_555
H4_2 C8_2 1_555 1_555
C9_2 C8_2 1_555 1_555
H5_2 C9_2 1_555 1_555
C10_2 C9_2 1_555 1_555
H6_2 C10_2 1_555 1_555
C11_2 C10_2 1_555 1_555
C12_2 N1_2 1_555 1_555
N3_2 C14_2 1_555 1_555
C14_2 C5_2 1_555 1_555
C15_2 N3_2 1_555 1_555
H9_2 C15_2 1_555 1_555
C21_2 N3_2 1_555 1_555
C7_2 C12_2 1_555 1_555
C11_2 C12_2 1_555 1_555
C20_2 C21_2 1_555 1_555

#END
