
###############################################################################
#
# This file contains modified crystal structure data generated from the
# MOF subset of the Cambridge Structural Database (CSD) v543 
# hosted by the Cambridge Crystallographic Data Centre (CCDC).
#
# This work is licensed under the Creative Commons
# Attribution-NonCommercial-ShareAlike 4.0 International License.
# To view a copy of this license, visit
# http://creativecommons.org/licenses/by-nc-sa/4.0/
# or send a letter to
# Creative Commons, PO Box 1866, Mountain View, CA 94042, USA.
#
# CIF created using the CSD Python API on 29 September 2022
# The structure has been converted into the P1 space group
# The structure has a 3D framework
# The original CSD entry YOYPOT is in the trigonal crystal system
# The framework has been calculated to contain at least 10.0% void space
# The void calculation uses a probe of radius 1.32A, grid spacing 0.4
# The framework is charged, counterions have been retained in the structure
#
###############################################################################

data_YOYPOT
_chemical_formula_moiety         '(C126 H78 Co4 N26 O18)n'
_symmetry_cell_setting           triclinic
_symmetry_space_group_name_H-M   'P 1'
_symmetry_Int_Tables_number      1
_space_group_name_Hall           'P 1'
loop_
_symmetry_equiv_pos_site_id
_symmetry_equiv_pos_as_xyz
1 x,y,z
_cell_length_a                   17.030(5)
_cell_length_b                   17.030(5)
_cell_length_c                   13.908(5)
_cell_angle_alpha                90
_cell_angle_beta                 90
_cell_angle_gamma                120
_cell_volume                     3493.21
loop_
_atom_site_label
_atom_site_type_symbol
_atom_site_fract_x
_atom_site_fract_y
_atom_site_fract_z
O1 O 0.2879(4) 0.7121(4) 0.7500
N1 N 0.3333 0.6667 0.7500
O2 O 0.2879(4) 0.5758(6) 0.7500
O3 O 0.4242(6) 0.7121(4) 0.7500
O1_2 O 0.7121(4) 0.2879(4) 0.2500
N1_2 N 0.6667 0.3333 0.2500
O2_2 O 0.7121(4) 0.4242(6) 0.2500
O3_2 O 0.5758(6) 0.2879(4) 0.2500
N3 N 0.2274(2) 0.6672(2) 0.0148(2)
C7 C 0.1685(3) 0.6999(3) 0.0346(3)
C8 C 0.1757(4) 0.7619(4) 0.1043(3)
H4 H 0.2243 0.7878 0.1469
C9 C 0.1077(5) 0.7829(5) 0.1073(5)
H5 H 0.1102 0.8237 0.1534
C10 C 0.0350(5) 0.7448(6) 0.0431(5)
Co8 Co 0.3333 0.6667 0.10202(6)
N2 N 0.1085(2) 0.6031(2) 0.9132(2)
C4 C 0.0579(3) 0.5533(3) 0.8303(3)
C5 C 0.1050(4) 0.5525(2) 0.7500
H2 H 0.1680 0.5840 0.7500
C6 C 0.1881(3) 0.6096(3) 0.9418(2)
H3 H 0.2125 0.5772 0.9134
C11 C 0.0270(4) 0.6834(4) 0.9736(4)
C12 C 0.0942(3) 0.6608(3) 0.9716(3)
N4 N 0.1085(2) 0.5054(3) 0.5868(2)
N5 N 0.2274(2) 0.5602(3) 0.4852(2)
C14 C 0.0579(3) 0.5046(4) 0.6697(3)
C15 C 0.1881(3) 0.5785(4) 0.5582(2)
H9 H 0.2125 0.6353 0.5866
C16 C 0.1685(3) 0.4686(4) 0.4654(3)
C17 C 0.1757(4) 0.4138(6) 0.3957(3)
H10 H 0.2243 0.4365 0.3531
C18 C 0.1077(5) 0.3248(7) 0.3927(5)
H11 H 0.1102 0.2865 0.3466
C19 C 0.0350(5) 0.2902(8) 0.4569(5)
C20 C 0.0270(4) 0.3436(6) 0.5264(4)
C21 C 0.0942(3) 0.4334(4) 0.5284(3)
Co5 Co 0.3333 0.6667 0.39798(6)
H6 H 0.9906 0.7613 0.0472
N7 N 0.3328(2) 0.5602(3) 0.0148(2)
C28 C 0.3001(3) 0.4686(4) 0.0346(3)
C29 C 0.2381(4) 0.4138(6) 0.1043(3)
H17 H 0.2122 0.4365 0.1469
C30 C 0.2171(5) 0.3248(7) 0.1073(5)
H18 H 0.1763 0.2865 0.1534
C31 C 0.2552(6) 0.2902(8) 0.0431(5)
H19 H 0.2387 0.2293 0.0472
H32 H 0.7707 0.0094 0.0472
Co1 Co 0.6667 0.3333 0.60202(6)
O4 O 0.7780(2) 0.3536(2) 0.68089(19)
C1 C 0.8156(4) 0.4078(2) 0.7500
C2 C 0.9182(4) 0.4591(2) 0.7500
C3 C 0.9645(3) 0.5066(3) 0.8315(3)
H1 H 0.9330 0.5069 0.8860
H7 H 0.9789 0.6586 0.9304
O5 O 0.7780(2) 0.4244(3) 0.81911(19)
C13 C 0.9645(3) 0.4579(4) 0.6685(3)
H8 H 0.9330 0.4261 0.6140
H12 H 0.9906 0.2293 0.4528
H13 H 0.9789 0.3203 0.5696
O6 O 0.6464(2) 0.4244(3) 0.68089(19)
N6 N 0.3969(2) 0.5054(3) 0.9132(2)
C22 C 0.5922(2) 0.4078(4) 0.7500
C23 C 0.5409(2) 0.4591(4) 0.7500
C24 C 0.4934(3) 0.4579(4) 0.8315(3)
H14 H 0.4931 0.4261 0.8860
C25 C 0.4467(3) 0.5046(4) 0.8303(3)
C26 C 0.4475(2) 0.5525(4) 0.7500
H15 H 0.4160 0.5840 0.7500
C27 C 0.3904(3) 0.5785(4) 0.9418(2)
H16 H 0.4228 0.6353 0.9134
C32 C 0.3166(4) 0.3436(6) 0.9736(4)
H20 H 0.3414 0.3203 0.9304
C33 C 0.3392(3) 0.4334(4) 0.9716(3)
O7 O 0.5756(3) 0.3536(2) 0.81911(19)
N8 N 0.4946(3) 0.6031(2) 0.5868(2)
N9 N 0.4398(3) 0.6672(2) 0.4852(2)
C34 C 0.5421(4) 0.5066(3) 0.6685(3)
H21 H 0.5739 0.5069 0.6140
C35 C 0.4954(4) 0.5533(3) 0.6697(3)
C36 C 0.4215(4) 0.6096(3) 0.5582(2)
H22 H 0.3647 0.5772 0.5866
C37 C 0.5314(4) 0.6999(3) 0.4654(3)
C38 C 0.5862(6) 0.7619(4) 0.3957(3)
H23 H 0.5635 0.7878 0.3531
C39 C 0.6752(7) 0.7829(5) 0.3927(5)
H24 H 0.7135 0.8237 0.3466
C40 C 0.7098(8) 0.7448(6) 0.4569(5)
H25 H 0.7707 0.7613 0.4528
C41 C 0.6564(6) 0.6834(4) 0.5264(4)
H26 H 0.6797 0.6586 0.5696
C42 C 0.5666(4) 0.6608(3) 0.5284(3)
O8 O 0.5756(3) 0.2220(2) 0.68089(19)
C43 C 0.5922(4) 0.1844(4) 0.7500
C44 C 0.5409(4) 0.0818(4) 0.7500
C45 C 0.5421(4) 0.0355(3) 0.8315(3)
H27 H 0.5739 0.0670 0.8860
H33 H 0.6797 0.0211 0.9304
O9 O 0.6464(2) 0.2220(2) 0.81911(19)
C55 C 0.4934(3) 0.0355(3) 0.6685(3)
H34 H 0.4931 0.0670 0.6140
H38 H 0.2387 0.0094 0.4528
H39 H 0.3414 0.0211 0.5696
Co2 Co 0.6667 0.3333 0.89798(6)
N14 N 0.7726(2) 0.3328(2) 0.9852(2)
N15 N 0.6672(2) 0.4398(3) 0.9852(2)
N16 N 0.5602(3) 0.2274(2) 0.9852(2)
N17 N 0.6672(2) 0.2274(2) 0.5148(2)
N18 N 0.7726(2) 0.4398(3) 0.5148(2)
N19 N 0.5602(3) 0.3328(2) 0.5148(2)
N11 N 0.4398(3) 0.7726(2) 0.0148(2)
C49 C 0.5314(4) 0.8315(3) 0.0346(3)
C50 C 0.5862(6) 0.8243(4) 0.1043(3)
H30 H 0.5635 0.7757 0.1469
C51 C 0.6752(7) 0.8923(5) 0.1073(5)
H31 H 0.7135 0.8898 0.1534
C52 C 0.7098(8) 0.9650(5) 0.0431(5)
N10 N 0.4946(3) 0.8915(2) 0.9132(2)
C46 C 0.4954(4) 0.9421(3) 0.8303(3)
C47 C 0.4475(4) 0.8950(4) 0.7500
H28 H 0.4160 0.8320 0.7500
C48 C 0.4215(4) 0.8119(3) 0.9418(2)
H29 H 0.3647 0.7875 0.9134
C53 C 0.6564(6) 0.9730(4) 0.9736(4)
C54 C 0.5666(4) 0.9058(3) 0.9716(3)
N12 N 0.3969(2) 0.8915(2) 0.5868(2)
N13 N 0.3328(2) 0.7726(2) 0.4852(2)
C56 C 0.4467(3) 0.9421(3) 0.6697(3)
C57 C 0.3904(3) 0.8119(3) 0.5582(2)
H35 H 0.4228 0.7875 0.5866
C58 C 0.3001(3) 0.8315(3) 0.4654(3)
C59 C 0.2381(4) 0.8243(4) 0.3957(3)
H36 H 0.2122 0.7757 0.3531
C60 C 0.2171(5) 0.8923(5) 0.3927(5)
H37 H 0.1763 0.8898 0.3466
C61 C 0.2552(6) 0.9650(5) 0.4569(5)
C62 C 0.3166(4) 0.9730(4) 0.5264(4)
C63 C 0.3392(3) 0.9058(3) 0.5284(3)
N10_2 N 0.5054(3) 0.1085(2) 0.0868(2)
C46_2 C 0.5046(4) 0.0579(3) 0.1697(3)
C47_2 C 0.5525(4) 0.1050(4) 0.2500
H28_2 H 0.5840 0.1680 0.2500
C48_2 C 0.5785(4) 0.1881(3) 0.0582(2)
H29_2 H 0.6353 0.2125 0.0866
C53_2 C 0.3436(6) 0.0270(4) 0.0264(4)
C54_2 C 0.4334(4) 0.0942(3) 0.0284(3)
N12_2 N 0.6031(2) 0.1085(2) 0.4132(2)
C56_2 C 0.5533(3) 0.0579(3) 0.3303(3)
C57_2 C 0.6096(3) 0.1881(3) 0.4418(2)
H35_2 H 0.5772 0.2125 0.4134
C58_2 C 0.6999(3) 0.1685(3) 0.5346(3)
C59_2 C 0.7619(4) 0.1757(4) 0.6043(3)
H36_2 H 0.7878 0.2243 0.6469
C60_2 C 0.7829(5) 0.1077(5) 0.6073(5)
H37_2 H 0.8237 0.1102 0.6534
C61_2 C 0.7448(6) 0.0350(5) 0.5431(5)
C62_2 C 0.6834(4) 0.0270(4) 0.4736(4)
C63_2 C 0.6608(3) 0.0942(3) 0.4716(3)
C49_2 C 0.4686(4) 0.1685(3) 0.9654(3)
C50_2 C 0.4138(6) 0.1757(4) 0.8957(3)
H30_2 H 0.4365 0.2243 0.8531
C51_2 C 0.3248(7) 0.1077(5) 0.8927(5)
H31_2 H 0.2865 0.1102 0.8466
C52_2 C 0.2902(8) 0.0350(5) 0.9569(5)
O4_2 O 0.2220(2) 0.6464(2) 0.31911(19)
C1_2 C 0.1844(4) 0.5922(2) 0.2500
C2_2 C 0.0818(4) 0.5409(2) 0.2500
C3_2 C 0.0355(3) 0.4934(3) 0.1685(3)
H1_2 H 0.0670 0.4931 0.1140
H7_2 H 0.0211 0.3414 0.0696
O5_2 O 0.2220(2) 0.5756(3) 0.18089(19)
C13_2 C 0.0355(3) 0.5421(4) 0.3315(3)
H8_2 H 0.0670 0.5739 0.3860
H12_2 H 0.0094 0.7707 0.5472
H13_2 H 0.0211 0.6797 0.4304
O6_2 O 0.3536(2) 0.5756(3) 0.31911(19)
N6_2 N 0.6031(2) 0.4946(3) 0.0868(2)
C22_2 C 0.4078(2) 0.5922(4) 0.2500
C23_2 C 0.4591(2) 0.5409(4) 0.2500
C24_2 C 0.5066(3) 0.5421(4) 0.1685(3)
H14_2 H 0.5069 0.5739 0.1140
C25_2 C 0.5533(3) 0.4954(4) 0.1697(3)
C26_2 C 0.5525(2) 0.4475(4) 0.2500
H15_2 H 0.5840 0.4160 0.2500
C27_2 C 0.6096(3) 0.4215(4) 0.0582(2)
H16_2 H 0.5772 0.3647 0.0866
C32_2 C 0.6834(4) 0.6564(6) 0.0264(4)
H20_2 H 0.6586 0.6797 0.0696
C33_2 C 0.6608(3) 0.5666(4) 0.0284(3)
O7_2 O 0.4244(3) 0.6464(2) 0.18089(19)
N8_2 N 0.5054(3) 0.3969(2) 0.4132(2)
C34_2 C 0.4579(4) 0.4934(3) 0.3315(3)
H21_2 H 0.4261 0.4931 0.3860
C35_2 C 0.5046(4) 0.4467(3) 0.3303(3)
C36_2 C 0.5785(4) 0.3904(3) 0.4418(2)
H22_2 H 0.6353 0.4228 0.4134
C37_2 C 0.4686(4) 0.3001(3) 0.5346(3)
C38_2 C 0.4138(6) 0.2381(4) 0.6043(3)
H23_2 H 0.4365 0.2122 0.6469
C39_2 C 0.3248(7) 0.2171(5) 0.6073(5)
H24_2 H 0.2865 0.1763 0.6534
C40_2 C 0.2902(8) 0.2552(6) 0.5431(5)
H25_2 H 0.2293 0.2387 0.5472
C41_2 C 0.3436(6) 0.3166(4) 0.4736(4)
H26_2 H 0.3203 0.3414 0.4304
C42_2 C 0.4334(4) 0.3392(3) 0.4716(3)
O8_2 O 0.4244(3) 0.7780(2) 0.31911(19)
C43_2 C 0.4078(4) 0.8156(4) 0.2500
C44_2 C 0.4591(4) 0.9182(4) 0.2500
C45_2 C 0.4579(4) 0.9645(3) 0.1685(3)
H27_2 H 0.4261 0.9330 0.1140
H33_2 H 0.3203 0.9789 0.0696
O9_2 O 0.3536(2) 0.7780(2) 0.18089(19)
C55_2 C 0.5066(3) 0.9645(3) 0.3315(3)
H34_2 H 0.5069 0.9330 0.3860
H38_2 H 0.7613 0.9906 0.5472
H39_2 H 0.6586 0.9789 0.4304
H6_2 H 0.0094 0.2387 0.9528
C28_2 C 0.6999(3) 0.5314(4) 0.9654(3)
C29_2 C 0.7619(4) 0.5862(6) 0.8957(3)
H17_2 H 0.7878 0.5635 0.8531
C30_2 C 0.7829(5) 0.6752(7) 0.8927(5)
H18_2 H 0.8237 0.7135 0.8466
C31_2 C 0.7448(6) 0.7098(8) 0.9569(5)
H19_2 H 0.7613 0.7707 0.9528
H32_2 H 0.2293 0.9906 0.9528
N2_2 N 0.8915(2) 0.3969(2) 0.0868(2)
C4_2 C 0.9421(3) 0.4467(3) 0.1697(3)
C5_2 C 0.8950(4) 0.4475(2) 0.2500
H2_2 H 0.8320 0.4160 0.2500
C6_2 C 0.8119(3) 0.3904(3) 0.0582(2)
H3_2 H 0.7875 0.4228 0.0866
C11_2 C 0.9730(4) 0.3166(4) 0.0264(4)
C12_2 C 0.9058(3) 0.3392(3) 0.0284(3)
N4_2 N 0.8915(2) 0.4946(3) 0.4132(2)
C14_2 C 0.9421(3) 0.4954(4) 0.3303(3)
C15_2 C 0.8119(3) 0.4215(4) 0.4418(2)
H9_2 H 0.7875 0.3647 0.4134
C16_2 C 0.8315(3) 0.5314(4) 0.5346(3)
C17_2 C 0.8243(4) 0.5862(6) 0.6043(3)
H10_2 H 0.7757 0.5635 0.6469
C18_2 C 0.8923(5) 0.6752(7) 0.6073(5)
H11_2 H 0.8898 0.7135 0.6534
C19_2 C 0.9650(5) 0.7098(8) 0.5431(5)
C20_2 C 0.9730(4) 0.6564(6) 0.4736(4)
C21_2 C 0.9058(3) 0.5666(4) 0.4716(3)
C7_2 C 0.8315(3) 0.3001(3) 0.9654(3)
C8_2 C 0.8243(4) 0.2381(4) 0.8957(3)
H4_2 H 0.7757 0.2122 0.8531
C9_2 C 0.8923(5) 0.2171(5) 0.8927(5)
H5_2 H 0.8898 0.1763 0.8466
C10_2 C 0.9650(5) 0.2552(6) 0.9569(5)
loop_
_geom_bond_atom_site_label_1
_geom_bond_atom_site_label_2
_geom_bond_site_symmetry_1
_geom_bond_site_symmetry_2
O1 N1 1_555 1_555
N1 O2 1_555 1_555
O3 N1 1_555 1_555
O1_2 N1_2 1_555 1_555
N1_2 O2_2 1_555 1_555
O3_2 N1_2 1_555 1_555
C7 N3 1_555 1_555
C8 C7 1_555 1_555
H4 C8 1_555 1_555
C9 C8 1_555 1_555
H5 C9 1_555 1_555
C10 C9 1_555 1_555
Co8 N3 1_555 1_555
N2 C4 1_555 1_555
C5 C4 1_555 1_555
H2 C5 1_555 1_555
C6 N2 1_555 1_555
H3 C6 1_555 1_555
C12 N2 1_555 1_555
N4 C14 1_555 1_555
N5 C15 1_555 1_555
C14 C5 1_555 1_555
C15 N4 1_555 1_555
H9 C15 1_555 1_555
C16 N5 1_555 1_555
C17 C16 1_555 1_555
H10 C17 1_555 1_555
C18 C17 1_555 1_555
H11 C18 1_555 1_555
C19 C18 1_555 1_555
C20 C19 1_555 1_555
C21 N4 1_555 1_555
Co5 N5 1_555 1_555
C11 C12 1_555 1_555
C16 C21 1_555 1_555
C20 C21 1_555 1_555
C28 N7 1_555 1_555
C29 C28 1_555 1_555
H17 C29 1_555 1_555
C30 C29 1_555 1_555
H18 C30 1_555 1_555
C31 C30 1_555 1_555
H19 C31 1_555 1_555
Co8 N7 1_555 1_555
Co1 O4 1_555 1_555
O4 C1 1_555 1_555
C1 C2 1_555 1_555
C2 C3 1_555 1_555
C3 H1 1_555 1_555
O5 C1 1_555 1_555
C13 C2 1_555 1_555
H8 C13 1_555 1_555
O6 Co1 1_555 1_555
N6 C25 1_555 1_555
C22 O6 1_555 1_555
C23 C22 1_555 1_555
C24 C23 1_555 1_555
H14 C24 1_555 1_555
C25 C24 1_555 1_555
C26 C25 1_555 1_555
H15 C26 1_555 1_555
C27 N6 1_555 1_555
H16 C27 1_555 1_555
H20 C32 1_555 1_555
C33 N6 1_555 1_555
O7 C22 1_555 1_555
N8 C35 1_555 1_555
N9 C36 1_555 1_555
C34 C23 1_555 1_555
H21 C34 1_555 1_555
C35 C26 1_555 1_555
C36 N8 1_555 1_555
H22 C36 1_555 1_555
C37 N9 1_555 1_555
C38 C37 1_555 1_555
H23 C38 1_555 1_555
C39 C38 1_555 1_555
H24 C39 1_555 1_555
C40 C39 1_555 1_555
H25 C40 1_555 1_555
C41 C40 1_555 1_555
H26 C41 1_555 1_555
C42 N8 1_555 1_555
O8 Co1 1_555 1_555
C43 O8 1_555 1_555
C44 C43 1_555 1_555
C45 C44 1_555 1_555
H27 C45 1_555 1_555
O9 C43 1_555 1_555
C55 C44 1_555 1_555
H34 C55 1_555 1_555
Co2 O5 1_555 1_555
Co5 N9 1_555 1_555
N14 Co2 1_555 1_555
N15 Co2 1_555 1_555
N16 Co2 1_555 1_555
N17 Co1 1_555 1_555
N18 Co1 1_555 1_555
N19 Co1 1_555 1_555
C32 C33 1_555 1_555
O7 Co2 1_555 1_555
C34 C35 1_555 1_555
C37 C42 1_555 1_555
C41 C42 1_555 1_555
O9 Co2 1_555 1_555
C49 N11 1_555 1_555
C50 C49 1_555 1_555
H30 C50 1_555 1_555
C51 C50 1_555 1_555
H31 C51 1_555 1_555
C52 C51 1_555 1_555
Co8 N11 1_555 1_555
N10 C46 1_555 1_555
C47 C46 1_555 1_555
H28 C47 1_555 1_555
C48 N10 1_555 1_555
H29 C48 1_555 1_555
C54 N10 1_555 1_555
N12 C56 1_555 1_555
N13 C57 1_555 1_555
C56 C47 1_555 1_555
C57 N12 1_555 1_555
H35 C57 1_555 1_555
C58 N13 1_555 1_555
C59 C58 1_555 1_555
H36 C59 1_555 1_555
C60 C59 1_555 1_555
H37 C60 1_555 1_555
C61 C60 1_555 1_555
C62 C61 1_555 1_555
C63 N12 1_555 1_555
Co5 N13 1_555 1_555
C53 C54 1_555 1_555
C58 C63 1_555 1_555
C62 C63 1_555 1_555
N10_2 C46_2 1_555 1_555
C47_2 C46_2 1_555 1_555
H28_2 C47_2 1_555 1_555
C48_2 N10_2 1_555 1_555
H29_2 C48_2 1_555 1_555
C54_2 N10_2 1_555 1_555
N12_2 C56_2 1_555 1_555
N17 C57_2 1_555 1_555
C56_2 C47_2 1_555 1_555
C57_2 N12_2 1_555 1_555
H35_2 C57_2 1_555 1_555
C58_2 N17 1_555 1_555
C59_2 C58_2 1_555 1_555
H36_2 C59_2 1_555 1_555
C60_2 C59_2 1_555 1_555
H37_2 C60_2 1_555 1_555
C61_2 C60_2 1_555 1_555
C62_2 C61_2 1_555 1_555
C63_2 N12_2 1_555 1_555
C53_2 C54_2 1_555 1_555
C58_2 C63_2 1_555 1_555
C62_2 C63_2 1_555 1_555
C49_2 N16 1_555 1_555
C50_2 C49_2 1_555 1_555
H30_2 C50_2 1_555 1_555
C51_2 C50_2 1_555 1_555
H31_2 C51_2 1_555 1_555
C52_2 C51_2 1_555 1_555
Co5 O4_2 1_555 1_555
O4_2 C1_2 1_555 1_555
C1_2 C2_2 1_555 1_555
C2_2 C3_2 1_555 1_555
C3_2 H1_2 1_555 1_555
O5_2 C1_2 1_555 1_555
C13_2 C2_2 1_555 1_555
H8_2 C13_2 1_555 1_555
O6_2 Co5 1_555 1_555
N6_2 C25_2 1_555 1_555
C22_2 O6_2 1_555 1_555
C23_2 C22_2 1_555 1_555
C24_2 C23_2 1_555 1_555
H14_2 C24_2 1_555 1_555
C25_2 C24_2 1_555 1_555
C26_2 C25_2 1_555 1_555
H15_2 C26_2 1_555 1_555
C27_2 N6_2 1_555 1_555
H16_2 C27_2 1_555 1_555
H20_2 C32_2 1_555 1_555
C33_2 N6_2 1_555 1_555
O7_2 C22_2 1_555 1_555
N8_2 C35_2 1_555 1_555
N19 C36_2 1_555 1_555
C34_2 C23_2 1_555 1_555
H21_2 C34_2 1_555 1_555
C35_2 C26_2 1_555 1_555
C36_2 N8_2 1_555 1_555
H22_2 C36_2 1_555 1_555
C37_2 N19 1_555 1_555
C38_2 C37_2 1_555 1_555
H23_2 C38_2 1_555 1_555
C39_2 C38_2 1_555 1_555
H24_2 C39_2 1_555 1_555
C40_2 C39_2 1_555 1_555
H25_2 C40_2 1_555 1_555
C41_2 C40_2 1_555 1_555
H26_2 C41_2 1_555 1_555
C42_2 N8_2 1_555 1_555
O8_2 Co5 1_555 1_555
C43_2 O8_2 1_555 1_555
C44_2 C43_2 1_555 1_555
C45_2 C44_2 1_555 1_555
H27_2 C45_2 1_555 1_555
O9_2 C43_2 1_555 1_555
C55_2 C44_2 1_555 1_555
H34_2 C55_2 1_555 1_555
Co8 O5_2 1_555 1_555
C32_2 C33_2 1_555 1_555
O7_2 Co8 1_555 1_555
C34_2 C35_2 1_555 1_555
C37_2 C42_2 1_555 1_555
C41_2 C42_2 1_555 1_555
O9_2 Co8 1_555 1_555
C28_2 N15 1_555 1_555
C29_2 C28_2 1_555 1_555
H17_2 C29_2 1_555 1_555
C30_2 C29_2 1_555 1_555
H18_2 C30_2 1_555 1_555
C31_2 C30_2 1_555 1_555
H19_2 C31_2 1_555 1_555
N2_2 C4_2 1_555 1_555
C5_2 C4_2 1_555 1_555
H2_2 C5_2 1_555 1_555
C6_2 N2_2 1_555 1_555
H3_2 C6_2 1_555 1_555
C12_2 N2_2 1_555 1_555
N4_2 C14_2 1_555 1_555
N18 C15_2 1_555 1_555
C14_2 C5_2 1_555 1_555
C15_2 N4_2 1_555 1_555
H9_2 C15_2 1_555 1_555
C16_2 N18 1_555 1_555
C17_2 C16_2 1_555 1_555
H10_2 C17_2 1_555 1_555
C18_2 C17_2 1_555 1_555
H11_2 C18_2 1_555 1_555
C19_2 C18_2 1_555 1_555
C20_2 C19_2 1_555 1_555
C21_2 N4_2 1_555 1_555
C11_2 C12_2 1_555 1_555
C16_2 C21_2 1_555 1_555
C20_2 C21_2 1_555 1_555
C7_2 N14 1_555 1_555
C8_2 C7_2 1_555 1_555
H4_2 C8_2 1_555 1_555
C9_2 C8_2 1_555 1_555
H5_2 C9_2 1_555 1_555
C10_2 C9_2 1_555 1_555

#END
