
###############################################################################
#
# This file contains modified crystal structure data generated from the
# MOF subset of the Cambridge Structural Database (CSD) v543 
# hosted by the Cambridge Crystallographic Data Centre (CCDC).
#
# This work is licensed under the Creative Commons
# Attribution-NonCommercial-ShareAlike 4.0 International License.
# To view a copy of this license, visit
# http://creativecommons.org/licenses/by-nc-sa/4.0/
# or send a letter to
# Creative Commons, PO Box 1866, Mountain View, CA 94042, USA.
#
# CIF created using the CSD Python API on 29 September 2022
# The structure has been converted into the P1 space group
# The structure has a 3D framework
# The original CSD entry YOYPIN is in the trigonal crystal system
# The framework has been calculated to contain at least 10.0% void space
# The void calculation uses a probe of radius 1.32A, grid spacing 0.4
# The framework is charged, counterions have been retained in the structure
#
###############################################################################

data_YOYPIN
_chemical_formula_moiety         '(C126 H78 Cl6 Co4 N24 O36 4-)n'
_symmetry_cell_setting           triclinic
_symmetry_space_group_name_H-M   'P 1'
_symmetry_Int_Tables_number      1
_space_group_name_Hall           'P 1'
loop_
_symmetry_equiv_pos_site_id
_symmetry_equiv_pos_as_xyz
1 x,y,z
_cell_length_a                   16.901(5)
_cell_length_b                   16.901(5)
_cell_length_c                   14.082(5)
_cell_angle_alpha                90
_cell_angle_beta                 90
_cell_angle_gamma                120
_cell_volume                     3483.53
loop_
_atom_site_label
_atom_site_type_symbol
_atom_site_fract_x
_atom_site_fract_y
_atom_site_fract_z
Cl1 Cl 0.1971(3) 0.3942(5) 0.2500
O1 O 0.2344(11) 0.3370(10) 0.2704(9)
O2 O 0.2116(14) 0.4533(13) 0.3214(15)
O3 O 0.1026(15) 0.3370(10) 0.2296(9)
O4 O 0.2417(19) 0.4533(13) 0.1786(15)
Cl1_2 Cl 0.6058(5) 0.8029(6) 0.2500
O1_2 O 0.6630(10) 0.8974(15) 0.2704(9)
O2_2 O 0.5467(13) 0.7583(19) 0.3214(15)
O3_2 O 0.6630(10) 0.7656(18) 0.2296(9)
O4_2 O 0.5467(13) 0.7884(23) 0.1786(15)
Cl1_3 Cl 0.1971(6) 0.8029(3) 0.2500
O1_3 O 0.1026(15) 0.7656(11) 0.2704(9)
O2_3 O 0.2417(19) 0.7884(14) 0.3214(15)
O3_3 O 0.2344(18) 0.8974(15) 0.2296(9)
O4_3 O 0.2116(23) 0.7583(19) 0.1786(15)
Cl1_4 Cl 0.8029(3) 0.6058(5) 0.7500
O1_4 O 0.7656(11) 0.6630(10) 0.7296(9)
O2_4 O 0.7884(14) 0.5467(13) 0.6786(15)
O3_4 O 0.8974(15) 0.6630(10) 0.7704(9)
O4_4 O 0.7583(19) 0.5467(13) 0.8214(15)
Cl1_5 Cl 0.3942(5) 0.1971(6) 0.7500
O1_5 O 0.3370(10) 0.1026(15) 0.7296(9)
O2_5 O 0.4533(13) 0.2417(19) 0.6786(15)
O3_5 O 0.3370(10) 0.2344(18) 0.7704(9)
O4_5 O 0.4533(13) 0.2116(23) 0.8214(15)
Cl1_6 Cl 0.8029(6) 0.1971(3) 0.7500
O1_6 O 0.8974(15) 0.2344(11) 0.7296(9)
O2_6 O 0.7583(19) 0.2116(14) 0.6786(15)
O3_6 O 0.7656(18) 0.1026(15) 0.7704(9)
O4_6 O 0.7884(23) 0.2417(19) 0.8214(15)
N1 N 0.1114(3) 0.6047(3) 0.4116(3)
N2 N 0.2275(3) 0.6669(3) 0.5160(3)
C4 C 0.0615(4) 0.5559(4) 0.3293(4)
C5 C 0.1087(5) 0.5544(3) 0.2500
H2 H 0.1723 0.5861 0.2500
C6 C 0.1907(4) 0.6122(4) 0.4429(4)
H3 H 0.2170 0.5810 0.4147
C7 C 0.1678(4) 0.6994(4) 0.5345(4)
C8 C 0.1721(5) 0.7590(5) 0.6058(5)
H4 H 0.2201 0.7841 0.6491
C9 C 0.1036(6) 0.7792(7) 0.6096(6)
H5 H 0.1048 0.8186 0.6565
C10 C 0.0307(6) 0.7413(7) 0.5437(7)
C11 C 0.0264(5) 0.6827(5) 0.4719(5)
C12 C 0.0948(4) 0.6620(4) 0.4707(4)
N3 N 0.1114(3) 0.5067(4) 0.0884(3)
C14 C 0.0615(4) 0.5056(6) 0.1707(4)
C15 C 0.1907(4) 0.5785(6) 0.0571(4)
H9 H 0.2170 0.6360 0.0853
C20 C 0.0264(5) 0.3437(7) 0.0281(5)
C21 C 0.0948(4) 0.4328(6) 0.0293(4)
Co8 Co 0.3333 0.6667 0.60379(8)
N4 N 0.2275(3) 0.5606(4) 0.9840(3)
C16 C 0.1678(4) 0.4684(6) 0.9655(4)
C17 C 0.1721(5) 0.4131(7) 0.8942(5)
H10 H 0.2201 0.4360 0.8509
C18 C 0.1036(6) 0.3244(9) 0.8904(6)
H11 H 0.1048 0.2862 0.8435
C19 C 0.0307(6) 0.2894(9) 0.9563(7)
Co5 Co 0.3333 0.6667 0.89621(8)
Co1 Co 0.6667 0.3333 0.10379(8)
O5 O 0.7790(2) 0.3545(2) 0.1816(2)
C1 C 0.8169(5) 0.4084(2) 0.2500
C2 C 0.9200(5) 0.4600(3) 0.2500
C3 C 0.9672(4) 0.5080(4) 0.3296(4)
H1 H 0.9355 0.5080 0.3835
H6 H 0.9846 0.7560 0.5484
H7 H 0.9795 0.6590 0.4272
O6 O 0.7790(2) 0.4245(3) 0.3184(2)
C13 C 0.9672(4) 0.4592(6) 0.1704(4)
H8 H 0.9355 0.4275 0.1165
H13 H 0.9795 0.3205 0.0728
O7 O 0.6455(2) 0.4245(3) 0.1816(2)
N5 N 0.3953(3) 0.5067(4) 0.4116(3)
N6 N 0.3331(3) 0.5606(4) 0.5160(3)
C22 C 0.5916(2) 0.4085(5) 0.2500
C23 C 0.5400(3) 0.4600(6) 0.2500
C24 C 0.4920(4) 0.4592(6) 0.3296(4)
H14 H 0.4920 0.4275 0.3835
C25 C 0.4441(4) 0.5056(6) 0.3293(4)
C26 C 0.4456(3) 0.5543(6) 0.2500
H15 H 0.4139 0.5862 0.2500
C27 C 0.3878(4) 0.5785(6) 0.4429(4)
H16 H 0.4190 0.6360 0.4147
C28 C 0.3006(4) 0.4684(6) 0.5345(4)
C29 C 0.2410(5) 0.4131(7) 0.6058(5)
H17 H 0.2159 0.4360 0.6491
C30 C 0.2208(7) 0.3244(9) 0.6096(6)
H18 H 0.1814 0.2862 0.6565
C31 C 0.2587(7) 0.2894(9) 0.5437(7)
H19 H 0.2440 0.2286 0.5484
C32 C 0.3173(5) 0.3437(7) 0.4719(5)
H20 H 0.3410 0.3205 0.4272
C33 C 0.3380(4) 0.4328(6) 0.4707(4)
O8 O 0.5755(3) 0.3545(2) 0.3184(2)
N7 N 0.4933(4) 0.6047(3) 0.0884(3)
C34 C 0.5408(6) 0.5080(4) 0.1704(4)
H21 H 0.5725 0.5080 0.1165
C35 C 0.4944(6) 0.5559(4) 0.1707(4)
C36 C 0.4215(6) 0.6122(4) 0.0571(4)
H22 H 0.3640 0.5810 0.0853
C41 C 0.6563(7) 0.6827(5) 0.0281(5)
H26 H 0.6795 0.6590 0.0728
C42 C 0.5672(6) 0.6620(4) 0.0293(4)
O9 O 0.5755(3) 0.2210(2) 0.1816(2)
C43 C 0.5915(5) 0.1831(5) 0.2500
C44 C 0.5400(6) 0.0800(5) 0.2500
C45 C 0.5408(6) 0.0328(4) 0.3296(4)
H27 H 0.5725 0.0645 0.3835
H32 H 0.7714 0.0154 0.5484
H33 H 0.6795 0.0205 0.4272
O10 O 0.6455(2) 0.2210(2) 0.3184(2)
C55 C 0.4920(4) 0.0328(4) 0.1704(4)
H34 H 0.4920 0.0645 0.1165
H39 H 0.3410 0.0205 0.0728
Co2 Co 0.6667 0.3333 0.39621(8)
N13 N 0.7725(3) 0.3331(3) 0.4840(3)
N14 N 0.6669(3) 0.4394(4) 0.4840(3)
N15 N 0.5606(4) 0.2275(3) 0.4840(3)
N16 N 0.6669(3) 0.2275(3) 0.0160(3)
N17 N 0.7725(3) 0.4394(4) 0.0160(3)
N18 N 0.5606(4) 0.3331(3) 0.0160(3)
H12 H 0.9846 0.2286 0.9516
N8 N 0.4394(4) 0.6669(3) 0.9840(3)
C37 C 0.5316(6) 0.6994(4) 0.9655(4)
C38 C 0.5869(7) 0.7590(5) 0.8942(5)
H23 H 0.5640 0.7841 0.8509
C39 C 0.6756(9) 0.7792(7) 0.8904(6)
H24 H 0.7138 0.8186 0.8435
C40 C 0.7106(9) 0.7413(7) 0.9563(7)
H25 H 0.7714 0.7560 0.9516
H38 H 0.2440 0.0154 0.9516
N9 N 0.4933(4) 0.8886(3) 0.4116(3)
N10 N 0.4394(4) 0.7725(3) 0.5160(3)
C46 C 0.4944(6) 0.9385(4) 0.3293(4)
C47 C 0.4457(6) 0.8913(5) 0.2500
H28 H 0.4138 0.8277 0.2500
C48 C 0.4215(6) 0.8093(4) 0.4429(4)
H29 H 0.3640 0.7830 0.4147
C49 C 0.5316(6) 0.8322(4) 0.5345(4)
C50 C 0.5869(7) 0.8279(5) 0.6058(5)
H30 H 0.5640 0.7799 0.6491
C51 C 0.6756(9) 0.8964(6) 0.6096(6)
H31 H 0.7138 0.8952 0.6565
C52 C 0.7106(9) 0.9693(6) 0.5437(7)
C53 C 0.6563(7) 0.9736(5) 0.4719(5)
C54 C 0.5672(6) 0.9052(4) 0.4707(4)
N11 N 0.3953(3) 0.8886(3) 0.0884(3)
C56 C 0.4441(4) 0.9385(4) 0.1707(4)
C57 C 0.3878(4) 0.8093(4) 0.0571(4)
H35 H 0.4190 0.7830 0.0853
C62 C 0.3173(5) 0.9736(5) 0.0281(5)
C63 C 0.3380(4) 0.9052(4) 0.0293(4)
N12 N 0.3331(3) 0.7725(3) 0.9840(3)
C58 C 0.3006(4) 0.8322(4) 0.9655(4)
C59 C 0.2410(5) 0.8279(5) 0.8942(5)
H36 H 0.2159 0.7799 0.8509
C60 C 0.2208(7) 0.8964(6) 0.8904(6)
H37 H 0.1814 0.8952 0.8435
C61 C 0.2587(7) 0.9693(6) 0.9563(7)
C58_2 C 0.6994(4) 0.1678(4) 0.0345(4)
C59_2 C 0.7590(5) 0.1721(5) 0.1058(5)
H36_2 H 0.7841 0.2201 0.1491
C60_2 C 0.7792(7) 0.1036(6) 0.1096(6)
H37_2 H 0.8186 0.1048 0.1565
C61_2 C 0.7413(7) 0.0307(6) 0.0437(7)
N9_2 N 0.5067(4) 0.1114(3) 0.5884(3)
C46_2 C 0.5056(6) 0.0615(4) 0.6707(4)
C47_2 C 0.5543(6) 0.1087(5) 0.7500
H28_2 H 0.5862 0.1723 0.7500
C48_2 C 0.5785(6) 0.1907(4) 0.5571(4)
H29_2 H 0.6360 0.2170 0.5853
C49_2 C 0.4684(6) 0.1678(4) 0.4655(4)
C50_2 C 0.4131(7) 0.1721(5) 0.3942(5)
H30_2 H 0.4360 0.2201 0.3509
C51_2 C 0.3244(9) 0.1036(6) 0.3904(6)
H31_2 H 0.2862 0.1048 0.3435
C52_2 C 0.2894(9) 0.0307(6) 0.4563(7)
C53_2 C 0.3437(7) 0.0264(5) 0.5281(5)
C54_2 C 0.4328(6) 0.0948(4) 0.5293(4)
N11_2 N 0.6047(3) 0.1114(3) 0.9116(3)
C56_2 C 0.5559(4) 0.0615(4) 0.8293(4)
C57_2 C 0.6122(4) 0.1907(4) 0.9429(4)
H35_2 H 0.5810 0.2170 0.9147
C62_2 C 0.6827(5) 0.0264(5) 0.9719(5)
C63_2 C 0.6620(4) 0.0948(4) 0.9707(4)
H12_2 H 0.0154 0.7714 0.0484
C37_2 C 0.4684(6) 0.3006(4) 0.0345(4)
C38_2 C 0.4131(7) 0.2410(5) 0.1058(5)
H23_2 H 0.4360 0.2159 0.1491
C39_2 C 0.3244(9) 0.2208(7) 0.1096(6)
H24_2 H 0.2862 0.1814 0.1565
C40_2 C 0.2894(9) 0.2587(7) 0.0437(7)
H25_2 H 0.2286 0.2440 0.0484
H38_2 H 0.7560 0.9846 0.0484
O5_2 O 0.2210(2) 0.6455(2) 0.8184(2)
C1_2 C 0.1831(5) 0.5916(2) 0.7500
C2_2 C 0.0800(5) 0.5400(3) 0.7500
C3_2 C 0.0328(4) 0.4920(4) 0.6704(4)
H1_2 H 0.0645 0.4920 0.6165
H6_2 H 0.0154 0.2440 0.4516
H7_2 H 0.0205 0.3410 0.5728
O6_2 O 0.2210(2) 0.5755(3) 0.6816(2)
C13_2 C 0.0328(4) 0.5408(6) 0.8296(4)
H8_2 H 0.0645 0.5725 0.8835
H13_2 H 0.0205 0.6795 0.9272
O7_2 O 0.3545(2) 0.5755(3) 0.8184(2)
N5_2 N 0.6047(3) 0.4933(4) 0.5884(3)
C22_2 C 0.4084(2) 0.5915(5) 0.7500
C23_2 C 0.4600(3) 0.5400(6) 0.7500
C24_2 C 0.5080(4) 0.5408(6) 0.6704(4)
H14_2 H 0.5080 0.5725 0.6165
C25_2 C 0.5559(4) 0.4944(6) 0.6707(4)
C26_2 C 0.5544(3) 0.4457(6) 0.7500
H15_2 H 0.5861 0.4138 0.7500
C27_2 C 0.6122(4) 0.4215(6) 0.5571(4)
H16_2 H 0.5810 0.3640 0.5853
C28_2 C 0.6994(4) 0.5316(6) 0.4655(4)
C29_2 C 0.7590(5) 0.5869(7) 0.3942(5)
H17_2 H 0.7841 0.5640 0.3509
C30_2 C 0.7792(7) 0.6756(9) 0.3904(6)
H18_2 H 0.8186 0.7138 0.3435
C31_2 C 0.7413(7) 0.7106(9) 0.4563(7)
H19_2 H 0.7560 0.7714 0.4516
C32_2 C 0.6827(5) 0.6563(7) 0.5281(5)
H20_2 H 0.6590 0.6795 0.5728
C33_2 C 0.6620(4) 0.5672(6) 0.5293(4)
O8_2 O 0.4245(3) 0.6455(2) 0.6816(2)
N7_2 N 0.5067(4) 0.3953(3) 0.9116(3)
C34_2 C 0.4592(6) 0.4920(4) 0.8296(4)
H21_2 H 0.4275 0.4920 0.8835
C35_2 C 0.5056(6) 0.4441(4) 0.8293(4)
C36_2 C 0.5785(6) 0.3878(4) 0.9429(4)
H22_2 H 0.6360 0.4190 0.9147
C41_2 C 0.3437(7) 0.3173(5) 0.9719(5)
H26_2 H 0.3205 0.3410 0.9272
C42_2 C 0.4328(6) 0.3380(4) 0.9707(4)
O9_2 O 0.4245(3) 0.7790(2) 0.8184(2)
C43_2 C 0.4085(5) 0.8169(5) 0.7500
C44_2 C 0.4600(6) 0.9200(5) 0.7500
C45_2 C 0.4592(6) 0.9672(4) 0.6704(4)
H27_2 H 0.4275 0.9355 0.6165
H32_2 H 0.2286 0.9846 0.4516
H33_2 H 0.3205 0.9795 0.5728
O10_2 O 0.3545(2) 0.7790(2) 0.6816(2)
C55_2 C 0.5080(4) 0.9672(4) 0.8296(4)
H34_2 H 0.5080 0.9355 0.8835
H39_2 H 0.6590 0.9795 0.9272
C16_2 C 0.8322(4) 0.5316(6) 0.0345(4)
C17_2 C 0.8279(5) 0.5869(7) 0.1058(5)
H10_2 H 0.7799 0.5640 0.1491
C18_2 C 0.8964(6) 0.6756(9) 0.1096(6)
H11_2 H 0.8952 0.7138 0.1565
C19_2 C 0.9693(6) 0.7106(9) 0.0437(7)
N1_2 N 0.8886(3) 0.3953(3) 0.5884(3)
C4_2 C 0.9385(4) 0.4441(4) 0.6707(4)
C5_2 C 0.8913(5) 0.4456(3) 0.7500
H2_2 H 0.8277 0.4139 0.7500
C6_2 C 0.8093(4) 0.3878(4) 0.5571(4)
H3_2 H 0.7830 0.4190 0.5853
C7_2 C 0.8322(4) 0.3006(4) 0.4655(4)
C8_2 C 0.8279(5) 0.2410(5) 0.3942(5)
H4_2 H 0.7799 0.2159 0.3509
C9_2 C 0.8964(6) 0.2208(7) 0.3904(6)
H5_2 H 0.8952 0.1814 0.3435
C10_2 C 0.9693(6) 0.2587(7) 0.4563(7)
C11_2 C 0.9736(5) 0.3173(5) 0.5281(5)
C12_2 C 0.9052(4) 0.3380(4) 0.5293(4)
N3_2 N 0.8886(3) 0.4933(4) 0.9116(3)
C14_2 C 0.9385(4) 0.4944(6) 0.8293(4)
C15_2 C 0.8093(4) 0.4215(6) 0.9429(4)
H9_2 H 0.7830 0.3640 0.9147
C20_2 C 0.9736(5) 0.6563(7) 0.9719(5)
C21_2 C 0.9052(4) 0.5672(6) 0.9707(4)
loop_
_geom_bond_atom_site_label_1
_geom_bond_atom_site_label_2
_geom_bond_site_symmetry_1
_geom_bond_site_symmetry_2
Cl1 O1 1_555 1_555
O2 Cl1 1_555 1_555
O3 Cl1 1_555 1_555
O4 Cl1 1_555 1_555
Cl1_2 O1_2 1_555 1_555
O2_2 Cl1_2 1_555 1_555
O3_2 Cl1_2 1_555 1_555
O4_2 Cl1_2 1_555 1_555
Cl1_3 O1_3 1_555 1_555
O2_3 Cl1_3 1_555 1_555
O3_3 Cl1_3 1_555 1_555
O4_3 Cl1_3 1_555 1_555
Cl1_4 O1_4 1_555 1_555
O2_4 Cl1_4 1_555 1_555
O3_4 Cl1_4 1_555 1_555
O4_4 Cl1_4 1_555 1_555
Cl1_5 O1_5 1_555 1_555
O2_5 Cl1_5 1_555 1_555
O3_5 Cl1_5 1_555 1_555
O4_5 Cl1_5 1_555 1_555
Cl1_6 O1_6 1_555 1_555
O2_6 Cl1_6 1_555 1_555
O3_6 Cl1_6 1_555 1_555
O4_6 Cl1_6 1_555 1_555
N1 C4 1_555 1_555
N2 C6 1_555 1_555
C5 C4 1_555 1_555
H2 C5 1_555 1_555
C6 N1 1_555 1_555
H3 C6 1_555 1_555
C7 N2 1_555 1_555
C8 C7 1_555 1_555
H4 C8 1_555 1_555
C9 C8 1_555 1_555
H5 C9 1_555 1_555
C10 C9 1_555 1_555
C11 C10 1_555 1_555
C12 N1 1_555 1_555
N3 C14 1_555 1_555
C14 C5 1_555 1_555
C15 N3 1_555 1_555
H9 C15 1_555 1_555
C21 N3 1_555 1_555
Co8 N2 1_555 1_555
C7 C12 1_555 1_555
C11 C12 1_555 1_555
C20 C21 1_555 1_555
C16 N4 1_555 1_555
C17 C16 1_555 1_555
H10 C17 1_555 1_555
C18 C17 1_555 1_555
H11 C18 1_555 1_555
C19 C18 1_555 1_555
Co5 N4 1_555 1_555
Co1 O5 1_555 1_555
O5 C1 1_555 1_555
C1 C2 1_555 1_555
C2 C3 1_555 1_555
C3 H1 1_555 1_555
O6 C1 1_555 1_555
C13 C2 1_555 1_555
H8 C13 1_555 1_555
O7 Co1 1_555 1_555
N5 C25 1_555 1_555
N6 C27 1_555 1_555
C22 O7 1_555 1_555
C23 C22 1_555 1_555
C24 C23 1_555 1_555
H14 C24 1_555 1_555
C25 C24 1_555 1_555
C26 C25 1_555 1_555
H15 C26 1_555 1_555
C27 N5 1_555 1_555
H16 C27 1_555 1_555
C28 N6 1_555 1_555
C29 C28 1_555 1_555
H17 C29 1_555 1_555
C30 C29 1_555 1_555
H18 C30 1_555 1_555
C31 C30 1_555 1_555
H19 C31 1_555 1_555
C32 C31 1_555 1_555
H20 C32 1_555 1_555
C33 N5 1_555 1_555
O8 C22 1_555 1_555
N7 C35 1_555 1_555
C34 C23 1_555 1_555
H21 C34 1_555 1_555
C35 C26 1_555 1_555
C36 N7 1_555 1_555
H22 C36 1_555 1_555
H26 C41 1_555 1_555
C42 N7 1_555 1_555
O9 Co1 1_555 1_555
C43 O9 1_555 1_555
C44 C43 1_555 1_555
C45 C44 1_555 1_555
H27 C45 1_555 1_555
O10 C43 1_555 1_555
C55 C44 1_555 1_555
H34 C55 1_555 1_555
Co2 O6 1_555 1_555
Co8 N6 1_555 1_555
N13 Co2 1_555 1_555
N14 Co2 1_555 1_555
N15 Co2 1_555 1_555
N16 Co1 1_555 1_555
N17 Co1 1_555 1_555
N18 Co1 1_555 1_555
C28 C33 1_555 1_555
C32 C33 1_555 1_555
O8 Co2 1_555 1_555
C34 C35 1_555 1_555
C41 C42 1_555 1_555
O10 Co2 1_555 1_555
C37 N8 1_555 1_555
C38 C37 1_555 1_555
H23 C38 1_555 1_555
C39 C38 1_555 1_555
H24 C39 1_555 1_555
C40 C39 1_555 1_555
H25 C40 1_555 1_555
Co5 N8 1_555 1_555
N9 C46 1_555 1_555
N10 C48 1_555 1_555
C47 C46 1_555 1_555
H28 C47 1_555 1_555
C48 N9 1_555 1_555
H29 C48 1_555 1_555
C49 N10 1_555 1_555
C50 C49 1_555 1_555
H30 C50 1_555 1_555
C51 C50 1_555 1_555
H31 C51 1_555 1_555
C52 C51 1_555 1_555
C53 C52 1_555 1_555
C54 N9 1_555 1_555
N11 C56 1_555 1_555
C56 C47 1_555 1_555
C57 N11 1_555 1_555
H35 C57 1_555 1_555
C63 N11 1_555 1_555
Co8 N10 1_555 1_555
C49 C54 1_555 1_555
C53 C54 1_555 1_555
C62 C63 1_555 1_555
C58 N12 1_555 1_555
C59 C58 1_555 1_555
H36 C59 1_555 1_555
C60 C59 1_555 1_555
H37 C60 1_555 1_555
C61 C60 1_555 1_555
Co5 N12 1_555 1_555
C58_2 N16 1_555 1_555
C59_2 C58_2 1_555 1_555
H36_2 C59_2 1_555 1_555
C60_2 C59_2 1_555 1_555
H37_2 C60_2 1_555 1_555
C61_2 C60_2 1_555 1_555
N9_2 C46_2 1_555 1_555
N15 C48_2 1_555 1_555
C47_2 C46_2 1_555 1_555
H28_2 C47_2 1_555 1_555
C48_2 N9_2 1_555 1_555
H29_2 C48_2 1_555 1_555
C49_2 N15 1_555 1_555
C50_2 C49_2 1_555 1_555
H30_2 C50_2 1_555 1_555
C51_2 C50_2 1_555 1_555
H31_2 C51_2 1_555 1_555
C52_2 C51_2 1_555 1_555
C53_2 C52_2 1_555 1_555
C54_2 N9_2 1_555 1_555
N11_2 C56_2 1_555 1_555
C56_2 C47_2 1_555 1_555
C57_2 N11_2 1_555 1_555
H35_2 C57_2 1_555 1_555
C63_2 N11_2 1_555 1_555
C49_2 C54_2 1_555 1_555
C53_2 C54_2 1_555 1_555
C62_2 C63_2 1_555 1_555
C37_2 N18 1_555 1_555
C38_2 C37_2 1_555 1_555
H23_2 C38_2 1_555 1_555
C39_2 C38_2 1_555 1_555
H24_2 C39_2 1_555 1_555
C40_2 C39_2 1_555 1_555
H25_2 C40_2 1_555 1_555
Co5 O5_2 1_555 1_555
O5_2 C1_2 1_555 1_555
C1_2 C2_2 1_555 1_555
C2_2 C3_2 1_555 1_555
C3_2 H1_2 1_555 1_555
O6_2 C1_2 1_555 1_555
C13_2 C2_2 1_555 1_555
H8_2 C13_2 1_555 1_555
O7_2 Co5 1_555 1_555
N5_2 C25_2 1_555 1_555
N14 C27_2 1_555 1_555
C22_2 O7_2 1_555 1_555
C23_2 C22_2 1_555 1_555
C24_2 C23_2 1_555 1_555
H14_2 C24_2 1_555 1_555
C25_2 C24_2 1_555 1_555
C26_2 C25_2 1_555 1_555
H15_2 C26_2 1_555 1_555
C27_2 N5_2 1_555 1_555
H16_2 C27_2 1_555 1_555
C28_2 N14 1_555 1_555
C29_2 C28_2 1_555 1_555
H17_2 C29_2 1_555 1_555
C30_2 C29_2 1_555 1_555
H18_2 C30_2 1_555 1_555
C31_2 C30_2 1_555 1_555
H19_2 C31_2 1_555 1_555
C32_2 C31_2 1_555 1_555
H20_2 C32_2 1_555 1_555
C33_2 N5_2 1_555 1_555
O8_2 C22_2 1_555 1_555
N7_2 C35_2 1_555 1_555
C34_2 C23_2 1_555 1_555
H21_2 C34_2 1_555 1_555
C35_2 C26_2 1_555 1_555
C36_2 N7_2 1_555 1_555
H22_2 C36_2 1_555 1_555
H26_2 C41_2 1_555 1_555
C42_2 N7_2 1_555 1_555
O9_2 Co5 1_555 1_555
C43_2 O9_2 1_555 1_555
C44_2 C43_2 1_555 1_555
C45_2 C44_2 1_555 1_555
H27_2 C45_2 1_555 1_555
O10_2 C43_2 1_555 1_555
C55_2 C44_2 1_555 1_555
H34_2 C55_2 1_555 1_555
Co8 O6_2 1_555 1_555
C28_2 C33_2 1_555 1_555
C32_2 C33_2 1_555 1_555
O8_2 Co8 1_555 1_555
C34_2 C35_2 1_555 1_555
C41_2 C42_2 1_555 1_555
O10_2 Co8 1_555 1_555
C16_2 N17 1_555 1_555
C17_2 C16_2 1_555 1_555
H10_2 C17_2 1_555 1_555
C18_2 C17_2 1_555 1_555
H11_2 C18_2 1_555 1_555
C19_2 C18_2 1_555 1_555
N1_2 C4_2 1_555 1_555
N13 C6_2 1_555 1_555
C5_2 C4_2 1_555 1_555
H2_2 C5_2 1_555 1_555
C6_2 N1_2 1_555 1_555
H3_2 C6_2 1_555 1_555
C7_2 N13 1_555 1_555
C8_2 C7_2 1_555 1_555
H4_2 C8_2 1_555 1_555
C9_2 C8_2 1_555 1_555
H5_2 C9_2 1_555 1_555
C10_2 C9_2 1_555 1_555
C11_2 C10_2 1_555 1_555
C12_2 N1_2 1_555 1_555
N3_2 C14_2 1_555 1_555
C14_2 C5_2 1_555 1_555
C15_2 N3_2 1_555 1_555
H9_2 C15_2 1_555 1_555
C21_2 N3_2 1_555 1_555
C7_2 C12_2 1_555 1_555
C11_2 C12_2 1_555 1_555
C20_2 C21_2 1_555 1_555

#END
