
###############################################################################
#
# This file contains modified crystal structure data generated from the
# MOF subset of the Cambridge Structural Database (CSD) v543 
# hosted by the Cambridge Crystallographic Data Centre (CCDC).
#
# This work is licensed under the Creative Commons
# Attribution-NonCommercial-ShareAlike 4.0 International License.
# To view a copy of this license, visit
# http://creativecommons.org/licenses/by-nc-sa/4.0/
# or send a letter to
# Creative Commons, PO Box 1866, Mountain View, CA 94042, USA.
#
# CIF created using the CSD Python API on 29 September 2022
# The structure has been converted into the P1 space group
# The structure has a 3D framework
# The original CSD entry YOYPAF is in the trigonal crystal system
# The framework has been calculated to contain at least 10.0% void space
# The void calculation uses a probe of radius 1.32A, grid spacing 0.4
# The framework is charged, counterions have been retained in the structure
#
###############################################################################

data_YOYPAF
_chemical_formula_moiety         '(C126 H78 N26 Ni4 O18)n'
_symmetry_cell_setting           triclinic
_symmetry_space_group_name_H-M   'P 1'
_symmetry_Int_Tables_number      1
_space_group_name_Hall           'P 1'
loop_
_symmetry_equiv_pos_site_id
_symmetry_equiv_pos_as_xyz
1 x,y,z
_cell_length_a                   16.870(5)
_cell_length_b                   16.870(5)
_cell_length_c                   13.886(5)
_cell_angle_alpha                90
_cell_angle_beta                 90
_cell_angle_gamma                120
_cell_volume                     3422.46
loop_
_atom_site_label
_atom_site_type_symbol
_atom_site_fract_x
_atom_site_fract_y
_atom_site_fract_z
O1 O 0.2852(3) 0.5704(5) 0.2500
N1 N 0.3333 0.6667 0.2500
O2 O 0.4296(5) 0.7148(6) 0.2500
O3 O 0.2852(6) 0.7148(3) 0.2500
O1_2 O 0.7148(3) 0.4296(5) 0.7500
N1_2 N 0.6667 0.3333 0.7500
O2_2 O 0.5704(5) 0.2852(6) 0.7500
O3_2 O 0.7148(6) 0.2852(3) 0.7500
N2 N 0.1112(3) 0.6054(3) 0.4134(3)
N3 N 0.2281(3) 0.6673(3) 0.5173(3)
C4 C 0.0601(3) 0.5548(4) 0.3305(3)
C5 C 0.1077(5) 0.5539(3) 0.2500
H2 H 0.1714 0.5857 0.2500
C6 C 0.1904(3) 0.6109(4) 0.4442(3)
H3 H 0.2154 0.5781 0.4164
C7 C 0.1709(4) 0.7028(4) 0.5358(4)
C8 C 0.1785(5) 0.7664(5) 0.6042(5)
H4 H 0.2271 0.7924 0.6473
C9 C 0.1101(6) 0.7893(8) 0.6053(7)
H5 H 0.1121 0.8301 0.6516
C10 C 0.0381(6) 0.7528(7) 0.5387(7)
C11 C 0.0306(5) 0.6902(6) 0.4698(6)
C12 C 0.0970(4) 0.6643(4) 0.4714(4)
N4 N 0.1112(3) 0.5058(4) 0.0866(3)
C14 C 0.0601(3) 0.5053(5) 0.1695(3)
C15 C 0.1904(3) 0.5795(5) 0.0558(3)
H9 H 0.2154 0.6373 0.0836
C20 C 0.0306(5) 0.3404(8) 0.0302(6)
C21 C 0.0970(4) 0.4327(6) 0.0286(4)
Ni8 Ni 0.3333 0.6667 0.60260(7)
N5 N 0.2281(3) 0.5608(4) 0.9827(3)
C16 C 0.1709(4) 0.4681(6) 0.9642(4)
C17 C 0.1785(5) 0.4121(7) 0.8958(5)
H10 H 0.2271 0.4347 0.8527
C18 C 0.1101(6) 0.3208(10) 0.8947(7)
H11 H 0.1121 0.2820 0.8484
C19 C 0.0381(6) 0.2853(9) 0.9613(7)
Ni5 Ni 0.3333 0.6667 0.89740(7)
Ni1 Ni 0.6667 0.3333 0.10260(7)
O4 O 0.7772(2) 0.3529(2) 0.1810(2)
C1 C 0.8153(5) 0.4076(2) 0.2500
C2 C 0.9187(5) 0.4594(2) 0.2500
C3 C 0.9660(3) 0.5075(3) 0.3317(3)
H1 H 0.9344 0.5077 0.3864
H6 H 0.9945 0.7711 0.5408
H7 H 0.9835 0.6666 0.4248
O5 O 0.7772(2) 0.4243(3) 0.3190(2)
C13 C 0.9660(3) 0.4585(4) 0.1683(3)
H8 H 0.9344 0.4267 0.1136
H13 H 0.9835 0.3169 0.0752
O6 O 0.6471(2) 0.4243(3) 0.1810(2)
N6 N 0.3946(3) 0.5058(4) 0.4134(3)
N7 N 0.3327(3) 0.5608(4) 0.5173(3)
C22 C 0.5924(2) 0.4077(5) 0.2500
C23 C 0.5406(2) 0.4593(5) 0.2500
C24 C 0.4925(3) 0.4585(4) 0.3317(3)
H14 H 0.4923 0.4267 0.3864
C25 C 0.4452(4) 0.5053(5) 0.3305(3)
C26 C 0.4461(3) 0.5538(6) 0.2500
H15 H 0.4143 0.5857 0.2500
C27 C 0.3891(4) 0.5795(5) 0.4442(3)
H16 H 0.4219 0.6373 0.4164
C28 C 0.2972(4) 0.4681(6) 0.5358(4)
C29 C 0.2336(5) 0.4121(7) 0.6042(5)
H17 H 0.2076 0.4347 0.6473
C30 C 0.2107(8) 0.3208(10) 0.6053(7)
H18 H 0.1699 0.2820 0.6516
C31 C 0.2472(7) 0.2853(9) 0.5387(7)
H19 H 0.2289 0.2234 0.5408
C32 C 0.3098(6) 0.3404(8) 0.4698(6)
H20 H 0.3334 0.3169 0.4248
C33 C 0.3357(4) 0.4327(6) 0.4714(4)
O7 O 0.5757(3) 0.3529(2) 0.3190(2)
N8 N 0.4942(4) 0.6054(3) 0.0866(3)
C34 C 0.5415(4) 0.5075(3) 0.1683(3)
H21 H 0.5733 0.5077 0.1136
C35 C 0.4947(5) 0.5548(4) 0.1695(3)
C36 C 0.4205(5) 0.6109(4) 0.0558(3)
H22 H 0.3627 0.5781 0.0836
C41 C 0.6596(8) 0.6902(6) 0.0302(6)
H26 H 0.6831 0.6666 0.0752
C42 C 0.5673(6) 0.6643(4) 0.0286(4)
O8 O 0.5757(3) 0.2228(2) 0.1810(2)
C43 C 0.5923(5) 0.1847(5) 0.2500
C44 C 0.5407(5) 0.0813(5) 0.2500
C45 C 0.5415(4) 0.0340(3) 0.3317(3)
H27 H 0.5733 0.0656 0.3864
H32 H 0.7766 0.0055 0.5408
H33 H 0.6831 0.0165 0.4248
O9 O 0.6471(2) 0.2228(2) 0.3190(2)
C55 C 0.4925(3) 0.0340(3) 0.1683(3)
H34 H 0.4923 0.0656 0.1136
H39 H 0.3334 0.0165 0.0752
Ni2 Ni 0.6667 0.3333 0.39740(7)
N14 N 0.7719(3) 0.3327(3) 0.4827(3)
N15 N 0.6673(3) 0.4392(4) 0.4827(3)
N16 N 0.5608(4) 0.2281(3) 0.4827(3)
N17 N 0.6673(3) 0.2281(3) 0.0173(3)
N18 N 0.7719(3) 0.4392(4) 0.0173(3)
N19 N 0.5608(4) 0.3327(3) 0.0173(3)
H12 H 0.9945 0.2234 0.9592
N9 N 0.4392(4) 0.6673(3) 0.9827(3)
C37 C 0.5319(6) 0.7028(4) 0.9642(4)
C38 C 0.5879(7) 0.7664(5) 0.8958(5)
H23 H 0.5653 0.7924 0.8527
C39 C 0.6792(10) 0.7893(8) 0.8947(7)
H24 H 0.7180 0.8301 0.8484
C40 C 0.7147(9) 0.7528(7) 0.9613(7)
H25 H 0.7766 0.7711 0.9592
H38 H 0.2289 0.0055 0.9592
N10 N 0.4942(4) 0.8888(3) 0.4134(3)
N11 N 0.4392(4) 0.7719(3) 0.5173(3)
C46 C 0.4947(5) 0.9399(3) 0.3305(3)
C47 C 0.4462(6) 0.8923(5) 0.2500
H28 H 0.4143 0.8286 0.2500
C48 C 0.4205(5) 0.8096(3) 0.4442(3)
H29 H 0.3627 0.7846 0.4164
C49 C 0.5319(6) 0.8291(4) 0.5358(4)
C50 C 0.5879(7) 0.8215(5) 0.6042(5)
H30 H 0.5653 0.7729 0.6473
C51 C 0.6792(10) 0.8899(6) 0.6053(7)
H31 H 0.7180 0.8879 0.6516
C52 C 0.7147(9) 0.9619(6) 0.5387(7)
C53 C 0.6596(8) 0.9694(5) 0.4698(6)
C54 C 0.5673(6) 0.9030(4) 0.4714(4)
N12 N 0.3946(3) 0.8888(3) 0.0866(3)
C56 C 0.4452(4) 0.9399(3) 0.1695(3)
C57 C 0.3891(4) 0.8096(3) 0.0558(3)
H35 H 0.4219 0.7846 0.0836
C62 C 0.3098(6) 0.9694(5) 0.0302(6)
C63 C 0.3357(4) 0.9030(4) 0.0286(4)
N13 N 0.3327(3) 0.7719(3) 0.9827(3)
C58 C 0.2972(4) 0.8291(4) 0.9642(4)
C59 C 0.2336(5) 0.8215(5) 0.8958(5)
H36 H 0.2076 0.7729 0.8527
C60 C 0.2107(8) 0.8899(6) 0.8947(7)
H37 H 0.1699 0.8879 0.8484
C61 C 0.2472(7) 0.9619(6) 0.9613(7)
C58_2 C 0.7028(4) 0.1709(4) 0.0358(4)
C59_2 C 0.7664(5) 0.1785(5) 0.1042(5)
H36_2 H 0.7924 0.2271 0.1473
C60_2 C 0.7893(8) 0.1101(6) 0.1053(7)
H37_2 H 0.8301 0.1121 0.1516
C61_2 C 0.7528(7) 0.0381(6) 0.0387(7)
N10_2 N 0.5058(4) 0.1112(3) 0.5866(3)
C46_2 C 0.5053(5) 0.0601(3) 0.6695(3)
C47_2 C 0.5538(6) 0.1077(5) 0.7500
H28_2 H 0.5857 0.1714 0.7500
C48_2 C 0.5795(5) 0.1904(3) 0.5558(3)
H29_2 H 0.6373 0.2154 0.5836
C49_2 C 0.4681(6) 0.1709(4) 0.4642(4)
C50_2 C 0.4121(7) 0.1785(5) 0.3958(5)
H30_2 H 0.4347 0.2271 0.3527
C51_2 C 0.3208(10) 0.1101(6) 0.3947(7)
H31_2 H 0.2820 0.1121 0.3484
C52_2 C 0.2853(9) 0.0381(6) 0.4613(7)
C53_2 C 0.3404(8) 0.0306(5) 0.5302(6)
C54_2 C 0.4327(6) 0.0970(4) 0.5286(4)
N12_2 N 0.6054(3) 0.1112(3) 0.9134(3)
C56_2 C 0.5548(4) 0.0601(3) 0.8305(3)
C57_2 C 0.6109(4) 0.1904(3) 0.9442(3)
H35_2 H 0.5781 0.2154 0.9164
C62_2 C 0.6902(6) 0.0306(5) 0.9698(6)
C63_2 C 0.6643(4) 0.0970(4) 0.9714(4)
H12_2 H 0.0055 0.7766 0.0408
C37_2 C 0.4681(6) 0.2972(4) 0.0358(4)
C38_2 C 0.4121(7) 0.2336(5) 0.1042(5)
H23_2 H 0.4347 0.2076 0.1473
C39_2 C 0.3208(10) 0.2107(8) 0.1053(7)
H24_2 H 0.2820 0.1699 0.1516
C40_2 C 0.2853(9) 0.2472(7) 0.0387(7)
H25_2 H 0.2234 0.2289 0.0408
H38_2 H 0.7711 0.9945 0.0408
O4_2 O 0.2228(2) 0.6471(2) 0.8190(2)
C1_2 C 0.1847(5) 0.5924(2) 0.7500
C2_2 C 0.0813(5) 0.5406(2) 0.7500
C3_2 C 0.0340(3) 0.4925(3) 0.6683(3)
H1_2 H 0.0656 0.4923 0.6136
H6_2 H 0.0055 0.2289 0.4592
H7_2 H 0.0165 0.3334 0.5752
O5_2 O 0.2228(2) 0.5757(3) 0.6810(2)
C13_2 C 0.0340(3) 0.5415(4) 0.8317(3)
H8_2 H 0.0656 0.5733 0.8864
H13_2 H 0.0165 0.6831 0.9248
O6_2 O 0.3529(2) 0.5757(3) 0.8190(2)
N6_2 N 0.6054(3) 0.4942(4) 0.5866(3)
C22_2 C 0.4076(2) 0.5923(5) 0.7500
C23_2 C 0.4594(2) 0.5407(5) 0.7500
C24_2 C 0.5075(3) 0.5415(4) 0.6683(3)
H14_2 H 0.5077 0.5733 0.6136
C25_2 C 0.5548(4) 0.4947(5) 0.6695(3)
C26_2 C 0.5539(3) 0.4462(6) 0.7500
H15_2 H 0.5857 0.4143 0.7500
C27_2 C 0.6109(4) 0.4205(5) 0.5558(3)
H16_2 H 0.5781 0.3627 0.5836
C28_2 C 0.7028(4) 0.5319(6) 0.4642(4)
C29_2 C 0.7664(5) 0.5879(7) 0.3958(5)
H17_2 H 0.7924 0.5653 0.3527
C30_2 C 0.7893(8) 0.6792(10) 0.3947(7)
H18_2 H 0.8301 0.7180 0.3484
C31_2 C 0.7528(7) 0.7147(9) 0.4613(7)
H19_2 H 0.7711 0.7766 0.4592
C32_2 C 0.6902(6) 0.6596(8) 0.5302(6)
H20_2 H 0.6666 0.6831 0.5752
C33_2 C 0.6643(4) 0.5673(6) 0.5286(4)
O7_2 O 0.4243(3) 0.6471(2) 0.6810(2)
N8_2 N 0.5058(4) 0.3946(3) 0.9134(3)
C34_2 C 0.4585(4) 0.4925(3) 0.8317(3)
H21_2 H 0.4267 0.4923 0.8864
C35_2 C 0.5053(5) 0.4452(4) 0.8305(3)
C36_2 C 0.5795(5) 0.3891(4) 0.9442(3)
H22_2 H 0.6373 0.4219 0.9164
C41_2 C 0.3404(8) 0.3098(6) 0.9698(6)
H26_2 H 0.3169 0.3334 0.9248
C42_2 C 0.4327(6) 0.3357(4) 0.9714(4)
O8_2 O 0.4243(3) 0.7772(2) 0.8190(2)
C43_2 C 0.4077(5) 0.8153(5) 0.7500
C44_2 C 0.4593(5) 0.9187(5) 0.7500
C45_2 C 0.4585(4) 0.9660(3) 0.6683(3)
H27_2 H 0.4267 0.9344 0.6136
H32_2 H 0.2234 0.9945 0.4592
H33_2 H 0.3169 0.9835 0.5752
O9_2 O 0.3529(2) 0.7772(2) 0.6810(2)
C55_2 C 0.5075(3) 0.9660(3) 0.8317(3)
H34_2 H 0.5077 0.9344 0.8864
H39_2 H 0.6666 0.9835 0.9248
C16_2 C 0.8291(4) 0.5319(6) 0.0358(4)
C17_2 C 0.8215(5) 0.5879(7) 0.1042(5)
H10_2 H 0.7729 0.5653 0.1473
C18_2 C 0.8899(6) 0.6792(10) 0.1053(7)
H11_2 H 0.8879 0.7180 0.1516
C19_2 C 0.9619(6) 0.7147(9) 0.0387(7)
N2_2 N 0.8888(3) 0.3946(3) 0.5866(3)
C4_2 C 0.9399(3) 0.4452(4) 0.6695(3)
C5_2 C 0.8923(5) 0.4461(3) 0.7500
H2_2 H 0.8286 0.4143 0.7500
C6_2 C 0.8096(3) 0.3891(4) 0.5558(3)
H3_2 H 0.7846 0.4219 0.5836
C7_2 C 0.8291(4) 0.2972(4) 0.4642(4)
C8_2 C 0.8215(5) 0.2336(5) 0.3958(5)
H4_2 H 0.7729 0.2076 0.3527
C9_2 C 0.8899(6) 0.2107(8) 0.3947(7)
H5_2 H 0.8879 0.1699 0.3484
C10_2 C 0.9619(6) 0.2472(7) 0.4613(7)
C11_2 C 0.9694(5) 0.3098(6) 0.5302(6)
C12_2 C 0.9030(4) 0.3357(4) 0.5286(4)
N4_2 N 0.8888(3) 0.4942(4) 0.9134(3)
C14_2 C 0.9399(3) 0.4947(5) 0.8305(3)
C15_2 C 0.8096(3) 0.4205(5) 0.9442(3)
H9_2 H 0.7846 0.3627 0.9164
C20_2 C 0.9694(5) 0.6596(8) 0.9698(6)
C21_2 C 0.9030(4) 0.5673(6) 0.9714(4)
loop_
_geom_bond_atom_site_label_1
_geom_bond_atom_site_label_2
_geom_bond_site_symmetry_1
_geom_bond_site_symmetry_2
O1 N1 1_555 1_555
N1 O2 1_555 1_555
O3 N1 1_555 1_555
O1_2 N1_2 1_555 1_555
N1_2 O2_2 1_555 1_555
O3_2 N1_2 1_555 1_555
N2 C4 1_555 1_555
N3 C6 1_555 1_555
C5 C4 1_555 1_555
H2 C5 1_555 1_555
C6 N2 1_555 1_555
H3 C6 1_555 1_555
C7 N3 1_555 1_555
C8 C7 1_555 1_555
H4 C8 1_555 1_555
C9 C8 1_555 1_555
H5 C9 1_555 1_555
C10 C9 1_555 1_555
C11 C10 1_555 1_555
C12 N2 1_555 1_555
N4 C14 1_555 1_555
C14 C5 1_555 1_555
C15 N4 1_555 1_555
H9 C15 1_555 1_555
C21 N4 1_555 1_555
Ni8 N3 1_555 1_555
C7 C12 1_555 1_555
C11 C12 1_555 1_555
C20 C21 1_555 1_555
C16 N5 1_555 1_555
C17 C16 1_555 1_555
H10 C17 1_555 1_555
C18 C17 1_555 1_555
H11 C18 1_555 1_555
C19 C18 1_555 1_555
Ni5 N5 1_555 1_555
Ni1 O4 1_555 1_555
O4 C1 1_555 1_555
C1 C2 1_555 1_555
C2 C3 1_555 1_555
C3 H1 1_555 1_555
O5 C1 1_555 1_555
C13 C2 1_555 1_555
H8 C13 1_555 1_555
O6 Ni1 1_555 1_555
N6 C25 1_555 1_555
N7 C27 1_555 1_555
C22 O6 1_555 1_555
C23 C22 1_555 1_555
C24 C23 1_555 1_555
H14 C24 1_555 1_555
C25 C24 1_555 1_555
C26 C25 1_555 1_555
H15 C26 1_555 1_555
C27 N6 1_555 1_555
H16 C27 1_555 1_555
C28 N7 1_555 1_555
C29 C28 1_555 1_555
H17 C29 1_555 1_555
C30 C29 1_555 1_555
H18 C30 1_555 1_555
C31 C30 1_555 1_555
H19 C31 1_555 1_555
C32 C31 1_555 1_555
H20 C32 1_555 1_555
C33 N6 1_555 1_555
O7 C22 1_555 1_555
N8 C35 1_555 1_555
C34 C23 1_555 1_555
H21 C34 1_555 1_555
C35 C26 1_555 1_555
C36 N8 1_555 1_555
H22 C36 1_555 1_555
H26 C41 1_555 1_555
C42 N8 1_555 1_555
O8 Ni1 1_555 1_555
C43 O8 1_555 1_555
C44 C43 1_555 1_555
C45 C44 1_555 1_555
H27 C45 1_555 1_555
O9 C43 1_555 1_555
C55 C44 1_555 1_555
H34 C55 1_555 1_555
Ni2 O5 1_555 1_555
Ni8 N7 1_555 1_555
N14 Ni2 1_555 1_555
N15 Ni2 1_555 1_555
N16 Ni2 1_555 1_555
N17 Ni1 1_555 1_555
N18 Ni1 1_555 1_555
N19 Ni1 1_555 1_555
C28 C33 1_555 1_555
C32 C33 1_555 1_555
O7 Ni2 1_555 1_555
C34 C35 1_555 1_555
C41 C42 1_555 1_555
O9 Ni2 1_555 1_555
C37 N9 1_555 1_555
C38 C37 1_555 1_555
H23 C38 1_555 1_555
C39 C38 1_555 1_555
H24 C39 1_555 1_555
C40 C39 1_555 1_555
H25 C40 1_555 1_555
Ni5 N9 1_555 1_555
N10 C46 1_555 1_555
N11 C48 1_555 1_555
C47 C46 1_555 1_555
H28 C47 1_555 1_555
C48 N10 1_555 1_555
H29 C48 1_555 1_555
C49 N11 1_555 1_555
C50 C49 1_555 1_555
H30 C50 1_555 1_555
C51 C50 1_555 1_555
H31 C51 1_555 1_555
C52 C51 1_555 1_555
C53 C52 1_555 1_555
C54 N10 1_555 1_555
N12 C56 1_555 1_555
C56 C47 1_555 1_555
C57 N12 1_555 1_555
H35 C57 1_555 1_555
C63 N12 1_555 1_555
Ni8 N11 1_555 1_555
C49 C54 1_555 1_555
C53 C54 1_555 1_555
C62 C63 1_555 1_555
C58 N13 1_555 1_555
C59 C58 1_555 1_555
H36 C59 1_555 1_555
C60 C59 1_555 1_555
H37 C60 1_555 1_555
C61 C60 1_555 1_555
Ni5 N13 1_555 1_555
C58_2 N17 1_555 1_555
C59_2 C58_2 1_555 1_555
H36_2 C59_2 1_555 1_555
C60_2 C59_2 1_555 1_555
H37_2 C60_2 1_555 1_555
C61_2 C60_2 1_555 1_555
N10_2 C46_2 1_555 1_555
N16 C48_2 1_555 1_555
C47_2 C46_2 1_555 1_555
H28_2 C47_2 1_555 1_555
C48_2 N10_2 1_555 1_555
H29_2 C48_2 1_555 1_555
C49_2 N16 1_555 1_555
C50_2 C49_2 1_555 1_555
H30_2 C50_2 1_555 1_555
C51_2 C50_2 1_555 1_555
H31_2 C51_2 1_555 1_555
C52_2 C51_2 1_555 1_555
C53_2 C52_2 1_555 1_555
C54_2 N10_2 1_555 1_555
N12_2 C56_2 1_555 1_555
C56_2 C47_2 1_555 1_555
C57_2 N12_2 1_555 1_555
H35_2 C57_2 1_555 1_555
C63_2 N12_2 1_555 1_555
C49_2 C54_2 1_555 1_555
C53_2 C54_2 1_555 1_555
C62_2 C63_2 1_555 1_555
C37_2 N19 1_555 1_555
C38_2 C37_2 1_555 1_555
H23_2 C38_2 1_555 1_555
C39_2 C38_2 1_555 1_555
H24_2 C39_2 1_555 1_555
C40_2 C39_2 1_555 1_555
H25_2 C40_2 1_555 1_555
Ni5 O4_2 1_555 1_555
O4_2 C1_2 1_555 1_555
C1_2 C2_2 1_555 1_555
C2_2 C3_2 1_555 1_555
C3_2 H1_2 1_555 1_555
O5_2 C1_2 1_555 1_555
C13_2 C2_2 1_555 1_555
H8_2 C13_2 1_555 1_555
O6_2 Ni5 1_555 1_555
N6_2 C25_2 1_555 1_555
N15 C27_2 1_555 1_555
C22_2 O6_2 1_555 1_555
C23_2 C22_2 1_555 1_555
C24_2 C23_2 1_555 1_555
H14_2 C24_2 1_555 1_555
C25_2 C24_2 1_555 1_555
C26_2 C25_2 1_555 1_555
H15_2 C26_2 1_555 1_555
C27_2 N6_2 1_555 1_555
H16_2 C27_2 1_555 1_555
C28_2 N15 1_555 1_555
C29_2 C28_2 1_555 1_555
H17_2 C29_2 1_555 1_555
C30_2 C29_2 1_555 1_555
H18_2 C30_2 1_555 1_555
C31_2 C30_2 1_555 1_555
H19_2 C31_2 1_555 1_555
C32_2 C31_2 1_555 1_555
H20_2 C32_2 1_555 1_555
C33_2 N6_2 1_555 1_555
O7_2 C22_2 1_555 1_555
N8_2 C35_2 1_555 1_555
C34_2 C23_2 1_555 1_555
H21_2 C34_2 1_555 1_555
C35_2 C26_2 1_555 1_555
C36_2 N8_2 1_555 1_555
H22_2 C36_2 1_555 1_555
H26_2 C41_2 1_555 1_555
C42_2 N8_2 1_555 1_555
O8_2 Ni5 1_555 1_555
C43_2 O8_2 1_555 1_555
C44_2 C43_2 1_555 1_555
C45_2 C44_2 1_555 1_555
H27_2 C45_2 1_555 1_555
O9_2 C43_2 1_555 1_555
C55_2 C44_2 1_555 1_555
H34_2 C55_2 1_555 1_555
Ni8 O5_2 1_555 1_555
C28_2 C33_2 1_555 1_555
C32_2 C33_2 1_555 1_555
O7_2 Ni8 1_555 1_555
C34_2 C35_2 1_555 1_555
C41_2 C42_2 1_555 1_555
O9_2 Ni8 1_555 1_555
C16_2 N18 1_555 1_555
C17_2 C16_2 1_555 1_555
H10_2 C17_2 1_555 1_555
C18_2 C17_2 1_555 1_555
H11_2 C18_2 1_555 1_555
C19_2 C18_2 1_555 1_555
N2_2 C4_2 1_555 1_555
N14 C6_2 1_555 1_555
C5_2 C4_2 1_555 1_555
H2_2 C5_2 1_555 1_555
C6_2 N2_2 1_555 1_555
H3_2 C6_2 1_555 1_555
C7_2 N14 1_555 1_555
C8_2 C7_2 1_555 1_555
H4_2 C8_2 1_555 1_555
C9_2 C8_2 1_555 1_555
H5_2 C9_2 1_555 1_555
C10_2 C9_2 1_555 1_555
C11_2 C10_2 1_555 1_555
C12_2 N2_2 1_555 1_555
N4_2 C14_2 1_555 1_555
C14_2 C5_2 1_555 1_555
C15_2 N4_2 1_555 1_555
H9_2 C15_2 1_555 1_555
C21_2 N4_2 1_555 1_555
C7_2 C12_2 1_555 1_555
C11_2 C12_2 1_555 1_555
C20_2 C21_2 1_555 1_555

#END
