
###############################################################################
#
# This file contains modified crystal structure data generated from the
# MOF subset of the Cambridge Structural Database (CSD) v543 
# hosted by the Cambridge Crystallographic Data Centre (CCDC).
#
# This work is licensed under the Creative Commons
# Attribution-NonCommercial-ShareAlike 4.0 International License.
# To view a copy of this license, visit
# http://creativecommons.org/licenses/by-nc-sa/4.0/
# or send a letter to
# Creative Commons, PO Box 1866, Mountain View, CA 94042, USA.
#
# CIF created using the CSD Python API on 29 September 2022
# The structure has been converted into the P1 space group
# The structure has a 3D framework
# The original CSD entry YOYQEK is in the trigonal crystal system
# The framework has been calculated to contain at least 10.0% void space
# The void calculation uses a probe of radius 1.32A, grid spacing 0.4
# The framework is charged, counterions have been retained in the structure
#
###############################################################################

data_YOYQEK
_chemical_formula_moiety         '(C126 H78 Cl12 Co4 N24 O12 10-)n'
_symmetry_cell_setting           triclinic
_symmetry_space_group_name_H-M   'P 1'
_symmetry_Int_Tables_number      1
_space_group_name_Hall           'P 1'
loop_
_symmetry_equiv_pos_site_id
_symmetry_equiv_pos_as_xyz
1 x,y,z
_cell_length_a                   16.975(5)
_cell_length_b                   16.975(5)
_cell_length_c                   13.917(5)
_cell_angle_alpha                90
_cell_angle_beta                 90
_cell_angle_gamma                120
_cell_volume                     3472.93
loop_
_atom_site_label
_atom_site_type_symbol
_atom_site_fract_x
_atom_site_fract_y
_atom_site_fract_z
N2 N 0.2283(3) 0.5598(3) 0.0148(3)
C7 C 0.1742(3) 0.4662(3) 0.0311(3)
C8 C 0.1839(4) 0.4091(4) 0.0955(4)
H4 H 0.2310 0.4322 0.1401
C9 C 0.1220(4) 0.3174(4) 0.0913(5)
H5 H 0.1271 0.2782 0.1341
C10 C 0.0510(4) 0.2820(4) 0.0233(5)
H6 H 0.0115 0.2195 0.0207
Co8 Co 0.3333 0.6667 0.10339(7)
N1 N 0.1119(3) 0.5038(3) 0.9116(3)
C4 C 0.0606(3) 0.5035(3) 0.8301(3)
C5 C 0.1083(4) 0.5542(2) 0.7500
H2 H 0.1716 0.5858 0.7500
C6 C 0.1894(3) 0.5779(3) 0.9436(3)
H3 H 0.2124 0.6357 0.9174
C11 C 0.0387(4) 0.3378(4) 0.9605(4)
C12 C 0.1010(3) 0.4304(3) 0.9650(4)
N3 N 0.1119(3) 0.6081(4) 0.5884(3)
N4 N 0.2283(3) 0.6685(4) 0.4852(3)
C14 C 0.0606(3) 0.5571(4) 0.6699(3)
C15 C 0.1894(3) 0.6115(4) 0.5564(3)
H9 H 0.2124 0.5767 0.5826
C16 C 0.1742(3) 0.7080(4) 0.4689(3)
C17 C 0.1839(4) 0.7748(6) 0.4045(4)
H10 H 0.2310 0.7988 0.3599
C18 C 0.1220(4) 0.8046(6) 0.4087(5)
H11 H 0.1271 0.8489 0.3659
C19 C 0.0510(4) 0.7690(6) 0.4767(5)
H12 H 0.0115 0.7920 0.4793
C20 C 0.0387(4) 0.7009(6) 0.5395(4)
C21 C 0.1010(3) 0.6706(4) 0.5350(4)
Co5 Co 0.3333 0.6667 0.39661(7)
N6 N 0.4402(3) 0.6685(4) 0.0148(3)
C28 C 0.5338(3) 0.7080(4) 0.0311(3)
C29 C 0.5909(4) 0.7748(6) 0.0955(4)
H17 H 0.5678 0.7988 0.1401
C30 C 0.6826(4) 0.8046(6) 0.0913(5)
H18 H 0.7218 0.8489 0.1341
C31 C 0.7180(4) 0.7690(6) 0.0233(5)
H19 H 0.7805 0.7920 0.0207
Co1 Co 0.6667 0.3333 0.60339(7)
O1 O 0.7796(2) 0.4245(2) 0.6811(2)
C1 C 0.8177(4) 0.4088(2) 0.7500
C2 C 0.9192(4) 0.4596(2) 0.7500
C3 C 0.9660(3) 0.4564(3) 0.8309(3)
H1 H 0.9343 0.4232 0.8848
H7 H 0.9908 0.3143 0.9169
O2 O 0.7796(2) 0.3551(3) 0.8189(2)
C13 C 0.9660(3) 0.5096(4) 0.6691(3)
H8 H 0.9343 0.5111 0.6152
H13 H 0.9908 0.6765 0.5831
O3 O 0.5755(2) 0.3551(3) 0.6811(2)
N5 N 0.4962(3) 0.6081(4) 0.9116(3)
C22 C 0.5912(2) 0.4089(4) 0.7500
C23 C 0.5404(2) 0.4596(4) 0.7500
C24 C 0.5436(3) 0.5096(4) 0.8309(3)
H14 H 0.5768 0.5111 0.8848
C25 C 0.4965(3) 0.5571(4) 0.8301(3)
C26 C 0.4458(2) 0.5541(4) 0.7500
H15 H 0.4142 0.5858 0.7500
C27 C 0.4221(3) 0.6115(4) 0.9436(3)
H16 H 0.3643 0.5767 0.9174
C32 C 0.6622(4) 0.7009(6) 0.9605(4)
H20 H 0.6857 0.6765 0.9169
C33 C 0.5696(3) 0.6706(4) 0.9650(4)
O4 O 0.6449(3) 0.4245(2) 0.8189(2)
N7 N 0.3919(4) 0.5038(3) 0.5884(3)
N8 N 0.3315(4) 0.5598(3) 0.4852(3)
C34 C 0.4904(4) 0.4564(3) 0.6691(3)
H21 H 0.4889 0.4232 0.6152
C35 C 0.4429(4) 0.5035(3) 0.6699(3)
C36 C 0.3885(4) 0.5779(3) 0.5564(3)
H22 H 0.4233 0.6357 0.5826
C37 C 0.2920(4) 0.4662(3) 0.4689(3)
C38 C 0.2252(6) 0.4091(4) 0.4045(4)
H23 H 0.2012 0.4322 0.3599
C39 C 0.1954(6) 0.3174(4) 0.4087(5)
H24 H 0.1511 0.2782 0.3659
C40 C 0.2310(6) 0.2820(4) 0.4767(5)
H25 H 0.2080 0.2195 0.4793
C41 C 0.2991(6) 0.3378(4) 0.5395(4)
H26 H 0.3235 0.3143 0.5831
C42 C 0.3294(4) 0.4304(3) 0.5350(4)
O5 O 0.6449(3) 0.2204(2) 0.6811(2)
C43 C 0.5911(4) 0.1823(4) 0.7500
C44 C 0.5404(4) 0.0808(4) 0.7500
C45 C 0.4904(4) 0.0340(3) 0.8309(3)
H27 H 0.4889 0.0657 0.8848
H33 H 0.3235 0.0092 0.9169
O6 O 0.5755(2) 0.2204(2) 0.8189(2)
C55 C 0.5436(3) 0.0340(3) 0.6691(3)
H34 H 0.5768 0.0657 0.6152
H39 H 0.6857 0.0092 0.5831
Co2 Co 0.6667 0.3333 0.89661(7)
N13 N 0.7717(3) 0.4402(3) 0.9852(3)
N14 N 0.5598(3) 0.3315(4) 0.9852(3)
N15 N 0.6685(4) 0.2283(3) 0.9852(3)
N16 N 0.5598(3) 0.2283(3) 0.5148(3)
N17 N 0.7717(3) 0.3315(4) 0.5148(3)
N18 N 0.6685(4) 0.4402(3) 0.5148(3)
N10 N 0.3315(4) 0.7717(3) 0.0148(3)
C49 C 0.2920(4) 0.8258(3) 0.0311(3)
C50 C 0.2252(6) 0.8161(4) 0.0955(4)
H30 H 0.2012 0.7690 0.1401
C51 C 0.1954(6) 0.8780(4) 0.0913(5)
H31 H 0.1511 0.8729 0.1341
C52 C 0.2310(6) 0.9490(4) 0.0233(5)
H32 H 0.2080 0.9885 0.0207
N9 N 0.3919(4) 0.8881(3) 0.9116(3)
C46 C 0.4429(4) 0.9394(3) 0.8301(3)
C47 C 0.4459(4) 0.8917(4) 0.7500
H28 H 0.4142 0.8284 0.7500
C48 C 0.3885(4) 0.8106(3) 0.9436(3)
H29 H 0.4233 0.7876 0.9174
C53 C 0.2991(6) 0.9613(4) 0.9605(4)
C54 C 0.3294(4) 0.8990(3) 0.9650(4)
N11 N 0.4962(3) 0.8881(3) 0.5884(3)
N12 N 0.4402(3) 0.7717(3) 0.4852(3)
C56 C 0.4965(3) 0.9394(3) 0.6699(3)
C57 C 0.4221(3) 0.8106(3) 0.5564(3)
H35 H 0.3643 0.7876 0.5826
C58 C 0.5338(3) 0.8258(3) 0.4689(3)
C59 C 0.5909(4) 0.8161(4) 0.4045(4)
H36 H 0.5678 0.7690 0.3599
C60 C 0.6826(4) 0.8780(4) 0.4087(5)
H37 H 0.7218 0.8729 0.3659
C61 C 0.7180(4) 0.9490(4) 0.4767(5)
H38 H 0.7805 0.9885 0.4793
C62 C 0.6622(4) 0.9613(4) 0.5395(4)
C63 C 0.5696(3) 0.8990(3) 0.5350(4)
N9_2 N 0.6081(4) 0.1119(3) 0.0884(3)
C46_2 C 0.5571(4) 0.0606(3) 0.1699(3)
C47_2 C 0.5541(4) 0.1083(4) 0.2500
H28_2 H 0.5858 0.1716 0.2500
C48_2 C 0.6115(4) 0.1894(3) 0.0564(3)
H29_2 H 0.5767 0.2124 0.0826
C53_2 C 0.7009(6) 0.0387(4) 0.0395(4)
C54_2 C 0.6706(4) 0.1010(3) 0.0350(4)
N11_2 N 0.5038(3) 0.1119(3) 0.4116(3)
C56_2 C 0.5035(3) 0.0606(3) 0.3301(3)
C57_2 C 0.5779(3) 0.1894(3) 0.4436(3)
H35_2 H 0.6357 0.2124 0.4174
C58_2 C 0.4662(3) 0.1742(3) 0.5311(3)
C59_2 C 0.4091(4) 0.1839(4) 0.5955(4)
H36_2 H 0.4322 0.2310 0.6401
C60_2 C 0.3174(4) 0.1220(4) 0.5913(5)
H37_2 H 0.2782 0.1271 0.6341
C61_2 C 0.2820(4) 0.0510(4) 0.5233(5)
H38_2 H 0.2195 0.0115 0.5207
C62_2 C 0.3378(4) 0.0387(4) 0.4605(4)
C63_2 C 0.4304(3) 0.1010(3) 0.4650(4)
C49_2 C 0.7080(4) 0.1742(3) 0.9689(3)
C50_2 C 0.7748(6) 0.1839(4) 0.9045(4)
H30_2 H 0.7988 0.2310 0.8599
C51_2 C 0.8046(6) 0.1220(4) 0.9087(5)
H31_2 H 0.8489 0.1271 0.8659
C52_2 C 0.7690(6) 0.0510(4) 0.9767(5)
H32_2 H 0.7920 0.0115 0.9793
O1_2 O 0.2204(2) 0.5755(2) 0.3189(2)
C1_2 C 0.1823(4) 0.5912(2) 0.2500
C2_2 C 0.0808(4) 0.5404(2) 0.2500
C3_2 C 0.0340(3) 0.5436(3) 0.1691(3)
H1_2 H 0.0657 0.5768 0.1152
H7_2 H 0.0092 0.6857 0.0831
O2_2 O 0.2204(2) 0.6449(3) 0.1811(2)
C13_2 C 0.0340(3) 0.4904(4) 0.3309(3)
H8_2 H 0.0657 0.4889 0.3848
H13_2 H 0.0092 0.3235 0.4169
O3_2 O 0.4245(2) 0.6449(3) 0.3189(2)
N5_2 N 0.5038(3) 0.3919(4) 0.0884(3)
C22_2 C 0.4088(2) 0.5911(4) 0.2500
C23_2 C 0.4596(2) 0.5404(4) 0.2500
C24_2 C 0.4564(3) 0.4904(4) 0.1691(3)
H14_2 H 0.4232 0.4889 0.1152
C25_2 C 0.5035(3) 0.4429(4) 0.1699(3)
C26_2 C 0.5542(2) 0.4459(4) 0.2500
H15_2 H 0.5858 0.4142 0.2500
C27_2 C 0.5779(3) 0.3885(4) 0.0564(3)
H16_2 H 0.6357 0.4233 0.0826
C32_2 C 0.3378(4) 0.2991(6) 0.0395(4)
H20_2 H 0.3143 0.3235 0.0831
C33_2 C 0.4304(3) 0.3294(4) 0.0350(4)
O4_2 O 0.3551(3) 0.5755(2) 0.1811(2)
N7_2 N 0.6081(4) 0.4962(3) 0.4116(3)
C34_2 C 0.5096(4) 0.5436(3) 0.3309(3)
H21_2 H 0.5111 0.5768 0.3848
C35_2 C 0.5571(4) 0.4965(3) 0.3301(3)
C36_2 C 0.6115(4) 0.4221(3) 0.4436(3)
H22_2 H 0.5767 0.3643 0.4174
C37_2 C 0.7080(4) 0.5338(3) 0.5311(3)
C38_2 C 0.7748(6) 0.5909(4) 0.5955(4)
H23_2 H 0.7988 0.5678 0.6401
C39_2 C 0.8046(6) 0.6826(4) 0.5913(5)
H24_2 H 0.8489 0.7218 0.6341
C40_2 C 0.7690(6) 0.7180(4) 0.5233(5)
H25_2 H 0.7920 0.7805 0.5207
C41_2 C 0.7009(6) 0.6622(4) 0.4605(4)
H26_2 H 0.6765 0.6857 0.4169
C42_2 C 0.6706(4) 0.5696(3) 0.4650(4)
O5_2 O 0.3551(3) 0.7796(2) 0.3189(2)
C43_2 C 0.4089(4) 0.8177(4) 0.2500
C44_2 C 0.4596(4) 0.9192(4) 0.2500
C45_2 C 0.5096(4) 0.9660(3) 0.1691(3)
H27_2 H 0.5111 0.9343 0.1152
H33_2 H 0.6765 0.9908 0.0831
O6_2 O 0.4245(2) 0.7796(2) 0.1811(2)
C55_2 C 0.4564(3) 0.9660(3) 0.3309(3)
H34_2 H 0.4232 0.9343 0.3848
H39_2 H 0.3143 0.9908 0.4169
C28_2 C 0.4662(3) 0.2920(4) 0.9689(3)
C29_2 C 0.4091(4) 0.2252(6) 0.9045(4)
H17_2 H 0.4322 0.2012 0.8599
C30_2 C 0.3174(4) 0.1954(6) 0.9087(5)
H18_2 H 0.2782 0.1511 0.8659
C31_2 C 0.2820(4) 0.2310(6) 0.9767(5)
H19_2 H 0.2195 0.2080 0.9793
N1_2 N 0.8881(3) 0.4962(3) 0.0884(3)
C4_2 C 0.9394(3) 0.4965(3) 0.1699(3)
C5_2 C 0.8917(4) 0.4458(2) 0.2500
H2_2 H 0.8284 0.4142 0.2500
C6_2 C 0.8106(3) 0.4221(3) 0.0564(3)
H3_2 H 0.7876 0.3643 0.0826
C11_2 C 0.9613(4) 0.6622(4) 0.0395(4)
C12_2 C 0.8990(3) 0.5696(3) 0.0350(4)
N3_2 N 0.8881(3) 0.3919(4) 0.4116(3)
C14_2 C 0.9394(3) 0.4429(4) 0.3301(3)
C15_2 C 0.8106(3) 0.3885(4) 0.4436(3)
H9_2 H 0.7876 0.4233 0.4174
C16_2 C 0.8258(3) 0.2920(4) 0.5311(3)
C17_2 C 0.8161(4) 0.2252(6) 0.5955(4)
H10_2 H 0.7690 0.2012 0.6401
C18_2 C 0.8780(4) 0.1954(6) 0.5913(5)
H11_2 H 0.8729 0.1511 0.6341
C19_2 C 0.9490(4) 0.2310(6) 0.5233(5)
H12_2 H 0.9885 0.2080 0.5207
C20_2 C 0.9613(4) 0.2991(6) 0.4605(4)
C21_2 C 0.8990(3) 0.3294(4) 0.4650(4)
C7_2 C 0.8258(3) 0.5338(3) 0.9689(3)
C8_2 C 0.8161(4) 0.5909(4) 0.9045(4)
H4_2 H 0.7690 0.5678 0.8599
C9_2 C 0.8780(4) 0.6826(4) 0.9087(5)
H5_2 H 0.8729 0.7218 0.8659
C10_2 C 0.9490(4) 0.7180(4) 0.9767(5)
H6_2 H 0.9885 0.7805 0.9793
Cl1 Cl 0.0000 0.0000 0.0000
Cl1_2 Cl 0.0000 0.0000 1.0000
Cl1_3 Cl -0.0000 1.0000 0.0000
Cl1_4 Cl -0.0000 1.0000 1.0000
Cl1_5 Cl 1.0000 0.0000 0.0000
Cl1_6 Cl 1.0000 0.0000 1.0000
Cl1_7 Cl 1.0000 1.0000 0.0000
Cl1_8 Cl 1.0000 1.0000 1.0000
Cl1_9 Cl 0.0000 -0.0000 0.5000
Cl1_10 Cl -0.0000 1.0000 0.5000
Cl1_11 Cl 1.0000 -0.0000 0.5000
Cl1_12 Cl 1.0000 1.0000 0.5000
loop_
_geom_bond_atom_site_label_1
_geom_bond_atom_site_label_2
_geom_bond_site_symmetry_1
_geom_bond_site_symmetry_2
C7 N2 1_555 1_555
C8 C7 1_555 1_555
H4 C8 1_555 1_555
C9 C8 1_555 1_555
H5 C9 1_555 1_555
C10 C9 1_555 1_555
H6 C10 1_555 1_555
Co8 N2 1_555 1_555
N1 C4 1_555 1_555
C5 C4 1_555 1_555
H2 C5 1_555 1_555
C6 N1 1_555 1_555
H3 C6 1_555 1_555
C12 N1 1_555 1_555
N3 C14 1_555 1_555
N4 C15 1_555 1_555
C14 C5 1_555 1_555
C15 N3 1_555 1_555
H9 C15 1_555 1_555
C16 N4 1_555 1_555
C17 C16 1_555 1_555
H10 C17 1_555 1_555
C18 C17 1_555 1_555
H11 C18 1_555 1_555
C19 C18 1_555 1_555
H12 C19 1_555 1_555
C20 C19 1_555 1_555
C21 N3 1_555 1_555
Co5 N4 1_555 1_555
C11 C12 1_555 1_555
C16 C21 1_555 1_555
C20 C21 1_555 1_555
C28 N6 1_555 1_555
C29 C28 1_555 1_555
H17 C29 1_555 1_555
C30 C29 1_555 1_555
H18 C30 1_555 1_555
C31 C30 1_555 1_555
H19 C31 1_555 1_555
Co8 N6 1_555 1_555
Co1 O1 1_555 1_555
O1 C1 1_555 1_555
C1 C2 1_555 1_555
C2 C3 1_555 1_555
C3 H1 1_555 1_555
O2 C1 1_555 1_555
C13 C2 1_555 1_555
H8 C13 1_555 1_555
O3 Co1 1_555 1_555
N5 C25 1_555 1_555
C22 O3 1_555 1_555
C23 C22 1_555 1_555
C24 C23 1_555 1_555
H14 C24 1_555 1_555
C25 C24 1_555 1_555
C26 C25 1_555 1_555
H15 C26 1_555 1_555
C27 N5 1_555 1_555
H16 C27 1_555 1_555
H20 C32 1_555 1_555
C33 N5 1_555 1_555
O4 C22 1_555 1_555
N7 C35 1_555 1_555
N8 C36 1_555 1_555
C34 C23 1_555 1_555
H21 C34 1_555 1_555
C35 C26 1_555 1_555
C36 N7 1_555 1_555
H22 C36 1_555 1_555
C37 N8 1_555 1_555
C38 C37 1_555 1_555
H23 C38 1_555 1_555
C39 C38 1_555 1_555
H24 C39 1_555 1_555
C40 C39 1_555 1_555
H25 C40 1_555 1_555
C41 C40 1_555 1_555
H26 C41 1_555 1_555
C42 N7 1_555 1_555
O5 Co1 1_555 1_555
C43 O5 1_555 1_555
C44 C43 1_555 1_555
C45 C44 1_555 1_555
H27 C45 1_555 1_555
O6 C43 1_555 1_555
C55 C44 1_555 1_555
H34 C55 1_555 1_555
Co2 O2 1_555 1_555
Co5 N8 1_555 1_555
N13 Co2 1_555 1_555
N14 Co2 1_555 1_555
N15 Co2 1_555 1_555
N16 Co1 1_555 1_555
N17 Co1 1_555 1_555
N18 Co1 1_555 1_555
C32 C33 1_555 1_555
O4 Co2 1_555 1_555
C34 C35 1_555 1_555
C37 C42 1_555 1_555
C41 C42 1_555 1_555
O6 Co2 1_555 1_555
C49 N10 1_555 1_555
C50 C49 1_555 1_555
H30 C50 1_555 1_555
C51 C50 1_555 1_555
H31 C51 1_555 1_555
C52 C51 1_555 1_555
H32 C52 1_555 1_555
Co8 N10 1_555 1_555
N9 C46 1_555 1_555
C47 C46 1_555 1_555
H28 C47 1_555 1_555
C48 N9 1_555 1_555
H29 C48 1_555 1_555
C54 N9 1_555 1_555
N11 C56 1_555 1_555
N12 C57 1_555 1_555
C56 C47 1_555 1_555
C57 N11 1_555 1_555
H35 C57 1_555 1_555
C58 N12 1_555 1_555
C59 C58 1_555 1_555
H36 C59 1_555 1_555
C60 C59 1_555 1_555
H37 C60 1_555 1_555
C61 C60 1_555 1_555
H38 C61 1_555 1_555
C62 C61 1_555 1_555
C63 N11 1_555 1_555
Co5 N12 1_555 1_555
C53 C54 1_555 1_555
C58 C63 1_555 1_555
C62 C63 1_555 1_555
N9_2 C46_2 1_555 1_555
C47_2 C46_2 1_555 1_555
H28_2 C47_2 1_555 1_555
C48_2 N9_2 1_555 1_555
H29_2 C48_2 1_555 1_555
C54_2 N9_2 1_555 1_555
N11_2 C56_2 1_555 1_555
N16 C57_2 1_555 1_555
C56_2 C47_2 1_555 1_555
C57_2 N11_2 1_555 1_555
H35_2 C57_2 1_555 1_555
C58_2 N16 1_555 1_555
C59_2 C58_2 1_555 1_555
H36_2 C59_2 1_555 1_555
C60_2 C59_2 1_555 1_555
H37_2 C60_2 1_555 1_555
C61_2 C60_2 1_555 1_555
H38_2 C61_2 1_555 1_555
C62_2 C61_2 1_555 1_555
C63_2 N11_2 1_555 1_555
C53_2 C54_2 1_555 1_555
C58_2 C63_2 1_555 1_555
C62_2 C63_2 1_555 1_555
C49_2 N15 1_555 1_555
C50_2 C49_2 1_555 1_555
H30_2 C50_2 1_555 1_555
C51_2 C50_2 1_555 1_555
H31_2 C51_2 1_555 1_555
C52_2 C51_2 1_555 1_555
H32_2 C52_2 1_555 1_555
Co5 O1_2 1_555 1_555
O1_2 C1_2 1_555 1_555
C1_2 C2_2 1_555 1_555
C2_2 C3_2 1_555 1_555
C3_2 H1_2 1_555 1_555
O2_2 C1_2 1_555 1_555
C13_2 C2_2 1_555 1_555
H8_2 C13_2 1_555 1_555
O3_2 Co5 1_555 1_555
N5_2 C25_2 1_555 1_555
C22_2 O3_2 1_555 1_555
C23_2 C22_2 1_555 1_555
C24_2 C23_2 1_555 1_555
H14_2 C24_2 1_555 1_555
C25_2 C24_2 1_555 1_555
C26_2 C25_2 1_555 1_555
H15_2 C26_2 1_555 1_555
C27_2 N5_2 1_555 1_555
H16_2 C27_2 1_555 1_555
H20_2 C32_2 1_555 1_555
C33_2 N5_2 1_555 1_555
O4_2 C22_2 1_555 1_555
N7_2 C35_2 1_555 1_555
N18 C36_2 1_555 1_555
C34_2 C23_2 1_555 1_555
H21_2 C34_2 1_555 1_555
C35_2 C26_2 1_555 1_555
C36_2 N7_2 1_555 1_555
H22_2 C36_2 1_555 1_555
C37_2 N18 1_555 1_555
C38_2 C37_2 1_555 1_555
H23_2 C38_2 1_555 1_555
C39_2 C38_2 1_555 1_555
H24_2 C39_2 1_555 1_555
C40_2 C39_2 1_555 1_555
H25_2 C40_2 1_555 1_555
C41_2 C40_2 1_555 1_555
H26_2 C41_2 1_555 1_555
C42_2 N7_2 1_555 1_555
O5_2 Co5 1_555 1_555
C43_2 O5_2 1_555 1_555
C44_2 C43_2 1_555 1_555
C45_2 C44_2 1_555 1_555
H27_2 C45_2 1_555 1_555
O6_2 C43_2 1_555 1_555
C55_2 C44_2 1_555 1_555
H34_2 C55_2 1_555 1_555
Co8 O2_2 1_555 1_555
C32_2 C33_2 1_555 1_555
O4_2 Co8 1_555 1_555
C34_2 C35_2 1_555 1_555
C37_2 C42_2 1_555 1_555
C41_2 C42_2 1_555 1_555
O6_2 Co8 1_555 1_555
C28_2 N14 1_555 1_555
C29_2 C28_2 1_555 1_555
H17_2 C29_2 1_555 1_555
C30_2 C29_2 1_555 1_555
H18_2 C30_2 1_555 1_555
C31_2 C30_2 1_555 1_555
H19_2 C31_2 1_555 1_555
N1_2 C4_2 1_555 1_555
C5_2 C4_2 1_555 1_555
H2_2 C5_2 1_555 1_555
C6_2 N1_2 1_555 1_555
H3_2 C6_2 1_555 1_555
C12_2 N1_2 1_555 1_555
N3_2 C14_2 1_555 1_555
N17 C15_2 1_555 1_555
C14_2 C5_2 1_555 1_555
C15_2 N3_2 1_555 1_555
H9_2 C15_2 1_555 1_555
C16_2 N17 1_555 1_555
C17_2 C16_2 1_555 1_555
H10_2 C17_2 1_555 1_555
C18_2 C17_2 1_555 1_555
H11_2 C18_2 1_555 1_555
C19_2 C18_2 1_555 1_555
H12_2 C19_2 1_555 1_555
C20_2 C19_2 1_555 1_555
C21_2 N3_2 1_555 1_555
C11_2 C12_2 1_555 1_555
C16_2 C21_2 1_555 1_555
C20_2 C21_2 1_555 1_555
C7_2 N13 1_555 1_555
C8_2 C7_2 1_555 1_555
H4_2 C8_2 1_555 1_555
C9_2 C8_2 1_555 1_555
H5_2 C9_2 1_555 1_555
C10_2 C9_2 1_555 1_555
H6_2 C10_2 1_555 1_555

#END
