
###############################################################################
#
# This file contains modified crystal structure data generated from the
# MOF subset of the Cambridge Structural Database (CSD) v543 
# hosted by the Cambridge Crystallographic Data Centre (CCDC).
#
# This work is licensed under the Creative Commons
# Attribution-NonCommercial-ShareAlike 4.0 International License.
# To view a copy of this license, visit
# http://creativecommons.org/licenses/by-nc-sa/4.0/
# or send a letter to
# Creative Commons, PO Box 1866, Mountain View, CA 94042, USA.
#
# CIF created using the CSD Python API on 29 September 2022
# The structure has been converted into the P1 space group
# The structure has a 3D framework
# The original CSD entry YUBQET is in the monoclinic crystal system
# The framework has been calculated to contain at least 10.0% void space
# The void calculation uses a probe of radius 1.32A, grid spacing 0.4
#
###############################################################################

data_YUBQET
_chemical_formula_moiety         '(C132 H84 Co2 N36 O16)n'
_symmetry_cell_setting           triclinic
_symmetry_space_group_name_H-M   'P 1'
_symmetry_Int_Tables_number      1
_space_group_name_Hall           'P 1'
loop_
_symmetry_equiv_pos_site_id
_symmetry_equiv_pos_as_xyz
1 x,y,z
_cell_length_a                   11.0020(6)
_cell_length_b                   22.1547(17)
_cell_length_c                   16.9957(9)
_cell_angle_alpha                90
_cell_angle_beta                 100.697(5)
_cell_angle_gamma                90
_cell_volume                     4070.65
loop_
_atom_site_label
_atom_site_type_symbol
_atom_site_fract_x
_atom_site_fract_y
_atom_site_fract_z
N2 N 0.0529(2) 0.55536(13) 0.63222(17)
C4 C 0.0997(3) 0.51942(17) 0.6939(2)
H4 H 0.1734 0.4993 0.6921
C22 C 0.0457(4) 0.51049(18) 0.7594(2)
H14 H 0.0814 0.4844 0.8001
Co2 Co 0.14436(4) 0.557404(19) 0.53059(3)
O1 O 0.00072(19) 0.59090(11) 0.45246(14)
N1 N 0.2442(2) 0.55154(12) 0.43341(16)
N3 N 0.4411(3) 0.56201(15) 0.18218(19)
H1 H 0.3828 0.5869 0.1636
N4 N 0.5603(3) 0.49748(14) 0.25744(19)
N5 N 0.6118(3) 0.50443(15) 0.1913(2)
C3 C 0.4110(3) 0.50414(16) 0.3830(2)
H3 H 0.4764 0.4769 0.3911
C5 C 0.4583(3) 0.53298(17) 0.2505(2)
C6 C 0.3835(3) 0.53810(17) 0.3131(2)
C9 C 0.2851(3) 0.57812(18) 0.3049(2)
H7 H 0.2639 0.6010 0.2585
C10 C 0.5360(3) 0.54376(19) 0.1477(2)
C11 C 0.3376(3) 0.51239(16) 0.4403(2)
H8 H 0.3547 0.4891 0.4865
C12 C 0.6484(3) 0.5423(2) 0.0328(2)
H9 H 0.7035 0.5138 0.0591
C13 C 0.2187(3) 0.58384(16) 0.3660(2)
H10 H 0.1537 0.6113 0.3599
C28 C 0.5555(4) 0.5643(2) 0.0688(2)
C33 C 0.4741(5) 0.6044(3) 0.0261(3)
H21 H 0.4100 0.6185 0.0499
O5 O 0.2140(2) 0.64692(11) 0.56017(15)
O6 O 0.3264(2) 0.57143(10) 0.61576(14)
O7 O 0.1626(2) 0.46685(11) 0.53921(14)
Co1 Co 0.85564(4) 0.057404(19) 0.96941(3)
O5_2 O 0.7860(2) 0.14692(11) 0.93983(15)
O6_2 O 0.6736(2) 0.07143(10) 0.88424(14)
N10 N 0.9471(2) 0.05536(13) 0.86778(17)
O7_2 O 0.8374(2) 0.96685(11) 0.96079(14)
C4_2 C 0.9003(3) 0.01942(17) 0.8061(2)
C22_2 C 0.9543(4) 0.01049(18) 0.7406(2)
C1 C 0.6001(3) 0.17113(16) 0.8508(2)
C2 C 0.6908(3) 0.12749(16) 0.8933(2)
C14 C 0.2219(4) 0.29311(19) 0.7044(3)
H11 H 0.1876 0.2632 0.7318
C15 C 0.1123(3) 0.42139(16) 0.5633(2)
C16 C 0.1933(3) 0.37774(16) 0.6162(2)
C17 C 0.3497(3) 0.29737(17) 0.7136(2)
C18 C 0.4340(3) 0.25358(17) 0.7633(2)
C20 C 0.1447(3) 0.33220(19) 0.6557(2)
H12 H 0.0594 0.3278 0.6495
C21 C 0.4040(3) 0.19324(17) 0.7643(2)
H13 H 0.3286 0.1798 0.7356
C24 C 0.3962(4) 0.3424(2) 0.6738(3)
H15 H 0.4816 0.3460 0.6790
C27 C 0.4859(3) 0.15217(18) 0.8081(2)
H16 H 0.4640 0.1116 0.8089
C29 C 0.6277(4) 0.23259(18) 0.8509(3)
H17 H 0.7021 0.2464 0.8806
C30 C 0.3213(3) 0.38290(19) 0.6259(3)
H18 H 0.3562 0.4136 0.6002
C32 C 0.5472(4) 0.27296(18) 0.8079(3)
H20 H 0.5680 0.3137 0.8084
C1_2 C 0.3999(3) 0.67113(16) 0.6492(2)
C2_2 C 0.3092(3) 0.62749(16) 0.6067(2)
C14_2 C 0.7781(4) 0.79311(19) 0.7956(3)
H11_2 H 0.8124 0.7632 0.7682
C15_2 C 0.8877(3) 0.92139(16) 0.9367(2)
C16_2 C 0.8067(3) 0.87774(16) 0.8838(2)
C17_2 C 0.6503(3) 0.79737(17) 0.7864(2)
C18_2 C 0.5660(3) 0.75358(17) 0.7367(2)
C20_2 C 0.8553(3) 0.83220(19) 0.8443(2)
H12_2 H 0.9406 0.8278 0.8505
C21_2 C 0.5960(3) 0.69324(17) 0.7357(2)
H13_2 H 0.6714 0.6798 0.7644
C24_2 C 0.6038(4) 0.8424(2) 0.8262(3)
H15_2 H 0.5184 0.8460 0.8210
C27_2 C 0.5141(3) 0.65217(18) 0.6919(2)
H16_2 H 0.5360 0.6116 0.6911
C29_2 C 0.3723(4) 0.73259(18) 0.6491(3)
H17_2 H 0.2979 0.7464 0.6194
C30_2 C 0.6787(3) 0.88290(19) 0.8741(3)
H18_2 H 0.6438 0.9136 0.8998
C32_2 C 0.4528(4) 0.77296(18) 0.6921(3)
H20_2 H 0.4320 0.8137 0.6916
N6 N 0.8345(3) 0.49663(16) 0.9399(2)
N7 N 0.7811(3) 0.56514(15) 0.84844(19)
H2 H 0.7442 0.5945 0.8206
N8 N 0.9132(3) 0.48914(16) 0.8873(2)
C7 C 0.9481(3) 0.58442(17) 0.6374(2)
H5 H 0.9135 0.6097 0.5955
C8 C 0.8887(3) 0.57878(18) 0.7015(2)
H6 H 0.8166 0.6003 0.7029
N9 N 0.4799(4) 0.6247(3) 0.9525(3)
C19 C 0.9376(3) 0.54066(17) 0.7642(2)
C23 C 0.6598(4) 0.5623(2) 0.9577(3)
C25 C 0.7565(3) 0.5422(2) 0.9157(2)
C26 C 0.8759(4) 0.53256(19) 0.8338(2)
C31 C 0.5721(5) 0.6028(3) 0.9213(3)
H19 H 0.5783 0.6158 0.8702
O2 O 0.2140(2) 0.85308(11) 0.06017(15)
O3 O 0.3264(2) 0.92857(10) 0.11576(14)
O4 O 0.8374(2) 0.53315(11) 0.46079(14)
C1_3 C 0.3999(3) 0.82887(16) 0.1492(2)
C2_3 C 0.3092(3) 0.87251(16) 0.1067(2)
C14_3 C 0.7781(4) 0.70689(19) 0.2956(3)
H11_3 H 0.8124 0.7368 0.2682
C15_3 C 0.8877(3) 0.57861(16) 0.4367(2)
C16_3 C 0.8067(3) 0.62226(16) 0.3838(2)
C17_3 C 0.6503(3) 0.70263(17) 0.2864(2)
C18_3 C 0.5660(3) 0.74642(17) 0.2367(2)
C20_3 C 0.8553(3) 0.66780(19) 0.3443(2)
H12_3 H 0.9406 0.6722 0.3505
C21_3 C 0.5960(3) 0.80676(17) 0.2357(2)
H13_3 H 0.6714 0.8202 0.2644
C24_3 C 0.6038(4) 0.6576(2) 0.3262(3)
H15_3 H 0.5184 0.6540 0.3210
C27_3 C 0.5141(3) 0.84783(18) 0.1919(2)
H16_3 H 0.5360 0.8884 0.1911
C29_3 C 0.3723(4) 0.76741(18) 0.1491(3)
H17_3 H 0.2979 0.7536 0.1194
C30_3 C 0.6787(3) 0.61710(19) 0.3741(3)
H18_3 H 0.6438 0.5864 0.3998
C32_3 C 0.4528(4) 0.72704(18) 0.1921(3)
H20_3 H 0.4320 0.6863 0.1916
Co3 Co 0.85564(4) 0.442596(19) 0.46941(3)
Co4 Co 0.14436(4) 0.942596(19) 0.03059(3)
O2_2 O 0.7860(2) 0.35308(11) 0.43983(15)
O3_2 O 0.6736(2) 0.42857(10) 0.38424(14)
O4_2 O 0.1626(2) 0.03315(11) 0.03921(14)
C1_4 C 0.6001(3) 0.32887(16) 0.3508(2)
C2_4 C 0.6908(3) 0.37251(16) 0.3933(2)
C14_4 C 0.2219(4) 0.20689(19) 0.2044(3)
H11_4 H 0.1876 0.2368 0.2318
C15_4 C 0.1123(3) 0.07861(16) 0.0633(2)
C16_4 C 0.1933(3) 0.12226(16) 0.1162(2)
C17_4 C 0.3497(3) 0.20263(17) 0.2136(2)
C18_4 C 0.4340(3) 0.24642(17) 0.2633(2)
C20_4 C 0.1447(3) 0.16780(19) 0.1557(2)
H12_4 H 0.0594 0.1722 0.1495
C21_4 C 0.4040(3) 0.30676(17) 0.2643(2)
H13_4 H 0.3286 0.3202 0.2356
C24_4 C 0.3962(4) 0.1576(2) 0.1738(3)
H15_4 H 0.4816 0.1540 0.1790
C27_4 C 0.4859(3) 0.34783(18) 0.3081(2)
H16_4 H 0.4640 0.3884 0.3089
C29_4 C 0.6277(4) 0.26741(18) 0.3509(3)
H17_4 H 0.7021 0.2536 0.3806
C30_4 C 0.3213(3) 0.11710(19) 0.1259(3)
H18_4 H 0.3562 0.0864 0.1002
C32_4 C 0.5472(4) 0.22704(18) 0.3079(3)
H20_4 H 0.5680 0.1863 0.3084
O1_2 O 0.99928(19) 0.40910(11) 0.54754(14)
N1_2 N 0.7558(2) 0.44846(12) 0.56659(16)
N3_2 N 0.5589(3) 0.43799(15) 0.81782(19)
H1_2 H 0.6172 0.4131 0.8364
N4_2 N 0.4397(3) 0.50252(14) 0.74256(19)
N5_2 N 0.3882(3) 0.49557(15) 0.8087(2)
C3_2 C 0.5890(3) 0.49586(16) 0.6170(2)
H3_2 H 0.5236 0.5231 0.6089
C5_2 C 0.5417(3) 0.46702(17) 0.7495(2)
C6_2 C 0.6165(3) 0.46190(17) 0.6869(2)
C9_2 C 0.7149(3) 0.42188(18) 0.6951(2)
H7_2 H 0.7361 0.3990 0.7415
C10_2 C 0.4640(3) 0.45624(19) 0.8523(2)
C11_2 C 0.6624(3) 0.48761(16) 0.5597(2)
H8_2 H 0.6453 0.5109 0.5135
C12_2 C 0.3516(3) 0.4577(2) 0.9672(2)
H9_2 H 0.2965 0.4862 0.9409
C13_2 C 0.7813(3) 0.41616(16) 0.6340(2)
H10_2 H 0.8463 0.3887 0.6401
C28_2 C 0.4445(4) 0.4357(2) 0.9312(2)
C33_2 C 0.5259(5) 0.3956(3) 0.9739(3)
H21_2 H 0.5900 0.3815 0.9501
N10_2 N 0.9471(2) 0.44464(13) 0.36778(17)
C4_3 C 0.9003(3) 0.48058(17) 0.3061(2)
H4_2 H 0.8266 0.5007 0.3079
C22_3 C 0.9543(4) 0.48951(18) 0.2406(2)
H14_2 H 0.9186 0.5156 0.1999
N2_2 N 0.0529(2) 0.94464(13) 0.13222(17)
C4_4 C 0.0997(3) 0.98058(17) 0.1939(2)
C22_4 C 0.0457(4) 0.98951(18) 0.2594(2)
O1_3 O 0.99928(19) 0.09090(11) 0.04754(14)
N1_3 N 0.7558(2) 0.05154(12) 0.06659(16)
N3_3 N 0.5589(3) 0.06201(15) 0.31782(19)
H1_3 H 0.6172 0.0869 0.3364
N5_3 N 0.3882(3) 0.00443(15) 0.3087(2)
N7_2 N 0.2189(3) 0.06514(15) 0.65156(19)
H2_2 H 0.2558 0.0945 0.6794
C3_3 C 0.5890(3) 0.00414(16) 0.1170(2)
C5_3 C 0.5417(3) 0.03298(17) 0.2495(2)
C6_3 C 0.6165(3) 0.03810(17) 0.1869(2)
C7_2 C 0.0519(3) 0.08442(17) 0.8626(2)
H5_2 H 0.0865 0.1097 0.9045
C8_2 C 0.1113(3) 0.07878(18) 0.7985(2)
H6_2 H 0.1834 0.1003 0.7971
C9_3 C 0.7149(3) 0.07812(18) 0.1951(2)
H7_3 H 0.7361 0.1010 0.2415
C10_3 C 0.4640(3) 0.04376(19) 0.3523(2)
N9_2 N 0.5201(4) 0.1247(3) 0.5475(3)
C11_3 C 0.6624(3) 0.01239(16) 0.0597(2)
C12_3 C 0.3516(3) 0.0423(2) 0.4672(2)
H9_3 H 0.2965 0.0138 0.4409
C13_3 C 0.7813(3) 0.08384(16) 0.1340(2)
H10_3 H 0.8463 0.1113 0.1401
C19_2 C 0.0624(3) 0.04066(17) 0.7358(2)
C23_2 C 0.3402(4) 0.0623(2) 0.5423(3)
C25_2 C 0.2435(3) 0.0422(2) 0.5843(2)
C26_2 C 0.1241(4) 0.03256(19) 0.6662(2)
C28_3 C 0.4445(4) 0.0643(2) 0.4312(2)
C31_2 C 0.4279(5) 0.1028(3) 0.5787(3)
H19_2 H 0.4217 0.1158 0.6298
C33_3 C 0.5259(5) 0.1044(3) 0.4739(3)
H21_3 H 0.5900 0.1185 0.4501
N4_3 N 0.4397(3) 0.99748(14) 0.24256(19)
N6_2 N 0.1655(3) 0.99663(16) 0.5601(2)
H3_3 H 0.5236 0.9769 0.1089
N8_2 N 0.0868(3) 0.98914(16) 0.6127(2)
H8_3 H 0.6453 0.9891 0.0135
H4_3 H 0.8266 0.9993 0.8079
H14_3 H 0.9186 0.9844 0.6999
N6_3 N 0.1655(3) 0.50337(16) 0.0601(2)
N7_3 N 0.2189(3) 0.43486(15) 0.15156(19)
H2_3 H 0.2558 0.4055 0.1794
N8_3 N 0.0868(3) 0.51086(16) 0.1127(2)
C7_3 C 0.0519(3) 0.41558(17) 0.3626(2)
H5_3 H 0.0865 0.3903 0.4045
C8_3 C 0.1113(3) 0.42122(18) 0.2985(2)
H6_3 H 0.1834 0.3997 0.2971
N9_3 N 0.5201(4) 0.3753(3) 0.0475(3)
C19_3 C 0.0624(3) 0.45934(17) 0.2358(2)
C23_3 C 0.3402(4) 0.4377(2) 0.0423(3)
C25_3 C 0.2435(3) 0.4578(2) 0.0843(2)
C26_3 C 0.1241(4) 0.46744(19) 0.1662(2)
C31_3 C 0.4279(5) 0.3972(3) 0.0787(3)
H19_3 H 0.4217 0.3842 0.1298
H4_4 H 0.1734 0.0007 0.1921
H14_4 H 0.0814 0.0156 0.3001
N4_4 N 0.5603(3) 0.00252(14) 0.75744(19)
N6_4 N 0.8345(3) 0.00337(16) 0.4399(2)
H3_4 H 0.4764 0.0231 0.8911
N8_4 N 0.9132(3) 0.01086(16) 0.3873(2)
H8_4 H 0.3547 0.0109 0.9865
O1_4 O 0.00072(19) 0.90910(11) 0.95246(14)
N1_4 N 0.2442(2) 0.94846(12) 0.93341(16)
N3_4 N 0.4411(3) 0.93799(15) 0.68218(19)
H1_4 H 0.3828 0.9131 0.6636
N5_4 N 0.6118(3) 0.99557(15) 0.6913(2)
N7_4 N 0.7811(3) 0.93486(15) 0.34844(19)
H2_4 H 0.7442 0.9055 0.3206
C3_4 C 0.4110(3) 0.99586(16) 0.8830(2)
C5_4 C 0.4583(3) 0.96702(17) 0.7505(2)
C6_4 C 0.3835(3) 0.96190(17) 0.8131(2)
C7_4 C 0.9481(3) 0.91558(17) 0.1374(2)
H5_4 H 0.9135 0.8903 0.0955
C8_4 C 0.8887(3) 0.92122(18) 0.2015(2)
H6_4 H 0.8166 0.8997 0.2029
C9_4 C 0.2851(3) 0.92188(18) 0.8049(2)
H7_4 H 0.2639 0.8990 0.7585
C10_4 C 0.5360(3) 0.95624(19) 0.6477(2)
N9_4 N 0.4799(4) 0.8753(3) 0.4525(3)
C11_4 C 0.3376(3) 0.98761(16) 0.9403(2)
C12_4 C 0.6484(3) 0.9577(2) 0.5328(2)
H9_4 H 0.7035 0.9862 0.5591
C13_4 C 0.2187(3) 0.91616(16) 0.8660(2)
H10_4 H 0.1537 0.8887 0.8599
C19_4 C 0.9376(3) 0.95934(17) 0.2642(2)
C23_4 C 0.6598(4) 0.9377(2) 0.4577(3)
C25_4 C 0.7565(3) 0.9578(2) 0.4157(2)
C26_4 C 0.8759(4) 0.96744(19) 0.3338(2)
C28_4 C 0.5555(4) 0.9357(2) 0.5688(2)
C31_4 C 0.5721(5) 0.8972(3) 0.4213(3)
H19_4 H 0.5783 0.8842 0.3702
C33_4 C 0.4741(5) 0.8956(3) 0.5261(3)
H21_4 H 0.4100 0.8815 0.5499
loop_
_geom_bond_atom_site_label_1
_geom_bond_atom_site_label_2
_geom_bond_site_symmetry_1
_geom_bond_site_symmetry_2
N2 C4 1_555 1_555
C4 H4 1_555 1_555
C22 C4 1_555 1_555
H14 C22 1_555 1_555
Co2 N2 1_555 1_555
Co2 O1 1_555 1_555
N1 Co2 1_555 1_555
N3 H1 1_555 1_555
N4 N5 1_555 1_555
N5 C10 1_555 1_555
C3 H3 1_555 1_555
C5 N3 1_555 1_555
C6 C3 1_555 1_555
C9 C6 1_555 1_555
H7 C9 1_555 1_555
C10 N3 1_555 1_555
C11 N1 1_555 1_555
H8 C11 1_555 1_555
C12 H9 1_555 1_555
C13 N1 1_555 1_555
H10 C13 1_555 1_555
C28 C10 1_555 1_555
H21 C33 1_555 1_555
O5 Co2 1_555 1_555
O6 Co2 1_555 1_555
O7 Co2 1_555 1_555
N4 C5 1_555 1_555
C3 C11 1_555 1_555
C5 C6 1_555 1_555
C9 C13 1_555 1_555
C12 C28 1_555 1_555
C28 C33 1_555 1_555
O5_2 Co1 1_555 1_555
O6_2 Co1 1_555 1_555
N10 Co1 1_555 1_555
N10 C4_2 1_555 1_555
C22_2 C4_2 1_555 1_555
O5_2 C2 1_555 1_555
O6_2 C2 1_555 1_555
O7 C15 1_555 1_555
C1 C2 1_555 1_555
C14 H11 1_555 1_555
C15 C16 1_555 1_555
C16 C20 1_555 1_555
C17 C14 1_555 1_555
C18 C17 1_555 1_555
C20 C14 1_555 1_555
H12 C20 1_555 1_555
C21 C18 1_555 1_555
H13 C21 1_555 1_555
C24 C17 1_555 1_555
H15 C24 1_555 1_555
C27 C1 1_555 1_555
H16 C27 1_555 1_555
C29 C1 1_555 1_555
H17 C29 1_555 1_555
C30 C16 1_555 1_555
H18 C30 1_555 1_555
C32 C18 1_555 1_555
H20 C32 1_555 1_555
C21 C27 1_555 1_555
C24 C30 1_555 1_555
C29 C32 1_555 1_555
O5 C2_2 1_555 1_555
O6 C2_2 1_555 1_555
O7_2 C15_2 1_555 1_555
C1_2 C2_2 1_555 1_555
C14_2 H11_2 1_555 1_555
C15_2 C16_2 1_555 1_555
C16_2 C20_2 1_555 1_555
C17_2 C14_2 1_555 1_555
C18_2 C17_2 1_555 1_555
C20_2 C14_2 1_555 1_555
H12_2 C20_2 1_555 1_555
C21_2 C18_2 1_555 1_555
H13_2 C21_2 1_555 1_555
C24_2 C17_2 1_555 1_555
H15_2 C24_2 1_555 1_555
C27_2 C1_2 1_555 1_555
H16_2 C27_2 1_555 1_555
C29_2 C1_2 1_555 1_555
H17_2 C29_2 1_555 1_555
C30_2 C16_2 1_555 1_555
H18_2 C30_2 1_555 1_555
C32_2 C18_2 1_555 1_555
H20_2 C32_2 1_555 1_555
C21_2 C27_2 1_555 1_555
C24_2 C30_2 1_555 1_555
C29_2 C32_2 1_555 1_555
N6 N8 1_555 1_555
N7 H2 1_555 1_555
N8 C26 1_555 1_555
H5 C7 1_555 1_555
C8 C7 1_555 1_555
H6 C8 1_555 1_555
N9 C31 1_555 1_555
C19 C8 1_555 1_555
C25 N6 1_555 1_555
C26 N7 1_555 1_555
C31 C23 1_555 1_555
H19 C31 1_555 1_555
N7 C25 1_555 1_555
C19 C26 1_555 1_555
C23 C25 1_555 1_555
O2 C2_3 1_555 1_555
O3 C2_3 1_555 1_555
O4 C15_3 1_555 1_555
C1_3 C2_3 1_555 1_555
C14_3 H11_3 1_555 1_555
C15_3 C16_3 1_555 1_555
C16_3 C20_3 1_555 1_555
C17_3 C14_3 1_555 1_555
C18_3 C17_3 1_555 1_555
C20_3 C14_3 1_555 1_555
H12_3 C20_3 1_555 1_555
C21_3 C18_3 1_555 1_555
H13_3 C21_3 1_555 1_555
C24_3 C17_3 1_555 1_555
H15_3 C24_3 1_555 1_555
C27_3 C1_3 1_555 1_555
H16_3 C27_3 1_555 1_555
C29_3 C1_3 1_555 1_555
H17_3 C29_3 1_555 1_555
C30_3 C16_3 1_555 1_555
H18_3 C30_3 1_555 1_555
C32_3 C18_3 1_555 1_555
H20_3 C32_3 1_555 1_555
Co3 O4 1_555 1_555
Co4 O2 1_555 1_555
O3 Co4 1_555 1_555
C21_3 C27_3 1_555 1_555
C24_3 C30_3 1_555 1_555
C29_3 C32_3 1_555 1_555
O2_2 C2_4 1_555 1_555
O3_2 C2_4 1_555 1_555
O4_2 C15_4 1_555 1_555
C1_4 C2_4 1_555 1_555
C14_4 H11_4 1_555 1_555
C15_4 C16_4 1_555 1_555
C16_4 C20_4 1_555 1_555
C17_4 C14_4 1_555 1_555
C18_4 C17_4 1_555 1_555
C20_4 C14_4 1_555 1_555
H12_4 C20_4 1_555 1_555
C21_4 C18_4 1_555 1_555
H13_4 C21_4 1_555 1_555
C24_4 C17_4 1_555 1_555
H15_4 C24_4 1_555 1_555
C27_4 C1_4 1_555 1_555
H16_4 C27_4 1_555 1_555
C29_4 C1_4 1_555 1_555
H17_4 C29_4 1_555 1_555
C30_4 C16_4 1_555 1_555
H18_4 C30_4 1_555 1_555
C32_4 C18_4 1_555 1_555
H20_4 C32_4 1_555 1_555
Co3 O2_2 1_555 1_555
O3_2 Co3 1_555 1_555
C21_4 C27_4 1_555 1_555
C24_4 C30_4 1_555 1_555
C29_4 C32_4 1_555 1_555
Co3 O1_2 1_555 1_555
N1_2 Co3 1_555 1_555
N3_2 H1_2 1_555 1_555
N4_2 N5_2 1_555 1_555
N5_2 C10_2 1_555 1_555
C3_2 H3_2 1_555 1_555
C5_2 N3_2 1_555 1_555
C6_2 C3_2 1_555 1_555
C9_2 C6_2 1_555 1_555
H7_2 C9_2 1_555 1_555
C10_2 N3_2 1_555 1_555
C11_2 N1_2 1_555 1_555
H8_2 C11_2 1_555 1_555
C12_2 H9_2 1_555 1_555
C13_2 N1_2 1_555 1_555
H10_2 C13_2 1_555 1_555
C28_2 C10_2 1_555 1_555
H21_2 C33_2 1_555 1_555
N10_2 Co3 1_555 1_555
N4_2 C5_2 1_555 1_555
C3_2 C11_2 1_555 1_555
C5_2 C6_2 1_555 1_555
C9_2 C13_2 1_555 1_555
C12_2 C28_2 1_555 1_555
C28_2 C33_2 1_555 1_555
N10_2 C4_3 1_555 1_555
C4_3 H4_2 1_555 1_555
C22_3 C4_3 1_555 1_555
H14_2 C22_3 1_555 1_555
N2_2 C4_4 1_555 1_555
C22_4 C4_4 1_555 1_555
Co4 N2_2 1_555 1_555
N3_3 H1_3 1_555 1_555
N5_3 C10_3 1_555 1_555
N7_2 H2_2 1_555 1_555
C5_3 N3_3 1_555 1_555
C6_3 C3_3 1_555 1_555
H5_2 C7_2 1_555 1_555
C8_2 C7_2 1_555 1_555
H6_2 C8_2 1_555 1_555
C9_3 C6_3 1_555 1_555
H7_3 C9_3 1_555 1_555
C10_3 N3_3 1_555 1_555
N9_2 C31_2 1_555 1_555
C11_3 N1_3 1_555 1_555
C12_3 H9_3 1_555 1_555
C13_3 N1_3 1_555 1_555
H10_3 C13_3 1_555 1_555
C19_2 C8_2 1_555 1_555
C23_2 C12_3 1_555 1_555
C26_2 N7_2 1_555 1_555
C28_3 C10_3 1_555 1_555
C31_2 C23_2 1_555 1_555
H19_2 C31_2 1_555 1_555
C33_3 N9_2 1_555 1_555
H21_3 C33_3 1_555 1_555
N7_2 C25_2 1_555 1_555
C3_3 C11_3 1_555 1_555
C5_3 C6_3 1_555 1_555
C9_3 C13_3 1_555 1_555
C12_3 C28_3 1_555 1_555
C19_2 C26_2 1_555 1_555
C23_2 C25_2 1_555 1_555
C28_3 C33_3 1_555 1_555
N6_2 N8_2 1_555 1_555
N6_3 N8_3 1_555 1_555
N7_3 H2_3 1_555 1_555
N8_3 C26_3 1_555 1_555
H5_3 C7_3 1_555 1_555
C8_3 C7_3 1_555 1_555
H6_3 C8_3 1_555 1_555
N9_3 C31_3 1_555 1_555
C19_3 C8_3 1_555 1_555
C25_3 N6_3 1_555 1_555
C26_3 N7_3 1_555 1_555
C31_3 C23_3 1_555 1_555
H19_3 C31_3 1_555 1_555
N7_3 C25_3 1_555 1_555
C19_3 C26_3 1_555 1_555
C23_3 C25_3 1_555 1_555
N6_4 N8_4 1_555 1_555
N3_4 H1_4 1_555 1_555
N5_4 C10_4 1_555 1_555
N7_4 H2_4 1_555 1_555
C5_4 N3_4 1_555 1_555
C6_4 C3_4 1_555 1_555
H5_4 C7_4 1_555 1_555
C8_4 C7_4 1_555 1_555
H6_4 C8_4 1_555 1_555
C9_4 C6_4 1_555 1_555
H7_4 C9_4 1_555 1_555
C10_4 N3_4 1_555 1_555
N9_4 C31_4 1_555 1_555
C11_4 N1_4 1_555 1_555
C12_4 H9_4 1_555 1_555
C13_4 N1_4 1_555 1_555
H10_4 C13_4 1_555 1_555
C19_4 C8_4 1_555 1_555
C23_4 C12_4 1_555 1_555
C26_4 N7_4 1_555 1_555
C28_4 C10_4 1_555 1_555
C31_4 C23_4 1_555 1_555
H19_4 C31_4 1_555 1_555
C33_4 N9_4 1_555 1_555
H21_4 C33_4 1_555 1_555
N7_4 C25_4 1_555 1_555
C3_4 C11_4 1_555 1_555
C5_4 C6_4 1_555 1_555
C9_4 C13_4 1_555 1_555
C12_4 C28_4 1_555 1_555
C19_4 C26_4 1_555 1_555
C23_4 C25_4 1_555 1_555
C28_4 C33_4 1_555 1_555

#END
