
###############################################################################
#
# This file contains modified crystal structure data generated from the
# MOF subset of the Cambridge Structural Database (CSD) v543 
# hosted by the Cambridge Crystallographic Data Centre (CCDC).
#
# This work is licensed under the Creative Commons
# Attribution-NonCommercial-ShareAlike 4.0 International License.
# To view a copy of this license, visit
# http://creativecommons.org/licenses/by-nc-sa/4.0/
# or send a letter to
# Creative Commons, PO Box 1866, Mountain View, CA 94042, USA.
#
# CIF created using the CSD Python API on 29 September 2022
# The structure has been converted into the P1 space group
# The structure has a 3D framework
# The original CSD entry YUBZIH is in the triclinic crystal system
# The framework has been calculated to contain at least 10.0% void space
# The void calculation uses a probe of radius 1.32A, grid spacing 0.4
# H atom positions have been added when not included in the experimental data
# Generated hydrogen atom positions removed from atoms on special positions
#
###############################################################################

data_YUBZIH
_chemical_formula_moiety         '(C18 H32 Cu4 Mo8 N14 O32)n'
_symmetry_cell_setting           triclinic
_symmetry_space_group_name_H-M   'P 1'
_symmetry_Int_Tables_number      1
_space_group_name_Hall           'P 1'
loop_
_symmetry_equiv_pos_site_id
_symmetry_equiv_pos_as_xyz
1 x,y,z
_cell_length_a                   10.9470(15)
_cell_length_b                   12.3070(17)
_cell_length_c                   12.6940(18)
_cell_angle_alpha                110.441(3)
_cell_angle_beta                 111.246(3)
_cell_angle_gamma                101.491(3)
_cell_volume                     1385.79
loop_
_atom_site_label
_atom_site_type_symbol
_atom_site_fract_x
_atom_site_fract_y
_atom_site_fract_z
C6 C 0.0018(8) 0.5569(8) 0.8269(8)
C7 C 0.0326(9) 0.7692(8) 0.8855(8)
C8 C 0.1036(10) 0.5728(8) 0.7874(10)
H4 H 0.0067 0.8359 0.9177
C9 C 0.1670(9) 0.6889(8) 0.8012(9)
H5 H 0.1287 0.5064 0.7524
H6 H 0.2363 0.6992 0.7757
N17 N 0.1346(7) 0.7865(6) 0.8486(6)
Cu7 Cu 0.23039(10) 0.95959(8) 0.87235(9)
Cu5 Cu 0.76961(10) 0.04041(8) 0.12765(9)
O34 O 0.3509(6) 0.0191(5) 0.0985(5)
O3 O 0.6755(5) 0.0440(5) 0.3878(5)
O5 O 0.5794(5) 0.1245(5) 0.5553(5)
Mo2 Mo 0.50766(7) 0.04338(6) 0.21743(6)
Mo4 Mo 0.71835(7) 0.24572(6) 0.51367(6)
O6 O 0.6354(6) 0.0965(5) 0.1755(5)
O8 O 0.5399(6) 0.1871(5) 0.3532(5)
O12 O 0.8394(6) 0.2989(6) 0.4703(6)
O13 O 0.7008(7) 0.3765(5) 0.6032(6)
O15 O 0.9000(9) 0.0475(8) 0.3353(8)
N3 N 0.8654(7) 0.2135(6) 0.1514(6)
Mo5 Mo 0.76041(7) 0.16512(6) 0.73878(6)
Mo6 Mo 0.41215(7) 0.07359(6) 0.57272(6)
O18 O 0.2848(6) 0.0275(5) 0.4173(5)
O19 O 0.8461(5) 0.2197(5) 0.6493(5)
O20 O 0.8824(6) 0.1286(5) 0.8317(5)
O21 O 0.7786(6) 0.3105(5) 0.8402(5)
O22 O 0.5845(5) 0.0741(5) 0.7293(5)
O23 O 0.4056(6) 0.2088(5) 0.6617(5)
N8 N 0.4703(7) 0.1336(6) 0.8888(6)
N9 N 0.3627(6) 0.1342(6) 0.9211(6)
O32 O 0.0842(6) 0.0132(5) 0.9040(6)
H18 H 0.980579 0.0212654 0.337281
H20 H 0.107846 0.0395493 0.994638
Mo1 Mo 0.58785(7) 0.92641(6) 0.42728(6)
O1 O 0.5944(6) 0.7912(5) 0.3383(5)
O2 O 0.4155(5) 0.9259(5) 0.2707(5)
O4 O 0.7152(6) 0.9725(5) 0.5827(5)
Mo3 Mo 0.23959(7) 0.83488(6) 0.26122(6)
N1 N 0.5297(7) 0.8664(6) 0.1112(6)
O9 O 0.1539(5) 0.7803(5) 0.3507(5)
O10 O 0.1176(6) 0.8714(5) 0.1683(5)
O11 O 0.2214(6) 0.6895(5) 0.1598(5)
C1 C 0.4601(8) 0.7500(7) 0.0797(7)
N2 N 0.6373(6) 0.8658(6) 0.0789(6)
O14 O 0.9158(6) 0.9868(5) 0.0960(6)
N4 N 0.5171(7) 0.6719(6) 0.0309(6)
H1 H 0.3811 0.7250 0.0900
C2 C 0.6273(8) 0.7502(7) 0.0315(7)
Cu2 Cu 0.5000 0.5000 0.0000
O16 O 0.6461(8) 0.5674(6) 0.1815(6)
O17 O 0.4206(5) 0.8755(5) 0.4447(5)
Mo7 Mo 0.28165(7) 0.75428(6) 0.48633(6)
O24 O 0.3245(5) 0.9560(5) 0.6122(5)
O25 O 0.4601(6) 0.8129(5) 0.6468(5)
O26 O 0.1606(6) 0.7011(6) 0.5297(6)
O27 O 0.2992(7) 0.6235(5) 0.3968(6)
Mo8 Mo 0.49234(7) 0.95662(6) 0.78257(6)
O29 O 0.3646(6) 0.9035(5) 0.8245(5)
O30 O 0.6491(6) 0.9809(5) 0.9015(5)
N11 N 0.3160(8) 0.4289(6) 0.0491(8)
O33 O 0.1000(9) 0.9525(8) 0.6647(8)
C12 C 0.2885(9) 0.3091(7) 0.0181(8)
N13 N 0.2233(8) 0.4550(6) 0.0916(7)
N16 N 0.1852(7) 0.2570(6) 0.0378(6)
C13 C 0.1428(9) 0.3497(7) 0.0834(8)
H8 H 0.1531 0.1811 0.0243
C14 C 0.0326(8) 0.3429(7) 0.1233(8)
H9 H 0.0422 0.5202 0.1804
H15 H 0.920444 0.91552 0.114932
H16 H 0.892154 0.960451 0.00536208
H17 H 0.835925 0.990061 0.348258
H23 H 0.0638904 0.865965 0.595849
H24 H 0.0194208 0.978735 0.662719
Cu2_2 Cu 0.5000 0.5000 1.0000
C3 C 0.7115(9) 0.6909(7) 0.9819(8)
N5 N 0.6840(8) 0.5711(6) 0.9509(8)
N6 N 0.8148(7) 0.7430(6) 0.9622(6)
N7 N 0.7767(8) 0.5450(6) 0.9084(7)
C4 C 0.8572(9) 0.6503(7) 0.9166(8)
H2 H 0.8469 0.8189 0.9757
C5 C 0.9674(8) 0.6571(7) 0.8767(8)
H3 H 0.9578 0.4798 0.8196
N10 N 0.4829(7) 0.3281(6) 0.9691(6)
O31 O 0.3539(8) 0.4326(6) 0.8185(6)
C10 C 0.5399(8) 0.2500(7) 0.9203(7)
C11 C 0.3727(8) 0.2498(7) 0.9685(7)
H7 H 0.6189 0.2750 0.9100
C15 C 0.9982(8) 0.4431(8) 0.1731(8)
C16 C 0.9674(9) 0.2308(8) 0.1145(8)
C17 C 0.8964(10) 0.4272(8) 0.2126(10)
H10 H 0.9933 0.1641 0.0823
C18 C 0.8330(9) 0.3111(8) 0.1988(9)
H11 H 0.8713 0.4936 0.2476
H12 H 0.7637 0.3008 0.2243
H19 H 0.991304 0.942669 0.848292
H19_2 H 0.00869613 0.0573307 0.151708
H15_2 H 0.0795564 0.0844795 0.885068
H17_2 H 0.164075 0.00993913 0.651742
H23_2 H 0.93611 0.134035 0.404151
loop_
_geom_bond_atom_site_label_1
_geom_bond_atom_site_label_2
_geom_bond_site_symmetry_1
_geom_bond_site_symmetry_2
C8 C6 1_555 1_555
H4 C7 1_555 1_555
C9 C8 1_555 1_555
H5 C8 1_555 1_555
H6 C9 1_555 1_555
N17 C7 1_555 1_555
Cu7 N17 1_555 1_555
C9 N17 1_555 1_555
Mo4 O3 1_555 1_555
O6 Mo2 1_555 1_555
O34 Mo2 1_555 1_555
O8 Mo2 1_555 1_555
O12 Mo4 1_555 1_555
O13 Mo4 1_555 1_555
Cu5 O6 1_555 1_555
O15 Cu5 1_555 1_555
N3 Cu5 1_555 1_555
Mo6 O5 1_555 1_555
O19 Mo4 1_555 1_555
O20 Mo5 1_555 1_555
O21 Mo5 1_555 1_555
O22 Mo5 1_555 1_555
O23 Mo6 1_555 1_555
N9 N8 1_555 1_555
O3 Mo2 1_555 1_555
O5 Mo4 1_555 1_555
O5 Mo5 1_555 1_555
Mo4 O8 1_555 1_555
Mo5 O19 1_555 1_555
Mo6 O18 1_555 1_555
Mo6 O22 1_555 1_555
O15 H18 1_555 1_555
O32 H20 1_555 1_555
Mo1 O1 1_555 1_555
O2 Mo1 1_555 1_555
O4 Mo1 1_555 1_555
Mo3 O2 1_555 1_555
O9 Mo3 1_555 1_555
O10 Mo3 1_555 1_555
O11 Mo3 1_555 1_555
C1 N1 1_555 1_555
N2 N1 1_555 1_555
N4 C1 1_555 1_555
H1 C1 1_555 1_555
C2 N2 1_555 1_555
Cu2 N4 1_555 1_555
O16 Cu2 1_555 1_555
O17 Mo1 1_555 1_555
Mo7 O9 1_555 1_555
O25 Mo7 1_555 1_555
O26 Mo7 1_555 1_555
O27 Mo7 1_555 1_555
O29 Mo8 1_555 1_555
O30 Mo8 1_555 1_555
Cu7 O29 1_555 1_555
N11 Cu2 1_555 1_555
O33 Cu7 1_555 1_555
C12 N11 1_555 1_555
N13 N11 1_555 1_555
N16 C12 1_555 1_555
C13 N13 1_555 1_555
H8 N16 1_555 1_555
C14 C13 1_555 1_555
Mo3 O17 1_555 1_555
N4 C2 1_555 1_555
O17 Mo7 1_555 1_555
Mo7 O24 1_555 1_555
O24 Mo8 1_555 1_555
O25 Mo8 1_555 1_555
N16 C13 1_555 1_555
O14 H15 1_555 1_555
O14 H16 1_555 1_555
O33 H23 1_555 1_555
O33 H24 1_555 1_555
N5 Cu2_2 1_555 1_555
N6 C3 1_555 1_555
N7 N5 1_555 1_555
C4 N6 1_555 1_555
H2 N6 1_555 1_555
C5 C4 1_555 1_555
N10 Cu2_2 1_555 1_555
O31 Cu2_2 1_555 1_555
C10 N10 1_555 1_555
C11 N10 1_555 1_555
H7 C10 1_555 1_555
N8 C10 1_555 1_555
N9 C11 1_555 1_555
C3 N5 1_555 1_555
N7 C4 1_555 1_555
C17 C15 1_555 1_555
N3 C16 1_555 1_555
H10 C16 1_555 1_555
C18 C17 1_555 1_555
H11 C17 1_555 1_555
H12 C18 1_555 1_555
N3 C18 1_555 1_555
O32 H15_2 1_555 1_555
O15 H23_2 1_555 1_555

#END
