
###############################################################################
#
# This file contains modified crystal structure data generated from the
# MOF subset of the Cambridge Structural Database (CSD) v543 
# hosted by the Cambridge Crystallographic Data Centre (CCDC).
#
# This work is licensed under the Creative Commons
# Attribution-NonCommercial-ShareAlike 4.0 International License.
# To view a copy of this license, visit
# http://creativecommons.org/licenses/by-nc-sa/4.0/
# or send a letter to
# Creative Commons, PO Box 1866, Mountain View, CA 94042, USA.
#
# CIF created using the CSD Python API on 29 September 2022
# The structure has been converted into the P1 space group
# The structure has a 3D framework
# The original CSD entry YUFKOC is in the triclinic crystal system
# The framework has been calculated to contain at least 10.0% void space
# The void calculation uses a probe of radius 1.32A, grid spacing 0.4
#
###############################################################################

data_YUFKOC
_chemical_formula_moiety         '(C104 H72 Co2 N16 O10 S2)n'
_symmetry_cell_setting           triclinic
_symmetry_space_group_name_H-M   'P 1'
_symmetry_Int_Tables_number      1
_space_group_name_Hall           'P 1'
loop_
_symmetry_equiv_pos_site_id
_symmetry_equiv_pos_as_xyz
1 x,y,z
_cell_length_a                   13.2097(14)
_cell_length_b                   13.9519(14)
_cell_length_c                   14.4413(15)
_cell_angle_alpha                89.949(7)
_cell_angle_beta                 70.303(7)
_cell_angle_gamma                80.322(7)
_cell_volume                     2465.68
loop_
_atom_site_label
_atom_site_type_symbol
_atom_site_fract_x
_atom_site_fract_y
_atom_site_fract_z
N1 N 0.1915(3) 0.1840(2) 0.0861(2)
C42 C 0.1340(5) 0.1189(4) 0.1408(3)
H26 H 0.100507 0.124607 0.208900
C47 C 0.1327(5) 0.0455(4) 0.0820(4)
Co5 Co 0.25905(5) 0.29035(4) 0.14039(4)
O2 O 0.1345(3) 0.2938(2) 0.2772(2)
O3 O 0.0643(4) 0.4387(2) 0.3542(2)
N2 N 0.1903(3) 0.0640(3) 0.9884(2)
N6 N 0.3444(3) 0.1669(2) 0.1940(2)
N7 N 0.3717(3) 0.0508(3) 0.2912(2)
H5 H 0.192631 0.013753 0.412053
C13 C 0.0441(4) 0.3018(3) 0.4482(3)
C16 C 0.3175(4) 0.1394(3) 0.2845(3)
H7 H 0.266351 0.177204 0.338286
C22 C 0.0180(4) 0.3546(3) 0.5364(3)
H11 H 0.025365 0.419788 0.535999
C24 C 0.0833(4) 0.3494(3) 0.3506(3)
C26 C 0.2160(5) 0.0039(3) 0.8998(3)
C32 C 0.0318(4) 0.2049(3) 0.4496(3)
H17 H 0.048278 0.168571 0.390805
C34 C 0.4194(4) 0.0913(4) 0.1389(4)
H19 H 0.453205 0.089292 0.070863
C37 C 0.2230(4) 0.1484(3) 0.9950(3)
H22 H 0.263613 0.178420 0.941054
C49 C 0.4376(5) 0.0197(4) 0.1972(4)
C51 C 0.1596(5) 0.0247(4) 0.8404(4)
H35 H 0.101798 0.077071 0.856498
O7 O 0.3999(3) 0.2701(2) 0.0104(2)
N10 N 0.1779(3) 0.4123(2) 0.0849(2)
N11 N 0.3385(3) 0.3899(2) 0.1902(2)
C28 C 0.0941(5) 0.5628(4) 0.0766(3)
H13 H 0.048400 0.623193 0.094198
C30 C 0.1041(5) 0.4911(4) 0.1369(3)
H15 H 0.066343 0.494653 0.204358
H31 H 0.098854 0.991948 0.101434
N4 N 0.1642(3) 0.5294(3) 0.9843(3)
C1 C 0.4162(4) 0.5199(4) 0.1921(3)
H1 H 0.454649 0.570564 0.171698
N8 N 0.3664(3) 0.4977(2) 0.2865(3)
C2 C 0.2121(4) 0.4387(3) 0.9941(3)
H2 H 0.263770 0.399116 0.942030
C3 C 0.1921(4) 0.5823(3) 0.8974(3)
C4 C 0.2536(4) 0.6836(3) 0.7265(3)
C5 C 0.3128(4) 0.6725(3) 0.5419(3)
C6 C 0.2517(4) 0.5672(3) 0.4481(3)
H3 H 0.196345 0.537353 0.441640
C7 C 0.4191(4) 0.9000(3) 0.4893(3)
H4 H 0.477249 0.872560 0.508983
C8 C 0.2877(4) 0.7356(3) 0.6338(3)
C9 C 0.3506(4) 0.5547(3) 0.3745(3)
C10 C 0.2672(4) 0.8904(3) 0.7274(3)
C11 C 0.2508(4) 0.9849(4) 0.4310(3)
C12 C 0.3546(4) 0.9966(3) 0.3775(3)
C15 C 0.3221(4) 0.4184(3) 0.2807(3)
H6 H 0.284105 0.387499 0.335284
C17 C 0.4392(4) 0.9539(3) 0.4060(3)
H8 H 0.510267 0.960932 0.369739
C18 C 0.3155(4) 0.8863(3) 0.5430(3)
C20 C 0.3985(4) 0.4536(3) 0.1340(3)
H9 H 0.423478 0.451463 0.065508
C23 C 0.2916(4) 0.8299(3) 0.6335(3)
C25 C 0.3281(4) 0.6164(4) 0.7496(4)
H12 H 0.399973 0.603241 0.706644
C33 C 0.2316(4) 0.9306(4) 0.5134(3)
H18 H 0.160312 0.923924 0.549379
C36 C 0.2336(4) 0.6242(3) 0.5325(3)
H21 H 0.166987 0.630031 0.583659
C38 C 0.4313(4) 0.5995(3) 0.3829(3)
H23 H 0.499080 0.590541 0.332876
C40 C 0.4119(4) 0.6590(3) 0.4671(3)
H24 H 0.466915 0.690016 0.472399
C41 C 0.2987(5) 0.5673(4) 0.8357(4)
H25 H 0.351489 0.524207 0.851412
C43 C 0.2999(5) 0.9287(5) 0.8751(4)
H27 H 0.340965 0.914931 0.916246
C44 C 0.1483(4) 0.6973(4) 0.7893(4)
H28 H 0.095769 0.741872 0.774811
C46 C 0.1165(4) 0.6466(4) 0.8747(4)
H30 H 0.043816 0.656965 0.915743
C48 C 0.3265(5) 0.8709(4) 0.7888(4)
H32 H 0.384720 0.818905 0.772798
H33 H 0.485624 0.960702 0.177259
C52 C 0.1870(5) 0.9680(4) 0.7535(4)
H36 H 0.147530 0.984934 0.711603
S1 S 0.92923(12) 0.15967(12) 0.73762(10)
O4 O 0.9484(3) 0.0566(3) 0.7133(3)
O5 O 0.9782(3) 0.1958(3) 0.8037(3)
C14 C 0.5622(4) 0.2404(3) 0.8742(3)
O6 O 0.3875(3) 0.2733(3) 0.8603(2)
C19 C 0.7864(4) 0.1989(4) 0.7890(3)
C21 C 0.7392(5) 0.2204(4) 0.8902(3)
H10 H 0.782515 0.221524 0.929228
C27 C 0.9711(4) 0.2160(4) 0.6260(3)
C29 C 0.6110(4) 0.2217(3) 0.7735(3)
H14 H 0.567765 0.222471 0.734209
C31 C 0.7228(4) 0.2018(3) 0.7309(3)
H16 H 0.755106 0.190476 0.662939
C35 C 0.9815(4) 0.3126(4) 0.6245(3)
H20 H 0.963837 0.349204 0.683382
C39 C 0.4395(4) 0.2635(3) 0.9192(3)
C45 C 0.9949(4) 0.1623(4) 0.5386(4)
H29 H 0.986165 0.097463 0.539580
C50 C 0.6270(4) 0.2401(4) 0.9313(3)
H34 H 0.594469 0.253355 0.999002
S1_2 S 0.07077(12) 0.84033(12) 0.26238(10)
O4_2 O 0.0516(3) 0.9434(3) 0.2867(3)
O5_2 O 0.0218(3) 0.8042(3) 0.1963(3)
C14_2 C 0.4378(4) 0.7596(3) 0.1258(3)
O6_2 O 0.6125(3) 0.7267(3) 0.1397(2)
C19_2 C 0.2136(4) 0.8011(4) 0.2110(3)
C21_2 C 0.2608(5) 0.7796(4) 0.1098(3)
H10_2 H 0.217485 0.778476 0.070772
C27_2 C 0.0289(4) 0.7840(4) 0.3740(3)
C29_2 C 0.3890(4) 0.7783(3) 0.2265(3)
H14_2 H 0.432235 0.777529 0.265791
C31_2 C 0.2772(4) 0.7982(3) 0.2691(3)
H16_2 H 0.244894 0.809524 0.337061
C35_2 C 0.0185(4) 0.6874(4) 0.3755(3)
H20_2 H 0.036163 0.650796 0.316618
C39_2 C 0.5605(4) 0.7365(3) 0.0808(3)
C45_2 C 0.0051(4) 0.8377(4) 0.4614(4)
H29_2 H 0.013835 0.902537 0.460420
C50_2 C 0.3730(4) 0.7599(4) 0.0687(3)
H34_2 H 0.405531 0.746645 0.000998
O1 O 0.6001(3) 0.7299(2) 0.9896(2)
Co2 Co 0.74095(5) 0.70965(4) 0.85961(4)
N4_2 N 0.8358(3) 0.4706(3) 0.0157(3)
N5 N 0.6615(3) 0.6101(2) 0.8098(2)
C1_2 C 0.5838(4) 0.4801(4) 0.8079(3)
H1_2 H 0.545351 0.429436 0.828302
N8_2 N 0.6336(3) 0.5023(2) 0.7135(3)
C2_2 C 0.7879(4) 0.5613(3) 0.0059(3)
H2_2 H 0.736230 0.600884 0.057970
C3_2 C 0.8079(4) 0.4177(3) 0.1026(3)
C4_2 C 0.7464(4) 0.3164(3) 0.2735(3)
C5_2 C 0.6872(4) 0.3275(3) 0.4581(3)
C6_2 C 0.7483(4) 0.4328(3) 0.5519(3)
H3_2 H 0.803655 0.462647 0.558360
C7_2 C 0.5809(4) 0.1000(3) 0.5107(3)
H4_2 H 0.522751 0.127440 0.491017
C8_2 C 0.7123(4) 0.2644(3) 0.3662(3)
C9_2 C 0.6494(4) 0.4453(3) 0.6255(3)
C10_2 C 0.7328(4) 0.1096(3) 0.2726(3)
C11_2 C 0.7492(4) 0.0151(4) 0.5690(3)
C12_2 C 0.6454(4) 0.0034(3) 0.6225(3)
C15_2 C 0.6779(4) 0.5816(3) 0.7193(3)
H6_2 H 0.715895 0.612501 0.664716
C17_2 C 0.5608(4) 0.0461(3) 0.5940(3)
H8_2 H 0.489733 0.039068 0.630261
C18_2 C 0.6845(4) 0.1137(3) 0.4570(3)
C20_2 C 0.6015(4) 0.5464(3) 0.8660(3)
H9_2 H 0.576522 0.548537 0.934492
C23_2 C 0.7084(4) 0.1701(3) 0.3665(3)
C25_2 C 0.6719(4) 0.3836(4) 0.2504(4)
H12_2 H 0.600027 0.396759 0.293356
C33_2 C 0.7684(4) 0.0694(4) 0.4866(3)
H18_2 H 0.839688 0.076076 0.450621
C36_2 C 0.7664(4) 0.3758(3) 0.4675(3)
H21_2 H 0.833013 0.369969 0.416341
C38_2 C 0.5687(4) 0.4005(3) 0.6171(3)
H23_2 H 0.500920 0.409459 0.667124
C40_2 C 0.5881(4) 0.3410(3) 0.5329(3)
H24_2 H 0.533085 0.309984 0.527601
C41_2 C 0.7013(5) 0.4327(4) 0.1643(4)
H25_2 H 0.648511 0.475793 0.148588
C43_2 C 0.7001(5) 0.0713(5) 0.1249(4)
H27_2 H 0.659035 0.085069 0.083754
C44_2 C 0.8517(4) 0.3027(4) 0.2107(4)
H28_2 H 0.904231 0.258128 0.225189
C46_2 C 0.8835(4) 0.3534(4) 0.1253(4)
H30_2 H 0.956184 0.343035 0.084257
C48_2 C 0.6735(5) 0.1291(4) 0.2112(4)
H32_2 H 0.615280 0.181095 0.227202
H33_2 H 0.514376 0.039298 0.822741
C52_2 C 0.8130(5) 0.0320(4) 0.2465(4)
H36_2 H 0.852470 0.015066 0.288397
N3 N 0.8221(3) 0.5877(2) 0.9151(2)
C28_2 C 0.9059(5) 0.4372(4) 0.9234(3)
H13_2 H 0.951600 0.376807 0.905802
C30_2 C 0.8959(5) 0.5089(4) 0.8631(3)
H15_2 H 0.933657 0.505347 0.795642
H31_2 H 0.901146 0.008052 0.898566
O2_2 O 0.8655(3) 0.7062(2) 0.7228(2)
O3_2 O 0.9357(4) 0.5613(2) 0.6458(2)
N2_2 N 0.8097(3) 0.9360(3) 0.0116(2)
N6_2 N 0.6556(3) 0.8331(2) 0.8060(2)
N7_2 N 0.6283(3) 0.9492(3) 0.7088(2)
H5_2 H 0.807369 0.986247 0.587947
C13_2 C 0.9559(4) 0.6982(3) 0.5518(3)
C16_2 C 0.6825(4) 0.8606(3) 0.7155(3)
H7_2 H 0.733649 0.822796 0.661714
C22_2 C 0.9820(4) 0.6454(3) 0.4636(3)
H11_2 H 0.974635 0.580212 0.464001
C24_2 C 0.9167(4) 0.6506(3) 0.6494(3)
C26_2 C 0.7840(5) 0.9961(3) 0.1002(3)
C32_2 C 0.9682(4) 0.7951(3) 0.5504(3)
H17_2 H 0.951722 0.831429 0.609195
C34_2 C 0.5806(4) 0.9087(4) 0.8611(4)
H19_2 H 0.546795 0.910708 0.929137
C37_2 C 0.7770(4) 0.8516(3) 0.0050(3)
H22_2 H 0.736387 0.821580 0.058946
C49_2 C 0.5624(5) 0.9803(4) 0.8028(4)
C51_2 C 0.8404(5) 0.9753(4) 0.1596(4)
H35_2 H 0.898202 0.922929 0.143502
N9 N 0.8085(3) 0.8160(2) 0.9139(2)
C42_2 C 0.8660(5) 0.8811(4) 0.8592(3)
H26_2 H 0.899493 0.875393 0.791100
C47_2 C 0.8673(5) 0.9545(4) 0.9180(4)
loop_
_geom_bond_atom_site_label_1
_geom_bond_atom_site_label_2
_geom_bond_site_symmetry_1
_geom_bond_site_symmetry_2
C42 N1 1_555 1_555
H26 C42 1_555 1_555
Co5 N1 1_555 1_555
C42 C47 1_555 1_555
Co5 O2 1_555 1_555
O2 C24 1_555 1_555
O3 C24 1_555 1_555
N2 C26 1_555 1_555
N6 Co5 1_555 1_555
C13 C22 1_555 1_555
C16 N6 1_555 1_555
H7 C16 1_555 1_555
C22 H11 1_555 1_555
C24 C13 1_555 1_555
C32 C13 1_555 1_555
H17 C32 1_555 1_555
C34 N6 1_555 1_555
H19 C34 1_555 1_555
C37 N2 1_555 1_555
H22 C37 1_555 1_555
C49 N7 1_555 1_555
C51 C26 1_555 1_555
H35 C51 1_555 1_555
O7 Co5 1_555 1_555
N10 Co5 1_555 1_555
N11 Co5 1_555 1_555
N7 C16 1_555 1_555
C34 C49 1_555 1_555
H13 C28 1_555 1_555
C30 N10 1_555 1_555
H15 C30 1_555 1_555
C28 C30 1_555 1_555
N4 C2 1_555 1_555
N11 C15 1_555 1_555
C1 H1 1_555 1_555
N8 C1 1_555 1_555
C2 H2 1_555 1_555
C3 N4 1_555 1_555
C4 C8 1_555 1_555
C5 C8 1_555 1_555
C6 H3 1_555 1_555
C7 H4 1_555 1_555
C8 C23 1_555 1_555
C9 N8 1_555 1_555
C10 C23 1_555 1_555
C12 C11 1_555 1_555
C15 N8 1_555 1_555
H6 C15 1_555 1_555
C17 C7 1_555 1_555
H8 C17 1_555 1_555
C18 C7 1_555 1_555
C20 N11 1_555 1_555
H9 C20 1_555 1_555
C23 C18 1_555 1_555
C25 C4 1_555 1_555
H12 C25 1_555 1_555
C33 C11 1_555 1_555
H18 C33 1_555 1_555
C36 C5 1_555 1_555
H21 C36 1_555 1_555
C38 C9 1_555 1_555
H23 C38 1_555 1_555
C40 C5 1_555 1_555
H24 C40 1_555 1_555
C41 C3 1_555 1_555
H25 C41 1_555 1_555
C43 H27 1_555 1_555
C44 C4 1_555 1_555
H28 C44 1_555 1_555
C46 C3 1_555 1_555
H30 C46 1_555 1_555
C48 C10 1_555 1_555
H32 C48 1_555 1_555
C52 C10 1_555 1_555
H36 C52 1_555 1_555
C1 C20 1_555 1_555
C6 C9 1_555 1_555
C6 C36 1_555 1_555
C12 C17 1_555 1_555
C18 C33 1_555 1_555
C25 C41 1_555 1_555
C38 C40 1_555 1_555
C43 C48 1_555 1_555
C44 C46 1_555 1_555
S1 O4 1_555 1_555
O5 S1 1_555 1_555
C14 C29 1_555 1_555
O6 C39 1_555 1_555
C19 S1 1_555 1_555
C21 C19 1_555 1_555
H10 C21 1_555 1_555
C27 S1 1_555 1_555
C29 H14 1_555 1_555
C31 C19 1_555 1_555
H16 C31 1_555 1_555
H20 C35 1_555 1_555
C39 C14 1_555 1_555
C45 C27 1_555 1_555
H29 C45 1_555 1_555
C50 C14 1_555 1_555
H34 C50 1_555 1_555
C21 C50 1_555 1_555
C27 C35 1_555 1_555
C29 C31 1_555 1_555
S1_2 O4_2 1_555 1_555
O5_2 S1_2 1_555 1_555
C14_2 C29_2 1_555 1_555
O6_2 C39_2 1_555 1_555
C19_2 S1_2 1_555 1_555
C21_2 C19_2 1_555 1_555
H10_2 C21_2 1_555 1_555
C27_2 S1_2 1_555 1_555
C29_2 H14_2 1_555 1_555
C31_2 C19_2 1_555 1_555
H16_2 C31_2 1_555 1_555
H20_2 C35_2 1_555 1_555
C39_2 C14_2 1_555 1_555
C45_2 C27_2 1_555 1_555
H29_2 C45_2 1_555 1_555
C50_2 C14_2 1_555 1_555
H34_2 C50_2 1_555 1_555
C21_2 C50_2 1_555 1_555
C27_2 C35_2 1_555 1_555
C29_2 C31_2 1_555 1_555
Co2 O1 1_555 1_555
N4_2 C2_2 1_555 1_555
N5 C15_2 1_555 1_555
C1_2 H1_2 1_555 1_555
N8_2 C1_2 1_555 1_555
C2_2 H2_2 1_555 1_555
C3_2 N4_2 1_555 1_555
C4_2 C8_2 1_555 1_555
C5_2 C8_2 1_555 1_555
C6_2 H3_2 1_555 1_555
C7_2 H4_2 1_555 1_555
C8_2 C23_2 1_555 1_555
C9_2 N8_2 1_555 1_555
C10_2 C23_2 1_555 1_555
C12_2 C11_2 1_555 1_555
C15_2 N8_2 1_555 1_555
H6_2 C15_2 1_555 1_555
C17_2 C7_2 1_555 1_555
H8_2 C17_2 1_555 1_555
C18_2 C7_2 1_555 1_555
C20_2 N5 1_555 1_555
H9_2 C20_2 1_555 1_555
C23_2 C18_2 1_555 1_555
C25_2 C4_2 1_555 1_555
H12_2 C25_2 1_555 1_555
C33_2 C11_2 1_555 1_555
H18_2 C33_2 1_555 1_555
C36_2 C5_2 1_555 1_555
H21_2 C36_2 1_555 1_555
C38_2 C9_2 1_555 1_555
H23_2 C38_2 1_555 1_555
C40_2 C5_2 1_555 1_555
H24_2 C40_2 1_555 1_555
C41_2 C3_2 1_555 1_555
H25_2 C41_2 1_555 1_555
C43_2 H27_2 1_555 1_555
C44_2 C4_2 1_555 1_555
H28_2 C44_2 1_555 1_555
C46_2 C3_2 1_555 1_555
H30_2 C46_2 1_555 1_555
C48_2 C10_2 1_555 1_555
H32_2 C48_2 1_555 1_555
C52_2 C10_2 1_555 1_555
H36_2 C52_2 1_555 1_555
Co2 N5 1_555 1_555
C1_2 C20_2 1_555 1_555
C6_2 C9_2 1_555 1_555
C6_2 C36_2 1_555 1_555
C12_2 C17_2 1_555 1_555
C18_2 C33_2 1_555 1_555
C25_2 C41_2 1_555 1_555
C38_2 C40_2 1_555 1_555
C43_2 C48_2 1_555 1_555
C44_2 C46_2 1_555 1_555
H13_2 C28_2 1_555 1_555
C30_2 N3 1_555 1_555
H15_2 C30_2 1_555 1_555
Co2 N3 1_555 1_555
C28_2 C30_2 1_555 1_555
Co2 O2_2 1_555 1_555
O2_2 C24_2 1_555 1_555
O3_2 C24_2 1_555 1_555
N2_2 C26_2 1_555 1_555
N6_2 Co2 1_555 1_555
C13_2 C22_2 1_555 1_555
C16_2 N6_2 1_555 1_555
H7_2 C16_2 1_555 1_555
C22_2 H11_2 1_555 1_555
C24_2 C13_2 1_555 1_555
C32_2 C13_2 1_555 1_555
H17_2 C32_2 1_555 1_555
C34_2 N6_2 1_555 1_555
H19_2 C34_2 1_555 1_555
C37_2 N2_2 1_555 1_555
H22_2 C37_2 1_555 1_555
C49_2 N7_2 1_555 1_555
C51_2 C26_2 1_555 1_555
H35_2 C51_2 1_555 1_555
N9 Co2 1_555 1_555
N7_2 C16_2 1_555 1_555
C34_2 C49_2 1_555 1_555
C42_2 N9 1_555 1_555
H26_2 C42_2 1_555 1_555
C42_2 C47_2 1_555 1_555

#END
