
###############################################################################
#
# This file contains modified crystal structure data generated from the
# MOF subset of the Cambridge Structural Database (CSD) v543 
# hosted by the Cambridge Crystallographic Data Centre (CCDC).
#
# This work is licensed under the Creative Commons
# Attribution-NonCommercial-ShareAlike 4.0 International License.
# To view a copy of this license, visit
# http://creativecommons.org/licenses/by-nc-sa/4.0/
# or send a letter to
# Creative Commons, PO Box 1866, Mountain View, CA 94042, USA.
#
# CIF created using the CSD Python API on 29 September 2022
# The structure has been converted into the P1 space group
# The structure has a 3D framework
# The original CSD entry YUGLUK is in the hexagonal crystal system
# The framework has been calculated to contain at least 10.0% void space
# The void calculation uses a probe of radius 1.32A, grid spacing 0.4
#
###############################################################################

data_YUGLUK
_chemical_formula_moiety         '(C120 H72 Cd6 N36 O24)n'
_symmetry_cell_setting           triclinic
_symmetry_space_group_name_H-M   'P 1'
_symmetry_Int_Tables_number      1
_space_group_name_Hall           'P 1'
loop_
_symmetry_equiv_pos_site_id
_symmetry_equiv_pos_as_xyz
1 x,y,z
_cell_length_a                   25.3567(10)
_cell_length_b                   25.3567(10)
_cell_length_c                   15.7961(14)
_cell_angle_alpha                90
_cell_angle_beta                 90
_cell_angle_gamma                120
_cell_volume                     8795.61
loop_
_atom_site_label
_atom_site_type_symbol
_atom_site_fract_x
_atom_site_fract_y
_atom_site_fract_z
C1 C 0.38188(8) 0.45144(8) 0.500000
C2 C 0.33005(8) 0.45892(8) 0.500000
C3 C 0.27258(8) 0.40709(8) 0.500000
H1 H 0.268796 0.368661 0.500000
C4 C 0.22086(8) 0.41278(8) 0.500000
H2 H 0.182463 0.378110 0.500000
C5 C 0.22631(8) 0.47015(8) 0.500000
C6 C 0.28365(8) 0.52181(8) 0.500000
H3 H 0.287384 0.560207 0.500000
C7 C 0.33539(8) 0.51634(8) 0.500000
H4 H 0.373735 0.551074 0.500000
C8 C 0.16971(11) 0.47329(8) 0.500000
C9 C 0.53143(6) 0.43459(5) 0.31326(8)
H5 H 0.566786 0.446148 0.344138
C10 C 0.53306(6) 0.43479(5) 0.22551(8)
H6 H 0.569430 0.446080 0.197458
C11 C 0.48018(6) 0.41808(6) 0.17946(8)
C12 C 0.42583(6) 0.40099(5) 0.22137(8)
H7 H 0.390478 0.389668 0.190609
C13 C 0.42431(6) 0.40081(5) 0.30928(8)
H8 H 0.388174 0.389793 0.337806
C14 C 0.48210(6) 0.41866(6) 0.08565(8)
Cd1 Cd 0.47296(2) 0.41190(2) 0.500000
N1 N 0.47785(5) 0.41742(5) 0.35425(7)
N2 N 0.42938(5) 0.40285(5) 0.03966(6)
N3 N 0.53632(5) 0.43631(5) 0.04403(7)
O1 O 0.37952(5) 0.39953(6) 0.500000
O2 O 0.43506(5) 0.49782(5) 0.500000
O3 O 0.17374(7) 0.52476(5) 0.500000
O4 O 0.11980(8) 0.42741(6) 0.500000
Cd3 Cd 0.06106(3) 0.47296(2) 0.500000
Cd4 Cd 0.52704(2) 0.58810(2) 0.500000
N7 N 0.47785(5) 0.41742(5) 0.64575(7)
O5 O 0.56494(5) 0.50218(5) 0.500000
O6 O 0.52476(5) 0.35102(9) 0.500000
O7 O 0.42741(6) 0.30761(10) 0.500000
C15 C 0.53143(6) 0.43459(5) 0.68674(8)
H9 H 0.566786 0.446148 0.655862
C16 C 0.53306(6) 0.43479(5) 0.77449(8)
H10 H 0.569430 0.446080 0.802542
C17 C 0.48018(6) 0.41808(6) 0.82054(8)
C18 C 0.42583(6) 0.40099(5) 0.77863(8)
H11 H 0.390478 0.389668 0.809391
C19 C 0.42431(6) 0.40081(5) 0.69072(8)
H12 H 0.388174 0.389793 0.662194
C20 C 0.48210(6) 0.41866(6) 0.91435(8)
N5 N 0.42938(5) 0.40285(5) 0.96034(6)
N6 N 0.53632(5) 0.43631(5) 0.95597(7)
C9_2 C 0.09684(8) 0.53143(6) 0.31326(8)
H5_2 H 0.120638 0.566786 0.344138
C10_2 C 0.09827(8) 0.53306(6) 0.22551(8)
H6_2 H 0.123350 0.569430 0.197458
C11_2 C 0.06210(8) 0.48018(6) 0.17946(8)
C12_2 C 0.02484(8) 0.42583(6) 0.22137(8)
H7_2 H 0.000810 0.390478 0.190609
C13_2 C 0.02350(8) 0.42431(6) 0.30928(8)
C14_2 C 0.06344(8) 0.48210(6) 0.08565(8)
N1_2 N 0.06043(7) 0.47785(5) 0.35425(7)
N2_2 N 0.02653(7) 0.42938(5) 0.03966(6)
N3_2 N 0.10001(7) 0.53632(5) 0.04403(7)
N7_2 N 0.06043(7) 0.47785(5) 0.64575(7)
O5_2 O 0.06276(7) 0.56494(5) 0.500000
C15_2 C 0.09684(8) 0.53143(6) 0.68674(8)
H9_2 H 0.120638 0.566786 0.655862
C16_2 C 0.09827(8) 0.53306(6) 0.77449(8)
H10_2 H 0.123350 0.569430 0.802542
C17_2 C 0.06210(8) 0.48018(6) 0.82054(8)
C18_2 C 0.02484(8) 0.42583(6) 0.77863(8)
H11_2 H 0.000810 0.390478 0.809391
C19_2 C 0.02350(8) 0.42431(6) 0.69072(8)
C20_2 C 0.06344(8) 0.48210(6) 0.91435(8)
N5_2 N 0.02653(7) 0.42938(5) 0.96034(6)
N6_2 N 0.10001(7) 0.53632(5) 0.95597(7)
C1_2 C 0.93044(11) 0.38188(8) 0.500000
C2_2 C 0.87113(11) 0.33005(8) 0.500000
C3_2 C 0.86549(11) 0.27258(8) 0.500000
H1_2 H 0.900135 0.268796 0.500000
C4_2 C 0.80808(11) 0.22086(8) 0.500000
H2_2 H 0.804353 0.182463 0.500000
C5_2 C 0.75616(11) 0.22631(8) 0.500000
C6_2 C 0.76184(11) 0.28365(8) 0.500000
H3_2 H 0.727177 0.287384 0.500000
C7_2 C 0.81905(11) 0.33539(8) 0.500000
H4_2 H 0.822661 0.373735 0.500000
C8_2 C 0.69642(14) 0.16971(11) 0.500000
H8_2 H 0.998381 0.388174 0.337806
O1_2 O 0.97999(8) 0.37952(5) 0.500000
O2_2 O 0.93724(7) 0.43506(5) 0.500000
O3_2 O 0.64898(9) 0.17374(7) 0.500000
O4_2 O 0.69239(10) 0.11980(8) 0.500000
Cd3_2 Cd 0.58810(4) 0.06106(3) 0.500000
Cd4_2 Cd 0.93894(3) 0.52704(2) 0.500000
H12_2 H 0.998381 0.388174 0.662194
C9_3 C 0.56541(5) 0.09684(8) 0.31326(8)
H5_3 H 0.553852 0.120638 0.344138
C10_3 C 0.56521(5) 0.09827(8) 0.22551(8)
H6_3 H 0.553920 0.123350 0.197458
C11_3 C 0.58192(6) 0.06210(8) 0.17946(8)
C12_3 C 0.59901(5) 0.02484(8) 0.22137(8)
H7_3 H 0.610332 0.000810 0.190609
C13_3 C 0.59919(5) 0.02350(8) 0.30928(8)
C14_3 C 0.58134(6) 0.06344(8) 0.08565(8)
N1_3 N 0.58258(5) 0.06043(7) 0.35425(7)
N2_3 N 0.59715(5) 0.02653(7) 0.03966(6)
N3_3 N 0.56369(5) 0.10001(7) 0.04403(7)
N7_3 N 0.58258(5) 0.06043(7) 0.64575(7)
O5_3 O 0.49782(5) 0.06276(7) 0.500000
C15_3 C 0.56541(5) 0.09684(8) 0.68674(8)
H9_3 H 0.553852 0.120638 0.655862
C16_3 C 0.56521(5) 0.09827(8) 0.77449(8)
H10_3 H 0.553920 0.123350 0.802542
C17_3 C 0.58192(6) 0.06210(8) 0.82054(8)
C18_3 C 0.59901(5) 0.02484(8) 0.77863(8)
H11_3 H 0.610332 0.000810 0.809391
C19_3 C 0.59919(5) 0.02350(8) 0.69072(8)
C20_3 C 0.58134(6) 0.06344(8) 0.91435(8)
N5_3 N 0.59715(5) 0.02653(7) 0.96034(6)
N6_3 N 0.56369(5) 0.10001(7) 0.95597(7)
C1_3 C 0.54856(8) 0.93044(11) 0.500000
C2_3 C 0.54108(8) 0.87113(11) 0.500000
C3_3 C 0.59291(8) 0.86549(11) 0.500000
H1_3 H 0.631339 0.900135 0.500000
C4_3 C 0.58722(8) 0.80808(11) 0.500000
H2_3 H 0.621890 0.804353 0.500000
C5_3 C 0.52985(8) 0.75616(11) 0.500000
C6_3 C 0.47819(8) 0.76184(11) 0.500000
H3_3 H 0.439793 0.727177 0.500000
C7_3 C 0.48366(8) 0.81905(11) 0.500000
H4_3 H 0.448926 0.822661 0.500000
C8_3 C 0.52671(8) 0.69642(14) 0.500000
H8_3 H 0.610207 0.998381 0.337806
O1_3 O 0.60047(6) 0.97999(8) 0.500000
O2_3 O 0.50218(5) 0.93724(7) 0.500000
O3_3 O 0.47524(5) 0.64898(9) 0.500000
O4_3 O 0.57259(6) 0.69239(10) 0.500000
Cd4_3 Cd 0.41190(2) 0.93894(3) 0.500000
H12_3 H 0.610207 0.998381 0.662194
C1_4 C 0.61812(8) 0.54856(8) 0.500000
C2_4 C 0.66995(8) 0.54108(8) 0.500000
C3_4 C 0.72742(8) 0.59291(8) 0.500000
H1_4 H 0.731204 0.631339 0.500000
C4_4 C 0.77914(8) 0.58722(8) 0.500000
H2_4 H 0.817537 0.621890 0.500000
C5_4 C 0.77369(8) 0.52985(8) 0.500000
C6_4 C 0.71635(8) 0.47819(8) 0.500000
H3_4 H 0.712616 0.439793 0.500000
C7_4 C 0.66461(8) 0.48366(8) 0.500000
H4_4 H 0.626265 0.448926 0.500000
C8_4 C 0.83029(11) 0.52671(8) 0.500000
C9_4 C 0.46857(6) 0.56541(5) 0.31326(8)
H5_4 H 0.433214 0.553852 0.344138
C10_4 C 0.46694(6) 0.56521(5) 0.22551(8)
H6_4 H 0.430570 0.553920 0.197458
C11_4 C 0.51982(6) 0.58192(6) 0.17946(8)
C12_4 C 0.57417(6) 0.59901(5) 0.22137(8)
H7_4 H 0.609522 0.610332 0.190609
C13_4 C 0.57569(6) 0.59919(5) 0.30928(8)
H8_4 H 0.611826 0.610207 0.337806
C14_4 C 0.51790(6) 0.58134(6) 0.08565(8)
N1_4 N 0.52215(5) 0.58258(5) 0.35425(7)
N2_4 N 0.57062(5) 0.59715(5) 0.03966(6)
N3_4 N 0.46368(5) 0.56369(5) 0.04403(7)
O1_4 O 0.62048(5) 0.60047(6) 0.500000
O3_4 O 0.82626(7) 0.47524(5) 0.500000
O4_4 O 0.88020(8) 0.57259(6) 0.500000
N7_4 N 0.52215(5) 0.58258(5) 0.64575(7)
C15_4 C 0.46857(6) 0.56541(5) 0.68674(8)
H9_4 H 0.433214 0.553852 0.655862
C16_4 C 0.46694(6) 0.56521(5) 0.77449(8)
H10_4 H 0.430570 0.553920 0.802542
C17_4 C 0.51982(6) 0.58192(6) 0.82054(8)
C18_4 C 0.57417(6) 0.59901(5) 0.77863(8)
H11_4 H 0.609522 0.610332 0.809391
C19_4 C 0.57569(6) 0.59919(5) 0.69072(8)
H12_4 H 0.611826 0.610207 0.662194
C20_4 C 0.51790(6) 0.58134(6) 0.91435(8)
N5_4 N 0.57062(5) 0.59715(5) 0.96034(6)
N6_4 N 0.46368(5) 0.56369(5) 0.95597(7)
C1_5 C 0.06956(11) 0.61812(8) 0.500000
C2_5 C 0.12887(11) 0.66995(8) 0.500000
C3_5 C 0.13451(11) 0.72742(8) 0.500000
H1_5 H 0.099865 0.731204 0.500000
C4_5 C 0.19192(11) 0.77914(8) 0.500000
H2_5 H 0.195647 0.817537 0.500000
C5_5 C 0.24384(11) 0.77369(8) 0.500000
C6_5 C 0.23816(11) 0.71635(8) 0.500000
H3_5 H 0.272823 0.712616 0.500000
C7_5 C 0.18095(11) 0.66461(8) 0.500000
H4_5 H 0.177339 0.626265 0.500000
C8_5 C 0.30358(14) 0.83029(11) 0.500000
H8_5 H 0.001619 0.611826 0.337806
O1_5 O 0.02001(8) 0.62048(5) 0.500000
O3_5 O 0.35102(9) 0.82626(7) 0.500000
O4_5 O 0.30761(10) 0.88020(8) 0.500000
H12_5 H 0.001619 0.611826 0.662194
C9_5 C 0.90316(8) 0.46857(6) 0.31326(8)
H5_5 H 0.879362 0.433214 0.344138
C10_5 C 0.90173(8) 0.46694(6) 0.22551(8)
H6_5 H 0.876650 0.430570 0.197458
C11_5 C 0.93790(8) 0.51982(6) 0.17946(8)
C12_5 C 0.97516(8) 0.57417(6) 0.22137(8)
H7_5 H 0.999190 0.609522 0.190609
C13_5 C 0.97650(8) 0.57569(6) 0.30928(8)
C14_5 C 0.93656(8) 0.51790(6) 0.08565(8)
N1_5 N 0.93957(7) 0.52215(5) 0.35425(7)
N2_5 N 0.97347(7) 0.57062(5) 0.03966(6)
N3_5 N 0.89999(7) 0.46368(5) 0.04403(7)
N7_5 N 0.93957(7) 0.52215(5) 0.64575(7)
C15_5 C 0.90316(8) 0.46857(6) 0.68674(8)
H9_5 H 0.879362 0.433214 0.655862
C16_5 C 0.90173(8) 0.46694(6) 0.77449(8)
H10_5 H 0.876650 0.430570 0.802542
C17_5 C 0.93790(8) 0.51982(6) 0.82054(8)
C18_5 C 0.97516(8) 0.57417(6) 0.77863(8)
H11_5 H 0.999190 0.609522 0.809391
C19_5 C 0.97650(8) 0.57569(6) 0.69072(8)
C20_5 C 0.93656(8) 0.51790(6) 0.91435(8)
N5_5 N 0.97347(7) 0.57062(5) 0.96034(6)
N6_5 N 0.89999(7) 0.46368(5) 0.95597(7)
C1_6 C 0.45144(8) 0.06956(11) 0.500000
C2_6 C 0.45892(8) 0.12887(11) 0.500000
C3_6 C 0.40709(8) 0.13451(11) 0.500000
H1_6 H 0.368661 0.099865 0.500000
C4_6 C 0.41278(8) 0.19192(11) 0.500000
H2_6 H 0.378110 0.195647 0.500000
C5_6 C 0.47015(8) 0.24384(11) 0.500000
C6_6 C 0.52181(8) 0.23816(11) 0.500000
H3_6 H 0.560207 0.272823 0.500000
C7_6 C 0.51634(8) 0.18095(11) 0.500000
H4_6 H 0.551074 0.177339 0.500000
C8_6 C 0.47329(8) 0.30358(14) 0.500000
H8_6 H 0.389793 0.001619 0.337806
O1_6 O 0.39953(6) 0.02001(8) 0.500000
H12_6 H 0.389793 0.001619 0.662194
C9_6 C 0.43459(5) 0.90316(8) 0.31326(8)
H5_6 H 0.446148 0.879362 0.344138
C10_6 C 0.43479(5) 0.90173(8) 0.22551(8)
H6_6 H 0.446080 0.876650 0.197458
C11_6 C 0.41808(6) 0.93790(8) 0.17946(8)
C12_6 C 0.40099(5) 0.97516(8) 0.22137(8)
H7_6 H 0.389668 0.999190 0.190609
C13_6 C 0.40081(5) 0.97650(8) 0.30928(8)
C14_6 C 0.41866(6) 0.93656(8) 0.08565(8)
N1_6 N 0.41742(5) 0.93957(7) 0.35425(7)
N2_6 N 0.40285(5) 0.97347(7) 0.03966(6)
N3_6 N 0.43631(5) 0.89999(7) 0.04403(7)
N7_6 N 0.41742(5) 0.93957(7) 0.64575(7)
C15_6 C 0.43459(5) 0.90316(8) 0.68674(8)
H9_6 H 0.446148 0.879362 0.655862
C16_6 C 0.43479(5) 0.90173(8) 0.77449(8)
H10_6 H 0.446080 0.876650 0.802542
C17_6 C 0.41808(6) 0.93790(8) 0.82054(8)
C18_6 C 0.40099(5) 0.97516(8) 0.77863(8)
H11_6 H 0.389668 0.999190 0.809391
C19_6 C 0.40081(5) 0.97650(8) 0.69072(8)
C20_6 C 0.41866(6) 0.93656(8) 0.91435(8)
N5_6 N 0.40285(5) 0.97347(7) 0.96034(6)
N6_6 N 0.43631(5) 0.89999(7) 0.95597(7)
loop_
_geom_bond_atom_site_label_1
_geom_bond_atom_site_label_2
_geom_bond_site_symmetry_1
_geom_bond_site_symmetry_2
C1 C2 1_555 1_555
C2 C3 1_555 1_555
C3 H1 1_555 1_555
C4 C3 1_555 1_555
H2 C4 1_555 1_555
C5 C4 1_555 1_555
C6 C5 1_555 1_555
H3 C6 1_555 1_555
C7 C2 1_555 1_555
H4 C7 1_555 1_555
C8 C5 1_555 1_555
C9 H5 1_555 1_555
C10 C9 1_555 1_555
H6 C10 1_555 1_555
C11 C10 1_555 1_555
C12 C11 1_555 1_555
H7 C12 1_555 1_555
C13 C12 1_555 1_555
H8 C13 1_555 1_555
C14 C11 1_555 1_555
Cd1 N1 1_555 1_555
N1 C9 1_555 1_555
N2 C14 1_555 1_555
N3 C14 1_555 1_555
O1 C1 1_555 1_555
O2 C1 1_555 1_555
O3 C8 1_555 1_555
O4 C8 1_555 1_555
Cd3 O3 1_555 1_555
Cd4 O2 1_555 1_555
N7 Cd1 1_555 1_555
O5 Cd1 1_555 1_555
O6 Cd1 1_555 1_555
O7 Cd1 1_555 1_555
C6 C7 1_555 1_555
C13 N1 1_555 1_555
Cd1 O1 1_555 1_555
Cd1 O2 1_555 1_555
O4 Cd3 1_555 1_555
Cd4 O5 1_555 1_555
C15 H9 1_555 1_555
C16 C15 1_555 1_555
H10 C16 1_555 1_555
C17 C16 1_555 1_555
C18 C17 1_555 1_555
H11 C18 1_555 1_555
C19 C18 1_555 1_555
H12 C19 1_555 1_555
C20 C17 1_555 1_555
N7 C15 1_555 1_555
C19 N7 1_555 1_555
C20 N5 1_555 1_555
C20 N6 1_555 1_555
C9_2 H5_2 1_555 1_555
C10_2 C9_2 1_555 1_555
H6_2 C10_2 1_555 1_555
C11_2 C10_2 1_555 1_555
C12_2 C11_2 1_555 1_555
H7_2 C12_2 1_555 1_555
C13_2 C12_2 1_555 1_555
C14_2 C11_2 1_555 1_555
Cd3 N1_2 1_555 1_555
N1_2 C9_2 1_555 1_555
N2_2 C14_2 1_555 1_555
N3_2 C14_2 1_555 1_555
N7_2 Cd3 1_555 1_555
O5_2 Cd3 1_555 1_555
C13_2 N1_2 1_555 1_555
C15_2 H9_2 1_555 1_555
C16_2 C15_2 1_555 1_555
H10_2 C16_2 1_555 1_555
C17_2 C16_2 1_555 1_555
C18_2 C17_2 1_555 1_555
H11_2 C18_2 1_555 1_555
C19_2 C18_2 1_555 1_555
C20_2 C17_2 1_555 1_555
N7_2 C15_2 1_555 1_555
C19_2 N7_2 1_555 1_555
C20_2 N5_2 1_555 1_555
C20_2 N6_2 1_555 1_555
C1_2 C2_2 1_555 1_555
C2_2 C3_2 1_555 1_555
C3_2 H1_2 1_555 1_555
C4_2 C3_2 1_555 1_555
H2_2 C4_2 1_555 1_555
C5_2 C4_2 1_555 1_555
C6_2 C5_2 1_555 1_555
H3_2 C6_2 1_555 1_555
C7_2 C2_2 1_555 1_555
H4_2 C7_2 1_555 1_555
C8_2 C5_2 1_555 1_555
O1_2 C1_2 1_555 1_555
O2_2 C1_2 1_555 1_555
O3_2 C8_2 1_555 1_555
O4_2 C8_2 1_555 1_555
Cd3_2 O3_2 1_555 1_555
Cd4_2 O2_2 1_555 1_555
C6_2 C7_2 1_555 1_555
O4_2 Cd3_2 1_555 1_555
C9_3 H5_3 1_555 1_555
C10_3 C9_3 1_555 1_555
H6_3 C10_3 1_555 1_555
C11_3 C10_3 1_555 1_555
C12_3 C11_3 1_555 1_555
H7_3 C12_3 1_555 1_555
C13_3 C12_3 1_555 1_555
C14_3 C11_3 1_555 1_555
Cd3_2 N1_3 1_555 1_555
N1_3 C9_3 1_555 1_555
N2_3 C14_3 1_555 1_555
N3_3 C14_3 1_555 1_555
N7_3 Cd3_2 1_555 1_555
O5_3 Cd3_2 1_555 1_555
C13_3 N1_3 1_555 1_555
C15_3 H9_3 1_555 1_555
C16_3 C15_3 1_555 1_555
H10_3 C16_3 1_555 1_555
C17_3 C16_3 1_555 1_555
C18_3 C17_3 1_555 1_555
H11_3 C18_3 1_555 1_555
C19_3 C18_3 1_555 1_555
C20_3 C17_3 1_555 1_555
N7_3 C15_3 1_555 1_555
C19_3 N7_3 1_555 1_555
C20_3 N5_3 1_555 1_555
C20_3 N6_3 1_555 1_555
C1_3 C2_3 1_555 1_555
C2_3 C3_3 1_555 1_555
C3_3 H1_3 1_555 1_555
C4_3 C3_3 1_555 1_555
H2_3 C4_3 1_555 1_555
C5_3 C4_3 1_555 1_555
C6_3 C5_3 1_555 1_555
H3_3 C6_3 1_555 1_555
C7_3 C2_3 1_555 1_555
H4_3 C7_3 1_555 1_555
C8_3 C5_3 1_555 1_555
O1_3 C1_3 1_555 1_555
O2_3 C1_3 1_555 1_555
O3_3 C8_3 1_555 1_555
O4_3 C8_3 1_555 1_555
Cd4 O3_3 1_555 1_555
Cd4_3 O2_3 1_555 1_555
C6_3 C7_3 1_555 1_555
O4_3 Cd4 1_555 1_555
C1_4 C2_4 1_555 1_555
C2_4 C3_4 1_555 1_555
C3_4 H1_4 1_555 1_555
C4_4 C3_4 1_555 1_555
H2_4 C4_4 1_555 1_555
C5_4 C4_4 1_555 1_555
C6_4 C5_4 1_555 1_555
H3_4 C6_4 1_555 1_555
C7_4 C2_4 1_555 1_555
H4_4 C7_4 1_555 1_555
C8_4 C5_4 1_555 1_555
C9_4 H5_4 1_555 1_555
C10_4 C9_4 1_555 1_555
H6_4 C10_4 1_555 1_555
C11_4 C10_4 1_555 1_555
C12_4 C11_4 1_555 1_555
H7_4 C12_4 1_555 1_555
C13_4 C12_4 1_555 1_555
H8_4 C13_4 1_555 1_555
C14_4 C11_4 1_555 1_555
Cd4 N1_4 1_555 1_555
N1_4 C9_4 1_555 1_555
N2_4 C14_4 1_555 1_555
N3_4 C14_4 1_555 1_555
O1_4 C1_4 1_555 1_555
O5 C1_4 1_555 1_555
O3_4 C8_4 1_555 1_555
O4_4 C8_4 1_555 1_555
Cd4_2 O3_4 1_555 1_555
N7_4 Cd4 1_555 1_555
C6_4 C7_4 1_555 1_555
C13_4 N1_4 1_555 1_555
Cd4 O1_4 1_555 1_555
O4_4 Cd4_2 1_555 1_555
C15_4 H9_4 1_555 1_555
C16_4 C15_4 1_555 1_555
H10_4 C16_4 1_555 1_555
C17_4 C16_4 1_555 1_555
C18_4 C17_4 1_555 1_555
H11_4 C18_4 1_555 1_555
C19_4 C18_4 1_555 1_555
H12_4 C19_4 1_555 1_555
C20_4 C17_4 1_555 1_555
N7_4 C15_4 1_555 1_555
C19_4 N7_4 1_555 1_555
C20_4 N5_4 1_555 1_555
C20_4 N6_4 1_555 1_555
C1_5 C2_5 1_555 1_555
C2_5 C3_5 1_555 1_555
C3_5 H1_5 1_555 1_555
C4_5 C3_5 1_555 1_555
H2_5 C4_5 1_555 1_555
C5_5 C4_5 1_555 1_555
C6_5 C5_5 1_555 1_555
H3_5 C6_5 1_555 1_555
C7_5 C2_5 1_555 1_555
H4_5 C7_5 1_555 1_555
C8_5 C5_5 1_555 1_555
O1_5 C1_5 1_555 1_555
O5_2 C1_5 1_555 1_555
O3_5 C8_5 1_555 1_555
O4_5 C8_5 1_555 1_555
Cd4_3 O3_5 1_555 1_555
C6_5 C7_5 1_555 1_555
O4_5 Cd4_3 1_555 1_555
C9_5 H5_5 1_555 1_555
C10_5 C9_5 1_555 1_555
H6_5 C10_5 1_555 1_555
C11_5 C10_5 1_555 1_555
C12_5 C11_5 1_555 1_555
H7_5 C12_5 1_555 1_555
C13_5 C12_5 1_555 1_555
C14_5 C11_5 1_555 1_555
Cd4_2 N1_5 1_555 1_555
N1_5 C9_5 1_555 1_555
N2_5 C14_5 1_555 1_555
N3_5 C14_5 1_555 1_555
N7_5 Cd4_2 1_555 1_555
C13_5 N1_5 1_555 1_555
C15_5 H9_5 1_555 1_555
C16_5 C15_5 1_555 1_555
H10_5 C16_5 1_555 1_555
C17_5 C16_5 1_555 1_555
C18_5 C17_5 1_555 1_555
H11_5 C18_5 1_555 1_555
C19_5 C18_5 1_555 1_555
C20_5 C17_5 1_555 1_555
N7_5 C15_5 1_555 1_555
C19_5 N7_5 1_555 1_555
C20_5 N5_5 1_555 1_555
C20_5 N6_5 1_555 1_555
C1_6 C2_6 1_555 1_555
C2_6 C3_6 1_555 1_555
C3_6 H1_6 1_555 1_555
C4_6 C3_6 1_555 1_555
H2_6 C4_6 1_555 1_555
C5_6 C4_6 1_555 1_555
C6_6 C5_6 1_555 1_555
H3_6 C6_6 1_555 1_555
C7_6 C2_6 1_555 1_555
H4_6 C7_6 1_555 1_555
C8_6 C5_6 1_555 1_555
O1_6 C1_6 1_555 1_555
O5_3 C1_6 1_555 1_555
O6 C8_6 1_555 1_555
O7 C8_6 1_555 1_555
C6_6 C7_6 1_555 1_555
C9_6 H5_6 1_555 1_555
C10_6 C9_6 1_555 1_555
H6_6 C10_6 1_555 1_555
C11_6 C10_6 1_555 1_555
C12_6 C11_6 1_555 1_555
H7_6 C12_6 1_555 1_555
C13_6 C12_6 1_555 1_555
C14_6 C11_6 1_555 1_555
Cd4_3 N1_6 1_555 1_555
N1_6 C9_6 1_555 1_555
N2_6 C14_6 1_555 1_555
N3_6 C14_6 1_555 1_555
N7_6 Cd4_3 1_555 1_555
C13_6 N1_6 1_555 1_555
C15_6 H9_6 1_555 1_555
C16_6 C15_6 1_555 1_555
H10_6 C16_6 1_555 1_555
C17_6 C16_6 1_555 1_555
C18_6 C17_6 1_555 1_555
H11_6 C18_6 1_555 1_555
C19_6 C18_6 1_555 1_555
C20_6 C17_6 1_555 1_555
N7_6 C15_6 1_555 1_555
C19_6 N7_6 1_555 1_555
C20_6 N5_6 1_555 1_555
C20_6 N6_6 1_555 1_555

#END
