
###############################################################################
#
# This file contains modified crystal structure data generated from the
# MOF subset of the Cambridge Structural Database (CSD) v543 
# hosted by the Cambridge Crystallographic Data Centre (CCDC).
#
# This work is licensed under the Creative Commons
# Attribution-NonCommercial-ShareAlike 4.0 International License.
# To view a copy of this license, visit
# http://creativecommons.org/licenses/by-nc-sa/4.0/
# or send a letter to
# Creative Commons, PO Box 1866, Mountain View, CA 94042, USA.
#
# CIF created using the CSD Python API on 29 September 2022
# The structure has been converted into the P1 space group
# The structure has a 3D framework
# The original CSD entry YUGLIY is in the orthorhombic crystal system
# The framework has been calculated to contain at least 10.0% void space
# The void calculation uses a probe of radius 1.32A, grid spacing 0.4
#
###############################################################################

data_YUGLIY
_chemical_formula_moiety         '(C112 H64 Cd8 N24 O32)n'
_symmetry_cell_setting           triclinic
_symmetry_space_group_name_H-M   'P 1'
_symmetry_Int_Tables_number      1
_space_group_name_Hall           'P 1'
loop_
_symmetry_equiv_pos_site_id
_symmetry_equiv_pos_as_xyz
1 x,y,z
_cell_length_a                   21.0736(16)
_cell_length_b                   13.6113(11)
_cell_length_c                   15.6911(12)
_cell_angle_alpha                90
_cell_angle_beta                 90
_cell_angle_gamma                90
_cell_volume                     4500.82
loop_
_atom_site_label
_atom_site_type_symbol
_atom_site_fract_x
_atom_site_fract_y
_atom_site_fract_z
H5 H 0.107984 0.016218 0.162474
H6 H 0.109012 0.019400 0.308966
H9 H 0.107984 0.016218 0.837526
H10 H 0.109012 0.019400 0.691034
O6 O 0.05727(10) 0.0661(2) 0.000000
O6_2 O 0.05727(10) 0.0661(2) 1.000000
Cd2 Cd 0.06018(2) 0.89242(2) -0.000000
C1 C 0.17550(16) 0.8075(3) 0.000000
C2 C 0.24261(16) 0.7662(3) 0.000000
C3 C 0.29376(16) 0.8311(3) 0.000000
H1 H 0.286866 0.898566 0.000000
C4 C 0.25341(16) 0.6664(3) 0.000000
H2 H 0.219489 0.622683 0.000000
C5 C 0.43197(16) 0.6550(3) 0.000000
C6 C 0.36541(16) 0.6939(2) 0.000000
C7 C 0.31302(17) 0.6328(3) 0.000000
H3 H 0.319535 0.565247 0.000000
C8 C 0.35519(17) 0.7939(3) 0.000000
H4 H 0.389573 0.836736 0.000000
C9 C 0.08706(12) 0.96680(18) 0.19223(16)
C10 C 0.08818(12) 0.96900(18) 0.28035(16)
C11 C 0.05814(11) 0.89581(18) 0.32499(18)
C12 C 0.02844(11) 0.82241(18) 0.28148(15)
H7 H 0.009309 0.770362 0.310010
C13 C 0.02765(11) 0.82805(18) 0.19055(16)
H8 H 0.005170 0.780876 0.160112
C14 C 0.05715(11) 0.89641(18) 0.41848(17)
N1 N 0.05751(9) 0.89741(15) 0.14838(15)
N2 N 0.08232(10) 0.97291(15) 0.45778(13)
N3 N 0.02962(10) 0.82081(15) 0.45704(13)
O1 O 0.13007(11) 0.74953(17) 0.000000
O2 O 0.16898(12) 0.89831(17) 0.000000
O3 O 0.47572(11) 0.71771(17) 0.000000
O4 O 0.44273(10) 0.5661(2) 0.000000
C15 C 0.08706(12) 0.96680(18) 0.80777(16)
C16 C 0.08818(12) 0.96900(18) 0.71965(16)
C17 C 0.05814(11) 0.89581(18) 0.67501(18)
C18 C 0.02844(11) 0.82241(18) 0.71852(15)
H11 H 0.009309 0.770362 0.689990
C19 C 0.02765(11) 0.82805(18) 0.80945(16)
H12 H 0.005170 0.780876 0.839888
C20 C 0.05715(11) 0.89641(18) 0.58152(17)
N4 N 0.05751(9) 0.89741(15) 0.85162(15)
N5 N 0.08232(10) 0.97291(15) 0.54222(13)
N6 N 0.02962(10) 0.82081(15) 0.54296(13)
Cd2_2 Cd 0.06018(2) 0.89242(2) 1.000000
Cd3 Cd 0.43982(2) 0.39242(2) 0.000000
Cd4 Cd 0.56018(2) 0.60758(2) 0.000000
C1_2 C 0.17550(16) 0.8075(3) 1.000000
C2_2 C 0.24261(16) 0.7662(3) 1.000000
C3_2 C 0.29376(16) 0.8311(3) 1.000000
H1_2 H 0.286866 0.898566 1.000000
C4_2 C 0.25341(16) 0.6664(3) 1.000000
H2_2 H 0.219489 0.622683 1.000000
C5_2 C 0.43197(16) 0.6550(3) 1.000000
C6_2 C 0.36541(16) 0.6939(2) 1.000000
C7_2 C 0.31302(17) 0.6328(3) 1.000000
H3_2 H 0.319535 0.565247 1.000000
C8_2 C 0.35519(17) 0.7939(3) 1.000000
H4_2 H 0.389573 0.836736 1.000000
O1_2 O 0.13007(11) 0.74953(17) 1.000000
O2_2 O 0.16898(12) 0.89831(17) 1.000000
O3_2 O 0.47572(11) 0.71771(17) 1.000000
O4_2 O 0.44273(10) 0.5661(2) 1.000000
Cd3_2 Cd 0.43982(2) 0.39242(2) 1.000000
Cd4_2 Cd 0.56018(2) 0.60758(2) 1.000000
O5 O 0.97572(11) 0.78229(17) 0.000000
O7 O 0.94273(10) 0.9339(2) 0.000000
O5_2 O 0.97572(11) 0.78229(17) 1.000000
O7_2 O 0.94273(10) 0.9339(2) 1.000000
O5_3 O 0.02428(11) 0.21771(17) 0.000000
O5_4 O 0.02428(11) 0.21771(17) 1.000000
Cd2_3 Cd 0.93982(2) 0.10758(2) -0.000000
C1_3 C 0.82450(16) 0.1925(3) 0.000000
C2_3 C 0.75739(16) 0.2338(3) 0.000000
C3_3 C 0.70624(16) 0.1689(3) 0.000000
H1_3 H 0.713134 0.101434 0.000000
C4_3 C 0.74659(16) 0.3336(3) 0.000000
H2_3 H 0.780511 0.377317 0.000000
C5_3 C 0.56803(16) 0.3450(3) 0.000000
C6_3 C 0.63459(16) 0.3061(2) 0.000000
C7_3 C 0.68698(17) 0.3672(3) 0.000000
H3_3 H 0.680465 0.434753 0.000000
C8_3 C 0.64481(17) 0.2061(3) 0.000000
H4_3 H 0.610427 0.163264 0.000000
C9_2 C 0.91294(12) 0.03320(18) 0.19223(16)
C10_2 C 0.91182(12) 0.03100(18) 0.28035(16)
C11_2 C 0.94186(11) 0.10419(18) 0.32499(18)
C12_2 C 0.97156(11) 0.17759(18) 0.28148(15)
H7_2 H 0.990691 0.229638 0.310010
C13_2 C 0.97235(11) 0.17195(18) 0.19055(16)
H8_2 H 0.994830 0.219124 0.160112
C14_2 C 0.94285(11) 0.10359(18) 0.41848(17)
N1_2 N 0.94249(9) 0.10259(15) 0.14838(15)
N2_2 N 0.91768(10) 0.02709(15) 0.45778(13)
N3_2 N 0.97038(10) 0.17919(15) 0.45704(13)
O1_3 O 0.86993(11) 0.25047(17) 0.000000
O2_3 O 0.83102(12) 0.10169(17) 0.000000
O3_3 O 0.52428(11) 0.28229(17) 0.000000
O4_3 O 0.55727(10) 0.4339(2) 0.000000
C15_2 C 0.91294(12) 0.03320(18) 0.80777(16)
C16_2 C 0.91182(12) 0.03100(18) 0.71965(16)
C17_2 C 0.94186(11) 0.10419(18) 0.67501(18)
C18_2 C 0.97156(11) 0.17759(18) 0.71852(15)
H11_2 H 0.990691 0.229638 0.689990
C19_2 C 0.97235(11) 0.17195(18) 0.80945(16)
H12_2 H 0.994830 0.219124 0.839888
C20_2 C 0.94285(11) 0.10359(18) 0.58152(17)
N4_2 N 0.94249(9) 0.10259(15) 0.85162(15)
N5_2 N 0.91768(10) 0.02709(15) 0.54222(13)
N6_2 N 0.97038(10) 0.17919(15) 0.54296(13)
Cd2_4 Cd 0.93982(2) 0.10758(2) 1.000000
C1_4 C 0.82450(16) 0.1925(3) 1.000000
C2_4 C 0.75739(16) 0.2338(3) 1.000000
C3_4 C 0.70624(16) 0.1689(3) 1.000000
H1_4 H 0.713134 0.101434 1.000000
C4_4 C 0.74659(16) 0.3336(3) 1.000000
H2_4 H 0.780511 0.377317 1.000000
C5_4 C 0.56803(16) 0.3450(3) 1.000000
C6_4 C 0.63459(16) 0.3061(2) 1.000000
C7_4 C 0.68698(17) 0.3672(3) 1.000000
H3_4 H 0.680465 0.434753 1.000000
C8_4 C 0.64481(17) 0.2061(3) 1.000000
H4_4 H 0.610427 0.163264 1.000000
O1_4 O 0.86993(11) 0.25047(17) 1.000000
O2_4 O 0.83102(12) 0.10169(17) 1.000000
O3_4 O 0.52428(11) 0.28229(17) 1.000000
O4_4 O 0.55727(10) 0.4339(2) 1.000000
H5_2 H 0.892016 0.983782 0.162474
H6_2 H 0.890988 0.980600 0.308966
H9_2 H 0.892016 0.983782 0.837526
H10_2 H 0.890988 0.980600 0.691034
C1_5 C 0.32450(16) 0.3075(3) 0.000000
C2_5 C 0.25739(16) 0.2662(3) 0.000000
C3_5 C 0.20624(16) 0.3311(3) 0.000000
H1_5 H 0.213134 0.398566 0.000000
C4_5 C 0.24659(16) 0.1664(3) 0.000000
H2_5 H 0.280511 0.122683 0.000000
C5_5 C 0.06803(16) 0.1550(3) 0.000000
C6_5 C 0.13459(16) 0.1939(2) 0.000000
C7_5 C 0.18698(17) 0.1328(3) 0.000000
H3_5 H 0.180465 0.065247 0.000000
C8_5 C 0.14481(17) 0.2939(3) 0.000000
H4_5 H 0.110427 0.336736 0.000000
O1_5 O 0.36993(11) 0.24953(17) 0.000000
O2_5 O 0.33102(12) 0.39831(17) 0.000000
N7 N 0.44249(9) 0.39741(15) 0.14838(15)
C1_6 C 0.32450(16) 0.3075(3) 1.000000
C2_6 C 0.25739(16) 0.2662(3) 1.000000
C3_6 C 0.20624(16) 0.3311(3) 1.000000
H1_6 H 0.213134 0.398566 1.000000
C4_6 C 0.24659(16) 0.1664(3) 1.000000
H2_6 H 0.280511 0.122683 1.000000
C5_6 C 0.06803(16) 0.1550(3) 1.000000
C6_6 C 0.13459(16) 0.1939(2) 1.000000
C7_6 C 0.18698(17) 0.1328(3) 1.000000
H3_6 H 0.180465 0.065247 1.000000
C8_6 C 0.14481(17) 0.2939(3) 1.000000
H4_6 H 0.110427 0.336736 1.000000
C9_3 C 0.41294(12) 0.46680(18) 0.80777(16)
H5_3 H 0.392016 0.516218 0.837526
C10_3 C 0.41182(12) 0.46900(18) 0.71965(16)
H6_3 H 0.390988 0.519400 0.691034
C11_3 C 0.44186(11) 0.39581(18) 0.67501(18)
C12_3 C 0.47156(11) 0.32241(18) 0.71852(15)
H7_3 H 0.490691 0.270362 0.689990
C13_3 C 0.47235(11) 0.32805(18) 0.80945(16)
H8_3 H 0.494830 0.280876 0.839888
C14_3 C 0.44285(11) 0.39641(18) 0.58152(17)
N1_3 N 0.44249(9) 0.39741(15) 0.85162(15)
N2_3 N 0.41768(10) 0.47291(15) 0.54222(13)
N3_3 N 0.47038(10) 0.32081(15) 0.54296(13)
O1_6 O 0.36993(11) 0.24953(17) 1.000000
O2_6 O 0.33102(12) 0.39831(17) 1.000000
C15_3 C 0.41294(12) 0.46680(18) 0.19223(16)
H9_3 H 0.392016 0.516218 0.162474
C16_3 C 0.41182(12) 0.46900(18) 0.28035(16)
H10_3 H 0.390988 0.519400 0.308966
C17_3 C 0.44186(11) 0.39581(18) 0.32499(18)
C18_3 C 0.47156(11) 0.32241(18) 0.28148(15)
H11_3 H 0.490691 0.270362 0.310010
C19_3 C 0.47235(11) 0.32805(18) 0.19055(16)
H12_3 H 0.494830 0.280876 0.160112
C20_3 C 0.44285(11) 0.39641(18) 0.41848(17)
N5_3 N 0.41768(10) 0.47291(15) 0.45778(13)
N6_3 N 0.47038(10) 0.32081(15) 0.45704(13)
C1_7 C 0.67550(16) 0.6925(3) 0.000000
C2_7 C 0.74261(16) 0.7338(3) 0.000000
C3_7 C 0.79376(16) 0.6689(3) 0.000000
H1_7 H 0.786866 0.601434 0.000000
C4_7 C 0.75341(16) 0.8336(3) 0.000000
H2_7 H 0.719489 0.877317 0.000000
C5_7 C 0.93197(16) 0.8450(3) 0.000000
C6_7 C 0.86541(16) 0.8061(2) 0.000000
C7_7 C 0.81302(17) 0.8672(3) 0.000000
H3_7 H 0.819535 0.934753 0.000000
C8_7 C 0.85519(17) 0.7061(3) 0.000000
H4_7 H 0.889573 0.663264 0.000000
O1_7 O 0.63007(11) 0.75047(17) 0.000000
O2_7 O 0.66898(12) 0.60169(17) 0.000000
N7_2 N 0.55751(9) 0.60259(15) 0.14838(15)
C1_8 C 0.67550(16) 0.6925(3) 1.000000
C2_8 C 0.74261(16) 0.7338(3) 1.000000
C3_8 C 0.79376(16) 0.6689(3) 1.000000
H1_8 H 0.786866 0.601434 1.000000
C4_8 C 0.75341(16) 0.8336(3) 1.000000
H2_8 H 0.719489 0.877317 1.000000
C5_8 C 0.93197(16) 0.8450(3) 1.000000
C6_8 C 0.86541(16) 0.8061(2) 1.000000
C7_8 C 0.81302(17) 0.8672(3) 1.000000
H3_8 H 0.819535 0.934753 1.000000
C8_8 C 0.85519(17) 0.7061(3) 1.000000
H4_8 H 0.889573 0.663264 1.000000
C9_4 C 0.58706(12) 0.53320(18) 0.80777(16)
H5_4 H 0.607984 0.483782 0.837526
C10_4 C 0.58818(12) 0.53100(18) 0.71965(16)
H6_4 H 0.609012 0.480600 0.691034
C11_4 C 0.55814(11) 0.60419(18) 0.67501(18)
C12_4 C 0.52844(11) 0.67759(18) 0.71852(15)
H7_4 H 0.509309 0.729638 0.689990
C13_4 C 0.52765(11) 0.67195(18) 0.80945(16)
H8_4 H 0.505170 0.719124 0.839888
C14_4 C 0.55715(11) 0.60359(18) 0.58152(17)
N1_4 N 0.55751(9) 0.60259(15) 0.85162(15)
N2_4 N 0.58232(10) 0.52709(15) 0.54222(13)
N3_4 N 0.52962(10) 0.67919(15) 0.54296(13)
O1_8 O 0.63007(11) 0.75047(17) 1.000000
O2_8 O 0.66898(12) 0.60169(17) 1.000000
C15_4 C 0.58706(12) 0.53320(18) 0.19223(16)
H9_4 H 0.607984 0.483782 0.162474
C16_4 C 0.58818(12) 0.53100(18) 0.28035(16)
H10_4 H 0.609012 0.480600 0.308966
C17_4 C 0.55814(11) 0.60419(18) 0.32499(18)
C18_4 C 0.52844(11) 0.67759(18) 0.28148(15)
H11_4 H 0.509309 0.729638 0.310010
C19_4 C 0.52765(11) 0.67195(18) 0.19055(16)
H12_4 H 0.505170 0.719124 0.160112
C20_4 C 0.55715(11) 0.60359(18) 0.41848(17)
N5_4 N 0.58232(10) 0.52709(15) 0.45778(13)
N6_4 N 0.52962(10) 0.67919(15) 0.45704(13)
loop_
_geom_bond_atom_site_label_1
_geom_bond_atom_site_label_2
_geom_bond_site_symmetry_1
_geom_bond_site_symmetry_2
C1 C2 1_555 1_555
C2 C3 1_555 1_555
C3 H1 1_555 1_555
C4 C2 1_555 1_555
H2 C4 1_555 1_555
C5 C6 1_555 1_555
C6 C7 1_555 1_555
C7 C4 1_555 1_555
H3 C7 1_555 1_555
C8 C3 1_555 1_555
H4 C8 1_555 1_555
C10 C9 1_555 1_555
C11 C10 1_555 1_555
C12 C11 1_555 1_555
H7 C12 1_555 1_555
C13 C12 1_555 1_555
H8 C13 1_555 1_555
C14 C11 1_555 1_555
Cd2 N1 1_555 1_555
N1 C9 1_555 1_555
N2 C14 1_555 1_555
N3 C14 1_555 1_555
O1 C1 1_555 1_555
O2 C1 1_555 1_555
O3 C5 1_555 1_555
O4 C5 1_555 1_555
C16 C15 1_555 1_555
C17 C16 1_555 1_555
C18 C17 1_555 1_555
H11 C18 1_555 1_555
C19 C18 1_555 1_555
H12 C19 1_555 1_555
C20 C17 1_555 1_555
N4 C15 1_555 1_555
N5 N2 1_555 1_555
N6 N3 1_555 1_555
Cd2_2 N4 1_555 1_555
Cd3 O4 1_555 1_555
Cd4 O3 1_555 1_555
C6 C8 1_555 1_555
C13 N1 1_555 1_555
Cd2 O1 1_555 1_555
Cd2 O2 1_555 1_555
O4 Cd4 1_555 1_555
C19 N4 1_555 1_555
C20 N5 1_555 1_555
C20 N6 1_555 1_555
C1_2 C2_2 1_555 1_555
C2_2 C3_2 1_555 1_555
C3_2 H1_2 1_555 1_555
C4_2 C2_2 1_555 1_555
H2_2 C4_2 1_555 1_555
C5_2 C6_2 1_555 1_555
C6_2 C7_2 1_555 1_555
C7_2 C4_2 1_555 1_555
H3_2 C7_2 1_555 1_555
C8_2 C3_2 1_555 1_555
H4_2 C8_2 1_555 1_555
O1_2 C1_2 1_555 1_555
O2_2 C1_2 1_555 1_555
O3_2 C5_2 1_555 1_555
O4_2 C5_2 1_555 1_555
Cd3_2 O4_2 1_555 1_555
Cd4_2 O3_2 1_555 1_555
C6_2 C8_2 1_555 1_555
Cd2_2 O1_2 1_555 1_555
Cd2_2 O2_2 1_555 1_555
O4_2 Cd4_2 1_555 1_555
C1_3 C2_3 1_555 1_555
C2_3 C3_3 1_555 1_555
C3_3 H1_3 1_555 1_555
C4_3 C2_3 1_555 1_555
H2_3 C4_3 1_555 1_555
C5_3 C6_3 1_555 1_555
C6_3 C7_3 1_555 1_555
C7_3 C4_3 1_555 1_555
H3_3 C7_3 1_555 1_555
C8_3 C3_3 1_555 1_555
H4_3 C8_3 1_555 1_555
C10_2 C9_2 1_555 1_555
C11_2 C10_2 1_555 1_555
C12_2 C11_2 1_555 1_555
H7_2 C12_2 1_555 1_555
C13_2 C12_2 1_555 1_555
H8_2 C13_2 1_555 1_555
C14_2 C11_2 1_555 1_555
Cd2_3 N1_2 1_555 1_555
N1_2 C9_2 1_555 1_555
N2_2 C14_2 1_555 1_555
N3_2 C14_2 1_555 1_555
O1_3 C1_3 1_555 1_555
O2_3 C1_3 1_555 1_555
O3_3 C5_3 1_555 1_555
O4_3 C5_3 1_555 1_555
C16_2 C15_2 1_555 1_555
C17_2 C16_2 1_555 1_555
C18_2 C17_2 1_555 1_555
H11_2 C18_2 1_555 1_555
C19_2 C18_2 1_555 1_555
H12_2 C19_2 1_555 1_555
C20_2 C17_2 1_555 1_555
N4_2 C15_2 1_555 1_555
N5_2 N2_2 1_555 1_555
N6_2 N3_2 1_555 1_555
Cd2_4 N4_2 1_555 1_555
Cd4 O4_3 1_555 1_555
Cd3 O3_3 1_555 1_555
C6_3 C8_3 1_555 1_555
C13_2 N1_2 1_555 1_555
Cd2_3 O1_3 1_555 1_555
Cd2_3 O2_3 1_555 1_555
O4_3 Cd3 1_555 1_555
C19_2 N4_2 1_555 1_555
C20_2 N5_2 1_555 1_555
C20_2 N6_2 1_555 1_555
C1_4 C2_4 1_555 1_555
C2_4 C3_4 1_555 1_555
C3_4 H1_4 1_555 1_555
C4_4 C2_4 1_555 1_555
H2_4 C4_4 1_555 1_555
C5_4 C6_4 1_555 1_555
C6_4 C7_4 1_555 1_555
C7_4 C4_4 1_555 1_555
H3_4 C7_4 1_555 1_555
C8_4 C3_4 1_555 1_555
H4_4 C8_4 1_555 1_555
O1_4 C1_4 1_555 1_555
O2_4 C1_4 1_555 1_555
O3_4 C5_4 1_555 1_555
O4_4 C5_4 1_555 1_555
Cd4_2 O4_4 1_555 1_555
Cd3_2 O3_4 1_555 1_555
C6_4 C8_4 1_555 1_555
Cd2_4 O1_4 1_555 1_555
Cd2_4 O2_4 1_555 1_555
O4_4 Cd3_2 1_555 1_555
C1_5 C2_5 1_555 1_555
C2_5 C3_5 1_555 1_555
C3_5 H1_5 1_555 1_555
C4_5 C2_5 1_555 1_555
H2_5 C4_5 1_555 1_555
C5_5 C6_5 1_555 1_555
C6_5 C7_5 1_555 1_555
C7_5 C4_5 1_555 1_555
H3_5 C7_5 1_555 1_555
C8_5 C3_5 1_555 1_555
H4_5 C8_5 1_555 1_555
O1_5 C1_5 1_555 1_555
O2_5 C1_5 1_555 1_555
O5_3 C5_5 1_555 1_555
O6 C5_5 1_555 1_555
N7 Cd3 1_555 1_555
C6_5 C8_5 1_555 1_555
Cd3 O1_5 1_555 1_555
Cd3 O2_5 1_555 1_555
C1_6 C2_6 1_555 1_555
C2_6 C3_6 1_555 1_555
C3_6 H1_6 1_555 1_555
C4_6 C2_6 1_555 1_555
H2_6 C4_6 1_555 1_555
C5_6 C6_6 1_555 1_555
C6_6 C7_6 1_555 1_555
C7_6 C4_6 1_555 1_555
H3_6 C7_6 1_555 1_555
C8_6 C3_6 1_555 1_555
H4_6 C8_6 1_555 1_555
C9_3 H5_3 1_555 1_555
C10_3 C9_3 1_555 1_555
H6_3 C10_3 1_555 1_555
C11_3 C10_3 1_555 1_555
C12_3 C11_3 1_555 1_555
H7_3 C12_3 1_555 1_555
C13_3 C12_3 1_555 1_555
H8_3 C13_3 1_555 1_555
C14_3 C11_3 1_555 1_555
Cd3_2 N1_3 1_555 1_555
N1_3 C9_3 1_555 1_555
N2_3 C14_3 1_555 1_555
N3_3 C14_3 1_555 1_555
O1_6 C1_6 1_555 1_555
O2_6 C1_6 1_555 1_555
O5_4 C5_6 1_555 1_555
O6_2 C5_6 1_555 1_555
C15_3 H9_3 1_555 1_555
C16_3 C15_3 1_555 1_555
H10_3 C16_3 1_555 1_555
C17_3 C16_3 1_555 1_555
C18_3 C17_3 1_555 1_555
H11_3 C18_3 1_555 1_555
C19_3 C18_3 1_555 1_555
H12_3 C19_3 1_555 1_555
C20_3 C17_3 1_555 1_555
N7 C15_3 1_555 1_555
N5_3 N2_3 1_555 1_555
N6_3 N3_3 1_555 1_555
C6_6 C8_6 1_555 1_555
C13_3 N1_3 1_555 1_555
Cd3_2 O1_6 1_555 1_555
Cd3_2 O2_6 1_555 1_555
C19_3 N7 1_555 1_555
C20_3 N5_3 1_555 1_555
C20_3 N6_3 1_555 1_555
C1_7 C2_7 1_555 1_555
C2_7 C3_7 1_555 1_555
C3_7 H1_7 1_555 1_555
C4_7 C2_7 1_555 1_555
H2_7 C4_7 1_555 1_555
C5_7 C6_7 1_555 1_555
C6_7 C7_7 1_555 1_555
C7_7 C4_7 1_555 1_555
H3_7 C7_7 1_555 1_555
C8_7 C3_7 1_555 1_555
H4_7 C8_7 1_555 1_555
O1_7 C1_7 1_555 1_555
O2_7 C1_7 1_555 1_555
O5 C5_7 1_555 1_555
O7 C5_7 1_555 1_555
N7_2 Cd4 1_555 1_555
C6_7 C8_7 1_555 1_555
Cd4 O1_7 1_555 1_555
Cd4 O2_7 1_555 1_555
C1_8 C2_8 1_555 1_555
C2_8 C3_8 1_555 1_555
C3_8 H1_8 1_555 1_555
C4_8 C2_8 1_555 1_555
H2_8 C4_8 1_555 1_555
C5_8 C6_8 1_555 1_555
C6_8 C7_8 1_555 1_555
C7_8 C4_8 1_555 1_555
H3_8 C7_8 1_555 1_555
C8_8 C3_8 1_555 1_555
H4_8 C8_8 1_555 1_555
C9_4 H5_4 1_555 1_555
C10_4 C9_4 1_555 1_555
H6_4 C10_4 1_555 1_555
C11_4 C10_4 1_555 1_555
C12_4 C11_4 1_555 1_555
H7_4 C12_4 1_555 1_555
C13_4 C12_4 1_555 1_555
H8_4 C13_4 1_555 1_555
C14_4 C11_4 1_555 1_555
Cd4_2 N1_4 1_555 1_555
N1_4 C9_4 1_555 1_555
N2_4 C14_4 1_555 1_555
N3_4 C14_4 1_555 1_555
O1_8 C1_8 1_555 1_555
O2_8 C1_8 1_555 1_555
O5_2 C5_8 1_555 1_555
O7_2 C5_8 1_555 1_555
C15_4 H9_4 1_555 1_555
C16_4 C15_4 1_555 1_555
H10_4 C16_4 1_555 1_555
C17_4 C16_4 1_555 1_555
C18_4 C17_4 1_555 1_555
H11_4 C18_4 1_555 1_555
C19_4 C18_4 1_555 1_555
H12_4 C19_4 1_555 1_555
C20_4 C17_4 1_555 1_555
N7_2 C15_4 1_555 1_555
N5_4 N2_4 1_555 1_555
N6_4 N3_4 1_555 1_555
C6_8 C8_8 1_555 1_555
C13_4 N1_4 1_555 1_555
Cd4_2 O1_8 1_555 1_555
Cd4_2 O2_8 1_555 1_555
C19_4 N7_2 1_555 1_555
C20_4 N5_4 1_555 1_555
C20_4 N6_4 1_555 1_555

#END
