
###############################################################################
#
# This file contains modified crystal structure data generated from the
# MOF subset of the Cambridge Structural Database (CSD) v543 
# hosted by the Cambridge Crystallographic Data Centre (CCDC).
#
# This work is licensed under the Creative Commons
# Attribution-NonCommercial-ShareAlike 4.0 International License.
# To view a copy of this license, visit
# http://creativecommons.org/licenses/by-nc-sa/4.0/
# or send a letter to
# Creative Commons, PO Box 1866, Mountain View, CA 94042, USA.
#
# CIF created using the CSD Python API on 29 September 2022
# The structure has been converted into the P1 space group
# The structure has a 3D framework
# The original CSD entry YUGMAQ is in the triclinic crystal system
# The framework has been calculated to contain at least 10.0% void space
# The void calculation uses a probe of radius 1.32A, grid spacing 0.4
#
###############################################################################

data_YUGMAQ
_chemical_formula_moiety         '(C90 H90 Ag9 K2 N30 O78 Si2 W24)n'
_symmetry_cell_setting           triclinic
_symmetry_space_group_name_H-M   'P 1'
_symmetry_Int_Tables_number      1
_space_group_name_Hall           'P 1'
loop_
_symmetry_equiv_pos_site_id
_symmetry_equiv_pos_as_xyz
1 x,y,z
_cell_length_a                   13.7305(7)
_cell_length_b                   16.1417(8)
_cell_length_c                   21.9242(10)
_cell_angle_alpha                109.2670(10)
_cell_angle_beta                 91.6810(10)
_cell_angle_gamma                105.1980(10)
_cell_volume                     4390.62
loop_
_atom_site_label
_atom_site_type_symbol
_atom_site_fract_x
_atom_site_fract_y
_atom_site_fract_z
O6 O 0.0690(10) 0.1344(8) 0.8308(6)
H4 H 0.0059 0.3976 0.1862
C14 C 0.0054(17) 0.3871(15) 0.5471(10)
H14 H 0.0600 0.3624 0.5417
C15 C 0.0254(19) 0.4861(15) 0.5711(11)
H15 H 0.0911 0.5252 0.5781
H84 H 0.0043 0.1165 0.0141
C85 C 0.0117(16) 0.2524(14) 0.0321(10)
C86 C 0.0963(16) 0.3000(14) 0.0797(10)
H86 H 0.1189 0.2705 0.1047
C87 C 0.1462(18) 0.3902(15) 0.0899(11)
H87 H 0.2029 0.4205 0.1213
C88 C 0.1165(18) 0.4324(16) 0.0577(11)
H88 H 0.1526 0.4932 0.0661
C89 C 0.0321(18) 0.3928(15) 0.0099(10)
H89 H 0.0110 0.4257 0.9871
O9 O 0.0787(9) 0.8615(10) 0.6472(6)
Ag11 Ag 0.21515(10) 0.77008(10) 0.64199(7)
K4 K 0.7208(5) 0.2203(4) 0.0241(2)
W1 W 0.95271(5) 0.05977(4) 0.80342(3)
W8 W 0.64316(4) 0.06489(4) 0.68214(3)
W9 W 0.72814(5) 0.08833(4) 0.84812(3)
W12 W 0.86881(5) 0.03678(5) 0.63695(3)
O11 O 0.7743(7) 0.1104(7) 0.6569(5)
O12 O 0.5960(8) 0.0024(7) 0.8245(5)
O13 O 0.9383(8) 0.0060(7) 0.8693(5)
O17 O 0.7035(8) 0.1071(7) 0.7690(5)
O20 O 0.8711(8) 0.1339(8) 0.8474(5)
O22 O 0.7583(8) 0.0266(7) 0.9048(5)
O23 O 0.7107(9) 0.1819(8) 0.9058(5)
O27 O 0.9173(8) 0.0813(7) 0.7262(5)
O28 O 0.9548(8) 0.1051(8) 0.6093(6)
O34 O 0.5906(8) 0.1478(7) 0.6775(5)
Ag2 Ag 0.47926(10) 0.22496(10) 0.64697(7)
Ag3 Ag 0.5000 0.5000 0.5000
Ag4 Ag 0.5000 -0.0000 0.5000
Ag5 Ag 0.78485(10) 0.22992(10) 0.35801(7)
C1 C 0.7412(16) 0.3128(14) 0.2556(10)
H1 H 0.6733 0.2967 0.2624
C2 C 0.8922(17) 0.3230(14) 0.2624(10)
H2 H 0.9552 0.3160 0.2723
C3 C 0.9392(17) 0.4067(14) 0.1821(10)
H3 H 0.9109 0.3776 0.1365
C4 C 0.9513(19) 0.5076(16) 0.2024(11)
C5 C 0.9427(19) 0.5485(16) 0.1610(12)
H5 H 0.9285 0.5130 0.1169
C6 C 0.954(2) 0.6443(17) 0.1790(12)
H6 H 0.9455 0.6703 0.1479
C7 C 0.975(2) 0.6914(18) 0.2378(12)
H7 H 0.9945 0.7548 0.2490
C8 C 0.971(2) 0.6589(18) 0.2856(13)
H8 H 0.9751 0.6967 0.3286
C9 C 0.9615(19) 0.5644(16) 0.2695(11)
H9 H 0.9617 0.5394 0.3021
C10 C 0.6457(13) 0.1172(12) 0.4281(8)
H10 H 0.5933 0.1009 0.3947
C11 C 0.7239(15) 0.1260(14) 0.5153(10)
H11 H 0.7416 0.1198 0.5545
C12 C 0.8950(15) 0.2296(13) 0.5067(10)
H12 H 0.9328 0.2150 0.4698
H13 H 0.9225 0.2117 0.5400
C13 C 0.9110(16) 0.3309(14) 0.5328(10)
C16 C 0.9472(18) 0.5175(16) 0.5822(11)
H16 H 0.9610 0.5808 0.6013
C17 C 0.8514(19) 0.4703(16) 0.5695(11)
H17 H 0.8002 0.4991 0.5763
C18 C 0.8276(18) 0.3701(14) 0.5440(10)
H18 H 0.7607 0.3331 0.5353
C19 C 0.5218(19) 0.3652(17) 0.5708(12)
H19 H 0.4992 0.3154 0.5322
C20 C 0.5665(19) 0.4945(18) 0.6347(12)
H20 H 0.5829 0.5578 0.6546
C21 C 0.585(2) 0.4681(19) 0.7440(13)
H21 H 0.6214 0.5327 0.7632
H22 H 0.5193 0.4583 0.7604
C22 C 0.6406(13) 0.4148(12) 0.7607(9)
C23 C 0.6042(12) 0.3736(13) 0.8052(9)
H23 H 0.5423 0.3774 0.8202
C24 C 0.6604(15) 0.3266(13) 0.8274(9)
H24 H 0.6360 0.2990 0.8572
C25 C 0.7529(14) 0.3209(12) 0.8050(9)
H25 H 0.7904 0.2895 0.8198
C26 C 0.7893(12) 0.3621(13) 0.7604(9)
H26 H 0.8512 0.3583 0.7454
C27 C 0.7332(14) 0.4091(13) 0.7382(9)
H27 H 0.7575 0.4367 0.7084
C28 C 0.1891(18) 0.0802(15) 0.6892(11)
H28 H 0.1189 0.0684 0.6881
C29 C 0.3419(16) 0.0846(15) 0.7097(10)
H29 H 0.3997 0.0769 0.7277
C30 C 0.2140(17) 0.1771(15) 0.6215(11)
H30 H 0.1404 0.1614 0.6146
H31 H 0.2376 0.1575 0.5793
C31 C 0.2572(18) 0.2800(16) 0.6533(12)
C32 C 0.2651(18) 0.3316(17) 0.6130(12)
H32 H 0.2467 0.3019 0.5684
C33 C 0.2998(18) 0.4259(17) 0.6379(12)
H33 H 0.3035 0.4598 0.6106
C34 C 0.328(2) 0.4679(19) 0.7022(12)
H34 H 0.3551 0.5313 0.7174
C35 C 0.320(2) 0.4218(19) 0.7520(13)
H35 H 0.3335 0.4521 0.7968
C36 C 0.2883(19) 0.3254(17) 0.7205(12)
H36 H 0.2881 0.2896 0.7461
N1 N 0.8127(10) 0.2965(11) 0.2876(7)
N2 N 0.7730(11) 0.3542(10) 0.2127(8)
N3 N 0.8740(10) 0.3618(10) 0.2202(7)
N4 N 0.6347(11) 0.0882(10) 0.4809(7)
N5 N 0.7349(9) 0.1686(9) 0.4295(6)
N6 N 0.7870(9) 0.1754(9) 0.4858(6)
N7 N 0.5383(12) 0.4484(9) 0.5715(7)
N8 N 0.5676(17) 0.4375(13) 0.6643(9)
N9 N 0.5376(12) 0.3536(10) 0.6250(8)
N10 N 0.2455(11) 0.0482(11) 0.7214(8)
N11 N 0.3448(9) 0.1319(10) 0.6702(7)
N12 N 0.2431(10) 0.1289(10) 0.6602(7)
Si2 Si 0.2725(2) 0.1066(2) 0.28598(16)
W14 W 0.18134(5) 0.27980(5) 0.26201(3)
W15 W 0.04170(5) 0.14352(5) 0.33429(3)
W16 W 0.19018(5) 0.07791(5) 0.12538(3)
W17 W 0.50947(5) 0.08449(5) 0.23887(3)
W18 W 0.34849(5) 0.12190(4) 0.44416(3)
W19 W 0.25830(6) 0.30159(5) 0.41539(3)
W22 W 0.42713(5) 0.25086(4) 0.21333(3)
W23 W 0.50442(5) 0.27039(4) 0.36686(3)
O41 O 0.2168(7) 0.0354(7) 0.2149(5)
O42 O 0.2769(7) 0.0522(7) 0.3355(5)
O43 O 0.3882(7) 0.1594(7) 0.2781(5)
O44 O 0.2108(7) 0.1802(7) 0.3143(5)
O45 O 0.0510(8) 0.2275(8) 0.2879(5)
O47 O 0.1162(8) 0.2440(8) 0.4095(5)
O48 O 0.5080(8) 0.3188(7) 0.2963(5)
O50 O 0.3967(8) 0.1496(7) 0.5226(5)
O54 O 0.5151(8) 0.1715(8) 0.1950(5)
O55 O 0.0758(8) 0.0625(7) 0.3706(5)
O56 O 0.2274(10) 0.3521(8) 0.3528(5)
O58 O 0.3975(8) 0.0145(7) 0.4061(5)
O59 O 0.6131(8) 0.0511(8) 0.2136(6)
O61 O 0.5748(8) 0.1877(7) 0.3172(5)
O64 O 0.3250(8) 0.1549(8) 0.1504(5)
O65 O 0.2192(7) 0.0363(7) 0.4426(5)
O66 O 0.1590(10) 0.0857(8) 0.0530(5)
O69 O 0.1521(8) 0.1769(8) 0.1835(5)
O70 O 0.4806(10) 0.3199(8) 0.1715(6)
O71 O 0.0177(8) 0.0459(7) 0.2522(5)
O72 O 0.2746(8) 0.3941(8) 0.4830(5)
O73 O 0.4568(7) 0.1909(7) 0.4128(5)
O75 O 0.3937(8) 0.3172(7) 0.3945(5)
O76 O 0.3194(8) 0.2981(7) 0.2470(5)
O77 O 0.2834(8) 0.2121(7) 0.4477(5)
O78 O 0.6042(9) 0.3520(8) 0.4192(5)
O79 O 0.4636(7) 0.0141(7) 0.2945(5)
O80 O 0.1488(9) 0.3597(7) 0.2375(6)
Ag6 Ag 0.79552(11) 0.02264(14) 0.21263(10)
C82 C 0.7716(15) 0.1348(13) 0.1222(9)
H82 H 0.7133 0.1460 0.1394
C83 C 0.9038(16) 0.0932(13) 0.1050(10)
H83 H 0.9573 0.0684 0.1071
C84 C 0.9548(15) 0.1507(13) 0.0184(9)
N28 N 0.8255(11) 0.0877(12) 0.1428(8)
N29 N 0.8085(12) 0.1626(12) 0.0767(8)
N30 N 0.8944(11) 0.1356(10) 0.0673(7)
O82 O 0.9213(9) 0.1385(10) 0.3528(6)
N31 N 0.4617(12) 0.5516(9) 0.4285(7)
H85 H 0.9114 0.1268 0.9771
C90 C 0.9798(17) 0.2989(14) 0.9982(10)
H90 H 0.9231 0.2693 0.9668
H40 H 0.0886 0.8732 0.0229
C45 C 0.0202(17) 0.7011(14) 0.0018(10)
H45 H 0.0769 0.7307 0.0332
O84 O 0.2893(9) 0.8181(8) 0.0942(5)
Si1 Si 0.7275(2) 0.8934(2) 0.71402(16)
W2 W 0.81866(5) 0.72020(5) 0.73799(3)
W3 W 0.95830(5) 0.85648(5) 0.66571(3)
W4 W 0.80982(5) 0.92209(5) 0.87462(3)
W5 W 0.49053(5) 0.91551(5) 0.76113(3)
W6 W 0.65151(5) 0.87810(4) 0.55584(3)
W7 W 0.74170(6) 0.69841(5) 0.58461(3)
W10 W 0.57287(5) 0.74914(4) 0.78667(3)
W11 W 0.49558(5) 0.72961(4) 0.63314(3)
O1 O 0.7832(7) 0.9646(7) 0.7851(5)
O2 O 0.7231(7) 0.9478(7) 0.6645(5)
O3 O 0.6118(7) 0.8406(7) 0.7219(5)
O4 O 0.7892(7) 0.8198(7) 0.6857(5)
O5 O 0.9490(8) 0.7725(8) 0.7121(5)
O7 O 0.8838(8) 0.7560(8) 0.5905(5)
O8 O 0.4920(8) 0.6812(7) 0.7037(5)
O10 O 0.6033(8) 0.8504(7) 0.4774(5)
O14 O 0.4849(8) 0.8285(8) 0.8050(5)
O15 O 0.9242(8) 0.9375(7) 0.6294(5)
O16 O 0.7726(10) 0.6479(8) 0.6472(5)
O18 O 0.6025(8) 0.9855(7) 0.5939(5)
O19 O 0.3869(8) 0.9489(8) 0.7864(6)
O21 O 0.4252(8) 0.8123(7) 0.6828(5)
O24 O 0.6750(8) 0.8451(8) 0.8496(5)
O25 O 0.7808(7) 0.9637(7) 0.5574(5)
O26 O 0.8410(10) 0.9143(8) 0.9470(5)
O29 O 0.8479(8) 0.8231(8) 0.8165(5)
O30 O 0.5194(10) 0.6801(8) 0.8285(6)
O31 O 0.9823(8) 0.9541(7) 0.7478(5)
O32 O 0.7254(8) 0.6059(8) 0.5170(5)
O33 O 0.5432(7) 0.8091(7) 0.5872(5)
O35 O 0.6063(8) 0.6828(7) 0.6055(5)
O36 O 0.6806(8) 0.7019(7) 0.7530(5)
O37 O 0.7166(8) 0.7879(7) 0.5523(5)
O38 O 0.3958(9) 0.6480(8) 0.5808(5)
O39 O 0.5364(7) 0.9859(7) 0.7055(5)
O40 O 0.8512(9) 0.6403(7) 0.7625(6)
Ag1 Ag 0.20448(11) 0.97736(14) 0.78737(10)
Ag4_2 Ag 0.5000 1.0000 0.5000
C37 C 0.2284(15) 0.8652(13) 0.8778(9)
H37 H 0.2867 0.8540 0.8606
C38 C 0.0962(16) 0.9068(13) 0.8950(10)
H38 H 0.0427 0.9316 0.8929
C39 C 0.0452(15) 0.8493(13) 0.9816(9)
N13 N 0.1745(11) 0.9123(12) 0.8572(8)
N14 N 0.1915(12) 0.8374(12) 0.9233(8)
N15 N 0.1056(11) 0.8644(10) 0.9327(7)
K1 K 0.2792(5) 0.7797(4) 0.9759(2)
W13 W 0.04729(5) 0.94023(4) 0.19658(3)
W20 W 0.35684(4) 0.93511(4) 0.31786(3)
W21 W 0.27186(5) 0.91167(4) 0.15188(3)
W24 W 0.13119(5) 0.96322(5) 0.36305(3)
O51 O 0.2257(7) 0.8896(7) 0.3431(5)
O52 O 0.4040(8) 0.9976(7) 0.1755(5)
O53 O 0.0617(8) 0.9940(7) 0.1307(5)
O57 O 0.2965(8) 0.8929(7) 0.2310(5)
O60 O 0.1289(8) 0.8661(8) 0.1526(5)
O62 O 0.2417(8) 0.9734(7) 0.0952(5)
O67 O 0.0827(8) 0.9187(7) 0.2738(5)
O68 O 0.0452(8) 0.8949(8) 0.3907(6)
O74 O 0.4094(8) 0.8522(7) 0.3225(5)
Ag7 Ag 0.52074(10) 0.77504(10) 0.35303(7)
C46 C 0.2588(16) 0.6872(14) 0.7444(10)
H46 H 0.3267 0.7033 0.7376
C47 C 0.1078(17) 0.6770(14) 0.7376(10)
H47 H 0.0448 0.6840 0.7277
C48 C 0.0608(17) 0.5933(14) 0.8179(10)
H48 H 0.0891 0.6224 0.8635
C49 C 0.0487(19) 0.4924(16) 0.7976(11)
C50 C 0.0573(19) 0.4515(16) 0.8390(12)
H50 H 0.0715 0.4870 0.8831
C51 C 0.046(2) 0.3557(17) 0.8210(12)
H51 H 0.0545 0.3297 0.8521
C52 C 0.025(2) 0.3086(18) 0.7622(12)
H52 H 0.0055 0.2452 0.7510
C53 C 0.029(2) 0.3411(18) 0.7144(13)
H53 H 0.0249 0.3033 0.6714
C54 C 0.0385(19) 0.4356(16) 0.7305(11)
H54 H 0.0383 0.4606 0.6979
C55 C 0.3543(13) 0.8828(12) 0.5719(8)
H55 H 0.4067 0.8991 0.6053
C56 C 0.2761(15) 0.8740(14) 0.4847(10)
H56 H 0.2584 0.8802 0.4455
C57 C 0.1050(15) 0.7704(13) 0.4933(10)
H57 H 0.0672 0.7850 0.5302
H58 H 0.0775 0.7883 0.4600
C58 C 0.0890(16) 0.6691(14) 0.4672(10)
C61 C 0.0528(18) 0.4825(16) 0.4178(11)
H61 H 0.0390 0.4192 0.3987
C62 C 0.1486(19) 0.5297(16) 0.4305(11)
H62 H 0.1998 0.5009 0.4237
C63 C 0.1724(18) 0.6299(14) 0.4560(10)
H63 H 0.2393 0.6669 0.4647
C64 C 0.4782(19) 0.6348(17) 0.4292(12)
H64 H 0.5008 0.6846 0.4678
C65 C 0.4335(19) 0.5055(18) 0.3653(12)
H65 H 0.4171 0.4422 0.3454
C66 C 0.415(2) 0.5319(19) 0.2560(13)
H66 H 0.3786 0.4673 0.2368
H67 H 0.4807 0.5417 0.2396
C67 C 0.3594(13) 0.5852(12) 0.2393(9)
C68 C 0.3958(12) 0.6264(13) 0.1948(9)
H68 H 0.4577 0.6226 0.1798
C69 C 0.3396(15) 0.6734(13) 0.1726(9)
H69 H 0.3640 0.7010 0.1428
C70 C 0.2471(14) 0.6791(12) 0.1950(9)
H70 H 0.2096 0.7105 0.1802
C71 C 0.2107(12) 0.6379(13) 0.2396(9)
H71 H 0.1488 0.6417 0.2546
C72 C 0.2668(14) 0.5909(13) 0.2618(9)
H72 H 0.2425 0.5633 0.2916
C73 C 0.8109(18) 0.9198(15) 0.3108(11)
H73 H 0.8811 0.9316 0.3119
C74 C 0.6581(16) 0.9154(15) 0.2903(10)
H74 H 0.6003 0.9231 0.2723
C75 C 0.7860(17) 0.8229(15) 0.3785(11)
H75 H 0.8596 0.8386 0.3854
H76 H 0.7624 0.8425 0.4207
C76 C 0.7428(18) 0.7200(16) 0.3467(12)
C77 C 0.7349(18) 0.6684(17) 0.3870(12)
H77 H 0.7533 0.6981 0.4316
C78 C 0.7002(18) 0.5741(17) 0.3621(12)
H78 H 0.6965 0.5402 0.3894
C79 C 0.672(2) 0.5321(19) 0.2978(12)
H79 H 0.6449 0.4687 0.2826
C80 C 0.680(2) 0.5782(19) 0.2480(13)
H80 H 0.6665 0.5479 0.2032
C81 C 0.7117(19) 0.6746(17) 0.2795(12)
H81 H 0.7119 0.7104 0.2539
N16 N 0.1873(10) 0.7035(11) 0.7124(7)
N17 N 0.2270(11) 0.6458(10) 0.7873(8)
N18 N 0.1260(10) 0.6382(10) 0.7798(7)
N19 N 0.3653(11) 0.9118(10) 0.5191(7)
N20 N 0.2651(9) 0.8314(9) 0.5705(6)
N21 N 0.2130(9) 0.8246(9) 0.5142(6)
N23 N 0.4324(17) 0.5625(13) 0.3357(9)
N24 N 0.4624(12) 0.6464(10) 0.3750(8)
N25 N 0.7545(11) 0.9518(11) 0.2786(8)
N26 N 0.6552(9) 0.8681(10) 0.3298(7)
N27 N 0.7569(10) 0.8711(10) 0.3398(7)
H44 H 0.9890 0.5743 0.0129
H39 H 0.9957 0.8835 0.9859
C40 C 0.9883(16) 0.7476(14) 0.9679(10)
C41 C 0.9037(16) 0.7000(14) 0.9203(10)
H41 H 0.8811 0.7295 0.8953
C42 C 0.8538(18) 0.6098(15) 0.9101(11)
H42 H 0.7971 0.5795 0.8787
C43 C 0.8835(18) 0.5676(16) 0.9423(11)
H43 H 0.8474 0.5068 0.9339
C44 C 0.9679(18) 0.6072(15) 0.9901(10)
O46 O 0.9310(10) 0.8656(8) 0.1692(6)
H49 H 0.9941 0.6024 0.8138
C59 C 0.9946(17) 0.6129(15) 0.4529(10)
H59 H 0.9400 0.6376 0.4583
C60 C 0.9746(19) 0.5139(15) 0.4289(11)
H60 H 0.9089 0.4748 0.4219
loop_
_geom_bond_atom_site_label_1
_geom_bond_atom_site_label_2
_geom_bond_site_symmetry_1
_geom_bond_site_symmetry_2
H14 C14 1_555 1_555
C15 C14 1_555 1_555
H15 C15 1_555 1_555
C86 C85 1_555 1_555
H86 C86 1_555 1_555
C87 C86 1_555 1_555
H87 C87 1_555 1_555
C88 C87 1_555 1_555
H88 C88 1_555 1_555
C89 C88 1_555 1_555
Ag11 O9 1_555 1_555
O11 W8 1_555 1_555
O13 W1 1_555 1_555
O17 W8 1_555 1_555
O20 W1 1_555 1_555
O23 W9 1_555 1_555
O27 W1 1_555 1_555
O28 W12 1_555 1_555
O34 W8 1_555 1_555
Ag2 O34 1_555 1_555
Ag3 N7 1_555 1_555
Ag5 N1 1_555 1_555
C1 H1 1_555 1_555
C2 H2 1_555 1_555
C3 H3 1_555 1_555
C4 C3 1_555 1_555
C5 C4 1_555 1_555
H5 C5 1_555 1_555
C6 C5 1_555 1_555
H6 C6 1_555 1_555
C7 C6 1_555 1_555
H7 C7 1_555 1_555
C8 C7 1_555 1_555
H8 C8 1_555 1_555
C9 C4 1_555 1_555
H9 C9 1_555 1_555
C10 H10 1_555 1_555
C11 H11 1_555 1_555
C12 H12 1_555 1_555
H13 C12 1_555 1_555
C13 C12 1_555 1_555
H16 C16 1_555 1_555
C17 C16 1_555 1_555
H17 C17 1_555 1_555
C18 C13 1_555 1_555
H18 C18 1_555 1_555
C19 H19 1_555 1_555
C20 H20 1_555 1_555
C21 H21 1_555 1_555
H22 C21 1_555 1_555
C22 C21 1_555 1_555
C23 C22 1_555 1_555
H23 C23 1_555 1_555
C24 C23 1_555 1_555
H24 C24 1_555 1_555
C25 C24 1_555 1_555
H25 C25 1_555 1_555
C26 C25 1_555 1_555
H26 C26 1_555 1_555
C27 C22 1_555 1_555
H27 C27 1_555 1_555
C28 H28 1_555 1_555
C29 H29 1_555 1_555
C30 H30 1_555 1_555
H31 C30 1_555 1_555
C31 C30 1_555 1_555
C32 C31 1_555 1_555
H32 C32 1_555 1_555
C33 C32 1_555 1_555
H33 C33 1_555 1_555
C34 C33 1_555 1_555
H34 C34 1_555 1_555
C35 C34 1_555 1_555
H35 C35 1_555 1_555
C36 C31 1_555 1_555
H36 C36 1_555 1_555
N1 C1 1_555 1_555
N2 C1 1_555 1_555
N3 C2 1_555 1_555
N4 Ag4 1_555 1_555
N5 Ag5 1_555 1_555
N6 C11 1_555 1_555
N7 C19 1_555 1_555
N8 C20 1_555 1_555
N9 Ag2 1_555 1_555
N11 Ag2 1_555 1_555
N12 C28 1_555 1_555
Si2 O41 1_555 1_555
W14 O44 1_555 1_555
W15 O44 1_555 1_555
W16 O41 1_555 1_555
W17 O43 1_555 1_555
W18 O42 1_555 1_555
W19 O44 1_555 1_555
W22 O43 1_555 1_555
W23 O43 1_555 1_555
O42 Si2 1_555 1_555
O43 Si2 1_555 1_555
O44 Si2 1_555 1_555
O45 W14 1_555 1_555
O47 W15 1_555 1_555
O48 W22 1_555 1_555
O50 Ag2 1_555 1_555
O54 W17 1_555 1_555
O55 W15 1_555 1_555
O56 W14 1_555 1_555
O58 Ag4 1_555 1_555
O59 W17 1_555 1_555
O61 W17 1_555 1_555
O64 W16 1_555 1_555
O65 W18 1_555 1_555
O66 W16 1_555 1_555
O69 W14 1_555 1_555
O70 W22 1_555 1_555
O72 W19 1_555 1_555
O73 W18 1_555 1_555
O75 W19 1_555 1_555
O76 W14 1_555 1_555
O77 W18 1_555 1_555
O78 W23 1_555 1_555
O79 W17 1_555 1_555
O80 W14 1_555 1_555
Ag6 O59 1_555 1_555
C82 H82 1_555 1_555
C83 H83 1_555 1_555
N28 Ag6 1_555 1_555
N29 C82 1_555 1_555
N30 C83 1_555 1_555
K4 N29 1_555 1_555
O82 Ag5 1_555 1_555
N31 Ag3 1_555 1_555
W9 O12 1_555 1_555
W9 O17 1_555 1_555
W9 O20 1_555 1_555
W9 O22 1_555 1_555
W12 O11 1_555 1_555
W12 O27 1_555 1_555
C2 N1 1_555 1_555
C3 N3 1_555 1_555
C8 C9 1_555 1_555
C10 N4 1_555 1_555
C10 N5 1_555 1_555
C11 N4 1_555 1_555
C12 N6 1_555 1_555
C17 C18 1_555 1_555
C19 N9 1_555 1_555
C20 N7 1_555 1_555
C21 N8 1_555 1_555
C26 C27 1_555 1_555
C28 N10 1_555 1_555
C29 N10 1_555 1_555
C29 N11 1_555 1_555
C30 N12 1_555 1_555
C35 C36 1_555 1_555
N2 N3 1_555 1_555
N5 N6 1_555 1_555
N8 N9 1_555 1_555
N11 N12 1_555 1_555
W15 O45 1_555 1_555
W15 O71 1_555 1_555
W16 O69 1_555 1_555
W18 O50 1_555 1_555
W18 O58 1_555 1_555
W19 O47 1_555 1_555
W19 O56 1_555 1_555
W19 O77 1_555 1_555
W22 O54 1_555 1_555
W22 O64 1_555 1_555
W22 O76 1_555 1_555
W23 O48 1_555 1_555
W23 O61 1_555 1_555
W23 O73 1_555 1_555
W23 O75 1_555 1_555
C82 N28 1_555 1_555
C83 N28 1_555 1_555
C84 N30 1_555 1_555
N29 N30 1_555 1_555
H90 C90 1_555 1_555
H45 C45 1_555 1_555
Si1 O1 1_555 1_555
W2 O4 1_555 1_555
W3 O4 1_555 1_555
W4 O1 1_555 1_555
W5 O3 1_555 1_555
W6 O2 1_555 1_555
W7 O4 1_555 1_555
W10 O3 1_555 1_555
W11 O3 1_555 1_555
O2 Si1 1_555 1_555
O3 Si1 1_555 1_555
O4 Si1 1_555 1_555
O5 W2 1_555 1_555
O7 W3 1_555 1_555
O8 W10 1_555 1_555
O10 W6 1_555 1_555
O14 W5 1_555 1_555
O15 W3 1_555 1_555
O16 W2 1_555 1_555
O18 W6 1_555 1_555
O19 W5 1_555 1_555
O21 W5 1_555 1_555
O24 W4 1_555 1_555
O25 W6 1_555 1_555
O26 W4 1_555 1_555
O29 W2 1_555 1_555
O30 W10 1_555 1_555
O32 W7 1_555 1_555
O33 W6 1_555 1_555
O35 W7 1_555 1_555
O36 W2 1_555 1_555
O37 W6 1_555 1_555
O38 W11 1_555 1_555
O39 W5 1_555 1_555
O40 W2 1_555 1_555
Ag1 O19 1_555 1_555
Ag4_2 O18 1_555 1_555
C37 H37 1_555 1_555
C38 H38 1_555 1_555
N13 Ag1 1_555 1_555
N14 C37 1_555 1_555
N15 C38 1_555 1_555
K1 N14 1_555 1_555
O51 W20 1_555 1_555
O53 W13 1_555 1_555
O57 W20 1_555 1_555
O60 W13 1_555 1_555
O84 W21 1_555 1_555
O67 W13 1_555 1_555
O68 W24 1_555 1_555
O74 W20 1_555 1_555
Ag7 O10 1_555 1_555
Ag11 N16 1_555 1_555
C46 H46 1_555 1_555
C47 H47 1_555 1_555
C48 H48 1_555 1_555
C49 C48 1_555 1_555
C50 C49 1_555 1_555
H50 C50 1_555 1_555
C51 C50 1_555 1_555
H51 C51 1_555 1_555
C52 C51 1_555 1_555
H52 C52 1_555 1_555
C53 C52 1_555 1_555
H53 C53 1_555 1_555
C54 C49 1_555 1_555
H54 C54 1_555 1_555
C55 H55 1_555 1_555
C56 H56 1_555 1_555
C57 H57 1_555 1_555
H58 C57 1_555 1_555
C58 C57 1_555 1_555
H61 C61 1_555 1_555
C62 C61 1_555 1_555
H62 C62 1_555 1_555
C63 C58 1_555 1_555
H63 C63 1_555 1_555
C64 H64 1_555 1_555
C65 H65 1_555 1_555
C66 H66 1_555 1_555
H67 C66 1_555 1_555
C67 C66 1_555 1_555
C68 C67 1_555 1_555
H68 C68 1_555 1_555
C69 C68 1_555 1_555
H69 C69 1_555 1_555
C70 C69 1_555 1_555
H70 C70 1_555 1_555
C71 C70 1_555 1_555
H71 C71 1_555 1_555
C72 C67 1_555 1_555
H72 C72 1_555 1_555
C73 H73 1_555 1_555
C74 H74 1_555 1_555
C75 H75 1_555 1_555
H76 C75 1_555 1_555
C76 C75 1_555 1_555
C77 C76 1_555 1_555
H77 C77 1_555 1_555
C78 C77 1_555 1_555
H78 C78 1_555 1_555
C79 C78 1_555 1_555
H79 C79 1_555 1_555
C80 C79 1_555 1_555
H80 C80 1_555 1_555
C81 C76 1_555 1_555
H81 C81 1_555 1_555
N16 C46 1_555 1_555
N17 C46 1_555 1_555
N18 C47 1_555 1_555
N19 Ag4_2 1_555 1_555
N20 Ag11 1_555 1_555
N21 C56 1_555 1_555
N31 C64 1_555 1_555
N23 C65 1_555 1_555
N24 Ag7 1_555 1_555
N26 Ag7 1_555 1_555
N27 C73 1_555 1_555
W3 O5 1_555 1_555
W3 O31 1_555 1_555
W4 O29 1_555 1_555
W7 O7 1_555 1_555
W7 O16 1_555 1_555
W7 O37 1_555 1_555
W10 O14 1_555 1_555
W10 O24 1_555 1_555
W10 O36 1_555 1_555
W11 O8 1_555 1_555
W11 O21 1_555 1_555
W11 O33 1_555 1_555
W11 O35 1_555 1_555
C37 N13 1_555 1_555
C38 N13 1_555 1_555
C39 N15 1_555 1_555
N14 N15 1_555 1_555
W21 O52 1_555 1_555
W21 O57 1_555 1_555
W21 O60 1_555 1_555
W21 O62 1_555 1_555
W24 O51 1_555 1_555
W24 O67 1_555 1_555
O74 Ag7 1_555 1_555
C47 N16 1_555 1_555
C48 N18 1_555 1_555
C53 C54 1_555 1_555
C55 N19 1_555 1_555
C55 N20 1_555 1_555
C56 N19 1_555 1_555
C57 N21 1_555 1_555
C62 C63 1_555 1_555
C64 N24 1_555 1_555
C65 N31 1_555 1_555
C66 N23 1_555 1_555
C71 C72 1_555 1_555
C73 N25 1_555 1_555
C74 N25 1_555 1_555
C74 N26 1_555 1_555
C75 N27 1_555 1_555
C80 C81 1_555 1_555
N17 N18 1_555 1_555
N20 N21 1_555 1_555
N23 N24 1_555 1_555
N26 N27 1_555 1_555
C41 C40 1_555 1_555
H41 C41 1_555 1_555
C42 C41 1_555 1_555
H42 C42 1_555 1_555
C43 C42 1_555 1_555
H43 C43 1_555 1_555
C44 C43 1_555 1_555
H59 C59 1_555 1_555
C60 C59 1_555 1_555
H60 C60 1_555 1_555

#END
