
###############################################################################
#
# This file contains modified crystal structure data generated from the
# MOF subset of the Cambridge Structural Database (CSD) v543 
# hosted by the Cambridge Crystallographic Data Centre (CCDC).
#
# This work is licensed under the Creative Commons
# Attribution-NonCommercial-ShareAlike 4.0 International License.
# To view a copy of this license, visit
# http://creativecommons.org/licenses/by-nc-sa/4.0/
# or send a letter to
# Creative Commons, PO Box 1866, Mountain View, CA 94042, USA.
#
# CIF created using the CSD Python API on 29 September 2022
# The structure has been converted into the P1 space group
# The structure has a 3D framework
# The original CSD entry YUGZEG is in the tetragonal crystal system
# The framework has been calculated to contain at least 10.0% void space
# The void calculation uses a probe of radius 1.32A, grid spacing 0.4
#
###############################################################################

data_YUGZEG
_chemical_formula_moiety         '(C16 H8 Cu7 N8 S8)n'
_symmetry_cell_setting           triclinic
_symmetry_space_group_name_H-M   'P 1'
_symmetry_Int_Tables_number      1
_space_group_name_Hall           'P 1'
loop_
_symmetry_equiv_pos_site_id
_symmetry_equiv_pos_as_xyz
1 x,y,z
_cell_length_a                   6.8222(4)
_cell_length_b                   6.8222(4)
_cell_length_c                   16.5615(16)
_cell_angle_alpha                90
_cell_angle_beta                 90
_cell_angle_gamma                90
_cell_volume                     770.812
loop_
_atom_site_label
_atom_site_type_symbol
_atom_site_fract_x
_atom_site_fract_y
_atom_site_fract_z
Cu1 Cu 0.5000 0.0000 0.0000
Cu4 Cu 0.5000 0.5000 0.2500
S3 S 0.5000 0.2360(2) 0.09609(10)
C4 C 0.5000 0.1046(8) 0.1853(4)
N3 N 0.5000 0.2034(8) 0.2549(3)
C7 C 0.5000 0.1008(9) 0.3252(4)
H3 H 0.5000 0.1694 0.3751
Cu1_2 Cu 0.5000 0.0000 1.0000
Cu3 Cu 0.5000 0.5000 0.7500
S2 S 0.5000 0.2360(2) 0.90391(10)
C3 C 0.5000 0.1046(8) 0.8147(4)
N2 N 0.5000 0.2034(8) 0.7451(3)
C6 C 0.5000 0.1008(9) 0.6748(4)
H2 H 0.5000 0.1694 0.6249
Cu1_3 Cu 0.5000 1.0000 0.0000
S4 S 0.5000 0.7640(2) 0.09609(10)
C5 C 0.5000 0.8954(8) 0.1853(4)
N4 N 0.5000 0.7966(8) 0.2549(3)
C8 C 0.5000 0.8992(9) 0.3252(4)
H4 H 0.5000 0.8306 0.3751
Cu1_4 Cu 0.5000 1.0000 1.0000
S1 S 0.5000 0.7640(2) 0.90391(10)
C1 C 0.5000 0.8954(8) 0.8147(4)
N1 N 0.5000 0.7966(8) 0.7451(3)
C2 C 0.5000 0.8992(9) 0.6748(4)
H1 H 0.5000 0.8306 0.6249
N6 N 0.2034(8) 0.5000 0.7549(3)
N7 N 0.7966(8) 0.5000 0.7549(3)
N6_2 N 0.2034(8) 0.5000 0.2451(3)
N7_2 N 0.7966(8) 0.5000 0.2451(3)
Cu1_5 Cu 0.0000 0.5000 0.5000
S1_2 S 0.2360(2) 0.5000 0.59609(10)
C1_2 C 0.1046(8) 0.5000 0.6853(4)
C2_2 C 0.1008(9) 0.5000 0.8252(4)
H1_2 H 0.1694 0.5000 0.8751
S4_2 S 0.2360(2) 0.5000 0.40391(10)
C5_2 C 0.1046(8) 0.5000 0.3147(4)
C8_2 C 0.1008(9) 0.5000 0.1748(4)
H4_2 H 0.1694 0.5000 0.1249
Cu1_6 Cu 1.0000 0.5000 0.5000
S2_2 S 0.7640(2) 0.5000 0.59609(10)
S3_2 S 0.7640(2) 0.5000 0.40391(10)
C3_2 C 0.8954(8) 0.5000 0.6853(4)
C4_2 C 0.8954(8) 0.5000 0.3147(4)
C6_2 C 0.8992(9) 0.5000 0.8252(4)
C7_2 C 0.8992(9) 0.5000 0.1748(4)
H2_2 H 0.8306 0.5000 0.8751
H3_2 H 0.8306 0.5000 0.1249
loop_
_geom_bond_atom_site_label_1
_geom_bond_atom_site_label_2
_geom_bond_site_symmetry_1
_geom_bond_site_symmetry_2
Cu4 N3 1_555 1_555
S3 Cu1 1_555 1_555
C4 S3 1_555 1_555
N3 C4 1_555 1_555
C7 N3 1_555 1_555
H3 C7 1_555 1_555
Cu3 N2 1_555 1_555
S2 Cu1_2 1_555 1_555
N2 C3 1_555 1_555
H2 C6 1_555 1_555
S2 C3 1_555 1_555
N2 C6 1_555 1_555
Cu4 N4 1_555 1_555
S4 Cu1_3 1_555 1_555
C5 S4 1_555 1_555
N4 C5 1_555 1_555
C8 N4 1_555 1_555
H4 C8 1_555 1_555
Cu1_4 S1 1_555 1_555
Cu3 N1 1_555 1_555
S1 C1 1_555 1_555
C1 N1 1_555 1_555
N1 C2 1_555 1_555
C2 H1 1_555 1_555
N6 Cu3 1_555 1_555
N7 Cu3 1_555 1_555
N6_2 Cu4 1_555 1_555
N7_2 Cu4 1_555 1_555
Cu1_5 S1_2 1_555 1_555
S1_2 C1_2 1_555 1_555
C1_2 N6 1_555 1_555
N6 C2_2 1_555 1_555
C2_2 H1_2 1_555 1_555
S4_2 Cu1_5 1_555 1_555
C5_2 S4_2 1_555 1_555
N6_2 C5_2 1_555 1_555
C8_2 N6_2 1_555 1_555
H4_2 C8_2 1_555 1_555
S2_2 Cu1_6 1_555 1_555
S3_2 Cu1_6 1_555 1_555
C4_2 S3_2 1_555 1_555
N7 C3_2 1_555 1_555
N7_2 C4_2 1_555 1_555
C7_2 N7_2 1_555 1_555
H2_2 C6_2 1_555 1_555
H3_2 C7_2 1_555 1_555
S2_2 C3_2 1_555 1_555
N7 C6_2 1_555 1_555

#END
