
###############################################################################
#
# This file contains modified crystal structure data generated from the
# MOF subset of the Cambridge Structural Database (CSD) v543 
# hosted by the Cambridge Crystallographic Data Centre (CCDC).
#
# This work is licensed under the Creative Commons
# Attribution-NonCommercial-ShareAlike 4.0 International License.
# To view a copy of this license, visit
# http://creativecommons.org/licenses/by-nc-sa/4.0/
# or send a letter to
# Creative Commons, PO Box 1866, Mountain View, CA 94042, USA.
#
# CIF created using the CSD Python API on 29 September 2022
# The structure has been converted into the P1 space group
# The structure has a 3D framework
# The original CSD entry YUJCOX is in the monoclinic crystal system
# The framework has been calculated to contain at least 10.0% void space
# The void calculation uses a probe of radius 1.32A, grid spacing 0.4
# H atom positions have been added when not included in the experimental data
# Generated hydrogen atom positions removed from atoms on special positions
#
###############################################################################

data_YUJCOX
_chemical_formula_moiety         '(C40 H32 O42 Zn12)n'
_symmetry_cell_setting           triclinic
_symmetry_space_group_name_H-M   'P 1'
_symmetry_Int_Tables_number      1
_space_group_name_Hall           'P 1'
loop_
_symmetry_equiv_pos_site_id
_symmetry_equiv_pos_as_xyz
1 x,y,z
_cell_length_a                   7.4374(2)
_cell_length_b                   16.4283(3)
_cell_length_c                   14.5530(3)
_cell_angle_alpha                90
_cell_angle_beta                 94.837(2)
_cell_angle_gamma                90
_cell_volume                     1771.81
loop_
_atom_site_label
_atom_site_type_symbol
_atom_site_fract_x
_atom_site_fract_y
_atom_site_fract_z
Zn12 Zn 0.0000 0.5000 -0.0000
Zn1 Zn 0.19218(5) 0.12791(2) 0.47974(2)
Zn2 Zn 0.5000 0.0000 0.5000
Zn3 Zn 0.22244(5) 0.01827(2) 0.68121(3)
O1 O 0.2469(3) 0.01747(13) 0.54636(15)
O4 O 0.0186(3) 0.10547(15) 0.68426(16)
O7 O 0.0758(4) 0.42963(17) 0.78339(18)
O9 O 0.3782(4) 0.09278(18) 0.7667(2)
H2 H 0.0475 0.2749 0.7285
O11 O 0.1573(5) 0.2597(2) 0.4288(2)
Zn12_2 Zn 0.0000 0.5000 1.0000
Zn14 Zn 0.27756(5) 0.51827(2) 0.81879(3)
O24 O 0.6039(3) 0.09523(14) 0.58210(16)
O28 O 0.0250(3) 0.08678(15) 0.37323(15)
O31 O 0.4020(3) 0.08515(14) 0.39811(15)
O34 O 0.3787(3) 0.18520(15) 0.5633(2)
Zn2_2 Zn 0.5000 1.0000 0.5000
O13 O 0.3961(3) 0.90477(14) 0.41790(16)
O14 O 0.5744(3) 0.55041(14) 0.26602(15)
O16 O 0.4750(3) 0.58678(15) 0.12677(15)
O17 O 0.0980(3) 0.58515(14) 0.10189(15)
O19 O 0.6213(3) 0.81480(15) 0.4367(2)
C11 C 0.1677(4) 0.65980(18) 0.2389(2)
O21 O 0.0306(3) 0.84176(17) 0.45650(17)
C12 C 0.0542(4) 0.59978(19) 0.1814(2)
C13 C 0.0538(4) 0.84603(19) 0.3725(2)
C14 C 0.3568(4) 0.65499(18) 0.2545(2)
C15 C 0.1690(4) 0.78078(18) 0.3338(2)
C16 C 0.4653(4) 0.83664(19) 0.4065(2)
C17 C 0.4460(4) 0.71144(19) 0.3120(2)
H3 H 0.5701 0.7067 0.3249
C18 C 0.0777(4) 0.72249(19) 0.2803(2)
C19 C 0.3561(4) 0.77519(18) 0.3511(2)
C20 C 0.4723(4) 0.59281(18) 0.2129(2)
Zn7 Zn 0.30782(5) 0.62791(2) 0.02026(2)
Zn8 Zn 0.80782(5) 0.87209(2) 0.52026(2)
Zn16 Zn 0.72244(5) 0.48173(2) 0.18121(3)
O23 O 0.7531(3) 0.98253(13) 0.45364(15)
O25 O 0.0744(3) 0.94959(14) 0.76602(15)
O30 O 0.5980(3) 0.91485(14) 0.60189(15)
O32 O 0.4242(4) 0.92963(17) 0.71661(18)
Zn12_3 Zn 1.0000 0.5000 -0.0000
O3 O 0.4256(3) 0.44959(14) 0.73398(15)
O5 O 0.5250(3) 0.41322(15) 0.87323(15)
O6 O 0.9020(3) 0.41485(14) 0.89811(15)
C1 C 0.8323(4) 0.34020(18) 0.7611(2)
O10 O 0.9694(3) 0.15824(17) 0.54350(17)
C2 C 0.9458(4) 0.40022(19) 0.8186(2)
C3 C 0.9462(4) 0.15397(19) 0.6275(2)
C4 C 0.6432(4) 0.34501(18) 0.7455(2)
C5 C 0.8310(4) 0.21922(18) 0.6662(2)
C6 C 0.5347(4) 0.16336(19) 0.5935(2)
C7 C 0.5540(4) 0.28856(19) 0.6880(2)
H1 H 0.4299 0.2933 0.6751
C8 C 0.9223(4) 0.27751(19) 0.7197(2)
C9 C 0.6439(4) 0.22481(18) 0.6489(2)
C10 C 0.5277(4) 0.40719(18) 0.7871(2)
Zn9 Zn 0.69218(5) 0.37209(2) 0.97974(2)
Zn12_4 Zn 1.0000 0.5000 1.0000
O26 O 0.9256(3) 0.05041(14) 0.23398(15)
O33 O 0.5758(4) 0.07037(17) 0.28339(18)
Zn5 Zn 0.77756(5) 0.98173(2) 0.31879(3)
O15 O 0.9814(3) 0.89453(15) 0.31574(16)
O18 O 0.9242(4) 0.57037(17) 0.21661(18)
O20 O 0.6218(4) 0.90722(18) 0.2333(2)
H4 H 0.9525 0.7251 0.2715
O22 O 0.8427(5) 0.7403(2) 0.5712(2)
O27 O 0.9750(3) 0.91322(15) 0.62677(15)
H9 H 0.00746859 0.420504 0.262392
O8 O 0.1213(3) 0.68520(15) 0.9367(2)
H1_2 H 0.0701 0.7933 0.8249
O11_2 O 0.3427(5) 0.7597(2) 0.0712(2)
O12 O 0.7469(3) 0.48253(13) 0.04636(15)
O13_2 O 0.1039(3) 0.40477(14) 0.08210(16)
O15_2 O 0.5186(3) 0.39453(15) 0.18426(16)
O20_2 O 0.8782(4) 0.40722(18) 0.2667(2)
C11_2 C 0.3323(4) 0.15980(18) 0.2611(2)
O21_2 O 0.4694(3) 0.34176(17) 0.04350(17)
C12_2 C 0.4458(4) 0.09978(19) 0.3186(2)
C13_2 C 0.4462(4) 0.34603(19) 0.1275(2)
C14_2 C 0.1432(4) 0.15499(18) 0.2455(2)
C15_2 C 0.3310(4) 0.28078(18) 0.1662(2)
C16_2 C 0.0347(4) 0.33664(19) 0.0935(2)
C17_2 C 0.0540(4) 0.21144(19) 0.1880(2)
C18_2 C 0.4223(4) 0.22249(19) 0.2197(2)
H4_2 H 0.5475 0.2251 0.2285
C19_2 C 0.1439(4) 0.27519(18) 0.1489(2)
C20_2 C 0.0277(4) 0.09281(18) 0.2871(2)
O35 O 0.8787(3) 0.31480(15) 0.0633(2)
H10 H 0.84729 0.415142 0.331156
O1_2 O 0.2531(3) 0.51747(13) 0.95364(15)
O2 O 0.8961(3) 0.59523(14) 0.91790(16)
O4_2 O 0.4814(3) 0.60547(15) 0.81574(16)
O9_2 O 0.1218(4) 0.59278(18) 0.7333(2)
C1_2 C 0.6677(4) 0.84020(18) 0.7389(2)
O10_2 O 0.5306(3) 0.65824(17) 0.95650(17)
C2_2 C 0.5542(4) 0.90022(19) 0.6814(2)
C3_2 C 0.5538(4) 0.65397(19) 0.8725(2)
C4_2 C 0.8568(4) 0.84501(18) 0.7545(2)
C5_2 C 0.6690(4) 0.71922(18) 0.8338(2)
C6_2 C 0.9653(4) 0.66336(19) 0.9065(2)
C7_2 C 0.9460(4) 0.78856(19) 0.8120(2)
C8_2 C 0.5777(4) 0.77751(19) 0.7803(2)
H2_2 H 0.4525 0.7749 0.7715
C9_2 C 0.8561(4) 0.72481(18) 0.8511(2)
C10_2 C 0.9723(4) 0.90719(18) 0.7129(2)
O22_2 O 0.6573(5) 0.2403(2) 0.9288(2)
H5 H 0.14419 0.650326 0.751753
H6 H 0.15271 0.584858 0.668844
H3_2 H 0.9299 0.2067 0.1751
H5_2 H 0.85581 0.349674 0.248247
H9_2 H 0.992531 0.579496 0.737608
loop_
_geom_bond_atom_site_label_1
_geom_bond_atom_site_label_2
_geom_bond_site_symmetry_1
_geom_bond_site_symmetry_2
Zn1 O1 1_555 1_555
Zn2 O1 1_555 1_555
Zn3 O1 1_555 1_555
O4 Zn3 1_555 1_555
O9 Zn3 1_555 1_555
O11 Zn1 1_555 1_555
Zn14 O7 1_555 1_555
O24 Zn2 1_555 1_555
O28 Zn1 1_555 1_555
O31 Zn1 1_555 1_555
O34 Zn1 1_555 1_555
Zn2 O31 1_555 1_555
O13 Zn2_2 1_555 1_555
O14 C20 1_555 1_555
O16 C20 1_555 1_555
O17 C12 1_555 1_555
O19 C16 1_555 1_555
C11 C12 1_555 1_555
C14 C11 1_555 1_555
C15 C13 1_555 1_555
C16 O13 1_555 1_555
C17 C14 1_555 1_555
H3 C17 1_555 1_555
C18 C11 1_555 1_555
C19 C15 1_555 1_555
C20 C14 1_555 1_555
Zn7 O16 1_555 1_555
Zn8 O19 1_555 1_555
Zn12 O17 1_555 1_555
Zn16 O14 1_555 1_555
O23 Zn2_2 1_555 1_555
O30 Zn2_2 1_555 1_555
O17 Zn7 1_555 1_555
O21 C13 1_555 1_555
C15 C18 1_555 1_555
C16 C19 1_555 1_555
C17 C19 1_555 1_555
Zn8 O23 1_555 1_555
Zn8 O30 1_555 1_555
O24 C6 1_555 1_555
O3 C10 1_555 1_555
O5 C10 1_555 1_555
O6 C2 1_555 1_555
O34 C6 1_555 1_555
C1 C2 1_555 1_555
C4 C1 1_555 1_555
C5 C3 1_555 1_555
C6 C9 1_555 1_555
C7 C4 1_555 1_555
H1 C7 1_555 1_555
C8 C1 1_555 1_555
C9 C5 1_555 1_555
C10 C4 1_555 1_555
Zn9 O5 1_555 1_555
Zn12_4 O6 1_555 1_555
Zn14 O3 1_555 1_555
O6 Zn9 1_555 1_555
O10 C3 1_555 1_555
C5 C8 1_555 1_555
C7 C9 1_555 1_555
Zn5 O23 1_555 1_555
O15 Zn5 1_555 1_555
O20 Zn5 1_555 1_555
O22 Zn8 1_555 1_555
Zn16 O18 1_555 1_555
O27 Zn8 1_555 1_555
O11_2 Zn7 1_555 1_555
Zn16 O12 1_555 1_555
O12 Zn12_3 1_555 1_555
O13_2 Zn12 1_555 1_555
O15_2 Zn16 1_555 1_555
O28 C20_2 1_555 1_555
O31 C12_2 1_555 1_555
O33 C12_2 1_555 1_555
O20_2 Zn16 1_555 1_555
C11_2 C12_2 1_555 1_555
C13_2 O15_2 1_555 1_555
C14_2 C11_2 1_555 1_555
C15_2 C13_2 1_555 1_555
C16_2 O13_2 1_555 1_555
C17_2 C14_2 1_555 1_555
C18_2 C11_2 1_555 1_555
H4_2 C18_2 1_555 1_555
C19_2 C15_2 1_555 1_555
C20_2 C14_2 1_555 1_555
O21_2 C13_2 1_555 1_555
C15_2 C18_2 1_555 1_555
C16_2 C19_2 1_555 1_555
C17_2 C19_2 1_555 1_555
O20_2 H10 1_555 1_555
Zn12_2 O1_2 1_555 1_555
Zn14 O1_2 1_555 1_555
O2 C6_2 1_555 1_555
O4_2 Zn14 1_555 1_555
O27 C10_2 1_555 1_555
O30 C2_2 1_555 1_555
O32 C2_2 1_555 1_555
O9_2 Zn14 1_555 1_555
C1_2 C2_2 1_555 1_555
C3_2 O4_2 1_555 1_555
C4_2 C1_2 1_555 1_555
C5_2 C3_2 1_555 1_555
C6_2 C9_2 1_555 1_555
C7_2 C4_2 1_555 1_555
C8_2 C1_2 1_555 1_555
H2_2 C8_2 1_555 1_555
C9_2 C5_2 1_555 1_555
C10_2 C4_2 1_555 1_555
O22_2 Zn9 1_555 1_555
Zn12_4 O2 1_555 1_555
O10_2 C3_2 1_555 1_555
C5_2 C8_2 1_555 1_555
C7_2 C9_2 1_555 1_555
O9_2 H5 1_555 1_555
O9_2 H6 1_555 1_555
O20_2 H5_2 1_555 1_555

#END
