
###############################################################################
#
# This file contains modified crystal structure data generated from the
# MOF subset of the Cambridge Structural Database (CSD) v543 
# hosted by the Cambridge Crystallographic Data Centre (CCDC).
#
# This work is licensed under the Creative Commons
# Attribution-NonCommercial-ShareAlike 4.0 International License.
# To view a copy of this license, visit
# http://creativecommons.org/licenses/by-nc-sa/4.0/
# or send a letter to
# Creative Commons, PO Box 1866, Mountain View, CA 94042, USA.
#
# CIF created using the CSD Python API on 29 September 2022
# The structure has been converted into the P1 space group
# The structure has a 3D framework
# The original CSD entry YUJKAS is in the monoclinic crystal system
# The framework has been calculated to contain at least 10.0% void space
# The void calculation uses a probe of radius 1.32A, grid spacing 0.4
#
###############################################################################

data_YUJKAS
_chemical_formula_moiety         '(C132 H100 Mn8 N4 O38)n'
_symmetry_cell_setting           triclinic
_symmetry_space_group_name_H-M   'P 1'
_symmetry_Int_Tables_number      1
_space_group_name_Hall           'P 1'
loop_
_symmetry_equiv_pos_site_id
_symmetry_equiv_pos_as_xyz
1 x,y,z
_cell_length_a                   11.62120(10)
_cell_length_b                   13.0997(2)
_cell_length_c                   25.0298(3)
_cell_angle_alpha                90
_cell_angle_beta                 97.1560(10)
_cell_angle_gamma                90
_cell_volume                     3780.71
loop_
_atom_site_label
_atom_site_type_symbol
_atom_site_fract_x
_atom_site_fract_y
_atom_site_fract_z
O13 O 0.03636(16) 0.74461(16) 0.16388(8)
O16 O 0.05557(17) 0.63837(16) 0.27334(8)
O9 O 0.74987(17) 0.05040(14) 0.67903(8)
H16 H 0.5728 0.0052 0.6116
Mn3 Mn 0.88095(3) 0.03803(3) 0.75538(2)
Mn1 Mn 0.11905(3) 0.53803(3) 0.74462(2)
Mn2 Mn 0.92799(3) 0.72512(3) 0.22636(2)
O1 O 0.86942(15) 0.91984(14) 0.68808(7)
O2 O 0.18035(16) 0.67018(14) 0.71165(7)
O3 O 0.03636(16) 0.75539(16) 0.66388(8)
O5 O 0.81725(16) 0.83320(15) 0.18058(8)
H1 H 0.8525 0.8919 0.1781
H2 H 0.7581 0.8494 0.1975
O6 O 0.76744(17) 0.55036(15) 0.29706(8)
O8 O 0.02669(16) 0.49375(15) 0.31585(8)
O10 O 0.81130(18) 0.71465(15) 0.28554(8)
C1 C 0.1697(2) 0.6096(2) 0.35638(10)
C2 C 0.5128(2) 0.7534(2) 0.48681(10)
C3 C 0.6935(2) 0.6731(2) 0.35283(10)
C4 C 0.7153(2) 0.9152(2) 0.61506(10)
C5 C 0.2097(2) 0.72812(19) 0.62489(10)
C6 C 0.3409(2) 0.7325(2) 0.53806(10)
C7 C 0.1368(2) 0.71777(19) 0.67023(11)
C8 C 0.7627(2) 0.6434(2) 0.30807(10)
C9 C 0.7623(2) 0.8326(2) 0.59001(10)
H3 H 0.8374 0.8110 0.6018
C10 C 0.5831(2) 0.8117(2) 0.53058(10)
C11 C 0.3275(2) 0.6808(2) 0.44167(10)
C12 C 0.5736(2) 0.7259(2) 0.43941(10)
C13 C 0.2259(2) 0.7029(2) 0.35240(11)
H4 H 0.2109 0.7416 0.3212
C14 C 0.1636(2) 0.7707(2) 0.57591(11)
H5 H 0.0894 0.7986 0.5720
C15 C 0.1957(2) 0.5508(2) 0.40286(11)
H6 H 0.1606 0.4875 0.4055
C16 C 0.3221(2) 0.6894(2) 0.63040(10)
H7 H 0.3539 0.6615 0.6631
C17 C 0.3872(2) 0.6920(2) 0.58765(11)
H8 H 0.4625 0.6666 0.5921
C18 C 0.0779(2) 0.5785(2) 0.31203(10)
C19 C 0.2736(2) 0.5866(2) 0.44504(11)
H9 H 0.2901 0.5472 0.4760
C20 C 0.3039(2) 0.7382(2) 0.39473(10)
H10 H 0.3407 0.8006 0.3918
C21 C 0.2277(2) 0.7717(2) 0.53313(11)
H11 H 0.1953 0.7989 0.5004
C22 C 0.5379(2) 0.8967(2) 0.55487(11)
H12 H 0.4630 0.9187 0.5430
C23 C 0.6895(2) 0.7739(2) 0.36975(11)
H13 H 0.7264 0.8244 0.3520
C24 C 0.6311(2) 0.7999(2) 0.41271(11)
H14 H 0.6302 0.8675 0.4239
C25 C 0.4020(2) 0.7245(2) 0.48919(10)
C26 C 0.7813(2) 0.9656(2) 0.66300(10)
C27 C 0.6361(2) 0.5989(2) 0.37905(11)
H15 H 0.6374 0.5312 0.3678
C28 C 0.6034(2) 0.9483(2) 0.59624(11)
C29 C 0.6975(2) 0.7828(2) 0.54767(11)
H17 H 0.7306 0.7294 0.5304
C30 C 0.5767(2) 0.6249(2) 0.42186(11)
H18 H 0.5386 0.5745 0.4391
H19 H 0.0270 0.6969 0.8500
Mn5 Mn 0.88095(3) 0.46197(3) 0.25538(2)
Mn8 Mn 0.92799(3) 0.77488(3) 0.72636(2)
O11 O 0.13058(15) 0.41984(14) 0.81192(7)
O12 O 0.86942(15) 0.58016(14) 0.18808(7)
O14 O 0.99056(16) 0.86546(14) 0.28253(7)
O15 O 0.23256(17) 0.44964(15) 0.70294(8)
O18 O 0.25013(17) 0.55040(14) 0.82097(8)
O4 O 0.99056(16) 0.63454(14) 0.78253(7)
N1 N 0.9355(2) 0.5768(2) 0.86065(11)
C31 C 0.9887(2) 0.6420(2) 0.83217(12)
C32 C 0.9478(4) 0.5842(5) 0.91923(16)
H20 H 0.9932 0.5278 0.9347
H21 H 0.8725 0.5824 0.9312
H22 H 0.9858 0.6471 0.9304
C33 C 0.8665(4) 0.4944(3) 0.8344(2)
H23 H 0.8430 0.5119 0.7974
H24 H 0.7991 0.4838 0.8523
H25 H 0.9119 0.4329 0.8362
O17 O 0.97331(16) 0.50625(15) 0.68415(8)
Mn6 Mn 0.07201(3) 0.22512(3) 0.27364(2)
O4_2 O 0.00944(16) 0.13454(14) 0.71747(7)
N1_2 N 0.0645(2) 0.0768(2) 0.63935(11)
C31_2 C 0.0113(2) 0.1420(2) 0.66783(12)
C32_2 C 0.0522(4) 0.0842(5) 0.58077(16)
H20_2 H 0.0068 0.0278 0.5653
H21_2 H 0.1275 0.0824 0.5688
H22_2 H 0.0142 0.1471 0.5696
H23_2 H 0.1570 0.0119 0.7026
Mn7 Mn 0.07201(3) 0.27488(3) 0.77364(2)
O17_2 O 0.02669(16) 0.00625(15) 0.81585(8)
Mn4 Mn 0.11905(3) 0.96197(3) 0.24462(2)
O5_2 O 0.18275(16) 0.33320(15) 0.31942(8)
H1_2 H 0.1475 0.3919 0.3219
H2_2 H 0.2419 0.3494 0.3025
O6_2 O 0.23256(17) 0.05036(15) 0.20294(8)
O7 O 0.94443(17) 0.13837(16) 0.22666(8)
O10_2 O 0.18870(18) 0.21465(15) 0.21446(8)
C1_2 C 0.8303(2) 0.1096(2) 0.14362(10)
C2_2 C 0.4872(2) 0.2534(2) 0.01319(10)
C3_2 C 0.3065(2) 0.1731(2) 0.14717(10)
C8_2 C 0.2373(2) 0.1434(2) 0.19193(10)
C11_2 C 0.6725(2) 0.1808(2) 0.05833(10)
C12_2 C 0.4264(2) 0.2259(2) 0.06059(10)
C13_2 C 0.7741(2) 0.2029(2) 0.14760(11)
H4_2 H 0.7891 0.2416 0.1788
C15_2 C 0.8043(2) 0.0508(2) 0.09714(11)
C18_2 C 0.9221(2) 0.0785(2) 0.18797(10)
C19_2 C 0.7264(2) 0.0866(2) 0.05496(11)
H9_2 H 0.7099 0.0472 0.0240
C20_2 C 0.6961(2) 0.2382(2) 0.10527(10)
H10_2 H 0.6593 0.3006 0.1082
C23_2 C 0.3105(2) 0.2739(2) 0.13025(11)
H13_2 H 0.2736 0.3244 0.1480
C24_2 C 0.3689(2) 0.2999(2) 0.08729(11)
H14_2 H 0.3698 0.3675 0.0761
C25_2 C 0.5980(2) 0.2245(2) 0.01081(10)
C27_2 C 0.3639(2) 0.0989(2) 0.12095(11)
H15_2 H 0.3626 0.0312 0.1322
C30_2 C 0.4233(2) 0.1249(2) 0.07814(11)
H18_2 H 0.4614 0.0745 0.0609
O12_2 O 0.13058(15) 0.08016(14) 0.31192(7)
O14_2 O 0.00944(16) 0.36546(14) 0.21747(7)
O2_2 O 0.81965(16) 0.17018(14) 0.78835(7)
O3_2 O 0.96364(16) 0.25539(16) 0.83612(8)
C4_2 C 0.2847(2) 0.4152(2) 0.88494(10)
C5_2 C 0.7903(2) 0.22812(19) 0.87511(10)
C6_2 C 0.6591(2) 0.2325(2) 0.96194(10)
C7_2 C 0.8632(2) 0.21777(19) 0.82977(11)
C9_2 C 0.2377(2) 0.3326(2) 0.90999(10)
H3_2 H 0.1626 0.3110 0.8982
C10_2 C 0.4169(2) 0.3117(2) 0.96942(10)
C14_2 C 0.8364(2) 0.2707(2) 0.92409(11)
H5_2 H 0.9106 0.2986 0.9280
C16_2 C 0.6779(2) 0.1894(2) 0.86960(10)
H7_2 H 0.6461 0.1615 0.8369
C17_2 C 0.6128(2) 0.1920(2) 0.91235(11)
H8_2 H 0.5375 0.1666 0.9079
C21_2 C 0.7723(2) 0.2717(2) 0.96687(11)
H11_2 H 0.8047 0.2989 0.9996
C22_2 C 0.4621(2) 0.3967(2) 0.94513(11)
H12_2 H 0.5370 0.4187 0.9570
C26_2 C 0.2187(2) 0.4656(2) 0.83700(10)
C28_2 C 0.3966(2) 0.4483(2) 0.90376(11)
H16_2 H 0.4272 0.5052 0.8884
C29_2 C 0.3025(2) 0.2828(2) 0.95233(11)
H17_2 H 0.2694 0.2294 0.9696
H19_2 H 0.9730 0.1969 0.6500
O8_2 O 0.97331(16) 0.99375(15) 0.18415(8)
H6_2 H 0.8394 0.9875 0.0945
O15_2 O 0.76744(17) 0.94964(15) 0.79706(8)
O13_2 O 0.96364(16) 0.24461(16) 0.33612(8)
N1_3 N 0.0645(2) 0.4232(2) 0.13935(11)
C31_3 C 0.0113(2) 0.3580(2) 0.16783(12)
C32_3 C 0.0522(4) 0.4158(5) 0.08077(16)
H20_3 H 0.0068 0.4722 0.0653
H21_3 H 0.1275 0.4176 0.0688
H22_3 H 0.0142 0.3529 0.0696
C33_2 C 0.1335(4) 0.5056(3) 0.1656(2)
H23_3 H 0.1570 0.4881 0.2026
H24_2 H 0.2009 0.5162 0.1477
H25_2 H 0.0881 0.5671 0.1638
O2_3 O 0.81965(16) 0.32982(14) 0.28835(7)
O5_3 O 0.18275(16) 0.16680(15) 0.81942(8)
H1_3 H 0.1475 0.1081 0.8219
H2_3 H 0.2419 0.1506 0.8025
O7_2 O 0.94443(17) 0.36163(16) 0.72666(8)
O10_3 O 0.18870(18) 0.28535(15) 0.71446(8)
C1_3 C 0.8303(2) 0.3904(2) 0.64362(10)
C2_3 C 0.4872(2) 0.2466(2) 0.51319(10)
C3_3 C 0.3065(2) 0.3269(2) 0.64717(10)
C4_3 C 0.2847(2) 0.0848(2) 0.38494(10)
C5_3 C 0.7903(2) 0.27188(19) 0.37511(10)
C6_3 C 0.6591(2) 0.2675(2) 0.46194(10)
C7_3 C 0.8632(2) 0.28223(19) 0.32977(11)
C8_3 C 0.2373(2) 0.3566(2) 0.69193(10)
C9_3 C 0.2377(2) 0.1674(2) 0.40999(10)
H3_3 H 0.1626 0.1890 0.3982
C10_3 C 0.4169(2) 0.1883(2) 0.46942(10)
C11_3 C 0.6725(2) 0.3192(2) 0.55833(10)
C12_3 C 0.4264(2) 0.2741(2) 0.56059(10)
C13_3 C 0.7741(2) 0.2971(2) 0.64760(11)
H4_3 H 0.7891 0.2584 0.6788
C14_3 C 0.8364(2) 0.2293(2) 0.42409(11)
H5_3 H 0.9106 0.2014 0.4280
C15_3 C 0.8043(2) 0.4492(2) 0.59714(11)
H6_3 H 0.8394 0.5125 0.5945
C16_3 C 0.6779(2) 0.3106(2) 0.36960(10)
H7_3 H 0.6461 0.3385 0.3369
C17_3 C 0.6128(2) 0.3080(2) 0.41235(11)
H8_3 H 0.5375 0.3334 0.4079
C18_3 C 0.9221(2) 0.4215(2) 0.68797(10)
C19_3 C 0.7264(2) 0.4134(2) 0.55496(11)
H9_3 H 0.7099 0.4528 0.5240
C20_3 C 0.6961(2) 0.2618(2) 0.60527(10)
H10_3 H 0.6593 0.1994 0.6082
C21_3 C 0.7723(2) 0.2283(2) 0.46687(11)
H11_3 H 0.8047 0.2011 0.4996
C22_3 C 0.4621(2) 0.1033(2) 0.44513(11)
H12_3 H 0.5370 0.0813 0.4570
C23_3 C 0.3105(2) 0.2261(2) 0.63025(11)
H13_3 H 0.2736 0.1756 0.6480
C24_3 C 0.3689(2) 0.2001(2) 0.58729(11)
H14_3 H 0.3698 0.1325 0.5761
C25_3 C 0.5980(2) 0.2755(2) 0.51081(10)
C26_3 C 0.2187(2) 0.0344(2) 0.33700(10)
C27_3 C 0.3639(2) 0.4011(2) 0.62095(11)
H15_3 H 0.3626 0.4688 0.6322
C28_3 C 0.3966(2) 0.0517(2) 0.40376(11)
C29_3 C 0.3025(2) 0.2172(2) 0.45233(11)
H17_3 H 0.2694 0.2706 0.4696
C30_3 C 0.4233(2) 0.3751(2) 0.57814(11)
H18_3 H 0.4614 0.4255 0.5609
H19_3 H 0.9730 0.3031 0.1500
O18_2 O 0.74987(17) 0.44960(14) 0.17903(8)
O9_2 O 0.25013(17) 0.94960(14) 0.32097(8)
H16_3 H 0.4272 0.9948 0.3884
O16_2 O 0.05557(17) 0.86163(16) 0.77334(8)
H6_4 H 0.1606 0.0125 0.9055
O2_4 O 0.18035(16) 0.82982(14) 0.21165(7)
C4_4 C 0.7153(2) 0.5848(2) 0.11506(10)
C5_4 C 0.2097(2) 0.77188(19) 0.12489(10)
C6_4 C 0.3409(2) 0.7675(2) 0.03806(10)
C7_4 C 0.1368(2) 0.78223(19) 0.17023(11)
C9_4 C 0.7623(2) 0.6674(2) 0.09001(10)
H3_4 H 0.8374 0.6890 0.1018
C10_4 C 0.5831(2) 0.6883(2) 0.03058(10)
C14_4 C 0.1636(2) 0.7293(2) 0.07591(11)
H5_4 H 0.0894 0.7014 0.0720
C16_4 C 0.3221(2) 0.8106(2) 0.13040(10)
H7_4 H 0.3539 0.8385 0.1631
C17_4 C 0.3872(2) 0.8080(2) 0.08765(11)
H8_4 H 0.4625 0.8334 0.0921
C21_4 C 0.2277(2) 0.7283(2) 0.03313(11)
H11_4 H 0.1953 0.7011 0.0004
C22_4 C 0.5379(2) 0.6033(2) 0.05487(11)
H12_4 H 0.4630 0.5813 0.0430
C26_4 C 0.7813(2) 0.5344(2) 0.16300(10)
C28_4 C 0.6034(2) 0.5517(2) 0.09624(11)
H16_4 H 0.5728 0.4948 0.1116
C29_4 C 0.6975(2) 0.7172(2) 0.04767(11)
H17_4 H 0.7306 0.7706 0.0304
H19_4 H 0.0270 0.8031 0.3500
O5_4 O 0.81725(16) 0.66680(15) 0.68058(8)
H1_4 H 0.8525 0.6081 0.6781
H2_4 H 0.7581 0.6506 0.6975
O10_4 O 0.81130(18) 0.78535(15) 0.78554(8)
C1_4 C 0.1697(2) 0.8904(2) 0.85638(10)
C2_4 C 0.5128(2) 0.7466(2) 0.98681(10)
C3_4 C 0.6935(2) 0.8269(2) 0.85283(10)
C8_4 C 0.7627(2) 0.8566(2) 0.80807(10)
C11_4 C 0.3275(2) 0.8192(2) 0.94167(10)
C12_4 C 0.5736(2) 0.7741(2) 0.93941(10)
C13_4 C 0.2259(2) 0.7971(2) 0.85240(11)
H4_4 H 0.2109 0.7584 0.8212
C15_4 C 0.1957(2) 0.9492(2) 0.90286(11)
C18_4 C 0.0779(2) 0.9215(2) 0.81203(10)
C19_4 C 0.2736(2) 0.9134(2) 0.94504(11)
H9_4 H 0.2901 0.9528 0.9760
C20_4 C 0.3039(2) 0.7618(2) 0.89473(10)
H10_4 H 0.3407 0.6994 0.8918
C23_4 C 0.6895(2) 0.7261(2) 0.86975(11)
H13_4 H 0.7264 0.6756 0.8520
C24_4 C 0.6311(2) 0.7001(2) 0.91271(11)
H14_4 H 0.6302 0.6325 0.9239
C25_4 C 0.4020(2) 0.7755(2) 0.98919(10)
C27_4 C 0.6361(2) 0.9011(2) 0.87905(11)
H15_4 H 0.6374 0.9688 0.8678
C30_4 C 0.5767(2) 0.8751(2) 0.92186(11)
H18_4 H 0.5386 0.9255 0.9391
N1_4 N 0.9355(2) 0.9232(2) 0.36065(11)
C31_4 C 0.9887(2) 0.8580(2) 0.33217(12)
C32_4 C 0.9478(4) 0.9158(5) 0.41923(16)
H20_4 H 0.9932 0.9722 0.4347
H21_4 H 0.8725 0.9176 0.4312
H22_4 H 0.9858 0.8529 0.4304
H23_4 H 0.8430 0.9881 0.2974
C33_3 C 0.1335(4) 0.9944(3) 0.6656(2)
H24_3 H 0.2009 0.9838 0.6477
H25_3 H 0.0881 0.9329 0.6638
C33_4 C 0.8665(4) 0.0056(3) 0.3344(2)
H24_4 H 0.7991 0.0162 0.3523
H25_4 H 0.9119 0.0671 0.3362
loop_
_geom_bond_atom_site_label_1
_geom_bond_atom_site_label_2
_geom_bond_site_symmetry_1
_geom_bond_site_symmetry_2
O9 Mn3 1_555 1_555
Mn1 O2 1_555 1_555
Mn2 O5 1_555 1_555
O1 C26 1_555 1_555
O2 C7 1_555 1_555
O3 C7 1_555 1_555
O5 H1 1_555 1_555
H2 O5 1_555 1_555
O6 C8 1_555 1_555
O16 C18 1_555 1_555
O8 C18 1_555 1_555
O10 Mn2 1_555 1_555
C1 C13 1_555 1_555
C2 C10 1_555 1_555
C3 C8 1_555 1_555
C4 C9 1_555 1_555
C5 C7 1_555 1_555
C6 C17 1_555 1_555
C8 O10 1_555 1_555
C9 H3 1_555 1_555
C10 C22 1_555 1_555
C11 C19 1_555 1_555
C12 C2 1_555 1_555
C13 H4 1_555 1_555
C14 C5 1_555 1_555
H5 C14 1_555 1_555
C15 C1 1_555 1_555
H6 C15 1_555 1_555
C16 C5 1_555 1_555
H7 C16 1_555 1_555
C17 C16 1_555 1_555
H8 C17 1_555 1_555
C18 C1 1_555 1_555
C19 C15 1_555 1_555
H9 C19 1_555 1_555
C20 C11 1_555 1_555
H10 C20 1_555 1_555
C21 C6 1_555 1_555
H11 C21 1_555 1_555
C22 H12 1_555 1_555
C23 C3 1_555 1_555
H13 C23 1_555 1_555
C24 C12 1_555 1_555
H14 C24 1_555 1_555
C25 C2 1_555 1_555
C26 C4 1_555 1_555
C27 C3 1_555 1_555
H15 C27 1_555 1_555
C28 C4 1_555 1_555
C29 C9 1_555 1_555
H17 C29 1_555 1_555
C30 C12 1_555 1_555
H18 C30 1_555 1_555
Mn5 O6 1_555 1_555
Mn8 O1 1_555 1_555
O11 Mn1 1_555 1_555
O12 Mn2 1_555 1_555
O14 Mn2 1_555 1_555
O15 Mn1 1_555 1_555
O18 Mn1 1_555 1_555
C6 C25 1_555 1_555
C10 C29 1_555 1_555
C11 C25 1_555 1_555
C13 C20 1_555 1_555
C14 C21 1_555 1_555
C22 C28 1_555 1_555
C23 C24 1_555 1_555
C27 C30 1_555 1_555
Mn5 O12 1_555 1_555
N1 C31 1_555 1_555
C31 O4 1_555 1_555
C32 N1 1_555 1_555
H20 C32 1_555 1_555
H21 C32 1_555 1_555
H22 C32 1_555 1_555
C33 N1 1_555 1_555
H23 C33 1_555 1_555
H24 C33 1_555 1_555
H25 C33 1_555 1_555
O4 Mn8 1_555 1_555
N1_2 C31_2 1_555 1_555
C31_2 O4_2 1_555 1_555
C32_2 N1_2 1_555 1_555
H20_2 C32_2 1_555 1_555
H21_2 C32_2 1_555 1_555
H22_2 C32_2 1_555 1_555
O4_2 Mn7 1_555 1_555
Mn6 O5_2 1_555 1_555
O5_2 H1_2 1_555 1_555
H2_2 O5_2 1_555 1_555
O6_2 C8_2 1_555 1_555
O7 C18_2 1_555 1_555
O10_2 Mn6 1_555 1_555
C1_2 C13_2 1_555 1_555
C3_2 C8_2 1_555 1_555
C8_2 O10_2 1_555 1_555
C11_2 C19_2 1_555 1_555
C12_2 C2_2 1_555 1_555
C13_2 H4_2 1_555 1_555
C15_2 C1_2 1_555 1_555
C18_2 C1_2 1_555 1_555
C19_2 C15_2 1_555 1_555
H9_2 C19_2 1_555 1_555
C20_2 C11_2 1_555 1_555
H10_2 C20_2 1_555 1_555
C23_2 C3_2 1_555 1_555
H13_2 C23_2 1_555 1_555
C24_2 C12_2 1_555 1_555
H14_2 C24_2 1_555 1_555
C25_2 C2_2 1_555 1_555
C27_2 C3_2 1_555 1_555
H15_2 C27_2 1_555 1_555
C30_2 C12_2 1_555 1_555
H18_2 C30_2 1_555 1_555
O12_2 Mn6 1_555 1_555
O14_2 Mn6 1_555 1_555
C11_2 C25_2 1_555 1_555
C13_2 C20_2 1_555 1_555
C23_2 C24_2 1_555 1_555
C27_2 C30_2 1_555 1_555
Mn3 O2_2 1_555 1_555
O11 C26_2 1_555 1_555
O2_2 C7_2 1_555 1_555
O3_2 C7_2 1_555 1_555
O18 C26_2 1_555 1_555
C4_2 C9_2 1_555 1_555
C5_2 C7_2 1_555 1_555
C6_2 C17_2 1_555 1_555
C9_2 H3_2 1_555 1_555
C10_2 C22_2 1_555 1_555
C14_2 C5_2 1_555 1_555
H5_2 C14_2 1_555 1_555
C16_2 C5_2 1_555 1_555
H7_2 C16_2 1_555 1_555
C17_2 C16_2 1_555 1_555
H8_2 C17_2 1_555 1_555
C21_2 C6_2 1_555 1_555
H11_2 C21_2 1_555 1_555
C22_2 H12_2 1_555 1_555
C26_2 C4_2 1_555 1_555
C28_2 C4_2 1_555 1_555
H16_2 C28_2 1_555 1_555
C29_2 C9_2 1_555 1_555
H17_2 C29_2 1_555 1_555
Mn7 O11 1_555 1_555
C10_2 C29_2 1_555 1_555
C14_2 C21_2 1_555 1_555
C22_2 C28_2 1_555 1_555
N1_3 C31_3 1_555 1_555
C31_3 O14_2 1_555 1_555
C32_3 N1_3 1_555 1_555
H20_3 C32_3 1_555 1_555
H21_3 C32_3 1_555 1_555
H22_3 C32_3 1_555 1_555
C33_2 N1_3 1_555 1_555
H23_3 C33_2 1_555 1_555
H24_2 C33_2 1_555 1_555
H25_2 C33_2 1_555 1_555
Mn5 O2_3 1_555 1_555
Mn7 O5_3 1_555 1_555
O12_2 C26_3 1_555 1_555
O2_3 C7_3 1_555 1_555
O13_2 C7_3 1_555 1_555
O5_3 H1_3 1_555 1_555
H2_3 O5_3 1_555 1_555
O15 C8_3 1_555 1_555
O7_2 C18_3 1_555 1_555
O17 C18_3 1_555 1_555
O10_3 Mn7 1_555 1_555
C1_3 C13_3 1_555 1_555
C2_3 C10_3 1_555 1_555
C3_3 C8_3 1_555 1_555
C4_3 C9_3 1_555 1_555
C5_3 C7_3 1_555 1_555
C6_3 C17_3 1_555 1_555
C8_3 O10_3 1_555 1_555
C9_3 H3_3 1_555 1_555
C10_3 C22_3 1_555 1_555
C11_3 C19_3 1_555 1_555
C12_3 C2_3 1_555 1_555
C13_3 H4_3 1_555 1_555
C14_3 C5_3 1_555 1_555
H5_3 C14_3 1_555 1_555
C15_3 C1_3 1_555 1_555
H6_3 C15_3 1_555 1_555
C16_3 C5_3 1_555 1_555
H7_3 C16_3 1_555 1_555
C17_3 C16_3 1_555 1_555
H8_3 C17_3 1_555 1_555
C18_3 C1_3 1_555 1_555
C19_3 C15_3 1_555 1_555
H9_3 C19_3 1_555 1_555
C20_3 C11_3 1_555 1_555
H10_3 C20_3 1_555 1_555
C21_3 C6_3 1_555 1_555
H11_3 C21_3 1_555 1_555
C22_3 H12_3 1_555 1_555
C23_3 C3_3 1_555 1_555
H13_3 C23_3 1_555 1_555
C24_3 C12_3 1_555 1_555
H14_3 C24_3 1_555 1_555
C25_3 C2_3 1_555 1_555
C26_3 C4_3 1_555 1_555
C27_3 C3_3 1_555 1_555
H15_3 C27_3 1_555 1_555
C28_3 C4_3 1_555 1_555
C29_3 C9_3 1_555 1_555
H17_3 C29_3 1_555 1_555
C30_3 C12_3 1_555 1_555
H18_3 C30_3 1_555 1_555
O18_2 Mn5 1_555 1_555
C6_3 C25_3 1_555 1_555
C10_3 C29_3 1_555 1_555
C11_3 C25_3 1_555 1_555
C13_3 C20_3 1_555 1_555
C14_3 C21_3 1_555 1_555
C22_3 C28_3 1_555 1_555
C23_3 C24_3 1_555 1_555
C27_3 C30_3 1_555 1_555
O9_2 Mn4 1_555 1_555
Mn4 O2_4 1_555 1_555
O12 C26_4 1_555 1_555
O2_4 C7_4 1_555 1_555
O13 C7_4 1_555 1_555
O18_2 C26_4 1_555 1_555
C4_4 C9_4 1_555 1_555
C5_4 C7_4 1_555 1_555
C6_4 C17_4 1_555 1_555
C9_4 H3_4 1_555 1_555
C10_4 C22_4 1_555 1_555
C14_4 C5_4 1_555 1_555
H5_4 C14_4 1_555 1_555
C16_4 C5_4 1_555 1_555
H7_4 C16_4 1_555 1_555
C17_4 C16_4 1_555 1_555
H8_4 C17_4 1_555 1_555
C21_4 C6_4 1_555 1_555
H11_4 C21_4 1_555 1_555
C22_4 H12_4 1_555 1_555
C26_4 C4_4 1_555 1_555
C28_4 C4_4 1_555 1_555
H16_4 C28_4 1_555 1_555
C29_4 C9_4 1_555 1_555
H17_4 C29_4 1_555 1_555
C10_4 C29_4 1_555 1_555
C14_4 C21_4 1_555 1_555
C22_4 C28_4 1_555 1_555
Mn8 O5_4 1_555 1_555
O5_4 H1_4 1_555 1_555
H2_4 O5_4 1_555 1_555
O15_2 C8_4 1_555 1_555
O16_2 C18_4 1_555 1_555
O10_4 Mn8 1_555 1_555
C1_4 C13_4 1_555 1_555
C3_4 C8_4 1_555 1_555
C8_4 O10_4 1_555 1_555
C11_4 C19_4 1_555 1_555
C12_4 C2_4 1_555 1_555
C13_4 H4_4 1_555 1_555
C15_4 C1_4 1_555 1_555
C18_4 C1_4 1_555 1_555
C19_4 C15_4 1_555 1_555
H9_4 C19_4 1_555 1_555
C20_4 C11_4 1_555 1_555
H10_4 C20_4 1_555 1_555
C23_4 C3_4 1_555 1_555
H13_4 C23_4 1_555 1_555
C24_4 C12_4 1_555 1_555
H14_4 C24_4 1_555 1_555
C25_4 C2_4 1_555 1_555
C27_4 C3_4 1_555 1_555
H15_4 C27_4 1_555 1_555
C30_4 C12_4 1_555 1_555
H18_4 C30_4 1_555 1_555
C11_4 C25_4 1_555 1_555
C13_4 C20_4 1_555 1_555
C23_4 C24_4 1_555 1_555
C27_4 C30_4 1_555 1_555
N1_4 C31_4 1_555 1_555
C31_4 O14 1_555 1_555
C32_4 N1_4 1_555 1_555
H20_4 C32_4 1_555 1_555
H21_4 C32_4 1_555 1_555
H22_4 C32_4 1_555 1_555
H24_3 C33_3 1_555 1_555
H25_3 C33_3 1_555 1_555
H24_4 C33_4 1_555 1_555
H25_4 C33_4 1_555 1_555

#END
