
###############################################################################
#
# This file contains modified crystal structure data generated from the
# MOF subset of the Cambridge Structural Database (CSD) v543 
# hosted by the Cambridge Crystallographic Data Centre (CCDC).
#
# This work is licensed under the Creative Commons
# Attribution-NonCommercial-ShareAlike 4.0 International License.
# To view a copy of this license, visit
# http://creativecommons.org/licenses/by-nc-sa/4.0/
# or send a letter to
# Creative Commons, PO Box 1866, Mountain View, CA 94042, USA.
#
# CIF created using the CSD Python API on 29 September 2022
# The structure has been converted into the P1 space group
# The structure has a 3D framework
# The original CSD entry YUKKAS is in the triclinic crystal system
# The framework has been calculated to contain at least 10.0% void space
# The void calculation uses a probe of radius 1.32A, grid spacing 0.4
#
###############################################################################

data_YUKKAS
_chemical_formula_moiety         '(C30 H24 N4 O24 Tb2 Zn2)n'
_symmetry_cell_setting           triclinic
_symmetry_space_group_name_H-M   'P 1'
_symmetry_Int_Tables_number      1
_space_group_name_Hall           'P 1'
loop_
_symmetry_equiv_pos_site_id
_symmetry_equiv_pos_as_xyz
1 x,y,z
_cell_length_a                   9.9430(8)
_cell_length_b                   10.5668(9)
_cell_length_c                   10.9169(9)
_cell_angle_alpha                80.5960(10)
_cell_angle_beta                 72.1490(10)
_cell_angle_gamma                74.5740(10)
_cell_volume                     1048.24
loop_
_atom_site_label
_atom_site_type_symbol
_atom_site_fract_x
_atom_site_fract_y
_atom_site_fract_z
_atom_site_U_iso_or_equiv
_atom_site_thermal_displace_type
Tb1 Tb 0.174368(12) 0.193750(11) 0.034086(10) 0.0146 Uani
O12 O 0.2629(2) 0.3883(2) 0.0201(2) 0.0305 Uani
H9 H 0.258(4) 0.410(4) 0.0924(19) 0.0430 Uiso
O28 O 0.3296(2) 0.15300(18) 0.18548(19) 0.0261 Uani
O31 O 0.0292(2) 0.30077(19) 0.21029(18) 0.0249 Uani
Zn1 Zn 0.29172(3) 0.36786(3) 0.61719(3) 0.0206 Uani
N1 N 0.4779(2) 0.2042(2) 0.5712(2) 0.0217 Uani
N2 N 0.1303(2) 0.3027(2) 0.5752(2) 0.0207 Uani
C2 C 0.6402(3) 0.0370(2) 0.6673(2) 0.0194 Uani
C3 C 0.5145(3) 0.1357(3) 0.6755(2) 0.0182 Uani
C4 C 0.5625(3) 0.1724(3) 0.4541(3) 0.0267 Uani
H1 H 0.534(4) 0.220(3) 0.385(3) 0.0300 Uiso
C5 C 0.6870(3) 0.0726(3) 0.4367(3) 0.0307 Uani
H2 H 0.741(4) 0.060(4) 0.353(4) 0.0390 Uiso
C6 C 0.7265(3) 0.0062(3) 0.5445(3) 0.0267 Uani
C7 C 0.4040(3) 0.1692(2) 0.8016(2) 0.0169 Uani
C8 C 0.2251(3) 0.4238(2) 0.3737(2) 0.0196 Uani
C9 C 0.1115(3) 0.3513(2) 0.4583(2) 0.0173 Uani
C14 C 0.0351(3) 0.2406(3) 0.6593(3) 0.0255 Uani
H6 H 0.052(3) 0.206(3) 0.736(3) 0.0250 Uiso
O1 O 0.42134(19) 0.10550(19) 0.90322(17) 0.0220 Uani
O2 O 0.29062(18) 0.25900(17) 0.79795(17) 0.0194 Uani
O4 O 0.7561(2) 0.01088(19) 0.83457(19) 0.0262 Uani
O5 O 0.3161(2) 0.4394(2) 0.42599(18) 0.0255 Uani
O6 O 0.2202(2) 0.4648(2) 0.26214(18) 0.0279 Uani
H7 H 0.027(5) 0.398(4) 0.878(3) 0.0690 Uiso
H10 H 0.324(4) 0.420(5) 0.959(3) 0.0720 Uiso
O13 O 0.4050(3) 0.4960(3) 0.6386(2) 0.0366 Uani
H11 H 0.370(6) 0.537(5) 0.706(3) 0.1000 Uiso
H12 H 0.4938(19) 0.468(5) 0.635(6) 0.0920 Uiso
O15 O 0.1620(2) 0.03619(19) 0.90353(18) 0.0239 Uani
O34 O 0.1074(2) 0.50637(18) 0.72832(18) 0.0239 Uani
C26 C 0.0064(3) 0.6615(2) 0.5771(2) 0.0181 Uani
C27 C 0.0280(3) 0.6167(2) 0.7090(2) 0.0161 Uani
C28 C 0.1073(3) 0.7234(3) 0.4871(3) 0.0262 Uani
H16 H 0.193(4) 0.727(3) 0.506(3) 0.0260 Uiso
C29 C 0.0857(4) 0.7739(3) 0.3683(3) 0.0304 Uani
H17 H 0.153(4) 0.815(4) 0.308(4) 0.0360 Uiso
O24 O 0.0022(2) 0.6514(2) 0.0554(2) 0.0306 Uani
H20 H 0.086(2) 0.621(4) 0.008(4) 0.0620 Uiso
O30 O 0.2439(2) 0.98912(19) 0.16543(19) 0.0262 Uani
C1 C 0.6882(3) 0.9616(3) 0.7825(2) 0.0205 Uani
H3 H 0.799(4) 0.946(4) 0.540(4) 0.0420 Uiso
O3 O 0.6704(2) 0.84700(18) 0.81452(19) 0.0261 Uani
C16 C 0.0597(3) 0.9793(2) 0.9377(2) 0.0179 Uani
O14 O 0.0429(2) 0.89319(19) 0.88162(18) 0.0239 Uani
Tb6 Tb 0.825632(12) 0.806250(11) 0.965914(10) 0.0146 Uani
C15 C 0.9403(3) 0.0207(2) 0.0623(2) 0.0179 Uani
O9 O 0.9571(2) 0.10681(19) 0.11838(18) 0.0239 Uani
C17 C 0.3118(3) 0.0384(3) 0.2175(2) 0.0205 Uani
H15 H 0.201(4) 0.054(4) 0.460(4) 0.0420 Uiso
C10 C 0.9936(3) 0.3385(2) 0.4229(2) 0.0181 Uani
C11 C 0.9720(3) 0.3833(2) 0.2910(2) 0.0161 Uani
C12 C 0.8927(3) 0.2766(3) 0.5129(3) 0.0262 Uani
H4 H 0.807(4) 0.273(3) 0.494(3) 0.0260 Uiso
C13 C 0.9143(4) 0.2261(3) 0.6317(3) 0.0304 Uani
H5 H 0.847(4) 0.185(4) 0.692(4) 0.0360 Uiso
O8 O 0.8926(2) 0.49363(18) 0.27168(18) 0.0239 Uani
O11 O 0.9978(2) 0.3486(2) 0.9446(2) 0.0306 Uani
H8 H 0.914(2) 0.379(4) 0.992(4) 0.0620 Uiso
Zn4 Zn 0.70828(3) 0.63214(3) 0.38281(3) 0.0206 Uani
O10 O 0.8380(2) 0.96381(19) 0.09647(18) 0.0239 Uani
N3 N 0.5221(2) 0.7958(2) 0.4288(2) 0.0217 Uani
N4 N 0.8697(2) 0.6973(2) 0.4248(2) 0.0207 Uani
C18 C 0.3598(3) 0.9630(2) 0.3327(2) 0.0194 Uani
C19 C 0.4855(3) 0.8643(3) 0.3245(2) 0.0182 Uani
C20 C 0.4375(3) 0.8276(3) 0.5459(3) 0.0267 Uani
H13 H 0.466(4) 0.780(3) 0.615(3) 0.0300 Uiso
C21 C 0.3130(3) 0.9274(3) 0.5633(3) 0.0307 Uani
H14 H 0.259(4) 0.940(4) 0.647(4) 0.0390 Uiso
C22 C 0.2735(3) 0.9938(3) 0.4555(3) 0.0267 Uani
C23 C 0.5960(3) 0.8308(2) 0.1984(2) 0.0169 Uani
C24 C 0.7749(3) 0.5762(2) 0.6263(2) 0.0196 Uani
C25 C 0.8885(3) 0.6487(2) 0.5417(2) 0.0173 Uani
C30 C 0.9649(3) 0.7594(3) 0.3407(3) 0.0255 Uani
H18 H 0.948(3) 0.794(3) 0.264(3) 0.0250 Uiso
O16 O 0.57866(19) 0.89450(19) 0.09678(17) 0.0220 Uani
O17 O 0.70938(18) 0.74100(17) 0.20205(17) 0.0194 Uani
O20 O 0.6839(2) 0.5606(2) 0.57401(18) 0.0255 Uani
O21 O 0.7798(2) 0.5352(2) 0.73786(18) 0.0279 Uani
O22 O 0.9708(2) 0.69923(19) 0.78971(18) 0.0249 Uani
H19 H 0.973(5) 0.602(4) 0.122(3) 0.0690 Uiso
H22 H 0.676(4) 0.580(5) 0.041(3) 0.0720 Uiso
O26 O 0.5950(3) 0.5040(3) 0.3614(2) 0.0366 Uani
H23 H 0.630(6) 0.463(5) 0.294(3) 0.1000 Uiso
H24 H 0.5062(19) 0.532(5) 0.365(6) 0.0920 Uiso
O25 O 0.7371(2) 0.6117(2) 0.9799(2) 0.0305 Uani
H21 H 0.742(4) 0.590(4) 0.9076(19) 0.0430 Uiso
loop_
_atom_site_aniso_label
_atom_site_aniso_U_11
_atom_site_aniso_U_22
_atom_site_aniso_U_33
_atom_site_aniso_U_23
_atom_site_aniso_U_13
_atom_site_aniso_U_12
Tb1 0.01347 0.01529 0.01411 -0.00204 -0.00372 -0.00151
O12 0.04 0.0315 0.0239 -0.0043 -0.0058 -0.0172
O28 0.0284 0.0203 0.03 0.0014 -0.0125 -0.0031
O31 0.0243 0.0273 0.0225 -0.0094 -0.0057 -0.0017
Zn1 0.01946 0.02346 0.0183 0.00052 -0.00881 -0.00121
N1 0.0203 0.0248 0.017 0.0011 -0.0051 -0.0019
N2 0.0237 0.0199 0.0186 -0.0022 -0.0085 -0.0019
C2 0.0195 0.0178 0.0201 0.0008 -0.0062 -0.0034
C3 0.0165 0.0207 0.0166 -0.0014 -0.0045 -0.0032
C4 0.0296 0.0307 0.0163 0.0007 -0.007 -0.002
C5 0.0329 0.0335 0.0184 -0.0056 -0.001 -0.0006
C6 0.0235 0.0244 0.0247 -0.0051 -0.0032 0.0046
C7 0.0137 0.0198 0.0172 -0.0027 -0.0041 -0.0036
C8 0.0198 0.0173 0.0213 -0.0034 -0.008 -0.0001
C9 0.0197 0.0148 0.017 -0.0024 -0.0073 0.0001
C14 0.0353 0.0244 0.0158 0.0028 -0.0085 -0.0061
O1 0.0182 0.0281 0.0151 0.0027 -0.0039 -0.0014
O2 0.0142 0.0214 0.0183 0.0001 -0.004 0.0012
O4 0.026 0.0277 0.0281 0.0048 -0.0139 -0.0083
O5 0.0227 0.0334 0.0223 0.0032 -0.0104 -0.0083
O6 0.0379 0.0322 0.0187 0.0042 -0.0121 -0.0154
O13 0.0295 0.0513 0.035 -0.0063 -0.0079 -0.0188
O15 0.0204 0.029 0.0224 -0.0071 0.0007 -0.0105
O34 0.0259 0.0213 0.021 -0.0024 -0.0082 0.0027
C26 0.0228 0.0133 0.0176 -0.0028 -0.0067 -0.001
C27 0.0138 0.0191 0.016 -0.0039 -0.0033 -0.0044
C28 0.0273 0.0299 0.0244 -0.0009 -0.0088 -0.0107
C29 0.0365 0.0317 0.0232 0.0048 -0.0048 -0.0164
O24 0.0221 0.0377 0.023 0.0045 -0.0059 0.0035
O30 0.026 0.0277 0.0281 0.0048 -0.0139 -0.0083
C1 0.0141 0.0239 0.0174 0.0001 -0.0016 0.0016
O3 0.0284 0.0203 0.03 0.0014 -0.0125 -0.0031
C16 0.016 0.0179 0.0187 -0.0003 -0.0053 -0.0025
O14 0.0206 0.0272 0.0249 -0.0108 -0.0014 -0.008
Tb6 0.01347 0.01529 0.01411 -0.00204 -0.00372 -0.00151
C15 0.016 0.0179 0.0187 -0.0003 -0.0053 -0.0025
O9 0.0206 0.0272 0.0249 -0.0108 -0.0014 -0.008
C17 0.0141 0.0239 0.0174 0.0001 -0.0016 0.0016
C10 0.0228 0.0133 0.0176 -0.0028 -0.0067 -0.001
C11 0.0138 0.0191 0.016 -0.0039 -0.0033 -0.0044
C12 0.0273 0.0299 0.0244 -0.0009 -0.0088 -0.0107
C13 0.0365 0.0317 0.0232 0.0048 -0.0048 -0.0164
O8 0.0259 0.0213 0.021 -0.0024 -0.0082 0.0027
O11 0.0221 0.0377 0.023 0.0045 -0.0059 0.0035
Zn4 0.01946 0.02346 0.0183 0.00052 -0.00881 -0.00121
O10 0.0204 0.029 0.0224 -0.0071 0.0007 -0.0105
N3 0.0203 0.0248 0.017 0.0011 -0.0051 -0.0019
N4 0.0237 0.0199 0.0186 -0.0022 -0.0085 -0.0019
C18 0.0195 0.0178 0.0201 0.0008 -0.0062 -0.0034
C19 0.0165 0.0207 0.0166 -0.0014 -0.0045 -0.0032
C20 0.0296 0.0307 0.0163 0.0007 -0.007 -0.002
C21 0.0329 0.0335 0.0184 -0.0056 -0.001 -0.0006
C22 0.0235 0.0244 0.0247 -0.0051 -0.0032 0.0046
C23 0.0137 0.0198 0.0172 -0.0027 -0.0041 -0.0036
C24 0.0198 0.0173 0.0213 -0.0034 -0.008 -0.0001
C25 0.0197 0.0148 0.017 -0.0024 -0.0073 0.0001
C30 0.0353 0.0244 0.0158 0.0028 -0.0085 -0.0061
O16 0.0182 0.0281 0.0151 0.0027 -0.0039 -0.0014
O17 0.0142 0.0214 0.0183 0.0001 -0.004 0.0012
O20 0.0227 0.0334 0.0223 0.0032 -0.0104 -0.0083
O21 0.0379 0.0322 0.0187 0.0042 -0.0121 -0.0154
O22 0.0243 0.0273 0.0225 -0.0094 -0.0057 -0.0017
O26 0.0295 0.0513 0.035 -0.0063 -0.0079 -0.0188
O25 0.04 0.0315 0.0239 -0.0043 -0.0058 -0.0172
loop_
_geom_bond_atom_site_label_1
_geom_bond_atom_site_label_2
_geom_bond_site_symmetry_1
_geom_bond_site_symmetry_2
O12 Tb1 1_555 1_555
H9 O12 1_555 1_555
O28 Tb1 1_555 1_555
O31 Tb1 1_555 1_555
Zn1 N1 1_555 1_555
N1 C3 1_555 1_555
N2 Zn1 1_555 1_555
C2 C3 1_555 1_555
C3 C7 1_555 1_555
C4 N1 1_555 1_555
H1 C4 1_555 1_555
C5 C4 1_555 1_555
H2 C5 1_555 1_555
C6 C2 1_555 1_555
C7 O1 1_555 1_555
C8 C9 1_555 1_555
C9 N2 1_555 1_555
C14 N2 1_555 1_555
H6 C14 1_555 1_555
O5 Zn1 1_555 1_555
O6 C8 1_555 1_555
O13 Zn1 1_555 1_555
H11 O13 1_555 1_555
H12 O13 1_555 1_555
O34 Zn1 1_555 1_555
Zn1 O2 1_555 1_555
C5 C6 1_555 1_555
C7 O2 1_555 1_555
C8 O5 1_555 1_555
C27 C26 1_555 1_555
C28 C26 1_555 1_555
H16 C28 1_555 1_555
C29 C28 1_555 1_555
H17 C29 1_555 1_555
O34 C27 1_555 1_555
H20 O24 1_555 1_555
O3 C1 1_555 1_555
O14 C16 1_555 1_555
Tb6 O3 1_555 1_555
C15 O9 1_555 1_555
O28 C17 1_555 1_555
C11 C10 1_555 1_555
C12 C10 1_555 1_555
H4 C12 1_555 1_555
C13 C12 1_555 1_555
H5 C13 1_555 1_555
O8 C11 1_555 1_555
H8 O11 1_555 1_555
Zn4 O8 1_555 1_555
Zn4 N3 1_555 1_555
N3 C19 1_555 1_555
N4 Zn4 1_555 1_555
C18 C19 1_555 1_555
C19 C23 1_555 1_555
C20 N3 1_555 1_555
H13 C20 1_555 1_555
C21 C20 1_555 1_555
H14 C21 1_555 1_555
C22 C18 1_555 1_555
C23 O16 1_555 1_555
C24 C25 1_555 1_555
C25 N4 1_555 1_555
C30 N4 1_555 1_555
H18 C30 1_555 1_555
O20 Zn4 1_555 1_555
O21 C24 1_555 1_555
O26 Zn4 1_555 1_555
H23 O26 1_555 1_555
H24 O26 1_555 1_555
Tb6 O22 1_555 1_555
Zn4 O17 1_555 1_555
C21 C22 1_555 1_555
C23 O17 1_555 1_555
C24 O20 1_555 1_555
O25 Tb6 1_555 1_555
H21 O25 1_555 1_555

#END
