
###############################################################################
#
# This file contains modified crystal structure data generated from the
# MOF subset of the Cambridge Structural Database (CSD) v543 
# hosted by the Cambridge Crystallographic Data Centre (CCDC).
#
# This work is licensed under the Creative Commons
# Attribution-NonCommercial-ShareAlike 4.0 International License.
# To view a copy of this license, visit
# http://creativecommons.org/licenses/by-nc-sa/4.0/
# or send a letter to
# Creative Commons, PO Box 1866, Mountain View, CA 94042, USA.
#
# CIF created using the CSD Python API on 29 September 2022
# The structure has been converted into the P1 space group
# The structure has a 3D framework
# The original CSD entry YUKWUY is in the triclinic crystal system
# The framework has been calculated to contain at least 10.0% void space
# The void calculation uses a probe of radius 1.32A, grid spacing 0.4
#
###############################################################################

data_YUKWUY
_chemical_formula_moiety         '(C30 H24 N4 Nd2 O24 Zn2)n'
_symmetry_cell_setting           triclinic
_symmetry_space_group_name_H-M   'P 1'
_symmetry_Int_Tables_number      1
_space_group_name_Hall           'P 1'
loop_
_symmetry_equiv_pos_site_id
_symmetry_equiv_pos_as_xyz
1 x,y,z
_cell_length_a                   10.0218(16)
_cell_length_b                   10.7145(16)
_cell_length_c                   10.9870(17)
_cell_angle_alpha                80.478(2)
_cell_angle_beta                 72.442(2)
_cell_angle_gamma                74.522(2)
_cell_volume                     1079.37
loop_
_atom_site_label
_atom_site_type_symbol
_atom_site_fract_x
_atom_site_fract_y
_atom_site_fract_z
_atom_site_U_iso_or_equiv
_atom_site_thermal_displace_type
Nd1 Nd 0.176191(15) 0.195374(13) 0.034859(13) 0.0151 Uani
O12 O 0.2709(3) 0.3909(3) 0.0217(2) 0.0374 Uani
H9 H 0.263(5) 0.414(4) 0.094(2) 0.0500 Uiso
O30 O 0.3326(3) 0.1511(2) 0.1904(2) 0.0282 Uani
O31 O 0.0250(2) 0.3055(2) 0.2118(2) 0.0266 Uani
Zn1 Zn 0.29277(4) 0.36785(3) 0.61537(3) 0.0222 Uani
N1 N 0.4773(3) 0.2054(3) 0.5684(2) 0.0236 Uani
N2 N 0.1321(3) 0.3022(2) 0.5750(2) 0.0216 Uani
C1 C 0.5598(4) 0.1756(3) 0.4509(3) 0.0290 Uani
H1 H 0.534(4) 0.225(4) 0.380(4) 0.0310 Uiso
C2 C 0.6828(4) 0.0764(3) 0.4332(3) 0.0323 Uani
H2 H 0.739(5) 0.056(4) 0.352(4) 0.0380 Uiso
C3 C 0.7228(4) 0.0077(3) 0.5403(3) 0.0291 Uani
C4 C 0.6385(3) 0.0375(3) 0.6626(3) 0.0207 Uani
C5 C 0.5143(3) 0.1365(3) 0.6717(3) 0.0199 Uani
C7 C 0.4069(3) 0.1689(3) 0.7979(3) 0.0178 Uani
C8 C 0.1101(3) 0.3523(3) 0.4596(3) 0.0178 Uani
C12 C 0.0388(4) 0.2386(3) 0.6581(3) 0.0287 Uani
H6 H 0.062(4) 0.203(4) 0.731(4) 0.0290 Uiso
C13 C 0.2206(3) 0.4259(3) 0.3753(3) 0.0207 Uani
O1 O 0.7554(3) 0.0106(2) 0.8280(2) 0.0294 Uani
O3 O 0.4262(2) 0.1051(2) 0.8987(2) 0.0237 Uani
O4 O 0.2940(2) 0.2592(2) 0.7951(2) 0.0218 Uani
O5 O 0.3124(2) 0.4408(2) 0.4266(2) 0.0271 Uani
O6 O 0.2131(3) 0.4683(2) 0.2652(2) 0.0305 Uani
O9 O 0.1633(2) 0.0335(2) 0.9044(2) 0.0273 Uani
H8 H 0.022(5) 0.407(4) 0.875(3) 0.0500 Uiso
H10 H 0.324(6) 0.424(6) 0.956(4) 0.0900 Uiso
O13 O 0.4094(3) 0.4914(3) 0.6382(3) 0.0409 Uani
H11 H 0.375(12) 0.517(10) 0.713(4) 0.2000 Uiso
H12 H 0.5006(12) 0.470(9) 0.618(9) 0.1600 Uiso
O34 O 0.1121(2) 0.5062(2) 0.7233(2) 0.0260 Uani
C25 C 0.0075(3) 0.6619(3) 0.5750(3) 0.0191 Uani
C26 C 0.1045(4) 0.7262(3) 0.4866(3) 0.0283 Uani
H16 H 0.190(5) 0.730(4) 0.507(4) 0.0350 Uiso
C27 C 0.0810(4) 0.7771(3) 0.3689(3) 0.0322 Uani
H17 H 0.146(5) 0.821(4) 0.306(4) 0.0440 Uiso
C30 C 0.0320(3) 0.6146(3) 0.7055(3) 0.0174 Uani
O24 O 0.0021(3) 0.6456(3) 0.0594(2) 0.0379 Uani
H19 H 0.088(2) 0.619(5) 0.016(5) 0.0720 Uiso
O28 O 0.2446(3) 0.9894(2) 0.1720(2) 0.0294 Uani
H3 H 0.804(5) 0.946(4) 0.531(4) 0.0340 Uiso
C6 C 0.6874(3) 0.9621(3) 0.7765(3) 0.0207 Uani
C15 C 0.0598(3) 0.9778(3) 0.9392(3) 0.0192 Uani
O2 O 0.6674(3) 0.8489(2) 0.8096(2) 0.0282 Uani
O10 O 0.0445(2) 0.8918(2) 0.8845(2) 0.0267 Uani
Nd6 Nd 0.823809(15) 0.804626(13) 0.965141(13) 0.0151 Uani
C16 C 0.9402(3) 0.0222(3) 0.0608(3) 0.0192 Uani
O15 O 0.9555(2) 0.1082(2) 0.1155(2) 0.0267 Uani
H15 H 0.196(5) 0.054(4) 0.469(4) 0.0340 Uiso
C22 C 0.3126(3) 0.0379(3) 0.2235(3) 0.0207 Uani
C9 C 0.9925(3) 0.3381(3) 0.4250(3) 0.0191 Uani
C10 C 0.8955(4) 0.2738(3) 0.5134(3) 0.0283 Uani
H4 H 0.810(5) 0.270(4) 0.493(4) 0.0350 Uiso
C11 C 0.9190(4) 0.2229(3) 0.6311(3) 0.0322 Uani
H5 H 0.854(5) 0.179(4) 0.694(4) 0.0440 Uiso
C14 C 0.9680(3) 0.3854(3) 0.2945(3) 0.0174 Uani
O8 O 0.8879(2) 0.4938(2) 0.2767(2) 0.0260 Uani
O11 O 0.9979(3) 0.3544(3) 0.9406(2) 0.0379 Uani
H7 H 0.912(2) 0.381(5) 0.984(5) 0.0720 Uiso
Zn4 Zn 0.70723(4) 0.63215(3) 0.38463(3) 0.0222 Uani
O14 O 0.8367(2) 0.9665(2) 0.0956(2) 0.0273 Uani
N3 N 0.5227(3) 0.7946(3) 0.4316(2) 0.0236 Uani
N4 N 0.8679(3) 0.6978(2) 0.4250(2) 0.0216 Uani
C17 C 0.4402(4) 0.8244(3) 0.5491(3) 0.0290 Uani
H13 H 0.466(4) 0.775(4) 0.620(4) 0.0310 Uiso
C18 C 0.3172(4) 0.9236(3) 0.5668(3) 0.0323 Uani
H14 H 0.261(5) 0.944(4) 0.648(4) 0.0380 Uiso
C19 C 0.2772(4) 0.9923(3) 0.4597(3) 0.0291 Uani
C20 C 0.3615(3) 0.9625(3) 0.3374(3) 0.0207 Uani
C21 C 0.4857(3) 0.8635(3) 0.3283(3) 0.0199 Uani
C23 C 0.5931(3) 0.8311(3) 0.2021(3) 0.0178 Uani
C24 C 0.8899(3) 0.6477(3) 0.5404(3) 0.0178 Uani
C28 C 0.9612(4) 0.7614(3) 0.3419(3) 0.0287 Uani
H18 H 0.938(4) 0.797(4) 0.269(4) 0.0290 Uiso
C29 C 0.7794(3) 0.5741(3) 0.6247(3) 0.0207 Uani
O18 O 0.5738(2) 0.8949(2) 0.1013(2) 0.0237 Uani
O19 O 0.7060(2) 0.7408(2) 0.2049(2) 0.0218 Uani
O20 O 0.6876(2) 0.5592(2) 0.5734(2) 0.0271 Uani
O21 O 0.7869(3) 0.5317(2) 0.7348(2) 0.0305 Uani
O22 O 0.9750(2) 0.6945(2) 0.7882(2) 0.0266 Uani
H20 H 0.978(5) 0.593(4) 0.125(3) 0.0500 Uiso
H22 H 0.676(6) 0.576(6) 0.044(4) 0.0900 Uiso
O26 O 0.5906(3) 0.5086(3) 0.3618(3) 0.0409 Uani
H23 H 0.625(12) 0.483(10) 0.287(4) 0.2000 Uiso
H24 H 0.4994(12) 0.530(9) 0.382(9) 0.1600 Uiso
O25 O 0.7291(3) 0.6091(3) 0.9783(2) 0.0374 Uani
H21 H 0.737(5) 0.586(4) 0.906(2) 0.0500 Uiso
loop_
_atom_site_aniso_label
_atom_site_aniso_U_11
_atom_site_aniso_U_22
_atom_site_aniso_U_33
_atom_site_aniso_U_23
_atom_site_aniso_U_13
_atom_site_aniso_U_12
Nd1 0.01401 0.01535 0.01521 -0.002 -0.00342 -0.00226
O12 0.0506 0.0388 0.0273 -0.0062 -0.0019 -0.0256
O30 0.0298 0.021 0.0352 0.003 -0.0156 -0.0037
O31 0.0257 0.0295 0.0237 -0.0122 -0.0063 0.0005
Zn1 0.02073 0.02464 0.0205 0.0007 -0.00941 -0.00144
N1 0.0215 0.028 0.0174 0.0002 -0.0055 -0.0005
N2 0.0249 0.0196 0.0192 -0.0008 -0.0081 -0.0015
C1 0.0295 0.0348 0.0176 -0.0001 -0.0057 -0.001
C2 0.0337 0.0351 0.02 -0.0063 -0.0007 0.0005
C3 0.027 0.0257 0.0266 -0.0049 -0.003 0.0039
C4 0.0183 0.0221 0.0201 -0.0013 -0.0037 -0.0041
C5 0.0181 0.0211 0.0189 0.0004 -0.0057 -0.0026
C7 0.0152 0.02 0.0183 -0.0008 -0.0051 -0.004
C8 0.0198 0.0176 0.015 -0.004 -0.0062 0.0008
C12 0.041 0.0253 0.0201 0.0049 -0.0113 -0.009
C13 0.0219 0.0195 0.0189 -0.0034 -0.0056 -0.0006
O1 0.0315 0.0271 0.0341 0.0065 -0.0177 -0.01
O3 0.0187 0.0298 0.0173 0.0025 -0.0041 -0.0005
O4 0.0167 0.0233 0.0196 0.0016 -0.0034 0.0014
O5 0.0263 0.0353 0.0237 0.0033 -0.0128 -0.0104
O6 0.0413 0.0335 0.0207 0.0043 -0.0123 -0.0152
O9 0.0213 0.0329 0.0268 -0.0092 0.0031 -0.0118
O13 0.0334 0.0566 0.0401 -0.0064 -0.008 -0.0237
O34 0.026 0.0236 0.0241 -0.0025 -0.009 0.0041
C25 0.021 0.0164 0.02 -0.0039 -0.0059 -0.0027
C26 0.0312 0.0318 0.0265 0.0013 -0.0119 -0.0128
C27 0.037 0.0338 0.0266 0.006 -0.0062 -0.0175
C30 0.0151 0.02 0.0184 -0.0034 -0.0057 -0.004
O24 0.0272 0.0439 0.0288 0.0066 -0.0055 0.0062
O28 0.0315 0.0271 0.0341 0.0065 -0.0177 -0.01
C6 0.0138 0.0214 0.0218 -0.0003 -0.0021 0.0005
C15 0.0168 0.0196 0.0207 -0.0012 -0.0051 -0.0035
O2 0.0298 0.021 0.0352 0.003 -0.0156 -0.0037
O10 0.0212 0.0315 0.0286 -0.0139 0.0002 -0.0091
Nd6 0.01401 0.01535 0.01521 -0.002 -0.00342 -0.00226
C16 0.0168 0.0196 0.0207 -0.0012 -0.0051 -0.0035
O15 0.0212 0.0315 0.0286 -0.0139 0.0002 -0.0091
C22 0.0138 0.0214 0.0218 -0.0003 -0.0021 0.0005
C9 0.021 0.0164 0.02 -0.0039 -0.0059 -0.0027
C10 0.0312 0.0318 0.0265 0.0013 -0.0119 -0.0128
C11 0.037 0.0338 0.0266 0.006 -0.0062 -0.0175
C14 0.0151 0.02 0.0184 -0.0034 -0.0057 -0.004
O8 0.026 0.0236 0.0241 -0.0025 -0.009 0.0041
O11 0.0272 0.0439 0.0288 0.0066 -0.0055 0.0062
Zn4 0.02073 0.02464 0.0205 0.0007 -0.00941 -0.00144
O14 0.0213 0.0329 0.0268 -0.0092 0.0031 -0.0118
N3 0.0215 0.028 0.0174 0.0002 -0.0055 -0.0005
N4 0.0249 0.0196 0.0192 -0.0008 -0.0081 -0.0015
C17 0.0295 0.0348 0.0176 -0.0001 -0.0057 -0.001
C18 0.0337 0.0351 0.02 -0.0063 -0.0007 0.0005
C19 0.027 0.0257 0.0266 -0.0049 -0.003 0.0039
C20 0.0183 0.0221 0.0201 -0.0013 -0.0037 -0.0041
C21 0.0181 0.0211 0.0189 0.0004 -0.0057 -0.0026
C23 0.0152 0.02 0.0183 -0.0008 -0.0051 -0.004
C24 0.0198 0.0176 0.015 -0.004 -0.0062 0.0008
C28 0.041 0.0253 0.0201 0.0049 -0.0113 -0.009
C29 0.0219 0.0195 0.0189 -0.0034 -0.0056 -0.0006
O18 0.0187 0.0298 0.0173 0.0025 -0.0041 -0.0005
O19 0.0167 0.0233 0.0196 0.0016 -0.0034 0.0014
O20 0.0263 0.0353 0.0237 0.0033 -0.0128 -0.0104
O21 0.0413 0.0335 0.0207 0.0043 -0.0123 -0.0152
O22 0.0257 0.0295 0.0237 -0.0122 -0.0063 0.0005
O26 0.0334 0.0566 0.0401 -0.0064 -0.008 -0.0237
O25 0.0506 0.0388 0.0273 -0.0062 -0.0019 -0.0256
loop_
_geom_bond_atom_site_label_1
_geom_bond_atom_site_label_2
_geom_bond_site_symmetry_1
_geom_bond_site_symmetry_2
O12 Nd1 1_555 1_555
H9 O12 1_555 1_555
O30 Nd1 1_555 1_555
O31 Nd1 1_555 1_555
Zn1 N1 1_555 1_555
N1 C1 1_555 1_555
N2 Zn1 1_555 1_555
C1 H1 1_555 1_555
C2 C1 1_555 1_555
H2 C2 1_555 1_555
C3 C2 1_555 1_555
C4 C3 1_555 1_555
C5 N1 1_555 1_555
C7 C5 1_555 1_555
C8 N2 1_555 1_555
C12 N2 1_555 1_555
H6 C12 1_555 1_555
C13 C8 1_555 1_555
O3 C7 1_555 1_555
O5 Zn1 1_555 1_555
O6 C13 1_555 1_555
O13 Zn1 1_555 1_555
H11 O13 1_555 1_555
H12 O13 1_555 1_555
O34 Zn1 1_555 1_555
Zn1 O4 1_555 1_555
C4 C5 1_555 1_555
C7 O4 1_555 1_555
C13 O5 1_555 1_555
C26 C25 1_555 1_555
H16 C26 1_555 1_555
C27 C26 1_555 1_555
H17 C27 1_555 1_555
C30 C25 1_555 1_555
O34 C30 1_555 1_555
H19 O24 1_555 1_555
O2 C6 1_555 1_555
O10 C15 1_555 1_555
O2 Nd6 1_555 1_555
O30 C22 1_555 1_555
C16 O15 1_555 1_555
C10 C9 1_555 1_555
H4 C10 1_555 1_555
C11 C10 1_555 1_555
H5 C11 1_555 1_555
C14 C9 1_555 1_555
O8 C14 1_555 1_555
H7 O11 1_555 1_555
Zn4 O8 1_555 1_555
Zn4 N3 1_555 1_555
N3 C17 1_555 1_555
N4 Zn4 1_555 1_555
C17 H13 1_555 1_555
C18 C17 1_555 1_555
H14 C18 1_555 1_555
C19 C18 1_555 1_555
C20 C19 1_555 1_555
C21 N3 1_555 1_555
C23 C21 1_555 1_555
C24 N4 1_555 1_555
C28 N4 1_555 1_555
H18 C28 1_555 1_555
C29 C24 1_555 1_555
O20 Zn4 1_555 1_555
O21 C29 1_555 1_555
O26 Zn4 1_555 1_555
H23 O26 1_555 1_555
H24 O26 1_555 1_555
Nd6 O22 1_555 1_555
Zn4 O19 1_555 1_555
C20 C21 1_555 1_555
C23 O18 1_555 1_555
C23 O19 1_555 1_555
C29 O20 1_555 1_555
O25 Nd6 1_555 1_555
H21 O25 1_555 1_555

#END
