
###############################################################################
#
# This file contains modified crystal structure data generated from the
# MOF subset of the Cambridge Structural Database (CSD) v543 
# hosted by the Cambridge Crystallographic Data Centre (CCDC).
#
# This work is licensed under the Creative Commons
# Attribution-NonCommercial-ShareAlike 4.0 International License.
# To view a copy of this license, visit
# http://creativecommons.org/licenses/by-nc-sa/4.0/
# or send a letter to
# Creative Commons, PO Box 1866, Mountain View, CA 94042, USA.
#
# CIF created using the CSD Python API on 29 September 2022
# The structure has been converted into the P1 space group
# The structure has a 3D framework
# The original CSD entry YUKWOS is in the triclinic crystal system
# The framework has been calculated to contain at least 10.0% void space
# The void calculation uses a probe of radius 1.32A, grid spacing 0.4
#
###############################################################################

data_YUKWOS
_chemical_formula_moiety         '(C30 H24 N4 O24 Pr2 Zn2)n'
_symmetry_cell_setting           triclinic
_symmetry_space_group_name_H-M   'P 1'
_symmetry_Int_Tables_number      1
_space_group_name_Hall           'P 1'
loop_
_symmetry_equiv_pos_site_id
_symmetry_equiv_pos_as_xyz
1 x,y,z
_cell_length_a                   10.0154(17)
_cell_length_b                   10.7448(18)
_cell_length_c                   10.9746(19)
_cell_angle_alpha                80.363(2)
_cell_angle_beta                 72.521(2)
_cell_angle_gamma                74.593(2)
_cell_volume                     1081.06
loop_
_atom_site_label
_atom_site_type_symbol
_atom_site_fract_x
_atom_site_fract_y
_atom_site_fract_z
_atom_site_U_iso_or_equiv
_atom_site_thermal_displace_type
C3 C 0.0075(3) 0.1615(2) 0.0746(2) 0.0204 Uani
H1 H 0.188(4) 0.226(4) 0.009(4) 0.0480 Uiso
C15 C 0.0328(3) 0.1139(2) 0.2047(2) 0.0186 Uani
O4 O 0.1136(2) 0.00593(18) 0.22165(17) 0.0271 Uani
H24 H 0.359(7) 0.040(6) 0.195(6) 0.1400 Uiso
C4 C 0.1040(3) 0.2264(3) 0.9862(3) 0.0300 Uani
C5 C 0.0795(4) 0.2780(3) 0.8691(3) 0.0338 Uani
H2 H 0.144(5) 0.319(4) 0.804(4) 0.0510 Uiso
O11 O 0.0021(3) 0.1437(2) 0.5602(2) 0.0403 Uani
H7 H 0.0883(19) 0.114(4) 0.520(4) 0.0610 Uiso
C16 C 0.0603(3) 0.4776(2) 0.4392(2) 0.0207 Uani
O14 O 0.1632(2) 0.5325(2) 0.40546(18) 0.0283 Uani
O15 O 0.0455(2) 0.3912(2) 0.38522(19) 0.0286 Uani
Pr5 Pr 0.176874(13) 0.695709(11) 0.535356(11) 0.0160 Uani
Zn4 Zn 0.29292(3) 0.86803(3) 0.11509(3) 0.0229 Uani
C1 C 0.8903(3) 0.1475(2) 0.0397(2) 0.0190 Uani
C2 C 0.7808(3) 0.0730(2) 0.1239(2) 0.0212 Uani
C7 C 0.4421(3) 0.3232(3) 0.0495(3) 0.0312 Uani
H4 H 0.477(4) 0.274(3) 0.117(3) 0.0300 Uiso
C8 C 0.3192(4) 0.4222(3) 0.0680(3) 0.0352 Uani
H5 H 0.261(4) 0.440(4) 0.151(4) 0.0430 Uiso
O1 O 0.6889(2) 0.0582(2) 0.07308(18) 0.0279 Uani
O2 O 0.7891(2) 0.0307(2) 0.23409(18) 0.0301 Uani
O3 O 0.9760(2) 0.19280(19) 0.28737(18) 0.0281 Uani
Pr3 Pr 0.823126(13) 0.304291(11) 0.464644(11) 0.0160 Uani
Zn1 Zn 0.70708(3) 0.13197(3) 0.88491(3) 0.0229 Uani
N1 N 0.8684(2) 0.1975(2) 0.9247(2) 0.0221 Uani
N2 N 0.5237(2) 0.2934(2) 0.9326(2) 0.0242 Uani
C6 C 0.9602(3) 0.2622(3) 0.8421(3) 0.0284 Uani
H3 H 0.933(4) 0.299(3) 0.772(3) 0.0310 Uiso
C9 C 0.2787(3) 0.4908(3) 0.9615(3) 0.0309 Uani
H6 H 0.201(4) 0.555(4) 0.965(3) 0.0310 Uiso
C10 C 0.3620(3) 0.4621(2) 0.8392(2) 0.0219 Uani
C11 C 0.4862(3) 0.3631(2) 0.8296(2) 0.0203 Uani
C12 C 0.3132(3) 0.5373(3) 0.7254(2) 0.0222 Uani
C13 C 0.5925(3) 0.3302(2) 0.7034(2) 0.0197 Uani
C14 C 0.9397(3) 0.5224(2) 0.5608(2) 0.0207 Uani
O5 O 0.70443(19) 0.24044(17) 0.70557(16) 0.0219 Uani
O6 O 0.5724(2) 0.39471(19) 0.60300(17) 0.0252 Uani
O7 O 0.3336(2) 0.65009(19) 0.6922(2) 0.0301 Uani
O8 O 0.2442(2) 0.48975(19) 0.6747(2) 0.0308 Uani
O9 O 0.8368(2) 0.4675(2) 0.59454(18) 0.0283 Uani
O10 O 0.9545(2) 0.6088(2) 0.61478(19) 0.0286 Uani
H8 H 0.979(5) 0.098(3) 0.630(2) 0.0510 Uiso
O12 O 0.7274(3) 0.1085(2) 0.4767(2) 0.0390 Uani
H9 H 0.740(4) 0.082(4) 0.405(2) 0.0430 Uiso
H10 H 0.671(5) 0.075(5) 0.540(4) 0.0970 Uiso
O13 O 0.5894(3) 0.0101(3) 0.8621(2) 0.0417 Uani
H11 H 0.5004(18) 0.035(6) 0.868(6) 0.1000 Uiso
N3 N 0.1316(2) 0.8025(2) 0.0753(2) 0.0221 Uani
N4 N 0.4763(2) 0.7066(2) 0.0674(2) 0.0242 Uani
C22 C 0.0398(3) 0.7378(3) 0.1579(3) 0.0284 Uani
H15 H 0.067(4) 0.701(3) 0.228(3) 0.0310 Uiso
C25 C 0.7213(3) 0.5092(3) 0.0385(3) 0.0309 Uani
H18 H 0.799(4) 0.445(4) 0.035(3) 0.0310 Uiso
C26 C 0.6380(3) 0.5379(2) 0.1608(2) 0.0219 Uani
C27 C 0.5138(3) 0.6369(2) 0.1704(2) 0.0203 Uani
C28 C 0.6868(3) 0.4627(3) 0.2746(2) 0.0222 Uani
C29 C 0.4075(3) 0.6698(2) 0.2966(2) 0.0197 Uani
O20 O 0.29557(19) 0.75956(17) 0.29443(16) 0.0219 Uani
O21 O 0.4276(2) 0.60529(19) 0.39700(17) 0.0252 Uani
O22 O 0.6664(2) 0.34991(19) 0.3078(2) 0.0301 Uani
O23 O 0.7558(2) 0.51025(19) 0.3253(2) 0.0308 Uani
H20 H 0.021(5) 0.902(3) 0.370(2) 0.0510 Uiso
O25 O 0.2726(3) 0.8915(2) 0.5233(2) 0.0390 Uani
H21 H 0.260(4) 0.918(4) 0.595(2) 0.0430 Uiso
H22 H 0.329(5) 0.925(5) 0.460(4) 0.0970 Uiso
O26 O 0.4106(3) 0.9899(3) 0.1379(2) 0.0417 Uani
H23 H 0.4996(18) 0.965(6) 0.132(6) 0.1000 Uiso
O28 O 0.0240(2) 0.80720(19) 0.71263(18) 0.0281 Uani
C17 C 0.1097(3) 0.8525(2) 0.9603(2) 0.0190 Uani
C18 C 0.2192(3) 0.9270(2) 0.8761(2) 0.0212 Uani
C23 C 0.5579(3) 0.6768(3) 0.9505(3) 0.0312 Uani
H16 H 0.523(4) 0.726(3) 0.883(3) 0.0300 Uiso
C24 C 0.6808(4) 0.5778(3) 0.9320(3) 0.0352 Uani
H17 H 0.739(4) 0.560(4) 0.849(4) 0.0430 Uiso
O16 O 0.3111(2) 0.9418(2) 0.92692(18) 0.0279 Uani
O17 O 0.2109(2) 0.9693(2) 0.76591(18) 0.0301 Uani
C20 C 0.8960(3) 0.7736(3) 0.0138(3) 0.0300 Uani
C21 C 0.9205(4) 0.7220(3) 0.1309(3) 0.0338 Uani
H14 H 0.856(5) 0.681(4) 0.196(4) 0.0510 Uiso
O24 O 0.9979(3) 0.8563(2) 0.4398(2) 0.0403 Uani
H19 H 0.9117(19) 0.886(4) 0.480(4) 0.0610 Uiso
H12 H 0.641(7) 0.960(6) 0.805(6) 0.1400 Uiso
O30 O 0.8864(2) 0.99407(18) 0.77835(17) 0.0271 Uani
C19 C 0.9925(3) 0.8385(2) 0.9254(2) 0.0204 Uani
H13 H 0.812(4) 0.774(4) 0.991(4) 0.0480 Uiso
C30 C 0.9672(3) 0.8861(2) 0.7953(2) 0.0186 Uani
loop_
_atom_site_aniso_label
_atom_site_aniso_U_11
_atom_site_aniso_U_22
_atom_site_aniso_U_33
_atom_site_aniso_U_23
_atom_site_aniso_U_13
_atom_site_aniso_U_12
C3 0.0244 0.0188 0.0165 -0.0009 -0.0045 -0.0042
C15 0.0174 0.0227 0.0154 -0.0005 -0.0021 -0.0075
O4 0.0302 0.0255 0.0196 -0.0009 -0.0062 0.0024
C4 0.0336 0.0341 0.0246 0.0036 -0.0075 -0.0159
C5 0.0434 0.0362 0.0214 0.0084 -0.0034 -0.0212
O11 0.0335 0.048 0.0237 0.0099 -0.0045 0.005
C16 0.0193 0.0236 0.0176 -0.0004 -0.0027 -0.0056
O14 0.0254 0.0353 0.0242 -0.0078 0.0041 -0.0164
O15 0.0253 0.0338 0.0274 -0.0128 0.0024 -0.0127
Pr5 0.0168 0.01752 0.01203 0.00042 -0.00156 -0.00476
Zn4 0.02337 0.02663 0.01689 0.00306 -0.00727 -0.00372
C1 0.023 0.0173 0.0145 -0.0008 -0.0046 -0.002
C2 0.0234 0.021 0.0165 -0.0004 -0.0037 -0.0032
C7 0.0351 0.0389 0.0145 0.002 -0.0054 -0.0043
C8 0.0381 0.0408 0.0166 -0.0044 0.0017 -0.0015
O1 0.0269 0.0373 0.0208 0.0058 -0.0085 -0.0125
O2 0.041 0.0351 0.0181 0.0062 -0.0111 -0.0169
O3 0.0321 0.0299 0.021 -0.0085 -0.0056 -0.0029
Pr3 0.0168 0.01752 0.01203 0.00042 -0.00156 -0.00476
Zn1 0.02337 0.02663 0.01689 0.00306 -0.00727 -0.00372
N1 0.0272 0.0222 0.0152 0.0013 -0.0066 -0.0036
N2 0.0239 0.0295 0.0142 0.0036 -0.004 -0.0026
C6 0.0424 0.0264 0.0148 0.0058 -0.0075 -0.0104
C9 0.0297 0.0307 0.0234 -0.0023 -0.0019 0.0019
C10 0.0216 0.0229 0.0184 0.0018 -0.0033 -0.0053
C11 0.0202 0.0229 0.0154 0.0022 -0.003 -0.0055
C12 0.0168 0.0229 0.0196 0.0022 0.0001 -0.0007
C13 0.0176 0.0236 0.0163 0.0014 -0.0025 -0.0066
C14 0.0193 0.0236 0.0176 -0.0004 -0.0027 -0.0056
O5 0.0189 0.0246 0.0165 0.0027 -0.0026 -0.0009
O6 0.0216 0.0334 0.0137 0.0058 -0.0027 -0.0022
O7 0.0357 0.0239 0.032 0.0053 -0.0144 -0.0079
O8 0.0332 0.0308 0.0316 0.0097 -0.0148 -0.0137
O9 0.0254 0.0353 0.0242 -0.0078 0.0041 -0.0164
O10 0.0253 0.0338 0.0274 -0.0128 0.0024 -0.0127
O12 0.0555 0.0422 0.0236 -0.0037 -0.0007 -0.0296
O13 0.0354 0.0593 0.0365 -0.0017 -0.0059 -0.0274
N3 0.0272 0.0222 0.0152 0.0013 -0.0066 -0.0036
N4 0.0239 0.0295 0.0142 0.0036 -0.004 -0.0026
C22 0.0424 0.0264 0.0148 0.0058 -0.0075 -0.0104
C25 0.0297 0.0307 0.0234 -0.0023 -0.0019 0.0019
C26 0.0216 0.0229 0.0184 0.0018 -0.0033 -0.0053
C27 0.0202 0.0229 0.0154 0.0022 -0.003 -0.0055
C28 0.0168 0.0229 0.0196 0.0022 0.0001 -0.0007
C29 0.0176 0.0236 0.0163 0.0014 -0.0025 -0.0066
O20 0.0189 0.0246 0.0165 0.0027 -0.0026 -0.0009
O21 0.0216 0.0334 0.0137 0.0058 -0.0027 -0.0022
O22 0.0357 0.0239 0.032 0.0053 -0.0144 -0.0079
O23 0.0332 0.0308 0.0316 0.0097 -0.0148 -0.0137
O25 0.0555 0.0422 0.0236 -0.0037 -0.0007 -0.0296
O26 0.0354 0.0593 0.0365 -0.0017 -0.0059 -0.0274
O28 0.0321 0.0299 0.021 -0.0085 -0.0056 -0.0029
C17 0.023 0.0173 0.0145 -0.0008 -0.0046 -0.002
C18 0.0234 0.021 0.0165 -0.0004 -0.0037 -0.0032
C23 0.0351 0.0389 0.0145 0.002 -0.0054 -0.0043
C24 0.0381 0.0408 0.0166 -0.0044 0.0017 -0.0015
O16 0.0269 0.0373 0.0208 0.0058 -0.0085 -0.0125
O17 0.041 0.0351 0.0181 0.0062 -0.0111 -0.0169
C20 0.0336 0.0341 0.0246 0.0036 -0.0075 -0.0159
C21 0.0434 0.0362 0.0214 0.0084 -0.0034 -0.0212
O24 0.0335 0.048 0.0237 0.0099 -0.0045 0.005
O30 0.0302 0.0255 0.0196 -0.0009 -0.0062 0.0024
C19 0.0244 0.0188 0.0165 -0.0009 -0.0045 -0.0042
C30 0.0174 0.0227 0.0154 -0.0005 -0.0021 -0.0075
loop_
_geom_bond_atom_site_label_1
_geom_bond_atom_site_label_2
_geom_bond_site_symmetry_1
_geom_bond_site_symmetry_2
C15 C3 1_555 1_555
O4 C15 1_555 1_555
C5 C4 1_555 1_555
H2 C5 1_555 1_555
H7 O11 1_555 1_555
O14 C16 1_555 1_555
C16 O15 1_555 1_555
O14 Pr5 1_555 1_555
C1 C2 1_555 1_555
C2 O1 1_555 1_555
H4 C7 1_555 1_555
C8 C7 1_555 1_555
H5 C8 1_555 1_555
O2 C2 1_555 1_555
Pr3 O3 1_555 1_555
Pr3 O5 1_555 1_555
Zn1 N1 1_555 1_555
N2 Zn1 1_555 1_555
C6 N1 1_555 1_555
H3 C6 1_555 1_555
H6 C9 1_555 1_555
C10 C9 1_555 1_555
C11 N2 1_555 1_555
C12 C10 1_555 1_555
C13 C11 1_555 1_555
C14 O9 1_555 1_555
O5 Zn1 1_555 1_555
O6 Pr3 1_555 1_555
O7 C12 1_555 1_555
O8 C12 1_555 1_555
O9 Pr3 1_555 1_555
O10 C14 1_555 1_555
O12 Pr3 1_555 1_555
H9 O12 1_555 1_555
H10 O12 1_555 1_555
O13 Zn1 1_555 1_555
H11 O13 1_555 1_555
Pr5 O7 1_555 1_555
Zn4 N3 1_555 1_555
N4 Zn4 1_555 1_555
C22 N3 1_555 1_555
H15 C22 1_555 1_555
H18 C25 1_555 1_555
C26 C25 1_555 1_555
C27 N4 1_555 1_555
C28 C26 1_555 1_555
C29 C27 1_555 1_555
O20 Pr5 1_555 1_555
O21 Pr5 1_555 1_555
O22 Pr3 1_555 1_555
O23 Pr3 1_555 1_555
O25 Pr5 1_555 1_555
H21 O25 1_555 1_555
H22 O25 1_555 1_555
O26 Zn4 1_555 1_555
H23 O26 1_555 1_555
O28 Pr5 1_555 1_555
C10 C11 1_555 1_555
C13 O5 1_555 1_555
C13 O6 1_555 1_555
O8 Pr5 1_555 1_555
Zn4 O20 1_555 1_555
C26 C27 1_555 1_555
C28 O22 1_555 1_555
C28 O23 1_555 1_555
C29 O20 1_555 1_555
C29 O21 1_555 1_555
C17 C18 1_555 1_555
C18 O16 1_555 1_555
H16 C23 1_555 1_555
C24 C23 1_555 1_555
H17 C24 1_555 1_555
O17 C18 1_555 1_555
C21 C20 1_555 1_555
H14 C21 1_555 1_555
H19 O24 1_555 1_555
C30 C19 1_555 1_555
O30 C30 1_555 1_555

#END
