
###############################################################################
#
# This file contains modified crystal structure data generated from the
# MOF subset of the Cambridge Structural Database (CSD) v543 
# hosted by the Cambridge Crystallographic Data Centre (CCDC).
#
# This work is licensed under the Creative Commons
# Attribution-NonCommercial-ShareAlike 4.0 International License.
# To view a copy of this license, visit
# http://creativecommons.org/licenses/by-nc-sa/4.0/
# or send a letter to
# Creative Commons, PO Box 1866, Mountain View, CA 94042, USA.
#
# CIF created using the CSD Python API on 29 September 2022
# The structure has been converted into the P1 space group
# The structure has a 3D framework
# The original CSD entry YUKXAF is in the triclinic crystal system
# The framework has been calculated to contain at least 10.0% void space
# The void calculation uses a probe of radius 1.32A, grid spacing 0.4
#
###############################################################################

data_YUKXAF
_chemical_formula_moiety         '(C30 H24 Ho2 N4 O24 Zn2)n'
_symmetry_cell_setting           triclinic
_symmetry_space_group_name_H-M   'P 1'
_symmetry_Int_Tables_number      1
_space_group_name_Hall           'P 1'
loop_
_symmetry_equiv_pos_site_id
_symmetry_equiv_pos_as_xyz
1 x,y,z
_cell_length_a                   10.013(2)
_cell_length_b                   10.607(2)
_cell_length_c                   10.993(2)
_cell_angle_alpha                80.746(3)
_cell_angle_beta                 72.107(2)
_cell_angle_gamma                74.537(3)
_cell_volume                     1066.88
loop_
_atom_site_label
_atom_site_type_symbol
_atom_site_fract_x
_atom_site_fract_y
_atom_site_fract_z
_atom_site_U_iso_or_equiv
_atom_site_thermal_displace_type
C3 C 0.0062(4) 0.1619(3) 0.0775(3) 0.0193 Uani
H1 H 0.192(6) 0.229(6) 0.008(5) 0.0470 Uiso
C7 C 0.0272(3) 0.1171(3) 0.2107(3) 0.0164 Uani
O4 O 0.1057(3) 0.0068(2) 0.2305(2) 0.0244 Uani
H24 H 0.490(4) 0.001(11) 0.101(9) 0.1300 Uiso
C4 C 0.1083(4) 0.2228(4) 0.9877(4) 0.0258 Uani
C5 C 0.0874(5) 0.2723(4) 0.8685(4) 0.0295 Uani
H2 H 0.154(6) 0.314(5) 0.801(5) 0.0410 Uiso
C15 C 0.0592(3) 0.4791(3) 0.4373(3) 0.0177 Uani
O9 O 0.0426(3) 0.3934(3) 0.3811(2) 0.0245 Uani
O10 O 0.1620(3) 0.5363(3) 0.4030(2) 0.0243 Uani
O11 O 0.0019(3) 0.1537(3) 0.5544(3) 0.0309 Uani
H7 H 0.078(4) 0.116(6) 0.501(5) 0.0620 Uiso
Ho5 Ho 0.173674(14) 0.693080(13) 0.533725(13) 0.0145 Uani
Zn4 Zn 0.29117(4) 0.86772(4) 0.11771(4) 0.0208 Uani
C1 C 0.7732(4) 0.0774(3) 0.1271(3) 0.0198 Uani
C2 C 0.8882(4) 0.1487(3) 0.0420(3) 0.0172 Uani
C12 C 0.3115(4) 0.4285(4) 0.0622(4) 0.0299 Uani
H5 H 0.253(5) 0.451(5) 0.150(5) 0.0330 Uiso
C13 C 0.4370(4) 0.3285(4) 0.0450(4) 0.0267 Uani
H6 H 0.462(5) 0.285(4) 0.114(4) 0.0240 Uiso
O1 O 0.6832(3) 0.0617(3) 0.0745(3) 0.0264 Uani
O2 O 0.7779(3) 0.0362(3) 0.2390(2) 0.0287 Uani
O3 O 0.9696(3) 0.2009(3) 0.2911(2) 0.0243 Uani
Ho3 Ho 0.826326(14) 0.306920(13) 0.466275(13) 0.0145 Uani
Zn1 Zn 0.70883(4) 0.13228(4) 0.88229(4) 0.0208 Uani
N1 N 0.8698(3) 0.1970(3) 0.9249(3) 0.0206 Uani
N2 N 0.5217(3) 0.2970(3) 0.9282(3) 0.0221 Uani
C6 C 0.9662(4) 0.2585(4) 0.8404(4) 0.0253 Uani
H3 H 0.954(5) 0.287(5) 0.763(5) 0.0340 Uiso
C8 C 0.5972(4) 0.3310(3) 0.6971(3) 0.0170 Uani
C9 C 0.4852(4) 0.3644(3) 0.8233(3) 0.0189 Uani
C10 C 0.3594(4) 0.4632(3) 0.8313(3) 0.0193 Uani
C11 C 0.2717(4) 0.4951(4) 0.9537(4) 0.0266 Uani
H4 H 0.192(6) 0.571(5) 0.962(5) 0.0350 Uiso
C14 C 0.3114(4) 0.5383(3) 0.7157(3) 0.0203 Uani
O5 O 0.7110(3) 0.2414(2) 0.7011(2) 0.0199 Uani
O6 O 0.5805(3) 0.3946(3) 0.5952(2) 0.0222 Uani
O7 O 0.3290(3) 0.6539(2) 0.6840(3) 0.0272 Uani
O8 O 0.2437(3) 0.4892(3) 0.6632(3) 0.0268 Uani
H8 H 0.976(7) 0.101(5) 0.619(4) 0.0600 Uiso
O12 O 0.7393(3) 0.1131(3) 0.4811(3) 0.0293 Uani
H9 H 0.755(5) 0.089(4) 0.407(2) 0.0280 Uiso
H10 H 0.665(5) 0.094(7) 0.534(5) 0.0800 Uiso
O13 O 0.5971(3) 0.0024(4) 0.8610(3) 0.0375 Uani
H11 H 0.524(6) 0.040(8) 0.834(8) 0.0900 Uiso
C16 C 0.9408(3) 0.5209(3) 0.5627(3) 0.0177 Uani
O14 O 0.9574(3) 0.6066(3) 0.6189(2) 0.0245 Uani
O15 O 0.8380(3) 0.4637(3) 0.5970(2) 0.0243 Uani
N3 N 0.1302(3) 0.8030(3) 0.0751(3) 0.0206 Uani
N4 N 0.4783(3) 0.7030(3) 0.0718(3) 0.0221 Uani
C22 C 0.0338(4) 0.7415(4) 0.1596(4) 0.0253 Uani
H15 H 0.046(5) 0.713(5) 0.237(5) 0.0340 Uiso
C24 C 0.4028(4) 0.6690(3) 0.3029(3) 0.0170 Uani
C25 C 0.5148(4) 0.6356(3) 0.1767(3) 0.0189 Uani
C26 C 0.6406(4) 0.5368(3) 0.1687(3) 0.0193 Uani
C27 C 0.7283(4) 0.5049(4) 0.0463(4) 0.0266 Uani
H16 H 0.808(6) 0.429(5) 0.038(5) 0.0350 Uiso
C30 C 0.6886(4) 0.4617(3) 0.2843(3) 0.0203 Uani
O20 O 0.2890(3) 0.7586(2) 0.2989(2) 0.0199 Uani
O21 O 0.4195(3) 0.6054(3) 0.4048(2) 0.0222 Uani
O22 O 0.6710(3) 0.3461(2) 0.3160(3) 0.0272 Uani
O23 O 0.7563(3) 0.5108(3) 0.3368(3) 0.0268 Uani
H20 H 0.024(7) 0.899(5) 0.381(4) 0.0600 Uiso
O25 O 0.2607(3) 0.8869(3) 0.5189(3) 0.0293 Uani
H21 H 0.245(5) 0.911(4) 0.593(2) 0.0280 Uiso
H22 H 0.335(5) 0.906(7) 0.466(5) 0.0800 Uiso
O26 O 0.4029(3) 0.9976(4) 0.1390(3) 0.0375 Uani
H23 H 0.476(6) 0.960(8) 0.166(8) 0.0900 Uiso
O28 O 0.0304(3) 0.7991(3) 0.7089(2) 0.0243 Uani
C17 C 0.2268(4) 0.9226(3) 0.8729(3) 0.0198 Uani
C18 C 0.1118(4) 0.8513(3) 0.9580(3) 0.0172 Uani
C28 C 0.6885(4) 0.5715(4) 0.9378(4) 0.0299 Uani
H17 H 0.747(5) 0.549(5) 0.850(5) 0.0330 Uiso
C29 C 0.5630(4) 0.6715(4) 0.9550(4) 0.0267 Uani
H18 H 0.538(5) 0.715(4) 0.886(4) 0.0240 Uiso
O16 O 0.3168(3) 0.9383(3) 0.9255(3) 0.0264 Uani
O17 O 0.2221(3) 0.9638(3) 0.7610(2) 0.0287 Uani
C20 C 0.8917(4) 0.7772(4) 0.0123(4) 0.0258 Uani
C21 C 0.9126(5) 0.7277(4) 0.1315(4) 0.0295 Uani
H14 H 0.846(6) 0.686(5) 0.199(5) 0.0410 Uiso
O24 O 0.9981(3) 0.8463(3) 0.4456(3) 0.0309 Uani
H19 H 0.922(4) 0.884(6) 0.499(5) 0.0620 Uiso
H12 H 0.510(4) 0.999(11) 0.899(9) 0.1300 Uiso
O30 O 0.8943(3) 0.9932(2) 0.7695(2) 0.0244 Uani
C19 C 0.9938(4) 0.8381(3) 0.9225(3) 0.0193 Uani
H13 H 0.808(6) 0.771(6) 0.992(5) 0.0470 Uiso
C23 C 0.9728(3) 0.8829(3) 0.7893(3) 0.0164 Uani
loop_
_atom_site_aniso_label
_atom_site_aniso_U_11
_atom_site_aniso_U_22
_atom_site_aniso_U_33
_atom_site_aniso_U_23
_atom_site_aniso_U_13
_atom_site_aniso_U_12
C3 0.0253 0.0162 0.0171 -0.0035 -0.0077 -0.0024
C7 0.0127 0.0216 0.0163 -0.0027 -0.0044 -0.0051
O4 0.0273 0.0206 0.0221 -0.0016 -0.0086 0.0019
C4 0.0275 0.0273 0.0264 0.0015 -0.0097 -0.0121
C5 0.035 0.032 0.0221 0.0025 -0.004 -0.0163
C15 0.0171 0.0177 0.0173 -0.0007 -0.0054 -0.0021
O9 0.0231 0.0268 0.0244 -0.011 -0.0021 -0.007
O10 0.0222 0.0277 0.0235 -0.0079 0.0001 -0.0109
O11 0.0231 0.037 0.0233 0.0023 -0.0049 0.004
Ho5 0.01364 0.01488 0.01419 -0.00207 -0.00372 -0.00191
Zn4 0.0201 0.023 0.0192 0.00031 -0.00921 -0.00162
C1 0.0191 0.0184 0.0209 -0.0031 -0.0073 0
C2 0.021 0.0132 0.0164 -0.0024 -0.0073 0.0007
C12 0.03 0.035 0.0173 -0.0042 0 -0.0016
C13 0.03 0.0305 0.017 -0.0014 -0.0067 -0.0026
O1 0.0235 0.034 0.0245 0.003 -0.011 -0.0093
O2 0.04 0.0333 0.0183 0.0029 -0.0119 -0.0161
O3 0.0239 0.0252 0.0223 -0.0096 -0.0054 0.0001
Ho3 0.01364 0.01488 0.01419 -0.00207 -0.00372 -0.00191
Zn1 0.0201 0.023 0.0192 0.00031 -0.00921 -0.00162
N1 0.0246 0.02 0.0167 -0.0018 -0.0079 -0.0018
N2 0.0211 0.0242 0.0179 0.0007 -0.0052 -0.0016
C6 0.037 0.0231 0.0164 0.0037 -0.0095 -0.0086
C8 0.0155 0.0188 0.0162 -0.0025 -0.0032 -0.0042
C9 0.0181 0.0199 0.0178 -0.0016 -0.0053 -0.0023
C10 0.0192 0.0182 0.0197 0.0003 -0.0058 -0.0037
C11 0.0254 0.0254 0.0235 -0.0031 -0.0043 0.0012
C14 0.0143 0.0222 0.0188 -0.0008 -0.002 0.0015
O5 0.0158 0.0212 0.0192 -0.0004 -0.0044 0.0001
O6 0.0175 0.0281 0.0171 0.0011 -0.0043 -0.0013
O7 0.032 0.0194 0.031 0.0024 -0.0146 -0.003
O8 0.0259 0.0288 0.0279 0.0065 -0.0124 -0.0097
O12 0.0367 0.031 0.0232 -0.0035 -0.005 -0.0159
O13 0.0306 0.0522 0.0362 -0.0046 -0.0074 -0.0219
C16 0.0171 0.0177 0.0173 -0.0007 -0.0054 -0.0021
O14 0.0231 0.0268 0.0244 -0.011 -0.0021 -0.007
O15 0.0222 0.0277 0.0235 -0.0079 0.0001 -0.0109
N3 0.0246 0.02 0.0167 -0.0018 -0.0079 -0.0018
N4 0.0211 0.0242 0.0179 0.0007 -0.0052 -0.0016
C22 0.037 0.0231 0.0164 0.0037 -0.0095 -0.0086
C24 0.0155 0.0188 0.0162 -0.0025 -0.0032 -0.0042
C25 0.0181 0.0199 0.0178 -0.0016 -0.0053 -0.0023
C26 0.0192 0.0182 0.0197 0.0003 -0.0058 -0.0037
C27 0.0254 0.0254 0.0235 -0.0031 -0.0043 0.0012
C30 0.0143 0.0222 0.0188 -0.0008 -0.002 0.0015
O20 0.0158 0.0212 0.0192 -0.0004 -0.0044 0.0001
O21 0.0175 0.0281 0.0171 0.0011 -0.0043 -0.0013
O22 0.032 0.0194 0.031 0.0024 -0.0146 -0.003
O23 0.0259 0.0288 0.0279 0.0065 -0.0124 -0.0097
O25 0.0367 0.031 0.0232 -0.0035 -0.005 -0.0159
O26 0.0306 0.0522 0.0362 -0.0046 -0.0074 -0.0219
O28 0.0239 0.0252 0.0223 -0.0096 -0.0054 0.0001
C17 0.0191 0.0184 0.0209 -0.0031 -0.0073 0
C18 0.021 0.0132 0.0164 -0.0024 -0.0073 0.0007
C28 0.03 0.035 0.0173 -0.0042 0 -0.0016
C29 0.03 0.0305 0.017 -0.0014 -0.0067 -0.0026
O16 0.0235 0.034 0.0245 0.003 -0.011 -0.0093
O17 0.04 0.0333 0.0183 0.0029 -0.0119 -0.0161
C20 0.0275 0.0273 0.0264 0.0015 -0.0097 -0.0121
C21 0.035 0.032 0.0221 0.0025 -0.004 -0.0163
O24 0.0231 0.037 0.0233 0.0023 -0.0049 0.004
O30 0.0273 0.0206 0.0221 -0.0016 -0.0086 0.0019
C19 0.0253 0.0162 0.0171 -0.0035 -0.0077 -0.0024
C23 0.0127 0.0216 0.0163 -0.0027 -0.0044 -0.0051
loop_
_geom_bond_atom_site_label_1
_geom_bond_atom_site_label_2
_geom_bond_site_symmetry_1
_geom_bond_site_symmetry_2
C7 C3 1_555 1_555
O4 C7 1_555 1_555
C5 C4 1_555 1_555
H2 C5 1_555 1_555
C15 O9 1_555 1_555
O10 C15 1_555 1_555
H7 O11 1_555 1_555
Ho5 O10 1_555 1_555
C1 C2 1_555 1_555
H5 C12 1_555 1_555
H6 C13 1_555 1_555
O2 C1 1_555 1_555
Ho3 O3 1_555 1_555
C1 O1 1_555 1_555
C12 C13 1_555 1_555
Ho3 O5 1_555 1_555
Zn1 N1 1_555 1_555
N2 Zn1 1_555 1_555
C6 N1 1_555 1_555
H3 C6 1_555 1_555
C8 C9 1_555 1_555
C9 N2 1_555 1_555
C10 C9 1_555 1_555
C11 C10 1_555 1_555
H4 C11 1_555 1_555
C14 C10 1_555 1_555
O5 Zn1 1_555 1_555
O6 Ho3 1_555 1_555
O7 C14 1_555 1_555
O8 C14 1_555 1_555
O12 Ho3 1_555 1_555
H9 O12 1_555 1_555
H10 O12 1_555 1_555
O13 Zn1 1_555 1_555
H11 O13 1_555 1_555
O14 C16 1_555 1_555
O15 Ho3 1_555 1_555
Ho5 O7 1_555 1_555
Zn4 N3 1_555 1_555
N4 Zn4 1_555 1_555
C22 N3 1_555 1_555
H15 C22 1_555 1_555
C24 C25 1_555 1_555
C25 N4 1_555 1_555
C26 C25 1_555 1_555
C27 C26 1_555 1_555
H16 C27 1_555 1_555
C30 C26 1_555 1_555
O20 Ho5 1_555 1_555
O21 Ho5 1_555 1_555
O22 Ho3 1_555 1_555
O23 Ho3 1_555 1_555
O25 Ho5 1_555 1_555
H21 O25 1_555 1_555
H22 O25 1_555 1_555
O26 Zn4 1_555 1_555
H23 O26 1_555 1_555
O28 Ho5 1_555 1_555
C8 O5 1_555 1_555
C8 O6 1_555 1_555
O8 Ho5 1_555 1_555
C16 O15 1_555 1_555
Zn4 O20 1_555 1_555
C24 O20 1_555 1_555
C24 O21 1_555 1_555
C30 O22 1_555 1_555
C30 O23 1_555 1_555
C17 C18 1_555 1_555
H17 C28 1_555 1_555
H18 C29 1_555 1_555
O17 C17 1_555 1_555
C17 O16 1_555 1_555
C28 C29 1_555 1_555
C21 C20 1_555 1_555
H14 C21 1_555 1_555
H19 O24 1_555 1_555
C23 C19 1_555 1_555
O30 C23 1_555 1_555

#END
