
###############################################################################
#
# This file contains modified crystal structure data generated from the
# MOF subset of the Cambridge Structural Database (CSD) v543 
# hosted by the Cambridge Crystallographic Data Centre (CCDC).
#
# This work is licensed under the Creative Commons
# Attribution-NonCommercial-ShareAlike 4.0 International License.
# To view a copy of this license, visit
# http://creativecommons.org/licenses/by-nc-sa/4.0/
# or send a letter to
# Creative Commons, PO Box 1866, Mountain View, CA 94042, USA.
#
# CIF created using the CSD Python API on 29 September 2022
# The structure has been converted into the P1 space group
# The structure has a 3D framework
# The original CSD entry YUKXEJ is in the triclinic crystal system
# The framework has been calculated to contain at least 10.0% void space
# The void calculation uses a probe of radius 1.32A, grid spacing 0.4
#
###############################################################################

data_YUKXEJ
_chemical_formula_moiety         '(C30 H24 Er2 N4 O24 Zn2)n'
_symmetry_cell_setting           triclinic
_symmetry_space_group_name_H-M   'P 1'
_symmetry_Int_Tables_number      1
_space_group_name_Hall           'P 1'
loop_
_symmetry_equiv_pos_site_id
_symmetry_equiv_pos_as_xyz
1 x,y,z
_cell_length_a                   9.9555(10)
_cell_length_b                   10.5461(11)
_cell_length_c                   10.9407(11)
_cell_angle_alpha                80.7680(10)
_cell_angle_beta                 71.9810(10)
_cell_angle_gamma                74.5670(10)
_cell_volume                     1049.13
loop_
_atom_site_label
_atom_site_type_symbol
_atom_site_fract_x
_atom_site_fract_y
_atom_site_fract_z
_atom_site_U_iso_or_equiv
_atom_site_thermal_displace_type
Er1 Er 0.173382(12) 0.192787(11) 0.033689(11) 0.0126 Uani
O12 O 0.2598(3) 0.3866(2) 0.0189(2) 0.0269 Uani
H9 H 0.247(5) 0.410(4) 0.0925(19) 0.0300 Uiso
O27 O 0.0314(2) 0.2979(2) 0.2091(2) 0.0218 Uani
O32 O 0.3286(3) 0.1542(2) 0.1833(2) 0.0250 Uani
Zn1 Zn 0.29091(4) 0.36783(3) 0.61807(3) 0.0187 Uani
N1 N 0.1300(3) 0.3033(2) 0.5751(2) 0.0182 Uani
N2 N 0.4781(3) 0.2027(3) 0.5724(2) 0.0198 Uani
C1 C 0.0326(4) 0.2422(3) 0.6598(3) 0.0244 Uani
H1 H 0.047(5) 0.213(5) 0.741(5) 0.0480 Uiso
C5 C 0.1122(3) 0.3513(3) 0.4577(3) 0.0152 Uani
C6 C 0.2269(3) 0.4226(3) 0.3727(3) 0.0173 Uani
C8 C 0.5636(4) 0.1705(3) 0.4553(3) 0.0235 Uani
H4 H 0.533(4) 0.218(4) 0.390(4) 0.0190 Uiso
C9 C 0.6894(4) 0.0710(3) 0.4386(3) 0.0276 Uani
H5 H 0.748(5) 0.061(4) 0.354(5) 0.0450 Uiso
C10 C 0.7286(4) 0.0051(3) 0.5466(3) 0.0251 Uani
C11 C 0.6409(3) 0.0367(3) 0.6694(3) 0.0172 Uani
C12 C 0.5148(3) 0.1354(3) 0.6773(3) 0.0159 Uani
C13 C 0.4018(3) 0.1688(3) 0.8032(3) 0.0154 Uani
O1 O 0.2233(3) 0.4631(2) 0.2606(2) 0.0259 Uani
O2 O 0.3173(2) 0.4385(2) 0.4257(2) 0.0240 Uani
O5 O 0.2886(2) 0.2584(2) 0.79915(19) 0.0182 Uani
O6 O 0.4184(2) 0.1056(2) 0.90581(19) 0.0197 Uani
O8 O 0.7568(2) 0.0104(2) 0.8374(2) 0.0246 Uani
H8 H 0.025(7) 0.400(5) 0.885(4) 0.0740 Uiso
H10 H 0.334(4) 0.411(6) 0.969(5) 0.0690 Uiso
O13 O 0.4033(3) 0.4975(3) 0.6390(3) 0.0340 Uani
H11 H 0.4924(18) 0.470(5) 0.635(5) 0.0510 Uiso
H12 H 0.362(5) 0.544(4) 0.702(3) 0.0510 Uiso
O15 O 0.1620(2) 0.0370(2) 0.9030(2) 0.0219 Uani
O30 O 0.1049(2) 0.5067(2) 0.7313(2) 0.0222 Uani
C18 C 0.0881(4) 0.7717(4) 0.3683(3) 0.0283 Uani
H14 H 0.151(5) 0.812(4) 0.311(4) 0.0390 Uiso
C19 C 0.1085(4) 0.7227(3) 0.4880(3) 0.0241 Uani
H15 H 0.193(5) 0.735(4) 0.509(4) 0.0330 Uiso
C20 C 0.0062(3) 0.6617(3) 0.5779(3) 0.0158 Uani
C23 C 0.0266(3) 0.6175(3) 0.7110(3) 0.0143 Uani
O24 O 0.0014(3) 0.6553(2) 0.0535(2) 0.0268 Uani
H19 H 0.079(3) 0.620(4) 0.001(3) 0.0400 Uiso
O34 O 0.2432(2) 0.9896(2) 0.1626(2) 0.0246 Uani
H6 H 0.806(5) 0.945(5) 0.538(4) 0.0400 Uiso
C14 C 0.6897(3) 0.9609(3) 0.7847(3) 0.0179 Uani
O7 O 0.6714(3) 0.8458(2) 0.8167(2) 0.0250 Uani
C16 C 0.0593(3) 0.9798(3) 0.9373(3) 0.0157 Uani
O14 O 0.0420(2) 0.8940(2) 0.8807(2) 0.0208 Uani
Er6 Er 0.826618(12) 0.807213(11) 0.966311(11) 0.0126 Uani
C15 C 0.9407(3) 0.0202(3) 0.0627(3) 0.0157 Uani
O9 O 0.9580(2) 0.1060(2) 0.1193(2) 0.0208 Uani
H18 H 0.194(5) 0.055(5) 0.462(4) 0.0400 Uiso
C30 C 0.3103(3) 0.0391(3) 0.2153(3) 0.0179 Uani
C2 C 0.9119(4) 0.2283(4) 0.6317(3) 0.0283 Uani
H2 H 0.849(5) 0.188(4) 0.689(4) 0.0390 Uiso
C3 C 0.8915(4) 0.2773(3) 0.5120(3) 0.0241 Uani
H3 H 0.807(5) 0.265(4) 0.491(4) 0.0330 Uiso
C4 C 0.9938(3) 0.3383(3) 0.4221(3) 0.0158 Uani
C7 C 0.9734(3) 0.3825(3) 0.2890(3) 0.0143 Uani
O4 O 0.8951(2) 0.4933(2) 0.2687(2) 0.0222 Uani
O11 O 0.9986(3) 0.3447(2) 0.9465(2) 0.0268 Uani
H7 H 0.921(3) 0.380(4) 0.999(3) 0.0400 Uiso
Zn4 Zn 0.70909(4) 0.63217(3) 0.38193(3) 0.0187 Uani
O10 O 0.8380(2) 0.9630(2) 0.0970(2) 0.0219 Uani
N3 N 0.8700(3) 0.6967(2) 0.4249(2) 0.0182 Uani
N4 N 0.5219(3) 0.7973(3) 0.4276(2) 0.0198 Uani
C17 C 0.9674(4) 0.7578(3) 0.3402(3) 0.0244 Uani
H13 H 0.953(5) 0.787(5) 0.259(5) 0.0480 Uiso
C21 C 0.8878(3) 0.6487(3) 0.5423(3) 0.0152 Uani
C22 C 0.7731(3) 0.5774(3) 0.6273(3) 0.0173 Uani
C24 C 0.4364(4) 0.8295(3) 0.5447(3) 0.0235 Uani
H16 H 0.467(4) 0.782(4) 0.610(4) 0.0190 Uiso
C25 C 0.3106(4) 0.9290(3) 0.5614(3) 0.0276 Uani
H17 H 0.252(5) 0.939(4) 0.646(5) 0.0450 Uiso
C26 C 0.2714(4) 0.9949(3) 0.4534(3) 0.0251 Uani
C27 C 0.3591(3) 0.9633(3) 0.3306(3) 0.0172 Uani
C28 C 0.4852(3) 0.8646(3) 0.3227(3) 0.0159 Uani
C29 C 0.5982(3) 0.8312(3) 0.1968(3) 0.0154 Uani
O16 O 0.7767(3) 0.5369(2) 0.7394(2) 0.0259 Uani
O17 O 0.6827(2) 0.5615(2) 0.5743(2) 0.0240 Uani
O18 O 0.9686(2) 0.7021(2) 0.7909(2) 0.0218 Uani
O20 O 0.7114(2) 0.7416(2) 0.20085(19) 0.0182 Uani
O21 O 0.5816(2) 0.8944(2) 0.09419(19) 0.0197 Uani
H20 H 0.975(7) 0.600(5) 0.115(4) 0.0740 Uiso
H22 H 0.666(4) 0.589(6) 0.031(5) 0.0690 Uiso
O26 O 0.5967(3) 0.5025(3) 0.3610(3) 0.0340 Uani
H23 H 0.5076(18) 0.530(5) 0.365(5) 0.0510 Uiso
H24 H 0.638(5) 0.456(4) 0.298(3) 0.0510 Uiso
O25 O 0.7402(3) 0.6134(2) 0.9811(2) 0.0269 Uani
H21 H 0.753(5) 0.590(4) 0.9075(19) 0.0300 Uiso
loop_
_atom_site_aniso_label
_atom_site_aniso_U_11
_atom_site_aniso_U_22
_atom_site_aniso_U_33
_atom_site_aniso_U_23
_atom_site_aniso_U_13
_atom_site_aniso_U_12
Er1 0.01406 0.01295 0.01053 -0.00087 -0.00283 -0.00369
O12 0.0365 0.0293 0.0197 -0.0024 -0.0051 -0.0185
O27 0.024 0.0235 0.0177 -0.0082 -0.0045 -0.003
O32 0.0301 0.0185 0.0264 0.0033 -0.0112 -0.0047
Zn1 0.0204 0.02099 0.01499 0.00165 -0.00788 -0.00358
N1 0.0251 0.017 0.0134 -0.0001 -0.0073 -0.0048
N2 0.0231 0.0226 0.0123 0.0024 -0.0062 -0.0039
C1 0.0372 0.0228 0.014 0.0035 -0.0084 -0.0099
C5 0.022 0.0121 0.0115 -0.0015 -0.0059 -0.0024
C6 0.02 0.0151 0.0163 -0.0007 -0.005 -0.0039
C8 0.0282 0.0272 0.0121 0.0016 -0.0056 -0.0032
C9 0.0328 0.0303 0.0139 -0.0042 -0.0002 -0.0037
C10 0.0253 0.0208 0.0223 -0.0039 -0.0027 0.0028
C11 0.0202 0.0169 0.0145 0.0015 -0.005 -0.0056
C12 0.0163 0.018 0.0132 0.0015 -0.0051 -0.0039
C13 0.0154 0.0185 0.0127 -0.0016 -0.0035 -0.0049
O1 0.039 0.0303 0.0141 0.0038 -0.0096 -0.0181
O2 0.0243 0.0308 0.0195 0.0043 -0.0099 -0.01
O5 0.0172 0.0187 0.0159 0.0008 -0.0036 -0.002
O6 0.0188 0.0248 0.013 0.0037 -0.0048 -0.0036
O8 0.0256 0.0264 0.0242 0.0063 -0.0114 -0.0099
O13 0.03 0.0461 0.0317 -0.008 -0.0046 -0.0204
O15 0.0222 0.0248 0.0189 -0.0049 0.0009 -0.0116
O30 0.0253 0.0207 0.017 0.0003 -0.0063 -0.0002
C18 0.0368 0.0306 0.0184 0.0045 -0.0035 -0.0183
C19 0.027 0.0277 0.0207 0.0014 -0.007 -0.013
C20 0.0223 0.0116 0.0133 -0.0012 -0.0049 -0.0036
C23 0.0168 0.0165 0.0121 -0.0006 -0.0047 -0.0075
O24 0.0232 0.0321 0.0176 0.0032 -0.0032 -0.0002
O34 0.0256 0.0264 0.0242 0.0063 -0.0114 -0.0099
C14 0.0152 0.0186 0.0142 0.0017 -0.0012 0.0006
O7 0.0301 0.0185 0.0264 0.0033 -0.0112 -0.0047
C16 0.0165 0.0157 0.0142 -0.0007 -0.0037 -0.0034
O14 0.0229 0.0236 0.0181 -0.0089 -0.001 -0.0102
Er6 0.01406 0.01295 0.01053 -0.00087 -0.00283 -0.00369
C15 0.0165 0.0157 0.0142 -0.0007 -0.0037 -0.0034
O9 0.0229 0.0236 0.0181 -0.0089 -0.001 -0.0102
C30 0.0152 0.0186 0.0142 0.0017 -0.0012 0.0006
C2 0.0368 0.0306 0.0184 0.0045 -0.0035 -0.0183
C3 0.027 0.0277 0.0207 0.0014 -0.007 -0.013
C4 0.0223 0.0116 0.0133 -0.0012 -0.0049 -0.0036
C7 0.0168 0.0165 0.0121 -0.0006 -0.0047 -0.0075
O4 0.0253 0.0207 0.017 0.0003 -0.0063 -0.0002
O11 0.0232 0.0321 0.0176 0.0032 -0.0032 -0.0002
Zn4 0.0204 0.02099 0.01499 0.00165 -0.00788 -0.00358
O10 0.0222 0.0248 0.0189 -0.0049 0.0009 -0.0116
N3 0.0251 0.017 0.0134 -0.0001 -0.0073 -0.0048
N4 0.0231 0.0226 0.0123 0.0024 -0.0062 -0.0039
C17 0.0372 0.0228 0.014 0.0035 -0.0084 -0.0099
C21 0.022 0.0121 0.0115 -0.0015 -0.0059 -0.0024
C22 0.02 0.0151 0.0163 -0.0007 -0.005 -0.0039
C24 0.0282 0.0272 0.0121 0.0016 -0.0056 -0.0032
C25 0.0328 0.0303 0.0139 -0.0042 -0.0002 -0.0037
C26 0.0253 0.0208 0.0223 -0.0039 -0.0027 0.0028
C27 0.0202 0.0169 0.0145 0.0015 -0.005 -0.0056
C28 0.0163 0.018 0.0132 0.0015 -0.0051 -0.0039
C29 0.0154 0.0185 0.0127 -0.0016 -0.0035 -0.0049
O16 0.039 0.0303 0.0141 0.0038 -0.0096 -0.0181
O17 0.0243 0.0308 0.0195 0.0043 -0.0099 -0.01
O18 0.024 0.0235 0.0177 -0.0082 -0.0045 -0.003
O20 0.0172 0.0187 0.0159 0.0008 -0.0036 -0.002
O21 0.0188 0.0248 0.013 0.0037 -0.0048 -0.0036
O26 0.03 0.0461 0.0317 -0.008 -0.0046 -0.0204
O25 0.0365 0.0293 0.0197 -0.0024 -0.0051 -0.0185
loop_
_geom_bond_atom_site_label_1
_geom_bond_atom_site_label_2
_geom_bond_site_symmetry_1
_geom_bond_site_symmetry_2
O12 Er1 1_555 1_555
H9 O12 1_555 1_555
O27 Er1 1_555 1_555
O32 Er1 1_555 1_555
Zn1 N1 1_555 1_555
N1 C1 1_555 1_555
N2 Zn1 1_555 1_555
C1 H1 1_555 1_555
C5 N1 1_555 1_555
C6 C5 1_555 1_555
C8 N2 1_555 1_555
H4 C8 1_555 1_555
C9 C8 1_555 1_555
H5 C9 1_555 1_555
C10 C9 1_555 1_555
C11 C10 1_555 1_555
C12 N2 1_555 1_555
C13 C12 1_555 1_555
O1 C6 1_555 1_555
O2 Zn1 1_555 1_555
O5 Zn1 1_555 1_555
O13 Zn1 1_555 1_555
H11 O13 1_555 1_555
H12 O13 1_555 1_555
O30 Zn1 1_555 1_555
C6 O2 1_555 1_555
C11 C12 1_555 1_555
C13 O5 1_555 1_555
C13 O6 1_555 1_555
H14 C18 1_555 1_555
C19 C18 1_555 1_555
H15 C19 1_555 1_555
C20 C19 1_555 1_555
C23 C20 1_555 1_555
O30 C23 1_555 1_555
H19 O24 1_555 1_555
O7 C14 1_555 1_555
O14 C16 1_555 1_555
Er6 O7 1_555 1_555
C15 O9 1_555 1_555
O32 C30 1_555 1_555
H2 C2 1_555 1_555
C3 C2 1_555 1_555
H3 C3 1_555 1_555
C4 C3 1_555 1_555
C7 C4 1_555 1_555
O4 C7 1_555 1_555
H7 O11 1_555 1_555
Zn4 O4 1_555 1_555
Zn4 N3 1_555 1_555
N3 C17 1_555 1_555
N4 Zn4 1_555 1_555
C17 H13 1_555 1_555
C21 N3 1_555 1_555
C22 C21 1_555 1_555
C24 N4 1_555 1_555
H16 C24 1_555 1_555
C25 C24 1_555 1_555
H17 C25 1_555 1_555
C26 C25 1_555 1_555
C27 C26 1_555 1_555
C28 N4 1_555 1_555
C29 C28 1_555 1_555
O16 C22 1_555 1_555
O17 Zn4 1_555 1_555
O26 Zn4 1_555 1_555
H23 O26 1_555 1_555
H24 O26 1_555 1_555
Er6 O18 1_555 1_555
Zn4 O20 1_555 1_555
C22 O17 1_555 1_555
C27 C28 1_555 1_555
C29 O20 1_555 1_555
C29 O21 1_555 1_555
O25 Er6 1_555 1_555
H21 O25 1_555 1_555

#END
