
###############################################################################
#
# This file contains modified crystal structure data generated from the
# MOF subset of the Cambridge Structural Database (CSD) v543 
# hosted by the Cambridge Crystallographic Data Centre (CCDC).
#
# This work is licensed under the Creative Commons
# Attribution-NonCommercial-ShareAlike 4.0 International License.
# To view a copy of this license, visit
# http://creativecommons.org/licenses/by-nc-sa/4.0/
# or send a letter to
# Creative Commons, PO Box 1866, Mountain View, CA 94042, USA.
#
# CIF created using the CSD Python API on 29 September 2022
# The structure has been converted into the P1 space group
# The structure has a 3D framework
# The original CSD entry YUMCER is in the orthorhombic crystal system
# The framework has been calculated to contain at least 10.0% void space
# The void calculation uses a probe of radius 1.32A, grid spacing 0.4
#
###############################################################################

data_YUMCER
_chemical_formula_moiety         '(C60 H36 N4 O24 Pb4)n'
_symmetry_cell_setting           triclinic
_symmetry_space_group_name_H-M   'P 1'
_symmetry_Int_Tables_number      1
_space_group_name_Hall           'P 1'
loop_
_symmetry_equiv_pos_site_id
_symmetry_equiv_pos_as_xyz
1 x,y,z
_cell_length_a                   24.1364(16)
_cell_length_b                   8.7914(6)
_cell_length_c                   7.5418(5)
_cell_angle_alpha                90
_cell_angle_beta                 90
_cell_angle_gamma                90
_cell_volume                     1600.32
loop_
_atom_site_label
_atom_site_type_symbol
_atom_site_fract_x
_atom_site_fract_y
_atom_site_fract_z
Pb1 Pb 0.04108(2) 0.03607(2) 0.58159(9)
O1 O 0.1395(3) 0.0649(7) 0.6466(8)
C3 C 0.2528(4) 0.0066(9) 0.606(2)
H1 H 0.242080 0.100057 0.653020
H2 H 0.335778 0.044179 0.615601
O7 O 0.0502(3) 0.3254(7) 0.6865(7)
O8 O 0.0384(3) 0.1546(8) 0.9008(9)
O10 O 0.0794(3) 0.1391(8) 0.2945(8)
Pb4 Pb 0.54108(2) 0.96393(2) 0.58159(9)
O2 O 0.8826(3) 0.1536(7) 0.0309(7)
O5 O 0.5794(3) 0.8609(8) 0.2945(8)
O6 O 0.4914(2) 0.7927(6) 0.2674(7)
N1 N 0.5949(3) 0.3467(7) 0.0441(7)
C1 C 0.8472(3) 0.0603(7) 0.083(2)
C2 C 0.7864(3) 0.0975(8) 0.0579(13)
C4 C 0.6909(3) 0.0277(9) 0.086(3)
C5 C 0.6753(4) 0.1669(9) 0.0225(9)
C7 C 0.7707(4) 0.2416(9) 0.0005(11)
H6 H 0.593106 0.117235 0.043296
C9 C 0.5926(4) 0.3736(11) 0.2221(11)
H7 H 0.603292 0.298036 0.301338
C10 C 0.5752(4) 0.5075(12) 0.2831(12)
H8 H 0.572887 0.523801 0.404691
C11 C 0.5601(5) 0.6251(12) 0.1647(14)
C15 C 0.5421(4) 0.7743(12) 0.2445(12)
O11 O 0.9914(2) 0.2073(6) 0.2674(7)
O3 O 0.5502(3) 0.6746(7) 0.6865(7)
O4 O 0.5384(3) 0.8454(8) 0.9008(9)
C6 C 0.7153(4) 0.2746(10) 0.9798(11)
H3 H 0.704574 0.369346 0.937010
H4 H 0.797387 0.315094 0.976400
C8 C 0.6149(4) 0.1953(9) 0.9849(11)
H5 H 0.608644 0.185938 0.858275
C12 C 0.5631(5) 0.5945(12) 0.9824(13)
C13 C 0.5808(4) 0.4538(9) 0.9300(12)
H9 H 0.582911 0.432680 0.809366
C14 C 0.5485(3) 0.7142(10) 0.8475(11)
O2_2 O 0.3826(3) 0.8464(7) 0.0309(7)
N1_2 N 0.0949(3) 0.6533(7) 0.0441(7)
C1_2 C 0.3472(3) 0.9397(7) 0.083(2)
C2_2 C 0.2864(3) 0.9025(8) 0.0579(13)
C4_2 C 0.1909(3) 0.9723(9) 0.086(3)
C5_2 C 0.1753(4) 0.8331(9) 0.0225(9)
C7_2 C 0.2707(4) 0.7584(9) 0.0005(11)
H6_2 H 0.093106 0.882765 0.043296
C9_2 C 0.0926(4) 0.6264(11) 0.2221(11)
H7_2 H 0.103292 0.701964 0.301338
C10_2 C 0.0752(4) 0.4925(12) 0.2831(12)
H8_2 H 0.072887 0.476199 0.404691
C11_2 C 0.0601(5) 0.3749(12) 0.1647(14)
C15_2 C 0.0421(4) 0.2257(12) 0.2445(12)
C6_2 C 0.2153(4) 0.7254(10) 0.9798(11)
H3_2 H 0.204574 0.630654 0.937010
H4_2 H 0.297387 0.684906 0.976400
C8_2 C 0.1149(4) 0.8047(9) 0.9849(11)
H5_2 H 0.108644 0.814062 0.858275
C12_2 C 0.0631(5) 0.4055(12) 0.9824(13)
C13_2 C 0.0808(4) 0.5462(9) 0.9300(12)
H9_2 H 0.082911 0.567320 0.809366
C14_2 C 0.0485(3) 0.2858(10) 0.8475(11)
O1_2 O 0.6395(3) 0.9351(7) 0.6466(8)
C3_2 C 0.7528(4) 0.9934(9) 0.606(2)
H1_2 H 0.742080 0.899943 0.653020
H2_2 H 0.835778 0.955821 0.615601
Pb3 Pb 0.45892(2) 0.03607(2) 0.08159(9)
O2_3 O 0.1174(3) 0.8464(7) 0.5309(7)
O3_2 O 0.4498(3) 0.3254(7) 0.1865(7)
O4_2 O 0.4616(3) 0.1546(8) 0.4008(9)
O5_2 O 0.4206(3) 0.1391(8) 0.7945(8)
O6_2 O 0.5086(2) 0.2073(6) 0.7674(7)
N1_3 N 0.4051(3) 0.6533(7) 0.5441(7)
C1_3 C 0.1528(3) 0.9397(7) 0.583(2)
C2_3 C 0.2136(3) 0.9025(8) 0.5579(13)
C4_3 C 0.3091(3) 0.9723(9) 0.586(3)
C5_3 C 0.3247(4) 0.8331(9) 0.5225(9)
C6_3 C 0.2847(4) 0.7254(10) 0.4798(11)
H3_3 H 0.295426 0.630654 0.437010
C7_3 C 0.2293(4) 0.7584(9) 0.5005(11)
H4_3 H 0.202613 0.684906 0.476400
C8_3 C 0.3851(4) 0.8047(9) 0.4849(11)
H5_3 H 0.391356 0.814062 0.358275
H6_3 H 0.406894 0.882765 0.543296
C9_3 C 0.4074(4) 0.6264(11) 0.7221(11)
H7_3 H 0.396708 0.701964 0.801338
C10_3 C 0.4248(4) 0.4925(12) 0.7831(12)
H8_3 H 0.427113 0.476199 0.904691
C11_3 C 0.4399(5) 0.3749(12) 0.6647(14)
C12_3 C 0.4369(5) 0.4055(12) 0.4824(13)
C13_3 C 0.4192(4) 0.5462(9) 0.4300(12)
H9_3 H 0.417089 0.567320 0.309366
C14_3 C 0.4515(3) 0.2858(10) 0.3475(11)
C15_3 C 0.4579(4) 0.2257(12) 0.7445(12)
O11_2 O 0.0086(2) 0.7927(6) 0.7674(7)
O9 O 0.9616(3) 0.8454(8) 0.4008(9)
Pb1_2 Pb 0.95892(2) 0.96393(2) 0.08159(9)
O1_3 O 0.8605(3) 0.9351(7) 0.1466(8)
C3_3 C 0.7472(4) 0.9934(9) 0.106(2)
H1_3 H 0.757920 0.899943 0.153020
H2_3 H 0.664222 0.955821 0.115601
O7_2 O 0.9498(3) 0.6746(7) 0.1865(7)
O10_2 O 0.9206(3) 0.8609(8) 0.7945(8)
O1_4 O 0.3605(3) 0.0649(7) 0.1466(8)
C3_4 C 0.2472(4) 0.0066(9) 0.106(2)
H1_4 H 0.257920 0.100057 0.153020
H2_4 H 0.164222 0.044179 0.115601
O2_4 O 0.6174(3) 0.1536(7) 0.5309(7)
N1_4 N 0.9051(3) 0.3467(7) 0.5441(7)
C1_4 C 0.6528(3) 0.0603(7) 0.583(2)
C2_4 C 0.7136(3) 0.0975(8) 0.5579(13)
C4_4 C 0.8091(3) 0.0277(9) 0.586(3)
C5_4 C 0.8247(4) 0.1669(9) 0.5225(9)
C6_4 C 0.7847(4) 0.2746(10) 0.4798(11)
H3_4 H 0.795426 0.369346 0.437010
C7_4 C 0.7293(4) 0.2416(9) 0.5005(11)
H4_4 H 0.702613 0.315094 0.476400
C8_4 C 0.8851(4) 0.1953(9) 0.4849(11)
H5_4 H 0.891356 0.185938 0.358275
H6_4 H 0.906894 0.117235 0.543296
C9_4 C 0.9074(4) 0.3736(11) 0.7221(11)
H7_4 H 0.896708 0.298036 0.801338
C10_4 C 0.9248(4) 0.5075(12) 0.7831(12)
H8_4 H 0.927113 0.523801 0.904691
C11_4 C 0.9399(5) 0.6251(12) 0.6647(14)
C12_4 C 0.9369(5) 0.5945(12) 0.4824(13)
C13_4 C 0.9192(4) 0.4538(9) 0.4300(12)
H9_4 H 0.917089 0.432680 0.309366
C14_4 C 0.9515(3) 0.7142(10) 0.3475(11)
C15_4 C 0.9579(4) 0.7743(12) 0.7445(12)
loop_
_geom_bond_atom_site_label_1
_geom_bond_atom_site_label_2
_geom_bond_site_symmetry_1
_geom_bond_site_symmetry_2
Pb1 O1 1_555 1_555
H1 C3 1_555 1_555
O7 Pb1 1_555 1_555
O8 Pb1 1_555 1_555
O10 Pb1 1_555 1_555
O5 C15 1_555 1_555
O6 C15 1_555 1_555
C1 O2 1_555 1_555
C2 C1 1_555 1_555
C5 C4 1_555 1_555
C7 C2 1_555 1_555
C9 N1 1_555 1_555
H7 C9 1_555 1_555
C10 C9 1_555 1_555
H8 C10 1_555 1_555
C11 C10 1_555 1_555
C15 C11 1_555 1_555
Pb4 O5 1_555 1_555
O3 C14 1_555 1_555
O4 C14 1_555 1_555
H3 C6 1_555 1_555
H5 C8 1_555 1_555
H9 C13 1_555 1_555
C14 C12 1_555 1_555
Pb4 O3 1_555 1_555
O4 Pb4 1_555 1_555
C12 C13 1_555 1_555
O10 C15_2 1_555 1_555
C1_2 O2_2 1_555 1_555
C2_2 C1_2 1_555 1_555
C5_2 C4_2 1_555 1_555
C7_2 C2_2 1_555 1_555
C9_2 N1_2 1_555 1_555
H7_2 C9_2 1_555 1_555
C10_2 C9_2 1_555 1_555
H8_2 C10_2 1_555 1_555
C11_2 C10_2 1_555 1_555
C15_2 C11_2 1_555 1_555
O7 C14_2 1_555 1_555
O8 C14_2 1_555 1_555
H3_2 C6_2 1_555 1_555
H5_2 C8_2 1_555 1_555
H9_2 C13_2 1_555 1_555
C14_2 C12_2 1_555 1_555
C12_2 C13_2 1_555 1_555
Pb4 O1_2 1_555 1_555
H1_2 C3_2 1_555 1_555
O3_2 C14_3 1_555 1_555
O4_2 C14_3 1_555 1_555
O5_2 C15_3 1_555 1_555
O6_2 C15_3 1_555 1_555
N1_3 C8_3 1_555 1_555
C1_3 O2_3 1_555 1_555
C2_3 C1_3 1_555 1_555
C5_3 C4_3 1_555 1_555
C6_3 C5_3 1_555 1_555
H3_3 C6_3 1_555 1_555
C7_3 C2_3 1_555 1_555
H4_3 C7_3 1_555 1_555
C8_3 C5_3 1_555 1_555
H5_3 C8_3 1_555 1_555
H6_3 C8_3 1_555 1_555
C9_3 N1_3 1_555 1_555
H7_3 C9_3 1_555 1_555
C10_3 C9_3 1_555 1_555
H8_3 C10_3 1_555 1_555
C11_3 C10_3 1_555 1_555
C12_3 C11_3 1_555 1_555
C13_3 N1_3 1_555 1_555
H9_3 C13_3 1_555 1_555
C14_3 C12_3 1_555 1_555
C15_3 C11_3 1_555 1_555
Pb3 O3_2 1_555 1_555
O4_2 Pb3 1_555 1_555
C6_3 C7_3 1_555 1_555
C12_3 C13_3 1_555 1_555
Pb1_2 O1_3 1_555 1_555
H1_3 C3_3 1_555 1_555
O7_2 Pb1_2 1_555 1_555
O9 Pb1_2 1_555 1_555
Pb3 O1_4 1_555 1_555
H1_4 C3_4 1_555 1_555
O7_2 C14_4 1_555 1_555
O9 C14_4 1_555 1_555
O10_2 C15_4 1_555 1_555
N1_4 C8_4 1_555 1_555
C1_4 O2_4 1_555 1_555
C2_4 C1_4 1_555 1_555
C5_4 C4_4 1_555 1_555
C6_4 C5_4 1_555 1_555
H3_4 C6_4 1_555 1_555
C7_4 C2_4 1_555 1_555
H4_4 C7_4 1_555 1_555
C8_4 C5_4 1_555 1_555
H5_4 C8_4 1_555 1_555
H6_4 C8_4 1_555 1_555
C9_4 N1_4 1_555 1_555
H7_4 C9_4 1_555 1_555
C10_4 C9_4 1_555 1_555
H8_4 C10_4 1_555 1_555
C11_4 C10_4 1_555 1_555
C12_4 C11_4 1_555 1_555
C13_4 N1_4 1_555 1_555
H9_4 C13_4 1_555 1_555
C14_4 C12_4 1_555 1_555
C15_4 C11_4 1_555 1_555
C6_4 C7_4 1_555 1_555
C12_4 C13_4 1_555 1_555

#END
