
###############################################################################
#
# This file contains modified crystal structure data generated from the
# MOF subset of the Cambridge Structural Database (CSD) v543 
# hosted by the Cambridge Crystallographic Data Centre (CCDC).
#
# This work is licensed under the Creative Commons
# Attribution-NonCommercial-ShareAlike 4.0 International License.
# To view a copy of this license, visit
# http://creativecommons.org/licenses/by-nc-sa/4.0/
# or send a letter to
# Creative Commons, PO Box 1866, Mountain View, CA 94042, USA.
#
# CIF created using the CSD Python API on 29 September 2022
# The structure has been converted into the P1 space group
# The structure has a 3D framework
# The original CSD entry YUMVIO is in the monoclinic crystal system
# The framework has been calculated to contain at least 10.0% void space
# The void calculation uses a probe of radius 1.32A, grid spacing 0.4
#
###############################################################################

data_YUMVIO
_chemical_formula_moiety         '(C48 H48 Cd4 N16 O18 S4)n'
_symmetry_cell_setting           triclinic
_symmetry_space_group_name_H-M   'P 1'
_symmetry_Int_Tables_number      1
_space_group_name_Hall           'P 1'
loop_
_symmetry_equiv_pos_site_id
_symmetry_equiv_pos_as_xyz
1 x,y,z
_cell_length_a                   5.6803(3)
_cell_length_b                   10.5055(6)
_cell_length_c                   30.513(2)
_cell_angle_alpha                90
_cell_angle_beta                 93.491(5)
_cell_angle_gamma                90
_cell_volume                     1817.47
loop_
_atom_site_label
_atom_site_type_symbol
_atom_site_fract_x
_atom_site_fract_y
_atom_site_fract_z
C1 C 0.1136(19) 0.2324(14) 0.8391(3)
H3 H 0.2441 0.2690 0.8271
C2 C 0.1140(19) 0.2163(12) 0.8848(3)
H4 H 0.2432 0.2418 0.9028
H12 H 0.0391 0.1728 0.9686
Cd3 Cd 0.07350(12) 0.74806(10) 0.26091(2)
Cd1 Cd 0.42650(12) 0.24806(10) 0.23909(2)
O1 O 0.6297(12) 0.0609(7) 0.2593(3)
O5 O 0.1045(15) 0.1169(9) 0.2384(3)
H2 H 0.17(2) 0.052(9) 0.252(4)
N2 N 0.4646(14) 0.2024(9) 0.1658(3)
N3 N 0.7423(19) 0.1260(12) 0.0147(3)
C6 C 0.6603(18) 0.1513(12) 0.1516(4)
H7 H 0.7775 0.1263 0.1724
C7 C 0.700(2) 0.1332(11) 0.1083(4)
H8 H 0.8391 0.0966 0.0998
C8 C 0.523(2) 0.1719(11) 0.0773(3)
C9 C 0.321(2) 0.2207(13) 0.0913(3)
H9 H 0.1987 0.2430 0.0712
C10 C 0.2985(18) 0.2375(15) 0.1360(3)
H10 H 0.1617 0.2748 0.1452
C11 C 0.555(2) 0.1591(13) 0.0292(4)
H11 H 0.4281 0.1770 0.0095
O6 O 0.7984(12) 0.3382(7) 0.2409(3)
O7 O 0.1728(12) 0.4152(7) 0.2227(3)
N5 N 0.4324(15) 0.3033(8) 0.3128(3)
N1 N 0.9324(15) 0.1967(8) 0.8128(3)
N4 N 0.7216(19) 0.1250(13) 0.9673(3)
C3 C 0.922(2) 0.1626(12) 0.9024(3)
C4 C 0.734(2) 0.1248(12) 0.8745(4)
H5 H 0.6011 0.0882 0.8856
C5 C 0.748(2) 0.1422(12) 0.8298(4)
H6 H 0.6230 0.1147 0.8110
C12 C 0.906(2) 0.1547(14) 0.9505(4)
Cd4 Cd 0.92650(12) 0.25194(10) 0.73909(2)
S1 S 0.5839(4) 0.9408(2) 0.28149(8)
O2 O 0.7016(12) 0.8382(7) 0.2591(3)
O3 O 0.6691(15) 0.9491(9) 0.3276(3)
O4 O 0.3272(12) 0.9152(7) 0.2773(3)
O5_2 O 0.3955(15) 0.6169(9) 0.2616(3)
H1 H 0.514(16) 0.649(11) 0.249(4)
H2_2 H 0.33(2) 0.552(9) 0.248(4)
N2_2 N 0.0354(14) 0.7024(9) 0.3342(3)
C9_2 C 0.179(2) 0.7207(13) 0.4087(3)
H9_2 H 0.3013 0.7430 0.4288
C10_2 C 0.2015(18) 0.7375(15) 0.3640(3)
H10_2 H 0.3383 0.7748 0.3548
H11_2 H 0.0719 0.6770 0.4905
N5_2 N 0.0676(15) 0.8033(8) 0.1872(3)
S1_2 S 0.9161(4) 0.4408(2) 0.21851(8)
O1_2 O 0.8703(12) 0.5609(7) 0.2407(3)
O3_2 O 0.8309(15) 0.4491(9) 0.1724(3)
N1_2 N 0.5676(15) 0.6967(8) 0.6872(3)
N3_2 N 0.7577(19) 0.6260(12) 0.4853(3)
N4_2 N 0.7784(19) 0.6250(13) 0.5327(3)
C1_2 C 0.3864(19) 0.7324(14) 0.6609(3)
H3_2 H 0.2559 0.7690 0.6729
C2_2 C 0.3860(19) 0.7163(12) 0.6152(3)
H4_2 H 0.2568 0.7418 0.5972
C3_2 C 0.578(2) 0.6626(12) 0.5976(3)
C4_2 C 0.766(2) 0.6248(12) 0.6255(4)
H5_2 H 0.8989 0.5882 0.6144
C5_2 C 0.752(2) 0.6422(12) 0.6702(4)
H6_2 H 0.8770 0.6147 0.6890
C6_2 C 0.8397(18) 0.6513(12) 0.3484(4)
H7_2 H 0.7225 0.6263 0.3276
C7_2 C 0.800(2) 0.6332(11) 0.3917(4)
H8_2 H 0.6609 0.5966 0.4002
C8_2 C 0.977(2) 0.6719(11) 0.4227(3)
C11_2 C 0.945(2) 0.6591(13) 0.4708(4)
C12_2 C 0.594(2) 0.6547(14) 0.5495(4)
H12_2 H 0.4609 0.6728 0.5314
Cd4_2 Cd 0.57350(12) 0.75194(10) 0.76091(2)
S1_3 S 0.4161(4) 0.0592(2) 0.71851(8)
O2_2 O 0.2984(12) 0.1618(7) 0.7409(3)
O3_3 O 0.3309(15) 0.0509(9) 0.6724(3)
O4_2 O 0.6728(12) 0.0848(7) 0.7227(3)
N4_3 N 0.2784(19) 0.8750(13) 0.0327(3)
C3_3 C 0.078(2) 0.8374(12) 0.0976(3)
C4_3 C 0.266(2) 0.8752(12) 0.1255(4)
H5_3 H 0.3989 0.9118 0.1144
C5_3 C 0.252(2) 0.8578(12) 0.1702(4)
H6_3 H 0.3770 0.8853 0.1890
C12_3 C 0.094(2) 0.8453(14) 0.0495(4)
O1_3 O 0.3703(12) 0.9391(7) 0.7407(3)
O5_3 O 0.8955(15) 0.8831(9) 0.7616(3)
H2_3 H 0.83(2) 0.948(9) 0.748(4)
N2_3 N 0.5354(14) 0.7976(9) 0.8342(3)
N3_3 N 0.2577(19) 0.8740(12) 0.9853(3)
C6_3 C 0.3397(18) 0.8487(12) 0.8484(4)
H7_3 H 0.2225 0.8737 0.8276
C7_3 C 0.300(2) 0.8668(11) 0.8917(4)
H8_3 H 0.1609 0.9034 0.9002
C8_3 C 0.477(2) 0.8281(11) 0.9227(3)
C9_3 C 0.679(2) 0.7793(13) 0.9087(3)
H9_3 H 0.8013 0.7570 0.9288
C10_3 C 0.7015(18) 0.7625(15) 0.8640(3)
H10_3 H 0.8383 0.7252 0.8548
C11_3 C 0.445(2) 0.8409(13) 0.9708(4)
H11_3 H 0.5719 0.8230 0.9905
O6_2 O 0.2016(12) 0.6618(7) 0.7591(3)
O7_2 O 0.8272(12) 0.5848(7) 0.7773(3)
S1_4 S 0.0839(4) 0.5592(2) 0.78149(8)
O1_4 O 0.1297(12) 0.4391(7) 0.7593(3)
O3_4 O 0.1691(15) 0.5509(9) 0.8276(3)
N3_4 N 0.2423(19) 0.3740(12) 0.5147(3)
N4_4 N 0.2216(19) 0.3750(13) 0.4673(3)
C1_3 C 0.6136(19) 0.2676(14) 0.3391(3)
H3_3 H 0.7441 0.2310 0.3271
C2_3 C 0.6140(19) 0.2837(12) 0.3848(3)
H4_3 H 0.7432 0.2582 0.4028
C3_4 C 0.422(2) 0.3374(12) 0.4024(3)
C4_4 C 0.234(2) 0.3752(12) 0.3745(4)
H5_4 H 0.1011 0.4118 0.3856
C5_4 C 0.248(2) 0.3578(12) 0.3298(4)
H6_4 H 0.1230 0.3853 0.3110
C6_4 C 0.1603(18) 0.3487(12) 0.6516(4)
H7_4 H 0.2775 0.3737 0.6724
C7_4 C 0.200(2) 0.3668(11) 0.6083(4)
H8_4 H 0.3391 0.4034 0.5998
C8_4 C 0.023(2) 0.3281(11) 0.5773(3)
C11_4 C 0.055(2) 0.3409(13) 0.5292(4)
C12_4 C 0.406(2) 0.3453(14) 0.4505(4)
H12_3 H 0.5391 0.3272 0.4686
O5_4 O 0.6045(15) 0.3831(9) 0.7384(3)
H1_2 H 0.486(16) 0.351(11) 0.751(4)
H2_4 H 0.67(2) 0.448(9) 0.752(4)
N2_4 N 0.9646(14) 0.2976(9) 0.6658(3)
C9_4 C 0.821(2) 0.2793(13) 0.5913(3)
H9_4 H 0.6987 0.2570 0.5712
C10_4 C 0.7985(18) 0.2625(15) 0.6360(3)
H10_4 H 0.6617 0.2252 0.6452
H11_4 H 0.9281 0.3230 0.5095
H1_3 H 0.986(16) 0.149(11) 0.251(4)
H1_4 H 0.014(16) 0.851(11) 0.749(4)
C1_4 C 0.8864(19) 0.7676(14) 0.1609(3)
H3_4 H 0.7559 0.7310 0.1729
C2_4 C 0.8860(19) 0.7837(12) 0.1152(3)
H4_4 H 0.7568 0.7582 0.0972
H12_4 H 0.9609 0.8272 0.0314
loop_
_geom_bond_atom_site_label_1
_geom_bond_atom_site_label_2
_geom_bond_site_symmetry_1
_geom_bond_site_symmetry_2
C1 H3 1_555 1_555
C2 C1 1_555 1_555
H4 C2 1_555 1_555
Cd1 O1 1_555 1_555
O5 Cd1 1_555 1_555
H2 O5 1_555 1_555
N2 Cd1 1_555 1_555
C6 N2 1_555 1_555
H7 C6 1_555 1_555
C7 C6 1_555 1_555
H8 C7 1_555 1_555
C8 C7 1_555 1_555
C9 C8 1_555 1_555
H9 C9 1_555 1_555
C10 N2 1_555 1_555
H10 C10 1_555 1_555
C11 N3 1_555 1_555
H11 C11 1_555 1_555
O6 Cd1 1_555 1_555
O7 Cd1 1_555 1_555
N5 Cd1 1_555 1_555
C8 C11 1_555 1_555
C9 C10 1_555 1_555
N4 C12 1_555 1_555
C4 C3 1_555 1_555
H5 C4 1_555 1_555
C5 N1 1_555 1_555
H6 C5 1_555 1_555
C12 C3 1_555 1_555
Cd4 N1 1_555 1_555
C4 C5 1_555 1_555
O2 S1 1_555 1_555
O3 S1 1_555 1_555
O4 S1 1_555 1_555
Cd3 O4 1_555 1_555
O5_2 Cd3 1_555 1_555
H1 O5_2 1_555 1_555
H2_2 O5_2 1_555 1_555
N2_2 Cd3 1_555 1_555
H9_2 C9_2 1_555 1_555
C10_2 N2_2 1_555 1_555
H10_2 C10_2 1_555 1_555
N5_2 Cd3 1_555 1_555
C9_2 C10_2 1_555 1_555
S1_2 O1_2 1_555 1_555
O6 S1_2 1_555 1_555
O3_2 S1_2 1_555 1_555
N1_2 C1_2 1_555 1_555
N3_2 N4_2 1_555 1_555
N4_2 C12_2 1_555 1_555
C1_2 H3_2 1_555 1_555
C2_2 C1_2 1_555 1_555
H4_2 C2_2 1_555 1_555
C3_2 C2_2 1_555 1_555
C4_2 C3_2 1_555 1_555
H5_2 C4_2 1_555 1_555
C5_2 N1_2 1_555 1_555
H6_2 C5_2 1_555 1_555
H7_2 C6_2 1_555 1_555
C7_2 C6_2 1_555 1_555
H8_2 C7_2 1_555 1_555
C8_2 C7_2 1_555 1_555
C11_2 N3_2 1_555 1_555
C12_2 C3_2 1_555 1_555
H12_2 C12_2 1_555 1_555
Cd4_2 N1_2 1_555 1_555
C4_2 C5_2 1_555 1_555
C8_2 C11_2 1_555 1_555
O2_2 S1_3 1_555 1_555
O3_3 S1_3 1_555 1_555
O4_2 S1_3 1_555 1_555
Cd4 O4_2 1_555 1_555
N4_3 C12_3 1_555 1_555
C4_3 C3_3 1_555 1_555
H5_3 C4_3 1_555 1_555
C5_3 N5_2 1_555 1_555
H6_3 C5_3 1_555 1_555
C12_3 C3_3 1_555 1_555
C4_3 C5_3 1_555 1_555
Cd4_2 O1_3 1_555 1_555
O5_3 Cd4_2 1_555 1_555
H2_3 O5_3 1_555 1_555
N2_3 Cd4_2 1_555 1_555
C6_3 N2_3 1_555 1_555
H7_3 C6_3 1_555 1_555
C7_3 C6_3 1_555 1_555
H8_3 C7_3 1_555 1_555
C8_3 C7_3 1_555 1_555
C9_3 C8_3 1_555 1_555
H9_3 C9_3 1_555 1_555
C10_3 N2_3 1_555 1_555
H10_3 C10_3 1_555 1_555
C11_3 N3_3 1_555 1_555
H11_3 C11_3 1_555 1_555
O6_2 Cd4_2 1_555 1_555
O7_2 Cd4_2 1_555 1_555
C8_3 C11_3 1_555 1_555
C9_3 C10_3 1_555 1_555
S1_4 O1_4 1_555 1_555
O6_2 S1_4 1_555 1_555
O3_4 S1_4 1_555 1_555
N5 C1_3 1_555 1_555
N3_4 N4_4 1_555 1_555
N4_4 C12_4 1_555 1_555
C1_3 H3_3 1_555 1_555
C2_3 C1_3 1_555 1_555
H4_3 C2_3 1_555 1_555
C3_4 C2_3 1_555 1_555
C4_4 C3_4 1_555 1_555
H5_4 C4_4 1_555 1_555
C5_4 N5 1_555 1_555
H6_4 C5_4 1_555 1_555
H7_4 C6_4 1_555 1_555
C7_4 C6_4 1_555 1_555
H8_4 C7_4 1_555 1_555
C8_4 C7_4 1_555 1_555
C11_4 N3_4 1_555 1_555
C12_4 C3_4 1_555 1_555
H12_3 C12_4 1_555 1_555
C4_4 C5_4 1_555 1_555
C8_4 C11_4 1_555 1_555
O5_4 Cd4 1_555 1_555
H1_2 O5_4 1_555 1_555
H2_4 O5_4 1_555 1_555
N2_4 Cd4 1_555 1_555
H9_4 C9_4 1_555 1_555
C10_4 N2_4 1_555 1_555
H10_4 C10_4 1_555 1_555
C9_4 C10_4 1_555 1_555
C1_4 H3_4 1_555 1_555
C2_4 C1_4 1_555 1_555
H4_4 C2_4 1_555 1_555

#END
