
###############################################################################
#
# This file contains modified crystal structure data generated from the
# MOF subset of the Cambridge Structural Database (CSD) v543 
# hosted by the Cambridge Crystallographic Data Centre (CCDC).
#
# This work is licensed under the Creative Commons
# Attribution-NonCommercial-ShareAlike 4.0 International License.
# To view a copy of this license, visit
# http://creativecommons.org/licenses/by-nc-sa/4.0/
# or send a letter to
# Creative Commons, PO Box 1866, Mountain View, CA 94042, USA.
#
# CIF created using the CSD Python API on 29 September 2022
# The structure has been converted into the P1 space group
# The structure has a 3D framework
# The original CSD entry YUQNAB is in the monoclinic crystal system
# The framework has been calculated to contain at least 10.0% void space
# The void calculation uses a probe of radius 1.32A, grid spacing 0.4
# The framework is charged, counterions have been retained in the structure
#
###############################################################################

data_YUQNAB
_chemical_formula_moiety         '(C128 H96 Ag8 F36 N12 P6 S8 2+)n'
_symmetry_cell_setting           triclinic
_symmetry_space_group_name_H-M   'P 1'
_symmetry_Int_Tables_number      1
_space_group_name_Hall           'P 1'
loop_
_symmetry_equiv_pos_site_id
_symmetry_equiv_pos_as_xyz
1 x,y,z
_cell_length_a                   20.9049(4)
_cell_length_b                   14.6808(3)
_cell_length_c                   14.2515(3)
_cell_angle_alpha                90
_cell_angle_beta                 108.0430(10)
_cell_angle_gamma                90
_cell_volume                     4158.71
loop_
_atom_site_label
_atom_site_type_symbol
_atom_site_fract_x
_atom_site_fract_y
_atom_site_fract_z
N8 N 0.34678(18) 0.7582(2) 0.1593(2)
C49 C 0.59427(17) 0.0297(2) 0.1361(3)
C50 C 0.55640(15) 0.1064(2) 0.0848(3)
C51 C 0.53288(16) 0.1711(2) 0.1367(3)
H37 H 0.5435 0.1665 0.2064
C52 C 0.49404(16) 0.2422(2) 0.0869(2)
H38 H 0.4778 0.2866 0.1224
C60 C 0.29220(15) 0.5504(2) 0.0510(2)
H46 H 0.2702 0.5521 0.1001
C61 C 0.33350(15) 0.6213(2) 0.0423(2)
C64 C 0.34208(17) 0.6982(2) 0.1078(3)
Ag7 Ag 0.320548(12) 0.832840(16) 0.290860(19)
H2 H 0.0511 0.0229 0.8790
Ag3 Ag 0.320548(12) 0.167160(16) 0.790860(19)
N5 N 0.22003(15) 0.0966(2) 0.7189(2)
S4 S 0.34752(4) 0.29312(5) 0.91362(6)
C33 C 0.17168(17) 0.0558(2) 0.6982(2)
C34 C 0.11003(15) 0.0039(2) 0.6658(2)
C35 C 0.04927(16) 0.0446(2) 0.6620(2)
H25 H 0.0481 0.1052 0.6849
C53 C 0.47843(14) 0.2497(2) 0.9850(2)
C54 C 0.50310(17) 0.1856(2) 0.9341(3)
H39 H 0.4931 0.1909 0.8646
C55 C 0.54221(17) 0.1137(2) 0.9833(3)
H40 H 0.5591 0.0699 0.9479
C56 C 0.43452(15) 0.3257(2) 0.9310(3)
H41 H 0.4417 0.3359 0.8663
H42 H 0.4454 0.3828 0.9697
C57 C 0.30549(16) 0.3934(2) 0.8485(2)
H43 H 0.3234 0.4075 0.7935
H44 H 0.2568 0.3809 0.8202
C58 C 0.31561(14) 0.47400(19) 0.9160(2)
C59 C 0.28337(15) 0.4773(2) 0.9877(2)
H45 H 0.2549 0.4285 0.9931
C62 C 0.36636(16) 0.6188(2) 0.9716(2)
H47 H 0.3948 0.6677 0.9662
C63 C 0.35748(15) 0.5451(2) 0.9092(2)
H48 H 0.3803 0.5429 0.8611
N12 N 0.37768(17) 0.0316(2) 0.8238(2)
N13 N 0.34678(18) 0.2418(2) 0.6593(2)
Ag5 Ag 1.0000 0.28848(2) 0.2500
Ag1 Ag 1.0000 0.71152(2) 0.7500
N3 N 0.37768(17) 0.9684(2) 0.3238(2)
C6 C 0.94671(17) 0.8672(2) 0.9022(2)
H3 H 0.9455 0.8061 0.9234
C7 C 0.88800(17) 0.9152(2) 0.8659(2)
H4 H 0.8462 0.8877 0.8624
N6 N 0.94985(15) 0.3935(2) 0.3273(2)
S3 S 0.90091(4) 0.80167(5) 0.64318(5)
C36 C 0.99073(16) 0.9956(2) 0.6245(2)
C37 C 0.99215(15) 0.9074(2) 0.5918(2)
C40 C 0.92799(18) 0.8553(2) 0.5476(2)
H29 H 0.9351 0.8082 0.5021
H30 H 0.8925 0.8973 0.5090
C41 C 0.83433(15) 0.7281(2) 0.5673(2)
H31 H 0.8109 0.6989 0.6100
H32 H 0.8011 0.7662 0.5184
C42 C 0.85932(14) 0.6555(2) 0.5136(2)
C43 C 0.85898(16) 0.6678(2) 0.4169(2)
H33 H 0.8417 0.7229 0.3837
C44 C 0.88322(17) 0.6015(2) 0.3680(2)
H34 H 0.8839 0.6113 0.3024
C45 C 0.90663(15) 0.5203(2) 0.4165(2)
C46 C 0.90623(15) 0.5055(2) 0.5124(2)
H35 H 0.9219 0.4495 0.5448
C47 C 0.88277(15) 0.5733(2) 0.5600(2)
H36 H 0.8826 0.5637 0.6258
C48 C 0.93100(16) 0.4494(2) 0.3667(2)
N9 N 0.94985(15) 0.6065(2) 0.8273(2)
N1 N 0.22003(15) 0.9034(2) 0.2189(2)
S2 S 0.34752(4) 0.70688(5) 0.41362(6)
C1 C 0.17168(17) 0.9442(2) 0.1982(2)
C2 C 0.11003(15) 0.9961(2) 0.1658(2)
C3 C 0.04927(16) 0.9554(2) 0.1620(2)
H1 H 0.0481 0.8948 0.1849
C17 C 0.59427(17) 0.9703(2) 0.6361(3)
C18 C 0.55640(15) 0.8936(2) 0.5848(3)
C19 C 0.53288(16) 0.8289(2) 0.6367(3)
H13 H 0.5435 0.8335 0.7064
C20 C 0.49404(16) 0.7578(2) 0.5869(2)
H14 H 0.4778 0.7134 0.6224
C21 C 0.47843(14) 0.7503(2) 0.4850(2)
C22 C 0.50310(17) 0.8144(2) 0.4341(3)
H15 H 0.4931 0.8091 0.3646
C23 C 0.54221(17) 0.8863(2) 0.4833(3)
H16 H 0.5591 0.9301 0.4479
C24 C 0.43452(15) 0.6743(2) 0.4310(3)
H17 H 0.4417 0.6641 0.3663
H18 H 0.4454 0.6172 0.4697
C25 C 0.30549(16) 0.6066(2) 0.3485(2)
H19 H 0.3234 0.5925 0.2935
H20 H 0.2568 0.6191 0.3202
C26 C 0.31561(14) 0.52600(19) 0.4160(2)
C27 C 0.28337(15) 0.5227(2) 0.4877(2)
H21 H 0.2549 0.5715 0.4931
C28 C 0.29220(15) 0.4496(2) 0.5510(2)
H22 H 0.2702 0.4479 0.6001
C29 C 0.33350(15) 0.3787(2) 0.5423(2)
C30 C 0.36636(16) 0.3812(2) 0.4716(2)
H23 H 0.3948 0.3323 0.4662
C31 C 0.35748(15) 0.4549(2) 0.4092(2)
H24 H 0.3803 0.4571 0.3611
C32 C 0.34208(17) 0.3018(2) 0.6078(3)
H26 H 0.0511 0.9771 0.3790
S1 S 0.90091(4) 0.19833(5) 0.14318(5)
C4 C 0.99073(16) 0.0044(2) 0.1245(2)
C5 C 0.99215(15) 0.0926(2) 0.0918(2)
C8 C 0.92799(18) 0.1447(2) 0.0476(2)
H5 H 0.9351 0.1918 0.0021
H6 H 0.8925 0.1027 0.0090
C9 C 0.83433(15) 0.2719(2) 0.0673(2)
H7 H 0.8109 0.3011 0.1100
H8 H 0.8011 0.2338 0.0184
C10 C 0.85932(14) 0.3445(2) 0.0136(2)
C14 C 0.90623(15) 0.4945(2) 0.0124(2)
H11 H 0.9219 0.5505 0.0448
C15 C 0.88277(15) 0.4267(2) 0.0600(2)
H12 H 0.8826 0.4363 0.1258
C38 C 0.94671(17) 0.1328(2) 0.4022(2)
H27 H 0.9455 0.1939 0.4234
C39 C 0.88800(17) 0.0848(2) 0.3659(2)
H28 H 0.8462 0.1123 0.3624
C11 C 0.85898(16) 0.3322(2) 0.9169(2)
H9 H 0.8417 0.2771 0.8837
C12 C 0.88322(17) 0.3985(2) 0.8680(2)
H10 H 0.8839 0.3887 0.8024
C13 C 0.90663(15) 0.4797(2) 0.9165(2)
C16 C 0.93100(16) 0.5506(2) 0.8667(2)
N2 N 0.05015(15) 0.3935(2) 0.1727(2)
C11_2 C 0.14102(16) 0.6678(2) 0.0831(2)
H9_2 H 0.1583 0.7229 0.1163
C12_2 C 0.11678(17) 0.6015(2) 0.1320(2)
H10_2 H 0.1161 0.6113 0.1976
C13_2 C 0.09337(15) 0.5203(2) 0.0835(2)
C16_2 C 0.06900(16) 0.4494(2) 0.1333(2)
N7 N 0.62232(17) 0.9684(2) 0.1762(2)
Ag5_2 Ag 0.0000 0.28848(2) 0.2500
Ag9 Ag 0.679452(12) 0.832840(16) 0.209140(19)
Ag1_2 Ag 0.0000 0.71152(2) 0.7500
S1_2 S 0.09909(4) 0.80167(5) 0.85682(5)
C4_2 C 0.00927(16) 0.9956(2) 0.8755(2)
C5_2 C 0.00785(15) 0.9074(2) 0.9082(2)
C8_2 C 0.07201(18) 0.8553(2) 0.9524(2)
H5_2 H 0.0649 0.8082 0.9979
H6_2 H 0.1075 0.8973 0.9910
C9_2 C 0.16567(15) 0.7281(2) 0.9327(2)
H7_2 H 0.1891 0.6989 0.8900
H8_2 H 0.1989 0.7662 0.9816
C10_2 C 0.14068(14) 0.6555(2) 0.9864(2)
C14_2 C 0.09377(15) 0.5055(2) 0.9876(2)
H11_2 H 0.0781 0.4495 0.9552
C15_2 C 0.11723(15) 0.5733(2) 0.9400(2)
H12_2 H 0.1174 0.5637 0.8742
C38_2 C 0.05329(17) 0.8672(2) 0.5978(2)
H27_2 H 0.0545 0.8061 0.5766
C39_2 C 0.11200(17) 0.9152(2) 0.6341(2)
H28_2 H 0.1538 0.8877 0.6376
N10 N 0.05015(15) 0.6065(2) 0.6727(2)
Ag2 Ag 0.679452(12) 0.167160(16) 0.709140(19)
N1_2 N 0.77997(15) 0.0966(2) 0.7811(2)
N4 N 0.65322(18) 0.7582(2) 0.3407(2)
S2_2 S 0.65248(4) 0.29312(5) 0.58638(6)
C1_2 C 0.82832(17) 0.0558(2) 0.8018(2)
C2_2 C 0.88997(15) 0.0039(2) 0.8342(2)
C3_2 C 0.95073(16) 0.0446(2) 0.8380(2)
H1_2 H 0.9519 0.1052 0.8151
C17_2 C 0.40573(17) 0.0297(2) 0.3639(3)
C18_2 C 0.44360(15) 0.1064(2) 0.4152(3)
C19_2 C 0.46712(16) 0.1711(2) 0.3633(3)
H13_2 H 0.4565 0.1665 0.2936
C20_2 C 0.50596(16) 0.2422(2) 0.4131(2)
H14_2 H 0.5222 0.2866 0.3776
C21_2 C 0.52157(14) 0.2497(2) 0.5150(2)
C22_2 C 0.49690(17) 0.1856(2) 0.5659(3)
H15_2 H 0.5069 0.1909 0.6354
C23_2 C 0.45779(17) 0.1137(2) 0.5167(3)
H16_2 H 0.4409 0.0699 0.5521
C24_2 C 0.56548(15) 0.3257(2) 0.5690(3)
H17_2 H 0.5583 0.3359 0.6337
H18_2 H 0.5546 0.3828 0.5303
C25_2 C 0.69451(16) 0.3934(2) 0.6515(2)
H19_2 H 0.6766 0.4075 0.7065
H20_2 H 0.7432 0.3809 0.6798
C26_2 C 0.68439(14) 0.47400(19) 0.5840(2)
C27_2 C 0.71663(15) 0.4773(2) 0.5123(2)
H21_2 H 0.7451 0.4285 0.5069
C28_2 C 0.70780(15) 0.5504(2) 0.4490(2)
H22_2 H 0.7298 0.5521 0.3999
C29_2 C 0.66650(15) 0.6213(2) 0.4577(2)
C30_2 C 0.63364(16) 0.6188(2) 0.5284(2)
H23_2 H 0.6052 0.6677 0.5338
C31_2 C 0.64252(15) 0.5451(2) 0.5908(2)
H24_2 H 0.6197 0.5429 0.6389
C32_2 C 0.65792(17) 0.6982(2) 0.3922(3)
H26_2 H 0.9489 0.0229 0.6210
N11 N 0.62232(17) 0.0316(2) 0.6762(2)
N14 N 0.65322(18) 0.2418(2) 0.8407(2)
C6_2 C 0.05329(17) 0.1328(2) 0.0978(2)
H3_2 H 0.0545 0.1939 0.0766
C7_2 C 0.11200(17) 0.0848(2) 0.1341(2)
H4_2 H 0.1538 0.1123 0.1376
S3_2 S 0.09909(4) 0.19833(5) 0.35682(5)
C36_2 C 0.00927(16) 0.0044(2) 0.3755(2)
C37_2 C 0.00785(15) 0.0926(2) 0.4082(2)
C40_2 C 0.07201(18) 0.1447(2) 0.4524(2)
H29_2 H 0.0649 0.1918 0.4979
H30_2 H 0.1075 0.1027 0.4910
C41_2 C 0.16567(15) 0.2719(2) 0.4327(2)
H31_2 H 0.1891 0.3011 0.3900
H32_2 H 0.1989 0.2338 0.4816
C42_2 C 0.14068(14) 0.3445(2) 0.4864(2)
C43_2 C 0.14102(16) 0.3322(2) 0.5831(2)
H33_2 H 0.1583 0.2771 0.6163
C44_2 C 0.11678(17) 0.3985(2) 0.6320(2)
H34_2 H 0.1161 0.3887 0.6976
C45_2 C 0.09337(15) 0.4797(2) 0.5835(2)
C46_2 C 0.09377(15) 0.4945(2) 0.4876(2)
H35_2 H 0.0781 0.5505 0.4552
C47_2 C 0.11723(15) 0.4267(2) 0.4400(2)
H36_2 H 0.1174 0.4363 0.3742
C48_2 C 0.06900(16) 0.5506(2) 0.6333(2)
H2_2 H 0.9489 0.9771 0.1210
N5_2 N 0.77997(15) 0.9034(2) 0.2811(2)
S4_2 S 0.65248(4) 0.70688(5) 0.08638(6)
C33_2 C 0.82832(17) 0.9442(2) 0.3018(2)
C34_2 C 0.88997(15) 0.9961(2) 0.3342(2)
C35_2 C 0.95073(16) 0.9554(2) 0.3380(2)
H25_2 H 0.9519 0.8948 0.3151
C53_2 C 0.52157(14) 0.7503(2) 0.0150(2)
C54_2 C 0.49690(17) 0.8144(2) 0.0659(3)
H39_2 H 0.5069 0.8091 0.1354
C55_2 C 0.45779(17) 0.8863(2) 0.0167(3)
H40_2 H 0.4409 0.9301 0.0521
C56_2 C 0.56548(15) 0.6743(2) 0.0690(3)
H41_2 H 0.5583 0.6641 0.1337
H42_2 H 0.5546 0.6172 0.0303
C57_2 C 0.69451(16) 0.6066(2) 0.1515(2)
H43_2 H 0.6766 0.5925 0.2065
H44_2 H 0.7432 0.6191 0.1798
C58_2 C 0.68439(14) 0.52600(19) 0.0840(2)
C59_2 C 0.71663(15) 0.5227(2) 0.0123(2)
H45_2 H 0.7451 0.5715 0.0069
C62_2 C 0.63364(16) 0.3812(2) 0.0284(2)
H47_2 H 0.6052 0.3323 0.0338
C63_2 C 0.64252(15) 0.4549(2) 0.0908(2)
H48_2 H 0.6197 0.4571 0.1389
C49_2 C 0.40573(17) 0.9703(2) 0.8639(3)
C50_2 C 0.44360(15) 0.8936(2) 0.9152(3)
C51_2 C 0.46712(16) 0.8289(2) 0.8633(3)
H37_2 H 0.4565 0.8335 0.7936
C52_2 C 0.50596(16) 0.7578(2) 0.9131(2)
H38_2 H 0.5222 0.7134 0.8776
C60_2 C 0.70780(15) 0.4496(2) 0.9490(2)
H46_2 H 0.7298 0.4479 0.8999
C61_2 C 0.66650(15) 0.3787(2) 0.9577(2)
C64_2 C 0.65792(17) 0.3018(2) 0.8922(3)
P1 P 0.13366(5) 0.75145(7) 0.39182(7)
F1 F 0.20843(17) 0.7621(3) 0.3985(4)
F2 F 0.1534(3) 0.7339(3) 0.5039(2)
F3 F 0.06033(17) 0.7423(3) 0.3896(4)
F4 F 0.1119(2) 0.7686(2) 0.2795(2)
F5 F 0.13172(15) 0.85711(17) 0.4119(2)
F6 F 0.13906(15) 0.64577(15) 0.37193(19)
P1_2 P 0.86634(5) 0.75145(7) 0.10818(7)
F1_2 F 0.79157(17) 0.7621(3) 0.1015(4)
F3_2 F 0.93967(17) 0.7423(3) 0.1104(4)
F4_2 F 0.8881(2) 0.7686(2) 0.2205(2)
F5_2 F 0.86828(15) 0.85711(17) 0.0881(2)
F6_2 F 0.86094(15) 0.64577(15) 0.12807(19)
F2_2 F 0.8466(3) 0.7339(3) 0.9961(2)
P1_3 P 0.86634(5) 0.24855(7) 0.60818(7)
F1_3 F 0.79157(17) 0.2379(3) 0.6015(4)
F2_3 F 0.8466(3) 0.2661(3) 0.4961(2)
F3_3 F 0.93967(17) 0.2577(3) 0.6104(4)
F4_3 F 0.8881(2) 0.2314(2) 0.7205(2)
F5_3 F 0.86828(15) 0.14289(17) 0.5881(2)
F6_3 F 0.86094(15) 0.35423(15) 0.62807(19)
F2_4 F 0.1534(3) 0.2661(3) 0.0039(2)
P1_4 P 0.13366(5) 0.24855(7) 0.89182(7)
F1_4 F 0.20843(17) 0.2379(3) 0.8985(4)
F3_4 F 0.06033(17) 0.2577(3) 0.8896(4)
F4_4 F 0.1119(2) 0.2314(2) 0.7795(2)
F5_4 F 0.13172(15) 0.14289(17) 0.9119(2)
F6_4 F 0.13906(15) 0.35423(15) 0.87193(19)
P2 P 0.5000 0.47863(8) 0.2500
F7 F 0.48831(11) 0.47832(15) 0.13444(14)
F8 F 0.44456(11) 0.40067(17) 0.23655(18)
F9 F 0.55661(14) 0.55317(18) 0.26309(18)
F10 F 0.51169(11) 0.47832(15) 0.36556(14)
F11 F 0.55544(11) 0.40067(17) 0.26345(18)
F12 F 0.44339(14) 0.55317(18) 0.23691(18)
P2_2 P 0.5000 0.52137(8) 0.7500
F7_2 F 0.51169(11) 0.52168(15) 0.86556(14)
F8_2 F 0.55544(11) 0.59933(17) 0.76345(18)
F9_2 F 0.44339(14) 0.44683(18) 0.73691(18)
F10_2 F 0.48831(11) 0.52168(15) 0.63444(14)
F11_2 F 0.44456(11) 0.59933(17) 0.73655(18)
F12_2 F 0.55661(14) 0.44683(18) 0.76309(18)
loop_
_geom_bond_atom_site_label_1
_geom_bond_atom_site_label_2
_geom_bond_site_symmetry_1
_geom_bond_site_symmetry_2
N8 C64 1_555 1_555
C49 C50 1_555 1_555
C50 C51 1_555 1_555
C51 H37 1_555 1_555
C52 C51 1_555 1_555
H38 C52 1_555 1_555
H46 C60 1_555 1_555
C61 C60 1_555 1_555
C64 C61 1_555 1_555
Ag7 N8 1_555 1_555
Ag3 N5 1_555 1_555
N5 C33 1_555 1_555
S4 Ag3 1_555 1_555
C33 C34 1_555 1_555
C34 C35 1_555 1_555
C35 H25 1_555 1_555
C54 C53 1_555 1_555
H39 C54 1_555 1_555
H40 C55 1_555 1_555
C56 S4 1_555 1_555
H41 C56 1_555 1_555
H42 C56 1_555 1_555
C57 S4 1_555 1_555
H43 C57 1_555 1_555
H44 C57 1_555 1_555
C58 C57 1_555 1_555
C59 C58 1_555 1_555
H45 C59 1_555 1_555
H47 C62 1_555 1_555
C63 C58 1_555 1_555
H48 C63 1_555 1_555
N12 Ag3 1_555 1_555
N13 Ag3 1_555 1_555
C53 C56 1_555 1_555
C54 C55 1_555 1_555
C62 C63 1_555 1_555
H3 C6 1_555 1_555
H4 C7 1_555 1_555
N6 C48 1_555 1_555
S3 Ag1 1_555 1_555
C37 C36 1_555 1_555
C40 S3 1_555 1_555
H29 C40 1_555 1_555
H30 C40 1_555 1_555
C41 S3 1_555 1_555
H31 C41 1_555 1_555
H32 C41 1_555 1_555
C42 C41 1_555 1_555
C43 C42 1_555 1_555
H33 C43 1_555 1_555
C44 C43 1_555 1_555
H34 C44 1_555 1_555
C45 C44 1_555 1_555
C46 C45 1_555 1_555
H35 C46 1_555 1_555
C47 C42 1_555 1_555
H36 C47 1_555 1_555
C48 C45 1_555 1_555
Ag5 N6 1_555 1_555
Ag7 N3 1_555 1_555
N9 Ag1 1_555 1_555
C6 C7 1_555 1_555
C37 C40 1_555 1_555
C46 C47 1_555 1_555
Ag7 N1 1_555 1_555
N1 C1 1_555 1_555
N13 C32 1_555 1_555
S2 Ag7 1_555 1_555
C1 C2 1_555 1_555
C2 C3 1_555 1_555
C3 H1 1_555 1_555
C17 C18 1_555 1_555
C18 C19 1_555 1_555
C19 H13 1_555 1_555
C20 C19 1_555 1_555
H14 C20 1_555 1_555
C21 C20 1_555 1_555
C22 C21 1_555 1_555
H15 C22 1_555 1_555
C23 C18 1_555 1_555
H16 C23 1_555 1_555
C24 S2 1_555 1_555
H17 C24 1_555 1_555
H18 C24 1_555 1_555
C25 S2 1_555 1_555
H19 C25 1_555 1_555
H20 C25 1_555 1_555
C26 C25 1_555 1_555
C27 C26 1_555 1_555
H21 C27 1_555 1_555
C28 C27 1_555 1_555
H22 C28 1_555 1_555
C29 C28 1_555 1_555
C30 C29 1_555 1_555
H23 C30 1_555 1_555
C31 C26 1_555 1_555
H24 C31 1_555 1_555
C32 C29 1_555 1_555
C21 C24 1_555 1_555
C22 C23 1_555 1_555
C30 C31 1_555 1_555
Ag5 S1 1_555 1_555
S1 C8 1_555 1_555
C5 C4 1_555 1_555
C8 C5 1_555 1_555
H5 C8 1_555 1_555
H6 C8 1_555 1_555
C9 S1 1_555 1_555
H7 C9 1_555 1_555
H8 C9 1_555 1_555
C10 C9 1_555 1_555
H11 C14 1_555 1_555
C15 C10 1_555 1_555
H12 C15 1_555 1_555
H27 C38 1_555 1_555
H28 C39 1_555 1_555
C14 C15 1_555 1_555
C38 C39 1_555 1_555
N9 C16 1_555 1_555
H9 C11 1_555 1_555
C12 C11 1_555 1_555
H10 C12 1_555 1_555
C13 C12 1_555 1_555
C16 C13 1_555 1_555
N2 C16_2 1_555 1_555
H9_2 C11_2 1_555 1_555
C12_2 C11_2 1_555 1_555
H10_2 C12_2 1_555 1_555
C13_2 C12_2 1_555 1_555
C16_2 C13_2 1_555 1_555
Ag5_2 N2 1_555 1_555
Ag9 N7 1_555 1_555
Ag1_2 S1_2 1_555 1_555
S1_2 C8_2 1_555 1_555
C5_2 C4_2 1_555 1_555
C8_2 C5_2 1_555 1_555
H5_2 C8_2 1_555 1_555
H6_2 C8_2 1_555 1_555
C9_2 S1_2 1_555 1_555
H7_2 C9_2 1_555 1_555
H8_2 C9_2 1_555 1_555
C10_2 C9_2 1_555 1_555
H11_2 C14_2 1_555 1_555
C15_2 C10_2 1_555 1_555
H12_2 C15_2 1_555 1_555
H27_2 C38_2 1_555 1_555
H28_2 C39_2 1_555 1_555
N10 Ag1_2 1_555 1_555
C14_2 C15_2 1_555 1_555
C38_2 C39_2 1_555 1_555
Ag2 N1_2 1_555 1_555
N1_2 C1_2 1_555 1_555
N4 C32_2 1_555 1_555
S2_2 Ag2 1_555 1_555
C1_2 C2_2 1_555 1_555
C2_2 C3_2 1_555 1_555
C3_2 H1_2 1_555 1_555
C17_2 C18_2 1_555 1_555
C18_2 C19_2 1_555 1_555
C19_2 H13_2 1_555 1_555
C20_2 C19_2 1_555 1_555
H14_2 C20_2 1_555 1_555
C21_2 C20_2 1_555 1_555
C22_2 C21_2 1_555 1_555
H15_2 C22_2 1_555 1_555
C23_2 C18_2 1_555 1_555
H16_2 C23_2 1_555 1_555
C24_2 S2_2 1_555 1_555
H17_2 C24_2 1_555 1_555
H18_2 C24_2 1_555 1_555
C25_2 S2_2 1_555 1_555
H19_2 C25_2 1_555 1_555
H20_2 C25_2 1_555 1_555
C26_2 C25_2 1_555 1_555
C27_2 C26_2 1_555 1_555
H21_2 C27_2 1_555 1_555
C28_2 C27_2 1_555 1_555
H22_2 C28_2 1_555 1_555
C29_2 C28_2 1_555 1_555
C30_2 C29_2 1_555 1_555
H23_2 C30_2 1_555 1_555
C31_2 C26_2 1_555 1_555
H24_2 C31_2 1_555 1_555
C32_2 C29_2 1_555 1_555
Ag9 N4 1_555 1_555
N11 Ag2 1_555 1_555
N14 Ag2 1_555 1_555
C21_2 C24_2 1_555 1_555
C22_2 C23_2 1_555 1_555
C30_2 C31_2 1_555 1_555
H3_2 C6_2 1_555 1_555
H4_2 C7_2 1_555 1_555
N10 C48_2 1_555 1_555
S3_2 Ag5_2 1_555 1_555
C37_2 C36_2 1_555 1_555
C40_2 S3_2 1_555 1_555
H29_2 C40_2 1_555 1_555
H30_2 C40_2 1_555 1_555
C41_2 S3_2 1_555 1_555
H31_2 C41_2 1_555 1_555
H32_2 C41_2 1_555 1_555
C42_2 C41_2 1_555 1_555
C43_2 C42_2 1_555 1_555
H33_2 C43_2 1_555 1_555
C44_2 C43_2 1_555 1_555
H34_2 C44_2 1_555 1_555
C45_2 C44_2 1_555 1_555
C46_2 C45_2 1_555 1_555
H35_2 C46_2 1_555 1_555
C47_2 C42_2 1_555 1_555
H36_2 C47_2 1_555 1_555
C48_2 C45_2 1_555 1_555
C6_2 C7_2 1_555 1_555
C37_2 C40_2 1_555 1_555
C46_2 C47_2 1_555 1_555
Ag9 N5_2 1_555 1_555
N5_2 C33_2 1_555 1_555
S4_2 Ag9 1_555 1_555
C33_2 C34_2 1_555 1_555
C34_2 C35_2 1_555 1_555
C35_2 H25_2 1_555 1_555
C54_2 C53_2 1_555 1_555
H39_2 C54_2 1_555 1_555
H40_2 C55_2 1_555 1_555
C56_2 S4_2 1_555 1_555
H41_2 C56_2 1_555 1_555
H42_2 C56_2 1_555 1_555
C57_2 S4_2 1_555 1_555
H43_2 C57_2 1_555 1_555
H44_2 C57_2 1_555 1_555
C58_2 C57_2 1_555 1_555
C59_2 C58_2 1_555 1_555
H45_2 C59_2 1_555 1_555
H47_2 C62_2 1_555 1_555
C63_2 C58_2 1_555 1_555
H48_2 C63_2 1_555 1_555
C53_2 C56_2 1_555 1_555
C54_2 C55_2 1_555 1_555
C62_2 C63_2 1_555 1_555
N14 C64_2 1_555 1_555
C49_2 C50_2 1_555 1_555
C50_2 C51_2 1_555 1_555
C51_2 H37_2 1_555 1_555
C52_2 C51_2 1_555 1_555
H38_2 C52_2 1_555 1_555
H46_2 C60_2 1_555 1_555
C61_2 C60_2 1_555 1_555
C64_2 C61_2 1_555 1_555
P1 F1 1_555 1_555
F2 P1 1_555 1_555
F3 P1 1_555 1_555
F4 P1 1_555 1_555
F5 P1 1_555 1_555
F6 P1 1_555 1_555
P1_2 F1_2 1_555 1_555
F3_2 P1_2 1_555 1_555
F4_2 P1_2 1_555 1_555
F5_2 P1_2 1_555 1_555
F6_2 P1_2 1_555 1_555
P1_3 F1_3 1_555 1_555
F2_3 P1_3 1_555 1_555
F3_3 P1_3 1_555 1_555
F4_3 P1_3 1_555 1_555
F5_3 P1_3 1_555 1_555
F6_3 P1_3 1_555 1_555
P1_4 F1_4 1_555 1_555
F3_4 P1_4 1_555 1_555
F4_4 P1_4 1_555 1_555
F5_4 P1_4 1_555 1_555
F6_4 P1_4 1_555 1_555
P2 F7 1_555 1_555
F8 P2 1_555 1_555
F9 P2 1_555 1_555
F10 P2 1_555 1_555
F11 P2 1_555 1_555
F12 P2 1_555 1_555
P2_2 F7_2 1_555 1_555
F8_2 P2_2 1_555 1_555
F9_2 P2_2 1_555 1_555
F10_2 P2_2 1_555 1_555
F11_2 P2_2 1_555 1_555
F12_2 P2_2 1_555 1_555

#END
