
###############################################################################
#
# This file contains modified crystal structure data generated from the
# MOF subset of the Cambridge Structural Database (CSD) v543 
# hosted by the Cambridge Crystallographic Data Centre (CCDC).
#
# This work is licensed under the Creative Commons
# Attribution-NonCommercial-ShareAlike 4.0 International License.
# To view a copy of this license, visit
# http://creativecommons.org/licenses/by-nc-sa/4.0/
# or send a letter to
# Creative Commons, PO Box 1866, Mountain View, CA 94042, USA.
#
# CIF created using the CSD Python API on 29 September 2022
# The structure has been converted into the P1 space group
# The structure has a 3D framework
# The original CSD entry YUXXOG is in the monoclinic crystal system
# The framework has been calculated to contain at least 10.0% void space
# The void calculation uses a probe of radius 1.32A, grid spacing 0.4
#
###############################################################################

data_YUXXOG
_chemical_formula_moiety         '(C104 H80 Cd8 N32 O32 S8)n'
_symmetry_cell_setting           triclinic
_symmetry_space_group_name_H-M   'P 1'
_symmetry_Int_Tables_number      1
_space_group_name_Hall           'P 1'
loop_
_symmetry_equiv_pos_site_id
_symmetry_equiv_pos_as_xyz
1 x,y,z
_cell_length_a                   10.8492(7)
_cell_length_b                   15.3928(10)
_cell_length_c                   19.6356(13)
_cell_angle_alpha                90
_cell_angle_beta                 94.1700(10)
_cell_angle_gamma                90
_cell_volume                     3270.46
loop_
_atom_site_label
_atom_site_type_symbol
_atom_site_fract_x
_atom_site_fract_y
_atom_site_fract_z
C10 C 0.1466(3) 0.3313(2) 0.02578(15)
H4 H 0.1364 0.3555 0.0684
C11 C 0.1626(3) 0.24524(19) 0.01564(14)
C12 C 0.1760(3) 0.1757(2) 0.06958(16)
O7 O 0.1672(2) 0.20176(16) 0.12945(11)
O8 O 0.1991(3) 0.09990(16) 0.05348(15)
Cd4 Cd 0.175819(18) 0.087236(12) 0.201510(10)
C1 C 0.1818(2) 0.64420(19) 0.69721(14)
C2 C 0.1737(3) 0.66995(18) 0.62455(14)
C3 C 0.1601(3) 0.61815(19) 0.56837(15)
H1 H 0.1567 0.5578 0.5702
C4 C 0.1519(3) 0.6659(2) 0.50726(15)
H2 H 0.1397 0.6405 0.4644
C5 C 0.1635(3) 0.75310(19) 0.51699(14)
C6 C 0.1678(3) 0.8213(2) 0.46312(15)
C7 C 0.1664(2) 0.35851(19) 0.83770(13)
C8 C 0.1614(3) 0.33022(17) 0.90944(13)
C9 C 0.1467(3) 0.38043(19) 0.96553(14)
H3 H 0.1378 0.4405 0.9640
Cd1 Cd 0.175819(18) 0.412764(12) 0.701510(10)
Cd2 Cd 0.177137(18) 0.589366(12) 0.835273(10)
O1 O 0.1943(2) 0.56429(14) 0.71182(10)
O2 O 0.1762(2) 0.70109(14) 0.74232(10)
O3 O 0.1535(2) 0.79415(15) 0.40300(11)
O4 O 0.1874(3) 0.89826(15) 0.47892(14)
O5 O 0.1819(2) 0.43851(14) 0.82567(10)
O6 O 0.1585(2) 0.30350(14) 0.79074(10)
S1 S 0.17870(7) 0.77818(5) 0.60251(4)
S2 S 0.17440(8) 0.22201(5) 0.93070(4)
Cd6 Cd 0.177137(18) 0.910634(12) 0.335273(10)
N9 N 0.3863(2) 0.40124(17) 0.71409(14)
N10 N 0.3864(2) 0.60674(18) 0.84211(14)
O9 O 0.1535(2) 0.70585(15) 0.90300(11)
O10 O 0.1672(2) 0.29824(16) 0.62945(11)
C13 C 0.9096(3) 0.5077(2) 0.65050(17)
H5 H 0.9447 0.5614 0.6422
C14 C 0.7906(3) 0.4868(2) 0.63617(18)
H6 H 0.7288 0.5227 0.6165
C15 C 0.8895(3) 0.3748(2) 0.68177(16)
H7 H 0.9065 0.3193 0.6988
C16 C 0.6710(3) 0.3455(3) 0.6433(2)
H8 H 0.6408 0.3510 0.5958
H9 H 0.6961 0.2857 0.6511
C17 C 0.5683(3) 0.3487(2) 0.75433(19)
H10 H 0.6316 0.3258 0.7834
C18 C 0.4552(3) 0.3716(3) 0.77079(18)
H11 H 0.4273 0.3679 0.8144
C19 C 0.4590(3) 0.3971(2) 0.66429(17)
H12 H 0.4364 0.4134 0.6195
C20 C 0.8936(3) 0.62838(19) 0.79266(15)
H13 H 0.9169 0.6817 0.7755
C21 C 0.8985(3) 0.5021(2) 0.83944(17)
H14 H 0.9283 0.4518 0.8611
C22 C 0.7792(3) 0.5186(2) 0.82138(18)
H15 H 0.7122 0.4825 0.8277
C23 C 0.6683(3) 0.6452(3) 0.76170(19)
H16 H 0.6892 0.7056 0.7546
H17 H 0.6429 0.6198 0.7177
C24 C 0.4567(3) 0.6019(2) 0.79077(17)
H18 H 0.4333 0.5758 0.7491
C25 C 0.4560(3) 0.6495(2) 0.89325(18)
H19 H 0.4300 0.6622 0.9362
C26 C 0.5681(3) 0.6703(2) 0.87142(19)
H20 H 0.6322 0.6994 0.8959
N1 N 0.9718(2) 0.43745(16) 0.67925(12)
N2 N 0.7779(2) 0.40189(17) 0.65633(15)
N3 N 0.5720(2) 0.36593(17) 0.68604(14)
N5 N 0.9705(2) 0.57076(16) 0.82112(13)
N6 N 0.7758(2) 0.59941(17) 0.79179(14)
N7 N 0.5676(2) 0.63982(17) 0.80615(14)
C7_2 C 0.1664(2) 0.14149(19) 0.33770(13)
C8_2 C 0.1614(3) 0.16978(17) 0.40944(13)
C9_2 C 0.1467(3) 0.11957(19) 0.46553(14)
H3_2 H 0.1378 0.0595 0.4640
C10_2 C 0.1466(3) 0.1687(2) 0.52578(15)
H4_2 H 0.1364 0.1445 0.5684
C11_2 C 0.1626(3) 0.25476(19) 0.51564(14)
C12_2 C 0.1760(3) 0.3243(2) 0.56958(16)
O5_2 O 0.1819(2) 0.06149(14) 0.32567(10)
O6_2 O 0.1585(2) 0.19650(14) 0.29074(10)
O8_2 O 0.1991(3) 0.40010(16) 0.55348(15)
S2_2 S 0.17440(8) 0.27799(5) 0.43070(4)
N9_2 N 0.3863(2) 0.09876(17) 0.21409(14)
C1_2 C 0.1818(2) 0.85580(19) 0.19721(14)
C2_2 C 0.1737(3) 0.83005(18) 0.12455(14)
C3_2 C 0.1601(3) 0.88185(19) 0.06837(15)
H1_2 H 0.1567 0.9422 0.0702
C4_2 C 0.1519(3) 0.8341(2) 0.00726(15)
C5_2 C 0.1635(3) 0.74690(19) 0.01699(14)
O1_2 O 0.1943(2) 0.93571(14) 0.21182(10)
O2_2 O 0.1762(2) 0.79891(14) 0.24232(10)
S1_2 S 0.17870(7) 0.72182(5) 0.10251(4)
N10_2 N 0.3864(2) 0.89326(18) 0.34211(14)
H2_2 H 0.1397 0.8595 0.9644
C6_2 C 0.1678(3) 0.6787(2) 0.96312(15)
O4_2 O 0.1874(3) 0.60174(15) 0.97892(14)
C14_2 C 0.7906(3) 0.0132(2) 0.13617(18)
C15_2 C 0.8895(3) 0.1252(2) 0.18177(16)
H7_2 H 0.9065 0.1807 0.1988
C16_2 C 0.6710(3) 0.1545(3) 0.1433(2)
H8_2 H 0.6408 0.1490 0.0958
H9_2 H 0.6961 0.2143 0.1511
C17_2 C 0.5683(3) 0.1513(2) 0.25433(19)
H10_2 H 0.6316 0.1742 0.2834
C18_2 C 0.4552(3) 0.1284(3) 0.27079(18)
H11_2 H 0.4273 0.1321 0.3144
C19_2 C 0.4590(3) 0.1029(2) 0.16429(17)
H12_2 H 0.4364 0.0866 0.1195
H14_2 H 0.9283 0.0482 0.3611
H15_2 H 0.7122 0.0175 0.3277
N1_2 N 0.9718(2) 0.06255(16) 0.17925(12)
N2_2 N 0.7779(2) 0.09811(17) 0.15633(15)
N3_2 N 0.5720(2) 0.13407(17) 0.18604(14)
C13_2 C 0.9096(3) 0.9923(2) 0.15050(17)
H5_2 H 0.9447 0.9386 0.1422
H6_2 H 0.7288 0.9773 0.1165
C20_2 C 0.8936(3) 0.87162(19) 0.29266(15)
H13_2 H 0.9169 0.8183 0.2755
C21_2 C 0.8985(3) 0.9979(2) 0.33944(17)
C22_2 C 0.7792(3) 0.9814(2) 0.32138(18)
C23_2 C 0.6683(3) 0.8548(3) 0.26170(19)
H16_2 H 0.6892 0.7944 0.2546
H17_2 H 0.6429 0.8802 0.2177
C24_2 C 0.4567(3) 0.8981(2) 0.29077(17)
H18_2 H 0.4333 0.9242 0.2491
C25_2 C 0.4560(3) 0.8505(2) 0.39325(18)
H19_2 H 0.4300 0.8378 0.4362
C26_2 C 0.5681(3) 0.8297(2) 0.37142(19)
H20_2 H 0.6322 0.8006 0.3959
N5_2 N 0.9705(2) 0.92924(16) 0.32112(13)
N6_2 N 0.7758(2) 0.90059(17) 0.29179(14)
N7_2 N 0.5676(2) 0.86018(17) 0.30615(14)
C13_3 C 0.0904(3) 0.0077(2) 0.84950(17)
H5_3 H 0.0553 0.0614 0.8578
H6_3 H 0.2712 0.0227 0.8835
C20_3 C 0.1064(3) 0.12838(19) 0.70734(15)
H13_3 H 0.0831 0.1817 0.7245
C21_3 C 0.1015(3) 0.0021(2) 0.66056(17)
C22_3 C 0.2208(3) 0.0186(2) 0.67862(18)
C23_3 C 0.3317(3) 0.1452(3) 0.73830(19)
H16_3 H 0.3108 0.2056 0.7454
H17_3 H 0.3571 0.1198 0.7823
C24_3 C 0.5433(3) 0.1019(2) 0.70923(17)
H18_3 H 0.5667 0.0758 0.7509
C25_3 C 0.5440(3) 0.1495(2) 0.60675(18)
H19_3 H 0.5700 0.1622 0.5638
C26_3 C 0.4319(3) 0.1703(2) 0.62858(19)
H20_3 H 0.3678 0.1994 0.6041
N5_3 N 0.0295(2) 0.07076(16) 0.67888(13)
N6_3 N 0.2242(2) 0.09941(17) 0.70821(14)
N7_3 N 0.4324(2) 0.13982(17) 0.69385(14)
N8 N 0.6136(2) 0.10674(18) 0.65789(14)
Cd5 Cd 0.822863(18) 0.089366(12) 0.664727(10)
C14_3 C 0.2094(3) 0.9868(2) 0.86383(18)
C15_3 C 0.1105(3) 0.8748(2) 0.81823(16)
H7_3 H 0.0935 0.8193 0.8012
C16_3 C 0.3290(3) 0.8455(3) 0.8567(2)
H8_3 H 0.3592 0.8510 0.9042
H9_3 H 0.3039 0.7857 0.8489
C17_3 C 0.4317(3) 0.8487(2) 0.74567(19)
H10_3 H 0.3684 0.8258 0.7166
C18_3 C 0.5448(3) 0.8716(3) 0.72921(18)
H11_3 H 0.5727 0.8679 0.6856
C19_3 C 0.5410(3) 0.8971(2) 0.83571(17)
H12_3 H 0.5636 0.9134 0.8805
H14_3 H 0.0717 0.9518 0.6389
H15_3 H 0.2878 0.9825 0.6723
N1_3 N 0.0282(2) 0.93745(16) 0.82075(12)
N2_3 N 0.2221(2) 0.90189(17) 0.84367(15)
N3_3 N 0.4280(2) 0.86593(17) 0.81396(14)
N4 N 0.6137(2) 0.90124(17) 0.78591(14)
Cd3 Cd 0.824181(18) 0.912764(12) 0.798490(10)
H2_3 H 0.8603 0.1405 0.0356
C6_3 C 0.8322(3) 0.3213(2) 0.03688(15)
O3_2 O 0.8465(2) 0.29415(15) 0.09700(11)
O4_3 O 0.8126(3) 0.39826(15) 0.02108(14)
Cd6_2 Cd 0.822863(18) 0.410634(12) 0.164727(10)
C1_3 C 0.8182(2) 0.14420(19) 0.80279(14)
C2_3 C 0.8263(3) 0.16995(18) 0.87545(14)
C3_3 C 0.8399(3) 0.11815(19) 0.93163(15)
H1_3 H 0.8433 0.0578 0.9298
C4_3 C 0.8481(3) 0.1659(2) 0.99274(15)
C5_3 C 0.8365(3) 0.25310(19) 0.98301(14)
O1_3 O 0.8057(2) 0.06429(14) 0.78818(10)
O2_3 O 0.8238(2) 0.20109(14) 0.75768(10)
S1_3 S 0.82130(7) 0.27818(5) 0.89749(4)
O9_2 O 0.8465(2) 0.20585(15) 0.59700(11)
C7_3 C 0.8336(2) 0.85851(19) 0.66230(13)
C8_3 C 0.8386(3) 0.83022(17) 0.59056(13)
C9_3 C 0.8533(3) 0.88043(19) 0.53447(14)
H3_3 H 0.8622 0.9405 0.5360
C10_3 C 0.8534(3) 0.8313(2) 0.47422(15)
H4_3 H 0.8636 0.8555 0.4316
C11_3 C 0.8374(3) 0.74524(19) 0.48436(14)
C12_3 C 0.8240(3) 0.6757(2) 0.43042(16)
O5_3 O 0.8181(2) 0.93851(14) 0.67433(10)
O6_3 O 0.8415(2) 0.80350(14) 0.70926(10)
O7_2 O 0.8328(2) 0.70176(16) 0.37055(11)
O8_3 O 0.8009(3) 0.59990(16) 0.44652(15)
S2_3 S 0.82560(8) 0.72201(5) 0.56930(4)
Cd4_2 Cd 0.824181(18) 0.587236(12) 0.298490(10)
O10_2 O 0.8328(2) 0.79824(16) 0.87055(11)
C13_4 C 0.0904(3) 0.4923(2) 0.34950(17)
H5_4 H 0.0553 0.4386 0.3578
C14_4 C 0.2094(3) 0.5132(2) 0.36383(18)
H6_4 H 0.2712 0.4773 0.3835
C15_4 C 0.1105(3) 0.6252(2) 0.31823(16)
H7_4 H 0.0935 0.6807 0.3012
C16_4 C 0.3290(3) 0.6545(3) 0.3567(2)
H8_4 H 0.3592 0.6490 0.4042
H9_4 H 0.3039 0.7143 0.3489
C17_4 C 0.4317(3) 0.6513(2) 0.24567(19)
H10_4 H 0.3684 0.6742 0.2166
C18_4 C 0.5448(3) 0.6284(3) 0.22921(18)
H11_4 H 0.5727 0.6321 0.1856
C19_4 C 0.5410(3) 0.6029(2) 0.33571(17)
H12_4 H 0.5636 0.5866 0.3805
C20_4 C 0.1064(3) 0.37162(19) 0.20734(15)
H13_4 H 0.0831 0.3183 0.2245
C21_4 C 0.1015(3) 0.4979(2) 0.16056(17)
H14_4 H 0.0717 0.5482 0.1389
C22_4 C 0.2208(3) 0.4814(2) 0.17862(18)
H15_4 H 0.2878 0.5175 0.1723
C23_4 C 0.3317(3) 0.3548(3) 0.23830(19)
H16_4 H 0.3108 0.2944 0.2454
H17_4 H 0.3571 0.3802 0.2823
C24_4 C 0.5433(3) 0.3981(2) 0.20923(17)
H18_4 H 0.5667 0.4242 0.2509
C25_4 C 0.5440(3) 0.3505(2) 0.10675(18)
H19_4 H 0.5700 0.3378 0.0638
C26_4 C 0.4319(3) 0.3297(2) 0.12858(19)
H20_4 H 0.3678 0.3006 0.1041
N1_4 N 0.0282(2) 0.56255(16) 0.32075(12)
N2_4 N 0.2221(2) 0.59811(17) 0.34367(15)
N3_4 N 0.4280(2) 0.63407(17) 0.31396(14)
N4_2 N 0.6137(2) 0.59876(17) 0.28591(14)
N5_4 N 0.0295(2) 0.42924(16) 0.17888(13)
N6_4 N 0.2242(2) 0.40059(17) 0.20821(14)
N7_4 N 0.4324(2) 0.36018(17) 0.19385(14)
N8_2 N 0.6136(2) 0.39326(18) 0.15789(14)
C1_4 C 0.8182(2) 0.35580(19) 0.30279(14)
C2_4 C 0.8263(3) 0.33005(18) 0.37545(14)
C3_4 C 0.8399(3) 0.38185(19) 0.43163(15)
H1_4 H 0.8433 0.4422 0.4298
C4_4 C 0.8481(3) 0.3341(2) 0.49274(15)
H2_4 H 0.8603 0.3595 0.5356
C5_4 C 0.8365(3) 0.24690(19) 0.48301(14)
C6_4 C 0.8322(3) 0.1787(2) 0.53688(15)
C7_4 C 0.8336(2) 0.64149(19) 0.16230(13)
C8_4 C 0.8386(3) 0.66978(17) 0.09056(13)
C9_4 C 0.8533(3) 0.61957(19) 0.03447(14)
H3_4 H 0.8622 0.5595 0.0360
O1_4 O 0.8057(2) 0.43571(14) 0.28818(10)
O2_4 O 0.8238(2) 0.29891(14) 0.25768(10)
O4_4 O 0.8126(3) 0.10174(15) 0.52108(14)
O5_4 O 0.8181(2) 0.56149(14) 0.17433(10)
O6_4 O 0.8415(2) 0.69650(14) 0.20926(10)
S1_4 S 0.82130(7) 0.22182(5) 0.39749(4)
S2_4 S 0.82560(8) 0.77799(5) 0.06930(4)
C10_4 C 0.8534(3) 0.6687(2) 0.97422(15)
H4_4 H 0.8636 0.6445 0.9316
C11_4 C 0.8374(3) 0.75476(19) 0.98436(14)
C12_4 C 0.8240(3) 0.8243(2) 0.93042(16)
O8_4 O 0.8009(3) 0.90010(16) 0.94652(15)
loop_
_geom_bond_atom_site_label_1
_geom_bond_atom_site_label_2
_geom_bond_site_symmetry_1
_geom_bond_site_symmetry_2
H4 C10 1_555 1_555
C11 C10 1_555 1_555
C12 C11 1_555 1_555
O7 C12 1_555 1_555
O8 C12 1_555 1_555
Cd4 O7 1_555 1_555
C1 C2 1_555 1_555
C2 C3 1_555 1_555
C3 H1 1_555 1_555
C4 C3 1_555 1_555
H2 C4 1_555 1_555
C5 C4 1_555 1_555
C6 C5 1_555 1_555
C7 C8 1_555 1_555
C8 C9 1_555 1_555
C9 H3 1_555 1_555
O1 C1 1_555 1_555
O2 C1 1_555 1_555
O3 C6 1_555 1_555
O4 C6 1_555 1_555
O5 C7 1_555 1_555
O6 C7 1_555 1_555
S1 C2 1_555 1_555
S2 C8 1_555 1_555
Cd6 O3 1_555 1_555
N9 Cd1 1_555 1_555
N10 Cd2 1_555 1_555
O9 Cd2 1_555 1_555
O10 Cd1 1_555 1_555
C5 S1 1_555 1_555
Cd1 O1 1_555 1_555
Cd1 O5 1_555 1_555
Cd1 O6 1_555 1_555
Cd2 O1 1_555 1_555
Cd2 O2 1_555 1_555
Cd2 O5 1_555 1_555
C13 H5 1_555 1_555
C14 C13 1_555 1_555
H6 C14 1_555 1_555
C15 H7 1_555 1_555
C16 H8 1_555 1_555
H9 C16 1_555 1_555
C17 H10 1_555 1_555
C18 C17 1_555 1_555
H11 C18 1_555 1_555
C19 H12 1_555 1_555
C20 H13 1_555 1_555
C21 H14 1_555 1_555
C22 C21 1_555 1_555
H15 C22 1_555 1_555
C23 H16 1_555 1_555
H17 C23 1_555 1_555
C24 H18 1_555 1_555
C25 H19 1_555 1_555
C26 C25 1_555 1_555
H20 C26 1_555 1_555
N1 C13 1_555 1_555
N2 C14 1_555 1_555
N3 C16 1_555 1_555
N9 C18 1_555 1_555
N5 C20 1_555 1_555
N6 C20 1_555 1_555
N7 C23 1_555 1_555
N10 C24 1_555 1_555
C15 N1 1_555 1_555
C15 N2 1_555 1_555
C16 N2 1_555 1_555
C17 N3 1_555 1_555
C19 N3 1_555 1_555
C19 N9 1_555 1_555
C21 N5 1_555 1_555
C22 N6 1_555 1_555
C23 N6 1_555 1_555
C24 N7 1_555 1_555
C25 N10 1_555 1_555
C26 N7 1_555 1_555
C7_2 C8_2 1_555 1_555
C8_2 C9_2 1_555 1_555
C9_2 H3_2 1_555 1_555
C10_2 C9_2 1_555 1_555
H4_2 C10_2 1_555 1_555
C11_2 C10_2 1_555 1_555
C12_2 C11_2 1_555 1_555
O5_2 C7_2 1_555 1_555
O6_2 C7_2 1_555 1_555
O10 C12_2 1_555 1_555
O8_2 C12_2 1_555 1_555
S2_2 C8_2 1_555 1_555
N9_2 Cd4 1_555 1_555
C11_2 S2_2 1_555 1_555
Cd4 O5_2 1_555 1_555
Cd4 O6_2 1_555 1_555
C1_2 C2_2 1_555 1_555
C2_2 C3_2 1_555 1_555
C3_2 H1_2 1_555 1_555
C4_2 C3_2 1_555 1_555
C5_2 C4_2 1_555 1_555
O1_2 C1_2 1_555 1_555
O2_2 C1_2 1_555 1_555
S1_2 C2_2 1_555 1_555
N10_2 Cd6 1_555 1_555
C5_2 S1_2 1_555 1_555
Cd6 O1_2 1_555 1_555
Cd6 O2_2 1_555 1_555
O9 C6_2 1_555 1_555
O4_2 C6_2 1_555 1_555
C15_2 H7_2 1_555 1_555
C16_2 H8_2 1_555 1_555
H9_2 C16_2 1_555 1_555
C17_2 H10_2 1_555 1_555
C18_2 C17_2 1_555 1_555
H11_2 C18_2 1_555 1_555
C19_2 H12_2 1_555 1_555
N2_2 C14_2 1_555 1_555
N3_2 C16_2 1_555 1_555
N9_2 C18_2 1_555 1_555
C15_2 N1_2 1_555 1_555
C15_2 N2_2 1_555 1_555
C16_2 N2_2 1_555 1_555
C17_2 N3_2 1_555 1_555
C19_2 N3_2 1_555 1_555
C19_2 N9_2 1_555 1_555
C13_2 H5_2 1_555 1_555
C20_2 H13_2 1_555 1_555
C22_2 C21_2 1_555 1_555
C23_2 H16_2 1_555 1_555
H17_2 C23_2 1_555 1_555
C24_2 H18_2 1_555 1_555
C25_2 H19_2 1_555 1_555
C26_2 C25_2 1_555 1_555
H20_2 C26_2 1_555 1_555
N5_2 C20_2 1_555 1_555
N6_2 C20_2 1_555 1_555
N7_2 C23_2 1_555 1_555
N10_2 C24_2 1_555 1_555
C21_2 N5_2 1_555 1_555
C22_2 N6_2 1_555 1_555
C23_2 N6_2 1_555 1_555
C24_2 N7_2 1_555 1_555
C25_2 N10_2 1_555 1_555
C26_2 N7_2 1_555 1_555
C13_3 H5_3 1_555 1_555
C20_3 H13_3 1_555 1_555
C22_3 C21_3 1_555 1_555
C23_3 H16_3 1_555 1_555
H17_3 C23_3 1_555 1_555
C24_3 H18_3 1_555 1_555
C25_3 H19_3 1_555 1_555
C26_3 C25_3 1_555 1_555
H20_3 C26_3 1_555 1_555
N5_3 C20_3 1_555 1_555
N6_3 C20_3 1_555 1_555
N7_3 C23_3 1_555 1_555
N8 C24_3 1_555 1_555
Cd5 N8 1_555 1_555
C21_3 N5_3 1_555 1_555
C22_3 N6_3 1_555 1_555
C23_3 N6_3 1_555 1_555
C24_3 N7_3 1_555 1_555
C25_3 N8 1_555 1_555
C26_3 N7_3 1_555 1_555
C15_3 H7_3 1_555 1_555
C16_3 H8_3 1_555 1_555
H9_3 C16_3 1_555 1_555
C17_3 H10_3 1_555 1_555
C18_3 C17_3 1_555 1_555
H11_3 C18_3 1_555 1_555
C19_3 H12_3 1_555 1_555
N2_3 C14_3 1_555 1_555
N3_3 C16_3 1_555 1_555
N4 C18_3 1_555 1_555
Cd3 N4 1_555 1_555
C15_3 N1_3 1_555 1_555
C15_3 N2_3 1_555 1_555
C16_3 N2_3 1_555 1_555
C17_3 N3_3 1_555 1_555
C19_3 N3_3 1_555 1_555
C19_3 N4 1_555 1_555
O3_2 C6_3 1_555 1_555
O4_3 C6_3 1_555 1_555
Cd6_2 O3_2 1_555 1_555
C1_3 C2_3 1_555 1_555
C2_3 C3_3 1_555 1_555
C3_3 H1_3 1_555 1_555
C4_3 C3_3 1_555 1_555
C5_3 C4_3 1_555 1_555
O1_3 C1_3 1_555 1_555
O2_3 C1_3 1_555 1_555
S1_3 C2_3 1_555 1_555
O9_2 Cd5 1_555 1_555
C5_3 S1_3 1_555 1_555
Cd5 O1_3 1_555 1_555
Cd5 O2_3 1_555 1_555
C7_3 C8_3 1_555 1_555
C8_3 C9_3 1_555 1_555
C9_3 H3_3 1_555 1_555
C10_3 C9_3 1_555 1_555
H4_3 C10_3 1_555 1_555
C11_3 C10_3 1_555 1_555
C12_3 C11_3 1_555 1_555
O5_3 C7_3 1_555 1_555
O6_3 C7_3 1_555 1_555
O7_2 C12_3 1_555 1_555
O8_3 C12_3 1_555 1_555
S2_3 C8_3 1_555 1_555
Cd4_2 O7_2 1_555 1_555
O10_2 Cd3 1_555 1_555
C11_3 S2_3 1_555 1_555
Cd3 O5_3 1_555 1_555
Cd3 O6_3 1_555 1_555
C13_4 H5_4 1_555 1_555
C14_4 C13_4 1_555 1_555
H6_4 C14_4 1_555 1_555
C15_4 H7_4 1_555 1_555
C16_4 H8_4 1_555 1_555
H9_4 C16_4 1_555 1_555
C17_4 H10_4 1_555 1_555
C18_4 C17_4 1_555 1_555
H11_4 C18_4 1_555 1_555
C19_4 H12_4 1_555 1_555
C20_4 H13_4 1_555 1_555
C21_4 H14_4 1_555 1_555
C22_4 C21_4 1_555 1_555
H15_4 C22_4 1_555 1_555
C23_4 H16_4 1_555 1_555
H17_4 C23_4 1_555 1_555
C24_4 H18_4 1_555 1_555
C25_4 H19_4 1_555 1_555
C26_4 C25_4 1_555 1_555
H20_4 C26_4 1_555 1_555
N1_4 C13_4 1_555 1_555
N2_4 C14_4 1_555 1_555
N3_4 C16_4 1_555 1_555
N4_2 C18_4 1_555 1_555
N5_4 C20_4 1_555 1_555
N6_4 C20_4 1_555 1_555
N7_4 C23_4 1_555 1_555
N8_2 C24_4 1_555 1_555
Cd4_2 N4_2 1_555 1_555
Cd6_2 N8_2 1_555 1_555
C15_4 N1_4 1_555 1_555
C15_4 N2_4 1_555 1_555
C16_4 N2_4 1_555 1_555
C17_4 N3_4 1_555 1_555
C19_4 N3_4 1_555 1_555
C19_4 N4_2 1_555 1_555
C21_4 N5_4 1_555 1_555
C22_4 N6_4 1_555 1_555
C23_4 N6_4 1_555 1_555
C24_4 N7_4 1_555 1_555
C25_4 N8_2 1_555 1_555
C26_4 N7_4 1_555 1_555
C1_4 C2_4 1_555 1_555
C2_4 C3_4 1_555 1_555
C3_4 H1_4 1_555 1_555
C4_4 C3_4 1_555 1_555
H2_4 C4_4 1_555 1_555
C5_4 C4_4 1_555 1_555
C6_4 C5_4 1_555 1_555
C7_4 C8_4 1_555 1_555
C8_4 C9_4 1_555 1_555
C9_4 H3_4 1_555 1_555
O1_4 C1_4 1_555 1_555
O2_4 C1_4 1_555 1_555
O9_2 C6_4 1_555 1_555
O4_4 C6_4 1_555 1_555
O5_4 C7_4 1_555 1_555
O6_4 C7_4 1_555 1_555
S1_4 C2_4 1_555 1_555
S2_4 C8_4 1_555 1_555
C5_4 S1_4 1_555 1_555
Cd4_2 O1_4 1_555 1_555
Cd4_2 O5_4 1_555 1_555
Cd4_2 O6_4 1_555 1_555
Cd6_2 O1_4 1_555 1_555
Cd6_2 O2_4 1_555 1_555
Cd6_2 O5_4 1_555 1_555
H4_4 C10_4 1_555 1_555
C11_4 C10_4 1_555 1_555
C12_4 C11_4 1_555 1_555
O10_2 C12_4 1_555 1_555
O8_4 C12_4 1_555 1_555

#END
